data_crystal

_cell_length_a 28.69792
_cell_length_b 27.54117
_cell_length_c 30.77794
_cell_angle_alpha 89.93570
_cell_angle_beta  89.92476
_cell_angle_gamma 90.90020

_symmetry_space_group_name_	'P 1'
_symmetry_space_group_name_H-M	'P 1'

loop_
_symmetry_equiv_pos_as_xyz
  x,y,z

loop_
_atom_site_label
_atom_site_type_symbol
_atom_site_fract_x
_atom_site_fract_y
_atom_site_fract_z
_atom_site_charge
Zn	Zn	0.49238 0.51123 0.99717 1.22500
C 	C 	0.54175 0.60328 0.00220 0.26800
O 	O 	0.52671 0.46891 0.03607 -0.48400
O 	O 	0.51799 0.61044 0.03813 -0.44500
O 	O 	0.56743 0.52528 0.07346 -0.48200
C 	C 	0.41955 0.56039 0.03948 0.35300
O 	O 	0.44120 0.55553 0.00223 -0.46500
O 	O 	0.44029 0.54819 0.07594 -0.49800
C 	C 	0.56632 0.48423 0.05215 0.29800
O 	O 	0.43529 0.45006 0.99008 -0.31200
Zn	Zn	0.50790 0.55722 0.08423 1.16900
O 	O 	0.54116 0.56029 0.98333 -0.41600
C 	C 	0.45511 0.43996 0.95337 0.25700
O 	O 	0.48916 0.46904 0.94257 -0.37600
Zn	Zn	0.37658 0.15176 0.97123 1.22400
C 	C 	0.40801 0.15544 0.06080 0.30500
O 	O 	0.30884 0.13830 0.97255 -0.44100
O 	O 	0.39662 0.20140 0.06173 -0.44000
O 	O 	0.30128 0.16240 0.04288 -0.48700
C 	C 	0.39871 0.25274 0.96745 0.35800
O 	O 	0.41707 0.20941 0.96915 -0.44800
O 	O 	0.35783 0.26035 0.98504 -0.50800
C 	C 	0.28552 0.13791 0.00934 0.28000
O 	O 	0.37624 0.15533 0.89411 -0.31600
Zn	Zn	0.33474 0.22316 0.03431 1.17100
O 	O 	0.39297 0.12735 0.02918 -0.43900
C 	C 	0.39638 0.11347 0.89638 0.26300
O 	O 	0.40319 0.09725 0.93523 -0.37700
C 	C 	0.53830 0.01860 0.25576 0.14700
C 	C 	0.51138 0.05114 0.23168 -0.11100
H 	H 	0.49035 0.07765 0.24836 0.07800
C 	C 	0.51140 0.04902 0.18615 0.08600
C 	C 	0.53810 0.01416 0.16478 -0.08500
C 	C 	0.56484 0.98150 0.18874 0.03200
C 	C 	0.56517 0.98396 0.23422 -0.10400
H 	H 	0.58596 0.95889 0.25286 0.06800
N 	N 	0.53769 0.02008 0.30247 -0.18000
C 	C 	0.50949 0.98815 0.32496 0.19500
C 	C 	0.51137 0.98620 0.37066 -0.08600
C 	C 	0.54249 0.01713 0.39296 0.06600
C 	C 	0.56861 0.05197 0.36964 -0.08100
C 	C 	0.56618 0.05253 0.32391 0.19800
C 	C 	0.48167 0.95491 0.39425 0.01100
C 	C 	0.48428 0.95294 0.43949 -0.05800
C 	C 	0.51925 0.97951 0.46201 0.01300
C 	C 	0.54660 0.01405 0.43877 -0.02500
C 	C 	0.57654 0.04689 0.46111 0.01600
C 	C 	0.59552 0.08661 0.39222 0.01100
C 	C 	0.59785 0.08542 0.43751 -0.05700
C 	C 	0.52583 0.97408 0.50755 0.01200
C 	C 	0.55546 0.00711 0.52998 -0.02500
C 	C 	0.58264 0.04190 0.50682 0.01600
O 	O 	0.59198 0.08378 0.30160 -0.19700
O 	O 	0.48094 0.95875 0.30365 -0.20700
H 	H 	0.61345 0.11564 0.37490 0.04500
H 	H 	0.61409 0.11586 0.45393 0.04700
H 	H 	0.45546 0.93304 0.37775 0.04100
H 	H 	0.45755 0.93275 0.45680 0.04500
C 	C 	0.61688 0.06921 0.52964 -0.05700
C 	C 	0.61880 0.06767 0.57493 0.01200
C 	C 	0.58948 0.03581 0.59832 -0.08100
C 	C 	0.55942 0.00398 0.57579 0.06600
C 	C 	0.50531 0.93492 0.53087 -0.05700
C 	C 	0.50801 0.93318 0.57611 0.01100
C 	C 	0.53420 0.96824 0.59890 -0.08400
C 	C 	0.59076 0.03414 0.64406 0.19900
N 	N 	0.56370 0.00095 0.66630 -0.18000
C 	C 	0.53674 0.96732 0.64460 0.19500
C 	C 	0.56249 0.00232 0.71300 0.14800
C 	C 	0.59733 0.97952 0.73726 -0.10200
C 	C 	0.59596 0.98076 0.78282 0.03300
C 	C 	0.55957 0.00457 0.80400 -0.08500
C 	C 	0.52425 0.02656 0.77986 0.09000
C 	C 	0.52603 0.02587 0.73437 -0.11400
O 	O 	0.61742 0.06518 0.66563 -0.20200
O 	O 	0.51265 0.93441 0.66667 -0.19700
H 	H 	0.62522 0.96092 0.72072 0.07100
H 	H 	0.49891 0.04302 0.71558 0.07900
H 	H 	0.64364 0.08963 0.51261 0.04800
H 	H 	0.64435 0.09017 0.59164 0.04500
H 	H 	0.48936 0.90446 0.51418 0.04600
H 	H 	0.49075 0.90357 0.59324 0.04500
H 	H 	0.55831 0.00528 0.83922 0.05900
H 	H 	0.53797 0.01240 0.12957 0.05900
Zn	Zn	0.71076 0.85421 0.99162 1.22500
C 	C 	0.67127 0.85889 0.07816 0.36000
O 	O 	0.77892 0.85914 0.99950 -0.44100
O 	O 	0.67694 0.81177 0.08144 -0.45500
O 	O 	0.77757 0.83449 0.07010 -0.48200
C 	C 	0.67149 0.75789 0.99118 0.37000
O 	O 	0.66193 0.80420 0.98791 -0.44100
O 	O 	0.71085 0.74473 0.00887 -0.52700
C 	C 	0.79764 0.85915 0.03854 0.28100
O 	O 	0.71929 0.84579 0.91533 -0.31700
Zn	Zn	0.73663 0.77963 0.05828 1.17200
O 	O 	0.69179 0.88357 0.04678 -0.43800
C 	C 	0.70385 0.88986 0.91357 0.31500
O 	O 	0.69537 0.90963 0.95079 -0.38500
Zn	Zn	0.14196 0.64571 0.01175 1.21700
C 	C 	0.12074 0.63796 0.10343 0.30600
O 	O 	0.12107 0.70939 0.99095 -0.44100
O 	O 	0.15927 0.66209 0.11257 -0.44700
O 	O 	0.11867 0.74156 0.05878 -0.49000
C 	C 	0.23707 0.64386 0.04011 0.30300
O 	O 	0.19922 0.61727 0.03406 -0.45200
O 	O 	0.23400 0.69090 0.04597 -0.50800
C 	C 	0.10570 0.74233 0.01795 0.28700
O 	O 	0.16839 0.62812 0.94041 -0.31100
Zn	Zn	0.18058 0.71981 0.07428 1.16900
O 	O 	0.10316 0.63968 0.06412 -0.44100
C 	C 	0.13279 0.59845 0.93926 0.26300
O 	O 	0.10738 0.59726 0.97391 -0.37500
C 	C 	0.98043 0.47936 0.28054 0.17100
C 	C 	0.95245 0.44761 0.25586 -0.12000
H 	H 	0.92953 0.42167 0.27204 0.08800
C 	C 	0.95405 0.44959 0.21037 0.09800
C 	C 	0.98368 0.48333 0.18967 -0.10000
C 	C 	0.01136 0.51536 0.21426 0.08400
C 	C 	0.01000 0.51309 0.25971 -0.13700
H 	H 	0.03132 0.53782 0.27886 0.07800
N 	N 	0.97819 0.47800 0.32714 -0.17800
C 	C 	0.00408 0.44480 0.34944 0.19000
C 	C 	0.00446 0.44490 0.39517 -0.09500
C 	C 	0.97909 0.48011 0.41766 0.07600
C 	C 	0.95058 0.51193 0.39437 -0.08300
C 	C 	0.95068 0.51041 0.34867 0.20300
C 	C 	0.02850 0.40943 0.41856 0.01200
C 	C 	0.02886 0.41022 0.46388 -0.05800
C 	C 	0.00858 0.44908 0.48682 0.00500
C 	C 	0.98131 0.48274 0.46356 -0.01800
C 	C 	0.95473 0.51769 0.48592 0.01700
C 	C 	0.92141 0.54363 0.41697 0.01300
C 	C 	0.92210 0.54515 0.46226 -0.05700
C 	C 	0.01304 0.45368 0.53269 0.00500
C 	C 	0.98666 0.48888 0.55498 -0.01700
C 	C 	0.95965 0.52268 0.53166 0.01600
O 	O 	0.92465 0.54062 0.32642 -0.19500
O 	O 	0.02929 0.41320 0.32794 -0.20700
H 	H 	0.89705 0.56617 0.39960 0.04500
H 	H 	0.89563 0.56574 0.47866 0.04800
H 	H 	0.04564 0.38011 0.40177 0.04100
H 	H 	0.04273 0.37926 0.48077 0.04500
C 	C 	0.94015 0.56212 0.55437 -0.05600
C 	C 	0.94099 0.56347 0.59966 0.01300
C 	C 	0.96442 0.52769 0.62321 -0.08200
C 	C 	0.98882 0.49159 0.60088 0.07500
C 	C 	0.04496 0.42554 0.55658 -0.05800
C 	C 	0.04504 0.42670 0.60189 0.01200
C 	C 	0.01631 0.45897 0.62432 -0.09400
C 	C 	0.96510 0.52825 0.66894 0.20200
N 	N 	0.98957 0.49402 0.69140 -0.17700
C 	C 	0.01575 0.46030 0.67004 0.19000
C 	C 	0.98716 0.49300 0.73800 0.16000
C 	C 	0.02258 0.51506 0.76275 -0.12600
C 	C 	0.02027 0.51394 0.80824 0.07900
C 	C 	0.98229 0.49094 0.82889 -0.07200
C 	C 	0.94714 0.46838 0.80420 0.03600
C 	C 	0.94959 0.46949 0.75875 -0.10000
O 	O 	0.94172 0.56148 0.69029 -0.19500
O 	O 	0.03987 0.42852 0.69242 -0.20500
H 	H 	0.05188 0.53268 0.74661 0.07600
H 	H 	0.92262 0.45185 0.73953 0.07100
H 	H 	0.92647 0.59303 0.53724 0.04800
H 	H 	0.92452 0.59332 0.61629 0.04600
H 	H 	0.07142 0.40472 0.54042 0.04600
H 	H 	0.06876 0.40358 0.61942 0.04300
H 	H 	0.98052 0.48989 0.86408 0.06600
H 	H 	0.98476 0.48505 0.15446 0.06500
Zn	Zn	0.81489 0.33398 0.00352 1.22100
C 	C 	0.82089 0.36371 0.91382 0.36300
O 	O 	0.76681 0.38389 0.00179 -0.45200
O 	O 	0.77592 0.35528 0.90994 -0.45000
O 	O 	0.70992 0.32911 0.98351 -0.51100
C 	C 	0.82232 0.23905 0.96745 0.31200
O 	O 	0.81834 0.26344 0.00384 -0.47700
O 	O 	0.79759 0.25120 0.93347 -0.48300
C 	C 	0.72251 0.37187 0.99877 0.38300
O 	O 	0.80829 0.33082 0.08041 -0.31300
Zn	Zn	0.74541 0.29510 0.93907 1.17300
O 	O 	0.84390 0.34560 0.94672 -0.44300
C 	C 	0.84861 0.35286 0.07984 0.26600
O 	O 	0.86556 0.36247 0.04184 -0.37900
Zn	Zn	0.01070 0.02709 0.00858 1.21700
C 	C 	0.05053 0.93204 0.00228 0.31000
O 	O 	0.96831 0.01697 0.05767 -0.47100
O 	O 	0.08091 0.94895 0.03063 -0.45900
O 	O 	0.99990 0.95106 0.08890 -0.47500
C 	C 	0.10201 0.05653 0.03305 0.34100
O 	O 	0.07551 0.04558 0.99967 -0.43600
O 	O 	0.08714 0.04718 0.07261 -0.49600
C 	C 	0.96317 0.97344 0.07427 0.34400
O 	O 	0.99505 0.11050 0.01072 -0.33300
Zn	Zn	0.06043 0.98358 0.08664 1.17000
O 	O 	0.01553 0.95899 0.98960 -0.41900
C 	C 	0.96894 0.10243 0.97705 0.32400
O 	O 	0.96818 0.05789 0.96333 -0.37800
C 	C 	0.85995 0.20411 0.96273 -0.03600
C 	C 	0.84980 0.15426 0.96032 -0.03300
C 	C 	0.88592 0.12072 0.96134 0.03200
C 	C 	0.93246 0.13690 0.96488 -0.13400
C 	C 	0.94267 0.18710 0.96409 0.20000
C 	C 	0.90641 0.22046 0.96301 -0.09000
H 	H 	0.87758 0.08222 0.96172 0.04000
H 	H 	0.91440 0.25906 0.96349 0.07300
H 	H 	0.81394 0.14141 0.95932 0.04100
O 	O 	0.98806 0.20355 0.96408 -0.28600
H 	H 	0.99574 0.20978 0.99501 0.16400
C 	C 	0.90956 0.44080 0.82607 0.06000
C 	C 	0.91204 0.39015 0.82923 -0.09400
C 	C 	0.88078 0.36447 0.85580 0.06600
C 	C 	0.84655 0.38918 0.87921 -0.17500
C 	C 	0.84200 0.43962 0.87379 0.22600
C 	C 	0.87376 0.46535 0.84749 -0.14700
H 	H 	0.88433 0.32557 0.85958 0.02500
H 	H 	0.87148 0.50449 0.84488 0.08700
H 	H 	0.93940 0.37092 0.81253 0.06400
O 	O 	0.80868 0.46423 0.89649 -0.29200
H 	H 	0.78102 0.46447 0.87722 0.15500
C 	C 	0.87241 0.36868 0.11961 -0.02500
C 	C 	0.91964 0.35817 0.12539 -0.02600
C 	C 	0.94546 0.38177 0.15770 -0.00500
C 	C 	0.92449 0.41671 0.18410 -0.07800
C 	C 	0.87633 0.42490 0.18031 0.16500
C 	C 	0.85031 0.40033 0.14843 -0.08400
H 	H 	0.98237 0.37482 0.16073 0.03900
H 	H 	0.81365 0.40811 0.14450 0.07800
H 	H 	0.93680 0.33319 0.10365 0.04700
O 	O 	0.85496 0.45771 0.20694 -0.28300
H 	H 	0.85740 0.48926 0.19145 0.15100
C 	C 	0.08104 0.78468 0.00122 -0.06500
C 	C 	0.04033 0.80006 0.02194 -0.01500
C 	C 	0.02510 0.84759 0.01617 -0.02700
C 	C 	0.05152 0.88046 0.99103 -0.10600
C 	C 	0.08844 0.86308 0.96559 0.17900
C 	C 	0.10275 0.81497 0.97037 -0.07400
H 	H 	0.99565 0.86024 0.03485 0.05800
H 	H 	0.13314 0.80263 0.95285 0.06200
H 	H 	0.02234 0.77632 0.04475 0.03600
O 	O 	0.11204 0.89371 0.93776 -0.28300
H 	H 	0.13816 0.90766 0.95504 0.15000
C 	C 	0.11544 0.57786 0.89842 -0.02600
C 	C 	0.11350 0.52733 0.89328 -0.02600
C 	C 	0.08508 0.50649 0.86131 -0.00900
C 	C 	0.05795 0.53604 0.83452 -0.07300
C 	C 	0.06298 0.58688 0.83712 0.16100
C 	C 	0.09184 0.60762 0.86900 -0.08200
H 	H 	0.08216 0.46731 0.85893 0.03700
H 	H 	0.09343 0.64675 0.87265 0.07400
H 	H 	0.13195 0.50409 0.91564 0.04400
O 	O 	0.03699 0.61629 0.81091 -0.28300
H 	H 	0.05676 0.62272 0.78502 0.14900
C 	C 	0.09474 0.61268 0.13796 -0.05400
C 	C 	0.11594 0.57580 0.16196 -0.01900
C 	C 	0.08898 0.54555 0.18891 -0.01800
C 	C 	0.04072 0.55218 0.19219 -0.07000
C 	C 	0.02001 0.59122 0.17038 0.13900
C 	C 	0.04708 0.62136 0.14343 -0.07100
H 	H 	0.10527 0.51580 0.20588 0.03600
H 	H 	0.03072 0.65057 0.12574 0.06200
H 	H 	0.15283 0.56911 0.15818 0.03900
O 	O 	0.97338 0.59997 0.17546 -0.26900
H 	H 	0.95767 0.58193 0.15159 0.14600
C 	C 	0.84023 0.88824 0.04751 -0.01900
C 	C 	0.85371 0.92633 0.01966 -0.06100
C 	C 	0.89308 0.95486 0.02912 0.04700
C 	C 	0.91949 0.94577 0.06663 -0.16400
C 	C 	0.90555 0.90813 0.09503 0.20600
C 	C 	0.86647 0.87919 0.08514 -0.10500
H 	H 	0.90351 0.98353 0.00685 0.02200
H 	H 	0.85651 0.84982 0.10686 0.06900
H 	H 	0.83360 0.93408 0.99079 0.07000
O 	O 	0.93036 0.89916 0.13218 -0.29600
H 	H 	0.91582 0.91946 0.15493 0.14600
C 	C 	0.63167 0.95588 0.80865 0.05600
C 	C 	0.66353 0.98321 0.83343 -0.09600
C 	C 	0.69013 0.96072 0.86547 0.05600
C 	C 	0.68514 0.91064 0.87310 -0.15300
C 	C 	0.65599 0.88252 0.84575 0.21700
C 	C 	0.62931 0.90529 0.81372 -0.14500
H 	H 	0.71296 0.98260 0.88582 0.02700
H 	H 	0.60502 0.88391 0.79441 0.08500
H 	H 	0.66598 0.02225 0.82934 0.06100
O 	O 	0.65062 0.83351 0.85254 -0.29000
H 	H 	0.67410 0.81821 0.83350 0.15900
C 	C 	0.59333 0.94549 0.16599 0.05600
C 	C 	0.57181 0.90603 0.14480 -0.09500
C 	C 	0.59797 0.87576 0.11804 0.06000
C 	C 	0.64573 0.88500 0.11199 -0.17500
C 	C 	0.66784 0.92287 0.13521 0.22300
C 	C 	0.64156 0.95305 0.16201 -0.14900
H 	H 	0.58075 0.84644 0.10058 0.02400
H 	H 	0.65841 0.98325 0.17859 0.08300
H 	H 	0.53460 0.89976 0.14800 0.05500
O 	O 	0.71474 0.93170 0.13027 -0.29200
H 	H 	0.72992 0.91174 0.15288 0.14700
C 	C 	0.24030 0.11268 0.01236 -0.04400
C 	C 	0.20443 0.12433 0.98349 -0.03600
C 	C 	0.15930 0.10609 0.99039 0.05100
C 	C 	0.14976 0.07549 0.02595 -0.17000
C 	C 	0.18643 0.06174 0.05363 0.20200
C 	C 	0.23128 0.08105 0.04715 -0.10000
H 	H 	0.13160 0.11640 0.96851 0.03600
H 	H 	0.25901 0.07164 0.06936 0.06900
H 	H 	0.21113 0.14888 0.95659 0.04500
O 	O 	0.17848 0.02972 0.08711 -0.31400
H 	H 	0.18374 0.99709 0.07456 0.12300
C 	C 	0.42074 0.09243 0.85901 -0.02500
C 	C 	0.45085 0.12153 0.83370 -0.02800
C 	C 	0.48287 0.10000 0.80563 -0.00700
C 	C 	0.48483 0.04925 0.80249 -0.07600
C 	C 	0.45212 0.02024 0.82519 0.16900
C 	C 	0.42015 0.04192 0.85324 -0.08400
H 	H 	0.50757 0.12264 0.78789 0.03600
H 	H 	0.39626 0.01928 0.87195 0.07500
H 	H 	0.45135 0.16063 0.83764 0.04900
O 	O 	0.45150 0.97074 0.82010 -0.28500
H 	H 	0.47188 0.95816 0.84341 0.14900
C 	C 	0.43113 0.13348 0.09840 -0.04900
C 	C 	0.41160 0.09182 0.11790 -0.01900
C 	C 	0.43669 0.06614 0.14899 -0.01400
C 	C 	0.48172 0.08160 0.16065 -0.07200
C 	C 	0.50044 0.12483 0.14285 0.15700
C 	C 	0.47485 0.15096 0.11212 -0.07700
H 	H 	0.42195 0.03303 0.16266 0.03700
H 	H 	0.48987 0.18350 0.09763 0.06900
H 	H 	0.37749 0.07853 0.10801 0.04300
O 	O 	0.54381 0.14133 0.15515 -0.28100
H 	H 	0.56581 0.12643 0.13436 0.14800
C 	C 	0.45306 0.39004 0.93718 -0.01000
C 	C 	0.41270 0.37375 0.91586 -0.05200
C 	C 	0.39814 0.32530 0.91994 0.04400
C 	C 	0.42356 0.29326 0.94597 -0.16200
C 	C 	0.46834 0.30737 0.96014 0.20600
C 	C 	0.48320 0.35581 0.95527 -0.10700
H 	H 	0.36470 0.31402 0.90675 0.02700
H 	H 	0.51567 0.36779 0.97006 0.07600
H 	H 	0.39012 0.39953 0.90009 0.05000
O 	O 	0.49522 0.27562 0.98312 -0.28800
H 	H 	0.51483 0.25948 0.96104 0.15000
C 	C 	0.28325 0.62134 0.03881 -0.03700
C 	C 	0.32082 0.64594 0.01897 -0.04400
C 	C 	0.36528 0.62608 0.01964 0.03600
C 	C 	0.37284 0.58157 0.04042 -0.16200
C 	C 	0.33517 0.55648 0.06002 0.20100
C 	C 	0.29051 0.57647 0.05922 -0.10000
H 	H 	0.39398 0.64543 0.00415 0.02700
H 	H 	0.26176 0.55741 0.07492 0.07100
H 	H 	0.31555 0.68046 0.00294 0.04400
O 	O 	0.34196 0.51274 0.08023 -0.29800
H 	H 	0.33693 0.48787 0.05735 0.14800
C 	C 	0.60983 0.46194 0.03716 -0.04700
C 	C 	0.61273 0.44433 0.99446 -0.03400
C 	C 	0.65070 0.41685 0.98153 0.05900
C 	C 	0.68653 0.40687 0.01092 -0.18500
C 	C 	0.68517 0.42677 0.05310 0.20900
C 	C 	0.64687 0.45449 0.06603 -0.09700
H 	H 	0.65176 0.40230 0.94885 0.01500
H 	H 	0.64526 0.46858 0.09885 0.06600
H 	H 	0.58491 0.45096 0.97155 0.04400
O 	O 	0.72084 0.41882 0.08176 -0.29200
H 	H 	0.71191 0.38866 0.09756 0.15100
C 	C 	0.57121 0.64296 0.98487 -0.00900
C 	C 	0.61766 0.63422 0.97360 -0.05300
C 	C 	0.64980 0.67283 0.97111 0.04300
C 	C 	0.63583 0.72045 0.98033 -0.16300
C 	C 	0.58797 0.72975 0.98596 0.20900
C 	C 	0.55593 0.69098 0.98809 -0.10800
H 	H 	0.68612 0.66535 0.96471 0.03300
H 	H 	0.51964 0.69810 0.99508 0.07900
H 	H 	0.62961 0.59733 0.96989 0.05900
O 	O 	0.57292 0.77615 0.99281 -0.28700
H 	H 	0.56510 0.78875 0.96355 0.16100
