data_crystal

_cell_length_a 15.48336
_cell_length_b 13.75978
_cell_length_c 39.16430
_cell_angle_alpha 90.92817
_cell_angle_beta  91.19787
_cell_angle_gamma 111.04946

_symmetry_space_group_name_	'P 1'
_symmetry_space_group_name_H-M	'P 1'

loop_
_symmetry_equiv_pos_as_xyz
  x,y,z

loop_
_atom_site_label
_atom_site_type_symbol
_atom_site_fract_x
_atom_site_fract_y
_atom_site_fract_z
_atom_site_charge
Ni	Ni	0.56041 0.22065 0.90372 1.09800
O 	O 	0.58915 0.34150 0.87124 -0.70500
Ni	Ni	0.71221 0.34840 0.85340 1.09900
O 	O 	0.46459 0.26119 0.92938 -0.38700
O 	O 	0.56559 0.42609 0.94128 -0.41900
O 	O 	0.45494 0.12703 0.87167 -0.37500
Ni	Ni	0.59799 0.47585 0.89133 1.06700
O 	O 	0.53975 0.99064 0.88782 -0.41400
O 	O 	0.73411 0.53744 0.90674 -0.40700
O 	O 	0.75427 0.48939 0.82896 -0.38000
O 	O 	0.67302 0.21479 0.88133 -0.70200
O 	O 	0.53921 0.09661 0.93386 -0.38900
O 	O 	0.82096 0.31621 0.83314 -0.36800
O 	O 	0.72774 0.15088 0.81678 -0.41600
Ni	Ni	0.63556 0.08381 0.85504 1.06500
H 	H 	0.54353 0.32463 0.85195 0.15100
H 	H 	0.72038 0.21677 0.89899 0.15100
C 	C 	0.77986 0.47875 0.91644 0.29200
O 	O 	0.53863 0.11403 0.82576 -0.41800
C 	C 	0.49157 0.34552 0.94887 0.27800
C 	C 	0.71733 0.56252 0.83265 0.29200
C 	C 	0.46292 0.11922 0.83849 0.28900
C 	C 	0.81075 0.22029 0.82351 0.27600
C 	C 	0.53916 0.00705 0.92139 0.28400
O 	O 	0.79731 0.41615 0.89443 -0.38500
O 	O 	0.63385 0.54065 0.84516 -0.42500
Ni	Ni	0.64072 0.39199 0.60282 1.09600
O 	O 	0.73603 0.42055 0.56493 -0.70000
Ni	Ni	0.81889 0.34639 0.58266 1.09600
O 	O 	0.57341 0.48193 0.58172 -0.37200
O 	O 	0.70563 0.61986 0.57488 -0.41000
O 	O 	0.54984 0.27357 0.57283 -0.37200
Ni	Ni	0.81104 0.56876 0.56144 1.06800
O 	O 	0.51896 0.18167 0.63265 -0.40700
O 	O 	0.84547 0.57565 0.61181 -0.42300
O 	O 	0.90794 0.38055 0.54305 -0.38000
O 	O 	0.72390 0.31869 0.62072 -0.70000
O 	O 	0.54937 0.35567 0.64162 -0.39200
O 	O 	0.88194 0.24903 0.60198 -0.36500
O 	O 	0.75027 0.11377 0.61379 -0.40400
Ni	Ni	0.64467 0.16968 0.62293 1.06300
H 	H 	0.70734 0.39264 0.54239 0.15300
H 	H 	0.75225 0.34792 0.64328 0.15000
C 	C 	0.91530 0.55029 0.62155 0.29300
O 	O 	0.61645 0.15111 0.57175 -0.40500
C 	C 	0.61970 0.56668 0.56558 0.29300
C 	C 	0.93954 0.47514 0.53066 0.29100
C 	C 	0.57593 0.20657 0.55567 0.28000
C 	C 	0.83823 0.16770 0.62040 0.28000
C 	C 	0.50731 0.25843 0.65044 0.28200
O 	O 	0.91954 0.46032 0.61179 -0.37100
O 	O 	0.93294 0.55463 0.54831 -0.41900
Ni	Ni	0.02654 0.01012 0.77788 1.09700
O 	O 	0.01496 0.89258 0.74360 -0.70700
Ni	Ni	0.08579 0.97486 0.70489 1.09700
O 	O 	0.95128 0.90481 0.81293 -0.37100
O 	O 	0.83328 0.83644 0.77349 -0.41800
O 	O 	0.14635 0.99379 0.79523 -0.39500
Ni	Ni	0.88874 0.81631 0.72723 1.06600
O 	O 	0.10846 0.27552 0.77548 -0.40900
O 	O 	0.86741 0.94606 0.71068 -0.42100
O 	O 	0.08319 0.84952 0.67598 -0.37900
O 	O 	0.07619 0.09057 0.73590 -0.70400
O 	O 	0.04883 0.13465 0.81043 -0.37900
O 	O 	0.18486 0.07556 0.67521 -0.38100
O 	O 	0.27762 0.15794 0.72135 -0.41600
Ni	Ni	0.18696 0.21083 0.74844 1.06700
H 	H 	0.04455 0.84449 0.75224 0.15400
H 	H 	0.02921 0.11746 0.72691 0.15000
C 	C 	0.90477 0.99356 0.68298 0.28500
O 	O 	0.22874 0.16795 0.79368 -0.39800
C 	C 	0.87362 0.82968 0.80282 0.27300
C 	C 	0.00520 0.76783 0.67535 0.27400
C 	C 	0.22467 0.07295 0.79973 0.30100
C 	C 	0.26670 0.13402 0.68823 0.27100
C 	C 	0.04824 0.22386 0.79857 0.27500
O 	O 	0.98401 0.98986 0.67251 -0.36500
O 	O 	0.92544 0.78007 0.68033 -0.40300
Ni	Ni	0.40079 0.78607 0.40335 1.09900
O 	O 	0.36280 0.67321 0.36496 -0.69600
Ni	Ni	0.24060 0.68437 0.34959 1.09500
O 	O 	0.49828 0.74103 0.42755 -0.37200
O 	O 	0.45736 0.57119 0.41153 -0.41300
O 	O 	0.50517 0.88298 0.37443 -0.37400
Ni	Ni	0.33474 0.53290 0.38311 1.06600
O 	O 	0.43134 0.02078 0.39847 -0.40000
O 	O 	0.26733 0.57118 0.42221 -0.43100
O 	O 	0.19832 0.56061 0.31560 -0.39000
O 	O 	0.28742 0.80510 0.38444 -0.70900
O 	O 	0.42979 0.90210 0.43911 -0.38000
O 	O 	0.13155 0.72777 0.33425 -0.36900
O 	O 	0.22753 0.89443 0.32446 -0.41600
Ni	Ni	0.32843 0.94193 0.36341 1.06000
H 	H 	0.40695 0.68685 0.34615 0.15600
H 	H 	0.24270 0.80067 0.40260 0.15200
C 	C 	0.18543 0.57835 0.41739 0.27600
O 	O 	0.41714 0.91056 0.33098 -0.42000
C 	C 	0.48136 0.64412 0.43555 0.29300
C 	C 	0.20159 0.47098 0.32515 0.28700
C 	C 	0.49432 0.90157 0.34211 0.28800
C 	C 	0.14402 0.82638 0.32922 0.27400
C 	C 	0.43266 0.99560 0.43096 0.26700
O 	O 	0.15653 0.59427 0.38658 -0.37400
O 	O 	0.21366 0.45623 0.35760 -0.42600
Ni	Ni	0.34827 0.62485 0.09417 1.10000
O 	O 	0.23408 0.57709 0.06172 -0.70200
Ni	Ni	0.15383 0.64180 0.08543 1.09800
O 	O 	0.39800 0.51157 0.07925 -0.37100
O 	O 	0.25575 0.38503 0.08144 -0.41000
O 	O 	0.42704 0.71723 0.05675 -0.37500
Ni	Ni	0.16078 0.42943 0.05419 1.07700
O 	O 	0.47141 0.85127 0.11180 -0.41400
O 	O 	0.06760 0.39755 0.09276 -0.40000
O 	O 	0.02914 0.56426 0.06071 -0.38300
O 	O 	0.27604 0.70847 0.11210 -0.70500
O 	O 	0.45857 0.68631 0.12690 -0.37900
O 	O 	0.09924 0.74059 0.10839 -0.37600
O 	O 	0.22082 0.88408 0.09260 -0.41000
Ni	Ni	0.34175 0.85374 0.10194 1.06500
H 	H 	0.24908 0.60902 0.03913 0.15200
H 	H 	0.26869 0.70001 0.13705 0.15600
C 	C 	0.08705 0.44352 0.12302 0.29800
O 	O 	0.34623 0.82625 0.05089 -0.41700
C 	C 	0.34169 0.41634 0.07144 0.28000
C 	C 	0.02153 0.51894 0.03022 0.28500
C 	C 	0.40154 0.78221 0.03842 0.28900
C 	C 	0.14497 0.84190 0.11010 0.27100
C 	C 	0.48907 0.78757 0.13362 0.27600
O 	O 	0.11685 0.54524 0.12612 -0.39200
O 	O 	0.07183 0.46247 0.02184 -0.41400
Ni	Ni	0.82998 0.95212 0.24322 1.09600
O 	O 	0.92867 0.96977 0.20761 -0.70300
Ni	Ni	0.03399 0.09331 0.22671 1.10000
O 	O 	0.73607 0.83147 0.21514 -0.37300
O 	O 	0.75326 0.93754 0.16962 -0.41500
O 	O 	0.88378 0.85067 0.26514 -0.38300
Ni	Ni	0.89482 0.99853 0.16185 1.06600
O 	O 	0.81216 0.07739 0.31388 -0.41500
O 	O 	0.88559 0.13678 0.17627 -0.41700
O 	O 	0.12901 0.08832 0.19236 -0.37900
O 	O 	0.92798 0.08948 0.25811 -0.69300
O 	O 	0.73502 0.92701 0.28153 -0.37500
O 	O 	0.13773 0.20036 0.25575 -0.37100
O 	O 	0.08439 0.11288 0.30405 -0.42800
Ni	Ni	0.94529 0.08917 0.30778 1.07100
H 	H 	0.94786 0.90849 0.20656 0.15400
H 	H 	0.90519 0.14594 0.25224 0.15600
C 	C 	0.96019 0.21952 0.17979 0.30500
O 	O 	0.91502 0.93508 0.31667 -0.40400
C 	C 	0.71030 0.84805 0.18420 0.27400
C 	C 	0.09968 0.05322 0.16108 0.29200
C 	C 	0.93155 0.87319 0.29409 0.28800
C 	C 	0.13885 0.19624 0.28915 0.28100
C 	C 	0.73959 0.99104 0.30787 0.28500
O 	O 	0.02629 0.22110 0.20163 -0.37400
O 	O 	0.02820 0.07007 0.14674 -0.40900
C 	C 	0.05964 0.38091 0.15371 -0.09300
C 	C 	0.97756 0.30217 0.15450 -0.09000
H 	H 	0.10815 0.39707 0.17536 0.07300
H 	H 	0.92643 0.29246 0.13400 0.06700
C 	C 	0.61739 0.78487 0.17100 -0.08700
C 	C 	0.56008 0.83286 0.16060 -0.09700
H 	H 	0.60036 0.70218 0.16583 0.06900
H 	H 	0.57544 0.91386 0.16821 0.05800
C 	C 	0.14792 0.99721 0.14174 -0.12300
C 	C 	0.09910 0.90904 0.12444 -0.08700
H 	H 	0.22265 0.02084 0.14482 0.06100
H 	H 	0.02384 0.88134 0.12377 0.03200
C 	C 	0.57272 0.92280 0.31890 -0.09500
C 	C 	0.66061 0.96714 0.33084 -0.08800
H 	H 	0.55844 0.90666 0.29169 0.06500
H 	H 	0.67437 0.99125 0.35759 0.06900
C 	C 	0.18378 0.29183 0.30963 -0.11200
C 	C 	0.17302 0.38127 0.30107 -0.11200
H 	H 	0.21672 0.28650 0.33394 0.04300
H 	H 	0.14012 0.38670 0.27674 0.07000
C 	C 	0.06412 0.86043 0.32669 -0.09800
C 	C 	0.99678 0.81993 0.30264 -0.09200
H 	H 	0.06695 0.92885 0.34159 0.04700
H 	H 	0.99623 0.75425 0.28671 0.07000
C 	C 	0.44545 0.14183 0.51329 -0.03100
C 	C 	0.54117 0.17673 0.52026 -0.08800
C 	C 	0.60155 0.17278 0.49398 0.06900
C 	C 	0.56407 0.12590 0.46229 -0.03500
C 	C 	0.46815 0.07894 0.45707 -0.07700
C 	C 	0.40847 0.09344 0.48172 0.06000
C 	C 	0.30504 0.04987 0.47557 -0.17400
H 	H 	0.39934 0.14739 0.53307 0.05100
H 	H 	0.60977 0.11958 0.44245 0.05000
C 	C 	0.70531 0.22503 0.49833 -0.18100
H 	H 	0.26995 0.08799 0.49281 0.06100
H 	H 	0.27822 0.96491 0.48019 0.05100
H 	H 	0.28719 0.06323 0.44887 0.04200
H 	H 	0.73051 0.21912 0.52461 0.04400
H 	H 	0.72593 0.30827 0.49173 0.04500
H 	H 	0.74131 0.18821 0.48102 0.06700
C 	C 	0.97291 0.44973 0.47021 -0.02700
C 	C 	0.00457 0.49659 0.50236 -0.11000
C 	C 	0.09659 0.56795 0.50672 0.08500
C 	C 	0.15224 0.59864 0.47815 -0.05200
C 	C 	0.12044 0.55285 0.44583 -0.08600
C 	C 	0.03090 0.47496 0.44203 0.06000
C 	C 	0.99692 0.41803 0.40828 -0.18000
H 	H 	0.90283 0.39378 0.46707 0.02900
H 	H 	0.22153 0.65651 0.48122 0.03500
C 	C 	0.13592 0.61181 0.54163 -0.19700
H 	H 	0.93211 0.34959 0.41107 0.05800
H 	H 	0.04929 0.38861 0.39784 0.07200
H 	H 	0.98239 0.47104 0.38984 0.08100
H 	H 	0.11349 0.55069 0.56114 0.08500
H 	H 	0.11271 0.67679 0.54871 0.07400
H 	H 	0.21285 0.64213 0.54205 0.06400
C 	C 	0.63584 0.59234 0.50332 -0.03000
C 	C 	0.58373 0.58739 0.53255 -0.11300
C 	C 	0.49774 0.60118 0.52982 0.09000
C 	C 	0.46451 0.61768 0.49766 -0.04700
C 	C 	0.51685 0.62298 0.46851 -0.08900
C 	C 	0.60366 0.61141 0.47133 0.07300
C 	C 	0.66153 0.61788 0.44033 -0.19100
H 	H 	0.70141 0.58073 0.50548 -0.01700
H 	H 	0.39797 0.62697 0.49530 0.03800
C 	C 	0.44091 0.59747 0.56093 -0.20000
H 	H 	0.73126 0.61744 0.44739 0.05700
H 	H 	0.67138 0.69111 0.42671 0.08100
H 	H 	0.62671 0.55017 0.42281 0.07300
H 	H 	0.48457 0.64851 0.58177 0.07500
H 	H 	0.41122 0.51623 0.56983 0.08400
H 	H 	0.38290 0.62487 0.55532 0.06500
C 	C 	0.89334 0.11883 0.64034 -0.09400
C 	C 	0.85171 0.04132 0.66172 -0.09200
H 	H 	0.96823 0.14849 0.63841 0.07300
H 	H 	0.77742 0.01632 0.66503 0.05200
C 	C 	0.42850 0.23454 0.67373 -0.09400
C 	C 	0.34885 0.15410 0.66686 -0.09200
H 	H 	0.43319 0.28761 0.69514 0.05200
H 	H 	0.34228 0.10571 0.64402 0.07500
C 	C 	0.99947 0.63320 0.63445 -0.07300
C 	C 	0.00484 0.66366 0.66708 -0.11600
H 	H 	0.03990 0.68839 0.61607 0.05600
H 	H 	0.97739 0.60445 0.68607 0.04700
C 	C 	0.81214 0.41621 0.97202 -0.03800
C 	C 	0.82905 0.49897 0.94965 -0.09900
C 	C 	0.90140 0.59500 0.95726 0.08200
C 	C 	0.95943 0.60386 0.98606 -0.03900
C 	C 	0.94644 0.51816 0.00684 -0.08700
C 	C 	0.86844 0.42636 0.00125 0.07600
C 	C 	0.84849 0.33659 0.02518 -0.19300
H 	H 	0.75717 0.34238 0.96591 0.01800
H 	H 	0.01792 0.67547 0.99118 0.02900
C 	C 	0.91956 0.68629 0.93403 -0.19500
H 	H 	0.77569 0.28185 0.02198 0.06000
H 	H 	0.85897 0.36539 0.05218 0.07900
H 	H 	0.89524 0.29331 0.01994 0.06900
H 	H 	0.85907 0.71158 0.93347 0.07600
H 	H 	0.93243 0.66420 0.90775 0.08100
H 	H 	0.98113 0.75399 0.94288 0.06600
C 	C 	0.57039 0.91084 0.96984 -0.04500
C 	C 	0.50878 0.91719 0.94398 -0.09500
C 	C 	0.41354 0.85710 0.94614 0.08000
C 	C 	0.37986 0.80581 0.97653 -0.04200
C 	C 	0.44035 0.81174 0.00432 -0.09400
C 	C 	0.53701 0.85942 0.00026 0.07700
C 	C 	0.60446 0.86064 0.02878 -0.19700
H 	H 	0.64396 0.95351 0.96750 0.02700
H 	H 	0.30600 0.76569 0.97918 0.03400
C 	C 	0.34662 0.85502 0.91736 -0.19700
H 	H 	0.67732 0.90244 0.02162 0.06000
H 	H 	0.59728 0.77968 0.03493 0.08400
H 	H 	0.59129 0.90057 0.05187 0.08000
H 	H 	0.37302 0.83844 0.89264 0.07700
H 	H 	0.33753 0.93139 0.91628 0.08700
H 	H 	0.27773 0.79340 0.92079 0.06400
C 	C 	0.35369 0.31342 0.98427 -0.03300
C 	C 	0.44984 0.34197 0.98251 -0.09400
C 	C 	0.50418 0.36026 0.01309 0.07900
C 	C 	0.46371 0.36831 0.04423 -0.03700
C 	C 	0.36978 0.35597 0.04515 -0.09200
C 	C 	0.31257 0.31375 0.01583 0.05000
C 	C 	0.20881 0.26649 0.01790 -0.17400
H 	H 	0.31074 0.29024 0.96116 0.04000
H 	H 	0.50675 0.39210 0.06730 0.04800
C 	C 	0.60472 0.37192 0.01272 -0.19200
H 	H 	0.17953 0.20481 0.99776 0.06200
H 	H 	0.17851 0.32723 0.01384 -0.02300
H 	H 	0.18785 0.22874 0.04276 0.05400
H 	H 	0.64675 0.44976 0.00320 0.07900
H 	H 	0.61351 0.31006 0.99617 0.06300
H 	H 	0.63148 0.36429 0.03870 0.06600
C 	C 	0.89183 0.19096 0.81799 -0.10300
C 	C 	0.97317 0.26014 0.80826 -0.09000
H 	H 	0.88257 0.10898 0.81937 0.04900
H 	H 	0.98135 0.34109 0.80468 0.07000
C 	C 	0.30039 0.05877 0.81974 -0.09200
C 	C 	0.38822 0.12153 0.81529 -0.09800
H 	H 	0.28443 0.99851 0.83873 0.06900
H 	H 	0.40510 0.17489 0.79418 0.05500
C 	C 	0.75569 0.65782 0.81298 -0.10000
C 	C 	0.83224 0.73709 0.82405 -0.10400
H 	H 	0.71981 0.66405 0.78946 0.04900
H 	H 	0.86628 0.73167 0.84812 0.06400
