data_crystal

_cell_length_a 30.86480
_cell_length_b 31.07714
_cell_length_c 26.53717
_cell_angle_alpha 95.54457
_cell_angle_beta  95.53599
_cell_angle_gamma 125.57369

_symmetry_space_group_name_	'P 1'
_symmetry_space_group_name_H-M	'P 1'

loop_
_symmetry_equiv_pos_as_xyz
  x,y,z

loop_
_atom_site_label
_atom_site_type_symbol
_atom_site_fract_x
_atom_site_fract_y
_atom_site_fract_z
_atom_site_charge
C 	C 	0.02689 0.05134 0.97306 -0.07900
C 	C 	0.05021 0.02395 0.96869 0.04900
H 	H 	0.05127 0.09434 0.97359 0.05600
C 	C 	0.03543 0.01228 0.44376 0.03200
C 	C 	0.00916 0.03682 0.44022 -0.07400
H 	H 	0.03221 0.07925 0.43828 0.05200
C 	C 	0.09429 0.04402 0.44499 -0.00300
C 	C 	0.11405 0.03127 0.40520 -0.03400
C 	C 	0.16991 0.05999 0.40733 -0.04100
C 	C 	0.20644 0.10169 0.44928 0.00900
C 	C 	0.18668 0.11477 0.48885 -0.04100
C 	C 	0.13081 0.08605 0.48671 -0.03400
H 	H 	0.18480 0.04987 0.37643 0.04300
H 	H 	0.11590 0.09603 0.51769 0.04100
C 	C 	0.15406 0.07569 0.96393 -0.01000
C 	C 	0.10677 0.05281 0.96594 -0.02400
C 	C 	0.21046 0.10179 0.96203 0.02800
H 	H 	0.23894 0.14543 0.04056 0.04400
C 	C 	0.26535 0.13156 0.45181 0.01100
C 	C 	0.34509 0.13291 0.45642 -0.02700
C 	C 	0.28935 0.10473 0.45490 -0.04000
H 	H 	0.26483 0.06211 0.45607 0.04500
C 	C 	0.30449 0.15769 0.00570 -0.04200
C 	C 	0.25019 0.13612 0.00596 -0.05100
H 	H 	0.33491 0.18385 0.03997 0.04300
H 	H 	0.21460 0.14686 0.52142 0.04400
H 	H 	0.19483 0.06334 0.88337 0.04600
C 	C 	0.29758 0.18683 0.45064 -0.04100
H 	H 	0.27940 0.20785 0.44812 0.04300
C 	C 	0.31937 0.14495 0.96148 0.01100
C 	C 	0.22538 0.08994 0.91745 -0.04300
C 	C 	0.27970 0.11151 0.91714 -0.03400
H 	H 	0.29082 0.10157 0.88278 0.04500
H 	H 	0.99683 0.10135 0.05487 0.04000
C 	C 	0.35330 0.21495 0.45220 -0.02800
C 	C 	0.97190 0.02306 0.97662 0.03500
C 	C 	0.92580 0.03273 0.43586 -0.00300
C 	C 	0.92360 0.05353 0.39181 -0.03500
C 	C 	0.90142 0.08195 0.39015 -0.04100
C 	C 	0.88132 0.08983 0.43254 0.00800
C 	C 	0.88236 0.06794 0.47610 -0.04100
C 	C 	0.90448 0.03948 0.47774 -0.03500
C 	C 	0.86109 0.12268 0.43215 0.01000
C 	C 	0.81349 0.10432 0.39807 -0.04200
H 	H 	0.93976 0.04832 0.35920 0.03900
H 	H 	0.90069 0.09861 0.35632 0.04300
H 	H 	0.86661 0.07353 0.50888 0.04200
H 	H 	0.90600 0.02356 0.51190 0.03900
H 	H 	0.79182 0.06632 0.37131 0.04400
H 	H 	0.36327 0.11186 0.45857 0.04800
C 	C 	0.94702 0.05157 0.98088 0.00500
C 	C 	0.96419 0.09077 0.02464 -0.04300
C 	C 	0.93859 0.11570 0.02988 -0.04700
C 	C 	0.89560 0.10157 0.99141 0.01200
C 	C 	0.87897 0.06294 0.94732 -0.03900
C 	C 	0.90456 0.03805 0.94208 -0.03600
C 	C 	0.86780 0.12700 0.99729 0.02500
C 	C 	0.81253 0.09549 0.00017 -0.06000
C 	C 	0.78512 0.11879 0.00170 -0.01600
H 	H 	0.84614 0.05214 0.91721 0.04200
H 	H 	0.79066 0.05283 0.00036 0.04500
H 	H 	0.74217 0.09392 0.00276 0.03800
H 	H 	0.37743 0.12110 0.01909 0.04600
C 	C 	0.79322 0.13457 0.39923 -0.02700
H 	H 	0.75591 0.11965 0.37345 0.04600
H 	H 	0.89122 0.00804 0.90804 0.04100
Br	Br	0.58935 0.20721 0.27353 -0.22700
Br	Br	0.57099 0.19141 0.14486 -0.19600
C 	C 	0.88889 0.17205 0.46653 -0.04300
C 	C 	0.86864 0.20225 0.46760 -0.02900
C 	C 	0.82050 0.18336 0.43432 -0.00700
C 	C 	0.79716 0.21210 0.43882 0.05300
H 	H 	0.92590 0.18674 0.49269 0.04300
C 	C 	0.37713 0.18802 0.45493 -0.00300
C 	C 	0.43425 0.21678 0.45520 0.05400
C 	C 	0.81278 0.17372 0.00049 -0.03500
C 	C 	0.86835 0.20559 0.99918 -0.00800
C 	C 	0.89581 0.18233 0.99762 -0.05200
C 	C 	0.78330 0.19634 0.99624 0.07100
C 	C 	0.75851 0.21505 0.99126 -0.11700
H 	H 	0.95174 0.14552 0.06403 0.04200
H 	H 	0.93849 0.20700 0.99550 0.04700
C 	C 	0.37626 0.16576 0.96207 0.02400
C 	C 	0.40083 0.15025 0.99540 -0.05000
C 	C 	0.45597 0.17334 0.99920 0.02100
H 	H 	0.47479 0.16223 0.02628 0.04800
C 	C 	0.95315 0.00663 0.43928 0.03100
H 	H 	0.88992 0.23991 0.49485 0.04000
O 	O 	0.56879 0.22057 0.99920 -0.34400
O 	O 	0.68272 0.21559 0.99913 -0.35700
C 	C 	0.54657 0.24199 0.97883 0.28400
C 	C 	0.72903 0.23713 0.98345 0.31700
H 	H 	0.60414 0.23313 0.90624 0.18600
O 	O 	0.71730 0.24737 0.48143 -0.43300
C 	C 	0.75412 0.26402 0.45239 0.31200
H 	H 	0.62541 0.25684 0.41401 0.18100
Br	Br	0.56704 0.21850 0.62367 -0.21400
Br	Br	0.55452 0.21308 0.74720 -0.20500
C 	C 	0.77759 0.23599 0.44410 -0.11000
C 	C 	0.48207 0.24132 0.45508 -0.09300
H 	H 	0.37787 0.25757 0.45100 0.04400
H 	H 	0.88999 0.24808 0.99821 0.03900
C 	C 	0.48712 0.21230 0.96974 -0.08000
C 	C 	0.46189 0.22605 0.93476 0.01300
C 	C 	0.40672 0.20292 0.93101 -0.05900
H 	H 	0.38795 0.21478 0.90484 0.05100
Cu	Cu	0.64830 0.25341 0.00105 0.92800
Cu	Cu	0.69659 0.26089 0.89499 0.87300
O 	O 	0.64119 0.25770 0.92725 -0.63800
O 	O 	0.74472 0.27378 0.95462 -0.43200
O 	O 	0.66664 0.26296 0.07435 -0.34500
O 	O 	0.66607 0.26429 0.83042 -0.40100
O 	O 	0.57047 0.27167 0.49224 -0.36600
C 	C 	0.53894 0.27122 0.45449 0.31200
C 	C 	0.61931 0.27347 0.72966 0.10500
C 	C 	0.62343 0.27703 0.67765 0.09700
C 	C 	0.63597 0.25560 0.18671 0.10700
C 	C 	0.64320 0.26263 0.24083 0.09800
H 	H 	0.48521 0.25537 0.91118 0.04200
Cu	Cu	0.72872 0.29484 0.54050 0.87400
O 	O 	0.64854 0.29569 0.42946 -0.64000
C 	C 	0.66310 0.29466 0.10777 0.33200
O 	O 	0.57755 0.29235 0.97288 -0.38600
O 	O 	0.77423 0.30973 0.43654 -0.36000
O 	O 	0.55888 0.30373 0.42096 -0.38400
C 	C 	0.67550 0.29626 0.16311 -0.10900
Cu	Cu	0.64848 0.31168 0.50109 0.90100
C 	C 	0.66505 0.30491 0.82208 0.32500
C 	C 	0.69089 0.32347 0.32643 0.33100
C 	C 	0.68017 0.32128 0.61220 0.32500
O 	O 	0.72440 0.32253 0.36041 -0.34100
O 	O 	0.72334 0.32427 0.60431 -0.40100
C 	C 	0.66229 0.31455 0.76899 -0.11000
C 	C 	0.68946 0.31060 0.27122 -0.10700
O 	O 	0.63663 0.31412 0.09319 -0.37400
O 	O 	0.65089 0.32500 0.57551 -0.35700
C 	C 	0.66971 0.32259 0.66512 -0.10900
O 	O 	0.65795 0.33149 0.85827 -0.35900
Cu	Cu	0.67291 0.33550 0.93271 0.90200
C 	C 	0.01868 0.96842 0.96786 -0.08200
H 	H 	0.03681 0.94728 0.96462 0.05900
H 	H 	0.02591 0.93846 0.44916 0.05300
H 	H 	0.08613 0.99901 0.37275 0.04000
C 	C 	0.00560 0.95745 0.44627 -0.07400
C 	C 	0.96392 0.94016 0.97155 0.04900
C 	C 	0.94051 0.96740 0.97593 -0.08000
H 	H 	0.89812 0.94551 0.97900 0.05600
C 	C 	0.92344 0.95176 0.44201 -0.07500
C 	C 	0.94965 0.92712 0.44531 0.03100
H 	H 	0.88013 0.92830 0.44117 0.05200
Cu	Cu	0.64582 0.35169 0.03374 0.89800
O 	O 	0.69010 0.33691 0.00450 -0.64400
O 	O 	0.70945 0.41233 0.94049 -0.37000
C 	C 	0.70724 0.44288 0.97688 0.30500
O 	O 	0.67681 0.42254 0.01223 -0.39400
H 	H 	0.72922 0.36157 0.01994 0.17900
Cu	Cu	0.73308 0.34076 0.43362 0.93200
Cu	Cu	0.63046 0.33705 0.39931 0.90100
O 	O 	0.76263 0.41887 0.43472 -0.34700
O 	O 	0.72784 0.34734 0.50726 -0.63900
O 	O 	0.66893 0.34763 0.34014 -0.37000
C 	C 	0.73862 0.43864 0.45395 0.30300
O 	O 	0.68820 0.40597 0.45992 -0.38800
H 	H 	0.75092 0.38432 0.52797 0.18700
C 	C 	0.70567 0.36251 0.75643 0.09800
C 	C 	0.70889 0.36682 0.70440 0.10500
Br	Br	0.76624 0.43339 0.68675 -0.20400
Br	Br	0.76173 0.42128 0.81044 -0.21900
C 	C 	0.72415 0.34173 0.19350 0.09900
C 	C 	0.73101 0.34917 0.24761 0.10500
Br	Br	0.79615 0.41325 0.28940 -0.18700
Br	Br	0.78072 0.39430 0.16078 -0.22700
C 	C 	0.91855 0.86934 0.44710 -0.00300
C 	C 	0.90204 0.85131 0.49288 -0.03400
C 	C 	0.87753 0.79736 0.49623 -0.04100
C 	C 	0.86924 0.76109 0.45375 0.00900
C 	C 	0.88463 0.77891 0.40761 -0.04100
C 	C 	0.90922 0.83283 0.40432 -0.03400
C 	C 	0.84534 0.70471 0.45776 0.01100
C 	C 	0.79481 0.66278 0.42745 -0.04100
C 	C 	0.77368 0.60918 0.42877 -0.02800
C 	C 	0.80290 0.59712 0.46035 -0.00300
C 	C 	0.85297 0.63892 0.49132 -0.02700
C 	C 	0.87414 0.69260 0.49008 -0.04100
C 	C 	0.78198 0.54181 0.45982 0.05200
C 	C 	0.76310 0.49499 0.45798 -0.09600
H 	H 	0.90921 0.87929 0.52613 0.04000
H 	H 	0.86544 0.78387 0.53190 0.04300
H 	H 	0.87829 0.75117 0.37459 0.04400
H 	H 	0.92192 0.84647 0.36885 0.04000
H 	H 	0.77221 0.67174 0.40253 0.04300
H 	H 	0.73486 0.57704 0.40485 0.04300
H 	H 	0.87573 0.62988 0.51590 0.04600
H 	H 	0.91325 0.72472 0.51353 0.04500
C 	C 	0.73545 0.50054 0.97508 -0.08200
C 	C 	0.78200 0.52811 0.95286 0.02100
C 	C 	0.80900 0.58283 0.95165 -0.05800
C 	C 	0.78975 0.61052 0.97260 0.02600
C 	C 	0.74309 0.58301 0.99448 -0.05400
C 	C 	0.71605 0.52831 0.99574 0.02600
C 	C 	0.81887 0.66848 0.97228 0.01000
C 	C 	0.84270 0.70570 0.01895 -0.04100
C 	C 	0.87077 0.76071 0.01865 -0.05100
C 	C 	0.87522 0.77884 0.97176 0.02800
C 	C 	0.85119 0.74173 0.92512 -0.04300
C 	C 	0.82306 0.68669 0.92535 -0.03400
C 	C 	0.90581 0.83562 0.97152 -0.01100
C 	C 	0.93196 0.88324 0.97147 -0.02500
H 	H 	0.79762 0.50735 0.93705 0.05000
H 	H 	0.84513 0.60383 0.93484 0.05600
H 	H 	0.72776 0.60400 0.01045 0.04200
H 	H 	0.67984 0.50749 0.01242 0.03100
H 	H 	0.83978 0.69203 0.05536 0.04200
H 	H 	0.88936 0.78922 0.05485 0.04400
H 	H 	0.85452 0.75551 0.88873 0.04600
H 	H 	0.80457 0.65823 0.88914 0.04700
