data_crystal

_cell_length_a 29.83388
_cell_length_b 30.40894
_cell_length_c 23.25514
_cell_angle_alpha 95.50071
_cell_angle_beta  95.49263
_cell_angle_gamma 125.59352

_symmetry_space_group_name_	'P 1'
_symmetry_space_group_name_H-M	'P 1'

loop_
_symmetry_equiv_pos_as_xyz
  x,y,z

loop_
_atom_site_label
_atom_site_type_symbol
_atom_site_fract_x
_atom_site_fract_y
_atom_site_fract_z
_atom_site_charge
C 	C 	0.97302 0.02581 0.98372 0.11200
C 	C 	0.04430 0.01910 0.96059 0.11500
N 	N 	0.02671 0.05029 0.97569 -0.13600
C 	C 	0.95066 0.00143 0.45028 0.10600
N 	N 	0.00765 0.03397 0.45797 -0.13600
C 	C 	0.03590 0.01195 0.46603 0.11600
Cu	Cu	0.65163 0.26187 0.00961 0.92600
Cu	Cu	0.70259 0.25648 0.89280 0.86700
Cu	Cu	0.68016 0.33847 0.92102 0.89600
Cu	Cu	0.65179 0.36566 0.03199 0.89300
C 	C 	0.66437 0.31259 0.12651 0.28300
O 	O 	0.56957 0.23145 0.00299 -0.36700
C 	C 	0.67699 0.29694 0.79935 0.27700
O 	O 	0.69666 0.34608 0.00503 -0.64000
O 	O 	0.64634 0.25964 0.92382 -0.63900
O 	O 	0.68577 0.22197 0.01777 -0.37100
O 	O 	0.75099 0.27503 0.96425 -0.44000
O 	O 	0.63790 0.33123 0.10327 -0.38300
O 	O 	0.71765 0.41635 0.92245 -0.38700
C 	C 	0.70792 0.44776 0.95350 0.29900
C 	C 	0.54844 0.25257 0.97391 0.28800
O 	O 	0.58209 0.30264 0.96324 -0.39800
O 	O 	0.68944 0.43678 0.00354 -0.39900
O 	O 	0.66876 0.27771 0.09405 -0.35600
C 	C 	0.73370 0.24055 0.00090 0.28600
O 	O 	0.67190 0.32998 0.83469 -0.37400
O 	O 	0.67204 0.25433 0.81583 -0.41800
H 	H 	0.73707 0.37137 0.02285 0.16500
H 	H 	0.60811 0.23357 0.89989 0.17400
Cu	Cu	0.73310 0.33736 0.42123 0.92700
Cu	Cu	0.73105 0.28110 0.53560 0.86900
Cu	Cu	0.64963 0.30573 0.50486 0.89600
Cu	Cu	0.63664 0.35136 0.40100 0.89400
C 	C 	0.68708 0.33402 0.30511 0.28000
O 	O 	0.77372 0.42009 0.43289 -0.36300
C 	C 	0.69023 0.30793 0.62789 0.28200
O 	O 	0.64742 0.29935 0.42179 -0.64000
O 	O 	0.73065 0.33816 0.50623 -0.64000
O 	O 	0.76699 0.29721 0.41078 -0.37200
O 	O 	0.70952 0.23365 0.46311 -0.44300
O 	O 	0.67111 0.36270 0.32922 -0.38100
O 	O 	0.56987 0.27055 0.49680 -0.38300
C 	C 	0.54171 0.28301 0.46353 0.29000
C 	C 	0.75526 0.44408 0.46181 0.28400
O 	O 	0.70385 0.41406 0.47190 -0.39300
O 	O 	0.56732 0.32395 0.43424 -0.39500
O 	O 	0.72021 0.32618 0.33683 -0.35400
C 	C 	0.74434 0.24898 0.42616 0.29000
O 	O 	0.64906 0.29856 0.58859 -0.38100
O 	O 	0.73337 0.31165 0.61218 -0.42000
H 	H 	0.61984 0.26148 0.39902 0.16300
H 	H 	0.75674 0.37481 0.53202 0.17300
C 	C 	0.68002 0.30279 0.73903 -0.04900
C 	C 	0.68400 0.30608 0.68825 -0.05200
C 	C 	0.68093 0.32460 0.24224 -0.04200
C 	C 	0.67426 0.31829 0.18932 -0.04400
C 	C 	0.76409 0.21572 0.40902 -0.10100
C 	C 	0.73206 0.15979 0.41340 0.01600
C 	C 	0.75417 0.13025 0.40582 -0.07900
C 	C 	0.80856 0.15630 0.39382 0.04700
C 	C 	0.83913 0.21104 0.38561 -0.07900
C 	C 	0.81716 0.24076 0.39340 0.01900
C 	C 	0.83400 0.12667 0.39058 -0.05800
C 	C 	0.83682 0.10278 0.43523 -0.04700
C 	C 	0.86399 0.07467 0.43379 0.02900
C 	C 	0.91686 0.09991 0.41769 -0.05600
C 	C 	0.94441 0.07532 0.42159 -0.01900
C 	C 	0.92001 0.02579 0.44286 -0.02000
C 	C 	0.86702 0.00051 0.45870 -0.02600
C 	C 	0.83930 0.02490 0.45426 -0.05500
H 	H 	0.69047 0.13946 0.42379 0.02600
H 	H 	0.72938 0.08737 0.41013 0.04600
H 	H 	0.88064 0.23112 0.37504 0.04700
H 	H 	0.84217 0.28365 0.38918 0.03300
H 	H 	0.85318 0.12697 0.35303 0.04300
H 	H 	0.81726 0.10240 0.47250 0.03800
H 	H 	0.93720 0.13916 0.40346 0.04100
H 	H 	0.98496 0.09511 0.40864 0.03800
H 	H 	0.79889 0.00544 0.46751 0.03900
C 	C 	0.09749 0.04685 0.47320 -0.02400
C 	C 	0.12911 0.04015 0.51520 -0.01500
C 	C 	0.18685 0.06880 0.51790 -0.05800
C 	C 	0.21368 0.10468 0.47891 0.03300
C 	C 	0.18220 0.11214 0.43746 -0.05800
C 	C 	0.12446 0.08374 0.43505 -0.01500
C 	C 	0.27351 0.13006 0.47806 -0.04700
C 	C 	0.30956 0.18337 0.47448 -0.05600
C 	C 	0.36868 0.20767 0.47129 0.04800
C 	C 	0.39191 0.23550 0.42550 -0.07700
C 	C 	0.44797 0.25916 0.42239 0.01800
C 	C 	0.48180 0.25610 0.46579 -0.09000
C 	C 	0.45849 0.22844 0.51195 0.01800
C 	C 	0.40228 0.20451 0.51475 -0.07600
H 	H 	0.10878 0.01209 0.54517 0.03800
H 	H 	0.21064 0.06253 0.54979 0.04300
H 	H 	0.20209 0.13858 0.40603 0.04300
H 	H 	0.10042 0.08889 0.40213 0.03800
H 	H 	0.28864 0.10529 0.48242 0.04100
H 	H 	0.29474 0.20842 0.47053 0.04400
H 	H 	0.36636 0.23840 0.39197 0.04700
H 	H 	0.46508 0.27984 0.38622 0.02800
H 	H 	0.48402 0.22613 0.54611 0.03800
H 	H 	0.38500 0.18401 0.55098 0.04900
C 	C 	0.95380 0.05964 0.00041 -0.02900
C 	C 	0.97753 0.11054 0.98247 -0.02300
C 	C 	0.95760 0.14130 0.99614 -0.05100
C 	C 	0.91332 0.12125 0.02716 0.02600
C 	C 	0.89068 0.07123 0.04668 -0.05700
C 	C 	0.91072 0.04053 0.03330 -0.01700
C 	C 	0.89111 0.15308 0.03931 -0.04600
C 	C 	0.83604 0.12954 0.02360 -0.05800
C 	C 	0.81430 0.16269 0.02686 0.04700
C 	C 	0.76207 0.14061 0.04323 -0.07900
C 	C 	0.73694 0.16748 0.03789 0.01800
C 	C 	0.76370 0.21663 0.01565 -0.09900
C 	C 	0.81733 0.24014 0.00216 0.01100
C 	C 	0.84207 0.21296 0.00684 -0.08200
H 	H 	0.01073 0.12586 0.95710 0.04600
H 	H 	0.97581 0.18022 0.98157 0.03900
H 	H 	0.85757 0.05613 0.07215 0.04200
H 	H 	0.92051 0.19700 0.05664 0.03800
H 	H 	0.80664 0.08539 0.00747 0.04200
H 	H 	0.74021 0.10184 0.05863 0.04700
H 	H 	0.69589 0.14905 0.04915 0.03500
H 	H 	0.83907 0.27855 0.98607 0.02800
H 	H 	0.88179 0.22994 0.99273 0.04800
C 	C 	0.48712 0.22391 0.96184 -0.09400
C 	C 	0.45309 0.18607 0.99642 0.02200
C 	C 	0.39635 0.16425 0.99012 -0.07200
C 	C 	0.37272 0.17935 0.94851 0.04600
C 	C 	0.40629 0.21599 0.91293 -0.07700
C 	C 	0.46309 0.23788 0.91923 0.01700
C 	C 	0.31413 0.16050 0.94535 -0.05500
C 	C 	0.27237 0.10745 0.94464 -0.04600
C 	C 	0.21418 0.08890 0.94416 0.03000
C 	C 	0.16970 0.04041 0.90618 -0.05500
C 	C 	0.11422 0.01894 0.90985 -0.02300
C 	C 	0.10260 0.04541 0.95216 -0.02200
C 	C 	0.14712 0.09484 0.98915 -0.01300
C 	C 	0.20266 0.11635 0.98539 -0.05300
H 	H 	0.47098 0.17506 0.02967 0.03300
H 	H 	0.37118 0.13688 0.01873 0.04400
H 	H 	0.38852 0.22799 0.88079 0.04800
H 	H 	0.48861 0.26645 0.89171 0.03000
H 	H 	0.30484 0.18991 0.94177 0.04400
H 	H 	0.28075 0.07705 0.94224 0.04100
H 	H 	0.17812 0.01888 0.87434 0.04200
H 	H 	0.13881 0.11554 0.02219 0.03600
H 	H 	0.23666 0.15331 0.01573 0.04000
H 	H 	0.73403 0.50669 0.52814 0.03100
H 	H 	0.89282 0.00197 0.04859 0.03600
C 	C 	0.78889 0.50491 0.47485 -0.09300
C 	C 	0.72807 0.50169 0.93822 -0.09200
H 	H 	0.85286 0.51834 0.42600 0.03600
H 	H 	0.79067 0.50815 0.89176 0.03300
H 	H 	0.66951 0.50773 0.97987 0.02900
C 	C 	0.77018 0.53065 0.50759 0.01500
C 	C 	0.83720 0.53723 0.45048 0.01800
C 	C 	0.77235 0.52808 0.90701 0.02200
C 	C 	0.70460 0.52811 0.95711 0.02100
H 	H 	0.08026 0.98121 0.88047 0.04500
H 	H 	0.84776 0.96259 0.47560 0.04500
N 	N 	0.93702 0.97004 0.97656 -0.13700
C 	C 	0.95464 0.93880 0.96212 0.11500
N 	N 	0.00828 0.96349 0.95420 -0.13300
N 	N 	0.00716 0.95734 0.46642 -0.13300
C 	C 	0.95031 0.92455 0.45852 0.11400
N 	N 	0.92206 0.94661 0.45045 -0.13700
C 	C 	0.91954 0.86510 0.45823 -0.02400
C 	C 	0.87357 0.83762 0.48694 -0.01500
C 	C 	0.84763 0.78238 0.49095 -0.05900
C 	C 	0.86768 0.75433 0.46674 0.03300
C 	C 	0.91222 0.78120 0.43603 -0.05800
C 	C 	0.93818 0.83635 0.43209 -0.01600
C 	C 	0.84008 0.69596 0.47115 -0.04800
C 	C 	0.87050 0.67812 0.48759 -0.05600
C 	C 	0.84348 0.61883 0.48533 0.04600
C 	C 	0.86440 0.59391 0.45592 -0.07700
C 	C 	0.79734 0.58730 0.51278 -0.07600
H 	H 	0.85872 0.85930 0.50721 0.03800
H 	H 	0.81253 0.76166 0.51365 0.04300
H 	H 	0.92660 0.75933 0.41508 0.04300
H 	H 	0.97288 0.85677 0.40880 0.03800
H 	H 	0.79452 0.66748 0.46140 0.04100
H 	H 	0.91604 0.70682 0.49799 0.04300
H 	H 	0.90087 0.61820 0.43588 0.04700
H 	H 	0.78222 0.60656 0.53765 0.04700
C 	C 	0.79433 0.58114 0.89702 -0.07800
C 	C 	0.77272 0.60848 0.91860 0.05000
C 	C 	0.72675 0.58119 0.94726 -0.07700
C 	C 	0.79912 0.66609 0.91207 -0.05900
C 	C 	0.81747 0.70540 0.95935 -0.04000
C 	C 	0.84874 0.76411 0.95453 0.03000
C 	C 	0.83847 0.79761 0.98716 -0.05300
C 	C 	0.87192 0.85436 0.98837 -0.01200
C 	C 	0.91627 0.87830 0.95704 -0.02400
C 	C 	0.92565 0.84450 0.92320 -0.01600
C 	C 	0.89259 0.78789 0.92255 -0.05600
H 	H 	0.82920 0.60157 0.87397 0.04800
H 	H 	0.70861 0.60133 0.96246 0.04900
H 	H 	0.80710 0.67702 0.86913 0.04400
H 	H 	0.80875 0.69412 0.00206 0.03700
H 	H 	0.80514 0.77978 0.01245 0.03900
H 	H 	0.86424 0.87979 0.01490 0.03600
H 	H 	0.95918 0.86217 0.89818 0.03800
H 	H 	0.90206 0.76282 0.89852 0.04300
