data_crystal

_cell_length_a 44.01704
_cell_length_b 39.65263
_cell_length_c 24.27616
_cell_angle_alpha 92.64518
_cell_angle_beta  85.32016
_cell_angle_gamma 123.96005

_symmetry_space_group_name_	'P 1'
_symmetry_space_group_name_H-M	'P 1'

loop_
_symmetry_equiv_pos_as_xyz
  x,y,z

loop_
_atom_site_label
_atom_site_type_symbol
_atom_site_fract_x
_atom_site_fract_y
_atom_site_fract_z
_atom_site_charge
C 	C 	0.94488 0.87918 0.92083 -0.00600
C 	C 	0.94246 0.90485 0.96007 -0.02500
C 	C 	0.96497 0.94704 0.95315 -0.07200
C 	C 	0.99030 0.96397 0.90686 0.07900
C 	C 	0.99255 0.93822 0.86774 -0.07100
C 	C 	0.96997 0.89606 0.87460 -0.02400
N 	N 	0.01375 0.00741 0.89863 -0.14300
C 	C 	0.11878 0.06490 0.96318 -0.01100
C 	C 	0.11542 0.07331 0.90932 -0.02100
C 	C 	0.08073 0.05511 0.88903 -0.07000
C 	C 	0.04906 0.02800 0.92199 0.07900
C 	C 	0.05238 0.02015 0.97646 -0.06600
C 	C 	0.08707 0.03867 0.99691 -0.01500
C 	C 	0.95908 0.06859 0.90915 -0.00500
C 	C 	0.97516 0.06689 0.95563 -0.02400
C 	C 	0.99325 0.04693 0.95258 -0.07100
C 	C 	0.99533 0.02833 0.90284 0.08000
C 	C 	0.97922 0.03010 0.85654 -0.07000
C 	C 	0.96127 0.05019 0.85958 -0.02400
C 	C 	0.22718 0.11409 0.01306 0.00300
C 	C 	0.20071 0.07201 0.01563 -0.03600
C 	C 	0.16512 0.05604 0.00052 -0.05400
C 	C 	0.15553 0.08204 0.98326 0.02400
C 	C 	0.18163 0.12425 0.98261 -0.04800
C 	C 	0.21734 0.14019 0.99722 -0.02900
C 	C 	0.87651 0.74967 0.93929 0.01300
C 	C 	0.91482 0.77025 0.93841 -0.04100
C 	C 	0.93711 0.81255 0.93298 -0.04000
C 	C 	0.92127 0.83464 0.92824 0.01000
C 	C 	0.88292 0.81407 0.92953 -0.04000
C 	C 	0.86063 0.77175 0.93512 -0.04100
C 	C 	0.90244 0.12842 0.91845 0.01100
C 	C 	0.88371 0.08688 0.90542 -0.04100
C 	C 	0.90216 0.06733 0.90264 -0.04100
C 	C 	0.93955 0.08920 0.91256 0.01100
C 	C 	0.95832 0.13077 0.92542 -0.04100
C 	C 	0.93983 0.15029 0.92845 -0.04100
H 	H 	0.92329 0.89212 0.99604 0.03600
H 	H 	0.96293 0.96647 0.98382 0.04900
H 	H 	0.01184 0.95099 0.83193 0.05000
H 	H 	0.97189 0.87648 0.84392 0.03600
H 	H 	0.13970 0.09337 0.88284 0.03600
H 	H 	0.07844 0.06139 0.84718 0.05100
H 	H 	0.02825 0.00016 0.00303 0.04100
H 	H 	0.08933 0.03240 0.03881 0.02800
H 	H 	0.97335 0.08070 0.99423 0.03600
H 	H 	0.00496 0.04529 0.98900 0.04900
H 	H 	0.98072 0.01592 0.81814 0.05000
H 	H 	0.94909 0.05150 0.82340 0.03500
H 	H 	0.20791 0.05164 0.02836 0.03800
H 	H 	0.14522 0.02343 0.00114 0.04100
H 	H 	0.17441 0.14461 0.96993 0.04300
H 	H 	0.23755 0.17271 0.99514 0.04100
H 	H 	0.92730 0.75346 0.94194 0.04200
H 	H 	0.96667 0.82817 0.93238 0.04100
H 	H 	0.87044 0.83082 0.92570 0.04000
H 	H 	0.83107 0.75611 0.93571 0.04200
H 	H 	0.85489 0.06977 0.89742 0.04100
H 	H 	0.88740 0.03520 0.89288 0.04000
H 	H 	0.98723 0.14795 0.93291 0.04100
H 	H 	0.95449 0.18232 0.93876 0.04100
C 	C 	0.93597 0.87325 0.49612 -0.00600
C 	C 	0.93438 0.90167 0.53061 -0.02400
C 	C 	0.95660 0.94303 0.51752 -0.07200
C 	C 	0.98073 0.95635 0.46963 0.07900
C 	C 	0.98204 0.92782 0.43515 -0.07000
C 	C 	0.95981 0.88647 0.44829 -0.02400
N 	N 	0.00432 0.99897 0.45557 -0.14400
C 	C 	0.11138 0.06115 0.51414 -0.00500
C 	C 	0.10639 0.06735 0.46009 -0.02400
C 	C 	0.07107 0.04726 0.44151 -0.07000
C 	C 	0.04041 0.02069 0.47658 0.07900
C 	C 	0.04543 0.01508 0.53125 -0.07200
C 	C 	0.08075 0.03523 0.54977 -0.02400
C 	C 	0.95014 0.06057 0.46197 -0.00500
C 	C 	0.96986 0.06363 0.50659 -0.02400
C 	C 	0.98781 0.04357 0.50489 -0.07200
C 	C 	0.98634 0.02037 0.45814 0.07900
C 	C 	0.96674 0.01760 0.41354 -0.06900
C 	C 	0.94868 0.03754 0.41542 -0.02500
C 	C 	0.22112 0.11785 0.56236 0.01100
C 	C 	0.19739 0.07531 0.56150 -0.04100
C 	C 	0.16135 0.05681 0.54669 -0.04100
C 	C 	0.14873 0.08070 0.53274 0.01000
C 	C 	0.17220 0.12325 0.53485 -0.04100
C 	C 	0.20827 0.14176 0.54958 -0.04100
C 	C 	0.86841 0.74596 0.53256 0.01100
C 	C 	0.90673 0.76718 0.53292 -0.04100
C 	C 	0.92877 0.80885 0.52170 -0.04100
C 	C 	0.91266 0.82964 0.51004 0.01000
C 	C 	0.87432 0.80855 0.51052 -0.04100
C 	C 	0.85228 0.76687 0.52173 -0.04100
C 	C 	0.89220 0.11868 0.47233 0.01100
C 	C 	0.87277 0.07613 0.47376 -0.04100
C 	C 	0.89171 0.05714 0.46985 -0.04100
C 	C 	0.93021 0.08057 0.46463 0.01000
C 	C 	0.94964 0.12313 0.46284 -0.04100
C 	C 	0.93068 0.14212 0.46657 -0.04100
H 	H 	0.91613 0.89173 0.56773 0.03500
H 	H 	0.95544 0.96466 0.54485 0.04800
H 	H 	0.00043 0.93779 0.39821 0.05000
H 	H 	0.96106 0.86469 0.42126 0.03500
H 	H 	0.12990 0.08729 0.43225 0.03600
H 	H 	0.06748 0.05190 0.39954 0.05000
H 	H 	0.02211 0.99579 0.55955 0.04800
H 	H 	0.08434 0.03064 0.59179 0.03500
H 	H 	0.97086 0.08109 0.54288 0.03500
H 	H 	0.00206 0.04533 0.54024 0.04800
H 	H 	0.96542 0.99981 0.37748 0.04900
H 	H 	0.93348 0.03503 0.38079 0.03500
H 	H 	0.20703 0.05663 0.57156 0.04100
H 	H 	0.14342 0.02394 0.54519 0.04000
H 	H 	0.16261 0.14193 0.52450 0.04000
H 	H 	0.22642 0.17463 0.55011 0.04100
H 	H 	0.91941 0.75132 0.54151 0.04100
H 	H 	0.95834 0.82495 0.52179 0.04000
H 	H 	0.86165 0.82435 0.50150 0.04000
H 	H 	0.82272 0.75071 0.52119 0.04100
H 	H 	0.84304 0.05783 0.47807 0.04100
H 	H 	0.87651 0.02427 0.47132 0.04000
H 	H 	0.97937 0.14143 0.45870 0.04000
H 	H 	0.94587 0.17500 0.46544 0.04100
Co	Co	0.69604 0.31534 0.01990 1.18000
O 	O 	0.73909 0.31433 0.97802 -0.37700
Co	Co	0.61995 0.31538 0.04336 1.18200
O 	O 	0.65103 0.29836 0.97792 -0.45000
O 	O 	0.66345 0.36893 0.06271 -0.42600
O 	O 	0.69225 0.25911 0.00940 -0.35100
C 	C 	0.69346 0.38903 0.02931 0.33500
O 	O 	0.62603 0.32892 0.95710 -0.34300
C 	C 	0.55051 0.27492 0.07097 0.29100
C 	C 	0.66359 0.30477 0.12177 0.29700
O 	O 	0.57452 0.31215 0.08425 -0.37200
O 	O 	0.56589 0.26031 0.04032 -0.34400
O 	O 	0.69707 0.31597 0.10799 -0.34400
O 	O 	0.64344 0.29079 0.07980 -0.45400
O 	O 	0.71385 0.37420 0.01548 -0.52800
C 	C 	0.72375 0.27566 0.98220 0.29800
C 	C 	0.64848 0.31857 0.94029 0.28600
H 	H 	0.73985 0.39314 0.99894 0.17600
Co	Co	0.68833 0.30862 0.51341 1.18300
O 	O 	0.73112 0.30949 0.46737 -0.38000
Co	Co	0.60986 0.30221 0.54508 1.18300
O 	O 	0.63842 0.28100 0.48079 -0.45400
O 	O 	0.64957 0.36134 0.54996 -0.41400
O 	O 	0.69117 0.25634 0.51271 -0.34600
C 	C 	0.68433 0.37935 0.53036 0.33700
O 	O 	0.60658 0.30321 0.45766 -0.34200
C 	C 	0.54312 0.25908 0.58707 0.29200
C 	C 	0.66503 0.30934 0.61874 0.29100
O 	O 	0.56543 0.29800 0.59093 -0.37000
O 	O 	0.55852 0.24396 0.55768 -0.34200
O 	O 	0.69813 0.32233 0.59922 -0.34900
O 	O 	0.64122 0.28799 0.58257 -0.45600
O 	O 	0.69487 0.36070 0.49507 -0.53600
C 	C 	0.72025 0.27286 0.47944 0.29300
C 	C 	0.62977 0.29397 0.44080 0.29400
H 	H 	0.71283 0.37646 0.46262 0.17300
C 	C 	0.63775 0.30460 0.78992 0.09500
C 	C 	0.67175 0.31177 0.77010 0.09300
N 	N 	0.67982 0.31248 0.71478 -0.08700
C 	C 	0.65493 0.30554 0.67837 -0.03700
C 	C 	0.62057 0.29731 0.69838 0.04500
N 	N 	0.61275 0.29724 0.75375 -0.10900
N 	N 	0.63047 0.30611 0.84504 -0.08600
N 	N 	0.69670 0.31899 0.80635 -0.11000
H 	H 	0.60053 0.29180 0.67008 0.02200
C 	C 	0.65556 0.31373 0.88143 -0.03500
C 	C 	0.68917 0.31986 0.86170 0.04000
H 	H 	0.70956 0.32644 0.89009 0.01800
C 	C 	0.65479 0.28589 0.27171 0.09300
C 	C 	0.62506 0.28872 0.28903 0.09300
N 	N 	0.61642 0.28953 0.34383 -0.08700
C 	C 	0.63593 0.28693 0.38223 -0.03900
C 	C 	0.66448 0.28205 0.36476 0.04200
N 	N 	0.67354 0.28198 0.30984 -0.11000
N 	N 	0.66588 0.28941 0.21722 -0.08700
N 	N 	0.60656 0.29308 0.25093 -0.11000
H 	H 	0.67991 0.27936 0.39461 0.02100
C 	C 	0.64799 0.29491 0.17905 -0.03800
C 	C 	0.61725 0.29589 0.19623 0.04400
H 	H 	0.60290 0.30049 0.16653 0.02100
C 	C 	0.79981 0.61704 0.55651 0.08500
C 	C 	0.79672 0.64296 0.59420 -0.06800
C 	C 	0.81946 0.68511 0.58688 -0.02300
C 	C 	0.84528 0.70162 0.54141 -0.00400
C 	C 	0.84839 0.67570 0.50360 -0.02400
C 	C 	0.82567 0.63359 0.51092 -0.06500
H 	H 	0.77654 0.63041 0.62901 0.05500
H 	H 	0.81688 0.70490 0.61630 0.03700
H 	H 	0.86803 0.68816 0.46811 0.03700
H 	H 	0.82770 0.61384 0.48075 0.05700
N 	N 	0.77505 0.57436 0.56249 -0.08500
N 	N 	0.78450 0.55100 0.54631 -0.08900
C 	C 	0.70959 0.42359 0.53849 -0.12100
C 	C 	0.74672 0.44057 0.54626 0.03800
C 	C 	0.77120 0.48273 0.55036 -0.09700
C 	C 	0.75878 0.50825 0.54722 0.10700
C 	C 	0.72146 0.49122 0.54026 -0.09500
C 	C 	0.69697 0.44909 0.53626 0.04400
H 	H 	0.75668 0.42115 0.54851 0.02100
H 	H 	0.79995 0.49564 0.55527 0.06300
H 	H 	0.71162 0.51064 0.53664 0.06700
H 	H 	0.66842 0.43637 0.52988 0.03300
C 	C 	0.83163 0.17382 0.48762 0.08600
C 	C 	0.83387 0.15524 0.53336 -0.06800
C 	C 	0.85413 0.13779 0.52860 -0.02300
C 	C 	0.87223 0.13865 0.47787 -0.00400
C 	C 	0.87030 0.15751 0.43205 -0.02400
C 	C 	0.84991 0.17483 0.43672 -0.06500
H 	H 	0.81958 0.15398 0.57250 0.05600
H 	H 	0.85551 0.12329 0.56419 0.03700
H 	H 	0.88406 0.15812 0.39264 0.03700
H 	H 	0.84782 0.18836 0.40071 0.05800
N 	N 	0.80884 0.18878 0.49227 -0.08500
N 	N 	0.81412 0.21563 0.46041 -0.08800
C 	C 	0.74431 0.25778 0.47297 -0.09300
C 	C 	0.78121 0.28358 0.45329 0.03200
C 	C 	0.80414 0.26939 0.44895 -0.09100
C 	C 	0.79049 0.22949 0.46432 0.10400
C 	C 	0.75327 0.20324 0.48220 -0.08700
C 	C 	0.73037 0.21739 0.48671 0.03200
H 	H 	0.79224 0.31466 0.44183 0.03700
H 	H 	0.83263 0.28954 0.43418 0.06200
H 	H 	0.74210 0.17192 0.49247 0.06600
H 	H 	0.70178 0.19691 0.50079 0.04100
C 	C 	0.33370 0.17383 0.59536 0.08600
C 	C 	0.31080 0.18028 0.63116 -0.06800
C 	C 	0.27397 0.16193 0.62054 -0.02300
C 	C 	0.25991 0.13728 0.57367 -0.00400
C 	C 	0.28297 0.13130 0.53736 -0.02300
C 	C 	0.31973 0.14962 0.54797 -0.06500
H 	H 	0.32152 0.19938 0.66729 0.05500
H 	H 	0.25637 0.16681 0.64872 0.03700
H 	H 	0.27245 0.11270 0.50074 0.03800
H 	H 	0.33744 0.14534 0.51918 0.05900
N 	N 	0.37118 0.19336 0.60577 -0.08500
N 	N 	0.38789 0.17687 0.59205 -0.08700
C 	C 	0.50292 0.23816 0.59405 -0.09100
C 	C 	0.48032 0.19552 0.59445 0.03300
C 	C 	0.44219 0.17545 0.59596 -0.09000
C 	C 	0.42621 0.19768 0.59732 0.10400
C 	C 	0.44877 0.24046 0.59865 -0.08700
C 	C 	0.48692 0.26055 0.59748 0.03100
H 	H 	0.49232 0.17790 0.59264 0.04000
H 	H 	0.42502 0.14254 0.59483 0.06400
H 	H 	0.43687 0.25810 0.59917 0.06600
H 	H 	0.50400 0.29348 0.59758 0.04000
C 	C 	0.74337 0.51577 0.99947 0.12000
C 	C 	0.72686 0.49927 0.05171 -0.11100
C 	C 	0.70998 0.45776 0.06130 0.05100
C 	C 	0.70919 0.43234 0.01840 -0.13500
C 	C 	0.72437 0.44857 0.96542 0.04900
C 	C 	0.74140 0.49012 0.95595 -0.10000
H 	H 	0.72776 0.51878 0.08518 0.06500
H 	H 	0.69818 0.44555 0.10230 0.03100
H 	H 	0.72316 0.42904 0.93171 0.01900
H 	H 	0.75312 0.50239 0.91497 0.06800
N 	N 	0.76160 0.55814 0.99087 -0.08900
N 	N 	0.79083 0.57716 0.96124 -0.08400
C 	C 	0.85306 0.70498 0.94418 -0.00600
C 	C 	0.85451 0.68063 0.90164 -0.02200
C 	C 	0.83328 0.63830 0.90708 -0.06700
C 	C 	0.81027 0.61993 0.95481 0.08400
C 	C 	0.80875 0.64434 0.99745 -0.05800
C 	C 	0.82992 0.68667 0.99195 -0.01700
H 	H 	0.87227 0.69451 0.86458 0.03700
H 	H 	0.83490 0.61974 0.87436 0.05500
H 	H 	0.79171 0.63060 0.03510 0.05100
H 	H 	0.82880 0.70525 0.02514 0.03000
C 	C 	0.78548 0.22163 0.97166 0.09600
C 	C 	0.75078 0.20169 0.99986 -0.06500
C 	C 	0.73038 0.21896 0.00260 0.00700
C 	C 	0.74487 0.25687 0.97790 -0.07900
C 	C 	0.77969 0.27687 0.94947 0.02400
C 	C 	0.79999 0.25941 0.94657 -0.08000
H 	H 	0.73962 0.17274 0.01970 0.05200
H 	H 	0.70351 0.20306 0.02446 0.04700
H 	H 	0.79111 0.30595 0.92987 0.03900
H 	H 	0.82709 0.27540 0.92545 0.06400
N 	N 	0.80647 0.20458 0.97138 -0.08600
N 	N 	0.82500 0.20576 0.92890 -0.08400
C 	C 	0.88280 0.14891 0.92208 -0.00400
C 	C 	0.89395 0.18153 0.88682 -0.02300
C 	C 	0.87494 0.20047 0.88967 -0.06800
C 	C 	0.84478 0.18715 0.92785 0.08600
C 	C 	0.83342 0.15425 0.96293 -0.06400
C 	C 	0.85252 0.13544 0.96026 -0.02300
H 	H 	0.91713 0.19195 0.85693 0.03700
H 	H 	0.88357 0.22544 0.86208 0.05500
H 	H 	0.80966 0.14303 0.99181 0.05900
H 	H 	0.84370 0.11029 0.98765 0.03800
C 	C 	0.33865 0.16113 0.04415 0.09500
C 	C 	0.32122 0.13185 0.00297 -0.09300
C 	C 	0.28502 0.11685 0.99244 0.00200
C 	C 	0.26566 0.13051 0.02378 -0.01600
C 	C 	0.28302 0.15968 0.06541 -0.01800
C 	C 	0.31939 0.17491 0.07561 -0.07200
H 	H 	0.33583 0.12084 0.97897 0.06600
H 	H 	0.27198 0.09455 0.95999 0.03400
H 	H 	0.26826 0.17023 0.09012 0.03400
H 	H 	0.33244 0.19698 0.10827 0.05800
N 	N 	0.37488 0.17493 0.05560 -0.08800
N 	N 	0.39844 0.21184 0.06254 -0.08700
C 	C 	0.51085 0.25780 0.07125 -0.09100
C 	C 	0.49655 0.27971 0.09446 0.03000
C 	C 	0.45919 0.26400 0.09235 -0.09000
C 	C 	0.43574 0.22618 0.06765 0.10300
C 	C 	0.44996 0.20400 0.04507 -0.08600
C 	C 	0.48718 0.21957 0.04733 0.03000
H 	H 	0.51436 0.30903 0.11357 0.03900
H 	H 	0.44851 0.28137 0.10953 0.06100
H 	H 	0.43232 0.17503 0.02506 0.06500
H 	H 	0.49770 0.20211 0.02981 0.04200
