data_crystal

_cell_length_a 18.52123
_cell_length_b 18.70135
_cell_length_c 42.58391
_cell_angle_alpha 95.42567
_cell_angle_beta  95.42380
_cell_angle_gamma 126.39943

_symmetry_space_group_name_	'P 1'
_symmetry_space_group_name_H-M	'P 1'

loop_
_symmetry_equiv_pos_as_xyz
  x,y,z

loop_
_atom_site_label
_atom_site_type_symbol
_atom_site_fract_x
_atom_site_fract_y
_atom_site_fract_z
_atom_site_charge
C 	C 	0.90601 0.00276 0.97533 0.11300
N 	N 	0.99777 0.05716 0.97720 -0.14200
C 	C 	0.04303 0.02113 0.97533 0.11600
N 	N 	0.99607 0.93015 0.97089 -0.14200
C 	C 	0.90451 0.87531 0.96970 0.11600
N 	N 	0.85919 0.91162 0.97203 -0.13900
C 	C 	0.94004 0.01814 0.49064 0.11300
N 	N 	0.03144 0.06475 0.49209 -0.14000
C 	C 	0.06941 0.02120 0.49425 0.11500
N 	N 	0.01601 0.93145 0.49481 -0.13900
C 	C 	0.92503 0.88517 0.49359 0.11600
N 	N 	0.88686 0.92823 0.49099 -0.14000
Cu	Cu	0.75662 0.34646 0.96777 0.92700
Cu	Cu	0.74853 0.29691 0.03957 0.86500
Cu	Cu	0.61728 0.31846 0.00741 0.89600
Cu	Cu	0.57803 0.31962 0.93839 0.89400
C 	C 	0.69359 0.30038 0.89951 0.29300
O 	O 	0.79749 0.47148 0.96100 -0.36300
C 	C 	0.67440 0.36433 0.07799 0.28200
O 	O 	0.61498 0.26838 0.96517 -0.63900
O 	O 	0.74938 0.37468 0.01244 -0.64500
O 	O 	0.82254 0.29399 0.97647 -0.37700
O 	O 	0.72358 0.20353 0.00750 -0.44300
O 	O 	0.65043 0.33558 0.90411 -0.39100
O 	O 	0.48680 0.25580 0.00253 -0.39100
C 	C 	0.42943 0.23848 0.97667 0.29900
C 	C 	0.75278 0.50288 0.96943 0.28200
O 	O 	0.66676 0.44640 0.97223 -0.40500
O 	O 	0.45310 0.24996 0.94816 -0.40100
O 	O 	0.74244 0.29940 0.92381 -0.37300
C 	C 	0.78302 0.22054 0.98911 0.29300
O 	O 	0.62474 0.36079 0.05247 -0.38300
O 	O 	0.74423 0.36314 0.07550 -0.42300
H 	H 	0.57775 0.20158 0.96037 0.16400
H 	H 	0.78985 0.43963 0.02245 0.17000
Cu	Cu	0.61178 0.18829 0.50292 0.92700
Cu	Cu	0.68351 0.22169 0.43464 0.86500
Cu	Cu	0.62990 0.32681 0.46621 0.89500
Cu	Cu	0.63047 0.35944 0.53665 0.89800
C 	C 	0.65791 0.24593 0.57150 0.29100
O 	O 	0.48330 0.14297 0.50796 -0.36200
C 	C 	0.61633 0.29738 0.39689 0.28000
O 	O 	0.68433 0.32915 0.50818 -0.63500
O 	O 	0.59010 0.20112 0.45836 -0.64400
O 	O 	0.66355 0.12252 0.49367 -0.37200
O 	O 	0.76588 0.23083 0.46785 -0.44100
O 	O 	0.61445 0.28116 0.56803 -0.39000
O 	O 	0.65861 0.44606 0.47479 -0.38400
C 	C 	0.71144 0.50749 0.50092 0.29400
C 	C 	0.45026 0.18685 0.50063 0.28000
O 	O 	0.50576 0.27446 0.50110 -0.40100
O 	O 	0.70351 0.48521 0.52951 -0.39600
O 	O 	0.65475 0.19531 0.54685 -0.36500
C 	C 	0.73907 0.16175 0.48196 0.29600
O 	O 	0.59202 0.32248 0.42125 -0.38200
O 	O 	0.62713 0.23380 0.39742 -0.42000
H 	H 	0.75193 0.36833 0.51247 0.15600
H 	H 	0.52663 0.15641 0.44640 0.16900
C 	C 	0.68885 0.24336 0.60425 -0.09000
C 	C 	0.73220 0.32012 0.62853 0.01300
C 	C 	0.74797 0.31435 0.66058 -0.06800
C 	C 	0.72068 0.23176 0.66872 0.02600
C 	C 	0.68207 0.15618 0.64431 -0.06800
C 	C 	0.66636 0.16197 0.61217 0.01600
C 	C 	0.72393 0.22246 0.70278 -0.00100
C 	C 	0.80715 0.27883 0.72469 -0.04000
C 	C 	0.80802 0.28387 0.75772 -0.03900
C 	C 	0.72573 0.23235 0.76908 -0.00200
C 	C 	0.64330 0.17095 0.74715 -0.03900
C 	C 	0.64236 0.16607 0.71413 -0.03900
C 	C 	0.72439 0.25195 0.80329 0.02600
C 	C 	0.74495 0.33513 0.81635 -0.06900
C 	C 	0.73622 0.35133 0.84794 0.01700
C 	C 	0.70707 0.28460 0.86684 -0.09000
C 	C 	0.68862 0.20217 0.85409 0.01200
C 	C 	0.69695 0.18574 0.82236 -0.06900
H 	H 	0.75099 0.38356 0.62265 0.01800
H 	H 	0.77817 0.37319 0.67922 0.04400
H 	H 	0.66163 0.09234 0.65032 0.04400
H 	H 	0.63330 0.10232 0.59364 0.03600
H 	H 	0.87065 0.32161 0.71617 0.03600
H 	H 	0.87216 0.33064 0.77447 0.03700
H 	H 	0.57948 0.13042 0.75569 0.03600
H 	H 	0.57779 0.12189 0.69744 0.03700
H 	H 	0.76596 0.38653 0.80180 0.04500
H 	H 	0.75158 0.41558 0.85769 0.03100
H 	H 	0.66565 0.15008 0.86843 0.02100
H 	H 	0.68086 0.12127 0.81246 0.04300
C 	C 	0.65891 0.38182 0.11029 -0.08900
C 	C 	0.73119 0.42702 0.13684 0.01100
C 	C 	0.71418 0.43192 0.16794 -0.06800
C 	C 	0.62487 0.39231 0.17287 0.02400
C 	C 	0.55339 0.35169 0.14630 -0.06700
C 	C 	0.57029 0.34640 0.11514 0.00900
C 	C 	0.60522 0.38574 0.20576 -0.00200
C 	C 	0.54782 0.30049 0.21423 -0.04000
C 	C 	0.54172 0.29351 0.24641 -0.04000
C 	C 	0.59327 0.37163 0.27042 -0.00200
C 	C 	0.64603 0.45706 0.26177 -0.04000
C 	C 	0.65177 0.46411 0.22954 -0.04000
C 	C 	0.60218 0.36351 0.30443 0.02600
C 	C 	0.68428 0.38548 0.32072 -0.06800
C 	C 	0.68968 0.36690 0.35149 0.01100
C 	C 	0.61331 0.32687 0.36637 -0.09100
C 	C 	0.53228 0.30846 0.35071 0.01800
C 	C 	0.52658 0.32634 0.31974 -0.06900
H 	H 	0.80024 0.45649 0.13344 0.02900
H 	H 	0.76995 0.46381 0.18826 0.04200
H 	H 	0.48436 0.32186 0.14983 0.04300
H 	H 	0.51395 0.31183 0.09490 0.03300
H 	H 	0.51124 0.23955 0.19607 0.03500
H 	H 	0.50048 0.22727 0.25285 0.03600
H 	H 	0.68537 0.51780 0.28011 0.03700
H 	H 	0.69512 0.53029 0.22321 0.03600
H 	H 	0.74298 0.41421 0.30910 0.04200
H 	H 	0.75267 0.38185 0.36351 0.01200
H 	H 	0.47293 0.27759 0.36204 0.02900
H 	H 	0.46296 0.30938 0.30738 0.04400
C 	C 	0.86994 0.72929 0.47306 -0.07000
C 	C 	0.86814 0.78847 0.49516 -0.02800
C 	C 	0.81620 0.75560 0.51963 0.04400
C 	C 	0.76330 0.66305 0.52055 -0.02200
C 	C 	0.76582 0.60391 0.49867 -0.10100
C 	C 	0.82140 0.63773 0.47516 0.08700
C 	C 	0.82906 0.57682 0.45219 -0.19500
H 	H 	0.91039 0.75495 0.45446 0.05000
H 	H 	0.72046 0.63703 0.53849 0.04000
C 	C 	0.81652 0.81852 0.54472 -0.17900
H 	H 	0.88846 0.61664 0.44015 0.06200
H 	H 	0.76633 0.53347 0.43337 0.07300
H 	H 	0.83892 0.53358 0.46518 0.04800
H 	H 	0.77591 0.83892 0.53389 0.07000
H 	H 	0.88749 0.87965 0.55468 0.06500
H 	H 	0.78629 0.78555 0.56515 0.06100
C 	C 	0.82664 0.12372 0.51426 -0.02200
C 	C 	0.79276 0.12721 0.48405 -0.10400
C 	C 	0.81194 0.09930 0.45604 0.08200
C 	C 	0.86621 0.06997 0.45887 -0.06800
C 	C 	0.89843 0.06475 0.48900 -0.02700
C 	C 	0.88030 0.09361 0.51700 0.04400
C 	C 	0.91527 0.08940 0.54970 -0.17900
H 	H 	0.81166 0.14495 0.53568 0.04300
H 	H 	0.88070 0.04807 0.43747 0.04700
C 	C 	0.77428 0.09995 0.42314 -0.19000
H 	H 	0.90763 0.12693 0.56923 0.06200
H 	H 	0.98897 0.12010 0.55241 0.06600
H 	H 	0.87649 0.01786 0.55270 0.06400
H 	H 	0.81176 0.17063 0.41920 0.04600
H 	H 	0.70039 0.06819 0.42076 0.04000
H 	H 	0.78148 0.06133 0.40389 0.06000
C 	C 	0.31213 0.11141 0.52511 -0.02700
C 	C 	0.35203 0.14200 0.49825 -0.09800
C 	C 	0.30001 0.13761 0.47056 0.08500
C 	C 	0.20872 0.10297 0.47033 -0.06900
C 	C 	0.16862 0.07138 0.49708 -0.02900
C 	C 	0.22152 0.07835 0.52507 0.04700
C 	C 	0.18116 0.04887 0.55472 -0.18500
H 	H 	0.35252 0.11566 0.54641 0.04300
H 	H 	0.16805 0.09809 0.44897 0.04900
C 	C 	0.34137 0.16957 0.44128 -0.19800
H 	H 	0.23536 0.07760 0.57632 0.06300
H 	H 	0.13726 0.97397 0.55146 0.07300
H 	H 	0.13976 0.07242 0.55939 0.06700
H 	H 	0.37570 0.13939 0.43461 0.06200
H 	H 	0.39198 0.24443 0.44630 0.07700
H 	H 	0.28863 0.14959 0.42024 0.06600
C 	C 	0.82333 0.63618 0.94271 -0.02700
C 	C 	0.79359 0.59912 0.97012 -0.10000
C 	C 	0.79510 0.65166 0.99675 0.08400
C 	C 	0.82496 0.73993 0.99524 -0.07000
C 	C 	0.85597 0.77736 0.96801 -0.03000
C 	C 	0.85275 0.72422 0.94118 0.04600
C 	C 	0.88273 0.76176 0.91117 -0.18100
H 	H 	0.82153 0.59564 0.92223 0.04200
H 	H 	0.82732 0.78078 0.01576 0.04600
C 	C 	0.76535 0.61425 0.02681 -0.19600
H 	H 	0.85687 0.70693 0.89030 0.06200
H 	H 	0.95847 0.80803 0.91499 0.07100
H 	H 	0.85589 0.79928 0.90494 0.06900
H 	H 	0.79710 0.58189 0.03415 0.06200
H 	H 	0.68986 0.56360 0.02245 0.07400
H 	H 	0.78619 0.66838 0.04720 0.06500
C 	C 	0.83574 0.13851 0.01227 -0.02200
C 	C 	0.81022 0.16071 0.98495 -0.11100
C 	C 	0.80387 0.11985 0.95406 0.09500
C 	C 	0.82969 0.06269 0.95117 -0.07500
C 	C 	0.85870 0.04356 0.97858 -0.02600
C 	C 	0.85833 0.07890 0.00930 0.04100
C 	C 	0.88663 0.05700 0.03905 -0.18200
H 	H 	0.83851 0.16815 0.03594 0.01800
H 	H 	0.82986 0.03527 0.92759 0.04800
C 	C 	0.77093 0.13763 0.92420 -0.20400
H 	H 	0.86826 0.07690 0.06051 0.05700
H 	H 	0.96170 0.09367 0.04353 0.06600
H 	H 	0.85171 0.98312 0.03601 0.07000
H 	H 	0.82364 0.20785 0.92106 0.08900
H 	H 	0.70626 0.12785 0.92597 0.07500
H 	H 	0.75713 0.09064 0.90239 0.06700
C 	C 	0.29304 0.12251 0.99758 -0.02400
C 	C 	0.33206 0.18940 0.97858 -0.10300
C 	C 	0.27697 0.20675 0.96096 0.09000
C 	C 	0.18227 0.14966 0.95958 -0.07200
C 	C 	0.14292 0.08085 0.97776 -0.02900
C 	C 	0.19959 0.07079 0.99840 0.04400
C 	C 	0.16119 0.00496 0.02118 -0.18200
H 	H 	0.33543 0.11036 0.01166 0.03900
H 	H 	0.13910 0.15902 0.94443 0.05100
C 	C 	0.31821 0.28542 0.94355 -0.19700
H 	H 	0.21590 0.02169 0.04076 0.06000
H 	H 	0.12767 0.93539 0.00795 0.07200
H 	H 	0.11106 0.00724 0.03271 0.06800
H 	H 	0.33033 0.26699 0.92014 0.07000
H 	H 	0.38355 0.34614 0.95815 0.06800
H 	H 	0.27192 0.30416 0.93888 0.06500
