data_crystal

_cell_length_a 15.10609
_cell_length_b 15.33258
_cell_length_c 34.85791
_cell_angle_alpha 95.40641
_cell_angle_beta  95.40822
_cell_angle_gamma 126.68326

_symmetry_space_group_name_	'P 1'
_symmetry_space_group_name_H-M	'P 1'

loop_
_symmetry_equiv_pos_as_xyz
  x,y,z

loop_
_atom_site_label
_atom_site_type_symbol
_atom_site_fract_x
_atom_site_fract_y
_atom_site_fract_z
_atom_site_charge
N 	N 	0.05805 0.12590 0.98627 -0.13800
C 	C 	0.10804 0.07598 0.98568 0.12500
N 	N 	0.04690 0.96636 0.98667 -0.14600
N 	N 	0.99334 0.87596 0.47159 -0.14200
C 	C 	0.05366 0.98704 0.47446 0.10400
N 	N 	0.00026 0.03355 0.47424 -0.13200
C 	C 	0.17694 0.05751 0.47821 -0.01700
C 	C 	0.23020 0.14204 0.98782 -0.02300
H 	H 	0.27365 0.11170 0.00021 0.04300
H 	H 	0.18900 0.92908 0.48525 0.07100
H 	H 	0.24353 0.26265 0.95844 0.07800
H 	H 	0.22231 0.14521 0.47786 0.04300
C 	C 	0.23370 0.01607 0.48382 -0.12300
C 	C 	0.28764 0.23661 0.97383 -0.12800
C 	C 	0.94706 0.06648 0.98776 0.12000
C 	C 	0.93563 0.90597 0.98782 0.11500
N 	N 	0.88607 0.95653 0.98884 -0.14700
C 	C 	0.88744 0.96953 0.47286 0.10000
N 	N 	0.82789 0.85858 0.47100 -0.13700
C 	C 	0.88105 0.81186 0.47024 0.11600
Cu	Cu	0.78594 0.38565 0.96333 0.92000
Cu	Cu	0.77568 0.29016 0.04357 0.87100
Cu	Cu	0.62257 0.36046 0.01459 0.90800
Cu	Cu	0.60586 0.42494 0.93783 0.89400
C 	C 	0.71449 0.37647 0.88213 0.30000
O 	O 	0.87712 0.55410 0.96733 -0.36500
C 	C 	0.64793 0.32271 0.09077 0.30100
O 	O 	0.61675 0.32294 0.95970 -0.63900
O 	O 	0.77584 0.40030 0.01954 -0.63900
O 	O 	0.82977 0.28332 0.96011 -0.37500
O 	O 	0.90107 0.31641 0.02514 -0.42700
O 	O 	0.68835 0.44108 0.89432 -0.38900
O 	O 	0.46970 0.31023 0.00945 -0.38300
C 	C 	0.41012 0.30308 0.97735 0.30300
C 	C 	0.84056 0.60855 0.98098 0.29200
O 	O 	0.73564 0.55353 0.98559 -0.40100
O 	O 	0.45873 0.37050 0.95245 -0.39700
O 	O 	0.76514 0.35247 0.90704 -0.36600
C 	C 	0.89168 0.27966 0.98833 0.29800
O 	O 	0.63441 0.38340 0.07075 -0.38100
O 	O 	0.65629 0.24945 0.07256 -0.43500
H 	H 	0.55698 0.24400 0.94784 0.15600
H 	H 	0.83458 0.47605 0.03470 0.16400
Cu	Cu	0.58029 0.14170 0.50875 0.92600
Cu	Cu	0.62376 0.09689 0.41840 0.87500
Cu	Cu	0.64311 0.31003 0.45572 0.90100
Cu	Cu	0.54812 0.32627 0.52754 0.89600
C 	C 	0.59718 0.22912 0.58877 0.29500
O 	O 	0.41180 0.05396 0.50607 -0.36300
C 	C 	0.62486 0.24122 0.37143 0.30000
O 	O 	0.65074 0.30818 0.51035 -0.64400
O 	O 	0.56186 0.14637 0.45170 -0.64000
O 	O 	0.68307 0.09898 0.51294 -0.36900
O 	O 	0.62227 0.00282 0.45011 -0.42300
O 	O 	0.53690 0.26020 0.57538 -0.38600
O 	O 	0.71559 0.46643 0.46420 -0.38500
C 	C 	0.68358 0.51521 0.48579 0.30000
C 	C 	0.35727 0.08870 0.49099 0.29400
O 	O 	0.41332 0.18891 0.48314 -0.38900
O 	O 	0.59610 0.45814 0.50323 -0.39900
O 	O 	0.61404 0.16913 0.56522 -0.36200
C 	C 	0.68963 0.04196 0.48421 0.29500
O 	O 	0.67526 0.32243 0.40218 -0.39400
O 	O 	0.57606 0.13813 0.37538 -0.41700
H 	H 	0.72812 0.36201 0.52573 0.15700
H 	H 	0.48225 0.10588 0.43935 0.16900
C 	C 	0.70401 0.34663 0.83949 -0.11200
C 	C 	0.79654 0.36992 0.82280 0.13100
C 	C 	0.78101 0.33765 0.78214 -0.10000
C 	C 	0.67971 0.29578 0.75747 0.00200
C 	C 	0.58814 0.27510 0.77402 0.05800
C 	C 	0.60055 0.29806 0.81494 -0.02400
N 	N 	0.90133 0.42885 0.84505 -0.20300
H 	H 	0.85080 0.35312 0.76935 0.05600
C 	C 	0.67308 0.28150 0.71434 0.00100
N 	N 	0.48880 0.23474 0.75088 -0.19200
H 	H 	0.52991 0.28039 0.82771 0.03000
C 	C 	0.61670 0.17475 0.69234 -0.09900
C 	C 	0.58861 0.15464 0.65122 0.13000
C 	C 	0.62895 0.24539 0.63166 -0.11000
C 	C 	0.69338 0.35319 0.65368 -0.02500
C 	C 	0.71364 0.37212 0.69484 0.05800
H 	H 	0.58693 0.10581 0.70740 0.05800
N 	N 	0.51847 0.04834 0.63110 -0.19900
H 	H 	0.72471 0.42250 0.63868 0.02900
N 	N 	0.77023 0.47699 0.71536 -0.19200
H 	H 	0.49465 0.98274 0.64556 0.07800
H 	H 	0.48100 0.02902 0.60176 0.10400
H 	H 	0.79969 0.54315 0.70063 0.07900
H 	H 	0.78518 0.49413 0.74596 0.08700
H 	H 	0.42163 0.21912 0.76346 0.08100
H 	H 	0.47734 0.21961 0.72033 0.08900
H 	H 	0.92102 0.47297 0.87319 0.10100
H 	H 	0.96692 0.43859 0.83303 0.08400
C 	C 	0.63305 0.26788 0.33180 -0.11200
C 	C 	0.69718 0.25402 0.30847 0.12100
C 	C 	0.69399 0.26942 0.26946 -0.09600
C 	C 	0.63138 0.30211 0.25382 -0.00100
C 	C 	0.57113 0.32068 0.27765 0.05800
C 	C 	0.57238 0.30296 0.31647 -0.02100
N 	N 	0.76350 0.22812 0.32353 -0.20200
H 	H 	0.74121 0.25676 0.25125 0.05300
C 	C 	0.62777 0.31415 0.21213 0.00200
N 	N 	0.51250 0.35576 0.26357 -0.19200
H 	H 	0.52475 0.31513 0.33462 0.03800
C 	C 	0.54130 0.22314 0.18346 -0.10100
C 	C 	0.54194 0.22720 0.14340 0.13100
C 	C 	0.63353 0.32246 0.13198 -0.11900
C 	C 	0.71683 0.41551 0.16060 -0.02400
C 	C 	0.71451 0.41268 0.20068 0.05500
H 	H 	0.47353 0.14877 0.19235 0.05700
N 	N 	0.45357 0.14064 0.11617 -0.20400
H 	H 	0.78524 0.48948 0.15172 0.03100
N 	N 	0.79560 0.50446 0.22791 -0.19200
H 	H 	0.38832 0.06900 0.12479 0.08400
H 	H 	0.44621 0.14539 0.08649 0.09400
H 	H 	0.86063 0.57605 0.21920 0.07800
H 	H 	0.79368 0.50667 0.25783 0.08600
H 	H 	0.46740 0.36816 0.28127 0.08100
H 	H 	0.51206 0.37237 0.23522 0.08700
H 	H 	0.77490 0.22470 0.35320 0.06100
H 	H 	0.80784 0.21482 0.30574 0.07700
C 	C 	0.81698 0.69150 0.46536 -0.02500
C 	C 	0.73612 0.63288 0.48607 -0.12800
H 	H 	0.84394 0.65221 0.44763 0.05400
H 	H 	0.71109 0.67306 0.50446 0.07400
C 	C 	0.75941 0.00607 0.49236 -0.12700
C 	C 	0.82822 0.01773 0.46809 -0.01400
H 	H 	0.75465 0.96985 0.51816 0.07100
H 	H 	0.84045 0.06292 0.44436 0.01900
C 	C 	0.91236 0.73079 0.98528 -0.13000
C 	C 	0.86768 0.78533 0.98777 -0.02700
H 	H 	0.00092 0.77556 0.98419 0.07700
H 	H 	0.77885 0.73988 0.98860 0.04500
C 	C 	0.89577 0.12335 0.99278 -0.02200
C 	C 	0.93500 0.21728 0.97905 -0.12900
H 	H 	0.82584 0.08878 0.00830 0.02700
H 	H 	0.99816 0.24739 0.96064 0.07600
