data_crystal

_cell_length_a 42.06501
_cell_length_b 40.18513
_cell_length_c 31.76134
_cell_angle_alpha 88.36684
_cell_angle_beta  91.62142
_cell_angle_gamma 90.01201

_symmetry_space_group_name_	'P 1'
_symmetry_space_group_name_H-M	'P 1'

loop_
_symmetry_equiv_pos_as_xyz
  x,y,z

loop_
_atom_site_label
_atom_site_type_symbol
_atom_site_fract_x
_atom_site_fract_y
_atom_site_fract_z
_atom_site_charge
C 	C 	0.80971 0.19704 0.96519 0.02600
C 	C 	0.81435 0.16846 0.99102 -0.02700
C 	C 	0.80428 0.16770 0.03275 0.02700
C 	C 	0.79154 0.19679 0.04940 -0.02500
C 	C 	0.79065 0.22669 0.02546 0.02700
C 	C 	0.79966 0.22664 0.98315 -0.02500
C 	C 	0.80783 0.19034 0.92151 -0.05800
S 	S 	0.81463 0.13576 0.96013 -0.00200
C 	C 	0.81711 0.14531 0.06420 -0.05800
S 	S 	0.79745 0.19467 0.10135 -0.00000
C 	C 	0.77023 0.25352 0.03438 -0.05700
S 	S 	0.78145 0.25834 0.95751 -0.00300
C 	C 	0.81022 0.15624 0.91353 0.00100
H 	H 	0.80625 0.20955 0.89692 0.05000
C 	C 	0.81441 0.15709 0.10515 0.00100
H 	H 	0.83192 0.12428 0.05700 0.05000
C 	C 	0.76349 0.27424 0.99893 0.00100
H 	H 	0.75714 0.25455 0.06319 0.04900
C 	C 	0.68772 0.34622 0.99217 0.00200
C 	C 	0.70456 0.33971 0.03029 -0.02700
C 	C 	0.72955 0.31678 0.03218 -0.04100
C 	C 	0.73751 0.29927 0.99624 0.01400
C 	C 	0.72088 0.30609 0.95790 -0.04000
C 	C 	0.69652 0.32981 0.95575 -0.03300
H 	H 	0.69829 0.35243 0.05851 0.04900
H 	H 	0.74284 0.31278 0.06159 0.04400
H 	H 	0.72667 0.29305 0.92978 0.04400
H 	H 	0.68463 0.33552 0.92573 0.04100
C 	C 	0.84633 0.12296 0.79694 0.00200
C 	C 	0.81959 0.14390 0.79688 -0.03200
C 	C 	0.80726 0.15394 0.83499 -0.04100
C 	C 	0.82176 0.14345 0.87349 0.01600
C 	C 	0.84808 0.12190 0.87345 -0.04100
C 	C 	0.86012 0.11158 0.83542 -0.02700
H 	H 	0.80893 0.15316 0.76739 0.04100
H 	H 	0.78680 0.17033 0.83457 0.04300
H 	H 	0.85983 0.11386 0.90277 0.04600
H 	H 	0.88071 0.09536 0.83586 0.04900
C 	C 	0.87651 0.13061 0.21000 0.00200
C 	C 	0.88845 0.13288 0.16916 -0.03200
C 	C 	0.86822 0.14128 0.13481 -0.04100
C 	C 	0.83570 0.14687 0.14087 0.01600
C 	C 	0.82377 0.14438 0.18162 -0.04100
C 	C 	0.84404 0.13627 0.21601 -0.02800
H 	H 	0.91334 0.12800 0.16400 0.04200
H 	H 	0.87789 0.14381 0.10364 0.04400
H 	H 	0.79877 0.14882 0.18667 0.04600
H 	H 	0.83455 0.13454 0.24736 0.04800
C 	C 	0.21852 0.93914 0.04017 0.02500
C 	C 	0.20022 0.96017 0.01272 -0.02100
C 	C 	0.19119 0.94982 0.97227 0.02400
C 	C 	0.20306 0.91967 0.95785 -0.02200
C 	C 	0.22366 0.90002 0.98362 0.02400
C 	C 	0.22910 0.90850 0.02578 -0.02300
C 	C 	0.21358 0.94498 0.08338 -0.05800
S 	S 	0.17794 0.98399 0.04204 -0.00100
C 	C 	0.18147 0.97223 0.93907 -0.05800
S 	S 	0.20261 0.92182 0.90541 -0.00200
C 	C 	0.24644 0.87749 0.96869 -0.05800
S 	S 	0.26213 0.88923 0.04315 0.00000
C 	C 	0.19146 0.97042 0.08943 0.00100
H 	H 	0.22166 0.92796 0.10851 0.05000
C 	C 	0.18677 0.95987 0.89897 0.00100
H 	H 	0.17174 0.99670 0.94409 0.05000
C 	C 	0.27011 0.86916 0.99910 -0.00000
H 	H 	0.24510 0.86692 0.93770 0.05000
C 	C 	0.32284 0.77816 0.99543 0.00200
C 	C 	0.32531 0.80232 0.96290 -0.02800
C 	C 	0.30835 0.83217 0.96442 -0.04200
C 	C 	0.28889 0.83820 0.99855 0.01500
C 	C 	0.28661 0.81411 0.03126 -0.03900
C 	C 	0.30370 0.78438 0.02986 -0.03100
H 	H 	0.34009 0.79783 0.93627 0.04800
H 	H 	0.31026 0.85058 0.93902 0.04500
H 	H 	0.27129 0.81818 0.05746 0.04500
H 	H 	0.30202 0.76614 0.05549 0.04200
C 	C 	0.13447 0.97756 0.19834 0.00100
C 	C 	0.13974 0.94643 0.18080 -0.03200
C 	C 	0.15852 0.94398 0.14539 -0.04100
C 	C 	0.17250 0.97262 0.12751 0.01500
C 	C 	0.16733 0.00368 0.14514 -0.04000
C 	C 	0.14851 0.00613 0.18050 -0.02600
H 	H 	0.12933 0.92415 0.19460 0.04100
H 	H 	0.16193 0.91993 0.13164 0.04400
H 	H 	0.17787 0.02592 0.13141 0.04600
H 	H 	0.14460 0.03028 0.19379 0.04900
C 	C 	0.13182 0.98604 0.78752 0.00300
C 	C 	0.11705 0.98299 0.82652 -0.03300
C 	C 	0.13503 0.97500 0.86305 -0.04100
C 	C 	0.16802 0.97023 0.86099 0.01600
C 	C 	0.18286 0.97384 0.82211 -0.04200
C 	C 	0.16485 0.98189 0.78553 -0.02900
H 	H 	0.09160 0.98652 0.82844 0.04300
H 	H 	0.12325 0.97194 0.89280 0.04400
H 	H 	0.20829 0.97019 0.82020 0.04500
H 	H 	0.17647 0.98432 0.75559 0.04600
Zn	Zn	0.49298 0.58786 0.96298 1.22200
Zn	Zn	0.45212 0.56766 0.04585 1.19700
C 	C 	0.56873 0.49507 0.00003 0.29200
Zn	Zn	0.51929 0.53962 0.03512 1.22300
Zn	Zn	0.54897 0.54814 0.93750 1.19400
H 	H 	0.46975 0.52714 0.99086 0.18500
C 	C 	0.51387 0.60048 0.08269 0.29500
O 	O 	0.54303 0.57931 0.88785 -0.44300
O 	O 	0.51603 0.62081 0.92010 -0.39400
O 	O 	0.47886 0.54747 0.00330 -0.78800
O 	O 	0.42791 0.60192 0.01105 -0.44800
O 	O 	0.47147 0.56772 0.91418 -0.43600
O 	O 	0.47115 0.62775 0.98275 -0.43100
O 	O 	0.50481 0.52331 0.91878 -0.39900
O 	O 	0.46192 0.54619 0.10169 -0.44500
H 	H 	0.54778 0.59073 0.99497 0.17800
O 	O 	0.49749 0.50739 0.08075 -0.39400
O 	O 	0.53382 0.57210 0.98649 -0.79800
O 	O 	0.55899 0.50274 0.96123 -0.44100
O 	O 	0.52938 0.57224 0.07911 -0.42200
O 	O 	0.55232 0.50418 0.03268 -0.41900
O 	O 	0.48688 0.60595 0.06156 -0.41300
C 	C 	0.53273 0.61038 0.88849 0.29400
C 	C 	0.44110 0.62832 0.99335 0.31000
C 	C 	0.47993 0.53845 0.90132 0.30000
C 	C 	0.47629 0.51729 0.10744 0.29600
C 	C 	0.34752 0.38792 0.53682 0.02600
C 	C 	0.33286 0.36022 0.55608 -0.02400
C 	C 	0.33093 0.32988 0.53539 0.02600
C 	C 	0.34152 0.32818 0.49378 -0.02300
C 	C 	0.35221 0.35694 0.47244 0.02600
C 	C 	0.35541 0.38665 0.49428 -0.02300
C 	C 	0.36072 0.41059 0.56600 -0.05800
S 	S 	0.33742 0.36359 0.60800 -0.00100
C 	C 	0.30834 0.30492 0.54566 -0.05800
S 	S 	0.32201 0.29735 0.47067 -0.00200
C 	C 	0.37111 0.35621 0.43621 -0.05900
S 	S 	0.38195 0.41049 0.46996 -0.00200
C 	C 	0.35589 0.40042 0.60792 0.00100
H 	H 	0.37558 0.43150 0.55713 0.05000
C 	C 	0.30122 0.28405 0.51206 0.00100
H 	H 	0.29394 0.30579 0.57336 0.05000
C 	C 	0.38959 0.38505 0.43063 0.00100
H 	H 	0.37159 0.33542 0.41527 0.05100
C 	C 	0.41623 0.42835 0.31233 0.00300
C 	C 	0.38695 0.41190 0.31575 -0.03200
C 	C 	0.37866 0.39667 0.35397 -0.04100
C 	C 	0.39969 0.39756 0.38908 0.01600
C 	C 	0.42946 0.41291 0.38517 -0.04100
C 	C 	0.43777 0.42812 0.34686 -0.02900
H 	H 	0.37030 0.41166 0.28910 0.04200
H 	H 	0.35552 0.38510 0.35664 0.04400
H 	H 	0.44589 0.41364 0.41202 0.04500
H 	H 	0.46049 0.44063 0.34445 0.04800
C 	C 	0.40721 0.43807 0.71472 0.00200
C 	C 	0.42298 0.43283 0.67708 -0.03200
C 	C 	0.40637 0.42027 0.64224 -0.04100
C 	C 	0.37375 0.41318 0.64461 0.01600
C 	C 	0.35810 0.41818 0.68233 -0.04200
C 	C 	0.37472 0.43067 0.71717 -0.02800
H 	H 	0.44800 0.43877 0.67469 0.04200
H 	H 	0.41885 0.41597 0.61353 0.04400
H 	H 	0.33296 0.41271 0.68451 0.04500
H 	H 	0.36233 0.43461 0.74606 0.04700
C 	C 	0.21155 0.23390 0.50537 0.00300
C 	C 	0.23326 0.22665 0.53867 -0.03100
C 	C 	0.26291 0.24233 0.54008 -0.04200
C 	C 	0.27105 0.26551 0.50830 0.01600
C 	C 	0.24941 0.27238 0.47460 -0.04100
C 	C 	0.21988 0.25643 0.47304 -0.02900
H 	H 	0.22705 0.20909 0.56362 0.04400
H 	H 	0.27940 0.23681 0.56616 0.04400
H 	H 	0.25510 0.29063 0.45023 0.04500
H 	H 	0.20321 0.26213 0.44721 0.04600
C 	C 	0.60974 0.76353 0.49507 0.02600
C 	C 	0.63786 0.77515 0.51429 -0.02300
C 	C 	0.65874 0.79562 0.49170 0.02600
C 	C 	0.65380 0.80039 0.44796 -0.02400
C 	C 	0.62528 0.78980 0.42853 0.02600
C 	C 	0.60272 0.77250 0.45282 -0.02300
C 	C 	0.58625 0.75440 0.52446 -0.05900
S 	S 	0.63291 0.77523 0.56604 -0.00200
C 	C 	0.67881 0.81991 0.51010 -0.05800
S 	S 	0.67352 0.83461 0.43341 -0.00000
C 	C 	0.62228 0.78352 0.38479 -0.05800
S 	S 	0.58069 0.74965 0.42043 -0.00100
C 	C 	0.59598 0.75979 0.56641 0.00100
H 	H 	0.56289 0.74524 0.51545 0.05000
C 	C 	0.68889 0.84406 0.48077 0.00100
H 	H 	0.68523 0.82015 0.54335 0.04900
C 	C 	0.59735 0.76157 0.37522 0.00100
H 	H 	0.64052 0.79009 0.36263 0.05000
C 	C 	0.58912 0.70294 0.26495 0.00200
C 	C 	0.58816 0.73783 0.26139 -0.02700
C 	C 	0.59178 0.75698 0.29733 -0.04200
C 	C 	0.59621 0.74141 0.33714 0.01600
C 	C 	0.59838 0.70655 0.34053 -0.04100
C 	C 	0.59457 0.68741 0.30469 -0.03200
H 	H 	0.58413 0.75010 0.23089 0.04800
H 	H 	0.59041 0.78387 0.29432 0.04500
H 	H 	0.60266 0.69425 0.37095 0.04500
H 	H 	0.59506 0.66050 0.30797 0.04200
C 	C 	0.56972 0.70190 0.67490 0.00300
C 	C 	0.56702 0.68822 0.63477 -0.03300
C 	C 	0.57423 0.70747 0.59898 -0.04100
C 	C 	0.58367 0.74083 0.60291 0.01600
C 	C 	0.58446 0.75502 0.64280 -0.04100
C 	C 	0.57757 0.73565 0.67863 -0.02800
H 	H 	0.56008 0.66244 0.63141 0.04200
H 	H 	0.57354 0.69611 0.56846 0.04400
H 	H 	0.59131 0.78083 0.64616 0.04500
H 	H 	0.57932 0.74659 0.70940 0.04800
C 	C 	0.76972 0.90691 0.50165 0.00200
C 	C 	0.76920 0.87466 0.51965 -0.03100
C 	C 	0.74315 0.85388 0.51220 -0.04100
C 	C 	0.71715 0.86532 0.48703 0.01600
C 	C 	0.71787 0.89749 0.46864 -0.04100
C 	C 	0.74413 0.91815 0.47578 -0.02800
H 	H 	0.78915 0.86557 0.53901 0.04300
H 	H 	0.74331 0.82883 0.52572 0.04400
H 	H 	0.69798 0.90660 0.44921 0.04500
H 	H 	0.74451 0.94292 0.46142 0.04600
Zn	Zn	0.02173 0.06502 0.46809 1.22300
Zn	Zn	0.00219 0.11579 0.54280 1.19700
C 	C 	0.93587 0.99156 0.50602 0.30100
Zn	Zn	0.97680 0.04491 0.54174 1.22300
Zn	Zn	0.99516 0.99561 0.45991 1.19700
H 	H 	0.96412 0.09093 0.48849 0.18300
C 	C 	0.03376 0.05624 0.59289 0.28700
O 	O 	0.02024 0.00051 0.40789 -0.44400
O 	O 	0.05567 0.03841 0.43365 -0.39800
O 	O 	0.98377 0.08321 0.50364 -0.79200
O 	O 	0.03348 0.13975 0.50676 -0.45200
O 	O 	0.99628 0.07289 0.41520 -0.42000
O 	O 	0.05832 0.09415 0.48108 -0.43300
O 	O 	0.96113 0.03186 0.43320 -0.42400
O 	O 	0.98209 0.11110 0.59830 -0.45800
H 	H 	0.03153 0.01664 0.51738 0.18000
O 	O 	0.94513 0.07213 0.57991 -0.38200
O 	O 	0.01211 0.02563 0.50284 -0.79000
O 	O 	0.95959 0.97479 0.49075 -0.45400
O 	O 	0.00634 0.04033 0.59077 -0.42000
O 	O 	0.94102 0.01245 0.53685 -0.40600
O 	O 	0.03944 0.08173 0.56695 -0.41100
C 	C 	0.04787 0.01581 0.40611 0.29700
C 	C 	0.05785 0.12617 0.48867 0.31600
C 	C 	0.96909 0.05732 0.40864 0.29400
C 	C 	0.95540 0.09519 0.60554 0.29800
C 	C 	0.85384 0.96160 0.52254 0.08900
C 	C 	0.84481 0.95181 0.48177 0.09500
N 	N 	0.81694 0.93545 0.47538 -0.11400
C 	C 	0.79775 0.92820 0.50817 0.04800
C 	C 	0.80642 0.93869 0.54873 0.00100
N 	N 	0.83431 0.95519 0.55510 -0.10300
N 	N 	0.88285 0.97559 0.52953 -0.08600
N 	N 	0.86488 0.95697 0.44952 -0.11300
H 	H 	0.79134 0.93316 0.57510 0.04100
C 	C 	0.90338 0.97985 0.49742 -0.03200
C 	C 	0.89398 0.97079 0.45653 0.04200
H 	H 	0.90994 0.97432 0.43061 0.02700
C 	C 	0.12139 0.18822 0.50690 0.08700
C 	C 	0.14398 0.17887 0.47769 0.09600
N 	N 	0.17271 0.19429 0.47714 -0.11400
C 	C 	0.17986 0.21854 0.50492 0.04800
C 	C 	0.15715 0.22809 0.53381 0.00100
N 	N 	0.12834 0.21275 0.53420 -0.10700
N 	N 	0.09329 0.17172 0.50885 -0.09300
N 	N 	0.13740 0.15365 0.45127 -0.11200
H 	H 	0.16251 0.24744 0.55596 0.04000
C 	C 	0.08692 0.14589 0.48309 -0.03600
C 	C 	0.10933 0.13695 0.45338 0.04700
H 	H 	0.10453 0.11668 0.43236 0.04100
C 	C 	0.43627 0.48540 0.20273 0.08700
C 	C 	0.45620 0.45887 0.21605 0.09500
N 	N 	0.44940 0.44072 0.25142 -0.11400
C 	C 	0.42324 0.44791 0.27381 0.04700
C 	C 	0.40338 0.47447 0.26039 0.00100
N 	N 	0.41030 0.49268 0.22513 -0.10700
N 	N 	0.44316 0.50370 0.16763 -0.09500
N 	N 	0.48214 0.45158 0.19351 -0.11200
H 	H 	0.38270 0.48070 0.27814 0.04000
C 	C 	0.46913 0.49653 0.14491 -0.03200
C 	C 	0.48901 0.46984 0.15815 0.04400
H 	H 	0.50990 0.46388 0.14071 0.04700
C 	C 	0.45652 0.47963 0.81824 0.08800
C 	C 	0.42780 0.49363 0.80262 0.09500
N 	N 	0.41225 0.47983 0.76940 -0.11500
C 	C 	0.42432 0.45256 0.75096 0.04800
C 	C 	0.45286 0.43833 0.76698 0.00200
N 	N 	0.46842 0.45221 0.80025 -0.10500
N 	N 	0.47253 0.49400 0.85068 -0.09100
N 	N 	0.41604 0.52121 0.82037 -0.11300
H 	H 	0.46248 0.41631 0.75314 0.04000
C 	C 	0.46107 0.52196 0.86819 -0.03300
C 	C 	0.43205 0.53566 0.85286 0.04300
H 	H 	0.42241 0.55775 0.86649 0.04100
C 	C 	0.56429 0.64130 0.16372 0.08700
C 	C 	0.54627 0.66978 0.17153 0.09600
N 	N 	0.55523 0.68988 0.20339 -0.11500
C 	C 	0.58162 0.68275 0.22783 0.04800
C 	C 	0.60034 0.65497 0.21885 0.00100
N 	N 	0.59117 0.63468 0.18716 -0.10500
N 	N 	0.55400 0.61983 0.13401 -0.09100
N 	N 	0.51924 0.67624 0.14841 -0.11200
H 	H 	0.62179 0.64936 0.23733 0.04000
C 	C 	0.52642 0.62575 0.11151 -0.03000
C 	C 	0.50902 0.65493 0.11841 0.04200
H 	H 	0.48720 0.66030 0.10061 0.04300
C 	C 	0.56011 0.64162 0.78489 0.08700
C 	C 	0.54410 0.67222 0.78032 0.09500
N 	N 	0.54722 0.69114 0.74455 -0.11500
C 	C 	0.56577 0.68065 0.71304 0.04800
C 	C 	0.58212 0.65020 0.71798 0.00200
N 	N 	0.57883 0.63125 0.75372 -0.10700
N 	N 	0.55658 0.62246 0.82030 -0.09400
N 	N 	0.52548 0.68263 0.81160 -0.11200
H 	H 	0.59761 0.64190 0.69373 0.03900
C 	C 	0.53771 0.63261 0.85161 -0.03000
C 	C 	0.52197 0.66349 0.84720 0.04300
H 	H 	0.50676 0.67199 0.87164 0.04500
C 	C 	0.07668 0.98753 0.30383 0.08500
C 	C 	0.10768 0.00054 0.30388 0.09900
N 	N 	0.12603 0.99671 0.26987 -0.11600
C 	C 	0.11469 0.98027 0.23569 0.04800
C 	C 	0.08368 0.96718 0.23573 0.00100
N 	N 	0.06532 0.97105 0.26983 -0.10500
N 	N 	0.05801 0.99218 0.33736 -0.09200
N 	N 	0.11889 0.01741 0.33760 -0.11300
H 	H 	0.07413 0.95447 0.20856 0.04000
C 	C 	0.06903 0.00947 0.37104 -0.03000
C 	C 	0.10024 0.02212 0.37121 0.04200
H 	H 	0.10955 0.03570 0.39781 0.04400
C 	C 	0.07369 0.00775 0.67989 0.08900
C 	C 	0.09944 0.02847 0.69038 0.09400
N 	N 	0.11843 0.02066 0.72456 -0.11300
C 	C 	0.11261 0.99292 0.74878 0.04600
C 	C 	0.08735 0.97177 0.73753 0.00200
N 	N 	0.06834 0.97967 0.70339 -0.10700
N 	N 	0.05351 0.01664 0.64745 -0.09200
N 	N 	0.10438 0.05691 0.66733 -0.11200
H 	H 	0.08269 0.94940 0.75615 0.04000
C 	C 	0.05793 0.04548 0.62483 -0.02900
C 	C 	0.08420 0.06581 0.63468 0.04100
H 	H 	0.08813 0.08886 0.61713 0.04200
C 	C 	0.38917 0.71825 0.98592 0.09600
C 	C 	0.37378 0.68771 0.99339 0.08600
N 	N 	0.39085 0.65903 0.99482 -0.09300
C 	C 	0.42278 0.65950 0.98886 -0.03500
C 	C 	0.43805 0.69007 0.98058 0.04600
N 	N 	0.42093 0.71882 0.97940 -0.11300
N 	N 	0.37232 0.74706 0.98621 -0.11500
N 	N 	0.34205 0.68713 0.00005 -0.10600
H 	H 	0.46342 0.69101 0.97583 0.04400
C 	C 	0.34058 0.74660 0.99367 0.04700
C 	C 	0.32510 0.71593 0.00011 0.00300
H 	H 	0.29976 0.71508 0.00520 0.03900
C 	C 	0.90724 0.08777 0.30783 0.09500
C 	C 	0.93692 0.10322 0.31381 0.08700
N 	N 	0.95628 0.09350 0.34687 -0.09000
C 	C 	0.94711 0.06893 0.37438 -0.03300
C 	C 	0.91711 0.05390 0.36865 0.04100
N 	N 	0.89786 0.06359 0.33545 -0.11300
N 	N 	0.88823 0.09690 0.27425 -0.11500
N 	N 	0.94622 0.12752 0.28624 -0.10500
H 	H 	0.90925 0.03451 0.39031 0.03900
C 	C 	0.89760 0.12100 0.24626 0.04800
C 	C 	0.92710 0.13686 0.25269 0.00100
H 	H 	0.93461 0.15660 0.23130 0.04000
C 	C 	0.90930 0.11365 0.71882 0.09600
C 	C 	0.89201 0.10165 0.68393 0.08800
N 	N 	0.90727 0.09522 0.64782 -0.09000
C 	C 	0.93919 0.10048 0.64528 -0.03000
C 	C 	0.95642 0.11201 0.68056 0.04400
N 	N 	0.94112 0.11839 0.71653 -0.11300
N 	N 	0.89407 0.12055 0.75461 -0.11500
N 	N 	0.86012 0.09689 0.68639 -0.10400
H 	H 	0.98187 0.11579 0.67936 0.04200
C 	C 	0.86213 0.11597 0.75721 0.04800
C 	C 	0.84482 0.10372 0.72239 0.00200
H 	H 	0.81948 0.09939 0.72414 0.04100
C 	C 	0.61301 0.41687 0.98633 0.08600
C 	C 	0.64028 0.42196 0.01186 0.09600
N 	N 	0.66409 0.39911 0.01307 -0.11500
C 	C 	0.66154 0.37093 0.99030 0.04700
C 	C 	0.63359 0.36529 0.96609 0.00200
N 	N 	0.61010 0.38857 0.96421 -0.10500
N 	N 	0.58984 0.44040 0.98368 -0.09000
N 	N 	0.64275 0.44985 0.03493 -0.11300
H 	H 	0.63047 0.34241 0.94929 0.04000
C 	C 	0.59245 0.46857 0.00633 -0.03100
C 	C 	0.61923 0.47315 0.03293 0.03800
H 	H 	0.62170 0.49550 0.05099 0.02900
