data_crystal

_cell_length_a 13.19236
_cell_length_b 16.82604
_cell_length_c 23.19963
_cell_angle_alpha 90.00386
_cell_angle_beta  76.62695
_cell_angle_gamma 90.00100

_symmetry_space_group_name_	'P 1'
_symmetry_space_group_name_H-M	'P 1'

loop_
_symmetry_equiv_pos_as_xyz
  x,y,z

loop_
_atom_site_label
_atom_site_type_symbol
_atom_site_fract_x
_atom_site_fract_y
_atom_site_fract_z
_atom_site_charge
Cu	Cu	0.49175 0.41076 0.19234 0.93000
Cu	Cu	0.66744 0.51014 0.23977 0.86900
Cu	Cu	0.48095 0.58966 0.20755 0.89500
Cu	Cu	0.29264 0.50617 0.18214 0.89000
C 	C 	0.29568 0.33015 0.20905 0.31900
O 	O 	0.48864 0.40295 0.10606 -0.36700
C 	C 	0.67711 0.67260 0.20830 0.30200
O 	O 	0.38887 0.50115 0.23090 -0.64200
O 	O 	0.58477 0.50307 0.18006 -0.64200
O 	O 	0.57590 0.34293 0.23220 -0.38400
O 	O 	0.59809 0.43624 0.29858 -0.43500
O 	O 	0.25883 0.38925 0.18189 -0.39500
O 	O 	0.37580 0.66813 0.23875 -0.39100
C 	C 	0.28601 0.67615 0.22341 0.29100
C 	C 	0.46586 0.46352 0.07575 0.28500
O 	O 	0.41759 0.52561 0.10377 -0.39400
O 	O 	0.23512 0.61403 0.20894 -0.39700
O 	O 	0.38998 0.33188 0.21881 -0.38300
C 	C 	0.58694 0.36160 0.28499 0.29600
O 	O 	0.58284 0.67704 0.19763 -0.38500
O 	O 	0.72850 0.60500 0.20250 -0.42000
H 	H 	0.35763 0.49785 0.27396 0.16100
H 	H 	0.62546 0.51030 0.13883 0.17300
Cu	Cu	0.49801 0.40050 0.80416 0.92900
Cu	Cu	0.39416 0.47967 0.70556 0.86300
Cu	Cu	0.52959 0.57065 0.75915 0.88500
Cu	Cu	0.71195 0.49022 0.80356 0.89900
C 	C 	0.68750 0.31663 0.79713 0.30800
O 	O 	0.47390 0.43347 0.89001 -0.36700
C 	C 	0.33419 0.64112 0.73799 0.30000
O 	O 	0.61698 0.47537 0.75531 -0.63400
O 	O 	0.41910 0.48969 0.78435 -0.65100
O 	O 	0.42221 0.31823 0.77011 -0.37800
O 	O 	0.45539 0.37894 0.68020 -0.43500
O 	O 	0.73710 0.37539 0.81630 -0.38700
O 	O 	0.64020 0.65278 0.74044 -0.37600
C 	C 	0.73539 0.64772 0.75013 0.28900
C 	C 	0.51977 0.49457 0.90903 0.28500
O 	O 	0.58527 0.53971 0.87165 -0.39500
O 	O 	0.77910 0.57843 0.75396 -0.39200
O 	O 	0.58555 0.31344 0.81208 -0.37400
C 	C 	0.43027 0.31504 0.71284 0.29200
O 	O 	0.42767 0.65398 0.74920 -0.38900
O 	O 	0.30736 0.57099 0.72064 -0.43100
H 	H 	0.64894 0.45811 0.71433 0.15400
H 	H 	0.35947 0.50760 0.81598 0.17400
Cu	Cu	0.88967 0.92292 0.31294 0.92800
Cu	Cu	0.68859 0.03668 0.30478 0.86500
Cu	Cu	0.90046 0.09706 0.28113 0.90100
Cu	Cu	0.10370 0.00946 0.26581 0.88600
C 	C 	0.07412 0.83312 0.26164 0.26400
O 	O 	0.95664 0.93103 0.38306 -0.36900
C 	C 	0.73130 0.20123 0.33135 0.30300
O 	O 	0.97114 0.00150 0.24863 -0.61200
O 	O 	0.81169 0.02183 0.33613 -0.64000
O 	O 	0.76878 0.85880 0.30367 -0.37900
O 	O 	0.70854 0.95188 0.24824 -0.44200
O 	O 	0.12899 0.89330 0.27513 -0.39500
O 	O 	0.98806 0.16964 0.22739 -0.35300
C 	C 	0.08979 0.17184 0.22045 0.24900
C 	C 	0.99726 0.99832 0.39626 0.35400
O 	O 	0.03217 0.05105 0.35463 -0.43600
O 	O 	0.14494 0.10564 0.21606 -0.38800
O 	O 	0.97119 0.83431 0.27606 -0.34000
C 	C 	0.71701 0.87731 0.26348 0.28700
O 	O 	0.83197 0.18798 0.32342 -0.38500
O 	O 	0.66330 0.14178 0.34052 -0.41500
H 	H 	0.97107 0.99147 0.20658 0.15900
H 	H 	0.80121 0.03728 0.37828 0.17900
Cu	Cu	0.06668 0.90426 0.66604 0.91100
Cu	Cu	0.27931 0.99683 0.68851 0.85800
Cu	Cu	0.08701 0.08338 0.67565 0.88800
Cu	Cu	0.88134 0.02122 0.66542 0.89800
C 	C 	0.85275 0.84839 0.69776 0.30400
O 	O 	0.04226 0.89761 0.58341 -0.36800
C 	C 	0.28552 0.16015 0.64994 0.30000
O 	O 	0.98604 0.00388 0.70741 -0.62100
O 	O 	0.17312 0.98929 0.64210 -0.64900
O 	O 	0.15249 0.82544 0.69842 -0.37600
O 	O 	0.22810 0.91838 0.74635 -0.44900
O 	O 	0.82597 0.91011 0.66922 -0.39200
O 	O 	0.00492 0.17164 0.71436 -0.43100
C 	C 	0.90321 0.17843 0.72131 0.33300
C 	C 	0.02789 0.96093 0.55326 0.21900
O 	O 	0.99574 0.02745 0.58133 -0.33700
O 	O 	0.85162 0.13416 0.69051 -0.39800
O 	O 	0.95100 0.83631 0.70065 -0.34900
C 	C 	0.21899 0.84443 0.73066 0.28600
O 	O 	0.19217 0.15927 0.63887 -0.39400
O 	O 	0.33867 0.09349 0.64951 -0.41500
H 	H 	0.96210 0.00420 0.75113 0.16800
H 	H 	0.20252 0.99408 0.59894 0.16600
C 	C 	0.00801 0.01273 0.45713 -0.18700
C 	C 	0.03223 0.95257 0.48949 -0.06200
H 	H 	0.99713 0.07249 0.47524 0.11500
H 	H 	0.05038 0.89445 0.46921 0.05300
C 	C 	0.80327 0.71861 0.74289 -0.08500
C 	C 	0.77897 0.78795 0.71553 -0.11100
H 	H 	0.87745 0.71401 0.75549 0.07700
H 	H 	0.70225 0.79439 0.70634 0.07500
C 	C 	0.74157 0.24816 0.77398 -0.11300
C 	C 	0.85027 0.24709 0.75459 -0.09900
H 	H 	0.69717 0.19609 0.76686 0.07300
H 	H 	0.89654 0.29684 0.76390 0.07600
C 	C 	0.41270 0.23938 0.68529 -0.09500
C 	C 	0.33293 0.23313 0.65494 -0.12100
H 	H 	0.44849 0.18602 0.69804 0.06000
H 	H 	0.29548 0.28704 0.64440 0.06000
C 	C 	0.26103 0.70241 0.74357 -0.11700
C 	C 	0.28730 0.78259 0.74657 -0.10000
H 	H 	0.18317 0.68746 0.73879 0.07300
H 	H 	0.36043 0.79964 0.75703 0.05900
C 	C 	0.23346 0.75406 0.23326 -0.09500
C 	C 	0.12464 0.76119 0.24282 -0.10600
H 	H 	0.28042 0.80606 0.23693 0.06500
H 	H 	0.07819 0.70955 0.23746 0.06300
C 	C 	0.72741 0.74137 0.22049 -0.12000
C 	C 	0.67463 0.81386 0.23241 -0.09000
H 	H 	0.80638 0.73650 0.22674 0.08200
H 	H 	0.60146 0.82353 0.21955 0.06500
C 	C 	0.59753 0.29821 0.32641 -0.09600
C 	C 	0.69633 0.27972 0.33454 -0.11600
H 	H 	0.53552 0.25443 0.33750 0.06500
H 	H 	0.75356 0.32712 0.33068 0.06700
C 	C 	0.23976 0.25959 0.22130 -0.12900
C 	C 	0.14415 0.24790 0.20642 -0.07400
H 	H 	0.27296 0.21152 0.24235 0.07300
H 	H 	0.10612 0.29626 0.18859 0.05400
C 	C 	0.47075 0.45233 0.01238 -0.09200
C 	C 	0.49924 0.51135 0.97310 -0.10000
H 	H 	0.46033 0.39258 0.99686 0.07300
H 	H 	0.51627 0.57006 0.98799 0.06200
