data_crystal

_cell_length_a 41.77589
_cell_length_b 35.35361
_cell_length_c 22.69985
_cell_angle_alpha 89.96053
_cell_angle_beta  89.94465
_cell_angle_gamma 87.42008

_symmetry_space_group_name_	'P 1'
_symmetry_space_group_name_H-M	'P 1'

loop_
_symmetry_equiv_pos_as_xyz
  x,y,z

loop_
_atom_site_label
_atom_site_type_symbol
_atom_site_fract_x
_atom_site_fract_y
_atom_site_fract_z
_atom_site_charge
C 	C 	0.45206 0.55275 0.97944 -0.03800
C 	C 	0.48109 0.57061 0.98294 -0.03800
C 	C 	0.45132 0.51294 0.97995 0.00800
C 	C 	0.48049 0.49098 0.98341 -0.00500
C 	C 	0.51002 0.50912 0.98601 -0.00500
C 	C 	0.51033 0.54920 0.98580 0.00700
C 	C 	0.48017 0.45091 0.98444 0.00800
C 	C 	0.50935 0.42952 0.98909 -0.03800
C 	C 	0.53920 0.48715 0.98921 0.00800
C 	C 	0.54000 0.56705 0.98853 -0.00500
C 	C 	0.56866 0.54508 0.99008 -0.04600
C 	C 	0.56862 0.50555 0.99076 -0.00600
C 	C 	0.42194 0.49452 0.97702 -0.00500
C 	C 	0.42191 0.45498 0.97754 -0.04600
C 	C 	0.45053 0.43305 0.98127 -0.00600
C 	C 	0.54168 0.60870 0.99122 0.01300
C 	C 	0.54004 0.63013 0.93914 -0.03900
C 	C 	0.54847 0.66798 0.93956 -0.03500
C 	C 	0.55947 0.68428 0.99171 0.01700
C 	C 	0.55929 0.66355 0.04439 -0.03700
C 	C 	0.55029 0.62596 0.04419 -0.03800
C 	C 	0.59976 0.48403 0.99278 0.01300
C 	C 	0.61732 0.48247 0.04544 -0.03800
C 	C 	0.64983 0.47129 0.04473 -0.03400
C 	C 	0.61429 0.47135 0.94023 -0.03900
C 	C 	0.64675 0.45983 0.93959 -0.03700
C 	C 	0.66492 0.46110 0.99146 0.01700
C 	C 	0.39083 0.51604 0.97366 0.01300
C 	C 	0.37587 0.52937 0.02548 -0.03800
C 	C 	0.34373 0.54222 0.02446 -0.03400
C 	C 	0.32621 0.54113 0.97183 0.01700
C 	C 	0.34172 0.53014 0.91936 -0.03700
C 	C 	0.37395 0.51768 0.92026 -0.03900
C 	C 	0.44883 0.39137 0.98188 0.01300
C 	C 	0.45311 0.37079 0.92941 -0.03900
C 	C 	0.44562 0.33265 0.92722 -0.03700
C 	C 	0.43360 0.31491 0.97739 0.01800
C 	C 	0.43038 0.33515 0.03038 -0.03400
C 	C 	0.43820 0.37313 0.03271 -0.03700
C 	C 	0.53843 0.44737 0.99131 -0.03800
H 	H 	0.53336 0.61708 0.89805 0.04400
H 	H 	0.54787 0.68408 0.89892 0.04700
H 	H 	0.56720 0.67614 0.08505 0.04600
H 	H 	0.55150 0.60967 0.08463 0.04400
H 	H 	0.32847 0.52977 0.87837 0.04700
H 	H 	0.38536 0.50761 0.88000 0.04400
H 	H 	0.33203 0.55127 0.06500 0.04800
H 	H 	0.38876 0.52832 0.06688 0.04500
H 	H 	0.46120 0.38469 0.88990 0.04400
H 	H 	0.44822 0.31722 0.88615 0.04600
H 	H 	0.43475 0.38884 0.07336 0.04600
H 	H 	0.42103 0.32171 0.06928 0.05000
H 	H 	0.60623 0.49202 0.08629 0.04500
H 	H 	0.66364 0.47222 0.08505 0.04800
H 	H 	0.60087 0.47227 0.89940 0.04500
H 	H 	0.65816 0.45174 0.89832 0.04700
H 	H 	0.43013 0.57014 0.97637 0.04300
H 	H 	0.48066 0.60124 0.98321 0.04300
H 	H 	0.59130 0.55896 0.99127 0.05000
H 	H 	0.56034 0.43001 0.99505 0.04600
H 	H 	0.50970 0.39892 0.99124 0.04600
H 	H 	0.39930 0.44109 0.97520 0.05100
Zn	Zn	0.35062 0.10814 0.01134 1.22200
C 	C 	0.28985 0.07308 0.02593 0.33200
O 	O 	0.37371 0.09960 0.08607 -0.46300
O 	O 	0.30460 0.04168 0.00757 -0.44000
O 	O 	0.34514 0.04960 0.11415 -0.48400
C 	C 	0.36364 0.05245 0.92254 0.32800
O 	O 	0.34679 0.08366 0.93491 -0.45000
O 	O 	0.37337 0.02954 0.96505 -0.50700
C 	C 	0.36352 0.07737 0.12780 0.31700
O 	O 	0.39640 0.13635 0.97262 -0.32600
Zn	Zn	0.34939 0.02512 0.03791 1.17400
O 	O 	0.30628 0.10287 0.03873 -0.42900
C 	C 	0.37983 0.16807 0.97857 0.28800
O 	O 	0.35147 0.16528 0.00073 -0.37200
C 	C 	0.48426 0.02334 0.46825 0.01200
C 	C 	0.51639 0.00797 0.46677 0.01200
C 	C 	0.46891 0.03009 0.52258 -0.05400
C 	C 	0.48512 0.02133 0.57544 0.01200
C 	C 	0.53294 0.00044 0.51958 -0.05500
C 	C 	0.51739 0.00635 0.57388 0.01200
H 	H 	0.55796 0.99096 0.51842 0.05200
H 	H 	0.44449 0.04172 0.52369 0.05200
C 	C 	0.53326 0.99838 0.62773 -0.01300
C 	C 	0.51679 0.00025 0.68134 0.00600
C 	C 	0.53141 0.97745 0.72619 -0.04800
C 	C 	0.55925 0.95749 0.70732 -0.00900
S 	S 	0.56506 0.96858 0.63657 -0.00200
H 	H 	0.52359 0.97796 0.77167 0.04500
C 	C 	0.47027 0.02753 0.63086 -0.01400
C 	C 	0.48517 0.01490 0.68298 0.00800
C 	C 	0.46334 0.00868 0.72956 -0.04900
C 	C 	0.43138 0.01584 0.71336 -0.00800
S 	S 	0.43077 0.03030 0.64319 -0.00100
H 	H 	0.47062 0.00141 0.77405 0.04400
C 	C 	0.48328 0.02325 0.36029 0.00700
C 	C 	0.46785 0.02917 0.41438 -0.01400
S 	S 	0.43643 0.05919 0.40312 -0.00100
C 	C 	0.44134 0.06549 0.33060 -0.00900
C 	C 	0.46829 0.04335 0.31309 -0.05000
C 	C 	0.53155 0.00242 0.41155 -0.01400
C 	C 	0.51485 0.00889 0.35876 0.00700
C 	C 	0.52811 0.98819 0.31045 -0.05000
C 	C 	0.55460 0.96477 0.32600 -0.00900
S 	S 	0.56173 0.97104 0.39769 -0.00100
H 	H 	0.51841 0.98970 0.26624 0.04300
H 	H 	0.47655 0.04153 0.26790 0.04300
Zn	Zn	0.64395 0.89280 0.01450 1.22200
C 	C 	0.70506 0.92790 0.02364 0.33200
O 	O 	0.61961 0.90955 0.08474 -0.46000
O 	O 	0.69120 0.95717 0.99676 -0.44200
O 	O 	0.64843 0.96128 0.10164 -0.48300
C 	C 	0.63307 0.93860 0.91250 0.32900
O 	O 	0.64943 0.90897 0.93323 -0.45200
O 	O 	0.62337 0.96604 0.94808 -0.50600
C 	C 	0.62958 0.93537 0.12108 0.31700
O 	O 	0.59823 0.86203 0.98117 -0.31900
Zn	Zn	0.64611 0.97745 0.02004 1.17500
O 	O 	0.68793 0.89997 0.04241 -0.43000
C 	C 	0.61363 0.83119 0.99784 0.28800
O 	O 	0.64205 0.83537 0.01883 -0.37900
Zn	Zn	0.12900 0.58604 0.98958 1.22200
C 	C 	0.08116 0.64728 0.00014 0.33300
O 	O 	0.12213 0.55165 0.05681 -0.45600
O 	O 	0.06156 0.62579 0.97149 -0.44300
O 	O 	0.07067 0.57294 0.07203 -0.48700
C 	C 	0.09536 0.56868 0.88415 0.32800
O 	O 	0.11505 0.59226 0.90779 -0.44600
O 	O 	0.07777 0.54801 0.91813 -0.51100
C 	C 	0.09705 0.55589 0.09158 0.31500
O 	O 	0.17000 0.54387 0.95344 -0.32100
Zn	Zn	0.05909 0.56889 0.99002 1.17300
O 	O 	0.10837 0.63283 0.02115 -0.43000
C 	C 	0.18935 0.56919 0.97129 0.28900
O 	O 	0.17592 0.59845 0.99701 -0.37300
C 	C 	0.00802 0.51433 0.52694 0.01200
C 	C 	0.97676 0.50000 0.52761 0.01200
C 	C 	0.03040 0.50134 0.48452 -0.05400
C 	C 	0.02144 0.47586 0.44062 0.01200
C 	C 	0.96807 0.47363 0.48481 -0.05400
C 	C 	0.98995 0.46218 0.44041 0.01100
H 	H 	0.94426 0.46270 0.48535 0.05200
H 	H 	0.05444 0.51161 0.48491 0.05200
C 	C 	0.98121 0.43740 0.39494 -0.01300
C 	C 	0.00191 0.42878 0.34756 0.00800
C 	C 	0.98551 0.41724 0.29594 -0.04900
C 	C 	0.95220 0.41743 0.30296 -0.00800
S 	S 	0.94383 0.43257 0.37115 -0.00200
H 	H 	0.99692 0.41330 0.25348 0.04400
C 	C 	0.04301 0.46415 0.39550 -0.01300
C 	C 	0.03297 0.44258 0.34756 0.00800
C 	C 	0.05165 0.44764 0.29568 -0.04900
C 	C 	0.07582 0.47345 0.30300 -0.00800
S 	S 	0.07333 0.48935 0.37212 -0.00100
H 	H 	0.04510 0.43721 0.25279 0.04300
C 	C 	0.99345 0.55568 0.61057 0.00700
C 	C 	0.01538 0.54305 0.56730 -0.01400
S 	S 	0.05205 0.55117 0.59187 -0.00000
C 	C 	0.04179 0.57283 0.65490 -0.00900
C 	C 	0.00835 0.57275 0.65970 -0.04900
C 	C 	0.95434 0.51447 0.56940 -0.01400
C 	C 	0.96271 0.54113 0.61182 0.00700
C 	C 	0.94251 0.54137 0.66247 -0.05000
C 	C 	0.91880 0.51470 0.65949 -0.00900
S 	S 	0.92396 0.49078 0.59655 0.00000
H 	H 	0.94729 0.55685 0.70234 0.04100
H 	H 	0.99591 0.58022 0.70013 0.04100
Zn	Zn	0.86458 0.41382 0.98039 1.22000
C 	C 	0.80270 0.45321 0.99204 0.33000
O 	O 	0.88504 0.43576 0.91069 -0.45900
O 	O 	0.81730 0.47851 0.02332 -0.43800
O 	O 	0.85544 0.49122 0.91421 -0.48600
C 	C 	0.88095 0.44636 0.09074 0.32700
O 	O 	0.86307 0.42148 0.06544 -0.45400
O 	O 	0.88770 0.47746 0.06264 -0.50800
C 	C 	0.87340 0.46654 0.88450 0.31400
O 	O 	0.91173 0.37592 0.99735 -0.32300
Zn	Zn	0.86123 0.49758 0.99840 1.17200
O 	O 	0.81940 0.42713 0.96251 -0.43200
C 	C 	0.89539 0.34843 0.97708 0.29100
O 	O 	0.86605 0.35733 0.96269 -0.38000
C 	C 	0.93726 0.01483 0.03160 -0.03800
C 	C 	0.95072 0.05014 0.02827 -0.03900
C 	C 	0.95674 0.98128 0.02837 0.00800
C 	C 	0.99043 0.98369 0.02473 -0.00500
C 	C 	0.00414 0.01959 0.02239 -0.00500
C 	C 	0.98410 0.05299 0.02230 0.00900
C 	C 	0.01044 0.95027 0.02356 0.00900
C 	C 	0.04395 0.95319 0.02187 -0.03900
C 	C 	0.03786 0.02205 0.02066 0.00800
C 	C 	0.99796 0.08869 0.01726 -0.00700
C 	C 	0.03129 0.09085 0.01562 -0.04500
C 	C 	0.05132 0.05813 0.01836 -0.00600
C 	C 	0.94321 0.94524 0.02932 -0.00700
C 	C 	0.96314 0.91242 0.02750 -0.04500
C 	C 	0.99645 0.91450 0.02436 -0.00700
C 	C 	0.97796 0.12413 0.01250 0.01600
C 	C 	0.96333 0.13413 0.95875 -0.04100
C 	C 	0.94746 0.16955 0.95222 -0.03600
C 	C 	0.94632 0.19529 0.99926 0.01700
C 	C 	0.96055 0.18506 0.05326 -0.03400
C 	C 	0.97614 0.14952 0.05995 -0.04000
C 	C 	0.08631 0.06227 0.02086 0.01500
C 	C 	0.10058 0.07395 0.07329 -0.03900
C 	C 	0.13353 0.07897 0.07539 -0.03700
C 	C 	0.10514 0.05612 0.97028 -0.04100
C 	C 	0.13821 0.06038 0.97270 -0.03500
C 	C 	0.15249 0.07212 0.02516 0.01800
C 	C 	0.90818 0.94131 0.03113 0.01500
C 	C 	0.89339 0.93014 0.08343 -0.04000
C 	C 	0.86043 0.92498 0.08463 -0.03700
C 	C 	0.84204 0.93098 0.03354 0.01800
C 	C 	0.85682 0.94229 0.98127 -0.03600
C 	C 	0.88985 0.94697 0.97988 -0.04100
C 	C 	0.01618 0.87886 0.02040 0.01500
C 	C 	0.01826 0.85913 0.96686 -0.04000
C 	C 	0.03234 0.82254 0.96493 -0.03600
C 	C 	0.04487 0.80562 0.01639 0.01800
C 	C 	0.04398 0.82597 0.06947 -0.03700
C 	C 	0.02954 0.86239 0.07153 -0.04000
C 	C 	0.05746 0.98853 0.02138 -0.03800
H 	H 	0.96478 0.11475 0.92180 0.04500
H 	H 	0.93659 0.17727 0.91034 0.04700
H 	H 	0.95990 0.20486 0.08969 0.04700
H 	H 	0.98749 0.14206 0.10152 0.04500
H 	H 	0.84271 0.94743 0.94181 0.04800
H 	H 	0.90116 0.95527 0.93920 0.04500
H 	H 	0.84915 0.91653 0.12527 0.04700
H 	H 	0.90745 0.92544 0.12306 0.04400
H 	H 	0.00794 0.87162 0.92722 0.04500
H 	H 	0.03277 0.80696 0.92384 0.04700
H 	H 	0.02794 0.87742 0.11308 0.04400
H 	H 	0.05357 0.81310 0.10942 0.04700
H 	H 	0.08612 0.07913 0.11235 0.04400
H 	H 	0.14440 0.08781 0.11615 0.04700
H 	H 	0.09422 0.04749 0.92946 0.04500
H 	H 	0.15275 0.05452 0.93394 0.04900
H 	H 	0.91158 0.01378 0.03714 0.04500
H 	H 	0.93502 0.07527 0.03120 0.04700
H 	H 	0.04177 0.11832 0.01250 0.04900
H 	H 	0.08330 0.98960 0.02135 0.04500
H 	H 	0.05977 0.92810 0.02131 0.04600
H 	H 	0.95259 0.88492 0.02799 0.04800
C 	C 	0.90769 0.30883 0.97945 -0.08600
C 	C 	0.93744 0.29789 0.95390 0.08300
C 	C 	0.94968 0.26062 0.96023 -0.07400
C 	C 	0.93223 0.23386 0.99073 0.00700
C 	C 	0.90187 0.24436 0.01402 0.02600
C 	C 	0.88983 0.28178 0.00855 -0.00700
H 	H 	0.97279 0.25241 0.94132 0.06100
H 	H 	0.86673 0.28995 0.02751 0.05400
I 	I 	0.96335 0.33613 0.90190 -0.11200
I 	I 	0.87336 0.20416 0.05642 -0.11000
C 	C 	0.87590 0.51365 0.73512 -0.06900
C 	C 	0.90481 0.49817 0.71246 0.03500
C 	C 	0.92201 0.46987 0.74409 -0.06900
C 	C 	0.91107 0.45829 0.79920 0.01800
C 	C 	0.88285 0.47509 0.82330 -0.09700
C 	C 	0.86487 0.50208 0.79015 0.01900
H 	H 	0.86241 0.53540 0.71083 0.05100
H 	H 	0.94441 0.45778 0.72689 0.05200
H 	H 	0.92511 0.43726 0.82395 0.04100
H 	H 	0.84270 0.51469 0.80751 0.04100
C 	C 	0.91891 0.46104 0.23929 -0.07200
C 	C 	0.93013 0.42410 0.25317 0.03700
C 	C 	0.92300 0.39407 0.21575 -0.07000
C 	C 	0.90558 0.40105 0.16394 0.02600
C 	C 	0.89542 0.43823 0.14888 -0.10100
C 	C 	0.90159 0.46806 0.18747 0.02500
H 	H 	0.92450 0.48448 0.26764 0.05000
H 	H 	0.93168 0.36549 0.22600 0.05300
H 	H 	0.90105 0.37778 0.13453 0.04000
H 	H 	0.89357 0.49681 0.17670 0.02400
C 	C 	0.05561 0.76533 0.01604 0.01200
C 	C 	0.08484 0.75339 0.98947 0.02200
C 	C 	0.09320 0.71470 0.98524 0.00000
C 	C 	0.07284 0.68777 0.00799 -0.10100
C 	C 	0.04445 0.69982 0.03734 0.09200
C 	C 	0.03581 0.73844 0.04056 -0.07900
H 	H 	0.11539 0.70554 0.96377 0.05100
H 	H 	0.01362 0.74760 0.06205 0.06200
I 	I 	0.11722 0.79313 0.95705 -0.10800
I 	I 	0.01524 0.66068 0.08068 -0.15700
C 	C 	0.07031 0.53650 0.73428 -0.07100
C 	C 	0.06259 0.57136 0.70706 0.03700
C 	C 	0.07059 0.60508 0.73477 -0.07100
C 	C 	0.08416 0.60409 0.79111 0.02400
C 	C 	0.08943 0.56936 0.82033 -0.10200
C 	C 	0.08369 0.53551 0.79068 0.02400
H 	H 	0.06433 0.51028 0.71312 0.05200
H 	H 	0.06490 0.63211 0.71390 0.05200
H 	H 	0.08868 0.63040 0.81340 0.03900
H 	H 	0.08813 0.50850 0.81246 0.03200
C 	C 	0.11174 0.50169 0.15812 0.01900
C 	C 	0.09714 0.53789 0.15008 -0.09900
C 	C 	0.07888 0.55459 0.19586 0.02200
C 	C 	0.07335 0.53431 0.24740 -0.06900
C 	C 	0.08631 0.49721 0.25397 0.03600
C 	C 	0.10621 0.48137 0.20980 -0.06900
H 	H 	0.12603 0.48855 0.12325 0.03500
H 	H 	0.06788 0.58273 0.19052 0.04000
H 	H 	0.05779 0.54681 0.28102 0.05200
H 	H 	0.11640 0.45281 0.21453 0.05200
C 	C 	0.80701 0.92795 0.03578 0.01100
C 	C 	0.79220 0.89728 0.00917 0.02300
C 	C 	0.75873 0.89677 0.00733 0.00300
C 	C 	0.73990 0.92639 0.03245 -0.10100
C 	C 	0.75478 0.95574 0.06247 0.09200
C 	C 	0.78819 0.95659 0.06334 -0.07800
H 	H 	0.74736 0.87373 0.98532 0.04900
H 	H 	0.79957 0.97968 0.08521 0.06300
I 	I 	0.81972 0.85101 0.97271 -0.11200
I 	I 	0.72758 0.99788 0.10988 -0.15100
C 	C 	0.60586 0.97664 0.76599 -0.07000
C 	C 	0.58571 0.94814 0.74796 0.03800
C 	C 	0.58645 0.91352 0.77822 -0.06900
C 	C 	0.60470 0.90887 0.82955 0.02600
C 	C 	0.62200 0.93900 0.85117 -0.10000
C 	C 	0.62381 0.97216 0.81761 0.02600
H 	H 	0.60576 0.00332 0.74246 0.05100
H 	H 	0.57127 0.89116 0.76421 0.05300
H 	H 	0.60357 0.88288 0.85464 0.04000
H 	H 	0.63767 0.99530 0.83328 0.02300
C 	C 	0.60286 0.97765 0.26669 -0.06800
C 	C 	0.57936 0.95264 0.28340 0.03600
C 	C 	0.57602 0.91906 0.25172 -0.06800
C 	C 	0.59417 0.91200 0.20086 0.02200
C 	C 	0.61558 0.93877 0.18083 -0.09700
C 	C 	0.62099 0.97072 0.21573 0.01800
H 	H 	0.60584 0.00349 0.29134 0.05000
H 	H 	0.55821 0.89935 0.26482 0.05300
H 	H 	0.59056 0.88650 0.17575 0.04600
H 	H 	0.63817 0.99105 0.20208 0.03500
C 	C 	0.18757 0.07441 0.02881 0.01300
C 	C 	0.20343 0.10346 0.99982 0.02000
C 	C 	0.23694 0.10342 0.00052 0.00500
C 	C 	0.25476 0.07509 0.03095 -0.10100
C 	C 	0.23875 0.04763 0.06335 0.09300
C 	C 	0.20535 0.04703 0.06121 -0.07900
H 	H 	0.24914 0.12512 0.97671 0.05200
H 	H 	0.19314 0.02531 0.08497 0.06300
I 	I 	0.17746 0.14848 0.95667 -0.10400
I 	I 	0.26407 0.00862 0.11961 -0.15200
C 	C 	0.38585 0.07348 0.82665 0.02600
C 	C 	0.37393 0.04454 0.86166 -0.09900
C 	C 	0.37573 0.00709 0.84105 0.02500
C 	C 	0.39188 0.99819 0.78862 -0.07000
C 	C 	0.40643 0.02659 0.75647 0.03700
C 	C 	0.40213 0.06452 0.77424 -0.06800
H 	H 	0.38424 0.10258 0.84174 0.04100
H 	H 	0.36590 0.98465 0.86701 0.02300
H 	H 	0.39479 0.96889 0.77489 0.05000
H 	H 	0.41315 0.08672 0.74954 0.05400
C 	C 	0.39181 0.04765 0.27935 -0.07000
C 	C 	0.41474 0.07459 0.29015 0.03600
C 	C 	0.41629 0.10618 0.25311 -0.07000
C 	C 	0.39747 0.10881 0.20228 0.02300
C 	C 	0.37715 0.07957 0.18779 -0.09900
C 	C 	0.37301 0.05014 0.22845 0.01800
H 	H 	0.39009 0.02341 0.30822 0.05000
H 	H 	0.43352 0.12750 0.26172 0.05200
H 	H 	0.39991 0.13259 0.17277 0.04100
H 	H 	0.35655 0.02811 0.21918 0.03300
C 	C 	0.39479 0.20486 0.97337 -0.08300
C 	C 	0.37892 0.23554 0.94427 0.08200
C 	C 	0.39216 0.27121 0.94488 -0.07300
C 	C 	0.42150 0.27645 0.97305 0.00800
C 	C 	0.43826 0.24532 0.99914 0.02600
C 	C 	0.42476 0.20980 0.99953 -0.01000
H 	H 	0.37955 0.29495 0.92366 0.06200
H 	H 	0.43735 0.18614 0.02102 0.05400
I 	I 	0.33618 0.22843 0.89556 -0.09800
I 	I 	0.48430 0.25089 0.03697 -0.11500
C 	C 	0.22438 0.56224 0.97072 -0.08100
C 	C 	0.24489 0.59030 0.95109 0.08200
C 	C 	0.27815 0.58338 0.95285 -0.07300
C 	C 	0.29118 0.54839 0.97250 0.00800
C 	C 	0.27067 0.51999 0.99050 0.02600
C 	C 	0.23748 0.52715 0.98996 -0.01000
H 	H 	0.29387 0.60498 0.93788 0.06100
H 	H 	0.22182 0.50539 0.00460 0.05600
I 	I 	0.22655 0.64198 0.91362 -0.09900
I 	I 	0.28909 0.46555 0.01683 -0.10700
C 	C 	0.70019 0.45767 0.98838 0.01100
C 	C 	0.71716 0.42517 0.00974 0.02300
C 	C 	0.75072 0.42382 0.01017 0.00300
C 	C 	0.76753 0.45454 0.98909 -0.10100
C 	C 	0.75052 0.48637 0.96549 0.09200
C 	C 	0.71702 0.48791 0.96581 -0.07800
H 	H 	0.76374 0.39900 0.02732 0.05000
H 	H 	0.70401 0.51271 0.94857 0.06400
I 	I 	0.69280 0.37745 0.04017 -0.10700
I 	I 	0.77463 0.53158 0.92589 -0.14900
C 	C 	0.59924 0.79396 0.99539 -0.08400
C 	C 	0.56875 0.78843 0.02000 0.08300
C 	C 	0.55548 0.75284 0.01633 -0.07400
C 	C 	0.57283 0.72222 0.99067 0.00700
C 	C 	0.60373 0.72745 0.96789 0.02600
C 	C 	0.61654 0.76333 0.96964 -0.00900
H 	H 	0.53204 0.74868 0.03511 0.06000
H 	H 	0.64016 0.76730 0.95152 0.05400
I 	I 	0.54372 0.83174 0.06889 -0.11500
I 	I 	0.63243 0.68131 0.93381 -0.11100
