data_crystal

_cell_length_a 26.03710
_cell_length_b 26.45109
_cell_length_c 34.94957
_cell_angle_alpha 95.49719
_cell_angle_beta  95.49418
_cell_angle_gamma 125.83134

_symmetry_space_group_name_	'P 1'
_symmetry_space_group_name_H-M	'P 1'

loop_
_symmetry_equiv_pos_as_xyz
  x,y,z

loop_
_atom_site_label
_atom_site_type_symbol
_atom_site_fract_x
_atom_site_fract_y
_atom_site_fract_z
_atom_site_charge
C 	C 	0.94997 0.00373 0.00827 0.15900
N 	N 	0.01442 0.03885 0.00841 -0.10200
C 	C 	0.04393 0.01020 0.00699 0.19000
N 	N 	0.00881 0.94647 0.00466 -0.08900
C 	C 	0.94442 0.91124 0.00380 0.19000
N 	N 	0.91509 0.93988 0.00572 -0.12300
C 	C 	0.94728 0.01599 0.45818 0.17000
N 	N 	0.01249 0.05722 0.46326 -0.09200
C 	C 	0.04861 0.03564 0.46525 0.19100
N 	N 	0.01941 0.97265 0.46284 -0.09600
C 	C 	0.95416 0.93093 0.45763 0.18400
N 	N 	0.91792 0.95268 0.45547 -0.11900
Cu	Cu	0.62251 0.22010 0.00023 0.93300
Cu	Cu	0.67870 0.22199 0.92013 0.89600
Cu	Cu	0.65349 0.31367 0.94493 0.90300
Cu	Cu	0.62013 0.33690 0.02040 0.90500
C 	C 	0.64076 0.27463 0.08010 0.29000
O 	O 	0.52754 0.18117 0.99819 -0.32300
C 	C 	0.64581 0.27118 0.86168 0.28800
O 	O 	0.67279 0.31813 0.00013 -0.63900
O 	O 	0.61404 0.22183 0.94344 -0.63400
O 	O 	0.66498 0.17706 0.00184 -0.35300
O 	O 	0.73652 0.24363 0.96645 -0.39800
O 	O 	0.60935 0.29661 0.06732 -0.36600
O 	O 	0.69821 0.40424 0.94934 -0.37200
C 	C 	0.69318 0.44057 0.97497 0.34600
C 	C 	0.50204 0.20696 0.98265 0.33700
O 	O 	0.54006 0.26415 0.97496 -0.38400
O 	O 	0.65501 0.41738 0.00088 -0.35000
O 	O 	0.64395 0.23498 0.05628 -0.34600
C 	C 	0.71944 0.20177 0.98915 0.33800
O 	O 	0.64245 0.30859 0.88766 -0.35700
O 	O 	0.64110 0.22149 0.87051 -0.38800
H 	H 	0.71919 0.34754 0.01210 0.17700
H 	H 	0.56981 0.19255 0.92774 0.20000
Cu	Cu	0.73731 0.34875 0.45058 0.92900
Cu	Cu	0.75644 0.31414 0.53605 0.88900
Cu	Cu	0.65008 0.33811 0.50685 0.92000
Cu	Cu	0.63117 0.37034 0.42973 0.90400
C 	C 	0.68319 0.33249 0.37011 0.29200
O 	O 	0.78853 0.44356 0.44950 -0.34900
C 	C 	0.67163 0.31594 0.58152 0.29000
O 	O 	0.64116 0.31379 0.45177 -0.63700
O 	O 	0.73996 0.36511 0.50775 -0.62700
O 	O 	0.76165 0.28889 0.44770 -0.32800
O 	O 	0.82082 0.32504 0.50941 -0.40700
O 	O 	0.66739 0.36985 0.38196 -0.36800
O 	O 	0.56112 0.30544 0.50458 -0.33700
C 	C 	0.52591 0.30711 0.47564 0.34200
C 	C 	0.77017 0.47725 0.46408 0.34000
O 	O 	0.71245 0.44823 0.47272 -0.37100
O 	O 	0.55274 0.34642 0.45099 -0.36800
O 	O 	0.71787 0.32349 0.39464 -0.33900
C 	C 	0.80398 0.29240 0.47401 0.33400
O 	O 	0.66056 0.35053 0.56317 -0.34400
O 	O 	0.68289 0.27944 0.56193 -0.40700
H 	H 	0.60668 0.26824 0.44108 0.18000
H 	H 	0.77217 0.41053 0.51977 0.18600
C 	C 	0.61525 0.30843 0.76387 -0.05000
C 	C 	0.65003 0.29503 0.74224 0.02900
C 	C 	0.68508 0.27615 0.76035 -0.05200
C 	C 	0.68413 0.26912 0.79941 0.01900
C 	C 	0.64846 0.28131 0.82094 -0.07000
C 	C 	0.61459 0.30175 0.80315 0.02400
C 	C 	0.64852 0.29903 0.70034 0.02900
H 	H 	0.71273 0.26650 0.74405 0.06100
H 	H 	0.71119 0.25421 0.81298 0.04500
H 	H 	0.58683 0.31125 0.81942 0.06000
H 	H 	0.58808 0.32310 0.75015 0.07100
C 	C 	0.62558 0.24515 0.67233 -0.05100
C 	C 	0.63168 0.25036 0.63335 0.02200
C 	C 	0.66030 0.30944 0.62188 -0.07200
C 	C 	0.68056 0.36278 0.64953 0.02300
C 	C 	0.67490 0.35764 0.68865 -0.05000
H 	H 	0.60435 0.19953 0.68097 0.06500
H 	H 	0.61468 0.20858 0.61215 0.05400
H 	H 	0.70243 0.40855 0.64099 0.05900
H 	H 	0.69267 0.39950 0.71003 0.06800
C 	C 	0.64809 0.23321 0.17992 -0.05100
C 	C 	0.67061 0.29030 0.20423 0.02900
C 	C 	0.68959 0.34377 0.18782 -0.05200
C 	C 	0.68315 0.33945 0.14726 0.02100
C 	C 	0.65758 0.28156 0.12270 -0.07100
C 	C 	0.64169 0.22884 0.13926 0.02500
C 	C 	0.66974 0.29297 0.24642 0.02900
H 	H 	0.70768 0.38822 0.20645 0.06700
H 	H 	0.69636 0.38065 0.13486 0.04200
H 	H 	0.62199 0.18389 0.12066 0.06100
H 	H 	0.63373 0.19179 0.19240 0.06900
C 	C 	0.62068 0.29125 0.26126 -0.05000
C 	C 	0.62377 0.30160 0.30166 0.02100
C 	C 	0.67611 0.31397 0.32763 -0.06700
C 	C 	0.72381 0.31291 0.31266 0.02500
C 	C 	0.72060 0.30252 0.27220 -0.05100
H 	H 	0.58097 0.28341 0.24150 0.06800
H 	H 	0.58612 0.30121 0.31278 0.04600
H 	H 	0.76441 0.32221 0.33230 0.06100
H 	H 	0.75858 0.30371 0.26094 0.06700
C 	C 	0.92602 0.77289 0.43560 -0.11700
C 	C 	0.87561 0.73570 0.45548 0.00700
C 	C 	0.84746 0.76133 0.47348 0.30700
C 	C 	0.87139 0.82440 0.47284 -0.08200
C 	C 	0.92308 0.86217 0.45385 -0.07000
C 	C 	0.94898 0.83535 0.43422 0.35000
C 	C 	0.85270 0.67006 0.45760 0.02200
F 	F 	0.79724 0.72527 0.49173 -0.40900
H 	H 	0.85077 0.84430 0.48790 0.11400
F 	F 	0.99653 0.86991 0.41385 -0.40600
H 	H 	0.94765 0.75344 0.42135 0.13600
C 	C 	0.82762 0.62449 0.42317 0.28800
C 	C 	0.80555 0.56243 0.42534 -0.05400
C 	C 	0.80694 0.54488 0.46184 -0.14300
C 	C 	0.83348 0.59072 0.49621 0.37600
C 	C 	0.85688 0.65320 0.49406 -0.13500
F 	F 	0.82279 0.63983 0.38770 -0.41000
H 	H 	0.78451 0.52719 0.39869 0.09400
F 	F 	0.83517 0.57437 0.53171 -0.43700
H 	H 	0.87735 0.68827 0.52073 0.13600
C 	C 	0.79118 0.14420 0.44048 -0.14400
C 	C 	0.85086 0.16182 0.45935 0.02100
C 	C 	0.89664 0.22361 0.48095 0.29800
C 	C 	0.88215 0.26695 0.48440 -0.05700
C 	C 	0.82177 0.24899 0.46634 -0.14300
C 	C 	0.77645 0.18735 0.44397 0.37000
C 	C 	0.86564 0.11569 0.45625 0.00600
F 	F 	0.95501 0.24149 0.49880 -0.40500
H 	H 	0.91758 0.31426 0.50150 0.10200
F 	F 	0.71730 0.16843 0.42688 -0.43600
H 	H 	0.75581 0.09672 0.42356 0.12500
C 	C 	0.86076 0.08356 0.48707 0.31700
C 	C 	0.88217 0.04575 0.48604 -0.08700
C 	C 	0.90891 0.04012 0.45438 -0.06700
C 	C 	0.90987 0.06900 0.42245 0.35300
C 	C 	0.88828 0.10659 0.42341 -0.12300
F 	F 	0.83746 0.09080 0.51860 -0.41300
H 	H 	0.88106 0.02353 0.51075 0.10700
F 	F 	0.93463 0.06307 0.39132 -0.40100
H 	H 	0.89121 0.13040 0.39924 0.12600
C 	C 	0.36709 0.24013 0.50823 -0.13500
C 	C 	0.32327 0.20050 0.47346 0.02400
C 	C 	0.34628 0.19796 0.43912 0.29200
C 	C 	0.41260 0.23415 0.43977 -0.05200
C 	C 	0.45643 0.27245 0.47476 -0.13900
C 	C 	0.43345 0.27583 0.50898 0.38100
C 	C 	0.25338 0.16061 0.47322 0.00700
F 	F 	0.30435 0.15940 0.40537 -0.40300
H 	H 	0.42996 0.23134 0.41326 0.09100
F 	F 	0.47536 0.31413 0.54280 -0.42000
H 	H 	0.34967 0.24289 0.53472 0.13700
C 	C 	0.22581 0.11039 0.49393 0.31100
C 	C 	0.15912 0.07062 0.49201 -0.08000
C 	C 	0.11925 0.08023 0.46908 -0.06400
C 	C 	0.14706 0.13104 0.44868 0.35500
C 	C 	0.21386 0.17126 0.45107 -0.11300
F 	F 	0.26356 0.09939 0.51527 -0.41200
H 	H 	0.13834 0.03201 0.50811 0.11600
F 	F 	0.10926 0.14011 0.42550 -0.38900
H 	H 	0.23487 0.21004 0.43509 0.13800
C 	C 	0.88727 0.74665 0.01541 -0.11800
C 	C 	0.83583 0.70932 0.98348 0.00800
C 	C 	0.81943 0.73850 0.95869 0.30900
C 	C 	0.85411 0.80447 0.96593 -0.08200
C 	C 	0.90587 0.84182 0.99768 -0.07200
C 	C 	0.92239 0.81266 0.02241 0.35300
C 	C 	0.79734 0.63962 0.97724 0.02400
F 	F 	0.77016 0.70290 0.92748 -0.40700
H 	H 	0.84146 0.82669 0.94651 0.11200
F 	F 	0.97192 0.84828 0.05348 -0.39700
H 	H 	0.89968 0.72440 0.03495 0.13300
C 	C 	0.82569 0.60935 0.96824 0.28900
C 	C 	0.79072 0.54381 0.96605 -0.05300
C 	C 	0.72716 0.50802 0.97269 -0.14100
C 	C 	0.69780 0.53797 0.97967 0.37900
C 	C 	0.73300 0.60353 0.98227 -0.13700
F 	F 	0.88742 0.64364 0.96227 -0.40900
H 	H 	0.81361 0.52112 0.96028 0.09500
F 	F 	0.63520 0.50354 0.98395 -0.41900
H 	H 	0.71061 0.62649 0.98879 0.14100
C 	C 	0.91317 0.12100 0.03161 -0.11200
C 	C 	0.85242 0.08965 0.00765 0.00500
C 	C 	0.82351 0.02985 0.98445 0.30400
C 	C 	0.85571 0.00230 0.98452 -0.10900
C 	C 	0.91695 0.03390 0.00804 -0.05900
C 	C 	0.94532 0.09323 0.03197 0.32800
C 	C 	0.82162 0.12169 0.00421 0.02000
F 	F 	0.76451 0.99888 0.96139 -0.39400
H 	H 	0.83333 0.95658 0.96598 0.12900
F 	F 	0.00342 0.12347 0.05594 -0.38900
H 	H 	0.93576 0.16718 0.04960 0.12600
C 	C 	0.79107 0.12621 0.03395 0.29200
C 	C 	0.75802 0.15273 0.02914 -0.05000
C 	C 	0.75521 0.17480 0.99457 -0.14700
C 	C 	0.78627 0.17047 0.96495 0.37300
C 	C 	0.81965 0.14456 0.96999 -0.13900
F 	F 	0.79254 0.10403 0.06717 -0.40800
H 	H 	0.73463 0.15609 0.05224 0.10200
F 	F 	0.78231 0.18942 0.93073 -0.46300
H 	H 	0.84295 0.14099 0.94690 0.12700
C 	C 	0.21687 0.06904 0.02643 -0.12700
C 	C 	0.23969 0.10082 0.99521 0.00800
C 	C 	0.19953 0.10735 0.96982 0.32300
C 	C 	0.13652 0.08094 0.97517 -0.08100
C 	C 	0.11297 0.04723 0.00560 -0.06500
C 	C 	0.15380 0.04231 0.03164 0.35500
C 	C 	0.30595 0.12796 0.98954 0.02200
F 	F 	0.22113 0.13808 0.93951 -0.39700
H 	H 	0.10526 0.08467 0.95483 0.11800
F 	F 	0.13198 0.01084 0.06164 -0.39500
H 	H 	0.24792 0.06468 0.04649 0.12600
C 	C 	0.35330 0.19397 0.99741 0.30400
C 	C 	0.41684 0.21954 0.99412 -0.05300
C 	C 	0.43392 0.17942 0.98323 -0.14000
C 	C 	0.38627 0.11331 0.97473 0.37700
C 	C 	0.32253 0.08776 0.97788 -0.14600
F 	F 	0.33800 0.23328 0.00918 -0.39300
H 	H 	0.45322 0.27056 0.00105 0.09700
F 	F 	0.40159 0.07392 0.96324 -0.42900
H 	H 	0.28610 0.03673 0.97157 0.12800
