data_crystal

_cell_length_a 13.77845
_cell_length_b 13.61649
_cell_length_c 33.94056
_cell_angle_alpha 91.06115
_cell_angle_beta  91.15920
_cell_angle_gamma 113.08756

_symmetry_space_group_name_	'P 1'
_symmetry_space_group_name_H-M	'P 1'

loop_
_symmetry_equiv_pos_as_xyz
  x,y,z

loop_
_atom_site_label
_atom_site_type_symbol
_atom_site_fract_x
_atom_site_fract_y
_atom_site_fract_z
_atom_site_charge
O 	O 	0.46445 0.22845 0.88683 -0.39200
C 	C 	0.44754 0.15293 0.85920 0.31900
O 	O 	0.52542 0.14022 0.84083 -0.41700
O 	O 	0.40001 0.07806 0.62367 -0.40200
O 	O 	0.47596 0.40095 0.62101 -0.40900
Ni	Ni	0.44834 0.24027 0.62389 1.07300
O 	O 	0.45634 0.25459 0.68325 -0.41900
C 	C 	0.45305 0.17406 0.70410 0.31400
C 	C 	0.46063 0.03133 0.60979 0.29600
C 	C 	0.06720 0.97001 0.73696 -0.06800
H 	H 	0.07154 0.97364 0.70431 0.03600
C 	C 	0.05769 0.96102 0.81549 -0.06900
H 	H 	0.05389 0.95682 0.84815 0.03700
C 	C 	0.00690 0.03206 0.75605 -0.00200
C 	C 	0.01212 0.85772 0.75308 -0.02000
C 	C 	0.17461 0.01352 0.75929 0.01100
C 	C 	0.00260 0.02778 0.79641 0.00200
C 	C 	0.00783 0.85282 0.79316 -0.02100
C 	C 	0.16926 0.00925 0.79936 0.01000
Ni	Ni	0.26801 0.66995 0.41101 1.09900
O 	O 	0.37289 0.81807 0.43044 -0.69300
Ni	Ni	0.33398 0.91420 0.39431 1.09400
O 	O 	0.32567 0.59177 0.44987 -0.36800
O 	O 	0.49576 0.68499 0.43266 -0.41000
O 	O 	0.17823 0.68795 0.45516 -0.40700
Ni	Ni	0.52284 0.84541 0.42912 1.06600
O 	O 	0.06569 0.58262 0.34529 -0.41700
O 	O 	0.51529 0.82917 0.36954 -0.42600
O 	O 	0.43298 0.05645 0.41902 -0.35400
O 	O 	0.24050 0.76494 0.37224 -0.70200
O 	O 	0.15181 0.52481 0.39361 -0.38700
O 	O 	0.25374 0.98887 0.36324 -0.38900
O 	O 	0.10145 0.87563 0.38940 -0.43400
Ni	Ni	0.08683 0.72464 0.37106 1.07100
H 	H 	0.35700 0.83172 0.45778 0.15100
H 	H 	0.26393 0.75212 0.34596 0.15800
C 	C 	0.51822 0.90882 0.34826 0.33200
O 	O 	0.02194 0.65375 0.42301 -0.40200
C 	C 	0.42731 0.62353 0.45722 0.29300
C 	C 	0.51005 0.05440 0.44200 0.28500
C 	C 	0.07577 0.64164 0.45370 0.31800
C 	C 	0.15114 0.95672 0.36704 0.31500
C 	C 	0.08949 0.50711 0.36165 0.30700
O 	O 	0.43982 0.94167 0.34879 -0.38000
Ni	Ni	0.36651 0.76398 0.14325 1.09700
O 	O 	0.22225 0.65402 0.12421 -0.69200
Ni	Ni	0.12485 0.69556 0.15821 1.09800
O 	O 	0.44667 0.70403 0.10638 -0.37800
O 	O 	0.35928 0.53305 0.12614 -0.41000
O 	O 	0.34789 0.84773 0.09687 -0.39100
Ni	Ni	0.19967 0.50387 0.12870 1.07300
O 	O 	0.45126 0.98160 0.20452 -0.42700
O 	O 	0.21431 0.52049 0.18822 -0.41800
O 	O 	0.27078 0.79521 0.18020 -0.70400
O 	O 	0.50763 0.88515 0.15984 -0.40500
O 	O 	0.04706 0.77675 0.18717 -0.37400
O 	O 	0.15728 0.93213 0.16087 -0.42800
Ni	Ni	0.30838 0.95036 0.17854 1.06400
H 	H 	0.20877 0.66660 0.09641 0.15700
H 	H 	0.28329 0.77513 0.20713 0.15600
C 	C 	0.13353 0.51729 0.20825 0.31400
O 	O 	0.37511 0.00876 0.12523 -0.34800
C 	C 	0.42126 0.60107 0.10136 0.29100
C 	C 	0.39193 0.95131 0.09653 0.23400
C 	C 	0.07781 0.88070 0.18345 0.27900
C 	C 	0.52362 0.94867 0.19140 0.33400
O 	O 	0.09924 0.59496 0.20570 -0.37000
O 	O 	0.03916 0.45173 0.12936 -0.40900
C 	C 	0.01955 0.33442 0.24117 0.04600
C 	C 	0.07009 0.41902 0.22659 -0.10600
C 	C 	0.03847 0.94077 0.20955 -0.10500
C 	C 	0.00769 0.99396 0.23098 -0.01400
C 	C 	0.04432 0.40228 0.34411 -0.10600
C 	C 	0.00436 0.31899 0.32589 0.05100
C 	C 	0.03529 0.02000 0.31896 0.11400
C 	C 	0.09059 0.99270 0.34035 -0.19100
C 	C 	0.47147 0.02615 0.56661 -0.13100
C 	C 	0.38264 0.00003 0.54078 0.12400
C 	C 	0.39753 0.02259 0.50067 -0.06200
C 	C 	0.49922 0.06041 0.48515 -0.11700
H 	H 	0.32911 0.00304 0.48102 0.03800
N 	N 	0.28319 0.94859 0.55390 -0.22000
H 	H 	0.27011 0.91623 0.58191 0.08600
H 	H 	0.21770 0.93483 0.53519 0.07100
C 	C 	0.00964 0.60511 0.56149 0.09500
C 	C 	0.04295 0.65303 0.52504 -0.03100
C 	C 	0.02039 0.59166 0.48976 -0.10900
H 	H 	0.08927 0.73826 0.52430 0.04000
N 	N 	0.03496 0.66695 0.59511 -0.19800
H 	H 	0.01739 0.63375 0.62281 0.09900
H 	H 	0.07569 0.74968 0.59384 0.08200
C 	C 	0.45661 0.48041 0.49200 -0.03400
C 	C 	0.46405 0.58589 0.49210 -0.09800
C 	C 	0.49360 0.64963 0.52719 0.09500
C 	C 	0.51421 0.60569 0.56173 -0.03300
C 	C 	0.50684 0.50023 0.56162 -0.10000
C 	C 	0.47715 0.43645 0.52653 0.09800
N 	N 	0.46834 0.33324 0.52583 -0.19300
H 	H 	0.43266 0.43167 0.46509 0.05200
N 	N 	0.50220 0.75278 0.52791 -0.19300
H 	H 	0.44874 0.28770 0.49953 0.08800
H 	H 	0.47899 0.29653 0.55133 0.02900
H 	H 	0.49118 0.78938 0.50243 0.02400
H 	H 	0.52185 0.79834 0.55421 0.07900
C 	C 	0.35716 0.11364 0.72401 -0.10300
C 	C 	0.27396 0.06663 0.73963 0.05300
C 	C 	0.06501 0.50476 0.04761 -0.04300
C 	C 	0.07634 0.53687 0.00837 0.08200
N 	N 	0.16562 0.54759 0.98929 -0.19200
H 	H 	0.12510 0.48323 0.06156 -0.02900
H 	H 	0.22384 0.52838 0.00320 0.07600
H 	H 	0.18085 0.58101 0.96149 0.09800
C 	C 	0.50730 0.07371 0.98311 -0.11700
C 	C 	0.43282 0.10487 0.00238 0.12800
C 	C 	0.40306 0.07149 0.04087 -0.07900
C 	C 	0.44154 0.00288 0.05975 0.00200
C 	C 	0.51518 0.97077 0.04029 0.01400
H 	H 	0.34547 0.09471 0.05531 0.06300
N 	N 	0.38683 0.16346 0.98355 -0.20000
H 	H 	0.39408 0.17503 0.95335 0.10800
H 	H 	0.33737 0.19205 0.99862 0.09500
C 	C 	0.39107 0.48448 0.04204 -0.04200
C 	C 	0.46262 0.56232 0.06761 -0.10700
C 	C 	0.52366 0.52797 0.99168 -0.08800
C 	C 	0.41870 0.47108 0.00339 0.09600
N 	N 	0.34307 0.40824 0.97708 -0.19500
H 	H 	0.31069 0.44094 0.05104 0.01500
H 	H 	0.26766 0.36082 0.98647 0.08400
H 	H 	0.35613 0.41143 0.94685 0.10100
C 	C 	0.26143 0.05854 0.82451 0.05800
C 	C 	0.34410 0.10156 0.84218 -0.10500
O 	O 	0.53204 0.39162 0.94762 -0.37300
O 	O 	0.53135 0.14107 0.70331 -0.36500
H 	H 	0.53819 0.65444 0.58863 0.04800
O 	O 	0.53751 0.02841 0.63267 -0.36600
C 	C 	0.54407 0.46275 0.59642 0.29300
C 	C 	0.54393 0.00322 0.00163 0.04600
C 	C 	0.56777 0.61851 0.05608 0.11400
C 	C 	0.56344 0.49385 0.95633 0.28600
H 	H 	0.55960 0.90652 0.08971 0.10300
C 	C 	0.56310 0.13175 0.94834 0.32300
N 	N 	0.56255 0.91363 0.05924 -0.18300
O 	O 	0.57066 0.00739 0.42836 -0.39000
Ni	Ni	0.85130 0.38886 0.89774 1.10200
O 	O 	0.70634 0.30348 0.87190 -0.70100
Ni	Ni	0.60947 0.33438 0.90856 1.09900
O 	O 	0.92573 0.30760 0.86694 -0.37200
O 	O 	0.80399 0.15003 0.88741 -0.41400
O 	O 	0.88969 0.50130 0.85390 -0.36900
Ni	Ni	0.65966 0.14751 0.86779 1.07300
O 	O 	0.94628 0.62618 0.93043 -0.40300
O 	O 	0.58096 0.07880 0.91837 -0.39100
O 	O 	0.75460 0.43008 0.93225 -0.69100
O 	O 	0.98914 0.48182 0.92602 -0.36800
O 	O 	0.63030 0.56539 0.93386 -0.41100
Ni	Ni	0.78683 0.58306 0.93062 1.07200
H 	H 	0.70050 0.33176 0.84569 0.15900
H 	H 	0.76262 0.41091 0.95975 0.16400
O 	O 	0.77158 0.57256 0.87123 -0.42700
C 	C 	0.88890 0.20261 0.86758 0.29300
C 	C 	0.85087 0.57539 0.85030 0.31700
C 	C 	0.98973 0.56507 0.94648 0.28600
O 	O 	0.61335 0.23464 0.95171 -0.40400
Ni	Ni	0.63719 0.16970 0.65773 1.10100
O 	O 	0.73090 0.31858 0.68015 -0.70200
Ni	Ni	0.70359 0.41432 0.64173 1.09800
O 	O 	0.71760 0.09410 0.68816 -0.37100
O 	O 	0.86940 0.20858 0.66214 -0.42000
Ni	Ni	0.88443 0.35900 0.68140 1.07200
O 	O 	0.94940 0.43188 0.62945 -0.39200
O 	O 	0.81969 0.55908 0.65968 -0.38800
O 	O 	0.59818 0.26678 0.62209 -0.69000
O 	O 	0.64581 0.49347 0.60331 -0.36900
H 	H 	0.70738 0.33093 0.70648 0.15700
H 	H 	0.61362 0.25364 0.59463 0.15800
C 	C 	0.89535 0.44320 0.59869 0.31200
C 	C 	0.82022 0.12679 0.68425 0.29800
C 	C 	0.88081 0.57593 0.69194 0.31000
O 	O 	0.79290 0.39682 0.59733 -0.40300
O 	O 	0.90629 0.50067 0.70764 -0.41700
O 	O 	0.98644 0.58974 0.13371 -0.37000
C 	C 	0.99037 0.50818 0.11335 0.30000
C 	C 	0.91363 0.12653 0.23688 -0.04100
H 	H 	0.91750 0.13250 0.20427 0.05400
C 	C 	0.90366 0.11318 0.31532 -0.01300
H 	H 	0.89916 0.10774 0.34794 0.04400
C 	C 	0.97023 0.06009 0.25532 0.04200
C 	C 	0.96187 0.23394 0.26001 0.00200
C 	C 	0.80188 0.07537 0.25293 -0.01600
C 	C 	0.96554 0.05371 0.29563 -0.04100
C 	C 	0.95717 0.22658 0.30003 -0.00900
C 	C 	0.79646 0.06907 0.29293 -0.02600
C 	C 	0.62625 0.99294 0.20971 -0.17100
C 	C 	0.70906 0.03109 0.22770 0.11900
C 	C 	0.61396 0.96882 0.32820 -0.17200
C 	C 	0.69707 0.01576 0.31252 0.11600
C 	C 	0.57317 0.06413 0.55110 -0.04900
C 	C 	0.58804 0.08667 0.51100 0.09500
N 	N 	0.68748 0.13803 0.49786 -0.20200
H 	H 	0.64158 0.08366 0.57075 0.02700
H 	H 	0.75298 0.15178 0.51656 0.08300
H 	H 	0.70054 0.17029 0.46983 0.09600
C 	C 	0.92798 0.43197 0.52733 -0.04500
C 	C 	0.95050 0.49333 0.56261 -0.07900
C 	C 	0.96105 0.47993 0.49088 0.12500
N 	N 	0.93520 0.41820 0.45723 -0.20200
H 	H 	0.88175 0.34672 0.52807 0.04900
H 	H 	0.89470 0.33544 0.45849 0.09100
H 	H 	0.95181 0.45157 0.42952 0.10800
C 	C 	0.93698 0.06479 0.73239 0.06000
C 	C 	0.88130 0.09139 0.71092 -0.12300
C 	C 	0.92548 0.68042 0.70978 -0.11300
C 	C 	0.96507 0.76397 0.72786 0.06200
C 	C 	0.98210 0.50957 0.06995 -0.12300
C 	C 	0.90283 0.53544 0.05138 0.11200
C 	C 	0.91372 0.56671 0.01202 -0.06200
C 	C 	0.99716 0.56275 0.98981 -0.09900
H 	H 	0.85336 0.58766 0.99797 -0.02200
N 	N 	0.81399 0.52571 0.07060 -0.20200
H 	H 	0.79820 0.49127 0.09822 0.10400
H 	H 	0.75670 0.54700 0.05700 0.08100
H 	H 	0.60130 0.97978 0.98713 0.01300
H 	H 	0.60989 0.88279 0.04392 0.08400
C 	C 	0.59606 0.60392 0.01765 -0.05900
H 	H 	0.67676 0.64668 0.00885 0.01800
N 	N 	0.64262 0.68312 0.08227 -0.20000
H 	H 	0.62752 0.68430 0.11227 0.10000
H 	H 	0.71885 0.72847 0.07312 0.08100
C 	C 	0.93029 0.14454 0.84153 -0.11700
C 	C 	0.96287 0.09274 0.82023 0.05600
C 	C 	0.90829 0.67075 0.82942 -0.11700
C 	C 	0.95450 0.75350 0.81308 0.06200
