data_crystal

_cell_length_a 18.32005
_cell_length_b 15.57385
_cell_length_c 16.34509
_cell_angle_alpha 90.00000
_cell_angle_beta  90.00000
_cell_angle_gamma 90.03471

_symmetry_space_group_name_	'P 1'
_symmetry_space_group_name_H-M	'P 1'

loop_
_symmetry_equiv_pos_as_xyz
  x,y,z

loop_
_atom_site_label
_atom_site_type_symbol
_atom_site_fract_x
_atom_site_fract_y
_atom_site_fract_z
_atom_site_charge
Co	Co	0.94055 0.87484 0.02780 1.17800
Co	Co	0.11825 0.05627 0.99622 1.18000
Co	Co	0.11718 0.87124 0.00789 1.19900
Co	Co	0.94223 0.06061 0.01829 1.17400
C 	C 	0.81966 0.83394 0.15046 0.29700
Co	Co	0.78230 0.96926 0.02677 1.17600
Co	Co	0.27417 0.96330 0.97402 1.16400
C 	C 	0.82581 0.08921 0.89079 0.29800
O 	O 	0.25662 0.89466 0.86746 -0.37800
O 	O 	0.16269 0.96399 0.00417 -0.75600
C 	C 	0.21299 0.82766 0.86275 0.29300
O 	O 	0.02797 0.79651 0.02205 -0.41200
O 	O 	0.03153 0.13557 0.00421 -0.40500
C 	C 	0.21098 0.08955 0.85500 0.30300
O 	O 	0.03303 0.96791 0.04938 -0.53600
C 	C 	0.25392 0.81674 0.09635 0.30100
C 	C 	0.82281 0.82569 0.91100 0.30300
C 	C 	0.82251 0.12426 0.13144 0.30000
O 	O 	0.14538 0.83237 0.89078 -0.38800
O 	O 	0.77748 0.84888 0.96969 -0.39400
O 	O 	0.89309 0.84227 0.91757 -0.40800
O 	O 	0.26501 0.07700 0.90705 -0.39000
O 	O 	0.14413 0.06787 0.87523 -0.39400
O 	O 	0.29187 0.84613 0.03363 -0.37200
O 	O 	0.18221 0.82269 0.09901 -0.37200
O 	O 	0.77531 0.09219 0.07851 -0.38100
O 	O 	0.89351 0.11917 0.11799 -0.38600
O 	O 	0.89721 0.96859 0.03243 -0.77400
C 	C 	0.24912 0.09642 0.10606 0.29200
O 	O 	0.28935 0.03036 0.08250 -0.36500
O 	O 	0.19626 0.12786 0.05941 -0.35300
O 	O 	0.78795 0.90942 0.13963 -0.37300
O 	O 	0.88758 0.81951 0.12622 -0.38400
O 	O 	0.78097 0.02694 0.91222 -0.38500
O 	O 	0.89655 0.08257 0.90474 -0.40800
Co	Co	0.60541 0.56324 0.51660 1.19100
Co	Co	0.43180 0.37306 0.50838 1.19300
Co	Co	0.42968 0.55716 0.49485 1.19200
Co	Co	0.60827 0.37907 0.52620 1.19100
C 	C 	0.72586 0.62590 0.62959 0.29800
Co	Co	0.76581 0.47203 0.52465 1.16700
Co	Co	0.27426 0.46271 0.47380 1.17400
C 	C 	0.72249 0.33286 0.40665 0.30400
O 	O 	0.28283 0.57545 0.40500 -0.37600
O 	O 	0.38562 0.46427 0.50489 -0.77700
C 	C 	0.33698 0.58758 0.35303 0.30300
O 	O 	0.51638 0.63690 0.49887 -0.45100
O 	O 	0.52139 0.29940 0.52099 -0.44900
C 	C 	0.33675 0.32726 0.36368 0.29600
O 	O 	0.51512 0.47089 0.55097 -0.57000
C 	C 	0.29938 0.59770 0.60397 0.29300
C 	C 	0.71700 0.58900 0.38739 0.29900
C 	C 	0.73165 0.33442 0.64779 0.29400
O 	O 	0.40359 0.56532 0.37341 -0.39300
O 	O 	0.76770 0.53473 0.41174 -0.37600
O 	O 	0.64783 0.57255 0.40066 -0.39700
O 	O 	0.29165 0.39283 0.36808 -0.37300
O 	O 	0.40432 0.33451 0.39128 -0.38600
O 	O 	0.25849 0.53195 0.58086 -0.36600
O 	O 	0.35161 0.62905 0.55638 -0.36700
O 	O 	0.76367 0.40957 0.63616 -0.38000
O 	O 	0.66496 0.31770 0.61976 -0.36700
O 	O 	0.65092 0.47317 0.53609 -0.77000
C 	C 	0.29506 0.31780 0.59784 0.30100
O 	O 	0.25673 0.34655 0.53518 -0.37800
O 	O 	0.36693 0.32235 0.59920 -0.37800
O 	O 	0.77555 0.59113 0.58142 -0.38500
O 	O 	0.65784 0.63640 0.60428 -0.37000
O 	O 	0.76860 0.35273 0.46539 -0.39400
O 	O 	0.65337 0.35446 0.41328 -0.39400
C 	C 	0.32040 0.25968 0.30245 -0.05400
C 	C 	0.25743 0.20791 0.31172 0.00800
C 	C 	0.23604 0.15167 0.24856 0.00900
C 	C 	0.27568 0.14916 0.17489 -0.05100
C 	C 	0.33956 0.19898 0.16607 0.01000
C 	C 	0.36234 0.25361 0.22999 0.01200
C 	C 	0.21333 0.21410 0.38515 0.09500
C 	C 	0.38062 0.19598 0.09020 0.10300
C 	C 	0.42702 0.30635 0.21958 0.10700
C 	C 	0.17307 0.09623 0.25937 0.09200
N 	N 	0.47860 0.34840 0.21124 -0.09800
N 	N 	0.12287 0.05198 0.26789 -0.09900
N 	N 	0.41331 0.19356 0.02966 -0.09900
N 	N 	0.17740 0.21839 0.44323 -0.09400
C 	C 	0.22249 0.14631 0.78412 -0.06200
C 	C 	0.20639 0.23468 0.79041 0.01200
C 	C 	0.22469 0.29068 0.72587 0.00500
C 	C 	0.25978 0.25842 0.65557 -0.05700
C 	C 	0.27059 0.16924 0.64672 0.01000
C 	C 	0.25214 0.11320 0.71105 0.00900
C 	C 	0.17290 0.26821 0.86425 0.09200
C 	C 	0.30310 0.13554 0.57237 0.09700
C 	C 	0.26483 0.02178 0.70235 0.09000
C 	C 	0.20925 0.38173 0.73278 0.09500
N 	N 	0.27534 0.94899 0.69455 -0.09300
N 	N 	0.19679 0.45430 0.73866 -0.09700
N 	N 	0.32914 0.10868 0.51316 -0.10200
N 	N 	0.14623 0.29492 0.92316 -0.09600
C 	C 	0.32604 0.64464 0.28225 -0.06000
C 	C 	0.34149 0.73311 0.28923 0.01200
C 	C 	0.32391 0.78923 0.22455 0.00600
C 	C 	0.28941 0.75714 0.15378 -0.05600
C 	C 	0.27891 0.66788 0.14450 0.01200
C 	C 	0.29786 0.61157 0.20846 0.00900
C 	C 	0.37366 0.76660 0.36383 0.09300
C 	C 	0.24605 0.63441 0.07025 0.10300
C 	C 	0.28792 0.51978 0.19842 0.10000
C 	C 	0.33954 0.88022 0.23177 0.09500
N 	N 	0.27981 0.44665 0.18982 -0.09300
N 	N 	0.35219 0.95274 0.23795 -0.09600
N 	N 	0.21971 0.60771 0.01112 -0.09200
N 	N 	0.39929 0.79330 0.42335 -0.09600
C 	C 	0.74761 0.27985 0.33583 -0.06000
C 	C 	0.81146 0.30296 0.29252 0.00800
C 	C 	0.83426 0.25458 0.22404 0.00500
C 	C 	0.79529 0.17967 0.20036 -0.05500
C 	C 	0.73175 0.15600 0.24462 0.00500
C 	C 	0.70842 0.20555 0.31232 0.01100
C 	C 	0.85424 0.37665 0.31826 0.08900
C 	C 	0.69074 0.07998 0.22167 0.09800
C 	C 	0.64578 0.17774 0.35980 0.09700
C 	C 	0.89734 0.28311 0.17766 0.10000
N 	N 	0.59583 0.15544 0.39760 -0.09800
N 	N 	0.94786 0.30612 0.14119 -0.10900
N 	N 	0.65774 0.01949 0.20358 -0.11000
N 	N 	0.88884 0.43514 0.33842 -0.11600
C 	C 	0.75076 0.67706 0.70139 -0.05600
C 	C 	0.71687 0.66539 0.77814 0.00600
C 	C 	0.73829 0.71555 0.84611 0.00600
C 	C 	0.79515 0.77703 0.83803 -0.06100
C 	C 	0.82709 0.79077 0.76009 0.00600
C 	C 	0.80537 0.74059 0.69232 0.00600
C 	C 	0.66013 0.60101 0.78746 0.09500
C 	C 	0.87879 0.86037 0.74822 0.09700
C 	C 	0.83789 0.75633 0.61273 0.10000
C 	C 	0.70049 0.70480 0.92342 0.10100
N 	N 	0.86399 0.76897 0.54937 -0.10700
N 	N 	0.66982 0.69614 0.98479 -0.10600
N 	N 	0.91970 0.91613 0.73872 -0.11100
N 	N 	0.61492 0.54964 0.79484 -0.10400
C 	C 	0.80101 0.15225 0.82897 -0.06700
C 	C 	0.77507 0.12454 0.75196 0.00900
C 	C 	0.76321 0.18479 0.68931 0.00200
C 	C 	0.76390 0.27338 0.70719 -0.06200
C 	C 	0.78688 0.30153 0.78542 0.00300
C 	C 	0.80654 0.24090 0.84561 0.00200
C 	C 	0.75347 0.03599 0.73957 0.09600
C 	C 	0.78996 0.39246 0.80445 0.09700
C 	C 	0.82881 0.26979 0.92611 0.07600
C 	C 	0.75164 0.15571 0.60597 0.09200
N 	N 	0.84639 0.29318 0.99030 -0.11000
N 	N 	0.74248 0.13253 0.53948 -0.10200
N 	N 	0.79276 0.46489 0.81992 -0.10600
N 	N 	0.73516 0.96569 0.72933 -0.09900
C 	C 	0.23003 0.76199 0.80010 -0.05500
C 	C 	0.18991 0.75935 0.72622 0.01300
C 	C 	0.21163 0.70380 0.66268 0.01100
C 	C 	0.27347 0.65092 0.67261 -0.05400
C 	C 	0.31209 0.65136 0.74702 0.00700
C 	C 	0.29152 0.70810 0.81008 0.00500
C 	C 	0.12933 0.81778 0.71348 0.11100
C 	C 	0.37312 0.59326 0.75867 0.08500
C 	C 	0.33540 0.71322 0.88374 0.08600
C 	C 	0.17156 0.70278 0.58608 0.10500
N 	N 	0.37114 0.71671 0.94201 -0.10600
N 	N 	0.13966 0.70195 0.52497 -0.09300
N 	N 	0.42177 0.54688 0.76787 -0.10700
N 	N 	0.08117 0.86455 0.70314 -0.08500
C 	C 	0.78718 0.77278 0.20915 -0.06000
C 	C 	0.76796 0.79994 0.28884 0.00700
C 	C 	0.73931 0.74038 0.34510 0.00500
C 	C 	0.73580 0.65267 0.32445 -0.06500
C 	C 	0.75264 0.62583 0.24439 0.01200
C 	C 	0.78073 0.68515 0.18762 0.00400
C 	C 	0.78352 0.88702 0.31523 0.10200
C 	C 	0.73825 0.53802 0.21950 0.10200
C 	C 	0.80696 0.65524 0.10884 0.09700
C 	C 	0.71216 0.76958 0.42368 0.08400
N 	N 	0.82827 0.63118 0.04625 -0.10300
N 	N 	0.69032 0.79310 0.48622 -0.09900
N 	N 	0.72653 0.46809 0.19944 -0.09900
N 	N 	0.79612 0.95633 0.33656 -0.10200
