data_crystal

_cell_length_a 22.44892
_cell_length_b 22.81101
_cell_length_c 34.82812
_cell_angle_alpha 95.47630
_cell_angle_beta  95.47568
_cell_angle_gamma 126.02920

_symmetry_space_group_name_	'P 1'
_symmetry_space_group_name_H-M	'P 1'

loop_
_symmetry_equiv_pos_as_xyz
  x,y,z

loop_
_atom_site_label
_atom_site_type_symbol
_atom_site_fract_x
_atom_site_fract_y
_atom_site_fract_z
_atom_site_charge
C 	C 	0.95838 0.03975 0.99526 0.09900
N 	N 	0.91277 0.96550 0.99339 -0.13300
C 	C 	0.94239 0.92829 0.99677 0.10600
N 	N 	0.01779 0.96554 0.00208 -0.12800
C 	C 	0.06358 0.03950 0.00351 0.10900
N 	N 	0.03391 0.07668 0.00001 -0.13200
C 	C 	0.93403 0.99870 0.47715 0.11500
N 	N 	0.00909 0.03958 0.47792 -0.13500
C 	C 	0.04380 0.00692 0.47861 0.10900
N 	N 	0.00329 0.93327 0.47803 -0.12800
C 	C 	0.92819 0.89208 0.47691 0.10600
N 	N 	0.89379 0.92504 0.47667 -0.13900
Cu	Cu	0.61950 0.22934 0.00044 0.92700
Cu	Cu	0.66155 0.21651 0.91380 0.87000
Cu	Cu	0.66941 0.34605 0.94900 0.89700
Cu	Cu	0.64124 0.37691 0.02827 0.89300
C 	C 	0.65769 0.29184 0.08253 0.28200
O 	O 	0.51489 0.19734 0.00381 -0.36400
C 	C 	0.63173 0.29034 0.86298 0.28300
O 	O 	0.68999 0.34422 0.00319 -0.64200
O 	O 	0.60606 0.23634 0.94455 -0.64100
O 	O 	0.65350 0.16608 0.99538 -0.37500
O 	O 	0.73371 0.23184 0.95511 -0.44000
O 	O 	0.62898 0.32677 0.07411 -0.38300
O 	O 	0.73586 0.45257 0.95715 -0.38400
C 	C 	0.73549 0.49761 0.98384 0.28900
C 	C 	0.49076 0.23350 0.99077 0.28000
O 	O 	0.53902 0.30096 0.98504 -0.39100
O 	O 	0.69013 0.47281 0.00960 -0.39600
O 	O 	0.64939 0.24117 0.05574 -0.36200
C 	C 	0.71314 0.18692 0.98029 0.28400
O 	O 	0.66588 0.34769 0.89225 -0.38700
O 	O 	0.61506 0.22634 0.86867 -0.41900
H 	H 	0.74389 0.37161 0.01439 0.16300
H 	H 	0.55348 0.21098 0.93142 0.17100
Cu	Cu	0.74540 0.33525 0.45177 0.92800
Cu	Cu	0.73344 0.27073 0.53349 0.87000
Cu	Cu	0.61757 0.28450 0.49687 0.89700
Cu	Cu	0.60919 0.33582 0.42195 0.89300
C 	C 	0.70102 0.32394 0.36955 0.28200
O 	O 	0.79052 0.44348 0.45548 -0.36300
C 	C 	0.65806 0.30210 0.58290 0.28400
O 	O 	0.62812 0.27444 0.44337 -0.64100
O 	O 	0.72883 0.33838 0.50654 -0.64100
O 	O 	0.80042 0.29133 0.45527 -0.37200
O 	O 	0.71914 0.20627 0.48898 -0.44100
O 	O 	0.66935 0.35556 0.37954 -0.38300
O 	O 	0.50983 0.22781 0.48346 -0.38400
C 	C 	0.47295 0.24073 0.45809 0.28600
C 	C 	0.75711 0.47050 0.46929 0.28000
O 	O 	0.68558 0.42589 0.47091 -0.39100
O 	O 	0.50744 0.29022 0.43538 -0.39400
O 	O 	0.74140 0.31715 0.39635 -0.36000
C 	C 	0.77214 0.22922 0.46815 0.28400
O 	O 	0.60452 0.27583 0.55187 -0.38800
O 	O 	0.72116 0.31182 0.57960 -0.42000
H 	H 	0.59720 0.22284 0.42888 0.16400
H 	H 	0.75699 0.38846 0.52265 0.17100
C 	C 	0.62352 0.30153 0.82245 -0.07600
C 	C 	0.55868 0.24713 0.79486 0.00300
C 	C 	0.55530 0.25219 0.75513 -0.05400
C 	C 	0.61921 0.30939 0.74213 0.00400
C 	C 	0.68112 0.36848 0.77058 0.00700
C 	C 	0.68304 0.36396 0.81055 -0.01900
C 	C 	0.74102 0.43072 0.75880 -0.04200
C 	C 	0.74250 0.43316 0.71908 -0.04100
C 	C 	0.68591 0.37205 0.69034 0.00600
C 	C 	0.62348 0.30915 0.70148 0.00500
C 	C 	0.57093 0.24571 0.67223 -0.05400
C 	C 	0.57938 0.24600 0.63301 0.00300
C 	C 	0.64170 0.30773 0.62236 -0.07600
C 	C 	0.69371 0.37124 0.65079 -0.01700
H 	H 	0.51067 0.20097 0.80421 0.03000
H 	H 	0.50231 0.21363 0.73520 0.04100
H 	H 	0.73212 0.40746 0.83215 0.04100
H 	H 	0.78714 0.47718 0.78055 0.03700
H 	H 	0.78960 0.48169 0.71061 0.03600
H 	H 	0.52645 0.19460 0.67976 0.04000
H 	H 	0.53963 0.19632 0.61119 0.03000
H 	H 	0.74207 0.41889 0.64242 0.03500
C 	C 	0.68159 0.29581 0.12416 -0.07100
C 	C 	0.65647 0.23120 0.13874 0.00500
C 	C 	0.66941 0.23392 0.17918 -0.05300
C 	C 	0.70483 0.30127 0.20572 0.00600
C 	C 	0.73841 0.36735 0.19061 0.00800
C 	C 	0.72530 0.36407 0.14998 -0.01900
C 	C 	0.78422 0.43583 0.21621 -0.04100
C 	C 	0.79403 0.43948 0.25670 -0.04100
C 	C 	0.75454 0.37487 0.27241 0.00800
C 	C 	0.70837 0.30480 0.24706 0.00500
C 	C 	0.66180 0.24116 0.26331 -0.05100
C 	C 	0.66350 0.24726 0.30379 0.00000
C 	C 	0.70959 0.31648 0.32857 -0.06900
C 	C 	0.75649 0.37983 0.31304 -0.01500
H 	H 	0.62588 0.17860 0.11881 0.04000
H 	H 	0.65458 0.18448 0.18941 0.04200
H 	H 	0.74786 0.41442 0.13849 0.02900
H 	H 	0.81225 0.48655 0.20471 0.03700
H 	H 	0.82991 0.49303 0.27600 0.03900
H 	H 	0.62064 0.18779 0.24476 0.04100
H 	H 	0.62608 0.19830 0.31566 0.02500
H 	H 	0.79153 0.43346 0.33237 0.04300
C 	C 	0.88403 0.81164 0.47576 -0.00500
C 	C 	0.80726 0.76458 0.45889 -0.03100
C 	C 	0.76604 0.68830 0.45633 -0.03800
C 	C 	0.80114 0.65793 0.47020 -0.00200
C 	C 	0.87804 0.70487 0.48765 0.03200
C 	C 	0.91895 0.78157 0.49073 -0.05600
C 	C 	0.91338 0.67435 0.50096 -0.06700
C 	C 	0.87328 0.59777 0.49593 0.01100
C 	C 	0.79721 0.55089 0.47801 -0.08000
C 	C 	0.76087 0.58114 0.46588 -0.01100
H 	H 	0.77971 0.78695 0.44716 0.04400
H 	H 	0.70705 0.65278 0.44299 0.03800
H 	H 	0.97781 0.81766 0.50445 0.04900
H 	H 	0.97221 0.70984 0.51463 0.04400
H 	H 	0.90152 0.57482 0.50567 0.02700
H 	H 	0.70215 0.54495 0.45189 0.03300
C 	C 	0.89704 0.03472 0.47934 -0.01100
C 	C 	0.84370 0.01396 0.50357 -0.03800
C 	C 	0.80756 0.04697 0.50550 -0.03900
C 	C 	0.82422 0.10118 0.48319 -0.00500
C 	C 	0.87760 0.12221 0.45862 0.03000
C 	C 	0.91404 0.08899 0.45689 -0.05500
C 	C 	0.89387 0.17623 0.43618 -0.06800
C 	C 	0.85831 0.20995 0.43858 0.01000
C 	C 	0.80617 0.19023 0.46356 -0.08700
C 	C 	0.78863 0.13503 0.48545 -0.01600
H 	H 	0.83063 0.97253 0.52117 0.04700
H 	H 	0.76673 0.03048 0.52445 0.03200
H 	H 	0.95480 0.10468 0.43792 0.04600
H 	H 	0.93429 0.19240 0.41699 0.04500
H 	H 	0.87164 0.25166 0.42116 0.04000
H 	H 	0.74827 0.11926 0.50466 0.02800
C 	C 	0.12555 0.05157 0.48195 -0.00500
C 	C 	0.16887 0.05007 0.51310 -0.02900
C 	C 	0.24597 0.08828 0.51510 -0.04000
C 	C 	0.28049 0.12768 0.48565 0.00000
C 	C 	0.23719 0.12972 0.45432 0.03100
C 	C 	0.15989 0.09223 0.45286 -0.05400
C 	C 	0.27149 0.16810 0.42454 -0.06500
C 	C 	0.34808 0.20382 0.42566 0.00800
C 	C 	0.39165 0.20227 0.45682 -0.07500
C 	C 	0.35753 0.16432 0.48689 -0.01500
H 	H 	0.14263 0.01890 0.53570 0.04100
H 	H 	0.27866 0.08651 0.53932 0.03800
H 	H 	0.12625 0.09310 0.42872 0.04900
H 	H 	0.23879 0.16985 0.40032 0.04600
H 	H 	0.37342 0.23237 0.40216 0.03300
H 	H 	0.39078 0.16335 0.51119 0.04700
C 	C 	0.78124 0.57699 0.98230 -0.07800
C 	C 	0.84803 0.61041 0.96749 0.01000
C 	C 	0.89192 0.68573 0.96640 -0.06700
C 	C 	0.86975 0.72865 0.98028 0.03200
C 	C 	0.80241 0.69531 0.99500 -0.00100
C 	C 	0.75832 0.61958 0.99581 -0.01200
C 	C 	0.78039 0.73830 0.00901 -0.04000
C 	C 	0.82547 0.81406 0.00905 -0.03100
C 	C 	0.89295 0.84771 0.99488 -0.00400
C 	C 	0.91443 0.80458 0.98004 -0.05600
H 	H 	0.86640 0.57818 0.95718 0.03200
H 	H 	0.94346 0.71076 0.95503 0.04400
H 	H 	0.70627 0.59381 0.00677 0.04000
H 	H 	0.72874 0.71323 0.02027 0.03800
H 	H 	0.80853 0.84681 0.02073 0.04300
H 	H 	0.96587 0.83014 0.96848 0.04900
C 	C 	0.75475 0.15681 0.98998 -0.08300
C 	C 	0.72645 0.10014 0.01199 0.00800
C 	C 	0.76266 0.06796 0.01876 -0.06800
C 	C 	0.82759 0.09187 0.00359 0.03200
C 	C 	0.85762 0.15016 0.98240 -0.00500
C 	C 	0.82138 0.18271 0.97590 -0.01600
C 	C 	0.92269 0.17414 0.96728 -0.03500
C 	C 	0.95652 0.13920 0.97224 -0.04700
C 	C 	0.92586 0.08002 0.99247 0.00200
C 	C 	0.86208 0.05732 0.00871 -0.06000
H 	H 	0.67571 0.08015 0.02339 0.03800
H 	H 	0.73957 0.02374 0.03538 0.04400
H 	H 	0.84434 0.22728 0.95950 0.03400
H 	H 	0.94649 0.21913 0.95119 0.03200
H 	H 	0.00566 0.15712 0.95961 0.05200
H 	H 	0.83905 0.01249 0.02495 0.04800
C 	C 	0.41112 0.20235 0.98767 -0.07900
C 	C 	0.37603 0.21540 0.95777 0.00700
C 	C 	0.30136 0.18878 0.95585 -0.06600
C 	C 	0.26109 0.14911 0.98397 0.03100
C 	C 	0.29644 0.13638 0.01430 -0.00100
C 	C 	0.37117 0.16279 0.01588 -0.01500
C 	C 	0.25638 0.09695 0.04248 -0.04000
C 	C 	0.18115 0.06830 0.03991 -0.02900
C 	C 	0.14512 0.07899 0.00926 -0.00700
C 	C 	0.18556 0.12075 0.98177 -0.05300
H 	H 	0.40657 0.24601 0.93593 0.03000
H 	H 	0.27489 0.19893 0.93248 0.04500
H 	H 	0.39856 0.15359 0.03932 0.04400
H 	H 	0.28316 0.08752 0.06608 0.03900
H 	H 	0.15032 0.03650 0.06135 0.04200
H 	H 	0.15765 0.12889 0.95805 0.04800
