data_crystal

_cell_length_a 30.30351
_cell_length_b 27.89950
_cell_length_c 28.19372
_cell_angle_alpha 92.66886
_cell_angle_beta  85.31394
_cell_angle_gamma 124.23322

_symmetry_space_group_name_	'P 1'
_symmetry_space_group_name_H-M	'P 1'

loop_
_symmetry_equiv_pos_as_xyz
  x,y,z

loop_
_atom_site_label
_atom_site_type_symbol
_atom_site_fract_x
_atom_site_fract_y
_atom_site_fract_z
_atom_site_charge
C 	C 	0.04257 0.01385 0.00678 0.03400
C 	C 	0.04443 0.04959 0.97210 -0.03100
C 	C 	0.08863 0.04223 0.03338 -0.05900
S 	S 	0.10097 0.11508 0.97606 0.01200
H 	H 	0.02309 0.12308 0.92732 0.05400
C 	C 	0.12543 0.10037 0.02029 0.00500
H 	H 	0.09441 0.02150 0.06151 0.05600
C 	C 	0.29084 0.18219 0.04345 0.05000
C 	C 	0.25368 0.16932 0.08210 -0.03700
C 	C 	0.19989 0.14431 0.07435 -0.02800
C 	C 	0.18287 0.13202 0.02787 0.01900
C 	C 	0.22029 0.14564 0.98916 -0.02900
C 	C 	0.27404 0.17064 0.99695 -0.03600
H 	H 	0.26637 0.17811 0.11812 0.06000
H 	H 	0.17130 0.13371 0.10447 0.05000
H 	H 	0.20753 0.13544 0.95317 0.05300
H 	H 	0.30250 0.18029 0.96692 0.06400
H 	H 	0.80692 0.08535 0.89168 0.06700
C 	C 	0.81434 0.69911 0.04120 -0.03300
H 	H 	0.77275 0.67035 0.05380 0.06200
C 	C 	0.03376 0.00006 0.52872 0.03100
C 	C 	0.03797 0.03783 0.49490 -0.02600
C 	C 	0.07895 0.02566 0.55616 -0.05700
S 	S 	0.09569 0.10176 0.50015 0.01200
H 	H 	0.01965 0.11592 0.45452 0.05400
C 	C 	0.11807 0.08374 0.54395 0.00500
H 	H 	0.08331 0.00264 0.58331 0.05900
C 	C 	0.28491 0.16214 0.55786 0.04700
C 	C 	0.25304 0.10549 0.54027 -0.03400
C 	C 	0.19858 0.07985 0.53574 -0.02800
C 	C 	0.17544 0.11067 0.54887 0.01600
C 	C 	0.20738 0.16748 0.56621 -0.02700
C 	C 	0.26197 0.19313 0.57075 -0.03700
H 	H 	0.27061 0.08156 0.52970 0.06300
H 	H 	0.17448 0.03630 0.52156 0.05000
H 	H 	0.18996 0.19169 0.57620 0.05100
H 	H 	0.28645 0.23712 0.58397 0.06000
H 	H 	0.82743 0.11558 0.50927 0.06200
C 	C 	0.80603 0.68419 0.54859 -0.03400
H 	H 	0.76426 0.65415 0.56005 0.06200
Co	Co	0.71485 0.32111 0.97797 1.18800
O 	O 	0.77268 0.31897 0.93373 -0.36100
Co	Co	0.60907 0.32291 0.01608 1.18800
O 	O 	0.64247 0.29209 0.95301 -0.45500
O 	O 	0.67385 0.40199 0.02670 -0.40100
O 	O 	0.71091 0.24210 0.96902 -0.31900
C 	C 	0.72014 0.42846 0.00083 0.37100
O 	O 	0.60451 0.33627 0.94302 -0.35500
C 	C 	0.51201 0.26792 0.05337 0.31600
C 	C 	0.68521 0.31479 0.07103 0.32200
O 	O 	0.54974 0.32126 0.06108 -0.36000
O 	O 	0.52944 0.24486 0.02342 -0.31800
O 	O 	0.73199 0.33182 0.05132 -0.32500
O 	O 	0.64882 0.29064 0.04042 -0.45000
O 	O 	0.73245 0.40071 0.96861 -0.53600
C 	C 	0.75331 0.26494 0.94041 0.31200
C 	C 	0.63261 0.31813 0.92290 0.31300
H 	H 	0.75904 0.42332 0.94092 0.18300
Co	Co	0.71253 0.31096 0.47774 1.19000
O 	O 	0.77030 0.31024 0.43225 -0.35000
Co	Co	0.60560 0.31034 0.51674 1.19100
O 	O 	0.63946 0.28024 0.45350 -0.45400
O 	O 	0.66931 0.39040 0.52663 -0.39900
O 	O 	0.71074 0.23317 0.46862 -0.33100
C 	C 	0.71622 0.41687 0.50174 0.37000
O 	O 	0.59978 0.32264 0.44372 -0.33100
C 	C 	0.50878 0.25420 0.55469 0.31000
C 	C 	0.68370 0.30473 0.57087 0.32000
O 	O 	0.54614 0.30770 0.56221 -0.34600
O 	O 	0.52658 0.23152 0.52472 -0.32400
O 	O 	0.73054 0.32233 0.55095 -0.32700
O 	O 	0.64696 0.27973 0.54064 -0.45700
O 	O 	0.72820 0.38970 0.46868 -0.53300
C 	C 	0.75227 0.25658 0.43898 0.31200
C 	C 	0.62851 0.30536 0.42348 0.30900
H 	H 	0.75418 0.41266 0.44077 0.18600
C 	C 	0.64299 0.29516 0.77304 0.07300
N 	N 	0.66724 0.28059 0.80243 -0.10900
C 	C 	0.66339 0.28641 0.85055 0.07800
C 	C 	0.63455 0.30853 0.87107 -0.11500
C 	C 	0.60950 0.32387 0.84136 0.04700
C 	C 	0.61372 0.31725 0.79230 -0.07700
H 	H 	0.68336 0.27462 0.87275 0.02200
H 	H 	0.58741 0.34156 0.85615 0.04600
H 	H 	0.59553 0.33056 0.76929 0.06500
C 	C 	0.67164 0.29725 0.62281 -0.10400
C 	C 	0.61911 0.27155 0.64236 0.04400
C 	C 	0.60908 0.26896 0.69164 -0.07400
C 	C 	0.65190 0.29279 0.72111 0.07400
N 	N 	0.70248 0.31586 0.70149 -0.10500
C 	C 	0.71315 0.31867 0.65350 0.09000
H 	H 	0.58625 0.25421 0.61955 0.02700
H 	H 	0.56849 0.24920 0.70683 0.06300
H 	H 	0.75404 0.33843 0.63921 0.06300
C 	C 	0.65135 0.29135 0.22083 0.07400
N 	N 	0.70151 0.31241 0.20096 -0.11100
C 	C 	0.71278 0.31917 0.15308 0.09100
C 	C 	0.67238 0.30427 0.12268 -0.09900
C 	C 	0.62037 0.28166 0.14236 0.04500
C 	C 	0.60975 0.27515 0.19155 -0.06600
H 	H 	0.75330 0.33674 0.13871 0.06200
H 	H 	0.58842 0.26973 0.11976 0.03600
H 	H 	0.56960 0.25803 0.20686 0.07500
C 	C 	0.63122 0.29656 0.37159 -0.11000
C 	C 	0.66294 0.27818 0.35099 0.04000
C 	C 	0.66841 0.27461 0.30159 -0.07000
C 	C 	0.64197 0.28941 0.27305 0.07200
N 	N 	0.61020 0.30580 0.29380 -0.11300
C 	C 	0.60433 0.30963 0.34190 0.08200
H 	H 	0.68390 0.26755 0.37304 0.02300
H 	H 	0.69342 0.26100 0.28558 0.07100
H 	H 	0.57926 0.32352 0.35701 0.05500
C 	C 	0.75231 0.48030 0.50606 -0.13300
C 	C 	0.77637 0.50576 0.54898 0.21000
C 	C 	0.80478 0.56591 0.55482 -0.09900
C 	C 	0.80932 0.60099 0.51816 -0.00400
C 	C 	0.78670 0.57573 0.47470 0.13700
C 	C 	0.75836 0.51560 0.46883 -0.01800
H 	H 	0.82262 0.58532 0.58816 0.09000
H 	H 	0.73967 0.49615 0.43582 0.06800
Cl	Cl	0.77116 0.46275 0.59574 -0.31900
Cl	Cl	0.79228 0.61883 0.42783 -0.30500
C 	C 	0.80226 0.16193 0.40644 0.14200
C 	C 	0.77378 0.18764 0.40587 -0.02700
C 	C 	0.78752 0.23581 0.43470 -0.10000
C 	C 	0.83149 0.25966 0.46316 0.20100
H 	H 	0.73997 0.16913 0.38399 0.07500
Cl	Cl	0.78233 0.09971 0.37156 -0.30500
C 	C 	0.45234 0.23436 0.55742 -0.10000
C 	C 	0.43250 0.24994 0.52193 0.20100
C 	C 	0.37801 0.22789 0.52343 -0.09300
C 	C 	0.34292 0.19013 0.55998 -0.00800
C 	C 	0.36301 0.17595 0.59627 0.14100
C 	C 	0.41758 0.19802 0.59478 -0.02800
H 	H 	0.36270 0.23905 0.49555 0.08800
H 	H 	0.43282 0.18642 0.62240 0.07200
Cl	Cl	0.47528 0.29610 0.47478 -0.31200
Cl	Cl	0.32022 0.13058 0.64374 -0.30900
C 	C 	0.75594 0.49207 0.00416 -0.13200
C 	C 	0.78064 0.51875 0.04659 0.21000
C 	C 	0.80986 0.57915 0.05101 -0.10000
C 	C 	0.81463 0.61325 0.01338 -0.00100
C 	C 	0.79105 0.58666 0.97052 0.13300
C 	C 	0.76188 0.52630 0.96609 -0.02200
H 	H 	0.74270 0.50590 0.93345 0.06600
Cl	Cl	0.77548 0.47700 0.09439 -0.31700
Cl	Cl	0.79661 0.62842 0.92255 -0.31000
C 	C 	0.80590 0.23473 0.89189 -0.02700
C 	C 	0.78758 0.24281 0.93686 -0.09900
C 	C 	0.80141 0.22867 0.97809 0.19900
C 	C 	0.82986 0.20278 0.97383 -0.09600
H 	H 	0.79670 0.24707 0.86015 0.07700
Cl	Cl	0.78561 0.24555 0.03529 -0.30100
C 	C 	0.34700 0.20572 0.05166 -0.01000
C 	C 	0.38694 0.26512 0.04514 0.14200
C 	C 	0.44073 0.28574 0.04813 -0.02700
C 	C 	0.45515 0.24745 0.05755 -0.10000
C 	C 	0.41490 0.18860 0.06673 0.19800
C 	C 	0.36112 0.16799 0.06355 -0.09200
H 	H 	0.47140 0.33122 0.04160 0.08200
H 	H 	0.33034 0.12243 0.06955 0.08700
Cl	Cl	0.37013 0.31404 0.03262 -0.30300
Cl	Cl	0.43121 0.14043 0.08304 -0.30200
H 	H 	0.80741 0.75921 0.57283 0.05200
H 	H 	0.83900 0.19040 0.00560 0.09100
H 	H 	0.86906 0.86849 0.98818 0.05800
C 	C 	0.87237 0.16067 0.92513 0.04700
C 	C 	0.86738 0.07182 0.90738 -0.02700
C 	C 	0.84538 0.10432 0.90634 -0.03200
H 	H 	0.84614 0.02837 0.89271 0.05300
C 	C 	0.84223 0.67637 0.01981 0.04300
C 	C 	0.83988 0.75906 0.04587 -0.02800
C 	C 	0.89602 0.71389 0.00356 -0.02900
H 	H 	0.81791 0.77625 0.06219 0.05300
H 	H 	0.86238 0.85716 0.50093 0.06100
C 	C 	0.87084 0.15370 0.44197 0.04600
C 	C 	0.87829 0.08665 0.48673 -0.02600
C 	C 	0.85631 0.11863 0.48206 -0.03600
H 	H 	0.86665 0.05962 0.51782 0.05200
C 	C 	0.83538 0.66358 0.52636 0.04500
C 	C 	0.83044 0.74364 0.55576 -0.02800
C 	C 	0.88938 0.70271 0.51155 -0.03300
C 	C 	0.84519 0.18473 0.43593 -0.00800
C 	C 	0.86032 0.23433 0.46330 -0.09300
H 	H 	0.89337 0.25202 0.48599 0.08900
Cl	Cl	0.84902 0.31913 0.50095 -0.30700
H 	H 	0.82833 0.59954 0.08391 0.09000
C 	C 	0.84627 0.19242 0.92881 -0.00700
C 	C 	0.83553 0.21008 0.88769 0.14100
Cl	Cl	0.86002 0.20286 0.83085 -0.30500
S 	S 	0.89908 0.99120 0.95602 0.01500
C 	C 	0.90448 0.89010 0.00822 -0.05300
C 	C 	0.91971 0.85990 0.03320 0.00400
C 	C 	0.92180 0.18442 0.94466 -0.03900
C 	C 	0.91602 0.09479 0.92820 0.01700
C 	C 	0.89361 0.79674 0.02938 0.01800
C 	C 	0.92160 0.77388 0.00811 -0.02500
H 	H 	0.91775 0.69660 0.98684 0.05900
S 	S 	0.89470 0.98224 0.47280 0.02000
C 	C 	0.89620 0.87739 0.52292 -0.05600
C 	C 	0.90958 0.84551 0.54795 0.00500
C 	C 	0.90898 0.15820 0.40736 -0.03200
C 	C 	0.91472 0.08910 0.45108 0.01800
H 	H 	0.92089 0.18576 0.37656 0.06400
C 	C 	0.88446 0.78290 0.54099 0.01700
C 	C 	0.91381 0.76220 0.51861 -0.02700
H 	H 	0.91222 0.68707 0.49418 0.06300
C 	C 	0.94851 0.98439 0.96660 -0.02800
C 	C 	0.94572 0.94991 0.00294 0.03600
C 	C 	0.93633 0.05801 0.93293 0.00500
C 	C 	0.94336 0.15152 0.94656 -0.02800
H 	H 	0.94277 0.22777 0.95953 0.06000
H 	H 	0.96279 0.80250 0.99442 0.04900
C 	C 	0.94291 0.97403 0.48469 -0.02600
C 	C 	0.93767 0.93736 0.52039 0.03300
C 	C 	0.93348 0.05069 0.45319 0.00500
C 	C 	0.93082 0.12595 0.41188 -0.02700
H 	H 	0.95922 0.12853 0.38437 0.05200
H 	H 	0.95525 0.79216 0.50614 0.05200
H 	H 	0.98042 0.16955 0.96352 0.04900
S 	S 	0.97208 0.89099 0.56446 0.01400
C 	C 	0.99284 0.96591 0.02386 -0.02500
C 	C 	0.99712 0.03695 0.95397 0.03600
C 	C 	0.98698 0.07065 0.45765 -0.05500
C 	C 	0.98317 0.95181 0.54349 -0.02300
C 	C 	0.99041 0.07871 0.93515 -0.05500
S 	S 	0.98343 0.90648 0.04624 0.01500
C 	C 	0.99220 0.02715 0.47505 0.03500
