data_crystal

_cell_length_a 22.99875
_cell_length_b 20.75420
_cell_length_c 22.10491
_cell_angle_alpha 90.03198
_cell_angle_beta  89.14049
_cell_angle_gamma 90.52383

_symmetry_space_group_name_	'P 1'
_symmetry_space_group_name_H-M	'P 1'

loop_
_symmetry_equiv_pos_as_xyz
  x,y,z

loop_
_atom_site_label
_atom_site_type_symbol
_atom_site_fract_x
_atom_site_fract_y
_atom_site_fract_z
_atom_site_charge
C 	C 	0.11993 0.01861 0.12962 0.30300
C 	C 	0.95699 0.13479 0.96088 0.41500
C 	C 	0.02483 0.94691 0.01232 0.41600
C 	C 	0.04516 0.22998 0.04125 0.38200
C 	C 	0.10544 0.03948 0.86373 0.42300
C 	C 	0.21654 0.12173 0.95860 0.39900
Ni	Ni	0.02562 0.08245 0.06061 1.13000
Ni	Ni	0.08695 0.15105 0.94199 1.13900
Ni	Ni	0.13514 0.01757 0.99083 1.12500
O 	O 	0.08572 0.06956 0.12807 -0.30000
O 	O 	0.13578 0.98695 0.07942 -0.25000
O 	O 	0.07143 0.08854 0.87485 -0.33200
O 	O 	0.96803 0.08226 0.99041 -0.36200
O 	O 	0.99954 0.17194 0.94010 -0.31200
O 	O 	0.20440 0.07581 0.99885 -0.35300
O 	O 	0.01692 0.98212 0.06120 -0.29900
O 	O 	0.06482 0.96264 0.97205 -0.31700
O 	O 	0.17527 0.15171 0.92731 -0.30900
O 	O 	0.01901 0.18354 0.07407 -0.27600
O 	O 	0.09167 0.21777 0.00774 -0.29800
O 	O 	0.14730 0.02507 0.90079 -0.33300
O 	O 	0.08926 0.09108 0.00743 -0.71400
H 	H 	0.11580 0.11417 0.03471 0.18800
C 	C 	0.21883 0.80543 0.54505 0.38800
C 	C 	0.03127 0.97737 0.48400 0.42100
C 	C 	0.11070 0.90970 0.63520 0.41200
C 	C 	0.12671 0.90444 0.36666 0.38400
C 	C 	0.96104 0.79851 0.54153 0.42000
C 	C 	0.05140 0.70046 0.47553 0.38500
Ni	Ni	0.14694 0.91690 0.50483 1.13700
Ni	Ni	0.03641 0.84199 0.44301 1.13700
Ni	Ni	0.08841 0.78975 0.56807 1.14700
O 	O 	0.21648 0.85455 0.50685 -0.32200
O 	O 	0.17613 0.79385 0.58521 -0.30100
O 	O 	0.97361 0.84673 0.50573 -0.35700
O 	O 	0.08060 0.98348 0.51258 -0.29100
O 	O 	0.02772 0.93911 0.43672 -0.32600
O 	O 	0.09491 0.71454 0.51184 -0.32300
O 	O 	0.15489 0.92002 0.59833 -0.30600
O 	O 	0.07171 0.86539 0.62309 -0.30900
O 	O 	0.03219 0.74326 0.43523 -0.29500
O 	O 	0.15544 0.93297 0.41130 -0.29100
O 	O 	0.09619 0.85062 0.37539 -0.30900
O 	O 	0.00152 0.77062 0.57366 -0.31400
O 	O 	0.09873 0.84303 0.49808 -0.72100
H 	H 	0.12531 0.81577 0.47403 0.17900
C 	C 	0.88613 0.72113 0.96719 0.33600
C 	C 	0.81877 0.51794 0.13655 0.41800
C 	C 	0.97280 0.62123 0.03836 0.42000
C 	C 	0.71025 0.61372 0.05496 0.40100
C 	C 	0.89518 0.44235 0.98964 0.32100
C 	C 	0.80590 0.51742 0.87089 0.39700
Ni	Ni	0.84421 0.63822 0.06770 1.13900
Ni	Ni	0.78471 0.50982 0.00752 1.15200
Ni	Ni	0.89681 0.57500 0.94370 1.14600
O 	O 	0.84182 0.71176 0.00507 -0.27500
O 	O 	0.90713 0.67336 0.93254 -0.27500
O 	O 	0.84481 0.44144 0.01840 -0.28200
O 	O 	0.85834 0.56247 0.12624 -0.30800
O 	O 	0.77543 0.50993 0.09927 -0.30900
O 	O 	0.83847 0.56957 0.87774 -0.32500
O 	O 	0.93449 0.65721 0.06696 -0.31000
O 	O 	0.95584 0.56997 0.00960 -0.33000
O 	O 	0.77526 0.49170 0.91686 -0.32200
O 	O 	0.75378 0.63817 0.08759 -0.29200
O 	O 	0.71930 0.57379 0.00895 -0.31200
O 	O 	0.90256 0.47837 0.94118 -0.29900
O 	O 	0.83460 0.58381 0.99988 -0.74100
H 	H 	0.80947 0.61092 0.97487 0.18000
C 	C 	0.81413 0.39619 0.63651 0.40400
C 	C 	0.97024 0.29257 0.44818 0.42900
C 	C 	0.90704 0.47510 0.51537 0.39300
C 	C 	0.88280 0.19145 0.52963 0.38700
C 	C 	0.81854 0.39590 0.36878 0.42800
C 	C 	0.71210 0.30346 0.46900 0.39100
Ni	Ni	0.90493 0.33727 0.55628 1.13800
Ni	Ni	0.84006 0.27916 0.43783 1.14800
Ni	Ni	0.79348 0.40860 0.49941 1.13900
O 	O 	0.84672 0.34464 0.62819 -0.31200
O 	O 	0.79527 0.43139 0.59023 -0.32200
O 	O 	0.85496 0.34849 0.37654 -0.31900
O 	O 	0.96117 0.34219 0.48301 -0.35000
O 	O 	0.92664 0.25672 0.42932 -0.30800
O 	O 	0.72362 0.35059 0.50805 -0.33100
O 	O 	0.91362 0.43708 0.56229 -0.30200
O 	O 	0.86134 0.46897 0.48082 -0.31300
O 	O 	0.75165 0.28243 0.42871 -0.30400
O 	O 	0.91104 0.23571 0.56241 -0.28000
O 	O 	0.83645 0.20626 0.49793 -0.32200
O 	O 	0.77841 0.40866 0.40981 -0.33300
O 	O 	0.83986 0.33367 0.50717 -0.72500
H 	H 	0.81403 0.30824 0.53415 0.18300
C 	C 	0.61204 0.01050 0.13092 0.30600
C 	C 	0.45815 0.11745 0.94651 0.41100
C 	C 	0.53051 0.93550 0.99875 0.38000
C 	C 	0.53074 0.21611 0.05221 0.38600
C 	C 	0.61680 0.04471 0.86667 0.42600
C 	C 	0.71393 0.12981 0.97829 0.37600
Ni	Ni	0.51785 0.06592 0.05428 1.13100
Ni	Ni	0.58531 0.14897 0.94969 1.13300
Ni	Ni	0.63806 0.01566 0.99422 1.11900
O 	O 	0.57044 0.05434 0.12865 -0.30000
O 	O 	0.63188 0.98053 0.08125 -0.24600
O 	O 	0.57936 0.09081 0.87750 -0.33600
O 	O 	0.46809 0.06514 0.97731 -0.35400
O 	O 	0.49783 0.16328 0.94223 -0.33700
O 	O 	0.70277 0.07809 0.01235 -0.31000
O 	O 	0.51785 0.96582 0.04924 -0.27800
O 	O 	0.57560 0.95341 0.96551 -0.28800
O 	O 	0.67393 0.15636 0.94291 -0.31400
O 	O 	0.50096 0.16418 0.07175 -0.29000
O 	O 	0.57960 0.21063 0.02006 -0.29900
O 	O 	0.65682 0.03085 0.90615 -0.34100
O 	O 	0.58597 0.08395 0.01038 -0.71800
H 	H 	0.60799 0.10665 0.04195 0.18800
C 	C 	0.54647 0.70381 0.47844 0.38000
C 	C 	0.60986 0.91504 0.63796 0.41400
C 	C 	0.45865 0.79667 0.54844 0.40500
C 	C 	0.71868 0.81574 0.54388 0.39100
C 	C 	0.52586 0.98263 0.48997 0.43900
C 	C 	0.62080 0.90721 0.37116 0.38800
Ni	Ni	0.58832 0.79188 0.57327 1.14000
Ni	Ni	0.63948 0.92097 0.50750 1.14100
Ni	Ni	0.53106 0.84711 0.44893 1.13800
O 	O 	0.59165 0.71586 0.51302 -0.31100
O 	O 	0.52644 0.74804 0.44009 -0.28900
O 	O 	0.57399 0.98307 0.52149 -0.31100
O 	O 	0.57251 0.86775 0.63181 -0.30400
O 	O 	0.65208 0.92305 0.59821 -0.31900
O 	O 	0.58833 0.85481 0.37989 -0.31700
O 	O 	0.49944 0.76940 0.58026 -0.29700
O 	O 	0.47024 0.84753 0.51551 -0.35400
O 	O 	0.64508 0.93929 0.41684 -0.30200
O 	O 	0.67880 0.79924 0.58561 -0.29900
O 	O 	0.71006 0.86335 0.50474 -0.32500
O 	O 	0.51996 0.94329 0.44363 -0.33300
O 	O 	0.59372 0.84387 0.50334 -0.72300
H 	H 	0.62005 0.81769 0.47795 0.18200
C 	C 	0.47296 0.61582 0.04743 0.38700
C 	C 	0.30249 0.50919 0.87618 0.40500
C 	C 	0.39478 0.70886 0.94273 0.39800
C 	C 	0.38961 0.43277 0.00428 0.41600
C 	C 	0.21838 0.63278 0.01828 0.43000
C 	C 	0.30905 0.55129 0.13919 0.39200
Ni	Ni	0.40331 0.56302 0.94205 1.12800
Ni	Ni	0.28543 0.51485 0.01124 1.14700
Ni	Ni	0.34392 0.64991 0.05030 1.14400
O 	O 	0.47150 0.57427 0.00158 -0.28700
O 	O 	0.43273 0.66127 0.05498 -0.31400
O 	O 	0.23406 0.58521 0.98254 -0.36500
O 	O 	0.33698 0.55949 0.87986 -0.31600
O 	O 	0.28708 0.47717 0.92545 -0.31700
O 	O 	0.34091 0.60420 0.13055 -0.31600
O 	O 	0.41949 0.65875 0.91703 -0.29300
O 	O 	0.34575 0.70133 0.97301 -0.33000
O 	O 	0.26860 0.53394 0.09998 -0.32100
O 	O 	0.40160 0.46225 0.95205 -0.32500
O 	O 	0.33893 0.44162 0.03255 -0.30100
O 	O 	0.25603 0.66021 0.05521 -0.30300
O 	O 	0.35242 0.56994 0.00897 -0.70300
H 	H 	0.37591 0.54862 0.03978 0.16600
C 	C 	0.29641 0.40386 0.63513 0.38900
C 	C 	0.46868 0.31119 0.45709 0.41300
C 	C 	0.39120 0.48863 0.52055 0.40000
C 	C 	0.38217 0.20648 0.52171 0.38000
C 	C 	0.31516 0.41693 0.36736 0.41000
C 	C 	0.21006 0.30735 0.45620 0.39600
Ni	Ni	0.39290 0.35062 0.55895 1.13400
Ni	Ni	0.34039 0.29728 0.43120 1.14300
Ni	Ni	0.28083 0.41791 0.49701 1.13800
O 	O 	0.33025 0.35330 0.62705 -0.30900
O 	O 	0.27306 0.43513 0.58868 -0.30600
O 	O 	0.35404 0.37174 0.37467 -0.31400
O 	O 	0.45569 0.35946 0.49221 -0.34800
O 	O 	0.42834 0.28123 0.42585 -0.30200
O 	O 	0.21459 0.35419 0.49712 -0.33500
O 	O 	0.39671 0.45029 0.56735 -0.31900
O 	O 	0.34381 0.48656 0.48802 -0.32000
O 	O 	0.25278 0.29475 0.41641 -0.31500
O 	O 	0.40140 0.24923 0.56227 -0.27800
O 	O 	0.33802 0.21945 0.48596 -0.32100
O 	O 	0.27190 0.42307 0.40645 -0.31900
O 	O 	0.33242 0.34672 0.50380 -0.72300
H 	H 	0.30667 0.31754 0.52731 0.17800
C 	C 	0.28417 0.49698 0.70671 0.29400
C 	C 	0.28807 0.42996 0.69734 -0.16500
C 	C 	0.28931 0.38865 0.74782 0.29200
C 	C 	0.29109 0.41418 0.80657 0.29200
C 	C 	0.29025 0.48140 0.81566 -0.16900
C 	C 	0.28438 0.52233 0.76547 0.29600
F 	F 	0.28038 0.58702 0.77352 -0.32600
F 	F 	0.28284 0.53788 0.65883 -0.34600
F 	F 	0.29609 0.37361 0.85435 -0.33900
F 	F 	0.28965 0.32376 0.74001 -0.33600
C 	C 	0.25893 0.50589 0.23064 0.30300
C 	C 	0.31072 0.51880 0.19829 -0.16900
C 	C 	0.36407 0.49913 0.22185 0.29800
C 	C 	0.36565 0.46633 0.27713 0.30700
C 	C 	0.31372 0.45268 0.30937 -0.15900
C 	C 	0.26027 0.47270 0.28559 0.29700
F 	F 	0.20947 0.45891 0.31509 -0.31900
F 	F 	0.20721 0.52604 0.20903 -0.32300
F 	F 	0.41767 0.44808 0.29943 -0.31200
F 	F 	0.41435 0.51069 0.19055 -0.33900
C 	C 	0.48340 0.61466 0.43914 0.30600
C 	C 	0.51349 0.64286 0.48740 -0.16800
C 	C 	0.50683 0.61657 0.54591 0.28400
C 	C 	0.46690 0.56662 0.55685 0.29300
C 	C 	0.43482 0.54027 0.50901 -0.17600
C 	C 	0.44440 0.56359 0.44981 0.29800
F 	F 	0.41606 0.53661 0.40257 -0.34100
F 	F 	0.49184 0.63679 0.38185 -0.32500
F 	F 	0.45810 0.54531 0.61436 -0.34400
F 	F 	0.53768 0.64087 0.59273 -0.36700
C 	C 	0.46972 0.05774 0.55688 0.30700
C 	C 	0.48431 0.03603 0.49832 -0.21400
C 	C 	0.46088 0.06718 0.44787 0.30100
C 	C 	0.42454 0.12029 0.45582 0.27700
C 	C 	0.41281 0.14448 0.51424 -0.16300
C 	C 	0.43471 0.11212 0.56479 0.29600
F 	F 	0.42165 0.13297 0.62157 -0.32800
F 	F 	0.48890 0.02566 0.60612 -0.35100
F 	F 	0.40226 0.14952 0.40650 -0.36700
F 	F 	0.47495 0.04748 0.39095 -0.35600
C 	C 	0.43420 0.88056 0.98567 0.27600
C 	C 	0.49517 0.87932 0.98008 -0.14900
C 	C 	0.52225 0.82490 0.95508 0.30700
C 	C 	0.48916 0.77105 0.93855 0.30500
C 	C 	0.42829 0.77030 0.94806 -0.17300
C 	C 	0.40089 0.82656 0.96940 0.30000
F 	F 	0.34202 0.82910 0.97415 -0.34300
F 	F 	0.40712 0.93438 0.00613 -0.32100
F 	F 	0.51677 0.71846 0.91610 -0.34500
F 	F 	0.58111 0.82273 0.94985 -0.31100
C 	C 	0.44786 0.28624 0.08508 0.30400
C 	C 	0.50277 0.28029 0.05666 -0.14000
C 	C 	0.52494 0.33258 0.02248 0.29100
C 	C 	0.48881 0.38387 0.00771 0.33600
C 	C 	0.43035 0.38387 0.02749 -0.16400
C 	C 	0.41126 0.33687 0.06954 0.32200
F 	F 	0.35679 0.33893 0.09395 -0.33300
F 	F 	0.42909 0.24181 0.12616 -0.33500
F 	F 	0.51079 0.43370 0.97451 -0.37600
F 	F 	0.58120 0.33343 0.00297 -0.33200
C 	C 	0.62181 0.94460 0.80511 0.35000
C 	C 	0.61702 0.01196 0.80785 -0.22700
C 	C 	0.61201 0.04761 0.75417 0.33100
C 	C 	0.61058 0.01594 0.69840 0.25400
C 	C 	0.61298 0.94846 0.69606 -0.11900
C 	C 	0.61926 0.91298 0.74952 0.28100
F 	F 	0.62390 0.84782 0.74740 -0.33200
F 	F 	0.62871 0.90978 0.85639 -0.33800
F 	F 	0.60674 0.05074 0.64664 -0.33100
F 	F 	0.60971 0.11294 0.75602 -0.33700
C 	C 	0.63082 0.02530 0.24084 0.24700
C 	C 	0.62647 0.98387 0.19082 -0.08000
C 	C 	0.62714 0.91670 0.20001 0.27200
C 	C 	0.62854 0.89156 0.25878 0.29800
C 	C 	0.62806 0.93320 0.30904 -0.13900
C 	C 	0.63066 0.00030 0.29958 0.27200
F 	F 	0.63013 0.04146 0.34737 -0.35000
F 	F 	0.63295 0.09012 0.23257 -0.32700
F 	F 	0.62952 0.82673 0.26684 -0.33500
F 	F 	0.62354 0.87576 0.15224 -0.31900
C 	C 	0.61660 0.26439 0.50846 0.29200
C 	C 	0.65084 0.28636 0.45958 -0.17000
C 	C 	0.62406 0.30310 0.40505 0.29300
C 	C 	0.56334 0.30484 0.40196 0.30400
C 	C 	0.52924 0.28983 0.45325 -0.18600
C 	C 	0.55600 0.26593 0.50528 0.28600
F 	F 	0.52333 0.24831 0.55424 -0.36600
F 	F 	0.64208 0.24515 0.56036 -0.34000
F 	F 	0.53784 0.32591 0.35071 -0.32300
F 	F 	0.65682 0.32266 0.35673 -0.33100
C 	C 	0.06205 0.29867 0.38865 0.30600
C 	C 	0.03028 0.27199 0.43730 -0.19700
C 	C 	0.06012 0.24162 0.48427 0.29000
C 	C 	0.12058 0.24778 0.48777 0.28800
C 	C 	0.15157 0.28255 0.44334 -0.17000
C 	C 	0.12268 0.30376 0.39153 0.29300
F 	F 	0.15275 0.33424 0.34646 -0.32200
F 	F 	0.03385 0.32516 0.34135 -0.33000
F 	F 	0.14855 0.22369 0.53634 -0.34500
F 	F 	0.03007 0.21164 0.52957 -0.37200
C 	C 	0.61848 0.56634 0.09599 0.29900
C 	C 	0.65029 0.62114 0.07745 -0.16600
C 	C 	0.62139 0.67980 0.07018 0.30500
C 	C 	0.56048 0.68110 0.07246 0.30800
C 	C 	0.52869 0.62319 0.07853 -0.16000
C 	C 	0.55774 0.56751 0.09691 0.30400
F 	F 	0.52721 0.51253 0.10882 -0.33000
F 	F 	0.64633 0.51055 0.10824 -0.34300
F 	F 	0.53249 0.73769 0.06496 -0.34400
F 	F 	0.65193 0.73441 0.05693 -0.31400
C 	C 	0.06739 0.65514 0.08364 0.30300
C 	C 	0.03413 0.64220 0.03215 -0.17200
C 	C 	0.06196 0.63852 0.97515 0.28400
C 	C 	0.12224 0.64536 0.97001 0.28000
C 	C 	0.15616 0.65001 0.02209 -0.14600
C 	C 	0.12835 0.65817 0.07883 0.29700
F 	F 	0.16027 0.66459 0.12969 -0.32000
F 	F 	0.04116 0.65980 0.13887 -0.32800
F 	F 	0.14819 0.64237 0.91448 -0.32000
F 	F 	0.03094 0.62333 0.92525 -0.35400
C 	C 	0.75525 0.46747 0.78259 0.29500
C 	C 	0.80714 0.48424 0.81184 -0.17400
C 	C 	0.86087 0.47037 0.78389 0.29600
C 	C 	0.86285 0.44023 0.72745 0.30100
C 	C 	0.81118 0.42428 0.69768 -0.17400
C 	C 	0.75728 0.43807 0.72537 0.29500
F 	F 	0.70703 0.42291 0.69699 -0.34300
F 	F 	0.70303 0.48103 0.80883 -0.34000
F 	F 	0.91519 0.42792 0.70084 -0.33900
F 	F 	0.91134 0.48639 0.81146 -0.33900
C 	C 	0.80754 0.42009 0.20064 0.31600
C 	C 	0.81588 0.48700 0.19609 -0.16400
C 	C 	0.82125 0.52429 0.24883 0.30400
C 	C 	0.82063 0.49455 0.30545 0.31100
C 	C 	0.81607 0.42728 0.30969 -0.17100
C 	C 	0.80860 0.39019 0.25718 0.31300
F 	F 	0.80136 0.32531 0.26116 -0.32400
F 	F 	0.79877 0.38407 0.15024 -0.31800
F 	F 	0.82452 0.53104 0.35625 -0.33000
F 	F 	0.82587 0.58946 0.24519 -0.33700
C 	C 	0.96055 0.55078 0.44544 0.29700
C 	C 	0.94805 0.52951 0.50480 -0.17000
C 	C 	0.97358 0.56151 0.55386 0.30100
C 	C 	0.00998 0.61487 0.54389 0.27800
C 	C 	0.01921 0.63897 0.48484 -0.18000
C 	C 	0.99504 0.60594 0.43561 0.32800
F 	F 	0.00591 0.62642 0.37818 -0.32700
F 	F 	0.94045 0.51712 0.39729 -0.32500
F 	F 	0.03535 0.64397 0.59190 -0.36400
F 	F 	0.96196 0.54201 0.61145 -0.33000
C 	C 	0.95306 0.05148 0.44957 0.30000
C 	C 	0.98449 0.02395 0.49693 -0.19900
C 	C 	0.97409 0.04470 0.55671 0.30700
C 	C 	0.93754 0.09698 0.56822 0.30200
C 	C 	0.90969 0.12779 0.52027 -0.16200
C 	C 	0.91490 0.10217 0.46140 0.28300
F 	F 	0.88514 0.12843 0.41506 -0.36700
F 	F 	0.96137 0.03120 0.39170 -0.35400
F 	F 	0.92997 0.11840 0.62582 -0.32500
F 	F 	0.99989 0.01456 0.60358 -0.35200
C 	C 	0.87032 0.80495 0.60308 0.30100
C 	C 	0.89974 0.78137 0.55171 -0.18400
C 	C 	0.86765 0.75600 0.50351 0.28600
C 	C 	0.80719 0.76244 0.50301 0.28900
C 	C 	0.77839 0.79299 0.55131 -0.17300
C 	C 	0.80972 0.81076 0.60292 0.29100
F 	F 	0.78202 0.83841 0.65086 -0.33500
F 	F 	0.90079 0.82749 0.65091 -0.32800
F 	F 	0.77694 0.74226 0.45412 -0.34600
F 	F 	0.89557 0.72984 0.45496 -0.35900
C 	C 	0.36790 0.75081 0.50658 0.28300
C 	C 	0.39794 0.77577 0.55632 -0.18500
C 	C 	0.36686 0.79266 0.60899 0.30400
C 	C 	0.30599 0.79340 0.60870 0.29400
C 	C 	0.27620 0.77756 0.55555 -0.16600
C 	C 	0.30714 0.75108 0.50648 0.28800
F 	F 	0.27852 0.73165 0.45628 -0.35200
F 	F 	0.39758 0.73164 0.45630 -0.37100
F 	F 	0.27634 0.81593 0.65779 -0.32600
F 	F 	0.39557 0.81390 0.65850 -0.33000
C 	C 	0.97618 0.78734 0.94932 0.29300
C 	C 	0.91781 0.78374 0.96891 -0.14400
C 	C 	0.89359 0.83676 0.99997 0.23600
C 	C 	0.92879 0.88939 0.01591 0.32500
C 	C 	0.98862 0.88909 0.00190 -0.13000
C 	C 	0.01226 0.83668 0.96999 0.25700
F 	F 	0.07040 0.83366 0.95894 -0.32500
F 	F 	0.99754 0.74430 0.90878 -0.31500
F 	F 	0.90445 0.94119 0.04360 -0.34600
F 	F 	0.83584 0.83795 0.01357 -0.31100
C 	C 	0.97508 0.36743 0.95878 0.26600
C 	C 	0.93887 0.39309 0.00436 -0.10700
C 	C 	0.94393 0.37075 0.06422 0.28200
C 	C 	0.98039 0.31899 0.07707 0.32300
C 	C 	0.01414 0.29104 0.03077 -0.15600
C 	C 	0.01374 0.31826 0.97230 0.26000
F 	F 	0.04938 0.29544 0.92785 -0.37400
F 	F 	0.97175 0.38879 0.90090 -0.32200
F 	F 	0.98330 0.29647 0.13459 -0.31400
F 	F 	0.91463 0.40016 0.11005 -0.33500
C 	C 	0.86327 0.14236 0.90760 0.30100
C 	C 	0.89655 0.15662 0.95863 -0.21400
C 	C 	0.86830 0.17524 0.01268 0.31000
C 	C 	0.80775 0.17087 0.01801 0.31400
C 	C 	0.77495 0.14933 0.96899 -0.19400
C 	C 	0.80256 0.13862 0.91273 0.28900
F 	F 	0.77095 0.11995 0.86427 -0.34600
F 	F 	0.88992 0.12666 0.85446 -0.33900
F 	F 	0.78121 0.18447 0.07174 -0.33200
F 	F 	0.89982 0.19211 0.06165 -0.36100
C 	C 	0.30530 0.07814 0.90926 0.29200
C 	C 	0.27715 0.12947 0.93845 -0.17400
C 	C 	0.30902 0.18486 0.95388 0.29400
C 	C 	0.36965 0.18541 0.94707 0.30000
C 	C 	0.39848 0.12965 0.92707 -0.18500
C 	C 	0.36578 0.07851 0.90310 0.30200
F 	F 	0.39301 0.02661 0.87871 -0.34600
F 	F 	0.27428 0.02623 0.89011 -0.35300
F 	F 	0.40051 0.23846 0.96332 -0.37800
F 	F 	0.28171 0.23658 0.97846 -0.34500
C 	C 	0.11288 0.01070 0.69569 0.25600
C 	C 	0.10802 0.94324 0.69340 -0.11300
C 	C 	0.10029 0.90793 0.74707 0.28100
C 	C 	0.09797 0.93969 0.80263 0.35500
C 	C 	0.10289 0.00704 0.80505 -0.22800
C 	C 	0.10995 0.04254 0.75135 0.33200
F 	F 	0.11571 0.10768 0.75331 -0.33800
F 	F 	0.12025 0.04530 0.64397 -0.33100
F 	F 	0.09153 0.90499 0.85429 -0.33300
F 	F 	0.09658 0.84260 0.74541 -0.32200
C 	C 	0.12737 0.92108 0.19582 0.27200
C 	C 	0.13084 0.98857 0.18902 -0.08400
C 	C 	0.13742 0.02752 0.24049 0.24400
C 	C 	0.13632 0.00005 0.29822 0.26600
C 	C 	0.13102 0.93276 0.30524 -0.13900
C 	C 	0.12821 0.89336 0.25355 0.29500
F 	F 	0.12606 0.82823 0.25916 -0.32700
F 	F 	0.12081 0.88246 0.14674 -0.33400
F 	F 	0.13818 0.03910 0.34749 -0.35800
F 	F 	0.14344 0.09238 0.23463 -0.33600
