data_crystal

_cell_length_a 18.56267
_cell_length_b 18.90091
_cell_length_c 34.79503
_cell_angle_alpha 95.41895
_cell_angle_beta  95.41882
_cell_angle_gamma 126.42464

_symmetry_space_group_name_	'P 1'
_symmetry_space_group_name_H-M	'P 1'

loop_
_symmetry_equiv_pos_as_xyz
  x,y,z

loop_
_atom_site_label
_atom_site_type_symbol
_atom_site_fract_x
_atom_site_fract_y
_atom_site_fract_z
_atom_site_charge
C 	C 	0.92947 0.02093 0.96189 0.24500
C 	C 	0.02334 0.07741 0.96202 -0.14300
C 	C 	0.07304 0.04367 0.96350 0.25200
C 	C 	0.02911 0.95310 0.96444 -0.14800
C 	C 	0.93518 0.89549 0.96378 0.24600
C 	C 	0.88500 0.92946 0.96274 -0.12900
H 	H 	0.05796 0.14795 0.96175 0.14900
H 	H 	0.06813 0.92743 0.96583 0.14800
H 	H 	0.81249 0.88547 0.96281 0.15400
C 	C 	0.92514 0.01255 0.49943 0.24600
C 	C 	0.01746 0.05409 0.49837 -0.13000
C 	C 	0.04970 0.00307 0.49674 0.23200
C 	C 	0.98968 0.91095 0.49610 -0.11600
C 	C 	0.89804 0.86975 0.49760 0.23900
C 	C 	0.86569 0.92038 0.49921 -0.13200
H 	H 	0.06367 0.12539 0.49860 0.15300
H 	H 	0.01439 0.87137 0.49455 0.13900
H 	H 	0.79429 0.88805 0.49985 0.14900
Cu	Cu	0.78226 0.36728 0.96027 0.94000
Cu	Cu	0.76289 0.29374 0.04318 0.91400
Cu	Cu	0.64101 0.33061 0.01022 0.91600
Cu	Cu	0.61651 0.36673 0.93042 0.92600
C 	C 	0.71928 0.34014 0.87753 0.40400
O 	O 	0.83806 0.49886 0.95935 -0.30200
C 	C 	0.69167 0.35288 0.09604 0.38800
O 	O 	0.64072 0.29768 0.95610 -0.63600
O 	O 	0.77241 0.38314 0.01604 -0.63000
O 	O 	0.83927 0.30454 0.96464 -0.30800
O 	O 	0.73490 0.20894 0.99915 -0.38100
O 	O 	0.68448 0.38199 0.88679 -0.31300
O 	O 	0.51113 0.27013 0.00278 -0.31200
C 	C 	0.46002 0.26384 0.97149 0.39400
C 	C 	0.79817 0.53377 0.97146 0.38900
O 	O 	0.71361 0.48072 0.97645 -0.35800
O 	O 	0.49587 0.31532 0.94512 -0.32400
O 	O 	0.76840 0.33328 0.90473 -0.29600
C 	C 	0.79689 0.22873 0.97783 0.39600
O 	O 	0.64438 0.35746 0.06672 -0.30200
O 	O 	0.75970 0.35046 0.09075 -0.33700
H 	H 	0.59935 0.23252 0.94547 0.21300
H 	H 	0.81396 0.44514 0.03125 0.22500
Cu	Cu	0.59644 0.18092 0.50496 0.94200
Cu	Cu	0.67452 0.20378 0.42289 0.91300
Cu	Cu	0.62889 0.31775 0.45486 0.91400
Cu	Cu	0.58730 0.33716 0.53391 0.92600
C 	C 	0.62034 0.24088 0.58751 0.40400
O 	O 	0.46220 0.12053 0.50524 -0.30500
C 	C 	0.61153 0.27079 0.36933 0.38800
O 	O 	0.66247 0.31910 0.50910 -0.63600
O 	O 	0.58039 0.19006 0.44910 -0.63200
O 	O 	0.66009 0.12576 0.50090 -0.31100
O 	O 	0.75911 0.22942 0.46732 -0.37600
O 	O 	0.57481 0.27196 0.57787 -0.31300
O 	O 	0.68564 0.44427 0.46239 -0.31800
C 	C 	0.68566 0.49195 0.49274 0.40000
C 	C 	0.42298 0.15540 0.49217 0.39000
O 	O 	0.47359 0.23883 0.48746 -0.35600
O 	O 	0.63344 0.45415 0.51891 -0.32400
O 	O 	0.63077 0.19515 0.56055 -0.29600
C 	C 	0.73753 0.16743 0.48817 0.39800
O 	O 	0.60248 0.31416 0.39831 -0.30200
O 	O 	0.61755 0.20617 0.37479 -0.33700
H 	H 	0.72854 0.36191 0.52017 0.21400
H 	H 	0.51777 0.14745 0.43352 0.22400
C 	C 	0.74884 0.28350 0.68831 0.24800
C 	C 	0.68070 0.25616 0.71094 0.00700
C 	C 	0.59072 0.21455 0.69220 0.24200
C 	C 	0.57001 0.20517 0.65149 0.32500
C 	C 	0.63925 0.23778 0.62914 -0.18600
C 	C 	0.72812 0.27417 0.64750 0.32500
C 	C 	0.70518 0.28076 0.75426 0.00700
F 	F 	0.52405 0.18655 0.71372 -0.31600
F 	F 	0.79516 0.30401 0.62608 -0.34100
C 	C 	0.74521 0.36873 0.77273 0.24200
C 	C 	0.75432 0.38923 0.81340 0.32500
C 	C 	0.72304 0.32178 0.83597 -0.18700
C 	C 	0.68834 0.23505 0.81788 0.32500
C 	C 	0.67924 0.21453 0.77711 0.24800
F 	F 	0.77185 0.43356 0.75100 -0.31500
F 	F 	0.65983 0.16981 0.83952 -0.34100
F 	F 	0.79194 0.47430 0.83081 -0.32000
F 	F 	0.64235 0.12970 0.75963 -0.30700
F 	F 	0.83567 0.32197 0.70605 -0.30700
F 	F 	0.48294 0.16595 0.63382 -0.32100
C 	C 	0.56660 0.31042 0.18101 0.24800
C 	C 	0.63782 0.34544 0.21309 0.00400
C 	C 	0.72804 0.39341 0.20695 0.24100
C 	C 	0.74639 0.40208 0.16889 0.32100
C 	C 	0.67436 0.36015 0.13637 -0.18400
C 	C 	0.58455 0.31683 0.14277 0.31800
C 	C 	0.61736 0.32432 0.25237 0.00400
F 	F 	0.79767 0.42878 0.23776 -0.31800
F 	F 	0.51420 0.27725 0.11187 -0.33300
C 	C 	0.57207 0.23595 0.25842 0.24000
C 	C 	0.56394 0.21744 0.29642 0.32100
C 	C 	0.60384 0.28760 0.32899 -0.18400
C 	C 	0.64457 0.37538 0.32269 0.31800
C 	C 	0.65036 0.39339 0.28449 0.24800
F 	F 	0.53878 0.16839 0.22756 -0.31900
F 	F 	0.68227 0.44385 0.35365 -0.33300
F 	F 	0.51837 0.13142 0.30164 -0.34300
F 	F 	0.69097 0.47850 0.27881 -0.30700
F 	F 	0.47955 0.26720 0.18678 -0.30700
F 	F 	0.83412 0.45005 0.16356 -0.34200
C 	C 	0.83941 0.74051 0.53143 0.26700
C 	C 	0.83604 0.77329 0.49732 -0.14400
C 	C 	0.77979 0.71340 0.46208 0.26600
C 	C 	0.72941 0.62124 0.46064 0.30400
C 	C 	0.73526 0.58844 0.49447 -0.18900
C 	C 	0.78931 0.64844 0.53003 0.29900
F 	F 	0.79542 0.61751 0.56291 -0.35600
F 	F 	0.89318 0.79818 0.56570 -0.33100
F 	F 	0.67459 0.56377 0.42646 -0.32800
F 	F 	0.77572 0.74473 0.42903 -0.33700
C 	C 	0.87537 0.08825 0.46305 0.26500
C 	C 	0.88914 0.06409 0.49835 -0.14200
C 	C 	0.85824 0.07945 0.53115 0.26500
C 	C 	0.81052 0.11520 0.52814 0.30600
C 	C 	0.79342 0.13594 0.49231 -0.19500
C 	C 	0.82759 0.12381 0.45996 0.29900
F 	F 	0.81098 0.14278 0.42502 -0.38200
F 	F 	0.90485 0.07351 0.43118 -0.33500
F 	F 	0.78073 0.12953 0.56000 -0.33600
F 	F 	0.87272 0.05778 0.56564 -0.33500
C 	C 	0.18137 0.07376 0.46193 0.26300
C 	C 	0.14649 0.04576 0.49611 -0.14100
C 	C 	0.20136 0.04948 0.52815 0.26400
C 	C 	0.29025 0.08062 0.52603 0.29800
C 	C 	0.32554 0.10942 0.49198 -0.19400
C 	C 	0.27064 0.10570 0.45991 0.29900
F 	F 	0.30400 0.13329 0.42684 -0.35600
F 	F 	0.12822 0.06867 0.43048 -0.33800
F 	F 	0.34329 0.08592 0.55759 -0.33200
F 	F 	0.16829 0.02271 0.56137 -0.33300
C 	C 	0.86229 0.66103 0.93547 0.29900
C 	C 	0.83948 0.62848 0.97052 -0.19800
C 	C 	0.84144 0.68173 0.00234 0.31100
C 	C 	0.86698 0.76698 0.99929 0.25200
C 	C 	0.89032 0.79968 0.96432 -0.13800
C 	C 	0.88678 0.74577 0.93228 0.26300
F 	F 	0.90899 0.77644 0.89828 -0.33100
F 	F 	0.85807 0.60943 0.90407 -0.33200
F 	F 	0.87159 0.81884 0.03071 -0.33100
F 	F 	0.81856 0.65078 0.03624 -0.35600
C 	C 	0.83512 0.13411 0.00459 0.31100
C 	C 	0.82606 0.17103 0.97286 -0.20000
C 	C 	0.84107 0.14947 0.93619 0.30800
C 	C 	0.86774 0.09397 0.93167 0.26100
C 	C 	0.87994 0.05979 0.96381 -0.13500
C 	C 	0.86137 0.07846 0.99998 0.25300
F 	F 	0.87345 0.04645 0.03130 -0.33000
F 	F 	0.82164 0.15476 0.04033 -0.38100
F 	F 	0.88455 0.07567 0.89641 -0.33500
F 	F 	0.82941 0.18180 0.90490 -0.33600
C 	C 	0.23091 0.16123 0.00025 0.27200
C 	C 	0.17188 0.10366 0.96498 -0.15500
C 	C 	0.20759 0.09999 0.93173 0.26900
C 	C 	0.30182 0.15251 0.93387 0.29700
C 	C 	0.36105 0.20922 0.96930 -0.19200
C 	C 	0.32518 0.21398 0.00242 0.30700
F 	F 	0.38171 0.27060 0.03650 -0.32800
F 	F 	0.19674 0.16511 0.03254 -0.33800
F 	F 	0.33573 0.14700 0.90175 -0.35700
F 	F 	0.15078 0.04467 0.89747 -0.33400
