data_crystal

_cell_length_a 15.54811
_cell_length_b 15.50624
_cell_length_c 39.66293
_cell_angle_alpha 89.97738
_cell_angle_beta  90.02221
_cell_angle_gamma 120.01905

_symmetry_space_group_name_	'P 1'
_symmetry_space_group_name_H-M	'P 1'

loop_
_symmetry_equiv_pos_as_xyz
  x,y,z

loop_
_atom_site_label
_atom_site_type_symbol
_atom_site_fract_x
_atom_site_fract_y
_atom_site_fract_z
_atom_site_charge
Cu	Cu	0.74193 0.50360 0.56393 0.93000
Cu	Cu	0.81526 0.49041 0.64037 0.86200
Cu	Cu	0.95079 0.54802 0.58118 0.87600
Cu	Cu	0.91798 0.60921 0.51210 0.88100
C 	C 	0.73321 0.61784 0.50878 0.31900
O 	O 	0.72010 0.40278 0.52766 -0.35900
C 	C 	0.97958 0.45427 0.64060 0.19300
O 	O 	0.89121 0.61614 0.55837 -0.64200
O 	O 	0.80973 0.45326 0.59319 -0.64600
O 	O 	0.64305 0.49497 0.59740 -0.37000
O 	O 	0.76132 0.57598 0.63736 -0.45100
O 	O 	0.79391 0.59637 0.49260 -0.40500
O 	O 	0.08807 0.63772 0.56767 -0.37000
C 	C 	0.11730 0.67443 0.53710 0.29500
C 	C 	0.79184 0.38609 0.51836 0.28300
O 	O 	0.88490 0.45760 0.51999 -0.41200
O 	O 	0.06198 0.69661 0.51787 -0.38000
O 	O 	0.69592 0.57692 0.53826 -0.36800
C 	C 	0.67034 0.54150 0.62639 0.29400
O 	O 	0.00175 0.47870 0.60857 -0.32200
O 	O 	0.89012 0.42712 0.65239 -0.40500
H 	H 	0.91193 0.68358 0.56711 0.14400
H 	H 	0.79021 0.38251 0.58981 0.17200
Cu	Cu	0.48180 0.76368 0.44330 0.92800
Cu	Cu	0.45747 0.84526 0.36907 0.86000
Cu	Cu	0.52259 0.97354 0.43022 0.87200
Cu	Cu	0.58787 0.93615 0.49668 0.87700
C 	C 	0.59897 0.75252 0.49685 0.31800
O 	O 	0.38247 0.73666 0.48086 -0.35800
C 	C 	0.42017 0.00901 0.37547 0.37000
O 	O 	0.59294 0.91292 0.45004 -0.64500
O 	O 	0.42754 0.83350 0.41693 -0.64700
O 	O 	0.47597 0.67195 0.40712 -0.37100
O 	O 	0.54793 0.79676 0.36839 -0.45000
O 	O 	0.57534 0.81014 0.51402 -0.40700
O 	O 	0.61912 0.10961 0.44216 -0.36500
C 	C 	0.65640 0.13912 0.47262 0.29600
C 	C 	0.36535 0.80716 0.49168 0.28300
O 	O 	0.43562 0.90104 0.49030 -0.41700
O 	O 	0.67433 0.08177 0.49254 -0.36900
O 	O 	0.55870 0.71748 0.46706 -0.36700
C 	C 	0.51935 0.70515 0.37779 0.29000
O 	O 	0.44865 0.02691 0.40728 -0.37100
O 	O 	0.39157 0.92097 0.36178 -0.47800
H 	H 	0.65999 0.93612 0.44063 0.14400
H 	H 	0.35741 0.81317 0.42171 0.17000
Cu	Cu	0.44205 0.24429 0.23660 0.92800
Cu	Cu	0.48153 0.36298 0.30786 0.86800
Cu	Cu	0.40352 0.41746 0.24555 0.89500
Cu	Cu	0.32085 0.28729 0.18198 0.89600
C 	C 	0.30141 0.08802 0.19369 0.38800
O 	O 	0.53372 0.30161 0.19610 -0.36200
C 	C 	0.50666 0.55629 0.30101 0.29600
O 	O 	0.32923 0.28089 0.22961 -0.63400
O 	O 	0.50055 0.37461 0.25900 -0.64100
O 	O 	0.46100 0.17244 0.27440 -0.37500
O 	O 	0.38965 0.22437 0.31314 -0.42800
O 	O 	0.31209 0.15597 0.17128 -0.39100
O 	O 	0.31006 0.45779 0.22986 -0.37900
C 	C 	0.27424 0.44445 0.19893 0.28600
C 	C 	0.54791 0.38381 0.18132 0.27900
O 	O 	0.47606 0.40500 0.18060 -0.39600
O 	O 	0.24480 0.35942 0.18292 -0.38100
O 	O 	0.36156 0.11247 0.21972 -0.37400
C 	C 	0.41238 0.15810 0.30263 0.29400
O 	O 	0.47098 0.54489 0.27004 -0.38900
O 	O 	0.54749 0.50440 0.31152 -0.42400
H 	H 	0.26517 0.23918 0.24129 0.16800
H 	H 	0.56966 0.42241 0.25218 0.16500
Cu	Cu	0.16840 0.70354 0.09970 0.92600
Cu	Cu	0.08078 0.59438 0.02748 0.87200
Cu	Cu	0.95594 0.53270 0.09098 0.87300
Cu	Cu	0.00803 0.65677 0.15632 0.90300
C 	C 	0.18611 0.85661 0.14472 0.33800
O 	O 	0.20598 0.64159 0.13812 -0.36700
C 	C 	0.91356 0.39974 0.03322 0.24500
O 	O 	0.01997 0.66746 0.10866 -0.58500
O 	O 	0.09408 0.57604 0.07567 -0.63200
O 	O 	0.25455 0.77977 0.06155 -0.38800
O 	O 	0.12628 0.73344 0.02525 -0.43300
O 	O 	0.13020 0.78799 0.16713 -0.39300
O 	O 	0.82381 0.49278 0.10778 -0.39300
C 	C 	0.80330 0.50172 0.13940 0.28800
C 	C 	0.13900 0.56010 0.15347 0.28100
O 	O 	0.04614 0.53919 0.15497 -0.38000
O 	O 	0.85980 0.58437 0.15650 -0.41500
O 	O 	0.22255 0.83339 0.11860 -0.39000
C 	C 	0.21644 0.79837 0.03507 0.29600
O 	O 	0.89367 0.40780 0.06510 -0.38500
O 	O 	0.00448 0.45358 0.02135 -0.37300
H 	H 	0.99746 0.71072 0.09817 0.10700
H 	H 	0.11538 0.52695 0.08067 0.17400
Cu	Cu	0.22564 0.46371 0.77782 0.92900
Cu	Cu	0.30370 0.46442 0.70147 0.86800
Cu	Cu	0.37599 0.40238 0.75992 0.89400
Cu	Cu	0.24797 0.31151 0.82563 0.90000
C 	C 	0.06656 0.33273 0.82255 0.38900
O 	O 	0.31557 0.56412 0.81131 -0.37000
C 	C 	0.50360 0.49649 0.70096 0.30100
O 	O 	0.24449 0.33763 0.77958 -0.63900
O 	O 	0.33957 0.50416 0.74784 -0.64800
O 	O 	0.13491 0.47677 0.74559 -0.36400
O 	O 	0.16325 0.38872 0.70555 -0.42700
O 	O 	0.10835 0.28132 0.83310 -0.38800
O 	O 	0.40574 0.29836 0.77091 -0.38000
C 	C 	0.39939 0.26283 0.80155 0.28700
C 	C 	0.36301 0.54578 0.83508 0.28700
O 	O 	0.36996 0.46461 0.83414 -0.39000
O 	O 	0.31905 0.23484 0.82007 -0.37600
O 	O 	0.11967 0.42223 0.80961 -0.38600
C 	C 	0.11302 0.43060 0.71641 0.28200
O 	O 	0.49598 0.46245 0.73210 -0.39500
O 	O 	0.44109 0.52370 0.68915 -0.42300
H 	H 	0.19526 0.27951 0.76642 0.16700
H 	H 	0.39494 0.57325 0.75091 0.16900
Cu	Cu	0.67356 0.17643 0.89230 0.92800
Cu	Cu	0.56564 0.11586 0.96714 0.87000
Cu	Cu	0.50165 0.97289 0.91049 0.86600
Cu	Cu	0.60713 0.98589 0.84680 0.85500
C 	C 	0.80746 0.16465 0.84495 0.30600
O 	O 	0.60462 0.19453 0.85180 -0.36300
C 	C 	0.36334 0.95250 0.96202 0.22800
O 	O 	0.63342 0.02488 0.89238 -0.61000
O 	O 	0.54885 0.11624 0.91847 -0.62800
O 	O 	0.75937 0.27704 0.92652 -0.37800
O 	O 	0.70413 0.16228 0.96881 -0.42900
O 	O 	0.73002 0.09837 0.82770 -0.37600
O 	O 	0.45904 0.83285 0.90548 -0.40600
C 	C 	0.46810 0.79169 0.87765 0.29600
C 	C 	0.51740 0.12253 0.84151 0.28200
O 	O 	0.49290 0.02874 0.84583 -0.36400
O 	O 	0.54282 0.84136 0.85665 -0.41800
O 	O 	0.79671 0.21638 0.86942 -0.36400
C 	C 	0.76840 0.25093 0.95727 0.28900
O 	O 	0.37370 0.93182 0.93062 -0.39400
O 	O 	0.42371 0.04141 0.97499 -0.35400
H 	H 	0.67538 0.00382 0.90462 0.17400
H 	H 	0.50016 0.13635 0.91161 0.17700
C 	C 	0.43126 0.62868 0.85663 -0.09200
C 	C 	0.39989 0.68512 0.87186 -0.10100
H 	H 	0.50994 0.65245 0.85611 0.05600
H 	H 	0.32089 0.65561 0.87595 0.06600
C 	C 	0.89799 0.19496 0.83247 -0.09600
C 	C 	0.97253 0.30219 0.83106 -0.18800
H 	H 	0.90914 0.14411 0.81664 0.05900
H 	H 	0.94663 0.35569 0.83070 0.09100
C 	C 	0.44318 0.14686 0.82844 -0.09000
C 	C 	0.47172 0.23249 0.81174 -0.08900
H 	H 	0.36473 0.09430 0.83233 0.08000
H 	H 	0.54938 0.28033 0.80508 0.06600
C 	C 	0.84115 0.32274 0.01361 -0.10600
C 	C 	0.85205 0.32084 0.97850 -0.10600
H 	H 	0.77124 0.26931 0.02530 0.06000
H 	H 	0.91904 0.37793 0.96627 0.05300
C 	C 	0.27742 0.88891 0.01530 -0.11200
C 	C 	0.28023 0.88374 0.98015 -0.10200
H 	H 	0.33265 0.95516 0.02843 0.05000
H 	H 	0.22455 0.81691 0.96736 0.06000
C 	C 	0.64743 0.45752 0.16878 -0.09400
C 	C 	0.70486 0.42837 0.15289 -0.09800
H 	H 	0.67170 0.53633 0.17094 0.05700
H 	H 	0.67676 0.34971 0.14810 0.07000
C 	C 	0.16590 0.48728 0.16625 -0.09300
C 	C 	0.24740 0.51678 0.18533 -0.08900
H 	H 	0.11535 0.40846 0.16184 0.07500
H 	H 	0.29297 0.59487 0.19209 0.06300
C 	C 	0.22266 0.95360 0.15167 -0.18400
C 	C 	0.24215 0.99073 0.18690 -0.18500
H 	H 	0.25694 0.00715 0.13130 0.13800
H 	H 	0.22501 0.93737 0.20720 0.08300
C 	C 	0.40653 0.07924 0.35784 -0.13300
C 	C 	0.38788 0.06995 0.32312 -0.07700
H 	H 	0.42249 0.14788 0.37049 0.07500
H 	H 	0.37092 0.00139 0.31023 0.08400
C 	C 	0.51415 0.63413 0.32090 -0.12300
C 	C 	0.53546 0.63899 0.35548 -0.10100
H 	H 	0.49272 0.68521 0.31021 0.05300
H 	H 	0.55132 0.58466 0.36684 0.06200
C 	C 	0.76742 0.28891 0.50467 -0.09600
C 	C 	0.69400 0.24345 0.48207 -0.09100
H 	H 	0.80974 0.25433 0.51294 0.06500
H 	H 	0.65898 0.28280 0.47132 0.07200
C 	C 	0.26673 0.78120 0.50420 -0.09800
C 	C 	0.22053 0.70859 0.52711 -0.09300
H 	H 	0.23283 0.82373 0.49544 0.06200
H 	H 	0.25879 0.67283 0.53814 0.07100
C 	C 	0.69794 0.66972 0.49294 -0.12400
C 	C 	0.65073 0.71652 0.51226 -0.12400
H 	H 	0.71539 0.68840 0.46644 0.06900
H 	H 	0.66815 0.73218 0.53891 0.06900
C 	C 	0.04541 0.43949 0.66037 -0.05300
C 	C 	0.03405 0.42851 0.69547 -0.05900
H 	H 	0.11163 0.44593 0.64868 0.04800
H 	H 	0.97233 0.42984 0.70781 0.02800
C 	C 	0.58736 0.51676 0.68202 -0.11900
C 	C 	0.59589 0.54515 0.64806 -0.10300
H 	H 	0.64299 0.50240 0.69307 0.05100
H 	H 	0.53901 0.55629 0.63634 0.06900
