data_crystal

_cell_length_a 22.52857
_cell_length_b 22.60022
_cell_length_c 24.48576
_cell_angle_alpha 89.99993
_cell_angle_beta  74.46254
_cell_angle_gamma 118.62307

_symmetry_space_group_name_	'P 1'
_symmetry_space_group_name_H-M	'P 1'

loop_
_symmetry_equiv_pos_as_xyz
  x,y,z

loop_
_atom_site_label
_atom_site_type_symbol
_atom_site_fract_x
_atom_site_fract_y
_atom_site_fract_z
_atom_site_charge
C 	C 	0.00078 0.56773 0.95197 -0.03100
C 	C 	0.06661 0.57813 0.95388 0.01100
C 	C 	0.07389 0.55963 0.00526 -0.03300
H 	H 	0.99499 0.58226 0.91235 0.04900
H 	H 	0.12484 0.56787 0.00697 0.04900
C 	C 	0.04866 0.49269 0.53631 0.00600
C 	C 	0.01502 0.43216 0.45793 -0.02900
C 	C 	0.05988 0.45567 0.49256 -0.03300
H 	H 	0.02431 0.40385 0.42411 0.04900
H 	H 	0.10321 0.44504 0.48535 0.04800
C 	C 	0.09425 0.51604 0.57278 0.04400
C 	C 	0.12544 0.60351 0.90254 0.02500
C 	C 	0.13186 0.53590 0.60362 -0.08200
O 	O 	0.14731 0.53115 0.69586 -0.23400
C 	C 	0.17499 0.55895 0.64174 0.29500
C 	C 	0.17580 0.62465 0.86027 -0.03900
C 	C 	0.01494 0.52866 0.05414 -0.03200
O 	O 	0.22651 0.65347 0.74387 -0.40200
O 	O 	0.24060 0.61020 0.62316 -0.40500
P 	P 	0.25056 0.65436 0.79993 0.31300
O 	O 	0.28297 0.60549 0.80216 -0.43000
Zn	Zn	0.29511 0.65362 0.67614 1.21800
H 	H 	0.02050 0.51307 0.09348 0.05300
O 	O 	0.30431 0.73013 0.80474 -0.43500
O 	O 	0.34684 0.61424 0.69839 -0.42700
C 	C 	0.35507 0.80279 0.64490 0.32500
O 	O 	0.35563 0.74736 0.62850 -0.43300
Zn	Zn	0.37248 0.65089 0.81863 1.21800
O 	O 	0.36276 0.81922 0.69499 -0.43400
O 	O 	0.38011 0.52138 0.82230 -0.23800
C 	C 	0.36701 0.85412 0.60256 -0.10000
O 	O 	0.38354 0.60300 0.87770 -0.41000
H 	H 	0.39145 0.89287 0.45514 0.04700
C 	C 	0.38754 0.54742 0.86954 0.29900
Zn	Zn	0.38926 0.76871 0.73870 1.20500
C 	C 	0.37982 0.89862 0.56683 0.05800
O 	O 	0.39513 0.73727 0.85454 -0.42900
C 	C 	0.40514 0.51796 0.91044 -0.08600
H 	H 	0.41351 0.37152 0.95096 0.04900
C 	C 	0.40409 0.94276 0.46706 -0.02400
C 	C 	0.39514 0.95219 0.52464 -0.00600
C 	C 	0.42080 0.49392 0.94456 0.04600
P 	P 	0.42742 0.66902 0.69323 0.31200
C 	C 	0.43336 0.99857 0.42437 -0.03900
H 	H 	0.44304 0.99147 0.37972 0.05300
C 	C 	0.43400 0.40137 0.98289 -0.03300
C 	C 	0.41086 0.01672 0.53970 -0.02400
H 	H 	0.40347 0.02424 0.58422 0.04700
O 	O 	0.44418 0.74425 0.67636 -0.43000
O 	O 	0.44794 0.66491 0.75039 -0.40700
C 	C 	0.43972 0.46583 0.98561 0.00200
H 	H 	0.45207 0.32627 0.01806 0.04700
C 	C 	0.44844 0.79879 0.83027 0.32100
C 	C 	0.45579 0.37571 0.02092 -0.02800
C 	C 	0.44013 0.07253 0.49702 -0.03900
C 	C 	0.45370 0.06391 0.43918 0.01800
O 	O 	0.46175 0.82017 0.77614 -0.43300
C 	C 	0.46619 0.50397 0.02715 -0.03100
C 	C 	0.48171 0.65088 0.63822 -0.03700
H 	H 	0.45507 0.12284 0.50879 0.05100
C 	C 	0.47879 0.84781 0.86628 -0.09600
H 	H 	0.47071 0.55377 0.02958 0.04800
C 	C 	0.48336 0.41440 0.06184 -0.00100
C 	C 	0.48795 0.47832 0.06516 -0.03000
C 	C 	0.49596 0.12253 0.39527 0.02100
C 	C 	0.50254 0.88883 0.89718 0.05300
H 	H 	0.54503 0.66666 0.48753 0.05000
C 	C 	0.99219 0.50590 0.54530 -0.03400
H 	H 	0.98297 0.53430 0.57906 0.04800
Zn	Zn	0.61788 0.37675 0.25956 1.20600
Zn	Zn	0.71341 0.35607 0.32367 1.21800
Zn	Zn	0.64224 0.27898 0.17845 1.21800
P 	P 	0.58488 0.24232 0.30398 0.31200
P 	P 	0.75973 0.40113 0.19991 0.31300
C 	C 	0.62744 0.16106 0.12731 0.29900
C 	C 	0.56216 0.34986 0.16618 0.32200
C 	C 	0.64916 0.44446 0.35349 0.32500
O 	O 	0.56472 0.29934 0.32126 -0.43000
O 	O 	0.70382 0.42245 0.19472 -0.43600
O 	O 	0.66580 0.26737 0.29992 -0.42800
O 	O 	0.73129 0.32200 0.19596 -0.42900
O 	O 	0.56663 0.21890 0.24598 -0.40600
O 	O 	0.78159 0.42294 0.25687 -0.40300
O 	O 	0.63451 0.22173 0.11842 -0.40900
O 	O 	0.86357 0.38204 0.30604 -0.23600
O 	O 	0.63089 0.14022 0.17578 -0.23800
O 	O 	0.61725 0.34166 0.14243 -0.42900
O 	O 	0.64954 0.38919 0.37034 -0.43400
O 	O 	0.54606 0.35601 0.22079 -0.43300
O 	O 	0.63986 0.45198 0.30381 -0.43400
C 	C 	0.83398 0.38216 0.36002 0.29600
O 	O 	0.76706 0.36696 0.37782 -0.40600
C 	C 	0.94861 0.51615 0.05176 0.01200
C 	C 	0.94179 0.53676 0.00090 -0.03300
C 	C 	0.88706 0.47872 0.10031 0.02500
C 	C 	0.83547 0.44733 0.14105 -0.03900
H 	H 	0.89058 0.52750 0.99897 0.04900
C 	C 	0.94732 0.48239 0.51067 -0.03000
C 	C 	0.95861 0.44547 0.46686 0.00000
C 	C 	0.91363 0.42293 0.42989 0.04500
C 	C 	0.87645 0.40380 0.39869 -0.08400
H 	H 	0.90406 0.49311 0.51782 0.04700
C 	C 	0.53134 0.17138 0.35824 -0.03700
C 	C 	0.57571 0.03094 0.01017 0.00500
C 	C 	0.57336 0.96810 0.01655 -0.03200
C 	C 	0.55096 0.92192 0.97844 -0.03000
C 	C 	0.53083 0.93839 0.93378 -0.00200
C 	C 	0.53458 0.00179 0.92673 -0.02800
C 	C 	0.55696 0.04794 0.96482 -0.03400
C 	C 	0.59445 0.07676 0.05153 0.04600
C 	C 	0.61006 0.11536 0.08594 -0.08400
H 	H 	0.58788 0.95459 0.05142 0.04900
H 	H 	0.54824 0.87304 0.98420 0.04700
H 	H 	0.51914 0.01493 0.89234 0.04700
H 	H 	0.55874 0.09643 0.95953 0.04800
C 	C 	0.51020 0.39012 0.09856 0.05300
C 	C 	0.53295 0.37076 0.12967 -0.09600
H 	H 	0.50921 0.50855 0.09663 0.04700
C 	C 	0.55944 0.61931 0.55578 0.01700
C 	C 	0.58647 0.57887 0.56959 -0.03800
C 	C 	0.61409 0.54978 0.52698 -0.02500
C 	C 	0.61476 0.56112 0.47052 -0.00600
C 	C 	0.59282 0.60580 0.45599 -0.02500
C 	C 	0.56517 0.63484 0.49858 -0.03900
C 	C 	0.62808 0.51994 0.42975 0.05700
C 	C 	0.63904 0.48593 0.39498 -0.10100
C 	C 	0.51715 0.63646 0.60067 0.02100
H 	H 	0.58292 0.56729 0.61369 0.05300
H 	H 	0.63174 0.51587 0.53838 0.04600
H 	H 	0.59393 0.61537 0.41226 0.04700
