data_crystal

_cell_length_a 27.71180
_cell_length_b 28.03833
_cell_length_c 35.16990
_cell_angle_alpha 95.52403
_cell_angle_beta  95.51609
_cell_angle_gamma 125.71325

_symmetry_space_group_name_	'P 1'
_symmetry_space_group_name_H-M	'P 1'

loop_
_symmetry_equiv_pos_as_xyz
  x,y,z

loop_
_atom_site_label
_atom_site_type_symbol
_atom_site_fract_x
_atom_site_fract_y
_atom_site_fract_z
_atom_site_charge
C 	C 	0.97476 0.03892 0.99214 0.13600
N 	N 	0.93947 0.97887 0.99052 -0.13800
C 	C 	0.96270 0.94810 0.98473 0.13800
N 	N 	0.02115 0.97730 0.98058 -0.13800
C 	C 	0.05655 0.03726 0.98217 0.13700
N 	N 	0.03342 0.06823 0.98798 -0.13700
C 	C 	0.93773 0.98779 0.45555 0.13600
N 	N 	0.99908 0.02339 0.46081 -0.13800
C 	C 	0.02947 0.99948 0.46551 0.13800
N 	N 	0.99860 0.94003 0.46489 -0.13800
C 	C 	0.93735 0.90430 0.45963 0.13700
N 	N 	0.90674 0.92812 0.45497 -0.13700
Cu	Cu	0.64846 0.26005 0.00329 0.93200
Cu	Cu	0.71350 0.27541 0.92818 0.87400
Cu	Cu	0.67844 0.35046 0.95067 0.89700
Cu	Cu	0.64168 0.36714 0.02451 0.89900
C 	C 	0.65691 0.30415 0.08270 0.30900
O 	O 	0.55852 0.22155 0.99800 -0.35300
C 	C 	0.66724 0.30903 0.86740 0.30500
O 	O 	0.69402 0.35256 0.00548 -0.64000
O 	O 	0.64548 0.26506 0.94764 -0.64200
O 	O 	0.68964 0.22089 0.00527 -0.35600
O 	O 	0.76271 0.28962 0.97557 -0.43200
O 	O 	0.62785 0.32519 0.06955 -0.37900
O 	O 	0.71690 0.43538 0.95572 -0.37800
C 	C 	0.71401 0.46881 0.98317 0.31300
C 	C 	0.53459 0.24513 0.98133 0.30400
O 	O 	0.56963 0.30086 0.97677 -0.39200
O 	O 	0.67690 0.44552 0.00801 -0.38600
O 	O 	0.66418 0.27039 0.05883 -0.34100
C 	C 	0.74344 0.24735 0.99618 0.31700
O 	O 	0.66712 0.34575 0.89408 -0.37600
O 	O 	0.68158 0.27370 0.87692 -0.39300
H 	H 	0.73712 0.38064 0.01834 0.17700
H 	H 	0.60571 0.23651 0.93008 0.18800
Cu	Cu	0.72346 0.31981 0.44698 0.92900
Cu	Cu	0.72623 0.27543 0.52946 0.87000
Cu	Cu	0.63947 0.29816 0.50404 0.89900
Cu	Cu	0.60825 0.31653 0.42499 0.90200
C 	C 	0.68034 0.31184 0.36768 0.31200
O 	O 	0.76068 0.40683 0.44511 -0.35400
C 	C 	0.68414 0.31596 0.58689 0.29800
O 	O 	0.63088 0.27374 0.44943 -0.63900
O 	O 	0.72600 0.33343 0.50353 -0.64100
O 	O 	0.76460 0.28048 0.44657 -0.36300
O 	O 	0.70540 0.21791 0.48532 -0.43600
O 	O 	0.63227 0.30861 0.37415 -0.36400
O 	O 	0.55381 0.25723 0.50285 -0.36400
C 	C 	0.51652 0.25530 0.47532 0.31000
C 	C 	0.73525 0.43170 0.45669 0.30900
O 	O 	0.68063 0.39875 0.46436 -0.38500
O 	O 	0.53669 0.29083 0.44963 -0.38100
O 	O 	0.70598 0.29602 0.39176 -0.36000
C 	C 	0.74260 0.23160 0.46095 0.31100
O 	O 	0.65243 0.32268 0.56029 -0.35600
O 	O 	0.72820 0.31345 0.57856 -0.41100
H 	H 	0.60379 0.22990 0.44006 0.17100
H 	H 	0.75448 0.37541 0.51756 0.18200
C 	C 	0.63375 0.26467 0.75797 -0.07200
C 	C 	0.65551 0.31962 0.74698 0.02300
C 	C 	0.67049 0.36809 0.77483 0.06100
C 	C 	0.67079 0.36333 0.81417 -0.00600
C 	C 	0.65412 0.30976 0.82571 -0.08600
C 	C 	0.63109 0.25891 0.79697 0.11800
C 	C 	0.66567 0.32681 0.70682 0.02700
N 	N 	0.68367 0.42148 0.76318 -0.01600
H 	H 	0.68588 0.40188 0.83579 0.06800
N 	N 	0.60325 0.20114 0.80713 -0.02100
H 	H 	0.61897 0.22637 0.73619 0.07800
C 	C 	0.72048 0.34226 0.69678 0.05700
C 	C 	0.72705 0.34186 0.65782 -0.00700
C 	C 	0.67825 0.32290 0.62823 -0.08700
C 	C 	0.62306 0.30694 0.63842 0.11600
C 	C 	0.61785 0.31072 0.67766 -0.07300
N 	N 	0.76820 0.35457 0.72581 -0.01600
H 	H 	0.76978 0.35478 0.65053 0.06300
N 	N 	0.57109 0.28307 0.60905 -0.02100
H 	H 	0.57531 0.29789 0.68530 0.08000
O 	O 	0.61967 0.16812 0.79525 -0.10300
O 	O 	0.55869 0.17992 0.82596 -0.10600
O 	O 	0.65095 0.43928 0.77079 -0.09700
O 	O 	0.73099 0.45467 0.74771 -0.08700
O 	O 	0.54173 0.22879 0.58963 -0.10400
O 	O 	0.54959 0.31324 0.60452 -0.08900
O 	O 	0.78591 0.32063 0.72344 -0.10400
O 	O 	0.79651 0.40181 0.75316 -0.09100
C 	C 	0.70344 0.36235 0.27132 -0.07000
C 	C 	0.69330 0.31276 0.24800 0.02400
C 	C 	0.68835 0.26720 0.26540 0.06000
C 	C 	0.68911 0.26960 0.30548 -0.00100
C 	C 	0.69413 0.31680 0.32823 -0.08500
C 	C 	0.70407 0.36470 0.31133 0.11800
C 	C 	0.68236 0.30629 0.20522 0.02700
N 	N 	0.68077 0.21757 0.24231 -0.01700
H 	H 	0.68250 0.23313 0.31846 0.06700
N 	N 	0.71445 0.41565 0.33474 -0.02600
H 	H 	0.70921 0.39838 0.25818 0.07900
C 	C 	0.62762 0.29194 0.18523 0.05700
C 	C 	0.61982 0.29128 0.14524 -0.00300
C 	C 	0.66596 0.30435 0.12474 -0.08700
C 	C 	0.72033 0.31752 0.14460 0.11800
C 	C 	0.72810 0.31816 0.18471 -0.07100
N 	N 	0.57998 0.27851 0.20560 -0.01600
H 	H 	0.57750 0.27997 0.13001 0.06600
N 	N 	0.76835 0.33188 0.12439 -0.02200
H 	H 	0.77029 0.32934 0.20006 0.08200
O 	O 	0.68100 0.43283 0.32539 -0.10200
O 	O 	0.75998 0.44732 0.36375 -0.10300
O 	O 	0.72026 0.20699 0.24962 -0.09600
O 	O 	0.63202 0.18025 0.21615 -0.08600
O 	O 	0.79365 0.37833 0.10770 -0.11400
O 	O 	0.78970 0.30112 0.12510 -0.09100
O 	O 	0.55827 0.30890 0.20402 -0.09900
O 	O 	0.55576 0.23356 0.22367 -0.08800
C 	C 	0.85459 0.72673 0.45820 0.01900
C 	C 	0.83876 0.68822 0.42314 -0.03800
C 	C 	0.81755 0.62909 0.42322 -0.02500
C 	C 	0.81222 0.60824 0.45837 -0.00100
C 	C 	0.82779 0.64666 0.49342 -0.02600
C 	C 	0.84900 0.70580 0.49334 -0.03900
C 	C 	0.88109 0.78888 0.45846 0.01000
C 	C 	0.90528 0.84132 0.45885 -0.03300
C 	C 	0.78741 0.54651 0.45822 0.05700
C 	C 	0.76494 0.49439 0.45778 -0.09300
H 	H 	0.84338 0.70419 0.39589 0.05200
H 	H 	0.80513 0.59951 0.39598 0.05600
H 	H 	0.82333 0.63074 0.52067 0.04700
H 	H 	0.86157 0.73541 0.52059 0.05000
C 	C 	0.80437 0.13119 0.44487 -0.00700
C 	C 	0.85882 0.15375 0.43177 -0.02500
C 	C 	0.88310 0.12179 0.43160 -0.04000
C 	C 	0.85306 0.06715 0.44458 0.02000
C 	C 	0.79777 0.04379 0.45666 -0.04100
C 	C 	0.77346 0.07572 0.45679 -0.02600
C 	C 	0.78267 0.16695 0.44903 0.05400
C 	C 	0.76451 0.19672 0.45370 -0.11100
C 	C 	0.88105 0.03722 0.44794 0.00900
C 	C 	0.90592 0.01364 0.45122 -0.03200
H 	H 	0.88299 0.19657 0.42251 0.04700
H 	H 	0.92583 0.14011 0.42216 0.05100
H 	H 	0.77424 0.00157 0.46669 0.05000
H 	H 	0.73134 0.05797 0.46696 0.04300
C 	C 	0.21324 0.10189 0.47843 0.02000
C 	C 	0.24330 0.07824 0.49118 -0.03900
C 	C 	0.30564 0.11036 0.49267 -0.02500
C 	C 	0.33814 0.16626 0.48144 -0.00200
C 	C 	0.30830 0.19048 0.46949 -0.02500
C 	C 	0.24596 0.15835 0.46798 -0.03900
C 	C 	0.14849 0.06693 0.47422 0.01100
C 	C 	0.09417 0.03674 0.47036 -0.03300
C 	C 	0.40135 0.19733 0.48017 0.05500
C 	C 	0.45407 0.22355 0.47837 -0.09100
H 	H 	0.21828 0.03463 0.49934 0.05100
H 	H 	0.32843 0.09140 0.50197 0.04800
H 	H 	0.33318 0.23372 0.46080 0.04800
H 	H 	0.22302 0.17693 0.45814 0.05000
C 	C 	0.80049 0.64596 0.98126 -0.00500
C 	C 	0.82620 0.66990 0.94929 -0.02500
C 	C 	0.85665 0.73096 0.94938 -0.03900
C 	C 	0.86145 0.76829 0.98143 0.01900
C 	C 	0.83511 0.74421 0.01320 -0.04000
C 	C 	0.80466 0.68315 0.01311 -0.02600
C 	C 	0.77029 0.58339 0.98158 0.05400
C 	C 	0.74483 0.53105 0.98213 -0.09900
C 	C 	0.89597 0.83167 0.98254 0.01000
C 	C 	0.92582 0.88482 0.98353 -0.03300
H 	H 	0.82300 0.64137 0.92453 0.05000
H 	H 	0.87701 0.74932 0.92475 0.05200
H 	H 	0.83874 0.77283 0.03810 0.05000
H 	H 	0.78472 0.66489 0.03788 0.04600
C 	C 	0.83806 0.17852 0.00938 -0.00500
C 	C 	0.81074 0.12118 0.01794 -0.02400
C 	C 	0.84083 0.09490 0.01660 -0.04000
C 	C 	0.89834 0.12583 0.00666 0.02000
C 	C 	0.92638 0.18383 0.99917 -0.04100
C 	C 	0.89631 0.21013 0.00055 -0.02500
C 	C 	0.80442 0.20277 0.00631 0.05700
C 	C 	0.77636 0.22304 0.00248 -0.10600
C 	C 	0.92692 0.09667 0.00194 0.01000
C 	C 	0.94960 0.07110 0.99760 -0.03200
H 	H 	0.76572 0.09643 0.02476 0.04900
H 	H 	0.81892 0.05009 0.02252 0.05100
H 	H 	0.97088 0.20808 0.99156 0.05000
H 	H 	0.91772 0.25447 0.99387 0.04500
C 	C 	0.23250 0.11694 0.97237 0.02000
C 	C 	0.24969 0.07966 0.96335 -0.03900
C 	C 	0.31040 0.10450 0.96279 -0.02500
C 	C 	0.35415 0.16671 0.97120 -0.00400
C 	C 	0.33677 0.20402 0.97942 -0.02500
C 	C 	0.27606 0.17918 0.98002 -0.04000
C 	C 	0.17071 0.09112 0.97562 0.01000
C 	C 	0.11875 0.06781 0.97857 -0.03200
C 	C 	0.41726 0.19229 0.97361 0.05300
C 	C 	0.47055 0.21523 0.97655 -0.10000
H 	H 	0.21623 0.03148 0.95735 0.05100
H 	H 	0.32348 0.07537 0.95641 0.04800
H 	H 	0.37036 0.25219 0.98594 0.04500
H 	H 	0.26312 0.20829 0.98699 0.05000
