data_crystal

_cell_length_a 18.51321
_cell_length_b 18.83107
_cell_length_c 34.83517
_cell_angle_alpha 95.41795
_cell_angle_beta  95.41843
_cell_angle_gamma 126.42756

_symmetry_space_group_name_	'P 1'
_symmetry_space_group_name_H-M	'P 1'

loop_
_symmetry_equiv_pos_as_xyz
  x,y,z

loop_
_atom_site_label
_atom_site_type_symbol
_atom_site_fract_x
_atom_site_fract_y
_atom_site_fract_z
_atom_site_charge
C 	C 	0.89951 0.00232 0.96207 0.13200
N 	N 	0.85336 0.91220 0.96059 -0.07700
C 	C 	0.90000 0.87699 0.96096 0.19400
N 	N 	0.99183 0.93183 0.96320 -0.10000
C 	C 	0.03787 0.02154 0.96567 0.16000
N 	N 	0.99155 0.05647 0.96472 -0.14200
C 	C 	0.95297 0.03083 0.50321 0.13200
N 	N 	0.89722 0.94003 0.49946 -0.06800
C 	C 	0.93265 0.89436 0.49834 0.18100
N 	N 	0.02384 0.93957 0.50079 -0.09500
C 	C 	0.07961 0.02993 0.50368 0.14800
N 	N 	0.04426 0.07584 0.50477 -0.10300
Cu	Cu	0.75399 0.35025 0.95827 0.92900
Cu	Cu	0.74727 0.29429 0.04469 0.87800
Cu	Cu	0.61121 0.31294 0.00741 0.90500
Cu	Cu	0.57832 0.33182 0.92502 0.91000
C 	C 	0.68646 0.30699 0.87517 0.31200
O 	O 	0.80025 0.47831 0.95320 -0.31800
C 	C 	0.66827 0.34936 0.09391 0.30500
O 	O 	0.61143 0.27341 0.95444 -0.64200
O 	O 	0.74463 0.37252 0.01336 -0.63600
O 	O 	0.81690 0.29348 0.96619 -0.32700
O 	O 	0.71820 0.20239 0.00383 -0.42500
O 	O 	0.64757 0.34596 0.88206 -0.34600
O 	O 	0.48009 0.24592 0.00006 -0.36500
C 	C 	0.42529 0.23838 0.96993 0.33000
C 	C 	0.75554 0.50966 0.96335 0.32000
O 	O 	0.67080 0.45372 0.96824 -0.38700
O 	O 	0.45462 0.27157 0.93814 -0.34400
O 	O 	0.74094 0.30974 0.90364 -0.33200
C 	C 	0.77649 0.21909 0.98074 0.31700
O 	O 	0.61243 0.34039 0.06373 -0.35300
O 	O 	0.74238 0.35716 0.08930 -0.40600
H 	H 	0.57337 0.20738 0.94598 0.17500
H 	H 	0.78348 0.43646 0.02644 0.18900
Cu	Cu	0.62207 0.19886 0.50751 0.93200
Cu	Cu	0.68050 0.20179 0.42168 0.88900
Cu	Cu	0.65172 0.33249 0.45553 0.90600
Cu	Cu	0.62918 0.36574 0.53722 0.90900
C 	C 	0.66385 0.26964 0.59003 0.31800
O 	O 	0.49123 0.14721 0.51208 -0.32600
C 	C 	0.62709 0.27730 0.37021 0.31300
O 	O 	0.69409 0.33795 0.50923 -0.63700
O 	O 	0.59797 0.20293 0.45162 -0.63600
O 	O 	0.67878 0.13672 0.50155 -0.36500
O 	O 	0.77225 0.23145 0.46364 -0.38600
O 	O 	0.62020 0.30341 0.58182 -0.35000
O 	O 	0.71278 0.46018 0.46112 -0.33900
C 	C 	0.72124 0.51387 0.49156 0.34000
C 	C 	0.45454 0.18549 0.50014 0.32800
O 	O 	0.50729 0.26814 0.49410 -0.39300
O 	O 	0.67964 0.48297 0.52144 -0.37700
O 	O 	0.66467 0.21692 0.56255 -0.35100
C 	C 	0.75377 0.17410 0.48685 0.32700
O 	O 	0.62347 0.32635 0.39868 -0.35700
O 	O 	0.61815 0.20448 0.37580 -0.40000
H 	H 	0.76132 0.37857 0.51791 0.18500
H 	H 	0.53300 0.16140 0.43840 0.18200
C 	C 	0.74379 0.34933 0.69947 -0.10600
C 	C 	0.70602 0.26766 0.71233 0.01100
C 	C 	0.66603 0.18848 0.68472 0.12800
C 	C 	0.65774 0.19030 0.64447 -0.02300
C 	C 	0.68981 0.27104 0.63158 -0.10900
C 	C 	0.73663 0.35141 0.65930 0.19800
C 	C 	0.69891 0.26377 0.75410 0.01200
O 	O 	0.63063 0.10848 0.69694 -0.26300
H 	H 	0.62265 0.12824 0.62335 0.08100
O 	O 	0.77151 0.43142 0.64716 -0.28400
H 	H 	0.77577 0.41076 0.72062 0.08800
C 	C 	0.77773 0.30450 0.78304 0.12700
C 	C 	0.77234 0.31309 0.82288 -0.02100
C 	C 	0.68874 0.28230 0.83406 -0.10100
C 	C 	0.60890 0.23596 0.80513 0.19600
C 	C 	0.61437 0.22752 0.76536 -0.10100
O 	O 	0.85990 0.33554 0.77245 -0.25700
H 	H 	0.83388 0.34715 0.84496 0.09300
O 	O 	0.52601 0.20202 0.81563 -0.28300
H 	H 	0.55324 0.19520 0.74320 0.09400
H 	H 	0.83500 0.45633 0.64453 0.15900
H 	H 	0.89000 0.39952 0.77100 0.16100
H 	H 	0.50010 0.13981 0.81891 0.15500
H 	H 	0.68166 0.10421 0.70041 0.16400
C 	C 	0.55908 0.28634 0.18317 -0.10500
C 	C 	0.63370 0.35110 0.21306 0.00800
C 	C 	0.71417 0.42410 0.20321 0.12700
C 	C 	0.72293 0.42678 0.16378 -0.02900
C 	C 	0.65117 0.35766 0.13394 -0.11000
C 	C 	0.56758 0.28923 0.14369 0.19000
C 	C 	0.63301 0.33453 0.25371 0.01100
O 	O 	0.78645 0.48978 0.23216 -0.26100
H 	H 	0.78683 0.48077 0.15648 0.07300
O 	O 	0.49511 0.22360 0.11476 -0.26900
H 	H 	0.49619 0.23095 0.19056 0.07900
C 	C 	0.57993 0.34352 0.27710 0.12200
C 	C 	0.57877 0.32567 0.31534 -0.02400
C 	C 	0.62940 0.29759 0.33021 -0.11300
C 	C 	0.68278 0.28912 0.30672 0.19700
C 	C 	0.68437 0.30762 0.26875 -0.10500
O 	O 	0.53139 0.37225 0.26311 -0.25400
H 	H 	0.53778 0.33273 0.33321 0.07500
O 	O 	0.73669 0.26671 0.32150 -0.28500
H 	H 	0.72559 0.30090 0.25088 0.08500
H 	H 	0.50162 0.17493 0.11073 0.14500
H 	H 	0.46992 0.31667 0.25074 0.15700
H 	H 	0.69923 0.20057 0.31321 0.15400
H 	H 	0.77685 0.53600 0.23760 0.17000
C 	C 	0.74637 0.65887 0.51073 -0.06700
C 	C 	0.77018 0.60985 0.49023 -0.13000
C 	C 	0.84344 0.65393 0.47003 0.36100
C 	C 	0.89341 0.74616 0.47123 -0.11600
C 	C 	0.87240 0.79584 0.49331 -0.05100
C 	C 	0.79766 0.75148 0.51262 0.32100
F 	F 	0.77691 0.79851 0.53448 -0.39100
H 	H 	0.68898 0.62542 0.52580 0.11000
H 	H 	0.94995 0.77950 0.45567 0.12000
F 	F 	0.86840 0.60814 0.45046 -0.43000
C 	C 	0.92799 0.13244 0.47496 -0.12600
C 	C 	0.91355 0.07933 0.50325 -0.04400
C 	C 	0.85293 0.06440 0.52853 0.30900
C 	C 	0.80356 0.09837 0.52412 -0.07000
C 	C 	0.81359 0.14694 0.49416 -0.13700
C 	C 	0.87814 0.16578 0.47016 0.35500
F 	F 	0.89031 0.21353 0.44131 -0.44500
H 	H 	0.97504 0.14467 0.45549 0.12200
H 	H 	0.75640 0.08560 0.54359 0.10400
F 	F 	0.84079 0.01569 0.55699 -0.41500
C 	C 	0.30840 0.15626 0.47268 -0.07300
C 	C 	0.35736 0.14245 0.50023 -0.13800
C 	C 	0.31620 0.09656 0.53044 0.35700
C 	C 	0.22680 0.06403 0.53266 -0.12200
C 	C 	0.17766 0.07711 0.50491 -0.05300
C 	C 	0.21904 0.12397 0.47505 0.31200
F 	F 	0.17166 0.13564 0.44758 -0.42500
H 	H 	0.33972 0.19216 0.44945 0.09500
H 	H 	0.19516 0.02764 0.55573 0.11100
F 	F 	0.36363 0.08568 0.55828 -0.43200
C 	C 	0.77705 0.64993 0.99069 -0.08200
C 	C 	0.79471 0.60482 0.96322 -0.12300
C 	C 	0.83936 0.64688 0.93285 0.35700
C 	C 	0.86750 0.73352 0.93053 -0.11000
C 	C 	0.85187 0.77951 0.95853 -0.05000
C 	C 	0.80547 0.73679 0.98840 0.32000
F 	F 	0.79095 0.78057 0.01606 -0.38700
H 	H 	0.74148 0.61777 0.01391 0.11300
H 	H 	0.90346 0.76588 0.90742 0.11800
F 	F 	0.85367 0.60318 0.90503 -0.42600
C 	C 	0.86355 0.09805 0.93503 -0.13000
C 	C 	0.85108 0.04254 0.96214 -0.03700
C 	C 	0.80843 0.04070 0.99366 0.25800
C 	C 	0.78347 0.09756 0.99930 -0.07000
C 	C 	0.80017 0.15663 0.97333 -0.14000
C 	C 	0.83800 0.15457 0.94043 0.35900
F 	F 	0.85003 0.20697 0.91369 -0.43100
H 	H 	0.89586 0.09956 0.91043 0.10800
H 	H 	0.75327 0.09728 0.02450 0.08500
F 	F 	0.79585 0.98760 0.02014 -0.35300
C 	C 	0.17948 0.15293 0.94883 -0.12400
C 	C 	0.13780 0.08070 0.96890 -0.04300
C 	C 	0.19181 0.06414 0.99134 0.26400
C 	C 	0.28575 0.11661 0.99209 -0.06800
C 	C 	0.32711 0.18708 0.97098 -0.13300
C 	C 	0.27371 0.20640 0.95009 0.36200
F 	F 	0.31317 0.27744 0.93136 -0.42700
H 	H 	0.13865 0.16696 0.93182 0.11800
H 	H 	0.32623 0.10168 0.00868 0.10000
F 	F 	0.15339 0.99771 0.01270 -0.36000
