data_crystal

_cell_length_a 18.58602
_cell_length_b 18.80903
_cell_length_c 43.17781
_cell_angle_alpha 95.45864
_cell_angle_beta  95.45711
_cell_angle_gamma 126.40389

_symmetry_space_group_name_	'P 1'
_symmetry_space_group_name_H-M	'P 1'

loop_
_symmetry_equiv_pos_as_xyz
  x,y,z

loop_
_atom_site_label
_atom_site_type_symbol
_atom_site_fract_x
_atom_site_fract_y
_atom_site_fract_z
_atom_site_charge
C 	C 	0.92624 0.99789 0.97358 0.19900
N 	N 	0.88038 0.90896 0.97469 -0.11900
C 	C 	0.92577 0.87277 0.97551 0.17500
N 	N 	0.01644 0.92555 0.97569 -0.10600
C 	C 	0.06178 0.01374 0.97433 0.17400
N 	N 	0.01663 0.04971 0.97305 -0.12200
C 	C 	0.92850 0.03017 0.49665 0.16300
N 	N 	0.87637 0.94122 0.49777 -0.11000
C 	C 	0.91327 0.89703 0.49713 0.17700
N 	N 	0.00250 0.94191 0.49572 -0.10500
C 	C 	0.05528 0.03113 0.49524 0.17600
N 	N 	0.01827 0.07542 0.49553 -0.10800
Cu	Cu	0.77282 0.34168 0.96782 0.93200
Cu	Cu	0.76690 0.27955 0.03644 0.89100
Cu	Cu	0.62869 0.29481 0.00816 0.90400
Cu	Cu	0.59991 0.32938 0.94345 0.90900
C 	C 	0.70044 0.29895 0.90091 0.29300
O 	O 	0.82439 0.47172 0.96565 -0.33500
C 	C 	0.68927 0.33140 0.07800 0.29100
O 	O 	0.63083 0.26560 0.96469 -0.63800
O 	O 	0.76270 0.35950 0.01272 -0.63700
O 	O 	0.83602 0.28505 0.97235 -0.34300
O 	O 	0.73829 0.19093 0.00213 -0.41400
O 	O 	0.66037 0.33658 0.90681 -0.35400
O 	O 	0.49773 0.22322 0.00111 -0.36000
C 	C 	0.44698 0.22443 0.97792 0.33700
C 	C 	0.78173 0.50456 0.97415 0.32400
O 	O 	0.69775 0.45014 0.97845 -0.37000
O 	O 	0.48322 0.28118 0.95822 -0.36200
O 	O 	0.75948 0.30602 0.92321 -0.33500
C 	C 	0.79786 0.21066 0.98392 0.33200
O 	O 	0.62599 0.31046 0.05392 -0.35700
O 	O 	0.76290 0.33986 0.07341 -0.39200
H 	H 	0.59289 0.20030 0.95600 0.18400
H 	H 	0.79975 0.42271 0.02402 0.20000
Cu	Cu	0.59568 0.19588 0.50398 0.93300
Cu	Cu	0.65770 0.20611 0.43505 0.89100
Cu	Cu	0.64260 0.34121 0.46537 0.90500
Cu	Cu	0.60817 0.36500 0.53047 0.90900
C 	C 	0.63955 0.26278 0.57125 0.29300
O 	O 	0.46504 0.14456 0.50676 -0.33800
C 	C 	0.60364 0.28542 0.39523 0.29100
O 	O 	0.67294 0.33647 0.50835 -0.63900
O 	O 	0.57721 0.20868 0.45953 -0.63800
O 	O 	0.64988 0.13167 0.49785 -0.34700
O 	O 	0.74655 0.22995 0.46879 -0.41400
O 	O 	0.60128 0.30263 0.56628 -0.35300
O 	O 	0.71477 0.47051 0.47359 -0.36200
C 	C 	0.71101 0.51901 0.49664 0.33800
C 	C 	0.43130 0.18627 0.49850 0.32700
O 	O 	0.48599 0.27025 0.49518 -0.37000
O 	O 	0.65640 0.48196 0.51713 -0.36100
O 	O 	0.63251 0.20609 0.54824 -0.33500
C 	C 	0.72510 0.16938 0.48637 0.33600
O 	O 	0.62676 0.34712 0.41999 -0.35700
O 	O 	0.59685 0.21286 0.39871 -0.39300
H 	H 	0.73907 0.37374 0.51693 0.18500
H 	H 	0.51323 0.17242 0.44830 0.20100
C 	C 	0.69903 0.27208 0.86759 -0.06100
C 	C 	0.78091 0.31152 0.85632 0.02900
C 	C 	0.77964 0.30024 0.82372 -0.05200
C 	C 	0.69648 0.24891 0.80216 0.03500
C 	C 	0.61453 0.20424 0.81357 -0.05200
C 	C 	0.61583 0.21620 0.84613 0.02100
C 	C 	0.69533 0.25028 0.76796 0.00900
C 	C 	0.65596 0.28500 0.75241 -0.02900
C 	C 	0.65557 0.28756 0.72018 -0.02900
C 	C 	0.69526 0.25616 0.70317 0.00900
C 	C 	0.73472 0.22140 0.71867 -0.03000
C 	C 	0.73473 0.21844 0.75096 -0.03000
C 	C 	0.69461 0.25917 0.66908 0.03500
C 	C 	0.73403 0.34142 0.65886 -0.05200
C 	C 	0.72025 0.34297 0.62662 0.02200
C 	C 	0.66769 0.26240 0.60425 -0.06100
C 	C 	0.63346 0.18068 0.61428 0.02900
C 	C 	0.64661 0.17905 0.64659 -0.05200
H 	H 	0.84557 0.35454 0.87269 0.06100
H 	H 	0.84330 0.33454 0.81519 0.06400
H 	H 	0.54993 0.16314 0.79715 0.06300
H 	H 	0.55223 0.18453 0.85461 0.04600
H 	H 	0.62600 0.31037 0.76535 0.05800
H 	H 	0.62432 0.31386 0.70838 0.05800
H 	H 	0.76556 0.19702 0.70576 0.05700
H 	H 	0.76522 0.19143 0.76274 0.05600
H 	H 	0.77256 0.40381 0.67600 0.06300
H 	H 	0.74809 0.40654 0.61910 0.04600
H 	H 	0.59311 0.11805 0.59722 0.06100
H 	H 	0.61638 0.11524 0.65419 0.06400
C 	C 	0.58931 0.30009 0.36283 -0.06800
C 	C 	0.54590 0.22831 0.33687 0.01900
C 	C 	0.54594 0.24445 0.30594 -0.05500
C 	C 	0.58804 0.33230 0.30053 0.03200
C 	C 	0.62551 0.40311 0.32638 -0.05200
C 	C 	0.62649 0.38722 0.35737 0.01900
C 	C 	0.60126 0.35123 0.26820 0.00900
C 	C 	0.68958 0.41137 0.26223 -0.03100
C 	C 	0.70378 0.41831 0.23110 -0.03100
C 	C 	0.63001 0.36432 0.20560 0.00900
C 	C 	0.54118 0.30829 0.21159 -0.03000
C 	C 	0.52682 0.30215 0.24277 -0.03000
C 	C 	0.64673 0.35836 0.17300 0.03300
C 	C 	0.69958 0.33066 0.16579 -0.05600
C 	C 	0.71426 0.32305 0.13494 0.01900
C 	C 	0.67583 0.34258 0.11080 -0.07000
C 	C 	0.62297 0.37050 0.11800 0.02300
C 	C 	0.60858 0.37844 0.14900 -0.05300
H 	H 	0.51458 0.16035 0.34063 0.05300
H 	H 	0.51622 0.18913 0.28620 0.05800
H 	H 	0.65663 0.47093 0.32248 0.06600
H 	H 	0.65916 0.44319 0.37707 0.06600
H 	H 	0.74755 0.44994 0.28163 0.05200
H 	H 	0.77249 0.46286 0.22674 0.05400
H 	H 	0.48366 0.26686 0.19210 0.05700
H 	H 	0.45821 0.25676 0.24712 0.05600
H 	H 	0.72848 0.31405 0.18406 0.05800
H 	H 	0.75426 0.30044 0.12969 0.04500
H 	H 	0.59337 0.38635 0.09968 0.06600
H 	H 	0.56787 0.40013 0.15434 0.06700
C 	C 	0.79097 0.73774 0.47111 0.07900
C 	C 	0.85676 0.80062 0.49786 -0.04300
C 	C 	0.87228 0.77087 0.52461 0.08000
C 	C 	0.82665 0.67852 0.52380 0.11700
C 	C 	0.76031 0.61558 0.49716 -0.11400
C 	C 	0.74025 0.64525 0.47127 0.11900
Br	Br	0.64037 0.55942 0.43680 -0.17200
Br	Br	0.77344 0.77826 0.43372 -0.13600
Br	Br	0.85805 0.63836 0.55848 -0.19600
Br	Br	0.95386 0.85664 0.56269 -0.13600
C 	C 	0.88030 0.11728 0.52125 0.07700
C 	C 	0.88572 0.07506 0.49382 -0.04100
C 	C 	0.84045 0.06600 0.46400 0.07800
C 	C 	0.78354 0.09207 0.46180 0.12000
C 	C 	0.77809 0.13461 0.48919 -0.12100
C 	C 	0.82754 0.14832 0.51889 0.11900
Br	Br	0.82451 0.21116 0.55615 -0.18300
Br	Br	0.94475 0.13193 0.56199 -0.15300
Br	Br	0.70852 0.06418 0.42164 -0.24700
Br	Br	0.85806 0.01944 0.42610 -0.14600
C 	C 	0.30150 0.13831 0.52599 0.11400
C 	C 	0.33419 0.14372 0.49749 -0.11400
C 	C 	0.27650 0.11841 0.46832 0.11700
C 	C 	0.18592 0.08634 0.46765 0.08000
C 	C 	0.15322 0.08015 0.49613 -0.04200
C 	C 	0.21179 0.10866 0.52531 0.08100
Br	Br	0.16897 0.10789 0.56436 -0.13200
Br	Br	0.37958 0.17151 0.56599 -0.17900
Br	Br	0.10607 0.04999 0.42777 -0.14000
Br	Br	0.32124 0.12637 0.42928 -0.19700
C 	C 	0.82730 0.63145 0.94595 0.11300
C 	C 	0.82307 0.60035 0.97470 -0.11200
C 	C 	0.84505 0.65706 0.00353 0.11600
C 	C 	0.87175 0.74464 0.00362 0.08000
C 	C 	0.87681 0.77583 0.97493 -0.04300
C 	C 	0.85181 0.71815 0.94606 0.08100
Br	Br	0.85108 0.75832 0.90664 -0.13800
Br	Br	0.79978 0.55547 0.90642 -0.18000
Br	Br	0.90266 0.82261 0.04306 -0.13900
Br	Br	0.84047 0.61533 0.04294 -0.19500
C 	C 	0.84203 0.04980 0.94886 0.07200
C 	C 	0.88096 0.04068 0.97637 -0.05900
C 	C 	0.89150 0.08659 0.00616 0.08400
C 	C 	0.87182 0.14827 0.00825 0.11700
C 	C 	0.83203 0.15704 0.98084 -0.11800
C 	C 	0.81620 0.10688 0.95113 0.11800
Br	Br	0.75784 0.11509 0.91372 -0.18500
Br	Br	0.82474 0.98446 0.90814 -0.12800
Br	Br	0.90526 0.22527 0.04829 -0.24900
Br	Br	0.93166 0.06367 0.04415 -0.14900
C 	C 	0.28724 0.10585 0.94997 0.11900
C 	C 	0.34858 0.17134 0.97698 -0.11600
C 	C 	0.31550 0.18743 0.00267 0.12100
C 	C 	0.22133 0.13466 0.00202 0.07800
C 	C 	0.16005 0.07047 0.97476 -0.04000
C 	C 	0.19307 0.05767 0.94845 0.06700
Br	Br	0.10923 0.97617 0.90999 -0.11000
Br	Br	0.33228 0.07966 0.91565 -0.20500
Br	Br	0.17634 0.14741 0.03898 -0.13600
Br	Br	0.39889 0.28467 0.03800 -0.17200
