data_crystal

_cell_length_a 17.03808
_cell_length_b 15.53940
_cell_length_c 47.32183
_cell_angle_alpha 90.48152
_cell_angle_beta  91.01270
_cell_angle_gamma 110.98879

_symmetry_space_group_name_	'P 1'
_symmetry_space_group_name_H-M	'P 1'

loop_
_symmetry_equiv_pos_as_xyz
  x,y,z

loop_
_atom_site_label
_atom_site_type_symbol
_atom_site_fract_x
_atom_site_fract_y
_atom_site_fract_z
_atom_site_charge
C 	C 	0.02938 0.59736 0.99552 0.00300
H 	H 	0.03080 0.51111 0.47822 0.02700
C 	C 	0.03473 0.26495 0.29511 0.26000
O 	O 	0.07413 0.26942 0.81172 -0.28400
C 	C 	0.03811 0.33950 0.34240 -0.05300
H 	H 	0.08509 0.58968 0.98669 0.03700
H 	H 	0.04906 0.40813 0.38267 0.03300
O 	O 	0.01084 0.06198 0.66134 -0.35000
C 	C 	0.06754 0.05479 0.19276 0.29700
C 	C 	0.02981 0.62180 0.02284 -0.15400
H 	H 	0.10379 0.90339 0.20366 0.02200
O 	O 	0.01373 0.17107 0.74571 -0.41300
C 	C 	0.06863 0.34449 0.31483 -0.01400
O 	O 	0.05027 0.01874 0.71837 -0.65700
Ni	Ni	0.07091 0.18185 0.24056 1.06600
C 	C 	0.06235 0.62305 0.43398 0.30800
C 	C 	0.07390 0.41254 0.36159 0.04200
O 	O 	0.06154 0.64750 0.40718 -0.38700
C 	C 	0.07299 0.40413 0.18657 -0.04500
H 	H 	0.04828 0.81792 0.29217 0.02600
O 	O 	0.08922 0.14184 0.20071 -0.40500
O 	O 	0.08927 0.23952 0.28115 -0.39900
C 	C 	0.06896 0.45908 0.13884 -0.14900
H 	H 	0.09231 0.32932 0.80191 0.14400
H 	H 	0.08698 0.98932 0.70968 0.13500
O 	O 	0.07609 0.75745 0.35643 -0.36200
H 	H 	0.10523 0.41170 0.20688 0.03900
C 	C 	0.07262 0.83753 0.34894 0.24500
O 	O 	0.11639 0.97291 0.77337 -0.41500
C 	C 	0.13329 0.93860 0.18481 -0.03300
C 	C 	0.10711 0.46964 0.16581 0.02700
C 	C 	0.12779 0.02387 0.17788 -0.09700
O 	O 	0.10356 0.66122 0.06784 -0.37700
C 	C 	0.10065 0.62701 0.04213 0.31100
C 	C 	0.07341 0.14115 0.66559 0.30800
O 	O 	0.10199 0.49572 0.08964 -0.39500
C 	C 	0.11011 0.52474 0.11648 0.30200
C 	C 	0.13506 0.42367 0.30663 -0.10900
O 	O 	0.13348 0.63768 0.44849 -0.42600
C 	C 	0.14045 0.49167 0.35349 -0.15400
H 	H 	0.11424 0.14219 0.13502 0.15600
O 	O 	0.07756 0.18924 0.68897 -0.41400
H 	H 	0.17126 0.82734 0.17131 0.03400
H 	H 	0.13169 0.29747 0.63559 0.02100
Ni	Ni	0.11257 0.14804 0.72741 1.07200
O 	O 	0.11934 0.91408 0.36244 -0.41200
C 	C 	0.17134 0.89541 0.16646 -0.01000
O 	O 	0.14052 0.61390 0.12279 -0.38400
H 	H 	0.15890 0.42829 0.28540 0.06200
C 	C 	0.17147 0.49680 0.32589 0.20300
C 	C 	0.16758 0.06961 0.15355 0.17200
Ni	Ni	0.15776 0.74939 0.38774 1.09800
C 	C 	0.17722 0.05523 0.77322 0.35700
C 	C 	0.17405 0.57053 0.37337 0.34100
O 	O 	0.16019 0.12917 0.76596 -0.40600
O 	O 	0.18390 0.55525 0.40028 -0.40700
O 	O 	0.17290 0.80679 0.10993 -0.37800
O 	O 	0.16565 0.15469 0.14698 -0.28900
O 	O 	0.15436 0.58843 0.03463 -0.42200
O 	O 	0.18567 0.65353 0.36442 -0.39700
C 	C 	0.14540 0.16892 0.64667 -0.15400
C 	C 	0.17068 0.25581 0.63413 0.03000
H 	H 	0.16487 0.52717 0.17042 0.02000
C 	C 	0.20544 0.93771 0.14122 -0.08200
H 	H 	0.19221 0.99146 0.82542 0.00300
C 	C 	0.20719 0.02672 0.13546 -0.04600
Ni	Ni	0.20934 0.70431 0.09400 1.10100
Ni	Ni	0.20030 0.51804 0.06246 1.06800
C 	C 	0.22929 0.88466 0.11948 0.26400
O 	O 	0.23677 0.57343 0.31763 -0.30000
H 	H 	0.14169 0.98627 0.64257 0.12200
H 	H 	0.24428 0.78098 0.04561 0.15500
Ni	Ni	0.24488 0.65314 0.43060 1.06900
H 	H 	0.24070 0.80963 0.43227 0.15200
C 	C 	0.25518 0.07030 0.78963 -0.16700
H 	H 	0.23508 0.06051 0.11622 0.04400
C 	C 	0.25072 0.03957 0.81758 0.09700
O 	O 	0.17385 0.03128 0.65738 -0.27900
C 	C 	0.19700 0.11575 0.64482 0.18700
O 	O 	0.24231 0.98040 0.40688 -0.42400
O 	O 	0.25054 0.77298 0.41646 -0.70300
C 	C 	0.24728 0.29022 0.62029 -0.05100
H 	H 	0.26594 0.35728 0.61057 0.02400
Ni	Ni	0.25085 0.96389 0.36429 1.05500
O 	O 	0.25637 0.84189 0.36731 -0.70700
H 	H 	0.26486 0.81885 0.34846 0.15700
O 	O 	0.27900 0.78404 0.06284 -0.70800
H 	H 	0.28845 0.56057 0.32229 0.14200
H 	H 	0.27148 0.09138 0.45159 0.07100
O 	O 	0.27559 0.62857 0.08138 -0.70600
O 	O 	0.28698 0.51599 0.03171 -0.41300
O 	O 	0.30910 0.90739 0.11303 -0.42400
C 	C 	0.27455 0.15129 0.63144 -0.09400
H 	H 	0.30417 0.61233 0.09777 0.15600
C 	C 	0.33193 0.13265 0.77978 0.21000
O 	O 	0.33946 0.15774 0.75194 -0.31000
C 	C 	0.31991 0.07609 0.83609 -0.06300
H 	H 	0.31496 0.05417 0.85787 0.07000
C 	C 	0.30707 0.99580 0.42411 0.26900
C 	C 	0.30013 0.23885 0.61930 -0.02700
H 	H 	0.32711 0.21543 0.75120 0.13300
C 	C 	0.31772 0.05901 0.44848 -0.10400
O 	O 	0.00030 0.06351 0.77965 -0.35100
Ni	Ni	0.00382 0.95704 0.75427 1.08900
O 	O 	0.00659 0.26015 0.22597 -0.43200
H 	H 	0.31428 0.11038 0.63025 0.08100
H 	H 	0.33668 0.46118 0.98522 0.04000
Ni	Ni	0.34675 0.91262 0.07123 1.06500
Ni	Ni	0.35175 0.84962 0.39345 1.10100
O 	O 	0.36380 0.66964 0.41635 -0.42300
Ni	Ni	0.35796 0.71843 0.05515 1.10000
H 	H 	0.36184 0.19453 0.48859 0.03300
O 	O 	0.36748 0.96512 0.41793 -0.38300
C 	C 	0.36936 0.54186 0.03615 0.29300
O 	O 	0.37283 0.28733 0.57608 -0.40500
O 	O 	0.37845 0.03698 0.36488 -0.38900
C 	C 	0.37811 0.27305 0.60327 0.26600
H 	H 	0.37846 0.40929 0.94058 0.08400
O 	O 	0.38490 0.92769 0.03056 -0.43300
C 	C 	0.38506 0.07998 0.46600 -0.00700
C 	C 	0.39409 0.14348 0.82680 -0.00800
C 	C 	0.39642 0.46390 0.99452 0.00400
H 	H 	0.00250 0.51978 0.94463 0.08000
C 	C 	0.39978 0.15115 0.48840 0.02100
C 	C 	0.40089 0.16937 0.79844 -0.11500
O 	O 	0.41270 0.62366 0.04712 -0.37900
C 	C 	0.00045 0.32654 0.18057 -0.02900
C 	C 	0.41610 0.49242 0.02141 -0.14500
C 	C 	0.42940 0.73880 0.42620 0.29600
H 	H 	0.43004 0.04553 0.46356 0.05600
O 	O 	0.43212 0.75938 0.09082 -0.39100
C 	C 	0.43316 0.88630 0.01915 0.32100
H 	H 	0.43365 0.05280 0.30198 0.02700
C 	C 	0.43685 0.00426 0.35670 0.29300
C 	C 	0.99928 0.83829 0.33245 -0.01900
C 	C 	0.99892 0.83308 0.30287 -0.05000
C 	C 	0.98521 0.13533 0.77018 0.32100
C 	C 	0.98791 0.23817 0.81082 0.20200
C 	C 	0.99249 0.38527 0.13345 0.19900
H 	H 	0.97569 0.63370 0.03138 0.08000
Ni	Ni	0.75817 0.35378 0.89617 1.09700
O 	O 	0.66066 0.29875 0.86776 -0.70700
Ni	Ni	0.56857 0.32523 0.88732 1.09800
O 	O 	0.83847 0.31294 0.87235 -0.36000
O 	O 	0.74731 0.16496 0.86747 -0.39700
O 	O 	0.80175 0.47602 0.87423 -0.36300
Ni	Ni	0.62528 0.16364 0.86475 1.06600
O 	O 	0.82740 0.54221 0.92730 -0.41200
O 	O 	0.61562 0.14301 0.90747 -0.41100
O 	O 	0.47887 0.26967 0.85649 -0.36800
O 	O 	0.66395 0.37315 0.91738 -0.70100
O 	O 	0.85037 0.40637 0.92611 -0.39100
O 	O 	0.48786 0.37694 0.90664 -0.37100
O 	O 	0.57738 0.50568 0.92899 -0.40700
Ni	Ni	0.69913 0.50596 0.92553 1.06500
H 	H 	0.67166 0.32802 0.84902 0.15300
H 	H 	0.65300 0.33821 0.93516 0.14900
C 	C 	0.55942 0.16314 0.92203 0.30200
O 	O 	0.69787 0.53266 0.88362 -0.41500
C 	C 	0.81100 0.23446 0.85816 0.26100
C 	C 	0.46486 0.18565 0.84661 0.25500
C 	C 	0.75580 0.52528 0.86680 0.25800
C 	C 	0.50940 0.43059 0.92920 0.30500
C 	C 	0.86700 0.48902 0.93706 0.30700
O 	O 	0.51532 0.20775 0.91029 -0.37700
O 	O 	0.49872 0.13185 0.85947 -0.39600
Ni	Ni	0.65505 0.42220 0.54479 1.09900
O 	O 	0.56248 0.40992 0.57379 -0.69700
Ni	Ni	0.54919 0.28493 0.58946 1.09700
O 	O 	0.63739 0.52183 0.51977 -0.37200
O 	O 	0.50794 0.51628 0.53275 -0.41800
O 	O 	0.74178 0.52570 0.56903 -0.36400
Ni	Ni	0.45401 0.39769 0.55583 1.06500
O 	O 	0.83332 0.41561 0.55624 -0.41500
O 	O 	0.47183 0.31328 0.52527 -0.42800
O 	O 	0.44745 0.26708 0.61418 -0.38200
O 	O 	0.64808 0.30493 0.56345 -0.70800
O 	O 	0.74950 0.42566 0.51869 -0.38500
O 	O 	0.56190 0.16850 0.60591 -0.36300
O 	O 	0.69856 0.24876 0.61888 -0.40400
Ni	Ni	0.75357 0.32819 0.58427 1.06500
H 	H 	0.57952 0.45838 0.58875 0.15800
H 	H 	0.63809 0.25434 0.54941 0.15400
C 	C 	0.47219 0.23069 0.53135 0.29400
O 	O 	0.74197 0.43472 0.60649 -0.41800
C 	C 	0.56253 0.52237 0.51294 0.31100
C 	C 	0.76204 0.51650 0.59554 0.27300
C 	C 	0.63391 0.17062 0.61706 0.25800
C 	C 	0.81960 0.41787 0.52861 0.30100
O 	O 	0.47161 0.20443 0.55787 -0.37200
Ni	Ni	0.94188 0.99632 0.69520 1.08800
O 	O 	0.95052 0.87393 0.68243 -0.40400
O 	O 	0.73496 0.90931 0.70842 -0.42200
O 	O 	0.89685 0.95453 0.73331 -0.73500
O 	O 	0.83090 0.96364 0.67261 -0.38800
O 	O 	0.94021 0.86557 0.78452 -0.36900
O 	O 	0.85939 0.76417 0.75085 -0.42200
Ni	Ni	0.80052 0.84016 0.72867 1.07000
H 	H 	0.87572 0.00096 0.74119 0.18400
O 	O 	0.81356 0.78406 0.69055 -0.40000
C 	C 	0.88389 0.80008 0.67696 0.34300
C 	C 	0.88353 0.78453 0.77748 0.29900
C 	C 	0.75806 0.95364 0.68426 0.32300
O 	O 	0.44463 0.93138 0.36895 -0.40100
O 	O 	0.43898 0.82359 0.41915 -0.38300
O 	O 	0.46331 0.91250 0.08337 -0.40100
O 	O 	0.44543 0.81525 0.03124 -0.38700
C 	C 	0.47548 0.84570 0.09741 0.27900
Ni	Ni	0.90096 0.04084 0.21129 1.10500
O 	O 	0.81423 0.07684 0.23259 -0.69900
Ni	Ni	0.87844 0.13023 0.26826 1.10000
O 	O 	0.81815 0.98611 0.17803 -0.38500
O 	O 	0.71864 0.89272 0.20680 -0.42000
O 	O 	0.94001 0.16320 0.18914 -0.35900
Ni	Ni	0.71949 0.96700 0.24356 1.04900
O 	O 	0.79300 0.90240 0.26195 -0.41700
O 	O 	0.78544 0.16511 0.28605 -0.37400
O 	O 	0.96345 0.08430 0.24860 -0.69500
O 	O 	0.98815 0.00105 0.19211 -0.36900
O 	O 	0.95918 0.20466 0.29972 -0.35500
H 	H 	0.79564 0.12194 0.22246 0.15700
H 	H 	0.97381 0.03320 0.25830 0.16300
C 	C 	0.83675 0.93544 0.28522 0.28100
C 	C 	0.73989 0.93268 0.18233 0.30500
C 	C 	0.70906 0.10223 0.28767 0.30900
C 	C 	0.97558 0.24756 0.19999 0.27200
O 	O 	0.84655 0.01856 0.29437 -0.33100
O 	O 	0.69595 0.01484 0.28160 -0.39000
C 	C 	0.95890 0.31909 0.15423 -0.09700
H 	H 	0.90153 0.26101 0.14962 0.07600
O 	O 	0.95113 0.37692 0.10786 -0.28800
H 	H 	0.91269 0.41154 0.11016 0.15300
C 	C 	0.54665 0.86735 0.11803 -0.02100
C 	C 	0.60225 0.95869 0.12228 -0.07500
C 	C 	0.66780 0.97906 0.14237 -0.00200
C 	C 	0.67818 0.90872 0.15866 -0.14700
C 	C 	0.62427 0.81677 0.15386 0.19300
C 	C 	0.55905 0.79642 0.13361 -0.10500
H 	H 	0.70904 0.05000 0.14586 0.05000
H 	H 	0.51769 0.72547 0.13025 0.07200
H 	H 	0.59439 0.01411 0.11023 0.07800
O 	O 	0.63703 0.74639 0.16823 -0.28700
H 	H 	0.59943 0.73490 0.18465 0.14200
C 	C 	0.50747 0.06369 0.34029 -0.02800
C 	C 	0.49638 0.07441 0.31131 -0.04400
C 	C 	0.56618 0.10382 0.29386 0.02400
C 	C 	0.64711 0.12130 0.30531 -0.14000
C 	C 	0.65889 0.12587 0.33487 0.20100
C 	C 	0.58890 0.09582 0.35229 -0.08700
H 	H 	0.55658 0.10346 0.27116 0.01000
H 	H 	0.59795 0.09147 0.37489 0.08500
O 	O 	0.73810 0.14846 0.34657 -0.27000
H 	H 	0.75834 0.21611 0.34984 0.15200
H 	H 	0.98739 0.27855 0.34913 0.07000
C 	C 	0.93812 0.85392 0.28699 0.01800
C 	C 	0.87831 0.88145 0.30067 -0.14500
C 	C 	0.87292 0.87601 0.33030 0.19500
C 	C 	0.93386 0.85532 0.34610 -0.10000
H 	H 	0.94161 0.85565 0.26415 0.01000
H 	H 	0.93243 0.85666 0.36898 0.07100
O 	O 	0.81186 0.89769 0.34392 -0.28500
H 	H 	0.76381 0.83853 0.34534 0.14800
C 	C 	0.45882 0.16183 0.50860 -0.14900
H 	H 	0.49339 0.11511 0.50943 0.07200
C 	C 	0.89248 0.43981 0.50993 -0.14100
C 	C 	0.89618 0.48712 0.48601 0.00500
C 	C 	0.97583 0.52472 0.47058 0.01500
C 	C 	0.98144 0.57805 0.44793 -0.14600
H 	H 	0.94712 0.42491 0.51716 0.06600
H 	H 	0.92562 0.58805 0.43949 0.07800
H 	H 	0.84190 0.50267 0.47872 0.04700
C 	C 	0.47862 0.72447 0.45041 -0.16300
C 	C 	0.48614 0.64259 0.45476 -0.00000
C 	C 	0.51597 0.62216 0.48253 0.00700
C 	C 	0.54923 0.55627 0.48497 -0.15000
H 	H 	0.50743 0.65852 0.50130 0.02900
H 	H 	0.50549 0.78030 0.46575 0.07000
H 	H 	0.56456 0.52536 0.46618 0.07300
H 	H 	0.46563 0.58894 0.43845 0.03300
C 	C 	0.63520 0.09448 0.63488 -0.02500
C 	C 	0.65310 0.02120 0.62279 -0.01100
C 	C 	0.68470 0.96719 0.63969 -0.00300
C 	C 	0.69891 0.98646 0.66878 -0.17900
C 	C 	0.67037 0.05184 0.68141 0.23000
C 	C 	0.63863 0.10573 0.66439 -0.10300
H 	H 	0.70368 0.91467 0.62989 0.04400
H 	H 	0.62281 0.16089 0.67394 0.07300
H 	H 	0.64876 0.01062 0.60007 0.03600
O 	O 	0.68130 0.06963 0.70994 -0.30700
H 	H 	0.62856 0.02848 0.71843 0.15500
C 	C 	0.81260 0.59815 0.61263 -0.02500
C 	C 	0.86149 0.58818 0.63574 -0.04700
C 	C 	0.89574 0.66040 0.65530 0.03300
C 	C 	0.88177 0.74319 0.65191 -0.15500
C 	C 	0.84292 0.75760 0.62678 0.20100
C 	C 	0.80736 0.68467 0.60739 -0.10500
H 	H 	0.92750 0.64942 0.67421 0.02100
H 	H 	0.77237 0.69428 0.58910 0.07400
H 	H 	0.86967 0.52308 0.63927 0.04300
O 	O 	0.83292 0.84024 0.62242 -0.29400
H 	H 	0.88372 0.87829 0.61225 0.14700
C 	C 	0.95171 0.57299 0.97773 0.00800
C 	C 	0.94760 0.53177 0.95245 -0.14400
H 	H 	0.89625 0.58269 0.98604 0.01800
C 	C 	0.47754 0.92285 0.99294 -0.19800
C 	C 	0.49845 0.01216 0.98660 0.06400
C 	C 	0.53307 0.04677 0.95873 -0.00400
C 	C 	0.54283 0.13303 0.95136 -0.14100
H 	H 	0.54518 0.00025 0.94356 0.04900
H 	H 	0.49342 0.87652 0.97873 0.08000
H 	H 	0.52821 0.17831 0.96633 0.06400
H 	H 	0.48662 0.05926 0.00163 0.02800
C 	C 	0.44260 0.42807 0.94872 -0.14900
C 	C 	0.46014 0.44962 0.97615 0.01000
H 	H 	0.47555 0.49432 0.03068 0.07000
H 	H 	0.52337 0.46289 0.98454 0.01600
C 	C 	0.85659 0.22114 0.83348 -0.02800
C 	C 	0.81183 0.16950 0.81009 -0.04400
C 	C 	0.85479 0.14969 0.78760 0.03200
C 	C 	0.94278 0.18035 0.78844 -0.14700
C 	C 	0.94471 0.25836 0.83330 -0.09400
H 	H 	0.81957 0.10610 0.77026 0.01700
H 	H 	0.97976 0.29991 0.85103 0.08200
H 	H 	0.74369 0.14293 0.80964 0.01700
H 	H 	0.45921 0.21885 0.79091 0.05900
C 	C 	0.78295 0.58941 0.84303 -0.02300
C 	C 	0.81464 0.56316 0.81854 -0.04900
C 	C 	0.84584 0.62637 0.79687 0.03100
C 	C 	0.84654 0.71668 0.79962 -0.15100
C 	C 	0.81287 0.74239 0.82383 0.19000
C 	C 	0.78150 0.67899 0.84543 -0.10000
H 	H 	0.87097 0.60567 0.77820 0.02700
H 	H 	0.75764 0.70018 0.86429 0.06800
H 	H 	0.81560 0.49407 0.81637 0.04300
O 	O 	0.81205 0.83002 0.82667 -0.29100
H 	H 	0.75750 0.82719 0.81820 0.12300
