data_crystal

_cell_length_a 26.12916
_cell_length_b 26.39878
_cell_length_c 26.42267
_cell_angle_alpha 95.48093
_cell_angle_beta  95.48003
_cell_angle_gamma 125.85059

_symmetry_space_group_name_	'P 1'
_symmetry_space_group_name_H-M	'P 1'

loop_
_symmetry_equiv_pos_as_xyz
  x,y,z

loop_
_atom_site_label
_atom_site_type_symbol
_atom_site_fract_x
_atom_site_fract_y
_atom_site_fract_z
_atom_site_charge
C 	C 	0.95723 0.01855 0.98343 0.11700
N 	N 	0.92327 0.95449 0.97817 -0.11900
C 	C 	0.95291 0.92667 0.97145 0.12900
N 	N 	0.01656 0.96289 0.96995 -0.11300
C 	C 	0.05074 0.02703 0.97542 0.12900
N 	N 	0.02107 0.05490 0.98227 -0.11900
C 	C 	0.94782 0.01045 0.45489 0.11600
N 	N 	0.91235 0.94706 0.45518 -0.11900
C 	C 	0.94202 0.91909 0.46187 0.12900
N 	N 	0.00701 0.95451 0.46802 -0.11300
C 	C 	0.04232 0.01768 0.46735 0.12900
N 	N 	0.01273 0.04561 0.46081 -0.12000
Cu	Cu	0.62660 0.23076 0.00354 0.93500
Cu	Cu	0.67070 0.22347 0.89262 0.88900
Cu	Cu	0.66707 0.32951 0.93499 0.91100
Cu	Cu	0.65328 0.36247 0.04094 0.91800
C 	C 	0.65863 0.28414 0.11136 0.31000
O 	O 	0.53913 0.21018 0.00687 -0.34300
C 	C 	0.65139 0.29071 0.82409 0.29700
O 	O 	0.69064 0.32963 0.00625 -0.63300
O 	O 	0.61682 0.23566 0.92963 -0.63500
O 	O 	0.65159 0.17266 0.99797 -0.34300
O 	O 	0.72643 0.23129 0.94959 -0.40400
O 	O 	0.63579 0.31558 0.09951 -0.33600
O 	O 	0.72146 0.42093 0.94163 -0.31400
C 	C 	0.72228 0.46112 0.97611 0.29200
C 	C 	0.52222 0.24390 0.98809 0.28600
O 	O 	0.56655 0.30224 0.98220 -0.37900
O 	O 	0.70678 0.44799 0.02177 -0.34500
O 	O 	0.65114 0.24012 0.07637 -0.32500
C 	C 	0.70396 0.18988 0.98056 0.29400
O 	O 	0.64728 0.32517 0.86076 -0.31500
O 	O 	0.63883 0.23569 0.83019 -0.38000
H 	H 	0.73722 0.35208 0.01853 0.21900
H 	H 	0.57208 0.21190 0.91071 0.19000
Cu	Cu	0.74674 0.34927 0.43718 0.93500
Cu	Cu	0.75488 0.30727 0.54878 0.88900
Cu	Cu	0.64819 0.31180 0.50662 0.91100
Cu	Cu	0.61430 0.32449 0.40061 0.91900
C 	C 	0.69150 0.31652 0.32954 0.30900
O 	O 	0.76891 0.43636 0.43314 -0.34100
C 	C 	0.68858 0.32839 0.61749 0.29600
O 	O 	0.64691 0.28714 0.43539 -0.63300
O 	O 	0.74286 0.36047 0.51122 -0.63500
O 	O 	0.80395 0.32262 0.44259 -0.34300
O 	O 	0.74468 0.25025 0.49216 -0.40500
O 	O 	0.66056 0.34003 0.34147 -0.33400
O 	O 	0.55592 0.25868 0.50078 -0.31400
C 	C 	0.51472 0.25669 0.46597 0.29200
C 	C 	0.73539 0.45408 0.45147 0.28500
O 	O 	0.67677 0.41095 0.45845 -0.37900
O 	O 	0.52825 0.27331 0.42067 -0.34300
O 	O 	0.73602 0.32373 0.36435 -0.32600
C 	C 	0.78567 0.27081 0.46048 0.29400
O 	O 	0.65360 0.33241 0.58094 -0.31500
O 	O 	0.74394 0.34052 0.61106 -0.38100
H 	H 	0.62356 0.24086 0.42349 0.21900
H 	H 	0.76753 0.40505 0.52965 0.18900
C 	C 	0.60709 0.26136 0.73019 0.05500
C 	C 	0.65587 0.30663 0.77195 0.00300
C 	C 	0.71150 0.36361 0.76281 -0.09700
C 	C 	0.71880 0.37187 0.71150 0.05400
C 	C 	0.67274 0.32389 0.66971 0.00300
C 	C 	0.61514 0.26887 0.67888 -0.09800
C 	C 	0.56172 0.21891 0.63419 0.78000
H 	H 	0.56360 0.21933 0.73787 0.08500
H 	H 	0.76132 0.41490 0.70384 0.08500
C 	C 	0.76233 0.41613 0.80754 0.78000
F 	F 	0.51253 0.16631 0.65109 -0.43800
F 	F 	0.58542 0.19812 0.59992 -0.46600
F 	F 	0.53608 0.24479 0.60858 -0.43800
F 	F 	0.78327 0.39220 0.84132 -0.46500
F 	F 	0.73663 0.44163 0.83370 -0.43800
F 	F 	0.81544 0.46483 0.79061 -0.43700
C 	C 	0.74003 0.34496 0.25140 0.06000
C 	C 	0.69018 0.29978 0.27456 0.00600
C 	C 	0.63546 0.24281 0.24358 -0.09600
C 	C 	0.62733 0.23657 0.18943 0.06000
C 	C 	0.67463 0.28458 0.16629 0.00600
C 	C 	0.73350 0.33693 0.19722 -0.09600
C 	C 	0.78747 0.38655 0.17263 0.77900
H 	H 	0.78242 0.38789 0.27555 0.08700
H 	H 	0.58287 0.19594 0.16529 0.08600
C 	C 	0.58363 0.19077 0.26812 0.77900
F 	F 	0.84518 0.42423 0.20757 -0.43000
F 	F 	0.77266 0.42511 0.15531 -0.45600
F 	F 	0.79569 0.35734 0.13124 -0.44900
F 	F 	0.54687 0.20844 0.28525 -0.45600
F 	F 	0.61111 0.18078 0.30962 -0.45000
F 	F 	0.54372 0.13377 0.23316 -0.43000
C 	C 	0.84763 0.63436 0.48962 -0.03400
C 	C 	0.81239 0.65100 0.46172 0.02800
C 	C 	0.75001 0.60300 0.43347 -0.03400
C 	C 	0.72457 0.53844 0.43017 0.02800
C 	C 	0.76030 0.52165 0.45734 -0.06900
C 	C 	0.82114 0.56975 0.48821 0.02700
C 	C 	0.84221 0.71925 0.46017 0.01500
C 	C 	0.71232 0.62018 0.40740 0.11300
C 	C 	0.85603 0.55278 0.51910 0.09000
C 	C 	0.87294 0.74610 0.41881 -0.02000
C 	C 	0.90245 0.81088 0.41792 -0.00200
C 	C 	0.90358 0.84958 0.45943 -0.01000
C 	C 	0.87150 0.82238 0.50019 -0.00100
C 	C 	0.84004 0.75704 0.50015 -0.02100
C 	C 	0.87461 0.70709 0.37745 0.10800
C 	C 	0.87221 0.86189 0.54276 0.10700
C 	C 	0.93104 0.83763 0.37405 0.10700
C 	C 	0.80576 0.72867 0.54132 0.10700
C 	C 	0.91139 0.68379 0.51936 0.11200
C 	C 	0.66276 0.48951 0.39727 0.09100
N 	N 	0.95384 0.85898 0.33905 -0.08700
N 	N 	0.87589 0.67590 0.34447 -0.08700
N 	N 	0.87274 0.89334 0.57679 -0.08700
N 	N 	0.77839 0.70596 0.57416 -0.09200
N 	N 	0.68232 0.63397 0.38661 -0.09300
N 	N 	0.61347 0.45048 0.37104 -0.10100
N 	N 	0.88393 0.53930 0.54375 -0.10100
N 	N 	0.96226 0.72330 0.54307 -0.09400
C 	C 	0.88456 0.09245 0.39401 -0.02100
C 	C 	0.86971 0.11377 0.43723 0.01500
C 	C 	0.87539 0.09647 0.48520 -0.02300
C 	C 	0.89954 0.06116 0.49074 -0.00400
C 	C 	0.91598 0.04123 0.44786 -0.01000
C 	C 	0.90682 0.05541 0.39916 -0.00400
C 	C 	0.84965 0.15599 0.43277 0.02600
C 	C 	0.85689 0.11558 0.52893 0.10300
C 	C 	0.92044 0.03196 0.35446 0.10200
C 	C 	0.78422 0.12926 0.41718 -0.03300
C 	C 	0.76393 0.16831 0.42152 0.03000
C 	C 	0.80873 0.23369 0.44321 -0.06900
C 	C 	0.87494 0.26134 0.45408 0.02200
C 	C 	0.89540 0.22249 0.44824 -0.02900
C 	C 	0.73772 0.06142 0.39781 0.11500
C 	C 	0.92172 0.32925 0.47301 0.09300
C 	C 	0.69704 0.14135 0.40377 0.11000
C 	C 	0.96333 0.25061 0.45923 0.09500
C 	C 	0.87756 0.10921 0.34446 0.10700
C 	C 	0.90951 0.04714 0.54092 0.10200
N 	N 	0.64365 0.11982 0.38966 -0.06100
N 	N 	0.70067 0.00727 0.38236 -0.09300
N 	N 	0.95906 0.38345 0.48812 -0.09300
N 	N 	0.01752 0.27297 0.46799 -0.08200
N 	N 	0.84211 0.13089 0.56377 -0.10000
N 	N 	0.91758 0.03611 0.58101 -0.09300
N 	N 	0.93129 0.01321 0.31880 -0.09200
N 	N 	0.87193 0.12261 0.30494 -0.09000
C 	C 	0.20490 0.09794 0.42782 -0.02100
C 	C 	0.24629 0.12486 0.47652 0.01600
C 	C 	0.22075 0.11751 0.52225 -0.02000
C 	C 	0.15379 0.08258 0.51926 -0.00100
C 	C 	0.11241 0.05513 0.47055 -0.01100
C 	C 	0.13802 0.06320 0.42484 -0.00100
C 	C 	0.31694 0.16033 0.47955 0.03000
C 	C 	0.26343 0.14582 0.57228 0.11300
C 	C 	0.09545 0.03564 0.37475 0.10700
C 	C 	0.35580 0.22596 0.47840 -0.02800
C 	C 	0.42125 0.25805 0.47566 0.02700
C 	C 	0.44787 0.22448 0.47395 -0.04300
C 	C 	0.40971 0.15950 0.47777 0.03700
C 	C 	0.34435 0.12757 0.48078 -0.02700
C 	C 	0.32816 0.26020 0.47955 0.11300
C 	C 	0.43728 0.12516 0.47734 0.13400
C 	C 	0.46138 0.32567 0.47491 0.10200
C 	C 	0.30496 0.06078 0.48445 0.12200
C 	C 	0.23129 0.10593 0.38084 0.10900
C 	C 	0.12739 0.07496 0.56622 0.10700
N 	N 	0.49344 0.37962 0.47430 -0.09100
N 	N 	0.30602 0.28745 0.48046 -0.09300
N 	N 	0.45929 0.09779 0.47702 -0.07000
N 	N 	0.27346 0.00749 0.48737 -0.08900
N 	N 	0.29755 0.16844 0.61217 -0.08300
N 	N 	0.10624 0.06883 0.60364 -0.08900
N 	N 	0.06151 0.01369 0.33480 -0.08500
N 	N 	0.25244 0.11236 0.34340 -0.08800
C 	C 	0.87679 0.76694 0.01222 -0.02200
C 	C 	0.84949 0.72552 0.96374 0.01800
C 	C 	0.85532 0.75009 0.91776 -0.02000
C 	C 	0.88901 0.81612 0.92028 -0.00100
C 	C 	0.91681 0.85754 0.96876 -0.00900
C 	C 	0.91036 0.83290 0.01473 -0.00200
C 	C 	0.81515 0.65587 0.96120 0.03000
C 	C 	0.82671 0.70737 0.86797 0.11300
C 	C 	0.93842 0.87551 0.06458 0.10700
C 	C 	0.74901 0.61634 0.96287 -0.02800
C 	C 	0.71807 0.55188 0.96608 0.02700
C 	C 	0.75331 0.52694 0.96776 -0.04400
C 	C 	0.81880 0.56578 0.96350 0.03700
C 	C 	0.84956 0.63012 0.95996 -0.02700
C 	C 	0.71307 0.64227 0.96180 0.11300
C 	C 	0.85489 0.53997 0.96402 0.13500
C 	C 	0.64990 0.51103 0.96733 0.10100
C 	C 	0.91683 0.67017 0.95570 0.12200
C 	C 	0.87036 0.74154 0.05946 0.10800
C 	C 	0.89501 0.84152 0.87307 0.10700
N 	N 	0.59552 0.47841 0.96835 -0.09100
N 	N 	0.68447 0.66305 0.96094 -0.09300
N 	N 	0.88366 0.51937 0.96440 -0.06900
N 	N 	0.97050 0.70220 0.95230 -0.08900
N 	N 	0.80386 0.67321 0.82826 -0.08300
N 	N 	0.89984 0.86187 0.83544 -0.08900
N 	N 	0.96078 0.90949 0.10436 -0.08500
N 	N 	0.86518 0.72118 0.09711 -0.08900
C 	C 	0.87442 0.08096 0.04481 -0.02100
C 	C 	0.85346 0.09650 0.00185 0.01400
C 	C 	0.86965 0.08966 0.95352 -0.02100
C 	C 	0.90414 0.06453 0.94754 -0.00500
C 	C 	0.92466 0.04852 0.99038 -0.00800
C 	C 	0.91084 0.05787 0.03924 -0.00500
C 	C 	0.81315 0.11897 0.00708 0.02400
C 	C 	0.85040 0.10819 0.90992 0.10300
C 	C 	0.93423 0.04383 0.08373 0.10200
C 	C 	0.84262 0.18430 0.02289 -0.03300
C 	C 	0.80542 0.20694 0.01885 0.02900
C 	C 	0.73921 0.16457 0.99719 -0.06700
C 	C 	0.70880 0.09848 0.98611 0.02100
C 	C 	0.74576 0.07569 0.99181 -0.02800
C 	C 	0.91136 0.22828 0.04211 0.11400
C 	C 	0.64002 0.05422 0.96702 0.09300
C 	C 	0.83513 0.27371 0.03696 0.11100
C 	C 	0.71480 0.00788 0.98084 0.09600
C 	C 	0.85806 0.08832 0.09454 0.10700
C 	C 	0.91673 0.05323 0.89700 0.10200
N 	N 	0.85887 0.32700 0.05136 -0.06100
N 	N 	0.96623 0.26331 0.05745 -0.09300
N 	N 	0.58515 0.01889 0.95178 -0.09200
N 	N 	0.69018 0.95378 0.97210 -0.08100
N 	N 	0.83499 0.12299 0.87519 -0.10000
N 	N 	0.92661 0.04408 0.85663 -0.09300
N 	N 	0.95293 0.03265 0.11922 -0.09200
N 	N 	0.84498 0.09422 0.13421 -0.09000
C 	C 	0.34077 0.13063 0.94627 -0.03400
C 	C 	0.32222 0.16425 0.97350 0.03000
C 	C 	0.36938 0.22669 0.00110 -0.03500
C 	C 	0.43508 0.25349 0.00520 0.02700
C 	C 	0.45378 0.21885 0.97958 -0.06800
C 	C 	0.40648 0.15835 0.94852 0.02700
C 	C 	0.25302 0.13246 0.97557 0.01700
C 	C 	0.35013 0.26293 0.02587 0.11300
C 	C 	0.42541 0.12497 0.91845 0.09000
C 	C 	0.22748 0.10213 0.01736 -0.02100
C 	C 	0.16169 0.07024 0.01853 -0.00300
C 	C 	0.12081 0.06658 0.97695 -0.00800
C 	C 	0.14662 0.09810 0.93568 -0.00100
C 	C 	0.21289 0.13185 0.93542 -0.02100
C 	C 	0.26892 0.10335 0.05891 0.10800
C 	C 	0.10477 0.09447 0.89291 0.10800
C 	C 	0.13612 0.04182 0.06276 0.10700
C 	C 	0.23982 0.16565 0.89376 0.10800
C 	C 	0.29215 0.06716 0.91651 0.11200
C 	C 	0.48322 0.31557 0.03739 0.09200
N 	N 	0.11571 0.01916 0.09804 -0.08700
N 	N 	0.30206 0.10438 0.09202 -0.08600
N 	N 	0.07146 0.09161 0.85871 -0.08700
N 	N 	0.26138 0.19264 0.86054 -0.09200
N 	N 	0.33469 0.29178 0.04561 -0.09400
N 	N 	0.52161 0.36508 0.06305 -0.10100
N 	N 	0.44039 0.09823 0.89445 -0.10200
N 	N 	0.25329 0.01653 0.89278 -0.09400
