data_crystal

_cell_length_a 22.47901
_cell_length_b 20.18420
_cell_length_c 49.82045
_cell_angle_alpha 89.84471
_cell_angle_beta  89.84862
_cell_angle_gamma 119.41181

_symmetry_space_group_name_	'P 1'
_symmetry_space_group_name_H-M	'P 1'

loop_
_symmetry_equiv_pos_as_xyz
  x,y,z

loop_
_atom_site_label
_atom_site_type_symbol
_atom_site_fract_x
_atom_site_fract_y
_atom_site_fract_z
_atom_site_charge
C 	C 	0.64677 0.32809 0.83751 0.32300
C 	C 	0.83025 0.56780 0.90905 0.34300
C 	C 	0.83474 0.41081 0.84706 0.35400
C 	C 	0.64629 0.50540 0.89957 0.29700
C 	C 	0.80814 0.37195 0.93326 0.31000
C 	C 	0.61716 0.25118 0.92471 0.29800
Ni	Ni	0.74465 0.47763 0.86262 1.11500
Ni	Ni	0.70832 0.42435 0.92580 1.12500
Ni	Ni	0.72586 0.31527 0.88410 1.12200
O 	O 	0.66435 0.40130 0.83893 -0.37400
O 	O 	0.68911 0.30371 0.84571 -0.38400
O 	O 	0.78897 0.42079 0.94084 -0.38300
O 	O 	0.83212 0.55196 0.88357 -0.37300
O 	O 	0.77158 0.53849 0.92194 -0.38800
O 	O 	0.63192 0.24978 0.89907 -0.38700
O 	O 	0.80401 0.44769 0.83827 -0.37600
O 	O 	0.82228 0.38227 0.87129 -0.39900
O 	O 	0.64120 0.31610 0.93853 -0.36300
O 	O 	0.68937 0.52846 0.87865 -0.35800
O 	O 	0.63295 0.44391 0.91362 -0.37300
O 	O 	0.76640 0.31058 0.91973 -0.38100
O 	O 	0.71368 0.40048 0.88935 -0.71500
H 	H 	0.66444 0.37574 0.88563 0.15600
C 	C 	0.76868 0.37763 0.57972 0.29300
C 	C 	0.47112 0.20195 0.57335 0.31100
C 	C 	0.64521 0.43574 0.55893 0.31000
C 	C 	0.59531 0.14503 0.60542 0.34400
C 	C 	0.53574 0.38334 0.63096 0.34800
C 	C 	0.65971 0.32067 0.66423 0.32400
Ni	Ni	0.62136 0.27706 0.56920 1.11800
Ni	Ni	0.54101 0.24147 0.62658 1.12300
Ni	Ni	0.67056 0.40710 0.61482 1.12300
O 	O 	0.72113 0.30596 0.57719 -0.37500
O 	O 	0.75588 0.42819 0.59221 -0.36100
O 	O 	0.50098 0.31104 0.62442 -0.38800
O 	O 	0.52458 0.26189 0.56373 -0.37200
O 	O 	0.47329 0.17674 0.59754 -0.36600
O 	O 	0.70241 0.37683 0.64803 -0.38300
O 	O 	0.66064 0.38397 0.55081 -0.36200
O 	O 	0.63182 0.44014 0.58428 -0.38000
O 	O 	0.59216 0.28793 0.66133 -0.38500
O 	O 	0.58404 0.16346 0.58106 -0.37400
O 	O 	0.56885 0.15991 0.62699 -0.38600
O 	O 	0.60014 0.41370 0.63810 -0.39000
O 	O 	0.62037 0.30296 0.60514 -0.71300
H 	H 	0.65130 0.28687 0.61301 0.15500
C 	C 	0.18968 0.07423 0.73818 0.30200
C 	C 	0.94544 0.80229 0.70075 0.35400
C 	C 	0.14347 0.00904 0.66896 0.32700
C 	C 	0.99173 0.87484 0.77151 0.35100
C 	C 	0.94205 0.01027 0.67727 0.33600
C 	C 	0.00182 0.09854 0.74538 0.31800
Ni	Ni	0.08069 0.91948 0.72004 1.11600
Ni	Ni	0.94474 0.93531 0.72680 1.12600
Ni	Ni	0.07975 0.07428 0.70257 1.11700
O 	O 	0.15891 0.99993 0.74346 -0.35900
O 	O 	0.17530 0.10119 0.71610 -0.38700
O 	O 	0.92665 0.94441 0.68803 -0.38100
O 	O 	0.00836 0.84747 0.69306 -0.38400
O 	O 	0.91743 0.82430 0.71948 -0.38400
O 	O 	0.06291 0.12459 0.73407 -0.39600
O 	O 	0.14977 0.96826 0.68819 -0.35500
O 	O 	0.09339 0.02466 0.66981 -0.39500
O 	O 	0.94731 0.03496 0.73683 -0.39400
O 	O 	0.02128 0.85323 0.75275 -0.38400
O 	O 	0.96009 0.91380 0.76516 -0.38500
O 	O 	0.99840 0.07252 0.68426 -0.38800
O 	O 	0.04087 0.98216 0.72250 -0.69400
H 	H 	0.05520 0.00287 0.74068 0.13700
C 	C 	0.19545 0.75178 0.43499 0.32300
C 	C 	0.40016 0.66572 0.47330 0.31000
C 	C 	0.38178 0.86822 0.43037 0.31600
C 	C 	0.20815 0.57521 0.47976 0.28600
C 	C 	0.39219 0.68151 0.38716 0.34900
C 	C 	0.19878 0.55697 0.38799 0.33900
Ni	Ni	0.30820 0.73582 0.46497 1.11700
Ni	Ni	0.29781 0.59253 0.43146 1.12200
Ni	Ni	0.28939 0.72565 0.40002 1.12400
O 	O 	0.24655 0.78267 0.45267 -0.36900
O 	O 	0.20254 0.72476 0.41147 -0.38100
O 	O 	0.34797 0.61272 0.39591 -0.39000
O 	O 	0.37011 0.70012 0.48499 -0.35300
O 	O 	0.39126 0.64946 0.44785 -0.38500
O 	O 	0.23877 0.62721 0.37860 -0.39000
O 	O 	0.39189 0.82372 0.44651 -0.37100
O 	O 	0.33763 0.83797 0.41069 -0.36800
O 	O 	0.20985 0.53462 0.41162 -0.39300
O 	O 	0.22858 0.64732 0.48512 -0.36100
O 	O 	0.24996 0.55397 0.46822 -0.36300
O 	O 	0.38120 0.73915 0.39079 -0.39100
O 	O 	0.28287 0.67667 0.43362 -0.71600
H 	H 	0.23295 0.64822 0.43581 0.15700
C 	C 	0.49529 0.67649 0.04810 0.29800
C 	C 	0.29847 0.62593 0.13790 0.36800
C 	C 	0.34512 0.49953 0.07665 0.35200
C 	C 	0.44259 0.80507 0.12005 0.35300
C 	C 	0.20822 0.58265 0.05472 0.31300
C 	C 	0.35485 0.77659 0.03587 0.28500
Ni	Ni	0.41821 0.65240 0.10268 1.11600
Ni	Ni	0.30770 0.70842 0.08919 1.12200
Ni	Ni	0.34780 0.62490 0.04428 1.12700
O 	O 	0.48762 0.65321 0.07370 -0.35900
O 	O 	0.44777 0.68447 0.03517 -0.37300
O 	O 	0.22482 0.64930 0.06525 -0.37000
O 	O 	0.36393 0.64673 0.13786 -0.38500
O 	O 	0.26780 0.62020 0.11506 -0.39800
O 	O 	0.33034 0.70568 0.02673 -0.36300
O 	O 	0.35674 0.53607 0.09945 -0.38300
O 	O 	0.36442 0.53693 0.05374 -0.38100
O 	O 	0.34301 0.78985 0.06090 -0.37000
O 	O 	0.47176 0.76805 0.10924 -0.38400
O 	O 	0.37522 0.77946 0.11803 -0.38300
O 	O 	0.25142 0.55741 0.05566 -0.39000
O 	O 	0.37146 0.67807 0.07713 -0.71600
H 	H 	0.40869 0.72747 0.07089 0.16700
C 	C 	0.82493 0.90742 0.26934 0.32700
C 	C 	0.05828 0.04960 0.19163 0.34500
C 	C 	0.84095 0.85740 0.20072 0.34900
C 	C 	0.03972 0.11551 0.26205 0.31800
C 	C 	0.02302 0.83266 0.22374 0.34300
C 	C 	0.01386 0.89944 0.29513 0.34500
Ni	Ni	0.93214 0.00321 0.22549 1.10400
Ni	Ni	0.06149 0.98591 0.24456 1.12500
Ni	Ni	0.91148 0.84362 0.24973 1.12200
O 	O 	0.83791 0.94625 0.24624 -0.37500
O 	O 	0.85494 0.86663 0.27563 -0.38800
O 	O 	0.06518 0.88865 0.23938 -0.39100
O 	O 	0.01656 0.07204 0.20136 -0.38700
O 	O 	0.06575 0.99682 0.20405 -0.38000
O 	O 	0.97160 0.84044 0.27989 -0.38800
O 	O 	0.89722 0.92078 0.19623 -0.38400
O 	O 	0.83393 0.81950 0.22315 -0.38200
O 	O 	0.05728 0.96630 0.28422 -0.39300
O 	O 	0.97652 0.09014 0.25324 -0.38300
O 	O 	0.08171 0.09593 0.24994 -0.39300
O 	O 	0.95912 0.81658 0.22123 -0.38900
O 	O 	0.96616 0.95087 0.24564 -0.71000
H 	H 	0.96208 0.96742 0.26380 0.16200
C 	C 	0.15214 0.19204 0.13822 0.00000
C 	C 	0.13835 0.23232 0.11847 -0.03200
C 	C 	0.19181 0.29018 0.10371 -0.03500
C 	C 	0.25973 0.30800 0.10849 0.01200
C 	C 	0.27263 0.26280 0.12635 -0.03900
C 	C 	0.21959 0.20632 0.14155 -0.03100
C 	C 	0.31708 0.38298 0.10046 0.02200
C 	C 	0.31543 0.42048 0.07699 -0.16600
C 	C 	0.09811 0.14451 0.15800 0.03400
C 	C 	0.09658 0.08321 0.16971 -0.19500
H 	H 	0.08661 0.22155 0.11553 0.04300
H 	H 	0.18074 0.32421 0.08991 0.05100
H 	H 	0.32466 0.27546 0.13002 0.04400
H 	H 	0.23170 0.17713 0.15703 0.04000
H 	H 	0.35840 0.41303 0.11467 0.04000
H 	H 	0.28949 0.38793 0.05927 0.09400
H 	H 	0.06071 0.16154 0.16352 0.03600
H 	H 	0.12993 0.06259 0.16215 0.09000
C 	C 	0.58349 0.88053 0.16053 0.00700
C 	C 	0.65087 0.93630 0.16608 -0.03600
C 	C 	0.69472 0.91684 0.17950 -0.03400
C 	C 	0.67164 0.84116 0.18738 0.00700
C 	C 	0.60248 0.78722 0.18451 -0.03900
C 	C 	0.55844 0.80670 0.17116 -0.03400
C 	C 	0.72010 0.81823 0.19826 0.01800
C 	C 	0.78348 0.84254 0.18570 -0.17300
C 	C 	0.54738 0.89359 0.13807 0.03600
C 	C 	0.47879 0.86019 0.13779 -0.18900
H 	H 	0.67053 0.99368 0.15848 0.04900
H 	H 	0.74724 0.96002 0.18294 0.04300
H 	H 	0.58352 0.72936 0.19146 0.04100
H 	H 	0.50621 0.76311 0.16751 0.04500
H 	H 	0.70812 0.78700 0.21712 0.04200
H 	H 	0.79137 0.86684 0.16563 0.09200
H 	H 	0.57486 0.91269 0.11911 0.04800
H 	H 	0.45245 0.87091 0.15409 0.09700
C 	C 	0.17850 0.65666 0.17580 0.00100
C 	C 	0.14358 0.68710 0.16162 -0.03500
C 	C 	0.12096 0.73171 0.17476 -0.03600
C 	C 	0.13168 0.74506 0.20243 0.01000
C 	C 	0.16688 0.71489 0.21666 -0.03900
C 	C 	0.18982 0.67037 0.20344 -0.03300
C 	C 	0.10913 0.79371 0.21633 0.01500
C 	C 	0.04437 0.78567 0.21141 -0.16600
C 	C 	0.20168 0.60943 0.16142 0.03300
C 	C 	0.26841 0.62925 0.16086 -0.20500
H 	H 	0.13489 0.67710 0.14027 0.04700
H 	H 	0.09587 0.75666 0.16335 0.04900
H 	H 	0.17601 0.72544 0.23797 0.04200
H 	H 	0.21590 0.64629 0.21468 0.04100
H 	H 	0.14215 0.83334 0.23146 0.04300
H 	H 	0.00917 0.74066 0.19825 0.08900
H 	H 	0.16744 0.56997 0.14646 0.04000
H 	H 	0.29996 0.65598 0.17834 0.09600
C 	C 	0.68044 0.82640 0.32014 0.01000
C 	C 	0.67230 0.80995 0.34773 -0.03500
C 	C 	0.60876 0.78460 0.36004 -0.03400
C 	C 	0.55281 0.77544 0.34486 0.01000
C 	C 	0.56045 0.79032 0.31721 -0.03700
C 	C 	0.62363 0.81444 0.30479 -0.03600
C 	C 	0.48920 0.76059 0.35834 0.01900
C 	C 	0.44903 0.69230 0.37230 -0.16600
C 	C 	0.74703 0.84917 0.30717 0.01300
C 	C 	0.77023 0.89925 0.28510 -0.16000
H 	H 	0.71534 0.81734 0.35967 0.04800
H 	H 	0.60345 0.77396 0.38148 0.05500
H 	H 	0.51745 0.78345 0.30535 0.04300
H 	H 	0.62815 0.82303 0.28325 0.04300
H 	H 	0.47243 0.80255 0.35648 0.04600
H 	H 	0.46167 0.64684 0.37126 0.09100
H 	H 	0.77855 0.82676 0.31521 0.04300
H 	H 	0.74308 0.92909 0.27926 0.08600
C 	C 	0.09500 0.36653 0.35551 0.01000
C 	C 	0.11283 0.30899 0.35612 -0.03700
C 	C 	0.09121 0.25471 0.33573 -0.03800
C 	C 	0.05151 0.25757 0.31451 0.01000
C 	C 	0.03233 0.31405 0.31425 -0.03900
C 	C 	0.05387 0.36825 0.33467 -0.03700
C 	C 	0.02418 0.19740 0.29394 0.00400
C 	C 	0.06598 0.17282 0.28140 -0.16000
C 	C 	0.11953 0.42457 0.37682 0.01500
C 	C 	0.15307 0.50226 0.37024 -0.15900
H 	H 	0.14374 0.30656 0.37234 0.04400
H 	H 	0.10426 0.20974 0.33670 0.04200
H 	H 	0.00039 0.31568 0.29830 0.04100
H 	H 	0.03813 0.41109 0.33440 0.04300
H 	H 	0.97154 0.17497 0.28759 0.04500
H 	H 	0.11941 0.19804 0.28697 0.08300
H 	H 	0.12002 0.40665 0.39738 0.04700
H 	H 	0.14917 0.51970 0.34996 0.08600
C 	C 	0.05776 0.75617 0.40345 0.01700
C 	C 	0.10484 0.80438 0.38416 -0.03800
C 	C 	0.08255 0.82741 0.36172 -0.02500
C 	C 	0.01271 0.80267 0.35827 -0.01100
C 	C 	0.96567 0.75551 0.37777 -0.02300
C 	C 	0.98812 0.73233 0.40027 -0.03800
C 	C 	0.98808 0.81890 0.33286 0.04800
C 	C 	0.02263 0.88798 0.32108 -0.20000
C 	C 	0.07949 0.71969 0.42396 0.01600
C 	C 	0.13936 0.76271 0.43856 -0.15700
H 	H 	0.15813 0.82001 0.38564 0.06100
H 	H 	0.11923 0.86156 0.34639 0.04600
H 	H 	0.91163 0.73539 0.37520 0.04200
H 	H 	0.95118 0.69399 0.41479 0.05200
H 	H 	0.94305 0.77331 0.32340 0.03200
H 	H 	0.06207 0.93505 0.33240 0.10100
H 	H 	0.05786 0.65837 0.42323 0.04500
H 	H 	0.14444 0.80972 0.45076 0.09700
C 	C 	0.34215 0.00675 0.46204 -0.07100
C 	C 	0.39497 0.03800 0.48115 0.03200
C 	C 	0.45485 0.03297 0.47697 -0.07000
C 	C 	0.45649 0.98582 0.45644 0.05300
C 	C 	0.39870 0.94498 0.44014 -0.09800
C 	C 	0.34785 0.96670 0.44005 0.05500
C 	C 	0.38648 0.07253 0.50626 0.02300
C 	C 	0.51368 0.07482 0.49409 0.10400
C 	C 	0.30711 0.95566 0.41632 0.09000
C 	C 	0.37431 0.03307 0.53089 -0.06300
C 	C 	0.38826 0.07358 0.55521 0.03100
C 	C 	0.41588 0.15324 0.55448 -0.08600
C 	C 	0.40839 0.18644 0.53072 0.02600
C 	C 	0.39846 0.14800 0.50619 -0.04000
C 	C 	0.34976 0.95191 0.53107 0.12900
C 	C 	0.41412 0.26108 0.53146 0.08800
C 	C 	0.37180 0.03342 0.58064 0.08600
C 	C 	0.40448 0.18712 0.48104 0.10400
C 	C 	0.28102 0.01286 0.46560 0.09900
C 	C 	0.51756 0.98044 0.45171 0.08900
N 	N 	0.35858 0.00129 0.60096 -0.10800
N 	N 	0.33019 0.88711 0.53116 -0.11900
N 	N 	0.41877 0.32075 0.53197 -0.10300
N 	N 	0.40932 0.21836 0.46096 -0.10900
N 	N 	0.56054 0.10829 0.50779 -0.11700
N 	N 	0.56646 0.97636 0.44791 -0.09100
N 	N 	0.27482 0.94741 0.39730 -0.10800
N 	N 	0.23219 0.01771 0.46845 -0.11900
C 	C 	0.07544 0.45811 0.53179 -0.03700
C 	C 	0.01877 0.46004 0.52061 0.01900
C 	C 	0.02218 0.48451 0.49382 -0.03900
C 	C 	0.08166 0.50606 0.47851 0.01800
C 	C 	0.14207 0.51758 0.49119 -0.06900
C 	C 	0.13873 0.49361 0.51817 0.02300
C 	C 	0.95595 0.43777 0.53709 0.02400
C 	C 	0.96603 0.49135 0.48247 0.10300
C 	C 	0.20086 0.51538 0.53308 0.09700
C 	C 	0.95668 0.48476 0.55826 -0.03300
C 	C 	0.89600 0.46514 0.57278 0.01800
C 	C 	0.83299 0.40443 0.56382 -0.07000
C 	C 	0.83233 0.36445 0.54036 0.02300
C 	C 	0.89390 0.37406 0.52974 -0.03900
C 	C 	0.01925 0.55376 0.56474 0.09600
C 	C 	0.76951 0.32026 0.52557 0.08300
C 	C 	0.89886 0.50747 0.59662 0.09200
C 	C 	0.89339 0.31897 0.51099 0.10100
C 	C 	0.06911 0.42143 0.55752 0.09900
C 	C 	0.08199 0.52182 0.45012 0.07200
N 	N 	0.90150 0.54167 0.61561 -0.11300
N 	N 	0.06922 0.60880 0.56989 -0.10500
N 	N 	0.71943 0.28505 0.51374 -0.11400
N 	N 	0.89305 0.27505 0.49602 -0.11000
N 	N 	0.92125 0.49682 0.47344 -0.11100
N 	N 	0.08133 0.53421 0.42747 -0.11200
N 	N 	0.25012 0.53313 0.54529 -0.10000
N 	N 	0.06399 0.39215 0.57806 -0.11300
C 	C 	0.63667 0.60745 0.53625 -0.03800
C 	C 	0.58783 0.57546 0.51565 0.02200
C 	C 	0.57465 0.50566 0.50411 -0.03700
C 	C 	0.60052 0.46183 0.51633 0.02500
C 	C 	0.64155 0.48945 0.53947 -0.07600
C 	C 	0.66621 0.56581 0.54711 0.02500
C 	C 	0.54309 0.60873 0.50887 0.02300
C 	C 	0.53232 0.47778 0.48040 0.10200
C 	C 	0.72129 0.60088 0.56635 0.08300
C 	C 	0.56651 0.67224 0.49155 -0.03800
C 	C 	0.52056 0.69637 0.48251 0.02500
C 	C 	0.44997 0.65185 0.48824 -0.07700
C 	C 	0.42682 0.58565 0.50420 0.02400
C 	C 	0.47450 0.57133 0.51739 -0.03900
C 	C 	0.63689 0.71110 0.48242 0.10200
C 	C 	0.35683 0.52494 0.50229 0.08400
C 	C 	0.54517 0.76426 0.46608 0.09100
C 	C 	0.45264 0.51647 0.53914 0.10500
C 	C 	0.65389 0.68124 0.54713 0.10200
C 	C 	0.58394 0.38825 0.50543 0.09200
N 	N 	0.56480 0.81833 0.45289 -0.09500
N 	N 	0.69309 0.74208 0.47513 -0.10800
N 	N 	0.30145 0.47518 0.50063 -0.10000
N 	N 	0.43527 0.47282 0.55657 -0.11200
N 	N 	0.49845 0.45555 0.46149 -0.11000
N 	N 	0.57076 0.32953 0.49671 -0.10600
N 	N 	0.76525 0.62880 0.58171 -0.10700
N 	N 	0.66760 0.74015 0.55581 -0.10700
C 	C 	0.72385 0.10581 0.63604 0.00200
C 	C 	0.73344 0.05012 0.62298 -0.03400
C 	C 	0.79218 0.04459 0.62795 -0.03700
C 	C 	0.84126 0.09407 0.64629 0.00600
C 	C 	0.83242 0.15093 0.65870 -0.03600
C 	C 	0.77374 0.15630 0.65380 -0.03400
C 	C 	0.90147 0.08601 0.65308 0.02400
C 	C 	0.89336 0.01545 0.66130 -0.18800
C 	C 	0.65973 0.10855 0.63276 0.03200
C 	C 	0.63942 0.11840 0.60828 -0.19300
H 	H 	0.69502 0.01047 0.60936 0.04600
H 	H 	0.79924 0.00163 0.61773 0.04500
H 	H 	0.87025 0.18982 0.67266 0.04400
H 	H 	0.76679 0.19944 0.66397 0.04200
H 	H 	0.95045 0.13729 0.65561 0.04300
H 	H 	0.84517 0.96412 0.65756 0.10800
H 	H 	0.63450 0.11296 0.65079 0.03600
H 	H 	0.66406 0.11176 0.59046 0.09800
C 	C 	0.38307 0.32250 0.62432 0.02600
C 	C 	0.34120 0.28517 0.60232 -0.03600
C 	C 	0.28398 0.21307 0.60558 -0.03300
C 	C 	0.26810 0.17772 0.63086 0.01000
C 	C 	0.31096 0.21442 0.65277 -0.03900
C 	C 	0.36784 0.28665 0.64955 -0.03500
C 	C 	0.20201 0.10776 0.63519 0.01000
C 	C 	0.19805 0.04867 0.65124 -0.16400
C 	C 	0.43755 0.40271 0.62156 0.02200
C 	C 	0.50465 0.42890 0.63064 -0.16400
H 	H 	0.35198 0.31284 0.58287 0.06100
H 	H 	0.25109 0.18553 0.58859 0.04800
H 	H 	0.29855 0.18842 0.67253 0.04700
H 	H 	0.39902 0.31557 0.66679 0.04800
H 	H 	0.15554 0.10607 0.62818 0.04100
H 	H 	0.24304 0.04209 0.65322 0.09000
H 	H 	0.42317 0.44434 0.61515 0.04100
H 	H 	0.53623 0.48933 0.63448 0.09100
C 	C 	0.82159 0.59027 0.69988 0.00800
C 	C 	0.77478 0.54191 0.71924 -0.03400
C 	C 	0.75114 0.46363 0.71849 -0.03700
C 	C 	0.77447 0.43305 0.69851 0.02000
C 	C 	0.82197 0.48121 0.67942 -0.03300
C 	C 	0.84310 0.55890 0.67933 -0.03500
C 	C 	0.74913 0.35034 0.69770 0.01400
C 	C 	0.68549 0.30052 0.68642 -0.16200
C 	C 	0.84742 0.67351 0.70139 0.02100
C 	C 	0.91387 0.72622 0.69292 -0.17000
H 	H 	0.75706 0.56503 0.73497 0.04300
H 	H 	0.71477 0.42677 0.73346 0.04700
H 	H 	0.84053 0.45799 0.66404 0.05700
H 	H 	0.87502 0.59412 0.66309 0.05300
H 	H 	0.77219 0.32707 0.71116 0.02800
H 	H 	0.65551 0.24411 0.69509 0.07900
H 	H 	0.81654 0.69346 0.71172 0.04100
H 	H 	0.94356 0.70709 0.68138 0.09300
C 	C 	0.92056 0.36094 0.98635 -0.03800
C 	C 	0.97875 0.43302 0.98231 0.02500
C 	C 	0.98521 0.47376 0.95842 -0.03300
C 	C 	0.93355 0.44270 0.93899 0.02100
C 	C 	0.87054 0.37832 0.94526 -0.07800
C 	C 	0.86550 0.33451 0.96817 0.02500
C 	C 	0.03495 0.46460 0.00248 0.02100
C 	C 	0.04376 0.54871 0.95430 0.09300
C 	C 	0.80296 0.26406 0.97353 0.09200
C 	C 	0.09777 0.46868 0.99628 -0.03800
C 	C 	0.15590 0.51516 0.01156 0.02900
C 	C 	0.14890 0.54522 0.03631 -0.08100
C 	C 	0.08430 0.53517 0.04389 0.02600
C 	C 	0.02822 0.49820 0.02632 -0.04200
C 	C 	0.10272 0.42599 0.97384 0.10100
C 	C 	0.07503 0.56089 0.06992 0.08600
C 	C 	0.22309 0.53628 0.00091 0.07200
C 	C 	0.96403 0.49548 0.03257 0.10500
C 	C 	0.91715 0.31465 0.00922 0.10200
C 	C 	0.94517 0.47690 0.91254 0.08300
N 	N 	0.27659 0.55301 0.99235 -0.12300
N 	N 	0.10659 0.39193 0.95592 -0.11000
N 	N 	0.06761 0.58136 0.09070 -0.11200
N 	N 	0.91276 0.49326 0.03753 -0.10900
N 	N 	0.09043 0.60852 0.95101 -0.10600
N 	N 	0.95519 0.50453 0.89144 -0.10400
N 	N 	0.75301 0.20787 0.97783 -0.09900
N 	N 	0.91449 0.27776 0.02750 -0.11000
C 	C 	0.48091 0.97187 0.00838 -0.01400
C 	C 	0.45080 0.97246 0.98369 0.03500
C 	C 	0.38945 0.90808 0.97574 -0.03800
C 	C 	0.35793 0.84341 0.99264 0.02300
C 	C 	0.38922 0.84209 0.01709 -0.06500
C 	C 	0.45131 0.90631 0.02469 0.01600
C 	C 	0.48656 0.03937 0.96530 0.01000
C 	C 	0.35890 0.90846 0.95019 0.10800
C 	C 	0.48558 0.90450 0.04905 0.09600
C 	C 	0.54159 0.04705 0.94945 -0.05600
C 	C 	0.58533 0.11690 0.93677 0.02800
C 	C 	0.57132 0.17791 0.93836 -0.07300
C 	C 	0.51266 0.16789 0.95236 0.02300
C 	C 	0.47111 0.09917 0.96626 -0.03600
C 	C 	0.55402 0.98334 0.94672 0.12800
C 	C 	0.49407 0.22730 0.95189 0.09000
C 	C 	0.64588 0.12665 0.92281 0.07900
C 	C 	0.41298 0.09023 0.98181 0.09400
C 	C 	0.54294 0.03887 0.01688 0.07900
C 	C 	0.29245 0.77954 0.98530 0.09700
N 	N 	0.69409 0.13420 0.91167 -0.11500
N 	N 	0.56384 0.93244 0.94458 -0.10500
N 	N 	0.47926 0.27471 0.95150 -0.09900
N 	N 	0.36656 0.08300 0.99422 -0.11200
N 	N 	0.33457 0.90884 0.92978 -0.10600
N 	N 	0.24020 0.72854 0.97946 -0.09700
N 	N 	0.51343 0.90358 0.06841 -0.10600
N 	N 	0.59242 0.09233 0.02362 -0.10200
C 	C 	0.60069 0.72303 0.98718 -0.03600
C 	C 	0.60319 0.65495 0.98421 0.02200
C 	C 	0.59308 0.60855 0.00693 -0.03700
C 	C 	0.56626 0.62133 0.03079 0.02100
C 	C 	0.55384 0.68342 0.03219 -0.07200
C 	C 	0.58180 0.73995 0.01210 0.02400
C 	C 	0.60822 0.62754 0.95693 0.02200
C 	C 	0.60792 0.54642 0.00538 0.10000
C 	C 	0.58940 0.81442 0.01687 0.09200
C 	C 	0.67055 0.66263 0.94258 -0.03800
C 	C 	0.67535 0.63186 0.91793 0.02200
C 	C 	0.62487 0.55793 0.91101 -0.07600
C 	C 	0.55982 0.52798 0.92298 0.02300
C 	C 	0.55100 0.56407 0.94566 -0.03700
C 	C 	0.73032 0.72701 0.95378 0.10200
C 	C 	0.50286 0.45959 0.91232 0.09100
C 	C 	0.72659 0.67902 0.89844 0.09300
C 	C 	0.48393 0.53550 0.95765 0.10300
C 	C 	0.61316 0.77286 0.96433 0.10500
C 	C 	0.54887 0.56914 0.05324 0.09400
N 	N 	0.76702 0.71705 0.88270 -0.11300
N 	N 	0.77807 0.77841 0.96274 -0.10600
N 	N 	0.45739 0.40493 0.90380 -0.10300
N 	N 	0.43045 0.51277 0.96727 -0.10600
N 	N 	0.61977 0.49682 0.00409 -0.11100
N 	N 	0.53494 0.52737 0.07114 -0.10700
N 	N 	0.59593 0.87420 0.02054 -0.09800
N 	N 	0.62316 0.81255 0.94606 -0.10100
C 	C 	0.90586 0.29286 0.82013 0.00900
C 	C 	0.94074 0.31529 0.79549 -0.03600
C 	C 	0.94725 0.26215 0.77958 -0.03800
C 	C 	0.91942 0.18633 0.78833 0.01000
C 	C 	0.88326 0.16370 0.81263 -0.03800
C 	C 	0.87714 0.21689 0.82859 -0.03600
C 	C 	0.92783 0.13038 0.77205 0.00900
C 	C 	0.99269 0.14668 0.76296 -0.15200
C 	C 	0.90217 0.34904 0.83791 0.01500
C 	C 	0.87162 0.39140 0.82916 -0.17100
H 	H 	0.96360 0.37393 0.78887 0.04400
H 	H 	0.97409 0.27989 0.76056 0.04500
H 	H 	0.86099 0.10523 0.81939 0.04300
H 	H 	0.85013 0.19910 0.84759 0.04400
H 	H 	0.88366 0.07494 0.76845 0.03900
H 	H 	0.03700 0.19995 0.76875 0.08200
H 	H 	0.91184 0.34701 0.85919 0.04600
H 	H 	0.87070 0.40262 0.80787 0.09000
C 	C 	0.34383 0.14704 0.78324 0.01000
C 	C 	0.35367 0.20908 0.79897 -0.03700
C 	C 	0.41816 0.25837 0.80942 -0.03700
C 	C 	0.47335 0.24602 0.80427 0.01100
C 	C 	0.46348 0.18408 0.78832 -0.03700
C 	C 	0.39868 0.13413 0.77825 -0.03800
C 	C 	0.54205 0.30130 0.81414 0.01200
C 	C 	0.58650 0.27734 0.82449 -0.15900
C 	C 	0.27634 0.09588 0.77174 0.00700
C 	C 	0.24774 0.12335 0.75275 -0.15400
H 	H 	0.31143 0.21918 0.80305 0.04600
H 	H 	0.42532 0.30634 0.82147 0.04800
H 	H 	0.50609 0.17551 0.78327 0.04200
H 	H 	0.39148 0.08645 0.76602 0.04100
H 	H 	0.55547 0.36080 0.81541 0.04600
H 	H 	0.57248 0.21765 0.82356 0.08500
H 	H 	0.25268 0.03534 0.77600 0.03900
H 	H 	0.27383 0.18373 0.74794 0.08300
C 	C 	0.96189 0.68905 0.88173 0.03300
C 	C 	0.92335 0.72235 0.87287 -0.03700
C 	C 	0.93360 0.75396 0.84713 -0.02800
C 	C 	0.98686 0.75877 0.83079 0.00300
C 	C 	0.02629 0.72680 0.83993 -0.03000
C 	C 	0.01378 0.69204 0.86522 -0.04100
C 	C 	0.99869 0.79171 0.80322 0.03900
C 	C 	0.98552 0.84851 0.79682 -0.19200
C 	C 	0.95391 0.65917 0.90952 0.02200
C 	C 	0.89002 0.61923 0.92243 -0.16200
H 	H 	0.88586 0.72419 0.88599 0.06200
H 	H 	0.89973 0.77382 0.83990 0.04800
H 	H 	0.06671 0.72890 0.82744 0.04400
H 	H 	0.04494 0.66810 0.87210 0.05600
H 	H 	0.01940 0.76954 0.78817 0.03400
H 	H 	0.96641 0.87152 0.81215 0.09900
H 	H 	0.99963 0.67740 0.92148 0.04300
H 	H 	0.88839 0.62245 0.94415 0.09500
