data_crystal

_cell_length_a 28.06561
_cell_length_b 28.35391
_cell_length_c 15.50566
_cell_angle_alpha 90.32613
_cell_angle_beta  90.32622
_cell_angle_gamma 119.99304

_symmetry_space_group_name_	'P 1'
_symmetry_space_group_name_H-M	'P 1'

loop_
_symmetry_equiv_pos_as_xyz
  x,y,z

loop_
_atom_site_label
_atom_site_type_symbol
_atom_site_fract_x
_atom_site_fract_y
_atom_site_fract_z
_atom_site_charge
C 	C 	0.00522 0.23900 0.48087 -0.02500
C 	C 	0.97901 0.72199 0.58638 -0.03800
H 	H 	0.97939 0.73444 0.65273 0.07600
C 	C 	0.02565 0.29086 0.44549 -0.06000
C 	C 	0.03792 0.31167 0.04265 -0.06800
C 	C 	0.02425 0.73608 0.06100 -0.07900
Br	Br	0.99814 0.23174 0.80302 -0.18700
C 	C 	0.03801 0.28439 0.96710 -0.02100
C 	C 	0.02759 0.71642 0.97868 0.14600
C 	C 	0.02749 0.73058 0.45252 -0.07500
C 	C 	0.99239 0.26139 0.91164 0.12800
C 	C 	0.49481 0.81349 0.24010 0.31100
C 	C 	0.65513 0.75536 0.10989 0.32300
C 	C 	0.49734 0.68171 0.24541 0.32100
C 	C 	0.66622 0.89575 0.10789 0.31000
C 	C 	0.65232 0.75526 0.38887 0.32700
C 	C 	0.65407 0.89114 0.39614 0.30500
Ni	Ni	0.56647 0.78198 0.14095 1.12300
Ni	Ni	0.67943 0.83503 0.25272 1.12900
Ni	Ni	0.56457 0.78111 0.34969 1.12700
O 	O 	0.52405 0.82245 0.16889 -0.34500
O 	O 	0.49668 0.78291 0.30378 -0.35400
O 	O 	0.67210 0.76882 0.31078 -0.37400
O 	O 	0.60194 0.73413 0.11881 -0.35400
O 	O 	0.68928 0.80476 0.13887 -0.35900
O 	O 	0.59991 0.85744 0.39767 -0.34900
O 	O 	0.49615 0.71300 0.18427 -0.35000
O 	O 	0.53330 0.70286 0.30898 -0.37600
O 	O 	0.68825 0.87513 0.36637 -0.35100
O 	O 	0.62959 0.84762 0.07394 -0.33500
O 	O 	0.69104 0.89988 0.18314 -0.35600
O 	O 	0.61964 0.77164 0.42070 -0.36900
O 	O 	0.60315 0.81021 0.24576 -0.72500
H 	H 	0.60433 0.84551 0.24636 0.17200
C 	C 	0.20417 0.89967 0.11742 0.30600
C 	C 	0.15601 0.68319 0.25064 0.32400
C 	C 	0.07241 0.76200 0.11887 0.32400
C 	C 	0.29004 0.81131 0.24389 0.30500
C 	C 	0.07667 0.75904 0.39805 0.32400
C 	C 	0.21543 0.89228 0.40626 0.30700
Ni	Ni	0.18626 0.78440 0.14787 1.12800
Ni	Ni	0.18944 0.78136 0.35645 1.12500
Ni	Ni	0.13127 0.83959 0.26343 1.12600
O 	O 	0.19000 0.85120 0.08254 -0.33200
O 	O 	0.18533 0.90411 0.19380 -0.35500
O 	O 	0.12541 0.77142 0.42913 -0.35700
O 	O 	0.18545 0.71354 0.18628 -0.33600
O 	O 	0.14060 0.70415 0.31264 -0.37100
O 	O 	0.16506 0.87821 0.37777 -0.35700
O 	O 	0.10193 0.73869 0.13126 -0.34600
O 	O 	0.08878 0.81103 0.15007 -0.36600
O 	O 	0.23314 0.85663 0.40792 -0.36200
O 	O 	0.26972 0.82318 0.17527 -0.33300
O 	O 	0.25820 0.78208 0.30914 -0.36200
O 	O 	0.07128 0.77348 0.32000 -0.38100
O 	O 	0.18080 0.81277 0.25410 -0.72300
H 	H 	0.21584 0.84756 0.25525 0.17000
C 	C 	0.16429 0.48590 0.27139 0.30600
C 	C 	0.21666 0.31980 0.38905 0.31800
C 	C 	0.29520 0.48002 0.26656 0.31900
C 	C 	0.07502 0.31333 0.39150 0.30300
C 	C 	0.21774 0.32850 0.10900 0.32000
C 	C 	0.08505 0.33201 0.10255 0.30700
Ni	Ni	0.19190 0.41018 0.36606 1.12300
Ni	Ni	0.13746 0.30144 0.24645 1.12800
Ni	Ni	0.19624 0.41786 0.15763 1.12600
O 	O 	0.15368 0.45536 0.34120 -0.33100
O 	O 	0.19583 0.48484 0.20816 -0.35800
O 	O 	0.20420 0.30877 0.18726 -0.36900
O 	O 	0.23867 0.37290 0.38590 -0.35600
O 	O 	0.16643 0.28789 0.35926 -0.35400
O 	O 	0.11984 0.38555 0.10676 -0.35600
O 	O 	0.26335 0.48006 0.32826 -0.33700
O 	O 	0.27404 0.44537 0.20178 -0.37100
O 	O 	0.09890 0.29630 0.13207 -0.36300
O 	O 	0.12361 0.34681 0.42837 -0.34400
O 	O 	0.07126 0.28921 0.31581 -0.35500
O 	O 	0.20631 0.36557 0.08138 -0.35700
O 	O 	0.16419 0.37707 0.25862 -0.72400
H 	H 	0.12904 0.37697 0.25779 0.17000
C 	C 	0.87866 0.65823 0.59872 0.30000
C 	C 	0.66622 0.50299 0.74843 0.32100
C 	C 	0.74302 0.65956 0.61251 0.32500
C 	C 	0.79346 0.49384 0.75106 0.30500
C 	C 	0.74584 0.65636 0.89159 0.32600
C 	C 	0.88400 0.66368 0.89243 0.30500
Ni	Ni	0.76542 0.56838 0.64236 1.12700
Ni	Ni	0.76933 0.56913 0.85099 1.12900
Ni	Ni	0.82493 0.68146 0.75001 1.12500
O 	O 	0.84467 0.60479 0.59435 -0.33800
O 	O 	0.86315 0.69159 0.63336 -0.36100
O 	O 	0.72364 0.60372 0.87781 -0.36200
O 	O 	0.68590 0.53864 0.68629 -0.34200
O 	O 	0.69912 0.50223 0.80832 -0.36400
O 	O 	0.88937 0.68851 0.81754 -0.37200
O 	O 	0.75902 0.62823 0.57561 -0.34300
O 	O 	0.75735 0.67633 0.69250 -0.37600
O 	O 	0.83517 0.62533 0.92175 -0.34300
O 	O 	0.76558 0.49856 0.68492 -0.34500
O 	O 	0.80610 0.52515 0.82148 -0.35100
O 	O 	0.79531 0.69067 0.86320 -0.36600
O 	O 	0.79747 0.60540 0.74540 -0.72500
H 	H 	0.83240 0.60509 0.74420 0.16600
C 	C 	0.66697 0.15826 0.76668 0.30600
C 	C 	0.89262 0.23051 0.88465 0.31700
C 	C 	0.79156 0.29099 0.75405 0.32200
C 	C 	0.76648 0.08503 0.89468 0.30300
C 	C 	0.88457 0.22511 0.60886 0.32400
C 	C 	0.75387 0.08609 0.60488 0.29900
Ni	Ni	0.77364 0.19475 0.86078 1.12100
Ni	Ni	0.83667 0.14687 0.74748 1.13400
Ni	Ni	0.76881 0.19387 0.65157 1.12600
O 	O 	0.69010 0.14840 0.83387 -0.34900
O 	O 	0.69563 0.18437 0.69670 -0.34600
O 	O 	0.89164 0.21495 0.68868 -0.36100
O 	O 	0.85724 0.24789 0.88016 -0.36200
O 	O 	0.87785 0.18058 0.86000 -0.34200
O 	O 	0.73127 0.11767 0.60307 -0.36800
O 	O 	0.76511 0.25994 0.81952 -0.34600
O 	O 	0.80974 0.27285 0.69158 -0.36900
O 	O 	0.80504 0.10473 0.63448 -0.34000
O 	O 	0.77742 0.13271 0.92833 -0.34900
O 	O 	0.78729 0.08156 0.81975 -0.33800
O 	O 	0.83493 0.20980 0.57825 -0.36600
O 	O 	0.78227 0.16742 0.75545 -0.72300
H 	H 	0.74930 0.13093 0.75527 0.16300
C 	C 	0.29698 0.08797 0.89989 0.30100
C 	C 	0.46549 0.30012 0.75607 0.32700
C 	C 	0.30623 0.22687 0.88929 0.32400
C 	C 	0.46812 0.16814 0.76967 0.30600
C 	C 	0.31123 0.22435 0.61073 0.32400
C 	C 	0.31159 0.08768 0.61143 0.30300
Ni	Ni	0.39594 0.20139 0.86373 1.12300
Ni	Ni	0.39918 0.19923 0.65516 1.12600
Ni	Ni	0.28346 0.14524 0.74963 1.12700
O 	O 	0.33262 0.13689 0.93226 -0.33500
O 	O 	0.27171 0.08210 0.82441 -0.34300
O 	O 	0.34403 0.20732 0.58117 -0.37200
O 	O 	0.46619 0.27038 0.82021 -0.35000
O 	O 	0.42965 0.27782 0.69273 -0.36600
O 	O 	0.27606 0.10282 0.63855 -0.36000
O 	O 	0.35938 0.24865 0.87940 -0.34100
O 	O 	0.27218 0.17733 0.86059 -0.35000
O 	O 	0.36543 0.12263 0.60952 -0.35600
O 	O 	0.43941 0.16120 0.84103 -0.35900
O 	O 	0.46705 0.19844 0.70470 -0.35100
O 	O 	0.28893 0.20963 0.68728 -0.36900
O 	O 	0.35999 0.17121 0.75894 -0.72300
H 	H 	0.35922 0.13612 0.76055 0.16500
C 	C 	0.57274 0.12666 0.70930 -0.02600
C 	C 	0.61142 0.15112 0.77660 -0.06400
C 	C 	0.59982 0.17650 0.84567 0.13500
C 	C 	0.55145 0.17918 0.84447 -0.02800
C 	C 	0.51457 0.15776 0.77462 -0.06600
C 	C 	0.52445 0.12986 0.70801 0.12900
Br	Br	0.47201 0.09467 0.61609 -0.19600
H 	H 	0.58098 0.10658 0.65657 0.07900
H 	H 	0.54376 0.20028 0.89627 0.08100
Br	Br	0.65129 0.21207 0.93890 -0.20600
C 	C 	0.57382 0.44476 0.81029 -0.02700
C 	C 	0.60992 0.45652 0.74109 -0.07200
C 	C 	0.59477 0.41910 0.67177 0.13200
C 	C 	0.54547 0.36941 0.67486 -0.02500
C 	C 	0.51139 0.35609 0.74698 -0.07500
C 	C 	0.52460 0.39486 0.81341 0.13300
Br	Br	0.47554 0.38080 0.90804 -0.17900
H 	H 	0.58481 0.47374 0.86303 0.08300
H 	H 	0.53499 0.33996 0.62296 0.07500
Br	Br	0.64247 0.43309 0.57518 -0.20700
C 	C 	0.74534 0.39404 0.73778 -0.03200
C 	C 	0.79402 0.44254 0.75687 -0.06600
C 	C 	0.84319 0.44160 0.77085 0.12500
C 	C 	0.84271 0.39191 0.76633 -0.02500
C 	C 	0.79391 0.34360 0.74524 -0.08000
C 	C 	0.74559 0.34545 0.72771 0.13600
Br	Br	0.68086 0.28367 0.68185 -0.20100
H 	H 	0.70745 0.39463 0.72668 0.08900
H 	H 	0.88005 0.39080 0.78000 0.07800
Br	Br	0.91126 0.50746 0.79422 -0.19100
C 	C 	0.94480 0.29123 0.00898 -0.03200
C 	C 	0.94436 0.26252 0.93434 -0.06800
C 	C 	0.99149 0.31608 0.06275 0.12200
Br	Br	0.99009 0.35365 0.16525 -0.19900
H 	H 	0.90837 0.29292 0.02661 0.07800
H 	H 	0.07346 0.28059 0.95176 0.09400
C 	C 	0.99844 0.32041 0.46134 0.11800
C 	C 	0.95138 0.29796 0.51295 -0.02200
C 	C 	0.93152 0.24642 0.54960 -0.07600
C 	C 	0.95846 0.21665 0.53266 0.13200
Br	Br	0.93132 0.14477 0.57751 -0.20200
H 	H 	0.02582 0.21599 0.46823 0.08200
H 	H 	0.93080 0.32098 0.52562 0.07700
Br	Br	0.02461 0.39119 0.41288 -0.18200
C 	C 	0.26793 0.32173 0.52232 -0.02800
C 	C 	0.24336 0.29647 0.44327 -0.07200
C 	C 	0.24442 0.24918 0.41715 0.12800
C 	C 	0.26792 0.22678 0.47145 -0.02800
C 	C 	0.29101 0.25123 0.55143 -0.07700
C 	C 	0.29198 0.29961 0.57600 0.12900
Br	Br	0.32815 0.33752 0.68072 -0.18300
H 	H 	0.26805 0.35846 0.54245 0.08300
H 	H 	0.26763 0.18989 0.45178 0.08100
Br	Br	0.21635 0.21574 0.30640 -0.20400
C 	C 	0.25237 0.27342 0.90888 -0.02800
C 	C 	0.28533 0.25443 0.94486 -0.06300
C 	C 	0.29832 0.26216 0.03353 0.13300
C 	C 	0.27815 0.28872 0.08529 -0.02500
C 	C 	0.24379 0.30667 0.05013 -0.07600
C 	C 	0.23195 0.29994 0.96020 0.13700
Br	Br	0.18889 0.32666 0.90447 -0.18800
H 	H 	0.24270 0.26779 0.84049 0.08700
H 	H 	0.28867 0.29480 0.15335 0.09200
Br	Br	0.34129 0.23435 0.08619 -0.19300
C 	C 	0.20312 0.97948 0.05470 -0.01600
C 	C 	0.22868 0.94790 0.06159 -0.06400
C 	C 	0.27809 0.96372 0.01719 0.13400
C 	C 	0.30053 0.01005 0.96512 -0.03000
C 	C 	0.27453 0.04113 0.95783 -0.05400
C 	C 	0.22599 0.02608 0.00375 0.11900
Br	Br	0.19078 0.06925 0.99886 -0.17500
H 	H 	0.16533 0.96776 0.08905 0.08000
H 	H 	0.33817 0.02184 0.93031 0.08100
Br	Br	0.31696 0.92443 0.02993 -0.18200
C 	C 	0.24159 0.93872 0.54873 -0.02600
C 	C 	0.24509 0.94211 0.45863 -0.06800
C 	C 	0.27414 0.99341 0.41940 0.12900
C 	C 	0.29580 0.04077 0.47005 -0.02900
C 	C 	0.29019 0.03741 0.55994 -0.07100
C 	C 	0.26454 0.98607 0.59958 0.13300
Br	Br	0.26310 0.97964 0.72266 -0.19300
H 	H 	0.22085 0.89924 0.57930 0.09200
H 	H 	0.31710 0.08025 0.43949 0.08100
Br	Br	0.28771 0.99965 0.29778 -0.19800
C 	C 	0.97829 0.68976 0.41514 -0.03300
C 	C 	0.02754 0.74733 0.53858 0.13500
C 	C 	0.92966 0.68204 0.54824 -0.06800
C 	C 	0.92920 0.66681 0.46127 0.12900
Br	Br	0.86151 0.61958 0.40102 -0.18300
H 	H 	0.97773 0.67741 0.34866 0.08200
Br	Br	0.09159 0.80793 0.58982 -0.19100
C 	C 	0.97468 0.73198 0.08741 -0.02700
C 	C 	0.98086 0.69105 0.92555 -0.03800
C 	C 	0.93129 0.68691 0.95203 -0.06100
C 	C 	0.92859 0.70860 0.03286 0.12300
Br	Br	0.86415 0.71104 0.06710 -0.18200
H 	H 	0.97221 0.74783 0.14999 0.07500
H 	H 	0.98346 0.67571 0.86258 0.08400
Br	Br	0.09642 0.72806 0.93423 -0.18800
C 	C 	0.17737 0.62113 0.33250 -0.02400
C 	C 	0.15053 0.62926 0.26257 -0.07600
C 	C 	0.12308 0.58752 0.20066 0.13400
C 	C 	0.12487 0.53913 0.20719 -0.03100
C 	C 	0.15430 0.53218 0.27464 -0.06000
C 	C 	0.18021 0.57339 0.33821 0.12900
Br	Br	0.22398 0.56773 0.42897 -0.19000
H 	H 	0.19848 0.65318 0.38031 0.07000
H 	H 	0.10461 0.50753 0.15845 0.08500
Br	Br	0.08267 0.59569 0.10720 -0.17500
C 	C 	0.69826 0.93969 0.53209 -0.02500
C 	C 	0.67729 0.94031 0.45024 -0.06500
C 	C 	0.68114 0.98856 0.41928 0.13100
C 	C 	0.70639 0.03594 0.47017 -0.03100
C 	C 	0.72784 0.03561 0.55223 -0.06800
C 	C 	0.72338 0.98684 0.58327 0.13200
Br	Br	0.74921 0.98266 0.69612 -0.18100
H 	H 	0.69498 0.90236 0.55613 0.09100
H 	H 	0.70983 0.07321 0.44552 0.08200
Br	Br	0.65317 0.99077 0.30695 -0.18600
C 	C 	0.74589 0.96535 0.02730 -0.02400
C 	C 	0.69077 0.94315 0.05134 -0.06300
C 	C 	0.66067 0.96804 0.02446 0.13000
C 	C 	0.68592 0.01472 0.97355 -0.03000
C 	C 	0.74106 0.03687 0.94956 -0.06600
C 	C 	0.77132 0.01232 0.97747 0.13400
Br	Br	0.84824 0.04403 0.95239 -0.17800
H 	H 	0.76923 0.94643 0.04841 0.08400
H 	H 	0.66267 0.03377 0.95258 0.07700
Br	Br	0.58578 0.94011 0.05899 -0.18500
C 	C 	0.71253 0.72144 0.91461 -0.03000
C 	C 	0.71705 0.67729 0.94475 -0.06700
C 	C 	0.69951 0.65780 0.02893 0.13000
C 	C 	0.67845 0.68311 0.08186 -0.02300
C 	C 	0.67571 0.72834 0.05245 -0.08000
C 	C 	0.69231 0.74718 0.96800 0.13600
Br	Br	0.68773 0.80803 0.92419 -0.18700
H 	H 	0.72578 0.73647 0.84996 0.07800
H 	H 	0.66529 0.66829 0.14662 0.08000
Br	Br	0.70672 0.59884 0.07485 -0.19000
C 	C 	0.64775 0.67438 0.45653 -0.02700
C 	C 	0.67524 0.73098 0.44672 -0.08100
C 	C 	0.72364 0.76412 0.49459 0.13100
C 	C 	0.74425 0.74037 0.55110 -0.02700
C 	C 	0.71748 0.68369 0.55965 -0.07700
C 	C 	0.66857 0.65054 0.51277 0.13000
Br	Br	0.62845 0.57298 0.52717 -0.18300
H 	H 	0.61004 0.64889 0.42069 0.07700
H 	H 	0.78196 0.76595 0.58688 0.07300
Br	Br	0.76277 0.84183 0.48268 -0.20500
C 	C 	0.40882 0.79562 0.16756 -0.02600
C 	C 	0.44670 0.82077 0.23526 -0.06500
C 	C 	0.43489 0.84696 0.30226 0.12900
C 	C 	0.38415 0.84527 0.30309 -0.02900
C 	C 	0.34514 0.81768 0.23742 -0.06600
C 	C 	0.35788 0.79295 0.16898 0.13300
Br	Br	0.30459 0.75081 0.08096 -0.19000
H 	H 	0.41777 0.77531 0.11599 0.08200
H 	H 	0.37478 0.86482 0.35532 0.08000
Br	Br	0.48804 0.88641 0.39160 -0.18400
C 	C 	0.43158 0.60169 0.33157 -0.02800
C 	C 	0.45231 0.62450 0.25061 -0.07700
C 	C 	0.42665 0.59390 0.17527 0.13100
C 	C 	0.37634 0.54531 0.18112 -0.03100
C 	C 	0.35282 0.52513 0.26196 -0.07300
C 	C 	0.38299 0.55143 0.33751 0.13200
Br	Br	0.36160 0.51734 0.44826 -0.18900
H 	H 	0.45277 0.62332 0.39003 0.07700
H 	H 	0.35518 0.52373 0.12262 0.07800
Br	Br	0.46165 0.61506 0.06494 -0.19800
