data_crystal

_cell_length_a 35.18723
_cell_length_b 35.80663
_cell_length_c 35.04316
_cell_angle_alpha 95.52417
_cell_angle_beta  95.52015
_cell_angle_gamma 125.37796

_symmetry_space_group_name_	'P 1'
_symmetry_space_group_name_H-M	'P 1'

loop_
_symmetry_equiv_pos_as_xyz
  x,y,z

loop_
_atom_site_label
_atom_site_type_symbol
_atom_site_fract_x
_atom_site_fract_y
_atom_site_fract_z
_atom_site_charge
C 	C 	0.97790 0.02507 0.99701 0.12000
N 	N 	0.95250 0.97810 0.99420 -0.14100
C 	C 	0.97423 0.95691 0.99106 0.12100
N 	N 	0.02150 0.98282 0.99103 -0.14000
C 	C 	0.04705 0.02972 0.99383 0.12200
N 	N 	0.02520 0.05083 0.99671 -0.14000
C 	C 	0.95323 0.99734 0.44162 0.12100
N 	N 	0.00093 0.02329 0.44331 -0.14000
C 	C 	0.02380 0.00317 0.44591 0.12300
N 	N 	0.99887 0.95700 0.44689 -0.14000
C 	C 	0.95124 0.93085 0.44523 0.12200
N 	N 	0.92841 0.95107 0.44271 -0.13900
Cu	Cu	0.65241 0.26768 0.99518 0.93000
Cu	Cu	0.69293 0.26926 0.91439 0.87800
Cu	Cu	0.68378 0.34329 0.94592 0.89900
Cu	Cu	0.65428 0.35521 0.02075 0.90500
C 	C 	0.66414 0.30197 0.07618 0.34200
O 	O 	0.58324 0.24175 0.99212 -0.35800
C 	C 	0.66976 0.31159 0.86102 0.34000
O 	O 	0.69242 0.34054 0.00003 -0.63700
O 	O 	0.64937 0.27430 0.93985 -0.64100
O 	O 	0.68003 0.23240 0.99372 -0.36700
O 	O 	0.73528 0.28007 0.95922 -0.43300
O 	O 	0.64339 0.32140 0.06533 -0.35900
O 	O 	0.72039 0.41054 0.95564 -0.37600
C 	C 	0.71386 0.43574 0.98044 0.29200
C 	C 	0.56621 0.26262 0.97702 0.28700
O 	O 	0.59546 0.30629 0.97334 -0.39000
O 	O 	0.68359 0.41700 0.00459 -0.37700
O 	O 	0.66541 0.27323 0.05060 -0.36000
C 	C 	0.72081 0.24959 0.98249 0.29400
O 	O 	0.68629 0.34670 0.89019 -0.38600
O 	O 	0.66569 0.27366 0.86682 -0.38500
H 	H 	0.72594 0.35981 0.01363 0.17900
H 	H 	0.61699 0.25616 0.92401 0.18600
Cu	Cu	0.72574 0.33544 0.44392 0.92900
Cu	Cu	0.72653 0.29718 0.52494 0.87500
Cu	Cu	0.65282 0.30963 0.49686 0.90100
Cu	Cu	0.63822 0.33716 0.42159 0.90400
C 	C 	0.68720 0.32245 0.36345 0.34100
O 	O 	0.75476 0.40402 0.44587 -0.35800
C 	C 	0.68711 0.32062 0.58124 0.33800
O 	O 	0.65228 0.29893 0.44212 -0.63800
O 	O 	0.72239 0.34085 0.50002 -0.64000
O 	O 	0.75908 0.30546 0.44366 -0.36600
O 	O 	0.71136 0.25360 0.48006 -0.43600
O 	O 	0.66890 0.34414 0.37499 -0.35900
O 	O 	0.58457 0.27570 0.48981 -0.36800
C 	C 	0.55839 0.28042 0.46389 0.29500
C 	C 	0.73557 0.42300 0.46106 0.28500
O 	O 	0.69179 0.39612 0.46687 -0.38200
O 	O 	0.57773 0.31193 0.44124 -0.37800
O 	O 	0.71657 0.32057 0.38828 -0.36200
C 	C 	0.74089 0.26568 0.45566 0.29200
O 	O 	0.65232 0.31008 0.55337 -0.35500
O 	O 	0.72551 0.32588 0.57301 -0.41600
H 	H 	0.63127 0.26570 0.42920 0.17600
H 	H 	0.74251 0.37305 0.51531 0.18200
C 	C 	0.65325 0.34272 0.67572 -0.14200
C 	C 	0.66876 0.32357 0.70032 0.01200
C 	C 	0.69044 0.30384 0.68585 0.28700
C 	C 	0.69647 0.30313 0.64707 -0.06000
C 	C 	0.68090 0.32212 0.62226 -0.14700
C 	C 	0.65926 0.34204 0.63677 0.36900
C 	C 	0.66265 0.32429 0.74132 0.00900
F 	F 	0.70570 0.28535 0.70948 -0.43000
H 	H 	0.71285 0.28738 0.63615 0.07800
F 	F 	0.64494 0.36148 0.61346 -0.44300
H 	H 	0.63670 0.35822 0.68679 0.11700
C 	C 	0.69726 0.36328 0.77005 0.29100
C 	C 	0.69753 0.36020 0.80956 -0.06000
C 	C 	0.66339 0.31805 0.82060 -0.14500
C 	C 	0.62650 0.28033 0.79192 0.36800
C 	C 	0.62621 0.28350 0.75245 -0.14100
F 	F 	0.73217 0.40325 0.75961 -0.42600
H 	H 	0.72574 0.38975 0.83143 0.09100
F 	F 	0.59180 0.24014 0.80225 -0.44700
H 	H 	0.59891 0.25353 0.73043 0.11400
C 	C 	0.64138 0.28571 0.25476 -0.14200
C 	C 	0.68328 0.30183 0.24053 0.01400
C 	C 	0.72568 0.32096 0.26675 0.28700
C 	C 	0.72650 0.32574 0.30698 -0.05600
C 	C 	0.68501 0.31164 0.32129 -0.14400
C 	C 	0.64216 0.29053 0.29495 0.36600
C 	C 	0.68346 0.30243 0.19854 0.01400
F 	F 	0.76629 0.33600 0.25327 -0.42400
H 	H 	0.75971 0.34188 0.32700 0.09500
F 	F 	0.60145 0.27529 0.30832 -0.45600
H 	H 	0.60846 0.27057 0.23466 0.11900
C 	C 	0.66155 0.26068 0.17166 0.28700
C 	C 	0.65716 0.26082 0.13157 -0.05600
C 	C 	0.67440 0.30265 0.11808 -0.14400
C 	C 	0.69807 0.34465 0.14506 0.36600
C 	C 	0.70253 0.34448 0.18510 -0.14200
F 	F 	0.64358 0.21987 0.18437 -0.42300
H 	H 	0.63897 0.22824 0.11103 0.09500
F 	F 	0.71614 0.38554 0.13245 -0.45600
H 	H 	0.71980 0.37688 0.20570 0.11800
C 	C 	0.92443 0.88045 0.44506 -0.02300
C 	C 	0.93535 0.85405 0.42306 -0.01200
C 	C 	0.91408 0.80756 0.42623 -0.05300
C 	C 	0.88173 0.78703 0.45137 0.03500
C 	C 	0.86949 0.81275 0.47241 -0.05300
C 	C 	0.89069 0.85933 0.46920 -0.01300
C 	C 	0.86262 0.74016 0.45661 -0.02000
C 	C 	0.84736 0.70089 0.46025 0.00200
C 	C 	0.83033 0.65492 0.46383 0.00600
C 	C 	0.81617 0.61561 0.46624 -0.02400
C 	C 	0.79937 0.56847 0.46824 0.04700
C 	C 	0.81625 0.54779 0.44664 -0.06700
C 	C 	0.79704 0.50081 0.44574 0.01900
C 	C 	0.76055 0.47404 0.46638 -0.08400
C 	C 	0.74521 0.49551 0.48940 0.01800
C 	C 	0.76445 0.54250 0.49019 -0.06600
H 	H 	0.96088 0.86977 0.40397 0.04200
H 	H 	0.92338 0.78776 0.40962 0.05100
H 	H 	0.84427 0.79700 0.49174 0.05100
H 	H 	0.88197 0.87932 0.48633 0.04200
H 	H 	0.84353 0.56779 0.42984 0.05700
H 	H 	0.80948 0.48494 0.42800 0.04500
H 	H 	0.71775 0.47562 0.50607 0.04400
H 	H 	0.75156 0.55841 0.50728 0.05700
C 	C 	0.92844 0.01925 0.43786 -0.02200
C 	C 	0.94407 0.05509 0.41619 -0.01300
C 	C 	0.92232 0.07760 0.41431 -0.05200
C 	C 	0.88475 0.06451 0.43396 0.03400
C 	C 	0.86840 0.02817 0.45498 -0.05200
C 	C 	0.89011 0.00556 0.45692 -0.01400
C 	C 	0.86413 0.08951 0.43367 -0.02000
C 	C 	0.84716 0.11068 0.43321 0.00100
C 	C 	0.82777 0.13594 0.43306 0.00600
C 	C 	0.81144 0.15771 0.43343 -0.02600
C 	C 	0.79203 0.18382 0.43465 0.04900
C 	C 	0.82073 0.23132 0.43268 -0.06900
C 	C 	0.80335 0.25776 0.43773 0.02200
C 	C 	0.75714 0.23684 0.44501 -0.09200
C 	C 	0.72785 0.18878 0.44534 0.02100
C 	C 	0.74530 0.16245 0.44025 -0.07000
H 	H 	0.97314 0.06558 0.40090 0.04300
H 	H 	0.93500 0.10552 0.39786 0.05100
H 	H 	0.83931 0.01782 0.47023 0.05000
H 	H 	0.87777 0.97811 0.47384 0.04300
H 	H 	0.85683 0.24804 0.42814 0.05700
H 	H 	0.82634 0.29473 0.43729 0.04000
H 	H 	0.69189 0.17199 0.45026 0.03500
H 	H 	0.72277 0.12565 0.44149 0.05500
C 	C 	0.07544 0.03112 0.44697 -0.02200
C 	C 	0.10545 0.07763 0.46692 -0.01300
C 	C 	0.15455 0.10343 0.46909 -0.05200
C 	C 	0.17398 0.08299 0.45134 0.03500
C 	C 	0.14413 0.03682 0.43104 -0.05200
C 	C 	0.09506 0.01096 0.42881 -0.01300
C 	C 	0.22460 0.10930 0.45416 -0.02000
C 	C 	0.26697 0.13135 0.45654 0.00200
C 	C 	0.31654 0.15703 0.45911 0.00700
C 	C 	0.35883 0.17888 0.46103 -0.02500
C 	C 	0.40929 0.20498 0.46293 0.05000
C 	C 	0.43473 0.24935 0.45311 -0.06700
C 	C 	0.48345 0.27417 0.45374 0.02400
C 	C 	0.50716 0.25472 0.46418 -0.07900
C 	C 	0.48158 0.21038 0.47437 0.02300
C 	C 	0.43282 0.18562 0.47372 -0.06700
H 	H 	0.09086 0.09356 0.48124 0.04400
H 	H 	0.17746 0.13916 0.48479 0.05100
H 	H 	0.15892 0.02088 0.41708 0.05100
H 	H 	0.07231 0.97532 0.41293 0.04300
H 	H 	0.41676 0.26456 0.44484 0.05700
H 	H 	0.50275 0.30855 0.44626 0.04300
H 	H 	0.49930 0.19483 0.48228 0.03900
H 	H 	0.41332 0.15129 0.48131 0.05700
C 	C 	0.73831 0.48561 0.97920 -0.08200
C 	C 	0.71674 0.50739 0.98853 0.02200
C 	C 	0.74024 0.55485 0.98818 -0.06800
C 	C 	0.78540 0.58093 0.97848 0.05000
C 	C 	0.80692 0.55932 0.96881 -0.06700
C 	C 	0.78346 0.51180 0.96914 0.02300
C 	C 	0.80986 0.63001 0.97899 -0.02500
C 	C 	0.82987 0.67106 0.97956 0.00700
C 	C 	0.85308 0.71913 0.98047 0.00100
C 	C 	0.87298 0.76023 0.98140 -0.02000
C 	C 	0.89707 0.80937 0.98259 0.03200
C 	C 	0.88491 0.83376 0.00567 -0.05000
C 	C 	0.90952 0.88186 0.00796 -0.01100
C 	C 	0.94658 0.90588 0.98719 -0.02500
C 	C 	0.95812 0.88113 0.96359 -0.01300
C 	C 	0.93347 0.83308 0.96137 -0.05200
H 	H 	0.68169 0.48753 0.99588 0.03900
H 	H 	0.72337 0.57135 0.99555 0.05600
H 	H 	0.84188 0.57935 0.96129 0.05700
H 	H 	0.80063 0.49553 0.96207 0.04000
H 	H 	0.85673 0.81559 0.02213 0.05100
H 	H 	0.90039 0.90053 0.02640 0.04400
H 	H 	0.98621 0.89911 0.94703 0.04300
H 	H 	0.94289 0.81436 0.94333 0.05100
C 	C 	0.74824 0.23157 0.99298 -0.09600
C 	C 	0.79677 0.25779 0.99127 0.02400
C 	C 	0.82150 0.23858 0.99677 -0.07500
C 	C 	0.79805 0.19317 0.00419 0.05500
C 	C 	0.75022 0.16768 0.00767 -0.07200
C 	C 	0.72537 0.18679 0.00216 0.02800
C 	C 	0.82208 0.17156 0.00533 -0.02700
C 	C 	0.84240 0.15368 0.00626 0.00800
C 	C 	0.86589 0.13244 0.00640 0.00200
C 	C 	0.88557 0.11391 0.00583 -0.02100
C 	C 	0.90853 0.09126 0.00440 0.03900
C 	C 	0.95543 0.11470 0.02387 -0.05500
C 	C 	0.97813 0.09312 0.02156 -0.01000
C 	C 	0.95400 0.04788 0.99968 -0.02600
C 	C 	0.90689 0.02445 0.98034 -0.01200
C 	C 	0.88430 0.04609 0.98273 -0.05700
H 	H 	0.81514 0.29271 0.98501 0.03500
H 	H 	0.85861 0.25863 0.99439 0.05600
H 	H 	0.73195 0.13263 0.01364 0.05900
H 	H 	0.68805 0.16621 0.00380 0.04200
H 	H 	0.97436 0.14965 0.04069 0.05200
H 	H 	0.01429 0.11143 0.03696 0.04400
H 	H 	0.88796 0.98973 0.96310 0.04300
H 	H 	0.84806 0.02784 0.96752 0.05100
C 	C 	0.51446 0.23919 0.96925 -0.08500
C 	C 	0.49675 0.26543 0.96507 0.02000
C 	C 	0.44844 0.24455 0.96332 -0.06800
C 	C 	0.41740 0.19735 0.96551 0.04900
C 	C 	0.43439 0.17043 0.96744 -0.06800
C 	C 	0.48271 0.19119 0.96917 0.02300
C 	C 	0.36909 0.17757 0.96899 -0.02600
C 	C 	0.32865 0.16108 0.97190 0.00600
C 	C 	0.28155 0.14173 0.97618 0.00100
C 	C 	0.24139 0.12469 0.98042 -0.02000
C 	C 	0.19345 0.10338 0.98602 0.03200
C 	C 	0.16603 0.11531 0.96706 -0.05200
C 	C 	0.11853 0.09247 0.97073 -0.01300
C 	C 	0.09819 0.05739 0.99329 -0.02500
C 	C 	0.12624 0.04657 0.01317 -0.01000
C 	C 	0.17365 0.06948 0.00952 -0.05000
H 	H 	0.52056 0.30230 0.96451 0.03600
H 	H 	0.43540 0.26543 0.96141 0.05500
H 	H 	0.41042 0.13373 0.96866 0.05700
H 	H 	0.49555 0.17019 0.97139 0.04100
H 	H 	0.18122 0.14169 0.94899 0.05000
H 	H 	0.09725 0.10108 0.95520 0.04300
H 	H 	0.11112 0.02000 0.03106 0.04400
H 	H 	0.19480 0.06038 0.02451 0.05100
