data_crystal

_cell_length_a 20.10356
_cell_length_b 19.17874
_cell_length_c 39.36629
_cell_angle_alpha 89.74488
_cell_angle_beta  89.75205
_cell_angle_gamma 119.40736

_symmetry_space_group_name_	'P 1'
_symmetry_space_group_name_H-M	'P 1'

loop_
_symmetry_equiv_pos_as_xyz
  x,y,z

loop_
_atom_site_label
_atom_site_type_symbol
_atom_site_fract_x
_atom_site_fract_y
_atom_site_fract_z
_atom_site_charge
Ni	Ni	0.00519 0.97238 0.21142 1.13200
C 	C 	0.00544 0.28073 0.82346 0.30600
F 	F 	0.00579 0.54628 0.04513 -0.40800
H 	H 	0.00914 0.74191 0.89575 0.11100
C 	C 	0.01046 0.21607 0.81008 -0.05300
O 	O 	0.01096 0.84141 0.72481 -0.36200
C 	C 	0.01876 0.77291 0.33182 -0.13300
C 	C 	0.01888 0.70766 0.31585 0.01400
C 	C 	0.01350 0.41398 0.81629 0.01600
C 	C 	0.01948 0.57502 0.50270 0.06800
C 	C 	0.01781 0.59028 0.07364 0.39300
C 	C 	0.02190 0.10836 0.16899 0.35100
C 	C 	0.02265 0.49751 0.86402 -0.04500
F 	F 	0.02368 0.95875 0.60441 -0.41900
C 	C 	0.02366 0.80350 0.89095 -0.14400
C 	C 	0.02427 0.85166 0.91783 0.00300
O 	O 	0.02484 0.98220 0.80730 -0.36600
C 	C 	0.02701 0.34978 0.80358 0.02200
F 	F 	0.03407 0.67349 0.00000 -0.42200
H 	H 	0.02995 0.24795 0.14893 0.11400
F 	F 	0.03216 0.78353 0.83190 -0.43000
C 	C 	0.03840 0.78183 0.96840 -0.14800
C 	C 	0.03636 0.14896 0.76189 0.33900
C 	C 	0.03656 0.21949 0.77670 -0.11600
C 	C 	0.03792 0.83303 0.85765 0.36800
H 	H 	0.04963 0.79607 0.35529 0.12800
C 	C 	0.04244 0.93116 0.91126 0.31500
C 	C 	0.05100 0.62366 0.35345 -0.13700
F 	F 	0.04444 0.97884 0.93707 -0.39700
C 	C 	0.03902 0.67432 0.13415 0.29900
H 	H 	0.04913 0.52501 0.88785 0.10200
C 	C 	0.05371 0.91183 0.85076 -0.12300
C 	C 	0.05276 0.45807 0.84493 0.31000
C 	C 	0.05715 0.96112 0.87785 -0.07100
C 	C 	0.05871 0.93965 0.81517 0.33400
C 	C 	0.05301 0.15205 0.13654 -0.12400
F 	F 	0.04998 0.71575 0.16340 -0.40000
O 	O 	0.06099 0.99558 0.67014 -0.35500
C 	C 	0.05475 0.35403 0.77050 -0.13900
C 	C 	0.05502 0.22535 0.13065 -0.05000
H 	H 	0.06286 0.12540 0.32467 0.10500
O 	O 	0.06398 0.00783 0.74163 -0.71800
C 	C 	0.05932 0.28922 0.75699 0.38200
C 	C 	0.06922 0.54258 0.96705 0.11200
O 	O 	0.05853 0.07680 0.18462 -0.32400
C 	C 	0.07217 0.68063 0.32730 0.02100
O 	O 	0.06458 0.14168 0.24581 -0.34800
H 	H 	0.06982 0.02208 0.87297 0.12100
F 	F 	0.98045 0.78332 0.07721 -0.40900
Ni	Ni	0.07983 0.07952 0.70524 1.13300
H 	H 	0.07604 0.27790 0.02022 0.13900
F 	F 	0.08341 0.54994 0.39236 -0.42800
O 	O 	0.08652 0.91077 0.79138 -0.32400
H 	H 	0.07092 0.40679 0.75495 0.13400
H 	H 	0.09795 0.80306 0.96234 0.12200
F 	F 	0.08165 0.05134 0.11695 -0.41800
O 	O 	0.09092 0.16108 0.73962 -0.31800
C 	C 	0.97366 0.65287 0.11455 0.01800
C 	C 	0.08629 0.60245 0.49515 -0.03700
O 	O 	0.08309 0.03164 0.24813 -0.32000
C 	C 	0.08585 0.12363 0.11245 0.37800
F 	F 	0.08272 0.29285 0.72431 -0.41800
H 	H 	0.09633 0.04619 0.75900 0.17300
C 	C 	0.09913 0.98326 0.60044 0.36700
H 	H 	0.09990 0.01110 0.54730 0.13700
C 	C 	0.09228 0.27144 0.10189 0.29800
C 	C 	0.09391 0.10064 0.26070 0.33900
C 	C 	0.10465 0.60486 0.36693 0.37100
Ni	Ni	0.10964 0.94287 0.73941 1.11900
F 	F 	0.09631 0.34362 0.09729 -0.40800
F 	F 	0.11598 0.45664 0.85593 -0.39400
C 	C 	0.98374 0.81211 0.31620 0.37600
F 	F 	0.98880 0.87874 0.33058 -0.43200
C 	C 	0.11246 0.97454 0.66353 0.35700
C 	C 	0.13287 0.59817 0.96563 -0.04500
C 	C 	0.12345 0.15366 0.31903 -0.05300
C 	C 	0.12328 0.16994 0.08367 -0.12600
C 	C 	0.13339 0.00902 0.56837 -0.13300
C 	C 	0.12765 0.24450 0.07854 0.01800
C 	C 	0.08783 0.62158 0.09077 -0.13300
C 	C 	0.13698 0.31500 0.02387 -0.12800
C 	C 	0.96153 0.60746 0.08511 -0.12900
C 	C 	0.14589 0.71506 0.31323 0.30600
O 	O 	0.14681 0.95946 0.68864 -0.36100
C 	C 	0.14315 0.98428 0.62845 -0.14600
F 	F 	0.13952 0.40783 0.98274 -0.42000
H 	H 	0.14975 0.14837 0.06564 0.14200
F 	F 	0.16619 0.76845 0.28718 -0.39100
H 	H 	0.99354 0.59530 0.36382 0.13100
C 	C 	0.18055 0.64465 0.35481 -0.12300
F 	F 	0.14945 0.23020 0.36948 -0.39300
C 	C 	0.19967 0.69688 0.32682 -0.05300
C 	C 	0.14875 0.13861 0.28815 -0.12600
O 	O 	0.16545 0.59410 0.45298 -0.33600
C 	C 	0.09587 0.65867 0.12230 -0.04700
C 	C 	0.16183 0.62513 0.48236 0.30100
C 	C 	0.17346 0.29709 0.05006 0.01900
C 	C 	0.17740 0.38606 0.00508 0.38900
C 	C 	0.20932 0.66274 0.96586 0.33200
H 	H 	0.25713 0.72582 0.31643 0.12400
O 	O 	0.97023 0.86397 0.23376 -0.35300
C 	C 	0.92431 0.68741 0.12237 0.01300
C 	C 	0.93792 0.75864 0.10616 0.30100
C 	C 	0.99448 0.47887 0.97035 0.11600
O 	O 	0.96688 0.11399 0.18473 -0.34700
H 	H 	0.97567 0.68885 0.76042 0.11600
C 	C 	0.69364 0.41463 0.86567 0.34000
C 	C 	0.87403 0.59100 0.98111 0.35800
C 	C 	0.90191 0.49081 0.88183 0.36300
C 	C 	0.67453 0.53065 0.96796 0.31300
C 	C 	0.84990 0.37404 0.97922 0.33200
C 	C 	0.64544 0.25398 0.96016 0.30500
Ni	Ni	0.79498 0.53663 0.91616 1.11800
Ni	Ni	0.73727 0.42509 0.98560 1.12600
Ni	Ni	0.77179 0.35821 0.91553 1.13200
O 	O 	0.70922 0.48328 0.88039 -0.35300
O 	O 	0.73906 0.38272 0.86966 -0.31300
O 	O 	0.81373 0.39412 0.00121 -0.34700
O 	O 	0.88287 0.57238 0.95026 -0.37900
O 	O 	0.81221 0.54205 0.99883 -0.36100
O 	O 	0.66562 0.27538 0.92819 -0.34000
O 	O 	0.86468 0.53031 0.87802 -0.33600
O 	O 	0.88222 0.43759 0.90595 -0.37800
O 	O 	0.65407 0.30724 0.98401 -0.34300
O 	O 	0.73505 0.57511 0.94827 -0.35600
O 	O 	0.65786 0.45861 0.97874 -0.36300
O 	O 	0.81124 0.32334 0.95518 -0.36100
O 	O 	0.75253 0.43484 0.93714 -0.71200
H 	H 	0.69844 0.41317 0.93114 0.16500
C 	C 	0.66134 0.32012 0.62275 0.33900
C 	C 	0.46697 0.21496 0.50473 0.33900
C 	C 	0.58268 0.12447 0.57861 0.36200
C 	C 	0.52225 0.39776 0.54801 0.32200
C 	C 	0.66533 0.24697 0.48206 0.32800
C 	C 	0.79297 0.44021 0.52456 0.30000
Ni	Ni	0.53199 0.24857 0.57340 1.12500
Ni	Ni	0.62368 0.36163 0.50683 1.12600
Ni	Ni	0.70013 0.27951 0.55380 1.13000
O 	O 	0.59196 0.30925 0.61618 -0.34400
O 	O 	0.68997 0.28047 0.60582 -0.32000
O 	O 	0.64778 0.30096 0.47242 -0.36100
O 	O 	0.48973 0.18562 0.52917 -0.36400
O 	O 	0.50990 0.29045 0.49487 -0.33300
O 	O 	0.78011 0.39525 0.55200 -0.33400
O 	O 	0.54453 0.15475 0.59361 -0.31400
O 	O 	0.62564 0.16118 0.55246 -0.37800
O 	O 	0.73704 0.44798 0.50964 -0.33600
O 	O 	0.48755 0.32532 0.56225 -0.33700
O 	O 	0.59115 0.42853 0.53431 -0.35400
O 	O 	0.71897 0.26537 0.50476 -0.35400
O 	O 	0.62422 0.31045 0.54891 -0.71200
H 	H 	0.64758 0.35979 0.56246 0.16400
C 	C 	0.23268 0.11401 0.73237 0.34400
C 	C 	0.94886 0.80941 0.74356 0.37400
C 	C 	0.91216 0.98862 0.69755 0.34900
Ni	Ni	0.96777 0.96748 0.76335 1.13000
O 	O 	0.21293 0.04527 0.74824 -0.35100
O 	O 	0.19456 0.11730 0.70543 -0.35500
O 	O 	0.90492 0.93625 0.72092 -0.32200
O 	O 	0.93969 0.85030 0.76803 -0.34500
O 	O 	0.97407 0.07720 0.76612 -0.35300
O 	O 	0.97326 0.06001 0.69647 -0.35600
C 	C 	0.24190 0.64238 0.37446 0.33200
C 	C 	0.49827 0.76546 0.46656 0.35100
C 	C 	0.35775 0.54460 0.40118 0.36100
C 	C 	0.41079 0.86983 0.44282 0.32000
C 	C 	0.31394 0.57042 0.50657 0.32500
Ni	Ni	0.39506 0.71741 0.40771 1.12100
Ni	Ni	0.33729 0.72680 0.48591 1.12600
Ni	Ni	0.24629 0.56654 0.44079 1.13100
O 	O 	0.31118 0.70626 0.37409 -0.34400
O 	O 	0.22887 0.57485 0.38992 -0.32400
O 	O 	0.34042 0.64441 0.51617 -0.35900
O 	O 	0.46755 0.71131 0.44294 -0.35400
O 	O 	0.45512 0.78391 0.48591 -0.36100
O 	O 	0.38071 0.61268 0.38510 -0.32200
O 	O 	0.32528 0.53312 0.43101 -0.37600
O 	O 	0.22332 0.68666 0.49652 -0.33500
O 	O 	0.43251 0.83875 0.41791 -0.35300
O 	O 	0.34975 0.82557 0.46177 -0.35500
O 	O 	0.25056 0.53421 0.48906 -0.36300
O 	O 	0.31881 0.67750 0.44205 -0.71200
H 	H 	0.28681 0.69961 0.43369 0.16100
C 	C 	0.46613 0.68181 0.03273 0.32200
C 	C 	0.15623 0.63174 0.07268 0.36900
C 	C 	0.27642 0.52570 0.01454 0.36500
C 	C 	0.34759 0.80975 0.09245 0.33800
C 	C 	0.40104 0.86888 0.98935 0.31500
Ni	Ni	0.31343 0.64808 0.06778 1.12300
Ni	Ni	0.25984 0.75936 0.02700 1.13200
Ni	Ni	0.35935 0.69460 0.98739 1.12600
O 	O 	0.41479 0.64344 0.05731 -0.34300
O 	O 	0.45864 0.73039 0.01143 -0.36300
O 	O 	0.22402 0.73161 0.97889 -0.35800
O 	O 	0.21325 0.63492 0.09008 -0.35000
O 	O 	0.16681 0.65620 0.04113 -0.34100
O 	O 	0.39253 0.80785 0.97009 -0.35100
O 	O 	0.24727 0.54891 0.03876 -0.35300
O 	O 	0.33549 0.57858 0.99641 -0.36600
O 	O 	0.34602 0.86295 0.00992 -0.34000
O 	O 	0.36600 0.75235 0.09593 -0.34000
O 	O 	0.28416 0.79674 0.07651 -0.35300
O 	O 	0.26478 0.64780 0.95939 -0.35100
O 	O 	0.32433 0.71333 0.02976 -0.71400
H 	H 	0.37188 0.76144 0.03616 0.17000
C 	C 	0.85627 0.00874 0.29914 0.34800
C 	C 	0.78582 0.01291 0.21129 0.36700
C 	C 	0.87692 0.84928 0.17513 0.35000
C 	C 	0.93333 0.83963 0.26335 0.34700
Ni	Ni	0.94767 0.09524 0.23690 1.12500
Ni	Ni	0.83389 0.90231 0.23869 1.12800
O 	O 	0.91720 0.07519 0.28817 -0.34500
O 	O 	0.80711 0.95561 0.27741 -0.35400
O 	O 	0.93417 0.92257 0.17248 -0.36700
O 	O 	0.87231 0.84719 0.27045 -0.35000
O 	O 	0.83600 0.07259 0.22959 -0.31600
O 	O 	0.79640 0.95248 0.20383 -0.37900
O 	O 	0.83088 0.82778 0.20175 -0.33200
O 	O 	0.93460 0.99102 0.23647 -0.72000
H 	H 	0.95129 0.98801 0.25964 0.15900
C 	C 	0.25325 0.34271 0.05287 0.29600
C 	C 	0.29348 0.41346 0.03382 -0.05200
C 	C 	0.25349 0.44043 0.01338 -0.13500
F 	F 	0.29047 0.32323 0.07649 -0.40700
H 	H 	0.35360 0.45266 0.03874 0.10000
C 	C 	0.52539 0.98728 0.11827 -0.15600
C 	C 	0.51324 0.98043 0.15354 0.02000
C 	C 	0.43788 0.93994 0.16610 0.31500
C 	C 	0.37815 0.89143 0.14435 -0.04400
C 	C 	0.39370 0.88538 0.11006 -0.13200
C 	C 	0.46556 0.93982 0.09651 0.37800
C 	C 	0.57719 0.99405 0.17598 0.01000
F 	F 	0.42403 0.93976 0.19989 -0.38200
H 	H 	0.32172 0.85253 0.15479 0.11900
F 	F 	0.47998 0.93875 0.06287 -0.44800
H 	H 	0.58269 0.02222 0.10804 0.13200
C 	C 	0.57757 0.92817 0.19168 0.31000
C 	C 	0.64508 0.93603 0.20495 -0.05900
C 	C 	0.71319 0.00913 0.20232 -0.12100
C 	C 	0.71190 0.07660 0.18903 0.37800
C 	C 	0.64389 0.06907 0.17610 -0.13000
F 	F 	0.51385 0.85505 0.19171 -0.39800
H 	H 	0.64511 0.88429 0.21613 0.10400
F 	F 	0.77716 0.14819 0.18687 -0.41700
H 	H 	0.64407 0.12041 0.16440 0.12900
H 	H 	0.14864 0.68097 0.13631 0.11500
H 	H 	0.91009 0.58846 0.07040 0.13100
C 	C 	0.91383 0.80813 0.12152 -0.05500
C 	C 	0.87613 0.78664 0.15312 -0.13000
C 	C 	0.85182 0.70920 0.16628 0.37600
C 	C 	0.87636 0.66013 0.15097 -0.13200
H 	H 	0.92931 0.86568 0.11010 0.12300
F 	F 	0.80924 0.68380 0.19519 -0.42300
H 	H 	0.86308 0.60364 0.16286 0.13600
C 	C 	0.69427 0.83830 0.43433 -0.14000
C 	C 	0.71576 0.91928 0.42949 0.02800
C 	C 	0.67877 0.95218 0.44868 0.28200
C 	C 	0.61237 0.90161 0.46715 -0.04400
C 	C 	0.58199 0.81829 0.46574 -0.13800
C 	C 	0.62830 0.78819 0.45300 0.38000
C 	C 	0.76197 0.96253 0.39916 0.01700
F 	F 	0.70333 0.03189 0.44709 -0.40100
H 	H 	0.58138 0.92660 0.48009 0.09600
F 	F 	0.60470 0.70875 0.45530 -0.42000
H 	H 	0.72456 0.81273 0.42113 0.14300
C 	C 	0.83382 0.96864 0.39337 0.30100
C 	C 	0.86782 0.98971 0.36103 -0.06200
C 	C 	0.83067 0.00545 0.33446 -0.12200
C 	C 	0.76263 0.00676 0.34113 0.38600
C 	C 	0.72842 0.98522 0.37327 -0.14300
F 	F 	0.86888 0.95062 0.41857 -0.39700
H 	H 	0.92114 0.99009 0.35626 0.11900
F 	F 	0.72767 0.02502 0.31595 -0.41300
H 	H 	0.67349 0.98158 0.37746 0.13300
C 	C 	0.27977 0.22972 0.30403 -0.14300
C 	C 	0.25371 0.25236 0.33285 0.02400
C 	C 	0.17557 0.21046 0.34131 0.30600
C 	C 	0.22737 0.17331 0.28158 0.38400
C 	C 	0.30374 0.32993 0.34910 0.01300
F 	F 	0.25268 0.15716 0.25223 -0.40700
H 	H 	0.34009 0.26024 0.29772 0.13400
C 	C 	0.31579 0.33398 0.38432 0.31500
C 	C 	0.34107 0.40666 0.40120 -0.05300
C 	C 	0.35456 0.47569 0.38295 -0.13200
C 	C 	0.35289 0.47346 0.34717 0.38000
C 	C 	0.32742 0.40080 0.33044 -0.14300
F 	F 	0.29833 0.26665 0.40242 -0.38900
H 	H 	0.34624 0.40837 0.42861 0.11900
F 	F 	0.37129 0.54050 0.32866 -0.41600
H 	H 	0.32087 0.39865 0.30309 0.12900
C 	C 	0.97746 0.67709 0.28586 0.31500
C 	C 	0.94245 0.71619 0.27027 -0.04900
C 	C 	0.94874 0.78615 0.28451 -0.12200
F 	F 	0.97537 0.61263 0.27068 -0.39200
H 	H 	0.91442 0.69500 0.24605 0.13500
C 	C 	0.46158 0.95119 0.45229 -0.08000
C 	C 	0.50841 0.01856 0.45979 0.07700
C 	C 	0.56533 0.09696 0.46804 0.07500
C 	C 	0.61294 0.16464 0.47465 -0.06100
C 	C 	0.93959 0.53498 0.50967 0.06900
C 	C 	0.87178 0.49494 0.51566 -0.03900
C 	C 	0.47733 0.43574 0.54111 -0.03300
C 	C 	0.43750 0.46457 0.53416 0.08100
C 	C 	0.39076 0.49764 0.52505 0.08200
C 	C 	0.35317 0.52822 0.51677 -0.05900
C 	C 	0.64133 0.02869 0.64634 -0.13600
C 	C 	0.66582 0.98530 0.62621 0.00900
C 	C 	0.64399 0.97119 0.59198 0.30100
C 	C 	0.60802 0.01005 0.57696 -0.04000
C 	C 	0.59321 0.06262 0.59614 -0.13900
C 	C 	0.60491 0.06703 0.63146 0.38000
C 	C 	0.72481 0.96787 0.63937 0.01500
F 	F 	0.66228 0.92432 0.57278 -0.39400
H 	H 	0.59628 0.00350 0.54997 0.10500
F 	F 	0.58731 0.11417 0.65086 -0.41300
H 	H 	0.65564 0.03767 0.67306 0.13000
C 	C 	0.79942 0.00923 0.62600 0.31600
C 	C 	0.85986 0.01047 0.64387 -0.04100
C 	C 	0.84678 0.97203 0.67557 -0.12700
C 	C 	0.77125 0.92490 0.68750 0.38200
C 	C 	0.71061 0.92232 0.66922 -0.14200
F 	F 	0.81413 0.05303 0.59698 -0.39100
H 	H 	0.91744 0.04458 0.63383 0.12300
F 	F 	0.75694 0.88575 0.71777 -0.40300
H 	H 	0.65307 0.88908 0.67939 0.13100
C 	C 	0.21118 0.03433 0.56381 0.01800
C 	C 	0.25374 0.03001 0.59117 0.29500
C 	C 	0.21984 0.00487 0.62323 -0.04600
C 	C 	0.25044 0.07373 0.53174 0.01200
F 	F 	0.32914 0.05430 0.58709 -0.42500
H 	H 	0.25435 0.00527 0.64437 0.10700
C 	C 	0.28406 0.03873 0.51171 0.31900
C 	C 	0.35066 0.08793 0.49312 -0.05100
C 	C 	0.38525 0.17145 0.49640 -0.12400
C 	C 	0.33936 0.20333 0.50758 0.38000
C 	C 	0.27299 0.15484 0.52645 -0.13900
F 	F 	0.25826 0.95882 0.51375 -0.41300
H 	H 	0.38178 0.06172 0.48116 0.10400
F 	F 	0.36442 0.28285 0.50454 -0.42600
H 	H 	0.24389 0.18171 0.53965 0.12400
C 	C 	0.81866 0.48030 0.67418 -0.13100
C 	C 	0.77647 0.48901 0.70070 0.01900
C 	C 	0.69897 0.43221 0.70484 0.30400
C 	C 	0.66226 0.37267 0.68054 -0.05000
C 	C 	0.70292 0.36891 0.65215 -0.12000
C 	C 	0.78223 0.42023 0.65010 0.37100
C 	C 	0.81000 0.56416 0.72008 0.02400
F 	F 	0.65838 0.43753 0.73134 -0.39200
H 	H 	0.60153 0.33171 0.68297 0.14000
F 	F 	0.82310 0.41541 0.62358 -0.42700
H 	H 	0.87883 0.52309 0.67108 0.13600
C 	C 	0.87815 0.58918 0.73803 0.30000
C 	C 	0.92105 0.66879 0.74825 -0.04500
C 	C 	0.89579 0.72355 0.74087 -0.13500
C 	C 	0.82397 0.69663 0.72616 0.38000
C 	C 	0.78126 0.61719 0.71574 -0.13300
F 	F 	0.90511 0.53767 0.74362 -0.40000
F 	F 	0.79807 0.74873 0.71977 -0.40200
H 	H 	0.72818 0.59816 0.70234 0.14400
C 	C 	0.92923 0.42787 0.97414 -0.05900
C 	C 	0.46046 0.94798 0.98118 -0.05300
C 	C 	0.50633 0.01731 0.97632 0.09000
C 	C 	0.55620 0.09986 0.97166 0.06400
C 	C 	0.59711 0.17060 0.96725 -0.04400
C 	C 	0.51640 0.65235 0.02290 -0.07000
C 	C 	0.55582 0.62672 0.01160 0.07100
C 	C 	0.59905 0.59547 0.99634 0.05300
C 	C 	0.63416 0.56708 0.98294 -0.06200
C 	C 	0.95184 0.42109 0.80378 -0.13600
C 	C 	0.95276 0.49178 0.85484 -0.14000
C 	C 	0.92193 0.46077 0.82287 0.38900
F 	F 	0.85742 0.46014 0.81235 -0.40300
H 	H 	0.92329 0.39034 0.78078 0.14000
F 	F 	0.97733 0.27541 0.85537 -0.40000
H 	H 	0.99310 0.16288 0.82550 0.11100
C 	C 	0.38245 0.28762 0.77993 -0.13700
C 	C 	0.44772 0.28377 0.77010 0.02600
C 	C 	0.44379 0.23552 0.74259 0.29400
C 	C 	0.37347 0.18517 0.72760 -0.05000
C 	C 	0.30691 0.18279 0.73999 -0.13700
C 	C 	0.31217 0.23721 0.76493 0.37600
C 	C 	0.51509 0.31811 0.79221 0.02200
F 	F 	0.50703 0.23305 0.73216 -0.40300
H 	H 	0.36994 0.14427 0.70787 0.10500
F 	F 	0.24826 0.23690 0.77643 -0.42900
H 	H 	0.38526 0.32576 0.80074 0.13800
C 	C 	0.55850 0.40124 0.79645 0.31400
C 	C 	0.61810 0.43287 0.81986 -0.04300
C 	C 	0.63404 0.38159 0.83956 -0.12000
C 	C 	0.59119 0.29844 0.83488 0.37700
C 	C 	0.53219 0.26703 0.81127 -0.12900
F 	F 	0.54275 0.45125 0.77798 -0.39000
H 	H 	0.65166 0.49717 0.82278 0.11900
F 	F 	0.60491 0.24793 0.85407 -0.42700
H 	H 	0.49829 0.20273 0.80840 0.13400
C 	C 	0.99877 0.81559 0.95205 0.02600
C 	C 	0.92395 0.79226 0.96298 0.29500
C 	C 	0.88456 0.72380 0.98349 -0.05700
C 	C 	0.91797 0.67593 0.99028 -0.13700
C 	C 	0.99795 0.71260 0.98833 0.37800
F 	F 	0.88645 0.82908 0.95022 -0.40100
H 	H 	0.82457 0.70118 0.98900 0.10400
