data_crystal

_cell_length_a 48.55150
_cell_length_b 48.80729
_cell_length_c 21.81691
_cell_angle_alpha 89.85532
_cell_angle_beta  89.99989
_cell_angle_gamma 90.00007

_symmetry_space_group_name_	'P 1'
_symmetry_space_group_name_H-M	'P 1'

loop_
_symmetry_equiv_pos_as_xyz
  x,y,z

loop_
_atom_site_label
_atom_site_type_symbol
_atom_site_fract_x
_atom_site_fract_y
_atom_site_fract_z
_atom_site_charge
C 	C 	0.48361 0.55662 0.81747 0.10200
N 	N 	0.46982 0.53449 0.83812 -0.17300
C 	C 	0.44305 0.53875 0.82500 0.10200
C 	C 	0.42057 0.52357 0.85597 -0.07700
C 	C 	0.42221 0.49348 0.86265 0.09100
C 	C 	0.39514 0.53790 0.87438 0.05000
C 	C 	0.39254 0.54837 0.93388 -0.06300
C 	C 	0.36750 0.55956 0.95322 -0.01200
C 	C 	0.34505 0.56078 0.91279 -0.01800
C 	C 	0.37289 0.53959 0.83359 -0.06100
N 	N 	0.43956 0.47788 0.82944 -0.12700
C 	C 	0.41176 0.47907 0.91210 -0.05900
C 	C 	0.43963 0.45317 0.85723 0.09000
C 	C 	0.46086 0.43217 0.84497 -0.07600
C 	C 	0.45565 0.40327 0.86201 0.04900
C 	C 	0.42751 0.36231 0.85494 -0.01100
C 	C 	0.47368 0.38953 0.90184 -0.06200
C 	C 	0.46870 0.36224 0.91805 -0.01200
C 	C 	0.44555 0.34849 0.89472 -0.01700
N 	N 	0.50172 0.46182 0.82944 -0.17300
C 	C 	0.52715 0.45790 0.80648 0.10300
C 	C 	0.52839 0.43334 0.77492 -0.06000
C 	C 	0.50245 0.42184 0.77897 -0.06000
C 	C 	0.55158 0.47242 0.83056 -0.07700
C 	C 	0.57684 0.45706 0.84586 0.04900
C 	C 	0.62485 0.44689 0.82535 -0.01100
C 	C 	0.62684 0.43309 0.88172 -0.01800
C 	C 	0.60340 0.43042 0.91894 -0.01200
C 	C 	0.57844 0.44223 0.90085 -0.06300
N 	N 	0.53111 0.51838 0.81335 -0.12700
C 	C 	0.55417 0.54228 0.88511 -0.06000
C 	C 	0.53334 0.54274 0.84190 0.09000
C 	C 	0.51152 0.56384 0.83957 -0.07600
C 	C 	0.51824 0.59254 0.85527 0.04800
C 	C 	0.53832 0.60676 0.82174 -0.06100
C 	C 	0.54507 0.63371 0.83715 -0.01200
C 	C 	0.53182 0.64669 0.88644 -0.01800
C 	C 	0.51164 0.63240 0.91991 -0.01300
C 	C 	0.50488 0.60545 0.90431 -0.06300
C 	C 	0.46558 0.57515 0.79081 -0.06000
C 	C 	0.43964 0.56375 0.79570 -0.06100
C 	C 	0.34800 0.55119 0.85256 -0.01000
C 	C 	0.42297 0.45321 0.90867 -0.06000
C 	C 	0.48663 0.43990 0.81295 0.10300
C 	C 	0.56556 0.51648 0.88240 -0.06000
C 	C 	0.55108 0.50253 0.83762 0.09100
C 	C 	0.59998 0.45895 0.80768 -0.06200
H 	H 	0.47682 0.52171 0.87335 0.09300
H 	H 	0.49746 0.47405 0.86756 0.09300
H 	H 	0.56041 0.64456 0.81042 0.04800
H 	H 	0.50140 0.64204 0.95832 0.04400
H 	H 	0.54863 0.59697 0.78359 0.05400
H 	H 	0.48941 0.59455 0.93056 0.04900
H 	H 	0.36547 0.56704 0.99972 0.04300
H 	H 	0.37478 0.53159 0.78751 0.05500
H 	H 	0.33077 0.55198 0.82103 0.04700
H 	H 	0.40969 0.54720 0.96555 0.04800
H 	H 	0.48267 0.35189 0.94915 0.04500
H 	H 	0.49150 0.40002 0.92033 0.04900
C 	C 	0.43256 0.38956 0.83865 -0.06000
H 	H 	0.40974 0.35187 0.83611 0.04800
H 	H 	0.64281 0.44911 0.79628 0.04700
H 	H 	0.59884 0.47028 0.76498 0.05400
H 	H 	0.56057 0.44055 0.93039 0.04800
H 	H 	0.60463 0.41959 0.96227 0.04300
H 	H 	0.46953 0.59685 0.78534 0.05400
H 	H 	0.42067 0.57539 0.79466 0.05300
H 	H 	0.40411 0.48831 0.95381 0.05000
H 	H 	0.42533 0.43950 0.94742 0.05100
H 	H 	0.54706 0.42183 0.76649 0.05400
H 	H 	0.49822 0.40019 0.77382 0.05500
H 	H 	0.55518 0.55552 0.92479 0.05000
H 	H 	0.57665 0.50685 0.91972 0.05100
H 	H 	0.41861 0.39997 0.80763 0.05500
Co	Co	0.39197 0.10360 0.94946 1.17800
Co	Co	0.40128 0.03953 0.93869 1.09400
O 	O 	0.38455 0.14389 0.96591 -0.35300
O 	O 	0.42759 0.13547 0.96222 -0.30500
O 	O 	0.35533 0.08657 0.93959 -0.39500
O 	O 	0.38927 0.05631 0.86015 -0.45700
C 	C 	0.34797 0.06481 0.97141 0.28500
C 	C 	0.40896 0.15387 0.97084 0.26600
O 	O 	0.36644 0.04666 0.98872 -0.42600
O 	O 	0.40519 0.10000 0.86616 -0.42300
C 	C 	0.40288 0.07688 0.83591 0.30200
O 	O 	0.40049 0.09028 0.03048 -0.41500
O 	O 	0.42891 0.05787 0.99126 -0.49900
C 	C 	0.42101 0.07310 0.03755 0.33900
C 	C 	0.51782 0.03431 0.49826 0.01200
C 	C 	0.53554 0.01104 0.49783 0.01300
C 	C 	0.51179 0.04803 0.44316 -0.05300
C 	C 	0.52439 0.03973 0.38821 0.01300
C 	C 	0.54758 0.00234 0.44265 -0.05400
C 	C 	0.54293 0.01714 0.38829 0.01300
H 	H 	0.56121 0.98478 0.44237 0.05300
H 	H 	0.49887 0.06613 0.44368 0.05400
C 	C 	0.55794 0.01136 0.33447 -0.01300
C 	C 	0.55369 0.02613 0.28010 0.01000
C 	C 	0.56237 0.01164 0.22690 -0.04800
C 	C 	0.57292 0.98557 0.24008 -0.00700
S 	S 	0.57053 0.98070 0.31561 0.00400
H 	H 	0.55842 0.01851 0.18056 0.04700
C 	C 	0.52093 0.05499 0.33366 -0.01300
C 	C 	0.53485 0.04799 0.27950 0.01000
C 	C 	0.52140 0.05775 0.22567 -0.04700
C 	C 	0.49674 0.07161 0.23787 -0.00700
S 	S 	0.49196 0.07108 0.31364 0.00600
H 	H 	0.52733 0.05191 0.17976 0.04700
C 	C 	0.51681 0.03244 0.61084 0.00800
C 	C 	0.50940 0.04499 0.55546 -0.01300
S 	S 	0.48176 0.06456 0.56828 0.00300
C 	C 	0.47972 0.05939 0.64401 -0.00900
C 	C 	0.50007 0.04049 0.66091 -0.04900
C 	C 	0.54091 0.99746 0.55392 -0.01400
C 	C 	0.53240 0.00844 0.60992 0.00600
C 	C 	0.54738 0.99822 0.66088 -0.05000
C 	C 	0.56795 0.97954 0.64428 -0.00900
S 	S 	0.56684 0.97587 0.56800 0.00200
H 	H 	0.54319 0.00393 0.70790 0.04000
H 	H 	0.50025 0.03018 0.70492 0.03800
Co	Co	0.60958 0.88759 0.95445 1.17800
Co	Co	0.54552 0.89343 0.92851 1.09400
O 	O 	0.65058 0.88306 0.97047 -0.35600
O 	O 	0.63718 0.92400 0.98808 -0.31200
O 	O 	0.59620 0.85100 0.93013 -0.39300
O 	O 	0.55868 0.91923 0.99244 -0.49800
C 	C 	0.57312 0.84081 0.95216 0.27800
C 	C 	0.65755 0.90710 0.98867 0.27100
O 	O 	0.55360 0.85720 0.97201 -0.42200
O 	O 	0.59101 0.89080 0.03230 -0.41800
C 	C 	0.57287 0.91041 0.03978 0.34000
O 	O 	0.60952 0.90489 0.87473 -0.42100
O 	O 	0.56702 0.88792 0.85242 -0.46000
C 	C 	0.58790 0.90387 0.83859 0.30000
Co	Co	0.10089 0.61181 0.97646 1.17800
Co	Co	0.03754 0.59580 0.96687 1.08500
O 	O 	0.14051 0.62371 0.99075 -0.38300
O 	O 	0.13593 0.58045 0.99938 -0.33500
O 	O 	0.08018 0.64558 0.95719 -0.39000
O 	O 	0.05385 0.60562 0.88647 -0.46200
C 	C 	0.05768 0.65224 0.98735 0.25800
C 	C 	0.15266 0.60089 0.00264 0.35400
O 	O 	0.04107 0.63314 0.00852 -0.39100
O 	O 	0.09900 0.59423 0.89712 -0.42300
C 	C 	0.07582 0.59290 0.86618 0.30200
O 	O 	0.08769 0.60604 0.05880 -0.41000
O 	O 	0.05876 0.57290 0.02511 -0.46500
C 	C 	0.07243 0.58447 0.06999 0.31100
C 	C 	0.01670 0.48784 0.53775 0.01200
C 	C 	0.99091 0.47402 0.54088 0.01300
C 	C 	0.02658 0.49743 0.48107 -0.05400
C 	C 	0.01096 0.49348 0.42760 0.01300
C 	C 	0.97539 0.46990 0.48739 -0.05400
C 	C 	0.98548 0.47903 0.43062 0.01300
H 	H 	0.95524 0.46044 0.49014 0.05200
H 	H 	0.04671 0.50692 0.47822 0.05300
C 	C 	0.97003 0.47563 0.37632 -0.01400
C 	C 	0.98018 0.48431 0.31949 0.00800
C 	C 	0.96824 0.47036 0.26917 -0.04900
C 	C 	0.94924 0.45031 0.28701 -0.00700
S 	S 	0.94709 0.45077 0.36345 0.00400
H 	H 	0.97346 0.47451 0.22178 0.04500
C 	C 	0.02086 0.50194 0.36964 -0.01300
C 	C 	0.00526 0.49811 0.31633 0.00900
C 	C 	0.01220 0.51652 0.26847 -0.04900
C 	C 	0.03272 0.53519 0.28511 -0.00900
S 	S 	0.04235 0.52813 0.35699 0.00500
H 	H 	0.00227 0.51660 0.22401 0.04200
C 	C 	0.02279 0.48080 0.64860 0.00800
C 	C 	0.03265 0.49011 0.59177 -0.01300
S 	S 	0.05612 0.51429 0.60533 0.00300
C 	C 	0.05610 0.51246 0.68183 -0.01000
C 	C 	0.03601 0.49337 0.69935 -0.05000
C 	C 	0.98087 0.46606 0.59888 -0.01500
C 	C 	0.99668 0.46886 0.65192 0.00600
C 	C 	0.98728 0.45239 0.70138 -0.05100
C 	C 	0.96435 0.43632 0.68596 -0.00800
S 	S 	0.95632 0.44300 0.61269 -0.00000
H 	H 	0.99650 0.45249 0.74657 0.04000
H 	H 	0.02806 0.49216 0.74567 0.03800
Co	Co	0.87304 0.38356 0.99248 1.17000
Co	Co	0.86712 0.44769 0.96983 1.08600
O 	O 	0.87517 0.34229 0.00342 -0.33700
O 	O 	0.91202 0.36186 0.03360 -0.29300
O 	O 	0.83580 0.39052 0.95952 -0.39300
O 	O 	0.89191 0.43831 0.03904 -0.46500
C 	C 	0.82011 0.41012 0.98159 0.25700
C 	C 	0.89904 0.33900 0.02774 0.26700
O 	O 	0.83125 0.43233 0.00470 -0.38900
O 	O 	0.86912 0.40046 0.07194 -0.41500
C 	C 	0.88333 0.42263 0.08413 0.31200
O 	O 	0.89391 0.38870 0.91798 -0.42800
O 	O 	0.86928 0.42675 0.89239 -0.46200
C 	C 	0.88973 0.40982 0.88165 0.30000
C 	C 	0.98740 0.94291 0.14190 0.10400
N 	N 	0.97726 0.96742 0.12463 -0.17300
C 	C 	0.95082 0.96805 0.14319 0.10300
C 	C 	0.93042 0.98744 0.11718 -0.07500
C 	C 	0.93774 0.01662 0.10906 0.09100
C 	C 	0.90207 0.97820 0.10342 0.04900
C 	C 	0.89746 0.95826 0.05840 -0.06100
C 	C 	0.87059 0.95015 0.04413 -0.01100
C 	C 	0.84808 0.96198 0.07475 -0.01500
C 	C 	0.87966 0.98983 0.13442 -0.05900
N 	N 	0.95940 0.02839 0.13732 -0.12700
C 	C 	0.92793 0.03295 0.06199 -0.05800
C 	C 	0.96294 0.05265 0.10875 0.09300
C 	C 	0.98754 0.07002 0.11763 -0.07900
C 	C 	0.98537 0.09983 0.10730 0.05800
C 	C 	0.97027 0.14456 0.14197 -0.00200
C 	C 	0.99190 0.11099 0.04986 -0.07600
C 	C 	0.98694 0.13872 0.03792 0.02600
C 	C 	0.97574 0.15554 0.08370 -0.02900
N 	N 	0.02315 0.03369 0.12544 -0.17300
C 	C 	0.04976 0.03302 0.14294 0.10300
C 	C 	0.05683 0.05714 0.17239 -0.06000
C 	C 	0.03340 0.07320 0.17270 -0.06100
C 	C 	0.06996 0.01362 0.11645 -0.07600
C 	C 	0.09872 0.02226 0.10587 0.05000
C 	C 	0.14727 0.01840 0.13061 -0.01100
C 	C 	0.15394 0.03485 0.07978 -0.01500
C 	C 	0.13271 0.04570 0.04322 -0.01100
C 	C 	0.10520 0.03944 0.05634 -0.06100
N 	N 	0.04086 0.97259 0.13551 -0.12800
C 	C 	0.05630 0.94523 0.05980 -0.05800
C 	C 	0.03749 0.94837 0.10689 0.09300
C 	C 	0.01274 0.93112 0.11490 -0.07900
C 	C 	0.01434 0.90154 0.10158 0.05700
C 	C 	0.02546 0.88352 0.14515 -0.06700
C 	C 	0.02830 0.85570 0.13148 -0.00300
C 	C 	0.02036 0.84578 0.07379 -0.02900
C 	C 	0.00903 0.86382 0.03036 0.02600
C 	C 	0.00587 0.89158 0.04441 -0.07700
C 	C 	0.96735 0.92771 0.17178 -0.06100
C 	C 	0.94396 0.94381 0.17267 -0.06000
C 	C 	0.85280 0.98178 0.12021 -0.01100
C 	C 	0.94411 0.05611 0.06182 -0.05800
C 	C 	0.01311 0.05811 0.14346 0.10400
C 	C 	0.07228 0.96852 0.05999 -0.05800
C 	C 	0.06235 0.98462 0.10712 0.09100
C 	C 	0.11980 0.01207 0.14340 -0.06000
H 	H 	0.98509 0.97909 0.08834 0.09500
H 	H 	0.01506 0.02217 0.08935 0.09500
H 	H 	0.03712 0.84197 0.16527 0.04600
H 	H 	0.00267 0.85633 0.98585 0.01700
H 	H 	0.03205 0.89110 0.18941 0.05600
H 	H 	0.99724 0.90542 0.01057 0.05800
H 	H 	0.86726 0.93499 0.00872 0.05000
H 	H 	0.88306 0.00513 0.16951 0.05500
H 	H 	0.83567 0.99082 0.14474 0.04900
H 	H 	0.91467 0.94923 0.03413 0.05300
H 	H 	0.99144 0.14703 0.99294 0.01700
H 	H 	0.00011 0.09802 0.01399 0.05800
C 	C 	0.97490 0.11677 0.15357 -0.06700
H 	H 	0.96160 0.15735 0.17761 0.04700
H 	H 	0.16337 0.01032 0.15992 0.04900
H 	H 	0.11492 0.99898 0.18207 0.05500
H 	H 	0.08899 0.04745 0.02724 0.05300
H 	H 	0.13751 0.05838 0.00384 0.05100
H 	H 	0.96730 0.90560 0.17588 0.05400
H 	H 	0.92323 0.93595 0.17777 0.05400
H 	H 	0.91648 0.02555 0.02281 0.05500
H 	H 	0.94702 0.06938 0.02252 0.05500
H 	H 	0.07757 0.06503 0.17664 0.05400
H 	H 	0.03348 0.09528 0.17709 0.05400
H 	H 	0.05342 0.93210 0.02040 0.05500
H 	H 	0.08371 0.97610 0.02086 0.05500
H 	H 	0.96988 0.10828 0.19813 0.05600
C 	C 	0.94898 0.23529 0.04944 0.10000
N 	N 	0.94254 0.21476 0.01009 -0.06600
N 	N 	0.95198 0.18948 0.01980 -0.07700
C 	C 	0.96792 0.18396 0.06943 0.12100
N 	N 	0.97465 0.20456 0.10838 -0.08000
N 	N 	0.96545 0.22990 0.09831 -0.06800
C 	C 	0.91273 0.31230 0.03125 0.05400
N 	N 	0.93615 0.30924 0.06452 -0.05800
N 	N 	0.94793 0.28467 0.06986 -0.06800
C 	C 	0.93677 0.26257 0.04143 0.10400
N 	N 	0.91354 0.26574 0.00752 -0.06500
N 	N 	0.90159 0.29023 0.00283 -0.05100
C 	C 	0.95186 0.40835 0.77728 -0.07000
C 	C 	0.94404 0.42711 0.73175 0.03400
C 	C 	0.91751 0.43858 0.73300 -0.07000
C 	C 	0.89929 0.43193 0.78032 0.01500
C 	C 	0.90749 0.41397 0.82736 -0.10000
C 	C 	0.93369 0.40175 0.82480 0.01800
H 	H 	0.97225 0.39933 0.77662 0.05100
H 	H 	0.91129 0.45329 0.69843 0.04800
H 	H 	0.87903 0.44121 0.78108 0.03000
H 	H 	0.94033 0.38782 0.86059 0.03900
C 	C 	0.90862 0.46068 0.22181 -0.06900
C 	C 	0.92666 0.44127 0.24716 0.03800
C 	C 	0.92604 0.41417 0.22605 -0.06500
C 	C 	0.90956 0.40722 0.17580 0.02600
C 	C 	0.89379 0.42742 0.14629 -0.09300
C 	C 	0.89233 0.45381 0.17136 0.02400
H 	H 	0.90849 0.48153 0.23876 0.05000
H 	H 	0.93956 0.39892 0.24606 0.05800
H 	H 	0.91051 0.38665 0.15738 0.04600
H 	H 	0.87977 0.46941 0.14966 0.02000
C 	C 	0.03984 0.73445 0.02035 0.11800
N 	N 	0.05918 0.72747 0.97823 -0.08500
N 	N 	0.06493 0.70119 0.96770 -0.05600
C 	C 	0.05131 0.68117 0.99860 0.02300
N 	N 	0.03182 0.68815 0.04035 -0.04800
N 	N 	0.02626 0.71442 0.05130 -0.07200
C 	C 	0.02440 0.81671 0.05856 0.12000
N 	N 	0.01592 0.79687 0.09797 -0.07900
N 	N 	0.02054 0.77057 0.08534 -0.07100
C 	C 	0.03405 0.76339 0.03331 0.11200
N 	N 	0.04249 0.78324 0.99384 -0.09300
N 	N 	0.03763 0.80954 0.00618 -0.06900
C 	C 	0.09186 0.55282 0.80478 0.01800
C 	C 	0.07383 0.57515 0.81160 -0.10300
C 	C 	0.05198 0.57850 0.76996 0.01400
C 	C 	0.04708 0.55873 0.72498 -0.07200
C 	C 	0.06406 0.53556 0.72097 0.03500
C 	C 	0.08690 0.53307 0.75982 -0.06900
H 	H 	0.10897 0.55006 0.83607 0.04100
H 	H 	0.03827 0.59593 0.77367 0.02900
H 	H 	0.02948 0.56089 0.69481 0.04800
H 	H 	0.10021 0.51531 0.75671 0.05300
C 	C 	0.05897 0.58965 0.17916 0.02000
C 	C 	0.07013 0.57342 0.13236 -0.09300
C 	C 	0.07428 0.54534 0.14256 0.02400
C 	C 	0.06468 0.53311 0.19642 -0.06700
C 	C 	0.05057 0.54883 0.24008 0.03700
C 	C 	0.04914 0.57735 0.23290 -0.06700
H 	H 	0.05609 0.61145 0.17213 0.04000
H 	H 	0.08348 0.53274 0.10725 0.04000
H 	H 	0.06650 0.51113 0.20228 0.05500
H 	H 	0.03872 0.58974 0.26691 0.05400
C 	C 	0.73883 0.93083 0.01940 0.10600
N 	N 	0.73284 0.90446 0.00476 -0.05800
N 	N 	0.70687 0.89692 0.99435 -0.06500
C 	C 	0.68618 0.91554 0.99821 0.02600
N 	N 	0.69216 0.94191 0.01264 -0.04300
N 	N 	0.71812 0.94945 0.02303 -0.06700
C 	C 	0.81966 0.95394 0.05884 0.11500
N 	N 	0.79901 0.97270 0.06051 -0.07800
N 	N 	0.77325 0.96535 0.04746 -0.06700
C 	C 	0.76737 0.93903 0.03231 0.09900
N 	N 	0.78802 0.92029 0.03027 -0.06700
N 	N 	0.81380 0.92764 0.04334 -0.07800
C 	C 	0.59655 0.96425 0.73216 -0.06900
C 	C 	0.57750 0.95789 0.68609 0.03500
C 	C 	0.56458 0.93217 0.68609 -0.07000
C 	C 	0.56936 0.91367 0.73396 0.01500
C 	C 	0.58701 0.92080 0.78243 -0.10000
C 	C 	0.60140 0.94576 0.77999 0.01800
H 	H 	0.60671 0.98402 0.73236 0.05200
H 	H 	0.54985 0.92703 0.65062 0.05000
H 	H 	0.55861 0.89422 0.73442 0.03300
H 	H 	0.61528 0.95145 0.81669 0.03900
C 	C 	0.54731 0.95666 0.16544 -0.07100
C 	C 	0.57198 0.96291 0.19586 0.04000
C 	C 	0.59628 0.94918 0.17980 -0.06600
C 	C 	0.59632 0.93068 0.13091 0.03200
C 	C 	0.57200 0.92583 0.09772 -0.10000
C 	C 	0.54733 0.93825 0.11652 0.03000
H 	H 	0.52831 0.96674 0.17843 0.04900
H 	H 	0.61535 0.95364 0.20356 0.06000
H 	H 	0.61546 0.92107 0.11723 0.04800
H 	H 	0.52833 0.93424 0.09211 0.02200
C 	C 	0.26548 0.05257 0.01717 0.12200
N 	N 	0.28476 0.03359 0.03238 -0.07200
N 	N 	0.31110 0.03755 0.01778 -0.04600
C 	C 	0.31893 0.06057 0.98742 0.01900
N 	N 	0.29967 0.07958 0.97215 -0.05500
N 	N 	0.27330 0.07564 0.98687 -0.08600
C 	C 	0.18308 0.03961 0.06341 0.11500
N 	N 	0.19092 0.06342 0.03609 -0.07800
N 	N 	0.21723 0.06757 0.02118 -0.06400
C 	C 	0.23644 0.04805 0.03325 0.09500
N 	N 	0.22859 0.02428 0.06054 -0.06800
N 	N 	0.20231 0.02011 0.07530 -0.08000
C 	C 	0.43074 0.09573 0.74888 0.02400
C 	C 	0.41731 0.07337 0.77661 -0.10100
C 	C 	0.42064 0.04705 0.75153 0.01400
C 	C 	0.43937 0.04278 0.70383 -0.07200
C 	C 	0.45490 0.06474 0.68069 0.03700
C 	C 	0.44947 0.09139 0.70113 -0.06800
H 	H 	0.42763 0.11631 0.76602 0.04600
H 	H 	0.40981 0.02968 0.77093 0.01400
H 	H 	0.44287 0.02219 0.68709 0.04500
H 	H 	0.46092 0.10856 0.68257 0.05600
C 	C 	0.46325 0.09686 0.17245 -0.06700
C 	C 	0.47370 0.07186 0.19411 0.04100
C 	C 	0.46425 0.04720 0.16869 -0.07200
C 	C 	0.44603 0.04761 0.11916 0.03000
C 	C 	0.43681 0.07266 0.09507 -0.10100
C 	C 	0.44480 0.09727 0.12314 0.03300
H 	H 	0.47024 0.11599 0.19218 0.06000
H 	H 	0.47183 0.02776 0.18586 0.05000
H 	H 	0.43960 0.02847 0.09855 0.01800
H 	H 	0.43766 0.11674 0.10516 0.04800
C 	C 	0.42490 0.23723 0.94942 0.10000
N 	N 	0.44599 0.21898 0.95176 -0.07100
N 	N 	0.44092 0.19236 0.95950 -0.06000
C 	C 	0.41462 0.18325 0.96506 0.04700
N 	N 	0.39356 0.20151 0.96349 -0.05700
N 	N 	0.39862 0.22813 0.95573 -0.07000
C 	C 	0.44026 0.31968 0.91165 0.11200
N 	N 	0.41404 0.31065 0.91962 -0.08100
N 	N 	0.40918 0.28440 0.93259 -0.07000
C 	C 	0.43038 0.26641 0.93793 0.09600
N 	N 	0.45661 0.27548 0.93055 -0.07100
N 	N 	0.46149 0.30174 0.91763 -0.08100
C 	C 	0.26614 0.58401 0.96686 0.09900
N 	N 	0.27859 0.59675 0.91889 -0.07000
N 	N 	0.30414 0.58989 0.90265 -0.08000
C 	C 	0.31808 0.57039 0.93447 0.11200
N 	N 	0.30589 0.55814 0.98336 -0.08200
N 	N 	0.28022 0.56475 0.99913 -0.07400
C 	C 	0.18254 0.59748 0.99766 -0.00400
N 	N 	0.19464 0.57399 0.01729 -0.03500
N 	N 	0.22156 0.57008 0.00925 -0.05200
C 	C 	0.23706 0.58940 0.98060 0.08400
N 	N 	0.22499 0.61302 0.96146 -0.06900
N 	N 	0.19813 0.61709 0.97029 -0.05000
C 	C 	0.73521 0.40930 0.95479 0.09800
N 	N 	0.74649 0.42542 0.99877 -0.08400
N 	N 	0.77358 0.42508 0.00858 -0.03800
C 	C 	0.79011 0.40838 0.97523 0.02500
N 	N 	0.77875 0.39166 0.93250 -0.05500
N 	N 	0.75169 0.39222 0.92217 -0.07200
C 	C 	0.65380 0.42349 0.90383 0.11200
N 	N 	0.67107 0.40989 0.86557 -0.08100
N 	N 	0.69675 0.40418 0.88301 -0.07100
C 	C 	0.70597 0.41216 0.93894 0.09400
N 	N 	0.68849 0.42519 0.97774 -0.07300
N 	N 	0.66274 0.43067 0.96052 -0.08300
C 	C 	0.55776 0.75705 0.93815 0.09800
N 	N 	0.53834 0.77408 0.96159 -0.07500
N 	N 	0.54353 0.80074 0.96761 -0.06600
C 	C 	0.56827 0.81115 0.95030 0.03700
N 	N 	0.58785 0.79407 0.92771 -0.05600
N 	N 	0.58268 0.76739 0.92180 -0.07100
C 	C 	0.53892 0.67520 0.90263 0.11200
N 	N 	0.56484 0.68481 0.89316 -0.08200
N 	N 	0.57097 0.71084 0.90544 -0.07100
C 	C 	0.55140 0.72799 0.92777 0.09400
N 	N 	0.52558 0.71831 0.93799 -0.07300
N 	N 	0.51942 0.69230 0.92555 -0.08300
