data_crystal

_cell_length_a 26.07570
_cell_length_b 26.36450
_cell_length_c 26.47918
_cell_angle_alpha 95.53059
_cell_angle_beta  95.52990
_cell_angle_gamma 125.83863

_symmetry_space_group_name_	'P 1'
_symmetry_space_group_name_H-M	'P 1'

loop_
_symmetry_equiv_pos_as_xyz
  x,y,z

loop_
_atom_site_label
_atom_site_type_symbol
_atom_site_fract_x
_atom_site_fract_y
_atom_site_fract_z
_atom_site_charge
C 	C 	0.98312 0.04160 0.98928 0.12600
N 	N 	0.04842 0.07722 0.99616 -0.13200
C 	C 	0.07735 0.04805 0.99258 0.12100
N 	N 	0.04104 0.98352 0.98237 -0.13700
C 	C 	0.97591 0.94804 0.97503 0.12000
N 	N 	0.94700 0.97706 0.97869 -0.13500
C 	C 	0.92102 0.98721 0.46198 0.12400
N 	N 	0.98620 0.02219 0.47023 -0.13700
C 	C 	0.01495 0.99295 0.47294 0.12200
N 	N 	0.97856 0.92872 0.46783 -0.13800
C 	C 	0.91338 0.89347 0.45946 0.12500
N 	N 	0.88445 0.92270 0.45656 -0.13900
Cu	Cu	0.66922 0.27566 0.01099 0.91800
Cu	Cu	0.67718 0.22225 0.89660 0.88100
Cu	Cu	0.68004 0.34829 0.92397 0.91300
Cu	Cu	0.67236 0.39938 0.02928 0.88600
C 	C 	0.68991 0.34068 0.11296 0.29500
O 	O 	0.57745 0.23518 0.02067 -0.36500
C 	C 	0.67659 0.29642 0.82452 0.30200
O 	O 	0.71279 0.36887 0.99658 -0.61100
O 	O 	0.64219 0.25938 0.93460 -0.62400
O 	O 	0.72203 0.24295 0.01716 -0.37800
O 	O 	0.66763 0.16869 0.94296 -0.42300
O 	O 	0.70026 0.39249 0.09939 -0.38200
O 	O 	0.72340 0.43582 0.91617 -0.36600
C 	C 	0.72661 0.47848 0.94957 0.29300
C 	C 	0.54871 0.26152 0.01026 0.27200
O 	O 	0.57834 0.31386 0.99115 -0.36400
O 	O 	0.68774 0.46090 0.98323 -0.38100
O 	O 	0.70138 0.30589 0.08400 -0.34100
C 	C 	0.70953 0.19328 0.98626 0.32600
O 	O 	0.65467 0.32308 0.84972 -0.35900
O 	O 	0.71146 0.28291 0.85044 -0.42200
H 	H 	0.76044 0.39818 0.00546 0.14600
H 	H 	0.59470 0.23195 0.92408 0.16800
Cu	Cu	0.70252 0.31153 0.42246 0.92500
Cu	Cu	0.75092 0.29780 0.53726 0.88800
Cu	Cu	0.61987 0.28751 0.50486 0.91100
Cu	Cu	0.57398 0.30126 0.40123 0.90000
C 	C 	0.64427 0.29860 0.31996 0.29800
O 	O 	0.73835 0.40284 0.41754 -0.35600
C 	C 	0.66941 0.29107 0.60561 0.30400
O 	O 	0.60554 0.26083 0.43193 -0.63800
O 	O 	0.71238 0.33132 0.49897 -0.62700
O 	O 	0.74107 0.26425 0.41497 -0.35900
O 	O 	0.80868 0.31257 0.49311 -0.41400
O 	O 	0.58971 0.28530 0.33108 -0.36200
O 	O 	0.52961 0.23890 0.50821 -0.37400
C 	C 	0.48682 0.23736 0.47580 0.29400
C 	C 	0.71037 0.42816 0.43348 0.29200
O 	O 	0.65450 0.39259 0.44774 -0.38600
O 	O 	0.50440 0.27582 0.44204 -0.38800
O 	O 	0.67752 0.28516 0.34885 -0.35800
C 	C 	0.78697 0.27296 0.44916 0.29400
O 	O 	0.63974 0.30952 0.57940 -0.37300
O 	O 	0.68693 0.25953 0.58081 -0.40900
H 	H 	0.57791 0.21397 0.42049 0.16500
H 	H 	0.73760 0.37768 0.51201 0.16500
C 	C 	0.61666 0.27476 0.68215 -0.02400
C 	C 	0.67216 0.29496 0.66185 -0.08000
C 	C 	0.72930 0.31609 0.69518 0.08800
C 	C 	0.72989 0.31534 0.74808 -0.02400
C 	C 	0.67425 0.29464 0.76838 -0.08200
C 	C 	0.61714 0.27376 0.73504 0.09400
N 	N 	0.55896 0.24942 0.75443 -0.01900
H 	H 	0.57245 0.25784 0.65659 0.06800
H 	H 	0.77417 0.33237 0.77359 0.06300
N 	N 	0.78733 0.33994 0.67567 -0.02500
O 	O 	0.52829 0.27381 0.74663 -0.10100
O 	O 	0.53391 0.19961 0.77607 -0.12400
O 	O 	0.81172 0.38866 0.65271 -0.14600
O 	O 	0.81835 0.31605 0.68433 -0.12500
C 	C 	0.69112 0.29161 0.24360 -0.03000
C 	C 	0.65776 0.31094 0.26747 -0.06900
C 	C 	0.63761 0.34228 0.24109 0.09200
C 	C 	0.64743 0.35037 0.19058 -0.02800
C 	C 	0.68060 0.33107 0.16661 -0.07300
C 	C 	0.70421 0.30305 0.19407 0.09800
N 	N 	0.74441 0.28944 0.17322 -0.01600
H 	H 	0.70796 0.26861 0.26376 0.07300
H 	H 	0.63039 0.37316 0.17034 0.05800
N 	N 	0.61003 0.36880 0.26636 -0.02000
O 	O 	0.80248 0.33589 0.16901 -0.09800
O 	O 	0.72522 0.23095 0.16302 -0.10200
O 	O 	0.64538 0.41733 0.30433 -0.12500
O 	O 	0.55190 0.34900 0.24783 -0.11700
C 	C 	0.84524 0.72440 0.40223 -0.06000
C 	C 	0.81964 0.69357 0.44332 0.00500
C 	C 	0.81928 0.72744 0.48773 0.00700
C 	C 	0.84649 0.79216 0.49127 -0.03300
C 	C 	0.87442 0.82359 0.45103 -0.03000
C 	C 	0.87227 0.78904 0.40573 0.03100
C 	C 	0.79222 0.62546 0.43912 0.01700
S 	S 	0.78520 0.68942 0.53912 -0.03500
H 	H 	0.84775 0.81855 0.52602 0.04700
S 	S 	0.90265 0.82610 0.35299 -0.04000
H 	H 	0.84419 0.69805 0.36757 0.05300
C 	C 	0.72722 0.57744 0.41639 -0.00500
C 	C 	0.70162 0.51337 0.41414 0.00300
C 	C 	0.74031 0.49624 0.43389 -0.08700
C 	C 	0.80551 0.54445 0.45691 0.05800
C 	C 	0.83117 0.60866 0.45881 -0.07100
S 	S 	0.67715 0.59699 0.39120 -0.03200
H 	H 	0.65119 0.47668 0.39753 0.04500
S 	S 	0.85426 0.52557 0.48652 -0.04000
H 	H 	0.88112 0.64564 0.47663 0.05700
H 	H 	0.85544 0.82320 0.32202 0.03800
H 	H 	0.68207 0.60273 0.34069 0.04100
H 	H 	0.84661 0.52121 0.53677 0.03600
H 	H 	0.72070 0.66223 0.52999 0.04000
C 	C 	0.77105 0.12013 0.44355 -0.07700
C 	C 	0.83476 0.14250 0.44335 0.01900
C 	C 	0.88198 0.20715 0.44172 -0.00800
C 	C 	0.86539 0.24904 0.44199 0.00400
C 	C 	0.80202 0.22705 0.44372 -0.10300
C 	C 	0.75454 0.16202 0.44444 0.06100
C 	C 	0.85241 0.09884 0.44836 0.00300
S 	S 	0.96221 0.23645 0.44054 -0.02900
H 	H 	0.90201 0.29893 0.44163 0.04200
S 	S 	0.67522 0.13317 0.44945 -0.09100
H 	H 	0.73473 0.07044 0.44480 0.05600
C 	C 	0.87103 0.09189 0.49747 0.00700
C 	C 	0.88974 0.05210 0.50145 -0.03300
C 	C 	0.89034 0.01923 0.45689 -0.02900
C 	C 	0.86973 0.02455 0.40778 0.03100
C 	C 	0.85069 0.06412 0.40378 -0.05800
S 	S 	0.87232 0.13371 0.55420 -0.03700
H 	H 	0.90562 0.04812 0.53925 0.04700
S 	S 	0.86926 0.98331 0.35109 -0.04000
H 	H 	0.83558 0.06876 0.36599 0.05300
H 	H 	0.63905 0.11396 0.40095 0.04700
H 	H 	0.81275 0.09862 0.56746 0.03800
H 	H 	0.92848 0.01964 0.33738 0.04100
H 	H 	0.99513 0.25435 0.49021 0.04000
C 	C 	0.18015 0.08606 0.43808 -0.06000
C 	C 	0.21852 0.09716 0.48478 0.00400
C 	C 	0.18993 0.07482 0.52790 0.00700
C 	C 	0.12331 0.04135 0.52376 -0.03300
C 	C 	0.08494 0.03013 0.47701 -0.02900
C 	C 	0.11355 0.05242 0.43388 0.03000
C 	C 	0.28858 0.13212 0.48799 0.01800
S 	S 	0.23686 0.08754 0.58688 -0.02900
H 	H 	0.10124 0.02379 0.55683 0.04800
S 	S 	0.06626 0.03681 0.37406 -0.04100
H 	H 	0.20214 0.10308 0.40486 0.05000
C 	C 	0.31425 0.09998 0.47237 -0.00700
C 	C 	0.37986 0.13480 0.47056 -0.00200
C 	C 	0.42014 0.20144 0.48413 -0.09000
C 	C 	0.39511 0.23328 0.50244 0.06000
C 	C 	0.32943 0.19850 0.50387 -0.07300
S 	S 	0.26457 0.01635 0.45446 -0.03500
H 	H 	0.39928 0.11018 0.45734 0.03300
S 	S 	0.44569 0.31635 0.52464 -0.03300
H 	H 	0.30989 0.22312 0.51679 0.05700
H 	H 	0.04407 0.97855 0.34691 0.03800
H 	H 	0.23794 0.99908 0.40295 0.03500
H 	H 	0.44848 0.34612 0.48422 0.04200
H 	H 	0.24243 0.03896 0.58652 0.04100
C 	C 	0.89738 0.77801 0.91093 -0.04200
C 	C 	0.86721 0.74526 0.94994 -0.01600
C 	C 	0.87163 0.77922 0.99673 0.05900
C 	C 	0.90599 0.84538 0.00395 -0.09600
C 	C 	0.93690 0.87825 0.96526 0.00800
C 	C 	0.93204 0.84428 0.91827 0.01500
C 	C 	0.83196 0.67553 0.94190 0.02800
S 	S 	0.83505 0.73949 0.04675 -0.07200
H 	H 	0.90964 0.87149 0.04006 0.05600
S 	S 	0.96801 0.88400 0.86806 -0.03100
H 	H 	0.89377 0.75188 0.87486 0.05000
C 	C 	0.76467 0.63411 0.92459 -0.00900
C 	C 	0.73080 0.56902 0.92505 0.00500
C 	C 	0.76359 0.54469 0.94193 -0.08700
C 	C 	0.83132 0.58549 0.95596 0.05500
C 	C 	0.86513 0.65065 0.95583 -0.07200
S 	S 	0.72230 0.66341 0.90324 -0.02600
H 	H 	0.67879 0.53748 0.91336 0.04600
S 	S 	0.87404 0.55602 0.97586 -0.03300
H 	H 	0.91703 0.68237 0.96832 0.05900
H 	H 	0.03041 0.90404 0.87471 0.03900
H 	H 	0.70449 0.68106 0.94447 0.04000
H 	H 	0.87806 0.55712 0.02798 0.01800
H 	H 	0.77308 0.72063 0.04023 0.03500
C 	C 	0.91014 0.11946 0.04157 -0.07200
C 	C 	0.87515 0.11581 0.99589 0.01300
C 	C 	0.87976 0.09212 0.94783 0.01200
C 	C 	0.91769 0.07069 0.94607 -0.03700
C 	C 	0.95123 0.07262 0.99179 -0.00800
C 	C 	0.94797 0.09783 0.03979 0.01200
C 	C 	0.83380 0.13693 0.99865 0.05300
S 	S 	0.83713 0.08776 0.88975 -0.03700
H 	H 	0.92006 0.05121 0.90913 0.05000
S 	S 	0.98940 0.10079 0.09792 -0.04100
H 	H 	0.90710 0.13821 0.07852 0.05300
C 	C 	0.76829 0.09354 0.00170 -0.06300
C 	C 	0.72852 0.11307 0.99930 0.06900
C 	C 	0.75345 0.17555 0.99388 -0.12400
C 	C 	0.81940 0.21929 0.99185 0.07700
C 	C 	0.85921 0.19992 0.99495 -0.08900
S 	S 	0.73539 0.01451 0.00769 -0.03700
H 	H 	0.67795 0.07937 0.00086 0.01300
S 	S 	0.85195 0.29729 0.98251 -0.06100
H 	H 	0.90960 0.23332 0.99271 0.06500
H 	H 	0.95121 0.04443 0.11471 0.03600
H 	H 	0.74360 0.01162 0.05895 0.03600
H 	H 	0.87353 0.33665 0.02957 0.03900
H 	H 	0.77653 0.03107 0.87908 0.04100
C 	C 	0.39564 0.23229 0.04025 -0.07500
C 	C 	0.34899 0.17096 0.01121 0.00700
C 	C 	0.36834 0.13739 0.98504 0.00600
C 	C 	0.43399 0.16641 0.98672 0.02100
C 	C 	0.48062 0.22865 0.01436 -0.10900
C 	C 	0.46122 0.26095 0.04255 0.06100
C 	C 	0.27995 0.14244 0.00815 -0.02500
S 	S 	0.31089 0.05908 0.95031 -0.02700
H 	H 	0.44872 0.14115 0.96550 0.03900
S 	S 	0.51856 0.33626 0.08227 -0.06500
H 	H 	0.38084 0.25761 0.06127 0.05500
C 	C 	0.24729 0.11124 0.04723 0.02000
C 	C 	0.18165 0.08354 0.04307 -0.06700
C 	C 	0.14792 0.08602 0.99999 0.00200
C 	C 	0.18087 0.11823 0.96135 0.01400
C 	C 	0.24674 0.14669 0.96586 -0.02600
S 	S 	0.28765 0.10518 0.10083 -0.04600
H 	H 	0.15636 0.05858 0.07273 0.05100
S 	S 	0.13968 0.12089 0.90614 -0.02700
H 	H 	0.27194 0.17110 0.93597 0.04900
H 	H 	0.53506 0.38287 0.05397 0.02800
H 	H 	0.31513 0.15782 0.13878 0.04100
H 	H 	0.11400 0.06753 0.86949 0.03800
H 	H 	0.29632 0.01706 0.98302 0.04400
