data_crystal

_cell_length_a 17.25492
_cell_length_b 17.35624
_cell_length_c 62.29322
_cell_angle_alpha 90.60698
_cell_angle_beta  90.78652
_cell_angle_gamma 110.63832

_symmetry_space_group_name_	'P 1'
_symmetry_space_group_name_H-M	'P 1'

loop_
_symmetry_equiv_pos_as_xyz
  x,y,z

loop_
_atom_site_label
_atom_site_type_symbol
_atom_site_fract_x
_atom_site_fract_y
_atom_site_fract_z
_atom_site_charge
Ni	Ni	0.19566 0.65386 0.38986 1.10200
O 	O 	0.14228 0.54873 0.37218 -0.36900
O 	O 	0.09936 0.69230 0.38225 -0.36800
O 	O 	0.18968 0.81324 0.36952 -0.40900
C 	C 	0.15498 0.48162 0.37798 0.28300
C 	C 	0.11343 0.75963 0.37107 0.26200
O 	O 	0.17830 0.47462 0.39788 -0.39800
Ni	Ni	0.13022 0.66179 0.20255 1.10200
O 	O 	0.08791 0.75568 0.20985 -0.35900
O 	O 	0.21748 0.83736 0.22131 -0.40300
O 	O 	0.05606 0.63568 0.17546 -0.38400
O 	O 	0.08213 0.47057 0.21788 -0.40500
O 	O 	0.03599 0.58062 0.22012 -0.35600
Ni	Ni	0.13114 0.48087 0.18822 1.07100
H 	H 	0.19337 0.75484 0.17043 0.15400
O 	O 	0.02793 0.49801 0.17645 -0.40200
C 	C 	0.13899 0.82678 0.21760 0.26600
C 	C 	0.03312 0.56378 0.16572 0.31600
C 	C 	0.02472 0.50152 0.22298 0.28400
Ni	Ni	0.02393 0.02100 0.31261 1.07300
O 	O 	0.08669 0.07115 0.28562 -0.38500
O 	O 	0.03846 0.20555 0.30057 -0.36800
C 	C 	0.04900 0.06010 0.26691 0.28900
C 	C 	0.06003 0.20011 0.32078 0.27800
O 	O 	0.99193 0.09172 0.26316 -0.37200
O 	O 	0.06855 0.13199 0.32812 -0.40100
C 	C 	0.00681 0.52444 0.26910 0.08200
N 	N 	0.05013 0.58215 0.27829 -0.10500
C 	C 	0.10653 0.88957 0.22603 -0.06100
C 	C 	0.16051 0.97207 0.22736 -0.02500
C 	C 	0.14127 0.02951 0.24010 0.01500
C 	C 	0.06531 0.00573 0.25076 -0.06900
C 	C 	0.00696 0.92646 0.24732 -0.01800
C 	C 	0.02756 0.86748 0.23552 -0.00300
H 	H 	0.21953 0.99046 0.21932 0.02300
C 	C 	0.96828 0.78448 0.23389 0.10400
C 	C 	0.20025 0.11246 0.24235 0.07700
C 	C 	0.13118 0.40984 0.36328 -0.07100
C 	C 	0.05256 0.38253 0.35334 0.00100
C 	C 	0.02897 0.31460 0.33922 -0.00600
C 	C 	0.08507 0.27414 0.33469 -0.06200
C 	C 	0.16408 0.30215 0.34440 -0.00900
C 	C 	0.18756 0.36987 0.35859 0.00400
H 	H 	0.00928 0.41341 0.35687 0.05200
H 	H 	0.20738 0.27132 0.34085 0.04800
C 	C 	0.27045 0.39953 0.36775 0.04500
C 	C 	0.03768 0.72729 0.33566 -0.00900
C 	C 	0.04865 0.76500 0.35618 -0.05600
C 	C 	0.00218 0.81375 0.36179 -0.03400
H 	H 	0.00818 0.84026 0.37785 0.02900
C 	C 	0.07987 0.67140 0.33015 0.08700
N 	N 	0.11380 0.62664 0.32582 -0.10800
C 	C 	0.01619 0.52381 0.06545 -0.05000
C 	C 	0.03424 0.53375 0.08748 -0.03300
C 	C 	0.99314 0.54967 0.12445 0.06300
C 	C 	0.01003 0.55647 0.14338 -0.12700
H 	H 	0.06201 0.51739 0.05454 0.04200
H 	H 	0.09396 0.53500 0.09346 0.03900
H 	H 	0.01017 0.62609 0.02559 0.03500
Ni	Ni	0.15614 0.10697 0.80038 1.10600
O 	O 	0.13773 0.20004 0.81815 -0.35200
O 	O 	0.23135 0.09420 0.82524 -0.35900
O 	O 	0.32511 0.09458 0.78547 -0.40000
O 	O 	0.14560 0.01319 0.77986 -0.69600
O 	O 	0.25895 0.18852 0.78716 -0.35400
O 	O 	0.17307 0.84974 0.78073 -0.40300
Ni	Ni	0.23971 0.97708 0.78293 1.06100
H 	H 	0.07049 0.99476 0.82588 0.15200
H 	H 	0.14182 0.03058 0.76492 0.17000
O 	O 	0.22780 0.96640 0.81518 -0.42800
C 	C 	0.06444 0.20757 0.81788 0.27800
C 	C 	0.25627 0.03125 0.82778 0.31300
C 	C 	0.10668 0.81435 0.76837 0.27300
C 	C 	0.31261 0.16065 0.77796 0.27100
O 	O 	0.24949 0.58441 0.43551 -0.41900
H 	H 	0.22964 0.75141 0.42254 0.15200
C 	C 	0.17618 0.59194 0.43533 0.29400
O 	O 	0.13700 0.59460 0.41705 -0.36600
C 	C 	0.06649 0.57397 0.49361 0.00400
C 	C 	0.09542 0.63954 0.50848 -0.04100
C 	C 	0.07016 0.62837 0.52983 -0.03200
C 	C 	0.10347 0.58096 0.47278 0.03800
C 	C 	0.13439 0.58676 0.45533 -0.10400
H 	H 	0.13960 0.69828 0.50369 0.03800
H 	H 	0.09460 0.67870 0.54134 0.03600
N 	N 	0.11343 0.20755 0.76449 -0.12900
C 	C 	0.26870 0.16869 0.73311 0.06200
N 	N 	0.20206 0.13330 0.72679 -0.12000
C 	C 	0.08836 0.72949 0.76056 -0.06400
C 	C 	0.10730 0.71662 0.73932 -0.01200
H 	H 	0.15459 0.76518 0.73106 0.02900
O 	O 	0.21841 0.73727 0.18299 -0.70200
O 	O 	0.20118 0.59357 0.19626 -0.70100
N 	N 	0.33684 0.42334 0.37508 -0.14000
O 	O 	0.16949 0.48290 0.15650 -0.41400
N 	N 	0.24751 0.17890 0.24417 -0.11100
O 	O 	0.25426 0.75619 0.40814 -0.71100
Ni	Ni	0.29373 0.54148 0.40954 1.07600
H 	H 	0.23374 0.59221 0.20936 0.16500
C 	C 	0.32885 0.04127 0.84175 -0.07200
Ni	Ni	0.26344 0.86362 0.39663 1.07000
H 	H 	0.39443 0.02584 0.10532 0.03300
C 	C 	0.37234 0.21372 0.76297 -0.06400
C 	C 	0.35200 0.21285 0.74094 -0.00300
O 	O 	0.30730 0.64335 0.39424 -0.69300
Ni	Ni	0.29845 0.83273 0.19724 1.06600
Ni	Ni	0.27672 0.66193 0.17334 1.09900
H 	H 	0.33262 0.64210 0.38014 0.16600
C 	C 	0.24758 0.50491 0.15093 0.29400
H 	H 	0.43458 0.08715 0.06974 0.04400
H 	H 	0.28378 0.32500 0.09489 0.03900
H 	H 	0.39234 0.64330 0.50323 0.03800
H 	H 	0.42521 0.97295 0.03205 0.03000
C 	C 	0.26565 0.48259 0.12988 -0.10600
C 	C 	0.40580 0.05459 0.83235 -0.00300
H 	H 	0.40902 0.04470 0.81522 0.03300
O 	O 	0.30468 0.56481 0.16135 -0.38200
H 	H 	0.23811 0.34607 0.01397 0.04200
Ni	Ni	0.36644 0.75103 0.41104 1.09900
O 	O 	0.32387 0.92454 0.42358 -0.40600
H 	H 	0.42394 0.63087 0.54153 0.04100
H 	H 	0.52899 0.72963 0.57514 0.04000
C 	C 	0.45255 0.26013 0.77031 -0.00800
C 	C 	0.44559 0.01682 0.09709 -0.01500
H 	H 	0.46745 0.26356 0.78735 0.05100
O 	O 	0.39320 0.84623 0.17627 -0.41000
C 	C 	0.41397 0.25167 0.72628 -0.01000
O 	O 	0.37066 0.90746 0.37916 -0.38700
C 	C 	0.38189 0.81866 0.15608 0.29400
H 	H 	0.39928 0.24662 0.70922 0.05300
C 	C 	0.28018 0.46707 0.11181 0.04600
O 	O 	0.33676 0.76280 0.21789 -0.41100
C 	C 	0.46813 0.05132 0.07691 -0.05300
O 	O 	0.35069 0.73894 0.15173 -0.37800
C 	C 	0.42054 0.87345 0.13913 -0.11400
O 	O 	0.41443 0.57957 0.42236 -0.38800
O 	O 	0.38024 0.68974 0.19330 -0.36500
C 	C 	0.00956 0.49816 0.50000 -0.05500
C 	C 	0.29788 0.37470 0.08352 -0.03000
C 	C 	0.37869 0.90260 0.43467 0.30300
H 	H 	0.55646 0.68841 0.61154 0.03900
C 	C 	0.45013 0.91598 0.12403 0.04900
C 	C 	0.29801 0.45234 0.08999 -0.00800
C 	C 	0.45610 0.65795 0.50852 -0.03100
N 	N 	0.31837 0.64408 0.26502 -0.11200
C 	C 	0.47401 0.65125 0.53022 -0.04400
C 	C 	0.48276 0.01958 0.02733 -0.02500
C 	C 	0.30306 0.37231 0.01002 -0.04300
C 	C 	0.39005 0.92126 0.45719 -0.11700
H 	H 	0.31769 0.30152 0.05751 0.04200
C 	C 	0.38885 0.72763 0.21206 0.29200
C 	C 	0.48562 0.96670 0.10599 -0.02400
C 	C 	0.55460 0.68130 0.57698 -0.04300
O 	O 	0.41093 0.79524 0.38189 -0.39400
C 	C 	0.31677 0.36132 0.06235 -0.04300
O 	O 	0.42285 0.86359 0.42543 -0.38200
C 	C 	0.45484 0.65416 0.43006 0.30600
H 	H 	0.38859 0.06430 0.49809 0.04100
C 	C 	0.51433 0.29940 0.75565 0.00400
C 	C 	0.49573 0.03985 0.00570 -0.03600
H 	H 	0.30928 0.99180 0.57190 0.02700
C 	C 	0.42419 0.87031 0.37540 0.30200
C 	C 	0.49628 0.29024 0.73340 -0.06900
H 	H 	0.34086 0.05107 0.60858 0.04600
C 	C 	0.31574 0.51610 0.07515 -0.03000
C 	C 	0.39776 0.93380 0.47629 0.05000
C 	C 	0.56996 0.65784 0.59758 -0.03100
H 	H 	0.31539 0.57611 0.08003 0.04000
O 	O 	0.46620 0.71879 0.41813 -0.37100
C 	C 	0.38029 0.68335 0.25739 0.07900
C 	C 	0.53098 0.03596 0.06555 0.02700
C 	C 	0.39954 0.01866 0.50823 -0.02000
C 	C 	0.33599 0.42563 0.04761 0.00900
C 	C 	0.48103 0.66486 0.45216 -0.11700
H 	H 	0.40123 0.08670 0.53736 0.04300
C 	C 	0.33477 0.50285 0.05404 -0.04300
C 	C 	0.36215 0.41380 0.02584 0.00900
C 	C 	0.40714 0.94764 0.49912 -0.02000
C 	C 	0.49990 0.67183 0.47096 0.05300
C 	C 	0.40603 0.03101 0.53047 -0.03600
C 	C 	0.36977 0.00238 0.57909 -0.01700
C 	C 	0.54419 0.05901 0.04283 -0.00100
C 	C 	0.51987 0.67938 0.49356 -0.01000
C 	C 	0.38754 0.03562 0.59990 -0.03600
C 	C 	0.59640 0.34802 0.76352 0.07900
H 	H 	0.34951 0.55278 0.04274 0.04200
C 	C 	0.55590 0.66610 0.53707 0.00900
N 	N 	0.51883 0.09200 0.38670 -0.11000
C 	C 	0.57288 0.64265 0.55882 0.00900
O 	O 	0.05543 0.01540 0.81227 -0.68400
C 	C 	0.46385 0.74088 0.22540 -0.06900
C 	C 	0.55230 0.95618 0.09533 -0.02000
C 	C 	0.55774 0.10530 0.83429 0.08500
C 	C 	0.01578 0.55148 0.53644 -0.01500
C 	C 	0.48834 0.90403 0.35901 -0.05800
C 	C 	0.41996 0.97220 0.54377 0.00400
C 	C 	0.52912 0.04540 0.37466 0.09900
C 	C 	0.42104 0.88874 0.51234 -0.02800
H 	H 	0.46087 0.78569 0.34339 0.04800
C 	C 	0.45757 0.73239 0.24786 0.00600
C 	C 	0.56343 0.30296 0.71796 0.29000
C 	C 	0.51567 0.15293 0.64278 -0.11500
C 	C 	0.60352 0.59567 0.60008 -0.00700
C 	C 	0.57496 0.99072 0.07515 -0.06000
C 	C 	0.54814 0.21050 0.66016 0.29700
C 	C 	0.49224 0.10794 0.62733 0.04800
O 	O 	0.54527 0.18380 0.68011 -0.40600
C 	C 	0.43178 0.98799 0.56710 -0.00400
O 	O 	0.56020 0.33716 0.69937 -0.36700
O 	O 	0.57344 0.29000 0.65629 -0.37600
N 	N 	0.09243 0.62461 0.68824 -0.10800
H 	H 	0.42674 0.83352 0.50538 0.03800
C 	C 	0.46716 0.05424 0.60881 -0.00800
N 	N 	0.66217 0.38695 0.76980 -0.11200
C 	C 	0.42745 0.90094 0.53462 -0.04400
C 	C 	0.44603 0.44772 0.02057 -0.04300
C 	C 	0.50299 0.84916 0.34434 -0.01200
C 	C 	0.54201 0.98726 0.35966 -0.01200
C 	C 	0.60561 0.57984 0.56142 -0.04200
C 	C 	0.62395 0.57426 0.62111 0.04600
H 	H 	0.58395 0.91798 0.10218 0.04000
C 	C 	0.60223 0.69980 0.50058 -0.02800
C 	C 	0.61874 0.11886 0.03651 -0.03700
C 	C 	0.62028 0.69348 0.52229 -0.04300
H 	H 	0.54788 0.78392 0.19914 0.05200
H 	H 	0.43859 0.85536 0.54473 0.04000
O 	O 	0.61723 0.46338 0.66760 -0.38000
C 	C 	0.62101 0.55663 0.58196 -0.03000
N 	N 	0.62082 0.12085 0.82594 -0.11200
C 	C 	0.07751 0.63365 0.70594 0.07900
C 	C 	0.54206 0.77962 0.21645 -0.00900
C 	C 	0.63158 0.13924 0.01486 -0.03400
H 	H 	0.98696 0.44716 0.48862 0.05400
C 	C 	0.64272 0.55329 0.63819 -0.10400
H 	H 	0.49200 0.47980 0.03271 0.04200
C 	C 	0.50904 0.99971 0.57680 -0.05200
H 	H 	0.62412 0.97919 0.06659 0.04400
O 	O 	0.61861 0.26885 0.72162 -0.40900
C 	C 	0.52658 0.03262 0.59762 -0.02000
H 	H 	0.61896 0.54895 0.54751 0.04300
C 	C 	0.52606 0.77359 0.26114 -0.00900
H 	H 	0.51895 0.77300 0.27838 0.05400
H 	H 	0.66652 0.14957 0.04836 0.04100
H 	H 	0.65195 0.71753 0.48913 0.04300
H 	H 	0.05374 0.44702 0.56317 0.04400
Ni	Ni	0.65437 0.36905 0.67730 1.10000
C 	C 	0.04815 0.17854 0.75670 0.06500
C 	C 	0.66937 0.52650 0.65771 0.29200
C 	C 	0.57475 0.87319 0.33221 0.00900
C 	C 	0.61050 0.01349 0.34602 0.00500
H 	H 	0.68388 0.70645 0.52748 0.04200
H 	H 	0.64712 0.50864 0.58379 0.04100
Ni	Ni	0.64909 0.20039 0.69875 1.07100
H 	H 	0.55698 0.98771 0.56779 0.04100
H 	H 	0.68911 0.18588 0.01011 0.03700
H 	H 	0.58796 0.04580 0.60454 0.03600
C 	C 	0.05917 0.64503 0.72803 -0.00400
C 	C 	0.61130 0.81927 0.22978 -0.00500
H 	H 	0.65132 0.07745 0.34645 0.04700
N 	N 	0.68115 0.00018 0.70195 -0.13800
C 	C 	0.62851 0.95660 0.33258 -0.07200
C 	C 	0.60211 0.82024 0.25222 -0.05700
C 	C 	0.59571 0.81034 0.32087 0.09200
N 	N 	0.61261 0.75959 0.31202 -0.10000
H 	H 	0.70989 0.43901 0.71344 0.16300
O 	O 	0.72012 0.29719 0.68414 -0.70100
O 	O 	0.64839 0.94071 0.27505 -0.40600
H 	H 	0.74080 0.28067 0.67075 0.15700
N 	N 	0.70309 0.49299 0.81775 -0.11200
O 	O 	0.04666 0.84433 0.76737 -0.37400
O 	O 	0.74948 0.54858 0.66163 -0.41600
O 	O 	0.73731 0.43923 0.69959 -0.70300
C 	C 	0.04269 0.25579 0.83480 -0.07100
C 	C 	0.66624 0.87945 0.26600 0.26900
C 	C 	0.69053 0.86201 0.22028 0.06600
C 	C 	0.74035 0.03200 0.71228 0.06300
O 	O 	0.74122 0.19868 0.72042 -0.39700
C 	C 	0.70315 0.98414 0.31899 0.28800
C 	C 	0.74547 0.55468 0.82546 0.07500
O 	O 	0.72529 0.05585 0.30957 -0.40200
C 	C 	0.03137 0.66372 0.77164 0.00300
O 	O 	0.72648 0.85688 0.27401 -0.36000
N 	N 	0.75406 0.89628 0.21269 -0.12000
Ni	Ni	0.72637 0.06147 0.27701 1.07000
Ni	Ni	0.80071 0.55304 0.69233 1.07100
H 	H 	0.80435 0.96084 0.74206 0.03300
Ni	Ni	0.03720 0.92845 0.78931 1.09400
O 	O 	0.74512 0.93474 0.31600 -0.35800
C 	C 	0.01884 0.67112 0.79434 0.08100
N 	N 	0.73834 0.18940 0.21490 -0.12500
C 	C 	0.81426 0.07173 0.72518 -0.00600
Ni	Ni	0.81415 0.37525 0.70284 1.10200
H 	H 	0.80660 0.69876 0.80574 0.05100
C 	C 	0.81833 0.21240 0.71495 0.26900
C 	C 	0.79838 0.63170 0.83508 0.00200
N 	N 	0.00887 0.67703 0.81253 -0.11100
C 	C 	0.84153 0.02499 0.73961 0.01600
C 	C 	0.82522 0.70248 0.82254 -0.00500
O 	O 	0.78560 0.19029 0.27865 -0.39300
H 	H 	0.82359 0.38986 0.03784 0.04100
C 	C 	0.01983 0.48108 0.57098 -0.05400
C 	C 	0.83249 0.42967 0.00509 -0.03300
C 	C 	0.78512 0.24515 0.22407 0.06300
C 	C 	0.85936 0.15687 0.72330 -0.05600
O 	O 	0.85872 0.56379 0.72129 -0.40800
O 	O 	0.86393 0.28496 0.70751 -0.36100
H 	H 	0.82010 0.52826 0.06588 0.04300
O 	O 	0.87670 0.40469 0.67457 -0.38100
Ni	Ni	0.82311 0.93880 0.29095 1.10100
C 	C 	0.85574 0.43805 0.02682 -0.04100
O 	O 	0.82796 0.03811 0.27409 -0.70200
H 	H 	0.83603 0.02818 0.25874 0.16300
N 	N 	0.89252 0.44434 0.82878 -0.10100
C 	C 	0.89618 0.47775 0.66615 0.31300
C 	C 	0.87444 0.77846 0.83172 -0.06800
O 	O 	0.84801 0.84334 0.30547 -0.35100
O 	O 	0.89421 0.00407 0.78647 -0.38500
O 	O 	0.88855 0.92024 0.82636 -0.39900
O 	O 	0.90196 0.54155 0.67824 -0.39300
C 	C 	0.85085 0.23166 0.26715 0.27400
C 	C 	0.84346 0.31467 0.23552 0.00300
N 	N 	0.86892 0.92588 0.35722 -0.11600
H 	H 	0.85209 0.54571 0.10479 0.04200
C 	C 	0.89901 0.85315 0.81863 0.27800
N 	N 	0.87921 0.26040 0.32305 -0.12300
C 	C 	0.99493 0.53752 0.55933 0.02900
O 	O 	0.91300 0.45917 0.71955 -0.36100
C 	C 	0.91574 0.06134 0.75126 -0.07800
C 	C 	0.92126 0.39719 0.83471 0.08500
C 	C 	0.85680 0.31097 0.25778 -0.05900
C 	C 	0.87987 0.52965 0.07184 -0.04500
C 	C 	0.92000 0.48935 0.64408 -0.10600
C 	C 	0.91941 0.53548 0.72505 0.29100
O 	O 	0.92403 0.85000 0.79879 -0.37200
H 	H 	0.89415 0.04366 0.32094 0.16600
C 	C 	0.91903 0.50942 0.03438 0.00400
C 	C 	0.93675 0.01616 0.76886 0.30500
H 	H 	0.89924 0.60350 0.59928 0.04100
C 	C 	0.93810 0.19051 0.73310 -0.01400
H 	H 	0.88781 0.38310 0.20670 0.04700
C 	C 	0.90544 0.88397 0.35242 0.04500
C 	C 	0.89803 0.53968 0.09387 -0.02700
C 	C 	0.93778 0.49962 0.62540 0.05000
C 	C 	0.89214 0.38358 0.22410 -0.01200
H 	H 	0.93298 0.54561 0.76834 0.04900
O 	O 	0.91519 0.03039 0.30721 -0.69400
Ni	Ni	0.95106 0.03566 0.81590 1.07800
C 	C 	0.95731 0.33837 0.84204 0.01000
O 	O 	0.91866 0.21357 0.26796 -0.36200
C 	C 	0.92491 0.84583 0.30745 0.28000
C 	C 	0.93877 0.52132 0.05755 0.01700
C 	C 	0.93312 0.56942 0.59145 -0.02800
C 	C 	0.90421 0.38351 0.26891 -0.00700
Ni	Ni	0.93052 0.12469 0.28744 1.10200
C 	C 	0.96683 0.14286 0.74688 0.01400
C 	C 	0.94585 0.28454 0.33021 0.07200
C 	C 	0.95816 0.51316 0.60305 -0.00400
H 	H 	0.94157 0.42758 0.52624 0.03800
H 	H 	0.91053 0.38295 0.28625 0.05400
C 	C 	0.96097 0.57094 0.01991 -0.03400
H 	H 	0.97509 0.25487 0.73091 0.05900
C 	C 	0.94785 0.80202 0.32512 -0.08200
C 	C 	0.95103 0.83162 0.34645 0.00500
H 	H 	0.93189 0.62520 0.56082 0.04400
N 	N 	0.92061 0.71806 0.23262 -0.10000
O 	O 	0.98567 0.97497 0.76521 -0.38600
C 	C 	0.95150 0.58164 0.56967 -0.04900
C 	C 	0.98234 0.59280 0.76027 -0.00400
C 	C 	0.99115 0.58670 0.73805 -0.05600
H 	H 	0.02345 0.34240 0.81270 0.04800
H 	H 	0.94683 0.90947 0.25475 0.02700
O 	O 	0.00446 0.15613 0.80619 -0.41000
C 	C 	0.95229 0.44953 0.23491 -0.05100
C 	C 	0.97510 0.54145 0.10173 -0.00900
C 	C 	0.00147 0.46897 0.59277 -0.03200
C 	C 	0.01131 0.31678 0.82864 -0.01300
C 	C 	0.95287 0.45265 0.25753 0.01500
O 	O 	0.98400 0.90529 0.29836 -0.41300
H 	H 	0.98345 0.72143 0.30399 0.05000
H 	H 	0.02082 0.42522 0.60162 0.04200
C 	C 	0.98744 0.74609 0.32021 0.00600
C 	C 	0.98427 0.48690 0.52134 -0.01500
C 	C 	0.47897 0.08591 0.84469 0.00400
C 	C 	0.89973 0.78272 0.85350 0.00300
C 	C 	0.02969 0.22549 0.85588 -0.01100
C 	C 	0.82124 0.63685 0.85705 -0.06400
C 	C 	0.06766 0.16856 0.86340 0.05600
C 	C 	0.93552 0.29940 0.86198 -0.06400
C 	C 	0.95358 0.85925 0.86315 0.06600
C 	C 	0.32447 0.04832 0.86420 0.01500
C 	C 	0.47503 0.10224 0.86683 -0.06000
O 	O 	0.80375 0.49837 0.86682 -0.36500
C 	C 	0.87302 0.71210 0.86598 -0.00900
N 	N 	0.09814 0.12296 0.86942 -0.10600
C 	C 	0.97542 0.24667 0.86927 -0.01300
C 	C 	0.78783 0.56547 0.87106 0.27900
N 	N 	0.99648 0.92059 0.87089 -0.11800
O 	O 	0.79239 0.24344 0.87214 -0.40500
H 	H 	0.61723 0.38805 0.87493 0.16600
C 	C 	0.86424 0.30472 0.87384 0.26700
C 	C 	0.24557 0.02177 0.87468 0.08600
C 	C 	0.39755 0.07888 0.87663 -0.01100
C 	C 	0.54786 0.15884 0.87857 0.30000
O 	O 	0.61661 0.14196 0.87910 -0.38600
O 	O 	0.55007 0.23399 0.88210 -0.38700
O 	O 	0.86835 0.37565 0.88242 -0.36600
H 	H 	0.89208 0.71574 0.88274 0.05200
N 	N 	0.18256 0.00020 0.88321 -0.10100
H 	H 	0.96130 0.21915 0.88496 0.02600
Ni	Ni	0.76205 0.40083 0.88680 1.10100
O 	O 	0.64496 0.39837 0.88924 -0.69500
O 	O 	0.76103 0.57622 0.89016 -0.40600
H 	H 	0.78201 0.37534 0.99949 0.03500
H 	H 	0.39426 0.08839 0.89379 0.05200
Ni	Ni	0.71841 0.19798 0.89867 1.07000
Ni	Ni	0.64813 0.50476 0.90110 1.07000
O 	O 	0.71489 0.30567 0.90727 -0.70900
Ni	Ni	0.59851 0.30005 0.90930 1.09800
O 	O 	0.52767 0.46140 0.91282 -0.39800
O 	O 	0.81428 0.47638 0.91306 -0.36600
O 	O 	0.49181 0.32206 0.91457 -0.37200
H 	H 	0.74177 0.31963 0.92162 0.14900
C 	C 	0.49637 0.39240 0.92339 0.30600
O 	O 	0.65778 0.13971 0.92514 -0.40500
O 	O 	0.55577 0.19647 0.92735 -0.38400
O 	O 	0.69790 0.48332 0.92932 -0.41900
C 	C 	0.77258 0.47919 0.93056 0.29200
C 	C 	0.60685 0.16501 0.93663 0.29300
C 	C 	0.46216 0.39361 0.94416 -0.11400
C 	C 	0.81148 0.48485 0.95130 -0.11000
C 	C 	0.59353 0.14058 0.95859 -0.10600
C 	C 	0.43721 0.39596 0.96202 0.05100
C 	C 	0.83997 0.48933 0.96924 0.04300
H 	H 	0.28172 0.33440 0.97678 0.04300
C 	C 	0.58266 0.12178 0.97718 0.04400
C 	C 	0.41147 0.40092 0.98370 -0.00900
H 	H 	0.96861 0.61138 0.98721 0.04300
C 	C 	0.32770 0.36595 0.98897 -0.02900
C 	C 	0.87227 0.49256 0.99079 -0.00700
H 	H 	0.44791 0.00916 0.99385 0.04600
H 	H 	0.53550 0.46805 0.99561 0.03900
C 	C 	0.93758 0.56251 0.99817 -0.03400
C 	C 	0.57013 0.09966 0.99941 -0.00300
C 	C 	0.47058 0.44124 0.99957 -0.03000
