data_crystal

_cell_length_a 18.38966
_cell_length_b 18.88199
_cell_length_c 34.86190
_cell_angle_alpha 95.43469
_cell_angle_beta  95.43475
_cell_angle_gamma 126.42563

_symmetry_space_group_name_	'P 1'
_symmetry_space_group_name_H-M	'P 1'

loop_
_symmetry_equiv_pos_as_xyz
  x,y,z

loop_
_atom_site_label
_atom_site_type_symbol
_atom_site_fract_x
_atom_site_fract_y
_atom_site_fract_z
_atom_site_charge
C 	C 	0.90996 0.00040 0.96155 0.17000
N 	N 	0.86566 0.91146 0.96215 -0.10800
C 	C 	0.91381 0.87753 0.96201 0.19600
N 	N 	0.00541 0.93265 0.96212 -0.09800
C 	C 	0.04949 0.02105 0.96242 0.18800
N 	N 	0.00183 0.05476 0.96196 -0.09700
C 	C 	0.93070 0.01319 0.48779 0.16300
N 	N 	0.02010 0.05970 0.48357 -0.10200
C 	C 	0.06152 0.01929 0.48399 0.17600
N 	N 	0.01304 0.93236 0.48806 -0.09600
C 	C 	0.92403 0.88607 0.49220 0.19900
N 	N 	0.88326 0.92669 0.49240 -0.09500
Cu	Cu	0.76635 0.35154 0.96134 0.93400
Cu	Cu	0.74697 0.27960 0.04445 0.90400
Cu	Cu	0.62412 0.31667 0.01105 0.91300
Cu	Cu	0.59688 0.34699 0.93020 0.91900
C 	C 	0.70445 0.32396 0.87852 0.40500
O 	O 	0.81984 0.48299 0.95986 -0.32700
C 	C 	0.67809 0.34276 0.09710 0.39000
O 	O 	0.62333 0.28073 0.95716 -0.63600
O 	O 	0.75645 0.36826 0.01686 -0.63200
O 	O 	0.82401 0.28845 0.96629 -0.33300
O 	O 	0.71862 0.19359 0.00097 -0.36800
O 	O 	0.66800 0.36463 0.88745 -0.34100
O 	O 	0.49308 0.25786 0.00379 -0.33300
C 	C 	0.43968 0.24325 0.97108 0.33800
C 	C 	0.77771 0.51652 0.97143 0.33000
O 	O 	0.69217 0.46208 0.97607 -0.35800
O 	O 	0.47335 0.29096 0.94337 -0.33200
O 	O 	0.75279 0.31644 0.90601 -0.33000
C 	C 	0.78110 0.21273 0.97972 0.32900
O 	O 	0.62766 0.34358 0.06758 -0.32100
O 	O 	0.74567 0.33866 0.09167 -0.35300
H 	H 	0.58220 0.21518 0.94729 0.20500
H 	H 	0.79869 0.43058 0.03178 0.21500
Cu	Cu	0.60977 0.19686 0.50710 0.94100
Cu	Cu	0.71211 0.24247 0.43198 0.89000
Cu	Cu	0.64392 0.33540 0.45933 0.90600
Cu	Cu	0.62024 0.36469 0.54198 0.92100
C 	C 	0.63062 0.24878 0.59001 0.40500
O 	O 	0.47666 0.15057 0.50487 -0.30600
C 	C 	0.63752 0.29545 0.37463 0.38900
O 	O 	0.68443 0.33641 0.51337 -0.63300
O 	O 	0.60392 0.21138 0.45211 -0.64100
O 	O 	0.66499 0.13327 0.50194 -0.33100
O 	O 	0.78127 0.24655 0.47728 -0.38900
O 	O 	0.59011 0.28523 0.58111 -0.34200
O 	O 	0.67280 0.45360 0.46690 -0.31600
C 	C 	0.71483 0.51339 0.49981 0.33900
C 	C 	0.44706 0.19543 0.49306 0.33500
O 	O 	0.50584 0.28184 0.49345 -0.37700
O 	O 	0.69833 0.48952 0.53411 -0.35100
O 	O 	0.63828 0.20222 0.56234 -0.31900
C 	C 	0.74703 0.17472 0.49280 0.35500
O 	O 	0.61865 0.33121 0.40281 -0.32300
O 	O 	0.66316 0.24485 0.38147 -0.36100
H 	H 	0.75205 0.37519 0.52215 0.19700
H 	H 	0.54408 0.16722 0.43409 0.22200
C 	C 	0.74018 0.36014 0.77537 0.23200
C 	C 	0.69941 0.27266 0.75590 0.00200
C 	C 	0.66967 0.20406 0.77766 0.23800
C 	C 	0.67585 0.22184 0.81828 0.31700
C 	C 	0.71146 0.30821 0.83732 -0.20600
C 	C 	0.74644 0.37790 0.81590 0.32100
C 	C 	0.67860 0.25132 0.71256 0.00200
F 	F 	0.63201 0.11966 0.75924 -0.32900
F 	F 	0.78478 0.46254 0.83429 -0.36500
C 	C 	0.74987 0.28016 0.69132 0.23800
C 	C 	0.73299 0.27438 0.65066 0.31600
C 	C 	0.64483 0.23998 0.63105 -0.20400
C 	C 	0.57230 0.20556 0.65193 0.32000
C 	C 	0.58918 0.21143 0.69251 0.23200
F 	F 	0.83612 0.31683 0.71030 -0.32700
F 	F 	0.48588 0.16847 0.63300 -0.35900
F 	F 	0.80317 0.30603 0.63064 -0.36300
F 	F 	0.51945 0.18193 0.71265 -0.33200
F 	F 	0.77041 0.42722 0.75472 -0.33200
F 	F 	0.64368 0.15439 0.83883 -0.37100
C 	C 	0.58582 0.24678 0.26392 0.23200
C 	C 	0.62185 0.33215 0.25575 -0.00000
C 	C 	0.65208 0.40274 0.28656 0.24000
C 	C 	0.65268 0.38972 0.32547 0.31400
C 	C 	0.62175 0.30554 0.33380 -0.19700
C 	C 	0.58463 0.23325 0.30267 0.31500
C 	C 	0.63653 0.34945 0.21559 0.00000
F 	F 	0.68394 0.48475 0.27889 -0.32500
F 	F 	0.54902 0.15018 0.31006 -0.36500
C 	C 	0.56093 0.30660 0.18450 0.23900
C 	C 	0.57456 0.30870 0.14563 0.31400
C 	C 	0.66415 0.35500 0.13759 -0.19600
C 	C 	0.73997 0.40458 0.16891 0.31600
C 	C 	0.72618 0.40078 0.20767 0.23300
F 	F 	0.47409 0.25979 0.19190 -0.32700
F 	F 	0.82707 0.45491 0.16176 -0.35900
F 	F 	0.50054 0.26196 0.11581 -0.36600
F 	F 	0.79990 0.44389 0.23749 -0.33300
F 	F 	0.55526 0.17769 0.23437 -0.33600
F 	F 	0.68734 0.45993 0.35512 -0.35800
C 	C 	0.78483 0.72880 0.46948 -0.10300
C 	C 	0.87051 0.79098 0.49438 -0.04700
C 	C 	0.90464 0.76174 0.52120 0.33200
C 	C 	0.85341 0.67084 0.52292 -0.06300
C 	C 	0.76812 0.60857 0.49777 -0.11800
C 	C 	0.73376 0.63792 0.47110 0.37900
F 	F 	0.65011 0.57861 0.44734 -0.38700
H 	H 	0.75808 0.75096 0.44873 0.15300
H 	H 	0.88013 0.64867 0.54367 0.11800
F 	F 	0.98667 0.82159 0.54599 -0.39000
C 	C 	0.93238 0.14473 0.50751 -0.13000
C 	C 	0.88507 0.05618 0.48764 -0.02900
C 	C 	0.79169 0.00648 0.47013 0.29700
C 	C 	0.74582 0.04419 0.47347 -0.05300
C 	C 	0.79302 0.13250 0.49334 -0.13800
C 	C 	0.88668 0.18292 0.51021 0.38400
F 	F 	0.93312 0.26859 0.52951 -0.40000
H 	H 	0.00405 0.18343 0.52141 0.16300
H 	H 	0.67411 0.00558 0.45962 0.10600
F 	F 	0.74588 0.92220 0.44927 -0.38100
C 	C 	0.18960 0.02676 0.46099 -0.13700
C 	C 	0.15951 0.06993 0.48141 -0.03200
C 	C 	0.22462 0.15716 0.50328 0.32600
C 	C 	0.31852 0.19882 0.50604 -0.05300
C 	C 	0.34837 0.15363 0.48737 -0.12200
C 	C 	0.28359 0.06809 0.46421 0.38200
F 	F 	0.31162 0.02493 0.44491 -0.41800
H 	H 	0.14001 0.96014 0.44345 0.16100
H 	H 	0.36818 0.26514 0.52384 0.11300
F 	F 	0.19707 0.19972 0.52350 -0.39700
C 	C 	0.82975 0.74418 0.99413 -0.10900
C 	C 	0.86776 0.78131 0.96178 -0.04800
C 	C 	0.87901 0.73209 0.93332 0.33500
C 	C 	0.85469 0.64792 0.93774 -0.06900
C 	C 	0.81774 0.61119 0.97033 -0.11300
C 	C 	0.80505 0.65974 0.99848 0.35800
F 	F 	0.76931 0.62534 0.03020 -0.40400
H 	H 	0.82231 0.78200 0.01662 0.13800
H 	H 	0.86243 0.61030 0.91526 0.14100
F 	F 	0.91498 0.76661 0.90166 -0.38700
C 	C 	0.84026 0.14635 0.93936 -0.05500
C 	C 	0.80705 0.15191 0.97328 -0.12800
C 	C 	0.79711 0.09797 0.00089 0.38100
C 	C 	0.82272 0.04164 0.99504 -0.12900
C 	C 	0.86001 0.03941 0.96210 -0.03600
C 	C 	0.86652 0.09043 0.93375 0.32400
F 	F 	0.90094 0.08786 0.90132 -0.39300
H 	H 	0.84632 0.18567 0.91742 0.13100
H 	H 	0.81816 0.00338 0.01724 0.13400
F 	F 	0.76647 0.10294 0.03423 -0.43300
C 	C 	0.18588 0.06571 0.93361 -0.10300
C 	C 	0.14892 0.08029 0.96401 -0.04600
C 	C 	0.20774 0.14821 0.99691 0.32900
C 	C 	0.30299 0.20064 0.99948 -0.06800
C 	C 	0.33996 0.18617 0.96901 -0.11300
C 	C 	0.28105 0.11879 0.93595 0.36700
F 	F 	0.31616 0.10395 0.90639 -0.41200
H 	H 	0.14078 0.01303 0.90823 0.14300
H 	H 	0.34806 0.25297 0.02497 0.14200
F 	F 	0.17258 0.16211 0.02671 -0.38900
