data_crystal

_cell_length_a 33.82406
_cell_length_b 33.94049
_cell_length_c 40.18806
_cell_angle_alpha 95.51526
_cell_angle_beta  95.51689
_cell_angle_gamma 125.52812

_symmetry_space_group_name_	'P 1'
_symmetry_space_group_name_H-M	'P 1'

loop_
_symmetry_equiv_pos_as_xyz
  x,y,z

loop_
_atom_site_label
_atom_site_type_symbol
_atom_site_fract_x
_atom_site_fract_y
_atom_site_fract_z
_atom_site_charge
C 	C 	0.97450 0.02106 0.99611 0.11300
N 	N 	0.02362 0.04744 0.99535 -0.13800
C 	C 	0.04613 0.02484 0.99499 0.11600
C 	C 	0.95504 0.00629 0.45347 0.11200
N 	N 	0.00469 0.03302 0.45481 -0.13900
C 	C 	0.02761 0.01093 0.45665 0.11600
Cu	Cu	0.64522 0.25450 0.99770 0.92700
Cu	Cu	0.68499 0.25607 0.92626 0.86900
C 	C 	0.65919 0.29135 0.06866 0.30400
O 	O 	0.57294 0.22528 0.99653 -0.36400
C 	C 	0.66123 0.30039 0.87957 0.30600
O 	O 	0.63954 0.26025 0.94919 -0.64100
O 	O 	0.67556 0.21874 0.99596 -0.37400
O 	O 	0.73088 0.26940 0.96476 -0.44300
O 	O 	0.63704 0.31146 0.05972 -0.38700
C 	C 	0.55352 0.24625 0.98421 0.28200
O 	O 	0.58263 0.29226 0.98031 -0.39300
O 	O 	0.66103 0.26176 0.04605 -0.36200
C 	C 	0.71751 0.23757 0.98520 0.28900
O 	O 	0.67351 0.33581 0.90485 -0.38700
O 	O 	0.65518 0.25979 0.88516 -0.42300
H 	H 	0.60538 0.24020 0.93594 0.17300
Cu	Cu	0.72533 0.33892 0.45453 0.92700
Cu	Cu	0.72601 0.30276 0.52734 0.86900
Cu	Cu	0.64700 0.31094 0.49861 0.89600
Cu	Cu	0.63333 0.33788 0.43165 0.89300
C 	C 	0.68729 0.32277 0.38342 0.28700
C 	C 	0.68211 0.32896 0.57298 0.28700
O 	O 	0.64843 0.29902 0.45138 -0.64100
O 	O 	0.72003 0.34596 0.50302 -0.64100
O 	O 	0.76147 0.30895 0.45697 -0.37600
O 	O 	0.71221 0.25557 0.48971 -0.44200
O 	O 	0.66713 0.34505 0.39203 -0.38500
O 	O 	0.57570 0.27354 0.49089 -0.38400
C 	C 	0.54881 0.27826 0.46779 0.29000
O 	O 	0.56927 0.31061 0.44740 -0.39600
O 	O 	0.71750 0.32182 0.40626 -0.36300
C 	C 	0.74337 0.26792 0.46873 0.28800
O 	O 	0.64458 0.31116 0.54762 -0.38800
O 	O 	0.72272 0.33427 0.56777 -0.42100
H 	H 	0.62735 0.26376 0.44045 0.16300
C 	C 	0.67572 0.33619 0.60829 -0.09000
C 	C 	0.71648 0.37359 0.63321 0.01300
C 	C 	0.71293 0.37511 0.66762 -0.06700
C 	C 	0.66870 0.33907 0.67745 0.02500
C 	C 	0.62699 0.30365 0.65243 -0.06700
C 	C 	0.63043 0.30231 0.61798 0.01200
C 	C 	0.66778 0.33492 0.71366 0.00100
C 	C 	0.63462 0.33791 0.73021 -0.04100
C 	C 	0.63263 0.33197 0.76417 -0.03300
C 	C 	0.66377 0.32305 0.78170 -0.00900
C 	C 	0.69712 0.32048 0.76528 -0.03300
C 	C 	0.69908 0.32630 0.73140 -0.04200
C 	C 	0.66110 0.31561 0.81635 0.04400
C 	C 	0.66032 0.30889 0.84529 -0.11300
H 	H 	0.59257 0.27586 0.65972 0.04500
H 	H 	0.59858 0.27347 0.59899 0.03300
H 	H 	0.61034 0.34462 0.71677 0.03900
H 	H 	0.60676 0.33404 0.77672 0.03800
C 	C 	0.68583 0.30998 0.34694 -0.08500
C 	C 	0.64347 0.29255 0.32296 0.01200
C 	C 	0.64367 0.28543 0.28816 -0.06600
C 	C 	0.68618 0.29555 0.27696 0.02600
C 	C 	0.72794 0.31120 0.30087 -0.06600
C 	C 	0.72778 0.31833 0.33572 0.01500
C 	C 	0.68797 0.29287 0.24030 0.00200
C 	C 	0.65431 0.24814 0.21737 -0.04000
C 	C 	0.65185 0.24690 0.18230 -0.03200
C 	C 	0.68308 0.29030 0.16995 -0.00700
C 	C 	0.71811 0.33459 0.19283 -0.03300
C 	C 	0.72058 0.33590 0.22790 -0.04000
C 	C 	0.67589 0.29035 0.13403 0.04400
C 	C 	0.66887 0.29069 0.10409 -0.10400
H 	H 	0.61067 0.28533 0.33128 0.02200
H 	H 	0.61120 0.27323 0.26990 0.04500
H 	H 	0.76081 0.31877 0.29246 0.04600
H 	H 	0.76073 0.33174 0.35391 0.03900
H 	H 	0.62925 0.21465 0.22668 0.03900
H 	H 	0.62477 0.21248 0.16475 0.04000
H 	H 	0.74243 0.36827 0.18347 0.03700
H 	H 	0.74672 0.37061 0.24538 0.03900
C 	C 	0.93018 0.03040 0.45092 -0.02000
C 	C 	0.94907 0.07096 0.43442 -0.02200
C 	C 	0.92692 0.09516 0.43328 -0.04800
C 	C 	0.88555 0.07898 0.44844 0.01200
C 	C 	0.86600 0.03793 0.46434 -0.04800
C 	C 	0.88822 0.01376 0.46562 -0.02400
C 	C 	0.86383 0.10611 0.44873 0.00500
C 	C 	0.89031 0.15377 0.46817 -0.04200
C 	C 	0.86963 0.17941 0.46874 -0.03800
C 	C 	0.82233 0.15768 0.44975 -0.00200
C 	C 	0.79602 0.11015 0.43004 -0.03700
C 	C 	0.81666 0.08442 0.42960 -0.04200
C 	C 	0.79967 0.18399 0.45156 0.02600
C 	C 	0.82338 0.23052 0.44239 -0.06800
C 	C 	0.80419 0.25731 0.44690 0.01300
C 	C 	0.76099 0.23774 0.46062 -0.09600
C 	C 	0.73621 0.19024 0.46844 0.01100
C 	C 	0.75559 0.16365 0.46408 -0.06900
H 	H 	0.98091 0.08376 0.42250 0.04000
H 	H 	0.94205 0.12664 0.42077 0.04100
H 	H 	0.83409 0.02524 0.47616 0.04000
H 	H 	0.92673 0.17076 0.48305 0.03800
H 	H 	0.89008 0.21591 0.48424 0.03600
H 	H 	0.75957 0.09311 0.41520 0.03700
H 	H 	0.79605 0.04772 0.41440 0.03900
H 	H 	0.85713 0.24628 0.43231 0.04500
H 	H 	0.82356 0.29365 0.44046 0.03500
H 	H 	0.70237 0.17420 0.47842 0.02700
H 	H 	0.73689 0.12767 0.47109 0.04300
C 	C 	0.08130 0.03968 0.45733 -0.02100
C 	C 	0.10075 0.01778 0.44098 -0.02300
C 	C 	0.15172 0.04445 0.44244 -0.04800
C 	C 	0.18376 0.09328 0.46019 0.01300
C 	C 	0.16442 0.11538 0.47631 -0.04900
C 	C 	0.11340 0.08873 0.47488 -0.02100
C 	C 	0.23756 0.12121 0.46189 0.00500
C 	C 	0.26915 0.13654 0.49325 -0.04100
C 	C 	0.32006 0.16208 0.49474 -0.03700
C 	C 	0.33973 0.17249 0.46488 -0.00200
C 	C 	0.30813 0.15718 0.43353 -0.03700
C 	C 	0.25726 0.13169 0.43205 -0.04100
C 	C 	0.39347 0.20003 0.46646 0.02700
C 	C 	0.41761 0.17956 0.47673 -0.06700
C 	C 	0.46837 0.20520 0.47740 0.01400
C 	C 	0.49544 0.25156 0.46778 -0.08800
C 	C 	0.47123 0.27217 0.45783 0.01400
C 	C 	0.42052 0.24651 0.45719 -0.06700
H 	H 	0.16635 0.02711 0.42991 0.04100
H 	H 	0.18891 0.15316 0.48996 0.04100
H 	H 	0.09894 0.10598 0.48777 0.04000
H 	H 	0.25423 0.12842 0.51639 0.03900
H 	H 	0.34421 0.17393 0.51906 0.03800
H 	H 	0.32300 0.16500 0.41035 0.03700
H 	H 	0.23315 0.12004 0.40774 0.03900
H 	H 	0.39695 0.14360 0.48384 0.04500
H 	H 	0.48648 0.18874 0.48494 0.03000
H 	H 	0.49171 0.30817 0.45079 0.03200
H 	H 	0.40224 0.26274 0.44947 0.04600
C 	C 	0.74731 0.21963 0.99338 -0.09800
C 	C 	0.79775 0.24863 0.99139 0.01300
C 	C 	0.82460 0.22939 0.99486 -0.07100
C 	C 	0.80141 0.18108 0.00052 0.02800
C 	C 	0.75168 0.15286 0.00412 -0.06900
C 	C 	0.72473 0.17203 0.00061 0.01500
C 	C 	0.82818 0.15896 0.00034 -0.00200
C 	C 	0.84211 0.15031 0.97028 -0.03900
C 	C 	0.86676 0.12860 0.96986 -0.04200
C 	C 	0.87773 0.11539 0.99950 0.00400
C 	C 	0.86412 0.12434 0.02964 -0.04000
C 	C 	0.83935 0.14599 0.03004 -0.03800
C 	C 	0.90251 0.09126 0.99875 0.01100
C 	C 	0.95096 0.11601 0.01672 -0.04600
C 	C 	0.97466 0.09332 0.01564 -0.02500
C 	C 	0.95002 0.04556 0.99665 -0.02000
C 	C 	0.90153 0.02087 0.97865 -0.02400
C 	C 	0.87793 0.04365 0.97969 -0.04700
H 	H 	0.81593 0.28575 0.98653 0.02700
H 	H 	0.86316 0.25166 0.99249 0.04400
H 	H 	0.73355 0.11558 0.00865 0.04600
H 	H 	0.68595 0.14929 0.00238 0.03300
H 	H 	0.83352 0.16011 0.94722 0.03500
H 	H 	0.87722 0.12190 0.94651 0.03800
H 	H 	0.87237 0.11417 0.05262 0.03900
H 	H 	0.82881 0.15261 0.05337 0.03900
H 	H 	0.97025 0.15284 0.03144 0.04000
H 	H 	0.01192 0.11261 0.02986 0.04300
H 	H 	0.84053 0.02430 0.96571 0.04000
C 	C 	0.09941 0.05327 0.99428 -0.02300
C 	C 	0.12080 0.08913 0.97370 -0.02000
C 	C 	0.17051 0.11330 0.97108 -0.04900
C 	C 	0.19922 0.10195 0.98911 0.01300
C 	C 	0.17813 0.06691 0.01021 -0.04800
C 	C 	0.12852 0.04273 0.01282 -0.01900
C 	C 	0.25107 0.12593 0.98541 0.00400
C 	C 	0.26208 0.11672 0.95408 -0.04100
C 	C 	0.31079 0.13561 0.95143 -0.03700
C 	C 	0.34880 0.16377 0.98008 -0.00200
C 	C 	0.33799 0.17414 0.01115 -0.03600
C 	C 	0.28934 0.15533 0.01380 -0.04000
C 	C 	0.39960 0.18098 0.97796 0.02600
C 	C 	0.42755 0.21758 0.95908 -0.06700
C 	C 	0.47728 0.23730 0.95977 0.01100
C 	C 	0.49953 0.22067 0.97949 -0.08900
C 	C 	0.47072 0.18230 0.99703 0.01200
C 	C 	0.42105 0.16265 0.99629 -0.06700
H 	H 	0.09871 0.09748 0.95917 0.04000
H 	H 	0.18657 0.14051 0.95486 0.04100
H 	H 	0.20005 0.05798 0.02427 0.04200
H 	H 	0.11260 0.01555 0.02908 0.03900
H 	H 	0.23276 0.09402 0.93204 0.03900
H 	H 	0.31884 0.12757 0.92731 0.03800
H 	H 	0.36721 0.19626 0.03332 0.03800
H 	H 	0.28125 0.16290 0.03803 0.03900
H 	H 	0.41111 0.23159 0.94456 0.04500
H 	H 	0.49872 0.26616 0.94556 0.03100
H 	H 	0.48716 0.16880 0.01215 0.03900
H 	H 	0.39951 0.13392 0.01059 0.04700
N 	N 	0.01942 0.97585 0.99537 -0.13800
C 	C 	0.97038 0.94936 0.99607 0.11600
N 	N 	0.94795 0.97200 0.99640 -0.13900
N 	N 	0.00081 0.96203 0.45730 -0.13800
C 	C 	0.95125 0.93511 0.45601 0.11600
N 	N 	0.92836 0.95727 0.45412 -0.13900
Cu	Cu	0.67387 0.33290 0.95382 0.89600
Cu	Cu	0.64550 0.34581 0.02033 0.89400
O 	O 	0.68516 0.33117 0.00112 -0.64000
O 	O 	0.71102 0.40391 0.96163 -0.38300
C 	C 	0.70726 0.43070 0.98544 0.28900
O 	O 	0.67386 0.41015 0.00515 -0.39400
H 	H 	0.72043 0.35225 0.01232 0.16300
O 	O 	0.75437 0.41073 0.45463 -0.36500
C 	C 	0.73336 0.43025 0.46671 0.28300
O 	O 	0.68738 0.40137 0.47099 -0.39300
H 	H 	0.73978 0.38033 0.51566 0.17100
H 	H 	0.75133 0.40056 0.62601 0.02800
H 	H 	0.74508 0.40317 0.68671 0.04400
H 	H 	0.72126 0.31356 0.77868 0.03400
H 	H 	0.72452 0.32353 0.71880 0.03700
C 	C 	0.92243 0.88183 0.45600 -0.02200
C 	C 	0.88598 0.85991 0.47617 -0.02000
C 	C 	0.86200 0.81031 0.47855 -0.04900
C 	C 	0.87410 0.78226 0.46064 0.01300
C 	C 	0.90954 0.80382 0.43979 -0.04900
C 	C 	0.93356 0.85333 0.43745 -0.01900
C 	C 	0.85076 0.73071 0.46439 0.00500
C 	C 	0.86067 0.72007 0.49568 -0.04100
C 	C 	0.84266 0.67175 0.49833 -0.03700
C 	C 	0.81464 0.63375 0.46971 -0.00100
C 	C 	0.80359 0.64419 0.43868 -0.03700
C 	C 	0.82157 0.69245 0.43603 -0.04100
C 	C 	0.79783 0.58326 0.47195 0.02600
C 	C 	0.76256 0.55593 0.49189 -0.06700
C 	C 	0.74323 0.50655 0.49151 0.01100
C 	C 	0.75888 0.48400 0.47104 -0.09000
C 	C 	0.79595 0.51216 0.45235 0.01300
C 	C 	0.81525 0.56152 0.45279 -0.06700
H 	H 	0.87713 0.88153 0.49065 0.03800
H 	H 	0.83444 0.79386 0.49456 0.04100
H 	H 	0.91902 0.78241 0.42580 0.04100
H 	H 	0.96122 0.86968 0.42151 0.03800
H 	H 	0.88327 0.74938 0.51769 0.03900
H 	H 	0.85122 0.66400 0.52242 0.03700
H 	H 	0.78152 0.61498 0.41655 0.03800
H 	H 	0.81351 0.70027 0.41182 0.03900
H 	H 	0.74925 0.57257 0.50703 0.04500
H 	H 	0.71536 0.48558 0.50656 0.03000
H 	H 	0.80863 0.49545 0.43659 0.03700
H 	H 	0.84298 0.58258 0.43766 0.04600
H 	H 	0.87335 0.98272 0.47857 0.04100
H 	H 	0.07637 0.98015 0.42706 0.04200
C 	C 	0.73560 0.48423 0.98659 -0.08900
C 	C 	0.74631 0.50340 0.95654 0.01500
C 	C 	0.77142 0.55396 0.95754 -0.06700
C 	C 	0.78626 0.58585 0.98859 0.02600
C 	C 	0.77612 0.56682 0.01868 -0.06700
C 	C 	0.75084 0.51625 0.01768 0.01400
C 	C 	0.81224 0.63914 0.98960 -0.00200
C 	C 	0.85781 0.66684 0.97884 -0.03700
C 	C 	0.88265 0.71741 0.98010 -0.04100
C 	C 	0.86227 0.74077 0.99231 0.00400
C 	C 	0.81659 0.71304 0.00294 -0.04000
C 	C 	0.79163 0.66241 0.00152 -0.03600
C 	C 	0.88908 0.79435 0.99435 0.01300
C 	C 	0.86765 0.81256 0.97577 -0.04900
C 	C 	0.89376 0.86327 0.97686 -0.01900
C 	C 	0.94165 0.89618 0.99642 -0.02300
C 	C 	0.96272 0.87795 0.01542 -0.01900
C 	C 	0.93651 0.82730 0.01443 -0.04900
H 	H 	0.73444 0.47907 0.93234 0.03800
H 	H 	0.77894 0.56830 0.93417 0.04600
H 	H 	0.78785 0.59122 0.04281 0.04500
H 	H 	0.74321 0.50199 0.04107 0.02500
H 	H 	0.87407 0.64923 0.96967 0.03700
H 	H 	0.91777 0.73846 0.97166 0.03900
H 	H 	0.80062 0.73076 0.01249 0.03900
H 	H 	0.75633 0.64128 0.00971 0.03800
H 	H 	0.83106 0.78740 0.96015 0.04100
H 	H 	0.87719 0.87686 0.96197 0.03800
H 	H 	0.99939 0.90301 0.03093 0.03800
H 	H 	0.95313 0.81362 0.02916 0.04100
H 	H 	0.88223 0.98418 0.96371 0.04100
