data_crystal

_cell_length_a 40.19904
_cell_length_b 40.14429
_cell_length_c 22.12945
_cell_angle_alpha 89.82420
_cell_angle_beta  89.99999
_cell_angle_gamma 89.99998

_symmetry_space_group_name_	'P 1'
_symmetry_space_group_name_H-M	'P 1'

loop_
_symmetry_equiv_pos_as_xyz
  x,y,z

loop_
_atom_site_label
_atom_site_type_symbol
_atom_site_fract_x
_atom_site_fract_y
_atom_site_fract_z
_atom_site_charge
C 	C 	0.48638 0.57453 0.84229 0.10100
N 	N 	0.46957 0.54736 0.86099 -0.17100
C 	C 	0.43818 0.55075 0.84054 0.09900
C 	C 	0.40990 0.53210 0.86693 -0.07600
C 	C 	0.41249 0.49579 0.87735 0.08700
C 	C 	0.37810 0.54915 0.87915 0.03700
C 	C 	0.37339 0.56585 0.93403 -0.05500
C 	C 	0.34167 0.57688 0.95041 -0.04300
C 	C 	0.31456 0.57144 0.91176 0.01800
C 	C 	0.35138 0.54544 0.83901 -0.05400
N 	N 	0.43742 0.47706 0.85500 -0.12900
C 	C 	0.39480 0.47864 0.92112 -0.06300
C 	C 	0.43510 0.44756 0.88398 0.08600
C 	C 	0.46199 0.42243 0.88333 -0.07300
C 	C 	0.45465 0.38779 0.90174 0.02900
C 	C 	0.42311 0.33686 0.88802 -0.05000
C 	C 	0.46859 0.37466 0.95482 -0.03900
C 	C 	0.45938 0.34292 0.97499 -0.08100
C 	C 	0.43625 0.32411 0.94209 0.03500
N 	N 	0.51125 0.45948 0.87677 -0.17200
C 	C 	0.54357 0.45508 0.86294 0.09800
C 	C 	0.54846 0.42401 0.83729 -0.06300
C 	C 	0.51762 0.40885 0.83560 -0.06300
C 	C 	0.57039 0.47549 0.88997 -0.07200
C 	C 	0.60197 0.45983 0.90923 0.02700
C 	C 	0.66222 0.45755 0.90494 -0.05700
C 	C 	0.66244 0.43433 0.95237 0.04200
C 	C 	0.63229 0.42310 0.97701 -0.08700
C 	C 	0.60213 0.43595 0.95570 -0.03700
N 	N 	0.54444 0.52935 0.86042 -0.12900
C 	C 	0.56540 0.56231 0.93344 -0.06400
C 	C 	0.54407 0.56015 0.88455 0.08800
C 	C 	0.51821 0.58510 0.87011 -0.07800
C 	C 	0.52546 0.62082 0.87881 0.04500
C 	C 	0.54030 0.63931 0.83223 -0.06300
C 	C 	0.54873 0.67270 0.84142 -0.02300
C 	C 	0.54302 0.68766 0.89779 -0.02100
C 	C 	0.52798 0.66909 0.94429 -0.02400
C 	C 	0.51890 0.63592 0.93455 -0.06400
C 	C 	0.46565 0.59549 0.80964 -0.06400
C 	C 	0.43484 0.58028 0.80852 -0.06300
C 	C 	0.31975 0.55679 0.85506 -0.04100
C 	C 	0.40934 0.44770 0.92542 -0.06300
C 	C 	0.49538 0.43141 0.86023 0.09800
C 	C 	0.57994 0.53143 0.93920 -0.06300
C 	C 	0.56672 0.51208 0.89355 0.08500
C 	C 	0.63212 0.47019 0.88335 -0.04500
H 	H 	0.47616 0.53306 0.89869 0.09100
H 	H 	0.50268 0.47578 0.91008 0.09100
H 	H 	0.55988 0.68687 0.80493 0.03300
H 	H 	0.52368 0.68024 0.98812 0.03000
H 	H 	0.54534 0.62780 0.78897 0.04700
H 	H 	0.50743 0.62176 0.97072 0.04100
H 	H 	0.33792 0.58850 0.99400 0.03700
H 	H 	0.35491 0.53280 0.79631 0.04500
H 	H 	0.29900 0.55289 0.82466 0.04000
H 	H 	0.39399 0.56899 0.96506 0.04000
H 	H 	0.46986 0.33313 0.01650 0.06900
H 	H 	0.48605 0.38929 0.98097 0.03400
C 	C 	0.43216 0.36864 0.86809 -0.04700
H 	H 	0.40553 0.32232 0.86200 0.04300
H 	H 	0.68542 0.46613 0.88541 0.04000
H 	H 	0.63221 0.48841 0.84713 0.04100
H 	H 	0.57896 0.42779 0.97591 0.03400
H 	H 	0.63228 0.40501 0.01343 0.06900
H 	H 	0.46958 0.62195 0.80340 0.04700
H 	H 	0.41159 0.59332 0.80130 0.04700
H 	H 	0.38032 0.49017 0.95661 0.04300
H 	H 	0.40789 0.43173 0.96485 0.04300
H 	H 	0.57191 0.41076 0.83647 0.04700
H 	H 	0.51380 0.38218 0.83348 0.04700
H 	H 	0.56313 0.58014 0.96979 0.04300
H 	H 	0.59068 0.52180 0.98058 0.04100
H 	H 	0.42141 0.37856 0.82690 0.04300
Co	Co	0.36390 0.13404 0.96383 1.17600
Co	Co	0.36543 0.05540 0.95073 1.09200
O 	O 	0.36047 0.18388 0.97861 -0.38000
O 	O 	0.40958 0.16605 0.99419 -0.32500
O 	O 	0.31931 0.11977 0.93675 -0.42800
O 	O 	0.36276 0.07824 0.87129 -0.45800
C 	C 	0.30354 0.09482 0.96280 0.33700
C 	C 	0.39027 0.19170 0.99444 0.27500
O 	O 	0.31993 0.06887 0.98363 -0.45700
O 	O 	0.38823 0.12782 0.88926 -0.43400
C 	C 	0.38459 0.10103 0.85605 0.31300
O 	O 	0.36212 0.11655 0.04485 -0.42200
O 	O 	0.39400 0.07274 0.01635 -0.46700
C 	C 	0.38104 0.09119 0.05915 0.31900
C 	C 	0.50804 0.04460 0.51580 0.01100
C 	C 	0.53297 0.01945 0.51760 0.00900
C 	C 	0.48885 0.04912 0.46329 -0.05600
C 	C 	0.49420 0.02874 0.41272 0.01100
C 	C 	0.53772 0.99850 0.46758 -0.05300
C 	C 	0.51880 0.00320 0.41490 0.00700
H 	H 	0.55636 0.97905 0.46928 0.04900
H 	H 	0.47106 0.06934 0.46085 0.05000
C 	C 	0.52351 0.98281 0.36343 -0.01200
C 	C 	0.50627 0.98905 0.30926 0.00500
C 	C 	0.52310 0.97715 0.25733 -0.05700
C 	C 	0.55382 0.96285 0.27093 0.00300
S 	S 	0.55905 0.96344 0.34567 -0.01600
H 	H 	0.51421 0.98071 0.21157 0.03900
C 	C 	0.47790 0.03483 0.35733 -0.01400
C 	C 	0.48296 0.01468 0.30713 0.00700
C 	C 	0.45803 0.01803 0.26239 -0.05600
C 	C 	0.43331 0.04101 0.27822 0.00600
S 	S 	0.44282 0.05628 0.34664 -0.00300
H 	H 	0.45877 0.00549 0.21916 0.04000
C 	C 	0.52366 0.06182 0.61841 0.00800
C 	C 	0.50445 0.06601 0.56592 -0.01500
S 	S 	0.46891 0.08430 0.58610 -0.00500
C 	C 	0.47709 0.08942 0.65935 0.00800
C 	C 	0.50824 0.07512 0.67105 -0.05800
C 	C 	0.55382 0.01736 0.56875 -0.01300
C 	C 	0.54887 0.03762 0.61942 0.00600
C 	C 	0.56360 0.02448 0.67292 -0.05200
C 	C 	0.57952 0.99391 0.66354 0.00600
S 	S 	0.57414 0.98330 0.59138 -0.00800
H 	H 	0.56053 0.03529 0.71726 0.04100
H 	H 	0.51717 0.07064 0.71645 0.04100
Co	Co	0.63340 0.87438 0.96111 1.17600
Co	Co	0.55558 0.88953 0.96424 1.08700
O 	O 	0.68265 0.86409 0.95088 -0.39400
O 	O 	0.67391 0.91623 0.95592 -0.33900
O 	O 	0.61115 0.83059 0.96747 -0.42300
O 	O 	0.57255 0.87257 0.04263 -0.44800
C 	C 	0.58370 0.82360 0.93755 0.32800
C 	C 	0.69601 0.89323 0.94966 0.32300
O 	O 	0.56510 0.84759 0.91524 -0.44200
O 	O 	0.62657 0.88945 0.04321 -0.41500
C 	C 	0.59754 0.88705 0.07009 0.31400
O 	O 	0.62015 0.88635 0.87998 -0.43700
O 	O 	0.58186 0.92221 0.91726 -0.48800
C 	C 	0.60040 0.91203 0.87218 0.32000
Co	Co	0.11840 0.62110 0.99516 1.17100
Co	Co	0.03985 0.61266 0.99556 1.08800
O 	O 	0.16858 0.62771 0.99650 -0.38500
O 	O 	0.15545 0.57825 0.97061 -0.33200
O 	O 	0.09925 0.66427 0.01930 -0.39600
O 	O 	0.06255 0.58430 0.93481 -0.48700
C 	C 	0.07384 0.67753 0.99056 0.31000
C 	C 	0.17933 0.59872 0.98155 0.28500
O 	O 	0.05243 0.65846 0.96207 -0.44700
O 	O 	0.10431 0.62010 0.91165 -0.44100
C 	C 	0.08261 0.59764 0.89474 0.32100
O 	O 	0.11109 0.59723 0.06987 -0.41600
O 	O 	0.05811 0.61667 0.07827 -0.44700
C 	C 	0.08207 0.59705 0.09717 0.30900
C 	C 	0.02934 0.47346 0.54823 0.01000
C 	C 	0.00592 0.44682 0.54990 0.01000
C 	C 	0.04348 0.48327 0.49299 -0.05500
C 	C 	0.03528 0.46629 0.43961 0.01000
C 	C 	0.99627 0.43114 0.49596 -0.05500
C 	C 	0.01115 0.44037 0.44090 0.00900
H 	H 	0.97914 0.41031 0.49738 0.04900
H 	H 	0.06254 0.50235 0.49225 0.04900
C 	C 	0.00525 0.42198 0.38765 -0.01200
C 	C 	0.02179 0.42936 0.33340 0.00600
C 	C 	0.00451 0.41776 0.28136 -0.05600
C 	C 	0.97441 0.40193 0.29521 0.00300
S 	S 	0.96930 0.40365 0.37004 -0.01600
H 	H 	0.01132 0.42438 0.23560 0.04400
C 	C 	0.05288 0.47228 0.38553 -0.01400
C 	C 	0.04587 0.45470 0.33241 0.00900
C 	C 	0.05658 0.47166 0.27924 -0.05700
C 	C 	0.07143 0.50251 0.29138 0.01100
S 	S 	0.06997 0.50858 0.36590 -0.00800
H 	H 	0.05088 0.46348 0.23390 0.04500
C 	C 	0.02783 0.47631 0.65897 0.00700
C 	C 	0.04051 0.48725 0.60330 -0.01400
S 	S 	0.05339 0.52654 0.61216 -0.00900
C 	C 	0.04340 0.53087 0.68493 0.00800
C 	C 	0.02998 0.50073 0.70513 -0.05700
C 	C 	0.99570 0.43439 0.60671 -0.01400
C 	C 	0.00629 0.44895 0.66079 0.00800
C 	C 	0.98593 0.44053 0.71098 -0.05700
C 	C 	0.95936 0.41978 0.69540 0.00900
S 	S 	0.96052 0.41352 0.62074 -0.01000
H 	H 	0.98859 0.45146 0.75536 0.04000
H 	H 	0.02349 0.49616 0.75187 0.04000
Co	Co	0.85924 0.36692 0.00265 1.19000
Co	Co	0.85730 0.44511 0.99737 1.08400
O 	O 	0.86042 0.31634 0.00427 -0.36900
O 	O 	0.90785 0.33720 0.02562 -0.31700
O 	O 	0.81277 0.37885 0.98359 -0.43700
O 	O 	0.89092 0.42805 0.05572 -0.46400
C 	C 	0.79761 0.40370 0.01083 0.31100
C 	C 	0.89097 0.31030 0.01752 0.29100
O 	O 	0.81520 0.42707 0.03734 -0.43000
O 	O 	0.86133 0.38280 0.08469 -0.43100
C 	C 	0.88250 0.40650 0.09777 0.32300
O 	O 	0.87899 0.37612 0.92483 -0.44400
O 	O 	0.85148 0.42549 0.91591 -0.46300
C 	C 	0.87247 0.40349 0.89429 0.31000
C 	C 	0.99425 0.92620 0.10799 0.10000
N 	N 	0.97650 0.95410 0.09775 -0.17300
C 	C 	0.94619 0.94892 0.12190 0.10200
C 	C 	0.91673 0.96854 0.10353 -0.08000
C 	C 	0.91809 0.00537 0.10423 0.08900
C 	C 	0.88599 0.95147 0.08394 0.05500
C 	C 	0.88596 0.93235 0.03099 -0.08000
C 	C 	0.85614 0.91929 0.00877 0.02200
C 	C 	0.82620 0.92510 0.03958 -0.04700
C 	C 	0.85625 0.95625 0.11590 -0.07100
N 	N 	0.94324 0.02241 0.13006 -0.12900
C 	C 	0.90004 0.02552 0.06541 -0.06200
C 	C 	0.94062 0.05376 0.10857 0.08700
C 	C 	0.96758 0.07864 0.11418 -0.07400
C 	C 	0.96003 0.11433 0.10496 0.03800
C 	C 	0.92693 0.16297 0.12957 -0.04000
C 	C 	0.97452 0.13177 0.05665 -0.05300
C 	C 	0.96476 0.16450 0.04415 -0.04000
C 	C 	0.94043 0.17995 0.07984 0.01800
N 	N 	0.01703 0.04221 0.10328 -0.17200
C 	C 	0.04985 0.04614 0.11319 0.09600
C 	C 	0.05565 0.07452 0.14703 -0.06100
C 	C 	0.02484 0.08846 0.15817 -0.06400
C 	C 	0.07554 0.02875 0.07710 -0.06000
C 	C 	0.10718 0.04555 0.06217 0.01200
C 	C 	0.16701 0.04972 0.07409 -0.04300
C 	C 	0.16839 0.07275 0.02633 0.02100
C 	C 	0.13889 0.08287 0.99769 -0.10300
C 	C 	0.10835 0.06937 0.01572 0.02000
N 	N 	0.05182 0.97248 0.09495 -0.12600
C 	C 	0.06747 0.94733 0.00856 -0.04200
C 	C 	0.04978 0.94441 0.06190 0.08300
C 	C 	0.02491 0.91813 0.07382 -0.07600
C 	C 	0.03252 0.88327 0.05740 0.05500
C 	C 	0.06103 0.86770 0.08069 -0.06900
C 	C 	0.06774 0.83445 0.06686 -0.00700
C 	C 	0.04592 0.81641 0.02982 -0.04600
C 	C 	0.01772 0.83216 0.00555 0.02200
C 	C 	0.01111 0.86552 0.01914 -0.08000
C 	C 	0.97526 0.90301 0.13914 -0.06400
C 	C 	0.94448 0.91753 0.14792 -0.06400
C 	C 	0.82646 0.94307 0.09383 -0.00700
C 	C 	0.91449 0.05656 0.06824 -0.06100
C 	C 	0.00169 0.06795 0.13053 0.10000
C 	C 	0.08153 0.97861 0.00924 -0.03800
C 	C 	0.07161 0.99306 0.06291 0.07800
C 	C 	0.13653 0.03614 0.09185 -0.03800
H 	H 	0.98131 0.97088 0.06261 0.09300
H 	H 	0.00706 0.02894 0.06697 0.09300
H 	H 	0.08970 0.82258 0.08543 0.03400
H 	H 	0.00073 0.81844 0.97691 0.00300
H 	H 	0.07775 0.88125 0.11012 0.05100
H 	H 	0.98918 0.87744 0.00058 0.05300
H 	H 	0.85617 0.90533 0.96695 0.00500
H 	H 	0.85611 0.97078 0.15707 0.05000
H 	H 	0.80346 0.94762 0.11796 0.03400
H 	H 	0.90886 0.92842 0.00619 0.05300
H 	H 	0.97543 0.17755 0.00585 0.04400
H 	H 	0.99268 0.11969 0.02794 0.04600
C 	C 	0.93664 0.13025 0.14202 -0.05300
H 	H 	0.90828 0.17483 0.15755 0.04200
H 	H 	0.18965 0.04174 0.09641 0.04000
H 	H 	0.13579 0.01786 0.12794 0.04200
H 	H 	0.08574 0.07683 0.99271 0.00600
H 	H 	0.13971 0.10072 0.96090 0.04700
H 	H 	0.97978 0.87643 0.13976 0.04800
H 	H 	0.92170 0.90377 0.15563 0.04800
H 	H 	0.88552 0.01662 0.02755 0.05000
H 	H 	0.91272 0.07522 0.03296 0.04800
H 	H 	0.07888 0.08815 0.14805 0.04800
H 	H 	0.02087 0.11445 0.16894 0.04900
H 	H 	0.06258 0.93311 0.96802 0.02300
H 	H 	0.08928 0.99223 0.96936 0.02200
H 	H 	0.92552 0.11703 0.17969 0.04500
C 	C 	0.90335 0.27687 0.03364 -0.06800
C 	C 	0.93156 0.27329 0.07040 -0.00300
C 	C 	0.94354 0.24161 0.08495 -0.03900
C 	C 	0.92755 0.21308 0.06288 -0.02600
C 	C 	0.89907 0.21647 0.02554 0.07000
C 	C 	0.88714 0.24847 0.01149 -0.01400
H 	H 	0.96525 0.23920 0.11364 0.04100
H 	H 	0.86547 0.25122 0.98272 0.02900
H 	H 	0.94412 0.29506 0.08812 0.04400
N 	N 	0.88322 0.18926 0.00291 -0.18000
H 	H 	0.89169 0.16514 0.01159 0.08900
H 	H 	0.86213 0.19207 0.97575 0.06500
C 	C 	0.88706 0.40819 0.83334 -0.11200
C 	C 	0.89460 0.44040 0.81131 0.09300
C 	C 	0.91533 0.44399 0.76062 -0.09100
C 	C 	0.92930 0.41591 0.73288 0.00500
C 	C 	0.91859 0.38394 0.75019 0.03600
C 	C 	0.89736 0.38021 0.80021 -0.01500
H 	H 	0.92231 0.46872 0.74540 0.04900
H 	H 	0.89019 0.35544 0.81485 0.04400
N 	N 	0.88273 0.46949 0.84244 -0.15700
N 	N 	0.93095 0.35505 0.71909 -0.13500
C 	C 	0.85452 0.48425 0.81031 -0.09100
H 	H 	0.86221 0.49351 0.76499 0.04200
H 	H 	0.84481 0.50561 0.83672 0.02500
H 	H 	0.83409 0.46577 0.80537 0.05100
C 	C 	0.90593 0.34223 0.67717 -0.09100
H 	H 	0.88360 0.33325 0.70201 0.04600
H 	H 	0.91662 0.32102 0.65161 0.04700
H 	H 	0.89857 0.36179 0.64409 0.05200
H 	H 	0.90185 0.48699 0.84729 0.05200
H 	H 	0.93791 0.33653 0.75002 0.07500
C 	C 	0.94631 0.40144 0.25257 0.00300
C 	C 	0.93858 0.37223 0.21986 0.03900
C 	C 	0.91617 0.37389 0.17148 -0.01000
C 	C 	0.90217 0.40446 0.15395 -0.10900
C 	C 	0.90886 0.43332 0.18797 0.10300
C 	C 	0.93017 0.43139 0.23819 -0.08900
H 	H 	0.91055 0.35150 0.14626 0.05300
H 	H 	0.93537 0.45361 0.26427 0.05300
N 	N 	0.95378 0.34076 0.23469 -0.13600
N 	N 	0.89346 0.46451 0.17202 -0.15000
C 	C 	0.93592 0.32419 0.28389 -0.09200
H 	H 	0.93695 0.33919 0.32595 0.05000
H 	H 	0.94759 0.29962 0.29300 0.04800
H 	H 	0.90954 0.31983 0.27101 0.05300
C 	C 	0.91777 0.48759 0.14585 -0.09000
H 	H 	0.93614 0.49568 0.18039 0.04000
H 	H 	0.90459 0.51000 0.12870 0.02800
H 	H 	0.93103 0.47592 0.10722 0.04500
H 	H 	0.97910 0.34319 0.24465 0.08000
H 	H 	0.88225 0.47514 0.21005 0.07200
C 	C 	0.05189 0.78070 0.01866 0.10800
C 	C 	0.05243 0.75823 0.06718 -0.12100
C 	C 	0.05965 0.72470 0.05743 0.08800
C 	C 	0.06631 0.71306 0.99897 -0.18600
C 	C 	0.06564 0.73559 0.94946 0.16600
C 	C 	0.05815 0.76933 0.95986 -0.17300
H 	H 	0.05999 0.70762 0.09545 0.01600
H 	H 	0.05786 0.78681 0.92240 0.06600
H 	H 	0.04737 0.76682 0.11263 0.06000
N 	N 	0.07288 0.72526 0.89244 -0.21400
H 	H 	0.08020 0.70082 0.88357 0.09600
H 	H 	0.07184 0.74200 0.85621 0.08200
C 	C 	0.05975 0.55458 0.72569 0.00800
C 	C 	0.04257 0.58319 0.74480 0.03200
C 	C 	0.05312 0.60009 0.79692 -0.01500
C 	C 	0.07991 0.58790 0.83094 -0.12100
C 	C 	0.09937 0.56148 0.80767 0.10600
C 	C 	0.08925 0.54524 0.75489 -0.09100
H 	H 	0.03893 0.62119 0.81326 0.02300
H 	H 	0.10315 0.52386 0.73895 0.05900
N 	N 	0.01347 0.59423 0.71256 -0.13600
N 	N 	0.12876 0.55004 0.83849 -0.14800
C 	C 	0.98310 0.58380 0.74384 -0.08700
H 	H 	0.98252 0.55628 0.74953 0.04400
H 	H 	0.96117 0.59115 0.71639 0.04100
H 	H 	0.98111 0.59598 0.78876 0.03000
C 	C 	0.15737 0.57121 0.82442 -0.08900
H 	H 	0.16209 0.57153 0.77492 0.05100
H 	H 	0.17983 0.56099 0.84703 0.05700
H 	H 	0.15336 0.59706 0.84066 0.06100
H 	H 	0.01383 0.62016 0.70739 0.07200
H 	H 	0.12500 0.54770 0.88502 0.09000
C 	C 	0.07742 0.57670 0.15225 -0.10900
C 	C 	0.04727 0.55954 0.16246 0.09700
C 	C 	0.04502 0.53648 0.21012 -0.08900
C 	C 	0.07262 0.53007 0.24718 0.00600
C 	C 	0.10203 0.54859 0.23930 0.03800
C 	C 	0.10433 0.57173 0.19170 -0.01300
H 	H 	0.02204 0.52287 0.21713 0.05000
H 	H 	0.12738 0.58520 0.18462 0.04800
N 	N 	0.01959 0.56403 0.12198 -0.16300
N 	N 	0.13023 0.54264 0.27792 -0.13500
C 	C 	0.99361 0.58425 0.15016 -0.09400
H 	H 	0.98251 0.57103 0.18954 0.04300
H 	H 	0.97362 0.58909 0.11667 0.02200
H 	H 	0.00381 0.60867 0.16485 0.04900
C 	C 	0.13452 0.56993 0.32091 -0.09200
H 	H 	0.14156 0.59334 0.29713 0.04800
H 	H 	0.15468 0.56341 0.35313 0.05000
H 	H 	0.11135 0.57401 0.34730 0.05300
H 	H 	0.00996 0.54091 0.10890 0.06200
H 	H 	0.15181 0.53956 0.25206 0.08000
C 	C 	0.79433 0.91486 0.01255 0.10900
C 	C 	0.77603 0.88869 0.03807 -0.12000
C 	C 	0.74466 0.88060 0.01522 0.09300
C 	C 	0.73111 0.89871 0.96666 -0.18200
C 	C 	0.75029 0.92415 0.93881 0.16800
C 	C 	0.78162 0.93230 0.96272 -0.17300
H 	H 	0.73036 0.86099 0.03668 0.02400
H 	H 	0.79606 0.95226 0.94258 0.06700
H 	H 	0.78584 0.87502 0.07641 0.06200
N 	N 	0.73916 0.94023 0.88859 -0.21300
H 	H 	0.71774 0.93249 0.86620 0.09200
H 	H 	0.75285 0.95982 0.86979 0.08300
C 	C 	0.58504 0.96937 0.71196 0.01000
C 	C 	0.55802 0.95330 0.74013 0.03100
C 	C 	0.56378 0.93200 0.78953 -0.00900
C 	C 	0.59613 0.92724 0.81182 -0.12300
C 	C 	0.62341 0.94134 0.78019 0.10900
C 	C 	0.61754 0.96262 0.73106 -0.09300
H 	H 	0.54294 0.91992 0.81166 0.01200
H 	H 	0.63839 0.97416 0.70802 0.05800
N 	N 	0.52484 0.95763 0.71688 -0.13500
N 	N 	0.65719 0.93408 0.79715 -0.14900
C 	C 	0.50448 0.97778 0.75768 -0.08600
H 	H 	0.49991 0.96440 0.80095 0.02900
H 	H 	0.48009 0.98278 0.73599 0.04100
H 	H 	0.51657 0.00211 0.76700 0.04400
C 	C 	0.66895 0.90367 0.76774 -0.09000
H 	H 	0.65282 0.88204 0.77897 0.06200
H 	H 	0.69462 0.89802 0.78313 0.04600
H 	H 	0.66956 0.90719 0.71791 0.05000
H 	H 	0.51367 0.93442 0.70976 0.07200
H 	H 	0.66029 0.93311 0.84393 0.08900
C 	C 	0.57200 0.94096 0.22942 0.00200
C 	C 	0.59483 0.95458 0.18752 0.03600
C 	C 	0.60486 0.93573 0.13771 -0.01700
C 	C 	0.59213 0.90359 0.12866 -0.11800
C 	C 	0.57171 0.88892 0.17321 0.10300
C 	C 	0.56226 0.90759 0.22404 -0.09200
H 	H 	0.62136 0.94674 0.10445 0.04900
H 	H 	0.54596 0.89663 0.25767 0.05300
N 	N 	0.60747 0.98793 0.19441 -0.13600
N 	N 	0.56140 0.85473 0.16756 -0.13900
C 	C 	0.63451 0.98885 0.23860 -0.09100
H 	H 	0.62551 0.98159 0.28425 0.05100
H 	H 	0.64458 0.01456 0.24109 0.04900
H 	H 	0.65505 0.97200 0.22463 0.05500
C 	C 	0.52577 0.85231 0.15449 -0.08200
H 	H 	0.51077 0.85965 0.19450 0.03900
H 	H 	0.51960 0.82614 0.14298 0.04900
H 	H 	0.51890 0.86825 0.11525 0.03500
H 	H 	0.58870 0.00491 0.20541 0.07700
H 	H 	0.56713 0.84155 0.20710 0.07900
C 	C 	0.20090 0.08441 0.00383 0.08400
C 	C 	0.22157 0.10348 0.04118 -0.11000
C 	C 	0.25455 0.10949 0.02464 0.08800
C 	C 	0.26732 0.09633 0.97079 -0.18600
C 	C 	0.24581 0.07945 0.93051 0.16400
C 	C 	0.21268 0.07342 0.94768 -0.16200
H 	H 	0.27074 0.12284 0.05533 0.01400
H 	H 	0.19644 0.05926 0.91824 0.06400
H 	H 	0.21246 0.11246 0.08423 0.05800
N 	N 	0.25685 0.06881 0.87577 -0.21500
H 	H 	0.28077 0.07448 0.86048 0.09100
H 	H 	0.24110 0.05550 0.84703 0.08000
C 	C 	0.45068 0.09157 0.70529 0.00700
C 	C 	0.43491 0.12216 0.71690 0.03600
C 	C 	0.41187 0.12458 0.76445 -0.01200
C 	C 	0.40494 0.09683 0.80110 -0.11400
C 	C 	0.42010 0.06594 0.78827 0.09800
C 	C 	0.44238 0.06338 0.73965 -0.09100
H 	H 	0.40002 0.14827 0.77371 0.04300
H 	H 	0.45398 0.03965 0.72984 0.05000
N 	N 	0.44289 0.15104 0.68102 -0.13500
N 	N 	0.41378 0.03742 0.82617 -0.16600
C 	C 	0.46701 0.17212 0.71235 -0.09200
H 	H 	0.45635 0.18203 0.75507 0.04800
H 	H 	0.47370 0.19350 0.68283 0.04900
H 	H 	0.49013 0.15793 0.72232 0.05200
C 	C 	0.44074 0.03278 0.86983 -0.09800
H 	H 	0.46461 0.02730 0.84646 0.03900
H 	H 	0.43466 0.01145 0.89990 0.00500
H 	H 	0.44361 0.05531 0.89847 0.02400
H 	H 	0.42134 0.16461 0.67098 0.07600
H 	H 	0.41087 0.01597 0.79988 0.06400
C 	C 	0.38882 0.08407 0.12266 -0.11300
C 	C 	0.37246 0.05797 0.15380 0.09800
C 	C 	0.38551 0.04624 0.20852 -0.08900
C 	C 	0.41475 0.05994 0.23229 0.00700
C 	C 	0.42930 0.08792 0.20405 0.03700
C 	C 	0.41580 0.10022 0.14983 -0.01200
H 	H 	0.37388 0.02517 0.23086 0.05500
H 	H 	0.42750 0.12116 0.12724 0.04500
N 	N 	0.34309 0.04249 0.12936 -0.14400
N 	N 	0.45819 0.10346 0.23011 -0.13400
C 	C 	0.31352 0.06283 0.14042 -0.09400
H 	H 	0.30976 0.06637 0.18976 0.05200
H 	H 	0.29131 0.04991 0.12207 0.05300
H 	H 	0.31561 0.08749 0.11783 0.06500
C 	C 	0.48828 0.09517 0.19607 -0.09200
H 	H 	0.49124 0.06775 0.19195 0.05200
H 	H 	0.51031 0.10498 0.22046 0.05100
H 	H 	0.48763 0.10664 0.15028 0.05000
H 	H 	0.34574 0.03695 0.08348 0.05800
H 	H 	0.45498 0.12932 0.23176 0.07900
C 	C 	0.40311 0.22597 0.98823 -0.04500
C 	C 	0.43608 0.23154 0.96990 -0.02100
C 	C 	0.44717 0.26383 0.95773 -0.02800
C 	C 	0.42561 0.29104 0.96427 -0.04700
C 	C 	0.39301 0.28585 0.98691 0.09400
C 	C 	0.38187 0.25318 0.99776 -0.08800
H 	H 	0.47228 0.26763 0.94128 0.03300
H 	H 	0.35668 0.24899 0.01361 0.08000
H 	H 	0.45284 0.21076 0.96310 0.04300
N 	N 	0.37256 0.31201 0.99892 -0.21300
H 	H 	0.38092 0.33658 0.99566 0.08500
H 	H 	0.34822 0.30791 0.01378 0.10300
C 	C 	0.21421 0.59181 0.96561 -0.06400
C 	C 	0.23557 0.61780 0.94853 -0.01100
C 	C 	0.26840 0.61100 0.93195 -0.03800
C 	C 	0.28041 0.57819 0.93286 -0.03300
C 	C 	0.25926 0.55192 0.95201 0.07700
C 	C 	0.22608 0.55897 0.96714 -0.05100
H 	H 	0.28447 0.63122 0.91772 0.03600
H 	H 	0.20966 0.53893 0.98104 0.04900
H 	H 	0.22661 0.64324 0.94710 0.03900
N 	N 	0.27075 0.52013 0.95688 -0.19600
H 	H 	0.29579 0.51437 0.95008 0.08500
H 	H 	0.25470 0.50083 0.96944 0.08000
C 	C 	0.76117 0.40780 0.00446 -0.02900
C 	C 	0.74330 0.38791 0.96367 -0.05000
C 	C 	0.71017 0.39527 0.95022 -0.01200
C 	C 	0.69440 0.42257 0.97726 -0.07900
C 	C 	0.71132 0.44104 0.02223 0.11800
C 	C 	0.74466 0.43343 0.03550 -0.07100
H 	H 	0.69717 0.38066 0.91658 0.03000
H 	H 	0.75788 0.44794 0.06903 0.05300
H 	H 	0.75540 0.36749 0.94054 0.05100
N 	N 	0.69587 0.46617 0.05232 -0.20200
H 	H 	0.67076 0.47158 0.04527 0.09500
H 	H 	0.70881 0.48020 0.08435 0.08300
C 	C 	0.55327 0.72257 0.90846 0.05700
C 	C 	0.58603 0.73260 0.89640 -0.09300
C 	C 	0.59585 0.76546 0.90679 0.04700
C 	C 	0.57327 0.78861 0.93063 -0.14600
C 	C 	0.54061 0.77817 0.94604 0.14200
C 	C 	0.53050 0.74555 0.93231 -0.12600
H 	H 	0.62100 0.77304 0.89577 0.02200
H 	H 	0.50521 0.73779 0.94189 0.05700
H 	H 	0.60393 0.71491 0.87886 0.05100
N 	N 	0.51953 0.79867 0.97646 -0.20600
H 	H 	0.52777 0.82097 0.99538 0.05500
H 	H 	0.49501 0.79134 0.98489 0.06900
