data_crystal

_cell_length_a 20.60460
_cell_length_b 27.46912
_cell_length_c 27.41297
_cell_angle_alpha 88.01772
_cell_angle_beta  91.28987
_cell_angle_gamma 89.43055

_symmetry_space_group_name_	'P 1'
_symmetry_space_group_name_H-M	'P 1'

loop_
_symmetry_equiv_pos_as_xyz
  x,y,z

loop_
_atom_site_label
_atom_site_type_symbol
_atom_site_fract_x
_atom_site_fract_y
_atom_site_fract_z
_atom_site_charge
Zn	Zn	0.00347 0.07534 0.95266 1.21700
Zn	Zn	0.98939 0.06525 0.06424 1.21900
Zn	Zn	0.01245 0.96274 0.95565 1.22600
P 	P 	0.90253 0.01666 0.99425 0.31700
P 	P 	0.10001 0.02501 0.01181 0.33100
C 	C 	0.99037 0.86565 0.97934 0.24500
C 	C 	0.01326 0.02435 0.86478 0.34500
C 	C 	0.98523 0.15998 0.00738 0.31700
O 	O 	0.91439 0.06974 0.97254 -0.41200
O 	O 	0.09062 0.04942 0.95916 -0.41300
O 	O 	0.94388 0.00766 0.04370 -0.41900
O 	O 	0.05642 0.97756 0.01662 -0.40500
O 	O 	0.92073 0.97731 0.95519 -0.39100
O 	O 	0.08156 0.06343 0.05181 -0.37200
O 	O 	0.01456 0.89370 0.94454 -0.35500
O 	O 	0.05385 0.00470 0.14005 -0.20500
O 	O 	0.96176 0.88558 0.01616 -0.19600
O 	O 	0.04636 0.99151 0.89220 -0.39400
O 	O 	0.95475 0.13141 0.03936 -0.38800
O 	O 	0.98826 0.06336 0.88406 -0.42500
O 	O 	0.02040 0.14117 0.97310 -0.39400
C 	C 	0.01652 0.03632 0.16121 0.31500
O 	O 	0.98697 0.07104 0.13452 -0.38800
Zn	Zn	0.95244 0.04022 0.45027 1.20200
Zn	Zn	0.96915 0.93050 0.45608 1.21700
Zn	Zn	0.95481 0.03846 0.56057 1.22200
P 	P 	0.05919 0.99508 0.50650 0.32800
P 	P 	0.86211 0.98250 0.50177 0.32600
C 	C 	0.97757 0.01345 0.65794 0.31300
C 	C 	0.94253 0.12942 0.49728 0.32500
C 	C 	0.96767 0.99049 0.36295 0.33600
O 	O 	0.04273 0.01808 0.45397 -0.40700
O 	O 	0.86624 0.03566 0.47844 -0.40600
O 	O 	0.01716 0.94732 0.51492 -0.39000
O 	O 	0.91194 0.97747 0.54687 -0.40200
O 	O 	0.04574 0.03523 0.54587 -0.36900
O 	O 	0.87765 0.94486 0.46034 -0.40800
O 	O 	0.95823 0.05030 0.62924 -0.36800
O 	O 	0.90986 0.85421 0.51472 -0.21700
O 	O 	0.99112 0.97134 0.63914 -0.20000
O 	O 	0.91698 0.10338 0.53360 -0.38600
O 	O 	0.99979 0.95666 0.38987 -0.40300
O 	O 	0.97009 0.10783 0.46101 -0.41100
O 	O 	0.93060 0.02253 0.38381 -0.41900
C 	C 	0.94090 0.83380 0.47931 0.30600
O 	O 	0.96929 0.86133 0.44606 -0.38200
Zn	Zn	0.00074 0.57039 0.94768 1.21500
Zn	Zn	0.99204 0.45915 0.95304 1.21500
Zn	Zn	0.00840 0.56424 0.05934 1.22800
P 	P 	0.10029 0.51235 0.99870 0.31800
P 	P 	0.90022 0.52337 0.00131 0.33300
C 	C 	0.04826 0.53885 0.15573 0.29400
C 	C 	0.00935 0.65769 0.99899 0.34200
C 	C 	0.99347 0.51779 0.86033 0.30900
O 	O 	0.08479 0.53781 0.94712 -0.41800
O 	O 	0.91628 0.57503 0.97798 -0.40000
O 	O 	0.04941 0.46992 0.00872 -0.37800
O 	O 	0.95119 0.51055 0.04460 -0.42700
O 	O 	0.09693 0.55239 0.03954 -0.37600
O 	O 	0.90466 0.48427 0.95977 -0.40400
O 	O 	0.01626 0.57258 0.12936 -0.35800
O 	O 	0.91282 0.38907 0.00809 -0.21000
O 	O 	0.08877 0.50968 0.13443 -0.18300
O 	O 	0.98150 0.63295 0.03525 -0.41200
O 	O 	0.02230 0.48199 0.88655 -0.38300
O 	O 	0.03230 0.63494 0.96152 -0.39700
O 	O 	0.97123 0.55676 0.88143 -0.39600
C 	C 	0.94668 0.36576 0.97610 0.30100
O 	O 	0.97887 0.39065 0.94284 -0.38100
Zn	Zn	0.97522 0.53760 0.44238 1.20000
Zn	Zn	0.98036 0.42706 0.44751 1.21700
Zn	Zn	0.96640 0.53363 0.55336 1.21800
P 	P 	0.07323 0.48864 0.50150 0.32800
P 	P 	0.87590 0.48157 0.49112 0.32200
C 	C 	0.98931 0.51088 0.65153 0.28300
C 	C 	0.96253 0.62536 0.49261 0.33300
C 	C 	0.98768 0.48860 0.35452 0.27200
O 	O 	0.06387 0.51144 0.44808 -0.38700
O 	O 	0.88706 0.53360 0.46646 -0.42200
O 	O 	0.02783 0.44226 0.50751 -0.38200
O 	O 	0.92282 0.47407 0.53765 -0.41800
O 	O 	0.05710 0.52971 0.53947 -0.39800
O 	O 	0.88840 0.44163 0.45137 -0.37700
O 	O 	0.96657 0.54596 0.62198 -0.39000
O 	O 	0.05509 0.34112 0.49572 -0.17100
O 	O 	0.01463 0.47155 0.63335 -0.17300
O 	O 	0.93149 0.59839 0.52546 -0.40300
O 	O 	0.01476 0.45275 0.38192 -0.34400
O 	O 	0.99390 0.60480 0.45738 -0.42500
O 	O 	0.95526 0.52361 0.37484 -0.41000
C 	C 	0.00372 0.32802 0.47039 0.34800
O 	O 	0.97852 0.35808 0.43654 -0.39900
Zn	Zn	0.51016 0.92028 0.08132 1.20600
Zn	Zn	0.49060 0.93614 0.97125 1.22200
Zn	Zn	0.51317 0.03260 0.08577 1.22300
P 	P 	0.40420 0.98025 0.04238 0.32900
P 	P 	0.60152 0.97609 0.02548 0.32900
C 	C 	0.55402 0.13005 0.08091 0.29900
C 	C 	0.52598 0.96499 0.17230 0.33700
C 	C 	0.49214 0.83837 0.02332 0.34000
O 	O 	0.41855 0.92631 0.06195 -0.40300
O 	O 	0.59677 0.94678 0.07583 -0.39700
O 	O 	0.44537 0.99217 0.99506 -0.43400
O 	O 	0.55368 0.02210 0.02396 -0.40900
O 	O 	0.42202 0.01674 0.08468 -0.40700
O 	O 	0.58400 0.94019 0.98243 -0.39100
O 	O 	0.51375 0.10031 0.10315 -0.38600
O 	O 	0.54452 0.99979 0.89557 -0.21500
O 	O 	0.61027 0.11338 0.06677 -0.17700
O 	O 	0.55409 0.00021 0.14654 -0.38700
O 	O 	0.45956 0.86852 0.99260 -0.38500
O 	O 	0.49961 0.92775 0.15075 -0.41300
O 	O 	0.52856 0.85555 0.05858 -0.41700
C 	C 	0.50550 0.96891 0.87449 0.29900
O 	O 	0.48026 0.93334 0.90104 -0.35600
Zn	Zn	0.47375 0.02818 0.46162 1.20900
Zn	Zn	0.45177 0.02800 0.57214 1.21900
Zn	Zn	0.47804 0.91595 0.47411 1.22900
P 	P 	0.36704 0.97600 0.50235 0.33000
P 	P 	0.56375 0.98080 0.52789 0.33200
C 	C 	0.43955 0.82256 0.50226 0.30100
C 	C 	0.49068 0.97033 0.37858 0.32700
C 	C 	0.45910 0.11819 0.50923 0.32900
O 	O 	0.38284 0.02721 0.47773 -0.40500
O 	O 	0.55909 0.00021 0.47318 -0.42500
O 	O 	0.40332 0.97038 0.55435 -0.42000
O 	O 	0.51716 0.93537 0.53532 -0.40100
O 	O 	0.38809 0.93357 0.46759 -0.37800
O 	O 	0.54441 0.02391 0.56234 -0.40200
O 	O 	0.47521 0.84577 0.46982 -0.35500
O 	O 	0.52133 0.97524 0.64933 -0.21100
O 	O 	0.40369 0.84754 0.53170 -0.20700
O 	O 	0.51829 0.93788 0.40990 -0.38800
O 	O 	0.42357 0.09356 0.54142 -0.39100
O 	O 	0.46353 0.01041 0.39417 -0.39300
O 	O 	0.49329 0.09528 0.47691 -0.41400
C 	C 	0.48175 0.00583 0.66977 0.29400
O 	O 	0.44828 0.03762 0.64192 -0.36600
Zn	Zn	0.50452 0.42523 0.08780 1.20900
Zn	Zn	0.49984 0.53679 0.07370 1.22100
Zn	Zn	0.50474 0.42258 0.97600 1.21800
P 	P 	0.60262 0.47543 0.03287 0.33100
P 	P 	0.40244 0.47240 0.03049 0.33100
C 	C 	0.52793 0.44677 0.87821 0.30500
C 	C 	0.50690 0.33367 0.04272 0.33000
C 	C 	0.50188 0.48472 0.17071 0.33000
O 	O 	0.58890 0.45537 0.08628 -0.41300
O 	O 	0.41803 0.42231 0.05860 -0.41900
O 	O 	0.55367 0.51948 0.01920 -0.41700
O 	O 	0.45081 0.47928 0.98633 -0.41800
O 	O 	0.59489 0.43247 0.99527 -0.38600
O 	O 	0.41045 0.51566 0.06750 -0.37800
O 	O 	0.50706 0.41078 0.90658 -0.37200
O 	O 	0.43866 0.60656 0.00470 -0.19600
O 	O 	0.56130 0.48193 0.89773 -0.21200
O 	O 	0.47724 0.35641 0.00470 -0.39700
O 	O 	0.53171 0.51720 0.14239 -0.40500
O 	O 	0.53308 0.35863 0.07813 -0.39500
O 	O 	0.47982 0.44402 0.15277 -0.39500
C 	C 	0.46331 0.63078 0.04106 0.29800
O 	O 	0.49085 0.60669 0.07853 -0.36900
Zn	Zn	0.47117 0.53350 0.46958 1.21100
Zn	Zn	0.46024 0.51845 0.58232 1.22600
Zn	Zn	0.49107 0.42200 0.46859 1.22200
P 	P 	0.37729 0.47071 0.50935 0.33000
P 	P 	0.57351 0.48599 0.52802 0.32700
C 	C 	0.45439 0.32617 0.48569 0.29800
C 	C 	0.49415 0.48634 0.37972 0.32700
C 	C 	0.45546 0.61578 0.52806 0.32700
O 	O 	0.38361 0.52574 0.49214 -0.40500
O 	O 	0.56011 0.51318 0.47706 -0.41700
O 	O 	0.42114 0.46006 0.55717 -0.40600
O 	O 	0.53739 0.43479 0.52958 -0.41200
O 	O 	0.39937 0.43758 0.46609 -0.40900
O 	O 	0.55209 0.51892 0.57194 -0.38400
O 	O 	0.48934 0.35316 0.45575 -0.37100
O 	O 	0.41261 0.44604 0.65648 -0.19100
O 	O 	0.41998 0.34717 0.51893 -0.21400
O 	O 	0.52650 0.45258 0.40660 -0.39100
O 	O 	0.42505 0.58546 0.55858 -0.37000
O 	O 	0.45821 0.51959 0.40041 -0.40900
O 	O 	0.48474 0.59949 0.48961 -0.40200
C 	C 	0.44000 0.48228 0.67882 0.30300
O 	O 	0.45564 0.52194 0.65334 -0.35100
C 	C 	0.50194 0.45378 0.82781 -0.06700
C 	C 	0.51899 0.42159 0.79129 0.18600
C 	C 	0.50013 0.43205 0.74258 -0.04100
C 	C 	0.46398 0.47446 0.72975 -0.06500
C 	C 	0.44626 0.50639 0.76638 0.18800
C 	C 	0.46543 0.49602 0.81508 -0.04000
H 	H 	0.51357 0.40713 0.71462 0.09900
H 	H 	0.45219 0.52099 0.84306 0.10900
Cl	Cl	0.56537 0.36863 0.80579 -0.25600
Cl	Cl	0.39831 0.55863 0.75219 -0.23800
C 	C 	0.49709 0.48657 0.32616 -0.07900
C 	C 	0.55695 0.48951 0.30235 0.18800
C 	C 	0.55807 0.49162 0.25122 -0.03600
C 	C 	0.49992 0.49105 0.22362 -0.07800
C 	C 	0.44017 0.49003 0.24749 0.18900
C 	C 	0.43902 0.48756 0.29845 -0.03700
H 	H 	0.60420 0.49258 0.23298 0.09800
H 	H 	0.39282 0.48644 0.31660 0.09900
Cl	Cl	0.63068 0.49214 0.33596 -0.26500
Cl	Cl	0.36623 0.49264 0.21384 -0.26300
C 	C 	0.44401 0.76933 0.50903 -0.06200
C 	C 	0.49969 0.74720 0.53113 0.18600
C 	C 	0.50064 0.69705 0.54210 -0.03400
C 	C 	0.44642 0.66856 0.53131 -0.07200
C 	C 	0.38953 0.69116 0.51172 0.19100
C 	C 	0.38862 0.74129 0.50055 -0.04100
H 	H 	0.54459 0.67986 0.55719 0.10500
H 	H 	0.34474 0.75848 0.48535 0.10200
Cl	Cl	0.56812 0.78197 0.54630 -0.24400
Cl	Cl	0.31978 0.65670 0.49928 -0.25600
C 	C 	0.45805 0.27274 0.48555 -0.06500
C 	C 	0.51516 0.24804 0.50175 0.18400
C 	C 	0.51402 0.19779 0.51204 -0.03300
C 	C 	0.45632 0.17167 0.50628 -0.07900
C 	C 	0.39944 0.19622 0.48938 0.19100
C 	C 	0.40056 0.24649 0.47913 -0.04100
H 	H 	0.55831 0.17888 0.52400 0.09600
H 	H 	0.35623 0.26540 0.46726 0.09900
Cl	Cl	0.58802 0.27986 0.51099 -0.26800
Cl	Cl	0.32677 0.16429 0.47974 -0.25800
C 	C 	0.47712 0.78613 0.02489 -0.06900
C 	C 	0.49574 0.75626 0.98687 0.18600
C 	C 	0.49142 0.70555 0.99268 -0.04900
C 	C 	0.46841 0.68422 0.03623 -0.05500
C 	C 	0.44740 0.71423 0.07350 0.18300
C 	C 	0.45195 0.76491 0.06770 -0.03000
H 	H 	0.50672 0.68267 0.96353 0.10400
H 	H 	0.43688 0.78785 0.09688 0.09400
Cl	Cl	0.52657 0.78175 0.93239 -0.25400
Cl	Cl	0.41339 0.68906 0.12699 -0.25700
C 	C 	0.53382 0.18084 0.06818 -0.06600
C 	C 	0.54582 0.20208 0.02156 0.18400
C 	C 	0.53248 0.25171 0.01211 -0.02300
C 	C 	0.50544 0.28010 0.04814 -0.07900
C 	C 	0.48685 0.25754 0.09262 0.19300
C 	C 	0.50202 0.20837 0.10273 -0.04200
H 	H 	0.54492 0.26844 0.97721 0.08900
H 	H 	0.48985 0.19179 0.13775 0.10100
Cl	Cl	0.57412 0.16664 0.97387 -0.26200
Cl	Cl	0.44327 0.29025 0.13559 -0.27400
C 	C 	0.48368 0.97856 0.82313 -0.06100
C 	C 	0.47240 0.94022 0.79115 0.18500
C 	C 	0.46238 0.95063 0.74119 -0.03900
C 	C 	0.46774 0.99852 0.72205 -0.06200
C 	C 	0.47368 0.03707 0.75428 0.18600
C 	C 	0.48042 0.02700 0.80460 -0.04300
H 	H 	0.45548 0.92090 0.71664 0.10200
H 	H 	0.48612 0.05686 0.82912 0.10500
Cl	Cl	0.47598 0.87878 0.81198 -0.23600
Cl	Cl	0.47681 0.09795 0.73214 -0.25200
C 	C 	0.51933 0.96913 0.22485 -0.08400
C 	C 	0.57004 0.95445 0.25749 0.19200
C 	C 	0.55955 0.95269 0.30781 -0.04000
C 	C 	0.49868 0.96561 0.32576 -0.07400
C 	C 	0.44788 0.97969 0.29267 0.18400
C 	C 	0.45875 0.98180 0.24269 -0.03600
H 	H 	0.59910 0.94240 0.33293 0.10300
H 	H 	0.41935 0.99224 0.21746 0.08800
Cl	Cl	0.64680 0.93813 0.23580 -0.24800
Cl	Cl	0.36962 0.99340 0.31299 -0.23700
C 	C 	0.79378 0.47939 0.51199 -0.03000
C 	C 	0.75845 0.43558 0.51410 0.18300
C 	C 	0.69172 0.43700 0.52323 -0.05400
C 	C 	0.66066 0.48145 0.53187 -0.03000
C 	C 	0.69793 0.52430 0.53443 0.18600
C 	C 	0.76404 0.52272 0.52520 -0.05700
H 	H 	0.66393 0.40375 0.52245 0.10300
H 	H 	0.79194 0.55590 0.52652 0.10800
Cl	Cl	0.79719 0.37863 0.50852 -0.25500
Cl	Cl	0.66196 0.58129 0.54566 -0.25900
C 	C 	0.15686 0.47077 0.51250 -0.02300
C 	C 	0.18937 0.44045 0.48042 0.18400
C 	C 	0.25670 0.43420 0.48506 -0.04700
C 	C 	0.29253 0.46014 0.51958 -0.02800
C 	C 	0.25928 0.48667 0.55445 0.18500
C 	C 	0.19168 0.49087 0.55140 -0.04800
H 	H 	0.28153 0.41171 0.45955 0.10800
H 	H 	0.16662 0.51170 0.57815 0.11100
Cl	Cl	0.14731 0.41130 0.43325 -0.27700
Cl	Cl	0.30146 0.51693 0.60082 -0.29300
C 	C 	0.81821 0.51960 0.02359 -0.02500
C 	C 	0.76845 0.55198 0.00585 0.17500
C 	C 	0.70311 0.53888 0.01021 -0.04400
C 	C 	0.68657 0.49413 0.03237 -0.03600
C 	C 	0.73614 0.46331 0.05271 0.18400
C 	C 	0.80108 0.47721 0.04988 -0.05300
H 	H 	0.66533 0.56345 0.99586 0.09100
H 	H 	0.83876 0.45287 0.06482 0.11600
Cl	Cl	0.78602 0.61045 0.98172 -0.25000
Cl	Cl	0.71860 0.40542 0.07868 -0.25800
C 	C 	0.18317 0.48968 0.99850 -0.03800
C 	C 	0.20661 0.45552 0.03444 0.18900
C 	C 	0.27348 0.44662 0.03995 -0.05300
C 	C 	0.31787 0.47234 0.01098 -0.02100
C 	C 	0.29417 0.50406 0.97293 0.16600
C 	C 	0.22720 0.51208 0.96665 -0.04800
H 	H 	0.29109 0.42159 0.06878 0.11600
H 	H 	0.20967 0.53765 0.93829 0.11100
Cl	Cl	0.15366 0.42445 0.07396 -0.23000
Cl	Cl	0.34707 0.53472 0.93301 -0.26500
C 	C 	0.99235 0.51646 0.80690 -0.09600
C 	C 	0.02348 0.55272 0.77862 0.21000
C 	C 	0.01954 0.55199 0.72765 -0.02100
C 	C 	0.98563 0.51493 0.70459 -0.08200
C 	C 	0.95365 0.47916 0.73289 0.18200
C 	C 	0.95761 0.47986 0.78382 -0.03300
H 	H 	0.04461 0.57936 0.70599 0.10000
H 	H 	0.93286 0.45232 0.80549 0.08700
Cl	Cl	0.07032 0.59781 0.80654 -0.25800
Cl	Cl	0.90665 0.43419 0.70495 -0.25800
C 	C 	0.03145 0.52836 0.20697 -0.04400
C 	C 	0.96901 0.51179 0.21885 0.17300
C 	C 	0.95627 0.49573 0.26673 -0.07000
C 	C 	0.00541 0.49544 0.30302 -0.01900
C 	C 	0.06817 0.51104 0.29088 0.17700
C 	C 	0.08084 0.52732 0.24308 -0.03700
H 	H 	0.90773 0.48425 0.27593 0.10200
H 	H 	0.12936 0.53885 0.23391 0.10400
Cl	Cl	0.90680 0.50928 0.17380 -0.29300
Cl	Cl	0.13098 0.51189 0.33552 -0.24600
C 	C 	0.95617 0.67867 0.49187 -0.10600
C 	C 	0.89497 0.70153 0.48509 0.19300
C 	C 	0.89074 0.75225 0.47896 -0.03900
C 	C 	0.94708 0.78052 0.47909 -0.08900
C 	C 	0.00825 0.75763 0.48567 0.20400
C 	C 	0.01249 0.70694 0.49189 -0.01200
H 	H 	0.84350 0.76977 0.47441 0.09900
H 	H 	0.05972 0.68944 0.49655 0.09600
Cl	Cl	0.82335 0.66706 0.48244 -0.26300
Cl	Cl	0.07988 0.79210 0.48806 -0.26300
C 	C 	0.93671 0.18285 0.49534 -0.07300
C 	C 	0.92258 0.20768 0.45042 0.19000
C 	C 	0.94263 0.25576 0.44288 -0.03000
C 	C 	0.97334 0.28033 0.48082 -0.09100
C 	C 	0.97645 0.25820 0.52821 0.19000
C 	C 	0.95962 0.20919 0.53493 -0.03700
H 	H 	0.93578 0.27351 0.40718 0.10000
H 	H 	0.96700 0.19111 0.57043 0.09500
Cl	Cl	0.88008 0.17873 0.40325 -0.27100
Cl	Cl	0.99647 0.29205 0.57980 -0.25400
C 	C 	0.64770 0.96488 0.53922 -0.03100
C 	C 	0.67818 0.93078 0.50988 0.18300
C 	C 	0.74477 0.93390 0.50189 -0.05100
C 	C 	0.78128 0.97100 0.52275 -0.02600
C 	C 	0.75261 0.00058 0.55743 0.17600
C 	C 	0.68631 0.99640 0.56644 -0.04100
H 	H 	0.76743 0.90861 0.47790 0.10700
H 	H 	0.66396 0.02057 0.59172 0.11100
Cl	Cl	0.63326 0.88543 0.48091 -0.29900
Cl	Cl	0.79812 0.04411 0.58871 -0.28900
C 	C 	0.14383 0.97821 0.50901 -0.02600
C 	C 	0.18165 0.98109 0.55244 0.18300
C 	C 	0.24959 0.97908 0.55043 -0.05200
C 	C 	0.27987 0.97278 0.50579 -0.02700
C 	C 	0.24132 0.96609 0.46322 0.18600
C 	C 	0.17393 0.96724 0.46565 -0.05200
H 	H 	0.27861 0.98260 0.58354 0.09300
H 	H 	0.14483 0.96183 0.43292 0.11600
Cl	Cl	0.14524 0.98285 0.60982 -0.26300
Cl	Cl	0.27596 0.95863 0.40588 -0.22500
C 	C 	0.00092 0.81273 0.98017 -0.01900
C 	C 	0.04440 0.79050 0.01476 0.17900
C 	C 	0.04469 0.73983 0.02239 -0.01900
C 	C 	0.00253 0.71095 0.99527 -0.07100
C 	C 	0.95998 0.73312 0.95996 0.18300
C 	C 	0.95951 0.78378 0.95250 -0.07300
H 	H 	0.07863 0.72286 0.04873 0.09100
H 	H 	0.92544 0.80075 0.92626 0.10400
Cl	Cl	0.09937 0.82579 0.04832 -0.25500
Cl	Cl	0.90603 0.69786 0.92547 -0.26200
C 	C 	0.97358 0.21286 0.00584 -0.09200
C 	C 	0.91114 0.23218 0.99474 0.18300
C 	C 	0.90312 0.28207 0.98372 -0.03700
C 	C 	0.95698 0.31291 0.98289 -0.08700
C 	C 	0.01922 0.29369 0.99477 0.19600
C 	C 	0.02710 0.24399 0.00636 -0.00500
H 	H 	0.85495 0.29684 0.97561 0.09800
H 	H 	0.07529 0.22926 0.01455 0.10200
Cl	Cl	0.84289 0.19408 0.99238 -0.25800
Cl	Cl	0.08773 0.33157 0.99624 -0.26300
C 	C 	0.81652 0.01200 0.00323 -0.01600
C 	C 	0.77291 0.01093 0.96283 0.18100
C 	C 	0.70705 0.00259 0.97027 -0.06200
C 	C 	0.68354 0.99699 0.01760 -0.01200
C 	C 	0.72596 0.00404 0.05797 0.17800
C 	C 	0.79244 0.01000 0.05054 -0.05100
H 	H 	0.67422 0.99994 0.93907 0.11800
H 	H 	0.82507 0.01409 0.08158 0.11000
Cl	Cl	0.79936 0.02138 0.90267 -0.26400
Cl	Cl	0.69653 0.01078 0.11712 -0.24600
C 	C 	0.31943 0.99101 0.02721 -0.03300
C 	C 	0.27457 0.95261 0.02317 0.17600
C 	C 	0.20780 0.96319 0.02019 -0.05100
C 	C 	0.18553 0.01165 0.01891 -0.03000
C 	C 	0.23079 0.04983 0.01917 0.18100
C 	C 	0.29703 0.03927 0.02347 -0.05200
H 	H 	0.17349 0.93373 0.01746 0.10600
H 	H 	0.33134 0.06888 0.02473 0.09900
Cl	Cl	0.30050 0.89203 0.01605 -0.25800
Cl	Cl	0.20564 0.11139 0.01322 -0.25900
C 	C 	0.00518 0.01816 0.81219 -0.05200
C 	C 	0.05899 0.01983 0.78149 0.18000
C 	C 	0.04932 0.02031 0.73082 -0.00600
C 	C 	0.98631 0.01935 0.71047 -0.09500
C 	C 	0.93259 0.01767 0.74116 0.20100
C 	C 	0.94223 0.01703 0.79176 -0.06900
H 	H 	0.09084 0.02115 0.70724 0.10600
H 	H 	0.90065 0.01621 0.81530 0.11300
Cl	Cl	0.13864 0.02284 0.80591 -0.25500
Cl	Cl	0.85294 0.01546 0.71667 -0.24600
C 	C 	0.00219 0.02892 0.21330 -0.03400
C 	C 	0.94060 0.01277 0.22774 0.15300
C 	C 	0.93088 0.99748 0.27627 -0.01300
C 	C 	0.98205 0.99811 0.31088 -0.11200
C 	C 	0.04356 0.01459 0.29650 0.22100
C 	C 	0.05335 0.02961 0.24790 -0.05500
H 	H 	0.88313 0.98578 0.28728 0.09300
H 	H 	0.10109 0.04132 0.23688 0.10600
Cl	Cl	0.87551 0.01023 0.18517 -0.26800
Cl	Cl	0.10827 0.01836 0.33926 -0.25800
