data_crystal

_cell_length_a 21.41271
_cell_length_b 20.70420
_cell_length_c 48.19678
_cell_angle_alpha 89.87728
_cell_angle_beta  89.88121
_cell_angle_gamma 119.78335

_symmetry_space_group_name_	'P 1'
_symmetry_space_group_name_H-M	'P 1'

loop_
_symmetry_equiv_pos_as_xyz
  x,y,z

loop_
_atom_site_label
_atom_site_type_symbol
_atom_site_fract_x
_atom_site_fract_y
_atom_site_fract_z
_atom_site_charge
C 	C 	0.86736 0.44450 0.90350 0.30500
C 	C 	0.59395 0.42046 0.86040 0.28000
C 	C 	0.78061 0.55756 0.91465 0.28300
C 	C 	0.66830 0.29526 0.84348 0.25900
C 	C 	0.59339 0.37287 0.95082 0.32600
C 	C 	0.64772 0.23434 0.93445 0.30400
Ni	Ni	0.74504 0.44752 0.86887 1.11300
Ni	Ni	0.59925 0.31049 0.89610 1.12000
Ni	Ni	0.73503 0.40422 0.93419 1.12100
O 	O 	0.84971 0.47490 0.88247 -0.36800
O 	O 	0.81828 0.39427 0.92029 -0.39000
O 	O 	0.56343 0.31357 0.93488 -0.39400
O 	O 	0.65491 0.43751 0.84783 -0.36100
O 	O 	0.58276 0.39512 0.88579 -0.38200
O 	O 	0.68130 0.29734 0.94913 -0.38700
O 	O 	0.74854 0.53563 0.89060 -0.36800
O 	O 	0.80021 0.51594 0.92854 -0.38100
O 	O 	0.62046 0.23187 0.90952 -0.39300
O 	O 	0.73051 0.35891 0.84422 -0.36400
O 	O 	0.60916 0.28913 0.85520 -0.36900
O 	O 	0.65843 0.42663 0.94559 -0.40100
O 	O 	0.69999 0.37737 0.89764 -0.71500
H 	H 	0.71771 0.34290 0.89318 0.16300
C 	C 	0.64469 0.46839 0.57766 0.29700
C 	C 	0.66544 0.24926 0.65020 0.27900
C 	C 	0.79472 0.47900 0.62272 0.28100
C 	C 	0.50237 0.22925 0.60873 0.26100
C 	C 	0.79277 0.29805 0.57430 0.31900
C 	C 	0.63862 0.27009 0.53095 0.29900
Ni	Ni	0.63978 0.36584 0.62487 1.11200
Ni	Ni	0.63871 0.23210 0.58976 1.12100
Ni	Ni	0.73611 0.39927 0.56909 1.12000
O 	O 	0.65157 0.46169 0.60484 -0.37500
O 	O 	0.67615 0.44655 0.55894 -0.38400
O 	O 	0.72731 0.24164 0.57074 -0.39100
O 	O 	0.62425 0.27944 0.65133 -0.36600
O 	O 	0.68793 0.23815 0.62628 -0.37600
O 	O 	0.70271 0.33112 0.53497 -0.38200
O 	O 	0.74703 0.42000 0.63612 -0.37600
O 	O 	0.78691 0.48641 0.59601 -0.37600
O 	O 	0.59857 0.22770 0.55185 -0.38900
O 	O 	0.53139 0.30052 0.61565 -0.37000
O 	O 	0.54119 0.19505 0.60902 -0.36800
O 	O 	0.80194 0.36285 0.58212 -0.39600
O 	O 	0.65757 0.33183 0.59145 -0.71800
H 	H 	0.61747 0.32778 0.58018 0.15900
C 	C 	0.90227 0.03803 0.71964 0.30500
C 	C 	0.96495 0.93236 0.82334 0.27500
C 	C 	0.89788 0.07967 0.78257 0.27800
C 	C 	0.96387 0.85055 0.74848 0.26400
C 	C 	0.14787 0.14916 0.79264 0.28200
C 	C 	0.13109 0.06344 0.72350 0.26800
Ni	Ni	0.90191 0.94257 0.76910 1.10000
Ni	Ni	0.07131 0.98827 0.77710 1.10400
Ni	Ni	0.03437 0.10956 0.75280 1.11600
O 	O 	0.86514 0.97567 0.73437 -0.40300
O 	O 	0.97339 0.07320 0.71831 -0.38100
O 	O 	0.15377 0.08994 0.78751 -0.36500
O 	O 	0.91665 0.89377 0.80439 -0.37300
O 	O 	0.03260 0.97759 0.81640 -0.38300
O 	O 	0.12307 0.11937 0.73302 -0.37700
O 	O 	0.89354 0.01969 0.79354 -0.36300
O 	O 	0.95558 0.12765 0.76864 -0.37000
O 	O 	0.11700 0.00495 0.73934 -0.36400
O 	O 	0.90731 0.85994 0.74656 -0.36500
O 	O 	0.00775 0.87696 0.76997 -0.37800
O 	O 	0.08684 0.14766 0.78855 -0.38300
O 	O 	0.99983 0.00783 0.76145 -0.66300
H 	H 	0.99920 0.99026 0.74243 0.11400
C 	C 	0.17435 0.72467 0.40787 0.26500
C 	C 	0.37630 0.63763 0.46027 0.31900
C 	C 	0.36934 0.83136 0.42079 0.31700
C 	C 	0.17735 0.51950 0.44996 0.29500
C 	C 	0.40889 0.68463 0.36869 0.28500
C 	C 	0.20925 0.55025 0.35909 0.26100
Ni	Ni	0.26800 0.68589 0.44645 1.11200
Ni	Ni	0.30013 0.57660 0.40833 1.11900
Ni	Ni	0.28903 0.70948 0.37993 1.11800
O 	O 	0.20852 0.73568 0.43208 -0.36600
O 	O 	0.19024 0.69664 0.38601 -0.37900
O 	O 	0.36919 0.61397 0.37564 -0.37700
O 	O 	0.32347 0.64598 0.47006 -0.37600
O 	O 	0.38523 0.63574 0.43347 -0.38700
O 	O 	0.25216 0.62213 0.35277 -0.37600
O 	O 	0.36478 0.78174 0.43876 -0.38300
O 	O 	0.32675 0.81042 0.39900 -0.38700
O 	O 	0.22039 0.51946 0.38137 -0.38000
O 	O 	0.17872 0.58329 0.45511 -0.37400
O 	O 	0.23624 0.51844 0.44154 -0.38200
O 	O 	0.39142 0.73385 0.37683 -0.39100
O 	O 	0.26808 0.64692 0.41135 -0.71700
H 	H 	0.21607 0.61389 0.40862 0.15800
C 	C 	0.35929 0.78511 0.12413 0.25700
C 	C 	0.26994 0.48293 0.08690 0.28400
C 	C 	0.38469 0.63519 0.15604 0.27800
C 	C 	0.24186 0.61687 0.04721 0.30000
C 	C 	0.49663 0.61627 0.08470 0.32500
C 	C 	0.48916 0.78260 0.05145 0.30000
Ni	Ni	0.28399 0.62279 0.11006 1.11100
Ni	Ni	0.37734 0.62016 0.05733 1.11900
Ni	Ni	0.45875 0.72374 0.10828 1.11900
O 	O 	0.29816 0.72839 0.11502 -0.36700
O 	O 	0.41541 0.77669 0.13111 -0.37200
O 	O 	0.43086 0.57590 0.07567 -0.39900
O 	O 	0.27631 0.51918 0.10987 -0.37000
O 	O 	0.28788 0.51810 0.06297 -0.38000
O 	O 	0.49381 0.80023 0.07813 -0.39200
O 	O 	0.32513 0.63677 0.15081 -0.35700
O 	O 	0.42564 0.63940 0.13546 -0.38700
O 	O 	0.46713 0.71302 0.04313 -0.38800
O 	O 	0.21938 0.59844 0.07363 -0.36600
O 	O 	0.31086 0.65180 0.04066 -0.38900
O 	O 	0.52161 0.68632 0.09151 -0.39100
O 	O 	0.37023 0.66934 0.08921 -0.71500
H 	H 	0.36688 0.71088 0.08076 0.16300
C 	C 	0.99943 0.13375 0.25449 0.27700
C 	C 	0.07799 0.90881 0.21571 0.27700
C 	C 	0.03032 0.07006 0.18358 0.27100
C 	C 	0.02132 0.93435 0.28972 0.22800
C 	C 	0.83183 0.85583 0.19484 0.27500
C 	C 	0.80092 0.86294 0.25574 0.25900
Ni	Ni	0.06530 0.03460 0.23995 1.12000
Ni	Ni	0.93311 0.86332 0.23850 1.11700
Ni	Ni	0.90414 0.99851 0.22187 1.10800
O 	O 	0.05646 0.13033 0.24561 -0.36700
O 	O 	0.93320 0.07748 0.25151 -0.36200
O 	O 	0.86081 0.82019 0.20713 -0.37800
O 	O 	0.10295 0.96018 0.23488 -0.38100
O 	O 	0.00851 0.87018 0.21083 -0.37100
O 	O 	0.81662 0.92936 0.24542 -0.38100
O 	O 	0.07213 0.05140 0.19732 -0.35700
O 	O 	0.98025 0.07788 0.19665 -0.36100
O 	O 	0.85192 0.84821 0.26372 -0.38600
O 	O 	0.05784 0.00533 0.28174 -0.33300
O 	O 	0.00019 0.87953 0.27130 -0.36300
O 	O 	0.87023 0.92748 0.19018 -0.39600
O 	O 	0.96524 0.96755 0.23817 -0.72100
H 	H 	0.95193 0.97250 0.25728 0.14400
C 	C 	0.12856 0.17208 0.12462 0.07700
C 	C 	0.19725 0.23288 0.11874 -0.08100
C 	C 	0.20158 0.30053 0.11176 0.01100
C 	C 	0.14116 0.30665 0.10833 0.08100
C 	C 	0.07223 0.24590 0.11249 -0.08500
C 	C 	0.06689 0.17840 0.12115 0.01700
N 	N 	0.11762 0.12273 0.14490 -0.15100
C 	C 	0.05059 0.09869 0.15499 0.01300
C 	C 	0.01721 0.13142 0.14053 -0.04900
N 	N 	0.15598 0.36670 0.09295 -0.15100
C 	C 	0.22766 0.40162 0.08748 0.00000
C 	C 	0.25701 0.35932 0.09781 -0.04200
H 	H 	0.24536 0.22879 0.12150 0.05500
H 	H 	0.02483 0.25155 0.11029 0.05500
H 	H 	0.97448 0.13923 0.14897 0.05900
H 	H 	0.31358 0.38046 0.10196 0.04800
H 	H 	0.15911 0.12254 0.15625 0.09500
H 	H 	0.12455 0.39243 0.09272 0.08500
C 	C 	0.64583 0.79491 0.18591 0.07400
C 	C 	0.58843 0.80467 0.19443 -0.08800
C 	C 	0.52266 0.74075 0.20136 0.01200
C 	C 	0.51760 0.67076 0.20237 0.07500
C 	C 	0.57954 0.66428 0.19818 -0.08000
C 	C 	0.64134 0.72634 0.18779 0.01000
N 	N 	0.71504 0.84956 0.18545 -0.15000
C 	C 	0.75514 0.81558 0.18701 -0.00700
C 	C 	0.71094 0.73854 0.18904 -0.03900
N 	N 	0.45278 0.61865 0.19286 -0.15000
C 	C 	0.41788 0.65410 0.18371 -0.00100
C 	C 	0.45766 0.72903 0.19089 -0.05300
H 	H 	0.59254 0.85891 0.19332 0.04800
H 	H 	0.57667 0.61066 0.19965 0.05300
H 	H 	0.72616 0.70120 0.19877 0.05000
H 	H 	0.45162 0.77233 0.18080 0.05000
H 	H 	0.73277 0.90436 0.19159 0.07300
H 	H 	0.44341 0.56773 0.18477 0.08600
C 	C 	0.32911 0.90617 0.16596 0.07200
C 	C 	0.29809 0.90537 0.19183 -0.08200
C 	C 	0.24079 0.92000 0.19219 0.00700
C 	C 	0.20821 0.92334 0.16788 0.07300
C 	C 	0.23324 0.91447 0.14203 -0.08400
C 	C 	0.29782 0.91209 0.14148 0.01000
N 	N 	0.36549 0.86960 0.16131 -0.15200
C 	C 	0.35732 0.85121 0.13410 0.00600
C 	C 	0.31561 0.87690 0.12114 -0.05100
N 	N 	0.13943 0.90524 0.17281 -0.15200
C 	C 	0.12820 0.89248 0.20045 0.00000
C 	C 	0.18952 0.89825 0.21290 -0.04400
H 	H 	0.31483 0.88928 0.21057 0.05100
H 	H 	0.20166 0.90518 0.12341 0.05200
H 	H 	0.28366 0.85205 0.10273 0.04800
H 	H 	0.20088 0.90442 0.23492 0.04800
H 	H 	0.37581 0.84031 0.17663 0.08700
H 	H 	0.10866 0.91856 0.15968 0.08700
C 	C 	0.56782 0.72706 0.33079 0.07800
C 	C 	0.61134 0.70376 0.31739 -0.08400
C 	C 	0.63741 0.73216 0.29075 0.01300
C 	C 	0.61921 0.78077 0.27771 0.07600
C 	C 	0.57360 0.80184 0.29088 -0.08200
C 	C 	0.55104 0.77675 0.31802 0.00900
N 	N 	0.51694 0.68526 0.34962 -0.15000
C 	C 	0.46717 0.70710 0.34840 -0.00200
C 	C 	0.48709 0.76476 0.32951 -0.04100
N 	N 	0.67260 0.82693 0.26058 -0.15100
C 	C 	0.72555 0.80980 0.26303 0.00500
C 	C 	0.70546 0.75076 0.28140 -0.04800
H 	H 	0.62540 0.66593 0.32747 0.05300
H 	H 	0.55911 0.83938 0.28083 0.05000
H 	H 	0.45064 0.78051 0.32012 0.03900
H 	H 	0.74306 0.74065 0.29301 0.05100
H 	H 	0.50777 0.63418 0.35750 0.08900
H 	H 	0.68066 0.87875 0.25407 0.08800
C 	C 	0.09213 0.38559 0.32505 0.08000
C 	C 	0.02643 0.32131 0.31956 -0.08500
C 	C 	0.01572 0.29115 0.29275 0.01000
C 	C 	0.06912 0.32381 0.27242 0.07800
C 	C 	0.13409 0.38942 0.27798 -0.08200
C 	C 	0.14472 0.41808 0.30492 0.01200
N 	N 	0.10103 0.43553 0.34462 -0.15300
C 	C 	0.16114 0.49999 0.33764 0.00600
C 	C 	0.18775 0.49178 0.31221 -0.04400
N 	N 	0.06467 0.27170 0.25462 -0.15100
C 	C 	0.00915 0.20608 0.26340 -0.00100
C 	C 	0.97740 0.21571 0.28703 -0.03600
H 	H 	0.98554 0.29548 0.33550 0.05900
H 	H 	0.17563 0.41522 0.26228 0.05600
H 	H 	0.24197 0.52741 0.30458 0.05200
H 	H 	0.94834 0.17274 0.30242 0.05300
H 	H 	0.07827 0.42194 0.36447 0.08700
H 	H 	0.10745 0.27701 0.24244 0.09300
C 	C 	0.06634 0.77966 0.37364 0.08000
C 	C 	0.00373 0.77288 0.36191 -0.08700
C 	C 	0.00490 0.83869 0.35357 0.01400
C 	C 	0.06625 0.90836 0.35756 0.07300
C 	C 	0.12661 0.91412 0.37144 -0.08500
C 	C 	0.12544 0.84797 0.37836 0.01000
N 	N 	0.06911 0.72707 0.38905 -0.15300
C 	C 	0.13226 0.76177 0.40310 0.00400
C 	C 	0.16684 0.83843 0.39796 -0.04700
N 	N 	0.07247 0.95507 0.33686 -0.16800
C 	C 	0.01676 0.91610 0.31946 0.01300
C 	C 	0.97314 0.84415 0.32944 -0.05100
H 	H 	0.95735 0.71872 0.35806 0.05500
H 	H 	0.17427 0.96766 0.37474 0.04700
H 	H 	0.22362 0.87668 0.40116 0.05100
H 	H 	0.93879 0.79703 0.31647 0.05000
H 	H 	0.04063 0.67018 0.38460 0.08600
H 	H 	0.12135 0.00089 0.33072 0.11200
C 	C 	0.62147 0.23747 0.50304 -0.10300
C 	C 	0.56486 0.23629 0.48763 0.12300
C 	C 	0.52970 0.18117 0.46735 -0.09000
C 	C 	0.54915 0.12638 0.46307 -0.01000
C 	C 	0.61273 0.13490 0.47547 0.06800
C 	C 	0.64913 0.19157 0.49502 -0.02700
N 	N 	0.54327 0.28685 0.49257 -0.20400
H 	H 	0.48343 0.17714 0.45664 0.05800
C 	C 	0.49575 0.05417 0.45075 0.03600
N 	N 	0.63750 0.08739 0.46950 -0.19300
H 	H 	0.69531 0.19553 0.50581 0.04900
C 	C 	0.50408 0.03869 0.42307 -0.07600
C 	C 	0.46226 0.96641 0.41233 0.10200
C 	C 	0.40746 0.91043 0.42908 -0.11700
C 	C 	0.39410 0.92861 0.45562 -0.00400
C 	C 	0.43918 0.99894 0.46705 0.00100
H 	H 	0.54620 0.08170 0.41041 0.05800
N 	N 	0.47652 0.95093 0.38643 -0.20200
H 	H 	0.35056 0.88642 0.46804 0.02800
N 	N 	0.42882 0.01243 0.49382 -0.15500
H 	H 	0.51672 0.99284 0.37424 0.07600
H 	H 	0.44899 0.89731 0.37826 0.09600
H 	H 	0.38642 0.97143 0.50552 0.06000
H 	H 	0.46300 0.06288 0.50349 0.09200
H 	H 	0.68316 0.09272 0.47944 0.08600
H 	H 	0.61285 0.04591 0.45456 0.09600
H 	H 	0.57086 0.33046 0.50653 0.09300
H 	H 	0.49981 0.28428 0.48177 0.08600
C 	C 	0.11656 0.45053 0.46115 -0.10500
C 	C 	0.04553 0.43770 0.45879 0.12200
C 	C 	0.99361 0.39209 0.47836 -0.08600
C 	C 	0.01096 0.35622 0.49913 -0.00900
C 	C 	0.07734 0.35705 0.49780 0.06200
C 	C 	0.13042 0.40552 0.47906 -0.02600
N 	N 	0.02719 0.46919 0.43788 -0.20300
H 	H 	0.94078 0.38720 0.47821 0.05600
C 	C 	0.96462 0.32846 0.52410 0.00800
N 	N 	0.09128 0.31387 0.51512 -0.19300
H 	H 	0.18376 0.41175 0.47971 0.04900
C 	C 	0.90033 0.26012 0.52284 -0.10300
C 	C 	0.84739 0.24057 0.54343 0.13400
C 	C 	0.85589 0.29398 0.56358 -0.11600
C 	C 	0.92478 0.35527 0.56773 -0.02200
C 	C 	0.97893 0.37440 0.54773 0.06000
H 	H 	0.89141 0.22237 0.50581 0.05900
N 	N 	0.79190 0.16952 0.54500 -0.20300
H 	H 	0.93424 0.39209 0.58514 0.04900
N 	N 	0.04320 0.43805 0.55080 -0.19400
H 	H 	0.78227 0.13232 0.52877 0.08600
H 	H 	0.76286 0.14867 0.56341 0.10100
H 	H 	0.05259 0.47201 0.56810 0.08200
H 	H 	0.08461 0.45432 0.53631 0.09000
H 	H 	0.14150 0.31696 0.51479 0.08400
H 	H 	0.05168 0.27520 0.52840 0.08800
H 	H 	0.06315 0.49800 0.42175 0.09000
H 	H 	0.97539 0.46210 0.43688 0.08800
C 	C 	0.42096 0.62273 0.47961 -0.11300
C 	C 	0.42789 0.55825 0.47705 0.12800
C 	C 	0.47060 0.54627 0.49604 -0.09700
C 	C 	0.50197 0.59396 0.51862 0.00300
C 	C 	0.49444 0.65777 0.52148 0.05500
C 	C 	0.45458 0.67193 0.50172 -0.01900
N 	N 	0.39173 0.50635 0.45717 -0.20000
H 	H 	0.47693 0.49768 0.49391 0.05700
C 	C 	0.54098 0.57499 0.53944 -0.00000
N 	N 	0.52452 0.70508 0.54322 -0.19200
H 	H 	0.44903 0.72102 0.50372 0.04000
C 	C 	0.61574 0.60670 0.53691 -0.09900
C 	C 	0.65224 0.57730 0.55177 0.13000
C 	C 	0.61242 0.51273 0.56821 -0.10900
C 	C 	0.53893 0.48561 0.57283 -0.02600
C 	C 	0.50290 0.51703 0.55888 0.05900
H 	H 	0.64528 0.65311 0.52282 0.05600
N 	N 	0.72529 0.61176 0.55055 -0.20400
H 	H 	0.50912 0.43812 0.58644 0.04000
N 	N 	0.43181 0.49093 0.56398 -0.19200
H 	H 	0.75411 0.65759 0.53748 0.08300
H 	H 	0.75425 0.59578 0.56355 0.09700
H 	H 	0.40344 0.44635 0.57763 0.08200
H 	H 	0.40471 0.51619 0.55520 0.08700
H 	H 	0.51871 0.75210 0.54510 0.07800
H 	H 	0.55355 0.69562 0.55850 0.08400
H 	H 	0.35167 0.50726 0.44526 0.07300
H 	H 	0.40057 0.46139 0.45459 0.08300
C 	C 	0.71362 0.15507 0.69756 0.07400
C 	C 	0.71040 0.08560 0.69792 -0.07100
C 	C 	0.77335 0.08358 0.69186 -0.00600
C 	C 	0.83852 0.14837 0.68818 0.08500
C 	C 	0.84328 0.21811 0.69046 -0.08700
C 	C 	0.77960 0.22054 0.69475 0.01400
N 	N 	0.66087 0.16416 0.68642 -0.15000
C 	C 	0.69223 0.23389 0.67585 0.00300
C 	C 	0.76554 0.27103 0.68141 -0.04600
N 	N 	0.89329 0.13664 0.69430 -0.14800
C 	C 	0.86337 0.06457 0.70224 -0.01700
C 	C 	0.78858 0.02979 0.70118 0.01000
H 	H 	0.65964 0.03468 0.70084 0.05600
H 	H 	0.89442 0.26883 0.68790 0.05400
H 	H 	0.80503 0.31690 0.66893 0.05400
H 	H 	0.75246 0.98252 0.71388 0.01500
H 	H 	0.61272 0.12015 0.67889 0.08700
H 	H 	0.94419 0.17851 0.70055 0.08300
C 	C 	0.32688 0.10205 0.63040 0.07500
C 	C 	0.29608 0.05824 0.65425 -0.07200
C 	C 	0.26482 0.08336 0.67380 -0.00300
C 	C 	0.25684 0.14455 0.66863 0.08400
C 	C 	0.28111 0.18443 0.64375 -0.08600
C 	C 	0.31807 0.16345 0.62496 0.01600
N 	N 	0.39016 0.11402 0.62002 -0.15100
C 	C 	0.42335 0.18316 0.60884 0.00800
C 	C 	0.37914 0.21451 0.61086 -0.04800
N 	N 	0.20227 0.14063 0.68376 -0.15000
C 	C 	0.17417 0.07612 0.69824 -0.00500
C 	C 	0.21237 0.03934 0.69277 -0.00000
H 	H 	0.30183 0.01004 0.65844 0.05700
H 	H 	0.27489 0.23243 0.63976 0.05300
H 	H 	0.39877 0.27390 0.61082 0.05100
H 	H 	0.19332 0.98095 0.69674 0.01900
H 	H 	0.41753 0.08754 0.62753 0.09500
H 	H 	0.17600 0.17088 0.67994 0.08800
C 	C 	0.87834 0.60248 0.67787 0.07700
C 	C 	0.91854 0.62767 0.70233 -0.08300
C 	C 	0.95912 0.70489 0.70651 0.01100
C 	C 	0.95872 0.75471 0.68707 0.07500
C 	C 	0.91948 0.72887 0.66231 -0.08200
C 	C 	0.87807 0.65183 0.65859 0.00900
N 	N 	0.86091 0.53733 0.66575 -0.15200
C 	C 	0.84720 0.54369 0.63873 -0.00300
C 	C 	0.86032 0.61563 0.63335 -0.04300
N 	N 	0.96949 0.81721 0.69978 -0.15200
C 	C 	0.97647 0.80783 0.72714 -0.00100
C 	C 	0.97023 0.73874 0.73218 -0.04400
H 	H 	0.91809 0.58886 0.71754 0.05300
H 	H 	0.91920 0.76728 0.64708 0.05000
H 	H 	0.84046 0.63217 0.61561 0.04800
H 	H 	0.95201 0.70881 0.75167 0.04800
H 	H 	0.84481 0.48733 0.67633 0.08900
H 	H 	0.95295 0.85330 0.69180 0.08400
C 	C 	0.18871 0.58895 0.02422 -0.10400
C 	C 	0.20673 0.57082 0.99805 0.12700
C 	C 	0.16448 0.56330 0.97487 -0.09800
C 	C 	0.09793 0.55970 0.97791 -0.00100
C 	C 	0.07616 0.57105 0.00447 0.06000
C 	C 	0.12305 0.58807 0.02722 -0.02600
N 	N 	0.26168 0.55610 0.99544 -0.20000
H 	H 	0.18050 0.55351 0.95465 0.05600
C 	C 	0.04799 0.53404 0.95394 0.00500
N 	N 	0.01080 0.56575 0.00829 -0.19500
H 	H 	0.10846 0.60098 0.04716 0.04400
C 	C 	0.01796 0.45984 0.94535 -0.10600
C 	C 	0.96794 0.43263 0.92366 0.13600
C 	C 	0.94308 0.47842 0.91212 -0.11500
C 	C 	0.98116 0.55509 0.91756 -0.01600
C 	C 	0.03357 0.58359 0.93855 0.05100
H 	H 	0.03314 0.42314 0.95570 0.05900
N 	N 	0.94224 0.36189 0.91449 -0.20400
H 	H 	0.96615 0.59163 0.90703 0.04500
N 	N 	0.06862 0.65776 0.94410 -0.19100
H 	H 	0.95845 0.32699 0.92380 0.09000
H 	H 	0.90803 0.34203 0.89736 0.09700
H 	H 	0.05622 0.69349 0.93310 0.07800
H 	H 	0.10939 0.68089 0.95891 0.08600
H 	H 	0.99560 0.57488 0.02787 0.08400
H 	H 	0.97415 0.55179 0.99207 0.08900
H 	H 	0.28221 0.54234 0.01260 0.07800
H 	H 	0.27912 0.55043 0.97579 0.08100
C 	C 	0.63027 0.16356 0.94821 -0.10500
C 	C 	0.56142 0.09932 0.94543 0.12100
C 	C 	0.54945 0.03157 0.95657 -0.06500
C 	C 	0.59899 0.02984 0.97504 0.01900
C 	C 	0.66771 0.09384 0.97810 0.06000
C 	C 	0.68322 0.15969 0.96405 -0.02400
N 	N 	0.50516 0.10378 0.93449 -0.19900
H 	H 	0.49738 0.98202 0.95392 0.02900
C 	C 	0.57284 0.96752 0.99509 -0.02300
N 	N 	0.71849 0.09275 0.99470 -0.19100
H 	H 	0.73622 0.20840 0.96587 0.04500
C 	C 	0.59030 0.91126 0.99108 -0.09600
C 	C 	0.56656 0.85186 0.01000 0.12500
C 	C 	0.51631 0.84349 0.03093 -0.11100
C 	C 	0.49595 0.89785 0.03389 -0.02000
C 	C 	0.52660 0.96165 0.01717 0.04100
H 	H 	0.62569 0.91591 0.97412 0.04700
N 	N 	0.59522 0.80617 0.00891 -0.20400
H 	H 	0.45810 0.89183 0.05008 0.03800
N 	N 	0.51233 0.01752 0.02267 -0.17700
H 	H 	0.62779 0.80932 0.99218 0.08200
H 	H 	0.59096 0.77207 0.02561 0.10000
H 	H 	0.47588 0.01132 0.03833 0.09400
H 	H 	0.53931 0.06864 0.01238 0.09300
H 	H 	0.76853 0.14070 0.99723 0.08700
H 	H 	0.70935 0.04438 0.00496 0.09900
H 	H 	0.50596 0.15449 0.93319 0.09300
H 	H 	0.45682 0.05536 0.93008 0.09100
C 	C 	0.54510 0.58551 0.08278 -0.12000
C 	C 	0.52002 0.51204 0.09217 0.13600
C 	C 	0.53220 0.46341 0.07581 -0.10100
C 	C 	0.57370 0.48970 0.05157 0.00200
C 	C 	0.61445 0.56737 0.04686 0.05800
C 	C 	0.59978 0.61518 0.06271 -0.01900
N 	N 	0.47959 0.48673 0.11563 -0.20500
H 	H 	0.50511 0.40450 0.08073 0.05800
C 	C 	0.55980 0.43733 0.02849 0.00300
N 	N 	0.66510 0.59561 0.02647 -0.19200
H 	H 	0.62444 0.67357 0.05713 0.04200
C 	C 	0.51610 0.43535 0.00646 -0.09600
C 	C 	0.51685 0.40243 0.98114 0.13300
C 	C 	0.56201 0.37138 0.97802 -0.11900
C 	C 	0.59477 0.36127 0.00155 -0.02000
C 	C 	0.59569 0.39571 0.02673 0.05700
H 	H 	0.48484 0.46327 0.00850 0.05700
N 	N 	0.47606 0.40290 0.95966 -0.20500
H 	H 	0.62585 0.33315 0.99949 0.03900
N 	N 	0.63287 0.39062 0.04868 -0.19200
H 	H 	0.44473 0.42846 0.96171 0.08500
H 	H 	0.47336 0.37582 0.94106 0.09500
H 	H 	0.66055 0.36107 0.04693 0.08300
H 	H 	0.63382 0.41481 0.06776 0.08700
H 	H 	0.69288 0.65272 0.02227 0.08300
H 	H 	0.67899 0.56140 0.01528 0.09000
H 	H 	0.47138 0.52275 0.12831 0.10100
H 	H 	0.45784 0.43123 0.12182 0.08600
C 	C 	0.76353 0.13300 0.77570 0.07800
C 	C 	0.74855 0.19140 0.77286 -0.08100
C 	C 	0.69491 0.19056 0.78987 0.01400
C 	C 	0.66469 0.13958 0.81158 0.07900
C 	C 	0.68607 0.08645 0.81642 -0.08200
C 	C 	0.73168 0.08053 0.79691 0.01400
N 	N 	0.82728 0.13973 0.76854 -0.15100
C 	C 	0.83722 0.09356 0.78543 0.00100
C 	C 	0.77870 0.05471 0.80297 -0.04400
N 	N 	0.64346 0.16855 0.83209 -0.15400
C 	C 	0.66036 0.23773 0.82379 0.01000
C 	C 	0.69277 0.25361 0.79776 -0.04400
H 	H 	0.78107 0.23845 0.75943 0.05500
H 	H 	0.67198 0.05483 0.83560 0.05800
H 	H 	0.78006 0.02887 0.82236 0.05500
H 	H 	0.72953 0.30923 0.79021 0.05200
H 	H 	0.86821 0.18483 0.75776 0.09100
H 	H 	0.63793 0.15178 0.85286 0.09000
C 	C 	0.32854 0.29656 0.79447 0.07700
C 	C 	0.39938 0.30908 0.79326 -0.08200
C 	C 	0.44101 0.33470 0.81729 0.01200
C 	C 	0.41576 0.35180 0.84082 0.07500
C 	C 	0.34628 0.34209 0.84206 -0.08200
C 	C 	0.30284 0.31389 0.81839 0.01100
N 	N 	0.27382 0.24060 0.78078 -0.15100
C 	C 	0.21359 0.22149 0.79573 -0.00200
C 	C 	0.22925 0.26553 0.81923 -0.04200
N 	N 	0.47069 0.39945 0.85674 -0.15200
C 	C 	0.53194 0.41056 0.84403 -0.00400
C 	C 	0.51518 0.37374 0.81852 -0.04300
H 	H 	0.41965 0.29567 0.77484 0.05600
H 	H 	0.32626 0.35447 0.86079 0.05300
H 	H 	0.19738 0.24835 0.83810 0.05000
H 	H 	0.55003 0.35934 0.80701 0.05600
H 	H 	0.27971 0.20503 0.76699 0.09700
H 	H 	0.46611 0.40904 0.87774 0.08700
C 	C 	0.81932 0.74355 0.91530 0.07600
C 	C 	0.81037 0.79232 0.89763 -0.08400
C 	C 	0.87209 0.85548 0.88765 0.01000
C 	C 	0.94033 0.86505 0.89231 0.07300
C 	C 	0.94884 0.81286 0.90811 -0.08200
C 	C 	0.88776 0.75481 0.92099 0.00800
N 	N 	0.77041 0.67064 0.91703 -0.15100
C 	C 	0.80670 0.63467 0.92339 -0.00000
C 	C 	0.87962 0.68529 0.92630 -0.04300
N 	N 	0.98472 0.90332 0.87115 -0.14900
C 	C 	0.94531 0.91759 0.85286 -0.00100
C 	C 	0.87519 0.88891 0.86242 -0.04600
H 	H 	0.75756 0.77789 0.88988 0.05100
H 	H 	0.99978 0.81356 0.90827 0.04800
H 	H 	0.92174 0.67157 0.92311 0.04400
H 	H 	0.82912 0.87323 0.84912 0.04300
H 	H 	0.72084 0.64584 0.90682 0.09200
H 	H 	0.03046 0.90018 0.86574 0.08200
