data_crystal

_cell_length_a 26.18732
_cell_length_b 26.37250
_cell_length_c 36.82871
_cell_angle_alpha 95.49530
_cell_angle_beta  95.49365
_cell_angle_gamma 125.82836

_symmetry_space_group_name_	'P 1'
_symmetry_space_group_name_H-M	'P 1'

loop_
_symmetry_equiv_pos_as_xyz
  x,y,z

loop_
_atom_site_label
_atom_site_type_symbol
_atom_site_fract_x
_atom_site_fract_y
_atom_site_fract_z
_atom_site_charge
C 	C 	0.99881 0.05457 0.99559 0.27100
N 	N 	0.06363 0.08961 0.99947 -0.10000
C 	C 	0.09213 0.06006 0.99818 0.28200
C 	C 	0.99114 0.96059 0.98923 0.28500
C 	C 	0.90770 0.97449 0.46235 0.30400
N 	N 	0.87592 0.91313 0.46717 -0.10600
C 	C 	0.90763 0.88695 0.47049 0.28800
N 	N 	0.97099 0.92219 0.46894 -0.11800
C 	C 	0.00286 0.98356 0.46450 0.32100
N 	N 	0.97125 0.00971 0.46123 -0.12800
Cu	Cu	0.67311 0.27127 0.00848 0.94000
Cu	Cu	0.69911 0.25201 0.92461 0.90300
Cu	Cu	0.70295 0.36322 0.95500 0.91400
Cu	Cu	0.69072 0.39954 0.03292 0.92700
C 	C 	0.69366 0.32029 0.08543 0.31200
O 	O 	0.58329 0.23862 0.01481 -0.32100
C 	C 	0.66096 0.30493 0.87476 0.31500
O 	O 	0.72852 0.36905 0.00655 -0.63500
O 	O 	0.65333 0.26985 0.95502 -0.63100
O 	O 	0.70781 0.22125 0.00501 -0.31200
O 	O 	0.76705 0.27323 0.96214 -0.38200
O 	O 	0.70381 0.37448 0.08066 -0.32400
O 	O 	0.75632 0.45459 0.95862 -0.33400
C 	C 	0.75633 0.49419 0.98343 0.40800
C 	C 	0.55987 0.26952 0.00691 0.39100
O 	O 	0.59703 0.32641 0.99892 -0.34100
O 	O 	0.71802 0.47354 0.00796 -0.32500
O 	O 	0.70351 0.28867 0.06068 -0.31900
C 	C 	0.75573 0.23837 0.98774 0.39400
O 	O 	0.69103 0.35714 0.90050 -0.33800
O 	O 	0.65182 0.25258 0.88212 -0.36500
H 	H 	0.77545 0.39376 0.01479 0.21300
H 	H 	0.60712 0.24574 0.94455 0.21500
Cu	Cu	0.70425 0.31078 0.45244 0.94000
Cu	Cu	0.70139 0.26069 0.53083 0.90200
Cu	Cu	0.60213 0.27435 0.49991 0.91400
Cu	Cu	0.58471 0.30772 0.42652 0.92000
C 	C 	0.65858 0.29343 0.37466 0.31600
O 	O 	0.74115 0.40347 0.45323 -0.30800
C 	C 	0.64594 0.29531 0.58117 0.31800
O 	O 	0.60441 0.25817 0.44843 -0.63800
O 	O 	0.69653 0.31873 0.50520 -0.63200
O 	O 	0.75100 0.27241 0.45521 -0.31500
O 	O 	0.68452 0.20131 0.48922 -0.38500
O 	O 	0.63089 0.32019 0.38412 -0.33000
O 	O 	0.50975 0.22617 0.49145 -0.32700
C 	C 	0.47433 0.22998 0.46539 0.39900
C 	C 	0.71296 0.42752 0.46619 0.38300
O 	O 	0.65299 0.38930 0.47015 -0.34400
O 	O 	0.49997 0.26954 0.44186 -0.32400
O 	O 	0.69525 0.28972 0.39979 -0.31400
C 	C 	0.72626 0.21858 0.46717 0.39700
O 	O 	0.59885 0.27652 0.55346 -0.33100
O 	O 	0.69741 0.30018 0.57547 -0.36700
H 	H 	0.57724 0.21254 0.43669 0.20800
H 	H 	0.72262 0.36285 0.51948 0.21100
C 	C 	0.62974 0.31411 0.76570 0.02200
C 	C 	0.58047 0.25917 0.74020 -0.01100
C 	C 	0.57856 0.25831 0.70203 -0.01100
C 	C 	0.62593 0.31238 0.68920 0.02300
C 	C 	0.67306 0.36842 0.71468 -0.01100
C 	C 	0.67495 0.36929 0.75285 -0.01100
C 	C 	0.63876 0.31139 0.80449 0.08000
C 	C 	0.64795 0.30864 0.83673 -0.05400
C 	C 	0.63136 0.30768 0.65066 0.08100
C 	C 	0.63729 0.30269 0.61871 -0.05100
H 	H 	0.54516 0.21639 0.74989 0.08400
H 	H 	0.54181 0.21485 0.68252 0.08500
H 	H 	0.70973 0.41051 0.70500 0.08700
H 	H 	0.71304 0.41206 0.77238 0.08600
C 	C 	0.68126 0.28332 0.19062 0.02700
C 	C 	0.62097 0.24496 0.20064 -0.00900
C 	C 	0.61640 0.24098 0.23795 -0.00900
C 	C 	0.67210 0.27535 0.26540 0.02600
C 	C 	0.73244 0.31147 0.25519 -0.00800
C 	C 	0.73701 0.31545 0.21788 -0.00900
C 	C 	0.68577 0.29475 0.15317 0.08200
C 	C 	0.68944 0.30569 0.12208 -0.04100
C 	C 	0.66728 0.27944 0.30407 0.08400
C 	C 	0.66328 0.28474 0.33637 -0.04100
H 	H 	0.57765 0.21981 0.17972 0.08900
H 	H 	0.56958 0.21287 0.24560 0.08600
H 	H 	0.77573 0.33810 0.27623 0.09200
H 	H 	0.78380 0.34505 0.21035 0.08900
C 	C 	0.80664 0.59563 0.44789 0.23700
C 	C 	0.79488 0.62532 0.47604 0.00700
C 	C 	0.75994 0.59115 0.50247 0.23900
C 	C 	0.73557 0.52724 0.50025 0.31800
C 	C 	0.74539 0.49676 0.47130 -0.20100
C 	C 	0.78180 0.53160 0.44539 0.31900
C 	C 	0.81896 0.69214 0.47763 -0.00100
F 	F 	0.74900 0.61972 0.53005 -0.31700
F 	F 	0.79101 0.50278 0.41694 -0.35600
C 	C 	0.78985 0.70758 0.45147 0.25300
C 	C 	0.81707 0.77139 0.45020 0.30800
C 	C 	0.87344 0.82025 0.47526 -0.13900
C 	C 	0.90048 0.80462 0.50272 0.30600
C 	C 	0.87354 0.74085 0.50375 0.25300
F 	F 	0.73619 0.66071 0.42662 -0.31900
F 	F 	0.95349 0.85135 0.52803 -0.33300
F 	F 	0.79030 0.78572 0.42360 -0.33000
F 	F 	0.90146 0.72635 0.52950 -0.31900
F 	F 	0.84143 0.62870 0.42263 -0.32100
F 	F 	0.70226 0.49484 0.52615 -0.36500
C 	C 	0.81612 0.03908 0.48511 0.25100
C 	C 	0.81972 0.06882 0.45478 -0.00200
C 	C 	0.84860 0.06390 0.42580 0.25300
C 	C 	0.87553 0.03123 0.42770 0.30900
C 	C 	0.87360 0.00303 0.45856 -0.15000
C 	C 	0.84280 0.00616 0.48695 0.30200
C 	C 	0.79589 0.10754 0.45422 0.00700
F 	F 	0.85125 0.09149 0.39605 -0.31800
F 	F 	0.84079 0.97928 0.51695 -0.32700
C 	C 	0.83926 0.17426 0.46312 0.23500
C 	C 	0.81659 0.21088 0.46554 0.31800
C 	C 	0.75028 0.18101 0.45926 -0.20900
C 	C 	0.70698 0.11434 0.44897 0.32000
C 	C 	0.72973 0.07779 0.44642 0.23700
F 	F 	0.90336 0.20346 0.47049 -0.32100
F 	F 	0.64284 0.08500 0.44180 -0.35900
F 	F 	0.85900 0.27520 0.47565 -0.36000
F 	F 	0.68748 0.01338 0.43696 -0.31900
F 	F 	0.78816 0.04348 0.51323 -0.32700
F 	F 	0.90383 0.02721 0.39966 -0.33400
C 	C 	0.15907 0.04186 0.43403 0.25300
C 	C 	0.20360 0.09091 0.46411 0.00000
C 	C 	0.18186 0.10572 0.49384 0.25100
C 	C 	0.11609 0.07151 0.49356 0.31400
C 	C 	0.07165 0.02182 0.46377 -0.15500
C 	C 	0.09334 0.00720 0.43397 0.30800
C 	C 	0.27297 0.12659 0.46455 0.00700
F 	F 	0.22455 0.15279 0.52315 -0.31700
F 	F 	0.05063 0.95951 0.40492 -0.32200
C 	C 	0.30903 0.18979 0.45906 0.24000
C 	C 	0.37485 0.22381 0.45969 0.32200
C 	C 	0.40507 0.19449 0.46523 -0.19800
C 	C 	0.36879 0.13108 0.47060 0.31900
C 	C 	0.30312 0.09745 0.47048 0.23800
F 	F 	0.28019 0.21826 0.45317 -0.31300
F 	F 	0.39699 0.10175 0.47531 -0.36000
F 	F 	0.40952 0.28563 0.45564 -0.34600
F 	F 	0.26867 0.03647 0.47610 -0.31900
F 	F 	0.17962 0.02785 0.40490 -0.31700
F 	F 	0.09551 0.08569 0.52259 -0.33200
C 	C 	0.78606 0.64785 0.96799 0.23800
C 	C 	0.85321 0.69034 0.97732 0.00800
C 	C 	0.88864 0.66738 0.98626 0.23700
C 	C 	0.85698 0.60263 0.98689 0.32200
C 	C 	0.78974 0.56063 0.97897 -0.20300
C 	C 	0.75442 0.58328 0.96896 0.32600
C 	C 	0.88621 0.75919 0.97941 -0.00200
F 	F 	0.95363 0.70810 0.99521 -0.31700
F 	F 	0.68938 0.54269 0.96044 -0.34900
C 	C 	0.88343 0.79461 0.00910 0.25300
C 	C 	0.91615 0.86023 0.01169 0.30900
C 	C 	0.95233 0.89099 0.98479 -0.14000
C 	C 	0.95434 0.85540 0.95480 0.30700
C 	C 	0.92118 0.78969 0.95206 0.25400
F 	F 	0.84989 0.76552 0.03575 -0.31600
F 	F 	0.98843 0.88459 0.92836 -0.33200
F 	F 	0.91432 0.89428 0.04093 -0.32900
F 	F 	0.92324 0.75562 0.92293 -0.31900
F 	F 	0.75150 0.66941 0.95851 -0.31400
F 	F 	0.89150 0.58103 0.99634 -0.36000
C 	C 	0.89627 0.23130 0.99755 0.23500
C 	C 	0.86613 0.16745 0.00064 0.00800
C 	C 	0.80086 0.12853 0.00290 0.23700
C 	C 	0.76518 0.15236 0.00021 0.31900
C 	C 	0.79471 0.21559 0.99553 -0.20600
C 	C 	0.86086 0.25542 0.99525 0.31900
C 	C 	0.90177 0.14019 0.99904 -0.00400
F 	F 	0.77163 0.06708 0.00670 -0.31800
F 	F 	0.89068 0.31736 0.99241 -0.35800
C 	C 	0.94710 0.15459 0.02986 0.25700
C 	C 	0.98011 0.12788 0.02842 0.29700
C 	C 	0.96762 0.08620 0.99626 -0.13500
C 	C 	0.92287 0.07246 0.96531 0.30400
C 	C 	0.89028 0.09954 0.96664 0.25200
F 	F 	0.95852 0.19382 0.06131 -0.31800
F 	F 	0.02301 0.14119 0.05858 -0.32100
F 	F 	0.84742 0.08627 0.93647 -0.32600
F 	F 	0.95958 0.26954 0.99587 -0.31900
F 	F 	0.70140 0.11321 0.00055 -0.35400
C 	C 	0.25949 0.16719 0.97845 0.25300
C 	C 	0.29336 0.15673 0.00471 -0.00100
C 	C 	0.26197 0.11820 0.03051 0.25300
C 	C 	0.19667 0.08873 0.02938 0.30600
C 	C 	0.16221 0.09755 0.00239 -0.13700
C 	C 	0.19413 0.13777 0.97731 0.30700
C 	C 	0.36156 0.18565 0.00500 0.00900
F 	F 	0.29470 0.10885 0.05645 -0.32400
F 	F 	0.16130 0.14647 0.95101 -0.33000
C 	C 	0.40899 0.24866 0.02329 0.23700
C 	C 	0.47376 0.27585 0.02412 0.32100
C 	C 	0.49165 0.24020 0.00659 -0.20600
C 	C 	0.44410 0.17702 0.98834 0.32100
C 	C 	0.37928 0.14988 0.98754 0.23500
F 	F 	0.39224 0.28335 0.04051 -0.31700
F 	F 	0.46065 0.14242 0.97075 -0.36500
F 	F 	0.51928 0.33651 0.04250 -0.36900
F 	F 	0.33361 0.08891 0.96970 -0.32100
F 	F 	0.28970 0.20493 0.95362 -0.31900
N 	N 	0.05578 0.99561 0.99299 -0.09900
N 	N 	0.96265 0.99007 0.99054 -0.10100
F 	F 	0.91117 0.03300 0.93389 -0.33500
F 	F 	0.16663 0.05114 0.05431 -0.33200
