data_crystal

_cell_length_a 15.16093
_cell_length_b 20.69796
_cell_length_c 28.04239
_cell_angle_alpha 90.00108
_cell_angle_beta  76.72115
_cell_angle_gamma 90.00055

_symmetry_space_group_name_	'P 1'
_symmetry_space_group_name_H-M	'P 1'

loop_
_symmetry_equiv_pos_as_xyz
  x,y,z

loop_
_atom_site_label
_atom_site_type_symbol
_atom_site_fract_x
_atom_site_fract_y
_atom_site_fract_z
_atom_site_charge
Cu	Cu	0.52419 0.43431 0.16931 0.94700
Cu	Cu	0.65692 0.51962 0.22163 0.92300
Cu	Cu	0.48930 0.57272 0.20410 0.91100
Cu	Cu	0.33262 0.50045 0.18146 0.91900
C 	C 	0.36170 0.35906 0.18286 0.29200
O 	O 	0.50949 0.45122 0.10036 -0.26800
C 	C 	0.64628 0.65630 0.20266 0.29700
O 	O 	0.42552 0.49151 0.21597 -0.63500
O 	O 	0.59003 0.51592 0.17041 -0.63200
O 	O 	0.61541 0.37730 0.18839 -0.27700
O 	O 	0.62188 0.43987 0.25411 -0.35900
O 	O 	0.32342 0.40738 0.16456 -0.29700
O 	O 	0.39118 0.62550 0.24058 -0.30200
C 	C 	0.30785 0.62582 0.23385 0.29900
C 	C 	0.48089 0.50722 0.08750 0.28900
O 	O 	0.42921 0.54422 0.12061 -0.34300
O 	O 	0.26942 0.57253 0.22244 -0.30900
O 	O 	0.44952 0.35876 0.18047 -0.29600
C 	C 	0.63929 0.38526 0.23008 0.29900
O 	O 	0.56349 0.65081 0.19527 -0.30900
O 	O 	0.69900 0.60547 0.20268 -0.29700
H 	H 	0.40537 0.47942 0.25095 0.21100
H 	H 	0.62397 0.53249 0.13838 0.27900
Cu	Cu	0.47296 0.41264 0.80574 0.94700
Cu	Cu	0.33827 0.48524 0.74772 0.93100
Cu	Cu	0.49981 0.54793 0.76322 0.91300
Cu	Cu	0.66258 0.48364 0.78745 0.93300
C 	C 	0.63958 0.34196 0.79216 0.30300
O 	O 	0.48891 0.43813 0.87298 -0.28700
C 	C 	0.33844 0.62381 0.75849 0.29900
O 	O 	0.56773 0.46809 0.75514 -0.63000
O 	O 	0.40253 0.49099 0.80014 -0.63300
O 	O 	0.38304 0.35059 0.79173 -0.29900
O 	O 	0.37665 0.40258 0.72140 -0.32700
O 	O 	0.67691 0.39265 0.80806 -0.29500
O 	O 	0.59470 0.60033 0.72372 -0.29500
C 	C 	0.67762 0.60470 0.73059 0.29500
C 	C 	0.51625 0.49618 0.88226 0.29700
O 	O 	0.56639 0.53074 0.84686 -0.34500
O 	O 	0.72015 0.55353 0.74227 -0.28600
O 	O 	0.55085 0.33840 0.79822 -0.31300
C 	C 	0.35985 0.35136 0.74950 0.30300
O 	O 	0.42092 0.62331 0.76675 -0.30400
O 	O 	0.28944 0.57063 0.76110 -0.28800
H 	H 	0.58670 0.45293 0.72083 0.24300
H 	H 	0.36680 0.50976 0.83098 0.27800
Cu	Cu	0.94080 0.93523 0.30354 0.95200
Cu	Cu	0.80210 0.02021 0.25494 0.90600
Cu	Cu	0.97303 0.07335 0.26745 0.90100
Cu	Cu	0.13397 0.00115 0.28636 0.91200
C 	C 	0.10379 0.86018 0.28513 0.30100
O 	O 	0.96130 0.95253 0.37129 -0.24900
C 	C 	0.81531 0.15715 0.27312 0.29200
O 	O 	0.03677 0.99213 0.25478 -0.59500
O 	O 	0.87440 0.01682 0.30371 -0.65300
O 	O 	0.84726 0.87813 0.28679 -0.26900
O 	O 	0.83534 0.94055 0.22186 -0.33900
O 	O 	0.14438 0.90804 0.30256 -0.30100
O 	O 	0.06946 0.12600 0.22927 -0.32500
C 	C 	0.15249 0.12731 0.23626 0.30900
C 	C 	0.99241 0.00827 0.38305 0.23000
O 	O 	0.04157 0.04504 0.34881 -0.29700
O 	O 	0.19352 0.07362 0.24446 -0.30900
O 	O 	0.01497 0.85950 0.29134 -0.27900
C 	C 	0.82031 0.88583 0.24595 0.31000
O 	O 	0.89929 0.15140 0.27863 -0.30300
O 	O 	0.76184 0.10646 0.27421 -0.30500
H 	H 	0.05387 0.97964 0.21979 0.23800
H 	H 	0.84324 0.03372 0.33620 0.27500
Cu	Cu	0.03749 0.91275 0.65980 0.95700
Cu	Cu	0.20042 0.98388 0.69903 0.96400
Cu	Cu	0.01734 0.04711 0.70651 0.90800
Cu	Cu	0.84850 0.98521 0.68466 0.94500
C 	C 	0.87015 0.84340 0.67981 0.30500
O 	O 	0.01268 0.93748 0.59414 -0.28100
C 	C 	0.18691 0.11988 0.70218 0.29900
O 	O 	0.94785 0.96816 0.71339 -0.61800
O 	O 	0.10844 0.99183 0.66170 -0.57600
O 	O 	0.12906 0.84935 0.67158 -0.26300
O 	O 	0.15998 0.90737 0.73446 -0.32300
O 	O 	0.82973 0.89407 0.66588 -0.30800
O 	O 	0.92385 0.09736 0.74960 -0.31600
C 	C 	0.84149 0.10562 0.74260 0.29500
C 	C 	0.98400 0.99551 0.58583 0.36700
O 	O 	0.93954 0.03086 0.62245 -0.39300
O 	O 	0.79569 0.05683 0.72984 -0.29500
O 	O 	0.95917 0.83945 0.66981 -0.29900
C 	C 	0.16168 0.85252 0.71098 0.30600
O 	O 	0.09786 0.12144 0.70748 -0.32100
O 	O 	0.23501 0.07042 0.68127 -0.29800
H 	H 	0.93152 0.95105 0.74725 0.25400
H 	H 	0.13203 0.01196 0.62935 0.22100
C 	C 	0.90489 0.01906 0.51976 0.09100
C 	C 	0.98643 0.01548 0.53516 -0.05600
C 	C 	0.06972 0.02437 0.50070 -0.04000
C 	C 	0.07054 0.02468 0.45048 0.05900
C 	C 	0.98917 0.02240 0.43486 0.03500
C 	C 	0.90560 0.02592 0.46981 -0.09300
C 	C 	0.81771 0.03736 0.45403 0.75700
H 	H 	0.84110 0.01447 0.54655 0.08200
H 	H 	0.13443 0.02432 0.42347 0.10900
C 	C 	0.15713 0.03411 0.51731 0.73900
F 	F 	0.74858 0.05534 0.49326 -0.38200
F 	F 	0.79200 0.98150 0.43383 -0.37000
F 	F 	0.82909 0.08655 0.41976 -0.39800
F 	F 	0.18357 0.97644 0.53465 -0.37500
F 	F 	0.14441 0.08012 0.55404 -0.42200
F 	F 	0.22637 0.05542 0.47932 -0.37500
C 	C 	0.78779 0.74920 0.65725 0.06800
C 	C 	0.81746 0.78398 0.69350 0.02400
C 	C 	0.80219 0.75948 0.74177 -0.07800
C 	C 	0.75918 0.69934 0.75250 0.06300
C 	C 	0.72944 0.66449 0.71632 0.02400
C 	C 	0.74679 0.68828 0.66764 -0.06900
C 	C 	0.71989 0.64990 0.62700 0.78300
H 	H 	0.79848 0.76916 0.62064 0.11600
H 	H 	0.74730 0.67984 0.78930 0.10400
C 	C 	0.83190 0.79744 0.78174 0.78100
F 	F 	0.76422 0.67223 0.58121 -0.38300
F 	F 	0.62758 0.65558 0.63112 -0.39400
F 	F 	0.74207 0.58536 0.62974 -0.39000
F 	F 	0.79702 0.85943 0.78406 -0.41500
F 	F 	0.92548 0.80057 0.77156 -0.43100
F 	F 	0.80197 0.76919 0.82735 -0.38000
C 	C 	0.66923 0.22725 0.80950 0.06400
C 	C 	0.69383 0.28232 0.78027 0.02300
C 	C 	0.76943 0.27988 0.73973 -0.08000
C 	C 	0.81990 0.22235 0.72999 0.06200
C 	C 	0.79375 0.16687 0.75835 0.02000
C 	C 	0.72025 0.16990 0.79994 -0.06900
C 	C 	0.69419 0.11181 0.83331 0.78200
H 	H 	0.61045 0.22930 0.83992 0.11900
H 	H 	0.87849 0.22003 0.69948 0.09800
C 	C 	0.79652 0.33842 0.70690 0.78100
F 	F 	0.63841 0.12943 0.87776 -0.38200
F 	F 	0.77056 0.08300 0.84301 -0.39700
F 	F 	0.64855 0.06744 0.81103 -0.38400
F 	F 	0.83083 0.38585 0.73228 -0.41300
F 	F 	0.72213 0.36243 0.69190 -0.43400
F 	F 	0.86218 0.32321 0.66530 -0.38500
C 	C 	0.35485 0.23277 0.74101 0.07100
C 	C 	0.31920 0.29323 0.73300 0.01900
C 	C 	0.23970 0.29669 0.71443 -0.07100
C 	C 	0.20213 0.23923 0.70110 0.06600
C 	C 	0.23409 0.17885 0.71245 0.02800
C 	C 	0.30853 0.17571 0.73519 -0.07900
C 	C 	0.33904 0.11214 0.75341 0.78000
H 	H 	0.41687 0.23046 0.75398 0.10500
H 	H 	0.14657 0.24133 0.68278 0.11900
C 	C 	0.19485 0.36100 0.70854 0.77800
F 	F 	0.39288 0.12250 0.78645 -0.38900
F 	F 	0.38889 0.07743 0.71425 -0.40800
F 	F 	0.26519 0.07594 0.77713 -0.44300
F 	F 	0.24712 0.39448 0.66944 -0.40900
F 	F 	0.18476 0.39758 0.75076 -0.43700
F 	F 	0.10942 0.35240 0.69970 -0.37600
C 	C 	0.33878 0.72284 0.70916 0.06300
C 	C 	0.29751 0.68620 0.75027 0.02700
C 	C 	0.21565 0.70803 0.78143 -0.06300
C 	C 	0.17102 0.76174 0.76712 0.06500
C 	C 	0.21084 0.79704 0.72503 0.03100
C 	C 	0.29769 0.77952 0.69707 -0.07500
C 	C 	0.34512 0.81969 0.65331 0.78400
H 	H 	0.40205 0.70621 0.68598 0.11600
H 	H 	0.10504 0.77606 0.78861 0.14000
C 	C 	0.17424 0.67346 0.82908 0.78100
F 	F 	0.43480 0.80143 0.63668 -0.37600
F 	F 	0.34401 0.88435 0.66597 -0.42600
F 	F 	0.30152 0.81188 0.61547 -0.38300
F 	F 	0.24070 0.65564 0.85307 -0.36600
F 	F 	0.12870 0.61897 0.81931 -0.37200
F 	F 	0.11342 0.71293 0.86042 -0.35700
C 	C 	0.18359 0.76490 0.30832 0.06600
C 	C 	0.15380 0.79939 0.27195 0.02600
C 	C 	0.17173 0.77557 0.22338 -0.08000
C 	C 	0.21971 0.71727 0.21222 0.06400
C 	C 	0.25092 0.68338 0.24837 0.02000
C 	C 	0.22927 0.70567 0.29747 -0.07000
C 	C 	0.25706 0.66776 0.33805 0.78300
H 	H 	0.17049 0.78416 0.34523 0.11800
H 	H 	0.23450 0.69862 0.17512 0.10400
C 	C 	0.14029 0.81249 0.18347 0.78300
F 	F 	0.20970 0.68801 0.38386 -0.38100
F 	F 	0.34857 0.67654 0.33507 -0.39900
F 	F 	0.23959 0.60260 0.33408 -0.40300
F 	F 	0.17272 0.87517 0.18103 -0.42900
F 	F 	0.04663 0.81373 0.19379 -0.42100
F 	F 	0.17094 0.78441 0.13785 -0.38300
C 	C 	0.63851 0.76183 0.24471 0.06100
C 	C 	0.68325 0.72137 0.20673 0.02300
C 	C 	0.76610 0.74170 0.17569 -0.06900
C 	C 	0.80971 0.79676 0.18862 0.06400
C 	C 	0.76791 0.83454 0.22894 0.02200
C 	C 	0.67867 0.81980 0.25497 -0.07800
C 	C 	0.62811 0.86383 0.29542 0.78400
H 	H 	0.57389 0.74684 0.26744 0.11100
H 	H 	0.87709 0.80942 0.16801 0.13100
C 	C 	0.80979 0.70407 0.12990 0.78200
F 	F 	0.53622 0.85027 0.30719 -0.38200
F 	F 	0.63847 0.92776 0.28075 -0.42800
F 	F 	0.66160 0.85556 0.33690 -0.38300
F 	F 	0.74481 0.68095 0.10675 -0.37000
F 	F 	0.85843 0.65279 0.14236 -0.38000
F 	F 	0.86835 0.74291 0.09681 -0.36800
C 	C 	0.82312 0.26353 0.23230 0.06100
C 	C 	0.77825 0.22234 0.26974 0.02400
C 	C 	0.69497 0.24205 0.30068 -0.07400
C 	C 	0.65060 0.29667 0.28766 0.06400
C 	C 	0.69244 0.33499 0.24766 0.01500
C 	C 	0.78241 0.32133 0.22223 -0.08200
C 	C 	0.83319 0.36625 0.18249 0.78300
H 	H 	0.88822 0.24918 0.20975 0.09500
H 	H 	0.58259 0.30849 0.30788 0.10400
C 	C 	0.65181 0.20438 0.34653 0.78200
F 	F 	0.92548 0.35419 0.17198 -0.39900
F 	F 	0.82011 0.42999 0.19734 -0.44300
F 	F 	0.80232 0.35747 0.14022 -0.39500
F 	F 	0.71715 0.18076 0.36924 -0.37200
F 	F 	0.60229 0.15344 0.33430 -0.38700
F 	F 	0.59415 0.24342 0.37992 -0.37900
C 	C 	0.24163 0.20037 0.17321 0.06500
C 	C 	0.20714 0.18605 0.22284 0.01800
C 	C 	0.22416 0.22820 0.25941 -0.07800
C 	C 	0.27627 0.28417 0.24535 0.05900
C 	C 	0.31032 0.29877 0.19575 0.02000
C 	C 	0.29482 0.25591 0.15912 -0.07200
C 	C 	0.33287 0.27011 0.10513 0.78100
H 	H 	0.22692 0.16805 0.14564 0.10700
H 	H 	0.28992 0.31692 0.27293 0.09500
C 	C 	0.18626 0.21361 0.31334 0.77900
F 	F 	0.32071 0.21860 0.07580 -0.39200
F 	F 	0.42488 0.28236 0.09660 -0.40000
F 	F 	0.28961 0.32344 0.09144 -0.39300
F 	F 	0.22203 0.15608 0.32549 -0.41500
F 	F 	0.09289 0.20831 0.32253 -0.41000
F 	F 	0.20708 0.26166 0.34331 -0.38700
C 	C 	0.41254 0.52271 0.01619 0.05300
C 	C 	0.49037 0.52169 0.03517 0.03500
C 	C 	0.57683 0.52721 0.00301 -0.09200
C 	C 	0.58437 0.52131 0.95230 0.08700
C 	C 	0.50658 0.51653 0.93349 0.01300
C 	C 	0.42004 0.52355 0.96530 -0.05600
C 	C 	0.33618 0.53214 0.94518 0.77800
H 	H 	0.34630 0.52065 0.04106 0.10900
H 	H 	0.65065 0.51817 0.92755 0.09800
C 	C 	0.66046 0.53994 0.02256 0.77700
F 	F 	0.26340 0.55399 0.98091 -0.36300
F 	F 	0.31277 0.47380 0.92749 -0.40500
F 	F 	0.35284 0.57720 0.90776 -0.40100
F 	F 	0.68418 0.48458 0.04421 -0.40500
F 	F 	0.64319 0.58922 0.05676 -0.40200
F 	F 	0.73329 0.55858 0.98558 -0.36400
