data_crystal

_cell_length_a 26.34232
_cell_length_b 26.46221
_cell_length_c 26.21837
_cell_angle_alpha 95.47936
_cell_angle_beta  95.47940
_cell_angle_gamma 125.86457

_symmetry_space_group_name_	'P 1'
_symmetry_space_group_name_H-M	'P 1'

loop_
_symmetry_equiv_pos_as_xyz
  x,y,z

loop_
_atom_site_label
_atom_site_type_symbol
_atom_site_fract_x
_atom_site_fract_y
_atom_site_fract_z
_atom_site_charge
C 	C 	0.95731 0.01791 0.99063 0.04100
C 	C 	0.01871 0.04885 0.97916 -0.06800
C 	C 	0.04627 0.01692 0.97529 0.03900
C 	C 	0.01074 0.95279 0.97971 -0.06600
C 	C 	0.94877 0.92125 0.99010 0.04200
C 	C 	0.92295 0.95456 0.99721 -0.07800
H 	H 	0.04526 0.09781 0.97397 0.06000
H 	H 	0.03140 0.92759 0.97533 0.06100
H 	H 	0.87574 0.93087 0.00668 0.07200
C 	C 	0.95456 0.02008 0.46150 0.03200
C 	C 	0.01963 0.05598 0.45922 -0.06300
C 	C 	0.05131 0.02817 0.46179 0.03500
C 	C 	0.01805 0.96449 0.46686 -0.06000
C 	C 	0.95351 0.92894 0.47108 0.03500
C 	C 	0.92173 0.95683 0.46823 -0.06500
H 	H 	0.04533 0.10519 0.45492 0.06200
H 	H 	0.04235 0.94267 0.46766 0.06100
H 	H 	0.87162 0.92929 0.47071 0.06000
Cu	Cu	0.62327 0.22345 0.99626 0.93100
Cu	Cu	0.68343 0.23762 0.88942 0.87400
Cu	Cu	0.66460 0.32868 0.93400 0.90000
Cu	Cu	0.62208 0.33957 0.03346 0.90400
C 	C 	0.63936 0.26799 0.10495 0.32700
O 	O 	0.52984 0.18459 0.99175 -0.35000
C 	C 	0.65440 0.30042 0.82146 0.32600
O 	O 	0.67496 0.32254 0.00550 -0.63600
O 	O 	0.61980 0.23521 0.92291 -0.64100
O 	O 	0.66173 0.17748 0.99288 -0.35400
O 	O 	0.73685 0.24706 0.94936 -0.43100
O 	O 	0.60966 0.29276 0.09209 -0.36300
O 	O 	0.71370 0.41990 0.94850 -0.36600
C 	C 	0.70708 0.45238 0.98524 0.28400
C 	C 	0.50538 0.21182 0.97298 0.28500
O 	O 	0.54313 0.27214 0.96989 -0.37700
O 	O 	0.65950 0.42324 0.01106 -0.36400
O 	O 	0.63966 0.22870 0.07006 -0.33300
C 	C 	0.71566 0.20136 0.97631 0.29600
O 	O 	0.64825 0.33093 0.86041 -0.35700
O 	O 	0.65201 0.24981 0.82613 -0.39600
H 	H 	0.71985 0.34935 0.02411 0.18500
H 	H 	0.57693 0.21032 0.90059 0.19200
Cu	Cu	0.74551 0.34972 0.43373 0.93200
Cu	Cu	0.73879 0.29999 0.54436 0.87700
Cu	Cu	0.64712 0.32233 0.50130 0.90200
Cu	Cu	0.62636 0.34672 0.39554 0.90400
C 	C 	0.69409 0.32289 0.32512 0.32900
O 	O 	0.78232 0.44179 0.43219 -0.34200
C 	C 	0.68163 0.33406 0.61366 0.32400
O 	O 	0.64618 0.29892 0.42948 -0.63800
O 	O 	0.73976 0.36108 0.50799 -0.63800
O 	O 	0.79286 0.31258 0.43923 -0.34800
O 	O 	0.72562 0.24211 0.48664 -0.42600
O 	O 	0.67165 0.35499 0.33664 -0.36600
O 	O 	0.55585 0.27796 0.49276 -0.35800
C 	C 	0.51862 0.27368 0.45232 0.29600
C 	C 	0.75476 0.46685 0.44928 0.28400
O 	O 	0.69506 0.42978 0.45499 -0.38600
O 	O 	0.54219 0.30957 0.41668 -0.37600
O 	O 	0.73482 0.32463 0.36010 -0.33700
C 	C 	0.76961 0.26037 0.45805 0.29200
O 	O 	0.65091 0.34186 0.57614 -0.35400
O 	O 	0.73228 0.33693 0.60737 -0.39600
H 	H 	0.61800 0.25264 0.41571 0.18400
H 	H 	0.76813 0.40528 0.52773 0.18700
C 	C 	0.60955 0.28068 0.67643 0.09700
C 	C 	0.66657 0.33406 0.66626 -0.10700
C 	C 	0.71296 0.38300 0.70786 0.10600
C 	C 	0.70729 0.37388 0.75958 0.09900
C 	C 	0.65370 0.31691 0.76951 -0.10700
C 	C 	0.60271 0.27271 0.72825 0.10700
Br	Br	0.52345 0.20212 0.74296 -0.18400
Br	Br	0.54233 0.21716 0.61942 -0.19900
Br	Br	0.77434 0.43773 0.81651 -0.21000
Br	Br	0.78345 0.46264 0.69380 -0.18800
C 	C 	0.73413 0.32855 0.24164 0.10700
C 	C 	0.68442 0.29676 0.26998 -0.10600
C 	C 	0.62257 0.24598 0.24355 0.10000
C 	C 	0.60854 0.23287 0.18872 0.10800
C 	C 	0.65658 0.27032 0.16050 -0.10400
C 	C 	0.72005 0.31534 0.18676 0.10000
Br	Br	0.78710 0.36033 0.14742 -0.20800
Br	Br	0.82095 0.39089 0.27780 -0.16300
Br	Br	0.52342 0.16469 0.15213 -0.17700
Br	Br	0.55705 0.19539 0.28273 -0.22300
C 	C 	0.83961 0.74998 0.43622 -0.01800
C 	C 	0.86363 0.73271 0.47584 0.00800
C 	C 	0.91232 0.77970 0.51702 -0.03600
C 	C 	0.93880 0.84372 0.51791 -0.01500
C 	C 	0.91848 0.86141 0.47594 0.00100
C 	C 	0.86770 0.81416 0.43607 -0.03400
C 	C 	0.84085 0.66603 0.47265 0.02800
C 	C 	0.85583 0.63943 0.43358 -0.05700
C 	C 	0.82930 0.57481 0.42601 0.02800
C 	C 	0.78967 0.53662 0.45975 -0.07600
C 	C 	0.77800 0.56440 0.50089 0.01200
C 	C 	0.80243 0.62846 0.50696 -0.03900
C 	C 	0.84007 0.54765 0.38176 0.09100
C 	C 	0.78631 0.65475 0.54753 0.09900
C 	C 	0.78622 0.70209 0.39558 0.08900
C 	C 	0.98620 0.89089 0.56223 0.08200
N 	N 	0.84882 0.52612 0.34623 -0.08300
N 	N 	0.77343 0.67585 0.58003 -0.10500
N 	N 	0.02419 0.92871 0.59771 -0.10200
N 	N 	0.74345 0.66369 0.36304 -0.10600
H 	H 	0.85106 0.82748 0.40431 0.05300
H 	H 	0.92991 0.76640 0.54812 0.05600
H 	H 	0.88616 0.66862 0.40766 0.06100
H 	H 	0.74830 0.53560 0.52729 0.04800
C 	C 	0.77585 0.12146 0.43309 -0.03900
C 	C 	0.84180 0.15157 0.44679 0.02900
C 	C 	0.88444 0.21795 0.45998 -0.05900
C 	C 	0.86173 0.25439 0.46201 0.02800
C 	C 	0.79544 0.22415 0.44987 -0.08200
C 	C 	0.75306 0.15784 0.43459 0.01600
C 	C 	0.86652 0.11385 0.45005 0.00700
C 	C 	0.88025 0.09428 0.40522 -0.03600
C 	C 	0.90692 0.06157 0.40812 -0.01600
C 	C 	0.92072 0.04887 0.45653 0.00100
C 	C 	0.90524 0.06682 0.50105 -0.03500
C 	C 	0.87815 0.09911 0.49806 -0.01900
C 	C 	0.91976 0.04098 0.36129 0.08800
C 	C 	0.86266 0.11723 0.54441 0.08600
C 	C 	0.73119 0.05319 0.41845 0.09500
C 	C 	0.90656 0.32241 0.47890 0.07700
N 	N 	0.93007 0.02447 0.32379 -0.10300
N 	N 	0.85023 0.13178 0.58152 -0.11100
N 	N 	0.94251 0.37689 0.49244 -0.10300
N 	N 	0.69545 0.99848 0.40673 -0.10300
H 	H 	0.70217 0.13447 0.42486 0.04800
H 	H 	0.93524 0.24110 0.47014 0.05900
H 	H 	0.87054 0.10490 0.36817 0.05600
H 	H 	0.91529 0.05655 0.53819 0.05100
C 	C 	0.23000 0.13023 0.50498 -0.01600
C 	C 	0.25038 0.13442 0.45671 0.00800
C 	C 	0.20531 0.10467 0.41011 -0.03500
C 	C 	0.14017 0.07062 0.41127 -0.01500
C 	C 	0.11977 0.06596 0.45956 0.00200
C 	C 	0.16486 0.09597 0.50614 -0.03400
C 	C 	0.31897 0.17009 0.45461 0.03100
C 	C 	0.34818 0.13987 0.45896 -0.05500
C 	C 	0.41328 0.17305 0.45791 0.03200
C 	C 	0.44974 0.23731 0.45244 -0.07100
C 	C 	0.42027 0.26728 0.44759 0.01800
C 	C 	0.35522 0.23409 0.44874 -0.03900
C 	C 	0.44191 0.14040 0.46119 0.08800
C 	C 	0.32611 0.26617 0.44443 0.09900
C 	C 	0.27569 0.16112 0.55341 0.09300
C 	C 	0.09451 0.04037 0.36283 0.09000
N 	N 	0.46486 0.11427 0.46383 -0.10200
N 	N 	0.30273 0.29182 0.44097 -0.10700
N 	N 	0.05789 0.01612 0.32404 -0.10100
N 	N 	0.31235 0.18588 0.59218 -0.09700
H 	H 	0.14912 0.09235 0.54327 0.05500
H 	H 	0.22104 0.10812 0.37299 0.05600
H 	H 	0.32015 0.09052 0.46323 0.06300
H 	H 	0.44821 0.31672 0.44357 0.04900
C 	C 	0.90404 0.76851 0.03017 -0.01200
C 	C 	0.84523 0.72303 0.99609 0.00200
C 	C 	0.81882 0.74311 0.96203 -0.03600
C 	C 	0.85230 0.80746 0.95925 -0.01300
C 	C 	0.91098 0.85309 0.99360 -0.01000
C 	C 	0.93570 0.83320 0.02962 -0.02300
C 	C 	0.81225 0.65405 0.99406 0.02000
C 	C 	0.78666 0.62700 0.03699 -0.04600
C 	C 	0.75559 0.56204 0.03591 0.03400
C 	C 	0.74517 0.52235 0.98961 -0.07700
C 	C 	0.77108 0.54975 0.94672 0.01200
C 	C 	0.80581 0.61529 0.94924 -0.03600
C 	C 	0.73828 0.53758 0.08331 0.08200
C 	C 	0.83563 0.64257 0.90595 0.10200
C 	C 	0.93322 0.74910 0.06459 0.09100
C 	C 	0.82766 0.82587 0.91941 0.08500
N 	N 	0.72451 0.51807 0.12133 -0.10500
N 	N 	0.85951 0.66444 0.87130 -0.10200
N 	N 	0.80795 0.84063 0.88750 -0.10700
N 	N 	0.95656 0.73352 0.09214 -0.10200
H 	H 	0.98056 0.86812 0.05625 0.05300
H 	H 	0.77332 0.70823 0.93616 0.05500
H 	H 	0.79232 0.65690 0.07176 0.06000
H 	H 	0.76414 0.52002 0.91127 0.06800
C 	C 	0.85486 0.19576 0.00807 -0.03400
C 	C 	0.82465 0.12996 0.99658 0.02200
C 	C 	0.75806 0.08741 0.98250 -0.06000
C 	C 	0.72160 0.10993 0.97698 0.03000
C 	C 	0.75197 0.17601 0.98694 -0.09400
C 	C 	0.81841 0.21840 0.00343 0.02800
C 	C 	0.86257 0.10529 0.99538 -0.00100
C 	C 	0.88486 0.09640 0.04187 -0.02700
C 	C 	0.91774 0.06978 0.04104 -0.00700
C 	C 	0.92753 0.05085 0.99309 -0.01000
C 	C 	0.90664 0.06124 0.94679 -0.03200
C 	C 	0.87455 0.08862 0.94771 -0.01900
C 	C 	0.94182 0.06260 0.08951 0.08900
C 	C 	0.85397 0.09944 0.89960 0.08600
C 	C 	0.92335 0.24037 0.02355 0.10100
C 	C 	0.65354 0.06504 0.95856 0.07500
N 	N 	0.96114 0.05683 0.12831 -0.10200
N 	N 	0.83746 0.10813 0.86109 -0.11100
N 	N 	0.59904 0.02904 0.94378 -0.10300
N 	N 	0.97823 0.27607 0.03594 -0.10500
H 	H 	0.84183 0.26911 0.01171 0.04900
H 	H 	0.73486 0.03674 0.97400 0.05800
H 	H 	0.87633 0.10997 0.07861 0.05600
H 	H 	0.91472 0.04726 0.90997 0.05100
C 	C 	0.18883 0.05555 0.91821 -0.01400
C 	C 	0.23967 0.10329 0.95829 -0.00500
C 	C 	0.22702 0.12692 0.00151 -0.02500
C 	C 	0.16411 0.10013 0.00704 -0.00800
C 	C 	0.11305 0.05091 0.96771 -0.00600
C 	C 	0.12594 0.03026 0.92281 -0.03800
C 	C 	0.30578 0.12509 0.95763 0.03300
C 	C 	0.34084 0.16600 0.92403 -0.05900
C 	C 	0.40500 0.19101 0.92586 0.02700
C 	C 	0.43546 0.17758 0.96364 -0.07400
C 	C 	0.39933 0.13409 0.99537 0.00400
C 	C 	0.33467 0.10726 0.99208 -0.04700
C 	C 	0.43821 0.22782 0.88741 0.08400
C 	C 	0.29823 0.06155 0.02430 0.11300
C 	C 	0.20069 0.03089 0.87306 0.08800
C 	C 	0.15233 0.12136 0.05424 0.09000
N 	N 	0.46481 0.25726 0.85660 -0.09300
N 	N 	0.26900 0.02494 0.05009 -0.10500
N 	N 	0.14284 0.13833 0.09202 -0.10100
N 	N 	0.21023 0.01116 0.83690 -0.10300
H 	H 	0.08680 0.99298 0.89225 0.05600
H 	H 	0.26620 0.16426 0.03201 0.05400
H 	H 	0.31811 0.17827 0.89644 0.06100
H 	H 	0.42198 0.12237 0.02363 0.07100
