data_crystal

_cell_length_a 23.06514
_cell_length_b 18.65904
_cell_length_c 54.20683
_cell_angle_alpha 90.57273
_cell_angle_beta  91.10273
_cell_angle_gamma 110.65190

_symmetry_space_group_name_	'P 1'
_symmetry_space_group_name_H-M	'P 1'

loop_
_symmetry_equiv_pos_as_xyz
  x,y,z

loop_
_atom_site_label
_atom_site_type_symbol
_atom_site_fract_x
_atom_site_fract_y
_atom_site_fract_z
_atom_site_charge
Ni	Ni	0.61770 0.21548 0.89767 1.10100
O 	O 	0.63575 0.29539 0.87011 -0.69800
Ni	Ni	0.71968 0.29530 0.86007 1.09600
O 	O 	0.54859 0.24204 0.91432 -0.36600
O 	O 	0.56539 0.36303 0.90159 -0.40800
O 	O 	0.55029 0.13677 0.87603 -0.37000
Ni	Ni	0.64864 0.39867 0.88323 1.06700
O 	O 	0.60866 0.04521 0.89364 -0.40400
O 	O 	0.69721 0.37934 0.91273 -0.42500
O 	O 	0.74184 0.38505 0.83627 -0.38600
O 	O 	0.69602 0.20886 0.88493 -0.71000
O 	O 	0.60562 0.13298 0.92322 -0.37900
O 	O 	0.79683 0.27197 0.85018 -0.36600
O 	O 	0.74058 0.14573 0.84218 -0.41000
Ni	Ni	0.67520 0.10721 0.86965 1.06500
H 	H 	0.60530 0.28101 0.85617 0.15700
H 	H 	0.72739 0.21668 0.89838 0.15500
C 	C 	0.75189 0.37321 0.91001 0.29000
O 	O 	0.61071 0.11948 0.84544 -0.41500
C 	C 	0.55289 0.31264 0.91925 0.31000
C 	C 	0.74125 0.45204 0.84372 0.30100
C 	C 	0.55736 0.12077 0.85290 0.30300
C 	C 	0.79439 0.20139 0.84584 0.29200
C 	C 	0.60443 0.06395 0.91706 0.29500
O 	O 	0.77256 0.36709 0.88779 -0.36700
O 	O 	0.72865 0.46212 0.86675 -0.41100
Ni	Ni	0.63097 0.43389 0.60471 1.10100
O 	O 	0.68974 0.43341 0.57684 -0.69900
Ni	Ni	0.74502 0.38550 0.59336 1.10000
O 	O 	0.60404 0.51868 0.58983 -0.37300
O 	O 	0.70496 0.59089 0.58522 -0.42300
O 	O 	0.55920 0.35252 0.58547 -0.37200
Ni	Ni	0.74153 0.52908 0.56237 1.07300
O 	O 	0.54348 0.29202 0.63066 -0.40400
O 	O 	0.82390 0.55985 0.58213 -0.39800
O 	O 	0.81493 0.40637 0.56801 -0.37100
O 	O 	0.67844 0.37267 0.61923 -0.70200
O 	O 	0.57237 0.42316 0.63314 -0.37800
O 	O 	0.78232 0.31847 0.61322 -0.36500
O 	O 	0.68878 0.22051 0.61507 -0.40900
Ni	Ni	0.62120 0.26793 0.62225 1.06600
H 	H 	0.66705 0.39905 0.56312 0.15600
H 	H 	0.69640 0.39414 0.63560 0.15600
C 	C 	0.82893 0.54540 0.60551 0.31900
O 	O 	0.59796 0.25536 0.58566 -0.41600
C 	C 	0.64629 0.58194 0.58220 0.30100
C 	C 	0.81457 0.43674 0.54596 0.31000
C 	C 	0.56362 0.29031 0.57535 0.30600
C 	C 	0.74715 0.25278 0.62245 0.28900
C 	C 	0.54310 0.35478 0.64233 0.27600
O 	O 	0.79717 0.47834 0.61451 -0.39100
O 	O 	0.77188 0.46515 0.53926 -0.42200
Ni	Ni	0.14202 0.05626 0.74745 1.09900
O 	O 	0.07077 0.06114 0.72580 -0.70900
Ni	Ni	0.00238 0.96674 0.73593 1.08900
O 	O 	0.20025 0.15545 0.73261 -0.37400
O 	O 	0.18010 0.10264 0.69359 -0.41300
O 	O 	0.11218 0.11816 0.77233 -0.38300
Ni	Ni	0.08316 0.05483 0.69072 1.06100
O 	O 	0.16796 0.93186 0.78644 -0.42000
O 	O 	0.09217 0.94969 0.69188 -0.41500
O 	O 	0.93383 0.98870 0.71695 -0.36900
O 	O 	0.07800 0.95169 0.75250 -0.70800
O 	O 	0.21077 0.05553 0.77190 -0.37400
O 	O 	0.93750 0.87777 0.75360 -0.36300
O 	O 	0.98601 0.91450 0.79112 -0.41000
Ni	Ni	0.07882 0.92886 0.78764 1.06200
H 	H 	0.06019 0.10701 0.72962 0.15100
H 	H 	0.09034 0.91383 0.74312 0.14900
C 	C 	0.04422 0.88699 0.69495 0.27100
O 	O 	0.10524 0.03550 0.80342 -0.39500
C 	C 	0.21185 0.15933 0.70885 0.28500
C 	C 	0.94563 0.01792 0.69463 0.27500
C 	C 	0.08927 0.08974 0.79351 0.28100
C 	C 	0.94338 0.86419 0.77713 0.27400
C 	C 	0.21679 0.99342 0.78144 0.28500
O 	O 	0.99796 0.88794 0.70852 -0.34900
O 	O 	0.99040 0.00797 0.68146 -0.39400
Ni	Ni	0.35668 0.79988 0.39666 1.09900
O 	O 	0.32254 0.69071 0.38274 -0.70500
Ni	Ni	0.24376 0.68985 0.36648 1.10100
O 	O 	0.43205 0.78119 0.41195 -0.37200
O 	O 	0.36888 0.67966 0.43346 -0.41200
O 	O 	0.39947 0.82583 0.36370 -0.40400
Ni	Ni	0.30222 0.61333 0.40788 1.06600
O 	O 	0.31124 0.95424 0.39730 -0.41300
O 	O 	0.24407 0.65764 0.42482 -0.42300
O 	O 	0.21954 0.58324 0.35112 -0.37800
O 	O 	0.27283 0.79393 0.38458 -0.70300
O 	O 	0.39197 0.91287 0.40760 -0.38500
O 	O 	0.17674 0.71116 0.34538 -0.37100
O 	O 	0.24511 0.82712 0.33400 -0.41200
Ni	Ni	0.28362 0.88768 0.36623 1.07100
H 	H 	0.35008 0.68066 0.37045 0.15800
H 	H 	0.24691 0.79268 0.39902 0.15400
C 	C 	0.18781 0.64333 0.41628 0.31600
O 	O 	0.37232 0.92815 0.35285 -0.39500
C 	C 	0.42485 0.72645 0.42805 0.29100
C 	C 	0.22352 0.52603 0.36442 0.29000
C 	C 	0.41275 0.89290 0.35365 0.32700
C 	C 	0.18831 0.77637 0.33386 0.27400
C 	C 	0.35694 0.95386 0.41248 0.29800
O 	O 	0.17670 0.64352 0.39241 -0.37300
O 	O 	0.23007 0.53293 0.38883 -0.40800
Ni	Ni	0.31940 0.59288 0.10414 1.09800
O 	O 	0.24858 0.56968 0.07820 -0.70000
Ni	Ni	0.19868 0.62910 0.09276 1.09700
O 	O 	0.35631 0.51677 0.08972 -0.36300
O 	O 	0.26621 0.41868 0.08108 -0.40900
O 	O 	0.37852 0.67102 0.08096 -0.37100
Ni	Ni	0.19474 0.46115 0.07714 1.06500
O 	O 	0.40878 0.74984 0.12290 -0.40800
O 	O 	0.18709 0.46087 0.11452 -0.42200
O 	O 	0.13039 0.60126 0.06612 -0.38100
O 	O 	0.27023 0.65331 0.11818 -0.70400
O 	O 	0.38783 0.62321 0.13070 -0.38000
O 	O 	0.16226 0.70428 0.10842 -0.36500
O 	O 	0.25376 0.80434 0.11154 -0.41000
Ni	Ni	0.32469 0.76167 0.11718 1.06500
H 	H 	0.26292 0.58786 0.06153 0.15000
H 	H 	0.25650 0.63724 0.13509 0.15500
C 	C 	0.14917 0.48935 0.12501 0.30400
O 	O 	0.33234 0.76049 0.07986 -0.41800
C 	C 	0.32333 0.45906 0.07550 0.30100
C 	C 	0.10423 0.52974 0.05853 0.29500
C 	C 	0.36438 0.72395 0.06911 0.30200
C 	C 	0.19717 0.76926 0.11896 0.29600
C 	C 	0.41806 0.69587 0.13622 0.29800
O 	O 	0.13932 0.54899 0.11558 -0.36900
O 	O 	0.11130 0.47413 0.07158 -0.41400
Ni	Ni	0.82933 0.95863 0.25566 1.09700
O 	O 	0.89741 0.95999 0.23222 -0.70800
Ni	Ni	0.97059 0.04072 0.24816 1.10600
O 	O 	0.76528 0.87470 0.23473 -0.37100
O 	O 	0.78922 0.94971 0.20048 -0.41100
O 	O 	0.85383 0.87741 0.27380 -0.38500
Ni	Ni	0.88601 0.98878 0.19874 1.06400
O 	O 	0.81421 0.06093 0.30512 -0.41100
O 	O 	0.88759 0.09551 0.20850 -0.41400
O 	O 	0.03480 0.02306 0.22618 -0.37400
O 	O 	0.89905 0.05356 0.26753 -0.69700
O 	O 	0.76374 0.95151 0.28149 -0.38000
O 	O 	0.04033 0.10978 0.27119 -0.37200
O 	O 	0.99052 0.05446 0.30581 -0.39600
Ni	Ni	0.90049 0.05397 0.30373 1.07200
H 	H 	0.90419 0.91046 0.23199 0.15900
H 	H 	0.89011 0.09886 0.26179 0.15400
C 	C 	0.93991 0.15093 0.21413 0.29900
O 	O 	0.86728 0.93973 0.31056 -0.39900
C 	C 	0.75544 0.88557 0.21125 0.27100
C 	C 	0.02035 0.00573 0.20257 0.26100
C 	C 	0.87962 0.89139 0.29584 0.31800
C 	C 	0.03576 0.10881 0.29535 0.26000
C 	C 	0.76258 0.00917 0.29565 0.28900
O 	O 	0.98194 0.13825 0.22838 -0.36400
O 	O 	0.97876 0.02900 0.19113 -0.39100
C 	C 	0.02443 0.34719 0.17137 0.00600
C 	C 	0.97745 0.28391 0.16064 -0.04300
C 	C 	0.94391 0.22232 0.17523 0.01800
C 	C 	0.10585 0.44298 0.14227 -0.10300
C 	C 	0.99980 0.29060 0.21166 0.05900
C 	C 	0.03349 0.35197 0.19704 -0.08200
C 	C 	0.06867 0.40089 0.15587 0.03800
C 	C 	0.95757 0.22346 0.20063 -0.09600
H 	H 	0.96932 0.28044 0.14083 0.04800
H 	H 	0.91074 0.17154 0.16648 0.02400
H 	H 	0.00955 0.29315 0.23135 0.01200
H 	H 	0.06883 0.40139 0.20555 0.05100
C 	C 	0.58230 0.76233 0.17488 0.01400
C 	C 	0.58528 0.77172 0.20060 -0.05700
C 	C 	0.64234 0.80875 0.21271 0.01100
C 	C 	0.47446 0.71576 0.15066 -0.10000
C 	C 	0.69397 0.82432 0.17347 0.00900
C 	C 	0.63691 0.78706 0.16142 -0.05600
C 	C 	0.52313 0.73547 0.16204 0.03700
C 	C 	0.69682 0.83701 0.19910 -0.08100
H 	H 	0.54325 0.75264 0.21113 0.04500
H 	H 	0.64381 0.81816 0.23250 0.04000
H 	H 	0.73573 0.84494 0.16281 0.01800
H 	H 	0.63497 0.77964 0.14153 0.04800
C 	C 	0.11651 0.89150 0.15975 0.00800
C 	C 	0.09102 0.94090 0.14830 -0.05500
C 	C 	0.06157 0.98059 0.16236 -0.00500
C 	C 	0.16820 0.81197 0.13310 -0.10700
C 	C 	0.08447 0.92289 0.19951 0.00400
C 	C 	0.11390 0.88334 0.18540 -0.05700
C 	C 	0.14452 0.84825 0.14517 0.03600
C 	C 	0.05730 0.97091 0.18803 -0.08600
H 	H 	0.09342 0.94799 0.12848 0.04200
H 	H 	0.04161 0.01819 0.15326 0.03500
H 	H 	0.08133 0.91458 0.21926 0.03000
H 	H 	0.13389 0.84554 0.19438 0.04200
C 	C 	0.58290 0.98025 0.32254 0.00600
C 	C 	0.59014 0.96583 0.29759 -0.05100
C 	C 	0.64936 0.98005 0.28840 0.00400
C 	C 	0.47161 0.92662 0.34210 -0.10400
C 	C 	0.69476 0.02746 0.32878 0.00900
C 	C 	0.63542 0.01315 0.33794 -0.04700
C 	C 	0.52201 0.95245 0.33299 0.04500
C 	C 	0.70191 0.00857 0.30414 -0.07400
H 	H 	0.54983 0.94093 0.28552 0.04400
H 	H 	0.65424 0.96640 0.26925 0.03200
H 	H 	0.73480 0.04978 0.34112 0.03500
H 	H 	0.63025 0.02486 0.35723 0.04900
C 	C 	0.14783 0.31045 0.33488 0.01200
C 	C 	0.09485 0.25949 0.34572 -0.06100
C 	C 	0.06033 0.19070 0.33362 0.00100
C 	C 	0.19926 0.45030 0.35381 -0.10100
C 	C 	0.13418 0.22130 0.30055 0.01100
C 	C 	0.16848 0.29017 0.31266 -0.05900
C 	C 	0.17687 0.38645 0.34516 0.03300
C 	C 	0.07848 0.17259 0.31047 -0.09000
H 	H 	0.07904 0.27447 0.36307 0.04200
H 	H 	0.01800 0.15337 0.34171 0.00400
H 	H 	0.14974 0.20715 0.28305 0.04200
H 	H 	0.20993 0.32886 0.30435 0.04600
C 	C 	0.03097 0.83253 0.31112 -0.00600
C 	C 	0.08751 0.89109 0.31689 -0.05700
C 	C 	0.13995 0.87316 0.32308 0.00500
C 	C 	0.93137 0.86804 0.30154 -0.13100
C 	C 	0.07994 0.73798 0.31681 0.01800
C 	C 	0.02757 0.75609 0.31067 -0.07400
C 	C 	0.97630 0.85099 0.30596 0.06600
C 	C 	0.13615 0.79630 0.32359 -0.09300
H 	H 	0.09063 0.95044 0.31700 0.04300
H 	H 	0.18284 0.91881 0.32825 0.00600
H 	H 	0.07648 0.67854 0.31675 0.03700
H 	H 	0.98422 0.71058 0.30590 0.06200
C 	C 	0.41355 0.10612 0.47014 -0.00300
C 	C 	0.38429 0.08820 0.49285 -0.03600
C 	C 	0.41105 0.13193 0.51396 -0.03300
C 	C 	0.46714 0.19372 0.51242 -0.00700
C 	C 	0.49462 0.21411 0.48947 -0.03300
C 	C 	0.46787 0.17039 0.46837 -0.03500
C 	C 	0.39214 0.05375 0.44949 0.04300
C 	C 	0.37544 0.00869 0.43245 -0.10000
C 	C 	0.50012 0.22993 0.53462 0.04600
C 	C 	0.52867 0.25844 0.55323 -0.11100
H 	H 	0.34212 0.03879 0.49434 0.03900
H 	H 	0.38939 0.11602 0.53163 0.04000
H 	H 	0.53786 0.26203 0.48813 0.03800
H 	H 	0.49059 0.18480 0.45084 0.04200
C 	C 	0.95661 0.48124 0.49841 0.02900
C 	C 	0.01744 0.52224 0.50662 -0.07000
C 	C 	0.06354 0.55533 0.48956 -0.01500
C 	C 	0.04900 0.54763 0.46422 -0.04100
C 	C 	0.98870 0.50445 0.45597 0.00200
C 	C 	0.94258 0.47132 0.47304 -0.05500
C 	C 	0.90726 0.46027 0.51575 0.03800
C 	C 	0.86529 0.44681 0.52990 -0.09700
C 	C 	0.09633 0.58285 0.44674 0.05500
C 	C 	0.13721 0.61152 0.43252 -0.12000
H 	H 	0.02860 0.53049 0.52619 0.04500
H 	H 	0.11030 0.58783 0.49605 0.03300
H 	H 	0.97733 0.49743 0.43639 0.03800
H 	H 	0.89558 0.44001 0.46655 0.04700
C 	C 	0.60127 0.69293 0.52482 -0.01200
C 	C 	0.56286 0.73623 0.52709 -0.03100
C 	C 	0.53788 0.75789 0.50597 -0.03600
C 	C 	0.55075 0.73565 0.48251 -0.00300
C 	C 	0.59318 0.69780 0.48023 -0.03800
C 	C 	0.61845 0.67654 0.50135 -0.03300
C 	C 	0.61662 0.65715 0.54611 0.04500
C 	C 	0.62951 0.62421 0.56316 -0.13400
C 	C 	0.51109 0.73680 0.46184 0.04200
C 	C 	0.47397 0.73398 0.44559 -0.10400
H 	H 	0.55001 0.75002 0.54518 0.04000
H 	H 	0.50550 0.78777 0.50789 0.04200
H 	H 	0.60378 0.68089 0.46218 0.03900
H 	H 	0.64887 0.64397 0.49946 0.02800
C 	C 	0.83167 0.12438 0.65859 0.01200
C 	C 	0.83973 0.12999 0.68431 -0.05700
C 	C 	0.87452 0.09204 0.69628 0.00700
C 	C 	0.77630 0.20733 0.63533 -0.10200
C 	C 	0.89128 0.04042 0.65687 0.00800
C 	C 	0.85645 0.07833 0.64496 -0.05600
C 	C 	0.80115 0.16928 0.64603 0.03600
C 	C 	0.90173 0.04852 0.68255 -0.08200
H 	H 	0.82033 0.16516 0.69498 0.04300
H 	H 	0.88215 0.09871 0.71609 0.03200
H 	H 	0.91103 0.00590 0.64609 0.03900
H 	H 	0.84985 0.07315 0.62509 0.04900
C 	C 	0.38260 0.29277 0.68570 0.01300
C 	C 	0.38988 0.34593 0.66686 -0.05700
C 	C 	0.44551 0.37305 0.65415 0.01400
C 	C 	0.27104 0.21061 0.70117 -0.10000
C 	C 	0.48830 0.29851 0.68034 0.00600
C 	C 	0.43292 0.27197 0.69316 -0.05700
C 	C 	0.32161 0.25008 0.69437 0.03400
C 	C 	0.49384 0.34639 0.66006 -0.08000
H 	H 	0.35144 0.36302 0.66115 0.04400
H 	H 	0.44939 0.41051 0.63864 0.04200
H 	H 	0.52558 0.27832 0.68527 0.01300
H 	H 	0.42794 0.23168 0.70794 0.04400
C 	C 	0.96791 0.69786 0.64715 0.04400
C 	C 	0.00228 0.76895 0.63726 -0.11000
C 	C 	0.03602 0.82999 0.65296 0.02800
C 	C 	0.87848 0.59783 0.62017 -0.09600
C 	C 	0.00709 0.74655 0.68808 -0.00600
C 	C 	0.97343 0.68555 0.67239 -0.04300
C 	C 	0.91987 0.64273 0.63239 0.03400
C 	C 	0.03456 0.82036 0.67862 -0.08700
H 	H 	0.99954 0.77838 0.61765 0.07100
H 	H 	0.05828 0.88630 0.64535 0.01500
H 	H 	0.00716 0.73792 0.70782 0.02200
H 	H 	0.94833 0.63014 0.68009 0.04700
C 	C 	0.96664 0.47202 0.00572 0.02100
C 	C 	0.95054 0.52824 0.99341 -0.04300
C 	C 	0.90520 0.50710 0.97454 -0.02700
C 	C 	0.87582 0.42967 0.96792 -0.00800
C 	C 	0.89137 0.37338 0.98045 -0.02800
C 	C 	0.93669 0.39452 0.99932 -0.04400
C 	C 	0.01504 0.49384 0.02443 0.01500
C 	C 	0.05575 0.51106 0.04003 -0.10300
C 	C 	0.83138 0.40832 0.94773 0.04500
C 	C 	0.79472 0.39149 0.93061 -0.10600
H 	H 	0.97347 0.58825 0.99828 0.04900
H 	H 	0.89338 0.55091 0.96493 0.04100
H 	H 	0.86883 0.31342 0.97542 0.03600
H 	H 	0.94889 0.35075 0.00879 0.04400
C 	C 	0.52324 0.90068 0.96761 0.00000
C 	C 	0.45934 0.85994 0.96524 -0.03700
C 	C 	0.42706 0.81775 0.98503 -0.03400
C 	C 	0.45856 0.81601 0.00725 -0.00600
C 	C 	0.52293 0.85369 0.00921 -0.03300
C 	C 	0.55519 0.89597 0.98943 -0.03700
C 	C 	0.55395 0.95544 0.94920 0.03200
C 	C 	0.57813 0.00364 0.93424 -0.09000
C 	C 	0.42432 0.78144 0.02867 0.04400
C 	C 	0.39636 0.75429 0.04693 -0.10600
H 	H 	0.43427 0.86324 0.94843 0.04200
H 	H 	0.37736 0.78844 0.98332 0.03700
H 	H 	0.54768 0.85228 0.02629 0.04200
H 	H 	0.60457 0.92725 0.99143 0.03900
C 	C 	0.46825 0.35124 0.98058 -0.00400
C 	C 	0.40369 0.31891 0.98229 -0.03400
C 	C 	0.37448 0.33512 0.00284 -0.03400
C 	C 	0.40975 0.38368 0.02176 -0.00600
C 	C 	0.47446 0.41434 0.02036 -0.03300
C 	C 	0.50366 0.39812 0.99980 -0.03400
C 	C 	0.49799 0.33784 0.95887 0.04700
C 	C 	0.52298 0.32661 0.94071 -0.10600
C 	C 	0.37932 0.40794 0.04131 0.04600
C 	C 	0.35376 0.43016 0.05722 -0.11400
H 	H 	0.37608 0.28223 0.96755 0.04200
H 	H 	0.32441 0.31134 0.00380 0.03500
H 	H 	0.50200 0.45204 0.03490 0.04400
H 	H 	0.55366 0.42293 0.99865 0.04100
C 	C 	0.94986 0.16160 0.82526 -0.00700
C 	C 	0.96223 0.09912 0.83502 -0.02200
C 	C 	0.01028 0.07831 0.82570 -0.02300
C 	C 	0.84980 0.18886 0.83879 -0.10700
C 	C 	0.03564 0.18478 0.79753 -0.02800
C 	C 	0.98754 0.20542 0.80691 -0.02200
C 	C 	0.89578 0.17715 0.83275 0.04500
C 	C 	0.04617 0.11964 0.80635 -0.07300
H 	H 	0.93355 0.06533 0.84936 0.03600
H 	H 	0.01802 0.02841 0.83290 0.03400
H 	H 	0.06352 0.21820 0.78295 0.04000
H 	H 	0.97862 0.25432 0.79946 0.04200
C 	C 	0.39754 0.03300 0.81167 0.02200
C 	C 	0.34563 0.98207 0.82321 -0.06700
C 	C 	0.28652 0.96422 0.81242 0.01700
C 	C 	0.50326 0.08970 0.83718 -0.10000
C 	C 	0.33164 0.04373 0.77760 0.02100
C 	C 	0.39065 0.06168 0.78846 -0.06200
C 	C 	0.45587 0.06344 0.82507 0.03600
C 	C 	0.27898 0.99748 0.79002 -0.09100
H 	H 	0.35069 0.95903 0.84106 0.04800
H 	H 	0.24645 0.92789 0.82211 0.02700
H 	H 	0.32662 0.06834 0.76002 0.03100
H 	H 	0.43065 0.10034 0.77928 0.04500
C 	C 	0.83340 0.65047 0.80837 0.01100
C 	C 	0.85643 0.71666 0.82333 -0.05800
C 	C 	0.89097 0.78687 0.81306 0.00400
C 	C 	0.77286 0.51880 0.82965 -0.10200
C 	C 	0.87847 0.72524 0.77265 0.00700
C 	C 	0.84399 0.65502 0.78299 -0.05700
C 	C 	0.80011 0.57776 0.81932 0.03600
C 	C 	0.90277 0.79148 0.78769 -0.09000
H 	H 	0.84809 0.71361 0.84297 0.04400
H 	H 	0.90880 0.83750 0.82486 0.03100
H 	H 	0.88747 0.72774 0.75307 0.03900
H 	H 	0.82621 0.60414 0.77130 0.04600
