data_crystal

_cell_length_a 18.62954
_cell_length_b 18.88363
_cell_length_c 43.30638
_cell_angle_alpha 95.42480
_cell_angle_beta  95.42449
_cell_angle_gamma 126.39174

_symmetry_space_group_name_	'P 1'
_symmetry_space_group_name_H-M	'P 1'

loop_
_symmetry_equiv_pos_as_xyz
  x,y,z

loop_
_atom_site_label
_atom_site_type_symbol
_atom_site_fract_x
_atom_site_fract_y
_atom_site_fract_z
_atom_site_charge
C 	C 	0.91560 0.00257 0.96788 0.05400
C 	C 	0.00907 0.05748 0.96786 -0.07900
C 	C 	0.05646 0.02139 0.96814 0.05800
C 	C 	0.01057 0.93005 0.96800 -0.08200
C 	C 	0.91717 0.87416 0.96784 0.05600
C 	C 	0.86932 0.91046 0.96793 -0.07800
H 	H 	0.04521 0.12860 0.96832 0.06300
H 	H 	0.04781 0.90258 0.96840 0.06100
H 	H 	0.79721 0.86776 0.96824 0.06400
C 	C 	0.94285 0.03948 0.50391 0.05500
C 	C 	0.88629 0.94725 0.50389 -0.08100
C 	C 	0.92203 0.89972 0.50348 0.06000
C 	C 	0.01429 0.94413 0.50322 -0.08100
C 	C 	0.07130 0.03618 0.50328 0.05600
C 	C 	0.03564 0.08412 0.50364 -0.07700
H 	H 	0.81439 0.91234 0.50360 0.05400
H 	H 	0.04159 0.90689 0.50264 0.06300
H 	H 	0.07948 0.15532 0.50341 0.06700
Cu	Cu	0.76663 0.34719 0.96706 0.92600
Cu	Cu	0.75982 0.28798 0.03624 0.87400
Cu	Cu	0.62255 0.30454 0.00671 0.89700
Cu	Cu	0.59744 0.33933 0.94191 0.89700
C 	C 	0.69938 0.30962 0.90030 0.29000
O 	O 	0.81904 0.47709 0.96454 -0.34900
C 	C 	0.68333 0.34397 0.07650 0.28800
O 	O 	0.62516 0.27401 0.96346 -0.63800
O 	O 	0.75590 0.36612 0.01163 -0.64100
O 	O 	0.82738 0.28839 0.97206 -0.37100
O 	O 	0.73062 0.19781 0.00273 -0.42700
O 	O 	0.66292 0.35049 0.90651 -0.38200
O 	O 	0.49195 0.23675 0.99942 -0.38400
C 	C 	0.44187 0.23390 0.97485 0.31100
C 	C 	0.77761 0.51091 0.97337 0.30000
O 	O 	0.69375 0.45723 0.97765 -0.39600
O 	O 	0.47869 0.28931 0.95487 -0.38300
O 	O 	0.75350 0.31050 0.92270 -0.36000
C 	C 	0.78926 0.21541 0.98439 0.30400
O 	O 	0.61833 0.31762 0.05229 -0.38200
O 	O 	0.75623 0.35062 0.07246 -0.41700
H 	H 	0.58627 0.20888 0.95490 0.16600
H 	H 	0.79348 0.42943 0.02256 0.17400
Cu	Cu	0.61073 0.20410 0.50577 0.92800
Cu	Cu	0.67511 0.21388 0.43737 0.87500
Cu	Cu	0.65241 0.34578 0.46626 0.89800
Cu	Cu	0.61087 0.36553 0.53024 0.89700
C 	C 	0.63673 0.26224 0.57259 0.29300
O 	O 	0.47851 0.14798 0.50735 -0.35200
C 	C 	0.61850 0.28847 0.39653 0.28800
O 	O 	0.68176 0.34301 0.50965 -0.63900
O 	O 	0.59292 0.21476 0.46112 -0.64000
O 	O 	0.67013 0.14479 0.50134 -0.37400
O 	O 	0.76436 0.24152 0.47152 -0.42600
O 	O 	0.59773 0.30028 0.56571 -0.38500
O 	O 	0.71769 0.47408 0.47397 -0.38400
C 	C 	0.71529 0.52104 0.49793 0.31800
C 	C 	0.44181 0.18590 0.49785 0.30300
O 	O 	0.49422 0.26892 0.49373 -0.39800
O 	O 	0.65798 0.48206 0.51738 -0.39300
O 	O 	0.64655 0.21745 0.55023 -0.36000
C 	C 	0.74478 0.18261 0.48956 0.30800
O 	O 	0.64183 0.35121 0.42074 -0.38200
O 	O 	0.61299 0.21725 0.40069 -0.41700
H 	H 	0.74746 0.38286 0.51881 0.17000
H 	H 	0.52912 0.17652 0.44975 0.17500
C 	C 	0.64977 0.25194 0.60553 -0.08200
C 	C 	0.72683 0.26000 0.61852 0.01500
C 	C 	0.74112 0.25472 0.65030 -0.06400
C 	C 	0.67794 0.24037 0.66917 0.02800
C 	C 	0.59998 0.23024 0.65596 -0.06500
C 	C 	0.58596 0.23607 0.62434 0.01800
C 	C 	0.69505 0.23994 0.70309 0.00100
C 	C 	0.63748 0.16137 0.71486 -0.03700
C 	C 	0.64301 0.16431 0.74745 -0.03700
C 	C 	0.70592 0.24595 0.76853 0.00100
C 	C 	0.76700 0.32347 0.75676 -0.03700
C 	C 	0.76165 0.32043 0.72417 -0.03700
C 	C 	0.70110 0.25233 0.80245 0.02700
C 	C 	0.77721 0.28369 0.82535 -0.06400
C 	C 	0.77556 0.29875 0.85748 0.01800
C 	C 	0.69775 0.28278 0.86694 -0.08300
C 	C 	0.62045 0.24783 0.84404 0.01300
C 	C 	0.62218 0.23286 0.81199 -0.06400
H 	H 	0.77638 0.27198 0.60422 0.03500
H 	H 	0.80149 0.26251 0.66030 0.04900
H 	H 	0.55086 0.21912 0.67035 0.04900
H 	H 	0.52556 0.22839 0.61448 0.03800
H 	H 	0.58635 0.09874 0.69876 0.04200
H 	H 	0.59633 0.10384 0.75629 0.04000
H 	H 	0.81605 0.38678 0.77281 0.04200
H 	H 	0.80662 0.38137 0.71530 0.04100
H 	H 	0.83822 0.29822 0.81825 0.05000
H 	H 	0.83566 0.32554 0.87487 0.04300
H 	H 	0.55964 0.23408 0.85105 0.02700
H 	H 	0.56300 0.20847 0.79451 0.04700
C 	C 	0.60520 0.30173 0.36400 -0.08700
C 	C 	0.65687 0.38832 0.35694 0.01300
C 	C 	0.65639 0.39981 0.32547 -0.06500
C 	C 	0.60408 0.32496 0.30085 0.02600
C 	C 	0.54795 0.23888 0.30793 -0.06600
C 	C 	0.54834 0.22728 0.33934 0.01400
C 	C 	0.61560 0.33586 0.26797 0.00000
C 	C 	0.58349 0.37576 0.25181 -0.03800
C 	C 	0.59416 0.38534 0.22053 -0.03800
C 	C 	0.63745 0.35550 0.20531 0.00000
C 	C 	0.66981 0.31598 0.22156 -0.03800
C 	C 	0.65895 0.30622 0.25273 -0.03800
C 	C 	0.64797 0.36434 0.17223 0.02600
C 	C 	0.73500 0.41894 0.16490 -0.06600
C 	C 	0.74623 0.41636 0.13345 0.01400
C 	C 	0.67045 0.35884 0.10899 -0.08700
C 	C 	0.58291 0.30853 0.11626 0.01300
C 	C 	0.57179 0.31120 0.14776 -0.06500
H 	H 	0.70051 0.44645 0.37570 0.03800
H 	H 	0.69943 0.46661 0.32023 0.04800
H 	H 	0.50631 0.18076 0.28906 0.04600
H 	H 	0.50650 0.16026 0.34446 0.03200
H 	H 	0.54999 0.39889 0.26340 0.04000
H 	H 	0.56896 0.41594 0.20817 0.04000
H 	H 	0.70296 0.29243 0.20996 0.03900
H 	H 	0.68426 0.27567 0.26507 0.03900
H 	H 	0.79414 0.46120 0.18363 0.04600
H 	H 	0.81400 0.45714 0.12816 0.03200
H 	H 	0.52374 0.26439 0.09766 0.03800
H 	H 	0.50426 0.26928 0.15318 0.04800
C 	C 	0.86253 0.80274 0.50249 -0.02900
C 	C 	0.86282 0.76946 0.53003 -0.10600
C 	C 	0.81422 0.67731 0.52875 0.18800
C 	C 	0.76557 0.61782 0.49962 -0.12300
C 	C 	0.76416 0.65117 0.47214 -0.03700
C 	C 	0.81190 0.74327 0.47354 0.12500
H 	H 	0.90231 0.81525 0.55233 0.06900
O 	O 	0.81829 0.64586 0.55564 -0.30000
H 	H 	0.72590 0.60566 0.44971 0.06100
O 	O 	0.81230 0.77539 0.44638 -0.27900
H 	H 	0.76033 0.77779 0.44466 0.14300
H 	H 	0.76843 0.63690 0.56568 0.14800
C 	C 	0.80146 0.15231 0.49388 -0.12800
C 	C 	0.81963 0.13546 0.52337 -0.03600
C 	C 	0.86980 0.10262 0.52726 0.12300
C 	C 	0.90308 0.08735 0.50162 -0.02500
C 	C 	0.88784 0.10733 0.47250 -0.10700
C 	C 	0.83624 0.13842 0.46838 0.18600
H 	H 	0.79438 0.14724 0.54323 0.06100
O 	O 	0.88738 0.08670 0.55624 -0.27800
H 	H 	0.91295 0.09529 0.45265 0.07100
O 	O 	0.81883 0.15401 0.43931 -0.30700
H 	H 	0.76172 0.09631 0.42800 0.12700
H 	H 	0.83504 0.02412 0.55647 0.14200
C 	C 	0.16822 0.08161 0.50270 -0.02800
C 	C 	0.22384 0.08698 0.52850 -0.10500
C 	C 	0.31233 0.11791 0.52665 0.18400
C 	C 	0.34587 0.14353 0.49872 -0.12300
C 	C 	0.29079 0.13959 0.47310 -0.04100
C 	C 	0.20194 0.10790 0.47487 0.12600
H 	H 	0.19788 0.06586 0.54988 0.06900
O 	O 	0.36590 0.12294 0.55214 -0.28300
H 	H 	0.31688 0.16109 0.45178 0.05200
O 	O 	0.14836 0.10318 0.44947 -0.28000
H 	H 	0.11646 0.04251 0.43663 0.14600
H 	H 	0.39748 0.18358 0.56496 0.14500
C 	C 	0.81774 0.60537 0.97243 -0.12000
C 	C 	0.81958 0.65828 0.99805 -0.04100
C 	C 	0.84673 0.74446 0.99606 0.12800
C 	C 	0.87061 0.77783 0.96803 -0.02900
C 	C 	0.86649 0.72394 0.94214 -0.10400
C 	C 	0.84037 0.63823 0.94425 0.18200
H 	H 	0.79983 0.63256 0.01953 0.05200
O 	O 	0.84982 0.79589 0.02153 -0.28100
H 	H 	0.88593 0.74953 0.92062 0.06800
O 	O 	0.83743 0.58693 0.91877 -0.28200
H 	H 	0.77502 0.55245 0.90629 0.14700
H 	H 	0.91206 0.82987 0.03409 0.14700
C 	C 	0.81692 0.15652 0.97958 -0.12300
C 	C 	0.83184 0.13681 0.94987 -0.03900
C 	C 	0.85696 0.08020 0.94513 0.12400
C 	C 	0.86841 0.04360 0.97034 -0.02800
C 	C 	0.85030 0.06068 0.99967 -0.10300
C 	C 	0.82611 0.11784 0.00456 0.18200
H 	H 	0.82394 0.16520 0.93041 0.06200
O 	O 	0.87415 0.06391 0.91625 -0.27900
H 	H 	0.85944 0.03321 0.01921 0.06900
O 	O 	0.81278 0.13683 0.03389 -0.30600
H 	H 	0.87319 0.19045 0.04530 0.12900
H 	H 	0.81535 0.00909 0.90436 0.14400
C 	C 	0.15506 0.07977 0.96961 -0.02900
C 	C 	0.18996 0.08055 0.94228 -0.10300
C 	C 	0.28366 0.12984 0.94391 0.18500
C 	C 	0.34324 0.17990 0.97305 -0.12000
C 	C 	0.30818 0.17949 0.00038 -0.04100
C 	C 	0.21445 0.13006 0.99870 0.12800
H 	H 	0.14428 0.04165 0.91984 0.06900
O 	O 	0.31695 0.12928 0.91702 -0.29500
H 	H 	0.35363 0.21811 0.02287 0.06200
O 	O 	0.18077 0.12829 0.02570 -0.28100
H 	H 	0.17682 0.17860 0.02736 0.14400
H 	H 	0.31992 0.07838 0.91588 0.14000
