data_crystal

_cell_length_a 29.41313
_cell_length_b 24.00220
_cell_length_c 60.67721
_cell_angle_alpha 90.46895
_cell_angle_beta  91.28482
_cell_angle_gamma 110.42909

_symmetry_space_group_name_	'P 1'
_symmetry_space_group_name_H-M	'P 1'

loop_
_symmetry_equiv_pos_as_xyz
  x,y,z

loop_
_atom_site_label
_atom_site_type_symbol
_atom_site_fract_x
_atom_site_fract_y
_atom_site_fract_z
_atom_site_charge
Ni	Ni	0.70659 0.28533 0.89434 1.09900
O 	O 	0.65999 0.25213 0.86784 -0.70200
Ni	Ni	0.60049 0.26707 0.87841 1.09700
O 	O 	0.75920 0.25345 0.88423 -0.36500
O 	O 	0.71119 0.16350 0.87010 -0.40900
O 	O 	0.74498 0.36058 0.87728 -0.37400
Ni	Ni	0.64152 0.16526 0.86486 1.06300
O 	O 	0.73728 0.40998 0.91629 -0.41000
O 	O 	0.63059 0.15467 0.89791 -0.41900
O 	O 	0.55599 0.22849 0.85216 -0.39000
O 	O 	0.64809 0.30299 0.90410 -0.70600
O 	O 	0.74863 0.32138 0.92149 -0.38200
O 	O 	0.54788 0.29575 0.89104 -0.36700
O 	O 	0.59934 0.39147 0.89550 -0.41400
Ni	Ni	0.66679 0.38980 0.90562 1.06300
H 	H 	0.67160 0.27257 0.85386 0.15100
H 	H 	0.63660 0.28482 0.91845 0.15200
C 	C 	0.59308 0.16246 0.90700 0.28000
O 	O 	0.68502 0.39952 0.87343 -0.42300
C 	C 	0.75129 0.21030 0.86953 0.28000
C 	C 	0.54748 0.17246 0.84677 0.28600
C 	C 	0.72581 0.39532 0.86688 0.28900
C 	C 	0.55848 0.34899 0.90005 0.27700
C 	C 	0.75299 0.37502 0.92870 0.28100
O 	O 	0.56879 0.19143 0.89645 -0.37000
O 	O 	0.56853 0.14118 0.85826 -0.41000
Ni	Ni	0.64889 0.35899 0.57443 1.09900
O 	O 	0.70066 0.36513 0.55155 -0.69900
Ni	Ni	0.75066 0.34491 0.56958 1.09800
O 	O 	0.61375 0.40398 0.55610 -0.37600
O 	O 	0.68500 0.47955 0.55087 -0.41900
O 	O 	0.60293 0.28191 0.55931 -0.37300
Ni	Ni	0.73080 0.44105 0.53686 1.06900
O 	O 	0.59352 0.24853 0.60149 -0.40600
O 	O 	0.78698 0.49308 0.55711 -0.39700
O 	O 	0.80691 0.36294 0.54783 -0.38000
O 	O 	0.69595 0.33179 0.59153 -0.70300
O 	O 	0.59918 0.34620 0.59847 -0.38300
O 	O 	0.78879 0.31197 0.59142 -0.37300
O 	O 	0.72459 0.22545 0.59484 -0.41300
Ni	Ni	0.66259 0.24781 0.59764 1.06400
H 	H 	0.68769 0.33410 0.53994 0.15100
H 	H 	0.70693 0.35546 0.60533 0.15500
C 	C 	0.80827 0.47306 0.57286 0.30100
O 	O 	0.64893 0.22399 0.56528 -0.41900
C 	C 	0.63789 0.45567 0.54761 0.29900
C 	C 	0.81298 0.39864 0.53067 0.28800
C 	C 	0.61561 0.23641 0.55380 0.30800
C 	C 	0.76837 0.26071 0.60109 0.29400
C 	C 	0.58184 0.29435 0.60835 0.27900
O 	O 	0.78326 0.42663 0.58416 -0.39700
O 	O 	0.77560 0.40763 0.52084 -0.42300
Ni	Ni	0.04176 0.95292 0.74482 1.09700
O 	O 	0.05769 0.90041 0.72198 -0.70900
Ni	Ni	0.09087 0.95990 0.69936 1.09700
O 	O 	0.00846 0.88075 0.76414 -0.35900
O 	O 	0.95699 0.83275 0.73588 -0.41700
O 	O 	0.10574 0.96565 0.76263 -0.36900
Ni	Ni	0.99820 0.84579 0.70770 1.05900
O 	O 	0.09841 0.07639 0.76566 -0.41100
O 	O 	0.97076 0.91061 0.69936 -0.41500
O 	O 	0.10592 0.90081 0.67884 -0.37500
O 	O 	0.06892 0.01269 0.72078 -0.69200
O 	O 	0.02300 0.00582 0.76636 -0.38000
O 	O 	0.13798 0.02757 0.68158 -0.36300
O 	O 	0.15254 0.10900 0.70380 -0.40500
Ni	Ni	0.12122 0.08068 0.73393 1.06900
H 	H 	0.07883 0.87945 0.72790 0.15500
H 	H 	0.04337 0.02650 0.71465 0.15500
C 	C 	0.99148 0.95094 0.68472 0.27500
O 	O 	0.16009 0.02667 0.73893 -0.42700
C 	C 	0.97540 0.83241 0.75577 0.28400
C 	C 	0.07022 0.85116 0.67303 0.29200
C 	C 	0.14984 0.98701 0.75456 0.29200
C 	C 	0.16871 0.07607 0.69100 0.30400
C 	C 	0.05218 0.06032 0.77046 0.30500
O 	O 	0.03514 0.95769 0.67798 -0.36200
O 	O 	0.02485 0.84539 0.67700 -0.40500
Ni	Ni	0.25830 0.70184 0.39478 1.09900
O 	O 	0.31239 0.74559 0.37386 -0.70500
Ni	Ni	0.36963 0.73622 0.38923 1.10100
O 	O 	0.20812 0.71881 0.37462 -0.37300
O 	O 	0.25142 0.81875 0.37561 -0.41300
O 	O 	0.25255 0.62860 0.37597 -0.40300
Ni	Ni	0.32440 0.82999 0.37147 1.06400
O 	O 	0.25243 0.63604 0.44294 -0.42000
O 	O 	0.33477 0.84564 0.40468 -0.41600
O 	O 	0.41816 0.77344 0.36551 -0.38200
O 	O 	0.31722 0.70401 0.41218 -0.70300
O 	O 	0.20369 0.65137 0.41470 -0.38000
O 	O 	0.41823 0.70425 0.40451 -0.37700
O 	O 	0.36001 0.61227 0.40630 -0.41900
Ni	Ni	0.30451 0.62465 0.42393 1.07000
H 	H 	0.30753 0.72655 0.35904 0.15600
H 	H 	0.32204 0.73233 0.42469 0.15500
C 	C 	0.37464 0.84607 0.41493 0.28900
O 	O 	0.25142 0.56563 0.40420 -0.40000
C 	C 	0.21515 0.77280 0.36750 0.29200
C 	C 	0.42180 0.82587 0.35740 0.27600
C 	C 	0.23976 0.57479 0.38384 0.31000
C 	C 	0.40517 0.64791 0.40987 0.27400
C 	C 	0.20967 0.63460 0.43504 0.30900
O 	O 	0.39949 0.81419 0.40731 -0.37300
O 	O 	0.39798 0.85805 0.36642 -0.40600
Ni	Ni	0.32118 0.65577 0.05438 1.10000
O 	O 	0.26148 0.65638 0.03661 -0.70200
Ni	Ni	0.22106 0.67204 0.06050 1.09900
O 	O 	0.34623 0.61480 0.02997 -0.37300
O 	O 	0.27264 0.54048 0.02596 -0.41400
O 	O 	0.36276 0.73585 0.04117 -0.37100
Ni	Ni	0.22399 0.58429 0.01983 1.06900
O 	O 	0.38837 0.75713 0.08413 -0.40800
O 	O 	0.17638 0.52784 0.04112 -0.39500
O 	O 	0.15653 0.65951 0.04371 -0.38500
O 	O 	0.28362 0.67947 0.07748 -0.70500
O 	O 	0.37939 0.66131 0.07405 -0.38000
O 	O 	0.19429 0.69915 0.08789 -0.37400
O 	O 	0.25929 0.78619 0.09063 -0.41000
Ni	Ni	0.32008 0.76144 0.08635 1.06400
H 	H 	0.27023 0.69020 0.02640 0.15300
H 	H 	0.27809 0.65270 0.09025 0.15700
C 	C 	0.16424 0.54303 0.06040 0.30100
O 	O 	0.32191 0.79265 0.05520 -0.42000
C 	C 	0.31851 0.56414 0.02085 0.29100
C 	C 	0.14219 0.62698 0.02545 0.31400
C 	C 	0.35056 0.78355 0.04050 0.30900
C 	C 	0.21713 0.75077 0.09783 0.27500
C 	C 	0.39966 0.70868 0.08686 0.29400
O 	O 	0.19474 0.58727 0.07191 -0.39800
O 	O 	0.17370 0.62088 0.01133 -0.42300
Ni	Ni	0.90470 0.03342 0.24740 1.09800
O 	O 	0.91079 0.09115 0.22213 -0.70700
Ni	Ni	0.87984 0.03446 0.19730 1.10000
O 	O 	0.93882 0.10210 0.26918 -0.36700
O 	O 	0.00371 0.13674 0.24665 -0.40000
O 	O 	0.83857 0.04151 0.25321 -0.38800
Ni	Ni	0.97741 0.13440 0.21431 1.06200
O 	O 	0.86955 0.88344 0.25148 -0.41000
O 	O 	0.99494 0.06004 0.20916 -0.41800
O 	O 	0.88184 0.09714 0.17452 -0.37700
O 	O 	0.88458 0.97750 0.22146 -0.70300
O 	O 	0.89375 0.97161 0.27169 -0.37500
O 	O 	0.83260 0.96872 0.17743 -0.37500
O 	O 	0.78403 0.93182 0.20664 -0.41800
Ni	Ni	0.82821 0.90949 0.22939 1.07100
H 	H 	0.89289 0.11860 0.22475 0.15600
H 	H 	0.91116 0.96232 0.21868 0.15100
C 	C 	0.97804 0.02479 0.19197 0.29700
O 	O 	0.80039 0.94142 0.25503 -0.39700
C 	C 	0.97979 0.14390 0.26392 0.26700
C 	C 	0.92264 0.14310 0.17267 0.29000
C 	C 	0.79892 0.99522 0.25589 0.31500
C 	C 	0.79223 0.93136 0.18542 0.27200
C 	C 	0.89574 0.91816 0.26776 0.28000
O 	O 	0.93754 0.02257 0.18175 -0.37100
O 	O 	0.96395 0.14131 0.18131 -0.40900
C 	C 	0.12189 0.50108 0.07130 -0.08500
C 	C 	0.12433 0.48979 0.09389 0.01600
C 	C 	0.08507 0.44753 0.10388 -0.06100
C 	C 	0.04282 0.41639 0.09144 0.01700
C 	C 	0.03973 0.42909 0.06904 -0.06000
C 	C 	0.07911 0.47118 0.05900 0.01400
C 	C 	0.00375 0.36711 0.10147 0.03300
C 	C 	0.99309 0.30860 0.09364 -0.07400
C 	C 	0.96468 0.26071 0.10603 -0.01800
C 	C 	0.94700 0.27097 0.12636 -0.01800
C 	C 	0.95358 0.32938 0.13308 -0.02400
C 	C 	0.98183 0.37734 0.12066 -0.06400
C 	C 	0.93309 0.22414 0.14225 0.04400
C 	C 	0.92566 0.18613 0.15597 -0.10900
H 	H 	0.15706 0.51256 0.10358 0.03400
H 	H 	0.08795 0.43784 0.12116 0.04500
H 	H 	0.00715 0.40570 0.05933 0.04600
H 	H 	0.07648 0.48026 0.04165 0.03200
H 	H 	0.00920 0.30014 0.07868 0.05500
H 	H 	0.95930 0.21570 0.10057 0.03600
H 	H 	0.93953 0.33776 0.14863 0.03000
H 	H 	0.98885 0.42236 0.12658 0.04000
C 	C 	0.75484 0.89120 0.17055 -0.09300
C 	C 	0.73923 0.91327 0.15162 0.01800
C 	C 	0.69781 0.87775 0.13975 -0.06700
C 	C 	0.67201 0.81979 0.14664 0.02700
C 	C 	0.68978 0.79638 0.16461 -0.06900
C 	C 	0.73088 0.83202 0.17657 0.01500
C 	C 	0.62372 0.78658 0.13682 0.00100
C 	C 	0.58249 0.77201 0.14987 -0.04100
C 	C 	0.53618 0.74748 0.14012 -0.03400
C 	C 	0.53073 0.73747 0.11729 -0.00700
C 	C 	0.57187 0.74905 0.10439 -0.03200
C 	C 	0.61827 0.77348 0.11412 -0.04000
C 	C 	0.48373 0.72392 0.10681 0.04200
C 	C 	0.44487 0.71536 0.09786 -0.10600
H 	H 	0.75770 0.95876 0.14674 0.03500
H 	H 	0.68455 0.89614 0.12581 0.04700
H 	H 	0.67062 0.75135 0.16982 0.04300
H 	H 	0.74323 0.81425 0.19095 0.00200
H 	H 	0.58631 0.78177 0.16742 0.03800
H 	H 	0.50453 0.73854 0.15020 0.03400
H 	H 	0.56791 0.74124 0.08671 0.04100
H 	H 	0.64987 0.78386 0.10395 0.03900
C 	C 	0.18976 0.77580 0.11280 -0.08500
C 	C 	0.13891 0.75001 0.11364 0.01200
C 	C 	0.11260 0.77809 0.12553 -0.06500
C 	C 	0.13673 0.83206 0.13675 0.02500
C 	C 	0.18759 0.85619 0.13694 -0.06600
C 	C 	0.21402 0.82810 0.12512 0.01000
C 	C 	0.10863 0.86544 0.14686 0.00200
C 	C 	0.07840 0.88626 0.13362 -0.03900
C 	C 	0.05212 0.91842 0.14310 -0.03300
C 	C 	0.05590 0.93010 0.16586 -0.00500
C 	C 	0.08605 0.90937 0.17914 -0.03500
C 	C 	0.11238 0.87713 0.16967 -0.04000
C 	C 	0.02884 0.96345 0.17552 0.04100
C 	C 	0.00583 0.99144 0.18322 -0.10000
H 	H 	0.11960 0.70923 0.10457 0.04300
H 	H 	0.07336 0.75866 0.12557 0.04700
H 	H 	0.20657 0.89756 0.14574 0.04400
H 	H 	0.25324 0.84773 0.12514 0.02100
H 	H 	0.07550 0.87779 0.11599 0.04200
H 	H 	0.02891 0.93436 0.13274 0.04300
H 	H 	0.08913 0.91823 0.19675 0.03800
H 	H 	0.13556 0.86118 0.18004 0.03700
C 	C 	0.46323 0.85628 0.34324 -0.08300
C 	C 	0.50471 0.83989 0.34375 0.01400
C 	C 	0.54547 0.87197 0.33186 -0.06500
C 	C 	0.54530 0.92072 0.31931 0.02400
C 	C 	0.50358 0.93632 0.31830 -0.06600
C 	C 	0.46270 0.90427 0.33022 0.00900
C 	C 	0.58883 0.95493 0.30709 0.00300
C 	C 	0.58835 0.95094 0.28400 -0.04200
C 	C 	0.63183 0.97287 0.27269 -0.03100
C 	C 	0.67603 0.99878 0.28439 -0.01200
C 	C 	0.67598 0.00739 0.30727 -0.02700
C 	C 	0.63253 0.98554 0.31860 -0.04400
C 	C 	0.72081 0.00390 0.27391 0.04900
C 	C 	0.75736 0.00319 0.26546 -0.10600
H 	H 	0.50585 0.80315 0.35372 0.04100
H 	H 	0.57733 0.85915 0.33251 0.04700
H 	H 	0.50296 0.97355 0.30848 0.04300
H 	H 	0.43083 0.91703 0.32945 0.01700
H 	H 	0.55473 0.92808 0.27493 0.03700
H 	H 	0.63145 0.96640 0.25498 0.03700
H 	H 	0.70989 0.02779 0.31645 0.04000
H 	H 	0.63316 0.98980 0.33640 0.04100
C 	C 	0.20838 0.52414 0.37023 -0.09000
C 	C 	0.17482 0.53229 0.35491 0.01800
C 	C 	0.14384 0.48398 0.34257 -0.06600
C 	C 	0.14618 0.42706 0.34535 0.02800
C 	C 	0.17964 0.41879 0.36066 -0.06700
C 	C 	0.21057 0.46709 0.37307 0.01800
C 	C 	0.11487 0.37663 0.33161 0.00100
C 	C 	0.08115 0.32697 0.34145 -0.03800
C 	C 	0.05154 0.27927 0.32834 -0.03400
C 	C 	0.05541 0.28107 0.30535 -0.00300
C 	C 	0.08886 0.33074 0.29553 -0.03500
C 	C 	0.11853 0.37829 0.30859 -0.04000
C 	C 	0.02658 0.23117 0.29179 0.03400
C 	C 	0.00409 0.19055 0.27957 -0.09200
H 	H 	0.17226 0.57588 0.35276 0.03900
H 	H 	0.11798 0.49076 0.33086 0.04700
H 	H 	0.18199 0.37510 0.36279 0.04700
H 	H 	0.23641 0.46021 0.38477 0.03100
H 	H 	0.07787 0.32538 0.35920 0.04100
H 	H 	0.02584 0.24093 0.33605 0.04300
H 	H 	0.09217 0.33230 0.27777 0.03500
H 	H 	0.14455 0.41628 0.30085 0.03800
C 	C 	0.92680 0.89628 0.28207 -0.07900
C 	C 	0.91842 0.83505 0.28327 0.00500
C 	C 	0.95150 0.81502 0.29461 -0.05600
C 	C 	0.99307 0.85597 0.30485 -0.00200
C 	C 	0.00030 0.91683 0.30456 -0.03400
C 	C 	0.96736 0.93694 0.29323 -0.01000
C 	C 	0.03048 0.83563 0.31470 0.01500
C 	C 	0.07577 0.85007 0.30487 -0.04600
C 	C 	0.11263 0.83461 0.31504 -0.03100
C 	C 	0.10439 0.80458 0.33506 -0.00900
C 	C 	0.05878 0.78874 0.34463 -0.03300
C 	C 	0.02185 0.80418 0.33446 -0.03400
C 	C 	0.14339 0.79274 0.34633 0.04300
C 	C 	0.17622 0.78346 0.35590 -0.11100
H 	H 	0.88680 0.80307 0.27513 0.03300
H 	H 	0.94545 0.76785 0.29496 0.04000
H 	H 	0.03210 0.94864 0.31265 0.04100
H 	H 	0.97426 0.98427 0.29251 0.03600
H 	H 	0.08258 0.87403 0.28952 0.04100
H 	H 	0.14779 0.84679 0.30753 0.03300
H 	H 	0.05218 0.76537 0.36010 0.04300
H 	H 	0.98692 0.79275 0.34212 0.03300
C 	C 	0.39544 0.88872 0.43326 -0.09000
C 	C 	0.38707 0.94287 0.43415 0.01700
C 	C 	0.41152 0.98632 0.44995 -0.07100
C 	C 	0.44442 0.97601 0.46503 0.02500
C 	C 	0.45135 0.92108 0.46474 -0.06700
C 	C 	0.42692 0.87759 0.44896 0.01500
C 	C 	0.47324 0.02361 0.48045 0.00300
C 	C 	0.46811 0.01597 0.50328 -0.03700
C 	C 	0.49688 0.06016 0.51790 -0.03300
C 	C 	0.53093 0.11222 0.50980 -0.00700
C 	C 	0.53578 0.12022 0.48702 -0.03200
C 	C 	0.50703 0.07605 0.47237 -0.04000
C 	C 	0.56131 0.15696 0.52491 0.04700
C 	C 	0.58642 0.19373 0.53788 -0.11000
H 	H 	0.36283 0.95208 0.42218 0.02800
H 	H 	0.40558 0.02840 0.45021 0.04900
H 	H 	0.47646 0.91261 0.47643 0.04500
H 	H 	0.43312 0.83567 0.44869 0.02900
H 	H 	0.44202 0.97572 0.50966 0.03600
H 	H 	0.49289 0.05378 0.53551 0.04000
H 	H 	0.56202 0.16040 0.48066 0.03700
H 	H 	0.51138 0.08223 0.45478 0.04000
C 	C 	0.86078 0.42037 0.52011 -0.08600
C 	C 	0.86447 0.44004 0.49823 0.00900
C 	C 	0.91001 0.46674 0.48907 -0.06300
C 	C 	0.95238 0.47408 0.50162 0.01400
C 	C 	0.94886 0.45299 0.52325 -0.06200
C 	C 	0.90330 0.42602 0.53242 0.00900
C 	C 	0.00040 0.50469 0.49220 0.01000
C 	C 	0.03185 0.47338 0.48824 -0.04100
C 	C 	0.07582 0.50128 0.47784 -0.03100
C 	C 	0.08865 0.56063 0.47137 -0.00500
C 	C 	0.05786 0.59240 0.47581 -0.03500
C 	C 	0.01390 0.56457 0.48621 -0.03000
C 	C 	0.13192 0.58773 0.45899 0.04600
C 	C 	0.16767 0.60968 0.44827 -0.10500
H 	H 	0.83213 0.43521 0.48836 0.03000
H 	H 	0.91238 0.48217 0.47226 0.04200
H 	H 	0.98140 0.45848 0.53307 0.04300
H 	H 	0.90116 0.41155 0.54936 0.04000
H 	H 	0.02179 0.42718 0.49280 0.04400
H 	H 	0.09946 0.47645 0.47447 0.04000
H 	H 	0.06757 0.63831 0.47089 0.04200
H 	H 	0.99004 0.58925 0.48935 0.03000
C 	C 	0.43916 0.62685 0.42262 -0.09600
C 	C 	0.47979 0.66792 0.43364 0.01000
C 	C 	0.50818 0.64807 0.44813 -0.06700
C 	C 	0.49639 0.58709 0.45171 0.02400
C 	C 	0.45741 0.54589 0.43990 -0.06700
C 	C 	0.42898 0.56563 0.42537 0.00600
C 	C 	0.52299 0.56659 0.46875 0.00200
C 	C 	0.55026 0.53138 0.46287 -0.04200
C 	C 	0.57427 0.51047 0.47916 -0.03200
C 	C 	0.57113 0.52463 0.50139 -0.01200
C 	C 	0.54428 0.56023 0.50728 -0.03100
C 	C 	0.52025 0.58117 0.49102 -0.04200
C 	C 	0.59453 0.50141 0.51814 0.04600
C 	C 	0.61421 0.48108 0.53185 -0.12500
H 	H 	0.48846 0.71525 0.43155 0.03800
H 	H 	0.53867 0.68013 0.45697 0.04500
H 	H 	0.44837 0.49865 0.44242 0.04400
H 	H 	0.39845 0.53338 0.41663 0.02900
H 	H 	0.55268 0.52007 0.44572 0.03900
H 	H 	0.59504 0.48296 0.47451 0.03200
H 	H 	0.54171 0.57130 0.52445 0.03800
H 	H 	0.49911 0.60818 0.49571 0.03700
C 	C 	0.96739 0.99183 0.67702 -0.08800
C 	C 	0.91659 0.97275 0.67501 0.00500
C 	C 	0.89405 0.01163 0.66731 -0.05500
C 	C 	0.92213 0.06994 0.66170 0.01900
C 	C 	0.97279 0.08936 0.66416 -0.06000
C 	C 	0.99534 0.05048 0.67170 -0.00400
C 	C 	0.89875 0.10963 0.65214 0.00400
C 	C 	0.90962 0.13080 0.63070 -0.04200
C 	C 	0.88627 0.16679 0.62131 -0.03100
C 	C 	0.85179 0.18167 0.63324 -0.01000
C 	C 	0.84167 0.16173 0.65483 -0.03300
C 	C 	0.86515 0.12587 0.66429 -0.04300
C 	C 	0.82333 0.21191 0.62251 0.04300
C 	C 	0.79871 0.23538 0.61299 -0.11100
H 	H 	0.89464 0.92761 0.67904 0.03300
H 	H 	0.85488 0.99620 0.66536 0.04000
H 	H 	0.99470 0.13445 0.66004 0.04100
H 	H 	0.03454 0.06603 0.67351 0.03900
H 	H 	0.93555 0.11852 0.62121 0.04100
H 	H 	0.89411 0.18191 0.60457 0.04000
H 	H 	0.81494 0.17299 0.66412 0.03200
H 	H 	0.85690 0.11021 0.68094 0.03700
C 	C 	0.53797 0.28171 0.62164 -0.08300
C 	C 	0.52871 0.23907 0.63827 0.01100
C 	C 	0.48319 0.21786 0.64791 -0.06600
C 	C 	0.44647 0.23921 0.64109 0.02600
C 	C 	0.45649 0.28418 0.62535 -0.06500
C 	C 	0.50204 0.30543 0.61569 0.01600
C 	C 	0.39685 0.21212 0.64951 0.00200
C 	C 	0.35800 0.18167 0.63502 -0.03900
C 	C 	0.31144 0.15377 0.64311 -0.03200
C 	C 	0.30338 0.15605 0.66573 -0.00600
C 	C 	0.34203 0.18680 0.68020 -0.03400
C 	C 	0.38861 0.21474 0.67213 -0.04000
C 	C 	0.25544 0.12698 0.67414 0.04400
C 	C 	0.21563 0.10324 0.68155 -0.10300
H 	H 	0.55623 0.22085 0.64318 0.01400
H 	H 	0.47599 0.18353 0.66018 0.04400
H 	H 	0.42862 0.30158 0.62019 0.04700
H 	H 	0.50859 0.33837 0.60292 0.04200
H 	H 	0.36400 0.17906 0.61755 0.04200
H 	H 	0.28175 0.13019 0.63182 0.04300
H 	H 	0.33607 0.18893 0.69770 0.03700
H 	H 	0.41827 0.23819 0.68346 0.03800
C 	C 	0.85752 0.51017 0.58066 -0.09100
C 	C 	0.86914 0.51810 0.60330 0.02100
C 	C 	0.91506 0.55617 0.61056 -0.07200
C 	C 	0.95025 0.58572 0.59523 0.03600
C 	C 	0.93932 0.57527 0.57258 -0.07200
C 	C 	0.89290 0.53878 0.56535 0.01800
C 	C 	0.99601 0.63278 0.60286 -0.03000
C 	C 	0.02299 0.62278 0.62084 -0.01900
C 	C 	0.05666 0.67105 0.63230 -0.04600
C 	C 	0.06352 0.72933 0.62581 0.00400
C 	C 	0.04307 0.73833 0.60565 -0.04600
C 	C 	0.00868 0.69039 0.59441 -0.00600
C 	C 	0.07521 0.77574 0.64241 0.03900
C 	C 	0.07763 0.81241 0.65651 -0.10200
H 	H 	0.84217 0.49635 0.61528 0.03100
H 	H 	0.92273 0.56421 0.62808 0.04300
H 	H 	0.96630 0.59685 0.56058 0.04600
H 	H 	0.88433 0.53316 0.54783 0.02900
H 	H 	0.01539 0.57817 0.62687 0.03500
H 	H 	0.07369 0.66336 0.64743 0.03800
H 	H 	0.04953 0.78311 0.60002 0.04800
H 	H 	0.98930 0.69873 0.58016 0.02600
C 	C 	0.78769 0.40205 0.94704 -0.08900
C 	C 	0.82404 0.37892 0.95282 0.01600
C 	C 	0.86121 0.40972 0.96779 -0.06600
C 	C 	0.86235 0.46377 0.97721 0.02600
C 	C 	0.82426 0.48475 0.97267 -0.06800
C 	C 	0.78701 0.45396 0.95769 0.01200
C 	C 	0.90614 0.50159 0.98948 0.00100
C 	C 	0.92258 0.47986 0.00829 -0.04300
C 	C 	0.96899 0.51006 0.01722 -0.03000
C 	C 	0.99904 0.56226 0.00746 -0.01800
C 	C 	0.98141 0.58619 0.98965 -0.04100
C 	C 	0.93508 0.55600 0.98068 -0.03800
C 	C 	0.04943 0.58699 0.01396 0.05900
C 	C 	0.09183 0.60618 0.01918 -0.11700
H 	H 	0.82471 0.33845 0.94504 0.04100
H 	H 	0.89033 0.39298 0.97132 0.04600
H 	H 	0.82443 0.52596 0.98016 0.04400
H 	H 	0.75840 0.47135 0.95389 0.01500
H 	H 	0.90026 0.43828 0.01538 0.03800
H 	H 	0.98229 0.49162 0.03114 0.03300
H 	H 	0.00435 0.62682 0.98215 0.04700
H 	H 	0.92262 0.57330 0.96622 0.03800
C 	C 	0.57143 0.12738 0.92644 -0.08500
C 	C 	0.58019 0.07472 0.93119 0.01100
C 	C 	0.55392 0.03682 0.94742 -0.06000
C 	C 	0.51881 0.05122 0.95911 0.02100
C 	C 	0.51182 0.10522 0.95522 -0.06300
C 	C 	0.53815 0.14327 0.93902 0.01100
C 	C 	0.48748 0.00818 0.97445 0.01200
C 	C 	0.43768 0.98083 0.96950 -0.04700
C 	C 	0.40863 0.93657 0.98313 -0.02900
C 	C 	0.42915 0.91948 0.00178 -0.01100
C 	C 	0.47864 0.94764 0.00700 -0.02700
C 	C 	0.50773 0.99185 0.99338 -0.05100
C 	C 	0.39998 0.87159 0.01512 0.04800
C 	C 	0.37664 0.83134 0.02652 -0.11000
H 	H 	0.60599 0.06201 0.92178 0.03400
H 	H 	0.55980 0.99539 0.95045 0.04200
H 	H 	0.48531 0.11712 0.96442 0.04500
H 	H 	0.53182 0.18439 0.93590 0.03000
H 	H 	0.42175 0.99304 0.95488 0.04200
H 	H 	0.37038 0.91506 0.97903 0.03700
H 	H 	0.49470 0.93474 0.02144 0.03900
H 	H 	0.54608 0.01286 0.99737 0.04300
C 	C 	0.52051 0.36432 0.91141 -0.09000
C 	C 	0.51701 0.42082 0.90885 0.01000
C 	C 	0.48563 0.43845 0.92184 -0.06700
C 	C 	0.45736 0.39980 0.93752 0.02400
C 	C 	0.45930 0.34242 0.93947 -0.06600
C 	C 	0.49065 0.32467 0.92641 0.00900
C 	C 	0.42816 0.42084 0.95278 0.00200
C 	C 	0.44026 0.42721 0.97541 -0.04100
C 	C 	0.41615 0.45331 0.98953 -0.03200
C 	C 	0.37980 0.47314 0.98113 -0.00700
C 	C 	0.36665 0.46519 0.95867 -0.03300
C 	C 	0.39071 0.43908 0.94453 -0.04000
C 	C 	0.35781 0.50447 0.99533 0.04300
C 	C 	0.33976 0.53139 0.00707 -0.11000
H 	H 	0.53927 0.45151 0.89708 0.03200
H 	H 	0.48422 0.48272 0.92014 0.04500
H 	H 	0.43730 0.31206 0.95140 0.04500
H 	H 	0.49295 0.28094 0.92852 0.03000
H 	H 	0.46917 0.41342 0.98194 0.03700
H 	H 	0.42642 0.45915 0.00689 0.04000
H 	H 	0.33843 0.48019 0.95208 0.03500
H 	H 	0.38094 0.43411 0.92711 0.03900
C 	C 	0.79370 0.20433 0.85845 -0.08600
C 	C 	0.79699 0.14791 0.85489 0.01000
C 	C 	0.83822 0.14266 0.84541 -0.06600
C 	C 	0.87665 0.19364 0.83937 0.02400
C 	C 	0.87324 0.24999 0.84265 -0.06500
C 	C 	0.83196 0.25533 0.85213 0.01000
C 	C 	0.91990 0.18769 0.82916 0.00100
C 	C 	0.92993 0.20352 0.80710 -0.04300
C 	C 	0.96542 0.18813 0.79622 -0.03200
C 	C 	0.99102 0.15673 0.80728 -0.01800
C 	C 	0.98356 0.14489 0.82976 -0.04100
C 	C 	0.94816 0.16036 0.84068 -0.03800
C 	C 	0.01693 0.12668 0.79474 0.05800
C 	C 	0.03529 0.09830 0.78387 -0.11800
H 	H 	0.76799 0.10815 0.85976 0.03200
H 	H 	0.84030 0.09894 0.84273 0.04500
H 	H 	0.90259 0.28959 0.83792 0.04400
H 	H 	0.82975 0.29907 0.85459 0.03400
H 	H 	0.90869 0.22517 0.79811 0.03600
H 	H 	0.97109 0.19773 0.77886 0.03000
H 	H 	0.00335 0.12094 0.83848 0.05000
H 	H 	0.94128 0.14886 0.85782 0.03900
C 	C 	0.50349 0.14003 0.83328 -0.08700
C 	C 	0.46663 0.16418 0.83020 0.01600
C 	C 	0.42175 0.12945 0.82083 -0.06700
C 	C 	0.41322 0.07034 0.81436 0.02900
C 	C 	0.45075 0.04717 0.81625 -0.06800
C 	C 	0.49578 0.08192 0.82555 0.01400
C 	C 	0.36481 0.03280 0.80578 -0.00300
C 	C 	0.32417 0.02147 0.81906 -0.03100
C 	C 	0.27741 0.99705 0.80970 -0.04100
C 	C 	0.27103 0.98377 0.78705 -0.00200
C 	C 	0.31154 0.98946 0.77430 -0.04200
C 	C 	0.35834 0.01411 0.78361 -0.03200
C 	C 	0.22571 0.97863 0.77621 0.04000
C 	C 	0.18964 0.97943 0.76663 -0.10500
H 	H 	0.47208 0.20912 0.83573 0.04100
H 	H 	0.39329 0.14815 0.81893 0.04800
H 	H 	0.44475 0.00191 0.81091 0.04500
H 	H 	0.52421 0.06315 0.82729 0.02000
H 	H 	0.32883 0.03445 0.83634 0.04100
H 	H 	0.24629 0.99213 0.81975 0.04300
H 	H 	0.30692 0.97865 0.75682 0.03800
H 	H 	0.38948 0.02169 0.77331 0.03600
C 	C 	0.75552 0.43933 0.85120 -0.09000
C 	C 	0.73440 0.47280 0.83834 0.00900
C 	C 	0.76363 0.52063 0.82616 -0.06700
C 	C 	0.81419 0.53525 0.82659 0.02400
C 	C 	0.83510 0.49997 0.83845 -0.06600
C 	C 	0.80595 0.45210 0.85062 0.01200
C 	C 	0.84535 0.58878 0.81531 0.00100
C 	C 	0.87484 0.58350 0.79813 -0.04200
C 	C 	0.90391 0.63419 0.78730 -0.03500
C 	C 	0.90371 0.69046 0.79355 -0.00800
C 	C 	0.87483 0.69593 0.81091 -0.03300
C 	C 	0.84579 0.64528 0.82179 -0.04100
C 	C 	0.93021 0.74186 0.78105 0.03900
C 	C 	0.95149 0.78395 0.76995 -0.10900
H 	H 	0.69550 0.46263 0.83814 0.03100
H 	H 	0.74707 0.54691 0.81668 0.04400
H 	H 	0.87406 0.51055 0.83869 0.04500
H 	H 	0.82283 0.42629 0.86016 0.04000
H 	H 	0.87482 0.54012 0.79303 0.03600
H 	H 	0.92600 0.62961 0.77383 0.03200
H 	H 	0.87439 0.73926 0.81580 0.04000
H 	H 	0.82352 0.64988 0.83517 0.03900
