data_crystal

_cell_length_a 30.75829
_cell_length_b 30.97356
_cell_length_c 31.77706
_cell_angle_alpha 95.49534
_cell_angle_beta  95.48073
_cell_angle_gamma 125.53452

_symmetry_space_group_name_	'P 1'
_symmetry_space_group_name_H-M	'P 1'

loop_
_symmetry_equiv_pos_as_xyz
  x,y,z

loop_
_atom_site_label
_atom_site_type_symbol
_atom_site_fract_x
_atom_site_fract_y
_atom_site_fract_z
_atom_site_charge
N 	N 	0.02735 0.05468 0.98251 -0.13500
C 	C 	0.05062 0.02905 0.97596 0.12800
N 	N 	0.02120 0.97498 0.97423 -0.13400
N 	N 	0.00494 0.95896 0.46706 -0.13300
C 	C 	0.03394 0.01160 0.46309 0.11500
N 	N 	0.00828 0.03502 0.45757 -0.13600
C 	C 	0.09319 0.04326 0.46502 -0.02000
C 	C 	0.12425 0.03330 0.49190 -0.02000
C 	C 	0.11872 0.08262 0.43926 -0.02000
H 	H 	0.10521 0.00356 0.51234 0.04000
H 	H 	0.09522 0.09048 0.41818 0.04200
C 	C 	0.15419 0.08336 0.96981 0.00400
C 	C 	0.10690 0.05928 0.97245 -0.04000
H 	H 	0.99057 0.10920 0.95106 0.03900
H 	H 	0.99279 0.10755 0.49289 0.03900
H 	H 	0.97459 0.87462 0.92875 0.04100
C 	C 	0.97447 0.02611 0.98722 0.11000
C 	C 	0.96840 0.94625 0.97892 0.11500
N 	N 	0.94510 0.97189 0.98541 -0.13700
C 	C 	0.95373 0.00593 0.45598 0.10700
N 	N 	0.92475 0.95305 0.45975 -0.13600
C 	C 	0.95044 0.92960 0.46547 0.11400
Cu	Cu	0.64654 0.25494 0.99934 0.92700
Cu	Cu	0.69565 0.25878 0.91160 0.86800
Cu	Cu	0.67814 0.33957 0.94271 0.89600
Cu	Cu	0.64668 0.35523 0.02558 0.89500
C 	C 	0.65803 0.29490 0.08830 0.30300
O 	O 	0.56695 0.22360 0.99601 -0.36400
C 	C 	0.67162 0.30696 0.85017 0.30100
O 	O 	0.69094 0.33893 0.00282 -0.64000
O 	O 	0.64218 0.26047 0.93778 -0.64100
O 	O 	0.67920 0.21512 0.99906 -0.37400
O 	O 	0.74298 0.27159 0.96194 -0.44500
O 	O 	0.63441 0.31707 0.07538 -0.38500
O 	O 	0.71809 0.41722 0.95085 -0.38500
C 	C 	0.71474 0.44740 0.98068 0.30700
C 	C 	0.54634 0.24647 0.97879 0.28200
O 	O 	0.57890 0.29691 0.97398 -0.39400
O 	O 	0.67956 0.42622 0.00691 -0.39200
O 	O 	0.66229 0.26342 0.06069 -0.35900
C 	C 	0.72599 0.23550 0.98679 0.31000
O 	O 	0.67178 0.33961 0.88040 -0.38000
O 	O 	0.66631 0.26325 0.85789 -0.42200
H 	H 	0.72970 0.36239 0.01703 0.16500
H 	H 	0.60520 0.23753 0.91995 0.17500
Cu	Cu	0.73002 0.33750 0.44130 0.92700
Cu	Cu	0.73436 0.29768 0.53273 0.87000
Cu	Cu	0.64665 0.30656 0.50005 0.89700
Cu	Cu	0.62701 0.33491 0.41604 0.89500
C 	C 	0.68364 0.31845 0.35246 0.28600
O 	O 	0.76060 0.41606 0.44185 -0.36300
C 	C 	0.68843 0.32560 0.59347 0.28700
O 	O 	0.64574 0.29317 0.43975 -0.64000
O 	O 	0.72670 0.34525 0.50328 -0.64100
O 	O 	0.76962 0.30431 0.44214 -0.37400
O 	O 	0.71698 0.24600 0.48432 -0.44400
O 	O 	0.66200 0.34293 0.36465 -0.38300
O 	O 	0.56830 0.26489 0.49266 -0.38300
C 	C 	0.53707 0.26782 0.46338 0.30800
C 	C 	0.73752 0.43676 0.45845 0.30100
O 	O 	0.68759 0.40481 0.46506 -0.39300
O 	O 	0.55766 0.30391 0.43803 -0.39500
O 	O 	0.71909 0.31885 0.37991 -0.35900
C 	C 	0.75008 0.25939 0.45691 0.30900
O 	O 	0.64671 0.30792 0.56243 -0.38500
O 	O 	0.73278 0.33205 0.58498 -0.42000
H 	H 	0.62252 0.25446 0.42615 0.16400
H 	H 	0.74876 0.38288 0.51936 0.17300
C 	C 	0.67469 0.33055 0.72604 0.01200
C 	C 	0.72489 0.36728 0.71439 -0.05800
C 	C 	0.72887 0.36797 0.67096 0.00900
C 	C 	0.67147 0.31619 0.80676 -0.10500
C 	C 	0.63174 0.29735 0.65065 0.00900
C 	C 	0.62789 0.29667 0.69413 -0.05700
C 	C 	0.67242 0.32321 0.77008 0.03600
C 	C 	0.68262 0.33174 0.63881 -0.08600
H 	H 	0.76117 0.39397 0.73892 0.04300
H 	H 	0.76817 0.39552 0.66232 0.03100
H 	H 	0.59563 0.26943 0.62624 0.03800
H 	H 	0.58886 0.26840 0.70291 0.04600
C 	C 	0.67210 0.29050 0.21646 0.01500
C 	C 	0.62485 0.26810 0.23405 -0.05600
C 	C 	0.62839 0.27465 0.27866 0.01000
C 	C 	0.66499 0.29279 0.13317 -0.09700
C 	C 	0.72626 0.32327 0.28837 0.01500
C 	C 	0.72268 0.31696 0.24367 -0.05700
C 	C 	0.66910 0.29143 0.17107 0.03800
C 	C 	0.67924 0.30349 0.30606 -0.08100
H 	H 	0.58556 0.24727 0.21320 0.04700
H 	H 	0.59180 0.25876 0.29196 0.02200
H 	H 	0.76576 0.34557 0.30918 0.04000
H 	H 	0.75938 0.33420 0.23030 0.04700
C 	C 	0.91959 0.87261 0.47026 -0.02000
C 	C 	0.94178 0.85714 0.50070 -0.02000
C 	C 	0.91659 0.80250 0.50146 -0.04800
C 	C 	0.86893 0.76276 0.47185 0.01300
C 	C 	0.84540 0.77816 0.44261 -0.04800
C 	C 	0.87058 0.83290 0.44188 -0.02000
C 	C 	0.84561 0.70520 0.46978 0.00700
C 	C 	0.84485 0.67557 0.43303 -0.04200
C 	C 	0.82506 0.62173 0.43178 -0.03100
C 	C 	0.80597 0.59716 0.46723 -0.00900
C 	C 	0.80662 0.62663 0.50394 -0.03100
C 	C 	0.82642 0.68051 0.50525 -0.04300
C 	C 	0.78326 0.54096 0.46506 0.04500
C 	C 	0.76321 0.49360 0.46253 -0.11000
H 	H 	0.97920 0.88745 0.52316 0.03900
H 	H 	0.93489 0.79103 0.52430 0.04200
H 	H 	0.80830 0.74774 0.41989 0.04300
H 	H 	0.85302 0.84431 0.41830 0.04000
H 	H 	0.86000 0.69439 0.40564 0.04100
H 	H 	0.82442 0.59911 0.40320 0.04000
H 	H 	0.79160 0.60779 0.53137 0.03800
H 	H 	0.82691 0.70305 0.53378 0.04100
C 	C 	0.92654 0.03231 0.45167 -0.01700
C 	C 	0.95310 0.08595 0.47251 -0.02300
C 	C 	0.92834 0.11173 0.46741 -0.04700
C 	C 	0.87682 0.08430 0.44133 0.01000
C 	C 	0.85006 0.03059 0.42064 -0.04500
C 	C 	0.87476 0.00466 0.42584 -0.02900
C 	C 	0.85035 0.11141 0.43677 0.00800
C 	C 	0.80126 0.09103 0.45124 -0.04400
C 	C 	0.77916 0.11975 0.45119 -0.03100
C 	C 	0.80598 0.16905 0.43674 -0.01200
C 	C 	0.85400 0.18856 0.42087 -0.03100
C 	C 	0.87606 0.15978 0.42075 -0.04400
C 	C 	0.78677 0.20169 0.44184 0.04600
C 	C 	0.77033 0.22849 0.44772 -0.12100
H 	H 	0.94903 0.15294 0.48396 0.04000
H 	H 	0.81027 0.00905 0.40043 0.04000
H 	H 	0.85400 0.96343 0.40934 0.04500
H 	H 	0.78108 0.05378 0.46366 0.03900
H 	H 	0.74198 0.10437 0.46346 0.03600
H 	H 	0.87489 0.22657 0.40955 0.03900
H 	H 	0.91370 0.17561 0.40912 0.04000
C 	C 	0.18003 0.06183 0.49256 -0.04800
C 	C 	0.20533 0.10062 0.46641 0.01300
C 	C 	0.17454 0.11113 0.43995 -0.04800
C 	C 	0.26392 0.12973 0.46636 0.00800
C 	C 	0.29976 0.18588 0.48054 -0.04300
C 	C 	0.35531 0.21346 0.48043 -0.03000
C 	C 	0.37536 0.18509 0.46618 -0.00900
C 	C 	0.33968 0.12901 0.45211 -0.03100
C 	C 	0.28411 0.10138 0.45219 -0.04300
C 	C 	0.43240 0.21369 0.46534 0.04600
C 	C 	0.48019 0.23809 0.46452 -0.10800
H 	H 	0.20359 0.05379 0.51336 0.04200
H 	H 	0.19375 0.14095 0.41959 0.04300
H 	H 	0.28459 0.20807 0.49171 0.04100
H 	H 	0.38270 0.25684 0.49133 0.04000
H 	H 	0.35491 0.10686 0.44098 0.03700
H 	H 	0.25673 0.05805 0.44107 0.04100
C 	C 	0.93675 0.88753 0.97755 -0.02200
C 	C 	0.89849 0.86279 0.00448 -0.01700
C 	C 	0.87012 0.80750 0.00436 -0.04500
C 	C 	0.87969 0.77646 0.97732 0.01000
C 	C 	0.91733 0.80095 0.94999 -0.04700
C 	C 	0.94572 0.85620 0.95008 -0.02000
C 	C 	0.85080 0.71845 0.97798 0.00900
C 	C 	0.87999 0.69871 0.99117 -0.04600
C 	C 	0.85262 0.64366 0.99160 -0.03300
C 	C 	0.79596 0.60804 0.97888 -0.00800
C 	C 	0.76673 0.62765 0.96574 -0.03000
C 	C 	0.79404 0.68269 0.96527 -0.04300
C 	C 	0.76775 0.55140 0.97952 0.04500
C 	C 	0.74379 0.50394 0.98005 -0.10700
H 	H 	0.89141 0.88651 0.02602 0.04100
H 	H 	0.84119 0.78892 0.02563 0.04300
H 	H 	0.92461 0.77718 0.92873 0.04200
H 	H 	0.92380 0.72604 0.00119 0.04300
H 	H 	0.87546 0.62875 0.00185 0.04000
H 	H 	0.72289 0.60031 0.95587 0.04000
H 	H 	0.77118 0.69752 0.95490 0.04100
C 	C 	0.94887 0.05371 0.99402 -0.02400
C 	C 	0.96125 0.09586 0.97225 -0.01900
C 	C 	0.93457 0.11983 0.97677 -0.05300
C 	C 	0.89539 0.10202 0.00319 0.01600
C 	C 	0.88393 0.06081 0.02575 -0.05000
C 	C 	0.91049 0.03673 0.02118 -0.01600
C 	C 	0.86459 0.12477 0.00561 0.00800
C 	C 	0.80807 0.09147 0.99100 -0.04500
C 	C 	0.77934 0.11361 0.99064 -0.03500
C 	C 	0.80687 0.16913 0.00483 -0.00500
C 	C 	0.86308 0.20224 0.02045 -0.03300
C 	C 	0.89187 0.18014 0.02090 -0.04300
C 	C 	0.77825 0.19270 1.00000 0.04300
C 	C 	0.75431 0.21230 0.99472 -0.12000
H 	H 	0.94356 0.15151 0.95910 0.04100
H 	H 	0.85409 0.04711 0.04651 0.04300
H 	H 	0.90112 0.00479 0.03864 0.03800
H 	H 	0.78664 0.04870 0.97911 0.03900
H 	H 	0.73590 0.08778 0.97846 0.03700
H 	H 	0.88463 0.24521 0.03146 0.03900
H 	H 	0.93542 0.20611 0.03255 0.04000
C 	C 	0.48690 0.21840 0.97098 -0.08800
C 	C 	0.45391 0.17644 0.99286 0.01100
C 	C 	0.39895 0.15461 0.98985 -0.06900
C 	C 	0.37632 0.17429 0.96488 0.02800
C 	C 	0.40849 0.21442 0.94146 -0.06700
C 	C 	0.46353 0.23635 0.94441 0.01100
C 	C 	0.31972 0.15468 0.96498 -0.00500
C 	C 	0.27972 0.12285 0.92783 -0.03500
C 	C 	0.22532 0.10092 0.92898 -0.04200
C 	C 	0.21069 0.11083 0.96721 0.01100
C 	C 	0.25085 0.14398 0.00394 -0.03900
C 	C 	0.30520 0.16587 0.00284 -0.03200
H 	H 	0.47116 0.16190 0.01327 0.04100
H 	H 	0.37419 0.12313 0.00763 0.05000
H 	H 	0.39117 0.22946 0.92174 0.04700
H 	H 	0.48816 0.26794 0.92670 0.03300
H 	H 	0.29058 0.11415 0.89842 0.03800
H 	H 	0.19447 0.07531 0.90046 0.04200
H 	H 	0.23984 0.15185 0.03359 0.04300
H 	H 	0.33590 0.19078 0.03157 0.03900
