data_crystal

_cell_length_a 26.06361
_cell_length_b 20.82317
_cell_length_c 48.59756
_cell_angle_alpha 90.60447
_cell_angle_beta  91.34414
_cell_angle_gamma 110.85011

_symmetry_space_group_name_	'P 1'
_symmetry_space_group_name_H-M	'P 1'

loop_
_symmetry_equiv_pos_as_xyz
  x,y,z

loop_
_atom_site_label
_atom_site_type_symbol
_atom_site_fract_x
_atom_site_fract_y
_atom_site_fract_z
_atom_site_charge
Ni	Ni	0.71493 0.28704 0.87870 1.10000
O 	O 	0.65487 0.23983 0.84967 -0.70500
Ni	Ni	0.59084 0.25989 0.86523 1.09800
O 	O 	0.77150 0.25062 0.86223 -0.36100
O 	O 	0.71348 0.13890 0.85850 -0.39300
O 	O 	0.75083 0.36835 0.85299 -0.36800
Ni	Ni	0.63486 0.13964 0.85017 1.07200
O 	O 	0.75471 0.43686 0.90142 -0.40600
O 	O 	0.62703 0.13829 0.89178 -0.40200
O 	O 	0.53495 0.20913 0.83524 -0.37000
O 	O 	0.65123 0.30781 0.89419 -0.70100
O 	O 	0.77075 0.33725 0.90885 -0.36700
O 	O 	0.53439 0.29649 0.88197 -0.34300
O 	O 	0.59297 0.40720 0.88676 -0.39500
Ni	Ni	0.67195 0.40838 0.89421 1.07200
H 	H 	0.66361 0.25839 0.83098 0.15700
H 	H 	0.64259 0.28919 0.91287 0.16500
C 	C 	0.58272 0.14178 0.90265 0.31400
O 	O 	0.68242 0.41228 0.85298 -0.41700
C 	C 	0.75979 0.18775 0.85239 0.28100
C 	C 	0.52533 0.14387 0.82959 0.28000
C 	C 	0.72832 0.41107 0.84310 0.29400
C 	C 	0.54952 0.35670 0.89463 0.30300
C 	C 	0.77902 0.40163 0.91571 0.31200
O 	O 	0.55632 0.17808 0.89095 -0.36100
O 	O 	0.55145 0.11024 0.84369 -0.38600
Ni	Ni	0.63947 0.36190 0.56663 1.10000
O 	O 	0.69942 0.36906 0.53895 -0.70400
Ni	Ni	0.75473 0.34716 0.56287 1.10000
O 	O 	0.59375 0.39523 0.53914 -0.35000
O 	O 	0.66616 0.48927 0.52739 -0.39300
O 	O 	0.59264 0.26468 0.55181 -0.35500
Ni	Ni	0.73602 0.46352 0.52668 1.06900
O 	O 	0.57992 0.24436 0.60552 -0.38800
O 	O 	0.75050 0.50014 0.56612 -0.41300
O 	O 	0.81036 0.35626 0.53298 -0.36800
O 	O 	0.69560 0.34158 0.59094 -0.70100
O 	O 	0.58254 0.35252 0.59596 -0.36700
O 	O 	0.80002 0.30810 0.58816 -0.35100
O 	O 	0.73034 0.22510 0.60854 -0.39500
Ni	Ni	0.65921 0.24778 0.60440 1.06800
H 	H 	0.68640 0.33621 0.52321 0.15800
H 	H 	0.70900 0.37569 0.60625 0.15600
C 	C 	0.79325 0.49772 0.57994 0.29500
O 	O 	0.64756 0.20592 0.56569 -0.40800
C 	C 	0.61657 0.44510 0.52204 0.30000
C 	C 	0.83067 0.41331 0.51902 0.30600
C 	C 	0.61027 0.21314 0.54866 0.30400
C 	C 	0.77985 0.27214 0.60995 0.27700
C 	C 	0.56514 0.29732 0.61113 0.28100
O 	O 	0.80513 0.44137 0.57927 -0.35800
O 	O 	0.81521 0.46619 0.52409 -0.40000
Ni	Ni	0.05200 0.96401 0.75576 1.10000
O 	O 	0.04832 0.91701 0.71831 -0.70100
Ni	Ni	0.09788 0.99543 0.69688 1.09800
O 	O 	0.99899 0.87521 0.77207 -0.37000
O 	O 	0.93471 0.86319 0.73756 -0.41000
O 	O 	0.11605 0.93155 0.76464 -0.37600
Ni	Ni	0.97581 0.88583 0.70053 1.06200
O 	O 	0.11098 0.12763 0.78162 -0.39500
O 	O 	0.96877 0.98026 0.70296 -0.41600
O 	O 	0.09689 0.93968 0.66207 -0.36700
O 	O 	0.09106 0.04467 0.73242 -0.70100
O 	O 	0.06265 0.01482 0.79301 -0.36100
O 	O 	0.16254 0.07769 0.68302 -0.36700
O 	O 	0.21027 0.08890 0.72399 -0.41500
Ni	Ni	0.15699 0.10453 0.75237 1.07300
H 	H 	0.06291 0.87916 0.71910 0.16000
H 	H 	0.06675 0.07136 0.72967 0.15700
C 	C 	0.99725 0.03131 0.68759 0.27200
O 	O 	0.17346 0.03776 0.77832 -0.38100
C 	C 	0.95298 0.83800 0.75886 0.27300
C 	C 	0.04931 0.89432 0.65321 0.27600
C 	C 	0.16572 0.97459 0.77057 0.28900
C 	C 	0.20865 0.10401 0.69779 0.27300
C 	C 	0.07093 0.08129 0.79501 0.27600
O 	O 	0.04373 0.03279 0.67709 -0.35000
O 	O 	0.00257 0.89983 0.66097 -0.39600
Ni	Ni	0.24767 0.69967 0.37905 1.10100
O 	O 	0.31038 0.75724 0.35513 -0.70400
Ni	Ni	0.37306 0.73495 0.37114 1.10300
O 	O 	0.19360 0.73264 0.35770 -0.36300
O 	O 	0.24667 0.84565 0.36602 -0.39500
O 	O 	0.23605 0.62446 0.34947 -0.38700
Ni	Ni	0.32786 0.85559 0.35854 1.07400
O 	O 	0.23629 0.60257 0.43355 -0.39400
O 	O 	0.34257 0.85718 0.40003 -0.39800
O 	O 	0.42890 0.78552 0.34290 -0.35900
O 	O 	0.31294 0.69078 0.39885 -0.70000
O 	O 	0.18374 0.63509 0.40119 -0.36500
O 	O 	0.42386 0.68537 0.38514 -0.35300
O 	O 	0.35205 0.58447 0.38138 -0.41200
Ni	Ni	0.29394 0.59399 0.40786 1.08000
H 	H 	0.30411 0.74250 0.33552 0.15800
H 	H 	0.31989 0.71842 0.41615 0.16200
C 	C 	0.38935 0.85562 0.40988 0.31100
O 	O 	0.23203 0.54197 0.38054 -0.37700
C 	C 	0.20370 0.79845 0.35376 0.27500
C 	C 	0.43230 0.84790 0.33551 0.27000
C 	C 	0.22869 0.56040 0.35508 0.30500
C 	C 	0.40425 0.61809 0.38724 0.30300
C 	C 	0.18867 0.60541 0.42467 0.31400
O 	O 	0.41215 0.81484 0.39866 -0.35900
O 	O 	0.41014 0.88408 0.35073 -0.38300
Ni	Ni	0.33878 0.65463 0.06277 1.10200
O 	O 	0.27588 0.64771 0.03559 -0.70200
Ni	Ni	0.22144 0.66445 0.06077 1.10100
O 	O 	0.37435 0.60259 0.03788 -0.36200
O 	O 	0.29247 0.51481 0.03073 -0.39600
O 	O 	0.38870 0.74405 0.04495 -0.35300
Ni	Ni	0.24006 0.56169 0.01512 1.08100
O 	O 	0.40403 0.78003 0.09934 -0.39100
O 	O 	0.17910 0.50632 0.04074 -0.37200
O 	O 	0.15105 0.63600 0.03605 -0.36800
O 	O 	0.28935 0.68531 0.08617 -0.70200
O 	O 	0.39907 0.66886 0.09190 -0.36500
O 	O 	0.18261 0.70216 0.08977 -0.36100
O 	O 	0.25459 0.80461 0.09280 -0.40000
Ni	Ni	0.32636 0.78240 0.09500 1.06900
H 	H 	0.28757 0.68546 0.02228 0.16100
H 	H 	0.28127 0.65852 0.10327 0.15700
C 	C 	0.18246 0.51180 0.06769 0.29600
O 	O 	0.33729 0.80956 0.05496 -0.40900
C 	C 	0.34565 0.54183 0.02706 0.29700
C 	C 	0.14526 0.60615 0.01132 0.31300
C 	C 	0.37537 0.79853 0.04065 0.31100
C 	C 	0.20728 0.76289 0.10176 0.27100
C 	C 	0.41572 0.72579 0.10719 0.28100
O 	O 	0.19457 0.57196 0.08007 -0.38600
O 	O 	0.18804 0.60342 0.99804 -0.39300
Ni	Ni	0.89965 0.00674 0.26108 1.09700
O 	O 	0.91823 0.07782 0.23078 -0.71000
Ni	Ni	0.88440 0.01752 0.19805 1.10000
O 	O 	0.93808 0.08076 0.29045 -0.35800
O 	O 	0.01715 0.11596 0.26609 -0.38900
O 	O 	0.82799 0.02596 0.26483 -0.38100
Ni	Ni	0.99637 0.12121 0.22463 1.06000
O 	O 	0.84396 0.83167 0.26312 -0.39700
O 	O 	0.01027 0.03163 0.21743 -0.39000
O 	O 	0.89682 0.09467 0.17081 -0.36700
O 	O 	0.87901 0.94596 0.22734 -0.70300
O 	O 	0.87516 0.93145 0.28971 -0.36900
O 	O 	0.83234 0.94742 0.17073 -0.37200
O 	O 	0.76732 0.90676 0.20322 -0.41500
Ni	Ni	0.80899 0.87151 0.23303 1.07100
H 	H 	0.90098 0.11271 0.23346 0.15900
H 	H 	0.90714 0.92484 0.22500 0.15100
C 	C 	0.99086 0.99353 0.19518 0.25600
O 	O 	0.77573 0.91236 0.26292 -0.38700
C 	C 	0.98755 0.12580 0.28629 0.24200
C 	C 	0.94475 0.14595 0.17171 0.26800
C 	C 	0.77963 0.97671 0.26273 0.30000
C 	C 	0.78129 0.91317 0.17721 0.27200
C 	C 	0.87435 0.86887 0.28403 0.28100
O 	O 	0.94946 0.99945 0.18086 -0.36100
O 	O 	0.98859 0.13792 0.18345 -0.40200
C 	C 	0.01472 0.32134 0.13835 0.02500
C 	C 	0.06328 0.37899 0.13916 -0.06100
C 	C 	0.10022 0.38650 0.11791 0.02400
C 	C 	0.08956 0.33584 0.09714 -0.00300
C 	C 	0.04097 0.27833 0.09617 -0.04800
C 	C 	0.00481 0.26958 0.11795 0.03200
S 	S 	0.98209 0.28493 0.16618 -0.03000
C 	C 	0.95296 0.20451 0.15383 -0.05600
C 	C 	0.96980 0.20398 0.12661 -0.03300
S 	S 	0.12581 0.37124 0.06996 0.06600
C 	C 	0.15877 0.44957 0.08396 -0.07300
C 	C 	0.13951 0.45050 0.11066 -0.01800
H 	H 	0.07171 0.41716 0.15562 0.05100
H 	H 	0.03291 0.23993 0.07982 0.06100
H 	H 	0.96565 0.15688 0.11552 0.05500
H 	H 	0.14708 0.49740 0.12258 0.04900
C 	C 	0.63965 0.88177 0.14324 0.00800
C 	C 	0.58585 0.87579 0.14882 -0.05100
C 	C 	0.54470 0.81058 0.14659 0.02100
C 	C 	0.55833 0.75237 0.14089 -0.00500
C 	C 	0.61248 0.75819 0.13605 -0.04700
C 	C 	0.65357 0.82347 0.13850 0.02100
S 	S 	0.69464 0.94296 0.15654 0.02900
C 	C 	0.73820 0.90042 0.15605 -0.06700
C 	C 	0.70905 0.83395 0.14564 -0.02200
S 	S 	0.50362 0.69315 0.12610 0.05700
C 	C 	0.46042 0.73628 0.12762 -0.07700
C 	C 	0.48941 0.80102 0.13968 -0.01700
H 	H 	0.57592 0.92087 0.15364 0.05200
H 	H 	0.62251 0.71317 0.13127 0.05300
H 	H 	0.72407 0.79192 0.14785 0.03500
H 	H 	0.47437 0.84328 0.13901 0.04200
C 	C 	0.15364 0.88976 0.13973 0.00800
C 	C 	0.14599 0.93481 0.15945 -0.05500
C 	C 	0.09307 0.93707 0.16142 0.01900
C 	C 	0.04926 0.89203 0.14548 0.01900
C 	C 	0.05551 0.83952 0.12922 -0.05700
C 	C 	0.10905 0.84056 0.12571 0.02200
S 	S 	0.20650 0.86320 0.13907 0.00400
C 	C 	0.17630 0.79069 0.12032 -0.06900
C 	C 	0.12178 0.78508 0.11449 -0.01800
S 	S 	0.99117 0.89067 0.15908 0.00000
C 	C 	0.01856 0.94839 0.18471 -0.04800
C 	C 	0.07600 0.96949 0.18335 -0.02900
H 	H 	0.17926 0.96501 0.17326 0.04800
H 	H 	0.02020 0.79844 0.12045 0.05900
H 	H 	0.09325 0.74436 0.10176 0.05700
H 	H 	0.10422 0.00865 0.19681 0.04800
C 	C 	0.54075 0.91487 0.27766 0.00300
C 	C 	0.58013 0.90871 0.25980 -0.05200
C 	C 	0.63315 0.95872 0.26174 0.01900
C 	C 	0.64681 0.01002 0.28252 -0.00100
C 	C 	0.60949 0.00981 0.30285 -0.04700
C 	C 	0.55528 0.96339 0.29953 0.02000
S 	S 	0.48355 0.85078 0.28571 0.01800
C 	C 	0.47337 0.88434 0.31556 -0.06400
C 	C 	0.51701 0.94625 0.32098 -0.01600
S 	S 	0.71480 0.03975 0.28722 0.04600
C 	C 	0.72948 0.99338 0.26233 -0.08000
C 	C 	0.67964 0.94947 0.25033 -0.01700
H 	H 	0.57070 0.86480 0.24586 0.04800
H 	H 	0.62276 0.04213 0.32118 0.05800
H 	H 	0.52422 0.97324 0.34069 0.06300
H 	H 	0.67668 0.90620 0.23699 0.04200
C 	C 	0.12158 0.41143 0.31321 -0.00500
C 	C 	0.06666 0.36718 0.31117 -0.04700
C 	C 	0.05449 0.29779 0.31739 0.01700
C 	C 	0.09598 0.27511 0.32732 0.00700
C 	C 	0.15086 0.31931 0.32936 -0.05200
C 	C 	0.16301 0.38873 0.32327 0.02300
S 	S 	0.14161 0.49530 0.31972 0.04700
C 	C 	0.20341 0.50696 0.33401 -0.07400
C 	C 	0.20917 0.44244 0.33483 -0.01500
S 	S 	0.07590 0.19126 0.32092 0.03200
C 	C 	0.01367 0.17943 0.30710 -0.05300
C 	C 	0.00796 0.24392 0.30618 -0.01200
H 	H 	0.03473 0.38566 0.30418 0.05200
H 	H 	0.18277 0.30082 0.33639 0.05600
H 	H 	0.24059 0.43290 0.34733 0.05100
H 	H 	0.97642 0.25330 0.29371 0.02100
C 	C 	0.99232 0.80532 0.30287 -0.01300
C 	C 	0.02492 0.76548 0.30701 -0.03700
C 	C 	0.06811 0.78934 0.32664 0.01900
C 	C 	0.07446 0.84751 0.34325 0.00200
C 	C 	0.04127 0.88688 0.33912 -0.03800
C 	C 	0.99862 0.86327 0.31923 0.00800
S 	S 	0.93074 0.77962 0.28750 0.02000
C 	C 	0.91032 0.84189 0.30003 -0.07000
C 	C 	0.95281 0.88441 0.31765 -0.02400
S 	S 	0.13872 0.87782 0.35568 0.04100
C 	C 	0.16030 0.81882 0.34128 -0.07900
C 	C 	0.11610 0.77267 0.32584 -0.01500
H 	H 	0.01905 0.72010 0.29439 0.04900
H 	H 	0.04778 0.93327 0.35121 0.05400
H 	H 	0.95184 0.93065 0.32768 0.05100
H 	H 	0.11845 0.72867 0.31457 0.04700
C 	C 	0.57944 0.15561 0.52988 -0.09700
C 	C 	0.52300 0.11874 0.53344 0.15000
C 	C 	0.49356 0.06743 0.51433 -0.08300
C 	C 	0.51984 0.05143 0.49187 0.02400
C 	C 	0.57658 0.08644 0.48881 0.08400
C 	C 	0.60610 0.13827 0.50782 -0.01400
H 	H 	0.45003 0.04006 0.51689 0.08600
C 	C 	0.48695 0.00094 0.47080 0.02700
H 	H 	0.64958 0.16575 0.50519 0.05300
C 	C 	0.46671 0.02402 0.44743 -0.08300
C 	C 	0.43398 0.97712 0.42762 0.15200
C 	C 	0.42020 0.90583 0.43143 -0.09800
C 	C 	0.44029 0.88280 0.45492 -0.00800
C 	C 	0.47356 0.92993 0.47457 0.08200
H 	H 	0.47690 0.07866 0.44452 0.08800
H 	H 	0.43046 0.82822 0.45781 0.05900
Br	Br	0.61433 0.06415 0.45883 -0.20700
Br	Br	0.48567 0.13566 0.56474 -0.21900
Br	Br	0.41135 0.01197 0.39488 -0.26000
Br	Br	0.50110 0.89649 0.50617 -0.20700
C 	C 	0.88310 0.42693 0.50529 -0.09600
C 	C 	0.93251 0.44315 0.52096 0.15500
C 	C 	0.98297 0.46802 0.50795 -0.09900
C 	C 	0.98480 0.47777 0.47945 0.01200
C 	C 	0.93549 0.45875 0.46363 0.08700
C 	C 	0.88494 0.43365 0.47662 -0.01700
H 	H 	0.02084 0.48183 0.52013 0.09500
C 	C 	0.03838 0.51105 0.46655 0.03800
H 	H 	0.84712 0.42126 0.46448 0.05000
C 	C 	0.06751 0.47066 0.45695 -0.08700
C 	C 	0.11760 0.50116 0.44398 0.15300
C 	C 	0.13926 0.57305 0.44082 -0.09600
C 	C 	0.11060 0.61352 0.45097 -0.00700
C 	C 	0.06049 0.58295 0.46388 0.08300
H 	H 	0.05077 0.41537 0.45914 0.09000
H 	H 	0.12696 0.66875 0.44852 0.06100
Br	Br	0.93642 0.46863 0.42440 -0.22200
Br	Br	0.93208 0.43524 0.56031 -0.23100
Br	Br	0.15424 0.44330 0.42955 -0.23400
Br	Br	0.02242 0.64009 0.47741 -0.20200
C 	C 	0.58150 0.46349 0.50205 -0.09800
C 	C 	0.56736 0.52196 0.50651 0.15200
C 	C 	0.53973 0.54373 0.48576 -0.08300
C 	C 	0.52479 0.50673 0.46078 0.02100
C 	C 	0.53767 0.44727 0.45657 0.08600
C 	C 	0.56593 0.42592 0.47722 -0.01700
H 	H 	0.52898 0.58884 0.48921 0.08600
C 	C 	0.49298 0.52846 0.43987 0.02700
H 	H 	0.57663 0.38077 0.47378 0.05400
C 	C 	0.52033 0.57191 0.41883 -0.08700
C 	C 	0.49138 0.59918 0.40062 0.15500
C 	C 	0.43474 0.58428 0.40395 -0.11400
C 	C 	0.40718 0.53848 0.42434 -0.00700
C 	C 	0.43593 0.51035 0.44213 0.07800
H 	H 	0.56415 0.58480 0.41673 0.08500
H 	H 	0.36350 0.52603 0.42681 0.01500
Br	Br	0.51673 0.39455 0.42283 -0.20900
Br	Br	0.58363 0.57120 0.54118 -0.21500
Br	Br	0.52929 0.65330 0.37056 -0.21400
Br	Br	0.39668 0.44784 0.46970 -0.20600
C 	C 	0.94225 0.16185 0.65230 0.00100
C 	C 	0.93980 0.22099 0.63998 -0.05300
C 	C 	0.89497 0.24071 0.64589 0.01800
C 	C 	0.85722 0.20557 0.66583 0.00400
C 	C 	0.86096 0.14744 0.67866 -0.05600
C 	C 	0.90504 0.12722 0.67217 0.01800
S 	S 	0.99793 0.14105 0.65567 0.03000
C 	C 	0.97656 0.08679 0.68180 -0.08000
C 	C 	0.92380 0.08405 0.68861 -0.02300
S 	S 	0.79831 0.21651 0.65880 0.00500
C 	C 	0.81825 0.26766 0.63178 -0.06800
C 	C 	0.87314 0.27620 0.62692 -0.01800
H 	H 	0.96953 0.24805 0.62498 0.05400
H 	H 	0.83070 0.11916 0.69322 0.04600
H 	H 	0.89995 0.05216 0.70464 0.04300
H 	H 	0.89315 0.29678 0.60798 0.06600
C 	C 	0.33060 0.16347 0.64709 0.00000
C 	C 	0.36531 0.19977 0.62643 -0.04600
C 	C 	0.42214 0.21788 0.63114 0.02500
C 	C 	0.44268 0.20355 0.65623 0.01200
C 	C 	0.40851 0.17829 0.67846 -0.05700
C 	C 	0.35157 0.15608 0.67327 0.02100
S 	S 	0.26499 0.15493 0.65009 0.04700
C 	C 	0.26050 0.14034 0.68402 -0.07700
C 	C 	0.31206 0.14230 0.69406 -0.02200
S 	S 	0.50958 0.24828 0.65829 0.00100
C 	C 	0.51595 0.28533 0.62737 -0.05800
C 	C 	0.46311 0.26361 0.61476 -0.00900
H 	H 	0.34897 0.21503 0.60795 0.06000
H 	H 	0.42539 0.17769 0.69900 0.04800
H 	H 	0.32056 0.13341 0.71532 0.04300
H 	H 	0.45536 0.27595 0.59384 0.06700
C 	C 	0.91281 0.67389 0.58035 -0.00700
C 	C 	0.94082 0.74494 0.58176 -0.03300
C 	C 	0.99047 0.77010 0.59710 -0.02600
C 	C 	0.00978 0.72456 0.61152 0.04800
C 	C 	0.97776 0.65448 0.61296 -0.08400
C 	C 	0.92938 0.62920 0.59665 0.03800
S 	S 	0.84598 0.63664 0.57348 0.03100
C 	C 	0.83551 0.56256 0.58963 -0.07200
C 	C 	0.88618 0.56605 0.60150 -0.01800
S 	S 	0.05074 0.76921 0.63710 -0.00200
C 	C 	0.04788 0.84659 0.63066 -0.07400
C 	C 	0.01250 0.83864 0.60760 0.02200
H 	H 	0.92267 0.77975 0.57294 0.04700
H 	H 	0.98796 0.62203 0.62777 0.05500
H 	H 	0.89179 0.52462 0.61299 0.05600
H 	H 	0.99539 0.87727 0.60197 0.03500
C 	C 	0.09072 0.58147 0.99739 -0.08700
C 	C 	0.07099 0.51733 0.98320 0.14300
C 	C 	0.01836 0.49394 0.97105 -0.05700
C 	C 	0.98450 0.53283 0.97329 -0.01400
C 	C 	0.00355 0.59610 0.98781 0.11900
C 	C 	0.05665 0.62043 0.99956 -0.02000
H 	H 	0.00347 0.44497 0.96002 0.08300
C 	C 	0.92944 0.50704 0.96002 0.03500
H 	H 	0.07134 0.66950 0.01051 0.07400
C 	C 	0.88629 0.45737 0.97325 -0.09000
C 	C 	0.83622 0.42381 0.95920 0.14700
C 	C 	0.82910 0.44028 0.93172 -0.10000
C 	C 	0.87137 0.49228 0.91896 -0.00700
C 	C 	0.92151 0.52534 0.93290 0.08000
H 	H 	0.89220 0.44355 0.99421 0.08400
H 	H 	0.86584 0.50551 0.89787 0.06600
Br	Br	0.95749 0.64967 0.99194 -0.22100
Br	Br	0.11351 0.45864 0.98144 -0.25800
Br	Br	0.77793 0.35626 0.97794 -0.24200
Br	Br	0.97947 0.59349 0.91418 -0.21600
C 	C 	0.55570 0.09331 0.92422 -0.10100
C 	C 	0.54055 0.02171 0.91980 0.16100
C 	C 	0.51214 0.97639 0.93993 -0.09100
C 	C 	0.49728 0.00135 0.96417 0.03000
C 	C 	0.51233 0.07269 0.96865 0.08400
C 	C 	0.54140 0.11829 0.94867 -0.00600
H 	H 	0.50050 0.92146 0.93645 0.08800
C 	C 	0.46558 0.95225 0.98461 0.02200
H 	H 	0.55245 0.17317 0.95206 0.05900
C 	C 	0.49341 0.93267 0.00606 -0.08300
C 	C 	0.46441 0.88264 0.02457 0.14800
C 	C 	0.40687 0.85077 0.02132 -0.10000
C 	C 	0.37901 0.87111 0.00007 -0.01400
C 	C 	0.40805 0.92161 0.98174 0.08600
H 	H 	0.53767 0.95645 0.00838 0.08500
H 	H 	0.33475 0.84746 0.99772 0.05900
Br	Br	0.49261 0.10860 0.00167 -0.20100
Br	Br	0.55490 0.98427 0.88576 -0.26300
Br	Br	0.50396 0.86132 0.05485 -0.21400
Br	Br	0.36849 0.94833 0.95295 -0.20700
C 	C 	0.51336 0.37092 0.91473 -0.10000
C 	C 	0.46116 0.37143 0.90670 0.15500
C 	C 	0.43039 0.39299 0.92554 -0.08200
C 	C 	0.45169 0.41538 0.95217 0.02500
C 	C 	0.50297 0.41258 0.96044 0.08500
C 	C 	0.53340 0.39028 0.94175 -0.01300
H 	H 	0.39080 0.39474 0.91915 0.08500
C 	C 	0.42234 0.44694 0.97048 0.02200
H 	H 	0.57338 0.38961 0.94805 0.03800
C 	C 	0.38873 0.40749 0.99086 -0.08100
C 	C 	0.36408 0.43798 0.00975 0.14700
C 	C 	0.37191 0.50843 0.00783 -0.10200
C 	C 	0.40499 0.54751 0.98719 -0.01500
C 	C 	0.43026 0.51724 0.96863 0.08500
H 	H 	0.38300 0.35353 0.99250 0.08900
H 	H 	0.41100 0.60156 0.98552 0.06300
Br	Br	0.53309 0.44160 0.99685 -0.20400
Br	Br	0.43258 0.34688 0.86975 -0.21200
Br	Br	0.32335 0.38368 0.03910 -0.21800
Br	Br	0.47639 0.57308 0.94119 -0.21000
C 	C 	0.87692 0.11318 0.85010 0.00500
C 	C 	0.90587 0.06919 0.84526 -0.05900
C 	C 	0.96165 0.09918 0.83912 0.03100
C 	C 	0.98573 0.17064 0.83584 -0.01500
C 	C 	0.95407 0.21275 0.83624 -0.04700
C 	C 	0.89950 0.18341 0.84448 0.01600
S 	S 	0.80898 0.09010 0.84932 0.03500
C 	C 	0.80535 0.16751 0.84299 -0.07500
C 	C 	0.85943 0.21440 0.84079 -0.01700
S 	S 	0.04256 0.18612 0.81810 0.04500
C 	C 	0.04097 0.10507 0.81568 -0.05000
C 	C 	0.99265 0.06209 0.82771 -0.04400
H 	H 	0.88540 0.01388 0.84526 0.05400
H 	H 	0.97048 0.26528 0.82932 0.04700
H 	H 	0.86948 0.26871 0.83719 0.05000
H 	H 	0.97684 0.00669 0.82499 0.05400
C 	C 	0.29758 0.94623 0.79650 0.00000
C 	C 	0.33950 0.96581 0.81680 -0.05200
C 	C 	0.39236 0.00732 0.80923 0.02700
C 	C 	0.40222 0.03025 0.78202 0.00400
C 	C 	0.35893 0.01753 0.76269 -0.05000
C 	C 	0.30636 0.97386 0.76998 0.02000
S 	S 	0.23163 0.92757 0.80307 0.05300
C 	C 	0.21115 0.94913 0.77287 -0.07500
C 	C 	0.25765 0.97484 0.75666 -0.03000
S 	S 	0.45884 0.10066 0.78260 0.01000
C 	C 	0.47246 0.10373 0.81641 -0.05600
C 	C 	0.43285 0.04785 0.82848 -0.01500
H 	H 	0.33033 0.95401 0.83820 0.06200
H 	H 	0.36499 0.04496 0.74350 0.04700
H 	H 	0.25801 0.00266 0.73794 0.04700
H 	H 	0.43142 0.03905 0.85043 0.06800
C 	C 	0.84266 0.58234 0.82561 0.00000
C 	C 	0.89219 0.63025 0.81698 -0.05000
C 	C 	0.89071 0.69042 0.80491 0.01900
C 	C 	0.84019 0.69920 0.79999 0.00300
C 	C 	0.79018 0.64644 0.80501 -0.05500
C 	C 	0.79205 0.58860 0.81895 0.01900
S 	S 	0.83153 0.50031 0.83138 0.04100
C 	C 	0.76287 0.46978 0.82728 -0.07800
C 	C 	0.74693 0.52556 0.82032 -0.02300
S 	S 	0.84921 0.75793 0.77580 0.02200
C 	C 	0.91627 0.77516 0.77138 -0.07900
C 	C 	0.93392 0.73451 0.78927 -0.01800
H 	H 	0.92995 0.61962 0.81835 0.05400
H 	H 	0.75162 0.64881 0.79721 0.05000
H 	H 	0.70457 0.52118 0.81694 0.04700
H 	H 	0.97550 0.73458 0.79016 0.04500
