data_crystal

_cell_length_a 26.10281
_cell_length_b 26.20922
_cell_length_c 32.72044
_cell_angle_alpha 95.48719
_cell_angle_beta  95.48557
_cell_angle_gamma 125.82970

_symmetry_space_group_name_	'P 1'
_symmetry_space_group_name_H-M	'P 1'

loop_
_symmetry_equiv_pos_as_xyz
  x,y,z

loop_
_atom_site_label
_atom_site_type_symbol
_atom_site_fract_x
_atom_site_fract_y
_atom_site_fract_z
_atom_site_charge
C 	C 	0.01627 0.07378 0.98800 0.11400
C 	C 	0.08345 0.11292 0.99184 -0.09000
C 	C 	0.11707 0.08676 0.99713 0.12400
C 	C 	0.08346 0.02151 0.99860 -0.11000
C 	C 	0.01645 0.98237 0.99493 0.11700
C 	C 	0.98289 0.00855 0.98970 -0.06600
H 	H 	0.10938 0.16340 0.99068 0.10000
H 	H 	0.10941 0.00119 0.00247 0.10300
H 	H 	0.93104 0.97836 0.98713 0.10400
C 	C 	0.89242 0.96083 0.46184 0.14200
C 	C 	0.85419 0.89458 0.46141 -0.09300
C 	C 	0.88022 0.86082 0.45608 0.14100
C 	C 	0.94468 0.89351 0.45175 -0.10700
C 	C 	0.98302 0.95962 0.45239 0.15400
C 	C 	0.95668 0.99307 0.45698 -0.12000
H 	H 	0.80463 0.86953 0.46541 0.11500
H 	H 	0.96514 0.86767 0.44838 0.11400
H 	H 	0.98630 0.04418 0.45724 0.10200
Cu	Cu	0.68508 0.27534 0.99990 0.92900
Cu	Cu	0.69697 0.27450 0.90078 0.88600
Cu	Cu	0.72460 0.38826 0.95724 0.90300
Cu	Cu	0.72662 0.40677 0.05054 0.91200
C 	C 	0.71494 0.30136 0.08869 0.29500
O 	O 	0.60169 0.25157 0.01576 -0.35500
C 	C 	0.66537 0.35196 0.86830 0.29100
O 	O 	0.75191 0.37571 0.00907 -0.63400
O 	O 	0.66416 0.29266 0.94602 -0.64000
O 	O 	0.70543 0.21659 0.97892 -0.33400
O 	O 	0.76382 0.27732 0.93282 -0.42200
O 	O 	0.73467 0.36144 0.09393 -0.35300
O 	O 	0.78765 0.48001 0.97100 -0.35100
C 	C 	0.79312 0.51713 0.00408 0.35100
C 	C 	0.58571 0.29067 0.01590 0.33200
O 	O 	0.62911 0.35122 0.01455 -0.35200
O 	O 	0.76593 0.49391 0.03647 -0.36400
O 	O 	0.71781 0.27383 0.05397 -0.33600
C 	C 	0.75091 0.23515 0.95677 0.33800
O 	O 	0.70958 0.39848 0.89947 -0.36600
O 	O 	0.65175 0.29444 0.86418 -0.39500
H 	H 	0.79801 0.39372 0.01464 0.19200
H 	H 	0.61864 0.27592 0.93813 0.18000
Cu	Cu	0.69698 0.29762 0.45876 0.93200
Cu	Cu	0.68950 0.27624 0.55607 0.89100
Cu	Cu	0.57933 0.25279 0.49792 0.90500
Cu	Cu	0.56778 0.25944 0.40652 0.91300
C 	C 	0.66461 0.25293 0.36994 0.29200
O 	O 	0.71790 0.38100 0.44481 -0.34900
C 	C 	0.60888 0.30415 0.58797 0.29300
O 	O 	0.59629 0.22989 0.44635 -0.63900
O 	O 	0.67515 0.31331 0.51222 -0.63900
O 	O 	0.75579 0.27749 0.48091 -0.36200
O 	O 	0.68928 0.21278 0.52238 -0.39100
O 	O 	0.62702 0.27134 0.36757 -0.35600
O 	O 	0.48739 0.19060 0.48110 -0.37100
C 	C 	0.45239 0.18836 0.44804 0.34400
C 	C 	0.67839 0.39630 0.44843 0.32800
O 	O 	0.61728 0.35130 0.44820 -0.34700
O 	O 	0.47586 0.20774 0.41387 -0.34000
O 	O 	0.70344 0.26757 0.40524 -0.34600
C 	C 	0.73464 0.22904 0.50048 0.33400
O 	O 	0.56429 0.26304 0.55500 -0.36500
O 	O 	0.66674 0.31794 0.59316 -0.39300
H 	H 	0.57817 0.18407 0.43915 0.17900
H 	H 	0.69164 0.35822 0.52186 0.18100
C 	C 	0.55444 0.32207 0.69187 0.00400
C 	C 	0.53973 0.30007 0.72948 -0.04400
C 	C 	0.58044 0.34229 0.76688 0.02700
C 	C 	0.63577 0.40387 0.76603 0.00300
C 	C 	0.65561 0.42158 0.72828 -0.04400
C 	C 	0.61353 0.38052 0.69090 0.02800
S 	S 	0.53012 0.27440 0.64585 0.07100
C 	C 	0.59016 0.32560 0.62265 -0.06800
C 	C 	0.63387 0.38237 0.65200 -0.01300
S 	S 	0.68585 0.43015 0.81134 0.06700
C 	C 	0.63929 0.36763 0.83414 -0.07000
C 	C 	0.58257 0.32167 0.80516 -0.01400
H 	H 	0.50049 0.25063 0.72949 0.06500
H 	H 	0.70367 0.46366 0.72801 0.06400
H 	H 	0.68209 0.41922 0.64769 0.05700
H 	H 	0.54892 0.27260 0.80915 0.05700
C 	C 	0.65802 0.24095 0.19006 0.00600
C 	C 	0.62295 0.20294 0.21827 -0.04100
C 	C 	0.65709 0.21184 0.25741 0.03100
C 	C 	0.72484 0.25300 0.26581 0.00400
C 	C 	0.75969 0.29044 0.23711 -0.03900
C 	C 	0.72521 0.28237 0.19846 0.03000
S 	S 	0.63307 0.22526 0.13879 0.07500
C 	C 	0.70550 0.27118 0.12537 -0.05800
C 	C 	0.75222 0.30058 0.16222 -0.00800
S 	S 	0.74889 0.27532 0.31732 0.08500
C 	C 	0.67656 0.23255 0.33098 -0.06700
C 	C 	0.62996 0.20024 0.29408 -0.01200
H 	H 	0.57088 0.17043 0.21105 0.06900
H 	H 	0.81170 0.32402 0.24444 0.07000
H 	H 	0.80331 0.33481 0.16292 0.06600
H 	H 	0.57948 0.17829 0.29361 0.05500
C 	C 	0.68832 0.54390 0.43618 -0.13500
C 	C 	0.75190 0.59291 0.45610 0.02100
C 	C 	0.79044 0.57729 0.47495 0.29200
C 	C 	0.76589 0.51309 0.47315 -0.05500
C 	C 	0.70269 0.46389 0.45240 -0.13800
C 	C 	0.66377 0.47966 0.43415 0.37500
C 	C 	0.77914 0.66045 0.45529 0.00300
F 	F 	0.85211 0.62433 0.49425 -0.40900
H 	H 	0.79614 0.50159 0.48767 0.09600
F 	F 	0.60300 0.43289 0.41322 -0.42400
H 	H 	0.65833 0.55563 0.42157 0.13600
C 	C 	0.79337 0.68404 0.41798 0.31400
C 	C 	0.82368 0.74910 0.41794 -0.08900
C 	C 	0.84024 0.79116 0.45514 -0.07200
C 	C 	0.82410 0.76721 0.49218 0.34000
C 	C 	0.79356 0.70205 0.49219 -0.11400
F 	F 	0.77954 0.64425 0.38206 -0.40700
H 	H 	0.83588 0.76720 0.38923 0.12300
F 	F 	0.83997 0.80743 0.52839 -0.42200
H 	H 	0.78229 0.68411 0.52103 0.12700
C 	C 	0.77470 0.11483 0.51988 -0.13600
C 	C 	0.79992 0.11264 0.48434 0.02100
C 	C 	0.80454 0.14941 0.45434 0.29000
C 	C 	0.78354 0.18757 0.45974 -0.05400
C 	C 	0.75837 0.18994 0.49540 -0.14100
C 	C 	0.75475 0.15377 0.52573 0.37300
C 	C 	0.82263 0.07275 0.47906 0.00400
F 	F 	0.82987 0.14857 0.42015 -0.41000
H 	H 	0.78640 0.21489 0.43605 0.10500
F 	F 	0.73306 0.15725 0.56122 -0.44100
H 	H 	0.77112 0.08672 0.54321 0.13500
C 	C 	0.87431 0.08606 0.50789 0.30900
C 	C 	0.89547 0.04806 0.50295 -0.09000
C 	C 	0.86606 0.99713 0.46879 -0.07500
C 	C 	0.81415 0.98358 0.44004 0.34100
C 	C 	0.79226 0.02097 0.44538 -0.11500
F 	F 	0.90460 0.13640 0.54033 -0.41100
H 	H 	0.93544 0.05878 0.52531 0.11000
F 	F 	0.78591 0.93519 0.40647 -0.42000
H 	H 	0.75205 0.01006 0.42319 0.13000
C 	C 	0.28475 0.14414 0.42756 -0.14200
C 	C 	0.25092 0.08983 0.44602 0.02100
C 	C 	0.28289 0.06698 0.46423 0.30100
C 	C 	0.34852 0.09882 0.46448 -0.05300
C 	C 	0.38276 0.15374 0.44650 -0.13500
C 	C 	0.35044 0.17612 0.42782 0.37500
C 	C 	0.18242 0.05795 0.44725 0.00600
F 	F 	0.25037 0.01404 0.48180 -0.40400
H 	H 	0.37274 0.08071 0.47856 0.10300
F 	F 	0.38301 0.22978 0.41097 -0.42100
H 	H 	0.26031 0.16204 0.41352 0.12800
C 	C 	0.16393 0.06882 0.48405 0.31700
C 	C 	0.09879 0.03712 0.48550 -0.08700
C 	C 	0.05167 0.99441 0.45022 -0.08900
C 	C 	0.07020 0.98415 0.41322 0.34500
C 	C 	0.13540 0.01587 0.41179 -0.12600
F 	F 	0.20913 0.10988 0.51842 -0.40600
H 	H 	0.08484 0.04530 0.51413 0.10800
F 	F 	0.02506 0.94354 0.37873 -0.42300
H 	H 	0.14940 0.00748 0.38325 0.12400
C 	C 	0.91204 0.80233 0.96236 -0.11700
C 	C 	0.92012 0.78416 0.99998 -0.01700
C 	C 	0.95874 0.83107 0.03614 0.33100
C 	C 	0.98928 0.89573 0.03457 -0.08000
C 	C 	0.98154 0.91398 0.99689 -0.07200
C 	C 	0.94261 0.86701 0.96077 0.34000
C 	C 	0.88808 0.71603 0.00146 0.04400
F 	F 	0.96699 0.81396 0.07268 -0.40100
H 	H 	0.01933 0.93174 0.06254 0.10200
F 	F 	0.93527 0.88418 0.92405 -0.40700
H 	H 	0.88222 0.76632 0.93436 0.12000
C 	C 	0.83238 0.68185 0.01878 0.29800
C 	C 	0.80191 0.61711 0.02000 -0.05200
C 	C 	0.82672 0.58589 0.00381 -0.13000
C 	C 	0.88285 0.62035 0.98673 0.37300
C 	C 	0.91323 0.68513 0.98550 -0.15800
F 	F 	0.80751 0.71129 0.03412 -0.39600
H 	H 	0.75847 0.59095 0.03298 0.11000
F 	F 	0.90854 0.59143 0.97201 -0.42800
H 	H 	0.95647 0.71142 0.97232 0.13100
C 	C 	0.80199 0.12838 0.97074 -0.14800
C 	C 	0.86783 0.17025 0.96986 0.02400
C 	C 	0.89521 0.23335 0.96459 0.29900
C 	C 	0.85696 0.25443 0.96038 -0.05500
C 	C 	0.79101 0.21264 0.96135 -0.14400
C 	C 	0.76362 0.14934 0.96647 0.37600
C 	C 	0.90784 0.14767 0.97402 -0.00400
F 	F 	0.95881 0.27411 0.96340 -0.40100
H 	H 	0.87868 0.30338 0.95665 0.10100
F 	F 	0.69966 0.10776 0.96638 -0.42900
H 	H 	0.78052 0.07952 0.97459 0.12600
C 	C 	0.94993 0.16604 0.01177 0.32700
C 	C 	0.98633 0.14289 0.01598 -0.07900
C 	C 	0.98081 0.10113 0.98259 -0.07000
C 	C 	0.93938 0.08350 0.94464 0.34200
C 	C 	0.90300 0.10666 0.94044 -0.12200
F 	F 	0.95482 0.20554 0.04451 -0.40100
H 	H 	0.01811 0.15660 0.04536 0.10100
F 	F 	0.93423 0.04375 0.91196 -0.40300
H 	H 	0.87082 0.09254 0.91117 0.12300
C 	C 	0.28173 0.17925 0.96857 -0.12100
C 	C 	0.31989 0.18930 0.00612 0.00800
C 	C 	0.29215 0.17067 0.04167 0.31300
C 	C 	0.22626 0.14001 0.03918 -0.09800
C 	C 	0.18756 0.12750 0.00117 -0.05800
C 	C 	0.21575 0.14835 0.96603 0.33200
C 	C 	0.38797 0.21599 0.00756 0.02800
F 	F 	0.32867 0.18041 0.07822 -0.41300
H 	H 	0.20487 0.12428 0.06645 0.10800
F 	F 	0.17880 0.13653 0.92909 -0.41300
H 	H 	0.30295 0.19402 0.94111 0.12600
C 	C 	0.40426 0.17878 0.98769 0.28300
C 	C 	0.46882 0.20330 0.99036 -0.06400
C 	C 	0.51770 0.26516 0.01298 -0.13400
C 	C 	0.50128 0.30241 0.03283 0.37300
C 	C 	0.43668 0.27789 0.02996 -0.13700
F 	F 	0.35745 0.11857 0.96621 -0.41300
H 	H 	0.48085 0.17433 0.97468 0.09500
F 	F 	0.54780 0.36166 0.05572 -0.43300
H 	H 	0.42441 0.30674 0.04551 0.13400
