data_crystal

_cell_length_a 38.90427
_cell_length_b 40.02915
_cell_length_c 22.96057
_cell_angle_alpha 89.95929
_cell_angle_beta  89.94289
_cell_angle_gamma 89.99908

_symmetry_space_group_name_	'P 1'
_symmetry_space_group_name_H-M	'P 1'

loop_
_symmetry_equiv_pos_as_xyz
  x,y,z

loop_
_atom_site_label
_atom_site_type_symbol
_atom_site_fract_x
_atom_site_fract_y
_atom_site_fract_z
_atom_site_charge
C 	C 	0.55675 0.46429 0.06825 0.10000
N 	N 	0.52286 0.46674 0.05714 -0.17400
C 	C 	0.50840 0.43830 0.07668 0.10000
C 	C 	0.47360 0.42735 0.05883 -0.07800
C 	C 	0.44519 0.45180 0.05645 0.08900
C 	C 	0.46639 0.39166 0.04743 0.04800
C 	C 	0.48324 0.37499 0.00191 -0.06700
C 	C 	0.47436 0.34207 0.98814 -0.01200
C 	C 	0.44838 0.32564 0.01961 -0.02200
C 	C 	0.44103 0.37498 0.07977 -0.06400
N 	N 	0.44534 0.48074 0.08640 -0.12800
C 	C 	0.41888 0.45102 0.01606 -0.06200
C 	C 	0.41840 0.49818 0.06548 0.09000
C 	C 	0.41227 0.53370 0.07929 -0.07700
C 	C 	0.37660 0.54636 0.08080 0.04800
C 	C 	0.31833 0.54190 0.11781 -0.01200
C 	C 	0.36551 0.56970 0.03932 -0.06400
C 	C 	0.33081 0.57868 0.03636 -0.01300
C 	C 	0.30690 0.56436 0.07497 -0.01900
N 	N 	0.47271 0.55336 0.07204 -0.17300
C 	C 	0.48937 0.58177 0.08582 0.10100
C 	C 	0.46860 0.60221 0.11954 -0.06200
C 	C 	0.43783 0.58538 0.12643 -0.06300
C 	C 	0.52075 0.59308 0.05480 -0.07700
C 	C 	0.52784 0.62913 0.04717 0.04800
C 	C 	0.56492 0.67702 0.06303 -0.01300
C 	C 	0.54341 0.69677 0.02806 -0.02000
C 	C 	0.51377 0.68262 0.00332 -0.01300
C 	C 	0.50611 0.64889 0.01266 -0.06500
N 	N 	0.55194 0.53922 0.06529 -0.12800
C 	C 	0.58347 0.54021 0.98278 -0.06100
C 	C 	0.57446 0.52224 0.03190 0.08800
C 	C 	0.58267 0.48661 0.04113 -0.07600
C 	C 	0.61810 0.47463 0.02990 0.04800
C 	C 	0.64617 0.49123 0.05508 -0.06300
C 	C 	0.67969 0.48089 0.04278 -0.01200
C 	C 	0.68548 0.45361 0.00577 -0.02200
C 	C 	0.65745 0.43675 0.98100 -0.01100
C 	C 	0.62387 0.44745 0.99254 -0.06400
C 	C 	0.56409 0.43417 0.09533 -0.06300
C 	C 	0.53312 0.41749 0.10063 -0.06300
C 	C 	0.43200 0.34217 0.06585 -0.01200
C 	C 	0.40164 0.48086 0.02189 -0.06100
C 	C 	0.44133 0.55547 0.09662 0.10100
C 	C 	0.56591 0.57001 0.98640 -0.06100
C 	C 	0.54714 0.56850 0.03747 0.08800
C 	C 	0.55713 0.64339 0.07262 -0.06200
H 	H 	0.51223 0.48203 0.02492 0.09300
H 	H 	0.47856 0.53848 0.03596 0.09300
H 	H 	0.70116 0.49390 0.06245 0.03900
H 	H 	0.66168 0.41566 0.95233 0.04100
H 	H 	0.64199 0.51216 0.08411 0.05100
H 	H 	0.60239 0.43467 0.97245 0.04800
H 	H 	0.48718 0.32959 0.95234 0.04200
H 	H 	0.42805 0.38759 0.11527 0.05200
H 	H 	0.41229 0.32960 0.09102 0.04400
H 	H 	0.50278 0.38773 0.97659 0.04900
H 	H 	0.32238 0.59603 0.00308 0.04400
H 	H 	0.38360 0.58018 0.00840 0.04800
C 	C 	0.35300 0.53293 0.12062 -0.06200
H 	H 	0.30031 0.53113 0.14855 0.04300
H 	H 	0.58763 0.68774 0.08291 0.04300
H 	H 	0.57394 0.62836 0.09960 0.05100
H 	H 	0.48351 0.63803 0.99265 0.04900
H 	H 	0.49704 0.69757 0.97607 0.04300
H 	H 	0.58906 0.42229 0.09641 0.05100
H 	H 	0.53058 0.39073 0.10589 0.05000
H 	H 	0.41859 0.43559 0.97735 0.05100
H 	H 	0.38591 0.49217 0.98837 0.05000
H 	H 	0.47169 0.62894 0.12432 0.05100
H 	H 	0.41362 0.59723 0.13705 0.05100
H 	H 	0.59323 0.52944 0.94281 0.04900
H 	H 	0.56000 0.58601 0.94971 0.04900
H 	H 	0.36142 0.51505 0.15307 0.05200
Zn	Zn	0.38433 0.13306 0.96903 1.22000
C 	C 	0.32666 0.09154 0.99888 0.29000
O 	O 	0.39375 0.12329 0.05151 -0.44900
O 	O 	0.34946 0.07087 0.02105 -0.43200
O 	O 	0.42693 0.07834 0.03089 -0.51300
C 	C 	0.38895 0.09093 0.86664 0.32700
O 	O 	0.39867 0.11912 0.89082 -0.46300
O 	O 	0.37678 0.06663 0.89880 -0.49700
C 	C 	0.41807 0.10239 0.06658 0.33000
O 	O 	0.43205 0.16942 0.96707 -0.32000
Zn	Zn	0.39399 0.05918 0.97660 1.17100
O 	O 	0.33672 0.11689 0.96653 -0.41700
C 	C 	0.40941 0.19318 0.96873 0.25100
O 	O 	0.37762 0.18359 0.97020 -0.36300
C 	C 	0.49411 0.98836 0.51287 0.00900
C 	C 	0.46993 0.01498 0.51239 0.00900
C 	C 	0.51998 0.98697 0.47026 -0.05600
C 	C 	0.52223 0.01193 0.42741 0.01000
C 	C 	0.47203 0.03988 0.46926 -0.05500
C 	C 	0.49805 0.03852 0.42673 0.00800
H 	H 	0.45361 0.06017 0.46884 0.04900
H 	H 	0.53834 0.96663 0.47057 0.05000
C 	C 	0.50082 0.06336 0.38319 -0.01300
C 	C 	0.52552 0.06095 0.33856 0.00500
C 	C 	0.51559 0.07790 0.28659 -0.05400
C 	C 	0.48298 0.09242 0.29007 -0.00200
S 	S 	0.46748 0.08466 0.35646 -0.01200
H 	H 	0.52923 0.07570 0.24575 0.04100
C 	C 	0.54853 0.01133 0.38511 -0.01400
C 	C 	0.54973 0.03487 0.33989 0.00600
C 	C 	0.56783 0.02313 0.28992 -0.05500
C 	C 	0.57982 0.99033 0.29570 -0.00400
S 	S 	0.56768 0.97669 0.36113 -0.01000
H 	H 	0.56851 0.03626 0.24879 0.03900
C 	C 	0.46781 0.96653 0.60239 0.00500
C 	C 	0.49182 0.96373 0.55682 -0.01400
S 	S 	0.52562 0.94289 0.58286 -0.01100
C 	C 	0.51158 0.93634 0.65043 -0.00200
C 	C 	0.47889 0.95074 0.65485 -0.05300
C 	C 	0.44376 0.01542 0.55500 -0.01300
C 	C 	0.44297 0.99203 0.60045 0.00600
C 	C 	0.42367 0.00312 0.64952 -0.05400
C 	C 	0.41017 0.03531 0.64260 -0.00400
S 	S 	0.42303 0.04950 0.57778 -0.01300
H 	H 	0.42283 0.98999 0.69067 0.04000
H 	H 	0.46587 0.95354 0.69617 0.04000
Zn	Zn	0.60195 0.89149 0.97129 1.22100
C 	C 	0.66335 0.93204 0.97228 0.29000
O 	O 	0.60394 0.90590 0.05283 -0.44700
O 	O 	0.64465 0.95580 0.99579 -0.43600
O 	O 	0.57141 0.95182 0.03447 -0.51500
C 	C 	0.58653 0.92660 0.86507 0.32100
O 	O 	0.57627 0.90301 0.90073 -0.47500
O 	O 	0.60393 0.95194 0.88578 -0.49500
C 	C 	0.58505 0.93077 0.07166 0.33000
O 	O 	0.55552 0.85574 0.99474 -0.31400
Zn	Zn	0.59630 0.96626 0.96530 1.17100
O 	O 	0.64842 0.90614 0.94760 -0.42000
C 	C 	0.57785 0.83188 0.98915 0.25100
O 	O 	0.60874 0.84112 0.97573 -0.36800
Zn	Zn	0.10359 0.60890 0.01655 1.22100
C 	C 	0.06018 0.66680 0.00572 0.28900
O 	O 	0.08532 0.61351 0.09616 -0.44700
O 	O 	0.03507 0.64933 0.02888 -0.43500
O 	O 	0.03931 0.57989 0.07868 -0.51500
C 	C 	0.07130 0.58496 0.91130 0.32000
O 	O 	0.09645 0.58024 0.94850 -0.46200
O 	O 	0.04469 0.60312 0.92613 -0.49000
C 	C 	0.06048 0.59426 0.11537 0.32800
O 	O 	0.14241 0.56763 0.05012 -0.31400
Zn	Zn	0.02688 0.60045 0.00483 1.17000
O 	O 	0.08729 0.65158 0.98414 -0.41800
C 	C 	0.16553 0.59077 0.04435 0.25200
O 	O 	0.15454 0.61927 0.02546 -0.36400
C 	C 	0.02553 0.48921 0.55876 0.01000
C 	C 	0.00223 0.46193 0.55835 0.00900
C 	C 	0.02314 0.51417 0.51584 -0.05500
C 	C 	0.99720 0.51265 0.47341 0.01000
C 	C 	0.97665 0.46007 0.51521 -0.05500
C 	C 	0.97367 0.48549 0.47326 0.00900
H 	H 	0.95895 0.43918 0.51474 0.04900
H 	H 	0.04115 0.53482 0.51585 0.05000
C 	C 	0.94663 0.48547 0.43228 -0.01400
C 	C 	0.94388 0.51038 0.38953 0.00600
C 	C 	0.92431 0.50011 0.34030 -0.05500
C 	C 	0.91243 0.46718 0.34447 -0.00300
S 	S 	0.92704 0.45136 0.40698 -0.01000
H 	H 	0.92225 0.51451 0.30060 0.03800
C 	C 	0.99304 0.53849 0.43209 -0.01400
C 	C 	0.96750 0.53693 0.38905 0.00500
C 	C 	0.97542 0.55645 0.33886 -0.05400
C 	C 	0.00713 0.57284 0.34275 -0.00400
S 	S 	0.02490 0.56213 0.40617 -0.01000
H 	H 	0.96106 0.55522 0.29864 0.03800
C 	C 	0.05311 0.46640 0.64638 0.00600
C 	C 	0.05093 0.49072 0.60243 -0.01400
S 	S 	0.06639 0.52622 0.62987 -0.01100
C 	C 	0.07849 0.51233 0.69514 -0.00300
C 	C 	0.07007 0.47833 0.69737 -0.05500
C 	C 	0.00484 0.43726 0.60211 -0.01300
C 	C 	0.02927 0.43989 0.64714 0.00600
C 	C 	0.01871 0.42343 0.69941 -0.05400
C 	C 	0.98580 0.40957 0.69599 -0.00200
S 	S 	0.97107 0.41668 0.62907 -0.01100
H 	H 	0.03202 0.42589 0.74046 0.04200
H 	H 	0.07219 0.46401 0.73713 0.04300
Zn	Zn	0.88221 0.37457 0.01459 1.21900
C 	C 	0.82448 0.41700 0.98828 0.29000
O 	O 	0.89119 0.38434 0.93174 -0.44900
O 	O 	0.84710 0.43739 0.96480 -0.43400
O 	O 	0.92475 0.42922 0.95140 -0.51400
C 	C 	0.88884 0.41647 0.11705 0.32300
O 	O 	0.89813 0.38842 0.09191 -0.46600
O 	O 	0.87664 0.44115 0.08584 -0.50100
C 	C 	0.91587 0.40485 0.91639 0.32800
O 	O 	0.92903 0.33710 0.01531 -0.32300
Zn	Zn	0.89251 0.44844 0.00709 1.16800
O 	O 	0.83486 0.39131 0.01938 -0.41900
C 	C 	0.90578 0.31389 0.01499 0.25100
O 	O 	0.87424 0.32418 0.01438 -0.36400
C 	C 	0.99069 0.92172 0.99550 0.10300
N 	N 	0.97517 0.94566 0.96371 -0.17200
C 	C 	0.94119 0.94243 0.97343 0.10000
C 	C 	0.91534 0.96735 0.95430 -0.07500
C 	C 	0.92627 0.00162 0.93841 0.09000
C 	C 	0.87841 0.95950 0.95936 0.04900
C 	C 	0.86197 0.94079 0.91599 -0.06400
C 	C 	0.82668 0.93442 0.91983 -0.01300
C 	C 	0.80764 0.94662 0.96736 -0.02000
C 	C 	0.85965 0.97107 0.00736 -0.06400
N 	N 	0.95322 0.01676 0.96397 -0.12700
C 	C 	0.90559 0.02468 0.91014 -0.06100
C 	C 	0.95020 0.04942 0.95077 0.08900
C 	C 	0.97196 0.07551 0.97791 -0.07500
C 	C 	0.96026 0.11060 0.97988 0.04800
C 	C 	0.92271 0.15320 0.02001 -0.01300
C 	C 	0.97786 0.13515 0.94810 -0.06400
C 	C 	0.96813 0.16865 0.95257 -0.01300
C 	C 	0.94067 0.17791 0.98893 -0.02000
N 	N 	0.02411 0.03984 0.98685 -0.17200
C 	C 	0.05346 0.04085 0.01772 0.10100
C 	C 	0.05348 0.06789 0.05542 -0.06300
C 	C 	0.02238 0.08401 0.04717 -0.06200
C 	C 	0.08369 0.01976 0.00423 -0.07700
C 	C 	0.11856 0.03408 0.00769 0.04800
C 	C 	0.17156 0.04272 0.06109 -0.01300
C 	C 	0.18614 0.05846 0.01222 -0.02100
C 	C 	0.16635 0.06263 0.96155 -0.01200
C 	C 	0.13270 0.05048 0.95937 -0.06200
N 	N 	0.04765 0.97011 0.98281 -0.12900
C 	C 	0.08872 0.93086 0.97421 -0.06100
C 	C 	0.05373 0.93724 0.97592 0.09000
C 	C 	0.02698 0.91157 0.98662 -0.07700
C 	C 	0.03640 0.87589 0.98922 0.04900
C 	C 	0.04327 0.86078 0.04305 -0.06600
C 	C 	0.04933 0.82642 0.04614 -0.01300
C 	C 	0.04909 0.80702 0.99524 -0.02000
C 	C 	0.04353 0.82241 0.94111 -0.01200
C 	C 	0.03704 0.85672 0.93817 -0.06300
C 	C 	0.96657 0.90340 0.02649 -0.06400
C 	C 	0.93492 0.91701 0.01292 -0.06200
C 	C 	0.82448 0.96455 0.01154 -0.01300
C 	C 	0.92102 0.05536 0.91797 -0.06100
C 	C 	0.00522 0.06606 0.00463 0.10000
C 	C 	0.10476 0.96144 0.97933 -0.06100
C 	C 	0.07874 0.98490 0.98393 0.09000
C 	C 	0.13791 0.03057 0.05876 -0.06500
H 	H 	0.98600 0.95758 0.92757 0.09600
H 	H 	0.02157 0.02833 0.94623 0.09800
H 	H 	0.05391 0.81482 0.08807 0.04100
H 	H 	0.04330 0.80766 0.90157 0.04200
H 	H 	0.04311 0.87553 0.08260 0.04900
H 	H 	0.03195 0.86831 0.89640 0.04900
H 	H 	0.81407 0.92068 0.88531 0.04300
H 	H 	0.87231 0.98527 0.04129 0.05100
H 	H 	0.81029 0.97361 0.04894 0.04200
H 	H 	0.87640 0.93163 0.87893 0.04800
H 	H 	0.98195 0.18741 0.92786 0.04200
H 	H 	0.99928 0.12829 0.92039 0.04900
C 	C 	0.93256 0.11970 0.01563 -0.06400
H 	H 	0.90162 0.16000 0.04846 0.04400
H 	H 	0.18635 0.03973 0.10070 0.04200
H 	H 	0.12701 0.01811 0.09639 0.04900
H 	H 	0.11778 0.05338 0.91986 0.04900
H 	H 	0.17728 0.07455 0.92343 0.04300
H 	H 	0.97048 0.87861 0.04410 0.05100
H 	H 	0.91030 0.90521 0.02062 0.05000
H 	H 	0.87869 0.02110 0.89986 0.05000
H 	H 	0.90801 0.07916 0.91415 0.05000
H 	H 	0.07617 0.07926 0.07411 0.05100
H 	H 	0.01712 0.10967 0.05903 0.05100
H 	H 	0.10058 0.90722 0.98517 0.05000
H 	H 	0.13080 0.96485 0.99478 0.05000
H 	H 	0.91894 0.10088 0.04051 0.05000
C 	C 	0.93147 0.21343 0.99575 0.11200
N 	N 	0.95642 0.23712 0.99756 -0.08600
N 	N 	0.94818 0.26920 0.00407 -0.06800
C 	C 	0.91476 0.27853 0.00884 0.04500
N 	N 	0.88978 0.25488 0.00706 -0.06100
N 	N 	0.89802 0.22275 0.00071 -0.08400
C 	C 	0.96302 0.40762 0.74733 0.01900
C 	C 	0.94752 0.43664 0.77139 -0.01400
C 	C 	0.92989 0.43426 0.82455 0.00600
C 	C 	0.92954 0.40434 0.85630 -0.11200
C 	C 	0.94496 0.37532 0.83224 0.07400
C 	C 	0.96066 0.37717 0.77716 -0.08400
H 	H 	0.91744 0.45625 0.84239 0.02000
H 	H 	0.97299 0.35519 0.75909 0.05300
C 	C 	0.94901 0.47029 0.74091 -0.04800
C 	C 	0.94851 0.34335 0.86713 -0.08400
C 	C 	0.91646 0.47656 0.70551 -0.14600
H 	H 	0.97180 0.47305 0.71240 0.04100
H 	H 	0.95149 0.49044 0.77398 0.03000
H 	H 	0.91236 0.45636 0.67318 0.06300
H 	H 	0.91884 0.50067 0.68188 0.05600
H 	H 	0.89373 0.47792 0.73474 0.05800
C 	C 	0.98020 0.34458 0.90622 -0.13200
H 	H 	0.95112 0.32166 0.83722 0.05000
H 	H 	0.92527 0.33815 0.89345 0.06600
H 	H 	0.00379 0.34809 0.87958 0.05700
H 	H 	0.98255 0.32071 0.93054 0.07200
H 	H 	0.97811 0.36535 0.93807 0.06300
C 	C 	0.90625 0.44648 0.29255 0.01500
C 	C 	0.87245 0.44034 0.27292 -0.00900
C 	C 	0.86724 0.42812 0.21631 0.00200
C 	C 	0.89524 0.42159 0.17955 -0.11000
C 	C 	0.92916 0.42497 0.20117 0.05600
C 	C 	0.93427 0.43687 0.25800 -0.08000
H 	H 	0.84127 0.42500 0.20001 0.03800
H 	H 	0.96020 0.44030 0.27426 0.05000
C 	C 	0.84165 0.44828 0.31080 -0.05100
C 	C 	0.96014 0.41566 0.16449 -0.06500
C 	C 	0.82870 0.48371 0.29965 -0.14400
H 	H 	0.84793 0.44529 0.35772 0.04200
H 	H 	0.82050 0.43038 0.30149 0.04000
H 	H 	0.84891 0.50232 0.31019 0.05800
H 	H 	0.80596 0.48870 0.32759 0.05600
H 	H 	0.82100 0.48668 0.25335 0.05800
C 	C 	0.96930 0.37885 0.17234 -0.14300
H 	H 	0.98269 0.43102 0.17751 0.03200
H 	H 	0.95590 0.42111 0.11763 0.02200
H 	H 	0.97614 0.37373 0.21846 0.06100
H 	H 	0.99172 0.37257 0.14447 0.05900
H 	H 	0.94741 0.36262 0.15964 0.07800
C 	C 	0.05269 0.77055 0.99900 0.11200
N 	N 	0.07564 0.75427 0.96464 -0.08400
N 	N 	0.07833 0.72111 0.96724 -0.05800
C 	C 	0.05784 0.70330 0.00373 0.03300
N 	N 	0.03485 0.71958 0.03797 -0.06500
N 	N 	0.03243 0.75276 0.03585 -0.08700
C 	C 	0.07195 0.56786 0.85441 -0.10500
C 	C 	0.04424 0.54739 0.83600 0.06000
C 	C 	0.04583 0.53187 0.78140 -0.07800
C 	C 	0.07576 0.53358 0.74742 0.01500
C 	C 	0.10357 0.55366 0.76588 -0.00700
C 	C 	0.10131 0.57078 0.81918 0.00300
H 	H 	0.02422 0.51702 0.76649 0.04800
H 	H 	0.12271 0.58600 0.83371 0.04000
C 	C 	0.01335 0.54075 0.87469 -0.06700
C 	C 	0.13658 0.55546 0.73100 -0.05000
C 	C 	0.98313 0.56311 0.85799 -0.14400
H 	H 	0.01939 0.54386 0.92160 -0.00600
H 	H 	0.00525 0.51424 0.86976 0.03100
H 	H 	0.99037 0.58988 0.86082 0.05100
H 	H 	0.96131 0.55844 0.88811 0.02600
H 	H 	0.97457 0.55750 0.81289 0.05400
C 	C 	0.16069 0.52681 0.74699 -0.14600
H 	H 	0.14993 0.57953 0.73953 0.04100
H 	H 	0.13128 0.55492 0.68350 0.04200
H 	H 	0.16723 0.52782 0.79405 0.06400
H 	H 	0.18480 0.52896 0.72134 0.05900
H 	H 	0.14859 0.50234 0.73707 0.06200
C 	C 	0.05439 0.59096 0.17827 -0.11100
C 	C 	0.05967 0.56009 0.20685 0.06600
C 	C 	0.04616 0.55528 0.26297 -0.08300
C 	C 	0.02773 0.58084 0.29072 0.01600
C 	C 	0.02580 0.61279 0.26467 -0.00900
C 	C 	0.03893 0.61747 0.20827 -0.00000
H 	H 	0.04903 0.53126 0.28429 0.05100
H 	H 	0.03577 0.64142 0.18678 0.03700
C 	C 	0.08161 0.53301 0.17960 -0.07600
C 	C 	0.00873 0.64176 0.29564 -0.05300
C 	C 	0.11973 0.53993 0.18959 -0.13900
H 	H 	0.07660 0.53082 0.13216 0.04600
H 	H 	0.07518 0.50825 0.19875 0.04000
H 	H 	0.12712 0.56441 0.17050 0.07500
H 	H 	0.13533 0.52009 0.16851 0.06700
H 	H 	0.12553 0.54009 0.23696 0.06200
C 	C 	0.97097 0.64479 0.27844 -0.14300
H 	H 	0.02211 0.66543 0.28421 0.04100
H 	H 	0.01079 0.63913 0.34370 0.04200
H 	H 	0.96856 0.64884 0.23075 0.05400
H 	H 	0.95928 0.66643 0.30132 0.05500
H 	H 	0.95660 0.62191 0.29081 0.05600
C 	C 	0.70089 0.93515 0.97213 0.03300
N 	N 	0.71595 0.96233 0.99643 -0.06600
N 	N 	0.74996 0.96587 0.99506 -0.08700
C 	C 	0.76996 0.94229 0.96945 0.11100
N 	N 	0.75490 0.91495 0.94535 -0.08500
N 	N 	0.72081 0.91146 0.94661 -0.06000
C 	C 	0.53527 0.93439 0.70042 0.01700
C 	C 	0.54691 0.96353 0.72942 -0.01100
C 	C 	0.56417 0.96033 0.78264 -0.00100
C 	C 	0.57206 0.92872 0.80552 -0.11500
C 	C 	0.56504 0.89976 0.77187 0.07400
C 	C 	0.54545 0.90289 0.72069 -0.08500
H 	H 	0.57144 0.98263 0.80639 0.01900
H 	H 	0.53834 0.88076 0.69631 0.05300
C 	C 	0.54295 0.99811 0.70304 -0.05400
C 	C 	0.58111 0.86618 0.78635 -0.08300
C 	C 	0.51598 0.01868 0.73529 -0.14000
H 	H 	0.53641 0.99759 0.65617 0.04500
H 	H 	0.56800 0.01138 0.70590 0.03800
H 	H 	0.49034 0.00667 0.73252 0.05400
H 	H 	0.51444 0.04389 0.71531 0.05200
H 	H 	0.52320 0.02170 0.78175 0.04400
C 	C 	0.61996 0.86650 0.77664 -0.13400
H 	H 	0.57004 0.84628 0.75827 0.04700
H 	H 	0.57518 0.85839 0.83153 0.06200
H 	H 	0.62599 0.87396 0.73114 0.06000
H 	H 	0.63046 0.84109 0.78438 0.06000
H 	H 	0.63274 0.88403 0.80717 0.06600
C 	C 	0.58436 0.93865 0.13410 -0.11200
C 	C 	0.55291 0.94049 0.16481 0.06700
C 	C 	0.55226 0.95516 0.22030 -0.08300
C 	C 	0.58245 0.96791 0.24518 0.01600
C 	C 	0.61433 0.96266 0.21720 -0.00900
C 	C 	0.61498 0.94822 0.16156 -0.00000
H 	H 	0.52802 0.95784 0.24321 0.05000
H 	H 	0.63921 0.94588 0.13850 0.04100
C 	C 	0.52036 0.92521 0.14028 -0.07800
C 	C 	0.64771 0.97366 0.24509 -0.05200
C 	C 	0.52051 0.88729 0.14743 -0.13800
H 	H 	0.51720 0.93163 0.09355 0.04700
H 	H 	0.49735 0.93542 0.16290 0.03800
H 	H 	0.54225 0.87603 0.12297 0.07300
H 	H 	0.49614 0.87681 0.13018 0.06000
H 	H 	0.52271 0.88049 0.19421 0.06100
C 	C 	0.65771 0.00876 0.22535 -0.14400
H 	H 	0.66864 0.95606 0.23292 0.04200
H 	H 	0.64590 0.97295 0.29338 0.04200
H 	H 	0.66102 0.00952 0.17729 0.05800
H 	H 	0.68241 0.01598 0.24600 0.05700
H 	H 	0.63777 0.02715 0.23833 0.05800
C 	C 	0.28990 0.08501 0.00710 0.03400
N 	N 	0.27945 0.05828 0.03892 -0.06500
N 	N 	0.24623 0.05038 0.04190 -0.08700
C 	C 	0.22250 0.06895 0.01307 0.11100
N 	N 	0.23290 0.09611 0.98223 -0.08400
N 	N 	0.26613 0.10401 0.97926 -0.05800
C 	C 	0.39434 0.08532 0.80396 -0.11300
C 	C 	0.42793 0.08245 0.78054 0.07400
C 	C 	0.43228 0.06932 0.72434 -0.08700
C 	C 	0.40405 0.05749 0.69266 0.01800
C 	C 	0.37044 0.06268 0.71414 -0.01100
C 	C 	0.36590 0.07723 0.76925 0.00500
H 	H 	0.45790 0.06654 0.70652 0.04900
H 	H 	0.34015 0.08071 0.78638 0.03800
C 	C 	0.45949 0.09088 0.81637 -0.10200
C 	C 	0.33922 0.05378 0.67794 -0.04900
C 	C 	0.46910 0.06237 0.85757 -0.10200
H 	H 	0.45564 0.11426 0.84143 0.06300
H 	H 	0.48174 0.09576 0.78710 0.04600
H 	H 	0.45060 0.06069 0.89425 -0.00500
H 	H 	0.49506 0.06698 0.87595 0.03000
H 	H 	0.46947 0.03814 0.83406 0.03300
C 	C 	0.33081 0.08163 0.63483 -0.14600
H 	H 	0.31653 0.04968 0.70656 0.03800
H 	H 	0.34322 0.03000 0.65398 0.04000
H 	H 	0.32541 0.10529 0.65839 0.06300
H 	H 	0.30770 0.07467 0.60923 0.05800
H 	H 	0.35255 0.08562 0.60422 0.06300
C 	C 	0.46083 0.09606 0.23836 0.01900
C 	C 	0.44448 0.06801 0.21261 -0.01400
C 	C 	0.42868 0.07148 0.15810 0.00700
C 	C 	0.43055 0.10163 0.12723 -0.11400
C 	C 	0.44625 0.12986 0.15334 0.07400
C 	C 	0.46062 0.12684 0.20924 -0.08500
H 	H 	0.41569 0.05022 0.13879 0.02000
H 	H 	0.47350 0.14811 0.22871 0.05300
C 	C 	0.44291 0.03434 0.24297 -0.04800
C 	C 	0.45096 0.16233 0.12024 -0.08500
C 	C 	0.40931 0.03037 0.27668 -0.14600
H 	H 	0.46495 0.03004 0.27252 0.04100
H 	H 	0.44448 0.01406 0.20999 0.03100
H 	H 	0.40607 0.05086 0.30876 0.06400
H 	H 	0.40947 0.00620 0.30042 0.05700
H 	H 	0.38712 0.03055 0.24627 0.05900
C 	C 	0.48281 0.16099 0.08141 -0.13100
H 	H 	0.45399 0.18343 0.15131 0.05000
H 	H 	0.42803 0.16856 0.09384 0.06600
H 	H 	0.50616 0.15646 0.10811 0.05500
H 	H 	0.48586 0.18520 0.05834 0.07000
H 	H 	0.48036 0.14085 0.04845 0.06200
C 	C 	0.43809 0.29139 0.00387 0.11100
N 	N 	0.40439 0.28250 0.00437 -0.08400
N 	N 	0.39515 0.25125 0.99193 -0.06000
C 	C 	0.41933 0.22801 0.97879 0.04600
N 	N 	0.45299 0.23695 0.97784 -0.06700
N 	N 	0.46224 0.26822 0.99007 -0.08600
C 	C 	0.20215 0.58427 0.05423 0.04800
N 	N 	0.22578 0.60853 0.04396 -0.06000
N 	N 	0.25916 0.60232 0.05119 -0.08400
C 	C 	0.26986 0.57166 0.06894 0.11200
N 	N 	0.24616 0.54749 0.07964 -0.08500
N 	N 	0.21279 0.55371 0.07240 -0.06500
C 	C 	0.72081 0.44261 0.99357 0.11300
N 	N 	0.74444 0.46479 0.97355 -0.08700
N 	N 	0.77738 0.45604 0.96909 -0.06800
C 	C 	0.78771 0.42498 0.98516 0.03500
N 	N 	0.76397 0.40257 0.00403 -0.05900
N 	N 	0.73095 0.41122 0.00793 -0.08400
C 	C 	0.56879 0.79673 0.99837 0.04800
N 	N 	0.53566 0.78783 0.00867 -0.06500
N 	N 	0.52748 0.75589 0.01757 -0.08500
C 	C 	0.55224 0.73198 0.01663 0.11100
N 	N 	0.58536 0.74090 0.00620 -0.08500
N 	N 	0.59350 0.77281 0.99706 -0.06100
