data_crystal

_cell_length_a 26.21059
_cell_length_b 26.48363
_cell_length_c 35.06643
_cell_angle_alpha 95.49054
_cell_angle_beta  95.48759
_cell_angle_gamma 125.84022

_symmetry_space_group_name_	'P 1'
_symmetry_space_group_name_H-M	'P 1'

loop_
_symmetry_equiv_pos_as_xyz
  x,y,z

loop_
_atom_site_label
_atom_site_type_symbol
_atom_site_fract_x
_atom_site_fract_y
_atom_site_fract_z
_atom_site_charge
C 	C 	0.96849 0.02408 0.98885 0.05700
C 	C 	0.03400 0.05998 0.98735 -0.10300
C 	C 	0.06311 0.02980 0.98205 0.05500
C 	C 	0.02650 0.96368 0.97784 -0.10400
C 	C 	0.96128 0.92785 0.97979 0.05600
C 	C 	0.93207 0.95794 0.98459 -0.10100
H 	H 	0.06231 0.11115 0.99080 0.05200
H 	H 	0.04907 0.94035 0.97407 0.05200
H 	H 	0.88149 0.93014 0.98586 0.05200
C 	C 	0.93118 0.00518 0.46320 0.04400
C 	C 	0.99820 0.04415 0.46805 -0.07900
C 	C 	0.03147 0.01809 0.47253 0.03500
C 	C 	0.99786 0.95323 0.47282 -0.08100
C 	C 	0.93096 0.91421 0.46837 0.04200
C 	C 	0.89752 0.94011 0.46325 -0.09100
H 	H 	0.02427 0.09443 0.46793 0.04400
H 	H 	0.02366 0.93305 0.47616 0.04500
H 	H 	0.84566 0.90983 0.45927 0.05000
Cu	Cu	0.63950 0.23632 0.00390 0.92700
Cu	Cu	0.69048 0.23114 0.92291 0.86900
Cu	Cu	0.68604 0.33694 0.95287 0.89600
Cu	Cu	0.65430 0.36214 0.02915 0.89600
C 	C 	0.65925 0.28621 0.08466 0.30900
O 	O 	0.54870 0.20893 0.00181 -0.36400
C 	C 	0.66660 0.29108 0.86808 0.30800
O 	O 	0.69944 0.33520 0.00737 -0.63800
O 	O 	0.63511 0.24305 0.94828 -0.64400
O 	O 	0.67122 0.18384 0.00265 -0.37600
O 	O 	0.74706 0.24506 0.96762 -0.44600
O 	O 	0.63467 0.31513 0.07338 -0.37600
O 	O 	0.73881 0.42841 0.96101 -0.38400
C 	C 	0.72941 0.46446 0.98313 0.29700
C 	C 	0.52977 0.23989 0.98600 0.28800
O 	O 	0.57251 0.29880 0.98222 -0.39900
O 	O 	0.70410 0.44794 0.01475 -0.39300
O 	O 	0.65842 0.24534 0.05935 -0.36700
C 	C 	0.72605 0.20509 0.99179 0.29400
O 	O 	0.68697 0.33887 0.89671 -0.37800
O 	O 	0.65529 0.23770 0.87517 -0.42600
H 	H 	0.74496 0.35918 0.01999 0.16400
H 	H 	0.59135 0.21964 0.93276 0.16900
Cu	Cu	0.73055 0.34168 0.45226 0.92700
Cu	Cu	0.73858 0.30151 0.53685 0.87000
Cu	Cu	0.63167 0.30438 0.50466 0.89700
Cu	Cu	0.60487 0.32854 0.42626 0.89500
C 	C 	0.67677 0.31325 0.37083 0.30900
O 	O 	0.76171 0.43165 0.44974 -0.36400
C 	C 	0.68071 0.33202 0.58996 0.30800
O 	O 	0.63098 0.28489 0.45053 -0.64100
O 	O 	0.72633 0.35345 0.50807 -0.64200
O 	O 	0.78159 0.30834 0.45599 -0.37800
O 	O 	0.72123 0.23973 0.49470 -0.44600
O 	O 	0.64745 0.33843 0.38022 -0.37800
O 	O 	0.53931 0.25181 0.49783 -0.38800
C 	C 	0.50076 0.25335 0.47161 0.30000
C 	C 	0.73108 0.45323 0.46252 0.29300
O 	O 	0.67325 0.41350 0.46950 -0.39900
O 	O 	0.52235 0.29017 0.44526 -0.39800
O 	O 	0.71843 0.31613 0.39720 -0.36800
C 	C 	0.75944 0.25578 0.46931 0.29800
O 	O 	0.63209 0.31088 0.56133 -0.39000
O 	O 	0.73420 0.34203 0.58300 -0.41000
H 	H 	0.60555 0.23902 0.43959 0.16100
H 	H 	0.75081 0.39806 0.52165 0.17400
C 	C 	0.64086 0.34420 0.77618 -0.11700
C 	C 	0.66303 0.32093 0.75011 0.00400
C 	C 	0.68474 0.28658 0.76251 0.11800
C 	C 	0.68542 0.27676 0.80097 -0.03700
C 	C 	0.66374 0.30036 0.82730 -0.12700
C 	C 	0.64061 0.33360 0.81461 0.19100
C 	C 	0.66282 0.33172 0.70963 0.00100
O 	O 	0.70701 0.26406 0.73731 -0.28000
H 	H 	0.70361 0.25144 0.81048 0.04400
O 	O 	0.61824 0.35613 0.83971 -0.29100
H 	H 	0.62353 0.37021 0.76661 0.06700
C 	C 	0.60919 0.28714 0.68027 0.11400
C 	C 	0.61393 0.28993 0.64099 -0.03800
C 	C 	0.67200 0.33725 0.63075 -0.12700
C 	C 	0.72372 0.38527 0.66026 0.18900
C 	C 	0.71912 0.38200 0.69953 -0.11300
O 	O 	0.55351 0.23834 0.68986 -0.28200
H 	H 	0.57344 0.25341 0.61852 0.05500
O 	O 	0.77957 0.43402 0.65078 -0.29200
H 	H 	0.76016 0.41722 0.72211 0.07200
H 	H 	0.57178 0.32144 0.83656 0.14000
H 	H 	0.52791 0.25444 0.69291 0.14000
H 	H 	0.77418 0.46777 0.64859 0.14100
H 	H 	0.66898 0.22089 0.72449 0.14500
C 	C 	0.61976 0.25967 0.26172 -0.11400
C 	C 	0.67771 0.28389 0.24889 0.00300
C 	C 	0.73429 0.31162 0.27629 0.11800
C 	C 	0.73332 0.31862 0.31626 -0.03400
C 	C 	0.67588 0.29738 0.32915 -0.12200
C 	C 	0.61851 0.26560 0.30165 0.18800
C 	C 	0.67994 0.28528 0.20705 0.00500
O 	O 	0.79109 0.33454 0.26407 -0.27800
H 	H 	0.77764 0.34254 0.33716 0.06200
O 	O 	0.56152 0.24218 0.31375 -0.30300
H 	H 	0.57589 0.23760 0.24072 0.06800
C 	C 	0.65161 0.22884 0.18000 0.11300
C 	C 	0.64789 0.22980 0.13998 -0.03200
C 	C 	0.67169 0.28682 0.12669 -0.12300
C 	C 	0.70311 0.34376 0.15392 0.18900
C 	C 	0.70655 0.34269 0.19387 -0.11200
O 	O 	0.62826 0.17288 0.19265 -0.27800
H 	H 	0.62453 0.18587 0.11929 0.06000
O 	O 	0.72880 0.40024 0.14148 -0.30300
H 	H 	0.72889 0.38638 0.21461 0.07600
H 	H 	0.54371 0.19807 0.31653 0.13700
H 	H 	0.58245 0.15316 0.19295 0.14000
H 	H 	0.77361 0.41715 0.13993 0.14000
H 	H 	0.79369 0.29853 0.26118 0.14700
C 	C 	0.84474 0.75482 0.50005 -0.07200
C 	C 	0.84173 0.71730 0.46757 -0.01400
C 	C 	0.86516 0.74377 0.43457 0.04400
C 	C 	0.89105 0.80748 0.43455 -0.06300
C 	C 	0.89595 0.84558 0.46748 -0.03000
C 	C 	0.87281 0.81920 0.50059 0.05200
C 	C 	0.81289 0.64985 0.46803 0.01000
C 	C 	0.86245 0.70424 0.39933 -0.18200
H 	H 	0.90891 0.82798 0.40924 0.04200
C 	C 	0.87841 0.85957 0.53653 -0.18400
H 	H 	0.82611 0.73406 0.52515 0.04400
C 	C 	0.84934 0.63201 0.48584 0.02000
C 	C 	0.82148 0.56744 0.48428 -0.01300
C 	C 	0.75844 0.52066 0.46446 -0.11100
C 	C 	0.72266 0.53871 0.44568 0.10000
C 	C 	0.74949 0.60321 0.44899 -0.09600
C 	C 	0.91779 0.68158 0.50639 -0.17000
H 	H 	0.84895 0.55354 0.49840 0.03300
C 	C 	0.65644 0.48973 0.42166 -0.20300
H 	H 	0.72171 0.61725 0.43552 0.05100
H 	H 	0.86154 0.83276 0.56066 0.06000
H 	H 	0.84895 0.87623 0.52966 0.06300
H 	H 	0.92921 0.90121 0.54707 0.06300
H 	H 	0.81180 0.66689 0.38504 0.06600
H 	H 	0.88529 0.68161 0.40816 0.06700
H 	H 	0.88811 0.73339 0.37756 0.06200
H 	H 	0.94066 0.65985 0.51713 0.05900
H 	H 	0.91932 0.71111 0.53184 0.06100
H 	H 	0.94641 0.71241 0.48607 0.06200
H 	H 	0.64073 0.51164 0.40302 0.06500
H 	H 	0.62149 0.46603 0.44121 0.06600
H 	H 	0.65573 0.45384 0.40193 0.06200
C 	C 	0.86195 0.08381 0.42083 -0.07300
C 	C 	0.84545 0.10108 0.45386 -0.01300
C 	C 	0.85083 0.08092 0.48891 0.04200
C 	C 	0.87691 0.04748 0.49111 -0.06200
C 	C 	0.89639 0.03294 0.45863 -0.03100
C 	C 	0.88671 0.04913 0.42279 0.05300
C 	C 	0.82458 0.14214 0.45194 0.01000
C 	C 	0.83038 0.09638 0.52423 -0.17900
H 	H 	0.88343 0.03398 0.51837 0.04100
C 	C 	0.90499 0.03171 0.38706 -0.18200
H 	H 	0.85672 0.09850 0.39381 0.04600
C 	C 	0.86940 0.20877 0.46255 0.01900
C 	C 	0.84748 0.24599 0.46611 -0.01400
C 	C 	0.78168 0.21757 0.45843 -0.11800
C 	C 	0.73741 0.15164 0.44387 0.10100
C 	C 	0.75918 0.11423 0.44147 -0.09800
C 	C 	0.94031 0.24002 0.47160 -0.17000
H 	H 	0.88148 0.29682 0.47629 0.03100
C 	C 	0.66689 0.12069 0.43206 -0.20300
H 	H 	0.72508 0.06319 0.43234 0.05100
H 	H 	0.95797 0.06207 0.39029 0.06400
H 	H 	0.88492 0.03826 0.36025 0.06200
H 	H 	0.88616 0.98113 0.38303 0.06300
H 	H 	0.77972 0.07868 0.51669 0.06300
H 	H 	0.86130 0.14848 0.53473 0.06000
H 	H 	0.83405 0.07399 0.54853 0.05900
H 	H 	0.96911 0.29252 0.47602 0.05800
H 	H 	0.95466 0.22425 0.44707 0.06300
H 	H 	0.95204 0.22724 0.49859 0.05900
H 	H 	0.64182 0.07382 0.41261 0.06500
H 	H 	0.65939 0.15057 0.41585 0.07000
H 	H 	0.64484 0.11355 0.45843 0.06900
C 	C 	0.20940 0.11275 0.51140 -0.07300
C 	C 	0.23360 0.12471 0.47676 -0.01400
C 	C 	0.19162 0.10421 0.44086 0.04300
C 	C 	0.12570 0.07083 0.44013 -0.06400
C 	C 	0.10137 0.05803 0.47468 -0.02900
C 	C 	0.14357 0.08035 0.51074 0.05100
C 	C 	0.30303 0.15825 0.47824 0.01000
C 	C 	0.21677 0.11645 0.40325 -0.18000
H 	H 	0.09306 0.05379 0.41256 0.04100
C 	C 	0.11842 0.06826 0.54833 -0.18400
H 	H 	0.24190 0.12876 0.53888 0.04500
C 	C 	0.34522 0.22509 0.48426 0.02000
C 	C 	0.41005 0.25549 0.48254 -0.01200
C 	C 	0.43326 0.22010 0.47522 -0.11000
C 	C 	0.39132 0.15326 0.47007 0.09800
C 	C 	0.32654 0.12290 0.47210 -0.09600
C 	C 	0.32113 0.26398 0.49212 -0.16900
H 	H 	0.44254 0.30681 0.48674 0.03500
C 	C 	0.41521 0.11421 0.46212 -0.20100
H 	H 	0.29400 0.07161 0.46800 0.05000
H 	H 	0.15789 0.09571 0.57418 0.06000
H 	H 	0.09128 0.01706 0.54951 0.06300
H 	H 	0.08637 0.08258 0.55035 0.06300
H 	H 	0.23721 0.09040 0.39735 0.06400
H 	H 	0.25452 0.16797 0.40527 0.06300
H 	H 	0.17835 0.10061 0.37806 0.05900
H 	H 	0.36031 0.31566 0.49668 0.05800
H 	H 	0.29975 0.25412 0.51879 0.06100
H 	H 	0.28431 0.25200 0.46700 0.06000
H 	H 	0.37526 0.06263 0.45493 0.06300
H 	H 	0.44863 0.12291 0.48829 0.07300
H 	H 	0.44037 0.12692 0.43698 0.06200
C 	C 	0.75769 0.61982 0.97339 -0.09600
C 	C 	0.82382 0.65916 0.97401 0.00900
C 	C 	0.85828 0.63353 0.97506 0.02100
C 	C 	0.82637 0.56926 0.97713 -0.01100
C 	C 	0.76049 0.53023 0.97754 -0.10600
C 	C 	0.72539 0.55512 0.97425 0.09900
C 	C 	0.85716 0.72781 0.97520 -0.01400
C 	C 	0.92938 0.67499 0.97540 -0.17100
H 	H 	0.85308 0.54992 0.97931 0.03700
C 	C 	0.65389 0.51334 0.97243 -0.20400
H 	H 	0.73140 0.63968 0.97232 0.05000
C 	C 	0.86069 0.75181 0.94048 0.04200
C 	C 	0.89425 0.81739 0.94250 -0.06100
C 	C 	0.92423 0.85901 0.97861 -0.03600
C 	C 	0.91998 0.83493 0.01336 0.05300
C 	C 	0.88614 0.76936 0.01135 -0.07200
C 	C 	0.82882 0.70771 0.90137 -0.18100
H 	H 	0.89746 0.83617 0.91595 0.04100
C 	C 	0.95180 0.87901 0.05250 -0.17900
H 	H 	0.88293 0.75059 0.03791 0.04500
H 	H 	0.63219 0.53638 0.96217 0.06500
H 	H 	0.64341 0.50338 0.00187 0.07200
H 	H 	0.63064 0.46792 0.95175 0.07100
H 	H 	0.95521 0.70963 0.00332 0.06300
H 	H 	0.94005 0.70100 0.95077 0.06200
H 	H 	0.94798 0.64667 0.97234 0.05900
H 	H 	0.83750 0.73405 0.87699 0.06100
H 	H 	0.77625 0.67463 0.89992 0.06500
H 	H 	0.84783 0.67998 0.89698 0.06600
H 	H 	0.93192 0.90589 0.05710 0.06100
H 	H 	0.00426 0.91286 0.05379 0.05800
H 	H 	0.94400 0.85274 0.07683 0.05900
C 	C 	0.88715 0.08790 0.03501 -0.07500
C 	C 	0.86949 0.10624 0.00317 -0.01100
C 	C 	0.88845 0.10186 0.96735 0.03900
C 	C 	0.92192 0.07595 0.96336 -0.05900
C 	C 	0.93784 0.05575 0.99482 -0.03700
C 	C 	0.92211 0.06353 0.03130 0.05600
C 	C 	0.83079 0.12979 0.00746 0.01000
C 	C 	0.87250 0.12411 0.93329 -0.17800
H 	H 	0.93493 0.07074 0.93559 0.04100
C 	C 	0.94044 0.04387 0.06589 -0.18200
H 	H 	0.87313 0.09205 0.06256 0.04600
C 	C 	0.76329 0.08820 0.99676 0.01800
C 	C 	0.72869 0.11328 0.99418 -0.01700
C 	C 	0.76057 0.17898 0.00318 -0.11500
C 	C 	0.82707 0.21964 0.01855 0.10100
C 	C 	0.86193 0.19483 0.01975 -0.09800
C 	C 	0.72842 0.01753 0.98630 -0.16700
H 	H 	0.67736 0.08191 0.98351 0.03100
C 	C 	0.86147 0.28969 0.03230 -0.20300
H 	H 	0.91356 0.22638 0.02916 0.05200
H 	H 	0.90909 0.99136 0.06206 0.05900
H 	H 	0.93526 0.06337 0.09351 0.06100
H 	H 	0.99124 0.06170 0.06891 0.06400
H 	H 	0.89221 0.17467 0.94181 0.06200
H 	H 	0.81974 0.09507 0.92378 0.05900
H 	H 	0.89314 0.12003 0.90797 0.05800
H 	H 	0.67573 0.99126 0.98319 0.05400
H 	H 	0.74394 0.00099 0.00951 0.06400
H 	H 	0.73878 0.00562 0.95826 0.05800
H 	H 	0.90713 0.31098 0.05281 0.06600
H 	H 	0.83161 0.29829 0.04799 0.07200
H 	H 	0.87252 0.31400 0.00690 0.07000
C 	C 	0.24054 0.10963 0.01275 -0.07300
C 	C 	0.26266 0.12944 0.97835 -0.01400
C 	C 	0.21977 0.11977 0.94576 0.04100
C 	C 	0.15476 0.08831 0.94771 -0.06000
C 	C 	0.13248 0.06757 0.98192 -0.03700
C 	C 	0.17598 0.07991 0.01509 0.05600
C 	C 	0.33089 0.15982 0.97664 0.00900
C 	C 	0.24278 0.14148 0.90866 -0.17900
H 	H 	0.12126 0.07910 0.92242 0.04000
C 	C 	0.15335 0.05949 0.05252 -0.18500
H 	H 	0.27373 0.11744 0.03774 0.04600
C 	C 	0.37843 0.22468 0.99265 0.01900
C 	C 	0.44330 0.25062 0.99448 -0.01400
C 	C 	0.46120 0.21313 0.97960 -0.11000
C 	C 	0.41330 0.14952 0.96077 0.09700
C 	C 	0.34853 0.12289 0.96047 -0.09600
C 	C 	0.36036 0.26568 0.00922 -0.16600
H 	H 	0.47999 0.29963 0.00845 0.03000
C 	C 	0.43074 0.10962 0.94139 -0.20000
H 	H 	0.31177 0.07331 0.94772 0.05000
H 	H 	0.19425 0.08173 0.07727 0.06100
H 	H 	0.12542 0.00720 0.04906 0.06300
H 	H 	0.12279 0.07377 0.06021 0.06300
H 	H 	0.25726 0.11320 0.89502 0.06300
H 	H 	0.28438 0.19246 0.91504 0.06200
H 	H 	0.20483 0.13575 0.88726 0.05900
H 	H 	0.40197 0.31668 0.01584 0.05600
H 	H 	0.34239 0.25165 0.03662 0.06100
H 	H 	0.32252 0.26033 0.98796 0.05900
H 	H 	0.44740 0.09291 0.96382 0.07400
H 	H 	0.46902 0.13736 0.92446 0.06000
H 	H 	0.38895 0.06745 0.92068 0.06300
