data_crystal

_cell_length_a 27.21431
_cell_length_b 24.85342
_cell_length_c 46.58339
_cell_angle_alpha 90.47985
_cell_angle_beta  90.58528
_cell_angle_gamma 113.36134

_symmetry_space_group_name_	'P 1'
_symmetry_space_group_name_H-M	'P 1'

loop_
_symmetry_equiv_pos_as_xyz
  x,y,z

loop_
_atom_site_label
_atom_site_type_symbol
_atom_site_fract_x
_atom_site_fract_y
_atom_site_fract_z
_atom_site_charge
C 	C 	0.03426 0.98550 0.70952 -0.04500
H 	H 	0.03303 0.98838 0.68573 0.04400
C 	C 	0.03722 0.97820 0.76662 -0.03700
H 	H 	0.03848 0.97518 0.79040 0.04200
C 	C 	0.99926 0.92546 0.72177 0.00700
C 	C 	0.08997 0.99824 0.72251 -0.00500
C 	C 	0.00071 0.92174 0.75097 -0.00400
C 	C 	0.09141 0.99428 0.75187 -0.00800
Ni	Ni	0.24258 0.70035 0.40759 1.10100
O 	O 	0.31183 0.73532 0.38484 -0.70400
Ni	Ni	0.36355 0.72249 0.41170 1.10100
O 	O 	0.20101 0.72082 0.37550 -0.36900
O 	O 	0.25940 0.81718 0.37708 -0.41000
O 	O 	0.23208 0.62435 0.38603 -0.39200
Ni	Ni	0.33668 0.81876 0.37831 1.06400
O 	O 	0.21013 0.64416 0.47214 -0.41500
O 	O 	0.33854 0.83864 0.42098 -0.41800
O 	O 	0.42720 0.75059 0.38496 -0.37900
O 	O 	0.29721 0.70000 0.43666 -0.70400
O 	O 	0.17220 0.65838 0.42947 -0.37400
O 	O 	0.40277 0.68771 0.43891 -0.37400
O 	O 	0.33004 0.60051 0.44033 -0.41800
Ni	Ni	0.26973 0.62431 0.45555 1.06900
H 	H 	0.30970 0.71412 0.36647 0.15500
H 	H 	0.30178 0.73084 0.45124 0.15600
C 	C 	0.37765 0.83919 0.43774 0.29200
O 	O 	0.21596 0.56973 0.42648 -0.40300
C 	C 	0.21779 0.77433 0.36518 0.27300
C 	C 	0.43989 0.80067 0.37127 0.29100
C 	C 	0.22218 0.57428 0.39866 0.31900
C 	C 	0.38084 0.63233 0.44635 0.27200
C 	C 	0.16820 0.64278 0.45689 0.29000
O 	O 	0.39932 0.80091 0.43385 -0.36900
O 	O 	0.41750 0.83766 0.37835 -0.40900
Ni	Ni	0.36368 0.72571 0.05288 1.10100
O 	O 	0.29752 0.69399 0.02685 -0.70700
Ni	Ni	0.24238 0.70000 0.05316 1.09900
O 	O 	0.40373 0.68395 0.03096 -0.37600
O 	O 	0.33221 0.59590 0.03359 -0.41800
O 	O 	0.39866 0.79741 0.02669 -0.36800
Ni	Ni	0.27193 0.61331 0.01285 1.06800
O 	O 	0.41386 0.84957 0.08072 -0.40700
O 	O 	0.21642 0.56553 0.04234 -0.39700
O 	O 	0.17384 0.64975 0.03065 -0.37400
O 	O 	0.31104 0.74411 0.07622 -0.70500
O 	O 	0.42655 0.76324 0.08032 -0.38200
O 	O 	0.19899 0.72762 0.08102 -0.37200
O 	O 	0.25461 0.82364 0.07425 -0.41400
Ni	Ni	0.33287 0.82838 0.07736 1.06400
H 	H 	0.30125 0.72013 0.01037 0.15800
H 	H 	0.30949 0.72877 0.09588 0.15500
C 	C 	0.22034 0.57714 0.07001 0.30200
O 	O 	0.33613 0.83559 0.03399 -0.42000
C 	C 	0.38332 0.62642 0.02838 0.26900
C 	C 	0.17201 0.63386 0.00324 0.28700
C 	C 	0.37738 0.83502 0.02000 0.29100
C 	C 	0.21345 0.78376 0.08716 0.28900
C 	C 	0.43644 0.81551 0.09177 0.27600
O 	O 	0.23399 0.63116 0.07944 -0.39400
O 	O 	0.21223 0.62535 0.99092 -0.41300
C 	C 	0.19850 0.52810 0.09025 -0.08900
C 	C 	0.20244 0.47450 0.08420 0.01600
C 	C 	0.17678 0.42595 0.10155 -0.06800
C 	C 	0.14689 0.43046 0.12514 0.02900
C 	C 	0.14454 0.48454 0.13186 -0.06700
C 	C 	0.17029 0.53319 0.11453 0.01700
C 	C 	0.11571 0.37780 0.14182 -0.00400
C 	C 	0.12687 0.37522 0.17116 -0.03300
C 	C 	0.09737 0.32515 0.18684 -0.04800
C 	C 	0.05658 0.27742 0.17329 0.02300
C 	C 	0.04528 0.28002 0.14405 -0.04800
C 	C 	0.07467 0.33001 0.12836 -0.03300
C 	C 	0.02656 0.22556 0.18933 -0.02300
C 	C 	0.00142 0.18197 0.20262 -0.01100
H 	H 	0.22474 0.47020 0.06581 0.02800
H 	H 	0.17940 0.38459 0.09640 0.04600
H 	H 	0.12168 0.48852 0.15006 0.04700
H 	H 	0.16685 0.57421 0.11948 0.03800
H 	H 	0.15849 0.41180 0.18175 0.03600
H 	H 	0.10634 0.32345 0.20946 0.04200
H 	H 	0.01377 0.24333 0.13344 0.04200
H 	H 	0.06551 0.33169 0.10578 0.03800
H 	H 	0.45805 0.90694 0.12899 0.01400
C 	C 	0.97151 0.99372 0.19474 0.01600
C 	C 	0.01944 0.02370 0.18030 -0.04300
C 	C 	0.04389 0.99241 0.16520 -0.04000
C 	C 	0.02048 0.93090 0.16439 0.00200
C 	C 	0.97142 0.90102 0.17788 -0.03700
C 	C 	0.94685 0.93236 0.19286 -0.04300
C 	C 	0.04849 0.89788 0.15048 0.00900
C 	C 	0.06861 0.86405 0.16707 -0.04500
C 	C 	0.09902 0.83665 0.15425 -0.03200
C 	C 	0.10931 0.84276 0.12479 -0.00900
C 	C 	0.08790 0.87506 0.10805 -0.03100
C 	C 	0.05758 0.90256 0.12084 -0.04500
C 	C 	0.14511 0.81980 0.11210 0.04100
C 	C 	0.17591 0.80228 0.10103 -0.10900
H 	H 	0.08169 0.01585 0.15476 0.03900
H 	H 	0.95284 0.85357 0.17717 0.03900
H 	H 	0.90964 0.90891 0.20383 0.04200
H 	H 	0.06169 0.86007 0.18996 0.03800
H 	H 	0.11544 0.81173 0.16732 0.03500
H 	H 	0.09566 0.87989 0.08524 0.03800
H 	H 	0.04191 0.92826 0.10784 0.04000
C 	C 	0.00986 0.17654 0.26574 0.01300
C 	C 	0.06573 0.19831 0.26337 -0.04100
C 	C 	0.09824 0.24632 0.28016 -0.04000
C 	C 	0.07510 0.27233 0.29969 0.00500
C 	C 	0.01927 0.24986 0.30240 -0.04000
C 	C 	0.10911 0.32382 0.31687 0.01000
C 	C 	0.13693 0.37754 0.30345 -0.04500
C 	C 	0.16447 0.42792 0.32001 -0.03000
C 	C 	0.16439 0.42482 0.35002 -0.01000
C 	C 	0.13845 0.37076 0.36340 -0.02900
C 	C 	0.11089 0.32037 0.34687 -0.04500
C 	C 	0.18639 0.47766 0.36708 0.04900
C 	C 	0.20344 0.52186 0.38146 -0.11000
H 	H 	0.08386 0.17823 0.24842 0.04100
H 	H 	0.14133 0.26331 0.27800 0.03800
H 	H 	0.13590 0.38054 0.28027 0.04000
H 	H 	0.18456 0.46959 0.30953 0.03700
H 	H 	0.13840 0.36806 0.38661 0.03900
H 	H 	0.08988 0.27894 0.35739 0.04100
C 	C 	0.18205 0.78966 0.34603 -0.08800
C 	C 	0.12625 0.76246 0.34904 0.01600
C 	C 	0.09288 0.78351 0.33407 -0.06800
C 	C 	0.11500 0.83175 0.31593 0.02800
C 	C 	0.17045 0.85677 0.31169 -0.06900
C 	C 	0.20382 0.83578 0.32665 0.01200
C 	C 	0.08089 0.85938 0.30348 -0.00500
C 	C 	0.07661 0.86307 0.27358 -0.03400
C 	C 	0.04870 0.89450 0.26186 -0.04800
C 	C 	0.02492 0.92233 0.27995 0.02200
C 	C 	0.02789 0.91736 0.30978 -0.04800
C 	C 	0.05578 0.88598 0.32153 -0.03300
C 	C 	0.99942 0.95790 0.26790 -0.02100
C 	C 	0.97862 0.98774 0.25728 -0.01000
H 	H 	0.10886 0.72664 0.36383 0.03800
H 	H 	0.05003 0.76351 0.33722 0.04600
H 	H 	0.18785 0.89379 0.29758 0.04300
H 	H 	0.24674 0.85648 0.32380 0.01000
H 	H 	0.09568 0.84251 0.25947 0.03500
H 	H 	0.04631 0.89802 0.23876 0.04100
H 	H 	0.05902 0.88352 0.34464 0.03800
C 	C 	0.44825 0.04640 0.47123 -0.05500
C 	C 	0.44650 0.99028 0.46536 0.01400
S 	S 	0.46075 0.89948 0.47527 0.02800
C 	C 	0.40327 0.88852 0.45778 -0.08000
C 	C 	0.40116 0.94356 0.45378 -0.02200
H 	H 	0.42018 0.06167 0.46117 0.04400
H 	H 	0.36892 0.94976 0.44240 0.03900
C 	C 	0.02197 0.57646 0.47130 0.01400
C 	C 	0.03486 0.55914 0.49796 -0.00100
C 	C 	0.99991 0.50844 0.51146 -0.05200
S 	S 	0.10117 0.58705 0.50157 0.01100
C 	C 	0.11585 0.62458 0.47089 -0.07100
C 	C 	0.06753 0.61337 0.45596 -0.02100
H 	H 	0.01088 0.49457 0.53165 0.04300
H 	H 	0.06571 0.62423 0.43361 0.04800
C 	C 	0.44160 0.52935 0.47077 0.01500
S 	S 	0.48077 0.63740 0.46354 0.02700
C 	C 	0.41414 0.60494 0.45967 -0.08100
C 	C 	0.39801 0.54467 0.46390 -0.02400
H 	H 	0.39824 0.43952 0.48400 0.04400
H 	H 	0.35660 0.51374 0.46355 0.03600
C 	C 	0.13902 0.02942 0.70595 0.01700
C 	C 	0.15693 0.09003 0.70181 -0.04300
C 	C 	0.20620 0.12072 0.68886 -0.03700
C 	C 	0.23787 0.09099 0.67990 0.00300
C 	C 	0.21941 0.03014 0.68355 -0.03600
C 	C 	0.17009 0.99947 0.69646 -0.04600
C 	C 	0.29044 0.12356 0.66679 0.01000
C 	C 	0.33752 0.12587 0.68042 -0.04500
C 	C 	0.38715 0.15498 0.66749 -0.03300
C 	C 	0.39004 0.18207 0.64092 -0.00800
C 	C 	0.34318 0.18072 0.62754 -0.03100
C 	C 	0.29353 0.15160 0.64043 -0.04400
C 	C 	0.44058 0.20795 0.62649 0.04100
H 	H 	0.13333 0.11353 0.70928 0.04100
H 	H 	0.22010 0.16767 0.68616 0.03800
H 	H 	0.24339 0.00673 0.67654 0.03800
H 	H 	0.15658 0.95270 0.69966 0.04000
H 	H 	0.33561 0.10483 0.70090 0.03800
H 	H 	0.42319 0.15579 0.67795 0.03300
H 	H 	0.34508 0.20146 0.60697 0.04100
H 	H 	0.25745 0.15012 0.62976 0.04100
C 	C 	0.02088 0.58432 0.98608 -0.00200
C 	C 	0.03793 0.54160 0.97548 0.01700
S 	S 	0.07472 0.64168 0.99682 0.02400
C 	C 	0.12120 0.61676 0.98745 -0.07400
C 	C 	0.09439 0.56005 0.97594 -0.01900
H 	H 	0.01477 0.44933 0.96556 0.04500
H 	H 	0.11377 0.52981 0.97311 0.03700
C 	C 	0.48163 0.96887 0.98039 -0.00400
C 	C 	0.44087 0.03857 0.98938 -0.05400
C 	C 	0.43617 0.98059 0.98585 0.01300
S 	S 	0.46803 0.90005 0.98962 0.02900
C 	C 	0.40419 0.88141 0.99916 -0.07900
C 	C 	0.39243 0.93137 0.99626 -0.02300
H 	H 	0.40592 0.04827 0.99289 0.04400
H 	H 	0.35733 0.93477 0.00544 0.03900
C 	C 	0.43731 0.47638 0.98603 -0.05600
C 	C 	0.44498 0.52466 0.00401 0.01300
C 	C 	0.49454 0.57291 0.00496 -0.00400
S 	S 	0.48481 0.63021 0.01808 0.02300
C 	C 	0.41935 0.59586 0.02466 -0.07500
C 	C 	0.40243 0.53748 0.01513 -0.02700
H 	H 	0.39978 0.43824 0.98568 0.04300
H 	H 	0.36068 0.50835 0.01247 0.03300
H 	H 	0.06080 0.14114 0.76658 0.04000
C 	C 	0.14197 0.02025 0.76840 0.01900
C 	C 	0.15741 0.07633 0.78068 -0.04400
C 	C 	0.20754 0.10343 0.79397 -0.03600
C 	C 	0.24252 0.07455 0.79514 0.00200
C 	C 	0.22680 0.01811 0.78319 -0.03400
C 	C 	0.17654 0.99094 0.76995 -0.04600
C 	C 	0.29515 0.10304 0.80931 0.01100
C 	C 	0.34202 0.12019 0.79315 -0.04500
C 	C 	0.39196 0.14885 0.80658 -0.03200
C 	C 	0.39518 0.16047 0.83618 -0.00900
C 	C 	0.34842 0.14315 0.85232 -0.03000
C 	C 	0.29855 0.11449 0.83895 -0.04500
C 	C 	0.44633 0.18936 0.85016 0.04300
H 	H 	0.13107 0.09940 0.77933 0.04000
H 	H 	0.21943 0.14705 0.80315 0.03800
H 	H 	0.25350 0.99540 0.78415 0.03600
H 	H 	0.16484 0.94761 0.76045 0.04100
H 	H 	0.33969 0.11171 0.77021 0.03900
H 	H 	0.42803 0.16204 0.79400 0.03300
H 	H 	0.35072 0.15187 0.87524 0.04100
H 	H 	0.26253 0.10127 0.85157 0.04100
Ni	Ni	0.73134 0.35419 0.91835 1.10000
O 	O 	0.66298 0.31133 0.89477 -0.70600
Ni	Ni	0.61004 0.32839 0.91841 1.10100
O 	O 	0.77522 0.32842 0.88996 -0.37000
O 	O 	0.71914 0.23210 0.89513 -0.41400
O 	O 	0.74004 0.42481 0.89326 -0.39400
Ni	Ni	0.64081 0.22715 0.89244 1.06400
O 	O 	0.76024 0.42537 0.98143 -0.41300
O 	O 	0.63738 0.21745 0.93589 -0.41800
O 	O 	0.54727 0.29230 0.89070 -0.38100
O 	O 	0.67581 0.35890 0.94474 -0.70700
O 	O 	0.79946 0.40347 0.94136 -0.37400
O 	O 	0.56986 0.36924 0.94092 -0.37500
O 	O 	0.64137 0.45747 0.93907 -0.41600
Ni	Ni	0.70122 0.43902 0.95962 1.06900
H 	H 	0.66485 0.32782 0.87534 0.15500
H 	H 	0.67187 0.33201 0.96092 0.15800
C 	C 	0.59633 0.21783 0.95018 0.29100
O 	O 	0.75761 0.48863 0.93121 -0.40000
C 	C 	0.76005 0.27281 0.88248 0.28900
C 	C 	0.53695 0.24020 0.87904 0.29300
C 	C 	0.75573 0.47862 0.90341 0.30400
C 	C 	0.59017 0.42671 0.94394 0.26900
C 	C 	0.80080 0.41780 0.96896 0.28800
O 	O 	0.57497 0.25554 0.94385 -0.36700
O 	O 	0.55982 0.20596 0.88944 -0.41000
Ni	Ni	0.60752 0.33013 0.55796 1.10100
O 	O 	0.67399 0.35311 0.53308 -0.70400
Ni	Ni	0.72844 0.35197 0.56203 1.10000
O 	O 	0.56847 0.36568 0.53112 -0.37400
O 	O 	0.64133 0.45283 0.53015 -0.41900
O 	O 	0.57165 0.25221 0.53538 -0.36900
Ni	Ni	0.70162 0.42922 0.51468 1.06800
O 	O 	0.55360 0.21401 0.59083 -0.40800
O 	O 	0.75564 0.48333 0.54414 -0.40000
O 	O 	0.79898 0.39417 0.54025 -0.37500
O 	O 	0.65907 0.31639 0.58462 -0.70400
O 	O 	0.54390 0.30117 0.58466 -0.37900
O 	O 	0.76979 0.33058 0.59391 -0.37200
O 	O 	0.71161 0.23416 0.59159 -0.41000
Ni	Ni	0.63437 0.23268 0.59049 1.06500
H 	H 	0.66944 0.32261 0.51830 0.15700
H 	H 	0.66112 0.33700 0.60316 0.15500
C 	C 	0.74965 0.47803 0.57200 0.30100
O 	O 	0.63254 0.21434 0.54785 -0.42000
C 	C 	0.59051 0.42125 0.52402 0.27300
C 	C 	0.80318 0.41092 0.51301 0.29000
C 	C 	0.59315 0.21381 0.53133 0.29200
C 	C 	0.75314 0.27669 0.60374 0.27300
C 	C 	0.53159 0.25112 0.59831 0.29100
O 	O 	0.73849 0.42717 0.58414 -0.39500
O 	O 	0.76134 0.41002 0.49783 -0.41600
C 	C 	0.01620 0.02793 0.72603 0.00500
C 	C 	0.01774 0.02431 0.75528 -0.01300
C 	C 	0.93209 0.07357 0.20372 -0.04400
H 	H 	0.92890 0.07604 0.17999 0.04400
C 	C 	0.93949 0.06750 0.26070 -0.04000
H 	H 	0.94265 0.06512 0.28443 0.04200
C 	C 	0.95036 0.02603 0.21444 -0.00700
C 	C 	0.97147 0.12959 0.21852 0.00500
C 	C 	0.87973 0.06049 0.21986 0.00600
C 	C 	0.95418 0.02309 0.24366 0.00300
C 	C 	0.97538 0.12652 0.24770 -0.00800
C 	C 	0.88328 0.05690 0.24912 -0.01100
C 	C 	0.48425 0.84287 0.11036 -0.08700
C 	C 	0.52579 0.82279 0.10950 0.01600
C 	C 	0.57349 0.85282 0.12467 -0.06800
C 	C 	0.58018 0.90308 0.14086 0.02800
C 	C 	0.53800 0.92174 0.14280 -0.06900
C 	C 	0.49015 0.89168 0.12767 0.01200
C 	C 	0.63218 0.93761 0.15457 -0.00500
C 	C 	0.67704 0.96673 0.13759 -0.03200
C 	C 	0.72744 0.99523 0.15047 -0.05000
C 	C 	0.73321 0.99489 0.18035 0.02400
C 	C 	0.68822 0.96742 0.19741 -0.04900
C 	C 	0.63776 0.93886 0.18456 -0.03300
C 	C 	0.78552 0.01937 0.19340 -0.02200
C 	C 	0.82884 0.03873 0.20495 -0.00800
H 	H 	0.52179 0.78500 0.09642 0.04100
H 	H 	0.60572 0.83775 0.12338 0.04700
H 	H 	0.54273 0.96022 0.15553 0.04300
H 	H 	0.67294 0.96631 0.11442 0.03800
H 	H 	0.76210 0.01660 0.13719 0.04300
H 	H 	0.69250 0.96714 0.22057 0.04200
H 	H 	0.60328 0.91660 0.19782 0.03500
H 	H 	0.03871 0.07108 0.18164 0.04100
C 	C 	0.83514 0.02752 0.26675 0.01900
C 	C 	0.80008 0.05521 0.27208 -0.04500
C 	C 	0.75088 0.02448 0.28511 -0.03600
C 	C 	0.73651 0.96588 0.29308 0.00200
C 	C 	0.77231 0.93878 0.28853 -0.03600
C 	C 	0.82144 0.96949 0.27545 -0.04600
C 	C 	0.68374 0.93272 0.30590 0.01000
C 	C 	0.68054 0.91101 0.33386 -0.04400
C 	C 	0.63059 0.88067 0.34621 -0.03100
C 	C 	0.58350 0.87180 0.33072 -0.00800
C 	C 	0.58658 0.89269 0.30265 -0.03300
C 	C 	0.63652 0.92299 0.29025 -0.04500
C 	C 	0.53224 0.84487 0.34436 0.04100
C 	C 	0.48977 0.82370 0.35629 -0.10300
H 	H 	0.81031 0.09998 0.26541 0.04100
H 	H 	0.72374 0.04597 0.28876 0.03800
H 	H 	0.76165 0.89362 0.29464 0.03800
H 	H 	0.84809 0.94761 0.27127 0.04200
H 	H 	0.71672 0.91824 0.34611 0.04100
H 	H 	0.62854 0.86483 0.36795 0.04100
H 	H 	0.55037 0.88613 0.29056 0.03300
H 	H 	0.63852 0.93914 0.26858 0.03700
C 	C 	0.98679 0.20205 0.28551 -0.03900
H 	H 	0.00109 0.26981 0.31739 0.04000
H 	H 	0.94368 0.18519 0.28758 0.04000
H 	H 	0.00942 0.93863 0.32387 0.04100
C 	C 	0.48585 0.08093 0.49162 -0.00100
C 	C 	0.48429 0.97194 0.47778 -0.00300
C 	C 	0.52188 0.00645 0.49816 -0.05300
C 	C 	0.52367 0.06258 0.50402 0.01400
S 	S 	0.50951 0.15344 0.49406 0.02900
C 	C 	0.56713 0.16436 0.51141 -0.08000
C 	C 	0.56915 0.10931 0.51545 -0.02200
H 	H 	0.54999 0.99119 0.50819 0.04300
H 	H 	0.60148 0.10312 0.52673 0.03900
C 	C 	0.93655 0.49495 0.47198 0.00200
C 	C 	0.97152 0.54563 0.45848 -0.05500
C 	C 	0.94947 0.47756 0.49863 0.01500
S 	S 	0.87023 0.46708 0.46839 0.01100
C 	C 	0.85561 0.42950 0.49906 -0.07100
C 	C 	0.90392 0.44063 0.51396 -0.02100
H 	H 	0.96055 0.55951 0.43830 0.04500
H 	H 	0.90575 0.42971 0.53631 0.04800
C 	C 	0.49137 0.57742 0.47078 -0.00300
C 	C 	0.53545 0.57672 0.48626 -0.05600
C 	C 	0.52986 0.52468 0.49999 0.01400
C 	C 	0.48007 0.47663 0.49999 -0.00300
C 	C 	0.43601 0.47735 0.48451 -0.05600
S 	S 	0.49061 0.41663 0.50716 0.02700
C 	C 	0.55723 0.44901 0.51104 -0.08200
C 	C 	0.57345 0.50932 0.50685 -0.02400
H 	H 	0.57322 0.61454 0.48677 0.04300
H 	H 	0.61488 0.54017 0.50714 0.03400
C 	C 	0.78882 0.26087 0.62269 -0.08800
C 	C 	0.76700 0.21430 0.64183 0.01200
C 	C 	0.80035 0.19316 0.65669 -0.06900
C 	C 	0.85584 0.21845 0.65260 0.02800
C 	C 	0.87799 0.26699 0.63465 -0.06800
C 	C 	0.84464 0.28822 0.61978 0.01600
C 	C 	0.89001 0.19099 0.66511 -0.00500
C 	C 	0.91534 0.16453 0.64712 -0.03200
C 	C 	0.94330 0.13329 0.65894 -0.04900
C 	C 	0.94616 0.12835 0.68877 0.02500
C 	C 	0.92219 0.15609 0.70681 -0.04900
C 	C 	0.89417 0.18732 0.69503 -0.03300
C 	C 	0.97161 0.09281 0.70090 -0.02300
C 	C 	0.99224 0.06304 0.71176 -0.00700
H 	H 	0.72407 0.19345 0.64458 0.01000
H 	H 	0.78293 0.15589 0.67065 0.04300
H 	H 	0.92087 0.28717 0.63160 0.04700
H 	H 	0.86206 0.32434 0.60516 0.03800
H 	H 	0.91220 0.16698 0.62401 0.03800
H 	H 	0.96191 0.11209 0.64489 0.04200
H 	H 	0.92452 0.15265 0.72993 0.04300
H 	H 	0.87492 0.20776 0.70908 0.03600
C 	C 	0.48244 0.22846 0.61394 -0.10400
C 	C 	0.76789 0.53134 0.59016 -0.09100
C 	C 	0.76411 0.58263 0.57999 0.01700
C 	C 	0.78536 0.63450 0.59625 -0.06800
C 	C 	0.81046 0.63548 0.62282 0.02900
C 	C 	0.81255 0.58380 0.63345 -0.06800
C 	C 	0.79132 0.53197 0.61725 0.01800
C 	C 	0.83803 0.69125 0.63852 -0.00500
C 	C 	0.82333 0.69785 0.66670 -0.03300
C 	C 	0.85419 0.74743 0.68302 -0.04800
C 	C 	0.89967 0.79077 0.67120 0.02500
C 	C 	0.91311 0.78546 0.64268 -0.04800
C 	C 	0.88240 0.73584 0.62637 -0.03200
C 	C 	0.93443 0.83863 0.68885 -0.02300
C 	C 	0.96389 0.87829 0.70377 -0.00700
H 	H 	0.74525 0.58247 0.55937 0.02800
H 	H 	0.78314 0.67412 0.58800 0.04600
H 	H 	0.83196 0.58420 0.65392 0.04700
H 	H 	0.79450 0.49276 0.62540 0.03700
H 	H 	0.78890 0.66385 0.67619 0.03600
H 	H 	0.84347 0.75146 0.70504 0.04300
H 	H 	0.94811 0.81901 0.63339 0.04300
H 	H 	0.89408 0.73113 0.60464 0.03800
C 	C 	0.97011 0.56887 0.99789 -0.05000
C 	C 	0.93475 0.50975 0.99682 0.01400
C 	C 	0.95179 0.46703 0.98623 0.00300
C 	C 	0.00256 0.48248 0.97442 -0.05600
S 	S 	0.89794 0.40969 0.97549 0.02400
C 	C 	0.85144 0.43460 0.98487 -0.07500
C 	C 	0.87829 0.49131 0.99638 -0.01800
H 	H 	0.95790 0.60201 0.00675 0.04400
H 	H 	0.85894 0.52158 0.99919 0.03700
C 	C 	0.53302 0.01374 0.98039 -0.05400
C 	C 	0.53767 0.07172 0.98387 0.01500
C 	C 	0.49226 0.08340 0.98949 -0.00400
S 	S 	0.50588 0.15234 0.98053 0.03000
C 	C 	0.56965 0.17105 0.97085 -0.07800
C 	C 	0.58139 0.12101 0.97348 -0.02400
H 	H 	0.56798 0.00406 0.97690 0.04400
H 	H 	0.61642 0.11769 0.96418 0.04000
C 	C 	0.47888 0.47991 0.96768 -0.00400
C 	C 	0.53609 0.57646 0.98660 -0.05700
C 	C 	0.52840 0.52822 0.96858 0.01400
S 	S 	0.48863 0.42263 0.95454 0.02500
C 	C 	0.55406 0.45710 0.94788 -0.07400
C 	C 	0.57094 0.51547 0.95741 -0.02700
H 	H 	0.57362 0.61460 0.98695 0.04300
H 	H 	0.61268 0.54468 0.95999 0.03400
C 	C 	0.99645 0.05731 0.77441 0.02000
C 	C 	0.94681 0.02850 0.78747 -0.04500
C 	C 	0.92201 0.06090 0.80135 -0.03600
C 	C 	0.94691 0.12231 0.80243 0.00100
C 	C 	0.99771 0.15095 0.79056 -0.03300
C 	C 	0.02246 0.11855 0.77665 -0.04900
C 	C 	0.91871 0.15658 0.81476 0.01100
C 	C 	0.93434 0.18411 0.84169 -0.04500
C 	C 	0.90518 0.21326 0.85425 -0.03000
C 	C 	0.86036 0.21515 0.83991 -0.01000
C 	C 	0.84585 0.18940 0.81256 -0.03200
C 	C 	0.87496 0.16023 0.80000 -0.04600
C 	C 	0.82615 0.23793 0.85445 0.04200
C 	C 	0.79650 0.25506 0.86700 -0.10900
H 	H 	0.92652 0.98122 0.78587 0.04200
H 	H 	0.88297 0.03843 0.81071 0.03800
H 	H 	0.01730 0.19834 0.79143 0.03600
H 	H 	0.96831 0.18183 0.85313 0.04100
H 	H 	0.91661 0.23305 0.87541 0.04000
H 	H 	0.81127 0.19073 0.80135 0.03300
H 	H 	0.86300 0.13962 0.77905 0.03800
C 	C 	0.48830 0.21303 0.86281 -0.10700
C 	C 	0.78168 0.52853 0.88396 -0.08800
C 	C 	0.76882 0.52301 0.85447 0.01700
C 	C 	0.79456 0.56987 0.83607 -0.06800
C 	C 	0.83335 0.62262 0.84698 0.02900
C 	C 	0.84573 0.62839 0.87644 -0.06700
C 	C 	0.82015 0.58169 0.89482 0.01800
C 	C 	0.86171 0.67163 0.82755 -0.00500
C 	C 	0.91743 0.69179 0.82461 -0.03200
C 	C 	0.94502 0.74132 0.80821 -0.04800
C 	C 	0.91714 0.77099 0.79458 0.02500
C 	C 	0.86133 0.75011 0.79688 -0.04900
C 	C 	0.83367 0.70057 0.81332 -0.03300
C 	C 	0.94606 0.82395 0.77902 -0.02600
C 	C 	0.97072 0.86839 0.76621 -0.00400
H 	H 	0.73892 0.48256 0.84580 0.02900
H 	H 	0.78465 0.56502 0.81335 0.04500
H 	H 	0.87540 0.66904 0.88508 0.04700
H 	H 	0.83080 0.58664 0.91745 0.03600
H 	H 	0.93942 0.66958 0.83536 0.03900
H 	H 	0.98811 0.75703 0.80641 0.04300
H 	H 	0.83946 0.77265 0.78629 0.04100
H 	H 	0.79069 0.68543 0.81547 0.03600
