data_crystal

_cell_length_a 44.91353
_cell_length_b 38.08772
_cell_length_c 24.82945
_cell_angle_alpha 89.95646
_cell_angle_beta  89.94858
_cell_angle_gamma 90.50567

_symmetry_space_group_name_	'P 1'
_symmetry_space_group_name_H-M	'P 1'

loop_
_symmetry_equiv_pos_as_xyz
  x,y,z

loop_
_atom_site_label
_atom_site_type_symbol
_atom_site_fract_x
_atom_site_fract_y
_atom_site_fract_z
_atom_site_charge
Zn	Zn	0.47547 0.47873 0.96449 1.22200
C 	C 	0.49108 0.55214 0.95466 0.31700
O 	O 	0.49922 0.46520 0.02721 -0.47300
O 	O 	0.46846 0.55712 0.98741 -0.45100
O 	O 	0.50527 0.51853 0.06588 -0.49400
C 	C 	0.41659 0.50070 0.98834 0.32600
O 	O 	0.43625 0.49750 0.94959 -0.45300
O 	O 	0.42551 0.50408 0.03847 -0.50400
C 	C 	0.51644 0.48836 0.05108 0.31900
O 	O 	0.45219 0.42315 0.96554 -0.32800
Zn	Zn	0.46302 0.52769 0.05659 1.17000
O 	O 	0.49902 0.52003 0.94157 -0.43400
C 	C 	0.46896 0.41608 0.92449 0.27800
O 	O 	0.48663 0.44127 0.90911 -0.38300
Zn	Zn	0.40835 0.05791 0.03844 1.22400
C 	C 	0.34735 0.03919 0.06779 0.34000
O 	O 	0.43354 0.05230 0.10213 -0.44500
O 	O 	0.35297 0.00635 0.05607 -0.44600
O 	O 	0.40077 0.01386 0.14008 -0.48800
C 	C 	0.41109 0.99713 0.97220 0.30900
O 	O 	0.39800 0.02763 0.97800 -0.45300
O 	O 	0.40848 0.97315 0.00993 -0.49600
C 	C 	0.42625 0.03096 0.14160 0.30200
O 	O 	0.45089 0.07590 0.98800 -0.32800
Zn	Zn	0.39169 0.98268 0.08016 1.17200
O 	O 	0.36922 0.06193 0.07394 -0.43200
C 	C 	0.43869 0.10662 0.98936 0.29600
O 	O 	0.41377 0.10855 0.01504 -0.38400
C 	C 	0.53690 0.96833 0.75385 0.13600
C 	C 	0.56298 0.96107 0.78279 -0.10000
H 	H 	0.58332 0.95519 0.76132 0.06700
C 	C 	0.56263 0.96165 0.83921 0.04400
C 	C 	0.53606 0.96877 0.86648 -0.08200
C 	C 	0.50988 0.97555 0.83786 0.04500
C 	C 	0.51037 0.97573 0.78143 -0.10000
H 	H 	0.49034 0.98142 0.75892 0.06700
N 	N 	0.53738 0.96825 0.69599 -0.17800
C 	C 	0.52856 0.93860 0.66873 0.19000
C 	C 	0.52926 0.93786 0.61206 -0.06100
C 	C 	0.53919 0.96772 0.58381 0.03100
C 	C 	0.54812 0.99789 0.61227 -0.06400
C 	C 	0.54691 0.99771 0.66892 0.18600
C 	C 	0.52025 0.90773 0.58333 -0.01400
C 	C 	0.52118 0.90747 0.52702 -0.01300
C 	C 	0.53116 0.93730 0.49852 -0.06100
C 	C 	0.54022 0.96741 0.52700 0.03100
C 	C 	0.55029 0.99721 0.49876 -0.06400
C 	C 	0.55814 0.02771 0.58377 -0.00900
C 	C 	0.55926 0.02736 0.52748 -0.00900
C 	C 	0.53219 0.93756 0.44185 0.19000
N 	N 	0.54205 0.96688 0.41481 -0.17800
C 	C 	0.55119 0.99639 0.44210 0.18600
C 	C 	0.54256 0.96681 0.35695 0.13600
C 	C 	0.56686 0.95244 0.32941 -0.10100
C 	C 	0.56709 0.95174 0.27296 0.04300
C 	C 	0.54348 0.96661 0.24426 -0.08300
C 	C 	0.51946 0.98165 0.27160 0.04600
C 	C 	0.51875 0.98109 0.32803 -0.10200
O 	O 	0.55496 0.02595 0.69612 -0.19700
O 	O 	0.51953 0.91065 0.69576 -0.20200
O 	O 	0.52350 0.90959 0.41462 -0.20400
O 	O 	0.56085 0.02406 0.41511 -0.19800
H 	H 	0.49984 0.99164 0.34952 0.06600
H 	H 	0.58537 0.94190 0.35196 0.06600
H 	H 	0.56513 0.05119 0.60505 0.05000
H 	H 	0.56706 0.05058 0.50638 0.04900
H 	H 	0.51250 0.88448 0.60443 0.04900
H 	H 	0.51413 0.88401 0.50574 0.04800
H 	H 	0.54380 0.96644 0.20060 0.04800
H 	H 	0.53575 0.96897 0.91015 0.04900
Zn	Zn	0.67341 0.87802 0.03808 1.22500
C 	C 	0.73350 0.90512 0.05488 0.33800
O 	O 	0.65423 0.87816 0.10919 -0.44100
O 	O 	0.72271 0.93600 0.04278 -0.44900
O 	O 	0.68491 0.92127 0.13922 -0.49300
C 	C 	0.65961 0.93957 0.97740 0.31500
O 	O 	0.67583 0.91100 0.97791 -0.45200
O 	O 	0.66071 0.96167 0.01792 -0.49800
C 	C 	0.66123 0.90144 0.14605 0.30500
O 	O 	0.62793 0.85833 0.00008 -0.32800
Zn	Zn	0.68544 0.95485 0.08067 1.17400
O 	O 	0.71559 0.87789 0.06078 -0.42700
C 	C 	0.64135 0.82857 0.99417 0.29300
O 	O 	0.66847 0.82764 0.01155 -0.38200
Zn	Zn	0.11229 0.62147 0.91468 1.22400
C 	C 	0.09448 0.69409 0.89634 0.32000
O 	O 	0.10946 0.61250 0.99295 -0.43200
O 	O 	0.06733 0.68204 0.88943 -0.45200
O 	O 	0.07689 0.65649 0.00166 -0.49200
C 	C 	0.05866 0.60166 0.85648 0.31700
O 	O 	0.08591 0.61455 0.85197 -0.44400
O 	O 	0.04204 0.60909 0.89844 -0.50400
C 	C 	0.08907 0.62829 0.02161 0.30200
O 	O 	0.12841 0.56274 0.90286 -0.32400
Zn	Zn	0.04832 0.64890 0.94505 1.17500
O 	O 	0.11520 0.67331 0.91540 -0.42800
C 	C 	0.15429 0.57697 0.89364 0.29700
O 	O 	0.15518 0.61082 0.89611 -0.38700
C 	C 	0.98427 0.52470 0.22342 0.13500
C 	C 	0.96129 0.51094 0.19118 -0.10000
H 	H 	0.94201 0.49882 0.20997 0.06700
C 	C 	0.96318 0.51340 0.13493 0.04400
C 	C 	0.98843 0.52871 0.11123 -0.08200
C 	C 	0.01050 0.54443 0.14317 0.04400
C 	C 	0.00865 0.54195 0.19939 -0.09900
H 	H 	0.02577 0.55365 0.22446 0.06700
N 	N 	0.98255 0.52173 0.28104 -0.17800
C 	C 	0.99507 0.49332 0.30609 0.18900
C 	C 	0.99388 0.49010 0.36255 -0.06100
C 	C 	0.97969 0.51622 0.39287 0.03100
C 	C 	0.96687 0.54507 0.36665 -0.06100
C 	C 	0.96854 0.54740 0.31012 0.19000
C 	C 	0.00669 0.46124 0.38903 -0.01300
C 	C 	0.00538 0.45855 0.44517 -0.01300
C 	C 	0.99122 0.48467 0.47576 -0.06100
C 	C 	0.97835 0.51349 0.44953 0.03100
C 	C 	0.96417 0.53961 0.47986 -0.06100
C 	C 	0.95265 0.57115 0.39723 -0.01400
C 	C 	0.95130 0.56844 0.45337 -0.01400
C 	C 	0.98976 0.48249 0.53231 0.19000
N 	N 	0.97590 0.50825 0.56142 -0.17800
C 	C 	0.96312 0.53648 0.53634 0.19000
C 	C 	0.97484 0.50565 0.61914 0.13600
C 	C 	0.95100 0.48801 0.64429 -0.10000
C 	C 	0.95012 0.48516 0.70057 0.04300
C 	C 	0.97338 0.49941 0.73128 -0.08100
C 	C 	0.99615 0.51906 0.70671 0.04400
C 	C 	0.99715 0.52167 0.65044 -0.10000
O 	O 	0.95665 0.57436 0.28500 -0.20500
O 	O 	0.00829 0.46898 0.27715 -0.20000
O 	O 	0.00180 0.45562 0.55744 -0.20000
O 	O 	0.94985 0.56078 0.56529 -0.20500
H 	H 	0.01475 0.53662 0.63099 0.06700
H 	H 	0.93309 0.47720 0.62010 0.06700
H 	H 	0.94262 0.59356 0.37769 0.04800
H 	H 	0.94026 0.58882 0.47609 0.04800
H 	H 	0.01770 0.44084 0.36630 0.05000
H 	H 	0.01540 0.43613 0.46470 0.05000
H 	H 	0.97245 0.49773 0.77486 0.04900
H 	H 	0.98992 0.53054 0.06772 0.04900
Zn	Zn	0.84461 0.42438 0.93586 1.22400
C 	C 	0.78851 0.46130 0.93903 0.33800
O 	O 	0.85636 0.41819 0.86021 -0.43600
O 	O 	0.80353 0.49108 0.93873 -0.44700
O 	O 	0.83108 0.46627 0.83521 -0.49300
C 	C 	0.87123 0.48395 0.98769 0.31500
O 	O 	0.85175 0.45832 0.99344 -0.45400
O 	O 	0.87053 0.50434 0.94505 -0.50000
C 	C 	0.85136 0.44280 0.82460 0.30400
O 	O 	0.88994 0.39863 0.96224 -0.33100
Zn	Zn	0.84003 0.50067 0.89001 1.17300
O 	O 	0.80157 0.43160 0.92668 -0.43100
C 	C 	0.87365 0.37161 0.97515 0.28000
O 	O 	0.84537 0.37474 0.96639 -0.38400
Zn	Zn	0.02436 0.03343 0.14531 1.22300
C 	C 	0.05408 0.97271 0.10142 0.34000
O 	O 	0.99354 0.01377 0.19304 -0.46700
O 	O 	0.07029 0.97216 0.14547 -0.45400
O 	O 	0.01444 0.96051 0.20636 -0.49300
C 	C 	0.08162 0.04659 0.19153 0.33000
O 	O 	0.06565 0.04882 0.14751 -0.45100
O 	O 	0.07164 0.02806 0.23242 -0.50800
C 	C 	0.99069 0.97970 0.19931 0.31300
O 	O 	0.01157 0.09064 0.17333 -0.32500
Zn	Zn	0.05285 0.98240 0.22065 1.16900
O 	O 	0.03030 0.99254 0.09834 -0.44100
C 	C 	0.99914 0.09309 0.12639 0.29600
O 	O 	0.00099 0.06571 0.09587 -0.38200
C 	C 	0.88670 0.33891 0.99599 -0.07900
C 	C 	0.87060 0.30716 0.99339 0.01100
C 	C 	0.88351 0.27597 0.01118 -0.06100
C 	C 	0.91258 0.27624 0.03182 0.02600
C 	C 	0.92850 0.30800 0.03523 -0.06300
C 	C 	0.91563 0.33920 0.01748 0.01400
C 	C 	0.92657 0.24319 0.04885 0.00300
C 	C 	0.93229 0.21678 0.01091 -0.03700
C 	C 	0.94654 0.18596 0.02670 -0.03100
C 	C 	0.95517 0.18137 0.08044 -0.00400
C 	C 	0.94922 0.20755 0.11849 -0.03200
C 	C 	0.93496 0.23837 0.10277 -0.03900
C 	C 	0.97058 0.15008 0.09639 0.04500
C 	C 	0.98359 0.12399 0.10993 -0.09300
H 	H 	0.84828 0.30653 0.97693 0.04200
H 	H 	0.87100 0.25157 0.00867 0.04800
H 	H 	0.95095 0.30845 0.05118 0.04900
H 	H 	0.92817 0.36355 0.02034 0.03800
H 	H 	0.92597 0.22031 0.96916 0.04100
H 	H 	0.95106 0.16581 0.99709 0.04200
H 	H 	0.95579 0.20413 0.16014 0.04300
H 	H 	0.93054 0.25856 0.13237 0.04200
C 	C 	0.90340 0.47272 0.80901 -0.01200
H 	H 	0.90663 0.48130 0.85136 -0.00200
C 	C 	0.90218 0.49731 0.75964 -0.05800
H 	H 	0.90476 0.52632 0.76083 0.02700
C 	C 	0.92392 0.44744 0.77806 -0.04300
H 	H 	0.94435 0.43521 0.79446 0.04200
C 	C 	0.92260 0.47200 0.72886 0.01000
C 	C 	0.87613 0.45261 0.78728 -0.10700
C 	C 	0.89639 0.42716 0.75657 0.01800
H 	H 	0.89376 0.39815 0.75564 0.03500
C 	C 	0.89533 0.45184 0.70679 -0.04700
H 	H 	0.89205 0.44313 0.66455 0.04200
C 	C 	0.87460 0.47711 0.73813 0.00300
H 	H 	0.85408 0.48926 0.72201 0.02200
C 	C 	0.89145 0.51538 0.07781 0.00900
H 	H 	0.87129 0.53062 0.08816 0.02900
C 	C 	0.92232 0.53122 0.06366 -0.04800
H 	H 	0.92793 0.55968 0.06295 0.03600
C 	C 	0.90656 0.48775 0.11450 -0.04500
H 	H 	0.89889 0.48015 0.15542 0.04300
C 	C 	0.93720 0.50358 0.09978 0.00700
C 	C 	0.89437 0.49023 0.02978 -0.08300
C 	C 	0.90906 0.46242 0.06575 0.01000
H 	H 	0.90341 0.43398 0.06623 0.03800
C 	C 	0.93996 0.47835 0.05168 -0.04800
H 	H 	0.96009 0.46310 0.04111 0.04300
C 	C 	0.92499 0.50597 0.01534 0.00700
H 	H 	0.93257 0.51348 0.97430 0.02300
C 	C 	0.09985 0.73224 0.89436 -0.10000
C 	C 	0.11700 0.74850 0.93464 0.01900
C 	C 	0.11526 0.78474 0.94253 -0.06900
C 	C 	0.09660 0.80506 0.90985 0.02600
C 	C 	0.08228 0.78938 0.86565 -0.07000
C 	C 	0.08379 0.75307 0.85806 0.01700
C 	C 	0.08805 0.84060 0.92749 0.00100
C 	C 	0.05816 0.84756 0.93995 -0.04100
C 	C 	0.05073 0.87795 0.96818 -0.03100
C 	C 	0.07308 0.90155 0.98429 -0.01300
C 	C 	0.10260 0.89609 0.96822 -0.03100
C 	C 	0.11007 0.86578 0.93962 -0.04200
C 	C 	0.06646 0.92797 0.02377 0.05500
C 	C 	0.06080 0.94896 0.05849 -0.11900
H 	H 	0.12997 0.73283 0.96230 0.03900
H 	H 	0.12683 0.79662 0.97628 0.04600
H 	H 	0.06853 0.80499 0.83916 0.04500
H 	H 	0.07121 0.74093 0.82574 0.03000
H 	H 	0.04092 0.82846 0.93053 0.03600
H 	H 	0.02781 0.88219 0.98000 0.03700
H 	H 	0.11997 0.91445 0.98002 0.03800
H 	H 	0.13312 0.86102 0.92930 0.03900
C 	C 	0.05983 0.55282 0.77520 0.01000
H 	H 	0.08389 0.54641 0.77419 0.03700
C 	C 	0.04141 0.56735 0.72716 -0.04500
H 	H 	0.05025 0.57275 0.68620 0.04200
C 	C 	0.03417 0.52672 0.78860 -0.04800
H 	H 	0.03685 0.49844 0.79814 0.04300
C 	C 	0.01597 0.54153 0.74141 0.00800
C 	C 	0.04535 0.58010 0.81235 -0.08300
C 	C 	0.01996 0.55418 0.82607 0.00500
H 	H 	0.01102 0.54861 0.86695 0.02800
C 	C 	0.00180 0.56897 0.77874 -0.04800
H 	H 	0.97778 0.57556 0.78022 0.03500
C 	C 	0.02729 0.59499 0.76514 0.00700
H 	H 	0.02457 0.62329 0.75582 0.02700
C 	C 	0.05494 0.55305 0.07298 -0.04100
H 	H 	0.05697 0.52513 0.06082 0.04300
C 	C 	0.08042 0.57624 0.09609 0.01700
H 	H 	0.10373 0.56776 0.10262 0.03400
C 	C 	0.04548 0.58336 0.03566 -0.01900
H 	H 	0.03978 0.58025 0.99250 -0.00800
C 	C 	0.07065 0.60635 0.05896 -0.10900
C 	C 	0.03379 0.56706 0.11658 0.01000
C 	C 	0.02431 0.59732 0.07942 -0.06000
H 	H 	0.00108 0.60596 0.07249 0.02400
C 	C 	0.04963 0.62047 0.10265 0.00200
H 	H 	0.04757 0.64843 0.11460 0.02100
C 	C 	0.05898 0.58998 0.14041 -0.04700
H 	H 	0.06455 0.59270 0.18375 0.04100
C 	C 	0.96138 0.96270 0.19149 -0.09700
C 	C 	0.93518 0.98131 0.20212 0.01200
C 	C 	0.90749 0.96690 0.18837 -0.06500
C 	C 	0.90572 0.93376 0.16389 0.02600
C 	C 	0.93177 0.91455 0.15515 -0.06800
C 	C 	0.95948 0.92889 0.16898 0.01900
C 	C 	0.87685 0.92033 0.14414 0.00200
C 	C 	0.87167 0.91746 0.08856 -0.04100
C 	C 	0.84314 0.90936 0.06952 -0.03100
C 	C 	0.81966 0.90400 0.10589 -0.01100
C 	C 	0.82516 0.90504 0.16144 -0.03200
C 	C 	0.85366 0.91319 0.18053 -0.04200
C 	C 	0.78947 0.90242 0.08655 0.05200
C 	C 	0.76400 0.90270 0.07134 -0.12000
H 	H 	0.93629 0.00721 0.22006 0.04000
H 	H 	0.88746 0.98188 0.19544 0.04600
H 	H 	0.93059 0.88884 0.13657 0.04600
H 	H 	0.97950 0.91423 0.16048 0.03300
H 	H 	0.88948 0.92278 0.06015 0.04100
H 	H 	0.83907 0.90856 0.02652 0.03900
H 	H 	0.80712 0.90084 0.18981 0.03800
H 	H 	0.85752 0.91499 0.22351 0.03900
C 	C 	0.62640 0.91893 0.89051 0.01300
H 	H 	0.63752 0.89394 0.88000 0.03700
C 	C 	0.62292 0.95114 0.85261 -0.04800
H 	H 	0.63113 0.95277 0.81050 0.04200
C 	C 	0.59349 0.92262 0.90839 -0.04600
H 	H 	0.57713 0.90073 0.91209 0.04700
C 	C 	0.59034 0.95470 0.87117 0.00900
C 	C 	0.63574 0.94384 0.93631 -0.08800
C 	C 	0.60317 0.94737 0.95451 0.00900
H 	H 	0.59512 0.94575 0.99675 0.02200
C 	C 	0.59993 0.97945 0.91709 -0.05400
H 	H 	0.58895 0.00446 0.92802 0.04500
C 	C 	0.63271 0.97587 0.89912 0.01200
H 	H 	0.64908 0.99777 0.89563 0.02700
C 	C 	0.61587 0.96053 0.21312 -0.05700
H 	H 	0.61613 0.98968 0.21345 0.03000
C 	C 	0.61229 0.93729 0.16252 -0.00700
H 	H 	0.61000 0.94706 0.12058 0.00200
C 	C 	0.64131 0.93674 0.23347 0.00400
H 	H 	0.66292 0.94605 0.25008 0.02200
C 	C 	0.63739 0.91365 0.18317 -0.10200
C 	C 	0.59314 0.93703 0.24274 0.00900
C 	C 	0.61825 0.91331 0.26359 -0.04700
H 	H 	0.62072 0.90328 0.30531 0.04200
C 	C 	0.61476 0.89003 0.21269 0.01600
H 	H 	0.61452 0.86088 0.21218 0.03400
C 	C 	0.58939 0.91384 0.19237 -0.04400
H 	H 	0.56788 0.90440 0.17549 0.03900
C 	C 	0.11282 0.05892 0.19087 -0.10400
C 	C 	0.12138 0.08655 0.15652 0.02800
C 	C 	0.15150 0.09267 0.14538 -0.07000
C 	C 	0.17329 0.07129 0.16861 0.03100
C 	C 	0.16490 0.04578 0.20664 -0.07200
C 	C 	0.13480 0.03970 0.21789 0.02400
C 	C 	0.20412 0.07241 0.14812 0.00200
C 	C 	0.20991 0.06388 0.09412 -0.03900
C 	C 	0.23922 0.06012 0.07628 -0.03000
C 	C 	0.26292 0.06485 0.11223 -0.01000
C 	C 	0.25726 0.07479 0.16558 -0.03100
C 	C 	0.22794 0.07862 0.18349 -0.04000
C 	C 	0.29276 0.05657 0.09569 0.05400
C 	C 	0.31768 0.04892 0.08243 -0.11600
H 	H 	0.10467 0.10224 0.13657 0.03700
H 	H 	0.15781 0.11297 0.11689 0.05100
H 	H 	0.18159 0.02941 0.22532 0.04500
H 	H 	0.12856 0.01863 0.24510 0.01300
H 	H 	0.19168 0.05897 0.06650 0.04300
H 	H 	0.24345 0.05253 0.03493 0.04100
H 	H 	0.27552 0.07865 0.19354 0.04100
H 	H 	0.22372 0.08545 0.22514 0.04000
C 	C 	0.47178 0.95796 0.91462 -0.04700
H 	H 	0.48290 0.93323 0.92658 0.03800
C 	C 	0.43920 0.96085 0.89538 0.01200
H 	H 	0.42312 0.93865 0.89183 0.02800
C 	C 	0.46774 0.99032 0.95110 0.00200
H 	H 	0.47527 0.99247 0.99358 0.01800
C 	C 	0.43534 0.99317 0.93168 -0.09400
C 	C 	0.48166 0.98243 0.86845 0.00400
C 	C 	0.47769 0.01479 0.90473 -0.03800
H 	H 	0.49377 0.03697 0.90847 0.05000
C 	C 	0.44495 0.01779 0.88560 0.01900
H 	H 	0.43367 0.04250 0.87408 0.03800
C 	C 	0.44926 0.98529 0.84862 -0.05100
H 	H 	0.44160 0.98313 0.80626 0.04200
C 	C 	0.44566 0.99750 0.23105 -0.00600
H 	H 	0.42390 0.98933 0.24848 0.02500
C 	C 	0.46924 0.02114 0.25925 -0.03600
H 	H 	0.46708 0.03249 0.30022 0.04100
C 	C 	0.47055 0.97238 0.21231 -0.04800
H 	H 	0.46969 0.94328 0.21480 0.03100
C 	C 	0.49381 0.99609 0.24002 -0.00200
C 	C 	0.44996 0.01893 0.17908 -0.08600
C 	C 	0.47452 0.99397 0.16001 -0.01400
H 	H 	0.47652 0.98289 0.11882 0.00900
C 	C 	0.49795 0.01762 0.18798 -0.03300
H 	H 	0.51960 0.02595 0.17029 0.03800
C 	C 	0.47313 0.04275 0.20670 0.00800
H 	H 	0.47397 0.07184 0.20405 0.03700
C 	C 	0.47237 0.37981 0.90534 -0.07700
C 	C 	0.50082 0.36505 0.90107 0.01300
C 	C 	0.50389 0.32864 0.89601 -0.06300
C 	C 	0.47852 0.30682 0.89497 0.02600
C 	C 	0.45013 0.32193 0.89477 -0.06200
C 	C 	0.44708 0.35823 0.89995 0.01400
C 	C 	0.48144 0.26844 0.90173 0.00300
C 	C 	0.46748 0.24546 0.86525 -0.03900
C 	C 	0.46358 0.21000 0.87854 -0.03200
C 	C 	0.47380 0.19728 0.92813 -0.00300
C 	C 	0.49014 0.21948 0.96227 -0.03400
C 	C 	0.49396 0.25495 0.94916 -0.03700
C 	C 	0.46297 0.16401 0.94810 0.04400
C 	C 	0.45261 0.13718 0.96625 -0.09500
H 	H 	0.52052 0.38148 0.90479 0.03700
H 	H 	0.52592 0.31730 0.89536 0.04700
H 	H 	0.43039 0.30538 0.89355 0.04900
H 	H 	0.42502 0.36942 0.90241 0.03600
H 	H 	0.45822 0.25544 0.82805 0.04100
H 	H 	0.45121 0.19292 0.85160 0.04200
H 	H 	0.49840 0.20977 0.00043 0.04300
H 	H 	0.50504 0.27234 0.97740 0.04100
C 	C 	0.38449 0.50087 0.97557 -0.10300
C 	C 	0.37375 0.48340 0.92958 0.02600
C 	C 	0.34355 0.48504 0.91609 -0.07100
C 	C 	0.32383 0.50417 0.94838 0.03200
C 	C 	0.33443 0.52099 0.99494 -0.07600
C 	C 	0.36458 0.51929 0.00853 0.02700
C 	C 	0.29249 0.50847 0.93180 0.00100
C 	C 	0.28577 0.52575 0.88341 -0.03800
C 	C 	0.25635 0.53461 0.87151 -0.03300
C 	C 	0.23346 0.52633 0.90790 -0.00300
C 	C 	0.23990 0.50726 0.95471 -0.03200
C 	C 	0.26931 0.49827 0.96659 -0.04000
C 	C 	0.20464 0.54211 0.90153 0.04400
C 	C 	0.18118 0.55702 0.89726 -0.09300
H 	H 	0.38876 0.46862 0.90425 0.03600
H 	H 	0.33555 0.47176 0.88027 0.04900
H 	H 	0.31943 0.53600 0.01997 0.04900
H 	H 	0.37255 0.53297 0.04401 0.01900
H 	H 	0.30346 0.53358 0.85612 0.04100
H 	H 	0.25155 0.54928 0.83517 0.04200
H 	H 	0.22232 0.50064 0.98297 0.04200
H 	H 	0.27420 0.48448 0.00368 0.04200
C 	C 	0.54902 0.48326 0.05150 -0.10200
C 	C 	0.56837 0.51248 0.05244 0.02000
C 	C 	0.59879 0.50823 0.04280 -0.06900
C 	C 	0.61023 0.47474 0.03252 0.02800
C 	C 	0.59128 0.44531 0.03477 -0.06700
C 	C 	0.56083 0.44952 0.04434 0.02000
C 	C 	0.64149 0.47082 0.01545 0.00500
C 	C 	0.66156 0.45203 0.04753 -0.04200
C 	C 	0.69124 0.44862 0.03133 -0.02700
C 	C 	0.70099 0.46389 0.98296 -0.01200
C 	C 	0.68090 0.48234 0.95066 -0.02900
C 	C 	0.65126 0.48579 0.96680 -0.04300
C 	C 	0.73187 0.46200 0.96757 0.05400
C 	C 	0.75772 0.46120 0.95451 -0.11600
H 	H 	0.55971 0.53866 0.05832 0.03100
H 	H 	0.61334 0.53107 0.04179 0.04700
H 	H 	0.59997 0.41930 0.02739 0.04800
H 	H 	0.54631 0.42665 0.04452 0.03600
H 	H 	0.65421 0.44034 0.08510 0.04100
H 	H 	0.70668 0.43438 0.05658 0.04100
H 	H 	0.68830 0.49425 0.91325 0.03700
H 	H 	0.63587 0.50011 0.94157 0.04100
C 	C 	0.50975 0.58235 0.93861 -0.09700
C 	C 	0.54085 0.58062 0.94363 0.01800
C 	C 	0.55810 0.61139 0.94209 -0.06900
C 	C 	0.54441 0.64405 0.93486 0.02700
C 	C 	0.51366 0.64539 0.92518 -0.06900
C 	C 	0.49640 0.61470 0.92719 0.01800
C 	C 	0.56149 0.67686 0.94368 0.00100
C 	C 	0.55392 0.69918 0.98645 -0.04000
C 	C 	0.57020 0.73006 0.99540 -0.03500
C 	C 	0.59421 0.73886 0.96183 -0.00300
C 	C 	0.60185 0.71666 0.91905 -0.03400
C 	C 	0.58554 0.68571 0.90998 -0.03900
C 	C 	0.61122 0.77046 0.97192 0.04200
C 	C 	0.62512 0.79698 0.98152 -0.09400
H 	H 	0.55147 0.55575 0.95184 0.03400
H 	H 	0.58188 0.61001 0.94903 0.04600
H 	H 	0.50296 0.67039 0.91844 0.04600
H 	H 	0.47248 0.61627 0.92223 0.03100
H 	H 	0.53555 0.69246 0.01293 0.03800
H 	H 	0.56421 0.74705 0.02861 0.04100
H 	H 	0.62042 0.72328 0.89294 0.04100
H 	H 	0.59156 0.66869 0.87685 0.04000
