data_crystal

_cell_length_a 25.84937
_cell_length_b 26.57140
_cell_length_c 54.27708
_cell_angle_alpha 89.96956
_cell_angle_beta  90.03067
_cell_angle_gamma 120.02014

_symmetry_space_group_name_	'P 1'
_symmetry_space_group_name_H-M	'P 1'

loop_
_symmetry_equiv_pos_as_xyz
  x,y,z

loop_
_atom_site_label
_atom_site_type_symbol
_atom_site_fract_x
_atom_site_fract_y
_atom_site_fract_z
_atom_site_charge
Cu	Cu	0.72293 0.44379 0.56956 0.94000
Cu	Cu	0.83336 0.49539 0.60785 0.89200
Cu	Cu	0.84325 0.45674 0.56027 0.90600
Cu	Cu	0.77730 0.46174 0.51533 0.92000
C 	C 	0.67756 0.48004 0.52925 0.33300
O 	O 	0.68252 0.36348 0.55388 -0.32400
C 	C 	0.90642 0.44118 0.60134 0.32700
O 	O 	0.79892 0.49266 0.54749 -0.63500
O 	O 	0.78215 0.43082 0.58635 -0.64300
O 	O 	0.69870 0.46897 0.59958 -0.32900
O 	O 	0.79441 0.54025 0.60669 -0.38900
O 	O 	0.69648 0.45399 0.51412 -0.33600
O 	O 	0.90009 0.47663 0.53345 -0.33900
C 	C 	0.90725 0.51302 0.51557 0.33000
C 	C 	0.71205 0.34359 0.54112 0.31900
O 	O 	0.76288 0.37975 0.53023 -0.36300
O 	O 	0.86092 0.50901 0.50363 -0.33800
O 	O 	0.67718 0.47218 0.55321 -0.32500
C 	C 	0.73705 0.51614 0.61136 0.33700
O 	O 	0.88912 0.42875 0.57812 -0.33400
O 	O 	0.88068 0.46062 0.61674 -0.36600
H 	H 	0.82022 0.53558 0.54881 0.18900
H 	H 	0.76854 0.39144 0.59297 0.21600
Cu	Cu	0.42979 0.73810 0.43370 0.93800
Cu	Cu	0.45619 0.82458 0.38691 0.90100
Cu	Cu	0.46421 0.86508 0.43919 0.90900
Cu	Cu	0.46465 0.80198 0.48507 0.91600
C 	C 	0.47388 0.69788 0.47302 0.33300
O 	O 	0.35272 0.70374 0.45316 -0.32900
C 	C 	0.44039 0.92045 0.39724 0.32800
O 	O 	0.49141 0.81481 0.45204 -0.63500
O 	O 	0.41406 0.79593 0.41801 -0.63500
O 	O 	0.44417 0.70602 0.40316 -0.33600
O 	O 	0.50993 0.79553 0.38851 -0.39100
O 	O 	0.45442 0.72258 0.48870 -0.33600
O 	O 	0.51783 0.93131 0.45904 -0.34300
C 	C 	0.52364 0.93176 0.48324 0.33200
C 	C 	0.33713 0.73636 0.46577 0.32200
O 	O 	0.37807 0.78821 0.47337 -0.36000
O 	O 	0.51366 0.88480 0.49561 -0.34000
O 	O 	0.46040 0.69417 0.44942 -0.32500
C 	C 	0.48876 0.73928 0.38859 0.33600
O 	O 	0.44533 0.91850 0.42142 -0.33400
O 	O 	0.42275 0.87383 0.38356 -0.36800
H 	H 	0.53462 0.82931 0.44977 0.19900
H 	H 	0.37148 0.78513 0.41727 0.20600
Cu	Cu	0.48319 0.27275 0.23324 0.93700
Cu	Cu	0.49081 0.33951 0.28480 0.89800
Cu	Cu	0.44661 0.36466 0.23842 0.90900
Cu	Cu	0.40789 0.29249 0.19215 0.91400
C 	C 	0.40916 0.18308 0.19922 0.33400
O 	O 	0.54017 0.31236 0.20481 -0.32900
C 	C 	0.50202 0.45100 0.27761 0.32900
O 	O 	0.40996 0.28546 0.22682 -0.63300
O 	O 	0.50953 0.34757 0.24983 -0.63600
O 	O 	0.49331 0.23156 0.26185 -0.33200
O 	O 	0.44053 0.25771 0.28689 -0.39600
O 	O 	0.41491 0.22333 0.18350 -0.34400
O 	O 	0.38186 0.37717 0.22848 -0.34100
C 	C 	0.35938 0.36838 0.20603 0.33600
C 	C 	0.54437 0.35846 0.19377 0.32000
O 	O 	0.49817 0.36651 0.19300 -0.35700
O 	O 	0.35255 0.32404 0.19262 -0.34800
O 	O 	0.44359 0.19695 0.21885 -0.32400
C 	C 	0.46249 0.22376 0.28209 0.33700
O 	O 	0.48173 0.44035 0.25475 -0.33400
O 	O 	0.52523 0.42185 0.28790 -0.36700
H 	H 	0.37119 0.25857 0.23468 0.19900
H 	H 	0.55083 0.37845 0.24603 0.20600
Cu	Cu	0.18834 0.68418 0.10789 0.93800
Cu	Cu	0.12050 0.62394 0.05601 0.89100
Cu	Cu	0.05894 0.58856 0.10407 0.90800
Cu	Cu	0.09629 0.65248 0.15175 0.91400
C 	C 	0.20574 0.76597 0.14574 0.33300
O 	O 	0.21029 0.64140 0.13310 -0.32700
C 	C 	0.02218 0.50767 0.06295 0.32200
O 	O 	0.10153 0.66606 0.11742 -0.63600
O 	O 	0.13843 0.61173 0.08956 -0.63700
O 	O 	0.23593 0.73234 0.07946 -0.32700
O 	O 	0.15248 0.70538 0.05659 -0.40000
O 	O 	0.17350 0.72242 0.16076 -0.34200
O 	O 	0.98088 0.56968 0.11625 -0.34200
C 	C 	0.96776 0.57848 0.13877 0.34500
C 	C 	0.16960 0.59263 0.14350 0.32100
O 	O 	0.11428 0.58166 0.14592 -0.36300
O 	O 	0.00825 0.61862 0.15339 -0.35400
O 	O 	0.22554 0.75712 0.12478 -0.32500
C 	C 	0.20979 0.74013 0.06025 0.33400
O 	O 	0.01928 0.51409 0.08695 -0.33500
O 	O 	0.07121 0.54193 0.05043 -0.37100
H 	H 	0.08713 0.69217 0.11151 0.20100
H 	H 	0.15067 0.58203 0.09089 0.20900
Cu	Cu	0.26158 0.50359 0.76250 0.93700
Cu	Cu	0.34503 0.51881 0.71430 0.89400
Cu	Cu	0.37102 0.48950 0.76568 0.91100
Cu	Cu	0.29152 0.45505 0.80999 0.91500
C 	C 	0.17090 0.43539 0.79779 0.33400
O 	O 	0.28963 0.56692 0.78839 -0.32700
C 	C 	0.46185 0.54359 0.72738 0.32700
O 	O 	0.28835 0.44549 0.77535 -0.63400
O 	O 	0.34271 0.53826 0.74867 -0.63300
O 	O 	0.21853 0.49941 0.73157 -0.33000
O 	O 	0.26433 0.45994 0.70967 -0.39600
O 	O 	0.21366 0.45298 0.81443 -0.34000
O 	O 	0.39422 0.43782 0.78113 -0.33900
C 	C 	0.38283 0.41872 0.80410 0.33500
C 	C 	0.33931 0.58379 0.80094 0.31700
O 	O 	0.35731 0.54655 0.80596 -0.35800
O 	O 	0.33543 0.41248 0.81609 -0.34400
O 	O 	0.18270 0.45603 0.77516 -0.33000
C 	C 	0.22113 0.47190 0.71197 0.33400
O 	O 	0.45084 0.52915 0.75087 -0.33000
O 	O 	0.43039 0.56163 0.71500 -0.37200
H 	H 	0.26689 0.40479 0.76942 0.19800
H 	H 	0.36804 0.58041 0.75183 0.20200
Cu	Cu	0.66702 0.18420 0.90080 0.93200
Cu	Cu	0.59966 0.10972 0.94871 0.90500
Cu	Cu	0.54870 0.07389 0.89346 0.92300
Cu	Cu	0.62125 0.12840 0.84759 0.91700
C 	C 	0.74721 0.21576 0.85942 0.33500
O 	O 	0.63905 0.23478 0.88371 -0.32100
C 	C 	0.48220 0.02054 0.93557 0.32400
O 	O 	0.62863 0.10707 0.87998 -0.63300
O 	O 	0.58920 0.13898 0.91726 -0.63400
O 	O 	0.71975 0.20030 0.93051 -0.34400
O 	O 	0.65358 0.18338 0.96156 -0.36900
O 	O 	0.70096 0.20059 0.84482 -0.33900
O 	O 	0.50673 0.01360 0.86909 -0.33600
C 	C 	0.53280 0.00315 0.85056 0.32300
C 	C 	0.58838 0.21240 0.87119 0.31600
O 	O 	0.56406 0.15931 0.86218 -0.36400
O 	O 	0.57309 0.04584 0.83682 -0.34000
O 	O 	0.74138 0.21440 0.88359 -0.33100
C 	C 	0.70763 0.21326 0.95241 0.33300
O 	O 	0.47749 0.03708 0.91333 -0.33000
O 	O 	0.53462 0.03114 0.94369 -0.38500
H 	H 	0.64632 0.08166 0.88145 0.19000
H 	H 	0.56835 0.16137 0.91940 0.20200
C 	C 	0.37236 0.64347 0.81082 -0.10700
C 	C 	0.34311 0.66383 0.82638 0.12700
C 	C 	0.37132 0.72300 0.83279 0.06800
C 	C 	0.42930 0.76167 0.82410 0.02100
C 	C 	0.45991 0.74072 0.80976 0.06900
C 	C 	0.43183 0.68149 0.80343 0.12300
C 	C 	0.45825 0.82433 0.83021 0.02100
C 	C 	0.44993 0.86237 0.81477 0.07000
C 	C 	0.47499 0.92132 0.82122 0.13000
C 	C 	0.50970 0.94255 0.84278 -0.09800
C 	C 	0.51916 0.90475 0.85789 0.12800
C 	C 	0.49315 0.84564 0.85169 0.07100
Br	Br	0.54003 0.79355 0.79851 -0.10700
Br	Br	0.26560 0.61005 0.83985 -0.12400
Br	Br	0.45937 0.97227 0.80118 -0.11700
Br	Br	0.50459 0.79348 0.87276 -0.10700
Br	Br	0.47515 0.65252 0.78492 -0.16100
Br	Br	0.33053 0.75141 0.85334 -0.10300
Br	Br	0.40376 0.83339 0.78492 -0.11300
Br	Br	0.56795 0.93421 0.88708 -0.17500
C 	C 	0.10798 0.40179 0.80592 -0.10700
C 	C 	0.08798 0.34991 0.81944 0.12800
C 	C 	0.02909 0.31987 0.82844 0.06300
C 	C 	0.98788 0.33709 0.82120 0.03200
C 	C 	0.00666 0.38610 0.80595 0.05800
C 	C 	0.06748 0.42112 0.80013 0.13300
C 	C 	0.92584 0.30591 0.83077 0.01800
C 	C 	0.88344 0.25197 0.82061 0.07100
C 	C 	0.82549 0.22132 0.83061 0.12600
C 	C 	0.80783 0.24765 0.84878 -0.10300
C 	C 	0.84873 0.30423 0.85704 0.13000
C 	C 	0.90874 0.33095 0.84964 0.07000
Br	Br	0.94891 0.40476 0.79283 -0.10000
Br	Br	0.13990 0.31803 0.82429 -0.16800
Br	Br	0.77151 0.14248 0.82034 -0.16400
Br	Br	0.96782 0.40097 0.86581 -0.10600
Br	Br	0.09599 0.49818 0.78707 -0.11400
Br	Br	0.00545 0.25660 0.85139 -0.11600
Br	Br	0.90433 0.22099 0.79264 -0.10700
Br	Br	0.82124 0.34787 0.87580 -0.10600
C 	C 	0.56316 0.24948 0.86442 -0.10500
C 	C 	0.59279 0.29446 0.84702 0.12500
C 	C 	0.56520 0.32508 0.83820 0.06900
C 	C 	0.50807 0.31092 0.84678 0.02000
C 	C 	0.47977 0.26798 0.86505 0.07000
C 	C 	0.50707 0.23696 0.87373 0.12600
C 	C 	0.47641 0.33899 0.83565 0.02100
C 	C 	0.48452 0.39164 0.84535 0.07100
C 	C 	0.45486 0.41844 0.83460 0.12500
C 	C 	0.41583 0.39185 0.81458 -0.10300
C 	C 	0.40715 0.33883 0.80507 0.13000
C 	C 	0.43817 0.31291 0.81534 0.06900
Br	Br	0.40317 0.25124 0.87787 -0.11200
Br	Br	0.67001 0.31240 0.83447 -0.12600
Br	Br	0.46854 0.49221 0.84693 -0.13800
Br	Br	0.42848 0.24170 0.80165 -0.11500
Br	Br	0.46749 0.17706 0.89825 -0.16600
Br	Br	0.60492 0.38559 0.81392 -0.10600
Br	Br	0.53598 0.42668 0.87344 -0.10600
Br	Br	0.35110 0.30063 0.77857 -0.13000
C 	C 	0.97479 0.45482 0.05094 -0.10000
C 	C 	0.91527 0.44345 0.05097 0.12200
C 	C 	0.87197 0.39806 0.03648 0.07000
C 	C 	0.88916 0.36794 0.02013 0.02000
C 	C 	0.94811 0.37809 0.02063 0.06800
C 	C 	0.98975 0.41889 0.03720 0.13000
C 	C 	0.84599 0.32770 0.00174 0.02100
C 	C 	0.81480 0.26739 0.00620 0.06900
C 	C 	0.77235 0.22955 0.98907 0.13100
C 	C 	0.75697 0.25233 0.96869 -0.10900
C 	C 	0.78706 0.31270 0.96458 0.12800
C 	C 	0.83374 0.35003 0.98035 0.06900
Br	Br	0.97240 0.33810 0.99786 -0.10900
Br	Br	0.89384 0.49249 0.06935 -0.14200
Br	Br	0.73666 0.14657 0.99304 -0.16500
Br	Br	0.88112 0.43169 0.97271 -0.11500
Br	Br	0.06540 0.42259 0.04241 -0.12400
Br	Br	0.78914 0.37731 0.03878 -0.10800
Br	Br	0.82868 0.23697 0.03621 -0.10400
Br	Br	0.76084 0.34448 0.93870 -0.13100
C 	C 	0.24563 0.78472 0.04167 -0.11500
C 	C 	0.29679 0.78679 0.03134 0.12600
C 	C 	0.33112 0.82977 0.01389 0.06700
C 	C 	0.31049 0.86592 0.00441 0.02100
C 	C 	0.25732 0.86134 0.01352 0.06700
C 	C 	0.22695 0.82332 0.03314 0.12700
C 	C 	0.34532 0.90928 0.98514 0.01700
C 	C 	0.38526 0.96739 0.99177 0.08000
C 	C 	0.42497 0.00622 0.97415 0.10800
C 	C 	0.42869 0.98579 0.95068 -0.09200
C 	C 	0.38618 0.92877 0.94353 0.12600
C 	C 	0.34291 0.89132 0.96054 0.07300
Br	Br	0.22557 0.90627 0.99874 -0.10500
Br	Br	0.31671 0.72763 0.03921 -0.15200
Br	Br	0.47441 0.08750 0.98204 -0.18600
Br	Br	0.28136 0.81496 0.95046 -0.11400
Br	Br	0.16226 0.82669 0.04926 -0.12500
Br	Br	0.40696 0.83985 0.00324 -0.11500
Br	Br	0.38815 0.99265 0.02531 -0.10500
Br	Br	0.39005 0.90056 0.91121 -0.11500
C 	C 	0.90453 0.55134 0.14583 -0.10600
C 	C 	0.88149 0.50801 0.16414 0.12700
C 	C 	0.82071 0.48103 0.17054 0.06900
C 	C 	0.78260 0.49630 0.15817 0.02100
C 	C 	0.80567 0.53976 0.13989 0.07000
C 	C 	0.86685 0.56805 0.13405 0.13300
C 	C 	0.71812 0.46597 0.16416 0.02100
C 	C 	0.67872 0.41313 0.15242 0.06900
C 	C 	0.61949 0.37991 0.16076 0.12800
C 	C 	0.60003 0.39920 0.18099 -0.10700
C 	C 	0.63702 0.45535 0.19054 0.12300
C 	C 	0.69664 0.48818 0.18259 0.06900
Br	Br	0.75319 0.55991 0.12271 -0.10200
Br	Br	0.93301 0.48466 0.17999 -0.13900
Br	Br	0.56416 0.30942 0.14389 -0.12300
Br	Br	0.74959 0.56243 0.19751 -0.10800
Br	Br	0.89953 0.63109 0.11059 -0.13100
Br	Br	0.78939 0.42302 0.19621 -0.11800
Br	Br	0.70657 0.38577 0.12541 -0.10300
Br	Br	0.60551 0.48795 0.21375 -0.15700
C 	C 	0.32860 0.39961 0.19825 -0.10600
C 	C 	0.35637 0.44577 0.18134 0.12400
C 	C 	0.32640 0.47463 0.17320 0.07000
C 	C 	0.26891 0.45785 0.18223 0.02100
C 	C 	0.24137 0.41204 0.19937 0.06900
C 	C 	0.27110 0.38274 0.20729 0.13100
C 	C 	0.23771 0.48878 0.17386 0.02000
C 	C 	0.24658 0.53887 0.18642 0.06900
C 	C 	0.22095 0.57095 0.17727 0.12800
C 	C 	0.18785 0.55391 0.15521 -0.10700
C 	C 	0.17478 0.50119 0.14383 0.12400
C 	C 	0.20055 0.46912 0.15291 0.07000
Br	Br	0.16297 0.38965 0.21194 -0.10800
Br	Br	0.43591 0.46987 0.16964 -0.14300
Br	Br	0.22823 0.63629 0.19558 -0.13000
Br	Br	0.18611 0.39894 0.13643 -0.11300
Br	Br	0.23287 0.31900 0.23025 -0.12800
Br	Br	0.36385 0.53711 0.14961 -0.11300
Br	Br	0.29477 0.56393 0.21588 -0.10600
Br	Br	0.11992 0.47183 0.11648 -0.16300
C 	C 	0.37672 0.12203 0.19139 -0.10600
C 	C 	0.40380 0.10075 0.17516 0.13000
C 	C 	0.37240 0.04242 0.16754 0.06900
C 	C 	0.31570 0.00427 0.17755 0.01300
C 	C 	0.28936 0.02520 0.19437 0.06800
C 	C 	0.31901 0.08450 0.20060 0.12800
C 	C 	0.28426 0.94206 0.17064 0.02800
C 	C 	0.24150 0.92180 0.15160 0.06800
C 	C 	0.21367 0.86322 0.14433 0.12500
C 	C 	0.23146 0.82585 0.15490 -0.10800
C 	C 	0.27503 0.84643 0.17365 0.13000
C 	C 	0.29931 0.90372 0.18228 0.06600
Br	Br	0.21334 0.97232 0.20918 -0.10300
Br	Br	0.48475 0.15089 0.16422 -0.10800
Br	Br	0.15010 0.83365 0.12035 -0.15900
Br	Br	0.35312 0.92990 0.21006 -0.09800
Br	Br	0.28022 0.11476 0.22128 -0.16400
Br	Br	0.40663 0.01467 0.14323 -0.11400
Br	Br	0.22234 0.97474 0.13509 -0.10600
Br	Br	0.30470 0.79774 0.18617 -0.10500
C 	C 	0.44812 0.97373 0.38561 -0.09900
C 	C 	0.40136 0.98642 0.38602 0.13500
C 	C 	0.40440 0.03094 0.37094 0.06400
C 	C 	0.45361 0.06181 0.35510 0.02000
C 	C 	0.50198 0.05148 0.35587 0.07200
C 	C 	0.49960 0.00813 0.37145 0.11200
C 	C 	0.45326 0.10303 0.33682 0.02100
C 	C 	0.42668 0.08271 0.31356 0.06700
C 	C 	0.42869 0.12215 0.29577 0.13200
C 	C 	0.45929 0.18222 0.30087 -0.11500
C 	C 	0.48686 0.20258 0.32400 0.13100
C 	C 	0.48204 0.16282 0.34222 0.06800
Br	Br	0.57048 0.09543 0.33493 -0.11400
Br	Br	0.33258 0.94181 0.40668 -0.10900
Br	Br	0.38832 0.09379 0.26466 -0.13100
Br	Br	0.51497 0.19009 0.37461 -0.10700
Br	Br	0.56660 0.99520 0.37330 -0.16400
Br	Br	0.34086 0.04902 0.37154 -0.11200
Br	Br	0.38833 0.00084 0.30603 -0.11600
Br	Br	0.53454 0.28499 0.33016 -0.20500
C 	C 	0.50980 0.71268 0.37032 -0.11500
C 	C 	0.53295 0.67742 0.37829 0.13300
C 	C 	0.53853 0.64011 0.36153 0.06700
C 	C 	0.52414 0.64053 0.33653 0.02200
C 	C 	0.50902 0.68156 0.32802 0.06800
C 	C 	0.50002 0.71644 0.34496 0.13200
C 	C 	0.51799 0.59373 0.31991 0.02000
C 	C 	0.56832 0.59905 0.30749 0.07000
C 	C 	0.56303 0.55269 0.29309 0.13000
C 	C 	0.50698 0.50185 0.29047 -0.10600
C 	C 	0.45608 0.49805 0.30168 0.12300
C 	C 	0.46174 0.54342 0.31680 0.06900
Br	Br	0.49843 0.68814 0.29322 -0.10200
Br	Br	0.55782 0.68103 0.41207 -0.13700
Br	Br	0.63244 0.55866 0.27705 -0.11200
Br	Br	0.39277 0.53625 0.33378 -0.11600
Br	Br	0.47012 0.76599 0.33363 -0.19300
Br	Br	0.56300 0.58642 0.37294 -0.11100
Br	Br	0.64433 0.66978 0.31031 -0.10300
Br	Br	0.37871 0.42997 0.29666 -0.16000
C 	C 	0.68305 0.28118 0.53542 -0.10500
C 	C 	0.64145 0.25808 0.51598 0.12700
C 	C 	0.61652 0.19928 0.50941 0.06900
C 	C 	0.63161 0.16299 0.52280 0.02100
C 	C 	0.67143 0.18556 0.54285 0.07000
C 	C 	0.69821 0.24495 0.54879 0.12600
C 	C 	0.60704 0.10160 0.51524 0.01700
C 	C 	0.54982 0.05889 0.52324 0.07500
C 	C 	0.52284 0.00256 0.51319 0.11000
C 	C 	0.55412 0.98831 0.49591 -0.08600
C 	C 	0.61348 0.02951 0.48971 0.11900
C 	C 	0.63933 0.08658 0.49881 0.07200
Br	Br	0.68911 0.13496 0.56210 -0.10800
Br	Br	0.61917 0.30729 0.49821 -0.13600
Br	Br	0.44219 0.94565 0.52228 -0.13100
Br	Br	0.71818 0.14476 0.48822 -0.11200
Br	Br	0.75663 0.27696 0.57485 -0.16100
Br	Br	0.56255 0.16849 0.48176 -0.11400
Br	Br	0.50824 0.07804 0.54766 -0.11300
Br	Br	0.65993 0.00710 0.46945 -0.13800
C 	C 	0.96791 0.55285 0.50650 -0.10200
C 	C 	0.00646 0.60229 0.52045 0.12400
C 	C 	0.06667 0.63680 0.51352 0.07100
C 	C 	0.08839 0.62186 0.49263 0.02200
C 	C 	0.04914 0.57403 0.47799 0.06500
C 	C 	0.98897 0.53929 0.48501 0.13500
C 	C 	0.15315 0.65395 0.48701 0.02100
C 	C 	0.17690 0.70241 0.47114 0.07000
C 	C 	0.23793 0.73108 0.46492 0.12500
C 	C 	0.27515 0.71118 0.47451 -0.10800
C 	C 	0.25197 0.66457 0.49136 0.12700
C 	C 	0.19091 0.63559 0.49740 0.06800
Br	Br	0.07833 0.55556 0.44863 -0.11400
Br	Br	0.97670 0.62218 0.54925 -0.19000
Br	Br	0.27034 0.79698 0.44299 -0.15500
Br	Br	0.15860 0.57019 0.51967 -0.10300
Br	Br	0.93601 0.47182 0.46578 -0.12200
Br	Br	0.11990 0.70384 0.53291 -0.11000
Br	Br	0.12551 0.72890 0.45776 -0.10800
Br	Br	0.30430 0.64144 0.50664 -0.13300
C 	C 	0.49911 0.66277 0.48268 -0.10100
C 	C 	0.47446 0.60409 0.47557 0.13300
C 	C 	0.50473 0.57395 0.48122 0.07000
C 	C 	0.55427 0.59905 0.49722 0.02200
C 	C 	0.57523 0.65555 0.50646 0.07000
C 	C 	0.55001 0.68862 0.49803 0.12700
C 	C 	0.58430 0.56609 0.50433 0.02200
C 	C 	0.55853 0.52201 0.52228 0.07000
C 	C 	0.58580 0.48922 0.52818 0.13400
C 	C 	0.64352 0.50641 0.51918 -0.10200
C 	C 	0.67008 0.55160 0.50166 0.12700
C 	C 	0.63878 0.57892 0.49319 0.07000
Br	Br	0.63772 0.68709 0.53094 -0.10600
Br	Br	0.39663 0.56333 0.46032 -0.10900
Br	Br	0.54177 0.41783 0.54652 -0.11000
Br	Br	0.66993 0.63325 0.46615 -0.10400
Br	Br	0.58762 0.77016 0.50610 -0.16500
Br	Br	0.47975 0.49931 0.46637 -0.10500
Br	Br	0.48729 0.50820 0.53945 -0.10600
Br	Br	0.75071 0.57880 0.49053 -0.16900
C 	C 	0.17980 0.46098 0.69123 -0.11700
C 	C 	0.17072 0.50606 0.68262 0.12800
C 	C 	0.12370 0.49341 0.66626 0.06700
C 	C 	0.09155 0.43779 0.65553 0.02100
C 	C 	0.10599 0.39476 0.66167 0.06700
C 	C 	0.14727 0.40506 0.68065 0.12800
C 	C 	0.04117 0.42413 0.63862 0.01400
C 	C 	0.98204 0.39474 0.64753 0.07400
C 	C 	0.93580 0.39240 0.63307 0.12600
C 	C 	0.94958 0.42552 0.61130 -0.09500
C 	C 	0.00778 0.45076 0.60140 0.11900
C 	C 	0.05274 0.44717 0.61457 0.07300
Br	Br	0.06956 0.32213 0.64396 -0.10800
Br	Br	0.22567 0.58573 0.69155 -0.15500
Br	Br	0.85360 0.34241 0.64251 -0.12300
Br	Br	0.13072 0.47573 0.60023 -0.11000
Br	Br	0.15557 0.34163 0.69336 -0.13700
Br	Br	0.10148 0.55140 0.65944 -0.12100
Br	Br	0.96516 0.36186 0.68022 -0.10700
Br	Br	0.02725 0.49439 0.57106 -0.13300
C 	C 	0.51534 0.54785 0.71591 -0.10800
C 	C 	0.56568 0.60267 0.71119 0.12900
C 	C 	0.61193 0.60699 0.69606 0.06900
C 	C 	0.60715 0.55658 0.68532 0.01900
C 	C 	0.55880 0.50149 0.69148 0.06900
C 	C 	0.51349 0.49716 0.70714 0.12100
C 	C 	0.65099 0.56142 0.66657 0.02200
C 	C 	0.64118 0.56789 0.64152 0.06700
C 	C 	0.67461 0.55937 0.62328 0.13300
C 	C 	0.71555 0.54148 0.63003 -0.11400
C 	C 	0.72946 0.54063 0.65510 0.13000
C 	C 	0.69814 0.55214 0.67334 0.06800
Br	Br	0.55362 0.43220 0.67766 -0.11800
Br	Br	0.57114 0.67158 0.72549 -0.11000
Br	Br	0.66507 0.57286 0.58908 -0.13300
Br	Br	0.71781 0.55277 0.70766 -0.10200
Br	Br	0.44774 0.42180 0.71603 -0.16500
Br	Br	0.68127 0.68177 0.68965 -0.10300
Br	Br	0.57981 0.58537 0.63226 -0.11800
Br	Br	0.78825 0.51972 0.66452 -0.18600
