data_crystal

_cell_length_a 18.51620
_cell_length_b 18.71455
_cell_length_c 34.59863
_cell_angle_alpha 95.42528
_cell_angle_beta  95.42541
_cell_angle_gamma 126.44138

_symmetry_space_group_name_	'P 1'
_symmetry_space_group_name_H-M	'P 1'

loop_
_symmetry_equiv_pos_as_xyz
  x,y,z

loop_
_atom_site_label
_atom_site_type_symbol
_atom_site_fract_x
_atom_site_fract_y
_atom_site_fract_z
_atom_site_charge
C 	C 	0.90995 0.99360 0.96385 0.11600
N 	N 	0.86234 0.90256 0.96054 -0.13900
C 	C 	0.90682 0.86532 0.95817 0.12100
N 	N 	0.99861 0.91931 0.95979 -0.14500
C 	C 	0.04651 0.01046 0.96521 0.13300
N 	N 	0.00187 0.04718 0.96664 -0.13600
C 	C 	0.93852 0.03716 0.49999 0.12300
N 	N 	0.02814 0.08866 0.49674 -0.13800
C 	C 	0.07356 0.05232 0.49752 0.13000
N 	N 	0.02929 0.96478 0.50120 -0.13800
C 	C 	0.93986 0.91326 0.50404 0.12200
N 	N 	0.89469 0.94962 0.50379 -0.14200
Cu	Cu	0.76338 0.34001 0.95784 0.92900
Cu	Cu	0.76203 0.29186 0.04635 0.87300
Cu	Cu	0.62099 0.30293 0.00725 0.89900
Cu	Cu	0.58256 0.31036 0.92283 0.89900
C 	C 	0.69884 0.29500 0.87392 0.31600
O 	O 	0.80235 0.46446 0.95024 -0.35800
C 	C 	0.67818 0.34349 0.09423 0.30700
O 	O 	0.62140 0.25882 0.95459 -0.63800
O 	O 	0.75492 0.36578 0.01314 -0.64000
O 	O 	0.83316 0.29110 0.96743 -0.36400
O 	O 	0.73769 0.20011 0.00644 -0.43100
O 	O 	0.65460 0.32872 0.88033 -0.38300
O 	O 	0.48959 0.23355 0.00036 -0.37900
C 	C 	0.43400 0.22469 0.97004 0.30100
C 	C 	0.75677 0.49456 0.96087 0.28600
O 	O 	0.67109 0.43702 0.96476 -0.39600
O 	O 	0.45744 0.23935 0.93504 -0.38700
O 	O 	0.75003 0.29554 0.90335 -0.35100
C 	C 	0.79785 0.21937 0.98397 0.29900
O 	O 	0.62305 0.33468 0.06360 -0.36300
O 	O 	0.75421 0.35489 0.09022 -0.40900
H 	H 	0.58566 0.19230 0.94755 0.17900
H 	H 	0.79269 0.43063 0.02542 0.17700
Cu	Cu	0.59930 0.19588 0.50270 0.93000
Cu	Cu	0.65155 0.20255 0.41434 0.87700
Cu	Cu	0.66728 0.35450 0.46026 0.90000
Cu	Cu	0.63718 0.37536 0.54271 0.89700
C 	C 	0.63834 0.24611 0.58761 0.31100
O 	O 	0.47371 0.15962 0.50826 -0.34700
C 	C 	0.62085 0.30826 0.37240 0.31200
O 	O 	0.69144 0.33760 0.51222 -0.64200
O 	O 	0.58517 0.21946 0.44903 -0.64100
O 	O 	0.63838 0.11852 0.49048 -0.36500
O 	O 	0.73773 0.21191 0.45305 -0.43300
O 	O 	0.61399 0.29915 0.58374 -0.37100
O 	O 	0.75337 0.48422 0.47442 -0.38200
C 	C 	0.75395 0.53506 0.50383 0.30200
C 	C 	0.45017 0.21146 0.50049 0.29400
O 	O 	0.51309 0.29617 0.49846 -0.38900
O 	O 	0.70369 0.50044 0.53127 -0.38900
O 	O 	0.63369 0.19550 0.55663 -0.35600
C 	C 	0.71107 0.14920 0.47452 0.29700
O 	O 	0.66190 0.37156 0.40479 -0.38100
O 	O 	0.59769 0.22692 0.37315 -0.39700
H 	H 	0.75665 0.36704 0.52260 0.16900
H 	H 	0.52181 0.19256 0.43640 0.18300
C 	C 	0.64940 0.22704 0.62707 -0.09600
C 	C 	0.57775 0.19152 0.64852 0.14900
C 	C 	0.59506 0.19277 0.68888 -0.08500
C 	C 	0.68314 0.22826 0.70801 0.02100
C 	C 	0.75194 0.25389 0.68561 0.08800
C 	C 	0.73499 0.25383 0.64526 -0.01500
H 	H 	0.54099 0.16979 0.70576 0.08000
C 	C 	0.70545 0.25002 0.75163 0.02400
H 	H 	0.78941 0.27808 0.62850 0.05500
C 	C 	0.67780 0.18050 0.77311 -0.08600
C 	C 	0.68083 0.19589 0.81388 0.14400
C 	C 	0.71216 0.28167 0.83339 -0.09900
C 	C 	0.74634 0.35276 0.81242 -0.01100
C 	C 	0.74219 0.33720 0.77170 0.08400
H 	H 	0.65036 0.11355 0.75786 0.08200
H 	H 	0.77239 0.41941 0.82751 0.06300
Br	Br	0.87008 0.29220 0.70994 -0.21800
Br	Br	0.45581 0.14079 0.62313 -0.22600
Br	Br	0.63728 0.09778 0.84190 -0.24900
Br	Br	0.78127 0.43448 0.74353 -0.22200
C 	C 	0.61711 0.33408 0.33382 -0.10000
C 	C 	0.53525 0.28216 0.30564 0.14900
C 	C 	0.53746 0.29272 0.26613 -0.08300
C 	C 	0.62100 0.35389 0.25445 0.02100
C 	C 	0.70117 0.41230 0.28335 0.08400
C 	C 	0.69872 0.40258 0.32290 -0.01400
H 	H 	0.47505 0.24973 0.24415 0.08200
C 	C 	0.62665 0.34587 0.21215 0.02200
H 	H 	0.76149 0.44454 0.34471 0.06000
C 	C 	0.62970 0.40690 0.19036 -0.08400
C 	C 	0.64525 0.40625 0.15149 0.15200
C 	C 	0.65541 0.34231 0.13388 -0.10200
C 	C 	0.64901 0.27939 0.15528 -0.01300
C 	C 	0.63526 0.28115 0.19425 0.08300
H 	H 	0.62323 0.45687 0.20408 0.08300
H 	H 	0.65644 0.22992 0.14180 0.04600
Br	Br	0.81582 0.50128 0.26893 -0.22300
Br	Br	0.42012 0.19649 0.32054 -0.23800
Br	Br	0.65870 0.49701 0.12413 -0.23700
Br	Br	0.63195 0.19674 0.22311 -0.22800
C 	C 	0.90772 0.78930 0.53769 -0.07300
C 	C 	0.89033 0.81645 0.50391 -0.02900
C 	C 	0.83089 0.75116 0.46945 0.08400
C 	C 	0.78766 0.65945 0.47000 -0.02800
C 	C 	0.80493 0.63221 0.50380 -0.10100
C 	C 	0.86764 0.69791 0.53763 0.12400
N 	N 	0.89222 0.67422 0.56944 -0.20100
H 	H 	0.95484 0.83982 0.56372 0.05900
H 	H 	0.74014 0.60898 0.44402 0.05400
N 	N 	0.81608 0.77605 0.43564 -0.19400
H 	H 	0.93567 0.72271 0.59487 0.09300
H 	H 	0.87236 0.60885 0.56859 0.09100
H 	H 	0.85025 0.84386 0.43350 0.09400
H 	H 	0.77093 0.72705 0.41059 0.09300
C 	C 	0.84531 0.06100 0.45545 -0.07000
C 	C 	0.88577 0.07192 0.49403 -0.03100
C 	C 	0.86536 0.10458 0.52652 0.08600
C 	C 	0.80403 0.12508 0.51965 -0.02800
C 	C 	0.76365 0.11419 0.48100 -0.10100
C 	C 	0.78227 0.07917 0.44862 0.11800
N 	N 	0.73746 0.05978 0.41114 -0.19900
H 	H 	0.85978 0.03431 0.43069 0.05500
H 	H 	0.78977 0.15200 0.54441 0.05300
N 	N 	0.90523 0.11760 0.56424 -0.19500
H 	H 	0.75430 0.03749 0.38725 0.08800
H 	H 	0.68268 0.06229 0.40551 0.06400
H 	H 	0.95424 0.10706 0.57027 0.09800
H 	H 	0.88862 0.14030 0.58809 0.09700
C 	C 	0.23634 0.17218 0.52677 -0.06900
C 	C 	0.17048 0.10708 0.49413 -0.03000
C 	C 	0.19806 0.08259 0.46191 0.08900
C 	C 	0.28988 0.11696 0.46469 -0.02800
C 	C 	0.35480 0.17758 0.49847 -0.09600
C 	C 	0.32828 0.20685 0.52963 0.12800
N 	N 	0.38986 0.26581 0.56280 -0.19800
H 	H 	0.21514 0.19180 0.55117 0.06100
H 	H 	0.31090 0.09682 0.44039 0.04800
N 	N 	0.13687 0.02678 0.42817 -0.19400
H 	H 	0.36958 0.28730 0.58546 0.09800
H 	H 	0.45780 0.28979 0.56681 0.09100
H 	H 	0.06988 0.00584 0.42407 0.09900
H 	H 	0.15692 0.00644 0.40499 0.09800
C 	C 	0.82616 0.73129 0.99031 -0.07300
C 	C 	0.85705 0.76734 0.95650 -0.03200
C 	C 	0.85337 0.71291 0.92385 0.08500
C 	C 	0.82420 0.62535 0.92662 -0.03200
C 	C 	0.79557 0.59001 0.96082 -0.09900
C 	C 	0.79705 0.64367 0.99316 0.11900
N 	N 	0.77412 0.61306 0.02747 -0.20000
H 	H 	0.82930 0.77322 0.01533 0.05900
H 	H 	0.82127 0.58359 0.90158 0.05400
N 	N 	0.87586 0.74355 0.88953 -0.19500
H 	H 	0.77263 0.65193 0.05069 0.10200
H 	H 	0.76103 0.55235 0.03207 0.09600
H 	H 	0.89017 0.80501 0.88534 0.09600
H 	H 	0.87585 0.70420 0.86599 0.09500
C 	C 	0.81764 0.12087 0.94064 -0.02900
C 	C 	0.82823 0.16247 0.97884 -0.10000
C 	C 	0.85704 0.14045 0.01203 0.11700
C 	C 	0.87023 0.07400 0.00631 -0.07000
C 	C 	0.86404 0.03566 0.96820 -0.02700
C 	C 	0.83483 0.05718 0.93498 0.08700
N 	N 	0.82277 0.01668 0.89767 -0.19300
H 	H 	0.79427 0.13670 0.91525 0.06800
H 	H 	0.89300 0.05767 0.03171 0.05700
N 	N 	0.87656 0.18597 0.04923 -0.19800
H 	H 	0.80347 0.03452 0.87322 0.10300
H 	H 	0.82987 0.96543 0.89260 0.09500
H 	H 	0.88076 0.24434 0.05410 0.05500
H 	H 	0.89329 0.16629 0.07369 0.08600
C 	C 	0.29550 0.10863 0.99483 -0.02900
C 	C 	0.33710 0.17826 0.97288 -0.09800
C 	C 	0.28398 0.19850 0.95174 0.12400
C 	C 	0.18870 0.14065 0.94832 -0.07200
C 	C 	0.14688 0.06983 0.96957 -0.03100
C 	C 	0.20170 0.05782 0.99521 0.08600
N 	N 	0.16579 0.00119 0.02149 -0.18800
H 	H 	0.33638 0.09478 0.01214 0.05600
H 	H 	0.14721 0.15233 0.92992 0.06200
N 	N 	0.32419 0.27531 0.93640 -0.20000
H 	H 	0.20528 0.98803 0.03826 0.08900
H 	H 	0.10150 0.97574 0.02789 0.09600
H 	H 	0.39442 0.32711 0.94422 0.09300
H 	H 	0.28434 0.28690 0.91879 0.09300
