data_crystal

_cell_length_a 18.73495
_cell_length_b 18.94122
_cell_length_c 40.24706
_cell_angle_alpha 95.42863
_cell_angle_beta  95.42862
_cell_angle_gamma 126.43964

_symmetry_space_group_name_	'P 1'
_symmetry_space_group_name_H-M	'P 1'

loop_
_symmetry_equiv_pos_as_xyz
  x,y,z

loop_
_atom_site_label
_atom_site_type_symbol
_atom_site_fract_x
_atom_site_fract_y
_atom_site_fract_z
_atom_site_charge
C 	C 	0.93179 0.01439 0.97773 0.02400
C 	C 	0.88232 0.92132 0.97577 -0.04800
C 	C 	0.92822 0.88362 0.97847 0.02900
C 	C 	0.02235 0.93841 0.98237 -0.04800
C 	C 	0.07098 0.03006 0.98316 0.02500
C 	C 	0.02618 0.06833 0.98173 -0.05400
H 	H 	0.80925 0.87892 0.97221 0.05900
H 	H 	0.05759 0.90923 0.98385 0.05900
H 	H 	0.06448 0.13974 0.98281 0.05900
C 	C 	0.92911 0.02718 0.49742 0.02200
C 	C 	0.02115 0.07337 0.49613 -0.05300
C 	C 	0.05782 0.02682 0.49409 0.02500
C 	C 	0.00239 0.93451 0.49285 -0.04700
C 	C 	0.91133 0.88890 0.49488 0.02900
C 	C 	0.87489 0.93530 0.49753 -0.04900
H 	H 	0.06356 0.14463 0.49636 0.05800
H 	H 	0.03054 0.89844 0.49092 0.05900
H 	H 	0.80395 0.89960 0.49871 0.06000
Cu	Cu	0.76633 0.34875 0.96154 0.92700
Cu	Cu	0.81179 0.32133 0.04117 0.88600
Cu	Cu	0.62952 0.28718 0.00857 0.90400
Cu	Cu	0.59725 0.34791 0.94460 0.90100
C 	C 	0.68630 0.32178 0.89142 0.28900
O 	O 	0.82398 0.48104 0.96252 -0.34700
C 	C 	0.69501 0.32260 0.08181 0.29200
O 	O 	0.62815 0.27862 0.96095 -0.64300
O 	O 	0.76388 0.36337 0.01111 -0.63600
O 	O 	0.80941 0.27329 0.95768 -0.35000
O 	O 	0.88296 0.31538 0.01248 -0.40500
O 	O 	0.64665 0.35688 0.90185 -0.37200
O 	O 	0.49991 0.21580 0.00207 -0.37100
C 	C 	0.45186 0.23143 0.98250 0.29100
C 	C 	0.78519 0.51574 0.97386 0.28200
O 	O 	0.70490 0.46373 0.98152 -0.37700
O 	O 	0.49080 0.30137 0.96733 -0.38100
O 	O 	0.74411 0.32084 0.91278 -0.35200
C 	C 	0.84513 0.25892 0.98345 0.27900
O 	O 	0.62809 0.26847 0.05578 -0.38500
O 	O 	0.77936 0.36120 0.07850 -0.40200
H 	H 	0.58958 0.21605 0.94845 0.16500
H 	H 	0.79118 0.42589 0.02115 0.17500
Cu	Cu	0.59882 0.19630 0.50474 0.92900
Cu	Cu	0.66378 0.19891 0.43178 0.88100
Cu	Cu	0.64161 0.33269 0.45924 0.90000
Cu	Cu	0.60041 0.36042 0.52735 0.90000
C 	C 	0.63151 0.26697 0.57591 0.30900
O 	O 	0.46723 0.14103 0.50602 -0.35200
C 	C 	0.61166 0.27025 0.38492 0.30700
O 	O 	0.67010 0.33444 0.50653 -0.63900
O 	O 	0.58110 0.20209 0.45593 -0.63800
O 	O 	0.65760 0.13631 0.50210 -0.35900
O 	O 	0.75160 0.23001 0.46953 -0.43000
O 	O 	0.59141 0.30292 0.56749 -0.37300
O 	O 	0.70838 0.46070 0.46564 -0.37200
C 	C 	0.70425 0.50939 0.48998 0.29600
C 	C 	0.43086 0.17815 0.49486 0.28700
O 	O 	0.48286 0.25987 0.48926 -0.38400
O 	O 	0.64495 0.47245 0.51022 -0.38100
O 	O 	0.63423 0.21414 0.55300 -0.35100
C 	C 	0.73166 0.17226 0.48941 0.29500
O 	O 	0.62978 0.33290 0.40976 -0.37000
O 	O 	0.60349 0.19907 0.39111 -0.40600
H 	H 	0.73547 0.37443 0.51642 0.17300
H 	H 	0.51772 0.16339 0.44355 0.18500
C 	C 	0.68236 0.30280 0.85450 -0.07300
C 	C 	0.75589 0.31405 0.84238 0.01900
C 	C 	0.75452 0.30211 0.80742 -0.05900
C 	C 	0.67977 0.27883 0.78422 0.02900
C 	C 	0.60540 0.26541 0.79625 -0.05900
C 	C 	0.60658 0.27714 0.83119 0.01600
C 	C 	0.68098 0.27250 0.74743 0.00700
C 	C 	0.74539 0.34829 0.73479 -0.03500
C 	C 	0.74163 0.34448 0.69973 -0.02800
C 	C 	0.67355 0.26498 0.67707 0.00100
C 	C 	0.61110 0.18838 0.68967 -0.02700
C 	C 	0.61484 0.19204 0.72473 -0.03600
C 	C 	0.66165 0.26471 0.64112 0.05400
C 	C 	0.64942 0.26531 0.61121 -0.08500
H 	H 	0.81491 0.33391 0.85998 0.05300
H 	H 	0.81202 0.31209 0.79839 0.05600
H 	H 	0.54733 0.24735 0.77853 0.05400
H 	H 	0.54891 0.26703 0.84012 0.03700
H 	H 	0.79678 0.41068 0.75208 0.04900
H 	H 	0.79006 0.40402 0.69020 0.04900
H 	H 	0.55825 0.12667 0.67231 0.05100
H 	H 	0.56534 0.13294 0.73423 0.04700
C 	C 	0.67435 0.32735 0.11629 -0.08000
C 	C 	0.74432 0.38721 0.14419 0.01600
C 	C 	0.72621 0.38495 0.17716 -0.06100
C 	C 	0.63784 0.32375 0.18263 0.02900
C 	C 	0.56715 0.26736 0.15469 -0.05900
C 	C 	0.58525 0.26874 0.12174 0.01700
C 	C 	0.62064 0.31332 0.21763 0.00600
C 	C 	0.58277 0.23048 0.22750 -0.03700
C 	C 	0.57332 0.22211 0.26125 -0.02900
C 	C 	0.60204 0.29645 0.28546 -0.00200
C 	C 	0.63749 0.37868 0.27553 -0.02800
C 	C 	0.64649 0.38708 0.24169 -0.03600
C 	C 	0.60335 0.29013 0.32091 0.05200
C 	C 	0.60605 0.28242 0.35034 -0.09500
H 	H 	0.81303 0.43423 0.14045 0.04200
H 	H 	0.78127 0.42906 0.19853 0.05200
H 	H 	0.49849 0.22077 0.15859 0.05500
H 	H 	0.53029 0.22262 0.10060 0.05000
H 	H 	0.56284 0.17319 0.20923 0.04500
H 	H 	0.54599 0.15837 0.26874 0.04600
H 	H 	0.65985 0.43649 0.29411 0.05000
H 	H 	0.67498 0.45112 0.23430 0.04800
C 	C 	0.85386 0.79169 0.49419 0.01500
C 	C 	0.86228 0.75902 0.52318 -0.03800
C 	C 	0.81562 0.66661 0.52140 0.02000
C 	C 	0.75669 0.60636 0.49113 -0.07800
C 	C 	0.74513 0.63890 0.46255 0.02300
C 	C 	0.79505 0.73160 0.46390 -0.03900
C 	C 	0.91884 0.82068 0.55487 0.09800
C 	C 	0.68042 0.57701 0.43208 0.08900
C 	C 	0.78687 0.76533 0.43401 0.09800
C 	C 	0.82974 0.63353 0.55045 0.07300
N 	N 	0.78036 0.79226 0.41018 -0.10400
N 	N 	0.84096 0.60709 0.57360 -0.11500
N 	N 	0.62883 0.52765 0.40778 -0.10100
N 	N 	0.96396 0.86992 0.58013 -0.10300
C 	C 	0.88692 0.07287 0.49533 0.01600
C 	C 	0.84326 0.06703 0.46354 -0.04100
C 	C 	0.78815 0.09472 0.46182 0.02300
C 	C 	0.78210 0.13491 0.49174 -0.08700
C 	C 	0.82874 0.14407 0.52350 0.02400
C 	C 	0.88072 0.11255 0.52529 -0.04100
C 	C 	0.85500 0.03220 0.43257 0.09700
C 	C 	0.82383 0.18647 0.55422 0.08400
C 	C 	0.92757 0.12061 0.55792 0.09700
C 	C 	0.73495 0.07875 0.42943 0.04700
N 	N 	0.96501 0.12698 0.58394 -0.10700
N 	N 	0.69253 0.06591 0.40357 -0.13800
N 	N 	0.81988 0.22029 0.57873 -0.10200
N 	N 	0.86450 0.00450 0.40789 -0.10500
C 	C 	0.15558 0.07489 0.49470 0.01400
C 	C 	0.18816 0.08610 0.46394 -0.03900
C 	C 	0.27714 0.11552 0.46372 0.01900
C 	C 	0.33406 0.13476 0.49434 -0.08000
C 	C 	0.30138 0.12387 0.52514 0.01800
C 	C 	0.21314 0.09632 0.52540 -0.03900
C 	C 	0.12973 0.06656 0.43251 0.09600
C 	C 	0.35841 0.14083 0.55657 0.08300
C 	C 	0.18117 0.08961 0.55727 0.09700
C 	C 	0.30976 0.12459 0.43193 0.07600
N 	N 	0.15556 0.08425 0.58266 -0.10400
N 	N 	0.33587 0.13186 0.40658 -0.11100
N 	N 	0.40352 0.15406 0.58171 -0.10000
N 	N 	0.08299 0.05093 0.40746 -0.10600
C 	C 	0.82777 0.61185 0.97526 -0.07800
C 	C 	0.84500 0.66563 0.00631 0.01900
C 	C 	0.86829 0.75168 0.00682 -0.03700
C 	C 	0.87833 0.78596 0.97654 0.01300
C 	C 	0.85939 0.73166 0.94542 -0.03800
C 	C 	0.83586 0.64546 0.94482 0.01600
C 	C 	0.84022 0.63289 0.03781 0.07800
C 	C 	0.86524 0.76510 0.91403 0.09700
C 	C 	0.81960 0.59130 0.91286 0.08300
C 	C 	0.88347 0.80572 0.03861 0.09900
N 	N 	0.80678 0.54829 0.88734 -0.10200
N 	N 	0.89564 0.84893 0.06396 -0.10400
N 	N 	0.86995 0.79189 0.88902 -0.10300
N 	N 	0.83638 0.60670 0.06293 -0.11300
C 	C 	0.88537 0.05637 0.97472 0.01300
C 	C 	0.85014 0.06839 0.00233 -0.03500
C 	C 	0.82987 0.12943 0.00365 0.01700
C 	C 	0.85114 0.18352 0.97868 -0.08400
C 	C 	0.88004 0.16651 0.94978 0.02100
C 	C 	0.89243 0.09965 0.94713 -0.04000
C 	C 	0.83729 0.02007 0.02984 0.08500
C 	C 	0.90079 0.21994 0.92353 0.09100
C 	C 	0.91453 0.07670 0.91636 0.09500
C 	C 	0.78505 0.13484 0.03015 0.04000
N 	N 	0.93222 0.05832 0.89184 -0.10700
N 	N 	0.74921 0.13903 0.05129 -0.14400
N 	N 	0.91735 0.26252 0.90256 -0.10400
N 	N 	0.82707 0.98149 0.05180 -0.09800
C 	C 	0.35463 0.18033 0.98279 -0.07900
C 	C 	0.29140 0.12886 0.95227 0.01700
C 	C 	0.19862 0.08279 0.95217 -0.03500
C 	C 	0.16868 0.08507 0.98284 0.01200
C 	C 	0.23182 0.13684 0.01333 -0.03900
C 	C 	0.32491 0.18596 0.01320 0.02200
C 	C 	0.32190 0.12248 0.92108 0.07000
C 	C 	0.20083 0.13903 0.04484 0.09500
C 	C 	0.39015 0.24463 0.04401 0.08400
C 	C 	0.13376 0.03333 0.92052 0.08800
N 	N 	0.44217 0.29155 0.06857 -0.10900
N 	N 	0.08195 0.99387 0.89530 -0.09400
N 	N 	0.17599 0.14071 0.06995 -0.10900
N 	N 	0.34629 0.11744 0.89622 -0.11900
