data_crystal

_cell_length_a 19.50702
_cell_length_b 18.26620
_cell_length_c 26.41373
_cell_angle_alpha 95.42119
_cell_angle_beta  95.42260
_cell_angle_gamma 126.41152

_symmetry_space_group_name_	'P 1'
_symmetry_space_group_name_H-M	'P 1'

loop_
_symmetry_equiv_pos_as_xyz
  x,y,z

loop_
_atom_site_label
_atom_site_type_symbol
_atom_site_fract_x
_atom_site_fract_y
_atom_site_fract_z
_atom_site_charge
C 	C 	0.95641 0.06152 0.96400 0.06100
C 	C 	0.04741 0.11876 0.97304 -0.10300
C 	C 	0.09133 0.08040 0.97937 0.05400
H 	H 	0.08388 0.19286 0.97519 0.05900
C 	C 	0.99693 0.03289 0.47315 -0.04400
H 	H 	0.03251 0.10576 0.47145 0.04200
Cu	Cu	0.73891 0.35502 0.95047 0.92900
Cu	Cu	0.78282 0.31122 0.06213 0.91300
Cu	Cu	0.62401 0.32693 0.02996 0.91500
C 	C 	0.65787 0.33331 0.84625 0.30900
C 	C 	0.66666 0.29451 0.12609 0.30900
O 	O 	0.61066 0.30113 0.95614 -0.63500
O 	O 	0.77350 0.27048 0.94244 -0.34400
O 	O 	0.86384 0.33373 0.02058 -0.39300
O 	O 	0.50335 0.27307 0.02833 -0.36600
C 	C 	0.45897 0.28482 0.99367 0.29900
O 	O 	0.49883 0.35378 0.96824 -0.38400
O 	O 	0.70810 0.32178 0.87611 -0.32800
C 	C 	0.83487 0.28018 0.97515 0.29100
O 	O 	0.63975 0.33714 0.10451 -0.34600
O 	O 	0.68558 0.24859 0.09725 -0.38500
H 	H 	0.56468 0.23534 0.94008 0.19600
Cu	Cu	0.70038 0.27520 0.44436 0.93200
Cu	Cu	0.69836 0.19788 0.55235 0.88300
Cu	Cu	0.57124 0.22979 0.51638 0.90300
Cu	Cu	0.54792 0.28777 0.41776 0.90900
C 	C 	0.63546 0.26091 0.33777 0.30700
C 	C 	0.63967 0.26048 0.62741 0.30400
O 	O 	0.56769 0.20813 0.44352 -0.63700
O 	O 	0.69700 0.28739 0.51946 -0.63600
O 	O 	0.75620 0.21193 0.44216 -0.35800
O 	O 	0.66832 0.11333 0.49195 -0.42800
O 	O 	0.44767 0.16706 0.50805 -0.37400
C 	C 	0.40377 0.18380 0.47645 0.30300
O 	O 	0.44171 0.24607 0.44654 -0.37500
O 	O 	0.68027 0.24608 0.37024 -0.34300
C 	C 	0.72558 0.13713 0.46209 0.30400
O 	O 	0.57187 0.22935 0.59120 -0.36700
O 	O 	0.70261 0.25710 0.61717 -0.36400
H 	H 	0.52622 0.14234 0.42615 0.19700
C 	C 	0.57328 0.21473 0.70519 0.04800
C 	C 	0.63769 0.28408 0.68184 -0.00400
C 	C 	0.65040 0.31453 0.78986 -0.00300
C 	C 	0.57845 0.22945 0.75917 -0.10000
C 	C 	0.50795 0.15436 0.78404 0.77800
H 	H 	0.52078 0.14835 0.68141 0.07200
F 	F 	0.44325 0.07647 0.74777 -0.45200
F 	F 	0.47047 0.18763 0.80988 -0.47900
F 	F 	0.54353 0.12829 0.81895 -0.45600
C 	C 	0.72640 0.32245 0.27107 0.04900
C 	C 	0.64484 0.25766 0.28315 -0.00200
C 	C 	0.57115 0.20032 0.24301 -0.10100
C 	C 	0.57907 0.21625 0.19208 0.05600
C 	C 	0.66008 0.28349 0.18028 -0.00700
H 	H 	0.52226 0.17607 0.16142 0.07400
C 	C 	0.48344 0.12466 0.25463 0.77900
F 	F 	0.44689 0.16360 0.27520 -0.46400
F 	F 	0.49235 0.07781 0.28968 -0.45800
F 	F 	0.42750 0.06056 0.21026 -0.44700
C 	C 	0.80381 0.09004 0.51145 -0.00600
C 	C 	0.77244 0.09668 0.46339 -0.12000
C 	C 	0.78510 0.06365 0.41733 0.11900
C 	C 	0.83034 0.02592 0.42032 -0.09300
C 	C 	0.86108 0.01886 0.46842 0.00600
C 	C 	0.84792 0.05128 0.51434 0.02800
C 	C 	0.88051 0.04432 0.56643 -0.17200
H 	H 	0.79423 0.11561 0.54674 0.01200
C 	C 	0.75111 0.06882 0.36513 -0.22200
H 	H 	0.86702 0.07493 0.59868 0.06900
H 	H 	0.95175 0.08192 0.57215 0.07300
H 	H 	0.78967 0.14202 0.35995 0.10800
C 	C 	0.25120 0.08981 0.43078 -0.01500
C 	C 	0.31138 0.13756 0.47743 -0.10000
C 	C 	0.28332 0.14511 0.52380 0.11100
C 	C 	0.19456 0.09990 0.52303 -0.08900
C 	C 	0.13431 0.05032 0.47652 0.00300
C 	C 	0.16297 0.04714 0.42982 0.04200
H 	H 	0.27314 0.08556 0.39515 0.05700
H 	H 	0.17217 0.10221 0.55877 0.05900
C 	C 	0.34714 0.19985 0.57417 -0.21500
H 	H 	0.31716 0.21193 0.60436 0.08700
C 	C 	0.89227 0.21098 0.92587 -0.01400
C 	C 	0.85219 0.21188 0.96701 -0.09200
C 	C 	0.83244 0.15008 0.00165 0.09400
C 	C 	0.86476 0.09899 0.99925 -0.07000
C 	C 	0.91046 0.10312 0.96036 -0.01600
C 	C 	0.91878 0.15431 0.92118 0.04500
C 	C 	0.95809 0.15112 0.87532 -0.17300
H 	H 	0.90414 0.25541 0.89800 0.05500
C 	C 	0.77880 0.13975 0.04190 -0.20400
H 	H 	0.93569 0.16920 0.84185 0.07800
H 	H 	0.93869 0.08052 0.86262 0.07600
H 	H 	0.02985 0.20131 0.88569 0.06600
H 	H 	0.72419 0.13972 0.02555 0.05200
H 	H 	0.82023 0.19728 0.07568 0.06600
C 	C 	0.33130 0.22977 0.03497 -0.01400
C 	C 	0.36484 0.23136 0.99006 -0.09800
C 	C 	0.30831 0.18476 0.94151 0.10300
C 	C 	0.21955 0.14084 0.93841 -0.07900
C 	C 	0.18589 0.13838 0.98328 -0.01400
C 	C 	0.24195 0.18327 0.03197 0.04500
H 	H 	0.37486 0.26542 0.07217 0.05800
H 	H 	0.17601 0.10593 0.90116 0.05700
C 	C 	0.34225 0.18149 0.89295 -0.21400
H 	H 	0.38742 0.16376 0.89979 0.10500
H 	H 	0.28885 0.12813 0.86059 0.10300
C 	C 	0.73485 0.33665 0.21988 -0.10400
H 	H 	0.37016 0.16139 0.58857 0.10600
H 	H 	0.85594 0.05748 0.02838 0.05400
H 	H 	0.75009 0.07324 0.05562 0.08500
C 	C 	0.20658 0.18056 0.08071 -0.18400
H 	H 	0.25915 0.22199 0.11541 0.08300
H 	H 	0.17000 0.20929 0.07758 0.07500
H 	H 	0.68187 0.03995 0.36189 0.10500
H 	H 	0.40342 0.26877 0.56876 0.09400
O 	O 	0.59905 0.29871 0.35422 -0.34600
H 	H 	0.84111 0.00140 0.38518 0.06100
H 	H 	0.75536 0.02846 0.33310 0.09000
H 	H 	0.13283 0.00894 0.34564 0.08600
H 	H 	0.05771 0.01824 0.37394 0.07600
H 	H 	0.16265 0.10796 0.08668 0.07800
H 	H 	0.37661 0.24975 0.88076 0.09400
F 	F 	0.84651 0.36536 0.17564 -0.49500
Cu	Cu	0.59503 0.38468 0.93168 0.90500
O 	O 	0.74674 0.37606 0.02715 -0.61900
O 	O 	0.63379 0.38303 0.86471 -0.36200
H 	H 	0.73630 0.35140 0.53968 0.21200
C 	C 	0.70530 0.37195 0.71217 -0.10100
C 	C 	0.71325 0.38469 0.76628 0.05500
H 	H 	0.78263 0.36450 0.30204 0.07100
O 	O 	0.65147 0.40372 0.47641 -0.37900
C 	C 	0.82335 0.40868 0.20758 0.77700
O 	O 	0.76156 0.41261 0.44741 -0.35700
F 	F 	0.83186 0.43991 0.67545 -0.45300
C 	C 	0.04092 0.99420 0.47776 0.00400
C 	C 	0.09929 0.99569 0.37920 -0.18800
C 	C 	0.90683 0.97721 0.47046 0.01800
H 	H 	0.84822 0.97049 0.56871 0.06700
C 	C 	0.04480 0.98547 0.97855 -0.10300
C 	C 	0.95427 0.92818 0.97071 0.06000
C 	C 	0.90976 0.96582 0.96272 -0.09600
H 	H 	0.07907 0.95606 0.98376 0.06600
H 	H 	0.83949 0.92130 0.95636 0.06100
C 	C 	0.86078 0.88255 0.47169 -0.06900
C 	C 	0.90508 0.84428 0.47704 0.02700
C 	C 	0.99514 0.90047 0.48070 -0.04900
H 	H 	0.79097 0.83906 0.46881 0.05300
H 	H 	0.02921 0.87057 0.48408 0.04900
O 	O 	0.80892 0.49353 0.95091 -0.35500
C 	C 	0.78416 0.54153 0.97047 0.29200
O 	O 	0.70921 0.49877 0.98538 -0.38400
H 	H 	0.78716 0.44269 0.04288 0.18600
C 	C 	0.73005 0.45365 0.46638 0.29900
H 	H 	0.76815 0.44955 0.79021 0.06500
C 	C 	0.77078 0.45126 0.68725 0.78000
F 	F 	0.72997 0.45378 0.64237 -0.47100
F 	F 	0.81304 0.53576 0.72015 -0.45800
F 	F 	0.88689 0.45848 0.25184 -0.45000
F 	F 	0.82069 0.47061 0.18279 -0.46900
C 	C 	0.79369 0.60952 0.51601 -0.01800
C 	C 	0.77734 0.55404 0.46910 -0.09900
C 	C 	0.80001 0.59367 0.42420 0.10900
C 	C 	0.83983 0.68833 0.42738 -0.08300
C 	C 	0.85662 0.74373 0.47430 -0.00500
C 	C 	0.83341 0.70430 0.51902 0.04800
C 	C 	0.85119 0.76303 0.56990 -0.18700
H 	H 	0.77533 0.57879 0.55019 0.07500
H 	H 	0.85838 0.71928 0.39328 0.06200
C 	C 	0.78012 0.53523 0.37265 -0.22000
H 	H 	0.82949 0.72193 0.60123 0.09500
H 	H 	0.81620 0.79344 0.56593 0.07400
H 	H 	0.92187 0.81971 0.58176 0.08300
H 	H 	0.70969 0.47759 0.36219 0.09300
H 	H 	0.81738 0.50722 0.37438 0.11100
H 	H 	0.79783 0.57597 0.34109 0.10000
H 	H 	0.05777 0.92005 0.37890 0.07900
C 	C 	0.88714 0.76944 0.92444 -0.08100
C 	C 	0.90644 0.82832 0.97045 -0.01400
C 	C 	0.89079 0.79416 0.01712 0.04400
C 	C 	0.85614 0.70131 0.01701 -0.01700
C 	C 	0.83573 0.64183 0.97088 -0.10100
C 	C 	0.85223 0.67649 0.92418 0.10700
C 	C 	0.83089 0.61447 0.87384 -0.22100
H 	H 	0.90061 0.79651 0.88888 0.06200
H 	H 	0.84321 0.67463 0.05272 0.05300
C 	C 	0.91224 0.85687 0.06719 -0.18300
H 	H 	0.84837 0.65259 0.84114 0.10700
H 	H 	0.76029 0.55721 0.86428 0.09500
H 	H 	0.86752 0.58582 0.87682 0.10900
H 	H 	0.88001 0.89019 0.06271 0.07300
H 	H 	0.98351 0.91131 0.07802 0.07900
H 	H 	0.88994 0.81809 0.09943 0.08000
