data_crystal

_cell_length_a 24.01104
_cell_length_b 19.42875
_cell_length_c 50.03128
_cell_angle_alpha 90.56524
_cell_angle_beta  91.26147
_cell_angle_gamma 110.63451

_symmetry_space_group_name_	'P 1'
_symmetry_space_group_name_H-M	'P 1'

loop_
_symmetry_equiv_pos_as_xyz
  x,y,z

loop_
_atom_site_label
_atom_site_type_symbol
_atom_site_fract_x
_atom_site_fract_y
_atom_site_fract_z
_atom_site_charge
C 	C 	0.02124 0.38398 0.42081 0.79700
C 	C 	0.02927 0.80897 0.58992 0.05800
H 	H 	0.04285 0.66029 0.62101 0.06700
C 	C 	0.04997 0.07674 0.82199 0.03300
O 	O 	0.05155 0.05029 0.67953 -0.34600
C 	C 	0.05756 0.14713 0.83141 -0.04800
C 	C 	0.04208 0.87611 0.60288 -0.04100
Ni	Ni	0.06109 0.95171 0.75259 1.10200
O 	O 	0.06174 0.91542 0.71413 -0.69700
O 	O 	0.06857 0.99186 0.79115 -0.34300
H 	H 	0.00075 0.72407 0.15526 0.08500
C 	C 	0.04452 0.49012 0.45491 0.10700
F 	F 	0.02999 0.36020 0.52585 -0.41000
C 	C 	0.05464 0.76833 0.60564 0.08500
H 	H 	0.06988 0.07230 0.73232 0.16200
C 	C 	0.07652 0.06129 0.79743 0.25100
C 	C 	0.01431 0.16414 0.27779 0.25700
C 	C 	0.04366 0.41195 0.50590 0.79800
H 	H 	0.07837 0.19701 0.82039 0.07500
C 	C 	0.06911 0.91253 0.65051 0.24600
Ni	Ni	0.00480 0.09782 0.22203 1.06900
N 	N 	0.03498 0.28858 0.29691 -0.14200
F 	F 	0.05143 0.35617 0.40287 -0.41900
H 	H 	0.08123 0.87833 0.71286 0.16200
C 	C 	0.06065 0.45884 0.43194 -0.10800
H 	H 	0.06746 0.58405 0.48155 0.11900
C 	C 	0.07408 0.87341 0.62608 0.02800
F 	F 	0.03708 0.56730 0.94712 -0.38200
H 	H 	0.05324 0.43617 0.29958 0.07600
N 	N 	0.08248 0.80831 0.62731 -0.15000
H 	H 	0.09007 0.78519 0.64520 0.08500
F 	F 	0.04831 0.77641 0.97772 -0.39500
O 	O 	0.01069 0.99758 0.22989 -0.38800
C 	C 	0.01485 0.88569 0.21065 0.03900
C 	C 	0.05224 0.23060 0.29224 0.01700
C 	C 	0.03634 0.81292 0.36911 0.05100
C 	C 	0.03721 0.93800 0.37238 -0.05400
F 	F 	0.01106 0.53308 0.07520 -0.43800
O 	O 	0.09894 0.04680 0.73364 -0.70700
O 	O 	0.03865 0.13115 0.26081 -0.40100
C 	C 	0.08072 0.56042 0.46420 0.03000
F 	F 	0.07466 0.38953 0.48675 -0.38400
F 	F 	0.01836 0.44566 0.04680 -0.42500
O 	O 	0.11475 0.11740 0.78463 -0.38200
C 	C 	0.04047 0.76436 0.16426 -0.09100
C 	C 	0.03801 0.80122 0.18821 0.04700
F 	F 	0.07981 0.47882 0.51683 -0.41500
C 	C 	0.05334 0.65773 0.00595 0.07300
Ni	Ni	0.11185 0.00913 0.69704 1.09900
C 	C 	0.02601 0.31537 0.09780 0.13900
C 	C 	0.04658 0.20185 0.09597 -0.05700
C 	C 	0.05131 0.60284 0.02434 0.03500
C 	C 	0.02900 0.69122 0.60600 -0.05000
C 	C 	0.08459 0.34508 0.30418 0.10100
C 	C 	0.06620 0.88708 0.37530 0.09200
H 	H 	0.06222 0.99659 0.37298 0.08100
O 	O 	0.11723 0.96349 0.66093 -0.34600
C 	C 	0.09143 0.41876 0.29999 -0.07700
C 	C 	0.05915 0.27493 0.08837 0.02800
H 	H 	0.07041 0.73468 0.34962 0.07100
O 	O 	0.13410 0.92184 0.75867 -0.36500
H 	H 	0.07858 0.17478 0.09324 0.07700
C 	C 	0.07898 0.78470 0.36136 -0.03800
H 	H 	0.04304 0.42999 0.10137 0.16100
H 	H 	0.08148 0.68031 0.13145 0.12600
C 	C 	0.11185 0.50023 0.41823 0.08000
H 	H 	0.09427 0.70433 0.00394 0.11800
N 	N 	0.05954 0.38718 0.09933 -0.15500
N 	N 	0.07451 0.90404 0.21362 -0.15400
C 	C 	0.13317 0.60042 0.45105 -0.05800
H 	H 	0.12320 0.47853 0.39993 0.08200
C 	C 	0.09583 0.78125 0.15231 0.10300
C 	C 	0.08899 0.85326 0.19978 0.07000
C 	C 	0.11325 0.24965 0.29652 -0.03900
F 	F 	0.15074 0.69551 0.48480 -0.39700
C 	C 	0.10758 0.59651 0.03385 0.29500
N 	N 	0.11057 0.73260 0.13740 -0.15100
H 	H 	0.13809 0.56332 0.31773 0.06700
Ni	Ni	0.16831 0.10847 0.75476 1.07600
C 	C 	0.13351 0.32277 0.30450 0.02700
C 	C 	0.14821 0.57013 0.42770 0.00600
N 	N 	0.12511 0.90473 0.37194 -0.14500
O 	O 	0.12080 0.60257 0.05984 -0.30900
C 	C 	0.11547 0.32472 0.08385 -0.04500
H 	H 	0.10401 0.95747 0.21780 0.09300
C 	C 	0.14927 0.46982 0.29730 0.01800
O 	O 	0.17856 0.10534 0.68757 -0.35900
C 	C 	0.18637 0.96931 0.76583 0.27200
H 	H 	0.14028 0.22231 0.28716 0.05600
C 	C 	0.13284 0.84314 0.36285 0.02400
O 	O 	0.19098 0.03319 0.77621 -0.37200
C 	C 	0.11357 0.39390 0.08996 0.03900
C 	C 	0.17268 0.67562 0.46176 0.77700
H 	H 	0.14794 0.31411 0.07136 0.07700
C 	C 	0.16780 0.54006 0.30825 -0.03900
F 	F 	0.17665 0.72820 0.44273 -0.42900
H 	H 	0.15548 0.95810 0.36967 0.10800
O 	O 	0.13859 0.46486 0.05044 -0.31800
O 	O 	0.14344 0.58458 0.01606 -0.30200
C 	C 	0.14463 0.86905 0.18799 -0.07400
C 	C 	0.14666 0.83377 0.16364 0.01500
C 	C 	0.14958 0.46000 0.07602 0.27600
C 	C 	0.17039 0.75274 0.13959 0.02000
C 	C 	0.19096 0.37282 0.30060 -0.07900
O 	O 	0.19197 0.64611 0.39052 -0.34100
O 	O 	0.17764 0.65567 0.11172 -0.34400
O 	O 	0.19259 0.76848 0.35708 -0.35200
C 	C 	0.20034 0.61227 0.41230 0.30800
C 	C 	0.19851 0.44756 0.29841 0.08800
H 	H 	0.22762 0.89288 0.80260 0.12100
O 	O 	0.23072 0.10756 0.72650 -0.40600
C 	C 	0.22895 0.12863 0.70161 0.24900
C 	C 	0.19113 0.83413 0.36283 0.25500
O 	O 	0.18036 0.51859 0.09028 -0.37200
C 	C 	0.23862 0.94700 0.76540 0.01400
C 	C 	0.19468 0.81622 0.15525 -0.03800
H 	H 	0.18443 0.90928 0.19695 0.05900
C 	C 	0.20481 0.72164 0.12241 0.24900
Ni	Ni	0.20438 0.62390 0.07664 1.10800
F 	F 	0.22902 0.67496 0.46769 -0.36700
C 	C 	0.22703 0.55705 0.31619 0.01400
H 	H 	0.22896 0.35506 0.30094 0.07300
N 	N 	0.25149 0.90727 0.78503 -0.14800
Ni	Ni	0.19856 0.52827 0.02389 1.12800
O 	O 	0.23728 0.88503 0.37498 -0.35700
N 	N 	0.24562 0.50114 0.30965 -0.15200
H 	H 	0.25698 0.21179 0.65490 0.11400
C 	C 	0.25195 0.60426 0.33969 0.27600
O 	O 	0.25293 0.67211 0.33954 -0.38100
O 	O 	0.25258 0.60687 0.41849 -0.30900
Ni	Ni	0.25634 0.73350 0.37342 1.11200
O 	O 	0.25728 0.57302 0.36224 -0.36900
O 	O 	0.25526 0.76648 0.11262 -0.37400
H 	H 	0.23824 0.83403 0.16506 0.04700
C 	C 	0.28522 0.16185 0.68760 0.01400
C 	C 	0.28884 0.98335 0.75091 -0.04600
H 	H 	0.29568 0.03351 0.74013 0.05300
O 	O 	0.24968 0.61247 0.04490 -0.69900
N 	N 	0.28913 0.19314 0.66337 -0.15000
H 	H 	0.28115 0.49160 0.31939 0.11100
F 	F 	0.26232 0.79172 0.02102 -0.44800
H 	H 	0.25806 0.65687 0.03401 0.24300
O 	O 	0.25529 0.46976 0.02945 -0.36400
C 	C 	0.30971 0.91732 0.78309 0.09100
H 	H 	0.28243 0.60395 0.10882 0.16300
O 	O 	0.28533 0.63726 0.09365 -0.70300
F 	F 	0.27595 0.82536 0.97841 -0.39000
F 	F 	0.25462 0.54090 0.97659 -0.47000
H 	H 	0.32579 0.88548 0.82316 0.09000
F 	F 	0.29178 0.27366 0.92971 -0.38800
C 	C 	0.33416 0.96405 0.76213 0.03100
H 	H 	0.31450 0.80816 0.33427 0.16200
Ni	Ni	0.31855 0.62190 0.39202 1.09800
C 	C 	0.29833 0.79619 0.99943 0.77400
C 	C 	0.34104 0.16782 0.69782 -0.04400
F 	F 	0.29566 0.72642 0.99193 -0.40000
O 	O 	0.31988 0.81395 0.35394 -0.70300
F 	F 	0.31013 0.25344 0.88734 -0.41800
C 	C 	0.34551 0.91257 0.80506 -0.07000
H 	H 	0.35208 0.16548 0.71882 0.05200
H 	H 	0.01260 0.12087 0.63974 0.12000
H 	H 	0.01489 0.91012 0.60083 0.07900
Ni	Ni	0.32702 0.91260 0.36488 1.07400
O 	O 	0.33053 0.72665 0.39020 -0.69900
F 	F 	0.30581 0.36289 0.89945 -0.42300
H 	H 	0.33484 0.74710 0.40862 0.23700
C 	C 	0.34758 0.22014 0.65801 0.10000
C 	C 	0.30995 0.49610 0.02079 0.29300
Ni	Ni	0.33002 0.73834 0.10446 1.07000
O 	O 	0.32858 0.77938 0.06720 -0.36500
Ni	Ni	0.32576 0.60929 0.06305 1.10800
H 	H 	0.34739 0.29185 0.62508 0.09200
C 	C 	0.32377 0.30606 0.90767 0.78900
F 	F 	0.34160 0.80468 0.45759 -0.39700
O 	O 	0.34417 0.89698 0.40409 -0.35800
C 	C 	0.31005 0.55246 0.96621 0.78600
F 	F 	0.30620 0.56315 0.93901 -0.38600
C 	C 	0.32697 0.45961 0.99812 0.00000
H 	H 	0.33999 0.37647 0.02287 0.08400
F 	F 	0.35603 0.26367 0.01034 -0.40700
C 	C 	0.37304 0.28025 0.64136 -0.07700
C 	C 	0.34264 0.39779 0.00281 0.07800
C 	C 	0.32930 0.48740 0.97196 -0.06700
C 	C 	0.38076 0.20508 0.67875 0.01700
O 	O 	0.34852 0.55707 0.03138 -0.30400
F 	F 	0.36821 0.58637 0.46647 -0.39000
C 	C 	0.39416 0.01016 0.76310 -0.09100
C 	C 	0.36060 0.76857 0.04779 0.30500
F 	F 	0.37116 0.25150 0.96695 -0.37800
C 	C 	0.36233 0.84311 0.00663 -0.05400
C 	C 	0.36423 0.36541 0.98210 -0.10600
C 	C 	0.35347 0.45727 0.95154 0.03500
O 	O 	0.39019 0.63736 0.36775 -0.38100
C 	C 	0.40725 0.94914 0.80364 0.02300
H 	H 	0.41055 0.05610 0.74974 0.06200
O 	O 	0.37510 0.70924 0.04701 -0.31300
H 	H 	0.37506 0.90516 0.97016 0.12600
F 	F 	0.35098 0.61555 0.97772 -0.39000
O 	O 	0.01537 0.90790 0.65826 -0.38500
Ni	Ni	0.39317 0.79556 0.36583 1.10800
C 	C 	0.37267 0.39819 0.95658 0.10200
C 	C 	0.38430 0.30116 0.98821 0.79100
C 	C 	0.39627 0.89683 0.41233 0.30800
H 	H 	0.36074 0.48247 0.93209 0.12700
F 	F 	0.39808 0.11194 0.54056 -0.41300
F 	F 	0.39756 0.00313 0.52519 -0.41300
F 	F 	0.39798 0.09180 0.49644 -0.38700
H 	H 	0.39766 0.64663 0.42507 0.02700
C 	C 	0.40177 0.82721 0.46401 0.77800
C 	C 	0.39088 0.83002 0.03011 0.00700
C 	C 	0.39012 0.33608 0.91446 -0.09800
F 	F 	0.40796 0.80674 0.49002 -0.37200
C 	C 	0.39535 0.89702 0.98885 0.04100
O 	O 	0.40054 0.61417 0.08387 -0.34300
C 	C 	0.43106 0.99891 0.78341 0.09700
H 	H 	0.43226 0.96106 0.84620 0.08600
O 	O 	0.41624 0.96036 0.35696 -0.37300
O 	O 	0.41220 0.72983 0.09996 -0.37900
C 	C 	0.41951 0.07801 0.52089 0.78900
F 	F 	0.42263 0.51977 0.47957 -0.38700
H 	H 	0.41393 0.28880 0.87905 0.09100
C 	C 	0.01361 0.13816 0.84986 0.07600
C 	C 	0.42552 0.94212 0.43585 0.01100
C 	C 	0.43995 0.25021 0.68414 -0.07600
C 	C 	0.43296 0.32446 0.64625 0.03200
O 	O 	0.42770 0.86987 0.39699 -0.32200
F 	F 	0.42832 0.79139 0.44733 -0.43700
C 	C 	0.42594 0.58787 0.47028 0.79300
C 	C 	0.41267 0.38215 0.93729 0.09600
C 	C 	0.44539 0.97277 0.82567 -0.02600
C 	C 	0.43017 0.90974 0.46060 -0.05900
C 	C 	0.42243 0.66717 0.10206 0.25000
C 	C 	0.43873 0.63589 0.42317 0.09400
C 	C 	0.43041 0.32251 0.89691 0.08600
C 	C 	0.44270 0.67997 0.37693 0.32000
C 	C 	0.44475 0.93529 0.33893 0.24300
H 	H 	0.44861 0.04208 0.41376 0.08100
F 	F 	0.45346 0.44309 0.43601 -0.39400
O 	O 	0.44965 0.86994 0.34161 -0.34000
C 	C 	0.45157 0.01840 0.43302 0.07300
H 	H 	0.46550 0.23840 0.70042 0.05700
F 	F 	0.44505 0.32705 0.99340 -0.38900
O 	O 	0.45782 0.75140 0.37440 -0.30200
F 	F 	0.45400 0.64114 0.48951 -0.38300
C 	C 	0.46618 0.30895 0.66697 0.08200
H 	H 	0.46010 0.35433 0.60534 0.09300
C 	C 	0.46168 0.95494 0.48212 0.04600
C 	C 	0.46034 0.60534 0.44453 -0.10600
C 	C 	0.44973 0.87490 0.03652 0.08300
H 	H 	0.43673 0.70780 0.15464 0.07100
H 	H 	0.46679 0.93087 0.50104 0.12700
C 	C 	0.46961 0.65297 0.39927 -0.02700
C 	C 	0.47252 0.35677 0.62638 -0.02900
C 	C 	0.45547 0.93827 0.99436 0.09600
F 	F 	0.44806 0.83821 0.94389 -0.40500
N 	N 	0.48176 0.05169 0.79215 -0.15700
C 	C 	0.46699 0.66253 0.12171 0.01500
H 	H 	0.47096 0.91673 0.28676 0.09300
H 	H 	0.47031 0.86593 0.05501 0.08400
C 	C 	0.49075 0.03563 0.81770 0.00600
C 	C 	0.48245 0.06378 0.45458 -0.09800
N 	N 	0.46787 0.68659 0.14718 -0.15200
C 	C 	0.48464 0.98770 0.32073 0.02800
C 	C 	0.48640 0.03150 0.47951 0.09000
H 	H 	0.47496 0.08182 0.98930 0.13300
C 	C 	0.48718 0.10553 0.52127 -0.10100
C 	C 	0.47410 0.41559 0.94161 0.04200
H 	H 	0.49918 0.10426 0.78413 0.08900
C 	C 	0.48223 0.93013 0.01907 -0.10000
N 	N 	0.49152 0.96934 0.29522 -0.15200
F 	F 	0.50059 0.36798 0.44909 -0.37600
H 	H 	0.49721 0.18235 0.55414 0.09400
F 	F 	0.49767 0.18636 0.46944 -0.38200
F 	F 	0.50115 0.16712 0.42551 -0.40100
C 	C 	0.49211 0.35311 0.90204 0.01600
C 	C 	0.49076 0.98723 0.97349 0.10300
C 	C 	0.50877 0.43991 0.44253 0.78700
C 	C 	0.49654 0.06166 0.97385 0.03100
H 	H 	0.49056 0.45367 0.95838 0.12500
F 	F 	0.50995 0.21192 0.93698 -0.40800
C 	C 	0.51433 0.14568 0.45046 0.78900
C 	C 	0.51585 0.59562 0.44225 0.10200
C 	C 	0.51793 0.07735 0.50284 0.09400
N 	N 	0.52395 0.33086 0.66064 -0.15200
O 	O 	0.52081 0.26716 0.87518 -0.31400
C 	C 	0.52354 0.66599 0.11454 -0.03000
C 	C 	0.52001 0.15843 0.54046 0.07900
F 	F 	0.52335 0.62249 0.34994 -0.42500
C 	C 	0.52479 0.64296 0.39687 -0.04600
C 	C 	0.51423 0.39933 0.92497 -0.05400
O 	O 	0.53103 0.15570 0.83838 -0.35800
C 	C 	0.53236 0.08866 0.83638 0.25600
C 	C 	0.52820 0.35960 0.63593 0.02100
C 	C 	0.50694 0.87761 0.95068 0.78900
C 	C 	0.51628 0.95914 0.95269 -0.10100
F 	F 	0.52337 0.20998 0.98141 -0.36600
H 	H 	0.53883 0.67206 0.09418 0.09000
C 	C 	0.53333 0.04784 0.32961 -0.04100
C 	C 	0.53297 0.33522 0.88371 0.30200
C 	C 	0.52448 0.70688 0.15637 0.08300
C 	C 	0.53823 0.49307 0.46548 -0.09300
C 	C 	0.53041 0.11007 0.95464 -0.05400
F 	F 	0.52127 0.85291 0.97478 -0.38700
O 	O 	0.00768 0.84870 0.76425 -0.33500
F 	F 	0.54425 0.45788 0.42042 -0.40900
C 	C 	0.54199 0.56755 0.46486 0.09000
C 	C 	0.54132 0.19180 0.95705 0.78000
C 	C 	0.54392 0.01768 0.28746 0.08100
H 	H 	0.52068 0.77377 0.19073 0.05900
F 	F 	0.54633 0.05268 0.02873 -0.41600
H 	H 	0.54785 0.05896 0.35038 0.09200
C 	C 	0.54817 0.61604 0.41878 0.02700
H 	H 	0.55416 0.30848 0.66879 0.07700
C 	C 	0.54481 0.98097 0.02701 0.79200
H 	H 	0.00824 0.24738 0.84992 0.10200
O 	O 	0.55299 0.15427 0.89487 -0.31400
O 	O 	0.55898 0.06372 0.85534 -0.38700
C 	C 	0.55883 0.66155 0.37113 0.77200
C 	C 	0.54704 0.00664 0.93261 0.07300
F 	F 	0.54221 0.86337 0.93143 -0.41100
C 	C 	0.54832 0.76364 0.17547 -0.07600
C 	C 	0.55426 0.08152 0.93336 0.00100
C 	C 	0.56022 0.69412 0.13676 0.03000
C 	C 	0.56567 0.46969 0.48691 0.07400
F 	F 	0.00233 0.33374 0.44106 -0.38500
H 	H 	0.55884 0.95452 0.25415 0.06500
H 	H 	0.56692 0.41446 0.48675 0.10400
F 	F 	0.56321 0.96315 0.05157 -0.41900
F 	F 	0.57519 0.16214 0.45257 -0.40900
C 	C 	0.57045 0.61582 0.48601 0.03900
H 	H 	0.57434 0.67305 0.48507 0.12400
F 	F 	0.57497 0.73603 0.36654 -0.42100
O 	O 	0.57706 0.38831 0.87345 -0.32900
C 	C 	0.57560 0.35913 0.61794 0.25600
C 	C 	0.57103 0.06715 0.30822 0.03600
H 	H 	0.56434 0.98516 0.91592 0.07900
C 	C 	0.57952 0.09482 0.50602 0.03800
C 	C 	0.57826 0.00086 0.26783 -0.07900
C 	C 	0.58239 0.18145 0.54205 0.00500
Ni	Ni	0.58760 0.22891 0.86491 1.10300
C 	C 	0.58426 0.12795 0.91099 0.31100
O 	O 	0.58591 0.29753 0.61443 -0.38800
C 	C 	0.58042 0.43221 0.93165 0.78200
C 	C 	0.59247 0.59037 0.50858 -0.05900
H 	H 	0.59143 0.61056 0.41765 0.12300
F 	F 	0.59057 0.69539 0.53339 -0.39400
F 	F 	0.58480 0.97644 0.00821 -0.39100
O 	O 	0.59602 0.41271 0.60092 -0.34200
C 	C 	0.59395 0.51815 0.50805 0.00800
F 	F 	0.01283 0.69329 0.94429 -0.38100
O 	O 	0.59701 0.29974 0.56233 -0.34200
F 	F 	0.59145 0.46272 0.95723 -0.36200
H 	H 	0.60181 0.06889 0.49284 0.11900
F 	F 	0.60150 0.60254 0.55623 -0.42100
F 	F 	0.60140 0.23169 0.95502 -0.40700
O 	O 	0.60376 0.44149 0.54404 -0.31300
N 	N 	0.00333 0.02595 0.83363 -0.13700
F 	F 	0.61003 0.64419 0.37218 -0.41300
F 	F 	0.60768 0.48695 0.91381 -0.44500
F 	F 	0.60538 0.37834 0.93043 -0.44400
C 	C 	0.60779 0.80948 0.17331 0.02000
C 	C 	0.61257 0.14740 0.52532 -0.06800
C 	C 	0.61561 0.64119 0.53274 0.77900
C 	C 	0.61509 0.24294 0.56056 0.28700
H 	H 	0.01634 0.08363 0.12846 0.11400
C 	C 	0.62072 0.73794 0.13546 -0.07700
C 	C 	0.63009 0.49521 0.52773 0.29200
O 	O 	0.63509 0.12505 0.90337 -0.38500
C 	C 	0.63333 0.09874 0.31068 -0.07500
H 	H 	0.63005 0.84382 0.21508 0.05500
H 	H 	0.64088 0.28684 0.90982 0.26800
C 	C 	0.63943 0.04206 0.26789 0.02400
Ni	Ni	0.64835 0.10648 0.86423 1.06900
C 	C 	0.64390 0.79578 0.15419 0.09800
O 	O 	0.64965 0.29906 0.89090 -0.69100
C 	C 	0.64442 0.84442 0.19467 -0.04300
H 	H 	0.64852 0.72789 0.12025 0.08800
Ni	Ni	0.65199 0.40630 0.57162 1.10500
O 	O 	0.65055 0.23222 0.57924 -0.35700
H 	H 	0.65491 0.12570 0.32915 0.09300
O 	O 	0.66202 0.20915 0.85499 -0.70100
Ni	Ni	0.66469 0.40368 0.88387 1.13400
H 	H 	0.67156 0.21902 0.83594 0.15700
C 	C 	0.66690 0.08914 0.28924 0.09600
Ni	Ni	0.66923 0.29217 0.61398 1.07200
C 	C 	0.00427 0.64911 0.98868 -0.07500
H 	H 	0.67173 0.96527 0.24674 0.06100
F 	F 	0.67672 0.67462 0.53157 -0.42600
O 	O 	0.68017 0.39172 0.84478 -0.39600
C 	C 	0.67920 0.16453 0.52863 0.78600
C 	C 	0.68185 0.01719 0.25742 -0.05400
O 	O 	0.68648 0.53583 0.53163 -0.33200
C 	C 	0.00399 0.71063 0.97033 0.79400
H 	H 	0.69003 0.36249 0.52898 0.22900
F 	F 	0.69127 0.13722 0.55262 -0.44200
F 	F 	0.70084 0.13310 0.50825 -0.40400
N 	N 	0.70118 0.82092 0.16290 -0.15000
C 	C 	0.70146 0.85052 0.18749 0.01600
H 	H 	0.70471 0.47777 0.79670 0.09700
F 	F 	0.99859 0.46512 0.92210 -0.41800
F 	F 	0.99434 0.45808 0.96675 -0.42200
C 	C 	0.99639 0.54543 0.02856 -0.08100
C 	C 	0.98879 0.49368 0.05178 0.76600
C 	C 	0.99060 0.82194 0.19504 -0.08300
C 	C 	0.98551 0.94007 0.21416 0.23200
C 	C 	0.97647 0.28291 0.11365 -0.09600
O 	O 	0.98685 0.07312 0.18196 -0.39800
C 	C 	0.99326 0.16702 0.10928 0.07800
H 	H 	0.95584 0.31624 0.12420 0.08700
N 	N 	0.98508 0.10917 0.12529 -0.15200
C 	C 	0.95789 0.20663 0.11726 0.04400
H 	H 	0.99672 0.29436 0.28842 0.09300
C 	C 	0.97749 0.78768 0.35912 -0.09600
C 	C 	0.97596 0.91092 0.36600 0.01100
H 	H 	0.96795 0.00731 0.34669 0.06400
Ni	Ni	0.72360 0.27929 0.88083 1.10700
O 	O 	0.79045 0.24162 0.87074 -0.34300
O 	O 	0.73519 0.12075 0.87661 -0.37400
O 	O 	0.75904 0.35377 0.85093 -0.36000
O 	O 	0.75395 0.44598 0.89274 -0.33100
O 	O 	0.77994 0.35065 0.90785 -0.33800
C 	C 	0.78329 0.17167 0.86792 0.25900
C 	C 	0.73254 0.39257 0.83776 0.27000
C 	C 	0.78108 0.41863 0.91066 0.31400
O 	O 	0.70976 0.39881 0.54336 -0.69900
Ni	Ni	0.76669 0.36745 0.56551 1.12000
Ni	Ni	0.75487 0.49418 0.52843 1.10000
O 	O 	0.78419 0.53920 0.56528 -0.38800
O 	O 	0.81799 0.35887 0.53459 -0.29700
O 	O 	0.71275 0.38274 0.59481 -0.69000
O 	O 	0.80843 0.31208 0.58839 -0.33600
O 	O 	0.74484 0.26678 0.62215 -0.38900
H 	H 	0.73368 0.42402 0.60732 0.16300
C 	C 	0.83024 0.52967 0.57679 0.27000
C 	C 	0.83845 0.41288 0.51752 0.30600
C 	C 	0.77879 0.25685 0.60338 0.28600
O 	O 	0.83395 0.46372 0.57743 -0.35600
O 	O 	0.83322 0.47742 0.52232 -0.35000
O 	O 	0.93885 0.84207 0.73103 -0.39900
Ni	Ni	0.98438 0.87950 0.69598 1.06300
O 	O 	0.97172 0.97665 0.70195 -0.40800
C 	C 	0.99520 0.03119 0.68580 0.25000
C 	C 	0.95975 0.81026 0.74993 0.23300
Ni	Ni	0.90767 0.03004 0.27050 1.09700
O 	O 	0.92267 0.06915 0.23262 -0.71100
Ni	Ni	0.87472 0.97914 0.21154 1.10200
O 	O 	0.96034 0.12963 0.28648 -0.35500
O 	O 	0.83672 0.06568 0.26950 -0.36600
O 	O 	0.83714 0.86342 0.29778 -0.37600
O 	O 	0.88505 0.02802 0.17538 -0.35500
O 	O 	0.87222 0.93716 0.24884 -0.70400
O 	O 	0.88531 0.98737 0.30768 -0.35000
O 	O 	0.80677 0.88865 0.19658 -0.36100
O 	O 	0.74631 0.89305 0.23065 -0.40200
Ni	Ni	0.79553 0.87951 0.26369 1.07800
H 	H 	0.90716 0.10937 0.22941 0.16200
H 	H 	0.89888 0.90846 0.25049 0.15600
O 	O 	0.77241 0.95672 0.28386 -0.35900
C 	C 	0.93820 0.07393 0.16896 0.24600
C 	C 	0.78233 0.02236 0.27438 0.26300
C 	C 	0.75305 0.87200 0.20615 0.24700
C 	C 	0.87512 0.91729 0.31279 0.25700
O 	O 	0.93610 0.93250 0.20046 -0.35200
C 	C 	0.94437 0.11104 0.14325 0.02200
C 	C 	0.92669 0.17094 0.13903 -0.04900
H 	H 	0.91020 0.19757 0.15451 0.05100
H 	H 	0.73372 0.80102 0.15623 0.11200
H 	H 	0.94946 0.80787 0.18334 0.07500
N 	N 	0.72422 0.09446 0.29206 -0.15000
C 	C 	0.73359 0.05119 0.27265 0.02100
H 	H 	0.74906 0.10835 0.31001 0.12100
C 	C 	0.94670 0.83711 0.35895 0.10700
N 	N 	0.90114 0.83007 0.34169 -0.15000
C 	C 	0.90126 0.89867 0.33733 0.02400
C 	C 	0.94700 0.95028 0.35217 -0.02400
H 	H 	0.95800 0.73360 0.34980 0.07900
H 	H 	0.88328 0.78584 0.32820 0.10700
F 	F 	0.70932 0.23956 0.52828 -0.47700
C 	C 	0.93482 0.45586 0.45755 0.03900
C 	C 	0.98788 0.45196 0.46851 0.08500
C 	C 	0.98758 0.41963 0.49383 -0.11500
C 	C 	0.93594 0.40097 0.50906 0.08100
C 	C 	0.88427 0.41035 0.49881 0.01200
C 	C 	0.88201 0.43110 0.47192 -0.06900
H 	H 	0.93712 0.38380 0.52955 0.08600
C 	C 	0.82444 0.43177 0.45907 0.77600
H 	H 	0.93520 0.48059 0.43820 0.11200
F 	F 	0.82578 0.42631 0.43149 -0.39900
F 	F 	0.81632 0.49672 0.46579 -0.45600
F 	F 	0.77650 0.37299 0.46760 -0.41400
F 	F 	0.97213 0.39045 0.40766 -0.43300
C 	C 	0.81124 0.09889 0.62257 0.09600
C 	C 	0.81789 0.05946 0.64504 -0.07700
C 	C 	0.87091 0.04512 0.64803 0.01900
C 	C 	0.91901 0.07878 0.63191 0.09200
C 	C 	0.91489 0.12596 0.61154 -0.07800
C 	C 	0.85881 0.13037 0.60577 0.03700
N 	N 	0.77399 0.13685 0.62175 -0.14600
C 	C 	0.79746 0.19251 0.60469 0.03900
C 	C 	0.85015 0.19050 0.59438 -0.02200
N 	N 	0.97028 0.08606 0.64509 -0.15700
C 	C 	0.95568 0.05853 0.66972 0.00800
C 	C 	0.89416 0.03182 0.67211 -0.05000
H 	H 	0.78483 0.04482 0.66041 0.06300
H 	H 	0.95432 0.16118 0.60177 0.08500
H 	H 	0.88550 0.23797 0.58705 0.08600
H 	H 	0.87097 0.02078 0.69080 0.05100
H 	H 	0.74478 0.13720 0.63690 0.09900
C 	C 	0.98018 0.65639 0.58874 0.00600
C 	C 	0.95335 0.69713 0.57398 0.11200
C 	C 	0.97628 0.77416 0.57510 -0.09900
N 	N 	0.89497 0.65848 0.57011 -0.15400
C 	C 	0.88375 0.59422 0.58280 0.00800
C 	C 	0.93582 0.59010 0.59403 -0.02500
H 	H 	0.95077 0.80568 0.56695 0.08700
H 	H 	0.93779 0.55301 0.60976 0.05600
H 	H 	0.86274 0.68076 0.56453 0.11600
C 	C 	0.94973 0.53365 0.00971 0.04900
C 	C 	0.95617 0.58144 0.98833 0.06900
C 	C 	0.91729 0.55532 0.96434 0.10700
H 	H 	0.91035 0.48440 0.01042 0.11000
C 	C 	0.93100 0.51103 0.94467 -0.11500
C 	C 	0.88629 0.47025 0.92627 0.08000
C 	C 	0.82806 0.46995 0.92802 -0.00100
C 	C 	0.81491 0.51602 0.94710 -0.06400
C 	C 	0.86073 0.56093 0.96423 0.02500
C 	C 	0.99087 0.50038 0.94515 0.78200
H 	H 	0.89599 0.43586 0.91123 0.08700
C 	C 	0.75167 0.51410 0.95030 0.77700
H 	H 	0.85134 0.59617 0.97903 0.13000
F 	F 	0.92933 0.45288 0.05548 -0.42500
F 	F 	0.94990 0.72079 0.97151 -0.42500
F 	F 	0.74700 0.55646 0.97196 -0.38500
F 	F 	0.71428 0.44259 0.95431 -0.38900
F 	F 	0.73317 0.54088 0.92760 -0.41100
C 	C 	0.92952 0.16501 0.86560 0.11700
C 	C 	0.98688 0.19028 0.85519 -0.11400
C 	C 	0.98093 0.06309 0.85061 0.06700
C 	C 	0.92080 0.03793 0.85761 -0.06500
C 	C 	0.89749 0.08997 0.86723 0.01900
N 	N 	0.89208 0.20261 0.86365 -0.15000
C 	C 	0.83636 0.15218 0.86341 0.01300
C 	C 	0.83784 0.08170 0.86603 -0.02900
H 	H 	0.89253 0.98105 0.85419 0.07700
H 	H 	0.80155 0.03136 0.86059 0.05800
H 	H 	0.90333 0.25624 0.85669 0.11400
H 	H 	0.97898 0.97437 0.82516 0.10100
C 	C 	0.90152 0.63060 0.77743 0.08400
C 	C 	0.90040 0.58845 0.80014 -0.07900
C 	C 	0.84521 0.55217 0.81158 0.02900
C 	C 	0.79280 0.55619 0.80058 0.08800
C 	C 	0.79376 0.59778 0.77768 -0.07900
C 	C 	0.84902 0.63391 0.76609 0.01500
N 	N 	0.94787 0.69169 0.77186 -0.15500
C 	C 	0.92523 0.73407 0.75717 0.00900
C 	C 	0.86409 0.70030 0.75308 -0.05100
N 	N 	0.74624 0.49566 0.80664 -0.14900
C 	C 	0.76888 0.45181 0.82059 0.00700
C 	C 	0.83008 0.48583 0.82443 -0.03300
H 	H 	0.94105 0.58501 0.80881 0.07800
H 	H 	0.75307 0.60118 0.76904 0.06400
H 	H 	0.83376 0.72921 0.74889 0.05800
H 	H 	0.86060 0.45843 0.83023 0.07000
H 	H 	0.98783 0.71140 0.78304 0.10900
