data_crystal

_cell_length_a 24.56483
_cell_length_b 21.34568
_cell_length_c 19.53098
_cell_angle_alpha 92.69896
_cell_angle_beta  85.32622
_cell_angle_gamma 124.79565

_symmetry_space_group_name_	'P 1'
_symmetry_space_group_name_H-M	'P 1'

loop_
_symmetry_equiv_pos_as_xyz
  x,y,z

loop_
_atom_site_label
_atom_site_type_symbol
_atom_site_fract_x
_atom_site_fract_y
_atom_site_fract_z
_atom_site_charge
C 	C 	0.91273 0.10103 0.88771 0.01400
C 	C 	0.91928 0.06439 0.82939 -0.03500
C 	C 	0.95449 0.03127 0.83135 -0.06600
C 	C 	0.98184 0.03256 0.89217 0.07700
C 	C 	0.97595 0.07046 0.95042 -0.06800
C 	C 	0.94202 0.10493 0.94782 -0.03300
N 	N 	0.01085 0.98993 0.89550 -0.14300
C 	C 	0.18609 0.09096 0.00384 0.02400
C 	C 	0.12387 0.04129 0.03823 -0.04000
C 	C 	0.06597 0.00894 0.00352 -0.05700
C 	C 	0.06984 0.02599 0.93358 0.06800
C 	C 	0.13215 0.07688 0.89982 -0.06000
C 	C 	0.19005 0.10899 0.93462 -0.04200
C 	C 	0.87510 0.75168 0.93255 -0.02300
C 	C 	0.92769 0.77888 0.88211 -0.01700
C 	C 	0.97174 0.85720 0.86992 -0.07200
C 	C 	0.96362 0.90906 0.90783 0.08000
C 	C 	0.91007 0.88148 0.95780 -0.07400
C 	C 	0.86632 0.80320 0.97015 -0.02200
H 	H 	0.89591 0.06017 0.78311 0.03800
H 	H 	0.95833 0.00193 0.78647 0.05000
H 	H 	0.99569 0.07119 0.99814 0.04700
H 	H 	0.93680 0.13279 0.99318 0.04000
H 	H 	0.12039 0.02740 0.09175 0.04000
H 	H 	0.01835 0.97169 0.03113 0.04400
H 	H 	0.13566 0.09057 0.84626 0.04700
H 	H 	0.23802 0.14717 0.90762 0.04400
H 	H 	0.93453 0.73934 0.85256 0.03300
H 	H 	0.01243 0.87781 0.83113 0.05000
H 	H 	0.90340 0.92053 0.98823 0.04800
H 	H 	0.82565 0.78257 0.00900 0.03900
C 	C 	0.92155 0.13626 0.51765 -0.02400
C 	C 	0.93706 0.09010 0.48017 -0.01500
C 	C 	0.96179 0.05530 0.51290 -0.07600
C 	C 	0.97184 0.06687 0.58378 0.08100
C 	C 	0.95700 0.11374 0.62086 -0.07400
C 	C 	0.93168 0.14798 0.58815 -0.01500
N 	N 	0.99762 0.03167 0.61882 -0.14100
C 	C 	0.20601 0.14033 0.61784 0.01500
C 	C 	0.16468 0.09946 0.67567 -0.03500
C 	C 	0.09662 0.06748 0.67724 -0.06500
C 	C 	0.06919 0.07559 0.62081 0.07300
C 	C 	0.11171 0.12072 0.56447 -0.06800
C 	C 	0.17969 0.15285 0.56328 -0.03400
C 	C 	0.90174 0.79603 0.57136 0.01300
C 	C 	0.96144 0.85029 0.53516 -0.03500
C 	C 	0.99382 0.92767 0.55105 -0.06600
C 	C 	0.96642 0.95160 0.60344 0.07200
C 	C 	0.90790 0.89686 0.64108 -0.06500
C 	C 	0.87582 0.81936 0.62538 -0.03400
H 	H 	0.93004 0.08128 0.42563 0.03300
H 	H 	0.97454 0.02099 0.48296 0.05000
H 	H 	0.96538 0.12382 0.67502 0.05100
H 	H 	0.91953 0.18319 0.61768 0.03500
H 	H 	0.18492 0.09037 0.71839 0.03900
H 	H 	0.06464 0.03357 0.72103 0.04900
H 	H 	0.09211 0.12833 0.52053 0.04800
H 	H 	0.21161 0.18526 0.51882 0.04000
H 	H 	0.98185 0.83265 0.49355 0.03800
H 	H 	0.03885 0.96904 0.52129 0.04500
H 	H 	0.88693 0.91457 0.68196 0.04800
H 	H 	0.82996 0.77760 0.65397 0.04100
Co	Co	0.70117 0.29109 0.96399 1.18200
O 	O 	0.76988 0.28454 0.89889 -0.37900
Co	Co	0.56587 0.28537 0.01708 1.18500
O 	O 	0.60581 0.23462 0.93629 -0.46800
O 	O 	0.64091 0.39579 0.01216 -0.41600
O 	O 	0.70544 0.19371 0.96853 -0.34700
C 	C 	0.69853 0.42735 0.97520 0.34400
O 	O 	0.54788 0.27487 0.91022 -0.36300
C 	C 	0.44783 0.21293 0.07787 0.27400
C 	C 	0.67560 0.30784 0.09716 0.31100
O 	O 	0.49174 0.28584 0.07763 -0.36600
O 	O 	0.47251 0.17987 0.04467 -0.34000
O 	O 	0.73233 0.32959 0.06569 -0.35800
O 	O 	0.62654 0.26293 0.05925 -0.45800
O 	O 	0.71323 0.38657 0.93451 -0.53600
C 	C 	0.75196 0.21863 0.92004 0.27500
C 	C 	0.58351 0.25048 0.88682 0.33600
H 	H 	0.74419 0.41157 0.89201 0.16900
Co	Co	0.73830 0.33610 0.47788 1.18200
O 	O 	0.81326 0.33397 0.42082 -0.38600
Co	Co	0.60445 0.33591 0.52282 1.18600
O 	O 	0.65070 0.29765 0.43578 -0.46000
O 	O 	0.68326 0.44063 0.54093 -0.40700
O 	O 	0.73260 0.23229 0.46773 -0.35300
C 	C 	0.74369 0.47585 0.50964 0.32400
O 	O 	0.60393 0.35402 0.41619 -0.35200
C 	C 	0.48343 0.26057 0.57385 0.27800
C 	C 	0.69336 0.32533 0.60938 0.32800
O 	O 	0.52897 0.33116 0.58552 -0.36400
O 	O 	0.50575 0.23165 0.53031 -0.34300
O 	O 	0.75270 0.34792 0.58582 -0.36800
O 	O 	0.65169 0.29425 0.56202 -0.46600
O 	O 	0.76136 0.44097 0.46439 -0.52900
C 	C 	0.78780 0.26257 0.43074 0.31000
C 	C 	0.64054 0.33167 0.39036 0.31300
H 	H 	0.79662 0.47211 0.42637 0.16600
C 	C 	0.61662 0.27022 0.81757 -0.13100
C 	C 	0.61094 0.21327 0.77289 0.14500
C 	C 	0.63852 0.23249 0.70513 -0.04300
C 	C 	0.67177 0.30780 0.68198 -0.11600
C 	C 	0.67755 0.36447 0.72671 0.13800
C 	C 	0.64744 0.34464 0.79321 -0.04400
H 	H 	0.63180 0.18820 0.66984 0.06200
H 	H 	0.64682 0.38682 0.82545 0.05700
O 	O 	0.56882 0.13727 0.79136 -0.19600
O 	O 	0.70538 0.43738 0.70275 -0.20100
C 	C 	0.60694 0.11296 0.81396 -0.02400
H 	H 	0.64576 0.12156 0.77410 0.04000
H 	H 	0.57348 0.05090 0.82476 0.04900
H 	H 	0.62951 0.14179 0.86256 0.04400
C 	C 	0.77267 0.48332 0.71817 -0.02200
H 	H 	0.77814 0.48639 0.77451 0.03000
H 	H 	0.79453 0.54224 0.70042 0.04300
H 	H 	0.80151 0.46315 0.69072 0.04400
C 	C 	0.66631 0.31154 0.17262 -0.11100
C 	C 	0.71430 0.32239 0.21624 0.14500
C 	C 	0.70297 0.32369 0.28771 -0.05100
C 	C 	0.64662 0.31921 0.31603 -0.11200
C 	C 	0.59779 0.30601 0.27266 0.14800
C 	C 	0.60876 0.30423 0.20134 -0.05100
H 	H 	0.73933 0.33083 0.32097 0.03800
H 	H 	0.57219 0.29685 0.16833 0.04200
O 	O 	0.76937 0.32488 0.18950 -0.18600
O 	O 	0.54091 0.29934 0.29965 -0.18600
C 	C 	0.82464 0.40174 0.18646 -0.02200
H 	H 	0.81578 0.43768 0.15619 0.04300
H 	H 	0.86753 0.40405 0.16021 0.04900
H 	H 	0.83884 0.42594 0.23886 0.03600
C 	C 	0.49054 0.22135 0.31083 -0.02600
H 	H 	0.47740 0.18875 0.26169 0.04200
H 	H 	0.44527 0.21613 0.33364 0.05000
H 	H 	0.50469 0.19568 0.34793 0.05100
C 	C 	0.78836 0.55903 0.51762 -0.08200
C 	C 	0.84610 0.59117 0.55279 -0.00300
C 	C 	0.88346 0.66881 0.56918 -0.04100
C 	C 	0.86398 0.71535 0.54959 -0.02700
C 	C 	0.80758 0.68387 0.51061 0.07600
C 	C 	0.76961 0.60542 0.49595 -0.03800
H 	H 	0.92695 0.69261 0.59824 0.03900
H 	H 	0.72523 0.58040 0.46801 0.04700
H 	H 	0.86078 0.55549 0.56959 0.02800
N 	N 	0.79006 0.72850 0.48679 -0.19500
H 	H 	0.81931 0.78762 0.49324 0.08800
H 	H 	0.74743 0.70433 0.45961 0.08500
C 	C 	0.89271 0.17040 0.48362 0.06200
C 	C 	0.92378 0.24955 0.48528 -0.09100
C 	C 	0.89252 0.28101 0.46060 0.04600
C 	C 	0.82958 0.23361 0.43419 -0.14000
C 	C 	0.80170 0.15479 0.42526 0.15300
C 	C 	0.83276 0.12344 0.45171 -0.12600
H 	H 	0.91532 0.34175 0.46606 0.02700
H 	H 	0.80977 0.06248 0.44831 0.06400
H 	H 	0.97113 0.28648 0.50791 0.05400
N 	N 	0.74554 0.10931 0.39120 -0.20700
H 	H 	0.72473 0.13221 0.36603 0.10000
H 	H 	0.72375 0.05067 0.38704 0.09000
C 	C 	0.41198 0.22689 0.58841 -0.05200
C 	C 	0.39132 0.26621 0.62973 -0.01000
C 	C 	0.32385 0.23601 0.64139 -0.03300
C 	C 	0.27603 0.16594 0.61229 -0.03100
C 	C 	0.29625 0.12398 0.57329 0.08200
C 	C 	0.36433 0.15526 0.56129 -0.05100
H 	H 	0.30869 0.26797 0.67189 0.04000
H 	H 	0.38006 0.12382 0.53077 0.05900
H 	H 	0.42760 0.32075 0.65220 0.04800
N 	N 	0.25076 0.05381 0.54770 -0.19600
H 	H 	0.19984 0.02726 0.55858 0.08800
H 	H 	0.26621 0.02413 0.51767 0.08500
C 	C 	0.82859 0.66915 0.94523 0.05800
C 	C 	0.78335 0.62220 0.89649 -0.09500
C 	C 	0.73933 0.54396 0.90806 0.05000
C 	C 	0.74068 0.51125 0.96802 -0.16600
C 	C 	0.78473 0.55881 0.01877 0.15700
C 	C 	0.82901 0.63763 0.00642 -0.12500
H 	H 	0.70441 0.50858 0.87007 0.01900
H 	H 	0.86354 0.67435 0.04449 0.06300
H 	H 	0.78227 0.64643 0.84951 0.05500
N 	N 	0.78434 0.52956 0.07932 -0.21100
H 	H 	0.74906 0.47243 0.09205 0.09500
H 	H 	0.81840 0.56474 0.11550 0.08500
C 	C 	0.79216 0.18756 0.90639 -0.05600
C 	C 	0.76584 0.11222 0.92487 -0.01100
C 	C 	0.80465 0.08352 0.91567 -0.03400
C 	C 	0.87042 0.12964 0.88792 -0.03100
C 	C 	0.89654 0.20476 0.86606 0.08000
C 	C 	0.85694 0.23313 0.87557 -0.05000
H 	H 	0.78411 0.02574 0.93174 0.04000
H 	H 	0.87696 0.29090 0.85989 0.05500
H 	H 	0.71536 0.07601 0.94713 0.04500
N 	N 	0.95923 0.24974 0.83624 -0.19600
H 	H 	0.98934 0.22985 0.82701 0.08700
H 	H 	0.97825 0.30532 0.82101 0.08400
C 	C 	0.37619 0.18021 0.07768 -0.05100
C 	C 	0.33070 0.10130 0.06940 -0.01100
C 	C 	0.26690 0.07180 0.04974 -0.03100
C 	C 	0.24741 0.12067 0.03911 -0.03300
C 	C 	0.29011 0.19906 0.05573 0.08400
C 	C 	0.35456 0.22836 0.07469 -0.05200
H 	H 	0.23368 0.01131 0.03935 0.04100
H 	H 	0.38843 0.28890 0.08456 0.05900
H 	H 	0.34601 0.06321 0.07431 0.04600
N 	N 	0.26959 0.24612 0.05373 -0.19700
H 	H 	0.22068 0.22502 0.04438 0.08900
H 	H 	0.30212 0.30436 0.06393 0.08700
