data_crystal

_cell_length_a 20.87281
_cell_length_b 21.41199
_cell_length_c 39.26618
_cell_angle_alpha 60.80782
_cell_angle_beta  118.91139
_cell_angle_gamma 133.11908

_symmetry_space_group_name_	'P 1'
_symmetry_space_group_name_H-M	'P 1'

loop_
_symmetry_equiv_pos_as_xyz
  x,y,z

loop_
_atom_site_label
_atom_site_type_symbol
_atom_site_fract_x
_atom_site_fract_y
_atom_site_fract_z
_atom_site_charge
H 	H 	0.17824 0.55362 0.14399 0.04100
H 	H 	0.18167 0.50932 0.68282 0.04200
Co	Co	0.02218 0.10029 0.07617 1.16600
Co	Co	0.07967 0.03046 0.04380 1.16600
Co	Co	0.08857 0.88333 0.04401 1.16400
C 	C 	0.25317 0.06051 0.05469 0.26700
O 	O 	0.03600 0.07953 0.18570 -0.40900
O 	O 	0.08422 0.13408 0.03695 -0.48600
C 	C 	0.11334 0.23997 0.11622 0.30700
C 	C 	0.12491 0.80567 0.13145 0.30400
O 	O 	0.08429 0.78742 0.09656 -0.42600
O 	O 	0.11160 0.84814 0.14020 -0.40100
O 	O 	0.12838 0.19941 0.10719 -0.40900
O 	O 	0.04959 0.92572 0.06386 -0.75600
O 	O 	0.22026 0.97646 0.06689 -0.38100
O 	O 	0.21757 0.08877 0.05881 -0.40400
Co	Co	0.01257 0.08634 0.57972 1.17000
Co	Co	0.06624 0.01717 0.54467 1.16200
Co	Co	0.08321 0.87381 0.54668 1.16600
C 	C 	0.23547 0.06466 0.54015 0.31300
O 	O 	0.06777 0.11905 0.53776 -0.49000
C 	C 	0.10664 0.20182 0.63759 0.29700
C 	C 	0.13647 0.81465 0.63474 0.29800
O 	O 	0.16904 0.87340 0.60278 -0.39700
O 	O 	0.07727 0.80686 0.64423 -0.39000
O 	O 	0.04879 0.13509 0.66046 -0.41500
O 	O 	0.11276 0.19061 0.60874 -0.39100
O 	O 	0.04804 0.91706 0.56820 -0.75700
O 	O 	0.18075 0.00108 0.52193 -0.44000
O 	O 	0.20334 0.08523 0.55173 -0.40500
C 	C 	0.05383 0.97471 0.81214 0.07400
C 	C 	0.04058 0.96281 0.77621 -0.05900
C 	C 	0.14665 0.01403 0.83986 -0.28800
H 	H 	0.09842 0.99415 0.76583 0.05200
H 	H 	0.14504 0.99856 0.87094 0.10200
H 	H 	0.18969 0.08662 0.82798 0.07400
H 	H 	0.17857 0.98687 0.84159 0.09800
H 	H 	0.04660 0.11653 0.79802 0.04500
C 	C 	0.05674 0.03740 0.37413 -0.14000
C 	C 	0.05705 0.04180 0.40888 0.05000
C 	C 	0.13939 0.11776 0.42756 -0.19300
H 	H 	0.11402 0.09028 0.36047 0.05000
C 	C 	0.03796 0.94192 0.28574 0.06200
C 	C 	0.02982 0.93541 0.32130 -0.09100
C 	C 	0.09169 0.91564 0.28852 -0.18800
H 	H 	0.06125 0.91050 0.35030 0.04700
H 	H 	0.16928 0.17959 0.40395 0.05900
H 	H 	0.19013 0.10348 0.44643 0.07000
H 	H 	0.12325 0.12950 0.44602 0.06200
H 	H 	0.12050 0.89276 0.32020 0.06200
H 	H 	0.14859 0.97288 0.27372 0.07600
H 	H 	0.04744 0.86080 0.27374 0.07200
C 	C 	0.18579 0.43221 0.61812 -0.09000
C 	C 	0.21963 0.44174 0.65732 -0.01200
C 	C 	0.16313 0.29098 0.64363 -0.11200
C 	C 	0.16480 0.36123 0.61096 0.09600
C 	C 	0.15067 0.36413 0.56890 -0.20300
H 	H 	0.18461 0.48493 0.59298 0.04700
H 	H 	0.16233 0.42732 0.54750 0.06200
H 	H 	0.08067 0.30988 0.55818 0.07200
H 	H 	0.19881 0.35806 0.56827 0.07800
C 	C 	0.25817 0.79382 0.67914 -0.01300
C 	C 	0.16625 0.75595 0.65995 -0.12000
C 	C 	0.11220 0.67102 0.65394 0.11800
C 	C 	0.15335 0.63807 0.65566 -0.10400
C 	C 	0.24675 0.67940 0.67164 -0.00500
H 	H 	0.29992 0.85650 0.68639 0.03700
H 	H 	0.11227 0.58025 0.64453 0.04700
C 	C 	0.01139 0.61345 0.64711 -0.29200
C 	C 	0.22594 0.39656 0.17413 -0.09000
C 	C 	0.23693 0.47129 0.14294 -0.01300
C 	C 	0.18750 0.32507 0.12763 -0.11400
C 	C 	0.20860 0.32709 0.16725 0.09300
C 	C 	0.21428 0.25643 0.20249 -0.20500
H 	H 	0.23906 0.39602 0.20456 0.04500
H 	H 	0.27867 0.28736 0.22504 0.06400
H 	H 	0.21293 0.21363 0.19354 0.07900
C 	C 	0.15187 0.69173 0.17881 -0.01800
C 	C 	0.18853 0.78146 0.15935 -0.11500
C 	C 	0.27471 0.83542 0.15213 0.10200
C 	C 	0.26601 0.70530 0.16647 -0.00700
C 	C 	0.19239 0.65395 0.18413 0.02300
C 	C 	0.15729 0.56053 0.20891 -0.17100
H 	H 	0.08892 0.64999 0.18757 0.02500
H 	H 	0.12700 0.54330 0.23159 0.05400
H 	H 	0.21242 0.55184 0.22559 0.06100
H 	H 	0.10428 0.51402 0.18923 0.05200
H 	H 	0.29903 0.95470 0.14806 0.09000
H 	H 	0.31108 0.21638 0.48441 0.03000
H 	H 	0.02612 0.30163 0.03237 0.08100
H 	H 	0.28572 0.10155 0.98639 0.03400
C 	C 	0.29107 0.55524 0.15399 0.03300
C 	C 	0.25070 0.58769 0.15432 -0.08000
C 	C 	0.24417 0.55826 0.67296 -0.08000
C 	C 	0.27651 0.53151 0.66256 0.03400
C 	C 	0.22245 0.37382 0.69008 0.02500
C 	C 	0.19513 0.29948 0.68298 -0.01900
H 	H 	0.19557 0.24648 0.70816 0.03400
C 	C 	0.29700 0.75196 0.68802 0.02400
C 	C 	0.20705 0.40278 0.09720 -0.01800
C 	C 	0.30754 0.79691 0.15118 -0.09200
C 	C 	0.30595 0.66656 0.16692 0.02900
C 	C 	0.29099 0.64890 0.66900 0.02900
Co	Co	0.00398 0.85981 0.10401 1.17400
C 	C 	0.04125 0.99367 0.96817 0.33900
O 	O 	0.10027 0.97563 0.98927 -0.41400
O 	O 	0.02054 0.01804 0.98432 -0.42600
O 	O 	0.02330 0.97417 0.59989 -0.57800
C 	C 	0.03981 0.05193 0.86102 -0.03900
C 	C 	0.05140 0.06337 0.89667 -0.02000
C 	C 	0.00191 0.99040 0.92539 -0.12100
C 	C 	0.08063 0.13222 0.82770 -0.14800
H 	H 	0.10032 0.12853 0.90236 0.02900
H 	H 	0.15355 0.16303 0.83448 0.04800
C 	C 	0.22630 0.47377 0.10389 0.02600
H 	H 	0.19787 0.40452 0.06719 0.03100
H 	H 	0.03440 0.35187 0.06183 0.08000
H 	H 	0.22338 0.39886 0.73737 0.05800
H 	H 	0.20982 0.53816 0.04020 0.05600
H 	H 	0.15744 0.21554 0.21675 0.07000
C 	C 	0.25757 0.38179 0.73257 -0.17200
H 	H 	0.24491 0.31890 0.75480 0.05400
C 	C 	0.23924 0.55345 0.06972 -0.17300
H 	H 	0.20520 0.57603 0.07026 0.05900
C 	C 	0.02159 0.00450 0.21018 0.21700
O 	O 	0.03068 0.20939 0.11142 -0.43200
H 	H 	0.07392 0.18157 0.82521 0.04900
H 	H 	0.00095 0.37291 0.49850 0.04500
H 	H 	0.02295 0.39547 0.00844 0.06700
O 	O 	0.01391 0.95039 0.19829 -0.36600
H 	H 	0.31245 0.60769 0.07234 0.06300
C 	C 	0.00198 0.33388 0.03285 -0.23200
C 	C 	0.99836 0.95134 0.47156 0.29200
H 	H 	0.99363 0.61480 0.11615 0.08700
C 	C 	0.98868 0.96504 0.85721 0.06900
C 	C 	0.97891 0.94765 0.82157 -0.01300
H 	H 	0.33768 0.96851 0.60128 0.10100
O 	O 	0.88439 0.95539 0.68542 -0.40700
C 	C 	0.93772 0.93104 0.70933 0.30300
O 	O 	0.96389 0.90888 0.69490 -0.37800
C 	C 	0.95279 0.91255 0.75331 -0.07900
H 	H 	0.86388 0.77717 0.95269 0.08400
C 	C 	0.99702 0.97480 0.24793 -0.04000
H 	H 	0.98068 0.59772 0.61769 0.10900
H 	H 	0.98947 0.55069 0.67082 0.09700
C 	C 	0.33409 0.93323 0.14755 -0.21300
H 	H 	0.39512 0.95126 0.17275 0.07500
H 	H 	0.35586 0.96899 0.11897 0.08900
C 	C 	0.35341 0.19346 0.50320 -0.01200
C 	C 	0.33045 0.12582 0.53818 -0.12100
C 	C 	0.34689 0.12925 0.00954 -0.03300
C 	C 	0.34166 0.12384 0.04525 -0.10300
H 	H 	0.36510 0.13942 0.94506 0.05200
C 	C 	0.72299 0.29871 0.01210 0.03300
C 	C 	0.64075 0.23577 0.02424 -0.08300
C 	C 	0.59742 0.26353 0.02535 0.03600
C 	C 	0.63988 0.35297 0.01864 -0.08300
C 	C 	0.72689 0.41531 0.01247 0.03700
C 	C 	0.76652 0.38941 0.00653 -0.08400
H 	H 	0.61111 0.16602 0.03304 0.04300
H 	H 	0.60772 0.37356 0.02139 0.05100
H 	H 	0.83121 0.43906 0.99857 0.05100
C 	C 	0.71086 0.27740 0.51792 0.03200
C 	C 	0.76707 0.35752 0.52946 -0.08000
C 	C 	0.72783 0.38918 0.53135 0.03400
C 	C 	0.63447 0.34034 0.52316 -0.08100
C 	C 	0.57875 0.26045 0.51307 0.03300
C 	C 	0.61625 0.23226 0.50735 -0.08100
H 	H 	0.83987 0.39393 0.53727 0.05000
H 	H 	0.60490 0.36287 0.52653 0.05100
H 	H 	0.57211 0.17391 0.49618 0.04400
C 	C 	0.40081 0.71438 0.17590 -0.07900
C 	C 	0.43906 0.68578 0.17117 0.03400
C 	C 	0.38468 0.60357 0.16358 -0.08100
H 	H 	0.44461 0.77538 0.18494 0.04900
H 	H 	0.41539 0.58011 0.16195 0.05100
C 	C 	0.35933 0.59288 0.65226 -0.08200
C 	C 	0.40910 0.68181 0.65024 0.03500
C 	C 	0.37399 0.71076 0.65734 -0.08000
H 	H 	0.38447 0.57145 0.64484 0.05200
H 	H 	0.40958 0.78060 0.65277 0.04700
Co	Co	0.95239 0.93180 0.13916 1.18900
C 	C 	0.90363 0.73035 0.05221 0.29700
Co	Co	0.93784 0.07901 0.13514 1.17000
O 	O 	0.96905 0.03174 0.11404 -0.75900
O 	O 	0.95440 0.83106 0.14740 -0.46200
O 	O 	0.98947 0.96991 0.08316 -0.56000
C 	C 	0.78595 0.88623 0.14493 0.31300
O 	O 	0.84245 0.95211 0.16194 -0.39600
O 	O 	0.81583 0.86485 0.13241 -0.38900
C 	C 	0.87625 0.13172 0.04757 0.29900
O 	O 	0.84689 0.07646 0.08057 -0.40800
O 	O 	0.93100 0.13500 0.03709 -0.37500
O 	O 	0.95263 0.79439 0.02558 -0.39400
O 	O 	0.90194 0.74709 0.08042 -0.37600
Co	Co	0.98946 0.84516 0.60417 1.19200
Co	Co	0.92160 0.90980 0.63389 1.18900
C 	C 	0.90456 0.71157 0.56203 0.30600
Co	Co	0.91435 0.05731 0.63449 1.16400
O 	O 	0.95826 0.01643 0.61682 -0.76700
O 	O 	0.91735 0.80668 0.64003 -0.46700
C 	C 	0.74717 0.88900 0.61281 0.29700
O 	O 	0.78490 0.97376 0.60475 -0.38200
O 	O 	0.78548 0.86198 0.60979 -0.39400
O 	O 	0.99131 0.87773 0.49352 -0.39000
O 	O 	0.99663 0.99434 0.48652 -0.36700
C 	C 	0.90049 0.15121 0.54902 0.30000
O 	O 	0.93600 0.16339 0.58493 -0.40800
O 	O 	0.91085 0.10565 0.54094 -0.39400
O 	O 	0.98793 0.74244 0.56802 -0.41000
O 	O 	0.88737 0.75110 0.57042 -0.39700
C 	C 	0.89172 0.89442 0.79943 -0.07700
C 	C 	0.87894 0.86838 0.76886 0.09000
C 	C 	0.78622 0.79513 0.75230 -0.20100
H 	H 	0.83346 0.86996 0.80715 0.04800
C 	C 	0.93514 0.90747 0.91607 0.13200
C 	C 	0.93617 0.89343 0.88505 -0.12000
C 	C 	0.86061 0.83445 0.93782 -0.22500
H 	H 	0.89230 0.82696 0.88136 0.05800
H 	H 	0.75401 0.82300 0.72382 0.07900
H 	H 	0.74236 0.75320 0.77371 0.06500
H 	H 	0.79112 0.75189 0.74734 0.07000
H 	H 	0.79434 0.81393 0.91593 0.07400
H 	H 	0.86444 0.85458 0.96037 0.09500
C 	C 	0.98369 0.96473 0.35728 0.05300
C 	C 	0.90764 0.89761 0.37423 0.01700
C 	C 	0.90601 0.90499 0.40752 -0.02100
C 	C 	0.98365 0.97147 0.42751 -0.05600
C 	C 	0.98385 0.96374 0.31953 -0.00400
C 	C 	0.83063 0.81591 0.35848 -0.16800
H 	H 	0.84690 0.85468 0.41991 0.03800
C 	C 	0.94246 0.99563 0.28185 0.06200
C 	C 	0.94650 0.99775 0.24663 -0.01300
C 	C 	0.89961 0.03371 0.27888 -0.23500
H 	H 	0.91638 0.02449 0.21789 0.00700
H 	H 	0.85644 0.78297 0.36013 0.06300
H 	H 	0.79758 0.83342 0.32684 0.06000
H 	H 	0.77846 0.76771 0.37626 0.05600
H 	H 	0.86987 0.05569 0.24723 0.06300
H 	H 	0.95130 0.09177 0.29210 0.07400
H 	H 	0.84463 0.98364 0.29508 0.08900
H 	H 	0.33149 0.43406 0.73836 0.06000
C 	C 	0.56129 0.72169 0.66599 -0.08600
C 	C 	0.49946 0.74318 0.64168 -0.01200
C 	C 	0.51444 0.80558 0.60419 0.03100
C 	C 	0.59233 0.84728 0.59273 -0.01700
C 	C 	0.65351 0.82526 0.61731 -0.10500
C 	C 	0.63209 0.75519 0.65185 0.09000
C 	C 	0.67701 0.70927 0.67073 -0.20000
H 	H 	0.54855 0.67179 0.69412 0.04600
H 	H 	0.60593 0.89770 0.56489 0.04400
C 	C 	0.44886 0.82913 0.57659 -0.17600
H 	H 	0.65402 0.65651 0.69810 0.06400
H 	H 	0.75140 0.75685 0.67936 0.06500
H 	H 	0.66015 0.67841 0.64897 0.07600
H 	H 	0.45305 0.86806 0.58954 0.06300
H 	H 	0.37877 0.76866 0.57196 0.06400
H 	H 	0.46429 0.86963 0.54655 0.06300
C 	C 	0.38834 0.78168 0.71669 -0.17400
H 	H 	0.39487 0.79934 0.74107 0.06200
H 	H 	0.44227 0.84094 0.70055 0.06200
H 	H 	0.39839 0.72874 0.73121 0.06400
H 	H 	0.98618 0.64432 0.64792 0.11200
C 	C 	0.54721 0.79785 0.12786 -0.08800
C 	C 	0.53242 0.74740 0.16654 -0.00900
C 	C 	0.59986 0.73790 0.19731 0.02900
C 	C 	0.67821 0.77384 0.18824 -0.01200
C 	C 	0.69289 0.82407 0.14950 -0.11200
C 	C 	0.62520 0.83331 0.11870 0.10000
C 	C 	0.63768 0.88515 0.07650 -0.21200
H 	H 	0.49521 0.80494 0.10420 0.05000
H 	H 	0.73043 0.76717 0.21195 0.03900
C 	C 	0.58691 0.68645 0.23946 -0.17300
H 	H 	0.57148 0.85847 0.05438 0.07100
H 	H 	0.68005 0.88147 0.06919 0.08500
H 	H 	0.66963 0.95513 0.07300 0.08900
H 	H 	0.54113 0.61464 0.24129 0.06100
H 	H 	0.55723 0.70268 0.24813 0.06200
H 	H 	0.65223 0.70246 0.26150 0.06000
H 	H 	0.36676 0.83878 0.13950 0.05100
C 	C 	0.74971 0.11431 0.53178 -0.02800
C 	C 	0.83333 0.17117 0.52205 -0.10300
C 	C 	0.86441 0.25983 0.50149 0.08600
C 	C 	0.82246 0.29314 0.49934 -0.08100
C 	C 	0.75079 0.23923 0.51812 -0.01200
C 	C 	0.71618 0.14857 0.53594 0.02900
C 	C 	0.65019 0.08988 0.56219 -0.17300
H 	H 	0.71823 0.04425 0.54213 0.03900
H 	H 	0.84687 0.36123 0.48377 0.04900
C 	C 	0.94292 0.31994 0.48247 -0.17400
H 	H 	0.65945 0.03818 0.58557 0.05200
H 	H 	0.57991 0.05627 0.54380 0.05100
H 	H 	0.66057 0.12778 0.57829 0.05900
H 	H 	0.96409 0.28382 0.48307 0.07000
H 	H 	0.92372 0.35081 0.45061 0.06400
C 	C 	0.79812 0.54907 0.50872 -0.08800
C 	C 	0.78291 0.47477 0.54090 -0.01000
C 	C 	0.79039 0.47562 0.57855 0.02800
C 	C 	0.80896 0.54887 0.58263 -0.01900
C 	C 	0.83201 0.62571 0.55136 -0.11100
C 	C 	0.81559 0.62124 0.51300 0.09700
C 	C 	0.81831 0.69379 0.47656 -0.20900
H 	H 	0.78847 0.54756 0.47932 0.04900
H 	H 	0.81532 0.54951 0.61156 0.03300
C 	C 	0.77482 0.39716 0.61393 -0.17400
H 	H 	0.88200 0.73472 0.46731 0.07900
H 	H 	0.81313 0.73585 0.48240 0.08400
H 	H 	0.76053 0.66523 0.45139 0.06600
H 	H 	0.80583 0.36980 0.61496 0.06200
H 	H 	0.70117 0.34531 0.61146 0.06300
H 	H 	0.80569 0.41584 0.64267 0.05800
C 	C 	0.38904 0.10024 0.56385 0.10200
C 	C 	0.46274 0.13441 0.55161 -0.09600
C 	C 	0.48414 0.20023 0.51597 -0.01000
C 	C 	0.42555 0.22584 0.49037 0.02300
C 	C 	0.44268 0.29145 0.45038 -0.17200
H 	H 	0.50773 0.11481 0.57144 0.04400
C 	C 	0.37266 0.03520 0.60398 -0.24500
H 	H 	0.37874 0.28168 0.42903 0.05500
H 	H 	0.47179 0.28340 0.43673 0.06000
H 	H 	0.49017 0.35959 0.45439 0.06100
H 	H 	0.33189 0.03348 0.61535 0.08100
H 	H 	0.43785 0.05397 0.62662 0.06800
C 	C 	0.86102 0.31101 0.02445 -0.09600
C 	C 	0.76757 0.26933 0.00890 -0.01000
C 	C 	0.71671 0.19560 0.99322 0.03000
C 	C 	0.75486 0.15274 0.00275 -0.02200
C 	C 	0.84669 0.19054 0.02185 -0.11200
C 	C 	0.90145 0.27648 0.02694 0.11900
H 	H 	0.90262 0.37012 0.03467 0.05300
H 	H 	0.71263 0.08931 0.99612 0.03100
C 	C 	0.62464 0.16474 0.96513 -0.17300
H 	H 	0.61479 0.21792 0.94994 0.06100
H 	H 	0.57161 0.10689 0.98197 0.05200
H 	H 	0.61645 0.14454 0.94126 0.05600
C 	C 	0.84043 0.51587 0.05780 -0.08500
C 	C 	0.78113 0.50259 0.02005 -0.01500
C 	C 	0.75384 0.55930 0.99575 0.03500
C 	C 	0.77924 0.62224 0.01118 -0.02500
C 	C 	0.84318 0.63941 0.04768 -0.10400
C 	C 	0.86821 0.58093 0.07258 0.09600
C 	C 	0.92424 0.58662 0.11489 -0.20900
H 	H 	0.85987 0.47125 0.07698 0.05000
H 	H 	0.75464 0.66273 0.99326 0.03800
C 	C 	0.69446 0.55047 0.95405 -0.17700
H 	H 	0.89496 0.51950 0.13542 0.07000
H 	H 	0.92682 0.62678 0.12624 0.08600
H 	H 	0.62250 0.49978 0.95556 0.06200
H 	H 	0.71107 0.53125 0.93948 0.06300
H 	H 	0.70427 0.61416 0.93482 0.05800
C 	C 	0.42091 0.15918 0.07555 0.08800
C 	C 	0.50288 0.19286 0.07093 -0.08800
C 	C 	0.50845 0.19952 0.03494 -0.01500
C 	C 	0.42941 0.16595 0.00427 0.02700
C 	C 	0.43314 0.17065 0.96560 -0.17000
H 	H 	0.56408 0.22077 0.09403 0.04600
C 	C 	0.42023 0.16945 0.11073 -0.19700
H 	H 	0.46081 0.13546 0.97210 0.05400
H 	H 	0.47668 0.24060 0.94974 0.06000
H 	H 	0.48409 0.18714 0.13426 0.05900
H 	H 	0.36420 0.10738 0.12492 0.06400
H 	H 	0.41207 0.22256 0.10028 0.07300
