data_crystal

_cell_length_a 14.80879
_cell_length_b 15.50807
_cell_length_c 26.31604
_cell_angle_alpha 95.39653
_cell_angle_beta  95.39682
_cell_angle_gamma 126.69828

_symmetry_space_group_name_	'P 1'
_symmetry_space_group_name_H-M	'P 1'

loop_
_symmetry_equiv_pos_as_xyz
  x,y,z

loop_
_atom_site_label
_atom_site_type_symbol
_atom_site_fract_x
_atom_site_fract_y
_atom_site_fract_z
_atom_site_charge
C 	C 	0.07565 0.01867 0.98228 0.11400
H 	H 	0.76600 0.00898 0.99224 0.06000
C 	C 	0.89320 0.01369 0.49073 0.08000
C 	C 	0.72296 0.00685 0.47161 -0.16700
F 	F 	0.36206 0.06606 0.21573 -0.43300
C 	C 	0.06386 0.03460 0.48851 0.11200
F 	F 	0.53592 0.03951 0.62774 -0.43400
C 	C 	0.84633 0.05138 0.97807 -0.00400
H 	H 	0.24632 0.06634 0.01335 0.04600
N 	N 	0.02099 0.06445 0.97928 -0.10600
O 	O 	0.61633 0.04667 0.41843 -0.39400
C 	C 	0.67225 0.06360 0.46449 0.32300
C 	C 	0.83356 0.06300 0.49424 0.01700
C 	C 	0.24935 0.06713 0.49347 -0.15100
C 	C 	0.50052 0.07616 0.66511 0.75500
N 	N 	0.00869 0.07923 0.49385 -0.10600
F 	F 	0.47974 0.08349 0.28339 -0.48400
C 	C 	0.20137 0.08705 0.98869 0.03200
F 	F 	0.42166 0.08712 0.64103 -0.43700
C 	C 	0.90525 0.00107 0.97612 0.08900
F 	F 	0.44667 0.99731 0.69565 -0.39600
H 	H 	0.20626 0.98076 0.49351 0.15000
N 	N 	0.01483 0.91014 0.98262 -0.08500
C 	C 	0.89927 0.84629 0.97888 0.13500
N 	N 	0.84480 0.89211 0.97604 -0.10100
N 	N 	0.83323 0.90323 0.48343 -0.10300
C 	C 	0.88842 0.85853 0.47828 0.12600
N 	N 	0.00317 0.92415 0.47999 -0.09000
Cu	Cu	0.79166 0.35512 0.94578 0.94000
Cu	Cu	0.78130 0.26746 0.05575 0.87800
Cu	Cu	0.60624 0.29140 0.01025 0.89400
Cu	Cu	0.58400 0.35597 0.90857 0.90600
C 	C 	0.71306 0.32758 0.83698 0.28900
O 	O 	0.86272 0.51514 0.94755 -0.31100
C 	C 	0.67772 0.32337 0.12412 0.30300
O 	O 	0.61328 0.26741 0.93859 -0.63300
O 	O 	0.77503 0.36695 0.01936 -0.65000
O 	O 	0.87592 0.29167 0.95014 -0.33800
O 	O 	0.75776 0.16863 0.99800 -0.41400
O 	O 	0.66846 0.37719 0.85012 -0.33000
O 	O 	0.44147 0.21036 0.99648 -0.35400
C 	C 	0.38239 0.22325 0.96132 0.32000
C 	C 	0.81573 0.55840 0.96593 0.31200
O 	O 	0.70743 0.49482 0.97033 -0.36200
O 	O 	0.43225 0.29298 0.92941 -0.36700
O 	O 	0.77706 0.32030 0.87212 -0.30500
C 	C 	0.83571 0.20180 0.96869 0.30900
O 	O 	0.59464 0.28789 0.08430 -0.36100
O 	O 	0.77017 0.33252 0.11776 -0.35600
H 	H 	0.56316 0.18945 0.92127 0.18000
H 	H 	0.82202 0.44260 0.03956 0.20600
Cu	Cu	0.60334 0.19422 0.50787 0.93200
Cu	Cu	0.64639 0.16704 0.39031 0.90800
Cu	Cu	0.62268 0.35376 0.44146 0.91800
Cu	Cu	0.57523 0.37357 0.54809 0.90600
C 	C 	0.64356 0.27238 0.61783 0.29300
O 	O 	0.43513 0.10761 0.51377 -0.31900
C 	C 	0.64413 0.31827 0.33779 0.30400
O 	O 	0.67143 0.35950 0.51251 -0.64000
O 	O 	0.56592 0.19808 0.43401 -0.62400
O 	O 	0.70039 0.14428 0.50099 -0.35700
O 	O 	0.57907 0.30348 0.60737 -0.33500
O 	O 	0.68718 0.50648 0.45114 -0.36200
C 	C 	0.68159 0.56026 0.49125 0.31300
C 	C 	0.37511 0.14105 0.49897 0.32300
O 	O 	0.42789 0.24178 0.49131 -0.37900
O 	O 	0.61385 0.50877 0.52446 -0.36900
O 	O 	0.65799 0.21985 0.58096 -0.30500
O 	O 	0.59533 0.34596 0.36722 -0.32000
O 	O 	0.70952 0.29517 0.35890 -0.39100
H 	H 	0.75460 0.41625 0.52595 0.17700
H 	H 	0.48270 0.14633 0.41965 0.20000
C 	C 	0.62074 0.20246 0.75168 0.04300
C 	C 	0.71377 0.30371 0.78162 0.01000
C 	C 	0.79684 0.38673 0.75700 -0.09000
C 	C 	0.77640 0.37180 0.70242 0.05000
C 	C 	0.67762 0.27418 0.67253 0.00600
C 	C 	0.60281 0.18587 0.69704 -0.08400
H 	H 	0.55915 0.13861 0.77102 0.07200
H 	H 	0.83421 0.43813 0.68317 0.07500
C 	C 	0.90360 0.49356 0.78884 0.78000
F 	F 	0.95697 0.47251 0.82605 -0.43000
F 	F 	0.87373 0.55382 0.81313 -0.43400
F 	F 	0.98186 0.55604 0.75811 -0.43100
C 	C 	0.56066 0.24095 0.19151 0.05300
C 	C 	0.65673 0.33271 0.17735 0.00000
C 	C 	0.73774 0.42789 0.21553 -0.09300
C 	C 	0.73071 0.42281 0.26825 0.05800
C 	C 	0.63910 0.32799 0.28269 -0.00100
C 	C 	0.54967 0.23852 0.24399 -0.10000
C 	C 	0.44630 0.13778 0.25882 0.78000
H 	H 	0.49744 0.16947 0.16184 0.07600
H 	H 	0.79812 0.49156 0.29817 0.08000
C 	C 	0.83460 0.53315 0.20067 0.78200
F 	F 	0.39895 0.16822 0.29207 -0.44100
F 	F 	0.79653 0.54988 0.15531 -0.44500
F 	F 	0.92237 0.52750 0.19354 -0.43800
F 	F 	0.87749 0.62266 0.23916 -0.42600
C 	C 	0.82447 0.73928 0.47010 -0.00400
C 	C 	0.73609 0.67728 0.49406 -0.11300
H 	H 	0.85643 0.70311 0.44809 0.07100
H 	H 	0.70873 0.71472 0.51872 0.10300
H 	H 	0.88355 0.14946 0.51109 0.05500
H 	H 	0.67436 0.92205 0.45224 0.13800
C 	C 	0.18917 0.10654 0.49131 0.01600
H 	H 	0.23338 0.19367 0.49310 0.06400
C 	C 	0.83183 0.72653 0.97555 0.00100
C 	C 	0.88316 0.67843 0.97816 -0.09600
H 	H 	0.73880 0.67660 0.96853 0.07300
H 	H 	0.97608 0.72795 0.98506 0.11100
C 	C 	0.88902 0.14666 0.96199 -0.12500
H 	H 	0.96516 0.18542 0.94458 0.09700
C 	C 	0.25842 0.16474 0.96007 -0.12300
H 	H 	0.21231 0.18208 0.93380 0.10300
