data_crystal

_cell_length_a 17.62849
_cell_length_b 16.70557
_cell_length_c 48.98606
_cell_angle_alpha 90.76492
_cell_angle_beta  91.04892
_cell_angle_gamma 110.76522

_symmetry_space_group_name_	'P 1'
_symmetry_space_group_name_H-M	'P 1'

loop_
_symmetry_equiv_pos_as_xyz
  x,y,z

loop_
_atom_site_label
_atom_site_type_symbol
_atom_site_fract_x
_atom_site_fract_y
_atom_site_fract_z
_atom_site_charge
O 	O 	0.09233 0.89723 0.75250 -0.69600
Ni	Ni	0.11830 0.00971 0.77332 1.12000
O 	O 	0.13243 0.81595 0.70246 -0.32500
Ni	Ni	0.19162 0.90469 0.73340 1.09500
O 	O 	0.18314 0.00249 0.71045 -0.34200
O 	O 	0.21295 0.00294 0.79647 -0.29100
O 	O 	0.02516 0.01160 0.74849 -0.69800
O 	O 	0.12099 0.11749 0.79513 -0.25900
H 	H 	0.07405 0.84655 0.76420 0.23800
H 	H 	0.04156 0.06230 0.73672 0.21900
C 	C 	0.20339 0.08067 0.72074 0.28400
C 	C 	0.05522 0.76639 0.70216 0.27000
C 	C 	0.27777 0.99786 0.78487 0.29800
C 	C 	0.05379 0.12507 0.80401 0.25300
O 	O 	0.19886 0.09287 0.74731 -0.30700
O 	O 	0.27963 0.98993 0.75804 -0.33600
Ni	Ni	0.33572 0.79385 0.40294 1.11000
O 	O 	0.33182 0.71137 0.37071 -0.68900
Ni	Ni	0.22069 0.69503 0.35521 1.10900
O 	O 	0.42861 0.77655 0.42494 -0.29400
O 	O 	0.42939 0.64958 0.40818 -0.33100
O 	O 	0.42019 0.89504 0.38413 -0.30000
Ni	Ni	0.32757 0.59820 0.38281 1.09600
O 	O 	0.31977 0.97338 0.40075 -0.37700
O 	O 	0.25060 0.60254 0.41305 -0.41100
O 	O 	0.21438 0.60359 0.32649 -0.30600
O 	O 	0.23204 0.78677 0.38440 -0.71100
O 	O 	0.33160 0.87790 0.43253 -0.35200
O 	O 	0.11430 0.70265 0.34037 -0.30800
O 	O 	0.17120 0.84750 0.33590 -0.37000
Ni	Ni	0.24871 0.89934 0.36939 1.07800
H 	H 	0.37246 0.73437 0.35652 0.24000
H 	H 	0.18572 0.76976 0.39675 0.17600
C 	C 	0.17545 0.59665 0.40737 0.27600
O 	O 	0.34563 0.90206 0.34659 -0.37100
C 	C 	0.43114 0.70019 0.42908 0.28900
C 	C 	0.21857 0.53007 0.33376 0.31800
C 	C 	0.41620 0.91098 0.35813 0.28700
C 	C 	0.10654 0.77739 0.33766 0.32100
C 	C 	0.31958 0.94926 0.42653 0.29500
O 	O 	0.15238 0.60386 0.38194 -0.35100
O 	O 	0.23348 0.51794 0.35954 -0.37500
Ni	Ni	0.38931 0.64244 0.13491 1.11900
O 	O 	0.29913 0.63008 0.10612 -0.68800
Ni	Ni	0.22509 0.67434 0.12705 1.10500
O 	O 	0.43251 0.55598 0.11650 -0.30500
O 	O 	0.30474 0.46299 0.11052 -0.36200
O 	O 	0.46969 0.73757 0.11250 -0.32400
Ni	Ni	0.23404 0.51907 0.09008 1.08500
O 	O 	0.50049 0.81131 0.16188 -0.32300
O 	O 	0.13631 0.47350 0.11514 -0.38200
O 	O 	0.12258 0.63761 0.10175 -0.35000
O 	O 	0.32376 0.70253 0.15325 -0.69300
O 	O 	0.47743 0.66713 0.16447 -0.28400
O 	O 	0.17471 0.74170 0.15155 -0.32500
O 	O 	0.28934 0.86136 0.15104 -0.32700
Ni	Ni	0.38979 0.82388 0.15555 1.11600
H 	H 	0.32044 0.66905 0.09082 0.15900
H 	H 	0.30867 0.67963 0.17171 0.24200
C 	C 	0.13710 0.49162 0.14134 0.32700
O 	O 	0.40550 0.83463 0.11453 -0.38700
C 	C 	0.38124 0.48786 0.10397 0.29900
C 	C 	0.11796 0.60387 0.07679 0.28900
C 	C 	0.45270 0.80129 0.10189 0.29300
C 	C 	0.21869 0.81801 0.16165 0.29300
C 	C 	0.51223 0.74622 0.17423 0.28600
O 	O 	0.17464 0.56987 0.15088 -0.32300
O 	O 	0.17627 0.58012 0.06719 -0.40400
O 	O 	0.05772 0.18877 0.25329 -0.35600
O 	O 	0.10552 0.03629 0.25427 -0.35400
O 	O 	0.02873 0.04287 0.21680 -0.30600
Ni	Ni	0.03586 0.02132 0.28791 1.08200
O 	O 	0.07908 0.14915 0.29625 -0.33100
C 	C 	0.06998 0.20620 0.27969 0.27600
C 	C 	0.07506 0.00773 0.22966 0.28200
C 	C 	0.99982 0.38639 0.14967 0.10700
C 	C 	0.08011 0.42843 0.15904 -0.03300
C 	C 	0.10506 0.40921 0.18500 -0.06000
C 	C 	0.04744 0.35160 0.20161 0.01300
C 	C 	0.96949 0.30370 0.19129 0.06500
H 	H 	0.98075 0.40345 0.13012 0.08800
H 	H 	0.06476 0.33962 0.22207 0.08800
C 	C 	0.19251 0.45012 0.19525 0.77600
F 	F 	0.20630 0.53281 0.20444 -0.40800
F 	F 	0.24593 0.45167 0.17473 -0.44400
F 	F 	0.20893 0.40475 0.21653 -0.40800
C 	C 	0.09859 0.84914 0.17736 0.07500
C 	C 	0.18131 0.86177 0.18074 0.01500
C 	C 	0.22685 0.91489 0.20258 -0.07800
C 	C 	0.19195 0.96481 0.21756 0.07000
C 	C 	0.10939 0.95281 0.21398 0.03100
C 	C 	0.06071 0.88881 0.19526 -0.10500
C 	C 	0.96890 0.86307 0.19394 0.80800
H 	H 	0.06352 0.80786 0.16087 0.09500
H 	H 	0.22903 0.01299 0.23206 0.10400
C 	C 	0.31254 0.91966 0.20989 0.77800
F 	F 	0.36662 0.97409 0.19233 -0.44300
F 	F 	0.31863 0.83940 0.20819 -0.47000
F 	F 	0.33434 0.95060 0.23635 -0.39400
C 	C 	0.09847 0.40126 0.32455 0.08100
C 	C 	0.17533 0.45429 0.31668 0.00200
C 	C 	0.21164 0.43164 0.29383 -0.06900
C 	C 	0.17111 0.35299 0.28008 0.05300
C 	C 	0.09728 0.29581 0.28957 0.01200
C 	C 	0.06035 0.32027 0.31233 -0.12900
C 	C 	0.97634 0.26617 0.32204 0.80900
H 	H 	0.06914 0.42237 0.34099 0.08500
H 	H 	0.19972 0.33309 0.26324 0.12800
C 	C 	0.29412 0.49021 0.28453 0.78000
F 	F 	0.95825 0.17934 0.31833 -0.51200
F 	F 	0.35091 0.50368 0.30560 -0.42200
F 	F 	0.28965 0.56799 0.27705 -0.38500
F 	F 	0.32061 0.45589 0.26238 -0.37200
C 	C 	0.99550 0.80617 0.36084 0.15700
C 	C 	0.02544 0.78305 0.33683 -0.10900
C 	C 	0.98377 0.78052 0.31169 0.00400
C 	C 	0.92428 0.81857 0.31048 -0.00600
C 	C 	0.91156 0.86286 0.33342 0.04800
C 	C 	0.93551 0.84320 0.35929 -0.12800
C 	C 	0.90779 0.87428 0.38502 0.79600
H 	H 	0.02354 0.80207 0.38041 0.01100
C 	C 	0.00878 0.74673 0.28581 0.71400
F 	F 	0.90481 0.81940 0.40623 -0.41500
F 	F 	0.83103 0.87766 0.38106 -0.38000
F 	F 	0.96147 0.95514 0.39217 -0.41900
F 	F 	0.02067 0.67064 0.29077 -0.39300
F 	F 	0.08007 0.80627 0.27672 -0.43300
C 	C 	0.42269 0.13304 0.47537 -0.05200
C 	C 	0.39890 0.08859 0.45034 0.03900
C 	C 	0.32982 0.01262 0.44884 -0.07200
C 	C 	0.28130 0.98740 0.47181 0.02600
C 	C 	0.44849 0.11842 0.42678 0.11000
C 	C 	0.31668 0.20729 0.53298 0.11800
N 	N 	0.48823 0.14225 0.40791 -0.06900
N 	N 	0.26344 0.22651 0.52503 -0.08900
H 	H 	0.47739 0.18962 0.47675 0.06800
H 	H 	0.22679 0.93074 0.47052 0.05800
C 	C 	0.00585 0.47819 0.46921 0.01300
C 	C 	0.03946 0.56759 0.46818 -0.04500
C 	C 	0.09192 0.60735 0.44736 0.02900
C 	C 	0.11281 0.55712 0.42753 -0.06800
C 	C 	0.07734 0.46749 0.42811 0.03100
C 	C 	0.02383 0.42780 0.44880 -0.05800
C 	C 	0.12244 0.69952 0.44641 0.07600
N 	N 	0.14596 0.77353 0.44613 -0.11300
H 	H 	0.02486 0.60630 0.48374 0.07000
H 	H 	0.09240 0.42870 0.41268 0.06200
C 	C 	0.50497 0.52075 0.53959 -0.03700
C 	C 	0.50456 0.63508 0.50690 0.02800
C 	C 	0.43860 0.66290 0.50489 -0.04700
C 	C 	0.41547 0.68651 0.47971 0.02700
C 	C 	0.45824 0.68138 0.45605 -0.05500
C 	C 	0.52544 0.65519 0.45816 0.02300
C 	C 	0.54925 0.63277 0.48349 -0.02700
C 	C 	0.34713 0.71490 0.47831 0.08600
C 	C 	0.46168 0.45519 0.51965 0.09900
N 	N 	0.29245 0.73778 0.47736 -0.10100
N 	N 	0.42710 0.40273 0.50365 -0.10500
H 	H 	0.40487 0.66555 0.52299 0.07400
H 	H 	0.55926 0.65250 0.44010 0.09000
C 	C 	0.34361 0.19097 0.66597 0.06500
C 	C 	0.40042 0.25556 0.68204 0.01200
C 	C 	0.37583 0.28184 0.70689 -0.05700
C 	C 	0.30098 0.23093 0.71772 0.06700
C 	C 	0.25274 0.15450 0.70419 0.03700
C 	C 	0.26737 0.14339 0.67634 -0.09900
C 	C 	0.20236 0.08356 0.65744 0.78800
H 	H 	0.36004 0.17526 0.64590 0.07500
H 	H 	0.28354 0.24681 0.73757 0.13600
C 	C 	0.42989 0.36215 0.72207 0.78700
F 	F 	0.20783 0.11763 0.63163 -0.42500
F 	F 	0.12555 0.07146 0.66685 -0.44000
F 	F 	0.21269 0.00543 0.65547 -0.43300
F 	F 	0.39202 0.38094 0.74449 -0.37600
C 	C 	0.95038 0.48275 0.02821 0.00700
C 	C 	0.02248 0.65144 0.04863 -0.00300
C 	C 	0.04337 0.58488 0.06014 -0.04600
C 	C 	0.00292 0.50026 0.05100 -0.01900
C 	C 	0.91633 0.39604 0.01743 0.10600
C 	C 	0.05947 0.73845 0.05886 0.10700
N 	N 	0.08046 0.65285 0.96341 -0.08100
N 	N 	0.08912 0.80817 0.06706 -0.08800
H 	H 	0.01709 0.44866 0.06043 0.05600
C 	C 	0.50635 0.81561 0.02755 -0.03100
C 	C 	0.54619 0.90459 0.02496 0.02900
C 	C 	0.53349 0.92506 0.07364 0.03700
C 	C 	0.48869 0.83684 0.07588 -0.05800
C 	C 	0.47768 0.78219 0.05298 0.01800
C 	C 	0.50206 0.96026 0.98325 -0.03700
C 	C 	0.49472 0.75834 0.00422 0.10700
N 	N 	0.40419 0.04298 0.93421 -0.05800
N 	N 	0.48550 0.71250 0.98552 -0.09400
H 	H 	0.44540 0.71391 0.05486 0.03800
H 	H 	0.44068 0.93736 0.99077 0.06800
C 	C 	0.42469 0.42867 0.02173 0.03200
C 	C 	0.45970 0.39904 0.04354 -0.05700
C 	C 	0.44678 0.41862 0.07062 0.05000
C 	C 	0.39937 0.46927 0.07589 -0.09800
C 	C 	0.36689 0.50125 0.05404 0.01600
C 	C 	0.48201 0.38626 0.09277 0.11100
C 	C 	0.34284 0.25866 0.99781 0.11100
N 	N 	0.51025 0.36033 0.11053 -0.05300
N 	N 	0.29766 0.20567 0.01052 -0.09400
H 	H 	0.49652 0.36040 0.03942 0.07100
F 	F 	0.16851 0.16720 0.85235 -0.40200
F 	F 	0.04756 0.07605 0.86595 -0.41300
C 	C 	0.48559 0.13964 0.81250 0.05500
C 	C 	0.49969 0.08747 0.83250 0.01500
C 	C 	0.44529 0.00220 0.83489 -0.08700
C 	C 	0.37247 0.97429 0.81924 0.06700
C 	C 	0.35550 0.02878 0.80051 0.01600
C 	C 	0.41239 0.11288 0.79721 -0.07700
C 	C 	0.39457 0.17477 0.77798 0.78100
H 	H 	0.32847 0.91047 0.82180 0.09900
C 	C 	0.46327 0.94205 0.85480 0.78600
F 	F 	0.45257 0.25623 0.78045 -0.38400
F 	F 	0.32043 0.18093 0.78386 -0.41800
F 	F 	0.39367 0.14620 0.75134 -0.43200
F 	F 	0.44851 0.96295 0.88107 -0.42200
F 	F 	0.54357 0.94867 0.85324 -0.42900
F 	F 	0.41530 0.85759 0.84916 -0.41300
Ni	Ni	0.61254 0.25426 0.89999 1.10300
O 	O 	0.63055 0.33173 0.86640 -0.69000
Ni	Ni	0.74947 0.35324 0.86098 1.11000
O 	O 	0.50740 0.26821 0.91255 -0.33400
O 	O 	0.50932 0.39000 0.89210 -0.34300
O 	O 	0.54267 0.14855 0.87726 -0.32200
Ni	Ni	0.62174 0.44399 0.87443 1.09700
O 	O 	0.63923 0.08048 0.90450 -0.34000
O 	O 	0.68061 0.45097 0.91112 -0.39800
O 	O 	0.76987 0.44110 0.83085 -0.28200
O 	O 	0.72591 0.26649 0.89128 -0.71000
O 	O 	0.60405 0.17489 0.93163 -0.35700
O 	O 	0.86376 0.34938 0.85684 -0.29900
O 	O 	0.81217 0.20460 0.84885 -0.34600
Ni	Ni	0.72427 0.15490 0.87831 1.08500
H 	H 	0.59733 0.30355 0.85012 0.19800
H 	H 	0.76279 0.28689 0.90742 0.16700
C 	C 	0.75619 0.45399 0.91282 0.26900
O 	O 	0.63939 0.14125 0.84805 -0.35100
C 	C 	0.50029 0.34368 0.91406 0.29000
C 	C 	0.75472 0.51186 0.83460 0.30700
C 	C 	0.56318 0.12694 0.85343 0.29900
C 	C 	0.87494 0.27674 0.85194 0.28400
C 	C 	0.62298 0.10554 0.92885 0.28100
O 	O 	0.79555 0.44890 0.89047 -0.35000
O 	O 	0.72501 0.52593 0.85790 -0.36300
Ni	Ni	0.60766 0.38081 0.63746 1.10500
O 	O 	0.68241 0.39108 0.60484 -0.69800
Ni	Ni	0.74628 0.31755 0.61657 1.10100
O 	O 	0.56026 0.46831 0.62282 -0.32700
O 	O 	0.68308 0.56674 0.61346 -0.36700
O 	O 	0.51544 0.29373 0.61531 -0.37400
Ni	Ni	0.75900 0.50687 0.59868 1.08600
O 	O 	0.52449 0.22669 0.68253 -0.33800
O 	O 	0.80667 0.51880 0.63726 -0.37000
O 	O 	0.81203 0.32812 0.58219 -0.33100
O 	O 	0.67385 0.30992 0.64957 -0.69900
O 	O 	0.52902 0.35889 0.66890 -0.29300
O 	O 	0.79079 0.22672 0.63051 -0.30800
O 	O 	0.66398 0.13084 0.63621 -0.35700
Ni	Ni	0.59930 0.19256 0.65736 1.08400
H 	H 	0.65107 0.36719 0.58779 0.15000
H 	H 	0.70682 0.33645 0.66609 0.19100
C 	C 	0.85931 0.48349 0.64411 0.30900
O 	O 	0.52113 0.16351 0.62424 -0.36000
C 	C 	0.60466 0.53390 0.60879 0.29300
C 	C 	0.83770 0.40090 0.56919 0.27400
C 	C 	0.51678 0.22011 0.60655 0.27000
C 	C 	0.74250 0.15339 0.63970 0.30200
C 	C 	0.48705 0.27972 0.67585 0.29700
O 	O 	0.84858 0.40410 0.63642 -0.31200
O 	O 	0.84985 0.47370 0.58253 -0.32600
Ni	Ni	0.00341 0.90434 0.72589 1.10200
O 	O 	0.99887 0.80103 0.70195 -0.27800
O 	O 	0.91254 0.81780 0.74777 -0.31100
O 	O 	0.84597 0.94257 0.73737 -0.30900
O 	O 	0.91644 0.92143 0.70114 -0.30800
O 	O 	0.98654 0.05837 0.80407 -0.28800
Ni	Ni	0.92604 0.00114 0.76834 1.13100
O 	O 	0.91427 0.89053 0.78747 -0.31400
C 	C 	0.90778 0.81942 0.77454 0.29600
C 	C 	0.86635 0.95561 0.71161 0.29200
Ni	Ni	0.95628 0.09234 0.23791 1.12100
O 	O 	0.88654 0.13943 0.26198 -0.68800
Ni	Ni	0.85578 0.04931 0.29043 1.13200
O 	O 	0.95083 0.16137 0.20440 -0.29700
O 	O 	0.84650 0.20949 0.21130 -0.27800
Ni	Ni	0.78537 0.13778 0.24421 1.11000
O 	O 	0.77349 0.02173 0.22718 -0.36800
O 	O 	0.77882 0.09419 0.31035 -0.30400
O 	O 	0.93384 0.01014 0.26846 -0.69200
O 	O 	0.84526 0.95910 0.31970 -0.26700
O 	O 	0.98139 0.01010 0.32552 -0.32700
H 	H 	0.91693 0.19733 0.26940 0.23200
H 	H 	0.90725 0.95089 0.26128 0.21800
C 	C 	0.75242 0.95236 0.24216 0.27900
C 	C 	0.92313 0.22445 0.20540 0.27200
C 	C 	0.70824 0.08522 0.29914 0.31700
C 	C 	0.91138 0.94919 0.32914 0.29800
O 	O 	0.76068 0.95879 0.26911 -0.29300
O 	O 	0.69857 0.07840 0.27224 -0.29800
C 	C 	0.94476 0.32175 0.16506 -0.10100
C 	C 	0.85976 0.27336 0.15359 0.78900
F 	F 	0.84974 0.29693 0.12716 -0.42200
F 	F 	0.80340 0.29063 0.16961 -0.40300
F 	F 	0.84452 0.18621 0.15312 -0.40900
C 	C 	0.56704 0.76748 0.22149 0.06000
C 	C 	0.58132 0.76526 0.19355 0.03100
C 	C 	0.66179 0.79991 0.18429 -0.06900
C 	C 	0.72280 0.85340 0.20206 0.06600
C 	C 	0.70463 0.86879 0.22896 0.03000
C 	C 	0.62972 0.81532 0.23972 -0.07300
C 	C 	0.61601 0.80879 0.27022 0.78600
H 	H 	0.50604 0.73647 0.22876 0.11600
H 	H 	0.78228 0.88906 0.19433 0.12600
C 	C 	0.68124 0.78706 0.15490 0.78200
F 	F 	0.54985 0.73683 0.27618 -0.38500
F 	F 	0.60145 0.88009 0.27978 -0.41600
F 	F 	0.68301 0.80215 0.28380 -0.40000
F 	F 	0.66121 0.84371 0.13851 -0.41400
F 	F 	0.63805 0.70417 0.14593 -0.40400
F 	F 	0.76301 0.80107 0.15230 -0.37700
F 	F 	0.93281 0.78249 0.18199 -0.38200
F 	F 	0.94786 0.92108 0.17852 -0.41000
F 	F 	0.93816 0.86029 0.21984 -0.43800
C 	C 	0.49078 0.01382 0.32281 0.06100
C 	C 	0.49236 0.95625 0.34339 0.02900
C 	C 	0.56745 0.94646 0.35052 -0.07400
C 	C 	0.63842 0.99732 0.33776 0.08000
C 	C 	0.63576 0.05089 0.31627 0.03300
C 	C 	0.56239 0.06406 0.31000 -0.07000
C 	C 	0.55940 0.13090 0.28972 0.78100
H 	H 	0.43382 0.02094 0.31718 0.10100
H 	H 	0.69596 0.99222 0.34373 0.12300
C 	C 	0.57361 0.88338 0.37185 0.78800
F 	F 	0.55034 0.09644 0.26352 -0.39400
F 	F 	0.62950 0.20268 0.29162 -0.41400
F 	F 	0.49467 0.15721 0.29467 -0.40300
F 	F 	0.51232 0.80502 0.36800 -0.44900
F 	F 	0.57000 0.91571 0.39773 -0.41700
F 	F 	0.64614 0.86907 0.37024 -0.38000
F 	F 	0.97067 0.28034 0.34973 -0.41500
F 	F 	0.91872 0.29011 0.30837 -0.44800
H 	H 	0.89797 0.82578 0.29092 0.09900
F 	F 	0.94973 0.73111 0.26537 -0.36800
C 	C 	0.38312 0.18326 0.54290 -0.03000
C 	C 	0.41675 0.13577 0.52615 0.02600
C 	C 	0.48491 0.11847 0.53552 -0.05000
C 	C 	0.51900 0.14688 0.56153 0.03000
C 	C 	0.48234 0.18976 0.57896 -0.06800
C 	C 	0.41474 0.20817 0.56938 0.01800
C 	C 	0.37963 0.10122 0.49906 0.03100
C 	C 	0.30690 0.02956 0.49704 -0.03500
C 	C 	0.26077 0.99583 0.52103 0.12300
C 	C 	0.59426 0.13647 0.56938 0.07300
N 	N 	0.22384 0.96884 0.54025 -0.07200
N 	N 	0.65474 0.12814 0.57543 -0.06500
H 	H 	0.38713 0.24246 0.58250 0.07400
H 	H 	0.51183 0.08341 0.52243 0.07500
C 	C 	0.87615 0.44300 0.49461 -0.02500
C 	C 	0.95416 0.43842 0.49241 0.04300
C 	C 	0.98819 0.40898 0.51445 -0.00200
C 	C 	0.94819 0.39118 0.53932 0.02200
C 	C 	0.87359 0.40351 0.54223 -0.04000
C 	C 	0.83667 0.42638 0.51956 0.00800
C 	C 	0.98759 0.33555 0.44893 0.16200
C 	C 	0.83717 0.46671 0.47150 0.12100
C 	C 	0.98511 0.36255 0.56192 0.19100
N 	N 	0.95852 0.26163 0.44905 -0.07100
N 	N 	0.01468 0.33953 0.58002 -0.07500
N 	N 	0.80600 0.48573 0.45299 -0.07400
H 	H 	0.77820 0.43355 0.52158 0.03300
H 	H 	0.04749 0.40371 0.51261 0.04600
C 	C 	0.52616 0.60826 0.53365 0.02900
C 	C 	0.56517 0.67071 0.55370 -0.05000
C 	C 	0.58600 0.64676 0.57921 0.04000
C 	C 	0.56944 0.55954 0.58453 -0.08300
C 	C 	0.52691 0.49689 0.56494 0.01100
C 	C 	0.61956 0.60761 0.48533 0.12000
C 	C 	0.62165 0.71166 0.60016 0.12500
N 	N 	0.67584 0.58740 0.48683 -0.09300
N 	N 	0.65005 0.76348 0.61699 -0.04100
H 	H 	0.51337 0.42964 0.56911 0.03900
H 	H 	0.57905 0.73791 0.54943 0.08800
C 	C 	0.79483 0.13068 0.68478 0.05500
C 	C 	0.77546 0.10328 0.65762 0.00100
C 	C 	0.78406 0.02670 0.64824 -0.08500
C 	C 	0.80772 0.97614 0.66690 0.07100
C 	C 	0.83004 0.00475 0.69400 0.00700
C 	C 	0.82510 0.08426 0.70297 -0.08600
C 	C 	0.85109 0.11981 0.73179 0.77400
H 	H 	0.78626 0.18871 0.69171 0.07400
H 	H 	0.81025 0.91499 0.66029 0.10200
C 	C 	0.76645 0.99794 0.61852 0.78600
F 	F 	0.85245 0.20288 0.73477 -0.39400
F 	F 	0.92842 0.12150 0.73789 -0.52200
F 	F 	0.79732 0.06993 0.75036 -0.46000
F 	F 	0.80602 0.06486 0.60161 -0.41500
F 	F 	0.68381 0.97132 0.61316 -0.42800
F 	F 	0.79254 0.93095 0.61234 -0.41900
F 	F 	0.44931 0.43106 0.70483 -0.39800
F 	F 	0.50050 0.35156 0.73106 -0.36200
C 	C 	0.92810 0.53737 0.68881 0.07700
C 	C 	0.93256 0.53452 0.66028 -0.00200
C 	C 	0.99887 0.59608 0.64747 -0.02000
C 	C 	0.04590 0.67046 0.66224 0.01600
C 	C 	0.03269 0.67935 0.69004 0.01600
C 	C 	0.98147 0.60761 0.70402 -0.07500
C 	C 	0.97889 0.60849 0.73481 0.80300
H 	H 	0.88007 0.48796 0.69895 0.09800
H 	H 	0.08863 0.72368 0.65170 0.11300
C 	C 	0.01597 0.58643 0.61772 0.71100
F 	F 	0.95110 0.52603 0.74463 -0.37000
F 	F 	0.92737 0.64943 0.74288 -0.44100
F 	F 	0.05548 0.65116 0.74609 -0.45000
F 	F 	0.96955 0.61984 0.60169 -0.42600
F 	F 	0.99844 0.50120 0.61070 -0.40400
F 	F 	0.09708 0.62990 0.61257 -0.41800
C 	C 	0.93460 0.55024 0.01519 0.01400
C 	C 	0.96746 0.63361 0.02637 -0.00400
C 	C 	0.88746 0.53463 0.98906 0.02600
C 	C 	0.80481 0.48431 0.98889 -0.04900
C 	C 	0.76291 0.45270 0.96425 0.02500
C 	C 	0.80152 0.47957 0.93916 -0.06600
C 	C 	0.88328 0.53394 0.93936 0.00800
C 	C 	0.92676 0.56017 0.96410 -0.00200
C 	C 	0.68372 0.38641 0.96506 0.06500
C 	C 	0.01210 0.61163 0.96370 0.08200
N 	N 	0.62051 0.33302 0.96605 -0.11100
N 	N 	0.88905 0.32663 0.00878 -0.09400
H 	H 	0.95298 0.68506 0.01699 0.07300
H 	H 	0.77468 0.46450 0.00808 0.07100
H 	H 	0.91322 0.55548 0.92024 0.08600
C 	C 	0.56148 0.95847 0.04817 -0.03700
C 	C 	0.56363 0.94313 0.99775 0.02400
C 	C 	0.51998 0.00991 0.95986 0.02900
C 	C 	0.60052 0.04269 0.95074 -0.04500
C 	C 	0.66095 0.02038 0.96411 0.00200
C 	C 	0.64297 0.97099 0.98764 -0.01700
C 	C 	0.45567 0.02820 0.94559 0.13400
C 	C 	0.70634 0.95014 0.00152 0.11500
C 	C 	0.55261 0.98130 0.09744 0.13300
N 	N 	0.75707 0.93340 0.01265 -0.07700
N 	N 	0.56796 0.02631 0.11652 -0.06200
H 	H 	0.59365 0.02674 0.04625 0.06900
H 	H 	0.72249 0.04394 0.95675 0.04900
C 	C 	0.39926 0.32485 0.98195 -0.02900
C 	C 	0.43902 0.40763 0.99325 0.02500
C 	C 	0.49022 0.47202 0.97703 -0.04500
C 	C 	0.50371 0.45421 0.94993 0.02900
C 	C 	0.46902 0.36959 0.93922 -0.05700
C 	C 	0.41454 0.30622 0.95509 0.02200
C 	C 	0.37791 0.47995 0.02710 -0.04400
C 	C 	0.33981 0.50973 0.00508 0.09800
C 	C 	0.55312 0.52321 0.93336 0.09000
N 	N 	0.30929 0.53356 0.98743 -0.09200
N 	N 	0.59262 0.57877 0.92014 -0.09600
H 	H 	0.38587 0.24172 0.94677 0.07900
H 	H 	0.51908 0.53633 0.98550 0.07000
H 	H 	0.33253 0.54242 0.05805 -0.04300
C 	C 	0.02750 0.25951 0.80282 0.00400
C 	C 	0.05546 0.20419 0.81780 0.06200
C 	C 	0.05204 0.20652 0.84655 -0.13000
C 	C 	0.99835 0.24087 0.85872 0.10100
C 	C 	0.95452 0.27885 0.84255 -0.00800
C 	C 	0.97662 0.29763 0.81506 -0.03100
C 	C 	0.94097 0.35193 0.79826 0.77600
H 	H 	0.03614 0.26338 0.78096 0.11800
H 	H 	0.98537 0.23135 0.88023 0.06400
C 	C 	0.09571 0.16139 0.86388 0.79200
F 	F 	0.97997 0.37407 0.77372 -0.36100
F 	F 	0.94934 0.42682 0.81247 -0.38800
F 	F 	0.85955 0.30701 0.79275 -0.39000
F 	F 	0.11242 0.19818 0.88983 -0.43100
H 	H 	0.52997 0.20323 0.80997 0.08800
C 	C 	0.86567 0.65069 0.82930 0.08100
C 	C 	0.79757 0.58610 0.81788 0.02600
C 	C 	0.76780 0.59587 0.79164 -0.07200
C 	C 	0.80537 0.67253 0.77772 0.07900
C 	C 	0.87361 0.73776 0.78915 0.04400
C 	C 	0.90489 0.72638 0.81521 -0.09000
C 	C 	0.97467 0.79743 0.82940 0.82700
H 	H 	0.88678 0.64271 0.84965 0.10100
H 	H 	0.78117 0.68218 0.75805 0.11500
C 	C 	0.69519 0.52536 0.77873 0.78400
F 	F 	0.00847 0.76590 0.85053 -0.43300
F 	F 	0.94640 0.85820 0.84018 -0.40700
F 	F 	0.03586 0.83597 0.81150 -0.48700
F 	F 	0.62833 0.51048 0.79494 -0.41900
F 	F 	0.71221 0.45092 0.77625 -0.38300
F 	F 	0.67569 0.54652 0.75297 -0.39000
