data_crystal

_cell_length_a 19.11498
_cell_length_b 17.25566
_cell_length_c 36.70759
_cell_angle_alpha 88.32505
_cell_angle_beta  88.44731
_cell_angle_gamma 107.55750

_symmetry_space_group_name_	'P 1'
_symmetry_space_group_name_H-M	'P 1'

loop_
_symmetry_equiv_pos_as_xyz
  x,y,z

loop_
_atom_site_label
_atom_site_type_symbol
_atom_site_fract_x
_atom_site_fract_y
_atom_site_fract_z
_atom_site_charge
Zn	Zn	0.57141 0.32520 0.89432 1.22300
Zn	Zn	0.69232 0.45724 0.94169 1.19500
C 	C 	0.77894 0.25345 0.83225 0.28900
Zn	Zn	0.74117 0.38280 0.87422 1.22200
Zn	Zn	0.61700 0.21590 0.84359 1.19000
H 	H 	0.68751 0.31014 0.93423 0.17900
C 	C 	0.72023 0.54312 0.86528 0.32200
O 	O 	0.50799 0.16932 0.84476 -0.46200
O 	O 	0.47754 0.28223 0.86196 -0.39300
O 	O 	0.67636 0.35208 0.91845 -0.78800
O 	O 	0.59107 0.44636 0.95963 -0.48100
O 	O 	0.53280 0.22553 0.92597 -0.44000
O 	O 	0.53078 0.41434 0.90662 -0.43900
O 	O 	0.61606 0.17211 0.90009 -0.42500
O 	O 	0.79706 0.52241 0.93540 -0.47500
H 	H 	0.62596 0.36441 0.83110 0.17200
O 	O 	0.83701 0.42876 0.90516 -0.41500
O 	O 	0.63784 0.33314 0.85181 -0.79700
O 	O 	0.71597 0.19979 0.84271 -0.45500
O 	O 	0.75459 0.49329 0.85263 -0.44400
O 	O 	0.80101 0.32526 0.84709 -0.43200
O 	O 	0.67113 0.51912 0.89229 -0.42600
C 	C 	0.46075 0.21161 0.84611 0.28400
C 	C 	0.53994 0.45226 0.93754 0.35000
C 	C 	0.56332 0.16712 0.92449 0.32700
C 	C 	0.85026 0.49308 0.92528 0.32500
Zn	Zn	0.65823 0.39752 0.56598 1.22100
Zn	Zn	0.50500 0.28462 0.52362 1.19300
C 	C 	0.68938 0.13428 0.61323 0.30700
Zn	Zn	0.59186 0.20668 0.57315 1.22100
Zn	Zn	0.72840 0.31257 0.62110 1.19200
H 	H 	0.63685 0.28511 0.51459 0.16900
C 	C 	0.44703 0.20339 0.59868 0.29100
O 	O 	0.79632 0.42477 0.61814 -0.47000
O 	O 	0.71294 0.48951 0.60246 -0.40400
O 	O 	0.60766 0.29433 0.53580 -0.79100
O 	O 	0.50152 0.39807 0.52604 -0.45800
O 	O 	0.75299 0.41076 0.54024 -0.44900
O 	O 	0.60856 0.47636 0.54887 -0.43100
O 	O 	0.77011 0.29610 0.56649 -0.42400
O 	O 	0.45277 0.16693 0.51811 -0.47000
H 	H 	0.59668 0.32111 0.62420 0.17800
O 	O 	0.54672 0.11738 0.53437 -0.40600
O 	O 	0.62998 0.31146 0.60492 -0.79100
O 	O 	0.71228 0.19543 0.63494 -0.47100
O 	O 	0.49793 0.16699 0.60183 -0.43500
O 	O 	0.66282 0.14469 0.58137 -0.43200
O 	O 	0.46144 0.27216 0.57950 -0.41500
C 	C 	0.77467 0.49010 0.61765 0.32000
C 	C 	0.55939 0.46307 0.52343 0.31000
C 	C 	0.78724 0.35499 0.54094 0.31700
C 	C 	0.48346 0.10791 0.51890 0.32800
Zn	Zn	0.92752 0.90227 0.72334 1.21900
Zn	Zn	0.03365 0.94635 0.79445 1.19900
C 	C 	0.14988 0.05600 0.65258 0.31700
Zn	Zn	0.07221 0.04569 0.72295 1.22600
Zn	Zn	0.98718 0.96880 0.64609 1.18100
H 	H 	0.06893 0.89839 0.73250 0.17800
C 	C 	0.97865 0.09630 0.77503 0.26800
O 	O 	0.88347 0.90918 0.63658 -0.46800
O 	O 	0.82894 0.89104 0.69421 -0.39100
O 	O 	0.03766 0.93118 0.74106 -0.77900
O 	O 	0.94505 0.85448 0.80990 -0.47200
O 	O 	0.92922 0.79726 0.70654 -0.44500
O 	O 	0.86728 0.88536 0.76923 -0.43400
O 	O 	0.00140 0.84870 0.65609 -0.37600
O 	O 	0.11618 0.04222 0.80789 -0.45700
H 	H 	0.94673 0.04269 0.69562 0.16700
O 	O 	0.17162 0.07343 0.75124 -0.41200
O 	O 	0.97540 0.00364 0.69615 -0.81500
O 	O 	0.09743 0.00362 0.63510 -0.43800
O 	O 	0.03524 0.12194 0.75168 -0.41100
O 	O 	0.13401 0.09628 0.67987 -0.44400
O 	O 	0.96260 0.02395 0.79150 -0.41300
C 	C 	0.82759 0.90860 0.65882 0.30100
C 	C 	0.87882 0.84123 0.79710 0.30400
C 	C 	0.95281 0.78784 0.67380 0.26900
C 	C 	0.17503 0.07566 0.78684 0.32300
Zn	Zn	0.32434 0.70384 0.39871 1.22300
Zn	Zn	0.18867 0.54584 0.43848 1.19400
C 	C 	0.12760 0.78231 0.33253 0.31300
Zn	Zn	0.15718 0.66023 0.38234 1.22200
Zn	Zn	0.28748 0.79971 0.33509 1.19400
H 	H 	0.20779 0.69828 0.44371 0.17400
C 	C 	0.15859 0.50409 0.35791 0.28500
O 	O 	0.39311 0.85525 0.34140 -0.46400
O 	O 	0.42269 0.74633 0.36557 -0.40100
O 	O 	0.21856 0.66406 0.42446 -0.79100
O 	O 	0.28274 0.52672 0.45051 -0.45900
O 	O 	0.34493 0.81138 0.41998 -0.44700
O 	O 	0.37290 0.63106 0.42247 -0.43500
O 	O 	0.26295 0.85203 0.38569 -0.41900
O 	O 	0.08092 0.50099 0.43357 -0.46700
H 	H 	0.27274 0.64881 0.33912 0.17700
O 	O 	0.05835 0.61882 0.41562 -0.40500
O 	O 	0.26243 0.68772 0.35618 -0.79400
O 	O 	0.19204 0.80323 0.31498 -0.46400
O 	O 	0.12477 0.56000 0.35563 -0.43800
O 	O 	0.12004 0.75070 0.36607 -0.43000
O 	O 	0.20507 0.50595 0.38394 -0.41400
C 	C 	0.44184 0.81694 0.34754 0.29000
C 	C 	0.34510 0.58534 0.45187 0.31400
C 	C 	0.30558 0.86109 0.41394 0.31900
C 	C 	0.03666 0.54638 0.43221 0.35800
Zn	Zn	0.21154 0.74495 0.08124 1.22000
Zn	Zn	0.35181 0.84989 0.12746 1.19300
C 	C 	0.37618 0.61269 0.01899 0.35300
Zn	Zn	0.37637 0.75391 0.06294 1.22100
Zn	Zn	0.22621 0.61879 0.02828 1.19600
H 	H 	0.30944 0.69449 0.12290 0.17900
C 	C 	0.38726 0.92435 0.04788 0.35000
O 	O 	0.12107 0.60830 0.02620 -0.47000
O 	O 	0.11996 0.73240 0.04676 -0.39500
O 	O 	0.31087 0.74164 0.10655 -0.78700
O 	O 	0.26014 0.86597 0.14735 -0.48400
O 	O 	0.14983 0.64954 0.11119 -0.44400
O 	O 	0.19831 0.85075 0.09436 -0.43600
O 	O 	0.20469 0.56595 0.08361 -0.41800
O 	O 	0.45970 0.89274 0.11987 -0.46700
H 	H 	0.27199 0.77136 0.01916 0.17000
O 	O 	0.47483 0.78085 0.09309 -0.40300
O 	O 	0.27336 0.73327 0.03963 -0.79600
O 	O 	0.30861 0.57201 0.02957 -0.47200
O 	O 	0.41243 0.86357 0.03961 -0.45700
O 	O 	0.41479 0.67387 0.03797 -0.44200
O 	O 	0.34391 0.91875 0.07710 -0.42800
C 	C 	0.09388 0.67007 0.02574 0.30800
C 	C 	0.21142 0.88273 0.12663 0.33900
C 	C 	0.15326 0.57601 0.10565 0.33600
C 	C 	0.50272 0.85163 0.10785 0.29200
Zn	Zn	0.99592 0.14989 0.22900 1.21300
Zn	Zn	0.87997 0.08751 0.30182 1.19400
C 	C 	0.78976 0.99858 0.15242 0.31200
Zn	Zn	0.84706 0.01004 0.22796 1.22300
Zn	Zn	0.94620 0.10110 0.15131 1.18700
H 	H 	0.85479 0.15616 0.24135 0.17300
C 	C 	0.92600 0.93716 0.27926 0.31400
O 	O 	0.05099 0.16101 0.14341 -0.43400
O 	O 	0.09847 0.16309 0.19975 -0.36500
O 	O 	0.88385 0.11969 0.24839 -0.78200
O 	O 	0.96869 0.16718 0.32052 -0.48500
O 	O 	0.00000 0.25975 0.21249 -0.39100
O 	O 	0.04687 0.15413 0.27465 -0.43300
O 	O 	0.93366 0.22090 0.16229 -0.39200
O 	O 	0.79444 0.99020 0.31315 -0.47400
H 	H 	0.97716 0.01511 0.20229 0.16600
O 	O 	0.74426 0.98080 0.25725 -0.41400
O 	O 	0.94893 0.05465 0.20135 -0.80400
O 	O 	0.83793 0.06922 0.14243 -0.46400
O 	O 	0.87519 0.92240 0.25464 -0.44600
O 	O 	0.78712 0.96711 0.18583 -0.44200
O 	O 	0.94727 0.00787 0.29459 -0.42000
C 	C 	0.09815 0.14351 0.16514 0.27700
C 	C 	0.03083 0.19582 0.30139 0.37000
C 	C 	0.98218 0.27676 0.17983 0.20800
C 	C 	0.73700 0.96872 0.29275 0.32400
C 	C 	0.02386 0.35531 0.16142 0.06900
C 	C 	0.09770 0.39152 0.16956 -0.08300
C 	C 	0.13816 0.46573 0.15276 0.06100
C 	C 	0.10570 0.50561 0.12763 -0.16600
C 	C 	0.03021 0.47103 0.12015 0.21600
C 	C 	0.99025 0.39512 0.13674 -0.19000
H 	H 	0.19562 0.49143 0.15866 0.01500
H 	H 	0.93290 0.36811 0.13088 0.07700
H 	H 	0.12434 0.36126 0.18852 0.06700
N 	N 	0.99583 0.51023 0.09745 -0.25100
H 	H 	0.02162 0.56944 0.08743 0.12300
H 	H 	0.94132 0.48272 0.09082 0.08000
C 	C 	0.58296 0.88810 0.10915 -0.03700
C 	C 	0.61377 0.97299 0.10589 -0.05600
C 	C 	0.68604 0.00964 0.11567 0.03900
C 	C 	0.72835 0.96182 0.12872 -0.14300
C 	C 	0.70136 0.87609 0.12642 0.12900
C 	C 	0.62788 0.83962 0.11750 -0.07700
H 	H 	0.70707 0.07538 0.11587 0.02500
H 	H 	0.60532 0.77389 0.11826 0.05600
H 	H 	0.58045 0.01086 0.09763 0.05400
N 	N 	0.74561 0.82893 0.13281 -0.20200
H 	H 	0.80173 0.85492 0.13652 0.07000
H 	H 	0.72476 0.76557 0.13250 0.07800
C 	C 	0.12706 0.07701 0.15523 -0.06600
C 	C 	0.20083 0.08349 0.15999 -0.02600
C 	C 	0.22785 0.01992 0.15042 0.02700
C 	C 	0.18077 0.94792 0.13703 -0.13700
C 	C 	0.10521 0.93961 0.13384 0.11800
C 	C 	0.07974 0.00576 0.14150 -0.05600
H 	H 	0.28568 0.02672 0.15320 0.02000
H 	H 	0.02236 0.00059 0.13811 -0.01300
H 	H 	0.23758 0.13828 0.17059 0.04300
N 	N 	0.05654 0.86760 0.12517 -0.20100
H 	H 	0.07139 0.81420 0.12460 0.09500
H 	H 	0.00161 0.86341 0.12114 0.08100
C 	C 	0.51923 0.85605 0.33624 -0.04900
C 	C 	0.56344 0.80873 0.32510 -0.03600
C 	C 	0.63528 0.84608 0.31188 0.02100
C 	C 	0.66392 0.93109 0.30978 -0.12900
C 	C 	0.62055 0.97932 0.32225 0.11300
C 	C 	0.54827 0.94113 0.33534 -0.06700
H 	H 	0.66840 0.80888 0.30261 0.02700
H 	H 	0.51465 0.97770 0.34476 0.05300
H 	H 	0.54157 0.74299 0.32582 0.04200
N 	N 	0.64776 0.06192 0.32160 -0.19800
H 	H 	0.70169 0.09222 0.31269 0.05600
H 	H 	0.61497 0.09691 0.33050 0.07600
C 	C 	0.13730 0.43392 0.33416 -0.03500
C 	C 	0.17437 0.37498 0.33516 -0.04500
C 	C 	0.14305 0.29930 0.32020 0.03900
C 	C 	0.07375 0.28124 0.30498 -0.15800
C 	C 	0.04025 0.34376 0.30029 0.16100
C 	C 	0.07382 0.42044 0.31396 -0.08100
H 	H 	0.17002 0.25260 0.32298 0.02900
H 	H 	0.04753 0.46773 0.31106 0.07000
H 	H 	0.22563 0.38627 0.34898 0.04900
N 	N 	0.97464 0.32962 0.28405 -0.21800
H 	H 	0.94629 0.27238 0.27500 0.05000
H 	H 	0.95085 0.37636 0.28054 0.07300
C 	C 	0.06652 0.80661 0.31656 -0.06600
C 	C 	0.07153 0.83414 0.27987 -0.02900
C 	C 	0.01951 0.86836 0.26620 0.04800
C 	C 	0.96185 0.87551 0.28893 -0.14600
C 	C 	0.95140 0.83884 0.32448 0.08700
C 	C 	0.00453 0.80564 0.33826 0.00900
H 	H 	0.02694 0.89448 0.23862 0.01800
H 	H 	0.99816 0.78065 0.36602 0.02300
H 	H 	0.11718 0.83180 0.26226 0.04200
N 	N 	0.89083 0.83581 0.34544 -0.19900
H 	H 	0.84817 0.85476 0.33494 0.09500
H 	H 	0.88460 0.81138 0.37216 0.07900
C 	C 	0.31672 0.93323 0.43619 -0.15000
C 	C 	0.35302 0.93863 0.46729 -0.00100
C 	C 	0.38680 0.01819 0.48326 0.01800
C 	C 	0.44447 0.02812 0.50471 -0.14900
H 	H 	0.36733 0.06948 0.47602 0.03100
H 	H 	0.30154 0.98510 0.42550 0.07300
H 	H 	0.46498 0.97701 0.51077 0.07400
H 	H 	0.36429 0.88511 0.47896 0.03700
C 	C 	0.96106 0.51469 0.44785 -0.19800
C 	C 	0.93971 0.44618 0.46915 0.02000
C 	C 	0.86705 0.42176 0.48851 -0.00400
C 	C 	0.85082 0.36419 0.51562 -0.15100
H 	H 	0.82843 0.45504 0.48234 0.03600
H 	H 	0.92342 0.55012 0.44355 0.08000
H 	H 	0.88764 0.32816 0.52076 0.06700
H 	H 	0.97727 0.41078 0.47382 0.01700
C 	C 	0.55455 0.53226 0.50062 -0.14900
C 	C 	0.50230 0.56692 0.50831 0.01200
C 	C 	0.46329 0.59353 0.47854 0.01200
C 	C 	0.39149 0.58501 0.48312 -0.15900
H 	H 	0.49033 0.60979 0.45172 0.04000
H 	H 	0.58204 0.54263 0.47382 0.05900
H 	H 	0.36460 0.56655 0.50983 0.06600
H 	H 	0.47851 0.56039 0.53594 0.03800
C 	C 	0.70495 0.05758 0.62222 -0.06200
C 	C 	0.74071 0.02301 0.59643 -0.01600
C 	C 	0.77090 0.96203 0.60732 -0.00900
C 	C 	0.76677 0.93628 0.64429 -0.12100
C 	C 	0.71713 0.95829 0.66819 0.10600
C 	C 	0.69069 0.02308 0.65779 -0.05500
H 	H 	0.80283 0.93992 0.58763 0.02800
H 	H 	0.65815 0.04554 0.67707 0.04000
H 	H 	0.74936 0.04694 0.56850 0.04100
N 	N 	0.69016 0.91350 0.69931 -0.20000
H 	H 	0.69587 0.85564 0.70354 0.10300
H 	H 	0.65709 0.93282 0.71789 0.07600
C 	C 	0.37102 0.16159 0.61203 -0.04500
C 	C 	0.31189 0.16521 0.59091 -0.02800
C 	C 	0.23974 0.12557 0.60315 0.02000
C 	C 	0.22547 0.08209 0.63677 -0.12000
C 	C 	0.28496 0.07452 0.65739 0.12400
C 	C 	0.35748 0.11535 0.64497 -0.06400
H 	H 	0.19469 0.13115 0.58705 0.02600
H 	H 	0.40314 0.11092 0.66093 0.05100
H 	H 	0.32183 0.19894 0.56495 0.03600
N 	N 	0.27288 0.02700 0.68854 -0.19300
H 	H 	0.22030 0.99004 0.69658 0.06600
H 	H 	0.31679 0.02418 0.70433 0.08200
C 	C 	0.92222 0.70924 0.65670 -0.04400
C 	C 	0.89591 0.70738 0.62134 -0.03600
C 	C 	0.84659 0.63617 0.60906 0.02100
C 	C 	0.82273 0.56594 0.63201 -0.12500
C 	C 	0.85056 0.56695 0.66747 0.11900
C 	C 	0.90275 0.63762 0.67875 -0.06900
H 	H 	0.82661 0.63569 0.58169 0.03200
H 	H 	0.92372 0.63874 0.70596 0.04900
H 	H 	0.91071 0.76220 0.60400 0.03500
N 	N 	0.82471 0.50211 0.69139 -0.20000
H 	H 	0.77907 0.45325 0.68584 0.05500
H 	H 	0.84777 0.50215 0.71689 0.07400
C 	C 	0.02712 0.66335 0.00555 -0.12800
C 	C 	0.01506 0.62067 0.97514 0.03200
C 	C 	0.94095 0.59178 0.96043 -0.02600
C 	C 	0.92592 0.53298 0.93601 -0.15100
H 	H 	0.89764 0.61451 0.97122 0.03400
H 	H 	0.98577 0.68864 0.01662 0.04500
H 	H 	0.96962 0.51063 0.92544 0.06400
H 	H 	0.05885 0.60044 0.96303 0.01900
C 	C 	0.54479 0.10000 0.95242 -0.15200
C 	C 	0.48422 0.08352 0.97443 -0.00100
C 	C 	0.46246 0.00845 0.99811 0.03600
C 	C 	0.40746 0.99575 0.02576 -0.20000
H 	H 	0.49068 0.96304 0.99414 0.02800
H 	H 	0.57902 0.05985 0.95343 0.07500
H 	H 	0.38237 0.04324 0.03112 0.09500
H 	H 	0.44985 0.12352 0.97408 0.04400
C 	C 	0.40988 0.58124 0.99364 -0.19900
C 	C 	0.48768 0.62154 0.98184 0.01000
C 	C 	0.52982 0.57891 0.96439 0.01200
C 	C 	0.49774 0.50808 0.94565 -0.15800
H 	H 	0.58927 0.60193 0.96538 0.01900
H 	H 	0.37908 0.52523 0.98142 0.08500
H 	H 	0.44356 0.49692 0.93468 0.07800
H 	H 	0.51554 0.68193 0.99109 0.03500
C 	C 	0.83277 0.22467 0.81136 -0.06200
C 	C 	0.90814 0.25468 0.81770 -0.01100
C 	C 	0.95693 0.21673 0.80281 -0.03700
C 	C 	0.93083 0.14756 0.78202 -0.09900
C 	C 	0.85560 0.12103 0.77328 0.10800
C 	C 	0.80767 0.16104 0.78753 -0.06100
H 	H 	0.01441 0.23812 0.80929 0.06300
H 	H 	0.75003 0.14033 0.78121 0.03100
H 	H 	0.92855 0.30499 0.83546 0.03800
N 	N 	0.82895 0.05686 0.75168 -0.19600
H 	H 	0.86258 0.02504 0.74098 0.06700
H 	H 	0.77350 0.03802 0.74541 0.08500
C 	C 	0.38665 0.17673 0.83170 -0.04200
C 	C 	0.37303 0.11079 0.80862 -0.03900
C 	C 	0.30364 0.07789 0.79467 0.02000
C 	C 	0.24666 0.11055 0.80320 -0.13200
C 	C 	0.25990 0.17795 0.82609 0.13200
C 	C 	0.32972 0.20956 0.84069 -0.07300
H 	H 	0.29411 0.02678 0.77700 0.01900
H 	H 	0.33977 0.26029 0.85861 0.06300
H 	H 	0.41644 0.08520 0.80123 0.03600
N 	N 	0.20697 0.21391 0.83329 -0.20500
H 	H 	0.15656 0.19618 0.82073 0.10400
H 	H 	0.21684 0.26228 0.85089 0.08700
C 	C 	0.81761 0.77605 0.81441 -0.05000
C 	C 	0.77779 0.71154 0.79376 -0.03400
C 	C 	0.73812 0.63728 0.81104 0.02000
C 	C 	0.73796 0.62671 0.84917 -0.12400
C 	C 	0.77011 0.69539 0.87029 0.12300
C 	C 	0.81007 0.76937 0.85253 -0.06400
H 	H 	0.71199 0.58610 0.79462 0.02300
H 	H 	0.83844 0.82058 0.86849 0.04700
H 	H 	0.78216 0.71672 0.76424 0.04200
N 	N 	0.76462 0.69039 0.90737 -0.20000
H 	H 	0.72791 0.64096 0.92151 0.07800
H 	H 	0.79394 0.73924 0.92251 0.07700
