data_crystal

_cell_length_a 26.19244
_cell_length_b 26.34445
_cell_length_c 39.12453
_cell_angle_alpha 95.50139
_cell_angle_beta  95.50132
_cell_angle_gamma 125.70892

_symmetry_space_group_name_	'P 1'
_symmetry_space_group_name_H-M	'P 1'

loop_
_symmetry_equiv_pos_as_xyz
  x,y,z

loop_
_atom_site_label
_atom_site_type_symbol
_atom_site_fract_x
_atom_site_fract_y
_atom_site_fract_z
_atom_site_charge
C 	C 	0.97308 0.01479 0.99178 0.14100
C 	C 	0.06673 0.02180 0.99102 0.14200
N 	N 	0.03731 0.05042 0.99294 -0.13600
C 	C 	0.02199 0.01720 0.46729 0.14500
N 	N 	0.99032 0.04337 0.46441 -0.13700
Cu	Cu	0.64249 0.22596 0.00224 0.92900
Cu	Cu	0.67670 0.21609 0.92447 0.87200
Cu	Cu	0.68080 0.32582 0.95625 0.89900
Cu	Cu	0.66128 0.35350 0.02794 0.90100
C 	C 	0.67681 0.27975 0.07546 0.28900
O 	O 	0.55325 0.19845 0.00621 -0.36200
C 	C 	0.64404 0.27609 0.87975 0.29000
O 	O 	0.70186 0.32504 0.00433 -0.64000
O 	O 	0.62873 0.23147 0.95260 -0.64100
O 	O 	0.67330 0.17263 0.99673 -0.37200
O 	O 	0.74022 0.23112 0.96070 -0.43900
O 	O 	0.65161 0.30965 0.06836 -0.37400
O 	O 	0.73607 0.41766 0.96278 -0.38600
C 	C 	0.73787 0.45702 0.98739 0.31700
C 	C 	0.53251 0.23028 0.99542 0.30900
O 	O 	0.57342 0.28831 0.99008 -0.38900
O 	O 	0.70283 0.43674 0.01202 -0.38000
O 	O 	0.66999 0.23645 0.05133 -0.35500
C 	C 	0.72449 0.19259 0.98312 0.31600
O 	O 	0.67359 0.32604 0.90554 -0.38600
O 	O 	0.63398 0.22230 0.88459 -0.41700
H 	H 	0.74825 0.34883 0.01340 0.17000
H 	H 	0.58344 0.20882 0.94134 0.17300
Cu	Cu	0.72395 0.34620 0.45930 0.92900
Cu	Cu	0.71823 0.29379 0.53283 0.87500
Cu	Cu	0.61845 0.30614 0.50180 0.89900
Cu	Cu	0.60626 0.34540 0.43393 0.89700
C 	C 	0.68449 0.33582 0.38613 0.29000
O 	O 	0.76135 0.43930 0.46129 -0.36400
C 	C 	0.65857 0.32593 0.57837 0.29000
O 	O 	0.62415 0.29386 0.45366 -0.64100
O 	O 	0.71314 0.35156 0.50854 -0.64000
O 	O 	0.77061 0.30762 0.46209 -0.36600
O 	O 	0.70347 0.23569 0.49355 -0.44000
O 	O 	0.65588 0.36163 0.39531 -0.38200
O 	O 	0.52620 0.25767 0.49201 -0.36800
C 	C 	0.49249 0.26245 0.46688 0.31000
C 	C 	0.73304 0.46307 0.47375 0.30200
O 	O 	0.67262 0.42464 0.47646 -0.37900
O 	O 	0.52038 0.30594 0.44699 -0.39100
O 	O 	0.71742 0.32766 0.40980 -0.35900
C 	C 	0.74621 0.25384 0.47340 0.31400
O 	O 	0.61142 0.30319 0.55151 -0.38100
O 	O 	0.71107 0.33174 0.57438 -0.41500
H 	H 	0.59744 0.24880 0.44161 0.16700
H 	H 	0.73803 0.39527 0.52237 0.17500
C 	C 	0.63089 0.28368 0.84387 -0.09200
C 	C 	0.57578 0.23314 0.82037 0.02100
C 	C 	0.56750 0.23695 0.78510 -0.07500
C 	C 	0.61424 0.29123 0.77294 0.04700
C 	C 	0.66855 0.34265 0.79672 -0.07400
C 	C 	0.67637 0.33914 0.83206 0.02000
C 	C 	0.61030 0.29001 0.73481 -0.05100
C 	C 	0.62781 0.34184 0.72128 -0.05200
C 	C 	0.63324 0.34255 0.68408 0.04800
C 	C 	0.69223 0.38759 0.67504 -0.07500
C 	C 	0.69985 0.38387 0.64022 0.02000
C 	C 	0.64822 0.33553 0.61406 -0.09000
C 	C 	0.58806 0.29296 0.62285 0.02000
C 	C 	0.58061 0.29645 0.65772 -0.07400
H 	H 	0.54005 0.19034 0.82926 0.03000
H 	H 	0.52559 0.19693 0.76702 0.05000
H 	H 	0.70598 0.38414 0.78763 0.04900
H 	H 	0.71928 0.37835 0.84992 0.03400
H 	H 	0.59326 0.24610 0.71755 0.04400
H 	H 	0.64368 0.38555 0.73825 0.04600
H 	H 	0.73278 0.42407 0.69515 0.04900
H 	H 	0.74620 0.41771 0.63367 0.03000
H 	H 	0.54769 0.25574 0.60290 0.03900
H 	H 	0.53442 0.26241 0.66436 0.05200
C 	C 	0.69339 0.33155 0.34970 -0.08500
C 	C 	0.71213 0.38267 0.33258 0.02300
C 	C 	0.71433 0.37667 0.29702 -0.07400
C 	C 	0.69811 0.31963 0.27816 0.04900
C 	C 	0.68123 0.26898 0.29551 -0.07200
C 	C 	0.67942 0.27519 0.33125 0.01900
C 	C 	0.69144 0.31099 0.23971 -0.05100
C 	C 	0.71802 0.28791 0.22263 -0.05100
C 	C 	0.71691 0.28687 0.18476 0.05000
C 	C 	0.68521 0.22880 0.16144 -0.07300
C 	C 	0.67536 0.22668 0.12535 0.02500
C 	C 	0.69755 0.28279 0.11242 -0.08300
C 	C 	0.73344 0.34137 0.13573 0.02000
C 	C 	0.74329 0.34344 0.17171 -0.07200
H 	H 	0.72396 0.42675 0.34673 0.03800
H 	H 	0.72736 0.41596 0.28390 0.05300
H 	H 	0.66751 0.22427 0.28113 0.05200
H 	H 	0.66502 0.23548 0.34426 0.03200
H 	H 	0.66910 0.32882 0.22543 0.04800
H 	H 	0.73998 0.26937 0.23645 0.04700
H 	H 	0.66572 0.18503 0.17127 0.05300
H 	H 	0.64804 0.18119 0.10763 0.04300
H 	H 	0.75191 0.38509 0.12601 0.02700
H 	H 	0.76946 0.38876 0.18952 0.05300
C 	C 	0.89516 0.77651 0.50729 -0.10000
C 	C 	0.83940 0.72769 0.48364 -0.00600
C 	C 	0.80930 0.74291 0.45940 0.13900
C 	C 	0.81539 0.66096 0.48255 0.00800
O 	O 	0.75309 0.69550 0.43720 -0.27500
H 	H 	0.91813 0.76500 0.52625 0.06900
C 	C 	0.83028 0.63171 0.45762 0.11600
C 	C 	0.80494 0.56755 0.45562 -0.03500
C 	C 	0.76536 0.53232 0.47874 -0.12400
C 	C 	0.75323 0.56265 0.50490 0.19000
C 	C 	0.77774 0.62659 0.50647 -0.11300
O 	O 	0.86772 0.66515 0.43436 -0.27600
H 	H 	0.81470 0.54478 0.43545 0.06300
O 	O 	0.71659 0.52963 0.52853 -0.28700
H 	H 	0.76715 0.64932 0.52615 0.07700
H 	H 	0.91226 0.68458 0.44588 0.14800
H 	H 	0.74725 0.53557 0.54840 0.14200
H 	H 	0.76600 0.68619 0.41585 0.15700
C 	C 	0.83500 0.07268 0.48865 -0.09800
C 	C 	0.83899 0.10315 0.46044 -0.00700
C 	C 	0.86850 0.09909 0.43319 0.13600
C 	C 	0.89594 0.06678 0.43497 -0.06500
C 	C 	0.89338 0.03760 0.46361 -0.05700
C 	C 	0.86228 0.04021 0.49042 0.16400
C 	C 	0.81505 0.14189 0.46037 0.01100
O 	O 	0.87240 0.12840 0.40537 -0.27700
H 	H 	0.91972 0.06489 0.41422 0.06700
H 	H 	0.81198 0.07537 0.50961 0.06600
C 	C 	0.74888 0.11243 0.45396 0.11100
C 	C 	0.72667 0.14956 0.45653 -0.03000
C 	C 	0.77011 0.21614 0.46572 -0.13400
C 	C 	0.83640 0.24569 0.47084 0.19400
C 	C 	0.85853 0.20848 0.46834 -0.11600
O 	O 	0.70590 0.04746 0.44463 -0.27200
H 	H 	0.67560 0.12650 0.45201 0.05300
O 	O 	0.87958 0.31060 0.48043 -0.30100
H 	H 	0.90957 0.23139 0.47329 0.08100
H 	H 	0.69557 0.03199 0.46691 0.14400
H 	H 	0.88963 0.32637 0.45819 0.16100
H 	H 	0.83312 0.09603 0.38786 0.15200
C 	C 	0.20100 0.14267 0.49056 -0.09600
C 	C 	0.22139 0.12345 0.46369 -0.00600
C 	C 	0.17591 0.07027 0.43741 0.13700
C 	C 	0.11067 0.03584 0.43864 -0.07000
C 	C 	0.09032 0.05497 0.46555 -0.05500
C 	C 	0.13572 0.10865 0.49157 0.16500
C 	C 	0.29044 0.15844 0.46349 0.01000
O 	O 	0.19525 0.05106 0.41097 -0.27900
O 	O 	0.11636 0.12803 0.51793 -0.28100
H 	H 	0.23583 0.18365 0.51084 0.06900
C 	C 	0.32608 0.22020 0.45593 0.11400
C 	C 	0.39183 0.25357 0.45660 -0.03300
C 	C 	0.42261 0.22577 0.46485 -0.12100
C 	C 	0.38643 0.16320 0.47150 0.19200
C 	C 	0.32084 0.13025 0.47128 -0.11200
O 	O 	0.29639 0.24729 0.44691 -0.27100
H 	H 	0.41902 0.30144 0.45118 0.06200
O 	O 	0.41512 0.13435 0.47841 -0.28700
H 	H 	0.29351 0.08260 0.47703 0.08100
H 	H 	0.11544 0.10516 0.53686 0.15100
H 	H 	0.29995 0.27159 0.46916 0.14800
H 	H 	0.41159 0.11228 0.45531 0.14500
H 	H 	0.19642 0.07427 0.39218 0.15200
C 	C 	0.86555 0.72130 0.98125 -0.00600
C 	C 	0.83485 0.65355 0.98214 0.01200
H 	H 	0.92410 0.72644 0.94446 0.06800
C 	C 	0.79121 0.60627 0.95291 0.11300
C 	C 	0.76106 0.54203 0.95440 -0.02900
C 	C 	0.77405 0.52457 0.98496 -0.12400
C 	C 	0.81893 0.57193 0.01386 0.19400
C 	C 	0.84908 0.63614 0.01236 -0.11300
O 	O 	0.77577 0.62260 0.92349 -0.27200
H 	H 	0.72639 0.50572 0.93210 0.05800
O 	O 	0.83232 0.55546 0.04383 -0.29200
H 	H 	0.88322 0.67244 0.03480 0.08200
H 	H 	0.80576 0.62725 0.90816 0.14300
H 	H 	0.86867 0.55403 0.04085 0.14500
H 	H 	0.76283 0.70942 0.00657 0.15400
C 	C 	0.86415 0.18668 0.00555 -0.11800
C 	C 	0.83409 0.12119 0.99641 0.01200
C 	C 	0.76713 0.07880 0.98571 0.11500
C 	C 	0.73102 0.10226 0.98343 -0.03200
C 	C 	0.76147 0.16800 0.99079 -0.13100
C 	C 	0.82825 0.21027 0.00233 0.19700
C 	C 	0.87304 0.09737 0.99653 -0.00700
O 	O 	0.73697 0.01450 0.97744 -0.27100
H 	H 	0.67958 0.06945 0.97467 0.05000
O 	O 	0.85826 0.27447 0.01128 -0.29500
H 	H 	0.91556 0.21943 0.01442 0.07200
C 	C 	0.91079 0.10832 0.97086 0.13100
C 	C 	0.94474 0.08252 0.96998 -0.06500
C 	C 	0.94122 0.04566 0.99454 -0.05700
C 	C 	0.90494 0.03625 0.02082 0.16200
C 	C 	0.87093 0.06198 0.02168 -0.09400
O 	O 	0.91212 0.14165 0.94565 -0.28100
H 	H 	0.97261 0.08994 0.94970 0.06900
H 	H 	0.84237 0.05386 0.04167 0.07800
H 	H 	0.87202 0.29154 0.98974 0.14900
H 	H 	0.94910 0.18655 0.95509 0.14500
H 	H 	0.73595 0.00564 0.95206 0.14700
C 	C 	0.38157 0.21303 0.00668 -0.12000
C 	C 	0.33443 0.14932 0.99081 0.01100
C 	C 	0.35226 0.11274 0.97537 0.12100
C 	C 	0.41707 0.13985 0.97630 -0.03200
C 	C 	0.46440 0.20334 0.99270 -0.12500
C 	C 	0.44637 0.24024 0.00763 0.19600
C 	C 	0.26672 0.11997 0.99222 -0.00500
O 	O 	0.30635 0.05084 0.95886 -0.27400
H 	H 	0.43052 0.11139 0.96442 0.05200
O 	O 	0.49206 0.30168 0.02490 -0.30000
H 	H 	0.36803 0.24118 0.01887 0.07500
C 	C 	0.23830 0.08353 0.01787 0.13200
C 	C 	0.17329 0.05335 0.01809 -0.06400
C 	C 	0.13639 0.06003 0.99314 -0.05600
C 	C 	0.16535 0.09824 0.96816 0.16500
C 	C 	0.23046 0.12835 0.96792 -0.09700
O 	O 	0.27354 0.07560 0.04200 -0.27900
H 	H 	0.15129 0.02402 0.03739 0.06700
O 	O 	0.13007 0.10588 0.94388 -0.28200
H 	H 	0.25247 0.15727 0.94847 0.07200
H 	H 	0.49887 0.32857 0.00719 0.15100
H 	H 	0.29169 0.11106 0.06206 0.14900
H 	H 	0.11300 0.07103 0.92363 0.15100
H 	H 	0.29958 0.02488 0.97709 0.15700
C 	C 	0.96755 0.92185 0.98589 0.14500
N 	N 	0.89621 0.94793 0.47198 -0.13300
C 	C 	0.92803 0.92181 0.47506 0.14600
N 	N 	0.99073 0.95637 0.47238 -0.13400
C 	C 	0.83659 0.80673 0.45799 -0.06400
C 	C 	0.89435 0.85559 0.48037 -0.05700
C 	C 	0.92243 0.84030 0.50594 0.16500
H 	H 	0.81409 0.81810 0.43864 0.07000
O 	O 	0.97751 0.88760 0.52896 -0.28100
H 	H 	0.96303 0.89761 0.54934 0.15000
C 	C 	0.91209 0.75251 0.96057 -0.09700
C 	C 	0.84962 0.75521 0.00179 0.13600
C 	C 	0.88226 0.82054 0.00272 -0.06600
C 	C 	0.93003 0.85222 0.98268 -0.05500
C 	C 	0.94350 0.81742 0.96070 0.16300
O 	O 	0.80358 0.72497 0.02182 -0.27400
H 	H 	0.87128 0.84677 0.01954 0.07600
O 	O 	0.98796 0.84697 0.93973 -0.27800
H 	H 	0.96357 0.84314 0.91738 0.14900
O 	O 	0.90155 0.00075 0.04520 -0.28000
H 	H 	0.93747 0.03162 0.06481 0.14900
H 	H 	0.89787 0.04458 0.53605 0.15000
N 	N 	0.93824 0.95051 0.98806 -0.13300
N 	N 	0.03188 0.95770 0.98787 -0.13100
O 	O 	0.85897 0.01155 0.51847 -0.28200
H 	H 	0.07589 0.99435 0.41861 0.07200
C 	C 	0.92742 0.00883 0.46671 0.14100
