data_crystal

_cell_length_a 21.10787
_cell_length_b 17.89955
_cell_length_c 56.74037
_cell_angle_alpha 90.65144
_cell_angle_beta  91.48381
_cell_angle_gamma 111.16169

_symmetry_space_group_name_	'P 1'
_symmetry_space_group_name_H-M	'P 1'

loop_
_symmetry_equiv_pos_as_xyz
  x,y,z

loop_
_atom_site_label
_atom_site_type_symbol
_atom_site_fract_x
_atom_site_fract_y
_atom_site_fract_z
_atom_site_charge
Ni	Ni	0.75315 0.35102 0.90521 1.09900
O 	O 	0.67002 0.28362 0.88484 -0.69700
Ni	Ni	0.59413 0.29451 0.90318 1.10200
O 	O 	0.81742 0.32919 0.88191 -0.36800
O 	O 	0.76046 0.19418 0.88382 -0.40800
O 	O 	0.74937 0.44166 0.88460 -0.40300
Ni	Ni	0.65674 0.17107 0.88029 1.06600
O 	O 	0.78016 0.46080 0.95426 -0.42100
O 	O 	0.64581 0.14767 0.91530 -0.41700
O 	O 	0.51836 0.23842 0.87909 -0.37100
O 	O 	0.67618 0.34715 0.92576 -0.70200
O 	O 	0.52879 0.33334 0.92154 -0.37200
O 	O 	0.60423 0.46214 0.92221 -0.41200
Ni	Ni	0.69373 0.45718 0.93692 1.07000
H 	H 	0.67021 0.30749 0.86918 0.15200
H 	H 	0.67514 0.31248 0.93932 0.15600
C 	C 	0.58792 0.13786 0.92507 0.30200
O 	O 	0.74953 0.53547 0.91228 -0.40000
C 	C 	0.80510 0.25612 0.87368 0.27000
C 	C 	0.52226 0.17913 0.86589 0.26800
C 	C 	0.76862 0.51614 0.89190 0.29900
C 	C 	0.54489 0.40916 0.92753 0.28300
O 	O 	0.55975 0.19235 0.92308 -0.36800
O 	O 	0.55384 0.13238 0.87401 -0.41000
Ni	Ni	0.60419 0.27821 0.49229 1.09900
O 	O 	0.69358 0.29804 0.47568 -0.70000
Ni	Ni	0.74664 0.26247 0.50006 1.09800
O 	O 	0.57386 0.35121 0.47084 -0.37700
O 	O 	0.67381 0.45642 0.47750 -0.41500
O 	O 	0.55228 0.18603 0.46867 -0.37500
Ni	Ni	0.74654 0.40923 0.46760 1.06700
O 	O 	0.50801 0.12083 0.51551 -0.41600
O 	O 	0.80753 0.46504 0.49660 -0.39700
O 	O 	0.65291 0.23023 0.51468 -0.69700
O 	O 	0.51759 0.25158 0.51077 -0.37800
O 	O 	0.78070 0.20757 0.52649 -0.36900
O 	O 	0.69149 0.09015 0.51962 -0.41300
Ni	Ni	0.60312 0.11550 0.51668 1.06600
H 	H 	0.68597 0.26300 0.46145 0.15500
H 	H 	0.65589 0.25527 0.53053 0.15100
C 	C 	0.81298 0.43060 0.51656 0.29800
O 	O 	0.60129 0.09835 0.48135 -0.42200
C 	C 	0.61084 0.42747 0.46891 0.27900
C 	C 	0.55671 0.11448 0.46796 0.30200
C 	C 	0.74343 0.13495 0.53303 0.26900
C 	C 	0.49452 0.18420 0.52250 0.26500
O 	O 	0.76846 0.36069 0.52148 -0.40800
Ni	Ni	0.03949 0.98128 0.72564 1.09600
O 	O 	0.03261 0.88740 0.70386 -0.71300
Ni	Ni	0.05854 0.94464 0.67382 1.09800
O 	O 	0.13882 0.99239 0.73044 -0.40600
O 	O 	0.07001 0.17936 0.71889 -0.40700
O 	O 	0.06098 0.84918 0.65500 -0.38800
O 	O 	0.04900 0.03316 0.69446 -0.70600
O 	O 	0.10477 0.02235 0.64805 -0.38000
O 	O 	0.18655 0.10482 0.67357 -0.41100
Ni	Ni	0.12440 0.13626 0.69686 1.06900
H 	H 	0.06519 0.86143 0.70842 0.15600
O 	O 	0.18175 0.12780 0.72567 -0.39600
C 	C 	0.00761 0.78141 0.65396 0.26600
C 	C 	0.18906 0.06168 0.73282 0.30500
C 	C 	0.16578 0.07664 0.65192 0.26100
Ni	Ni	0.21558 0.63590 0.40993 1.09600
O 	O 	0.28567 0.66428 0.38390 -0.70400
Ni	Ni	0.36872 0.66068 0.40130 1.09500
O 	O 	0.14128 0.65170 0.38875 -0.36300
O 	O 	0.21013 0.77302 0.37586 -0.40800
O 	O 	0.18057 0.52129 0.39644 -0.37600
Ni	Ni	0.30731 0.77200 0.37172 1.06500
O 	O 	0.19860 0.53899 0.46132 -0.41800
O 	O 	0.33372 0.82452 0.40434 -0.42000
O 	O 	0.43105 0.68431 0.37325 -0.38400
O 	O 	0.30053 0.63904 0.42784 -0.70100
O 	O 	0.14668 0.59971 0.43603 -0.38300
O 	O 	0.44123 0.63630 0.42135 -0.37700
O 	O 	0.36563 0.51500 0.43172 -0.41500
Ni	Ni	0.28321 0.53806 0.44486 1.06500
H 	H 	0.27212 0.62458 0.37071 0.14900
H 	H 	0.31439 0.68454 0.43933 0.14900
C 	C 	0.39312 0.83458 0.41421 0.29600
O 	O 	0.22517 0.45355 0.42110 -0.39300
C 	C 	0.15557 0.70805 0.37301 0.26900
C 	C 	0.43282 0.74135 0.35843 0.27000
C 	C 	0.21191 0.47087 0.39963 0.26300
C 	C 	0.42757 0.56859 0.43245 0.28200
C 	C 	0.14345 0.53981 0.44984 0.30000
O 	O 	0.41879 0.77763 0.41308 -0.37400
O 	O 	0.40672 0.79575 0.36423 -0.41600
Ni	Ni	0.37932 0.69674 0.99462 1.10000
O 	O 	0.28325 0.67424 0.98140 -0.70500
Ni	Ni	0.23797 0.69967 0.00934 1.09800
O 	O 	0.40243 0.62973 0.96916 -0.38000
O 	O 	0.30948 0.51986 0.97704 -0.41500
O 	O 	0.42066 0.79444 0.97316 -0.36900
Ni	Ni	0.23123 0.56356 0.97122 1.06700
O 	O 	0.48018 0.84968 0.02263 -0.41000
O 	O 	0.17959 0.50152 0.99967 -0.39700
O 	O 	0.13654 0.65418 0.99836 -0.38300
O 	O 	0.33737 0.73606 0.02099 -0.69800
O 	O 	0.47277 0.72418 0.01016 -0.37600
O 	O 	0.21257 0.75008 0.03866 -0.37100
O 	O 	0.29431 0.87140 0.03123 -0.41100
Ni	Ni	0.38390 0.85076 0.02616 1.06500
H 	H 	0.28360 0.71135 0.96855 0.15900
H 	H 	0.34190 0.70844 0.03560 0.15000
C 	C 	0.18663 0.52732 0.02178 0.29400
O 	O 	0.37678 0.87682 0.99183 -0.41400
C 	C 	0.36893 0.55225 0.96724 0.28000
C 	C 	0.11117 0.60806 0.97928 0.29700
C 	C 	0.41967 0.86667 0.97716 0.30200
C 	C 	0.24641 0.82572 0.04471 0.26300
C 	C 	0.49659 0.78531 0.02521 0.26800
O 	O 	0.22831 0.59934 0.02790 -0.40400
O 	O 	0.15107 0.59632 0.96317 -0.42000
O 	O 	0.98289 0.09231 0.25994 -0.37800
O 	O 	0.07575 0.14171 0.23701 -0.41200
Ni	Ni	0.03307 0.17043 0.20641 1.06700
O 	O 	0.09381 0.13080 0.18537 -0.39800
O 	O 	0.79060 0.86995 0.17288 -0.40900
C 	C 	0.07651 0.05854 0.17585 0.30300
O 	O 	0.77164 0.93232 0.21771 -0.40900
C 	C 	0.04719 0.13699 0.25764 0.26100
C 	C 	0.04805 0.43251 0.11730 -0.04500
C 	C 	0.07609 0.48237 0.09850 -0.04400
C 	C 	0.09794 0.45198 0.07863 0.01500
C 	C 	0.09055 0.37048 0.07750 -0.00900
C 	C 	0.06238 0.32024 0.09648 -0.01000
C 	C 	0.04156 0.35159 0.11652 0.01500
C 	C 	0.05601 0.23904 0.09556 0.01600
C 	C 	0.07686 0.20834 0.07551 -0.04500
C 	C 	0.10493 0.25827 0.05667 -0.04300
C 	C 	0.11230 0.33951 0.05758 0.01400
C 	C 	0.14218 0.39049 0.03902 -0.02500
C 	C 	0.15103 0.47221 0.04041 -0.06500
C 	C 	0.12803 0.50239 0.06007 -0.02900
C 	C 	0.02997 0.18992 0.11485 -0.03000
H 	H 	0.08127 0.54483 0.09948 0.03800
H 	H 	0.07181 0.14592 0.07455 0.04000
H 	H 	0.12129 0.23377 0.04144 0.03800
H 	H 	0.15988 0.36717 0.02384 0.04400
H 	H 	0.13387 0.56514 0.06094 0.04600
H 	H 	0.02620 0.12785 0.11435 0.04600
C 	C 	0.59297 0.67406 0.08941 -0.04500
C 	C 	0.64186 0.68515 0.10755 -0.04400
C 	C 	0.69894 0.75649 0.10934 0.01500
C 	C 	0.70888 0.81513 0.09198 -0.00800
C 	C 	0.65922 0.80452 0.07394 -0.01000
C 	C 	0.60040 0.73439 0.07293 0.01500
C 	C 	0.66661 0.86591 0.05765 0.01500
C 	C 	0.72560 0.93520 0.05863 -0.04400
C 	C 	0.77533 0.94538 0.07642 -0.03900
C 	C 	0.76632 0.88670 0.09356 0.01600
C 	C 	0.81125 0.90116 0.11314 -0.02700
C 	C 	0.79740 0.84642 0.13159 -0.05700
C 	C 	0.74360 0.77232 0.12905 -0.02800
C 	C 	0.54849 0.72712 0.05617 -0.03200
C 	C 	0.55412 0.79019 0.04092 -0.06400
C 	C 	0.61379 0.85857 0.04125 -0.02600
H 	H 	0.54846 0.61942 0.08855 0.03500
H 	H 	0.63442 0.63911 0.12056 0.03400
H 	H 	0.73234 0.98200 0.04593 0.04000
H 	H 	0.81985 0.00002 0.07729 0.03800
H 	H 	0.85378 0.95771 0.11494 0.04900
H 	H 	0.73419 0.72929 0.14307 0.02700
H 	H 	0.50263 0.67389 0.05556 0.03000
H 	H 	0.61854 0.90630 0.02900 0.04600
C 	C 	0.17790 0.81911 0.12718 -0.04700
C 	C 	0.16048 0.85574 0.14660 -0.04000
C 	C 	0.15718 0.93245 0.14472 0.01000
C 	C 	0.17386 0.97384 0.12342 -0.00300
C 	C 	0.19161 0.93710 0.10389 -0.01300
C 	C 	0.19270 0.85897 0.10569 0.01700
C 	C 	0.20682 0.97775 0.08242 0.01800
C 	C 	0.20511 0.05529 0.08073 -0.04700
C 	C 	0.18698 0.09157 0.10010 -0.04100
C 	C 	0.17014 0.05069 0.12136 0.01000
C 	C 	0.14595 0.08358 0.14013 -0.02200
C 	C 	0.12360 0.03912 0.16051 -0.07000
C 	C 	0.13351 0.96618 0.16336 -0.01600
C 	C 	0.20843 0.82168 0.08598 -0.03300
C 	C 	0.22418 0.86233 0.06466 -0.06100
C 	C 	0.22322 0.94024 0.06290 -0.03200
H 	H 	0.17925 0.75943 0.12882 0.03600
H 	H 	0.14825 0.82374 0.16297 0.03400
H 	H 	0.21718 0.08724 0.06435 0.03900
H 	H 	0.18515 0.15102 0.09843 0.03800
H 	H 	0.13997 0.14094 0.13825 0.04000
H 	H 	0.11820 0.93318 0.17946 0.03700
H 	H 	0.20975 0.76183 0.08734 0.03900
H 	H 	0.23512 0.97139 0.04637 0.04500
C 	C 	0.54387 0.86158 0.26100 -0.04400
C 	C 	0.49417 0.82563 0.27743 -0.04400
C 	C 	0.51300 0.80891 0.30013 0.01400
C 	C 	0.58230 0.82776 0.30627 -0.00800
C 	C 	0.63238 0.86487 0.28984 -0.00900
C 	C 	0.61306 0.88163 0.26710 0.01400
C 	C 	0.70175 0.88542 0.29617 0.01600
C 	C 	0.72054 0.86761 0.31875 -0.04300
C 	C 	0.67078 0.83037 0.33504 -0.04300
C 	C 	0.60161 0.81078 0.32899 0.01400
C 	C 	0.55166 0.77663 0.34559 -0.02400
C 	C 	0.48286 0.76088 0.33979 -0.06200
C 	C 	0.46357 0.77559 0.31695 -0.03000
C 	C 	0.66312 0.91754 0.25067 -0.02700
C 	C 	0.73223 0.93743 0.25689 -0.06600
C 	C 	0.75140 0.92264 0.27977 -0.02300
H 	H 	0.52849 0.87405 0.24357 0.03600
H 	H 	0.44105 0.81114 0.27252 0.03300
H 	H 	0.77369 0.88263 0.32372 0.03900
H 	H 	0.68614 0.81737 0.35241 0.03800
H 	H 	0.56643 0.76576 0.36331 0.04700
H 	H 	0.41038 0.76332 0.31255 0.02000
H 	H 	0.64843 0.92925 0.23304 0.04100
C 	C 	0.24508 0.41883 0.31688 -0.04300
C 	C 	0.22098 0.37152 0.29643 -0.04500
C 	C 	0.17139 0.29434 0.29780 0.01500
C 	C 	0.14862 0.26290 0.32005 -0.01000
C 	C 	0.17236 0.31078 0.34059 -0.00600
C 	C 	0.21953 0.38969 0.33893 0.01300
C 	C 	0.14593 0.28139 0.36264 0.01400
C 	C 	0.09929 0.20257 0.36418 -0.04100
C 	C 	0.07623 0.15470 0.34379 -0.04300
C 	C 	0.09915 0.18531 0.32161 0.01700
C 	C 	0.07037 0.14121 0.30095 -0.02800
C 	C 	0.08874 0.17521 0.27876 -0.05900
C 	C 	0.14149 0.25007 0.27721 -0.03200
C 	C 	0.23752 0.43988 0.35907 -0.02800
C 	C 	0.20671 0.41283 0.38055 -0.06000
C 	C 	0.16340 0.33265 0.38258 -0.02100
H 	H 	0.28217 0.47897 0.31548 0.03200
H 	H 	0.07961 0.17895 0.38109 0.03800
H 	H 	0.03904 0.09461 0.34519 0.04000
H 	H 	0.03148 0.08201 0.30209 0.04900
H 	H 	0.15658 0.27556 0.26007 0.02900
H 	H 	0.27337 0.50074 0.35785 0.01100
H 	H 	0.14045 0.31165 0.39931 0.04500
C 	C 	0.94056 0.74287 0.35179 -0.04800
C 	C 	0.99736 0.72515 0.34517 0.02800
C 	C 	0.00870 0.71657 0.32105 -0.02100
C 	C 	0.07693 0.69114 0.29020 -0.04600
C 	C 	0.06606 0.69975 0.31423 0.01800
C 	C 	0.11327 0.69517 0.33147 -0.03400
C 	C 	0.10336 0.70682 0.35537 -0.05900
C 	C 	0.04458 0.71946 0.36227 -0.02900
H 	H 	0.93073 0.74818 0.37027 0.04000
H 	H 	0.12005 0.67655 0.28480 0.03200
H 	H 	0.15832 0.68413 0.32631 0.01600
H 	H 	0.03682 0.72736 0.38082 0.04500
C 	C 	0.40291 0.94735 0.44169 -0.05000
C 	C 	0.43378 0.91269 0.42551 -0.09700
C 	C 	0.50382 0.95165 0.42096 0.10800
C 	C 	0.54272 0.01950 0.43453 -0.04200
C 	C 	0.51243 0.05236 0.45139 -0.10000
C 	C 	0.44113 0.01793 0.45430 0.10900
N 	N 	0.40915 0.05176 0.46921 -0.20300
H 	H 	0.34900 0.91892 0.44468 0.04400
H 	H 	0.59692 0.04696 0.43192 0.04300
N 	N 	0.53348 0.92585 0.40322 -0.20100
H 	H 	0.35768 0.02255 0.47256 0.08500
H 	H 	0.43344 0.10910 0.47643 0.11200
H 	H 	0.50463 0.88462 0.39042 0.11000
H 	H 	0.58595 0.95148 0.40109 0.08600
C 	C 	0.03748 0.42235 0.44238 -0.05200
C 	C 	0.07596 0.48649 0.45737 -0.08800
C 	C 	0.04665 0.50372 0.47796 0.10400
N 	N 	0.08281 0.56489 0.49301 -0.19900
H 	H 	0.06026 0.40856 0.42680 0.05400
H 	H 	0.06039 0.57760 0.50801 0.08300
H 	H 	0.13328 0.60030 0.49008 0.09300
C 	C 	0.57425 0.49380 0.43617 -0.04700
C 	C 	0.57787 0.48226 0.46048 -0.09400
C 	C 	0.53857 0.50957 0.47578 0.10800
C 	C 	0.49155 0.54086 0.46625 -0.04600
C 	C 	0.48381 0.54614 0.44179 -0.09400
C 	C 	0.52682 0.52439 0.42655 0.11100
N 	N 	0.52148 0.53026 0.40274 -0.19900
H 	H 	0.60546 0.47423 0.42453 0.03100
H 	H 	0.45980 0.55950 0.47790 0.02600
N 	N 	0.54526 0.50516 0.49959 -0.19900
H 	H 	0.55372 0.51437 0.39172 0.08300
H 	H 	0.48517 0.54978 0.39487 0.09600
H 	H 	0.58224 0.48618 0.50723 0.08900
H 	H 	0.51454 0.52308 0.51076 0.07900
C 	C 	0.76065 0.10312 0.55517 -0.07200
C 	C 	0.79825 0.15602 0.57331 -0.02700
H 	H 	0.81555 0.22023 0.57085 0.04300
C 	C 	0.28550 0.01088 0.55916 -0.02600
C 	C 	0.24137 0.99443 0.57797 -0.06200
C 	C 	0.25034 0.05204 0.59601 0.02600
C 	C 	0.30362 0.12710 0.59503 -0.01500
C 	C 	0.34813 0.14365 0.57608 -0.00400
C 	C 	0.33930 0.08504 0.55819 0.00600
C 	C 	0.40213 0.21824 0.57524 0.01100
C 	C 	0.41053 0.27625 0.59314 -0.04300
C 	C 	0.36610 0.25991 0.61194 -0.04600
C 	C 	0.31273 0.18535 0.61307 0.01700
C 	C 	0.26826 0.16829 0.63197 -0.03100
C 	C 	0.21495 0.09354 0.63288 -0.05800
C 	C 	0.20667 0.03541 0.61499 -0.02600
C 	C 	0.38532 0.10050 0.53989 -0.02500
C 	C 	0.44075 0.17343 0.53953 -0.06600
C 	C 	0.44805 0.23302 0.55684 -0.03000
H 	H 	0.27814 0.96563 0.54544 0.02800
H 	H 	0.20029 0.93673 0.57853 0.04100
H 	H 	0.45173 0.33384 0.59262 0.03400
H 	H 	0.37342 0.30518 0.62564 0.03500
H 	H 	0.27446 0.21325 0.64570 0.03300
H 	H 	0.16617 0.97726 0.61588 0.04400
H 	H 	0.37893 0.05528 0.52621 0.04100
H 	H 	0.49072 0.28947 0.55644 0.03300
C 	C 	0.01738 0.61520 0.95335 -0.04500
C 	C 	0.03781 0.58364 0.97339 -0.09500
N 	N 	0.00551 0.49519 0.00645 -0.20400
H 	H 	0.05429 0.66441 0.94438 0.04500
H 	H 	0.05197 0.52514 0.01521 0.10000
C 	C 	0.54079 0.07700 0.96266 -0.03800
C 	C 	0.55420 0.06611 0.93910 -0.09200
C 	C 	0.52554 0.98877 0.92830 0.10500
C 	C 	0.48096 0.92522 0.94097 -0.04100
C 	C 	0.46658 0.93625 0.96449 -0.09000
C 	C 	0.49888 0.01282 0.97573 0.10400
N 	N 	0.49106 0.02511 0.99901 -0.19100
H 	H 	0.56311 0.13605 0.97093 0.04200
H 	H 	0.45743 0.86679 0.93243 0.05100
N 	N 	0.54013 0.97503 0.90582 -0.19500
H 	H 	0.50995 0.08307 0.00638 0.07600
H 	H 	0.47154 0.97787 0.01043 0.05100
H 	H 	0.57810 0.01785 0.89670 0.06600
H 	H 	0.51558 0.91904 0.89759 0.08000
C 	C 	0.43603 0.43236 0.92637 -0.03800
C 	C 	0.49479 0.43552 0.93910 -0.09100
C 	C 	0.50597 0.46588 0.96259 0.09700
C 	C 	0.46093 0.49868 0.97218 -0.03700
C 	C 	0.40474 0.50075 0.95886 -0.09000
C 	C 	0.39055 0.46446 0.93608 0.10000
N 	N 	0.33401 0.46111 0.92336 -0.19700
H 	H 	0.42646 0.40659 0.90864 0.04900
H 	H 	0.47083 0.52500 0.98985 0.04500
N 	N 	0.55944 0.46326 0.97604 -0.19600
H 	H 	0.32483 0.43598 0.90632 0.08100
H 	H 	0.29792 0.48161 0.93042 0.05900
H 	H 	0.59147 0.43487 0.96998 0.03800
H 	H 	0.56829 0.48785 0.99315 0.07700
C 	C 	0.79930 0.11644 0.79799 -0.04200
C 	C 	0.83962 0.24378 0.85263 -0.06900
C 	C 	0.80376 0.18477 0.83571 -0.02600
H 	H 	0.80363 0.05856 0.76500 0.03800
H 	H 	0.74682 0.07877 0.80057 0.03200
H 	H 	0.09213 0.35780 0.80185 0.03700
H 	H 	0.75135 0.14714 0.83856 0.00600
H 	H 	0.09218 0.27602 0.76672 0.04000
C 	C 	0.41060 0.22746 0.76815 -0.04100
C 	C 	0.45591 0.24580 0.78764 -0.04500
C 	C 	0.44730 0.19048 0.80575 0.01700
C 	C 	0.39434 0.11492 0.80381 -0.01100
C 	C 	0.34835 0.09677 0.78431 -0.00600
C 	C 	0.35581 0.15387 0.76664 0.01300
C 	C 	0.29315 0.02302 0.78301 0.01700
C 	C 	0.28635 0.96625 0.80060 -0.04600
C 	C 	0.33250 0.98394 0.81987 -0.04800
C 	C 	0.38581 0.05871 0.82183 0.02000
C 	C 	0.42936 0.07904 0.84189 -0.02600
C 	C 	0.48016 0.15551 0.84422 -0.06400
C 	C 	0.48973 0.21057 0.82604 -0.03200
C 	C 	0.30648 0.13847 0.74838 -0.02100
C 	C 	0.24831 0.06810 0.74822 -0.06600
C 	C 	0.24357 0.00869 0.76485 -0.01600
H 	H 	0.41722 0.27131 0.75451 0.03600
H 	H 	0.49708 0.30353 0.78881 0.03600
H 	H 	0.24459 0.90898 0.79960 0.03700
H 	H 	0.32597 0.94002 0.83348 0.03800
H 	H 	0.42258 0.03651 0.85596 0.04600
H 	H 	0.52974 0.26918 0.82784 0.02800
H 	H 	0.31159 0.18281 0.73497 0.04000
H 	H 	0.19969 0.95331 0.76438 0.04200
C 	C 	0.79259 0.66827 0.84450 0.01500
C 	C 	0.86790 0.58850 0.86797 -0.02600
C 	C 	0.80256 0.57934 0.87533 -0.06500
C 	C 	0.76590 0.62118 0.86408 -0.02300
H 	H 	0.89592 0.55582 0.87668 0.04400
H 	H 	0.71538 0.61377 0.86981 0.04000
O 	O 	0.02109 0.00104 0.18174 -0.40900
H 	H 	0.23971 0.39568 0.27947 0.03400
C 	C 	0.00190 0.72626 0.63398 -0.05600
C 	C 	0.97099 0.64332 0.63688 -0.02900
C 	C 	0.83499 0.17530 0.81497 0.01200
C 	C 	0.89564 0.63660 0.84871 0.01700
C 	C 	0.83151 0.10512 0.77776 -0.04300
O 	O 	0.83731 0.42745 0.92398 -0.38400
H 	H 	0.03190 0.45707 0.13257 0.03400
C 	C 	0.01731 0.75705 0.61128 -0.03300
H 	H 	0.04221 0.82111 0.60911 0.05100
C 	C 	0.01563 0.30211 0.13570 -0.03200
H 	H 	0.99027 0.61528 0.85014 0.03900
C 	C 	0.03343 0.70391 0.27301 -0.04800
C 	C 	0.00394 0.73788 0.56859 -0.05700
C 	C 	0.99513 0.70632 0.59135 0.03000
H 	H 	0.03212 0.80110 0.56617 0.04100
O 	O 	0.99703 0.20825 0.17723 -0.41900
H 	H 	0.04366 0.69941 0.25453 0.03300
H 	H 	0.86934 0.24286 0.61040 0.03600
C 	C 	0.75428 0.70586 0.83212 -0.04300
H 	H 	0.70471 0.70133 0.83811 0.03700
C 	C 	0.85728 0.67515 0.83660 -0.00900
C 	C 	0.96017 0.64412 0.84083 -0.04500
C 	C 	0.82996 0.87294 0.15489 0.26300
C 	C 	0.77922 0.74819 0.81168 -0.04300
H 	H 	0.74865 0.77597 0.80216 0.03600
C 	C 	0.81321 0.12611 0.59463 0.01300
C 	C 	0.85227 0.17858 0.61257 -0.04400
H 	H 	0.90268 0.18947 0.64655 0.03300
C 	C 	0.84296 0.75390 0.80343 0.01400
C 	C 	0.87099 0.14826 0.63315 -0.04200
C 	C 	0.85887 0.47846 0.53581 -0.06500
C 	C 	0.83708 0.46907 0.94348 0.29700
O 	O 	0.84336 0.30337 0.48671 -0.38100
C 	C 	0.86529 0.35925 0.47056 0.29600
O 	O 	0.82254 0.37576 0.45596 -0.42100
O 	O 	0.82330 0.82149 0.24211 -0.40800
Ni	Ni	0.81558 0.85370 0.20784 1.06600
C 	C 	0.78396 0.96529 0.23882 0.29400
H 	H 	0.80475 0.93770 0.28452 0.05300
C 	C 	0.72807 0.90645 0.58335 -0.04200
C 	C 	0.74647 0.87619 0.60399 -0.04100
C 	C 	0.78820 0.92861 0.62142 0.00800
C 	C 	0.80846 0.01216 0.61867 -0.00200
C 	C 	0.79008 0.04262 0.59789 -0.00500
C 	C 	0.75098 0.98951 0.57995 0.00400
C 	C 	0.85084 0.06514 0.63603 0.01000
C 	C 	0.87686 0.03440 0.65503 -0.01800
C 	C 	0.73658 0.01995 0.55865 -0.02200
H 	H 	0.69706 0.86519 0.56983 0.03500
H 	H 	0.72981 0.81191 0.60609 0.03700
H 	H 	0.91284 0.07502 0.66762 0.02000
H 	H 	0.70732 0.97909 0.54472 0.03400
C 	C 	0.85924 0.44400 0.55799 -0.02400
H 	H 	0.83068 0.38077 0.56031 0.04600
C 	C 	0.90296 0.22479 0.81124 -0.00800
C 	C 	0.89988 0.15227 0.77431 0.01500
C 	C 	0.90702 0.29387 0.84875 -0.02200
H 	H 	0.90789 0.08689 0.74304 0.02800
C 	C 	0.88262 0.71834 0.81613 -0.00700
C 	C 	0.94698 0.72443 0.80809 0.01200
C 	C 	0.98579 0.68800 0.82069 -0.03700
H 	H 	0.03546 0.69276 0.81475 0.03200
C 	C 	0.01090 0.22165 0.13513 -0.06100
C 	C 	0.81444 0.89877 0.64057 -0.01700
C 	C 	0.89753 0.75661 0.33457 -0.03800
H 	H 	0.85522 0.77283 0.33996 0.03700
C 	C 	0.91075 0.75261 0.31054 0.01100
H 	H 	0.90925 0.48363 0.63718 0.03400
H 	H 	0.03480 0.37937 0.83717 0.03700
O 	O 	0.95065 0.77470 0.66500 -0.39800
C 	C 	0.87440 0.77813 0.29339 -0.01900
H 	H 	0.83566 0.80100 0.29866 0.04100
C 	C 	0.89986 0.55910 0.53253 -0.02500
H 	H 	0.90234 0.58498 0.51523 0.04400
C 	C 	0.00405 0.17848 0.75310 -0.06500
O 	O 	0.01164 0.90639 0.75364 -0.37400
O 	O 	0.91443 0.82612 0.73365 -0.41000
Ni	Ni	0.94180 0.80847 0.69934 1.06400
O 	O 	0.89732 0.88737 0.68844 -0.41100
C 	C 	0.91211 0.92420 0.66833 0.28200
C 	C 	0.95610 0.84131 0.75243 0.26600
Ni	Ni	0.93328 0.00513 0.23536 1.10000
O 	O 	0.94449 0.08398 0.20872 -0.70300
Ni	Ni	0.92850 0.01179 0.18037 1.09800
O 	O 	0.84415 0.01847 0.24444 -0.37800
O 	O 	0.95701 0.09344 0.15350 -0.38300
O 	O 	0.90791 0.93185 0.20703 -0.69700
O 	O 	0.91586 0.91948 0.26006 -0.37700
O 	O 	0.89447 0.91968 0.15606 -0.37600
H 	H 	0.90832 0.10698 0.20907 0.15700
H 	H 	0.93904 0.90169 0.20671 0.14900
C 	C 	0.88092 0.84315 0.25493 0.26300
C 	C 	0.89383 0.78374 0.26980 -0.06200
C 	C 	0.94181 0.75125 0.26271 -0.03400
H 	H 	0.95513 0.75344 0.24431 0.02200
C 	C 	0.93910 0.39678 0.46696 -0.09600
C 	C 	0.96932 0.37697 0.44702 0.11600
H 	H 	0.95597 0.47141 0.49827 0.04700
N 	N 	0.93363 0.31416 0.43244 -0.20100
H 	H 	0.88441 0.27631 0.43617 0.09200
H 	H 	0.95583 0.30115 0.41744 0.08700
C 	C 	0.86286 0.95172 0.65625 -0.07200
H 	H 	0.80246 0.83474 0.64195 0.03800
C 	C 	0.93583 0.60700 0.55179 0.00900
C 	C 	0.93071 0.57386 0.57443 -0.00400
C 	C 	0.91578 0.50908 0.61977 -0.04600
C 	C 	0.88809 0.45928 0.60004 -0.04200
C 	C 	0.89350 0.49174 0.57742 0.01200
H 	H 	0.97979 0.71424 0.53155 0.03700
H 	H 	0.86067 0.39587 0.60243 0.03400
C 	C 	0.92210 0.48718 0.97625 -0.04400
C 	C 	0.90289 0.51574 0.95539 -0.09400
C 	C 	0.94983 0.58355 0.94468 0.11000
H 	H 	0.88551 0.43685 0.98490 0.04500
N 	N 	0.92994 0.61973 0.92654 -0.20200
H 	H 	0.87865 0.60599 0.92226 0.09700
H 	H 	0.96564 0.66620 0.91762 0.08700
C 	C 	0.93542 0.21326 0.79090 -0.00500
C 	C 	0.00434 0.26025 0.78767 0.01100
C 	C 	0.00687 0.33293 0.82439 -0.04500
C 	C 	0.93900 0.28435 0.82816 0.01700
C 	C 	0.93422 0.13609 0.75526 -0.02500
H 	H 	0.93453 0.33961 0.86181 0.04700
C 	C 	0.86718 0.79386 0.78249 -0.02600
C 	C 	0.93096 0.79927 0.77435 -0.06100
C 	C 	0.97119 0.76570 0.78733 -0.02400
H 	H 	0.83675 0.82107 0.77261 0.04200
H 	H 	0.02066 0.77065 0.78107 0.03100
C 	C 	0.03938 0.32085 0.80428 -0.04100
O 	O 	0.96658 0.92700 0.65722 -0.37100
H 	H 	0.99974 0.32630 0.15111 0.04200
C 	C 	0.97422 0.68856 0.54893 -0.03300
C 	C 	0.97870 0.45778 0.48268 -0.04000
C 	C 	0.95000 0.59169 0.61707 0.01700
O 	O 	0.05468 0.08046 0.74651 -0.37300
H 	H 	0.96046 0.61961 0.65446 0.02600
C 	C 	0.96503 0.72962 0.30375 -0.00100
C 	C 	0.04305 0.14370 0.73861 0.27500
C 	C 	0.03829 0.24296 0.76860 -0.02000
H 	H 	0.00695 0.04334 0.69061 0.15300
C 	C 	0.98886 0.52176 0.98570 0.11000
C 	C 	0.97881 0.72589 0.27965 0.01700
H 	H 	0.97027 0.44646 0.01471 0.08800
C 	C 	0.98990 0.17207 0.15629 0.28200
C 	C 	0.95979 0.62367 0.59424 -0.01500
