data_crystal

_cell_length_a 17.77742
_cell_length_b 16.87822
_cell_length_c 49.37220
_cell_angle_alpha 90.72061
_cell_angle_beta  91.00565
_cell_angle_gamma 110.79816

_symmetry_space_group_name_	'P 1'
_symmetry_space_group_name_H-M	'P 1'

loop_
_symmetry_equiv_pos_as_xyz
  x,y,z

loop_
_atom_site_label
_atom_site_type_symbol
_atom_site_fract_x
_atom_site_fract_y
_atom_site_fract_z
_atom_site_charge
O 	O 	0.08548 0.90070 0.76436 -0.70200
Ni	Ni	0.11172 0.00954 0.78610 1.10600
O 	O 	0.12614 0.79822 0.72221 -0.36600
Ni	Ni	0.18577 0.89792 0.74943 1.08000
O 	O 	0.18352 0.99499 0.72561 -0.41300
O 	O 	0.20070 0.99754 0.81057 -0.37100
O 	O 	0.02560 0.01984 0.76018 -0.71000
O 	O 	0.10928 0.11192 0.80880 -0.33200
H 	H 	0.05863 0.85026 0.77530 0.19000
H 	H 	0.04384 0.07433 0.75057 0.17900
C 	C 	0.20935 0.07362 0.73548 0.31400
C 	C 	0.05368 0.78272 0.71158 0.34100
C 	C 	0.26633 0.99212 0.80014 0.33100
C 	C 	0.03968 0.11395 0.81689 0.30500
O 	O 	0.19707 0.08979 0.76115 -0.32200
O 	O 	0.27084 0.98374 0.77373 -0.36100
Ni	Ni	0.36309 0.75325 0.40908 1.09900
O 	O 	0.35158 0.67084 0.37671 -0.69600
Ni	Ni	0.23759 0.65406 0.36477 1.10000
O 	O 	0.46032 0.73654 0.42761 -0.35900
O 	O 	0.45674 0.60959 0.41056 -0.38600
O 	O 	0.44222 0.85223 0.38850 -0.36800
Ni	Ni	0.35114 0.55875 0.38750 1.07400
O 	O 	0.34375 0.92876 0.40845 -0.38200
O 	O 	0.28275 0.56101 0.42003 -0.41700
O 	O 	0.22445 0.56392 0.33548 -0.36500
O 	O 	0.25586 0.74543 0.39398 -0.70900
O 	O 	0.36631 0.83789 0.43901 -0.36900
O 	O 	0.12868 0.66163 0.35341 -0.35700
O 	O 	0.18626 0.80384 0.34689 -0.39100
Ni	Ni	0.26788 0.85572 0.37880 1.08100
H 	H 	0.38996 0.69464 0.36207 0.17100
H 	H 	0.21433 0.72944 0.40803 0.16900
C 	C 	0.20808 0.55818 0.41705 0.26300
O 	O 	0.35960 0.86075 0.35369 -0.38000
C 	C 	0.46284 0.66078 0.43142 0.28000
C 	C 	0.23230 0.49186 0.34151 0.34300
C 	C 	0.43162 0.86911 0.36316 0.33200
C 	C 	0.12155 0.73555 0.34949 0.32600
C 	C 	0.34543 0.90382 0.43371 0.27000
O 	O 	0.17801 0.56388 0.39270 -0.36100
O 	O 	0.25275 0.47917 0.36643 -0.40800
Ni	Ni	0.35659 0.64750 0.13550 1.10400
O 	O 	0.25731 0.61413 0.10958 -0.69400
Ni	Ni	0.19469 0.68120 0.12545 1.09900
O 	O 	0.40341 0.56648 0.11693 -0.34400
O 	O 	0.28560 0.45494 0.11395 -0.38900
O 	O 	0.41205 0.73310 0.10657 -0.37200
Ni	Ni	0.18840 0.49435 0.10894 1.07000
O 	O 	0.42709 0.78811 0.18515 -0.39100
O 	O 	0.17506 0.49568 0.14987 -0.39400
O 	O 	0.10620 0.65167 0.09641 -0.37200
O 	O 	0.28705 0.70398 0.15325 -0.70200
O 	O 	0.45930 0.68991 0.15979 -0.35200
O 	O 	0.15468 0.77229 0.14095 -0.37000
O 	O 	0.28000 0.87095 0.13789 -0.38300
Ni	Ni	0.35169 0.82320 0.16114 1.09300
H 	H 	0.27242 0.63279 0.09086 0.14800
H 	H 	0.26701 0.67527 0.17043 0.18100
C 	C 	0.12493 0.52745 0.16075 0.34100
O 	O 	0.43544 0.85388 0.13155 -0.35000
C 	C 	0.35555 0.49889 0.10377 0.27700
C 	C 	0.07664 0.57383 0.08642 0.27900
C 	C 	0.42534 0.81469 0.10791 0.27800
C 	C 	0.20379 0.85136 0.14349 0.31800
C 	C 	0.48118 0.75999 0.17497 0.34800
O 	O 	0.11474 0.59483 0.15044 -0.36500
O 	O 	0.08147 0.50984 0.10060 -0.40600
O 	O 	0.06013 0.19399 0.24961 -0.37900
O 	O 	0.11317 0.06700 0.23454 -0.39800
O 	O 	0.02259 0.08202 0.20331 -0.33800
Ni	Ni	0.05063 0.01144 0.26781 1.08000
O 	O 	0.07245 0.12369 0.28768 -0.38300
C 	C 	0.08171 0.19457 0.27526 0.33200
C 	C 	0.08087 0.05409 0.20978 0.32100
C 	C 	0.98498 0.44486 0.17429 -0.06800
C 	C 	0.06777 0.47704 0.18073 -0.13900
C 	C 	0.09639 0.44858 0.20395 0.35200
C 	C 	0.96322 0.34365 0.21058 -0.10500
C 	C 	0.93284 0.37807 0.18908 0.33900
F 	F 	0.85432 0.34244 0.18114 -0.42700
H 	H 	0.96198 0.46737 0.15667 0.10400
F 	F 	0.17568 0.48156 0.21114 -0.43500
C 	C 	0.19777 0.02845 0.18978 -0.09400
C 	C 	0.11533 0.01548 0.18878 -0.12500
C 	C 	0.06453 0.95680 0.16991 0.32800
C 	C 	0.09490 0.90701 0.15377 -0.08200
C 	C 	0.17602 0.91497 0.15642 -0.13300
C 	C 	0.22810 0.97837 0.17380 0.33700
F 	F 	0.30711 0.98827 0.17636 -0.47200
H 	H 	0.23784 0.07510 0.20375 0.10400
H 	H 	0.05467 0.85998 0.13994 0.10200
F 	F 	0.98478 0.94430 0.16839 -0.42800
C 	C 	0.12644 0.35069 0.33362 -0.08600
C 	C 	0.19169 0.41787 0.32387 -0.12900
C 	C 	0.21576 0.41515 0.29703 0.34300
C 	C 	0.17712 0.34356 0.28053 -0.08500
C 	C 	0.11378 0.27493 0.29071 -0.13700
C 	C 	0.08722 0.27989 0.31710 0.33500
F 	F 	0.02384 0.21548 0.32682 -0.46200
H 	H 	0.10595 0.35352 0.35403 0.09800
H 	H 	0.19787 0.34044 0.26018 0.11200
F 	F 	0.27777 0.48074 0.28719 -0.43000
C 	C 	0.01548 0.71942 0.31442 -0.09700
C 	C 	0.04310 0.73894 0.34132 -0.12000
C 	C 	0.00609 0.78126 0.35812 0.32100
C 	C 	0.95323 0.81717 0.34681 -0.06800
C 	C 	0.94036 0.81381 0.31864 -0.11500
C 	C 	0.96288 0.75584 0.30316 0.34500
F 	F 	0.94426 0.74537 0.27625 -0.44000
H 	H 	0.04067 0.68307 0.30157 0.10300
F 	F 	0.02786 0.79532 0.38474 -0.46400
C 	C 	0.29300 0.94193 0.52885 -0.04000
C 	C 	0.32333 0.97770 0.50399 0.02800
C 	C 	0.37507 0.06322 0.50319 -0.01200
C 	C 	0.40608 0.09944 0.47830 0.02500
C 	C 	0.39012 0.04830 0.45474 -0.02900
C 	C 	0.34481 0.96131 0.45612 -0.04700
C 	C 	0.30762 0.92744 0.48032 -0.02900
H 	H 	0.25166 0.87692 0.52957 0.04800
H 	H 	0.41721 0.07471 0.43583 0.05900
H 	H 	0.27042 0.86077 0.48102 0.04300
C 	C 	0.05463 0.47854 0.48525 -0.00100
C 	C 	0.13645 0.52907 0.48930 0.01900
C 	C 	0.02260 0.45566 0.45873 0.00700
C 	C 	0.94102 0.40519 0.45489 -0.02000
C 	C 	0.89116 0.37906 0.47718 -0.04500
C 	C 	0.18583 0.55666 0.46685 -0.03000
C 	C 	0.15418 0.53380 0.44038 -0.05500
C 	C 	0.07247 0.48359 0.43639 -0.01900
H 	H 	0.91595 0.38669 0.43463 0.05100
H 	H 	0.82813 0.34104 0.47384 0.04900
H 	H 	0.24878 0.59572 0.46993 0.04000
H 	H 	0.04817 0.46513 0.41602 0.05900
C 	C 	0.60829 0.75383 0.51878 -0.03700
C 	C 	0.55845 0.68868 0.50156 0.01900
C 	C 	0.52436 0.60559 0.51129 -0.00600
C 	C 	0.44077 0.45713 0.50395 -0.03900
C 	C 	0.47460 0.53970 0.49410 0.01700
C 	C 	0.45806 0.55749 0.46744 -0.02600
C 	C 	0.49002 0.64067 0.45794 -0.05500
C 	C 	0.54132 0.70585 0.47489 -0.02200
H 	H 	0.63478 0.81790 0.51148 0.05000
H 	H 	0.40263 0.40603 0.49089 0.04300
H 	H 	0.41815 0.50740 0.45439 0.03700
H 	H 	0.56684 0.76987 0.46743 0.06100
C 	C 	0.40857 0.23763 0.71808 -0.08600
C 	C 	0.40434 0.22982 0.68978 -0.11500
C 	C 	0.33004 0.18547 0.67672 0.34700
C 	C 	0.26331 0.14040 0.69191 -0.09200
C 	C 	0.27001 0.14003 0.72024 -0.11100
C 	C 	0.34152 0.19346 0.73334 0.35300
F 	F 	0.34777 0.19831 0.76080 -0.40400
H 	H 	0.46506 0.27365 0.72831 0.10800
H 	H 	0.20769 0.10213 0.68160 0.10100
F 	F 	0.32393 0.18184 0.64924 -0.43200
C 	C 	0.05707 0.63657 0.99021 -0.02200
C 	C 	0.01354 0.62309 0.96565 -0.06400
C 	C 	0.02244 0.59057 0.01317 -0.00800
C 	C 	0.06555 0.60433 0.03786 -0.01200
C 	C 	0.03106 0.55752 0.06066 -0.08400
C 	C 	0.95308 0.49644 0.05883 0.00200
H 	H 	0.11774 0.68281 0.99137 0.04000
H 	H 	0.04112 0.65901 0.94811 0.05400
H 	H 	0.12607 0.65105 0.03938 0.02900
H 	H 	0.92663 0.46058 0.07653 0.05400
C 	C 	0.60516 0.13354 0.04150 -0.03400
C 	C 	0.57464 0.08704 0.06467 -0.03800
C 	C 	0.53052 0.99963 0.06251 0.03000
C 	C 	0.51783 0.95851 0.03689 -0.00500
C 	C 	0.54870 0.00530 0.01356 -0.00500
C 	C 	0.59186 0.09326 0.01586 0.02200
C 	C 	0.47363 0.87081 0.03452 0.02200
C 	C 	0.44194 0.82471 0.05771 -0.03000
C 	C 	0.45517 0.86519 0.08340 -0.03800
C 	C 	0.49904 0.95289 0.08567 -0.02000
C 	C 	0.61946 0.14019 0.99245 -0.02500
H 	H 	0.63864 0.20103 0.04350 0.04700
H 	H 	0.58509 0.11917 0.08428 0.06000
H 	H 	0.40727 0.75741 0.05582 0.04000
H 	H 	0.50936 0.98448 0.10538 0.07900
H 	H 	0.65182 0.20803 0.99412 0.04400
C 	C 	0.48887 0.60570 0.01789 -0.04200
C 	C 	0.43700 0.53901 0.03292 0.02000
C 	C 	0.40033 0.45816 0.02066 -0.00900
C 	C 	0.32814 0.29672 0.99633 -0.03900
C 	C 	0.31119 0.31076 0.02315 -0.04000
C 	C 	0.34806 0.39089 0.03560 0.01800
C 	C 	0.33430 0.40423 0.06288 -0.03400
C 	C 	0.37187 0.48439 0.07529 -0.07000
C 	C 	0.42243 0.55189 0.06014 -0.03000
H 	H 	0.51629 0.66844 0.02701 0.04800
H 	H 	0.27012 0.25897 0.03433 0.04600
H 	H 	0.29501 0.35232 0.07450 0.04500
H 	H 	0.45003 0.61430 0.06949 0.05800
C 	C 	0.33899 0.00904 0.84473 -0.09100
C 	C 	0.34172 0.02147 0.81667 -0.11400
C 	C 	0.41593 0.06746 0.80485 0.34700
C 	C 	0.48468 0.10521 0.82123 -0.08900
C 	C 	0.48050 0.09730 0.84941 -0.12800
C 	C 	0.40801 0.04634 0.86103 0.34400
F 	F 	0.40437 0.03337 0.88814 -0.43400
H 	H 	0.28304 0.97158 0.85398 0.10100
H 	H 	0.54054 0.14327 0.81205 0.09500
F 	F 	0.42100 0.07810 0.77766 -0.41900
Ni	Ni	0.61271 0.28948 0.90778 1.10000
O 	O 	0.62682 0.35316 0.87173 -0.69500
Ni	Ni	0.74143 0.36412 0.86407 1.10000
O 	O 	0.51176 0.31128 0.91923 -0.35400
O 	O 	0.51897 0.43142 0.89742 -0.38300
O 	O 	0.53607 0.17918 0.88987 -0.34200
Ni	Ni	0.62671 0.46947 0.87670 1.07500
O 	O 	0.62996 0.11570 0.91890 -0.38400
O 	O 	0.69216 0.48393 0.91197 -0.41200
O 	O 	0.75881 0.44112 0.83135 -0.36800
O 	O 	0.72102 0.29073 0.89758 -0.70800
O 	O 	0.60717 0.22346 0.94228 -0.37100
O 	O 	0.85096 0.35122 0.85853 -0.36000
O 	O 	0.79378 0.20684 0.85865 -0.39500
Ni	Ni	0.71071 0.17370 0.88958 1.07800
H 	H 	0.58902 0.32158 0.85706 0.17300
H 	H 	0.76130 0.31485 0.91238 0.16700
C 	C 	0.76469 0.47973 0.91221 0.26000
O 	O 	0.62244 0.15317 0.86058 -0.41000
C 	C 	0.50762 0.38725 0.91973 0.27800
C 	C 	0.75069 0.51535 0.83343 0.34300
C 	C 	0.54940 0.14779 0.86679 0.33100
C 	C 	0.85840 0.27633 0.85936 0.33100
C 	C 	0.62140 0.15178 0.94215 0.27800
O 	O 	0.79737 0.46704 0.88950 -0.36000
O 	O 	0.72747 0.53877 0.85644 -0.40100
Ni	Ni	0.59926 0.36929 0.63982 1.10800
O 	O 	0.68049 0.39044 0.60901 -0.69400
Ni	Ni	0.75648 0.33761 0.62405 1.10100
O 	O 	0.55650 0.46383 0.62991 -0.34100
O 	O 	0.68138 0.55514 0.62187 -0.39000
O 	O 	0.51212 0.28753 0.61443 -0.35200
Ni	Ni	0.74390 0.50336 0.59677 1.07700
O 	O 	0.48884 0.19398 0.65843 -0.37900
O 	O 	0.84669 0.53684 0.62066 -0.39300
O 	O 	0.85065 0.38202 0.59748 -0.36300
O 	O 	0.66548 0.30170 0.65151 -0.70000
O 	O 	0.51877 0.33470 0.67017 -0.35400
O 	O 	0.80901 0.25992 0.64179 -0.33500
O 	O 	0.69178 0.14546 0.63774 -0.40500
Ni	Ni	0.59647 0.18293 0.64846 1.07600
H 	H 	0.65438 0.35725 0.59260 0.15000
H 	H 	0.68548 0.31691 0.67041 0.19600
C 	C 	0.84981 0.51177 0.64559 0.35100
O 	O 	0.57231 0.18968 0.60838 -0.40800
C 	C 	0.60336 0.53112 0.61753 0.27800
C 	C 	0.84475 0.41326 0.57327 0.28300
C 	C 	0.52287 0.22673 0.59996 0.28400
C 	C 	0.76463 0.18199 0.64840 0.32300
C 	C 	0.47865 0.25336 0.67433 0.32600
O 	O 	0.81499 0.43171 0.65179 -0.35100
O 	O 	0.79264 0.45117 0.56807 -0.41100
Ni	Ni	0.01319 0.92380 0.73463 1.10200
O 	O 	0.02990 0.84534 0.70555 -0.35800
O 	O 	0.91447 0.82683 0.74851 -0.36500
O 	O 	0.85373 0.95769 0.74208 -0.39100
O 	O 	0.93836 0.95234 0.70814 -0.33300
O 	O 	0.97426 0.04600 0.81439 -0.38300
Ni	Ni	0.92177 0.99982 0.77678 1.08100
O 	O 	0.90722 0.88199 0.79043 -0.38400
C 	C 	0.89730 0.81651 0.77432 0.33400
C 	C 	0.88262 0.97919 0.71761 0.32900
Ni	Ni	0.95603 0.10588 0.23325 1.11000
O 	O 	0.89295 0.12376 0.26604 -0.69900
Ni	Ni	0.86767 0.00968 0.28298 1.11000
O 	O 	0.93797 0.19537 0.20935 -0.35400
O 	O 	0.84812 0.24051 0.23105 -0.35900
Ni	Ni	0.79081 0.13410 0.25465 1.07800
O 	O 	0.78272 0.04368 0.22568 -0.41100
O 	O 	0.78764 0.02003 0.31063 -0.34100
O 	O 	0.94429 0.00173 0.25382 -0.70300
O 	O 	0.86908 0.89958 0.30019 -0.31000
O 	O 	0.00604 0.95536 0.30416 -0.39800
H 	H 	0.92390 0.17051 0.27862 0.18900
H 	H 	0.92096 0.95046 0.24209 0.19500
C 	C 	0.76115 0.96272 0.23211 0.30700
C 	C 	0.91833 0.25706 0.21949 0.33300
C 	C 	0.71906 0.02619 0.30258 0.32600
C 	C 	0.93836 0.89017 0.30546 0.33400
O 	O 	0.77387 0.94085 0.25708 -0.31300
O 	O 	0.70851 0.04406 0.27715 -0.39300
C 	C 	0.04408 0.38271 0.21894 -0.10400
H 	H 	0.06760 0.35815 0.23595 0.09900
C 	C 	0.58622 0.76844 0.20963 -0.07400
C 	C 	0.56436 0.79674 0.18525 -0.12400
C 	C 	0.61773 0.86988 0.17345 0.34700
C 	C 	0.68747 0.92009 0.18763 -0.09300
C 	C 	0.70402 0.89783 0.21380 -0.10200
C 	C 	0.65635 0.81796 0.22375 0.34000
F 	F 	0.67602 0.78982 0.24751 -0.40700
H 	H 	0.54676 0.71024 0.21835 0.11000
H 	H 	0.72626 0.97855 0.17887 0.11300
F 	F 	0.59986 0.89472 0.14888 -0.43800
C 	C 	0.58567 0.02234 0.31880 -0.10200
C 	C 	0.64708 0.98808 0.31915 -0.10400
C 	C 	0.63551 0.91240 0.33301 0.34300
C 	C 	0.56391 0.87246 0.34658 -0.08100
C 	C 	0.50274 0.90688 0.34632 -0.12900
C 	C 	0.51383 0.98205 0.33231 0.35400
F 	F 	0.45610 0.01736 0.33241 -0.44700
H 	H 	0.59358 0.08018 0.30801 0.09300
H 	H 	0.55594 0.81457 0.35734 0.09200
F 	F 	0.69249 0.87608 0.33263 -0.41600
H 	H 	0.93160 0.85742 0.35932 0.10800
C 	C 	0.31889 0.98863 0.55299 -0.03200
C 	C 	0.40096 0.11027 0.52748 -0.00200
C 	C 	0.37527 0.07160 0.55252 0.02000
C 	C 	0.45771 0.19364 0.52687 0.01600
C 	C 	0.48308 0.23159 0.50186 -0.03900
C 	C 	0.45753 0.18467 0.47769 -0.04200
C 	C 	0.41083 0.11386 0.57664 -0.01400
C 	C 	0.47255 0.19335 0.57584 -0.05100
C 	C 	0.49278 0.23523 0.55120 -0.02500
H 	H 	0.29728 0.95919 0.57211 0.05600
H 	H 	0.52476 0.29647 0.50116 0.04000
H 	H 	0.47992 0.21378 0.45860 0.04700
H 	H 	0.39402 0.08301 0.59592 0.06300
H 	H 	0.53917 0.29780 0.55086 0.02700
C 	C 	0.16784 0.55166 0.51577 -0.04000
C 	C 	0.11789 0.52573 0.53807 -0.03400
C 	C 	0.03591 0.47681 0.53419 0.00800
C 	C 	0.00443 0.45203 0.50770 -0.01600
C 	C 	0.92218 0.40317 0.50362 0.03400
C 	C 	0.87121 0.38249 0.52587 -0.02500
C 	C 	0.90134 0.41192 0.55205 -0.05700
C 	C 	0.98422 0.45579 0.55633 0.00400
H 	H 	0.23082 0.58990 0.51911 0.04600
H 	H 	0.14282 0.54467 0.55833 0.05100
H 	H 	0.80731 0.34772 0.52268 0.04300
H 	H 	0.00743 0.47813 0.57658 0.04400
C 	C 	0.62409 0.73663 0.54551 -0.04100
C 	C 	0.53971 0.58841 0.53826 -0.01200
C 	C 	0.59013 0.65409 0.55540 0.02000
C 	C 	0.50523 0.50541 0.54801 0.02000
C 	C 	0.45573 0.44017 0.53077 -0.04400
C 	C 	0.60723 0.63603 0.58201 -0.03600
C 	C 	0.57437 0.55297 0.59155 -0.07700
C 	C 	0.52205 0.48823 0.57467 -0.03700
H 	H 	0.66288 0.78753 0.55850 0.05200
H 	H 	0.42885 0.37621 0.53810 0.04900
H 	H 	0.64747 0.68589 0.59505 0.05600
H 	H 	0.49729 0.42389 0.58191 0.05400
C 	C 	0.79567 0.05164 0.65659 -0.08900
C 	C 	0.79933 0.13232 0.66543 -0.12800
C 	C 	0.82811 0.16123 0.69174 0.33600
C 	C 	0.85220 0.10946 0.70913 -0.08800
C 	C 	0.84905 0.02905 0.70024 -0.13100
C 	C 	0.82093 0.00038 0.67384 0.34600
F 	F 	0.81729 0.92258 0.66501 -0.42700
H 	H 	0.77285 0.02851 0.63640 0.09700
H 	H 	0.87469 0.13243 0.72937 0.07800
F 	F 	0.83073 0.23858 0.70070 -0.43600
C 	C 	0.98671 0.61502 0.65694 -0.05000
C 	C 	0.90798 0.56948 0.66499 -0.12800
C 	C 	0.88338 0.58482 0.69078 0.35100
C 	C 	0.93489 0.65009 0.70738 -0.07200
C 	C 	0.01124 0.70016 0.69837 -0.12900
C 	C 	0.03828 0.67997 0.67359 0.33200
F 	F 	0.11252 0.72697 0.66484 -0.43100
H 	H 	0.00695 0.60203 0.63736 0.08500
H 	H 	0.91387 0.66468 0.72661 0.09900
F 	F 	0.80801 0.53999 0.69908 -0.43300
C 	C 	0.93465 0.56391 0.96379 0.04700
C 	C 	0.89939 0.51752 0.98678 -0.02200
C 	C 	0.94358 0.53029 0.01140 0.02200
C 	C 	0.90876 0.48313 0.03430 0.00500
C 	C 	0.82984 0.42387 0.03243 -0.02900
C 	C 	0.78553 0.41200 0.00804 -0.04600
C 	C 	0.81984 0.45868 0.98516 0.03000
C 	C 	0.77565 0.44736 0.96070 -0.03700
C 	C 	0.81092 0.49314 0.93779 -0.05400
C 	C 	0.89041 0.55082 0.93929 -0.03100
H 	H 	0.80257 0.38729 0.04989 0.04800
H 	H 	0.72447 0.36659 0.00698 0.04500
H 	H 	0.71434 0.40235 0.95934 0.02700
H 	H 	0.91728 0.58609 0.92153 0.06300
C 	C 	0.53514 0.96436 0.98790 0.02500
C 	C 	0.49217 0.87671 0.98578 -0.03900
C 	C 	0.46154 0.83026 0.00894 -0.04000
C 	C 	0.60325 0.10014 0.96675 -0.04600
C 	C 	0.56282 0.01189 0.96460 -0.02300
H 	H 	0.48186 0.84455 0.96618 0.04900
H 	H 	0.42811 0.76277 0.00693 0.04000
H 	H 	0.55035 0.98085 0.94480 0.06500
C 	C 	0.50686 0.59129 0.99121 -0.04000
C 	C 	0.41772 0.44389 0.99372 -0.00800
C 	C 	0.47292 0.51011 0.97918 0.02100
C 	C 	0.38261 0.36249 0.98169 0.02300
C 	C 	0.49668 0.49312 0.95343 -0.02900
C 	C 	0.46629 0.41046 0.94236 -0.04900
C 	C 	0.40575 0.34668 0.95580 -0.02300
H 	H 	0.54825 0.64295 0.98007 0.04500
H 	H 	0.30020 0.23417 0.98714 0.05200
H 	H 	0.54237 0.54263 0.94280 0.04200
H 	H 	0.38012 0.28362 0.94673 0.06600
C 	C 	0.96717 0.28971 0.82696 -0.06200
C 	C 	0.93604 0.26895 0.85291 -0.13800
C 	C 	0.96753 0.22124 0.86971 0.35400
C 	C 	0.01802 0.18200 0.85894 -0.11100
C 	C 	0.03517 0.18853 0.83126 -0.10600
C 	C 	0.01742 0.25002 0.81620 0.30600
F 	F 	0.03909 0.26216 0.78992 -0.44600
H 	H 	0.94615 0.32972 0.81420 0.10100
H 	H 	0.03530 0.13819 0.87121 0.10100
F 	F 	0.94251 0.20563 0.89557 -0.46800
C 	C 	0.87144 0.63955 0.82296 -0.08300
C 	C 	0.79545 0.58223 0.81485 -0.12200
C 	C 	0.75853 0.59630 0.79093 0.34000
C 	C 	0.79524 0.67027 0.77626 -0.08100
C 	C 	0.86833 0.73087 0.78566 -0.13300
C 	C 	0.90756 0.71373 0.80858 0.33800
F 	F 	0.97895 0.77093 0.81766 -0.46200
H 	H 	0.90080 0.62856 0.84121 0.10200
H 	H 	0.76494 0.68241 0.75842 0.11000
F 	F 	0.68558 0.54051 0.78259 -0.43700
