data_crystal

_cell_length_a 23.29647
_cell_length_b 23.50042
_cell_length_c 34.94782
_cell_angle_alpha 95.48619
_cell_angle_beta  95.48545
_cell_angle_gamma 125.92572

_symmetry_space_group_name_	'P 1'
_symmetry_space_group_name_H-M	'P 1'

loop_
_symmetry_equiv_pos_as_xyz
  x,y,z

loop_
_atom_site_label
_atom_site_type_symbol
_atom_site_fract_x
_atom_site_fract_y
_atom_site_fract_z
_atom_site_charge
H 	H 	0.01999 0.90782 0.46579 0.04800
C 	C 	0.03716 0.97058 0.99313 -0.08400
C 	C 	0.03394 0.00582 0.46074 0.02400
H 	H 	0.03124 0.09509 0.45581 0.04800
C 	C 	0.04259 0.07728 0.99545 -0.08700
H 	H 	0.06308 0.94461 0.99065 0.05200
H 	H 	0.07260 0.13381 0.99457 0.05300
C 	C 	0.99997 0.03894 0.45787 -0.06800
C 	C 	0.97006 0.03752 0.99959 0.05400
C 	C 	0.93132 0.96447 0.00059 -0.08800
C 	C 	0.96479 0.93091 0.99732 0.04100
C 	C 	0.07619 0.04370 0.99212 0.03800
H 	H 	0.87521 0.93372 0.00373 0.05300
C 	C 	0.92586 0.99985 0.45785 0.03600
C 	C 	0.99365 0.93340 0.46351 -0.06800
C 	C 	0.91948 0.89389 0.46347 0.02800
C 	C 	0.88539 0.92711 0.46052 -0.07500
H 	H 	0.82804 0.89674 0.46059 0.05000
Cu	Cu	0.63798 0.23316 0.00348 0.92700
Cu	Cu	0.69238 0.23538 0.91993 0.87000
Cu	Cu	0.68645 0.35148 0.95577 0.89800
Cu	Cu	0.64653 0.36870 0.03295 0.89400
C 	C 	0.65735 0.28108 0.08592 0.28300
O 	O 	0.53365 0.19481 0.00275 -0.36600
C 	C 	0.66148 0.30597 0.86972 0.28300
O 	O 	0.70106 0.34504 0.00959 -0.64100
O 	O 	0.63070 0.24514 0.94837 -0.64100
O 	O 	0.67923 0.17907 0.99926 -0.37300
O 	O 	0.75981 0.25248 0.96310 -0.44200
O 	O 	0.62957 0.31459 0.07669 -0.38300
O 	O 	0.74513 0.45476 0.96683 -0.38400
C 	C 	0.74028 0.49349 0.99441 0.31000
C 	C 	0.50902 0.22884 0.98988 0.30200
O 	O 	0.55436 0.29570 0.98632 -0.39400
O 	O 	0.69223 0.46403 0.01743 -0.39700
O 	O 	0.66042 0.24016 0.05879 -0.35900
C 	C 	0.74003 0.20606 0.98645 0.28800
O 	O 	0.68892 0.35893 0.89990 -0.38400
O 	O 	0.64926 0.24496 0.87428 -0.41900
H 	H 	0.75233 0.37333 0.02255 0.16400
H 	H 	0.58088 0.21887 0.93352 0.17200
Cu	Cu	0.73817 0.33793 0.45373 0.92600
Cu	Cu	0.74142 0.29104 0.53910 0.87000
Cu	Cu	0.62192 0.29366 0.50350 0.89800
Cu	Cu	0.59912 0.32673 0.42486 0.89500
C 	C 	0.68178 0.30821 0.37143 0.28200
O 	O 	0.77595 0.44081 0.45225 -0.36300
C 	C 	0.67277 0.32487 0.58948 0.28200
O 	O 	0.62544 0.27546 0.44948 -0.64000
O 	O 	0.72907 0.34923 0.50919 -0.64100
O 	O 	0.79250 0.29654 0.45842 -0.37400
O 	O 	0.72133 0.22079 0.49712 -0.44200
O 	O 	0.64972 0.33792 0.37992 -0.38200
O 	O 	0.51760 0.23478 0.49414 -0.38300
C 	C 	0.47684 0.23634 0.46592 0.30800
C 	C 	0.74164 0.46575 0.46447 0.30000
O 	O 	0.67492 0.42133 0.46934 -0.39300
O 	O 	0.50489 0.28332 0.44246 -0.39600
O 	O 	0.72833 0.31191 0.39842 -0.36000
C 	C 	0.76601 0.23763 0.47267 0.28700
O 	O 	0.61781 0.29536 0.55990 -0.38400
O 	O 	0.73411 0.33713 0.58424 -0.41900
H 	H 	0.59680 0.22408 0.43763 0.16300
H 	H 	0.75582 0.39934 0.52298 0.17200
C 	C 	0.65589 0.31953 0.82978 -0.07500
C 	C 	0.71569 0.37903 0.81884 0.00200
C 	C 	0.71592 0.38585 0.77956 -0.05400
C 	C 	0.65433 0.33439 0.75047 0.00400
C 	C 	0.59355 0.27452 0.76181 0.00700
C 	C 	0.59437 0.26830 0.80143 -0.01800
C 	C 	0.53448 0.21926 0.73329 -0.04100
C 	C 	0.53680 0.22002 0.69364 -0.04200
C 	C 	0.59682 0.27770 0.68168 0.00700
C 	C 	0.65390 0.33769 0.70985 0.00400
C 	C 	0.70884 0.39890 0.69663 -0.05400
C 	C 	0.71369 0.39538 0.65701 0.00300
C 	C 	0.66126 0.33292 0.62972 -0.07500
C 	C 	0.60107 0.27558 0.64179 -0.01900
H 	H 	0.76393 0.41809 0.84055 0.03300
H 	H 	0.76561 0.42845 0.77192 0.04000
H 	H 	0.54824 0.22207 0.80998 0.03600
H 	H 	0.48761 0.17398 0.74189 0.03600
H 	H 	0.49192 0.17518 0.67211 0.03700
H 	H 	0.74584 0.44979 0.71630 0.04100
H 	H 	0.75824 0.44141 0.64752 0.03000
H 	H 	0.55916 0.22817 0.62042 0.04000
C 	C 	0.68011 0.28808 0.32991 -0.06900
C 	C 	0.74461 0.31697 0.31587 0.00600
C 	C 	0.74356 0.30784 0.27559 -0.05200
C 	C 	0.67776 0.27200 0.24874 0.00600
C 	C 	0.61236 0.23527 0.26317 0.00800
C 	C 	0.61399 0.24491 0.30364 -0.01900
C 	C 	0.54617 0.18967 0.23708 -0.04100
C 	C 	0.54394 0.18257 0.19682 -0.04100
C 	C 	0.60742 0.22441 0.18185 0.00900
C 	C 	0.67515 0.27089 0.20770 0.00500
C 	C 	0.73697 0.31954 0.19230 -0.05100
C 	C 	0.73163 0.31950 0.15208 0.00100
C 	C 	0.66487 0.27260 0.12673 -0.06800
C 	C 	0.60330 0.22402 0.14147 -0.01500
H 	H 	0.79577 0.34763 0.33612 0.04100
H 	H 	0.79328 0.32614 0.26568 0.04300
H 	H 	0.56396 0.21999 0.31466 0.02900
H 	H 	0.49614 0.15952 0.24804 0.03600
H 	H 	0.49219 0.14665 0.17714 0.03900
H 	H 	0.78799 0.36057 0.21132 0.04100
H 	H 	0.77905 0.35830 0.14087 0.02500
H 	H 	0.55147 0.18854 0.12174 0.04300
C 	C 	0.82158 0.67443 0.46704 -0.00800
C 	C 	0.86379 0.72656 0.50103 -0.03300
C 	C 	0.89178 0.79789 0.50067 -0.04000
C 	C 	0.77232 0.53996 0.46612 -0.11000
C 	C 	0.83308 0.76476 0.43274 -0.04000
C 	C 	0.80507 0.69342 0.43314 -0.03300
C 	C 	0.79549 0.60149 0.46682 0.04400
C 	C 	0.87789 0.81757 0.46625 0.00100
H 	H 	0.87604 0.71215 0.52749 0.03700
H 	H 	0.92633 0.83825 0.52669 0.03900
H 	H 	0.82222 0.77939 0.40600 0.04000
H 	H 	0.77172 0.65324 0.40688 0.03900
C 	C 	0.83862 0.10844 0.45504 0.03900
C 	C 	0.76782 0.07719 0.46047 -0.07300
C 	C 	0.74288 0.11864 0.46422 0.01600
C 	C 	0.89223 0.03540 0.45629 -0.02000
C 	C 	0.85873 0.22238 0.45561 0.01600
C 	C 	0.88355 0.18076 0.45184 -0.07200
C 	C 	0.86683 0.06776 0.45540 -0.02400
C 	C 	0.78880 0.19194 0.46280 -0.09600
H 	H 	0.73257 0.02120 0.46264 0.04700
H 	H 	0.68838 0.09411 0.46907 0.02800
H 	H 	0.89472 0.27871 0.45434 0.03200
H 	H 	0.93828 0.20521 0.44741 0.04800
C 	C 	0.26067 0.12236 0.46375 -0.00800
C 	C 	0.23561 0.14084 0.49385 -0.03200
C 	C 	0.16149 0.10334 0.49264 -0.04100
C 	C 	0.40083 0.19531 0.46536 -0.10900
C 	C 	0.13725 0.02897 0.43107 -0.04000
C 	C 	0.21138 0.06649 0.43233 -0.03300
C 	C 	0.33693 0.16173 0.46470 0.04500
C 	C 	0.11202 0.04716 0.46128 0.00200
H 	H 	0.27348 0.18416 0.51817 0.03900
H 	H 	0.14249 0.11751 0.51619 0.03900
H 	H 	0.09943 0.98572 0.40672 0.03800
H 	H 	0.23044 0.05215 0.40888 0.03700
C 	C 	0.85011 0.70716 0.99644 -0.00600
C 	C 	0.82919 0.73058 0.96650 -0.03400
C 	C 	0.86593 0.80375 0.96710 -0.03800
C 	C 	0.77987 0.56872 0.99518 -0.10900
C 	C 	0.94426 0.83031 0.02783 -0.03900
C 	C 	0.90750 0.75712 0.02719 -0.03500
C 	C 	0.81223 0.63188 0.99579 0.04600
C 	C 	0.92381 0.85389 0.99769 -0.00300
H 	H 	0.78468 0.69216 0.94271 0.04000
H 	H 	0.84998 0.82149 0.94362 0.03900
H 	H 	0.98882 0.86867 0.05160 0.03900
H 	H 	0.92371 0.73931 0.05051 0.03800
C 	C 	0.86384 0.12710 0.00349 0.03500
C 	C 	0.89793 0.19832 0.99939 -0.07000
C 	C 	0.85816 0.22523 0.99577 0.01400
C 	C 	0.93441 0.07091 0.00158 -0.02900
C 	C 	0.75041 0.11043 0.00195 0.01400
C 	C 	0.79036 0.08365 0.00558 -0.07000
C 	C 	0.90287 0.09714 0.00279 -0.01900
C 	C 	0.78373 0.18087 0.99603 -0.09500
H 	H 	0.95487 0.23240 0.99811 0.04600
H 	H 	0.88487 0.28006 0.99195 0.02800
H 	H 	0.69316 0.07565 0.00235 0.03300
H 	H 	0.76374 0.02860 0.00899 0.04700
C 	C 	0.29780 0.14658 0.98610 -0.00700
C 	C 	0.27922 0.16677 0.01899 -0.03500
C 	C 	0.20686 0.13613 0.02009 -0.03900
C 	C 	0.43406 0.19810 0.98733 -0.11200
C 	C 	0.17167 0.06720 0.95472 -0.03900
C 	C 	0.24405 0.09780 0.95368 -0.03400
C 	C 	0.37172 0.17413 0.98628 0.04400
C 	C 	0.15264 0.08504 0.98830 -0.00300
H 	H 	0.32062 0.20497 0.04403 0.03800
H 	H 	0.19274 0.15019 0.04615 0.03900
H 	H 	0.13020 0.02804 0.92996 0.03800
H 	H 	0.25810 0.08248 0.92801 0.03700
