data_crystal

_cell_length_a 24.33731
_cell_length_b 40.54684
_cell_length_c 17.67811
_cell_angle_alpha 90.00351
_cell_angle_beta  89.99963
_cell_angle_gamma 90.00156

_symmetry_space_group_name_	'P 1'
_symmetry_space_group_name_H-M	'P 1'

loop_
_symmetry_equiv_pos_as_xyz
  x,y,z

loop_
_atom_site_label
_atom_site_type_symbol
_atom_site_fract_x
_atom_site_fract_y
_atom_site_fract_z
_atom_site_charge
Cu	Cu	0.54820 0.35779 0.95230 0.92700
Cu	Cu	0.58001 0.32284 0.79241 0.87800
Cu	Cu	0.46730 0.32141 0.84930 0.90000
Cu	Cu	0.41976 0.36242 0.97544 0.90200
C 	C 	0.49800 0.41422 0.01892 0.32200
O 	O 	0.53248 0.33170 0.04790 -0.33900
C 	C 	0.51409 0.26595 0.75923 0.30500
O 	O 	0.47199 0.36417 0.89623 -0.63900
O 	O 	0.54386 0.31775 0.88930 -0.64300
O 	O 	0.62174 0.37323 0.91837 -0.36100
O 	O 	0.59801 0.36830 0.79512 -0.40900
O 	O 	0.45635 0.39584 0.04115 -0.34900
O 	O 	0.39418 0.32833 0.80704 -0.36200
C 	C 	0.35341 0.34502 0.83863 0.30800
C 	C 	0.49232 0.31000 0.05049 0.29200
O 	O 	0.44891 0.31371 0.00717 -0.35400
O 	O 	0.35439 0.35383 0.91065 -0.36000
O 	O 	0.54461 0.40031 0.99854 -0.37000
C 	C 	0.63196 0.37935 0.84686 0.30300
O 	O 	0.47012 0.28058 0.78846 -0.35900
O 	O 	0.56400 0.27809 0.76805 -0.38800
H 	H 	0.46795 0.38300 0.86097 0.18600
H 	H 	0.55218 0.29672 0.91529 0.19600
Cu	Cu	0.53079 0.61184 0.15472 0.92800
Cu	Cu	0.54777 0.65006 0.31195 0.89600
Cu	Cu	0.43750 0.65414 0.21183 0.92200
Cu	Cu	0.40844 0.60600 0.08740 0.90600
C 	C 	0.49356 0.55486 0.07291 0.30100
O 	O 	0.53148 0.63614 0.05351 -0.33700
C 	C 	0.46208 0.69718 0.32975 0.31000
O 	O 	0.44627 0.60851 0.18055 -0.63200
O 	O 	0.51905 0.65351 0.20930 -0.63500
O 	O 	0.59230 0.59410 0.21911 -0.35300
O 	O 	0.61987 0.64056 0.28127 -0.38500
O 	O 	0.45802 0.57369 0.03706 -0.36500
O 	O 	0.35829 0.65684 0.20626 -0.34500
C 	C 	0.32616 0.63129 0.19438 0.30200
C 	C 	0.49276 0.65765 0.03530 0.31300
O 	O 	0.44222 0.65422 0.06113 -0.37300
O 	O 	0.33568 0.61083 0.13781 -0.36700
O 	O 	0.53285 0.56810 0.11413 -0.33300
C 	C 	0.63165 0.61266 0.24741 0.30300
O 	O 	0.43674 0.69575 0.26446 -0.33500
O 	O 	0.48427 0.67038 0.35827 -0.39600
H 	H 	0.43482 0.59229 0.21935 0.17200
H 	H 	0.53482 0.67264 0.18218 0.20100
Cu	Cu	0.93358 0.37637 0.62868 0.93100
Cu	Cu	0.90889 0.32931 0.77480 0.88000
Cu	Cu	0.02306 0.33794 0.71205 0.90400
Cu	Cu	0.05967 0.38757 0.59676 0.90500
C 	C 	0.97342 0.43700 0.56767 0.29700
O 	O 	0.94820 0.35696 0.52494 -0.34100
C 	C 	0.98889 0.27909 0.79777 0.29100
O 	O 	0.01124 0.38280 0.67985 -0.63500
O 	O 	0.94507 0.33311 0.67739 -0.63900
O 	O 	0.85996 0.38654 0.67168 -0.35200
O 	O 	0.88790 0.37378 0.79008 -0.40800
O 	O 	0.01507 0.42032 0.53933 -0.35800
O 	O 	0.09754 0.34536 0.74817 -0.35000
C 	C 	0.13796 0.35891 0.70896 0.30600
C 	C 	0.99012 0.33714 0.51297 0.29300
O 	O 	0.03473 0.33961 0.55454 -0.36900
O 	O 	0.12836 0.38130 0.65615 -0.37200
O 	O 	0.93106 0.42140 0.59713 -0.33300
C 	C 	0.85156 0.38729 0.74496 0.30000
O 	O 	0.02822 0.29406 0.75911 -0.34100
O 	O 	0.93669 0.28560 0.78504 -0.40100
H 	H 	0.01520 0.39952 0.72030 0.17800
H 	H 	0.93910 0.31374 0.64429 0.17900
Cu	Cu	0.92195 0.63315 0.44761 0.93300
Cu	Cu	0.90671 0.66202 0.27780 0.87900
Cu	Cu	0.00976 0.66724 0.35284 0.90300
Cu	Cu	0.04895 0.62776 0.48582 0.91000
C 	C 	0.96672 0.57837 0.52607 0.29700
O 	O 	0.93297 0.66180 0.54112 -0.34400
C 	C 	0.97128 0.72006 0.25050 0.30500
O 	O 	0.00121 0.62500 0.40167 -0.63400
O 	O 	0.93084 0.67135 0.38014 -0.64200
O 	O 	0.85224 0.61646 0.40317 -0.34300
O 	O 	0.89071 0.61654 0.28698 -0.41900
O 	O 	0.00674 0.59712 0.55164 -0.35200
O 	O 	0.08518 0.66040 0.32089 -0.34500
C 	C 	0.12125 0.64054 0.35330 0.30700
C 	C 	0.97472 0.68241 0.54648 0.28800
O 	O 	0.01949 0.67741 0.50655 -0.37000
O 	O 	0.11735 0.63246 0.42557 -0.36300
O 	O 	0.92150 0.59187 0.49959 -0.34200
C 	C 	0.85059 0.60755 0.33181 0.30700
O 	O 	0.01127 0.70823 0.29360 -0.34100
O 	O 	0.92224 0.70622 0.24808 -0.39600
H 	H 	0.00687 0.60576 0.36807 0.18900
H 	H 	0.91994 0.69315 0.40039 0.19900
Cu	Cu	0.44323 0.85559 0.63648 0.93400
Cu	Cu	0.42244 0.81674 0.79573 0.87900
Cu	Cu	0.53224 0.81699 0.72268 0.90200
Cu	Cu	0.56834 0.85887 0.59114 0.90600
C 	C 	0.48935 0.91248 0.56621 0.30300
O 	O 	0.44853 0.83162 0.53613 -0.33200
C 	C 	0.49506 0.76358 0.82435 0.29400
O 	O 	0.52416 0.86027 0.67917 -0.63500
O 	O 	0.45260 0.81393 0.69430 -0.63400
O 	O 	0.37445 0.87142 0.68538 -0.34000
O 	O 	0.41115 0.86272 0.80063 -0.42300
O 	O 	0.52790 0.89401 0.53561 -0.36200
O 	O 	0.60806 0.82364 0.75319 -0.35100
C 	C 	0.64498 0.84093 0.71523 0.30600
C 	C 	0.48698 0.80945 0.52446 0.29300
O 	O 	0.53346 0.81128 0.56191 -0.38100
O 	O 	0.63833 0.84770 0.64272 -0.37300
O 	O 	0.44440 0.89899 0.59380 -0.33200
C 	C 	0.37217 0.87544 0.75887 0.31000
O 	O 	0.53501 0.77551 0.78150 -0.34700
O 	O 	0.44361 0.77233 0.81381 -0.39700
H 	H 	0.53209 0.87865 0.71439 0.19300
H 	H 	0.44305 0.79334 0.66721 0.19600
Cu	Cu	0.44368 0.11060 0.45378 0.93700
Cu	Cu	0.41767 0.14462 0.29008 0.88100
Cu	Cu	0.52517 0.15119 0.36214 0.89800
Cu	Cu	0.57328 0.10307 0.47468 0.90500
C 	C 	0.49225 0.05275 0.51581 0.30300
O 	O 	0.46310 0.13550 0.54966 -0.33100
C 	C 	0.48067 0.20260 0.26217 0.29700
O 	O 	0.52011 0.10563 0.39715 -0.63400
O 	O 	0.44625 0.15093 0.39179 -0.63800
O 	O 	0.36801 0.09689 0.42484 -0.32000
O 	O 	0.38805 0.10181 0.30048 -0.41300
O 	O 	0.53457 0.07022 0.53898 -0.37200
O 	O 	0.60430 0.15346 0.34093 -0.34900
C 	C 	0.64206 0.13059 0.35284 0.30700
C 	C 	0.50415 0.15666 0.55285 0.28700
O 	O 	0.54844 0.15219 0.51120 -0.38000
O 	O 	0.63451 0.10653 0.40189 -0.37800
O 	O 	0.44612 0.06753 0.49739 -0.33000
C 	C 	0.35217 0.09610 0.35401 0.31300
O 	O 	0.52044 0.19384 0.30925 -0.34300
O 	O 	0.43102 0.18990 0.26762 -0.39000
H 	H 	0.52340 0.08897 0.35646 0.17800
H 	H 	0.43423 0.17147 0.41708 0.21200
Cu	Cu	0.05667 0.87431 0.95925 0.93000
Cu	Cu	0.08950 0.83018 0.80986 0.88100
Cu	Cu	0.97301 0.83747 0.86294 0.89900
Cu	Cu	0.92852 0.88728 0.97093 0.89700
C 	C 	0.01314 0.93508 0.01360 0.32200
O 	O 	0.03216 0.85372 0.05785 -0.32600
C 	C 	0.00853 0.78178 0.77194 0.30600
O 	O 	0.98388 0.88225 0.89650 -0.64200
O 	O 	0.04869 0.83178 0.90492 -0.63300
O 	O 	0.13390 0.88409 0.93058 -0.33500
O 	O 	0.11590 0.87401 0.80720 -0.42200
O 	O 	0.96868 0.91932 0.03534 -0.35200
O 	O 	0.90203 0.84478 0.81642 -0.35700
C 	C 	0.85963 0.86027 0.84669 0.30600
C 	C 	0.98892 0.83431 0.06129 0.29400
O 	O 	0.94763 0.83845 0.01419 -0.36300
O 	O 	0.86611 0.88305 0.89937 -0.37800
O 	O 	0.05798 0.91874 0.99572 -0.35400
C 	C 	0.14995 0.88389 0.85982 0.30600
O 	O 	0.97023 0.79363 0.81722 -0.35500
O 	O 	0.06095 0.78735 0.78534 -0.39300
H 	H 	0.98384 0.89892 0.85555 0.17500
H 	H 	0.05290 0.81174 0.93639 0.18200
Cu	Cu	0.05812 0.13364 0.13105 0.93300
Cu	Cu	0.07863 0.17495 0.28635 0.88000
Cu	Cu	0.96872 0.17131 0.21748 0.90100
Cu	Cu	0.93229 0.12674 0.09130 0.90700
C 	C 	0.01532 0.07487 0.06404 0.29500
O 	O 	0.05044 0.15612 0.02930 -0.33700
C 	C 	0.00531 0.22885 0.30806 0.30600
O 	O 	0.97846 0.12768 0.17713 -0.63900
O 	O 	0.04727 0.17571 0.18558 -0.63700
O 	O 	0.12823 0.11987 0.17971 -0.34500
O 	O 	0.09288 0.12928 0.29576 -0.42000
O 	O 	0.97390 0.09193 0.03592 -0.34300
O 	O 	0.89410 0.16352 0.25237 -0.34500
C 	C 	0.85606 0.14636 0.21612 0.30200
C 	C 	0.00908 0.17593 0.01469 0.31700
O 	O 	0.96386 0.17422 0.05494 -0.37400
O 	O 	0.86229 0.13758 0.14455 -0.37000
O 	O 	0.05905 0.08987 0.09138 -0.33000
C 	C 	0.13114 0.11616 0.25327 0.30700
O 	O 	0.96488 0.21393 0.27124 -0.35300
O 	O 	0.05682 0.21952 0.30016 -0.40200
H 	H 	0.97244 0.10966 0.21404 0.18000
H 	H 	0.05512 0.19603 0.15646 0.18400
C 	C 	0.00645 0.99222 0.96556 -0.03800
C 	C 	0.01661 0.97073 0.02601 -0.06000
C 	C 	0.02939 0.98352 0.09793 0.11500
C 	C 	0.03024 0.01769 0.10920 -0.03100
C 	C 	0.01835 0.03923 0.04932 -0.04400
C 	C 	0.00796 0.02641 0.97651 0.08600
N 	N 	0.00086 0.04800 0.91317 -0.01700
H 	H 	0.99786 0.98236 0.90978 0.05600
H 	H 	0.03885 0.02747 0.16503 0.07700
N 	N 	0.04190 0.96190 0.15953 -0.02300
O 	O 	0.04002 0.06816 0.89392 -0.07000
O 	O 	0.95708 0.04569 0.87130 -0.08800
O 	O 	0.09018 0.96289 0.19096 -0.06400
O 	O 	0.00359 0.94346 0.18857 -0.06800
C 	C 	0.20424 0.12440 0.34951 -0.02300
C 	C 	0.18381 0.10628 0.28801 -0.08500
C 	C 	0.21700 0.08177 0.25435 0.10900
C 	C 	0.27166 0.07783 0.27808 -0.02400
C 	C 	0.29309 0.09761 0.33613 -0.08200
C 	C 	0.25879 0.12068 0.37275 0.09300
N 	N 	0.28031 0.14207 0.42987 -0.02100
H 	H 	0.17885 0.14303 0.37621 0.04500
H 	H 	0.29748 0.05951 0.25107 0.07900
N 	N 	0.19516 0.06060 0.19685 -0.01900
O 	O 	0.31302 0.16610 0.41119 -0.11800
O 	O 	0.26298 0.13953 0.49921 -0.07400
O 	O 	0.22162 0.05662 0.13357 -0.07300
O 	O 	0.15061 0.04376 0.20958 -0.07700
C 	C 	0.74427 0.12849 0.35997 -0.02100
C 	C 	0.69666 0.13426 0.31705 -0.07000
C 	C 	0.70159 0.14394 0.24066 0.10400
C 	C 	0.75381 0.14832 0.20871 -0.02400
C 	C 	0.80142 0.14234 0.25151 -0.06500
C 	C 	0.79648 0.13208 0.32747 0.10100
N 	N 	0.84431 0.12444 0.37124 -0.02000
H 	H 	0.74080 0.12101 0.41865 0.07000
H 	H 	0.75729 0.15611 0.15024 0.07800
N 	N 	0.65373 0.14843 0.19472 -0.02000
O 	O 	0.85314 0.13962 0.43490 -0.07900
O 	O 	0.87648 0.10044 0.35068 -0.10500
O 	O 	0.64465 0.17672 0.16239 -0.08400
O 	O 	0.62131 0.12363 0.18103 -0.10600
C 	C 	0.30257 0.86704 0.85991 -0.02600
C 	C 	0.31908 0.88395 0.79444 -0.08800
C 	C 	0.28142 0.90497 0.75744 0.10800
C 	C 	0.22634 0.90568 0.78094 -0.02700
C 	C 	0.20894 0.88638 0.84228 -0.08300
C 	C 	0.24768 0.86756 0.88303 0.09000
N 	N 	0.23073 0.84711 0.94473 -0.02800
H 	H 	0.33151 0.85149 0.88989 0.04000
H 	H 	0.19705 0.92107 0.75114 0.07300
N 	N 	0.29905 0.92581 0.69662 -0.02000
O 	O 	0.20142 0.82086 0.93193 -0.13500
O 	O 	0.24906 0.85293 0.01253 -0.06200
O 	O 	0.27107 0.92683 0.63396 -0.07800
O 	O 	0.34138 0.94503 0.70534 -0.07400
C 	C 	0.74677 0.84408 0.70349 -0.02400
C 	C 	0.69973 0.84618 0.74923 -0.06700
C 	C 	0.70532 0.85405 0.82662 0.10100
C 	C 	0.75777 0.85822 0.85783 -0.02400
C 	C 	0.80478 0.85623 0.81202 -0.07100
C 	C 	0.79892 0.85001 0.73379 0.10500
N 	N 	0.84542 0.85130 0.68432 -0.01900
H 	H 	0.74283 0.83843 0.64380 0.07600
H 	H 	0.76187 0.86343 0.91772 0.06900
N 	N 	0.65785 0.85907 0.87303 -0.02000
O 	O 	0.85981 0.82524 0.64625 -0.08800
O 	O 	0.87053 0.87916 0.67270 -0.09400
O 	O 	0.65089 0.84141 0.93370 -0.09400
O 	O 	0.62406 0.88307 0.85811 -0.10200
C 	C 	0.51774 0.00335 0.59217 -0.01900
C 	C 	0.49194 0.01672 0.52809 -0.07100
C 	C 	0.46557 0.99553 0.47605 0.10200
C 	C 	0.46440 0.96147 0.48950 -0.01700
C 	C 	0.49052 0.94822 0.55319 -0.06600
C 	C 	0.51756 0.96922 0.60455 0.09500
N 	N 	0.54468 0.95598 0.66962 -0.02400
H 	H 	0.53793 0.01943 0.63252 0.07500
H 	H 	0.44394 0.94529 0.44963 0.08000
N 	N 	0.44123 0.00841 0.40849 -0.01900
O 	O 	0.58801 0.93753 0.66143 -0.12100
O 	O 	0.52854 0.96435 0.73707 -0.09100
O 	O 	0.47179 0.02271 0.35781 -0.11000
O 	O 	0.38925 0.00371 0.39520 -0.07600
C 	C 	0.93919 0.77575 0.21250 -0.02000
C 	C 	0.97985 0.75124 0.20950 -0.06800
C 	C 	0.02593 0.75556 0.16215 0.10800
C 	C 	0.02985 0.78373 0.11662 -0.02000
C 	C 	0.98758 0.80724 0.11645 -0.06900
C 	C 	0.94285 0.80373 0.16638 0.10600
N 	N 	0.90135 0.82871 0.17096 -0.02300
H 	H 	0.90443 0.77294 0.25031 0.07600
H 	H 	0.06465 0.78659 0.07888 0.06900
N 	N 	0.06737 0.73062 0.15720 -0.02000
O 	O 	0.84980 0.82078 0.16409 -0.08600
O 	O 	0.91483 0.85896 0.18704 -0.08400
O 	O 	0.05585 0.70217 0.12716 -0.08100
O 	O 	0.11768 0.73735 0.17665 -0.07000
C 	C 	0.95797 0.70372 0.67655 -0.03000
C 	C 	0.97311 0.70988 0.60120 -0.06600
C 	C 	0.99472 0.74098 0.58139 0.09100
C 	C 	0.00541 0.76438 0.63775 -0.01300
C 	C 	0.99342 0.75750 0.71362 -0.08200
C 	C 	0.96842 0.72726 0.73302 0.11100
N 	N 	0.95561 0.71982 0.81018 -0.02100
H 	H 	0.94096 0.67996 0.69208 0.07700
H 	H 	0.02311 0.78799 0.62241 0.05600
N 	N 	0.00574 0.74891 0.50395 -0.01800
O 	O 	0.90560 0.71201 0.82900 -0.08500
O 	O 	0.99468 0.71802 0.86022 -0.09100
O 	O 	0.96588 0.74935 0.45496 -0.10900
O 	O 	0.05478 0.75809 0.48363 -0.08800
C 	C 	0.04489 0.22763 0.95831 -0.04000
C 	C 	0.01248 0.19923 0.95134 -0.08400
C 	C 	0.97847 0.19519 0.88755 0.10200
C 	C 	0.97388 0.22072 0.83459 -0.02800
C 	C 	0.00283 0.25031 0.84477 -0.06200
C 	C 	0.03988 0.25338 0.90580 0.10000
N 	N 	0.07010 0.28328 0.91708 -0.02000
H 	H 	0.07169 0.23056 0.00685 0.07600
H 	H 	0.94668 0.21786 0.78647 0.07500
N 	N 	0.94781 0.16537 0.87707 -0.02800
O 	O 	0.04420 0.31056 0.93218 -0.11300
O 	O 	0.12346 0.28247 0.92059 -0.08300
O 	O 	0.89529 0.16667 0.86376 -0.09900
O 	O 	0.97293 0.13705 0.87650 -0.08200
C 	C 	0.94953 0.28653 0.45722 -0.02300
C 	C 	0.98743 0.31248 0.45224 -0.07400
C 	C 	0.02574 0.31312 0.39255 0.10600
C 	C 	0.02859 0.28656 0.34209 -0.02000
C 	C 	0.99373 0.25925 0.35081 -0.07500
C 	C 	0.95283 0.25972 0.40735 0.09900
N 	N 	0.91657 0.23227 0.41696 -0.02000
H 	H 	0.91932 0.28630 0.50229 0.05600
H 	H 	0.05890 0.28681 0.29714 0.07400
N 	N 	0.06210 0.34063 0.38337 -0.02400
O 	O 	0.93538 0.20442 0.44271 -0.09600
O 	O 	0.86407 0.23595 0.40614 -0.08000
O 	O 	0.11470 0.33577 0.37655 -0.09100
O 	O 	0.04233 0.37032 0.37729 -0.08600
C 	C 	0.01983 0.49091 0.54628 -0.02000
C 	C 	0.97073 0.47316 0.55544 -0.07400
C 	C 	0.92003 0.49028 0.55493 0.11000
C 	C 	0.91952 0.52473 0.54931 -0.02500
C 	C 	0.96863 0.54234 0.53889 -0.06900
C 	C 	0.01896 0.52508 0.53558 0.09700
N 	N 	0.06896 0.54192 0.51766 -0.02300
H 	H 	0.05890 0.47807 0.54611 0.06400
H 	H 	0.88058 0.53769 0.55083 0.09100
N 	N 	0.86901 0.47277 0.55553 -0.01700
O 	O 	0.10872 0.54285 0.56676 -0.09900
O 	O 	0.07672 0.55346 0.44983 -0.12300
O 	O 	0.83560 0.47596 0.61248 -0.07700
O 	O 	0.85368 0.45623 0.49612 -0.06800
C 	C 	0.52443 0.68038 0.91195 -0.00400
C 	C 	0.50587 0.68592 0.98608 -0.12400
C 	C 	0.49243 0.71820 0.00905 0.15300
C 	C 	0.49367 0.74401 0.95666 -0.06200
C 	C 	0.50719 0.73798 0.88090 -0.05700
C 	C 	0.52446 0.70618 0.85886 0.09200
N 	N 	0.53982 0.69965 0.78218 -0.01900
H 	H 	0.53559 0.65568 0.89420 0.06700
H 	H 	0.48152 0.76858 0.97421 0.06100
N 	N 	0.47601 0.72472 0.08518 -0.03500
O 	O 	0.58888 0.68882 0.76694 -0.08200
O 	O 	0.50330 0.70156 0.72862 -0.09000
O 	O 	0.51186 0.73567 0.13356 -0.08800
O 	O 	0.42412 0.72463 0.10275 -0.08700
C 	C 	0.52529 0.76915 0.43249 -0.02100
C 	C 	0.47904 0.78295 0.46788 -0.07100
C 	C 	0.42626 0.77019 0.45149 0.10200
C 	C 	0.42079 0.74352 0.40155 -0.01600
C 	C 	0.46743 0.72867 0.36998 -0.07100
C 	C 	0.51984 0.74194 0.38450 0.09700
N 	N 	0.56787 0.72736 0.35177 -0.03300
H 	H 	0.56578 0.77932 0.44299 0.07000
H 	H 	0.38040 0.73334 0.39040 0.08200
N 	N 	0.37851 0.78305 0.48815 -0.01900
O 	O 	0.57325 0.72602 0.27865 -0.11000
O 	O 	0.60784 0.71747 0.39504 -0.11300
O 	O 	0.34363 0.80080 0.45009 -0.07600
O 	O 	0.36697 0.77414 0.55700 -0.10900
C 	C 	0.22469 0.62358 0.19805 -0.01900
C 	C 	0.27423 0.62896 0.23672 -0.06900
C 	C 	0.27347 0.63489 0.31534 0.10000
C 	C 	0.22326 0.63791 0.35318 -0.01900
C 	C 	0.17357 0.63415 0.31391 -0.06400
C 	C 	0.17437 0.62570 0.23642 0.10500
N 	N 	0.12432 0.61862 0.19695 -0.02100
H 	H 	0.22514 0.61820 0.13799 0.07800
H 	H 	0.22295 0.64362 0.41308 0.07700
N 	N 	0.32376 0.63782 0.35696 -0.02100
O 	O 	0.11404 0.63293 0.13263 -0.07700
O 	O 	0.09127 0.59592 0.22212 -0.10100
O 	O 	0.33251 0.66358 0.39913 -0.09300
O 	O 	0.35936 0.61389 0.35610 -0.12400
C 	C 	0.70208 0.58343 0.32244 -0.02400
C 	C 	0.68726 0.59933 0.25504 -0.06800
C 	C 	0.72838 0.60889 0.20369 0.10300
C 	C 	0.78362 0.60736 0.22533 -0.02600
C 	C 	0.79786 0.59676 0.29847 -0.08100
C 	C 	0.75747 0.58157 0.34392 0.10900
N 	N 	0.77254 0.56454 0.41189 -0.01900
H 	H 	0.67048 0.57411 0.36000 0.06700
H 	H 	0.81487 0.61689 0.18753 0.05600
N 	N 	0.71404 0.62177 0.13101 -0.02500
O 	O 	0.74500 0.56942 0.47397 -0.08300
O 	O 	0.81242 0.54317 0.41098 -0.07600
O 	O 	0.69299 0.65114 0.12524 -0.08800
O 	O 	0.72617 0.60522 0.07024 -0.06900
C 	C 	0.51551 0.28573 0.17617 -0.02700
C 	C 	0.49593 0.28138 0.10205 -0.06700
C 	C 	0.47594 0.25023 0.07952 0.10000
C 	C 	0.47320 0.22445 0.13189 -0.02000
C 	C 	0.49010 0.22920 0.20689 -0.07000
C 	C 	0.51201 0.25995 0.22902 0.10900
N 	N 	0.52841 0.26560 0.30567 -0.02000
H 	H 	0.53104 0.30957 0.19387 0.07800
H 	H 	0.45726 0.20068 0.11432 0.06200
N 	N 	0.45844 0.24464 0.00337 -0.00400
O 	O 	0.57869 0.27426 0.32068 -0.07900
O 	O 	0.49200 0.26502 0.35953 -0.08000
O 	O 	0.49452 0.24304 0.94929 -0.11800
O 	O 	0.40720 0.23792 0.98928 -0.10900
C 	C 	0.46352 0.23297 0.66300 -0.02400
C 	C 	0.50709 0.23536 0.71475 -0.06700
C 	C 	0.54725 0.21020 0.71706 0.10200
C 	C 	0.54575 0.18458 0.66391 -0.02300
C 	C 	0.50351 0.18302 0.61016 -0.06900
C 	C 	0.46143 0.20692 0.61097 0.10200
N 	N 	0.41775 0.20564 0.55698 -0.02800
H 	H 	0.43224 0.25199 0.66127 0.07600
H 	H 	0.57720 0.16565 0.66502 0.06600
N 	N 	0.58899 0.21026 0.77414 -0.02000
O 	O 	0.37699 0.18538 0.56716 -0.07600
O 	O 	0.41530 0.22749 0.50323 -0.09200
O 	O 	0.57537 0.20950 0.84527 -0.08400
O 	O 	0.64050 0.20845 0.75496 -0.09700
C 	C 	0.22551 0.38327 0.75523 -0.02100
C 	C 	0.19474 0.35512 0.73691 -0.06800
C 	C 	0.21830 0.32356 0.74590 0.10500
C 	C 	0.27143 0.32053 0.77612 -0.02100
C 	C 	0.30145 0.34869 0.79672 -0.06800
C 	C 	0.27877 0.38025 0.78458 0.09900
N 	N 	0.30987 0.40931 0.80163 -0.02100
H 	H 	0.20793 0.40758 0.74710 0.07200
H 	H 	0.28899 0.29624 0.78458 0.07700
N 	N 	0.18884 0.29459 0.72327 -0.02000
O 	O 	0.35833 0.41346 0.77205 -0.09700
O 	O 	0.28788 0.43284 0.84146 -0.08400
O 	O 	0.17111 0.29175 0.65415 -0.09000
O 	O 	0.18382 0.26995 0.76986 -0.07400
C 	C 	0.73009 0.39192 0.87706 -0.02700
C 	C 	0.68682 0.39209 0.82436 -0.08300
C 	C 	0.69824 0.40043 0.74837 0.09700
C 	C 	0.75290 0.40172 0.72345 -0.02800
C 	C 	0.79632 0.39629 0.77444 -0.07600
C 	C 	0.78467 0.39496 0.85271 0.09000
N 	N 	0.82772 0.39810 0.90746 -0.01900
H 	H 	0.72155 0.38882 0.93679 0.07500
H 	H 	0.76143 0.40629 0.66421 0.08700
N 	N 	0.65474 0.40870 0.69722 -0.02000
O 	O 	0.86010 0.42362 0.90597 -0.08400
O 	O 	0.83198 0.37673 0.96205 -0.10900
O 	O 	0.61983 0.43176 0.71481 -0.08100
O 	O 	0.65231 0.39483 0.63095 -0.09700
C 	C 	0.54571 0.46722 0.04806 -0.02200
C 	C 	0.49663 0.45028 0.03255 -0.07000
C 	C 	0.44706 0.46819 0.02593 0.10100
C 	C 	0.44667 0.50224 0.03939 -0.02300
C 	C 	0.49570 0.51917 0.05497 -0.07100
C 	C 	0.54586 0.50156 0.05655 0.10900
N 	N 	0.59721 0.51858 0.06238 -0.01800
H 	H 	0.58419 0.45385 0.05152 0.08700
H 	H 	0.40814 0.51561 0.03676 0.06400
N 	N 	0.39763 0.45224 0.00176 -0.01400
O 	O 	0.63016 0.51235 0.11852 -0.07300
O 	O 	0.61301 0.53818 0.00834 -0.06300
O 	O 	0.35409 0.45311 0.04438 -0.08700
O 	O 	0.39468 0.43952 0.93434 -0.12200
