data_crystal

_cell_length_a 26.13041
_cell_length_b 26.23203
_cell_length_c 43.17437
_cell_angle_alpha 95.50932
_cell_angle_beta  95.50748
_cell_angle_gamma 125.78459

_symmetry_space_group_name_	'P 1'
_symmetry_space_group_name_H-M	'P 1'

loop_
_symmetry_equiv_pos_as_xyz
  x,y,z

loop_
_atom_site_label
_atom_site_type_symbol
_atom_site_fract_x
_atom_site_fract_y
_atom_site_fract_z
_atom_site_charge
C 	C 	0.95331 0.00356 0.99533 0.10200
N 	N 	0.01783 0.03654 0.99722 -0.13200
C 	C 	0.04398 0.00454 0.99506 0.10900
N 	N 	0.01840 0.06621 0.46944 -0.13200
C 	C 	0.05024 0.03992 0.47116 0.11000
Cu	Cu	0.62464 0.21425 0.00134 0.92800
Cu	Cu	0.66500 0.21270 0.93201 0.86800
Cu	Cu	0.64838 0.30939 0.95855 0.89600
C 	C 	0.65487 0.26794 0.06755 0.28800
O 	O 	0.53260 0.17762 0.00482 -0.36300
C 	C 	0.62602 0.26554 0.88939 0.28400
O 	O 	0.67518 0.31311 0.00217 -0.64100
O 	O 	0.60795 0.21638 0.95601 -0.64100
O 	O 	0.66378 0.16826 0.99738 -0.37300
O 	O 	0.72944 0.23255 0.96586 -0.44100
O 	O 	0.62399 0.29232 0.06053 -0.38600
C 	C 	0.50559 0.20364 0.99423 0.27500
O 	O 	0.54177 0.26247 0.98916 -0.39400
O 	O 	0.65427 0.22833 0.04588 -0.36400
C 	C 	0.71598 0.19253 0.98525 0.28000
O 	O 	0.62973 0.30513 0.91263 -0.38200
O 	O 	0.62094 0.21420 0.89465 -0.42000
H 	H 	0.56229 0.18799 0.94531 0.17400
Cu	Cu	0.74912 0.36269 0.46442 0.92700
Cu	Cu	0.74556 0.31885 0.53308 0.86600
Cu	Cu	0.65086 0.33719 0.50557 0.89600
Cu	Cu	0.62990 0.35940 0.44080 0.89300
C 	C 	0.70221 0.33908 0.39763 0.28900
C 	C 	0.69065 0.35712 0.57488 0.28300
O 	O 	0.64957 0.31191 0.46213 -0.64200
O 	O 	0.74438 0.37743 0.50945 -0.64200
O 	O 	0.79479 0.32315 0.46878 -0.37300
O 	O 	0.72748 0.25604 0.49894 -0.44100
O 	O 	0.67501 0.36717 0.40461 -0.38800
O 	O 	0.55883 0.29156 0.50002 -0.38500
C 	C 	0.52172 0.29019 0.47632 0.28400
O 	O 	0.54560 0.32413 0.45387 -0.39400
O 	O 	0.73722 0.33484 0.41992 -0.36500
C 	C 	0.76919 0.27037 0.48034 0.27900
O 	O 	0.65315 0.35550 0.55121 -0.38100
O 	O 	0.74205 0.36109 0.57047 -0.42200
H 	H 	0.62116 0.26515 0.45405 0.16400
H 	H 	0.77258 0.42259 0.52063 0.17400
C 	C 	0.67848 0.36129 0.60746 -0.08800
C 	C 	0.72810 0.38586 0.63366 0.01100
C 	C 	0.71467 0.38132 0.66426 -0.06700
C 	C 	0.65165 0.35274 0.66909 0.02500
C 	C 	0.60270 0.33145 0.64316 -0.06600
C 	C 	0.61598 0.33557 0.61249 0.01000
C 	C 	0.63608 0.34010 0.70079 -0.00100
C 	C 	0.59271 0.27693 0.70520 -0.03900
C 	C 	0.58437 0.26400 0.73572 -0.03900
C 	C 	0.61968 0.31403 0.76215 -0.00100
C 	C 	0.66071 0.37747 0.75768 -0.03900
C 	C 	0.66872 0.39047 0.72711 -0.03900
C 	C 	0.61852 0.29952 0.79441 0.02600
C 	C 	0.63877 0.26280 0.80287 -0.06800
C 	C 	0.64002 0.25080 0.83365 0.01100
C 	C 	0.62119 0.27556 0.85643 -0.08900
C 	C 	0.60023 0.31179 0.84785 0.01500
C 	C 	0.59890 0.32368 0.81696 -0.06700
H 	H 	0.77681 0.40713 0.63028 0.03000
H 	H 	0.75289 0.39820 0.68412 0.04300
H 	H 	0.55404 0.31007 0.64668 0.04600
H 	H 	0.57725 0.31676 0.59259 0.03700
H 	H 	0.56714 0.23770 0.68507 0.03700
H 	H 	0.55202 0.21494 0.73891 0.03800
H 	H 	0.65444 0.24433 0.78569 0.04300
H 	H 	0.65686 0.22331 0.83995 0.02100
H 	H 	0.58501 0.33075 0.86504 0.03700
H 	H 	0.58286 0.35180 0.81060 0.04600
C 	C 	0.67603 0.27232 0.10127 -0.08600
C 	C 	0.70038 0.32807 0.12320 0.01300
C 	C 	0.71269 0.32975 0.15564 -0.06600
C 	C 	0.70108 0.27578 0.16651 0.02700
C 	C 	0.67952 0.22097 0.14457 -0.06600
C 	C 	0.66710 0.21923 0.11207 0.01600
C 	C 	0.70677 0.27515 0.20082 -0.00000
C 	C 	0.76524 0.32159 0.22156 -0.03900
C 	C 	0.76798 0.32796 0.25432 -0.03900
C 	C 	0.71237 0.28774 0.26661 -0.00000
C 	C 	0.65488 0.23877 0.24597 -0.03800
C 	C 	0.65204 0.23254 0.21320 -0.03800
C 	C 	0.71235 0.30196 0.30048 0.02600
C 	C 	0.71608 0.35591 0.31236 -0.06600
C 	C 	0.71311 0.36816 0.34408 0.01400
C 	C 	0.70648 0.32658 0.36431 -0.08500
C 	C 	0.70372 0.27304 0.35253 0.01300
C 	C 	0.70632 0.26061 0.32067 -0.06600
H 	H 	0.67096 0.17926 0.15272 0.04600
H 	H 	0.64852 0.17593 0.09543 0.03800
H 	H 	0.61177 0.20733 0.25526 0.03800
H 	H 	0.60671 0.19636 0.19742 0.03900
H 	H 	0.69868 0.24067 0.36791 0.03200
H 	H 	0.70336 0.21879 0.31166 0.04600
C 	C 	0.91339 0.23042 0.43663 -0.03800
C 	C 	0.93893 0.19614 0.43448 -0.05200
C 	C 	0.91458 0.14249 0.44896 0.03300
C 	C 	0.86314 0.12225 0.46507 -0.02400
C 	C 	0.83735 0.15672 0.46719 -0.00200
C 	C 	0.86310 0.21145 0.45325 0.01000
C 	C 	0.78677 0.13722 0.48383 0.00800
C 	C 	0.76142 0.08268 0.49768 -0.03900
C 	C 	0.83845 0.06843 0.47970 0.03400
C 	C 	0.91915 0.05766 0.46375 0.00800
C 	C 	0.94205 0.10983 0.44817 -0.06200
C 	C 	0.83927 0.24736 0.45667 -0.02500
C 	C 	0.79020 0.22925 0.47417 -0.06900
C 	C 	0.76308 0.17323 0.48705 -0.02800
H 	H 	0.93320 0.27211 0.42562 0.03700
H 	H 	0.97816 0.21181 0.42185 0.04000
H 	H 	0.72223 0.06705 0.51034 0.03300
H 	H 	0.98188 0.12556 0.43594 0.04900
H 	H 	0.85963 0.28985 0.44627 0.04800
H 	H 	0.72444 0.15836 0.50003 0.03600
C 	C 	0.31555 0.25602 0.44475 -0.03700
C 	C 	0.24953 0.22135 0.44431 -0.05100
C 	C 	0.21832 0.16926 0.46001 0.03400
C 	C 	0.25393 0.15232 0.47657 -0.02300
C 	C 	0.32033 0.18708 0.47693 -0.00100
C 	C 	0.35119 0.23896 0.46086 0.01000
C 	C 	0.35574 0.16957 0.49312 0.01000
C 	C 	0.32467 0.11793 0.50913 -0.03700
C 	C 	0.25874 0.08350 0.50883 -0.05200
C 	C 	0.22300 0.10015 0.49245 0.03400
C 	C 	0.15661 0.06474 0.49139 -0.06100
C 	C 	0.12073 0.08052 0.47425 0.00700
C 	C 	0.15184 0.13330 0.45895 -0.06100
C 	C 	0.41716 0.27289 0.46093 -0.02400
C 	C 	0.45248 0.25509 0.47676 -0.06200
C 	C 	0.42161 0.20353 0.49290 -0.02400
H 	H 	0.33887 0.29594 0.43242 0.03700
H 	H 	0.22266 0.23488 0.43161 0.04200
H 	H 	0.35150 0.10426 0.52173 0.03600
H 	H 	0.12414 0.14538 0.44566 0.05100
H 	H 	0.44103 0.31315 0.44882 0.04400
H 	H 	0.44866 0.18949 0.50495 0.04100
C 	C 	0.78425 0.01643 0.02683 -0.05500
C 	C 	0.75076 0.04289 0.02540 -0.03600
C 	C 	0.77187 0.09533 0.01033 0.00800
C 	C 	0.82801 0.12235 0.99729 -0.00000
C 	C 	0.86165 0.09562 0.99866 -0.02400
C 	C 	0.83923 0.04201 0.01316 0.03500
C 	C 	0.91680 0.12154 0.98485 0.03400
C 	C 	0.93889 0.17504 0.97053 -0.05300
C 	C 	0.90560 0.20172 0.96926 -0.03900
C 	C 	0.84968 0.17513 0.98223 0.00800
C 	C 	0.81435 0.19968 0.97959 -0.02800
C 	C 	0.75680 0.17114 0.99137 -0.06900
C 	C 	0.73664 0.11999 0.00744 -0.02500
C 	C 	0.87109 0.01371 0.01314 -0.06600
C 	C 	0.92462 0.03793 0.99833 0.00900
C 	C 	0.94817 0.09265 0.98481 -0.06300
H 	H 	0.76693 0.97554 0.03824 0.04300
H 	H 	0.70799 0.02209 0.03572 0.03700
H 	H 	0.98148 0.19564 0.96006 0.03900
H 	H 	0.92290 0.24260 0.95784 0.03300
H 	H 	0.83091 0.24009 0.96785 0.03700
H 	H 	0.69291 0.09849 0.01701 0.04700
H 	H 	0.98956 0.11145 0.97346 0.04900
C 	C 	0.30566 0.05469 0.03247 -0.03600
C 	C 	0.24194 0.02961 0.03400 -0.05400
C 	C 	0.21028 0.04849 0.01586 0.03600
C 	C 	0.24303 0.09323 0.99618 -0.02300
C 	C 	0.30714 0.11835 0.99457 -0.00100
C 	C 	0.33856 0.09903 0.01281 0.01000
C 	C 	0.33984 0.16287 0.97478 0.01100
C 	C 	0.30819 0.18186 0.95669 -0.03800
C 	C 	0.24444 0.15682 0.95825 -0.05100
C 	C 	0.21149 0.11239 0.97786 0.03400
C 	C 	0.14699 0.08578 0.97889 -0.06100
C 	C 	0.11379 0.03970 0.99773 0.00900
C 	C 	0.14592 0.02222 0.01668 -0.06500
C 	C 	0.40274 0.12499 0.01156 -0.02600
C 	C 	0.43600 0.17057 0.99245 -0.06300
C 	C 	0.40401 0.18847 0.97364 -0.02700
H 	H 	0.32940 0.03962 0.04662 0.03800
H 	H 	0.33293 0.21610 0.94144 0.03700
H 	H 	0.22067 0.17185 0.94408 0.04100
H 	H 	0.12205 0.09914 0.96426 0.05000
H 	H 	0.42732 0.11117 0.02611 0.04800
H 	H 	0.42935 0.22291 0.95852 0.04200
C 	C 	0.94125 0.90666 0.98878 0.10500
N 	N 	0.01691 0.97589 0.46949 -0.13200
C 	C 	0.95201 0.93806 0.46630 0.10400
N 	N 	0.92013 0.96444 0.46466 -0.13500
Cu	Cu	0.62828 0.33390 0.02345 0.89300
O 	O 	0.69412 0.40092 0.96301 -0.38500
C 	C 	0.69452 0.43861 0.98586 0.28500
O 	O 	0.66178 0.41616 0.00889 -0.39600
H 	H 	0.72225 0.34167 0.00987 0.16300
O 	O 	0.78638 0.45490 0.46169 -0.36200
C 	C 	0.75928 0.48119 0.47171 0.27300
O 	O 	0.69975 0.44451 0.47609 -0.39300
H 	H 	0.68798 0.41647 0.77791 0.03800
H 	H 	0.70169 0.43946 0.72396 0.03800
H 	H 	0.70838 0.36965 0.11515 0.02200
H 	H 	0.72948 0.37235 0.17237 0.04500
H 	H 	0.80796 0.35418 0.21226 0.03800
H 	H 	0.81273 0.36557 0.27011 0.03900
H 	H 	0.72066 0.38803 0.29691 0.04600
H 	H 	0.71624 0.41014 0.35297 0.03400
C 	C 	0.92549 0.74015 0.42744 -0.05100
C 	C 	0.90171 0.67730 0.42969 -0.03800
C 	C 	0.85950 0.64560 0.45046 0.01100
C 	C 	0.84094 0.67732 0.46906 -0.00300
C 	C 	0.86483 0.74060 0.46676 -0.02200
C 	C 	0.90748 0.77217 0.44598 0.03300
C 	C 	0.84665 0.77255 0.48551 0.03300
C 	C 	0.80420 0.74073 0.50618 -0.05100
C 	C 	0.78028 0.67775 0.50838 -0.03900
C 	C 	0.79846 0.64576 0.48992 0.01100
C 	C 	0.77407 0.58238 0.49177 -0.02800
C 	C 	0.79135 0.55015 0.47271 -0.06300
C 	C 	0.83492 0.58230 0.45250 -0.02700
C 	C 	0.93278 0.83582 0.44452 -0.06100
C 	C 	0.91660 0.86852 0.46399 0.00700
C 	C 	0.87238 0.83639 0.48389 -0.06100
H 	H 	0.95820 0.76401 0.41137 0.04100
H 	H 	0.91613 0.65330 0.41524 0.03700
H 	H 	0.78989 0.76478 0.52067 0.04100
H 	H 	0.74758 0.65389 0.52445 0.03700
H 	H 	0.74105 0.55785 0.50764 0.04200
H 	H 	0.84810 0.55746 0.43769 0.04800
H 	H 	0.96636 0.86055 0.42890 0.05000
H 	H 	0.85996 0.86174 0.49891 0.04900
H 	H 	0.84870 0.99589 0.49084 0.05200
C 	C 	0.89934 0.69968 0.95170 -0.05200
C 	C 	0.86533 0.63415 0.95169 -0.03800
C 	C 	0.81295 0.60294 0.96733 0.01000
C 	C 	0.79404 0.63771 0.98270 -0.00100
C 	C 	0.82839 0.70371 0.98279 -0.02300
C 	C 	0.88151 0.73486 0.96742 0.03400
C 	C 	0.81029 0.73875 0.99871 0.03400
C 	C 	0.75723 0.70732 0.01388 -0.05200
C 	C 	0.72294 0.64170 0.01368 -0.03800
C 	C 	0.74138 0.60671 0.99837 0.01100
C 	C 	0.70828 0.54132 0.99887 -0.02400
C 	C 	0.72782 0.50678 0.98411 -0.06300
C 	C 	0.77982 0.53764 0.96814 -0.02400
C 	C 	0.91685 0.80096 0.96847 -0.06200
C 	C 	0.90017 0.83636 0.98518 0.00600
C 	C 	0.84624 0.80495 0.99981 -0.06100
H 	H 	0.93991 0.72315 0.93970 0.04000
H 	H 	0.88002 0.60779 0.93967 0.03500
H 	H 	0.74274 0.73375 0.02604 0.04100
H 	H 	0.68234 0.61822 0.02566 0.03700
H 	H 	0.66750 0.51735 0.01074 0.04300
H 	H 	0.79504 0.51112 0.95683 0.04100
H 	H 	0.95771 0.82503 0.95665 0.05000
H 	H 	0.83336 0.83224 0.01271 0.04900
H 	H 	0.76751 0.00702 0.50677 0.04000
H 	H 	0.21717 0.99528 0.04921 0.04400
H 	H 	0.12031 0.98714 0.03148 0.05400
N 	N 	0.00562 0.93975 0.99092 -0.13200
C 	C 	0.78713 0.04855 0.49565 -0.05300
C 	C 	0.86646 0.03621 0.47889 -0.06500
N 	N 	0.91517 0.93863 0.99094 -0.13600
H 	H 	0.23543 0.04361 0.52119 0.04100
C 	C 	0.95335 0.02863 0.46605 0.10100
H 	H 	0.13276 0.02468 0.50365 0.05200
H 	H 	0.85377 0.97231 0.02418 0.05200
