data_crystal

_cell_length_a 20.38545
_cell_length_b 20.54749
_cell_length_c 40.26777
_cell_angle_alpha 95.45561
_cell_angle_beta  95.45583
_cell_angle_gamma 126.13417

_symmetry_space_group_name_	'P 1'
_symmetry_space_group_name_H-M	'P 1'

loop_
_symmetry_equiv_pos_as_xyz
  x,y,z

loop_
_atom_site_label
_atom_site_type_symbol
_atom_site_fract_x
_atom_site_fract_y
_atom_site_fract_z
_atom_site_charge
C 	C 	0.95365 0.03623 0.99867 0.04800
C 	C 	0.03835 0.08014 0.99756 -0.08400
C 	C 	0.07370 0.03854 0.99566 0.04600
H 	H 	0.07611 0.14567 0.99801 0.05600
C 	C 	0.91314 0.00026 0.46465 0.03800
C 	C 	0.03949 0.01276 0.46626 0.03400
C 	C 	0.99832 0.04815 0.46487 -0.07000
H 	H 	0.03265 0.11311 0.46437 0.05200
Cu	Cu	0.62227 0.21620 0.00473 0.92700
Cu	Cu	0.68503 0.22121 0.93239 0.87000
Cu	Cu	0.66309 0.34396 0.96043 0.89700
Cu	Cu	0.62813 0.36958 0.02902 0.89600
C 	C 	0.65119 0.27798 0.07611 0.28800
O 	O 	0.50210 0.16975 0.00549 -0.36000
C 	C 	0.64161 0.29203 0.88618 0.30300
O 	O 	0.69028 0.34388 0.00750 -0.63800
O 	O 	0.60843 0.22399 0.95627 -0.64100
O 	O 	0.67442 0.15886 0.00154 -0.37100
O 	O 	0.76401 0.24592 0.97016 -0.44300
O 	O 	0.61464 0.31161 0.06790 -0.38300
O 	O 	0.72377 0.46176 0.96702 -0.38300
C 	C 	0.72445 0.50811 0.99235 0.31400
C 	C 	0.47145 0.20648 0.99415 0.30300
O 	O 	0.52143 0.28229 0.98975 -0.39700
O 	O 	0.67547 0.47665 0.01467 -0.39400
O 	O 	0.65320 0.22944 0.05288 -0.36000
C 	C 	0.74402 0.19274 0.99015 0.31000
O 	O 	0.64881 0.34414 0.91109 -0.37700
O 	O 	0.63294 0.22545 0.89166 -0.42100
H 	H 	0.75023 0.37934 0.01710 0.16500
H 	H 	0.55073 0.18883 0.94356 0.17600
Cu	Cu	0.74258 0.33926 0.46044 0.92600
Cu	Cu	0.74126 0.28213 0.53403 0.87100
Cu	Cu	0.61160 0.29460 0.50412 0.89800
Cu	Cu	0.58653 0.33088 0.43544 0.89700
C 	C 	0.68142 0.31027 0.38887 0.30500
O 	O 	0.78840 0.45852 0.45937 -0.35800
C 	C 	0.67032 0.32903 0.57883 0.28700
O 	O 	0.61374 0.27048 0.45711 -0.63900
O 	O 	0.73341 0.35318 0.50868 -0.64100
O 	O 	0.79995 0.28671 0.46420 -0.36900
O 	O 	0.71467 0.20087 0.49719 -0.44200
O 	O 	0.64556 0.34469 0.39668 -0.38400
O 	O 	0.49245 0.23136 0.49661 -0.38300
C 	C 	0.44623 0.23162 0.47139 0.31400
C 	C 	0.74985 0.48793 0.46998 0.30200
O 	O 	0.67368 0.43750 0.47451 -0.39500
O 	O 	0.47869 0.28316 0.45015 -0.39400
O 	O 	0.73018 0.30872 0.41235 -0.35900
C 	C 	0.76631 0.21858 0.47641 0.30800
O 	O 	0.60837 0.30085 0.55337 -0.38200
O 	O 	0.73763 0.33737 0.57376 -0.41900
H 	H 	0.57920 0.21123 0.44720 0.16500
H 	H 	0.76667 0.41077 0.52085 0.17400
C 	C 	0.65997 0.34199 0.61405 -0.08700
C 	C 	0.58506 0.28459 0.62416 0.01200
C 	C 	0.58016 0.28784 0.65866 -0.06500
C 	C 	0.64991 0.34891 0.68332 0.02500
C 	C 	0.72297 0.40965 0.67302 -0.06600
C 	C 	0.72809 0.40602 0.63858 0.01400
C 	C 	0.64935 0.34407 0.71974 0.00200
C 	C 	0.70459 0.33492 0.73816 -0.04100
C 	C 	0.70257 0.32755 0.77227 -0.03300
C 	C 	0.64517 0.32891 0.78826 -0.00700
C 	C 	0.59023 0.33862 0.77005 -0.03200
C 	C 	0.59233 0.34628 0.73587 -0.04000
C 	C 	0.64115 0.31744 0.82302 0.04400
C 	C 	0.64007 0.30661 0.85198 -0.10800
H 	H 	0.53189 0.23512 0.60549 0.03500
H 	H 	0.52328 0.24093 0.66629 0.04600
H 	H 	0.77671 0.45795 0.69179 0.04600
H 	H 	0.78578 0.45153 0.63106 0.03000
H 	H 	0.74840 0.33249 0.72593 0.03800
H 	H 	0.74509 0.31988 0.78615 0.03600
H 	H 	0.54561 0.33968 0.78222 0.04000
H 	H 	0.54956 0.35353 0.72193 0.04000
C 	C 	0.67126 0.27840 0.11241 -0.08300
C 	C 	0.65300 0.20707 0.12305 0.01700
C 	C 	0.66219 0.20469 0.15773 -0.06400
C 	C 	0.68994 0.27363 0.18206 0.02700
C 	C 	0.71133 0.34587 0.17144 -0.06400
C 	C 	0.70213 0.34828 0.13682 0.01300
C 	C 	0.69143 0.26865 0.21850 0.00300
C 	C 	0.76555 0.32269 0.24219 -0.03900
C 	C 	0.76506 0.32516 0.27703 -0.03100
C 	C 	0.69057 0.27350 0.28840 -0.00500
C 	C 	0.61708 0.21713 0.26475 -0.03200
C 	C 	0.61745 0.21465 0.22992 -0.03900
C 	C 	0.68810 0.28419 0.32410 0.04500
C 	C 	0.68539 0.29495 0.35379 -0.09900
H 	H 	0.62915 0.15267 0.10453 0.04200
H 	H 	0.64614 0.14882 0.16566 0.04800
H 	H 	0.73301 0.39949 0.19000 0.04700
H 	H 	0.71737 0.40397 0.12897 0.02500
H 	H 	0.82310 0.36417 0.23366 0.04200
H 	H 	0.82217 0.36879 0.29514 0.04300
H 	H 	0.55925 0.17694 0.27333 0.03900
H 	H 	0.55989 0.17270 0.21188 0.04100
C 	C 	0.83895 0.72406 0.46870 -0.02600
C 	C 	0.80940 0.64231 0.46954 0.05900
C 	C 	0.78409 0.57244 0.46997 -0.11200
C 	C 	0.79420 0.16891 0.47089 -0.12000
C 	C 	0.81696 0.12635 0.46791 0.05900
C 	C 	0.84518 0.07763 0.46586 -0.02900
C 	C 	0.87293 0.03935 0.46498 -0.01400
C 	C 	0.12713 0.06221 0.46749 -0.01200
C 	C 	0.20048 0.10189 0.46860 -0.02900
C 	C 	0.28617 0.14705 0.46985 0.06300
C 	C 	0.35933 0.18542 0.47072 -0.11400
C 	C 	0.76949 0.59393 0.99242 -0.11300
C 	C 	0.80708 0.66624 0.99289 0.06200
C 	C 	0.85163 0.75101 0.99379 -0.02500
C 	C 	0.79148 0.16222 0.99486 -0.12400
C 	C 	0.83191 0.13693 0.99728 0.06000
C 	C 	0.87819 0.10597 0.99871 -0.02800
C 	C 	0.91498 0.07665 0.99904 -0.01700
C 	C 	0.16031 0.08164 0.99477 -0.01800
C 	C 	0.23184 0.11190 0.99409 -0.02600
C 	C 	0.31483 0.14364 0.99356 0.05800
C 	C 	0.38584 0.17078 0.99351 -0.11300
C 	C 	0.02465 0.95398 0.99480 -0.08400
C 	C 	0.94067 0.91054 0.99587 0.05000
C 	C 	0.90516 0.95150 0.99793 -0.08100
H 	H 	0.05194 0.92191 0.99328 0.05700
H 	H 	0.83977 0.91745 0.99862 0.05700
C 	C 	0.86889 0.91601 0.46563 -0.07400
C 	C 	0.91078 0.88069 0.46678 0.04000
C 	C 	0.99580 0.92935 0.46707 -0.06900
H 	H 	0.80306 0.87868 0.46567 0.05400
H 	H 	0.02813 0.90223 0.46811 0.05200
C 	C 	0.86788 0.79472 0.46784 -0.01400
C 	C 	0.89110 0.82367 0.99472 -0.01700
