data_crystal

_cell_length_a 30.45570
_cell_length_b 31.20362
_cell_length_c 33.59884
_cell_angle_alpha 95.51705
_cell_angle_beta  95.51587
_cell_angle_gamma 125.55047

_symmetry_space_group_name_	'P 1'
_symmetry_space_group_name_H-M	'P 1'

loop_
_symmetry_equiv_pos_as_xyz
  x,y,z

loop_
_atom_site_label
_atom_site_type_symbol
_atom_site_fract_x
_atom_site_fract_y
_atom_site_fract_z
_atom_site_charge
N 	N 	0.99701 0.02501 0.45741 -0.14200
H 	H 	0.02024 0.12918 0.04445 0.03900
C 	C 	0.02295 0.00143 0.45861 0.11800
H 	H 	0.98227 0.88294 0.94990 0.04100
N 	N 	0.02426 0.97926 0.99545 -0.14000
N 	N 	0.03016 0.05819 0.00171 -0.14300
H 	H 	0.97917 0.09312 0.49572 0.04000
N 	N 	0.99341 0.94777 0.45723 -0.14000
C 	C 	0.97559 0.02924 0.00271 0.11600
C 	C 	0.05454 0.03320 0.99825 0.12100
C 	C 	0.96970 0.95012 0.99598 0.12000
N 	N 	0.94545 0.97518 0.99979 -0.13900
C 	C 	0.94169 0.99515 0.45495 0.12000
C 	C 	0.93817 0.91768 0.45497 0.11900
N 	N 	0.91224 0.94137 0.45391 -0.14000
Cu	Cu	0.65438 0.26606 0.00134 0.92600
Cu	Cu	0.70823 0.26842 0.92035 0.87300
Cu	Cu	0.68674 0.34790 0.94537 0.89800
Cu	Cu	0.64016 0.35770 0.01732 0.89300
C 	C 	0.65238 0.30403 0.08217 0.25300
O 	O 	0.57188 0.22730 0.99337 -0.35900
C 	C 	0.67964 0.30930 0.85930 0.25600
O 	O 	0.69227 0.34803 0.00263 -0.64200
O 	O 	0.65310 0.26992 0.94268 -0.63800
O 	O 	0.69508 0.23408 0.00724 -0.37700
O 	O 	0.75642 0.28923 0.96998 -0.44200
O 	O 	0.62554 0.32104 0.06518 -0.36400
O 	O 	0.72246 0.42424 0.95258 -0.37800
C 	C 	0.71099 0.45073 0.97719 0.29000
C 	C 	0.54806 0.24561 0.97414 0.28300
O 	O 	0.57837 0.29484 0.96737 -0.39100
O 	O 	0.66898 0.42546 0.99627 -0.39300
O 	O 	0.66549 0.27719 0.05979 -0.35200
C 	C 	0.74226 0.25541 0.99501 0.29800
O 	O 	0.69594 0.35040 0.88797 -0.36900
O 	O 	0.67616 0.26742 0.86839 -0.40800
H 	H 	0.72990 0.37401 0.01878 0.16400
H 	H 	0.61626 0.24591 0.92506 0.17200
Cu	Cu	0.72570 0.33386 0.44182 0.92700
Cu	Cu	0.73129 0.28788 0.52501 0.87200
Cu	Cu	0.64372 0.30087 0.49967 0.89800
Cu	Cu	0.62611 0.34007 0.42602 0.89400
C 	C 	0.67808 0.32527 0.36058 0.25300
O 	O 	0.76126 0.41364 0.44723 -0.36000
C 	C 	0.68807 0.31404 0.58592 0.25500
O 	O 	0.64137 0.29332 0.44222 -0.64000
O 	O 	0.72415 0.33764 0.50090 -0.63900
O 	O 	0.76155 0.29684 0.43689 -0.36900
O 	O 	0.70936 0.23819 0.47675 -0.44000
O 	O 	0.66029 0.35161 0.37666 -0.37700
O 	O 	0.56496 0.26198 0.49387 -0.37800
C 	C 	0.53494 0.27017 0.46935 0.28900
C 	C 	0.74074 0.43561 0.46567 0.28200
O 	O 	0.69111 0.40469 0.47374 -0.39100
O 	O 	0.55786 0.31030 0.44919 -0.39600
O 	O 	0.71211 0.31998 0.38322 -0.33700
C 	C 	0.74151 0.25144 0.44983 0.28800
O 	O 	0.64435 0.29451 0.55766 -0.36800
O 	O 	0.73226 0.32043 0.57643 -0.40900
H 	H 	0.61592 0.25586 0.42713 0.16400
H 	H 	0.74754 0.37434 0.51742 0.17200
C 	C 	0.66362 0.28341 0.68212 0.11400
C 	C 	0.63388 0.25899 0.71251 -0.08900
C 	C 	0.66162 0.28131 0.75307 0.00700
C 	C 	0.71234 0.33012 0.76340 0.11500
C 	C 	0.73996 0.35717 0.73301 -0.09000
C 	C 	0.71620 0.33013 0.69247 0.00700
O 	O 	0.63908 0.27253 0.64184 -0.19200
C 	C 	0.68272 0.31693 0.62882 0.04000
C 	C 	0.72771 0.35275 0.65946 -0.05900
O 	O 	0.72522 0.35509 0.80361 -0.19400
C 	C 	0.67753 0.31558 0.81666 0.04100
C 	C 	0.63827 0.27285 0.78599 -0.05900
H 	H 	0.59074 0.22536 0.70493 0.06400
H 	H 	0.77719 0.39792 0.74053 0.06400
H 	H 	0.76854 0.38411 0.65507 0.05000
H 	H 	0.60372 0.23421 0.79049 0.04900
C 	C 	0.64929 0.32627 0.18539 0.11700
C 	C 	0.62628 0.32472 0.21981 -0.09100
C 	C 	0.65586 0.33188 0.25750 0.01200
C 	C 	0.70144 0.33234 0.26065 0.11300
C 	C 	0.72115 0.32791 0.22547 -0.08500
C 	C 	0.69653 0.32942 0.18850 0.00500
O 	O 	0.61951 0.30882 0.14612 -0.19200
C 	C 	0.65368 0.30220 0.12568 0.04600
C 	C 	0.69844 0.31206 0.15101 -0.05900
O 	O 	0.71444 0.32167 0.29750 -0.18400
C 	C 	0.67196 0.31506 0.31602 0.04300
C 	C 	0.63537 0.31822 0.29123 -0.06200
H 	H 	0.58604 0.31612 0.21708 0.06400
H 	H 	0.75282 0.32187 0.22665 0.06600
H 	H 	0.73472 0.31903 0.14146 0.05200
H 	H 	0.60504 0.32254 0.30103 0.04800
C 	C 	0.90674 0.85947 0.45329 -0.02300
C 	C 	0.87306 0.83526 0.48186 -0.01700
C 	C 	0.85079 0.78201 0.48472 -0.05200
C 	C 	0.86185 0.75267 0.45887 0.02600
C 	C 	0.89335 0.77602 0.42913 -0.05200
C 	C 	0.91573 0.82919 0.42634 -0.01600
C 	C 	0.84296 0.69944 0.46387 -0.01600
C 	C 	0.82782 0.65483 0.46720 -0.02400
C 	C 	0.81025 0.60143 0.47023 0.04000
C 	C 	0.82925 0.57779 0.44696 -0.07000
C 	C 	0.80883 0.52444 0.44713 0.01600
C 	C 	0.76891 0.49414 0.47051 -0.08900
C 	C 	0.75199 0.51888 0.49536 0.01300
C 	C 	0.77243 0.57224 0.49504 -0.07000
H 	H 	0.86588 0.85824 0.50285 0.03900
H 	H 	0.82607 0.76406 0.50758 0.04500
H 	H 	0.90156 0.75340 0.40876 0.04500
H 	H 	0.94128 0.84732 0.40394 0.04000
H 	H 	0.85894 0.60033 0.42802 0.05000
H 	H 	0.82266 0.50622 0.42802 0.04000
H 	H 	0.72210 0.49647 0.51419 0.03200
H 	H 	0.75807 0.59049 0.51351 0.04800
C 	C 	0.91389 0.02121 0.45310 -0.02500
C 	C 	0.94017 0.07329 0.47523 -0.01600
C 	C 	0.91646 0.10015 0.47070 -0.05300
C 	C 	0.86626 0.07525 0.44413 0.02600
C 	C 	0.83924 0.02284 0.42264 -0.05400
C 	C 	0.86292 0.99584 0.42711 -0.01500
C 	C 	0.84248 0.10354 0.43912 -0.01600
C 	C 	0.82343 0.12806 0.43547 -0.02500
C 	C 	0.80097 0.15775 0.43226 0.04100
C 	C 	0.74518 0.13252 0.43285 -0.07300
C 	C 	0.72483 0.16274 0.43572 0.01700
C 	C 	0.76025 0.21857 0.43819 -0.09600
C 	C 	0.81546 0.24327 0.43507 0.01600
C 	C 	0.83576 0.21295 0.43227 -0.07200
H 	H 	0.93733 0.14047 0.48768 0.04400
H 	H 	0.80022 0.00320 0.40222 0.04500
H 	H 	0.84231 0.95582 0.40969 0.04000
H 	H 	0.71790 0.08978 0.43243 0.04800
H 	H 	0.68196 0.14305 0.43743 0.02900
H 	H 	0.84321 0.28625 0.43679 0.03100
H 	H 	0.87890 0.23269 0.43151 0.04900
C 	C 	0.08301 0.03393 0.46127 -0.02300
C 	C 	0.11376 0.02046 0.48308 -0.01800
C 	C 	0.17047 0.05045 0.48476 -0.05200
C 	C 	0.19689 0.09411 0.46475 0.02600
C 	C 	0.16650 0.10796 0.44324 -0.05200
C 	C 	0.10976 0.07802 0.44148 -0.01700
C 	C 	0.25515 0.12447 0.46608 -0.01500
C 	C 	0.30395 0.14987 0.46721 -0.02400
C 	C 	0.36220 0.18037 0.46844 0.04200
C 	C 	0.39165 0.23305 0.46153 -0.07100
C 	C 	0.44808 0.26255 0.46210 0.01700
C 	C 	0.47555 0.23946 0.46958 -0.08800
C 	C 	0.44589 0.18667 0.47673 0.01800
C 	C 	0.38941 0.15727 0.47615 -0.07000
H 	H 	0.09380 0.98694 0.49886 0.04200
H 	H 	0.19380 0.03967 0.50157 0.04500
H 	H 	0.18673 0.14171 0.42769 0.04400
H 	H 	0.08654 0.08864 0.42430 0.04000
H 	H 	0.37083 0.25117 0.45565 0.04900
H 	H 	0.47044 0.30338 0.45695 0.03400
H 	H 	0.46642 0.16821 0.48224 0.03200
H 	H 	0.36682 0.11649 0.48150 0.04900
C 	C 	0.74019 0.50875 0.97836 -0.08700
C 	C 	0.71404 0.53295 0.98638 0.01800
C 	C 	0.74202 0.58800 0.98794 -0.07000
C 	C 	0.79619 0.61930 0.98146 0.04200
C 	C 	0.82239 0.59540 0.97336 -0.07000
C 	C 	0.79455 0.54033 0.97183 0.01800
C 	C 	0.82488 0.67598 0.98322 -0.02300
C 	C 	0.84881 0.72344 0.98471 -0.01600
C 	C 	0.87774 0.78014 0.98642 0.03100
C 	C 	0.92017 0.80714 0.96449 -0.05300
C 	C 	0.94958 0.86249 0.96707 -0.01600
C 	C 	0.93682 0.89135 0.99175 -0.02000
C 	C 	0.89368 0.86402 0.01327 -0.02000
C 	C 	0.86428 0.80858 0.01060 -0.05600
H 	H 	0.67198 0.50910 0.99111 0.03500
H 	H 	0.72152 0.60628 0.99413 0.05000
H 	H 	0.86435 0.61945 0.96835 0.05000
H 	H 	0.81538 0.52234 0.96595 0.03300
H 	H 	0.93060 0.78531 0.94561 0.04600
H 	H 	0.88357 0.88579 0.03257 0.04000
H 	H 	0.83144 0.78787 0.02762 0.04400
C 	C 	0.77465 0.23475 0.00364 -0.11000
C 	C 	0.75982 0.19783 0.02995 0.02100
C 	C 	0.78664 0.17382 0.03426 -0.07400
C 	C 	0.82858 0.18671 0.01254 0.03800
C 	C 	0.84506 0.22513 0.98773 -0.07200
C 	C 	0.81846 0.24922 0.98337 0.02000
C 	C 	0.85250 0.15828 0.01365 -0.02700
C 	C 	0.87337 0.13523 0.01389 -0.01600
C 	C 	0.89823 0.10765 0.01292 0.02100
C 	C 	0.86885 0.05541 0.99057 -0.04800
C 	C 	0.89403 0.02977 0.98728 -0.01500
C 	C 	0.94893 0.05625 0.00640 -0.02600
C 	C 	0.97811 0.10849 0.02914 -0.01700
C 	C 	0.95281 0.13407 0.03232 -0.05200
H 	H 	0.72696 0.18701 0.04647 0.03700
H 	H 	0.77408 0.14448 0.05384 0.05000
H 	H 	0.87772 0.23552 0.97107 0.04800
H 	H 	0.83102 0.27809 0.96341 0.02000
H 	H 	0.82672 0.03489 0.97529 0.04400
H 	H 	0.87112 0.98965 0.96940 0.04100
H 	H 	0.97580 0.17454 0.04958 0.04400
C 	C 	0.48765 0.21552 0.96808 -0.08800
C 	C 	0.46207 0.23587 0.94896 0.01200
C 	C 	0.40695 0.21322 0.95002 -0.06800
C 	C 	0.37684 0.16977 0.96970 0.03800
C 	C 	0.40104 0.14708 0.98632 -0.06300
C 	C 	0.45612 0.16964 0.98540 0.01500
C 	C 	0.32240 0.15062 0.97524 -0.02100
C 	C 	0.27674 0.13365 0.98040 -0.01700
C 	C 	0.22233 0.11230 0.98749 0.03100
C 	C 	0.20033 0.07755 0.01519 -0.05700
C 	C 	0.14615 0.05358 0.02009 -0.01900
C 	C 	0.11354 0.06422 0.99728 -0.02100
C 	C 	0.13635 0.10076 0.97073 -0.01600
C 	C 	0.19061 0.12462 0.96577 -0.05300
H 	H 	0.48526 0.27023 0.93443 0.03300
H 	H 	0.38815 0.23039 0.93648 0.04800
H 	H 	0.37765 0.11290 0.00103 0.04500
H 	H 	0.47472 0.15262 0.99947 0.04100
H 	H 	0.22486 0.06831 0.03239 0.04500
H 	H 	0.12917 0.02592 0.04101 0.03900
H 	H 	0.11155 0.10927 0.95296 0.04000
H 	H 	0.20754 0.15181 0.94451 0.04500
