data_crystal

_cell_length_a 20.58645
_cell_length_b 21.42962
_cell_length_c 31.51743
_cell_angle_alpha 60.78353
_cell_angle_beta  118.89818
_cell_angle_gamma 133.19238

_symmetry_space_group_name_	'P 1'
_symmetry_space_group_name_H-M	'P 1'

loop_
_symmetry_equiv_pos_as_xyz
  x,y,z

loop_
_atom_site_label
_atom_site_type_symbol
_atom_site_fract_x
_atom_site_fract_y
_atom_site_fract_z
_atom_site_charge
C 	C 	0.00571 0.00542 0.76095 0.19300
C 	C 	0.04736 0.92533 0.90474 -0.05000
C 	C 	0.03686 0.93723 0.85387 0.03800
H 	H 	0.05150 0.90582 0.84486 0.13400
O 	O 	0.02914 0.97870 0.12386 -0.52800
O 	O 	0.02543 0.99858 0.98315 -0.27200
Co	Co	0.01524 0.86871 0.63248 1.20000
O 	O 	0.04318 0.78199 0.59004 -0.35900
C 	C 	0.02459 0.96423 0.91694 0.08100
C 	C 	0.00859 0.98946 0.81468 0.14400
F 	F 	0.00741 0.15780 0.76419 -0.39300
F 	F 	0.03240 0.63723 0.19313 -0.33500
C 	C 	0.02488 0.94629 0.97041 0.33000
O 	O 	0.05626 0.14276 0.19760 -0.36600
C 	C 	0.08223 0.87052 0.94490 0.78300
O 	O 	0.06055 0.91981 0.08964 -0.72800
O 	O 	0.04796 0.93305 0.57682 -0.72200
O 	O 	0.07519 0.12014 0.04545 -0.41000
O 	O 	0.01965 0.10736 0.53045 -0.39300
C 	C 	0.04242 0.01376 0.33262 0.01600
Co	Co	0.02108 0.09282 0.09760 1.19200
C 	C 	0.04851 0.02739 0.37469 -0.12300
Co	Co	0.07655 0.01815 0.05705 1.16600
Co	Co	0.04426 0.02127 0.54351 1.17700
F 	F 	0.07368 0.69358 0.69798 -0.34100
Co	Co	0.10650 0.87773 0.06990 1.21100
O 	O 	0.09065 0.81302 0.18805 -0.30500
C 	C 	0.04193 0.21815 0.62560 0.42000
O 	O 	0.06777 0.18704 0.61401 -0.34200
F 	F 	0.11975 0.85808 0.92580 -0.37100
O 	O 	0.01181 0.74624 0.09904 -0.34700
O 	O 	0.00701 0.88964 0.49032 -0.30900
Co	Co	0.00100 0.84966 0.13528 1.19900
Co	Co	0.11257 0.91487 0.55310 1.19800
H 	H 	0.09566 0.06518 0.31197 0.11700
F 	F 	0.07499 0.37381 0.54691 -0.31500
F 	F 	0.11216 0.59254 0.69907 -0.32900
F 	F 	0.09578 0.55713 0.19535 -0.33000
O 	O 	0.00803 0.95482 0.74860 -0.26700
O 	O 	0.01301 0.87288 0.00236 -0.31500
C 	C 	0.10638 0.30771 0.63421 -0.18400
C 	C 	0.10530 0.37762 0.59511 0.31000
F 	F 	0.01066 0.78812 0.96404 -0.37700
O 	O 	0.13332 0.87088 0.67741 -0.30500
C 	C 	0.11563 0.20974 0.16951 0.39400
O 	O 	0.12120 0.19969 0.13259 -0.31900
F 	F 	0.11357 0.13487 0.41563 -0.41300
C 	C 	0.12386 0.67916 0.20363 0.29400
F 	F 	0.12093 0.35248 0.08798 -0.33900
C 	C 	0.13183 0.11246 0.39045 0.79300
C 	C 	0.13612 0.45209 0.60553 0.27600
F 	F 	0.13718 0.51994 0.56714 -0.32000
O 	O 	0.00206 0.07020 0.72659 -0.26200
C 	C 	0.99946 0.95322 0.45695 0.28300
O 	O 	0.99249 0.99920 0.47032 -0.25800
F 	F 	0.22426 0.25370 0.26302 -0.33200
O 	O 	0.95682 0.17105 0.62767 -0.35800
Co	Co	0.97044 0.07319 0.58688 1.19000
C 	C 	0.94246 0.94360 0.26034 0.30500
C 	C 	0.15759 0.82679 0.17919 0.39100
O 	O 	0.19185 0.88657 0.13999 -0.31800
O 	O 	0.20257 0.00479 0.03725 -0.37400
O 	O 	0.21754 0.08799 0.07097 -0.35500
C 	C 	0.19013 0.88406 0.65990 0.39700
O 	O 	0.21156 0.94225 0.61786 -0.32100
O 	O 	0.18738 0.04639 0.51568 -0.36500
O 	O 	0.18523 0.10787 0.55647 -0.36400
F 	F 	0.15034 0.91227 0.98276 -0.42400
F 	F 	0.20188 0.10312 0.42059 -0.40500
C 	C 	0.22089 0.82577 0.68347 -0.17200
C 	C 	0.15621 0.73319 0.69155 0.29500
C 	C 	0.17600 0.68130 0.69196 0.27100
C 	C 	0.22806 0.38184 0.23280 0.27700
C 	C 	0.16806 0.29871 0.17550 -0.18800
C 	C 	0.20753 0.31127 0.22405 0.30500
F 	F 	0.26707 0.39328 0.27992 -0.30600
C 	C 	0.15658 0.63713 0.20615 0.27300
C 	C 	0.18530 0.76614 0.20904 -0.17000
C 	C 	0.72988 0.29720 0.01767 0.24800
N 	N 	0.63857 0.24448 0.01592 -0.10000
C 	C 	0.60177 0.27536 0.01927 0.28900
N 	N 	0.65512 0.35888 0.02310 -0.13000
C 	C 	0.74640 0.40982 0.02852 0.26900
N 	N 	0.78468 0.37921 0.02609 -0.09900
C 	C 	0.70104 0.27167 0.54042 0.26900
N 	N 	0.61284 0.23840 0.53384 -0.10200
C 	C 	0.59479 0.28016 0.54314 0.28800
N 	N 	0.66407 0.35643 0.55740 -0.12200
C 	C 	0.75185 0.39209 0.56261 0.28000
N 	N 	0.77115 0.34968 0.55446 -0.09700
C 	C 	0.28923 0.64634 0.21032 0.26500
N 	N 	0.23609 0.56096 0.20760 -0.09600
C 	C 	0.27083 0.53354 0.19871 0.28000
N 	N 	0.35762 0.59017 0.19331 -0.11800
C 	C 	0.41033 0.67457 0.19553 0.28300
N 	N 	0.37607 0.70316 0.20350 -0.09400
C 	C 	0.28419 0.66856 0.68398 0.26500
N 	N 	0.21669 0.58965 0.67038 -0.09600
C 	C 	0.24050 0.54857 0.66451 0.27700
N 	N 	0.32959 0.58733 0.67047 -0.12100
C 	C 	0.39596 0.66398 0.68452 0.28900
N 	N 	0.37362 0.70323 0.69264 -0.09400
Co	Co	0.92953 0.91816 0.16816 1.21000
C 	C 	0.25434 0.07067 0.05747 0.39600
Co	Co	0.91978 0.06641 0.16449 1.16900
C 	C 	0.92560 0.71341 0.08867 0.40900
O 	O 	0.94480 0.17228 0.10278 -0.37900
O 	O 	0.96426 0.02353 0.14410 -0.78000
C 	C 	0.91054 0.16094 0.05798 0.41400
O 	O 	0.92646 0.81426 0.17847 -0.37600
C 	C 	0.75111 0.89740 0.14072 0.39000
O 	O 	0.92058 0.11481 0.04815 -0.35300
O 	O 	0.78963 0.98286 0.12756 -0.30200
O 	O 	0.78986 0.86681 0.14048 -0.31800
O 	O 	0.88746 0.96604 0.22907 -0.32500
O 	O 	0.97390 0.92395 0.24381 -0.28800
O 	O 	0.90253 0.75138 0.09600 -0.34500
Co	Co	0.94435 0.92274 0.67704 1.20500
C 	C 	0.22962 0.10931 0.53651 0.43100
Co	Co	0.88842 0.04013 0.66826 1.20000
C 	C 	0.95702 0.73150 0.59158 0.41200
O 	O 	0.78258 0.00727 0.60633 -0.35000
O 	O 	0.93723 0.00900 0.64208 -0.76600
C 	C 	0.79820 0.06223 0.56259 0.38600
O 	O 	0.96857 0.83628 0.68978 -0.38200
C 	C 	0.76864 0.84375 0.69405 0.40700
O 	O 	0.96878 0.95635 0.60307 -0.52900
O 	O 	0.85738 0.08035 0.54420 -0.31500
O 	O 	0.81742 0.91239 0.71147 -0.30200
O 	O 	0.80619 0.83401 0.67589 -0.32900
O 	O 	0.92870 0.75259 0.60926 -0.32400
C 	C 	0.99830 0.01800 0.87783 0.02900
C 	C 	0.98409 0.02685 0.82693 -0.12100
C 	C 	0.94140 0.07490 0.78689 0.79600
H 	H 	0.98573 0.05112 0.88687 0.12000
F 	F 	0.90433 0.08611 0.80713 -0.39200
F 	F 	0.87074 0.02736 0.75165 -0.48300
C 	C 	0.90242 0.88379 0.38446 0.06000
C 	C 	0.97936 0.95968 0.40252 0.07900
C 	C 	0.96559 0.93767 0.31486 0.06900
C 	C 	0.89710 0.87001 0.34280 -0.07700
C 	C 	0.81440 0.78530 0.32650 0.79000
H 	H 	0.84852 0.83266 0.40468 0.12200
F 	F 	0.77906 0.71658 0.36690 -0.36700
F 	F 	0.83733 0.76119 0.30526 -0.38100
F 	F 	0.74763 0.79748 0.29209 -0.39600
F 	F 	0.16083 0.18161 0.34896 -0.36500
C 	C 	0.17194 0.45947 0.65512 -0.11400
C 	C 	0.17176 0.38889 0.69413 0.27700
C 	C 	0.14360 0.31591 0.68361 0.30900
F 	F 	0.15184 0.25253 0.72166 -0.34100
F 	F 	0.20687 0.39479 0.74229 -0.31900
C 	C 	0.51709 0.73407 0.64430 0.28200
C 	C 	0.49131 0.70725 0.68739 -0.12300
C 	C 	0.55407 0.71220 0.73389 0.28400
C 	C 	0.64328 0.74750 0.73699 0.31200
C 	C 	0.67094 0.77978 0.69343 -0.18300
C 	C 	0.60638 0.76963 0.64738 0.30900
F 	F 	0.63197 0.79990 0.60506 -0.34300
F 	F 	0.45594 0.72731 0.59927 -0.32200
F 	F 	0.70450 0.75457 0.78201 -0.32800
F 	F 	0.52850 0.68260 0.77608 -0.31800
C 	C 	0.30946 0.86364 0.68305 0.30300
C 	C 	0.26172 0.72155 0.68532 -0.10800
C 	C 	0.32888 0.81336 0.68188 0.27100
F 	F 	0.41203 0.85510 0.67521 -0.31600
F 	F 	0.37503 0.95171 0.67909 -0.30100
C 	C 	0.21467 0.44408 0.19276 -0.12100
C 	C 	0.17579 0.43192 0.14411 0.27100
C 	C 	0.15512 0.36117 0.13539 0.29600
F 	F 	0.16380 0.49223 0.10480 -0.32800
C 	C 	0.55945 0.70955 0.20691 0.28800
C 	C 	0.50139 0.73616 0.18492 -0.12300
C 	C 	0.52229 0.81224 0.14557 0.28400
C 	C 	0.59989 0.86095 0.12814 0.30100
C 	C 	0.65888 0.83513 0.15056 -0.17300
C 	C 	0.63645 0.75754 0.18903 0.31000
F 	F 	0.69108 0.73028 0.21037 -0.32800
F 	F 	0.54035 0.63627 0.24531 -0.31100
F 	F 	0.61759 0.93313 0.08926 -0.30100
F 	F 	0.46511 0.83691 0.12268 -0.32000
C 	C 	0.31211 0.75868 0.23357 0.27700
C 	C 	0.25182 0.67930 0.21830 -0.11000
C 	C 	0.27907 0.80238 0.22814 0.31000
F 	F 	0.33915 0.88323 0.23784 -0.31300
F 	F 	0.40291 0.79462 0.25254 -0.31900
C 	C 	0.80143 0.25971 0.52446 0.27400
C 	C 	0.72018 0.21858 0.53663 -0.11900
C 	C 	0.65596 0.12582 0.54474 0.27800
C 	C 	0.67557 0.07534 0.54406 0.25900
C 	C 	0.76173 0.11533 0.53877 -0.17000
C 	C 	0.82140 0.20817 0.52495 0.29200
F 	F 	0.89973 0.24847 0.51330 -0.33400
F 	F 	0.86076 0.34913 0.51199 -0.32000
F 	F 	0.61364 0.98611 0.55312 -0.29000
F 	F 	0.57634 0.08382 0.55577 -0.34200
C 	C 	0.83697 0.48734 0.61964 0.27500
C 	C 	0.82420 0.47904 0.57409 -0.11700
C 	C 	0.85443 0.55451 0.53442 0.27600
C 	C 	0.88933 0.63533 0.53861 0.30100
C 	C 	0.89798 0.64276 0.58334 -0.18600
C 	C 	0.87166 0.56816 0.62387 0.31700
F 	F 	0.88067 0.57409 0.66761 -0.32100
F 	F 	0.80940 0.41524 0.65872 -0.32000
F 	F 	0.91589 0.70704 0.49927 -0.36300
F 	F 	0.84333 0.54802 0.49030 -0.31500
C 	C 	0.44794 0.26291 0.49842 0.27800
C 	C 	0.50138 0.23966 0.54196 -0.12900
C 	C 	0.47207 0.19159 0.58673 0.27700
C 	C 	0.38682 0.16135 0.58697 0.30000
C 	C 	0.32852 0.17513 0.54205 -0.19600
C 	C 	0.36261 0.23232 0.49880 0.32000
F 	F 	0.31108 0.25488 0.45653 -0.30100
F 	F 	0.47899 0.31550 0.45587 -0.31700
F 	F 	0.35867 0.11445 0.63035 -0.35800
F 	F 	0.52645 0.17450 0.62998 -0.32100
C 	C 	0.76199 0.14069 0.01733 0.29900
C 	C 	0.85644 0.19594 0.02073 -0.19100
C 	C 	0.90140 0.28775 0.00777 0.31700
C 	C 	0.85963 0.32160 0.00487 0.23000
C 	C 	0.77016 0.26362 0.01248 -0.10100
C 	C 	0.71952 0.17293 0.01556 0.25900
F 	F 	0.63025 0.11575 0.01780 -0.33000
F 	F 	0.71273 0.05413 0.01972 -0.35000
F 	F 	0.90616 0.41030 0.99458 -0.27800
F 	F 	0.98851 0.34403 0.00216 -0.32600
C 	C 	0.81785 0.48451 0.09450 0.27300
C 	C 	0.80332 0.49163 0.04437 -0.11200
C 	C 	0.81287 0.56800 0.00799 0.25300
C 	C 	0.83641 0.63582 0.02157 0.27900
C 	C 	0.85621 0.63078 0.07206 -0.17600
C 	C 	0.83988 0.55181 0.10774 0.31100
F 	F 	0.84882 0.54158 0.15584 -0.32100
F 	F 	0.80456 0.40956 0.12991 -0.33000
F 	F 	0.84328 0.70810 0.98575 -0.30600
F 	F 	0.79464 0.57448 0.95903 -0.28700
C 	C 	0.44709 0.23810 0.99435 0.38600
C 	C 	0.50856 0.21576 0.02655 -0.19600
C 	C 	0.49061 0.15387 0.07262 0.30600
C 	C 	0.41244 0.11518 0.08633 0.27200
C 	C 	0.34980 0.13584 0.05352 -0.15300
C 	C 	0.36934 0.19982 0.00823 0.19900
F 	F 	0.30933 0.22029 0.97602 -0.30900
F 	F 	0.46437 0.29912 0.95009 -0.33600
F 	F 	0.39464 0.05355 0.13036 -0.35000
F 	F 	0.55090 0.13383 0.10498 -0.33700
