data_crystal

_cell_length_a 38.97852
_cell_length_b 41.94834
_cell_length_c 22.29427
_cell_angle_alpha 89.82564
_cell_angle_beta  89.99984
_cell_angle_gamma 90.00001

_symmetry_space_group_name_	'P 1'
_symmetry_space_group_name_H-M	'P 1'

loop_
_symmetry_equiv_pos_as_xyz
  x,y,z

loop_
_atom_site_label
_atom_site_type_symbol
_atom_site_fract_x
_atom_site_fract_y
_atom_site_fract_z
_atom_site_charge
C 	C 	0.49434 0.56910 0.84037 0.10300
N 	N 	0.47607 0.54307 0.85555 -0.17200
C 	C 	0.44424 0.54745 0.83363 0.10400
C 	C 	0.41422 0.52976 0.85702 -0.07100
C 	C 	0.41596 0.49472 0.86378 0.09200
C 	C 	0.38253 0.54693 0.87401 0.04200
C 	C 	0.38358 0.57080 0.91798 -0.05000
C 	C 	0.35319 0.58511 0.93761 -0.03100
C 	C 	0.32160 0.57557 0.91353 0.02000
C 	C 	0.35097 0.53805 0.84884 -0.04700
N 	N 	0.44022 0.47688 0.83681 -0.12400
C 	C 	0.40045 0.47808 0.91007 -0.05700
C 	C 	0.43948 0.44848 0.86519 0.09200
C 	C 	0.46719 0.42462 0.85948 -0.07200
C 	C 	0.46059 0.39111 0.87656 0.04100
C 	C 	0.42752 0.34251 0.86514 -0.03300
C 	C 	0.47892 0.37708 0.92390 -0.05100
C 	C 	0.47135 0.34595 0.94217 -0.03600
C 	C 	0.44582 0.32847 0.91251 0.01500
N 	N 	0.51834 0.45962 0.85385 -0.17200
C 	C 	0.55124 0.45537 0.83717 0.10400
C 	C 	0.55488 0.42688 0.80650 -0.05800
C 	C 	0.52265 0.41321 0.80463 -0.05700
C 	C 	0.58003 0.47300 0.86512 -0.07200
C 	C 	0.61347 0.45729 0.87498 0.04200
C 	C 	0.67492 0.45602 0.85816 -0.03100
C 	C 	0.67860 0.43384 0.90490 0.01000
C 	C 	0.64938 0.42178 0.93384 -0.03300
C 	C 	0.61690 0.43365 0.91922 -0.05300
N 	N 	0.55495 0.52662 0.84809 -0.12400
C 	C 	0.57325 0.55125 0.93189 -0.05800
C 	C 	0.55347 0.55365 0.88054 0.09200
C 	C 	0.52649 0.57795 0.87154 -0.07100
C 	C 	0.53220 0.61112 0.89205 0.04300
C 	C 	0.56280 0.62701 0.87744 -0.04900
C 	C 	0.56828 0.65823 0.89685 -0.02900
C 	C 	0.54301 0.67404 0.93025 0.01600
C 	C 	0.51230 0.65829 0.94448 -0.02700
C 	C 	0.50716 0.62678 0.92636 -0.05200
C 	C 	0.47418 0.59026 0.80807 -0.05700
C 	C 	0.44210 0.57643 0.80384 -0.05700
C 	C 	0.32062 0.55219 0.86875 -0.03200
C 	C 	0.41553 0.44841 0.91095 -0.05600
C 	C 	0.50086 0.43400 0.83422 0.10400
C 	C 	0.58810 0.52148 0.93034 -0.05800
C 	C 	0.57653 0.50730 0.87827 0.09200
C 	C 	0.64250 0.46786 0.84352 -0.04900
H 	H 	0.48185 0.52831 0.89206 0.09400
H 	H 	0.51065 0.47379 0.88992 0.09500
H 	H 	0.59198 0.67029 0.88537 0.05100
H 	H 	0.49229 0.67057 0.96892 0.04700
H 	H 	0.58224 0.61523 0.85077 0.05700
H 	H 	0.48359 0.61465 0.93838 0.04900
H 	H 	0.35413 0.60317 0.97220 0.05100
H 	H 	0.34993 0.51980 0.81460 0.05800
H 	H 	0.29629 0.54471 0.84996 0.05700
H 	H 	0.40783 0.57779 0.93773 0.04900
H 	H 	0.48521 0.33545 0.97943 0.04700
H 	H 	0.49862 0.39046 0.94710 0.04900
C 	C 	0.43498 0.37366 0.84707 -0.04800
H 	H 	0.40746 0.32931 0.84255 0.05600
H 	H 	0.69733 0.46492 0.83471 0.05700
H 	H 	0.64001 0.48582 0.80876 0.05900
H 	H 	0.59455 0.42515 0.94333 0.04900
H 	H 	0.65195 0.40404 0.96897 0.04700
H 	H 	0.47907 0.61557 0.80377 0.05900
H 	H 	0.41857 0.58955 0.79618 0.05800
H 	H 	0.38807 0.48900 0.94832 0.05600
H 	H 	0.41647 0.43298 0.94995 0.05600
H 	H 	0.57864 0.41376 0.80200 0.05700
H 	H 	0.51798 0.38798 0.79868 0.05600
H 	H 	0.56907 0.56486 0.97242 0.05500
H 	H 	0.59732 0.50868 0.96939 0.05200
H 	H 	0.42068 0.38434 0.81049 0.05800
Co	Co	0.37365 0.14837 0.00977 1.18800
Co	Co	0.37451 0.07312 0.01625 1.11300
O 	O 	0.37373 0.19683 0.00852 -0.35000
O 	O 	0.42205 0.17785 0.98126 -0.24700
O 	O 	0.32693 0.13556 0.03419 -0.38700
O 	O 	0.40550 0.09148 0.95454 -0.43600
C 	C 	0.31121 0.11105 0.00957 0.31800
C 	C 	0.40459 0.20328 0.99202 0.30500
O 	O 	0.32898 0.08884 0.98196 -0.41500
O 	O 	0.37249 0.13350 0.92801 -0.38300
C 	C 	0.39294 0.11017 0.91277 0.33100
O 	O 	0.39736 0.13984 0.08435 -0.39800
O 	O 	0.37041 0.09204 0.09708 -0.40300
C 	C 	0.39178 0.11392 0.11615 0.31600
C 	C 	0.48760 0.01927 0.56679 0.03200
C 	C 	0.50896 0.99172 0.56843 0.03300
C 	C 	0.47615 0.03136 0.51149 -0.04500
C 	C 	0.48473 0.01572 0.45795 0.03100
C 	C 	0.51804 0.97637 0.51473 -0.04500
C 	C 	0.50564 0.98790 0.45956 0.03200
H 	H 	0.53424 0.95541 0.51591 0.07200
H 	H 	0.46029 0.05255 0.51019 0.07200
C 	C 	0.51240 0.97171 0.40530 -0.01400
C 	C 	0.50173 0.98416 0.34987 0.02700
C 	C 	0.52151 0.97294 0.30069 -0.02200
C 	C 	0.54816 0.95264 0.31827 0.02700
S 	S 	0.54614 0.94811 0.39265 0.07800
H 	H 	0.51577 0.97834 0.25426 0.08700
C 	C 	0.47175 0.02626 0.40218 -0.01400
C 	C 	0.48129 0.01159 0.34835 0.02600
C 	C 	0.47743 0.03171 0.29735 -0.02200
C 	C 	0.46600 0.06236 0.31199 0.02800
S 	S 	0.46005 0.06360 0.38618 0.07500
H 	H 	0.48078 0.02369 0.25163 0.08800
C 	C 	0.48630 0.01972 0.67678 0.02800
C 	C 	0.47819 0.03386 0.62147 -0.01600
S 	S 	0.44315 0.05617 0.63164 0.08700
C 	C 	0.43717 0.04864 0.70441 0.02500
C 	C 	0.46349 0.02846 0.72366 -0.02400
C 	C 	0.52039 0.98026 0.62472 -0.01700
C 	C 	0.50758 0.99287 0.67837 0.02900
C 	C 	0.50968 0.97135 0.72755 -0.02400
C 	C 	0.52336 0.94174 0.71176 0.02600
S 	S 	0.53339 0.94303 0.63896 0.08900
H 	H 	0.50327 0.97765 0.77324 0.08000
H 	H 	0.46680 0.02139 0.77003 0.08100
Co	Co	0.61422 0.85490 0.01301 1.18500
Co	Co	0.53514 0.86871 0.02632 1.11500
O 	O 	0.66455 0.84498 0.99777 -0.36000
O 	O 	0.65465 0.89487 0.99428 -0.25100
O 	O 	0.59110 0.81387 0.02818 -0.40200
O 	O 	0.55607 0.85641 0.10411 -0.39200
C 	C 	0.56407 0.80518 0.99680 0.32000
C 	C 	0.67752 0.87288 0.98956 0.31100
O 	O 	0.53983 0.82590 0.98345 -0.41400
O 	O 	0.61120 0.87306 0.09243 -0.41600
C 	C 	0.58322 0.87115 0.12497 0.31700
O 	O 	0.59745 0.86165 0.93289 -0.39900
O 	O 	0.55871 0.89708 0.96823 -0.43700
C 	C 	0.57574 0.88483 0.92309 0.33200
Co	Co	0.12541 0.64084 0.97575 1.19000
Co	Co	0.04563 0.62861 0.98363 1.13300
O 	O 	0.17708 0.64723 0.98117 -0.35400
O 	O 	0.16342 0.59821 0.98715 -0.27200
O 	O 	0.10463 0.68319 0.96334 -0.39600
O 	O 	0.06028 0.63778 0.90022 -0.44000
C 	C 	0.07739 0.69259 0.99352 0.31800
C 	C 	0.18820 0.61850 0.98800 0.29700
O 	O 	0.05758 0.67169 0.02088 -0.37800
O 	O 	0.11642 0.62338 0.89715 -0.36000
C 	C 	0.08530 0.62177 0.87502 0.31100
O 	O 	0.11419 0.63543 0.05929 -0.39100
O 	O 	0.07245 0.59992 0.03638 -0.40800
C 	C 	0.09404 0.61196 0.07531 0.32700
C 	C 	0.03386 0.49723 0.53010 0.03400
C 	C 	0.01268 0.46953 0.52854 0.03400
C 	C 	0.04561 0.51093 0.47621 -0.04500
C 	C 	0.03558 0.49791 0.42089 0.03100
C 	C 	0.00436 0.45548 0.47332 -0.04600
C 	C 	0.01475 0.46999 0.41947 0.03700
H 	H 	0.99025 0.43324 0.47229 0.07400
H 	H 	0.06175 0.53193 0.47726 0.07400
C 	C 	0.00538 0.45712 0.36319 -0.02400
C 	C 	0.01340 0.47299 0.30946 0.03400
C 	C 	0.99075 0.46556 0.26171 -0.03300
C 	C 	0.96455 0.44466 0.27878 0.01900
S 	S 	0.97065 0.43475 0.35056 0.11600
H 	H 	0.99258 0.47598 0.21733 0.07500
C 	C 	0.04313 0.51343 0.36617 -0.01200
C 	C 	0.03305 0.50072 0.31113 0.02700
C 	C 	0.05219 0.51258 0.26186 -0.02900
C 	C 	0.07771 0.53427 0.27883 0.02700
S 	S 	0.07559 0.53851 0.35349 0.08400
H 	H 	0.04730 0.50603 0.21570 0.08500
C 	C 	0.02606 0.50002 0.63902 0.03000
C 	C 	0.04222 0.51052 0.58653 -0.02300
S 	S 	0.05567 0.54777 0.59848 0.10600
C 	C 	0.04167 0.55179 0.66903 0.02500
C 	C 	0.02582 0.52310 0.68548 -0.03100
C 	C 	0.00037 0.45678 0.58326 -0.01900
C 	C 	0.00502 0.47305 0.63744 0.02800
C 	C 	0.97995 0.46549 0.68147 -0.02600
C 	C 	0.95537 0.44379 0.66110 0.02400
S 	S 	0.96549 0.43394 0.59074 0.09800
H 	H 	0.98075 0.47410 0.72716 0.07700
H 	H 	0.01685 0.51828 0.73055 0.07600
Co	Co	0.87510 0.35997 0.97215 1.19200
Co	Co	0.88793 0.43423 0.96650 1.12100
O 	O 	0.86697 0.31223 0.96599 -0.34900
O 	O 	0.91995 0.32384 0.95703 -0.21900
O 	O 	0.83009 0.37976 0.98768 -0.39900
O 	O 	0.87840 0.41946 0.04932 -0.43700
C 	C 	0.81920 0.40458 0.95675 0.32100
C 	C 	0.89742 0.30137 0.95693 0.30500
O 	O 	0.84102 0.42401 0.93032 -0.42000
O 	O 	0.89612 0.36785 0.04935 -0.35800
C 	C 	0.89613 0.39626 0.07380 0.31300
O 	O 	0.87914 0.37127 0.88866 -0.40000
O 	O 	0.91777 0.40938 0.91214 -0.40700
C 	C 	0.90382 0.39052 0.87226 0.33300
C 	C 	0.99070 0.93195 0.08853 0.10300
N 	N 	0.97135 0.95626 0.06821 -0.17200
C 	C 	0.93925 0.95096 0.08817 0.10300
C 	C 	0.90888 0.96692 0.06173 -0.07100
C 	C 	0.91007 0.00147 0.04902 0.08800
C 	C 	0.87656 0.94910 0.05196 0.04300
C 	C 	0.87646 0.92115 0.01746 -0.05400
C 	C 	0.84567 0.90499 0.00676 -0.03300
C 	C 	0.81467 0.91713 0.02913 0.02100
C 	C 	0.84562 0.96078 0.07546 -0.04600
N 	N 	0.93164 0.02146 0.07750 -0.12300
C 	C 	0.89675 0.01537 0.99776 -0.05300
C 	C 	0.93130 0.04855 0.04489 0.08800
C 	C 	0.95694 0.07411 0.05266 -0.07000
C 	C 	0.94809 0.10719 0.03571 0.03900
C 	C 	0.91132 0.15350 0.04613 -0.03000
C 	C 	0.96810 0.12369 0.99353 -0.04800
C 	C 	0.95981 0.15506 0.97788 -0.02300
C 	C 	0.93150 0.17012 0.00441 0.00800
N 	N 	0.00985 0.04205 0.06599 -0.17200
C 	C 	0.04164 0.04814 0.08667 0.10400
C 	C 	0.04233 0.07710 0.11642 -0.05900
C 	C 	0.00939 0.08918 0.11339 -0.05600
C 	C 	0.07246 0.03125 0.06425 -0.07300
C 	C 	0.10572 0.04802 0.05882 0.04400
C 	C 	0.16642 0.05108 0.08219 -0.03300
C 	C 	0.17000 0.07695 0.04269 0.01600
C 	C 	0.14111 0.08885 0.01239 -0.03100
C 	C 	0.10913 0.07425 0.02002 -0.05500
N 	N 	0.04950 0.97703 0.08325 -0.12500
C 	C 	0.07112 0.95152 0.00288 -0.06200
C 	C 	0.05011 0.94937 0.05271 0.09200
C 	C 	0.02444 0.92394 0.06201 -0.07300
C 	C 	0.03343 0.89041 0.04851 0.04300
C 	C 	0.06406 0.87729 0.07067 -0.05000
C 	C 	0.07228 0.84551 0.05891 -0.03000
C 	C 	0.04960 0.82638 0.02609 0.01800
C 	C 	0.01931 0.83958 0.00290 -0.03400
C 	C 	0.01137 0.87156 0.01366 -0.05400
C 	C 	0.97098 0.91101 0.12215 -0.05800
C 	C 	0.93802 0.92318 0.12192 -0.05800
C 	C 	0.81482 0.94498 0.06378 -0.03000
C 	C 	0.91039 0.04563 0.99511 -0.05300
C 	C 	0.99016 0.06699 0.08200 0.10200
C 	C 	0.08457 0.98188 0.00341 -0.06200
C 	C 	0.07100 0.99659 0.05345 0.09200
C 	C 	0.13442 0.03676 0.09040 -0.04900
H 	H 	0.97735 0.97007 0.03053 0.09400
H 	H 	0.00446 0.02692 0.03003 0.09400
H 	H 	0.09607 0.83565 0.07589 0.04800
H 	H 	0.00179 0.82500 0.97710 0.05100
H 	H 	0.08134 0.89164 0.09742 0.05500
H 	H 	0.98793 0.88159 0.99552 0.05200
H 	H 	0.84589 0.88315 0.98100 0.04900
H 	H 	0.84544 0.98220 0.10247 0.06000
H 	H 	0.79102 0.95443 0.08147 0.06000
H 	H 	0.90017 0.91201 0.99889 0.05200
H 	H 	0.97550 0.16774 0.94557 0.05400
H 	H 	0.99007 0.11225 0.97304 0.05100
C 	C 	0.91959 0.12216 0.06175 -0.04900
H 	H 	0.88952 0.16503 0.06700 0.05000
H 	H 	0.18858 0.04172 0.10573 0.05300
H 	H 	0.13200 0.01666 0.12071 0.05700
H 	H 	0.08712 0.08306 0.99535 0.05400
H 	H 	0.14358 0.10898 0.98214 0.05500
H 	H 	0.97731 0.88628 0.13070 0.05700
H 	H 	0.91513 0.90927 0.13038 0.05700
H 	H 	0.88724 0.00232 0.95939 0.05600
H 	H 	0.91299 0.05952 0.95435 0.05600
H 	H 	0.06507 0.09134 0.12396 0.05700
H 	H 	0.00301 0.11418 0.11784 0.05600
H 	H 	0.06870 0.93691 0.96315 0.05800
H 	H 	0.09422 0.99427 0.96422 0.05700
H 	H 	0.90406 0.10961 0.09447 0.05700
C 	C 	0.90654 0.26774 0.96754 -0.06400
C 	C 	0.88609 0.24308 0.94395 0.10600
C 	C 	0.89475 0.21114 0.95560 -0.08200
C 	C 	0.92369 0.20369 0.99022 0.01400
C 	C 	0.94437 0.22830 0.01318 0.05300
C 	C 	0.93582 0.26022 0.00138 -0.02000
H 	H 	0.87892 0.19216 0.93770 0.06300
H 	H 	0.95165 0.27912 0.01955 0.09900
N 	N 	0.85675 0.25055 0.90730 -0.13100
N 	N 	0.97396 0.22077 0.04916 -0.13400
C 	C 	0.86552 0.24851 0.84362 -0.10300
H 	H 	0.88677 0.26521 0.83254 0.09900
H 	H 	0.84285 0.25539 0.81637 0.07600
H 	H 	0.87300 0.22377 0.83142 0.06900
C 	C 	0.96601 0.22380 0.11302 -0.09900
H 	H 	0.95945 0.24887 0.12442 0.08500
H 	H 	0.98878 0.21662 0.13975 0.07300
H 	H 	0.94439 0.20782 0.12558 0.06800
H 	H 	0.83628 0.23529 0.91733 0.09300
H 	H 	0.99461 0.23553 0.03768 0.10500
C 	C 	0.95400 0.39717 0.72949 -0.00100
C 	C 	0.93649 0.42253 0.70203 0.09700
C 	C 	0.90342 0.43101 0.72246 -0.14200
C 	C 	0.89135 0.41809 0.77674 0.07400
C 	C 	0.91101 0.39569 0.80835 -0.03000
C 	C 	0.94087 0.38289 0.78181 -0.06400
C 	C 	0.95976 0.35537 0.81110 0.77100
H 	H 	0.97884 0.39003 0.71229 0.09300
H 	H 	0.86777 0.42693 0.79641 0.05800
C 	C 	0.88246 0.45601 0.68965 0.79200
F 	F 	0.98336 0.34187 0.77233 -0.43100
F 	F 	0.93670 0.33190 0.82781 -0.44000
F 	F 	0.97693 0.36611 0.86142 -0.41300
F 	F 	0.88389 0.45091 0.62841 -0.42700
F 	F 	0.89541 0.48594 0.70224 -0.43700
F 	F 	0.84834 0.45500 0.70684 -0.43900
C 	C 	0.96293 0.40553 0.19587 -0.00200
C 	C 	0.94499 0.42517 0.23580 0.09600
C 	C 	0.90929 0.42973 0.22843 -0.14000
C 	C 	0.89300 0.41722 0.17736 0.07500
C 	C 	0.91190 0.40108 0.13333 -0.02400
C 	C 	0.94698 0.39386 0.14373 -0.07500
C 	C 	0.96749 0.37401 0.09940 0.77300
H 	H 	0.98988 0.40086 0.20392 0.09500
H 	H 	0.86587 0.42136 0.17017 0.07900
C 	C 	0.88881 0.44878 0.27389 0.79200
F 	F 	0.00163 0.37156 0.11592 -0.42800
F 	F 	0.96632 0.38779 0.04296 -0.44400
F 	F 	0.95404 0.34354 0.09681 -0.43600
F 	F 	0.90104 0.47971 0.27621 -0.43600
F 	F 	0.89184 0.43488 0.32994 -0.43200
F 	F 	0.85429 0.44996 0.25944 -0.43400
C 	C 	0.07077 0.72695 0.00159 -0.09100
C 	C 	0.07610 0.74869 0.95407 0.10700
C 	C 	0.06940 0.78127 0.96276 -0.08100
C 	C 	0.05695 0.79220 0.01797 0.00000
C 	C 	0.05109 0.77047 0.06508 0.05200
C 	C 	0.05790 0.73794 0.05657 -0.02000
H 	H 	0.07354 0.79799 0.92630 0.06100
H 	H 	0.05313 0.72125 0.09282 0.09500
N 	N 	0.08740 0.73749 0.89636 -0.13300
N 	N 	0.03669 0.78139 0.12082 -0.13300
C 	C 	0.05814 0.73279 0.85625 -0.09600
H 	H 	0.03985 0.71525 0.87577 0.07100
H 	H 	0.06741 0.72315 0.81285 0.08200
H 	H 	0.04471 0.75573 0.84748 0.06500
C 	C 	0.06238 0.78098 0.16869 -0.10000
H 	H 	0.06990 0.75612 0.18009 0.08600
H 	H 	0.05136 0.79219 0.20940 0.07500
H 	H 	0.08550 0.79482 0.15545 0.06800
H 	H 	0.10494 0.75345 0.87725 0.09300
H 	H 	0.01557 0.76732 0.13276 0.09900
C 	C 	0.05814 0.62055 0.77429 0.07400
C 	C 	0.07934 0.60567 0.81697 -0.02700
C 	C 	0.09208 0.57449 0.80582 -0.07400
C 	C 	0.08305 0.55912 0.75212 -0.00200
C 	C 	0.05871 0.57254 0.71328 0.09400
C 	C 	0.04716 0.60406 0.72285 -0.14000
C 	C 	0.02233 0.61970 0.67931 0.79200
H 	H 	0.04934 0.64466 0.78233 0.07300
H 	H 	0.09330 0.53572 0.74213 0.09100
C 	C 	0.11503 0.55740 0.85087 0.77200
F 	F 	0.01541 0.65100 0.69472 -0.43900
F 	F 	0.99170 0.60305 0.67891 -0.43100
F 	F 	0.03619 0.61965 0.62222 -0.43600
F 	F 	0.10081 0.55858 0.90770 -0.46200
F 	F 	0.14705 0.57158 0.85155 -0.44100
F 	F 	0.11929 0.52557 0.83638 -0.43700
C 	C 	0.11935 0.57278 0.14565 0.08400
C 	C 	0.09662 0.59813 0.13574 -0.02200
C 	C 	0.07339 0.60716 0.18134 -0.07200
C 	C 	0.06928 0.58721 0.23162 0.00200
C 	C 	0.08953 0.55978 0.23831 0.09700
C 	C 	0.11692 0.55424 0.19813 -0.14200
C 	C 	0.14171 0.52694 0.20839 0.79400
H 	H 	0.13783 0.56659 0.11124 0.06600
H 	H 	0.04893 0.59181 0.26356 0.09400
C 	C 	0.05145 0.63682 0.17459 0.77300
F 	F 	0.17190 0.53161 0.17690 -0.45000
F 	F 	0.12681 0.49878 0.18958 -0.43800
F 	F 	0.14993 0.52443 0.26862 -0.43700
F 	F 	0.02619 0.63148 0.13226 -0.47700
F 	F 	0.07151 0.66230 0.15644 -0.44900
F 	F 	0.03591 0.64501 0.22822 -0.43600
C 	C 	0.71421 0.87959 0.99830 -0.07800
C 	C 	0.72977 0.87660 0.05558 0.10300
C 	C 	0.76380 0.88645 0.06351 -0.07400
C 	C 	0.78192 0.90084 0.01637 -0.00000
C 	C 	0.76681 0.90316 0.95917 0.05900
C 	C 	0.73301 0.89249 0.95048 -0.01600
H 	H 	0.77552 0.88452 0.10748 0.06900
H 	H 	0.72100 0.89529 0.90691 0.08500
N 	N 	0.71081 0.86508 0.10677 -0.13700
N 	N 	0.78512 0.91831 0.91080 -0.13400
C 	C 	0.69305 0.89111 0.13743 -0.10500
H 	H 	0.71194 0.90839 0.15569 0.08800
H 	H 	0.67800 0.88130 0.17554 0.09200
H 	H 	0.67515 0.90371 0.10673 0.09300
C 	C 	0.79631 0.89484 0.86647 -0.09600
H 	H 	0.81152 0.87557 0.88812 0.06400
H 	H 	0.81291 0.90679 0.83277 0.06900
H 	H 	0.77392 0.88432 0.84279 0.07200
H 	H 	0.69414 0.84642 0.09625 0.10300
H 	H 	0.76975 0.93572 0.89045 0.10500
C 	C 	0.53513 0.88338 0.83809 0.07700
C 	C 	0.56657 0.89377 0.86138 -0.03600
C 	C 	0.58713 0.91522 0.82798 -0.06400
C 	C 	0.57363 0.92903 0.77545 -0.00400
C 	C 	0.54071 0.92082 0.75529 0.09700
C 	C 	0.52246 0.89602 0.78403 -0.14300
C 	C 	0.48818 0.88483 0.75975 0.79200
H 	H 	0.51994 0.86640 0.86343 0.04900
H 	H 	0.58782 0.94745 0.75198 0.09300
C 	C 	0.62272 0.92431 0.84958 0.77000
F 	F 	0.47845 0.85605 0.78513 -0.44100
F 	F 	0.49014 0.88064 0.69831 -0.43400
F 	F 	0.46331 0.90735 0.77233 -0.43200
F 	F 	0.64222 0.89713 0.85808 -0.44800
F 	F 	0.62026 0.94066 0.90320 -0.43300
F 	F 	0.63963 0.94355 0.80857 -0.43700
C 	C 	0.55165 0.89782 0.27686 0.00100
C 	C 	0.56402 0.92923 0.27767 0.09100
C 	C 	0.58882 0.93893 0.23511 -0.14000
C 	C 	0.59610 0.91893 0.18631 0.07000
C 	C 	0.58132 0.88848 0.18255 -0.03300
C 	C 	0.56196 0.87661 0.23162 -0.07300
C 	C 	0.55180 0.84177 0.23585 0.77500
H 	H 	0.53338 0.89014 0.31061 0.08800
H 	H 	0.61201 0.92758 0.14986 0.07300
C 	C 	0.60582 0.97137 0.23935 0.79100
F 	F 	0.54742 0.83275 0.29515 -0.43200
F 	F 	0.57689 0.82237 0.21148 -0.43700
F 	F 	0.52123 0.83702 0.20572 -0.44800
F 	F 	0.61464 0.97795 0.29816 -0.42900
F 	F 	0.58349 0.99455 0.21874 -0.42400
F 	F 	0.63551 0.97256 0.20529 -0.43300
C 	C 	0.20435 0.09052 0.03110 0.00400
C 	C 	0.22031 0.08625 0.97502 0.04900
C 	C 	0.25477 0.09518 0.96731 -0.01200
C 	C 	0.27369 0.10748 0.01551 -0.09800
C 	C 	0.25728 0.11300 0.07094 0.11400
C 	C 	0.22261 0.10466 0.07822 -0.08600
H 	H 	0.26711 0.09144 0.92432 0.06200
H 	H 	0.21030 0.10806 0.12134 0.06600
N 	N 	0.20174 0.07181 0.92634 -0.13300
N 	N 	0.27643 0.12531 0.12098 -0.11900
C 	C 	0.21004 0.03790 0.92166 -0.09800
H 	H 	0.23761 0.03447 0.91054 0.07400
H 	H 	0.19437 0.02711 0.88544 0.07100
H 	H 	0.20387 0.02528 0.96425 0.06600
C 	C 	0.26830 0.15893 0.13100 -0.09200
H 	H 	0.27347 0.17321 0.08988 0.08100
H 	H 	0.28481 0.16827 0.16751 0.10900
H 	H 	0.24102 0.16186 0.14456 0.06700
H 	H 	0.20714 0.08352 0.88589 0.09500
H 	H 	0.27144 0.11193 0.15972 0.13200
C 	C 	0.43467 0.09872 0.76285 -0.00100
C 	C 	0.41881 0.07025 0.74512 0.09700
C 	C 	0.38861 0.06000 0.77441 -0.14200
C 	C 	0.37854 0.07512 0.82771 0.07900
C 	C 	0.39691 0.10137 0.84944 -0.02800
C 	C 	0.42313 0.11508 0.81400 -0.06400
C 	C 	0.43997 0.14612 0.83240 0.76900
H 	H 	0.45718 0.10700 0.73892 0.09200
H 	H 	0.35770 0.06536 0.85425 0.05400
C 	C 	0.36898 0.03118 0.75209 0.79200
F 	F 	0.46026 0.15845 0.78694 -0.43900
F 	F 	0.46030 0.14103 0.88235 -0.43900
F 	F 	0.41508 0.16848 0.84584 -0.44600
F 	F 	0.38626 0.00369 0.76835 -0.43500
F 	F 	0.36590 0.03229 0.69028 -0.43200
F 	F 	0.33624 0.03009 0.77614 -0.44100
C 	C 	0.44595 0.11102 0.17392 0.07100
C 	C 	0.41003 0.10917 0.17336 -0.02500
C 	C 	0.39249 0.09852 0.22528 -0.07200
C 	C 	0.41121 0.08360 0.27129 0.00200
C 	C 	0.44719 0.08284 0.26937 0.09000
C 	C 	0.46474 0.09917 0.22299 -0.13700
C 	C 	0.50351 0.10226 0.22376 0.79100
H 	H 	0.45930 0.12022 0.13488 0.07700
H 	H 	0.39779 0.07180 0.30770 0.08800
C 	C 	0.35392 0.10208 0.23123 0.77500
F 	F 	0.51440 0.12645 0.18589 -0.42500
F 	F 	0.51816 0.07394 0.20520 -0.42600
F 	F 	0.51495 0.10932 0.28098 -0.42600
F 	F 	0.33779 0.07643 0.20450 -0.45300
F 	F 	0.34286 0.13004 0.20438 -0.45000
F 	F 	0.34437 0.10310 0.29101 -0.43700
C 	C 	0.43657 0.29625 0.93372 -0.00600
C 	C 	0.44894 0.26868 0.90429 0.06400
C 	C 	0.43831 0.23849 0.92383 -0.01800
C 	C 	0.41555 0.23532 0.97228 -0.06400
C 	C 	0.40388 0.26274 0.00246 0.09300
C 	C 	0.41431 0.29305 0.98273 -0.06600
H 	H 	0.44782 0.21748 0.90111 0.12100
H 	H 	0.40503 0.31413 0.00560 0.05500
N 	N 	0.47243 0.27100 0.85455 -0.12300
N 	N 	0.38187 0.25972 0.05401 -0.13000
C 	C 	0.50798 0.27253 0.87535 -0.09700
H 	H 	0.51256 0.29440 0.90210 0.06000
H 	H 	0.52540 0.27298 0.83596 0.07600
H 	H 	0.51436 0.25113 0.90272 0.08500
C 	C 	0.40178 0.26204 0.10945 -0.09800
H 	H 	0.42182 0.24319 0.11106 0.08000
H 	H 	0.38444 0.25849 0.14841 0.07900
H 	H 	0.41396 0.28593 0.11344 0.06300
H 	H 	0.46665 0.29001 0.82584 0.09400
H 	H 	0.36264 0.27713 0.05311 0.09400
C 	C 	0.28934 0.58874 0.93736 0.00300
C 	C 	0.27488 0.61637 0.91204 0.05100
C 	C 	0.24241 0.62676 0.93107 -0.01300
C 	C 	0.22389 0.60928 0.97407 -0.07700
C 	C 	0.23917 0.58209 0.00115 0.10200
C 	C 	0.27193 0.57235 0.98292 -0.06600
H 	H 	0.23119 0.64787 0.91092 0.06100
H 	H 	0.28348 0.55144 0.00326 0.06600
N 	N 	0.29333 0.63394 0.86682 -0.13300
N 	N 	0.22193 0.56448 0.04794 -0.12700
C 	C 	0.27964 0.62720 0.80708 -0.09800
H 	H 	0.28067 0.60123 0.79753 0.07200
H 	H 	0.29552 0.63965 0.77296 0.07000
H 	H 	0.25276 0.63583 0.80289 0.07300
C 	C 	0.20503 0.53607 0.02394 -0.11600
H 	H 	0.18821 0.54200 0.98524 0.12100
H 	H 	0.18905 0.52488 0.05944 0.12700
H 	H 	0.22456 0.51838 0.00958 0.09000
H 	H 	0.29219 0.65841 0.87561 0.09000
H 	H 	0.20505 0.57846 0.07312 0.11600
C 	C 	0.71318 0.42433 0.92503 0.00600
C 	C 	0.73277 0.44445 0.96279 0.04500
C 	C 	0.76722 0.43719 0.97405 -0.00100
C 	C 	0.78226 0.40992 0.94930 -0.10000
C 	C 	0.76250 0.38918 0.91383 0.11300
C 	C 	0.72795 0.39644 0.90204 -0.08400
H 	H 	0.78240 0.45299 0.00184 0.04800
H 	H 	0.71296 0.38090 0.87345 0.06300
N 	N 	0.71794 0.47235 0.99005 -0.12900
N 	N 	0.77790 0.36112 0.88834 -0.13900
C 	C 	0.70073 0.46429 0.04640 -0.09900
H 	H 	0.67894 0.44777 0.03866 0.05800
H 	H 	0.69058 0.48640 0.06710 0.06600
H 	H 	0.71916 0.45328 0.07840 0.07300
C 	C 	0.78882 0.36716 0.82654 -0.10100
H 	H 	0.76640 0.37270 0.79745 0.07200
H 	H 	0.80172 0.34557 0.80875 0.07800
H 	H 	0.80751 0.38717 0.82478 0.08600
H 	H 	0.70157 0.48473 0.96106 0.08800
H 	H 	0.76081 0.34189 0.88989 0.09200
C 	C 	0.54808 0.70763 0.94765 0.01100
C 	C 	0.55459 0.71578 0.00782 0.04300
C 	C 	0.56073 0.74776 0.02307 -0.01500
C 	C 	0.56004 0.77162 0.97893 -0.09700
C 	C 	0.55491 0.76316 0.91805 0.11300
C 	C 	0.54818 0.73137 0.90326 -0.08200
H 	H 	0.56583 0.75401 0.06937 0.07000
H 	H 	0.54393 0.72498 0.85677 0.07300
N 	N 	0.55672 0.69122 0.05292 -0.13300
N 	N 	0.55849 0.78626 0.87047 -0.13800
C 	C 	0.52742 0.69262 0.09390 -0.09900
H 	H 	0.52868 0.71432 0.12232 0.07700
H 	H 	0.52791 0.67139 0.12374 0.06900
H 	H 	0.50281 0.69237 0.06873 0.06400
C 	C 	0.59459 0.79173 0.85574 -0.09500
H 	H 	0.60909 0.80042 0.89537 0.07100
H 	H 	0.59640 0.81002 0.81975 0.08900
H 	H 	0.60651 0.76939 0.83898 0.07200
H 	H 	0.57972 0.69330 0.07681 0.09300
H 	H 	0.54563 0.80756 0.87932 0.11200
