data_crystal

_cell_length_a 41.32999
_cell_length_b 43.32298
_cell_length_c 22.85870
_cell_angle_alpha 89.93706
_cell_angle_beta  89.94812
_cell_angle_gamma 89.84892

_symmetry_space_group_name_	'P 1'
_symmetry_space_group_name_H-M	'P 1'

loop_
_symmetry_equiv_pos_as_xyz
  x,y,z

loop_
_atom_site_label
_atom_site_type_symbol
_atom_site_fract_x
_atom_site_fract_y
_atom_site_fract_z
_atom_site_charge
C 	C 	0.52066 0.53006 0.89224 0.01200
C 	C 	0.53963 0.50399 0.90856 0.01200
C 	C 	0.48672 0.52858 0.89529 -0.05300
C 	C 	0.47151 0.50130 0.91380 0.01200
C 	C 	0.52439 0.47639 0.92536 -0.05300
C 	C 	0.49044 0.47480 0.92768 0.01200
H 	H 	0.53879 0.45597 0.93408 0.05000
H 	H 	0.47222 0.54803 0.88093 0.05000
C 	C 	0.47441 0.44682 0.94040 -0.01400
C 	C 	0.44067 0.44542 0.94553 0.00200
C 	C 	0.42974 0.41968 0.97869 -0.03100
C 	C 	0.45514 0.40155 0.00045 -0.03000
S 	S 	0.48996 0.41726 0.97789 0.00700
H 	H 	0.40452 0.41353 0.98358 0.04100
C 	C 	0.43743 0.49891 0.91515 -0.01400
C 	C 	0.42203 0.47165 0.93312 0.01100
C 	C 	0.38995 0.47652 0.95381 -0.05400
C 	C 	0.38097 0.50772 0.95377 0.00300
S 	S 	0.41199 0.52821 0.92730 -0.01000
H 	H 	0.37385 0.45807 0.96672 0.04500
C 	C 	0.57037 0.55906 0.87139 0.00700
C 	C 	0.53652 0.55664 0.87070 -0.01300
S 	S 	0.52136 0.59232 0.87214 -0.00700
C 	C 	0.55616 0.61171 0.87050 -0.00300
C 	C 	0.58150 0.59015 0.87192 -0.05300
C 	C 	0.57363 0.50590 0.90380 -0.01300
C 	C 	0.58903 0.53344 0.88792 0.00700
C 	C 	0.62205 0.53466 0.90528 -0.05300
C 	C 	0.63183 0.50837 0.93654 -0.00000
S 	S 	0.60015 0.48442 0.94092 -0.00900
H 	H 	0.63843 0.55294 0.89265 0.04200
H 	H 	0.60634 0.59657 0.88040 0.04200
C 	C 	0.44239 0.30568 0.03929 -0.01400
C 	C 	0.42651 0.32818 0.07286 -0.03700
C 	C 	0.43122 0.35951 0.06083 -0.04700
C 	C 	0.45146 0.36855 0.01458 0.00400
C 	C 	0.46674 0.34596 0.98016 -0.03300
C 	C 	0.46205 0.31469 0.99228 -0.02300
H 	H 	0.41067 0.32139 0.10837 0.03600
H 	H 	0.41901 0.37674 0.08719 0.03700
H 	H 	0.48166 0.35259 0.94327 0.04100
H 	H 	0.47351 0.29743 0.96489 0.03900
C 	C 	0.28270 0.53954 0.96516 0.00100
C 	C 	0.29305 0.51429 0.99875 -0.02500
C 	C 	0.32525 0.50447 0.99610 -0.02800
C 	C 	0.34714 0.51896 0.95787 0.00800
C 	C 	0.33653 0.54401 0.92356 -0.04000
C 	C 	0.30451 0.55427 0.92741 -0.03700
H 	H 	0.27622 0.50252 0.02742 0.02400
H 	H 	0.33317 0.48562 0.02380 0.02300
H 	H 	0.35284 0.55523 0.89324 0.04200
H 	H 	0.29656 0.57349 0.90063 0.04000
C 	C 	0.73063 0.48058 0.96171 0.00500
C 	C 	0.72187 0.51178 0.96634 -0.03800
C 	C 	0.68962 0.52076 0.95867 -0.04200
C 	C 	0.66602 0.49877 0.94406 0.01200
C 	C 	0.67517 0.46767 0.93723 -0.04100
C 	C 	0.70728 0.45867 0.94618 -0.03700
H 	H 	0.73990 0.52894 0.97724 0.04000
H 	H 	0.68295 0.54475 0.96462 0.03900
H 	H 	0.65757 0.45048 0.92454 0.04200
H 	H 	0.71401 0.43462 0.94132 0.04100
C 	C 	0.55959 0.70378 0.93687 -0.00200
C 	C 	0.57152 0.67924 0.97072 -0.01800
C 	C 	0.57137 0.64920 0.94841 -0.05100
C 	C 	0.55904 0.64349 0.89225 0.01700
C 	C 	0.54725 0.66806 0.85839 -0.04500
C 	C 	0.54750 0.69809 0.88064 -0.03600
H 	H 	0.58062 0.68343 0.01442 0.02100
H 	H 	0.58015 0.63032 0.97521 0.04500
H 	H 	0.53750 0.66383 0.81517 0.04200
H 	H 	0.53794 0.71689 0.85450 0.03900
Zn	Zn	0.39717 0.11681 0.04657 1.21900
C 	C 	0.43075 0.17432 0.06092 0.31900
O 	O 	0.41551 0.12322 0.96862 -0.44900
O 	O 	0.45697 0.16047 0.04164 -0.45000
O 	O 	0.46140 0.09652 0.99012 -0.49600
C 	C 	0.42530 0.09995 0.15731 0.33200
O 	O 	0.40531 0.09157 0.11579 -0.46700
O 	O 	0.45048 0.11696 0.14437 -0.49400
C 	C 	0.44108 0.10779 0.95148 0.34000
O 	O 	0.36876 0.07380 0.00988 -0.33700
Zn	Zn	0.46849 0.11606 0.06593 1.16900
O 	O 	0.40587 0.15801 0.07904 -0.44200
C 	C 	0.34366 0.09175 0.01206 0.29100
O 	O 	0.34865 0.11921 0.03224 -0.39700
C 	C 	0.46058 0.00089 0.50600 0.01400
C 	C 	0.47950 0.97347 0.50566 0.01500
C 	C 	0.46551 0.02320 0.54962 -0.05200
C 	C 	0.48941 0.01869 0.59245 0.01400
C 	C 	0.50350 0.96896 0.54843 -0.05300
C 	C 	0.50868 0.99143 0.59173 0.01600
H 	H 	0.51802 0.94811 0.54804 0.05400
H 	H 	0.45086 0.04397 0.55015 0.05200
C 	C 	0.53301 0.98767 0.63465 -0.01400
C 	C 	0.53630 0.00886 0.68081 0.01200
C 	C 	0.55028 0.99562 0.73198 -0.04900
C 	C 	0.55776 0.96436 0.72559 0.00500
S 	S 	0.54672 0.95355 0.65844 0.00900
H 	H 	0.55112 0.00713 0.77389 0.04900
C 	C 	0.49533 0.04119 0.63575 -0.01200
C 	C 	0.51779 0.03607 0.68068 0.01100
C 	C 	0.51189 0.05452 0.73111 -0.04800
C 	C 	0.48451 0.07334 0.72569 0.00500
S 	S 	0.46803 0.06657 0.66036 0.00300
H 	H 	0.52467 0.05176 0.77205 0.04800
C 	C 	0.43275 0.98363 0.41696 0.01000
C 	C 	0.43691 0.00523 0.46223 -0.01200
S 	S 	0.42638 0.03972 0.43578 0.00400
C 	C 	0.41527 0.02901 0.36884 0.00300
C 	C 	0.41999 0.99708 0.36474 -0.04800
C 	C 	0.47331 0.95092 0.46263 -0.01300
C 	C 	0.45065 0.95595 0.41794 0.01200
C 	C 	0.45635 0.93724 0.36770 -0.05200
C 	C 	0.48396 0.91859 0.37251 0.00900
S 	S 	0.50058 0.92574 0.43753 0.00700
H 	H 	0.44329 0.93978 0.32702 0.04600
H 	H 	0.41889 0.98509 0.32335 0.04600
Zn	Zn	0.58565 0.88094 0.05696 1.21900
C 	C 	0.54864 0.82797 0.02390 0.30700
O 	O 	0.58136 0.88685 0.97148 -0.43600
O 	O 	0.52847 0.84680 0.99726 -0.43300
O 	O 	0.53591 0.91588 0.98162 -0.49600
C 	C 	0.53928 0.88885 0.15065 0.32700
O 	O 	0.56745 0.89745 0.12960 -0.45500
O 	O 	0.51798 0.87563 0.11654 -0.50300
C 	C 	0.56075 0.90699 0.95005 0.33500
O 	O 	0.62263 0.92229 0.05963 -0.32100
Zn	Zn	0.51431 0.88786 0.03544 1.16700
O 	O 	0.56915 0.83874 0.06259 -0.44800
C 	C 	0.64455 0.90100 0.06551 0.28600
O 	O 	0.63379 0.87304 0.06830 -0.39700
Zn	Zn	0.09405 0.60572 0.98684 1.22600
C 	C 	0.06085 0.66446 0.98699 0.33900
O 	O 	0.08565 0.58510 0.06221 -0.46400
O 	O 	0.03334 0.65079 0.97495 -0.44800
O 	O 	0.04173 0.61437 0.08423 -0.49300
C 	C 	0.04797 0.59362 0.89573 0.34000
O 	O 	0.07547 0.60715 0.90832 -0.45700
O 	O 	0.02901 0.58379 0.93777 -0.50100
C 	C 	0.06572 0.59668 0.10122 0.33000
O 	O 	0.12450 0.56202 0.95747 -0.32200
Zn	Zn	0.02210 0.60801 0.00819 1.16800
O 	O 	0.08508 0.64867 0.00922 -0.45600
C 	C 	0.14947 0.57984 0.96363 0.27800
O 	O 	0.14308 0.60753 0.98146 -0.37800
C 	C 	0.00075 0.48120 0.45643 0.01400
C 	C 	0.01785 0.50958 0.45662 0.01400
C 	C 	0.97639 0.47585 0.49810 -0.05300
C 	C 	0.96906 0.49838 0.54030 0.01400
C 	C 	0.00973 0.53256 0.49752 -0.05300
C 	C 	0.98549 0.52710 0.53951 0.01300
H 	H 	0.02239 0.55441 0.49703 0.05200
H 	H 	0.96344 0.45413 0.49809 0.05300
C 	C 	0.97740 0.54962 0.58171 -0.01100
C 	C 	0.95514 0.54337 0.62673 0.01100
C 	C 	0.96037 0.56182 0.67758 -0.04900
C 	C 	0.98716 0.58142 0.67308 0.01100
S 	S 	0.00327 0.57585 0.60707 -0.00200
H 	H 	0.94810 0.55803 0.71873 0.05000
C 	C 	0.94567 0.49283 0.58402 -0.01300
C 	C 	0.93895 0.51477 0.62776 0.01000
C 	C 	0.92626 0.50120 0.67995 -0.04800
C 	C 	0.92532 0.46889 0.67824 0.00200
S 	S 	0.93848 0.45808 0.61255 0.00400
H 	H 	0.92212 0.51392 0.71992 0.04500
C 	C 	0.03371 0.46336 0.37361 0.01100
C 	C 	0.00936 0.45834 0.41537 -0.01400
S 	S 	0.98355 0.43285 0.38719 0.00900
C 	C 	0.00271 0.42556 0.32449 0.00800
C 	C 	0.03036 0.44421 0.32326 -0.05200
C 	C 	0.04323 0.51396 0.41606 -0.01200
C 	C 	0.05057 0.49156 0.37351 0.01000
C 	C 	0.06559 0.50429 0.32269 -0.04900
C 	C 	0.06868 0.53642 0.32468 0.00300
S 	S 	0.05366 0.54822 0.38858 0.00500
H 	H 	0.06970 0.49140 0.28292 0.04600
H 	H 	0.04504 0.44660 0.28437 0.04600
Zn	Zn	0.90654 0.39211 0.00183 1.21800
C 	C 	0.92636 0.32819 0.99307 0.34000
O 	O 	0.92690 0.40846 0.07314 -0.45400
O 	O 	0.95175 0.33796 0.96399 -0.44600
O 	O 	0.96794 0.37340 0.07211 -0.50500
C 	C 	0.94032 0.40102 0.89342 0.33500
O 	O 	0.91459 0.38904 0.91806 -0.44800
O 	O 	0.96725 0.40336 0.92345 -0.50500
C 	C 	0.95128 0.39475 0.09939 0.32600
O 	O 	0.88531 0.44177 0.98191 -0.32800
Zn	Zn	0.97688 0.37666 0.98920 1.17700
O 	O 	0.90749 0.34782 0.02072 -0.45100
C 	C 	0.85781 0.42991 0.99733 0.30000
O 	O 	0.85871 0.40130 0.01344 -0.39900
C 	C 	0.01356 0.96940 0.01136 0.01200
C 	C 	0.02892 0.99870 0.00801 0.01500
C 	C 	0.97991 0.96762 0.01921 -0.05600
C 	C 	0.96125 0.99471 0.02188 0.00600
C 	C 	0.01031 0.02584 0.01143 -0.06300
C 	C 	0.97650 0.02404 0.01754 0.01600
H 	H 	0.02211 0.04814 0.01151 0.04600
H 	H 	0.96852 0.94537 0.02539 0.04600
C 	C 	0.95724 0.05093 0.02212 -0.03100
C 	C 	0.92336 0.04924 0.02532 0.01500
C 	C 	0.90755 0.07658 0.00569 -0.07200
C 	C 	0.92927 0.09912 0.98594 0.01000
S 	S 	0.96676 0.08527 0.99413 0.00900
H 	H 	0.88156 0.07965 0.00538 0.04200
C 	C 	0.92752 0.99362 0.03146 -0.01000
C 	C 	0.90847 0.02037 0.03050 0.00200
C 	C 	0.87519 0.01451 0.01940 -0.05500
C 	C 	0.86871 0.98314 0.01022 0.00100
S 	S 	0.90359 0.96371 0.01667 -0.01800
H 	H 	0.85648 0.03200 0.02152 0.03900
C 	C 	0.06639 0.94399 0.99990 0.02200
C 	C 	0.03286 0.94247 0.00943 -0.04100
S 	S 	0.02020 0.90822 0.98568 0.01200
C 	C 	0.05580 0.89420 0.96359 -0.00100
C 	C 	0.07946 0.91655 0.97491 -0.05500
C 	C 	0.06301 0.99970 0.00445 -0.04200
C 	C 	0.08157 0.97285 0.99837 0.02300
C 	C 	0.11319 0.97836 0.97621 -0.05400
C 	C 	0.11882 0.00966 0.96337 -0.00400
S 	S 	0.08497 0.02925 0.98012 0.01000
H 	H 	0.13172 0.96073 0.97383 0.04300
H 	H 	0.10483 0.91334 0.96476 0.04400
C 	C 	0.91299 0.19673 0.98342 0.01800
C 	C 	0.89453 0.17793 0.02053 -0.05400
C 	C 	0.89900 0.14593 0.02030 -0.05500
C 	C 	0.92186 0.13243 0.98246 0.02400
C 	C 	0.93946 0.15124 0.94391 -0.04200
C 	C 	0.93537 0.18324 0.94496 -0.04100
H 	H 	0.87739 0.18819 0.05072 0.03700
H 	H 	0.88551 0.13182 0.05085 0.03900
H 	H 	0.95687 0.14112 0.91406 0.04200
H 	H 	0.94993 0.19763 0.91651 0.04000
C 	C 	0.77510 0.94438 0.04152 -0.00800
C 	C 	0.77926 0.96692 0.99808 -0.02600
C 	C 	0.80989 0.97941 0.98769 -0.02700
C 	C 	0.83665 0.96921 0.02021 -0.00500
C 	C 	0.83250 0.94622 0.06300 -0.04000
C 	C 	0.80193 0.93359 0.07299 -0.04000
H 	H 	0.75870 0.97504 0.97299 0.04300
H 	H 	0.81283 0.99703 0.95444 0.04100
H 	H 	0.85282 0.93843 0.08906 0.03900
H 	H 	0.79900 0.91572 0.10575 0.03500
C 	C 	0.21469 0.04738 0.96942 -0.00900
C 	C 	0.20956 0.01801 0.94564 -0.03100
C 	C 	0.17816 0.00637 0.94084 -0.04700
C 	C 	0.15164 0.02366 0.96149 0.01900
C 	C 	0.15682 0.05396 0.98176 -0.05300
C 	C 	0.18817 0.06586 0.98469 -0.01200
H 	H 	0.22993 0.00397 0.93194 0.03900
H 	H 	0.17453 0.98380 0.92168 0.04100
H 	H 	0.13679 0.06815 0.99623 0.04600
H 	H 	0.19189 0.08915 0.00043 0.01900
C 	C 	0.06769 0.79634 0.96109 -0.00200
C 	C 	0.09104 0.81470 0.98856 -0.02300
C 	C 	0.08808 0.84685 0.98762 -0.03000
C 	C 	0.06227 0.86085 0.95744 0.01000
C 	C 	0.04060 0.84240 0.92580 -0.04100
C 	C 	0.04323 0.81027 0.92780 -0.03500
H 	H 	0.11071 0.80406 0.01256 0.02300
H 	H 	0.10510 0.86073 0.01208 0.02400
H 	H 	0.02105 0.85293 0.90125 0.04200
H 	H 	0.02555 0.79620 0.90530 0.04100
C 	C 	0.91923 0.29505 0.99515 -0.09700
C 	C 	0.93079 0.27627 0.04142 0.07000
C 	C 	0.92663 0.24419 0.03841 -0.09900
C 	C 	0.91180 0.23061 0.98975 0.02000
C 	C 	0.89837 0.24953 0.94544 0.00300
C 	C 	0.90227 0.28167 0.94863 -0.00200
H 	H 	0.93587 0.22964 0.07326 0.05200
H 	H 	0.89237 0.29629 0.91447 0.04200
C 	C 	0.94786 0.28998 0.09417 -0.12400
C 	C 	0.87779 0.23595 0.89707 -0.09300
C 	C 	0.98416 0.28213 0.09542 -0.01700
H 	H 	0.98772 0.25669 0.09524 0.02700
H 	H 	0.99456 0.29104 0.13692 0.03000
C 	C 	0.84306 0.23054 0.91841 -0.02400
H 	H 	0.83216 0.25283 0.93246 0.03700
H 	H 	0.84315 0.21458 0.95652 0.03700
H 	H 	0.94460 0.31532 0.09767 0.06800
H 	H 	0.88839 0.21402 0.88075 0.05100
C 	C 	0.00283 0.29630 0.04435 -0.14600
C 	C 	0.82208 0.21660 0.87033 -0.15800
H 	H 	0.00017 0.32178 0.04437 0.02000
H 	H 	0.02892 0.29060 0.04879 0.04400
H 	H 	0.99415 0.28689 0.00202 0.05300
H 	H 	0.93660 0.28029 0.13436 0.05600
H 	H 	0.82095 0.23235 0.83198 0.06100
H 	H 	0.79715 0.21307 0.88714 0.06000
H 	H 	0.83203 0.19392 0.85639 0.06100
H 	H 	0.87731 0.25192 0.85891 0.05000
C 	C 	0.93085 0.44977 0.73072 0.01600
C 	C 	0.95813 0.45441 0.76672 0.01700
C 	C 	0.96068 0.43855 0.81966 -0.00400
C 	C 	0.93807 0.41573 0.83489 -0.11000
C 	C 	0.91326 0.40811 0.79469 0.08800
C 	C 	0.90897 0.42619 0.74438 -0.08400
H 	H 	0.98068 0.44366 0.84865 0.04800
H 	H 	0.88907 0.42129 0.71499 0.05900
I 	I 	0.99803 0.48193 0.73954 -0.11700
I 	I 	0.88598 0.36664 0.80183 -0.12200
C 	C 	0.98500 0.41779 0.27064 0.01800
C 	C 	0.97904 0.38684 0.25567 0.01800
C 	C 	0.96626 0.37972 0.20063 0.00000
C 	C 	0.95998 0.40320 0.15973 -0.11200
C 	C 	0.96516 0.43431 0.17547 0.09000
C 	C 	0.97667 0.44138 0.23132 -0.08400
H 	H 	0.96212 0.35580 0.18895 0.04400
H 	H 	0.98076 0.46526 0.24313 0.06900
I 	I 	0.99046 0.35029 0.31415 -0.12300
I 	I 	0.95974 0.47103 0.11428 -0.15300
C 	C 	0.06742 0.76267 0.97053 0.02800
C 	C 	0.04876 0.74929 0.01600 -0.01300
C 	C 	0.04678 0.71704 0.02020 -0.01200
C 	C 	0.06348 0.69808 0.98085 -0.09900
C 	C 	0.08223 0.71138 0.93563 0.08200
C 	C 	0.08407 0.74365 0.93104 -0.08900
H 	H 	0.03209 0.70666 0.05425 0.03100
H 	H 	0.09779 0.75399 0.89565 0.05300
C 	C 	0.03033 0.76896 0.05996 -0.08900
C 	C 	0.09798 0.69151 0.88898 -0.12400
C 	C 	0.04466 0.76672 0.12187 -0.02500
H 	H 	0.04628 0.74222 0.13603 0.03300
H 	H 	0.02806 0.77870 0.15274 0.02800
C 	C 	0.07356 0.68319 0.84099 -0.01000
H 	H 	0.06432 0.70465 0.82003 0.03100
H 	H 	0.05269 0.67075 0.86042 0.04100
H 	H 	0.02858 0.79361 0.04711 0.04600
H 	H 	0.10836 0.67019 0.90854 0.06200
C 	C 	0.07802 0.78161 0.12643 -0.15500
C 	C 	0.08883 0.66277 0.79404 -0.16700
H 	H 	0.07675 0.80630 0.11352 0.05700
H 	H 	0.08661 0.78025 0.17237 0.05700
H 	H 	0.09572 0.76931 0.09821 0.06200
H 	H 	0.00494 0.76058 0.06172 0.04100
H 	H 	0.10903 0.67510 0.77213 0.06300
H 	H 	0.07035 0.65685 0.76066 0.06900
H 	H 	0.09813 0.64101 0.81359 0.07700
H 	H 	0.11867 0.70408 0.86897 0.05600
C 	C 	0.03635 0.59316 0.83511 -0.11500
C 	C 	0.04570 0.56942 0.79668 0.09400
C 	C 	0.03152 0.56742 0.74130 -0.08200
C 	C 	0.00727 0.58836 0.72448 0.01600
C 	C 	0.99912 0.61300 0.76177 0.01700
C 	C 	0.01360 0.61523 0.81693 -0.00400
H 	H 	0.03811 0.54857 0.71252 0.06900
H 	H 	0.00649 0.63366 0.84631 0.03300
I 	I 	0.07894 0.53474 0.82273 -0.13300
I 	I 	0.96480 0.64690 0.73610 -0.12700
C 	C 	0.06597 0.58458 0.16141 -0.11300
C 	C 	0.09477 0.58355 0.19442 0.09400
C 	C 	0.09499 0.56889 0.24908 -0.08400
C 	C 	0.06672 0.55545 0.27140 0.01800
C 	C 	0.03753 0.55790 0.23959 0.01600
C 	C 	0.03738 0.57244 0.18501 0.00100
H 	H 	0.11731 0.56747 0.27378 0.06100
H 	H 	0.01511 0.57353 0.16008 0.02400
I 	I 	0.13786 0.60511 0.16435 -0.13100
I 	I 	0.99325 0.53948 0.27183 -0.12400
C 	C 	0.74262 0.93177 0.05354 0.00800
C 	C 	0.71993 0.94816 0.08810 0.00600
C 	C 	0.68848 0.93652 0.09445 -0.01000
C 	C 	0.67944 0.90859 0.06816 -0.09300
C 	C 	0.70320 0.89075 0.03825 0.07500
C 	C 	0.73417 0.90320 0.02944 -0.08600
H 	H 	0.67072 0.94966 0.11904 0.04600
H 	H 	0.75189 0.89046 0.00403 0.04800
C 	C 	0.72879 0.97802 0.11899 -0.09500
C 	C 	0.69659 0.85810 0.01741 -0.13300
C 	C 	0.73188 0.97372 0.18550 -0.02300
H 	H 	0.70948 0.96326 0.20363 0.03400
H 	H 	0.73468 0.99682 0.20600 0.02800
C 	C 	0.67969 0.85773 0.95761 0.00100
H 	H 	0.69466 0.87033 0.92500 0.03500
H 	H 	0.65580 0.86933 0.96048 0.04900
H 	H 	0.75123 0.98872 0.10182 0.04900
H 	H 	0.68260 0.84498 0.05050 0.07200
C 	C 	0.76100 0.95387 0.20247 -0.15700
C 	C 	0.67440 0.82478 0.93609 -0.16400
H 	H 	0.78365 0.96394 0.18463 0.06000
H 	H 	0.76300 0.95292 0.25087 0.05800
H 	H 	0.75805 0.92995 0.18598 0.06200
H 	H 	0.70931 0.99522 0.11060 0.04700
H 	H 	0.69799 0.81298 0.92915 0.06000
H 	H 	0.66106 0.82523 0.89395 0.06100
H 	H 	0.65995 0.81152 0.96844 0.06400
H 	H 	0.71989 0.84532 0.01341 0.04900
C 	C 	0.56007 0.94315 0.77589 0.01800
C 	C 	0.53219 0.92904 0.79965 0.01800
C 	C 	0.53389 0.91454 0.85425 0.00300
C 	C 	0.56226 0.91593 0.88779 -0.10700
C 	C 	0.59031 0.92939 0.86349 0.08900
C 	C 	0.58927 0.94182 0.80695 -0.08200
H 	H 	0.51243 0.90376 0.87226 0.03200
H 	H 	0.61069 0.95265 0.78893 0.06100
I 	I 	0.48630 0.93164 0.75778 -0.10800
I 	I 	0.63333 0.93519 0.91285 -0.11400
C 	C 	0.53052 0.89617 0.21145 -0.11300
C 	C 	0.52941 0.92705 0.23098 0.08900
C 	C 	0.51655 0.93382 0.28609 -0.08300
C 	C 	0.50351 0.91032 0.32107 0.01800
C 	C 	0.50596 0.87941 0.30284 0.01800
C 	C 	0.51963 0.87246 0.24836 0.00100
H 	H 	0.51513 0.95760 0.30049 0.06900
H 	H 	0.52085 0.84868 0.23392 0.04000
I 	I 	0.54371 0.96437 0.17628 -0.15000
I 	I 	0.48806 0.84288 0.35562 -0.12300
C 	C 	0.24791 0.05824 0.98075 0.03500
C 	C 	0.26292 0.05359 0.03588 -0.01900
C 	C 	0.29446 0.06453 0.04487 0.00700
C 	C 	0.31096 0.08021 0.00046 -0.12100
C 	C 	0.29640 0.08414 0.94502 0.09700
C 	C 	0.26490 0.07312 0.93572 -0.09700
H 	H 	0.30632 0.06055 0.08651 0.03800
H 	H 	0.25366 0.07593 0.89319 0.05400
C 	C 	0.24634 0.03568 0.08470 -0.08600
C 	C 	0.31493 0.09838 0.89452 -0.12800
C 	C 	0.23939 0.05571 0.13882 -0.02800
H 	H 	0.26200 0.06661 0.15495 0.03700
H 	H 	0.23025 0.04053 0.17437 0.03000
C 	C 	0.33606 0.07418 0.86358 -0.01100
H 	H 	0.32033 0.05636 0.84335 0.03200
H 	H 	0.35223 0.06255 0.89559 0.04600
H 	H 	0.22359 0.02438 0.07066 0.04500
H 	H 	0.33019 0.11772 0.91020 0.06200
C 	C 	0.21413 0.08075 0.12715 -0.15400
C 	C 	0.35698 0.08884 0.81603 -0.16600
H 	H 	0.19110 0.07024 0.11222 0.05700
H 	H 	0.20933 0.09369 0.16815 0.05700
H 	H 	0.22304 0.09729 0.09372 0.06100
H 	H 	0.26270 0.01655 0.09817 0.04400
H 	H 	0.34155 0.10029 0.78265 0.06300
H 	H 	0.37167 0.07070 0.79419 0.07000
H 	H 	0.37366 0.10610 0.83544 0.07200
H 	H 	0.29774 0.10859 0.86238 0.05300
C 	C 	0.44566 0.10093 0.88930 -0.11200
C 	C 	0.45875 0.12319 0.85122 0.08700
C 	C 	0.46874 0.11450 0.79506 -0.08300
C 	C 	0.46570 0.08380 0.77660 0.01600
C 	C 	0.44947 0.06237 0.81264 0.01500
C 	C 	0.43978 0.07100 0.86891 -0.00100
H 	H 	0.48041 0.13127 0.76690 0.06100
H 	H 	0.42841 0.05419 0.89738 0.04300
I 	I 	0.46509 0.16968 0.87829 -0.13100
I 	I 	0.43948 0.01679 0.78371 -0.11200
C 	C 	0.42328 0.08505 0.21515 -0.11200
C 	C 	0.39347 0.08262 0.24492 0.09300
C 	C 	0.39137 0.06475 0.29587 -0.08300
C 	C 	0.41876 0.04961 0.31796 0.01800
C 	C 	0.44896 0.05342 0.28990 0.01700
C 	C 	0.45098 0.07105 0.23879 0.00000
H 	H 	0.36832 0.06246 0.31809 0.06100
H 	H 	0.47401 0.07314 0.21646 0.02800
I 	I 	0.35163 0.10693 0.21604 -0.13000
I 	I 	0.49207 0.03289 0.32309 -0.12400
C 	C 	0.43650 0.27258 0.05038 0.01600
C 	C 	0.45320 0.25639 0.09510 0.00100
C 	C 	0.44888 0.22438 0.10063 -0.00300
C 	C 	0.42924 0.20822 0.06130 -0.10500
C 	C 	0.41177 0.22453 0.01791 0.07000
C 	C 	0.41515 0.25667 0.01364 -0.10200
H 	H 	0.46176 0.21183 0.13449 0.03000
H 	H 	0.40170 0.26928 0.98059 0.06500
C 	C 	0.47606 0.27269 0.13688 -0.09500
C 	C 	0.38859 0.20817 0.97711 -0.09200
C 	C 	0.51172 0.26458 0.12521 -0.02200
H 	H 	0.51533 0.23916 0.12649 0.02700
H 	H 	0.52667 0.27468 0.16072 0.02600
C 	C 	0.35462 0.20655 0.00405 -0.04900
H 	H 	0.34570 0.23025 0.01366 0.03300
H 	H 	0.35542 0.19339 0.04578 0.05000
H 	H 	0.47307 0.29813 0.13672 0.05000
H 	H 	0.39735 0.18462 0.96624 0.06600
C 	C 	0.52388 0.27711 0.06674 -0.15700
C 	C 	0.33081 0.19088 0.96273 -0.14000
H 	H 	0.52011 0.30247 0.06427 0.05800
H 	H 	0.55018 0.27229 0.06247 0.05300
H 	H 	0.51120 0.26569 0.02988 0.06000
H 	H 	0.47004 0.26531 0.18219 0.04600
H 	H 	0.32811 0.20454 0.92187 0.05700
H 	H 	0.30679 0.18903 0.98423 0.06400
H 	H 	0.33942 0.16733 0.95163 0.06600
H 	H 	0.38733 0.22084 0.93478 0.05400
C 	C 	0.18284 0.56747 0.96491 -0.07500
C 	C 	0.19577 0.55001 0.91777 0.07100
C 	C 	0.22850 0.54125 0.91892 -0.08500
C 	C 	0.24836 0.54912 0.96616 0.02300
C 	C 	0.23546 0.56627 0.01343 -0.00600
C 	C 	0.20279 0.57516 0.01235 -0.02700
H 	H 	0.23862 0.52834 0.88258 0.05100
H 	H 	0.19301 0.58869 0.04815 0.05100
C 	C 	0.17532 0.54056 0.86562 -0.12300
C 	C 	0.25680 0.57744 0.06295 -0.09300
C 	C 	0.16951 0.50549 0.86357 -0.00400
H 	H 	0.19298 0.49304 0.86018 0.02600
H 	H 	0.15545 0.50004 0.82348 0.03300
C 	C 	0.27304 0.60812 0.04694 -0.02500
H 	H 	0.25420 0.62594 0.03844 0.03300
H 	H 	0.28776 0.60533 0.00659 0.02900
H 	H 	0.15196 0.55300 0.86290 0.07500
H 	H 	0.27539 0.55994 0.07448 0.04700
C 	C 	0.15094 0.49334 0.91667 -0.16800
C 	C 	0.29503 0.61939 0.09605 -0.15700
H 	H 	0.12692 0.50465 0.92006 0.08700
H 	H 	0.14713 0.46812 0.91178 0.06300
H 	H 	0.16478 0.49731 0.95758 0.07500
H 	H 	0.18851 0.54718 0.82511 0.05400
H 	H 	0.28086 0.62302 0.13681 0.05900
H 	H 	0.30624 0.64165 0.08319 0.05500
H 	H 	0.31459 0.60233 0.10448 0.05700
H 	H 	0.24194 0.58072 0.10310 0.04900
C 	C 	0.82698 0.44605 0.98725 -0.08300
C 	C 	0.81475 0.45067 0.92993 0.07700
C 	C 	0.78372 0.46342 0.92269 -0.08600
C 	C 	0.76453 0.47087 0.97127 0.02200
C 	C 	0.77702 0.46681 0.02844 -0.00900
C 	C 	0.80822 0.45452 0.03573 -0.02100
H 	H 	0.77401 0.46648 0.87900 0.05200
H 	H 	0.81755 0.45065 0.07948 0.04000
C 	C 	0.83350 0.44047 0.87596 -0.12500
C 	C 	0.75655 0.47328 0.08214 -0.09100
C 	C 	0.84605 0.46796 0.83993 -0.00500
H 	H 	0.82635 0.48500 0.83227 0.02700
H 	H 	0.85394 0.45938 0.79639 0.02900
C 	C 	0.73697 0.44468 0.09972 -0.02600
H 	H 	0.75373 0.42538 0.11049 0.03400
H 	H 	0.72132 0.43727 0.06287 0.03100
H 	H 	0.85379 0.42455 0.88612 0.07300
H 	H 	0.74015 0.49323 0.07486 0.04400
C 	C 	0.87467 0.48409 0.86884 -0.16700
C 	C 	0.71557 0.45118 0.15278 -0.15700
H 	H 	0.89505 0.46767 0.87493 0.07900
H 	H 	0.88309 0.50323 0.84034 0.06300
H 	H 	0.86745 0.49386 0.91182 0.07800
H 	H 	0.81692 0.42688 0.84772 0.05900
H 	H 	0.73057 0.45810 0.19084 0.05800
H 	H 	0.70193 0.43001 0.16454 0.05600
H 	H 	0.69796 0.46986 0.14267 0.05600
H 	H 	0.77251 0.47998 0.11917 0.04600
C 	C 	0.55154 0.79579 0.00434 -0.11900
C 	C 	0.52601 0.77446 0.01234 0.06100
C 	C 	0.52926 0.74440 0.99016 -0.06700
C 	C 	0.55775 0.73513 0.96181 0.01000
C 	C 	0.58391 0.75596 0.95671 0.00000
C 	C 	0.58031 0.78627 0.97728 0.01400
H 	H 	0.50961 0.72808 0.99542 0.05100
H 	H 	0.59987 0.80264 0.97156 0.03200
C 	C 	0.49604 0.78265 0.04761 -0.11500
C 	C 	0.61537 0.74665 0.92746 -0.09200
C 	C 	0.49800 0.77049 0.11070 -0.01400
H 	H 	0.50344 0.74534 0.11071 0.02600
H 	H 	0.47397 0.77366 0.13177 0.02400
C 	C 	0.61533 0.75586 0.86265 -0.02600
H 	H 	0.61161 0.78120 0.85850 0.03300
H 	H 	0.59524 0.74401 0.83956 0.03400
H 	H 	0.49092 0.80779 0.04799 0.04300
H 	H 	0.62001 0.72149 0.93189 0.05100
C 	C 	0.52330 0.78736 0.14732 -0.16700
C 	C 	0.64721 0.74728 0.83303 -0.15700
H 	H 	0.51894 0.81264 0.14610 0.07400
H 	H 	0.52171 0.77949 0.19347 0.06300
H 	H 	0.54804 0.78228 0.13096 0.07300
H 	H 	0.47463 0.77200 0.02630 0.04300
H 	H 	0.66770 0.75940 0.85439 0.05600
H 	H 	0.64639 0.75424 0.78629 0.05800
H 	H 	0.65129 0.72195 0.83541 0.05900
H 	H 	0.63584 0.75828 0.94995 0.04500
