data_crystal

_cell_length_a 17.97706
_cell_length_b 14.82878
_cell_length_c 44.56449
_cell_angle_alpha 90.87474
_cell_angle_beta  91.26819
_cell_angle_gamma 111.11152

_symmetry_space_group_name_	'P 1'
_symmetry_space_group_name_H-M	'P 1'

loop_
_symmetry_equiv_pos_as_xyz
  x,y,z

loop_
_atom_site_label
_atom_site_type_symbol
_atom_site_fract_x
_atom_site_fract_y
_atom_site_fract_z
_atom_site_charge
Ni	Ni	0.70969 0.29309 0.89389 1.10100
O 	O 	0.62090 0.22941 0.86193 -0.70100
Ni	Ni	0.52824 0.24628 0.88299 1.09700
O 	O 	0.78960 0.23545 0.87872 -0.37900
O 	O 	0.71440 0.10140 0.85135 -0.40300
O 	O 	0.75927 0.40814 0.86621 -0.37800
Ni	Ni	0.59573 0.08984 0.85631 1.06400
O 	O 	0.76706 0.50399 0.91826 -0.40600
O 	O 	0.60112 0.07433 0.90174 -0.41400
O 	O 	0.44108 0.17530 0.85211 -0.39000
O 	O 	0.61966 0.31969 0.91221 -0.71000
O 	O 	0.79220 0.36515 0.92627 -0.37900
O 	O 	0.44924 0.28922 0.90667 -0.36300
O 	O 	0.52867 0.44795 0.90492 -0.41000
Ni	Ni	0.64640 0.46005 0.91127 1.07200
H 	H 	0.62991 0.26240 0.84247 0.14800
H 	H 	0.61093 0.29487 0.93275 0.16900
C 	C 	0.54551 0.08254 0.91916 0.27300
O 	O 	0.65696 0.46464 0.86598 -0.42200
C 	C 	0.77751 0.18205 0.85413 0.29200
C 	C 	0.42994 0.08649 0.84322 0.28200
C 	C 	0.71946 0.45678 0.85322 0.29000
C 	C 	0.47083 0.37844 0.91727 0.28600
C 	C 	0.80327 0.45563 0.93373 0.28400
O 	O 	0.49660 0.12533 0.90954 -0.36200
O 	O 	0.47323 0.04034 0.85545 -0.40600
Ni	Ni	0.61874 0.34495 0.57124 1.09500
O 	O 	0.70723 0.36881 0.54093 -0.70600
Ni	Ni	0.76248 0.28122 0.55587 1.09800
O 	O 	0.57862 0.44552 0.55251 -0.37000
O 	O 	0.70220 0.56284 0.55502 -0.41400
O 	O 	0.53940 0.24510 0.54165 -0.37100
Ni	Ni	0.78468 0.50143 0.54311 1.06500
O 	O 	0.49590 0.15547 0.59269 -0.41300
O 	O 	0.80862 0.49203 0.58749 -0.42200
O 	O 	0.84438 0.30995 0.52291 -0.38000
O 	O 	0.67773 0.26233 0.58801 -0.69700
O 	O 	0.53332 0.31680 0.60281 -0.39300
O 	O 	0.79804 0.17092 0.56957 -0.37200
O 	O 	0.68115 0.06125 0.58477 -0.40500
Ni	Ni	0.59894 0.12885 0.58816 1.06500
H 	H 	0.68583 0.35174 0.52016 0.15800
H 	H 	0.70096 0.28553 0.60829 0.14800
C 	C 	0.86007 0.45258 0.59558 0.28800
O 	O 	0.58893 0.12323 0.54273 -0.41400
C 	C 	0.62889 0.52936 0.54398 0.28500
C 	C 	0.88440 0.39990 0.51532 0.28400
C 	C 	0.55482 0.17442 0.52797 0.28100
C 	C 	0.75812 0.10647 0.58887 0.28600
C 	C 	0.49057 0.22712 0.60919 0.28700
O 	O 	0.85245 0.36639 0.58502 -0.37400
O 	O 	0.88380 0.47291 0.53247 -0.42100
Ni	Ni	0.97810 0.93599 0.74863 1.08200
O 	O 	0.00700 0.84027 0.72273 -0.69800
Ni	Ni	0.07020 0.92744 0.69115 1.09700
O 	O 	0.91274 0.82989 0.77672 -0.38000
O 	O 	0.83681 0.73633 0.73833 -0.42200
O 	O 	0.07477 0.95654 0.77791 -0.37100
Ni	Ni	0.91085 0.74856 0.70236 1.05700
O 	O 	0.07218 0.13992 0.77488 -0.38900
O 	O 	0.87241 0.85293 0.68595 -0.42100
O 	O 	0.09514 0.82216 0.66782 -0.39000
O 	O 	0.03417 0.02328 0.71530 -0.66200
O 	O 	0.94459 0.03185 0.77202 -0.38500
O 	O 	0.15179 0.03008 0.66628 -0.36000
O 	O 	0.18482 0.16909 0.69462 -0.40000
Ni	Ni	0.11993 0.13420 0.73377 1.06800
H 	H 	0.03827 0.80762 0.73369 0.15500
H 	H 	0.99733 0.04686 0.70395 0.12900
C 	C 	0.91146 0.91224 0.66527 0.28700
O 	O 	0.17547 0.04441 0.74751 -0.42400
C 	C 	0.86372 0.74565 0.76625 0.28100
C 	C 	0.03526 0.74079 0.66096 0.31900
C 	C 	0.15105 0.98932 0.77081 0.27400
C 	C 	0.20642 0.10852 0.67816 0.28300
C 	C 	0.99511 0.11863 0.77878 0.24900
O 	O 	0.98440 0.91945 0.65887 -0.38800
O 	O 	0.96132 0.73736 0.66292 -0.43700
Ni	Ni	0.25298 0.70827 0.40309 1.09800
O 	O 	0.34243 0.75806 0.37287 -0.70400
Ni	Ni	0.43619 0.75442 0.39805 1.09700
O 	O 	0.16817 0.73799 0.37795 -0.36500
O 	O 	0.24574 0.88110 0.35835 -0.40300
O 	O 	0.21098 0.57610 0.38087 -0.37100
Ni	Ni	0.36500 0.89286 0.36200 1.06300
O 	O 	0.20038 0.51433 0.43564 -0.40600
O 	O 	0.36812 0.93679 0.40587 -0.41200
O 	O 	0.52117 0.80648 0.36686 -0.38500
O 	O 	0.34559 0.70069 0.42740 -0.70600
O 	O 	0.16989 0.65168 0.43467 -0.37900
O 	O 	0.51787 0.73067 0.42703 -0.36300
O 	O 	0.44013 0.57332 0.43338 -0.41000
Ni	Ni	0.32197 0.56198 0.43369 1.06500
H 	H 	0.33446 0.71641 0.35470 0.14900
H 	H 	0.35418 0.73830 0.44654 0.15600
C 	C 	0.42595 0.93818 0.42462 0.27800
O 	O 	0.31687 0.52960 0.38904 -0.42000
C 	C 	0.18430 0.79885 0.35575 0.27900
C 	C 	0.52744 0.88483 0.35205 0.28200
C 	C 	0.25639 0.52914 0.37206 0.29000
C 	C 	0.49789 0.65195 0.44291 0.28100
C 	C 	0.15937 0.56603 0.44571 0.29100
O 	O 	0.47283 0.89032 0.41802 -0.37000
O 	O 	0.48709 0.93949 0.36048 -0.40800
Ni	Ni	0.35609 0.67530 0.05855 1.09600
O 	O 	0.25866 0.65638 0.03069 -0.70100
Ni	Ni	0.20240 0.73025 0.05372 1.09700
O 	O 	0.39476 0.58267 0.03428 -0.36900
O 	O 	0.27363 0.46259 0.02944 -0.40500
O 	O 	0.42901 0.78007 0.03105 -0.37100
Ni	Ni	0.18539 0.52115 0.02693 1.07000
O 	O 	0.48008 0.86372 0.08477 -0.41600
O 	O 	0.17570 0.50861 0.07212 -0.42100
O 	O 	0.10967 0.70749 0.02371 -0.37100
O 	O 	0.29984 0.74923 0.08161 -0.70000
O 	O 	0.45036 0.70132 0.08805 -0.38600
O 	O 	0.16520 0.82536 0.07748 -0.36200
O 	O 	0.28668 0.94511 0.08264 -0.41600
Ni	Ni	0.37412 0.88508 0.08312 1.06300
H 	H 	0.27322 0.68414 0.01068 0.15800
H 	H 	0.28547 0.72316 0.10187 0.15000
C 	C 	0.12618 0.54007 0.08599 0.29700
O 	O 	0.37426 0.89523 0.03771 -0.41900
C 	C 	0.34444 0.50853 0.01907 0.28500
C 	C 	0.07349 0.62113 0.01133 0.28100
C 	C 	0.41303 0.85444 0.02109 0.28900
C 	C 	0.21537 0.89969 0.09268 0.28500
C 	C 	0.49025 0.79005 0.09802 0.28500
O 	O 	0.12599 0.62752 0.08117 -0.36500
O 	O 	0.08105 0.54489 0.02367 -0.40900
Ni	Ni	0.96975 0.05818 0.26068 1.08800
O 	O 	0.96770 0.15654 0.22981 -0.72600
Ni	Ni	0.91350 0.07060 0.19495 1.09000
O 	O 	0.02812 0.16743 0.29091 -0.36200
O 	O 	0.12985 0.22840 0.25866 -0.41700
O 	O 	0.86271 0.05517 0.27764 -0.38700
Ni	Ni	0.07534 0.23321 0.21743 1.06900
O 	O 	0.87700 0.82901 0.27501 -0.42800
O 	O 	0.10454 0.11745 0.20458 -0.41500
O 	O 	0.90930 0.17985 0.16821 -0.37600
O 	O 	0.92968 0.97059 0.22368 -0.69600
O 	O 	0.97799 0.96411 0.29166 -0.40400
O 	O 	0.83561 0.97213 0.16549 -0.37700
O 	O 	0.78305 0.83246 0.19088 -0.40600
Ni	Ni	0.83871 0.85368 0.23335 1.06400
H 	H 	0.93786 0.19760 0.23635 0.15300
H 	H 	0.97317 0.94966 0.21713 0.13400
C 	C 	0.07391 0.06737 0.17994 0.29200
O 	O 	0.77457 0.93189 0.24887 -0.42500
C 	C 	0.09661 0.23364 0.28423 0.28500
C 	C 	0.97541 0.25704 0.16579 0.24900
C 	C 	0.79350 0.98253 0.27423 0.29300
C 	C 	0.77294 0.89994 0.17421 0.28300
C 	C 	0.95085 0.87154 0.28549 0.28700
O 	O 	0.00453 0.06388 0.16911 -0.35400
O 	O 	0.04512 0.25332 0.17437 -0.38500
C 	C 	0.05977 0.50013 0.13501 -0.03300
C 	C 	0.06468 0.47370 0.10501 -0.08700
C 	C 	0.01355 0.38138 0.09398 0.09100
C 	C 	0.96947 0.31216 0.11432 -0.06200
C 	C 	0.97664 0.33385 0.14517 -0.09700
C 	C 	0.01351 0.43129 0.15498 0.07600
C 	C 	0.01197 0.45951 0.18750 -0.15000
H 	H 	0.09475 0.57271 0.14317 0.03700
H 	H 	0.93583 0.23887 0.10643 0.05200
C 	C 	0.00228 0.35802 0.06077 -0.12100
H 	H 	0.01795 0.53654 0.18985 0.05400
H 	H 	0.06197 0.44897 0.20018 0.02900
H 	H 	0.95466 0.41493 0.19748 0.02600
H 	H 	0.05972 0.36493 0.05057 0.03700
H 	H 	0.97634 0.40702 0.04980 0.04500
H 	H 	0.96049 0.28275 0.05616 0.03500
C 	C 	0.55626 0.82671 0.14842 -0.03900
C 	C 	0.56123 0.80869 0.11771 -0.09800
C 	C 	0.63586 0.82018 0.10551 0.08700
C 	C 	0.70478 0.85164 0.12421 -0.04200
C 	C 	0.70006 0.87139 0.15486 -0.08300
C 	C 	0.62526 0.85884 0.16709 0.06200
C 	C 	0.61891 0.88122 0.19983 -0.18800
H 	H 	0.49885 0.81813 0.15764 0.01900
H 	H 	0.76215 0.86025 0.11494 0.05100
C 	C 	0.64245 0.80092 0.07252 -0.20100
H 	H 	0.55765 0.87657 0.20530 0.05500
H 	H 	0.66023 0.95583 0.20561 0.06100
H 	H 	0.63440 0.82899 0.21388 0.06500
H 	H 	0.62593 0.85360 0.05903 0.08600
H 	H 	0.60203 0.72642 0.06610 0.08700
H 	H 	0.70407 0.80761 0.06685 0.06900
C 	C 	0.14694 0.08024 0.13319 -0.04300
C 	C 	0.12451 0.03474 0.16062 -0.08300
C 	C 	0.13811 0.94865 0.16660 0.06500
C 	C 	0.16688 0.90461 0.14387 -0.03600
C 	C 	0.18480 0.94727 0.11581 -0.10200
C 	C 	0.17531 0.03616 0.11042 0.09200
C 	C 	0.19442 0.08369 0.08040 -0.20100
H 	H 	0.13809 0.14762 0.12901 0.05300
H 	H 	0.17503 0.83678 0.14797 0.02700
C 	C 	0.11733 0.90019 0.19637 -0.18600
H 	H 	0.17225 0.14432 0.07834 0.07500
H 	H 	0.16574 0.03068 0.06189 0.08900
H 	H 	0.26000 0.11301 0.07769 0.08100
H 	H 	0.05210 0.85949 0.19684 0.05300
H 	H 	0.13554 0.95442 0.21516 0.06200
H 	H 	0.14861 0.84876 0.20016 0.05500
C 	C 	0.67375 0.94378 0.34506 -0.04000
C 	C 	0.59703 0.92665 0.33294 -0.08200
C 	C 	0.58695 0.94134 0.30212 0.05800
C 	C 	0.65326 0.96714 0.28355 -0.03300
C 	C 	0.72895 0.97602 0.29519 -0.09600
C 	C 	0.73985 0.96788 0.32644 0.07900
C 	C 	0.82143 0.98455 0.34004 -0.20100
H 	H 	0.68164 0.93560 0.36893 0.05300
H 	H 	0.64560 0.97803 0.25989 0.03700
C 	C 	0.50541 0.92642 0.28875 -0.17900
H 	H 	0.81858 0.96628 0.36418 0.06700
H 	H 	0.86004 0.06175 0.33815 0.08300
H 	H 	0.84895 0.93854 0.32831 0.08200
H 	H 	0.48057 0.97646 0.29987 0.04200
H 	H 	0.46473 0.85065 0.29185 0.04000
H 	H 	0.50760 0.94054 0.26431 0.05200
C 	C 	0.16070 0.40535 0.29911 -0.03400
C 	C 	0.14050 0.30827 0.30651 -0.09800
C 	C 	0.16686 0.28395 0.33426 0.08600
C 	C 	0.20867 0.35779 0.35501 -0.03800
C 	C 	0.22595 0.45509 0.34809 -0.08700
C 	C 	0.20413 0.47917 0.31950 0.07100
C 	C 	0.22933 0.58304 0.31026 -0.18900
H 	H 	0.14254 0.42340 0.27733 0.01700
H 	H 	0.22561 0.33949 0.37695 0.04300
C 	C 	0.14910 0.17973 0.34211 -0.20000
H 	H 	0.20980 0.58909 0.28679 0.05500
H 	H 	0.29534 0.61711 0.31158 0.04500
H 	H 	0.20244 0.62327 0.32499 0.06700
H 	H 	0.16527 0.14048 0.32343 0.08000
H 	H 	0.08465 0.14417 0.34654 0.09300
H 	H 	0.18373 0.17371 0.36245 0.07200
C 	C 	0.06919 0.82500 0.28600 -0.00700
C 	C 	0.99512 0.81387 0.29820 -0.13100
C 	C 	0.97815 0.77569 0.32715 0.06200
C 	C 	0.04011 0.76815 0.34549 -0.01500
C 	C 	0.11774 0.79351 0.33468 -0.08000
C 	C 	0.13103 0.81561 0.30405 0.05500
C 	C 	0.21201 0.83607 0.29098 -0.17600
H 	H 	0.08113 0.84996 0.26324 0.01600
H 	H 	0.02854 0.74632 0.36856 0.05800
C 	C 	0.89616 0.75081 0.33964 -0.19000
H 	H 	0.20730 0.82612 0.26615 0.05100
H 	H 	0.24026 0.78623 0.29987 0.03500
H 	H 	0.25106 0.91182 0.29657 0.04600
H 	H 	0.84923 0.71978 0.32184 0.07400
H 	H 	0.89025 0.81665 0.34972 0.06900
H 	H 	0.88585 0.69589 0.35730 0.06100
C 	C 	0.51796 0.13801 0.49829 -0.07700
C 	C 	0.43583 0.08365 0.49613 -0.02300
C 	C 	0.40362 0.02064 0.47145 0.03900
C 	C 	0.45357 0.01498 0.44809 -0.07100
C 	C 	0.53354 0.07753 0.44874 -0.02400
C 	C 	0.56631 0.13739 0.47385 0.04100
S 	S 	0.30228 0.94520 0.47105 -0.07700
S 	S 	0.66899 0.20705 0.47509 -0.09000
H 	H 	0.70989 0.15540 0.48836 0.03900
H 	H 	0.25783 0.99016 0.45650 0.04300
H 	H 	0.39816 0.08486 0.51469 0.04800
H 	H 	0.57139 0.07606 0.43027 0.05400
C 	C 	0.08729 0.51646 0.46251 -0.08800
C 	C 	0.09513 0.48037 0.49078 -0.02600
C 	C 	0.02755 0.43080 0.50703 0.06200
C 	C 	0.95107 0.41830 0.49514 -0.09300
C 	C 	0.94294 0.44752 0.46589 -0.06800
C 	C 	0.01054 0.49619 0.44943 0.09400
S 	S 	0.03937 0.38745 0.54273 -0.02100
S 	S 	0.99819 0.52935 0.41236 -0.07500
H 	H 	0.99986 0.45803 0.39277 0.04100
H 	H 	0.04711 0.45777 0.56413 0.04900
H 	H 	0.15398 0.49173 0.50028 0.02500
H 	H 	0.88407 0.43642 0.45647 0.03600
C 	C 	0.60462 0.58266 0.52046 -0.09100
C 	C 	0.64788 0.60450 0.49400 -0.02400
C 	C 	0.61739 0.63722 0.46896 0.03700
C 	C 	0.54324 0.64905 0.47046 -0.08100
C 	C 	0.50450 0.63722 0.49791 -0.03200
C 	C 	0.53453 0.60371 0.52286 0.04300
S 	S 	0.67078 0.65889 0.43553 -0.04800
S 	S 	0.48429 0.58930 0.55695 -0.05200
H 	H 	0.51463 0.67334 0.57380 0.03300
H 	H 	0.64669 0.57587 0.41811 0.03500
H 	H 	0.70321 0.59128 0.49239 0.00200
H 	H 	0.44857 0.64911 0.49936 0.01400
C 	C 	0.87995 0.95926 0.61482 -0.04800
C 	C 	0.86969 0.95981 0.64594 -0.09600
C 	C 	0.82428 0.01124 0.65830 0.06700
C 	C 	0.79116 0.06221 0.63924 -0.04000
C 	C 	0.80152 0.06153 0.60819 -0.09700
C 	C 	0.84532 0.00851 0.59577 0.08800
C 	C 	0.85554 0.00434 0.56230 -0.18100
H 	H 	0.91459 0.91967 0.60538 0.04800
H 	H 	0.75586 0.10118 0.64854 0.01600
C 	C 	0.80793 0.00891 0.69142 -0.17200
H 	H 	0.88336 0.95112 0.55605 0.05600
H 	H 	0.89456 0.07639 0.55462 0.08000
H 	H 	0.79671 0.98212 0.55026 0.07400
H 	H 	0.86409 0.02853 0.70502 0.04200
H 	H 	0.76715 0.93556 0.69732 0.06200
H 	H 	0.77917 0.06114 0.69774 0.05000
C 	C 	0.41829 0.15576 0.65494 -0.03400
C 	C 	0.42155 0.20792 0.62868 -0.09900
C 	C 	0.35554 0.23283 0.61978 0.08900
C 	C 	0.28680 0.20339 0.63706 -0.04200
C 	C 	0.28254 0.14814 0.66266 -0.07700
C 	C 	0.34932 0.12607 0.67213 0.05800
C 	C 	0.34687 0.06985 0.70025 -0.17400
H 	H 	0.46901 0.13681 0.66171 0.01700
H 	H 	0.23568 0.22130 0.63012 0.05200
C 	C 	0.35761 0.28943 0.59174 -0.20200
H 	H 	0.40508 0.06233 0.70541 0.05500
H 	H 	0.30079 0.99622 0.69749 0.04900
H 	H 	0.33232 0.10758 0.71970 0.06400
H 	H 	0.37262 0.25276 0.57213 0.08900
H 	H 	0.40284 0.36351 0.59471 0.08700
H 	H 	0.29905 0.29605 0.58662 0.07100
C 	C 	0.02065 0.57213 0.65435 0.00600
C 	C 	0.04797 0.66536 0.64262 -0.13000
C 	C 	0.04307 0.67278 0.61127 0.13500
C 	C 	0.98350 0.59915 0.59491 -0.09200
C 	C 	0.93726 0.51455 0.60933 -0.06500
C 	C 	0.96168 0.49645 0.63825 0.02100
C 	C 	0.92115 0.40063 0.65276 -0.17200
H 	H 	0.03384 0.56280 0.67771 0.01600
H 	H 	0.97001 0.61014 0.57175 0.04100
C 	C 	0.08844 0.76627 0.59645 -0.21900
H 	H 	0.95243 0.39517 0.67406 0.04200
H 	H 	0.92096 0.34062 0.63751 0.06800
H 	H 	0.85873 0.39179 0.65782 0.04800
H 	H 	0.14685 0.80345 0.60829 0.08700
H 	H 	0.05322 0.81430 0.59687 0.09200
H 	H 	0.10021 0.75258 0.57276 0.07500
C 	C 	0.87313 0.51068 0.95256 -0.07500
C 	C 	0.86261 0.53591 0.98213 -0.02600
C 	C 	0.92886 0.58335 0.00102 0.01200
C 	C 	0.00642 0.60549 0.99024 -0.05200
C 	C 	0.01656 0.58788 0.95993 -0.00600
C 	C 	0.95046 0.54007 0.94107 0.01500
S 	S 	0.91420 0.61141 0.03845 -0.04100
S 	S 	0.96540 0.51655 0.90327 -0.04100
H 	H 	0.97425 0.59738 0.88708 0.03000
H 	H 	0.91319 0.53690 0.05644 0.03600
H 	H 	0.80295 0.51659 0.99065 0.03000
H 	H 	0.07621 0.60616 0.95148 0.02800
C 	C 	0.52273 0.02000 0.94541 -0.06100
C 	C 	0.47248 0.92294 0.94114 -0.03300
C 	C 	0.43992 0.86592 0.96582 0.04400
C 	C 	0.45603 0.90710 0.99510 -0.08400
C 	C 	0.51027 0.00223 0.99942 -0.01000
C 	C 	0.54460 0.05823 0.97480 0.03100
S 	S 	0.37890 0.74377 0.95968 -0.07400
S 	S 	0.61712 0.17423 0.98116 -0.07600
H 	H 	0.69137 0.16809 0.98222 0.03500
H 	H 	0.42427 0.68696 0.96189 0.04500
H 	H 	0.45725 0.89244 0.91857 0.04400
H 	H 	0.52535 0.03291 0.02197 0.03600
C 	C 	0.43436 0.39974 0.94429 -0.08500
C 	C 	0.35912 0.40751 0.94188 -0.02000
C 	C 	0.32866 0.44248 0.96622 0.04400
C 	C 	0.37262 0.46620 0.99375 -0.08500
C 	C 	0.44637 0.45467 0.99645 -0.01700
C 	C 	0.47796 0.42298 0.97187 0.03800
S 	S 	0.23855 0.46299 0.96121 -0.12100
S 	S 	0.57282 0.41453 0.97583 -0.11000
H 	H 	0.63014 0.50024 0.96822 -0.01100
H 	H 	0.17610 0.38253 0.96922 0.02600
H 	H 	0.32586 0.39051 0.92064 0.04700
H 	H 	0.48000 0.47221 0.01761 0.04800
C 	C 	0.85070 0.22026 0.80661 -0.02900
C 	C 	0.84769 0.19005 0.83633 -0.09900
C 	C 	0.91164 0.16683 0.84869 0.10100
C 	C 	0.97302 0.16461 0.83005 -0.08300
C 	C 	0.96809 0.17841 0.79914 -0.07000
C 	C 	0.91226 0.21764 0.78817 0.05200
C 	C 	0.91228 0.24550 0.75580 -0.17800
H 	H 	0.80398 0.24308 0.79756 0.02300
H 	H 	0.01941 0.14093 0.83891 0.07600
C 	C 	0.91350 0.14151 0.88130 -0.20400
H 	H 	0.88608 0.30240 0.75314 0.05000
H 	H 	0.87668 0.18113 0.74184 0.05100
H 	H 	0.97411 0.27467 0.74755 0.03500
H 	H 	0.85696 0.08284 0.88690 0.08300
H 	H 	0.92203 0.20631 0.89575 0.08300
H 	H 	0.96315 0.11584 0.88656 0.06200
C 	C 	0.28219 0.02520 0.84064 -0.04700
C 	C 	0.35370 0.03021 0.82752 -0.06700
C 	C 	0.35216 0.99616 0.79769 0.04700
C 	C 	0.28091 0.96949 0.78030 -0.03000
C 	C 	0.21214 0.97908 0.79208 -0.10800
C 	C 	0.21122 0.00022 0.82321 0.09600
C 	C 	0.13634 0.00072 0.83773 -0.19300
H 	H 	0.28285 0.04668 0.86404 0.05800
H 	H 	0.28057 0.94813 0.75690 0.02900
C 	C 	0.42737 0.99541 0.78357 -0.19000
H 	H 	0.14512 0.01336 0.86241 0.07400
H 	H 	0.08741 0.92972 0.83391 0.08400
H 	H 	0.11866 0.05933 0.82846 0.09200
H 	H 	0.45761 0.95871 0.79834 0.04500
H 	H 	0.46825 0.07079 0.78004 0.05000
H 	H 	0.41451 0.95610 0.76151 0.05400
C 	C 	0.83938 0.56727 0.82852 -0.03900
C 	C 	0.75615 0.52098 0.82836 -0.09300
C 	C 	0.70890 0.54174 0.80563 0.06800
C 	C 	0.74472 0.61712 0.78595 -0.04100
C 	C 	0.82761 0.66687 0.78719 -0.09700
C 	C 	0.87569 0.63851 0.80770 0.06600
C 	C 	0.96552 0.68502 0.80794 -0.18400
H 	H 	0.87592 0.54899 0.84522 0.05100
H 	H 	0.70805 0.63697 0.76962 0.04200
C 	C 	0.62065 0.48442 0.80222 -0.18600
H 	H 	0.99409 0.64189 0.82078 0.05500
H 	H 	0.98447 0.75826 0.81860 0.07000
H 	H 	0.98776 0.69052 0.78473 0.04300
H 	H 	0.58767 0.51304 0.81824 0.07300
H 	H 	0.60771 0.40662 0.80634 0.05300
H 	H 	0.59817 0.48939 0.77910 0.05700
