data_crystal

_cell_length_a 18.55244
_cell_length_b 15.44388
_cell_length_c 42.33272
_cell_angle_alpha 90.91069
_cell_angle_beta  91.29108
_cell_angle_gamma 111.10452

_symmetry_space_group_name_	'P 1'
_symmetry_space_group_name_H-M	'P 1'

loop_
_symmetry_equiv_pos_as_xyz
  x,y,z

loop_
_atom_site_label
_atom_site_type_symbol
_atom_site_fract_x
_atom_site_fract_y
_atom_site_fract_z
_atom_site_charge
Ni	Ni	0.71445 0.30370 0.89382 1.10000
O 	O 	0.62874 0.25156 0.85960 -0.70200
Ni	Ni	0.53876 0.26563 0.88227 1.09900
O 	O 	0.79505 0.26328 0.87201 -0.36000
O 	O 	0.71633 0.12253 0.85165 -0.39200
O 	O 	0.76226 0.42441 0.86921 -0.36900
Ni	Ni	0.60220 0.11816 0.85113 1.06700
O 	O 	0.77026 0.49709 0.92694 -0.39300
O 	O 	0.59655 0.09029 0.89825 -0.41000
O 	O 	0.45763 0.20902 0.84736 -0.38100
O 	O 	0.62574 0.32205 0.91547 -0.70500
O 	O 	0.79372 0.36150 0.92931 -0.37600
O 	O 	0.46056 0.30220 0.90799 -0.35500
O 	O 	0.54089 0.45274 0.91411 -0.39700
Ni	Ni	0.65316 0.45725 0.92015 1.07200
H 	H 	0.63909 0.28692 0.83986 0.15500
H 	H 	0.61559 0.29078 0.93602 0.15900
C 	C 	0.53761 0.09122 0.91470 0.28100
O 	O 	0.66269 0.47653 0.87291 -0.41100
C 	C 	0.77864 0.19818 0.84979 0.27800
C 	C 	0.44322 0.12420 0.83627 0.28600
C 	C 	0.72379 0.47501 0.85848 0.28800
C 	C 	0.48204 0.38232 0.92346 0.28100
C 	C 	0.80596 0.44618 0.94024 0.28000
O 	O 	0.49719 0.14221 0.90603 -0.36400
O 	O 	0.48368 0.07484 0.84691 -0.39500
Ni	Ni	0.61151 0.33218 0.56747 1.10000
O 	O 	0.69851 0.34326 0.53680 -0.69800
Ni	Ni	0.76738 0.29474 0.56233 1.10100
O 	O 	0.56860 0.41795 0.54304 -0.36000
O 	O 	0.68903 0.52634 0.54046 -0.40900
O 	O 	0.53652 0.22303 0.54038 -0.36000
Ni	Ni	0.75880 0.46412 0.52002 1.07700
O 	O 	0.50393 0.15297 0.59802 -0.39900
O 	O 	0.84681 0.52931 0.55253 -0.39000
O 	O 	0.86249 0.32376 0.53399 -0.36700
O 	O 	0.67527 0.27326 0.59132 -0.70000
O 	O 	0.52645 0.30950 0.59944 -0.37500
O 	O 	0.81404 0.22423 0.59217 -0.35700
O 	O 	0.70292 0.09633 0.59035 -0.40000
Ni	Ni	0.61083 0.14207 0.59456 1.06600
H 	H 	0.67803 0.30040 0.51850 0.16900
H 	H 	0.69116 0.30321 0.61248 0.15800
C 	C 	0.87220 0.48923 0.57523 0.28200
O 	O 	0.59627 0.11858 0.54709 -0.40300
C 	C 	0.61554 0.49680 0.53223 0.28100
C 	C 	0.87839 0.38285 0.51041 0.29100
C 	C 	0.55395 0.15268 0.52981 0.28700
C 	C 	0.77287 0.14123 0.60223 0.27500
C 	C 	0.48950 0.22509 0.60977 0.27500
O 	O 	0.82461 0.41410 0.58812 -0.38400
O 	O 	0.82404 0.40601 0.49632 -0.40500
Ni	Ni	0.98620 0.93231 0.74786 1.08900
O 	O 	0.01520 0.84376 0.71935 -0.69600
Ni	Ni	0.06909 0.92829 0.68505 1.10300
O 	O 	0.93223 0.82757 0.77813 -0.36600
O 	O 	0.85271 0.73965 0.73869 -0.40000
O 	O 	0.08479 0.96159 0.77666 -0.35200
Ni	Ni	0.92146 0.75134 0.69973 1.06500
O 	O 	0.06791 0.13548 0.77253 -0.37500
O 	O 	0.87680 0.84588 0.68307 -0.40200
O 	O 	0.09482 0.82986 0.65949 -0.37000
O 	O 	0.03203 0.01697 0.71157 -0.66500
O 	O 	0.95070 0.01874 0.77417 -0.36900
O 	O 	0.14346 0.02910 0.65790 -0.35400
O 	O 	0.17220 0.16350 0.68689 -0.38200
Ni	Ni	0.11250 0.12979 0.72886 1.07500
H 	H 	0.04880 0.81509 0.73001 0.16300
H 	H 	0.99184 0.03490 0.70087 0.13800
C 	C 	0.91137 0.90518 0.66137 0.28200
O 	O 	0.17375 0.05093 0.74235 -0.42000
C 	C 	0.88017 0.74842 0.76790 0.27600
C 	C 	0.03817 0.74976 0.65273 0.30900
C 	C 	0.15717 0.00061 0.76767 0.27900
C 	C 	0.19519 0.10600 0.67016 0.27700
C 	C 	0.99287 0.10685 0.77746 0.24800
O 	O 	0.98117 0.91415 0.65280 -0.37700
O 	O 	0.96583 0.74158 0.65697 -0.42200
Ni	Ni	0.24804 0.68172 0.39511 1.10200
O 	O 	0.33580 0.74585 0.36539 -0.70500
Ni	Ni	0.42662 0.74426 0.39064 1.10400
O 	O 	0.16948 0.69173 0.36217 -0.36100
O 	O 	0.23230 0.84902 0.35897 -0.39500
O 	O 	0.24676 0.56349 0.37244 -0.39700
Ni	Ni	0.35084 0.87407 0.35690 1.06900
O 	O 	0.23398 0.59783 0.46653 -0.40400
O 	O 	0.36334 0.91566 0.40355 -0.39800
O 	O 	0.50559 0.79598 0.35686 -0.37200
O 	O 	0.34081 0.69907 0.42292 -0.69900
O 	O 	0.15849 0.60694 0.42331 -0.36900
O 	O 	0.50556 0.70880 0.41692 -0.36100
O 	O 	0.41578 0.56445 0.42180 -0.40700
Ni	Ni	0.32367 0.58189 0.44405 1.07600
H 	H 	0.33103 0.71040 0.34526 0.16200
H 	H 	0.34532 0.74763 0.43916 0.16400
C 	C 	0.42482 0.92073 0.42065 0.28100
O 	O 	0.24533 0.47903 0.41647 -0.39000
C 	C 	0.17761 0.77091 0.34876 0.27200
C 	C 	0.51091 0.87332 0.34241 0.27500
C 	C 	0.23185 0.48376 0.38611 0.30600
C 	C 	0.48573 0.62456 0.42779 0.27500
C 	C 	0.16551 0.57953 0.45246 0.29400
O 	O 	0.46806 0.87363 0.41214 -0.36600
O 	O 	0.46894 0.92307 0.35141 -0.39500
Ni	Ni	0.36143 0.68941 0.06060 1.09800
O 	O 	0.26129 0.65845 0.03387 -0.70000
Ni	Ni	0.20679 0.73044 0.05780 1.09900
O 	O 	0.39948 0.59933 0.03576 -0.35600
O 	O 	0.28597 0.47681 0.03782 -0.39900
O 	O 	0.42330 0.78557 0.02831 -0.36000
Ni	Ni	0.19595 0.52620 0.03522 1.07100
O 	O 	0.47775 0.87957 0.08221 -0.39600
O 	O 	0.19732 0.52911 0.08325 -0.41400
O 	O 	0.11058 0.69430 0.02884 -0.36400
O 	O 	0.30663 0.76069 0.08480 -0.69900
O 	O 	0.45855 0.72699 0.08898 -0.37300
O 	O 	0.16936 0.82284 0.08165 -0.35000
O 	O 	0.28376 0.94400 0.08319 -0.39600
Ni	Ni	0.37264 0.89299 0.08268 1.07300
H 	H 	0.27062 0.67928 0.01183 0.15900
H 	H 	0.29731 0.73999 0.10685 0.16700
C 	C 	0.14975 0.55903 0.09827 0.29600
O 	O 	0.36438 0.89099 0.03479 -0.41300
C 	C 	0.35200 0.51877 0.02442 0.27800
C 	C 	0.07825 0.60789 0.01833 0.27800
C 	C 	0.40459 0.85460 0.01764 0.28600
C 	C 	0.21712 0.89911 0.09563 0.27900
C 	C 	0.49376 0.81481 0.09741 0.28600
O 	O 	0.14199 0.63740 0.09039 -0.35700
O 	O 	0.09123 0.54070 0.03331 -0.40200
Ni	Ni	0.95825 0.03271 0.26482 1.09200
O 	O 	0.97060 0.14508 0.23773 -0.72100
Ni	Ni	0.91811 0.08179 0.19765 1.09500
O 	O 	0.01407 0.11633 0.30247 -0.34000
O 	O 	0.11783 0.19033 0.27212 -0.40600
O 	O 	0.85414 0.03947 0.27763 -0.38600
Ni	Ni	0.07700 0.21737 0.22842 1.07200
O 	O 	0.90003 0.80040 0.25202 -0.40100
O 	O 	0.09919 0.10802 0.20874 -0.40900
O 	O 	0.92348 0.19959 0.17504 -0.36600
O 	O 	0.92447 0.97167 0.22230 -0.69900
O 	O 	0.93787 0.91631 0.29069 -0.37300
O 	O 	0.83873 0.99963 0.16467 -0.36100
O 	O 	0.76342 0.91582 0.20365 -0.41400
Ni	Ni	0.83411 0.85905 0.22747 1.07300
H 	H 	0.94408 0.18501 0.24653 0.16100
H 	H 	0.96637 0.95240 0.21448 0.15200
C 	C 	0.07257 0.07569 0.18022 0.28800
O 	O 	0.79188 0.88411 0.26931 -0.38800
C 	C 	0.07945 0.18593 0.29831 0.27600
C 	C 	0.99058 0.27052 0.17539 0.24600
C 	C 	0.79038 0.96560 0.27743 0.30400
C 	C 	0.77307 0.93764 0.17372 0.26700
C 	C 	0.94148 0.83956 0.27793 0.28200
O 	O 	0.00587 0.07730 0.16960 -0.34900
O 	O 	0.05528 0.25873 0.18461 -0.37800
C 	C 	0.99872 0.35235 0.15637 -0.07500
C 	C 	0.04203 0.44007 0.16973 0.00800
C 	C 	0.08958 0.51033 0.15081 0.00600
C 	C 	0.09091 0.49397 0.11803 -0.06800
C 	C 	0.03727 0.41231 0.10417 0.02600
C 	C 	0.98961 0.34250 0.12321 -0.02000
H 	H 	0.04539 0.45009 0.19523 0.02700
H 	H 	0.03429 0.40197 0.07870 0.03900
C 	C 	0.93360 0.25978 0.10860 0.09600
C 	C 	0.13984 0.59645 0.16551 0.07700
N 	N 	0.88870 0.19346 0.09689 -0.10700
N 	N 	0.18004 0.66527 0.17746 -0.11100
C 	C 	0.70470 0.91132 0.15249 -0.06100
C 	C 	0.64400 0.94071 0.16021 -0.00900
C 	C 	0.57379 0.90670 0.14312 0.00400
C 	C 	0.56382 0.84250 0.11782 -0.06600
C 	C 	0.62470 0.81330 0.10994 -0.00100
C 	C 	0.69523 0.84777 0.12705 0.00000
H 	H 	0.65110 0.98898 0.17999 0.04400
H 	H 	0.61769 0.76529 0.09010 0.05800
C 	C 	0.75729 0.81705 0.11855 0.07600
C 	C 	0.51187 0.93744 0.15186 0.05400
N 	N 	0.80702 0.79246 0.11174 -0.11400
N 	N 	0.46242 0.96228 0.15885 -0.13100
C 	C 	0.18578 0.94997 0.11763 -0.05400
C 	C 	0.14880 0.00748 0.10560 -0.01100
C 	C 	0.11874 0.05686 0.12611 0.01100
C 	C 	0.11972 0.04243 0.15900 -0.07200
C 	C 	0.16110 0.98951 0.17112 -0.00100
C 	C 	0.19587 0.94521 0.15058 -0.00100
H 	H 	0.14522 0.01564 0.08026 0.05500
H 	H 	0.16589 0.98242 0.19646 0.04800
C 	C 	0.24522 0.89965 0.16345 0.06800
C 	C 	0.09326 0.12773 0.11353 0.09700
N 	N 	0.28519 0.86374 0.17380 -0.11700
N 	N 	0.07323 0.18470 0.10335 -0.10100
C 	C 	0.58123 0.91985 0.32469 -0.05600
C 	C 	0.65187 0.96214 0.34135 -0.01000
C 	C 	0.72179 0.98709 0.32555 0.01800
C 	C 	0.72106 0.96989 0.29268 -0.06900
C 	C 	0.65017 0.93719 0.27564 -0.01000
C 	C 	0.58029 0.91172 0.29149 -0.00100
H 	H 	0.65251 0.97126 0.36684 0.05700
H 	H 	0.64941 0.92650 0.25021 0.04100
C 	C 	0.50802 0.87456 0.27362 0.06300
C 	C 	0.79391 0.02561 0.34349 0.08600
N 	N 	0.45012 0.84481 0.25928 -0.12300
N 	N 	0.85168 0.05644 0.35786 -0.10000
C 	C 	0.19040 0.39825 0.36783 -0.06400
C 	C 	0.11188 0.37611 0.36012 -0.01600
C 	C 	0.07377 0.30351 0.33859 0.03400
C 	C 	0.11475 0.25246 0.32451 -0.07400
C 	C 	0.19221 0.27128 0.33364 -0.00700
C 	C 	0.23015 0.34377 0.35529 0.00200
H 	H 	0.08122 0.41772 0.37001 0.05500
H 	H 	0.22335 0.23081 0.32334 0.04400
C 	C 	0.31037 0.36331 0.36391 0.07600
C 	C 	0.99367 0.28486 0.32993 0.04000
N 	N 	0.37462 0.37898 0.37083 -0.11100
N 	N 	0.92955 0.26994 0.32299 -0.10600
C 	C 	0.11216 0.77632 0.32986 -0.06400
C 	C 	0.11771 0.78398 0.29700 -0.01900
C 	C 	0.05671 0.79228 0.27874 0.02400
C 	C 	0.99048 0.79574 0.29362 -0.08700
C 	C 	0.98224 0.77936 0.32607 -0.03100
C 	C 	0.04284 0.77036 0.34430 0.03300
H 	H 	0.16973 0.78430 0.28569 0.03100
H 	H 	0.93044 0.77949 0.33745 0.05400
C 	C 	0.03445 0.75813 0.37797 0.09100
C 	C 	0.06301 0.79878 0.24484 0.06900
N 	N 	0.02777 0.74830 0.40493 -0.10000
N 	N 	0.06794 0.80369 0.21767 -0.11200
C 	C 	0.51956 0.10573 0.49965 -0.06400
C 	C 	0.43925 0.05912 0.49674 -0.00100
C 	C 	0.40650 0.00122 0.47030 -0.00500
C 	C 	0.45438 0.99256 0.44593 -0.05200
C 	C 	0.53390 0.04477 0.44788 -0.01200
C 	C 	0.56702 0.09847 0.47497 0.01200
H 	H 	0.40280 0.06373 0.51587 0.05600
H 	H 	0.57065 0.03974 0.42889 0.05700
C 	C 	0.65015 0.14220 0.47784 0.07300
C 	C 	0.32467 0.94708 0.46929 0.08700
N 	N 	0.71676 0.17684 0.48009 -0.11400
N 	N 	0.25913 0.90364 0.46850 -0.11000
C 	C 	0.09493 0.52133 0.46855 -0.06400
C 	C 	0.03523 0.45469 0.45069 0.02200
C 	C 	0.96602 0.40214 0.46477 -0.01600
C 	C 	0.95626 0.41528 0.49720 -0.08300
C 	C 	0.01871 0.47457 0.51567 0.01600
C 	C 	0.08662 0.53071 0.50143 0.00200
H 	H 	0.04244 0.44430 0.42573 0.05100
H 	H 	0.01286 0.48081 0.54090 0.04800
C 	C 	0.14465 0.60179 0.52036 0.09000
C 	C 	0.90574 0.33384 0.44586 0.09200
N 	N 	0.19098 0.65873 0.53556 -0.10900
N 	N 	0.85754 0.27916 0.43067 -0.10500
C 	C 	0.53386 0.60420 0.45237 -0.07400
C 	C 	0.55158 0.52391 0.44889 -0.01200
C 	C 	0.57960 0.48898 0.47469 0.00200
C 	C 	0.59120 0.53567 0.50437 -0.08600
C 	C 	0.57895 0.61970 0.50735 -0.00600
C 	C 	0.54991 0.65408 0.48157 -0.00600
H 	H 	0.54020 0.48625 0.42634 0.05000
H 	H 	0.58985 0.65688 0.52997 0.04200
C 	C 	0.53364 0.73829 0.48566 0.06600
C 	C 	0.59511 0.40439 0.47058 0.04300
N 	N 	0.52058 0.80570 0.48891 -0.11300
N 	N 	0.60725 0.33655 0.46698 -0.12500
C 	C 	0.81318 0.08700 0.61778 -0.06100
C 	C 	0.80156 0.06771 0.64987 -0.01400
C 	C 	0.83075 0.00575 0.66429 -0.00300
C 	C 	0.87207 0.96215 0.64629 -0.06900
C 	C 	0.88332 0.98157 0.61412 -0.00700
C 	C 	0.85475 0.04416 0.59989 0.00400
H 	H 	0.76892 0.10017 0.66353 0.03000
H 	H 	0.91505 0.94843 0.60022 0.05400
C 	C 	0.86769 0.06349 0.56677 0.08700
C 	C 	0.81877 0.98835 0.69756 0.06700
N 	N 	0.87803 0.07904 0.54025 -0.10600
N 	N 	0.80905 0.97443 0.72420 -0.11900
C 	C 	0.27115 0.14437 0.65496 -0.05700
C 	C 	0.27400 0.14732 0.62186 -0.00800
C 	C 	0.34526 0.17944 0.60694 0.00800
C 	C 	0.41485 0.20652 0.62516 -0.05900
C 	C 	0.41223 0.20679 0.65824 -0.01600
C 	C 	0.34089 0.17718 0.67325 -0.00100
H 	H 	0.22069 0.12501 0.60771 0.06100
H 	H 	0.46565 0.22875 0.67231 0.03000
C 	C 	0.34002 0.18091 0.70734 0.06700
C 	C 	0.34647 0.18593 0.57294 0.09600
N 	N 	0.33978 0.18445 0.73466 -0.11600
N 	N 	0.34736 0.19137 0.54571 -0.10300
C 	C 	0.94765 0.54409 0.59158 -0.04300
C 	C 	0.99449 0.62906 0.57887 -0.05500
C 	C 	0.04804 0.69714 0.59852 0.05400
C 	C 	0.05061 0.68185 0.63108 -0.09000
C 	C 	0.02383 0.58943 0.64074 0.02800
C 	C 	0.96942 0.52031 0.62159 -0.03700
H 	H 	0.98623 0.64401 0.55439 0.05200
H 	H 	0.03546 0.57422 0.66484 0.02700
C 	C 	0.94019 0.42600 0.63226 0.08800
C 	C 	0.09198 0.78656 0.58606 0.09000
N 	N 	0.91722 0.35064 0.64108 -0.11300
N 	N 	0.12723 0.85830 0.57609 -0.09600
C 	C 	0.87672 0.49396 0.95936 -0.05600
C 	C 	0.94717 0.49044 0.94938 -0.03400
C 	C 	0.01522 0.53494 0.96721 0.02600
C 	C 	0.01306 0.58306 0.99551 -0.04400
C 	C 	0.94350 0.59124 0.00457 -0.03100
C 	C 	0.87521 0.54656 0.98674 0.00500
H 	H 	0.94892 0.45285 0.92770 0.05900
H 	H 	0.94184 0.62843 0.02634 0.05500
C 	C 	0.80340 0.55180 0.99739 0.06500
C 	C 	0.08712 0.52986 0.95657 0.05400
N 	N 	0.74586 0.55595 0.00592 -0.12400
N 	N 	0.14471 0.52579 0.94809 -0.12800
C 	C 	0.50633 0.02035 0.93887 -0.06300
C 	C 	0.55310 0.01752 0.96501 -0.01800
C 	C 	0.52164 0.95888 0.99014 0.01000
C 	C 	0.44207 0.90348 0.98936 -0.06400
C 	C 	0.39650 0.90240 0.96245 -0.01000
C 	C 	0.42841 0.95888 0.93696 0.00900
H 	H 	0.61350 0.06261 0.96617 0.04000
H 	H 	0.33590 0.85801 0.96145 0.03800
C 	C 	0.38169 0.95039 0.90852 0.09200
C 	C 	0.57127 0.95677 0.01667 0.08700
N 	N 	0.34386 0.94289 0.88580 -0.10400
N 	N 	0.61139 0.95526 0.03782 -0.10000
C 	C 	0.43992 0.39440 0.95115 -0.07100
C 	C 	0.47986 0.41770 0.98044 -0.01300
C 	C 	0.44997 0.45416 0.00524 0.00700
C 	C 	0.37915 0.46748 0.00074 -0.06500
C 	C 	0.33582 0.43607 0.97247 -0.01500
C 	C 	0.36591 0.39971 0.94764 0.01100
H 	H 	0.53594 0.41122 0.98344 0.01400
H 	H 	0.28009 0.44338 0.96937 0.02800
C 	C 	0.32163 0.37087 0.91832 0.08900
C 	C 	0.49211 0.47724 0.03520 0.08800
N 	N 	0.28614 0.34772 0.89484 -0.10400
N 	N 	0.52590 0.49577 0.05920 -0.10800
C 	C 	0.96048 0.16576 0.79555 -0.04700
C 	C 	0.96492 0.16470 0.82865 -0.04900
C 	C 	0.90617 0.17585 0.84669 0.02400
C 	C 	0.84376 0.19216 0.83151 -0.06600
C 	C 	0.84491 0.20545 0.79883 -0.00800
C 	C 	0.90386 0.19420 0.78091 -0.00700
H 	H 	0.01019 0.14671 0.84018 0.08800
H 	H 	0.79946 0.22319 0.78729 0.02700
C 	C 	0.90431 0.20842 0.74726 0.05800
C 	C 	0.90861 0.16624 0.88056 0.08400
N 	N 	0.90473 0.21992 0.72031 -0.12600
N 	N 	0.91059 0.15858 0.90768 -0.10900
C 	C 	0.22166 0.00277 0.78918 -0.06100
C 	C 	0.28650 0.99051 0.77616 -0.00600
C 	C 	0.35905 0.02704 0.79180 0.00300
C 	C 	0.36657 0.07445 0.82112 -0.05600
C 	C 	0.30023 0.07712 0.83575 -0.00200
C 	C 	0.22781 0.04037 0.82018 0.00500
H 	H 	0.28161 0.95887 0.75275 0.03800
H 	H 	0.30527 0.10933 0.85907 0.06100
C 	C 	0.16053 0.04344 0.83595 0.10100
C 	C 	0.42592 0.02002 0.77677 0.06600
N 	N 	0.10668 0.04574 0.84867 -0.09800
N 	N 	0.47950 0.01441 0.76472 -0.13100
C 	C 	0.75924 0.54494 0.83467 -0.06700
C 	C 	0.78194 0.51677 0.80613 -0.00900
C 	C 	0.82248 0.58262 0.78434 -0.00000
C 	C 	0.83956 0.67805 0.79089 -0.06300
C 	C 	0.81667 0.70621 0.81941 -0.00900
C 	C 	0.77746 0.64052 0.84145 0.00900
H 	H 	0.76929 0.44353 0.80115 0.03300
H 	H 	0.82966 0.77945 0.82450 0.05600
C 	C 	0.75913 0.67207 0.87149 0.08100
C 	C 	0.84905 0.55195 0.75595 0.05100
N 	N 	0.74451 0.69736 0.89555 -0.12000
N 	N 	0.87035 0.52738 0.73322 -0.14400
