data_crystal

_cell_length_a 21.02177
_cell_length_b 21.10027
_cell_length_c 20.76198
_cell_angle_alpha 89.92066
_cell_angle_beta  89.90467
_cell_angle_gamma 89.90467

_symmetry_space_group_name_	'P 1'
_symmetry_space_group_name_H-M	'P 1'

loop_
_symmetry_equiv_pos_as_xyz
  x,y,z

loop_
_atom_site_label
_atom_site_type_symbol
_atom_site_fract_x
_atom_site_fract_y
_atom_site_fract_z
_atom_site_charge
Co	Co	0.97307 0.04295 0.42097 1.17600
Co	Co	0.03888 0.94607 0.59467 1.19500
Co	Co	0.94541 0.04470 0.57562 1.18100
Co	Co	0.06428 0.94158 0.43848 1.18700
C 	C 	0.02724 0.13066 0.31876 0.30500
Co	Co	0.04350 0.99381 0.29123 1.17200
Co	Co	0.96953 0.00453 0.72332 1.15300
C 	C 	0.02420 0.85602 0.32897 0.29100
O 	O 	0.87743 0.03711 0.70638 -0.40300
O 	O 	0.99306 0.00363 0.62476 -0.78800
C 	C 	0.84124 0.01053 0.66248 0.25100
O 	O 	0.91550 0.07845 0.48984 -0.48500
O 	O 	0.08319 0.89795 0.52333 -0.46800
C 	C 	0.96767 0.86720 0.68874 0.30000
O 	O 	0.02545 0.01251 0.51051 -0.59100
C 	C 	0.98280 0.14140 0.67960 0.29000
C 	C 	0.90146 0.00247 0.30533 0.24100
C 	C 	0.17352 0.97340 0.34872 0.29600
O 	O 	0.86474 0.99745 0.60527 -0.37400
O 	O 	0.95066 0.02339 0.27256 -0.41100
O 	O 	0.90501 0.99523 0.36815 -0.37400
O 	O 	0.93724 0.91150 0.72117 -0.38900
O 	O 	0.98037 0.87473 0.62714 -0.40400
O 	O 	0.00402 0.09676 0.71918 -0.39200
O 	O 	0.94661 0.12829 0.62889 -0.39100
O 	O 	0.13635 0.96118 0.29942 -0.40400
O 	O 	0.15712 0.95584 0.40750 -0.38700
O 	O 	0.03222 0.99840 0.39200 -0.75700
C 	C 	0.11161 0.97917 0.71658 0.29400
O 	O 	0.05882 0.96943 0.74944 -0.39400
O 	O 	0.11561 0.96379 0.65497 -0.38400
O 	O 	0.06895 0.08804 0.29905 -0.40800
O 	O 	0.99983 0.12654 0.37600 -0.40000
O 	O 	0.01256 0.90051 0.28586 -0.39300
O 	O 	0.01849 0.86810 0.39133 -0.40100
Co	Co	0.94806 0.41691 0.03374 1.18600
Co	Co	0.05722 0.57809 0.96187 1.18400
Co	Co	0.94944 0.57160 0.05031 1.18300
Co	Co	0.05686 0.42447 0.94806 1.18600
C 	C 	0.87122 0.32170 0.95825 0.29500
Co	Co	0.00670 0.28379 0.97841 1.16600
Co	Co	0.00482 0.71276 0.01336 1.17000
C 	C 	0.14345 0.31986 0.00353 0.30000
O 	O 	0.96073 0.71488 0.10292 -0.41000
O 	O 	0.00786 0.61309 0.01372 -0.75800
C 	C 	0.97413 0.67390 0.14859 0.30200
O 	O 	0.90226 0.49127 0.07420 -0.47300
O 	O 	0.09747 0.50470 0.91486 -0.48000
C 	C 	0.14298 0.67957 0.02310 0.30500
O 	O 	0.01926 0.49593 0.01976 -0.57800
C 	C 	0.86928 0.67564 0.99336 0.29800
C 	C 	0.96635 0.30089 0.11656 0.30900
C 	C 	0.03138 0.33223 0.84661 0.30300
O 	O 	0.96311 0.61280 0.14029 -0.39300
O 	O 	0.95776 0.26732 0.06406 -0.41600
O 	O 	0.96004 0.36300 0.11617 -0.39800
O 	O 	0.09374 0.70392 0.05423 -0.39700
O 	O 	0.13906 0.62461 0.99207 -0.40000
O 	O 	0.91536 0.71197 0.97132 -0.39900
O 	O 	0.87722 0.61370 0.99761 -0.40800
O 	O 	0.05214 0.29176 0.88984 -0.40700
O 	O 	0.01799 0.39076 0.86368 -0.40200
O 	O 	0.00755 0.38184 0.99381 -0.77400
C 	C 	0.02842 0.68449 0.87431 0.30500
O 	O 	0.04683 0.72020 0.92254 -0.41500
O 	O 	0.01754 0.62382 0.88345 -0.40800
O 	O 	0.91970 0.29094 0.93265 -0.39900
O 	O 	0.87672 0.38221 0.97431 -0.40400
O 	O 	0.09396 0.28709 0.02500 -0.39000
O 	O 	0.13711 0.36847 0.96307 -0.39300
Co	Co	0.59417 0.05469 0.03979 1.18100
Co	Co	0.42387 0.95716 0.97168 1.18800
Co	Co	0.44038 0.05723 0.06646 1.18400
Co	Co	0.57788 0.95143 0.94920 1.18700
C 	C 	0.71245 0.02717 0.11616 0.31700
Co	Co	0.72258 0.99359 0.97629 1.16900
Co	Co	0.29664 0.00776 0.04594 1.15800
C 	C 	0.66857 0.97341 0.84480 0.30300
O 	O 	0.30186 0.10158 0.07585 -0.41000
O 	O 	0.39493 0.00208 0.03109 -0.78100
C 	C 	0.33410 0.14371 0.04245 0.30600
O 	O 	0.52335 0.10222 0.08480 -0.47800
O 	O 	0.49345 0.91802 0.91745 -0.47600
C 	C 	0.30813 0.00766 0.90266 0.29700
O 	O 	0.51145 0.98780 0.02622 -0.56900
C 	C 	0.35627 0.00845 0.17816 0.27900
C 	C 	0.68888 0.13146 0.96136 0.29500
C 	C 	0.68149 0.85790 0.99617 0.28500
O 	O 	0.39214 0.13056 0.02287 -0.40700
O 	O 	0.71805 0.08286 0.93405 -0.40400
O 	O 	0.62894 0.12678 0.98072 -0.40500
O 	O 	0.28198 0.03720 0.95200 -0.40400
O 	O 	0.37064 0.00027 0.89967 -0.41300
O 	O 	0.32087 0.97612 0.13717 -0.37700
O 	O 	0.40125 0.04872 0.15883 -0.38500
O 	O 	0.71575 0.90524 0.01968 -0.38100
O 	O 	0.62911 0.86740 0.96134 -0.38500
O 	O 	0.62482 0.99638 0.99508 -0.76600
C 	C 	0.32282 0.86875 0.02315 0.30100
O 	O 	0.28215 0.91537 0.01437 -0.39900
O 	O 	0.38280 0.87442 0.00550 -0.38700
O 	O 	0.74414 0.03775 0.06273 -0.42400
O 	O 	0.65055 0.03650 0.11907 -0.40700
O 	O 	0.71057 0.95177 0.88621 -0.40500
O 	O 	0.61151 0.99003 0.86480 -0.39900
C 	C 	0.78111 0.72345 0.05530 -0.03400
C 	C 	0.80457 0.70182 0.99603 -0.10300
C 	C 	0.77146 0.71711 0.93888 0.08400
C 	C 	0.72319 0.76297 0.94086 -0.04300
C 	C 	0.70838 0.79354 0.99882 -0.09600
C 	C 	0.73184 0.76836 0.05715 0.08300
C 	C 	0.70511 0.78895 0.12113 -0.19500
H 	H 	0.80354 0.70820 0.09969 0.03600
H 	H 	0.70093 0.77850 0.89653 0.04500
C 	C 	0.79190 0.69063 0.87486 -0.19800
H 	H 	0.69842 0.74707 0.15290 0.06600
H 	H 	0.65812 0.81250 0.11590 0.07500
H 	H 	0.73867 0.82187 0.14481 0.07000
H 	H 	0.81384 0.64300 0.88001 0.08000
H 	H 	0.82639 0.72371 0.85257 0.07200
H 	H 	0.75038 0.68579 0.84219 0.06400
C 	C 	0.79073 0.26266 0.89519 -0.03800
C 	C 	0.80731 0.29332 0.95270 -0.09600
C 	C 	0.77000 0.28298 0.00835 0.07500
C 	C 	0.72626 0.23257 0.00936 -0.03600
C 	C 	0.71728 0.19515 0.95432 -0.09700
C 	C 	0.74456 0.21469 0.89524 0.07800
C 	C 	0.72680 0.18312 0.83275 -0.19300
H 	H 	0.81634 0.27356 0.85123 0.04300
H 	H 	0.70182 0.22049 0.05374 0.03700
C 	C 	0.77545 0.32635 0.06564 -0.19400
H 	H 	0.73271 0.21634 0.79163 0.06100
H 	H 	0.67621 0.16802 0.83341 0.07600
H 	H 	0.75783 0.14126 0.82459 0.07400
H 	H 	0.76012 0.37486 0.05179 0.07700
H 	H 	0.82533 0.32822 0.08277 0.06500
H 	H 	0.74515 0.31022 0.10636 0.06400
C 	C 	0.21705 0.74313 0.08960 -0.03900
C 	C 	0.20618 0.70856 0.03296 -0.08400
C 	C 	0.25048 0.71342 0.98166 0.06700
C 	C 	0.29551 0.76240 0.98243 -0.04800
C 	C 	0.29724 0.80504 0.03399 -0.08400
C 	C 	0.26269 0.79134 0.09054 0.07300
C 	C 	0.27093 0.83071 0.15029 -0.19600
H 	H 	0.18703 0.73555 0.13139 0.04400
H 	H 	0.32597 0.77007 0.94095 0.04200
C 	C 	0.25023 0.66701 0.92655 -0.19100
H 	H 	0.26036 0.80244 0.19417 0.06400
H 	H 	0.23832 0.87211 0.14866 0.07200
H 	H 	0.32075 0.84738 0.15419 0.07700
H 	H 	0.20544 0.67148 0.89892 0.07000
H 	H 	0.25507 0.61793 0.94527 0.07800
H 	H 	0.29038 0.67552 0.89277 0.06400
C 	C 	0.24357 0.27308 0.96180 -0.04700
C 	C 	0.20760 0.29401 0.01469 -0.08400
C 	C 	0.22902 0.28068 0.07769 0.07400
C 	C 	0.27887 0.23734 0.08654 -0.03600
C 	C 	0.30713 0.20746 0.03339 -0.09200
C 	C 	0.29411 0.23036 0.97087 0.07500
C 	C 	0.33217 0.20768 0.91379 -0.19800
H 	H 	0.22954 0.28655 0.91342 0.04600
H 	H 	0.29166 0.22251 0.13487 0.04300
C 	C 	0.19499 0.30698 0.13564 -0.19300
H 	H 	0.31829 0.23272 0.86883 0.06500
H 	H 	0.32464 0.15620 0.90649 0.08100
H 	H 	0.38354 0.21658 0.92215 0.07700
H 	H 	0.15634 0.27399 0.14943 0.07300
H 	H 	0.17480 0.35465 0.12558 0.07000
H 	H 	0.22812 0.31182 0.17698 0.06300
C 	C 	0.76184 0.93267 0.69927 -0.05500
C 	C 	0.77509 0.99447 0.67873 -0.04000
C 	C 	0.73170 0.04328 0.69437 0.04600
C 	C 	0.68727 0.03343 0.74404 -0.05100
C 	C 	0.68490 0.97481 0.77572 -0.07900
C 	C 	0.71598 0.92223 0.74737 0.08400
C 	C 	0.70598 0.85623 0.77304 -0.19600
H 	H 	0.79159 0.89381 0.68303 0.05100
H 	H 	0.65901 0.07275 0.76171 0.04200
C 	C 	0.73666 0.10740 0.66307 -0.18200
H 	H 	0.71054 0.82088 0.73369 0.06500
H 	H 	0.65778 0.85103 0.79440 0.07400
H 	H 	0.74239 0.84578 0.81022 0.07300
H 	H 	0.75758 0.10373 0.61404 0.06600
H 	H 	0.76684 0.13860 0.69301 0.06400
H 	H 	0.68881 0.12934 0.65835 0.06100
C 	C 	0.24228 0.05422 0.81536 -0.01900
C 	C 	0.27011 0.00034 0.84335 -0.11900
C 	C 	0.25265 0.93942 0.82109 0.10000
C 	C 	0.20268 0.93343 0.77664 -0.05000
C 	C 	0.17121 0.98722 0.75300 -0.06200
C 	C 	0.19343 0.04816 0.76970 0.04400
C 	C 	0.16203 0.10687 0.74325 -0.18500
H 	H 	0.25653 0.10095 0.83131 0.03600
H 	H 	0.18644 0.88668 0.76265 0.04400
C 	C 	0.28195 0.88044 0.84944 -0.20600
H 	H 	0.19463 0.14821 0.74551 0.06100
H 	H 	0.11895 0.11785 0.77213 0.07300
H 	H 	0.14861 0.10034 0.69198 0.06700
H 	H 	0.25695 0.86828 0.89485 0.07700
H 	H 	0.33344 0.88701 0.85901 0.07300
H 	H 	0.27743 0.83974 0.81585 0.06700
C 	C 	0.30866 0.05803 0.27429 -0.02500
C 	C 	0.33928 0.00550 0.24683 -0.11900
C 	C 	0.33228 0.94583 0.27677 0.10700
C 	C 	0.28138 0.93611 0.31953 -0.05300
C 	C 	0.24092 0.98666 0.33526 -0.06000
C 	C 	0.26025 0.04889 0.32008 0.04200
C 	C 	0.22567 0.10516 0.34742 -0.18800
H 	H 	0.31759 0.10509 0.25528 0.04100
H 	H 	0.27077 0.88877 0.33682 0.04600
C 	C 	0.38173 0.89487 0.26798 -0.20500
H 	H 	0.25840 0.14613 0.35251 0.06300
H 	H 	0.20582 0.09430 0.39581 0.06500
H 	H 	0.18655 0.11852 0.31455 0.07200
H 	H 	0.41773 0.89882 0.30682 0.07500
H 	H 	0.40637 0.89893 0.22083 0.07600
H 	H 	0.35963 0.84715 0.27066 0.06700
C 	C 	0.78453 0.95813 0.17861 0.00900
C 	C 	0.74814 0.01366 0.17549 -0.14200
C 	C 	0.75319 0.05930 0.22503 0.10700
C 	C 	0.79909 0.05106 0.27356 -0.09600
C 	C 	0.83961 0.99818 0.27281 -0.01900
C 	C 	0.82827 0.94885 0.22856 0.04300
C 	C 	0.86626 0.88836 0.23118 -0.18000
H 	H 	0.78119 0.92358 0.14024 0.03200
H 	H 	0.80637 0.08797 0.30908 0.05000
C 	C 	0.71179 0.11777 0.22495 -0.20800
H 	H 	0.83942 0.84848 0.20942 0.06200
H 	H 	0.87664 0.87529 0.28187 0.07800
H 	H 	0.91150 0.89450 0.20430 0.07500
H 	H 	0.66106 0.10394 0.22958 0.08000
H 	H 	0.71864 0.14476 0.17950 0.07200
H 	H 	0.72338 0.14982 0.26567 0.06600
C 	C 	0.95406 0.29420 0.76667 -0.04900
C 	C 	0.01719 0.30940 0.78146 -0.08500
C 	C 	0.06661 0.28339 0.74363 0.07300
C 	C 	0.05336 0.23241 0.70244 -0.03000
C 	C 	0.99151 0.20813 0.69847 -0.10100
C 	C 	0.94063 0.24293 0.72579 0.08200
C 	C 	0.87281 0.22182 0.71706 -0.19800
H 	H 	0.91569 0.31737 0.79253 0.05100
H 	H 	0.09185 0.20882 0.67723 0.03400
C 	C 	0.13444 0.30428 0.75304 -0.19200
H 	H 	0.83871 0.25910 0.73252 0.06300
H 	H 	0.86408 0.17853 0.74621 0.07100
H 	H 	0.86311 0.21184 0.66553 0.08000
H 	H 	0.15615 0.27704 0.79321 0.07100
H 	H 	0.13654 0.35570 0.76430 0.07200
H 	H 	0.16287 0.29618 0.70864 0.06300
C 	C 	0.04915 0.79746 0.73702 -0.03500
C 	C 	0.98527 0.80770 0.72101 -0.10200
C 	C 	0.93847 0.76456 0.74248 0.08300
C 	C 	0.95536 0.71706 0.78687 -0.04300
C 	C 	0.01756 0.71364 0.81080 -0.09200
C 	C 	0.06583 0.75003 0.78125 0.07800
C 	C 	0.13465 0.74035 0.79876 -0.19400
H 	H 	0.08552 0.82849 0.71759 0.03700
H 	H 	0.91943 0.68525 0.80559 0.04400
C 	C 	0.87011 0.77151 0.72189 -0.19700
H 	H 	0.16673 0.75997 0.76114 0.06500
H 	H 	0.14521 0.68894 0.80307 0.06800
H 	H 	0.14512 0.76440 0.84507 0.07300
H 	H 	0.86706 0.78510 0.67028 0.07700
H 	H 	0.84665 0.80840 0.75170 0.07200
H 	H 	0.84382 0.72625 0.72787 0.06300
C 	C 	0.95779 0.76235 0.30438 -0.04600
C 	C 	0.01849 0.78982 0.30695 -0.08000
C 	C 	0.06846 0.76213 0.27118 0.06800
C 	C 	0.05435 0.71639 0.22414 -0.03100
C 	C 	0.99122 0.69808 0.21297 -0.10000
C 	C 	0.94338 0.71718 0.25676 0.08300
C 	C 	0.87580 0.69490 0.24879 -0.19700
H 	H 	0.92025 0.78052 0.33511 0.04500
H 	H 	0.09179 0.69892 0.19289 0.04300
C 	C 	0.13557 0.78622 0.27767 -0.19200
H 	H 	0.84813 0.70141 0.29394 0.06600
H 	H 	0.87466 0.64369 0.23661 0.07800
H 	H 	0.85245 0.72240 0.20980 0.06900
H 	H 	0.14563 0.80024 0.32820 0.06900
H 	H 	0.14246 0.82785 0.24566 0.07000
H 	H 	0.17044 0.74890 0.26414 0.06400
C 	C 	0.03163 0.27587 0.21203 -0.02300
C 	C 	0.97465 0.26796 0.17819 -0.11300
C 	C 	0.93006 0.22247 0.19926 0.09000
C 	C 	0.94721 0.17968 0.24777 -0.05700
C 	C 	0.00797 0.18184 0.27518 -0.08500
C 	C 	0.04917 0.23264 0.26024 0.07000
C 	C 	0.11308 0.23912 0.29232 -0.19100
H 	H 	0.06343 0.31423 0.19914 0.03700
H 	H 	0.91360 0.14399 0.26354 0.04800
C 	C 	0.86336 0.22159 0.17275 -0.20200
H 	H 	0.12799 0.28960 0.29376 0.06400
H 	H 	0.14908 0.21210 0.26446 0.06500
H 	H 	0.11194 0.22181 0.34283 0.07300
H 	H 	0.84093 0.26867 0.17997 0.07000
H 	H 	0.83333 0.18598 0.19775 0.06700
H 	H 	0.86381 0.20953 0.12075 0.07900
