data_crystal

_cell_length_a 26.09324
_cell_length_b 26.45169
_cell_length_c 26.46969
_cell_angle_alpha 95.48741
_cell_angle_beta  95.48679
_cell_angle_gamma 125.85328

_symmetry_space_group_name_	'P 1'
_symmetry_space_group_name_H-M	'P 1'

loop_
_symmetry_equiv_pos_as_xyz
  x,y,z

loop_
_atom_site_label
_atom_site_type_symbol
_atom_site_fract_x
_atom_site_fract_y
_atom_site_fract_z
_atom_site_charge
C 	C 	0.97089 0.02933 0.98447 0.13500
N 	N 	0.93668 0.96689 0.98753 -0.12700
C 	C 	0.96221 0.93518 0.97917 0.14500
N 	N 	0.02278 0.96654 0.96914 -0.13900
C 	C 	0.05767 0.02929 0.96713 0.13500
N 	N 	0.03139 0.06049 0.97426 -0.12200
C 	C 	0.93303 0.99943 0.45031 0.16200
N 	N 	0.99757 0.03550 0.45182 -0.15100
C 	C 	0.02976 0.01011 0.45863 0.13900
N 	N 	0.99707 0.94827 0.46316 -0.12100
C 	C 	0.93283 0.91232 0.46271 0.14900
N 	N 	0.90062 0.93777 0.45588 -0.13600
Cu	Cu	0.64236 0.24270 0.00351 0.93100
Cu	Cu	0.70455 0.25056 0.89965 0.87300
Cu	Cu	0.68719 0.34727 0.94018 0.90000
Cu	Cu	0.63832 0.35778 0.03534 0.89700
C 	C 	0.64902 0.28502 0.10968 0.28500
O 	O 	0.54736 0.20278 0.99535 -0.34700
C 	C 	0.67500 0.30830 0.82859 0.28600
O 	O 	0.69394 0.34163 0.01150 -0.64200
O 	O 	0.64201 0.25353 0.93057 -0.64000
O 	O 	0.68265 0.19796 0.00431 -0.35500
O 	O 	0.75922 0.26578 0.96098 -0.44100
O 	O 	0.62042 0.30998 0.09341 -0.37900
O 	O 	0.73537 0.43829 0.95486 -0.38000
C 	C 	0.72153 0.47003 0.98477 0.31700
C 	C 	0.52320 0.23003 0.97570 0.30200
O 	O 	0.56184 0.28966 0.97083 -0.39000
O 	O 	0.67748 0.44220 0.01416 -0.38900
O 	O 	0.65564 0.24905 0.07698 -0.34600
C 	C 	0.73853 0.22272 0.99028 0.31200
O 	O 	0.69623 0.35510 0.86765 -0.38000
O 	O 	0.67044 0.25726 0.83574 -0.41000
H 	H 	0.73853 0.36886 0.03152 0.17200
H 	H 	0.59892 0.22841 0.90813 0.17900
Cu	Cu	0.73226 0.33833 0.43505 0.92900
Cu	Cu	0.73312 0.28774 0.54328 0.87300
Cu	Cu	0.63232 0.30167 0.50412 0.89900
Cu	Cu	0.61163 0.33674 0.40373 0.90100
C 	C 	0.67854 0.31728 0.32882 0.28400
O 	O 	0.76929 0.43107 0.43730 -0.36000
C 	C 	0.67958 0.32127 0.61618 0.28600
O 	O 	0.63219 0.28660 0.43183 -0.63800
O 	O 	0.72690 0.34575 0.50911 -0.64000
O 	O 	0.77850 0.29913 0.43593 -0.35700
O 	O 	0.71367 0.22858 0.48435 -0.44200
O 	O 	0.65542 0.34811 0.34355 -0.37200
O 	O 	0.53970 0.25395 0.49455 -0.38200
C 	C 	0.50317 0.25694 0.45866 0.31700
C 	C 	0.74210 0.45520 0.45756 0.30300
O 	O 	0.68239 0.41719 0.46431 -0.37700
O 	O 	0.52801 0.29857 0.42756 -0.37500
O 	O 	0.72069 0.31793 0.36136 -0.35100
C 	C 	0.75442 0.24558 0.45267 0.30900
O 	O 	0.63106 0.30194 0.57866 -0.37900
O 	O 	0.73122 0.32710 0.60645 -0.41200
H 	H 	0.60428 0.24121 0.41510 0.17000
H 	H 	0.75364 0.38967 0.52919 0.17900
C 	C 	0.66844 0.31860 0.77533 -0.06600
C 	C 	0.71969 0.37350 0.76097 -0.01100
C 	C 	0.72125 0.37750 0.70867 0.00400
C 	C 	0.67121 0.32598 0.67031 -0.06600
C 	C 	0.61664 0.27440 0.68492 -0.01300
C 	C 	0.61496 0.27051 0.73721 0.00400
H 	H 	0.75973 0.41182 0.79036 0.04600
H 	H 	0.57688 0.23579 0.65552 0.04500
C 	C 	0.55827 0.21707 0.75145 0.07600
C 	C 	0.77420 0.43457 0.69466 0.07900
N 	N 	0.51287 0.17428 0.76288 -0.11600
N 	N 	0.81660 0.48029 0.68342 -0.11700
C 	C 	0.65679 0.28249 0.16491 -0.05800
C 	C 	0.60218 0.25117 0.18787 -0.00600
C 	C 	0.60879 0.25801 0.24168 0.00400
C 	C 	0.67069 0.29721 0.27303 -0.06100
C 	C 	0.72524 0.32399 0.24988 -0.00500
C 	C 	0.71855 0.31671 0.19595 0.00200
H 	H 	0.55454 0.22303 0.16386 0.05000
H 	H 	0.77292 0.35295 0.27387 0.05500
C 	C 	0.77533 0.34630 0.17287 0.08000
C 	C 	0.55186 0.22504 0.26452 0.06800
N 	N 	0.82078 0.36997 0.15434 -0.11300
N 	N 	0.50629 0.19866 0.28286 -0.11400
C 	C 	0.89820 0.76667 0.50958 -0.09900
C 	C 	0.84551 0.71817 0.47177 -0.00500
C 	C 	0.81699 0.73339 0.43435 0.14100
C 	C 	0.84335 0.79708 0.43346 -0.06400
C 	C 	0.89842 0.84581 0.46949 -0.05300
C 	C 	0.92429 0.83025 0.50892 0.16600
C 	C 	0.82224 0.65181 0.47000 0.01000
O 	O 	0.76298 0.68611 0.39907 -0.27200
H 	H 	0.82238 0.80857 0.40359 0.07200
O 	O 	0.97631 0.87726 0.54589 -0.26900
H 	H 	0.91967 0.75514 0.53897 0.07300
C 	C 	0.83706 0.62304 0.43267 0.11800
C 	C 	0.81284 0.55940 0.43001 -0.03400
C 	C 	0.77479 0.52435 0.46514 -0.12200
C 	C 	0.76353 0.55454 0.50461 0.19200
C 	C 	0.78652 0.61776 0.50644 -0.11200
O 	O 	0.87355 0.65647 0.39773 -0.27400
H 	H 	0.82224 0.53687 0.39975 0.06600
O 	O 	0.72911 0.52201 0.54082 -0.28500
H 	H 	0.77639 0.64025 0.53611 0.07900
H 	H 	0.95783 0.88462 0.57422 0.15200
H 	H 	0.91872 0.67672 0.41422 0.15100
H 	H 	0.76153 0.52916 0.56932 0.14900
H 	H 	0.77911 0.67943 0.36860 0.16100
C 	C 	0.83718 0.06125 0.47609 -0.09500
C 	C 	0.84527 0.09371 0.43508 -0.00700
C 	C 	0.87826 0.09118 0.39705 0.13500
C 	C 	0.90519 0.05860 0.40142 -0.06100
C 	C 	0.89862 0.02755 0.44318 -0.06800
C 	C 	0.86383 0.02840 0.48035 0.15500
C 	C 	0.82205 0.13296 0.43358 0.01000
O 	O 	0.88607 0.12227 0.35654 -0.27300
H 	H 	0.93186 0.05811 0.37263 0.06600
O 	O 	0.85639 0.99774 0.52111 -0.26300
H 	H 	0.81148 0.06274 0.50534 0.06300
C 	C 	0.75569 0.10414 0.42253 0.11300
C 	C 	0.73399 0.14164 0.42584 -0.03000
C 	C 	0.77810 0.20793 0.44058 -0.12800
C 	C 	0.84462 0.23688 0.44985 0.18900
C 	C 	0.86629 0.19937 0.44601 -0.11100
O 	O 	0.71206 0.03945 0.40770 -0.26900
H 	H 	0.68275 0.11904 0.41812 0.05500
O 	O 	0.88848 0.30168 0.46347 -0.28000
H 	H 	0.91750 0.22186 0.45414 0.08100
H 	H 	0.89376 0.02971 0.54887 0.13900
H 	H 	0.69990 0.02326 0.44013 0.14400
H 	H 	0.89614 0.31105 0.50176 0.13400
H 	H 	0.84817 0.09086 0.32899 0.15700
C 	C 	0.20517 0.07706 0.49466 -0.09600
C 	C 	0.23289 0.12033 0.46120 -0.00600
C 	C 	0.19426 0.12915 0.42818 0.13600
C 	C 	0.12801 0.09328 0.42767 -0.06600
C 	C 	0.10005 0.04951 0.46087 -0.05500
C 	C 	0.13938 0.04274 0.49546 0.16200
C 	C 	0.30232 0.15588 0.46049 0.01100
O 	O 	0.22092 0.17165 0.39548 -0.27400
H 	H 	0.09829 0.09901 0.40104 0.06900
O 	O 	0.11354 0.00229 0.52978 -0.27100
H 	H 	0.23476 0.07026 0.52029 0.06900
C 	C 	0.34837 0.20198 0.50346 0.11400
C 	C 	0.41404 0.23434 0.50287 -0.02700
C 	C 	0.43420 0.22127 0.45952 -0.12100
C 	C 	0.38824 0.17527 0.41655 0.19300
C 	C 	0.32254 0.14269 0.41719 -0.11000
O 	O 	0.32931 0.21718 0.54518 -0.26900
H 	H 	0.44932 0.27020 0.53586 0.06200
O 	O 	0.40745 0.16287 0.37358 -0.28700
H 	H 	0.28728 0.10707 0.38407 0.08300
H 	H 	0.11671 0.02831 0.56122 0.15200
H 	H 	0.32631 0.18975 0.56962 0.14600
H 	H 	0.41073 0.12829 0.37943 0.14700
H 	H 	0.23407 0.21249 0.41535 0.15500
C 	C 	0.80290 0.62717 0.93917 -0.11800
C 	C 	0.82028 0.66874 0.98537 0.01000
C 	C 	0.80404 0.64490 0.03116 0.12300
C 	C 	0.77149 0.57992 0.03063 -0.03300
C 	C 	0.75502 0.53829 0.98457 -0.12100
C 	C 	0.77040 0.56218 0.93850 0.19500
C 	C 	0.85605 0.73732 0.98571 -0.00400
O 	O 	0.81808 0.68472 0.07608 -0.26700
H 	H 	0.75953 0.56199 0.06615 0.05800
O 	O 	0.75084 0.52176 0.89243 -0.28300
H 	H 	0.81465 0.64529 0.90368 0.07500
C 	C 	0.92229 0.77945 0.00658 0.13300
C 	C 	0.95624 0.84421 0.00553 -0.06400
C 	C 	0.92501 0.86724 0.98224 -0.05700
C 	C 	0.85883 0.82471 0.96045 0.16500
C 	C 	0.82454 0.76023 0.96296 -0.09600
O 	O 	0.95374 0.75746 0.02854 -0.27900
H 	H 	0.00703 0.87651 0.02255 0.06900
O 	O 	0.82770 0.84598 0.93653 -0.27400
H 	H 	0.77361 0.72782 0.94644 0.07800
H 	H 	0.78798 0.52150 0.88782 0.15700
H 	H 	0.96933 0.74624 0.99994 0.14800
H 	H 	0.83214 0.84228 0.89982 0.15000
H 	H 	0.86063 0.69849 0.09403 0.15900
C 	C 	0.91024 0.12595 0.96094 -0.09700
C 	C 	0.88106 0.12110 0.00387 -0.00700
C 	C 	0.88390 0.08842 0.04161 0.13800
C 	C 	0.91406 0.05915 0.03539 -0.06500
C 	C 	0.94225 0.06298 0.99194 -0.05100
C 	C 	0.94045 0.09679 0.95470 0.16300
C 	C 	0.84424 0.14695 0.00746 0.01100
O 	O 	0.85552 0.08339 0.08376 -0.27300
H 	H 	0.91538 0.03332 0.06426 0.07100
O 	O 	0.96781 0.10100 0.91202 -0.27600
H 	H 	0.90822 0.15119 0.93180 0.06500
C 	C 	0.87636 0.21292 0.01925 0.11300
C 	C 	0.84111 0.23732 0.01647 -0.02900
C 	C 	0.77385 0.19628 0.00134 -0.13000
C 	C 	0.74159 0.13009 0.99144 0.19100
C 	C 	0.77684 0.10576 0.99498 -0.11200
O 	O 	0.94210 0.25353 0.03404 -0.26700
H 	H 	0.86620 0.28826 0.02487 0.05800
O 	O 	0.67577 0.08918 0.97735 -0.27800
H 	H 	0.75189 0.05486 0.98626 0.08100
H 	H 	0.93308 0.06383 0.88547 0.14800
H 	H 	0.95880 0.26505 0.00164 0.14600
H 	H 	0.66679 0.08232 0.93907 0.13400
H 	H 	0.88951 0.12078 0.11048 0.15800
C 	C 	0.35130 0.13426 0.99698 -0.11600
C 	C 	0.32192 0.14482 0.95656 0.00800
C 	C 	0.35780 0.18038 0.92060 0.12300
C 	C 	0.42323 0.20660 0.92615 -0.03600
C 	C 	0.45315 0.19739 0.96741 -0.12100
C 	C 	0.41675 0.16101 0.00301 0.19000
C 	C 	0.25421 0.12046 0.95332 -0.00600
O 	O 	0.32969 0.19171 0.88128 -0.26800
H 	H 	0.45085 0.23466 0.89870 0.06000
O 	O 	0.44527 0.15235 0.04414 -0.27900
H 	H 	0.32363 0.10649 0.02455 0.07400
C 	C 	0.20491 0.06307 0.92001 0.13800
C 	C 	0.14045 0.03539 0.92262 -0.07900
C 	C 	0.12475 0.06380 0.95930 -0.05000
C 	C 	0.17419 0.12236 0.99154 0.16300
C 	C 	0.23850 0.15078 0.98789 -0.09400
O 	O 	0.21966 0.03382 0.88505 -0.28000
H 	H 	0.10271 0.99088 0.89710 0.07800
O 	O 	0.15985 0.15122 0.02730 -0.27200
H 	H 	0.27639 0.19520 0.01345 0.07400
H 	H 	0.46075 0.18827 0.07245 0.15100
H 	H 	0.22366 0.00499 0.90344 0.14800
H 	H 	0.16040 0.13451 0.05918 0.15000
H 	H 	0.31319 0.15662 0.85183 0.15800
