data_crystal

_cell_length_a 15.90739
_cell_length_b 15.93427
_cell_length_c 43.81830
_cell_angle_alpha 89.51785
_cell_angle_beta  82.27362
_cell_angle_gamma 105.74722

_symmetry_space_group_name_	'P 1'
_symmetry_space_group_name_H-M	'P 1'

loop_
_symmetry_equiv_pos_as_xyz
  x,y,z

loop_
_atom_site_label
_atom_site_type_symbol
_atom_site_fract_x
_atom_site_fract_y
_atom_site_fract_z
_atom_site_charge
Zn	Zn	0.58619 0.24134 0.91763 1.22300
P 	P 	0.58742 0.40022 0.95191 0.30000
C 	C 	0.49738 0.17658 0.86765 0.28100
C 	C 	0.62866 0.14159 0.96787 0.34700
O 	O 	0.60979 0.33267 0.97402 -0.43300
O 	O 	0.57583 0.36038 0.91892 -0.41400
O 	O 	0.69758 0.23562 0.89489 -0.37900
O 	O 	0.49841 0.16211 0.89714 -0.37300
O 	O 	0.55617 0.24349 0.85266 -0.17900
O 	O 	0.56630 0.17066 0.95791 -0.42100
O 	O 	0.70651 0.19542 0.96966 -0.41500
Zn	Zn	0.50591 0.14537 0.57196 1.22100
P 	P 	0.60563 0.29985 0.53208 0.30200
C 	C 	0.54074 0.02648 0.52419 0.23300
O 	O 	0.67920 0.26320 0.51327 -0.43800
O 	O 	0.58269 0.19904 0.60137 -0.42600
O 	O 	0.63723 0.33737 0.56358 -0.41100
O 	O 	0.51325 0.22598 0.53795 -0.39100
O 	O 	0.37337 0.24547 0.58889 -0.18400
O 	O 	0.51745 0.03219 0.55403 -0.41000
O 	O 	0.61706 0.07494 0.51034 -0.40900
C 	C 	0.34007 0.16315 0.59820 0.29100
O 	O 	0.38246 0.10591 0.58878 -0.37100
Zn	Zn	0.04981 0.04042 0.77917 1.20900
P 	P 	0.06390 0.05854 0.71163 0.27100
O 	O 	0.03935 0.95448 0.71426 -0.34200
O 	O 	0.10634 0.10358 0.74067 -0.40400
O 	O 	0.21798 0.98664 0.77577 -0.11200
C 	C 	0.21112 0.03541 0.79950 0.22200
O 	O 	0.14104 0.06432 0.80563 -0.38500
Zn	Zn	0.47334 0.49765 0.36356 1.20800
Zn	Zn	0.31437 0.37952 0.40987 1.22100
Zn	Zn	0.43881 0.64919 0.40480 1.22900
P 	P 	0.47446 0.49500 0.43063 0.33200
P 	P 	0.29880 0.53145 0.37598 0.31200
C 	C 	0.38685 0.76331 0.44655 0.31800
C 	C 	0.57973 0.67329 0.35212 0.29900
C 	C 	0.39856 0.31811 0.35539 0.31000
O 	O 	0.50816 0.45317 0.40023 -0.41000
O 	O 	0.38513 0.55049 0.35126 -0.42300
O 	O 	0.36916 0.46493 0.43753 -0.40600
O 	O 	0.32038 0.57450 0.40767 -0.42200
O 	O 	0.51139 0.59886 0.42713 -0.35100
O 	O 	0.25516 0.42863 0.38125 -0.40500
O 	O 	0.44621 0.75943 0.42308 -0.36100
O 	O 	0.28518 0.29098 0.47422 -0.18700
O 	O 	0.31736 0.69632 0.45395 -0.20500
O 	O 	0.50524 0.69171 0.36262 -0.38900
O 	O 	0.39062 0.31489 0.38571 -0.42000
O 	O 	0.58162 0.59133 0.34994 -0.36500
O 	O 	0.44359 0.39133 0.33997 -0.39900
C 	C 	0.21474 0.27441 0.46029 0.32100
O 	O 	0.22412 0.28248 0.43013 -0.40000
Zn	Zn	0.37163 0.52751 0.11800 1.21100
Zn	Zn	0.20128 0.54845 0.09353 1.22100
Zn	Zn	0.47173 0.68546 0.07189 1.22300
P 	P 	0.32566 0.69216 0.12002 0.31200
P 	P 	0.35299 0.52497 0.05224 0.33000
C 	C 	0.56769 0.79475 0.02070 0.27600
C 	C 	0.55729 0.60141 0.11363 0.31900
C 	C 	0.20436 0.40775 0.13683 0.31700
O 	O 	0.31432 0.60645 0.14057 -0.38000
O 	O 	0.40663 0.49582 0.07641 -0.42000
O 	O 	0.27167 0.66895 0.09162 -0.42500
O 	O 	0.37819 0.62901 0.04851 -0.42500
O 	O 	0.42783 0.73656 0.10832 -0.34700
O 	O 	0.24945 0.48334 0.06223 -0.39200
O 	O 	0.56066 0.78341 0.05075 -0.37800
O 	O 	0.10265 0.67404 0.07247 -0.18600
O 	O 	0.54628 0.72648 0.00388 -0.22700
O 	O 	0.55086 0.61544 0.08435 -0.41600
O 	O 	0.17581 0.47759 0.13380 -0.40700
O 	O 	0.48617 0.56297 0.13307 -0.38800
O 	O 	0.28959 0.41499 0.13253 -0.40600
C 	C 	0.06266 0.59162 0.06932 0.26300
O 	O 	0.08218 0.53079 0.08511 -0.38100
Zn	Zn	0.05383 0.02374 0.24543 1.18100
Zn	Zn	0.07386 0.87398 0.28511 1.23100
P 	P 	0.12412 0.88610 0.21816 0.31800
C 	C 	0.00216 0.08033 0.19201 0.30700
C 	C 	0.15654 0.06260 0.29374 0.22900
O 	O 	0.12660 0.98463 0.21171 -0.38400
O 	O 	0.02636 0.82454 0.21855 -0.39600
O 	O 	0.16203 0.87816 0.24980 -0.33000
O 	O 	0.99522 0.68818 0.31066 -0.15100
O 	O 	0.00240 0.00273 0.18146 -0.42500
O 	O 	0.10018 0.98978 0.30652 -0.30000
O 	O 	0.15073 0.08889 0.26584 -0.41100
C 	C 	0.07054 0.72336 0.32067 0.27300
O 	O 	0.10884 0.80720 0.31566 -0.30400
C 	C 	0.14130 0.32195 0.14610 -0.08500
C 	C 	0.16267 0.24546 0.13670 0.03600
C 	C 	0.10993 0.16413 0.14888 -0.03500
C 	C 	0.03512 0.15818 0.17069 0.04000
C 	C 	0.00552 0.23375 0.17633 -0.11600
C 	C 	0.06127 0.31594 0.16509 0.09800
H 	H 	0.13107 0.10631 0.14316 0.07400
H 	H 	0.04333 0.37488 0.17168 0.09000
H 	H 	0.22214 0.24918 0.12082 0.06700
C 	C 	0.64390 0.63036 0.12479 -0.08200
C 	C 	0.65570 0.59641 0.15306 0.05400
H 	H 	0.70338 0.72351 0.08668 0.07500
H 	H 	0.60459 0.54314 0.16540 0.07000
C 	C 	0.19270 0.85245 0.18752 -0.02100
C 	C 	0.16061 0.82825 0.15981 0.03300
C 	C 	0.20540 0.78581 0.13832 -0.04300
C 	C 	0.28335 0.76739 0.14415 0.07900
C 	C 	0.32140 0.80032 0.17081 -0.10500
C 	C 	0.27417 0.84147 0.19253 0.08900
H 	H 	0.17764 0.76448 0.11758 0.09700
H 	H 	0.30022 0.86405 0.21348 0.12300
H 	H 	0.09887 0.83911 0.15543 0.07000
C 	C 	0.41460 0.79907 0.17495 0.79200
F 	F 	0.47415 0.84789 0.15115 -0.41400
F 	F 	0.43801 0.83481 0.20232 -0.40100
F 	F 	0.42179 0.71460 0.17553 -0.42400
H 	H 	0.58349 0.79239 0.30756 0.10000
C 	C 	0.33686 0.25142 0.34006 -0.09500
C 	C 	0.27450 0.27520 0.32475 0.03600
C 	C 	0.21219 0.21202 0.31169 -0.03900
C 	C 	0.21285 0.12405 0.31274 0.04400
C 	C 	0.27551 0.09896 0.32848 -0.10200
C 	C 	0.33569 0.16333 0.34277 0.08600
H 	H 	0.16436 0.23181 0.29997 0.08400
H 	H 	0.38192 0.14519 0.35577 0.07700
H 	H 	0.27359 0.34287 0.32326 0.05500
C 	C 	0.27673 0.00415 0.33092 0.64500
F 	F 	0.34925 0.99534 0.34359 -0.35500
F 	F 	0.20143 0.95649 0.34957 -0.37400
F 	F 	0.28021 0.96980 0.30203 -0.38400
C 	C 	0.22222 0.57854 0.36038 -0.03900
C 	C 	0.17554 0.62682 0.37888 0.02100
C 	C 	0.12327 0.67107 0.36592 -0.02200
C 	C 	0.11710 0.66766 0.33431 0.06800
C 	C 	0.16241 0.61706 0.31552 -0.11000
C 	C 	0.21341 0.57134 0.32907 0.08300
H 	H 	0.08896 0.70975 0.38036 0.10800
H 	H 	0.24793 0.53181 0.31518 0.08500
H 	H 	0.18085 0.63144 0.40322 0.07400
C 	C 	0.15732 0.61271 0.28115 0.78800
F 	F 	0.18487 0.69593 0.26739 -0.42500
F 	F 	0.21024 0.56447 0.26669 -0.42100
F 	F 	0.07133 0.57395 0.27653 -0.41600
C 	C 	0.40752 0.83320 0.46811 -0.08600
C 	C 	0.43600 0.92113 0.45732 0.19600
C 	C 	0.47444 0.98542 0.47659 0.01000
C 	C 	0.48423 0.96254 0.50663 0.04000
C 	C 	0.44818 0.87626 0.51827 -0.01700
C 	C 	0.40986 0.81176 0.49907 0.04900
H 	H 	0.49909 0.05282 0.46794 0.04700
H 	H 	0.38664 0.74435 0.50774 0.07900
Cl	Cl	0.42360 0.95153 0.41977 -0.19000
H 	H 	0.45410 0.85832 0.54163 0.10800
C 	C 	0.12929 0.27243 0.47811 -0.10900
C 	C 	0.08736 0.20541 0.50060 0.21800
C 	C 	0.08935 0.33867 0.47275 0.04100
H 	H 	0.12198 0.39137 0.45581 0.04400
Cl	Cl	0.13413 0.11960 0.50699 -0.19600
C 	C 	0.52189 0.46040 0.46205 -0.05500
C 	C 	0.47859 0.45113 0.49274 0.20000
C 	C 	0.51078 0.41124 0.51554 -0.07500
C 	C 	0.58731 0.38361 0.50819 0.02500
C 	C 	0.63679 0.40503 0.47883 -0.03200
C 	C 	0.60370 0.44215 0.45579 0.02900
H 	H 	0.47431 0.39856 0.53860 0.12100
H 	H 	0.64069 0.45455 0.43281 0.08800
Cl	Cl	0.38815 0.49368 0.50351 -0.25500
H 	H 	0.69844 0.38823 0.47328 0.08000
H 	H 	0.63547 0.97617 0.61683 0.18900
F 	F 	0.61286 0.83406 0.64437 -0.39600
C 	C 	0.14404 0.09382 0.67788 -0.03100
C 	C 	0.23389 0.11952 0.68072 0.01700
C 	C 	0.29699 0.14279 0.65458 -0.02700
C 	C 	0.27133 0.14021 0.62518 0.03900
C 	C 	0.18055 0.11428 0.62195 -0.10100
C 	C 	0.11725 0.09067 0.64861 0.06800
H 	H 	0.36638 0.16224 0.65714 0.06600
H 	H 	0.04759 0.06910 0.64664 0.08300
H 	H 	0.25507 0.12043 0.70322 0.06500
C 	C 	0.15163 0.11083 0.59027 0.78600
F 	F 	0.18548 0.05210 0.57302 -0.41000
F 	F 	0.06065 0.08492 0.59190 -0.42100
F 	F 	0.18264 0.19264 0.57548 -0.42200
F 	F 	0.98164 0.75682 0.57630 -0.40000
F 	F 	0.91301 0.82192 0.61315 -0.37200
C 	C 	0.03770 0.50907 0.02208 -0.07600
C 	C 	0.01399 0.56729 0.04316 0.01000
H 	H 	0.09289 0.48338 0.02483 0.09900
C 	C 	0.60722 0.05261 0.98158 -0.17000
C 	C 	0.58310 0.97972 0.96344 0.26900
C 	C 	0.57242 0.89572 0.97599 -0.08100
C 	C 	0.58588 0.88375 0.00663 -0.00800
C 	C 	0.61068 0.95684 0.02449 0.04400
C 	C 	0.62084 0.04052 0.01207 -0.01400
H 	H 	0.55335 0.83996 0.96194 0.11100
H 	H 	0.64038 0.09632 0.02609 0.06300
Cl	Cl	0.56948 0.99285 0.92459 -0.23400
H 	H 	0.62186 0.94891 0.04805 0.09200
C 	C 	0.38238 0.47841 0.01647 -0.06700
C 	C 	0.37965 0.38923 0.01587 0.20400
C 	C 	0.43134 0.36032 0.99211 -0.08800
C 	C 	0.48659 0.42014 0.96946 0.02200
C 	C 	0.47570 0.50425 0.96697 -0.02800
C 	C 	0.42316 0.53321 0.99043 0.02200
H 	H 	0.43406 0.29312 0.99275 0.09900
H 	H 	0.41812 0.59944 0.98910 0.07000
Cl	Cl	0.31476 0.31381 0.04521 -0.29100
H 	H 	0.51356 0.54942 0.94829 0.08600
C 	C 	0.28342 0.06072 0.81854 -0.05300
C 	C 	0.26745 0.09107 0.84814 0.02500
C 	C 	0.33707 0.12359 0.86492 -0.03400
C 	C 	0.42363 0.12567 0.85252 0.04700
C 	C 	0.43918 0.08686 0.82404 -0.11500
C 	C 	0.36914 0.05778 0.80669 0.07900
H 	H 	0.32420 0.15072 0.88710 0.07500
H 	H 	0.38166 0.03452 0.78382 0.07900
H 	H 	0.20128 0.09147 0.85791 0.06600
C 	C 	0.53038 0.07899 0.81157 0.78500
F 	F 	0.52560 0.01527 0.79007 -0.43800
F 	F 	0.58130 0.15778 0.79754 -0.43800
F 	F 	0.57120 0.05631 0.83509 -0.44000
F 	F 	0.03982 0.78032 0.79103 -0.41000
C 	C 	0.71232 0.69725 0.10853 0.10100
O 	O 	0.99867 0.91914 0.77136 -0.35600
F 	F 	0.66407 0.84224 0.68966 -0.40500
F 	F 	0.96913 0.28840 0.91231 -0.42300
C 	C 	0.68091 0.87811 0.65984 0.72400
C 	C 	0.65826 0.01410 0.63599 -0.14400
O 	O 	0.66180 0.49173 0.94990 -0.40100
P 	P 	0.66621 0.16134 0.60029 0.29500
F 	F 	0.75901 0.86576 0.64531 -0.37800
C 	C 	0.98848 0.34556 0.88681 0.79800
F 	F 	0.97467 0.42470 0.89536 -0.42700
Zn	Zn	0.72624 0.31920 0.96012 1.20900
Zn	Zn	0.76482 0.49166 0.92119 1.22500
P 	P 	0.77291 0.32595 0.89396 0.30500
O 	O 	0.81660 0.33142 0.92450 -0.36300
O 	O 	0.73365 0.40689 0.89049 -0.41900
O 	O 	0.67346 0.61567 0.89786 -0.21700
Zn	Zn	0.69013 0.15967 0.53402 1.21000
Zn	Zn	0.75634 0.33157 0.56742 1.22100
C 	C 	0.80424 0.45006 0.61329 0.29500
O 	O 	0.66700 0.09582 0.57342 -0.43200
O 	O 	0.75655 0.23770 0.59571 -0.39600
O 	O 	0.73343 0.39730 0.62919 -0.22500
C 	C 	0.78500 0.99931 0.70172 0.47600
O 	O 	0.78375 0.02208 0.73040 -0.47500
C 	C 	0.73176 0.63332 0.16618 -0.04100
C 	C 	0.79773 0.70393 0.15110 0.06400
C 	C 	0.79104 0.73236 0.12101 -0.12300
H 	H 	0.73783 0.60924 0.18876 0.08900
F 	F 	0.94616 0.78561 0.10525 -0.44200
C 	C 	0.64803 0.79709 0.31395 -0.01600
C 	C 	0.65683 0.74379 0.33827 0.04100
F 	F 	0.74664 0.62102 0.37039 -0.43100
C 	C 	0.66348 0.10351 0.63591 0.04700
C 	C 	0.68756 0.15098 0.66156 -0.05900
C 	C 	0.72730 0.02802 0.68266 -0.16800
C 	C 	0.68784 0.97491 0.65983 0.12300
C 	C 	0.86294 0.52156 0.65925 0.04800
H 	H 	0.90085 0.59201 0.69901 0.10600
H 	H 	0.83811 0.45949 0.67220 0.06100
C 	C 	0.93199 0.30616 0.86259 -0.14000
F 	F 	0.07707 0.36080 0.87542 -0.41900
C 	C 	0.75920 0.77660 0.85929 0.05500
H 	H 	0.75904 0.88323 0.82925 0.11700
H 	H 	0.70725 0.78768 0.87610 0.07000
C 	C 	0.85152 0.46966 0.97532 0.33700
O 	O 	0.86418 0.48818 0.94529 -0.37000
O 	O 	0.78979 0.40042 0.98733 -0.41500
C 	C 	0.75944 0.64642 0.89096 0.29500
O 	O 	0.81120 0.60983 0.90402 -0.38100
C 	C 	0.87025 0.25578 0.52327 0.29200
O 	O 	0.82840 0.43386 0.58454 -0.38600
O 	O 	0.83903 0.32424 0.52860 -0.41100
O 	O 	0.81658 0.17640 0.52623 -0.41300
O 	O 	0.86061 0.97658 0.78320 -0.38000
O 	O 	0.85112 0.84631 0.74792 -0.33400
C 	C 	0.86878 0.75175 0.16797 0.27100
O 	O 	0.92092 0.71060 0.17849 -0.19100
C 	C 	0.86607 0.80159 0.10263 0.78800
F 	F 	0.85725 0.80242 0.07162 -0.43500
F 	F 	0.86648 0.88282 0.11356 -0.40500
C 	C 	0.80719 0.85337 0.30272 -0.02400
C 	C 	0.72281 0.85225 0.29647 0.02300
C 	C 	0.74100 0.75451 0.34759 -0.10500
C 	C 	0.81609 0.80787 0.32908 0.08100
H 	H 	0.71516 0.89000 0.27688 0.09900
C 	C 	0.75146 0.70709 0.37642 0.78600
F 	F 	0.83191 0.74507 0.38616 -0.42200
F 	F 	0.68583 0.71003 0.40022 -0.44000
C 	C 	0.72007 0.11377 0.68472 0.08000
H 	H 	0.74575 0.15373 0.70307 0.04800
H 	H 	0.68849 0.21917 0.66225 0.08700
C 	C 	0.85560 0.52681 0.62781 -0.07400
C 	C 	0.89911 0.59663 0.67443 -0.04100
H 	H 	0.84093 0.60214 0.01205 0.05400
C 	C 	0.81961 0.31698 0.83169 -0.05000
C 	C 	0.85114 0.32547 0.86016 0.09200
H 	H 	0.76156 0.33747 0.82861 0.10300
C 	C 	0.79652 0.70861 0.86435 -0.08100
C 	C 	0.78837 0.83055 0.83257 -0.05500
C 	C 	0.85450 0.81668 0.81014 0.08800
C 	C 	0.96898 0.76915 0.60765 0.78500
F 	F 	0.05011 0.81115 0.61612 -0.39200
C 	C 	0.92902 0.67803 0.65838 0.07700
C 	C 	0.89024 0.60715 0.61109 0.10200
F 	F 	0.85627 0.14929 0.19144 -0.42900
O 	O 	0.85252 0.97357 0.68801 -0.37200
O 	O 	0.86534 0.90042 0.24116 -0.37000
O 	O 	0.87165 0.83142 0.17630 -0.32400
C 	C 	0.86341 0.69453 0.84242 0.10200
C 	C 	0.85463 0.27092 0.80872 0.06500
C 	C 	0.96333 0.25448 0.84041 0.11200
H 	H 	0.01975 0.23120 0.84358 0.07200
F 	F 	0.92648 0.23559 0.22603 -0.42100
C 	C 	0.91683 0.22793 0.19520 0.79100
F 	F 	0.88344 0.29431 0.18605 -0.42300
Zn	Zn	0.89557 0.05526 0.74640 1.19400
Zn	Zn	0.91751 0.90025 0.70889 1.23200
P 	P 	0.89341 0.89221 0.77685 0.31000
C 	C 	0.95274 0.75741 0.67594 0.26700
O 	O 	0.89804 0.80619 0.68058 -0.29600
P 	P 	0.90086 0.89250 0.27335 0.31100
H 	H 	0.88146 0.81064 0.33429 0.07300
C 	C 	0.96327 0.26786 0.51047 -0.01700
H 	H 	0.97517 0.38612 0.48369 0.07400
C 	C 	0.92946 0.68304 0.62602 -0.11200
H 	H 	0.88421 0.61105 0.58681 0.08800
C 	C 	0.91701 0.51499 0.99437 -0.11000
C 	C 	0.89687 0.57728 0.01440 0.05000
C 	C 	0.92261 0.23419 0.81393 -0.09600
H 	H 	0.82490 0.25889 0.78777 0.07100
C 	C 	0.89010 0.74499 0.81446 -0.13200
H 	H 	0.89264 0.64234 0.84673 0.08300
H 	H 	0.92780 0.64993 0.05450 0.10900
O 	O 	0.92484 0.16770 0.76497 -0.42700
C 	C 	0.94538 0.60357 0.03866 -0.03400
O 	O 	0.97859 0.08868 0.70821 -0.43400
C 	C 	0.98987 0.48326 0.99763 0.20700
O 	O 	0.95940 0.98546 0.28063 -0.37600
O 	O 	0.95790 0.82420 0.27318 -0.40900
C 	C 	0.94687 0.17043 0.79280 0.32700
Zn	Zn	0.94727 0.88710 0.20584 1.23100
H 	H 	0.97252 0.15153 0.53399 0.12800
F 	F 	0.93454 0.72592 0.76102 -0.44100
C 	C 	0.95775 0.72279 0.79019 0.79000
F 	F 	0.96423 0.63916 0.79558 -0.42400
O 	O 	0.02201 0.77255 0.69045 -0.12900
O 	O 	0.97168 0.10494 0.80395 -0.43400
C 	C 	0.00669 0.33638 0.48884 -0.01500
C 	C 	0.00520 0.20400 0.51697 -0.05800
O 	O 	0.99812 0.09167 0.22174 -0.39300
Cl	Cl	0.01960 0.40834 0.97195 -0.20400
