data_crystal

_cell_length_a 23.32785
_cell_length_b 23.49651
_cell_length_c 26.65792
_cell_angle_alpha 95.46739
_cell_angle_beta  95.46906
_cell_angle_gamma 125.92047

_symmetry_space_group_name_	'P 1'
_symmetry_space_group_name_H-M	'P 1'

loop_
_symmetry_equiv_pos_as_xyz
  x,y,z

loop_
_atom_site_label
_atom_site_type_symbol
_atom_site_fract_x
_atom_site_fract_y
_atom_site_fract_z
_atom_site_charge
C 	C 	0.97128 0.04197 0.99772 0.05000
C 	C 	0.04429 0.07888 0.99418 -0.09000
C 	C 	0.07360 0.04129 0.98870 0.05800
C 	C 	0.03007 0.96729 0.98671 -0.09400
C 	C 	0.95751 0.93064 0.99041 0.06100
C 	C 	0.92806 0.96787 0.99591 -0.08700
H 	H 	0.07792 0.13625 0.99570 0.05900
H 	H 	0.05282 0.93830 0.98263 0.06300
H 	H 	0.87168 0.93931 0.99866 0.05800
C 	C 	0.92406 0.99806 0.44353 0.04300
C 	C 	0.99884 0.04081 0.44603 -0.06300
C 	C 	0.03589 0.01106 0.45099 0.03600
C 	C 	0.99842 0.93860 0.45343 -0.06500
C 	C 	0.92375 0.89540 0.45079 0.04600
C 	C 	0.88624 0.92504 0.44587 -0.07500
H 	H 	0.02808 0.09712 0.44421 0.05300
H 	H 	0.02732 0.91567 0.45713 0.05600
H 	H 	0.82838 0.89174 0.44391 0.05900
Cu	Cu	0.64137 0.23914 0.00679 0.93400
Cu	Cu	0.70092 0.24249 0.89958 0.87900
Cu	Cu	0.68162 0.35128 0.93958 0.90100
Cu	Cu	0.63793 0.36888 0.03860 0.90400
C 	C 	0.65465 0.28953 0.11326 0.39700
O 	O 	0.53517 0.19411 0.00391 -0.33700
C 	C 	0.66349 0.30296 0.82789 0.38700
O 	O 	0.69768 0.34994 0.01118 -0.63500
O 	O 	0.63336 0.24636 0.93338 -0.64200
O 	O 	0.68890 0.19088 0.00582 -0.34600
O 	O 	0.76825 0.26527 0.95832 -0.42500
O 	O 	0.62335 0.31870 0.09807 -0.36800
O 	O 	0.73389 0.45392 0.95070 -0.36200
C 	C 	0.72584 0.49188 0.98518 0.28500
C 	C 	0.50633 0.22358 0.98501 0.28000
O 	O 	0.54842 0.28970 0.97776 -0.38700
O 	O 	0.67748 0.46137 0.01506 -0.37500
O 	O 	0.66366 0.25117 0.07997 -0.34400
C 	C 	0.75013 0.21966 0.98943 0.27300
O 	O 	0.68200 0.35497 0.86567 -0.35900
O 	O 	0.65643 0.24522 0.83704 -0.39600
H 	H 	0.74891 0.38180 0.02846 0.18500
H 	H 	0.58367 0.21619 0.91317 0.18700
Cu	Cu	0.73416 0.33414 0.43601 0.93100
Cu	Cu	0.73428 0.27855 0.54442 0.88100
Cu	Cu	0.62237 0.29464 0.50457 0.90200
Cu	Cu	0.60086 0.33434 0.40446 0.90500
C 	C 	0.67634 0.31229 0.32966 0.38900
O 	O 	0.77788 0.43927 0.43743 -0.34300
C 	C 	0.67358 0.31540 0.61629 0.38600
O 	O 	0.62240 0.27719 0.43284 -0.63700
O 	O 	0.72821 0.34378 0.50966 -0.63800
O 	O 	0.78319 0.28707 0.43732 -0.35200
O 	O 	0.70987 0.21004 0.48642 -0.42800
O 	O 	0.64891 0.34558 0.34413 -0.36800
O 	O 	0.51874 0.24134 0.49452 -0.36100
C 	C 	0.47915 0.24666 0.45916 0.29200
C 	C 	0.74735 0.46732 0.45580 0.28400
O 	O 	0.68125 0.42507 0.46390 -0.38500
O 	O 	0.50880 0.29514 0.42956 -0.37800
O 	O 	0.72094 0.31037 0.36275 -0.33600
C 	C 	0.75461 0.22681 0.45450 0.28900
O 	O 	0.62050 0.29632 0.57886 -0.35800
O 	O 	0.73225 0.32395 0.60660 -0.39500
H 	H 	0.59071 0.22602 0.41630 0.18200
H 	H 	0.75833 0.39348 0.52920 0.18800
C 	C 	0.60267 0.26101 0.68456 0.26700
C 	C 	0.66364 0.31946 0.66995 -0.20500
C 	C 	0.71943 0.37737 0.70781 0.27000
C 	C 	0.71689 0.37440 0.75983 0.26800
C 	C 	0.65868 0.31327 0.77439 -0.20500
C 	C 	0.60032 0.25786 0.73657 0.27000
F 	F 	0.54243 0.19978 0.75021 -0.40100
F 	F 	0.54760 0.20532 0.64837 -0.40200
F 	F 	0.77297 0.42910 0.79601 -0.40200
F 	F 	0.77730 0.43547 0.69418 -0.40000
C 	C 	0.73477 0.33057 0.25300 0.27500
C 	C 	0.67208 0.29416 0.27437 -0.20000
C 	C 	0.60436 0.24837 0.24187 0.26700
C 	C 	0.59898 0.24304 0.18868 0.27600
C 	C 	0.66127 0.28351 0.16753 -0.20200
C 	C 	0.72930 0.32516 0.19968 0.27000
F 	F 	0.78994 0.36333 0.17949 -0.40200
F 	F 	0.80067 0.37447 0.28395 -0.39100
F 	F 	0.53300 0.20070 0.15772 -0.39900
F 	F 	0.54356 0.21123 0.26201 -0.41200
C 	C 	0.83202 0.68543 0.45472 0.04100
C 	C 	0.85275 0.65212 0.42282 -0.06000
C 	C 	0.82794 0.58198 0.42484 0.01800
C 	C 	0.88628 0.82047 0.45234 -0.01500
C 	C 	0.76272 0.57868 0.49162 0.01700
C 	C 	0.78767 0.64888 0.48954 -0.06200
C 	C 	0.85974 0.75855 0.45358 -0.01200
C 	C 	0.78191 0.54442 0.45876 -0.07800
H 	H 	0.88786 0.68043 0.39629 0.06000
H 	H 	0.84291 0.55628 0.39905 0.05800
H 	H 	0.72779 0.55065 0.51830 0.04300
H 	H 	0.77237 0.67469 0.51492 0.05600
C 	C 	0.82978 0.09954 0.43451 0.04300
C 	C 	0.87335 0.17117 0.42845 -0.06300
C 	C 	0.84755 0.21196 0.43218 0.02000
C 	C 	0.88697 0.03003 0.43959 -0.01400
C 	C 	0.73319 0.10855 0.44565 0.01800
C 	C 	0.75917 0.06795 0.44202 -0.06500
C 	C 	0.85952 0.06035 0.43685 -0.01400
C 	C 	0.77794 0.18141 0.44220 -0.08400
H 	H 	0.92789 0.19585 0.42229 0.05800
H 	H 	0.88263 0.26789 0.42919 0.04900
H 	H 	0.67890 0.08383 0.45239 0.04000
H 	H 	0.72493 0.01245 0.44625 0.05500
C 	C 	0.25275 0.13037 0.45602 0.04300
C 	C 	0.28042 0.15040 0.41125 -0.06200
C 	C 	0.35424 0.18774 0.41218 0.01900
C 	C 	0.11243 0.05459 0.45299 -0.01300
C 	C 	0.37304 0.18511 0.50286 0.02000
C 	C 	0.29913 0.14770 0.50180 -0.06000
C 	C 	0.17647 0.08968 0.45451 -0.01400
C 	C 	0.40104 0.20544 0.45802 -0.07500
H 	H 	0.24471 0.13670 0.37565 0.05700
H 	H 	0.37500 0.20255 0.37722 0.04400
H 	H 	0.40851 0.19893 0.53861 0.06300
H 	H 	0.27796 0.13211 0.53652 0.06200
C 	C 	0.83768 0.71570 0.98677 0.03100
C 	C 	0.82135 0.66964 0.94134 -0.05700
C 	C 	0.78504 0.59655 0.94075 0.01900
C 	C 	0.91362 0.85481 0.98906 -0.02400
C 	C 	0.78109 0.61543 0.03114 0.02500
C 	C 	0.81737 0.68848 0.03160 -0.05400
C 	C 	0.87835 0.79134 0.98797 -0.00700
C 	C 	0.76483 0.56904 0.98572 -0.08300
H 	H 	0.83711 0.69047 0.90656 0.06100
H 	H 	0.77219 0.56133 0.90529 0.06300
H 	H 	0.76624 0.59504 0.06617 0.03800
H 	H 	0.83023 0.72395 0.06692 0.05600
C 	C 	0.87342 0.13963 0.00809 0.05200
C 	C 	0.80193 0.09859 0.01561 -0.06300
C 	C 	0.76253 0.12600 0.01215 0.01500
C 	C 	0.93988 0.07941 0.00214 -0.00700
C 	C 	0.86725 0.23705 0.99605 0.00700
C 	C 	0.90645 0.20943 0.99942 -0.07100
C 	C 	0.91076 0.10801 0.00530 -0.01500
C 	C 	0.79438 0.19472 0.00093 -0.06400
H 	H 	0.77620 0.04470 0.02269 0.05800
H 	H 	0.70661 0.09282 0.01635 0.04900
H 	H 	0.89304 0.29069 0.98847 0.04400
H 	H 	0.96192 0.24173 0.99406 0.05600
C 	C 	0.28495 0.13384 0.98389 0.03100
C 	C 	0.32224 0.18056 0.95061 -0.05900
C 	C 	0.39371 0.20752 0.94927 0.01600
C 	C 	0.14874 0.07824 0.98649 -0.02400
C 	C 	0.39010 0.13961 0.01371 0.02700
C 	C 	0.31874 0.11280 0.01496 -0.04800
C 	C 	0.21109 0.10517 0.98498 -0.00700
C 	C 	0.42841 0.18796 0.98138 -0.08300
H 	H 	0.29608 0.19625 0.92594 0.05500
H 	H 	0.42232 0.24420 0.92377 0.04300
H 	H 	0.41613 0.12431 0.03892 0.06800
H 	H 	0.28989 0.07602 0.04038 0.06300
