data_crystal

_cell_length_a 16.34277
_cell_length_b 16.36421
_cell_length_c 36.74136
_cell_angle_alpha 89.88303
_cell_angle_beta  89.88524
_cell_angle_gamma 119.45582

_symmetry_space_group_name_	'P 1'
_symmetry_space_group_name_H-M	'P 1'

loop_
_symmetry_equiv_pos_as_xyz
  x,y,z

loop_
_atom_site_label
_atom_site_type_symbol
_atom_site_fract_x
_atom_site_fract_y
_atom_site_fract_z
_atom_site_charge
Ni	Ni	0.09439 0.10171 0.75118 1.11700
O 	O 	0.00690 0.97656 0.76799 -0.68100
O 	O 	0.02717 0.18363 0.20875 -0.37100
O 	O 	0.04283 0.87462 0.27388 -0.36900
O 	O 	0.00701 0.88622 0.19757 -0.38500
H 	H 	0.02618 0.24233 0.34870 0.06900
C 	C 	0.03917 0.39683 0.49306 -0.07700
C 	C 	0.09748 0.47886 0.55002 0.33200
H 	H 	0.05158 0.38178 0.46558 0.08800
C 	C 	0.08271 0.62350 0.96038 0.32000
Ni	Ni	0.04759 0.89038 0.78198 1.11700
C 	C 	0.07649 0.17057 0.18348 0.31100
C 	C 	0.09014 0.21596 0.28467 0.31400
C 	C 	0.09595 0.90890 0.19801 0.31600
C 	C 	0.09944 0.93897 0.29776 0.28000
C 	C 	0.00864 0.21998 0.13296 -0.01700
C 	C 	0.06215 0.75890 0.16493 0.12700
H 	H 	0.03495 0.62331 0.14621 0.06500
C 	C 	0.08748 0.30551 0.33908 -0.04100
N 	N 	0.07508 0.39134 0.38932 -0.19900
H 	H 	0.01364 0.33160 0.39778 0.11400
C 	C 	0.05023 0.82561 0.34945 -0.02000
C 	C 	0.11339 0.46542 0.51348 -0.11600
C 	C 	0.07393 0.64971 0.99606 -0.11700
O 	O 	0.05743 0.18084 0.78278 -0.35700
O 	O 	0.00791 0.10306 0.71183 -0.35700
C 	C 	0.01898 0.27097 0.10079 0.12400
C 	C 	0.08468 0.21198 0.14679 -0.09600
C 	C 	0.08433 0.68678 0.16029 -0.04500
H 	H 	0.09409 0.45478 0.40242 0.10100
C 	C 	0.07066 0.78717 0.38008 0.10800
N 	N 	0.00229 0.70666 0.39537 -0.18800
H 	H 	0.01463 0.67978 0.41927 0.10400
C 	C 	0.00569 0.43935 0.56324 -0.03800
H 	H 	0.04036 0.74997 0.63988 0.11200
O 	O 	0.11166 0.11486 0.18972 -0.37200
H 	H 	0.02432 0.51047 0.92132 0.10100
C 	C 	0.01281 0.53696 0.94669 -0.06000
H 	H 	0.07647 0.34451 0.79916 0.05600
H 	H 	0.10817 0.50133 0.81149 0.09900
F 	F 	0.16961 0.54099 0.57093 -0.43700
F 	F 	0.16539 0.67187 0.94222 -0.44200
C 	C 	0.23132 0.06409 0.79324 0.30500
C 	C 	0.17471 0.98825 0.71664 0.27400
O 	O 	0.16772 0.98597 0.80830 -0.37800
O 	O 	0.20808 0.12840 0.78372 -0.36300
O 	O 	0.12266 0.90813 0.73402 -0.37700
O 	O 	0.14532 0.05020 0.71217 -0.36300
C 	C 	0.19950 0.77751 0.41272 0.29700
C 	C 	0.19158 0.54243 0.49426 0.32700
O 	O 	0.22808 0.79739 0.44736 -0.36100
O 	O 	0.22492 0.72818 0.39172 -0.38400
O 	O 	0.18978 0.62252 0.49165 -0.35900
O 	O 	0.27005 0.53775 0.48850 -0.36300
H 	H 	0.25277 0.63915 0.43310 0.16100
C 	C 	0.21600 0.67143 0.13613 0.31500
C 	C 	0.14371 0.41083 0.06923 0.31200
C 	C 	0.14444 0.65801 0.02203 0.35400
O 	O 	0.21657 0.73997 0.03059 -0.36800
O 	O 	0.20388 0.68713 0.10247 -0.38400
O 	O 	0.16573 0.47554 0.09353 -0.37500
O 	O 	0.18435 0.43468 0.03707 -0.33700
O 	O 	0.14499 0.58173 0.03079 -0.39000
Ni	Ni	0.13077 0.07907 0.24078 1.12400
O 	O 	0.15636 0.98146 0.21737 -0.39000
O 	O 	0.14562 0.03016 0.28932 -0.36500
O 	O 	0.14761 0.20270 0.26245 -0.37700
C 	C 	0.17105 0.28441 0.09103 -0.05000
C 	C 	0.10611 0.31393 0.08247 -0.07500
C 	C 	0.16717 0.24408 0.12522 0.12000
H 	H 	0.25569 0.24250 0.16627 0.09200
C 	C 	0.21226 0.85101 0.19551 -0.03900
C 	C 	0.12488 0.84054 0.18456 -0.09900
C 	C 	0.17714 0.70535 0.16492 -0.09400
C 	C 	0.23870 0.78395 0.18592 0.10600
H 	H 	0.25984 0.91117 0.21160 0.05300
C 	C 	0.24830 0.46827 0.31522 -0.04200
C 	C 	0.21011 0.46684 0.34963 -0.08700
C 	C 	0.12416 0.38766 0.36005 0.11900
C 	C 	0.12811 0.30521 0.30542 -0.08700
C 	C 	0.20377 0.39046 0.29190 0.11200
N 	N 	0.22911 0.40027 0.25621 -0.19900
H 	H 	0.18379 0.35450 0.23657 0.10600
C 	C 	0.22712 0.92216 0.38155 -0.04500
C 	C 	0.16234 0.83268 0.39456 -0.08400
C 	C 	0.12134 0.90636 0.33221 -0.08800
C 	C 	0.21208 0.95380 0.34807 0.10600
C 	C 	0.23794 0.01401 0.65387 -0.03000
C 	C 	0.24438 0.99162 0.69026 -0.09100
H 	H 	0.17152 0.00374 0.64342 0.06700
H 	H 	0.29796 0.99198 0.84389 0.06200
N 	N 	0.24527 0.24483 0.13837 -0.19900
H 	H 	0.26970 0.91298 0.74951 0.09400
C 	C 	0.26671 0.54040 0.37657 0.29300
O 	O 	0.27491 0.51268 0.40971 -0.37700
Ni	Ni	0.25704 0.57163 0.01893 1.13300
O 	O 	0.26468 0.62912 0.14383 -0.37000
H 	H 	0.23296 0.30731 0.07423 0.09800
N 	N 	0.28675 0.02214 0.32966 -0.19100
H 	H 	0.28723 0.02526 0.30129 0.10300
H 	H 	0.24854 0.06973 0.58655 0.12100
Ni	Ni	0.30583 0.74911 0.47835 1.11700
H 	H 	0.29525 0.96041 0.39432 0.06100
F 	F 	0.26661 0.31438 0.00530 -0.43500
H 	H 	0.28996 0.45992 0.24726 0.08600
O 	O 	0.31892 0.68462 0.43841 -0.71500
Ni	Ni	0.31314 0.75061 0.06826 1.12200
H 	H 	0.31177 0.53029 0.30628 0.05300
N 	N 	0.03669 0.48037 0.80981 -0.18700
O 	O 	0.32350 0.62821 0.36497 -0.38300
Ni	Ni	0.30569 0.56468 0.10360 1.11200
O 	O 	0.31967 0.69093 0.98703 -0.33800
O 	O 	0.31757 0.63736 0.06220 -0.71200
H 	H 	0.30158 0.25929 0.12100 0.10000
N 	N 	0.32350 0.79605 0.19663 -0.20000
N 	N 	0.31302 0.08272 0.59727 -0.20000
N 	N 	0.33025 0.95286 0.73412 -0.19800
H 	H 	0.32552 0.87801 0.96375 0.11100
C 	C 	0.33258 0.09084 0.79921 -0.08400
C 	C 	0.31894 0.05830 0.63215 0.12400
H 	H 	0.32823 0.54767 0.55852 0.13800
C 	C 	0.32752 0.99324 0.70211 0.08800
C 	C 	0.35372 0.04405 0.82699 -0.02200
H 	H 	0.32139 0.16907 0.73651 0.09900
H 	H 	0.34090 0.74316 0.19321 0.10400
H 	H 	0.34995 0.06434 0.34319 0.10000
H 	H 	0.33725 0.00290 0.46043 0.09500
Ni	Ni	0.35677 0.74867 0.39318 1.12100
Ni	Ni	0.36539 0.60004 0.44662 1.12400
H 	H 	0.34897 0.30270 0.94594 0.10400
O 	O 	0.34972 0.48297 0.07235 -0.36600
O 	O 	0.37165 0.71532 0.52034 -0.34700
H 	H 	0.37115 0.85705 0.21025 0.08400
F 	F 	0.36544 0.43019 0.59324 -0.43100
C 	C 	0.35954 0.36827 0.99780 0.32900
O 	O 	0.36727 0.55250 0.01512 -0.37000
H 	H 	0.37187 0.11186 0.58018 0.12800
H 	H 	0.01599 0.53104 0.81306 0.10700
C 	C 	0.37871 0.49591 0.03741 0.33600
H 	H 	0.38460 0.66287 0.05630 0.17300
C 	C 	0.39316 0.77437 0.99570 0.34300
N 	N 	0.38925 0.18846 0.74486 -0.19800
O 	O 	0.39462 0.88269 0.40851 -0.38200
F 	F 	0.39046 0.15760 0.49697 -0.44100
H 	H 	0.39328 0.95855 0.74337 0.08400
C 	C 	0.39964 0.90325 0.95903 -0.07500
H 	H 	0.41050 0.95859 0.87210 0.10400
C 	C 	0.39426 0.35930 0.96396 -0.07600
C 	C 	0.40241 0.57212 0.56188 -0.09500
C 	C 	0.40629 0.15071 0.77496 0.11100
O 	O 	0.41116 0.80414 0.02968 -0.38300
C 	C 	0.40646 0.07993 0.64730 -0.09500
O 	O 	0.41126 0.78875 0.10955 -0.37300
C 	C 	0.40883 0.03887 0.68052 -0.01900
C 	C 	0.41239 0.05048 0.46002 -0.09100
F 	F 	0.42112 0.05461 0.94441 -0.42300
C 	C 	0.41764 0.44122 0.02155 -0.12100
C 	C 	0.00258 0.32320 0.79671 -0.00400
O 	O 	0.43110 0.86958 0.46709 -0.36500
C 	C 	0.43104 0.51501 0.58005 0.34900
C 	C 	0.43861 0.92176 0.43892 0.34900
C 	C 	0.43828 0.84542 0.96725 -0.12200
H 	H 	0.98236 0.78029 0.96699 0.10200
O 	O 	0.99784 0.15939 0.28442 -0.38900
H 	H 	0.99106 0.80337 0.69151 0.05200
H 	H 	0.98074 0.84151 0.90685 0.06400
H 	H 	0.99049 0.95279 0.74292 0.10400
H 	H 	0.95275 0.31796 0.06420 0.11300
N 	N 	0.94679 0.28225 0.08855 -0.20600
H 	H 	0.99313 0.45686 0.59036 0.07600
H 	H 	0.99700 0.26250 0.70971 0.05000
H 	H 	0.97959 0.79121 0.33846 0.03700
O 	O 	0.99907 0.01350 0.25035 -0.72100
H 	H 	0.99908 0.01697 0.27711 0.16200
C 	C 	0.98350 0.61249 0.01022 -0.10700
H 	H 	0.97233 0.64044 0.03530 0.08800
H 	H 	0.94268 0.18938 0.14780 0.04000
H 	H 	0.88317 0.25324 0.10281 0.10100
N 	N 	0.98757 0.75431 0.14682 -0.21000
H 	H 	0.93509 0.67162 0.38400 0.08300
C 	C 	0.59346 0.21430 0.83754 0.28300
C 	C 	0.77451 0.53981 0.92675 0.29300
C 	C 	0.83722 0.39676 0.83061 0.31500
C 	C 	0.53340 0.38180 0.92970 0.34500
C 	C 	0.86153 0.38533 0.95705 0.34200
C 	C 	0.61995 0.13442 0.94168 0.31300
Ni	Ni	0.67875 0.40651 0.86907 1.11200
Ni	Ni	0.66991 0.33493 0.95457 1.13200
Ni	Ni	0.76506 0.27439 0.89160 1.11900
O 	O 	0.58037 0.28661 0.84484 -0.36400
O 	O 	0.67304 0.21137 0.84699 -0.36400
O 	O 	0.78422 0.34233 0.97530 -0.36100
O 	O 	0.79086 0.50765 0.89689 -0.37700
O 	O 	0.72628 0.48102 0.95405 -0.30500
O 	O 	0.70015 0.16078 0.92418 -0.38100
O 	O 	0.76241 0.40459 0.82498 -0.36900
O 	O 	0.85620 0.38748 0.86353 -0.39000
O 	O 	0.60800 0.19408 0.96277 -0.33000
O 	O 	0.58148 0.42993 0.90047 -0.36200
O 	O 	0.54278 0.31277 0.94186 -0.37500
O 	O 	0.87195 0.34523 0.92767 -0.36500
O 	O 	0.68589 0.32342 0.90387 -0.71400
H 	H 	0.62457 0.26666 0.90128 0.16600
C 	C 	0.55575 0.47119 0.58848 0.34200
C 	C 	0.74850 0.27993 0.65821 0.31300
C 	C 	0.77902 0.55737 0.62163 0.31200
C 	C 	0.49175 0.16353 0.63497 0.30200
C 	C 	0.83615 0.36823 0.54970 0.36300
C 	C 	0.58358 0.24333 0.51655 0.34500
Ni	Ni	0.62888 0.36915 0.64107 1.11300
Ni	Ni	0.66329 0.23350 0.58659 1.12600
Ni	Ni	0.69648 0.42990 0.55677 1.12400
O 	O 	0.56850 0.45123 0.62278 -0.35900
O 	O 	0.57628 0.43551 0.55981 -0.36900
O 	O 	0.76425 0.28313 0.54824 -0.36600
O 	O 	0.68193 0.29547 0.67085 -0.37100
O 	O 	0.76730 0.28830 0.62351 -0.38500
O 	O 	0.64819 0.33465 0.51482 -0.36300
O 	O 	0.76254 0.48249 0.63980 -0.38400
O 	O 	0.75235 0.55064 0.58743 -0.37600
O 	O 	0.56911 0.19272 0.54656 -0.37600
O 	O 	0.50109 0.24631 0.64356 -0.36500
O 	O 	0.56548 0.15469 0.62534 -0.37700
O 	O 	0.82399 0.43997 0.55727 -0.39100
O 	O 	0.64018 0.33537 0.59334 -0.71800
H 	H 	0.57366 0.30575 0.58610 0.17400
C 	C 	0.86505 0.78287 0.74370 0.29400
C 	C 	0.90218 0.84038 0.84167 0.30800
C 	C 	0.96847 0.15597 0.79003 0.27500
C 	C 	0.91736 0.07503 0.71657 0.29100
Ni	Ni	0.88259 0.95170 0.78094 1.10800
O 	O 	0.93184 0.77441 0.76020 -0.38100
O 	O 	0.81898 0.81776 0.76151 -0.39000
O 	O 	0.86011 0.99316 0.73200 -0.41000
O 	O 	0.98461 0.85068 0.83277 -0.37400
O 	O 	0.88019 0.90484 0.83242 -0.37700
O 	O 	0.91397 0.07403 0.80511 -0.36900
C 	C 	0.43966 0.69562 0.51489 0.35500
C 	C 	0.52089 0.72602 0.39731 0.32000
O 	O 	0.46874 0.63890 0.40869 -0.37600
O 	O 	0.46365 0.68817 0.48169 -0.37200
O 	O 	0.49119 0.78625 0.40057 -0.37800
C 	C 	0.47108 0.75564 0.11430 0.29100
O 	O 	0.44076 0.66442 0.11660 -0.37400
C 	C 	0.81179 0.90541 0.29358 0.29900
C 	C 	0.81473 0.91362 0.19286 0.29500
Ni	Ni	0.92966 0.07330 0.24070 1.11200
Ni	Ni	0.94135 0.88171 0.24391 1.11300
O 	O 	0.81404 0.97123 0.27121 -0.38400
O 	O 	0.86730 0.86849 0.28930 -0.39300
O 	O 	0.87769 0.00202 0.19270 -0.37500
O 	O 	0.82211 0.85449 0.21536 -0.38000
C 	C 	0.57975 0.87553 0.15754 -0.04200
C 	C 	0.56724 0.81895 0.12721 -0.08700
C 	C 	0.64161 0.80371 0.11597 0.11400
C 	C 	0.72005 0.83160 0.13861 -0.04100
C 	C 	0.72951 0.88226 0.17046 -0.09300
C 	C 	0.66139 0.90966 0.17879 0.10200
N 	N 	0.67365 0.96827 0.20699 -0.20500
H 	H 	0.52423 0.88997 0.16556 0.05100
H 	H 	0.77473 0.81553 0.13098 0.05100
N 	N 	0.63753 0.76183 0.08358 -0.19900
H 	H 	0.61957 0.98131 0.21474 0.08300
H 	H 	0.73848 0.00669 0.21965 0.08600
H 	H 	0.58380 0.74732 0.06499 0.11300
H 	H 	0.69050 0.74692 0.07604 0.10400
H 	H 	0.98688 0.81531 0.13896 0.10400
H 	H 	0.93602 0.69058 0.13606 0.09200
C 	C 	0.75610 0.87969 0.35711 -0.04200
C 	C 	0.73500 0.86031 0.32010 -0.08900
C 	C 	0.64800 0.78261 0.30981 0.11000
C 	C 	0.58424 0.72614 0.33681 -0.04200
C 	C 	0.60181 0.75107 0.37356 -0.09700
C 	C 	0.69093 0.82450 0.38395 0.12800
N 	N 	0.71376 0.84271 0.41971 -0.19900
H 	H 	0.82455 0.93620 0.36506 0.05200
H 	H 	0.51643 0.66839 0.32893 0.05100
N 	N 	0.62437 0.76324 0.27413 -0.20200
H 	H 	0.77847 0.89914 0.42740 0.11200
H 	H 	0.66866 0.79916 0.44011 0.12900
H 	H 	0.66564 0.80891 0.25352 0.10700
H 	H 	0.56163 0.70377 0.26676 0.08800
C 	C 	0.60634 0.17141 0.46139 -0.09400
C 	C 	0.54687 0.19155 0.48258 -0.11700
C 	C 	0.44926 0.13562 0.47868 0.33800
C 	C 	0.47300 0.02199 0.44471 -0.12300
C 	C 	0.56966 0.08570 0.44304 0.35000
F 	F 	0.62880 0.06103 0.42664 -0.42900
H 	H 	0.68181 0.21650 0.46283 0.13000
C 	C 	0.93004 0.38453 0.54032 -0.15600
C 	C 	0.94708 0.35730 0.50618 0.33400
F 	F 	0.87437 0.29949 0.48451 -0.44000
C 	C 	0.46917 0.65567 0.54485 -0.12300
C 	C 	0.56514 0.68765 0.55046 0.33700
C 	C 	0.59372 0.63145 0.56925 -0.09400
C 	C 	0.52680 0.54216 0.58197 -0.12900
H 	H 	0.66797 0.65442 0.57156 0.09300
F 	F 	0.63075 0.77003 0.53548 -0.44200
C 	C 	0.73548 0.13184 0.67999 -0.05000
C 	C 	0.78454 0.23021 0.68064 -0.09500
C 	C 	0.87903 0.27759 0.69237 0.11500
C 	C 	0.92502 0.22612 0.70013 -0.04200
C 	C 	0.87650 0.12768 0.69838 -0.09200
C 	C 	0.78274 0.08082 0.68558 0.12800
N 	N 	0.74052 0.98883 0.67595 -0.20700
H 	H 	0.66305 0.09549 0.67091 0.05700
N 	N 	0.92523 0.37222 0.69697 -0.20000
H 	H 	0.66934 0.95288 0.66903 0.09100
H 	H 	0.77965 0.95470 0.67220 0.10700
H 	H 	0.89072 0.41118 0.69383 0.10200
H 	H 	0.99545 0.40728 0.70523 0.09400
H 	H 	0.47539 0.04963 0.69102 0.05000
C 	C 	0.91895 0.76079 0.68294 -0.04800
C 	C 	0.84582 0.75677 0.70453 -0.09800
C 	C 	0.75338 0.71132 0.69033 0.11500
C 	C 	0.73327 0.65319 0.65969 -0.05000
C 	C 	0.80471 0.64396 0.64212 -0.09700
C 	C 	0.89904 0.70435 0.65186 0.11800
N 	N 	0.97058 0.70718 0.63194 -0.21100
H 	H 	0.66173 0.61384 0.65005 0.05900
N 	N 	0.68550 0.72709 0.70440 -0.20000
H 	H 	0.95762 0.66936 0.60775 0.10500
H 	H 	0.70280 0.78933 0.71800 0.10200
H 	H 	0.61520 0.68380 0.69723 0.09500
C 	C 	0.93026 0.48374 0.96703 -0.15200
C 	C 	0.91310 0.52592 0.99764 0.33700
F 	F 	0.83053 0.48142 0.01617 -0.44800
C 	C 	0.53313 0.87725 0.95914 0.34700
C 	C 	0.59188 0.97088 0.94910 -0.12100
C 	C 	0.55573 0.03290 0.94659 -0.08100
C 	C 	0.45843 0.99749 0.94969 0.29400
H 	H 	0.66632 0.99634 0.94530 0.10500
F 	F 	0.57053 0.82041 0.96495 -0.44000
C 	C 	0.51372 0.49003 0.01440 -0.08600
C 	C 	0.48878 0.41910 0.95446 -0.13300
C 	C 	0.54594 0.48952 0.97934 0.34400
F 	F 	0.62860 0.56211 0.96871 -0.44500
H 	H 	0.56013 0.54386 0.03321 0.09400
C 	C 	0.81463 0.27446 0.78621 -0.04900
C 	C 	0.87552 0.36108 0.80184 -0.09500
C 	C 	0.97259 0.38989 0.80230 0.07800
C 	C 	0.93680 0.22855 0.78991 -0.10700
C 	C 	0.84074 0.20439 0.78360 0.10900
N 	N 	0.77350 0.11532 0.77537 -0.19700
H 	H 	0.74285 0.25701 0.78046 0.06100
H 	H 	0.70374 0.09939 0.77184 0.09300
H 	H 	0.78878 0.06164 0.77138 0.08600
C 	C 	0.49915 0.16991 0.78210 -0.04300
C 	C 	0.52056 0.14035 0.81495 -0.08800
C 	C 	0.44682 0.06436 0.83312 0.11400
N 	N 	0.46525 0.01457 0.85816 -0.19000
H 	H 	0.55621 0.21958 0.76498 0.05000
H 	H 	0.53411 0.02885 0.86279 0.10500
H 	H 	0.44477 0.23442 0.72810 0.09300
C 	C 	0.72176 0.64493 0.90054 -0.05000
C 	C 	0.78288 0.63404 0.92443 -0.03800
C 	C 	0.87098 0.71300 0.93055 0.11300
C 	C 	0.90924 0.78442 0.90407 -0.03100
C 	C 	0.85494 0.78155 0.87385 -0.08700
C 	C 	0.75792 0.71475 0.87352 0.11800
N 	N 	0.69995 0.71543 0.84713 -0.20000
H 	H 	0.64765 0.59513 0.90094 0.09200
N 	N 	0.91467 0.72415 0.96285 -0.19900
H 	H 	0.62889 0.66434 0.84695 0.09600
H 	H 	0.72405 0.76647 0.82678 0.09500
H 	H 	0.87777 0.68195 0.98502 0.12200
