data_crystal

_cell_length_a 22.83342
_cell_length_b 22.63516
_cell_length_c 26.91692
_cell_angle_alpha 90.00125
_cell_angle_beta  90.00688
_cell_angle_gamma 92.71893

_symmetry_space_group_name_	'P 1'
_symmetry_space_group_name_H-M	'P 1'

loop_
_symmetry_equiv_pos_as_xyz
  x,y,z

loop_
_atom_site_label
_atom_site_type_symbol
_atom_site_fract_x
_atom_site_fract_y
_atom_site_fract_z
_atom_site_charge
C 	C 	0.86470 0.97300 0.01541 -0.03900
C 	C 	0.87166 0.03391 0.00821 -0.03900
C 	C 	0.91367 0.93749 0.01577 0.00700
C 	C 	0.97055 0.96442 0.00953 -0.00600
C 	C 	0.97769 0.02643 0.00276 -0.00700
C 	C 	0.92797 0.06138 0.00212 0.00600
C 	C 	0.02024 0.92942 0.00998 0.00700
C 	C 	0.07646 0.95674 0.00292 -0.04100
C 	C 	0.03457 0.05335 0.99635 0.00700
C 	C 	0.93549 0.12332 0.99537 -0.00600
C 	C 	0.99173 0.14969 0.99006 -0.04700
C 	C 	0.04129 0.11565 0.99059 -0.00700
C 	C 	0.90703 0.87537 0.02245 -0.00700
C 	C 	0.95655 0.84137 0.02366 -0.04800
C 	C 	0.01275 0.86755 0.01730 -0.00700
C 	C 	0.88481 0.16119 0.99351 0.01200
C 	C 	0.86118 0.17690 0.94756 -0.04000
C 	C 	0.81219 0.21149 0.94579 -0.04000
C 	C 	0.78659 0.23051 0.98996 0.02700
C 	C 	0.81058 0.21529 0.03590 -0.04700
C 	C 	0.85987 0.18115 0.03766 -0.04100
C 	C 	0.09988 0.14636 0.98615 0.01200
C 	C 	0.13651 0.15234 0.02792 -0.04100
C 	C 	0.18796 0.18835 0.02573 -0.04400
C 	C 	0.11564 0.17614 0.94200 -0.04000
C 	C 	0.16629 0.21337 0.94026 -0.04100
C 	C 	0.20194 0.22056 0.98245 0.02700
C 	C 	0.84844 0.84478 0.02639 0.00900
C 	C 	0.82755 0.82473 0.07275 -0.04000
C 	C 	0.77566 0.78943 0.07581 -0.04500
C 	C 	0.74424 0.77410 0.03253 0.02300
C 	C 	0.76452 0.79516 0.98630 -0.03800
C 	C 	0.81648 0.83023 0.98323 -0.03900
C 	C 	0.06333 0.82950 0.01802 0.01000
C 	C 	0.08693 0.80958 0.97330 -0.03900
C 	C 	0.13622 0.77539 0.97393 -0.03900
C 	C 	0.16179 0.76042 0.01930 0.02300
C 	C 	0.13718 0.77893 0.06407 -0.04500
C 	C 	0.08820 0.81358 0.06342 -0.04000
C 	C 	0.08338 0.01760 0.99537 -0.03900
H 	H 	0.88046 0.16183 0.91332 0.04100
H 	H 	0.79380 0.22305 0.91018 0.04500
H 	H 	0.79096 0.22986 0.07016 0.04000
H 	H 	0.87816 0.16940 0.07327 0.04000
H 	H 	0.74048 0.78359 0.95270 0.04700
H 	H 	0.83249 0.84519 0.94727 0.04200
H 	H 	0.76016 0.77363 0.11168 0.04000
H 	H 	0.85213 0.83549 0.10624 0.03900
H 	H 	0.06761 0.82141 0.93813 0.04100
H 	H 	0.15482 0.76088 0.93923 0.04400
H 	H 	0.06991 0.82854 0.09810 0.04000
H 	H 	0.15657 0.76723 0.09924 0.04200
H 	H 	0.12464 0.12982 0.06225 0.04000
H 	H 	0.21617 0.19236 0.05803 0.04100
H 	H 	0.08763 0.17190 0.90958 0.04100
H 	H 	0.17723 0.23742 0.90646 0.04300
H 	H 	0.82089 0.95369 0.02082 0.04300
H 	H 	0.83288 0.05958 0.00754 0.04200
H 	H 	0.99702 0.19730 0.98564 0.04600
H 	H 	0.12698 0.03664 0.98851 0.04200
H 	H 	0.11518 0.93097 0.00299 0.04400
H 	H 	0.95125 0.79388 0.02890 0.04400
C 	C 	0.91945 0.97405 0.50106 -0.03900
C 	C 	0.92260 0.03456 0.49120 -0.04100
C 	C 	0.97088 0.94265 0.50625 0.00600
C 	C 	0.02623 0.97331 0.50180 -0.00600
C 	C 	0.02943 0.03491 0.49211 -0.00700
C 	C 	0.97732 0.06585 0.48741 0.00700
C 	C 	0.07833 0.94247 0.50697 0.00600
C 	C 	0.13305 0.97370 0.50288 -0.03900
C 	C 	0.08477 0.06551 0.48730 0.00700
C 	C 	0.98091 0.12765 0.47887 -0.00800
C 	C 	0.03564 0.15731 0.47310 -0.04700
C 	C 	0.08747 0.12715 0.47754 -0.00800
C 	C 	0.96817 0.88099 0.51586 -0.00700
C 	C 	0.01996 0.85103 0.52127 -0.04700
C 	C 	0.07472 0.88080 0.51624 -0.00700
C 	C 	0.92785 0.16237 0.47835 0.01100
C 	C 	0.90366 0.17968 0.43305 -0.04000
C 	C 	0.85302 0.21197 0.43260 -0.03900
C 	C 	0.82633 0.22714 0.47746 0.02500
C 	C 	0.85043 0.20965 0.52274 -0.04600
C 	C 	0.90129 0.17776 0.52320 -0.04000
C 	C 	0.14419 0.16141 0.47414 0.01100
C 	C 	0.17289 0.18114 0.51757 -0.04000
C 	C 	0.22355 0.21815 0.51450 -0.04600
C 	C 	0.16695 0.17839 0.42758 -0.04000
C 	C 	0.21751 0.21569 0.42449 -0.04000
C 	C 	0.24569 0.23614 0.46797 0.02400
C 	C 	0.91153 0.84654 0.51827 0.01000
C 	C 	0.88754 0.82984 0.56446 -0.04000
C 	C 	0.83710 0.79234 0.56675 -0.04000
C 	C 	0.81025 0.77139 0.52284 0.02500
C 	C 	0.83372 0.78894 0.47666 -0.04600
C 	C 	0.88424 0.82622 0.47440 -0.04000
C 	C 	0.12782 0.84627 0.51848 0.01100
C 	C 	0.15576 0.83008 0.47448 -0.04000
C 	C 	0.20622 0.79771 0.47655 -0.04600
C 	C 	0.22844 0.78035 0.52258 0.02500
C 	C 	0.20027 0.79612 0.56659 -0.03900
C 	C 	0.15008 0.82903 0.56454 -0.04000
C 	C 	0.13620 0.03408 0.49242 -0.04100
H 	H 	0.92400 0.16795 0.39828 0.04100
H 	H 	0.83463 0.22539 0.39749 0.04600
H 	H 	0.83013 0.22140 0.55752 0.03900
H 	H 	0.91987 0.16462 0.55832 0.04000
H 	H 	0.81305 0.77330 0.44257 0.04200
H 	H 	0.90263 0.83872 0.43860 0.04000
H 	H 	0.81933 0.77900 0.60257 0.04800
H 	H 	0.90854 0.84510 0.59852 0.04100
H 	H 	0.13858 0.84302 0.43878 0.04000
H 	H 	0.22777 0.78560 0.44243 0.03800
H 	H 	0.12856 0.84121 0.59865 0.04100
H 	H 	0.21725 0.78286 0.60227 0.04600
H 	H 	0.15549 0.16841 0.55366 0.04000
H 	H 	0.24523 0.23340 0.54826 0.04300
H 	H 	0.14490 0.16356 0.39387 0.04100
H 	H 	0.23422 0.22939 0.38842 0.04700
H 	H 	0.87664 0.95180 0.50463 0.04200
H 	H 	0.88212 0.05688 0.48633 0.04200
H 	H 	0.03796 0.20463 0.46636 0.04500
H 	H 	0.17900 0.05624 0.48849 0.04200
H 	H 	0.17354 0.95143 0.50788 0.04200
H 	H 	0.01761 0.80376 0.52826 0.04500
Ni	Ni	0.44434 0.53123 0.04553 1.09800
O 	O 	0.51291 0.47755 0.03440 -0.70600
Ni	Ni	0.50379 0.46003 0.96095 1.09800
O 	O 	0.45339 0.53450 0.12149 -0.36500
O 	O 	0.46353 0.43599 0.13272 -0.40700
O 	O 	0.49988 0.60598 0.04599 -0.37500
Ni	Ni	0.50101 0.40163 0.06937 1.06700
O 	O 	0.41300 0.64268 0.98734 -0.41100
O 	O 	0.41746 0.38822 0.04340 -0.41700
O 	O 	0.57225 0.40643 0.95441 -0.38500
O 	O 	0.43639 0.51426 0.97209 -0.70500
O 	O 	0.37577 0.58480 0.05039 -0.36800
O 	O 	0.48997 0.45606 0.88571 -0.37200
O 	O 	0.49656 0.55642 0.87620 -0.41000
Ni	Ni	0.45175 0.58948 0.93686 1.06400
H 	H 	0.55162 0.49682 0.04216 0.16200
H 	H 	0.39747 0.49587 0.96360 0.15500
C 	C 	0.40651 0.37626 0.99665 0.30700
O 	O 	0.53311 0.60357 0.96644 -0.41900
C 	C 	0.47307 0.49071 0.14775 0.28400
C 	C 	0.57928 0.36473 0.98752 0.30000
C 	C 	0.54149 0.61712 0.01318 0.31000
C 	C 	0.48796 0.50316 0.85733 0.28800
C 	C 	0.36839 0.62478 0.01575 0.29600
O 	O 	0.44729 0.38603 0.96278 -0.36900
O 	O 	0.53548 0.34788 0.01709 -0.39800
Ni	Ni	0.50138 0.53962 0.54372 1.09900
O 	O 	0.56388 0.48076 0.52940 -0.70600
Ni	Ni	0.55401 0.46897 0.45548 1.10000
O 	O 	0.51619 0.53765 0.61883 -0.36900
O 	O 	0.50169 0.43724 0.62390 -0.40700
O 	O 	0.56324 0.60941 0.54403 -0.37100
Ni	Ni	0.54371 0.40462 0.56151 1.06400
O 	O 	0.47799 0.65721 0.49257 -0.40500
O 	O 	0.46115 0.39837 0.53220 -0.40900
O 	O 	0.61831 0.41087 0.44725 -0.37700
O 	O 	0.48991 0.52699 0.46972 -0.70300
O 	O 	0.43770 0.59823 0.55336 -0.38200
O 	O 	0.54412 0.47094 0.37958 -0.36600
O 	O 	0.54038 0.57071 0.37205 -0.40800
Ni	Ni	0.50740 0.60397 0.43763 1.06500
H 	H 	0.60398 0.49566 0.53813 0.15800
H 	H 	0.44991 0.51112 0.46179 0.15600
C 	C 	0.45142 0.38860 0.48501 0.31100
O 	O 	0.59132 0.60839 0.46288 -0.41400
C 	C 	0.51376 0.48869 0.64514 0.28900
C 	C 	0.62310 0.36803 0.47981 0.29500
C 	C 	0.60371 0.61839 0.50969 0.30700
C 	C 	0.52690 0.51738 0.35529 0.28400
C 	C 	0.43332 0.64185 0.52160 0.30100
O 	O 	0.49347 0.39833 0.45237 -0.37900
O 	O 	0.57797 0.35171 0.50829 -0.40000
C 	C 	0.50740 0.49304 0.69938 -0.08400
C 	C 	0.46315 0.52660 0.72031 0.08500
C 	C 	0.45592 0.52788 0.77211 -0.04200
C 	C 	0.49236 0.49608 0.80312 -0.08600
C 	C 	0.53592 0.46161 0.78212 0.08400
C 	C 	0.54318 0.46039 0.73030 -0.04200
H 	H 	0.42190 0.55372 0.78817 0.02800
H 	H 	0.57693 0.43424 0.71420 0.02900
N 	N 	0.42364 0.55704 0.68864 -0.13400
N 	N 	0.57443 0.42978 0.81369 -0.13400
C 	C 	0.43745 0.62085 0.68893 -0.09200
H 	H 	0.42881 0.64000 0.72611 0.04500
H 	H 	0.40940 0.64238 0.66124 0.06400
H 	H 	0.48401 0.63064 0.67845 0.07100
C 	C 	0.55748 0.36660 0.81436 -0.08900
H 	H 	0.51083 0.35934 0.82559 0.06200
H 	H 	0.58490 0.34407 0.84193 0.05700
H 	H 	0.56436 0.34639 0.77728 0.04100
H 	H 	0.38018 0.54808 0.69972 0.07700
H 	H 	0.61798 0.43636 0.80203 0.07600
C 	C 	0.51253 0.51062 0.30236 -0.08900
C 	C 	0.45656 0.48814 0.28699 0.07200
C 	C 	0.44382 0.48357 0.23620 -0.02900
C 	C 	0.48600 0.50097 0.20056 -0.08800
C 	C 	0.54149 0.52463 0.21596 0.07200
C 	C 	0.55445 0.52866 0.26672 -0.03000
H 	H 	0.40106 0.46593 0.22444 0.05200
H 	H 	0.59720 0.54634 0.27846 0.05300
N 	N 	0.41180 0.47092 0.32263 -0.14000
N 	N 	0.58512 0.54500 0.18039 -0.13900
C 	C 	0.41395 0.40818 0.33524 -0.10000
H 	H 	0.40643 0.38041 0.30157 0.05600
H 	H 	0.37869 0.39628 0.36234 0.05400
H 	H 	0.45674 0.39829 0.35214 0.07100
C 	C 	0.57863 0.60733 0.16813 -0.09900
H 	H 	0.53649 0.61367 0.14872 0.07200
H 	H 	0.61506 0.62272 0.14336 0.06100
H 	H 	0.58099 0.63499 0.20228 0.05400
H 	H 	0.41352 0.49738 0.35451 0.05600
H 	H 	0.58514 0.51883 0.14836 0.06400
C 	C 	0.38149 0.67829 0.52327 -0.12300
C 	C 	0.38652 0.73996 0.51487 0.16100
C 	C 	0.33641 0.77334 0.51741 -0.10300
C 	C 	0.28103 0.74538 0.52457 -0.01300
C 	C 	0.27581 0.68384 0.53189 0.09600
C 	C 	0.32621 0.65099 0.53303 -0.03600
H 	H 	0.34055 0.82095 0.51294 0.06300
H 	H 	0.32210 0.60392 0.54042 0.05000
O 	O 	0.44106 0.76844 0.50933 -0.19800
O 	O 	0.22174 0.65640 0.54197 -0.19300
C 	C 	0.44988 0.78195 0.45859 -0.01200
H 	H 	0.44272 0.74246 0.43422 0.01600
H 	H 	0.49604 0.79837 0.45348 0.03600
H 	H 	0.42133 0.81779 0.44656 0.03000
C 	C 	0.19839 0.63258 0.49736 -0.02300
H 	H 	0.19295 0.66737 0.46871 0.03500
H 	H 	0.15420 0.61224 0.50523 0.04100
H 	H 	0.22571 0.59704 0.48267 0.03200
C 	C 	0.75827 0.73000 0.52508 -0.01200
C 	C 	0.70393 0.74938 0.54185 0.09700
C 	C 	0.65438 0.71025 0.54156 -0.02900
C 	C 	0.65787 0.65311 0.52197 -0.11500
C 	C 	0.71269 0.63285 0.50751 0.16200
C 	C 	0.76238 0.67172 0.50817 -0.10100
H 	H 	0.61254 0.72554 0.55396 0.06200
H 	H 	0.80405 0.65661 0.49522 0.06400
O 	O 	0.69984 0.80571 0.56098 -0.19200
O 	O 	0.71691 0.57622 0.48909 -0.21300
C 	C 	0.68224 0.84338 0.52257 -0.02400
H 	H 	0.71436 0.84540 0.49141 0.03800
H 	H 	0.68019 0.88879 0.53775 0.04200
H 	H 	0.63763 0.82998 0.50866 0.03900
C 	C 	0.73297 0.53910 0.52840 -0.01800
H 	H 	0.77843 0.55061 0.54126 0.03300
H 	H 	0.73208 0.49290 0.51463 0.02700
H 	H 	0.70167 0.54027 0.56011 0.02000
C 	C 	0.67435 0.33087 0.47718 -0.11900
C 	C 	0.66855 0.26912 0.48488 0.16000
C 	C 	0.71870 0.23577 0.48600 -0.10400
C 	C 	0.77417 0.26286 0.47709 -0.01300
C 	C 	0.77982 0.32411 0.46817 0.09700
C 	C 	0.72978 0.35747 0.46691 -0.03600
H 	H 	0.71435 0.18866 0.49324 0.06300
H 	H 	0.73430 0.40438 0.45895 0.05200
O 	O 	0.61425 0.24179 0.49428 -0.20300
O 	O 	0.83396 0.35069 0.45692 -0.19200
C 	C 	0.58962 0.22212 0.44879 -0.01900
H 	H 	0.58322 0.25960 0.42283 0.04900
H 	H 	0.54570 0.20095 0.45632 0.04200
H 	H 	0.61659 0.18826 0.43101 0.03500
C 	C 	0.85851 0.37517 0.50085 -0.02300
H 	H 	0.83184 0.41125 0.51550 0.03200
H 	H 	0.90267 0.39494 0.49204 0.04200
H 	H 	0.86427 0.34085 0.52985 0.03500
C 	C 	0.29711 0.27824 0.46503 -0.01200
C 	C 	0.35145 0.25971 0.44745 0.09500
C 	C 	0.40097 0.29891 0.44882 -0.03000
C 	C 	0.39740 0.35508 0.47031 -0.12200
C 	C 	0.34239 0.37492 0.48471 0.16300
C 	C 	0.29276 0.33605 0.48295 -0.10300
H 	H 	0.44285 0.28421 0.43596 0.05500
H 	H 	0.25103 0.35064 0.49625 0.06400
O 	O 	0.35558 0.20425 0.42661 -0.19500
O 	O 	0.33800 0.43082 0.50461 -0.21300
C 	C 	0.37400 0.16513 0.46364 -0.02300
H 	H 	0.41885 0.17810 0.47724 0.03600
H 	H 	0.37587 0.12036 0.44713 0.04000
H 	H 	0.34249 0.16177 0.49521 0.03800
C 	C 	0.32212 0.46940 0.46626 -0.01700
H 	H 	0.35384 0.46974 0.43482 0.01700
H 	H 	0.32249 0.51501 0.48137 0.02600
H 	H 	0.27691 0.45810 0.45271 0.03300
C 	C 	0.21491 0.72626 0.01988 -0.01300
C 	C 	0.27002 0.75419 0.00982 0.09500
C 	C 	0.31985 0.72053 0.00755 -0.03500
C 	C 	0.31544 0.65946 0.01696 -0.11700
C 	C 	0.26004 0.63155 0.02669 0.16000
C 	C 	0.21039 0.66542 0.02946 -0.10200
H 	H 	0.36203 0.74216 0.99912 0.05600
H 	H 	0.16808 0.64406 0.03795 0.06400
O 	O 	0.27442 0.81364 0.99796 -0.19300
O 	O 	0.25488 0.57157 0.03644 -0.20500
C 	C 	0.28868 0.84598 0.04144 -0.02500
H 	H 	0.25468 0.83891 0.07076 0.03800
H 	H 	0.29063 0.89377 0.03212 0.04100
H 	H 	0.33260 0.83517 0.05589 0.03800
C 	C 	0.24203 0.54148 0.99157 -0.01600
H 	H 	0.20008 0.55525 0.97502 0.03300
H 	H 	0.23658 0.49349 0.99964 0.03900
H 	H 	0.27856 0.54758 0.96437 0.01400
C 	C 	0.69073 0.73492 0.03536 -0.01200
C 	C 	0.63532 0.75753 0.02636 0.09500
C 	C 	0.58609 0.71861 0.02111 -0.02700
C 	C 	0.59137 0.65745 0.02626 -0.11900
C 	C 	0.64623 0.63506 0.03789 0.16100
C 	C 	0.69540 0.67413 0.04361 -0.10400
H 	H 	0.54404 0.73595 0.01174 0.05100
H 	H 	0.73755 0.65687 0.05275 0.06300
O 	O 	0.63014 0.81729 0.01808 -0.19400
O 	O 	0.65072 0.57564 0.04829 -0.22700
C 	C 	0.61696 0.84439 0.06364 -0.02300
H 	H 	0.57403 0.82711 0.07865 0.03700
H 	H 	0.61344 0.89248 0.05713 0.04100
H 	H 	0.65243 0.83921 0.09150 0.03700
C 	C 	0.67036 0.54695 0.00530 -0.02100
H 	H 	0.63953 0.55123 0.97361 0.03100
H 	H 	0.67245 0.49911 0.01359 0.02500
H 	H 	0.71533 0.56346 0.99466 0.03700
C 	C 	0.63162 0.32930 0.98481 -0.12200
C 	C 	0.62745 0.26753 0.99240 0.16000
C 	C 	0.67856 0.23596 0.99559 -0.10300
C 	C 	0.73354 0.26470 0.98816 -0.01400
C 	C 	0.73765 0.32585 0.97851 0.09600
C 	C 	0.68656 0.35757 0.97568 -0.03500
H 	H 	0.67536 0.18882 0.00290 0.06200
H 	H 	0.68987 0.40449 0.96757 0.04700
O 	O 	0.57347 0.23829 0.99878 -0.19600
O 	O 	0.79135 0.35381 0.96800 -0.19300
C 	C 	0.55332 0.21793 0.95200 -0.02100
H 	H 	0.54824 0.25517 0.92552 0.04900
H 	H 	0.50947 0.19548 0.95690 0.05400
H 	H 	0.58271 0.18489 0.93610 0.03500
C 	C 	0.81389 0.37992 0.01202 -0.02400
H 	H 	0.78572 0.41544 0.02547 0.03300
H 	H 	0.85777 0.40079 0.00385 0.04200
H 	H 	0.81978 0.34648 0.04172 0.03600
C 	C 	0.35276 0.34087 0.98398 -0.11900
C 	C 	0.35618 0.28442 0.96232 0.16400
C 	C 	0.30692 0.24489 0.96293 -0.10300
C 	C 	0.25327 0.26274 0.98166 -0.01200
C 	C 	0.24865 0.32090 0.99947 0.09700
C 	C 	0.29835 0.35987 0.99996 -0.03100
H 	H 	0.31046 0.20042 0.94867 0.06400
H 	H 	0.29496 0.40424 0.01442 0.03900
O 	O 	0.40898 0.26593 0.94441 -0.19700
O 	O 	0.19446 0.34136 0.01190 -0.19500
C 	C 	0.41063 0.27564 0.89262 -0.02000
H 	H 	0.37656 0.24746 0.87315 0.03300
H 	H 	0.45387 0.26307 0.87839 0.04000
H 	H 	0.40597 0.32311 0.88316 0.04900
C 	C 	0.18875 0.34095 0.06408 -0.02400
H 	H 	0.19514 0.29646 0.08022 0.03700
H 	H 	0.14359 0.35300 0.07363 0.04200
H 	H 	0.21950 0.37448 0.08152 0.03900
