data_crystal

_cell_length_a 21.44507
_cell_length_b 18.82056
_cell_length_c 53.77346
_cell_angle_alpha 90.67756
_cell_angle_beta  91.54259
_cell_angle_gamma 110.87690

_symmetry_space_group_name_	'P 1'
_symmetry_space_group_name_H-M	'P 1'

loop_
_symmetry_equiv_pos_as_xyz
  x,y,z

loop_
_atom_site_label
_atom_site_type_symbol
_atom_site_fract_x
_atom_site_fract_y
_atom_site_fract_z
_atom_site_charge
O 	O 	0.02594 0.86719 0.70608 -0.69800
Ni	Ni	0.06087 0.91355 0.67382 1.10700
O 	O 	0.07815 0.99847 0.74008 -0.33800
O 	O 	0.05442 0.11960 0.72581 -0.38900
O 	O 	0.09483 0.83019 0.66321 -0.38200
O 	O 	0.01953 0.99021 0.68615 -0.66700
O 	O 	0.11066 0.97796 0.64515 -0.33800
O 	O 	0.12616 0.09961 0.65731 -0.39200
Ni	Ni	0.08437 0.09338 0.69212 1.07100
H 	H 	0.06128 0.86006 0.71688 0.16500
O 	O 	0.14818 0.04860 0.70823 -0.42300
C 	C 	0.05285 0.75949 0.65989 0.33100
C 	C 	0.13858 0.02227 0.73089 0.29100
C 	C 	0.14996 0.04951 0.64815 0.28400
O 	O 	0.19464 0.66645 0.38380 -0.34800
O 	O 	0.21564 0.57499 0.46804 -0.37600
O 	O 	0.16594 0.59024 0.43057 -0.35600
C 	C 	0.16178 0.56561 0.45374 0.39800
O 	O 	0.10926 0.64186 0.98885 -0.33300
O 	O 	0.17828 0.74053 0.03051 -0.35600
C 	C 	0.15958 0.53095 0.01692 0.32500
C 	C 	0.08614 0.58442 0.97244 0.37000
C 	C 	0.21214 0.81161 0.03727 0.30700
O 	O 	0.19900 0.60022 0.02287 -0.39800
O 	O 	0.12511 0.57224 0.95551 -0.37100
O 	O 	0.08247 0.15726 0.24240 -0.40600
Ni	Ni	0.04723 0.18075 0.20801 1.07500
O 	O 	0.08440 0.10532 0.19212 -0.41300
C 	C 	0.06464 0.07657 0.16969 0.32300
C 	C 	0.04547 0.13905 0.26225 0.32200
C 	C 	0.03692 0.46071 0.06825 -0.06800
C 	C 	0.05360 0.39976 0.07707 -0.01100
C 	C 	0.10289 0.37956 0.06525 0.13300
C 	C 	0.13542 0.42067 0.04489 -0.02800
C 	C 	0.12027 0.48317 0.03656 -0.09700
C 	C 	0.07044 0.50285 0.04819 0.18400
C 	C 	0.02125 0.35869 0.09924 0.04400
O 	O 	0.11904 0.31939 0.07351 -0.25900
O 	O 	0.05316 0.56185 0.03956 -0.26100
C 	C 	0.04186 0.39065 0.12320 0.10000
O 	O 	0.08448 0.46473 0.12612 -0.26700
H 	H 	0.08123 0.60714 0.04955 0.16600
H 	H 	0.15541 0.34145 0.08626 0.15000
C 	C 	0.23401 0.92536 0.09725 -0.10300
C 	C 	0.16775 0.91617 0.10200 -0.00300
C 	C 	0.11554 0.86709 0.08668 0.12800
C 	C 	0.13015 0.83079 0.06596 -0.02500
C 	C 	0.19669 0.84327 0.06042 -0.11900
C 	C 	0.24871 0.88943 0.07648 0.19600
C 	C 	0.15351 0.96378 0.12131 0.05300
O 	O 	0.05046 0.85784 0.09117 -0.25700
H 	H 	0.08984 0.79486 0.05380 0.08400
O 	O 	0.31377 0.89784 0.07226 -0.32600
H 	H 	0.27427 0.96207 0.10927 0.08200
C 	C 	0.13527 0.93526 0.14515 0.09300
C 	C 	0.11257 0.97675 0.16216 0.01500
C 	C 	0.10635 0.04559 0.15523 -0.17000
C 	C 	0.12906 0.07646 0.13203 0.22800
C 	C 	0.15309 0.03581 0.11526 -0.15800
O 	O 	0.13928 0.86682 0.15178 -0.26300
O 	O 	0.12745 0.14625 0.12570 -0.29400
H 	H 	0.16882 0.05887 0.09714 0.09300
H 	H 	0.33161 0.94457 0.06239 0.14200
H 	H 	0.08390 0.13550 0.11673 0.17800
H 	H 	0.03451 0.81351 0.10219 0.14700
C 	C 	0.11454 0.30290 0.30840 -0.11500
C 	C 	0.12666 0.26583 0.32943 0.01000
C 	C 	0.10962 0.18644 0.32870 0.12200
C 	C 	0.08114 0.14477 0.30689 -0.02200
C 	C 	0.07080 0.18220 0.28561 -0.12500
C 	C 	0.15884 0.31085 0.35190 0.00900
H 	H 	0.06853 0.08363 0.30636 0.06900
C 	C 	0.22756 0.35410 0.35245 0.12300
C 	C 	0.25545 0.40827 0.37151 -0.02800
C 	C 	0.21503 0.42011 0.38996 -0.10600
C 	C 	0.14726 0.37303 0.39041 0.19900
C 	C 	0.11952 0.31826 0.37146 -0.10000
O 	O 	0.26735 0.34394 0.33421 -0.26700
H 	H 	0.30792 0.44352 0.37131 0.06300
O 	O 	0.10775 0.38181 0.40898 -0.23600
H 	H 	0.06676 0.28409 0.37135 0.09600
H 	H 	0.26721 0.38086 0.32122 0.14700
C 	C 	0.12056 0.69177 0.30999 -0.10700
C 	C 	0.09896 0.75351 0.30806 0.00100
C 	C 	0.11458 0.80890 0.32733 0.13200
C 	C 	0.15080 0.80163 0.34854 -0.03100
C 	C 	0.17211 0.73956 0.35061 -0.11600
C 	C 	0.15686 0.68439 0.33120 0.19200
C 	C 	0.06034 0.76064 0.28583 0.03700
O 	O 	0.09297 0.86915 0.32570 -0.25200
O 	O 	0.18009 0.62532 0.33240 -0.29700
O 	O 	0.16144 0.82635 0.26451 -0.26700
H 	H 	0.14356 0.58275 0.33965 0.16600
H 	H 	0.12924 0.90973 0.31753 0.16000
C 	C 	0.04835 0.56245 0.46424 0.29400
C 	C 	0.09497 0.52574 0.46354 -0.19700
C 	C 	0.07437 0.44771 0.46849 0.26900
F 	F 	0.11899 0.41159 0.46797 -0.38100
F 	F 	0.06789 0.63813 0.46000 -0.38300
C 	C 	0.09125 0.74346 0.61788 -0.02500
O 	O 	0.08887 0.73208 0.57338 -0.25000
H 	H 	0.11728 0.80428 0.61662 0.07200
C 	C 	0.01342 0.54270 0.96991 -0.13600
F 	F 	0.03084 0.42389 0.96862 -0.37700
O 	O 	0.01251 0.22978 0.81177 -0.23200
H 	H 	0.05744 0.17867 0.77305 0.05900
C 	C 	0.19649 0.98435 0.76608 0.04400
C 	C 	0.19653 0.03802 0.74818 -0.16000
H 	H 	0.15761 0.92846 0.76544 0.04300
Ni	Ni	0.56497 0.28419 0.90755 1.10800
O 	O 	0.48539 0.23395 0.88367 -0.32300
O 	O 	0.50883 0.32968 0.92835 -0.33300
C 	C 	0.55281 0.13094 0.92812 0.37600
C 	C 	0.48367 0.17574 0.86922 0.30200
C 	C 	0.52866 0.40351 0.93269 0.37000
O 	O 	0.53253 0.18922 0.92940 -0.33600
O 	O 	0.51497 0.12965 0.87627 -0.38700
O 	O 	0.59416 0.35948 0.47696 -0.34200
O 	O 	0.58356 0.20658 0.47460 -0.33200
O 	O 	0.54680 0.14070 0.52228 -0.38400
O 	O 	0.54709 0.26245 0.51933 -0.32500
C 	C 	0.62317 0.43362 0.47613 0.37700
C 	C 	0.59758 0.14432 0.47209 0.38200
C 	C 	0.52745 0.19611 0.53036 0.30500
Ni	Ni	0.25221 0.65121 0.41277 1.10700
O 	O 	0.33771 0.70328 0.39383 -0.69700
Ni	Ni	0.40698 0.69583 0.41816 1.10800
O 	O 	0.25544 0.79381 0.38343 -0.38700
O 	O 	0.25383 0.55509 0.39515 -0.39300
Ni	Ni	0.35644 0.80855 0.38513 1.07700
O 	O 	0.36450 0.84493 0.42126 -0.38500
O 	O 	0.48632 0.73663 0.39553 -0.32800
O 	O 	0.32309 0.66016 0.43887 -0.70000
O 	O 	0.46273 0.65754 0.44252 -0.33500
O 	O 	0.38154 0.53934 0.44256 -0.38000
Ni	Ni	0.29909 0.56184 0.45502 1.09500
H 	H 	0.33855 0.67389 0.37853 0.16500
H 	H 	0.32391 0.69988 0.45124 0.18100
C 	C 	0.41984 0.85543 0.43419 0.39600
O 	O 	0.23774 0.48330 0.42998 -0.34600
C 	C 	0.21055 0.73253 0.37291 0.30200
C 	C 	0.48863 0.78999 0.37936 0.30700
C 	C 	0.24035 0.48917 0.40571 0.32200
C 	C 	0.44321 0.58511 0.44807 0.37000
O 	O 	0.44141 0.79872 0.43751 -0.34100
O 	O 	0.45784 0.83848 0.38370 -0.37600
Ni	Ni	0.35028 0.69320 0.98744 1.10800
O 	O 	0.25512 0.66212 0.97310 -0.70000
Ni	Ni	0.20784 0.69083 0.00105 1.10500
O 	O 	0.37789 0.62855 0.96227 -0.34400
O 	O 	0.29219 0.52038 0.97189 -0.37700
O 	O 	0.38506 0.78118 0.96269 -0.33600
Ni	Ni	0.21046 0.55371 0.96447 1.09200
O 	O 	0.44238 0.84975 0.01174 -0.37900
O 	O 	0.16702 0.49822 0.99602 -0.34600
O 	O 	0.30552 0.73214 0.01388 -0.69500
O 	O 	0.44299 0.72985 0.00392 -0.32100
O 	O 	0.25579 0.85646 0.02235 -0.38200
Ni	Ni	0.34602 0.84278 0.01630 1.07700
H 	H 	0.25367 0.69294 0.95845 0.18200
H 	H 	0.31101 0.71016 0.03007 0.16100
O 	O 	0.33203 0.85467 0.97948 -0.39300
C 	C 	0.35112 0.55411 0.96227 0.37800
C 	C 	0.37449 0.84586 0.96389 0.39900
C 	C 	0.46449 0.79418 0.01704 0.30800
O 	O 	0.03242 0.22086 0.17357 -0.38400
H 	H 	0.17374 0.40524 0.03603 0.07800
C 	C 	0.62176 0.84149 0.07216 0.00800
C 	C 	0.57141 0.76910 0.07036 0.12500
C 	C 	0.52192 0.75288 0.05148 -0.03200
C 	C 	0.52165 0.80899 0.03458 -0.09900
C 	C 	0.57402 0.88031 0.03566 0.19400
O 	O 	0.57101 0.71389 0.08686 -0.26200
H 	H 	0.48247 0.69741 0.05048 0.06800
O 	O 	0.57801 0.93331 0.01787 -0.22100
H 	H 	0.54289 0.71906 0.10061 0.14500
H 	H 	0.55641 0.96716 0.02507 0.15700
C 	C 	0.56989 0.82946 0.31719 -0.10600
C 	C 	0.60770 0.83896 0.36778 -0.02100
C 	C 	0.53987 0.80923 0.36048 -0.09700
C 	C 	0.52100 0.80504 0.33510 0.18500
H 	H 	0.62245 0.84381 0.38735 0.11800
O 	O 	0.45484 0.77515 0.32772 -0.30300
H 	H 	0.55509 0.82481 0.29763 0.07400
H 	H 	0.43974 0.81919 0.32711 0.13700
O 	O 	0.12004 0.14944 0.34934 -0.25400
H 	H 	0.08886 0.41959 0.40278 0.16500
H 	H 	0.16570 0.14836 0.34783 0.15900
H 	H 	0.16192 0.84400 0.36345 0.08300
C 	C 	0.57600 0.02914 0.44512 0.23300
C 	C 	0.55102 0.07835 0.45783 -0.18300
C 	C 	0.48159 0.05696 0.46054 0.23500
C 	C 	0.43846 0.98462 0.45246 0.30900
C 	C 	0.46425 0.93343 0.44137 -0.22200
C 	C 	0.53304 0.95699 0.43707 0.31000
F 	F 	0.55838 0.90966 0.42525 -0.38800
F 	F 	0.37203 0.96330 0.45629 -0.38200
F 	F 	0.45623 0.10484 0.47201 -0.36900
C 	C 	0.52135 0.46445 0.48351 0.27900
C 	C 	0.58165 0.47992 0.47122 -0.19300
C 	C 	0.59885 0.53480 0.45266 0.27500
C 	C 	0.55453 0.57101 0.44554 0.27700
C 	C 	0.49276 0.55278 0.45705 -0.19300
C 	C 	0.47709 0.50055 0.47642 0.27400
F 	F 	0.41877 0.48461 0.48832 -0.40300
F 	F 	0.50546 0.41386 0.50222 -0.38300
F 	F 	0.57036 0.62134 0.42676 -0.38300
C 	C 	0.31018 0.06483 0.61714 -0.10500
C 	C 	0.31606 0.12269 0.60018 0.00400
C 	C 	0.26924 0.15935 0.59989 0.13100
C 	C 	0.21594 0.13659 0.61606 -0.03500
C 	C 	0.20902 0.07733 0.63264 -0.10400
C 	C 	0.25663 0.04164 0.63321 0.16500
C 	C 	0.36965 0.14250 0.58204 0.00900
O 	O 	0.27381 0.21503 0.58305 -0.25000
H 	H 	0.17909 0.16376 0.61527 0.07200
O 	O 	0.25180 0.98539 0.64987 -0.27300
H 	H 	0.34660 0.03704 0.61761 0.06800
C 	C 	0.42712 0.20803 0.58578 0.12600
C 	C 	0.47772 0.22618 0.56845 -0.03300
C 	C 	0.47221 0.17821 0.54769 -0.09900
C 	C 	0.41460 0.11252 0.54398 0.19300
C 	C 	0.36349 0.09526 0.56107 -0.10100
O 	O 	0.43339 0.25503 0.60613 -0.26600
H 	H 	0.52182 0.27687 0.57139 0.06400
O 	O 	0.40685 0.06707 0.52313 -0.22300
H 	H 	0.31902 0.04505 0.55803 0.08800
H 	H 	0.22628 0.93704 0.64082 0.16300
H 	H 	0.45576 0.23531 0.61929 0.14700
H 	H 	0.42374 0.02649 0.52815 0.15500
H 	H 	0.30077 0.26349 0.59174 0.16800
H 	H 	0.13167 0.72629 0.56931 0.16600
C 	C 	0.53305 0.00273 0.94614 0.23300
C 	C 	0.50738 0.05519 0.93572 -0.18400
C 	C 	0.43776 0.03463 0.93211 0.23600
C 	C 	0.39443 0.96429 0.94006 0.30800
C 	C 	0.41994 0.91315 0.95139 -0.22000
C 	C 	0.48958 0.93172 0.95368 0.30800
F 	F 	0.51515 0.88212 0.96403 -0.37400
F 	F 	0.59996 0.02129 0.94965 -0.38400
F 	F 	0.32744 0.94600 0.93690 -0.38500
F 	F 	0.41209 0.08256 0.92068 -0.38500
C 	C 	0.50069 0.49365 0.96060 0.27300
C 	C 	0.48093 0.43742 0.94163 -0.19500
C 	C 	0.41609 0.41524 0.93086 0.27800
C 	C 	0.37239 0.45109 0.93841 0.27600
C 	C 	0.39326 0.50946 0.95666 -0.19500
C 	C 	0.45705 0.52935 0.96812 0.27800
F 	F 	0.47678 0.58358 0.98651 -0.38800
F 	F 	0.56219 0.51348 0.97182 -0.41000
F 	F 	0.31072 0.43111 0.92732 -0.39500
F 	F 	0.39632 0.36102 0.91248 -0.37600
C 	C 	0.29597 0.12947 0.76846 -0.12900
C 	C 	0.29404 0.07694 0.78690 0.03700
C 	C 	0.24526 0.00344 0.78533 0.05200
C 	C 	0.24772 0.11036 0.74907 0.21800
C 	C 	0.34186 0.09995 0.80825 -0.00400
O 	O 	0.24356 0.95128 0.80315 -0.22800
O 	O 	0.24793 0.16418 0.73206 -0.29700
H 	H 	0.33399 0.18591 0.76949 0.09000
C 	C 	0.40720 0.10073 0.80596 0.12300
C 	C 	0.45350 0.12691 0.82585 -0.03800
C 	C 	0.43484 0.15151 0.84824 -0.10800
C 	C 	0.36885 0.14900 0.85073 0.20400
C 	C 	0.32289 0.12403 0.83064 -0.09900
O 	O 	0.42634 0.07778 0.78406 -0.27600
H 	H 	0.50405 0.12816 0.82387 0.03700
O 	O 	0.34925 0.17105 0.87269 -0.24100
H 	H 	0.27246 0.12333 0.83247 0.09300
H 	H 	0.27661 0.15846 0.71858 0.15700
H 	H 	0.41650 0.02243 0.78570 0.14400
H 	H 	0.33229 0.12412 0.88251 0.20100
H 	H 	0.27192 0.92371 0.79691 0.15000
H 	H 	0.13002 0.46252 0.12619 0.14500
C 	C 	0.07275 0.69875 0.59601 0.12300
O 	O 	0.60831 0.13736 0.91707 -0.38000
O 	O 	0.58952 0.44801 0.92725 -0.38100
H 	H 	0.09483 0.82827 0.14729 0.14200
Ni	Ni	0.61648 0.16158 0.88026 1.07300
H 	H 	0.09613 0.95325 0.18017 0.03700
C 	C 	0.06781 0.71155 0.64085 -0.11300
C 	C 	0.09324 0.80262 0.26555 0.10200
O 	O 	0.00856 0.07750 0.15957 -0.37100
H 	H 	0.10935 0.64956 0.29503 0.07500
C 	C 	0.02005 0.34627 0.14419 -0.00300
H 	H 	0.03821 0.37044 0.16254 0.04500
H 	H 	0.17033 0.78546 0.25513 0.14800
C 	C 	0.05685 0.82562 0.24741 -0.00100
H 	H 	0.08292 0.86252 0.23276 0.04700
Ni	Ni	0.63159 0.29592 0.49935 1.10700
F 	F 	0.64242 0.05051 0.44121 -0.38800
H 	H 	0.59755 0.87189 0.11925 0.07300
Ni	Ni	0.71961 0.32960 0.90613 1.10600
O 	O 	0.63411 0.26912 0.88611 -0.69900
O 	O 	0.77770 0.30542 0.88024 -0.35000
O 	O 	0.71795 0.17773 0.88151 -0.38400
O 	O 	0.71659 0.41768 0.88487 -0.38400
O 	O 	0.75634 0.42476 0.96014 -0.37800
O 	O 	0.64923 0.32889 0.92985 -0.70000
Ni	Ni	0.67333 0.43274 0.94315 1.09600
H 	H 	0.63260 0.29274 0.86986 0.16200
H 	H 	0.64920 0.29417 0.94354 0.17900
O 	O 	0.73376 0.50170 0.91749 -0.36000
C 	C 	0.76248 0.23619 0.87086 0.30000
C 	C 	0.72889 0.48689 0.89346 0.32700
O 	O 	0.71943 0.32333 0.48129 -0.69800
Ni	Ni	0.77739 0.29407 0.50619 1.10400
O 	O 	0.68585 0.46696 0.48388 -0.37200
Ni	Ni	0.76249 0.43066 0.47271 1.09200
O 	O 	0.68605 0.25645 0.52248 -0.69500
O 	O 	0.73440 0.12948 0.52455 -0.38900
Ni	Ni	0.64391 0.14595 0.52327 1.07600
H 	H 	0.71331 0.29111 0.46608 0.17700
H 	H 	0.68829 0.27885 0.53938 0.16600
O 	O 	0.64487 0.13499 0.48589 -0.39600
C 	C 	0.78427 0.17260 0.53889 0.30800
C 	C 	0.64906 0.87740 0.11679 -0.11400
C 	C 	0.66964 0.86190 0.09348 0.00800
C 	C 	0.73641 0.86888 0.09037 0.12400
C 	C 	0.76225 0.91002 0.13363 -0.12000
C 	C 	0.69510 0.90180 0.13682 0.19400
O 	O 	0.75700 0.85384 0.06762 -0.25200
O 	O 	0.67453 0.91810 0.15943 -0.28500
C 	C 	0.62386 0.89616 0.05441 -0.09800
H 	H 	0.66346 0.95150 0.05545 0.09300
H 	H 	0.68033 0.97276 0.15896 0.15500
H 	H 	0.75057 0.79897 0.06766 0.16400
C 	C 	0.63770 0.85949 0.32446 0.00400
C 	C 	0.65663 0.86417 0.34988 0.14000
C 	C 	0.68875 0.88157 0.30530 0.01700
O 	O 	0.72269 0.89579 0.35728 -0.24700
C 	C 	0.72294 0.83290 0.29902 0.11900
C 	C 	0.76717 0.85085 0.27946 -0.02200
C 	C 	0.77622 0.91610 0.26547 -0.12400
C 	C 	0.74263 0.96543 0.27193 0.22500
C 	C 	0.69948 0.94832 0.29194 -0.11800
O 	O 	0.71318 0.76769 0.31201 -0.26100
O 	O 	0.75151 0.02994 0.25866 -0.30700
H 	H 	0.67319 0.98599 0.29670 0.09100
H 	H 	0.67559 0.72775 0.30309 0.15300
H 	H 	0.71653 0.01430 0.24517 0.14400
H 	H 	0.73866 0.85249 0.35835 0.17700
F 	F 	0.65718 0.55062 0.44077 -0.39900
C 	C 	0.76624 0.05300 0.59546 -0.10100
C 	C 	0.75282 0.09984 0.57775 0.19000
O 	O 	0.69086 0.10576 0.57634 -0.32200
H 	H 	0.72674 0.01901 0.60717 0.07800
H 	H 	0.66312 0.06270 0.56538 0.11800
H 	H 	0.80066 0.32808 0.83178 0.06600
H 	H 	0.76180 0.06756 0.86024 0.15000
C 	C 	0.74076 0.59743 0.83489 -0.10500
C 	C 	0.75105 0.54997 0.87605 -0.11000
C 	C 	0.71287 0.54800 0.85418 0.20000
O 	O 	0.64952 0.49519 0.85112 -0.29200
H 	H 	0.71209 0.59364 0.81769 0.08400
H 	H 	0.81143 0.78939 0.82438 0.09000
H 	H 	0.61972 0.52030 0.85778 0.16500
H 	H 	0.79355 0.81316 0.27485 0.07900
C 	C 	0.00703 0.40591 0.47274 0.30900
C 	C 	0.78256 0.89345 0.11037 -0.03200
C 	C 	0.79857 0.22428 0.84919 -0.11700
O 	O 	0.79960 0.38705 0.52923 -0.39200
O 	O 	0.80525 0.39890 0.92480 -0.35800
C 	C 	0.80968 0.42595 0.94795 0.39900
O 	O 	0.81778 0.48729 0.50361 -0.34700
O 	O 	0.81705 0.24356 0.53298 -0.35400
C 	C 	0.83682 0.45506 0.52243 0.32500
O 	O 	0.84334 0.41034 0.46028 -0.37700
O 	O 	0.86265 0.99666 0.23990 -0.37200
O 	O 	0.79817 0.91316 0.17667 -0.39800
O 	O 	0.81395 0.87041 0.22910 -0.39000
C 	C 	0.81742 0.92925 0.24329 0.33600
C 	C 	0.81195 0.93950 0.15406 0.29000
H 	H 	0.83421 0.89975 0.10779 0.06500
C 	C 	0.82950 0.04719 0.59725 -0.01900
C 	C 	0.80280 0.14076 0.56148 -0.12200
C 	C 	0.83992 0.98789 0.61272 0.03200
C 	C 	0.83784 0.99197 0.63881 0.12700
C 	C 	0.85382 0.92799 0.60135 -0.11500
O 	O 	0.82110 0.04805 0.65018 -0.28500
H 	H 	0.85227 0.92232 0.58124 0.10100
C 	C 	0.85579 0.15304 0.82724 -0.10400
C 	C 	0.85415 0.27198 0.81072 0.13000
C 	C 	0.81619 0.27930 0.83065 -0.04000
C 	C 	0.81844 0.16070 0.84738 0.18700
O 	O 	0.80425 0.10801 0.86581 -0.26300
H 	H 	0.82574 0.17521 0.76153 0.08500
C 	C 	0.80648 0.64934 0.83734 0.00900
C 	C 	0.84303 0.65496 0.85986 0.12500
C 	C 	0.81497 0.60583 0.87924 -0.02300
C 	C 	0.83883 0.69243 0.81559 0.01000
H 	H 	0.84433 0.60842 0.89618 0.09200
C 	C 	0.83597 0.76452 0.81134 -0.11000
C 	C 	0.08741 0.26157 0.28646 0.19700
O 	O 	0.85772 0.87314 0.78556 -0.27900
C 	C 	0.86375 0.80422 0.79007 0.20200
O 	O 	0.88624 0.73649 0.26978 -0.28600
O 	O 	0.87011 0.33932 0.49064 -0.34900
C 	C 	0.88785 0.39789 0.47545 0.37900
Ni	Ni	0.86273 0.87297 0.19665 1.07500
H 	H 	0.86705 0.68865 0.25975 0.15100
C 	C 	0.88130 0.09395 0.58272 0.12300
C 	C 	0.86766 0.14017 0.56475 -0.02800
C 	C 	0.85418 0.93939 0.65330 -0.03800
C 	C 	0.87693 0.88601 0.64196 -0.12800
C 	C 	0.87310 0.87767 0.61586 0.20800
H 	H 	0.85468 0.94438 0.67341 0.04800
O 	O 	0.88840 0.82048 0.60453 -0.28100
H 	H 	0.86393 0.09110 0.65314 0.13800
C 	C 	0.89033 0.50230 0.53963 -0.10900
O 	O 	0.83423 0.59175 0.54491 -0.27600
F 	F 	0.85838 0.58198 0.96219 -0.39400
C 	C 	0.87371 0.20847 0.80888 -0.00800
O 	O 	0.87085 0.32615 0.79276 -0.27400
H 	H 	0.87072 0.10388 0.82585 0.07200
C 	C 	0.87640 0.17631 0.76404 -0.12800
O 	O 	0.87232 0.12928 0.72219 -0.30400
H 	H 	0.84479 0.07475 0.72395 0.15700
C 	C 	0.87033 0.66015 0.79854 0.11700
C 	C 	0.89738 0.69929 0.77711 -0.03300
C 	C 	0.89425 0.77126 0.77272 -0.12000
O 	O 	0.87264 0.58917 0.80238 -0.27000
H 	H 	0.12699 0.36401 0.30900 0.07500
C 	C 	0.87658 0.46380 0.95953 -0.21100
O 	O 	0.86766 0.99656 0.15006 -0.36000
O 	O 	0.89594 0.77619 0.72814 -0.40200
O 	O 	0.89772 0.82037 0.67766 -0.40800
C 	C 	0.92070 0.81037 0.74962 0.30300
O 	O 	0.92273 0.82581 0.21470 -0.41100
H 	H 	0.90668 0.17258 0.55260 0.07800
C 	C 	0.88674 0.56879 0.55068 0.20700
H 	H 	0.84980 0.62811 0.53122 0.18500
C 	C 	0.90050 0.54277 0.96417 0.28800
F 	F 	0.89779 0.34734 0.95787 -0.39600
C 	C 	0.91020 0.19784 0.78715 0.03200
C 	C 	0.90633 0.15173 0.74460 0.21100
H 	H 	0.91448 0.36408 0.79852 0.15800
O 	O 	0.90636 0.70788 0.86286 -0.25400
H 	H 	0.92070 0.67360 0.76386 0.03900
H 	H 	0.91487 0.59809 0.81206 0.14700
H 	H 	0.89719 0.91147 0.79411 0.16700
O 	O 	0.04439 0.49655 0.56999 -0.24100
C 	C 	0.91862 0.85350 0.65658 0.31600
Ni	Ni	0.92384 0.06088 0.17925 1.09200
H 	H 	0.92895 0.12955 0.22001 0.16500
F 	F 	0.93699 0.55763 0.46963 -0.40200
C 	C 	0.92063 0.42391 0.96170 0.29400
H 	H 	0.93645 0.68177 0.85719 0.15200
H 	H 	0.11702 0.31479 0.25682 0.13500
C 	C 	0.93469 0.60921 0.56879 -0.10400
H 	H 	0.93026 0.65880 0.57790 0.08900
O 	O 	0.94987 0.91167 0.24810 -0.37000
H 	H 	0.86775 0.16393 0.11479 0.15600
O 	O 	0.91978 0.15757 0.16430 -0.38300
O 	O 	0.93658 0.97029 0.19613 -0.69700
O 	O 	0.02587 0.59816 0.66505 -0.27300
O 	O 	0.07508 0.29847 0.26611 -0.31100
C 	C 	0.03147 0.62179 0.59725 0.02000
C 	C 	0.03912 0.63186 0.64234 0.18900
H 	H 	0.02830 0.45916 0.58336 0.15500
C 	C 	0.02070 0.58710 0.62048 -0.08600
C 	C 	0.94384 0.47889 0.54598 -0.02500
H 	H 	0.93624 0.84352 0.60052 0.17000
O 	O 	0.94435 0.09153 0.58518 -0.27200
O 	O 	0.95368 0.02577 0.73128 -0.40300
C 	C 	0.95489 0.85191 0.23630 0.31700
H 	H 	0.94761 0.42860 0.53712 0.07200
C 	C 	0.00724 0.17889 0.77034 0.03600
H 	H 	0.00599 0.18432 0.82199 0.15900
C 	C 	0.95411 0.75732 0.26810 0.21600
O 	O 	0.95532 0.88384 0.75072 -0.36400
Ni	Ni	0.95325 0.77094 0.69786 1.06400
O 	O 	0.91407 0.16429 0.11428 -0.28300
Ni	Ni	0.95827 0.01088 0.23081 1.08700
O 	O 	0.95884 0.10593 0.21259 -0.71900
C 	C 	0.95976 0.44211 0.47237 -0.21600
C 	C 	0.95432 0.23923 0.11748 0.20900
H 	H 	0.95848 0.25962 0.07814 0.09600
H 	H 	0.96479 0.70058 0.30158 0.09100
C 	C 	0.96870 0.58215 0.96930 0.24200
C 	C 	0.97057 0.14870 0.74823 -0.16000
H 	H 	0.96761 0.13076 0.59810 0.14200
C 	C 	0.97698 0.20257 0.78991 0.06000
C 	C 	0.97533 0.28411 0.09656 -0.14200
H 	H 	0.97560 0.96031 0.18982 0.15200
C 	C 	0.97507 0.21781 0.16237 0.29500
C 	C 	0.97925 0.26928 0.14144 -0.14200
H 	H 	0.98158 0.99222 0.67577 0.14800
O 	O 	0.97990 0.86607 0.64989 -0.38300
C 	C 	0.98124 0.52105 0.46880 0.25400
H 	H 	0.97875 0.59158 0.66814 0.12800
F 	F 	0.98742 0.32982 0.47618 -0.39600
C 	C 	0.98686 0.58429 0.57584 0.00100
O 	O 	0.98941 0.74023 0.66609 -0.41900
C 	C 	0.98868 0.46312 0.96691 0.22000
C 	C 	0.99151 0.09799 0.73231 0.30300
Ni	Ni	0.99008 0.94588 0.71965 1.09500
C 	C 	0.98783 0.80674 0.24943 -0.15200
C 	C 	0.99194 0.51949 0.56410 0.10900
F 	F 	0.99168 0.65899 0.97239 -0.38000
C 	C 	0.99050 0.73466 0.28631 -0.14100
H 	H 	0.99255 0.52671 0.62161 0.05500
O 	O 	0.99509 0.07357 0.26283 -0.38600
H 	H 	0.99859 0.47606 0.07713 0.06200
