data_crystal

_cell_length_a 22.51947
_cell_length_b 22.34532
_cell_length_c 51.89819
_cell_angle_alpha 89.89348
_cell_angle_beta  89.89536
_cell_angle_gamma 119.66696

_symmetry_space_group_name_	'P 1'
_symmetry_space_group_name_H-M	'P 1'

loop_
_symmetry_equiv_pos_as_xyz
  x,y,z

loop_
_atom_site_label
_atom_site_type_symbol
_atom_site_fract_x
_atom_site_fract_y
_atom_site_fract_z
_atom_site_charge
C 	C 	0.82757 0.38827 0.93741 0.34500
C 	C 	0.56227 0.26573 0.88084 0.35000
C 	C 	0.73384 0.47294 0.90808 0.35100
C 	C 	0.65714 0.18124 0.90299 0.32600
C 	C 	0.55758 0.35166 0.95384 0.36800
C 	C 	0.63913 0.25211 0.98556 0.35200
Ni	Ni	0.71022 0.33259 0.89711 1.12600
Ni	Ni	0.58035 0.24069 0.93401 1.13600
Ni	Ni	0.69997 0.38358 0.95449 1.13300
O 	O 	0.80899 0.39080 0.91311 -0.32300
O 	O 	0.78652 0.37861 0.95730 -0.34000
O 	O 	0.54115 0.28662 0.95667 -0.35700
O 	O 	0.62319 0.27706 0.87382 -0.32800
O 	O 	0.55309 0.27968 0.90428 -0.34500
O 	O 	0.65549 0.31817 0.98488 -0.35400
O 	O 	0.69942 0.41895 0.89347 -0.34500
O 	O 	0.75494 0.46635 0.93096 -0.35000
O 	O 	0.60689 0.20979 0.96612 -0.35400
O 	O 	0.71258 0.24183 0.89949 -0.33500
O 	O 	0.59723 0.17533 0.91038 -0.32800
O 	O 	0.62078 0.39904 0.94900 -0.36100
O 	O 	0.67229 0.31093 0.93033 -0.72400
H 	H 	0.69494 0.28646 0.93741 0.18300
C 	C 	0.62046 0.46848 0.56513 0.33700
C 	C 	0.72367 0.29963 0.61665 0.35700
C 	C 	0.79443 0.51035 0.58112 0.35100
C 	C 	0.54278 0.26132 0.60743 0.33000
C 	C 	0.77504 0.33472 0.53809 0.36900
C 	C 	0.59344 0.27624 0.51753 0.33600
Ni	Ni	0.67236 0.39642 0.60210 1.13100
Ni	Ni	0.64721 0.26645 0.56785 1.13000
Ni	Ni	0.70282 0.41373 0.54063 1.13300
O 	O 	0.65417 0.47327 0.58683 -0.32200
O 	O 	0.63206 0.44401 0.54346 -0.35400
O 	O 	0.71407 0.27971 0.53948 -0.36700
O 	O 	0.68987 0.32968 0.62479 -0.33000
O 	O 	0.72500 0.28651 0.59218 -0.35700
O 	O 	0.64742 0.33927 0.51381 -0.32300
O 	O 	0.77513 0.45409 0.59408 -0.33500
O 	O 	0.76634 0.50576 0.55847 -0.32700
O 	O 	0.57704 0.24644 0.54058 -0.36700
O 	O 	0.57000 0.32908 0.60847 -0.34600
O 	O 	0.57667 0.23135 0.59759 -0.33600
O 	O 	0.78233 0.39679 0.53928 -0.33800
O 	O 	0.65810 0.35576 0.56967 -0.72100
H 	H 	0.61066 0.34449 0.56628 0.17000
C 	C 	0.91419 0.88271 0.70344 0.32900
C 	C 	0.11341 0.02752 0.78764 0.32200
C 	C 	0.90505 0.84281 0.77815 0.34300
C 	C 	0.12778 0.06486 0.71987 0.31200
C 	C 	0.91144 0.03008 0.79464 0.33500
C 	C 	0.93438 0.08755 0.72619 0.35400
Ni	Ni	0.02471 0.93268 0.74508 1.11700
Ni	Ni	0.03420 0.07845 0.76040 1.12300
Ni	Ni	0.88883 0.94693 0.74917 1.13800
O 	O 	0.94961 0.86518 0.71925 -0.32400
O 	O 	0.88196 0.91507 0.71211 -0.32800
O 	O 	0.96419 0.08378 0.78389 -0.32500
O 	O 	0.10976 0.98700 0.76867 -0.31600
O 	O 	0.06547 0.04395 0.79066 -0.35600
O 	O 	0.88587 0.03342 0.73891 -0.36000
O 	O 	0.97164 0.87214 0.77641 -0.32600
O 	O 	0.86989 0.85170 0.75987 -0.34300
O 	O 	0.00027 0.11463 0.73191 -0.36900
O 	O 	0.08677 0.99790 0.71651 -0.32500
O 	O 	0.12152 0.09893 0.74002 -0.33400
O 	O 	0.89322 0.96790 0.78673 -0.34500
O 	O 	0.98491 0.98937 0.74567 -0.68800
H 	H 	0.98916 0.00281 0.72738 0.15700
C 	C 	0.19699 0.72180 0.41593 0.32800
C 	C 	0.39125 0.67868 0.48157 0.37200
C 	C 	0.38178 0.83731 0.43233 0.36400
C 	C 	0.20526 0.55429 0.46626 0.33300
C 	C 	0.44388 0.70383 0.39844 0.34800
C 	C 	0.25964 0.56194 0.38347 0.32600
Ni	Ni	0.28477 0.70709 0.45890 1.12500
Ni	Ni	0.33263 0.60579 0.43325 1.13100
Ni	Ni	0.31832 0.71411 0.39777 1.13000
O 	O 	0.22673 0.74229 0.43889 -0.33700
O 	O 	0.22157 0.69784 0.39778 -0.35200
O 	O 	0.40594 0.63901 0.40562 -0.34600
O 	O 	0.33565 0.68165 0.48653 -0.34900
O 	O 	0.40575 0.67032 0.45787 -0.34200
O 	O 	0.29311 0.62814 0.37586 -0.34100
O 	O 	0.37442 0.79804 0.45219 -0.32900
O 	O 	0.34525 0.81047 0.41132 -0.35900
O 	O 	0.26675 0.54236 0.40694 -0.35200
O 	O 	0.20242 0.61209 0.46806 -0.35000
O 	O 	0.26467 0.55538 0.46288 -0.32500
O 	O 	0.41845 0.74555 0.39776 -0.36200
O 	O 	0.29549 0.66496 0.42928 -0.72300
H 	H 	0.24756 0.63085 0.42551 0.16700
C 	C 	0.25551 0.58203 0.03319 0.35300
C 	C 	0.47403 0.84400 0.07305 0.36100
C 	C 	0.43179 0.67292 0.01651 0.35000
C 	C 	0.28975 0.75031 0.09706 0.32700
C 	C 	0.50942 0.68585 0.09430 0.34900
C 	C 	0.33089 0.56512 0.11822 0.33500
Ni	Ni	0.35456 0.72756 0.04736 1.12900
Ni	Ni	0.40214 0.71942 0.10570 1.13400
Ni	Ni	0.38051 0.60371 0.06530 1.13200
O 	O 	0.26115 0.64087 0.04114 -0.33400
O 	O 	0.30366 0.56464 0.03791 -0.34000
O 	O 	0.49604 0.73565 0.09860 -0.36600
O 	O 	0.45320 0.80883 0.05159 -0.35500
O 	O 	0.43894 0.81890 0.09442 -0.32600
O 	O 	0.31620 0.54882 0.09364 -0.35900
O 	O 	0.38727 0.69470 0.01492 -0.30000
O 	O 	0.45088 0.66359 0.03909 -0.37000
O 	O 	0.37300 0.62989 0.12589 -0.33800
O 	O 	0.31460 0.77186 0.07327 -0.32300
O 	O 	0.31389 0.71953 0.11245 -0.33800
O 	O 	0.46017 0.62324 0.08872 -0.34500
O 	O 	0.36261 0.67528 0.07408 -0.72400
H 	H 	0.31461 0.64783 0.07968 0.17600
C 	C 	0.08383 0.13074 0.22013 0.32900
C 	C 	0.83712 0.92653 0.27841 0.34500
C 	C 	0.04450 0.11429 0.28838 0.32000
C 	C 	0.86853 0.94807 0.20428 0.34300
C 	C 	0.00946 0.89708 0.28827 0.32600
C 	C 	0.04161 0.90872 0.21532 0.30000
Ni	Ni	0.94282 0.04620 0.24722 1.12500
Ni	Ni	0.92252 0.89197 0.24487 1.13300
Ni	Ni	0.07087 0.01909 0.25517 1.12000
O 	O 	0.03255 0.13114 0.23291 -0.34600
O 	O 	0.10259 0.08359 0.22437 -0.34600
O 	O 	0.97549 0.86219 0.26785 -0.32900
O 	O 	0.84687 0.97588 0.26216 -0.32300
O 	O 	0.87472 0.89675 0.27724 -0.34800
O 	O 	0.07849 0.94326 0.23578 -0.32800
O 	O 	0.97920 0.07348 0.28440 -0.32800
O 	O 	0.09012 0.10504 0.27573 -0.33700
O 	O 	0.97456 0.88458 0.21469 -0.32600
O 	O 	0.89895 0.01390 0.21100 -0.34000
O 	O 	0.85268 0.89909 0.22184 -0.34900
O 	O 	0.04191 0.96480 0.28814 -0.34400
O 	O 	0.98079 0.98891 0.24331 -0.70300
H 	H 	0.98960 0.99434 0.22463 0.17800
C 	C 	0.30876 0.50841 0.13705 -0.09900
C 	C 	0.26823 0.50461 0.15842 0.12600
C 	C 	0.23538 0.44374 0.17317 0.07100
C 	C 	0.24476 0.38758 0.16703 0.02100
C 	C 	0.29042 0.39385 0.14734 0.07000
C 	C 	0.32186 0.45373 0.13215 0.13000
C 	C 	0.20426 0.32084 0.18041 0.02100
C 	C 	0.22959 0.30671 0.20301 0.06900
C 	C 	0.19210 0.24245 0.21528 0.12900
C 	C 	0.12923 0.19206 0.20487 -0.10100
C 	C 	0.10524 0.20538 0.18175 0.12600
C 	C 	0.14222 0.27003 0.16970 0.06900
Br	Br	0.30851 0.31929 0.14085 -0.10600
Br	Br	0.25656 0.58199 0.16722 -0.11800
Br	Br	0.22579 0.22440 0.24682 -0.12900
Br	Br	0.10772 0.28958 0.13869 -0.12000
Br	Br	0.38203 0.46010 0.10441 -0.13500
Br	Br	0.17620 0.43637 0.20139 -0.10600
Br	Br	0.31552 0.37588 0.21722 -0.09700
Br	Br	0.02159 0.13477 0.16663 -0.15300
C 	C 	0.57913 0.69914 0.09924 -0.10500
C 	C 	0.59351 0.67818 0.12294 0.12900
C 	C 	0.65716 0.71947 0.13478 0.06700
C 	C 	0.70452 0.78249 0.12336 0.02300
C 	C 	0.69535 0.79572 0.09760 0.06800
C 	C 	0.63318 0.75225 0.08521 0.13100
C 	C 	0.75348 0.83944 0.13988 0.01900
C 	C 	0.73093 0.87755 0.15455 0.06900
C 	C 	0.77263 0.92120 0.17424 0.13200
C 	C 	0.83723 0.92793 0.17865 -0.09900
C 	C 	0.86444 0.90115 0.16062 0.12500
C 	C 	0.82129 0.85299 0.14235 0.07300
Br	Br	0.76469 0.87698 0.08039 -0.09100
Br	Br	0.52336 0.59878 0.14068 -0.11400
Br	Br	0.74207 0.97237 0.19489 -0.09500
Br	Br	0.85343 0.80245 0.12210 -0.08600
Br	Br	0.61849 0.77074 0.05028 -0.13800
Br	Br	0.67751 0.69316 0.16755 -0.11000
Br	Br	0.64246 0.86838 0.14805 -0.12100
Br	Br	0.96151 0.93719 0.15888 -0.11700
C 	C 	0.07388 0.88596 0.19514 -0.08400
C 	C 	0.03381 0.82654 0.17985 0.10900
C 	C 	0.06439 0.81185 0.15901 0.07500
C 	C 	0.13591 0.84155 0.15800 0.01900
C 	C 	0.17639 0.89534 0.17510 0.06900
C 	C 	0.14556 0.92334 0.19095 0.13600
C 	C 	0.16827 0.81500 0.13959 0.02100
C 	C 	0.15889 0.74810 0.14259 0.07100
C 	C 	0.18891 0.72353 0.12484 0.12600
C 	C 	0.24106 0.76999 0.10824 -0.09400
C 	C 	0.25202 0.83793 0.10566 0.12500
C 	C 	0.21022 0.85728 0.11944 0.07200
Br	Br	0.27306 0.92837 0.17790 -0.09000
Br	Br	0.94285 0.75745 0.19016 -0.09700
Br	Br	0.15414 0.62595 0.12152 -0.12800
Br	Br	0.20920 0.94046 0.11036 -0.09300
Br	Br	0.19991 0.01697 0.20270 -0.15300
Br	Br	0.00843 0.75253 0.13171 -0.11400
Br	Br	0.11060 0.69259 0.17209 -0.10900
Br	Br	0.32837 0.90689 0.08610 -0.07900
C 	C 	0.51538 0.73026 0.38944 -0.09700
C 	C 	0.56324 0.80019 0.39343 0.12300
C 	C 	0.61590 0.83590 0.37547 0.07000
C 	C 	0.62895 0.79909 0.35641 0.02100
C 	C 	0.59000 0.72650 0.35601 0.07100
C 	C 	0.53221 0.69186 0.37220 0.12800
C 	C 	0.68254 0.83658 0.33656 0.02100
C 	C 	0.66388 0.84310 0.31121 0.07000
C 	C 	0.71440 0.87318 0.29192 0.12700
C 	C 	0.78412 0.90472 0.29863 -0.10200
C 	C 	0.80251 0.90614 0.32464 0.13000
C 	C 	0.75224 0.86676 0.34305 0.07200
Br	Br	0.61589 0.67496 0.33331 -0.10100
Br	Br	0.55928 0.84521 0.42439 -0.06500
Br	Br	0.68790 0.86636 0.25628 -0.11000
Br	Br	0.77879 0.85068 0.37652 -0.08700
Br	Br	0.48139 0.59258 0.37243 -0.10800
Br	Br	0.66619 0.93521 0.37573 -0.09900
Br	Br	0.56946 0.81174 0.30306 -0.11000
Br	Br	0.89567 0.96559 0.33527 -0.09700
C 	C 	0.06775 0.17905 0.30300 -0.09700
C 	C 	0.05033 0.22863 0.29454 0.11300
C 	C 	0.08515 0.29604 0.30444 0.07300
C 	C 	0.13317 0.31275 0.32434 0.02000
C 	C 	0.14806 0.26241 0.33375 0.07100
C 	C 	0.11525 0.19562 0.32315 0.12700
C 	C 	0.16231 0.38087 0.33726 0.02100
C 	C 	0.22526 0.43646 0.32902 0.07000
C 	C 	0.25450 0.49973 0.34237 0.12600
C 	C 	0.22104 0.50693 0.36427 -0.09700
C 	C 	0.15506 0.45330 0.37073 0.12700
C 	C 	0.12642 0.39007 0.35765 0.06900
Br	Br	0.21335 0.28510 0.36120 -0.10700
Br	Br	0.97665 0.20394 0.27046 -0.14600
Br	Br	0.33960 0.57601 0.33048 -0.11500
Br	Br	0.03864 0.31502 0.36816 -0.11100
Br	Br	0.13295 0.12578 0.33698 -0.12400
Br	Br	0.06734 0.36592 0.29068 -0.11400
Br	Br	0.27174 0.42543 0.29970 -0.09800
Br	Br	0.10434 0.46614 0.39781 -0.14300
C 	C 	0.02325 0.86098 0.30908 -0.12300
C 	C 	0.97270 0.82315 0.32769 0.14900
C 	C 	0.99023 0.80049 0.35016 0.09300
C 	C 	0.05490 0.80555 0.35208 -0.00700
C 	C 	0.10283 0.83600 0.33194 0.07400
C 	C 	0.08799 0.86606 0.31093 0.13000
C 	C 	0.07285 0.77905 0.37514 0.03000
C 	C 	0.11758 0.82552 0.39358 0.06200
C 	C 	0.15365 0.80500 0.41015 0.12700
C 	C 	0.14237 0.73697 0.40872 -0.10600
C 	C 	0.08585 0.68756 0.39485 0.13000
C 	C 	0.05378 0.70890 0.37679 0.04700
Br	Br	0.18835 0.83567 0.33309 -0.12500
Br	Br	0.87844 0.79499 0.32101 -0.12700
Br	Br	0.21684 0.86945 0.43478 -0.11500
Br	Br	0.98866 0.64349 0.35289 -0.07300
Br	Br	0.15558 0.91244 0.28432 -0.13100
Br	Br	0.92693 0.76519 0.37868 -0.08500
Br	Br	0.13201 0.91801 0.39499 -0.09100
Br	Br	0.05014 0.59144 0.40193 -0.13600
C 	C 	0.56981 0.17322 0.45753 -0.13700
C 	C 	0.50165 0.12109 0.46070 0.01800
C 	C 	0.46026 0.12979 0.47889 0.30900
C 	C 	0.48907 0.18570 0.49585 -0.05600
C 	C 	0.55940 0.23312 0.49483 -0.12300
C 	C 	0.59880 0.22895 0.47455 0.37500
C 	C 	0.47926 0.05207 0.44990 0.03500
F 	F 	0.39356 0.08096 0.48161 -0.39100
H 	H 	0.45768 0.18955 0.51088 0.12000
F 	F 	0.66654 0.27529 0.47275 -0.41200
H 	H 	0.60176 0.16774 0.44316 0.13800
C 	C 	0.43011 0.02525 0.43025 0.28300
C 	C 	0.40225 0.95617 0.42283 -0.01500
C 	C 	0.42202 0.91307 0.43549 -0.14100
C 	C 	0.47442 0.94159 0.45403 0.41300
C 	C 	0.50298 0.01066 0.46099 -0.17300
F 	F 	0.40791 0.06536 0.41892 -0.38300
H 	H 	0.36325 0.93555 0.40808 0.11800
F 	F 	0.49532 0.90150 0.46624 -0.40300
H 	H 	0.54155 0.03130 0.47592 0.13500
C 	C 	0.08182 0.39234 0.50155 -0.13400
C 	C 	0.01944 0.38625 0.49358 0.00500
C 	C 	0.01895 0.42711 0.47309 0.29400
C 	C 	0.08027 0.47871 0.46283 -0.05000
C 	C 	0.14293 0.48900 0.47225 -0.12300
C 	C 	0.14353 0.44363 0.49093 0.37700
C 	C 	0.95828 0.35041 0.51016 0.03200
F 	F 	0.95916 0.42160 0.46496 -0.36700
H 	H 	0.07921 0.51417 0.44883 0.11800
F 	F 	0.20367 0.45254 0.50023 -0.40600
H 	H 	0.08274 0.36048 0.51714 0.13200
C 	C 	0.89583 0.30072 0.49945 0.31700
C 	C 	0.83416 0.28993 0.51017 -0.04300
C 	C 	0.83488 0.32752 0.53191 -0.12800
C 	C 	0.89662 0.36806 0.54495 0.37800
C 	C 	0.95809 0.37900 0.53418 -0.11300
F 	F 	0.89515 0.26846 0.47723 -0.37500
H 	H 	0.78645 0.25644 0.50048 0.12900
F 	F 	0.89754 0.40127 0.56693 -0.40700
H 	H 	0.00593 0.41515 0.54321 0.11200
C 	C 	0.53071 0.66642 0.51641 -0.13900
C 	C 	0.49377 0.62418 0.53725 0.01700
C 	C 	0.42820 0.61358 0.54277 0.31900
C 	C 	0.39643 0.63699 0.52558 -0.04500
C 	C 	0.43038 0.67182 0.50294 -0.12900
C 	C 	0.49933 0.69056 0.49938 0.38600
C 	C 	0.51839 0.58158 0.54994 0.02600
F 	F 	0.39354 0.57641 0.56381 -0.38200
H 	H 	0.34398 0.62421 0.52903 0.12600
F 	F 	0.53483 0.72936 0.47876 -0.40100
H 	H 	0.58227 0.67686 0.51250 0.13500
C 	C 	0.48529 0.51034 0.54525 0.30700
C 	C 	0.51676 0.47229 0.55207 -0.05100
C 	C 	0.58159 0.50496 0.56342 -0.12800
C 	C 	0.61262 0.57519 0.56976 0.38400
C 	C 	0.58081 0.61320 0.56316 -0.14200
F 	F 	0.42485 0.47902 0.53248 -0.38700
H 	H 	0.49219 0.41797 0.54741 0.10900
F 	F 	0.67572 0.60761 0.58056 -0.41500
H 	H 	0.60641 0.66799 0.56703 0.13900
C 	C 	0.91358 0.12873 0.71061 -0.10600
C 	C 	0.91358 0.12464 0.68357 0.13000
C 	C 	0.88796 0.15944 0.66872 0.07000
C 	C 	0.86084 0.19690 0.68098 0.02200
C 	C 	0.86361 0.20342 0.70799 0.06900
C 	C 	0.89031 0.16964 0.72280 0.13400
C 	C 	0.82475 0.22481 0.66569 0.02100
C 	C 	0.86040 0.29292 0.65636 0.07000
C 	C 	0.82608 0.31893 0.64150 0.13100
C 	C 	0.75669 0.27615 0.63530 -0.10700
C 	C 	0.72061 0.20866 0.64525 0.12900
C 	C 	0.75453 0.18318 0.66058 0.06900
Br	Br	0.82898 0.25715 0.72463 -0.09900
Br	Br	0.94601 0.06894 0.66702 -0.12900
Br	Br	0.87382 0.41323 0.62980 -0.08000
Br	Br	0.70517 0.09094 0.67446 -0.11600
Br	Br	0.89443 0.17872 0.75983 -0.12000
Br	Br	0.88862 0.15490 0.63162 -0.11000
Br	Br	0.95646 0.34999 0.66364 -0.09000
Br	Br	0.62498 0.15080 0.63755 -0.13700
C 	C 	0.19123 0.09800 0.70456 -0.09400
C 	C 	0.23469 0.06931 0.70460 0.12600
C 	C 	0.28395 0.08709 0.68519 0.07000
C 	C 	0.29808 0.14184 0.66833 0.02000
C 	C 	0.25801 0.17430 0.66933 0.07100
C 	C 	0.20314 0.15085 0.68692 0.12600
C 	C 	0.36082 0.17131 0.65237 0.02100
C 	C 	0.42452 0.21367 0.66399 0.06800
C 	C 	0.48490 0.23392 0.65004 0.12900
C 	C 	0.48198 0.21990 0.62346 -0.09900
C 	C 	0.41838 0.17697 0.61179 0.12500
C 	C 	0.35780 0.15129 0.62643 0.07100
Br	Br	0.27909 0.25132 0.64696 -0.10600
Br	Br	0.23049 0.00996 0.73237 -0.14900
Br	Br	0.57173 0.27960 0.66745 -0.11800
Br	Br	0.27092 0.08852 0.61113 -0.10800
Br	Br	0.14362 0.18993 0.68651 -0.13000
Br	Br	0.33268 0.03675 0.68171 -0.11300
Br	Br	0.42880 0.24494 0.69895 -0.10400
Br	Br	0.41427 0.15504 0.57569 -0.14500
C 	C 	0.82567 0.57743 0.59525 -0.09800
C 	C 	0.85399 0.64043 0.58140 0.14000
C 	C 	0.86737 0.70129 0.59428 0.07900
C 	C 	0.86886 0.70300 0.62141 0.02700
C 	C 	0.85499 0.64337 0.63514 0.06900
C 	C 	0.82297 0.57955 0.62271 0.13900
C 	C 	0.87705 0.76406 0.63565 0.02000
C 	C 	0.94287 0.81961 0.64049 0.08600
C 	C 	0.95214 0.86692 0.66002 0.13700
C 	C 	0.89842 0.85253 0.67732 -0.09500
C 	C 	0.83148 0.80082 0.67107 0.13100
C 	C 	0.82065 0.75989 0.64908 0.06900
Br	Br	0.87606 0.64857 0.67135 -0.10000
Br	Br	0.88303 0.64567 0.54610 -0.10000
Br	Br	0.03496 0.95423 0.66117 -0.14600
Br	Br	0.72915 0.69513 0.63822 -0.08600
Br	Br	0.76198 0.49993 0.64308 -0.18600
Br	Br	0.87914 0.78000 0.57487 -0.07900
Br	Br	0.02097 0.82704 0.62231 -0.12600
Br	Br	0.75584 0.78196 0.69355 -0.11100
C 	C 	0.99432 0.39680 0.95291 -0.04000
C 	C 	0.02701 0.45925 0.96646 -0.06100
C 	C 	0.99729 0.50161 0.96730 0.36900
C 	C 	0.93497 0.48103 0.95525 -0.07600
C 	C 	0.90020 0.41691 0.94305 -0.09300
C 	C 	0.93073 0.37539 0.94136 0.35300
C 	C 	0.09252 0.48105 0.97967 0.04800
F 	F 	0.02770 0.56160 0.98067 -0.42400
H 	H 	0.91152 0.51315 0.95673 0.12800
F 	F 	0.89754 0.31318 0.92955 -0.39700
H 	H 	0.01742 0.36433 0.95178 0.11300
C 	C 	0.09495 0.44541 0.00168 0.28800
C 	C 	0.15113 0.47646 0.01833 -0.04200
C 	C 	0.20387 0.54377 0.01345 -0.11900
C 	C 	0.20255 0.57782 0.99084 0.41100
C 	C 	0.14895 0.54505 0.97345 -0.14100
F 	F 	0.04113 0.38287 0.00778 -0.39800
H 	H 	0.15173 0.44979 0.03570 0.10900
F 	F 	0.25199 0.64384 0.98626 -0.40100
H 	H 	0.14824 0.57214 0.95622 0.14900
C 	C 	0.57024 0.03590 0.08304 -0.15600
C 	C 	0.60570 0.05659 0.05950 0.03500
C 	C 	0.61249 0.00787 0.04455 0.26700
C 	C 	0.57559 0.93816 0.05106 -0.01400
C 	C 	0.52992 0.91629 0.07197 -0.14100
C 	C 	0.53144 0.96582 0.08913 0.41700
C 	C 	0.62102 0.12316 0.04783 0.01100
F 	F 	0.64952 0.02723 0.02238 -0.39600
H 	H 	0.57846 0.90068 0.03867 0.11800
F 	F 	0.49246 0.94623 0.11081 -0.40300
H 	H 	0.56787 0.07358 0.09546 0.15400
C 	C 	0.56711 0.13588 0.04228 0.29900
C 	C 	0.57601 0.18521 0.02386 -0.04700
C 	C 	0.63805 0.22114 0.01051 -0.12700
C 	C 	0.69434 0.21489 0.01834 0.38300
C 	C 	0.68610 0.16681 0.03734 -0.11800
F 	F 	0.50431 0.09584 0.05284 -0.40500
H 	H 	0.53289 0.19136 0.01840 0.11000
F 	F 	0.75552 0.25153 0.00621 -0.40600
H 	H 	0.72878 0.15947 0.04230 0.15100
C 	C 	0.39935 0.53210 0.97147 -0.14100
C 	C 	0.46307 0.53554 0.97285 0.01700
C 	C 	0.52033 0.59700 0.98090 0.31400
C 	C 	0.51172 0.65008 0.99119 -0.05300
C 	C 	0.44585 0.64136 0.99402 -0.12300
C 	C 	0.39121 0.58582 0.98138 0.37900
C 	C 	0.46837 0.47286 0.96894 0.02000
F 	F 	0.58349 0.60341 0.98032 -0.39000
H 	H 	0.55531 0.69501 0.99920 0.12700
F 	F 	0.32941 0.58170 0.98015 -0.41300
H 	H 	0.35551 0.48651 0.96390 0.12800
C 	C 	0.48485 0.44340 0.98972 0.30800
C 	C 	0.50430 0.39381 0.98516 -0.04800
C 	C 	0.50779 0.37378 0.95987 -0.13200
C 	C 	0.48117 0.39536 0.93969 0.38600
C 	C 	0.46244 0.44562 0.94415 -0.13600
F 	F 	0.48593 0.46577 0.01411 -0.40100
H 	H 	0.52255 0.37568 0.00101 0.11000
F 	F 	0.48003 0.37285 0.91531 -0.41200
H 	H 	0.44708 0.46604 0.92815 0.13700
C 	C 	0.65799 0.12140 0.89155 -0.09300
C 	C 	0.64813 0.11160 0.86483 0.12300
C 	C 	0.69031 0.09457 0.85027 0.07000
C 	C 	0.73211 0.07328 0.86296 0.01300
C 	C 	0.72869 0.06673 0.89007 0.07600
C 	C 	0.69330 0.09298 0.90442 0.12200
C 	C 	0.77963 0.05839 0.84784 0.03700
C 	C 	0.75326 0.00028 0.83178 0.02900
C 	C 	0.79449 0.99616 0.81232 0.17600
C 	C 	0.86630 0.04031 0.81305 -0.12600
C 	C 	0.89432 0.09306 0.83178 0.14000
C 	C 	0.85048 0.10576 0.84745 0.05900
Br	Br	0.77233 0.02244 0.90734 -0.10100
Br	Br	0.57800 0.12286 0.84829 -0.12600
Br	Br	0.75108 0.93916 0.78266 -0.16000
Br	Br	0.88701 0.18938 0.86730 -0.08600
Br	Br	0.69725 0.09503 0.94148 -0.09300
Br	Br	0.69588 0.10718 0.81338 -0.11000
Br	Br	0.66055 0.92673 0.83628 -0.07800
Br	Br	0.99148 0.14301 0.83791 -0.10000
C 	C 	0.17656 0.06139 0.80333 -0.09800
C 	C 	0.20790 0.02298 0.81090 0.11600
C 	C 	0.27675 0.05701 0.81845 0.07300
C 	C 	0.31046 0.12818 0.82349 0.02000
C 	C 	0.27697 0.16610 0.81852 0.07000
C 	C 	0.21188 0.13376 0.80697 0.12900
C 	C 	0.37657 0.16069 0.83745 0.02300
C 	C 	0.37767 0.14726 0.86384 0.07000
C 	C 	0.44023 0.17233 0.87659 0.14000
C 	C 	0.50121 0.22315 0.86470 -0.10100
C 	C 	0.50002 0.23884 0.83836 0.13500
C 	C 	0.43834 0.20402 0.82440 0.07100
Br	Br	0.31934 0.26178 0.82829 -0.10100
Br	Br	0.15495 0.92388 0.81293 -0.10200
Br	Br	0.44248 0.13218 0.90926 -0.19600
Br	Br	0.43845 0.21492 0.78754 -0.09700
Br	Br	0.17388 0.18960 0.79501 -0.17200
Br	Br	0.32521 0.00643 0.82167 -0.11100
Br	Br	0.29320 0.09670 0.88283 -0.11400
Br	Br	0.58085 0.31046 0.82179 -0.10800
C 	C 	0.76057 0.54179 0.89668 -0.10900
C 	C 	0.82672 0.57558 0.88591 0.12900
C 	C 	0.84437 0.62857 0.86783 0.06700
C 	C 	0.79687 0.64973 0.86136 0.02100
C 	C 	0.73396 0.62172 0.87450 0.07100
C 	C 	0.71609 0.56805 0.89236 0.13100
C 	C 	0.81273 0.70017 0.84038 0.02200
C 	C 	0.85283 0.77088 0.84555 0.07000
C 	C 	0.88331 0.81781 0.82518 0.12800
C 	C 	0.86936 0.79456 0.79944 -0.10300
C 	C 	0.82453 0.72428 0.79428 0.12800
C 	C 	0.79600 0.67719 0.81479 0.06900
Br	Br	0.67179 0.65564 0.86744 -0.10000
Br	Br	0.89316 0.54961 0.89598 -0.13300
Br	Br	0.94758 0.91297 0.83264 -0.10600
Br	Br	0.73600 0.58069 0.80793 -0.10500
Br	Br	0.63165 0.53135 0.91130 -0.10700
Br	Br	0.93261 0.67049 0.85109 -0.10000
Br	Br	0.86796 0.80284 0.88072 -0.09100
Br	Br	0.80675 0.69158 0.75918 -0.10500
