data_crystal

_cell_length_a 41.15220
_cell_length_b 38.42794
_cell_length_c 28.90213
_cell_angle_alpha 89.97076
_cell_angle_beta  89.95332
_cell_angle_gamma 87.63029

_symmetry_space_group_name_	'P 1'
_symmetry_space_group_name_H-M	'P 1'

loop_
_symmetry_equiv_pos_as_xyz
  x,y,z

loop_
_atom_site_label
_atom_site_type_symbol
_atom_site_fract_x
_atom_site_fract_y
_atom_site_fract_z
_atom_site_charge
C 	C 	0.45613 0.54099 0.97176 -0.03700
C 	C 	0.48720 0.55415 0.97018 -0.03900
C 	C 	0.45199 0.50491 0.97628 0.00700
C 	C 	0.47964 0.48187 0.97757 -0.00300
C 	C 	0.51112 0.49532 0.97819 -0.00600
C 	C 	0.51499 0.53167 0.97393 0.01000
C 	C 	0.47584 0.44539 0.97927 0.00800
C 	C 	0.50366 0.42287 0.98238 -0.03700
C 	C 	0.53865 0.47251 0.98404 0.01100
C 	C 	0.54668 0.54480 0.97422 -0.00800
C 	C 	0.57362 0.52208 0.98148 -0.04300
C 	C 	0.56979 0.48643 0.98825 -0.01400
C 	C 	0.42063 0.49143 0.97967 -0.00500
C 	C 	0.41696 0.45542 0.97872 -0.04700
C 	C 	0.44412 0.43228 0.97840 -0.00600
C 	C 	0.55213 0.58237 0.96839 0.01100
C 	C 	0.55711 0.59607 0.92406 -0.04300
C 	C 	0.56697 0.63028 0.91886 -0.03300
C 	C 	0.57203 0.65099 0.95799 -0.00400
C 	C 	0.56607 0.63761 0.00226 -0.03000
C 	C 	0.55620 0.60343 0.00743 -0.04000
C 	C 	0.59801 0.46485 0.00433 0.02600
C 	C 	0.60340 0.46037 0.05192 -0.04600
C 	C 	0.63332 0.44666 0.06779 -0.03200
C 	C 	0.62188 0.45330 0.97263 -0.05100
C 	C 	0.65174 0.43944 0.98847 -0.03500
C 	C 	0.65798 0.43722 0.03614 0.00100
C 	C 	0.39204 0.51431 0.99058 0.00800
C 	C 	0.38443 0.52205 0.03681 -0.03500
C 	C 	0.35688 0.54288 0.04749 -0.03700
C 	C 	0.33683 0.55638 0.01197 0.00700
C 	C 	0.34458 0.54877 0.96563 -0.04100
C 	C 	0.37199 0.52759 0.95501 -0.04000
C 	C 	0.43875 0.39446 0.97819 0.01000
C 	C 	0.43183 0.37769 0.93645 -0.04200
C 	C 	0.42104 0.34364 0.93680 -0.03300
C 	C 	0.41718 0.32608 0.97889 -0.00400
C 	C 	0.42527 0.34236 0.02052 -0.02900
C 	C 	0.43591 0.37648 0.02018 -0.03900
C 	C 	0.53462 0.43627 0.98525 -0.04100
H 	H 	0.55414 0.57994 0.89374 0.04500
H 	H 	0.57136 0.64042 0.88453 0.04200
H 	H 	0.56957 0.65351 0.03265 0.04300
H 	H 	0.55248 0.59302 0.04178 0.04400
H 	H 	0.32936 0.55923 0.93795 0.04300
H 	H 	0.37773 0.52163 0.91922 0.04300
H 	H 	0.35096 0.54836 0.08336 0.04400
H 	H 	0.39978 0.51170 0.06444 0.04400
H 	H 	0.43381 0.39142 0.90389 0.04500
H 	H 	0.41512 0.33115 0.90446 0.04400
H 	H 	0.44105 0.38929 0.05259 0.04500
H 	H 	0.42259 0.32889 0.05316 0.04400
H 	H 	0.58497 0.46905 0.07661 0.04600
H 	H 	0.63782 0.44469 0.10465 0.04200
H 	H 	0.61780 0.45649 0.93581 0.04700
H 	H 	0.67059 0.43199 0.96377 0.04300
H 	H 	0.43530 0.55899 0.96884 0.04300
H 	H 	0.48947 0.58198 0.96655 0.04300
H 	H 	0.59773 0.53242 0.98345 0.04500
H 	H 	0.55549 0.41826 0.98772 0.04400
H 	H 	0.50147 0.39491 0.98303 0.04300
H 	H 	0.39275 0.44528 0.98004 0.04700
Zn	Zn	0.33659 0.13064 0.96381 1.22000
C 	C 	0.27792 0.09512 0.94171 0.31700
O 	O 	0.35209 0.10853 0.02201 -0.43700
O 	O 	0.29737 0.07340 0.91850 -0.44400
O 	O 	0.32664 0.05789 0.01031 -0.47400
C 	C 	0.36370 0.10225 0.88073 0.29900
O 	O 	0.34198 0.12489 0.89712 -0.43300
O 	O 	0.37134 0.07389 0.90418 -0.48600
C 	C 	0.34025 0.07975 0.03834 0.29000
O 	O 	0.38458 0.16220 0.96153 -0.31800
Zn	Zn	0.34044 0.05380 0.94645 1.17200
O 	O 	0.29024 0.11965 0.96743 -0.43000
C 	C 	0.36605 0.18884 0.97344 0.28000
O 	O 	0.33550 0.18274 0.97881 -0.37700
C 	C 	0.52329 0.01147 0.50179 0.01600
C 	C 	0.49648 0.03584 0.49841 0.01600
C 	C 	0.52341 0.98040 0.47619 -0.05300
C 	C 	0.49728 0.97353 0.44678 0.01600
C 	C 	0.47042 0.02911 0.46871 -0.05300
C 	C 	0.47073 0.99819 0.44266 0.01600
H 	H 	0.45010 0.04783 0.46582 0.05600
H 	H 	0.54375 0.96173 0.47906 0.05600
C 	C 	0.44469 0.99055 0.41305 -0.01600
C 	C 	0.44572 0.96067 0.38505 0.01000
C 	C 	0.42455 0.96361 0.34615 -0.03700
C 	C 	0.40746 0.99584 0.34391 -0.01600
S 	S 	0.41952 0.02013 0.38811 0.02600
H 	H 	0.42415 0.94467 0.31851 0.05200
C 	C 	0.49673 0.94223 0.42121 -0.01600
C 	C 	0.47220 0.93654 0.38869 0.01000
C 	C 	0.48217 0.91268 0.35308 -0.03700
C 	C 	0.51444 0.90002 0.35796 -0.01600
S 	S 	0.52978 0.91899 0.40457 0.02600
H 	H 	0.46813 0.90847 0.32212 0.05300
C 	C 	0.54895 0.04917 0.55847 0.01000
C 	C 	0.54965 0.01915 0.53074 -0.01600
S 	S 	0.57348 0.98911 0.55709 0.02700
C 	C 	0.58493 0.01257 0.60231 -0.01600
C 	C 	0.56927 0.04556 0.59834 -0.03600
C 	C 	0.49690 0.06690 0.52445 -0.01600
C 	C 	0.52243 0.07336 0.55510 0.01000
C 	C 	0.51316 0.09724 0.59098 -0.03600
C 	C 	0.48025 0.10816 0.58949 -0.01600
S 	S 	0.46371 0.08850 0.54422 0.02700
H 	H 	0.52877 0.10329 0.61968 0.05500
H 	H 	0.56977 0.06471 0.62567 0.05500
Zn	Zn	0.63818 0.85157 0.97106 1.22100
C 	C 	0.69316 0.89655 0.97466 0.31800
O 	O 	0.61755 0.85381 0.03280 -0.44000
O 	O 	0.67245 0.92272 0.96603 -0.44500
O 	O 	0.63967 0.90451 0.05364 -0.47100
C 	C 	0.61390 0.90214 0.90578 0.29800
O 	O 	0.63445 0.87545 0.91153 -0.43000
O 	O 	0.60105 0.91808 0.94193 -0.48800
C 	C 	0.62628 0.87545 0.06517 0.28900
O 	O 	0.59552 0.81698 0.94572 -0.31700
Zn	Zn	0.62720 0.92711 0.99617 1.17400
O 	O 	0.68251 0.86592 0.98676 -0.43100
C 	C 	0.61665 0.79103 0.94851 0.28000
O 	O 	0.64554 0.79912 0.96150 -0.37900
Zn	Zn	0.15333 0.65164 0.05041 1.22200
C 	C 	0.15140 0.63742 0.14819 0.28900
O 	O 	0.12433 0.68997 0.07161 -0.44600
O 	O 	0.15756 0.67048 0.15369 -0.42800
O 	O 	0.16489 0.72749 0.08203 -0.50300
C 	C 	0.22226 0.63827 0.06240 0.32400
O 	O 	0.19869 0.64373 0.03239 -0.46600
O 	O 	0.22040 0.65250 0.10359 -0.49100
C 	C 	0.13432 0.72189 0.07295 0.32800
O 	O 	0.14436 0.66995 0.97337 -0.30600
Zn	Zn	0.19283 0.69368 0.11503 1.17300
O 	O 	0.15350 0.62307 0.10689 -0.41400
C 	C 	0.12637 0.64313 0.97019 0.24800
O 	O 	0.12442 0.62434 0.00724 -0.35300
C 	C 	0.01090 0.52219 0.57644 0.01600
C 	C 	0.98435 0.49984 0.57267 0.01600
C 	C 	0.03880 0.51606 0.54912 -0.05300
C 	C 	0.04033 0.48825 0.51751 0.01600
C 	C 	0.98630 0.47132 0.54218 -0.05300
C 	C 	0.01403 0.46553 0.51430 0.01600
H 	H 	0.96626 0.45402 0.53978 0.05600
H 	H 	0.05905 0.53307 0.55205 0.05600
C 	C 	0.01644 0.43733 0.48297 -0.01600
C 	C 	0.04283 0.43309 0.45239 0.01100
C 	C 	0.03552 0.41304 0.41254 -0.03600
C 	C 	0.00329 0.40256 0.41148 -0.01500
S 	S 	0.98480 0.41841 0.45891 0.02700
H 	H 	0.05201 0.40914 0.38369 0.05600
C 	C 	0.06765 0.48248 0.48846 -0.01600
C 	C 	0.06835 0.45627 0.45454 0.01100
C 	C 	0.08909 0.46355 0.41641 -0.03600
C 	C 	0.10407 0.49552 0.42041 -0.01600
S 	S 	0.09120 0.51388 0.46977 0.02700
H 	H 	0.09006 0.44836 0.38494 0.05600
C 	C 	0.98062 0.55698 0.63469 0.01000
C 	C 	0.00811 0.55117 0.60648 -0.01600
S 	S 	0.03938 0.56928 0.63256 0.02600
C 	C 	0.01954 0.58629 0.67812 -0.01600
C 	C 	0.98711 0.57674 0.67516 -0.03600
C 	C 	0.95579 0.50785 0.59830 -0.01500
C 	C 	0.95398 0.53562 0.62979 0.01100
C 	C 	0.92903 0.53237 0.66348 -0.03600
C 	C 	0.91200 0.50180 0.65855 -0.01600
S 	S 	0.92853 0.47923 0.61442 0.02600
H 	H 	0.92594 0.54938 0.69309 0.05400
H 	H 	0.96999 0.58071 0.70325 0.05400
Zn	Zn	0.85484 0.37867 0.04208 1.22300
C 	C 	0.79419 0.41491 0.06576 0.32300
O 	O 	0.86871 0.39900 0.98303 -0.44300
O 	O 	0.81176 0.43825 0.08613 -0.44300
O 	O 	0.83874 0.44958 0.99180 -0.47400
C 	C 	0.88130 0.40933 0.12252 0.29800
O 	O 	0.86139 0.38584 0.10816 -0.43300
O 	O 	0.88610 0.43698 0.09721 -0.48300
C 	C 	0.85361 0.42652 0.96492 0.29000
O 	O 	0.90311 0.34303 0.04327 -0.31300
Zn	Zn	0.85308 0.45598 0.05504 1.17500
O 	O 	0.80828 0.39113 0.03899 -0.43500
C 	C 	0.88420 0.31806 0.03244 0.28100
O 	O 	0.85371 0.32699 0.02805 -0.37900
C 	C 	0.92303 0.01275 0.96664 -0.03900
C 	C 	0.93636 0.04552 0.96413 -0.03900
C 	C 	0.94331 0.98246 0.97094 0.00700
C 	C 	0.97752 0.98547 0.97120 -0.00500
C 	C 	0.99101 0.01861 0.96689 -0.00600
C 	C 	0.97032 0.04888 0.96527 0.00800
C 	C 	0.99823 0.95544 0.97637 0.00600
C 	C 	0.03220 0.95860 0.97389 -0.03800
C 	C 	0.02521 0.02145 0.96492 0.00900
C 	C 	0.98406 0.08203 0.96450 -0.00800
C 	C 	0.01776 0.08459 0.96036 -0.04500
C 	C 	0.03843 0.05478 0.96044 -0.00900
C 	C 	0.93010 0.94909 0.97531 -0.00600
C 	C 	0.95082 0.91975 0.98209 -0.04700
C 	C 	0.98454 0.92274 0.98388 -0.00600
C 	C 	0.96401 0.11407 0.97321 0.01200
C 	C 	0.95745 0.13773 0.93714 -0.04500
C 	C 	0.94249 0.17027 0.94659 -0.03000
C 	C 	0.93413 0.17936 0.99221 -0.01100
C 	C 	0.93964 0.15519 0.02802 -0.02700
C 	C 	0.95455 0.12267 0.01855 -0.04100
C 	C 	0.07390 0.05903 0.95692 0.01600
C 	C 	0.09219 0.06491 0.99690 -0.04800
C 	C 	0.12527 0.07153 0.99335 -0.03700
C 	C 	0.08891 0.05977 0.91337 -0.04500
C 	C 	0.12197 0.06645 0.90978 -0.03300
C 	C 	0.14027 0.07250 0.94975 -0.00100
C 	C 	0.89467 0.94429 0.97308 0.01100
C 	C 	0.87587 0.94643 0.01356 -0.04000
C 	C 	0.84320 0.93771 0.01263 -0.02900
C 	C 	0.82916 0.92649 0.97125 -0.00700
C 	C 	0.84791 0.92477 0.93064 -0.03200
C 	C 	0.88050 0.93369 0.93156 -0.04300
C 	C 	0.00502 0.89203 0.99736 0.00800
C 	C 	0.01648 0.86833 0.96366 -0.04000
C 	C 	0.03692 0.84000 0.97632 -0.04100
C 	C 	0.04578 0.83508 0.02280 0.00500
C 	C 	0.03378 0.85841 0.05659 -0.03800
C 	C 	0.01346 0.88681 0.04391 -0.03600
C 	C 	0.04549 0.99110 0.96794 -0.04000
H 	H 	0.96470 0.13126 0.90204 0.04500
H 	H 	0.93818 0.18874 0.91871 0.04200
H 	H 	0.93299 0.16191 0.06328 0.04200
H 	H 	0.95957 0.10451 0.04659 0.04600
H 	H 	0.83731 0.91619 0.89851 0.04200
H 	H 	0.89494 0.93168 0.90024 0.04500
H 	H 	0.82885 0.93954 0.04405 0.04100
H 	H 	0.88669 0.95436 0.04584 0.04400
H 	H 	0.00992 0.87217 0.92767 0.04400
H 	H 	0.04607 0.82202 0.95005 0.04500
H 	H 	0.00456 0.90497 0.07011 0.04400
H 	H 	0.04051 0.85474 0.09255 0.04300
H 	H 	0.08072 0.06457 0.03064 0.04900
H 	H 	0.13923 0.07586 0.02443 0.04600
H 	H 	0.07488 0.05551 0.88233 0.04500
H 	H 	0.13332 0.06713 0.87597 0.04200
H 	H 	0.89685 0.01114 0.96551 0.04300
H 	H 	0.92010 0.06825 0.96062 0.04300
H 	H 	0.02808 0.11010 0.95866 0.04700
H 	H 	0.07167 0.99250 0.96608 0.04300
H 	H 	0.04852 0.93584 0.97609 0.04200
H 	H 	0.94056 0.89444 0.98690 0.04700
C 	C 	0.92800 0.27134 0.03781 0.01500
C 	C 	0.89692 0.28244 0.02241 -0.06800
C 	C 	0.87803 0.25939 0.99725 0.01200
C 	C 	0.89017 0.22571 0.98745 -0.06800
C 	C 	0.92122 0.21473 0.00281 0.04000
C 	C 	0.94008 0.23763 0.02806 -0.06300
H 	H 	0.94275 0.28874 0.05749 0.04800
H 	H 	0.85406 0.26763 0.98497 0.04600
H 	H 	0.87547 0.20815 0.96795 0.05200
H 	H 	0.96413 0.22933 0.03997 0.05400
C 	C 	0.87284 0.46038 0.77806 0.09600
N 	N 	0.89356 0.44058 0.75142 -0.06900
N 	N 	0.90463 0.45301 0.71159 -0.07800
C 	C 	0.89539 0.48563 0.69742 0.11700
N 	N 	0.87386 0.50494 0.72330 -0.08000
N 	N 	0.86262 0.49243 0.76293 -0.07000
C 	C 	0.85565 0.43303 0.91504 0.03400
N 	N 	0.84026 0.46160 0.89634 -0.06100
N 	N 	0.84460 0.46947 0.85194 -0.07300
C 	C 	0.86447 0.44899 0.82494 0.09900
N 	N 	0.87913 0.41984 0.84331 -0.07100
N 	N 	0.87476 0.41195 0.88774 -0.05600
C 	C 	0.93481 0.39514 0.24378 0.10100
N 	N 	0.94729 0.41255 0.20744 -0.07000
N 	N 	0.93023 0.41683 0.16859 -0.05700
C 	C 	0.90043 0.40330 0.16465 0.03700
N 	N 	0.88812 0.38534 0.20067 -0.05600
N 	N 	0.90498 0.38156 0.23989 -0.07100
C 	C 	0.98587 0.39638 0.36794 0.11700
N 	N 	0.95325 0.39216 0.36809 -0.07800
N 	N 	0.93705 0.39007 0.32831 -0.06900
C 	C 	0.95301 0.39223 0.28731 0.09700
N 	N 	0.98572 0.39535 0.28724 -0.06900
N 	N 	0.00194 0.39715 0.32694 -0.07900
C 	C 	0.07835 0.74928 0.07054 0.02600
C 	C 	0.11173 0.75125 0.06124 -0.09800
C 	C 	0.12331 0.78096 0.03939 0.02400
C 	C 	0.10171 0.80827 0.02669 -0.06700
C 	C 	0.06840 0.80619 0.03586 0.03100
C 	C 	0.05679 0.77670 0.05797 -0.06600
H 	H 	0.06914 0.72661 0.08763 0.04300
H 	H 	0.14896 0.78268 0.03165 0.03200
H 	H 	0.11083 0.83105 0.00971 0.05000
H 	H 	0.03108 0.77501 0.06530 0.05400
C 	C 	0.08181 0.61724 0.84612 0.10000
N 	N 	0.10533 0.64098 0.84677 -0.07000
N 	N 	0.11954 0.64921 0.88646 -0.05900
C 	C 	0.11092 0.63365 0.92655 0.05600
N 	N 	0.08757 0.60971 0.92591 -0.05800
N 	N 	0.07310 0.60173 0.88626 -0.07000
C 	C 	0.03578 0.59416 0.72195 0.11700
N 	N 	0.02206 0.58576 0.76303 -0.08000
N 	N 	0.03694 0.59277 0.80269 -0.06900
C 	C 	0.06580 0.60864 0.80242 0.09700
N 	N 	0.07946 0.61713 0.76136 -0.06900
N 	N 	0.06474 0.60981 0.72169 -0.07800
C 	C 	0.13294 0.57653 0.26393 0.10100
N 	N 	0.13696 0.61124 0.26850 -0.07200
N 	N 	0.14225 0.63079 0.23138 -0.06100
C 	C 	0.14358 0.61622 0.18861 0.04100
N 	N 	0.13937 0.58154 0.18397 -0.05400
N 	N 	0.13406 0.56197 0.22112 -0.06900
C 	C 	0.11385 0.51606 0.38004 0.11800
N 	N 	0.11572 0.50125 0.33739 -0.07900
N 	N 	0.12223 0.52046 0.30037 -0.06800
C 	C 	0.12715 0.55501 0.30494 0.09700
N 	N 	0.12600 0.56965 0.34768 -0.07000
N 	N 	0.11949 0.55045 0.38470 -0.07900
C 	C 	0.75060 0.88295 0.99919 0.01700
C 	C 	0.72842 0.90180 0.97086 -0.09000
C 	C 	0.73975 0.92765 0.94120 0.02000
C 	C 	0.77262 0.93542 0.94104 -0.06700
C 	C 	0.79463 0.91726 0.97022 0.03300
C 	C 	0.78357 0.89065 0.99884 -0.07000
H 	H 	0.74224 0.86298 0.02226 0.04600
H 	H 	0.72301 0.94205 0.91867 0.04000
H 	H 	0.78091 0.95590 0.91871 0.05000
H 	H 	0.80044 0.87619 0.02112 0.05500
C 	C 	0.60310 0.94770 0.77566 0.09900
N 	N 	0.58879 0.96285 0.81330 -0.07300
N 	N 	0.59125 0.94758 0.85458 -0.06400
C 	C 	0.60823 0.91678 0.85949 0.03300
N 	N 	0.62227 0.90137 0.82175 -0.05400
N 	N 	0.61959 0.91654 0.78033 -0.07100
C 	C 	0.59309 0.99662 0.64739 0.11700
N 	N 	0.60359 0.96269 0.64995 -0.07900
N 	N 	0.60764 0.94723 0.69098 -0.06900
C 	C 	0.60116 0.96524 0.73056 0.09600
N 	N 	0.59147 0.99937 0.72801 -0.07000
N 	N 	0.58763 0.01487 0.68705 -0.08000
C 	C 	0.57027 0.87344 0.24183 0.09500
N 	N 	0.58389 0.88953 0.27837 -0.07000
N 	N 	0.56640 0.89680 0.31621 -0.07900
C 	C 	0.53466 0.88859 0.31838 0.11700
N 	N 	0.52128 0.87162 0.28237 -0.08100
N 	N 	0.53886 0.86408 0.24466 -0.07100
C 	C 	0.61542 0.87044 0.11292 0.03100
N 	N 	0.59050 0.84937 0.12197 -0.05800
N 	N 	0.57691 0.84917 0.16384 -0.07300
C 	C 	0.58809 0.86978 0.19797 0.09800
N 	N 	0.61391 0.88971 0.18946 -0.07300
N 	N 	0.62726 0.89020 0.14745 -0.06100
C 	C 	0.22075 0.11618 0.95940 0.02200
C 	C 	0.24238 0.09029 0.94144 -0.09100
C 	C 	0.23009 0.05898 0.92503 0.02000
C 	C 	0.19679 0.05338 0.92739 -0.06700
C 	C 	0.17533 0.07898 0.94602 0.03000
C 	C 	0.18739 0.11052 0.96169 -0.06600
H 	H 	0.22972 0.14060 0.97175 0.04300
H 	H 	0.24637 0.03869 0.91121 0.02800
H 	H 	0.18771 0.02893 0.91528 0.04800
H 	H 	0.17096 0.13057 0.97576 0.05200
C 	C 	0.42888 0.12344 0.71251 0.09700
N 	N 	0.46153 0.12692 0.71141 -0.07000
N 	N 	0.47766 0.12430 0.67153 -0.08000
C 	C 	0.46170 0.11752 0.63165 0.11700
N 	N 	0.42880 0.11565 0.63241 -0.07900
N 	N 	0.41261 0.11863 0.67231 -0.07000
C 	C 	0.38096 0.10957 0.83777 0.03600
N 	N 	0.36503 0.12517 0.80170 -0.05700
N 	N 	0.38039 0.12994 0.76167 -0.07100
C 	C 	0.41226 0.11991 0.75704 0.10100
N 	N 	0.42829 0.10495 0.79344 -0.07100
N 	N 	0.41278 0.09953 0.83308 -0.05900
C 	C 	0.35988 0.04899 0.17405 0.09900
N 	N 	0.34212 0.02887 0.14590 -0.07400
N 	N 	0.33485 0.03935 0.10307 -0.06300
C 	C 	0.34522 0.07019 0.08706 0.03300
N 	N 	0.36241 0.09069 0.11551 -0.05600
N 	N 	0.36959 0.08026 0.15846 -0.07100
C 	C 	0.39348 0.01029 0.30090 0.11700
N 	N 	0.39625 0.04449 0.29032 -0.07900
N 	N 	0.38507 0.05704 0.25008 -0.07000
C 	C 	0.37051 0.03581 0.21955 0.09600
N 	N 	0.36720 0.00180 0.23057 -0.07200
N 	N 	0.37862 0.98920 0.27059 -0.08100
C 	C 	0.37052 0.28702 0.97168 -0.06100
C 	C 	0.40381 0.29106 0.97944 0.02900
C 	C 	0.42440 0.26164 0.98700 -0.06100
C 	C 	0.41194 0.22834 0.98593 0.01400
C 	C 	0.37869 0.22415 0.97744 -0.07100
C 	C 	0.35797 0.25371 0.97083 0.01400
H 	H 	0.35443 0.30964 0.96600 0.05100
H 	H 	0.45010 0.26455 0.99323 0.05100
H 	H 	0.42815 0.20580 0.99153 0.04500
H 	H 	0.33232 0.25091 0.96416 0.04500
C 	C 	0.27681 0.56805 0.00886 -0.06000
C 	C 	0.30757 0.57811 0.02338 0.02900
C 	C 	0.31024 0.60825 0.05027 -0.06800
C 	C 	0.28236 0.62782 0.06322 0.02400
C 	C 	0.25159 0.61766 0.04891 -0.09900
C 	C 	0.24895 0.58784 0.02137 0.02600
H 	H 	0.27448 0.54467 0.98839 0.04900
H 	H 	0.33391 0.61640 0.06130 0.04800
H 	H 	0.28469 0.65103 0.08402 0.02100
H 	H 	0.22530 0.57972 0.01025 0.04100
C 	C 	0.70623 0.39647 0.04433 -0.06600
C 	C 	0.69131 0.42932 0.05256 0.03200
C 	C 	0.70947 0.45590 0.07156 -0.06700
C 	C 	0.74283 0.45049 0.07901 0.02200
C 	C 	0.75834 0.41841 0.06738 -0.09200
C 	C 	0.73957 0.39094 0.05199 0.02500
H 	H 	0.69225 0.37561 0.03042 0.05300
H 	H 	0.69803 0.48127 0.07849 0.05000
H 	H 	0.75681 0.47175 0.09171 0.03000
H 	H 	0.75099 0.36569 0.04430 0.04300
C 	C 	0.56540 0.71259 0.93087 -0.06100
C 	C 	0.58444 0.68632 0.95275 0.02800
C 	C 	0.61502 0.69399 0.97065 -0.06100
C 	C 	0.62609 0.72788 0.96787 0.01300
C 	C 	0.60658 0.75451 0.94731 -0.07100
C 	C 	0.57641 0.74650 0.92809 0.01300
H 	H 	0.54186 0.70687 0.91667 0.05000
H 	H 	0.63005 0.67378 0.98716 0.04900
H 	H 	0.64947 0.73353 0.98262 0.04600
H 	H 	0.56130 0.76661 0.91154 0.04500
