data_crystal

_cell_length_a 18.55249
_cell_length_b 18.93109
_cell_length_c 34.42010
_cell_angle_alpha 95.43110
_cell_angle_beta  95.43093
_cell_angle_gamma 126.41484

_symmetry_space_group_name_	'P 1'
_symmetry_space_group_name_H-M	'P 1'

loop_
_symmetry_equiv_pos_as_xyz
  x,y,z

loop_
_atom_site_label
_atom_site_type_symbol
_atom_site_fract_x
_atom_site_fract_y
_atom_site_fract_z
_atom_site_charge
C 	C 	0.89823 0.99860 0.96693 0.11700
C 	C 	0.99032 0.05091 0.96364 -0.07800
C 	C 	0.03757 0.01458 0.96483 0.09400
C 	C 	0.99197 0.92475 0.96763 -0.06600
C 	C 	0.89866 0.87038 0.96855 0.10600
C 	C 	0.85160 0.90749 0.96868 -0.07900
H 	H 	0.02611 0.12083 0.96184 0.08800
H 	H 	0.02875 0.89672 0.96841 0.08600
H 	H 	0.77992 0.86628 0.97053 0.09600
C 	C 	0.94473 0.02329 0.48567 0.11100
C 	C 	0.89133 0.93084 0.48407 -0.07900
C 	C 	0.93295 0.88938 0.48911 0.11400
C 	C 	0.02798 0.93999 0.49393 -0.08200
C 	C 	0.08115 0.03144 0.49292 0.10800
C 	C 	0.03964 0.07346 0.48931 -0.08500
H 	H 	0.81775 0.89173 0.48022 0.09600
H 	H 	0.06042 0.90815 0.49809 0.09300
H 	H 	0.08094 0.14474 0.48965 0.09400
Cu	Cu	0.75545 0.34680 0.96126 0.93300
Cu	Cu	0.74573 0.28999 0.04896 0.89200
Cu	Cu	0.60194 0.29250 0.00690 0.90700
Cu	Cu	0.58134 0.32850 0.92519 0.90900
C 	C 	0.69236 0.30364 0.87646 0.29300
O 	O 	0.80458 0.47506 0.95771 -0.33500
C 	C 	0.65746 0.33932 0.09464 0.29200
O 	O 	0.61237 0.26737 0.95358 -0.63900
O 	O 	0.73738 0.36293 0.01616 -0.63800
O 	O 	0.81998 0.29264 0.97037 -0.34500
O 	O 	0.72101 0.20012 0.00794 -0.41200
O 	O 	0.64892 0.33850 0.88155 -0.35200
O 	O 	0.47092 0.21656 0.99443 -0.36200
C 	C 	0.42223 0.22150 0.96585 0.33700
C 	C 	0.75843 0.50508 0.96640 0.32500
O 	O 	0.67299 0.44881 0.96977 -0.37000
O 	O 	0.46038 0.27673 0.94072 -0.36100
O 	O 	0.74987 0.31287 0.90615 -0.33500
C 	C 	0.78081 0.21895 0.98520 0.33100
O 	O 	0.59031 0.29945 0.06341 -0.35900
O 	O 	0.73406 0.35050 0.09244 -0.39000
H 	H 	0.57720 0.20291 0.94243 0.18500
H 	H 	0.77030 0.42568 0.02958 0.19900
Cu	Cu	0.62282 0.20042 0.50649 0.93400
Cu	Cu	0.69307 0.22502 0.42179 0.89100
Cu	Cu	0.64174 0.33415 0.45839 0.90700
Cu	Cu	0.64880 0.37555 0.54563 0.91400
C 	C 	0.67251 0.26383 0.59110 0.29500
O 	O 	0.49576 0.15934 0.51276 -0.33900
C 	C 	0.63046 0.29963 0.37298 0.28500
O 	O 	0.69742 0.33918 0.51072 -0.63300
O 	O 	0.60115 0.20953 0.45071 -0.63800
O 	O 	0.67256 0.13313 0.49650 -0.34400
O 	O 	0.77552 0.23730 0.46388 -0.41100
O 	O 	0.63257 0.30183 0.58617 -0.35700
O 	O 	0.67017 0.45247 0.46716 -0.34900
C 	C 	0.72431 0.51617 0.49849 0.33100
C 	C 	0.46463 0.20439 0.50391 0.31900
O 	O 	0.52140 0.29037 0.50316 -0.37300
O 	O 	0.72667 0.49725 0.53419 -0.36200
O 	O 	0.66585 0.21008 0.56124 -0.33600
C 	C 	0.74855 0.17077 0.48258 0.33700
O 	O 	0.60645 0.32794 0.40198 -0.34200
O 	O 	0.63616 0.23388 0.37509 -0.38400
H 	H 	0.76481 0.37627 0.51527 0.17800
H 	H 	0.53761 0.16469 0.43622 0.20000
C 	C 	0.78482 0.29210 0.78498 -0.04800
C 	C 	0.70707 0.25089 0.75524 0.03000
C 	C 	0.62257 0.21727 0.76600 -0.04800
C 	C 	0.61693 0.23008 0.80593 0.02200
C 	C 	0.69571 0.27652 0.83551 -0.05900
C 	C 	0.77918 0.30473 0.82498 0.02800
C 	C 	0.71604 0.25392 0.71316 0.03100
H 	H 	0.56202 0.18489 0.74329 0.06700
H 	H 	0.55187 0.20655 0.81375 0.04900
H 	H 	0.84039 0.33995 0.84754 0.06400
H 	H 	0.85021 0.31745 0.77701 0.06800
C 	C 	0.76500 0.33652 0.70068 -0.04900
C 	C 	0.75698 0.33967 0.66022 0.02300
C 	C 	0.70020 0.26032 0.63188 -0.06300
C 	C 	0.65772 0.17770 0.64418 0.03000
C 	C 	0.66541 0.17451 0.68472 -0.04900
H 	H 	0.80509 0.39824 0.72237 0.06600
H 	H 	0.79111 0.40380 0.65099 0.04300
H 	H 	0.61437 0.11596 0.62253 0.06100
H 	H 	0.62850 0.11038 0.69403 0.06800
C 	C 	0.70797 0.37000 0.27739 -0.05000
C 	C 	0.63511 0.36510 0.25746 0.02900
C 	C 	0.56462 0.34713 0.27728 -0.05000
C 	C 	0.56504 0.33004 0.31601 0.02500
C 	C 	0.63584 0.33068 0.33505 -0.06500
C 	C 	0.70836 0.35305 0.31594 0.02200
C 	C 	0.62858 0.36978 0.21476 0.02900
H 	H 	0.50843 0.34397 0.26232 0.06700
H 	H 	0.50883 0.31314 0.33056 0.06300
H 	H 	0.76382 0.35471 0.33059 0.04100
H 	H 	0.76265 0.38365 0.26242 0.06200
C 	C 	0.70281 0.44176 0.20143 -0.05000
C 	C 	0.70909 0.43477 0.16128 0.02200
C 	C 	0.64036 0.35650 0.13403 -0.06700
C 	C 	0.56133 0.28896 0.14660 0.02200
C 	C 	0.55567 0.29532 0.18686 -0.05000
H 	H 	0.75829 0.50069 0.22255 0.06700
H 	H 	0.76932 0.48837 0.15170 0.05600
H 	H 	0.50701 0.22892 0.12568 0.05600
H 	H 	0.49735 0.23989 0.19666 0.06400
C 	C 	0.82515 0.64298 0.46425 0.12100
C 	C 	0.77289 0.61035 0.49436 -0.11400
C 	C 	0.77012 0.66920 0.52142 0.12100
C 	C 	0.82890 0.76135 0.52185 0.06900
C 	C 	0.87704 0.79320 0.49059 -0.03900
C 	C 	0.87137 0.73293 0.46070 0.07000
Br	Br	0.92264 0.77243 0.41396 -0.15100
Br	Br	0.83928 0.56690 0.42985 -0.21400
Br	Br	0.84838 0.84396 0.56668 -0.14300
Br	Br	0.67901 0.62328 0.55458 -0.17000
C 	C 	0.85503 0.06247 0.44834 0.06900
C 	C 	0.90093 0.06762 0.48472 -0.03900
C 	C 	0.89666 0.10656 0.52056 0.07000
C 	C 	0.84629 0.14011 0.51994 0.12200
C 	C 	0.79766 0.13197 0.48363 -0.12300
C 	C 	0.80090 0.09174 0.44789 0.12000
Br	Br	0.72736 0.07249 0.39863 -0.24200
Br	Br	0.86724 0.01598 0.39912 -0.15200
Br	Br	0.84570 0.19916 0.56865 -0.17500
Br	Br	0.95835 0.11218 0.57049 -0.14200
C 	C 	0.21779 0.09492 0.46106 0.07200
C 	C 	0.18059 0.08307 0.49586 -0.04100
C 	C 	0.23719 0.11340 0.53329 0.07000
C 	C 	0.33002 0.15163 0.53589 0.11700
C 	C 	0.36693 0.16191 0.50104 -0.11300
C 	C 	0.31123 0.13543 0.46369 0.11600
Br	Br	0.36301 0.15468 0.41621 -0.20200
Br	Br	0.14008 0.05378 0.40979 -0.15200
Br	Br	0.40690 0.19062 0.58717 -0.17900
Br	Br	0.18718 0.10264 0.58099 -0.15200
C 	C 	0.82521 0.71662 0.93151 0.07000
C 	C 	0.85030 0.77375 0.96780 -0.03800
C 	C 	0.84572 0.74258 0.00375 0.07000
C 	C 	0.81948 0.65569 0.00348 0.11900
C 	C 	0.79823 0.59993 0.96725 -0.11500
C 	C 	0.80183 0.63090 0.93127 0.11500
Br	Br	0.77520 0.55612 0.88164 -0.17900
Br	Br	0.82339 0.75643 0.88211 -0.14200
Br	Br	0.81406 0.61349 0.05278 -0.19900
Br	Br	0.87699 0.81972 0.05336 -0.14600
C 	C 	0.81257 0.05136 0.93853 0.06600
C 	C 	0.85382 0.04203 0.97213 -0.04400
C 	C 	0.86864 0.08899 0.00992 0.07200
C 	C 	0.85141 0.15211 0.01366 0.12000
C 	C 	0.81083 0.16225 0.98007 -0.12000
C 	C 	0.78982 0.11047 0.94256 0.12000
Br	Br	0.72807 0.11882 0.89699 -0.18700
Br	Br	0.78840 0.98391 0.88700 -0.14500
Br	Br	0.88839 0.22850 0.06435 -0.23100
Br	Br	0.91275 0.06662 0.05657 -0.14300
C 	C 	0.19889 0.13188 0.99891 0.06600
C 	C 	0.13591 0.07146 0.96432 -0.03500
C 	C 	0.16703 0.06298 0.92971 0.06300
C 	C 	0.26096 0.11041 0.93048 0.12000
C 	C 	0.32399 0.17203 0.96487 -0.11800
C 	C 	0.29271 0.18529 0.99853 0.12000
Br	Br	0.37797 0.27995 0.04319 -0.17200
Br	Br	0.15673 0.13836 0.04730 -0.15300
Br	Br	0.30309 0.08728 0.88532 -0.19600
Br	Br	0.08083 0.98772 0.88111 -0.14100
