data_crystal

_cell_length_a 15.69350
_cell_length_b 16.75261
_cell_length_c 48.57525
_cell_angle_alpha 90.20634
_cell_angle_beta  90.21593
_cell_angle_gamma 119.39885

_symmetry_space_group_name_	'P 1'
_symmetry_space_group_name_H-M	'P 1'

loop_
_symmetry_equiv_pos_as_xyz
  x,y,z

loop_
_atom_site_label
_atom_site_type_symbol
_atom_site_fract_x
_atom_site_fract_y
_atom_site_fract_z
_atom_site_charge
C 	C 	0.46907 0.12233 0.88070 0.30800
O 	O 	0.45563 0.19076 0.93862 -0.28200
C 	C 	0.47312 0.24906 0.65777 0.33000
O 	O 	0.44873 0.18246 0.59898 -0.34200
C 	C 	0.15988 0.02115 0.72778 0.29500
C 	C 	0.16934 0.99146 0.80441 0.33400
Ni	Ni	0.06112 0.06630 0.76948 1.14100
Ni	Ni	0.02868 0.86499 0.76399 1.14300
O 	O 	0.10047 0.05295 0.73174 -0.30800
O 	O 	0.10777 0.90438 0.79851 -0.31000
O 	O 	0.17456 0.06066 0.78923 -0.32500
O 	O 	0.00435 0.08488 0.80431 -0.30800
O 	O 	0.15267 0.95278 0.74296 -0.24400
C 	C 	0.18033 0.49156 0.44959 0.30600
C 	C 	0.33518 0.85408 0.40308 0.31100
C 	C 	0.23731 0.55832 0.37953 0.32800
C 	C 	0.30297 0.79115 0.47878 0.30400
C 	C 	0.55315 0.76654 0.39622 0.32100
C 	C 	0.49861 0.67469 0.47141 0.29900
Ni	Ni	0.22606 0.67087 0.42687 1.13000
Ni	Ni	0.45598 0.80712 0.44047 1.12900
Ni	Ni	0.38420 0.60060 0.42113 1.13300
O 	O 	0.17885 0.56769 0.45502 -0.35900
O 	O 	0.25102 0.49038 0.43408 -0.32500
O 	O 	0.51119 0.81416 0.40316 -0.34300
O 	O 	0.28487 0.76767 0.39664 -0.31400
O 	O 	0.39501 0.88120 0.42450 -0.30500
O 	O 	0.45080 0.60020 0.45602 -0.34000
O 	O 	0.17694 0.56748 0.39633 -0.32500
O 	O 	0.33073 0.60678 0.38406 -0.31100
O 	O 	0.24291 0.76837 0.45715 -0.28500
O 	O 	0.39615 0.81403 0.47609 -0.36400
O 	O 	0.52104 0.68270 0.40572 -0.31200
O 	O 	0.34980 0.68610 0.43603 -0.71400
H 	H 	0.34075 0.66713 0.45542 0.16300
C 	C 	0.37338 0.58499 0.09897 0.29200
C 	C 	0.54669 0.86974 0.10726 0.31500
C 	C 	0.37736 0.52514 0.17505 0.29500
C 	C 	0.20506 0.68294 0.10769 0.32100
C 	C 	0.21615 0.72629 0.18121 0.28600
Ni	Ni	0.50397 0.70443 0.14336 1.13800
Ni	Ni	0.26084 0.59646 0.14947 1.13100
Ni	Ni	0.37904 0.81485 0.14164 1.12900
O 	O 	0.54814 0.78335 0.17816 -0.29100
O 	O 	0.50747 0.89399 0.16432 -0.31100
O 	O 	0.17278 0.61984 0.12616 -0.37200
O 	O 	0.46382 0.63086 0.10768 -0.34000
O 	O 	0.30030 0.53852 0.11694 -0.34800
O 	O 	0.29910 0.80061 0.17512 -0.33500
O 	O 	0.45323 0.83691 0.10700 -0.36400
O 	O 	0.20781 0.64304 0.18016 -0.27300
O 	O 	0.46441 0.58066 0.16449 -0.27500
O 	O 	0.31530 0.55357 0.17931 -0.32200
O 	O 	0.26280 0.76996 0.11472 -0.33100
O 	O 	0.38332 0.70580 0.14836 -0.71700
H 	H 	0.38659 0.71267 0.16852 0.17400
C 	C 	0.10857 0.92647 0.25032 0.30300
C 	C 	0.19106 0.24702 0.32236 0.31700
C 	C 	0.15702 0.97221 0.32602 0.33200
C 	C 	0.17268 0.23704 0.24660 0.30200
Ni	Ni	0.19900 0.11054 0.28364 1.14000
O 	O 	0.18598 0.99137 0.26412 -0.25400
O 	O 	0.24395 0.23794 0.30294 -0.31000
O 	O 	0.09977 0.18525 0.32484 -0.31800
O 	O 	0.19268 0.05948 0.32232 -0.30500
O 	O 	0.08350 0.91243 0.31068 -0.32000
O 	O 	0.20128 0.17501 0.24762 -0.29600
O 	O 	0.11800 0.24498 0.26665 -0.30600
O 	O 	0.06305 0.06280 0.28169 -0.72700
H 	H 	0.05134 0.05686 0.26164 0.20000
C 	C 	0.27949 0.35989 0.18041 0.05600
C 	C 	0.35921 0.44197 0.18978 0.02500
C 	C 	0.38405 0.44976 0.21803 -0.07200
C 	C 	0.31506 0.38849 0.23689 0.06900
C 	C 	0.22661 0.31409 0.22762 0.03200
C 	C 	0.20715 0.30142 0.19901 -0.07500
C 	C 	0.10987 0.22563 0.18829 0.78000
H 	H 	0.26600 0.34922 0.15844 0.09200
H 	H 	0.33192 0.39633 0.25871 0.10100
C 	C 	0.47903 0.52919 0.22846 0.78300
F 	F 	0.09198 0.24287 0.16164 -0.40100
F 	F 	0.03416 0.21796 0.20463 -0.40000
F 	F 	0.11057 0.14358 0.18851 -0.36600
F 	F 	0.46800 0.60564 0.23177 -0.38000
F 	F 	0.55350 0.54881 0.20996 -0.40000
F 	F 	0.50596 0.50868 0.25349 -0.39000
C 	C 	0.13016 0.79088 0.24325 0.06700
C 	C 	0.12260 0.86399 0.23183 0.04200
C 	C 	0.11372 0.86841 0.20298 -0.08900
C 	C 	0.11711 0.80135 0.18620 0.06300
C 	C 	0.14571 0.74094 0.19734 0.02700
C 	C 	0.14000 0.72779 0.22617 -0.06900
C 	C 	0.14761 0.64891 0.23880 0.78700
H 	H 	0.12746 0.78278 0.26539 0.13800
H 	H 	0.11207 0.80479 0.16402 0.09900
C 	C 	0.10901 0.94844 0.19008 0.80100
F 	F 	0.11489 0.63385 0.26571 -0.36100
F 	F 	0.24401 0.66824 0.23863 -0.36800
F 	F 	0.09079 0.56916 0.22402 -0.38900
F 	F 	0.19035 0.02944 0.19808 -0.40900
F 	F 	0.10706 0.94389 0.16160 -0.38700
F 	F 	0.47888 0.77718 0.33990 -0.37000
C 	C 	0.18470 0.39390 0.37730 0.05500
C 	C 	0.20256 0.47339 0.36326 0.00800
C 	C 	0.22053 0.47822 0.33461 -0.06600
C 	C 	0.23531 0.41016 0.32184 0.06400
C 	C 	0.22523 0.33456 0.33689 0.01800
C 	C 	0.21145 0.33304 0.36557 -0.07800
C 	C 	0.21924 0.26301 0.38344 0.78000
H 	H 	0.15638 0.38254 0.39799 0.09200
H 	H 	0.24741 0.41251 0.29985 0.10100
C 	C 	0.22407 0.55527 0.31759 0.78300
F 	F 	0.24710 0.29637 0.40999 -0.40500
F 	F 	0.28838 0.24256 0.37306 -0.40100
F 	F 	0.31852 0.62772 0.31735 -0.34100
F 	F 	0.16257 0.58473 0.32833 -0.38400
F 	F 	0.19471 0.52655 0.29075 -0.36500
C 	C 	0.17203 0.92794 0.37320 0.07500
C 	C 	0.20541 0.94195 0.34603 0.02200
C 	C 	0.29872 0.95168 0.34021 -0.06900
C 	C 	0.35416 0.94349 0.36174 0.07100
C 	C 	0.31477 0.91855 0.38810 0.02600
C 	C 	0.22989 0.92367 0.39460 -0.08000
C 	C 	0.19698 0.91874 0.42406 0.78400
H 	H 	0.10300 0.92498 0.37788 0.12700
H 	H 	0.42328 0.94635 0.35739 0.12500
C 	C 	0.33807 0.96856 0.31107 0.79600
F 	F 	0.15211 0.97152 0.42751 -0.37000
F 	F 	0.27556 0.95146 0.44210 -0.42100
F 	F 	0.13071 0.82893 0.43040 -0.43400
F 	F 	0.35784 0.05462 0.30257 -0.44100
F 	F 	0.26975 0.90307 0.29360 -0.41300
F 	F 	0.42339 0.96367 0.30908 -0.35900
C 	C 	0.27387 0.81109 0.50526 -0.05000
C 	C 	0.26263 0.75108 0.52658 0.14100
C 	C 	0.33387 0.78155 0.54750 -0.06700
C 	C 	0.40261 0.87558 0.54937 0.02600
C 	C 	0.38497 0.93758 0.53384 0.11400
C 	C 	0.31604 0.90372 0.51238 -0.01000
H 	H 	0.34017 0.73257 0.56061 0.10800
H 	H 	0.31060 0.95105 0.49830 0.13500
C 	C 	0.51434 0.90636 0.59037 0.08600
Br	Br	0.16373 0.62561 0.52407 -0.17200
Br	Br	0.40665 0.83709 0.61453 -0.09100
C 	C 	0.99416 0.36401 0.49723 -0.08200
C 	C 	0.07495 0.37308 0.48228 0.17300
C 	C 	0.08924 0.40627 0.45525 -0.06800
C 	C 	0.00589 0.39370 0.44068 0.01500
H 	H 	0.98946 0.35044 0.51913 0.10900
H 	H 	0.01087 0.40652 0.41874 0.09100
Br	Br	0.17093 0.35151 0.49981 -0.12000
C 	C 	0.38323 0.25689 0.56943 -0.07100
C 	C 	0.34813 0.30795 0.58347 0.14400
C 	C 	0.40625 0.41851 0.54655 0.03400
C 	C 	0.40404 0.34937 0.52912 0.08900
C 	C 	0.38911 0.26662 0.54072 0.00000
H 	H 	0.39894 0.21823 0.52817 0.09800
C 	C 	0.42809 0.63617 0.51748 -0.01500
C 	C 	0.39668 0.56088 0.53513 0.09200
H 	H 	0.38047 0.66450 0.51349 0.06400
Br	Br	0.42206 0.36680 0.49009 -0.10900
Br	Br	0.27819 0.52056 0.55552 -0.14700
C 	C 	0.30718 0.11968 0.66373 0.08100
C 	C 	0.38054 0.20579 0.67315 0.01600
C 	C 	0.38031 0.23001 0.70102 -0.04900
C 	C 	0.31545 0.16354 0.71957 0.07300
C 	C 	0.24644 0.07520 0.71042 0.06400
C 	C 	0.24486 0.05201 0.68237 -0.08800
C 	C 	0.17488 0.95589 0.67212 0.79800
H 	H 	0.30544 0.10244 0.64214 0.08700
H 	H 	0.31543 0.18176 0.74099 0.13200
C 	C 	0.45477 0.32422 0.71155 0.78000
F 	F 	0.19920 0.94058 0.64602 -0.39900
F 	F 	0.08108 0.94326 0.67128 -0.35300
F 	F 	0.17718 0.89191 0.68959 -0.38900
F 	F 	0.46848 0.39041 0.69241 -0.39600
F 	F 	0.42417 0.34544 0.73583 -0.36500
H 	H 	0.11938 0.56385 0.97791 0.10800
C 	C 	0.06997 0.56646 0.03047 0.03100
C 	C 	0.07406 0.64871 0.03909 -0.06200
C 	C 	0.12418 0.69274 0.06353 0.15700
C 	C 	0.17014 0.65363 0.07922 -0.07300
C 	C 	0.16180 0.56998 0.07052 -0.00800
C 	C 	0.11961 0.53097 0.04552 0.09300
H 	H 	0.18160 0.53150 0.08424 0.07800
Br	Br	0.05149 0.44336 0.92857 -0.07400
Br	Br	0.11829 0.79824 0.07650 -0.10100
Br	Br	0.11995 0.42118 0.03386 -0.14600
C 	C 	0.56113 0.04953 0.05214 -0.00000
C 	C 	0.41185 0.07320 0.99448 0.00300
C 	C 	0.43336 0.03605 0.01762 0.08400
H 	H 	0.35268 0.02883 0.98074 0.12000
Br	Br	0.34262 0.91380 0.02867 -0.11100
C 	C 	0.45507 0.54833 0.02059 0.03200
C 	C 	0.44709 0.62586 0.02631 -0.07100
C 	C 	0.39676 0.62934 0.04947 0.14400
C 	C 	0.36218 0.55851 0.06932 -0.07700
C 	C 	0.36027 0.47621 0.06198 -0.00000
C 	C 	0.40599 0.47062 0.03760 0.09400
H 	H 	0.48075 0.68441 0.01271 0.10600
H 	H 	0.33037 0.41920 0.07616 0.09400
Br	Br	0.35976 0.54150 0.96194 -0.13300
Br	Br	0.38465 0.73571 0.05440 -0.19500
F 	F 	0.04574 0.25353 0.78455 -0.41500
F 	F 	0.98972 0.35274 0.78597 -0.37800
C 	C 	0.40678 0.03441 0.83806 0.06500
C 	C 	0.38878 0.04770 0.86543 0.01700
C 	C 	0.29168 0.01989 0.87332 -0.07600
C 	C 	0.22257 0.00771 0.85297 0.04200
C 	C 	0.24580 0.01061 0.82506 0.00800
C 	C 	0.33596 0.01648 0.81750 -0.06800
C 	C 	0.35756 0.00586 0.78770 0.77000
H 	H 	0.47969 0.04890 0.83239 0.11300
H 	H 	0.15059 0.99564 0.85884 0.13200
C 	C 	0.26393 0.01302 0.90334 0.75000
F 	F 	0.44741 0.01005 0.78494 -0.36900
F 	F 	0.35850 0.07519 0.77217 -0.39900
F 	F 	0.28681 0.92201 0.77748 -0.38900
F 	F 	0.27285 0.09543 0.91205 -0.43300
F 	F 	0.32307 0.99197 0.91944 -0.40000
F 	F 	0.16806 0.94469 0.90691 -0.37500
C 	C 	0.37371 0.39538 0.57382 -0.07000
Br	Br	0.27610 0.26414 0.61679 -0.08700
C 	C 	0.04480 0.51204 0.98233 -0.05300
Br	Br	0.39763 0.35629 0.02759 -0.13800
Br	Br	0.45902 0.06704 0.53989 -0.19200
H 	H 	0.37264 0.44555 0.58769 0.11500
C 	C 	0.45197 0.51554 0.53726 0.02700
F 	F 	0.12979 0.18381 0.38432 -0.36400
C 	C 	0.57761 0.07775 0.07975 -0.05600
H 	H 	0.56629 0.13339 0.08668 0.09500
C 	C 	0.51980 0.09074 0.03289 0.04000
C 	C 	0.56538 0.86839 0.17786 0.29300
C 	C 	0.48614 0.55430 0.96953 0.09400
O 	O 	0.58549 0.82721 0.12078 -0.27700
Br	Br	0.59755 0.96476 0.00442 -0.11400
O 	O 	0.48670 0.20546 0.87622 -0.32100
C 	C 	0.60750 0.03317 0.09853 0.11800
C 	C 	0.58913 0.98556 0.04295 0.12300
Br	Br	0.64063 0.07971 0.13533 -0.10700
C 	C 	0.50937 0.18051 0.95831 0.30100
Ni	Ni	0.51327 0.29483 0.90827 1.13100
Ni	Ni	0.64975 0.20058 0.91553 1.15100
O 	O 	0.58586 0.17083 0.95232 -0.33600
O 	O 	0.54546 0.39935 0.87916 -0.31900
O 	O 	0.51508 0.10524 0.90057 -0.29500
O 	O 	0.55092 0.39494 0.93739 -0.34500
C 	C 	0.68950 0.16472 0.66363 0.33500
C 	C 	0.46490 0.25314 0.58280 0.31500
Ni	Ni	0.62158 0.37962 0.61821 1.12800
Ni	Ni	0.55190 0.16737 0.62166 1.13200
O 	O 	0.60699 0.13605 0.58891 -0.36400
O 	O 	0.49278 0.31523 0.63980 -0.31900
O 	O 	0.62299 0.11647 0.64494 -0.33800
O 	O 	0.54845 0.32995 0.58332 -0.38800
O 	O 	0.52249 0.20591 0.65725 -0.32500
O 	O 	0.53698 0.75875 0.46059 -0.34500
C 	C 	0.63870 0.97258 0.21737 0.06300
C 	C 	0.65245 0.93640 0.19285 0.03900
H 	H 	0.57444 0.98031 0.21954 0.12300
F 	F 	0.60133 0.03253 0.26626 -0.37200
C 	C 	0.64425 0.81237 0.38009 0.01200
C 	C 	0.64036 0.81219 0.35098 -0.07100
C 	C 	0.54653 0.74809 0.33579 0.78800
H 	H 	0.73370 0.87366 0.41598 0.09600
F 	F 	0.56144 0.74639 0.30777 -0.36600
F 	F 	0.50921 0.65974 0.34555 -0.40100
C 	C 	0.50097 0.90580 0.56156 0.02600
C 	C 	0.58481 0.95194 0.54494 -0.04800
C 	C 	0.67445 0.03790 0.58507 -0.08200
C 	C 	0.60676 0.96661 0.60161 0.01300
H 	H 	0.57861 0.94440 0.52274 0.09600
H 	H 	0.61713 0.97041 0.62372 0.10600
C 	C 	0.54727 0.55849 0.52653 -0.06600
C 	C 	0.57685 0.63239 0.50839 0.15200
C 	C 	0.51024 0.66191 0.50079 -0.07700
H 	H 	0.59469 0.52958 0.53025 0.09600
F 	F 	0.53565 0.03618 0.69947 -0.40000
F 	F 	0.54287 0.32649 0.71629 -0.34300
C 	C 	0.60622 0.95153 0.09062 -0.01600
C 	C 	0.61330 0.93768 0.06239 -0.01400
H 	H 	0.62433 0.88170 0.05564 0.09900
C 	C 	0.56906 0.18569 0.02888 -0.08000
C 	C 	0.54235 0.22271 0.00692 0.15000
C 	C 	0.47619 0.16395 0.98688 -0.06000
H 	H 	0.63074 0.23005 0.04189 0.09900
C 	C 	0.62828 0.54934 0.95199 -0.05600
C 	C 	0.61036 0.56309 0.00124 -0.06400
C 	C 	0.51562 0.55005 0.99675 0.03200
C 	C 	0.54720 0.56193 0.94745 0.00000
H 	H 	0.63854 0.56990 0.02202 0.10400
H 	H 	0.52158 0.55987 0.92657 0.09600
F 	F 	0.66468 0.36447 0.80306 -0.38400
H 	H 	0.03511 0.67612 0.02754 0.11400
O 	O 	0.63759 0.30789 0.91485 -0.71800
H 	H 	0.64716 0.32447 0.93453 0.17000
C 	C 	0.68637 0.12846 0.59134 0.30900
O 	O 	0.65732 0.28708 0.61489 -0.71000
C 	C 	0.67370 0.01661 0.55713 0.13700
C 	C 	0.61502 0.41278 0.79947 0.78300
F 	F 	0.61195 0.42898 0.77165 -0.35700
F 	F 	0.73251 0.83180 0.15450 -0.43900
C 	C 	0.73064 0.87512 0.39371 0.05800
C 	C 	0.61557 0.42295 0.86086 0.32300
C 	C 	0.63036 0.47583 0.93585 0.30400
O 	O 	0.68745 0.41822 0.65517 -0.31500
O 	O 	0.73677 0.25350 0.66212 -0.30000
H 	H 	0.66145 0.28483 0.59479 0.16700
C 	C 	0.70238 0.98997 0.23998 -0.04600
C 	C 	0.74135 0.93540 0.18921 -0.07700
C 	C 	0.77461 0.92388 0.16102 0.78800
C 	C 	0.69094 0.03528 0.26577 0.76400
F 	F 	0.74935 0.96806 0.14141 -0.41200
F 	F 	0.69725 0.99118 0.28898 -0.39900
C 	C 	0.72211 0.87697 0.33618 0.05900
H 	H 	0.72174 0.87373 0.31395 0.12700
H 	H 	0.66564 0.30223 0.54375 0.07100
Br	Br	0.70123 0.68155 0.49064 -0.12300
C 	C 	0.73442 0.12125 0.67940 0.00400
C 	C 	0.70617 0.09447 0.70682 -0.05700
C 	C 	0.61143 0.08529 0.71786 0.77800
H 	H 	0.83987 0.14452 0.64789 0.08300
F 	F 	0.58655 0.03985 0.74278 -0.37000
F 	F 	0.62167 0.17146 0.72161 -0.34700
F 	F 	0.76403 0.39395 0.71505 -0.35000
Br	Br	0.61360 0.35155 0.00091 -0.20000
C 	C 	0.66824 0.56631 0.97870 0.15500
F 	F 	0.74992 0.10705 0.90825 -0.47500
C 	C 	0.64644 0.50534 0.84374 0.00600
C 	C 	0.66649 0.50208 0.81550 -0.07300
F 	F 	0.51972 0.36000 0.80841 -0.39000
O 	O 	0.67652 0.39221 0.86358 -0.33700
O 	O 	0.69599 0.49610 0.91550 -0.33000
O 	O 	0.69829 0.21404 0.87736 -0.33200
O 	O 	0.76483 0.18999 0.60574 -0.33100
C 	C 	0.82074 0.12696 0.66927 0.06700
F 	F 	0.89258 0.49210 0.74077 -0.38000
C 	C 	0.79629 0.93941 0.21235 0.07800
C 	C 	0.77955 0.96876 0.23761 0.02300
C 	C 	0.80983 0.94393 0.37900 -0.07400
C 	C 	0.85461 0.47224 0.71429 0.78000
C 	C 	0.68711 0.59074 0.85706 0.05700
H 	H 	0.66524 0.59446 0.87794 0.09100
Ni	Ni	0.74733 0.41148 0.89950 1.13000
Ni	Ni	0.78552 0.31415 0.62454 1.12700
O 	O 	0.74529 0.46513 0.59588 -0.33900
C 	C 	0.80584 0.94403 0.34989 0.03800
Br	Br	0.70110 0.22012 0.49375 -0.13600
Br	Br	0.79811 0.58647 0.98477 -0.15000
C 	C 	0.73970 0.58135 0.80264 0.06100
H 	H 	0.75699 0.57839 0.78122 0.10400
O 	O 	0.78625 0.27187 0.93347 -0.28500
C 	C 	0.78194 0.46597 0.65763 0.31800
F 	F 	0.76380 0.12597 0.26671 -0.40000
Br	Br	0.78616 0.08740 0.53491 -0.14000
C 	C 	0.73157 0.35658 0.53471 -0.01200
H 	H 	0.86632 0.62114 0.74114 0.09100
H 	H 	0.78491 0.31564 0.99958 0.08200
C 	C 	0.84400 0.55038 0.70220 -0.06200
C 	C 	0.76897 0.08035 0.72423 0.07400
C 	C 	0.84925 0.62033 0.71949 0.06900
C 	C 	0.78885 0.27288 0.87223 0.31600
C 	C 	0.82466 0.35464 0.94549 0.29700
O 	O 	0.82065 0.42392 0.93386 -0.34900
C 	C 	0.79175 0.43496 0.57925 0.30200
O 	O 	0.01757 0.90374 0.25685 -0.31400
H 	H 	0.74783 0.05866 0.74528 0.11400
F 	F 	0.87533 0.96173 0.16045 -0.36000
O 	O 	0.83843 0.44267 0.64381 -0.29200
O 	O 	0.80567 0.77729 0.74381 -0.30500
H 	H 	0.85668 0.92581 0.21032 0.13000
F 	F 	0.88131 0.01638 0.42225 -0.40800
C 	C 	0.78593 0.43986 0.54909 -0.08300
C 	C 	0.77112 0.33775 0.51130 0.09500
C 	C 	0.82384 0.55131 0.67383 0.02100
C 	C 	0.84465 0.14036 0.89915 0.78600
C 	C 	0.78818 0.66517 0.81693 0.02300
F 	F 	0.72623 0.77189 0.68576 -0.40200
F 	F 	0.87305 0.07590 0.90494 -0.40000
C 	C 	0.88567 0.11722 0.68696 -0.07000
O 	O 	0.82698 0.35833 0.88132 -0.32000
O 	O 	0.83559 0.39110 0.58928 -0.33500
H 	H 	0.85014 0.03577 0.85656 0.11400
F 	F 	0.02561 0.94909 0.19871 -0.39100
F 	F 	0.75326 0.74097 0.64284 -0.41000
C 	C 	0.85787 0.36997 0.99485 -0.00900
C 	C 	0.85029 0.16020 0.86863 -0.08700
O 	O 	0.81826 0.81175 0.80071 -0.29800
C 	C 	0.83624 0.69143 0.70887 0.02100
C 	C 	0.76377 0.66928 0.84483 -0.08900
C 	C 	0.85683 0.99891 0.25851 0.31900
Ni	Ni	0.84101 0.89527 0.76737 1.13200
O 	O 	0.84067 0.00435 0.79025 -0.31500
O 	O 	0.85956 0.93696 0.27554 -0.32800
C 	C 	0.85783 0.09080 0.71443 0.04800
C 	C 	0.81564 0.62491 0.66307 0.06500
C 	C 	0.81533 0.69184 0.68059 -0.06300
H 	H 	0.80218 0.62602 0.64121 0.09200
Br	Br	0.85266 0.43224 0.04970 -0.15600
C 	C 	0.86166 0.10204 0.84991 0.06100
C 	C 	0.85036 0.23987 0.85874 0.02000
F 	F 	0.91704 0.45558 0.69829 -0.39400
C 	C 	0.89896 0.01603 0.39436 0.76700
C 	C 	0.79290 0.76368 0.66910 0.77700
C 	C 	0.84821 0.75027 0.80114 0.29800
Br	Br	0.82538 0.39867 0.43584 -0.11500
F 	F 	0.90696 0.21959 0.91337 -0.42000
C 	C 	0.89395 0.37782 0.96814 -0.04600
Ni	Ni	0.01343 0.14210 0.29145 1.14200
C 	C 	0.86652 0.77401 0.72588 0.32200
O 	O 	0.87003 0.96442 0.73079 -0.28600
C 	C 	0.89516 0.00050 0.33363 0.29900
O 	O 	0.89944 0.06547 0.31734 -0.29200
F 	F 	0.97928 0.04808 0.67328 -0.37300
F 	F 	0.77873 0.81316 0.85658 -0.40900
C 	C 	0.86351 0.51282 0.53527 0.15100
C 	C 	0.81840 0.75692 0.86164 0.78300
F 	F 	0.81149 0.73819 0.88954 -0.40900
F 	F 	0.92508 0.10208 0.38422 -0.39700
C 	C 	0.86166 0.40540 0.50109 0.02800
C 	C 	0.89299 0.13093 0.82308 0.02600
C 	C 	0.88626 0.27138 0.83236 0.07000
F 	F 	0.05727 0.18548 0.69463 -0.38700
H 	H 	0.88821 0.33315 0.82491 0.11900
C 	C 	0.90737 0.05274 0.73066 0.29800
C 	C 	0.00414 0.51109 0.00805 0.03800
F 	F 	0.00587 0.17555 0.65108 -0.39700
C 	C 	0.91008 0.43873 0.01436 0.09300
F 	F 	0.87789 0.84716 0.66805 -0.35600
C 	C 	0.91385 0.07129 0.80498 0.29100
O 	O 	0.91869 0.08788 0.26060 -0.30900
C 	C 	0.98311 0.13184 0.67629 0.76500
F 	F 	0.91672 0.80285 0.85501 -0.42100
C 	C 	0.91400 0.22046 0.81497 -0.08000
O 	O 	0.91386 0.75214 0.78293 -0.32900
C 	C 	0.90123 0.49537 0.51121 -0.06900
F 	F 	0.89735 0.21503 0.76655 -0.41000
C 	C 	0.92570 0.38767 0.45527 0.08000
O 	O 	0.95655 0.97029 0.33026 -0.32900
Br	Br	0.92555 0.63389 0.55074 -0.12100
C 	C 	0.92371 0.37997 0.48418 0.04200
F 	F 	0.97584 0.99871 0.39096 -0.37500
O 	O 	0.95917 0.83376 0.72740 -0.30900
O 	O 	0.97038 0.10308 0.74982 -0.27100
H 	H 	0.97519 0.93569 0.79491 0.19400
O 	O 	0.97434 0.93971 0.77467 -0.72200
Ni	Ni	0.98180 0.93996 0.29263 1.12800
H 	H 	0.96407 0.55053 0.50130 0.10700
C 	C 	0.99225 0.44258 0.96311 0.14000
C 	C 	0.96227 0.26073 0.78770 0.78500
