data_crystal

_cell_length_a 22.41884
_cell_length_b 23.24508
_cell_length_c 30.71203
_cell_angle_alpha 90.00200
_cell_angle_beta  90.00363
_cell_angle_gamma 92.71859

_symmetry_space_group_name_	'P 1'
_symmetry_space_group_name_H-M	'P 1'

loop_
_symmetry_equiv_pos_as_xyz
  x,y,z

loop_
_atom_site_label
_atom_site_type_symbol
_atom_site_fract_x
_atom_site_fract_y
_atom_site_fract_z
_atom_site_charge
C 	C 	0.92214 0.98673 0.00623 -0.03900
C 	C 	0.92686 0.04567 0.99768 -0.04000
C 	C 	0.97366 0.95524 0.01221 0.00800
C 	C 	0.03070 0.98402 0.00928 -0.00600
C 	C 	0.03550 0.04388 0.00039 -0.00600
C 	C 	0.98327 0.07498 0.99494 0.00800
C 	C 	0.08293 0.95297 0.01496 0.00700
C 	C 	0.13935 0.98219 0.01187 -0.04100
C 	C 	0.09254 0.07261 0.99730 0.00600
C 	C 	0.98844 0.13499 0.98684 -0.00900
C 	C 	0.04491 0.16280 0.98294 -0.04700
C 	C 	0.09684 0.13256 0.98857 -0.00800
C 	C 	0.96936 0.89530 0.02099 -0.00800
C 	C 	0.02127 0.86520 0.02713 -0.04700
C 	C 	0.07774 0.89309 0.02358 -0.00900
C 	C 	0.93528 0.16999 0.98541 0.01200
C 	C 	0.90695 0.18016 0.94561 -0.04300
C 	C 	0.85698 0.21389 0.94433 -0.03900
C 	C 	0.83535 0.23785 0.98280 0.01500
C 	C 	0.86373 0.22766 0.02255 -0.04200
C 	C 	0.91348 0.19378 0.02386 -0.04300
C 	C 	0.15523 0.16502 0.98757 0.01100
C 	C 	0.17695 0.19298 0.02523 -0.04200
C 	C 	0.22914 0.22829 0.02344 -0.04200
C 	C 	0.18674 0.17170 0.94827 -0.04300
C 	C 	0.23918 0.20680 0.94653 -0.04100
C 	C 	0.26021 0.23566 0.98403 0.01600
C 	C 	0.91104 0.86274 0.02175 0.01100
C 	C 	0.87896 0.85650 0.06084 -0.04300
C 	C 	0.82679 0.82102 0.06249 -0.04100
C 	C 	0.80661 0.79131 0.02514 0.01600
C 	C 	0.83825 0.79820 0.98594 -0.04200
C 	C 	0.89015 0.83391 0.98422 -0.04200
C 	C 	0.13096 0.85833 0.02638 0.01200
C 	C 	0.15313 0.83256 0.98882 -0.04300
C 	C 	0.20291 0.79887 0.99146 -0.04300
C 	C 	0.23097 0.79085 0.03167 0.01500
C 	C 	0.20897 0.81678 0.06924 -0.03900
C 	C 	0.15897 0.85033 0.06662 -0.04300
C 	C 	0.14407 0.04107 0.00309 -0.04000
H 	H 	0.92362 0.16192 0.91579 0.04000
H 	H 	0.83533 0.22170 0.91350 0.04100
H 	H 	0.84728 0.24612 0.05237 0.03600
H 	H 	0.93519 0.18609 0.05469 0.03900
H 	H 	0.82298 0.77534 0.95696 0.03900
H 	H 	0.91479 0.83832 0.95396 0.04000
H 	H 	0.80257 0.81597 0.09288 0.04100
H 	H 	0.89492 0.87844 0.09002 0.04000
H 	H 	0.13166 0.83857 0.95765 0.03900
H 	H 	0.21966 0.77888 0.96233 0.03600
H 	H 	0.14201 0.87011 0.09577 0.04000
H 	H 	0.23038 0.81066 0.10041 0.04100
H 	H 	0.15279 0.18818 0.05566 0.03900
H 	H 	0.24504 0.25051 0.05251 0.03900
H 	H 	0.17015 0.15038 0.91901 0.04000
H 	H 	0.26292 0.21226 0.91598 0.04100
H 	H 	0.87807 0.96578 0.00821 0.04100
H 	H 	0.88626 0.06832 0.99302 0.04200
H 	H 	0.04846 0.20879 0.97673 0.04300
H 	H 	0.18815 0.06194 0.00082 0.04100
H 	H 	0.17996 0.95951 0.01634 0.04200
H 	H 	0.01772 0.81928 0.03362 0.04300
C 	C 	0.85257 0.95959 0.47615 -0.04000
C 	C 	0.85734 0.01947 0.47969 -0.04100
C 	C 	0.90393 0.92772 0.47066 0.00700
C 	C 	0.96042 0.95721 0.46711 -0.00700
C 	C 	0.96509 0.01803 0.46944 -0.00700
C 	C 	0.91356 0.04926 0.47713 0.00700
C 	C 	0.01242 0.92592 0.46197 0.00700
C 	C 	0.06715 0.95570 0.45287 -0.04000
C 	C 	0.02148 0.04741 0.46436 0.00700
C 	C 	0.91927 0.10976 0.48233 -0.00900
C 	C 	0.97557 0.13823 0.47975 -0.04700
C 	C 	0.02679 0.10792 0.47084 -0.00900
C 	C 	0.90020 0.86669 0.46918 -0.00900
C 	C 	0.95248 0.83618 0.46713 -0.04700
C 	C 	0.00852 0.86527 0.46540 -0.00900
C 	C 	0.86682 0.14389 0.49118 0.01100
C 	C 	0.83504 0.16705 0.45656 -0.04400
C 	C 	0.78586 0.20002 0.46491 -0.04300
C 	C 	0.76887 0.21099 0.50796 0.01000
C 	C 	0.79978 0.18667 0.54257 -0.04400
C 	C 	0.84895 0.15361 0.53421 -0.04400
C 	C 	0.08586 0.13985 0.47100 0.01200
C 	C 	0.12991 0.12555 0.50113 -0.04300
C 	C 	0.18361 0.15846 0.50357 -0.04200
C 	C 	0.09541 0.18863 0.44445 -0.04400
C 	C 	0.14722 0.22397 0.44925 -0.03800
C 	C 	0.19198 0.20883 0.47853 0.01500
C 	C 	0.84215 0.83400 0.47098 0.01200
C 	C 	0.81758 0.81738 0.51131 -0.04300
C 	C 	0.76504 0.78259 0.51300 -0.04300
C 	C 	0.73691 0.76392 0.47436 0.01500
C 	C 	0.76119 0.78101 0.43402 -0.03900
C 	C 	0.81360 0.81601 0.43235 -0.04300
C 	C 	0.06226 0.83258 0.47321 0.01200
C 	C 	0.08536 0.79885 0.43996 -0.04300
C 	C 	0.13479 0.76605 0.44802 -0.04200
C 	C 	0.16104 0.76640 0.48949 0.01500
C 	C 	0.13820 0.80042 0.52265 -0.03900
C 	C 	0.08893 0.83341 0.51455 -0.04200
C 	C 	0.07119 0.01578 0.45274 -0.04200
H 	H 	0.84844 0.15941 0.42325 0.03900
H 	H 	0.76148 0.21780 0.43800 0.03900
H 	H 	0.78618 0.19406 0.57588 0.03700
H 	H 	0.87314 0.13552 0.56109 0.04000
H 	H 	0.73972 0.76679 0.40404 0.04200
H 	H 	0.83249 0.82849 0.40109 0.04000
H 	H 	0.74638 0.76986 0.54428 0.03900
H 	H 	0.83950 0.83098 0.54128 0.04000
H 	H 	0.06487 0.79792 0.40801 0.03900
H 	H 	0.15230 0.73987 0.42225 0.03800
H 	H 	0.07115 0.85925 0.54042 0.04100
H 	H 	0.15837 0.80098 0.55472 0.04100
H 	H 	0.12243 0.08907 0.52272 0.04000
H 	H 	0.21782 0.14610 0.52619 0.03900
H 	H 	0.06149 0.20052 0.42145 0.03800
H 	H 	0.15163 0.26394 0.43126 0.03900
H 	H 	0.80872 0.93820 0.47821 0.04100
H 	H 	0.81700 0.04248 0.48446 0.04100
H 	H 	0.97964 0.18437 0.48518 0.04200
H 	H 	0.11294 0.03746 0.44324 0.04100
H 	H 	0.10642 0.93245 0.44484 0.04100
H 	H 	0.94962 0.78948 0.46841 0.04300
Ni	Ni	0.50511 0.54871 0.04637 1.09700
O 	O 	0.57160 0.49378 0.03429 -0.70700
Ni	Ni	0.56130 0.47991 0.96982 1.09700
O 	O 	0.52006 0.54964 0.11243 -0.36600
O 	O 	0.51487 0.45186 0.11821 -0.39800
O 	O 	0.56462 0.61964 0.04535 -0.37100
Ni	Ni	0.55571 0.41933 0.06326 1.06400
O 	O 	0.47449 0.66057 0.99968 -0.41500
O 	O 	0.47129 0.40906 0.03860 -0.41800
O 	O 	0.62982 0.42627 0.96298 -0.37300
O 	O 	0.49340 0.53386 0.98186 -0.70300
O 	O 	0.43710 0.60271 0.05410 -0.37600
O 	O 	0.55020 0.47956 0.90338 -0.36100
O 	O 	0.53973 0.57569 0.89485 -0.39500
Ni	Ni	0.50651 0.60859 0.95232 1.06500
H 	H 	0.61188 0.51017 0.04140 0.15400
H 	H 	0.45330 0.51651 0.97550 0.15400
C 	C 	0.46156 0.39617 0.99771 0.29700
O 	O 	0.59208 0.61792 0.97395 -0.42100
C 	C 	0.52841 0.50270 0.13515 0.26500
C 	C 	0.63632 0.38458 0.99134 0.29200
C 	C 	0.60434 0.63095 0.01455 0.29400
C 	C 	0.52810 0.52256 0.88186 0.26600
C 	C 	0.43023 0.64447 0.02594 0.29500
O 	O 	0.50273 0.40841 0.96825 -0.37300
O 	O 	0.59134 0.36788 0.01693 -0.41400
Ni	Ni	0.44300 0.53502 0.53916 1.09900
O 	O 	0.50289 0.47111 0.54108 -0.70200
Ni	Ni	0.49900 0.44237 0.47960 1.10000
O 	O 	0.45565 0.55278 0.60420 -0.36500
O 	O 	0.43526 0.45872 0.62269 -0.40000
O 	O 	0.51636 0.58800 0.52599 -0.38400
Ni	Ni	0.47991 0.40725 0.57918 1.06500
O 	O 	0.35406 0.58461 0.46402 -0.42400
O 	O 	0.40042 0.39322 0.54792 -0.42400
O 	O 	0.56568 0.38694 0.48476 -0.38100
O 	O 	0.43092 0.49757 0.48059 -0.70300
O 	O 	0.38778 0.60336 0.53436 -0.37800
O 	O 	0.50021 0.43426 0.41295 -0.37600
O 	O 	0.50594 0.53182 0.40480 -0.40900
Ni	Ni	0.42975 0.55770 0.43632 1.06900
H 	H 	0.54389 0.48604 0.54802 0.15800
H 	H 	0.39180 0.47600 0.48050 0.15700
C 	C 	0.39719 0.36393 0.51168 0.30000
O 	O 	0.47737 0.62480 0.46437 -0.40900
C 	C 	0.45523 0.51104 0.63331 0.26200
C 	C 	0.56862 0.35405 0.51963 0.29000
C 	C 	0.52321 0.61755 0.48985 0.30600
C 	C 	0.50779 0.47997 0.38791 0.26100
C 	C 	0.35326 0.61479 0.50053 0.30100
O 	O 	0.43907 0.37178 0.48187 -0.37200
O 	O 	0.52095 0.34451 0.54474 -0.41000
C 	C 	0.49652 0.54669 0.76496 0.08600
C 	C 	0.47255 0.49235 0.75230 0.08600
N 	N 	0.45813 0.48240 0.70998 -0.10300
C 	C 	0.46673 0.52455 0.67951 -0.03300
C 	C 	0.49009 0.57922 0.69234 0.03600
N 	N 	0.50447 0.58914 0.73483 -0.11600
N 	N 	0.51334 0.55589 0.80698 -0.09900
N 	N 	0.46570 0.44954 0.78220 -0.11700
H 	H 	0.49763 0.61323 0.66862 0.04000
C 	C 	0.50762 0.51265 0.83687 -0.03100
C 	C 	0.48264 0.45859 0.82424 0.03400
H 	H 	0.47682 0.42403 0.84773 0.03700
C 	C 	0.52665 0.46276 0.25194 0.08600
C 	C 	0.53563 0.51669 0.27208 0.08600
N 	N 	0.53133 0.52099 0.31605 -0.10100
C 	C 	0.51854 0.47342 0.34089 -0.03500
C 	C 	0.51130 0.41919 0.32071 0.03500
N 	N 	0.51534 0.41504 0.27664 -0.11700
N 	N 	0.52644 0.45904 0.20784 -0.10100
N 	N 	0.54583 0.56456 0.24732 -0.11600
H 	H 	0.50120 0.38084 0.33982 0.03900
C 	C 	0.53469 0.50717 0.18283 -0.03000
C 	C 	0.54592 0.56089 0.20310 0.03600
H 	H 	0.55389 0.59950 0.18385 0.04100
C 	C 	0.30782 0.65761 0.50548 -0.10600
C 	C 	0.31739 0.71387 0.48847 0.09900
C 	C 	0.26932 0.74978 0.48476 -0.08700
C 	C 	0.21210 0.73065 0.49820 0.00000
C 	C 	0.20326 0.67619 0.51777 0.03700
C 	C 	0.25142 0.64005 0.52163 -0.01600
H 	H 	0.27634 0.79233 0.47067 0.05500
H 	H 	0.24425 0.59738 0.53549 0.03400
N 	N 	0.37579 0.73503 0.47471 -0.14700
N 	N 	0.14492 0.65731 0.53315 -0.13600
C 	C 	0.41245 0.75382 0.51196 -0.09100
H 	H 	0.38855 0.78474 0.53247 0.05100
H 	H 	0.45403 0.77621 0.49997 0.04700
H 	H 	0.42480 0.71642 0.53200 0.06600
C 	C 	0.11522 0.61806 0.50187 -0.09000
H 	H 	0.11158 0.63911 0.46954 0.05000
H 	H 	0.06934 0.60648 0.51352 0.04600
H 	H 	0.13977 0.57782 0.49853 0.04400
H 	H 	0.39722 0.70501 0.45565 0.08000
H 	H 	0.14805 0.63733 0.56356 0.07500
C 	C 	0.68242 0.72583 0.47620 0.00200
C 	C 	0.62658 0.74686 0.46508 0.03700
C 	C 	0.57487 0.71056 0.46834 -0.01700
C 	C 	0.57833 0.65390 0.48364 -0.10300
C 	C 	0.63448 0.63250 0.49383 0.10100
C 	C 	0.68622 0.66868 0.49011 -0.08900
H 	H 	0.53199 0.72690 0.45970 0.04100
H 	H 	0.72932 0.65232 0.49822 0.05100
N 	N 	0.62240 0.80559 0.45100 -0.13600
N 	N 	0.63884 0.57378 0.50798 -0.14800
C 	C 	0.60496 0.84206 0.48722 -0.09000
H 	H 	0.55973 0.82850 0.49938 0.04400
H 	H 	0.60402 0.88736 0.47590 0.04600
H 	H 	0.63789 0.84042 0.51421 0.05100
C 	C 	0.65495 0.53690 0.47164 -0.09900
H 	H 	0.62143 0.53877 0.44507 0.05000
H 	H 	0.65558 0.49161 0.48307 0.03900
H 	H 	0.70003 0.54991 0.45889 0.04900
H 	H 	0.59194 0.80813 0.42530 0.07400
H 	H 	0.66994 0.57119 0.53324 0.07300
C 	C 	0.61867 0.31598 0.52336 -0.10700
C 	C 	0.60998 0.25637 0.51614 0.10500
C 	C 	0.65963 0.22202 0.51285 -0.09000
C 	C 	0.71766 0.24674 0.51664 -0.00200
C 	C 	0.72613 0.30627 0.52585 0.03800
C 	C 	0.67646 0.34024 0.52933 -0.02000
H 	H 	0.65304 0.17638 0.50609 0.05100
H 	H 	0.68302 0.38608 0.53535 0.03000
N 	N 	0.55066 0.23129 0.50983 -0.13700
N 	N 	0.78503 0.33288 0.53140 -0.13900
C 	C 	0.52966 0.20092 0.54906 -0.08600
H 	H 	0.55713 0.16333 0.55583 0.04100
H 	H 	0.48264 0.18505 0.54421 0.04600
H 	H 	0.53100 0.23041 0.57759 0.04800
C 	C 	0.80938 0.35433 0.48997 -0.09100
H 	H 	0.81550 0.31849 0.46676 0.04900
H 	H 	0.85356 0.37660 0.49579 0.04500
H 	H 	0.77953 0.38594 0.47533 0.04900
H 	H 	0.54960 0.20327 0.48312 0.07800
H 	H 	0.81439 0.30584 0.54686 0.07700
C 	C 	0.24460 0.24869 0.48660 0.00000
C 	C 	0.28276 0.26704 0.45228 0.03700
C 	C 	0.33294 0.30390 0.46112 -0.02100
C 	C 	0.34638 0.32146 0.50399 -0.10600
C 	C 	0.31074 0.29820 0.53877 0.10100
C 	C 	0.25821 0.26581 0.52937 -0.08800
H 	H 	0.36176 0.31828 0.43458 0.04600
H 	H 	0.22948 0.25109 0.55591 0.05600
N 	N 	0.27316 0.24445 0.40905 -0.13700
N 	N 	0.32984 0.30233 0.58350 -0.14800
C 	C 	0.25999 0.28994 0.37795 -0.09100
H 	H 	0.22614 0.31873 0.39114 0.04500
H 	H 	0.24171 0.26987 0.34768 0.04700
H 	H 	0.30124 0.31594 0.36946 0.04300
C 	C 	0.38062 0.26694 0.59277 -0.08800
H 	H 	0.37031 0.22149 0.58301 0.04800
H 	H 	0.38973 0.26774 0.62829 0.03700
H 	H 	0.42138 0.28359 0.57559 0.03700
H 	H 	0.31055 0.22271 0.39890 0.07700
H 	H 	0.33455 0.34433 0.59542 0.08600
C 	C 	0.37940 0.68178 0.03091 -0.10500
C 	C 	0.32061 0.65767 0.03308 0.09700
C 	C 	0.27240 0.69393 0.03550 -0.08900
C 	C 	0.28228 0.75384 0.03450 0.00000
C 	C 	0.34096 0.77804 0.03315 0.03700
C 	C 	0.38935 0.74184 0.03170 -0.01900
H 	H 	0.22714 0.67539 0.03680 0.05100
H 	H 	0.43456 0.76054 0.03076 0.04300
N 	N 	0.30979 0.59617 0.03134 -0.14600
N 	N 	0.35130 0.83963 0.03318 -0.13600
C 	C 	0.29183 0.57803 0.98745 -0.08900
H 	H 	0.25106 0.59962 0.97681 0.04200
H 	H 	0.28156 0.53089 0.98729 0.04600
H 	H 	0.32874 0.58769 0.96401 0.02700
C 	C 	0.36440 0.86081 0.98919 -0.09000
H 	H 	0.40676 0.84380 0.97685 0.04200
H 	H 	0.36930 0.90855 0.98984 0.04500
H 	H 	0.32722 0.84838 0.96661 0.04800
H 	H 	0.27693 0.58306 0.05394 0.07800
H 	H 	0.38632 0.85165 0.05434 0.07500
C 	C 	0.75361 0.75126 0.02736 -0.00000
C 	C 	0.69633 0.77083 0.01885 0.03900
C 	C 	0.64702 0.73120 0.01725 -0.01700
C 	C 	0.65465 0.67225 0.02358 -0.10000
C 	C 	0.71176 0.65315 0.03446 0.09700
C 	C 	0.76083 0.69277 0.03592 -0.08400
H 	H 	0.60306 0.74617 0.00990 0.03800
H 	H 	0.80480 0.67785 0.04328 0.05500
N 	N 	0.68831 0.83122 0.01194 -0.13600
N 	N 	0.72051 0.59363 0.04426 -0.14800
C 	C 	0.68124 0.84363 0.96556 -0.09000
H 	H 	0.72026 0.82943 0.94675 0.05000
H 	H 	0.67856 0.89081 0.96103 0.04500
H 	H 	0.63956 0.82213 0.95260 0.04300
C 	C 	0.70448 0.58029 0.08947 -0.09500
H 	H 	0.73286 0.60697 0.11212 0.05100
H 	H 	0.71223 0.53433 0.09616 0.03100
H 	H 	0.65666 0.58771 0.09579 0.05000
H 	H 	0.65129 0.84443 0.02943 0.07400
H 	H 	0.69786 0.56594 0.02237 0.06300
C 	C 	0.68717 0.34724 0.98661 -0.10300
C 	C 	0.74603 0.37128 0.98498 0.09700
C 	C 	0.79414 0.33500 0.98172 -0.08900
C 	C 	0.78411 0.27509 0.98139 0.00000
C 	C 	0.72538 0.25098 0.98249 0.03700
C 	C 	0.67709 0.28723 0.98477 -0.01900
H 	H 	0.83943 0.35349 0.98070 0.05100
H 	H 	0.63184 0.26860 0.98534 0.04300
N 	N 	0.75699 0.43266 0.98803 -0.14600
N 	N 	0.71489 0.18943 0.98122 -0.13600
C 	C 	0.77533 0.44905 0.03222 -0.08900
H 	H 	0.73856 0.43861 0.05561 0.02900
H 	H 	0.78579 0.49614 0.03338 0.04600
H 	H 	0.81610 0.42694 0.04217 0.04200
C 	C 	0.70193 0.16673 0.02481 -0.09000
H 	H 	0.73923 0.17826 0.04751 0.04800
H 	H 	0.69689 0.11904 0.02320 0.04500
H 	H 	0.65968 0.18340 0.03763 0.04200
H 	H 	0.78972 0.44657 0.96557 0.07900
H 	H 	0.67976 0.17824 0.95994 0.07500
C 	C 	0.41181 0.35497 0.98692 -0.10200
C 	C 	0.35458 0.37421 0.97653 0.09700
C 	C 	0.30569 0.33447 0.97429 -0.08400
C 	C 	0.31316 0.27576 0.98170 -0.00000
C 	C 	0.37061 0.25608 0.98941 0.03800
C 	C 	0.41979 0.29583 0.99168 -0.01600
H 	H 	0.26161 0.34949 0.96746 0.05500
H 	H 	0.46385 0.28077 0.99857 0.03900
N 	N 	0.34545 0.43407 0.96830 -0.14800
N 	N 	0.37892 0.19550 0.99497 -0.13600
C 	C 	0.36263 0.44991 0.92376 -0.09400
H 	H 	0.41084 0.44379 0.91807 0.04600
H 	H 	0.35406 0.49596 0.91819 0.03100
H 	H 	0.33561 0.42382 0.89992 0.05200
C 	C 	0.38642 0.18137 0.04101 -0.09000
H 	H 	0.42813 0.20252 0.05422 0.04300
H 	H 	0.38931 0.13405 0.04450 0.04500
H 	H 	0.34749 0.19470 0.06034 0.05000
H 	H 	0.36716 0.46075 0.99131 0.06300
H 	H 	0.41584 0.18309 0.97700 0.07400
