data_crystal

_cell_length_a 19.81470
_cell_length_b 14.52818
_cell_length_c 48.76032
_cell_angle_alpha 89.61288
_cell_angle_beta  89.61636
_cell_angle_gamma 119.45540

_symmetry_space_group_name_	'P 1'
_symmetry_space_group_name_H-M	'P 1'

loop_
_symmetry_equiv_pos_as_xyz
  x,y,z

loop_
_atom_site_label
_atom_site_type_symbol
_atom_site_fract_x
_atom_site_fract_y
_atom_site_fract_z
_atom_site_charge
Ni	Ni	0.11120 0.01198 0.75357 1.11100
Ni	Ni	0.09571 0.12037 0.69711 1.12000
O 	O 	0.14279 0.95301 0.72055 -0.36800
C 	C 	0.02863 0.24584 0.17849 0.29300
C 	C 	0.00807 0.24032 0.26122 0.27700
C 	C 	0.06697 0.97981 0.18622 0.30200
C 	C 	0.04904 0.97732 0.26276 0.28500
Ni	Ni	0.07246 0.14534 0.22300 1.12100
O 	O 	0.98352 0.25332 0.19710 -0.36800
O 	O 	0.00562 0.90644 0.24398 -0.37700
O 	O 	0.07941 0.08067 0.25856 -0.38700
C 	C 	0.00824 0.36349 0.11147 0.01600
C 	C 	0.00982 0.45593 0.10177 -0.04000
C 	C 	0.02681 0.48599 0.07408 -0.03900
C 	C 	0.01615 0.25788 0.14911 -0.05700
C 	C 	0.00821 0.34395 0.13982 -0.02700
C 	C 	0.14304 0.64406 0.14163 -0.04300
C 	C 	0.10556 0.68373 0.15830 -0.04200
C 	C 	0.12682 0.79133 0.15672 0.01800
C 	C 	0.10685 0.93794 0.16940 -0.05800
C 	C 	0.08485 0.83019 0.17119 -0.02300
H 	H 	0.12713 0.56156 0.14323 0.04200
C 	C 	0.01655 0.16639 0.39276 0.02600
C 	C 	0.02506 0.23119 0.29042 -0.06300
H 	H 	0.01055 0.20223 0.43540 0.05900
C 	C 	0.07524 0.92884 0.36120 -0.03700
C 	C 	0.05773 0.94227 0.31213 -0.02600
H 	H 	0.09833 0.91783 0.40377 0.05400
H 	H 	0.02463 0.93658 0.36571 0.04700
H 	H 	0.00871 0.95415 0.31632 0.04300
C 	C 	0.03252 0.57025 0.49582 -0.02700
C 	C 	0.03474 0.52537 0.47056 -0.06800
H 	H 	0.03440 0.04666 0.57436 0.04800
C 	C 	0.05299 0.64245 0.96842 -0.02100
C 	C 	0.11565 0.69975 0.95043 -0.08000
C 	C 	0.10145 0.71640 0.92302 0.09600
H 	H 	0.06338 0.63331 0.98976 0.06400
O 	O 	0.16832 0.25166 0.71807 -0.37500
O 	O 	0.99105 0.93555 0.18520 -0.39200
C 	C 	0.03707 0.42019 0.05550 0.02600
H 	H 	0.08965 0.53956 0.02369 0.05400
C 	C 	0.05106 0.18463 0.34416 -0.00600
C 	C 	0.04517 0.19219 0.41963 -0.02800
N 	N 	0.96283 0.42977 0.42939 -0.01600
O 	O 	0.98830 0.50331 0.41053 -0.10500
H 	H 	0.08988 0.95008 0.88293 0.05700
C 	C 	0.06869 0.45744 0.02915 -0.02100
H 	H 	0.02971 0.87121 0.92763 0.05700
H 	H 	0.07361 0.99688 0.83598 0.04800
H 	H 	0.08581 0.62851 0.50518 0.08300
O 	O 	0.06271 0.26231 0.24241 -0.37200
H 	H 	0.19554 0.58312 0.09848 0.04900
C 	C 	0.08176 0.94341 0.28492 -0.05300
O 	O 	0.18996 0.09910 0.69326 -0.37000
O 	O 	0.10687 0.05109 0.20476 -0.38800
O 	O 	0.07450 0.20802 0.18533 -0.37700
C 	C 	0.11729 0.91856 0.38283 -0.03800
C 	C 	0.09882 0.93002 0.33391 0.02000
C 	C 	0.20728 0.24905 0.73989 0.27700
C 	C 	0.19524 0.01858 0.70332 0.29200
O 	O 	0.20887 0.16163 0.74726 -0.37100
C 	C 	0.16902 0.34305 0.43197 0.28800
C 	C 	0.32780 0.73717 0.49579 0.31900
C 	C 	0.10948 0.53517 0.46107 0.31700
C 	C 	0.28934 0.78951 0.41210 0.30600
C 	C 	0.37103 0.62309 0.38627 0.28300
Ni	Ni	0.24579 0.51338 0.47690 1.11600
Ni	Ni	0.21696 0.56283 0.41476 1.12400
O 	O 	0.16643 0.36959 0.45805 -0.35600
O 	O 	0.19788 0.41429 0.41181 -0.37300
O 	O 	0.35830 0.79728 0.41436 -0.37200
O 	O 	0.31357 0.64100 0.50201 -0.36800
O 	O 	0.30097 0.61558 0.38459 -0.37500
O 	O 	0.16546 0.56459 0.47871 -0.37200
O 	O 	0.11564 0.49979 0.43693 -0.35900
O 	O 	0.33520 0.47852 0.47904 -0.35500
O 	O 	0.22797 0.70482 0.42115 -0.38000
O 	O 	0.28687 0.57745 0.44279 -0.71900
H 	H 	0.30570 0.53021 0.43610 0.17000
C 	C 	0.36098 0.48868 0.96745 0.31400
C 	C 	0.27492 0.69887 0.05298 0.28400
C 	C 	0.15918 0.44615 0.99602 0.28700
C 	C 	0.19381 0.72314 0.95868 0.32700
C 	C 	0.41174 0.80828 0.94481 0.29300
Ni	Ni	0.31785 0.56663 0.01787 1.11300
Ni	Ni	0.32418 0.78937 0.99679 1.12200
Ni	Ni	0.27172 0.59883 0.95488 1.12200
O 	O 	0.37875 0.51594 0.99323 -0.35900
O 	O 	0.29697 0.47942 0.95697 -0.37700
O 	O 	0.22033 0.76275 0.98286 -0.37000
O 	O 	0.26182 0.60201 0.04896 -0.37800
O 	O 	0.26585 0.75184 0.03291 -0.37400
O 	O 	0.37524 0.70613 0.93769 -0.34200
O 	O 	0.21774 0.43651 0.00477 -0.36900
O 	O 	0.16672 0.50497 0.97406 -0.36300
O 	O 	0.37663 0.84878 0.95992 -0.35100
O 	O 	0.42748 0.83991 0.01647 -0.37000
O 	O 	0.23407 0.69702 0.94253 -0.37100
O 	O 	0.31687 0.65593 0.98981 -0.70900
H 	H 	0.37175 0.68224 0.98510 0.14600
C 	C 	0.01104 0.12847 0.08287 -0.04200
C 	C 	0.01933 0.15308 0.05478 -0.04100
C 	C 	0.02970 0.25113 0.04557 0.02200
C 	C 	0.02350 0.31990 0.06439 -0.00800
C 	C 	0.01217 0.29325 0.09255 -0.00600
C 	C 	0.01088 0.20045 0.10193 0.01500
C 	C 	0.08647 0.39453 0.01200 -0.05000
C 	C 	0.05584 0.28690 0.01870 -0.02000
C 	C 	0.01397 0.18384 0.13018 -0.02300
H 	H 	0.00700 0.05488 0.08981 0.04400
H 	H 	0.02195 0.09837 0.04039 0.04700
H 	H 	0.06455 0.23615 0.00458 0.05200
H 	H 	0.01602 0.11448 0.13744 0.05100
C 	C 	0.19028 0.86066 0.14003 -0.01000
C 	C 	0.22720 0.82029 0.12317 -0.00500
C 	C 	0.19929 0.71040 0.12242 0.01700
C 	C 	0.28788 0.88861 0.10542 0.01700
C 	C 	0.31530 0.99797 0.10615 -0.03100
C 	C 	0.27830 0.03817 0.12279 -0.05000
C 	C 	0.21414 0.96950 0.13909 0.02600
C 	C 	0.17230 0.00766 0.15384 -0.03000
C 	C 	0.22282 0.66808 0.10093 -0.02400
C 	C 	0.27542 0.73618 0.08093 -0.06300
C 	C 	0.31459 0.84583 0.08530 -0.02400
H 	H 	0.36317 0.05141 0.09299 0.04200
H 	H 	0.29834 0.12232 0.12246 0.04500
H 	H 	0.19011 0.09123 0.15310 0.04500
H 	H 	0.35933 0.89796 0.07088 0.04300
H 	H 	0.36447 0.70610 0.33691 0.04800
C 	C 	0.06730 0.17196 0.37154 -0.01200
C 	C 	0.13994 0.18215 0.37822 0.02800
C 	C 	0.19293 0.19592 0.35719 -0.04200
C 	C 	0.17790 0.21246 0.33012 -0.03600
C 	C 	0.10855 0.21179 0.32375 0.01800
C 	C 	0.09722 0.24133 0.29751 -0.02000
C 	C 	0.12487 0.23240 0.42378 -0.04200
C 	C 	0.16341 0.19869 0.40569 -0.03000
H 	H 	0.24772 0.20020 0.36199 0.05100
H 	H 	0.22082 0.22791 0.31424 0.04400
H 	H 	0.14365 0.26910 0.28237 0.04300
H 	H 	0.22067 0.21214 0.41091 0.06300
C 	C 	0.16507 0.92042 0.32834 -0.00700
C 	C 	0.20711 0.90943 0.35011 -0.00800
C 	C 	0.18244 0.90690 0.37743 0.02400
C 	C 	0.27175 0.89609 0.34451 0.01900
C 	C 	0.29584 0.89844 0.31724 -0.04100
C 	C 	0.25445 0.91020 0.29561 -0.04100
C 	C 	0.18852 0.92001 0.30100 0.01800
C 	C 	0.14622 0.93044 0.27939 -0.02500
C 	C 	0.21961 0.88485 0.39882 -0.02100
C 	C 	0.27801 0.85926 0.39295 -0.05300
C 	C 	0.30802 0.87326 0.36610 -0.02500
H 	H 	0.34585 0.88935 0.31273 0.03900
H 	H 	0.27337 0.91083 0.27467 0.04200
H 	H 	0.16501 0.93251 0.25833 0.04800
H 	H 	0.19822 0.87741 0.41972 0.06900
H 	H 	0.35473 0.85676 0.36168 0.05000
C 	C 	0.33196 0.80983 0.51740 -0.07400
C 	C 	0.32175 0.89678 0.51028 0.09600
H 	H 	0.36836 0.06475 0.51493 0.06300
N 	N 	0.27142 0.88897 0.48831 -0.01700
O 	O 	0.20314 0.80605 0.48644 -0.09400
O 	O 	0.29389 0.96477 0.47016 -0.09700
N 	N 	0.39551 0.35925 0.44903 -0.02000
O 	O 	0.39244 0.40311 0.42607 -0.11700
O 	O 	0.34619 0.26013 0.45386 -0.10400
C 	C 	0.36314 0.88142 0.67005 -0.04000
C 	C 	0.49270 0.07856 0.68116 -0.00400
C 	C 	0.41953 0.05296 0.69208 -0.01600
C 	C 	0.35363 0.95684 0.68495 0.02900
C 	C 	0.41080 0.12926 0.70702 0.02100
C 	C 	0.47667 0.22463 0.71405 -0.04200
C 	C 	0.54928 0.24999 0.70312 -0.04300
C 	C 	0.27923 0.94217 0.69045 -0.01500
C 	C 	0.27101 0.02366 0.70249 -0.06900
C 	C 	0.33647 0.11405 0.71223 -0.02600
H 	H 	0.31347 0.80542 0.66551 0.04800
H 	H 	0.47104 0.28150 0.72675 0.04100
H 	H 	0.59907 0.32554 0.70769 0.03900
H 	H 	0.22827 0.87076 0.68388 0.04500
H 	H 	0.32971 0.17534 0.72230 0.05300
N 	N 	0.16411 0.78584 0.90522 -0.02100
O 	O 	0.16950 0.75613 0.88058 -0.09600
O 	O 	0.21328 0.88089 0.91311 -0.07900
C 	C 	0.55329 0.92549 0.94886 -0.02300
H 	H 	0.55310 0.88468 0.96758 0.07000
O 	O 	0.67777 0.06883 0.98595 -0.10500
C 	C 	0.37304 0.33091 0.95678 -0.02300
H 	H 	0.31987 0.28235 0.96824 0.06700
N 	N 	0.39075 0.17614 0.95156 -0.02200
O 	O 	0.36722 0.13537 0.97594 -0.10400
O 	O 	0.38735 0.11585 0.93140 -0.07800
C 	C 	0.36827 0.48363 0.84076 -0.03600
C 	C 	0.30567 0.44655 0.82284 -0.03700
C 	C 	0.31672 0.43565 0.79482 0.02100
C 	C 	0.39254 0.47471 0.78422 -0.00600
C 	C 	0.45557 0.51254 0.80224 -0.00600
C 	C 	0.47945 0.50025 0.74581 -0.04300
C 	C 	0.40396 0.46254 0.75616 0.01800
C 	C 	0.33966 0.40129 0.73975 -0.02500
C 	C 	0.26517 0.34885 0.75155 -0.05400
C 	C 	0.25310 0.37456 0.77811 -0.02900
H 	H 	0.24798 0.42050 0.83100 0.04800
H 	H 	0.48907 0.49435 0.72414 0.03900
H 	H 	0.34818 0.38432 0.71877 0.04400
H 	H 	0.19481 0.33728 0.78670 0.04300
H 	H 	0.03582 0.77731 0.18403 0.03900
C 	C 	0.41654 0.28594 0.94664 0.10000
H 	H 	0.35824 0.48584 0.86257 0.05600
H 	H 	0.41303 0.74663 0.08947 0.04100
C 	C 	0.54816 0.32103 0.93292 0.30100
O 	O 	0.57613 0.40156 0.86683 -0.38100
O 	O 	0.55172 0.26192 0.91286 -0.36000
C 	C 	0.49890 0.09842 0.54146 0.30500
O 	O 	0.61999 0.41055 0.53814 -0.35800
O 	O 	0.50540 0.19011 0.54923 -0.37000
C 	C 	0.40818 0.54942 0.47301 0.29600
Ni	Ni	0.38111 0.70873 0.44136 1.12300
O 	O 	0.34621 0.77380 0.47065 -0.36700
O 	O 	0.41182 0.65236 0.40920 -0.37700
O 	O 	0.42948 0.65142 0.46927 -0.36800
C 	C 	0.44010 0.78482 0.03576 0.27000
O 	O 	0.42330 0.68593 0.03173 -0.36400
C 	C 	0.50821 0.77055 0.13010 -0.04400
C 	C 	0.52973 0.81886 0.10406 0.02500
C 	C 	0.47318 0.80146 0.08466 -0.03300
C 	C 	0.49454 0.84117 0.05778 -0.04700
H 	H 	0.44755 0.72509 0.13598 0.04300
C 	C 	0.47043 0.78936 0.29668 -0.04100
C 	C 	0.46918 0.72345 0.31811 0.01900
C 	C 	0.53099 0.70193 0.32072 -0.00900
C 	C 	0.52991 0.63524 0.34206 0.02200
C 	C 	0.46953 0.59569 0.36158 -0.02800
C 	C 	0.41278 0.62704 0.36079 -0.04800
C 	C 	0.40964 0.68461 0.33800 -0.02800
H 	H 	0.42262 0.80485 0.29416 0.03900
H 	H 	0.47018 0.54784 0.37865 0.05900
C 	C 	0.37020 0.81398 0.54181 -0.02900
C 	C 	0.36811 0.99450 0.52270 -0.00600
C 	C 	0.42234 0.00381 0.54225 -0.08900
C 	C 	0.41439 0.91143 0.55468 0.10300
H 	H 	0.37107 0.74430 0.54941 0.06900
C 	C 	0.49965 0.37616 0.47911 -0.02600
C 	C 	0.46829 0.51850 0.47716 -0.06900
C 	C 	0.45513 0.41864 0.46841 0.09300
H 	H 	0.48628 0.29698 0.47348 0.07200
C 	C 	0.43617 0.90678 0.65937 -0.02300
C 	C 	0.49956 0.00862 0.66291 0.01900
C 	C 	0.55610 0.18115 0.68470 0.01900
C 	C 	0.61926 0.21878 0.66638 -0.03000
C 	C 	0.61520 0.15726 0.64375 -0.04500
C 	C 	0.56405 0.04797 0.64510 -0.03200
H 	H 	0.44195 0.85025 0.64659 0.05500
H 	H 	0.66455 0.30072 0.66709 0.04700
C 	C 	0.48729 0.88235 0.93223 -0.05600
C 	C 	0.48966 0.93329 0.90727 0.10900
C 	C 	0.61405 0.08336 0.91982 -0.07600
C 	C 	0.61700 0.02536 0.94265 0.09700
N 	N 	0.68453 0.06709 0.95943 -0.01800
N 	N 	0.42539 0.88691 0.88898 -0.02000
O 	O 	0.75235 0.09836 0.94832 -0.09800
O 	O 	0.39309 0.94115 0.88060 -0.08000
C 	C 	0.50851 0.45561 0.92640 -0.02800
C 	C 	0.48737 0.35049 0.93291 -0.07900
C 	C 	0.39990 0.43939 0.95319 -0.07700
C 	C 	0.46646 0.50114 0.93715 0.09300
N 	N 	0.49512 0.61216 0.93363 -0.02400
C 	C 	0.44240 0.51037 0.83078 0.02600
C 	C 	0.52989 0.53896 0.79209 0.01900
C 	C 	0.54218 0.53863 0.76370 -0.04100
C 	C 	0.50053 0.52173 0.84889 -0.02100
C 	C 	0.57043 0.53264 0.83863 -0.05100
C 	C 	0.58790 0.55208 0.81051 -0.02400
H 	H 	0.59958 0.56238 0.75562 0.03700
H 	H 	0.48840 0.51072 0.87073 0.05800
H 	H 	0.64342 0.56515 0.80274 0.04700
H 	H 	0.00593 0.39811 0.15451 0.04300
O 	O 	0.49688 0.65103 0.90937 -0.10400
H 	H 	0.03407 0.56156 0.06730 0.05200
H 	H 	0.00102 0.50663 0.11580 0.04300
H 	H 	0.56194 0.50508 0.91527 0.05200
C 	C 	0.66801 0.19900 0.91718 0.31600
C 	C 	0.61443 0.49723 0.85552 0.28600
Ni	Ni	0.62875 0.32258 0.88056 1.12200
O 	O 	0.68757 0.35448 0.84435 -0.37800
O 	O 	0.68599 0.25871 0.93919 -0.33400
O 	O 	0.68261 0.24299 0.89282 -0.38000
O 	O 	0.60564 0.36836 0.95047 -0.35300
C 	C 	0.59458 0.37985 0.51321 0.31400
C 	C 	0.63622 0.20890 0.61669 0.27900
Ni	Ni	0.59816 0.30714 0.56952 1.12300
O 	O 	0.66763 0.43402 0.59264 -0.36900
O 	O 	0.58032 0.21341 0.60259 -0.36800
O 	O 	0.55323 0.09513 0.52609 -0.36900
C 	C 	0.56475 0.77888 0.14847 -0.03900
C 	C 	0.60870 0.87861 0.09672 -0.01100
C 	C 	0.57303 0.90925 0.05125 -0.02500
H 	H 	0.54721 0.74069 0.16843 0.04100
H 	H 	0.58948 0.94047 0.03053 0.06500
C 	C 	0.53431 0.83767 0.27878 -0.04200
C 	C 	0.59567 0.75141 0.30288 -0.00800
C 	C 	0.59198 0.61494 0.34470 -0.04100
H 	H 	0.53492 0.88966 0.26261 0.04000
H 	H 	0.59129 0.56283 0.36085 0.04900
N 	N 	0.45058 0.91696 0.58032 -0.02500
O 	O 	0.44964 0.97844 0.59938 -0.10700
C 	C 	0.55925 0.43389 0.49776 -0.07500
C 	C 	0.57917 0.53964 0.50345 0.09700
C 	C 	0.53253 0.58042 0.49362 -0.02900
H 	H 	0.54512 0.65911 0.49944 0.07000
H 	H 	0.56754 0.99733 0.62958 0.06600
C 	C 	0.73653 0.51912 0.64324 -0.02300
H 	H 	0.66046 0.51414 0.68931 0.03700
H 	H 	0.67895 0.50796 0.63987 0.05000
C 	C 	0.55276 0.03365 0.90124 -0.02800
O 	O 	0.40086 0.79174 0.87995 -0.08600
O 	O 	0.52605 0.67540 0.95419 -0.10600
H 	H 	0.05932 0.63055 0.17205 0.04100
C 	C 	0.71876 0.52783 0.69247 -0.04500
C 	C 	0.63053 0.92662 0.07049 0.02700
O 	O 	0.69104 0.54684 0.85265 -0.38500
O 	O 	0.69536 0.43960 0.90248 -0.70900
H 	H 	0.65733 0.46200 0.90673 0.15000
C 	C 	0.74352 0.47647 0.59408 0.30300
O 	O 	0.59075 0.29330 0.50330 -0.36500
O 	O 	0.66416 0.25874 0.55466 -0.71400
H 	H 	0.63763 0.18620 0.56218 0.15500
C 	C 	0.59780 0.82075 0.28210 0.01800
O 	O 	0.48209 0.85826 0.58502 -0.12300
H 	H 	0.62298 0.77765 0.59948 0.05400
C 	C 	0.76469 0.53084 0.67002 0.01500
C 	C 	0.78102 0.51660 0.62090 -0.05600
H 	H 	0.71289 0.54408 0.73609 0.03700
H 	H 	0.55181 0.07527 0.88284 0.04700
O 	O 	0.07125 0.06043 0.78665 -0.37700
H 	H 	0.05975 0.11611 0.74242 0.15900
C 	C 	0.74840 0.54441 0.71906 -0.04400
H 	H 	0.63574 0.90733 0.56396 0.05700
H 	H 	0.72325 0.93563 0.89733 0.06200
C 	C 	0.76349 0.41476 0.84144 0.29800
Ni	Ni	0.71976 0.42088 0.93880 1.12000
Ni	Ni	0.65832 0.22844 0.51708 1.11400
O 	O 	0.71111 0.27151 0.61075 -0.38100
O 	O 	0.78073 0.45494 0.57522 -0.37400
C 	C 	0.64352 0.83604 0.14107 0.01500
C 	C 	0.66565 0.88652 0.11513 -0.00300
C 	C 	0.70948 0.98561 0.06329 -0.03900
H 	H 	0.72696 0.02337 0.04328 0.05800
C 	C 	0.65929 0.73432 0.30642 0.01900
C 	C 	0.65639 0.66448 0.32706 -0.04000
C 	C 	0.66382 0.87382 0.26523 -0.02900
H 	H 	0.66509 0.92673 0.24919 0.04800
N 	N 	0.64743 0.60642 0.51865 -0.01800
O 	O 	0.64304 0.65751 0.53977 -0.10300
C 	C 	0.72265 0.78858 0.61983 -0.03400
C 	C 	0.68537 0.81094 0.59862 -0.03500
H 	H 	0.68856 0.73775 0.63674 0.04300
C 	C 	0.80123 0.41829 0.81496 -0.05700
H 	H 	0.69383 0.33330 0.79278 0.05000
H 	H 	0.78133 0.00973 0.85199 0.04200
H 	H 	0.71375 0.81353 0.93469 0.06400
C 	C 	0.03452 0.94329 0.88845 -0.02900
O 	O 	0.05395 0.05505 0.73190 -0.71900
C 	C 	0.75640 0.36855 0.79179 -0.02700
C 	C 	0.75453 0.65567 0.93317 0.28300
Ni	Ni	0.76724 0.56068 0.88221 1.12200
O 	O 	0.75689 0.58127 0.94897 -0.34100
O 	O 	0.73118 0.63689 0.90751 -0.38100
O 	O 	0.80512 0.47812 0.86106 -0.38900
Ni	Ni	0.76009 0.30693 0.57248 1.12300
C 	C 	0.70050 0.84635 0.15961 -0.02200
H 	H 	0.68378 0.81148 0.17999 0.04900
H 	H 	0.70447 0.64962 0.32972 0.04400
O 	O 	0.71468 0.62167 0.51027 -0.08400
C 	C 	0.72915 0.88258 0.57757 0.03300
C 	C 	0.69603 0.92881 0.56091 -0.01800
C 	C 	0.83974 0.54624 0.67446 -0.00600
C 	C 	0.85696 0.53536 0.62535 -0.02800
C 	C 	0.79225 0.36028 0.76776 0.02000
C 	C 	0.88263 0.47104 0.81290 -0.02900
H 	H 	0.68576 0.27368 0.74515 0.04200
C 	C 	0.77953 0.94505 0.89201 -0.03900
C 	C 	0.74769 0.30284 0.74531 -0.04200
C 	C 	0.81233 0.98657 0.86617 -0.02600
H 	H 	0.74674 0.22829 0.70724 0.04300
C 	C 	0.82566 0.57016 0.72327 0.02100
H 	H 	0.91750 0.51368 0.83031 0.05400
C 	C 	0.77373 0.83469 0.93096 -0.02500
O 	O 	0.83187 0.45804 0.92830 -0.35100
C 	C 	0.73072 0.10823 0.54548 0.28200
O 	O 	0.72333 0.15007 0.52204 -0.36300
O 	O 	0.75661 0.36966 0.50710 -0.36800
C 	C 	0.76623 0.99462 0.08177 -0.03300
C 	C 	0.74466 0.94456 0.10763 0.01500
C 	C 	0.72829 0.85897 0.26908 -0.05200
C 	C 	0.72555 0.78870 0.28965 -0.02900
C 	C 	0.80397 0.83836 0.62025 0.02200
C 	C 	0.74424 0.01779 0.54465 -0.05100
H 	H 	0.80937 0.79777 0.66260 0.04700
C 	C 	0.88638 0.54988 0.65205 0.02100
H 	H 	0.89238 0.53644 0.60816 0.05500
H 	H 	0.83045 0.62760 0.76429 0.04000
C 	C 	0.78238 0.27765 0.72370 -0.03800
C 	C 	0.87347 0.40374 0.76685 -0.01200
C 	C 	0.81605 0.90712 0.90980 0.03300
O 	O 	0.74512 0.15994 0.56894 -0.37600
C 	C 	0.77926 0.90933 0.15278 -0.06300
H 	H 	0.77500 0.77705 0.29275 0.05000
C 	C 	0.80971 0.92055 0.57583 -0.00300
C 	C 	0.84254 0.83956 0.64444 -0.02100
C 	C 	0.87047 0.56655 0.70106 -0.00600
C 	C 	0.86330 0.61881 0.74762 -0.02500
C 	C 	0.86168 0.30918 0.72453 0.01500
C 	C 	0.91892 0.46325 0.78901 0.02700
C 	C 	0.80060 0.76735 0.94069 -0.04200
H 	H 	0.87489 0.02927 0.81557 0.04500
C 	C 	0.80111 0.95434 0.12637 -0.01900
H 	H 	0.82691 0.04038 0.07592 0.04600
C 	C 	0.79787 0.91551 0.25113 0.27800
C 	C 	0.90833 0.37917 0.74504 0.00100
O 	O 	0.86203 0.61370 0.90670 -0.38400
O 	O 	0.83112 0.34644 0.53886 -0.37100
O 	O 	0.80009 0.98652 0.23312 -0.37300
C 	C 	0.84734 0.89908 0.59734 -0.00100
H 	H 	0.04786 0.68920 0.73112 0.05100
O 	O 	0.87292 0.57645 0.98639 -0.11500
H 	H 	0.05427 0.61679 0.68586 0.04800
C 	C 	0.99983 0.50710 0.78780 -0.05300
C 	C 	0.82489 0.39394 0.51670 0.32400
C 	C 	0.81949 0.03771 0.53831 -0.02900
C 	C 	0.89222 0.25917 0.70816 -0.01900
H 	H 	0.03559 0.55678 0.80420 0.05400
H 	H 	0.85469 0.19707 0.69432 0.04500
C 	C 	0.88255 0.99210 0.85812 0.01900
C 	C 	0.88328 0.55380 0.92028 0.31600
O 	O 	0.91786 0.95780 0.69253 -0.37500
C 	C 	0.85404 0.99307 0.55482 0.03800
C 	C 	0.90840 0.01422 0.83065 -0.02800
C 	C 	0.98818 0.41180 0.74584 0.00500
O 	O 	0.93852 0.10567 0.73210 -0.38400
C 	C 	0.83653 0.94885 0.17471 0.30100
O 	O 	0.83502 0.88299 0.19373 -0.37600
H 	H 	0.86203 0.00118 0.12099 0.04500
C 	C 	0.92328 0.90526 0.64614 -0.04900
N 	N 	0.91396 0.53500 0.97753 -0.02400
O 	O 	0.90355 0.44655 0.98817 -0.10000
C 	C 	0.03435 0.48145 0.76628 -0.02600
C 	C 	0.89109 0.92471 0.90323 -0.01300
Ni	Ni	0.94438 0.97189 0.73286 1.12200
O 	O 	0.84903 0.88105 0.25018 -0.37900
H 	H 	0.85489 0.10069 0.52388 0.05400
C 	C 	0.96631 0.27402 0.71372 -0.06100
C 	C 	0.88121 0.80901 0.94111 -0.02700
O 	O 	0.02802 0.85728 0.76442 -0.36400
H 	H 	0.84030 0.36172 0.46294 0.05900
C 	C 	0.97734 0.18192 0.71361 0.28000
O 	O 	0.94103 0.95979 0.77521 -0.36900
C 	C 	0.92904 0.95011 0.59767 0.03100
C 	C 	0.01758 0.36149 0.72908 -0.01800
H 	H 	0.09629 0.51059 0.76642 0.04100
C 	C 	0.92425 0.96689 0.87731 -0.00000
C 	C 	0.95905 0.94466 0.67314 0.29200
O 	O 	0.94947 0.83822 0.72856 -0.38600
O 	O 	0.87589 0.05092 0.17832 -0.38100
H 	H 	0.86956 0.15250 0.35386 0.04700
Ni	Ni	0.89941 0.11775 0.21677 1.11200
C 	C 	0.92643 0.88260 0.92057 0.02500
C 	C 	0.97578 0.01210 0.82245 -0.06400
H 	H 	0.90521 0.76811 0.95272 0.06400
C 	C 	0.96298 0.60218 0.93079 -0.08100
O 	O 	0.01580 0.16916 0.69285 -0.37700
C 	C 	0.89363 0.45355 0.49905 -0.07900
C 	C 	0.94398 0.68355 0.74675 -0.05800
C 	C 	0.97690 0.59307 0.95877 0.09500
H 	H 	0.02950 0.99595 0.62286 0.05600
H 	H 	0.96862 0.08431 0.53680 0.04900
O 	O 	0.00831 0.58440 0.55530 -0.10700
C 	C 	0.96676 0.95085 0.62201 -0.03100
C 	C 	0.96251 0.57019 0.65661 -0.03800
H 	H 	0.90202 0.14201 0.40216 0.05700
C 	C 	0.94977 0.59973 0.70490 0.02600
C 	C 	0.99674 0.01828 0.79306 0.27500
H 	H 	0.91154 0.19501 0.30555 0.05000
C 	C 	0.89403 0.41957 0.47219 -0.02100
O 	O 	0.03464 0.98849 0.67536 -0.37200
O 	O 	0.93497 0.20042 0.25349 -0.36600
C 	C 	0.02536 0.66611 0.91325 -0.02700
C 	C 	0.92517 0.15938 0.35866 -0.03500
C 	C 	0.97141 0.79674 0.74800 0.29600
C 	C 	0.99465 0.97194 0.86948 0.00500
O 	O 	0.91672 0.62027 0.53999 -0.08600
C 	C 	0.93441 0.03199 0.55346 -0.04300
Ni	Ni	0.92574 0.91336 0.21883 1.12000
C 	C 	0.94343 0.15297 0.38610 -0.03800
H 	H 	0.01470 0.67801 0.89209 0.06000
O 	O 	0.92815 0.33095 0.42236 -0.11600
C 	C 	0.96673 0.20111 0.31070 -0.02400
H 	H 	0.95528 0.05280 0.24525 0.15100
C 	C 	0.99417 0.59543 0.68292 -0.04400
C 	C 	0.98548 0.65292 0.72913 -0.02700
H 	H 	0.99813 0.57026 0.63963 0.04800
C 	C 	0.00055 0.89894 0.91391 -0.03600
C 	C 	0.96411 0.45709 0.45759 0.09200
H 	H 	0.07704 0.37856 0.73144 0.04100
C 	C 	0.02083 0.99656 0.84221 -0.00400
C 	C 	0.98024 0.18029 0.33773 0.01600
C 	C 	0.96241 0.53459 0.51008 0.10000
N 	N 	0.96148 0.57943 0.53606 -0.02400
O 	O 	0.96241 0.05834 0.22521 -0.71400
C 	C 	0.97179 0.01075 0.57483 -0.04400
