data_crystal

_cell_length_a 25.79980
_cell_length_b 25.90780
_cell_length_c 35.07434
_cell_angle_alpha 95.50687
_cell_angle_beta  95.50514
_cell_angle_gamma 125.75628

_symmetry_space_group_name_	'P 1'
_symmetry_space_group_name_H-M	'P 1'

loop_
_symmetry_equiv_pos_as_xyz
  x,y,z

loop_
_atom_site_label
_atom_site_type_symbol
_atom_site_fract_x
_atom_site_fract_y
_atom_site_fract_z
_atom_site_charge
C 	C 	0.96797 0.02991 0.00190 0.03600
C 	C 	0.92326 0.96212 0.99618 -0.07400
C 	C 	0.94479 0.92346 0.99217 0.03600
C 	C 	0.01093 0.95253 0.99288 -0.07000
C 	C 	0.05593 0.02024 0.99859 0.03300
C 	C 	0.03427 0.05877 0.00304 -0.06900
H 	H 	0.87182 0.93947 0.99413 0.05500
H 	H 	0.02726 0.92249 0.98909 0.05500
H 	H 	0.06903 0.11108 0.00794 0.05500
C 	C 	0.94292 0.01634 0.46737 0.03700
C 	C 	0.90855 0.94973 0.46739 -0.07100
C 	C 	0.94132 0.92146 0.46808 0.03800
C 	C 	0.00841 0.96003 0.46817 -0.07100
C 	C 	0.04322 0.02682 0.46993 0.03800
C 	C 	0.01058 0.05493 0.46927 -0.07300
H 	H 	0.85663 0.92013 0.46696 0.05700
H 	H 	0.03356 0.93817 0.46664 0.05600
H 	H 	0.03787 0.10676 0.47081 0.05600
Cu	Cu	0.63735 0.23730 0.00207 0.93100
Cu	Cu	0.68998 0.23879 0.92054 0.87700
Cu	Cu	0.66543 0.33303 0.94842 0.89900
Cu	Cu	0.63354 0.35491 0.02477 0.89700
C 	C 	0.65492 0.28831 0.08260 0.30500
O 	O 	0.54209 0.19703 0.00176 -0.34800
C 	C 	0.65483 0.29197 0.86492 0.30400
O 	O 	0.68650 0.33692 0.00296 -0.64100
O 	O 	0.62670 0.23950 0.94589 -0.64100
O 	O 	0.67991 0.19337 0.00149 -0.35600
O 	O 	0.75160 0.25956 0.96507 -0.42700
O 	O 	0.62422 0.31247 0.07106 -0.37400
O 	O 	0.70977 0.42530 0.95338 -0.37400
C 	C 	0.70568 0.46223 0.97973 0.29300
C 	C 	0.51429 0.22112 0.98576 0.28100
O 	O 	0.55028 0.28106 0.98005 -0.38600
O 	O 	0.66880 0.43844 0.00639 -0.38500
O 	O 	0.66167 0.25214 0.05749 -0.34500
C 	C 	0.73574 0.22001 0.98985 0.28400
O 	O 	0.64982 0.32763 0.89177 -0.37200
O 	O 	0.65072 0.24076 0.87210 -0.39600
H 	H 	0.73347 0.36705 0.01444 0.17100
H 	H 	0.58164 0.20976 0.93088 0.17900
Cu	Cu	0.73434 0.34631 0.45203 0.93000
Cu	Cu	0.72843 0.29712 0.53519 0.87400
Cu	Cu	0.63181 0.31526 0.50164 0.89900
Cu	Cu	0.61335 0.34306 0.42279 0.89700
C 	C 	0.68733 0.32464 0.37011 0.30600
O 	O 	0.77131 0.44014 0.45111 -0.34600
C 	C 	0.67014 0.33143 0.58690 0.30300
O 	O 	0.63308 0.29378 0.44791 -0.63900
O 	O 	0.72700 0.35737 0.50738 -0.63900
O 	O 	0.78155 0.30708 0.45646 -0.35700
O 	O 	0.71237 0.23654 0.49214 -0.43400
O 	O 	0.66139 0.35440 0.37922 -0.37500
O 	O 	0.53832 0.26822 0.49348 -0.36800
C 	C 	0.50167 0.26518 0.46297 0.29100
C 	C 	0.74287 0.46509 0.46436 0.28400
O 	O 	0.68182 0.42687 0.46804 -0.38800
O 	O 	0.52712 0.30464 0.43792 -0.38400
O 	O 	0.72474 0.32183 0.39697 -0.34300
C 	C 	0.75648 0.25351 0.47039 0.29000
O 	O 	0.63124 0.32872 0.55789 -0.36000
O 	O 	0.72310 0.33738 0.58150 -0.41200
H 	H 	0.60501 0.24682 0.43688 0.16900
H 	H 	0.75472 0.40253 0.52203 0.17900
C 	C 	0.69599 0.31309 0.76417 -0.07000
C 	C 	0.65254 0.32405 0.74726 0.02500
C 	C 	0.60989 0.32490 0.76916 0.05700
C 	C 	0.61087 0.31425 0.80760 -0.00200
C 	C 	0.65455 0.30349 0.82455 -0.08800
C 	C 	0.69793 0.30378 0.80279 0.11400
C 	C 	0.65081 0.33267 0.70618 0.02800
N 	N 	0.56554 0.33652 0.75247 -0.01600
H 	H 	0.57761 0.31435 0.82424 0.06400
N 	N 	0.74521 0.29637 0.82016 -0.02500
H 	H 	0.72895 0.31261 0.74741 0.07900
C 	C 	0.70448 0.38758 0.69532 0.05400
C 	C 	0.70837 0.38879 0.65579 -0.00200
C 	C 	0.65870 0.33620 0.62697 -0.09100
C 	C 	0.60250 0.28398 0.63773 0.11500
C 	C 	0.59906 0.28219 0.67725 -0.07200
N 	N 	0.75600 0.44134 0.72444 -0.01600
H 	H 	0.75089 0.42990 0.64756 0.05900
N 	N 	0.55026 0.23107 0.60867 -0.02700
H 	H 	0.55717 0.24041 0.68547 0.08100
O 	O 	0.74759 0.25063 0.80401 -0.11300
O 	O 	0.78920 0.33851 0.85021 -0.12700
O 	O 	0.50365 0.29545 0.75222 -0.10100
O 	O 	0.58744 0.39016 0.73990 -0.08700
O 	O 	0.51073 0.23775 0.58786 -0.09600
O 	O 	0.53898 0.17476 0.60529 -0.11600
O 	O 	0.81605 0.46398 0.72379 -0.10300
O 	O 	0.74316 0.46957 0.75048 -0.08800
C 	C 	0.65790 0.23591 0.17962 -0.07200
C 	C 	0.68464 0.29379 0.20567 0.02600
C 	C 	0.70650 0.35087 0.19118 0.05600
C 	C 	0.69947 0.34900 0.15088 -0.00400
C 	C 	0.66919 0.29037 0.12472 -0.08900
C 	C 	0.64867 0.23347 0.13926 0.12400
C 	C 	0.68456 0.29329 0.24781 0.02600
N 	N 	0.73408 0.41044 0.21730 -0.01600
H 	H 	0.71574 0.39290 0.13989 0.05000
N 	N 	0.61520 0.17256 0.11330 -0.02100
H 	H 	0.64126 0.19200 0.19068 0.08100
C 	C 	0.62591 0.26448 0.26195 0.05600
C 	C 	0.62728 0.27126 0.30219 -0.00400
C 	C 	0.68669 0.30807 0.32859 -0.08900
C 	C 	0.74526 0.33482 0.31446 0.12500
C 	C 	0.74368 0.32614 0.27419 -0.07200
N 	N 	0.56504 0.23027 0.23552 -0.01700
H 	H 	0.58214 0.25018 0.31290 0.04800
N 	N 	0.80655 0.37373 0.34075 -0.02200
H 	H 	0.78880 0.34780 0.26339 0.08100
O 	O 	0.55671 0.14524 0.09423 -0.09100
O 	O 	0.64088 0.14186 0.11130 -0.09600
O 	O 	0.79335 0.46034 0.21773 -0.10200
O 	O 	0.69836 0.41630 0.23839 -0.09100
O 	O 	0.84322 0.35459 0.34373 -0.09500
O 	O 	0.82822 0.43079 0.35900 -0.08700
O 	O 	0.52026 0.16933 0.23528 -0.10200
O 	O 	0.55247 0.26121 0.21395 -0.09200
C 	C 	0.84535 0.73457 0.43694 0.00500
C 	C 	0.79364 0.66845 0.42815 -0.05200
C 	C 	0.80462 0.62556 0.44130 0.02000
C 	C 	0.86491 0.64916 0.46379 0.00700
C 	C 	0.91182 0.71549 0.47821 -0.05800
C 	C 	0.90184 0.75826 0.46378 0.03000
S 	S 	0.83788 0.79403 0.43618 -0.00100
C 	C 	0.90540 0.85154 0.46866 -0.00300
C 	C 	0.93572 0.82390 0.48161 -0.05900
S 	S 	0.85462 0.59082 0.48611 0.03200
C 	C 	0.77520 0.53467 0.46841 -0.07200
C 	C 	0.75426 0.56087 0.44357 -0.01500
H 	H 	0.74593 0.65136 0.41347 0.05200
H 	H 	0.95266 0.73291 0.50117 0.05200
H 	H 	0.98004 0.84993 0.50328 0.05000
H 	H 	0.70502 0.53415 0.42740 0.04100
C 	C 	0.87443 0.11108 0.49754 0.00500
C 	C 	0.83125 0.12363 0.50793 -0.05500
C 	C 	0.83165 0.17154 0.49213 0.01700
C 	C 	0.87185 0.20306 0.46533 -0.00400
C 	C 	0.90629 0.18230 0.45003 -0.05500
C 	C 	0.90864 0.13692 0.46739 0.02700
S 	S 	0.86757 0.04408 0.50170 -0.00400
C 	C 	0.90830 0.04585 0.46677 -0.00300
C 	C 	0.92831 0.10068 0.45026 -0.05900
S 	S 	0.84465 0.23839 0.44228 0.04900
C 	C 	0.78278 0.21651 0.46551 -0.08000
C 	C 	0.78189 0.17951 0.49253 -0.02500
H 	H 	0.79667 0.09523 0.52608 0.04900
H 	H 	0.92785 0.19851 0.42463 0.05200
H 	H 	0.95600 0.11392 0.42699 0.04900
H 	H 	0.74749 0.16001 0.51210 0.03700
C 	C 	0.31184 0.14221 0.43415 0.00200
C 	C 	0.24850 0.12122 0.42039 -0.05700
C 	C 	0.20194 0.08890 0.44378 0.02900
C 	C 	0.21962 0.08078 0.48058 0.00400
C 	C 	0.28461 0.10995 0.49656 -0.05300
C 	C 	0.33071 0.13947 0.47252 0.02200
S 	S 	0.37757 0.20227 0.42006 0.02700
C 	C 	0.43110 0.22556 0.46078 -0.06700
C 	C 	0.39826 0.18556 0.48717 -0.02100
S 	S 	0.16325 0.06606 0.50639 0.00000
C 	C 	0.11392 0.06722 0.47233 -0.00500
C 	C 	0.14205 0.08033 0.43892 -0.05800
H 	H 	0.23695 0.13336 0.39373 0.05200
H 	H 	0.29934 0.11314 0.52720 0.05700
H 	H 	0.42131 0.19148 0.51636 0.06600
H 	H 	0.11939 0.08189 0.41185 0.05000
C 	C 	0.77811 0.62918 0.94745 0.00100
C 	C 	0.82501 0.68849 0.93746 -0.05500
C 	C 	0.83359 0.74409 0.95599 0.02900
C 	C 	0.79783 0.74006 0.98500 0.00400
C 	C 	0.75834 0.68247 0.99890 -0.05600
C 	C 	0.74754 0.62635 0.97916 0.02000
S 	S 	0.77795 0.56460 0.94135 0.04500
C 	C 	0.73904 0.53086 0.97739 -0.07500
C 	C 	0.72446 0.57031 0.99560 -0.02000
S 	S 	0.83694 0.81379 0.01185 -0.00100
C 	C 	0.89833 0.85253 0.98769 -0.00500
C 	C 	0.88977 0.80787 0.95710 -0.05800
H 	H 	0.85651 0.69187 0.91790 0.05400
H 	H 	0.74016 0.68220 0.02553 0.05300
H 	H 	0.70017 0.56024 0.02038 0.04900
H 	H 	0.92404 0.82006 0.93773 0.05000
C 	C 	0.90292 0.13201 0.98655 0.00400
C 	C 	0.90325 0.18567 0.98355 -0.05900
C 	C 	0.86191 0.19222 0.00315 0.02500
C 	C 	0.82526 0.14859 0.02729 -0.00400
C 	C 	0.82539 0.09519 0.03049 -0.05500
C 	C 	0.86699 0.08896 0.01102 0.02900
S 	S 	0.96316 0.12750 0.97971 -0.00700
C 	C 	0.94561 0.07088 0.00651 -0.00100
C 	C 	0.89022 0.05356 0.02181 -0.05900
S 	S 	0.76334 0.15119 0.03236 0.05000
C 	C 	0.78263 0.20961 0.00680 -0.07100
C 	C 	0.83804 0.22680 0.99164 -0.02800
H 	H 	0.93268 0.21969 0.96545 0.05200
H 	H 	0.79571 0.06089 0.04838 0.05300
H 	H 	0.86915 0.01886 0.04101 0.05000
H 	H 	0.85451 0.25548 0.96898 0.04600
C 	C 	0.22831 0.06114 0.99736 0.00100
C 	C 	0.28924 0.07622 0.01134 -0.05100
C 	C 	0.34362 0.12895 0.00002 0.02200
C 	C 	0.33733 0.16801 0.97806 0.00100
C 	C 	0.27649 0.15273 0.96366 -0.05800
C 	C 	0.22190 0.10006 0.97503 0.03100
S 	S 	0.16423 0.02190 0.01895 0.00100
C 	C 	0.12589 0.05105 0.00046 0.00100
C 	C 	0.16344 0.09335 0.97609 -0.06100
S 	S 	0.40359 0.21107 0.95882 0.02800
C 	C 	0.44304 0.18334 0.97804 -0.07300
C 	C 	0.40345 0.13805 0.00055 -0.01800
H 	H 	0.29392 0.04708 0.02949 0.05500
H 	H 	0.27212 0.18243 0.94589 0.05200
H 	H 	0.15005 0.11930 0.96058 0.05000
H 	H 	0.41773 0.11378 0.01723 0.05800
