data_crystal

_cell_length_a 16.49262
_cell_length_b 17.23372
_cell_length_c 45.61988
_cell_angle_alpha 90.20334
_cell_angle_beta  90.21217
_cell_angle_gamma 119.38695

_symmetry_space_group_name_	'P 1'
_symmetry_space_group_name_H-M	'P 1'

loop_
_symmetry_equiv_pos_as_xyz
  x,y,z

loop_
_atom_site_label
_atom_site_type_symbol
_atom_site_fract_x
_atom_site_fract_y
_atom_site_fract_z
_atom_site_charge
C 	C 	0.14000 0.01933 0.73196 0.31500
C 	C 	0.17771 0.04493 0.81085 0.31000
Ni	Ni	0.04818 0.08066 0.77167 1.11600
Ni	Ni	0.03166 0.89037 0.77960 1.12300
O 	O 	0.07861 0.04646 0.73318 -0.39700
O 	O 	0.12002 0.95788 0.81192 -0.36200
O 	O 	0.16863 0.09715 0.79085 -0.37100
O 	O 	0.13667 0.96040 0.75097 -0.35400
C 	C 	0.19940 0.56994 0.47161 0.29400
C 	C 	0.30758 0.82180 0.37626 0.33200
C 	C 	0.18412 0.52668 0.38918 0.32900
C 	C 	0.33755 0.86653 0.45697 0.29700
Ni	Ni	0.21583 0.69054 0.42245 1.11300
Ni	Ni	0.44103 0.80937 0.41780 1.12300
Ni	Ni	0.34737 0.59995 0.42695 1.12100
O 	O 	0.17406 0.62772 0.46237 -0.38400
O 	O 	0.23144 0.53137 0.45296 -0.37700
O 	O 	0.25393 0.73701 0.38044 -0.35800
O 	O 	0.38001 0.86682 0.39353 -0.36700
O 	O 	0.42920 0.64915 0.46183 -0.40000
O 	O 	0.14316 0.56079 0.40517 -0.36500
O 	O 	0.27427 0.56306 0.38931 -0.36900
O 	O 	0.26230 0.82008 0.43993 -0.37000
O 	O 	0.41884 0.87078 0.45166 -0.38100
O 	O 	0.33385 0.70331 0.43033 -0.70900
H 	H 	0.33813 0.71339 0.45169 0.16200
C 	C 	0.28955 0.51883 0.09875 0.30800
C 	C 	0.26969 0.54344 0.17578 0.31200
C 	C 	0.21720 0.71096 0.07506 0.31900
C 	C 	0.21357 0.78514 0.15615 0.30800
Ni	Ni	0.42650 0.67004 0.13212 1.11400
Ni	Ni	0.20899 0.61934 0.12963 1.12800
Ni	Ni	0.36833 0.81870 0.11682 1.12400
O 	O 	0.18846 0.63369 0.08753 -0.39400
O 	O 	0.36204 0.59620 0.09550 -0.39500
O 	O 	0.22221 0.51115 0.11609 -0.35400
O 	O 	0.30264 0.83886 0.15012 -0.36400
O 	O 	0.42418 0.79654 0.08101 -0.39800
O 	O 	0.16333 0.70515 0.14326 -0.36500
O 	O 	0.34849 0.56276 0.16148 -0.36100
O 	O 	0.22350 0.58642 0.17061 -0.36200
O 	O 	0.25633 0.78536 0.09060 -0.37900
O 	O 	0.33708 0.70713 0.13330 -0.72000
H 	H 	0.33944 0.72216 0.15425 0.17400
C 	C 	0.07850 0.94928 0.23737 0.28400
C 	C 	0.08439 0.20414 0.32932 0.30900
C 	C 	0.08547 0.94343 0.31787 0.31900
C 	C 	0.09871 0.23667 0.25061 0.30400
Ni	Ni	0.12756 0.10212 0.28338 1.11700
O 	O 	0.14147 0.00935 0.25597 -0.34600
O 	O 	0.14788 0.20782 0.31111 -0.34100
O 	O 	0.11011 0.02741 0.32025 -0.35300
O 	O 	0.02668 0.89441 0.29713 -0.35900
O 	O 	0.13955 0.18689 0.24985 -0.35700
O 	O 	0.03287 0.22369 0.27028 -0.37100
C 	C 	0.08866 0.32847 0.21074 -0.03700
C 	C 	0.14043 0.31903 0.23335 -0.07300
C 	C 	0.23500 0.38376 0.23717 0.12700
C 	C 	0.27727 0.45524 0.21769 -0.02900
C 	C 	0.22586 0.46402 0.19471 -0.07800
C 	C 	0.13053 0.39970 0.19126 0.13500
Br	Br	0.05672 0.40435 0.15932 -0.25600
H 	H 	0.01625 0.27857 0.20764 0.07600
H 	H 	0.34968 0.50499 0.22084 0.07800
Br	Br	0.30669 0.37793 0.26950 -0.20800
C 	C 	0.11653 0.77455 0.19899 -0.03000
C 	C 	0.16573 0.82120 0.17418 -0.07700
C 	C 	0.18014 0.90788 0.16916 0.13500
C 	C 	0.15443 0.95025 0.19046 -0.04600
C 	C 	0.10894 0.90502 0.21592 -0.06500
C 	C 	0.08645 0.81523 0.21957 0.12400
H 	H 	0.10346 0.70728 0.20267 0.07800
H 	H 	0.16761 0.01756 0.18681 0.07900
Br	Br	0.22807 0.96666 0.13244 -0.24600
C 	C 	0.12487 0.36313 0.32872 -0.03700
C 	C 	0.10062 0.28569 0.34484 -0.07500
C 	C 	0.08336 0.28469 0.37510 0.11700
C 	C 	0.09663 0.36259 0.38916 -0.03400
C 	C 	0.12968 0.44222 0.37344 -0.09100
C 	C 	0.13784 0.44058 0.34280 0.13200
Br	Br	0.17261 0.54568 0.32007 -0.17000
H 	H 	0.08900 0.36304 0.41274 0.05900
Br	Br	0.04923 0.18010 0.39804 -0.19600
C 	C 	0.22783 0.91073 0.37624 -0.03800
C 	C 	0.26865 0.86943 0.36023 -0.08800
C 	C 	0.25072 0.85454 0.32998 0.12900
C 	C 	0.18795 0.87582 0.31646 -0.03300
C 	C 	0.14192 0.91121 0.33298 -0.07800
C 	C 	0.16252 0.92897 0.36306 0.12100
Br	Br	0.09790 0.97282 0.38696 -0.19200
H 	H 	0.24210 0.92317 0.39950 0.07100
H 	H 	0.17693 0.86714 0.29299 0.08900
Br	Br	0.31280 0.80662 0.30677 -0.16200
C 	C 	0.48434 0.93631 0.59050 -0.17700
C 	C 	0.45738 0.04301 0.50709 0.03900
C 	C 	0.39374 0.00722 0.48356 -0.00900
C 	C 	0.33234 0.91524 0.48252 -0.11000
C 	C 	0.31425 0.87062 0.50909 0.10300
C 	C 	0.38789 0.89647 0.52900 -0.09000
H 	H 	0.39925 0.04844 0.46495 0.04600
C 	C 	0.22009 0.79444 0.51525 -0.21800
H 	H 	0.38845 0.84799 0.54372 0.04800
H 	H 	0.46242 0.86500 0.58687 0.06500
H 	H 	0.42566 0.94926 0.58646 0.06100
H 	H 	0.50299 0.95107 0.61408 0.07000
H 	H 	0.20599 0.78826 0.53912 0.07400
H 	H 	0.21569 0.73282 0.50649 0.08400
H 	H 	0.16596 0.80516 0.50443 0.08000
C 	C 	0.09294 0.56341 0.55158 0.02000
C 	C 	0.19131 0.60792 0.54932 0.01900
C 	C 	0.23185 0.59187 0.52453 -0.01400
C 	C 	0.17492 0.53690 0.50180 -0.11600
C 	C 	0.08145 0.47539 0.50826 0.12500
C 	C 	0.04093 0.48836 0.53358 -0.12500
C 	C 	0.25297 0.66768 0.57355 -0.17200
H 	H 	0.30623 0.63159 0.52109 0.03500
C 	C 	0.02148 0.40510 0.48623 -0.25900
H 	H 	0.04582 0.65294 0.51056 0.06000
H 	H 	0.32738 0.70187 0.56713 0.06000
H 	H 	0.24596 0.62721 0.59323 0.06900
H 	H 	0.23482 0.71990 0.57919 0.06200
H 	H 	0.06281 0.38034 0.47421 0.09800
C 	C 	0.45146 0.34897 0.54034 0.11100
C 	C 	0.35550 0.30239 0.55331 -0.21700
H 	H 	0.42371 0.43728 0.51388 0.05900
H 	H 	0.30290 0.29753 0.53704 0.08200
H 	H 	0.35321 0.34010 0.57278 0.10200
H 	H 	0.33657 0.23364 0.56001 0.09700
C 	C 	0.39118 0.14290 0.70648 -0.03300
C 	C 	0.38440 0.18719 0.68165 -0.07800
C 	C 	0.29616 0.17238 0.67250 0.12400
C 	C 	0.21648 0.11428 0.68831 -0.03900
C 	C 	0.22290 0.06767 0.71271 -0.08200
C 	C 	0.31133 0.07876 0.72063 0.12400
Br	Br	0.32530 0.99843 0.74670 -0.20500
H 	H 	0.14930 0.10509 0.68149 0.07100
Br	Br	0.28190 0.22738 0.63778 -0.23200
C 	C 	0.05914 0.61673 0.01549 -0.11700
C 	C 	0.10426 0.57230 0.00389 0.01400
C 	C 	0.20239 0.61400 0.00598 0.02400
C 	C 	0.24949 0.68800 0.02475 -0.01000
C 	C 	0.19826 0.71146 0.04368 -0.11500
C 	C 	0.10702 0.68838 0.03510 0.11500
C 	C 	0.25677 0.58213 0.98785 -0.17500
H 	H 	0.32339 0.71606 0.02841 0.04500
C 	C 	0.05538 0.72761 0.05077 -0.21700
H 	H 	0.10074 0.49620 0.95096 0.06400
H 	H 	0.10406 0.79701 0.05793 0.09400
H 	H 	0.26077 0.60470 0.96488 0.06600
H 	H 	0.32833 0.60857 0.99631 0.06000
H 	H 	0.08707 0.33306 0.93638 0.09000
C 	C 	0.41617 0.94361 0.00021 -0.09200
C 	C 	0.39328 0.00164 0.98525 0.10400
C 	C 	0.36142 0.05668 0.00210 -0.21000
H 	H 	0.40825 0.93684 0.02380 0.05800
H 	H 	0.45711 0.74242 0.98797 0.05000
H 	H 	0.31975 0.01973 0.02143 0.07900
H 	H 	0.31735 0.07367 0.98801 0.08600
H 	H 	0.49847 0.63333 0.01570 0.07100
C 	C 	0.36488 0.42975 0.10881 -0.02200
C 	C 	0.30046 0.44110 0.09174 -0.10300
C 	C 	0.28677 0.41099 0.06247 0.10100
C 	C 	0.35575 0.39864 0.04856 -0.09000
H 	H 	0.36851 0.44223 0.13220 0.04800
C 	C 	0.20551 0.40354 0.04513 -0.20800
H 	H 	0.35073 0.38455 0.02524 0.05500
H 	H 	0.14060 0.36687 0.05800 0.08100
H 	H 	0.19616 0.36710 0.02414 0.07100
H 	H 	0.21668 0.47108 0.04028 0.07500
C 	C 	0.35006 0.12614 0.81173 -0.02900
C 	C 	0.26604 0.07956 0.82698 -0.07300
C 	C 	0.26699 0.05114 0.85585 0.12500
C 	C 	0.35080 0.06697 0.86868 -0.03600
C 	C 	0.43518 0.11790 0.85405 -0.08800
C 	C 	0.43383 0.14248 0.82477 0.13400
H 	H 	0.35000 0.14739 0.78941 0.08500
H 	H 	0.35109 0.04666 0.89110 0.07100
Br	Br	0.15595 0.99820 0.87909 -0.21200
H 	H 	0.13398 0.36337 0.30523 0.08900
C 	C 	0.46428 0.98346 0.52724 -0.00500
H 	H 	0.47329 0.17477 0.50490 0.07300
C 	C 	0.05011 0.61534 0.59789 -0.10500
C 	C 	0.04356 0.60502 0.56716 -0.01400
H 	H 	0.10363 0.61002 0.61000 0.05500
H 	H 	0.05687 0.69996 0.65078 0.07100
H 	H 	0.02006 0.68679 0.07029 0.08300
C 	C 	0.42710 0.95528 0.93960 -0.02200
C 	C 	0.41865 0.02046 0.95567 -0.09700
C 	C 	0.48541 0.66348 0.03542 -0.21300
H 	H 	0.42880 0.95857 0.91587 0.05100
H 	H 	0.52076 0.65318 0.05453 0.08300
C 	C 	0.49932 0.79018 0.00459 -0.09400
H 	H 	0.44319 0.77832 0.93871 0.07100
H 	H 	0.42302 0.11910 0.00963 0.07300
H 	H 	0.39644 0.22406 0.04365 0.07100
C 	C 	0.05071 0.45011 0.96640 -0.13000
C 	C 	0.47504 0.41831 0.52016 -0.09300
H 	H 	0.52975 0.74904 0.52561 0.07700
H 	H 	0.40967 0.62928 0.03982 0.08600
C 	C 	0.48553 0.11281 0.94828 0.29500
C 	C 	0.51931 0.16914 0.87169 0.33300
O 	O 	0.45719 0.16314 0.93370 -0.36300
O 	O 	0.54642 0.25286 0.87597 -0.35800
O 	O 	0.54588 0.12745 0.89019 -0.37400
C 	C 	0.46582 0.23088 0.66215 0.32000
C 	C 	0.52723 0.32088 0.58275 0.29600
O 	O 	0.49446 0.31250 0.65251 -0.34100
O 	O 	0.49390 0.23980 0.59442 -0.37500
O 	O 	0.51169 0.18890 0.65611 -0.38700
C 	C 	0.48785 0.70327 0.38123 0.33100
C 	C 	0.51445 0.71532 0.45901 0.29800
O 	O 	0.44888 0.75276 0.38085 -0.37500
O 	O 	0.53428 0.78441 0.44116 -0.37400
O 	O 	0.46324 0.64100 0.40142 -0.37800
C 	C 	0.51655 0.84664 0.16259 0.30700
C 	C 	0.50355 0.79745 0.08149 0.32000
O 	O 	0.49410 0.76186 0.16492 -0.36100
O 	O 	0.49486 0.87781 0.13868 -0.36800
O 	O 	0.52642 0.76434 0.10393 -0.37200
Br	Br	0.44701 0.84938 0.22762 -0.19400
Br	Br	0.47200 0.67081 0.31186 -0.17000
C 	C 	0.55636 0.00601 0.54082 0.01500
C 	C 	0.56618 0.99357 0.57125 0.02000
C 	C 	0.51510 0.14242 0.51076 -0.18400
H 	H 	0.53847 0.16060 0.53383 0.08100
C 	C 	0.52150 0.33210 0.55109 -0.11000
H 	H 	0.45864 0.15258 0.71325 0.08400
C 	C 	0.46116 0.90401 0.98511 0.00400
C 	C 	0.45896 0.90319 0.95407 0.03500
C 	C 	0.52363 0.87999 0.00172 0.00700
C 	C 	0.49287 0.85055 0.93654 -0.18200
C 	C 	0.55782 0.82129 0.05444 -0.11200
C 	C 	0.52078 0.76105 0.03075 0.10700
H 	H 	0.49849 0.86742 0.91288 0.07700
C 	C 	0.43468 0.41105 0.06436 0.00300
C 	C 	0.43727 0.42251 0.09512 0.03100
Br	Br	0.54625 0.19832 0.80234 -0.16800
H 	H 	0.56430 0.49022 0.42391 0.07700
C 	C 	0.46456 0.25663 0.05526 -0.17800
Ni	Ni	0.54143 0.29562 0.91766 1.11500
O 	O 	0.54900 0.35570 0.95735 -0.37200
Ni	Ni	0.57366 0.19990 0.61779 1.12000
O 	O 	0.56618 0.39361 0.59921 -0.37000
H 	H 	0.57664 0.16876 0.49621 0.07000
C 	C 	0.56683 0.46789 0.50996 0.00600
H 	H 	0.55907 0.42498 0.45480 0.07200
C 	C 	0.59159 0.94254 0.02113 0.02800
H 	H 	0.56297 0.86512 0.94419 0.07600
C 	C 	0.51724 0.42068 0.04813 0.00500
H 	H 	0.57935 0.56262 0.04301 0.05100
C 	C 	0.57870 0.50296 0.03545 -0.09300
H 	H 	0.45276 0.26385 0.07878 0.07400
H 	H 	0.49598 0.21258 0.05396 0.06600
O 	O 	0.57418 0.13537 0.95040 -0.39200
O 	O 	0.59517 0.42563 0.90136 -0.35700
C 	C 	0.58854 0.90923 0.18265 -0.07800
C 	C 	0.57151 0.89923 0.21296 0.12500
C 	C 	0.57716 0.73730 0.36598 -0.08800
C 	C 	0.57874 0.74749 0.33533 0.12800
C 	C 	0.60485 0.36589 0.53547 -0.02100
C 	C 	0.59666 0.55540 0.49572 0.00300
C 	C 	0.60072 0.56389 0.46482 0.03500
C 	C 	0.60658 0.64076 0.45221 -0.02000
C 	C 	0.58908 0.69866 0.46937 -0.10000
C 	C 	0.60438 0.70024 0.49983 0.10400
C 	C 	0.60641 0.62737 0.51300 -0.08900
C 	C 	0.59861 0.49235 0.44514 -0.18200
C 	C 	0.60237 0.77094 0.51878 -0.20800
H 	H 	0.60842 0.62356 0.53669 0.06100
C 	C 	0.60870 0.91222 0.04779 -0.01300
H 	H 	0.59825 0.07008 0.02490 0.07000
C 	C 	0.52717 0.34572 0.04149 0.03000
C 	C 	0.52227 0.44002 0.11271 -0.18100
H 	H 	0.65395 0.59495 0.97586 0.08500
H 	H 	0.50640 0.42975 0.13649 0.07600
H 	H 	0.54866 0.39457 0.10604 0.07400
C 	C 	0.63872 0.05824 0.52473 -0.09200
H 	H 	0.60764 0.64633 0.42859 0.05300
C 	C 	0.62969 0.41252 0.96953 0.29000
O 	O 	0.65096 0.29348 0.92811 -0.70900
H 	H 	0.64214 0.28431 0.94936 0.16500
Ni	Ni	0.62510 0.39713 0.63772 1.13600
O 	O 	0.64676 0.20959 0.58170 -0.40000
O 	O 	0.63498 0.13258 0.63737 -0.37100
C 	C 	0.65477 0.04334 0.58403 -0.01500
H 	H 	0.66661 0.03094 0.60643 0.06700
H 	H 	0.63620 0.05908 0.50099 0.06100
C 	C 	0.63144 0.43879 0.51665 0.03100
H 	H 	0.65515 0.34533 0.54148 0.03700
H 	H 	0.62969 0.83465 0.50666 0.08500
H 	H 	0.64631 0.78351 0.53866 0.08000
H 	H 	0.61837 0.06114 0.70668 0.07700
Br	Br	0.62431 0.53389 0.67373 -0.29400
C 	C 	0.63853 0.04083 0.01491 -0.17400
H 	H 	0.64909 0.95974 0.06484 0.04100
H 	H 	0.64397 0.05312 0.99092 0.08000
C 	C 	0.58875 0.35202 0.01919 -0.01500
C 	C 	0.63058 0.42799 0.00134 -0.10500
C 	C 	0.63507 0.50712 0.01176 0.10400
H 	H 	0.57784 0.50989 0.10934 0.06900
Br	Br	0.62659 0.44590 0.82023 -0.18300
Ni	Ni	0.66071 0.19195 0.91688 1.12200
C 	C 	0.69167 0.59373 0.99592 -0.21000
C 	C 	0.67631 0.46896 0.88831 0.32600
O 	O 	0.66778 0.31930 0.62404 -0.71100
H 	H 	0.67856 0.33955 0.60362 0.15800
H 	H 	0.63101 0.90993 0.25585 0.07500
H 	H 	0.59194 0.29298 0.01266 0.03600
H 	H 	0.70466 0.65144 0.01003 0.07600
O 	O 	0.67227 0.39292 0.67776 -0.36200
C 	C 	0.64490 0.92075 0.23259 -0.03100
C 	C 	0.65926 0.78925 0.38211 -0.04100
C 	C 	0.65661 0.81704 0.32185 -0.03400
H 	H 	0.65945 0.78213 0.40562 0.06800
H 	H 	0.65645 0.82556 0.29834 0.07200
H 	H 	0.67085 0.50730 0.44058 0.07300
C 	C 	0.68513 0.06749 0.70102 -0.03100
Br	Br	0.67751 0.00093 0.75922 -0.21700
C 	C 	0.70329 0.55275 0.87285 -0.08600
C 	C 	0.72261 0.20329 0.58351 0.30200
C 	C 	0.69632 0.16332 0.65923 0.31800
C 	C 	0.68081 0.95481 0.17276 -0.03100
C 	C 	0.71757 0.12292 0.57051 -0.09000
C 	C 	0.72030 0.11948 0.53977 0.10400
C 	C 	0.70227 0.55325 0.84201 0.13300
O 	O 	0.73537 0.43957 0.88956 -0.36600
O 	O 	0.70630 0.45874 0.95328 -0.37400
O 	O 	0.72848 0.25331 0.88103 -0.37800
H 	H 	0.71018 0.07503 0.02420 0.07200
H 	H 	0.75589 0.63364 0.91193 0.05900
H 	H 	0.69473 0.96524 0.14949 0.06900
C 	C 	0.72625 0.10527 0.67410 -0.08400
C 	C 	0.72807 0.48450 0.50412 -0.17700
H 	H 	0.72650 0.46022 0.48149 0.06500
H 	H 	0.70842 0.67636 0.71723 0.07700
C 	C 	0.75487 0.63343 0.88817 -0.03200
H 	H 	0.76034 0.60161 0.98969 0.08800
O 	O 	0.73709 0.24712 0.66654 -0.36600
C 	C 	0.73364 0.04577 0.72183 0.12900
O 	O 	0.75099 0.50832 0.62564 -0.34900
C 	C 	0.72786 0.57023 0.70024 0.13600
C 	C 	0.73498 0.87478 0.33858 -0.08200
C 	C 	0.73728 0.85859 0.36868 0.12300
H 	H 	0.75829 0.55796 0.50412 0.06900
H 	H 	0.22480 0.50860 0.98831 0.06300
H 	H 	0.01210 0.35176 0.91216 0.10100
Br	Br	0.01341 0.74621 0.25206 -0.22300
C 	C 	0.73608 0.95599 0.22227 -0.07300
C 	C 	0.04809 0.47684 0.99531 -0.00500
H 	H 	0.06684 0.47681 0.05494 0.07000
O 	O 	0.01219 0.12121 0.80827 -0.39000
C 	C 	0.75464 0.97739 0.19241 0.11800
H 	H 	0.78431 0.24612 0.51823 0.07200
C 	C 	0.75913 0.44703 0.68331 0.32200
C 	C 	0.75076 0.64422 0.71809 -0.03200
C 	C 	0.75907 0.63195 0.82686 -0.03400
Ni	Ni	0.76659 0.40142 0.92758 1.12100
H 	H 	0.77486 0.46919 0.51743 0.06300
C 	C 	0.01500 0.32099 0.93313 -0.27500
O 	O 	0.78902 0.25124 0.60318 -0.34400
O 	O 	0.77781 0.22447 0.94224 -0.38400
Ni	Ni	0.78831 0.34256 0.63465 1.11800
C 	C 	0.79990 0.19175 0.52324 -0.21000
H 	H 	0.75959 0.63123 0.80310 0.08200
H 	H 	0.81126 0.16508 0.50239 0.08100
C 	C 	0.78417 0.52864 0.70073 -0.08900
O 	O 	0.79804 0.35557 0.96317 -0.39900
C 	C 	0.81203 0.71237 0.87303 0.12100
C 	C 	0.81232 0.98066 0.24331 0.29900
O 	O 	0.81512 0.91597 0.25877 -0.36900
C 	C 	0.81725 0.30552 0.88279 0.33100
C 	C 	0.81783 0.51105 0.60803 0.29200
O 	O 	0.80921 0.78398 0.76616 -0.36000
C 	C 	0.81977 0.94054 0.32359 0.32100
O 	O 	0.82005 0.00739 0.30943 -0.36100
C 	C 	0.81302 0.11173 0.66704 0.12100
C 	C 	0.81602 0.71122 0.84221 -0.06500
C 	C 	0.82059 0.29249 0.96122 0.31300
O 	O 	0.82259 0.44175 0.66724 -0.36600
O 	O 	0.83054 0.44198 0.60442 -0.38000
C 	C 	0.82398 0.06081 0.71558 -0.08200
H 	H 	0.83430 0.16771 0.90239 0.05100
H 	H 	0.00240 0.72918 0.03605 0.07400
Br	Br	0.84410 0.93407 0.39228 -0.18300
C 	C 	0.83127 0.68105 0.73530 -0.08300
H 	H 	0.84027 0.60973 0.55732 0.04000
O 	O 	0.85061 0.36854 0.90326 -0.36800
Ni	Ni	0.84641 0.90994 0.78420 1.12000
O 	O 	0.84876 0.85371 0.82385 -0.34700
O 	O 	0.84397 0.95195 0.74219 -0.36500
Br	Br	0.85808 0.02103 0.87879 -0.20500
O 	O 	0.85201 0.02595 0.80265 -0.33600
O 	O 	0.86020 0.06556 0.25131 -0.36200
H 	H 	0.86512 0.21938 0.53641 0.08800
C 	C 	0.86426 0.19035 0.88102 -0.04100
H 	H 	0.86359 0.28325 0.01941 0.03700
C 	C 	0.86197 0.09192 0.68802 -0.02900
Br	Br	0.86474 0.14269 0.62870 -0.23500
C 	C 	0.86287 0.56365 0.71895 -0.02900
C 	C 	0.86403 0.76933 0.74876 0.31900
C 	C 	0.87589 0.27156 0.87012 -0.09100
C 	C 	0.87543 0.79297 0.82566 0.30900
C 	C 	0.87518 0.03588 0.73656 0.32600
Br	Br	0.87972 0.03297 0.17786 -0.20800
C 	C 	0.87955 0.13280 0.86320 0.12400
O 	O 	0.88534 0.92069 0.31903 -0.36800
C 	C 	0.88645 0.63899 0.73633 0.12800
Br	Br	0.99164 0.68035 0.76231 -0.22900
H 	H 	0.98523 0.59018 0.01167 0.07300
O 	O 	0.99958 0.13784 0.32755 -0.34600
O 	O 	0.99939 0.04686 0.27585 -0.71200
H 	H 	0.99862 0.05453 0.25446 0.17800
H 	H 	0.99201 0.43340 0.47033 0.10300
O 	O 	0.98799 0.91932 0.24010 -0.34700
C 	C 	0.98954 0.63956 0.64567 -0.19600
Br	Br	0.88968 0.81891 0.89493 -0.18600
C 	C 	0.92490 0.09631 0.81522 0.32900
O 	O 	0.93966 0.79281 0.80773 -0.33500
O 	O 	0.94720 0.09824 0.75109 -0.35900
O 	O 	0.94966 0.83121 0.74482 -0.36300
O 	O 	0.97624 0.96298 0.78579 -0.71400
H 	H 	0.98663 0.97398 0.80706 0.18200
Ni	Ni	0.93334 0.10510 0.28858 1.12700
Ni	Ni	0.92983 0.92116 0.27855 1.12800
C 	C 	0.97445 0.61718 0.55234 0.04700
C 	C 	0.90026 0.61403 0.56863 -0.02100
C 	C 	0.89527 0.59667 0.59874 -0.09700
C 	C 	0.98059 0.62335 0.61315 0.11900
C 	C 	0.97489 0.62578 0.51948 -0.16600
H 	H 	0.96692 0.44668 0.53728 0.07400
H 	H 	0.98752 0.58181 0.65703 0.09100
H 	H 	0.93261 0.65023 0.65411 0.09800
H 	H 	0.93099 0.55961 0.50925 0.06500
H 	H 	0.94790 0.67101 0.51301 0.06800
H 	H 	0.96350 0.34737 0.49728 0.09300
H 	H 	0.92929 0.09917 0.68259 0.07400
H 	H 	0.90542 0.53176 0.71989 0.07600
C 	C 	0.98791 0.41175 0.01561 0.04100
C 	C 	0.91835 0.32837 0.00493 -0.00600
C 	C 	0.90967 0.31179 0.97463 -0.12800
C 	C 	0.98975 0.36223 0.95786 0.16200
C 	C 	0.99375 0.43199 0.04796 -0.16600
H 	H 	0.96740 0.36991 0.06095 0.07600
H 	H 	0.95112 0.46391 0.05310 0.07500
H 	H 	0.96824 0.24789 0.93230 0.11800
C 	C 	0.92834 0.24062 0.82394 -0.02600
C 	C 	0.90802 0.15614 0.83415 -0.07300
C 	C 	0.91275 0.29844 0.84186 0.13000
Br	Br	0.93541 0.41089 0.82662 -0.18600
H 	H 	0.95436 0.26066 0.80190 0.07800
