data_crystal

_cell_length_a 26.10111
_cell_length_b 26.42132
_cell_length_c 35.41712
_cell_angle_alpha 95.47452
_cell_angle_beta  95.47394
_cell_angle_gamma 125.85526

_symmetry_space_group_name_	'P 1'
_symmetry_space_group_name_H-M	'P 1'

loop_
_symmetry_equiv_pos_as_xyz
  x,y,z

loop_
_atom_site_label
_atom_site_type_symbol
_atom_site_fract_x
_atom_site_fract_y
_atom_site_fract_z
_atom_site_charge
C 	C 	0.99278 0.03011 0.00267 0.26100
N 	N 	0.05543 0.06594 0.99863 -0.09300
C 	C 	0.08639 0.03903 0.99575 0.28300
N 	N 	0.05449 0.97626 0.99639 -0.09000
C 	C 	0.99223 0.94049 0.00092 0.26700
N 	N 	0.96144 0.96754 0.00421 -0.09300
C 	C 	0.90176 0.99447 0.45212 0.30000
N 	N 	0.96694 0.03056 0.45684 -0.11500
C 	C 	0.99757 0.00366 0.46215 0.26000
N 	N 	0.96298 0.94051 0.46239 -0.10500
C 	C 	0.89786 0.90413 0.45752 0.28800
N 	N 	0.86716 0.93116 0.45259 -0.10700
Cu	Cu	0.65867 0.23898 0.00372 0.94100
Cu	Cu	0.71002 0.23991 0.92249 0.90200
Cu	Cu	0.71107 0.34688 0.95792 0.91200
Cu	Cu	0.67465 0.36422 0.03320 0.92600
C 	C 	0.68041 0.28432 0.08514 0.33300
O 	O 	0.56705 0.20968 0.00189 -0.31200
C 	C 	0.68953 0.30779 0.87302 0.33600
O 	O 	0.72045 0.33886 0.01074 -0.63900
O 	O 	0.65609 0.25190 0.94962 -0.63100
O 	O 	0.68979 0.18585 0.99959 -0.31700
O 	O 	0.76616 0.24976 0.96565 -0.38900
O 	O 	0.65835 0.31684 0.07670 -0.34200
O 	O 	0.76845 0.43875 0.96996 -0.32600
C 	C 	0.76349 0.47426 0.99600 0.39400
C 	C 	0.54898 0.24342 0.98981 0.38800
O 	O 	0.59256 0.30242 0.98669 -0.34600
O 	O 	0.71837 0.44880 0.01736 -0.32200
O 	O 	0.67510 0.24234 0.05824 -0.32500
C 	C 	0.74441 0.20738 0.98812 0.39800
O 	O 	0.71515 0.35459 0.90310 -0.34000
O 	O 	0.67635 0.25237 0.87710 -0.38300
H 	H 	0.76554 0.36146 0.02404 0.20400
H 	H 	0.61255 0.23115 0.93437 0.21100
Cu	Cu	0.69840 0.33271 0.44582 0.94000
Cu	Cu	0.71026 0.28564 0.52651 0.90200
Cu	Cu	0.60295 0.29184 0.50113 0.91200
Cu	Cu	0.57330 0.32421 0.42736 0.92800
C 	C 	0.64031 0.31196 0.36673 0.33500
O 	O 	0.73228 0.42478 0.44739 -0.31500
C 	C 	0.65724 0.31389 0.58405 0.33700
O 	O 	0.59909 0.27705 0.44659 -0.63800
O 	O 	0.69752 0.34058 0.50191 -0.63000
O 	O 	0.74719 0.29608 0.44390 -0.32000
O 	O 	0.68851 0.22592 0.48211 -0.39100
O 	O 	0.61042 0.33505 0.37936 -0.33800
O 	O 	0.51028 0.23997 0.49628 -0.33300
C 	C 	0.47164 0.24537 0.47307 0.40500
C 	C 	0.70332 0.44684 0.46247 0.38900
O 	O 	0.64612 0.40711 0.47059 -0.34300
O 	O 	0.49357 0.28702 0.44971 -0.32300
O 	O 	0.68273 0.31194 0.39051 -0.33400
C 	C 	0.72624 0.24312 0.45659 0.39900
O 	O 	0.60662 0.29339 0.55738 -0.34800
O 	O 	0.70990 0.32433 0.57456 -0.38500
H 	H 	0.57226 0.23162 0.43416 0.21000
H 	H 	0.72311 0.38468 0.51658 0.21200
C 	C 	0.69118 0.32079 0.69083 0.03000
C 	C 	0.66138 0.34019 0.71271 -0.01800
C 	C 	0.65150 0.32524 0.74948 -0.01800
C 	C 	0.67171 0.29114 0.76467 0.03100
C 	C 	0.70124 0.27171 0.74271 -0.02000
C 	C 	0.71158 0.28708 0.70617 -0.02000
C 	C 	0.66002 0.27342 0.80290 0.02700
C 	C 	0.68324 0.32004 0.83594 -0.14100
C 	C 	0.70317 0.33724 0.65236 0.02700
C 	C 	0.65229 0.31910 0.62301 -0.14200
H 	H 	0.64627 0.36707 0.70136 0.08200
H 	H 	0.62781 0.33972 0.76598 0.08200
H 	H 	0.71662 0.24506 0.75409 0.07600
H 	H 	0.73496 0.27226 0.68960 0.07500
H 	H 	0.64068 0.22498 0.80580 0.07100
H 	H 	0.70020 0.36776 0.83271 0.12500
H 	H 	0.75013 0.35540 0.64551 0.07000
H 	H 	0.60655 0.30442 0.63042 0.11900
C 	C 	0.70399 0.32285 0.19358 0.03600
C 	C 	0.68466 0.35387 0.21548 -0.01600
C 	C 	0.67873 0.34715 0.25376 -0.01600
C 	C 	0.69034 0.30774 0.27043 0.03600
C 	C 	0.71177 0.27832 0.24902 -0.01600
C 	C 	0.71926 0.28634 0.21088 -0.01600
C 	C 	0.68393 0.30032 0.31110 0.03000
C 	C 	0.63623 0.29967 0.32688 -0.13300
C 	C 	0.71132 0.33218 0.15328 0.03000
C 	C 	0.69450 0.28264 0.12385 -0.13300
H 	H 	0.67460 0.38365 0.20285 0.08700
H 	H 	0.66602 0.37336 0.27059 0.08300
H 	H 	0.72300 0.24959 0.26196 0.08700
H 	H 	0.73810 0.26529 0.19524 0.08100
H 	H 	0.71758 0.29666 0.32886 0.08100
H 	H 	0.59880 0.29642 0.30784 0.11500
H 	H 	0.72214 0.37598 0.14564 0.06900
H 	H 	0.69226 0.24242 0.13100 0.12000
C 	C 	0.71394 0.59268 0.44858 0.23800
C 	C 	0.77941 0.64137 0.46291 0.00800
C 	C 	0.81969 0.62631 0.47806 0.23700
C 	C 	0.79479 0.56283 0.47834 0.32100
C 	C 	0.72935 0.51396 0.46358 -0.20300
C 	C 	0.68898 0.52928 0.44884 0.32000
C 	C 	0.80645 0.70781 0.46024 -0.00100
F 	F 	0.88302 0.67319 0.49225 -0.32100
F 	F 	0.62600 0.48252 0.43362 -0.37200
C 	C 	0.79834 0.74407 0.48717 0.25400
C 	C 	0.82533 0.80754 0.48508 0.30800
C 	C 	0.86084 0.83520 0.45615 -0.14100
C 	C 	0.86711 0.79823 0.42851 0.30500
C 	C 	0.83999 0.73482 0.43054 0.25200
F 	F 	0.76529 0.71812 0.51573 -0.31700
F 	F 	0.90032 0.82414 0.39999 -0.33400
F 	F 	0.81901 0.84281 0.51198 -0.32300
F 	F 	0.84677 0.69969 0.40384 -0.32400
F 	F 	0.67477 0.60676 0.43363 -0.31700
F 	F 	0.83409 0.54885 0.49320 -0.36200
C 	C 	0.80719 0.05780 0.47073 0.25100
C 	C 	0.81831 0.09290 0.44107 -0.00400
C 	C 	0.85320 0.09194 0.41355 0.25300
C 	C 	0.87860 0.05791 0.41638 0.30600
C 	C 	0.86892 0.02415 0.44663 -0.15100
C 	C 	0.83215 0.02334 0.47339 0.29800
C 	C 	0.79544 0.13251 0.43976 0.00600
F 	F 	0.86309 0.12461 0.38432 -0.31900
F 	F 	0.82263 0.99109 0.50280 -0.32100
C 	C 	0.83925 0.19894 0.45100 0.23300
C 	C 	0.81693 0.23590 0.45376 0.31500
C 	C 	0.75055 0.20666 0.44568 -0.21200
C 	C 	0.70705 0.14059 0.43252 0.31900
C 	C 	0.72943 0.10371 0.42944 0.23500
F 	F 	0.90325 0.22738 0.46065 -0.32300
F 	F 	0.64292 0.11196 0.42366 -0.36200
F 	F 	0.85952 0.29972 0.46634 -0.36500
F 	F 	0.68684 0.03978 0.41739 -0.32000
F 	F 	0.77354 0.05841 0.49751 -0.32900
F 	F 	0.91302 0.05805 0.38990 -0.32700
C 	C 	0.29708 0.11083 0.46895 0.23800
C 	C 	0.27174 0.14438 0.47669 0.00900
C 	C 	0.31305 0.21104 0.48596 0.23900
C 	C 	0.37885 0.24403 0.48606 0.32500
C 	C 	0.40393 0.21058 0.47709 -0.20200
C 	C 	0.36303 0.14384 0.46932 0.32200
C 	C 	0.20171 0.10988 0.47357 -0.00400
F 	F 	0.28917 0.24379 0.49434 -0.31400
F 	F 	0.38684 0.11106 0.46077 -0.36000
C 	C 	0.17094 0.07723 0.50269 0.25700
C 	C 	0.10433 0.04354 0.49934 0.30000
C 	C 	0.06804 0.04252 0.46690 -0.11900
C 	C 	0.09902 0.07612 0.43809 0.30300
C 	C 	0.16557 0.10950 0.44135 0.25700
F 	F 	0.20565 0.07813 0.53421 -0.31900
F 	F 	0.06435 0.07493 0.40642 -0.31300
F 	F 	0.07502 0.01209 0.52768 -0.32900
F 	F 	0.19494 0.14083 0.41299 -0.31500
F 	F 	0.25752 0.04633 0.46017 -0.31600
F 	F 	0.41830 0.30855 0.49468 -0.34700
C 	C 	0.86447 0.76246 0.98302 0.25600
C 	C 	0.89829 0.74270 0.00145 -0.00700
C 	C 	0.96190 0.78815 0.02115 0.25900
C 	C 	0.99158 0.85283 0.02237 0.28500
C 	C 	0.95862 0.87267 0.00277 -0.12900
C 	C 	0.89468 0.82708 0.98327 0.30100
C 	C 	0.86696 0.67443 0.00032 0.00800
F 	F 	0.99504 0.76950 0.03898 -0.31900
F 	F 	0.86247 0.84525 0.96369 -0.33100
C 	C 	0.85092 0.63423 0.96529 0.23700
C 	C 	0.81860 0.56903 0.96388 0.32100
C 	C 	0.80337 0.54365 0.99780 -0.19600
C 	C 	0.82218 0.58457 0.03315 0.32000
C 	C 	0.85284 0.64940 0.03427 0.23900
F 	F 	0.86594 0.65834 0.93249 -0.32300
F 	F 	0.81047 0.56135 0.06641 -0.36300
F 	F 	0.80021 0.53029 0.92940 -0.36100
F 	F 	0.86825 0.68791 0.06830 -0.31400
F 	F 	0.80242 0.71890 0.96462 -0.31700
F 	F 	0.05230 0.89632 0.04278 -0.30300
C 	C 	0.92146 0.11449 0.97610 0.25200
C 	C 	0.88853 0.10840 0.00650 -0.00500
C 	C 	0.89121 0.07793 0.03616 0.25500
C 	C 	0.92598 0.05303 0.03520 0.30200
C 	C 	0.95849 0.05863 0.00459 -0.13500
C 	C 	0.95641 0.08984 0.97518 0.30200
C 	C 	0.85044 0.13310 0.00686 0.00700
F 	F 	0.86006 0.07242 0.06588 -0.31900
F 	F 	0.98689 0.09479 0.94519 -0.33100
C 	C 	0.78330 0.09144 0.99496 0.23600
C 	C 	0.74792 0.11553 0.99092 0.31900
C 	C 	0.77957 0.18151 0.99852 -0.21000
C 	C 	0.84635 0.22292 0.01228 0.31900
C 	C 	0.88161 0.19878 0.01649 0.23500
F 	F 	0.75267 0.02778 0.98600 -0.31900
F 	F 	0.87716 0.28664 0.02096 -0.36600
F 	F 	0.68338 0.07497 0.97778 -0.35800
F 	F 	0.94632 0.23927 0.02900 -0.32400
F 	F 	0.91881 0.14358 0.94718 -0.32900
F 	F 	0.92857 0.02395 0.06414 -0.33500
C 	C 	0.24211 0.13741 0.95939 0.25500
C 	C 	0.28423 0.13837 0.98777 -0.00200
C 	C 	0.26232 0.11119 0.02024 0.25200
C 	C 	0.19821 0.08135 0.02373 0.30600
C 	C 	0.15540 0.07837 0.99473 -0.13800
C 	C 	0.17784 0.10756 0.96289 0.30600
C 	C 	0.35117 0.16740 0.98351 0.00800
F 	F 	0.30311 0.11301 0.04816 -0.32400
F 	F 	0.13686 0.10506 0.93474 -0.32200
C 	C 	0.39968 0.23149 0.99978 0.23800
C 	C 	0.46429 0.25691 0.00081 0.31900
C 	C 	0.48090 0.21837 0.98533 -0.20400
C 	C 	0.43209 0.15490 0.96754 0.32100
C 	C 	0.36746 0.12952 0.96667 0.23700
F 	F 	0.38423 0.26850 0.01588 -0.32000
F 	F 	0.44733 0.11778 0.95132 -0.36200
F 	F 	0.51085 0.31817 0.01842 -0.37200
F 	F 	0.32065 0.06765 0.95039 -0.32100
F 	F 	0.26323 0.16444 0.92816 -0.31800
F 	F 	0.17728 0.05443 0.05504 -0.32200
