data_crystal

_cell_length_a 18.43063
_cell_length_b 18.75735
_cell_length_c 34.06205
_cell_angle_alpha 95.43755
_cell_angle_beta  95.43770
_cell_angle_gamma 126.41748

_symmetry_space_group_name_	'P 1'
_symmetry_space_group_name_H-M	'P 1'

loop_
_symmetry_equiv_pos_as_xyz
  x,y,z

loop_
_atom_site_label
_atom_site_type_symbol
_atom_site_fract_x
_atom_site_fract_y
_atom_site_fract_z
_atom_site_charge
C 	C 	0.91710 0.01324 0.96767 -0.10400
C 	C 	0.86807 0.92243 0.97174 0.14000
C 	C 	0.91058 0.88022 0.97017 -0.05400
C 	C 	0.00178 0.92909 0.96466 0.17500
C 	C 	0.05022 0.01927 0.96036 -0.08100
C 	C 	0.00788 0.06109 0.96190 0.11800
H 	H 	0.79777 0.88515 0.97632 0.08700
H 	H 	0.03503 0.89701 0.96384 0.09900
H 	H 	0.04642 0.13172 0.95968 0.08900
C 	C 	0.91850 0.00884 0.48875 -0.13100
C 	C 	0.87792 0.91934 0.49270 0.15900
C 	C 	0.93212 0.89019 0.49818 -0.06400
C 	C 	0.02607 0.94924 0.49762 0.18300
C 	C 	0.06586 0.03686 0.49100 -0.08900
C 	C 	0.01229 0.06719 0.48706 0.13200
H 	H 	0.80464 0.87292 0.49195 0.08800
H 	H 	0.06807 0.92677 0.50199 0.08800
H 	H 	0.04332 0.13559 0.48274 0.08500
Cu	Cu	0.77993 0.36387 0.96341 0.93300
Cu	Cu	0.76354 0.31314 0.05332 0.91600
Cu	Cu	0.61503 0.29959 0.00323 0.91600
Cu	Cu	0.59782 0.32100 0.91742 0.93100
C 	C 	0.73172 0.31600 0.87727 0.28600
O 	O 	0.81446 0.48666 0.95577 -0.31000
C 	C 	0.65437 0.34605 0.09252 0.28800
O 	O 	0.63584 0.27169 0.95182 -0.63800
O 	O 	0.75168 0.37940 0.01662 -0.63100
O 	O 	0.85553 0.32338 0.97909 -0.32400
O 	O 	0.75392 0.22618 0.01534 -0.36500
O 	O 	0.68110 0.34419 0.87874 -0.30600
O 	O 	0.48352 0.21593 0.98729 -0.32200
C 	C 	0.43549 0.22054 0.95781 0.31200
C 	C 	0.75890 0.50784 0.96110 0.28900
O 	O 	0.67224 0.44431 0.96169 -0.31600
O 	O 	0.46750 0.24805 0.92479 -0.32600
O 	O 	0.78582 0.32848 0.90982 -0.33100
C 	C 	0.81946 0.25047 0.99493 0.30100
O 	O 	0.59423 0.31188 0.05851 -0.30000
O 	O 	0.73701 0.36811 0.09334 -0.36300
H 	H 	0.60713 0.20707 0.94281 0.18800
H 	H 	0.77891 0.44223 0.02891 0.20100
Cu	Cu	0.58950 0.17989 0.50224 0.93500
Cu	Cu	0.64807 0.19977 0.41378 0.91400
Cu	Cu	0.63241 0.33233 0.46048 0.91600
Cu	Cu	0.64280 0.36392 0.54938 0.93200
C 	C 	0.64126 0.22839 0.58830 0.29100
O 	O 	0.46913 0.15451 0.51197 -0.31800
C 	C 	0.60831 0.30290 0.37307 0.29200
O 	O 	0.68152 0.32122 0.51081 -0.63200
O 	O 	0.57008 0.20057 0.44800 -0.63200
O 	O 	0.62178 0.09829 0.48646 -0.32400
O 	O 	0.72774 0.19702 0.45204 -0.36600
O 	O 	0.61326 0.27844 0.58661 -0.31400
O 	O 	0.68316 0.45914 0.47416 -0.29900
C 	C 	0.74038 0.51582 0.50738 0.31100
C 	C 	0.44927 0.21029 0.50583 0.29000
O 	O 	0.51515 0.29641 0.50707 -0.33000
O 	O 	0.73266 0.48914 0.54220 -0.33300
O 	O 	0.63097 0.17737 0.55562 -0.33500
C 	C 	0.69492 0.12834 0.47047 0.31300
O 	O 	0.59814 0.33856 0.40545 -0.31400
O 	O 	0.59727 0.22640 0.37110 -0.36100
H 	H 	0.74821 0.35083 0.51503 0.20100
H 	H 	0.50488 0.16511 0.43480 0.19700
C 	C 	0.76928 0.24091 0.68554 -0.02300
C 	C 	0.70428 0.21901 0.71037 0.02900
C 	C 	0.61299 0.18036 0.69276 -0.02400
C 	C 	0.58960 0.17169 0.65111 0.03600
C 	C 	0.65889 0.20967 0.62781 -0.05200
C 	C 	0.74792 0.24020 0.64454 0.02900
C 	C 	0.73438 0.24749 0.75495 0.03000
C 	C 	0.54432 0.15319 0.71770 0.13100
C 	C 	0.81851 0.27533 0.62023 0.12100
C 	C 	0.78204 0.33888 0.77288 -0.02300
C 	C 	0.79252 0.36277 0.81460 0.03700
C 	C 	0.74777 0.29485 0.83767 -0.04900
C 	C 	0.70802 0.20486 0.82063 0.02800
C 	C 	0.70519 0.18205 0.77952 -0.02200
C 	C 	0.81670 0.40753 0.74820 0.13400
C 	C 	0.66585 0.13532 0.84476 0.11800
C 	C 	0.85012 0.45696 0.83392 0.14700
C 	C 	0.67025 0.09119 0.76227 0.13800
C 	C 	0.85847 0.26626 0.70245 0.14000
C 	C 	0.49439 0.12307 0.63211 0.14000
N 	N 	0.89634 0.53217 0.84933 -0.04200
N 	N 	0.84431 0.46224 0.72847 -0.06800
N 	N 	0.63197 0.07987 0.86404 -0.07200
N 	N 	0.64234 0.01865 0.74846 -0.06500
N 	N 	0.48959 0.13155 0.73763 -0.07200
N 	N 	0.41837 0.08410 0.61694 -0.05000
N 	N 	0.87492 0.30364 0.60086 -0.06300
N 	N 	0.92967 0.28652 0.71598 -0.05900
C 	C 	0.56260 0.27441 0.18721 -0.02200
C 	C 	0.60336 0.35904 0.21162 0.03000
C 	C 	0.64478 0.43694 0.19428 -0.02000
C 	C 	0.65673 0.43212 0.15405 0.03600
C 	C 	0.62440 0.34884 0.13093 -0.03700
C 	C 	0.57189 0.26923 0.14667 0.03400
C 	C 	0.61245 0.36730 0.25615 0.03000
C 	C 	0.67673 0.52203 0.21811 0.14000
C 	C 	0.52963 0.18230 0.12143 0.12700
C 	C 	0.69353 0.39070 0.27956 -0.02200
C 	C 	0.69486 0.37816 0.31967 0.03500
C 	C 	0.61431 0.33916 0.33588 -0.04000
C 	C 	0.53646 0.32494 0.31395 0.03500
C 	C 	0.53638 0.34094 0.27428 -0.02200
C 	C 	0.77436 0.42459 0.26189 0.13000
C 	C 	0.45569 0.29106 0.33164 0.12900
C 	C 	0.77866 0.40413 0.34416 0.13100
C 	C 	0.45746 0.32814 0.25176 0.13600
C 	C 	0.51396 0.19322 0.20422 0.12600
C 	C 	0.70292 0.51269 0.13656 0.13200
N 	N 	0.84550 0.42487 0.36373 -0.05500
N 	N 	0.83878 0.45163 0.24775 -0.07100
N 	N 	0.39123 0.26399 0.34577 -0.05500
N 	N 	0.39449 0.31792 0.23374 -0.05700
N 	N 	0.70223 0.58992 0.23717 -0.05500
N 	N 	0.73979 0.57694 0.12257 -0.04700
N 	N 	0.49591 0.11297 0.10126 -0.07400
N 	N 	0.47519 0.12851 0.21786 -0.07700
C 	C 	0.88462 0.73789 0.47153 -0.00700
C 	C 	0.88995 0.79628 0.50265 0.13300
C 	C 	0.85710 0.76506 0.53797 -0.13800
C 	C 	0.80728 0.67266 0.53869 0.09000
C 	C 	0.79995 0.61358 0.50710 -0.00500
C 	C 	0.84590 0.64830 0.47475 -0.05400
C 	C 	0.85243 0.59042 0.44317 0.77100
H 	H 	0.91160 0.76272 0.44492 0.12700
H 	H 	0.77269 0.64626 0.56354 0.10300
C 	C 	0.87030 0.82847 0.57406 0.79900
F 	F 	0.92698 0.64360 0.42499 -0.40700
F 	F 	0.77362 0.54079 0.41397 -0.43600
F 	F 	0.86363 0.53256 0.46013 -0.45300
F 	F 	0.80547 0.84323 0.56735 -0.37600
F 	F 	0.95731 0.91006 0.58108 -0.38100
F 	F 	0.86013 0.79199 0.60846 -0.38500
C 	C 	0.79574 0.10884 0.51353 0.10500
C 	C 	0.74426 0.08955 0.47570 -0.04300
C 	C 	0.74756 0.04100 0.44239 -0.00500
C 	C 	0.80875 0.01952 0.44699 -0.12500
C 	C 	0.86141 0.03998 0.48466 0.17300
C 	C 	0.85426 0.08406 0.51853 -0.16400
C 	C 	0.91204 0.10845 0.55950 0.77800
H 	H 	0.79189 0.14534 0.53881 0.07500
H 	H 	0.81505 0.98604 0.42131 0.19400
C 	C 	0.68830 0.01473 0.40164 0.65900
F 	F 	0.89038 0.14513 0.58905 -0.42000
F 	F 	0.00394 0.17103 0.55822 -0.38900
F 	F 	0.89763 0.03240 0.57032 -0.40100
F 	F 	0.72417 0.09003 0.38416 -0.44600
F 	F 	0.59935 0.97918 0.40575 -0.36300
F 	F 	0.68470 0.95021 0.37616 -0.34600
C 	C 	0.29376 0.12035 0.46388 0.08300
C 	C 	0.35310 0.17705 0.50009 -0.01200
C 	C 	0.31962 0.20007 0.53076 -0.05000
C 	C 	0.22537 0.16012 0.52544 -0.01100
C 	C 	0.16506 0.09811 0.49042 0.13800
C 	C 	0.20050 0.08391 0.45801 -0.14600
C 	C 	0.13827 0.02575 0.41796 0.75000
H 	H 	0.32021 0.10405 0.44040 0.06800
H 	H 	0.19781 0.17342 0.54935 0.14100
C 	C 	0.38402 0.26705 0.56900 0.77100
F 	F 	0.18830 0.04484 0.38747 -0.41500
F 	F 	0.07474 0.04120 0.40809 -0.42100
F 	F 	0.09254 0.93574 0.42010 -0.36300
F 	F 	0.44538 0.35136 0.55990 -0.42100
F 	F 	0.43201 0.23991 0.58706 -0.43400
F 	F 	0.33695 0.27434 0.59647 -0.39000
C 	C 	0.79944 0.72047 0.93588 0.00400
C 	C 	0.85782 0.78287 0.97111 0.12300
C 	C 	0.87665 0.75301 0.00452 -0.12200
C 	C 	0.84710 0.66363 0.99997 0.06800
C 	C 	0.79245 0.60215 0.96401 0.00200
C 	C 	0.76662 0.63008 0.93177 -0.05400
C 	C 	0.70479 0.56398 0.89298 0.77300
H 	H 	0.78302 0.74360 0.91101 0.14000
H 	H 	0.86599 0.64154 0.02455 0.08400
C 	C 	0.93138 0.81697 0.04448 0.76800
F 	F 	0.69548 0.60625 0.86390 -0.38800
F 	F 	0.61839 0.49878 0.90021 -0.43000
F 	F 	0.74126 0.52312 0.87782 -0.43300
F 	F 	0.90577 0.87193 0.05290 -0.40500
F 	F 	0.02395 0.86998 0.04314 -0.37900
F 	F 	0.91665 0.77001 0.07556 -0.40500
C 	C 	0.88887 0.10120 0.01341 -0.00800
C 	C 	0.87786 0.06195 0.97408 0.11900
C 	C 	0.84720 0.08473 0.94129 -0.14200
C 	C 	0.83476 0.15166 0.94864 0.08200
C 	C 	0.84861 0.19289 0.98803 -0.01900
C 	C 	0.87973 0.17026 0.02075 -0.05500
C 	C 	0.90212 0.21854 0.06356 0.76800
H 	H 	0.90989 0.08140 0.03830 0.11000
H 	H 	0.81264 0.17066 0.92378 0.07800
C 	C 	0.83177 0.04078 0.89844 0.75100
F 	F 	0.95828 0.20865 0.08848 -0.41100
F 	F 	0.82181 0.18290 0.07812 -0.44900
F 	F 	0.94766 0.31000 0.06506 -0.44400
F 	F 	0.78408 0.94867 0.89548 -0.35500
F 	F 	0.91552 0.07703 0.88709 -0.40600
F 	F 	0.78133 0.05444 0.87190 -0.42600
C 	C 	0.27281 0.11305 0.92331 0.08400
C 	C 	0.33730 0.17531 0.95761 -0.00500
C 	C 	0.30683 0.19131 0.99170 -0.05800
C 	C 	0.21274 0.13556 0.99262 -0.01000
C 	C 	0.14845 0.07308 0.95849 0.12900
C 	C 	0.17829 0.06496 0.92271 -0.13300
C 	C 	0.10980 0.00281 0.88437 0.74700
H 	H 	0.29648 0.10120 0.89732 0.09100
H 	H 	0.18906 0.14142 0.01983 0.12300
C 	C 	0.37378 0.26448 0.02792 0.77700
F 	F 	0.15234 0.01864 0.85141 -0.39800
F 	F 	0.04397 0.01624 0.87713 -0.38100
F 	F 	0.06742 0.91402 0.88795 -0.35700
F 	F 	0.44686 0.34015 0.01647 -0.42500
F 	F 	0.40612 0.23131 0.05288 -0.42700
F 	F 	0.33107 0.29130 0.04939 -0.40100
