data_crystal

_cell_length_a 18.43366
_cell_length_b 18.83634
_cell_length_c 39.95032
_cell_angle_alpha 95.43103
_cell_angle_beta  95.43120
_cell_angle_gamma 126.43060

_symmetry_space_group_name_	'P 1'
_symmetry_space_group_name_H-M	'P 1'

loop_
_symmetry_equiv_pos_as_xyz
  x,y,z

loop_
_atom_site_label
_atom_site_type_symbol
_atom_site_fract_x
_atom_site_fract_y
_atom_site_fract_z
_atom_site_charge
C 	C 	0.90037 0.98457 0.96448 0.18100
N 	N 	0.99045 0.03636 0.96218 -0.13900
C 	C 	0.03645 0.00095 0.96210 0.14600
N 	N 	0.99181 0.91286 0.96327 -0.12400
C 	C 	0.90142 0.86001 0.96503 0.15400
N 	N 	0.85566 0.89615 0.96628 -0.12900
C 	C 	0.93575 0.02396 0.49919 0.12500
N 	N 	0.02887 0.07703 0.50299 -0.12300
C 	C 	0.07197 0.03921 0.49866 0.13800
N 	N 	0.02266 0.94877 0.49157 -0.11700
C 	C 	0.93020 0.89554 0.48836 0.15100
N 	N 	0.88655 0.93317 0.49120 -0.10500
Cu	Cu	0.75837 0.33726 0.96618 0.93000
Cu	Cu	0.74390 0.26890 0.03959 0.88800
Cu	Cu	0.60653 0.28592 0.00660 0.90200
Cu	Cu	0.58882 0.32976 0.93773 0.90400
C 	C 	0.70657 0.31846 0.89372 0.29400
O 	O 	0.81091 0.46836 0.96562 -0.34800
C 	C 	0.66003 0.31836 0.08235 0.29300
O 	O 	0.61506 0.26176 0.95995 -0.63800
O 	O 	0.74190 0.34988 0.01403 -0.63900
O 	O 	0.82027 0.27868 0.97122 -0.35400
O 	O 	0.71878 0.18265 0.00237 -0.41900
O 	O 	0.66243 0.35173 0.90087 -0.37400
O 	O 	0.47449 0.21610 0.99670 -0.37300
C 	C 	0.42594 0.21558 0.97001 0.31600
C 	C 	0.76720 0.50019 0.97521 0.30100
O 	O 	0.68145 0.44413 0.97855 -0.37600
O 	O 	0.46516 0.27394 0.94943 -0.36800
O 	O 	0.74991 0.30648 0.91811 -0.35600
C 	C 	0.78079 0.20378 0.98345 0.30800
O 	O 	0.59607 0.29210 0.05544 -0.37200
O 	O 	0.73508 0.32671 0.07899 -0.40000
H 	H 	0.57694 0.19719 0.94951 0.17900
H 	H 	0.77813 0.41237 0.02682 0.19200
Cu	Cu	0.61151 0.20339 0.50944 0.93100
Cu	Cu	0.64241 0.18080 0.43077 0.87600
Cu	Cu	0.64704 0.33418 0.46195 0.90200
Cu	Cu	0.64102 0.38288 0.53452 0.90600
C 	C 	0.67401 0.28544 0.58090 0.29500
O 	O 	0.48666 0.16405 0.51786 -0.34400
C 	C 	0.59129 0.26168 0.38729 0.28700
O 	O 	0.69315 0.34166 0.50834 -0.63900
O 	O 	0.57869 0.20270 0.46089 -0.63900
O 	O 	0.65618 0.13058 0.50242 -0.36800
O 	O 	0.74106 0.20696 0.46337 -0.41200
O 	O 	0.63818 0.32754 0.57510 -0.36100
O 	O 	0.72191 0.46300 0.46501 -0.37300
C 	C 	0.73622 0.52124 0.49108 0.31600
C 	C 	0.45412 0.20650 0.50820 0.30400
O 	O 	0.50941 0.28693 0.50120 -0.38600
O 	O 	0.69076 0.49526 0.51655 -0.36800
O 	O 	0.66296 0.22528 0.55663 -0.35100
C 	C 	0.72680 0.15915 0.48731 0.30600
O 	O 	0.61054 0.32422 0.41275 -0.37000
O 	O 	0.57513 0.18604 0.39298 -0.40900
H 	H 	0.76074 0.37722 0.51441 0.18400
H 	H 	0.51207 0.16718 0.45186 0.17900
C 	C 	0.70512 0.28853 0.61669 -0.07300
C 	C 	0.76032 0.37095 0.63974 0.02300
C 	C 	0.77623 0.37297 0.67485 -0.06000
C 	C 	0.73687 0.29267 0.68719 0.04700
C 	C 	0.68635 0.21064 0.66410 -0.06000
C 	C 	0.67067 0.20851 0.62892 0.02700
C 	C 	0.73903 0.29394 0.72339 -0.00800
C 	C 	0.74238 0.29791 0.75386 -0.00900
C 	C 	0.74490 0.30602 0.79023 0.04700
C 	C 	0.71269 0.23129 0.80587 -0.06200
C 	C 	0.70397 0.23639 0.84030 0.02300
C 	C 	0.72640 0.31592 0.85905 -0.07800
C 	C 	0.76212 0.39160 0.84370 0.02600
C 	C 	0.77148 0.38666 0.80946 -0.06200
H 	H 	0.78823 0.43319 0.63056 0.04100
H 	H 	0.81608 0.43673 0.69254 0.06200
H 	H 	0.65619 0.14829 0.67345 0.06200
H 	H 	0.62817 0.14444 0.61139 0.05200
H 	H 	0.69225 0.16874 0.79118 0.06100
H 	H 	0.67699 0.17781 0.85202 0.04000
H 	H 	0.78094 0.45374 0.85813 0.04700
H 	H 	0.79691 0.44482 0.79760 0.06400
C 	C 	0.64259 0.32916 0.11708 -0.07900
C 	C 	0.71653 0.38730 0.14450 0.02200
C 	C 	0.70143 0.38639 0.17816 -0.06300
C 	C 	0.61243 0.32767 0.18467 0.04500
C 	C 	0.53789 0.27358 0.15731 -0.06300
C 	C 	0.55279 0.27444 0.12360 0.02000
C 	C 	0.59886 0.31646 0.21926 -0.01200
C 	C 	0.58867 0.30788 0.24836 -0.01200
C 	C 	0.57852 0.29659 0.28319 0.04400
C 	C 	0.62953 0.37173 0.30979 -0.06300
C 	C 	0.63012 0.36041 0.34390 0.01900
C 	C 	0.57993 0.27364 0.35163 -0.08200
C 	C 	0.52521 0.19853 0.32487 0.01900
C 	C 	0.52472 0.21008 0.29080 -0.06500
H 	H 	0.78592 0.43131 0.13981 0.04600
H 	H 	0.75929 0.42920 0.19919 0.05900
H 	H 	0.46877 0.22856 0.16215 0.06000
H 	H 	0.49498 0.22971 0.10272 0.04700
H 	H 	0.67100 0.43885 0.30409 0.06100
H 	H 	0.67233 0.41900 0.36422 0.04700
H 	H 	0.48460 0.13123 0.33040 0.04000
H 	H 	0.48454 0.15167 0.27034 0.05600
C 	C 	0.90735 0.77273 0.51546 -0.06200
C 	C 	0.88046 0.79946 0.48841 -0.01400
C 	C 	0.80987 0.73427 0.46095 0.10100
C 	C 	0.76544 0.64307 0.46128 -0.01600
C 	C 	0.79113 0.61647 0.48878 -0.09200
C 	C 	0.86370 0.68184 0.51561 0.14200
Br	Br	0.90629 0.64827 0.55213 -0.23600
H 	H 	0.96270 0.82288 0.53637 0.08500
H 	H 	0.70978 0.59283 0.44049 0.07000
Br	Br	0.77488 0.76836 0.42244 -0.19700
C 	C 	0.92555 0.14750 0.49066 -0.07100
C 	C 	0.88798 0.06520 0.50138 -0.00900
C 	C 	0.80347 0.02175 0.51288 0.08200
C 	C 	0.75187 0.05358 0.50862 -0.01700
C 	C 	0.78696 0.13290 0.49578 -0.09800
C 	C 	0.87765 0.18362 0.48947 0.14000
Br	Br	0.94214 0.30639 0.48380 -0.22700
H 	H 	0.99259 0.18411 0.48357 0.08700
H 	H 	0.68464 0.01679 0.51554 0.06900
Br	Br	0.76248 0.92640 0.53820 -0.18000
C 	C 	0.22444 0.10903 0.53354 -0.06500
C 	C 	0.17190 0.09542 0.50243 -0.01800
C 	C 	0.21309 0.12065 0.47352 0.09800
C 	C 	0.30502 0.15539 0.47552 -0.02100
C 	C 	0.35656 0.16549 0.50625 -0.09500
C 	C 	0.31653 0.14416 0.53563 0.13800
Br	Br	0.38704 0.16506 0.57908 -0.21700
H 	H 	0.19289 0.08979 0.55587 0.07900
H 	H 	0.33632 0.17411 0.45311 0.06000
Br	Br	0.14401 0.10610 0.43087 -0.21000
C 	C 	0.83543 0.73487 0.99740 -0.05700
C 	C 	0.85427 0.76415 0.96614 -0.02000
C 	C 	0.84563 0.70660 0.93809 0.10200
C 	C 	0.82207 0.62248 0.94187 -0.02400
C 	C 	0.80496 0.59384 0.97330 -0.08800
C 	C 	0.81107 0.65027 0.00113 0.13300
Br	Br	0.79080 0.61485 0.04487 -0.23200
H 	H 	0.84327 0.77923 0.01923 0.08000
H 	H 	0.81471 0.57834 0.92007 0.06600
Br	Br	0.86441 0.74138 0.89419 -0.20100
C 	C 	0.86503 0.06810 0.00222 -0.06000
C 	C 	0.85526 0.02734 0.96916 -0.03500
C 	C 	0.82113 0.04506 0.94068 0.09000
C 	C 	0.79935 0.10475 0.94547 -0.01600
C 	C 	0.81142 0.14726 0.97855 -0.09400
C 	C 	0.84478 0.12880 0.00705 0.13900
Br	Br	0.87005 0.19100 0.05261 -0.28500
H 	H 	0.89316 0.05633 0.02419 0.08000
H 	H 	0.77239 0.11745 0.92348 0.06300
Br	Br	0.80478 0.98900 0.89505 -0.17900
C 	C 	0.17124 0.04743 0.93584 -0.08600
C 	C 	0.13579 0.05922 0.96355 -0.01000
C 	C 	0.19596 0.12284 0.99331 0.09700
C 	C 	0.29073 0.17399 0.99506 -0.01200
C 	C 	0.32626 0.16198 0.96742 -0.09600
C 	C 	0.26611 0.09838 0.93765 0.14700
Br	Br	0.31211 0.07695 0.89990 -0.24400
H 	H 	0.12499 0.99777 0.91306 0.10800
H 	H 	0.33690 0.22291 0.01802 0.06900
Br	Br	0.15005 0.13811 0.03241 -0.21100
