data_crystal

_cell_length_a 17.90129
_cell_length_b 16.77296
_cell_length_c 53.98141
_cell_angle_alpha 89.57042
_cell_angle_beta  89.57253
_cell_angle_gamma 119.42431

_symmetry_space_group_name_	'P 1'
_symmetry_space_group_name_H-M	'P 1'

loop_
_symmetry_equiv_pos_as_xyz
  x,y,z

loop_
_atom_site_label
_atom_site_type_symbol
_atom_site_fract_x
_atom_site_fract_y
_atom_site_fract_z
_atom_site_charge
C 	C 	0.02237 0.57667 0.05944 0.30700
C 	C 	0.14087 0.44742 0.01268 0.31400
C 	C 	0.24684 0.72522 0.08686 0.30300
Ni	Ni	0.17829 0.55224 0.05809 1.11300
Ni	Ni	0.17588 0.73285 0.03711 1.11600
O 	O 	0.27399 0.51550 0.05130 -0.37700
O 	O 	0.14794 0.73995 0.00131 -0.39900
O 	O 	0.07325 0.55835 0.07261 -0.37600
O 	O 	0.05210 0.63146 0.04014 -0.38800
O 	O 	0.10561 0.47502 0.02917 -0.39400
O 	O 	0.24626 0.64599 0.08538 -0.36800
O 	O 	0.18964 0.73960 0.07491 -0.37700
O 	O 	0.22157 0.65197 0.03521 -0.70600
H 	H 	0.27698 0.69117 0.04313 0.15100
C 	C 	0.91314 0.08125 0.25739 0.30100
C 	C 	0.02149 0.06844 0.15614 0.30300
C 	C 	0.78533 0.01149 0.19663 0.35500
C 	C 	0.15073 0.14380 0.21777 0.30200
C 	C 	0.86119 0.80770 0.18408 0.32900
C 	C 	0.97339 0.85859 0.24769 0.31200
Ni	Ni	0.97588 0.11991 0.20472 1.11800
Ni	Ni	0.02846 0.96026 0.19853 1.10800
Ni	Ni	0.85343 0.91342 0.22644 1.11600
O 	O 	0.96988 0.14541 0.24220 -0.36000
O 	O 	0.84530 0.00744 0.24868 -0.36500
O 	O 	0.93552 0.87404 0.17605 -0.38500
O 	O 	0.97049 0.09367 0.16692 -0.35100
O 	O 	0.07221 0.04984 0.16944 -0.37100
O 	O 	0.91220 0.87939 0.25272 -0.38900
O 	O 	0.84821 0.09014 0.20406 -0.37300
O 	O 	0.78943 0.93585 0.19891 -0.40700
O 	O 	0.00178 0.86095 0.22463 -0.40000
O 	O 	0.10939 0.17537 0.20407 -0.37600
O 	O 	0.13199 0.05662 0.21689 -0.37200
O 	O 	0.83727 0.80310 0.20738 -0.38300
O 	O 	0.96205 0.00523 0.21448 -0.70000
H 	H 	0.99263 0.02178 0.23031 0.15700
C 	C 	0.06009 0.10546 0.08129 -0.05100
C 	C 	0.14422 0.14974 0.07179 -0.01200
C 	C 	0.16199 0.19491 0.04879 -0.05900
C 	C 	0.09634 0.19922 0.03588 0.02300
C 	C 	0.01091 0.14037 0.04314 -0.11000
C 	C 	0.99277 0.09468 0.06607 0.04300
C 	C 	0.04538 0.08873 0.10760 0.05800
C 	C 	0.03387 0.07840 0.12973 -0.10500
C 	C 	0.11607 0.28310 0.02315 0.03200
C 	C 	0.12948 0.35730 0.01605 -0.11400
H 	H 	0.19653 0.15528 0.08299 0.03500
H 	H 	0.22787 0.23498 0.04245 0.04500
H 	H 	0.95906 0.13920 0.03262 0.07300
H 	H 	0.92707 0.05744 0.07281 0.03200
C 	C 	0.42458 0.90800 0.13362 0.01700
C 	C 	0.50323 0.97478 0.12349 -0.07500
C 	C 	0.57678 0.01303 0.13805 0.03000
C 	C 	0.57182 0.98481 0.16280 -0.06500
C 	C 	0.49154 0.92594 0.17361 -0.00600
C 	C 	0.41802 0.88758 0.15904 -0.05400
C 	C 	0.35783 0.84708 0.11737 0.03700
C 	C 	0.30513 0.79285 0.10355 -0.09500
C 	C 	0.64855 0.00021 0.17523 0.09500
C 	C 	0.71178 0.00802 0.18519 -0.12300
H 	H 	0.50864 0.99214 0.10394 0.05000
H 	H 	0.63839 0.05972 0.12964 0.03300
H 	H 	0.48689 0.90494 0.19285 0.03200
H 	H 	0.35720 0.83712 0.16713 0.04600
C 	C 	0.75310 0.60320 0.13436 -0.00500
C 	C 	0.74832 0.63052 0.11008 -0.03000
C 	C 	0.77510 0.59696 0.09027 -0.03500
C 	C 	0.80541 0.53559 0.09491 0.00100
C 	C 	0.78892 0.49188 0.11814 -0.03300
C 	C 	0.76265 0.52587 0.13797 -0.03000
C 	C 	0.78116 0.67063 0.15348 0.05500
C 	C 	0.81374 0.73143 0.16823 -0.10100
C 	C 	0.87637 0.54357 0.08035 0.04300
C 	C 	0.94107 0.55638 0.06990 -0.08000
H 	H 	0.73541 0.68645 0.10688 0.04300
H 	H 	0.78255 0.62727 0.07198 0.04300
H 	H 	0.80712 0.44002 0.12161 0.04700
H 	H 	0.76105 0.50008 0.15655 0.04600
C 	C 	0.22374 0.20790 0.23141 -0.09900
H 	H 	0.35143 0.44641 0.23549 0.04300
C 	C 	0.99322 0.81059 0.26629 -0.06200
H 	H 	0.65386 0.03212 0.98844 0.07600
C 	C 	0.37142 0.41803 0.06058 -0.19800
H 	H 	0.39843 0.37493 0.06741 0.07100
H 	H 	0.30389 0.38641 0.06722 0.08100
H 	H 	0.40938 0.48690 0.06879 0.08200
C 	C 	0.28244 0.26529 0.24305 0.04600
C 	C 	0.37477 0.42522 0.03268 0.08300
C 	C 	0.33423 0.55024 0.03370 0.30200
O 	O 	0.29507 0.83873 0.03226 -0.39400
C 	C 	0.92007 0.09603 0.28366 -0.09000
C 	C 	0.83619 0.21966 0.51751 0.30200
C 	C 	0.75491 0.44612 0.44848 0.30600
C 	C 	0.98229 0.45822 0.49200 0.33300
C 	C 	0.61996 0.20832 0.47123 0.28800
C 	C 	0.81410 0.54992 0.52659 0.33000
C 	C 	0.65697 0.31623 0.54899 0.30800
Ni	Ni	0.81209 0.32182 0.47270 1.11300
Ni	Ni	0.68736 0.38973 0.49805 1.12100
Ni	Ni	0.83907 0.39353 0.52917 1.12200
O 	O 	0.86055 0.25177 0.49436 -0.36200
O 	O 	0.81911 0.26556 0.53448 -0.37900
O 	O 	0.73274 0.49947 0.52076 -0.38200
O 	O 	0.77036 0.37817 0.44460 -0.36400
O 	O 	0.75988 0.47643 0.47086 -0.38900
O 	O 	0.74048 0.37193 0.55273 -0.38000
O 	O 	0.92822 0.44283 0.47403 -0.37800
O 	O 	0.95394 0.42021 0.51395 -0.37800
O 	O 	0.62171 0.31068 0.52709 -0.39300
O 	O 	0.69317 0.20701 0.46873 -0.36900
O 	O 	0.61829 0.28681 0.47327 -0.38000
O 	O 	0.86852 0.52197 0.52114 -0.39600
O 	O 	0.76652 0.34574 0.50146 -0.71500
H 	H 	0.72721 0.28307 0.50747 0.15800
C 	C 	0.11512 0.18035 0.75716 0.30100
C 	C 	0.99783 0.83762 0.70649 0.34800
C 	C 	0.16169 0.11287 0.69222 0.32300
C 	C 	0.94925 0.89158 0.77593 0.32600
C 	C 	0.89849 0.97405 0.67570 0.31400
C 	C 	0.84623 0.04591 0.74166 0.31200
Ni	Ni	0.08973 0.00015 0.73843 1.11200
Ni	Ni	0.88284 0.89886 0.72608 1.12000
Ni	Ni	0.00536 0.11257 0.71172 1.10800
O 	O 	0.11801 0.10506 0.76318 -0.37500
O 	O 	0.10464 0.19861 0.73383 -0.37700
O 	O 	0.87287 0.89888 0.68898 -0.38400
O 	O 	0.07445 0.90317 0.71223 -0.39700
O 	O 	0.93376 0.81539 0.72202 -0.38000
O 	O 	0.91770 0.11984 0.73402 -0.36900
O 	O 	0.17849 0.10283 0.71525 -0.37400
O 	O 	0.08956 0.11100 0.68636 -0.39000
O 	O 	0.81596 0.96674 0.73005 -0.38600
O 	O 	0.01783 0.89764 0.76464 -0.39000
O 	O 	0.88028 0.87671 0.76329 -0.38000
O 	O 	0.91338 0.05072 0.68628 -0.36600
O 	O 	0.99153 0.00747 0.72933 -0.69100
H 	H 	0.97978 0.02491 0.74563 0.14300
C 	C 	0.29139 0.65126 0.37466 0.30400
C 	C 	0.64342 0.83660 0.40973 0.31800
C 	C 	0.47537 0.62422 0.35437 0.33300
C 	C 	0.46247 0.86790 0.43323 0.29300
C 	C 	0.52721 0.56384 0.42686 0.30700
C 	C 	0.31125 0.56595 0.45031 0.28400
Ni	Ni	0.47788 0.77397 0.38556 1.11200
Ni	Ni	0.49360 0.71208 0.44168 1.12000
Ni	Ni	0.38153 0.56033 0.40127 1.11900
O 	O 	0.35096 0.73652 0.37951 -0.38300
O 	O 	0.30772 0.58144 0.37561 -0.37600
O 	O 	0.55821 0.64312 0.43799 -0.38500
O 	O 	0.59820 0.79011 0.39095 -0.38500
O 	O 	0.60598 0.82725 0.43151 -0.37400
O 	O 	0.29279 0.52665 0.42826 -0.38400
O 	O 	0.46590 0.69694 0.35403 -0.37600
O 	O 	0.47204 0.58350 0.37534 -0.39500
O 	O 	0.39090 0.60557 0.45904 -0.37900
O 	O 	0.49946 0.87824 0.41096 -0.37700
O 	O 	0.44462 0.79615 0.44767 -0.38700
O 	O 	0.44428 0.51472 0.42292 -0.39200
O 	O 	0.43532 0.68467 0.41074 -0.71500
H 	H 	0.38429 0.68836 0.41592 0.15400
C 	C 	0.85849 0.04568 0.38050 0.00800
C 	C 	0.91814 0.02365 0.37020 -0.01100
C 	C 	0.94966 0.05298 0.34610 -0.03800
C 	C 	0.92316 0.10624 0.33260 0.00400
C 	C 	0.87766 0.14289 0.34478 -0.03200
C 	C 	0.84657 0.11375 0.36893 -0.03400
C 	C 	0.78935 0.97746 0.39544 0.02800
C 	C 	0.72521 0.91493 0.40437 -0.10300
C 	C 	0.92359 0.10374 0.30589 0.04900
H 	H 	0.93146 0.97460 0.37951 0.02700
H 	H 	0.98786 0.02723 0.33718 0.05300
H 	H 	0.85972 0.18721 0.33485 0.04600
H 	H 	0.80407 0.13508 0.37727 0.04600
C 	C 	0.34856 0.33658 0.25741 -0.00100
C 	C 	0.37203 0.42815 0.25240 -0.03400
C 	C 	0.41574 0.49508 0.27015 -0.03100
C 	C 	0.43651 0.47070 0.29290 -0.00700
C 	C 	0.42111 0.38108 0.29678 -0.03100
C 	C 	0.37695 0.31404 0.27909 -0.03500
C 	C 	0.45625 0.53065 0.31368 0.05300
C 	C 	0.46764 0.57638 0.33183 -0.11300
H 	H 	0.42846 0.56447 0.26684 0.04200
H 	H 	0.43811 0.36195 0.31419 0.04100
H 	H 	0.36016 0.24366 0.28296 0.04300
C 	C 	0.03083 0.71953 0.29955 0.01000
C 	C 	0.05978 0.65992 0.29161 -0.04300
C 	C 	0.09476 0.62448 0.30863 -0.03100
C 	C 	0.10134 0.64890 0.33363 -0.00800
C 	C 	0.06527 0.70183 0.34187 -0.03300
C 	C 	0.03042 0.73743 0.32484 -0.04400
C 	C 	0.00969 0.76900 0.28160 0.00600
C 	C 	0.16196 0.63961 0.34902 0.04300
C 	C 	0.21816 0.63985 0.36122 -0.10100
H 	H 	0.05890 0.64445 0.27212 0.04300
H 	H 	0.12179 0.58299 0.30211 0.04100
H 	H 	0.06934 0.72040 0.36120 0.03300
H 	H 	0.00676 0.78219 0.33119 0.03600
C 	C 	0.47441 0.95969 0.47066 -0.05100
C 	C 	0.46417 0.94883 0.44488 -0.09600
C 	C 	0.47239 0.02330 0.43034 0.09000
C 	C 	0.51314 0.11152 0.44040 -0.03700
C 	C 	0.54082 0.12435 0.46504 -0.08700
C 	C 	0.51120 0.04739 0.48091 0.08900
C 	C 	0.52883 0.05916 0.50827 -0.18700
H 	H 	0.46004 0.90129 0.48251 0.05000
H 	H 	0.52954 0.17029 0.42853 0.04300
C 	C 	0.43985 0.00999 0.40420 -0.17700
H 	H 	0.48219 0.99720 0.51884 0.05900
H 	H 	0.52298 0.11803 0.51524 0.07700
H 	H 	0.59466 0.07141 0.51180 0.07600
H 	H 	0.38468 0.94006 0.40176 0.06100
H 	H 	0.49217 0.02133 0.39102 0.07600
H 	H 	0.41741 0.05943 0.39966 0.06500
C 	C 	0.20212 0.60773 0.46312 -0.04600
C 	C 	0.23975 0.55233 0.46672 -0.08300
C 	C 	0.19822 0.47375 0.48212 0.07500
C 	C 	0.11540 0.44625 0.49141 -0.03000
C 	C 	0.07448 0.49727 0.48590 -0.11800
C 	C 	0.12012 0.58146 0.47290 0.08700
C 	C 	0.08049 0.64147 0.46843 -0.20000
H 	H 	0.23489 0.66906 0.45166 0.04200
H 	H 	0.08126 0.38286 0.50198 0.04500
C 	C 	0.23929 0.41558 0.48725 -0.19400
H 	H 	0.13017 0.71264 0.46353 0.06600
H 	H 	0.04652 0.64477 0.48537 0.07500
H 	H 	0.03440 0.61373 0.45297 0.07600
H 	H 	0.30698 0.45928 0.49286 0.08100
H 	H 	0.23746 0.37737 0.47035 0.07600
H 	H 	0.20553 0.36544 0.50252 0.06700
C 	C 	0.67446 0.58825 0.41921 -0.03800
C 	C 	0.58604 0.52628 0.42176 -0.08600
C 	C 	0.55834 0.43112 0.42314 0.07800
C 	C 	0.61969 0.40268 0.42659 -0.04200
C 	C 	0.70610 0.46734 0.43019 -0.09500
C 	C 	0.73479 0.55919 0.42339 0.08500
C 	C 	0.82903 0.62826 0.42322 -0.20000
H 	H 	0.69640 0.66022 0.41574 0.05600
H 	H 	0.59910 0.33066 0.42866 0.05400
C 	C 	0.46499 0.35994 0.42119 -0.19100
H 	H 	0.84328 0.68575 0.41020 0.07300
H 	H 	0.86757 0.59625 0.41715 0.08000
H 	H 	0.84881 0.65597 0.44212 0.08300
H 	H 	0.43714 0.37251 0.40429 0.07500
H 	H 	0.42923 0.36114 0.43795 0.07900
H 	H 	0.45648 0.28991 0.41972 0.06600
C 	C 	0.86855 0.02575 0.55304 0.01500
C 	C 	0.95010 0.05273 0.56260 -0.02300
C 	C 	0.95784 0.02329 0.58630 0.01500
C 	C 	0.88407 0.96598 0.60027 -0.03200
C 	C 	0.80378 0.92655 0.58893 -0.01700
C 	C 	0.79610 0.95597 0.56522 -0.05600
C 	C 	0.85786 0.08827 0.53697 0.04700
C 	C 	0.84830 0.14591 0.52627 -0.09000
C 	C 	0.88875 0.96488 0.62690 0.06000
C 	C 	0.89283 0.96783 0.64920 -0.10300
H 	H 	0.00694 0.10403 0.55291 0.02400
H 	H 	0.02064 0.05129 0.59455 0.01800
H 	H 	0.74658 0.87913 0.59922 0.03700
H 	H 	0.73289 0.93182 0.55756 0.04400
C 	C 	0.35252 0.17809 0.64108 -0.00500
C 	C 	0.43137 0.25808 0.64409 -0.03200
C 	C 	0.49802 0.28126 0.62692 -0.03300
C 	C 	0.48616 0.22448 0.60670 -0.00200
C 	C 	0.40799 0.14331 0.60404 -0.03400
C 	C 	0.34132 0.12013 0.62121 -0.03300
C 	C 	0.28359 0.15501 0.65858 0.05000
C 	C 	0.22697 0.13587 0.67362 -0.10500
C 	C 	0.54968 0.25502 0.58713 0.04600
C 	C 	0.60051 0.28212 0.57012 -0.09800
H 	H 	0.44073 0.30278 0.65954 0.04400
H 	H 	0.55807 0.34437 0.62903 0.04500
H 	H 	0.39816 0.09930 0.58838 0.04100
H 	H 	0.28078 0.05775 0.61889 0.04100
C 	C 	0.93590 0.77549 0.63409 -0.01200
C 	C 	0.99775 0.79442 0.61556 -0.01100
C 	C 	0.97228 0.76699 0.59123 -0.01300
C 	C 	0.88486 0.72012 0.58540 -0.01200
C 	C 	0.82371 0.70847 0.60353 -0.03100
C 	C 	0.84915 0.73582 0.62785 -0.02800
C 	C 	0.96094 0.79539 0.65955 0.07100
C 	C 	0.97940 0.81299 0.68099 -0.11600
C 	C 	0.85774 0.66629 0.56330 0.05800
C 	C 	0.83651 0.61591 0.54583 -0.11300
H 	H 	0.06520 0.82758 0.62012 0.02100
H 	H 	0.02013 0.77728 0.57727 0.01900
H 	H 	0.75611 0.67356 0.59912 0.04200
H 	H 	0.80122 0.72381 0.64195 0.04600
C 	C 	0.70476 0.06760 0.79803 -0.00100
C 	C 	0.65407 0.10898 0.79441 -0.03200
C 	C 	0.61640 0.12746 0.81475 -0.03100
C 	C 	0.71334 0.03976 0.82189 -0.03200
C 	C 	0.75338 0.06033 0.77769 0.05100
C 	C 	0.79542 0.05443 0.76100 -0.09500
H 	H 	0.64636 0.12976 0.77598 0.04700
H 	H 	0.58058 0.16329 0.81192 0.04500
H 	H 	0.75167 0.00677 0.82479 0.04500
C 	C 	0.21894 0.37184 0.81057 -0.00400
C 	C 	0.30578 0.43793 0.80813 -0.03300
C 	C 	0.35830 0.46392 0.82893 -0.03200
C 	C 	0.18189 0.34688 0.83432 -0.03400
C 	C 	0.17831 0.31008 0.79050 0.04600
C 	C 	0.14770 0.25310 0.77467 -0.09800
H 	H 	0.33447 0.46105 0.78989 0.04400
H 	H 	0.42700 0.50711 0.82657 0.04300
H 	H 	0.11395 0.29900 0.83649 0.03900
C 	C 	0.94266 0.89123 0.82488 0.05900
C 	C 	0.94592 0.89127 0.80254 -0.10600
H 	H 	0.68729 0.15173 0.98996 0.07900
H 	H 	0.41828 0.32644 0.02826 0.04500
C 	C 	0.32364 0.42408 0.85210 -0.00500
C 	C 	0.23438 0.37270 0.85512 -0.03300
O 	O 	0.20469 0.50772 0.99857 -0.37900
H 	H 	0.05115 0.79339 0.97636 0.07200
C 	C 	0.05411 0.76638 0.95789 -0.17900
H 	H 	0.02085 0.78877 0.94458 0.05700
H 	H 	0.12208 0.79681 0.95171 0.07200
C 	C 	0.63771 0.08530 0.98244 -0.20300
H 	H 	0.50710 0.91926 0.99674 0.05400
H 	H 	0.64004 0.08942 0.96189 0.08500
C 	C 	0.71552 0.59708 0.93582 0.30900
C 	C 	0.57333 0.21648 0.97791 0.30700
C 	C 	0.80834 0.45804 0.93914 0.31900
C 	C 	0.47514 0.36742 0.98089 0.28800
C 	C 	0.59272 0.23607 0.89668 0.32800
C 	C 	0.47402 0.37448 0.89862 0.30800
Ni	Ni	0.65782 0.42161 0.96899 1.11300
Ni	Ni	0.49786 0.26622 0.93754 1.12000
Ni	Ni	0.65701 0.42711 0.90874 1.12200
O 	O 	0.72470 0.56139 0.95716 -0.36700
O 	O 	0.66283 0.54537 0.91849 -0.39000
O 	O 	0.51661 0.21738 0.90520 -0.38100
O 	O 	0.60603 0.29666 0.98868 -0.36700
O 	O 	0.56268 0.21111 0.95402 -0.38900
O 	O 	0.54773 0.38671 0.88915 -0.38200
O 	O 	0.75232 0.39876 0.95472 -0.38800
O 	O 	0.78206 0.48556 0.91985 -0.38000
O 	O 	0.43750 0.31978 0.91809 -0.39200
O 	O 	0.55624 0.43050 0.98420 -0.37200
O 	O 	0.45372 0.28628 0.97103 -0.38200
O 	O 	0.66136 0.31214 0.90260 -0.38900
O 	O 	0.59563 0.38486 0.93935 -0.71000
H 	H 	0.56585 0.42091 0.94020 0.15800
C 	C 	0.13267 0.67380 0.98575 0.30100
C 	C 	0.34264 0.85274 0.01200 0.29300
Ni	Ni	0.27110 0.64773 0.00393 1.11900
O 	O 	0.35678 0.63069 0.02380 -0.38900
O 	O 	0.35285 0.78583 0.00192 -0.37600
O 	O 	0.19413 0.65758 0.97914 -0.39100
C 	C 	0.93835 0.60906 0.94577 0.00300
C 	C 	0.89808 0.51297 0.94717 -0.11800
C 	C 	0.93766 0.47120 0.96038 0.12400
C 	C 	0.00950 0.52504 0.97475 -0.08000
C 	C 	0.04810 0.62080 0.97422 -0.07000
C 	C 	0.01307 0.66348 0.95928 0.04300
H 	H 	0.91018 0.64145 0.93478 0.04800
H 	H 	0.03738 0.49243 0.98573 0.06100
C 	C 	0.90268 0.36901 0.95969 -0.21400
H 	H 	0.87584 0.34149 0.94122 0.08900
H 	H 	0.85186 0.33491 0.97412 0.08800
H 	H 	0.95411 0.35163 0.96326 0.08400
C 	C 	0.44608 0.11071 0.00277 -0.04900
C 	C 	0.52639 0.13203 0.99286 -0.09300
C 	C 	0.54972 0.06308 0.99159 0.09500
C 	C 	0.48902 0.97209 0.99775 -0.05000
C 	C 	0.40512 0.94906 0.00508 -0.09700
C 	C 	0.38303 0.01927 0.00704 0.10600
C 	C 	0.29215 0.99741 0.01274 -0.22900
H 	H 	0.42996 0.16461 0.00508 0.05600
H 	H 	0.28144 0.05492 0.00720 0.08100
H 	H 	0.27903 0.98505 0.03294 0.07600
H 	H 	0.24558 0.93641 0.00236 0.07500
C 	C 	0.39942 0.37093 0.01880 -0.03900
C 	C 	0.40917 0.38154 0.99294 -0.08600
C 	C 	0.38024 0.43505 0.98060 0.07500
C 	C 	0.36209 0.49406 0.99418 -0.02400
C 	C 	0.35757 0.48888 0.02019 -0.09600
H 	H 	0.35215 0.54476 0.98445 0.02900
C 	C 	0.37651 0.43582 0.95274 -0.19800
H 	H 	0.34402 0.36451 0.94590 0.08300
H 	H 	0.44240 0.47403 0.94476 0.07500
H 	H 	0.33935 0.46868 0.94612 0.07200
C 	C 	0.62954 0.10493 0.83879 -0.00400
C 	C 	0.67577 0.05835 0.84223 -0.03100
C 	C 	0.61026 0.14457 0.85973 0.05300
C 	C 	0.59915 0.18314 0.87691 -0.10600
H 	H 	0.68610 0.04050 0.86074 0.04300
C 	C 	0.37750 0.41262 0.86973 0.04700
C 	C 	0.42189 0.39737 0.88343 -0.10300
H 	H 	0.20649 0.34476 0.87318 0.03900
C 	C 	0.88508 0.82811 0.90043 0.00100
C 	C 	0.85116 0.87664 0.88794 -0.03900
C 	C 	0.87592 0.90560 0.86338 -0.02600
C 	C 	0.93653 0.88851 0.85157 -0.01700
C 	C 	0.98063 0.85419 0.86542 -0.00000
C 	C 	0.95570 0.82520 0.88996 -0.04600
C 	C 	0.83025 0.75615 0.91745 0.04200
C 	C 	0.77958 0.68731 0.92828 -0.10300
H 	H 	0.79872 0.88253 0.89618 0.04100
H 	H 	0.84351 0.93512 0.85306 0.03700
H 	H 	0.02970 0.84358 0.85668 0.02000
H 	H 	0.98444 0.79051 0.89971 0.04700
