data_crystal

_cell_length_a 21.17672
_cell_length_b 19.41440
_cell_length_c 44.34359
_cell_angle_alpha 88.51849
_cell_angle_beta  88.66424
_cell_angle_gamma 107.12047

_symmetry_space_group_name_	'P 1'
_symmetry_space_group_name_H-M	'P 1'

loop_
_symmetry_equiv_pos_as_xyz
  x,y,z

loop_
_atom_site_label
_atom_site_type_symbol
_atom_site_fract_x
_atom_site_fract_y
_atom_site_fract_z
_atom_site_charge
C 	C 	0.00147 0.62812 0.01560 0.80800
H 	H 	0.00208 0.42477 0.07164 0.08200
Zn	Zn	0.58932 0.31415 0.91407 1.22300
Zn	Zn	0.68531 0.42942 0.95892 1.21300
C 	C 	0.78354 0.24816 0.87542 0.31500
Zn	Zn	0.74447 0.36075 0.90807 1.22200
Zn	Zn	0.63976 0.21410 0.87568 1.19500
H 	H 	0.68043 0.29656 0.95486 0.18800
C 	C 	0.72086 0.49766 0.89328 0.32700
O 	O 	0.54386 0.17883 0.86808 -0.46200
O 	O 	0.51430 0.27930 0.88139 -0.38700
O 	O 	0.67610 0.33512 0.94073 -0.78400
O 	O 	0.59019 0.41933 0.96808 -0.38700
O 	O 	0.54403 0.22655 0.93842 -0.43000
O 	O 	0.55221 0.39527 0.92058 -0.41300
O 	O 	0.61707 0.16970 0.92182 -0.41200
O 	O 	0.77955 0.48997 0.95878 -0.41500
H 	H 	0.65390 0.34645 0.86562 0.17400
O 	O 	0.82331 0.40726 0.93757 -0.39700
O 	O 	0.65833 0.31751 0.88372 -0.79600
O 	O 	0.72727 0.19874 0.88220 -0.45500
O 	O 	0.75909 0.45632 0.88838 -0.44400
O 	O 	0.80316 0.30654 0.89144 -0.42300
O 	O 	0.67682 0.48318 0.91578 -0.36600
C 	C 	0.50323 0.21884 0.86661 0.32800
C 	C 	0.54967 0.42490 0.94683 0.30800
C 	C 	0.56201 0.16777 0.93658 0.31500
C 	C 	0.83110 0.46958 0.95033 0.31400
Zn	Zn	0.64693 0.37650 0.49251 1.22500
Zn	Zn	0.52180 0.26550 0.45563 1.20000
C 	C 	0.69106 0.15741 0.53611 0.32000
Zn	Zn	0.60077 0.20659 0.49961 1.22500
Zn	Zn	0.72993 0.31670 0.53645 1.19900
H 	H 	0.64439 0.27420 0.45079 0.20700
C 	C 	0.47793 0.22239 0.52255 0.33600
O 	O 	0.77436 0.42153 0.53755 -0.46100
O 	O 	0.68710 0.46079 0.52345 -0.37500
O 	O 	0.61454 0.28081 0.46726 -0.78600
O 	O 	0.52238 0.36667 0.44733 -0.44600
O 	O 	0.73234 0.40824 0.46900 -0.41400
O 	O 	0.58139 0.43107 0.48536 -0.37500
O 	O 	0.76905 0.31950 0.49045 -0.35300
O 	O 	0.47094 0.16097 0.45801 -0.44700
H 	H 	0.60846 0.30779 0.54127 0.19000
O 	O 	0.55769 0.11983 0.47052 -0.39300
O 	O 	0.63726 0.30138 0.52433 -0.78400
O 	O 	0.73718 0.21683 0.54249 -0.43000
O 	O 	0.51726 0.18126 0.52335 -0.44100
O 	O 	0.66249 0.15224 0.50998 -0.41100
O 	O 	0.48641 0.27384 0.50160 -0.36300
C 	C 	0.74420 0.47173 0.53660 0.32800
C 	C 	0.52947 0.41548 0.46799 0.31900
C 	C 	0.77976 0.37771 0.47276 0.29700
C 	C 	0.49712 0.10764 0.46101 0.31800
Zn	Zn	0.93419 0.89675 0.70053 1.22200
Zn	Zn	0.03641 0.87941 0.75325 1.20200
C 	C 	0.13138 0.05612 0.64756 0.33500
Zn	Zn	0.07353 0.00693 0.70807 1.21700
Zn	Zn	0.98298 0.99473 0.64561 1.20100
H 	H 	0.05766 0.87608 0.69640 0.18900
C 	C 	0.00964 0.02657 0.76476 0.32000
O 	O 	0.89089 0.94277 0.63604 -0.45200
O 	O 	0.84453 0.91083 0.68358 -0.38000
O 	O 	0.03416 0.90152 0.70959 -0.77900
O 	O 	0.95145 0.80067 0.75901 -0.46500
O 	O 	0.92675 0.81981 0.67169 -0.43500
O 	O 	0.88396 0.86185 0.73886 -0.42500
O 	O 	0.00591 0.89289 0.64026 -0.39300
O 	O 	0.11715 0.94414 0.77108 -0.45500
H 	H 	0.95785 0.03056 0.69821 0.15100
O 	O 	0.16386 0.00224 0.72698 -0.43900
O 	O 	0.98144 0.99748 0.69022 -0.77000
O 	O 	0.07733 0.04052 0.63166 -0.44900
O 	O 	0.05419 0.05805 0.74359 -0.43700
O 	O 	0.12949 0.07058 0.67635 -0.44000
O 	O 	0.98438 0.95598 0.76654 -0.40000
C 	C 	0.84025 0.93130 0.65526 0.32300
C 	C 	0.89243 0.80884 0.75587 0.34900
C 	C 	0.96210 0.83018 0.64650 0.32300
C 	C 	0.16848 0.98581 0.75557 0.40300
Zn	Zn	0.30610 0.68099 0.41175 1.22400
Zn	Zn	0.19608 0.55690 0.45342 1.20000
C 	C 	0.12393 0.76522 0.37030 0.32600
Zn	Zn	0.15270 0.64392 0.40411 1.22400
Zn	Zn	0.26793 0.78954 0.37136 1.19800
H 	H 	0.20955 0.69330 0.45213 0.22200
C 	C 	0.17190 0.50705 0.38728 0.32600
O 	O 	0.36543 0.82170 0.36618 -0.46100
O 	O 	0.38724 0.71617 0.37983 -0.39400
O 	O 	0.21506 0.65797 0.43736 -0.78500
O 	O 	0.28658 0.55542 0.46519 -0.44200
O 	O 	0.34855 0.76611 0.43565 -0.41200
O 	O 	0.33860 0.59692 0.41961 -0.43000
O 	O 	0.27953 0.82618 0.41754 -0.35400
O 	O 	0.09967 0.50383 0.45081 -0.44200
H 	H 	0.24988 0.65731 0.36268 0.17500
O 	O 	0.06837 0.60028 0.43360 -0.38900
O 	O 	0.24358 0.68486 0.38041 -0.79500
O 	O 	0.18204 0.81137 0.37481 -0.42600
O 	O 	0.13492 0.55055 0.38410 -0.43400
O 	O 	0.10138 0.70668 0.38782 -0.40800
O 	O 	0.21231 0.51347 0.40987 -0.40800
C 	C 	0.40326 0.77870 0.36478 0.32800
C 	C 	0.33818 0.56618 0.44649 0.33100
C 	C 	0.33068 0.82519 0.43354 0.30600
C 	C 	0.05312 0.53471 0.44568 0.33000
Zn	Zn	0.22247 0.71673 0.99816 1.22700
Zn	Zn	0.35365 0.80632 0.03555 1.20200
C 	C 	0.36847 0.59468 0.95250 0.31700
Zn	Zn	0.36814 0.73264 0.97645 1.22500
Zn	Zn	0.23092 0.60740 0.95237 1.19600
H 	H 	0.31966 0.67346 0.02597 0.18400
C 	C 	0.38818 0.88778 0.97359 0.30300
O 	O 	0.13336 0.58620 0.95815 -0.43800
O 	O 	0.13038 0.69592 0.97545 -0.31800
O 	O 	0.31629 0.71652 0.01445 -0.79200
O 	O 	0.27184 0.81988 0.05356 -0.45500
O 	O 	0.18032 0.63135 0.02401 -0.38700
O 	O 	0.20810 0.80813 0.01184 -0.37100
O 	O 	0.23274 0.56345 0.99806 -0.42000
O 	O 	0.45018 0.83824 0.02841 -0.46300
H 	H 	0.26472 0.74502 0.94477 0.20500
O 	O 	0.46027 0.74712 0.99871 -0.38600
O 	O 	0.27138 0.71144 0.96072 -0.78700
O 	O 	0.30689 0.56730 0.94417 -0.44100
O 	O 	0.39835 0.83254 0.95983 -0.41100
O 	O 	0.39619 0.66486 0.95137 -0.43100
O 	O 	0.34763 0.87728 0.99740 -0.35900
C 	C 	0.10006 0.63182 0.96497 0.28800
C 	C 	0.22746 0.83827 0.03773 0.35700
C 	C 	0.19232 0.56981 0.02000 0.33800
C 	C 	0.48464 0.79691 0.01841 0.33400
Zn	Zn	0.98185 0.14339 0.19102 1.22000
Zn	Zn	0.87613 0.12454 0.24824 1.19800
C 	C 	0.80371 0.96818 0.13492 0.36000
Zn	Zn	0.84673 0.02034 0.19640 1.21600
Zn	Zn	0.93787 0.07209 0.13213 1.19300
H 	H 	0.85396 0.15344 0.19385 0.18700
C 	C 	0.91625 0.98227 0.24718 0.35600
O 	O 	0.02716 0.13818 0.12326 -0.45500
O 	O 	0.07430 0.14522 0.16923 -0.37800
O 	O 	0.87978 0.12465 0.20367 -0.78900
O 	O 	0.95568 0.20653 0.25570 -0.46900
O 	O 	0.98360 0.23153 0.16774 -0.43600
O 	O 	0.03091 0.16592 0.22901 -0.42300
O 	O 	0.90550 0.16781 0.13706 -0.41800
O 	O 	0.79933 0.04568 0.26464 -0.45700
H 	H 	0.96690 0.01339 0.17973 0.17000
O 	O 	0.75458 0.00862 0.21940 -0.40900
O 	O 	0.94061 0.04695 0.17560 -0.80000
O 	O 	0.84422 0.02637 0.12164 -0.48000
O 	O 	0.87051 0.95755 0.22729 -0.42600
O 	O 	0.79175 0.96463 0.16436 -0.41600
O 	O 	0.93606 0.05121 0.25321 -0.44000
C 	C 	0.07702 0.13582 0.13988 0.32900
C 	C 	0.01700 0.20755 0.24964 0.36000
C 	C 	0.94759 0.22921 0.14405 0.33600
C 	C 	0.74859 0.01207 0.24878 0.30000
C 	C 	0.15834 0.50830 0.03872 -0.08700
C 	C 	0.12800 0.45736 0.05448 0.09100
C 	C 	0.09123 0.39717 0.07355 -0.04800
C 	C 	0.02757 0.38829 0.08091 -0.03900
C 	C 	0.99366 0.33262 0.10265 0.07200
C 	C 	0.96957 0.28557 0.12135 -0.11600
H 	H 	0.11648 0.36054 0.08288 0.06100
C 	C 	0.55042 0.80821 0.02870 -0.10400
C 	C 	0.60433 0.82175 0.03936 0.09700
C 	C 	0.66666 0.84217 0.05414 -0.04100
C 	C 	0.66792 0.83028 0.08395 -0.04900
C 	C 	0.71800 0.87752 0.10152 0.08900
C 	C 	0.75787 0.91843 0.11665 -0.11900
H 	H 	0.62554 0.79280 0.09573 0.06000
H 	H 	0.70958 0.87815 0.04215 0.06800
C 	C 	0.20207 0.89413 0.04843 -0.05600
C 	C 	0.18317 0.94147 0.05888 0.07800
C 	C 	0.16115 0.99726 0.07243 0.04800
C 	C 	0.18835 0.02764 0.09768 -0.12100
C 	C 	0.15611 0.07041 0.11475 0.09700
C 	C 	0.12355 0.10282 0.12754 -0.15100
H 	H 	0.23088 0.01486 0.10684 0.06500
H 	H 	0.11867 0.01031 0.06334 0.02300
C 	C 	0.68759 0.97363 0.26399 -0.07500
C 	C 	0.63660 0.94136 0.27705 0.06400
C 	C 	0.57581 0.90344 0.29290 -0.04100
C 	C 	0.57568 0.85758 0.31595 -0.05800
C 	C 	0.51607 0.82650 0.33383 0.08000
C 	C 	0.46510 0.80308 0.34831 -0.12200
H 	H 	0.62099 0.84611 0.32218 0.06200
H 	H 	0.53040 0.91479 0.28674 0.05100
C 	C 	0.06877 0.25377 0.26649 -0.11800
C 	C 	0.10752 0.29488 0.28204 0.08400
C 	C 	0.14864 0.34590 0.30182 -0.05300
C 	C 	0.13831 0.33636 0.33175 -0.05000
C 	C 	0.15386 0.39751 0.35101 0.08300
C 	C 	0.16356 0.44791 0.36745 -0.10700
H 	H 	0.10883 0.28432 0.34123 0.06700
H 	H 	0.17939 0.39731 0.29231 0.05300
C 	C 	0.94569 0.93380 0.26228 -0.10600
C 	C 	0.97168 0.89498 0.27553 0.06200
C 	C 	0.00430 0.85086 0.29189 -0.01300
C 	C 	0.99619 0.84215 0.32191 -0.08800
C 	C 	0.03974 0.81276 0.33909 0.10500
C 	C 	0.07746 0.79008 0.35342 -0.11700
H 	H 	0.96047 0.86276 0.33381 0.07400
H 	H 	0.03985 0.83005 0.27996 0.04500
C 	C 	0.45565 0.03283 0.45674 -0.12500
C 	C 	0.48228 0.98347 0.44261 0.06400
C 	C 	0.44180 0.91444 0.43654 -0.05000
C 	C 	0.37422 0.89331 0.44494 0.02900
C 	C 	0.34827 0.94065 0.46173 -0.09800
C 	C 	0.38880 0.01132 0.46635 0.06500
H 	H 	0.46246 0.87820 0.42423 0.06600
H 	H 	0.36849 0.04944 0.47753 0.07200
H 	H 	0.53391 0.99934 0.43536 0.04600
C 	C 	0.27745 0.91712 0.47410 0.78400
F 	F 	0.26933 0.95947 0.49767 -0.43400
F 	F 	0.23542 0.92341 0.45149 -0.43500
F 	F 	0.25999 0.84635 0.48498 -0.45400
C 	C 	0.98294 0.49401 0.45189 -0.11500
C 	C 	0.93878 0.52949 0.46286 0.03600
C 	C 	0.87227 0.49166 0.46846 -0.05000
C 	C 	0.84837 0.41776 0.46276 0.03300
C 	C 	0.89182 0.38239 0.44972 -0.13300
C 	C 	0.95961 0.42040 0.44566 0.09700
H 	H 	0.83949 0.51950 0.47805 0.06400
H 	H 	0.99391 0.39315 0.43712 0.06400
H 	H 	0.95624 0.58631 0.46763 0.04200
C 	C 	0.86684 0.30445 0.44056 0.79000
F 	F 	0.90986 0.28868 0.41972 -0.45400
F 	F 	0.86124 0.25923 0.46571 -0.44700
F 	F 	0.80590 0.29096 0.42745 -0.46100
C 	C 	0.39262 0.53597 0.45446 -0.10300
C 	C 	0.44765 0.54597 0.43475 0.03200
C 	C 	0.49509 0.51076 0.44066 -0.04300
C 	C 	0.48862 0.46534 0.46641 0.02700
C 	C 	0.43683 0.46085 0.48807 -0.12900
C 	C 	0.38837 0.49498 0.48141 0.09600
H 	H 	0.53555 0.51629 0.42446 0.05600
H 	H 	0.34627 0.48770 0.49681 0.06700
H 	H 	0.45285 0.57939 0.41437 0.04600
C 	C 	0.42795 0.41339 0.51652 0.78800
F 	F 	0.48796 0.41469 0.52848 -0.45900
F 	F 	0.39230 0.43664 0.53855 -0.45100
F 	F 	0.39345 0.34354 0.50985 -0.46000
C 	C 	0.78077 0.94354 0.64502 -0.11100
C 	C 	0.73559 0.95902 0.63356 0.07200
C 	C 	0.68791 0.98336 0.61715 -0.02500
C 	C 	0.68734 0.97860 0.58711 -0.02600
C 	C 	0.68505 0.03975 0.56857 0.04400
C 	C 	0.68675 0.09271 0.55341 -0.10300
H 	H 	0.70442 0.93703 0.57663 0.06200
H 	H 	0.66593 0.02090 0.62788 0.02500
C 	C 	0.42427 0.20982 0.54423 -0.07100
C 	C 	0.37849 0.19765 0.56219 0.10600
C 	C 	0.32298 0.18120 0.58327 -0.04200
C 	C 	0.30714 0.12000 0.60010 -0.04800
C 	C 	0.24588 0.09765 0.61749 0.08600
C 	C 	0.19393 0.07870 0.63151 -0.11300
H 	H 	0.33836 0.08449 0.59935 0.06000
H 	H 	0.29181 0.21676 0.58402 0.07900
C 	C 	0.94417 0.77743 0.62363 -0.10800
C 	C 	0.92454 0.73176 0.60529 0.07800
C 	C 	0.89742 0.67566 0.58437 -0.04900
C 	C 	0.83436 0.66168 0.57632 -0.05200
C 	C 	0.80206 0.59594 0.56140 0.07800
C 	C 	0.77498 0.53993 0.54969 -0.11200
H 	H 	0.80533 0.69670 0.58321 0.06200
H 	H 	0.92663 0.64089 0.57741 0.05400
C 	C 	0.89819 0.51898 0.95372 -0.09600
C 	C 	0.94176 0.53897 0.92864 0.02400
C 	C 	0.00575 0.58481 0.93180 -0.03900
C 	C 	0.02790 0.60984 0.96027 0.05200
C 	C 	0.98180 0.59586 0.98518 -0.14900
C 	C 	0.91745 0.54893 0.98171 0.09800
H 	H 	0.03979 0.59692 0.91242 0.04800
H 	H 	0.88285 0.53452 0.00085 0.06500
H 	H 	0.92637 0.51818 0.90669 0.03800
F 	F 	0.94703 0.61836 0.03493 -0.45400
F 	F 	0.04408 0.59534 0.02882 -0.45600
F 	F 	0.03197 0.70148 0.01215 -0.43600
C 	C 	0.51708 0.09819 0.94838 -0.09900
C 	C 	0.54256 0.04248 0.95760 -0.00600
C 	C 	0.50000 0.97470 0.96619 -0.01500
C 	C 	0.43114 0.96114 0.96546 0.04900
C 	C 	0.40461 0.01708 0.95616 -0.14900
C 	C 	0.44821 0.08591 0.94831 0.08900
H 	H 	0.52064 0.93224 0.97327 0.06000
H 	H 	0.42874 0.12936 0.94139 0.06900
H 	H 	0.59552 0.05152 0.95800 0.04200
C 	C 	0.33038 0.00407 0.95500 0.75300
F 	F 	0.30344 0.99626 0.98404 -0.42300
F 	F 	0.31507 0.06086 0.94051 -0.45100
F 	F 	0.30158 0.94233 0.93947 -0.43400
C 	C 	0.41187 0.54763 0.95429 -0.10400
C 	C 	0.39381 0.47975 0.94138 0.03600
C 	C 	0.43801 0.43885 0.94056 -0.04600
C 	C 	0.50163 0.46572 0.95197 0.03100
C 	C 	0.51969 0.53387 0.96592 -0.12400
C 	C 	0.47309 0.57247 0.96796 0.08900
H 	H 	0.42339 0.38669 0.93029 0.06600
H 	H 	0.48485 0.62271 0.97966 0.06900
H 	H 	0.34600 0.45913 0.93138 0.04200
C 	C 	0.58765 0.56549 0.97892 0.78500
F 	F 	0.59772 0.63621 0.98707 -0.44700
F 	F 	0.59360 0.52572 0.00445 -0.46100
F 	F 	0.63674 0.56542 0.95785 -0.47500
C 	C 	0.83044 0.22997 0.85571 -0.12800
C 	C 	0.86777 0.21289 0.83855 0.06600
C 	C 	0.91002 0.19010 0.81756 -0.05500
C 	C 	0.93927 0.14080 0.82620 -0.05700
C 	C 	0.96610 0.10328 0.80400 0.07300
C 	C 	0.98682 0.06958 0.78578 -0.12800
H 	H 	0.93725 0.12347 0.84980 0.05600
H 	H 	0.91235 0.20779 0.79400 0.04400
C 	C 	0.22783 0.02022 0.77094 -0.16300
C 	C 	0.27713 0.04950 0.78417 0.10000
C 	C 	0.33591 0.08417 0.80018 -0.06400
C 	C 	0.33645 0.13688 0.81917 -0.04300
C 	C 	0.39430 0.16849 0.83631 0.08100
C 	C 	0.44349 0.19297 0.85038 -0.11000
H 	H 	0.29297 0.15513 0.82231 0.06100
H 	H 	0.37947 0.06602 0.79710 0.05300
C 	C 	0.83778 0.76239 0.77317 -0.11900
C 	C 	0.79513 0.72108 0.78870 0.08200
C 	C 	0.74853 0.66939 0.80833 -0.05400
C 	C 	0.75205 0.67632 0.83820 -0.04700
C 	C 	0.73717 0.61304 0.85785 0.08200
C 	C 	0.72822 0.56017 0.87410 -0.09600
H 	H 	0.77795 0.72808 0.84734 0.06500
H 	H 	0.72045 0.61848 0.79917 0.05300
