data_crystal

_cell_length_a 18.45094
_cell_length_b 18.85848
_cell_length_c 34.69425
_cell_angle_alpha 95.43116
_cell_angle_beta  95.43134
_cell_angle_gamma 126.40154

_symmetry_space_group_name_	'P 1'
_symmetry_space_group_name_H-M	'P 1'

loop_
_symmetry_equiv_pos_as_xyz
  x,y,z

loop_
_atom_site_label
_atom_site_type_symbol
_atom_site_fract_x
_atom_site_fract_y
_atom_site_fract_z
_atom_site_charge
C 	C 	0.91671 0.98784 0.96422 0.18800
N 	N 	0.87077 0.89823 0.96353 -0.12300
C 	C 	0.91684 0.86242 0.96209 0.14100
N 	N 	0.00809 0.91629 0.96208 -0.09500
C 	C 	0.05370 0.00534 0.96336 0.13000
N 	N 	0.00816 0.04106 0.96455 -0.12700
C 	C 	0.92428 0.02994 0.48770 0.11100
N 	N 	0.01531 0.08195 0.48636 -0.11300
C 	C 	0.06188 0.04706 0.48968 0.12600
N 	N 	0.01808 0.96154 0.49534 -0.09700
C 	C 	0.92736 0.90945 0.49632 0.14300
N 	N 	0.88050 0.94363 0.49234 -0.09600
Cu	Cu	0.76960 0.33628 0.95989 0.93100
Cu	Cu	0.76866 0.28082 0.04691 0.89300
Cu	Cu	0.62628 0.29359 0.01077 0.90700
Cu	Cu	0.59765 0.32759 0.92997 0.90500
C 	C 	0.69893 0.29819 0.87687 0.33500
O 	O 	0.82117 0.46622 0.95659 -0.33200
C 	C 	0.69199 0.33580 0.09769 0.33600
O 	O 	0.62706 0.26281 0.95648 -0.63800
O 	O 	0.76101 0.35634 0.01578 -0.63600
O 	O 	0.83101 0.27711 0.96555 -0.33700
O 	O 	0.73654 0.18886 0.00538 -0.40800
O 	O 	0.66256 0.33923 0.88529 -0.36900
O 	O 	0.49439 0.22513 0.00247 -0.34700
C 	C 	0.44278 0.22211 0.97221 0.30900
C 	C 	0.77984 0.49997 0.96863 0.29400
O 	O 	0.69546 0.44593 0.97432 -0.36500
O 	O 	0.47853 0.27695 0.94694 -0.36700
O 	O 	0.75397 0.29849 0.90435 -0.32500
C 	C 	0.79402 0.20518 0.98175 0.29700
O 	O 	0.62376 0.30532 0.06799 -0.33200
O 	O 	0.76670 0.34557 0.09175 -0.39400
H 	H 	0.58780 0.19755 0.94586 0.17400
H 	H 	0.79883 0.42000 0.02903 0.20000
Cu	Cu	0.59613 0.20339 0.50629 0.93400
Cu	Cu	0.65217 0.21081 0.41941 0.88400
Cu	Cu	0.64359 0.35022 0.45980 0.90400
Cu	Cu	0.63112 0.38179 0.54388 0.91100
C 	C 	0.64467 0.26451 0.59014 0.33900
O 	O 	0.47057 0.16836 0.51245 -0.33400
C 	C 	0.60635 0.29995 0.37254 0.33800
O 	O 	0.68346 0.34393 0.51200 -0.63700
O 	O 	0.57608 0.21794 0.45175 -0.63800
O 	O 	0.63894 0.12960 0.49533 -0.34100
O 	O 	0.73983 0.22556 0.45946 -0.41400
O 	O 	0.60975 0.30760 0.58492 -0.35700
O 	O 	0.71681 0.47976 0.46890 -0.35400
C 	C 	0.73276 0.53441 0.50102 0.31400
C 	C 	0.44441 0.21685 0.50235 0.29800
O 	O 	0.50581 0.30150 0.50041 -0.37400
O 	O 	0.70400 0.50587 0.53374 -0.36900
O 	O 	0.63654 0.20956 0.56047 -0.31500
C 	C 	0.71441 0.16392 0.48105 0.30900
O 	O 	0.61724 0.35394 0.40377 -0.35900
O 	O 	0.59361 0.22429 0.37558 -0.37500
H 	H 	0.75047 0.37691 0.51976 0.18900
H 	H 	0.51114 0.18315 0.43863 0.19100
C 	C 	0.77549 0.28916 0.78050 -0.13100
C 	C 	0.69390 0.25010 0.75353 0.01500
C 	C 	0.61209 0.21632 0.76745 0.29300
C 	C 	0.61308 0.22668 0.80798 -0.05600
C 	C 	0.69574 0.27143 0.83501 -0.13500
C 	C 	0.77669 0.30023 0.82110 0.37600
C 	C 	0.69615 0.25459 0.71130 0.01500
F 	F 	0.53251 0.17771 0.74172 -0.41200
H 	H 	0.55011 0.20307 0.81838 0.08800
F 	F 	0.85732 0.34338 0.84675 -0.42100
H 	H 	0.83871 0.31444 0.76999 0.13300
C 	C 	0.73871 0.33759 0.69915 0.29500
C 	C 	0.72708 0.34076 0.65911 -0.05400
C 	C 	0.67234 0.26121 0.63082 -0.12900
C 	C 	0.63459 0.17842 0.64277 0.37800
C 	C 	0.64685 0.17534 0.68288 -0.13000
F 	F 	0.78726 0.41485 0.72628 -0.41000
H 	H 	0.75752 0.40496 0.65017 0.09300
F 	F 	0.58180 0.10074 0.61584 -0.41800
H 	H 	0.61474 0.11110 0.69197 0.13200
C 	C 	0.54631 0.26791 0.26245 -0.14200
C 	C 	0.62207 0.34973 0.25551 0.01400
C 	C 	0.68271 0.42044 0.28746 0.30800
C 	C 	0.67246 0.40644 0.32612 -0.05800
C 	C 	0.60204 0.32162 0.33308 -0.13400
C 	C 	0.53618 0.25378 0.30106 0.37500
C 	C 	0.64622 0.35576 0.21597 0.01700
F 	F 	0.75465 0.50093 0.28109 -0.40100
H 	H 	0.72257 0.45981 0.35061 0.10800
F 	F 	0.46448 0.17303 0.30735 -0.42900
H 	H 	0.49807 0.21363 0.23793 0.12200
C 	C 	0.71281 0.34536 0.20789 0.30100
C 	C 	0.72946 0.34173 0.16959 -0.06000
C 	C 	0.67969 0.34838 0.13877 -0.13100
C 	C 	0.61543 0.36248 0.14723 0.37400
C 	C 	0.59837 0.36535 0.18566 -0.13900
F 	F 	0.75944 0.33592 0.23701 -0.41200
H 	H 	0.77934 0.33121 0.16369 0.10100
F 	F 	0.57008 0.37399 0.11845 -0.41400
H 	H 	0.54739 0.37416 0.19178 0.12900
C 	C 	0.90217 0.76492 0.47787 -0.05200
C 	C 	0.87868 0.81409 0.49850 -0.00300
C 	C 	0.80889 0.77161 0.52095 0.08400
C 	C 	0.76090 0.67999 0.52105 -0.00700
C 	C 	0.78455 0.63087 0.50049 -0.07800
C 	C 	0.85733 0.67443 0.47959 0.12300
N 	N 	0.88835 0.62801 0.46144 -0.02200
H 	H 	0.95630 0.79736 0.46084 0.09500
H 	H 	0.70577 0.64719 0.53754 0.07900
N 	N 	0.78881 0.82193 0.54480 -0.01800
O 	O 	0.88767 0.62076 0.42372 -0.07100
O 	O 	0.92426 0.59960 0.48306 -0.08600
O 	O 	0.70673 0.80019 0.53902 -0.06000
O 	O 	0.85059 0.88514 0.57410 -0.06400
C 	C 	0.73131 0.04571 0.46125 -0.00200
C 	C 	0.76502 0.12683 0.48545 -0.08700
C 	C 	0.85296 0.17813 0.50937 0.12400
C 	C 	0.90646 0.14794 0.50857 -0.06000
C 	C 	0.87280 0.06677 0.48426 0.00500
C 	C 	0.78525 0.01628 0.45988 0.05400
N 	N 	0.75220 0.93660 0.43275 -0.00500
H 	H 	0.66461 0.00730 0.44213 0.05500
H 	H 	0.97308 0.18638 0.52775 0.08300
N 	N 	0.88784 0.26054 0.53477 -0.02600
O 	O 	0.67269 0.86178 0.43305 -0.06100
O 	O 	0.79905 0.94007 0.40624 -0.06300
O 	O 	0.84133 0.26172 0.56043 -0.08100
O 	O 	0.96877 0.33313 0.53403 -0.08200
C 	C 	0.22336 0.18015 0.51441 -0.05600
C 	C 	0.15940 0.10096 0.48681 0.00100
C 	C 	0.19036 0.06469 0.46175 0.05700
C 	C 	0.28374 0.10285 0.46726 -0.00200
C 	C 	0.34692 0.17855 0.49661 -0.08100
C 	C 	0.31684 0.21866 0.51976 0.12200
N 	N 	0.38042 0.29598 0.54997 -0.02700
H 	H 	0.20000 0.20863 0.53352 0.08800
H 	H 	0.30718 0.07395 0.44845 0.06100
N 	N 	0.12679 0.98850 0.43094 -0.00600
O 	O 	0.38810 0.36904 0.54949 -0.07900
O 	O 	0.42461 0.29089 0.57973 -0.08400
O 	O 	0.06920 0.98859 0.40625 -0.04900
O 	O 	0.12894 0.92052 0.42660 -0.05800
C 	C 	0.83837 0.73025 0.99492 -0.05300
C 	C 	0.86900 0.76565 0.96112 -0.00600
C 	C 	0.87246 0.71402 0.93014 0.08300
C 	C 	0.84951 0.62984 0.93413 -0.01500
C 	C 	0.82044 0.59508 0.96824 -0.07400
C 	C 	0.81517 0.64594 0.99889 0.11300
N 	N 	0.78832 0.61309 0.03450 -0.02200
H 	H 	0.83716 0.77019 0.01910 0.08800
H 	H 	0.85074 0.58993 0.90995 0.08400
N 	N 	0.89917 0.74692 0.89448 -0.01900
O 	O 	0.83260 0.59099 0.05491 -0.08800
O 	O 	0.72353 0.61077 0.04784 -0.06400
O 	O 	0.95745 0.74125 0.87898 -0.06100
O 	O 	0.86118 0.77764 0.87628 -0.05800
C 	C 	0.86966 0.06329 0.00542 -0.03600
C 	C 	0.86975 0.02919 0.96775 -0.04800
C 	C 	0.84392 0.05237 0.93444 0.09000
C 	C 	0.82106 0.11135 0.93926 -0.01800
C 	C 	0.82447 0.14819 0.97709 -0.07400
C 	C 	0.84923 0.12398 0.01038 0.10400
N 	N 	0.85796 0.16418 0.04937 -0.02700
H 	H 	0.89109 0.04705 0.03115 0.07000
H 	H 	0.80050 0.12823 0.91352 0.07900
N 	N 	0.84102 0.01633 0.89565 -0.03400
O 	O 	0.81287 0.11378 0.07423 -0.10200
O 	O 	0.91661 0.25068 0.06101 -0.12900
O 	O 	0.76305 0.96180 0.87129 -0.04500
O 	O 	0.91686 0.04387 0.88360 -0.07600
C 	C 	0.21155 0.12662 0.99902 -0.06400
C 	C 	0.15280 0.06341 0.96476 0.00200
C 	C 	0.18951 0.05286 0.93283 0.05800
C 	C 	0.28464 0.10462 0.93583 -0.00300
C 	C 	0.34344 0.16712 0.97025 -0.08700
C 	C 	0.30668 0.17882 0.00191 0.13000
N 	N 	0.36574 0.24470 0.03673 -0.02300
H 	H 	0.18329 0.13503 0.02352 0.08800
H 	H 	0.31289 0.09660 0.91123 0.05800
N 	N 	0.13032 0.99022 0.89719 -0.00600
O 	O 	0.41985 0.32928 0.03461 -0.05000
O 	O 	0.36024 0.22078 0.07094 -0.05400
O 	O 	0.06986 0.99555 0.87826 -0.03600
O 	O 	0.14184 0.93253 0.88204 -0.05000
