data_crystal

_cell_length_a 35.16665
_cell_length_b 35.82140
_cell_length_c 40.08286
_cell_angle_alpha 95.54580
_cell_angle_beta  95.54933
_cell_angle_gamma 125.36125

_symmetry_space_group_name_	'P 1'
_symmetry_space_group_name_H-M	'P 1'

loop_
_symmetry_equiv_pos_as_xyz
  x,y,z

loop_
_atom_site_label
_atom_site_type_symbol
_atom_site_fract_x
_atom_site_fract_y
_atom_site_fract_z
_atom_site_charge
C 	C 	0.97528 0.01789 0.99687 0.12000
C 	C 	0.04440 0.02265 0.99337 0.12000
N 	N 	0.02240 0.04361 0.99587 -0.14100
C 	C 	0.95129 0.99992 0.44926 0.12000
C 	C 	0.02232 0.00644 0.45460 0.11900
N 	N 	0.99923 0.02631 0.45195 -0.14100
Cu	Cu	0.64966 0.26049 0.99617 0.92800
Cu	Cu	0.69133 0.26287 0.92607 0.87000
Cu	Cu	0.68392 0.33777 0.95441 0.89700
Cu	Cu	0.65358 0.34902 0.01973 0.89400
C 	C 	0.66132 0.29375 0.06728 0.28700
O 	O 	0.58071 0.23567 0.99310 -0.36400
C 	C 	0.67297 0.30874 0.88004 0.30700
O 	O 	0.69107 0.33350 0.00150 -0.64000
O 	O 	0.64790 0.26851 0.94805 -0.64200
O 	O 	0.67610 0.22412 0.99453 -0.37600
O 	O 	0.73267 0.27221 0.96540 -0.44200
O 	O 	0.64160 0.31431 0.05824 -0.38400
O 	O 	0.72213 0.40508 0.96397 -0.38400
C 	C 	0.71710 0.43047 0.98676 0.29100
C 	C 	0.56466 0.25763 0.98046 0.28400
O 	O 	0.59471 0.30142 0.97786 -0.39400
O 	O 	0.68438 0.41123 0.00605 -0.39400
O 	O 	0.66170 0.26470 0.04453 -0.36100
C 	C 	0.71723 0.24122 0.98531 0.29000
O 	O 	0.68771 0.34270 0.90599 -0.38900
O 	O 	0.66601 0.26948 0.88469 -0.42200
H 	H 	0.72440 0.35191 0.01371 0.16400
H 	H 	0.61576 0.25125 0.93392 0.17300
Cu	Cu	0.72594 0.33939 0.45374 0.92800
Cu	Cu	0.72823 0.30695 0.52730 0.87000
Cu	Cu	0.65107 0.31295 0.49820 0.89700
Cu	Cu	0.63642 0.33687 0.43058 0.89400
C 	C 	0.68860 0.32266 0.38245 0.30500
O 	O 	0.75285 0.40699 0.45319 -0.36300
C 	C 	0.68612 0.33239 0.57268 0.28800
O 	O 	0.65214 0.30115 0.45084 -0.64100
O 	O 	0.72124 0.34676 0.50236 -0.64200
O 	O 	0.76112 0.31137 0.45652 -0.37300
O 	O 	0.71466 0.26153 0.48999 -0.44100
O 	O 	0.66862 0.34326 0.39076 -0.38600
O 	O 	0.58257 0.27674 0.49081 -0.38300
C 	C 	0.55597 0.27921 0.46676 0.29000
C 	C 	0.73226 0.42529 0.46497 0.28300
O 	O 	0.68821 0.39784 0.46944 -0.39200
O 	O 	0.57498 0.31040 0.44672 -0.39400
O 	O 	0.71812 0.32253 0.40541 -0.36200
C 	C 	0.74391 0.27271 0.46849 0.28900
O 	O 	0.64945 0.31385 0.54742 -0.38900
O 	O 	0.72518 0.33740 0.56756 -0.42000
H 	H 	0.63228 0.26771 0.44017 0.16300
H 	H 	0.73985 0.37940 0.51470 0.17200
C 	C 	0.68049 0.34053 0.60800 -0.09000
C 	C 	0.63801 0.30805 0.61861 0.01300
C 	C 	0.63575 0.31068 0.65332 -0.06700
C 	C 	0.67580 0.34602 0.67767 0.02600
C 	C 	0.71701 0.38057 0.66683 -0.06700
C 	C 	0.71942 0.37773 0.63216 0.01400
C 	C 	0.67662 0.34350 0.71426 0.00200
C 	C 	0.64333 0.34368 0.73090 -0.04100
C 	C 	0.64238 0.33824 0.76500 -0.03200
C 	C 	0.67475 0.33272 0.78263 -0.00900
C 	C 	0.70845 0.33333 0.76622 -0.03300
C 	C 	0.70935 0.33859 0.73218 -0.04100
C 	C 	0.67255 0.32482 0.81716 0.04500
C 	C 	0.67200 0.31770 0.84596 -0.11200
H 	H 	0.60757 0.27941 0.60018 0.03300
H 	H 	0.60363 0.28402 0.66139 0.04600
H 	H 	0.74781 0.40854 0.68538 0.04500
H 	H 	0.75206 0.40356 0.62420 0.02800
H 	H 	0.61800 0.34758 0.71734 0.04000
H 	H 	0.61626 0.33788 0.77756 0.03900
H 	H 	0.73357 0.32907 0.77971 0.03600
H 	H 	0.73494 0.33804 0.71953 0.03800
C 	C 	0.67204 0.29421 0.10387 -0.08500
C 	C 	0.68985 0.33439 0.12803 0.01300
C 	C 	0.69598 0.33378 0.16288 -0.06600
C 	C 	0.68446 0.29303 0.17396 0.02700
C 	C 	0.66814 0.25328 0.14988 -0.06500
C 	C 	0.66201 0.25386 0.11497 0.01700
C 	C 	0.68663 0.29118 0.21065 0.00200
C 	C 	0.64469 0.26215 0.22307 -0.04000
C 	C 	0.64580 0.26494 0.25822 -0.03300
C 	C 	0.68878 0.29670 0.28116 -0.00600
C 	C 	0.73101 0.32421 0.26880 -0.03200
C 	C 	0.72997 0.32143 0.23364 -0.04000
C 	C 	0.68885 0.30456 0.31709 0.04500
C 	C 	0.68876 0.31221 0.34703 -0.10300
H 	H 	0.69829 0.36590 0.11979 0.02200
H 	H 	0.70867 0.36465 0.18128 0.04600
H 	H 	0.65940 0.22173 0.15821 0.04800
H 	H 	0.64826 0.22260 0.09664 0.04000
H 	H 	0.61107 0.23862 0.20552 0.04100
H 	H 	0.61303 0.24348 0.26760 0.03800
H 	H 	0.76441 0.34872 0.28640 0.04100
H 	H 	0.76259 0.34369 0.22430 0.04000
C 	C 	0.91354 0.81066 0.43564 -0.05500
C 	C 	0.87947 0.78942 0.45633 0.03200
C 	C 	0.86588 0.81455 0.47372 -0.05500
C 	C 	0.85989 0.74241 0.46064 -0.02500
C 	C 	0.84424 0.70303 0.46367 -0.00400
C 	C 	0.82675 0.65697 0.46672 0.00000
C 	C 	0.81225 0.61760 0.46881 -0.03100
C 	C 	0.79512 0.57042 0.47058 0.04500
C 	C 	0.81356 0.55029 0.45311 -0.07200
C 	C 	0.79442 0.50339 0.45245 0.01700
C 	C 	0.75648 0.47614 0.46922 -0.09100
C 	C 	0.73939 0.49702 0.48788 0.01500
C 	C 	0.75857 0.54394 0.48843 -0.07200
H 	H 	0.92391 0.79131 0.42189 0.04600
H 	H 	0.83935 0.79825 0.48962 0.04600
H 	H 	0.84206 0.57068 0.43945 0.05000
H 	H 	0.80819 0.48797 0.43808 0.03800
H 	H 	0.71076 0.47677 0.50146 0.03100
H 	H 	0.74445 0.55943 0.50227 0.04900
C 	C 	0.75967 0.24333 0.45958 -0.09700
C 	C 	0.80490 0.26327 0.45144 0.01800
C 	C 	0.82171 0.23639 0.44664 -0.07400
C 	C 	0.79345 0.18942 0.44981 0.04500
C 	C 	0.74769 0.16901 0.45666 -0.07500
C 	C 	0.73080 0.19578 0.46148 0.01700
C 	C 	0.81232 0.16286 0.44790 -0.03300
C 	C 	0.82798 0.14051 0.44632 0.00000
C 	C 	0.84659 0.11457 0.44501 -0.00500
C 	C 	0.86290 0.09278 0.44424 -0.02500
C 	C 	0.88304 0.06734 0.44364 0.03200
C 	C 	0.92103 0.08108 0.42679 -0.05500
C 	C 	0.94262 0.05837 0.42797 -0.01500
C 	C 	0.92639 0.02172 0.44611 -0.02400
C 	C 	0.88756 0.00732 0.46234 -0.01500
C 	C 	0.86603 0.03012 0.46113 -0.05500
H 	H 	0.82756 0.29984 0.44983 0.03300
H 	H 	0.85706 0.25234 0.44118 0.05000
H 	H 	0.72550 0.13261 0.45887 0.04900
H 	H 	0.69556 0.17972 0.46717 0.02800
H 	H 	0.93423 0.10969 0.41310 0.04600
H 	H 	0.97210 0.06943 0.41494 0.03900
H 	H 	0.87475 0.97922 0.47651 0.03900
H 	H 	0.83662 0.01929 0.47420 0.04500
C 	C 	0.07436 0.03507 0.45750 -0.02400
C 	C 	0.10109 0.02477 0.47749 -0.01600
C 	C 	0.15010 0.05049 0.47902 -0.05500
C 	C 	0.17280 0.08670 0.46066 0.03200
C 	C 	0.14642 0.09758 0.44111 -0.05500
C 	C 	0.09736 0.07190 0.43953 -0.01500
C 	C 	0.22300 0.11200 0.46131 -0.02500
C 	C 	0.26504 0.13297 0.46202 -0.00500
C 	C 	0.31422 0.15722 0.46283 0.00000
C 	C 	0.35621 0.17780 0.46349 -0.03200
C 	C 	0.40634 0.20238 0.46419 0.04600
C 	C 	0.43702 0.21409 0.49476 -0.07300
C 	C 	0.48582 0.23864 0.49560 0.01900
C 	C 	0.50430 0.25171 0.46577 -0.09000
C 	C 	0.47330 0.23941 0.43508 0.01800
C 	C 	0.42454 0.21488 0.43434 -0.07300
H 	H 	0.08393 0.99685 0.49182 0.04100
H 	H 	0.17034 0.04204 0.49430 0.04600
H 	H 	0.16379 0.12560 0.42687 0.04600
H 	H 	0.07718 0.08009 0.42388 0.03900
H 	H 	0.42314 0.20447 0.51794 0.05000
H 	H 	0.50926 0.24811 0.51950 0.03700
H 	H 	0.48697 0.24880 0.41182 0.02600
H 	H 	0.40097 0.20572 0.41057 0.04900
C 	C 	0.93178 0.82611 0.96885 -0.05500
C 	C 	0.89678 0.80336 0.98862 0.03100
C 	C 	0.87364 0.75465 0.98890 -0.02500
C 	C 	0.85454 0.71385 0.98890 -0.00500
C 	C 	0.83252 0.66613 0.98883 0.00000
C 	C 	0.81380 0.62537 0.98873 -0.03200
C 	C 	0.79134 0.57667 0.98858 0.04500
C 	C 	0.78167 0.54690 0.95847 -0.07200
C 	C 	0.75835 0.49928 0.95798 0.01900
C 	C 	0.74444 0.48108 0.98769 -0.09100
C 	C 	0.75503 0.51123 0.01801 0.01900
C 	C 	0.77835 0.55883 0.01840 -0.07200
H 	H 	0.94073 0.80693 0.95311 0.04600
H 	H 	0.85803 0.81089 0.02403 0.04600
H 	H 	0.79176 0.56054 0.93533 0.05000
H 	H 	0.75024 0.47646 0.93438 0.03800
H 	H 	0.74505 0.49778 0.04120 0.02600
H 	H 	0.78599 0.58174 0.04183 0.04900
C 	C 	0.95124 0.04056 0.99933 -0.02600
C 	C 	0.90374 0.01669 0.98305 -0.01500
C 	C 	0.88096 0.03814 0.98536 -0.05700
C 	C 	0.90539 0.08354 0.00390 0.03300
C 	C 	0.95269 0.10743 0.02028 -0.05600
C 	C 	0.97558 0.08605 0.01804 -0.01300
C 	C 	0.88221 0.10598 0.00538 -0.02600
C 	C 	0.86234 0.12431 0.00638 -0.00500
C 	C 	0.83878 0.14550 0.00688 0.00000
C 	C 	0.81849 0.16343 0.00663 -0.03300
C 	C 	0.79412 0.18470 0.00542 0.04600
C 	C 	0.81824 0.23102 0.00099 -0.07400
C 	C 	0.79348 0.25016 0.99584 0.01700
C 	C 	0.74427 0.22297 0.99496 -0.10000
C 	C 	0.72058 0.17716 0.00091 0.02000
C 	C 	0.74545 0.15810 0.00604 -0.07500
H 	H 	0.88464 0.98176 0.96831 0.04000
H 	H 	0.84442 0.01954 0.97254 0.04600
H 	H 	0.97177 0.14256 0.03468 0.04600
H 	H 	0.01204 0.10471 0.03102 0.04000
H 	H 	0.85596 0.25190 0.00074 0.04900
H 	H 	0.81239 0.28581 0.99194 0.02800
H 	H 	0.68270 0.15581 0.00045 0.03200
H 	H 	0.72662 0.12230 0.00961 0.05000
C 	C 	0.51307 0.23513 0.97346 -0.09200
C 	C 	0.48047 0.18671 0.97107 0.01900
C 	C 	0.43216 0.16634 0.96923 -0.07300
C 	C 	0.41600 0.19407 0.96955 0.04600
C 	C 	0.44795 0.24191 0.97004 -0.07300
C 	C 	0.49628 0.26241 0.97191 0.01700
C 	C 	0.36749 0.17416 0.97219 -0.03200
C 	C 	0.32683 0.15722 0.97441 0.00000
C 	C 	0.27942 0.13707 0.97781 -0.00500
C 	C 	0.23903 0.11932 0.98127 -0.02500
C 	C 	0.19084 0.09720 0.98595 0.03100
C 	C 	0.17140 0.06316 0.00638 -0.05400
C 	C 	0.12394 0.03984 0.00965 -0.01400
C 	C 	0.09549 0.05037 0.99246 -0.02600
C 	C 	0.11541 0.08544 0.97275 -0.01500
C 	C 	0.16296 0.10871 0.96946 -0.05500
H 	H 	0.49264 0.16501 0.97142 0.03300
H 	H 	0.40750 0.12920 0.96845 0.05000
H 	H 	0.43560 0.26349 0.96998 0.04900
H 	H 	0.52079 0.29969 0.97333 0.02900
H 	H 	0.19290 0.05436 0.01940 0.04600
H 	H 	0.09381 0.09382 0.95929 0.03900
H 	H 	0.17786 0.13517 0.95374 0.04600
N 	N 	0.95023 0.97110 0.99521 -0.14100
C 	C 	0.97210 0.95004 0.99250 0.12000
N 	N 	0.01917 0.97591 0.99167 -0.14100
N 	N 	0.92644 0.95347 0.44936 -0.14100
C 	C 	0.94948 0.93348 0.45188 0.11900
N 	N 	0.99735 0.96004 0.45448 -0.14100
C 	C 	0.92275 0.88305 0.45142 -0.02400
C 	C 	0.93510 0.85725 0.43317 -0.01500
C 	C 	0.88737 0.86123 0.47122 -0.01500
H 	H 	0.96189 0.87350 0.41745 0.04000
H 	H 	0.87755 0.88075 0.48545 0.03900
C 	C 	0.94486 0.89922 0.99021 -0.02600
C 	C 	0.95573 0.87384 0.96959 -0.01500
C 	C 	0.88516 0.82833 0.00873 -0.05400
C 	C 	0.90907 0.87612 0.00952 -0.01400
H 	H 	0.98280 0.89109 0.95422 0.04000
H 	H 	0.90045 0.89529 0.02562 0.04000
H 	H 	0.10916 0.01328 0.02529 0.04000
