data_crystal

_cell_length_a 35.16692
_cell_length_b 35.76547
_cell_length_c 26.52110
_cell_angle_alpha 95.60301
_cell_angle_beta  95.60495
_cell_angle_gamma 125.38149

_symmetry_space_group_name_	'P 1'
_symmetry_space_group_name_H-M	'P 1'

loop_
_symmetry_equiv_pos_as_xyz
  x,y,z

loop_
_atom_site_label
_atom_site_type_symbol
_atom_site_fract_x
_atom_site_fract_y
_atom_site_fract_z
_atom_site_charge
C 	C 	0.97886 0.02357 0.99959 0.11700
N 	N 	0.02592 0.04853 0.99796 -0.14000
C 	C 	0.04691 0.02659 0.99333 0.11800
N 	N 	0.00287 0.02561 0.42118 -0.14000
C 	C 	0.02648 0.00677 0.43045 0.11900
Cu	Cu	0.65199 0.26519 0.99384 0.92900
Cu	Cu	0.68914 0.26532 0.88546 0.86800
Cu	Cu	0.67864 0.33830 0.92653 0.89700
Cu	Cu	0.66009 0.35642 0.02996 0.89500
C 	C 	0.67094 0.30305 0.10096 0.28700
O 	O 	0.58438 0.24337 0.99402 -0.36200
C 	C 	0.66837 0.30945 0.81492 0.28100
O 	O 	0.69398 0.33815 0.99799 -0.63600
O 	O 	0.64558 0.26965 0.92035 -0.64200
O 	O 	0.67663 0.22727 0.98952 -0.37300
O 	O 	0.73166 0.27430 0.94350 -0.44000
O 	O 	0.64968 0.32224 0.08809 -0.38000
O 	O 	0.71481 0.40556 0.93565 -0.38000
C 	C 	0.71000 0.43218 0.96849 0.29700
C 	C 	0.56821 0.26519 0.97444 0.28300
O 	O 	0.59818 0.30886 0.96950 -0.39600
O 	O 	0.69389 0.41951 0.01143 -0.39200
O 	O 	0.66873 0.27209 0.06690 -0.35900
C 	C 	0.71678 0.24336 0.97365 0.29200
O 	O 	0.66829 0.33701 0.85200 -0.37300
O 	O 	0.66242 0.27068 0.82274 -0.41800
H 	H 	0.72840 0.35704 0.01244 0.16800
H 	H 	0.61266 0.25053 0.90043 0.17400
Cu	Cu	0.73042 0.33975 0.42660 0.92800
Cu	Cu	0.72828 0.30331 0.53561 0.86800
Cu	Cu	0.65537 0.31444 0.49300 0.89700
Cu	Cu	0.64072 0.33666 0.39082 0.89500
C 	C 	0.69489 0.32523 0.31886 0.28700
O 	O 	0.75653 0.40747 0.42680 -0.36300
C 	C 	0.68409 0.32508 0.60518 0.28100
O 	O 	0.65638 0.30084 0.42163 -0.64100
O 	O 	0.72527 0.34652 0.50008 -0.64000
O 	O 	0.76587 0.31188 0.43056 -0.37100
O 	O 	0.71647 0.26021 0.47762 -0.43900
O 	O 	0.67497 0.34572 0.33215 -0.38200
O 	O 	0.58689 0.27876 0.48248 -0.37900
C 	C 	0.55967 0.27928 0.44487 0.29200
C 	C 	0.73550 0.42511 0.44529 0.28300
O 	O 	0.69120 0.39695 0.45108 -0.39300
O 	O 	0.57791 0.30833 0.41222 -0.39200
O 	O 	0.72317 0.32345 0.35351 -0.35700
C 	C 	0.74823 0.27290 0.44812 0.29200
O 	O 	0.65523 0.32340 0.56744 -0.37300
O 	O 	0.72356 0.33096 0.59759 -0.41800
H 	H 	0.63630 0.26718 0.40602 0.17000
H 	H 	0.74480 0.37892 0.51995 0.17500
C 	C 	0.66764 0.31833 0.76187 -0.06800
C 	C 	0.63033 0.28324 0.72223 -0.01100
C 	C 	0.63355 0.28686 0.67047 -0.00200
C 	C 	0.67480 0.32575 0.65811 -0.06800
C 	C 	0.71024 0.36262 0.69777 -0.01100
C 	C 	0.70675 0.35925 0.74954 -0.00200
H 	H 	0.59952 0.25237 0.73169 0.04100
H 	H 	0.74137 0.39319 0.68832 0.04100
C 	C 	0.74433 0.39714 0.78973 0.07000
C 	C 	0.59522 0.24966 0.63029 0.06900
N 	N 	0.77442 0.42749 0.82192 -0.11900
N 	N 	0.56453 0.21987 0.59811 -0.11900
C 	C 	0.69689 0.31714 0.26412 -0.06300
C 	C 	0.72638 0.35557 0.24132 -0.00800
C 	C 	0.72090 0.35053 0.18754 0.00100
C 	C 	0.68557 0.30660 0.15616 -0.06500
C 	C 	0.65930 0.26731 0.17906 -0.00700
C 	C 	0.66475 0.27240 0.23293 -0.00100
H 	H 	0.75213 0.38980 0.26541 0.04500
H 	H 	0.63288 0.23324 0.15497 0.04700
C 	C 	0.63614 0.23185 0.25583 0.07000
C 	C 	0.75098 0.39080 0.16478 0.06300
N 	N 	0.61324 0.19938 0.27422 -0.12000
N 	N 	0.77505 0.42303 0.14651 -0.12400
H 	H 	0.70758 0.47379 0.49359 0.03400
C 	C 	0.76718 0.24570 0.43897 -0.09800
C 	C 	0.78808 0.24790 0.39573 0.02200
C 	C 	0.80585 0.22189 0.38745 -0.07300
C 	C 	0.80283 0.19359 0.42230 0.04700
C 	C 	0.78198 0.19132 0.46531 -0.07500
C 	C 	0.76426 0.21721 0.47369 0.01900
C 	C 	0.82165 0.16725 0.41455 -0.03200
C 	C 	0.83687 0.14459 0.40977 0.00100
C 	C 	0.85454 0.11781 0.40607 -0.00400
C 	C 	0.86968 0.09495 0.40432 -0.02400
C 	C 	0.88805 0.06788 0.40371 0.03100
C 	C 	0.92504 0.07932 0.37742 -0.05400
C 	C 	0.94587 0.05592 0.38079 -0.01500
C 	C 	0.92996 0.02097 0.41074 -0.02400
C 	C 	0.89181 0.00856 0.43569 -0.01700
C 	C 	0.87101 0.03198 0.43219 -0.05400
H 	H 	0.79027 0.26939 0.36840 0.04000
H 	H 	0.82194 0.22379 0.35406 0.05300
H 	H 	0.77966 0.16962 0.49247 0.04800
H 	H 	0.74865 0.21544 0.50744 0.01500
H 	H 	0.93822 0.10686 0.35510 0.04600
H 	H 	0.97473 0.06535 0.36065 0.03900
H 	H 	0.84234 0.02289 0.45254 0.04600
C 	C 	0.50801 0.25148 0.44359 -0.08700
C 	C 	0.49000 0.24034 0.48924 0.01900
C 	C 	0.44119 0.21554 0.48811 -0.07000
C 	C 	0.41003 0.20165 0.44148 0.04600
C 	C 	0.42774 0.21212 0.39579 -0.07100
C 	C 	0.47652 0.23689 0.39678 0.01800
C 	C 	0.35992 0.17711 0.44062 -0.03000
C 	C 	0.31800 0.15658 0.44004 0.00200
C 	C 	0.26891 0.13248 0.43940 -0.00300
C 	C 	0.22695 0.11172 0.43876 -0.02400
C 	C 	0.17677 0.08658 0.43793 0.03300
C 	C 	0.15512 0.05431 0.47047 -0.05400
C 	C 	0.10617 0.02872 0.46855 -0.01400
C 	C 	0.07842 0.03518 0.43393 -0.02300
C 	C 	0.10037 0.06804 0.40183 -0.01400
C 	C 	0.14938 0.09360 0.40383 -0.05400
H 	H 	0.51381 0.25152 0.52568 0.04500
H 	H 	0.42768 0.20746 0.52356 0.05300
H 	H 	0.40379 0.20126 0.35955 0.05100
H 	H 	0.48981 0.24472 0.36120 0.02900
H 	H 	0.17615 0.04886 0.49706 0.04700
H 	H 	0.08983 0.00393 0.49399 0.04000
H 	H 	0.07940 0.07322 0.37476 0.04000
H 	H 	0.16593 0.11853 0.37857 0.04700
C 	C 	0.74395 0.22506 0.98741 -0.09700
C 	C 	0.79295 0.25202 0.98740 0.01800
C 	C 	0.81781 0.23295 0.99507 -0.07200
C 	C 	0.79400 0.18690 0.00293 0.04400
C 	C 	0.74554 0.16049 0.00498 -0.07600
C 	C 	0.72057 0.17949 0.99735 0.02200
C 	C 	0.81859 0.16585 0.00551 -0.03200
C 	C 	0.83958 0.14863 0.00761 0.00000
C 	C 	0.86421 0.12851 0.00898 -0.00500
C 	C 	0.88520 0.11127 0.00935 -0.02500
C 	C 	0.91014 0.09054 0.00892 0.02900
C 	C 	0.94803 0.10738 0.98254 -0.05300
C 	C 	0.97086 0.08590 0.97996 -0.01200
C 	C 	0.95589 0.04730 0.00379 -0.02900
C 	C 	0.91829 0.03093 0.03082 -0.01500
C 	C 	0.89551 0.05248 0.03330 -0.05500
H 	H 	0.81164 0.28748 0.98072 0.03000
H 	H 	0.85537 0.25368 0.99385 0.05000
H 	H 	0.72696 0.12491 0.01130 0.05100
H 	H 	0.68284 0.15831 0.99762 0.03400
H 	H 	0.95948 0.13678 0.96355 0.04600
H 	H 	0.99960 0.09874 0.95873 0.03800
H 	H 	0.86629 0.03936 0.05387 0.04600
C 	C 	0.51663 0.24267 0.96436 -0.09000
C 	C 	0.48404 0.19393 0.95857 0.01900
C 	C 	0.43567 0.17320 0.95593 -0.07200
C 	C 	0.41946 0.20091 0.95875 0.04700
C 	C 	0.45144 0.24922 0.96183 -0.07200
C 	C 	0.49985 0.27007 0.96453 0.01800
C 	C 	0.37078 0.18028 0.96254 -0.03000
C 	C 	0.32995 0.16263 0.96569 0.00200
C 	C 	0.28232 0.14159 0.97047 -0.00200
C 	C 	0.24172 0.12316 0.97530 -0.02400
C 	C 	0.19329 0.10042 0.98172 0.03500
C 	C 	0.17307 0.06454 0.01021 -0.05700
C 	C 	0.12557 0.04117 0.01502 -0.01700
C 	C 	0.09786 0.05350 0.99128 -0.02100
C 	C 	0.11851 0.09018 0.96363 -0.01400
C 	C 	0.16609 0.11351 0.95883 -0.05500
H 	H 	0.49626 0.17221 0.95721 0.03300
H 	H 	0.41101 0.13573 0.95298 0.05100
H 	H 	0.43905 0.27080 0.96360 0.05100
H 	H 	0.52440 0.30764 0.96852 0.03000
H 	H 	0.19404 0.05449 0.02830 0.04700
H 	H 	0.09749 0.09993 0.94496 0.04000
H 	H 	0.18158 0.14136 0.93688 0.04700
C 	C 	0.75947 0.47614 0.45334 -0.09000
C 	C 	0.73900 0.49544 0.47734 0.01500
H 	H 	0.67780 0.48293 0.99446 0.03100
H 	H 	0.81748 0.49114 0.41545 0.03800
C 	C 	0.73048 0.48041 0.96180 -0.08700
H 	H 	0.11025 0.01334 0.03700 0.03900
C 	C 	0.80095 0.50525 0.43367 0.01700
C 	C 	0.71018 0.50228 0.97912 0.02100
H 	H 	0.78798 0.48932 0.92748 0.04100
C 	C 	0.77195 0.50573 0.94104 0.02200
H 	H 	0.90675 0.00159 0.04993 0.04000
C 	C 	0.75843 0.54262 0.47943 -0.07100
H 	H 	0.87919 0.98177 0.45898 0.04300
C 	C 	0.95508 0.99959 0.41852 0.11900
N 	N 	0.02077 0.97965 0.99033 -0.13700
C 	C 	0.97379 0.95457 0.99200 0.11700
N 	N 	0.95287 0.97658 0.99658 -0.13900
N 	N 	0.00220 0.96180 0.43714 -0.13700
C 	C 	0.95449 0.93561 0.43460 0.11700
N 	N 	0.93089 0.95449 0.42512 -0.14000
C 	C 	0.82036 0.55246 0.43597 -0.07100
C 	C 	0.79866 0.57101 0.45802 0.04500
C 	C 	0.81658 0.61872 0.45696 -0.03000
C 	C 	0.83155 0.65864 0.45610 0.00100
C 	C 	0.84925 0.70540 0.45477 -0.00300
C 	C 	0.86500 0.74545 0.45348 -0.02400
C 	C 	0.88493 0.79357 0.45194 0.03200
C 	C 	0.92739 0.82929 0.48543 -0.05400
C 	C 	0.94920 0.87586 0.48101 -0.01500
C 	C 	0.92868 0.88710 0.44294 -0.02300
C 	C 	0.88520 0.85136 0.41062 -0.01500
C 	C 	0.86348 0.80471 0.41504 -0.05400
H 	H 	0.85177 0.57436 0.41977 0.05100
H 	H 	0.74177 0.55688 0.49702 0.05100
H 	H 	0.94402 0.82095 0.51426 0.04700
H 	H 	0.98239 0.90316 0.50666 0.03900
H 	H 	0.86901 0.85954 0.38109 0.04100
H 	H 	0.83054 0.77725 0.38911 0.04700
C 	C 	0.79386 0.55292 0.93960 -0.07100
C 	C 	0.77441 0.57502 0.95865 0.04700
C 	C 	0.73210 0.54941 0.97756 -0.07100
C 	C 	0.79943 0.62455 0.96187 -0.03000
C 	C 	0.82041 0.66602 0.96455 0.00200
C 	C 	0.84543 0.71471 0.96864 -0.00200
C 	C 	0.86716 0.75641 0.97281 -0.02400
C 	C 	0.89359 0.80630 0.97843 0.03400
C 	C 	0.94044 0.83545 0.00593 -0.05500
C 	C 	0.96639 0.88390 0.01107 -0.02200
C 	C 	0.94563 0.90358 0.98863 -0.01900
C 	C 	0.89841 0.87424 0.96159 -0.01600
C 	C 	0.87253 0.82576 0.95652 -0.05400
H 	H 	0.82649 0.57252 0.92474 0.05300
H 	H 	0.71669 0.56622 0.99200 0.05200
H 	H 	0.95683 0.82061 0.02324 0.04600
H 	H 	0.00258 0.90612 0.03252 0.04400
H 	H 	0.88205 0.88891 0.94382 0.04200
H 	H 	0.83624 0.80337 0.93532 0.04700
