data_crystal

_cell_length_a 25.51878
_cell_length_b 27.09083
_cell_length_c 30.21689
_cell_angle_alpha 61.04667
_cell_angle_beta  118.59757
_cell_angle_gamma 133.26577

_symmetry_space_group_name_	'P 1'
_symmetry_space_group_name_H-M	'P 1'

loop_
_symmetry_equiv_pos_as_xyz
  x,y,z

loop_
_atom_site_label
_atom_site_type_symbol
_atom_site_fract_x
_atom_site_fract_y
_atom_site_fract_z
_atom_site_charge
O 	O 	0.04087 0.16708 0.16876 -0.37100
C 	C 	0.04188 0.02304 0.30020 0.38400
O 	O 	0.03493 0.07404 0.27255 -0.41000
O 	O 	0.01818 0.00212 0.63504 -0.55600
O 	O 	0.00403 0.96974 0.77155 -0.39900
C 	C 	0.00598 0.97187 0.85168 -0.09000
C 	C 	0.03380 0.95373 0.00986 0.31200
O 	O 	0.03988 0.01056 0.13911 -0.55600
O 	O 	0.04650 0.99514 0.27778 -0.44200
C 	C 	0.03794 0.95745 0.51051 0.30400
C 	C 	0.02345 0.96280 0.95447 -0.12100
C 	C 	0.04625 0.99891 0.35652 -0.16500
C 	C 	0.03803 0.97330 0.45623 -0.10500
H 	H 	0.03087 0.70248 0.77256 0.06500
C 	C 	0.72530 0.32471 0.01552 0.10200
N 	N 	0.77124 0.38762 0.02739 -0.12200
C 	C 	0.74231 0.41650 0.02515 0.10300
N 	N 	0.66792 0.38186 0.01230 -0.11700
C 	C 	0.62219 0.31887 0.00128 0.10600
N 	N 	0.65098 0.29082 0.00225 -0.11800
C 	C 	0.69612 0.30938 0.51145 0.10100
N 	N 	0.74417 0.37427 0.52049 -0.12700
C 	C 	0.71775 0.40619 0.51696 0.10000
N 	N 	0.64379 0.37310 0.50497 -0.11000
C 	C 	0.59587 0.30799 0.49707 0.10100
N 	N 	0.62209 0.27652 0.49973 -0.11800
C 	C 	0.28176 0.64670 0.27650 0.09900
N 	N 	0.23123 0.58285 0.26562 -0.11500
C 	C 	0.24677 0.56457 0.24124 0.10100
N 	N 	0.31251 0.61001 0.22773 -0.12200
C 	C 	0.36401 0.67280 0.23998 0.09900
N 	N 	0.34885 0.69095 0.26472 -0.12200
C 	C 	0.27950 0.63789 0.79324 0.09800
N 	N 	0.23514 0.57009 0.79110 -0.11600
C 	C 	0.26238 0.54474 0.78568 0.09900
N 	N 	0.33376 0.58710 0.78246 -0.11300
C 	C 	0.37722 0.65532 0.78256 0.09900
N 	N 	0.35015 0.68069 0.78798 -0.12900
Co	Co	0.11964 0.98185 0.17840 1.17200
Co	Co	0.93278 0.98788 0.13119 1.16700
Co	Co	0.07500 0.04981 0.20650 1.19500
Co	Co	0.98182 0.92766 0.09822 1.17900
C 	C 	0.11586 0.85137 0.23189 0.26600
Co	Co	0.08656 0.88832 0.11670 1.17000
Co	Co	0.95955 0.06799 0.20116 1.17700
O 	O 	0.99315 0.03694 0.17473 -0.74900
C 	C 	0.11172 0.19317 0.18773 0.26200
O 	O 	0.15473 0.03988 0.22338 -0.44600
O 	O 	0.90043 0.93466 0.08323 -0.47200
C 	C 	0.89232 0.08626 0.08779 0.27200
C 	C 	0.23162 0.02358 0.13415 0.31300
C 	C 	0.92517 0.78390 0.11110 0.27300
O 	O 	0.13689 0.15651 0.20161 -0.35800
O 	O 	0.19913 0.95646 0.14541 -0.41000
O 	O 	0.21327 0.04702 0.14946 -0.36900
O 	O 	0.87939 0.06305 0.13336 -0.37800
O 	O 	0.91146 0.05985 0.07660 -0.35600
O 	O 	0.97636 0.81534 0.08756 -0.39600
O 	O 	0.92408 0.82032 0.12736 -0.38700
O 	O 	0.06409 0.94118 0.12959 -0.76900
C 	C 	0.83339 0.91801 0.20298 0.26100
O 	O 	0.88380 0.96392 0.23169 -0.40500
O 	O 	0.85257 0.90848 0.17543 -0.37800
O 	O 	0.07669 0.82523 0.19083 -0.38200
O 	O 	0.11168 0.89492 0.23633 -0.38300
O 	O 	0.09210 0.95580 0.04369 -0.40300
O 	O 	0.98853 0.95086 0.02313 -0.39200
Co	Co	0.09953 0.97493 0.67856 1.17200
Co	Co	0.90637 0.97522 0.62021 1.16700
Co	Co	0.03997 0.03273 0.70298 1.19300
Co	Co	0.97024 0.92593 0.59117 1.17800
C 	C 	0.09618 0.84396 0.73266 0.26400
Co	Co	0.07900 0.88663 0.61894 1.17100
Co	Co	0.91020 0.03611 0.69321 1.17700
O 	O 	0.99319 0.13964 0.66827 -0.36400
O 	O 	0.95720 0.01686 0.66800 -0.74800
C 	C 	0.06396 0.16742 0.69076 0.26500
O 	O 	0.12558 0.02924 0.72284 -0.44500
O 	O 	0.88676 0.93297 0.56938 -0.47700
C 	C 	0.85720 0.06668 0.57817 0.27300
C 	C 	0.99061 0.98983 0.79448 0.24700
C 	C 	0.21982 0.02068 0.64158 0.31200
C 	C 	0.91520 0.78328 0.60144 0.27400
O 	O 	0.09438 0.13648 0.70174 -0.36400
O 	O 	0.18862 0.95375 0.65384 -0.41000
O 	O 	0.19744 0.04297 0.65413 -0.36700
O 	O 	0.83687 0.03613 0.62194 -0.37600
O 	O 	0.88541 0.04817 0.56764 -0.35500
O 	O 	0.97773 0.03703 0.76775 -0.36800
O 	O 	0.97207 0.81557 0.58352 -0.40200
O 	O 	0.90950 0.81795 0.61586 -0.39100
O 	O 	0.05004 0.93648 0.62865 -0.76600
C 	C 	0.79097 0.88967 0.68245 0.26100
O 	O 	0.83266 0.92931 0.71550 -0.39800
O 	O 	0.82102 0.88749 0.65835 -0.38800
O 	O 	0.05948 0.82009 0.69073 -0.37600
O 	O 	0.09250 0.88806 0.73696 -0.37900
O 	O 	0.09351 0.95772 0.54764 -0.39700
O 	O 	0.99119 0.95732 0.51932 -0.39700
C 	C 	0.95693 0.91134 0.92876 -0.03700
C 	C 	0.08196 0.01898 0.92863 0.11900
C 	C 	0.07350 0.02153 0.87822 -0.01800
C 	C 	0.94799 0.91501 0.87774 0.06400
C 	C 	0.87496 0.86052 0.85031 -0.19400
H 	H 	0.91227 0.86796 0.94863 0.04900
H 	H 	0.11810 0.06492 0.85828 0.04800
C 	C 	0.15359 0.07613 0.95451 -0.21100
H 	H 	0.84294 0.81185 0.87853 0.07200
H 	H 	0.88373 0.84640 0.82680 0.08000
H 	H 	0.84171 0.88108 0.82444 0.07600
H 	H 	0.18765 0.05704 0.98253 0.09700
H 	H 	0.14306 0.09216 0.97517 0.09100
H 	H 	0.18571 0.12343 0.92571 0.07700
C 	C 	0.98198 0.93961 0.37470 -0.02300
C 	C 	0.10843 0.04332 0.38967 0.13200
C 	C 	0.10324 0.03114 0.43869 -0.01400
C 	C 	0.97736 0.92620 0.42441 0.06500
C 	C 	0.90864 0.86076 0.44370 -0.19600
H 	H 	0.93441 0.90535 0.34933 0.04100
H 	H 	0.15038 0.06644 0.46348 0.05600
C 	C 	0.17932 0.10576 0.37199 -0.22100
H 	H 	0.86575 0.83035 0.41372 0.07100
H 	H 	0.88431 0.87434 0.45411 0.07700
H 	H 	0.92263 0.82671 0.47828 0.07800
H 	H 	0.17378 0.14875 0.34541 0.09800
H 	H 	0.19218 0.09175 0.35139 0.09300
H 	H 	0.22684 0.12492 0.40549 0.08400
C 	C 	0.13498 0.33086 0.69606 0.11900
C 	C 	0.11706 0.37046 0.69464 -0.08900
C 	C 	0.14486 0.39284 0.73923 0.02300
C 	C 	0.19310 0.38131 0.78200 0.11600
C 	C 	0.21060 0.34122 0.78363 -0.08300
C 	C 	0.18239 0.31841 0.73915 0.01100
O 	O 	0.08924 0.28311 0.66577 -0.18100
C 	C 	0.11225 0.23960 0.69547 0.04800
C 	C 	0.16785 0.26028 0.73931 -0.05500
O 	O 	0.23931 0.42985 0.81174 -0.19700
C 	C 	0.21467 0.47208 0.78239 0.10400
C 	C 	0.15835 0.45033 0.73914 -0.08500
H 	H 	0.08033 0.38100 0.66077 0.07100
H 	H 	0.24722 0.33059 0.81755 0.06900
H 	H 	0.17790 0.22530 0.77395 0.05600
H 	H 	0.14696 0.48454 0.70458 0.06500
C 	C 	0.55114 0.73001 0.77140 0.11300
C 	C 	0.59721 0.72023 0.76942 -0.08400
C 	C 	0.62457 0.75563 0.72457 0.00700
C 	C 	0.60937 0.80109 0.68417 0.12200
C 	C 	0.56306 0.81058 0.68627 -0.09500
C 	C 	0.53768 0.77685 0.73175 0.02100
O 	O 	0.49889 0.68014 0.80147 -0.19800
C 	C 	0.45285 0.70177 0.77590 0.10000
C 	C 	0.47530 0.75909 0.73422 -0.08900
O 	O 	0.66238 0.85228 0.65482 -0.20200
C 	C 	0.71250 0.83535 0.68265 0.04100
C 	C 	0.69002 0.77739 0.72401 -0.05200
H 	H 	0.60981 0.68499 0.80111 0.06800
H 	H 	0.55064 0.84603 0.65473 0.06400
H 	H 	0.43869 0.77104 0.70152 0.06000
H 	H 	0.72752 0.76801 0.75804 0.05100
C 	C 	0.18595 0.66815 0.82325 0.11400
C 	C 	0.12439 0.66403 0.81559 -0.08400
C 	C 	0.13677 0.72271 0.81676 0.01000
C 	C 	0.20576 0.78611 0.81730 0.11900
C 	C 	0.26637 0.79157 0.82067 -0.09300
C 	C 	0.25572 0.73024 0.82768 0.02100
O 	O 	0.17994 0.62238 0.80892 -0.19900
C 	C 	0.25249 0.66381 0.80421 0.10000
C 	C 	0.29790 0.72794 0.81530 -0.08600
O 	O 	0.20374 0.84349 0.79501 -0.19600
C 	C 	0.12715 0.80908 0.77894 0.04500
C 	C 	0.08702 0.73699 0.79265 -0.05500
H 	H 	0.06879 0.61857 0.80575 0.07100
H 	H 	0.31849 0.84226 0.81469 0.06700
H 	H 	0.34908 0.77293 0.80297 0.06200
C 	C 	0.15899 0.42219 0.19656 0.11700
C 	C 	0.15841 0.40360 0.16027 -0.08500
C 	C 	0.18347 0.36283 0.17870 0.01400
C 	C 	0.20427 0.33792 0.23116 0.12100
C 	C 	0.20486 0.35660 0.26745 -0.09100
C 	C 	0.17909 0.39681 0.24899 0.02300
O 	O 	0.16696 0.48314 0.18440 -0.20000
C 	C 	0.19642 0.49360 0.23430 0.10400
C 	C 	0.20265 0.44168 0.27305 -0.08400
O 	O 	0.19589 0.27670 0.24339 -0.19300
C 	C 	0.16409 0.26488 0.19373 0.05000
C 	C 	0.15826 0.31701 0.15488 -0.05700
H 	H 	0.14128 0.42219 0.11897 0.07100
H 	H 	0.22178 0.33786 0.30876 0.07100
H 	H 	0.24192 0.44921 0.31033 0.06700
H 	H 	0.11852 0.30946 0.11777 0.06700
C 	C 	0.55134 0.75523 0.25561 0.11400
C 	C 	0.62788 0.80124 0.27309 -0.08400
C 	C 	0.67260 0.83352 0.23979 0.00400
C 	C 	0.64419 0.81881 0.19261 0.11900
C 	C 	0.56769 0.77174 0.17533 -0.09300
C 	C 	0.52251 0.73925 0.20860 0.02500
O 	O 	0.50076 0.74171 0.27368 -0.20200
C 	C 	0.43892 0.71659 0.23278 0.10000
C 	C 	0.45224 0.71710 0.19325 -0.08900
O 	O 	0.69624 0.83760 0.17253 -0.19100
C 	C 	0.75874 0.86495 0.21281 0.04200
C 	C 	0.74376 0.85935 0.25407 -0.05600
H 	H 	0.65133 0.81339 0.31027 0.06400
H 	H 	0.54440 0.76048 0.13781 0.07100
H 	H 	0.41094 0.69207 0.16149 0.06800
H 	H 	0.78425 0.88587 0.28519 0.05100
C 	C 	0.20256 0.67343 0.32468 0.11400
C 	C 	0.14248 0.67047 0.31861 -0.08300
C 	C 	0.15646 0.73060 0.31842 0.00800
C 	C 	0.22558 0.79381 0.31706 0.12000
C 	C 	0.28477 0.79769 0.31977 -0.09300
C 	C 	0.27274 0.73549 0.32725 0.02200
O 	O 	0.19345 0.62665 0.30934 -0.19700
C 	C 	0.26436 0.66705 0.30210 0.10200
C 	C 	0.31189 0.73188 0.31256 -0.08600
O 	O 	0.22403 0.85154 0.29324 -0.19600
C 	C 	0.14758 0.81740 0.27825 0.04400
C 	C 	0.10711 0.74537 0.29402 -0.05300
H 	H 	0.08636 0.62480 0.31019 0.07100
H 	H 	0.33659 0.84795 0.31228 0.06800
H 	H 	0.36021 0.77674 0.29670 0.06600
H 	H 	0.05031 0.71018 0.27512 0.05900
C 	C 	0.84255 0.20392 0.52169 0.12000
C 	C 	0.85758 0.25614 0.53524 -0.08800
C 	C 	0.79762 0.24772 0.53661 0.02100
C 	C 	0.72582 0.19425 0.52052 0.11800
C 	C 	0.71042 0.14368 0.50492 -0.08300
C 	C 	0.77026 0.15033 0.50509 0.01500
O 	O 	0.89175 0.18710 0.54231 -0.18400
C 	C 	0.84210 0.11742 0.53905 0.04800
C 	C 	0.76995 0.09584 0.51581 -0.05200
O 	O 	0.67465 0.20648 0.50684 -0.19700
C 	C 	0.72338 0.27339 0.51561 0.10000
C 	C 	0.79696 0.29855 0.53339 -0.08400
H 	H 	0.91398 0.29868 0.54796 0.07200
H 	H 	0.65389 0.10057 0.49315 0.07600
H 	H 	0.72206 0.04175 0.52247 0.06800
H 	H 	0.84384 0.35297 0.53138 0.06500
C 	C 	0.79106 0.56974 0.52207 0.11500
C 	C 	0.77285 0.61247 0.51387 -0.08400
C 	C 	0.78864 0.63165 0.55674 0.00900
C 	C 	0.82455 0.61216 0.60539 0.12100
C 	C 	0.84074 0.56764 0.61380 -0.09200
C 	C 	0.82615 0.54967 0.57071 0.02200
O 	O 	0.75416 0.52661 0.48969 -0.19800
C 	C 	0.76849 0.47731 0.52404 0.10100
C 	C 	0.81169 0.49087 0.57245 -0.08700
O 	O 	0.86593 0.65856 0.63612 -0.19100
C 	C 	0.85502 0.70982 0.60057 0.03900
C 	C 	0.80698 0.69278 0.55382 -0.05300
H 	H 	0.74612 0.62926 0.47553 0.06800
H 	H 	0.86782 0.55107 0.65205 0.06900
H 	H 	0.81102 0.45126 0.60780 0.06400
H 	H 	0.80662 0.73099 0.51761 0.04700
C 	C 	0.41815 0.23694 0.49840 0.11300
C 	C 	0.37779 0.22669 0.52503 -0.08100
C 	C 	0.31958 0.15805 0.54302 0.00400
C 	C 	0.30857 0.10140 0.54144 0.12200
C 	C 	0.35162 0.11156 0.51747 -0.09400
C 	C 	0.40297 0.18003 0.49313 0.02400
O 	O 	0.48921 0.29725 0.49447 -0.19600
C 	C 	0.51596 0.27079 0.48800 0.10500
C 	C 	0.46491 0.20128 0.48677 -0.08500
O 	O 	0.27486 0.04151 0.57959 -0.17900
C 	C 	0.26789 0.06785 0.60481 0.03300
C 	C 	0.29367 0.13687 0.58308 -0.04400
H 	H 	0.39491 0.27013 0.53487 0.07100
H 	H 	0.34934 0.06828 0.52128 0.07700
H 	H 	0.47886 0.16685 0.49635 0.07400
H 	H 	0.30789 0.17083 0.60233 0.05900
C 	C 	0.75954 0.21406 0.02310 0.11500
C 	C 	0.74711 0.16560 0.00699 -0.07400
C 	C 	0.80875 0.17258 0.01038 0.01000
C 	C 	0.87986 0.22475 0.03017 0.12200
C 	C 	0.89205 0.27506 0.04412 -0.09100
C 	C 	0.83012 0.26586 0.04268 0.02400
O 	O 	0.70783 0.22642 0.00714 -0.19500
C 	C 	0.75491 0.29164 0.01839 0.10100
C 	C 	0.82806 0.31567 0.03966 -0.08400
O 	O 	0.92871 0.20712 0.05325 -0.19300
C 	C 	0.87987 0.13839 0.04806 0.04600
C 	C 	0.80879 0.11822 0.02138 -0.04900
H 	H 	0.69142 0.12369 0.99257 0.06800
H 	H 	0.94751 0.31639 0.05943 0.06900
H 	H 	0.87504 0.36944 0.04060 0.06800
H 	H 	0.76016 0.06431 0.02577 0.06600
C 	C 	0.80021 0.63302 0.06998 0.11900
C 	C 	0.78351 0.61369 0.02694 -0.08000
C 	C 	0.80815 0.57703 0.03353 0.01600
C 	C 	0.84022 0.55306 0.08178 0.11800
C 	C 	0.85561 0.57082 0.12522 -0.08600
C 	C 	0.83446 0.61079 0.11833 0.01400
O 	O 	0.81259 0.69418 0.06403 -0.18700
C 	C 	0.86309 0.71069 0.11107 0.04300
C 	C 	0.87364 0.65946 0.14452 -0.05600
O 	O 	0.83227 0.49487 0.08595 -0.19800
C 	C 	0.79094 0.48553 0.03562 0.09800
C 	C 	0.77693 0.53475 0.00412 -0.07500
H 	H 	0.75672 0.63089 0.98884 0.06300
H 	H 	0.88280 0.55383 0.16316 0.07000
H 	H 	0.92287 0.66939 0.17533 0.05200
H 	H 	0.73082 0.52649 0.97066 0.06000
C 	C 	0.44129 0.24325 0.99879 0.10800
C 	C 	0.39799 0.23179 0.02352 -0.07500
C 	C 	0.34044 0.16262 0.04130 0.00300
C 	C 	0.33328 0.10700 0.04205 0.11800
C 	C 	0.37944 0.11841 0.02035 -0.08500
C 	C 	0.42964 0.18709 0.99546 0.02100
O 	O 	0.51170 0.30484 0.99504 -0.19900
C 	C 	0.54177 0.28003 0.99058 0.09900
C 	C 	0.49321 0.21024 0.99039 -0.09000
O 	O 	0.29800 0.04684 0.07951 -0.17800
C 	C 	0.28551 0.07193 0.10166 0.03300
C 	C 	0.31039 0.14068 0.07906 -0.04800
H 	H 	0.41207 0.27482 0.03181 0.07100
H 	H 	0.37993 0.07608 0.02592 0.07800
H 	H 	0.50969 0.17723 0.00165 0.07900
H 	H 	0.31991 0.17396 0.09625 0.06100
