data_crystal

_cell_length_a 28.84680
_cell_length_b 29.34941
_cell_length_c 19.41900
_cell_angle_alpha 89.99943
_cell_angle_beta  89.99965
_cell_angle_gamma 84.49301

_symmetry_space_group_name_	'P 1'
_symmetry_space_group_name_H-M	'P 1'

loop_
_symmetry_equiv_pos_as_xyz
  x,y,z

loop_
_atom_site_label
_atom_site_type_symbol
_atom_site_fract_x
_atom_site_fract_y
_atom_site_fract_z
_atom_site_charge
Ni	Ni	0.83296 0.87972 0.33112 1.10200
O 	O 	0.76379 0.87206 0.33552 -0.70700
Ni	Ni	0.75158 0.86236 0.23611 1.10400
O 	O 	0.83214 0.91660 0.42085 -0.37600
O 	O 	0.77082 0.96676 0.38521 -0.40100
O 	O 	0.84666 0.81950 0.38469 -0.37100
Ni	Ni	0.71975 0.92130 0.36984 1.07000
O 	O 	0.91083 0.80460 0.28449 -0.40100
O 	O 	0.69579 0.95597 0.28281 -0.38600
O 	O 	0.68042 0.86868 0.24062 -0.36600
O 	O 	0.82215 0.85996 0.23547 -0.71200
O 	O 	0.90250 0.88063 0.32053 -0.38700
O 	O 	0.75261 0.84372 0.13501 -0.36200
O 	O 	0.80008 0.77787 0.15805 -0.39800
Ni	Ni	0.85208 0.79855 0.22471 1.06400
H 	H 	0.75768 0.84394 0.36051 0.15800
H 	H 	0.83411 0.88129 0.20177 0.16300
C 	C 	0.72090 0.96137 0.22755 0.29700
O 	O 	0.81845 0.77149 0.30562 -0.40300
C 	C 	0.80834 0.95727 0.42420 0.25300
C 	C 	0.65838 0.85937 0.29785 0.29000
C 	C 	0.82779 0.78171 0.36980 0.27500
C 	C 	0.77472 0.80482 0.11424 0.28300
C 	C 	0.92906 0.84212 0.30785 0.27600
O 	O 	0.75256 0.92922 0.20737 -0.39100
O 	O 	0.66666 0.88028 0.35699 -0.40000
Ni	Ni	0.72910 0.61702 0.83617 1.10300
O 	O 	0.79808 0.62535 0.84399 -0.70700
Ni	Ni	0.81410 0.63406 0.74580 1.10000
O 	O 	0.72764 0.58414 0.92937 -0.37000
O 	O 	0.79048 0.53378 0.90055 -0.40200
O 	O 	0.71310 0.67890 0.88242 -0.37900
Ni	Ni	0.84189 0.57827 0.88418 1.07200
O 	O 	0.64542 0.67612 0.74745 -0.39400
O 	O 	0.86984 0.54133 0.80134 -0.38400
O 	O 	0.88462 0.63057 0.75733 -0.36300
O 	O 	0.74365 0.63400 0.73980 -0.70800
O 	O 	0.65948 0.61655 0.82453 -0.37500
O 	O 	0.81780 0.65226 0.64435 -0.36300
O 	O 	0.76718 0.71582 0.66417 -0.40800
Ni	Ni	0.71019 0.69267 0.71618 1.07000
H 	H 	0.80252 0.65411 0.86842 0.14600
H 	H 	0.73470 0.61007 0.70784 0.16400
C 	C 	0.84846 0.53543 0.74268 0.31900
O 	O 	0.72666 0.73121 0.79976 -0.38900
C 	C 	0.75329 0.54496 0.93924 0.27600
C 	C 	0.90356 0.64138 0.81634 0.26900
C 	C 	0.73083 0.71633 0.86369 0.26800
C 	C 	0.79421 0.68991 0.62175 0.28100
C 	C 	0.63543 0.65529 0.80567 0.29900
O 	O 	0.81711 0.56660 0.71849 -0.39300
O 	O 	0.89414 0.62030 0.87474 -0.39900
Ni	Ni	0.15479 0.72870 0.70689 1.10000
O 	O 	0.16315 0.79688 0.69926 -0.70900
Ni	Ni	0.14822 0.80765 0.60026 1.10100
O 	O 	0.17211 0.72871 0.80912 -0.35800
O 	O 	0.24076 0.75860 0.78554 -0.40400
O 	O 	0.08683 0.74753 0.73192 -0.39200
Ni	Ni	0.22712 0.81041 0.71247 1.06700
O 	O 	0.12728 0.64543 0.59531 -0.39300
O 	O 	0.25396 0.76408 0.64076 -0.40800
O 	O 	0.15429 0.87601 0.60102 -0.37800
O 	O 	0.14792 0.73823 0.60597 -0.70400
O 	O 	0.14217 0.66131 0.70955 -0.36700
O 	O 	0.11628 0.81258 0.50558 -0.36700
O 	O 	0.05865 0.77018 0.54315 -0.39900
Ni	Ni	0.09421 0.70847 0.57399 1.08000
H 	H 	0.14144 0.81615 0.72912 0.16100
H 	H 	0.17568 0.72253 0.58337 0.15400
C 	C 	0.24726 0.77105 0.57466 0.30100
O 	O 	0.05090 0.70215 0.65671 -0.37700
C 	C 	0.20984 0.74644 0.83038 0.28500
C 	C 	0.19427 0.89161 0.61870 0.27000
C 	C 	0.05358 0.72158 0.71753 0.31800
C 	C 	0.07594 0.79598 0.49574 0.28400
C 	C 	0.14796 0.63434 0.65505 0.27000
O 	O 	0.21213 0.79901 0.55241 -0.36800
O 	O 	0.22943 0.86335 0.64323 -0.39500
Ni	Ni	0.40321 0.76223 0.21598 1.09800
O 	O 	0.40242 0.69479 0.19132 -0.71100
Ni	Ni	0.41736 0.69566 0.09116 1.09700
O 	O 	0.38482 0.74963 0.31553 -0.36500
O 	O 	0.31948 0.71818 0.28108 -0.40400
O 	O 	0.47138 0.75202 0.25081 -0.36800
Ni	Ni	0.33950 0.67559 0.19821 1.06400
O 	O 	0.46070 0.84447 0.16944 -0.41400
O 	O 	0.31084 0.72714 0.13640 -0.41300
O 	O 	0.41579 0.62701 0.07583 -0.37900
O 	O 	0.41261 0.76480 0.11251 -0.69300
O 	O 	0.39993 0.83025 0.23792 -0.37400
O 	O 	0.44944 0.69827 0.99693 -0.36400
O 	O 	0.47985 0.76682 0.99660 -0.39800
Ni	Ni	0.46643 0.79853 0.09090 1.07100
H 	H 	0.42553 0.67446 0.21738 0.15900
H 	H 	0.38452 0.78110 0.09144 0.15000
C 	C 	0.31560 0.72462 0.06943 0.28200
O 	O 	0.50914 0.75431 0.14736 -0.41500
C 	C 	0.34766 0.72898 0.33055 0.26800
C 	C 	0.37700 0.60743 0.08770 0.27400
C 	C 	0.50897 0.75869 0.21472 0.28100
C 	C 	0.48487 0.72240 0.98582 0.27500
C 	C 	0.42064 0.85820 0.19822 0.27100
O 	O 	0.35413 0.70504 0.04202 -0.37000
O 	O 	0.34047 0.63063 0.11713 -0.40600
Ni	Ni	0.34335 0.11843 0.34397 1.10300
O 	O 	0.27292 0.12209 0.33142 -0.70300
Ni	Ni	0.25111 0.13870 0.42576 1.10200
O 	O 	0.35706 0.07527 0.26190 -0.37200
O 	O 	0.30534 0.02765 0.30314 -0.39900
O 	O 	0.34554 0.17361 0.27972 -0.37900
Ni	Ni	0.24272 0.06901 0.30149 1.07900
O 	O 	0.40989 0.19084 0.41791 -0.40100
O 	O 	0.22004 0.03960 0.39005 -0.38800
O 	O 	0.18198 0.12935 0.41328 -0.37400
O 	O 	0.32148 0.14327 0.43500 -0.70200
O 	O 	0.41231 0.12289 0.35809 -0.38500
O 	O 	0.23867 0.16621 0.52157 -0.36200
O 	O 	0.27816 0.22727 0.49322 -0.40000
Ni	Ni	0.34104 0.20432 0.44653 1.07100
H 	H 	0.26267 0.14807 0.30076 0.16100
H 	H 	0.33510 0.12299 0.47201 0.16200
C 	C 	0.24031 0.04056 0.45052 0.32200
O 	O 	0.31460 0.22879 0.35477 -0.40500
C 	C 	0.33989 0.03526 0.26148 0.28200
C 	C 	0.16112 0.13006 0.35240 0.29800
C 	C 	0.33191 0.21657 0.29424 0.28600
C 	C 	0.25886 0.20262 0.54003 0.26600
C 	C 	0.42651 0.16413 0.36669 0.29700
O 	O 	0.26363 0.07495 0.46822 -0.38900
O 	O 	0.18044 0.10790 0.29830 -0.39800
Ni	Ni	0.22733 0.39109 0.83364 1.09900
O 	O 	0.29727 0.37516 0.81454 -0.70000
Ni	Ni	0.31841 0.35668 0.90986 1.09900
O 	O 	0.21322 0.42701 0.74431 -0.36200
O 	O 	0.28407 0.44743 0.71088 -0.40100
O 	O 	0.21398 0.33155 0.78504 -0.37200
Ni	Ni	0.33267 0.42566 0.78609 1.06800
O 	O 	0.15626 0.32558 0.89409 -0.38900
O 	O 	0.30229 0.46620 0.86231 -0.42000
O 	O 	0.38678 0.34141 0.88738 -0.38900
O 	O 	0.24848 0.37017 0.92687 -0.71000
O 	O 	0.15843 0.40026 0.85767 -0.38300
O 	O 	0.33037 0.33321 0.00813 -0.36000
O 	O 	0.27420 0.28411 0.00304 -0.39900
Ni	Ni	0.21886 0.31377 0.94471 1.07500
H 	H 	0.30359 0.34920 0.78241 0.15500
H 	H 	0.24067 0.39393 0.96226 0.17300
C 	C 	0.31635 0.46038 0.92658 0.29600
O 	O 	0.24859 0.27992 0.86170 -0.41000
C 	C 	0.23962 0.45842 0.72341 0.29800
C 	C 	0.41175 0.37172 0.85972 0.30000
C 	C 	0.23662 0.29157 0.79842 0.30000
C 	C 	0.30181 0.30784 0.03944 0.29700
C 	C 	0.13513 0.36431 0.86901 0.30500
O 	O 	0.33282 0.41942 0.94893 -0.35600
O 	O 	0.39236 0.41284 0.84291 -0.40500
Ni	Ni	0.91512 0.26829 0.67375 1.09800
O 	O 	0.91497 0.19941 0.65599 -0.70300
Ni	Ni	0.92752 0.19540 0.55445 1.09800
O 	O 	0.89309 0.26317 0.77338 -0.37200
O 	O 	0.83046 0.22746 0.73807 -0.41100
O 	O 	0.98206 0.25955 0.70943 -0.38800
Ni	Ni	0.85691 0.17275 0.67666 1.06500
O 	O 	0.95387 0.35809 0.58390 -0.40500
O 	O 	0.81349 0.19707 0.59783 -0.40300
O 	O 	0.92127 0.12709 0.53731 -0.37600
O 	O 	0.92719 0.26401 0.57290 -0.70100
O 	O 	0.91903 0.33679 0.68503 -0.38000
O 	O 	0.95579 0.20028 0.45798 -0.36800
O 	O 	0.01527 0.23826 0.49969 -0.38500
Ni	Ni	0.98048 0.29600 0.54511 1.06800
H 	H 	0.94103 0.18221 0.68085 0.15600
H 	H 	0.89964 0.28025 0.55023 0.14500
C 	C 	0.82473 0.19650 0.53209 0.28200
O 	O 	0.02617 0.28638 0.62498 -0.38300
C 	C 	0.85502 0.24388 0.78797 0.26300
C 	C 	0.88736 0.10562 0.56501 0.29400
C 	C 	0.01256 0.28718 0.68923 0.30400
C 	C 	0.99724 0.21483 0.45016 0.23700
C 	C 	0.92128 0.36526 0.63256 0.26200
O 	O 	0.86362 0.21180 0.51180 -0.38900
O 	O 	0.87628 0.11123 0.63084 -0.41700
Ni	Ni	0.66638 0.22368 0.16557 1.10100
O 	O 	0.67136 0.29251 0.16592 -0.71100
Ni	Ni	0.65457 0.30734 0.06911 1.10200
O 	O 	0.68390 0.22010 0.26744 -0.36600
O 	O 	0.75129 0.25349 0.24657 -0.40100
O 	O 	0.59809 0.23959 0.19093 -0.39600
Ni	Ni	0.73388 0.30929 0.18057 1.06600
O 	O 	0.64460 0.14530 0.04579 -0.40400
O 	O 	0.76339 0.26971 0.10210 -0.40700
O 	O 	0.65578 0.37586 0.07887 -0.38500
O 	O 	0.65904 0.23770 0.06594 -0.70700
O 	O 	0.65602 0.15560 0.16291 -0.37700
O 	O 	0.62146 0.31472 0.97594 -0.37300
O 	O 	0.56660 0.26803 0.00982 -0.40500
Ni	Ni	0.60682 0.20683 0.03119 1.07200
H 	H 	0.64901 0.30915 0.19794 0.16100
H 	H 	0.68749 0.22483 0.04180 0.15400
C 	C 	0.75477 0.27986 0.03723 0.30000
O 	O 	0.56601 0.19280 0.11403 -0.38300
C 	C 	0.72232 0.23592 0.29006 0.28200
C 	C 	0.69525 0.39346 0.09344 0.27400
C 	C 	0.56606 0.21277 0.17468 0.29900
C 	C 	0.58072 0.29888 0.96702 0.25900
C 	C 	0.66081 0.13014 0.10657 0.29600
O 	O 	0.71758 0.30655 0.01961 -0.37300
O 	O 	0.73182 0.36781 0.12029 -0.39300
C 	C 	0.83476 0.24954 0.85748 -0.04900
C 	C 	0.80562 0.21781 0.88289 -0.02700
C 	C 	0.78306 0.22546 0.94611 0.00600
C 	C 	0.78898 0.26512 0.98412 -0.09700
C 	C 	0.82080 0.29531 0.96104 0.08300
C 	C 	0.84359 0.28738 0.89800 -0.04300
H 	H 	0.75900 0.20180 0.96376 0.01500
H 	H 	0.86687 0.31152 0.87950 0.06700
H 	H 	0.79963 0.18776 0.85301 0.02300
I 	I 	0.83344 0.35435 0.01872 -0.11700
C 	C 	0.78746 0.19700 0.48079 -0.05200
C 	C 	0.75349 0.23457 0.47812 -0.02000
C 	C 	0.73045 0.24611 0.41622 -0.00100
C 	C 	0.74050 0.21959 0.35712 -0.09000
C 	C 	0.77033 0.17883 0.36199 0.08200
C 	C 	0.79392 0.16795 0.42356 -0.04500
H 	H 	0.70644 0.27680 0.41348 0.02200
H 	H 	0.82017 0.13901 0.42508 0.05600
H 	H 	0.74785 0.25703 0.52223 0.04000
I 	I 	0.78184 0.13395 0.27660 -0.12200
C 	C 	0.54620 0.32462 0.92334 -0.04400
C 	C 	0.52572 0.30279 0.86875 -0.02500
C 	C 	0.48467 0.32287 0.83895 0.00700
C 	C 	0.46263 0.36378 0.86588 -0.09700
C 	C 	0.48664 0.38854 0.91465 0.08100
C 	C 	0.52854 0.36886 0.94265 -0.04100
H 	H 	0.46745 0.30429 0.79979 0.02300
H 	H 	0.54559 0.38663 0.98292 0.05700
H 	H 	0.54007 0.26913 0.85204 0.02700
I 	I 	0.45922 0.45372 0.95169 -0.09500
C 	C 	0.03536 0.31587 0.73962 -0.04600
C 	C 	0.06119 0.35107 0.71614 -0.00900
C 	C 	0.08841 0.37375 0.76204 0.00900
C 	C 	0.09092 0.36089 0.83164 -0.07900
C 	C 	0.05863 0.33167 0.85696 0.07900
C 	C 	0.03179 0.30838 0.81077 -0.03000
H 	H 	0.11097 0.39810 0.74224 0.05900
H 	H 	0.00922 0.28386 0.83017 0.06900
H 	H 	0.06164 0.35968 0.66191 0.05000
I 	I 	0.05038 0.32190 0.96435 -0.10800
C 	C 	0.53252 0.20105 0.22734 -0.04900
C 	C 	0.52962 0.15525 0.24553 -0.01700
C 	C 	0.49675 0.14375 0.29380 0.00700
C 	C 	0.46602 0.17795 0.32459 -0.08800
C 	C 	0.47072 0.22472 0.30856 0.07200
C 	C 	0.50387 0.23561 0.25999 -0.04000
H 	H 	0.49474 0.10806 0.30654 0.04600
H 	H 	0.50684 0.27112 0.24693 0.05500
H 	H 	0.55306 0.12849 0.22254 0.05700
I 	I 	0.42935 0.28063 0.35492 -0.14600
C 	C 	0.02887 0.19327 0.39788 -0.02600
C 	C 	0.03512 0.14536 0.39321 -0.02900
C 	C 	0.07712 0.12383 0.36836 0.01800
C 	C 	0.11282 0.15012 0.34787 -0.09300
C 	C 	0.10331 0.19783 0.34140 0.07800
C 	C 	0.06124 0.21928 0.36632 -0.04700
H 	H 	0.08357 0.08689 0.37136 0.04000
H 	H 	0.05549 0.25632 0.36653 0.05000
H 	H 	0.00955 0.12482 0.41513 0.06100
I 	I 	0.15386 0.23846 0.30075 -0.13600
C 	C 	0.32771 0.24950 0.23739 -0.04600
C 	C 	0.36392 0.24970 0.18930 -0.01800
C 	C 	0.35633 0.27203 0.12642 0.01400
C 	C 	0.31219 0.29365 0.11048 -0.09000
C 	C 	0.27690 0.29680 0.16089 0.07700
C 	C 	0.28498 0.27502 0.22446 -0.04100
H 	H 	0.38395 0.27018 0.08842 0.04600
H 	H 	0.25730 0.27598 0.26226 0.06600
H 	H 	0.39721 0.23047 0.19918 0.05200
I 	I 	0.21107 0.33361 0.14200 -0.15800
C 	C 	0.25529 0.21885 0.61143 -0.05200
C 	C 	0.29309 0.23758 0.64222 -0.02500
C 	C 	0.28845 0.25701 0.70770 0.00500
C 	C 	0.24573 0.25872 0.74236 -0.09600
C 	C 	0.20902 0.23642 0.71408 0.08000
C 	C 	0.21388 0.21669 0.64859 -0.03700
H 	H 	0.31734 0.27291 0.72995 0.01100
H 	H 	0.18503 0.20094 0.62588 0.06700
H 	H 	0.32576 0.23798 0.61478 0.01200
I 	I 	0.14609 0.23209 0.76919 -0.09500
C 	C 	0.40507 0.90703 0.20020 -0.05800
C 	C 	0.43074 0.93734 0.23647 -0.01400
C 	C 	0.41124 0.98187 0.25002 0.00800
C 	C 	0.36585 0.99613 0.22774 -0.08700
C 	C 	0.34233 0.96728 0.18483 0.07600
C 	C 	0.36181 0.92267 0.17191 -0.04300
H 	H 	0.43002 0.00413 0.28202 0.03900
H 	H 	0.34265 0.89969 0.14174 0.03900
H 	H 	0.46466 0.92567 0.25736 0.04500
I 	I 	0.27697 0.99003 0.14018 -0.17400
C 	C 	0.36784 0.56656 0.04764 -0.04300
C 	C 	0.37130 0.56732 0.97554 -0.01600
C 	C 	0.35092 0.53482 0.93560 0.01300
C 	C 	0.32725 0.50069 0.96723 -0.08400
C 	C 	0.32275 0.50066 0.03964 0.07900
C 	C 	0.34403 0.53270 0.07930 -0.04000
H 	H 	0.35492 0.53528 0.88014 0.03400
H 	H 	0.33981 0.53282 0.13477 0.04600
H 	H 	0.38839 0.59404 0.95023 0.05500
I 	I 	0.28053 0.45552 0.09036 -0.11900
C 	C 	0.20566 0.93568 0.58872 -0.03800
C 	C 	0.17048 0.96605 0.55958 -0.02300
C 	C 	0.18211 0.00173 0.51718 0.01400
C 	C 	0.22898 0.00744 0.50328 -0.09700
C 	C 	0.26437 0.97910 0.53630 0.08400
C 	C 	0.25254 0.94425 0.58028 -0.04500
H 	H 	0.15462 0.02410 0.49331 0.04500
H 	H 	0.28000 0.92237 0.60494 0.06800
H 	H 	0.13415 0.96109 0.56768 0.05300
I 	I 	0.33596 0.98488 0.51558 -0.11800
C 	C 	0.27432 0.73104 0.02586 -0.05200
C 	C 	0.25911 0.77480 0.00149 -0.02400
C 	C 	0.23342 0.77972 0.94047 0.00400
C 	C 	0.22388 0.74090 0.90271 -0.09000
C 	C 	0.23563 0.69692 0.93082 0.08200
C 	C 	0.25869 0.69259 0.99397 -0.03700
H 	H 	0.22395 0.81367 0.91990 0.01500
H 	H 	0.26940 0.65874 0.01406 0.06200
H 	H 	0.27019 0.80484 0.02676 0.03300
I 	I 	0.22729 0.63623 0.87451 -0.10000
C 	C 	0.33009 0.73103 0.40199 -0.04500
C 	C 	0.29343 0.70547 0.42106 -0.02600
C 	C 	0.26910 0.71546 0.48218 0.01000
C 	C 	0.28139 0.75081 0.52502 -0.09800
C 	C 	0.32166 0.77258 0.51024 0.08400
C 	C 	0.34592 0.76257 0.44889 -0.04300
H 	H 	0.23888 0.69766 0.49411 0.01700
H 	H 	0.37558 0.78100 0.43624 0.07100
H 	H 	0.28225 0.67948 0.38687 0.03300
I 	I 	0.34502 0.82264 0.57749 -0.11900
C 	C 	0.17393 0.58917 0.66333 -0.04400
C 	C 	0.21652 0.58553 0.69833 -0.02200
C 	C 	0.23790 0.54271 0.71690 0.00800
C 	C 	0.21791 0.50280 0.69829 -0.09600
C 	C 	0.17745 0.50616 0.65663 0.08200
C 	C 	0.15495 0.54946 0.64105 -0.04000
H 	H 	0.26973 0.54055 0.74687 0.03000
H 	H 	0.12284 0.55214 0.61174 0.06500
H 	H 	0.23264 0.61606 0.71233 0.04000
I 	I 	0.15338 0.44781 0.60834 -0.09800
C 	C 	0.52075 0.70477 0.93550 -0.04400
C 	C 	0.53420 0.65772 0.93014 -0.02300
C 	C 	0.57000 0.64167 0.88508 0.00800
C 	C 	0.59342 0.67255 0.84551 -0.08600
C 	C 	0.57889 0.72012 0.84991 0.07800
C 	C 	0.54250 0.73552 0.89395 -0.04200
H 	H 	0.58014 0.60522 0.88192 0.05100
H 	H 	0.53153 0.77183 0.89642 0.06200
H 	H 	0.51748 0.63356 0.96159 0.04800
I 	I 	0.61118 0.77114 0.79412 -0.14300
C 	C 	0.94003 0.67297 0.81509 -0.04800
C 	C 	0.93303 0.71351 0.77665 -0.01900
C 	C 	0.97126 0.73491 0.75304 -0.00000
C 	C 	0.01661 0.71601 0.76816 -0.08200
C 	C 	0.02283 0.68095 0.81802 0.08400
C 	C 	0.98458 0.65879 0.84002 -0.04700
H 	H 	0.96576 0.76328 0.71731 0.03800
H 	H 	0.98991 0.62913 0.87334 0.05900
H 	H 	0.89828 0.72618 0.76015 0.03400
I 	I 	0.08874 0.66147 0.86194 -0.07800
C 	C 	0.89924 0.41198 0.64207 -0.04700
C 	C 	0.85268 0.41860 0.66367 -0.02500
C 	C 	0.83512 0.46036 0.69235 0.00900
C 	C 	0.86398 0.49580 0.69977 -0.09500
C 	C 	0.90938 0.49074 0.67200 0.07800
C 	C 	0.92677 0.44884 0.64326 -0.04100
H 	H 	0.79985 0.46430 0.71219 0.03400
H 	H 	0.96253 0.44419 0.62549 0.05900
H 	H 	0.83092 0.39051 0.66192 0.03300
I 	I 	0.95254 0.54547 0.67290 -0.08300
C 	C 	0.70408 0.43715 0.05998 -0.04200
C 	C 	0.73892 0.46289 0.08561 -0.02000
C 	C 	0.75409 0.49878 0.04667 0.00300
C 	C 	0.73458 0.50944 0.98181 -0.08600
C 	C 	0.69848 0.48474 0.95693 0.07900
C 	C 	0.68299 0.44926 0.99643 -0.03800
H 	H 	0.78170 0.51771 0.06638 0.02200
H 	H 	0.65624 0.42957 0.97593 0.06800
H 	H 	0.75526 0.45421 0.13472 0.03800
I 	I 	0.66918 0.49765 0.85764 -0.12800
C 	C 	0.54739 0.77978 0.24873 -0.05000
C 	C 	0.53818 0.82088 0.28557 -0.02200
C 	C 	0.57485 0.84552 0.30687 0.01000
C 	C 	0.62109 0.82839 0.29400 -0.09200
C 	C 	0.63031 0.78422 0.26535 0.07600
C 	C 	0.59351 0.76087 0.24055 -0.03900
H 	H 	0.56723 0.87889 0.33033 0.03700
H 	H 	0.60084 0.72818 0.21490 0.05800
H 	H 	0.50261 0.83480 0.29495 0.05600
I 	I 	0.69903 0.75119 0.26228 -0.15500
C 	C 	0.97554 0.83571 0.34118 -0.05700
C 	C 	0.98878 0.86816 0.38889 -0.03000
C 	C 	0.02417 0.85604 0.43655 0.02100
C 	C 	0.04695 0.81165 0.43661 -0.08900
C 	C 	0.03766 0.78094 0.38385 0.07000
C 	C 	0.00255 0.79333 0.33569 -0.01600
H 	H 	0.03215 0.88039 0.47574 0.03900
H 	H 	0.99467 0.76904 0.29639 0.04300
H 	H 	0.96991 0.90183 0.39186 0.05300
I 	I 	0.07538 0.71530 0.37670 -0.17200
C 	C 	0.74256 0.74797 0.91802 -0.04800
C 	C 	0.78891 0.74820 0.93962 -0.02700
C 	C 	0.79913 0.76722 0.00332 -0.00200
C 	C 	0.76311 0.78659 0.04590 -0.08600
C 	C 	0.71638 0.78840 0.02225 0.07600
C 	C 	0.70674 0.76963 0.95823 -0.03500
H 	H 	0.83505 0.76631 0.02001 0.01800
H 	H 	0.67089 0.76921 0.94179 0.06400
H 	H 	0.81693 0.73193 0.90845 0.01900
I 	I 	0.65856 0.81495 0.08295 -0.09900
C 	C 	0.81978 0.74961 0.42551 -0.04900
C 	C 	0.77425 0.74409 0.44672 -0.02600
C 	C 	0.76632 0.72293 0.50961 0.00300
C 	C 	0.80385 0.70730 0.55227 -0.09100
C 	C 	0.84996 0.71109 0.52940 0.07600
C 	C 	0.85747 0.73173 0.46588 -0.04000
H 	H 	0.73087 0.71993 0.52619 0.01600
H 	H 	0.89272 0.73605 0.44956 0.05900
H 	H 	0.74490 0.75839 0.41636 0.03700
I 	I 	0.90917 0.69020 0.59105 -0.10000
C 	C 	0.82906 0.99509 0.46018 -0.04200
C 	C 	0.80025 0.03153 0.48849 -0.02700
C 	C 	0.81967 0.06727 0.52230 0.00100
C 	C 	0.86824 0.06787 0.52680 -0.09400
C 	C 	0.89747 0.03094 0.49900 0.07900
C 	C 	0.87772 0.99502 0.46546 -0.04600
H 	H 	0.79686 0.09478 0.54481 0.02600
H 	H 	0.90029 0.96705 0.44368 0.06000
H 	H 	0.76272 0.03196 0.48507 0.03600
I 	I 	0.97104 0.02602 0.51136 -0.12600
C 	C 	0.70735 0.99972 0.18126 -0.04600
C 	C 	0.74001 0.02958 0.16159 -0.02000
C 	C 	0.72530 0.07048 0.12791 0.00700
C 	C 	0.67785 0.08185 0.11421 -0.09300
C 	C 	0.64611 0.04910 0.12590 0.08000
C 	C 	0.66084 0.00843 0.16033 -0.04100
H 	H 	0.75026 0.09488 0.11710 0.03000
H 	H 	0.63595 0.98419 0.17235 0.06600
H 	H 	0.77630 0.02238 0.17581 0.04200
I 	I 	0.57564 0.06069 0.09365 -0.12200
