data_crystal

_cell_length_a 18.48542
_cell_length_b 18.82063
_cell_length_c 45.08164
_cell_angle_alpha 95.45749
_cell_angle_beta  95.45701
_cell_angle_gamma 126.39918

_symmetry_space_group_name_	'P 1'
_symmetry_space_group_name_H-M	'P 1'

loop_
_symmetry_equiv_pos_as_xyz
  x,y,z

loop_
_atom_site_label
_atom_site_type_symbol
_atom_site_fract_x
_atom_site_fract_y
_atom_site_fract_z
_atom_site_charge
C 	C 	0.90982 0.99458 0.97197 0.19000
N 	N 	0.00239 0.05388 0.97731 -0.11700
C 	C 	0.05355 0.02579 0.98378 0.18200
N 	N 	0.01226 0.93852 0.98539 -0.10300
C 	C 	0.92011 0.87687 0.97707 0.16500
N 	N 	0.86840 0.90509 0.97029 -0.11300
C 	C 	0.93800 0.02310 0.48988 0.16300
N 	N 	0.03033 0.07152 0.49300 -0.10700
C 	C 	0.06981 0.02972 0.49556 0.18000
N 	N 	0.01726 0.94027 0.49567 -0.10200
C 	C 	0.92496 0.89168 0.49194 0.17300
N 	N 	0.88539 0.93300 0.48862 -0.11000
Cu	Cu	0.75379 0.33695 0.96727 0.93300
Cu	Cu	0.74970 0.26912 0.03233 0.88800
Cu	Cu	0.62043 0.29590 0.00983 0.90300
Cu	Cu	0.58681 0.33886 0.95099 0.91400
C 	C 	0.67984 0.31175 0.90473 0.29300
O 	O 	0.80885 0.46866 0.96580 -0.32800
C 	C 	0.68633 0.33372 0.07538 0.28700
O 	O 	0.61330 0.26698 0.96732 -0.63900
O 	O 	0.75311 0.35567 0.01127 -0.63600
O 	O 	0.81069 0.27300 0.96819 -0.33600
O 	O 	0.71451 0.18183 0.99784 -0.41200
O 	O 	0.64301 0.35055 0.91403 -0.35800
O 	O 	0.49014 0.22994 0.00630 -0.36300
C 	C 	0.43886 0.23616 0.98594 0.33900
C 	C 	0.77236 0.50463 0.97762 0.31400
O 	O 	0.69331 0.45150 0.98561 -0.36700
O 	O 	0.47499 0.29583 0.96805 -0.35000
O 	O 	0.72918 0.30059 0.92415 -0.33900
C 	C 	0.77277 0.19952 0.97988 0.33100
O 	O 	0.63252 0.33190 0.05323 -0.35700
O 	O 	0.75240 0.32878 0.06994 -0.39000
H 	H 	0.57065 0.20205 0.95835 0.18900
H 	H 	0.79386 0.41838 0.02267 0.19600
Cu	Cu	0.61370 0.19919 0.50561 0.93400
Cu	Cu	0.67806 0.21950 0.44004 0.89000
Cu	Cu	0.63143 0.33158 0.46790 0.90500
Cu	Cu	0.63915 0.37536 0.53447 0.91300
C 	C 	0.66624 0.26623 0.56997 0.29600
O 	O 	0.48649 0.15766 0.51105 -0.33600
C 	C 	0.60386 0.28353 0.40160 0.28700
O 	O 	0.68818 0.33849 0.50795 -0.63300
O 	O 	0.58856 0.20564 0.46301 -0.64000
O 	O 	0.66435 0.13211 0.49793 -0.34200
O 	O 	0.76415 0.23445 0.47157 -0.41000
O 	O 	0.62523 0.30352 0.56603 -0.35800
O 	O 	0.66270 0.45178 0.47375 -0.34900
C 	C 	0.71495 0.51596 0.49785 0.33200
C 	C 	0.45415 0.20174 0.50384 0.31800
O 	O 	0.51033 0.28776 0.50255 -0.37100
O 	O 	0.71503 0.49737 0.52528 -0.36300
O 	O 	0.65956 0.21166 0.54736 -0.33600
C 	C 	0.73940 0.16936 0.48658 0.33600
O 	O 	0.59249 0.32258 0.42476 -0.34300
O 	O 	0.61370 0.22040 0.40443 -0.38800
H 	H 	0.75582 0.37606 0.51140 0.17800
H 	H 	0.52417 0.16067 0.45245 0.20100
C 	C 	0.68376 0.30013 0.87227 -0.06600
C 	C 	0.69792 0.36515 0.85547 0.02600
C 	C 	0.70391 0.35542 0.82488 -0.05800
C 	C 	0.69587 0.28079 0.81082 0.05400
C 	C 	0.68124 0.21548 0.82744 -0.05500
C 	C 	0.67500 0.22500 0.85807 0.02400
C 	C 	0.70157 0.27105 0.77922 -0.01000
C 	C 	0.70675 0.26549 0.75275 0.01900
C 	C 	0.71224 0.26161 0.72169 0.01900
C 	C 	0.71607 0.26053 0.69511 -0.01100
C 	C 	0.71917 0.26194 0.66335 0.05700
C 	C 	0.76495 0.34412 0.65336 -0.05800
C 	C 	0.75323 0.34558 0.62240 0.02700
C 	C 	0.69587 0.26479 0.60118 -0.06700
C 	C 	0.65562 0.18258 0.61105 0.03500
C 	C 	0.66693 0.18120 0.64209 -0.05800
H 	H 	0.70540 0.42374 0.86620 0.05700
H 	H 	0.71502 0.40606 0.81215 0.06900
H 	H 	0.67436 0.15727 0.81665 0.07200
H 	H 	0.66220 0.17356 0.87061 0.06500
H 	H 	0.80624 0.40685 0.66965 0.06700
H 	H 	0.78543 0.40941 0.61500 0.03900
H 	H 	0.61154 0.11976 0.59486 0.06000
H 	H 	0.63192 0.11735 0.64961 0.07100
C 	C 	0.67687 0.34865 0.10708 -0.07000
C 	C 	0.75267 0.39090 0.13088 0.02300
C 	C 	0.74148 0.39702 0.16105 -0.06000
C 	C 	0.65467 0.36121 0.16766 0.05300
C 	C 	0.57964 0.32206 0.14398 -0.05700
C 	C 	0.59057 0.31568 0.11382 0.02200
C 	C 	0.64115 0.35761 0.19859 -0.01300
C 	C 	0.62994 0.35464 0.22449 0.01700
C 	C 	0.61658 0.34833 0.25473 0.01700
C 	C 	0.60519 0.34037 0.28045 -0.01200
C 	C 	0.59191 0.32761 0.31103 0.05300
C 	C 	0.64409 0.40122 0.33522 -0.05600
C 	C 	0.64254 0.38718 0.36517 0.02100
C 	C 	0.58966 0.29937 0.37102 -0.06600
C 	C 	0.53298 0.22623 0.34679 0.02700
C 	C 	0.53411 0.24037 0.31691 -0.05900
H 	H 	0.81992 0.41789 0.12606 0.05100
H 	H 	0.79991 0.42776 0.17926 0.06500
H 	H 	0.51232 0.29429 0.14893 0.07200
H 	H 	0.53142 0.28235 0.09575 0.06500
H 	H 	0.68837 0.46897 0.33085 0.07100
H 	H 	0.68600 0.44418 0.38372 0.06000
H 	H 	0.49063 0.15824 0.35106 0.05500
H 	H 	0.49276 0.18321 0.29832 0.06700
C 	C 	0.82394 0.64570 0.47398 0.11800
C 	C 	0.76332 0.61045 0.49457 -0.11200
C 	C 	0.75209 0.66697 0.51295 0.11900
C 	C 	0.80980 0.75996 0.51367 0.08000
C 	C 	0.86807 0.79479 0.49240 -0.04100
C 	C 	0.87179 0.73661 0.47162 0.08000
Br	Br	0.93785 0.78003 0.43887 -0.14900
Br	Br	0.84574 0.57129 0.45033 -0.21900
Br	Br	0.81437 0.83985 0.54536 -0.13500
Br	Br	0.65247 0.61644 0.53493 -0.16500
C 	C 	0.79007 0.08727 0.46060 0.11800
C 	C 	0.79007 0.13170 0.48760 -0.11900
C 	C 	0.84306 0.14486 0.51515 0.12000
C 	C 	0.89444 0.11195 0.51577 0.07900
C 	C 	0.89485 0.06815 0.48871 -0.04000
C 	C 	0.84456 0.05796 0.46105 0.07900
Br	Br	0.85143 0.00471 0.42372 -0.15200
Br	Br	0.71196 0.06269 0.42330 -0.23900
Br	Br	0.96236 0.12465 0.55375 -0.14600
Br	Br	0.84665 0.20948 0.55186 -0.17800
C 	C 	0.20719 0.09626 0.47146 0.08300
C 	C 	0.16925 0.08080 0.49793 -0.04200
C 	C 	0.22507 0.10634 0.52634 0.08200
C 	C 	0.31816 0.14441 0.52822 0.11500
C 	C 	0.35586 0.15832 0.50168 -0.10800
C 	C 	0.30064 0.13560 0.47335 0.11500
Br	Br	0.35289 0.15763 0.43715 -0.19500
Br	Br	0.13045 0.06166 0.43257 -0.13100
Br	Br	0.39446 0.17896 0.56721 -0.17200
Br	Br	0.17378 0.08966 0.56270 -0.13400
C 	C 	0.75047 0.62526 0.97577 0.11600
C 	C 	0.80819 0.59873 0.97519 -0.11000
C 	C 	0.90016 0.66359 0.97254 0.11800
C 	C 	0.92858 0.74794 0.96689 0.06500
C 	C 	0.87755 0.77909 0.97393 -0.03400
C 	C 	0.78943 0.71708 0.98035 0.08000
Br	Br	0.72648 0.75645 0.99920 -0.13500
Br	Br	0.61936 0.53901 0.96340 -0.19800
Br	Br	0.02650 0.81147 0.94469 -0.11400
Br	Br	0.99078 0.64411 0.98088 -0.17600
C 	C 	0.81826 0.03824 0.94734 0.07400
C 	C 	0.85665 0.02948 0.97396 -0.05000
C 	C 	0.86374 0.07362 0.00231 0.08200
C 	C 	0.84549 0.13639 0.00388 0.11700
C 	C 	0.80694 0.14554 0.97735 -0.11600
C 	C 	0.79127 0.09456 0.94910 0.12000
Br	Br	0.73118 0.10011 0.91308 -0.18400
Br	Br	0.80429 0.97441 0.90855 -0.13200
Br	Br	0.88104 0.21543 0.04189 -0.25700
Br	Br	0.89997 0.04873 0.03904 -0.15200
C 	C 	0.18422 0.08329 0.95726 0.08500
C 	C 	0.15174 0.08562 0.98400 -0.04200
C 	C 	0.21365 0.14102 0.01122 0.08100
C 	C 	0.30826 0.19295 0.01173 0.11900
C 	C 	0.34040 0.18344 0.98561 -0.11200
C 	C 	0.27796 0.12733 0.95848 0.11800
Br	Br	0.32043 0.10673 0.92356 -0.19300
Br	Br	0.10070 0.02441 0.91872 -0.13300
Br	Br	0.39326 0.28145 0.04732 -0.16800
Br	Br	0.16863 0.14554 0.04768 -0.13800
