data_crystal

_cell_length_a 25.78279
_cell_length_b 26.27176
_cell_length_c 17.39905
_cell_angle_alpha 95.49390
_cell_angle_beta  95.48987
_cell_angle_gamma 125.84553

_symmetry_space_group_name_	'P 1'
_symmetry_space_group_name_H-M	'P 1'

loop_
_symmetry_equiv_pos_as_xyz
  x,y,z

loop_
_atom_site_label
_atom_site_type_symbol
_atom_site_fract_x
_atom_site_fract_y
_atom_site_fract_z
_atom_site_charge
C 	C 	0.05499 0.02789 0.04932 0.07400
C 	C 	0.02935 0.06256 0.04748 -0.11700
H 	H 	0.06026 0.11248 0.04226 0.05700
H 	H 	0.01285 0.06118 0.31715 0.03900
C 	C 	0.09657 0.03307 0.35284 -0.02000
C 	C 	0.13592 0.07509 0.42515 0.07900
C 	C 	0.20379 0.11559 0.43214 -0.07700
C 	C 	0.23309 0.11442 0.36891 -0.01600
C 	C 	0.19390 0.07139 0.29713 0.07500
C 	C 	0.12581 0.03131 0.28974 -0.06700
N 	N 	0.10892 0.07634 0.48820 -0.19600
H 	H 	0.23407 0.14802 0.48727 0.05100
C 	C 	0.30503 0.15738 0.37967 0.00500
N 	N 	0.22120 0.06828 0.23536 -0.19500
H 	H 	0.09549 0.99888 0.23461 0.04100
C 	C 	0.33950 0.13214 0.39301 -0.10000
C 	C 	0.40784 0.17209 0.40865 0.12100
C 	C 	0.44211 0.23934 0.41943 -0.11200
C 	C 	0.40748 0.26456 0.40626 -0.02300
C 	C 	0.33937 0.22403 0.38376 0.05300
H 	H 	0.31302 0.08097 0.38899 0.05500
N 	N 	0.44001 0.14555 0.40983 -0.20100
H 	H 	0.43363 0.31587 0.41270 0.04300
N 	N 	0.30737 0.24924 0.36535 -0.19200
H 	H 	0.41446 0.09631 0.40691 0.07800
H 	H 	0.48952 0.17237 0.40772 0.06700
H 	H 	0.33294 0.29867 0.37061 0.07700
H 	H 	0.25736 0.22010 0.34315 0.08100
H 	H 	0.19211 0.03390 0.18432 0.08400
H 	H 	0.27107 0.10078 0.23641 0.08400
H 	H 	0.05874 0.04573 0.48604 0.08400
H 	H 	0.13846 0.10796 0.54098 0.07900
C 	C 	0.44635 0.19029 0.98422 -0.11200
C 	C 	0.42314 0.16593 0.05273 0.12200
C 	C 	0.35709 0.13470 0.05584 -0.11600
C 	C 	0.31625 0.13596 0.99816 0.02600
C 	C 	0.34059 0.16476 0.93272 0.04900
C 	C 	0.40439 0.18865 0.92454 -0.02300
N 	N 	0.46447 0.17635 0.11750 -0.20400
H 	H 	0.33850 0.11329 0.10633 0.05600
C 	C 	0.24888 0.10905 0.00878 -0.03400
N 	N 	0.30342 0.17021 0.87819 -0.19000
H 	H 	0.42212 0.20804 0.87270 0.04200
C 	C 	0.23950 0.14028 0.06971 -0.07800
C 	C 	0.17703 0.11327 0.08638 0.08800
C 	C 	0.12227 0.05712 0.03617 -0.05700
C 	C 	0.13160 0.02761 0.97298 -0.04800
C 	C 	0.19448 0.05106 0.96134 0.07900
H 	H 	0.28137 0.18417 0.10672 0.04700
N 	N 	0.17044 0.13958 0.15250 -0.19800
N 	N 	0.20224 0.01743 0.90524 -0.19200
H 	H 	0.21076 0.18252 0.18709 0.08000
H 	H 	0.12670 0.11569 0.17326 0.08500
H 	H 	0.24829 0.03104 0.89851 0.08800
H 	H 	0.32123 0.18990 0.82900 0.08000
H 	H 	0.25748 0.15688 0.88506 0.08600
H 	H 	0.44607 0.15221 0.16374 0.08000
H 	H 	0.02213 0.90981 0.36979 0.04200
C 	C 	0.51514 0.22179 0.97647 0.30400
C 	C 	0.51393 0.28341 0.44104 0.29400
H 	H 	0.51410 0.21367 0.12700 0.09800
H 	H 	0.03335 0.93556 0.05374 0.05500
C 	C 	0.01409 0.96283 0.05364 -0.12300
O 	O 	0.54624 0.33490 0.40923 -0.39700
O 	O 	0.54746 0.20177 0.00667 -0.37400
O 	O 	0.54642 0.27527 0.94951 -0.39600
O 	O 	0.54386 0.27622 0.50004 -0.37600
C 	C 	0.02503 0.98984 0.34349 0.00500
H 	H 	0.08972 0.98502 0.93405 0.03600
H 	H 	0.16162 0.97568 0.86905 0.07300
H 	H 	0.59497 0.25619 0.36290 0.15400
H 	H 	0.59468 0.21087 0.86854 0.17800
H 	H 	0.60544 0.46670 0.86391 0.09600
H 	H 	0.60583 0.53497 0.88629 0.08200
Cu	Cu	0.62452 0.36091 0.03020 0.89000
O 	O 	0.62133 0.33333 0.13282 -0.36900
Cu	Cu	0.62922 0.36686 0.37212 0.89400
O 	O 	0.63065 0.29866 0.39478 -0.63700
Cu	Cu	0.63253 0.30413 0.50608 0.90500
O 	O 	0.63811 0.24553 0.90039 -0.63800
N 	N 	0.63091 0.51498 0.88861 -0.20400
Cu	Cu	0.64565 0.25343 0.01588 0.92400
O 	O 	0.64118 0.30874 0.61842 -0.34100
H 	H 	0.00361 0.21458 0.23328 0.07400
O 	O 	0.64850 0.43137 0.97248 -0.39700
H 	H 	0.65188 0.07288 0.35287 0.07500
C 	C 	0.65941 0.32039 0.16664 0.19100
O 	O 	0.65914 0.31859 0.77296 -0.34700
C 	C 	0.65482 0.27362 0.65035 0.19500
C 	C 	0.66202 0.27682 0.72812 0.18500
O 	O 	0.66548 0.27851 0.12867 -0.33000
O 	O 	0.65803 0.23276 0.60505 -0.40000
O 	O 	0.67344 0.38070 0.28110 -0.36000
Cu	Cu	0.66803 0.33324 0.88811 0.89400
O 	O 	0.67095 0.23767 0.75832 -0.39400
H 	H 	0.67139 0.15022 0.38228 0.06300
C 	C 	0.67977 0.33901 0.24425 0.19300
O 	O 	0.68481 0.34765 0.00071 -0.64400
N 	N 	0.68699 0.12247 0.36743 -0.20400
C 	C 	0.98918 0.01370 0.33074 -0.04700
C 	C 	0.99454 0.92856 0.36099 -0.06300
H 	H 	0.99884 0.12733 0.16902 0.04400
C 	C 	0.96370 0.03263 0.05219 0.08000
Cu	Cu	0.71104 0.25338 0.86469 0.86300
O 	O 	0.69902 0.22217 0.03449 -0.37800
O 	O 	0.77041 0.28844 0.96214 -0.43800
O 	O 	0.70399 0.42140 0.88335 -0.38600
C 	C 	0.69450 0.45695 0.92976 0.30100
C 	C 	0.75730 0.25344 0.01660 0.28900
H 	H 	0.73085 0.38193 0.02537 0.16000
Cu	Cu	0.72677 0.32952 0.39420 0.92100
Cu	Cu	0.72459 0.26027 0.54109 0.86800
O 	O 	0.78535 0.42708 0.41796 -0.36200
O 	O 	0.72178 0.32733 0.50732 -0.63700
O 	O 	0.74630 0.26656 0.36823 -0.37900
O 	O 	0.79399 0.27782 0.49222 -0.43200
C 	C 	0.76846 0.45950 0.45659 0.28800
O 	O 	0.70875 0.42922 0.47011 -0.39600
O 	O 	0.71356 0.32270 0.28152 -0.32400
C 	C 	0.78324 0.25911 0.41615 0.29800
H 	H 	0.75571 0.36901 0.54205 0.16200
C 	C 	0.90149 0.83286 0.40266 -0.03200
C 	C 	0.93064 0.83106 0.47461 0.08200
C 	C 	0.91373 0.77224 0.49051 -0.08000
C 	C 	0.86501 0.71505 0.43857 -0.01500
C 	C 	0.82978 0.71633 0.37197 0.07400
C 	C 	0.84954 0.77546 0.35357 -0.07300
H 	H 	0.93872 0.77102 0.54328 0.04900
C 	C 	0.85315 0.65449 0.45275 0.00400
N 	N 	0.77717 0.66122 0.32577 -0.19500
H 	H 	0.82525 0.77677 0.30020 0.04400
C 	C 	0.82371 0.62788 0.51611 -0.10200
C 	C 	0.80493 0.56707 0.52549 0.12300
C 	C 	0.81015 0.53011 0.46648 -0.11500
C 	C 	0.84574 0.55935 0.40790 -0.02600
C 	C 	0.86888 0.62203 0.40180 0.05500
H 	H 	0.81531 0.65444 0.55805 0.05400
N 	N 	0.78368 0.54515 0.59195 -0.20300
H 	H 	0.85308 0.53248 0.36493 0.04700
N 	N 	0.90566 0.65052 0.34690 -0.19200
H 	H 	0.77702 0.57126 0.63363 0.08300
H 	H 	0.77747 0.50411 0.60500 0.08900
H 	H 	0.91480 0.62529 0.30747 0.07900
H 	H 	0.92763 0.69855 0.34484 0.08400
H 	H 	0.75322 0.66257 0.27492 0.07700
H 	H 	0.75801 0.61682 0.34137 0.08300
C 	C 	0.79922 0.21637 0.38654 -0.11900
C 	C 	0.75093 0.14913 0.36767 0.11500
C 	C 	0.76956 0.10929 0.35082 -0.10200
C 	C 	0.83537 0.13502 0.35580 0.00400
C 	C 	0.88322 0.20222 0.37043 0.05300
C 	C 	0.86447 0.24226 0.38513 -0.02200
H 	H 	0.73295 0.05782 0.33773 0.05300
C 	C 	0.85396 0.09122 0.35341 -0.01500
N 	N 	0.94720 0.22849 0.37227 -0.19100
H 	H 	0.90114 0.29372 0.39824 0.03600
C 	C 	0.84899 0.05947 0.28041 -0.07900
C 	C 	0.86652 0.01787 0.27608 0.08600
C 	C 	0.89245 0.01052 0.34595 -0.02200
C 	C 	0.89501 0.04029 0.41900 -0.07300
C 	C 	0.87513 0.07991 0.42358 0.07600
H 	H 	0.83100 0.06679 0.22685 0.05200
H 	H 	0.91400 0.03378 0.47250 0.04800
N 	N 	0.87676 0.10708 0.49531 -0.19600
H 	H 	0.89368 0.09941 0.54667 0.07800
H 	H 	0.86023 0.13499 0.50101 0.08300
H 	H 	0.98223 0.27812 0.38367 0.07800
H 	H 	0.96276 0.20011 0.36162 0.08500
C 	C 	0.72967 0.52511 0.92559 -0.11500
C 	C 	0.69603 0.55229 0.91750 0.13000
C 	C 	0.73082 0.61881 0.93701 -0.10100
C 	C 	0.79897 0.65871 0.95744 0.00200
C 	C 	0.83313 0.63179 0.95654 0.05600
C 	C 	0.79796 0.56502 0.94159 -0.02400
H 	H 	0.70493 0.63970 0.93481 0.05500
C 	C 	0.83387 0.72847 0.98092 0.00000
N 	N 	0.89940 0.66962 0.97000 -0.19200
H 	H 	0.82380 0.54411 0.94524 0.03400
C 	C 	0.85587 0.75628 0.06110 -0.09700
C 	C 	0.84456 0.76710 0.92398 0.06400
H 	H 	0.84662 0.72635 0.10459 0.05100
N 	N 	0.82473 0.74160 0.84576 -0.19400
H 	H 	0.83209 0.77044 0.80432 0.07800
H 	H 	0.80306 0.69342 0.82514 0.08500
H 	H 	0.92415 0.64927 0.97106 0.07900
H 	H 	0.92695 0.71931 0.97748 0.08600
C 	C 	0.93797 0.07033 0.05629 -0.06200
C 	C 	0.88874 0.05768 0.99596 0.11200
C 	C 	0.86197 0.09096 0.00518 -0.11000
C 	C 	0.88787 0.14097 0.06935 -0.00500
C 	C 	0.93832 0.15485 0.12873 0.06400
C 	C 	0.96168 0.11821 0.12247 -0.05400
H 	H 	0.82346 0.08059 0.95975 0.06000
C 	C 	0.86638 0.18238 0.06906 0.00100
N 	N 	0.96532 0.20383 0.19090 -0.19100
C 	C 	0.82204 0.17453 0.11653 -0.10300
C 	C 	0.79380 0.20655 0.10886 0.13100
C 	C 	0.80316 0.23947 0.04550 -0.11900
C 	C 	0.85190 0.25194 0.00295 -0.03900
C 	C 	0.88485 0.22504 0.01575 0.04900
H 	H 	0.81080 0.14485 0.16075 0.05700
N 	N 	0.76192 0.20927 0.16506 -0.20400
H 	H 	0.86304 0.28115 0.95826 0.03600
N 	N 	0.93390 0.24009 0.97656 -0.18800
H 	H 	0.75041 0.18064 0.20770 0.09600
H 	H 	0.75379 0.24386 0.17122 0.11600
H 	H 	0.94558 0.26970 0.93503 0.07600
H 	H 	0.96249 0.22469 0.98908 0.08700
H 	H 	0.94910 0.23194 0.19768 0.08700
C 	C 	0.87753 0.83296 0.94857 -0.04900
C 	C 	0.89026 0.82249 0.08547 0.09400
C 	C 	0.94725 0.93149 0.04992 0.07400
C 	C 	0.89525 0.91894 0.36446 -0.07800
C 	C 	0.93030 0.89376 0.37396 0.03200
H 	H 	0.84613 0.89290 0.37622 0.04700
N 	N 	0.97405 0.88541 0.52885 -0.19700
H 	H 	0.98244 0.92863 0.52238 0.08200
H 	H 	0.99757 0.88417 0.58022 0.07900
C 	C 	0.90224 0.86120 0.02840 -0.06000
N 	N 	0.91156 0.84849 0.16346 -0.20100
H 	H 	0.88660 0.86288 0.90511 0.04100
H 	H 	0.90539 0.82006 0.20499 0.08300
H 	H 	0.93330 0.89675 0.18368 0.08800
H 	H 	0.83743 0.98952 0.15386 0.08000
N 	N 	0.86884 0.01564 0.92797 -0.19900
H 	H 	0.87092 0.94268 0.05087 0.05600
C 	C 	0.92255 0.96684 0.05261 -0.12000
H 	H 	0.86583 0.95000 0.20060 0.08400
H 	H 	0.83051 0.00455 0.88536 0.08100
N 	N 	0.85680 0.98397 0.20516 -0.20000
C 	C 	0.92487 0.97920 0.34327 0.01800
H 	H 	0.89317 0.99613 0.91489 0.08100
