data_crystal

_cell_length_a 27.37558
_cell_length_b 28.79940
_cell_length_c 30.66556
_cell_angle_alpha 61.01552
_cell_angle_beta  118.66461
_cell_angle_gamma 133.20712

_symmetry_space_group_name_	'P 1'
_symmetry_space_group_name_H-M	'P 1'

loop_
_symmetry_equiv_pos_as_xyz
  x,y,z

loop_
_atom_site_label
_atom_site_type_symbol
_atom_site_fract_x
_atom_site_fract_y
_atom_site_fract_z
_atom_site_charge
C 	C 	0.76197 0.32608 0.03408 0.20400
N 	N 	0.70524 0.28134 0.05395 -0.13000
C 	C 	0.68275 0.30185 0.06684 0.20600
N 	N 	0.71603 0.36687 0.05888 -0.12100
C 	C 	0.77224 0.41176 0.03879 0.20900
N 	N 	0.79579 0.39146 0.02668 -0.10800
C 	C 	0.73758 0.32553 0.53640 0.20700
N 	N 	0.75832 0.38681 0.52936 -0.12600
C 	C 	0.72134 0.39366 0.54063 0.20300
N 	N 	0.66522 0.33965 0.55980 -0.12000
C 	C 	0.64443 0.27888 0.56659 0.20900
N 	N 	0.68034 0.27166 0.55472 -0.11900
C 	C 	0.27762 0.65421 0.25601 0.20100
N 	N 	0.23758 0.58775 0.26384 -0.13300
C 	C 	0.25816 0.55992 0.25793 0.20500
N 	N 	0.31796 0.59836 0.24371 -0.12600
C 	C 	0.35728 0.66450 0.23473 0.20500
N 	N 	0.33745 0.69259 0.24121 -0.09900
C 	C 	0.26671 0.64726 0.76291 0.20100
N 	N 	0.32433 0.69071 0.74413 -0.13800
C 	C 	0.34881 0.66853 0.73554 0.20200
N 	N 	0.31660 0.60317 0.74660 -0.12300
C 	C 	0.25911 0.55951 0.76505 0.20400
N 	N 	0.23363 0.58142 0.77292 -0.09900
Co	Co	0.11271 0.00044 0.16926 1.20100
Co	Co	0.91290 0.96459 0.12268 1.17900
Co	Co	0.03950 0.03273 0.19915 1.19100
Co	Co	0.98858 0.93739 0.09056 1.18700
C 	C 	0.15724 0.91420 0.22040 0.35400
Co	Co	0.11664 0.93839 0.10751 1.17000
Co	Co	0.90651 0.01657 0.19271 1.18900
C 	C 	0.02993 0.96049 0.00193 0.32600
O 	O 	0.97437 0.11528 0.16372 -0.35700
O 	O 	0.95744 0.00618 0.16804 -0.74400
C 	C 	0.04046 0.14640 0.18645 0.34300
O 	O 	0.12666 0.04196 0.21581 -0.43700
O 	O 	0.90024 0.92551 0.07493 -0.43500
C 	C 	0.85013 0.03566 0.08014 0.36000
O 	O 	0.02235 0.00592 0.13209 -0.55500
C 	C 	0.99732 0.99255 0.29218 0.24800
C 	C 	0.22717 0.07666 0.11370 0.35700
C 	C 	0.97757 0.81506 0.11647 0.34800
O 	O 	0.07740 0.12838 0.19211 -0.37000
O 	O 	0.18318 0.03850 0.08142 -0.36700
O 	O 	0.20707 0.07472 0.14688 -0.35400
O 	O 	0.83295 0.00554 0.12416 -0.37300
O 	O 	0.88243 0.02480 0.06961 -0.35900
O 	O 	0.97442 0.02850 0.26418 -0.33100
O 	O 	0.01505 0.97717 0.27060 -0.36800
O 	O 	0.04361 0.84082 0.13548 -0.35900
O 	O 	0.95062 0.83855 0.11814 -0.35700
O 	O 	0.07112 0.96548 0.12027 -0.76200
C 	C 	0.80834 0.87779 0.18825 0.35000
O 	O 	0.84657 0.91591 0.21993 -0.37900
O 	O 	0.83654 0.87880 0.16232 -0.36900
O 	O 	0.18202 0.94488 0.17982 -0.41200
O 	O 	0.11742 0.92331 0.22247 -0.37500
O 	O 	0.05358 0.92560 0.03458 -0.37700
O 	O 	0.00345 0.97394 0.01694 -0.35600
Co	Co	0.07591 0.96571 0.67050 1.18700
Co	Co	0.91101 0.98783 0.61346 1.18100
Co	Co	0.03393 0.02925 0.69921 1.19400
Co	Co	0.95982 0.93573 0.57948 1.18300
C 	C 	0.05602 0.83460 0.71559 0.35300
Co	Co	0.04712 0.88422 0.60449 1.18100
Co	Co	0.92140 0.04384 0.69024 1.18300
C 	C 	0.01948 0.96026 0.49985 0.30200
O 	O 	0.00408 0.13904 0.66960 -0.34500
O 	O 	0.95937 0.02069 0.66449 -0.74200
C 	C 	0.06772 0.15815 0.69476 0.34900
O 	O 	0.10650 0.01632 0.71775 -0.41900
O 	O 	0.88959 0.95210 0.55887 -0.44300
C 	C 	0.87673 0.08147 0.57699 0.36600
O 	O 	0.00995 0.00258 0.62944 -0.55300
C 	C 	0.98979 0.99247 0.79003 0.26500
C 	C 	0.18923 0.99712 0.64316 0.32000
C 	C 	0.89447 0.79971 0.58219 0.36100
O 	O 	0.09211 0.12778 0.70019 -0.34900
O 	O 	0.14959 0.93436 0.64471 -0.34600
O 	O 	0.16803 0.02227 0.65001 -0.33900
O 	O 	0.85614 0.05046 0.61956 -0.36800
O 	O 	0.90324 0.06496 0.56589 -0.33900
O 	O 	0.98174 0.03948 0.76431 -0.36900
O 	O 	0.99985 0.97155 0.76713 -0.39000
O 	O 	0.94667 0.82769 0.56484 -0.41000
O 	O 	0.89305 0.83389 0.59792 -0.38500
O 	O 	0.02916 0.93593 0.61770 -0.75700
C 	C 	0.80186 0.91095 0.67300 0.35000
O 	O 	0.84448 0.94461 0.70844 -0.40200
O 	O 	0.82502 0.90815 0.64546 -0.37100
O 	O 	0.01979 0.81698 0.67204 -0.35300
O 	O 	0.06059 0.87864 0.72416 -0.35600
O 	O 	0.06855 0.95543 0.53660 -0.37800
O 	O 	0.98180 0.96742 0.50880 -0.37500
C 	C 	0.06674 0.00901 0.87616 -0.02400
C 	C 	0.00005 0.97251 0.84651 -0.06900
C 	C 	0.94295 0.93258 0.86823 0.08400
C 	C 	0.95307 0.93429 0.91722 -0.02600
C 	C 	0.01969 0.97210 0.94635 -0.08900
C 	C 	0.07699 0.01041 0.92531 0.11900
C 	C 	0.14914 0.05298 0.95500 -0.22400
H 	H 	0.11064 0.03986 0.85964 0.06600
H 	H 	0.90900 0.90475 0.93316 0.08900
C 	C 	0.87075 0.89090 0.83820 -0.20800
H 	H 	0.18646 0.08914 0.93004 0.12100
H 	H 	0.16559 0.02181 0.98622 0.10700
H 	H 	0.15119 0.08109 0.97171 0.13400
H 	H 	0.86947 0.86917 0.81571 0.10100
H 	H 	0.85183 0.92151 0.81174 0.09900
H 	H 	0.83514 0.84967 0.86409 0.11400
C 	C 	0.07076 0.02052 0.42415 -0.00800
C 	C 	0.01364 0.96780 0.44618 -0.08800
C 	C 	0.95524 0.91810 0.41967 0.10000
C 	C 	0.95536 0.92202 0.37207 -0.05400
C 	C 	0.01061 0.97663 0.34868 -0.05500
C 	C 	0.06980 0.02521 0.37577 0.10200
C 	C 	0.13012 0.08452 0.35173 -0.20900
H 	H 	0.11603 0.05811 0.44458 0.06700
H 	H 	0.91022 0.88435 0.35164 0.08500
C 	C 	0.89417 0.85899 0.44279 -0.21900
H 	H 	0.17724 0.10981 0.38095 0.10500
H 	H 	0.11788 0.11973 0.32294 0.10500
H 	H 	0.14180 0.06974 0.33263 0.10300
H 	H 	0.88201 0.87275 0.46235 0.09700
H 	H 	0.90507 0.82257 0.47028 0.11200
H 	H 	0.84730 0.83520 0.41285 0.11500
C 	C 	0.13516 0.39505 0.73557 -0.12700
C 	C 	0.17690 0.37305 0.76069 0.01200
C 	C 	0.23857 0.40555 0.79616 0.32400
C 	C 	0.26087 0.46255 0.80316 -0.07900
C 	C 	0.22303 0.48882 0.77362 -0.06500
C 	C 	0.15810 0.45275 0.74198 0.35900
C 	C 	0.15942 0.32047 0.74590 0.02400
F 	F 	0.27906 0.38440 0.82136 -0.38900
H 	H 	0.31042 0.48931 0.82847 0.12400
F 	F 	0.11992 0.47644 0.71415 -0.40400
H 	H 	0.08655 0.36926 0.70916 0.13500
C 	C 	0.14347 0.26023 0.78141 0.30600
C 	C 	0.12156 0.20899 0.76584 -0.05800
C 	C 	0.11349 0.21682 0.71446 -0.13200
C 	C 	0.13388 0.27842 0.67989 0.38700
C 	C 	0.15694 0.33005 0.69561 -0.14300
F 	F 	0.14611 0.25031 0.83029 -0.39400
H 	H 	0.10633 0.16174 0.79290 0.09500
F 	F 	0.12773 0.28716 0.63034 -0.39400
H 	H 	0.17088 0.37690 0.66829 0.13900
C 	C 	0.47007 0.73606 0.66139 -0.12800
C 	C 	0.53324 0.77963 0.68971 0.00700
C 	C 	0.53411 0.79496 0.72732 0.32100
C 	C 	0.47256 0.76248 0.73946 -0.08000
C 	C 	0.40986 0.71484 0.71397 -0.07700
C 	C 	0.40856 0.70410 0.67318 0.35500
C 	C 	0.59833 0.80578 0.68230 0.02300
F 	F 	0.59477 0.83955 0.75328 -0.40600
H 	H 	0.47404 0.77188 0.77043 0.11700
F 	F 	0.34783 0.66052 0.64645 -0.40900
H 	H 	0.46882 0.72524 0.63145 0.13000
C 	C 	0.64119 0.78779 0.72181 0.30000
C 	C 	0.70594 0.81774 0.71668 -0.04800
C 	C 	0.72814 0.86541 0.67194 -0.14600
C 	C 	0.68283 0.87908 0.63074 0.37700
C 	C 	0.61830 0.84965 0.63605 -0.14700
F 	F 	0.62090 0.74275 0.76573 -0.39900
H 	H 	0.74027 0.80634 0.74846 0.09500
F 	F 	0.70323 0.92427 0.58688 -0.44100
H 	H 	0.58481 0.86257 0.60489 0.13100
C 	C 	0.19266 0.80953 0.78628 -0.12100
C 	C 	0.15364 0.74415 0.78462 0.02000
C 	C 	0.08179 0.70456 0.77724 0.29800
C 	C 	0.04894 0.73275 0.76396 -0.04100
C 	C 	0.08741 0.80093 0.75613 -0.13400
C 	C 	0.15953 0.83764 0.77275 0.38500
C 	C 	0.18599 0.72145 0.78067 0.01200
F 	F 	0.04337 0.64030 0.77824 -0.39500
H 	H 	0.99315 0.70302 0.75400 0.12500
F 	F 	0.19767 0.90234 0.77023 -0.41400
H 	H 	0.24837 0.83980 0.79431 0.14900
C 	C 	0.20902 0.74797 0.73646 0.31100
C 	C 	0.23481 0.72333 0.73075 -0.07800
C 	C 	0.23773 0.67174 0.76897 -0.06800
C 	C 	0.21505 0.64535 0.81342 0.35600
C 	C 	0.18930 0.67018 0.81916 -0.11200
F 	F 	0.20495 0.79669 0.69847 -0.40300
H 	H 	0.25186 0.74391 0.69627 0.11800
F 	F 	0.21905 0.59659 0.85137 -0.40200
H 	H 	0.17156 0.64931 0.85334 0.14200
C 	C 	0.20961 0.39271 0.28805 -0.11800
C 	C 	0.15411 0.36994 0.24626 0.00900
C 	C 	0.12437 0.40394 0.21498 0.31600
C 	C 	0.15365 0.46315 0.22305 -0.07500
C 	C 	0.21322 0.48913 0.26192 -0.07500
C 	C 	0.23885 0.45189 0.29608 0.35600
C 	C 	0.12815 0.31142 0.23459 0.02500
F 	F 	0.06918 0.38120 0.17536 -0.38700
H 	H 	0.13306 0.49115 0.19678 0.12700
F 	F 	0.29508 0.47537 0.33494 -0.40600
H 	H 	0.23149 0.36567 0.31330 0.13200
C 	C 	0.16460 0.31566 0.21092 0.29600
C 	C 	0.13732 0.26093 0.19689 -0.04600
C 	C 	0.07338 0.20191 0.20613 -0.14300
C 	C 	0.03832 0.19728 0.23148 0.37500
C 	C 	0.06568 0.25179 0.24556 -0.13800
F 	F 	0.22549 0.37316 0.20043 -0.39500
H 	H 	0.16487 0.26502 0.17756 0.11100
F 	F 	0.97730 0.14004 0.24198 -0.45000
H 	H 	0.03777 0.24797 0.26436 0.13800
C 	C 	0.54407 0.77652 0.23153 -0.12600
C 	C 	0.54031 0.75718 0.19519 0.00900
C 	C 	0.47574 0.71517 0.16664 0.32800
C 	C 	0.41557 0.69012 0.17622 -0.07800
C 	C 	0.41918 0.70527 0.21536 -0.06600
C 	C 	0.48376 0.75051 0.24174 0.35700
C 	C 	0.60379 0.77756 0.18960 0.02400
F 	F 	0.47126 0.69617 0.13131 -0.38200
H 	H 	0.36595 0.65605 0.15509 0.12700
F 	F 	0.48823 0.76623 0.27933 -0.40700
H 	H 	0.59376 0.80992 0.25307 0.12300
C 	C 	0.62578 0.81889 0.14363 0.31100
C 	C 	0.69002 0.84432 0.14079 -0.05400
C 	C 	0.73383 0.83089 0.18435 -0.14000
C 	C 	0.70916 0.78489 0.22873 0.38400
C 	C 	0.64432 0.75826 0.23128 -0.14700
F 	F 	0.58676 0.83735 0.10273 -0.37700
H 	H 	0.70814 0.87892 0.10607 0.11600
F 	F 	0.75007 0.76967 0.27064 -0.42000
H 	H 	0.62679 0.72474 0.26636 0.13600
C 	C 	0.13003 0.75567 0.26914 -0.14300
C 	C 	0.19907 0.77909 0.28271 0.03000
C 	C 	0.25145 0.84120 0.29352 0.29300
C 	C 	0.23554 0.88328 0.28264 -0.04800
C 	C 	0.16762 0.86410 0.25971 -0.14400
C 	C 	0.11433 0.79769 0.25909 0.37800
C 	C 	0.21672 0.74528 0.27540 0.00600
F 	F 	0.31826 0.86301 0.31001 -0.39300
H 	H 	0.27698 0.93345 0.28609 0.10400
F 	F 	0.04760 0.77583 0.24339 -0.42800
H 	H 	0.08887 0.70666 0.26297 0.14100
C 	C 	0.21166 0.68924 0.31205 0.31900
C 	C 	0.23080 0.65907 0.30540 -0.07700
C 	C 	0.25530 0.68478 0.26215 -0.06700
C 	C 	0.25910 0.74020 0.22508 0.35400
C 	C 	0.23994 0.77019 0.23176 -0.11600
F 	F 	0.18909 0.66453 0.35434 -0.39600
H 	H 	0.22755 0.61635 0.33420 0.12500
F 	F 	0.28032 0.76439 0.18220 -0.41000
H 	H 	0.24328 0.81298 0.20303 0.12200
C 	C 	0.78898 0.28445 0.47382 -0.11100
C 	C 	0.82836 0.26458 0.51669 0.01000
C 	C 	0.84756 0.27618 0.56386 0.30900
C 	C 	0.82308 0.30254 0.56892 -0.07700
C 	C 	0.77886 0.31706 0.52719 -0.07300
C 	C 	0.76400 0.31030 0.47908 0.36200
C 	C 	0.84101 0.22348 0.51419 0.01900
F 	F 	0.88615 0.25790 0.60561 -0.41500
H 	H 	0.83517 0.30800 0.60610 0.11400
F 	F 	0.72208 0.32508 0.43816 -0.39200
H 	H 	0.77487 0.27682 0.43707 0.14700
C 	C 	0.78568 0.15919 0.50831 0.30100
C 	C 	0.79820 0.11398 0.52086 -0.04800
C 	C 	0.86576 0.13208 0.54053 -0.12600
C 	C 	0.92109 0.19860 0.53910 0.37400
C 	C 	0.90873 0.24413 0.52619 -0.12300
F 	F 	0.71978 0.13892 0.49486 -0.39400
H 	H 	0.75508 0.06319 0.52023 0.13600
F 	F 	0.98689 0.21777 0.55530 -0.39900
H 	H 	0.95182 0.29425 0.52900 0.14300
C 	C 	0.70455 0.52088 0.52236 -0.11600
C 	C 	0.77063 0.56568 0.54761 0.01000
C 	C 	0.82381 0.55992 0.56195 0.30600
C 	C 	0.80926 0.50647 0.55512 -0.07800
C 	C 	0.74194 0.45917 0.53306 -0.07100
C 	C 	0.69074 0.46901 0.51384 0.35700
C 	C 	0.78384 0.61781 0.55989 0.02200
F 	F 	0.88910 0.60525 0.58347 -0.40900
H 	H 	0.84948 0.50012 0.56933 0.11800
F 	F 	0.62640 0.42601 0.48940 -0.39600
H 	H 	0.66343 0.52533 0.51038 0.14900
C 	C 	0.77134 0.66344 0.52075 0.28600
C 	C 	0.79465 0.71859 0.53151 -0.05000
C 	C 	0.83584 0.73154 0.57991 -0.14700
C 	C 	0.83832 0.68102 0.62057 0.38000
C 	C 	0.81260 0.62432 0.61054 -0.13400
F 	F 	0.74127 0.65694 0.47179 -0.40900
H 	H 	0.78774 0.75510 0.50069 0.08700
F 	F 	0.87271 0.69018 0.66875 -0.43100
H 	H 	0.81859 0.58736 0.64162 0.14200
C 	C 	0.36175 0.04406 0.65689 -0.13700
C 	C 	0.39032 0.10654 0.62335 0.02600
C 	C 	0.35563 0.13563 0.60013 0.29700
C 	C 	0.29140 0.10118 0.60895 -0.05800
C 	C 	0.26132 0.03740 0.64081 -0.11100
C 	C 	0.29767 0.00959 0.66577 0.39900
C 	C 	0.45627 0.14124 0.61223 0.00900
F 	F 	0.38371 0.19684 0.56846 -0.39900
H 	H 	0.26396 0.12311 0.58961 0.10800
F 	F 	0.27039 0.94877 0.69798 -0.41100
H 	H 	0.38880 0.02181 0.67553 0.14600
C 	C 	0.51834 0.17149 0.64816 0.31600
C 	C 	0.58112 0.21121 0.63500 -0.07700
C 	C 	0.58229 0.22140 0.58579 -0.07200
C 	C 	0.52030 0.18660 0.55149 0.36100
C 	C 	0.45745 0.14677 0.56467 -0.11500
F 	F 	0.51776 0.16498 0.69485 -0.39800
H 	H 	0.62880 0.23738 0.66189 0.11800
F 	F 	0.52080 0.19515 0.50407 -0.39500
H 	H 	0.40964 0.12219 0.53723 0.13100
C 	C 	0.85477 0.26132 0.05489 -0.11800
C 	C 	0.81803 0.23363 0.01269 0.02400
C 	C 	0.77008 0.24539 0.97374 0.30100
C 	C 	0.75496 0.27970 0.97918 -0.08700
C 	C 	0.78838 0.30340 0.02307 -0.06400
C 	C 	0.84021 0.29628 0.05995 0.36100
C 	C 	0.82214 0.18452 0.01350 0.02700
F 	F 	0.73606 0.22117 0.93175 -0.39900
H 	H 	0.71542 0.28566 0.95024 0.11500
F 	F 	0.87368 0.31995 0.10218 -0.38700
H 	H 	0.89212 0.25290 0.08504 0.14600
C 	C 	0.88600 0.20104 0.01862 0.29500
C 	C 	0.89338 0.15137 0.03385 -0.04600
C 	C 	0.83722 0.08510 0.04431 -0.13900
C 	C 	0.77162 0.06915 0.03240 0.38400
C 	C 	0.76423 0.11863 0.01746 -0.13200
F 	F 	0.94174 0.26485 0.01207 -0.39300
H 	H 	0.94396 0.16431 0.04172 0.10500
F 	F 	0.71607 0.00529 0.03973 -0.40000
H 	H 	0.71435 0.10538 0.01237 0.15100
C 	C 	0.90243 0.57862 0.06488 -0.11500
C 	C 	0.85906 0.59683 0.04920 0.01100
C 	C 	0.79213 0.56139 0.01937 0.30500
C 	C 	0.76714 0.50523 0.00920 -0.06400
C 	C 	0.80729 0.48200 0.03086 -0.07500
C 	C 	0.87647 0.52100 0.05621 0.36000
C 	C 	0.88194 0.64970 0.06720 0.01600
F 	F 	0.74978 0.57878 0.00315 -0.40300
H 	H 	0.71431 0.47649 0.98823 0.10400
F 	F 	0.91685 0.50049 0.07592 -0.39500
H 	H 	0.95511 0.60723 0.08608 0.13400
C 	C 	0.90363 0.64604 0.11995 0.29500
C 	C 	0.92948 0.69814 0.13662 -0.05200
C 	C 	0.93224 0.75348 0.10092 -0.13200
C 	C 	0.90473 0.75435 0.04860 0.36700
C 	C 	0.88137 0.70353 0.03170 -0.12000
F 	F 	0.90056 0.59248 0.15495 -0.39900
H 	H 	0.94968 0.69657 0.17715 0.13100
F 	F 	0.90414 0.80618 0.01388 -0.44900
H 	H 	0.86388 0.70650 0.99099 0.12400
C 	C 	0.55774 0.23265 0.13770 -0.11700
C 	C 	0.49536 0.19143 0.10730 0.01400
C 	C 	0.49610 0.17677 0.07013 0.30800
C 	C 	0.55867 0.20832 0.06012 -0.07700
C 	C 	0.62075 0.25428 0.08737 -0.07500
C 	C 	0.62023 0.26324 0.12829 0.35900
C 	C 	0.42984 0.16850 0.11125 0.02300
F 	F 	0.43610 0.13410 0.04233 -0.40600
H 	H 	0.55855 0.20001 0.02917 0.11700
F 	F 	0.68028 0.30451 0.15708 -0.39700
H 	H 	0.55773 0.24305 0.16724 0.14800
C 	C 	0.40738 0.12749 0.15705 0.29400
C 	C 	0.34345 0.10309 0.15951 -0.04800
C 	C 	0.30077 0.11803 0.11593 -0.14300
C 	C 	0.32505 0.16219 0.07116 0.38200
C 	C 	0.38957 0.18771 0.06900 -0.13500
F 	F 	0.44614 0.10907 0.19842 -0.39300
H 	H 	0.32512 0.06911 0.19426 0.10600
F 	F 	0.28488 0.17820 0.02909 -0.42100
H 	H 	0.40752 0.22103 0.03404 0.14100
