data_crystal

_cell_length_a 26.19314
_cell_length_b 26.33851
_cell_length_c 44.80928
_cell_angle_alpha 95.52809
_cell_angle_beta  95.52660
_cell_angle_gamma 125.78521

_symmetry_space_group_name_	'P 1'
_symmetry_space_group_name_H-M	'P 1'

loop_
_symmetry_equiv_pos_as_xyz
  x,y,z

loop_
_atom_site_label
_atom_site_type_symbol
_atom_site_fract_x
_atom_site_fract_y
_atom_site_fract_z
_atom_site_charge
C 	C 	0.97028 0.03119 0.99059 0.14200
C 	C 	0.06003 0.03423 0.98403 0.14600
N 	N 	0.03127 0.06349 0.98553 -0.12900
C 	C 	0.03212 0.01080 0.47553 0.15500
N 	N 	0.00066 0.03721 0.47312 -0.13400
Cu	Cu	0.63893 0.24079 0.00229 0.93300
Cu	Cu	0.68807 0.25015 0.93718 0.88100
Cu	Cu	0.67895 0.34892 0.96777 0.90600
Cu	Cu	0.64931 0.36149 0.02977 0.90300
C 	C 	0.65904 0.27884 0.06707 0.31000
O 	O 	0.54757 0.20895 0.00290 -0.35300
C 	C 	0.65630 0.31386 0.90021 0.31300
O 	O 	0.69570 0.34070 0.00895 -0.63900
O 	O 	0.63161 0.25460 0.96010 -0.64000
O 	O 	0.67304 0.19090 0.99616 -0.36200
O 	O 	0.74673 0.25992 0.96987 -0.41200
O 	O 	0.63292 0.30804 0.06154 -0.37100
O 	O 	0.72959 0.44066 0.97763 -0.36000
C 	C 	0.72237 0.47378 0.99855 0.31600
C 	C 	0.52584 0.23998 0.99345 0.29700
O 	O 	0.56619 0.30123 0.99325 -0.36500
O 	O 	0.69564 0.45061 0.02223 -0.37200
O 	O 	0.66004 0.24302 0.04478 -0.34800
C 	C 	0.72763 0.21602 0.98673 0.30800
O 	O 	0.67605 0.35807 0.92453 -0.35800
O 	O 	0.64982 0.26089 0.90233 -0.40200
H 	H 	0.74172 0.36526 0.01806 0.18300
H 	H 	0.58728 0.23089 0.94853 0.19000
Cu	Cu	0.73229 0.33551 0.46575 0.93300
Cu	Cu	0.74118 0.30100 0.53356 0.88400
Cu	Cu	0.63475 0.30392 0.50687 0.90200
Cu	Cu	0.60778 0.32414 0.44424 0.90400
C 	C 	0.67789 0.30317 0.40186 0.31000
O 	O 	0.76456 0.42547 0.46189 -0.34100
C 	C 	0.68696 0.34018 0.57343 0.31200
O 	O 	0.63301 0.28093 0.46470 -0.64000
O 	O 	0.72915 0.35128 0.50930 -0.63800
O 	O 	0.78257 0.30110 0.46992 -0.34400
O 	O 	0.72312 0.23636 0.50182 -0.42400
O 	O 	0.64943 0.32985 0.40826 -0.36900
O 	O 	0.54241 0.25275 0.50196 -0.36800
C 	C 	0.50359 0.25026 0.47971 0.31300
C 	C 	0.73595 0.44967 0.47168 0.30400
O 	O 	0.67745 0.41179 0.47678 -0.37700
O 	O 	0.52555 0.28749 0.45921 -0.36400
O 	O 	0.71908 0.30641 0.42294 -0.34800
C 	C 	0.76157 0.25048 0.48221 0.30800
O 	O 	0.63645 0.31320 0.55129 -0.37300
O 	O 	0.73887 0.34592 0.56880 -0.39800
H 	H 	0.60684 0.23445 0.45690 0.18000
H 	H 	0.75422 0.39671 0.51909 0.19700
C 	C 	0.67228 0.37437 0.66175 0.00000
C 	C 	0.72346 0.39410 0.68498 -0.02400
C 	C 	0.71625 0.39599 0.71547 -0.03700
C 	C 	0.65775 0.37830 0.72296 0.01500
C 	C 	0.60767 0.36182 0.69978 -0.03600
C 	C 	0.61491 0.35974 0.66926 -0.02300
C 	C 	0.64692 0.37066 0.75448 0.01500
C 	C 	0.68816 0.42191 0.77894 -0.03500
C 	C 	0.68508 0.41190 0.80901 -0.02300
C 	C 	0.64063 0.35073 0.81481 0.00300
C 	C 	0.59671 0.30041 0.79051 -0.02400
C 	C 	0.59987 0.31027 0.76043 -0.03600
C 	C 	0.64545 0.33796 0.84508 0.06000
C 	C 	0.64952 0.32732 0.87043 -0.08500
C 	C 	0.67641 0.36274 0.63033 0.05800
C 	C 	0.68106 0.35336 0.60421 -0.09100
H 	H 	0.76806 0.40577 0.67935 0.05200
H 	H 	0.75523 0.40882 0.73316 0.05200
H 	H 	0.56256 0.34875 0.70534 0.05500
H 	H 	0.57525 0.34481 0.65142 0.05600
H 	H 	0.72409 0.46890 0.77463 0.05500
H 	H 	0.71888 0.45115 0.82771 0.05900
H 	H 	0.56191 0.25306 0.79483 0.05300
H 	H 	0.56763 0.27042 0.74175 0.05200
C 	C 	0.67750 0.25998 0.31191 0.00300
C 	C 	0.62380 0.23905 0.29010 -0.02300
C 	C 	0.62610 0.23309 0.25902 -0.03500
C 	C 	0.68219 0.24796 0.24954 0.01600
C 	C 	0.73493 0.26611 0.27138 -0.03500
C 	C 	0.73258 0.27218 0.30248 -0.02200
C 	C 	0.68758 0.25015 0.21713 0.01600
C 	C 	0.64381 0.19566 0.19453 -0.03600
C 	C 	0.64262 0.20014 0.16366 -0.02200
C 	C 	0.68526 0.25899 0.15519 0.00200
C 	C 	0.73133 0.31264 0.17765 -0.02300
C 	C 	0.73249 0.30829 0.20852 -0.03600
C 	C 	0.67681 0.26592 0.12400 0.05800
C 	C 	0.66965 0.27158 0.09787 -0.08600
C 	C 	0.67813 0.27469 0.34380 0.05900
C 	C 	0.67793 0.28679 0.37040 -0.08300
H 	H 	0.58097 0.22932 0.29723 0.05500
H 	H 	0.58513 0.21904 0.24236 0.05500
H 	H 	0.77823 0.27713 0.26429 0.05600
H 	H 	0.77418 0.28808 0.31923 0.05800
H 	H 	0.60942 0.15040 0.20092 0.05500
H 	H 	0.60710 0.15836 0.14640 0.05600
H 	H 	0.76466 0.35823 0.17126 0.05300
H 	H 	0.76660 0.35060 0.22577 0.05400
C 	C 	0.74808 0.53140 0.44351 0.00000
C 	C 	0.76344 0.51637 0.47048 -0.08800
C 	C 	0.80199 0.56460 0.49653 0.12400
H 	H 	0.71777 0.49414 0.42356 0.06000
N 	N 	0.81814 0.55000 0.52422 -0.02800
O 	O 	0.85272 0.52934 0.52500 -0.10000
O 	O 	0.80263 0.56216 0.54920 -0.08800
C 	C 	0.83517 0.05501 0.48585 -0.05700
C 	C 	0.84662 0.09363 0.46405 0.01900
C 	C 	0.88370 0.09761 0.44228 0.07200
C 	C 	0.91166 0.06575 0.44358 -0.02700
C 	C 	0.90193 0.02883 0.46600 -0.03700
C 	C 	0.86263 0.02266 0.48696 0.09600
C 	C 	0.82460 0.13418 0.46589 0.03200
N 	N 	0.89335 0.13431 0.41894 -0.01800
H 	H 	0.94099 0.06971 0.42712 0.07400
H 	H 	0.80663 0.05177 0.50260 0.08200
C 	C 	0.75866 0.10665 0.46021 0.05700
C 	C 	0.73860 0.14529 0.46524 -0.00000
C 	C 	0.78373 0.21133 0.47530 -0.09400
C 	C 	0.84972 0.23907 0.48013 0.12200
C 	C 	0.86974 0.20039 0.47534 -0.07200
N 	N 	0.71195 0.03947 0.44937 -0.01600
H 	H 	0.68785 0.12391 0.46118 0.06200
N 	N 	0.89652 0.30616 0.49103 -0.02200
H 	H 	0.92046 0.22168 0.47983 0.08800
O 	O 	0.95107 0.17720 0.41484 -0.08400
O 	O 	0.84433 0.12234 0.40067 -0.07700
O 	O 	0.89897 0.33193 0.51791 -0.11300
O 	O 	0.94021 0.34036 0.47528 -0.07700
O 	O 	0.71418 0.01234 0.42420 -0.07700
C 	C 	0.32323 0.13895 0.45581 -0.07000
C 	C 	0.30437 0.15287 0.48173 0.03200
C 	C 	0.35111 0.19672 0.50756 0.05900
C 	C 	0.41607 0.22620 0.50714 0.00100
C 	C 	0.43502 0.21356 0.48092 -0.08600
C 	C 	0.38825 0.16910 0.45524 0.12300
C 	C 	0.23547 0.12027 0.48190 0.01800
N 	N 	0.33284 0.21230 0.53404 -0.01700
H 	H 	0.45195 0.26063 0.52686 0.06900
N 	N 	0.40659 0.15386 0.42868 -0.02500
H 	H 	0.28730 0.10440 0.43613 0.08900
C 	C 	0.19973 0.13306 0.46286 0.07500
C 	C 	0.13348 0.09801 0.46147 -0.03000
C 	C 	0.10264 0.05125 0.47943 -0.02300
C 	C 	0.13910 0.04100 0.49974 0.09500
C 	C 	0.20498 0.07457 0.50036 -0.05400
N 	N 	0.23058 0.18146 0.44482 -0.01900
H 	H 	0.10589 0.10669 0.44612 0.07900
H 	H 	0.23259 0.06547 0.51541 0.08400
O 	O 	0.38567 0.15713 0.40194 -0.08700
O 	O 	0.44041 0.13242 0.43095 -0.10600
O 	O 	0.35070 0.20575 0.56059 -0.08900
O 	O 	0.30232 0.23727 0.53196 -0.07500
O 	O 	0.21004 0.16771 0.41550 -0.08000
O 	O 	0.27659 0.24003 0.45794 -0.07300
C 	C 	0.75458 0.54180 0.99833 -0.08700
H 	H 	0.81497 0.57243 0.04244 0.06400
N 	N 	0.68945 0.51550 0.94777 -0.02500
O 	O 	0.63143 0.47531 0.95234 -0.08300
C 	C 	0.86650 0.20664 0.99930 -0.07400
C 	C 	0.83404 0.14051 0.99440 0.03100
C 	C 	0.76663 0.09948 0.99014 0.05900
C 	C 	0.73228 0.12489 0.98937 -0.00300
C 	C 	0.76457 0.19095 0.99267 -0.09400
C 	C 	0.83224 0.23217 0.99891 0.12300
C 	C 	0.87090 0.11447 0.99370 0.01800
N 	N 	0.73286 0.03191 0.98623 -0.01700
H 	H 	0.68034 0.09302 0.98499 0.06500
N 	N 	0.86623 0.29989 0.00559 -0.02300
H 	H 	0.91845 0.23830 0.00359 0.08700
C 	C 	0.89649 0.11226 0.96775 0.07400
C 	C 	0.93068 0.08670 0.96735 -0.03200
C 	C 	0.93941 0.06310 0.99255 -0.02500
C 	C 	0.91605 0.06771 0.01900 0.10000
C 	C 	0.88125 0.09266 0.01925 -0.05700
N 	N 	0.88766 0.13575 0.94174 -0.01800
H 	H 	0.94912 0.08378 0.94711 0.07500
N 	N 	0.92944 0.04914 0.04595 -0.02000
H 	H 	0.86300 0.09590 0.03950 0.08400
O 	O 	0.91152 0.33604 0.99097 -0.08900
O 	O 	0.85502 0.32568 0.02775 -0.09700
O 	O 	0.93718 0.18033 0.93179 -0.08800
O 	O 	0.83023 0.10953 0.92674 -0.08600
C 	C 	0.21035 0.06942 0.95977 -0.05400
C 	C 	0.25713 0.12927 0.97818 0.01600
C 	C 	0.23846 0.16146 0.99541 0.07800
C 	C 	0.17341 0.13141 0.99585 -0.03100
C 	C 	0.12673 0.06954 0.97911 -0.02200
C 	C 	0.14521 0.03975 0.95977 0.09200
C 	C 	0.32539 0.15577 0.98110 0.03100
N 	N 	0.28550 0.22429 0.01286 -0.01900
H 	H 	0.15946 0.15519 0.01022 0.08200
H 	H 	0.22461 0.04556 0.94570 0.08100
C 	C 	0.35158 0.13409 0.00039 0.06100
C 	C 	0.41660 0.16040 0.00344 -0.00400
C 	C 	0.45603 0.20809 0.98726 -0.08700
C 	C 	0.42890 0.22731 0.96664 0.12000
C 	C 	0.36401 0.20186 0.96413 -0.07200
N 	N 	0.31215 0.08521 0.01693 -0.01700
H 	H 	0.43680 0.14489 0.01909 0.07300
N 	N 	0.46635 0.27066 0.94742 -0.02200
H 	H 	0.34343 0.21723 0.94862 0.08700
O 	O 	0.28473 0.27129 0.00704 -0.08100
O 	O 	0.32579 0.23358 0.03605 -0.07700
O 	O 	0.49209 0.25605 0.92824 -0.10600
O 	O 	0.47059 0.32239 0.94743 -0.07900
O 	O 	0.30575 0.03207 0.01263 -0.08400
O 	O 	0.28648 0.09559 0.03784 -0.07600
O 	O 	0.98829 0.07308 0.05767 -0.07700
O 	O 	0.70084 0.51637 0.92013 -0.08000
O 	O 	0.73610 0.00130 0.96281 -0.08000
C 	C 	0.73979 0.56149 0.97284 0.12700
C 	C 	0.80315 0.58749 0.02293 0.00200
O 	O 	0.08085 0.00667 0.53987 -0.08000
O 	O 	0.69512 0.00043 0.00481 -0.08500
O 	O 	0.88375 0.01381 0.06056 -0.06900
C 	C 	0.77049 0.59407 0.44233 0.05900
O 	O 	0.76440 0.59254 0.38915 -0.08500
C 	C 	0.82492 0.62747 0.49531 -0.07000
N 	N 	0.75316 0.60828 0.41476 -0.01700
O 	O 	0.72255 0.63325 0.41492 -0.07400
C 	C 	0.77428 0.62661 0.97209 -0.07100
C 	C 	0.80964 0.64258 0.46829 0.03300
O 	O 	0.71202 0.66036 0.48678 -0.07300
C 	C 	0.83856 0.65250 0.02190 0.05900
H 	H 	0.76243 0.64171 0.95261 0.08900
H 	H 	0.85537 0.66471 0.51524 0.09000
C 	C 	0.82395 0.67226 0.99637 0.03300
O 	O 	0.87979 0.69990 0.07427 -0.08400
N 	N 	0.89022 0.69829 0.04652 -0.01700
N 	N 	0.76886 0.71011 0.50030 -0.01800
O 	O 	0.93206 0.69929 0.96438 -0.07600
C 	C 	0.83807 0.70984 0.46670 0.01900
O 	O 	0.66495 0.00616 0.46365 -0.08900
H 	H 	0.89951 0.71635 0.43604 0.08600
O 	O 	0.77906 0.73287 0.52909 -0.07700
O 	O 	0.89808 0.72415 0.92419 -0.08200
N 	N 	0.90921 0.72769 0.95352 -0.01800
O 	O 	0.94838 0.73524 0.04151 -0.07400
C 	C 	0.81877 0.74247 0.48306 0.07700
C 	C 	0.86019 0.74076 0.99508 0.01800
C 	C 	0.88540 0.74165 0.44906 -0.05600
O 	O 	0.90005 0.00163 0.53084 -0.08800
H 	H 	0.82317 0.76032 0.03190 0.08700
N 	N 	0.10968 0.99775 0.52027 -0.01200
N 	N 	0.93750 0.96911 0.99339 -0.11500
C 	C 	0.96639 0.93995 0.99225 0.15300
N 	N 	0.02788 0.97286 0.98794 -0.11500
C 	C 	0.93564 0.99973 0.46836 0.16700
N 	N 	0.90194 0.93553 0.46570 -0.12600
C 	C 	0.93334 0.90894 0.46786 0.15900
N 	N 	0.99836 0.94670 0.47284 -0.11900
C 	C 	0.84879 0.80717 0.48252 -0.02900
C 	C 	0.89711 0.83936 0.46536 -0.02300
C 	C 	0.91401 0.80571 0.44777 0.10200
H 	H 	0.83512 0.83257 0.49582 0.08800
N 	N 	0.95930 0.83615 0.42811 -0.02300
O 	O 	0.94869 0.86054 0.40663 -0.07700
O 	O 	0.00915 0.83610 0.43051 -0.07000
N 	N 	0.85219 0.98527 0.51003 -0.01500
O 	O 	0.79422 0.93774 0.51158 -0.07300
O 	O 	0.11529 0.95190 0.52070 -0.07300
C 	C 	0.85425 0.78020 0.01540 -0.05600
C 	C 	0.90115 0.76685 0.97387 0.07600
C 	C 	0.93489 0.83176 0.97290 -0.03100
C 	C 	0.92988 0.87156 0.99358 -0.02200
C 	C 	0.89007 0.84565 0.01532 0.10300
H 	H 	0.96546 0.85135 0.95618 0.08800
N 	N 	0.88815 0.88601 0.03822 -0.02000
O 	O 	0.93971 0.92978 0.05803 -0.06000
O 	O 	0.83362 0.87455 0.04127 -0.06700
N 	N 	0.09793 0.97987 0.93980 -0.01700
O 	O 	0.10140 0.93258 0.93985 -0.07500
O 	O 	0.05360 0.97374 0.92035 -0.07900
