data_crystal

_cell_length_a 22.66750
_cell_length_b 22.72729
_cell_length_c 34.94541
_cell_angle_alpha 95.48102
_cell_angle_beta  95.48049
_cell_angle_gamma 126.00019

_symmetry_space_group_name_	'P 1'
_symmetry_space_group_name_H-M	'P 1'

loop_
_symmetry_equiv_pos_as_xyz
  x,y,z

loop_
_atom_site_label
_atom_site_type_symbol
_atom_site_fract_x
_atom_site_fract_y
_atom_site_fract_z
_atom_site_charge
C 	C 	0.98757 0.05085 0.99377 0.02600
C 	C 	0.94659 0.97610 0.99712 -0.06800
C 	C 	0.98260 0.94356 0.00321 0.02600
C 	C 	0.05989 0.98620 0.00662 -0.07100
C 	C 	0.10113 0.06093 0.00302 0.02300
C 	C 	0.06472 0.09304 0.99643 -0.07100
H 	H 	0.88677 0.94312 0.99446 0.05000
H 	H 	0.08782 0.96126 0.01199 0.04900
H 	H 	0.09625 0.15056 0.99327 0.04900
C 	C 	0.91296 0.99889 0.47858 0.02000
C 	C 	0.98983 0.04112 0.48002 -0.06200
C 	C 	0.02383 0.00613 0.47619 0.01500
C 	C 	0.98085 0.92874 0.47049 -0.06100
C 	C 	0.90410 0.88620 0.46975 0.02000
C 	C 	0.87030 0.92151 0.47389 -0.06600
H 	H 	0.02311 0.10101 0.48429 0.04600
H 	H 	0.00714 0.90175 0.46690 0.04700
H 	H 	0.81108 0.88894 0.47347 0.04800
Cu	Cu	0.65889 0.24781 0.00510 0.92800
Cu	Cu	0.69145 0.22598 0.91758 0.87300
Cu	Cu	0.69343 0.35418 0.94841 0.89700
Cu	Cu	0.67640 0.39520 0.03013 0.89400
C 	C 	0.68122 0.30476 0.08606 0.30900
O 	O 	0.55464 0.20822 0.01098 -0.36900
C 	C 	0.65066 0.28751 0.86365 0.30600
O 	O 	0.72186 0.36122 0.00297 -0.64000
O 	O 	0.63691 0.24575 0.94864 -0.64100
O 	O 	0.69903 0.19005 0.00223 -0.37100
O 	O 	0.76934 0.25109 0.95779 -0.43800
O 	O 	0.69207 0.36717 0.08063 -0.38800
O 	O 	0.75460 0.46050 0.95215 -0.38000
C 	C 	0.75676 0.50637 0.97956 0.28500
C 	C 	0.52560 0.24161 0.00129 0.28100
O 	O 	0.56773 0.30904 0.99421 -0.38500
O 	O 	0.70884 0.48108 0.00359 -0.39300
O 	O 	0.69309 0.26819 0.06018 -0.35700
C 	C 	0.75533 0.21041 0.98476 0.28800
O 	O 	0.67996 0.34705 0.89093 -0.38800
O 	O 	0.63749 0.22622 0.87249 -0.40700
H 	H 	0.77616 0.39064 0.01209 0.16600
H 	H 	0.58347 0.21693 0.93722 0.17400
Cu	Cu	0.71828 0.32741 0.45052 0.92800
Cu	Cu	0.71267 0.27684 0.53549 0.87100
Cu	Cu	0.59566 0.28509 0.49726 0.89700
Cu	Cu	0.57750 0.31579 0.41714 0.89500
C 	C 	0.66775 0.29754 0.36745 0.31400
O 	O 	0.75746 0.43300 0.44800 -0.35600
C 	C 	0.64014 0.31326 0.58390 0.31300
O 	O 	0.60206 0.26296 0.44417 -0.64100
O 	O 	0.70568 0.33990 0.50516 -0.64200
O 	O 	0.77654 0.28819 0.45806 -0.37200
O 	O 	0.69906 0.20693 0.49428 -0.43800
O 	O 	0.63392 0.32790 0.37423 -0.38100
O 	O 	0.48834 0.22557 0.48644 -0.37900
C 	C 	0.44740 0.22404 0.45615 0.28700
C 	C 	0.72293 0.45980 0.45983 0.28200
O 	O 	0.65227 0.41482 0.46176 -0.38900
O 	O 	0.47751 0.26945 0.43115 -0.39100
O 	O 	0.71183 0.29939 0.39596 -0.36300
C 	C 	0.74968 0.22759 0.47245 0.28600
O 	O 	0.58872 0.29324 0.55324 -0.38000
O 	O 	0.70266 0.32361 0.57986 -0.42300
H 	H 	0.57252 0.20945 0.43307 0.16400
H 	H 	0.73409 0.39178 0.51912 0.17300
C 	C 	0.64580 0.26633 0.75441 -0.11800
C 	C 	0.62016 0.30657 0.74371 0.00100
C 	C 	0.60228 0.33876 0.77220 0.12200
C 	C 	0.61053 0.33079 0.81123 -0.03500
C 	C 	0.63767 0.29172 0.82213 -0.12400
C 	C 	0.65566 0.25968 0.79344 0.19000
C 	C 	0.61661 0.31843 0.70307 0.00600
O 	O 	0.57557 0.37688 0.76187 -0.27600
H 	H 	0.59624 0.35535 0.83302 0.05700
O 	O 	0.68365 0.22255 0.80356 -0.30000
H 	H 	0.65999 0.24179 0.73254 0.06800
C 	C 	0.67912 0.37972 0.69217 0.11300
C 	C 	0.68346 0.38128 0.65256 -0.03300
C 	C 	0.62617 0.32135 0.62366 -0.12900
C 	C 	0.56051 0.26356 0.63444 0.19100
C 	C 	0.55614 0.26218 0.67410 -0.11600
O 	O 	0.73689 0.43720 0.72025 -0.27900
H 	H 	0.73312 0.42723 0.64442 0.05200
O 	O 	0.50316 0.20534 0.60651 -0.29700
H 	H 	0.50739 0.21531 0.68234 0.07500
H 	H 	0.73833 0.26061 0.80980 0.13400
H 	H 	0.77106 0.42403 0.72598 0.14000
H 	H 	0.47004 0.21923 0.59932 0.15500
H 	H 	0.62007 0.42909 0.76507 0.15300
C 	C 	0.71333 0.25732 0.18324 -0.11700
C 	C 	0.66865 0.26718 0.20380 0.00400
C 	C 	0.62430 0.28411 0.18470 0.12300
C 	C 	0.62665 0.29333 0.14574 -0.03700
C 	C 	0.67352 0.28647 0.12555 -0.11900
C 	C 	0.71664 0.26768 0.14440 0.19200
C 	C 	0.67390 0.26716 0.24623 0.00500
O 	O 	0.58198 0.29600 0.20479 -0.27500
H 	H 	0.59312 0.30745 0.13144 0.05100
O 	O 	0.76265 0.26039 0.12517 -0.28400
H 	H 	0.74735 0.24397 0.19779 0.07000
C 	C 	0.61302 0.21109 0.26085 0.11800
C 	C 	0.61277 0.21933 0.30105 -0.03600
C 	C 	0.67400 0.28214 0.32691 -0.12300
C 	C 	0.73746 0.33488 0.31264 0.19600
C 	C 	0.73703 0.32749 0.27237 -0.11500
O 	O 	0.55219 0.15021 0.23569 -0.28000
H 	H 	0.56413 0.17800 0.31197 0.04300
O 	O 	0.79793 0.39630 0.33770 -0.28600
H 	H 	0.78458 0.37026 0.26133 0.07400
H 	H 	0.81105 0.31039 0.13084 0.14700
H 	H 	0.56223 0.11317 0.23314 0.14300
H 	H 	0.83052 0.38224 0.34586 0.15200
H 	H 	0.53226 0.24738 0.19996 0.15400
C 	C 	0.76207 0.54013 0.46833 -0.07900
C 	C 	0.82582 0.58503 0.49770 0.01500
C 	C 	0.86463 0.66188 0.50502 -0.07000
C 	C 	0.84084 0.69465 0.48244 0.04000
C 	C 	0.77686 0.64956 0.45264 -0.00700
C 	C 	0.73713 0.57232 0.44612 -0.00500
C 	C 	0.75441 0.68241 0.42923 -0.03000
C 	C 	0.79573 0.75947 0.43494 -0.04600
C 	C 	0.85915 0.80459 0.46463 0.01500
C 	C 	0.88094 0.77193 0.48874 -0.07100
H 	H 	0.84520 0.56035 0.51493 0.02300
H 	H 	0.91367 0.69591 0.52791 0.04700
H 	H 	0.68800 0.53745 0.42327 0.03400
H 	H 	0.70558 0.64836 0.40622 0.03700
H 	H 	0.77891 0.78419 0.41601 0.04200
H 	H 	0.92941 0.80665 0.51198 0.04900
C 	C 	0.78092 0.18643 0.46703 -0.08700
C 	C 	0.81412 0.18986 0.43451 0.01400
C 	C 	0.84589 0.15291 0.43002 -0.07100
C 	C 	0.84493 0.11213 0.45802 0.03900
C 	C 	0.81102 0.10790 0.49060 -0.01000
C 	C 	0.77905 0.14493 0.49491 -0.01100
C 	C 	0.81014 0.06724 0.51866 -0.03200
C 	C 	0.84312 0.03148 0.51457 -0.04700
C 	C 	0.87720 0.03580 0.48239 0.01400
C 	C 	0.87781 0.07588 0.45404 -0.07200
H 	H 	0.81517 0.22104 0.41264 0.03900
H 	H 	0.87146 0.15625 0.40484 0.04700
H 	H 	0.75389 0.14248 0.52018 0.02500
H 	H 	0.78423 0.06359 0.54373 0.03300
H 	H 	0.84264 0.00075 0.53657 0.04100
H 	H 	0.90387 0.07889 0.42907 0.04900
C 	C 	0.36638 0.17868 0.45351 -0.07700
C 	C 	0.31899 0.14279 0.41680 0.01100
C 	C 	0.24212 0.10147 0.41393 -0.07000
C 	C 	0.21175 0.09602 0.44774 0.03900
C 	C 	0.25920 0.13214 0.48479 -0.00700
C 	C 	0.33632 0.17293 0.48751 -0.00800
C 	C 	0.22886 0.12736 0.51858 -0.03100
C 	C 	0.15204 0.08689 0.51562 -0.04700
C 	C 	0.10479 0.05059 0.47895 0.01600
C 	C 	0.13463 0.05516 0.44504 -0.07200
H 	H 	0.34178 0.14672 0.39046 0.02700
H 	H 	0.20627 0.07396 0.38539 0.04600
H 	H 	0.37290 0.20115 0.51587 0.04400
H 	H 	0.26469 0.15492 0.54712 0.03800
H 	H 	0.12913 0.08329 0.54188 0.04200
H 	H 	0.09790 0.02699 0.41672 0.04800
C 	C 	0.93913 0.86426 0.00499 0.01100
C 	C 	0.90482 0.83854 0.03714 -0.04500
C 	C 	0.86327 0.76329 0.03887 -0.03300
C 	C 	0.85531 0.71290 0.00831 -0.00700
C 	C 	0.88981 0.73860 0.97587 0.03800
C 	C 	0.93182 0.81433 0.97443 -0.06800
C 	C 	0.88147 0.68820 0.94521 -0.06800
C 	C 	0.83860 0.61269 0.94650 0.01000
C 	C 	0.80362 0.58657 0.97857 -0.07600
C 	C 	0.81291 0.63715 0.00966 -0.01400
H 	H 	0.91048 0.87696 0.06083 0.04100
H 	H 	0.83708 0.74420 0.06390 0.03600
H 	H 	0.95835 0.83439 0.94957 0.04800
H 	H 	0.90782 0.70737 0.92023 0.04700
H 	H 	0.83214 0.57451 0.92237 0.04100
H 	H 	0.78713 0.61761 0.03478 0.03700
C 	C 	0.94946 0.08461 0.98670 0.01400
C 	C 	0.94657 0.10663 0.95084 -0.04600
C 	C 	0.90926 0.13733 0.94365 -0.03300
C 	C 	0.87437 0.14629 0.97229 -0.00700
C 	C 	0.87774 0.12484 0.00861 0.03700
C 	C 	0.91536 0.09405 0.01564 -0.07100
C 	C 	0.84293 0.13391 0.03725 -0.06700
C 	C 	0.80410 0.16300 0.02971 0.01100
C 	C 	0.79955 0.18332 0.99342 -0.08200
C 	C 	0.83544 0.17557 0.96490 -0.01200
H 	H 	0.97282 0.09943 0.92841 0.04100
H 	H 	0.90717 0.15376 0.91573 0.03400
H 	H 	0.91797 0.07729 0.04342 0.04800
H 	H 	0.84560 0.11812 0.06531 0.04800
H 	H 	0.77750 0.16970 0.05209 0.05000
H 	H 	0.83185 0.19094 0.93680 0.02700
C 	C 	0.44492 0.20126 0.99538 -0.08000
C 	C 	0.39790 0.13389 0.96873 0.01500
C 	C 	0.32087 0.09414 0.96388 -0.07100
C 	C 	0.29013 0.12081 0.98618 0.04000
C 	C 	0.33739 0.18853 0.01321 -0.00800
C 	C 	0.41470 0.22896 0.01727 -0.00900
C 	C 	0.30669 0.21417 0.03630 -0.03200
C 	C 	0.22971 0.17255 0.03293 -0.04600
C 	C 	0.18248 0.10544 0.00597 0.01200
C 	C 	0.21285 0.08013 0.98229 -0.06900
H 	H 	0.42108 0.11244 0.95169 0.02500
H 	H 	0.28518 0.04226 0.94310 0.04600
H 	H 	0.45124 0.28095 0.03798 0.03000
H 	H 	0.34241 0.26589 0.05720 0.03600
H 	H 	0.20672 0.19215 0.05151 0.04100
H 	H 	0.17639 0.02868 0.96118 0.04700
