data_crystal

_cell_length_a 21.26099
_cell_length_b 21.62394
_cell_length_c 55.64965
_cell_angle_alpha 89.71907
_cell_angle_beta  89.72164
_cell_angle_gamma 119.45574

_symmetry_space_group_name_	'P 1'
_symmetry_space_group_name_H-M	'P 1'

loop_
_symmetry_equiv_pos_as_xyz
  x,y,z

loop_
_atom_site_label
_atom_site_type_symbol
_atom_site_fract_x
_atom_site_fract_y
_atom_site_fract_z
_atom_site_charge
C 	C 	0.07475 0.98930 0.77677 0.28600
C 	C 	0.09652 0.00841 0.70951 0.30800
Ni	Ni	0.96150 0.91673 0.73886 1.11000
Ni	Ni	0.05579 0.08850 0.74271 1.12000
O 	O 	0.01631 0.92886 0.77087 -0.37300
O 	O 	0.10641 0.04326 0.76118 -0.38000
O 	O 	0.06227 0.95036 0.72266 -0.37200
O 	O 	0.07990 0.05910 0.71105 -0.39100
C 	C 	0.21776 0.65521 0.44196 0.32600
O 	O 	0.27551 0.67843 0.45503 -0.38800
O 	O 	0.21691 0.63128 0.42020 -0.37700
C 	C 	0.24760 0.63799 0.97580 0.28400
O 	O 	0.28264 0.70818 0.97358 -0.36900
C 	C 	0.01215 0.13157 0.20319 0.30500
C 	C 	0.05637 0.09022 0.26802 0.28500
C 	C 	0.10730 0.02621 0.17094 0.31000
C 	C 	0.14979 0.97109 0.23443 0.28600
Ni	Ni	0.11134 0.08124 0.21951 1.12000
O 	O 	0.11477 0.08101 0.18335 -0.39000
O 	O 	0.06829 0.14663 0.21675 -0.38100
O 	O 	0.08997 0.91277 0.22786 -0.38100
O 	O 	0.17228 0.03280 0.22299 -0.37800
O 	O 	0.99549 0.07776 0.25719 -0.36700
O 	O 	0.11288 0.09689 0.25544 -0.38100
O 	O 	0.09541 0.96742 0.18192 -0.38800
C 	C 	0.01303 0.18636 0.18715 -0.09200
C 	C 	0.97281 0.16645 0.16585 0.02400
C 	C 	0.97339 0.21820 0.15058 -0.07400
C 	C 	0.01476 0.29040 0.15632 0.04700
C 	C 	0.05365 0.31025 0.17783 -0.07600
C 	C 	0.05323 0.25853 0.19311 0.02200
C 	C 	0.01811 0.34560 0.13981 -0.05300
C 	C 	0.03799 0.34787 0.11671 -0.05200
C 	C 	0.05499 0.40984 0.10109 0.04800
C 	C 	0.09700 0.47929 0.10976 -0.07500
C 	C 	0.06436 0.45744 0.06078 0.02100
C 	C 	0.03759 0.39941 0.07661 -0.07600
H 	H 	0.94158 0.11094 0.16105 0.03600
H 	H 	0.94194 0.20222 0.13425 0.05000
H 	H 	0.08507 0.36582 0.18253 0.04800
H 	H 	0.08368 0.27454 0.20964 0.03600
H 	H 	0.01077 0.38819 0.14710 0.04300
H 	H 	0.04352 0.30427 0.10935 0.04400
H 	H 	0.11269 0.48821 0.12845 0.04900
H 	H 	0.00532 0.34616 0.06972 0.04900
C 	C 	0.22127 0.88380 0.01300 -0.08700
C 	C 	0.14861 0.86496 0.01673 0.01900
C 	C 	0.13128 0.91230 0.02803 -0.07300
C 	C 	0.18647 0.97866 0.03552 0.04300
C 	C 	0.25778 0.00205 0.02777 -0.07100
C 	C 	0.17083 0.01721 0.05443 -0.05100
C 	C 	0.20807 0.03448 0.07509 -0.05300
C 	C 	0.17512 0.04067 0.09779 0.04900
C 	C 	0.10731 0.98526 0.10527 -0.07600
C 	C 	0.08340 0.98267 0.12889 0.02100
C 	C 	0.12684 0.03543 0.14526 -0.09000
C 	C 	0.19253 0.09306 0.13743 0.02500
C 	C 	0.21682 0.09535 0.11384 -0.07700
H 	H 	0.10614 0.81142 0.01303 0.03600
H 	H 	0.07558 0.89501 0.03283 0.04800
H 	H 	0.12047 0.01862 0.05351 0.04300
H 	H 	0.26015 0.03655 0.07587 0.04500
H 	H 	0.07486 0.94228 0.09316 0.04900
H 	H 	0.03220 0.93839 0.13469 0.03100
H 	H 	0.22637 0.13429 0.14990 0.03100
H 	H 	0.26927 0.13818 0.10832 0.05000
C 	C 	0.06692 0.11177 0.29364 -0.08200
C 	C 	0.13224 0.12890 0.30514 0.01700
C 	C 	0.14511 0.15579 0.32848 -0.07400
C 	C 	0.09299 0.16581 0.34067 0.04600
C 	C 	0.02562 0.14388 0.32993 -0.07400
C 	C 	0.01281 0.11748 0.30648 0.01600
C 	C 	0.11050 0.20128 0.36437 -0.05200
C 	C 	0.09697 0.25468 0.36901 -0.05100
C 	C 	0.13360 0.30512 0.38882 0.04600
C 	C 	0.09589 0.33246 0.40170 -0.07400
C 	C 	0.13369 0.39510 0.41485 0.02100
C 	C 	0.20947 0.43134 0.41491 -0.08400
C 	C 	0.20889 0.33670 0.39145 -0.07200
H 	H 	0.17361 0.12254 0.29589 0.03500
H 	H 	0.19649 0.17071 0.33685 0.04700
H 	H 	0.98353 0.14799 0.33961 0.04900
H 	H 	0.96123 0.10236 0.29826 0.03600
H 	H 	0.14323 0.19027 0.37676 0.04300
H 	H 	0.06247 0.26453 0.35707 0.04400
H 	H 	0.03773 0.30793 0.40019 0.04900
H 	H 	0.10439 0.41874 0.42312 0.03500
H 	H 	0.23890 0.31611 0.38177 0.04800
C 	C 	0.43478 0.92948 0.34183 -0.07700
C 	C 	0.44588 0.88920 0.35930 0.02200
C 	C 	0.35463 0.97109 0.32425 -0.05600
C 	C 	0.28657 0.93116 0.31656 -0.05100
C 	C 	0.26308 0.94612 0.29342 0.04500
C 	C 	0.22840 0.89121 0.27682 -0.07500
C 	C 	0.19527 0.90086 0.25666 0.02100
C 	C 	0.19577 0.96540 0.25303 -0.08600
C 	C 	0.23386 0.02174 0.26897 0.01700
C 	C 	0.26708 0.01203 0.28917 -0.07200
H 	H 	0.46503 0.94245 0.32509 0.04900
H 	H 	0.48456 0.87135 0.35585 0.03700
H 	H 	0.24980 0.88285 0.32630 0.04400
H 	H 	0.22542 0.84031 0.27990 0.04900
H 	H 	0.23501 0.07195 0.26631 0.03200
H 	H 	0.29333 0.05468 0.30197 0.04800
C 	C 	0.15071 0.63649 0.45390 -0.10700
C 	C 	0.09637 0.61872 0.46551 0.04200
C 	C 	0.22985 0.06997 0.65797 -0.07700
C 	C 	0.16743 0.05178 0.67146 0.02300
C 	C 	0.15745 0.01899 0.69405 -0.09500
C 	C 	0.20961 0.00274 0.70274 0.02100
H 	H 	0.23731 0.09586 0.64065 0.05000
H 	H 	0.12728 0.06407 0.66449 0.03400
H 	H 	0.20252 0.97751 0.72017 0.03600
C 	C 	0.04034 0.54014 0.94376 0.01100
C 	C 	0.09782 0.59879 0.93246 -0.05500
C 	C 	0.16787 0.62649 0.94140 0.01200
C 	C 	0.12391 0.53372 0.97189 0.00900
C 	C 	0.05395 0.50592 0.96286 -0.05400
C 	C 	0.18061 0.59643 0.96203 -0.08000
H 	H 	0.21153 0.67350 0.93306 0.03900
H 	H 	0.13306 0.50884 0.98741 0.03700
H 	H 	0.00988 0.45952 0.97136 0.04600
C 	C 	0.11508 0.99021 0.79832 -0.08500
C 	C 	0.11960 0.92974 0.80496 0.02100
C 	C 	0.16469 0.93322 0.82374 -0.07600
C 	C 	0.15365 0.05321 0.81129 0.01600
H 	H 	0.09022 0.88079 0.79504 0.03400
H 	H 	0.15002 0.09997 0.80648 0.03000
C 	C 	0.60245 0.29497 0.99763 0.30500
C 	C 	0.82786 0.46813 0.92942 0.32600
C 	C 	0.65234 0.48319 0.97516 0.30600
C 	C 	0.77267 0.29440 0.94488 0.29000
C 	C 	0.60690 0.41472 0.90416 0.31200
C 	C 	0.53100 0.21916 0.92188 0.29400
Ni	Ni	0.73354 0.40050 0.97073 1.11200
Ni	Ni	0.68653 0.34053 0.91615 1.12100
Ni	Ni	0.57005 0.34496 0.95136 1.12000
O 	O 	0.67376 0.32668 0.99711 -0.37200
O 	O 	0.56721 0.32488 0.98756 -0.38100
O 	O 	0.66939 0.41653 0.90222 -0.38600
O 	O 	0.79100 0.47948 0.94585 -0.38700
O 	O 	0.79493 0.41270 0.91536 -0.37900
O 	O 	0.52233 0.24164 0.94314 -0.39000
O 	O 	0.69392 0.46315 0.98639 -0.36700
O 	O 	0.61796 0.45105 0.95572 -0.39100
O 	O 	0.58597 0.26074 0.90722 -0.38100
O 	O 	0.79100 0.34688 0.96087 -0.36700
O 	O 	0.71631 0.27309 0.93044 -0.38400
O 	O 	0.55426 0.36542 0.91721 -0.38900
O 	O 	0.66046 0.34795 0.94847 -0.71300
H 	H 	0.64577 0.29974 0.95440 0.15800
C 	C 	0.82091 0.30434 0.54575 0.29100
C 	C 	0.62069 0.36582 0.49016 0.30800
C 	C 	0.83643 0.46740 0.51877 0.30800
C 	C 	0.59145 0.17938 0.51331 0.30000
C 	C 	0.64937 0.44240 0.56106 0.30900
C 	C 	0.61481 0.26672 0.58762 0.29200
Ni	Ni	0.72531 0.32093 0.50689 1.11300
Ni	Ni	0.58743 0.30015 0.53886 1.12100
Ni	Ni	0.74568 0.38270 0.56085 1.12000
O 	O 	0.81458 0.31930 0.52282 -0.36900
O 	O 	0.78694 0.31654 0.56366 -0.38300
O 	O 	0.59431 0.37706 0.56122 -0.38300
O 	O 	0.64738 0.32399 0.48521 -0.37300
O 	O 	0.59540 0.36618 0.51167 -0.38100
O 	O 	0.67207 0.33224 0.58804 -0.38200
O 	O 	0.78082 0.43048 0.50506 -0.38700
O 	O 	0.83662 0.44617 0.54099 -0.38100
O 	O 	0.57554 0.24054 0.56796 -0.38800
O 	O 	0.66035 0.21134 0.50658 -0.37100
O 	O 	0.55645 0.21586 0.51601 -0.37200
O 	O 	0.71426 0.45473 0.55511 -0.39300
O 	O 	0.68503 0.32001 0.53692 -0.71800
H 	H 	0.67896 0.27486 0.54333 0.15700
C 	C 	0.24846 0.50832 0.41872 0.28700
C 	C 	0.43700 0.77689 0.46898 0.30700
C 	C 	0.47191 0.62093 0.44941 0.30100
C 	C 	0.39920 0.80880 0.39505 0.30900
C 	C 	0.43749 0.66262 0.37496 0.28800
Ni	Ni	0.33486 0.62637 0.45536 1.11200
Ni	Ni	0.46753 0.73725 0.42113 1.12100
Ni	Ni	0.30761 0.65590 0.40018 1.12100
O 	O 	0.24878 0.53352 0.44063 -0.36900
O 	O 	0.26920 0.55000 0.39931 -0.37900
O 	O 	0.45649 0.80049 0.39654 -0.38300
O 	O 	0.41179 0.71034 0.47556 -0.37100
O 	O 	0.45439 0.79680 0.44651 -0.38100
O 	O 	0.38073 0.67323 0.37330 -0.38200
O 	O 	0.48206 0.68638 0.39355 -0.38600
O 	O 	0.40428 0.58484 0.45728 -0.37300
O 	O 	0.50365 0.69065 0.44553 -0.37500
O 	O 	0.33592 0.75865 0.40270 -0.39200
O 	O 	0.37179 0.65959 0.42447 -0.71500
H 	H 	0.37971 0.62064 0.41909 0.15400
C 	C 	0.40260 0.87280 0.04073 0.30100
C 	C 	0.42808 0.68846 0.00669 0.32600
C 	C 	0.24147 0.82770 0.01305 0.29600
C 	C 	0.33277 0.67541 0.07464 0.30800
C 	C 	0.14926 0.58557 0.05233 0.30000
Ni	Ni	0.34956 0.77338 0.00035 1.11000
Ni	Ni	0.25814 0.74266 0.05128 1.12100
Ni	Ni	0.28110 0.61890 0.02687 1.11800
O 	O 	0.27177 0.60505 0.99029 -0.37700
O 	O 	0.31388 0.72456 0.07669 -0.38700
O 	O 	0.41810 0.83194 0.02760 -0.38600
O 	O 	0.33852 0.84669 0.05111 -0.37900
O 	O 	0.17445 0.57355 0.03220 -0.39700
O 	O 	0.41474 0.72816 0.99190 -0.37300
O 	O 	0.38946 0.66183 0.02611 -0.39600
O 	O 	0.16432 0.65083 0.05845 -0.37700
O 	O 	0.30040 0.83815 0.00092 -0.37200
O 	O 	0.20644 0.77330 0.02793 -0.38300
O 	O 	0.29240 0.61698 0.06268 -0.39400
O 	O 	0.28507 0.70832 0.02348 -0.70800
H 	H 	0.23941 0.69180 0.01481 0.15300
C 	C 	0.90775 0.85171 0.24839 0.29300
C 	C 	0.12282 0.53724 0.09400 0.02400
C 	C 	0.10879 0.52648 0.06931 -0.09300
H 	H 	0.15754 0.59020 0.10077 0.03400
H 	H 	0.05253 0.44852 0.04179 0.03200
C 	C 	0.82138 0.86121 0.17181 -0.09700
C 	C 	0.82595 0.88219 0.14769 0.02400
C 	C 	0.76804 0.84376 0.13225 -0.07800
C 	C 	0.70528 0.78395 0.14080 0.04900
C 	C 	0.70265 0.76049 0.16457 -0.07700
C 	C 	0.75994 0.79966 0.18010 0.02400
C 	C 	0.64217 0.74729 0.12484 -0.05300
C 	C 	0.57511 0.72799 0.13278 -0.05200
C 	C 	0.51538 0.70881 0.11577 0.04900
C 	C 	0.44769 0.64907 0.12037 -0.07700
C 	C 	0.38826 0.63608 0.10621 0.02500
C 	C 	0.39602 0.68349 0.08766 -0.09200
C 	C 	0.46397 0.74219 0.08269 0.02600
C 	C 	0.52337 0.75486 0.09667 -0.07400
H 	H 	0.77124 0.86146 0.11381 0.04800
H 	H 	0.65612 0.71233 0.17106 0.04800
H 	H 	0.75667 0.78210 0.19856 0.03200
H 	H 	0.65152 0.74379 0.10579 0.04400
H 	H 	0.56490 0.73017 0.15182 0.04400
H 	H 	0.44082 0.61355 0.13519 0.04900
H 	H 	0.33587 0.59063 0.11017 0.03100
H 	H 	0.47037 0.77890 0.06833 0.04000
H 	H 	0.57501 0.80186 0.09321 0.05100
C 	C 	0.27491 0.95480 0.01621 0.01700
H 	H 	0.30040 0.05501 0.03205 0.04800
H 	H 	0.33062 0.97165 0.01167 0.03700
C 	C 	0.46255 0.64175 0.35332 -0.08500
C 	C 	0.45360 0.66407 0.33049 0.01900
C 	C 	0.49746 0.66647 0.31128 -0.07400
C 	C 	0.55124 0.64760 0.31482 0.04500
C 	C 	0.55371 0.61690 0.33692 -0.07200
C 	C 	0.50843 0.61267 0.35587 0.01800
C 	C 	0.61328 0.67523 0.29779 -0.05000
C 	C 	0.65517 0.64502 0.29557 -0.05500
C 	C 	0.72771 0.68580 0.28476 0.04800
C 	C 	0.78377 0.73922 0.29808 -0.07500
C 	C 	0.84659 0.79020 0.28647 0.01900
C 	C 	0.85377 0.78800 0.26145 -0.08700
C 	C 	0.80104 0.72985 0.24861 0.02000
C 	C 	0.73800 0.67915 0.26023 -0.07600
H 	H 	0.41667 0.68453 0.32801 0.03600
H 	H 	0.49352 0.68833 0.29415 0.04700
H 	H 	0.59415 0.60128 0.34007 0.04800
H 	H 	0.51344 0.59228 0.37316 0.03300
H 	H 	0.62848 0.72473 0.28825 0.04500
H 	H 	0.63787 0.59238 0.30287 0.04300
H 	H 	0.77680 0.74376 0.31718 0.05000
H 	H 	0.88779 0.83361 0.29671 0.03300
H 	H 	0.80656 0.72651 0.22937 0.03400
H 	H 	0.69548 0.63725 0.24990 0.04900
C 	C 	0.24649 0.39924 0.40460 0.01800
H 	H 	0.30499 0.42615 0.40491 0.02800
C 	C 	0.40269 0.86699 0.38019 -0.09300
C 	C 	0.35426 0.89225 0.38462 0.02200
C 	C 	0.34319 0.93243 0.36713 -0.07700
C 	C 	0.38029 0.94737 0.34506 0.04900
H 	H 	0.32243 0.87756 0.40105 0.03600
H 	H 	0.30277 0.94830 0.37014 0.05000
H 	H 	0.39329 0.01633 0.31361 0.04500
C 	C 	0.48708 0.96393 0.50636 0.01500
C 	C 	0.42133 0.92799 0.49421 -0.05500
C 	C 	0.39955 0.86104 0.48444 0.01500
C 	C 	0.55071 0.10330 0.51185 -0.09300
C 	C 	0.50519 0.86231 0.50115 0.01400
C 	C 	0.52691 0.92927 0.51096 -0.05600
C 	C 	0.52009 0.03953 0.50988 0.03800
C 	C 	0.44376 0.82995 0.48662 -0.08400
H 	H 	0.38949 0.95379 0.49093 0.04900
H 	H 	0.35132 0.83594 0.47356 0.04100
H 	H 	0.53922 0.83836 0.50323 0.03400
H 	H 	0.57722 0.95614 0.52073 0.04700
C 	C 	0.58075 0.51007 0.45245 0.01500
C 	C 	0.64520 0.53545 0.46526 -0.05600
C 	C 	0.66514 0.48769 0.47479 0.01400
C 	C 	0.51478 0.58639 0.44958 -0.09700
C 	C 	0.56144 0.39008 0.45613 0.01500
C 	C 	0.54169 0.43792 0.44649 -0.05700
C 	C 	0.54678 0.55333 0.45034 0.03800
C 	C 	0.62010 0.41431 0.47183 -0.08500
H 	H 	0.67678 0.59139 0.46947 0.04700
H 	H 	0.71163 0.50717 0.48645 0.03900
H 	H 	0.52721 0.33365 0.45324 0.03400
H 	H 	0.49273 0.41803 0.43604 0.04700
C 	C 	0.87867 0.28909 0.55207 -0.08500
C 	C 	0.94904 0.34585 0.55494 0.02100
C 	C 	0.99721 0.33849 0.57013 -0.07700
C 	C 	0.97585 0.27380 0.58203 0.04600
C 	C 	0.90911 0.21441 0.57642 -0.07300
C 	C 	0.86060 0.22217 0.56154 0.02000
C 	C 	0.01402 0.27283 0.60399 -0.04900
C 	C 	0.03067 0.22119 0.60781 -0.05400
C 	C 	0.03094 0.19541 0.63251 0.05000
C 	C 	0.99276 0.12227 0.63733 -0.07800
C 	C 	0.97949 0.09742 0.66102 0.02200
H 	H 	0.96409 0.39745 0.54723 0.03100
H 	H 	0.89232 0.16378 0.58521 0.04900
H 	H 	0.80683 0.17760 0.55905 0.02900
H 	H 	0.02918 0.18849 0.59279 0.04400
H 	H 	0.97013 0.08482 0.62273 0.04700
H 	H 	0.94782 0.04090 0.66452 0.03500
C 	C 	0.58271 0.23064 0.61059 -0.08500
C 	C 	0.54744 0.15614 0.61185 0.02000
C 	C 	0.49649 0.11991 0.63001 -0.07400
C 	C 	0.48038 0.15799 0.64700 0.04700
C 	C 	0.52199 0.23228 0.64747 -0.07500
C 	C 	0.57297 0.26857 0.62930 0.02000
C 	C 	0.41562 0.12122 0.66263 -0.05200
C 	C 	0.35039 0.07867 0.65305 -0.05300
C 	C 	0.28347 0.05670 0.66712 0.04800
C 	C 	0.27245 0.02160 0.68933 -0.07600
H 	H 	0.55606 0.12627 0.59789 0.03200
H 	H 	0.46696 0.06237 0.63013 0.05000
H 	H 	0.51158 0.26210 0.66099 0.04800
H 	H 	0.60076 0.32610 0.62880 0.03400
H 	H 	0.41965 0.13634 0.68140 0.04300
H 	H 	0.34597 0.06768 0.63390 0.04500
H 	H 	0.31272 0.00951 0.69629 0.05000
C 	C 	0.64163 0.50008 0.57191 -0.09300
C 	C 	0.67509 0.56719 0.56076 0.02500
C 	C 	0.69330 0.62799 0.57424 -0.07600
C 	C 	0.67716 0.62206 0.59887 0.04800
C 	C 	0.63553 0.55438 0.60930 -0.07600
C 	C 	0.61757 0.49351 0.59581 0.02200
C 	C 	0.71696 0.68459 0.61432 -0.05300
C 	C 	0.68210 0.70569 0.62956 -0.05200
C 	C 	0.72233 0.76131 0.64767 0.04700
C 	C 	0.69541 0.75236 0.67124 -0.07600
C 	C 	0.73651 0.80043 0.68909 0.02200
H 	H 	0.69222 0.57271 0.54212 0.03300
H 	H 	0.72420 0.67991 0.56590 0.05000
H 	H 	0.62191 0.54907 0.62826 0.04900
H 	H 	0.59059 0.44184 0.60453 0.03300
H 	H 	0.77563 0.71234 0.61367 0.04400
H 	H 	0.62338 0.67709 0.63027 0.04300
H 	H 	0.64373 0.70688 0.67590 0.04800
H 	H 	0.71623 0.79162 0.70741 0.03600
C 	C 	0.50880 0.09430 0.02487 0.01200
C 	C 	0.53280 0.05126 0.01402 -0.05500
C 	C 	0.50311 0.98008 0.02086 0.00700
C 	C 	0.56331 0.22553 0.00826 -0.10300
C 	C 	0.42893 0.99602 0.05078 0.01000
C 	C 	0.45859 0.06730 0.04379 -0.05700
C 	C 	0.53614 0.16607 0.01638 0.04000
C 	C 	0.44813 0.95090 0.03842 -0.08600
H 	H 	0.57328 0.07251 0.99985 0.04700
H 	H 	0.52051 0.94693 0.01170 0.03200
H 	H 	0.38830 0.97508 0.06489 0.03800
H 	H 	0.44107 0.10080 0.05266 0.04500
C 	C 	0.57650 0.62343 0.99485 0.01300
C 	C 	0.57798 0.57670 0.01216 -0.05600
C 	C 	0.61171 0.53652 0.00693 0.01100
C 	C 	0.48381 0.67099 0.00117 -0.10500
C 	C 	0.64890 0.59496 0.96807 0.01500
C 	C 	0.61483 0.63477 0.97324 -0.05700
C 	C 	0.52762 0.65147 0.99791 0.04200
C 	C 	0.64367 0.54248 0.98429 -0.08500
H 	H 	0.54955 0.56848 0.02911 0.04800
H 	H 	0.60792 0.49688 0.01973 0.03700
H 	H 	0.67469 0.60114 0.95071 0.03500
H 	H 	0.61514 0.67163 0.95992 0.04700
C 	C 	0.82253 0.26679 0.94029 -0.08500
C 	C 	0.89445 0.31433 0.93376 0.01900
C 	C 	0.93198 0.29227 0.91846 -0.07400
C 	C 	0.89816 0.22222 0.91009 0.04600
C 	C 	0.83157 0.17201 0.92020 -0.07400
C 	C 	0.79387 0.19430 0.93528 0.01900
C 	C 	0.92708 0.20454 0.88850 -0.05200
C 	C 	0.88461 0.17485 0.86932 -0.05200
C 	C 	0.91479 0.16915 0.84593 0.04600
C 	C 	0.89217 0.18770 0.82478 -0.07400
C 	C 	0.91208 0.17379 0.80234 0.01800
H 	H 	0.80676 0.11677 0.91501 0.04900
H 	H 	0.73964 0.15633 0.94119 0.03200
H 	H 	0.82808 0.16110 0.87015 0.04400
H 	H 	0.85792 0.21171 0.82574 0.04800
H 	H 	0.89357 0.18782 0.78618 0.03600
C 	C 	0.20499 0.99683 0.83623 0.04700
C 	C 	0.19869 0.05671 0.83005 -0.07400
C 	C 	0.26039 0.00314 0.85356 -0.05300
C 	C 	0.27116 0.03933 0.87410 -0.05100
C 	C 	0.33950 0.06635 0.88759 0.04600
C 	C 	0.40605 0.09524 0.87526 -0.07400
C 	C 	0.47038 0.13850 0.88730 0.01900
C 	C 	0.46878 0.15546 0.91157 -0.08500
C 	C 	0.40334 0.11940 0.92451 0.01800
C 	C 	0.33898 0.07554 0.91251 -0.07400
H 	H 	0.16954 0.88693 0.82822 0.04900
H 	H 	0.23059 0.10662 0.83922 0.04900
H 	H 	0.29468 0.98062 0.84898 0.04300
H 	H 	0.23117 0.05341 0.88019 0.04300
H 	H 	0.40771 0.08819 0.85606 0.04900
H 	H 	0.52084 0.16261 0.87731 0.03500
H 	H 	0.40154 0.12858 0.94355 0.03700
H 	H 	0.28824 0.05198 0.92234 0.04900
C 	C 	0.69115 0.74205 0.82522 0.04800
C 	C 	0.68465 0.80124 0.81864 -0.07600
C 	C 	0.73124 0.84922 0.80133 0.02000
C 	C 	0.64389 0.69292 0.84412 -0.05300
C 	C 	0.61190 0.62241 0.84091 -0.05200
C 	C 	0.59819 0.57337 0.86138 0.04800
C 	C 	0.54298 0.50242 0.85970 -0.07600
C 	C 	0.54225 0.45064 0.87506 0.02300
C 	C 	0.59692 0.46954 0.89210 -0.09300
C 	C 	0.64811 0.54116 0.89525 0.02600
C 	C 	0.64894 0.59288 0.87999 -0.07600
H 	H 	0.64316 0.80976 0.82677 0.04900
H 	H 	0.72460 0.89391 0.79602 0.03500
H 	H 	0.64199 0.71406 0.86162 0.04300
H 	H 	0.60506 0.60162 0.82278 0.04400
H 	H 	0.50315 0.48675 0.84561 0.04900
H 	H 	0.50178 0.39544 0.87276 0.03200
H 	H 	0.68979 0.55628 0.90868 0.03700
H 	H 	0.69209 0.64725 0.88158 0.05000
O 	O 	0.95250 0.07043 0.20560 -0.37600
O 	O 	0.82407 0.92383 0.71998 -0.37800
O 	O 	0.02352 0.99444 0.22416 -0.71900
H 	H 	0.03381 0.98130 0.24002 0.15200
H 	H 	0.16742 0.85746 0.24423 0.03600
C 	C 	0.90480 0.52155 0.50746 -0.08800
C 	C 	0.80504 0.85779 0.68353 -0.09200
C 	C 	0.78854 0.82181 0.64175 -0.07600
H 	H 	0.80810 0.83174 0.62335 0.04800
C 	C 	0.78542 0.83874 0.79068 -0.08600
H 	H 	0.85350 0.53772 0.47634 0.03600
H 	H 	0.08587 0.58432 0.51228 0.04500
C 	C 	0.74638 0.73256 0.81505 -0.07600
H 	H 	0.08799 0.62454 0.91733 0.04700
H 	H 	0.91873 0.36967 0.93861 0.03600
O 	O 	0.96574 0.00360 0.74558 -0.71600
H 	H 	0.96248 0.00013 0.76322 0.14900
O 	O 	0.91644 0.90954 0.70526 -0.38100
C 	C 	0.88026 0.90367 0.18841 0.30900
H 	H 	0.07026 0.25567 0.69003 0.03400
H 	H 	0.01186 0.09839 0.82096 0.03300
H 	H 	0.83565 0.77268 0.79024 0.03000
C 	C 	0.85198 0.90284 0.70283 0.30400
C 	C 	0.83231 0.88692 0.77150 0.28900
C 	C 	0.98069 0.11934 0.70484 0.30300
C 	C 	0.96919 0.11923 0.77718 0.28400
Ni	Ni	0.88255 0.01322 0.73970 1.12100
O 	O 	0.91452 0.06727 0.70854 -0.38700
O 	O 	0.03383 0.12584 0.77290 -0.38200
O 	O 	0.92128 0.10304 0.75966 -0.37900
O 	O 	0.85835 0.86115 0.75486 -0.37200
O 	O 	0.83615 0.94985 0.76873 -0.38200
O 	O 	0.02539 0.14724 0.72290 -0.38500
Ni	Ni	0.93914 0.99695 0.23206 1.11200
Ni	Ni	0.01598 0.91652 0.20642 1.12000
O 	O 	0.91816 0.91446 0.25569 -0.38000
O 	O 	0.93070 0.84313 0.22688 -0.37900
O 	O 	0.86470 0.91697 0.21000 -0.37800
O 	O 	0.94683 0.92112 0.18250 -0.39300
H 	H 	0.87361 0.92912 0.14105 0.03100
C 	C 	0.03329 0.59474 0.48062 0.01300
C 	C 	0.96801 0.58368 0.47089 -0.05800
C 	C 	0.90405 0.54793 0.48434 0.01100
C 	C 	0.97138 0.53846 0.51790 0.01200
C 	C 	0.03527 0.57470 0.50448 -0.05500
H 	H 	0.96627 0.60026 0.45261 0.04700
H 	H 	0.97336 0.52039 0.53592 0.03700
C 	C 	0.00461 0.14543 0.68016 -0.08600
C 	C 	0.04875 0.21824 0.67539 0.02100
C 	C 	0.06256 0.24317 0.65161 -0.07500
H 	H 	0.04909 0.38435 0.57395 0.05000
H 	H 	0.01934 0.30868 0.61843 0.04400
H 	H 	0.09587 0.29953 0.64808 0.04900
C 	C 	0.83040 0.86887 0.65972 0.02200
H 	H 	0.88283 0.91338 0.65517 0.02900
C 	C 	0.90414 0.49767 0.93289 -0.11300
C 	C 	0.96691 0.51843 0.93720 0.04100
C 	C 	0.95464 0.14079 0.80077 -0.08400
C 	C 	0.97925 0.12417 0.82192 0.01400
C 	C 	0.95907 0.13790 0.84442 -0.07200
H 	H 	0.98493 0.33083 0.91170 0.05000
H 	H 	0.98476 0.22353 0.88719 0.04300
H 	H 	0.97586 0.12214 0.86059 0.04800
C 	C 	0.79318 0.78058 0.79788 0.02000
H 	H 	0.75347 0.68833 0.82065 0.05000
