data_crystal

_cell_length_a 19.06243
_cell_length_b 17.10597
_cell_length_c 36.31539
_cell_angle_alpha 88.28565
_cell_angle_beta  88.43937
_cell_angle_gamma 107.45715

_symmetry_space_group_name_	'P 1'
_symmetry_space_group_name_H-M	'P 1'

loop_
_symmetry_equiv_pos_as_xyz
  x,y,z

loop_
_atom_site_label
_atom_site_type_symbol
_atom_site_fract_x
_atom_site_fract_y
_atom_site_fract_z
_atom_site_charge
Zn	Zn	0.57929 0.31689 0.88341 1.22200
Zn	Zn	0.68210 0.45755 0.93372 1.20000
C 	C 	0.79350 0.22124 0.85158 0.28200
Zn	Zn	0.75170 0.36011 0.88332 1.22100
Zn	Zn	0.63313 0.19022 0.84659 1.19400
H 	H 	0.66945 0.30474 0.94015 0.18500
C 	C 	0.73816 0.51569 0.85366 0.29000
O 	O 	0.52595 0.15022 0.83634 -0.45200
O 	O 	0.50117 0.27266 0.84240 -0.38800
O 	O 	0.66942 0.34375 0.91946 -0.79100
O 	O 	0.57895 0.45501 0.94164 -0.47600
O 	O 	0.52294 0.22462 0.91612 -0.42900
O 	O 	0.54017 0.41112 0.88475 -0.43200
O 	O 	0.60462 0.15406 0.90477 -0.40000
O 	O 	0.78666 0.51974 0.93346 -0.45500
H 	H 	0.66024 0.34000 0.82667 0.17700
O 	O 	0.83318 0.41384 0.92296 -0.39200
O 	O 	0.66004 0.31062 0.85060 -0.79300
O 	O 	0.72763 0.16816 0.85761 -0.43900
O 	O 	0.77893 0.46550 0.85471 -0.43300
O 	O 	0.81412 0.28864 0.87063 -0.41800
O 	O 	0.68193 0.50512 0.87724 -0.39300
C 	C 	0.48206 0.19641 0.83172 0.29500
C 	C 	0.53120 0.44577 0.91559 0.40400
C 	C 	0.54528 0.16036 0.92220 0.28100
C 	C 	0.83851 0.48491 0.93766 0.28700
Zn	Zn	0.64150 0.41581 0.55486 1.22200
Zn	Zn	0.50650 0.31080 0.50474 1.20000
C 	C 	0.67725 0.15713 0.60252 0.31200
Zn	Zn	0.57150 0.22469 0.56444 1.22300
Zn	Zn	0.73656 0.33813 0.59699 1.19500
H 	H 	0.63345 0.29466 0.50548 0.18100
C 	C 	0.43310 0.25802 0.58189 0.29300
O 	O 	0.79443 0.45663 0.59910 -0.45400
O 	O 	0.69925 0.51046 0.59000 -0.39200
O 	O 	0.60074 0.30791 0.52432 -0.79300
O 	O 	0.52908 0.42952 0.49288 -0.45900
O 	O 	0.72690 0.45238 0.52065 -0.43300
O 	O 	0.56958 0.47725 0.54901 -0.42600
O 	O 	0.76674 0.34453 0.53800 -0.41000
O 	O 	0.43849 0.19933 0.50485 -0.45400
H 	H 	0.60733 0.34067 0.61583 0.18100
O 	O 	0.51449 0.13038 0.52806 -0.38700
O 	O 	0.63095 0.32934 0.59282 -0.78900
O 	O 	0.73522 0.22134 0.59511 -0.45000
O 	O 	0.47803 0.21598 0.59127 -0.43200
O 	O 	0.61941 0.14307 0.58173 -0.42600
O 	O 	0.45576 0.32182 0.55839 -0.40400
C 	C 	0.76805 0.51983 0.59880 0.29500
C 	C 	0.54166 0.48705 0.51709 0.29700
C 	C 	0.77274 0.40943 0.51628 0.27300
C 	C 	0.45933 0.13307 0.50735 0.27400
Zn	Zn	0.93166 0.91393 0.71470 1.22300
Zn	Zn	0.05236 0.92371 0.78002 1.20500
C 	C 	0.14005 0.11256 0.64220 0.31300
Zn	Zn	0.08044 0.05359 0.71789 1.22600
Zn	Zn	0.97832 0.01653 0.64260 1.18700
H 	H 	0.07336 0.90364 0.71036 0.19300
C 	C 	0.99936 0.07982 0.78310 0.27000
O 	O 	0.87254 0.96243 0.63535 -0.45500
O 	O 	0.82810 0.91924 0.69468 -0.37400
O 	O 	0.04538 0.93258 0.72524 -0.76700
O 	O 	0.96577 0.82628 0.79305 -0.45100
O 	O 	0.92461 0.81976 0.68464 -0.43600
O 	O 	0.88163 0.87414 0.76300 -0.42700
O 	O 	0.99077 0.89407 0.63572 -0.41100
O 	O 	0.13852 0.01228 0.79709 -0.43800
H 	H 	0.94798 0.06265 0.70467 0.17200
O 	O 	0.18486 0.06419 0.73994 -0.39900
O 	O 	0.97680 0.02628 0.69670 -0.82000
O 	O 	0.08678 0.05559 0.62702 -0.43400
O 	O 	0.05280 0.11478 0.75866 -0.39300
O 	O 	0.13650 0.12810 0.67742 -0.42200
O 	O 	0.98261 0.00094 0.79176 -0.40900
C 	C 	0.82063 0.95052 0.66167 0.28000
C 	C 	0.89811 0.81606 0.78247 0.32800
C 	C 	0.94387 0.82606 0.64974 0.32500
C 	C 	0.19376 0.05522 0.77531 0.32000
Zn	Zn	0.31283 0.69995 0.39530 1.22600
Zn	Zn	0.18125 0.55452 0.43986 1.20200
C 	C 	0.11550 0.78178 0.32960 0.28700
Zn	Zn	0.14965 0.64277 0.37071 1.22400
Zn	Zn	0.27887 0.81610 0.34072 1.19700
H 	H 	0.18668 0.70649 0.43232 0.19800
C 	C 	0.18463 0.48861 0.36155 0.31300
O 	O 	0.38821 0.86248 0.34287 -0.43800
O 	O 	0.41508 0.74757 0.36505 -0.38200
O 	O 	0.20247 0.66729 0.41710 -0.78300
O 	O 	0.27370 0.55991 0.46519 -0.42300
O 	O 	0.34328 0.79455 0.42614 -0.45300
O 	O 	0.34925 0.61325 0.41506 -0.44600
O 	O 	0.26974 0.85663 0.39688 -0.38800
O 	O 	0.08060 0.48983 0.42804 -0.47100
H 	H 	0.27558 0.66867 0.33071 0.18900
O 	O 	0.04518 0.59088 0.39905 -0.36800
O 	O 	0.25770 0.69692 0.35064 -0.80100
O 	O 	0.17966 0.83372 0.33734 -0.42900
O 	O 	0.14470 0.53520 0.35043 -0.42400
O 	O 	0.09705 0.70330 0.33995 -0.41100
O 	O 	0.22184 0.50480 0.39190 -0.40700
C 	C 	0.43543 0.82037 0.34777 0.31000
C 	C 	0.34019 0.59363 0.45054 0.37200
C 	C 	0.31728 0.85649 0.42235 0.37900
C 	C 	0.02956 0.52447 0.42073 0.40100
Zn	Zn	0.22458 0.71997 0.06589 1.22400
Zn	Zn	0.37356 0.83672 0.10604 1.19700
C 	C 	0.37473 0.57489 0.00810 0.25700
Zn	Zn	0.38999 0.72792 0.04554 1.22500
Zn	Zn	0.23876 0.60757 0.00405 1.20500
H 	H 	0.32864 0.68028 0.10774 0.18000
C 	C 	0.40288 0.89594 0.02389 0.35500
O 	O 	0.15323 0.62862 0.98457 -0.44000
O 	O 	0.12289 0.69343 0.03482 -0.35900
O 	O 	0.32786 0.72449 0.08968 -0.78400
O 	O 	0.28507 0.85767 0.12751 -0.47300
O 	O 	0.17761 0.62153 0.09696 -0.44100
O 	O 	0.20404 0.82341 0.08063 -0.41300
O 	O 	0.16499 0.53487 0.04901 -0.39900
O 	O 	0.48141 0.87367 0.09569 -0.45700
H 	H 	0.28558 0.75825 0.00491 0.20100
O 	O 	0.48967 0.75198 0.07503 -0.39900
O 	O 	0.28595 0.71468 0.02340 -0.79900
O 	O 	0.30629 0.54818 0.02034 -0.45600
O 	O 	0.43023 0.83464 0.01951 -0.41900
O 	O 	0.42076 0.63937 0.02236 -0.41000
O 	O 	0.36182 0.89789 0.05356 -0.41700
C 	C 	0.10397 0.64763 0.00554 0.33300
C 	C 	0.23078 0.86908 0.10884 0.33600
C 	C 	0.15119 0.54851 0.08359 0.31700
C 	C 	0.52076 0.82455 0.08818 0.32000
Zn	Zn	0.99721 0.13457 0.22786 1.21200
Zn	Zn	0.87666 0.11472 0.29890 1.19400
C 	C 	0.78656 0.97913 0.15412 0.28900
Zn	Zn	0.83785 0.01409 0.23059 1.22100
Zn	Zn	0.94520 0.06975 0.15216 1.18900
H 	H 	0.86443 0.16869 0.23241 0.17800
C 	C 	0.91072 0.94866 0.28759 0.32900
O 	O 	0.05186 0.11546 0.14337 -0.43900
O 	O 	0.09516 0.11826 0.20189 -0.36000
O 	O 	0.88627 0.12855 0.24380 -0.78500
O 	O 	0.97133 0.19486 0.31230 -0.48100
O 	O 	0.01812 0.24382 0.20366 -0.42300
O 	O 	0.04680 0.14491 0.27545 -0.41500
O 	O 	0.94570 0.19798 0.15550 -0.43200
O 	O 	0.78327 0.02871 0.31588 -0.45300
H 	H 	0.96205 0.99016 0.20868 0.16600
O 	O 	0.73707 0.00738 0.25866 -0.41300
O 	O 	0.94040 0.03549 0.20486 -0.81200
O 	O 	0.83850 0.04450 0.14066 -0.45800
O 	O 	0.85601 0.93028 0.26480 -0.43900
O 	O 	0.77434 0.96553 0.19003 -0.43000
O 	O 	0.93231 0.02127 0.30198 -0.42300
C 	C 	0.09801 0.09976 0.16671 0.28000
C 	C 	0.03769 0.19623 0.30034 0.34200
C 	C 	0.00012 0.25440 0.16985 0.33700
C 	C 	0.72796 0.99733 0.29454 0.30800
C 	C 	0.11120 0.47886 0.10832 -0.08000
C 	C 	0.03531 0.44192 0.10527 0.04400
C 	C 	0.99927 0.36902 0.12545 -0.08200
C 	C 	0.03899 0.33171 0.14856 -0.04600
C 	C 	0.11597 0.36942 0.15135 0.05900
C 	C 	0.15058 0.44363 0.13208 -0.01500
H 	H 	0.94053 0.34163 0.12307 0.05000
H 	H 	0.20935 0.47177 0.13412 0.04700
H 	H 	0.00420 0.46950 0.08726 0.03100
I 	I 	0.18477 0.31301 0.18008 -0.09400
C 	C 	0.73096 0.93045 0.12956 -0.06200
C 	C 	0.69132 0.84912 0.14013 -0.02000
C 	C 	0.62587 0.80972 0.12318 0.00500
C 	C 	0.59976 0.85100 0.09538 -0.09600
C 	C 	0.64523 0.92755 0.08100 0.07700
C 	C 	0.71008 0.96764 0.09852 -0.03700
H 	H 	0.59265 0.74965 0.13364 0.03400
H 	H 	0.74232 0.02877 0.08892 0.05300
H 	H 	0.70878 0.81829 0.16302 0.04100
I 	I 	0.61802 0.98277 0.03256 -0.10200
C 	C 	0.14411 0.04959 0.15456 -0.05500
C 	C 	0.14260 0.97865 0.17527 -0.03200
C 	C 	0.16672 0.91755 0.15932 0.01100
C 	C 	0.19407 0.92718 0.12262 -0.10400
C 	C 	0.19840 0.99990 0.10216 0.07600
C 	C 	0.17413 0.06095 0.11833 -0.04300
H 	H 	0.16477 0.86277 0.17562 0.03100
H 	H 	0.17578 0.11586 0.10220 0.06300
H 	H 	0.11940 0.96895 0.20316 0.03700
I 	I 	0.24139 0.01973 0.04691 -0.08900
C 	C 	0.65641 0.94650 0.31071 -0.05600
C 	C 	0.62634 0.97041 0.34257 -0.01300
C 	C 	0.55497 0.92697 0.35543 0.00800
C 	C 	0.51329 0.85877 0.33677 -0.08900
C 	C 	0.54455 0.83255 0.30570 0.07300
C 	C 	0.61590 0.87639 0.29285 -0.03200
H 	H 	0.53141 0.94744 0.37942 0.04500
H 	H 	0.63938 0.85670 0.26863 0.06100
H 	H 	0.65722 0.02413 0.35668 0.03500
I 	I 	0.48408 0.72958 0.27650 -0.13800
C 	C 	0.10147 0.25971 0.31340 -0.06000
C 	C 	0.11463 0.26241 0.35121 -0.00600
C 	C 	0.15132 0.33684 0.36669 0.01000
C 	C 	0.17488 0.40913 0.34443 -0.09000
C 	C 	0.17236 0.40364 0.30580 0.08400
C 	C 	0.13496 0.32905 0.29047 -0.03500
H 	H 	0.15527 0.33955 0.39636 0.04100
H 	H 	0.12649 0.32692 0.26114 0.06300
H 	H 	0.09066 0.20856 0.36908 0.05100
I 	I 	0.22392 0.50677 0.27014 -0.12700
C 	C 	0.05907 0.81471 0.31391 0.00300
C 	C 	0.07986 0.88061 0.28797 -0.05100
C 	C 	0.02907 0.92018 0.27719 0.06500
C 	C 	0.95667 0.89408 0.29195 -0.15200
C 	C 	0.93413 0.82442 0.31612 0.10600
C 	C 	0.98538 0.78486 0.32697 -0.09200
H 	H 	0.04710 0.97425 0.25894 0.01300
H 	H 	0.96860 0.73323 0.34666 0.08600
H 	H 	0.13612 0.90304 0.27709 0.04600
I 	I 	0.82446 0.78074 0.33829 -0.09400
C 	C 	0.42094 0.06191 0.48619 0.00200
C 	C 	0.40378 0.98226 0.50184 -0.06400
C 	C 	0.36518 0.91529 0.48182 0.07100
C 	C 	0.34410 0.92734 0.44577 -0.20700
C 	C 	0.35964 0.00744 0.43054 0.39000
C 	C 	0.39775 0.07423 0.45069 -0.16400
H 	H 	0.35311 0.85386 0.49399 0.03300
H 	H 	0.41048 0.13566 0.43844 0.09400
H 	H 	0.41995 0.97219 0.52953 0.06300
F 	F 	0.34102 0.02038 0.39556 -0.46100
C 	C 	0.83249 0.43597 0.48772 0.00800
C 	C 	0.86860 0.38103 0.47497 -0.08400
C 	C 	0.92993 0.40887 0.45070 0.07700
C 	C 	0.95623 0.49212 0.43924 -0.25100
C 	C 	0.91714 0.54594 0.45017 0.39500
C 	C 	0.85570 0.51792 0.47426 -0.17300
H 	H 	0.95844 0.36628 0.44176 0.01100
H 	H 	0.82779 0.56080 0.48355 0.11600
H 	H 	0.85003 0.31713 0.48428 0.05500
F 	F 	0.94097 0.62640 0.43914 -0.46500
C 	C 	0.51414 0.55667 0.51003 0.00000
C 	C 	0.53057 0.59746 0.47531 -0.06300
C 	C 	0.47515 0.61750 0.45639 0.06900
C 	C 	0.40478 0.60083 0.47323 -0.20900
C 	C 	0.39563 0.58090 0.51138 0.39100
C 	C 	0.45087 0.55928 0.52981 -0.16000
H 	H 	0.48537 0.63993 0.42794 0.03700
H 	H 	0.44033 0.53441 0.55791 0.11300
H 	H 	0.58233 0.60223 0.46092 0.05700
F 	F 	0.33217 0.57822 0.52999 -0.45400
C 	C 	0.75694 0.97919 0.65479 -0.05200
C 	C 	0.72158 0.96176 0.62131 -0.01800
C 	C 	0.68755 0.01602 0.60578 0.01000
C 	C 	0.68835 0.08768 0.62379 -0.10100
C 	C 	0.71285 0.09771 0.66010 0.07500
C 	C 	0.74645 0.04277 0.67563 -0.05200
H 	H 	0.66623 0.00596 0.57839 0.04400
H 	H 	0.77056 0.05419 0.70237 0.04600
H 	H 	0.72675 0.91068 0.60567 0.04500
I 	I 	0.70248 0.19689 0.69135 -0.21900
C 	C 	0.35411 0.22386 0.59235 -0.04800
C 	C 	0.31912 0.13948 0.58961 -0.01600
C 	C 	0.24703 0.10431 0.60352 0.00900
C 	C 	0.20898 0.15285 0.62056 -0.09300
C 	C 	0.24212 0.23875 0.62094 0.07900
C 	C 	0.31468 0.27374 0.60696 -0.03700
H 	H 	0.22198 0.03859 0.60258 0.04500
H 	H 	0.34065 0.33926 0.60818 0.06500
H 	H 	0.34847 0.10071 0.57746 0.05100
I 	I 	0.18298 0.31737 0.64062 -0.08900
C 	C 	0.81784 0.60284 0.60635 -0.05000
C 	C 	0.79186 0.67149 0.60521 -0.01800
C 	C 	0.83748 0.74830 0.61477 0.00800
C 	C 	0.90929 0.75748 0.62616 -0.09200
C 	C 	0.93765 0.69060 0.62406 0.06100
C 	C 	0.89193 0.61359 0.61447 -0.03400
H 	H 	0.81524 0.79952 0.61576 0.04100
H 	H 	0.91385 0.56208 0.61389 0.05500
H 	H 	0.73579 0.66520 0.59789 0.05500
I 	I 	0.04897 0.70404 0.63591 -0.06100
C 	C 	0.90426 0.52801 0.95751 -0.03800
C 	C 	0.93483 0.48479 0.98253 -0.00400
C 	C 	0.99509 0.52661 0.00268 -0.07400
C 	C 	0.02649 0.61186 0.99741 -0.07600
C 	C 	0.99268 0.65578 0.97432 0.29600
C 	C 	0.93203 0.61401 0.95431 -0.11500
H 	H 	0.02114 0.49196 0.02016 0.07000
H 	H 	0.90761 0.64830 0.93571 0.10000
H 	H 	0.91234 0.41878 0.98620 0.03300
F 	F 	0.02184 0.73827 0.96920 -0.41300
C 	C 	0.50248 0.09396 0.94773 0.00200
C 	C 	0.48754 0.11026 0.98428 -0.04400
C 	C 	0.44851 0.04619 0.00878 0.04500
C 	C 	0.42387 0.96552 0.99677 -0.17300
C 	C 	0.43347 0.95083 0.95932 0.38700
C 	C 	0.47359 0.01455 0.93512 -0.15200
H 	H 	0.44112 0.05855 0.03748 0.03200
H 	H 	0.48231 0.00217 0.90654 0.10400
H 	H 	0.50807 0.17196 0.99401 0.04700
F 	F 	0.40609 0.87406 0.94673 -0.45900
C 	C 	0.39705 0.54091 0.97482 -0.00100
C 	C 	0.37370 0.45606 0.97016 -0.07300
C 	C 	0.40784 0.42280 0.94288 0.07600
C 	C 	0.46743 0.47413 0.92172 -0.21900
C 	C 	0.47869 0.55902 0.92097 0.40200
C 	C 	0.44495 0.59269 0.94823 -0.17100
H 	H 	0.39526 0.35679 0.94187 0.02300
H 	H 	0.45901 0.65872 0.94988 0.11600
H 	H 	0.33328 0.41565 0.98924 0.06300
F 	F 	0.53102 0.60929 0.89773 -0.45300
C 	C 	0.85005 0.19388 0.83159 -0.05900
C 	C 	0.83097 0.14657 0.80041 -0.01800
C 	C 	0.88144 0.11298 0.78354 -0.00100
C 	C 	0.95183 0.12654 0.79743 -0.08100
C 	C 	0.97252 0.17703 0.82773 0.04900
C 	C 	0.92162 0.21066 0.84465 -0.02700
H 	H 	0.86500 0.07422 0.76028 0.02100
H 	H 	0.93708 0.24758 0.86854 0.05800
H 	H 	0.77640 0.13441 0.78968 0.02400
I 	I 	0.07899 0.20075 0.84933 -0.04200
C 	C 	0.40847 0.16043 0.81689 -0.04800
C 	C 	0.37144 0.07652 0.82287 -0.01800
C 	C 	0.30079 0.04294 0.80988 0.01200
C 	C 	0.26634 0.09267 0.79063 -0.09300
C 	C 	0.30283 0.17736 0.78513 0.08200
C 	C 	0.37379 0.21061 0.79805 -0.03900
H 	H 	0.27309 0.97794 0.81442 0.03500
H 	H 	0.40177 0.27555 0.79357 0.06700
H 	H 	0.39702 0.03740 0.83796 0.05500
I 	I 	0.25080 0.25767 0.75955 -0.07100
C 	C 	0.76123 0.58930 0.82868 -0.04100
C 	C 	0.74951 0.66296 0.83916 -0.02000
C 	C 	0.78875 0.73728 0.82099 0.02100
C 	C 	0.84091 0.73865 0.79275 -0.10100
C 	C 	0.84737 0.66381 0.78004 0.08100
C 	C 	0.80596 0.58969 0.79737 -0.04100
H 	H 	0.78258 0.79423 0.83069 0.04800
H 	H 	0.81252 0.53263 0.78802 0.05600
H 	H 	0.71359 0.66343 0.86274 0.07100
I 	I 	0.92447 0.66051 0.73730 -0.13400
