data_crystal

_cell_length_a 18.45285
_cell_length_b 18.80424
_cell_length_c 34.44141
_cell_angle_alpha 95.43231
_cell_angle_beta  95.43308
_cell_angle_gamma 126.41763

_symmetry_space_group_name_	'P 1'
_symmetry_space_group_name_H-M	'P 1'

loop_
_symmetry_equiv_pos_as_xyz
  x,y,z

loop_
_atom_site_label
_atom_site_type_symbol
_atom_site_fract_x
_atom_site_fract_y
_atom_site_fract_z
_atom_site_charge
C 	C 	0.91827 0.99507 0.96677 0.12500
N 	N 	0.00719 0.04693 0.96259 -0.12700
C 	C 	0.05386 0.01232 0.96200 0.11400
N 	N 	0.01171 0.92549 0.96561 -0.11100
C 	C 	0.92284 0.87302 0.96999 0.10800
N 	N 	0.87569 0.90774 0.97053 -0.12900
C 	C 	0.93891 0.03963 0.49470 0.09400
N 	N 	0.03147 0.08795 0.49893 -0.11800
C 	C 	0.07073 0.04578 0.50217 0.11500
N 	N 	0.01736 0.95559 0.50065 -0.10900
C 	C 	0.92484 0.90703 0.49512 0.10600
N 	N 	0.88581 0.94925 0.49252 -0.12400
Cu	Cu	0.77581 0.34567 0.96244 0.92700
Cu	Cu	0.75311 0.27697 0.04757 0.86800
Cu	Cu	0.62014 0.29609 0.00590 0.89700
Cu	Cu	0.60341 0.32920 0.92406 0.90000
C 	C 	0.72349 0.31509 0.87793 0.29800
O 	O 	0.82293 0.47510 0.96027 -0.35600
C 	C 	0.65716 0.31678 0.09314 0.29100
O 	O 	0.63183 0.26628 0.95313 -0.63700
O 	O 	0.75496 0.35904 0.01693 -0.64300
O 	O 	0.83926 0.28988 0.97165 -0.37000
O 	O 	0.73270 0.19134 0.00537 -0.44300
O 	O 	0.68394 0.35366 0.88441 -0.37800
O 	O 	0.48859 0.22591 0.99336 -0.37900
C 	C 	0.44021 0.22838 0.96345 0.29900
C 	C 	0.77506 0.50357 0.96948 0.28000
O 	O 	0.68831 0.44499 0.97143 -0.38900
O 	O 	0.47478 0.26351 0.93237 -0.38700
O 	O 	0.77281 0.31297 0.90748 -0.36300
C 	C 	0.79647 0.21311 0.98446 0.29400
O 	O 	0.60958 0.31617 0.06165 -0.37400
O 	O 	0.73568 0.33076 0.09174 -0.42000
H 	H 	0.59529 0.20098 0.94259 0.17000
H 	H 	0.79080 0.42165 0.03170 0.17500
Cu	Cu	0.60903 0.20552 0.50568 0.92800
Cu	Cu	0.64699 0.20624 0.41475 0.87200
Cu	Cu	0.63545 0.34311 0.45713 0.89900
Cu	Cu	0.64065 0.38294 0.54314 0.89800
C 	C 	0.66719 0.27212 0.58962 0.29900
O 	O 	0.48574 0.16802 0.51734 -0.36000
C 	C 	0.58895 0.29028 0.37034 0.29000
O 	O 	0.68931 0.34511 0.50839 -0.63900
O 	O 	0.57517 0.21185 0.45082 -0.64100
O 	O 	0.65331 0.13348 0.49289 -0.37300
O 	O 	0.74185 0.22552 0.45226 -0.43300
O 	O 	0.62836 0.31198 0.58511 -0.38500
O 	O 	0.70244 0.47202 0.46338 -0.38600
C 	C 	0.71741 0.52785 0.49503 0.29600
C 	C 	0.45292 0.21111 0.50700 0.28000
O 	O 	0.50923 0.29573 0.50324 -0.39100
O 	O 	0.70842 0.50553 0.53052 -0.38600
O 	O 	0.66336 0.22127 0.55914 -0.37200
C 	C 	0.72298 0.16570 0.47445 0.29000
O 	O 	0.59026 0.33680 0.40205 -0.37100
O 	O 	0.58092 0.21627 0.37217 -0.41300
H 	H 	0.75698 0.38119 0.51340 0.16700
H 	H 	0.50859 0.17334 0.43984 0.17900
C 	C 	0.80789 0.30710 0.78237 -0.09400
C 	C 	0.72710 0.26703 0.75457 0.00500
C 	C 	0.64335 0.23025 0.76776 0.02900
C 	C 	0.64285 0.23885 0.80860 -0.01400
C 	C 	0.72509 0.28833 0.83644 -0.10400
C 	C 	0.80857 0.32163 0.82326 0.10900
C 	C 	0.73229 0.27337 0.71217 0.00500
C 	C 	0.55482 0.18406 0.73846 -0.17500
H 	H 	0.57870 0.21113 0.81878 0.03100
C 	C 	0.89860 0.37521 0.85221 -0.21000
H 	H 	0.87143 0.33239 0.77207 0.05400
C 	C 	0.76267 0.35425 0.69909 0.02700
C 	C 	0.74990 0.35409 0.65829 -0.01500
C 	C 	0.70217 0.27355 0.63046 -0.10900
C 	C 	0.67748 0.19368 0.64345 0.10500
C 	C 	0.69601 0.19549 0.68424 -0.09400
C 	C 	0.80584 0.44011 0.72851 -0.17500
H 	H 	0.77230 0.41594 0.64822 0.03100
C 	C 	0.62931 0.10617 0.61449 -0.20800
H 	H 	0.67633 0.13453 0.69445 0.05500
H 	H 	0.95765 0.40296 0.83667 0.07200
H 	H 	0.89972 0.33148 0.87135 0.09500
H 	H 	0.90875 0.43300 0.87090 0.08600
H 	H 	0.53783 0.12209 0.72050 0.06900
H 	H 	0.56126 0.22980 0.71848 0.07200
H 	H 	0.49661 0.16437 0.75362 0.06700
H 	H 	0.82154 0.49623 0.71348 0.06600
H 	H 	0.87110 0.46066 0.74611 0.06700
H 	H 	0.75849 0.43013 0.74882 0.07200
H 	H 	0.67496 0.11221 0.59404 0.09000
H 	H 	0.56472 0.08804 0.59729 0.08600
H 	H 	0.61082 0.04979 0.62993 0.07300
C 	C 	0.60274 0.25558 0.19348 -0.08900
C 	C 	0.58883 0.31762 0.20857 0.00200
C 	C 	0.58961 0.37460 0.18436 0.03000
C 	C 	0.61052 0.37266 0.14624 -0.01300
C 	C 	0.62764 0.31263 0.13172 -0.10300
C 	C 	0.61926 0.25063 0.15479 0.09200
C 	C 	0.57845 0.32537 0.25055 0.00300
C 	C 	0.57112 0.43929 0.19944 -0.17600
H 	H 	0.61512 0.41894 0.12819 0.04700
C 	C 	0.62981 0.18037 0.13871 -0.19700
H 	H 	0.60110 0.21130 0.21202 0.05100
C 	C 	0.49770 0.25661 0.26259 0.02900
C 	C 	0.49962 0.24912 0.30279 -0.01200
C 	C 	0.57965 0.31199 0.33111 -0.10300
C 	C 	0.65560 0.38818 0.31976 0.09400
C 	C 	0.65504 0.39345 0.27935 -0.09000
C 	C 	0.41165 0.18741 0.23245 -0.17600
H 	H 	0.44014 0.19230 0.31177 0.04500
C 	C 	0.73952 0.46079 0.35026 -0.20500
H 	H 	0.71597 0.44789 0.27012 0.05200
H 	H 	0.60128 0.12569 0.15626 0.06500
H 	H 	0.70358 0.21184 0.13998 0.05800
H 	H 	0.59241 0.14878 0.10754 0.05300
H 	H 	0.63057 0.49533 0.22210 0.06900
H 	H 	0.50869 0.40423 0.21290 0.07000
H 	H 	0.55959 0.46817 0.17507 0.07000
H 	H 	0.35026 0.15377 0.24663 0.06900
H 	H 	0.41685 0.13557 0.21809 0.06800
H 	H 	0.40126 0.21957 0.20937 0.07100
H 	H 	0.77423 0.43374 0.36285 0.05800
H 	H 	0.71974 0.48548 0.37453 0.08500
H 	H 	0.78931 0.51940 0.33711 0.07100
C 	C 	0.86689 0.80873 0.49239 0.00300
C 	C 	0.79786 0.76821 0.51515 -0.04500
C 	C 	0.74521 0.67564 0.51470 0.02100
C 	C 	0.76382 0.62316 0.49228 -0.07900
C 	C 	0.83003 0.66307 0.46810 0.00600
C 	C 	0.88051 0.75501 0.46756 -0.03100
H 	H 	0.78551 0.80895 0.53342 0.05800
H 	H 	0.84304 0.62266 0.45003 0.03700
C 	C 	0.94394 0.79305 0.44050 0.08700
C 	C 	0.67016 0.63463 0.53609 0.07500
N 	N 	0.99473 0.82350 0.41883 -0.12000
N 	N 	0.61004 0.60184 0.55322 -0.11300
C 	C 	0.78198 0.13716 0.47968 -0.08600
C 	C 	0.81341 0.13508 0.51798 0.00700
C 	C 	0.86981 0.10856 0.52355 -0.03200
C 	C 	0.89538 0.08400 0.49055 0.00300
C 	C 	0.86631 0.08865 0.45245 -0.05000
C 	C 	0.80887 0.11382 0.44671 0.02000
H 	H 	0.79404 0.15418 0.54343 0.04000
H 	H 	0.88524 0.06887 0.42703 0.04800
C 	C 	0.77401 0.11087 0.40673 0.05100
C 	C 	0.90043 0.10582 0.56318 0.08500
N 	N 	0.74610 0.10847 0.37470 -0.13600
N 	N 	0.92498 0.10358 0.59492 -0.11800
C 	C 	0.17054 0.09662 0.50539 0.00300
C 	C 	0.21089 0.13305 0.47297 -0.04200
C 	C 	0.30248 0.16863 0.47268 0.01900
C 	C 	0.35494 0.16907 0.50547 -0.07700
C 	C 	0.31501 0.13416 0.53819 0.00500
C 	C 	0.22350 0.09855 0.53844 -0.02700
H 	H 	0.17001 0.13076 0.44736 0.05600
H 	H 	0.35568 0.13597 0.56374 0.04300
C 	C 	0.18474 0.06532 0.57297 0.09300
C 	C 	0.34085 0.20100 0.43796 0.06800
N 	N 	0.15363 0.03868 0.60061 -0.11100
N 	N 	0.37156 0.22687 0.41015 -0.11200
C 	C 	0.81265 0.59826 0.96959 -0.07000
C 	C 	0.88349 0.66604 0.00042 -0.00500
C 	C 	0.91550 0.75546 0.00256 -0.02400
C 	C 	0.87750 0.77795 0.97309 0.00400
C 	C 	0.80506 0.70975 0.94286 -0.04400
C 	C 	0.77286 0.62036 0.94076 0.01900
H 	H 	0.91278 0.64902 0.02310 0.03200
H 	H 	0.77610 0.72679 0.92004 0.05500
C 	C 	0.70085 0.55219 0.90823 0.06500
C 	C 	0.98622 0.82352 0.03545 0.06600
N 	N 	0.64314 0.49769 0.88216 -0.12500
N 	N 	0.04288 0.87810 0.06179 -0.09100
C 	C 	0.87171 0.03663 0.97111 -0.00900
C 	C 	0.84242 0.05590 0.93732 -0.04400
C 	C 	0.81918 0.11473 0.94118 0.01900
C 	C 	0.82628 0.15576 0.97931 -0.08200
C 	C 	0.85238 0.13384 0.01303 -0.00200
C 	C 	0.87453 0.07430 0.00912 -0.03200
H 	H 	0.84019 0.02702 0.90801 0.04700
H 	H 	0.85549 0.16331 0.04239 0.01500
C 	C 	0.90229 0.05384 0.04435 0.07800
C 	C 	0.78566 0.13036 0.90590 0.07100
N 	N 	0.92456 0.03740 0.07255 -0.12200
N 	N 	0.75861 0.14243 0.87754 -0.11200
C 	C 	0.34128 0.17849 0.96187 -0.08200
C 	C 	0.27975 0.11082 0.92885 0.01400
C 	C 	0.18537 0.05677 0.92830 -0.04400
C 	C 	0.15199 0.07089 0.96098 0.00600
C 	C 	0.21318 0.14057 0.99335 -0.04100
C 	C 	0.30759 0.19434 0.99403 0.02800
H 	H 	0.30558 0.09896 0.90399 0.03500
H 	H 	0.18722 0.15202 0.01827 0.05300
C 	C 	0.36939 0.26618 0.02763 0.07100
C 	C 	0.12317 0.98736 0.89402 0.11300
N 	N 	0.41889 0.32365 0.05455 -0.10900
N 	N 	0.07331 0.93174 0.86658 -0.11000
