data_crystal

_cell_length_a 18.85343
_cell_length_b 17.36951
_cell_length_c 44.30484
_cell_angle_alpha 88.40147
_cell_angle_beta  88.49046
_cell_angle_gamma 107.83682

_symmetry_space_group_name_	'P 1'
_symmetry_space_group_name_H-M	'P 1'

loop_
_symmetry_equiv_pos_as_xyz
  x,y,z

loop_
_atom_site_label
_atom_site_type_symbol
_atom_site_fract_x
_atom_site_fract_y
_atom_site_fract_z
_atom_site_charge
Zn	Zn	0.02270 0.96777 0.77459 1.21400
O 	O 	0.05972 0.15136 0.77108 -0.40700
H 	H 	0.10670 0.95975 0.73061 0.17400
O 	O 	0.07930 0.99793 0.73619 -0.79400
O 	O 	0.06149 0.10069 0.67996 -0.42700
O 	O 	0.07629 0.49293 0.41340 -0.48000
O 	O 	0.06542 0.62079 0.41170 -0.40000
C 	C 	0.04953 0.54780 0.42464 0.33900
O 	O 	0.11561 0.61074 0.10878 -0.46100
Zn	Zn	0.00672 0.09077 0.23139 1.21500
Zn	Zn	0.03556 0.22700 0.27400 1.18800
O 	O 	0.10911 0.17314 0.21250 -0.38000
O 	O 	0.06271 0.04381 0.25983 -0.44300
O 	O 	0.05850 0.12635 0.29813 -0.40500
C 	C 	0.06519 0.05822 0.28865 0.30600
C 	C 	0.03038 0.23119 0.15850 -0.11100
C 	C 	0.02549 0.11804 0.12712 -0.11000
C 	C 	0.03821 0.92657 0.18512 -0.11200
C 	C 	0.05534 0.90426 0.15603 0.03000
C 	C 	0.08378 0.92216 0.20885 -0.02300
H 	H 	0.06783 0.93323 0.23136 0.03200
C 	C 	0.02215 0.92445 0.10268 -0.07300
H 	H 	0.07853 0.96340 0.09791 0.03700
C 	C 	0.02551 0.44390 0.33915 -0.09400
C 	C 	0.00290 0.37625 0.35922 -0.04900
H 	H 	0.03215 0.37554 0.37986 0.03900
C 	C 	0.02200 0.66096 0.25800 -0.08000
C 	C 	0.04074 0.59510 0.24670 -0.00300
C 	C 	0.02694 0.52376 0.26443 -0.08800
H 	H 	0.03274 0.71616 0.24429 0.03900
H 	H 	0.06579 0.59924 0.22421 0.02500
H 	H 	0.03932 0.47198 0.25524 0.02600
H 	H 	0.01592 0.19714 0.36470 0.02500
C 	C 	0.08480 0.00226 0.31039 -0.06700
C 	C 	0.04016 0.92054 0.31453 -0.01300
C 	C 	0.06339 0.86788 0.33369 -0.01400
H 	H 	0.03140 0.80426 0.33541 0.03400
C 	C 	0.00909 0.16252 0.59046 -0.07100
C 	C 	0.04271 0.10156 0.58754 -0.00700
H 	H 	0.01976 0.05226 0.57274 0.02300
C 	C 	0.04459 0.55283 0.03756 0.02100
C 	C 	0.08730 0.57298 0.05788 -0.10200
C 	C 	0.04739 0.32143 0.76198 -0.08200
C 	C 	0.07864 0.35206 0.73346 0.00500
C 	C 	0.04382 0.31812 0.70736 -0.06900
H 	H 	0.07487 0.34763 0.78211 0.05000
C 	C 	0.07417 0.06628 0.89297 -0.02500
C 	C 	0.07247 0.14583 0.88901 -0.03500
H 	H 	0.03150 0.02311 0.90695 0.03200
H 	H 	0.02855 0.16417 0.89994 0.03100
C 	C 	0.10001 0.72211 0.78619 -0.01800
C 	C 	0.09866 0.69768 0.75636 -0.03800
H 	H 	0.03463 0.73395 0.82533 0.05000
H 	H 	0.15024 0.70130 0.74423 0.03100
O 	O 	0.01528 0.04613 0.80472 -0.43700
O 	O 	0.08639 0.58504 0.34856 -0.43700
C 	C 	0.03332 0.71612 0.80205 -0.06100
C 	C 	0.02072 0.12033 0.79590 0.27800
C 	C 	0.04007 0.22761 0.60888 -0.00800
H 	H 	0.01447 0.27518 0.61093 0.01800
H 	H 	0.13123 0.05624 0.60163 0.04300
C 	C 	0.10619 0.10440 0.60361 -0.05100
C 	C 	0.12216 0.88519 0.15104 -0.03500
H 	H 	0.13439 0.86514 0.12908 -0.00300
H 	H 	0.06839 0.34151 0.68532 0.04200
H 	H 	0.15267 0.74507 0.79709 0.03300
C 	C 	0.12541 0.14880 0.68868 0.30400
Zn	Zn	0.14346 0.10652 0.74912 1.19700
O 	O 	0.17834 0.09111 0.78937 -0.46400
O 	O 	0.11822 0.95569 0.79773 -0.40000
O 	O 	0.12986 0.17655 0.71585 -0.45700
C 	C 	0.17567 0.02063 0.80180 0.30200
Zn	Zn	0.18246 0.51386 0.40284 1.19500
C 	C 	0.15863 0.83867 0.36627 0.29300
Zn	Zn	0.14822 0.66575 0.37574 1.22000
H 	H 	0.22751 0.65885 0.41933 0.16800
C 	C 	0.09261 0.51226 0.34583 0.30200
O 	O 	0.22334 0.63453 0.39925 -0.77800
O 	O 	0.23079 0.85678 0.36823 -0.46200
O 	O 	0.11535 0.76579 0.37504 -0.42500
O 	O 	0.15215 0.49659 0.35576 -0.41500
Zn	Zn	0.17182 0.69770 0.13596 1.19000
C 	C 	0.22393 0.54708 0.15558 0.31200
O 	O 	0.19782 0.75921 0.17315 -0.46100
O 	O 	0.21161 0.61322 0.07515 -0.38800
O 	O 	0.19850 0.60516 0.16477 -0.40900
C 	C 	0.22310 0.83843 0.17161 0.29100
C 	C 	0.13983 0.59952 0.08142 0.30700
O 	O 	0.13456 0.25142 0.25380 -0.45800
C 	C 	0.14081 0.24392 0.22441 0.28000
C 	C 	0.17348 0.31823 0.20464 -0.07900
C 	C 	0.15176 0.32300 0.17436 0.00200
C 	C 	0.16930 0.39821 0.15888 -0.01200
H 	H 	0.15239 0.40133 0.13576 0.04400
C 	C 	0.20611 0.46955 0.17312 -0.08500
C 	C 	0.23022 0.46530 0.20290 0.02000
C 	C 	0.21636 0.38951 0.21791 -0.03200
H 	H 	0.23520 0.38663 0.24072 0.04300
C 	C 	0.22233 0.55996 0.24324 -0.04500
C 	C 	0.10822 0.25083 0.15884 0.04800
C 	C 	0.10317 0.13785 0.12716 0.02300
C 	C 	0.14463 0.20415 0.14301 -0.06500
H 	H 	0.13126 0.10198 0.11490 0.02500
H 	H 	0.16997 0.51767 0.25130 0.03400
H 	H 	0.21586 0.65172 0.27384 0.01900
C 	C 	0.16944 0.88395 0.17499 -0.09300
C 	C 	0.15040 0.90458 0.20393 0.02500
C 	C 	0.20045 0.91122 0.22934 0.01800
C 	C 	0.20167 0.84087 0.24548 -0.04400
C 	C 	0.22911 0.98676 0.24239 -0.05200
H 	H 	0.17820 0.78199 0.23604 0.04900
H 	H 	0.22760 0.04137 0.23034 0.06200
C 	C 	0.12684 0.89703 0.35088 -0.09300
C 	C 	0.16521 0.98125 0.34991 0.00100
C 	C 	0.14538 0.03261 0.32899 -0.00900
H 	H 	0.17694 0.09641 0.32734 0.04000
C 	C 	0.22467 0.01647 0.37125 0.02700
C 	C 	0.20789 0.01192 0.40245 -0.03200
H 	H 	0.25187 0.03743 0.44673 0.03500
H 	H 	0.15105 0.98464 0.41100 0.03400
C 	C 	0.19482 0.15323 0.67169 -0.11800
C 	C 	0.20227 0.17031 0.64026 0.03400
C 	C 	0.13697 0.16909 0.62237 0.01800
C 	C 	0.10436 0.23145 0.62458 -0.04700
H 	H 	0.12808 0.28199 0.63882 0.04300
H 	H 	0.12997 0.40189 0.73159 0.02500
C 	C 	0.18649 0.09847 0.86087 0.01700
C 	C 	0.13095 0.04246 0.87891 -0.03100
C 	C 	0.12656 0.20125 0.87043 -0.02000
C 	C 	0.18363 0.17784 0.85642 -0.03900
H 	H 	0.13214 0.98082 0.88218 0.03600
H 	H 	0.12425 0.26232 0.86689 0.03400
H 	H 	0.20482 0.21939 0.14294 0.05600
C 	C 	0.22832 0.84611 0.27473 -0.03600
C 	C 	0.26477 0.04165 0.42267 -0.02100
H 	H 	0.22725 0.79173 0.28746 -0.02500
O 	O 	0.26987 0.47580 0.39282 -0.45300
H 	H 	0.23925 0.66973 0.32712 0.17700
O 	O 	0.24465 0.70039 0.34585 -0.78900
H 	H 	0.25908 0.77692 0.09303 0.17800
O 	O 	0.26632 0.75186 0.11258 -0.79500
O 	O 	0.29332 0.87594 0.16295 -0.41700
O 	O 	0.25908 0.55434 0.12943 -0.44800
C 	C 	0.26334 0.53962 0.21960 0.01400
C 	C 	0.24900 0.63511 0.25639 -0.01800
C 	C 	0.25355 0.92125 0.28798 -0.03900
C 	C 	0.25236 0.99114 0.27206 -0.02700
H 	H 	0.26976 0.04895 0.28268 0.04100
C 	C 	0.29856 0.05244 0.36049 -0.05100
C 	C 	0.25659 0.14709 0.68754 -0.00400
H 	H 	0.25020 0.12926 0.71135 -0.04400
C 	C 	0.27269 0.18897 0.62578 -0.02400
H 	H 	0.27679 0.93712 0.79824 0.03800
C 	C 	0.23305 0.01829 0.82325 -0.06400
C 	C 	0.24762 0.07394 0.84662 0.02300
H 	H 	0.22542 0.22111 0.84208 0.04700
C 	C 	0.03069 0.66808 0.74223 -0.04500
H 	H 	0.02971 0.64753 0.71937 0.03000
Zn	Zn	0.32057 0.67729 0.37074 1.22400
Zn	Zn	0.28904 0.81803 0.33832 1.20400
Zn	Zn	0.29648 0.65728 0.10697 1.22500
C 	C 	0.33453 0.59156 0.21131 -0.05500
C 	C 	0.31768 0.68930 0.24656 -0.04000
H 	H 	0.27379 0.92545 0.31060 -0.04300
C 	C 	0.33833 0.07665 0.41186 -0.03300
H 	H 	0.31214 0.05684 0.33649 0.03900
C 	C 	0.32723 0.16753 0.67318 0.01100
H 	H 	0.27898 0.20507 0.60180 0.03700
C 	C 	0.28923 0.98591 0.81393 -0.05200
C 	C 	0.32149 0.11202 0.85433 -0.01400
H 	H 	0.33751 0.74833 0.25617 0.04400
O 	O 	0.36378 0.74967 0.40302 -0.44700
O 	O 	0.35346 0.58173 0.36808 -0.44000
O 	O 	0.37406 0.85939 0.37229 -0.40200
C 	C 	0.33696 0.52815 0.39057 0.33200
C 	C 	0.37432 0.82726 0.39938 0.33600
Zn	Zn	0.35407 0.82210 0.13837 1.22300
H 	H 	0.34835 0.69026 0.16350 0.18500
O 	O 	0.36427 0.71318 0.14298 -0.79800
O 	O 	0.36804 0.65186 0.07571 -0.44400
C 	C 	0.36045 0.66751 0.22406 -0.02700
H 	H 	0.36803 0.57495 0.19393 0.02100
C 	C 	0.35522 0.08193 0.38081 -0.01500
H 	H 	0.38225 0.09972 0.42754 0.04000
C 	C 	0.33595 0.19289 0.64243 -0.07500
C 	C 	0.36290 0.02091 0.82286 0.04400
H 	H 	0.33339 0.15994 0.87038 0.05100
C 	C 	0.40964 0.23752 0.62905 0.31200
O 	O 	0.43709 0.22974 0.56040 -0.46300
O 	O 	0.41973 0.30865 0.61617 -0.42000
O 	O 	0.37235 0.82033 0.31107 -0.46000
O 	O 	0.41711 0.73749 0.34142 -0.38500
C 	C 	0.42700 0.79280 0.31923 0.31600
C 	C 	0.41508 0.61175 0.08118 0.34600
O 	O 	0.44948 0.88176 0.16468 -0.39400
O 	O 	0.40785 0.88487 0.10207 -0.44200
C 	C 	0.45425 0.86190 0.08422 0.33000
H 	H 	0.41243 0.71044 0.21577 0.01300
C 	C 	0.42643 0.05266 0.24817 -0.02600
C 	C 	0.45349 0.09987 0.22191 -0.01600
H 	H 	0.41546 0.94013 0.27215 0.04300
H 	H 	0.44189 0.15663 0.21826 0.03400
H 	H 	0.39820 0.07534 0.26570 0.03500
H 	H 	0.41223 0.10885 0.37248 0.03400
C 	C 	0.43785 0.02152 0.49041 -0.00400
C 	C 	0.42515 0.97563 0.46990 -0.04700
C 	C 	0.40933 0.92295 0.44555 0.06800
C 	C 	0.39443 0.87881 0.42455 -0.12300
C 	C 	0.37996 0.54493 0.41719 -0.17400
C 	C 	0.41359 0.55757 0.44023 0.06900
C 	C 	0.44891 0.56808 0.46819 -0.03600
C 	C 	0.39185 0.16463 0.69077 0.01800
C 	C 	0.43541 0.23417 0.70462 -0.05800
C 	C 	0.40918 0.09192 0.69412 -0.04800
H 	H 	0.37581 0.03794 0.68354 0.04300
H 	H 	0.42248 0.29059 0.70212 0.03300
C 	C 	0.42541 0.55676 0.05950 -0.12300
C 	C 	0.43082 0.51431 0.03925 0.06700
C 	C 	0.43611 0.47162 0.01334 -0.02000
C 	C 	0.38018 0.09135 0.84009 -0.08300
C 	C 	0.41773 0.97711 0.81787 0.00300
C 	C 	0.44239 0.96795 0.78842 -0.04900
C 	C 	0.44005 0.93807 0.84237 -0.03600
H 	H 	0.42106 0.94451 0.86518 0.04600
H 	H 	0.42495 0.99726 0.76938 0.03200
C 	C 	0.45231 0.07642 0.51409 0.05000
O 	O 	0.46690 0.22475 0.84656 -0.41100
C 	C 	0.45722 0.14882 0.84040 0.30800
Zn	Zn	0.47313 0.34517 0.57222 1.19300
O 	O 	0.45999 0.44723 0.58599 -0.46500
O 	O 	0.46533 0.20780 0.63053 -0.43200
C 	C 	0.48030 0.18312 0.55699 0.31800
Zn	Zn	0.46748 0.72364 0.13042 1.19800
O 	O 	0.46547 0.79124 0.08842 -0.41100
O 	O 	0.45545 0.62541 0.10540 -0.46100
C 	C 	0.43902 0.97795 0.25239 -0.02700
C 	C 	0.48070 0.53705 0.29140 -0.03600
C 	C 	0.48413 0.58330 0.26476 -0.02100
H 	H 	0.46252 0.47165 0.29094 0.03800
H 	H 	0.46939 0.55371 0.24362 0.02800
C 	C 	0.46479 0.12441 0.53393 -0.11400
C 	C 	0.47427 0.57092 0.49296 -0.03200
C 	C 	0.49599 0.23091 0.72161 -0.03300
C 	C 	0.46972 0.08892 0.71117 -0.02300
C 	C 	0.48329 0.90783 0.05686 -0.12100
C 	C 	0.44252 0.44291 0.98951 -0.03700
C 	C 	0.45482 0.41978 0.96028 0.06800
C 	C 	0.47161 0.40929 0.93479 -0.17000
C 	C 	0.48785 0.91892 0.78351 -0.02700
C 	C 	0.48586 0.88954 0.83736 -0.02700
O 	O 	0.51536 0.12242 0.83786 -0.45100
O 	O 	0.47903 0.34081 0.88995 -0.42900
C 	C 	0.50067 0.40760 0.90493 0.33300
C 	C 	0.51031 0.51568 0.57835 0.32400
C 	C 	0.51935 0.88526 0.15807 0.30100
C 	C 	0.51914 0.00585 0.20716 0.05400
C 	C 	0.48603 0.95472 0.23209 -0.05900
C 	C 	0.49911 0.07612 0.20121 -0.05400
H 	H 	0.50015 0.89967 0.23667 0.05200
H 	H 	0.52350 0.11536 0.18174 0.05100
C 	C 	0.50331 0.83624 0.30789 -0.08200
H 	H 	0.49750 0.95089 0.32328 0.03700
C 	C 	0.50186 0.57526 0.31856 -0.01500
C 	C 	0.50736 0.66781 0.26534 -0.04900
H 	H 	0.50030 0.53943 0.33909 0.04200
H 	H 	0.51309 0.70339 0.24447 0.03400
C 	C 	0.49675 0.56464 0.52282 0.05600
C 	C 	0.50809 0.54884 0.54854 -0.15900
C 	C 	0.51289 0.15825 0.72501 -0.04000
H 	H 	0.52974 0.28464 0.73217 0.00800
H 	H 	0.48311 0.03282 0.71370 0.03200
C 	C 	0.50800 0.94357 0.03334 0.06900
C 	C 	0.50875 0.87893 0.80794 -0.03700
H 	H 	0.50581 0.91084 0.76074 0.03100
H 	H 	0.50262 0.85907 0.85625 0.03300
O 	O 	0.53275 0.18168 0.89968 -0.44500
O 	O 	0.53619 0.18803 0.57493 -0.39200
O 	O 	0.53544 0.82367 0.14610 -0.46500
C 	C 	0.53089 0.92010 0.31110 -0.01200
C 	C 	0.52494 0.70626 0.29278 0.01200
C 	C 	0.52524 0.65975 0.31920 -0.03700
C 	C 	0.53534 0.98363 0.00536 -0.04600
H 	H 	0.54188 0.83894 0.80408 0.03400
H 	H 	0.53777 0.65541 0.88085 0.03600
C 	C 	0.00020 0.89051 0.13190 -0.01600
Zn	Zn	0.55018 0.28436 0.87673 1.22100
H 	H 	0.53821 0.36833 0.65553 0.18400
C 	C 	0.54832 0.79561 0.29344 0.02300
H 	H 	0.54276 0.68902 0.34021 0.05500
H 	H 	0.55957 0.15571 0.73828 0.02200
C 	C 	0.55551 0.01793 0.98121 -0.00100
O 	O 	0.56172 0.46417 0.89635 -0.45900
Zn	Zn	0.56296 0.26789 0.61159 1.22200
O 	O 	0.57165 0.53956 0.59369 -0.42300
C 	C 	0.57361 0.05957 0.95294 0.05000
H 	H 	0.57281 0.65629 0.93442 0.03900
C 	C 	0.00408 0.52787 0.45177 -0.17600
O 	O 	0.57764 0.36143 0.58370 -0.78700
C 	C 	0.58205 0.95863 0.16421 -0.06100
C 	C 	0.58637 0.99727 0.19198 -0.01500
C 	C 	0.58420 0.14575 0.90244 0.31900
O 	O 	0.57994 0.36637 0.64185 -0.78500
H 	H 	0.58562 0.09016 0.26442 0.04900
C 	C 	0.58272 0.09745 0.92925 -0.11200
C 	C 	0.59366 0.65660 0.88638 -0.01500
C 	C 	0.60104 0.96470 0.29874 0.00400
C 	C 	0.61348 0.65731 0.91659 -0.04600
H 	H 	0.61111 0.36025 0.56624 0.17500
Zn	Zn	0.62134 0.19429 0.83467 1.19300
Zn	Zn	0.61581 0.45975 0.61256 1.22300
H 	H 	0.62666 0.34488 0.82866 0.17800
C 	C 	0.61667 0.84052 0.27957 -0.02600
C 	C 	0.61722 0.10930 0.28432 -0.05300
H 	H 	0.63015 0.65624 0.83996 0.04500
O 	O 	0.63188 0.30850 0.84549 -0.78000
H 	H 	0.62377 0.09474 0.69434 0.03800
C 	C 	0.62991 0.05187 0.30461 0.04000
H 	H 	0.63877 0.83614 0.76419 0.02500
O 	O 	0.63551 0.15321 0.88082 -0.41000
H 	H 	0.64008 0.95797 0.12160 0.04600
H 	H 	0.63662 0.23607 0.27388 0.03200
H 	H 	0.64056 0.89759 0.71299 0.04600
C 	C 	0.64584 0.65687 0.86332 -0.04500
O 	O 	0.64096 0.21543 0.62051 -0.42600
C 	C 	0.64473 0.98081 0.14424 -0.04400
H 	H 	0.00196 0.26770 0.17026 0.03500
O 	O 	0.64434 0.33926 0.90234 -0.78600
C 	C 	0.64375 0.92495 0.28197 -0.07300
C 	C 	0.64560 0.19180 0.28977 -0.01300
H 	H 	0.64877 0.30969 0.92127 0.17300
C 	C 	0.65640 0.04290 0.20202 0.01100
H 	H 	0.64901 0.80949 0.26699 0.03300
Zn	Zn	0.65851 0.45546 0.90886 1.19600
O 	O 	0.66122 0.54578 0.64594 -0.40600
O 	O 	0.65714 0.25247 0.66947 -0.47300
H 	H 	0.66048 0.06848 0.22412 0.04100
C 	C 	0.66448 0.90059 0.76024 -0.03900
H 	H 	0.67286 0.92407 0.62502 0.03500
C 	C 	0.66166 0.20367 0.64799 0.32300
C 	C 	0.66509 0.93549 0.73137 -0.07100
C 	C 	0.66852 0.07743 0.33099 -0.04600
Zn	Zn	0.67275 0.36956 0.66210 1.19600
C 	C 	0.67313 0.09263 0.68176 -0.01400
C 	C 	0.68582 0.65946 0.92377 -0.04100
H 	H 	0.67765 0.03347 0.34702 0.05200
O 	O 	0.68378 0.49619 0.86226 -0.41600
C 	C 	0.68514 0.21712 0.31583 -0.03500
H 	H 	0.68577 0.95421 0.90018 0.02400
H 	H 	0.68851 0.09372 0.58566 0.05400
C 	C 	0.69592 0.15993 0.33656 -0.00900
C 	C 	0.69476 0.13865 0.65461 -0.08700
H 	H 	0.69708 0.92165 0.80628 0.03600
C 	C 	0.69763 0.94877 0.78395 -0.08200
H 	H 	0.70123 0.66057 0.94715 0.02700
H 	H 	0.70036 0.83324 0.66386 0.04400
C 	C 	0.70284 0.01801 0.72577 0.01800
H 	H 	0.99888 0.83620 0.26422 0.05200
C 	C 	0.99546 0.53093 0.01332 0.01500
C 	C 	0.99662 0.51921 0.29393 0.04600
C 	C 	0.97722 0.25414 0.70970 0.01800
C 	C 	0.98382 0.44479 0.31300 0.02400
H 	H 	0.95935 0.15950 0.57832 0.05900
C 	C 	0.98916 0.16395 0.14318 0.06900
H 	H 	0.99338 0.06673 0.11497 0.08100
H 	H 	0.98802 0.93525 0.05716 0.02800
H 	H 	0.97270 0.07801 0.40012 0.04700
C 	C 	0.96388 0.18600 0.37758 -0.00500
C 	C 	0.78354 0.22998 0.84204 0.32000
Zn	Zn	0.72735 0.34659 0.87341 1.22000
C 	C 	0.74998 0.50874 0.84996 0.30500
O 	O 	0.76643 0.49948 0.91821 -0.45800
O 	O 	0.80591 0.38980 0.90804 -0.38800
O 	O 	0.72708 0.20420 0.82420 -0.46700
O 	O 	0.77795 0.44838 0.84918 -0.43100
O 	O 	0.77515 0.26046 0.86831 -0.42900
C 	C 	0.80946 0.45388 0.92401 0.31700
O 	O 	0.73652 0.48099 0.66786 -0.46400
O 	O 	0.71750 0.48009 0.59746 -0.45100
O 	O 	0.73717 0.36819 0.61970 -0.41200
C 	C 	0.72439 0.54823 0.65866 0.31100
C 	C 	0.75255 0.42582 0.59822 0.32500
Zn	Zn	0.85216 0.92313 0.74680 1.20000
Zn	Zn	0.99635 0.01240 0.70677 1.23100
H 	H 	0.93826 0.05917 0.75077 0.17700
C 	C 	0.91756 0.84321 0.69690 0.30400
O 	O 	0.94820 0.00755 0.74719 -0.77700
O 	O 	0.85127 0.86291 0.78606 -0.46300
O 	O 	0.96997 0.85311 0.78628 -0.42300
O 	O 	0.81096 0.94273 0.70770 -0.46000
O 	O 	0.90843 0.04071 0.68449 -0.38700
O 	O 	0.97294 0.90635 0.68696 -0.42700
O 	O 	0.89586 0.83577 0.72550 -0.41500
C 	C 	0.89777 0.82199 0.79264 0.31800
C 	C 	0.83695 0.01162 0.69194 0.30200
Zn	Zn	0.84139 0.94840 0.22988 1.19600
C 	C 	0.90559 0.22540 0.30756 0.29900
Zn	Zn	0.85844 0.11857 0.25709 1.22200
H 	H 	0.91028 0.01251 0.27687 0.19000
C 	C 	0.79501 0.08115 0.19747 0.30300
O 	O 	0.90574 0.03114 0.25600 -0.77500
O 	O 	0.91367 0.91172 0.20363 -0.45000
O 	O 	0.99154 0.03854 0.19239 -0.42000
O 	O 	0.73697 0.94124 0.24172 -0.45900
H 	H 	0.97209 0.21749 0.22326 0.17900
O 	O 	0.75736 0.03889 0.27715 -0.38700
O 	O 	0.96814 0.17948 0.24073 -0.78100
O 	O 	0.96091 0.19574 0.30723 -0.46000
O 	O 	0.80702 0.13330 0.21933 -0.43000
O 	O 	0.85119 0.19803 0.28881 -0.41900
O 	O 	0.83873 0.03559 0.19419 -0.40500
C 	C 	0.97621 0.95978 0.19095 0.32400
C 	C 	0.71595 0.97006 0.26650 0.28600
H 	H 	0.92909 0.14629 0.14438 0.02800
C 	C 	0.72093 0.05598 0.18358 -0.09400
C 	C 	0.71355 0.03174 0.15341 0.04600
C 	C 	0.77312 0.06867 0.13034 0.00300
C 	C 	0.80484 0.01953 0.11342 -0.02200
C 	C 	0.85201 0.05253 0.08832 -0.03000
C 	C 	0.86911 0.13484 0.08042 -0.03100
C 	C 	0.83861 0.18426 0.09746 -0.02500
C 	C 	0.79050 0.15136 0.12230 -0.04000
H 	H 	0.87517 0.01435 0.07493 0.04000
H 	H 	0.90614 0.16034 0.06114 0.04100
H 	H 	0.85196 0.24799 0.09134 0.03800
H 	H 	0.76563 0.18964 0.13495 0.04400
H 	H 	0.79149 0.95558 0.11928 0.03000
C 	C 	0.97121 0.90812 0.07954 -0.00400
C 	C 	0.89856 0.85703 0.08529 -0.04400
C 	C 	0.87685 0.82157 0.11411 -0.02800
C 	C 	0.92775 0.83705 0.13726 -0.02600
H 	H 	0.85908 0.84491 0.06739 0.03500
H 	H 	0.82078 0.78136 0.11844 0.02900
H 	H 	0.91140 0.80638 0.15913 0.04300
H 	H 	0.72510 0.17947 0.35698 0.03500
H 	H 	0.70712 0.28100 0.32003 0.04100
C 	C 	0.92916 0.37327 0.30502 -0.03200
H 	H 	0.90258 0.37128 0.28352 0.03200
C 	C 	0.91589 0.30194 0.32290 -0.10400
C 	C 	0.94455 0.30783 0.35213 0.05400
C 	C 	0.92044 0.23822 0.37397 -0.00300
C 	C 	0.93970 0.11885 0.39766 -0.03400
C 	C 	0.87296 0.10446 0.41459 -0.02700
C 	C 	0.83054 0.15749 0.41160 -0.02800
C 	C 	0.85445 0.22463 0.39149 -0.03500
C 	C 	0.97438 0.58388 0.30456 -0.05800
C 	C 	0.98846 0.65509 0.28686 0.01600
H 	H 	0.97325 0.70550 0.29555 0.03100
H 	H 	0.94750 0.57946 0.32674 0.06200
H 	H 	0.82173 0.26593 0.38949 0.04200
H 	H 	0.77916 0.14659 0.42487 0.03600
H 	H 	0.85428 0.05243 0.43012 0.03900
C 	C 	0.96478 0.89209 0.30251 0.03100
C 	C 	0.90355 0.89883 0.31980 -0.07100
C 	C 	0.83100 0.86258 0.31042 -0.02400
C 	C 	0.81929 0.81809 0.28421 -0.08200
C 	C 	0.88002 0.81060 0.26713 -0.05500
C 	C 	0.95261 0.84725 0.27628 -0.06500
H 	H 	0.91226 0.93191 0.34045 0.05100
H 	H 	0.78387 0.86843 0.32360 0.03100
H 	H 	0.87080 0.77478 0.24718 0.02600
H 	H 	0.76322 0.78822 0.27742 0.02800
C 	C 	0.80582 0.42895 0.57443 -0.12000
C 	C 	0.84711 0.44080 0.55252 0.05400
C 	C 	0.89156 0.46121 0.52577 -0.01400
C 	C 	0.92733 0.48187 0.50247 -0.04400
C 	C 	0.96819 0.50741 0.47506 0.10700
C 	C 	0.75880 0.13507 0.63818 0.02500
C 	C 	0.80404 0.09255 0.65054 -0.02100
H 	H 	0.85457 0.09240 0.63828 0.05500
C 	C 	0.78469 0.05025 0.67848 -0.07500
C 	C 	0.71888 0.05106 0.69438 0.01300
C 	C 	0.73330 0.06677 0.74986 -0.07700
C 	C 	0.73119 0.03196 0.77883 -0.03200
C 	C 	0.77988 0.17624 0.60820 0.02000
C 	C 	0.84595 0.24108 0.60427 -0.04200
C 	C 	0.87257 0.27150 0.57523 -0.01800
C 	C 	0.83214 0.23921 0.55008 -0.03700
C 	C 	0.76513 0.17623 0.55394 -0.02000
C 	C 	0.73927 0.14423 0.58290 -0.03800
H 	H 	0.92462 0.32001 0.57220 0.03500
H 	H 	0.85265 0.26316 0.52761 0.03900
H 	H 	0.73379 0.15143 0.53446 0.03600
H 	H 	0.87771 0.26613 0.62364 0.04300
H 	H 	0.76015 0.13109 0.74595 0.03800
H 	H 	0.75665 0.06921 0.79719 0.03300
C 	C 	0.78283 0.62722 0.66234 -0.07700
C 	C 	0.85612 0.63159 0.67094 0.02100
C 	C 	0.90481 0.70585 0.67948 -0.01700
H 	H 	0.95855 0.70859 0.68823 0.04200
C 	C 	0.88422 0.77650 0.67687 -0.07800
C 	C 	0.81882 0.77435 0.66161 0.01900
C 	C 	0.76606 0.69931 0.65662 -0.01900
H 	H 	0.71355 0.69742 0.64678 0.05100
C 	C 	0.81166 0.84765 0.64574 0.01900
C 	C 	0.74268 0.86328 0.64676 -0.04100
C 	C 	0.72669 0.91386 0.62463 -0.01800
C 	C 	0.78024 0.95148 0.60208 -0.03800
C 	C 	0.85083 0.94118 0.60230 -0.01800
C 	C 	0.86684 0.88978 0.62412 -0.04200
C 	C 	0.88520 0.56212 0.66770 0.02300
C 	C 	0.89089 0.51480 0.69320 -0.04800
C 	C 	0.91634 0.44773 0.68990 -0.02500
C 	C 	0.93628 0.42776 0.66122 -0.03800
C 	C 	0.93136 0.47514 0.63581 -0.01600
C 	C 	0.90606 0.54235 0.63899 -0.04400
H 	H 	0.92001 0.41085 0.70954 0.03400
H 	H 	0.95540 0.37551 0.65867 0.03800
H 	H 	0.94678 0.45953 0.61363 0.03700
H 	H 	0.90175 0.57839 0.61917 0.05200
H 	H 	0.87353 0.52849 0.71534 0.04000
H 	H 	0.92034 0.87872 0.62303 0.05300
H 	H 	0.89230 0.97087 0.58494 0.03400
H 	H 	0.76741 0.98948 0.58466 0.03600
C 	C 	0.86203 0.47533 0.94778 -0.11900
C 	C 	0.90473 0.49278 0.96823 0.06800
C 	C 	0.95383 0.51315 0.99254 -0.03600
C 	C 	0.97001 0.16110 0.81014 -0.05100
C 	C 	0.94866 0.22287 0.79452 -0.00400
C 	C 	0.89220 0.25034 0.80701 -0.00600
H 	H 	0.87490 0.29617 0.79479 0.03000
C 	C 	0.85410 0.21514 0.83394 -0.09300
C 	C 	0.87657 0.15595 0.84996 0.03300
C 	C 	0.93515 0.13060 0.83834 -0.03600
H 	H 	0.95046 0.08326 0.85041 0.06000
C 	C 	0.83499 0.11524 0.87763 0.01800
C 	C 	0.85543 0.14740 0.90595 -0.03800
C 	C 	0.81474 0.10986 0.93205 -0.01400
C 	C 	0.75378 0.04012 0.92997 -0.03800
C 	C 	0.73324 0.00791 0.90177 0.00100
C 	C 	0.77382 0.04518 0.87562 -0.04600
C 	C 	0.98136 0.25612 0.76442 0.06200
C 	C 	0.94553 0.22369 0.73815 -0.07500
H 	H 	0.95013 0.22819 0.68948 0.03200
H 	H 	0.89392 0.17430 0.73980 0.03200
H 	H 	0.90227 0.20175 0.90768 0.05200
H 	H 	0.83036 0.13490 0.95388 0.03600
H 	H 	0.75751 0.02009 0.85383 0.04200
H 	H 	0.72235 0.01116 0.95020 0.04400
C 	C 	0.79338 0.59125 0.83771 -0.07700
C 	C 	0.77417 0.66108 0.84610 0.02100
C 	C 	0.81105 0.73632 0.83201 -0.01800
H 	H 	0.79426 0.78870 0.83777 0.04200
C 	C 	0.86933 0.74492 0.81072 -0.07800
C 	C 	0.89449 0.67762 0.80498 0.02000
C 	C 	0.85476 0.60082 0.81765 -0.01900
H 	H 	0.87236 0.54887 0.81213 0.04800
C 	C 	0.96504 0.68760 0.78779 0.03700
C 	C 	0.96399 0.66428 0.75772 -0.02800
C 	C 	0.71812 0.65751 0.87048 0.01700
C 	C 	0.73843 0.66067 0.90076 -0.06800
H 	H 	0.79482 0.66403 0.90643 0.05600
H 	H 	0.91164 0.64301 0.74649 0.04100
