data_crystal

_cell_length_a 19.35055
_cell_length_b 21.44242
_cell_length_c 48.13650
_cell_angle_alpha 60.60944
_cell_angle_beta  119.17005
_cell_angle_gamma 133.33619

_symmetry_space_group_name_	'P 1'
_symmetry_space_group_name_H-M	'P 1'

loop_
_symmetry_equiv_pos_as_xyz
  x,y,z

loop_
_atom_site_label
_atom_site_type_symbol
_atom_site_fract_x
_atom_site_fract_y
_atom_site_fract_z
_atom_site_charge
C 	C 	0.71704 0.31494 0.99490 0.15700
N 	N 	0.77136 0.40054 0.99579 -0.12300
C 	C 	0.72552 0.43698 0.98764 0.15000
N 	N 	0.62661 0.38749 0.97913 -0.13200
C 	C 	0.57358 0.29939 0.98339 0.15800
N 	N 	0.61800 0.26567 0.98766 -0.11600
C 	C 	0.74398 0.34396 0.49046 0.15200
N 	N 	0.65144 0.29961 0.49208 -0.13400
C 	C 	0.62480 0.34135 0.49399 0.15500
N 	N 	0.68670 0.42986 0.49006 -0.12600
C 	C 	0.77870 0.47576 0.48776 0.15000
N 	N 	0.80787 0.43280 0.48803 -0.11500
C 	C 	0.21482 0.56984 0.14113 0.14600
N 	N 	0.30882 0.63646 0.13854 -0.13300
C 	C 	0.36421 0.61996 0.13797 0.15500
N 	N 	0.32556 0.53708 0.13949 -0.12600
C 	C 	0.23148 0.47028 0.14120 0.15400
N 	N 	0.17586 0.48590 0.14267 -0.11700
C 	C 	0.24013 0.59817 0.64050 0.14800
N 	N 	0.17996 0.51218 0.63861 -0.12800
C 	C 	0.21907 0.47659 0.63966 0.15400
N 	N 	0.31638 0.52562 0.64364 -0.12500
C 	C 	0.37283 0.61314 0.64075 0.15800
N 	N 	0.33466 0.64989 0.63889 -0.12200
Co	Co	0.01748 0.07651 0.06795 1.17400
Co	Co	0.09018 0.02899 0.03645 1.17200
C 	C 	0.89035 0.75493 0.01326 0.30500
Co	Co	0.10252 0.89324 0.02851 1.17700
C 	C 	0.27575 0.04693 0.05525 0.27600
O 	O 	0.87293 0.90707 0.15475 -0.38900
C 	C 	0.93562 0.88767 0.16948 0.30500
O 	O 	0.09958 0.12810 0.03780 -0.44200
C 	C 	0.11196 0.15932 0.12474 0.30800
C 	C 	0.71687 0.86281 0.09541 0.31800
C 	C 	0.07247 0.76088 0.09391 0.32000
O 	O 	0.96781 0.88424 0.15191 -0.37300
O 	O 	0.06388 0.77350 0.06321 -0.40100
O 	O 	0.05588 0.80046 0.10151 -0.37500
O 	O 	0.04686 0.08883 0.14169 -0.41100
O 	O 	0.12838 0.15218 0.10291 -0.36400
O 	O 	0.76391 0.94833 0.08996 -0.35800
O 	O 	0.75337 0.83012 0.09394 -0.36400
O 	O 	0.04436 0.92195 0.04398 -0.74700
O 	O 	0.96409 0.82689 0.99973 -0.35500
O 	O 	0.86708 0.75583 0.03502 -0.36300
O 	O 	0.23381 0.96278 0.06017 -0.33400
O 	O 	0.23395 0.07016 0.05951 -0.36900
Co	Co	0.98761 0.08202 0.55353 1.17900
Co	Co	0.10346 0.05993 0.53089 1.17200
C 	C 	0.97272 0.79241 0.51921 0.32200
Co	Co	0.17257 0.95366 0.53323 1.18600
C 	C 	0.31296 0.11810 0.55522 0.31900
O 	O 	0.97698 0.02221 0.64531 -0.42800
C 	C 	0.98348 0.95526 0.66186 0.37400
O 	O 	0.07434 0.14248 0.52367 -0.45600
C 	C 	0.05080 0.19661 0.59095 0.31600
C 	C 	0.72737 0.82510 0.60677 0.33200
C 	C 	0.14448 0.82161 0.59954 0.32300
O 	O 	0.99082 0.92065 0.64747 -0.38200
O 	O 	0.15596 0.84252 0.57082 -0.38900
O 	O 	0.11501 0.85578 0.60381 -0.37800
O 	O 	0.95741 0.15270 0.58652 -0.38200
O 	O 	0.08385 0.17174 0.58295 -0.38700
O 	O 	0.77886 0.88429 0.62303 -0.38400
O 	O 	0.76919 0.82361 0.59251 -0.36700
O 	O 	0.08602 0.96151 0.54402 -0.74200
O 	O 	0.04354 0.86909 0.50545 -0.38100
O 	O 	0.93434 0.78685 0.53792 -0.34600
O 	O 	0.28918 0.03825 0.56322 -0.39100
O 	O 	0.25194 0.12968 0.55373 -0.39000
C 	C 	0.98091 0.00571 0.91816 -0.11600
C 	C 	0.96969 0.99728 0.88880 0.11000
C 	C 	0.10769 0.00554 0.74342 -0.20600
C 	C 	0.09827 0.99875 0.71405 0.17900
C 	C 	0.00738 0.93491 0.69793 -0.17000
H 	H 	0.91740 0.96548 0.92773 0.12000
H 	H 	0.89743 0.95199 0.87569 0.04700
H 	H 	0.20885 0.14084 0.88543 0.05500
H 	H 	0.22867 0.15486 0.93717 0.06100
H 	H 	0.17617 0.05899 0.75436 0.09700
H 	H 	0.15889 0.04839 0.70225 -0.01500
C 	C 	0.97831 0.88186 0.20496 -0.06700
C 	C 	0.02086 0.91296 0.26362 0.01800
C 	C 	0.93623 0.83262 0.25553 -0.03300
C 	C 	0.91547 0.81678 0.22646 0.01700
C 	C 	0.01069 0.00541 0.42348 -0.13600
C 	C 	0.99482 0.98644 0.39597 0.10100
H 	H 	0.88374 0.78466 0.27069 0.06700
H 	H 	0.84599 0.75778 0.21910 0.05200
H 	H 	0.22642 0.13982 0.38438 0.05500
H 	H 	0.25503 0.17120 0.43334 0.06500
H 	H 	0.95073 0.96646 0.43467 0.13000
H 	H 	0.92249 0.93363 0.38602 0.04600
C 	C 	0.14875 0.26974 0.63608 -0.02100
C 	C 	0.11572 0.27772 0.60211 -0.08900
C 	C 	0.10832 0.34836 0.58120 0.14200
C 	C 	0.12483 0.40438 0.59433 -0.06300
C 	C 	0.15729 0.39610 0.62832 -0.01700
C 	C 	0.16544 0.32589 0.64923 0.10200
Br	Br	0.20280 0.30772 0.69600 -0.20400
H 	H 	0.15316 0.21488 0.65252 0.06400
H 	H 	0.12027 0.45912 0.57789 0.09000
Br	Br	0.06851 0.36521 0.53443 -0.20700
C 	C 	0.47136 0.71789 0.59953 -0.05700
C 	C 	0.46571 0.66891 0.63209 -0.01600
C 	C 	0.53888 0.65591 0.65335 0.10300
C 	C 	0.61775 0.69384 0.64218 -0.01400
C 	C 	0.62854 0.75062 0.61078 -0.09100
C 	C 	0.55109 0.75661 0.58862 0.14100
Br	Br	0.55576 0.82145 0.54373 -0.17700
H 	H 	0.41220 0.72348 0.58242 0.08500
H 	H 	0.67630 0.68724 0.65915 0.06700
Br	Br	0.53470 0.59019 0.69826 -0.18500
C 	C 	0.10502 0.60923 0.62701 -0.06000
C 	C 	0.20234 0.63751 0.64242 -0.01400
C 	C 	0.26715 0.71269 0.65538 0.10200
C 	C 	0.24210 0.76963 0.64565 -0.01700
C 	C 	0.15032 0.74884 0.62512 -0.08700
C 	C 	0.07795 0.66259 0.62027 0.12700
Br	Br	0.94271 0.61736 0.60466 -0.20600
H 	H 	0.05121 0.54745 0.61964 0.08800
H 	H 	0.29628 0.83256 0.65222 0.08200
Br	Br	0.38501 0.73413 0.68849 -0.17300
C 	C 	0.17095 0.38170 0.10554 -0.05900
C 	C 	0.18767 0.38516 0.13679 -0.01600
C 	C 	0.19255 0.31948 0.16434 0.10000
C 	C 	0.18123 0.25189 0.16053 -0.02200
C 	C 	0.16191 0.24694 0.12916 -0.09000
C 	C 	0.16292 0.31585 0.10180 0.13700
Br	Br	0.16485 0.32760 0.05999 -0.20400
H 	H 	0.17185 0.43437 0.08436 0.08500
H 	H 	0.18246 0.20038 0.18189 0.06400
Br	Br	0.21664 0.32196 0.20760 -0.20400
C 	C 	0.46423 0.75344 0.09935 -0.05900
C 	C 	0.45945 0.69309 0.13014 -0.02000
C 	C 	0.54121 0.69178 0.14989 0.10300
C 	C 	0.62335 0.74482 0.13764 -0.01900
C 	C 	0.62636 0.80205 0.10623 -0.09200
C 	C 	0.54703 0.80755 0.08722 0.14100
Br	Br	0.54765 0.88405 0.04380 -0.17800
H 	H 	0.40133 0.75466 0.08406 0.08400
H 	H 	0.68574 0.74274 0.15279 0.06800
Br	Br	0.54216 0.61851 0.19388 -0.19500
C 	C 	0.02368 0.60892 0.10992 -0.02700
C 	C 	0.08228 0.68914 0.11852 -0.08700
C 	C 	0.16807 0.70943 0.14367 0.13700
C 	C 	0.20244 0.65851 0.15546 -0.06000
C 	C 	0.15519 0.59093 0.14078 -0.01500
C 	C 	0.06155 0.56242 0.11936 0.09700
Br	Br	0.98785 0.46641 0.10006 -0.17500
H 	H 	0.95383 0.58897 0.09243 0.07800
H 	H 	0.27114 0.67723 0.17368 0.08800
Br	Br	0.24399 0.81084 0.16006 -0.18400
C 	C 	0.79823 0.20609 0.48973 -0.01300
C 	C 	0.79338 0.15137 0.52183 -0.08200
C 	C 	0.78264 0.16857 0.54402 0.14700
C 	C 	0.78489 0.24267 0.53456 -0.05800
C 	C 	0.78145 0.29224 0.50197 -0.01000
C 	C 	0.78997 0.27489 0.47955 0.10500
Br	Br	0.78986 0.34391 0.43497 -0.18800
H 	H 	0.80703 0.19451 0.47252 0.07700
H 	H 	0.77857 0.25611 0.55188 0.08500
C 	C 	0.81993 0.62492 0.46983 -0.06300
C 	C 	0.84916 0.56848 0.48998 -0.01100
C 	C 	0.92670 0.59190 0.51816 0.10100
C 	C 	0.96649 0.66543 0.52734 -0.00300
C 	C 	0.92664 0.71339 0.50977 -0.08700
C 	C 	0.85520 0.69476 0.48024 0.14700
Br	Br	0.80161 0.76119 0.45453 -0.20400
H 	H 	0.76240 0.60905 0.44761 0.09000
H 	H 	0.02833 0.68508 0.54825 0.06000
Br	Br	0.97632 0.52225 0.54540 -0.20200
C 	C 	0.55971 0.24564 0.54361 -0.06400
C 	C 	0.54699 0.28997 0.51041 -0.02300
C 	C 	0.46601 0.29331 0.49466 0.09900
C 	C 	0.39453 0.24610 0.51144 -0.01700
C 	C 	0.40227 0.19389 0.54355 -0.10100
C 	C 	0.48883 0.19937 0.56038 0.14200
Br	Br	0.51107 0.14379 0.60633 -0.20900
H 	H 	0.62527 0.24784 0.55644 0.08200
H 	H 	0.32936 0.24449 0.49866 0.06400
Br	Br	0.44935 0.35817 0.44983 -0.20600
C 	C 	0.83392 0.30119 0.99372 -0.04900
C 	C 	0.76421 0.27025 0.00816 -0.02300
C 	C 	0.73222 0.19101 0.03309 0.10800
C 	C 	0.76707 0.14255 0.04234 -0.02200
C 	C 	0.84335 0.17720 0.03035 -0.08400
C 	C 	0.87392 0.25526 0.00477 0.13300
Br	Br	0.96665 0.29834 0.98373 -0.17600
H 	H 	0.85666 0.36045 0.97383 0.08200
H 	H 	0.74217 0.08208 0.06166 0.06300
Br	Br	0.65026 0.15311 0.05774 -0.19700
C 	C 	0.80266 0.59715 0.97014 -0.06600
C 	C 	0.77960 0.52033 0.99565 -0.01100
C 	C 	0.78275 0.51830 0.02598 0.09400
C 	C 	0.81116 0.59327 0.03068 -0.01800
C 	C 	0.83636 0.67082 0.00536 -0.09100
C 	C 	0.82664 0.67067 0.97434 0.14500
Br	Br	0.83222 0.76453 0.93641 -0.20900
H 	H 	0.79488 0.59746 0.94620 0.08300
C 	C 	0.35568 0.08818 0.01541 -0.01900
C 	C 	0.35261 0.11360 0.03655 -0.08900
C 	C 	0.41684 0.20339 0.03713 0.14100
C 	C 	0.47900 0.26632 0.01565 -0.06200
C 	C 	0.48412 0.24018 0.99538 -0.01300
C 	C 	0.41633 0.15151 0.99353 0.10600
Br	Br	0.40054 0.11668 0.95975 -0.21900
H 	H 	0.30773 0.01930 0.01497 0.04200
H 	H 	0.52868 0.33496 0.01655 0.09300
Br	Br	0.43204 0.24028 0.07015 -0.18800
Co	Co	0.96424 0.83906 0.06745 1.19400
Co	Co	0.90100 0.88778 0.10216 1.19000
Co	Co	0.90302 0.02085 0.11737 1.15300
O 	O 	0.93982 0.99304 0.09258 -0.72600
O 	O 	0.88333 0.78754 0.09792 -0.44600
O 	O 	0.96574 0.95385 0.05912 -0.55100
C 	C 	0.09118 0.03570 0.97273 0.28300
O 	O 	0.14686 0.00872 0.99150 -0.40900
O 	O 	0.05973 0.05160 0.98575 -0.37700
C 	C 	0.90651 0.14666 0.05114 0.32100
O 	O 	0.93395 0.13942 0.08275 -0.39500
O 	O 	0.93144 0.12336 0.03865 -0.35800
Co	Co	0.00844 0.87259 0.56755 1.18800
Co	Co	0.91937 0.90450 0.59897 1.18900
Co	Co	0.87024 0.01758 0.60313 1.17300
O 	O 	0.92623 0.99846 0.58264 -0.72400
O 	O 	0.92572 0.81353 0.59876 -0.43200
O 	O 	0.97596 0.96879 0.55407 -0.55100
C 	C 	0.12905 0.06919 0.47222 0.28100
O 	O 	0.19995 0.06270 0.49361 -0.41100
O 	O 	0.07603 0.06923 0.48189 -0.38200
C 	C 	0.81104 0.08395 0.53295 0.30400
O 	O 	0.77533 0.01481 0.55740 -0.36100
O 	O 	0.87825 0.10318 0.52278 -0.36100
C 	C 	0.07484 0.05837 0.93683 -0.02700
C 	C 	0.05228 0.04269 0.87774 -0.06700
C 	C 	0.14480 0.10362 0.89423 -0.00400
C 	C 	0.15590 0.11222 0.92344 -0.01800
C 	C 	0.04366 0.02013 0.85175 0.04600
C 	C 	0.03829 0.00239 0.83011 -0.07400
C 	C 	0.03363 0.98186 0.80501 0.10700
C 	C 	0.03042 0.96527 0.78351 -0.06300
C 	C 	0.02693 0.94730 0.75727 0.14900
C 	C 	0.93033 0.87022 0.71397 0.09200
C 	C 	0.93969 0.87697 0.74336 -0.10300
H 	H 	0.86016 0.81975 0.70211 0.03000
H 	H 	0.87746 0.83029 0.75427 0.08700
C 	C 	0.06918 0.95668 0.21541 0.03800
C 	C 	0.08968 0.97295 0.24437 -0.00900
C 	C 	0.03160 0.93804 0.28928 0.01800
C 	C 	0.04065 0.95907 0.31070 -0.00300
C 	C 	0.05080 0.98442 0.33552 0.07800
C 	C 	0.06006 0.00641 0.35668 -0.05800
C 	C 	0.07310 0.03315 0.38232 -0.02800
C 	C 	0.16581 0.10238 0.39506 -0.02100
C 	C 	0.18183 0.12079 0.42266 -0.02100
C 	C 	0.10530 0.06992 0.43789 -0.02100
H 	H 	0.11992 0.00629 0.19962 0.02100
H 	H 	0.15657 0.03429 0.25082 0.03000
Br	Br	0.75318 0.08805 0.58584 -0.28700
H 	H 	0.81503 0.59153 0.05425 0.06800
Br	Br	0.74178 0.41157 0.06053 -0.18200
