data_crystal

_cell_length_a 26.14560
_cell_length_b 26.31700
_cell_length_c 34.94970
_cell_angle_alpha 95.48012
_cell_angle_beta  95.47911
_cell_angle_gamma 125.83170

_symmetry_space_group_name_	'P 1'
_symmetry_space_group_name_H-M	'P 1'

loop_
_symmetry_equiv_pos_as_xyz
  x,y,z

loop_
_atom_site_label
_atom_site_type_symbol
_atom_site_fract_x
_atom_site_fract_y
_atom_site_fract_z
_atom_site_charge
C 	C 	0.00280 0.06178 0.99978 0.10600
N 	N 	0.06113 0.09279 0.98895 -0.14500
C 	C 	0.08859 0.06265 0.98347 0.11700
N 	N 	0.05816 0.00194 0.98963 -0.14300
C 	C 	0.00092 0.97152 0.00173 0.10000
N 	N 	0.97318 0.00149 0.00665 -0.13300
C 	C 	0.90090 0.96400 0.44665 0.12400
N 	N 	0.96597 0.99955 0.45310 -0.14800
C 	C 	0.99512 0.97080 0.45634 0.12000
N 	N 	0.95920 0.90645 0.45252 -0.14700
C 	C 	0.89417 0.87073 0.44556 0.12000
N 	N 	0.86498 0.89954 0.44284 -0.14700
Cu	Cu	0.66930 0.27382 0.01097 0.92700
Cu	Cu	0.72169 0.26900 0.92936 0.86900
Cu	Cu	0.71465 0.37489 0.95932 0.89600
Cu	Cu	0.66907 0.39254 0.03211 0.89100
C 	C 	0.68204 0.32390 0.09124 0.28000
O 	O 	0.57521 0.23624 0.00664 -0.36700
C 	C 	0.69426 0.32750 0.87513 0.28200
O 	O 	0.72210 0.37270 0.01402 -0.64000
O 	O 	0.66579 0.28026 0.95483 -0.64200
O 	O 	0.70751 0.22665 0.01265 -0.37500
O 	O 	0.77928 0.28625 0.97463 -0.44500
O 	O 	0.65454 0.34984 0.07849 -0.38600
O 	O 	0.76564 0.46704 0.96816 -0.38500
C 	C 	0.75911 0.50119 0.99470 0.29100
C 	C 	0.55102 0.26220 0.98968 0.28800
O 	O 	0.58933 0.32183 0.98534 -0.39500
O 	O 	0.70830 0.47385 0.01170 -0.39800
O 	O 	0.68573 0.28478 0.06694 -0.36200
C 	C 	0.75996 0.24600 0.99883 0.29200
O 	O 	0.72230 0.37759 0.90373 -0.39200
O 	O 	0.68510 0.27440 0.88144 -0.42100
H 	H 	0.76687 0.39971 0.02872 0.16000
H 	H 	0.62195 0.25590 0.93908 0.16700
Cu	Cu	0.69372 0.29955 0.44785 0.92600
Cu	Cu	0.71702 0.27070 0.53474 0.86800
Cu	Cu	0.60198 0.26462 0.50559 0.89700
Cu	Cu	0.56327 0.28177 0.42548 0.89300
C 	C 	0.64330 0.28498 0.36830 0.28500
O 	O 	0.72539 0.38934 0.44352 -0.37600
C 	C 	0.66299 0.30418 0.58946 0.28200
O 	O 	0.59534 0.24306 0.45058 -0.63800
O 	O 	0.69609 0.31602 0.50464 -0.64200
O 	O 	0.74529 0.26622 0.44855 -0.37800
O 	O 	0.69593 0.20513 0.49367 -0.44500
O 	O 	0.58801 0.27264 0.37417 -0.38700
O 	O 	0.50991 0.21015 0.50246 -0.38500
C 	C 	0.46916 0.20972 0.47678 0.29700
C 	C 	0.69423 0.41178 0.45379 0.29500
O 	O 	0.63725 0.37375 0.46254 -0.39500
O 	O 	0.48942 0.25135 0.45307 -0.39900
O 	O 	0.67503 0.27251 0.39244 -0.36500
C 	C 	0.73042 0.21854 0.46615 0.29800
O 	O 	0.60931 0.27189 0.56296 -0.38900
O 	O 	0.71627 0.31537 0.58077 -0.42100
H 	H 	0.57068 0.19667 0.44070 0.16200
H 	H 	0.71966 0.36158 0.51646 0.16700
C 	C 	0.68467 0.33501 0.83453 -0.07800
C 	C 	0.73662 0.38310 0.81976 0.00300
C 	C 	0.73140 0.38373 0.77968 -0.05600
C 	C 	0.67257 0.33738 0.75367 0.00400
C 	C 	0.61988 0.28907 0.76892 0.00500
C 	C 	0.62601 0.28908 0.80929 -0.01800
C 	C 	0.56308 0.23891 0.74349 -0.04200
C 	C 	0.55930 0.23347 0.70310 -0.04400
C 	C 	0.61110 0.27979 0.68732 0.00600
C 	C 	0.66642 0.33449 0.71234 0.00300
C 	C 	0.71384 0.38448 0.69536 -0.05600
C 	C 	0.71173 0.37515 0.65502 0.00200
C 	C 	0.66036 0.31785 0.63078 -0.07700
C 	C 	0.60866 0.27160 0.64672 -0.02000
H 	H 	0.78246 0.41803 0.83909 0.02900
H 	H 	0.77431 0.41759 0.76901 0.03800
H 	H 	0.58595 0.25170 0.82084 0.03100
H 	H 	0.52249 0.20244 0.75508 0.03300
H 	H 	0.51601 0.19272 0.68399 0.03500
H 	H 	0.75059 0.43119 0.71273 0.03800
H 	H 	0.74999 0.41270 0.64258 0.02700
H 	H 	0.56775 0.22821 0.62775 0.04000
C 	C 	0.69350 0.32580 0.13372 -0.07100
C 	C 	0.71164 0.37960 0.16023 0.00000
C 	C 	0.71262 0.37822 0.20013 -0.05400
C 	C 	0.69261 0.32165 0.21387 0.00400
C 	C 	0.68281 0.27068 0.18798 0.00800
C 	C 	0.68201 0.27245 0.14787 -0.01800
C 	C 	0.67376 0.21857 0.20240 -0.04200
C 	C 	0.67211 0.21552 0.24195 -0.04100
C 	C 	0.67515 0.26234 0.26724 0.00700
C 	C 	0.68331 0.31495 0.25308 0.00400
C 	C 	0.67608 0.35591 0.27710 -0.05300
C 	C 	0.66553 0.34720 0.31513 0.00200
C 	C 	0.66040 0.29692 0.32963 -0.07100
C 	C 	0.66605 0.25503 0.30589 -0.01600
H 	H 	0.72478 0.42255 0.14987 0.02200
H 	H 	0.73130 0.42175 0.22018 0.03800
H 	H 	0.67067 0.23177 0.12767 0.04700
H 	H 	0.66827 0.18037 0.18295 0.03700
H 	H 	0.66585 0.17522 0.25263 0.03700
H 	H 	0.67447 0.39188 0.26583 0.03800
H 	H 	0.65962 0.37873 0.33307 0.02700
H 	H 	0.66036 0.21511 0.31685 0.04300
C 	C 	0.80434 0.59258 0.47322 -0.09600
C 	C 	0.76937 0.60510 0.44817 0.00800
C 	C 	0.70951 0.55405 0.42514 0.01900
C 	C 	0.68587 0.49107 0.42724 -0.01200
C 	C 	0.72074 0.47847 0.45233 -0.11500
C 	C 	0.78002 0.52957 0.47598 0.09900
C 	C 	0.79646 0.67196 0.44567 -0.00800
C 	C 	0.67135 0.56655 0.39785 -0.16900
H 	H 	0.64040 0.45168 0.40913 0.02300
C 	C 	0.81728 0.51727 0.50423 -0.20100
H 	H 	0.85033 0.63202 0.49078 0.05000
C 	C 	0.78879 0.70896 0.47311 0.03600
C 	C 	0.81888 0.77358 0.47167 -0.04800
C 	C 	0.85560 0.80121 0.44293 -0.04800
C 	C 	0.85953 0.76300 0.41389 0.06700
C 	C 	0.83121 0.69900 0.41610 -0.07900
C 	C 	0.75061 0.68039 0.50474 -0.17700
H 	H 	0.81532 0.80288 0.49362 0.03900
C 	C 	0.89539 0.79063 0.38123 -0.19000
H 	H 	0.83630 0.67015 0.39482 0.04700
H 	H 	0.85864 0.56208 0.52364 0.06200
H 	H 	0.83612 0.49528 0.48779 0.07100
H 	H 	0.78586 0.48486 0.52320 0.06100
H 	H 	0.69771 0.58874 0.37414 0.06100
H 	H 	0.66352 0.59906 0.41415 0.06000
H 	H 	0.62347 0.52185 0.38415 0.05500
H 	H 	0.74390 0.71358 0.52141 0.05800
H 	H 	0.77603 0.66929 0.52557 0.06200
H 	H 	0.70222 0.63591 0.49168 0.06200
H 	H 	0.94785 0.81907 0.39228 0.07100
H 	H 	0.88433 0.82159 0.36946 0.06800
H 	H 	0.88158 0.75243 0.35655 0.06100
C 	C 	0.84062 0.17055 0.45801 -0.09600
C 	C 	0.79583 0.10450 0.44496 0.00900
C 	C 	0.72976 0.07675 0.43557 0.01200
C 	C 	0.70924 0.11520 0.44148 -0.00800
C 	C 	0.75386 0.18096 0.45583 -0.11800
C 	C 	0.82022 0.20913 0.46360 0.09400
C 	C 	0.81828 0.06428 0.44370 -0.00400
C 	C 	0.68091 0.00596 0.42072 -0.14000
H 	H 	0.65838 0.09378 0.43552 0.03100
C 	C 	0.86924 0.27990 0.47861 -0.19800
H 	H 	0.89137 0.19169 0.46464 0.05000
C 	C 	0.84389 0.05713 0.41158 0.03300
C 	C 	0.86992 0.02326 0.41273 -0.03400
C 	C 	0.86957 0.99558 0.44514 -0.06600
C 	C 	0.84244 0.00132 0.47682 0.08500
C 	C 	0.81687 0.03560 0.47578 -0.08500
C 	C 	0.84525 0.08708 0.37662 -0.17600
H 	H 	0.89099 0.01887 0.38854 0.04000
C 	C 	0.84133 0.97164 0.51190 -0.20100
H 	H 	0.79667 0.04081 0.50022 0.04800
H 	H 	0.91865 0.29367 0.48553 0.06100
H 	H 	0.85851 0.29435 0.50581 0.04700
H 	H 	0.86852 0.30661 0.45609 0.07500
H 	H 	0.67722 0.97978 0.44468 0.04900
H 	H 	0.69524 0.99018 0.39603 0.05000
H 	H 	0.63262 0.99306 0.40994 0.04500
H 	H 	0.86002 0.07117 0.35224 0.06000
H 	H 	0.87984 0.13982 0.38504 0.06400
H 	H 	0.79678 0.07350 0.36555 0.06400
H 	H 	0.82212 0.98384 0.53519 0.06000
H 	H 	0.89073 0.98906 0.52459 0.06900
H 	H 	0.81035 0.91889 0.50304 0.07000
C 	C 	0.16637 0.04444 0.50309 -0.08100
C 	C 	0.19915 0.07447 0.47347 -0.00700
C 	C 	0.16514 0.07271 0.43880 0.03600
C 	C 	0.09846 0.03996 0.43410 -0.04800
C 	C 	0.06554 0.00919 0.46348 -0.04800
C 	C 	0.09989 0.01283 0.49872 0.07300
C 	C 	0.26924 0.10763 0.47891 0.00700
C 	C 	0.19955 0.10442 0.40649 -0.17700
H 	H 	0.07191 0.03734 0.40722 0.04100
C 	C 	0.06578 0.98210 0.53135 -0.19600
H 	H 	0.19276 0.04606 0.52966 0.04800
C 	C 	0.31272 0.17272 0.49664 0.02100
C 	C 	0.37860 0.20499 0.49716 -0.01200
C 	C 	0.40150 0.17286 0.48083 -0.10900
C 	C 	0.35846 0.10683 0.46541 0.09300
C 	C 	0.29245 0.07467 0.46451 -0.09400
C 	C 	0.28886 0.20824 0.51394 -0.17000
H 	H 	0.41202 0.25553 0.50950 0.03500
C 	C 	0.38240 0.07118 0.44846 -0.20100
H 	H 	0.25888 0.02440 0.45156 0.05000
H 	H 	0.10026 0.99901 0.55914 0.05900
H 	H 	0.03814 0.92951 0.52336 0.06800
H 	H 	0.03252 0.99408 0.53686 0.06500
H 	H 	0.22042 0.08113 0.39458 0.06300
H 	H 	0.23859 0.15580 0.41788 0.06200
H 	H 	0.16660 0.10099 0.38204 0.05900
H 	H 	0.32913 0.25793 0.52841 0.05800
H 	H 	0.26005 0.18371 0.53628 0.06200
H 	H 	0.25858 0.21030 0.49055 0.06000
H 	H 	0.34324 0.01920 0.43956 0.06300
H 	H 	0.42008 0.07748 0.47055 0.06800
H 	H 	0.40280 0.08961 0.42226 0.05900
C 	C 	0.96798 0.81700 0.02279 -0.07900
C 	C 	0.90234 0.77340 0.00687 -0.00800
C 	C 	0.86742 0.79576 0.99364 0.03800
C 	C 	0.90026 0.86077 0.99229 -0.05500
C 	C 	0.96664 0.90434 0.00673 -0.03700
C 	C 	0.99989 0.88267 0.02447 0.06700
C 	C 	0.87045 0.70428 0.00426 0.00800
C 	C 	0.79542 0.75054 0.98070 -0.18000
H 	H 	0.87427 0.87736 0.97960 0.04400
C 	C 	0.06898 0.92888 0.04523 -0.19100
H 	H 	0.99418 0.79981 0.03413 0.04600
C 	C 	0.85896 0.66561 0.96877 0.02000
C 	C 	0.82240 0.59922 0.96601 -0.01600
C 	C 	0.80137 0.57156 0.99900 -0.10900
C 	C 	0.81974 0.61144 0.03565 0.09400
C 	C 	0.85174 0.67717 0.03756 -0.09500
C 	C 	0.88525 0.69482 0.93382 -0.17000
H 	H 	0.80989 0.56907 0.93810 0.04300
C 	C 	0.80548 0.58453 0.07272 -0.19700
H 	H 	0.86247 0.70736 0.06507 0.04900
H 	H 	0.10127 0.94240 0.02360 0.06700
H 	H 	0.08117 0.90717 0.06660 0.05900
H 	H 	0.07798 0.97233 0.06190 0.06800
H 	H 	0.77307 0.72096 0.00314 0.06600
H 	H 	0.78269 0.71883 0.95255 0.06200
H 	H 	0.77453 0.77665 0.97659 0.05900
H 	H 	0.87977 0.65948 0.91035 0.05800
H 	H 	0.93728 0.73476 0.94247 0.06200
H 	H 	0.85945 0.71305 0.92160 0.05900
H 	H 	0.83749 0.62229 0.09897 0.06100
H 	H 	0.81345 0.54747 0.07303 0.05500
H 	H 	0.75500 0.56360 0.07518 0.06400
C 	C 	0.80085 0.13017 0.00464 -0.09400
C 	C 	0.86799 0.17256 0.01449 0.00600
C 	C 	0.89895 0.23887 0.02363 0.02000
C 	C 	0.86231 0.26194 0.02062 -0.01400
C 	C 	0.79534 0.21977 0.00855 -0.11500
C 	C 	0.76414 0.15313 0.00115 0.09300
C 	C 	0.90566 0.14731 0.01175 -0.00900
C 	C 	0.97116 0.28528 0.03451 -0.17000
H 	H 	0.88612 0.31295 0.02648 0.03300
C 	C 	0.69213 0.10640 0.98857 -0.20100
H 	H 	0.77732 0.07924 0.99837 0.04800
C 	C 	0.91988 0.12568 0.04362 0.04000
C 	C 	0.95289 0.09900 0.03944 -0.05300
C 	C 	0.97132 0.09320 0.00383 -0.03400
C 	C 	0.95643 0.11429 0.97179 0.05900
C 	C 	0.92480 0.14233 0.97633 -0.07700
C 	C 	0.89841 0.12931 0.08169 -0.17900
H 	H 	0.96380 0.08221 0.06383 0.04600
C 	C 	0.97379 0.10686 0.93274 -0.17900
H 	H 	0.91393 0.15926 0.95200 0.04300
H 	H 	0.67610 0.05659 0.98083 0.06200
H 	H 	0.67587 0.11768 0.96236 0.05200
H 	H 	0.66850 0.10847 0.01280 0.07900
H 	H 	0.99262 0.28591 0.00847 0.06100
H 	H 	0.98945 0.27120 0.05804 0.06100
H 	H 	0.98739 0.33449 0.04543 0.05700
H 	H 	0.91704 0.11454 0.10456 0.06100
H 	H 	0.84514 0.09733 0.07707 0.06500
H 	H 	0.91620 0.17897 0.09283 0.06400
H 	H 	0.94968 0.11587 0.90936 0.05900
H 	H 	0.95855 0.05756 0.92376 0.06800
H 	H 	0.02647 0.14142 0.93471 0.06400
C 	C 	0.23301 0.09522 0.94427 -0.07900
C 	C 	0.28240 0.15318 0.96882 -0.00800
C 	C 	0.26714 0.18711 0.99276 0.03600
C 	C 	0.20288 0.15812 0.99605 -0.05200
C 	C 	0.15366 0.09742 0.97400 -0.04600
C 	C 	0.16850 0.06807 0.94568 0.06200
C 	C 	0.34955 0.17522 0.97182 0.00400
C 	C 	0.31931 0.25281 0.01615 -0.17400
H 	H 	0.19144 0.18179 0.01678 0.04400
C 	C 	0.11618 0.00724 0.91763 -0.17800
H 	H 	0.24483 0.07047 0.92475 0.04500
C 	C 	0.37779 0.16249 0.00222 0.02400
C 	C 	0.44354 0.19026 0.00722 -0.01700
C 	C 	0.48059 0.22750 0.98096 -0.11200
C 	C 	0.45035 0.23381 0.94785 0.09300
C 	C 	0.38553 0.20954 0.94437 -0.09500
C 	C 	0.33836 0.12056 0.02989 -0.17200
H 	H 	0.46620 0.18397 0.03206 0.04300
C 	C 	0.48657 0.26624 0.91627 -0.19900
H 	H 	0.36308 0.21743 0.92032 0.04900
H 	H 	0.10087 0.96561 0.93177 0.06000
H 	H 	0.13342 0.00216 0.89070 0.05900
H 	H 	0.07419 0.00704 0.90844 0.06600
H 	H 	0.35372 0.28285 0.99755 0.06200
H 	H 	0.34547 0.24929 0.04143 0.06100
H 	H 	0.29922 0.27732 0.02741 0.05800
H 	H 	0.36526 0.10852 0.04858 0.06000
H 	H 	0.29397 0.07500 0.01316 0.06400
H 	H 	0.32507 0.14536 0.04926 0.06200
H 	H 	0.45311 0.25161 0.88838 0.06300
H 	H 	0.51878 0.25311 0.91021 0.06300
H 	H 	0.51533 0.31878 0.92545 0.07200
