data_crystal

_cell_length_a 19.31828
_cell_length_b 18.23958
_cell_length_c 26.51978
_cell_angle_alpha 95.43704
_cell_angle_beta  95.43854
_cell_angle_gamma 126.42255

_symmetry_space_group_name_	'P 1'
_symmetry_space_group_name_H-M	'P 1'

loop_
_symmetry_equiv_pos_as_xyz
  x,y,z

loop_
_atom_site_label
_atom_site_type_symbol
_atom_site_fract_x
_atom_site_fract_y
_atom_site_fract_z
_atom_site_charge
C 	C 	0.91797 0.00086 0.98942 0.00700
C 	C 	0.00703 0.04441 0.98955 -0.08200
H 	H 	0.05054 0.11752 0.98773 0.13000
C 	C 	0.95317 0.04530 0.44670 -0.06100
C 	C 	0.04353 0.09372 0.44900 0.07700
C 	C 	0.08205 0.04964 0.45759 -0.05000
H 	H 	0.08405 0.16615 0.44547 0.08800
Cu	Cu	0.67878 0.20148 0.04959 0.91900
Cu	Cu	0.58117 0.26345 0.01863 0.90900
C 	C 	0.65418 0.28140 0.84291 0.29700
C 	C 	0.63944 0.28220 0.12933 0.28900
O 	O 	0.57708 0.22254 0.94687 -0.63900
O 	O 	0.78637 0.26020 0.95502 -0.30500
O 	O 	0.68676 0.14033 0.99127 -0.38600
O 	O 	0.46246 0.22839 0.01210 -0.28100
C 	C 	0.40086 0.18107 0.97022 0.28600
O 	O 	0.42077 0.19419 0.92412 -0.33900
O 	O 	0.70216 0.27428 0.87786 -0.34500
C 	C 	0.75870 0.18360 0.97223 0.31100
O 	O 	0.58972 0.28684 0.09375 -0.31500
O 	O 	0.68655 0.25493 0.11719 -0.34700
H 	H 	0.54167 0.15443 0.93595 0.18800
Cu	Cu	0.74844 0.25437 0.54569 0.93100
Cu	Cu	0.62453 0.29669 0.52420 0.90800
C 	C 	0.67567 0.35115 0.34868 0.28800
C 	C 	0.68354 0.28741 0.62951 0.28200
O 	O 	0.61905 0.28874 0.45106 -0.63700
O 	O 	0.81039 0.29651 0.43623 -0.29800
O 	O 	0.72425 0.18447 0.48065 -0.39000
O 	O 	0.49983 0.23425 0.51879 -0.32400
C 	C 	0.45534 0.25194 0.48829 0.30300
O 	O 	0.49537 0.32675 0.46747 -0.32200
O 	O 	0.73092 0.34196 0.37518 -0.33300
C 	C 	0.78432 0.21930 0.45204 0.30600
O 	O 	0.62936 0.29306 0.59865 -0.32100
O 	O 	0.75098 0.29698 0.61442 -0.34100
H 	H 	0.57619 0.22518 0.43055 0.17200
C 	C 	0.67581 0.28362 0.68415 -0.04800
C 	C 	0.59724 0.21163 0.69818 0.11000
C 	C 	0.59241 0.20966 0.75059 -0.02100
C 	C 	0.66565 0.27610 0.78899 -0.06700
H 	H 	0.53112 0.15703 0.76155 0.06700
C 	C 	0.51836 0.13722 0.65764 -0.22100
H 	H 	0.53735 0.10778 0.62839 0.09700
H 	H 	0.48917 0.16692 0.63845 0.15400
H 	H 	0.46733 0.07908 0.67468 0.11400
C 	C 	0.57297 0.24923 0.20741 -0.02500
C 	C 	0.64379 0.30948 0.18411 -0.05500
C 	C 	0.66408 0.33575 0.29219 -0.06400
C 	C 	0.58250 0.26173 0.26138 0.10800
C 	C 	0.50625 0.19501 0.28589 -0.21400
H 	H 	0.51162 0.19029 0.18357 0.10800
H 	H 	0.44787 0.13917 0.25654 0.13100
H 	H 	0.48769 0.23272 0.30905 0.10500
H 	H 	0.52449 0.16183 0.31141 0.09500
C 	C 	0.93346 0.15600 0.49052 -0.00600
C 	C 	0.91561 0.09610 0.44560 0.11000
C 	C 	0.86304 0.08597 0.40034 -0.13100
C 	C 	0.82099 0.12780 0.40309 0.08100
C 	C 	0.83685 0.18546 0.44861 -0.01800
C 	C 	0.89854 0.20499 0.49168 -0.06600
C 	C 	0.92269 0.27246 0.54045 0.75100
H 	H 	0.97435 0.16393 0.52483 0.09700
H 	H 	0.77441 0.11395 0.37017 0.08300
F 	F 	0.00364 0.30645 0.56828 -0.38600
F 	F 	0.86070 0.22711 0.57100 -0.49600
F 	F 	0.92763 0.34778 0.52918 -0.46000
C 	C 	0.22967 0.16193 0.51197 -0.00800
C 	C 	0.17795 0.10280 0.46459 0.11300
C 	C 	0.21755 0.09106 0.42556 -0.13300
C 	C 	0.30777 0.13428 0.43627 0.07400
C 	C 	0.35980 0.19492 0.48315 -0.01500
C 	C 	0.32086 0.20966 0.52146 -0.05600
C 	C 	0.37635 0.27597 0.57233 0.77400
H 	H 	0.19840 0.17012 0.54148 0.10900
H 	H 	0.33838 0.12289 0.40753 0.06400
C 	C 	0.16344 0.02921 0.37339 0.75300
F 	F 	0.32640 0.28201 0.60413 -0.39900
F 	F 	0.41785 0.24559 0.59806 -0.42700
F 	F 	0.10459 0.04477 0.35503 -0.37700
F 	F 	0.21600 0.04619 0.33717 -0.41200
C 	C 	0.90306 0.12142 0.02348 0.01200
C 	C 	0.88226 0.05285 0.98262 0.09700
C 	C 	0.82976 0.03629 0.93532 -0.18500
C 	C 	0.79235 0.08285 0.93200 0.10200
C 	C 	0.81108 0.14931 0.97347 -0.03300
C 	C 	0.87058 0.17248 0.01871 -0.05200
C 	C 	0.89530 0.24761 0.06316 0.77000
H 	H 	0.94397 0.13424 0.05923 0.11100
H 	H 	0.74630 0.06530 0.89769 0.06900
F 	F 	0.96718 0.27330 0.09834 -0.40600
F 	F 	0.82563 0.21531 0.08840 -0.47600
C 	C 	0.18910 0.04481 0.02307 0.06600
C 	C 	0.13005 0.03526 0.98284 -0.03000
C 	C 	0.15802 0.06467 0.93639 -0.08200
C 	C 	0.24764 0.11799 0.93493 0.05500
C 	C 	0.30713 0.12702 0.97482 0.00900
C 	C 	0.27553 0.08274 0.01751 -0.07800
C 	C 	0.33185 0.07388 0.05655 0.77900
H 	H 	0.16701 0.02052 0.05820 0.10000
H 	H 	0.27102 0.15145 0.90226 0.10500
C 	C 	0.09341 0.04072 0.88851 0.73700
F 	F 	0.28049 0.00268 0.08260 -0.41800
F 	F 	0.38704 0.15561 0.09232 -0.43000
F 	F 	0.38084 0.05398 0.03242 -0.46000
F 	F 	0.07308 0.10178 0.89216 -0.39700
F 	F 	0.12861 0.04701 0.84455 -0.39900
Cu	Cu	0.54009 0.28087 0.91086 0.93400
F 	F 	0.92349 0.04140 0.34125 -0.38500
F 	F 	0.81509 0.04538 0.30860 -0.40400
Cu	Cu	0.75285 0.35675 0.44905 0.94000
O 	O 	0.75082 0.35395 0.52375 -0.62100
F 	F 	0.43869 0.36390 0.56331 -0.39700
Cu	Cu	0.71313 0.30409 0.95094 0.93500
O 	O 	0.70432 0.30971 0.02415 -0.62400
O 	O 	0.61266 0.31462 0.85643 -0.30100
Cu	Cu	0.59989 0.37503 0.43521 0.91000
F 	F 	0.91636 0.32594 0.04507 -0.43000
C 	C 	0.74972 0.34870 0.72256 -0.02900
C 	C 	0.74553 0.34524 0.77490 0.13700
C 	C 	0.84678 0.02599 0.35015 0.75100
O 	O 	0.64952 0.39629 0.37101 -0.35300
H 	H 	0.74731 0.37048 0.04750 0.20700
C 	C 	0.72325 0.38739 0.21492 0.12100
C 	C 	0.73343 0.39873 0.26883 -0.02000
H 	H 	0.84729 0.37846 0.83584 0.13000
H 	H 	0.79196 0.41466 0.54744 0.24100
H 	H 	0.81060 0.40237 0.71164 0.10100
O 	O 	0.62250 0.40066 0.97274 -0.34000
C 	C 	0.82659 0.41473 0.81540 -0.23400
H 	H 	0.83229 0.42795 0.17778 0.13600
C 	C 	0.03896 0.99256 0.98940 0.23100
F 	F 	0.88335 0.97484 0.88172 -0.36400
F 	F 	0.77511 0.97534 0.84458 -0.38000
C 	C 	0.80876 0.96507 0.88951 0.84300
F 	F 	0.01757 0.95085 0.88266 -0.34300
C 	C 	0.86299 0.90779 0.99513 0.03900
C 	C 	0.89529 0.85627 0.99650 0.09300
C 	C 	0.98307 0.89867 0.99313 -0.09500
H 	H 	0.79474 0.87475 0.99677 0.11600
H 	H 	0.00707 0.85790 0.99171 0.15200
C 	C 	0.03018 0.95697 0.46354 0.12500
C 	C 	0.93966 0.90749 0.45986 -0.02200
C 	C 	0.90134 0.95220 0.45266 0.11400
H 	H 	0.06020 0.92333 0.47109 0.09300
H 	H 	0.83192 0.91519 0.45231 0.10000
O 	O 	0.75086 0.43560 0.95331 -0.31500
C 	C 	0.70556 0.46242 0.97035 0.28800
O 	O 	0.81639 0.49559 0.46150 -0.31300
C 	C 	0.78459 0.53372 0.48422 0.30900
O 	O 	0.70710 0.48023 0.49624 -0.32000
H 	H 	0.81349 0.45198 0.84367 0.15800
H 	H 	0.88203 0.46754 0.79818 0.13600
H 	H 	0.79522 0.45696 0.29265 0.09400
C 	C 	0.79838 0.45663 0.19054 -0.22700
H 	H 	0.77421 0.47256 0.15679 0.12700
H 	H 	0.84665 0.52305 0.21816 0.14900
C 	C 	0.81880 0.64868 0.42910 0.08100
C 	C 	0.81967 0.62887 0.47884 -0.01300
C 	C 	0.85128 0.69894 0.52241 -0.05100
C 	C 	0.88261 0.78847 0.51500 -0.00400
C 	C 	0.88588 0.80933 0.46529 0.12000
C 	C 	0.85060 0.73811 0.42173 -0.13000
C 	C 	0.84601 0.75728 0.36747 0.79300
H 	H 	0.79310 0.59386 0.39611 0.08200
H 	H 	0.90799 0.84328 0.54793 0.11900
C 	C 	0.85178 0.67846 0.57658 0.77100
F 	F 	0.80543 0.67788 0.33032 -0.40500
F 	F 	0.92947 0.82184 0.35863 -0.36100
F 	F 	0.79869 0.79129 0.36172 -0.37100
F 	F 	0.89277 0.63756 0.58326 -0.41600
F 	F 	0.76659 0.61888 0.58424 -0.39700
F 	F 	0.89589 0.75834 0.61380 -0.38900
F 	F 	0.78571 0.93366 0.35259 -0.33700
F 	F 	0.11813 0.93731 0.37810 -0.34600
C 	C 	0.78084 0.69853 0.94576 0.02100
C 	C 	0.83432 0.75476 0.99334 0.07300
C 	C 	0.83647 0.71352 0.03551 -0.11100
C 	C 	0.79387 0.61733 0.02715 0.09100
C 	C 	0.74398 0.56160 0.97875 -0.01400
C 	C 	0.73392 0.60176 0.93818 -0.06000
C 	C 	0.67835 0.54266 0.88575 0.77900
H 	H 	0.77894 0.73092 0.91398 0.14300
H 	H 	0.80053 0.58585 0.05807 0.07400
C 	C 	0.88741 0.77215 0.08870 0.79000
F 	F 	0.66852 0.59290 0.85379 -0.38300
F 	F 	0.59561 0.46887 0.89112 -0.44500
F 	F 	0.71794 0.50950 0.86220 -0.43400
F 	F 	0.87387 0.83785 0.10017 -0.38900
F 	F 	0.97578 0.81648 0.09026 -0.40200
F 	F 	0.86125 0.71817 0.12643 -0.39500
F 	F 	0.74735 0.87673 0.89827 -0.41100
