data_crystal

_cell_length_a 25.68170
_cell_length_b 25.88126
_cell_length_c 30.89517
_cell_angle_alpha 95.48388
_cell_angle_beta  95.47730
_cell_angle_gamma 125.77666

_symmetry_space_group_name_	'P 1'
_symmetry_space_group_name_H-M	'P 1'

loop_
_symmetry_equiv_pos_as_xyz
  x,y,z

loop_
_atom_site_label
_atom_site_type_symbol
_atom_site_fract_x
_atom_site_fract_y
_atom_site_fract_z
_atom_site_charge
C 	C 	0.01585 0.06502 0.01036 0.03300
C 	C 	0.08217 0.09346 0.01030 -0.07800
C 	C 	0.10348 0.05441 0.00526 0.03800
C 	C 	0.05799 0.98673 0.00025 -0.08300
H 	H 	0.11692 0.14565 0.01396 0.05100
H 	H 	0.07355 0.95603 0.99522 0.05400
C 	C 	0.00944 0.99406 0.47237 0.02300
H 	H 	0.00442 0.07457 0.47479 0.05000
O 	O 	0.50343 0.21518 0.48377 -0.38300
C 	C 	0.46725 0.22778 0.46087 0.29200
O 	O 	0.48595 0.25910 0.42742 -0.39300
H 	H 	0.53008 0.22859 0.20140 0.04300
C 	C 	0.30622 0.16290 0.50674 -0.00000
C 	C 	0.24908 0.11762 0.52160 -0.06000
C 	C 	0.19031 0.10435 0.50119 0.02600
C 	C 	0.18913 0.13429 0.46582 0.00300
C 	C 	0.24450 0.17228 0.44708 -0.05700
C 	C 	0.30376 0.18754 0.46847 0.01400
S 	S 	0.37250 0.16491 0.51231 0.02400
C 	C 	0.40014 0.19703 0.46789 -0.07600
C 	C 	0.35751 0.20803 0.44711 -0.02100
S 	S 	0.11286 0.08980 0.43779 -0.01500
C 	C 	0.07894 0.03283 0.46912 0.00000
C 	C 	0.12804 0.04790 0.50350 -0.06300
H 	H 	0.24957 0.09028 0.54589 0.04600
H 	H 	0.24070 0.18562 0.41536 0.04500
H 	H 	0.36311 0.22692 0.41671 0.04100
H 	H 	0.11937 0.01914 0.52894 0.04600
C 	C 	0.26457 0.08007 0.98662 0.00400
C 	C 	0.32257 0.08589 0.99290 -0.05600
C 	C 	0.37153 0.12781 0.97021 0.01300
C 	C 	0.36411 0.16673 0.94548 0.00100
C 	C 	0.31004 0.16778 0.94498 -0.06100
C 	C 	0.25865 0.12153 0.96432 0.02500
S 	S 	0.20917 0.04956 0.01888 -0.01700
C 	C 	0.17321 0.08431 0.00443 -0.00700
C 	C 	0.20662 0.12335 0.97372 -0.05900
S 	S 	0.43792 0.22818 0.93894 0.01300
C 	C 	0.48038 0.20520 0.96368 -0.07700
C 	C 	0.43706 0.14940 0.98048 -0.02100
H 	H 	0.33022 0.06058 0.01565 0.04400
H 	H 	0.30911 0.20451 0.93163 0.04600
H 	H 	0.19264 0.15006 0.95772 0.04500
H 	H 	0.45303 0.13063 0.00395 0.04300
H 	H 	0.54038 0.18692 0.70205 0.04200
H 	H 	0.53798 0.23675 0.28212 0.02300
C 	C 	0.55147 0.24847 0.97973 0.28000
H 	H 	0.54404 0.18967 0.62282 0.03300
H 	H 	0.57264 0.21235 0.41480 0.16600
Cu	Cu	0.57368 0.30771 0.40997 0.89400
C 	C 	0.57732 0.25200 0.22239 -0.05700
O 	O 	0.58036 0.22640 0.99967 -0.36200
C 	C 	0.58117 0.22948 0.69233 -0.05900
C 	C 	0.58176 0.25645 0.26816 0.00400
H 	H 	0.99932 0.90515 0.46963 0.04900
C 	C 	0.99211 0.95831 0.00111 0.03800
C 	C 	0.97100 0.99736 0.00579 -0.07500
H 	H 	0.91951 0.97499 0.00438 0.05200
C 	C 	0.91228 0.98686 0.48045 0.02800
C 	C 	0.87806 0.92068 0.48171 -0.07200
C 	C 	0.90934 0.89094 0.47826 0.03200
C 	C 	0.97513 0.92791 0.47338 -0.06900
C 	C 	0.97793 0.02341 0.47576 -0.06000
H 	H 	0.82732 0.89248 0.48543 0.05100
Cu	Cu	0.67726 0.26999 0.00315 0.92700
Cu	Cu	0.73107 0.26964 0.91052 0.87100
Cu	Cu	0.71146 0.36850 0.94313 0.89800
Cu	Cu	0.66675 0.38393 0.02629 0.89300
C 	C 	0.68415 0.31596 0.09364 0.28400
C 	C 	0.69440 0.32153 0.84777 0.28400
O 	O 	0.72414 0.36923 0.00518 -0.64300
O 	O 	0.66994 0.27398 0.93934 -0.64100
O 	O 	0.72314 0.22866 0.00493 -0.36900
O 	O 	0.79288 0.29291 0.96156 -0.43900
O 	O 	0.65435 0.34047 0.07876 -0.38300
O 	O 	0.75639 0.46097 0.95137 -0.38100
C 	C 	0.74586 0.49487 0.97894 0.29100
O 	O 	0.58626 0.30891 0.97398 -0.38700
O 	O 	0.70179 0.46729 0.00467 -0.39300
O 	O 	0.69694 0.28381 0.06636 -0.36100
C 	C 	0.77756 0.25318 0.98952 0.28900
O 	O 	0.71598 0.37100 0.87985 -0.38700
O 	O 	0.68949 0.26998 0.85605 -0.41800
H 	H 	0.77019 0.39971 0.02077 0.16500
H 	H 	0.62489 0.24567 0.92190 0.17200
Cu	Cu	0.70059 0.31591 0.43431 0.92800
Cu	Cu	0.70350 0.25671 0.52310 0.87100
Cu	Cu	0.59739 0.26689 0.49285 0.89700
C 	C 	0.64791 0.30201 0.34423 0.28300
O 	O 	0.73252 0.40923 0.44081 -0.35900
C 	C 	0.64486 0.28102 0.58781 0.28400
O 	O 	0.59877 0.25781 0.43077 -0.63900
O 	O 	0.69397 0.31663 0.49764 -0.64100
O 	O 	0.75256 0.28152 0.43208 -0.36900
O 	O 	0.68769 0.20299 0.46986 -0.43900
O 	O 	0.62093 0.32885 0.35928 -0.38300
C 	C 	0.70251 0.42929 0.46058 0.28100
O 	O 	0.64142 0.38737 0.46454 -0.39300
O 	O 	0.69063 0.30118 0.37099 -0.35800
C 	C 	0.73110 0.22598 0.44408 0.29000
O 	O 	0.59496 0.26029 0.55594 -0.38600
O 	O 	0.69860 0.29023 0.57897 -0.41900
H 	H 	0.71913 0.36015 0.51661 0.17200
C 	C 	0.63677 0.28477 0.63419 -0.07500
C 	C 	0.58302 0.23120 0.64738 0.00500
C 	C 	0.63287 0.28159 0.72454 0.01300
C 	C 	0.68491 0.33744 0.71135 0.01200
C 	C 	0.68664 0.33867 0.66617 -0.01900
C 	C 	0.73585 0.39017 0.74355 -0.05800
C 	C 	0.73700 0.38617 0.78837 0.00400
C 	C 	0.68754 0.32925 0.80148 -0.07500
C 	C 	0.63460 0.27765 0.76963 -0.02000
H 	H 	0.72766 0.38048 0.65592 0.03700
H 	H 	0.77539 0.43369 0.73385 0.04200
H 	H 	0.77772 0.42641 0.81281 0.03400
H 	H 	0.59583 0.23409 0.77983 0.03700
C 	C 	0.68735 0.30978 0.14039 -0.06800
C 	C 	0.74754 0.33613 0.16750 0.00400
C 	C 	0.75142 0.33568 0.21296 -0.05500
C 	C 	0.69495 0.30857 0.23160 0.01400
C 	C 	0.63383 0.27942 0.20395 0.01400
C 	C 	0.63038 0.28009 0.15846 -0.01800
C 	C 	0.64266 0.28808 0.29606 -0.07000
C 	C 	0.69903 0.31239 0.27764 -0.01600
H 	H 	0.79157 0.35842 0.15358 0.03100
H 	H 	0.79844 0.35745 0.23372 0.04500
H 	H 	0.58369 0.25870 0.13725 0.04400
H 	H 	0.74612 0.33663 0.29913 0.04900
C 	C 	0.82364 0.61434 0.46754 0.00500
C 	C 	0.87327 0.68029 0.48364 -0.06200
C 	C 	0.86421 0.72483 0.46943 0.02700
C 	C 	0.80574 0.70313 0.44197 0.00300
C 	C 	0.75215 0.63750 0.43261 -0.05600
C 	C 	0.76244 0.59288 0.44480 0.01400
S 	S 	0.81380 0.55405 0.48991 0.01300
C 	C 	0.73329 0.49872 0.47120 -0.07600
C 	C 	0.71163 0.52779 0.44658 -0.02000
S 	S 	0.80108 0.76466 0.44401 -0.01500
C 	C 	0.87246 0.82075 0.47828 -0.00300
C 	C 	0.90209 0.79105 0.48965 -0.06200
H 	H 	0.91582 0.69618 0.50761 0.04600
H 	H 	0.70392 0.62210 0.41823 0.04500
H 	H 	0.66197 0.50209 0.42888 0.03300
H 	H 	0.94852 0.81592 0.51199 0.04400
C 	C 	0.87613 0.11299 0.48221 0.00300
C 	C 	0.86722 0.15962 0.49701 -0.05800
C 	C 	0.81579 0.15616 0.47314 0.01200
C 	C 	0.77158 0.10429 0.43831 0.00100
C 	C 	0.78077 0.05795 0.42309 -0.06100
C 	C 	0.83251 0.06150 0.44681 0.02600
S 	S 	0.91392 0.09111 0.51320 -0.01600
C 	C 	0.87887 0.01745 0.48277 -0.00100
C 	C 	0.83478 0.00809 0.44664 -0.06000
S 	S 	0.73145 0.12494 0.40848 0.01700
C 	C 	0.76696 0.19890 0.43858 -0.08100
C 	C 	0.81298 0.20917 0.47363 -0.02700
H 	H 	0.90031 0.19830 0.52505 0.04300
H 	H 	0.74740 0.01912 0.39521 0.04700
H 	H 	0.80659 0.96517 0.42085 0.04500
H 	H 	0.84083 0.25177 0.49969 0.02100
C 	C 	0.84275 0.77543 0.99264 0.00700
C 	C 	0.80306 0.71709 0.00775 -0.06200
C 	C 	0.78978 0.66081 0.98330 0.01900
C 	C 	0.81828 0.66416 0.94595 -0.00200
C 	C 	0.86527 0.72381 0.93489 -0.05900
C 	C 	0.87628 0.77964 0.95802 0.02400
S 	S 	0.88493 0.84866 0.02455 -0.01800
C 	C 	0.94506 0.88733 0.99583 -0.00300
C 	C 	0.93340 0.84310 0.95941 -0.06000
S 	S 	0.81655 0.59881 0.93630 0.02400
C 	C 	0.77926 0.56392 0.97753 -0.07500
C 	C 	0.76648 0.60354 0.00056 -0.02500
H 	H 	0.78670 0.71629 0.03890 0.04600
H 	H 	0.89521 0.72718 0.91123 0.04600
H 	H 	0.96611 0.85534 0.93609 0.04600
H 	H 	0.74398 0.59305 0.02958 0.04100
C 	C 	0.93100 0.14289 0.97579 0.00400
C 	C 	0.91850 0.18479 0.96103 -0.05900
C 	C 	0.86906 0.18489 0.97679 0.01400
C 	C 	0.83679 0.14717 0.00814 -0.00400
C 	C 	0.85775 0.11457 0.02848 -0.05900
C 	C 	0.90419 0.11116 0.01067 0.02400
S 	S 	0.99670 0.14598 0.97154 -0.01300
C 	C 	0.99272 0.10565 0.01213 -0.00300
C 	C 	0.93852 0.08992 0.03117 -0.06100
S 	S 	0.79749 0.17324 0.02993 0.02600
C 	C 	0.81813 0.23137 0.00005 -0.08400
C 	C 	0.85831 0.23197 0.97187 -0.02600
H 	H 	0.94711 0.21713 0.93930 0.04400
H 	H 	0.84012 0.09433 0.05750 0.04700
H 	H 	0.92300 0.06197 0.05736 0.04600
H 	H 	0.87732 0.26362 0.94793 0.03100
