data_crystal

_cell_length_a 26.72164
_cell_length_b 27.96990
_cell_length_c 29.84947
_cell_angle_alpha 61.10069
_cell_angle_beta  118.60664
_cell_angle_gamma 133.18417

_symmetry_space_group_name_	'P 1'
_symmetry_space_group_name_H-M	'P 1'

loop_
_symmetry_equiv_pos_as_xyz
  x,y,z

loop_
_atom_site_label
_atom_site_type_symbol
_atom_site_fract_x
_atom_site_fract_y
_atom_site_fract_z
_atom_site_charge
Co	Co	0.06197 0.04050 0.21812 1.18800
Co	Co	0.08117 0.89182 0.12440 1.17600
O 	O 	0.07431 0.17901 0.19532 -0.36700
O 	O 	0.05927 0.94140 0.13944 -0.74800
O 	O 	0.06281 0.82129 0.19540 -0.37800
O 	O 	0.09436 0.96487 0.05418 -0.37200
Co	Co	0.03421 0.01938 0.71123 1.19100
Co	Co	0.05156 0.87422 0.61515 1.17800
O 	O 	0.01774 0.10524 0.73832 -0.38800
C 	C 	0.06811 0.14546 0.71308 0.30400
O 	O 	0.00975 0.96161 0.78471 -0.34300
O 	O 	0.02683 0.92352 0.62722 -0.75100
C 	C 	0.04970 0.00044 0.39089 0.12300
C 	C 	0.04402 0.98263 0.44174 0.01700
H 	H 	0.04016 0.70329 0.27953 0.05400
C 	C 	0.03982 0.96375 0.01841 0.33300
O 	O 	0.04000 0.01150 0.14835 -0.56200
O 	O 	0.00265 0.98860 0.63911 -0.56000
H 	H 	0.02633 0.71763 0.75320 0.05500
O 	O 	0.08037 0.87555 0.24490 -0.38000
C 	C 	0.07635 0.01803 0.93345 0.12700
C 	C 	0.06325 0.01583 0.88276 -0.06700
H 	H 	0.10000 0.05911 0.85811 0.07200
H 	H 	0.04548 0.62582 0.78053 0.05500
O 	O 	0.07375 0.88024 0.73138 -0.38800
C 	C 	0.02669 0.96359 0.96451 -0.05700
Co	Co	0.10312 0.96849 0.19464 1.19100
C 	C 	0.12837 0.17829 0.22897 0.30000
Co	Co	0.08139 0.96443 0.67507 1.19300
H 	H 	0.09133 0.00521 0.47191 0.05300
C 	C 	0.09193 0.83983 0.23940 0.29400
O 	O 	0.12401 0.00959 0.24699 -0.45700
O 	O 	0.13956 0.13810 0.23030 -0.36400
C 	C 	0.10325 0.85761 0.73079 0.30700
O 	O 	0.11372 0.01680 0.72332 -0.46300
O 	O 	0.09036 0.12131 0.70446 -0.37900
H 	H 	0.01211 0.21774 0.67855 0.04800
C 	C 	0.09802 0.65937 0.80182 -0.05200
C 	C 	0.07753 0.74349 0.77942 -0.01800
C 	C 	0.09456 0.73964 0.29659 -0.01500
H 	H 	0.07942 0.62601 0.30899 0.05400
O 	O 	0.12105 0.87614 0.68816 -0.40100
C 	C 	0.11703 0.81205 0.77763 -0.06900
O 	O 	0.00208 0.97822 0.27363 -0.35600
C 	C 	0.06842 0.24704 0.68349 -0.01500
H 	H 	0.04312 0.32951 0.68095 0.05400
Br	Br	0.16047 0.09725 0.95835 -0.23100
O 	O 	0.13044 0.97164 0.58483 -0.37600
Br	Br	0.14156 0.06436 0.37610 -0.23900
C 	C 	0.09788 0.35041 0.68854 -0.05100
C 	C 	0.11652 0.31562 0.68595 0.02000
C 	C 	0.10247 0.21841 0.69687 -0.07400
C 	C 	0.14987 0.64930 0.81978 0.00200
C 	C 	0.11760 0.71703 0.80861 0.02200
S 	S 	0.14555 0.60101 0.79867 0.02000
C 	C 	0.13273 0.66873 0.32053 -0.05100
C 	C 	0.14589 0.72648 0.32106 0.01800
C 	C 	0.12406 0.80825 0.28576 -0.06800
S 	S 	0.14382 0.45056 0.72442 0.02100
S 	S 	0.18473 0.24352 0.30308 0.04800
O 	O 	0.18695 0.94958 0.16203 -0.39200
O 	O 	0.20185 0.03063 0.17918 -0.38300
C 	C 	0.18298 0.01602 0.61373 0.28600
O 	O 	0.17300 0.02487 0.64806 -0.37400
C 	C 	0.18756 0.33965 0.70185 0.00100
C 	C 	0.15259 0.41163 0.70362 0.00200
S 	S 	0.18947 0.27609 0.71423 0.03900
C 	C 	0.18824 0.76466 0.83014 0.00300
S 	S 	0.19963 0.83742 0.81099 0.03400
C 	C 	0.18737 0.23711 0.25141 -0.06400
C 	C 	0.22019 0.30253 0.21833 -0.01600
H 	H 	0.19847 0.33534 0.33934 0.05300
H 	H 	0.21723 0.31137 0.17783 0.05000
C 	C 	0.19076 0.66986 0.33180 0.00100
S 	S 	0.18814 0.61916 0.31517 0.01900
C 	C 	0.21182 0.35666 0.30199 -0.05400
C 	C 	0.22275 0.01298 0.16152 0.29800
C 	C 	0.22214 0.43160 0.72448 0.02700
C 	C 	0.22144 0.70017 0.83627 0.02600
C 	C 	0.22440 0.32615 0.28656 -0.00100
C 	C 	0.21682 0.41531 0.26760 0.02700
C 	C 	0.23010 0.44003 0.21822 0.00300
C 	C 	0.23940 0.35215 0.23733 0.02000
C 	C 	0.22797 0.46316 0.28322 -0.04400
H 	H 	0.23060 0.45655 0.32299 0.05300
C 	C 	0.21545 0.78465 0.32956 0.00400
S 	S 	0.21179 0.84985 0.30536 0.02700
N 	N 	0.23065 0.57008 0.78292 -0.13500
C 	C 	0.24025 0.39445 0.72529 -0.05400
C 	C 	0.22715 0.49520 0.75883 -0.01900
C 	C 	0.24156 0.75960 0.84014 -0.05500
C 	C 	0.23227 0.63936 0.81244 -0.01900
C 	C 	0.24595 0.41180 0.20372 -0.05200
S 	S 	0.25732 0.51968 0.19556 0.01400
C 	C 	0.24964 0.52507 0.24524 -0.01800
H 	H 	0.25835 0.43288 0.16599 0.05100
C 	C 	0.25235 0.06378 0.60174 -0.06600
N 	N 	0.26557 0.59811 0.28146 -0.13600
C 	C 	0.26429 0.63126 0.79029 0.12500
C 	C 	0.26169 0.56171 0.76488 0.12600
C 	C 	0.26432 0.47885 0.75522 -0.04400
C 	C 	0.26807 0.69494 0.83184 -0.04500
C 	C 	0.27224 0.78911 0.33196 -0.05700
C 	C 	0.25950 0.73011 0.33474 0.02700
C 	C 	0.27337 0.66886 0.31441 -0.01900
H 	H 	0.27098 0.99338 0.61225 0.04900
C 	C 	0.29100 0.58973 0.25788 0.12600
H 	H 	0.29227 0.40585 0.74540 0.05200
S 	S 	0.28217 0.14279 0.56515 0.03300
C 	C 	0.28236 0.04316 0.59398 -0.03000
C 	C 	0.29486 0.06035 0.15442 -0.07000
H 	H 	0.29919 0.15196 0.10686 0.05200
C 	C 	0.30150 0.65970 0.28930 0.12500
H 	H 	0.29666 0.80194 0.84758 0.05100
C 	C 	0.30620 0.72992 0.32461 -0.04600
C 	C 	0.31993 0.12412 0.11885 -0.01700
N 	N 	0.32549 0.61482 0.75315 -0.13900
H 	H 	0.32006 0.50177 0.77266 0.05300
H 	H 	0.32436 0.73410 0.83655 0.05300
H 	H 	0.32343 0.83733 0.32892 0.05200
C 	C 	0.32880 0.09398 0.55969 0.02500
N 	N 	0.32874 0.68411 0.77906 -0.13800
C 	C 	0.33301 0.15346 0.53927 0.00500
S 	S 	0.33818 0.03405 0.15907 0.02600
N 	N 	0.35220 0.64287 0.24217 -0.13900
N 	N 	0.36351 0.71257 0.27416 -0.13800
C 	C 	0.35881 0.67604 0.75978 0.12600
H 	H 	0.35841 0.77464 0.31889 0.05300
C 	C 	0.37312 0.14676 0.09857 0.02300
C 	C 	0.38173 0.09509 0.55895 -0.05400
H 	H 	0.37895 0.04963 0.57418 0.04900
C 	C 	0.38869 0.70418 0.25035 0.12600
C 	C 	0.38767 0.09995 0.11707 0.00300
H 	H 	0.39923 0.72129 0.66826 0.05200
C 	C 	0.39229 0.21611 0.52171 -0.05400
H 	H 	0.39668 0.26218 0.50820 0.05200
H 	H 	0.40887 0.25064 0.05902 0.05400
C 	C 	0.00094 0.95977 0.86264 -0.00600
C 	C 	0.42032 0.21431 0.07472 -0.05100
C 	C 	0.42704 0.73326 0.74589 -0.02000
O 	O 	0.00131 0.05290 0.17218 -0.74600
H 	H 	0.43475 0.72374 0.17154 0.05300
O 	O 	0.98239 0.86529 0.54137 -0.41300
C 	C 	0.96603 0.90626 0.94532 -0.06000
C 	C 	0.95350 0.90370 0.89501 0.08900
Br	Br	0.87257 0.82231 0.87187 -0.24000
H 	H 	0.92895 0.86322 0.96979 0.06600
C 	C 	0.73399 0.32850 0.01228 0.12200
N 	N 	0.66670 0.28925 0.01677 -0.14100
C 	C 	0.64289 0.31551 0.02250 0.12500
N 	N 	0.68633 0.38147 0.02329 -0.13800
C 	C 	0.75392 0.42087 0.01952 0.12400
N 	N 	0.77804 0.39435 0.01432 -0.13900
C 	C 	0.71468 0.32738 0.48993 0.12100
N 	N 	0.64380 0.28421 0.48583 -0.13800
C 	C 	0.61084 0.30261 0.48998 0.12500
N 	N 	0.64860 0.36463 0.49731 -0.13900
C 	C 	0.71936 0.40757 0.50227 0.12400
N 	N 	0.75269 0.38888 0.49893 -0.13800
Co	Co	0.94086 0.00024 0.13245 1.17100
Co	Co	0.98298 0.93217 0.10541 1.17800
Co	Co	0.97173 0.09342 0.19017 1.15500
O 	O 	0.90595 0.93976 0.09022 -0.46700
C 	C 	0.90682 0.10297 0.07510 0.29500
C 	C 	0.99212 0.00134 0.29580 0.26500
C 	C 	0.92552 0.79535 0.10986 0.30300
O 	O 	0.95192 0.13759 0.11130 -0.39500
O 	O 	0.91226 0.06186 0.07072 -0.38700
O 	O 	0.99551 0.05700 0.27171 -0.40500
O 	O 	0.97706 0.82721 0.08832 -0.42000
O 	O 	0.92474 0.82788 0.12963 -0.40300
C 	C 	0.84370 0.94737 0.19441 0.31100
O 	O 	0.86563 0.01021 0.18201 -0.41700
O 	O 	0.87239 0.93238 0.18232 -0.40800
O 	O 	0.99458 0.95974 0.03027 -0.39900
Co	Co	0.89974 0.96342 0.63356 1.18900
Co	Co	0.94615 0.90665 0.59893 1.17700
Co	Co	0.91650 0.02933 0.70792 1.15800
C 	C 	0.97385 0.91287 0.50886 0.32700
O 	O 	0.95566 0.00753 0.67935 -0.79100
O 	O 	0.86878 0.91395 0.58349 -0.46200
C 	C 	0.88968 0.08222 0.58936 0.29200
C 	C 	0.97935 0.96601 0.80558 0.23700
C 	C 	0.90507 0.76509 0.62975 0.29700
O 	O 	0.91713 0.09642 0.63548 -0.40200
O 	O 	0.86291 0.02277 0.58529 -0.38500
O 	O 	0.92078 0.96136 0.77875 -0.36700
O 	O 	0.96954 0.78179 0.64708 -0.40700
O 	O 	0.89205 0.80261 0.63054 -0.39200
C 	C 	0.79221 0.89187 0.69044 0.30600
O 	O 	0.81180 0.95281 0.68179 -0.39200
O 	O 	0.82925 0.88415 0.68088 -0.39200
O 	O 	0.95404 0.93481 0.52306 -0.38600
C 	C 	0.92245 0.92206 0.36416 -0.05100
C 	C 	0.98853 0.97128 0.35144 -0.08300
C 	C 	0.97771 0.93546 0.45393 -0.13000
C 	C 	0.91668 0.90441 0.41502 0.13900
Br	Br	0.82505 0.83822 0.43039 -0.25200
H 	H 	0.87538 0.89849 0.33429 0.06200
C 	C 	0.55471 0.78828 0.75619 0.00200
C 	C 	0.61734 0.79363 0.77711 -0.05400
C 	C 	0.63986 0.79045 0.74535 0.02100
C 	C 	0.59720 0.77630 0.69593 0.00200
C 	C 	0.53471 0.77121 0.67494 -0.05500
C 	C 	0.51244 0.77491 0.70651 0.02600
S 	S 	0.50291 0.75973 0.79180 0.01100
C 	C 	0.44079 0.74452 0.70049 -0.04500
S 	S 	0.64879 0.80492 0.66018 0.03400
C 	C 	0.72523 0.83292 0.70542 -0.06900
C 	C 	0.71174 0.82193 0.75085 -0.01700
H 	H 	0.64877 0.80237 0.81602 0.05300
H 	H 	0.50333 0.76254 0.63601 0.05100
H 	H 	0.75343 0.84658 0.78238 0.05600
C 	C 	0.58463 0.83912 0.23863 0.00200
C 	C 	0.65548 0.86367 0.26228 -0.05200
C 	C 	0.68774 0.85550 0.24348 0.02100
C 	C 	0.64814 0.81863 0.20534 0.00200
C 	C 	0.57795 0.79560 0.18076 -0.05600
C 	C 	0.54555 0.80403 0.19921 0.02600
S 	S 	0.52838 0.81389 0.26841 0.01500
C 	C 	0.45347 0.76192 0.23113 -0.02000
C 	C 	0.47177 0.76116 0.19459 -0.04500
S 	S 	0.70376 0.83956 0.17759 0.03100
C 	C 	0.77910 0.89246 0.21390 -0.07800
C 	C 	0.76154 0.89759 0.24812 -0.01500
H 	H 	0.68485 0.88957 0.29333 0.05600
H 	H 	0.54862 0.76947 0.14988 0.05000
H 	H 	0.79892 0.93731 0.26898 0.04400
C 	C 	0.79861 0.17026 0.49245 -0.00000
C 	C 	0.74330 0.17185 0.48403 -0.05900
C 	C 	0.76056 0.22561 0.49494 0.02500
C 	C 	0.83008 0.27381 0.51611 -0.00100
C 	C 	0.88583 0.27384 0.52349 -0.05600
C 	C 	0.86901 0.21921 0.51383 0.01300
S 	S 	0.79038 0.09942 0.51010 0.02700
C 	C 	0.87366 0.12699 0.54298 -0.07700
C 	C 	0.91125 0.19519 0.54133 -0.02200
S 	S 	0.83577 0.33850 0.51264 -0.00100
C 	C 	0.75010 0.30713 0.48522 -0.01700
C 	C 	0.71474 0.24342 0.47805 -0.04900
H 	H 	0.68895 0.13232 0.47007 0.04900
H 	H 	0.93960 0.31184 0.53992 0.04000
H 	H 	0.96275 0.22210 0.56692 0.03600
H 	H 	0.65846 0.21099 0.46230 0.05200
C 	C 	0.74845 0.54629 0.52825 0.00400
C 	C 	0.75660 0.60316 0.52411 -0.05600
C 	C 	0.77855 0.61932 0.57106 0.02400
C 	C 	0.79678 0.58215 0.61968 0.00000
C 	C 	0.79917 0.53228 0.62223 -0.05800
C 	C 	0.77213 0.51320 0.57570 0.02400
S 	S 	0.73883 0.52552 0.47984 0.01000
C 	C 	0.75986 0.47070 0.51661 -0.02100
C 	C 	0.77899 0.47085 0.56956 -0.04700
S 	S 	0.84833 0.62988 0.66239 0.02000
C 	C 	0.84610 0.69634 0.62316 -0.06800
C 	C 	0.80594 0.68333 0.57312 -0.02600
H 	H 	0.74843 0.63473 0.48608 0.05900
H 	H 	0.82346 0.51117 0.65843 0.04500
H 	H 	0.79009 0.43650 0.60240 0.04600
H 	H 	0.80677 0.72245 0.53813 0.05900
C 	C 	0.44518 0.21687 0.52163 0.02700
C 	C 	0.44092 0.15791 0.54190 0.00200
S 	S 	0.50096 0.17173 0.52444 0.01000
C 	C 	0.53613 0.25334 0.49199 -0.01800
C 	C 	0.49886 0.27099 0.49374 -0.04400
H 	H 	0.51227 0.32154 0.47783 0.05300
C 	C 	0.77809 0.15281 0.99283 0.00600
C 	C 	0.73071 0.15657 0.99671 -0.05800
C 	C 	0.74971 0.22071 0.98767 0.02800
C 	C 	0.81573 0.27924 0.97691 -0.00100
C 	C 	0.86675 0.27477 0.98064 -0.05500
C 	C 	0.84675 0.21072 0.98749 0.01600
S 	S 	0.78116 0.08672 0.02410 0.01000
C 	C 	0.86639 0.12669 0.02989 -0.07100
C 	C 	0.89618 0.19598 0.00796 -0.02200
S 	S 	0.83396 0.34206 0.98999 0.00700
C 	C 	0.76000 0.29828 0.00868 -0.02200
C 	C 	0.71774 0.23169 0.00471 -0.05000
H 	H 	0.68315 0.11118 0.01010 0.04600
H 	H 	0.92120 0.31873 0.98179 0.04500
H 	H 	0.95268 0.23473 0.01473 0.04200
H 	H 	0.66767 0.19203 0.01599 0.05000
C 	C 	0.82084 0.59236 0.02420 0.00100
C 	C 	0.80216 0.63211 0.01697 -0.05600
C 	C 	0.81303 0.64583 0.06154 0.01900
C 	C 	0.83475 0.61411 0.11215 0.00200
C 	C 	0.85151 0.57271 0.11925 -0.05900
C 	C 	0.84255 0.56075 0.07452 0.02300
S 	S 	0.78721 0.54807 0.98293 0.02300
C 	C 	0.80198 0.49005 0.02557 -0.02500
C 	C 	0.83247 0.50345 0.07543 -0.04500
S 	S 	0.87587 0.66339 0.15159 0.01500
C 	C 	0.86696 0.72484 0.10825 -0.07500
C 	C 	0.82948 0.70690 0.05968 -0.01800
H 	H 	0.78385 0.65500 0.97780 0.06200
H 	H 	0.87044 0.55021 0.15832 0.04400
H 	H 	0.83530 0.46696 0.11156 0.04500
H 	H 	0.82742 0.74297 0.02285 0.04500
C 	C 	0.48416 0.23387 0.07381 0.00100
C 	C 	0.45124 0.11934 0.11616 -0.05700
C 	C 	0.49809 0.18655 0.09190 0.02600
S 	S 	0.53287 0.29920 0.03078 0.01600
C 	C 	0.57341 0.27087 0.03397 -0.02100
C 	C 	0.54894 0.20768 0.07003 -0.04600
H 	H 	0.46240 0.08285 0.13161 0.04800
H 	H 	0.56751 0.17844 0.08048 0.04800
