data_crystal

_cell_length_a 26.17755
_cell_length_b 26.47763
_cell_length_c 23.34275
_cell_angle_alpha 95.50369
_cell_angle_beta  95.50398
_cell_angle_gamma 125.85736

_symmetry_space_group_name_	'P 1'
_symmetry_space_group_name_H-M	'P 1'

loop_
_symmetry_equiv_pos_as_xyz
  x,y,z

loop_
_atom_site_label
_atom_site_type_symbol
_atom_site_fract_x
_atom_site_fract_y
_atom_site_fract_z
_atom_site_charge
C 	C 	0.11218 0.03427 0.50556 -0.07200
C 	C 	0.07766 0.01722 0.44858 -0.01100
H 	H 	0.08693 0.02189 0.54201 0.04400
C 	C 	0.07374 0.01415 0.33911 -0.16800
H 	H 	0.14874 0.03837 0.10521 0.06200
C 	C 	0.11017 0.03298 0.40085 0.04000
H 	H 	0.10586 0.02805 0.30654 0.05500
C 	C 	0.09070 0.06488 0.00539 0.04700
C 	C 	0.06104 0.09456 0.01276 -0.10000
H 	H 	0.00638 0.06038 0.43614 0.03700
C 	C 	0.17887 0.06622 0.51558 0.04800
C 	C 	0.17701 0.06618 0.41103 -0.06600
H 	H 	0.18207 0.06280 0.60868 0.05900
H 	H 	0.05015 0.03776 0.33512 0.05900
C 	C 	0.17835 0.09092 0.11195 -0.18500
H 	H 	0.20232 0.07898 0.37463 0.04200
C 	C 	0.21142 0.08237 0.46788 -0.01900
C 	C 	0.21504 0.08323 0.57706 -0.18200
C 	C 	0.16039 0.10314 0.00689 -0.04500
H 	H 	0.14889 0.10645 0.12403 0.06200
H 	H 	0.02299 0.10923 0.13212 0.05800
C 	C 	0.20250 0.11279 0.05660 0.05400
H 	H 	0.21859 0.11106 0.14942 0.05900
H 	H 	0.15170 0.11870 0.91871 0.03900
C 	C 	0.18417 0.12585 0.95660 -0.05100
C 	C 	0.99452 0.05790 0.01012 0.04900
C 	C 	0.97739 0.00930 0.43256 -0.04900
C 	C 	0.87501 0.02510 0.36341 -0.06700
C 	C 	0.87913 0.00477 0.41583 -0.02000
C 	C 	0.85687 0.01789 0.46370 0.05800
H 	H 	0.89253 0.01526 0.32691 0.04200
C 	C 	0.68929 0.01059 0.37463 -0.13800
H 	H 	0.84471 0.01347 0.55464 0.06600
H 	H 	0.91133 0.01565 0.53762 0.07300
C 	C 	0.26683 0.01356 0.44941 -0.13700
C 	C 	0.75841 0.06027 0.01343 -0.18300
H 	H 	0.94408 0.03382 0.11960 0.06100
H 	H 	0.70628 0.03615 0.01154 0.05700
H 	H 	0.77581 0.04788 0.05088 0.06300
H 	H 	0.76474 0.04180 0.97209 0.06700
C 	C 	0.83106 0.05147 0.45839 -0.07400
C 	C 	0.82780 0.07261 0.40630 -0.01500
C 	C 	0.84941 0.05893 0.35820 0.04400
H 	H 	0.81410 0.06184 0.49507 0.04300
H 	H 	0.79737 0.06572 0.28560 0.06500
H 	H 	0.86072 0.06290 0.26707 0.05900
H 	H 	0.24358 0.06460 0.57868 0.06400
C 	C 	0.96307 0.08903 0.01644 -0.04300
C 	C 	0.97064 0.08601 0.12514 -0.17900
H 	H 	0.41056 0.09520 0.91295 0.06300
C 	C 	0.84683 0.08171 0.30195 -0.18100
C 	C 	0.73722 0.08178 0.39140 0.01000
C 	C 	0.30882 0.08498 0.46545 0.00900
C 	C 	0.95065 0.10221 0.07133 0.05200
H 	H 	0.95475 0.09502 0.92507 0.04100
H 	H 	0.33683 0.10430 0.95561 0.04900
H 	H 	0.96047 0.10231 0.16516 0.05800
H 	H 	0.66435 0.09653 0.39114 0.03200
H 	H 	0.39550 0.09576 0.45440 0.02800
C 	C 	0.94464 0.10483 0.96698 -0.05200
C 	C 	0.80374 0.11111 0.40340 0.01200
C 	C 	0.71546 0.11912 0.39799 -0.00700
C 	C 	0.28186 0.11719 0.47708 0.01600
H 	H 	0.84072 0.12294 0.90762 0.06000
H 	H 	0.47566 0.12557 0.97305 0.07700
C 	C 	0.37506 0.12006 0.46637 -0.00900
H 	H 	0.71028 0.12703 0.00510 0.02900
C 	C 	0.91860 0.12987 0.07555 -0.07200
C 	C 	0.79543 0.13130 0.02113 0.02000
C 	C 	0.91288 0.13272 0.97122 0.05100
H 	H 	0.88028 0.13434 0.30973 0.06400
C 	C 	0.05379 0.99857 0.99511 -0.09500
H 	H 	0.08955 0.14591 0.02051 0.04900
H 	H 	0.07677 0.97562 0.98947 0.05100
C 	C 	0.00711 0.97955 0.43888 0.00400
H 	H 	0.03665 0.96189 0.32794 0.05200
H 	H 	0.00662 0.91731 0.87665 0.05700
H 	H 	0.23810 0.99780 0.40457 0.04700
C 	C 	0.86095 0.99657 0.52052 -0.20700
H 	H 	0.29580 0.99538 0.45039 0.04300
H 	H 	0.64018 0.99575 0.35867 0.04400
H 	H 	0.23395 0.99222 0.48094 0.04700
H 	H 	0.70255 0.99205 0.33891 0.04800
H 	H 	0.68818 0.98880 0.41328 0.04700
C 	C 	0.98726 0.96182 0.99186 0.05000
C 	C 	0.95763 0.99150 0.99949 -0.09000
H 	H 	0.90612 0.96308 0.99707 0.05000
C 	C 	0.91022 0.97306 0.42137 0.01600
C 	C 	0.96969 0.91372 0.43517 -0.06900
C 	C 	0.90258 0.87720 0.42341 0.03100
C 	C 	0.87280 0.90686 0.41624 -0.07700
H 	H 	0.99274 0.89083 0.44076 0.04500
H 	H 	0.82086 0.87870 0.40732 0.04400
Cu	Cu	0.67224 0.27886 0.01934 0.92400
Cu	Cu	0.71285 0.25718 0.89633 0.86800
Cu	Cu	0.70662 0.36476 0.92835 0.89800
Cu	Cu	0.68289 0.40428 0.04369 0.88900
C 	C 	0.68053 0.33118 0.13540 0.28400
O 	O 	0.58010 0.24441 0.02051 -0.38500
C 	C 	0.68105 0.30301 0.80481 0.28000
O 	O 	0.72664 0.37520 0.01179 -0.64400
O 	O 	0.65937 0.27297 0.93340 -0.63800
O 	O 	0.70887 0.23120 0.02548 -0.37700
O 	O 	0.77602 0.28240 0.96279 -0.43800
O 	O 	0.69037 0.38369 0.12309 -0.38500
O 	O 	0.75749 0.45520 0.92967 -0.38300
C 	C 	0.75495 0.49524 0.96528 0.29700
C 	C 	0.55590 0.27200 0.99984 0.30300
O 	O 	0.59358 0.32781 0.98573 -0.39200
O 	O 	0.71230 0.47511 0.99995 -0.39400
O 	O 	0.69606 0.30042 0.10270 -0.36200
C 	C 	0.76077 0.24915 0.00468 0.28700
O 	O 	0.70011 0.35440 0.84219 -0.38100
O 	O 	0.67077 0.25269 0.82274 -0.42100
H 	H 	0.77320 0.40170 0.02810 0.15900
H 	H 	0.61398 0.24635 0.91307 0.17000
Cu	Cu	0.70019 0.30557 0.41424 0.92600
Cu	Cu	0.72620 0.27069 0.53949 0.86700
Cu	Cu	0.61437 0.27240 0.50627 0.89600
Cu	Cu	0.57102 0.29164 0.38989 0.89300
C 	C 	0.64471 0.29439 0.29823 0.28300
O 	O 	0.73332 0.39609 0.41127 -0.37500
C 	C 	0.67859 0.30135 0.63000 0.28000
O 	O 	0.60298 0.25098 0.42298 -0.63800
O 	O 	0.70720 0.32041 0.50034 -0.64200
O 	O 	0.74942 0.27003 0.40830 -0.37600
O 	O 	0.70130 0.20711 0.47456 -0.44600
O 	O 	0.59060 0.28220 0.31042 -0.38300
O 	O 	0.52298 0.22059 0.50580 -0.38500
C 	C 	0.48135 0.22235 0.47107 0.29900
C 	C 	0.70411 0.41931 0.43019 0.29400
O 	O 	0.64825 0.38197 0.44541 -0.39500
O 	O 	0.49984 0.26254 0.43448 -0.40200
O 	O 	0.67737 0.28060 0.33092 -0.36000
C 	C 	0.73488 0.22154 0.43269 0.29700
O 	O 	0.62591 0.28072 0.59268 -0.38200
O 	O 	0.73015 0.31346 0.61195 -0.42200
H 	H 	0.57688 0.20480 0.40764 0.16400
H 	H 	0.73329 0.36562 0.51950 0.16900
C 	C 	0.67807 0.30443 0.74331 -0.05300
C 	C 	0.67737 0.30399 0.69152 -0.05400
C 	C 	0.65827 0.30647 0.24090 -0.04200
C 	C 	0.66888 0.31740 0.19273 -0.04300
C 	C 	0.81875 0.59916 0.45395 -0.09700
C 	C 	0.77972 0.61256 0.42492 0.01000
C 	C 	0.71578 0.56251 0.39797 0.01700
C 	C 	0.69208 0.49962 0.39989 -0.01200
C 	C 	0.73094 0.48609 0.42911 -0.11500
C 	C 	0.79447 0.53634 0.45742 0.09900
C 	C 	0.80634 0.67934 0.42283 -0.01500
C 	C 	0.67305 0.57593 0.36646 -0.16700
H 	H 	0.64335 0.46101 0.37830 0.02400
C 	C 	0.83648 0.52343 0.49126 -0.20100
H 	H 	0.86786 0.63780 0.47450 0.05000
C 	C 	0.80787 0.71809 0.47007 0.04200
C 	C 	0.83706 0.78231 0.46849 -0.06500
C 	C 	0.86360 0.80785 0.42004 -0.02700
C 	C 	0.85826 0.76805 0.37119 0.04900
C 	C 	0.83097 0.70438 0.37357 -0.07200
C 	C 	0.78045 0.69173 0.52296 -0.18000
H 	H 	0.84069 0.81289 0.50564 0.04000
C 	C 	0.88387 0.79383 0.31749 -0.18200
H 	H 	0.82902 0.67426 0.33713 0.04300
H 	H 	0.88030 0.56769 0.51845 0.06200
H 	H 	0.85167 0.50222 0.46037 0.07300
H 	H 	0.81014 0.49053 0.52133 0.06200
H 	H 	0.69195 0.59637 0.32749 0.05900
H 	H 	0.67118 0.60996 0.39615 0.05800
H 	H 	0.62313 0.53214 0.35140 0.05400
H 	H 	0.77970 0.72617 0.55333 0.05700
H 	H 	0.80997 0.68029 0.54721 0.06300
H 	H 	0.73031 0.64804 0.50918 0.06200
H 	H 	0.93704 0.82273 0.32656 0.06100
H 	H 	0.86939 0.82376 0.30485 0.06100
H 	H 	0.86487 0.75499 0.27946 0.05700
C 	C 	0.75918 0.18526 0.41555 -0.11800
C 	C 	0.82589 0.21488 0.42406 0.09300
C 	C 	0.84755 0.17742 0.41770 -0.09800
C 	C 	0.87406 0.28603 0.44153 -0.19800
H 	H 	0.89861 0.19976 0.42572 0.04900
H 	H 	0.83007 0.94394 0.51326 0.06500
H 	H 	0.86614 0.30312 0.48265 0.04800
H 	H 	0.86929 0.30892 0.40609 0.07700
H 	H 	0.92414 0.30130 0.44932 0.06100
C 	C 	0.32193 0.18339 0.49414 -0.10200
C 	C 	0.41460 0.18651 0.48020 -0.11400
C 	C 	0.38845 0.21823 0.49757 0.10400
C 	C 	0.43082 0.28922 0.51797 -0.20400
H 	H 	0.30118 0.20785 0.50411 0.05000
H 	H 	0.47606 0.30546 0.54673 0.07500
H 	H 	0.40671 0.30414 0.54372 0.06400
H 	H 	0.44226 0.31301 0.47949 0.07400
H 	H 	0.24776 0.13560 0.59136 0.06300
C 	C 	0.88815 0.66866 0.97111 -0.09100
C 	C 	0.85240 0.69123 0.95772 0.00500
C 	C 	0.78514 0.64808 0.93969 0.02300
C 	C 	0.75418 0.58330 0.93932 -0.01400
C 	C 	0.78949 0.56120 0.95656 -0.10600
C 	C 	0.85716 0.60384 0.97102 0.09000
C 	C 	0.88530 0.76041 0.96642 -0.00100
C 	C 	0.74610 0.67120 0.92282 -0.17000
H 	H 	0.70232 0.55019 0.92718 0.03700
C 	C 	0.89622 0.58083 0.98823 -0.18500
H 	H 	0.93996 0.70193 0.98367 0.05000
C 	C 	0.89688 0.79527 0.02205 0.03000
C 	C 	0.92902 0.86102 0.02933 -0.07200
C 	C 	0.94881 0.89206 0.98176 -0.02300
C 	C 	0.93492 0.85679 0.92564 0.05000
C 	C 	0.90455 0.79135 0.91873 -0.07500
C 	C 	0.87616 0.76273 0.07385 -0.17500
H 	H 	0.93951 0.88829 0.07224 0.03900
C 	C 	0.95383 0.88894 0.87344 -0.17700
H 	H 	0.89532 0.76430 0.87610 0.04500
H 	H 	0.94846 0.62027 0.99889 0.06100
H 	H 	0.88799 0.54545 0.95152 0.06900
H 	H 	0.88225 0.55870 0.02749 0.04800
H 	H 	0.76336 0.69777 0.88652 0.06100
H 	H 	0.75059 0.70279 0.96110 0.06200
H 	H 	0.69440 0.63127 0.90775 0.05800
H 	H 	0.88548 0.79596 0.11337 0.05500
H 	H 	0.90293 0.74327 0.08453 0.05800
H 	H 	0.82390 0.72348 0.06365 0.05700
H 	H 	0.93030 0.85385 0.83165 0.05800
H 	H 	0.93916 0.92061 0.87160 0.06200
C 	C 	0.89903 0.14448 0.02580 -0.02400
C 	C 	0.86317 0.17134 0.03093 0.00900
C 	C 	0.89364 0.14961 0.91749 -0.18100
H 	H 	0.90817 0.13936 0.11739 0.04300
C 	C 	0.76229 0.15781 0.01594 -0.01900
C 	C 	0.79599 0.22366 0.02154 -0.11700
C 	C 	0.86366 0.26397 0.03774 0.09700
C 	C 	0.89680 0.23736 0.04128 -0.10000
C 	C 	0.90083 0.33513 0.04930 -0.20100
H 	H 	0.94885 0.26798 0.05036 0.04900
H 	H 	0.91681 0.20130 0.92499 0.06400
H 	H 	0.90841 0.13786 0.87837 0.05800
H 	H 	0.94957 0.35881 0.07549 0.06200
H 	H 	0.87603 0.34955 0.07451 0.07000
H 	H 	0.90587 0.35214 0.00707 0.06400
C 	C 	0.37451 0.15378 0.97455 -0.08100
C 	C 	0.35853 0.19141 0.00088 -0.00400
C 	C 	0.40722 0.25590 0.02547 0.02400
C 	C 	0.47152 0.28138 0.02469 -0.02800
C 	C 	0.48768 0.24378 0.99857 -0.10100
C 	C 	0.43865 0.17986 0.97180 0.09400
C 	C 	0.29055 0.16267 0.00299 -0.02000
C 	C 	0.39093 0.29728 0.05359 -0.17000
H 	H 	0.50919 0.33045 0.04498 0.02600
C 	C 	0.45424 0.13927 0.94051 -0.19900
C 	C 	0.24922 0.15622 0.95444 0.04900
C 	C 	0.26706 0.14127 0.05377 -0.07500
C 	C 	0.27387 0.18001 0.89981 -0.18200
H 	H 	0.29915 0.14686 0.09109 0.04400
H 	H 	0.48835 0.16541 0.91107 0.06300
H 	H 	0.37184 0.28092 0.09380 0.06000
H 	H 	0.35438 0.29501 0.02264 0.05700
H 	H 	0.43369 0.34776 0.06604 0.05400
H 	H 	0.23718 0.17687 0.86813 0.05900
H 	H 	0.28714 0.15119 0.87797 0.06400
H 	H 	0.31664 0.23052 0.91111 0.06600
