data_crystal

_cell_length_a 20.56790
_cell_length_b 21.31680
_cell_length_c 31.37716
_cell_angle_alpha 60.79017
_cell_angle_beta  118.90480
_cell_angle_gamma 133.18815

_symmetry_space_group_name_	'P 1'
_symmetry_space_group_name_H-M	'P 1'

loop_
_symmetry_equiv_pos_as_xyz
  x,y,z

loop_
_atom_site_label
_atom_site_type_symbol
_atom_site_fract_x
_atom_site_fract_y
_atom_site_fract_z
_atom_site_charge
Co	Co	0.01687 0.09885 0.09467 1.16800
C 	C 	0.01252 0.99688 0.76716 0.31600
O 	O 	0.03216 0.98882 0.12207 -0.56900
O 	O 	0.00821 0.99759 0.97961 -0.35400
Co	Co	0.00523 0.84935 0.63916 1.17400
O 	O 	0.01350 0.06583 0.73453 -0.43700
C 	C 	0.01932 0.98096 0.82100 -0.05100
O 	O 	0.01160 0.94584 0.75313 -0.38400
O 	O 	0.01793 0.74824 0.59865 -0.42700
O 	O 	0.01538 0.75591 0.09693 -0.43000
Co	Co	0.00400 0.85955 0.13307 1.17700
O 	O 	0.03828 0.10231 0.53877 -0.48900
O 	O 	0.04173 0.91156 0.58458 -0.74500
H 	H 	0.02517 0.55691 0.15928 0.08100
O 	O 	0.05932 0.92894 0.08563 -0.74600
Co	Co	0.07023 0.02494 0.05221 1.15800
O 	O 	0.06547 0.12528 0.04001 -0.48600
O 	O 	0.06025 0.15876 0.19301 -0.41200
Co	Co	0.04889 0.00601 0.55143 1.15700
C 	C 	0.06943 0.04507 0.88743 -0.05600
C 	C 	0.07832 0.05389 0.84254 -0.04100
C 	C 	0.04083 0.02779 0.33569 -0.07100
C 	C 	0.03884 0.02223 0.38193 -0.07100
H 	H 	0.05733 0.66593 0.69025 0.04500
H 	H 	0.02199 0.52822 0.69656 0.08000
H 	H 	0.07976 0.40876 0.06074 0.07900
H 	H 	0.05222 0.66561 0.18300 0.04900
C 	C 	0.07313 0.21949 0.63665 0.28800
H 	H 	0.09522 0.32949 0.06997 0.09200
Co	Co	0.10461 0.88763 0.06433 1.17500
O 	O 	0.09985 0.83153 0.18494 -0.38200
Co	Co	0.09626 0.88045 0.56214 1.17300
H 	H 	0.08295 0.09238 0.31252 0.03900
H 	H 	0.08357 0.08190 0.39494 0.04200
N 	N 	0.10241 0.36869 0.08494 -0.20100
O 	O 	0.09222 0.18406 0.62337 -0.40400
N 	N 	0.09581 0.59067 0.16625 -0.19400
C 	C 	0.00893 0.94711 0.96593 0.27500
O 	O 	0.12086 0.84884 0.68569 -0.38900
C 	C 	0.11394 0.22446 0.16161 0.29900
O 	O 	0.11826 0.21038 0.12596 -0.38700
H 	H 	0.11679 0.10156 0.90365 0.04000
N 	N 	0.09191 0.55653 0.70663 -0.19400
C 	C 	0.12480 0.69503 0.19454 -0.03400
H 	H 	0.11828 0.58164 0.14758 0.08900
H 	H 	0.11186 0.51403 0.72591 0.09000
H 	H 	0.13037 0.11792 0.82415 0.03700
C 	C 	0.14274 0.31034 0.64426 -0.10200
H 	H 	0.13790 0.37557 0.56575 0.03700
C 	C 	0.12904 0.69577 0.69707 -0.03200
C 	C 	0.14622 0.37312 0.13361 0.11600
H 	H 	0.14897 0.48219 0.12398 0.04900
O 	O 	0.00550 0.87660 0.99826 -0.38700
C 	C 	0.00222 0.96293 0.91214 -0.03100
C 	C 	0.16366 0.84322 0.17444 0.30000
C 	C 	0.15207 0.38121 0.60223 -0.03000
H 	H 	0.15612 0.51352 0.52870 0.08000
C 	C 	0.15501 0.64535 0.70219 0.07800
C 	C 	0.15551 0.65591 0.19116 0.07700
O 	O 	0.99969 0.98767 0.47737 -0.33100
O 	O 	0.98847 0.18036 0.63567 -0.39200
Co	Co	0.98804 0.07246 0.59356 1.18000
O 	O 	0.98721 0.93589 0.24553 -0.36200
C 	C 	0.98533 0.95091 0.31827 -0.00200
H 	H 	0.99037 0.34856 0.52036 0.09200
C 	C 	0.99181 0.93008 0.46495 0.26900
H 	H 	0.96902 0.24894 0.52495 0.09800
C 	C 	0.96200 0.96033 0.26322 0.28100
O 	O 	0.99047 0.86175 0.49914 -0.37900
N 	N 	0.18152 0.26375 0.73428 -0.20200
H 	H 	0.19889 0.27054 0.76980 0.08200
H 	H 	0.17924 0.21496 0.73201 0.09400
C 	C 	0.72224 0.30238 0.01030 0.11600
N 	N 	0.63072 0.25360 0.00626 -0.14600
C 	C 	0.59808 0.28415 0.01404 0.12300
N 	N 	0.65542 0.36522 0.02287 -0.14100
C 	C 	0.74645 0.41371 0.02823 0.11900
N 	N 	0.78099 0.38146 0.02345 -0.14200
C 	C 	0.70391 0.27498 0.52465 0.11700
N 	N 	0.61640 0.22504 0.52861 -0.14400
C 	C 	0.58837 0.26084 0.53536 0.12400
N 	N 	0.64828 0.34440 0.54093 -0.14100
C 	C 	0.73680 0.39280 0.54057 0.12300
N 	N 	0.76521 0.35874 0.53207 -0.14200
C 	C 	0.28946 0.65838 0.20383 0.11900
N 	N 	0.37452 0.71684 0.19461 -0.14200
C 	C 	0.41272 0.68734 0.19143 0.12600
N 	N 	0.36629 0.60006 0.19699 -0.14100
C 	C 	0.28062 0.54155 0.20443 0.12300
N 	N 	0.24275 0.56997 0.20948 -0.14300
C 	C 	0.27936 0.65455 0.69324 0.11900
N 	N 	0.21888 0.57676 0.67846 -0.14200
C 	C 	0.24871 0.55390 0.66146 0.12100
N 	N 	0.33658 0.60953 0.65772 -0.14100
C 	C 	0.39686 0.68477 0.67356 0.12600
N 	N 	0.36872 0.70678 0.69177 -0.14100
Co	Co	0.93745 0.92725 0.16984 1.19400
C 	C 	0.24615 0.08350 0.04551 0.31900
Co	Co	0.92237 0.07314 0.16580 1.15900
C 	C 	0.92893 0.71997 0.08874 0.32900
O 	O 	0.93444 0.17240 0.10087 -0.41100
O 	O 	0.96775 0.03166 0.14446 -0.77500
C 	C 	0.89649 0.15573 0.05699 0.31100
O 	O 	0.93482 0.82383 0.17952 -0.45900
C 	C 	0.75786 0.89654 0.14878 0.30100
O 	O 	0.90930 0.11116 0.04758 -0.40300
O 	O 	0.79009 0.98079 0.13469 -0.37000
O 	O 	0.79766 0.87135 0.14425 -0.39200
O 	O 	0.19482 0.90099 0.13368 -0.38200
O 	O 	0.90339 0.97927 0.23381 -0.38300
O 	O 	0.19489 0.01458 0.02748 -0.44100
O 	O 	0.21032 0.09895 0.06128 -0.40800
O 	O 	0.90504 0.75735 0.09615 -0.39400
Co	Co	0.94396 0.91548 0.68116 1.19600
C 	C 	0.22853 0.07529 0.54709 0.31900
Co	Co	0.90647 0.04875 0.67232 1.16300
C 	C 	0.93237 0.70569 0.59767 0.32900
O 	O 	0.80607 0.03060 0.60668 -0.41100
O 	O 	0.94798 0.00837 0.64696 -0.77300
C 	C 	0.82975 0.08398 0.56370 0.30300
O 	O 	0.95725 0.82060 0.69465 -0.45500
C 	C 	0.77058 0.85264 0.69279 0.31700
O 	O 	0.97075 0.94696 0.60837 -0.55400
C 	C 	0.17041 0.84796 0.67055 0.30100
O 	O 	0.88027 0.08566 0.54768 -0.39000
O 	O 	0.82298 0.92078 0.71186 -0.39200
O 	O 	0.80551 0.83640 0.67700 -0.38700
O 	O 	0.19532 0.90085 0.62803 -0.38400
O 	O 	0.17970 0.01099 0.52545 -0.44100
O 	O 	0.18958 0.08201 0.56625 -0.42300
O 	O 	0.90982 0.73273 0.61503 -0.38800
C 	C 	0.94347 0.88983 0.89074 -0.00400
C 	C 	0.95226 0.89873 0.84578 0.00600
H 	H 	0.89210 0.82545 0.90947 0.04100
H 	H 	0.90523 0.84212 0.82969 0.03500
C 	C 	0.92968 0.86836 0.34864 -0.01600
C 	C 	0.92639 0.86290 0.39429 -0.02200
C 	C 	0.98072 0.93978 0.41142 0.00300
H 	H 	0.88552 0.80854 0.33588 0.03600
H 	H 	0.88225 0.79842 0.41669 0.04200
C 	C 	0.18766 0.39555 0.69633 -0.07500
C 	C 	0.19120 0.46427 0.65386 -0.03400
C 	C 	0.17050 0.45555 0.60605 0.07700
C 	C 	0.16993 0.32192 0.69217 0.11400
H 	H 	0.20728 0.40330 0.73327 0.05100
N 	N 	0.16827 0.51839 0.56374 -0.19500
H 	H 	0.17520 0.57078 0.56508 0.08800
C 	C 	0.55003 0.72469 0.72578 -0.07400
C 	C 	0.49445 0.73450 0.67803 -0.03200
C 	C 	0.52793 0.77569 0.63478 0.08500
C 	C 	0.61553 0.80371 0.64017 -0.02600
C 	C 	0.67185 0.79586 0.68797 -0.10900
C 	C 	0.63736 0.75236 0.73106 0.12700
N 	N 	0.68723 0.73554 0.77743 -0.20200
H 	H 	0.52323 0.69098 0.75880 0.05600
H 	H 	0.64241 0.83747 0.60717 0.05600
N 	N 	0.47736 0.79079 0.58818 -0.19400
H 	H 	0.66332 0.70695 0.80945 0.08700
H 	H 	0.74799 0.74689 0.78186 0.09300
H 	H 	0.41514 0.77719 0.58326 0.09400
H 	H 	0.50170 0.81949 0.55631 0.09200
C 	C 	0.19545 0.78478 0.70020 -0.10900
C 	C 	0.28870 0.81770 0.71794 0.12800
C 	C 	0.31487 0.76860 0.72188 -0.07800
C 	C 	0.24881 0.68672 0.70832 -0.03100
H 	H 	0.38705 0.79618 0.73333 0.06300
N 	N 	0.35349 0.89703 0.73042 -0.20200
H 	H 	0.33495 0.93158 0.73098 0.10200
H 	H 	0.42302 0.92332 0.74148 0.09500
C 	C 	0.16832 0.43757 0.15011 -0.07600
C 	C 	0.22472 0.45220 0.19780 -0.03600
C 	C 	0.25139 0.39509 0.23142 0.07800
C 	C 	0.22814 0.32976 0.21521 -0.02900
C 	C 	0.17145 0.31484 0.16754 -0.10700
H 	H 	0.24766 0.28528 0.24138 0.04100
N 	N 	0.29922 0.40268 0.27941 -0.19500
H 	H 	0.31181 0.44646 0.29343 0.08900
H 	H 	0.32152 0.36235 0.30376 0.08100
C 	C 	0.59197 0.82562 0.11953 -0.02400
C 	C 	0.66634 0.82980 0.15864 -0.10300
C 	C 	0.65657 0.78779 0.20864 0.12000
C 	C 	0.57662 0.75191 0.21921 -0.07100
C 	C 	0.50283 0.74945 0.18027 -0.03300
C 	C 	0.51079 0.78750 0.12986 0.08300
N 	N 	0.44094 0.78786 0.09135 -0.19500
H 	H 	0.59875 0.85555 0.08103 0.05000
H 	H 	0.56928 0.72023 0.25769 0.05500
N 	N 	0.72292 0.78007 0.24642 -0.20000
H 	H 	0.44672 0.81443 0.05417 0.08700
H 	H 	0.38138 0.76399 0.09789 0.09300
H 	H 	0.77762 0.79614 0.23889 0.08700
H 	H 	0.71751 0.75301 0.28370 0.08700
C 	C 	0.18789 0.77990 0.20347 -0.10700
C 	C 	0.28059 0.81174 0.22569 0.12500
C 	C 	0.31059 0.76581 0.22991 -0.07700
C 	C 	0.25032 0.69167 0.20942 -0.03200
H 	H 	0.38191 0.79034 0.24696 0.06000
N 	N 	0.34111 0.88673 0.24247 -0.20300
H 	H 	0.31921 0.91913 0.24207 0.10100
H 	H 	0.41043 0.91194 0.25742 0.09400
C 	C 	0.70258 0.10046 0.51950 -0.02800
C 	C 	0.79697 0.14068 0.53261 -0.11300
C 	C 	0.85890 0.23351 0.52789 0.12400
C 	C 	0.82804 0.27903 0.52328 -0.08000
C 	C 	0.73414 0.23577 0.51606 -0.03100
C 	C 	0.67082 0.15003 0.50667 0.07200
N 	N 	0.58247 0.11903 0.48121 -0.19300
H 	H 	0.65388 0.03088 0.51910 0.03300
H 	H 	0.87718 0.34781 0.52523 0.06200
N 	N 	0.94629 0.27969 0.52553 -0.20100
H 	H 	0.53459 0.05334 0.47814 0.07400
H 	H 	0.56336 0.16223 0.45963 0.08800
C 	C 	0.82986 0.47541 0.60540 -0.07400
C 	C 	0.80222 0.47796 0.55434 -0.03100
C 	C 	0.80895 0.55408 0.51777 0.08100
C 	C 	0.83639 0.62287 0.53278 -0.02800
C 	C 	0.86452 0.62045 0.58382 -0.11100
C 	C 	0.85540 0.54339 0.62027 0.12700
N 	N 	0.86964 0.53373 0.66948 -0.20400
H 	H 	0.82323 0.41644 0.63354 0.05300
H 	H 	0.84277 0.68172 0.50466 0.04700
N 	N 	0.78902 0.56138 0.46817 -0.19500
H 	H 	0.86483 0.47754 0.69657 0.08600
H 	H 	0.88239 0.58040 0.68099 0.09800
H 	H 	0.77420 0.51397 0.45624 0.09100
H 	H 	0.79126 0.61644 0.44106 0.08400
C 	C 	0.47275 0.16334 0.58454 -0.07700
C 	C 	0.49379 0.20946 0.53738 -0.03500
C 	C 	0.43171 0.22450 0.49517 0.07600
C 	C 	0.34970 0.19294 0.50110 -0.02400
C 	C 	0.32585 0.14132 0.54753 -0.11900
C 	C 	0.39078 0.13214 0.59031 0.12000
N 	N 	0.37472 0.09352 0.63696 -0.20200
H 	H 	0.52238 0.15550 0.61727 0.04900
H 	H 	0.30041 0.20152 0.46846 0.03800
N 	N 	0.44977 0.26773 0.44876 -0.19500
H 	H 	0.42180 0.08448 0.66833 0.07600
H 	H 	0.31751 0.07572 0.64275 0.08800
H 	H 	0.50701 0.28639 0.44246 0.08700
H 	H 	0.40475 0.28076 0.41800 0.08000
C 	C 	0.88216 0.27841 0.99983 -0.02100
C 	C 	0.83844 0.18632 0.01954 -0.11700
C 	C 	0.74591 0.13222 0.02125 0.11400
C 	C 	0.70796 0.17071 0.01743 -0.07800
C 	C 	0.75800 0.26368 0.00611 -0.03900
C 	C 	0.84167 0.31761 0.99185 0.08500
N 	N 	0.88022 0.40486 0.96788 -0.19400
H 	H 	0.95006 0.32023 0.99354 0.04300
H 	H 	0.64032 0.12806 0.02425 0.05000
N 	N 	0.69430 0.04306 0.02843 -0.20300
H 	H 	0.94519 0.44554 0.96107 0.08900
H 	H 	0.84283 0.43091 0.95172 0.09400
H 	H 	0.71995 0.01392 0.02903 0.08700
H 	H 	0.62659 0.00255 0.03127 0.07100
C 	C 	0.83710 0.64054 0.02230 -0.03600
C 	C 	0.86033 0.63572 0.07333 -0.10900
C 	C 	0.84918 0.55749 0.10932 0.12400
C 	C 	0.82723 0.49120 0.09449 -0.07600
C 	C 	0.80697 0.49726 0.04358 -0.03100
C 	C 	0.81478 0.57418 0.00730 0.07600
N 	N 	0.80119 0.58479 0.95800 -0.19100
H 	H 	0.84466 0.70002 0.99442 0.05600
H 	H 	0.81891 0.43140 0.12235 0.05300
N 	N 	0.86039 0.54610 0.15834 -0.20400
H 	H 	0.80417 0.64027 0.93102 0.08500
H 	H 	0.79077 0.53969 0.94630 0.09100
H 	H 	0.87127 0.59180 0.16975 0.09500
H 	H 	0.85590 0.49000 0.18536 0.08700
C 	C 	0.40772 0.13899 0.07937 -0.02800
C 	C 	0.34119 0.15010 0.04069 -0.12400
C 	C 	0.35952 0.20445 0.99276 0.13200
C 	C 	0.43965 0.23879 0.98293 -0.07000
C 	C 	0.50486 0.22503 0.02112 -0.04200
C 	C 	0.48839 0.17394 0.06983 0.07600
N 	N 	0.54955 0.15789 0.10747 -0.19600
H 	H 	0.39360 0.09733 0.11618 0.03500
H 	H 	0.45373 0.28057 0.94613 0.05200
N 	N 	0.30031 0.22387 0.95610 -0.20400
H 	H 	0.53806 0.12216 0.14363 0.07600
H 	H 	0.60763 0.17853 0.10101 0.08800
H 	H 	0.24414 0.20519 0.96363 0.09000
H 	H 	0.31188 0.26078 0.92001 0.08300
