data_crystal

_cell_length_a 19.26341
_cell_length_b 18.36971
_cell_length_c 46.92677
_cell_angle_alpha 88.54137
_cell_angle_beta  88.57078
_cell_angle_gamma 107.95210

_symmetry_space_group_name_	'P 1'
_symmetry_space_group_name_H-M	'P 1'

loop_
_symmetry_equiv_pos_as_xyz
  x,y,z

loop_
_atom_site_label
_atom_site_type_symbol
_atom_site_fract_x
_atom_site_fract_y
_atom_site_fract_z
_atom_site_charge
Zn	Zn	0.59706 0.35300 0.86589 1.22100
O 	O 	0.49949 0.19781 0.83782 -0.46800
O 	O 	0.49962 0.32102 0.84226 -0.40800
O 	O 	0.55334 0.26631 0.89303 -0.44200
O 	O 	0.57114 0.44596 0.87499 -0.42400
C 	C 	0.46414 0.24860 0.83857 0.32900
C 	C 	0.61085 0.49773 0.89178 0.32000
C 	C 	0.57865 0.20782 0.89572 0.31900
Zn	Zn	0.42686 0.20979 0.62709 1.19500
Zn	Zn	0.57513 0.21717 0.64907 1.22200
C 	C 	0.45333 0.16107 0.68872 0.36500
O 	O 	0.53119 0.27453 0.62288 -0.78400
O 	O 	0.37479 0.28675 0.63133 -0.44900
O 	O 	0.45922 0.40159 0.63887 -0.42400
O 	O 	0.42905 0.10277 0.62636 -0.46200
H 	H 	0.55321 0.31168 0.69102 0.17700
O 	O 	0.55146 0.12272 0.62123 -0.39100
O 	O 	0.51373 0.14942 0.67945 -0.44800
O 	O 	0.42413 0.20449 0.67357 -0.42900
C 	C 	0.40734 0.35841 0.62347 0.32500
C 	C 	0.48431 0.08664 0.61406 0.31900
Zn	Zn	0.05997 0.06222 0.75507 1.22500
Zn	Zn	0.08811 0.97913 0.80850 1.20000
O 	O 	0.16692 0.07805 0.80884 -0.46600
O 	O 	0.10975 0.15015 0.78388 -0.39500
O 	O 	0.15881 0.05842 0.74466 -0.43500
O 	O 	0.02198 0.14176 0.73682 -0.37800
O 	O 	0.14445 0.94862 0.77180 -0.41300
O 	O 	0.00733 0.99105 0.78590 -0.74000
O 	O 	0.05107 0.86958 0.82273 -0.47400
C 	C 	0.16171 0.14530 0.80079 0.33200
C 	C 	0.18235 0.00103 0.75278 0.31600
Zn	Zn	0.18965 0.65336 0.39421 1.22400
Zn	Zn	0.35512 0.67281 0.36813 1.19300
C 	C 	0.18350 0.88264 0.33728 0.35300
Zn	Zn	0.28204 0.79832 0.35914 1.22400
Zn	Zn	0.09894 0.74929 0.37396 1.19400
H 	H 	0.24357 0.66647 0.33885 0.18000
C 	C 	0.37113 0.81061 0.40892 0.32400
O 	O 	0.02670 0.66997 0.39909 -0.46000
O 	O 	0.10916 0.63746 0.42721 -0.40300
O 	O 	0.26069 0.68680 0.35762 -0.79200
O 	O 	0.32198 0.57770 0.39334 -0.46800
O 	O 	0.11962 0.57312 0.37316 -0.43900
O 	O 	0.24551 0.61766 0.42280 -0.43400
O 	O 	0.09830 0.66178 0.34281 -0.41900
O 	O 	0.43610 0.75813 0.35002 -0.46700
H 	H 	0.20365 0.78692 0.40801 0.17700
O 	O 	0.36564 0.81876 0.32668 -0.40800
O 	O 	0.19603 0.76088 0.38961 -0.79900
O 	O 	0.12382 0.82303 0.34015 -0.45800
O 	O 	0.35324 0.84851 0.38765 -0.44200
O 	O 	0.24865 0.87302 0.33672 -0.43900
O 	O 	0.36580 0.73780 0.40700 -0.41400
C 	C 	0.04282 0.64035 0.42304 0.38500
C 	C 	0.28748 0.57443 0.41815 0.34700
C 	C 	0.09143 0.58998 0.34971 0.33800
C 	C 	0.42762 0.80371 0.32916 0.32800
Zn	Zn	0.33509 0.83607 0.15048 1.22200
Zn	Zn	0.16335 0.71611 0.13641 1.19400
C 	C 	0.43251 0.65978 0.09476 0.34200
Zn	Zn	0.30039 0.68362 0.11776 1.22500
Zn	Zn	0.46259 0.76851 0.14167 1.19400
H 	H 	0.26355 0.79554 0.10218 0.17500
C 	C 	0.21279 0.58130 0.16132 0.35000
O 	O 	0.51353 0.87185 0.15559 -0.47000
O 	O 	0.41694 0.89245 0.17981 -0.40300
O 	O 	0.26331 0.77003 0.12104 -0.79500
O 	O 	0.15814 0.77796 0.17012 -0.45000
O 	O 	0.39000 0.90791 0.11947 -0.44000
O 	O 	0.26593 0.87480 0.17319 -0.42400
O 	O 	0.44728 0.82499 0.10203 -0.41600
O 	O 	0.12263 0.62670 0.11156 -0.45500
H 	H 	0.34572 0.71224 0.17248 0.17800
O 	O 	0.22736 0.63866 0.08491 -0.39600
O 	O 	0.35785 0.73840 0.15347 -0.79000
O 	O 	0.46886 0.67973 0.11820 -0.46500
O 	O 	0.25855 0.58716 0.13960 -0.45500
O 	O 	0.37631 0.68312 0.08933 -0.43700
O 	O 	0.19020 0.63962 0.16777 -0.42600
C 	C 	0.48759 0.91110 0.17381 0.32800
C 	C 	0.19399 0.85152 0.17133 0.30500
C 	C 	0.42932 0.88831 0.09945 0.32500
C 	C 	0.15590 0.61303 0.08830 0.31700
Zn	Zn	0.99992 0.13611 0.20373 1.18000
C 	C 	0.07049 0.07408 0.25635 0.36400
O 	O 	0.09116 0.22255 0.20634 -0.45200
O 	O 	0.06081 0.28067 0.24523 -0.38800
O 	O 	0.06829 0.13343 0.27115 -0.43300
O 	O 	0.04991 0.06764 0.22981 -0.40800
C 	C 	0.09681 0.28454 0.22076 0.32600
C 	C 	0.14695 0.35898 0.21029 -0.15200
C 	C 	0.16734 0.37162 0.18254 0.00700
C 	C 	0.20914 0.44886 0.17107 0.01400
C 	C 	0.18758 0.51310 0.17768 -0.17900
H 	H 	0.25019 0.45333 0.15426 0.03900
H 	H 	0.16319 0.40555 0.22499 0.07900
H 	H 	0.14690 0.50845 0.19466 0.08700
H 	H 	0.15411 0.32444 0.16806 0.03200
C 	C 	0.56337 0.99170 0.20908 0.00700
C 	C 	0.53659 0.98476 0.18284 -0.14700
H 	H 	0.53499 0.95179 0.22622 0.03000
H 	H 	0.56334 0.02734 0.16628 0.07400
C 	C 	0.04033 0.94047 0.18261 0.10100
C 	C 	0.07994 0.88468 0.17687 -0.02300
C 	C 	0.15318 0.90535 0.17833 -0.14000
H 	H 	0.04921 0.82653 0.17163 0.04000
H 	H 	0.18345 0.96337 0.18387 0.07800
H 	H 	0.07023 0.00133 0.18163 0.00900
C 	C 	0.49022 0.84589 0.31037 -0.15900
C 	C 	0.55297 0.82842 0.30972 0.00900
H 	H 	0.61342 0.93179 0.28353 0.03100
H 	H 	0.48564 0.89391 0.29733 0.08000
H 	H 	0.55741 0.77886 0.32183 0.02800
C 	C 	0.06380 0.53032 0.32881 -0.17000
C 	C 	0.01866 0.46111 0.33716 0.06200
H 	H 	0.08173 0.54230 0.30656 0.08000
H 	H 	0.99580 0.45126 0.35886 -0.01000
C 	C 	0.17852 0.95075 0.32840 -0.19100
C 	C 	0.11605 0.95647 0.31173 0.00900
C 	C 	0.12045 0.02161 0.29714 0.01500
C 	C 	0.09087 0.01738 0.26833 -0.19700
H 	H 	0.15717 0.07572 0.30390 0.03900
H 	H 	0.22689 0.00064 0.32884 0.08700
H 	H 	0.08642 0.96647 0.25622 0.10500
H 	H 	0.07351 0.90422 0.30673 0.04500
C 	C 	0.41784 0.90924 0.48593 -0.00700
C 	C 	0.48535 0.91806 0.49830 -0.03400
C 	C 	0.49917 0.94996 0.52515 -0.03400
C 	C 	0.44549 0.97303 0.53972 -0.00800
C 	C 	0.37782 0.96356 0.52743 -0.03400
C 	C 	0.36404 0.93175 0.50062 -0.03300
C 	C 	0.46143 0.01152 0.56625 0.04700
C 	C 	0.47258 0.04402 0.58848 -0.12700
C 	C 	0.40286 0.87511 0.45856 0.04900
C 	C 	0.38926 0.84666 0.43567 -0.11500
H 	H 	0.52708 0.90039 0.48714 0.03800
H 	H 	0.55177 0.95748 0.53444 0.03900
H 	H 	0.33622 0.98165 0.53849 0.03800
H 	H 	0.31161 0.92474 0.49125 0.03800
C 	C 	0.94359 0.57711 0.46351 0.07200
C 	C 	0.98672 0.60656 0.44435 -0.19200
H 	H 	0.97961 0.50474 0.50832 0.02900
C 	C 	0.33889 0.47476 0.48959 -0.00700
C 	C 	0.28145 0.43568 0.50860 -0.03200
C 	C 	0.29628 0.41265 0.53576 -0.03100
C 	C 	0.36862 0.42848 0.54405 -0.01300
C 	C 	0.42621 0.46566 0.52480 -0.03300
C 	C 	0.41136 0.48881 0.49760 -0.03400
C 	C 	0.38356 0.40527 0.57213 0.05600
C 	C 	0.39485 0.38533 0.59575 -0.14800
C 	C 	0.32326 0.50906 0.46365 0.05700
C 	C 	0.30794 0.53693 0.44215 -0.11500
H 	H 	0.22529 0.42499 0.50261 0.04800
H 	H 	0.25152 0.38328 0.55045 0.04500
H 	H 	0.48233 0.47737 0.53098 0.03700
H 	H 	0.45606 0.51934 0.48307 0.03800
C 	C 	0.25402 0.99890 0.74210 -0.14100
C 	C 	0.31108 0.06725 0.73750 0.00300
C 	C 	0.37566 0.06904 0.72286 0.01500
C 	C 	0.43096 0.14334 0.71574 -0.19500
H 	H 	0.38238 0.01690 0.71446 0.03600
H 	H 	0.26259 0.94415 0.73828 0.07800
H 	H 	0.43335 0.19023 0.72975 0.07700
H 	H 	0.30371 0.12069 0.74427 0.04600
C 	C 	0.08824 0.48885 0.99808 -0.09200
C 	C 	0.04620 0.49776 0.02179 0.08900
C 	C 	0.08175 0.53735 0.04609 0.02400
C 	C 	0.11384 0.57080 0.06595 -0.09100
H 	H 	0.08788 0.46043 0.95387 0.02900
H 	H 	0.14716 0.50462 0.99908 0.06100
C 	C 	0.52675 0.08536 0.97091 -0.00700
C 	C 	0.45907 0.08017 0.98397 -0.03400
C 	C 	0.43912 0.04249 0.01056 -0.03300
C 	C 	0.48678 0.00987 0.02420 -0.00900
C 	C 	0.55448 0.01501 0.01115 -0.03500
C 	C 	0.57445 0.05274 0.98454 -0.03500
C 	C 	0.46501 0.96821 0.05095 0.05100
C 	C 	0.44805 0.93301 0.07336 -0.11500
C 	C 	0.54819 0.12703 0.94414 0.04700
C 	C 	0.56349 0.16257 0.92174 -0.11300
H 	H 	0.42206 0.10559 0.97358 0.04200
H 	H 	0.38657 0.03839 0.02047 0.03900
H 	H 	0.59145 0.98955 0.02154 0.03800
C 	C 	0.50099 0.56638 0.02609 -0.00700
C 	C 	0.44785 0.53962 0.00570 -0.03400
C 	C 	0.46774 0.52015 0.97878 -0.03000
C 	C 	0.54083 0.52716 0.97213 -0.01500
C 	C 	0.59341 0.55029 0.99298 -0.03400
C 	C 	0.57352 0.56993 0.01992 -0.03700
C 	C 	0.56283 0.51587 0.94345 0.05300
C 	C 	0.58305 0.50687 0.91966 -0.14700
C 	C 	0.48251 0.59925 0.05161 0.05200
C 	C 	0.46234 0.62586 0.07228 -0.11700
H 	H 	0.39160 0.53656 0.01035 0.04500
H 	H 	0.42671 0.50177 0.96286 0.04300
H 	H 	0.64997 0.55517 0.98807 0.02600
H 	H 	0.61488 0.59034 0.03557 0.03300
C 	C 	0.38433 0.22115 0.84254 -0.15100
C 	C 	0.34144 0.25413 0.82852 0.01300
C 	C 	0.26157 0.21670 0.82959 0.01600
C 	C 	0.22270 0.21439 0.80614 -0.15100
H 	H 	0.23724 0.17837 0.84772 0.03300
H 	H 	0.35977 0.16856 0.85517 0.08200
H 	H 	0.24322 0.25698 0.78894 0.08400
H 	H 	0.36542 0.30405 0.81445 0.03600
Zn	Zn	0.60604 0.22089 0.82998 1.19400
H 	H 	0.97390 0.01163 0.79715 0.12800
C 	C 	0.05468 0.46364 0.97249 0.06800
H 	H 	0.62700 0.05685 0.97462 0.03700
H 	H 	0.04972 0.94037 0.72139 0.18800
C 	C 	0.96916 0.91659 0.19062 -0.24700
C 	C 	0.61808 0.88068 0.29451 0.00900
H 	H 	0.89161 0.34483 0.33319 0.08700
Zn	Zn	0.75548 0.48551 0.88672 1.19500
C 	C 	0.74842 0.18986 0.83288 0.38100
Zn	Zn	0.75542 0.33965 0.85602 1.22200
H 	H 	0.69806 0.34746 0.90379 0.16900
C 	C 	0.81566 0.48474 0.82573 0.36300
O 	O 	0.69902 0.37472 0.88524 -0.78400
O 	O 	0.67856 0.53591 0.88436 -0.45600
O 	O 	0.61634 0.18990 0.87469 -0.41500
O 	O 	0.85859 0.48813 0.88665 -0.47400
H 	H 	0.66039 0.36465 0.81704 0.17600
O 	O 	0.84696 0.36124 0.88349 -0.39500
O 	O 	0.65743 0.33186 0.83439 -0.78600
O 	O 	0.68760 0.17979 0.81905 -0.47500
O 	O 	0.81639 0.41347 0.82704 -0.45500
O 	O 	0.76277 0.23443 0.85493 -0.45200
O 	O 	0.76670 0.50473 0.84092 -0.43200
C 	C 	0.87670 0.42791 0.89499 0.32500
Zn	Zn	0.55244 0.38003 0.64347 1.22200
C 	C 	0.72640 0.23377 0.66551 0.36700
Zn	Zn	0.68571 0.37358 0.67515 1.19500
H 	H 	0.55149 0.27702 0.60316 0.17300
O 	O 	0.70170 0.48441 0.66935 -0.47400
O 	O 	0.58217 0.47986 0.66859 -0.40500
O 	O 	0.62950 0.43125 0.61446 -0.43900
O 	O 	0.70879 0.36866 0.62951 -0.41900
O 	O 	0.58104 0.31665 0.67267 -0.78900
O 	O 	0.72794 0.28917 0.68295 -0.48300
O 	O 	0.67804 0.21606 0.64539 -0.44300
C 	C 	0.65069 0.51734 0.67313 0.32800
C 	C 	0.68754 0.40915 0.60992 0.31800
Zn	Zn	0.93360 0.96922 0.70951 1.18800
C 	C 	0.01097 0.81018 0.80910 0.45000
Zn	Zn	0.96262 0.89065 0.76271 1.20600
C 	C 	0.84636 0.95608 0.76751 0.35600
O 	O 	0.01546 0.96091 0.73216 -0.76400
O 	O 	0.97557 0.07751 0.69699 -0.48300
O 	O 	0.85620 0.86826 0.70975 -0.47100
O 	O 	0.92026 0.80208 0.73369 -0.42400
O 	O 	0.86274 0.89238 0.77220 -0.46200
O 	O 	0.00190 0.81526 0.78153 -0.43700
O 	O 	0.87854 0.00330 0.74604 -0.44100
C 	C 	0.98022 0.13325 0.71445 0.28900
C 	C 	0.87077 0.80407 0.71526 0.32800
Zn	Zn	0.86772 0.03394 0.24885 1.22200
C 	C 	0.92668 0.26764 0.30693 0.36300
Zn	Zn	0.98937 0.18013 0.26662 1.21000
Zn	Zn	0.82822 0.10433 0.30237 1.19300
H 	H 	0.90117 0.18139 0.22788 0.16900
O 	O 	0.75289 0.00269 0.30632 -0.47400
O 	O 	0.80002 0.93685 0.27344 -0.40500
O 	O 	0.92907 0.14629 0.23325 -0.80300
O 	O 	0.94324 0.03666 0.18751 -0.49700
O 	O 	0.77856 0.04462 0.23290 -0.45300
O 	O 	0.90699 0.96131 0.22811 -0.45400
O 	O 	0.76756 0.12863 0.26613 -0.42100
H 	H 	0.93020 0.04752 0.29474 0.16000
O 	O 	0.91080 0.08216 0.28313 -0.81200
O 	O 	0.85994 0.21930 0.30561 -0.47800
O 	O 	0.98435 0.24977 0.29752 -0.48300
C 	C 	0.74925 0.93948 0.29261 0.32500
C 	C 	0.93382 0.97125 0.20163 0.36300
C 	C 	0.73913 0.08081 0.24608 0.33000
C 	C 	0.66129 0.06387 0.23959 -0.15900
C 	C 	0.63838 0.04285 0.21338 0.01200
H 	H 	0.62171 0.05925 0.25699 0.07400
H 	H 	0.67771 0.05567 0.19547 0.03100
H 	H 	0.93999 0.85569 0.19271 0.08200
C 	C 	0.68434 0.87266 0.29755 -0.15400
H 	H 	0.69011 0.81998 0.30669 0.06600
C 	C 	0.00259 0.39662 0.31760 0.06500
C 	C 	0.93649 0.33691 0.32046 -0.24400
H 	H 	0.04334 0.39493 0.30137 0.03800
C 	C 	0.89623 0.54041 0.48736 -0.02900
C 	C 	0.92384 0.50631 0.50961 -0.03000
C 	C 	0.88010 0.47574 0.53390 -0.04200
C 	C 	0.80849 0.47902 0.53605 -0.00500
C 	C 	0.78014 0.51126 0.51348 -0.04200
C 	C 	0.82397 0.54193 0.48915 -0.02900
C 	C 	0.76578 0.45371 0.56209 0.04300
C 	C 	0.72997 0.43252 0.58388 -0.11300
H 	H 	0.90234 0.45080 0.55123 0.03600
H 	H 	0.72470 0.51377 0.51497 0.03800
H 	H 	0.80213 0.56787 0.47198 0.03000
C 	C 	0.77919 0.19620 0.66709 -0.18700
C 	C 	0.83487 0.21618 0.68687 0.01700
C 	C 	0.88662 0.17162 0.68915 0.00100
C 	C 	0.93739 0.18618 0.70922 -0.14800
H 	H 	0.88102 0.12410 0.67511 0.02500
H 	H 	0.77680 0.15020 0.65264 0.08700
H 	H 	0.94329 0.23388 0.72319 0.06900
H 	H 	0.83920 0.26324 0.70102 0.03000
C 	C 	0.83949 0.73715 0.69801 -0.16500
C 	C 	0.76883 0.71498 0.69156 0.01100
C 	C 	0.73885 0.64459 0.67565 0.00900
C 	C 	0.67115 0.59763 0.68155 -0.15500
H 	H 	0.77539 0.62633 0.66146 0.03600
H 	H 	0.87371 0.70236 0.69197 0.07000
H 	H 	0.63282 0.61689 0.69436 0.07900
H 	H 	0.73287 0.74623 0.69927 0.03800
C 	C 	0.97898 0.44721 0.97055 -0.10900
C 	C 	0.97004 0.47621 0.02042 -0.13900
C 	C 	0.93647 0.45086 0.99486 0.02100
C 	C 	0.94651 0.43877 0.94305 0.07000
C 	C 	0.91625 0.43161 0.92065 -0.15700
H 	H 	0.93710 0.48220 0.03875 0.04700
H 	H 	0.87781 0.43766 0.99359 0.01100
C 	C 	0.79343 0.14965 0.82602 -0.20400
C 	C 	0.76864 0.07997 0.80901 0.01600
C 	C 	0.81662 0.05864 0.79267 0.00700
C 	C 	0.80352 0.97679 0.78647 -0.19900
H 	H 	0.86974 0.09975 0.78717 0.02500
H 	H 	0.84680 0.16382 0.83542 0.08600
H 	H 	0.76863 0.93346 0.80121 0.08800
H 	H 	0.71344 0.04132 0.81262 0.03500
C 	C 	0.98663 0.74209 0.82295 -0.28100
C 	C 	0.94961 0.67134 0.80799 0.03800
C 	C 	0.89179 0.61869 0.82047 0.00100
C 	C 	0.86923 0.53819 0.81135 -0.19100
H 	H 	0.86630 0.63311 0.83957 0.03000
H 	H 	0.99321 0.73857 0.84585 0.09400
H 	H 	0.90452 0.52035 0.79647 0.08500
H 	H 	0.97307 0.65965 0.78796 0.02600
