data_crystal

_cell_length_a 18.89384
_cell_length_b 17.01186
_cell_length_c 36.80614
_cell_angle_alpha 88.29685
_cell_angle_beta  88.42658
_cell_angle_gamma 107.44558

_symmetry_space_group_name_	'P 1'
_symmetry_space_group_name_H-M	'P 1'

loop_
_symmetry_equiv_pos_as_xyz
  x,y,z

loop_
_atom_site_label
_atom_site_type_symbol
_atom_site_fract_x
_atom_site_fract_y
_atom_site_fract_z
_atom_site_charge
Zn	Zn	0.57500 0.30286 0.89299 1.22400
Zn	Zn	0.67353 0.45234 0.94019 1.19800
C 	C 	0.80215 0.22567 0.86152 0.33100
Zn	Zn	0.74846 0.36410 0.88686 1.22300
Zn	Zn	0.63763 0.17973 0.85940 1.19300
H 	H 	0.67679 0.30380 0.94555 0.17900
C 	C 	0.71768 0.51404 0.86002 0.28400
O 	O 	0.52932 0.12873 0.85107 -0.45900
O 	O 	0.49352 0.24615 0.85576 -0.39500
O 	O 	0.67027 0.34092 0.92555 -0.79300
O 	O 	0.56701 0.43702 0.95011 -0.47000
O 	O 	0.52598 0.21317 0.92795 -0.44100
O 	O 	0.52791 0.39133 0.89422 -0.43000
O 	O 	0.61373 0.14905 0.91779 -0.41300
O 	O 	0.77587 0.52541 0.93730 -0.47300
H 	H 	0.64874 0.32407 0.83457 0.17600
O 	O 	0.83331 0.42956 0.92226 -0.40500
O 	O 	0.65438 0.30017 0.85878 -0.79800
O 	O 	0.73796 0.17138 0.87138 -0.46200
O 	O 	0.76155 0.46684 0.85724 -0.43500
O 	O 	0.81880 0.30261 0.87201 -0.43100
O 	O 	0.66338 0.49718 0.88500 -0.41100
C 	C 	0.47912 0.16825 0.84735 0.28700
C 	C 	0.51779 0.42504 0.92481 0.31200
C 	C 	0.55363 0.15322 0.93543 0.29100
C 	C 	0.83433 0.49925 0.93729 0.31800
Zn	Zn	0.64800 0.42636 0.54813 1.22100
Zn	Zn	0.48860 0.29264 0.51789 1.19400
C 	C 	0.69856 0.18280 0.60873 0.29100
Zn	Zn	0.59107 0.23384 0.56637 1.22000
Zn	Zn	0.74043 0.36563 0.60119 1.19300
H 	H 	0.62250 0.29799 0.50348 0.16800
C 	C 	0.45007 0.23750 0.59775 0.28600
O 	O 	0.80088 0.48159 0.59099 -0.46300
O 	O 	0.70498 0.53169 0.57790 -0.39500
O 	O 	0.59650 0.31168 0.52498 -0.78800
O 	O 	0.47982 0.40486 0.51188 -0.45500
O 	O 	0.73842 0.44211 0.51730 -0.44100
O 	O 	0.58621 0.49401 0.53136 -0.42900
O 	O 	0.77106 0.33803 0.54625 -0.42100
O 	O 	0.44084 0.17225 0.52262 -0.46600
H 	H 	0.60466 0.36347 0.61114 0.17700
O 	O 	0.54236 0.13002 0.53369 -0.39800
O 	O 	0.63409 0.34986 0.59095 -0.78700
O 	O 	0.73921 0.25433 0.62006 -0.46100
O 	O 	0.50150 0.19998 0.59925 -0.43400
O 	O 	0.66662 0.17831 0.57720 -0.43400
O 	O 	0.45881 0.30054 0.57479 -0.41500
C 	C 	0.77284 0.54336 0.58904 0.28600
C 	C 	0.53720 0.47077 0.50604 0.30900
C 	C 	0.77997 0.39245 0.51880 0.31400
C 	C 	0.47818 0.11916 0.51825 0.29900
Zn	Zn	0.92847 0.91368 0.72676 1.23000
Zn	Zn	0.03974 0.89970 0.79332 1.19800
C 	C 	0.15874 0.09319 0.66454 0.33200
Zn	Zn	0.08425 0.03943 0.73595 1.21800
Zn	Zn	0.99309 0.01955 0.65819 1.18100
H 	H 	0.06572 0.88804 0.72473 0.18800
C 	C 	0.00271 0.06674 0.80040 0.27000
O 	O 	0.88701 0.97910 0.64689 -0.44500
O 	O 	0.83122 0.93293 0.70350 -0.36100
O 	O 	0.03926 0.91841 0.73978 -0.77100
O 	O 	0.94429 0.80979 0.80164 -0.46200
O 	O 	0.91690 0.81897 0.69654 -0.44000
O 	O 	0.87064 0.87631 0.77296 -0.42500
O 	O 	0.99325 0.89193 0.65076 -0.40200
O 	O 	0.13048 0.97685 0.81346 -0.42100
H 	H 	0.95845 0.06557 0.71923 0.16900
O 	O 	0.18485 0.03606 0.75922 -0.41400
O 	O 	0.98434 0.02561 0.71172 -0.82700
O 	O 	0.10354 0.04607 0.64629 -0.46100
O 	O 	0.05829 0.10052 0.77690 -0.43000
O 	O 	0.14819 0.11325 0.69805 -0.45200
O 	O 	0.97933 0.98632 0.80660 -0.38700
C 	C 	0.83111 0.96863 0.67086 0.32200
C 	C 	0.87816 0.81348 0.79278 0.35200
C 	C 	0.93868 0.82719 0.66238 0.34500
C 	C 	0.19002 0.01709 0.79361 0.29600
Zn	Zn	0.32089 0.71273 0.38340 1.22200
Zn	Zn	0.20499 0.56035 0.43203 1.19500
C 	C 	0.11069 0.81141 0.34842 0.26700
Zn	Zn	0.14630 0.66359 0.37771 1.22000
Zn	Zn	0.27125 0.84100 0.34335 1.19300
H 	H 	0.21391 0.71408 0.43560 0.18200
C 	C 	0.17036 0.51173 0.35228 0.28200
O 	O 	0.37961 0.88327 0.33086 -0.46200
O 	O 	0.41040 0.76486 0.34478 -0.39200
O 	O 	0.22010 0.67743 0.41616 -0.78400
O 	O 	0.30741 0.56006 0.44332 -0.46000
O 	O 	0.36953 0.80033 0.41610 -0.44400
O 	O 	0.36039 0.61953 0.38882 -0.43600
O 	O 	0.29471 0.87598 0.39951 -0.40800
O 	O 	0.09879 0.49803 0.43015 -0.46200
H 	H 	0.25455 0.69442 0.32531 0.17100
O 	O 	0.05358 0.60424 0.41455 -0.39100
O 	O 	0.24742 0.72004 0.34838 -0.79700
O 	O 	0.17553 0.85672 0.35890 -0.44800
O 	O 	0.12851 0.56128 0.35077 -0.43400
O 	O 	0.08435 0.73326 0.35972 -0.41400
O 	O 	0.22009 0.51952 0.37745 -0.40700
C 	C 	0.42795 0.84083 0.33060 0.28600
C 	C 	0.36623 0.58915 0.42139 0.30600
C 	C 	0.35166 0.86862 0.41729 0.31400
C 	C 	0.04552 0.53275 0.43170 0.29700
Zn	Zn	0.20979 0.72175 0.06459 1.22400
Zn	Zn	0.35478 0.81146 0.11522 1.19600
C 	C 	0.35194 0.57155 0.00594 0.32300
Zn	Zn	0.37514 0.71927 0.04899 1.22300
Zn	Zn	0.22876 0.63099 0.99645 1.19900
H 	H 	0.30019 0.65770 0.10582 0.17600
C 	C 	0.40805 0.89606 0.03901 0.31400
O 	O 	0.15475 0.67484 0.97612 -0.46500
O 	O 	0.11523 0.71588 0.03021 -0.36700
O 	O 	0.30614 0.70869 0.09080 -0.78500
O 	O 	0.26569 0.83842 0.13352 -0.47100
O 	O 	0.15264 0.61415 0.08720 -0.44000
O 	O 	0.19290 0.82390 0.08377 -0.42600
O 	O 	0.13742 0.55281 0.03236 -0.40000
O 	O 	0.46445 0.83894 0.11072 -0.45400
H 	H 	0.28474 0.77742 0.00917 0.17800
O 	O 	0.46826 0.72355 0.08148 -0.39700
O 	O 	0.27801 0.72613 0.02409 -0.80100
O 	O 	0.28109 0.55466 0.01402 -0.47600
O 	O 	0.42835 0.83129 0.03048 -0.44100
O 	O 	0.40080 0.63160 0.02185 -0.43200
O 	O 	0.36093 0.89203 0.06669 -0.41700
C 	C 	0.10223 0.68900 0.99672 0.29300
C 	C 	0.22178 0.86477 0.11257 0.31600
C 	C 	0.12512 0.54893 0.06787 0.34200
C 	C 	0.50178 0.79025 0.09885 0.28900
Zn	Zn	0.99246 0.15100 0.20606 1.22000
Zn	Zn	0.86436 0.13498 0.27192 1.19200
C 	C 	0.79159 0.94707 0.14177 0.37100
Zn	Zn	0.84563 0.00574 0.21428 1.21100
Zn	Zn	0.94847 0.05971 0.13662 1.18800
H 	H 	0.84751 0.15458 0.20339 0.17700
C 	C 	0.92365 0.98048 0.27885 0.37000
O 	O 	0.05291 0.12529 0.12667 -0.45900
O 	O 	0.09901 0.15177 0.18335 -0.36300
O 	O 	0.87627 0.12690 0.21848 -0.79300
O 	O 	0.95197 0.23260 0.28044 -0.47900
O 	O 	0.99860 0.24977 0.17616 -0.44200
O 	O 	0.03983 0.18370 0.25260 -0.42400
O 	O 	0.92313 0.17793 0.13370 -0.41300
O 	O 	0.77594 0.04474 0.29165 -0.46400
H 	H 	0.98051 0.00287 0.19652 0.15900
O 	O 	0.73740 0.98778 0.23748 -0.35600
O 	O 	0.95049 0.03944 0.18986 -0.81100
O 	O 	0.84054 0.01117 0.12497 -0.49800
O 	O 	0.87430 0.94420 0.25522 -0.43700
O 	O 	0.79463 0.93090 0.17686 -0.42700
O 	O 	0.93354 0.05806 0.28658 -0.43700
C 	C 	0.10363 0.12391 0.15036 0.30200
C 	C 	0.02200 0.23719 0.27345 0.36800
C 	C 	0.96761 0.24774 0.14481 0.29700
C 	C 	0.72320 0.00046 0.27153 0.27000
C 	C 	0.98921 0.32254 0.12071 -0.04500
C 	C 	0.02628 0.32159 0.08728 -0.02600
C 	C 	0.06925 0.39550 0.06987 0.02900
C 	C 	0.07494 0.47162 0.08545 -0.14800
C 	C 	0.03257 0.47294 0.11750 0.20600
C 	C 	0.98989 0.39854 0.13488 -0.10500
H 	H 	0.10024 0.39331 0.04492 0.03400
H 	H 	0.96019 0.39993 0.16035 0.06200
H 	H 	0.02599 0.26341 0.07598 0.04200
O 	O 	0.03097 0.54643 0.13132 -0.29100
H 	H 	0.06937 0.55887 0.14993 0.14900
C 	C 	0.58303 0.81812 0.10013 -0.02200
C 	C 	0.62266 0.89614 0.08501 -0.04400
C 	C 	0.69418 0.93610 0.09617 0.04300
C 	C 	0.72721 0.89754 0.12206 -0.16100
C 	C 	0.69161 0.81440 0.13302 0.20500
C 	C 	0.61912 0.77548 0.12247 -0.10200
H 	H 	0.72183 0.99885 0.08644 0.03900
H 	H 	0.58972 0.71405 0.13331 0.06800
H 	H 	0.59628 0.92788 0.06631 0.06100
O 	O 	0.72601 0.77268 0.15550 -0.28800
H 	H 	0.75350 0.74610 0.13898 0.14200
C 	C 	0.19996 0.93738 0.12304 -0.06800
C 	C 	0.19519 0.99612 0.09650 0.01500
C 	C 	0.17332 0.06433 0.10639 -0.03100
C 	C 	0.15309 0.07296 0.14278 -0.13000
C 	C 	0.16426 0.01771 0.16984 0.13700
C 	C 	0.18787 0.95048 0.15986 -0.04800
H 	H 	0.16748 0.10777 0.08541 0.03900
H 	H 	0.19460 0.90724 0.18072 0.05300
H 	H 	0.20786 0.98868 0.06815 0.04400
O 	O 	0.15201 0.02902 0.20594 -0.31100
H 	H 	0.10101 0.99283 0.21211 0.15000
C 	C 	0.50348 0.88031 0.31514 -0.02800
C 	C 	0.56540 0.87184 0.33324 -0.03700
C 	C 	0.63726 0.91314 0.31956 0.02500
C 	C 	0.64784 0.96259 0.28747 -0.11500
C 	C 	0.58576 0.97167 0.26947 0.21600
C 	C 	0.51398 0.93044 0.28328 -0.10300
H 	H 	0.68463 0.90559 0.33358 0.04200
H 	H 	0.46649 0.93744 0.26918 0.06600
H 	H 	0.55792 0.83413 0.35813 0.05400
O 	O 	0.59514 0.01983 0.23808 -0.32500
H 	H 	0.59785 0.07577 0.24611 0.13200
C 	C 	0.15418 0.44061 0.32874 -0.02500
C 	C 	0.13833 0.45063 0.29219 -0.04300
C 	C 	0.10193 0.38204 0.27253 0.03700
C 	C 	0.08052 0.30299 0.28934 -0.15600
C 	C 	0.10297 0.29203 0.32479 0.20400
C 	C 	0.14064 0.36082 0.34422 -0.09800
H 	H 	0.08581 0.39095 0.24505 0.02400
H 	H 	0.15431 0.35236 0.37219 0.06800
H 	H 	0.15023 0.51189 0.27967 0.03800
O 	O 	0.08610 0.21451 0.34087 -0.28100
H 	H 	0.03715 0.20515 0.35362 0.14900
C 	C 	0.06173 0.85330 0.33044 -0.01100
C 	C 	0.98896 0.80954 0.32144 -0.06600
C 	C 	0.94423 0.85067 0.30400 0.04800
C 	C 	0.97190 0.93576 0.29535 -0.17900
C 	C 	0.04548 0.97884 0.30364 0.24400
C 	C 	0.08942 0.93793 0.32124 -0.12200
H 	H 	0.88788 0.81664 0.29775 0.03100
H 	H 	0.14570 0.97236 0.32746 0.07900
H 	H 	0.96688 0.74406 0.32797 0.05600
O 	O 	0.07433 0.06147 0.29509 -0.29400
H 	H 	0.10043 0.06495 0.27110 0.15300
C 	C 	0.45333 0.05505 0.49166 -0.10700
C 	C 	0.43425 0.97151 0.50247 0.03200
C 	C 	0.40240 0.91092 0.47786 -0.01100
C 	C 	0.39003 0.93333 0.44204 -0.07500
C 	C 	0.41359 0.01787 0.43049 0.07400
C 	C 	0.44310 0.07794 0.45580 -0.03900
H 	H 	0.38582 0.84654 0.48686 0.03800
H 	H 	0.45907 0.14275 0.44742 0.01400
H 	H 	0.44200 0.95349 0.53020 0.03900
N 	N 	0.41037 0.04155 0.39510 -0.21300
H 	H 	0.39882 0.99894 0.37471 0.10700
H 	H 	0.42407 0.10408 0.38735 0.07400
C 	C 	0.97645 0.49072 0.45277 -0.05400
C 	C 	0.98003 0.45665 0.48759 -0.04500
C 	C 	0.91502 0.41620 0.50785 0.02100
C 	C 	0.84537 0.40902 0.49355 -0.12400
C 	C 	0.84159 0.43583 0.45696 0.12500
C 	C 	0.90733 0.47936 0.43731 -0.06300
H 	H 	0.91886 0.39480 0.53553 0.02200
H 	H 	0.90465 0.50216 0.40971 0.05400
H 	H 	0.03336 0.46350 0.49940 0.03200
N 	N 	0.77549 0.41810 0.44041 -0.20000
H 	H 	0.72733 0.37778 0.45280 0.07400
H 	H 	0.77249 0.44123 0.41405 0.08000
C 	C 	0.43889 0.58989 0.43424 -0.05400
C 	C 	0.46305 0.62824 0.46679 -0.02700
C 	C 	0.50982 0.59912 0.48859 0.02400
C 	C 	0.53162 0.53117 0.47795 -0.12300
C 	C 	0.52211 0.50682 0.44159 0.11200
C 	C 	0.47408 0.53534 0.41998 -0.05900
H 	H 	0.52103 0.62218 0.51563 0.04000
H 	H 	0.45944 0.50989 0.39358 0.05300
H 	H 	0.43932 0.67430 0.47699 0.03800
N 	N 	0.55547 0.45270 0.42820 -0.20600
H 	H 	0.59317 0.43301 0.44354 0.05800
H 	H 	0.54587 0.43202 0.40180 0.07500
C 	C 	0.70358 0.10714 0.62755 -0.03500
C 	C 	0.71420 0.04245 0.60756 -0.07800
C 	C 	0.74467 0.98556 0.62407 0.06400
C 	C 	0.76703 0.99494 0.66023 -0.11200
C 	C 	0.74432 0.05069 0.68172 0.15100
C 	C 	0.71191 0.10614 0.66536 -0.09300
H 	H 	0.75823 0.93975 0.60772 0.04000
H 	H 	0.69900 0.15266 0.68151 0.05400
H 	H 	0.70455 0.03999 0.57868 0.05500
O 	O 	0.75820 0.05479 0.71814 -0.29200
H 	H 	0.80754 0.09645 0.71980 0.12700
C 	C 	0.37734 0.20003 0.61667 -0.03500
C 	C 	0.33794 0.25035 0.63138 -0.04400
C 	C 	0.26600 0.21539 0.64628 0.03000
C 	C 	0.23215 0.12979 0.64618 -0.14800
C 	C 	0.27131 0.07913 0.63120 0.16700
C 	C 	0.34391 0.11424 0.61684 -0.08900
H 	H 	0.23649 0.25490 0.65790 0.02400
H 	H 	0.37350 0.07494 0.60508 0.06700
H 	H 	0.36299 0.31661 0.63122 0.04600
O 	O 	0.23999 0.99514 0.63193 -0.26900
H 	H 	0.21485 0.98323 0.60852 0.15900
C 	C 	0.81648 0.62503 0.60124 -0.02900
C 	C 	0.89455 0.64756 0.60062 -0.04600
C 	C 	0.93532 0.71790 0.61822 0.03500
C 	C 	0.89842 0.76573 0.63685 -0.15300
C 	C 	0.82044 0.74576 0.63554 0.20200
C 	C 	0.78017 0.67675 0.61717 -0.10300
H 	H 	0.99517 0.73271 0.61887 0.02600
H 	H 	0.72017 0.66098 0.61718 0.07600
H 	H 	0.92350 0.60931 0.58749 0.04800
O 	O 	0.78337 0.79303 0.65265 -0.29000
H 	H 	0.76821 0.76607 0.67709 0.15400
C 	C 	0.02569 0.65730 0.98525 -0.04800
C 	C 	0.97623 0.59178 0.00556 -0.01900
C 	C 	0.91595 0.53816 0.98908 -0.00300
C 	C 	0.90262 0.55114 0.95246 -0.12200
C 	C 	0.94842 0.62164 0.93267 0.11800
C 	C 	0.00944 0.67461 0.94948 -0.05600
H 	H 	0.87936 0.48630 0.00484 0.02700
H 	H 	0.04704 0.72622 0.93394 0.05100
H 	H 	0.98756 0.57878 0.03343 0.04900
N 	N 	0.93500 0.63793 0.89752 -0.20300
H 	H 	0.89213 0.59796 0.88371 0.10300
H 	H 	0.96833 0.69092 0.88342 0.08100
C 	C 	0.51546 0.08903 0.96273 -0.03700
C 	C 	0.44948 0.02969 0.95415 -0.07000
C 	C 	0.40975 0.97144 0.98057 0.04600
C 	C 	0.43539 0.97180 0.01599 -0.09300
C 	C 	0.49885 0.03578 0.02555 0.10200
C 	C 	0.53940 0.09306 0.99850 -0.08400
H 	H 	0.36080 0.92336 0.97306 0.01300
H 	H 	0.58864 0.14148 0.00547 0.04900
H 	H 	0.42931 0.02816 0.92681 0.04600
N 	N 	0.52055 0.04292 0.06053 -0.20300
H 	H 	0.48879 0.00481 0.08153 0.07800
H 	H 	0.56881 0.08850 0.06719 0.07700
C 	C 	0.45263 0.45203 0.93080 -0.04900
C 	C 	0.39620 0.40473 0.95487 -0.03400
C 	C 	0.35875 0.44369 0.97793 0.02600
C 	C 	0.37600 0.52974 0.97601 -0.15500
C 	C 	0.42094 0.57511 0.94652 0.12200
C 	C 	0.45936 0.53541 0.92399 -0.06700
H 	H 	0.32057 0.40773 0.99904 0.02600
H 	H 	0.49960 0.57098 0.90353 0.05400
H 	H 	0.38797 0.33916 0.95886 0.04000
N 	N 	0.42683 0.65586 0.93966 -0.20200
H 	H 	0.39324 0.68452 0.95372 0.04900
H 	H 	0.46270 0.68973 0.91878 0.08400
C 	C 	0.96286 0.11833 0.81840 -0.03600
C 	C 	0.93185 0.09594 0.85371 -0.04500
C 	C 	0.88185 0.13372 0.86837 0.03400
C 	C 	0.86273 0.19491 0.84808 -0.15600
C 	C 	0.89743 0.22147 0.81363 0.19300
C 	C 	0.94706 0.18281 0.79880 -0.10300
H 	H 	0.85647 0.11388 0.89517 0.02500
H 	H 	0.97056 0.20054 0.77150 0.05400
H 	H 	0.94455 0.04722 0.86933 0.03900
O 	O 	0.87937 0.28135 0.79348 -0.31800
H 	H 	0.91559 0.33408 0.79997 0.15000
C 	C 	0.40441 0.12327 0.83588 -0.03900
C 	C 	0.39556 0.07006 0.80686 -0.02700
C 	C 	0.32485 0.03238 0.79414 -0.01800
C 	C 	0.26223 0.04686 0.81057 -0.13200
C 	C 	0.27073 0.09779 0.84060 0.18800
C 	C 	0.34167 0.13546 0.85326 -0.09300
H 	H 	0.31886 0.99331 0.77100 0.06100
H 	H 	0.34796 0.17503 0.87626 0.07200
H 	H 	0.44360 0.05976 0.79346 0.03000
O 	O 	0.20996 0.11154 0.85734 -0.29400
H 	H 	0.20377 0.16093 0.84441 0.15400
C 	C 	0.73606 0.59216 0.83842 -0.02800
C 	C 	0.74156 0.66602 0.85578 -0.04400
C 	C 	0.78000 0.74171 0.83845 0.03800
C 	C 	0.81296 0.74399 0.80368 -0.15500
C 	C 	0.79810 0.67097 0.78438 0.19800
C 	C 	0.76056 0.59513 0.80195 -0.09800
H 	H 	0.78973 0.79781 0.85329 0.03000
H 	H 	0.75427 0.53849 0.78789 0.06300
H 	H 	0.72135 0.66457 0.88370 0.04600
O 	O 	0.82696 0.67269 0.74966 -0.30100
H 	H 	0.78790 0.67983 0.73357 0.14700
