data_crystal

_cell_length_a 16.47998
_cell_length_b 15.51226
_cell_length_c 38.35461
_cell_angle_alpha 89.87937
_cell_angle_beta  89.88237
_cell_angle_gamma 119.41308

_symmetry_space_group_name_	'P 1'
_symmetry_space_group_name_H-M	'P 1'

loop_
_symmetry_equiv_pos_as_xyz
  x,y,z

loop_
_atom_site_label
_atom_site_type_symbol
_atom_site_fract_x
_atom_site_fract_y
_atom_site_fract_z
_atom_site_charge
Ni	Ni	0.08821 0.94034 0.75407 1.10500
Ni	Ni	0.14105 0.17280 0.74870 1.12400
O 	O 	0.05471 0.03897 0.75955 -0.70700
H 	H 	0.05634 0.04697 0.78507 0.17400
O 	O 	0.08621 0.22806 0.24630 -0.36200
H 	H 	0.01424 0.03078 0.27274 0.14400
C 	C 	0.08601 0.31050 0.31462 0.00900
C 	C 	0.02619 0.38416 0.35824 0.09600
N 	N 	0.16461 0.56454 0.29301 -0.10200
C 	C 	0.07301 0.60945 0.51494 0.10500
C 	C 	0.09695 0.64756 0.48075 -0.09300
C 	C 	0.03524 0.66947 0.46201 0.09800
C 	C 	0.10606 0.22472 0.62701 0.11800
N 	N 	0.00799 0.66963 0.73533 -0.11300
C 	C 	0.02714 0.61935 0.00946 0.08600
C 	C 	0.00656 0.61776 0.04496 -0.11300
C 	C 	0.02657 0.87674 0.87067 0.09200
O 	O 	0.17247 0.00415 0.79588 -0.35600
O 	O 	0.18150 0.13401 0.70520 -0.38000
C 	C 	0.05966 0.12408 0.17246 0.28300
C 	C 	0.14060 0.22511 0.27056 0.28800
C 	C 	0.03996 0.84299 0.21077 0.27500
C 	C 	0.07277 0.88824 0.28830 0.26900
Ni	Ni	0.11970 0.04771 0.23348 1.13000
O 	O 	0.08828 0.93561 0.20020 -0.37900
O 	O 	0.12911 0.13973 0.19355 -0.35500
O 	O 	0.13686 0.97056 0.27257 -0.37300
O 	O 	0.17722 0.16676 0.26615 -0.34700
C 	C 	0.08098 0.15643 0.13513 -0.04400
C 	C 	0.04217 0.23655 0.08833 0.00400
C 	C 	0.01331 0.16042 0.11368 0.00100
C 	C 	0.05756 0.60489 0.20152 0.00100
C 	C 	0.01994 0.66996 0.20162 -0.00300
C 	C 	0.07969 0.77329 0.20691 -0.05400
C 	C 	0.14804 0.27415 0.30539 -0.05900
C 	C 	0.08930 0.34816 0.34849 0.01300
C 	C 	0.10865 0.84099 0.31231 -0.04500
C 	C 	0.09977 0.74862 0.30397 0.00300
C 	C 	0.16907 0.72586 0.31473 0.01400
C 	C 	0.16650 0.63609 0.30270 0.09900
Br	Br	0.07033 0.73291 0.41709 -0.17100
N 	N 	0.17983 0.23533 0.62236 -0.09600
N 	N 	0.14832 0.91657 0.63460 -0.07900
N 	N 	0.10700 0.91590 0.87139 -0.10000
O 	O 	0.08558 0.21721 0.78706 -0.36600
C 	C 	0.18230 0.65801 0.46408 0.34700
C 	C 	0.08280 0.63667 0.06838 0.34900
Br	Br	0.04310 0.52076 0.94784 -0.17800
N 	N 	0.04712 0.29445 0.54546 -0.07800
C 	C 	0.15721 0.35595 0.37231 -0.06000
O 	O 	0.06657 0.20457 0.71411 -0.35700
Br	Br	0.10455 0.74233 0.98615 -0.15500
C 	C 	0.01312 0.67219 0.28963 0.08800
Br	Br	0.13670 0.54799 0.53712 -0.16800
C 	C 	0.24694 0.09171 0.79370 0.28700
C 	C 	0.23447 0.09436 0.70529 0.31100
O 	O 	0.24435 0.17028 0.77969 -0.35000
O 	O 	0.21068 0.01289 0.72345 -0.33900
C 	C 	0.20482 0.44689 0.39367 0.30600
C 	C 	0.28398 0.74909 0.36091 0.31400
Ni	Ni	0.30097 0.56749 0.45702 1.13100
O 	O 	0.18434 0.57804 0.45430 -0.36100
O 	O 	0.23577 0.53117 0.37779 -0.36800
O 	O 	0.23534 0.44452 0.42525 -0.34300
O 	O 	0.34470 0.72455 0.34909 -0.35400
O 	O 	0.26499 0.74235 0.39399 -0.36800
O 	O 	0.25960 0.74402 0.46503 -0.35500
C 	C 	0.18636 0.61394 0.16665 0.30400
C 	C 	0.16585 0.41183 0.08218 0.30400
Ni	Ni	0.25152 0.74654 0.11002 1.12600
Ni	Ni	0.23077 0.60934 0.04628 1.12800
O 	O 	0.14031 0.72560 0.08017 -0.35000
O 	O 	0.25991 0.60080 0.16644 -0.34100
O 	O 	0.15927 0.63103 0.13744 -0.37700
O 	O 	0.18332 0.46076 0.11090 -0.36700
O 	O 	0.18940 0.46012 0.05210 -0.33900
O 	O 	0.11004 0.57225 0.06816 -0.39200
C 	C 	0.17337 0.20235 0.12287 0.01000
C 	C 	0.20234 0.27796 0.09755 0.00300
C 	C 	0.13759 0.30515 0.08442 -0.04300
C 	C 	0.23501 0.16530 0.13347 0.11400
N 	N 	0.28419 0.13564 0.14189 -0.08900
C 	C 	0.15439 0.64372 0.19841 -0.06100
C 	C 	0.17626 0.80745 0.21255 -0.00600
C 	C 	0.21091 0.73980 0.21131 -0.00400
C 	C 	0.24015 0.91100 0.21930 0.08600
N 	N 	0.29173 0.99367 0.22460 -0.11300
C 	C 	0.20305 0.30199 0.36567 0.00400
C 	C 	0.21041 0.27566 0.33123 0.00600
C 	C 	0.22141 0.25337 0.39406 0.11800
C 	C 	0.28667 0.25851 0.32220 0.11300
N 	N 	0.23433 0.21156 0.41641 -0.07500
C 	C 	0.23986 0.78982 0.33780 -0.06100
C 	C 	0.24466 0.88004 0.34751 0.02400
C 	C 	0.17420 0.90046 0.33723 0.01700
C 	C 	0.16649 0.98058 0.35311 0.09300
N 	N 	0.15932 0.04406 0.36575 -0.07400
Br	Br	0.28940 0.79769 0.54775 -0.14700
C 	C 	0.28887 0.09307 0.64503 0.05200
C 	C 	0.31027 0.13103 0.67921 -0.06300
C 	C 	0.31184 0.11779 0.58114 0.13500
C 	C 	0.21070 0.99490 0.63922 0.08000
N 	N 	0.28795 0.08999 0.55306 -0.06700
Br	Br	0.23619 0.97275 0.03346 -0.17000
C 	C 	0.32700 0.10682 0.81527 -0.04600
C 	C 	0.31761 0.10664 0.85190 0.01700
C 	C 	0.25186 0.13184 0.86751 0.11900
N 	N 	0.19900 0.15160 0.87988 -0.07800
O 	O 	0.26670 0.75183 0.02915 -0.33400
Br	Br	0.30401 0.37584 0.91945 -0.15600
Ni	Ni	0.36489 0.78509 0.43016 1.12700
O 	O 	0.35414 0.66282 0.49883 -0.33500
O 	O 	0.37120 0.66771 0.42354 -0.72000
Ni	Ni	0.31324 0.57871 0.11816 1.11600
O 	O 	0.33258 0.85264 0.07781 -0.37500
O 	O 	0.29294 0.66323 0.08868 -0.71600
C 	C 	0.29661 0.32395 0.08430 0.11100
C 	C 	0.29799 0.76430 0.22801 0.10500
N 	N 	0.34775 0.24488 0.31512 -0.08700
C 	C 	0.31882 0.94862 0.37009 0.07200
Br	Br	0.31465 0.33668 0.48380 -0.17500
C 	C 	0.34106 0.15193 0.61639 0.00800
Br	Br	0.23903 0.34914 0.00308 -0.15100
C 	C 	0.35551 0.06381 0.90967 0.11400
N 	N 	0.33924 0.04609 0.93899 -0.07800
C 	C 	0.32933 0.83858 0.04389 0.33000
Ni	Ni	0.37616 0.62911 0.37756 1.11800
O 	O 	0.35702 0.79029 0.14729 -0.35500
H 	H 	0.35615 0.71112 0.08051 0.18900
N 	N 	0.37768 0.00334 0.38819 -0.07200
C 	C 	0.38854 0.22541 0.68450 0.01300
C 	C 	0.41491 0.26373 0.71957 0.08500
C 	C 	0.36150 0.00332 0.02207 0.14900
C 	C 	0.39589 0.08629 0.80122 0.00800
C 	C 	0.37527 0.08535 0.87300 0.00700
C 	C 	0.39596 0.06395 0.76461 0.09900
N 	N 	0.39748 0.04548 0.73549 -0.08800
O 	O 	0.01534 0.87924 0.70863 -0.37500
O 	O 	0.35118 0.62501 0.02985 -0.36100
C 	C 	0.35831 0.45540 0.98943 0.09700
Br	Br	0.41784 0.97560 0.60596 -0.19700
O 	O 	0.37329 0.53825 0.07503 -0.33200
N 	N 	0.36730 0.78490 0.24195 -0.10100
C 	C 	0.42063 0.84663 0.55196 0.09700
N 	N 	0.43653 0.29491 0.74746 -0.09700
C 	C 	0.38570 0.92726 0.02245 -0.11200
Br	Br	0.39628 0.20483 0.01244 -0.14400
C 	C 	0.38934 0.45593 0.95507 0.11200
C 	C 	0.37953 0.56436 0.04090 0.32400
C 	C 	0.42495 0.75653 0.49882 0.32400
O 	O 	0.40895 0.52010 0.39556 -0.34700
O 	O 	0.41061 0.54345 0.45581 -0.35000
H 	H 	0.43554 0.68996 0.43118 0.17700
N 	N 	0.37236 0.35853 0.07407 -0.07700
N 	N 	0.39254 0.59199 0.21362 -0.10000
C 	C 	0.41503 0.35091 0.45389 0.10300
C 	C 	0.42113 0.24442 0.62198 -0.04600
C 	C 	0.01282 0.26968 0.57268 0.10500
O 	O 	0.45035 0.81293 0.47046 -0.37200
C 	C 	0.43190 0.50755 0.42803 0.32500
N 	N 	0.49708 0.99179 0.32383 -0.10100
C 	C 	0.43840 0.28479 0.65574 -0.00000
C 	C 	0.43039 0.10281 0.01572 0.09600
C 	C 	0.41940 0.52590 0.01421 -0.08200
C 	C 	0.46178 0.08183 0.82379 0.01000
O 	O 	0.47220 0.85966 0.39469 -0.35400
C 	C 	0.43238 0.77747 0.14667 0.29400
O 	O 	0.43352 0.70536 0.12914 -0.36000
C 	C 	0.47434 0.93292 0.57129 0.12000
C 	C 	0.46568 0.80535 0.53221 -0.08700
C 	C 	0.46743 0.43772 0.43384 -0.09800
C 	C 	0.46047 0.10215 0.85930 -0.04700
C 	C 	0.45084 0.67015 0.20566 0.09400
C 	C 	0.44845 0.28425 0.45769 0.10700
C 	C 	0.02294 0.31491 0.28928 0.08200
C 	C 	0.47902 0.95308 0.01653 0.08000
C 	C 	0.48419 0.50763 0.94755 -0.09600
O 	O 	0.51234 0.74246 0.37655 -0.34800
C 	C 	0.50024 0.27734 0.59733 0.30500
C 	C 	0.53606 0.83478 0.38478 0.27800
C 	C 	0.50683 0.82739 0.17258 -0.06000
Br	Br	0.36732 0.15024 0.47218 -0.13800
C 	C 	0.50327 0.38880 0.66076 0.10800
C 	C 	0.53761 0.07018 0.80995 0.11300
C 	C 	0.52534 0.44826 0.93465 0.32700
C 	C 	0.52481 0.76802 0.19601 0.01600
C 	C 	0.55636 0.45941 0.42125 0.10400
C 	C 	0.52375 0.12711 0.01052 -0.08500
Br	Br	0.51224 0.85107 0.01116 -0.15800
C 	C 	0.51278 0.58818 0.00405 0.10500
C 	C 	0.54117 0.19090 0.87222 0.28300
O 	O 	0.54090 0.27467 0.86650 -0.35500
O 	O 	0.54237 0.39842 0.95809 -0.37300
O 	O 	0.54037 0.22334 0.59503 -0.36400
O 	O 	0.54097 0.36779 0.58378 -0.35200
N 	N 	0.53952 0.04120 0.12819 -0.06100
C 	C 	0.55991 0.98434 0.33338 0.11600
C 	C 	0.54397 0.31918 0.45458 -0.10300
N 	N 	0.02132 0.39211 0.73185 -0.10100
C 	C 	0.01363 0.21146 0.63286 -0.01500
C 	C 	0.53997 0.58826 0.96914 0.10000
C 	C 	0.56158 0.84204 0.53741 0.09600
O 	O 	0.56304 0.31329 0.51610 -0.36900
C 	C 	0.55599 0.98991 0.14513 0.07200
C 	C 	0.57060 0.98583 0.56617 -0.14000
C 	C 	0.54835 0.05314 0.01600 0.12900
O 	O 	0.56325 0.46348 0.90255 -0.33000
C 	C 	0.59508 0.39984 0.43198 0.10500
Br	Br	0.62748 0.57391 0.39218 -0.16000
N 	N 	0.55437 0.47195 0.66522 -0.09800
C 	C 	0.58068 0.20581 0.98536 0.32200
H 	H 	0.58021 0.29884 0.92622 0.18000
C 	C 	0.59079 0.30523 0.48503 0.33800
C 	C 	0.57657 0.92547 0.16631 0.02800
N 	N 	0.59837 0.06105 0.79892 -0.09000
O 	O 	0.59973 0.17552 0.95597 -0.36600
C 	C 	0.61545 0.93586 0.55271 0.11600
Br	Br	0.61805 0.76558 0.52243 -0.16100
Br	Br	0.60198 0.67627 0.03731 -0.15100
O 	O 	0.61901 0.18941 0.88177 -0.34300
C 	C 	0.61699 0.09434 0.56454 0.38000
N 	N 	0.62706 0.64714 0.59997 -0.08700
N 	N 	0.60734 0.51362 0.83657 -0.12700
C 	C 	0.61567 0.80088 0.20834 0.00200
O 	O 	0.62552 0.13748 0.53435 -0.35700
O 	O 	0.62832 0.30138 0.99549 -0.33600
C 	C 	0.62987 0.91342 0.37364 -0.03000
C 	C 	0.63895 0.97508 0.34496 -0.03800
C 	C 	0.63312 0.74004 0.23268 0.10000
Br	Br	0.63519 0.70821 0.94862 -0.15900
O 	O 	0.64693 0.34669 0.92324 -0.71500
Ni	Ni	0.64953 0.40714 0.88039 1.12200
Ni	Ni	0.64944 0.41920 0.54883 1.12600
N 	N 	0.64700 0.69158 0.25210 -0.10100
C 	C 	0.00917 0.13900 0.69149 0.28600
O 	O 	0.66111 0.14652 0.59196 -0.36200
O 	O 	0.66148 0.28892 0.48130 -0.33100
C 	C 	0.66562 0.58603 0.84858 0.06700
C 	C 	0.66762 0.95915 0.17887 -0.02400
Ni	Ni	0.67179 0.42543 0.96378 1.12800
Ni	Ni	0.67578 0.28227 0.60392 1.13000
Br	Br	0.67783 0.08868 0.01833 -0.12600
N 	N 	0.68385 0.76946 0.78639 -0.10000
C 	C 	0.68539 0.65227 0.61805 0.11400
O 	O 	0.68726 0.40454 0.62852 -0.36600
N 	N 	0.68720 0.19645 0.66500 -0.12700
C 	C 	0.68863 0.89432 0.19814 -0.03900
O 	O 	0.99778 0.01643 0.24794 -0.69200
C 	C 	0.99671 0.49904 0.19890 0.12600
C 	C 	0.97461 0.24559 0.06692 0.13300
O 	O 	0.97868 0.10576 0.18559 -0.34000
C 	C 	0.98906 0.52955 0.99126 0.10700
C 	C 	0.91909 0.07822 0.11345 0.13400
N 	N 	0.92079 0.25277 0.04963 -0.07300
N 	N 	0.94807 0.41444 0.19672 -0.08900
C 	C 	0.92171 0.63106 0.19456 0.13300
Br	Br	0.87248 0.55343 0.10079 -0.15700
O 	O 	0.98463 0.86799 0.29210 -0.35500
O 	O 	0.95313 0.80825 0.22152 -0.35200
N 	N 	0.84320 0.59978 0.18901 -0.08300
C 	C 	0.91876 0.54285 0.05594 0.11700
N 	N 	0.84396 0.01202 0.11303 -0.08200
C 	C 	0.76617 0.59202 0.91205 0.31100
C 	C 	0.79851 0.35467 0.86172 0.30400
C 	C 	0.83183 0.40834 0.97544 0.34600
Ni	Ni	0.70163 0.26349 0.92452 1.13200
O 	O 	0.80433 0.46563 0.96227 -0.38600
O 	O 	0.77228 0.52614 0.89401 -0.36600
O 	O 	0.71580 0.56396 0.94107 -0.33900
O 	O 	0.72882 0.36344 0.84871 -0.33900
O 	O 	0.80907 0.35916 0.89518 -0.36000
O 	O 	0.79028 0.31417 0.96647 -0.33700
C 	C 	0.83217 0.49440 0.50929 0.31600
C 	C 	0.84748 0.28265 0.59060 0.30500
C 	C 	0.73577 0.49737 0.61692 0.29700
Ni	Ni	0.73612 0.27668 0.52368 1.12300
O 	O 	0.83879 0.41292 0.50647 -0.34200
O 	O 	0.74924 0.49090 0.51040 -0.34100
O 	O 	0.73126 0.51993 0.58391 -0.36000
O 	O 	0.82654 0.25298 0.55735 -0.32600
O 	O 	0.81335 0.33356 0.60570 -0.36400
O 	O 	0.70635 0.34157 0.55917 -0.71300
H 	H 	0.76869 0.39735 0.56358 0.17000
C 	C 	0.92469 0.83433 0.70856 0.31600
C 	C 	0.92744 0.87961 0.80776 0.28000
C 	C 	0.99547 0.19076 0.78702 0.29800
Ni	Ni	0.92894 0.99996 0.74798 1.11500
O 	O 	0.96801 0.04484 0.69911 -0.34900
O 	O 	0.88062 0.85803 0.73173 -0.37100
O 	O 	0.93827 0.12997 0.76309 -0.35800
O 	O 	0.97347 0.84854 0.78684 -0.34300
O 	O 	0.90091 0.94302 0.79646 -0.37000
C 	C 	0.85581 0.00020 0.30451 0.34700
C 	C 	0.78209 0.93260 0.21377 0.27400
Ni	Ni	0.95501 0.10716 0.23883 1.12300
Ni	Ni	0.90795 0.88086 0.25338 1.11900
O 	O 	0.91671 0.08787 0.29117 -0.36300
O 	O 	0.83180 0.91500 0.28792 -0.37800
O 	O 	0.81488 0.01296 0.23218 -0.34300
O 	O 	0.82481 0.87937 0.21340 -0.35300
C 	C 	0.73892 0.06103 0.17271 0.14100
N 	N 	0.79554 0.14241 0.16789 -0.09800
C 	C 	0.79378 0.99752 0.33293 -0.12200
C 	C 	0.72255 0.02014 0.32545 0.07900
C 	C 	0.70910 0.90892 0.38522 -0.01000
C 	C 	0.79067 0.94976 0.36453 0.03600
C 	C 	0.73338 0.08580 0.29669 0.09200
C 	C 	0.70411 0.85553 0.41689 0.11400
C 	C 	0.86977 0.93904 0.37498 0.09200
N 	N 	0.93285 0.93037 0.38330 -0.08000
N 	N 	0.70040 0.81260 0.44207 -0.07600
N 	N 	0.74189 0.13821 0.27375 -0.08600
N 	N 	0.97594 0.41305 0.36601 -0.07300
N 	N 	0.97239 0.31874 0.26923 -0.09400
N 	N 	0.94336 0.61063 0.27857 -0.08600
Br	Br	0.74896 0.99637 0.55473 -0.19100
C 	C 	0.94584 0.64059 0.47595 0.12000
C 	C 	0.91937 0.58945 0.50786 -0.09900
C 	C 	0.99069 0.59816 0.52986 0.11500
Br	Br	0.86143 0.67280 0.45236 -0.12900
Br	Br	0.96799 0.57456 0.57898 -0.17900
Br	Br	0.71387 0.42437 0.41436 -0.13800
C 	C 	0.88334 0.23296 0.61381 -0.05300
C 	C 	0.83706 0.19145 0.64597 0.02600
C 	C 	0.87518 0.15268 0.66944 0.00700
C 	C 	0.96674 0.17077 0.66458 -0.02700
C 	C 	0.96973 0.23808 0.60671 0.04300
C 	C 	0.75347 0.19429 0.65625 0.09200
C 	C 	0.81878 0.09205 0.69837 0.10300
N 	N 	0.77285 0.04331 0.72115 -0.10700
C 	C 	0.77793 0.57940 0.64262 -0.04300
C 	C 	0.84153 0.58164 0.66777 0.00900
C 	C 	0.88866 0.66464 0.68966 0.01300
C 	C 	0.87232 0.74561 0.68659 -0.05900
C 	C 	0.80731 0.74251 0.66209 0.01300
C 	C 	0.75835 0.65861 0.64082 0.01100
C 	C 	0.85951 0.49938 0.67102 0.11100
C 	C 	0.79327 0.82721 0.65778 0.10200
C 	C 	0.95490 0.66725 0.71511 0.10900
N 	N 	0.78191 0.89461 0.65418 -0.09900
N 	N 	0.87445 0.43422 0.67392 -0.09200
C 	C 	0.87303 0.45398 0.03661 0.09300
C 	C 	0.90330 0.45035 0.00232 -0.09400
Br	Br	0.76797 0.33968 0.05635 -0.14200
C 	C 	0.96178 0.24635 0.80837 -0.04600
C 	C 	0.92155 0.20791 0.84105 0.00600
C 	C 	0.85765 0.23304 0.85590 0.02000
C 	C 	0.84476 0.30932 0.84087 -0.05800
C 	C 	0.88882 0.35174 0.80883 0.01300
C 	C 	0.94646 0.31959 0.79243 0.00500
C 	C 	0.94264 0.13844 0.85873 0.11500
C 	C 	0.87377 0.42698 0.79245 0.10600
C 	C 	0.98817 0.36001 0.75875 0.11500
C 	C 	0.80184 0.17670 0.88555 0.07900
N 	N 	0.75779 0.13124 0.90921 -0.11600
N 	N 	0.86137 0.48686 0.77942 -0.09600
N 	N 	0.95946 0.08301 0.87278 -0.08200
C 	C 	0.78675 0.68455 0.89358 -0.05300
C 	C 	0.87496 0.76790 0.89890 0.01300
C 	C 	0.92603 0.82577 0.86995 0.01200
C 	C 	0.87848 0.81964 0.83870 -0.05000
C 	C 	0.78186 0.75678 0.83748 0.00700
C 	C 	0.74011 0.67889 0.86146 0.01800
C 	C 	0.91471 0.79056 0.93348 0.12000
C 	C 	0.72733 0.76387 0.80905 0.10800
N 	N 	0.94607 0.80889 0.96121 -0.07500
