data_crystal

_cell_length_a 26.19166
_cell_length_b 26.34979
_cell_length_c 45.21389
_cell_angle_alpha 95.48277
_cell_angle_beta  95.48241
_cell_angle_gamma 125.91615

_symmetry_space_group_name_	'P 1'
_symmetry_space_group_name_H-M	'P 1'

loop_
_symmetry_equiv_pos_as_xyz
  x,y,z

loop_
_atom_site_label
_atom_site_type_symbol
_atom_site_fract_x
_atom_site_fract_y
_atom_site_fract_z
_atom_site_charge
C 	C 	0.97062 0.03556 0.99692 0.11100
C 	C 	0.05650 0.03402 0.98708 0.11700
N 	N 	0.03062 0.06586 0.99048 -0.13700
C 	C 	0.03638 0.01097 0.48259 0.11700
N 	N 	0.00369 0.03617 0.48210 -0.13900
C 	C 	0.82217 0.03246 0.45226 -0.04500
C 	C 	0.84765 0.08907 0.47264 0.00400
C 	C 	0.89980 0.11254 0.49592 -0.04600
C 	C 	0.92766 0.08095 0.49826 -0.02300
C 	C 	0.90370 0.02551 0.47730 -0.02200
H 	H 	0.96848 0.10008 0.51611 0.03800
H 	H 	0.78157 0.01369 0.43434 0.04000
H 	H 	0.90541 0.20723 0.45927 0.04500
C 	C 	0.20889 0.07089 0.50030 -0.04400
C 	C 	0.23939 0.12490 0.48672 0.00500
C 	C 	0.20393 0.14420 0.47381 -0.04500
C 	C 	0.13796 0.10830 0.47339 -0.02200
C 	C 	0.10690 0.05281 0.48597 -0.01900
C 	C 	0.14303 0.03514 0.50003 -0.02500
H 	H 	0.11077 0.12257 0.46251 0.04200
H 	H 	0.23595 0.05581 0.51045 0.04000
H 	H 	0.28894 0.14000 0.43559 0.04600
C 	C 	0.77317 0.10942 0.99939 -0.06500
C 	C 	0.87751 0.12512 0.00268 0.00300
H 	H 	0.68561 0.10043 0.99337 0.03100
H 	H 	0.74853 0.05860 0.99782 0.04500
C 	C 	0.87347 0.08799 0.02394 -0.04400
C 	C 	0.90526 0.06011 0.02253 -0.02500
C 	C 	0.94173 0.06940 0.99996 -0.01700
C 	C 	0.94735 0.10814 0.97927 -0.02500
H 	H 	0.84515 0.08018 0.04133 0.04000
C 	C 	0.24946 0.12128 0.97501 0.00500
C 	C 	0.19940 0.06066 0.95828 -0.04400
C 	C 	0.13591 0.03352 0.96100 -0.02400
C 	C 	0.12188 0.06671 0.98059 -0.01900
H 	H 	0.20983 0.03395 0.94373 0.04000
C 	C 	0.34080 0.11608 0.98782 -0.06600
H 	H 	0.42383 0.11925 0.00060 0.03600
H 	H 	0.30946 0.07302 0.99659 0.04700
C 	C 	0.82000 0.12404 0.46965 0.02400
C 	C 	0.84033 0.15090 0.00282 0.02300
C 	C 	0.73750 0.13318 0.99693 0.01200
C 	C 	0.17172 0.12875 0.99614 -0.02100
O 	O 	0.54041 0.20296 0.99663 -0.36300
O 	O 	0.67472 0.19573 0.99856 -0.37300
C 	C 	0.73090 0.22236 0.99052 0.28700
H 	H 	0.59020 0.22952 0.94515 0.17200
O 	O 	0.71544 0.22672 0.49772 -0.44200
H 	H 	0.60363 0.22889 0.45418 0.16400
H 	H 	0.57818 0.22265 0.84954 0.02800
H 	H 	0.56141 0.26363 0.10150 0.03400
H 	H 	0.57117 0.25439 0.15510 0.04900
H 	H 	0.91909 0.15560 0.51207 0.03800
C 	C 	0.85770 0.18642 0.46390 -0.06700
C 	C 	0.83488 0.22294 0.46525 0.01300
C 	C 	0.77413 0.19740 0.47243 -0.09500
C 	C 	0.73507 0.13372 0.47650 0.01200
C 	C 	0.75797 0.09729 0.47517 -0.06800
H 	H 	0.86537 0.27177 0.46182 0.03300
H 	H 	0.68757 0.11292 0.48141 0.02800
H 	H 	0.72830 0.04900 0.47938 0.04400
C 	C 	0.30752 0.15901 0.48450 0.02500
H 	H 	0.22725 0.18626 0.46357 0.04100
C 	C 	0.35473 0.18691 0.51079 -0.06600
C 	C 	0.41907 0.21733 0.50862 0.01500
C 	C 	0.43676 0.22034 0.48011 -0.08900
C 	C 	0.38947 0.19259 0.45382 0.01400
C 	C 	0.32516 0.16197 0.45602 -0.06600
H 	H 	0.34157 0.18502 0.53288 0.04600
H 	H 	0.40244 0.19418 0.43170 0.02700
C 	C 	0.87162 0.21664 0.00490 -0.06700
C 	C 	0.83595 0.24034 0.00221 0.01100
C 	C 	0.76862 0.19858 0.99759 -0.09400
H 	H 	0.92348 0.24919 0.00804 0.04300
C 	C 	0.91519 0.13566 0.98055 -0.04300
H 	H 	0.97514 0.11548 0.96169 0.03900
H 	H 	0.91851 0.16410 0.96398 0.03700
C 	C 	0.23528 0.15589 0.99339 -0.04300
C 	C 	0.31678 0.14636 0.97515 0.02400
H 	H 	0.16157 0.15492 0.01127 0.04000
H 	H 	0.27365 0.20290 0.00629 0.04000
C 	C 	0.35761 0.20176 0.96364 -0.06600
C 	C 	0.44742 0.19935 0.97968 -0.08900
C 	C 	0.40571 0.14232 0.99004 0.01400
C 	C 	0.75380 0.23859 0.47840 0.28800
H 	H 	0.57365 0.23766 0.79658 0.04800
H 	H 	0.45517 0.23913 0.52908 0.03600
Cu	Cu	0.63487 0.24110 0.00029 0.92700
Cu	Cu	0.69504 0.25238 0.93869 0.87000
C 	C 	0.51751 0.23192 0.98578 0.28200
O 	O 	0.65970 0.26033 0.90209 -0.42000
O 	O 	0.54298 0.25298 0.49882 -0.38600
C 	C 	0.50463 0.25333 0.47773 0.29300
H 	H 	0.56744 0.29606 0.64556 0.04900
H 	H 	0.57653 0.28666 0.59187 0.03400
C 	C 	0.60046 0.26369 0.11192 0.01800
C 	C 	0.60573 0.25806 0.14226 -0.07300
H 	H 	0.56807 0.21199 0.29909 0.04900
H 	H 	0.57030 0.23007 0.35390 0.02100
C 	C 	0.42254 0.22799 0.96574 0.01000
O 	O 	0.63342 0.25433 0.95801 -0.64200
O 	O 	0.75080 0.26625 0.97374 -0.44200
O 	O 	0.64971 0.24507 0.04308 -0.36300
C 	C 	0.60974 0.27005 0.84450 0.01700
C 	C 	0.60698 0.27858 0.81450 -0.07400
C 	C 	0.61254 0.23382 0.31490 -0.07300
C 	C 	0.61385 0.24421 0.34595 0.01700
H 	H 	0.86058 0.29102 0.00321 0.02700
H 	H 	0.33925 0.22495 0.95344 0.04600
O 	O 	0.63137 0.27564 0.46146 -0.64100
Cu	Cu	0.73691 0.29288 0.52917 0.86800
O 	O 	0.77727 0.28947 0.46605 -0.37500
C 	C 	0.61972 0.31704 0.60903 0.01600
C 	C 	0.65580 0.25791 0.15608 0.04400
C 	C 	0.66282 0.25572 0.18782 -0.03100
C 	C 	0.66645 0.25383 0.21443 -0.00200
C 	C 	0.66887 0.25265 0.24566 -0.00200
C 	C 	0.66958 0.25266 0.27237 -0.03100
C 	C 	0.66900 0.25403 0.30426 0.04500
C 	C 	0.64536 0.26927 0.09508 -0.08700
C 	C 	0.61451 0.32226 0.63949 -0.07300
O 	O 	0.52616 0.28613 0.45573 -0.39500
C 	C 	0.67168 0.27483 0.36662 -0.08800
C 	C 	0.64104 0.27767 0.06337 0.28900
Cu	Cu	0.63504 0.30156 0.50311 0.89700
O 	O 	0.71561 0.29694 0.41947 -0.36400
H 	H 	0.45367 0.27120 0.95705 0.03200
C 	C 	0.67502 0.29496 0.39872 0.28900
C 	C 	0.72615 0.28171 0.32487 -0.07300
O 	O 	0.55718 0.29249 0.98417 -0.39400
C 	C 	0.66391 0.31176 0.89871 0.28900
O 	O 	0.63792 0.31544 0.54713 -0.38700
C 	C 	0.72751 0.29190 0.35598 0.02100
C 	C 	0.70010 0.26230 0.13926 -0.07200
H 	H 	0.76996 0.29723 0.31681 0.05000
C 	C 	0.69484 0.26782 0.10880 0.01600
H 	H 	0.90119 0.03095 0.03886 0.04000
C 	C 	0.65446 0.32227 0.86783 -0.09300
O 	O 	0.61521 0.30601 0.05512 -0.38700
H 	H 	0.77245 0.31545 0.37168 0.03700
H 	H 	0.73893 0.26216 0.14981 0.04900
H 	H 	0.72974 0.27202 0.09606 0.03200
Cu	Cu	0.60821 0.32022 0.44104 0.89400
Cu	Cu	0.73046 0.32757 0.46187 0.92700
O 	O 	0.64897 0.32404 0.40527 -0.38600
C 	C 	0.68609 0.33526 0.56935 0.28800
C 	C 	0.85007 0.00073 0.45459 -0.02500
H 	H 	0.09775 0.98609 0.94845 0.04300
H 	H 	0.11990 0.99313 0.51031 0.04300
N 	N 	0.93667 0.97343 0.99992 -0.13800
C 	C 	0.96249 0.94162 0.99656 0.11100
N 	N 	0.02234 0.97201 0.99016 -0.13600
C 	C 	0.93853 0.99739 0.47749 0.11500
N 	N 	0.90590 0.93295 0.47325 -0.14000
C 	C 	0.93867 0.90761 0.47395 0.11300
N 	N 	0.00379 0.94684 0.47871 -0.13700
Cu	Cu	0.67864 0.34857 0.96478 0.89700
Cu	Cu	0.63424 0.35717 0.02229 0.89300
O 	O 	0.68790 0.34081 0.00629 -0.64200
O 	O 	0.72714 0.44034 0.97418 -0.38500
C 	C 	0.71907 0.47266 0.99498 0.29100
O 	O 	0.67501 0.44370 0.01201 -0.39700
O 	O 	0.68437 0.35764 0.92211 -0.38900
H 	H 	0.73280 0.36732 0.01743 0.16300
O 	O 	0.76498 0.41807 0.45753 -0.36300
O 	O 	0.72891 0.34549 0.50513 -0.64200
C 	C 	0.73825 0.44403 0.46768 0.28300
O 	O 	0.67976 0.40756 0.47309 -0.39400
O 	O 	0.73712 0.33964 0.56415 -0.42200
H 	H 	0.75591 0.39117 0.51474 0.17200
C 	C 	0.68051 0.34842 0.60093 -0.09300
C 	C 	0.73589 0.38807 0.62355 0.01600
C 	C 	0.73052 0.39317 0.65399 -0.07400
C 	C 	0.66987 0.35899 0.66206 0.04400
C 	C 	0.66455 0.35658 0.69339 -0.03300
C 	C 	0.66033 0.35471 0.71965 -0.00300
C 	C 	0.65577 0.35090 0.75033 -0.00300
C 	C 	0.65229 0.34632 0.77646 -0.03200
C 	C 	0.64876 0.33929 0.80757 0.04400
C 	C 	0.69126 0.39201 0.83091 -0.07300
C 	C 	0.69401 0.38363 0.86097 0.01700
H 	H 	0.78308 0.41374 0.61763 0.02900
H 	H 	0.77354 0.42220 0.67132 0.04700
H 	H 	0.72352 0.43916 0.82572 0.04900
H 	H 	0.72858 0.42440 0.87872 0.03400
C 	C 	0.80043 0.61434 0.49359 -0.06600
C 	C 	0.81749 0.63923 0.46709 0.02400
C 	C 	0.81019 0.60009 0.44111 -0.06500
C 	C 	0.78681 0.53705 0.44174 0.01400
C 	C 	0.76913 0.51205 0.46810 -0.09000
C 	C 	0.77575 0.55082 0.49398 0.01300
C 	C 	0.84611 0.70715 0.46697 0.00600
H 	H 	0.82264 0.61852 0.42045 0.04600
H 	H 	0.78094 0.50716 0.42150 0.03400
H 	H 	0.76186 0.53180 0.51440 0.02500
H 	H 	0.80663 0.64425 0.51390 0.04500
C 	C 	0.81521 0.73310 0.47670 -0.04500
C 	C 	0.84421 0.79816 0.47806 -0.02300
C 	C 	0.90405 0.83768 0.46936 -0.02000
C 	C 	0.93339 0.81088 0.45840 -0.02300
C 	C 	0.90504 0.74632 0.45758 -0.04500
H 	H 	0.76919 0.70310 0.48354 0.04000
H 	H 	0.82087 0.81796 0.48652 0.04100
H 	H 	0.97885 0.84037 0.45100 0.04000
H 	H 	0.92936 0.72691 0.45005 0.04000
H 	H 	0.83121 0.95808 0.43824 0.04200
C 	C 	0.92182 0.78635 0.01465 -0.04000
C 	C 	0.85718 0.74332 0.00036 -0.00100
C 	C 	0.82628 0.76608 0.98617 -0.04000
C 	C 	0.86015 0.83117 0.98569 -0.02600
C 	C 	0.92533 0.87399 0.99925 -0.01400
C 	C 	0.95579 0.85135 0.01403 -0.03300
C 	C 	0.82244 0.67428 0.99948 0.02900
H 	H 	0.77639 0.73320 0.97505 0.04000
H 	H 	0.83619 0.84803 0.97412 0.04100
H 	H 	0.00586 0.88406 0.02490 0.04700
H 	H 	0.94587 0.76933 0.02599 0.03800
C 	C 	0.84451 0.64226 0.98582 -0.06700
C 	C 	0.81127 0.57672 0.98464 0.01400
C 	C 	0.75519 0.54234 0.99691 -0.08700
C 	C 	0.73338 0.57465 0.01074 0.01200
C 	C 	0.76694 0.64027 0.01205 -0.06900
H 	H 	0.88728 0.66812 0.97599 0.04600
H 	H 	0.82916 0.55276 0.97420 0.03300
H 	H 	0.69016 0.54894 0.02023 0.03300
H 	H 	0.74973 0.66467 0.02279 0.04600
