data_crystal

_cell_length_a 21.44028
_cell_length_b 21.35883
_cell_length_c 51.08039
_cell_angle_alpha 89.88807
_cell_angle_beta  89.89154
_cell_angle_gamma 119.40574

_symmetry_space_group_name_	'P 1'
_symmetry_space_group_name_H-M	'P 1'

loop_
_symmetry_equiv_pos_as_xyz
  x,y,z

loop_
_atom_site_label
_atom_site_type_symbol
_atom_site_fract_x
_atom_site_fract_y
_atom_site_fract_z
_atom_site_charge
C 	C 	0.52969 0.23004 0.88879 0.25200
C 	C 	0.80156 0.49626 0.90099 0.27500
C 	C 	0.71972 0.27633 0.86749 0.27600
C 	C 	0.61692 0.44977 0.92533 0.28400
C 	C 	0.79516 0.32169 0.94720 0.30800
C 	C 	0.60815 0.26262 0.97253 0.28900
Ni	Ni	0.66290 0.37382 0.88465 1.11200
Ni	Ni	0.71586 0.40037 0.94500 1.12200
Ni	Ni	0.65554 0.24457 0.92027 1.12200
O 	O 	0.55502 0.29862 0.88234 -0.36100
O 	O 	0.57361 0.20375 0.89346 -0.34800
O 	O 	0.79974 0.38382 0.94152 -0.38800
O 	O 	0.77264 0.44117 0.88520 -0.36000
O 	O 	0.77257 0.49294 0.92401 -0.36900
O 	O 	0.58891 0.22358 0.95075 -0.38400
O 	O 	0.67817 0.30290 0.86091 -0.35200
O 	O 	0.73036 0.26748 0.89212 -0.37000
O 	O 	0.66912 0.32530 0.97400 -0.38100
O 	O 	0.64494 0.45352 0.90162 -0.36800
O 	O 	0.63869 0.42870 0.94630 -0.37700
O 	O 	0.73306 0.26194 0.94641 -0.38400
O 	O 	0.66172 0.33602 0.91789 -0.71900
H 	H 	0.61307 0.32321 0.92372 0.15800
C 	C 	0.79016 0.47555 0.54752 0.28800
C 	C 	0.62462 0.16881 0.57219 0.31000
C 	C 	0.61107 0.33680 0.52276 0.30900
C 	C 	0.80019 0.30029 0.60038 0.25900
C 	C 	0.52133 0.28382 0.60180 0.27700
C 	C 	0.70344 0.43745 0.62810 0.25600
Ni	Ni	0.72160 0.31474 0.55158 1.11400
Ni	Ni	0.65750 0.28606 0.61065 1.12100
Ni	Ni	0.64551 0.40183 0.57473 1.12000
O 	O 	0.80274 0.42046 0.54796 -0.37000
O 	O 	0.72360 0.46540 0.54831 -0.37700
O 	O 	0.55279 0.24451 0.60321 -0.36700
O 	O 	0.63269 0.21359 0.55329 -0.37600
O 	O 	0.64834 0.19292 0.59587 -0.37000
O 	O 	0.70005 0.46428 0.60500 -0.37000
O 	O 	0.67366 0.33994 0.52078 -0.37000
O 	O 	0.58411 0.33599 0.54586 -0.38600
O 	O 	0.66361 0.36746 0.63350 -0.36500
O 	O 	0.78043 0.28187 0.57554 -0.34900
O 	O 	0.76117 0.31480 0.61701 -0.36900
O 	O 	0.55906 0.35391 0.59852 -0.37800
O 	O 	0.69112 0.34618 0.58062 -0.71800
H 	H 	0.73763 0.38376 0.58725 0.16100
C 	C 	0.14342 0.04150 0.78320 0.26800
C 	C 	0.92308 0.86762 0.70606 0.27400
C 	C 	0.13678 0.06897 0.70925 0.27600
C 	C 	0.92470 0.84408 0.78004 0.25600
C 	C 	0.94120 0.07706 0.71636 0.27400
C 	C 	0.94439 0.06416 0.79115 0.26200
Ni	Ni	0.04716 0.93761 0.74236 1.11000
Ni	Ni	0.90364 0.95053 0.74919 1.11800
Ni	Ni	0.05631 0.09205 0.75184 1.12400
O 	O 	0.11007 0.97305 0.77579 -0.37200
O 	O 	0.14418 0.09288 0.76811 -0.35100
O 	O 	0.90987 0.00640 0.71659 -0.36900
O 	O 	0.99297 0.90817 0.70695 -0.37300
O 	O 	0.88323 0.86516 0.72603 -0.35700
O 	O 	0.01466 0.09590 0.78680 -0.35600
O 	O 	0.13707 0.01750 0.72329 -0.36000
O 	O 	0.09390 0.09448 0.71513 -0.36100
O 	O 	0.89711 0.02351 0.77302 -0.36400
O 	O 	0.96579 0.84483 0.76031 -0.36100
O 	O 	0.89193 0.88337 0.77937 -0.35500
O 	O 	0.98438 0.11493 0.73541 -0.35600
O 	O 	0.00385 0.99050 0.75362 -0.72700
H 	H 	0.00535 0.98476 0.77270 0.15600
C 	C 	0.46663 0.76516 0.39079 0.25400
C 	C 	0.18805 0.50636 0.40321 0.27500
C 	C 	0.28012 0.72837 0.36918 0.27600
C 	C 	0.37012 0.54691 0.42827 0.28600
C 	C 	0.20222 0.68685 0.44857 0.30900
C 	C 	0.38579 0.73651 0.47461 0.29100
Ni	Ni	0.32935 0.62506 0.38695 1.11300
Ni	Ni	0.27437 0.60105 0.44727 1.12200
Ni	Ni	0.34303 0.75756 0.42201 1.12100
O 	O 	0.43840 0.69618 0.38469 -0.34900
O 	O 	0.42539 0.79468 0.39529 -0.36400
O 	O 	0.19412 0.62306 0.44331 -0.38700
O 	O 	0.21908 0.56172 0.38748 -0.36000
O 	O 	0.21472 0.50879 0.42659 -0.36800
O 	O 	0.40796 0.77490 0.45265 -0.38500
O 	O 	0.31872 0.69829 0.36278 -0.35500
O 	O 	0.26983 0.73822 0.39374 -0.37000
O 	O 	0.32301 0.67571 0.47611 -0.37900
O 	O 	0.34233 0.54296 0.40459 -0.36700
O 	O 	0.34754 0.56740 0.44919 -0.37500
O 	O 	0.26614 0.74432 0.44791 -0.38600
O 	O 	0.33149 0.66387 0.42002 -0.71800
H 	H 	0.37926 0.67425 0.42598 0.15900
C 	C 	0.21602 0.54385 0.04649 0.28600
C 	C 	0.39655 0.84420 0.07727 0.30500
C 	C 	0.39925 0.67735 0.02391 0.30800
C 	C 	0.21185 0.71460 0.10244 0.25800
C 	C 	0.48359 0.71628 0.10355 0.27600
C 	C 	0.29574 0.56455 0.12759 0.25600
Ni	Ni	0.29250 0.70444 0.05342 1.11400
Ni	Ni	0.35006 0.71939 0.11301 1.12100
Ni	Ni	0.35839 0.60588 0.07482 1.12100
O 	O 	0.20767 0.60154 0.04767 -0.37000
O 	O 	0.28082 0.54950 0.04743 -0.37700
O 	O 	0.45487 0.75774 0.10647 -0.36800
O 	O 	0.38406 0.80369 0.05656 -0.37500
O 	O 	0.36498 0.81583 0.09968 -0.37600
O 	O 	0.29934 0.54033 0.10400 -0.37000
O 	O 	0.33972 0.68048 0.02199 -0.37100
O 	O 	0.42386 0.67374 0.04697 -0.38700
O 	O 	0.33820 0.63303 0.13420 -0.36000
O 	O 	0.23506 0.73738 0.07811 -0.36200
O 	O 	0.24710 0.69459 0.11877 -0.36000
O 	O 	0.44337 0.64693 0.09924 -0.37400
O 	O 	0.31742 0.66519 0.08174 -0.71800
H 	H 	0.26948 0.62828 0.08759 0.15800
C 	C 	0.85072 0.95589 0.28334 0.24500
C 	C 	0.07929 0.13621 0.20935 0.27600
C 	C 	0.86644 0.93304 0.20980 0.27600
C 	C 	0.06722 0.15582 0.28349 0.25400
C 	C 	0.06389 0.92998 0.21957 0.26800
C 	C 	0.05067 0.93596 0.29431 0.25900
Ni	Ni	0.95078 0.06332 0.24386 1.11600
Ni	Ni	0.09485 0.05301 0.25320 1.12200
Ni	Ni	0.94352 0.90961 0.25339 1.12000
O 	O 	0.88348 0.02465 0.27624 -0.33900
O 	O 	0.85283 0.90595 0.26830 -0.35900
O 	O 	0.09461 0.00049 0.22051 -0.35700
O 	O 	0.00937 0.09594 0.20925 -0.35200
O 	O 	0.11607 0.13926 0.23033 -0.36900
O 	O 	0.98102 0.90402 0.28893 -0.36600
O 	O 	0.86401 0.98394 0.22343 -0.36200
O 	O 	0.91043 0.90931 0.21618 -0.36400
O 	O 	0.10008 0.97923 0.27708 -0.37300
O 	O 	0.02840 0.15557 0.26310 -0.35700
O 	O 	0.10091 0.11738 0.28348 -0.35200
O 	O 	0.01886 0.88996 0.23800 -0.37200
O 	O 	0.99399 0.01099 0.25595 -0.71800
H 	H 	0.98971 0.01522 0.27498 0.15900
C 	C 	0.13119 0.27995 0.16542 0.11800
C 	C 	0.11987 0.33679 0.15792 -0.08700
C 	C 	0.17558 0.40737 0.16176 0.01400
C 	C 	0.24132 0.42133 0.17120 0.11800
C 	C 	0.25298 0.36448 0.17824 -0.08500
C 	C 	0.19756 0.29389 0.17422 0.01200
O 	O 	0.07538 0.21382 0.17350 -0.18600
C 	C 	0.11432 0.19037 0.18862 0.04700
C 	C 	0.18721 0.23736 0.18881 -0.05400
O 	O 	0.29715 0.48820 0.16395 -0.18500
C 	C 	0.25921 0.51181 0.14837 0.05200
C 	C 	0.18664 0.46411 0.14708 -0.06000
H 	H 	0.06849 0.32641 0.15039 0.06800
H 	H 	0.30438 0.37490 0.18578 0.06900
H 	H 	0.22327 0.23954 0.20408 0.06200
H 	H 	0.15253 0.46169 0.13102 0.05500
C 	C 	0.72345 0.81618 0.16934 0.12000
C 	C 	0.68193 0.75393 0.15471 -0.08700
C 	C 	0.65146 0.76067 0.13125 0.01200
C 	C 	0.66089 0.82646 0.12293 0.11600
C 	C 	0.70403 0.88875 0.13739 -0.08500
C 	C 	0.73101 0.88101 0.16138 0.01100
O 	O 	0.77468 0.82193 0.18729 -0.18700
C 	C 	0.81399 0.89696 0.18899 0.04500
C 	C 	0.78818 0.93243 0.17372 -0.05200
O 	O 	0.60581 0.82130 0.10726 -0.18600
C 	C 	0.56069 0.74690 0.10799 0.04300
C 	C 	0.58793 0.71022 0.12190 -0.05600
H 	H 	0.67377 0.70219 0.16129 0.07000
H 	H 	0.71171 0.94053 0.13110 0.06700
H 	H 	0.81779 0.98856 0.16806 0.05600
H 	H 	0.55532 0.65803 0.13094 0.06300
C 	C 	0.13036 0.87524 0.16590 0.11600
C 	C 	0.13846 0.86890 0.13898 -0.08500
C 	C 	0.12256 0.80120 0.12915 0.01000
C 	C 	0.10186 0.74271 0.14557 0.11800
C 	C 	0.09117 0.74871 0.17234 -0.08600
C 	C 	0.10936 0.81675 0.18214 0.01300
O 	O 	0.11989 0.92940 0.17644 -0.18500
C 	C 	0.08903 0.89641 0.20031 0.04700
C 	C 	0.08246 0.82940 0.20388 -0.05600
O 	O 	0.11998 0.69263 0.13633 -0.18800
C 	C 	0.15599 0.72763 0.11340 0.04700
C 	C 	0.15651 0.79164 0.10874 -0.05700
H 	H 	0.15614 0.91491 0.12609 0.06600
H 	H 	0.07411 0.70302 0.18533 0.07000
H 	H 	0.04568 0.78868 0.21735 0.06300
H 	H 	0.19673 0.83523 0.09702 0.05700
C 	C 	0.70535 0.91832 0.32531 0.11800
C 	C 	0.66395 0.93564 0.34187 -0.08600
C 	C 	0.63412 0.89342 0.36443 0.01100
C 	C 	0.64393 0.83543 0.37001 0.11800
C 	C 	0.68717 0.81973 0.35369 -0.08700
C 	C 	0.71364 0.85973 0.33060 0.01500
O 	O 	0.75604 0.96748 0.30808 -0.18700
C 	C 	0.79587 0.93253 0.30386 0.05400
C 	C 	0.77093 0.86830 0.31710 -0.06000
O 	O 	0.58911 0.78242 0.38485 -0.18900
C 	C 	0.54372 0.81192 0.38654 0.04900
C 	C 	0.57067 0.87861 0.37482 -0.05800
H 	H 	0.65539 0.98045 0.33742 0.06800
H 	H 	0.69527 0.77450 0.35786 0.06900
H 	H 	0.80152 0.84134 0.32110 0.05800
H 	H 	0.53787 0.90053 0.36754 0.06300
C 	C 	0.12341 0.27184 0.33841 0.11600
C 	C 	0.13124 0.28507 0.36540 -0.08600
C 	C 	0.11025 0.33279 0.37589 0.01000
C 	C 	0.08456 0.36763 0.36007 0.11800
C 	C 	0.07435 0.35207 0.33325 -0.08700
C 	C 	0.09784 0.30667 0.32277 0.01300
O 	O 	0.11834 0.21009 0.32727 -0.18600
C 	C 	0.08577 0.21104 0.30368 0.05100
C 	C 	0.07333 0.26821 0.30084 -0.05700
O 	O 	0.09729 0.43351 0.36979 -0.18700
C 	C 	0.13569 0.43666 0.39230 0.04000
C 	C 	0.14238 0.37621 0.39633 -0.05500
H 	H 	0.15268 0.25904 0.37781 0.06800
H 	H 	0.05362 0.37851 0.32071 0.06900
H 	H 	0.03470 0.26999 0.28764 0.06100
H 	H 	0.18516 0.37591 0.40753 0.05900
C 	C 	0.22944 0.83602 0.33412 0.12000
C 	C 	0.22542 0.89948 0.33535 -0.08800
C 	C 	0.15748 0.89416 0.33527 0.01300
C 	C 	0.09596 0.82876 0.33254 0.11600
C 	C 	0.09998 0.76514 0.33188 -0.08500
C 	C 	0.16800 0.77065 0.33171 0.01200
O 	O 	0.28694 0.83140 0.34439 -0.19100
C 	C 	0.25358 0.75726 0.34876 0.04600
C 	C 	0.18271 0.72062 0.34114 -0.05500
O 	O 	0.03968 0.83352 0.32107 -0.18700
C 	C 	0.07413 0.90747 0.31608 0.05000
C 	C 	0.14381 0.94405 0.32507 -0.05900
H 	H 	0.27354 0.95120 0.33699 0.06700
H 	H 	0.05192 0.71339 0.33022 0.06900
H 	H 	0.14299 0.66963 0.34941 0.06000
H 	H 	0.18461 0.99545 0.31745 0.05800
C 	C 	0.53126 0.84789 0.52195 -0.06200
C 	C 	0.49757 0.87939 0.53615 0.02500
C 	C 	0.42302 0.84998 0.53424 -0.06200
C 	C 	0.38443 0.79630 0.51590 0.01600
C 	C 	0.42018 0.77246 0.49908 -0.08000
C 	C 	0.49295 0.79561 0.50308 0.01500
C 	C 	0.54115 0.95109 0.54813 0.01000
H 	H 	0.39591 0.87257 0.54544 0.04800
H 	H 	0.32784 0.77764 0.51328 0.03600
H 	H 	0.52070 0.77620 0.49060 0.03200
H 	H 	0.58823 0.86797 0.52404 0.04800
C 	C 	0.52335 0.96608 0.57298 -0.06800
C 	C 	0.55350 0.03728 0.58161 0.02900
C 	C 	0.60212 0.09370 0.56557 -0.08200
C 	C 	0.62446 0.07807 0.54183 0.01500
C 	C 	0.59388 0.00735 0.53308 -0.03600
H 	H 	0.48395 0.92299 0.58506 0.04900
H 	H 	0.53680 0.04866 0.60020 0.03900
H 	H 	0.66363 0.12111 0.52967 0.03400
H 	H 	0.60847 0.99669 0.51395 0.03900
C 	C 	0.97663 0.61975 0.53343 -0.05700
C 	C 	0.96613 0.64551 0.50945 0.02100
C 	C 	0.89667 0.62979 0.50238 -0.06000
C 	C 	0.83775 0.57938 0.51680 0.01400
C 	C 	0.84825 0.54535 0.53856 -0.07800
C 	C 	0.91781 0.56992 0.54795 0.01400
C 	C 	0.02369 0.67292 0.48956 0.02200
H 	H 	0.88804 0.65174 0.48448 0.04800
H 	H 	0.78414 0.56246 0.50979 0.03700
H 	H 	0.92643 0.54603 0.56533 0.03800
H 	H 	0.03010 0.63325 0.53960 0.04700
C 	C 	0.09290 0.72722 0.49611 -0.06200
C 	C 	0.15175 0.73640 0.48129 0.01600
C 	C 	0.14152 0.69189 0.45965 -0.08600
C 	C 	0.07179 0.64428 0.45122 0.01800
C 	C 	0.01310 0.63476 0.46611 -0.06100
H 	H 	0.10154 0.75864 0.51371 0.04700
H 	H 	0.20533 0.77468 0.48764 0.03700
H 	H 	0.06320 0.61152 0.43400 0.04200
H 	H 	0.95983 0.59377 0.46049 0.05100
C 	C 	0.47350 0.34625 0.48019 -0.06100
C 	C 	0.51765 0.40173 0.46292 0.02200
C 	C 	0.59133 0.42522 0.46213 -0.06200
C 	C 	0.62156 0.39900 0.48034 0.01700
C 	C 	0.57821 0.34896 0.49943 -0.08800
C 	C 	0.50365 0.31992 0.49835 0.01700
C 	C 	0.48915 0.44343 0.44942 0.02100
H 	H 	0.62572 0.46696 0.44849 0.04900
H 	H 	0.67912 0.42115 0.48070 0.03900
H 	H 	0.46944 0.27987 0.51254 0.04200
H 	H 	0.41637 0.32684 0.48069 0.05000
C 	C 	0.43080 0.40913 0.43232 -0.06000
C 	C 	0.39447 0.44481 0.42383 0.01600
C 	C 	0.41620 0.51490 0.43246 -0.07800
C 	C 	0.47749 0.55080 0.44804 0.01500
C 	C 	0.51389 0.51531 0.45645 -0.05900
H 	H 	0.41176 0.35391 0.42654 0.05000
H 	H 	0.34739 0.41673 0.41166 0.03800
H 	H 	0.49522 0.60526 0.45451 0.03500
H 	H 	0.55910 0.54244 0.46953 0.04800
C 	C 	0.89878 0.19190 0.67986 0.11900
C 	C 	0.91383 0.26035 0.67149 -0.08700
C 	C 	0.91009 0.27169 0.64457 0.01500
C 	C 	0.89060 0.21665 0.62670 0.11600
C 	C 	0.87827 0.14883 0.63514 -0.08300
C 	C 	0.87888 0.13706 0.66212 0.01200
O 	O 	0.92329 0.18017 0.70349 -0.18100
C 	C 	0.91647 0.11299 0.69800 0.04700
C 	C 	0.89045 0.08686 0.67337 -0.05300
O 	O 	0.85808 0.22453 0.60440 -0.18500
C 	C 	0.85603 0.28690 0.61116 0.05000
C 	C 	0.88857 0.31624 0.63474 -0.06100
H 	H 	0.92799 0.30336 0.68543 0.07100
H 	H 	0.86341 0.10541 0.62132 0.07000
H 	H 	0.89888 0.04746 0.66296 0.06300
H 	H 	0.87673 0.35129 0.64655 0.06400
C 	C 	0.34578 0.16927 0.62302 0.11600
C 	C 	0.30482 0.10909 0.63893 -0.08500
C 	C 	0.27569 0.11923 0.66202 0.01100
C 	C 	0.27941 0.18377 0.66776 0.11900
C 	C 	0.31874 0.24377 0.65166 -0.08700
C 	C 	0.35107 0.23486 0.62904 0.01200
O 	O 	0.40252 0.17488 0.60815 -0.18400
C 	C 	0.44406 0.24967 0.60684 0.04200
C 	C 	0.41343 0.28586 0.61892 -0.05600
O 	O 	0.22646 0.17826 0.68490 -0.18500
C 	C 	0.19039 0.10366 0.68854 0.04400
C 	C 	0.21951 0.06822 0.67508 -0.05200
H 	H 	0.30031 0.05750 0.63443 0.06800
H 	H 	0.32377 0.29541 0.65646 0.06900
H 	H 	0.44342 0.34010 0.62648 0.05900
H 	H 	0.19238 0.01122 0.67080 0.05500
C 	C 	0.81844 0.58764 0.66447 0.11900
C 	C 	0.88089 0.65477 0.66277 -0.08700
C 	C 	0.87455 0.71689 0.66525 0.00900
C 	C 	0.80977 0.71284 0.67080 0.11800
C 	C 	0.74756 0.64572 0.67284 -0.08600
C 	C 	0.75390 0.58359 0.67055 0.01200
O 	O 	0.81171 0.52755 0.65148 -0.19400
C 	C 	0.73706 0.48780 0.64970 0.05100
C 	C 	0.70234 0.52054 0.66131 -0.05500
O 	O 	0.81588 0.77341 0.68313 -0.18600
C 	C 	0.89039 0.81312 0.68548 0.04100
C 	C 	0.92587 0.78005 0.67461 -0.05400
H 	H 	0.93212 0.65848 0.65855 0.06500
H 	H 	0.69631 0.64204 0.67701 0.06800
H 	H 	0.64935 0.51042 0.65582 0.05700
H 	H 	0.97849 0.79015 0.68059 0.05100
C 	C 	0.98625 0.38337 0.96471 -0.05900
C 	C 	0.97756 0.34823 0.98882 0.02300
C 	C 	0.90929 0.29333 0.99626 -0.06200
C 	C 	0.84937 0.27989 0.98133 0.01700
C 	C 	0.85753 0.32088 0.95874 -0.08500
C 	C 	0.92650 0.36964 0.94973 0.01800
C 	C 	0.03629 0.37844 0.00811 0.02000
H 	H 	0.90214 0.26444 0.01447 0.04900
H 	H 	0.79643 0.24104 0.98823 0.03900
H 	H 	0.93353 0.39999 0.93189 0.04200
H 	H 	0.03879 0.42497 0.95848 0.04900
C 	C 	0.10523 0.39258 0.00083 -0.06000
C 	C 	0.16481 0.44192 0.01508 0.01400
C 	C 	0.15562 0.47671 0.03684 -0.07900
C 	C 	0.08633 0.45513 0.04607 0.01400
C 	C 	0.02686 0.40632 0.03174 -0.05900
H 	H 	0.11300 0.36952 0.98309 0.04800
H 	H 	0.21809 0.45694 0.00807 0.03700
H 	H 	0.07863 0.47995 0.06335 0.03600
H 	H 	0.97382 0.39455 0.03793 0.04900
C 	C 	0.42800 0.03176 0.06843 -0.04500
C 	C 	0.49296 0.06293 0.05453 0.01300
C 	C 	0.53191 0.02607 0.05267 -0.04300
C 	C 	0.50288 0.95605 0.06230 0.00200
C 	C 	0.43494 0.92245 0.07400 -0.07600
C 	C 	0.39913 0.96170 0.07820 0.00100
C 	C 	0.51402 0.12741 0.03824 0.02500
H 	H 	0.58251 0.04993 0.04225 0.04800
H 	H 	0.53143 0.92651 0.05936 0.04500
H 	H 	0.34691 0.93641 0.08750 0.03800
H 	H 	0.39808 0.06021 0.07038 0.04700
C 	C 	0.47064 0.12401 0.01713 -0.06000
C 	C 	0.49939 0.17376 0.99666 0.01500
C 	C 	0.57181 0.22697 0.99710 -0.07900
C 	C 	0.61218 0.23604 0.01984 0.01500
C 	C 	0.58328 0.18643 0.04036 -0.06200
H 	H 	0.41642 0.07968 0.01561 0.05100
H 	H 	0.46679 0.16793 0.97968 0.03800
H 	H 	0.66758 0.27814 0.02082 0.03900
H 	H 	0.61650 0.19081 0.05698 0.05000
C 	C 	0.41115 0.58720 0.96246 -0.06300
C 	C 	0.48349 0.60516 0.96298 0.02200
C 	C 	0.53015 0.65722 0.98069 -0.06100
C 	C 	0.50346 0.68586 0.99933 0.01600
C 	C 	0.42987 0.66265 0.00044 -0.08900
C 	C 	0.38439 0.61581 0.98113 0.01700
C 	C 	0.50761 0.56137 0.94834 0.02000
H 	H 	0.58631 0.67222 0.98103 0.04900
H 	H 	0.53937 0.72326 0.01375 0.04000
H 	H 	0.32758 0.59800 0.98157 0.03900
H 	H 	0.37490 0.54803 0.94856 0.04800
C 	C 	0.47850 0.48812 0.95438 -0.05900
C 	C 	0.51120 0.44984 0.94505 0.01300
C 	C 	0.57313 0.48433 0.92956 -0.07900
C 	C 	0.59881 0.55593 0.92173 0.01500
C 	C 	0.56620 0.59439 0.93114 -0.06100
H 	H 	0.43292 0.46192 0.96746 0.04800
H 	H 	0.49041 0.39429 0.95090 0.03300
H 	H 	0.64638 0.58296 0.90962 0.03700
H 	H 	0.58849 0.65064 0.92607 0.04800
C 	C 	0.76981 0.17016 0.83103 0.12100
C 	C 	0.76926 0.10427 0.83061 -0.08600
C 	C 	0.83510 0.10502 0.83142 0.01500
C 	C 	0.89923 0.16866 0.83111 0.11700
C 	C 	0.89967 0.23454 0.83216 -0.08300
C 	C 	0.83380 0.23367 0.83110 0.01300
O 	O 	0.71244 0.17636 0.84061 -0.18600
C 	C 	0.74850 0.24921 0.84723 0.04600
C 	C 	0.82087 0.28378 0.84159 -0.05500
O 	O 	0.95555 0.16274 0.82017 -0.18200
C 	C 	0.91860 0.09028 0.81298 0.05400
C 	C 	0.84716 0.05529 0.82015 -0.05700
H 	H 	0.71917 0.05405 0.83031 0.07100
H 	H 	0.94970 0.28482 0.83242 0.07000
H 	H 	0.86064 0.33140 0.85162 0.06000
H 	H 	0.80609 0.00710 0.81080 0.06300
C 	C 	0.36545 0.10233 0.86225 0.11400
C 	C 	0.33383 0.06054 0.83990 -0.07900
C 	C 	0.29151 0.07863 0.82418 0.00500
C 	C 	0.27560 0.13122 0.83122 0.12300
C 	C 	0.30416 0.17075 0.85416 -0.08900
C 	C 	0.34825 0.15427 0.86973 0.01600
O 	O 	0.43145 0.11446 0.87147 -0.18200
C 	C 	0.45339 0.17971 0.88431 0.05000
C 	C 	0.40360 0.20295 0.88376 -0.06200
O 	O 	0.21521 0.12573 0.81901 -0.18500
C 	C 	0.19533 0.06305 0.80461 0.04400
C 	C 	0.24068 0.03484 0.80754 -0.03900
H 	H 	0.34594 0.01896 0.83403 0.07000
H 	H 	0.29260 0.21293 0.85971 0.07000
H 	H 	0.41641 0.25845 0.88613 0.05900
H 	H 	0.22912 0.98123 0.80207 0.04800
C 	C 	0.90665 0.63549 0.85812 0.11700
C 	C 	0.91747 0.65024 0.83123 -0.08800
C 	C 	0.89268 0.69387 0.82012 0.01200
C 	C 	0.86556 0.72824 0.83520 0.11600
C 	C 	0.85720 0.71601 0.86226 -0.08700
C 	C 	0.87913 0.66968 0.87341 0.00900
O 	O 	0.89476 0.57028 0.86833 -0.18700
C 	C 	0.85440 0.56637 0.89038 0.04000
C 	C 	0.84633 0.62615 0.89388 -0.05500
O 	O 	0.86953 0.78890 0.82342 -0.18800
C 	C 	0.90280 0.78758 0.80001 0.04900
C 	C 	0.91693 0.73137 0.79789 -0.05700
H 	H 	0.93949 0.62422 0.81910 0.06800
H 	H 	0.83444 0.74160 0.87423 0.06600
H 	H 	0.80243 0.62564 0.90464 0.05800
H 	H 	0.95685 0.73038 0.78511 0.05800
