data_crystal

_cell_length_a 18.71124
_cell_length_b 18.88246
_cell_length_c 31.69333
_cell_angle_alpha 95.43184
_cell_angle_beta  95.43247
_cell_angle_gamma 126.43414

_symmetry_space_group_name_	'P 1'
_symmetry_space_group_name_H-M	'P 1'

loop_
_symmetry_equiv_pos_as_xyz
  x,y,z

loop_
_atom_site_label
_atom_site_type_symbol
_atom_site_fract_x
_atom_site_fract_y
_atom_site_fract_z
_atom_site_charge
C 	C 	0.90174 0.99194 0.95976 0.00600
C 	C 	0.99433 0.04503 0.95875 -0.04600
C 	C 	0.04034 0.00776 0.95997 0.02400
C 	C 	0.99381 0.91698 0.96177 -0.06300
C 	C 	0.90074 0.86257 0.96157 0.02200
C 	C 	0.85454 0.90025 0.96111 -0.06600
H 	H 	0.03088 0.11570 0.95782 0.04100
H 	H 	0.02979 0.88838 0.96282 0.04200
H 	H 	0.78284 0.85880 0.96183 0.04500
C 	C 	0.95093 0.04096 0.50217 0.06000
C 	C 	0.90172 0.94950 0.50348 -0.10400
C 	C 	0.94421 0.90860 0.50233 0.05700
C 	C 	0.03658 0.95958 0.50155 -0.11100
C 	C 	0.08646 0.05104 0.50064 0.05600
C 	C 	0.04371 0.09205 0.50089 -0.10400
H 	H 	0.82994 0.90971 0.50398 0.05400
H 	H 	0.06939 0.92774 0.50085 0.05400
H 	H 	0.08192 0.16265 0.49950 0.05200
Cu	Cu	0.74805 0.33415 0.95248 0.92900
Cu	Cu	0.74117 0.26986 0.04580 0.86600
Cu	Cu	0.60296 0.28462 0.00653 0.88800
Cu	Cu	0.57939 0.32655 0.92012 0.89400
C 	C 	0.68528 0.30671 0.86150 0.30200
O 	O 	0.79942 0.46439 0.95127 -0.35700
C 	C 	0.66231 0.32019 0.10174 0.28600
O 	O 	0.60715 0.25919 0.94720 -0.63600
O 	O 	0.73632 0.34914 0.01363 -0.64900
O 	O 	0.80973 0.27632 0.95767 -0.36500
O 	O 	0.71313 0.18284 0.99863 -0.43100
O 	O 	0.64621 0.34398 0.87165 -0.39000
O 	O 	0.47296 0.21419 0.99576 -0.37900
C 	C 	0.42373 0.21992 0.96560 0.29100
C 	C 	0.75834 0.49712 0.96506 0.28600
O 	O 	0.67451 0.44221 0.97039 -0.39300
O 	O 	0.45989 0.27348 0.93742 -0.39500
O 	O 	0.73561 0.30168 0.89141 -0.36300
C 	C 	0.77295 0.20300 0.97413 0.29100
O 	O 	0.59671 0.29202 0.06876 -0.39400
O 	O 	0.73599 0.32927 0.09601 -0.42400
H 	H 	0.56885 0.19459 0.93429 0.16500
H 	H 	0.77258 0.41179 0.02941 0.16800
Cu	Cu	0.61838 0.20766 0.50832 0.92600
Cu	Cu	0.67522 0.20627 0.41353 0.86900
Cu	Cu	0.66732 0.34918 0.45257 0.89600
Cu	Cu	0.63465 0.37979 0.54108 0.89200
C 	C 	0.66105 0.27876 0.59947 0.28600
O 	O 	0.48943 0.16045 0.51219 -0.36700
C 	C 	0.63086 0.28867 0.35744 0.30200
O 	O 	0.69714 0.34736 0.51194 -0.63900
O 	O 	0.59964 0.21672 0.44694 -0.64000
O 	O 	0.66961 0.14041 0.50202 -0.37300
O 	O 	0.76374 0.23100 0.45948 -0.44300
O 	O 	0.62444 0.31911 0.59094 -0.39300
O 	O 	0.74075 0.47847 0.46182 -0.38600
C 	C 	0.74397 0.52950 0.49467 0.29700
C 	C 	0.45748 0.20268 0.49963 0.29100
O 	O 	0.51309 0.28493 0.49341 -0.39700
O 	O 	0.68568 0.49486 0.52101 -0.40000
O 	O 	0.65547 0.22160 0.56914 -0.36300
C 	C 	0.74200 0.17273 0.48475 0.29600
O 	O 	0.65326 0.35176 0.39006 -0.38500
O 	O 	0.61622 0.21352 0.36371 -0.42400
H 	H 	0.76279 0.38387 0.52359 0.16100
H 	H 	0.53579 0.18149 0.43217 0.17200
C 	C 	0.70375 0.28343 0.73436 0.01300
C 	C 	0.75606 0.36298 0.71834 -0.05900
C 	C 	0.74687 0.36082 0.67383 0.00800
C 	C 	0.69323 0.29454 0.81719 -0.10100
C 	C 	0.63809 0.19873 0.66097 0.01300
C 	C 	0.64681 0.20103 0.70557 -0.06000
C 	C 	0.69869 0.28775 0.77958 0.03400
C 	C 	0.68573 0.27896 0.64498 -0.08400
H 	H 	0.80069 0.42692 0.74036 0.04400
H 	H 	0.78442 0.42308 0.66184 0.01800
H 	H 	0.59071 0.13510 0.63900 0.03500
H 	H 	0.60639 0.13915 0.71766 0.04300
C 	C 	0.63163 0.33010 0.23329 0.01000
C 	C 	0.71446 0.39578 0.22226 -0.06100
C 	C 	0.72295 0.39681 0.17891 0.00900
C 	C 	0.62785 0.30471 0.31409 -0.11000
C 	C 	0.56387 0.27068 0.15722 0.00700
C 	C 	0.55561 0.26949 0.20066 -0.06100
C 	C 	0.62811 0.31692 0.27737 0.03300
C 	C 	0.64856 0.33198 0.14620 -0.09100
H 	H 	0.77332 0.44354 0.24728 0.04100
H 	H 	0.78820 0.44573 0.17082 0.02600
H 	H 	0.50563 0.22090 0.13232 0.02800
H 	H 	0.49110 0.21897 0.20890 0.04100
C 	C 	0.89763 0.77920 0.53730 -0.08100
C 	C 	0.89135 0.81136 0.50017 -0.02000
C 	C 	0.84075 0.75120 0.46051 0.03400
C 	C 	0.79429 0.65907 0.45901 -0.01900
C 	C 	0.79977 0.62672 0.49628 -0.10500
C 	C 	0.85437 0.68751 0.53544 0.08900
C 	C 	0.86599 0.65505 0.57537 -0.19600
H 	H 	0.93774 0.82594 0.56752 0.04700
H 	H 	0.75265 0.61231 0.42898 0.04400
C 	C 	0.83555 0.78492 0.41988 -0.17600
H 	H 	0.92579 0.71078 0.59960 0.06200
H 	H 	0.87655 0.60373 0.56726 0.05700
H 	H 	0.80506 0.62587 0.59029 0.06400
H 	H 	0.90467 0.83634 0.41418 0.06200
H 	H 	0.79961 0.81480 0.42295 0.06100
H 	H 	0.79860 0.73009 0.39108 0.06000
C 	C 	0.83945 0.14924 0.53014 -0.01700
C 	C 	0.79243 0.13576 0.48935 -0.10800
C 	C 	0.79896 0.09240 0.45268 0.08500
C 	C 	0.85608 0.06741 0.45716 -0.07900
C 	C 	0.90295 0.08066 0.49790 -0.01900
C 	C 	0.89484 0.12199 0.53474 0.03400
C 	C 	0.94413 0.13612 0.57890 -0.16800
H 	H 	0.83395 0.18206 0.55823 0.04000
H 	H 	0.86199 0.03504 0.42903 0.04600
C 	C 	0.74570 0.07305 0.40870 -0.19100
H 	H 	0.93398 0.17280 0.60410 0.06200
H 	H 	0.01786 0.17594 0.57916 0.05700
H 	H 	0.91899 0.07032 0.58749 0.06500
H 	H 	0.77812 0.13555 0.39536 0.04000
H 	H 	0.67495 0.04567 0.41076 0.03800
H 	H 	0.74269 0.02258 0.38582 0.05900
C 	C 	0.24562 0.14123 0.53855 -0.08300
C 	C 	0.18371 0.10326 0.49948 -0.01700
C 	C 	0.21271 0.10042 0.46020 0.03000
C 	C 	0.30181 0.13025 0.46088 -0.01800
C 	C 	0.36256 0.16452 0.50011 -0.10900
C 	C 	0.33478 0.17139 0.53926 0.09200
C 	C 	0.40022 0.21194 0.58171 -0.20100
H 	H 	0.22325 0.14391 0.56859 0.04700
H 	H 	0.32398 0.12702 0.43084 0.02900
C 	C 	0.14772 0.06177 0.41771 -0.16500
H 	H 	0.36695 0.20886 0.60945 0.06600
H 	H 	0.45597 0.28343 0.58210 0.06100
H 	H 	0.42864 0.17509 0.58642 0.08400
H 	H 	0.10955 0.08964 0.41637 0.06000
H 	H 	0.09936 0.98772 0.41394 0.05200
H 	H 	0.18373 0.07812 0.39005 0.05600
C 	C 	0.80688 0.62132 0.92537 -0.02300
C 	C 	0.79787 0.59183 0.96488 -0.08800
C 	C 	0.81525 0.64939 0.00292 0.07400
C 	C 	0.84157 0.73575 0.00076 -0.10200
C 	C 	0.85218 0.76577 0.96135 0.00800
C 	C 	0.83178 0.70704 0.92314 0.02800
C 	C 	0.84009 0.73681 0.88018 -0.17200
H 	H 	0.79227 0.57661 0.89613 0.04100
H 	H 	0.85705 0.78083 0.03003 0.04700
C 	C 	0.80589 0.61914 0.04578 -0.19300
H 	H 	0.80415 0.67878 0.85293 0.05900
H 	H 	0.91252 0.78238 0.87764 0.06100
H 	H 	0.80992 0.77237 0.87673 0.06100
H 	H 	0.84285 0.59058 0.05092 0.05800
H 	H 	0.73332 0.56744 0.04649 0.06500
H 	H 	0.83424 0.67568 0.07306 0.06100
C 	C 	0.79747 0.10576 0.92966 -0.01600
C 	C 	0.80780 0.15041 0.97039 -0.09100
C 	C 	0.84391 0.13797 0.00777 0.07200
C 	C 	0.86500 0.07793 0.00387 -0.10400
C 	C 	0.85677 0.03492 0.96316 0.02100
C 	C 	0.82132 0.04768 0.92574 0.02200
C 	C 	0.81171 0.00194 0.88162 -0.16100
H 	H 	0.76983 0.11531 0.90103 0.04100
H 	H 	0.89239 0.06815 0.03251 0.05000
C 	C 	0.86034 0.18856 0.05188 -0.18600
H 	H 	0.77232 0.00908 0.85624 0.06000
H 	H 	0.77579 0.92918 0.88086 0.05400
H 	H 	0.87970 0.03185 0.87374 0.06200
H 	H 	0.79545 0.15689 0.06353 0.03500
H 	H 	0.89096 0.25973 0.05079 0.02900
H 	H 	0.90778 0.18827 0.07563 0.05700
C 	C 	0.19796 0.12051 0.99944 -0.03500
C 	C 	0.13830 0.06472 0.96070 -0.02200
C 	C 	0.17242 0.06259 0.92313 0.03800
C 	C 	0.26612 0.11331 0.92546 -0.03100
C 	C 	0.32595 0.16811 0.96437 -0.07700
C 	C 	0.29174 0.17395 0.00141 0.04500
C 	C 	0.35451 0.23598 0.04314 -0.18200
H 	H 	0.17123 0.12232 0.02809 0.02500
H 	H 	0.29264 0.10975 0.89701 0.03400
C 	C 	0.10922 0.00432 0.88089 -0.16700
H 	H 	0.31804 0.24606 0.06572 0.05900
H 	H 	0.40937 0.30299 0.03703 0.06500
H 	H 	0.38445 0.20704 0.05916 0.07500
H 	H 	0.05724 0.01494 0.87396 0.06000
H 	H 	0.07534 0.93277 0.88252 0.05200
H 	H 	0.14599 0.02012 0.85350 0.05700
