data_crystal

_cell_length_a 24.88013
_cell_length_b 26.67035
_cell_length_c 37.85883
_cell_angle_alpha 60.86609
_cell_angle_beta  118.83466
_cell_angle_gamma 133.26254

_symmetry_space_group_name_	'P 1'
_symmetry_space_group_name_H-M	'P 1'

loop_
_symmetry_equiv_pos_as_xyz
  x,y,z

loop_
_atom_site_label
_atom_site_type_symbol
_atom_site_fract_x
_atom_site_fract_y
_atom_site_fract_z
_atom_site_charge
C 	C 	0.72857 0.30827 0.99533 0.10100
N 	N 	0.65201 0.27140 0.98610 -0.13100
C 	C 	0.62080 0.29731 0.98652 0.09900
N 	N 	0.66628 0.36134 0.99505 -0.11900
C 	C 	0.74294 0.39868 0.00432 0.10100
N 	N 	0.77424 0.37181 0.00487 -0.10900
C 	C 	0.69943 0.36208 0.47041 0.10100
N 	N 	0.62489 0.31858 0.47074 -0.11000
C 	C 	0.59613 0.33980 0.47856 0.09900
N 	N 	0.64223 0.40477 0.48606 -0.12200
C 	C 	0.71683 0.44825 0.48619 0.09900
N 	N 	0.74531 0.42717 0.47797 -0.12600
C 	C 	0.30491 0.59137 0.27035 0.09900
N 	N 	0.37778 0.63608 0.26674 -0.11000
C 	C 	0.40309 0.61649 0.25465 0.09900
N 	N 	0.35498 0.55270 0.24529 -0.12300
C 	C 	0.28199 0.50816 0.24839 0.09900
N 	N 	0.25689 0.52728 0.26109 -0.12700
C 	C 	0.26183 0.64255 0.73968 0.09700
N 	N 	0.33459 0.68742 0.73570 -0.12900
C 	C 	0.35988 0.66748 0.72386 0.09900
N 	N 	0.31251 0.60267 0.71598 -0.11600
C 	C 	0.23950 0.55813 0.71912 0.09800
N 	N 	0.21411 0.57780 0.73124 -0.11500
Co	Co	0.08535 0.98765 0.09205 1.18900
Co	Co	0.94473 0.91016 0.16935 1.19100
Co	Co	0.02629 0.04719 0.11215 1.17700
Co	Co	0.00796 0.85215 0.15128 1.18000
C 	C 	0.23236 0.01550 0.10285 0.25300
Co	Co	0.09888 0.86752 0.10245 1.16300
Co	Co	0.92714 0.03071 0.15374 1.16700
C 	C 	0.93505 0.74925 0.10246 0.26600
O 	O 	0.94566 0.10768 0.09804 -0.38700
O 	O 	0.97464 0.99482 0.14775 -0.75400
C 	C 	0.92614 0.09238 0.06380 0.27300
O 	O 	0.08593 0.07182 0.07722 -0.47500
O 	O 	0.94367 0.82580 0.18395 -0.45100
C 	C 	0.79441 0.88902 0.13686 0.26200
O 	O 	0.04117 0.95925 0.14378 -0.58700
C 	C 	0.09667 0.14468 0.16674 0.25800
C 	C 	0.04710 0.94242 0.01989 0.31200
C 	C 	0.10641 0.79992 0.19542 0.27000
O 	O 	0.94093 0.05298 0.06458 -0.37900
O 	O 	0.10147 0.93397 0.04253 -0.40300
O 	O 	0.02525 0.95929 0.03544 -0.40000
O 	O 	0.82248 0.95693 0.12353 -0.37200
O 	O 	0.83124 0.86753 0.13946 -0.36800
O 	O 	0.03719 0.09966 0.18340 -0.38500
O 	O 	0.09564 0.13887 0.13326 -0.37800
O 	O 	0.09434 0.79344 0.15947 -0.39100
O 	O 	0.08001 0.82647 0.19862 -0.38000
O 	O 	0.06658 0.90725 0.11888 -0.76600
C 	C 	0.94965 0.94092 0.23809 0.30700
O 	O 	0.90238 0.95639 0.20989 -0.39900
O 	O 	0.97095 0.91543 0.22923 -0.37900
O 	O 	0.20871 0.94931 0.12261 -0.36000
O 	O 	0.20108 0.04136 0.10164 -0.37600
O 	O 	0.98643 0.79083 0.08076 -0.37600
O 	O 	0.92305 0.77691 0.11645 -0.37100
Co	Co	0.08465 0.04833 0.57814 1.18300
Co	Co	0.92016 0.95831 0.64407 1.19100
Co	Co	0.01364 0.10115 0.59400 1.17700
Co	Co	0.99388 0.90701 0.62977 1.19500
C 	C 	0.23538 0.06995 0.61760 0.26500
Co	Co	0.10974 0.93112 0.59685 1.17100
Co	Co	0.90904 0.07673 0.63785 1.16900
C 	C 	0.93925 0.82435 0.57115 0.28000
O 	O 	0.93175 0.16178 0.58565 -0.37700
O 	O 	0.94614 0.04154 0.62152 -0.76300
C 	C 	0.92085 0.15841 0.54906 0.27100
O 	O 	0.08476 0.13183 0.56424 -0.46600
O 	O 	0.91950 0.87460 0.65769 -0.46400
C 	C 	0.77024 0.93737 0.62057 0.27100
O 	O 	0.98027 0.99603 0.59759 -0.56800
C 	C 	0.07626 0.18782 0.65190 0.26500
C 	C 	0.09692 0.02532 0.51271 0.31400
C 	C 	0.09271 0.86023 0.68427 0.27400
O 	O 	0.95110 0.13660 0.54482 -0.36500
O 	O 	0.14339 0.01060 0.54327 -0.41100
O 	O 	0.06834 0.04666 0.51915 -0.39500
O 	O 	0.80326 0.00641 0.60643 -0.38000
O 	O 	0.80374 0.90940 0.62745 -0.37400
O 	O 	0.01866 0.14117 0.66977 -0.39300
O 	O 	0.09251 0.16733 0.63502 -0.38100
O 	O 	0.08266 0.84984 0.65043 -0.39000
O 	O 	0.07259 0.89670 0.68176 -0.38800
O 	O 	0.05512 0.96368 0.59914 -0.77100
C 	C 	0.93360 0.98083 0.71816 0.30600
O 	O 	0.88609 0.99740 0.69279 -0.40100
O 	O 	0.96585 0.97376 0.70337 -0.39200
O 	O 	0.20809 0.00231 0.63120 -0.38300
O 	O 	0.19597 0.09039 0.61263 -0.37400
O 	O 	0.00546 0.86408 0.56203 -0.38400
O 	O 	0.93427 0.82139 0.60569 -0.37400
C 	C 	0.90383 0.92894 0.82293 -0.09100
C 	C 	0.97896 0.96637 0.84584 0.02200
C 	C 	0.03933 0.00230 0.82808 0.01200
C 	C 	0.02354 0.00375 0.78669 -0.04000
C 	C 	0.94835 0.96775 0.76344 -0.08200
C 	C 	0.88792 0.92675 0.78255 0.10100
C 	C 	0.99324 0.95976 0.89020 0.03400
C 	C 	0.12021 0.03758 0.85338 -0.18300
H 	H 	0.06983 0.03423 0.77228 0.04600
C 	C 	0.80640 0.88109 0.76002 -0.20500
H 	H 	0.85757 0.89972 0.83706 0.05900
C 	C 	0.00807 0.01109 0.90263 0.00100
C 	C 	0.02283 0.00356 0.94518 -0.01000
C 	C 	0.01920 0.94379 0.97503 -0.12200
C 	C 	0.99713 0.88935 0.96177 0.12800
C 	C 	0.98744 0.89930 0.91977 -0.10300
C 	C 	0.00764 0.07336 0.87079 -0.18600
H 	H 	0.03843 0.04478 0.95508 0.03800
C 	C 	0.97773 0.81853 0.99137 -0.20300
H 	H 	0.97335 0.85889 0.90982 0.06300
H 	H 	0.78485 0.91384 0.73962 0.08700
H 	H 	0.76968 0.83730 0.78236 0.07600
H 	H 	0.80117 0.85623 0.74096 0.08100
H 	H 	0.12653 0.99723 0.88036 0.07600
H 	H 	0.13594 0.07825 0.86485 0.06700
H 	H 	0.16082 0.06438 0.83477 0.06800
H 	H 	0.01715 0.10704 0.88538 0.06800
H 	H 	0.95190 0.05405 0.84797 0.08100
H 	H 	0.05315 0.10698 0.85411 0.06600
H 	H 	0.93144 0.79461 0.00473 0.10200
H 	H 	0.02855 0.82473 0.01624 0.06400
H 	H 	0.95696 0.78060 0.97538 0.07900
C 	C 	0.04230 0.04263 0.39641 -0.11400
C 	C 	0.02746 0.98122 0.39683 0.02600
C 	C 	0.03404 0.93396 0.43507 0.02100
C 	C 	0.05624 0.94922 0.47239 0.00800
C 	C 	0.07084 0.01043 0.47226 -0.12800
C 	C 	0.06516 0.05836 0.43386 0.11400
C 	C 	0.00679 0.96757 0.35698 -0.03100
C 	C 	0.02010 0.86848 0.43631 -0.19100
H 	H 	0.06350 0.91393 0.50170 0.03600
C 	C 	0.08425 0.12646 0.43245 -0.21300
H 	H 	0.03698 0.07868 0.36690 0.05600
C 	C 	0.93010 0.92756 0.33568 0.06100
C 	C 	0.91208 0.91431 0.29842 -0.02900
C 	C 	0.96958 0.94223 0.28146 -0.08100
C 	C 	0.04636 0.98094 0.30337 0.08600
C 	C 	0.06419 0.99304 0.34106 -0.06500
C 	C 	0.86753 0.90028 0.35205 -0.19100
H 	H 	0.85323 0.88421 0.28180 0.05000
C 	C 	0.10938 0.00972 0.28674 -0.22200
H 	H 	0.12290 0.02265 0.35796 0.04400
H 	H 	0.08901 0.16287 0.40088 0.07400
H 	H 	0.13960 0.15500 0.45420 0.08500
H 	H 	0.03897 0.11451 0.44096 0.08500
H 	H 	0.06450 0.88424 0.42487 0.07200
H 	H 	0.96349 0.83637 0.41653 0.08300
H 	H 	0.02140 0.83401 0.46836 0.07000
H 	H 	0.81060 0.86962 0.33190 0.07400
H 	H 	0.87520 0.94558 0.35340 0.08200
H 	H 	0.86855 0.86476 0.38371 0.07800
H 	H 	0.10737 0.04454 0.25495 0.08800
H 	H 	0.10362 0.96513 0.28595 0.08900
H 	H 	0.16620 0.04177 0.30649 0.07900
C 	C 	0.16542 0.35776 0.65642 0.12200
C 	C 	0.15205 0.40836 0.64292 -0.09200
C 	C 	0.14816 0.42226 0.67265 0.02200
C 	C 	0.16287 0.39178 0.71440 0.11300
C 	C 	0.17719 0.34188 0.72801 -0.08400
C 	C 	0.18018 0.32718 0.69826 0.00800
O 	O 	0.13772 0.31736 0.63078 -0.19200
C 	C 	0.13380 0.25803 0.66109 0.04400
C 	C 	0.16035 0.26422 0.70138 -0.05300
O 	O 	0.18791 0.43089 0.74007 -0.20000
C 	C 	0.18861 0.48875 0.70967 0.10300
C 	C 	0.16475 0.48381 0.66938 -0.08700
H 	H 	0.14133 0.43338 0.61017 0.07000
H 	H 	0.18762 0.31673 0.76077 0.06500
H 	H 	0.14349 0.21941 0.72819 0.05400
H 	H 	0.18134 0.52907 0.64279 0.06300
C 	C 	0.53256 0.74837 0.70559 0.11300
C 	C 	0.56845 0.74459 0.68859 -0.08700
C 	C 	0.59834 0.79869 0.65417 0.00900
C 	C 	0.59780 0.85699 0.63900 0.11900
C 	C 	0.56217 0.86098 0.65612 -0.09300
C 	C 	0.53206 0.80673 0.69052 0.02100
O 	O 	0.47492 0.68793 0.72572 -0.19900
C 	C 	0.43873 0.71504 0.72047 0.10000
C 	C 	0.47251 0.78582 0.69971 -0.08700
O 	O 	0.65504 0.91720 0.61847 -0.18900
C 	C 	0.69117 0.88992 0.62378 0.04100
C 	C 	0.65744 0.81922 0.64483 -0.05500
H 	H 	0.57019 0.69951 0.70067 0.06900
H 	H 	0.56052 0.90609 0.64405 0.07100
H 	H 	0.44311 0.81050 0.68241 0.06300
H 	H 	0.68672 0.79441 0.66220 0.05600
C 	C 	0.16511 0.66886 0.76634 0.11200
C 	C 	0.10289 0.66850 0.75674 -0.08300
C 	C 	0.11702 0.72887 0.75764 0.00800
C 	C 	0.18968 0.79069 0.76205 0.12100
C 	C 	0.25166 0.79221 0.76928 -0.09200
C 	C 	0.23802 0.72886 0.77422 0.02400
O 	O 	0.15947 0.62366 0.75401 -0.20000
C 	C 	0.23576 0.66296 0.75472 0.10100
C 	C 	0.28284 0.72555 0.76663 -0.08700
O 	O 	0.19245 0.85183 0.74303 -0.18700
C 	C 	0.11531 0.82174 0.72475 0.04100
C 	C 	0.06997 0.74833 0.73454 -0.05400
H 	H 	0.04586 0.62516 0.74572 0.06700
H 	H 	0.30752 0.84214 0.76780 0.07200
H 	H 	0.33745 0.77089 0.75913 0.06500
H 	H 	0.01446 0.71651 0.71548 0.05200
C 	C 	0.20684 0.27465 0.21959 0.12000
C 	C 	0.20467 0.28938 0.24959 -0.09400
C 	C 	0.19371 0.34144 0.23651 0.02000
C 	C 	0.19178 0.38182 0.19619 0.11400
C 	C 	0.19601 0.36854 0.16638 -0.08600
C 	C 	0.20539 0.31540 0.17916 0.00800
O 	O 	0.18119 0.20727 0.22332 -0.19700
C 	C 	0.16031 0.20969 0.18128 0.04200
C 	C 	0.17661 0.27468 0.15492 -0.05500
O 	O 	0.21236 0.44738 0.19198 -0.20100
C 	C 	0.22884 0.44330 0.23383 0.09900
C 	C 	0.21758 0.38016 0.26057 -0.08900
H 	H 	0.20681 0.25834 0.28151 0.06500
H 	H 	0.19352 0.39948 0.13445 0.06800
H 	H 	0.14704 0.28175 0.12251 0.05400
H 	H 	0.24674 0.37421 0.29313 0.06000
C 	C 	0.62972 0.74784 0.17417 0.12100
C 	C 	0.60308 0.69482 0.20961 -0.09200
C 	C 	0.57219 0.70051 0.22903 0.02300
C 	C 	0.56317 0.75382 0.21253 0.11400
C 	C 	0.58843 0.80603 0.17666 -0.08500
C 	C 	0.61947 0.80050 0.15721 0.01100
O 	O 	0.68911 0.76646 0.16408 -0.18700
C 	C 	0.71538 0.83615 0.14082 0.04700
C 	C 	0.67327 0.85626 0.13600 -0.05400
O 	O 	0.50605 0.73683 0.22390 -0.19700
C 	C 	0.47964 0.66723 0.24734 0.10300
C 	C 	0.51914 0.64535 0.25085 -0.08800
H 	H 	0.60947 0.65244 0.22272 0.07200
H 	H 	0.58211 0.84844 0.16362 0.07000
H 	H 	0.69462 0.91076 0.12957 0.05800
H 	H 	0.49650 0.59045 0.25727 0.06600
C 	C 	0.14297 0.67605 0.26933 0.12000
C 	C 	0.13377 0.61455 0.27529 -0.09200
C 	C 	0.19897 0.61683 0.29013 0.02200
C 	C 	0.27071 0.67998 0.29324 0.11500
C 	C 	0.27970 0.74265 0.28429 -0.08400
C 	C 	0.21489 0.73812 0.27526 0.01100
O 	O 	0.08712 0.68663 0.24327 -0.19400
C 	C 	0.13228 0.76076 0.23338 0.04400
C 	C 	0.20834 0.79186 0.25223 -0.05700
O 	O 	0.32475 0.68097 0.28999 -0.19700
C 	C 	0.27833 0.61310 0.28379 0.10100
C 	C 	0.20340 0.57449 0.28377 -0.08700
H 	H 	0.07829 0.56837 0.26579 0.06700
H 	H 	0.33434 0.79368 0.28153 0.07200
H 	H 	0.25372 0.84527 0.24000 0.05700
H 	H 	0.15602 0.53114 0.26876 0.06500
C 	C 	0.87427 0.27619 0.48340 0.12000
C 	C 	0.88276 0.33335 0.48440 -0.08800
C 	C 	0.81920 0.32082 0.48583 0.02400
C 	C 	0.74870 0.25811 0.48159 0.11600
C 	C 	0.73869 0.20195 0.47838 -0.08600
C 	C 	0.80292 0.21242 0.47918 0.01400
O 	O 	0.93312 0.26909 0.50282 -0.18000
C 	C 	0.89098 0.19524 0.51203 0.04800
C 	C 	0.81363 0.16141 0.49715 -0.06000
O 	O 	0.68950 0.26201 0.47060 -0.19700
C 	C 	0.73225 0.33417 0.46853 0.10000
C 	C 	0.80975 0.36960 0.47720 -0.08400
H 	H 	0.93816 0.38343 0.48777 0.07500
H 	H 	0.68337 0.15142 0.47628 0.07000
H 	H 	0.77174 0.10655 0.51034 0.05800
H 	H 	0.85249 0.42657 0.47179 0.06800
C 	C 	0.82945 0.70488 0.51039 0.11800
C 	C 	0.83693 0.68344 0.48669 -0.09000
C 	C 	0.82585 0.61791 0.50295 0.02100
C 	C 	0.80148 0.57241 0.53914 0.11800
C 	C 	0.79094 0.59241 0.56197 -0.08500
C 	C 	0.80385 0.65877 0.54642 0.01100
O 	O 	0.87262 0.77592 0.50940 -0.18700
C 	C 	0.87389 0.76856 0.54894 0.04100
C 	C 	0.83121 0.69887 0.57062 -0.05300
O 	O 	0.76504 0.50187 0.54239 -0.19900
C 	C 	0.76853 0.50926 0.50423 0.10100
C 	C 	0.80447 0.57822 0.48038 -0.08700
H 	H 	0.85565 0.71867 0.45802 0.06300
H 	H 	0.77249 0.55711 0.59071 0.07200
H 	H 	0.84120 0.68166 0.60426 0.06200
H 	H 	0.79407 0.59287 0.44678 0.06100
C 	C 	0.44317 0.20164 0.52583 0.11300
C 	C 	0.42453 0.15148 0.56342 -0.08400
C 	C 	0.39968 0.15844 0.58600 0.00800
C 	C 	0.38836 0.20999 0.57054 0.12200
C 	C 	0.40762 0.26058 0.53311 -0.09200
C 	C 	0.43291 0.25388 0.51064 0.02300
O 	O 	0.49649 0.21884 0.51089 -0.19800
C 	C 	0.52027 0.28777 0.48709 0.10300
C 	C 	0.48169 0.30857 0.48621 -0.08800
O 	O 	0.33407 0.19189 0.58514 -0.18800
C 	C 	0.31168 0.12346 0.60952 0.04000
C 	C 	0.35167 0.10381 0.61078 -0.05300
H 	H 	0.43182 0.10992 0.57545 0.06600
H 	H 	0.40030 0.30212 0.52109 0.07000
H 	H 	0.50364 0.36330 0.47962 0.06700
H 	H 	0.33069 0.04932 0.61762 0.05000
C 	C 	0.81299 0.14722 0.99669 0.12000
C 	C 	0.75300 0.13925 0.99939 -0.09400
C 	C 	0.76958 0.19520 0.00727 0.02300
C 	C 	0.83915 0.25967 0.00703 0.11300
C 	C 	0.89802 0.27007 0.00127 -0.07900
C 	C 	0.88366 0.21237 0.99633 0.00700
O 	O 	0.81596 0.08992 0.01190 -0.18800
C 	C 	0.89453 0.12519 0.02451 0.04300
C 	C 	0.93485 0.19835 0.01300 -0.04900
O 	O 	0.83904 0.31510 0.00172 -0.19200
C 	C 	0.76144 0.27662 0.99809 0.09600
C 	C 	0.71971 0.20517 0.00125 -0.08200
H 	H 	0.69746 0.08873 0.99958 0.06800
H 	H 	0.95378 0.32035 0.00206 0.07300
H 	H 	0.99320 0.23361 0.02837 0.05900
H 	H 	0.65864 0.16968 0.99082 0.06100
C 	C 	0.81008 0.60583 0.05885 0.11900
C 	C 	0.78822 0.59064 0.02152 -0.09000
C 	C 	0.81119 0.55537 0.02115 0.02500
C 	C 	0.84837 0.53040 0.05691 0.11600
C 	C 	0.86923 0.54445 0.09444 -0.08500
C 	C 	0.84784 0.58128 0.09474 0.01600
O 	O 	0.82254 0.66498 0.05916 -0.18700
C 	C 	0.87489 0.67654 0.09746 0.04900
C 	C 	0.88864 0.62567 0.11925 -0.06100
O 	O 	0.83930 0.47368 0.05559 -0.19600
C 	C 	0.79158 0.46612 0.01583 0.10800
C 	C 	0.77473 0.51476 0.99511 -0.09100
H 	H 	0.75812 0.60927 0.99323 0.06800
H 	H 	0.89983 0.52622 0.12262 0.07400
H 	H 	0.94032 0.63478 0.14254 0.06300
H 	H 	0.72462 0.50655 0.97047 0.06900
C 	C 	0.43643 0.21668 0.98872 0.11200
C 	C 	0.39403 0.21031 0.00702 -0.08200
C 	C 	0.34125 0.14232 0.02749 0.00600
C 	C 	0.33769 0.08444 0.03467 0.12000
C 	C 	0.38385 0.09155 0.01893 -0.09300
C 	C 	0.42873 0.15746 0.99325 0.02000
O 	O 	0.50497 0.28043 0.98007 -0.20000
C 	C 	0.53836 0.25399 0.98080 0.10000
C 	C 	0.49325 0.18096 0.98835 -0.08800
O 	O 	0.30692 0.02965 0.06822 -0.19800
C 	C 	0.29206 0.06028 0.08037 0.04400
C 	C 	0.31555 0.12859 0.05727 -0.05500
H 	H 	0.40603 0.25711 0.00804 0.07000
H 	H 	0.38827 0.04883 0.02845 0.06700
H 	H 	0.51465 0.14970 0.00149 0.06400
H 	H 	0.29977 0.15798 0.05689 0.05900
