data_crystal

_cell_length_a 25.59306
_cell_length_b 24.28620
_cell_length_c 42.29091
_cell_angle_alpha 103.94892
_cell_angle_beta  115.90338
_cell_angle_gamma 111.75960

_symmetry_space_group_name_	'P 1'
_symmetry_space_group_name_H-M	'P 1'

loop_
_symmetry_equiv_pos_as_xyz
  x,y,z

loop_
_atom_site_label
_atom_site_type_symbol
_atom_site_fract_x
_atom_site_fract_y
_atom_site_fract_z
_atom_site_charge
C 	C 	0.00886 0.94131 0.67715 0.01100
Zn	Zn	0.00508 0.93184 0.87724 1.18800
Zn	Zn	0.00498 0.93180 0.37721 1.18900
C 	C 	0.00662 0.94416 0.20994 -0.01500
C 	C 	0.00902 0.94134 0.17720 0.01200
C 	C 	0.00648 0.94414 0.70989 -0.01500
Zn	Zn	0.01294 0.00422 0.95135 1.20900
Zn	Zn	0.01285 0.00418 0.45132 1.21100
O 	O 	0.01555 0.94454 0.54883 -0.43100
O 	O 	0.01564 0.94458 0.04886 -0.42700
O 	O 	0.02128 0.05469 0.35528 -0.44300
O 	O 	0.02137 0.05472 0.85531 -0.44400
C 	C 	0.03148 0.99877 0.57732 0.37700
C 	C 	0.03077 0.01096 0.83722 0.29800
O 	O 	0.03733 0.01337 0.50308 -0.90500
C 	C 	0.03069 0.01093 0.33719 0.29800
C 	C 	0.03409 0.01110 0.30425 -0.11800
C 	C 	0.03157 0.99881 0.07735 0.37700
O 	O 	0.03700 0.05205 0.07293 -0.49500
O 	O 	0.03690 0.05200 0.57290 -0.49700
C 	C 	0.03802 0.99790 0.11262 -0.13700
O 	O 	0.03495 0.88456 0.90278 -0.49400
O 	O 	0.03742 0.01341 0.00311 -0.90000
O 	O 	0.03485 0.88451 0.40275 -0.49400
C 	C 	0.03757 0.00975 0.77658 0.04600
C 	C 	0.03414 0.01112 0.80426 -0.11800
C 	C 	0.04097 0.00692 0.24317 -0.02700
C 	C 	0.03754 0.00975 0.27657 0.04700
C 	C 	0.04115 0.99877 0.64202 0.11000
C 	C 	0.03794 0.99786 0.61259 -0.13900
C 	C 	0.04121 0.99881 0.14205 0.11100
O 	O 	0.04508 0.97232 0.85174 -0.44700
O 	O 	0.04500 0.97228 0.35171 -0.44700
C 	C 	0.04097 0.00690 0.74316 -0.02800
C 	C 	0.04576 0.00122 0.67756 -0.07700
C 	C 	0.04581 0.00126 0.17758 -0.07700
Zn	Zn	0.05348 0.08571 0.91343 1.19100
Zn	Zn	0.05338 0.08567 0.41340 1.19100
O 	O 	0.07657 0.09642 0.46836 -0.78300
O 	O 	0.07667 0.09646 0.96839 -0.78500
C 	C 	0.08588 0.91914 0.94105 0.33900
H 	H 	0.08748 0.03495 0.02361 0.16100
C 	C 	0.08578 0.91910 0.44102 0.33800
H 	H 	0.08739 0.03490 0.52358 0.16000
C 	C 	0.08145 0.06396 0.21121 -0.01300
C 	C 	0.07904 0.06678 0.24394 -0.03900
O 	O 	0.09888 0.97708 0.96373 -0.44100
O 	O 	0.09879 0.97704 0.46370 -0.43900
C 	C 	0.07916 0.06675 0.74397 -0.04000
C 	C 	0.08155 0.06392 0.71123 -0.01300
H 	H 	0.10618 0.11546 0.26967 0.04300
O 	O 	0.12713 0.17847 0.93005 -0.45600
O 	O 	0.12704 0.17844 0.43002 -0.45500
H 	H 	0.10983 0.11052 0.21167 0.03100
Zn	Zn	0.17056 0.14016 0.49954 1.18400
H 	H 	0.10641 0.11543 0.76972 0.04300
H 	H 	0.11002 0.11047 0.71171 0.03000
C 	C 	0.13538 0.90087 0.45589 -0.13500
C 	C 	0.13548 0.90092 0.95592 -0.13600
Zn	Zn	0.17065 0.14020 0.99957 1.18200
C 	C 	0.17123 0.23270 0.96596 0.33800
O 	O 	0.17296 0.06000 0.93555 -0.35700
O 	O 	0.19115 0.22743 0.99893 -0.46300
C 	C 	0.17114 0.23266 0.46594 0.33800
O 	O 	0.17287 0.05996 0.43552 -0.35900
O 	O 	0.19106 0.22739 0.49891 -0.46100
C 	C 	0.17598 0.88383 0.46635 0.07800
C 	C 	0.17608 0.88387 0.96639 0.07700
C 	C 	0.23675 0.10712 0.46655 0.32400
C 	C 	0.20496 0.29816 0.46928 -0.12400
C 	C 	0.22200 0.86184 0.47640 -0.03900
C 	C 	0.20506 0.29820 0.96931 -0.12500
C 	C 	0.22210 0.86188 0.97643 -0.04000
O 	O 	0.24860 0.14263 0.50044 -0.46600
C 	C 	0.23684 0.10715 0.96658 0.31500
O 	O 	0.24869 0.14267 0.00046 -0.45500
C 	C 	0.23403 0.35350 0.47261 0.07200
C 	C 	0.26825 0.41866 0.47694 -0.03900
C 	C 	0.25983 0.84132 0.48325 0.01200
C 	C 	0.23412 0.35354 0.97264 0.07200
C 	C 	0.26834 0.41870 0.97696 -0.04000
C 	C 	0.25993 0.84136 0.98328 0.01100
C 	C 	0.29040 0.13002 0.46068 -0.12100
C 	C 	0.29049 0.13005 0.96071 -0.11800
H 	H 	0.30470 0.67345 0.99378 0.05900
H 	H 	0.30461 0.67341 0.49375 0.06000
C 	C 	0.29702 0.47451 0.48083 0.00800
C 	C 	0.32964 0.54015 0.48545 -0.00000
C 	C 	0.30229 0.81525 0.48945 0.00200
C 	C 	0.33690 0.79125 0.49337 -0.02900
C 	C 	0.29711 0.47455 0.98085 0.00700
C 	C 	0.32973 0.54019 0.98547 -0.00100
C 	C 	0.30239 0.81529 0.98948 0.00100
C 	C 	0.33396 0.14979 0.45462 0.07000
C 	C 	0.33405 0.14983 0.95465 0.06700
C 	C 	0.33699 0.79129 0.99340 -0.03000
C 	C 	0.37625 0.76050 0.99661 0.05800
C 	C 	0.35126 0.69717 0.99498 -0.08900
C 	C 	0.38484 0.66335 0.99356 0.05700
C 	C 	0.37615 0.76046 0.49658 0.05800
C 	C 	0.35116 0.69713 0.49495 -0.08900
C 	C 	0.38475 0.66331 0.49353 0.05700
C 	C 	0.35592 0.59629 0.48928 -0.03200
C 	C 	0.35601 0.59632 0.98930 -0.03200
C 	C 	0.38360 0.17331 0.44657 -0.03900
C 	C 	0.38370 0.17335 0.94660 -0.03900
C 	C 	0.46971 0.75718 0.99627 0.05700
C 	C 	0.43576 0.79073 0.99756 -0.08900
C 	C 	0.44428 0.69344 0.99433 -0.08900
H 	H 	0.45459 0.83939 0.99828 0.06200
H 	H 	0.46990 0.66697 0.99278 0.05900
C 	C 	0.46961 0.75714 0.49624 0.05800
C 	C 	0.43566 0.79069 0.49752 -0.08800
C 	C 	0.44419 0.69340 0.49430 -0.08900
H 	H 	0.45449 0.83935 0.49824 0.06200
H 	H 	0.46981 0.66694 0.49275 0.05900
C 	C 	0.42527 0.19353 0.43921 0.00600
C 	C 	0.42536 0.19356 0.93923 0.00500
C 	C 	0.52801 0.78641 0.49447 -0.03000
C 	C 	0.57618 0.81126 0.49245 0.00300
C 	C 	0.52811 0.78646 0.99451 -0.03000
C 	C 	0.57627 0.81130 0.99248 0.00200
C 	C 	0.51512 0.23714 0.42276 -0.03400
C 	C 	0.47366 0.21716 0.43030 -0.00100
C 	C 	0.47375 0.21720 0.93033 -0.00200
C 	C 	0.51521 0.23718 0.92279 -0.03400
O 	O 	0.98704 0.99376 0.89899 -0.85900
O 	O 	0.98695 0.99372 0.39896 -0.85900
C 	C 	0.56537 0.26064 0.91417 0.05600
C 	C 	0.58745 0.32192 0.91313 -0.09000
C 	C 	0.64040 0.34735 0.90800 0.05600
C 	C 	0.67064 0.31112 0.90348 -0.09000
C 	C 	0.64898 0.25020 0.90484 0.05500
C 	C 	0.59572 0.22455 0.90966 -0.09100
H 	H 	0.56486 0.35052 0.91736 0.05800
H 	H 	0.71283 0.33166 0.90054 0.05700
H 	H 	0.57973 0.17792 0.91139 0.05600
C 	C 	0.56528 0.26060 0.41415 0.05600
C 	C 	0.58736 0.32188 0.41310 -0.09000
C 	C 	0.64030 0.34731 0.40797 0.05600
C 	C 	0.67055 0.31108 0.40345 -0.09000
C 	C 	0.64888 0.25016 0.40482 0.05500
C 	C 	0.59562 0.22451 0.40963 -0.09000
H 	H 	0.56476 0.35048 0.41733 0.05900
H 	H 	0.71273 0.33162 0.40051 0.05700
H 	H 	0.57964 0.17789 0.41136 0.05600
Zn	Zn	0.86179 0.88960 0.91757 1.17700
Zn	Zn	0.98117 0.92023 0.98984 1.18900
C 	C 	0.85462 0.78127 0.94102 0.34500
C 	C 	0.83079 0.93539 0.97036 0.34400
O 	O 	0.92756 0.03469 0.93961 -0.48300
Zn	Zn	0.99604 0.04798 0.02080 1.19700
O 	O 	0.92057 0.82337 0.97173 -0.45700
O 	O 	0.82216 0.79874 0.91536 -0.46400
O 	O 	0.81170 0.91857 0.93349 -0.47300
O 	O 	0.89327 0.95255 0.99793 -0.46600
O 	O 	0.94865 0.91239 0.93421 -0.79200
C 	C 	0.92591 0.07883 0.96385 0.33600
O 	O 	0.95609 0.09414 0.00165 -0.49400
H 	H 	0.93825 0.97956 0.88111 0.15300
Zn	Zn	0.86169 0.88956 0.41754 1.17800
Zn	Zn	0.98108 0.92019 0.48981 1.19100
C 	C 	0.85452 0.78123 0.44099 0.34500
C 	C 	0.83070 0.93534 0.47033 0.34400
O 	O 	0.92746 0.03465 0.43958 -0.48400
Zn	Zn	0.99594 0.04794 0.52077 1.19500
O 	O 	0.92048 0.82333 0.47169 -0.45600
O 	O 	0.82207 0.79870 0.41533 -0.46300
O 	O 	0.81161 0.91853 0.43346 -0.47300
O 	O 	0.89317 0.95251 0.49790 -0.46300
O 	O 	0.94855 0.91235 0.43417 -0.79100
C 	C 	0.92582 0.07879 0.46381 0.34400
O 	O 	0.95599 0.09410 0.50162 -0.50300
H 	H 	0.93815 0.97952 0.38107 0.15400
H 	H 	0.98087 0.89267 0.65119 0.03200
H 	H 	0.97730 0.89763 0.70921 0.03700
H 	H 	0.97754 0.89764 0.20928 0.03800
H 	H 	0.98115 0.89269 0.15127 0.03400
C 	C 	0.63180 0.84025 0.48942 0.01100
C 	C 	0.67857 0.86436 0.48620 -0.03500
C 	C 	0.73254 0.89133 0.48161 0.07900
C 	C 	0.77783 0.91266 0.47693 -0.12000
C 	C 	0.63189 0.84029 0.98945 0.01100
C 	C 	0.67867 0.86440 0.98623 -0.03600
C 	C 	0.73264 0.89137 0.98164 0.07800
C 	C 	0.77792 0.91271 0.97696 -0.12200
C 	C 	0.68761 0.21911 0.40698 -0.03400
C 	C 	0.72139 0.19430 0.41056 -0.00500
C 	C 	0.76242 0.16672 0.41695 0.00600
C 	C 	0.79863 0.14446 0.42443 -0.05100
C 	C 	0.84217 0.11999 0.43565 0.07200
C 	C 	0.88012 0.10044 0.44736 -0.15000
C 	C 	0.81792 0.71381 0.43449 -0.12500
C 	C 	0.78771 0.65725 0.42928 0.07400
C 	C 	0.75329 0.59115 0.42356 -0.04000
C 	C 	0.72500 0.53487 0.41910 0.00800
C 	C 	0.69347 0.46923 0.41448 -0.00100
C 	C 	0.66819 0.41345 0.41113 -0.03300
C 	C 	0.88022 0.10048 0.94739 -0.14800
C 	C 	0.84227 0.12003 0.93568 0.07000
C 	C 	0.79873 0.14450 0.92446 -0.05000
C 	C 	0.76252 0.16676 0.91698 0.00500
C 	C 	0.72149 0.19434 0.91059 -0.00600
C 	C 	0.68770 0.21915 0.90701 -0.03400
C 	C 	0.81802 0.71386 0.93452 -0.12600
C 	C 	0.78781 0.65729 0.92931 0.07400
C 	C 	0.75338 0.59120 0.92359 -0.04100
C 	C 	0.72510 0.53491 0.91913 0.00700
C 	C 	0.69357 0.46927 0.91451 -0.00200
C 	C 	0.66829 0.41349 0.91116 -0.03300
