data_crystal

_cell_length_a 24.69486
_cell_length_b 21.50593
_cell_length_c 27.77818
_cell_angle_alpha 92.70307
_cell_angle_beta  85.32013
_cell_angle_gamma 124.79436

_symmetry_space_group_name_	'P 1'
_symmetry_space_group_name_H-M	'P 1'

loop_
_symmetry_equiv_pos_as_xyz
  x,y,z

loop_
_atom_site_label
_atom_site_type_symbol
_atom_site_fract_x
_atom_site_fract_y
_atom_site_fract_z
_atom_site_charge
C 	C 	0.93256 0.12906 0.94632 0.01400
C 	C 	0.94424 0.09622 0.90558 -0.02000
C 	C 	0.97596 0.06002 0.90970 -0.06300
C 	C 	0.99660 0.05662 0.95444 0.08200
C 	C 	0.98725 0.09227 0.99491 -0.05900
C 	C 	0.95517 0.12805 0.99081 -0.02600
N 	N 	0.02519 0.01454 0.95854 -0.14000
C 	C 	0.20731 0.12329 0.02519 0.00900
C 	C 	0.14761 0.07707 0.05292 -0.02600
C 	C 	0.08734 0.04239 0.03161 -0.07400
C 	C 	0.08638 0.05390 0.98223 0.08700
C 	C 	0.14604 0.10195 0.95512 -0.06900
C 	C 	0.20619 0.13615 0.97634 -0.01500
C 	C 	0.88809 0.77871 0.98569 0.01800
C 	C 	0.94368 0.80519 0.95343 -0.03300
C 	C 	0.98902 0.88279 0.94541 -0.06000
C 	C 	0.97950 0.93485 0.96958 0.07400
C 	C 	0.92454 0.90829 0.00301 -0.07000
C 	C 	0.87879 0.83055 0.01055 -0.02900
H 	H 	0.92764 0.09754 0.87097 0.04900
H 	H 	0.98357 0.03337 0.87832 0.05600
H 	H 	0.00290 0.09021 0.02969 0.04500
H 	H 	0.94642 0.15338 0.02245 0.03700
H 	H 	0.14797 0.06724 0.09075 0.04000
H 	H 	0.04163 0.00675 0.05332 0.05300
H 	H 	0.14572 0.11131 0.91721 0.05500
H 	H 	0.25202 0.17137 0.95456 0.04800
H 	H 	0.95163 0.76555 0.93448 0.04200
H 	H 	0.03135 0.90265 0.91997 0.04700
H 	H 	0.91753 0.94747 0.02341 0.04600
H 	H 	0.83620 0.81061 0.03576 0.04600
C 	C 	0.92559 0.12698 0.45298 0.01700
C 	C 	0.94252 0.10007 0.41163 -0.02400
C 	C 	0.97505 0.06475 0.41570 -0.06400
C 	C 	0.99111 0.05622 0.46104 0.08200
C 	C 	0.97590 0.08539 0.50237 -0.06600
C 	C 	0.94250 0.11966 0.49834 -0.02800
N 	N 	0.02266 0.01728 0.46453 -0.13900
C 	C 	0.20140 0.12214 0.53470 0.01800
C 	C 	0.14084 0.07723 0.56160 -0.02600
C 	C 	0.08154 0.04449 0.53927 -0.06600
C 	C 	0.08252 0.05750 0.48984 0.08100
C 	C 	0.14314 0.10638 0.46400 -0.06300
C 	C 	0.20233 0.13833 0.48622 -0.02400
C 	C 	0.89581 0.77896 0.48629 0.01500
C 	C 	0.94957 0.81020 0.45182 -0.03300
C 	C 	0.99119 0.88858 0.44517 -0.05900
C 	C 	0.97953 0.93656 0.47279 0.07000
C 	C 	0.92612 0.90518 0.50799 -0.06600
C 	C 	0.88467 0.82678 0.51470 -0.02500
H 	H 	0.92931 0.10517 0.37650 0.04500
H 	H 	0.98713 0.04311 0.38368 0.05500
H 	H 	0.98854 0.08002 0.53758 0.05000
H 	H 	0.92900 0.13966 0.53051 0.04300
H 	H 	0.13972 0.06597 0.59939 0.04000
H 	H 	0.03514 0.00861 0.56013 0.05100
H 	H 	0.14432 0.11730 0.42613 0.05500
H 	H 	0.24896 0.17357 0.46532 0.04800
H 	H 	0.95851 0.77367 0.42970 0.04200
H 	H 	0.03232 0.91219 0.41823 0.04800
H 	H 	0.91731 0.94121 0.53059 0.04600
H 	H 	0.84369 0.80315 0.54180 0.04700
Co	Co	0.72809 0.32042 0.98931 1.18600
O 	O 	0.80034 0.32132 0.94382 -0.36100
Co	Co	0.59416 0.31556 0.02734 1.18400
O 	O 	0.63993 0.28375 0.96226 -0.44400
O 	O 	0.67478 0.41703 0.03994 -0.42300
O 	O 	0.72355 0.21838 0.97701 -0.34400
C 	C 	0.72466 0.45628 0.00745 0.34800
O 	O 	0.59091 0.33828 0.95382 -0.34600
C 	C 	0.47262 0.23803 0.06205 0.31300
C 	C 	0.68628 0.30249 0.08302 0.28100
O 	O 	0.51796 0.30757 0.07228 -0.36700
O 	O 	0.49690 0.21162 0.03150 -0.34400
O 	O 	0.74495 0.32670 0.06433 -0.34600
O 	O 	0.64319 0.27349 0.05063 -0.44500
O 	O 	0.75569 0.42768 0.98479 -0.51800
C 	C 	0.77647 0.25054 0.94855 0.30900
C 	C 	0.62849 0.31946 0.93296 0.27700
H 	H 	0.79679 0.46193 0.96298 0.18100
Co	Co	0.71865 0.31743 0.48628 1.18600
O 	O 	0.78742 0.31095 0.44090 -0.37100
Co	Co	0.58500 0.31344 0.52396 1.18600
O 	O 	0.62602 0.26824 0.46386 -0.44200
O 	O 	0.66120 0.42211 0.52556 -0.41400
O 	O 	0.71698 0.21674 0.48486 -0.33200
C 	C 	0.71946 0.45431 0.50073 0.35200
O 	O 	0.57107 0.31350 0.44887 -0.33700
C 	C 	0.46736 0.23795 0.56618 0.30400
C 	C 	0.68907 0.32481 0.58054 0.27300
O 	O 	0.51080 0.31019 0.56864 -0.35300
O 	O 	0.49135 0.20751 0.53920 -0.33900
O 	O 	0.74597 0.34642 0.55933 -0.34100
O 	O 	0.64178 0.28480 0.55191 -0.44200
O 	O 	0.73361 0.41558 0.46987 -0.53100
C 	C 	0.76550 0.24256 0.45257 0.30700
C 	C 	0.60843 0.29265 0.43087 0.27700
H 	H 	0.76326 0.44181 0.43974 0.18000
C 	C 	0.64729 0.30665 0.78319 0.09900
N 	N 	0.68743 0.30148 0.81091 -0.07000
N 	N 	0.68019 0.30333 0.85894 -0.06800
C 	C 	0.63304 0.31109 0.88051 0.03600
N 	N 	0.59288 0.31611 0.85281 -0.05800
N 	N 	0.59957 0.31335 0.80484 -0.07300
C 	C 	0.67734 0.31758 0.63311 0.03500
N 	N 	0.61824 0.29795 0.65453 -0.06700
N 	N 	0.60840 0.29372 0.70251 -0.07200
C 	C 	0.65716 0.30822 0.73033 0.09900
N 	N 	0.71608 0.32728 0.70884 -0.07100
N 	N 	0.72616 0.33236 0.66091 -0.05700
C 	C 	0.63778 0.26215 0.23051 0.09900
N 	N 	0.69741 0.28029 0.21126 -0.07200
N 	N 	0.71222 0.29115 0.16386 -0.05700
C 	C 	0.66758 0.28340 0.13430 0.03500
N 	N 	0.60734 0.26345 0.15335 -0.06500
N 	N 	0.59272 0.25323 0.20082 -0.06900
C 	C 	0.61033 0.27399 0.37971 0.03400
N 	N 	0.56862 0.27288 0.35019 -0.05400
N 	N 	0.57544 0.26541 0.30263 -0.07000
C 	C 	0.62473 0.25984 0.28315 0.09900
N 	N 	0.66561 0.25932 0.31278 -0.07300
N 	N 	0.65834 0.26602 0.36043 -0.07100
C 	C 	0.84987 0.69597 0.49145 -0.00500
C 	C 	0.78447 0.65796 0.47772 0.09200
C 	C 	0.74118 0.57925 0.48322 -0.01700
C 	C 	0.76353 0.53765 0.49991 -0.13900
C 	C 	0.82859 0.57560 0.51422 0.16800
C 	C 	0.87188 0.65443 0.50898 -0.10600
H 	H 	0.69070 0.55033 0.47313 0.05400
H 	H 	0.92240 0.68331 0.51896 0.06700
O 	O 	0.76151 0.69839 0.46188 -0.18800
O 	O 	0.85124 0.53511 0.53049 -0.20900
C 	C 	0.76922 0.70157 0.41099 -0.02700
H 	H 	0.82201 0.73054 0.39769 0.04200
H 	H 	0.75186 0.73516 0.39838 0.04700
H 	H 	0.73858 0.64409 0.39473 0.04300
C 	C 	0.84227 0.53139 0.58134 -0.02400
H 	H 	0.87282 0.58866 0.59789 0.04200
H 	H 	0.85886 0.49725 0.59436 0.05900
H 	H 	0.78926 0.50275 0.59396 0.05000
C 	C 	0.80611 0.21199 0.44651 -0.11000
C 	C 	0.77638 0.13381 0.45238 0.16400
C 	C 	0.81596 0.10686 0.45511 -0.10000
C 	C 	0.88490 0.15644 0.44937 -0.00600
C 	C 	0.91470 0.23388 0.44060 0.09700
C 	C 	0.87504 0.26103 0.43815 -0.02800
H 	H 	0.79294 0.04718 0.46157 0.07100
H 	H 	0.89816 0.32061 0.43132 0.06200
O 	O 	0.70848 0.08427 0.45901 -0.18500
O 	O 	0.98219 0.28186 0.43042 -0.18600
C 	C 	0.68289 0.05546 0.41353 -0.02900
H 	H 	0.69379 0.10133 0.38898 0.05200
H 	H 	0.62835 0.01601 0.41879 0.05900
H 	H 	0.70160 0.02267 0.39644 0.04500
C 	C 	0.01197 0.32077 0.47306 -0.03200
H 	H 	0.99640 0.35868 0.48538 0.04600
H 	H 	0.06630 0.35703 0.46520 0.04900
H 	H 	0.00158 0.28125 0.50247 0.04200
C 	C 	0.39533 0.20342 0.57092 -0.10700
C 	C 	0.37044 0.24782 0.58230 0.16100
C 	C 	0.30513 0.21930 0.57297 -0.10000
C 	C 	0.26343 0.14541 0.55542 -0.00700
C 	C 	0.28537 0.09757 0.55116 0.09900
C 	C 	0.35138 0.12700 0.55835 -0.02900
H 	H 	0.28774 0.25559 0.57773 0.06800
H 	H 	0.36909 0.09121 0.55184 0.06800
O 	O 	0.41134 0.32135 0.59854 -0.18700
O 	O 	0.24469 0.02470 0.53375 -0.17800
C 	C 	0.40675 0.32040 0.64946 -0.02600
H 	H 	0.35569 0.29875 0.66435 0.04100
H 	H 	0.43988 0.37935 0.66257 0.05400
H 	H 	0.42355 0.28689 0.66366 0.05200
C 	C 	0.21501 0.97452 0.57333 -0.03700
H 	H 	0.25247 0.97367 0.59248 0.04200
H 	H 	0.17991 0.91650 0.55951 0.04700
H 	H 	0.18615 0.98820 0.59900 0.03700
C 	C 	0.83963 0.69652 0.99326 0.00100
C 	C 	0.83156 0.66347 0.03826 0.08500
C 	C 	0.78823 0.58475 0.04398 -0.01400
C 	C 	0.75616 0.53845 0.00442 -0.14600
C 	C 	0.76203 0.57158 0.96008 0.17100
C 	C 	0.80442 0.65035 0.95451 -0.10800
H 	H 	0.78249 0.55947 0.07851 0.05400
H 	H 	0.81067 0.67544 0.91979 0.06900
O 	O 	0.86346 0.70849 0.07741 -0.18900
O 	O 	0.73110 0.52646 0.92074 -0.20700
C 	C 	0.92324 0.71481 0.07999 -0.02600
H 	H 	0.91412 0.65884 0.08680 0.04100
H 	H 	0.94935 0.75217 0.11085 0.04500
H 	H 	0.95663 0.74132 0.04687 0.03900
C 	C 	0.67009 0.51731 0.91854 -0.02400
H 	H 	0.63765 0.49111 0.95212 0.04800
H 	H 	0.64396 0.47853 0.88820 0.06100
H 	H 	0.67738 0.57214 0.91114 0.04200
C 	C 	0.81846 0.22181 0.94364 -0.10900
C 	C 	0.88572 0.26861 0.95404 0.16500
C 	C 	0.92358 0.23870 0.95167 -0.10100
C 	C 	0.89389 0.16131 0.94307 -0.00400
C 	C 	0.82626 0.11401 0.93435 0.09500
C 	C 	0.78958 0.14503 0.93300 -0.02500
H 	H 	0.97564 0.27531 0.95818 0.06900
H 	H 	0.73803 0.10879 0.92498 0.06100
O 	O 	0.91536 0.34454 0.96441 -0.18900
O 	O 	0.79695 0.03814 0.92399 -0.17500
C 	C 	0.91321 0.35343 0.01504 -0.03100
H 	H 	0.86155 0.32023 0.03144 0.04800
H 	H 	0.93484 0.41396 0.02327 0.04900
H 	H 	0.94332 0.33800 0.03205 0.04200
C 	C 	0.76737 0.99650 0.96722 -0.06400
H 	H 	0.80441 0.01369 0.99432 0.05600
H 	H 	0.74491 0.93581 0.95896 0.05300
H 	H 	0.72699 0.00153 0.98273 0.06000
C 	C 	0.27107 0.15375 0.04612 -0.00500
C 	C 	0.31926 0.23242 0.04741 0.09600
C 	C 	0.38473 0.26003 0.05534 -0.02700
C 	C 	0.40223 0.20970 0.06303 -0.11000
C 	C 	0.35269 0.13124 0.06587 0.16500
C 	C 	0.28689 0.10404 0.05919 -0.10100
H 	H 	0.42233 0.32043 0.05340 0.05900
H 	H 	0.24893 0.04373 0.06123 0.06700
O 	O 	0.30384 0.28225 0.03613 -0.19100
O 	O 	0.36786 0.08180 0.07886 -0.19400
C 	C 	0.28351 0.30276 0.07927 -0.02600
H 	H 	0.23823 0.25273 0.09716 0.04200
H 	H 	0.27100 0.34268 0.07028 0.04600
H 	H 	0.32387 0.33253 0.10458 0.04300
C 	C 	0.36890 0.04161 0.03750 -0.01300
H 	H 	0.31782 0.99808 0.02711 0.03000
H 	H 	0.39128 0.01153 0.04639 0.05500
H 	H 	0.39916 0.07928 0.00619 0.05700
