data_crystal

_cell_length_a 16.24343
_cell_length_b 15.49626
_cell_length_c 49.43291
_cell_angle_alpha 89.54837
_cell_angle_beta  89.55235
_cell_angle_gamma 119.43039

_symmetry_space_group_name_	'P 1'
_symmetry_space_group_name_H-M	'P 1'

loop_
_symmetry_equiv_pos_as_xyz
  x,y,z

loop_
_atom_site_label
_atom_site_type_symbol
_atom_site_fract_x
_atom_site_fract_y
_atom_site_fract_z
_atom_site_charge
C 	C 	0.36056 0.65332 0.38419 0.28800
O 	O 	0.27659 0.59401 0.39550 -0.38900
O 	O 	0.43968 0.69549 0.39859 -0.38700
C 	C 	0.25865 0.66283 0.05939 0.30000
C 	C 	0.17273 0.47342 0.98927 0.30200
C 	C 	0.43135 0.84928 0.03375 0.28500
Ni	Ni	0.34786 0.64437 0.00787 1.11200
Ni	Ni	0.23485 0.77194 0.01201 1.11800
O 	O 	0.27670 0.60320 0.04491 -0.38300
O 	O 	0.21326 0.70518 0.04877 -0.38500
O 	O 	0.26303 0.50653 0.99203 -0.38100
O 	O 	0.44711 0.77983 0.02332 -0.37900
O 	O 	0.36935 0.87191 0.02295 -0.37700
O 	O 	0.28219 0.70132 0.99135 -0.70700
C 	C 	0.84483 0.01151 0.26177 0.29800
C 	C 	0.09492 0.26122 0.17595 0.30000
C 	C 	0.85989 0.01482 0.18686 0.29600
C 	C 	0.14416 0.29535 0.25864 0.29000
C 	C 	0.12779 0.99942 0.18571 0.31900
C 	C 	0.14008 0.02953 0.26108 0.28000
Ni	Ni	0.96958 0.18033 0.22506 1.10800
Ni	Ni	0.16925 0.17539 0.21617 1.11900
Ni	Ni	0.97584 0.97142 0.22515 1.11800
O 	O 	0.90239 0.10840 0.26081 -0.38200
O 	O 	0.85764 0.94999 0.24596 -0.37700
O 	O 	0.15314 0.09357 0.18344 -0.39600
O 	O 	0.01742 0.24986 0.18766 -0.37200
O 	O 	0.16881 0.27909 0.19067 -0.37200
O 	O 	0.04623 0.97363 0.25904 -0.37300
O 	O 	0.85269 0.06844 0.20619 -0.38000
O 	O 	0.91322 0.97266 0.18965 -0.37500
O 	O 	0.19390 0.08238 0.24003 -0.38000
O 	O 	0.07807 0.30210 0.24468 -0.36300
O 	O 	0.20549 0.27499 0.24648 -0.37700
O 	O 	0.06847 0.94366 0.20486 -0.38500
O 	O 	0.03906 0.11278 0.22634 -0.70800
H 	H 	0.04721 0.11780 0.24596 0.13900
C 	C 	0.11644 0.28306 0.04144 -0.06800
C 	C 	0.07476 0.31530 0.06095 0.01400
C 	C 	0.03469 0.37384 0.05251 0.00300
C 	C 	0.05292 0.41469 0.02620 -0.00500
C 	C 	0.10721 0.39389 0.00793 -0.09000
C 	C 	0.12677 0.31712 0.01460 0.05500
C 	C 	0.08555 0.29977 0.09033 0.01500
S 	S 	0.95829 0.39229 0.07401 -0.03700
H 	H 	0.03122 0.46831 0.02074 0.05000
S 	S 	0.17273 0.27022 0.99001 -0.02300
H 	H 	0.14391 0.23459 0.04729 0.05300
C 	C 	0.04049 0.20410 0.10221 -0.00100
C 	C 	0.05122 0.19195 0.12988 -0.00800
C 	C 	0.10460 0.27430 0.14617 -0.08700
C 	C 	0.15364 0.36947 0.13406 0.05700
C 	C 	0.14586 0.38110 0.10613 -0.07300
S 	S 	0.97074 0.09905 0.08280 -0.04200
H 	H 	0.01489 0.11845 0.13898 0.04700
S 	S 	0.22416 0.47460 0.15352 -0.02900
H 	H 	0.18721 0.45310 0.09666 0.06400
H 	H 	0.02593 0.06272 0.07243 0.04000
H 	H 	0.17019 0.51366 0.16305 0.04200
H 	H 	0.86835 0.34218 0.06417 0.04100
C 	C 	0.66592 0.89295 0.13566 -0.07400
C 	C 	0.68004 0.97559 0.12022 0.01500
C 	C 	0.75516 0.06990 0.12627 -0.00400
C 	C 	0.81619 0.08076 0.14728 -0.00900
C 	C 	0.80359 0.99820 0.16244 -0.08800
C 	C 	0.72699 0.90378 0.15681 0.05800
C 	C 	0.62205 0.96150 0.09611 0.01100
S 	S 	0.77424 0.17469 0.10734 -0.03500
H 	H 	0.87213 0.15408 0.15237 0.04400
S 	S 	0.70383 0.79976 0.17693 -0.04500
H 	H 	0.60803 0.82023 0.13105 0.05400
C 	C 	0.65119 0.94526 0.07068 -0.00600
C 	C 	0.59734 0.93598 0.04796 -0.00300
C 	C 	0.50581 0.92235 0.05116 -0.08300
C 	C 	0.48171 0.95060 0.07566 0.05100
C 	C 	0.53991 0.96971 0.09818 -0.07100
S 	S 	0.74605 0.92140 0.06771 -0.03100
H 	H 	0.62013 0.92356 0.02840 0.05100
S 	S 	0.38190 0.96621 0.07802 -0.04500
H 	H 	0.52071 0.98933 0.11729 0.05300
H 	H 	0.64801 0.79370 0.19860 0.04100
H 	H 	0.71387 0.82273 0.07262 0.03700
H 	H 	0.30270 0.87489 0.07889 0.03800
H 	H 	0.81740 0.17455 0.08344 0.04100
C 	C 	0.33200 0.76351 0.12576 -0.07200
C 	C 	0.24430 0.75194 0.13427 0.01200
C 	C 	0.16131 0.67057 0.12476 -0.00700
C 	C 	0.16600 0.62179 0.10168 -0.00100
C 	C 	0.25360 0.65173 0.08898 -0.09400
C 	C 	0.33553 0.70787 0.10395 0.05100
C 	C 	0.23928 0.83638 0.14630 0.01500
S 	S 	0.05108 0.63517 0.14017 -0.02700
H 	H 	0.10175 0.57215 0.09147 0.04800
S 	S 	0.43563 0.69467 0.09858 -0.05500
H 	H 	0.39652 0.81695 0.13541 0.05100
C 	C 	0.25555 0.85695 0.17402 -0.00700
C 	C 	0.22818 0.92029 0.18625 0.00100
C 	C 	0.18215 0.96106 0.17121 -0.09700
C 	C 	0.17409 0.94791 0.14306 0.06000
C 	C 	0.20293 0.88611 0.13074 -0.07200
S 	S 	0.30440 0.79916 0.19395 -0.03700
H 	H 	0.23718 0.93287 0.20785 0.04500
S 	S 	0.12174 0.00242 0.12327 -0.04100
H 	H 	0.18941 0.86983 0.10946 0.05500
H 	H 	0.48414 0.74430 0.07575 0.04100
H 	H 	0.40102 0.85487 0.19293 0.03400
H 	H 	0.18943 0.09517 0.11487 0.04200
H 	H 	0.03377 0.56602 0.16006 0.03800
C 	C 	0.41153 0.77162 0.31765 -0.07300
C 	C 	0.48916 0.75897 0.31109 0.01200
C 	C 	0.49307 0.67699 0.32209 -0.00700
C 	C 	0.43491 0.62529 0.34420 -0.00300
C 	C 	0.37121 0.65342 0.35465 -0.09100
C 	C 	0.34942 0.71473 0.33864 0.05100
C 	C 	0.57510 0.84223 0.29873 0.01400
S 	S 	0.57442 0.64289 0.30947 -0.03500
H 	H 	0.44820 0.57319 0.35540 0.04100
S 	S 	0.24319 0.71654 0.34380 -0.05300
H 	H 	0.40265 0.82890 0.30761 0.05200
C 	C 	0.58255 0.85978 0.27060 -0.00600
C 	C 	0.67035 0.92622 0.25891 -0.00300
C 	C 	0.75154 0.97283 0.27494 -0.08700
C 	C 	0.74209 0.96223 0.30323 0.05800
C 	C 	0.65426 0.89701 0.31498 -0.07200
S 	S 	0.48417 0.79486 0.24968 -0.04000
H 	H 	0.67685 0.93631 0.23711 0.04600
S 	S 	0.84104 0.02322 0.32401 -0.05100
H 	H 	0.64906 0.88322 0.33659 0.05500
H 	H 	0.25704 0.79369 0.35989 0.04500
H 	H 	0.43470 0.84524 0.24823 0.03600
H 	H 	0.87887 0.96205 0.32738 0.04100
H 	H 	0.53320 0.57605 0.28913 0.03600
C 	C 	0.19123 0.38370 0.33098 -0.07500
C 	C 	0.15526 0.29302 0.34509 0.01500
C 	C 	0.11265 0.20384 0.33070 -0.00400
C 	C 	0.10296 0.20576 0.30269 -0.00200
C 	C 	0.14147 0.29619 0.28841 -0.09400
C 	C 	0.18645 0.38583 0.30269 0.05900
C 	C 	0.15529 0.29222 0.37504 0.01500
S 	S 	0.07661 0.08986 0.34727 -0.02800
H 	H 	0.06803 0.13670 0.29190 0.03500
S 	S 	0.23787 0.50085 0.28548 -0.03400
H 	H 	0.22297 0.45248 0.34203 0.06300
C 	C 	0.24038 0.32719 0.38927 -0.00200
C 	C 	0.07205 0.26986 0.38929 -0.07100
S 	S 	0.33989 0.33040 0.37402 -0.02900
H 	H 	0.00503 0.23667 0.37891 0.05500
H 	H 	0.33160 0.53251 0.28047 0.04100
H 	H 	0.37633 0.40212 0.35424 0.03400
H 	H 	0.99847 0.06479 0.36317 0.03200
C 	C 	0.19880 0.94371 0.32722 -0.07000
C 	C 	0.28479 0.02740 0.33373 0.01100
C 	C 	0.32277 0.11115 0.31640 -0.00200
C 	C 	0.27245 0.11198 0.29358 -0.00900
C 	C 	0.18760 0.02727 0.28653 -0.08300
C 	C 	0.15217 0.94127 0.30325 0.05400
C 	C 	0.33774 0.02271 0.35757 0.01600
S 	S 	0.43580 0.21276 0.32196 -0.03700
H 	H 	0.30038 0.17821 0.28097 0.04400
S 	S 	0.05637 0.82746 0.29328 -0.03300
H 	H 	0.17009 0.87866 0.34030 0.05300
C 	C 	0.30275 0.01884 0.38405 -0.00800
C 	C 	0.32887 0.97652 0.40506 0.00600
C 	C 	0.38865 0.93728 0.39973 -0.09100
C 	C 	0.44071 0.96387 0.37535 0.05500
C 	C 	0.41213 0.00198 0.35378 -0.07400
S 	S 	0.22409 0.06307 0.39096 -0.02300
S 	S 	0.54380 0.95468 0.37226 -0.05400
H 	H 	0.44453 0.01122 0.33394 0.05400
H 	H 	0.08952 0.77751 0.27792 0.04000
H 	H 	0.13351 0.98522 0.39058 0.03800
H 	H 	0.52114 0.85922 0.36700 0.04300
H 	H 	0.42915 0.29584 0.32687 0.03700
O 	O 	0.09442 0.67823 0.00748 -0.37400
C 	C 	0.24502 0.35741 0.41611 -0.00200
C 	C 	0.07621 0.29580 0.41649 0.05700
S 	S 	0.97099 0.26398 0.43451 -0.03100
H 	H 	0.94897 0.33838 0.43186 0.05100
C 	C 	0.80262 0.21039 0.50293 0.29200
C 	C 	0.55305 0.36926 0.48142 0.30000
C 	C 	0.85017 0.46767 0.48710 0.29600
C 	C 	0.49667 0.08875 0.49717 0.28000
C 	C 	0.65911 0.43498 0.56363 0.31700
C 	C 	0.63600 0.19101 0.57311 0.29300
Ni	Ni	0.67278 0.27237 0.47761 1.11400
Ni	Ni	0.54765 0.26228 0.53148 1.12200
Ni	Ni	0.77116 0.35213 0.53664 1.12000
O 	O 	0.73734 0.18640 0.48412 -0.36900
O 	O 	0.84242 0.29913 0.51414 -0.37800
O 	O 	0.60026 0.40219 0.54339 -0.39000
O 	O 	0.62254 0.36857 0.46799 -0.36200
O 	O 	0.49823 0.29501 0.49759 -0.37100
O 	O 	0.72450 0.23853 0.56358 -0.38300
O 	O 	0.80916 0.39066 0.47115 -0.35900
O 	O 	0.81110 0.46693 0.51043 -0.37600
O 	O 	0.57544 0.22350 0.56817 -0.38800
O 	O 	0.53622 0.15012 0.47628 -0.35900
O 	O 	0.47730 0.11906 0.52008 -0.36900
O 	O 	0.73576 0.42600 0.56378 -0.38200
O 	O 	0.66094 0.27715 0.51575 -0.70800
H 	H 	0.65088 0.21068 0.52023 0.14300
C 	C 	0.17792 0.42892 0.44793 0.29300
C 	C 	0.44080 0.80394 0.49162 0.29800
C 	C 	0.13391 0.61765 0.47986 0.30900
C 	C 	0.47491 0.57757 0.46755 0.28300
C 	C 	0.36868 0.84474 0.41368 0.30500
Ni	Ni	0.30410 0.58925 0.48567 1.11300
Ni	Ni	0.45412 0.73365 0.43816 1.12000
Ni	Ni	0.22963 0.63262 0.42860 1.12000
O 	O 	0.23399 0.44743 0.46911 -0.36500
O 	O 	0.14523 0.48939 0.44132 -0.37900
O 	O 	0.42883 0.84665 0.43164 -0.38800
O 	O 	0.36162 0.73089 0.50142 -0.36000
O 	O 	0.49531 0.78541 0.47589 -0.37300
O 	O 	0.16980 0.57003 0.49283 -0.36800
O 	O 	0.18135 0.67867 0.45998 -0.37900
O 	O 	0.43428 0.59483 0.48834 -0.36500
O 	O 	0.50123 0.63588 0.44576 -0.36500
O 	O 	0.28135 0.76996 0.41262 -0.38900
O 	O 	0.32992 0.63705 0.44911 -0.70700
H 	H 	0.33369 0.58219 0.44041 0.14300
C 	C 	0.16474 0.35134 0.42880 -0.09100
H 	H 	0.31259 0.39364 0.42620 0.04300
H 	H 	0.29475 0.96437 0.42475 0.04900
C 	C 	0.45881 0.90357 0.49386 -0.04200
C 	C 	0.47500 0.98789 0.49514 -0.03400
C 	C 	0.94935 0.53254 0.48366 -0.03200
C 	C 	0.03398 0.57775 0.48154 -0.05500
C 	C 	0.52738 0.44318 0.47503 -0.03700
C 	C 	0.50505 0.50544 0.47072 -0.03500
C 	C 	0.94125 0.11870 0.54084 -0.05900
C 	C 	0.86766 0.02354 0.54744 0.00600
C 	C 	0.78911 0.97928 0.53035 -0.00100
C 	C 	0.77168 0.03888 0.51242 -0.00900
C 	C 	0.83673 0.14069 0.51019 -0.08400
C 	C 	0.92715 0.17639 0.52149 0.05400
H 	H 	0.70548 0.00762 0.50165 0.05000
S 	S 	0.02337 0.29008 0.51063 -0.02600
H 	H 	0.00652 0.15018 0.55207 0.04500
S 	S 	0.96134 0.89525 0.55897 -0.01900
H 	H 	0.03213 0.36443 0.52724 0.04200
H 	H 	0.05117 0.96963 0.55310 0.03000
C 	C 	0.61314 0.12150 0.59584 -0.08700
C 	C 	0.56412 0.01897 0.59101 0.05100
S 	S 	0.57872 0.97195 0.56030 -0.04200
H 	H 	0.62201 0.91776 0.56619 0.04200
C 	C 	0.70354 0.56059 0.59900 0.00700
C 	C 	0.63455 0.47081 0.58824 -0.09800
H 	H 	0.75660 0.61680 0.58573 0.04200
S 	S 	0.45401 0.31055 0.59217 -0.07200
H 	H 	0.44282 0.22007 0.59952 0.04500
S 	S 	0.71568 0.84991 0.53044 -0.02300
H 	H 	0.75105 0.80899 0.51250 0.04600
C 	C 	0.56078 0.40308 0.60545 0.06700
C 	C 	0.19748 0.10142 0.74160 0.29700
C 	C 	0.85434 0.71116 0.71882 0.31200
C 	C 	0.14383 0.92169 0.68641 0.31200
C 	C 	0.90718 0.95614 0.65943 0.31200
C 	C 	0.93067 0.11324 0.72173 0.29800
Ni	Ni	0.03710 0.88075 0.73841 1.10500
Ni	Ni	0.85708 0.89981 0.71779 1.12100
Ni	Ni	0.06407 0.05579 0.69660 1.11500
O 	O 	0.17229 0.00544 0.74380 -0.37100
O 	O 	0.14840 0.13305 0.72732 -0.38900
O 	O 	0.84521 0.93762 0.67917 -0.37900
O 	O 	0.91758 0.73892 0.73797 -0.36500
O 	O 	0.85164 0.77707 0.70285 -0.38900
O 	O 	0.98565 0.12514 0.70032 -0.37700
O 	O 	0.07857 0.85102 0.70152 -0.38400
O 	O 	0.16270 0.01397 0.68898 -0.38200
O 	O 	0.86046 0.02496 0.72905 -0.38700
O 	O 	0.98203 0.89795 0.77463 -0.36800
O 	O 	0.83254 0.84362 0.75686 -0.37300
O 	O 	0.99365 0.97601 0.66469 -0.39000
O 	O 	0.98968 0.95862 0.72297 -0.70900
H 	H 	0.99728 0.00205 0.73829 0.15800
C 	C 	0.86030 0.98604 0.57545 0.02100
C 	C 	0.90958 0.93672 0.58333 -0.01100
C 	C 	0.91919 0.92180 0.61085 0.00100
C 	C 	0.87991 0.95563 0.63080 -0.09200
C 	C 	0.82575 0.00020 0.62272 0.05800
C 	C 	0.81564 0.01389 0.59518 -0.07700
H 	H 	0.96011 0.88684 0.61678 0.04600
S 	S 	0.77594 0.04591 0.64655 -0.03100
H 	H 	0.77783 0.05212 0.58910 0.06000
H 	H 	0.68404 0.97547 0.65190 0.04000
C 	C 	0.36234 0.90676 0.67072 -0.07600
C 	C 	0.37654 0.93947 0.64370 0.01800
C 	C 	0.30040 0.93645 0.62926 -0.00900
C 	C 	0.21793 0.91787 0.64313 0.00200
C 	C 	0.21062 0.90233 0.67116 -0.09900
C 	C 	0.28060 0.89035 0.68474 0.06500
C 	C 	0.47380 0.99322 0.63237 0.00900
S 	S 	0.30763 0.95665 0.59399 -0.02900
H 	H 	0.16201 0.92214 0.63240 0.03400
S 	S 	0.27037 0.86298 0.71964 -0.06600
H 	H 	0.41851 0.90311 0.68147 0.05300
C 	C 	0.53547 0.09241 0.63963 -0.00500
C 	C 	0.60771 0.15491 0.62169 -0.00300
C 	C 	0.49703 0.95453 0.60990 -0.07000
S 	S 	0.51792 0.14140 0.66976 -0.03600
H 	H 	0.65045 0.23292 0.62629 0.04200
H 	H 	0.45487 0.87641 0.60542 0.05500
H 	H 	0.31335 0.94976 0.73369 0.04700
H 	H 	0.56808 0.12900 0.69012 0.03400
H 	H 	0.33768 0.05422 0.58831 0.03600
C 	C 	0.74915 0.48679 0.68093 -0.07300
C 	C 	0.67039 0.49601 0.67352 0.01100
C 	C 	0.63339 0.53638 0.69232 -0.00500
C 	C 	0.68761 0.58684 0.71469 -0.00400
C 	C 	0.78166 0.60694 0.71604 -0.09400
C 	C 	0.80561 0.54305 0.70235 0.05600
C 	C 	0.64907 0.49495 0.64444 0.02000
S 	S 	0.52765 0.53773 0.68586 -0.04100
H 	H 	0.66358 0.62579 0.72788 0.03400
S 	S 	0.91164 0.54335 0.70937 -0.04400
H 	H 	0.77305 0.44704 0.66801 0.05400
C 	C 	0.71117 0.57310 0.62704 -0.01000
C 	C 	0.57071 0.41281 0.63357 -0.07700
S 	S 	0.79990 0.68547 0.64014 -0.01300
H 	H 	0.51844 0.35607 0.64689 0.05600
H 	H 	0.98341 0.61564 0.69403 0.05000
H 	H 	0.87991 0.67909 0.64458 0.04300
H 	H 	0.45337 0.45911 0.69867 0.03400
C 	C 	0.94731 0.19823 0.73798 -0.09800
C 	C 	0.89392 0.24567 0.73308 0.06300
S 	S 	0.85952 0.25566 0.70008 -0.03900
H 	H 	0.77161 0.17698 0.69541 0.04000
C 	C 	0.44705 0.31705 0.74513 -0.07400
C 	C 	0.28965 0.17549 0.75215 -0.08800
C 	C 	0.36316 0.24117 0.73450 0.05700
S 	S 	0.35307 0.22611 0.69919 -0.04400
H 	H 	0.50332 0.36753 0.73160 0.05300
H 	H 	0.31243 0.27827 0.68878 0.03200
H 	H 	0.69426 0.36543 0.74441 0.03700
C 	C 	0.89286 0.87771 0.77748 0.28800
C 	C 	0.65551 0.46313 0.85696 0.29100
O 	O 	0.73232 0.50033 0.87244 -0.38900
O 	O 	0.56997 0.42090 0.86767 -0.39100
C 	C 	0.86209 0.27880 0.75490 -0.07600
C 	C 	0.88312 0.26418 0.78141 0.01900
C 	C 	0.95093 0.23398 0.78570 -0.01300
C 	C 	0.98575 0.20513 0.76368 0.01600
C 	C 	0.82632 0.26904 0.80416 0.01400
S 	S 	0.98820 0.22620 0.81854 -0.01500
H 	H 	0.03259 0.17500 0.76716 0.02300
H 	H 	0.81711 0.31084 0.75135 0.05400
C 	C 	0.86331 0.35166 0.82107 -0.00800
C 	C 	0.81257 0.35077 0.84403 0.00100
C 	C 	0.72044 0.27230 0.84907 -0.10200
C 	C 	0.68236 0.18965 0.83182 0.06000
C 	C 	0.73596 0.18834 0.80959 -0.07400
S 	S 	0.97053 0.45918 0.81283 -0.03400
H 	H 	0.84285 0.41402 0.85731 0.02600
S 	S 	0.57110 0.08533 0.83849 -0.03700
H 	H 	0.70780 0.12416 0.79664 0.05400
H 	H 	0.95225 0.51982 0.79663 0.03700
H 	H 	0.50398 0.09243 0.82354 0.03900
H 	H 	0.06585 0.31457 0.82478 0.03000
C 	C 	0.45953 0.32654 0.77316 0.01400
C 	C 	0.38779 0.25773 0.79074 -0.00200
C 	C 	0.30338 0.18302 0.78013 -0.00600
C 	C 	0.54796 0.40786 0.78412 0.01100
S 	S 	0.40305 0.26401 0.82604 -0.04400
H 	H 	0.24773 0.13158 0.79369 0.03800
C 	C 	0.62674 0.39461 0.78806 -0.00000
C 	C 	0.68814 0.44344 0.80938 -0.01000
C 	C 	0.66383 0.49427 0.82827 -0.08500
C 	C 	0.60451 0.53108 0.81922 0.06200
C 	C 	0.54527 0.48630 0.79721 -0.06900
S 	S 	0.64637 0.31481 0.76734 -0.04200
H 	H 	0.75051 0.43715 0.81208 0.04100
S 	S 	0.58992 0.61738 0.83839 -0.03700
H 	H 	0.49006 0.50390 0.79251 0.05400
H 	H 	0.51999 0.56882 0.85746 0.05200
H 	H 	0.45157 0.21619 0.83330 0.03300
C 	C 	0.77786 0.83300 0.88969 0.01300
C 	C 	0.80253 0.84393 0.86043 0.01800
S 	S 	0.59345 0.78988 0.88261 -0.03000
H 	H 	0.92118 0.89808 0.90383 0.05800
C 	C 	0.81125 0.92479 0.84483 -0.00600
C 	C 	0.83523 0.93209 0.81718 -0.00500
C 	C 	0.85375 0.86130 0.80523 -0.08200
C 	C 	0.84628 0.78153 0.82100 0.06000
C 	C 	0.82061 0.77321 0.84833 -0.07200
S 	S 	0.79758 0.01971 0.85984 -0.02400
H 	H 	0.84244 0.99445 0.80522 0.03900
S 	S 	0.87132 0.69276 0.80688 -0.02900
H 	H 	0.81478 0.71148 0.86031 0.06400
H 	H 	0.70725 0.00219 0.85610 0.04000
H 	H 	0.96525 0.72248 0.80994 0.03800
C 	C 	0.68268 0.77414 0.89780 0.00000
H 	H 	0.58252 0.86013 0.89635 0.04500
H 	H 	0.34093 0.75885 0.98470 0.14400
H 	H 	0.09977 0.19086 0.97771 0.04200
O 	O 	0.42716 0.67036 0.97285 -0.37100
C 	C 	0.71687 0.59809 0.93981 0.27900
C 	C 	0.47962 0.16668 0.94045 0.28800
C 	C 	0.79019 0.43417 0.96556 0.31000
C 	C 	0.42920 0.39048 0.93163 0.29500
C 	C 	0.67187 0.27501 0.87420 0.30600
Ni	Ni	0.58717 0.38249 0.95855 1.11000
Ni	Ni	0.52011 0.31153 0.89514 1.12100
Ni	Ni	0.74314 0.44440 0.90934 1.11700
O 	O 	0.64363 0.53772 0.95597 -0.35900
O 	O 	0.77789 0.57154 0.93003 -0.37800
O 	O 	0.57973 0.24101 0.87524 -0.38600
O 	O 	0.54340 0.23009 0.95753 -0.34900
O 	O 	0.44442 0.19754 0.92119 -0.36700
O 	O 	0.71346 0.41887 0.97822 -0.36600
O 	O 	0.78423 0.39634 0.94181 -0.37500
O 	O 	0.44908 0.34788 0.95142 -0.37400
O 	O 	0.43580 0.36812 0.90643 -0.36500
O 	O 	0.72307 0.31572 0.89529 -0.38600
O 	O 	0.61526 0.39268 0.92063 -0.70000
H 	H 	0.60855 0.45032 0.91567 0.13800
C 	C 	0.38666 0.61953 0.95109 0.29800
C 	C 	0.05806 0.64518 0.98367 0.29800
C 	C 	0.30303 0.87519 0.95924 0.27800
Ni	Ni	0.22227 0.65795 0.95659 1.11800
O 	O 	0.31948 0.62850 0.93884 -0.37200
O 	O 	0.29456 0.80162 0.94358 -0.36200
O 	O 	0.14173 0.51461 0.97127 -0.37000
O 	O 	0.24370 0.85776 0.97976 -0.36900
O 	O 	0.11098 0.67823 0.96204 -0.39100
C 	C 	0.96057 0.57018 0.98092 -0.03700
C 	C 	0.88139 0.50705 0.97531 -0.04600
C 	C 	0.37239 0.97640 0.95274 -0.03500
C 	C 	0.42604 0.06311 0.94782 -0.02800
C 	C 	0.41428 0.47194 0.93741 -0.04900
C 	C 	0.40317 0.54065 0.94333 -0.04200
C 	C 	0.84775 0.84491 0.90816 -0.06800
C 	C 	0.65939 0.70337 0.91855 -0.00900
C 	C 	0.73151 0.69707 0.93230 -0.08100
C 	C 	0.82450 0.77725 0.92976 0.05500
H 	H 	0.58645 0.64787 0.92205 0.04800
S 	S 	0.91293 0.78901 0.95218 -0.02500
H 	H 	0.95827 0.74140 0.94193 0.05400
