data_crystal

_cell_length_a 26.99148
_cell_length_b 26.98691
_cell_length_c 27.00098
_cell_angle_alpha 89.91410
_cell_angle_beta  89.90474
_cell_angle_gamma 89.90474

_symmetry_space_group_name_	'P 1'
_symmetry_space_group_name_H-M	'P 1'

loop_
_symmetry_equiv_pos_as_xyz
  x,y,z

loop_
_atom_site_label
_atom_site_type_symbol
_atom_site_fract_x
_atom_site_fract_y
_atom_site_fract_z
_atom_site_charge
Co	Co	0.98015 0.03688 0.44677 1.19000
Co	Co	0.04558 0.95559 0.57083 1.19200
Co	Co	0.97228 0.03541 0.56723 1.18600
Co	Co	0.05548 0.95920 0.45122 1.19000
C 	C 	0.02026 0.11140 0.37780 0.33600
Co	Co	0.03191 0.00751 0.34270 1.16200
Co	Co	0.01029 0.99873 0.67665 1.17600
C 	C 	0.04283 0.89784 0.35936 0.32700
O 	O 	0.93973 0.02945 0.68128 -0.40000
O 	O 	0.00577 0.99335 0.59919 -0.76200
C 	C 	0.90296 0.01567 0.65255 0.32600
O 	O 	0.94452 0.06708 0.50521 -0.45200
O 	O 	0.08006 0.92426 0.51256 -0.45900
C 	C 	0.00860 0.89002 0.65667 0.31100
O 	O 	0.99778 0.98225 0.50771 -0.56700
C 	C 	0.01675 0.10423 0.64373 0.31600
C 	C 	0.92147 0.00723 0.35293 0.30400
C 	C 	0.13337 0.00574 0.38536 0.31100
O 	O 	0.90672 0.01932 0.60392 -0.39000
O 	O 	0.96000 0.98206 0.33617 -0.37600
O 	O 	0.92049 0.02684 0.39821 -0.36300
O 	O 	0.98301 0.92737 0.67535 -0.37100
O 	O 	0.02872 0.89219 0.61168 -0.38100
O 	O 	0.03880 0.06968 0.67031 -0.40000
O 	O 	0.00818 0.09713 0.59600 -0.38800
O 	O 	0.10288 0.03186 0.35763 -0.39500
O 	O 	0.12137 0.99403 0.43141 -0.37900
O 	O 	0.01877 0.99760 0.41867 -0.76100
C 	C 	0.11672 0.98469 0.64806 0.32600
O 	O 	0.08219 0.97032 0.67929 -0.40300
O 	O 	0.10612 0.99093 0.60102 -0.38900
O 	O 	0.00618 0.07997 0.34356 -0.40900
O 	O 	0.01982 0.09825 0.42473 -0.40100
O 	O 	0.06049 0.93621 0.33511 -0.39200
O 	O 	0.03975 0.89819 0.40809 -0.37800
Co	Co	0.96397 0.43023 0.04799 1.19200
Co	Co	0.02569 0.55125 0.96057 1.17900
Co	Co	0.95677 0.55060 0.04433 1.19000
Co	Co	0.03466 0.43107 0.96684 1.18200
C 	C 	0.89540 0.35090 0.00963 0.33000
Co	Co	0.00288 0.32334 0.00792 1.17700
Co	Co	0.97718 0.65762 0.99380 1.16200
C 	C 	0.11072 0.35400 0.00429 0.33700
O 	O 	0.00867 0.66272 0.06319 -0.38100
O 	O 	0.99106 0.58142 0.00251 -0.74700
C 	C 	0.98720 0.64383 0.10292 0.32200
O 	O 	0.93181 0.48968 0.07993 -0.46000
O 	O 	0.05882 0.49157 0.92989 -0.46500
C 	C 	0.08521 0.64460 0.97146 0.32700
O 	O 	0.01158 0.49269 0.01877 -0.57300
C 	C 	0.87601 0.61832 0.01540 0.32900
C 	C 	0.99032 0.34618 0.11729 0.32700
C 	C 	0.00189 0.35108 0.90111 0.31600
O 	O 	0.97187 0.59695 0.10452 -0.38000
O 	O 	0.97831 0.31609 0.08092 -0.39900
O 	O 	0.98843 0.39469 0.11154 -0.38400
O 	O 	0.04471 0.66837 0.95853 -0.41600
O 	O 	0.08700 0.59575 0.97062 -0.38600
O 	O 	0.90755 0.65343 0.02687 -0.39500
O 	O 	0.89100 0.57207 0.01183 -0.39000
O 	O 	0.02419 0.32265 0.93382 -0.39300
O 	O 	0.99448 0.39827 0.91088 -0.39500
O 	O 	0.00393 0.40085 0.01132 -0.76500
C 	C 	0.96931 0.61863 0.89125 0.32200
O 	O 	0.94560 0.64436 0.92521 -0.38700
O 	O 	0.98296 0.57237 0.89991 -0.39000
O 	O 	0.92925 0.32414 0.98663 -0.40100
O 	O 	0.90175 0.39904 0.01596 -0.38600
O 	O 	0.07624 0.33029 0.03007 -0.37900
O 	O 	0.09993 0.39008 0.97227 -0.39400
Co	Co	0.56636 0.02984 0.03918 1.18700
Co	Co	0.44095 0.95753 0.96611 1.18500
Co	Co	0.44523 0.03338 0.04306 1.18300
Co	Co	0.56141 0.95670 0.95982 1.18100
C 	C 	0.65477 0.99328 0.10138 0.33100
Co	Co	0.67133 0.99501 0.99231 1.16200
Co	Co	0.33554 0.99885 0.00532 1.18500
C 	C 	0.63458 0.00243 0.88807 0.30900
O 	O 	0.34164 0.07062 0.97980 -0.41100
O 	O 	0.41293 0.99330 0.00808 -0.74700
C 	C 	0.36705 0.10398 0.00433 0.32300
O 	O 	0.50769 0.06259 0.07232 -0.45800
O 	O 	0.49928 0.92722 0.93058 -0.46300
C 	C 	0.36334 0.99280 0.89869 0.34900
O 	O 	0.50374 0.97967 0.01626 -0.56200
C 	C 	0.36070 0.01698 0.11427 0.32600
C 	C 	0.64256 0.10111 0.00587 0.36300
C 	C 	0.64790 0.88740 0.97469 0.32300
O 	O 	0.41504 0.09778 0.01247 -0.38100
O 	O 	0.67384 0.06679 0.02054 -0.41300
O 	O 	0.59488 0.09138 0.00340 -0.39900
O 	O 	0.33332 0.97436 0.93238 -0.39600
O 	O 	0.41101 0.99616 0.90776 -0.40900
O 	O 	0.33028 0.02701 0.07734 -0.39400
O 	O 	0.40894 0.01286 0.10720 -0.39600
O 	O 	0.67603 0.92474 0.96095 -0.41400
O 	O 	0.59921 0.89165 0.97520 -0.38200
O 	O 	0.59418 0.99046 0.00041 -0.74500
C 	C 	0.35533 0.89026 0.00185 0.37300
O 	O 	0.33801 0.92630 0.03003 -0.38800
O 	O 	0.39878 0.89359 0.97869 -0.40000
O 	O 	0.67191 0.96734 0.06355 -0.38700
O 	O 	0.60978 0.01360 0.10091 -0.38100
O 	O 	0.66263 0.02380 0.92170 -0.38600
O 	O 	0.58730 0.99318 0.89724 -0.38700
C 	C 	0.76578 0.67706 0.95913 -0.14800
C 	C 	0.74515 0.69871 0.00167 0.05800
C 	C 	0.75811 0.67997 0.04858 0.11300
C 	C 	0.79722 0.64605 0.05290 -0.02600
C 	C 	0.82335 0.63088 0.01060 -0.10800
C 	C 	0.80422 0.64237 0.96359 0.18100
C 	C 	0.71865 0.74654 0.99749 -0.04700
O 	O 	0.73364 0.69589 0.09022 -0.26200
H 	H 	0.81009 0.63517 0.08934 0.05600
O 	O 	0.82622 0.62357 0.92186 -0.28400
H 	H 	0.75448 0.68964 0.92272 0.08000
C 	C 	0.74239 0.79078 0.01139 0.14600
C 	C 	0.71822 0.83626 0.00546 -0.01600
C 	C 	0.67114 0.83850 0.98358 -0.14100
C 	C 	0.64770 0.79419 0.96867 0.19000
C 	C 	0.67125 0.74844 0.97637 -0.09800
O 	O 	0.78928 0.78959 0.03095 -0.28400
H 	H 	0.73645 0.86998 0.01728 0.05500
O 	O 	0.60212 0.79549 0.94628 -0.28100
H 	H 	0.65308 0.71456 0.96496 0.07100
H 	H 	0.80814 0.59245 0.91467 0.15800
H 	H 	0.81194 0.79202 0.00209 0.15300
H 	H 	0.60913 0.79815 0.91030 0.15000
H 	H 	0.75352 0.72391 0.10312 0.15900
C 	C 	0.76552 0.31344 0.97537 -0.13100
C 	C 	0.75690 0.27566 0.01009 0.01800
C 	C 	0.79085 0.26817 0.04896 0.12600
C 	C 	0.83478 0.29558 0.05048 -0.03700
C 	C 	0.84517 0.33056 0.01355 -0.10400
C 	C 	0.80979 0.34048 0.97661 0.18100
C 	C 	0.71821 0.23827 0.00037 0.03600
O 	O 	0.78311 0.23123 0.08305 -0.27000
H 	H 	0.86183 0.28799 0.07916 0.05600
O 	O 	0.81886 0.37576 0.94111 -0.28400
H 	H 	0.73923 0.31988 0.94574 0.07600
C 	C 	0.67798 0.23249 0.03312 0.10500
C 	C 	0.64947 0.18911 0.03163 0.01100
C 	C 	0.66078 0.15167 0.99738 -0.17400
C 	C 	0.69764 0.16001 0.96140 0.21500
C 	C 	0.72568 0.20350 0.96261 -0.14600
O 	O 	0.66860 0.26755 0.06866 -0.26800
H 	H 	0.62071 0.18326 0.05908 0.05400
O 	O 	0.70726 0.12500 0.92589 -0.27900
H 	H 	0.75557 0.20855 0.93622 0.08100
H 	H 	0.83548 0.35786 0.91363 0.15000
H 	H 	0.64508 0.29112 0.05306 0.15400
H 	H 	0.73411 0.10403 0.93974 0.14300
H 	H 	0.76556 0.24740 0.11100 0.15900
C 	C 	0.21903 0.68690 0.96800 -0.11600
C 	C 	0.21554 0.73233 0.99294 -0.01100
C 	C 	0.16978 0.74757 0.01282 0.14100
C 	C 	0.12780 0.71793 0.00680 -0.00900
C 	C 	0.13079 0.67319 0.98057 -0.14600
C 	C 	0.17679 0.65760 0.96115 0.20000
C 	C 	0.25847 0.76612 0.99393 -0.00500
O 	O 	0.16543 0.79277 0.03563 -0.26700
H 	H 	0.09262 0.73015 0.02193 0.05900
O 	O 	0.18043 0.61424 0.93491 -0.28500
H 	H 	0.25419 0.67503 0.95258 0.07400
C 	C 	0.28161 0.77792 0.03907 0.13000
C 	C 	0.31513 0.81740 0.04124 0.00600
C 	C 	0.32705 0.84403 0.99822 -0.17600
C 	C 	0.30732 0.82927 0.95237 0.20900
C 	C 	0.27284 0.79068 0.95043 -0.11900
O 	O 	0.26963 0.75255 0.08148 -0.27200
H 	H 	0.33094 0.82802 0.07653 0.05700
O 	O 	0.31881 0.85496 0.91000 -0.29200
H 	H 	0.25570 0.78123 0.91543 0.07900
H 	H 	0.17424 0.62361 0.89991 0.15300
H 	H 	0.29332 0.72446 0.08294 0.15400
H 	H 	0.34799 0.83764 0.89581 0.15700
H 	H 	0.17030 0.78602 0.07141 0.16500
C 	C 	0.33192 0.23963 0.00080 -0.04800
C 	C 	0.28420 0.23759 0.02158 -0.02300
C 	C 	0.26716 0.19297 0.04245 0.14700
C 	C 	0.29619 0.15022 0.03943 -0.05500
C 	C 	0.34274 0.15137 0.01635 -0.08600
C 	C 	0.36114 0.19659 0.99785 0.13600
C 	C 	0.24943 0.27949 0.01498 0.03800
O 	O 	0.22032 0.19011 0.06207 -0.27200
H 	H 	0.28118 0.11536 0.05245 0.07400
O 	O 	0.40693 0.19861 0.97581 -0.27500
H 	H 	0.34548 0.27398 0.98503 0.04700
C 	C 	0.23011 0.30433 0.05659 0.11600
C 	C 	0.18595 0.33141 0.05246 -0.02800
C 	C 	0.16200 0.33547 0.00656 -0.10500
C 	C 	0.18468 0.31573 0.96392 0.18200
C 	C 	0.22818 0.28773 0.96830 -0.13700
O 	O 	0.25223 0.29904 0.10199 -0.27000
H 	H 	0.16939 0.34763 0.08526 0.06600
O 	O 	0.16209 0.32003 0.91863 -0.28500
H 	H 	0.24346 0.26960 0.93589 0.07800
H 	H 	0.40089 0.19219 0.94017 0.14700
H 	H 	0.27648 0.32653 0.10405 0.15100
H 	H 	0.17611 0.35052 0.90364 0.15500
H 	H 	0.22446 0.19620 0.09804 0.16200
C 	C 	0.80593 0.97577 0.74533 -0.12300
C 	C 	0.76296 0.99695 0.72517 0.02100
C 	C 	0.76518 0.02025 0.67852 0.10000
C 	C 	0.81076 0.02485 0.65392 -0.02000
C 	C 	0.85416 0.00549 0.67523 -0.14500
C 	C 	0.85112 0.97908 0.72018 0.21600
C 	C 	0.71739 0.99955 0.75562 0.02500
O 	O 	0.72330 0.04043 0.65796 -0.26900
H 	H 	0.81254 0.04474 0.61906 0.06300
O 	O 	0.89264 0.95777 0.74036 -0.29800
H 	H 	0.80454 0.95780 0.78123 0.07400
C 	C 	0.69448 0.95575 0.77245 0.10700
C 	C 	0.66175 0.95749 0.81279 -0.01400
C 	C 	0.65197 0.00266 0.83646 -0.14000
C 	C 	0.66899 0.04700 0.81491 0.20600
C 	C 	0.70224 0.04531 0.77510 -0.13000
O 	O 	0.70460 0.91127 0.75002 -0.26600
H 	H 	0.64695 0.92331 0.82786 0.04900
O 	O 	0.65583 0.09185 0.83485 -0.27300
H 	H 	0.71846 0.07938 0.76134 0.08800
H 	H 	0.89309 0.92333 0.72759 0.16000
H 	H 	0.73178 0.89625 0.76968 0.14300
H 	H 	0.62526 0.10180 0.81708 0.15400
H 	H 	0.70858 0.01350 0.63785 0.15100
C 	C 	0.27462 0.03582 0.80081 -0.11100
C 	C 	0.29100 0.00800 0.76014 -0.02600
C 	C 	0.33708 0.98358 0.76247 0.14100
C 	C 	0.36344 0.98242 0.80717 -0.01300
C 	C 	0.34384 0.00541 0.84948 -0.15200
C 	C 	0.30092 0.03476 0.84533 0.20000
C 	C 	0.25588 0.99713 0.71977 0.04100
O 	O 	0.35618 0.96066 0.72130 -0.26900
H 	H 	0.39753 0.96128 0.80961 0.05900
O 	O 	0.28297 0.05996 0.88564 -0.30100
H 	H 	0.23980 0.05581 0.79885 0.07000
C 	C 	0.23084 0.95140 0.71925 0.11000
C 	C 	0.18782 0.94592 0.69107 -0.02600
C 	C 	0.16845 0.98626 0.66466 -0.11500
C 	C 	0.19560 0.03063 0.66178 0.18800
C 	C 	0.23961 0.03568 0.68881 -0.13300
O 	O 	0.24704 0.91280 0.74818 -0.27200
H 	H 	0.16769 0.91120 0.69239 0.05700
O 	O 	0.17834 0.06964 0.63406 -0.28300
H 	H 	0.25916 0.07072 0.68838 0.08300
H 	H 	0.29841 0.09324 0.88381 0.15600
H 	H 	0.22981 0.91687 0.78041 0.15200
H 	H 	0.15744 0.08941 0.65697 0.15200
H 	H 	0.34540 0.92563 0.72374 0.16300
C 	C 	0.28128 0.04884 0.22522 -0.11400
C 	C 	0.29655 0.01286 0.25953 -0.00500
C 	C 	0.33641 0.98124 0.24767 0.13100
C 	C 	0.35822 0.98353 0.20052 -0.01400
C 	C 	0.34131 0.01812 0.16546 -0.13900
C 	C 	0.30437 0.05251 0.17902 0.19900
C 	C 	0.26661 0.00448 0.30477 -0.00200
O 	O 	0.35267 0.94673 0.28130 -0.27100
H 	H 	0.38738 0.95762 0.19086 0.06400
O 	O 	0.29007 0.08912 0.14679 -0.29000
H 	H 	0.25054 0.07322 0.23391 0.07300
C 	C 	0.25737 0.04382 0.33781 0.11500
C 	C 	0.21626 0.04188 0.36955 -0.02400
C 	C 	0.18496 0.00048 0.36904 -0.13700
C 	C 	0.19909 0.95816 0.34220 0.20400
C 	C 	0.23931 0.96050 0.30950 -0.09700
O 	O 	0.28802 0.08434 0.33860 -0.26900
H 	H 	0.20690 0.07382 0.39199 0.06000
O 	O 	0.17089 0.91600 0.34439 -0.29500
H 	H 	0.24706 0.92936 0.28538 0.08600
H 	H 	0.31206 0.11761 0.15403 0.15200
H 	H 	0.27202 0.10928 0.31684 0.14700
H 	H 	0.18540 0.89599 0.37160 0.15700
H 	H 	0.37887 0.96370 0.30058 0.15900
C 	C 	0.72319 0.04154 0.21308 -0.13200
C 	C 	0.75087 0.99969 0.22661 0.04600
C 	C 	0.74266 0.95430 0.20248 0.10700
C 	C 	0.70878 0.95165 0.16341 -0.02600
C 	C 	0.68359 0.99435 0.14757 -0.11100
C 	C 	0.69012 0.03924 0.17329 0.18900
C 	C 	0.79330 0.00519 0.26036 -0.03400
O 	O 	0.76827 0.91266 0.21659 -0.26700
H 	H 	0.70324 0.91673 0.14444 0.06500
O 	O 	0.66517 0.08117 0.15881 -0.28300
H 	H 	0.72917 0.07651 0.23182 0.08900
C 	C 	0.83847 0.02398 0.24243 0.12700
C 	C 	0.87969 0.02615 0.27356 -0.03500
C 	C 	0.87651 0.00898 0.32247 -0.12800
C 	C 	0.83119 0.99056 0.34065 0.20300
C 	C 	0.78964 0.98913 0.30965 -0.08300
O 	O 	0.84224 0.04048 0.19448 -0.27400
H 	H 	0.91444 0.04054 0.25944 0.05400
O 	O 	0.82752 0.97370 0.38848 -0.27700
H 	H 	0.75490 0.97458 0.32359 0.08000
H 	H 	0.68702 0.09749 0.13414 0.15700
H 	H 	0.85242 0.01108 0.17491 0.14000
H 	H 	0.83579 0.93790 0.38683 0.15400
H 	H 	0.79872 0.91251 0.19595 0.14700
C 	C 	0.96272 0.25937 0.80466 -0.11800
C 	C 	0.99152 0.27485 0.76424 0.01600
C 	C 	0.01544 0.32117 0.76598 0.12100
C 	C 	0.01451 0.34909 0.80981 -0.03500
C 	C 	0.99006 0.33083 0.85194 -0.11200
C 	C 	0.96165 0.28731 0.84827 0.19300
C 	C 	0.00221 0.23940 0.72379 -0.00500
O 	O 	0.03967 0.33914 0.72503 -0.26900
H 	H 	0.03523 0.38339 0.81185 0.06100
O 	O 	0.93544 0.27030 0.88840 -0.29400
H 	H 	0.94323 0.22432 0.80319 0.07400
C 	C 	0.04808 0.21448 0.72241 0.12000
C 	C 	0.05434 0.17315 0.69175 -0.03000
C 	C 	0.01449 0.15499 0.66385 -0.12500
C 	C 	0.96967 0.18177 0.66270 0.19500
C 	C 	0.96391 0.22418 0.69219 -0.10400
O 	O 	0.08627 0.22940 0.75234 -0.27600
H 	H 	0.08939 0.15349 0.69190 0.05800
O 	O 	0.93093 0.16567 0.63411 -0.28700
H 	H 	0.92869 0.24352 0.69259 0.07800
H 	H 	0.90207 0.28540 0.88525 0.15200
H 	H 	0.08202 0.21059 0.78365 0.14800
H 	H 	0.91152 0.14318 0.65579 0.15100
H 	H 	0.07468 0.32866 0.72898 0.16100
C 	C 	0.94254 0.69552 0.77849 -0.11900
C 	C 	0.99094 0.70650 0.76323 0.02000
C 	C 	0.03086 0.67925 0.78281 0.11300
C 	C 	0.02271 0.64576 0.82165 -0.03700
C 	C 	0.97495 0.63961 0.84128 -0.11900
C 	C 	0.93442 0.66257 0.81774 0.19800
C 	C 	0.00024 0.75195 0.73428 -0.00600
O 	O 	0.07823 0.68809 0.76665 -0.27200
H 	H 	0.05403 0.62743 0.83891 0.05400
O 	O 	0.88698 0.65341 0.83351 -0.27800
H 	H 	0.91145 0.71511 0.76227 0.07400
C 	C 	0.98824 0.75417 0.68364 0.12400
C 	C 	0.99234 0.79914 0.65793 -0.02500
C 	C 	0.00761 0.84216 0.68275 -0.12600
C 	C 	0.02116 0.83947 0.73297 0.19300
C 	C 	0.01716 0.79458 0.75856 -0.10800
O 	O 	0.97326 0.71234 0.65909 -0.26800
H 	H 	0.98255 0.80079 0.61905 0.06400
O 	O 	0.03734 0.88096 0.75736 -0.30000
H 	H 	0.02637 0.79307 0.79759 0.07700
H 	H 	0.87887 0.68089 0.85652 0.16200
H 	H 	0.93660 0.71219 0.66178 0.14900
H 	H 	0.07382 0.88121 0.75278 0.15400
H 	H 	0.08354 0.66464 0.73889 0.15400
C 	C 	0.97951 0.78578 0.30510 -0.11000
C 	C 	0.01479 0.77047 0.27010 0.00300
C 	C 	0.06133 0.79378 0.26835 0.12500
C 	C 	0.07117 0.83402 0.29938 -0.03200
C 	C 	0.03494 0.85112 0.33255 -0.12500
C 	C 	0.98928 0.82620 0.33608 0.20000
C 	C 	0.00078 0.73484 0.23122 0.00000
O 	O 	0.09605 0.77931 0.23412 -0.26800
H 	H 	0.10650 0.85282 0.29663 0.07500
O 	O 	0.95380 0.84196 0.36895 -0.28500
H 	H 	0.94376 0.76763 0.30691 0.07600
C 	C 	0.01960 0.68618 0.23184 0.12300
C 	C 	0.01314 0.65545 0.19056 -0.03500
C 	C 	0.98759 0.67296 0.14883 -0.11500
C 	C 	0.96576 0.72033 0.14976 0.19200
C 	C 	0.97261 0.75113 0.19077 -0.10300
O 	O 	0.04642 0.66951 0.27165 -0.27300
H 	H 	0.02948 0.61874 0.19034 0.06200
O 	O 	0.93943 0.73731 0.10973 -0.29500
H 	H 	0.95745 0.78834 0.19042 0.07700
H 	H 	0.93361 0.86655 0.35049 0.15400
H 	H 	0.02173 0.65438 0.29430 0.14900
H 	H 	0.90469 0.72711 0.11602 0.15600
H 	H 	0.11649 0.75394 0.25118 0.16000
C 	C 	0.99238 0.24153 0.34178 -0.10600
C 	C 	0.02505 0.24609 0.30151 0.00500
C 	C 	0.06520 0.21300 0.29734 0.12000
C 	C 	0.06826 0.17201 0.32900 -0.02900
C 	C 	0.03051 0.16286 0.36354 -0.13100
C 	C 	0.99485 0.19983 0.37271 0.20400
C 	C 	0.01116 0.27747 0.25876 -0.00300
O 	O 	0.09991 0.21916 0.26067 -0.27100
H 	H 	0.09728 0.14476 0.32336 0.05600
O 	O 	0.95922 0.19274 0.40828 -0.28700
H 	H 	0.96251 0.26800 0.34647 0.07600
C 	C 	0.97108 0.26368 0.22847 0.12300
C 	C 	0.96330 0.28774 0.18325 -0.03300
C 	C 	0.99533 0.32558 0.16765 -0.11700
C 	C 	0.03381 0.34128 0.19913 0.18800
C 	C 	0.04153 0.31723 0.24457 -0.10600
O 	O 	0.94152 0.22442 0.24145 -0.26900
H 	H 	0.93298 0.27613 0.15972 0.06200
O 	O 	0.06583 0.37782 0.18420 -0.28500
H 	H 	0.07231 0.32817 0.26781 0.08200
H 	H 	0.97300 0.20769 0.43882 0.16100
H 	H 	0.91345 0.23917 0.26007 0.15100
H 	H 	0.05156 0.40907 0.19729 0.15500
H 	H 	0.08715 0.20030 0.23188 0.15200
