data_crystal

_cell_length_a 24.15650
_cell_length_b 24.46543
_cell_length_c 39.33289
_cell_angle_alpha 95.49651
_cell_angle_beta  95.49171
_cell_angle_gamma 125.85283

_symmetry_space_group_name_	'P 1'
_symmetry_space_group_name_H-M	'P 1'

loop_
_symmetry_equiv_pos_as_xyz
  x,y,z

loop_
_atom_site_label
_atom_site_type_symbol
_atom_site_fract_x
_atom_site_fract_y
_atom_site_fract_z
_atom_site_charge
C 	C 	0.05719 0.01958 0.45609 0.09700
N 	N 	0.03395 0.05813 0.46090 -0.13500
C 	C 	0.03852 0.01181 0.97528 0.09700
C 	C 	0.11033 0.03816 0.43449 0.05400
H 	H 	0.13985 0.97655 0.45025 0.08700
N 	N 	0.01779 0.95656 0.99023 -0.13000
N 	N 	0.02979 0.96252 0.47038 -0.13200
H 	H 	0.14236 0.14031 0.42773 0.05500
C 	C 	0.10438 0.04769 0.96244 0.05500
N 	N 	0.14415 0.00954 0.43384 -0.16200
C 	C 	0.14545 0.09827 0.42105 -0.07300
N 	N 	0.13400 0.01643 0.95463 -0.16300
H 	H 	0.11133 0.96487 0.95547 0.08700
C 	C 	0.15486 0.11831 0.97200 -0.07100
H 	H 	0.14918 0.15176 0.98891 0.05400
C 	C 	0.20295 0.10578 0.41156 0.02100
C 	C 	0.20077 0.05065 0.42005 0.07300
H 	H 	0.03317 0.87376 0.50336 0.08800
C 	C 	0.20299 0.06578 0.96002 0.07600
C 	C 	0.21782 0.12982 0.97052 0.01600
C 	C 	0.26236 0.05702 0.42845 -0.08200
H 	H 	0.26254 0.01910 0.44051 0.05200
C 	C 	0.26658 0.16921 0.41186 -0.08700
H 	H 	0.26972 0.21518 0.41150 0.05300
H 	H 	0.23999 0.00384 0.96284 0.05200
C 	C 	0.25118 0.05345 0.97100 -0.08500
H 	H 	0.02042 0.16562 0.45716 0.05400
C 	C 	0.28048 0.18301 0.99273 -0.07500
H 	H 	0.29199 0.23276 0.00090 0.04800
C 	C 	0.32687 0.17242 0.41568 0.07600
C 	C 	0.32447 0.11678 0.42354 0.01100
C 	C 	0.31178 0.10532 0.99471 0.01600
C 	C 	0.32707 0.16946 0.00469 0.06700
C 	C 	0.37451 0.11497 0.99726 -0.04100
H 	H 	0.38258 0.08143 0.98230 0.04200
C 	C 	0.38982 0.14337 0.44163 -0.05000
N 	N 	0.39100 0.23133 0.42768 -0.15200
N 	N 	0.39627 0.21800 0.01325 -0.15100
N 	N 	0.99761 0.03279 0.97153 -0.13100
H 	H 	0.98180 0.82878 0.98414 0.09000
H 	H 	0.94340 0.09683 0.94682 0.08900
C 	C 	0.93589 0.99835 0.98263 0.09600
C 	C 	0.98378 0.03994 0.48015 0.09900
Cu	Cu	0.62347 0.22661 0.00550 0.92600
Cu	Cu	0.64102 0.20920 0.92438 0.86700
Cu	Cu	0.63586 0.32017 0.95606 0.89700
Cu	Cu	0.63784 0.36093 0.03013 0.89200
C 	C 	0.67637 0.29454 0.07734 0.28900
O 	O 	0.53003 0.19343 0.01730 -0.35700
C 	C 	0.59043 0.26334 0.88089 0.30200
O 	O 	0.67796 0.33096 0.00236 -0.64400
O 	O 	0.59070 0.22094 0.95625 -0.64000
O 	O 	0.65972 0.17221 0.99776 -0.36300
O 	O 	0.71754 0.23175 0.95699 -0.43600
O 	O 	0.64454 0.32309 0.07193 -0.38500
O 	O 	0.68735 0.41744 0.95736 -0.38100
C 	C 	0.69200 0.46195 0.98157 0.27300
C 	C 	0.49891 0.22046 0.00745 0.25300
O 	O 	0.53518 0.28194 0.99960 -0.38100
O 	O 	0.66895 0.44558 0.01093 -0.39100
O 	O 	0.66945 0.24912 0.05267 -0.36400
C 	C 	0.70763 0.19075 0.97872 0.26400
O 	O 	0.59905 0.30773 0.90686 -0.38000
O 	O 	0.58500 0.20823 0.88627 -0.42200
H 	H 	0.72944 0.36056 0.00695 0.16400
H 	H 	0.53967 0.19100 0.94813 0.17500
Cu	Cu	0.76129 0.36182 0.46872 0.92700
Cu	Cu	0.73429 0.29647 0.54000 0.87000
Cu	Cu	0.63194 0.30938 0.50114 0.89600
Cu	Cu	0.63779 0.36183 0.43409 0.89300
C 	C 	0.73023 0.34956 0.39474 0.30300
O 	O 	0.80353 0.46294 0.47227 -0.35400
C 	C 	0.65445 0.32167 0.57786 0.28800
O 	O 	0.65244 0.30451 0.45560 -0.63900
O 	O 	0.73508 0.36113 0.51509 -0.64000
O 	O 	0.81197 0.32078 0.47596 -0.36300
O 	O 	0.72898 0.23899 0.50195 -0.43500
O 	O 	0.70023 0.37982 0.40001 -0.38500
O 	O 	0.53263 0.25474 0.48408 -0.37400
C 	C 	0.50428 0.26196 0.45611 0.25900
C 	C 	0.76917 0.48715 0.48039 0.25700
O 	O 	0.70170 0.44482 0.47866 -0.38100
O 	O 	0.54059 0.31705 0.44199 -0.38500
O 	O 	0.76807 0.34828 0.42081 -0.35900
C 	C 	0.78281 0.26209 0.48679 0.26100
O 	O 	0.60981 0.29882 0.54830 -0.38900
O 	O 	0.71433 0.33147 0.57844 -0.42100
H 	H 	0.62660 0.25716 0.44227 0.16200
H 	H 	0.75819 0.40699 0.52964 0.17200
C 	C 	0.63271 0.32639 0.61119 -0.08900
C 	C 	0.68313 0.36979 0.64119 0.01300
C 	C 	0.66414 0.36543 0.67383 -0.06700
C 	C 	0.59445 0.31808 0.67683 0.02500
C 	C 	0.54331 0.27828 0.64667 -0.06600
C 	C 	0.56231 0.28234 0.61398 0.01200
C 	C 	0.57649 0.30464 0.71147 0.00200
C 	C 	0.54807 0.23938 0.71945 -0.04100
C 	C 	0.54216 0.22937 0.75370 -0.03300
C 	C 	0.56472 0.28445 0.78022 -0.00800
C 	C 	0.58935 0.34866 0.77202 -0.03300
C 	C 	0.59498 0.35871 0.73772 -0.04000
C 	C 	0.57118 0.27735 0.81603 0.04400
C 	C 	0.57875 0.27108 0.84579 -0.11000
H 	H 	0.73738 0.40526 0.63934 0.03000
H 	H 	0.70400 0.39682 0.69692 0.04500
H 	H 	0.48920 0.24237 0.64865 0.04600
H 	H 	0.52268 0.24913 0.59105 0.03700
H 	H 	0.53347 0.19723 0.69942 0.03800
H 	H 	0.52276 0.17949 0.75981 0.03700
H 	H 	0.60651 0.39142 0.79236 0.04000
H 	H 	0.61609 0.40905 0.73178 0.04000
C 	C 	0.70484 0.30037 0.11355 -0.08400
C 	C 	0.69747 0.24382 0.12463 0.01600
C 	C 	0.71363 0.24561 0.16004 -0.06500
C 	C 	0.73717 0.30382 0.18466 0.02600
C 	C 	0.74881 0.36187 0.17338 -0.06500
C 	C 	0.73301 0.36026 0.13801 0.01300
C 	C 	0.74205 0.30136 0.22215 0.00200
C 	C 	0.80390 0.35202 0.24571 -0.04000
C 	C 	0.80487 0.35685 0.28153 -0.03200
C 	C 	0.74423 0.31082 0.29400 -0.00600
C 	C 	0.68371 0.25765 0.27058 -0.03300
C 	C 	0.68254 0.25293 0.23479 -0.03900
C 	C 	0.74137 0.32347 0.33008 0.04400
C 	C 	0.73721 0.33489 0.35987 -0.10300
H 	H 	0.67651 0.19749 0.10606 0.04000
H 	H 	0.70548 0.20090 0.16843 0.04700
H 	H 	0.76743 0.40727 0.19213 0.04600
H 	H 	0.74047 0.40478 0.12974 0.02500
H 	H 	0.85040 0.38910 0.23626 0.04000
H 	H 	0.85201 0.39788 0.29949 0.04100
H 	H 	0.63672 0.22168 0.28003 0.03800
H 	H 	0.63457 0.21351 0.21687 0.04100
C 	C 	0.88447 0.67152 0.48658 0.00900
C 	C 	0.81903 0.65673 0.48332 0.07700
N 	N 	0.77041 0.58962 0.48313 -0.15300
C 	C 	0.80462 0.56174 0.48705 -0.00300
C 	C 	0.87545 0.61070 0.48859 -0.04100
H 	H 	0.91566 0.60652 0.49914 0.04600
H 	H 	0.72052 0.56807 0.48823 0.08500
C 	C 	0.90742 0.22935 0.49488 0.07500
C 	C 	0.95855 0.22528 0.48364 -0.08700
C 	C 	0.96705 0.17805 0.49589 0.02000
C 	C 	0.91920 0.12935 0.51365 0.07200
C 	C 	0.86220 0.12758 0.52046 -0.08100
C 	C 	0.86079 0.18182 0.51326 0.00400
N 	N 	0.87982 0.25620 0.47831 -0.15200
C 	C 	0.81619 0.22730 0.48656 -0.00700
C 	C 	0.80174 0.17879 0.50719 -0.04800
N 	N 	0.91752 0.07311 0.50893 -0.16300
C 	C 	0.96276 0.08489 0.48771 0.05500
C 	C 	0.99526 0.14978 0.47937 -0.07200
H 	H 	0.98756 0.25462 0.46471 0.05500
H 	H 	0.81904 0.08398 0.52908 0.05000
H 	H 	0.76064 0.15625 0.52222 0.03500
H 	H 	0.90788 0.30084 0.46788 0.09200
C 	C 	0.42866 0.21392 0.44413 0.00200
H 	H 	0.40157 0.11764 0.45856 0.04600
H 	H 	0.40293 0.28026 0.43210 0.08700
N 	N 	0.70718 0.57182 0.99008 -0.15000
C 	C 	0.72335 0.53176 0.97543 -0.00100
C 	C 	0.78684 0.57121 0.96473 -0.04100
H 	H 	0.82067 0.55611 0.96236 0.04200
H 	H 	0.67391 0.55814 0.00800 0.08500
C 	C 	0.73967 0.06736 0.97024 0.07200
C 	C 	0.74605 0.01862 0.98198 -0.07900
C 	C 	0.79213 0.00905 0.96849 0.01700
C 	C 	0.83781 0.05369 0.94850 0.07300
C 	C 	0.83697 0.10787 0.94042 -0.08200
C 	C 	0.78360 0.11028 0.94938 0.00600
N 	N 	0.71594 0.09703 0.98798 -0.14900
C 	C 	0.74294 0.15810 0.97801 -0.00800
C 	C 	0.78732 0.16895 0.95500 -0.04800
N 	N 	0.89577 0.05710 0.95233 -0.16300
C 	C 	0.88817 0.01632 0.97513 0.05700
C 	C 	0.82415 0.98465 0.98533 -0.06900
H 	H 	0.71999 0.99278 0.00247 0.04900
H 	H 	0.87876 0.14888 0.92982 0.05100
H 	H 	0.80728 0.20748 0.93872 0.03900
H 	H 	0.67311 0.07123 0.00028 0.08500
C 	C 	0.42516 0.18496 0.00888 -0.00400
H 	H 	0.42145 0.27005 0.01265 0.08400
C 	C 	0.95624 0.92194 0.00132 0.09100
N 	N 	0.91558 0.94328 0.99778 -0.13000
N 	N 	0.95614 0.98240 0.49418 -0.13200
C 	C 	0.97926 0.94372 0.48937 0.09700
C 	C 	0.93707 0.78870 0.51228 0.07200
C 	C 	0.94448 0.73702 0.50203 -0.08100
C 	C 	0.81123 0.70778 0.49425 -0.08800
C 	C 	0.87147 0.77401 0.50889 0.02100
N 	N 	0.98520 0.85486 0.51048 -0.16300
C 	C 	0.95107 0.88266 0.50552 0.05500
C 	C 	0.88026 0.83396 0.50445 -0.07300
H 	H 	0.99537 0.74816 0.50481 0.05200
H 	H 	0.76027 0.69647 0.49141 0.05300
H 	H 	0.84013 0.83547 0.49083 0.05300
H 	H 	0.87673 0.02452 0.51259 0.08800
C 	C 	0.89775 0.75292 0.00525 0.06500
C 	C 	0.88008 0.69511 0.98232 -0.07500
C 	C 	0.80994 0.63834 0.97329 0.00500
C 	C 	0.75977 0.63682 0.98868 0.08500
C 	C 	0.77733 0.69384 0.01217 -0.09600
C 	C 	0.84709 0.75204 0.02001 0.02500
N 	N 	0.94889 0.81724 0.00211 -0.16400
C 	C 	0.93067 0.85745 0.01368 0.05700
C 	C 	0.86790 0.81873 0.02531 -0.07600
H 	H 	0.91925 0.69556 0.97076 0.05000
H 	H 	0.73804 0.69313 0.02374 0.05500
H 	H 	0.83245 0.83214 0.02616 0.05500
H 	H 	0.81188 0.96324 0.00875 0.05000
