data_crystal

_cell_length_a 35.74924
_cell_length_b 32.09038
_cell_length_c 19.40197
_cell_angle_alpha 92.66416
_cell_angle_beta  85.31707
_cell_angle_gamma 124.18172

_symmetry_space_group_name_	'P 1'
_symmetry_space_group_name_H-M	'P 1'

loop_
_symmetry_equiv_pos_as_xyz
  x,y,z

loop_
_atom_site_label
_atom_site_type_symbol
_atom_site_fract_x
_atom_site_fract_y
_atom_site_fract_z
_atom_site_charge
C 	C 	0.92519 0.06188 0.06115 0.00000
C 	C 	0.94221 0.04044 0.01499 -0.03100
C 	C 	0.95775 0.01301 0.04013 -0.07000
C 	C 	0.95679 0.00721 0.11191 0.07600
C 	C 	0.93908 0.02794 0.15775 -0.07000
C 	C 	0.92370 0.05551 0.13261 -0.02700
N 	N 	0.97208 0.97842 0.13888 -0.14100
C 	C 	0.11457 0.04707 0.14611 -0.00300
C 	C 	0.08314 0.00070 0.17857 -0.02400
C 	C 	0.03671 0.97802 0.17440 -0.06700
C 	C 	0.02078 0.00172 0.13886 0.07700
C 	C 	0.05261 0.04916 0.10780 -0.07200
C 	C 	0.09907 0.07112 0.11067 -0.02700
C 	C 	0.89614 0.82390 0.08044 -0.00000
C 	C 	0.93669 0.85853 0.04253 -0.02700
C 	C 	0.96120 0.90961 0.06014 -0.07000
C 	C 	0.94578 0.92636 0.11694 0.07800
C 	C 	0.90457 0.89189 0.15330 -0.06700
C 	C 	0.87967 0.84100 0.13484 -0.02800
H 	H 	0.94356 0.04521 0.95973 0.03900
H 	H 	0.97142 0.99726 0.00416 0.04700
H 	H 	0.93673 0.02211 0.21284 0.05100
H 	H 	0.91014 0.07143 0.16858 0.03600
H 	H 	0.09468 0.98234 0.20748 0.03600
H 	H 	0.01291 0.94198 0.19917 0.05400
H 	H 	0.04180 0.06946 0.08219 0.05000
H 	H 	0.12305 0.10702 0.08556 0.03600
H 	H 	0.94951 0.84577 0.00009 0.03600
H 	H 	0.99235 0.93601 0.03036 0.04800
H 	H 	0.89203 0.90461 0.19616 0.04900
H 	H 	0.84783 0.81472 0.16331 0.03600
C 	C 	0.97889 0.11817 0.35077 0.00000
C 	C 	0.00243 0.11862 0.28906 -0.02900
C 	C 	0.02054 0.08964 0.28310 -0.06900
C 	C 	0.01463 0.05937 0.33824 0.07700
C 	C 	0.99203 0.05998 0.40082 -0.06900
C 	C 	0.97416 0.08917 0.40685 -0.02700
N 	N 	0.03205 0.02818 0.33021 -0.14000
C 	C 	0.15358 0.09213 0.43315 -0.00100
C 	C 	0.11156 0.06083 0.46982 -0.02700
C 	C 	0.07140 0.04042 0.43686 -0.07000
C 	C 	0.07303 0.05049 0.36632 0.07700
C 	C 	0.11500 0.08340 0.33082 -0.06800
C 	C 	0.15513 0.10379 0.36376 -0.02600
C 	C 	0.93522 0.86949 0.35666 -0.00100
C 	C 	0.98156 0.89033 0.35972 -0.02700
C 	C 	0.01322 0.94198 0.34997 -0.07100
C 	C 	0.99876 0.97408 0.34031 0.07600
C 	C 	0.95247 0.95193 0.33017 -0.06700
C 	C 	0.92090 0.90029 0.34037 -0.02700
H 	H 	0.00627 0.14100 0.24554 0.03700
H 	H 	0.03871 0.09019 0.23539 0.05300
H 	H 	0.98702 0.03661 0.44370 0.04800
H 	H 	0.95599 0.08864 0.45468 0.03800
H 	H 	0.11006 0.05202 0.52362 0.03700
H 	H 	0.03921 0.01580 0.46541 0.04800
H 	H 	0.11635 0.09330 0.27778 0.05200
H 	H 	0.18743 0.12836 0.33527 0.03900
H 	H 	0.99311 0.86638 0.36893 0.03600
H 	H 	0.04896 0.95689 0.34879 0.05000
H 	H 	0.94094 0.97440 0.31364 0.05000
H 	H 	0.88530 0.88416 0.33510 0.03600
Co	Co	0.69326 0.28324 0.98872 1.18300
O 	O 	0.74465 0.28895 0.92099 -0.37900
Co	Co	0.59933 0.27591 0.04958 1.18300
O 	O 	0.63386 0.26398 0.95068 -0.46500
O 	O 	0.65322 0.34103 0.07663 -0.42300
O 	O 	0.69007 0.21681 0.95492 -0.34900
C 	C 	0.68861 0.37112 0.03394 0.32600
O 	O 	0.59956 0.30131 0.94908 -0.35900
C 	C 	0.51584 0.21966 0.09577 0.28600
C 	C 	0.66143 0.25807 0.12138 0.31600
O 	O 	0.54550 0.26438 0.11742 -0.37200
O 	O 	0.53322 0.20661 0.04567 -0.35100
O 	O 	0.70196 0.27544 0.09413 -0.36200
O 	O 	0.63334 0.24506 0.07351 -0.46400
O 	O 	0.71236 0.35534 0.99887 -0.51600
C 	C 	0.72771 0.24128 0.91739 0.29300
C 	C 	0.62697 0.29203 0.91540 0.30700
H 	H 	0.74256 0.38110 0.97420 0.16700
Co	Co	0.71827 0.33757 0.49662 1.18100
O 	O 	0.77079 0.33635 0.44270 -0.38600
Co	Co	0.62390 0.33522 0.52614 1.18300
O 	O 	0.66025 0.31025 0.44741 -0.46500
O 	O 	0.67723 0.40343 0.54497 -0.42900
O 	O 	0.71574 0.26900 0.49028 -0.35500
C 	C 	0.71379 0.42808 0.50230 0.33100
O 	O 	0.62795 0.34466 0.41608 -0.36100
C 	C 	0.53909 0.28575 0.56706 0.29100
C 	C 	0.68122 0.32949 0.62544 0.31100
O 	O 	0.56917 0.33269 0.57889 -0.37600
O 	O 	0.55720 0.26617 0.53016 -0.35000
O 	O 	0.72266 0.34462 0.60651 -0.36200
O 	O 	0.65516 0.30890 0.57465 -0.46500
O 	O 	0.73830 0.40929 0.48339 -0.52200
C 	C 	0.75325 0.28924 0.45257 0.29700
C 	C 	0.65448 0.33007 0.39630 0.30000
H 	H 	0.77007 0.43244 0.46133 0.16600
C 	C 	0.66337 0.31684 0.69774 -0.10500
C 	C 	0.65580 0.27360 0.72944 0.09300
C 	C 	0.64367 0.26579 0.80047 -0.03900
C 	C 	0.63780 0.29970 0.84007 -0.10100
C 	C 	0.64401 0.34192 0.80797 0.08400
C 	C 	0.65691 0.35025 0.73701 -0.03900
H 	H 	0.63849 0.23300 0.82470 0.05400
H 	H 	0.66287 0.38345 0.71283 0.04000
N 	N 	0.65970 0.23691 0.68989 -0.14300
N 	N 	0.63931 0.37772 0.84831 -0.13700
C 	C 	0.61700 0.19923 0.65976 -0.09200
H 	H 	0.58966 0.17850 0.70124 0.05600
H 	H 	0.62110 0.17155 0.62979 0.05700
H 	H 	0.60689 0.21694 0.62433 0.06600
C 	C 	0.59690 0.37215 0.83583 -0.09100
H 	H 	0.59723 0.38220 0.78158 0.05000
H 	H 	0.59273 0.39777 0.87097 0.05500
H 	H 	0.56744 0.33294 0.84675 0.06600
H 	H 	0.68672 0.25331 0.65225 0.09600
H 	H 	0.66693 0.41448 0.83686 0.07500
C 	C 	0.65472 0.31205 0.32507 -0.09600
C 	C 	0.68475 0.34565 0.27208 0.07900
C 	C 	0.68454 0.32747 0.20525 -0.02000
C 	C 	0.65519 0.27616 0.18983 -0.11800
C 	C 	0.62614 0.24209 0.24336 0.08700
C 	C 	0.62531 0.26058 0.31008 -0.02900
H 	H 	0.70961 0.35303 0.16611 0.05300
H 	H 	0.60273 0.23452 0.35086 0.05700
N 	N 	0.71843 0.39765 0.28664 -0.14600
N 	N 	0.60047 0.18842 0.23243 -0.14400
C 	C 	0.76030 0.40387 0.30446 -0.08800
H 	H 	0.75450 0.38310 0.35260 0.03600
H 	H 	0.78668 0.44439 0.31217 0.04500
H 	H 	0.77343 0.39012 0.26175 0.05400
C 	C 	0.55670 0.16980 0.20534 -0.09300
H 	H 	0.53883 0.18458 0.23592 0.05700
H 	H 	0.53508 0.12808 0.20888 0.05500
H 	H 	0.56125 0.18035 0.15026 0.05500
H 	H 	0.70660 0.41245 0.32468 0.08000
H 	H 	0.61869 0.17732 0.20119 0.08600
C 	C 	0.83990 0.71148 0.39366 0.08300
C 	C 	0.84265 0.73242 0.33016 -0.06800
C 	C 	0.87331 0.78408 0.31839 -0.02600
C 	C 	0.90171 0.81528 0.37001 -0.00000
C 	C 	0.89872 0.79453 0.43395 -0.02700
C 	C 	0.86816 0.74286 0.44571 -0.06400
H 	H 	0.82149 0.70846 0.28950 0.05200
H 	H 	0.87546 0.79974 0.26890 0.03500
H 	H 	0.92038 0.81837 0.47426 0.03700
H 	H 	0.86703 0.72715 0.49464 0.05600
N 	N 	0.81155 0.65841 0.40233 -0.08600
N 	N 	0.79979 0.63904 0.46111 -0.09000
C 	C 	0.73405 0.48232 0.49032 -0.12100
C 	C 	0.73202 0.51239 0.54354 0.04200
C 	C 	0.75295 0.56403 0.53303 -0.09900
C 	C 	0.77579 0.58603 0.46930 0.10600
C 	C 	0.77732 0.55581 0.41579 -0.09400
C 	C 	0.75638 0.50433 0.42623 0.03300
H 	H 	0.71512 0.49604 0.59345 0.03000
H 	H 	0.75195 0.58709 0.57473 0.06100
H 	H 	0.79543 0.57232 0.36657 0.06400
H 	H 	0.75832 0.48188 0.38497 0.01500
C 	C 	0.91399 0.19668 0.37558 0.08500
C 	C 	0.95492 0.21565 0.40573 -0.06800
C 	C 	0.97673 0.19062 0.39640 -0.02400
C 	C 	0.95796 0.14675 0.35606 -0.00200
C 	C 	0.91785 0.12876 0.32371 -0.02600
C 	C 	0.89604 0.15377 0.33308 -0.06500
H 	H 	0.96929 0.24919 0.43760 0.05400
H 	H 	0.00786 0.20491 0.42121 0.03700
H 	H 	0.90316 0.09489 0.29250 0.03500
H 	H 	0.86504 0.13961 0.30800 0.05700
N 	N 	0.89105 0.22094 0.38817 -0.08600
N 	N 	0.84889 0.19577 0.39651 -0.08800
C 	C 	0.77853 0.26561 0.43914 -0.09900
C 	C 	0.76105 0.21742 0.46527 0.03300
C 	C 	0.78459 0.19463 0.45116 -0.09300
C 	C 	0.82584 0.21976 0.41129 0.10500
C 	C 	0.84308 0.26765 0.38421 -0.09000
C 	C 	0.81961 0.29052 0.39831 0.03200
H 	H 	0.72921 0.19756 0.49634 0.03600
H 	H 	0.77084 0.15744 0.47138 0.06200
H 	H 	0.87435 0.28689 0.35178 0.06400
H 	H 	0.83313 0.32734 0.37689 0.03400
C 	C 	0.39903 0.22802 0.55302 0.10400
C 	C 	0.42942 0.27809 0.57287 -0.09200
C 	C 	0.47479 0.29652 0.58054 0.03100
C 	C 	0.49033 0.26508 0.56720 -0.09500
C 	C 	0.45946 0.21436 0.54982 0.03000
C 	C 	0.41413 0.19599 0.54227 -0.08800
H 	H 	0.41805 0.30302 0.58099 0.06100
H 	H 	0.49804 0.33555 0.59493 0.03600
H 	H 	0.47080 0.18946 0.54050 0.03600
H 	H 	0.39107 0.15735 0.52616 0.06400
N 	N 	0.35474 0.21163 0.53707 -0.08800
N 	N 	0.32226 0.16704 0.54718 -0.08500
C 	C 	0.19593 0.11144 0.46670 0.00000
C 	C 	0.20731 0.07822 0.48468 -0.02500
C 	C 	0.24873 0.09681 0.51272 -0.06700
C 	C 	0.27923 0.14866 0.52263 0.08400
C 	C 	0.26716 0.18185 0.50682 -0.06300
C 	C 	0.22578 0.16326 0.47858 -0.02600
H 	H 	0.18438 0.03813 0.47586 0.03700
H 	H 	0.25757 0.07100 0.52547 0.05300
H 	H 	0.28986 0.22190 0.51593 0.05700
H 	H 	0.21703 0.18911 0.46552 0.03800
C 	C 	0.74996 0.53008 0.05585 0.10300
C 	C 	0.73185 0.49883 0.11403 -0.09700
C 	C 	0.71172 0.44707 0.10680 0.04100
C 	C 	0.70943 0.42590 0.04098 -0.12000
C 	C 	0.72665 0.45699 0.98229 0.03400
C 	C 	0.74674 0.50891 0.98960 -0.09100
H 	H 	0.73367 0.51480 0.16507 0.06200
H 	H 	0.69808 0.42347 0.15243 0.03400
H 	H 	0.72435 0.44098 0.93116 0.01800
H 	H 	0.75950 0.53250 0.94399 0.06300
N 	N 	0.77011 0.58254 0.06453 -0.08900
N 	N 	0.80093 0.61359 0.02292 -0.08700
C 	C 	0.87193 0.76950 0.06519 -0.00200
C 	C 	0.85518 0.75099 0.99985 -0.02300
C 	C 	0.83192 0.69933 0.98583 -0.06500
C 	C 	0.82464 0.66583 0.03724 0.08300
C 	C 	0.84197 0.68440 0.10223 -0.06400
C 	C 	0.86560 0.73600 0.11607 -0.02600
H 	H 	0.86001 0.77654 0.96014 0.03700
H 	H 	0.81911 0.68528 0.93535 0.05300
H 	H 	0.83735 0.65884 0.14175 0.05500
H 	H 	0.87927 0.75000 0.16608 0.03600
C 	C 	0.87373 0.14368 0.98989 0.08800
C 	C 	0.91177 0.16796 0.02920 -0.07100
C 	C 	0.92911 0.14154 0.05140 -0.02300
C 	C 	0.90834 0.09041 0.03470 -0.00400
C 	C 	0.87050 0.06611 0.99472 -0.02200
C 	C 	0.85309 0.09250 0.97266 -0.06500
H 	H 	0.92751 0.20716 0.04340 0.05400
H 	H 	0.95836 0.16063 0.08221 0.03600
H 	H 	0.85404 0.02656 0.98195 0.03700
H 	H 	0.82308 0.07293 0.94359 0.05700
N 	N 	0.85400 0.16968 0.97362 -0.08500
N 	N 	0.83049 0.15711 0.92285 -0.08900
C 	C 	0.75649 0.22177 0.90561 -0.09500
C 	C 	0.73643 0.17027 0.89215 0.03300
C 	C 	0.76169 0.14941 0.89476 -0.09100
C 	C 	0.80697 0.17965 0.91149 0.10500
C 	C 	0.82805 0.23181 0.91989 -0.08900
C 	C 	0.80293 0.25282 0.91684 0.03100
H 	H 	0.70086 0.14610 0.88215 0.03300
H 	H 	0.74555 0.10935 0.88665 0.06100
H 	H 	0.86348 0.25574 0.93064 0.06400
H 	H 	0.81909 0.29276 0.92621 0.03500
C 	C 	0.37226 0.14836 0.11974 0.10300
C 	C 	0.39028 0.12024 0.10002 -0.09200
C 	C 	0.43713 0.14321 0.09481 0.03000
C 	C 	0.46655 0.19484 0.10861 -0.09500
C 	C 	0.44854 0.22287 0.13048 0.03000
C 	C 	0.40157 0.19981 0.13556 -0.08800
H 	H 	0.36791 0.08066 0.08752 0.06000
H 	H 	0.45060 0.12104 0.07881 0.03300
H 	H 	0.47084 0.26272 0.14144 0.03700
H 	H 	0.38805 0.22213 0.14994 0.06400
N 	N 	0.32509 0.12577 0.11716 -0.08900
N 	N 	0.30447 0.13807 0.15894 -0.08500
C 	C 	0.16379 0.07056 0.14950 0.00000
C 	C 	0.19201 0.12042 0.17283 -0.02700
C 	C 	0.23842 0.14233 0.17665 -0.06800
C 	C 	0.25720 0.11507 0.15609 0.08400
C 	C 	0.22893 0.06495 0.13358 -0.06400
C 	C 	0.18255 0.04300 0.12981 -0.02600
H 	H 	0.17800 0.14212 0.18817 0.03400
H 	H 	0.25988 0.18070 0.19491 0.05200
H 	H 	0.24288 0.04308 0.11907 0.05600
H 	H 	0.16122 0.00462 0.11142 0.03700
