data_crystal

_cell_length_a 20.40197
_cell_length_b 21.15530
_cell_length_c 39.33116
_cell_angle_alpha 60.77012
_cell_angle_beta  119.01529
_cell_angle_gamma 133.29753

_symmetry_space_group_name_	'P 1'
_symmetry_space_group_name_H-M	'P 1'

loop_
_symmetry_equiv_pos_as_xyz
  x,y,z

loop_
_atom_site_label
_atom_site_type_symbol
_atom_site_fract_x
_atom_site_fract_y
_atom_site_fract_z
_atom_site_charge
C 	C 	0.24444 0.57424 0.16290 -0.09000
H 	H 	0.17014 0.53877 0.15110 0.05700
C 	C 	0.23299 0.54735 0.67679 -0.08400
H 	H 	0.15924 0.51601 0.66611 0.05700
Co	Co	0.02237 0.10956 0.06902 1.17900
Co	Co	0.07854 0.03110 0.04049 1.15900
Co	Co	0.07894 0.87496 0.04304 1.17300
C 	C 	0.25237 0.04648 0.06011 0.24500
O 	O 	0.03005 0.09511 0.17589 -0.37600
C 	C 	0.01401 0.01900 0.20120 0.14300
O 	O 	0.08966 0.14049 0.03257 -0.47200
C 	C 	0.11459 0.25197 0.10697 0.33600
C 	C 	0.09602 0.78687 0.12932 0.32500
O 	O 	0.05667 0.77059 0.09405 -0.41000
O 	O 	0.08925 0.83720 0.13624 -0.38000
O 	O 	0.02979 0.22383 0.09911 -0.41600
O 	O 	0.13068 0.20767 0.10110 -0.39900
O 	O 	0.03950 0.92282 0.05966 -0.73300
O 	O 	0.21308 0.95994 0.07125 -0.34100
O 	O 	0.21760 0.07922 0.06213 -0.39600
Co	Co	0.00267 0.07807 0.57947 1.16600
Co	Co	0.07640 0.02791 0.54379 1.15900
Co	Co	0.11221 0.89740 0.54588 1.17300
C 	C 	0.26730 0.07454 0.56164 0.24200
O 	O 	0.07114 0.12457 0.53934 -0.47000
C 	C 	0.08601 0.18649 0.63841 0.31900
C 	C 	0.12835 0.80143 0.63192 0.32300
O 	O 	0.10002 0.79278 0.59579 -0.41400
O 	O 	0.10658 0.83854 0.63967 -0.37400
O 	O 	0.02820 0.11794 0.66146 -0.41700
O 	O 	0.10287 0.17444 0.61390 -0.39200
O 	O 	0.05455 0.92537 0.56348 -0.73000
O 	O 	0.23824 0.99066 0.57471 -0.33800
O 	O 	0.22086 0.09799 0.56139 -0.37800
C 	C 	0.06501 0.00454 0.76647 -0.05300
C 	C 	0.07613 0.02008 0.80057 -0.10400
C 	C 	0.00647 0.95670 0.82257 0.06500
C 	C 	0.07389 0.05926 0.86317 -0.09900
C 	C 	0.08066 0.07048 0.89753 -0.05300
H 	H 	0.11546 0.05668 0.74830 0.04200
H 	H 	0.13955 0.08022 0.80989 0.05100
H 	H 	0.11722 0.11765 0.84295 0.05100
H 	H 	0.13486 0.13497 0.90488 0.05300
C 	C 	0.02185 0.94093 0.31310 0.04200
C 	C 	0.02550 0.94827 0.27605 -0.04900
C 	C 	0.04170 0.88634 0.34861 -0.04300
C 	C 	0.03599 0.87709 0.38502 -0.03000
C 	C 	0.01805 0.92809 0.38738 0.02100
C 	C 	0.02289 0.92548 0.42503 -0.05500
H 	H 	0.05204 0.91860 0.27556 0.06700
H 	H 	0.05971 0.84927 0.34796 0.05200
H 	H 	0.04920 0.83257 0.41185 0.04700
H 	H 	0.03351 0.87888 0.45156 0.05100
C 	C 	0.20785 0.42066 0.66819 -0.03000
C 	C 	0.14086 0.34505 0.61697 0.18500
C 	C 	0.14599 0.27482 0.64676 -0.12200
C 	C 	0.18434 0.27956 0.68699 -0.03800
C 	C 	0.21019 0.34904 0.69788 0.12500
H 	H 	0.18836 0.22581 0.71023 0.05500
O 	O 	0.24413 0.35020 0.73757 -0.27700
H 	H 	0.18936 0.31868 0.74730 0.14500
C 	C 	0.25962 0.67896 0.68240 -0.02300
C 	C 	0.27562 0.81826 0.65887 0.18600
C 	C 	0.18604 0.77054 0.66285 -0.11000
C 	C 	0.14152 0.67973 0.68376 -0.03700
C 	C 	0.17846 0.63392 0.69401 0.12800
H 	H 	0.07474 0.64282 0.68925 0.06100
O 	O 	0.13796 0.54740 0.71692 -0.27000
H 	H 	0.08294 0.50977 0.69814 0.14200
C 	C 	0.18927 0.33096 0.12369 -0.12800
C 	C 	0.20390 0.31860 0.16455 -0.04400
C 	C 	0.22454 0.38245 0.17784 0.12500
C 	C 	0.23914 0.46350 0.15086 -0.03200
C 	C 	0.21303 0.41536 0.09767 0.18800
H 	H 	0.19055 0.25566 0.18543 0.05800
O 	O 	0.23441 0.36716 0.21761 -0.28000
H 	H 	0.17182 0.33674 0.22001 0.14100
C 	C 	0.16216 0.76416 0.15697 -0.11400
C 	C 	0.25060 0.82153 0.14978 -0.04600
C 	C 	0.29106 0.78626 0.15176 0.13300
C 	C 	0.25254 0.69405 0.16910 -0.03000
C 	C 	0.17236 0.63908 0.18331 -0.09900
C 	C 	0.12680 0.67363 0.17699 0.18200
H 	H 	0.28254 0.89258 0.13760 0.07900
H 	H 	0.14375 0.56913 0.19819 0.06700
O 	O 	0.04357 0.61699 0.18718 -0.29000
H 	H 	0.05954 0.61946 0.21488 0.15500
O 	O 	0.29079 0.21819 0.49005 -0.28500
H 	H 	0.24171 0.17794 0.47164 0.14400
H 	H 	0.01213 0.34487 0.05553 0.15900
O 	O 	0.27006 0.16741 0.98344 -0.29800
C 	C 	0.29768 0.65583 0.17340 0.06400
C 	C 	0.28908 0.54060 0.16680 0.06800
C 	C 	0.29435 0.63017 0.68751 0.06300
C 	C 	0.26885 0.50780 0.67812 0.06400
C 	C 	0.05345 0.99816 0.96646 0.35300
O 	O 	0.10844 0.97408 0.99055 -0.37700
O 	O 	0.02866 0.02357 0.98029 -0.42800
C 	C 	0.06421 0.00587 0.46998 0.13700
O 	O 	0.13153 0.99831 0.49388 -0.32600
O 	O 	0.02785 0.01981 0.48365 -0.36500
C 	C 	0.00962 0.97358 0.85496 0.06300
C 	C 	0.02159 0.99786 0.92348 0.00400
C 	C 	0.02438 0.98893 0.42933 0.08900
C 	C 	0.17178 0.41757 0.62774 -0.10200
H 	H 	0.17084 0.47291 0.60452 0.06900
O 	O 	0.10098 0.34061 0.57762 -0.28900
H 	H 	0.15268 0.37051 0.56615 0.15300
C 	C 	0.23412 0.47970 0.11081 -0.10300
H 	H 	0.25044 0.54380 0.09023 0.07700
O 	O 	0.20702 0.43198 0.05829 -0.27800
H 	H 	0.26956 0.45854 0.05749 0.15500
H 	H 	0.28870 0.22140 0.98715 0.15400
C 	C 	0.01073 0.04899 0.39474 -0.09100
H 	H 	0.01420 0.09981 0.39747 0.05600
O 	O 	0.00507 0.96148 0.19059 -0.30000
C 	C 	0.00150 0.98653 0.35233 0.06700
C 	C 	0.98623 0.92485 0.75438 -0.00700
O 	O 	0.99033 0.92089 0.69371 -0.36900
C 	C 	0.30945 0.77224 0.66620 -0.10100
O 	O 	0.99639 0.33903 0.02861 -0.27600
O 	O 	0.88267 0.93080 0.68997 -0.38100
C 	C 	0.95224 0.92541 0.71115 0.28300
C 	C 	0.99557 0.99483 0.23993 0.07500
O 	O 	0.32733 0.90955 0.64461 -0.26700
H 	H 	0.32285 0.92031 0.61629 0.15300
O 	O 	0.36501 0.84100 0.13489 -0.27600
H 	H 	0.33745 0.83730 0.10651 0.15000
C 	C 	0.35411 0.19892 0.50904 0.17300
C 	C 	0.35366 0.14251 0.54796 -0.10300
C 	C 	0.33862 0.10723 0.04739 -0.11000
C 	C 	0.71343 0.31275 0.99289 0.06900
C 	C 	0.62602 0.24453 0.00230 -0.09300
C 	C 	0.57905 0.26627 0.00609 0.07600
C 	C 	0.62087 0.35474 0.00304 -0.10300
C 	C 	0.71148 0.42127 0.99877 0.08800
C 	C 	0.75625 0.40214 0.99113 -0.09700
H 	H 	0.59670 0.17483 0.00854 0.05200
H 	H 	0.58562 0.37057 0.00766 0.07100
H 	H 	0.82415 0.45575 0.98475 0.06300
C 	C 	0.69656 0.28822 0.49398 0.06100
C 	C 	0.60121 0.24428 0.48812 -0.08700
C 	C 	0.57260 0.28162 0.49414 0.06500
C 	C 	0.63488 0.37051 0.49626 -0.09000
C 	C 	0.72930 0.41536 0.50219 0.06700
C 	C 	0.76100 0.37362 0.50226 -0.08100
H 	H 	0.55044 0.17821 0.48236 0.04700
H 	H 	0.61144 0.40118 0.49848 0.06400
H 	H 	0.83477 0.40568 0.51015 0.07400
C 	C 	0.38505 0.58846 0.18048 -0.08400
C 	C 	0.43786 0.67500 0.18408 0.06600
C 	C 	0.39501 0.70404 0.18552 -0.08200
H 	H 	0.41934 0.56409 0.18210 0.06500
H 	H 	0.43744 0.76668 0.19351 0.07800
C 	C 	0.39077 0.67368 0.69696 -0.08500
C 	C 	0.42429 0.64045 0.69143 0.06700
C 	C 	0.36446 0.55340 0.68713 -0.08500
H 	H 	0.43938 0.73719 0.70505 0.07100
H 	H 	0.39171 0.52544 0.68565 0.06300
Co	Co	0.98566 0.85649 0.09737 1.18600
Co	Co	0.94380 0.94041 0.13157 1.19500
C 	C 	0.88051 0.73384 0.04018 0.31100
Co	Co	0.93214 0.09432 0.12369 1.15600
O 	O 	0.96407 0.04221 0.10548 -0.79200
O 	O 	0.93516 0.83180 0.13965 -0.45800
O 	O 	0.98061 0.97408 0.07608 -0.54900
C 	C 	0.77606 0.89711 0.13844 0.33300
O 	O 	0.83276 0.96922 0.15179 -0.37100
O 	O 	0.80495 0.87824 0.12345 -0.37700
C 	C 	0.87444 0.14555 0.03562 0.31100
O 	O 	0.84164 0.08991 0.06806 -0.41300
O 	O 	0.93556 0.15127 0.02779 -0.37100
O 	O 	0.94066 0.79931 0.01766 -0.40300
O 	O 	0.88134 0.74511 0.07132 -0.36100
Co	Co	0.99716 0.84827 0.59995 1.18600
Co	Co	0.92360 0.89870 0.63561 1.18500
C 	C 	0.91917 0.73763 0.54237 0.31200
Co	Co	0.89278 0.02867 0.63715 1.14400
O 	O 	0.93928 0.99844 0.61404 -0.72000
O 	O 	0.93206 0.80334 0.64113 -0.45800
O 	O 	0.97354 0.95255 0.58067 -0.55600
C 	C 	0.73345 0.84818 0.62581 0.31300
O 	O 	0.76419 0.93277 0.61061 -0.34200
O 	O 	0.78076 0.82060 0.63084 -0.37300
C 	C 	0.87288 0.12687 0.55078 0.33300
O 	O 	0.90105 0.13292 0.58750 -0.40700
O 	O 	0.90357 0.10258 0.54006 -0.40200
O 	O 	0.97801 0.80931 0.52009 -0.39800
O 	O 	0.90670 0.74238 0.57138 -0.36500
C 	C 	0.93254 0.87245 0.81294 0.00500
C 	C 	0.92361 0.85690 0.77931 -0.02100
C 	C 	0.86699 0.80485 0.83639 -0.03300
C 	C 	0.87340 0.81942 0.86922 -0.03600
C 	C 	0.94393 0.90280 0.87884 0.00900
C 	C 	0.95003 0.91563 0.91265 -0.03300
H 	H 	0.86368 0.79432 0.77072 0.04800
H 	H 	0.81074 0.74023 0.82925 0.05000
H 	H 	0.82246 0.76559 0.88710 0.04700
H 	H 	0.90288 0.85966 0.93205 0.05200
C 	C 	0.95773 0.02972 0.24108 -0.08400
C 	C 	0.95775 0.02612 0.27764 -0.07700
C 	C 	0.99531 0.98680 0.31423 0.02700
C 	C 	0.99913 0.04799 0.35651 -0.09600
H 	H 	0.92971 0.06155 0.21341 0.03100
H 	H 	0.92460 0.05028 0.27708 0.03700
H 	H 	0.99533 0.09923 0.33095 0.04500
C 	C 	0.50886 0.70303 0.67667 -0.02700
C 	C 	0.50251 0.74526 0.63565 -0.10100
C 	C 	0.57085 0.78294 0.61786 0.19300
C 	C 	0.65047 0.78543 0.64159 -0.11700
C 	C 	0.65759 0.74397 0.68275 -0.03900
C 	C 	0.58685 0.70236 0.70028 0.13000
H 	H 	0.44135 0.74375 0.61706 0.07200
O 	O 	0.56048 0.81873 0.57724 -0.27100
H 	H 	0.71925 0.74647 0.70140 0.06100
O 	O 	0.59468 0.66234 0.74056 -0.27400
H 	H 	0.56697 0.59978 0.74293 0.14800
H 	H 	0.52818 0.76887 0.56557 0.14900
H 	H 	0.37260 0.80899 0.65757 0.07100
C 	C 	0.52825 0.74066 0.17383 -0.02600
C 	C 	0.60345 0.73850 0.20126 -0.10100
C 	C 	0.68164 0.78154 0.18862 0.19300
C 	C 	0.68594 0.82897 0.14839 -0.12100
C 	C 	0.61038 0.83016 0.12089 -0.03500
C 	C 	0.53255 0.78783 0.13354 0.13400
H 	H 	0.59994 0.70084 0.23213 0.07300
O 	O 	0.75619 0.78171 0.21610 -0.28500
H 	H 	0.61381 0.86769 0.09000 0.06700
O 	O 	0.45827 0.78808 0.10602 -0.27700
H 	H 	0.47035 0.84256 0.10555 0.15800
H 	H 	0.74583 0.72884 0.21577 0.15000
C 	C 	0.72913 0.23892 0.49790 -0.02500
C 	C 	0.68511 0.14751 0.51777 -0.11300
C 	C 	0.72316 0.10419 0.52695 0.19100
C 	C 	0.81162 0.15402 0.52121 -0.13600
C 	C 	0.85066 0.24224 0.49740 -0.03000
C 	C 	0.80783 0.28379 0.48447 0.12100
H 	H 	0.62374 0.11079 0.52779 0.06100
O 	O 	0.67835 0.01479 0.54560 -0.35300
H 	H 	0.91692 0.28042 0.49107 0.05900
O 	O 	0.84425 0.36849 0.45976 -0.27800
H 	H 	0.81173 0.35974 0.43213 0.14500
H 	H 	0.63992 0.98388 0.52358 0.22000
C 	C 	0.79423 0.50231 0.51224 -0.02900
C 	C 	0.82707 0.50417 0.55269 -0.10200
C 	C 	0.86138 0.57836 0.56312 0.18500
C 	C 	0.86267 0.65143 0.53293 -0.11600
C 	C 	0.83090 0.64972 0.49253 -0.04200
C 	C 	0.79937 0.57696 0.48218 0.12900
H 	H 	0.82200 0.44629 0.57608 0.07200
O 	O 	0.89318 0.57906 0.60279 -0.28500
H 	H 	0.83389 0.70665 0.46900 0.06500
O 	O 	0.77181 0.57806 0.44250 -0.27700
H 	H 	0.70546 0.55387 0.43406 0.14700
H 	H 	0.95939 0.60383 0.60981 0.14800
C 	C 	0.49005 0.22320 0.50998 -0.03800
C 	C 	0.42129 0.23786 0.49000 -0.10300
C 	C 	0.42625 0.13331 0.56883 -0.05800
C 	C 	0.49230 0.17074 0.54971 0.12700
H 	H 	0.42197 0.28209 0.46022 0.06500
H 	H 	0.42858 0.09290 0.59938 0.05600
O 	O 	0.56260 0.16064 0.57070 -0.27900
H 	H 	0.53890 0.10510 0.56626 0.13000
C 	C 	0.84734 0.20697 0.00917 -0.12200
C 	C 	0.75655 0.17256 0.98552 -0.03100
C 	C 	0.71626 0.21541 0.97447 0.12000
C 	C 	0.76452 0.28873 0.99011 -0.01700
C 	C 	0.85965 0.33065 0.00817 -0.11200
C 	C 	0.90185 0.29207 0.01593 0.18400
H 	H 	0.71589 0.11072 0.97716 0.04600
O 	O 	0.63307 0.18943 0.94667 -0.27400
H 	H 	0.90025 0.39059 0.01799 0.06300
H 	H 	0.58517 0.13230 0.96102 0.13500
C 	C 	0.76261 0.50564 0.00878 -0.05000
C 	C 	0.79887 0.50748 0.04936 -0.09800
C 	C 	0.82395 0.57555 0.06118 0.18300
C 	C 	0.81655 0.64489 0.03216 -0.11900
C 	C 	0.77427 0.63940 0.99196 -0.03600
C 	C 	0.75044 0.57218 0.98006 0.13600
H 	H 	0.80386 0.45381 0.07198 0.06700
O 	O 	0.85537 0.57394 0.10114 -0.28100
H 	H 	0.76667 0.69159 0.96938 0.06200
O 	O 	0.71113 0.56918 0.94052 -0.27700
H 	H 	0.76373 0.60346 0.92864 0.14400
H 	H 	0.92172 0.59948 0.10797 0.16300
C 	C 	0.41140 0.09898 0.07175 -0.05500
C 	C 	0.48675 0.14308 0.05684 0.13000
C 	C 	0.48975 0.19618 0.01726 -0.04900
C 	C 	0.41417 0.19972 0.99226 -0.08500
C 	C 	0.34099 0.15906 0.00767 0.16300
H 	H 	0.40904 0.05758 0.10216 0.04700
O 	O 	0.56026 0.13915 0.08177 -0.28400
H 	H 	0.41580 0.24005 0.96164 0.06700
H 	H 	0.54563 0.08646 0.07876 0.13000
