data_crystal

_cell_length_a 18.51297
_cell_length_b 18.85116
_cell_length_c 23.42764
_cell_angle_alpha 95.47328
_cell_angle_beta  95.47511
_cell_angle_gamma 126.34500

_symmetry_space_group_name_	'P 1'
_symmetry_space_group_name_H-M	'P 1'

loop_
_symmetry_equiv_pos_as_xyz
  x,y,z

loop_
_atom_site_label
_atom_site_type_symbol
_atom_site_fract_x
_atom_site_fract_y
_atom_site_fract_z
_atom_site_charge
N 	N 	0.04434 0.08861 0.99683 -0.13000
C 	C 	0.08620 0.04880 0.99390 0.13600
C 	C 	0.04017 0.00706 0.45465 0.14300
Cu	Cu	0.62582 0.21769 0.01760 0.92600
Cu	Cu	0.71495 0.22618 0.90180 0.87100
Cu	Cu	0.68146 0.35576 0.93829 0.90000
Cu	Cu	0.62597 0.38357 0.04915 0.89800
C 	C 	0.64021 0.28622 0.13675 0.28300
O 	O 	0.49101 0.16481 0.00947 -0.36200
C 	C 	0.67381 0.29752 0.81377 0.28100
O 	O 	0.70081 0.35693 0.02081 -0.63900
O 	O 	0.62175 0.22520 0.93361 -0.63700
O 	O 	0.68520 0.15705 0.02101 -0.37000
O 	O 	0.59960 0.31945 0.11614 -0.37700
O 	O 	0.74732 0.48418 0.94790 -0.38000
C 	C 	0.74615 0.53463 0.99038 0.32100
C 	C 	0.45948 0.20454 0.98600 0.31400
O 	O 	0.51698 0.28654 0.97748 -0.39100
O 	O 	0.68306 0.49972 0.02307 -0.39000
O 	O 	0.64891 0.23358 0.10165 -0.35000
O 	O 	0.67682 0.35485 0.85329 -0.36700
O 	O 	0.66570 0.22715 0.82704 -0.41100
H 	H 	0.56038 0.18552 0.90834 0.18400
Cu	Cu	0.74210 0.33419 0.43177 0.92500
Cu	Cu	0.75846 0.27420 0.55678 0.87500
Cu	Cu	0.61369 0.29298 0.51887 0.89900
Cu	Cu	0.57138 0.33292 0.40425 0.89800
C 	C 	0.65965 0.30632 0.31264 0.28400
C 	C 	0.69220 0.32279 0.64395 0.28100
O 	O 	0.60284 0.26443 0.43578 -0.63600
O 	O 	0.74577 0.35246 0.51715 -0.63800
O 	O 	0.71555 0.18244 0.49191 -0.42500
O 	O 	0.62551 0.34638 0.33263 -0.37800
O 	O 	0.48332 0.22802 0.51464 -0.37500
C 	C 	0.42829 0.22481 0.47238 0.31400
O 	O 	0.67866 0.44921 0.46808 -0.39000
O 	O 	0.45997 0.28470 0.43815 -0.38500
O 	O 	0.71441 0.29918 0.34787 -0.35100
O 	O 	0.62319 0.30323 0.60497 -0.36800
H 	H 	0.56105 0.19946 0.41897 0.16600
C 	C 	0.68288 0.31825 0.70402 -0.04500
C 	C 	0.67740 0.31075 0.75435 -0.04200
C 	C 	0.65163 0.28766 0.19854 -0.03600
C 	C 	0.65728 0.29351 0.25080 -0.03600
O 	O 	0.66009 0.01467 0.47112 -0.29600
C 	C 	0.32968 0.16485 0.47050 -0.11800
C 	C 	0.27224 0.09848 0.42078 -0.04100
C 	C 	0.17745 0.04643 0.41550 0.13400
C 	C 	0.13948 0.06186 0.45976 -0.03700
C 	C 	0.19684 0.12806 0.50965 -0.09000
C 	C 	0.29180 0.17899 0.51543 0.18900
H 	H 	0.30119 0.08799 0.38582 0.04800
H 	H 	0.16782 0.13983 0.54399 0.07300
O 	O 	0.34741 0.24532 0.56365 -0.28200
H 	H 	0.35798 0.21581 0.59261 0.15800
O 	O 	0.69301 0.60979 0.91347 -0.28300
H 	H 	0.02154 0.20733 0.05886 0.08000
C 	C 	0.36374 0.16816 0.98469 -0.11700
C 	C 	0.34288 0.21282 0.02301 -0.04000
C 	C 	0.25188 0.17846 0.02292 0.13300
C 	C 	0.18089 0.09870 0.98423 -0.03100
C 	C 	0.20242 0.05741 0.94338 -0.10200
C 	C 	0.29330 0.09096 0.94421 0.19000
H 	H 	0.39719 0.27320 0.05380 0.04800
O 	O 	0.23234 0.21950 0.06331 -0.27300
O 	O 	0.31312 0.04919 0.90463 -0.29700
H 	H 	0.23133 0.26368 0.04415 0.14900
H 	H 	0.71295 0.59955 0.87782 0.15800
H 	H 	0.69768 0.02660 0.95760 0.04500
H 	H 	0.31145 0.00368 0.92383 0.15200
C 	C 	0.74128 0.05040 0.45259 0.18000
C 	C 	0.75853 0.50163 0.45331 0.29500
O 	O 	0.76520 0.33656 0.62821 -0.41100
C 	C 	0.95643 0.04068 0.00541 0.12900
N 	N 	0.99703 0.04481 0.44833 -0.13500
O 	O 	0.79267 0.25495 0.97270 -0.43000
C 	C 	0.76525 0.19462 0.00579 0.31100
H 	H 	0.76561 0.39674 0.04083 0.16800
O 	O 	0.79625 0.46627 0.43142 -0.34300
O 	O 	0.79928 0.27000 0.42912 -0.36600
C 	C 	0.76503 0.19697 0.45174 0.30000
H 	H 	0.78650 0.41591 0.53754 0.17700
C 	C 	0.82475 0.63039 0.39959 0.17800
C 	C 	0.79601 0.59571 0.45047 -0.11100
O 	O 	0.82840 0.58125 0.35444 -0.27800
H 	H 	0.76526 0.61919 0.53377 0.06100
H 	H 	0.76759 0.54606 0.32850 0.15200
C 	C 	0.79004 0.13610 0.43691 -0.11800
C 	C 	0.86742 0.16632 0.41203 -0.04700
C 	C 	0.90013 0.11556 0.40712 0.13900
C 	C 	0.85810 0.03563 0.42991 -0.04300
C 	C 	0.77672 0.00197 0.45051 -0.10000
H 	H 	0.90357 0.23001 0.39752 0.06800
O 	O 	0.97436 0.14524 0.38122 -0.27100
C 	C 	0.80164 0.63108 0.99224 -0.11500
H 	H 	0.90343 0.66202 0.06454 0.04900
C 	C 	0.90780 0.08081 0.00521 -0.03700
C 	C 	0.95104 0.16780 0.03654 -0.10100
C 	C 	0.90306 0.20374 0.03974 0.18900
C 	C 	0.81111 0.15255 0.01147 -0.13300
C 	C 	0.76772 0.06547 0.98068 -0.03900
C 	C 	0.81563 0.02978 0.97686 0.13200
O 	O 	0.94688 0.28975 0.06911 -0.29200
H 	H 	0.93683 0.28399 0.10977 0.15300
C 	C 	0.78980 0.64617 0.49518 -0.04800
C 	C 	0.88077 0.68900 0.03510 -0.04700
C 	C 	0.77154 0.66617 0.95476 0.18800
H 	H 	0.94867 0.11719 0.33931 0.15100
C 	C 	0.85058 0.71601 0.39504 -0.08800
C 	C 	0.81535 0.73164 0.49044 0.14100
O 	O 	0.12197 0.98329 0.36586 -0.26400
H 	H 	0.61237 0.98021 0.43521 0.15700
H 	H 	0.14824 0.99686 0.91268 0.08200
H 	H 	0.11128 0.92735 0.37388 0.15200
N 	N 	0.03984 0.96153 0.99865 -0.12900
H 	H 	0.05787 0.84879 0.06591 0.15200
H 	H 	0.74019 0.90317 0.96793 0.15500
H 	H 	0.74184 0.93928 0.46627 0.08300
O 	O 	0.00641 0.83804 0.08365 -0.26600
C 	C 	0.95262 0.91396 0.00709 0.13900
N 	N 	0.91155 0.95389 0.01139 -0.13300
C 	C 	0.90429 0.99286 0.43756 0.14700
N 	N 	0.85465 0.90235 0.43519 -0.13600
C 	C 	0.89859 0.86491 0.44255 0.14100
N 	N 	0.99097 0.91747 0.45190 -0.14200
C 	C 	0.84712 0.76756 0.44056 -0.04200
H 	H 	0.87622 0.74358 0.35681 0.07200
O 	O 	0.80998 0.78027 0.53494 -0.27500
H 	H 	0.86984 0.81492 0.56193 0.14900
C 	C 	0.93019 0.78184 0.04061 0.13600
C 	C 	0.89926 0.81701 0.00372 -0.04300
C 	C 	0.81983 0.75889 0.96099 -0.08700
H 	H 	0.79623 0.78571 0.93210 0.07700
O 	O 	0.77398 0.94722 0.94254 -0.27300
