data_crystal

_cell_length_a 18.35728
_cell_length_b 18.84797
_cell_length_c 17.87990
_cell_angle_alpha 95.41113
_cell_angle_beta  95.41274
_cell_angle_gamma 126.42549

_symmetry_space_group_name_	'P 1'
_symmetry_space_group_name_H-M	'P 1'

loop_
_symmetry_equiv_pos_as_xyz
  x,y,z

loop_
_atom_site_label
_atom_site_type_symbol
_atom_site_fract_x
_atom_site_fract_y
_atom_site_fract_z
_atom_site_charge
N 	N 	0.03592 0.96234 0.95360 -0.09600
C 	C 	0.08468 0.05262 0.96932 0.16700
N 	N 	0.04138 0.08955 0.98392 -0.10300
C 	C 	0.03945 0.01493 0.47241 0.18300
N 	N 	0.85414 0.90155 0.42182 -0.11900
Cu	Cu	0.64003 0.23669 0.03747 0.93300
Cu	Cu	0.65559 0.16479 0.86166 0.90300
Cu	Cu	0.71342 0.36136 0.92201 0.91600
Cu	Cu	0.64217 0.40559 0.05328 0.91500
C 	C 	0.65337 0.32240 0.18749 0.21400
O 	O 	0.50443 0.18180 0.03164 -0.33300
C 	C 	0.68277 0.28463 0.76197 0.20400
O 	O 	0.71479 0.37147 0.02909 -0.64100
O 	O 	0.62677 0.22988 0.92416 -0.62800
O 	O 	0.71062 0.18727 0.05285 -0.32700
O 	O 	0.64817 0.09614 0.93526 -0.39000
O 	O 	0.62466 0.36386 0.15358 -0.30800
O 	O 	0.78931 0.48895 0.92789 -0.34600
C 	C 	0.76944 0.53879 0.96286 0.33100
C 	C 	0.46882 0.21665 0.99786 0.32200
O 	O 	0.52255 0.29272 0.97442 -0.35500
O 	O 	0.69285 0.50233 0.99086 -0.35600
O 	O 	0.66898 0.27075 0.14784 -0.29500
C 	C 	0.71021 0.13467 0.99844 0.32900
O 	O 	0.74161 0.35146 0.81932 -0.32200
O 	O 	0.62587 0.20230 0.77449 -0.34900
H 	H 	0.77799 0.41088 0.05997 0.19300
H 	H 	0.56394 0.20674 0.90056 0.18800
Cu	Cu	0.73901 0.33380 0.41311 0.93000
Cu	Cu	0.77678 0.27912 0.57718 0.88800
Cu	Cu	0.61076 0.27426 0.53025 0.90900
Cu	Cu	0.57119 0.34120 0.39492 0.91400
C 	C 	0.65504 0.32453 0.26274 0.21500
O 	O 	0.80051 0.46831 0.42011 -0.32600
C 	C 	0.69162 0.29737 0.69028 0.20300
O 	O 	0.60051 0.26611 0.42187 -0.63700
O 	O 	0.74575 0.34535 0.52603 -0.63300
O 	O 	0.79511 0.26900 0.39779 -0.32500
O 	O 	0.73494 0.18822 0.49199 -0.41000
O 	O 	0.61854 0.35911 0.29682 -0.31200
O 	O 	0.47958 0.20686 0.52458 -0.34900
C 	C 	0.42932 0.22346 0.48369 0.33400
C 	C 	0.76558 0.50537 0.45154 0.31600
O 	O 	0.68761 0.45471 0.47556 -0.35700
O 	O 	0.46773 0.29557 0.45216 -0.35500
O 	O 	0.70474 0.30587 0.30257 -0.29600
C 	C 	0.77660 0.20301 0.43321 0.31000
O 	O 	0.61654 0.25328 0.63673 -0.32700
O 	O 	0.77244 0.33334 0.67082 -0.35200
H 	H 	0.55743 0.20367 0.39293 0.19300
H 	H 	0.78108 0.40815 0.55334 0.19400
C 	C 	0.81569 0.63169 0.37969 0.11300
C 	C 	0.80615 0.60088 0.45001 -0.10400
C 	C 	0.82082 0.65700 0.51709 0.11400
C 	C 	0.84002 0.74083 0.51333 0.08400
C 	C 	0.85044 0.77174 0.44356 -0.04100
C 	C 	0.83483 0.71565 0.37635 0.08300
Br	Br	0.84032 0.75438 0.27956 -0.12400
Br	Br	0.80749 0.56200 0.28867 -0.17000
Br	Br	0.85310 0.81438 0.60400 -0.11300
Br	Br	0.82093 0.62170 0.61491 -0.15300
C 	C 	0.87521 0.16677 0.37762 0.09700
C 	C 	0.79189 0.13751 0.40173 -0.08200
C 	C 	0.73169 0.04768 0.41168 0.05800
C 	C 	0.76535 0.99811 0.42183 0.14900
C 	C 	0.85257 0.03045 0.40425 -0.10700
Br	Br	0.69572 0.89241 0.46683 -0.13600
Br	Br	0.60240 0.99115 0.40636 -0.11800
C 	C 	0.26854 0.10643 0.41588 0.12000
C 	C 	0.33001 0.16830 0.48252 -0.11000
C 	C 	0.29619 0.18235 0.54530 0.12100
C 	C 	0.20061 0.13428 0.54114 0.08300
C 	C 	0.13923 0.07127 0.47484 -0.03800
C 	C 	0.17338 0.05957 0.41133 0.06500
Br	Br	0.08981 0.98269 0.31689 -0.06400
Br	Br	0.31510 0.08490 0.33123 -0.17900
Br	Br	0.15376 0.15659 0.62491 -0.12100
Br	Br	0.38086 0.26780 0.63650 -0.13700
C 	C 	0.88596 0.69935 0.02009 0.11700
C 	C 	0.82206 0.63313 0.95643 -0.10800
C 	C 	0.79789 0.65724 0.89172 0.12200
C 	C 	0.83574 0.74752 0.89181 0.08200
Br	Br	0.80158 0.78095 0.80416 -0.11300
Br	Br	0.71149 0.56605 0.80379 -0.14400
C 	C 	0.84601 0.15793 0.95351 0.11700
C 	C 	0.78469 0.12543 0.00523 -0.12400
C 	C 	0.78923 0.07659 0.05793 0.12800
C 	C 	0.84830 0.05247 0.05340 0.06000
Br	Br	0.85909 0.24592 0.89699 -0.28900
Br	Br	0.85786 0.98899 0.12756 -0.09000
Br	Br	0.71413 0.04207 0.13567 -0.15400
C 	C 	0.22320 0.11470 0.91073 0.08000
C 	C 	0.18511 0.10936 0.97656 -0.03600
C 	C 	0.24075 0.14087 0.04948 0.07900
C 	C 	0.33248 0.17153 0.05667 0.11600
C 	C 	0.36984 0.17390 0.99065 -0.11000
C 	C 	0.31504 0.14572 0.91762 0.11700
Br	Br	0.36455 0.14574 0.82705 -0.17100
Br	Br	0.14815 0.07707 0.81102 -0.12100
Br	Br	0.40641 0.20961 0.15696 -0.17500
Br	Br	0.19018 0.13961 0.13971 -0.12200
N 	N 	0.90043 0.94492 0.96620 -0.10200
C 	C 	0.90043 0.99216 0.42974 0.23100
C 	C 	0.90005 0.86872 0.44472 0.18900
C 	C 	0.90091 0.10943 0.37260 0.10600
C 	C 	0.89805 0.81346 0.95636 -0.03600
C 	C 	0.92215 0.78913 0.02091 0.07200
Br	Br	0.92327 0.66638 0.10641 -0.16400
C 	C 	0.90047 0.07479 0.99459 -0.03000
C 	C 	0.90031 0.12891 0.94533 0.07600
C 	C 	0.94867 0.03551 0.98083 0.15100
C 	C 	0.94452 0.90845 0.95420 0.17800
Br	Br	0.95534 0.28469 0.35310 -0.14900
Br	Br	0.96790 0.15684 0.86251 -0.14900
Br	Br	0.00184 0.87850 0.11154 -0.07900
N 	N 	0.99279 0.04835 0.45680 -0.14400
N 	N 	0.99252 0.92558 0.46933 -0.12000
Br	Br	0.99786 0.13594 0.31826 -0.13800
