data_crystal

_cell_length_a 26.21167
_cell_length_b 26.46754
_cell_length_c 26.55592
_cell_angle_alpha 95.49398
_cell_angle_beta  95.49408
_cell_angle_gamma 125.88736

_symmetry_space_group_name_	'P 1'
_symmetry_space_group_name_H-M	'P 1'

loop_
_symmetry_equiv_pos_as_xyz
  x,y,z

loop_
_atom_site_label
_atom_site_type_symbol
_atom_site_fract_x
_atom_site_fract_y
_atom_site_fract_z
_atom_site_charge
C 	C 	0.97787 0.04543 0.99884 0.10200
C 	C 	0.93884 0.97898 0.99095 -0.10000
C 	C 	0.96631 0.94689 0.98911 0.10200
C 	C 	0.03293 0.98118 0.99530 -0.10400
C 	C 	0.07242 0.04773 0.00457 0.10200
C 	C 	0.04482 0.07995 0.00604 -0.09600
H 	H 	0.88718 0.95232 0.98603 0.08800
H 	H 	0.05408 0.95618 0.99354 0.08800
H 	H 	0.07515 0.13140 0.01253 0.09000
C 	C 	0.93136 0.98990 0.43064 0.05200
C 	C 	0.99625 0.02516 0.42656 -0.03300
C 	C 	0.02837 0.99772 0.43000 0.04000
C 	C 	0.99469 0.93369 0.43382 -0.04900
C 	C 	0.92913 0.89722 0.43535 0.06800
C 	C 	0.89755 0.92554 0.43447 -0.06600
H 	H 	0.02229 0.07456 0.42285 0.07300
H 	H 	0.01959 0.91242 0.43616 0.07400
H 	H 	0.84722 0.89787 0.43708 0.07900
Cu	Cu	0.66123 0.27226 0.01216 0.93700
Cu	Cu	0.67350 0.23332 0.89561 0.91000
Cu	Cu	0.66574 0.35014 0.93279 0.92000
Cu	Cu	0.65409 0.38685 0.04016 0.90900
C 	C 	0.67994 0.32475 0.11808 0.30500
O 	O 	0.56943 0.22721 0.02331 -0.28300
C 	C 	0.66330 0.30836 0.83042 0.30900
O 	O 	0.69994 0.36612 0.00441 -0.63600
O 	O 	0.63343 0.26109 0.93709 -0.62400
O 	O 	0.71751 0.24403 0.01177 -0.33800
O 	O 	0.66595 0.17452 0.93533 -0.36800
O 	O 	0.67453 0.36981 0.10838 -0.34500
O 	O 	0.70351 0.43785 0.93044 -0.34300
C 	C 	0.70778 0.47719 0.96809 0.31000
C 	C 	0.53642 0.24829 0.01003 0.31000
O 	O 	0.56480 0.30311 0.99513 -0.37200
O 	O 	0.67063 0.45568 0.00281 -0.36300
O 	O 	0.69625 0.29907 0.08437 -0.31000
C 	C 	0.70462 0.19511 0.97981 0.31300
O 	O 	0.64000 0.33070 0.85882 -0.32200
O 	O 	0.70186 0.29715 0.85267 -0.38000
H 	H 	0.74715 0.39777 0.01361 0.18900
H 	H 	0.58625 0.23131 0.92621 0.20700
Cu	Cu	0.73240 0.32938 0.43972 0.94000
Cu	Cu	0.71835 0.26492 0.54143 0.88900
Cu	Cu	0.62817 0.29013 0.50414 0.90900
Cu	Cu	0.61789 0.33535 0.40723 0.90600
C 	C 	0.69180 0.32433 0.33350 0.29100
O 	O 	0.77404 0.42405 0.44672 -0.29300
C 	C 	0.66829 0.30101 0.61545 0.30400
O 	O 	0.63258 0.28008 0.43241 -0.63700
O 	O 	0.72203 0.33112 0.51265 -0.63400
O 	O 	0.77285 0.28451 0.43928 -0.32100
O 	O 	0.69751 0.21039 0.47891 -0.41600
O 	O 	0.66634 0.35231 0.34950 -0.33500
O 	O 	0.53621 0.24534 0.49111 -0.34600
C 	C 	0.50390 0.25117 0.45378 0.31500
C 	C 	0.74602 0.44784 0.46543 0.31100
O 	O 	0.68675 0.40895 0.47200 -0.36900
O 	O 	0.53326 0.29797 0.42790 -0.36800
O 	O 	0.72495 0.31446 0.36635 -0.29300
C 	C 	0.74148 0.22742 0.45064 0.30600
O 	O 	0.62230 0.28598 0.57751 -0.34200
O 	O 	0.71644 0.30028 0.60652 -0.35200
H 	H 	0.60412 0.23564 0.41339 0.19000
H 	H 	0.74943 0.37345 0.53544 0.22500
C 	C 	0.70618 0.36399 0.75807 0.06000
C 	C 	0.65820 0.30959 0.77496 0.00200
C 	C 	0.60765 0.25557 0.73864 -0.09400
C 	C 	0.60961 0.25500 0.68582 0.05500
C 	C 	0.65991 0.30803 0.66911 0.00700
C 	C 	0.70610 0.36460 0.70516 -0.09000
C 	C 	0.75721 0.42465 0.68761 0.78100
H 	H 	0.74430 0.40540 0.78624 0.08700
H 	H 	0.57373 0.21235 0.65776 0.08500
C 	C 	0.55356 0.19744 0.75630 0.77900
F 	F 	0.78406 0.47775 0.72551 -0.42300
F 	F 	0.73112 0.43291 0.64421 -0.43900
F 	F 	0.80520 0.42052 0.67633 -0.43200
F 	F 	0.52649 0.21477 0.78948 -0.43500
F 	F 	0.57736 0.17001 0.78163 -0.46700
F 	F 	0.50559 0.15247 0.71532 -0.42500
C 	C 	0.64257 0.26596 0.24371 0.05300
C 	C 	0.69596 0.31799 0.27866 0.01300
C 	C 	0.74835 0.36812 0.26017 -0.08600
C 	C 	0.74326 0.36798 0.20691 0.05700
C 	C 	0.68777 0.31814 0.17222 0.01100
C 	C 	0.63814 0.26506 0.19034 -0.09200
C 	C 	0.57884 0.20941 0.15320 0.78100
H 	H 	0.60315 0.22756 0.25838 0.07900
H 	H 	0.78154 0.40763 0.19238 0.08900
C 	C 	0.80858 0.42282 0.29727 0.78100
F 	F 	0.53900 0.15994 0.17767 -0.42700
F 	F 	0.59644 0.18651 0.11493 -0.43000
F 	F 	0.54470 0.22896 0.13119 -0.45100
F 	F 	0.83285 0.39960 0.32823 -0.41600
F 	F 	0.79435 0.45667 0.32789 -0.43300
F 	F 	0.85597 0.46415 0.27158 -0.42400
C 	C 	0.89418 0.82965 0.43906 -0.01500
C 	C 	0.88213 0.78502 0.39699 0.11300
C 	C 	0.85937 0.72374 0.40356 -0.05800
C 	C 	0.84654 0.70574 0.45144 0.01600
C 	C 	0.85609 0.74952 0.49298 0.10300
C 	C 	0.88013 0.81127 0.48668 -0.04800
H 	H 	0.85089 0.68980 0.37125 0.10000
C 	C 	0.82038 0.64008 0.45701 0.03600
H 	H 	0.88921 0.84540 0.51913 0.08800
C 	C 	0.86128 0.62708 0.47945 -0.06900
C 	C 	0.83746 0.56468 0.48351 0.16100
C 	C 	0.77241 0.51444 0.46358 -0.07100
C 	C 	0.73169 0.52779 0.44130 0.00300
C 	C 	0.75515 0.59015 0.43846 0.09000
H 	H 	0.91144 0.66554 0.49420 0.10200
H 	H 	0.68165 0.48948 0.42586 0.06300
Br	Br	0.83625 0.72572 0.55841 -0.15600
Br	Br	0.89550 0.80669 0.33009 -0.18200
Br	Br	0.89351 0.54985 0.51911 -0.13500
Br	Br	0.69709 0.60635 0.40970 -0.16800
C 	C 	0.89940 0.02101 0.43215 -0.00700
C 	C 	0.92089 0.07188 0.47233 0.10900
C 	C 	0.89508 0.10541 0.47020 -0.05600
C 	C 	0.84467 0.08605 0.43025 0.01300
C 	C 	0.82149 0.03373 0.39103 0.10200
C 	C 	0.84958 0.00214 0.39175 -0.04400
H 	H 	0.91244 0.14506 0.50081 0.09100
C 	C 	0.81339 0.11783 0.43208 0.03200
H 	H 	0.83263 0.96287 0.36090 0.07900
C 	C 	0.82411 0.15942 0.39828 -0.07500
C 	C 	0.79785 0.19276 0.40170 0.14900
C 	C 	0.76458 0.18825 0.44205 -0.09000
C 	C 	0.75302 0.14550 0.47509 -0.01000
C 	C 	0.77580 0.10941 0.46945 0.08400
H 	H 	0.85176 0.16487 0.36863 0.10000
H 	H 	0.72631 0.14031 0.50541 0.06200
Br	Br	0.75033 0.00351 0.33717 -0.16200
Br	Br	0.98210 0.09342 0.53218 -0.16400
Br	Br	0.80191 0.23771 0.34764 -0.12700
Br	Br	0.75380 0.04767 0.51253 -0.17200
C 	C 	0.09815 0.03700 0.43277 -0.00100
C 	C 	0.14007 0.06186 0.48067 0.10800
C 	C 	0.20609 0.09670 0.48255 -0.05600
C 	C 	0.23088 0.10769 0.43704 0.01200
C 	C 	0.18905 0.08349 0.38915 0.10700
C 	C 	0.12292 0.04822 0.38724 -0.05600
H 	H 	0.23826 0.11555 0.51945 0.09500
C 	C 	0.30063 0.14460 0.43991 0.03400
H 	H 	0.09073 0.02921 0.35034 0.08800
C 	C 	0.32839 0.11285 0.43529 -0.07700
C 	C 	0.39476 0.14719 0.43933 0.15300
C 	C 	0.43402 0.21407 0.44894 -0.08700
C 	C 	0.40609 0.24575 0.45331 -0.00200
C 	C 	0.33971 0.21136 0.44875 0.08700
H 	H 	0.29829 0.06141 0.42822 0.09800
H 	H 	0.43608 0.29719 0.46054 0.08100
Br	Br	0.22149 0.09853 0.32612 -0.16700
Br	Br	0.10796 0.04910 0.54390 -0.16500
Br	Br	0.43044 0.10186 0.42908 -0.19300
Br	Br	0.30315 0.25633 0.45435 -0.16500
C 	C 	0.74352 0.54457 0.96470 -0.08600
C 	C 	0.80999 0.58204 0.96532 0.15300
C 	C 	0.84404 0.64706 0.96560 -0.07600
C 	C 	0.81257 0.67533 0.96604 0.03200
C 	C 	0.74587 0.63763 0.96385 0.08800
C 	C 	0.71168 0.57252 0.96324 -0.00200
H 	H 	0.89538 0.67604 0.96708 0.09800
C 	C 	0.85037 0.74482 0.97208 0.01400
H 	H 	0.66042 0.54374 0.96216 0.08100
C 	C 	0.86114 0.77281 0.92826 -0.06100
C 	C 	0.89842 0.83886 0.93341 0.11700
C 	C 	0.92546 0.87735 0.98282 -0.03100
C 	C 	0.91439 0.84934 0.02661 -0.04300
C 	C 	0.87703 0.78335 0.02148 0.10300
H 	H 	0.84065 0.74321 0.89020 0.09700
H 	H 	0.93513 0.87895 0.06467 0.08400
Br	Br	0.70099 0.67455 0.96283 -0.16700
Br	Br	0.85582 0.54613 0.96899 -0.19900
Br	Br	0.91227 0.87575 0.87266 -0.17100
Br	Br	0.86289 0.74659 0.08233 -0.17000
C 	C 	0.94817 0.07851 0.99906 -0.02900
C 	C 	0.92737 0.08814 0.95254 0.11700
C 	C 	0.88929 0.10919 0.95188 -0.06200
C 	C 	0.87179 0.12090 0.99736 0.01500
C 	C 	0.89438 0.11335 0.04420 0.10300
C 	C 	0.93261 0.09244 0.04486 -0.04200
H 	H 	0.87265 0.11575 0.91589 0.09000
C 	C 	0.82914 0.14026 0.99547 0.02800
H 	H 	0.94853 0.08507 0.08074 0.08400
C 	C 	0.76247 0.09376 0.98689 -0.07600
C 	C 	0.72123 0.11117 0.98316 0.15100
C 	C 	0.74681 0.17571 0.98754 -0.08700
C 	C 	0.81358 0.22220 0.99712 -0.01400
C 	C 	0.85470 0.20478 0.00095 0.09300
H 	H 	0.74269 0.04406 0.98318 0.09600
H 	H 	0.83355 0.27193 0.00056 0.07300
Br	Br	0.87258 0.13030 0.10740 -0.15900
Br	Br	0.94917 0.07116 0.88933 -0.17100
Br	Br	0.63048 0.04642 0.97430 -0.14300
Br	Br	0.94569 0.26975 0.01328 -0.16400
C 	C 	0.14266 0.08337 0.01160 -0.02600
C 	C 	0.17709 0.08260 0.05531 0.11700
C 	C 	0.24141 0.10720 0.05739 -0.06000
C 	C 	0.27250 0.13457 0.01697 0.01900
C 	C 	0.23896 0.13808 0.97439 0.10000
C 	C 	0.17422 0.11220 0.97178 -0.04400
H 	H 	0.26744 0.10562 0.09069 0.10000
C 	C 	0.34060 0.16088 0.02004 0.03500
H 	H 	0.14806 0.11328 0.93825 0.08700
C 	C 	0.35682 0.12576 0.99253 -0.07000
C 	C 	0.42113 0.15263 0.99087 0.15500
C 	C 	0.46984 0.21479 0.01782 -0.06000
C 	C 	0.45361 0.24827 0.04775 0.00800
C 	C 	0.38942 0.22192 0.04863 0.09200
H 	H 	0.31933 0.07839 0.97104 0.10000
H 	H 	0.49098 0.29580 0.06906 0.07500
Br	Br	0.28087 0.17831 0.91963 -0.16200
Br	Br	0.13745 0.04955 0.11300 -0.18300
Br	Br	0.44098 0.10511 0.94922 -0.14400
Br	Br	0.36924 0.27121 0.08721 -0.16500
