data_crystal

_cell_length_a 26.28165
_cell_length_b 26.45675
_cell_length_c 26.42981
_cell_angle_alpha 95.52162
_cell_angle_beta  95.51960
_cell_angle_gamma 125.85687

_symmetry_space_group_name_	'P 1'
_symmetry_space_group_name_H-M	'P 1'

loop_
_symmetry_equiv_pos_as_xyz
  x,y,z

loop_
_atom_site_label
_atom_site_type_symbol
_atom_site_fract_x
_atom_site_fract_y
_atom_site_fract_z
_atom_site_charge
C 	C 	0.95120 0.01679 0.97906 0.07300
C 	C 	0.01741 0.05004 0.98273 -0.07400
C 	C 	0.04371 0.01674 0.98028 0.07400
C 	C 	0.00366 0.95033 0.97333 -0.07000
C 	C 	0.93780 0.91735 0.97050 0.07800
C 	C 	0.91149 0.95046 0.97266 -0.06900
H 	H 	0.04826 0.10143 0.98798 0.08500
H 	H 	0.02393 0.92453 0.97139 0.08700
H 	H 	0.86038 0.92479 0.97032 0.08600
C 	C 	0.95725 0.01893 0.45692 0.07600
C 	C 	0.02416 0.05679 0.46394 -0.07800
C 	C 	0.05613 0.02955 0.47087 0.07800
C 	C 	0.02134 0.96467 0.47221 -0.07600
C 	C 	0.95443 0.92644 0.46509 0.08100
C 	C 	0.92228 0.95348 0.45677 -0.06900
H 	H 	0.05118 0.10711 0.46330 0.08000
H 	H 	0.04618 0.94371 0.47778 0.08700
H 	H 	0.87050 0.92390 0.45054 0.08700
Cu	Cu	0.63198 0.23988 0.00336 0.92900
Cu	Cu	0.65892 0.21066 0.88900 0.90000
Cu	Cu	0.64736 0.32480 0.92650 0.92300
Cu	Cu	0.61987 0.35132 0.02829 0.90500
C 	C 	0.65496 0.29997 0.10880 0.39000
O 	O 	0.53791 0.19505 0.00651 -0.33600
C 	C 	0.66432 0.29641 0.82735 0.39400
O 	O 	0.67286 0.33540 0.99938 -0.61900
O 	O 	0.61401 0.23489 0.92736 -0.61900
O 	O 	0.68655 0.20966 0.00719 -0.34100
O 	O 	0.64401 0.14794 0.92671 -0.39300
O 	O 	0.61957 0.31787 0.09286 -0.35600
O 	O 	0.68609 0.41327 0.92758 -0.34200
C 	C 	0.68426 0.45037 0.96326 0.31300
C 	C 	0.50671 0.21557 0.98666 0.31600
O 	O 	0.53859 0.27150 0.97338 -0.37300
O 	O 	0.64614 0.42729 0.99731 -0.34600
O 	O 	0.65935 0.26126 0.07729 -0.32200
C 	C 	0.67902 0.16539 0.97264 0.32800
O 	O 	0.63280 0.31168 0.85191 -0.34300
O 	O 	0.69798 0.28175 0.85300 -0.38600
H 	H 	0.71927 0.36772 0.01273 0.18000
H 	H 	0.56776 0.20532 0.91247 0.18800
Cu	Cu	0.74968 0.35182 0.43492 0.93500
Cu	Cu	0.75520 0.29964 0.54151 0.88700
Cu	Cu	0.65541 0.31505 0.50830 0.90500
Cu	Cu	0.62449 0.34172 0.40790 0.91500
C 	C 	0.69535 0.33449 0.32921 0.39500
O 	O 	0.78067 0.44321 0.43757 -0.32500
C 	C 	0.70071 0.32653 0.61847 0.37700
O 	O 	0.65090 0.29576 0.43530 -0.63800
O 	O 	0.74868 0.35931 0.50997 -0.63500
O 	O 	0.79982 0.31704 0.43267 -0.32600
O 	O 	0.73885 0.24416 0.48091 -0.41800
O 	O 	0.66776 0.35939 0.34685 -0.34400
O 	O 	0.56377 0.26621 0.50348 -0.34800
C 	C 	0.52512 0.27190 0.47305 0.31600
C 	C 	0.75116 0.46421 0.45832 0.30400
O 	O 	0.69370 0.42359 0.46795 -0.36300
O 	O 	0.54021 0.29595 0.43052 -0.35200
O 	O 	0.73454 0.33060 0.36082 -0.33100
C 	C 	0.78017 0.26452 0.44983 0.31200
O 	O 	0.66217 0.32844 0.58390 -0.33800
O 	O 	0.75219 0.33378 0.60725 -0.37200
H 	H 	0.62409 0.24987 0.42017 0.19100
H 	H 	0.77597 0.40310 0.53044 0.19700
C 	C 	0.62876 0.28278 0.68285 0.27200
C 	C 	0.69062 0.32474 0.67250 -0.19000
C 	C 	0.74321 0.36096 0.71388 0.27500
C 	C 	0.73443 0.35257 0.76461 0.28200
C 	C 	0.67296 0.30867 0.77459 -0.20200
C 	C 	0.62001 0.27504 0.73373 0.27800
F 	F 	0.56028 0.23315 0.74312 -0.38600
F 	F 	0.57744 0.24755 0.64341 -0.38300
F 	F 	0.78565 0.38727 0.80414 -0.37800
F 	F 	0.80280 0.40438 0.70493 -0.37600
C 	C 	0.71974 0.37977 0.24908 0.28300
C 	C 	0.69594 0.32721 0.27349 -0.19200
C 	C 	0.66605 0.26669 0.24358 0.27600
C 	C 	0.65582 0.25805 0.18943 0.28100
C 	C 	0.67588 0.31011 0.16494 -0.19200
C 	C 	0.70976 0.37125 0.19506 0.27500
F 	F 	0.73139 0.42220 0.17187 -0.39400
F 	F 	0.75091 0.43890 0.27777 -0.37200
F 	F 	0.62338 0.19868 0.16085 -0.37600
F 	F 	0.64396 0.21576 0.26687 -0.38800
C 	C 	0.77788 0.53182 0.46249 -0.08200
C 	C 	0.74235 0.54988 0.43763 0.15900
C 	C 	0.76942 0.61430 0.44067 -0.07600
C 	C 	0.83254 0.66119 0.46644 0.03300
C 	C 	0.86816 0.64331 0.49108 0.08800
C 	C 	0.84065 0.57886 0.48916 -0.00300
H 	H 	0.74206 0.62792 0.42139 0.09800
C 	C 	0.86193 0.72875 0.46526 0.01500
H 	H 	0.86835 0.56536 0.50801 0.07600
C 	C 	0.86436 0.76707 0.50746 -0.05900
C 	C 	0.89287 0.83135 0.50723 0.11300
C 	C 	0.91812 0.85747 0.46395 -0.02000
C 	C 	0.91416 0.81866 0.42123 -0.04800
C 	C 	0.88666 0.75472 0.42183 0.10200
H 	H 	0.84501 0.74715 0.54080 0.09100
H 	H 	0.93387 0.83863 0.38800 0.08700
Br	Br	0.95495 0.70614 0.52633 -0.16500
Br	Br	0.65901 0.48781 0.39562 -0.20200
Br	Br	0.89901 0.88318 0.56712 -0.17300
Br	Br	0.88507 0.70408 0.36364 -0.15400
C 	C 	0.80669 0.22995 0.43664 -0.09100
C 	C 	0.87238 0.25891 0.45235 0.14600
C 	C 	0.89449 0.22189 0.44955 -0.08000
C 	C 	0.85165 0.15601 0.43183 0.03100
C 	C 	0.78661 0.12755 0.41386 0.08700
C 	C 	0.76457 0.16462 0.41598 -0.00400
H 	H 	0.94471 0.24405 0.46294 0.09300
C 	C 	0.87427 0.11665 0.43660 0.01200
H 	H 	0.71412 0.14213 0.40348 0.08000
C 	C 	0.87697 0.09708 0.48363 -0.06100
C 	C 	0.90201 0.06325 0.49012 0.11100
C 	C 	0.92396 0.04801 0.44899 -0.01900
C 	C 	0.91971 0.06618 0.40150 -0.05100
C 	C 	0.89541 0.10073 0.39525 0.10500
H 	H 	0.86067 0.10919 0.51552 0.08500
H 	H 	0.93675 0.05477 0.36982 0.08600
Br	Br	0.72679 0.03778 0.38807 -0.16800
Br	Br	0.93200 0.34795 0.48133 -0.19900
Br	Br	0.90840 0.04073 0.55611 -0.18200
Br	Br	0.89265 0.12683 0.33038 -0.16600
C 	C 	0.12593 0.06837 0.47420 -0.02200
C 	C 	0.15205 0.07510 0.42905 0.11300
C 	C 	0.21828 0.11031 0.43291 -0.06100
C 	C 	0.25888 0.13869 0.48154 0.01400
C 	C 	0.23284 0.13265 0.52669 0.10300
C 	C 	0.16655 0.09750 0.52283 -0.04800
H 	H 	0.23822 0.11511 0.39809 0.08900
C 	C 	0.32848 0.17400 0.48476 0.03300
H 	H 	0.14657 0.09246 0.55764 0.08500
C 	C 	0.36638 0.23920 0.48403 -0.07700
C 	C 	0.43148 0.27236 0.48260 0.15100
C 	C 	0.45897 0.23989 0.48118 -0.08000
C 	C 	0.42155 0.17519 0.48400 -0.00000
C 	C 	0.35653 0.14215 0.48566 0.08900
H 	H 	0.34511 0.26404 0.48417 0.09500
H 	H 	0.44258 0.15012 0.48343 0.08100
Br	Br	0.28703 0.17139 0.59388 -0.15600
Br	Br	0.09789 0.03591 0.36182 -0.18900
Br	Br	0.48247 0.36228 0.48439 -0.17900
Br	Br	0.30652 0.05332 0.48833 -0.16400
C 	C 	0.71904 0.51775 0.96062 -0.08200
C 	C 	0.68621 0.54403 0.95112 0.15400
C 	C 	0.72071 0.60905 0.95122 -0.07500
C 	C 	0.78765 0.64790 0.95969 0.03000
C 	C 	0.82034 0.62129 0.96764 0.09200
C 	C 	0.78593 0.55642 0.96801 -0.00300
H 	H 	0.69549 0.62940 0.94447 0.09700
C 	C 	0.82324 0.71660 0.96179 0.02700
H 	H 	0.81124 0.53614 0.97464 0.08000
C 	C 	0.84467 0.75704 0.00974 -0.07400
C 	C 	0.88165 0.82273 0.01290 0.10300
C 	C 	0.89676 0.84833 0.96762 -0.00700
C 	C 	0.87415 0.80783 0.91952 -0.05100
C 	C 	0.83752 0.74212 0.91640 0.10200
H 	H 	0.83350 0.73739 0.04467 0.09100
H 	H 	0.88566 0.82751 0.88462 0.08200
Br	Br	0.91197 0.67292 0.97804 -0.15500
Br	Br	0.59445 0.49152 0.93532 -0.16800
Br	Br	0.91243 0.87694 0.07948 -0.16500
Br	Br	0.80842 0.68798 0.85006 -0.16500
C 	C 	0.92305 0.05110 0.98210 -0.00700
C 	C 	0.91241 0.06835 0.02981 0.10200
C 	C 	0.87502 0.09000 0.03098 -0.07300
C 	C 	0.84770 0.09413 0.98482 0.02500
C 	C 	0.86074 0.07964 0.93736 0.10200
C 	C 	0.89849 0.05844 0.93625 -0.05300
H 	H 	0.86601 0.10225 0.06766 0.09300
C 	C 	0.80490 0.11288 0.98635 0.03100
H 	H 	0.90679 0.04539 0.89949 0.08000
C 	C 	0.82988 0.17661 0.98788 -0.07700
C 	C 	0.78924 0.19447 0.98423 0.15200
C 	C 	0.72288 0.14835 0.98050 -0.09700
C 	C 	0.69812 0.08486 0.98047 0.00300
C 	C 	0.73879 0.06692 0.98338 0.08500
H 	H 	0.88073 0.21200 0.99011 0.09800
H 	H 	0.64715 0.04925 0.97740 0.08000
Br	Br	0.82552 0.08638 0.87351 -0.18500
Br	Br	0.94702 0.06076 0.09352 -0.17100
Br	Br	0.82481 0.28117 0.98053 -0.20900
Br	Br	0.70308 0.97927 0.98191 -0.16000
C 	C 	0.43945 0.18385 0.99086 -0.07700
C 	C 	0.39163 0.12031 0.96632 0.15400
C 	C 	0.32731 0.09331 0.96698 -0.07700
C 	C 	0.31024 0.12960 0.99104 0.04300
C 	C 	0.35813 0.19261 0.01645 0.07600
C 	C 	0.42232 0.21918 0.01661 -0.01400
H 	H 	0.29047 0.04462 0.94765 0.09700
C 	C 	0.24217 0.10191 0.98844 0.02400
H 	H 	0.45901 0.26791 0.03595 0.06300
C 	C 	0.21345 0.07866 0.03099 -0.07000
C 	C 	0.14955 0.05425 0.02989 0.10100
C 	C 	0.11325 0.05115 0.98522 -0.00600
C 	C 	0.14227 0.07541 0.94302 -0.05200
C 	C 	0.20655 0.10101 0.94451 0.10300
H 	H 	0.24109 0.08040 0.06521 0.09200
H 	H 	0.11453 0.07333 0.90867 0.08100
Br	Br	0.33663 0.24385 0.04960 -0.17900
Br	Br	0.41275 0.07083 0.92932 -0.18600
Br	Br	0.11301 0.02672 0.09016 -0.17100
Br	Br	0.24507 0.13497 0.88644 -0.16900
