data_crystal

_cell_length_a 19.19436
_cell_length_b 18.00100
_cell_length_c 26.61414
_cell_angle_alpha 95.43330
_cell_angle_beta  95.43475
_cell_angle_gamma 126.42967

_symmetry_space_group_name_	'P 1'
_symmetry_space_group_name_H-M	'P 1'

loop_
_symmetry_equiv_pos_as_xyz
  x,y,z

loop_
_atom_site_label
_atom_site_type_symbol
_atom_site_fract_x
_atom_site_fract_y
_atom_site_fract_z
_atom_site_charge
C 	C 	0.96551 0.05762 0.99091 0.10700
N 	N 	0.05009 0.09693 0.98615 -0.12700
C 	C 	0.08104 0.04604 0.98827 0.12900
C 	C 	0.04697 0.01692 0.48931 0.12700
N 	N 	0.00070 0.05152 0.48370 -0.13000
Cu	Cu	0.75934 0.36142 0.94801 0.93700
Cu	Cu	0.73362 0.24859 0.04211 0.89000
Cu	Cu	0.62061 0.30419 0.01423 0.89800
Cu	Cu	0.58766 0.34612 0.91213 0.91500
C 	C 	0.69827 0.34803 0.84271 0.31100
C 	C 	0.65803 0.28366 0.11964 0.29500
O 	O 	0.62125 0.27821 0.94152 -0.62300
O 	O 	0.74627 0.35523 0.02041 -0.64500
O 	O 	0.83074 0.31426 0.94677 -0.34700
O 	O 	0.72850 0.18781 0.97846 -0.40100
O 	O 	0.66321 0.38755 0.85941 -0.35900
O 	O 	0.50036 0.26561 0.00822 -0.37500
C 	C 	0.44149 0.22932 0.96533 0.31300
O 	O 	0.46546 0.25601 0.92170 -0.36200
O 	O 	0.75231 0.34431 0.87478 -0.32100
C 	C 	0.79803 0.23052 0.95688 0.31600
O 	O 	0.62260 0.31087 0.08849 -0.35500
O 	O 	0.72443 0.28469 0.10949 -0.35600
H 	H 	0.58536 0.21053 0.92623 0.21000
Cu	Cu	0.69046 0.28025 0.43193 0.93100
Cu	Cu	0.70688 0.21564 0.54055 0.87900
Cu	Cu	0.58763 0.26396 0.51694 0.89900
Cu	Cu	0.53045 0.28854 0.41424 0.91500
C 	C 	0.61342 0.26637 0.33041 0.30200
C 	C 	0.67287 0.29415 0.62379 0.29700
O 	O 	0.56071 0.21841 0.44426 -0.63800
O 	O 	0.70804 0.30803 0.50797 -0.63900
O 	O 	0.74317 0.21223 0.42530 -0.35600
O 	O 	0.66442 0.12351 0.48150 -0.43100
O 	O 	0.54588 0.26029 0.34370 -0.31900
O 	O 	0.46694 0.21051 0.52238 -0.37300
C 	C 	0.41384 0.22023 0.49350 0.30300
O 	O 	0.43477 0.25915 0.45226 -0.37400
O 	O 	0.65355 0.24097 0.35883 -0.35000
C 	C 	0.71701 0.14136 0.44888 0.30500
O 	O 	0.61443 0.29390 0.59278 -0.34100
O 	O 	0.73005 0.28555 0.60627 -0.37000
H 	H 	0.51653 0.14934 0.43373 0.17600
C 	C 	0.69651 0.33234 0.78729 -0.00100
C 	C 	0.63390 0.24211 0.75645 -0.10100
C 	C 	0.62456 0.23199 0.70266 0.04900
C 	C 	0.67761 0.30983 0.67961 -0.00100
H 	H 	0.57672 0.16331 0.67851 0.06600
C 	C 	0.57557 0.15721 0.78091 0.77800
F 	F 	0.52035 0.16739 0.80521 -0.46900
F 	F 	0.62724 0.14966 0.81667 -0.46300
F 	F 	0.52401 0.07439 0.74492 -0.44700
C 	C 	0.64022 0.34446 0.20109 0.05200
C 	C 	0.63747 0.27364 0.17174 0.00200
C 	C 	0.62111 0.19714 0.19363 -0.10100
C 	C 	0.61997 0.19994 0.24648 0.05500
C 	C 	0.62461 0.27181 0.27634 0.00200
C 	C 	0.63436 0.34493 0.25339 -0.10100
H 	H 	0.61279 0.14452 0.26421 0.07900
C 	C 	0.60613 0.11305 0.16118 0.77900
F 	F 	0.68644 0.13430 0.15489 -0.46400
F 	F 	0.55520 0.08917 0.11345 -0.47500
F 	F 	0.56242 0.03514 0.18440 -0.44700
C 	C 	0.81408 0.11806 0.50118 -0.01900
C 	C 	0.76870 0.10518 0.45266 -0.11800
C 	C 	0.77007 0.05445 0.40920 0.14000
C 	C 	0.81723 0.01786 0.41535 -0.07900
C 	C 	0.86134 0.02959 0.46408 -0.02200
C 	C 	0.85837 0.07865 0.50759 0.07900
N 	N 	0.89572 0.08599 0.55572 -0.19300
H 	H 	0.81313 0.15712 0.53439 0.00900
N 	N 	0.72549 0.03938 0.36179 -0.20400
H 	H 	0.89572 0.12508 0.58738 0.09400
H 	H 	0.92194 0.05026 0.56254 0.09900
H 	H 	0.68756 0.06288 0.35608 0.11900
H 	H 	0.72760 0.00252 0.32994 0.11400
C 	C 	0.19190 0.16866 0.48757 -0.07300
C 	C 	0.14457 0.08198 0.50401 -0.02800
C 	C 	0.19157 0.05436 0.52973 0.09000
C 	C 	0.28125 0.10203 0.52780 -0.02800
C 	C 	0.32683 0.18385 0.50666 -0.09600
C 	C 	0.28375 0.22280 0.49204 0.13200
N 	N 	0.33052 0.31316 0.48475 -0.20000
H 	H 	0.15750 0.19408 0.47130 0.06900
H 	H 	0.31527 0.07528 0.54266 0.06100
H 	H 	0.29806 0.33967 0.47103 0.10400
H 	H 	0.39896 0.35975 0.49648 0.11100
C 	C 	0.85630 0.06498 0.93889 -0.09300
C 	C 	0.92771 0.10693 0.97985 0.00900
C 	C 	0.96372 0.19659 0.00859 0.03100
C 	C 	0.92681 0.24187 0.99584 0.02400
C 	C 	0.85142 0.19669 0.95739 -0.12700
C 	C 	0.81816 0.10937 0.92715 0.15500
N 	N 	0.75026 0.06832 0.88657 -0.20800
H 	H 	0.95274 0.30938 0.01859 0.01800
N 	N 	0.03067 0.23753 0.04981 -0.17900
H 	H 	0.72480 0.10277 0.87472 0.14700
H 	H 	0.05293 0.20159 0.06403 0.10500
H 	H 	0.05875 0.30508 0.06958 0.10100
C 	C 	0.29161 0.18244 0.93488 -0.02600
C 	C 	0.34671 0.17361 0.96812 -0.07800
C 	C 	0.31103 0.11411 0.00460 0.12400
C 	C 	0.22512 0.07601 0.01197 -0.08300
C 	C 	0.17061 0.08596 0.97911 -0.01000
C 	C 	0.20242 0.13393 0.93785 0.09300
N 	N 	0.14701 0.12966 0.89970 -0.19300
H 	H 	0.31758 0.22532 0.90574 0.06400
H 	H 	0.19971 0.03592 0.04229 0.06900
N 	N 	0.35655 0.08897 0.03028 -0.19600
H 	H 	0.17209 0.17081 0.87153 0.10500
H 	H 	0.07871 0.08002 0.89508 0.11000
H 	H 	0.41129 0.09906 0.01816 0.11000
H 	H 	0.33272 0.05122 0.05989 0.11700
H 	H 	0.75531 0.37418 0.52481 0.19900
C 	C 	0.75003 0.41014 0.76426 0.05300
C 	C 	0.74019 0.40019 0.71043 -0.09400
F 	F 	0.54746 0.38348 0.28731 -0.45200
H 	H 	0.64854 0.40029 0.18329 0.08000
H 	H 	0.78735 0.41551 0.04507 0.17800
O 	O 	0.64682 0.41960 0.46093 -0.37000
O 	O 	0.75147 0.41717 0.42880 -0.34200
C 	C 	0.63324 0.42029 0.28337 0.78100
H 	H 	0.72413 0.00240 0.86530 0.11500
F 	F 	0.68385 0.45259 0.33198 -0.47700
O 	O 	0.66981 0.45681 0.97895 -0.38500
H 	H 	0.83050 0.99766 0.91593 0.07100
C 	C 	0.91154 0.99193 0.46887 0.11800
H 	H 	0.81937 0.97992 0.38211 0.07000
N 	N 	0.02806 0.95671 0.99670 -0.11500
C 	C 	0.94406 0.91772 0.00254 0.10000
N 	N 	0.91255 0.96793 0.99907 -0.12200
N 	N 	0.86845 0.89755 0.46030 -0.13200
C 	C 	0.91459 0.86283 0.46538 0.11800
N 	N 	0.00380 0.92254 0.47878 -0.12800
O 	O 	0.79933 0.49591 0.95810 -0.34500
C 	C 	0.75372 0.52074 0.97783 0.28400
C 	C 	0.72588 0.46436 0.44950 0.31800
C 	C 	0.79651 0.48568 0.68599 0.77900
H 	H 	0.79796 0.47878 0.78843 0.08100
F 	F 	0.84604 0.56845 0.72200 -0.44700
F 	F 	0.74319 0.49097 0.65016 -0.46100
F 	F 	0.85358 0.47861 0.66185 -0.45100
F 	F 	0.66695 0.49689 0.25928 -0.45200
C 	C 	0.82398 0.71745 0.50062 -0.06800
C 	C 	0.86775 0.76103 0.46114 -0.02500
C 	C 	0.87304 0.70869 0.42058 0.09900
C 	C 	0.83319 0.61320 0.42007 -0.01300
C 	C 	0.78487 0.56830 0.45794 -0.08600
C 	C 	0.78587 0.62250 0.50059 0.13400
N 	N 	0.75536 0.58549 0.54277 -0.19900
H 	H 	0.82302 0.75863 0.53267 0.06600
H 	H 	0.83708 0.57303 0.38901 0.09400
N 	N 	0.91411 0.74886 0.38141 -0.19300
H 	H 	0.75192 0.62418 0.57293 0.12800
H 	H 	0.74098 0.52115 0.54767 0.13000
H 	H 	0.93940 0.81784 0.37879 0.10500
H 	H 	0.91903 0.71006 0.35214 0.11300
N 	N 	0.15248 0.98626 0.55852 -0.19300
H 	H 	0.09222 0.96266 0.56877 0.11100
H 	H 	0.18568 0.96205 0.57460 0.10900
C 	C 	0.80960 0.75747 0.96465 -0.04600
C 	C 	0.88353 0.81679 0.00410 -0.04200
C 	C 	0.90640 0.77740 0.03953 0.09700
C 	C 	0.86127 0.67972 0.03113 -0.05000
C 	C 	0.79195 0.62090 0.98908 -0.07000
C 	C 	0.76439 0.65986 0.95604 0.11900
N 	N 	0.69691 0.60469 0.91503 -0.19400
H 	H 	0.79078 0.78778 0.93835 0.06200
H 	H 	0.88068 0.64952 0.05714 0.05000
N 	N 	0.97049 0.83275 0.08197 -0.19600
H 	H 	0.67694 0.63436 0.89129 0.10200
H 	H 	0.66443 0.53252 0.90572 0.08300
H 	H 	0.99926 0.90414 0.09177 0.09900
H 	H 	0.98947 0.80372 0.10692 0.09700
