data_crystal

_cell_length_a 20.07778
_cell_length_b 20.81939
_cell_length_c 37.25441
_cell_angle_alpha 60.73508
_cell_angle_beta  119.01984
_cell_angle_gamma 133.37374

_symmetry_space_group_name_	'P 1'
_symmetry_space_group_name_H-M	'P 1'

loop_
_symmetry_equiv_pos_as_xyz
  x,y,z

loop_
_atom_site_label
_atom_site_type_symbol
_atom_site_fract_x
_atom_site_fract_y
_atom_site_fract_z
_atom_site_charge
C 	C 	0.67029 0.29034 0.98030 0.11000
C 	C 	0.71952 0.43560 0.97926 0.11300
C 	C 	0.62508 0.39981 0.97037 -0.09900
C 	C 	0.55605 0.30657 0.97409 0.12200
C 	C 	0.57594 0.25560 0.97237 -0.09100
H 	H 	0.60801 0.44075 0.96874 0.09900
H 	H 	0.51980 0.18516 0.97074 0.10400
C 	C 	0.69354 0.24132 0.54628 0.12400
C 	C 	0.67479 0.35949 0.55001 -0.09400
C 	C 	0.59490 0.27992 0.53673 0.12700
C 	C 	0.60416 0.22177 0.53387 -0.08700
H 	H 	0.66747 0.40550 0.55110 0.09700
H 	H 	0.54199 0.16073 0.52284 0.10800
C 	C 	0.26748 0.61224 0.19367 0.12000
C 	C 	0.36068 0.66963 0.18890 -0.10100
C 	C 	0.40089 0.63157 0.19216 0.12800
C 	C 	0.34782 0.53778 0.19871 -0.09600
C 	C 	0.25169 0.48346 0.19550 0.11200
C 	C 	0.21424 0.51754 0.19858 -0.07100
H 	H 	0.40048 0.74301 0.18156 0.09600
H 	H 	0.37806 0.50946 0.19941 0.09500
H 	H 	0.14353 0.47125 0.20323 0.12100
C 	C 	0.31773 0.69663 0.63920 0.12000
C 	C 	0.24194 0.61621 0.62463 -0.08700
C 	C 	0.25909 0.56134 0.62411 0.12100
C 	C 	0.35105 0.58750 0.63726 -0.08500
C 	C 	0.42633 0.66745 0.65096 0.12200
C 	C 	0.40967 0.72052 0.65327 -0.10500
H 	H 	0.17082 0.59708 0.61345 0.10900
H 	H 	0.36404 0.54497 0.63704 0.10200
H 	H 	0.46839 0.78174 0.66471 0.09600
Co	Co	0.07191 0.04178 0.03808 1.17300
Co	Co	0.13267 0.92800 0.04160 1.19600
C 	C 	0.27462 0.10789 0.06004 0.35500
O 	O 	0.04447 0.12779 0.02752 -0.43500
C 	C 	0.05151 0.20889 0.11273 0.38100
C 	C 	0.13801 0.81873 0.13219 0.36600
O 	O 	0.12589 0.82243 0.09361 -0.38700
O 	O 	0.11008 0.85342 0.13852 -0.35700
O 	O 	0.07640 0.17494 0.10382 -0.37400
O 	O 	0.05903 0.94220 0.05865 -0.73000
O 	O 	0.25284 0.02532 0.07383 -0.38200
O 	O 	0.21869 0.12271 0.05883 -0.38500
Co	Co	0.03656 0.02142 0.52860 1.17100
Co	Co	0.12110 0.93649 0.52511 1.18500
C 	C 	0.21521 0.13407 0.50507 0.36400
O 	O 	0.03407 0.06575 0.69665 -0.33300
C 	C 	0.06280 0.01375 0.72149 0.21600
C 	C 	0.02631 0.19921 0.60666 0.37900
C 	C 	0.24174 0.94058 0.61066 0.35800
O 	O 	0.07349 0.97727 0.70529 -0.30700
O 	O 	0.24334 0.98862 0.57137 -0.34400
O 	O 	0.19371 0.92908 0.63080 -0.36400
O 	O 	0.05379 0.17385 0.59327 -0.38500
O 	O 	0.06014 0.94347 0.55451 -0.73300
O 	O 	0.16874 0.06792 0.48755 -0.41200
O 	O 	0.17540 0.12754 0.52734 -0.40800
C 	C 	0.13446 0.05545 0.81840 0.04300
C 	C 	0.15491 0.11440 0.83658 -0.01900
C 	C 	0.09289 0.07967 0.85937 -0.06700
O 	O 	0.16228 0.08692 0.78204 -0.14600
C 	C 	0.09550 0.00715 0.76742 0.02500
C 	C 	0.11604 0.11169 0.89052 -0.00300
H 	H 	0.21438 0.18560 0.83149 0.08200
H 	H 	0.18582 0.16896 0.90136 0.07700
C 	C 	0.01990 0.95621 0.25954 0.11300
C 	C 	0.13603 0.39669 0.64607 -0.13100
C 	C 	0.18099 0.47163 0.61408 -0.04600
C 	C 	0.17219 0.45652 0.57854 0.30700
C 	C 	0.12525 0.36778 0.57685 -0.05400
C 	C 	0.08595 0.29345 0.61038 -0.14200
C 	C 	0.09069 0.30845 0.64480 0.36700
F 	F 	0.05274 0.23739 0.67751 -0.44400
H 	H 	0.14244 0.40739 0.67360 0.12000
H 	H 	0.11901 0.35696 0.54941 0.11300
F 	F 	0.21388 0.52828 0.54687 -0.40300
C 	C 	0.57794 0.69968 0.70261 -0.12700
C 	C 	0.52318 0.69754 0.66098 -0.05500
C 	C 	0.55839 0.71748 0.62948 0.30700
C 	C 	0.64921 0.74328 0.63927 -0.06100
C 	C 	0.70721 0.75357 0.68002 -0.14400
C 	C 	0.66949 0.72715 0.71220 0.36500
F 	F 	0.72357 0.73307 0.75223 -0.43200
H 	H 	0.54999 0.68114 0.72741 0.11500
H 	H 	0.67727 0.76271 0.61429 0.10300
F 	F 	0.50560 0.71465 0.58910 -0.41100
C 	C 	0.36187 0.85405 0.61742 -0.14000
C 	C 	0.30303 0.76073 0.63604 -0.04100
C 	C 	0.23395 0.73008 0.65323 0.30500
C 	C 	0.22027 0.79136 0.64922 -0.05300
C 	C 	0.27564 0.88375 0.62820 -0.14700
C 	C 	0.35030 0.91539 0.61477 0.41800
F 	F 	0.40849 0.00527 0.59685 -0.45100
H 	H 	0.41610 0.87902 0.60450 0.14700
H 	H 	0.16336 0.76595 0.66037 0.10800
F 	F 	0.17991 0.64129 0.67358 -0.41900
C 	C 	0.19883 0.33448 0.19648 -0.13100
C 	C 	0.19012 0.40653 0.17596 -0.04700
C 	C 	0.14733 0.41935 0.13247 0.30900
C 	C 	0.11561 0.36220 0.10986 -0.05800
C 	C 	0.12149 0.28851 0.13060 -0.14600
C 	C 	0.16757 0.27773 0.17364 0.36500
F 	F 	0.17857 0.20983 0.19379 -0.42900
H 	H 	0.23446 0.32559 0.22966 0.11400
H 	H 	0.08035 0.37137 0.07662 0.10900
F 	F 	0.14101 0.49034 0.11165 -0.40500
C 	C 	0.64058 0.71183 0.20158 -0.06300
C 	C 	0.65041 0.75908 0.15977 -0.14100
C 	C 	0.57735 0.76513 0.12870 0.36500
C 	C 	0.49958 0.73140 0.14011 -0.12300
C 	C 	0.49293 0.68938 0.18249 -0.05400
C 	C 	0.56454 0.68061 0.21324 0.30600
F 	F 	0.55851 0.63875 0.25428 -0.42600
H 	H 	0.44308 0.73552 0.11582 0.12300
F 	F 	0.58501 0.80954 0.08794 -0.41900
C 	C 	0.27997 0.73144 0.20458 -0.12100
C 	C 	0.22386 0.65239 0.19017 -0.04400
C 	C 	0.12854 0.61742 0.16898 0.30900
C 	C 	0.09286 0.66268 0.16158 -0.06000
C 	C 	0.15474 0.75183 0.16655 -0.13200
C 	C 	0.24651 0.78253 0.19165 0.36900
F 	F 	0.30608 0.86560 0.19999 -0.40200
H 	H 	0.35114 0.75620 0.22360 0.11900
F 	F 	0.07379 0.54678 0.15112 -0.40700
F 	F 	0.59109 0.05414 0.58966 -0.43900
C 	C 	0.44737 0.25949 0.48561 -0.12900
C 	C 	0.50123 0.25597 0.52737 -0.04900
C 	C 	0.46666 0.23229 0.56005 0.31800
C 	C 	0.37577 0.20522 0.55140 -0.05800
C 	C 	0.31765 0.19826 0.51042 -0.14900
C 	C 	0.35616 0.23171 0.47704 0.36600
F 	F 	0.30259 0.23081 0.43675 -0.43900
H 	H 	0.47531 0.28156 0.45998 0.11200
H 	H 	0.34758 0.18165 0.57726 0.09400
F 	F 	0.51954 0.23142 0.60047 -0.41500
C 	C 	0.65436 0.14439 0.02298 0.29600
F 	F 	0.59493 0.12117 0.04189 -0.43900
C 	C 	0.34200 0.22333 0.99788 -0.05200
C 	C 	0.35632 0.18194 0.04139 -0.15800
C 	C 	0.44097 0.19051 0.06304 0.37900
C 	C 	0.50392 0.22801 0.04057 -0.13900
C 	C 	0.48462 0.26033 0.99641 -0.03800
C 	C 	0.40535 0.26133 0.97528 0.29500
F 	F 	0.38884 0.29744 0.93289 -0.43300
H 	H 	0.27825 0.21979 0.98105 0.08800
H 	H 	0.56803 0.23213 0.05745 0.14500
F 	F 	0.45858 0.15589 0.10555 -0.41800
C 	C 	0.07794 0.03516 0.96097 0.29100
O 	O 	0.14838 0.03061 0.98647 -0.40300
O 	O 	0.03082 0.03655 0.97557 -0.35900
C 	C 	0.04860 0.99147 0.31302 0.21700
C 	C 	0.70259 0.17627 0.54640 -0.06800
C 	C 	0.65141 0.08461 0.56887 0.33000
C 	C 	0.66646 0.02551 0.57205 -0.16000
H 	H 	0.62850 0.95573 0.59051 0.15900
C 	C 	0.68020 0.08754 0.03599 -0.07100
H 	H 	0.64781 0.02336 0.05909 0.10300
Co	Co	0.05310 0.88577 0.60535 1.19500
O 	O 	0.08201 0.80691 0.56237 -0.39900
C 	C 	0.05996 0.96469 0.82592 0.11000
O 	O 	0.08523 0.02989 0.27852 -0.21900
C 	C 	0.69414 0.22752 0.99255 -0.04300
C 	C 	0.74247 0.38116 0.98384 -0.09000
C 	C 	0.03492 0.93369 0.79388 -0.02500
C 	C 	0.05260 0.03926 0.91584 0.00500
C 	C 	0.06506 0.04482 0.33326 -0.11000
C 	C 	0.01515 0.03056 0.38662 -0.06700
H 	H 	0.12623 0.11524 0.33142 0.09900
H 	H 	0.08364 0.08554 0.39981 0.08900
H 	H 	0.02007 0.63566 0.14472 0.09700
H 	H 	0.69644 0.70657 0.22583 0.09200
C 	C 	0.73647 0.05821 0.55494 -0.09200
O 	O 	0.02232 0.84732 0.66006 -0.42100
C 	C 	0.01801 0.98929 0.86662 0.22600
C 	C 	0.00302 0.74359 0.57523 0.36800
C 	C 	0.74571 0.82875 0.15307 0.36300
O 	O 	0.00167 0.83304 0.01241 -0.33500
O 	O 	0.99960 0.93056 0.19642 -0.34900
C 	C 	0.99831 0.97389 0.21315 0.30900
O 	O 	0.99434 0.04370 0.18961 -0.39000
C 	C 	0.99744 0.00586 0.35392 -0.05500
Co	Co	0.97408 0.07450 0.07046 1.17000
O 	O 	0.96291 0.16601 0.10966 -0.42200
H 	H 	0.78496 0.60576 0.92969 0.11600
C 	C 	0.76423 0.38084 0.56142 0.12200
O 	O 	0.99377 0.09196 0.52191 -0.45600
C 	C 	0.97095 0.90199 0.31578 0.00900
C 	C 	0.80951 0.60260 0.96322 -0.13200
C 	C 	0.79230 0.52097 0.99304 -0.04300
C 	C 	0.95180 0.87922 0.28196 -0.06600
C 	C 	0.85106 0.67783 0.97634 0.37300
F 	F 	0.86208 0.75460 0.94686 -0.42200
H 	H 	0.84282 0.79216 0.33888 0.09800
H 	H 	0.88216 0.82676 0.26782 0.07200
Co	Co	0.95954 0.05079 0.57596 1.17000
O 	O 	0.94458 0.14087 0.61654 -0.39400
C 	C 	0.90416 0.86250 0.33714 -0.08600
O 	O 	0.88546 0.87788 0.39244 -0.18200
C 	C 	0.92126 0.91577 0.35767 0.19000
H 	H 	0.81577 0.40726 0.99273 0.09800
C 	C 	0.77390 0.32150 0.55995 -0.09400
H 	H 	0.84326 0.33754 0.56934 0.09400
Co	Co	0.99708 0.85773 0.09519 1.19100
Co	Co	0.92068 0.90126 0.13604 1.19100
C 	C 	0.93776 0.75687 0.03362 0.33000
Co	Co	0.88326 0.02933 0.13839 1.15800
O 	O 	0.92470 0.99683 0.11173 -0.71100
O 	O 	0.92863 0.80584 0.13911 -0.43700
O 	O 	0.96083 0.95400 0.07508 -0.54700
O 	O 	0.80202 0.89620 0.17091 -0.39100
O 	O 	0.77815 0.81739 0.13482 -0.35900
C 	C 	0.80009 0.07000 0.04696 0.33600
O 	O 	0.77900 0.01064 0.08332 -0.38600
O 	O 	0.86498 0.09122 0.03319 -0.34100
O 	O 	0.91693 0.75565 0.06334 -0.36600
Co	Co	0.97767 0.91641 0.65343 1.18600
Co	Co	0.90258 0.01276 0.65630 1.14900
O 	O 	0.94629 0.98898 0.62572 -0.71900
O 	O 	0.97575 0.94527 0.58598 -0.55400
C 	C 	0.80970 0.81408 0.68561 0.35700
C 	C 	0.96845 0.94158 0.45543 0.26100
O 	O 	0.85853 0.88653 0.69885 -0.37100
O 	O 	0.84821 0.80744 0.66848 -0.37400
O 	O 	0.99306 0.88680 0.48220 -0.35800
O 	O 	0.96587 0.98877 0.46888 -0.31400
C 	C 	0.77616 0.00701 0.57187 0.26400
O 	O 	0.77758 0.95920 0.61146 -0.32400
O 	O 	0.82527 0.02340 0.55036 -0.33500
O 	O 	0.97490 0.76150 0.59262 -0.36200
C 	C 	0.99826 0.92991 0.84901 -0.13100
O 	O 	0.98736 0.95868 0.90194 -0.12900
H 	H 	0.93862 0.85878 0.85406 0.12000
H 	H 	0.96474 0.87617 0.78351 0.08400
C 	C 	0.94820 0.95395 0.40961 0.10100
C 	C 	0.76512 0.20653 0.52537 -0.11400
C 	C 	0.78237 0.14809 0.52965 0.34100
F 	F 	0.84787 0.18062 0.51143 -0.43600
H 	H 	0.80276 0.27627 0.50687 0.11500
C 	C 	0.86224 0.48672 0.60746 -0.12500
C 	C 	0.84742 0.46927 0.57132 -0.05400
C 	C 	0.89455 0.54234 0.53944 0.30500
C 	C 	0.94607 0.63178 0.54114 -0.06100
C 	C 	0.95237 0.64907 0.57508 -0.15000
C 	C 	0.91410 0.57632 0.60929 0.37400
F 	F 	0.92643 0.59220 0.64405 -0.42500
H 	H 	0.82800 0.43062 0.63275 0.12300
H 	H 	0.97833 0.68766 0.51530 0.09400
F 	F 	0.88346 0.52647 0.50499 -0.42600
C 	C 	0.76038 0.25264 0.97559 -0.12800
C 	C 	0.75325 0.11653 0.02241 -0.13600
C 	C 	0.79109 0.19833 0.99086 0.36700
F 	F 	0.85899 0.22652 0.97576 -0.42900
H 	H 	0.79013 0.31554 0.95150 0.11100
C 	C 	0.86568 0.59292 0.04968 -0.05900
C 	C 	0.87945 0.67339 0.01975 -0.13900
C 	C 	0.82314 0.51728 0.03646 0.30200
F 	F 	0.80646 0.43848 0.06573 -0.41500
H 	H 	0.88856 0.58916 0.08317 0.09900
