data_crystal

_cell_length_a 18.13820
_cell_length_b 18.66734
_cell_length_c 22.04124
_cell_angle_alpha 95.46981
_cell_angle_beta  95.47714
_cell_angle_gamma 126.33397

_symmetry_space_group_name_	'P 1'
_symmetry_space_group_name_H-M	'P 1'

loop_
_symmetry_equiv_pos_as_xyz
  x,y,z

loop_
_atom_site_label
_atom_site_type_symbol
_atom_site_fract_x
_atom_site_fract_y
_atom_site_fract_z
_atom_site_charge
C 	C 	0.06013 0.00160 0.98749 0.14200
N 	N 	0.03836 0.05983 0.99389 -0.10400
C 	C 	0.05977 0.03554 0.46123 0.12900
Cu	Cu	0.62911 0.20711 0.01567 0.93300
Cu	Cu	0.74201 0.25917 0.90055 0.87200
Cu	Cu	0.64533 0.33481 0.93223 0.90000
Cu	Cu	0.58454 0.34374 0.05174 0.90700
C 	C 	0.62724 0.25964 0.14202 0.32800
O 	O 	0.48757 0.12919 0.00365 -0.33700
C 	C 	0.67094 0.31043 0.80515 0.31700
O 	O 	0.67690 0.34215 0.02026 -0.63600
O 	O 	0.62534 0.21730 0.92717 -0.63800
O 	O 	0.70796 0.16574 0.01961 -0.34700
O 	O 	0.56908 0.27527 0.11940 -0.37100
O 	O 	0.67383 0.45347 0.93896 -0.37100
C 	C 	0.67922 0.50121 0.98977 0.30900
C 	C 	0.44037 0.15621 0.97978 0.29700
O 	O 	0.48494 0.24064 0.97298 -0.39200
O 	O 	0.62654 0.46171 0.03094 -0.36200
O 	O 	0.65225 0.22110 0.10484 -0.34100
C 	C 	0.79184 0.21603 0.00654 0.31300
O 	O 	0.62671 0.32620 0.84199 -0.36900
O 	O 	0.69691 0.25993 0.81833 -0.40900
H 	H 	0.74230 0.39235 0.03992 0.18200
H 	H 	0.56822 0.16656 0.89786 0.18500
Cu	Cu	0.74777 0.34322 0.42287 0.92800
Cu	Cu	0.76740 0.26348 0.54531 0.87900
Cu	Cu	0.63769 0.30859 0.52930 0.90100
Cu	Cu	0.59640 0.37686 0.42258 0.90200
C 	C 	0.64711 0.33175 0.30809 0.31600
O 	O 	0.82115 0.48094 0.42924 -0.34200
C 	C 	0.73533 0.32748 0.65344 0.32100
O 	O 	0.61328 0.28998 0.44015 -0.63400
O 	O 	0.76603 0.35632 0.51513 -0.63400
O 	O 	0.78747 0.26343 0.40359 -0.33700
O 	O 	0.70514 0.17645 0.47137 -0.43500
O 	O 	0.63265 0.38491 0.33960 -0.38000
O 	O 	0.50905 0.25589 0.53475 -0.35200
C 	C 	0.45987 0.27371 0.50052 0.30500
C 	C 	0.79884 0.52566 0.46259 0.29900
O 	O 	0.72354 0.48015 0.48625 -0.37100
O 	O 	0.50127 0.34554 0.47435 -0.37500
O 	O 	0.70374 0.31571 0.33429 -0.34700
C 	C 	0.75084 0.18839 0.42616 0.29700
O 	O 	0.65921 0.30884 0.61975 -0.36700
O 	O 	0.79704 0.32693 0.62700 -0.41500
H 	H 	0.56153 0.22690 0.41955 0.17200
H 	H 	0.81560 0.41835 0.53863 0.19100
C 	C 	0.67845 0.33566 0.74971 -0.11000
C 	C 	0.74813 0.34196 0.71554 -0.11200
H 	H 	0.64269 0.36282 0.73372 0.10500
H 	H 	0.81012 0.35505 0.74190 0.07700
C 	C 	0.64830 0.26879 0.20382 -0.10700
C 	C 	0.61624 0.30752 0.24654 -0.10500
H 	H 	0.69093 0.24992 0.22256 0.11300
H 	H 	0.57009 0.32201 0.22687 0.09000
N 	N 	0.85086 0.65794 0.57132 -0.02200
O 	O 	0.80058 0.66480 0.60618 -0.08100
C 	C 	0.73552 0.04795 0.43671 -0.01100
C 	C 	0.77661 0.12678 0.41084 -0.09400
C 	C 	0.21369 0.11761 0.53073 -0.05800
C 	C 	0.16172 0.09985 0.47240 -0.00700
C 	C 	0.20771 0.13990 0.42396 0.07400
C 	C 	0.30500 0.19689 0.43409 -0.01100
C 	C 	0.35744 0.21443 0.49221 -0.08800
C 	C 	0.31139 0.17584 0.54125 0.11900
N 	N 	0.36325 0.19816 0.60216 -0.02100
H 	H 	0.17824 0.08719 0.56818 0.08100
H 	H 	0.33996 0.22616 0.39620 0.05300
N 	N 	0.15565 0.12107 0.36384 -0.01900
O 	O 	0.41541 0.28126 0.63257 -0.07900
O 	O 	0.35217 0.13429 0.62921 -0.08900
O 	O 	0.16584 0.18684 0.33996 -0.08300
C 	C 	0.71939 0.63301 0.94281 -0.01000
H 	H 	0.67007 0.58674 0.90086 0.07600
O 	O 	0.02990 0.19690 0.88762 -0.06100
C 	C 	0.28468 0.10359 0.92750 -0.01000
C 	C 	0.33857 0.10002 0.97551 -0.09200
C 	C 	0.29782 0.05800 0.02527 0.12400
C 	C 	0.20677 0.02620 0.02854 -0.09400
C 	C 	0.15522 0.03495 0.98252 0.00100
C 	C 	0.19328 0.07130 0.93074 0.07300
N 	N 	0.13927 0.07521 0.88125 -0.01700
H 	H 	0.31483 0.13405 0.88850 0.06700
N 	N 	0.34980 0.05050 0.07377 -0.03700
O 	O 	0.17177 0.15177 0.86363 -0.07200
O 	O 	0.37847 0.10080 0.12847 -0.09400
O 	O 	0.06124 0.00115 0.85056 -0.06600
O 	O 	0.68449 0.74236 0.86966 -0.07300
O 	O 	0.76936 0.08972 0.14275 -0.08100
C 	C 	0.84121 0.62121 0.45883 -0.08300
C 	C 	0.85396 0.68052 0.51078 0.11300
O 	O 	0.81576 0.28291 0.97759 -0.42700
C 	C 	0.73033 0.59918 0.99428 -0.08200
O 	O 	0.66008 0.85344 0.45086 -0.07300
N 	N 	0.82467 0.15934 0.11785 -0.02200
C 	C 	0.85013 0.64741 0.40066 -0.01500
C 	C 	0.87111 0.76277 0.50349 -0.05500
H 	H 	0.83854 0.60161 0.36024 0.07400
C 	C 	0.77380 0.72645 0.94466 0.08100
N 	N 	0.76405 0.76001 0.89112 -0.01900
O 	O 	0.90228 0.63536 0.59289 -0.09700
H 	H 	0.88241 0.80858 0.54381 0.08700
O 	O 	0.82724 0.77738 0.30944 -0.07100
C 	C 	0.85729 0.03551 0.41554 0.00500
C 	C 	0.79245 0.65964 0.04937 0.11200
O 	O 	0.78814 0.64704 0.15499 -0.07900
C 	C 	0.85004 0.18509 0.01146 -0.09800
C 	C 	0.86922 0.73071 0.39370 0.07600
C 	C 	0.88016 0.78905 0.44549 -0.00400
C 	C 	0.85086 0.15209 0.37946 0.11500
N 	N 	0.80444 0.62645 0.10245 -0.02400
C 	C 	0.85601 0.14816 0.06296 0.12200
O 	O 	0.85572 0.23980 0.14496 -0.07800
N 	N 	0.87138 0.91281 0.42785 -0.09400
N 	N 	0.87847 0.75624 0.33403 -0.01800
O 	O 	0.82767 0.20674 0.29279 -0.06900
O 	O 	0.83220 0.80173 0.86093 -0.06700
N 	N 	0.73994 0.93110 0.47413 -0.00300
O 	O 	0.78202 0.94471 0.52995 -0.08100
O 	O 	0.83990 0.58298 0.09978 -0.11400
C 	C 	0.83912 0.78661 0.99868 -0.01500
H 	H 	0.67468 0.02396 0.45736 0.05600
C 	C 	0.84591 0.75300 0.05136 -0.04900
C 	C 	0.89120 0.10695 0.38256 -0.06600
O 	O 	0.10307 0.03924 0.33127 -0.08200
N 	N 	0.88281 0.22033 0.34227 -0.02200
C 	C 	0.89002 0.18162 0.96082 -0.01000
H 	H 	0.88705 0.21117 0.92151 0.03500
N 	N 	0.00761 0.06368 0.44638 -0.10700
C 	C 	0.89336 0.10051 0.06053 -0.06400
H 	H 	0.89550 0.06992 0.09941 0.07800
N 	N 	0.01795 0.94647 0.45979 -0.09600
H 	H 	0.89594 0.79940 0.09305 0.08200
N 	N 	0.88667 0.94021 0.00384 -0.10500
C 	C 	0.77682 0.00405 0.44087 0.04200
C 	C 	0.91337 0.00282 0.42995 0.09800
C 	C 	0.90874 0.88244 0.99755 0.15200
O 	O 	0.91682 0.04631 0.86821 -0.08500
C 	C 	0.92415 0.88490 0.44301 0.13600
C 	C 	0.92647 0.09091 0.00774 -0.00100
C 	C 	0.92715 0.13386 0.95836 0.06500
N 	N 	0.99542 0.91323 0.98970 -0.12600
N 	N 	0.96083 0.12504 0.90417 -0.02900
C 	C 	0.95140 0.02898 0.00202 0.10700
H 	H 	0.94997 0.12850 0.36004 0.08500
O 	O 	0.96961 0.29170 0.35423 -0.09000
O 	O 	0.93377 0.75275 0.30258 -0.07700
H 	H 	0.17651 0.99573 0.06752 0.11400
O 	O 	0.35792 0.98572 0.06556 -0.04600
