data_crystal

_cell_length_a 18.39348
_cell_length_b 18.90172
_cell_length_c 34.62290
_cell_angle_alpha 95.43041
_cell_angle_beta  95.43048
_cell_angle_gamma 126.41529

_symmetry_space_group_name_	'P 1'
_symmetry_space_group_name_H-M	'P 1'

loop_
_symmetry_equiv_pos_as_xyz
  x,y,z

loop_
_atom_site_label
_atom_site_type_symbol
_atom_site_fract_x
_atom_site_fract_y
_atom_site_fract_z
_atom_site_charge
C 	C 	0.91325 0.99134 0.96165 0.12400
N 	N 	0.00430 0.04439 0.96044 -0.12600
C 	C 	0.05127 0.00999 0.96056 0.11900
N 	N 	0.00689 0.92188 0.96090 -0.11900
C 	C 	0.91573 0.86784 0.96171 0.10900
N 	N 	0.86866 0.90273 0.96273 -0.13000
C 	C 	0.92809 0.02764 0.48743 0.10300
N 	N 	0.87844 0.93999 0.49021 -0.12300
C 	C 	0.92048 0.90086 0.49388 0.11100
N 	N 	0.01187 0.94908 0.49400 -0.11900
C 	C 	0.06143 0.03622 0.49050 0.11600
N 	N 	0.01947 0.07560 0.48706 -0.11900
Cu	Cu	0.77158 0.34360 0.96096 0.92600
Cu	Cu	0.75955 0.28013 0.04653 0.87900
Cu	Cu	0.62665 0.30551 0.01027 0.89900
Cu	Cu	0.59957 0.33472 0.92853 0.90200
C 	C 	0.70314 0.30465 0.87769 0.31200
O 	O 	0.82305 0.47350 0.95792 -0.35200
C 	C 	0.67789 0.33042 0.09668 0.30600
O 	O 	0.62793 0.27053 0.95640 -0.63600
O 	O 	0.76069 0.36223 0.01663 -0.63900
O 	O 	0.83300 0.28447 0.96729 -0.36100
O 	O 	0.73173 0.19194 0.00409 -0.42700
O 	O 	0.66844 0.34754 0.88528 -0.37200
O 	O 	0.49479 0.24143 0.00210 -0.37700
C 	C 	0.44238 0.22993 0.96955 0.29300
C 	C 	0.78043 0.50656 0.96923 0.28000
O 	O 	0.69485 0.45203 0.97375 -0.38700
O 	O 	0.47721 0.28097 0.94285 -0.37800
O 	O 	0.75891 0.30677 0.90559 -0.36400
C 	C 	0.79316 0.21077 0.98218 0.28600
O 	O 	0.62711 0.33057 0.06694 -0.37400
O 	O 	0.75303 0.33921 0.09222 -0.39700
H 	H 	0.58800 0.20507 0.94653 0.17000
H 	H 	0.80073 0.42527 0.03074 0.18200
Cu	Cu	0.60798 0.20909 0.50732 0.93100
Cu	Cu	0.67934 0.23388 0.42331 0.87200
Cu	Cu	0.63576 0.34798 0.46042 0.90000
Cu	Cu	0.62793 0.38001 0.54615 0.90500
C 	C 	0.65077 0.26777 0.59127 0.31600
O 	O 	0.47855 0.16618 0.51175 -0.35000
C 	C 	0.61243 0.30475 0.37384 0.30600
O 	O 	0.68438 0.34887 0.51316 -0.63300
O 	O 	0.58872 0.22127 0.45232 -0.64400
O 	O 	0.65975 0.14332 0.49753 -0.36100
O 	O 	0.76359 0.24820 0.46529 -0.43200
O 	O 	0.60813 0.30336 0.58566 -0.37400
O 	O 	0.67168 0.46889 0.46961 -0.36500
C 	C 	0.71755 0.52821 0.50281 0.29100
C 	C 	0.44747 0.21053 0.50119 0.28000
O 	O 	0.50513 0.29674 0.50111 -0.39200
O 	O 	0.70285 0.50426 0.53746 -0.38200
O 	O 	0.64789 0.21624 0.56180 -0.35800
C 	C 	0.73752 0.18261 0.48449 0.29200
O 	O 	0.60328 0.34523 0.40422 -0.36100
O 	O 	0.61862 0.23944 0.37707 -0.41600
H 	H 	0.75234 0.38646 0.51982 0.16700
H 	H 	0.52455 0.17914 0.43763 0.18500
C 	C 	0.74463 0.34125 0.70066 -0.11100
C 	C 	0.70412 0.25850 0.71254 0.00600
C 	C 	0.65691 0.17975 0.68381 0.12200
C 	C 	0.64414 0.18348 0.64372 -0.02600
C 	C 	0.67942 0.26574 0.63206 -0.11800
C 	C 	0.73323 0.34518 0.66060 0.19300
C 	C 	0.70085 0.25362 0.75474 0.01000
O 	O 	0.61892 0.09860 0.69499 -0.27000
H 	H 	0.60355 0.12205 0.62189 0.07100
O 	O 	0.77084 0.42637 0.64951 -0.29900
H 	H 	0.78188 0.40227 0.72262 0.07500
C 	C 	0.78210 0.29252 0.78238 0.11600
C 	C 	0.78132 0.30312 0.82292 -0.02900
C 	C 	0.69994 0.27601 0.83606 -0.12000
C 	C 	0.61728 0.23037 0.80844 0.19400
C 	C 	0.61815 0.22002 0.76797 -0.10800
O 	O 	0.86217 0.32005 0.76983 -0.26900
H 	H 	0.84487 0.33624 0.84401 0.06500
O 	O 	0.53632 0.19957 0.82090 -0.29400
H 	H 	0.55508 0.18890 0.74684 0.08600
H 	H 	0.83260 0.44771 0.64478 0.14800
H 	H 	0.89418 0.38408 0.76845 0.14600
H 	H 	0.50946 0.13761 0.82451 0.15300
H 	H 	0.66742 0.09028 0.69590 0.15600
C 	C 	0.64621 0.28143 0.19964 -0.11300
C 	C 	0.61765 0.33189 0.21324 0.00400
C 	C 	0.60699 0.38083 0.18821 0.12300
C 	C 	0.62648 0.38014 0.15003 -0.03100
C 	C 	0.65576 0.33002 0.13655 -0.11900
C 	C 	0.66395 0.27925 0.16136 0.19100
C 	C 	0.60167 0.33496 0.25415 0.00800
O 	O 	0.57990 0.43112 0.20133 -0.26800
H 	H 	0.61984 0.41931 0.13115 0.06800
O 	O 	0.69021 0.22813 0.14834 -0.29600
H 	H 	0.65455 0.24366 0.21883 0.07100
C 	C 	0.52686 0.25793 0.26507 0.11700
C 	C 	0.52587 0.25174 0.30502 -0.03000
C 	C 	0.59952 0.32182 0.33419 -0.11600
C 	C 	0.66933 0.40232 0.32347 0.18800
C 	C 	0.66989 0.40883 0.28351 -0.10700
O 	O 	0.45563 0.18803 0.23669 -0.26900
H 	H 	0.47037 0.19051 0.31318 0.06100
O 	O 	0.73883 0.47349 0.35189 -0.28000
H 	H 	0.72653 0.46923 0.27530 0.08200
H 	H 	0.63211 0.16856 0.13616 0.14100
H 	H 	0.47213 0.14731 0.23093 0.14500
H 	H 	0.78796 0.46602 0.35501 0.14300
H 	H 	0.51178 0.39041 0.19420 0.15700
C 	C 	0.86664 0.80522 0.49590 0.00200
C 	C 	0.88110 0.75118 0.47266 -0.04100
C 	C 	0.83498 0.66135 0.47560 0.02100
C 	C 	0.77068 0.62374 0.50091 -0.07400
C 	C 	0.75608 0.67763 0.52416 0.00900
C 	C 	0.80459 0.76831 0.52227 -0.02500
H 	H 	0.92949 0.77963 0.45270 0.05500
H 	H 	0.70695 0.64889 0.54380 0.04600
C 	C 	0.79287 0.82357 0.54853 0.09700
C 	C 	0.85756 0.60952 0.45412 0.07600
N 	N 	0.78347 0.86782 0.56956 -0.10800
N 	N 	0.87578 0.56805 0.43701 -0.12300
C 	C 	0.88385 0.07153 0.48697 0.00600
C 	C 	0.85829 0.08815 0.52155 -0.04600
C 	C 	0.81139 0.12539 0.52135 0.02600
C 	C 	0.78806 0.14463 0.48589 -0.08600
C 	C 	0.81472 0.12887 0.45140 0.00800
C 	C 	0.86262 0.09272 0.45180 -0.03100
H 	H 	0.87524 0.07230 0.54868 0.06000
H 	H 	0.79726 0.14394 0.42414 0.01900
C 	C 	0.88839 0.07616 0.41583 0.08800
C 	C 	0.79088 0.14684 0.55794 0.08200
N 	N 	0.90906 0.06288 0.38704 -0.11500
N 	N 	0.77477 0.16399 0.58736 -0.10300
C 	C 	0.16038 0.08732 0.49025 0.00700
C 	C 	0.19011 0.05127 0.46461 -0.05300
C 	C 	0.28376 0.09076 0.46787 0.02500
C 	C 	0.34878 0.16798 0.49675 -0.07500
C 	C 	0.31943 0.20604 0.52137 0.01100
C 	C 	0.22575 0.16590 0.51851 -0.02700
H 	H 	0.13995 0.99121 0.44267 0.06900
H 	H 	0.36961 0.26595 0.54339 0.03800
C 	C 	0.19719 0.20381 0.54570 0.09900
C 	C 	0.31247 0.05203 0.44126 0.07000
N 	N 	0.17430 0.23415 0.56747 -0.10600
N 	N 	0.33525 0.02082 0.41992 -0.11700
C 	C 	0.82077 0.60137 0.96853 -0.07400
C 	C 	0.84412 0.63382 0.93340 0.00200
C 	C 	0.86700 0.71780 0.92958 -0.02500
C 	C 	0.86885 0.77154 0.96155 0.00200
C 	C 	0.84435 0.73865 0.99652 -0.04200
C 	C 	0.82091 0.65435 0.00028 0.01700
H 	H 	0.84167 0.59247 0.90853 0.04600
H 	H 	0.84715 0.78019 0.02141 0.05500
C 	C 	0.79958 0.62376 0.03720 0.07400
C 	C 	0.88801 0.74825 0.89262 0.09300
N 	N 	0.78247 0.59918 0.06675 -0.11000
N 	N 	0.90490 0.77273 0.86303 -0.10900
C 	C 	0.82184 0.15221 0.97678 -0.07800
C 	C 	0.82331 0.12089 0.93866 0.00500
C 	C 	0.84500 0.06120 0.93284 -0.02300
C 	C 	0.86576 0.03238 0.96542 -0.00800
C 	C 	0.86110 0.06122 0.00329 -0.04000
C 	C 	0.84103 0.12198 0.00930 0.01900
H 	H 	0.80698 0.14240 0.91350 0.04700
H 	H 	0.87839 0.04039 0.02847 0.05200
C 	C 	0.84531 0.15664 0.04917 0.05300
C 	C 	0.84644 0.03028 0.89335 0.09100
N 	N 	0.84876 0.18438 0.08112 -0.13000
N 	N 	0.84764 0.00549 0.86172 -0.10900
C 	C 	0.15106 0.06887 0.96238 0.00200
C 	C 	0.18730 0.05392 0.93157 -0.04100
C 	C 	0.28251 0.10562 0.93375 0.02000
C 	C 	0.34232 0.17309 0.96717 -0.07500
C 	C 	0.30605 0.18791 0.99804 0.01000
C 	C 	0.21086 0.13628 0.99583 -0.02500
H 	H 	0.14125 0.00147 0.90602 0.06100
H 	H 	0.35204 0.24007 0.02368 0.04800
C 	C 	0.17509 0.15155 0.02836 0.09600
C 	C 	0.31836 0.08753 0.90207 0.07200
N 	N 	0.14637 0.16374 0.05438 -0.10800
N 	N 	0.34712 0.07309 0.87670 -0.11300
