data_crystal

_cell_length_a 19.61491
_cell_length_b 21.09221
_cell_length_c 40.83706
_cell_angle_alpha 60.60496
_cell_angle_beta  119.09652
_cell_angle_gamma 133.24711

_symmetry_space_group_name_	'P 1'
_symmetry_space_group_name_H-M	'P 1'

loop_
_symmetry_equiv_pos_as_xyz
  x,y,z

loop_
_atom_site_label
_atom_site_type_symbol
_atom_site_fract_x
_atom_site_fract_y
_atom_site_fract_z
_atom_site_charge
C 	C 	0.70809 0.31682 0.98736 0.11600
N 	N 	0.61987 0.25267 0.99562 -0.14400
C 	C 	0.57905 0.27467 0.00308 0.11600
N 	N 	0.62669 0.36031 0.00296 -0.14400
C 	C 	0.71624 0.42394 0.99673 0.12200
N 	N 	0.75689 0.40292 0.98823 -0.14500
C 	C 	0.77116 0.33778 0.49851 0.11300
N 	N 	0.81350 0.42137 0.50038 -0.14200
C 	C 	0.76356 0.43579 0.50686 0.11700
N 	N 	0.67293 0.36748 0.51152 -0.14200
C 	C 	0.63181 0.28431 0.51069 0.11700
N 	N 	0.68135 0.26899 0.50487 -0.14600
C 	C 	0.24650 0.60330 0.17993 0.11200
N 	N 	0.33985 0.66229 0.17730 -0.14500
C 	C 	0.38073 0.63576 0.17294 0.11900
N 	N 	0.32965 0.54976 0.17261 -0.14100
C 	C 	0.23403 0.49383 0.16993 0.11600
N 	N 	0.19176 0.51973 0.17422 -0.14300
C 	C 	0.31373 0.62643 0.67305 0.11700
N 	N 	0.27691 0.53743 0.68458 -0.14100
C 	C 	0.32321 0.51160 0.68310 0.11500
N 	N 	0.40206 0.57447 0.66825 -0.14400
C 	C 	0.43162 0.66052 0.65316 0.12200
N 	N 	0.39658 0.68779 0.66081 -0.14100
Co	Co	0.96859 0.84461 0.09344 1.18600
Co	Co	0.99776 0.09507 0.06389 1.18300
Co	Co	0.90701 0.92202 0.12070 1.19000
Co	Co	0.08073 0.02610 0.04497 1.16700
C 	C 	0.88474 0.73420 0.03719 0.29600
Co	Co	0.09416 0.87519 0.05047 1.17000
Co	Co	0.87524 0.06694 0.10760 1.16300
C 	C 	0.26585 0.04209 0.07430 0.26100
O 	O 	0.96747 0.06861 0.16148 -0.42600
O 	O 	0.92585 0.02261 0.09497 -0.78000
C 	C 	0.96295 0.99637 0.18596 0.32900
O 	O 	0.90234 0.81450 0.13011 -0.46900
O 	O 	0.08586 0.13342 0.03536 -0.48100
C 	C 	0.06872 0.22927 0.09961 0.30700
O 	O 	0.96215 0.96235 0.07139 -0.56600
C 	C 	0.71984 0.86797 0.12009 0.31800
C 	C 	0.08109 0.76958 0.13152 0.30700
C 	C 	0.07929 0.00398 0.97681 0.22900
O 	O 	0.96871 0.94853 0.17593 -0.38900
O 	O 	0.05864 0.76357 0.09694 -0.41400
O 	O 	0.06737 0.81754 0.13621 -0.39300
O 	O 	0.97854 0.19919 0.08686 -0.41600
O 	O 	0.09608 0.19049 0.09643 -0.40500
O 	O 	0.76979 0.93937 0.13212 -0.40000
O 	O 	0.75986 0.85512 0.10799 -0.39200
O 	O 	0.13674 0.98136 0.00256 -0.36800
O 	O 	0.04542 0.02641 0.98725 -0.38300
O 	O 	0.03904 0.91699 0.06202 -0.74700
C 	C 	0.83554 0.12226 0.02245 0.29300
O 	O 	0.79322 0.06249 0.05155 -0.40200
O 	O 	0.90790 0.13320 0.01926 -0.38100
O 	O 	0.95568 0.80248 0.01958 -0.39300
O 	O 	0.87118 0.74051 0.06449 -0.37900
O 	O 	0.22590 0.95560 0.08367 -0.36600
O 	O 	0.22280 0.07096 0.07394 -0.40200
Co	Co	0.00862 0.85561 0.59457 1.18400
Co	Co	0.06409 0.10926 0.58195 1.17600
Co	Co	0.94395 0.92286 0.62601 1.19100
Co	Co	0.12820 0.04140 0.55025 1.16800
C 	C 	0.89875 0.75255 0.53144 0.29700
Co	Co	0.10620 0.88332 0.53964 1.17000
Co	Co	0.91972 0.06938 0.61797 1.16400
C 	C 	0.29485 0.03778 0.56846 0.26400
O 	O 	0.99040 0.04627 0.67480 -0.42600
O 	O 	0.97475 0.02937 0.60544 -0.77200
C 	C 	0.97495 0.96830 0.69577 0.34100
O 	O 	0.94514 0.82035 0.63363 -0.47000
O 	O 	0.15763 0.15079 0.55496 -0.47800
C 	C 	0.12160 0.21875 0.62862 0.30300
O 	O 	0.01585 0.97817 0.57986 -0.56300
C 	C 	0.75411 0.88683 0.60696 0.31500
C 	C 	0.10549 0.77130 0.61884 0.29900
C 	C 	0.10499 0.03031 0.47362 0.27500
O 	O 	0.98383 0.92552 0.68408 -0.38500
O 	O 	0.06333 0.76587 0.58313 -0.41700
O 	O 	0.10405 0.81856 0.63069 -0.39000
O 	O 	0.03712 0.20074 0.60879 -0.42200
O 	O 	0.15144 0.18321 0.62424 -0.39900
O 	O 	0.79989 0.93951 0.62930 -0.40100
O 	O 	0.79756 0.86308 0.60405 -0.38900
O 	O 	0.15349 0.99636 0.49477 -0.37600
O 	O 	0.08851 0.05895 0.48972 -0.38800
O 	O 	0.07256 0.92957 0.56059 -0.74100
C 	C 	0.92118 0.16183 0.53604 0.30000
O 	O 	0.86285 0.09361 0.55927 -0.40800
O 	O 	0.99529 0.16976 0.53644 -0.38000
O 	O 	0.96409 0.82206 0.51124 -0.38700
O 	O 	0.89481 0.75949 0.56137 -0.37700
O 	O 	0.24520 0.95130 0.57241 -0.36600
O 	O 	0.26453 0.06915 0.57542 -0.40200
C 	C 	0.01040 0.97064 0.87126 0.04500
C 	C 	0.02236 0.90987 0.87349 -0.04500
C 	C 	0.01137 0.89858 0.83959 -0.03400
C 	C 	0.98822 0.94787 0.80320 0.02500
C 	C 	0.97439 0.00724 0.80099 -0.06100
C 	C 	0.98540 0.01854 0.83484 -0.07500
C 	C 	0.98452 0.94277 0.76790 0.04400
C 	C 	0.97975 0.94664 0.73618 -0.09800
C 	C 	0.03053 0.98800 0.90656 0.01100
C 	C 	0.04922 0.99804 0.93752 -0.03800
H 	H 	0.04176 0.87251 0.90144 0.04300
H 	H 	0.02244 0.85275 0.84177 0.04200
H 	H 	0.95676 0.04589 0.77307 0.03500
H 	H 	0.97617 0.06569 0.83266 0.04100
C 	C 	0.00128 0.99647 0.29402 0.06500
C 	C 	0.98703 0.92666 0.32782 -0.07700
C 	C 	0.99863 0.93697 0.36210 0.03500
C 	C 	0.02443 0.01716 0.36288 -0.07200
C 	C 	0.03712 0.08639 0.32889 0.00200
C 	C 	0.02554 0.07609 0.29461 -0.10900
C 	C 	0.05057 0.03219 0.39981 0.04600
C 	C 	0.07163 0.03628 0.43244 -0.11700
C 	C 	0.98713 0.98578 0.25800 0.02700
C 	C 	0.97691 0.98472 0.22634 -0.09200
H 	H 	0.96739 0.86462 0.32771 0.05000
H 	H 	0.98934 0.88322 0.38821 0.02600
H 	H 	0.05798 0.14888 0.32911 0.02600
H 	H 	0.03603 0.13026 0.26861 0.04800
C 	C 	0.27469 0.31875 0.67096 -0.02800
C 	C 	0.17380 0.26602 0.65978 -0.10000
C 	C 	0.12467 0.27695 0.67127 0.08700
C 	C 	0.17506 0.35569 0.68187 -0.07300
C 	C 	0.27500 0.41543 0.68769 -0.02900
C 	C 	0.32500 0.38817 0.68844 0.04500
C 	C 	0.42901 0.42806 0.70983 -0.18000
H 	H 	0.31398 0.30662 0.66597 0.04100
H 	H 	0.13614 0.36988 0.68575 0.05100
C 	C 	0.02589 0.20004 0.67927 -0.19200
H 	H 	0.47631 0.47907 0.68925 0.06800
H 	H 	0.44075 0.37469 0.72579 0.06300
H 	H 	0.45022 0.45974 0.73138 0.07200
H 	H 	0.97139 0.17077 0.65425 0.03200
H 	H 	0.99815 0.22252 0.68618 0.06300
H 	H 	0.03060 0.14810 0.70508 0.07300
C 	C 	0.59291 0.74505 0.59652 -0.02300
C 	C 	0.64897 0.83674 0.59408 -0.10100
C 	C 	0.60530 0.86987 0.59325 0.08600
C 	C 	0.52860 0.81130 0.61100 -0.06700
C 	C 	0.48591 0.71887 0.62267 -0.03200
C 	C 	0.50665 0.68596 0.60830 0.04900
C 	C 	0.43268 0.59430 0.60018 -0.18000
H 	H 	0.61810 0.71939 0.59112 0.04700
H 	H 	0.50487 0.83767 0.61682 0.05300
C 	C 	0.64456 0.96764 0.57634 -0.15800
H 	H 	0.43422 0.59729 0.57260 0.06500
H 	H 	0.35859 0.56886 0.59706 0.07000
H 	H 	0.44861 0.54651 0.62371 0.06800
H 	H 	0.67578 0.99614 0.55191 0.08200
H 	H 	0.70055 0.00580 0.59884 0.02600
H 	H 	0.58615 0.97595 0.56485 0.06800
C 	C 	0.21836 0.64622 0.68727 -0.07100
C 	C 	0.25008 0.65351 0.66031 -0.02700
C 	C 	0.24049 0.70633 0.62247 0.04500
C 	C 	0.22279 0.76634 0.61497 -0.02000
C 	C 	0.17835 0.75175 0.63891 -0.10100
C 	C 	0.17727 0.69142 0.67601 0.08800
C 	C 	0.13170 0.67386 0.70308 -0.20100
H 	H 	0.22510 0.60584 0.71657 0.04900
H 	H 	0.22641 0.81339 0.58689 0.02500
C 	C 	0.24917 0.69933 0.58979 -0.17800
H 	H 	0.14580 0.63302 0.73221 0.06800
H 	H 	0.05254 0.63695 0.69129 0.07000
H 	H 	0.16150 0.73845 0.70650 0.08200
H 	H 	0.23319 0.63335 0.59592 0.07000
H 	H 	0.32287 0.75409 0.58488 0.06900
H 	H 	0.19685 0.70574 0.56269 0.06000
C 	C 	0.17911 0.34406 0.17522 -0.07400
C 	C 	0.17595 0.41842 0.15249 -0.02800
C 	C 	0.15159 0.43555 0.11178 0.04300
C 	C 	0.13938 0.38345 0.09475 -0.01900
C 	C 	0.13688 0.30613 0.11726 -0.10900
C 	C 	0.16459 0.29064 0.15803 0.09400
C 	C 	0.18853 0.22401 0.18348 -0.20200
H 	H 	0.20174 0.33263 0.20646 0.04800
H 	H 	0.12155 0.39762 0.06348 0.03500
C 	C 	0.14654 0.51419 0.08639 -0.17800
H 	H 	0.15228 0.18096 0.20780 0.07200
H 	H 	0.26756 0.26091 0.19564 0.06900
H 	H 	0.16647 0.17969 0.16793 0.08100
H 	H 	0.22046 0.57745 0.08720 0.06700
H 	H 	0.10502 0.51654 0.09643 0.06600
H 	H 	0.11039 0.50944 0.05589 0.05800
C 	C 	0.54338 0.68762 0.18104 -0.07100
C 	C 	0.47169 0.70211 0.16083 -0.02700
C 	C 	0.47683 0.76320 0.12399 0.04600
C 	C 	0.55150 0.80582 0.10755 -0.01900
C 	C 	0.62522 0.79418 0.12852 -0.10900
C 	C 	0.61812 0.73069 0.16458 0.09800
C 	C 	0.69435 0.71389 0.18694 -0.20600
H 	H 	0.53862 0.63972 0.20903 0.05000
H 	H 	0.55709 0.85452 0.07977 0.04100
C 	C 	0.40547 0.78611 0.10285 -0.17900
H 	H 	0.67009 0.65184 0.21081 0.07000
H 	H 	0.76096 0.77149 0.19957 0.07500
H 	H 	0.71091 0.70524 0.16762 0.07900
H 	H 	0.41140 0.81781 0.12010 0.07000
H 	H 	0.33100 0.72474 0.09785 0.06700
H 	H 	0.41880 0.83402 0.07418 0.06500
C 	C 	0.10087 0.58365 0.17621 -0.07300
C 	C 	0.20165 0.63403 0.18424 -0.02800
C 	C 	0.25826 0.71899 0.19196 0.04600
C 	C 	0.21505 0.76173 0.18016 -0.02600
C 	C 	0.11553 0.71713 0.16468 -0.10300
C 	C 	0.05801 0.62367 0.16881 0.09000
C 	C 	0.95281 0.56585 0.16782 -0.19800
H 	H 	0.05583 0.51430 0.17522 0.05000
H 	H 	0.25978 0.83159 0.18043 0.04500
C 	C 	0.36209 0.76232 0.21415 -0.18100
H 	H 	0.94412 0.53730 0.19784 0.07100
H 	H 	0.91093 0.50965 0.15462 0.06500
H 	H 	0.92192 0.60468 0.15091 0.07400
H 	H 	0.40974 0.80673 0.19380 0.07200
H 	H 	0.37490 0.71085 0.23552 0.07400
H 	H 	0.38182 0.80393 0.23065 0.06800
C 	C 	0.92198 0.35479 0.51379 -0.07800
C 	C 	0.82559 0.31907 0.49345 -0.02600
C 	C 	0.77704 0.25237 0.47440 0.04000
C 	C 	0.81580 0.20697 0.48431 -0.02200
C 	C 	0.90559 0.23249 0.51042 -0.10700
C 	C 	0.96407 0.31474 0.52051 0.09800
C 	C 	0.07091 0.36169 0.53735 -0.21000
H 	H 	0.96324 0.41143 0.52560 0.05400
H 	H 	0.77307 0.14790 0.47393 0.03400
C 	C 	0.68264 0.22671 0.44489 -0.17600
H 	H 	0.10975 0.43243 0.52017 0.07000
H 	H 	0.09818 0.33043 0.53687 0.08500
H 	H 	0.08865 0.36228 0.56752 0.08100
H 	H 	0.67766 0.28431 0.42985 0.06600
H 	H 	0.62202 0.16967 0.45929 0.06300
H 	H 	0.67563 0.20596 0.42250 0.05800
C 	C 	0.82894 0.52440 0.55042 -0.07100
C 	C 	0.80974 0.52212 0.51298 -0.02900
C 	C 	0.80599 0.59063 0.48115 0.04500
C 	C 	0.81958 0.65906 0.48725 -0.02600
C 	C 	0.84223 0.66308 0.52488 -0.10200
C 	C 	0.83729 0.59002 0.55626 0.09600
C 	C 	0.83392 0.57786 0.59519 -0.20100
H 	H 	0.82865 0.47016 0.57475 0.05100
H 	H 	0.81859 0.71259 0.46281 0.04700
C 	C 	0.78340 0.58893 0.44051 -0.18100
H 	H 	0.80755 0.50825 0.61325 0.06800
H 	H 	0.78353 0.59001 0.59158 0.08200
H 	H 	0.90670 0.62430 0.61111 0.07800
H 	H 	0.70615 0.53462 0.43170 0.06700
H 	H 	0.82849 0.57681 0.43893 0.07000
H 	H 	0.79823 0.65374 0.41954 0.06500
C 	C 	0.38487 0.16394 0.51879 -0.02500
C 	C 	0.38235 0.10049 0.55415 -0.10800
C 	C 	0.45735 0.08958 0.57245 0.09700
C 	C 	0.53410 0.14333 0.55507 -0.07900
C 	C 	0.53848 0.20960 0.52061 -0.03100
C 	C 	0.45993 0.21535 0.50095 0.04600
C 	C 	0.45788 0.27912 0.46170 -0.18100
H 	H 	0.32653 0.17121 0.50451 0.03700
H 	H 	0.59336 0.13732 0.56956 0.04500
C 	C 	0.45574 0.02062 0.61023 -0.24700
H 	H 	0.38263 0.25546 0.44521 0.06500
H 	H 	0.49136 0.28400 0.44432 0.06500
H 	H 	0.49743 0.34679 0.46515 0.07100
H 	H 	0.40744 0.95332 0.60460 0.10900
H 	H 	0.43037 0.01890 0.62994 0.08100
H 	H 	0.52880 0.03638 0.62545 0.06800
C 	C 	0.88108 0.27628 0.00183 -0.03400
C 	C 	0.81355 0.18834 0.99712 -0.09700
C 	C 	0.71879 0.15961 0.97557 0.08600
C 	C 	0.68839 0.21175 0.96614 -0.07000
C 	C 	0.75099 0.29057 0.97905 -0.03100
C 	C 	0.85081 0.32862 0.99243 0.04900
C 	C 	0.92514 0.42432 0.99589 -0.17800
H 	H 	0.95618 0.30196 0.01499 0.04800
H 	H 	0.61373 0.18683 0.95190 0.04800
C 	C 	0.64775 0.07024 0.96548 -0.19600
H 	H 	0.99774 0.44901 0.99736 0.06200
H 	H 	0.92851 0.42890 0.02262 0.06400
H 	H 	0.90803 0.46934 0.97015 0.07300
H 	H 	0.61539 0.01609 0.99034 0.06700
H 	H 	0.68387 0.05654 0.95835 0.06900
H 	H 	0.58920 0.06932 0.93986 0.06000
C 	C 	0.84473 0.58410 0.05560 -0.02700
C 	C 	0.82552 0.64703 0.02876 -0.10400
C 	C 	0.77544 0.63879 0.99028 0.09600
C 	C 	0.75286 0.57263 0.97860 -0.06900
C 	C 	0.77322 0.51036 0.00537 -0.03400
C 	C 	0.82256 0.51816 0.04393 0.04700
C 	C 	0.84692 0.45309 0.07329 -0.18100
H 	H 	0.88367 0.59071 0.08499 0.04200
H 	H 	0.71414 0.56624 0.94909 0.04900
C 	C 	0.75052 0.70348 0.96102 -0.20400
H 	H 	0.90206 0.47873 0.09928 0.06100
H 	H 	0.87682 0.44269 0.06079 0.06600
H 	H 	0.78107 0.38767 0.08244 0.06700
H 	H 	0.72996 0.72102 0.97465 0.08100
H 	H 	0.68855 0.67350 0.93701 0.07200
H 	H 	0.81347 0.76566 0.94875 0.08500
C 	C 	0.34462 0.16255 0.02083 -0.02200
C 	C 	0.35003 0.10577 0.05773 -0.11000
C 	C 	0.42808 0.09933 0.07512 0.09600
C 	C 	0.49694 0.14686 0.05447 -0.08000
C 	C 	0.49193 0.20444 0.01780 -0.02900
C 	C 	0.41239 0.20850 0.00001 0.04300
C 	C 	0.40150 0.26460 0.95935 -0.17800
H 	H 	0.28477 0.16751 0.00754 0.03400
H 	H 	0.55784 0.14337 0.06793 0.04500
C 	C 	0.43820 0.04176 0.11550 -0.24600
H 	H 	0.32507 0.24025 0.94576 0.06400
H 	H 	0.42524 0.26092 0.94095 0.06700
H 	H 	0.44534 0.33562 0.95988 0.07200
H 	H 	0.39248 0.97074 0.11452 0.10500
H 	H 	0.41666 0.04615 0.13453 0.07700
H 	H 	0.51403 0.06411 0.12883 0.06600
