data_crystal

_cell_length_a 34.84081
_cell_length_b 35.95837
_cell_length_c 39.54027
_cell_angle_alpha 95.54201
_cell_angle_beta  95.54796
_cell_angle_gamma 125.37351

_symmetry_space_group_name_	'P 1'
_symmetry_space_group_name_H-M	'P 1'

loop_
_symmetry_equiv_pos_as_xyz
  x,y,z

loop_
_atom_site_label
_atom_site_type_symbol
_atom_site_fract_x
_atom_site_fract_y
_atom_site_fract_z
_atom_site_charge
C 	C 	0.96786 0.01908 0.98830 0.11800
N 	N 	0.93981 0.97201 0.98414 -0.14300
C 	C 	0.95864 0.94847 0.97775 0.11800
N 	N 	0.00562 0.97211 0.97546 -0.14200
C 	C 	0.03384 0.01914 0.97959 0.12000
N 	N 	0.01491 0.04259 0.98603 -0.14000
C 	C 	0.95231 0.99003 0.45555 0.11500
N 	N 	0.92708 0.94354 0.45473 -0.14000
C 	C 	0.95003 0.92323 0.45531 0.11900
N 	N 	0.99816 0.94948 0.45681 -0.14200
C 	C 	0.02349 0.99591 0.45787 0.11900
N 	N 	0.00049 0.01609 0.45718 -0.13900
Cu	Cu	0.65005 0.27059 0.00063 0.92800
Cu	Cu	0.70236 0.27709 0.93477 0.86600
Cu	Cu	0.67969 0.34261 0.95450 0.89600
Cu	Cu	0.64898 0.35709 0.01889 0.89300
C 	C 	0.65549 0.30558 0.07055 0.29000
O 	O 	0.57972 0.24459 0.99403 -0.36200
C 	C 	0.68433 0.31800 0.88265 0.28600
O 	O 	0.68934 0.34293 0.00323 -0.64000
O 	O 	0.65076 0.27532 0.95133 -0.64200
O 	O 	0.67851 0.23610 0.00352 -0.37400
O 	O 	0.73921 0.28646 0.97759 -0.44300
O 	O 	0.63345 0.32258 0.05796 -0.38600
O 	O 	0.71227 0.40895 0.95961 -0.38800
C 	C 	0.70331 0.43387 0.97940 0.29600
C 	C 	0.56319 0.26441 0.97792 0.28300
O 	O 	0.59279 0.30815 0.97507 -0.39900
O 	O 	0.68295 0.41997 0.00664 -0.39700
O 	O 	0.65992 0.27755 0.05007 -0.36200
C 	C 	0.72138 0.25405 0.99646 0.29300
O 	O 	0.67479 0.34070 0.90443 -0.38100
O 	O 	0.68180 0.28159 0.88966 -0.41900
H 	H 	0.72322 0.36346 0.01531 0.16400
H 	H 	0.61937 0.25450 0.93541 0.17400
Cu	Cu	0.73167 0.33347 0.45506 0.92800
Cu	Cu	0.73208 0.29310 0.52590 0.87000
Cu	Cu	0.65848 0.30696 0.50228 0.89600
Cu	Cu	0.64486 0.33786 0.43721 0.89400
C 	C 	0.69535 0.32656 0.38434 0.29000
O 	O 	0.76228 0.40225 0.45838 -0.36400
C 	C 	0.69474 0.31877 0.57661 0.28900
O 	O 	0.65781 0.29813 0.45360 -0.64100
O 	O 	0.72856 0.33753 0.50484 -0.64100
O 	O 	0.76358 0.30195 0.45329 -0.37400
O 	O 	0.71509 0.25007 0.48533 -0.44200
O 	O 	0.67656 0.34728 0.39602 -0.38700
O 	O 	0.58973 0.27388 0.49622 -0.38200
C 	C 	0.56368 0.27915 0.47336 0.29000
C 	C 	0.74361 0.42134 0.47280 0.28300
O 	O 	0.69952 0.39472 0.47820 -0.39300
O 	O 	0.58381 0.31226 0.45476 -0.39600
O 	O 	0.72185 0.32010 0.40562 -0.36300
C 	C 	0.74432 0.26183 0.46327 0.28900
O 	O 	0.65798 0.30485 0.55204 -0.38800
O 	O 	0.73236 0.32164 0.56919 -0.42100
H 	H 	0.63610 0.26536 0.44141 0.16300
H 	H 	0.74915 0.36934 0.51885 0.17300
C 	C 	0.69098 0.32559 0.61335 -0.09300
C 	C 	0.65636 0.33119 0.62252 0.01900
C 	C 	0.65089 0.33456 0.65705 -0.07600
C 	C 	0.68037 0.33307 0.68280 0.04600
C 	C 	0.71525 0.32792 0.67371 -0.07700
C 	C 	0.72075 0.32453 0.63929 0.01700
C 	C 	0.67175 0.33263 0.71871 -0.05300
C 	C 	0.70848 0.35841 0.74568 -0.05400
C 	C 	0.70203 0.34837 0.78085 0.04700
C 	C 	0.73000 0.33748 0.79869 -0.07800
C 	C 	0.72398 0.32739 0.83183 0.01800
C 	C 	0.69045 0.32885 0.84773 -0.09300
C 	C 	0.66303 0.34066 0.83015 0.02200
C 	C 	0.66876 0.35033 0.79678 -0.07700
H 	H 	0.63342 0.33254 0.60293 0.03500
H 	H 	0.62357 0.33809 0.66375 0.04800
H 	H 	0.73732 0.32537 0.69319 0.04600
H 	H 	0.74738 0.31991 0.63272 0.02600
H 	H 	0.63534 0.30945 0.72316 0.04300
H 	H 	0.74465 0.38260 0.74112 0.04200
H 	H 	0.75607 0.33633 0.78670 0.04500
H 	H 	0.74565 0.31877 0.84529 0.01700
H 	H 	0.63701 0.34189 0.84213 0.03400
H 	H 	0.64748 0.35941 0.78339 0.04900
C 	C 	0.66436 0.30878 0.10832 -0.09000
C 	C 	0.67705 0.34861 0.13059 0.01900
C 	C 	0.67968 0.34979 0.16618 -0.07700
C 	C 	0.67031 0.31147 0.17999 0.04700
C 	C 	0.65941 0.27222 0.15796 -0.07500
C 	C 	0.65659 0.27092 0.12225 0.02200
C 	C 	0.66707 0.31093 0.21689 -0.05300
C 	C 	0.69346 0.30321 0.23791 -0.05300
C 	C 	0.69566 0.30995 0.27574 0.04700
C 	C 	0.68989 0.27606 0.29410 -0.07500
C 	C 	0.69038 0.28169 0.32972 0.01800
C 	C 	0.69682 0.32136 0.34720 -0.08800
C 	C 	0.70433 0.35600 0.32901 0.02000
C 	C 	0.70419 0.35054 0.29356 -0.07600
H 	H 	0.68385 0.37830 0.12023 0.02100
H 	H 	0.68819 0.38024 0.18300 0.04700
H 	H 	0.65161 0.24221 0.16832 0.05000
H 	H 	0.64673 0.23993 0.10540 0.03900
H 	H 	0.64621 0.32115 0.22764 0.04300
H 	H 	0.71347 0.29191 0.22722 0.04400
H 	H 	0.68421 0.24504 0.28071 0.04800
H 	H 	0.68502 0.25494 0.34358 0.03100
H 	H 	0.71059 0.38732 0.34239 0.03300
H 	H 	0.71063 0.37782 0.27991 0.04800
C 	C 	0.76878 0.47211 0.47734 -0.09200
C 	C 	0.75442 0.49379 0.49870 0.01500
C 	C 	0.77284 0.54023 0.49881 -0.07300
C 	C 	0.80595 0.56542 0.47780 0.04400
C 	C 	0.82225 0.54469 0.45788 -0.07300
C 	C 	0.80385 0.49826 0.45766 0.01700
C 	C 	0.82113 0.61160 0.47511 -0.03200
C 	C 	0.83426 0.65027 0.47250 -0.00000
C 	C 	0.84993 0.69545 0.46875 -0.00500
C 	C 	0.86392 0.73404 0.46506 -0.02500
C 	C 	0.88174 0.78027 0.46019 0.03100
C 	C 	0.86991 0.80567 0.47981 -0.05500
C 	C 	0.89043 0.85189 0.47701 -0.01600
C 	C 	0.92311 0.87299 0.45470 -0.02500
C 	C 	0.93343 0.84686 0.43416 -0.01500
C 	C 	0.91282 0.80071 0.43692 -0.05500
H 	H 	0.72816 0.47441 0.51457 0.03000
H 	H 	0.76054 0.55624 0.51463 0.04900
H 	H 	0.84823 0.56414 0.44183 0.05000
H 	H 	0.81558 0.48223 0.44123 0.03700
H 	H 	0.84567 0.78998 0.49772 0.04600
H 	H 	0.88220 0.87169 0.49301 0.03900
H 	H 	0.95814 0.86260 0.41656 0.03900
H 	H 	0.92178 0.78114 0.42145 0.04600
C 	C 	0.92767 0.01234 0.45489 -0.02100
C 	C 	0.88261 0.99013 0.43356 -0.02000
C 	C 	0.86101 0.01290 0.43113 -0.05100
C 	C 	0.88422 0.05789 0.45005 0.02900
C 	C 	0.92867 0.07972 0.47185 -0.05300
C 	C 	0.95032 0.05708 0.47430 -0.01700
C 	C 	0.86277 0.08198 0.44691 -0.02400
C 	C 	0.84571 0.10301 0.44482 -0.00600
C 	C 	0.82652 0.12840 0.44313 -0.00000
C 	C 	0.81058 0.15052 0.44244 -0.03300
C 	C 	0.79188 0.17728 0.44264 0.04500
C 	C 	0.82218 0.22479 0.44174 -0.07500
C 	C 	0.80587 0.25214 0.44661 0.01800
C 	C 	0.75916 0.23213 0.45262 -0.09900
C 	C 	0.72814 0.18405 0.45170 0.01700
C 	C 	0.74451 0.15680 0.44680 -0.07600
H 	H 	0.86483 0.95572 0.41833 0.04100
H 	H 	0.82653 0.99574 0.41432 0.04400
H 	H 	0.94664 0.11436 0.48673 0.04500
H 	H 	0.98479 0.07439 0.49116 0.04000
H 	H 	0.85879 0.24082 0.43832 0.04900
H 	H 	0.83014 0.28911 0.44707 0.03200
H 	H 	0.69174 0.16799 0.45563 0.02700
H 	H 	0.72075 0.12001 0.44721 0.04800
C 	C 	0.51164 0.25248 0.47261 -0.09000
C 	C 	0.48601 0.20757 0.48028 0.01800
C 	C 	0.43661 0.18211 0.47920 -0.07300
C 	C 	0.41249 0.20129 0.47047 0.04600
C 	C 	0.43792 0.24610 0.46292 -0.07400
C 	C 	0.48730 0.27164 0.46398 0.01800
C 	C 	0.36158 0.17488 0.46906 -0.03200
C 	C 	0.31896 0.15274 0.46789 0.00000
C 	C 	0.26905 0.12673 0.46648 -0.00500
C 	C 	0.22641 0.10442 0.46527 -0.02500
C 	C 	0.17546 0.07758 0.46382 0.03200
C 	C 	0.15265 0.03956 0.48061 -0.05500
C 	C 	0.10309 0.01305 0.47886 -0.01400
C 	C 	0.07592 0.02438 0.46021 -0.02400
C 	C 	0.09899 0.06273 0.44356 -0.01500
C 	C 	0.14858 0.08919 0.44538 -0.05500
H 	H 	0.50421 0.19221 0.48673 0.03000
H 	H 	0.41712 0.14743 0.48503 0.04900
H 	H 	0.41948 0.26117 0.45623 0.05000
H 	H 	0.50662 0.30640 0.45835 0.03300
H 	H 	0.17327 0.03048 0.49500 0.04600
H 	H 	0.08588 0.98390 0.49214 0.04000
H 	H 	0.07847 0.07168 0.42889 0.04100
H 	H 	0.16603 0.11855 0.43230 0.04600
C 	C 	0.92843 0.89745 0.97385 -0.02500
C 	C 	0.89321 0.87504 0.99422 -0.01500
C 	C 	0.86683 0.82698 0.99210 -0.05400
C 	C 	0.87538 0.80102 0.96962 0.03100
C 	C 	0.90962 0.82308 0.94867 -0.05500
C 	C 	0.93604 0.87109 0.95073 -0.01500
C 	C 	0.85064 0.75212 0.96918 -0.02500
C 	C 	0.83011 0.71117 0.96864 -0.00500
C 	C 	0.80673 0.66338 0.96830 0.00000
C 	C 	0.78723 0.62269 0.96835 -0.03200
C 	C 	0.76440 0.57427 0.96891 0.04600
C 	C 	0.72188 0.54863 0.98183 -0.07400
C 	C 	0.70135 0.50246 0.98454 0.01900
C 	C 	0.72333 0.48161 0.97442 -0.09100
C 	C 	0.76539 0.50713 0.96070 0.02000
C 	C 	0.78583 0.55331 0.95802 -0.07400
H 	H 	0.88705 0.89493 0.01223 0.03800
H 	H 	0.84032 0.81009 0.00834 0.04500
H 	H 	0.91623 0.80315 0.93111 0.04600
H 	H 	0.96260 0.88782 0.93452 0.04000
H 	H 	0.70502 0.56460 0.99016 0.05000
H 	H 	0.66856 0.48300 0.99470 0.02900
H 	H 	0.78283 0.49160 0.95285 0.03200
H 	H 	0.81870 0.57296 0.94796 0.05000
C 	C 	0.94713 0.04451 0.99490 -0.02400
C 	C 	0.90998 0.02771 0.01392 -0.01500
C 	C 	0.88890 0.05065 0.01884 -0.05500
C 	C 	0.90480 0.09055 0.00488 0.03100
C 	C 	0.94243 0.10792 0.98647 -0.05400
C 	C 	0.96355 0.08504 0.98148 -0.01600
C 	C 	0.88120 0.11256 0.00818 -0.02500
C 	C 	0.86169 0.13125 0.01078 -0.00600
C 	C 	0.83866 0.15302 0.01309 -0.00000
C 	C 	0.81887 0.17154 0.01433 -0.03400
C 	C 	0.79516 0.19364 0.01480 0.04600
C 	C 	0.74544 0.16695 0.01289 -0.07600
C 	C 	0.72146 0.18721 0.00872 0.01900
C 	C 	0.74711 0.23433 0.00622 -0.10200
C 	C 	0.79726 0.26148 0.00993 0.01800
C 	C 	0.82113 0.24115 0.01413 -0.07600
H 	H 	0.89739 0.99687 0.02484 0.03800
H 	H 	0.85993 0.03712 0.03321 0.04600
H 	H 	0.95489 0.13879 0.97561 0.04500
H 	H 	0.99201 0.09831 0.96664 0.03900
H 	H 	0.72516 0.13022 0.01360 0.04900
H 	H 	0.68282 0.16586 0.00608 0.03100
H 	H 	0.81761 0.29806 0.00873 0.02700
H 	H 	0.85965 0.26209 0.01591 0.04800
C 	C 	0.08498 0.04457 0.97740 -0.02500
C 	C 	0.11099 0.02837 0.98961 -0.01200
C 	C 	0.15885 0.05121 0.98621 -0.05600
C 	C 	0.18116 0.09042 0.97066 0.03300
C 	C 	0.15555 0.10704 0.95879 -0.05500
C 	C 	0.10761 0.08424 0.96215 -0.01400
C 	C 	0.23040 0.11362 0.96705 -0.02500
C 	C 	0.27164 0.13243 0.96432 -0.00400
C 	C 	0.32009 0.15413 0.96180 0.00100
C 	C 	0.36166 0.17258 0.96035 -0.03100
C 	C 	0.41161 0.19471 0.95962 0.04600
C 	C 	0.43002 0.16893 0.96045 -0.07300
C 	C 	0.47946 0.19139 0.96454 0.01900
C 	C 	0.51091 0.23994 0.96809 -0.09100
C 	C 	0.49203 0.26533 0.96531 0.01700
C 	C 	0.44258 0.24276 0.96120 -0.07300
H 	H 	0.09417 0.99816 0.00177 0.03800
H 	H 	0.17855 0.03836 0.99563 0.04700
H 	H 	0.17265 0.13744 0.94682 0.04600
H 	H 	0.08792 0.09696 0.95244 0.03900
H 	H 	0.40619 0.13167 0.95888 0.05000
H 	H 	0.49335 0.17119 0.96581 0.03200
H 	H 	0.51568 0.30271 0.96764 0.02800
H 	H 	0.42852 0.26285 0.96030 0.04900
