data_crystal

_cell_length_a 26.26032
_cell_length_b 26.46643
_cell_length_c 26.57043
_cell_angle_alpha 95.48537
_cell_angle_beta  95.48331
_cell_angle_gamma 125.84708

_symmetry_space_group_name_	'P 1'
_symmetry_space_group_name_H-M	'P 1'

loop_
_symmetry_equiv_pos_as_xyz
  x,y,z

loop_
_atom_site_label
_atom_site_type_symbol
_atom_site_fract_x
_atom_site_fract_y
_atom_site_fract_z
_atom_site_charge
C 	C 	0.00031 0.05578 0.99657 0.13200
N 	N 	0.06494 0.09206 0.00160 -0.12200
C 	C 	0.09459 0.06405 0.99751 0.11800
N 	N 	0.05960 0.99985 0.98884 -0.12200
C 	C 	0.99516 0.96362 0.98461 0.13500
N 	N 	0.96546 0.99157 0.98827 -0.12700
C 	C 	0.90715 0.97401 0.45173 0.15300
N 	N 	0.87495 0.91306 0.45892 -0.13300
C 	C 	0.90508 0.88533 0.46125 0.13800
N 	N 	0.96777 0.91919 0.45748 -0.13600
C 	C 	0.00054 0.98076 0.45225 0.15800
N 	N 	0.97013 0.00803 0.44900 -0.14700
Cu	Cu	0.67435 0.27341 0.00882 0.93200
Cu	Cu	0.69902 0.25045 0.89288 0.87800
Cu	Cu	0.70608 0.36420 0.93357 0.90000
Cu	Cu	0.69393 0.40304 0.04084 0.90400
C 	C 	0.69164 0.32280 0.11372 0.28300
O 	O 	0.58520 0.24234 0.01703 -0.35800
C 	C 	0.66486 0.30497 0.82259 0.28300
O 	O 	0.73076 0.37075 0.00533 -0.63500
O 	O 	0.65520 0.27122 0.93456 -0.64200
O 	O 	0.70690 0.22182 0.00563 -0.35200
O 	O 	0.76599 0.27022 0.94508 -0.42600
O 	O 	0.70609 0.37854 0.10743 -0.36300
O 	O 	0.76050 0.45510 0.93767 -0.36800
C 	C 	0.76109 0.49565 0.97125 0.28900
C 	C 	0.56263 0.27370 0.00580 0.29300
O 	O 	0.60007 0.33003 0.99408 -0.38200
O 	O 	0.72284 0.47642 0.00527 -0.36900
O 	O 	0.70346 0.29148 0.08131 -0.35100
C 	C 	0.75362 0.23615 0.98120 0.28900
O 	O 	0.69533 0.35734 0.85804 -0.37500
O 	O 	0.65278 0.25194 0.83388 -0.40500
H 	H 	0.77749 0.39488 0.01693 0.18000
H 	H 	0.60923 0.24798 0.92010 0.18400
Cu	Cu	0.70026 0.30794 0.42611 0.93100
Cu	Cu	0.70857 0.26436 0.53637 0.87900
Cu	Cu	0.60240 0.27035 0.49610 0.90100
Cu	Cu	0.57837 0.30169 0.39507 0.90100
C 	C 	0.65198 0.29247 0.31924 0.28900
O 	O 	0.73518 0.39963 0.42710 -0.35100
C 	C 	0.65349 0.29663 0.60770 0.28600
O 	O 	0.60133 0.25412 0.42398 -0.64000
O 	O 	0.69658 0.31729 0.50001 -0.63900
O 	O 	0.74864 0.27146 0.42726 -0.35700
O 	O 	0.68956 0.20355 0.47932 -0.42600
O 	O 	0.62134 0.31526 0.33421 -0.37200
O 	O 	0.51028 0.22063 0.48731 -0.36800
C 	C 	0.47284 0.22403 0.45310 0.29500
C 	C 	0.70702 0.42303 0.44609 0.28500
O 	O 	0.64810 0.38453 0.45359 -0.37900
O 	O 	0.49567 0.26284 0.41974 -0.37700
O 	O 	0.68737 0.28594 0.35287 -0.35300
C 	C 	0.72824 0.21996 0.44626 0.29200
O 	O 	0.60301 0.27142 0.57076 -0.37200
O 	O 	0.70609 0.30532 0.59796 -0.40700
H 	H 	0.57458 0.20858 0.40794 0.17700
H 	H 	0.72182 0.36169 0.51871 0.18200
C 	C 	0.60090 0.25558 0.73344 -0.00700
C 	C 	0.65366 0.30869 0.76811 -0.06100
C 	C 	0.70008 0.36229 0.74935 -0.00800
C 	C 	0.69709 0.36036 0.69633 -0.00500
C 	C 	0.64735 0.30514 0.66166 -0.06100
C 	C 	0.59760 0.25396 0.68039 -0.00700
H 	H 	0.56390 0.21454 0.74748 0.04900
H 	H 	0.74050 0.40402 0.77570 0.05200
H 	H 	0.73513 0.40060 0.68223 0.04900
H 	H 	0.55847 0.21139 0.65394 0.04800
C 	C 	0.72674 0.31511 0.20107 -0.00000
C 	C 	0.67818 0.30418 0.16373 -0.05300
C 	C 	0.61850 0.28160 0.17615 -0.00600
C 	C 	0.60843 0.27326 0.22632 -0.00300
C 	C 	0.65833 0.28828 0.26473 -0.05500
C 	C 	0.71692 0.30721 0.25145 -0.00200
H 	H 	0.77291 0.33222 0.19165 0.05500
H 	H 	0.58050 0.27232 0.14729 0.04600
H 	H 	0.56260 0.25738 0.23579 0.04600
H 	H 	0.75579 0.31870 0.28056 0.06000
C 	C 	0.78241 0.70571 0.43723 -0.02400
C 	C 	0.81424 0.68948 0.46993 0.01500
C 	C 	0.87135 0.73772 0.50440 -0.02400
C 	C 	0.89699 0.80185 0.50539 -0.00200
C 	C 	0.86985 0.81827 0.46791 -0.01400
C 	C 	0.81171 0.76986 0.43424 -0.00200
C 	C 	0.78995 0.62183 0.46540 0.02600
C 	C 	0.90450 0.72140 0.53793 0.10200
C 	C 	0.78363 0.78573 0.39503 0.10300
C 	C 	0.79783 0.59253 0.42281 -0.03800
C 	C 	0.76935 0.52714 0.41563 0.02300
C 	C 	0.73929 0.49240 0.45421 -0.07600
C 	C 	0.73658 0.52336 0.49912 0.02300
C 	C 	0.75844 0.58685 0.50323 -0.03700
C 	C 	0.83509 0.62974 0.38629 0.10400
C 	C 	0.71327 0.49060 0.54171 0.08300
C 	C 	0.76806 0.49511 0.36749 0.09300
C 	C 	0.74776 0.61592 0.54590 0.10600
C 	C 	0.72002 0.65626 0.40614 0.10200
C 	C 	0.95016 0.85073 0.54568 0.10300
N 	N 	0.76700 0.46958 0.32908 -0.09900
N 	N 	0.86481 0.65949 0.35718 -0.10200
N 	N 	0.69470 0.46443 0.57568 -0.10900
N 	N 	0.73928 0.63918 0.57994 -0.10100
N 	N 	0.93090 0.70831 0.56466 -0.10200
N 	N 	0.99257 0.88963 0.57788 -0.09400
N 	N 	0.76125 0.79839 0.36374 -0.09500
N 	N 	0.67023 0.61675 0.38134 -0.10100
C 	C 	0.84179 0.17569 0.44454 -0.03800
C 	C 	0.79798 0.10908 0.43017 0.02400
C 	C 	0.73240 0.08017 0.41388 -0.03500
C 	C 	0.71024 0.11752 0.41490 0.02300
C 	C 	0.75323 0.18345 0.43415 -0.08200
C 	C 	0.81943 0.21284 0.44728 0.02100
C 	C 	0.82065 0.06918 0.43455 0.01500
C 	C 	0.68772 0.01194 0.39688 0.09300
C 	C 	0.86422 0.28091 0.46537 0.07800
C 	C 	0.82807 0.05279 0.48229 -0.02800
C 	C 	0.85509 0.02021 0.48772 0.00400
C 	C 	0.87328 0.00265 0.44508 -0.02700
C 	C 	0.86194 0.01539 0.39655 -0.00900
C 	C 	0.83672 0.04963 0.39149 -0.02200
C 	C 	0.80839 0.06999 0.52584 0.09800
C 	C 	0.87537 0.99241 0.35176 0.11500
C 	C 	0.86541 0.00591 0.53736 0.08400
C 	C 	0.82790 0.06538 0.34219 0.10000
C 	C 	0.90976 0.20577 0.45730 0.10300
C 	C 	0.64336 0.08830 0.39583 0.08600
N 	N 	0.87368 0.99447 0.57695 -0.08500
N 	N 	0.79265 0.08377 0.56055 -0.11000
N 	N 	0.88602 0.97402 0.31601 -0.09300
N 	N 	0.82083 0.07797 0.30287 -0.10000
N 	N 	0.65213 0.95748 0.38333 -0.09100
N 	N 	0.59000 0.06502 0.38062 -0.10400
N 	N 	0.89998 0.33520 0.47982 -0.10600
N 	N 	0.96398 0.22969 0.46747 -0.10300
C 	C 	0.15936 0.06048 0.40758 -0.02200
C 	C 	0.20228 0.08621 0.45508 0.01500
C 	C 	0.17902 0.07903 0.50160 -0.02500
C 	C 	0.11309 0.04693 0.50062 0.00100
C 	C 	0.06995 0.01898 0.45314 -0.02600
C 	C 	0.09312 0.02604 0.40661 -0.00900
C 	C 	0.27232 0.12176 0.45613 0.02400
C 	C 	0.22300 0.10450 0.55038 0.10200
C 	C 	0.04875 0.99752 0.35779 0.11400
C 	C 	0.31213 0.18859 0.46355 -0.03700
C 	C 	0.37834 0.22223 0.46502 0.02500
C 	C 	0.40436 0.18893 0.45610 -0.07300
C 	C 	0.36449 0.12202 0.44872 0.02100
C 	C 	0.29875 0.08857 0.44974 -0.03300
C 	C 	0.28478 0.22263 0.46942 0.10600
C 	C 	0.39080 0.08756 0.43888 0.08400
C 	C 	0.41996 0.29106 0.47713 0.09100
C 	C 	0.25819 0.02001 0.44413 0.09300
C 	C 	0.18348 0.06954 0.35982 0.10000
C 	C 	0.08971 0.04392 0.54837 0.09900
N 	N 	0.45318 0.34596 0.48680 -0.09900
N 	N 	0.26289 0.24972 0.47412 -0.10100
N 	N 	0.41182 0.06009 0.43102 -0.10600
N 	N 	0.22576 0.96531 0.43964 -0.09100
N 	N 	0.25815 0.12486 0.58928 -0.10200
N 	N 	0.07105 0.04165 0.58645 -0.09400
N 	N 	0.01336 0.97472 0.31884 -0.09100
N 	N 	0.20281 0.07680 0.32174 -0.10100
C 	C 	0.89538 0.66924 0.97674 -0.03500
C 	C 	0.86041 0.69235 0.96283 0.02600
C 	C 	0.79350 0.64972 0.94637 -0.03800
C 	C 	0.76124 0.58451 0.94645 0.02500
C 	C 	0.79570 0.56210 0.96412 -0.07300
C 	C 	0.86300 0.60414 0.97766 0.02200
C 	C 	0.89371 0.76204 0.96799 0.01000
C 	C 	0.75789 0.67320 0.93002 0.10600
C 	C 	0.89872 0.58061 0.99352 0.07600
C 	C 	0.91533 0.79187 0.92547 -0.02300
C 	C 	0.94682 0.85774 0.93048 -0.00100
C 	C 	0.95783 0.89403 0.97827 -0.01900
C 	C 	0.93585 0.86413 0.02070 0.00300
C 	C 	0.90331 0.79810 0.01543 -0.01900
C 	C 	0.90534 0.75473 0.87671 0.10200
C 	C 	0.94790 0.90158 0.07002 0.10400
C 	C 	0.96755 0.88821 0.88643 0.10200
C 	C 	0.87981 0.76714 0.05879 0.10400
C 	C 	0.96456 0.71263 0.99066 0.09500
C 	C 	0.69271 0.54034 0.92790 0.09000
N 	N 	0.98411 0.91259 0.85133 -0.09300
N 	N 	0.89732 0.72502 0.83783 -0.10100
N 	N 	0.95756 0.93148 0.10936 -0.08900
N 	N 	0.86104 0.74235 0.09334 -0.09900
N 	N 	0.72956 0.69201 0.91698 -0.10100
N 	N 	0.63803 0.50508 0.91311 -0.09900
N 	N 	0.92718 0.56180 0.00616 -0.09900
N 	N 	0.01977 0.74733 0.00177 -0.09200
C 	C 	0.92005 0.12631 0.04685 -0.02700
C 	C 	0.90104 0.13924 0.00136 0.02100
C 	C 	0.91670 0.12687 0.95471 -0.03200
C 	C 	0.94933 0.09954 0.95316 0.00100
C 	C 	0.96776 0.08603 0.99852 -0.02500
C 	C 	0.95381 0.10013 0.04549 0.00500
C 	C 	0.86260 0.16405 0.00215 0.02900
C 	C 	0.89888 0.14201 0.90830 0.10000
C 	C 	0.97417 0.08762 0.09234 0.09800
C 	C 	0.89358 0.23002 0.01315 -0.03900
C 	C 	0.85744 0.25359 0.00905 0.03200
C 	C 	0.79044 0.21126 0.99257 -0.08700
C 	C 	0.75923 0.14512 0.98390 0.02300
C 	C 	0.79529 0.12160 0.98938 -0.04100
C 	C 	0.96266 0.27356 0.02812 0.10300
C 	C 	0.69027 0.10135 0.96773 0.07600
C 	C 	0.88900 0.32126 0.02240 0.08600
C 	C 	0.76329 0.05372 0.98124 0.09200
C 	C 	0.90445 0.13959 0.09488 0.10400
C 	C 	0.96294 0.08422 0.90475 0.09700
N 	N 	0.91415 0.37525 0.03304 -0.10200
N 	N 	0.01779 0.30823 0.04005 -0.09800
N 	N 	0.63527 0.06643 0.95482 -0.10600
N 	N 	0.73784 0.99957 0.97476 -0.09200
N 	N 	0.88462 0.15412 0.87132 -0.10900
N 	N 	0.97372 0.07190 0.86613 -0.09500
N 	N 	0.99046 0.07766 0.12971 -0.09400
N 	N 	0.89196 0.15022 0.13318 -0.10000
C 	C 	0.38117 0.16099 0.97435 -0.04300
C 	C 	0.36542 0.19297 0.00729 0.03100
C 	C 	0.41436 0.25113 0.03993 -0.03900
C 	C 	0.47894 0.27656 0.04053 0.02500
C 	C 	0.49479 0.24558 0.00648 -0.07600
C 	C 	0.44579 0.18784 0.97323 0.02100
C 	C 	0.29699 0.16495 0.00787 0.01700
C 	C 	0.39814 0.28475 0.07284 0.10500
C 	C 	0.46183 0.15671 0.93722 0.08100
C 	C 	0.26631 0.12815 0.04503 -0.02200
C 	C 	0.20071 0.09858 0.04367 -0.00600
C 	C 	0.16501 0.10326 0.00370 -0.00100
C 	C 	0.19624 0.14203 0.96766 -0.01000
C 	C 	0.26244 0.17375 0.97037 -0.02600
C 	C 	0.30215 0.12015 0.08422 0.10000
C 	C 	0.16000 0.14786 0.92701 0.10300
C 	C 	0.17000 0.06392 0.08368 0.10200
C 	C 	0.29500 0.21500 0.93432 0.10100
C 	C 	0.33077 0.10041 0.94170 0.10400
C 	C 	0.52902 0.33348 0.07729 0.07200
N 	N 	0.14543 0.03625 0.11555 -0.09700
N 	N 	0.33083 0.11383 0.11547 -0.10500
N 	N 	0.13113 0.15255 0.89456 -0.09600
N 	N 	0.32106 0.24792 0.90559 -0.10100
N 	N 	0.38512 0.31151 0.09907 -0.10200
N 	N 	0.56901 0.37884 0.10662 -0.11300
N 	N 	0.47457 0.13183 0.90848 -0.11300
N 	N 	0.29050 0.05209 0.91568 -0.10500
