data_crystal

_cell_length_a 18.72150
_cell_length_b 18.74215
_cell_length_c 26.26981
_cell_angle_alpha 95.42491
_cell_angle_beta  95.42417
_cell_angle_gamma 126.42244

_symmetry_space_group_name_	'P 1'
_symmetry_space_group_name_H-M	'P 1'

loop_
_symmetry_equiv_pos_as_xyz
  x,y,z

loop_
_atom_site_label
_atom_site_type_symbol
_atom_site_fract_x
_atom_site_fract_y
_atom_site_fract_z
_atom_site_charge
C 	C 	0.95845 0.04517 0.00620 0.05900
C 	C 	0.05163 0.09526 0.00653 -0.10400
C 	C 	0.09310 0.05281 0.00888 0.06100
H 	H 	0.09104 0.16606 0.00380 0.05400
C 	C 	0.04057 0.01148 0.45538 0.02700
C 	C 	0.99674 0.05120 0.45825 -0.05700
H 	H 	0.03563 0.12398 0.46316 0.04300
Cu	Cu	0.61735 0.19837 0.00400 0.92500
Cu	Cu	0.67521 0.20578 0.88940 0.86900
Cu	Cu	0.67314 0.35020 0.94380 0.89900
C 	C 	0.65513 0.25818 0.11479 0.28000
O 	O 	0.48850 0.15045 0.00832 -0.36700
C 	C 	0.63445 0.29836 0.82833 0.28000
O 	O 	0.69765 0.33987 0.01400 -0.64200
O 	O 	0.60198 0.21602 0.93186 -0.64000
O 	O 	0.66924 0.13231 0.99256 -0.37500
O 	O 	0.76487 0.22804 0.94319 -0.44300
O 	O 	0.61906 0.29999 0.10663 -0.38600
C 	C 	0.45774 0.19494 0.99523 0.29400
O 	O 	0.51462 0.27936 0.99047 -0.39500
O 	O 	0.65095 0.20417 0.07637 -0.36400
C 	C 	0.74438 0.16998 0.97405 0.29800
O 	O 	0.66788 0.36249 0.86985 -0.38600
O 	O 	0.61686 0.22005 0.83232 -0.42100
H 	H 	0.53863 0.18346 0.91403 0.17000
Cu	Cu	0.74920 0.33703 0.44014 0.92600
Cu	Cu	0.75451 0.29699 0.55855 0.86900
Cu	Cu	0.60783 0.29826 0.50577 0.89600
Cu	Cu	0.56619 0.29961 0.39328 0.89400
C 	C 	0.68017 0.28198 0.32993 0.28600
C 	C 	0.66717 0.34347 0.62033 0.27700
O 	O 	0.60876 0.25320 0.43671 -0.63700
O 	O 	0.74096 0.36473 0.51276 -0.64100
O 	O 	0.82193 0.29227 0.45412 -0.37400
O 	O 	0.73150 0.20390 0.50774 -0.44200
O 	O 	0.63594 0.31536 0.33710 -0.39100
O 	O 	0.47750 0.22663 0.49690 -0.38800
C 	C 	0.42249 0.21815 0.45714 0.30000
O 	O 	0.44329 0.22642 0.41025 -0.39700
O 	O 	0.73647 0.29068 0.36876 -0.36300
C 	C 	0.79005 0.22269 0.47753 0.29900
O 	O 	0.60939 0.32956 0.58006 -0.37800
O 	O 	0.74482 0.36076 0.61469 -0.42200
H 	H 	0.57534 0.18698 0.42842 0.16600
C 	C 	0.63073 0.32002 0.77618 -0.07200
C 	C 	0.56058 0.25387 0.73513 -0.01300
C 	C 	0.56801 0.26601 0.68364 -0.01700
C 	C 	0.64632 0.34358 0.67284 -0.07200
H 	H 	0.50241 0.19132 0.74294 0.03300
H 	H 	0.51590 0.21237 0.65209 0.03100
C 	C 	0.75379 0.32295 0.20195 -0.01600
C 	C 	0.67438 0.25014 0.16841 -0.06600
C 	C 	0.60594 0.17808 0.18886 -0.00800
C 	C 	0.61244 0.18365 0.24277 -0.01500
C 	C 	0.68770 0.26100 0.27646 -0.06700
C 	C 	0.76073 0.32805 0.25587 -0.00700
H 	H 	0.54483 0.12088 0.16318 0.03900
H 	H 	0.55617 0.13089 0.25829 0.02700
C 	C 	0.86549 0.08178 0.50997 -0.09300
C 	C 	0.85922 0.04184 0.46023 -0.00500
C 	C 	0.83041 0.06205 0.41573 0.06200
C 	C 	0.81242 0.12503 0.42203 -0.02300
C 	C 	0.82246 0.16774 0.47186 -0.11200
C 	C 	0.85207 0.14798 0.51626 0.11700
N 	N 	0.87194 0.19534 0.56472 -0.20000
H 	H 	0.88826 0.06676 0.54397 0.05200
H 	H 	0.78861 0.13923 0.38806 0.04600
N 	N 	0.81954 0.02101 0.36700 -0.18900
H 	H 	0.88927 0.17735 0.59750 0.07300
H 	H 	0.87584 0.25356 0.57010 0.04700
H 	H 	0.80052 0.03791 0.33430 0.08300
C 	C 	0.17853 0.12795 0.42384 -0.09300
C 	C 	0.13979 0.06919 0.45911 -0.01100
C 	C 	0.19646 0.06888 0.49875 0.06100
C 	C 	0.28913 0.11856 0.49800 -0.02500
C 	C 	0.32758 0.17615 0.46199 -0.10900
C 	C 	0.27256 0.18669 0.42784 0.12300
N 	N 	0.30980 0.25616 0.40138 -0.20200
H 	H 	0.13565 0.13094 0.39477 0.05200
H 	H 	0.33135 0.11286 0.52580 0.04600
N 	N 	0.16309 0.02379 0.53840 -0.18900
H 	H 	0.26882 0.25992 0.37365 0.08000
H 	H 	0.37839 0.31080 0.41127 0.08300
H 	H 	0.20438 0.01977 0.56572 0.07900
C 	C 	0.90343 0.12917 0.03986 -0.09200
C 	C 	0.91189 0.08573 0.99704 -0.01500
C 	C 	0.86677 0.07190 0.94654 0.06300
C 	C 	0.81073 0.09819 0.94022 -0.02500
C 	C 	0.80086 0.14013 0.98308 -0.11300
C 	C 	0.84936 0.15789 0.03332 0.12400
N 	N 	0.84572 0.20369 0.07511 -0.20300
H 	H 	0.93845 0.14001 0.07845 0.05400
H 	H 	0.77504 0.08645 0.90165 0.02000
N 	N 	0.87711 0.03366 0.90402 -0.19300
H 	H 	0.87971 0.21415 0.11223 0.08500
H 	H 	0.81176 0.23179 0.07108 0.09400
H 	H 	0.92202 0.01782 0.90691 0.08500
H 	H 	0.84156 0.02144 0.86706 0.07600
C 	C 	0.21890 0.12044 0.95998 -0.07900
C 	C 	0.19033 0.10357 0.00782 -0.03200
C 	C 	0.25095 0.11923 0.05179 0.07100
C 	C 	0.33623 0.14394 0.04604 -0.03500
C 	C 	0.36377 0.15783 0.99782 -0.10400
C 	C 	0.30486 0.14659 0.95433 0.11600
N 	N 	0.32917 0.15802 0.90684 -0.20200
H 	H 	0.17237 0.10864 0.92636 0.04800
H 	H 	0.38250 0.15521 0.07965 0.04400
N 	N 	0.22791 0.11153 0.09966 -0.19500
H 	H 	0.28597 0.15136 0.87523 0.08000
H 	H 	0.38985 0.17128 0.90042 0.08100
H 	H 	0.16801 0.10032 0.10593 0.08500
H 	H 	0.27168 0.12005 0.13166 0.08000
C 	C 	0.04129 0.96061 0.01036 -0.11100
C 	C 	0.94870 0.91090 0.01021 0.05900
C 	C 	0.90776 0.95364 0.00959 -0.10500
H 	H 	0.07280 0.92724 0.01074 0.05700
H 	H 	0.83573 0.91475 0.00897 0.05700
C 	C 	0.90316 0.99770 0.45558 0.01700
C 	C 	0.85324 0.90380 0.45195 -0.07700
C 	C 	0.89710 0.86365 0.44919 0.03200
C 	C 	0.99008 0.91730 0.44882 -0.07300
H 	H 	0.78126 0.86255 0.45184 0.04800
H 	H 	0.02363 0.88622 0.44558 0.04600
Cu	Cu	0.63417 0.36971 0.05018 0.89300
O 	O 	0.74927 0.48013 0.96000 -0.38800
C 	C 	0.74845 0.52840 0.99963 0.30800
O 	O 	0.68900 0.49014 0.03060 -0.40100
H 	H 	0.76268 0.37492 0.02910 0.16000
O 	O 	0.78373 0.45917 0.42803 -0.36300
C 	C 	0.73650 0.48730 0.44084 0.28800
O 	O 	0.65217 0.42885 0.44635 -0.40100
H 	H 	0.77646 0.42981 0.52765 0.17100
C 	C 	0.70420 0.40189 0.76555 -0.01600
C 	C 	0.71227 0.41334 0.71404 -0.01200
H 	H 	0.75799 0.45421 0.79695 0.03700
H 	H 	0.77214 0.47437 0.70615 0.03400
H 	H 	0.80765 0.37833 0.18646 0.02500
H 	H 	0.81970 0.38760 0.28159 0.03900
C 	C 	0.81801 0.64271 0.49076 -0.02700
C 	C 	0.77446 0.58281 0.44280 -0.10800
C 	C 	0.76469 0.61399 0.39746 0.12100
C 	C 	0.80080 0.70526 0.40097 -0.09000
C 	C 	0.84668 0.76577 0.44866 -0.01500
C 	C 	0.85359 0.73387 0.49430 0.06300
N 	N 	0.89372 0.79011 0.54154 -0.19300
H 	H 	0.82390 0.61829 0.52555 0.03100
H 	H 	0.79534 0.72979 0.36615 0.05100
N 	N 	0.72152 0.55709 0.35049 -0.20400
H 	H 	0.90078 0.76668 0.57478 0.07800
H 	H 	0.91609 0.85672 0.54602 0.08200
H 	H 	0.69424 0.48907 0.34634 0.08800
H 	H 	0.71482 0.58080 0.31729 0.08100
H 	H 	0.82763 0.97050 0.36110 0.08000
H 	H 	0.09808 0.99746 0.54451 0.07500
C 	C 	0.79677 0.65931 0.95772 -0.02100
C 	C 	0.80179 0.62645 0.00264 -0.11600
C 	C 	0.85472 0.68745 0.05029 0.12000
C 	C 	0.89769 0.77981 0.05251 -0.08600
C 	C 	0.89371 0.81272 0.00745 -0.02700
C 	C 	0.84345 0.75206 0.95939 0.06900
N 	N 	0.84047 0.78239 0.91472 -0.19400
H 	H 	0.75619 0.61241 0.92127 0.04600
H 	H 	0.93745 0.82676 0.08904 0.05000
N 	N 	0.86745 0.65837 0.09334 -0.20200
H 	H 	0.80229 0.73680 0.87962 0.08000
H 	H 	0.87670 0.85112 0.91406 0.08300
H 	H 	0.84592 0.59233 0.09150 0.07500
H 	H 	0.90348 0.70337 0.12884 0.07900
