data_crystal

_cell_length_a 16.24145
_cell_length_b 13.86801
_cell_length_c 34.35982
_cell_angle_alpha 90.99495
_cell_angle_beta  91.29941
_cell_angle_gamma 111.18060

_symmetry_space_group_name_	'P 1'
_symmetry_space_group_name_H-M	'P 1'

loop_
_symmetry_equiv_pos_as_xyz
  x,y,z

loop_
_atom_site_label
_atom_site_type_symbol
_atom_site_fract_x
_atom_site_fract_y
_atom_site_fract_z
_atom_site_charge
Ni	Ni	0.73216 0.32166 0.87955 1.09900
O 	O 	0.62125 0.23196 0.84856 -0.70600
Ni	Ni	0.52824 0.26276 0.87741 1.10100
O 	O 	0.80986 0.27223 0.84415 -0.37300
O 	O 	0.72964 0.10164 0.85577 -0.40600
O 	O 	0.73470 0.43324 0.84073 -0.40300
Ni	Ni	0.59590 0.08450 0.85059 1.06200
O 	O 	0.77299 0.46927 0.96010 -0.41000
O 	O 	0.59466 0.08264 0.90999 -0.40900
O 	O 	0.42648 0.18273 0.84059 -0.37700
O 	O 	0.63734 0.33400 0.91298 -0.70100
O 	O 	0.84258 0.42253 0.90887 -0.37500
O 	O 	0.45018 0.33125 0.90409 -0.36200
O 	O 	0.55993 0.48657 0.90017 -0.41800
Ni	Ni	0.67152 0.48029 0.92793 1.07600
H 	H 	0.62144 0.25319 0.82119 0.15000
H 	H 	0.63529 0.29409 0.93676 0.16000
C 	C 	0.52784 0.08912 0.92902 0.28700
O 	O 	0.75663 0.56207 0.88671 -0.39600
C 	C 	0.79545 0.17285 0.83850 0.26900
C 	C 	0.41138 0.08501 0.83075 0.27700
C 	C 	0.75678 0.53157 0.85028 0.30500
C 	C 	0.48366 0.42996 0.91397 0.27600
C 	C 	0.84364 0.46007 0.94476 0.28900
O 	O 	0.48183 0.14277 0.91545 -0.36400
O 	O 	0.45942 0.03468 0.84660 -0.40600
Ni	Ni	0.57284 0.31034 0.56625 1.10000
O 	O 	0.67716 0.33951 0.52982 -0.69600
Ni	Ni	0.76291 0.30008 0.56244 1.10000
O 	O 	0.51513 0.39737 0.53623 -0.37200
O 	O 	0.64592 0.53126 0.53839 -0.41400
O 	O 	0.49997 0.18223 0.53210 -0.36600
Ni	Ni	0.73689 0.48106 0.51232 1.07400
O 	O 	0.46737 0.10295 0.60511 -0.40700
O 	O 	0.83710 0.55888 0.55256 -0.39200
O 	O 	0.87594 0.35407 0.52964 -0.37500
O 	O 	0.65391 0.25813 0.59661 -0.69900
O 	O 	0.47220 0.27071 0.60421 -0.38300
O 	O 	0.82697 0.23728 0.60062 -0.37600
O 	O 	0.71297 0.08051 0.59859 -0.40600
Ni	Ni	0.59569 0.10947 0.60145 1.06300
H 	H 	0.65986 0.29283 0.50654 0.15800
H 	H 	0.66724 0.29229 0.62274 0.14800
C 	C 	0.85752 0.51944 0.58437 0.31200
O 	O 	0.58464 0.08399 0.54298 -0.41100
C 	C 	0.56356 0.49096 0.52583 0.27200
C 	C 	0.88577 0.41498 0.49924 0.29400
C 	C 	0.52929 0.10935 0.52096 0.28300
C 	C 	0.78989 0.14289 0.61347 0.27600
C 	C 	0.44319 0.17798 0.61938 0.27500
O 	O 	0.80464 0.43069 0.59649 -0.41300
O 	O 	0.81799 0.42922 0.48223 -0.41700
Ni	Ni	0.01067 0.97557 0.76691 1.09800
O 	O 	0.00407 0.86692 0.72480 -0.70600
Ni	Ni	0.05274 0.95849 0.67994 1.09700
O 	O 	0.95674 0.86433 0.80731 -0.37000
O 	O 	0.83824 0.77678 0.76680 -0.41400
O 	O 	0.13505 0.97673 0.78111 -0.38800
Ni	Ni	0.88380 0.77841 0.71033 1.06200
O 	O 	0.06435 0.23921 0.76821 -0.40300
O 	O 	0.84313 0.89895 0.69964 -0.42500
O 	O 	0.05076 0.84455 0.64130 -0.37500
O 	O 	0.04191 0.06294 0.71987 -0.69100
O 	O 	0.02275 0.09343 0.80597 -0.36300
O 	O 	0.13434 0.07074 0.64535 -0.37400
O 	O 	0.22822 0.15248 0.69656 -0.41500
Ni	Ni	0.14087 0.19181 0.73169 1.07000
H 	H 	0.04101 0.82584 0.73136 0.15600
H 	H 	0.99109 0.08330 0.71322 0.13700
C 	C 	0.86820 0.95632 0.66898 0.29200
O 	O 	0.19549 0.15158 0.77943 -0.39300
C 	C 	0.88700 0.78056 0.79851 0.27500
C 	C 	0.97730 0.76211 0.63702 0.27400
C 	C 	0.20492 0.06223 0.78075 0.31000
C 	C 	0.21358 0.13045 0.65882 0.26800
C 	C 	0.01191 0.17891 0.79431 0.29000
O 	O 	0.94147 0.96362 0.65135 -0.37000
O 	O 	0.90294 0.76200 0.65226 -0.40400
Ni	Ni	0.22898 0.68557 0.38324 1.09900
O 	O 	0.33612 0.75394 0.34968 -0.70400
Ni	Ni	0.43296 0.73540 0.38179 1.10000
O 	O 	0.14827 0.72079 0.34383 -0.37200
O 	O 	0.23496 0.89341 0.34658 -0.40600
O 	O 	0.21481 0.55613 0.35000 -0.39700
Ni	Ni	0.36551 0.90078 0.34181 1.06300
O 	O 	0.19728 0.57495 0.46828 -0.41100
O 	O 	0.37881 0.94065 0.39976 -0.40300
O 	O 	0.52987 0.79080 0.34275 -0.37600
O 	O 	0.32896 0.68674 0.41875 -0.69900
O 	O 	0.12001 0.60467 0.41526 -0.36400
O 	O 	0.51257 0.67975 0.41471 -0.36600
O 	O 	0.40034 0.52567 0.41444 -0.42100
Ni	Ni	0.29649 0.54943 0.44102 1.07300
H 	H 	0.33048 0.71754 0.32415 0.14800
H 	H 	0.33628 0.73816 0.44012 0.15700
C 	C 	0.44232 0.93312 0.42216 0.28100
O 	O 	0.20680 0.45287 0.40172 -0.39800
C 	C 	0.16382 0.81663 0.33319 0.27500
C 	C 	0.53895 0.87581 0.32368 0.27300
C 	C 	0.20913 0.46679 0.36408 0.30000
C 	C 	0.48032 0.58387 0.42610 0.27300
C 	C 	0.12224 0.56441 0.44997 0.28400
O 	O 	0.48710 0.87528 0.41163 -0.36500
O 	O 	0.49995 0.94014 0.33571 -0.40400
Ni	Ni	0.40814 0.70463 0.06281 1.09900
O 	O 	0.29442 0.66384 0.02912 -0.70100
Ni	Ni	0.21122 0.68993 0.06642 1.09900
O 	O 	0.46591 0.62357 0.02929 -0.37200
O 	O 	0.34071 0.48221 0.03075 -0.41800
O 	O 	0.46769 0.83175 0.02921 -0.36500
Ni	Ni	0.23917 0.52255 0.00832 1.07200
O 	O 	0.50831 0.91857 0.10234 -0.40800
O 	O 	0.15143 0.44648 0.04997 -0.39500
O 	O 	0.09135 0.61873 0.03699 -0.36700
O 	O 	0.32949 0.74983 0.09678 -0.70200
O 	O 	0.51732 0.75686 0.09841 -0.38400
O 	O 	0.15046 0.74974 0.10689 -0.37200
O 	O 	0.25283 0.91319 0.10149 -0.40600
Ni	Ni	0.37692 0.90005 0.10088 1.06300
H 	H 	0.30219 0.71163 0.00730 0.15800
H 	H 	0.32698 0.72008 0.12291 0.14800
C 	C 	0.16402 0.46855 0.08743 0.30100
O 	O 	0.37486 0.91794 0.04231 -0.40900
C 	C 	0.41974 0.52845 0.01731 0.25900
C 	C 	0.08144 0.57776 0.00118 0.27900
C 	C 	0.43277 0.90073 0.02005 0.27300
C 	C 	0.18389 0.84752 0.11873 0.27500
C 	C 	0.54031 0.84932 0.11547 0.27500
O 	O 	0.18963 0.56436 0.10072 -0.39700
O 	O 	0.14788 0.56840 0.98233 -0.40100
Ni	Ni	0.96358 0.01906 0.27803 1.09400
O 	O 	0.98992 0.13589 0.23905 -0.71400
Ni	Ni	0.93752 0.05410 0.19035 1.09500
O 	O 	0.02376 0.12111 0.32303 -0.36100
O 	O 	0.14922 0.19370 0.28862 -0.41200
O 	O 	0.84492 0.03667 0.28813 -0.39300
Ni	Ni	0.11515 0.20644 0.23054 1.06500
O 	O 	0.88229 0.75456 0.27039 -0.40500
O 	O 	0.13731 0.07348 0.21771 -0.42300
O 	O 	0.95900 0.17739 0.15508 -0.39000
O 	O 	0.92915 0.93861 0.22785 -0.69900
O 	O 	0.93227 0.89475 0.31332 -0.36700
O 	O 	0.84960 0.95604 0.15028 -0.37600
O 	O 	0.75041 0.88729 0.19784 -0.42000
Ni	Ni	0.81896 0.82153 0.23389 1.07000
H 	H 	0.96059 0.18537 0.24533 0.15400
H 	H 	0.97481 0.90903 0.22248 0.14800
C 	C 	0.11097 0.02341 0.18421 0.28700
O 	O 	0.76673 0.86367 0.28178 -0.38900
C 	C 	0.09854 0.19841 0.31755 0.28000
C 	C 	0.03963 0.24872 0.15404 0.29000
C 	C 	0.76920 0.95795 0.28862 0.30700
C 	C 	0.76828 0.90297 0.16070 0.26900
C 	C 	0.93546 0.80640 0.29972 0.27800
O 	O 	0.04202 0.02906 0.16470 -0.36300
O 	O 	0.10710 0.23439 0.17238 -0.41000
C 	C 	0.05910 0.32787 0.12367 -0.08600
C 	C 	0.14330 0.38451 0.11526 -0.09500
H 	H 	0.00477 0.34005 0.10813 0.07300
H 	H 	0.19782 0.37351 0.13102 0.05900
C 	C 	0.69488 0.87926 0.13194 -0.08900
C 	C 	0.61725 0.88427 0.14231 -0.09300
H 	H 	0.70380 0.85713 0.10228 0.07300
H 	H 	0.61096 0.91607 0.17075 0.05000
C 	C 	0.16550 0.97150 0.16604 -0.09600
C 	C 	0.12871 0.88882 0.14207 -0.09100
H 	H 	0.23653 0.00204 0.17172 0.04200
H 	H 	0.05722 0.85221 0.13931 0.06800
C 	C 	0.60986 0.91111 0.29536 -0.08900
C 	C 	0.69247 0.97138 0.30700 -0.08600
H 	H 	0.59951 0.86940 0.26751 0.04600
H 	H 	0.70317 0.01900 0.33345 0.07300
C 	C 	0.13141 0.28308 0.34695 -0.09400
C 	C 	0.18711 0.37695 0.33707 -0.09400
H 	H 	0.10380 0.27151 0.37577 0.08300
H 	H 	0.21017 0.38969 0.30747 0.03900
C 	C 	0.09098 0.84285 0.31579 -0.09100
C 	C 	0.00765 0.77379 0.31314 -0.08700
H 	H 	0.10463 0.92211 0.30716 0.04500
H 	H 	0.99338 0.69299 0.31947 0.07100
C 	C 	0.49545 0.05077 0.48564 -0.04700
C 	C 	0.47007 0.99794 0.45648 -0.04400
C 	C 	0.97131 0.46388 0.48328 -0.06000
C 	C 	0.04075 0.50939 0.46841 -0.02200
C 	C 	0.53835 0.52959 0.49104 -0.07500
C 	C 	0.51492 0.55716 0.46118 -0.07300
C 	C 	0.84627 0.09784 0.63460 -0.09200
C 	C 	0.81125 0.00815 0.65287 -0.10300
H 	H 	0.91758 0.13736 0.63462 0.06200
H 	H 	0.74021 0.97315 0.65606 0.05300
C 	C 	0.28949 0.15664 0.63277 -0.08700
C 	C 	0.36683 0.15046 0.64504 -0.08900
H 	H 	0.28121 0.17726 0.60295 0.07400
H 	H 	0.37274 0.12106 0.67366 0.04800
C 	C 	0.92541 0.58616 0.61225 -0.10100
C 	C 	0.96963 0.68624 0.60566 -0.08600
H 	H 	0.92630 0.55865 0.64166 0.04700
H 	H 	0.98101 0.71269 0.57599 0.07700
C 	C 	0.92582 0.50275 0.96581 -0.04300
C 	C 	0.99597 0.53853 0.98281 -0.03600
C 	C 	0.49537 0.02322 0.96127 -0.04800
C 	C 	0.46680 0.96708 0.98806 -0.03000
C 	C 	0.45855 0.46291 0.95011 -0.08200
C 	C 	0.44081 0.49189 0.98098 -0.06000
C 	C 	0.86540 0.14164 0.82147 -0.08600
C 	C 	0.94443 0.21185 0.81243 -0.10800
H 	H 	0.85241 0.05965 0.81673 0.05100
H 	H 	0.95702 0.29404 0.81577 0.07800
C 	C 	0.32391 0.02423 0.81344 -0.08000
C 	C 	0.29446 0.05939 0.78212 -0.10500
H 	H 	0.27764 0.96513 0.83072 0.07200
H 	H 	0.34248 0.11102 0.76312 0.05400
C 	C 	0.85090 0.70404 0.82901 -0.09100
C 	C 	0.79100 0.60932 0.82005 -0.09700
H 	H 	0.87597 0.72387 0.85883 0.08000
H 	H 	0.77057 0.58706 0.78985 0.04800
