data_crystal

_cell_length_a 26.14837
_cell_length_b 26.23350
_cell_length_c 26.31628
_cell_angle_alpha 95.50500
_cell_angle_beta  95.50293
_cell_angle_gamma 125.84825

_symmetry_space_group_name_	'P 1'
_symmetry_space_group_name_H-M	'P 1'

loop_
_symmetry_equiv_pos_as_xyz
  x,y,z

loop_
_atom_site_label
_atom_site_type_symbol
_atom_site_fract_x
_atom_site_fract_y
_atom_site_fract_z
_atom_site_charge
C 	C 	0.95760 0.02154 0.98826 0.16300
N 	N 	0.01915 0.04624 0.98432 -0.10400
C 	C 	0.04086 0.01068 0.99013 0.17500
N 	N 	0.00048 0.95006 0.99869 -0.09500
C 	C 	0.93829 0.92452 0.00035 0.17900
N 	N 	0.91704 0.96045 0.99562 -0.10100
C 	C 	0.96352 0.02046 0.42802 0.15500
N 	N 	0.01905 0.04498 0.40990 -0.10300
C 	C 	0.04695 0.01464 0.41036 0.16900
N 	N 	0.01812 0.95885 0.42839 -0.09700
C 	C 	0.96041 0.93176 0.44309 0.18000
N 	N 	0.93381 0.96336 0.44415 -0.10200
Cu	Cu	0.63344 0.23896 0.01370 0.93700
Cu	Cu	0.64751 0.21208 0.89074 0.90500
Cu	Cu	0.65880 0.33593 0.94489 0.92000
Cu	Cu	0.61306 0.34447 0.04709 0.92000
C 	C 	0.65674 0.29345 0.12158 0.39100
O 	O 	0.53812 0.18559 0.01502 -0.31500
C 	C 	0.64403 0.29607 0.83174 0.38700
O 	O 	0.66978 0.33480 0.01738 -0.63900
O 	O 	0.61582 0.24165 0.93911 -0.62900
O 	O 	0.69579 0.21821 0.01253 -0.32800
O 	O 	0.65156 0.15789 0.93067 -0.38100
O 	O 	0.61816 0.30936 0.10964 -0.34300
O 	O 	0.69794 0.42631 0.95706 -0.32600
C 	C 	0.68502 0.45432 0.99260 0.33200
C 	C 	0.50352 0.20500 0.00050 0.30800
O 	O 	0.53178 0.26349 0.99173 -0.34400
O 	O 	0.63579 0.42040 0.01617 -0.34700
O 	O 	0.65810 0.25344 0.08801 -0.31100
C 	C 	0.69389 0.18130 0.97371 0.33700
O 	O 	0.66996 0.34322 0.87214 -0.32900
O 	O 	0.61508 0.23644 0.83764 -0.36400
H 	H 	0.71508 0.36618 0.03540 0.20300
H 	H 	0.56938 0.21770 0.92574 0.19800
Cu	Cu	0.75771 0.36113 0.44908 0.93800
Cu	Cu	0.74614 0.29802 0.55289 0.90200
Cu	Cu	0.64768 0.31093 0.50976 0.90800
Cu	Cu	0.63693 0.35716 0.41272 0.92100
C 	C 	0.71341 0.34759 0.34118 0.39400
O 	O 	0.79330 0.45495 0.45509 -0.31400
C 	C 	0.68218 0.32092 0.62306 0.38500
O 	O 	0.65664 0.30492 0.43869 -0.63700
O 	O 	0.74348 0.36054 0.52187 -0.63200
O 	O 	0.80710 0.32481 0.45159 -0.32400
O 	O 	0.73561 0.24603 0.49153 -0.39500
O 	O 	0.68645 0.37507 0.35519 -0.33600
O 	O 	0.55479 0.25796 0.49259 -0.33200
C 	C 	0.52226 0.26563 0.45658 0.33100
C 	C 	0.76186 0.47562 0.47266 0.32500
O 	O 	0.70247 0.43394 0.47822 -0.35600
O 	O 	0.55130 0.31562 0.43341 -0.34200
O 	O 	0.75372 0.34740 0.37543 -0.31700
C 	C 	0.78232 0.26893 0.46517 0.33300
O 	O 	0.63796 0.30564 0.58292 -0.33200
O 	O 	0.73567 0.32894 0.61659 -0.36100
H 	H 	0.63130 0.26060 0.41871 0.20600
H 	H 	0.76688 0.40300 0.54478 0.21000
C 	C 	0.70927 0.36155 0.76909 0.28000
C 	C 	0.64985 0.31073 0.77896 -0.19100
C 	C 	0.59830 0.26933 0.73721 0.28300
C 	C 	0.60768 0.27501 0.68601 0.28000
C 	C 	0.66861 0.32268 0.67610 -0.18600
C 	C 	0.71848 0.36767 0.71790 0.28200
F 	F 	0.77647 0.41629 0.70888 -0.36700
F 	F 	0.75914 0.40295 0.80903 -0.36900
F 	F 	0.55847 0.23207 0.64610 -0.36400
F 	F 	0.53956 0.22237 0.74627 -0.36300
C 	C 	0.72795 0.36992 0.20332 0.27900
C 	C 	0.68442 0.30633 0.17662 -0.18600
C 	C 	0.65946 0.25607 0.20456 0.29000
C 	C 	0.67350 0.26962 0.25899 0.28200
C 	C 	0.71237 0.33338 0.28566 -0.18600
C 	C 	0.74189 0.38341 0.25765 0.28900
F 	F 	0.78149 0.44523 0.28317 -0.36100
F 	F 	0.75407 0.41879 0.17659 -0.38300
F 	F 	0.64599 0.22087 0.28580 -0.37400
F 	F 	0.61818 0.19430 0.17913 -0.35700
C 	C 	0.78827 0.54384 0.47567 -0.10300
C 	C 	0.75076 0.56040 0.45096 0.13500
C 	C 	0.77555 0.62510 0.45531 0.06800
C 	C 	0.84102 0.67344 0.47573 0.02400
C 	C 	0.87931 0.65722 0.49897 0.07000
C 	C 	0.85179 0.59282 0.50178 0.13000
C 	C 	0.87075 0.73996 0.46768 0.01500
C 	C 	0.88282 0.75504 0.41816 0.07700
C 	C 	0.90431 0.81587 0.40890 0.10500
C 	C 	0.92310 0.86476 0.45066 -0.04700
C 	C 	0.91194 0.85022 0.50047 0.10500
C 	C 	0.88323 0.78711 0.50841 0.07900
Br	Br	0.96977 0.72269 0.52494 -0.09900
Br	Br	0.66955 0.49593 0.40531 -0.17300
Br	Br	0.90325 0.83093 0.33863 -0.10000
Br	Br	0.85980 0.76487 0.57448 -0.09800
Br	Br	0.89977 0.57224 0.54362 -0.12800
Br	Br	0.72012 0.64771 0.43252 -0.09900
Br	Br	0.87177 0.69299 0.36352 -0.09100
Br	Br	0.93752 0.91687 0.55791 -0.10200
C 	C 	0.93705 0.05722 0.43204 -0.03800
C 	C 	0.97648 0.12167 0.45821 0.09200
C 	C 	0.95353 0.15854 0.45721 0.07100
C 	C 	0.88830 0.12889 0.43738 0.01300
C 	C 	0.84767 0.06348 0.41397 0.08200
C 	C 	0.87304 0.02885 0.40836 0.08600
C 	C 	0.86167 0.16548 0.44422 0.02200
C 	C 	0.85035 0.17864 0.49331 0.06700
C 	C 	0.83132 0.21855 0.50116 0.13000
C 	C 	0.81337 0.23689 0.45825 -0.11000
C 	C 	0.82200 0.22135 0.40848 0.12800
C 	C 	0.84962 0.18891 0.40220 0.06900
Br	Br	0.75707 0.02092 0.39118 -0.11400
Br	Br	0.05933 0.15768 0.49962 -0.09500
Br	Br	0.83628 0.25326 0.57105 -0.20800
Br	Br	0.87225 0.17781 0.33658 -0.10200
Br	Br	0.82162 0.94464 0.36522 -0.08100
Br	Br	0.01153 0.24979 0.48235 -0.08200
Br	Br	0.85931 0.14061 0.54943 -0.11500
Br	Br	0.79250 0.24073 0.34854 -0.09400
C 	C 	0.11163 0.04504 0.39593 -0.03700
C 	C 	0.15122 0.11074 0.39279 0.10200
C 	C 	0.21846 0.14548 0.40448 0.08100
C 	C 	0.24580 0.11339 0.41357 0.01200
C 	C 	0.20579 0.04623 0.40811 0.08300
C 	C 	0.13886 0.01181 0.39503 0.08600
C 	C 	0.31657 0.14971 0.42530 0.02400
C 	C 	0.35006 0.15465 0.38493 0.07000
C 	C 	0.41713 0.18877 0.39611 0.12500
C 	C 	0.45147 0.22241 0.44689 -0.10100
C 	C 	0.41800 0.21803 0.48727 0.12800
C 	C 	0.35044 0.17979 0.47672 0.06900
Br	Br	0.24253 0.00166 0.42003 -0.11000
Br	Br	0.11523 0.14843 0.35962 -0.09600
Br	Br	0.46192 0.18762 0.34235 -0.14300
Br	Br	0.30408 0.16849 0.53257 -0.09700
Br	Br	0.08661 0.92186 0.36520 -0.06800
Br	Br	0.27309 0.23691 0.40812 -0.10200
Br	Br	0.30408 0.11598 0.31415 -0.10100
Br	Br	0.46459 0.26734 0.55618 -0.08700
C 	C 	0.89266 0.85626 0.00151 -0.05200
C 	C 	0.86503 0.81094 0.95501 0.10800
C 	C 	0.83033 0.74554 0.95674 0.08100
C 	C 	0.81827 0.72506 0.00464 0.01200
C 	C 	0.84054 0.77015 0.05063 0.07900
C 	C 	0.87917 0.83593 0.04923 0.10500
C 	C 	0.78352 0.65640 0.00668 0.01900
C 	C 	0.71608 0.61449 0.99261 0.07300
C 	C 	0.68383 0.54802 0.98600 0.12800
C 	C 	0.71838 0.52377 0.99879 -0.09700
C 	C 	0.78529 0.56614 0.01689 0.12400
C 	C 	0.81814 0.63219 0.01894 0.07200
Br	Br	0.81816 0.74158 0.11527 -0.09700
Br	Br	0.87222 0.83846 0.88900 -0.09600
Br	Br	0.59360 0.49041 0.95535 -0.11200
Br	Br	0.91070 0.68943 0.03694 -0.10100
Br	Br	0.91419 0.89830 0.11253 -0.10000
Br	Br	0.80129 0.68411 0.89389 -0.09700
Br	Br	0.66819 0.64839 0.98211 -0.09500
Br	Br	0.83149 0.53377 0.04049 -0.12700
C 	C 	0.93509 0.06110 0.98578 -0.04400
C 	C 	0.93513 0.09280 0.03209 0.10000
C 	C 	0.90186 0.11972 0.03068 0.07600
C 	C 	0.86786 0.11410 0.98301 0.01600
C 	C 	0.87204 0.08680 0.93629 0.07900
C 	C 	0.90590 0.06048 0.93771 0.10200
C 	C 	0.82382 0.13216 0.98242 0.02300
C 	C 	0.75967 0.08693 0.98771 0.06700
C 	C 	0.71751 0.10373 0.98650 0.13200
C 	C 	0.73907 0.16526 0.97893 -0.11500
C 	C 	0.80338 0.21072 0.97427 0.12500
C 	C 	0.84589 0.19433 0.97641 0.06900
Br	Br	0.82954 0.08366 0.87069 -0.11900
Br	Br	0.97860 0.09689 0.09759 -0.11500
Br	Br	0.63052 0.04299 0.99622 -0.11200
Br	Br	0.93429 0.25674 0.97089 -0.10300
Br	Br	0.91057 0.02153 0.87407 -0.11900
Br	Br	0.90100 0.16253 0.09405 -0.10400
Br	Br	0.72965 0.00185 0.99615 -0.11100
Br	Br	0.83262 0.29490 0.96356 -0.17400
C 	C 	0.43278 0.16026 0.99109 -0.09600
C 	C 	0.40094 0.12849 0.03071 0.11600
C 	C 	0.33429 0.09633 0.02546 0.06700
C 	C 	0.30094 0.10204 0.98385 0.02100
C 	C 	0.33223 0.13183 0.94354 0.06900
C 	C 	0.39688 0.15673 0.94554 0.12200
C 	C 	0.23434 0.07999 0.98402 0.01900
C 	C 	0.18241 0.02203 0.95207 0.06800
C 	C 	0.11962 0.00322 0.95008 0.09000
C 	C 	0.10756 0.03701 0.98575 -0.04000
C 	C 	0.15949 0.09366 0.01946 0.09900
C 	C 	0.22286 0.11710 0.01615 0.07600
Br	Br	0.28773 0.14199 0.88731 -0.10100
Br	Br	0.44896 0.13366 0.09403 -0.09500
Br	Br	0.05128 0.93470 0.89587 -0.07000
Br	Br	0.29399 0.20037 0.05496 -0.11400
Br	Br	0.43539 0.18310 0.88515 -0.13700
Br	Br	0.28865 0.04524 0.07549 -0.10600
Br	Br	0.19716 0.96749 0.91244 -0.06900
Br	Br	0.14408 0.13636 0.07280 -0.10000
