data_crystal

_cell_length_a 25.94566
_cell_length_b 26.39970
_cell_length_c 17.68010
_cell_angle_alpha 95.48396
_cell_angle_beta  95.48041
_cell_angle_gamma 125.85891

_symmetry_space_group_name_	'P 1'
_symmetry_space_group_name_H-M	'P 1'

loop_
_symmetry_equiv_pos_as_xyz
  x,y,z

loop_
_atom_site_label
_atom_site_type_symbol
_atom_site_fract_x
_atom_site_fract_y
_atom_site_fract_z
_atom_site_charge
C 	C 	0.05545 0.03441 0.95406 0.11200
C 	C 	0.02277 0.06038 0.97166 -0.08100
H 	H 	0.04979 0.11129 0.99066 0.10400
C 	C 	0.04727 0.01542 0.46770 0.11400
H 	H 	0.04431 0.09559 0.48420 0.10400
C 	C 	0.11796 0.05481 0.47282 -0.05000
C 	C 	0.14415 0.06764 0.40489 0.09300
C 	C 	0.21157 0.10643 0.40983 0.08000
C 	C 	0.25274 0.12988 0.48242 0.00900
C 	C 	0.22647 0.11442 0.54997 0.08100
C 	C 	0.15913 0.07786 0.54534 0.09400
C 	C 	0.32361 0.17059 0.48760 0.02500
C 	C 	0.35588 0.14270 0.48077 0.06600
C 	C 	0.35850 0.23709 0.49673 0.06500
Br	Br	0.28291 0.14202 0.64835 -0.11200
Br	Br	0.08750 0.02976 0.30511 -0.11500
Br	Br	0.31476 0.27542 0.51055 -0.11200
Br	Br	0.12312 0.05857 0.63798 -0.12000
Br	Br	0.24786 0.12757 0.31734 -0.11300
Br	Br	0.30855 0.05192 0.47251 -0.11800
C 	C 	0.12671 0.07631 0.95988 -0.04300
C 	C 	0.15455 0.11389 0.90339 0.09300
C 	C 	0.22144 0.14831 0.90447 0.08200
C 	C 	0.25978 0.14187 0.95865 0.01300
C 	C 	0.23241 0.10582 0.01638 0.07800
C 	C 	0.16649 0.07504 0.01864 0.08800
C 	C 	0.32893 0.17306 0.95511 0.02800
C 	C 	0.34667 0.14086 0.90936 0.06700
Br	Br	0.28519 0.09803 0.09166 -0.12300
Br	Br	0.10093 0.11679 0.82336 -0.11700
Br	Br	0.35256 0.27943 0.05890 -0.11400
Br	Br	0.13111 0.03307 0.10351 -0.11800
Br	Br	0.26101 0.20565 0.83334 -0.10400
Br	Br	0.28056 0.05921 0.84459 -0.11200
C 	C 	0.01608 0.04414 0.47371 -0.08300
C 	C 	0.37707 0.23371 0.00019 0.06300
C 	C 	0.52940 0.25244 0.96856 0.32700
C 	C 	0.52251 0.28495 0.46830 0.33500
O 	O 	0.53312 0.30480 0.40208 -0.35100
C 	C 	0.42231 0.18096 0.47872 0.13000
C 	C 	0.45620 0.24689 0.48272 -0.11500
C 	C 	0.42493 0.27529 0.49460 0.13200
Br	Br	0.46685 0.14311 0.46876 -0.21300
Br	Br	0.47344 0.36653 0.50863 -0.12400
C 	C 	0.41255 0.16803 0.91150 0.12900
C 	C 	0.46072 0.22717 0.95982 -0.10800
C 	C 	0.44289 0.26060 0.00307 0.12900
Br	Br	0.43690 0.12486 0.84733 -0.16200
Br	Br	0.50844 0.34222 0.06837 -0.18900
H 	H 	0.04567 0.94780 0.92126 0.10500
H 	H 	0.03542 0.92701 0.45053 0.10400
C 	C 	0.01107 0.94911 0.45452 -0.08000
C 	C 	0.02045 0.96822 0.93258 -0.08000
O 	O 	0.55032 0.22666 0.00990 -0.33500
O 	O 	0.57079 0.30648 0.52556 -0.34600
O 	O 	0.57123 0.30754 0.94919 -0.36900
H 	H 	0.59122 0.21032 0.87310 0.20800
H 	H 	0.59661 0.24497 0.37849 0.18200
Br	Br	0.94230 0.08588 0.82997 -0.11800
C 	C 	0.95493 0.02053 0.96290 0.11000
Cu	Cu	0.64246 0.25340 0.01808 0.93400
Cu	Cu	0.70379 0.24160 0.87136 0.88800
Cu	Cu	0.67332 0.33154 0.89031 0.90300
Cu	Cu	0.65518 0.37998 0.03611 0.91600
C 	C 	0.66372 0.32183 0.16769 0.20600
C 	C 	0.67051 0.27653 0.73622 0.20300
O 	O 	0.69942 0.34844 0.00163 -0.63800
O 	O 	0.63499 0.24275 0.90443 -0.63300
O 	O 	0.67299 0.20096 0.03510 -0.32900
O 	O 	0.75324 0.25791 0.96854 -0.40400
O 	O 	0.63573 0.34396 0.13248 -0.31800
O 	O 	0.71620 0.41959 0.87846 -0.34900
C 	C 	0.72132 0.46522 0.92511 0.34000
O 	O 	0.70769 0.45939 0.99527 -0.35000
O 	O 	0.66687 0.27883 0.12889 -0.29900
C 	C 	0.72711 0.21679 0.01458 0.33600
O 	O 	0.65627 0.31031 0.77658 -0.31000
O 	O 	0.67278 0.23343 0.76513 -0.35100
H 	H 	0.74679 0.37595 0.02082 0.19400
Cu	Cu	0.72759 0.32709 0.39333 0.93600
Cu	Cu	0.68723 0.23151 0.51659 0.88400
Cu	Cu	0.64628 0.30930 0.51460 0.90100
Cu	Cu	0.61802 0.34903 0.37015 0.91600
C 	C 	0.67681 0.33358 0.24500 0.20800
O 	O 	0.77818 0.42392 0.42142 -0.31900
C 	C 	0.67407 0.27944 0.66158 0.20300
O 	O 	0.63124 0.29027 0.40141 -0.63100
O 	O 	0.72645 0.31878 0.50322 -0.63400
O 	O 	0.76346 0.27903 0.37054 -0.31700
O 	O 	0.68245 0.19626 0.41590 -0.40500
O 	O 	0.66483 0.36989 0.28261 -0.32500
C 	C 	0.75389 0.45196 0.45094 0.31500
O 	O 	0.69464 0.41718 0.46484 -0.37100
O 	O 	0.71164 0.31875 0.28183 -0.29200
C 	C 	0.73540 0.22204 0.38724 0.33900
O 	O 	0.65983 0.31328 0.62696 -0.31000
O 	O 	0.69834 0.25363 0.62627 -0.35300
H 	H 	0.76503 0.35308 0.54203 0.20900
C 	C 	0.78847 0.52175 0.45641 -0.10600
C 	C 	0.82761 0.55485 0.40197 0.12400
C 	C 	0.85385 0.61935 0.40438 0.06700
C 	C 	0.83057 0.64666 0.44841 0.02200
C 	C 	0.78620 0.61122 0.49566 0.06700
C 	C 	0.77347 0.55357 0.50812 0.12300
C 	C 	0.85668 0.71410 0.45017 0.01000
C 	C 	0.90197 0.76086 0.51472 0.08100
C 	C 	0.92423 0.82414 0.51835 0.09400
C 	C 	0.86465 0.79624 0.38733 0.09300
C 	C 	0.83597 0.73155 0.38782 0.08300
Br	Br	0.73771 0.63790 0.53592 -0.10800
Br	Br	0.83879 0.51162 0.31808 -0.14500
Br	Br	0.76798 0.66689 0.30381 -0.12000
Br	Br	0.74343 0.52289 0.60095 -0.14000
Br	Br	0.92185 0.67018 0.34810 -0.11600
Br	Br	0.93655 0.73888 0.59591 -0.11300
Br	Br	0.84823 0.82144 0.29453 -0.11800
C 	C 	0.77114 0.19463 0.39287 -0.12300
C 	C 	0.74408 0.13442 0.34861 0.12900
C 	C 	0.76914 0.10109 0.36642 0.06300
C 	C 	0.82570 0.13076 0.42278 0.02400
C 	C 	0.85506 0.19252 0.46419 0.06500
C 	C 	0.82677 0.22368 0.45092 0.12200
C 	C 	0.85743 0.09930 0.43353 0.00900
C 	C 	0.84617 0.06409 0.49315 0.08500
C 	C 	0.87756 0.03548 0.50379 0.08600
C 	C 	0.91512 0.03675 0.45015 -0.04300
C 	C 	0.92431 0.07028 0.38894 0.09200
C 	C 	0.89895 0.10471 0.38387 0.08300
Br	Br	0.93420 0.23442 0.53881 -0.11500
Br	Br	0.67442 0.09891 0.26167 -0.13600
Br	Br	0.87310 0.99894 0.59463 -0.11200
Br	Br	0.92426 0.16248 0.31216 -0.11100
Br	Br	0.86225 0.30457 0.51499 -0.19100
Br	Br	0.72444 0.01385 0.31645 -0.11500
Br	Br	0.78802 0.05533 0.56015 -0.13100
C 	C 	0.75148 0.52768 0.90273 -0.10800
C 	C 	0.81763 0.56577 0.89769 0.13200
C 	C 	0.84938 0.63001 0.89192 0.06700
C 	C 	0.81595 0.65688 0.89521 0.02500
C 	C 	0.74896 0.61785 0.89514 0.06800
C 	C 	0.71647 0.55288 0.89678 0.12900
C 	C 	0.85191 0.72661 0.90384 0.01000
C 	C 	0.88199 0.76542 0.97787 0.08200
C 	C 	0.85469 0.75395 0.83837 0.08200
Br	Br	0.70250 0.65411 0.89606 -0.10700
Br	Br	0.86566 0.53120 0.90370 -0.15300
Br	Br	0.81723 0.70136 0.73688 -0.10300
Br	Br	0.62395 0.49809 0.89102 -0.13400
Br	Br	0.93898 0.68175 0.88114 -0.11100
Br	Br	0.87541 0.72751 0.06801 -0.11600
C 	C 	0.75122 0.17968 0.02973 -0.12200
C 	C 	0.81283 0.21016 0.07544 0.13000
C 	C 	0.84533 0.18248 0.07036 0.06500
C 	C 	0.81435 0.12236 0.02321 0.02200
C 	C 	0.74950 0.08834 0.98544 0.06900
C 	C 	0.71818 0.11733 0.98775 0.12600
C 	C 	0.85126 0.09709 0.00860 0.00300
C 	C 	0.88181 0.10895 0.94394 0.08700
C 	C 	0.91352 0.08178 0.92729 0.08900
C 	C 	0.91994 0.04762 0.97916 -0.03900
C 	C 	0.88963 0.03607 0.04418 0.08100
C 	C 	0.85384 0.05932 0.05759 0.08700
Br	Br	0.70471 0.00304 0.92808 -0.11700
Br	Br	0.85228 0.28971 0.14492 -0.13600
Br	Br	0.63157 0.07322 0.92978 -0.17300
Br	Br	0.93361 0.22852 0.12357 -0.11200
Br	Br	0.87973 0.16213 0.87800 -0.13500
Br	Br	0.80558 0.03684 0.14050 -0.11100
Br	Br	0.97657 0.88552 0.61254 -0.11900
Br	Br	0.87790 0.85523 0.76022 -0.12000
C 	C 	0.90833 0.84272 0.45321 -0.04600
C 	C 	0.92035 0.95460 0.94024 -0.07700
C 	C 	0.95334 0.92827 0.92923 0.12100
H 	H 	0.86808 0.92367 0.93448 0.10600
C 	C 	0.91209 0.93987 0.45121 -0.07500
C 	C 	0.94394 0.91131 0.45077 0.11800
H 	H 	0.85980 0.91058 0.44447 0.10600
C 	C 	0.91608 0.83164 0.98608 0.09700
C 	C 	0.91829 0.85887 0.92050 -0.04900
C 	C 	0.88531 0.81964 0.84715 0.09500
Br	Br	0.95803 0.88491 0.08733 -0.11000
C 	C 	0.94819 0.00649 0.46047 0.10900
Br	Br	0.97020 0.06788 0.31094 -0.12300
Br	Br	0.89551 0.98678 0.11345 -0.10700
