data_crystal

_cell_length_a 24.80420
_cell_length_b 21.85219
_cell_length_c 35.82197
_cell_angle_alpha 104.03340
_cell_angle_beta  115.94447
_cell_angle_gamma 111.52259

_symmetry_space_group_name_	'P 1'
_symmetry_space_group_name_H-M	'P 1'

loop_
_symmetry_equiv_pos_as_xyz
  x,y,z

loop_
_atom_site_label
_atom_site_type_symbol
_atom_site_fract_x
_atom_site_fract_y
_atom_site_fract_z
_atom_site_charge
C 	C 	0.69431 0.48524 0.93750 0.00200
C 	C 	0.73913 0.50336 0.98481 -0.01200
C 	C 	0.72411 0.44859 0.99876 -0.05800
C 	C 	0.66357 0.37590 0.96584 0.08100
C 	C 	0.61377 0.36092 0.92013 -0.06900
C 	C 	0.62985 0.41512 0.90581 -0.02200
N 	N 	0.65779 0.31613 0.97753 -0.14100
C 	C 	0.45671 0.17276 0.94728 0.00600
C 	C 	0.47131 0.15197 0.91435 -0.02200
C 	C 	0.53726 0.19872 0.92393 -0.06800
C 	C 	0.58923 0.26700 0.96670 0.07900
C 	C 	0.57493 0.28663 0.99991 -0.05800
C 	C 	0.50905 0.23982 0.99030 -0.01300
C 	C 	0.76172 0.21357 0.94989 0.00500
C 	C 	0.76192 0.22549 0.99022 -0.01100
C 	C 	0.72734 0.25887 0.99887 -0.05700
C 	C 	0.69115 0.27939 0.96692 0.08100
C 	C 	0.68842 0.26422 0.92528 -0.06600
C 	C 	0.72417 0.23213 0.91719 -0.01900
H 	H 	0.78771 0.55851 0.00998 0.03800
H 	H 	0.76154 0.46128 0.03443 0.04700
H 	H 	0.56548 0.30584 0.89473 0.05000
H 	H 	0.59383 0.40151 0.86959 0.04000
H 	H 	0.43083 0.10067 0.88080 0.04100
H 	H 	0.54723 0.18295 0.89773 0.05000
H 	H 	0.61484 0.33864 0.03305 0.04500
H 	H 	0.49782 0.25664 0.01569 0.03800
H 	H 	0.78970 0.20978 0.01514 0.03500
H 	H 	0.72887 0.26926 0.03056 0.04700
H 	H 	0.65778 0.27576 0.89888 0.05300
H 	H 	0.72262 0.22158 0.88547 0.04200
C 	C 	0.77052 0.53570 0.48729 0.00700
C 	C 	0.82385 0.53474 0.52350 -0.02200
C 	C 	0.80561 0.47710 0.53491 -0.06600
C 	C 	0.73401 0.41950 0.51003 0.08100
C 	C 	0.68030 0.42128 0.47423 -0.06700
C 	C 	0.69861 0.47960 0.46330 -0.02000
N 	N 	0.71710 0.35700 0.51956 -0.14300
C 	C 	0.54987 0.29227 0.53736 0.00600
C 	C 	0.53418 0.25840 0.49225 -0.02200
C 	C 	0.58901 0.27847 0.48621 -0.06800
C 	C 	0.65992 0.33416 0.52516 0.08100
C 	C 	0.67557 0.36657 0.57035 -0.06600
C 	C 	0.62095 0.34484 0.57659 -0.02100
C 	C 	0.75664 0.20484 0.45576 0.00900
C 	C 	0.76915 0.21892 0.50001 -0.02400
C 	C 	0.75101 0.26470 0.51935 -0.06500
C 	C 	0.72028 0.29695 0.49473 0.07900
C 	C 	0.70093 0.27636 0.44818 -0.06700
C 	C 	0.72006 0.23137 0.42914 -0.02300
H 	H 	0.87948 0.57836 0.54254 0.04200
H 	H 	0.84721 0.47618 0.56245 0.05300
H 	H 	0.62487 0.37684 0.45414 0.05400
H 	H 	0.65706 0.48045 0.43564 0.04700
H 	H 	0.47948 0.21697 0.46186 0.04300
H 	H 	0.57633 0.25203 0.45125 0.05100
H 	H 	0.73019 0.40844 0.60063 0.05200
H 	H 	0.63367 0.37007 0.61169 0.04300
H 	H 	0.79657 0.19782 0.52055 0.05000
H 	H 	0.76459 0.27872 0.55468 0.05200
H 	H 	0.67301 0.29669 0.42735 0.05300
H 	H 	0.70893 0.21955 0.39452 0.04300
C 	C 	0.32721 0.53927 0.98784 0.02300
C 	C 	0.35114 0.59948 0.02880 -0.03800
C 	C 	0.38823 0.67319 0.03753 -0.05600
C 	C 	0.40160 0.68749 0.00538 0.06600
C 	C 	0.38029 0.62704 0.96530 -0.05200
C 	C 	0.34327 0.55336 0.95667 -0.03100
N 	N 	0.43102 0.76297 0.01174 -0.14300
C 	C 	0.60202 0.84838 0.99828 0.01700
C 	C 	0.61566 0.86145 0.04275 -0.03600
C 	C 	0.55914 0.83201 0.04671 -0.05800
C 	C 	0.48843 0.79057 0.00651 0.06700
C 	C 	0.47465 0.77995 0.96215 -0.05200
C 	C 	0.53116 0.80703 0.95792 -0.02500
C 	C 	0.27683 0.82057 0.96220 0.01800
C 	C 	0.34539 0.87339 0.00419 -0.02300
C 	C 	0.39671 0.85499 0.01938 -0.07000
C 	C 	0.38035 0.78409 0.99247 0.09800
C 	C 	0.31293 0.73300 0.94870 -0.06600
C 	C 	0.26130 0.75099 0.93400 -0.01900
H 	H 	0.33971 0.58907 0.05336 0.04700
H 	H 	0.40465 0.71923 0.06852 0.05400
H 	H 	0.38988 0.63669 0.94001 0.04900
H 	H 	0.32565 0.50714 0.92522 0.04800
H 	H 	0.67008 0.89301 0.07410 0.04400
H 	H 	0.57022 0.84162 0.08109 0.05000
H 	H 	0.42034 0.74942 0.93093 0.05000
H 	H 	0.51992 0.79531 0.92328 0.05000
H 	H 	0.35833 0.92798 0.02557 0.05300
H 	H 	0.44872 0.89510 0.05269 0.06100
H 	H 	0.30046 0.67962 0.92620 0.05700
H 	H 	0.20906 0.71069 0.90086 0.04800
C 	C 	0.32768 0.53505 0.46060 0.00700
C 	C 	0.35728 0.58679 0.50667 -0.02100
C 	C 	0.39808 0.66373 0.52301 -0.06500
C 	C 	0.41020 0.68977 0.49367 0.08300
C 	C 	0.38408 0.63769 0.44841 -0.06700
C 	C 	0.34150 0.56072 0.43158 -0.01900
N 	N 	0.44543 0.76932 0.50923 -0.14200
C 	C 	0.61795 0.85566 0.49751 0.00700
C 	C 	0.55150 0.84018 0.46292 -0.01900
C 	C 	0.49442 0.81181 0.46642 -0.06600
C 	C 	0.50377 0.79973 0.50512 0.08200
C 	C 	0.57083 0.81712 0.54020 -0.06400
C 	C 	0.62768 0.84499 0.53646 -0.02000
C 	C 	0.30466 0.84626 0.47690 0.00900
C 	C 	0.37157 0.88889 0.52081 -0.01900
C 	C 	0.41832 0.86416 0.53075 -0.06300
C 	C 	0.39920 0.79742 0.49664 0.08100
C 	C 	0.33356 0.75704 0.45158 -0.06600
C 	C 	0.28640 0.78102 0.44209 -0.02100
H 	H 	0.34715 0.56734 0.52939 0.04500
H 	H 	0.41879 0.70334 0.55807 0.05700
H 	H 	0.39408 0.65688 0.42563 0.05400
H 	H 	0.31874 0.52115 0.39591 0.04700
H 	H 	0.54362 0.84824 0.43269 0.04900
H 	H 	0.44283 0.79764 0.43863 0.05400
H 	H 	0.57855 0.80827 0.57014 0.05400
H 	H 	0.67888 0.85689 0.56332 0.04500
H 	H 	0.38676 0.94035 0.54750 0.05500
H 	H 	0.46898 0.89612 0.56524 0.05800
H 	H 	0.31943 0.70794 0.42382 0.05200
H 	H 	0.23561 0.74895 0.40763 0.04400
Zn	Zn	0.14807 0.12418 0.98364 1.18800
Zn	Zn	0.02773 0.08069 0.88644 1.19900
O 	O 	0.00571 0.95696 0.80192 -0.39700
O 	O 	0.98973 0.05440 0.81787 -0.43600
O 	O 	0.00435 0.85332 0.85863 -0.47100
C 	C 	0.20272 0.08073 0.93572 0.31900
O 	O 	0.95724 0.97721 0.86591 -0.86900
C 	C 	0.16232 0.23803 0.95204 0.32800
O 	O 	0.21973 0.11431 0.97842 -0.45500
O 	O 	0.13631 0.04524 0.89888 -0.36200
O 	O 	0.05310 0.08469 0.94997 -0.78000
O 	O 	0.07324 0.95022 0.93351 -0.43300
O 	O 	0.10501 0.18493 0.90875 -0.43700
O 	O 	0.17940 0.22576 0.98863 -0.44600
Zn	Zn	0.83173 0.85383 0.88858 1.18100
Zn	Zn	0.95669 0.88067 0.96872 1.18500
Zn	Zn	0.98689 0.98125 0.92653 1.21500
C 	C 	0.82011 0.73023 0.91063 0.33100
C 	C 	0.81236 0.90398 0.95980 0.33200
O 	O 	0.90302 0.01811 0.92064 -0.47300
Zn	Zn	0.98093 0.02493 0.01365 1.18700
O 	O 	0.88894 0.77345 0.94590 -0.44800
O 	O 	0.79147 0.74864 0.87814 -0.45100
O 	O 	0.78341 0.87962 0.91440 -0.45500
O 	O 	0.87703 0.91937 0.98800 -0.46500
C 	C 	0.02006 0.96278 0.07531 0.36200
O 	O 	0.91969 0.87833 0.90403 -0.79400
C 	C 	0.90673 0.06734 0.95301 0.32600
O 	O 	0.99904 0.90300 0.03875 -0.44900
O 	O 	0.02812 0.02450 0.07308 -0.47900
O 	O 	0.93970 0.07927 0.99675 -0.49800
O 	O 	0.01686 0.98487 0.98668 -0.84100
Zn	Zn	0.97031 0.90870 0.83340 1.18200
C 	C 	0.99754 0.00864 0.79219 0.23500
C 	C 	0.06075 0.89028 0.90258 0.32600
H 	H 	0.06848 0.00597 0.00868 0.13100
H 	H 	0.90757 0.96448 0.84712 0.16100
Zn	Zn	0.16545 0.18778 0.50192 1.19000
Zn	Zn	0.05292 0.08734 0.38848 1.19500
O 	O 	0.00319 0.93721 0.29942 -0.46200
O 	O 	0.01088 0.04954 0.31884 -0.47300
O 	O 	0.03642 0.87735 0.38194 -0.48100
C 	C 	0.28611 0.18517 0.51508 0.30000
O 	O 	0.97904 0.99223 0.37478 -0.87900
C 	C 	0.16306 0.24999 0.43738 0.32500
O 	O 	0.26661 0.22126 0.53589 -0.45500
O 	O 	0.23721 0.12319 0.47435 -0.29500
O 	O 	0.07309 0.11226 0.45361 -0.77600
O 	O 	0.10605 0.98762 0.45055 -0.41000
O 	O 	0.13498 0.18165 0.40526 -0.45800
O 	O 	0.17146 0.26256 0.47803 -0.44300
Zn	Zn	0.86691 0.88038 0.40731 1.17700
Zn	Zn	0.00140 0.92898 0.49372 1.20200
Zn	Zn	0.01444 0.01146 0.43922 1.21400
C 	C 	0.87535 0.78204 0.45311 0.33000
C 	C 	0.83878 0.94459 0.46831 0.33700
O 	O 	0.92400 0.04168 0.42831 -0.46600
Zn	Zn	0.00961 0.06971 0.52587 1.20300
O 	O 	0.94559 0.82467 0.47929 -0.46300
O 	O 	0.83549 0.79001 0.41781 -0.45900
O 	O 	0.81678 0.91781 0.42399 -0.47600
O 	O 	0.90405 0.96587 0.50135 -0.44900
C 	C 	0.05294 0.02047 0.59530 0.28700
O 	O 	0.95648 0.91020 0.42513 -0.80700
C 	C 	0.92876 0.09665 0.45793 0.32700
O 	O 	0.04745 0.96534 0.56514 -0.39800
O 	O 	0.05461 0.07755 0.58851 -0.44500
O 	O 	0.96898 0.12123 0.50357 -0.49500
O 	O 	0.05010 0.02971 0.50307 -0.90300
Zn	Zn	0.99061 0.91715 0.34729 1.17500
C 	C 	0.01435 0.99748 0.29424 0.36500
C 	C 	0.09486 0.92372 0.42505 0.31500
H 	H 	0.10271 0.05709 0.52512 0.16100
H 	H 	0.93010 0.98133 0.35574 0.16700
C 	C 	0.04054 0.99643 0.70488 0.13600
C 	C 	0.02775 0.04722 0.69098 0.06400
N 	N 	0.03578 0.05702 0.65735 -0.08100
C 	C 	0.05559 0.01759 0.63660 -0.05500
C 	C 	0.07021 0.96819 0.65150 0.08400
N 	N 	0.06228 0.95856 0.68530 -0.11300
N 	N 	0.02968 0.98431 0.73707 -0.08200
N 	N 	0.00494 0.08422 0.71001 -0.09200
H 	H 	0.08638 0.93661 0.63564 0.04300
C 	C 	0.00673 0.02120 0.75626 0.00100
C 	C 	0.99425 0.07236 0.74243 -0.00100
H 	H 	0.97605 0.10230 0.75726 0.04500
C 	C 	0.04849 0.01787 0.19117 0.06500
C 	C 	0.02165 0.94855 0.19059 0.12400
N 	N 	0.01116 0.94299 0.22413 -0.07400
C 	C 	0.02605 0.00411 0.25814 -0.08900
C 	C 	0.05454 0.07380 0.25922 0.05800
N 	N 	0.06499 0.07915 0.22566 -0.11200
N 	N 	0.05314 0.02211 0.15548 -0.09900
N 	N 	0.00303 0.88678 0.15511 -0.11300
H 	H 	0.06853 0.12342 0.28670 0.03800
C 	C 	0.03099 0.95973 0.11850 -0.02900
C 	C 	0.00755 0.89101 0.11916 0.08300
H 	H 	0.99027 0.84077 0.09036 0.02400
C 	C 	0.19733 0.31423 0.43164 -0.10200
C 	C 	0.16802 0.35780 0.42346 0.08900
C 	C 	0.20937 0.42857 0.42982 -0.07800
C 	C 	0.27853 0.45455 0.44200 0.01500
C 	C 	0.30336 0.40605 0.44302 0.02100
C 	C 	0.26361 0.33697 0.43924 0.00100
H 	H 	0.18849 0.46418 0.42651 0.06600
H 	H 	0.28487 0.30176 0.44318 0.04700
I 	I 	0.06017 0.31579 0.39815 -0.11900
I 	I 	0.39789 0.43372 0.44715 -0.09900
C 	C 	0.67587 0.87824 0.49131 0.02000
C 	C 	0.67745 0.82402 0.46188 0.02200
C 	C 	0.73083 0.84659 0.45460 0.00700
C 	C 	0.78446 0.92276 0.47771 -0.10400
C 	C 	0.78449 0.97685 0.50858 0.11100
C 	C 	0.72977 0.95439 0.51482 -0.07900
H 	H 	0.73141 0.80467 0.43155 0.04700
H 	H 	0.72909 0.99613 0.53792 0.07100
I 	I 	0.60162 0.70742 0.42950 -0.10700
I 	I 	0.86576 0.09251 0.54602 -0.15400
C 	C 	0.25452 0.87113 0.46661 0.02000
C 	C 	0.21501 0.86188 0.48584 0.02300
C 	C 	0.16498 0.88238 0.47357 0.00600
C 	C 	0.15281 0.91041 0.44147 -0.10200
C 	C 	0.19279 0.92034 0.42262 0.09800
C 	C 	0.24342 0.90081 0.43534 -0.07400
H 	H 	0.13414 0.87456 0.48801 0.03200
H 	H 	0.27397 0.90832 0.42069 0.06900
I 	I 	0.22678 0.81334 0.53133 -0.09800
I 	I 	0.17866 0.96572 0.37539 -0.12600
C 	C 	0.20492 0.31415 0.95996 -0.09600
C 	C 	0.28006 0.35276 0.98573 0.09200
C 	C 	0.31923 0.42609 0.99440 -0.06600
C 	C 	0.28458 0.46135 0.97731 0.00700
C 	C 	0.20963 0.42243 0.95075 0.02500
C 	C 	0.17025 0.34915 0.94213 0.00000
H 	H 	0.37683 0.45567 0.01436 0.05200
H 	H 	0.11266 0.31978 0.92211 0.05000
I 	I 	0.33623 0.30135 0.00995 -0.13700
I 	I 	0.15458 0.47318 0.92353 -0.09400
C 	C 	0.76713 0.89880 0.97678 -0.10500
C 	C 	0.75505 0.85239 0.99745 0.11100
C 	C 	0.70133 0.83689 0.00445 -0.10100
C 	C 	0.66151 0.86975 0.99329 0.02800
C 	C 	0.67788 0.92132 0.97667 0.01800
C 	C 	0.72939 0.93425 0.96755 0.00800
H 	H 	0.69007 0.79859 0.01828 0.06500
H 	H 	0.73996 0.97177 0.95311 0.05400
I 	I 	0.81591 0.80405 0.01857 -0.12700
I 	I 	0.62945 0.98418 0.96798 -0.08700
C 	C 	0.11412 0.86976 0.91633 -0.10700
C 	C 	0.14704 0.86723 0.89272 0.09100
C 	C 	0.20124 0.85292 0.90884 -0.07600
C 	C 	0.22158 0.83855 0.94722 0.01500
C 	C 	0.18754 0.83912 0.97002 0.02600
C 	C 	0.13505 0.85607 0.95504 0.00100
H 	H 	0.22727 0.85232 0.89121 0.07000
H 	H 	0.10977 0.85761 0.97314 0.03200
I 	I 	0.11672 0.88426 0.83255 -0.10000
I 	I 	0.21169 0.81109 0.02561 -0.11100
C 	C 	0.79249 0.17415 0.44149 0.01200
C 	C 	0.76350 0.09636 0.42048 0.02400
C 	C 	0.80608 0.06978 0.41818 -0.00500
C 	C 	0.87876 0.12040 0.43994 -0.10900
C 	C 	0.90529 0.19747 0.45632 0.07900
C 	C 	0.86165 0.22374 0.45618 -0.07500
H 	H 	0.78424 0.01013 0.40325 0.04200
H 	H 	0.88341 0.28351 0.47103 0.06000
I 	I 	0.65811 0.01842 0.39600 -0.13300
I 	I 	0.01369 0.27636 0.48688 -0.12000
C 	C 	0.79015 0.59655 0.47531 0.01500
C 	C 	0.79347 0.58547 0.43612 0.02100
C 	C 	0.81834 0.64590 0.42788 0.00200
C 	C 	0.84142 0.71771 0.45897 -0.10300
C 	C 	0.83673 0.72836 0.49760 0.08600
C 	C 	0.81051 0.66768 0.50525 -0.07700
H 	H 	0.82185 0.63750 0.39813 0.03900
H 	H 	0.80763 0.67624 0.53525 0.06300
I 	I 	0.76481 0.47917 0.39026 -0.12200
I 	I 	0.87016 0.83550 0.54565 -0.11600
C 	C 	0.49151 0.27319 0.54320 0.01300
C 	C 	0.46461 0.31965 0.54527 0.02300
C 	C 	0.39875 0.29218 0.53872 -0.00600
C 	C 	0.36158 0.22032 0.53285 -0.09300
C 	C 	0.39398 0.17896 0.53809 0.08700
C 	C 	0.45752 0.20429 0.54160 -0.07900
H 	H 	0.37560 0.32583 0.53686 0.04900
H 	H 	0.48018 0.17019 0.54272 0.05900
I 	I 	0.52390 0.43236 0.56072 -0.10900
I 	I 	0.35271 0.08347 0.54641 -0.14200
C 	C 	0.87195 0.10792 0.94013 -0.11900
C 	C 	0.79750 0.06895 0.90628 0.07900
C 	C 	0.76173 0.10499 0.90826 -0.08100
C 	C 	0.80008 0.18064 0.94169 0.01400
C 	C 	0.87508 0.22237 0.96995 0.02400
C 	C 	0.91068 0.18575 0.96926 -0.00100
H 	H 	0.70404 0.07385 0.88442 0.05900
H 	H 	0.96835 0.21697 0.99338 0.03500
I 	I 	0.73859 0.95922 0.84921 -0.15700
I 	I 	0.93566 0.34042 0.01416 -0.13100
C 	C 	0.71759 0.53740 0.92048 0.01700
C 	C 	0.77638 0.55256 0.91860 0.02000
C 	C 	0.80657 0.61262 0.91155 0.00300
C 	C 	0.77708 0.65617 0.90466 -0.10000
C 	C 	0.71206 0.63382 0.89970 0.09100
C 	C 	0.68386 0.57590 0.90894 -0.07800
H 	H 	0.85425 0.62686 0.91280 0.04700
H 	H 	0.63647 0.56179 0.90805 0.06300
I 	I 	0.81937 0.48443 0.92502 -0.10800
I 	I 	0.65393 0.68438 0.87742 -0.11300
C 	C 	0.38368 0.13111 0.93386 0.01600
C 	C 	0.36713 0.08852 0.95546 0.02200
C 	C 	0.30495 0.06780 0.95327 -0.00100
C 	C 	0.25867 0.08834 0.92908 -0.09500
C 	C 	0.27151 0.12370 0.90308 0.09100
C 	C 	0.33373 0.14440 0.90546 -0.07600
H 	H 	0.29361 0.03760 0.97151 0.04200
H 	H 	0.34553 0.17530 0.88767 0.06300
I 	I 	0.43487 0.05460 0.99122 -0.12600
I 	I 	0.20205 0.15321 0.86339 -0.09500
