data_crystal

_cell_length_a 38.33494
_cell_length_b 34.14371
_cell_length_c 28.15656
_cell_angle_alpha 92.64990
_cell_angle_beta  85.31573
_cell_angle_gamma 123.95343

_symmetry_space_group_name_	'P 1'
_symmetry_space_group_name_H-M	'P 1'

loop_
_symmetry_equiv_pos_as_xyz
  x,y,z

loop_
_atom_site_label
_atom_site_type_symbol
_atom_site_fract_x
_atom_site_fract_y
_atom_site_fract_z
_atom_site_charge
C 	C 	0.03073 0.02340 0.06065 0.02400
C 	C 	0.03457 0.06145 0.03757 -0.02400
C 	C 	0.06782 0.03581 0.08240 -0.06000
S 	S 	0.08341 0.10830 0.04297 -0.00400
H 	H 	0.01842 0.12193 0.99561 0.04900
C 	C 	0.10030 0.08358 0.07636 0.00100
H 	H 	0.07262 0.01012 0.09601 0.04900
C 	C 	0.23056 0.13640 0.08380 0.01800
C 	C 	0.20426 0.12520 0.12568 -0.04300
C 	C 	0.16165 0.10775 0.12314 -0.03800
C 	C 	0.14509 0.10168 0.07876 0.01100
C 	C 	0.17128 0.11247 0.03684 -0.03700
C 	C 	0.21385 0.12979 0.03936 -0.04300
H 	H 	0.21686 0.13019 0.16016 0.04300
H 	H 	0.14159 0.09923 0.15565 0.04200
H 	H 	0.15862 0.10709 0.00235 0.04300
H 	H 	0.23377 0.13782 0.00680 0.04400
C 	C 	0.02587 0.01974 0.53048 0.02500
C 	C 	0.03135 0.05897 0.50805 -0.02400
C 	C 	0.06132 0.03070 0.55492 -0.05900
S 	S 	0.07959 0.10521 0.51750 -0.00300
H 	H 	0.01653 0.12093 0.46778 0.05000
C 	C 	0.09412 0.07864 0.55178 0.00100
H 	H 	0.06514 0.00416 0.56825 0.05000
C 	C 	0.22363 0.13270 0.56730 0.01800
C 	C 	0.19582 0.12194 0.60774 -0.04300
C 	C 	0.15334 0.10359 0.60258 -0.03800
C 	C 	0.13842 0.09617 0.55701 0.01100
C 	C 	0.16606 0.10625 0.51657 -0.03700
C 	C 	0.20849 0.12447 0.52169 -0.04300
H 	H 	0.20718 0.12807 0.64309 0.04300
H 	H 	0.13214 0.09566 0.63398 0.04200
H 	H 	0.15467 0.09992 0.48122 0.04300
H 	H 	0.22958 0.13208 0.49027 0.04400
Co	Co	0.61049 0.30770 0.01546 1.18400
O 	O 	0.63550 0.27836 0.95516 -0.46100
O 	O 	0.60102 0.30859 0.94165 -0.35900
C 	C 	0.53643 0.26280 0.05918 0.29500
O 	O 	0.56460 0.30757 0.06149 -0.37000
O 	O 	0.55009 0.24273 0.03081 -0.34500
O 	O 	0.64623 0.28748 0.04167 -0.46200
C 	C 	0.62442 0.29464 0.92315 0.31500
Co	Co	0.60606 0.30542 0.51644 1.18400
O 	O 	0.63432 0.28314 0.45290 -0.46300
O 	O 	0.60538 0.32054 0.44353 -0.36400
C 	C 	0.52919 0.25996 0.55179 0.29400
O 	O 	0.55840 0.30319 0.56107 -0.37300
O 	O 	0.54323 0.24215 0.52076 -0.34500
O 	O 	0.63540 0.27615 0.53997 -0.46000
C 	C 	0.62847 0.30672 0.42355 0.30900
C 	C 	0.62945 0.27305 0.77403 0.06700
C 	C 	0.62480 0.28261 0.87245 -0.12400
C 	C 	0.58822 0.26248 0.84782 0.04700
C 	C 	0.59034 0.25702 0.79853 -0.08300
H 	H 	0.55837 0.25160 0.86671 0.03400
H 	H 	0.56200 0.24109 0.77945 0.05500
C 	C 	0.65006 0.28263 0.62317 -0.12100
C 	C 	0.62127 0.29160 0.64545 0.04000
C 	C 	0.61320 0.28708 0.69474 -0.08000
C 	C 	0.63359 0.27272 0.72146 0.06500
H 	H 	0.60662 0.30405 0.62496 0.01600
H 	H 	0.59259 0.29645 0.71220 0.05500
C 	C 	0.65532 0.30314 0.22081 0.06500
N 	N 	0.62282 0.28737 0.19237 -0.11500
C 	C 	0.62895 0.28916 0.14398 0.07300
C 	C 	0.66950 0.30807 0.12215 -0.12000
H 	H 	0.60236 0.27614 0.12255 0.01900
C 	C 	0.63405 0.30350 0.37135 -0.12200
C 	C 	0.64755 0.30231 0.27290 0.06500
N 	N 	0.62628 0.32090 0.29287 -0.11600
C 	C 	0.61954 0.32218 0.34097 0.07400
H 	H 	0.60313 0.33797 0.35556 0.03500
C 	C 	0.35341 0.18719 0.57571 0.05300
N 	N 	0.34140 0.21280 0.55499 -0.10700
C 	C 	0.30001 0.19640 0.55303 0.02400
C 	C 	0.26852 0.15229 0.57262 -0.01800
C 	C 	0.28024 0.12627 0.59566 -0.01700
C 	C 	0.32280 0.14385 0.59752 -0.05900
H 	H 	0.29154 0.21738 0.53576 0.03400
H 	H 	0.25646 0.09225 0.61132 0.03600
H 	H 	0.33196 0.12371 0.61520 0.04600
C 	C 	0.48382 0.24013 0.56089 -0.10400
C 	C 	0.45399 0.19243 0.55145 0.03500
C 	C 	0.41119 0.17452 0.55742 -0.08000
C 	C 	0.39833 0.20440 0.57331 0.06700
N 	N 	0.42778 0.25063 0.58291 -0.11500
C 	C 	0.46982 0.26882 0.57753 0.06800
H 	H 	0.46395 0.16943 0.53893 0.03800
H 	H 	0.38817 0.13798 0.54864 0.05300
H 	H 	0.49229 0.30574 0.58532 0.03600
C 	C 	0.36039 0.18831 0.08609 0.05300
N 	N 	0.34832 0.21480 0.06749 -0.10600
C 	C 	0.30695 0.19906 0.06719 0.02400
C 	C 	0.27553 0.15474 0.08640 -0.01800
C 	C 	0.28733 0.12761 0.10698 -0.01700
C 	C 	0.32988 0.14450 0.10715 -0.05800
H 	H 	0.29845 0.22085 0.05174 0.03500
H 	H 	0.26361 0.09337 0.12227 0.03600
H 	H 	0.33910 0.12366 0.12325 0.04700
C 	C 	0.49099 0.24217 0.06955 -0.10200
C 	C 	0.46130 0.19442 0.06006 0.03400
C 	C 	0.41842 0.17616 0.06657 -0.07900
C 	C 	0.40538 0.20570 0.08325 0.06700
N 	N 	0.43470 0.25185 0.09323 -0.11500
C 	C 	0.47677 0.27039 0.08724 0.06900
H 	H 	0.47138 0.17171 0.04685 0.03900
H 	H 	0.39551 0.13966 0.05754 0.05300
H 	H 	0.49911 0.30725 0.09542 0.03800
C 	C 	0.70338 0.32511 0.15089 0.04100
C 	C 	0.69631 0.32259 0.20030 -0.08200
H 	H 	0.73510 0.34052 0.13505 0.03500
H 	H 	0.72256 0.33632 0.22255 0.05300
C 	C 	0.01052 0.05285 0.46680 0.02500
O 	O 	0.65955 0.37502 0.01678 -0.41200
C 	C 	0.67665 0.31129 0.06975 0.31000
O 	O 	0.65858 0.36699 0.52940 -0.42500
Co	Co	0.69470 0.30679 0.97635 1.18300
O 	O 	0.73814 0.30210 0.93051 -0.38000
O 	O 	0.69303 0.24290 0.97308 -0.34800
C 	C 	0.69735 0.39346 0.99412 0.33800
O 	O 	0.71268 0.32359 0.04835 -0.36500
O 	O 	0.70517 0.36914 0.96195 -0.53500
C 	C 	0.72389 0.25901 0.94100 0.29800
H 	H 	0.72458 0.38591 0.93272 0.17100
Co	Co	0.68975 0.30265 0.47996 1.18300
O 	O 	0.73476 0.29994 0.43527 -0.38200
O 	O 	0.68393 0.23683 0.46763 -0.34900
C 	C 	0.69087 0.39038 0.49769 0.33700
C 	C 	0.66260 0.29277 0.57216 0.31800
O 	O 	0.69971 0.30542 0.55416 -0.36000
O 	O 	0.70954 0.37065 0.47537 -0.52300
C 	C 	0.71753 0.25514 0.43931 0.29600
H 	H 	0.73605 0.39101 0.45398 0.16900
N 	N 	0.66429 0.29041 0.79897 -0.11500
C 	C 	0.66270 0.29522 0.84723 0.07200
H 	H 	0.69125 0.31058 0.86574 0.00800
N 	N 	0.66088 0.26317 0.69890 -0.11600
C 	C 	0.66936 0.26768 0.65082 0.08000
H 	H 	0.69153 0.26022 0.63418 0.03400
C 	C 	0.65525 0.28338 0.35138 0.03700
C 	C 	0.66197 0.28267 0.30203 -0.08100
H 	H 	0.66661 0.26853 0.37393 0.02000
H 	H 	0.67828 0.26702 0.28651 0.05500
C 	C 	0.79171 0.59177 0.48738 0.05200
C 	C 	0.71247 0.44199 0.49507 -0.13100
C 	C 	0.72123 0.46410 0.45104 0.03900
C 	C 	0.74625 0.51324 0.44828 -0.08500
C 	C 	0.76292 0.53992 0.48972 0.06900
N 	N 	0.75249 0.51773 0.53258 -0.11800
C 	C 	0.72780 0.46979 0.53605 0.08000
H 	H 	0.70924 0.44327 0.41899 0.01900
H 	H 	0.75294 0.53045 0.41424 0.05200
H 	H 	0.72115 0.45326 0.57049 0.03000
C 	C 	0.74196 0.23370 0.43181 -0.10600
C 	C 	0.72720 0.19006 0.45245 0.03500
C 	C 	0.75247 0.17246 0.44900 -0.08000
N 	N 	0.80540 0.23978 0.40282 -0.11700
C 	C 	0.78123 0.25770 0.40581 0.06900
H 	H 	0.69665 0.17028 0.47189 0.03900
H 	H 	0.74144 0.13910 0.46564 0.05400
H 	H 	0.79281 0.29090 0.38854 0.03200
C 	C 	0.78358 0.54204 0.00702 0.07000
N 	N 	0.76908 0.52195 0.96394 -0.11800
C 	C 	0.74210 0.47439 0.95897 0.07700
C 	C 	0.72854 0.44467 0.99861 -0.13300
C 	C 	0.74269 0.46456 0.04324 0.04800
C 	C 	0.77017 0.51340 0.04762 -0.08600
H 	H 	0.73044 0.45980 0.92442 0.01900
H 	H 	0.73206 0.44231 0.07448 0.02400
H 	H 	0.78024 0.52893 0.08238 0.05400
C 	C 	0.81074 0.59392 0.01101 0.05200
H 	H 	0.85385 0.59502 0.05717 0.04500
H 	H 	0.78595 0.12263 0.88013 0.04700
C 	C 	0.74915 0.23863 0.93295 -0.10500
C 	C 	0.73069 0.19065 0.94172 0.03600
C 	C 	0.75537 0.17229 0.93736 -0.08000
C 	C 	0.79850 0.20203 0.92383 0.06700
H 	H 	0.69745 0.16780 0.95255 0.03700
H 	H 	0.74132 0.13547 0.94556 0.05300
H 	H 	0.84741 0.06796 0.97800 0.04300
H 	H 	0.83811 0.75099 0.04361 0.04400
H 	H 	0.82664 0.75272 0.48119 0.04300
N 	N 	0.78757 0.61868 0.52167 -0.10600
C 	C 	0.81451 0.66656 0.52202 0.02400
C 	C 	0.84769 0.68944 0.48680 -0.01800
C 	C 	0.82499 0.61344 0.45201 -0.05800
H 	H 	0.81025 0.68685 0.54977 0.03400
H 	H 	0.82955 0.59242 0.42546 0.04500
C 	C 	0.82078 0.18240 0.42407 0.05300
N 	N 	0.83595 0.17487 0.38164 -0.10800
C 	C 	0.83200 0.17432 0.46693 -0.05800
H 	H 	0.82077 0.18107 0.50085 0.04800
C 	C 	0.79237 0.19856 0.42472 0.06800
C 	C 	0.86225 0.69195 0.01543 -0.01600
C 	C 	0.84605 0.61587 0.03840 -0.05800
N 	N 	0.80244 0.62080 0.98611 -0.10700
C 	C 	0.82714 0.66882 0.98780 0.02300
H 	H 	0.81966 0.68903 0.96742 0.03400
C 	C 	0.82576 0.18420 0.92307 0.05300
C 	C 	0.83827 0.12320 0.90332 -0.01700
C 	C 	0.81398 0.14159 0.89997 -0.05900
H 	H 	0.82885 0.08984 0.88639 0.03600
N 	N 	0.81587 0.24855 0.91483 -0.11600
C 	C 	0.79225 0.26717 0.91860 0.07000
H 	H 	0.80719 0.30434 0.91146 0.03500
H 	H 	0.84645 0.06349 0.45859 0.04300
H 	H 	0.93362 0.90869 0.96353 0.05000
C 	C 	0.89831 0.12675 0.93648 0.01800
C 	C 	0.90199 0.06473 0.96928 -0.03700
C 	C 	0.87945 0.08483 0.96264 -0.04300
H 	H 	0.88727 0.03273 0.99013 0.04200
C 	C 	0.88906 0.74407 0.01741 0.01700
C 	C 	0.87128 0.76949 0.03217 -0.04300
C 	C 	0.89621 0.81884 0.03191 -0.03700
C 	C 	0.93223 0.76851 0.00334 -0.04200
H 	H 	0.88215 0.83812 0.04318 0.04300
H 	H 	0.93407 0.90971 0.42596 0.04900
C 	C 	0.89569 0.12609 0.42019 0.01800
C 	C 	0.90161 0.06231 0.44247 -0.03700
C 	C 	0.87813 0.08209 0.44180 -0.04300
H 	H 	0.88811 0.02901 0.46053 0.04200
C 	C 	0.87637 0.74144 0.48633 0.01800
C 	C 	0.86020 0.76925 0.48307 -0.04300
C 	C 	0.88731 0.81844 0.48205 -0.03700
C 	C 	0.91993 0.76331 0.48870 -0.04300
H 	H 	0.87432 0.83947 0.48027 0.04200
C 	C 	0.85281 0.66242 0.45160 -0.01700
H 	H 	0.87821 0.67932 0.42404 0.03600
C 	C 	0.86079 0.15783 0.37971 0.02400
C 	C 	0.87160 0.14800 0.42189 -0.01800
C 	C 	0.85750 0.15709 0.46576 -0.01700
H 	H 	0.87154 0.15116 0.34543 0.03400
H 	H 	0.86589 0.15032 0.49879 0.03600
C 	C 	0.87163 0.66502 0.04085 -0.01800
H 	H 	0.89865 0.68211 0.06234 0.03600
N 	N 	0.86186 0.20837 0.94659 -0.10700
C 	C 	0.88612 0.19110 0.95010 0.02400
C 	C 	0.87431 0.14764 0.92921 -0.01800
H 	H 	0.91410 0.21068 0.96995 0.03400
C 	C 	0.01110 0.05322 0.99821 0.02400
S 	S 	0.94571 0.00660 0.95464 -0.00500
C 	C 	0.98138 0.00647 0.98435 -0.02400
C 	C 	0.97321 0.96833 0.01129 0.02700
C 	C 	0.95388 0.92178 0.99297 -0.06200
C 	C 	0.96733 0.06487 0.95572 0.00200
C 	C 	0.96527 0.89509 0.01548 0.00300
C 	C 	0.94004 0.14865 0.91734 -0.04300
C 	C 	0.96258 0.12849 0.92389 -0.03800
C 	C 	0.94356 0.08623 0.94952 0.01100
H 	H 	0.95488 0.18108 0.89718 0.04400
C 	C 	0.93921 0.84322 0.01712 0.01000
C 	C 	0.95722 0.81790 0.00343 -0.03600
H 	H 	0.99044 0.83646 0.99222 0.04100
H 	H 	0.94626 0.74927 0.99177 0.04200
C 	C 	0.98208 0.00684 0.44987 -0.02300
C 	C 	0.97203 0.96752 0.47612 0.02500
S 	S 	0.94803 0.00848 0.41858 -0.00600
C 	C 	0.95232 0.92127 0.45709 -0.06000
C 	C 	0.96830 0.06632 0.42326 0.00200
C 	C 	0.95981 0.89228 0.48209 0.00200
C 	C 	0.93670 0.14975 0.39841 -0.04300
C 	C 	0.96014 0.12980 0.39878 -0.03800
C 	C 	0.94273 0.08604 0.42086 0.01100
H 	H 	0.95060 0.18383 0.38180 0.04400
C 	C 	0.93100 0.84036 0.48371 0.01100
C 	C 	0.94712 0.81256 0.48737 -0.03700
H 	H 	0.98072 0.82908 0.48889 0.04200
H 	H 	0.93270 0.74217 0.49157 0.04300
H 	H 	0.99470 0.14550 0.90873 0.04200
C 	C 	0.99407 0.97417 0.51628 -0.02300
C 	C 	0.99827 0.97701 0.04927 -0.02300
C 	C 	0.00312 0.08615 0.98212 -0.05900
S 	S 	0.99748 0.92854 0.05790 -0.00500
C 	C 	0.00274 0.08628 0.45173 -0.05900
S 	S 	0.99018 0.92419 0.52663 -0.00500
H 	H 	0.99191 0.14850 0.38225 0.04200
