data_crystal

_cell_length_a 20.18940
_cell_length_b 24.02570
_cell_length_c 34.95473
_cell_angle_alpha 89.99732
_cell_angle_beta  89.99735
_cell_angle_gamma 120.39801

_symmetry_space_group_name_	'P 1'
_symmetry_space_group_name_H-M	'P 1'

loop_
_symmetry_equiv_pos_as_xyz
  x,y,z

loop_
_atom_site_label
_atom_site_type_symbol
_atom_site_fract_x
_atom_site_fract_y
_atom_site_fract_z
_atom_site_charge
C 	C 	0.83988 0.52762 0.79737 0.29400
C 	C 	0.79588 0.30703 0.70038 0.31600
C 	C 	0.84325 0.50875 0.69105 0.31700
C 	C 	0.79948 0.32215 0.81089 0.29500
C 	C 	0.60340 0.34188 0.69427 0.31900
C 	C 	0.59066 0.34558 0.79949 0.30100
Ni	Ni	0.85436 0.42466 0.75049 1.11200
Ni	Ni	0.67944 0.30395 0.75300 1.12000
Ni	Ni	0.70883 0.44641 0.74475 1.12000
O 	O 	0.88412 0.51360 0.77583 -0.37800
O 	O 	0.76463 0.50120 0.79100 -0.38400
O 	O 	0.59365 0.30103 0.72178 -0.39200
O 	O 	0.84942 0.34421 0.72495 -0.37900
O 	O 	0.72611 0.29764 0.70301 -0.39000
O 	O 	0.60910 0.39350 0.77456 -0.38900
O 	O 	0.85736 0.46168 0.69647 -0.38600
O 	O 	0.79774 0.51676 0.71444 -0.38800
O 	O 	0.62461 0.31038 0.79922 -0.39200
O 	O 	0.85433 0.38157 0.80201 -0.37500
O 	O 	0.74999 0.28333 0.78456 -0.38400
O 	O 	0.66109 0.40169 0.69516 -0.39400
O 	O 	0.74967 0.39362 0.75827 -0.72100
H 	H 	0.74938 0.39755 0.78631 0.15300
C 	C 	0.25047 0.49195 0.28832 0.29800
C 	C 	0.17407 0.66334 0.20330 0.31600
C 	C 	0.27535 0.53369 0.18542 0.31900
C 	C 	0.14553 0.63004 0.30689 0.30300
C 	C 	0.40930 0.73599 0.20673 0.31900
C 	C 	0.40353 0.69855 0.31831 0.29500
Ni	Ni	0.17885 0.55546 0.24347 1.11200
Ni	Ni	0.29156 0.70675 0.26492 1.12000
Ni	Ni	0.36370 0.61742 0.24913 1.11900
O 	O 	0.18838 0.49734 0.28451 -0.37700
O 	O 	0.31069 0.52241 0.26500 -0.38500
O 	O 	0.35147 0.74353 0.21633 -0.39500
O 	O 	0.17215 0.60842 0.19810 -0.38400
O 	O 	0.19758 0.69435 0.23595 -0.38600
O 	O 	0.40315 0.64816 0.30231 -0.38500
O 	O 	0.21130 0.50658 0.20531 -0.37900
O 	O 	0.33159 0.59145 0.19414 -0.39700
O 	O 	0.38716 0.73718 0.29805 -0.38400
O 	O 	0.11821 0.58455 0.27970 -0.37600
O 	O 	0.22005 0.67266 0.31036 -0.38900
O 	O 	0.43379 0.70754 0.23008 -0.39500
O 	O 	0.27465 0.62173 0.26046 -0.71900
H 	H 	0.26984 0.61032 0.28778 0.15200
C 	C 	0.00224 0.91854 0.94934 0.29900
C 	C 	0.90559 0.09680 0.00321 0.31000
C 	C 	0.09526 0.10008 0.93829 0.32000
C 	C 	0.80465 0.91649 0.01913 0.29400
C 	C 	0.10676 0.12864 0.06047 0.31900
C 	C 	0.02391 0.94289 0.07433 0.29800
Ni	Ni	0.93392 0.00262 0.96196 1.11300
Ni	Ni	0.94835 0.02033 0.05417 1.11900
Ni	Ni	0.08672 0.02665 0.00674 1.12100
O 	O 	0.93830 0.92127 0.94660 -0.38100
O 	O 	0.06891 0.97020 0.95927 -0.38000
O 	O 	0.03402 0.11189 0.05951 -0.39300
O 	O 	0.94282 0.09011 0.97463 -0.38400
O 	O 	0.88448 0.05751 0.03280 -0.38500
O 	O 	0.06508 0.95449 0.04260 -0.39200
O 	O 	0.02938 0.05198 0.92627 -0.37700
O 	O 	0.11386 0.10498 0.97446 -0.39200
O 	O 	0.00099 0.98312 0.08677 -0.38800
O 	O 	0.82388 0.95137 0.98701 -0.37100
O 	O 	0.85224 0.93314 0.04877 -0.38700
O 	O 	0.12853 0.08698 0.05196 -0.39200
O 	O 	0.98119 0.00108 0.00780 -0.72100
H 	H 	0.95848 0.95419 0.01107 0.15200
C 	C 	0.81007 0.87119 0.49689 0.29700
C 	C 	0.11922 0.06069 0.55966 0.31700
C 	C 	0.90673 0.04933 0.52146 0.31900
C 	C 	0.03263 0.87862 0.53843 0.30000
C 	C 	0.08904 0.09624 0.44159 0.31900
C 	C 	0.00838 0.91371 0.42006 0.30900
Ni	Ni	0.95478 0.95624 0.54671 1.11000
Ni	Ni	0.09340 0.99333 0.48582 1.12000
Ni	Ni	0.93808 0.98396 0.45748 1.11800
O 	O 	0.83788 0.90097 0.53041 -0.37400
O 	O 	0.84830 0.89368 0.46428 -0.38800
O 	O 	0.11710 0.05736 0.44302 -0.38800
O 	O 	0.06115 0.00795 0.57412 -0.37100
O 	O 	0.12925 0.06802 0.52257 -0.39600
O 	O 	0.98238 0.95434 0.41479 -0.39300
O 	O 	0.95118 0.04078 0.54508 -0.38700
O 	O 	0.87797 0.01267 0.49095 -0.38800
O 	O 	0.06303 0.92584 0.44536 -0.38900
O 	O 	0.97082 0.87783 0.55224 -0.37900
O 	O 	0.09418 0.93351 0.52738 -0.38500
O 	O 	0.01956 0.07720 0.45410 -0.39500
O 	O 	0.98775 0.96283 0.49590 -0.72000
H 	H 	0.96611 0.91670 0.49020 0.15200
C 	C 	0.28567 0.49615 0.15509 -0.11600
C 	C 	0.33509 0.47090 0.16062 0.12500
C 	C 	0.32348 0.41740 0.13905 -0.09900
C 	C 	0.26309 0.38836 0.11268 -0.00000
C 	C 	0.22035 0.41863 0.10376 0.05800
C 	C 	0.23300 0.47298 0.12477 -0.02000
N 	N 	0.39199 0.49632 0.18728 -0.20100
H 	H 	0.35833 0.39569 0.14464 0.05400
C 	C 	0.23536 0.32082 0.10101 0.00300
N 	N 	0.16566 0.39470 0.07597 -0.19200
H 	H 	0.19765 0.49428 0.11939 0.04000
C 	C 	0.18972 0.27104 0.12660 -0.09900
C 	C 	0.15446 0.20636 0.11510 0.13200
C 	C 	0.16238 0.19155 0.07685 -0.11500
C 	C 	0.21385 0.24079 0.05237 -0.02100
C 	C 	0.25151 0.30556 0.06432 0.05500
H 	H 	0.18052 0.28277 0.15535 0.05700
N 	N 	0.11303 0.15867 0.14081 -0.20500
H 	H 	0.22175 0.22908 0.02338 0.04300
N 	N 	0.30134 0.35270 0.04024 -0.19200
H 	H 	0.10509 0.16994 0.16869 0.08300
H 	H 	0.09095 0.11017 0.13382 0.09100
H 	H 	0.31105 0.34114 0.01277 0.07800
H 	H 	0.33201 0.40095 0.04877 0.08400
H 	H 	0.13307 0.41642 0.07027 0.08100
H 	H 	0.15589 0.35526 0.05927 0.08700
H 	H 	0.40619 0.53878 0.20182 0.07500
H 	H 	0.42494 0.47482 0.19266 0.08200
C 	C 	0.44936 0.76229 0.17033 -0.11600
C 	C 	0.52269 0.81866 0.16939 0.13100
C 	C 	0.56570 0.83543 0.13548 -0.09900
C 	C 	0.53655 0.79702 0.10262 0.00200
C 	C 	0.46103 0.74320 0.10282 0.05700
C 	C 	0.41785 0.72666 0.13672 -0.02100
N 	N 	0.55196 0.85689 0.20083 -0.20500
H 	H 	0.62291 0.87760 0.13490 0.05700
C 	C 	0.58828 0.81058 0.06957 0.00000
N 	N 	0.42983 0.70727 0.07072 -0.19200
H 	H 	0.36051 0.68466 0.13727 0.04900
C 	C 	0.63582 0.78370 0.06902 -0.09700
C 	C 	0.70303 0.81200 0.04687 0.12700
C 	C 	0.72321 0.86866 0.02588 -0.10900
C 	C 	0.66836 0.88744 0.02076 -0.02500
C 	C 	0.60114 0.85935 0.04295 0.05600
H 	H 	0.62315 0.74343 0.08768 0.05700
N 	N 	0.74880 0.78563 0.04646 -0.20300
H 	H 	0.68074 0.92734 0.00189 0.04300
N 	N 	0.55023 0.88027 0.03923 -0.19200
H 	H 	0.73541 0.74530 0.06327 0.08300
H 	H 	0.79645 0.80357 0.02835 0.08800
H 	H 	0.56151 0.91803 0.02054 0.07700
H 	H 	0.49807 0.85800 0.05397 0.08500
H 	H 	0.37462 0.66673 0.07137 0.08300
H 	H 	0.45928 0.71981 0.04470 0.08500
H 	H 	0.51969 0.84773 0.22582 0.09600
H 	H 	0.60706 0.89756 0.20018 0.08300
C 	C 	0.13387 0.68283 0.17619 -0.11200
C 	C 	0.05632 0.66477 0.18248 0.12700
C 	C 	0.02705 0.70089 0.16560 -0.09200
C 	C 	0.07210 0.75123 0.14022 -0.00200
C 	C 	0.14590 0.76302 0.12974 0.06000
C 	C 	0.17683 0.72960 0.14855 -0.02300
N 	N 	0.00977 0.61268 0.20441 -0.20100
H 	H 	0.96945 0.69028 0.17254 0.05000
C 	C 	0.04574 0.79619 0.12857 0.00800
N 	N 	0.18732 0.80650 0.10195 -0.19200
H 	H 	0.23542 0.74175 0.14269 0.04300
C 	C 	0.07906 0.85709 0.14592 -0.09900
C 	C 	0.06582 0.90508 0.13138 0.12900
C 	C 	0.01638 0.89094 0.09951 -0.10600
C 	C 	0.97520 0.82745 0.08565 -0.02700
C 	C 	0.99120 0.78032 0.09896 0.05100
H 	H 	0.11834 0.86817 0.16969 0.05800
N 	N 	0.10229 0.96487 0.14746 -0.20700
H 	H 	0.93559 0.81620 0.06200 0.03400
N 	N 	0.95620 0.72099 0.08226 -0.19200
H 	H 	0.14060 0.97532 0.17012 0.08400
H 	H 	0.09179 0.00103 0.13840 0.10400
H 	H 	0.91674 0.71012 0.06009 0.07600
H 	H 	0.96792 0.68526 0.09084 0.08200
H 	H 	0.24282 0.81662 0.09534 0.08200
H 	H 	0.16387 0.82882 0.08572 0.08800
H 	H 	0.02803 0.58179 0.21458 0.08900
H 	H 	0.95334 0.60098 0.21013 0.07600
C 	C 	0.12802 0.15543 0.41840 -0.11500
C 	C 	0.20289 0.20646 0.42749 0.12900
C 	C 	0.23420 0.26443 0.40674 -0.10100
C 	C 	0.19020 0.27381 0.37925 0.00200
C 	C 	0.11546 0.22286 0.37027 0.05800
C 	C 	0.08643 0.16352 0.38899 -0.01800
N 	N 	0.24401 0.20096 0.45659 -0.20600
H 	H 	0.29186 0.30329 0.41308 0.05500
C 	C 	0.22320 0.33666 0.35944 0.00100
N 	N 	0.07083 0.23094 0.34424 -0.19200
H 	H 	0.02962 0.12412 0.38174 0.03700
C 	C 	0.24919 0.34125 0.32177 -0.09900
C 	C 	0.25468 0.38972 0.29736 0.12800
C 	C 	0.24483 0.43978 0.31265 -0.10900
C 	C 	0.22750 0.43908 0.35153 -0.02300
C 	C 	0.21549 0.38748 0.37505 0.05800
H 	H 	0.25663 0.30285 0.31022 0.05600
N 	N 	0.26386 0.38534 0.25911 -0.20400
H 	H 	0.22152 0.47808 0.36332 0.03800
N 	N 	0.19552 0.38652 0.41233 -0.19200
H 	H 	0.27700 0.35134 0.24857 0.08400
H 	H 	0.25169 0.41143 0.23931 0.10600
H 	H 	0.18841 0.42360 0.42336 0.08000
H 	H 	0.18817 0.34978 0.43087 0.08600
H 	H 	0.01647 0.19247 0.33721 0.08200
H 	H 	0.08841 0.27556 0.33150 0.08900
H 	H 	0.22154 0.15985 0.47369 0.09900
H 	H 	0.29917 0.23894 0.46288 0.08300
C 	C 	0.72860 0.82040 0.49421 -0.11000
C 	C 	0.70796 0.76574 0.47117 0.12700
C 	C 	0.64008 0.73919 0.44954 -0.09700
C 	C 	0.59126 0.76466 0.45247 0.00100
C 	C 	0.60351 0.80898 0.48214 0.05600
C 	C 	0.67237 0.83622 0.50317 -0.02500
N 	N 	0.75439 0.74019 0.46883 -0.20300
H 	H 	0.62769 0.70154 0.42883 0.05700
C 	C 	0.53697 0.75348 0.42077 0.00000
N 	N 	0.55103 0.82712 0.48955 -0.19200
H 	H 	0.68477 0.87357 0.52404 0.04100
C 	C 	0.46589 0.69582 0.41991 -0.09700
C 	C 	0.41760 0.67962 0.38781 0.12400
C 	C 	0.44197 0.72123 0.35568 -0.10500
C 	C 	0.51021 0.78104 0.35771 -0.02300
C 	C 	0.55863 0.79738 0.38973 0.06000
H 	H 	0.44861 0.66301 0.44404 0.05400
N 	N 	0.34778 0.62451 0.38814 -0.20300
H 	H 	0.52798 0.81348 0.33338 0.04600
N 	N 	0.62652 0.85435 0.39001 -0.19200
H 	H 	0.33133 0.59272 0.41130 0.08200
H 	H 	0.30812 0.61393 0.36614 0.08600
H 	H 	0.64185 0.88625 0.36695 0.08100
H 	H 	0.66485 0.86761 0.41284 0.08900
H 	H 	0.56187 0.86187 0.51043 0.07900
H 	H 	0.49816 0.80553 0.47546 0.08500
H 	H 	0.80270 0.75702 0.48639 0.08500
H 	H 	0.74093 0.70160 0.45043 0.08100
C 	C 	0.09041 0.64200 0.32802 -0.11400
C 	C 	0.10903 0.67165 0.36445 0.13100
C 	C 	0.07301 0.70530 0.37707 -0.10300
C 	C 	0.01599 0.70655 0.35475 0.01500
C 	C 	0.98874 0.66792 0.32153 0.04300
C 	C 	0.02589 0.63541 0.30861 -0.01200
N 	N 	0.15978 0.66660 0.38765 -0.20300
H 	H 	0.09080 0.73199 0.40374 0.06100
C 	C 	0.99311 0.75470 0.36360 -0.00900
N 	N 	0.92762 0.66236 0.30179 -0.19000
H 	H 	0.00705 0.60783 0.28237 0.04600
C 	C 	0.03156 0.81493 0.34535 -0.09200
C 	C 	0.02729 0.86737 0.36009 0.13500
C 	C 	0.98488 0.85923 0.39387 -0.12000
C 	C 	0.93695 0.79688 0.40823 -0.02100
C 	C 	0.94114 0.74434 0.39359 0.05900
H 	H 	0.06814 0.82186 0.32095 0.05700
N 	N 	0.06591 0.92577 0.34249 -0.20600
H 	H 	0.90157 0.79023 0.43307 0.03500
N 	N 	0.89623 0.68455 0.40877 -0.19200
H 	H 	0.09963 0.93215 0.31835 0.08500
H 	H 	0.06070 0.96467 0.35180 0.10200
H 	H 	0.85958 0.67765 0.43169 0.07600
H 	H 	0.89542 0.64414 0.39721 0.08400
H 	H 	0.90950 0.63555 0.27649 0.07800
H 	H 	0.89619 0.68295 0.31192 0.08400
H 	H 	0.18018 0.63558 0.38090 0.09300
H 	H 	0.17596 0.69102 0.41379 0.08400
C 	C 	0.80667 0.29369 0.84684 -0.10600
C 	C 	0.79735 0.31603 0.88284 0.12300
C 	C 	0.80835 0.28973 0.91651 -0.09800
C 	C 	0.83051 0.24311 0.91480 0.00000
C 	C 	0.83952 0.22063 0.87877 0.06000
C 	C 	0.82650 0.24565 0.84518 -0.02200
N 	N 	0.77751 0.36227 0.88530 -0.20300
H 	H 	0.80080 0.30634 0.94413 0.05400
C 	C 	0.84367 0.21768 0.95086 0.00200
N 	N 	0.86117 0.17550 0.87621 -0.19200
H 	H 	0.83365 0.22873 0.81757 0.04200
C 	C 	0.78473 0.15890 0.96533 -0.10200
C 	C 	0.80197 0.12213 0.99029 0.13200
C 	C 	0.87953 0.14377 0.99943 -0.11400
C 	C 	0.93518 0.20804 0.99149 -0.01500
C 	C 	0.91822 0.24517 0.96669 0.05600
H 	H 	0.72635 0.13991 0.95532 0.05700
N 	N 	0.74435 0.06582 0.00472 -0.21200
H 	H 	0.99379 0.22666 0.00108 0.03500
N 	N 	0.97414 0.30591 0.95712 -0.19400
H 	H 	0.68768 0.04787 0.99580 0.08600
H 	H 	0.75453 0.04166 0.02665 0.10300
H 	H 	0.02981 0.32497 0.96784 0.08600
H 	H 	0.96242 0.33538 0.93989 0.08700
H 	H 	0.86721 0.15905 0.84949 0.08100
H 	H 	0.87278 0.15661 0.90049 0.08900
H 	H 	0.76782 0.38222 0.86092 0.08600
H 	H 	0.77094 0.37849 0.91200 0.08200
C 	C 	0.00346 0.86433 0.93067 -0.10500
C 	C 	0.99045 0.85427 0.89087 0.12600
C 	C 	0.96962 0.79388 0.87531 -0.09800
C 	C 	0.96594 0.74469 0.89838 0.00200
C 	C 	0.98793 0.75732 0.93735 0.05300
C 	C 	0.00516 0.81690 0.95334 -0.02200
N 	N 	0.99822 0.90251 0.86750 -0.20700
H 	H 	0.95593 0.78498 0.84511 0.05600
C 	C 	0.93872 0.68041 0.88108 -0.00000
N 	N 	0.99107 0.71227 0.95962 -0.19500
H 	H 	0.01712 0.82538 0.98371 0.04100
C 	C 	0.98689 0.67365 0.85506 -0.10300
C 	C 	0.95584 0.62764 0.82569 0.12100
C 	C 	0.87634 0.57963 0.82673 -0.10400
C 	C 	0.83059 0.58084 0.85671 -0.02800
C 	C 	0.86035 0.63185 0.88314 0.06000
H 	H 	0.04747 0.70991 0.85443 0.05900
N 	N 	0.00095 0.63326 0.79537 -0.19700
H 	H 	0.77100 0.54282 0.85895 0.04600
N 	N 	0.81325 0.63422 0.91011 -0.19300
H 	H 	0.06071 0.65952 0.79809 0.08300
H 	H 	0.97845 0.62171 0.76781 0.09300
H 	H 	0.75505 0.59889 0.91089 0.08200
H 	H 	0.83394 0.67032 0.93090 0.08700
H 	H 	0.00543 0.72142 0.98858 0.08600
H 	H 	0.98056 0.66830 0.94833 0.08500
H 	H 	0.01957 0.94937 0.87772 0.10100
H 	H 	0.98583 0.89406 0.83833 0.08200
C 	C 	0.15408 0.14197 0.91050 -0.12000
C 	C 	0.19773 0.20940 0.91655 0.13200
C 	C 	0.26855 0.24576 0.89794 -0.10200
C 	C 	0.29486 0.21626 0.87239 0.00200
C 	C 	0.24797 0.14979 0.86378 0.05700
C 	C 	0.17735 0.11349 0.88261 -0.02000
N 	N 	0.17163 0.23937 0.93998 -0.20500
H 	H 	0.30339 0.29714 0.90341 0.05600
C 	C 	0.37168 0.25541 0.85498 -0.00000
N 	N 	0.27103 0.12034 0.83815 -0.19200
H 	H 	0.14291 0.06201 0.87740 0.04500
C 	C 	0.43647 0.26473 0.87528 -0.09700
C 	C 	0.50992 0.29882 0.85879 0.12600
C 	C 	0.51768 0.32049 0.82053 -0.10800
C 	C 	0.45317 0.31336 0.80088 -0.02400
C 	C 	0.38042 0.28199 0.81796 0.05900
H 	H 	0.42977 0.24590 0.90411 0.05600
N 	N 	0.57264 0.31261 0.88020 -0.20300
H 	H 	0.45921 0.33069 0.77175 0.04900
N 	N 	0.31913 0.27675 0.79848 -0.19200
H 	H 	0.56625 0.29373 0.90778 0.08400
H 	H 	0.62800 0.34513 0.87061 0.09200
H 	H 	0.32594 0.29517 0.77074 0.08100
H 	H 	0.26458 0.25552 0.81078 0.08700
H 	H 	0.23593 0.07125 0.83205 0.08300
H 	H 	0.32374 0.14556 0.82408 0.08900
H 	H 	0.11619 0.21463 0.95138 0.10100
H 	H 	0.20575 0.28865 0.94582 0.08400
C 	C 	0.88394 0.09694 0.53138 -0.11700
C 	C 	0.80902 0.07667 0.54507 0.12900
C 	C 	0.79682 0.11843 0.56819 -0.10000
C 	C 	0.85743 0.18044 0.57683 0.00100
C 	C 	0.92965 0.20352 0.55905 0.05600
C 	C 	0.94202 0.16150 0.53622 -0.01900
N 	N 	0.74897 0.01721 0.53648 -0.20500
H 	H 	0.74057 0.10188 0.58052 0.05600
C 	C 	0.84719 0.21731 0.60793 0.00100
N 	N 	0.98746 0.26543 0.56420 -0.19500
H 	H 	0.99850 0.17793 0.52422 0.03900
C 	C 	0.86178 0.20709 0.64573 -0.09900
C 	C 	0.84367 0.23458 0.67650 0.12800
C 	C 	0.81445 0.27614 0.66904 -0.11500
C 	C 	0.80171 0.28767 0.63115 -0.02000
C 	C 	0.81756 0.25848 0.60045 0.05500
H 	H 	0.88435 0.17539 0.65129 0.05700
N 	N 	0.85155 0.21881 0.71295 -0.20600
H 	H 	0.77945 0.31958 0.62552 0.04500
N 	N 	0.80478 0.27056 0.56398 -0.19200
H 	H 	0.87600 0.19019 0.71812 0.08300
H 	H 	0.83042 0.23206 0.73633 0.10100
H 	H 	0.78204 0.30043 0.55877 0.08100
H 	H 	0.81818 0.25128 0.54047 0.08500
H 	H 	0.04134 0.28153 0.55188 0.08400
H 	H 	0.97903 0.29855 0.57963 0.08500
H 	H 	0.75379 0.98825 0.51579 0.10000
H 	H 	0.69508 0.00104 0.54881 0.08300
C 	C 	0.88714 0.55866 0.66154 -0.11600
C 	C 	0.89844 0.62187 0.66458 0.13100
C 	C 	0.92328 0.66234 0.63259 -0.10100
C 	C 	0.95136 0.64663 0.60026 0.00500
C 	C 	0.94788 0.58629 0.59845 0.05300
C 	C 	0.91308 0.54183 0.62856 -0.02200
N 	N 	0.89152 0.64564 0.69870 -0.20300
H 	H 	0.92737 0.70909 0.63416 0.05900
C 	C 	0.99140 0.69694 0.57073 -0.00800
N 	N 	0.97688 0.57050 0.56791 -0.19500
H 	H 	0.90592 0.49408 0.62619 0.04600
C 	C 	0.06321 0.75018 0.58001 -0.09100
C 	C 	0.08518 0.81156 0.56534 0.12500
C 	C 	0.03537 0.81844 0.53971 -0.10500
C 	C 	0.97350 0.76279 0.52374 -0.02800
C 	C 	0.94978 0.70191 0.53972 0.06200
H 	H 	0.09816 0.74516 0.60175 0.05400
N 	N 	0.15278 0.86338 0.57662 -0.20500
H 	H 	0.93891 0.76757 0.50169 0.03500
N 	N 	0.88530 0.64914 0.52645 -0.19300
H 	H 	0.18601 0.85837 0.59776 0.08200
H 	H 	0.17557 0.90781 0.56289 0.10000
H 	H 	0.85289 0.65359 0.50462 0.07800
H 	H 	0.86780 0.60310 0.53703 0.08600
H 	H 	0.97383 0.52579 0.56680 0.07900
H 	H 	0.00272 0.60228 0.54507 0.08800
H 	H 	0.89531 0.62564 0.72447 0.09900
H 	H 	0.89160 0.68915 0.69982 0.08300
C 	C 	0.54100 0.32346 0.66649 -0.11400
C 	C 	0.48037 0.33510 0.67465 0.12800
C 	C 	0.40828 0.29621 0.65762 -0.09900
C 	C 	0.39726 0.24861 0.63105 0.00100
C 	C 	0.46103 0.24392 0.61859 0.05800
C 	C 	0.53216 0.28066 0.63703 -0.02100
N 	N 	0.49093 0.38310 0.69894 -0.20300
H 	H 	0.36027 0.30204 0.66569 0.05500
C 	C 	0.31820 0.20153 0.61828 0.00100
N 	N 	0.45413 0.20395 0.58936 -0.19200
H 	H 	0.57959 0.27355 0.62972 0.04100
C 	C 	0.28142 0.22135 0.59227 -0.10100
C 	C 	0.20996 0.17649 0.57662 0.13000
C 	C 	0.17758 0.11009 0.58513 -0.11700
C 	C 	0.21097 0.09110 0.61364 -0.02200
C 	C 	0.28037 0.13657 0.63098 0.05800
H 	H 	0.30866 0.27171 0.58401 0.05500
N 	N 	0.17217 0.19735 0.55391 -0.20400
H 	H 	0.18473 0.04052 0.62122 0.04600
N 	N 	0.31040 0.11763 0.65954 -0.19200
H 	H 	0.19803 0.24592 0.54609 0.08400
H 	H 	0.11548 0.16624 0.54543 0.10300
H 	H 	0.28357 0.06918 0.66774 0.08200
H 	H 	0.35885 0.15095 0.67480 0.08900
H 	H 	0.50074 0.19900 0.58130 0.08100
H 	H 	0.40351 0.17927 0.57350 0.08600
H 	H 	0.54520 0.41595 0.70965 0.08500
H 	H 	0.44500 0.38952 0.70622 0.08100
