data_crystal

_cell_length_a 18.57874
_cell_length_b 18.80139
_cell_length_c 35.05134
_cell_angle_alpha 95.42109
_cell_angle_beta  95.42098
_cell_angle_gamma 126.42287

_symmetry_space_group_name_	'P 1'
_symmetry_space_group_name_H-M	'P 1'

loop_
_symmetry_equiv_pos_as_xyz
  x,y,z

loop_
_atom_site_label
_atom_site_type_symbol
_atom_site_fract_x
_atom_site_fract_y
_atom_site_fract_z
_atom_site_charge
C 	C 	0.91529 0.00270 0.95930 0.15200
N 	N 	0.86731 0.91349 0.96074 -0.07200
C 	C 	0.91008 0.87455 0.96072 0.16200
N 	N 	0.00087 0.92553 0.96123 -0.06600
C 	C 	0.04891 0.01457 0.96080 0.18000
N 	N 	0.00583 0.05266 0.95899 -0.06200
C 	C 	0.93932 0.03668 0.50453 0.15300
N 	N 	0.03029 0.08841 0.50448 -0.06400
C 	C 	0.07394 0.05057 0.50501 0.17900
N 	N 	0.02614 0.96091 0.50381 -0.06500
C 	C 	0.93524 0.90902 0.50283 0.16500
N 	N 	0.89208 0.94706 0.50385 -0.07100
Cu	Cu	0.76072 0.34780 0.95843 0.93800
Cu	Cu	0.75497 0.27986 0.04173 0.93200
Cu	Cu	0.61937 0.30384 0.00938 0.91600
Cu	Cu	0.59020 0.34080 0.93050 0.92400
C 	C 	0.69226 0.31700 0.87664 0.31300
O 	O 	0.81199 0.47853 0.95723 -0.30900
C 	C 	0.67277 0.32271 0.09397 0.30600
O 	O 	0.61914 0.27377 0.95532 -0.63500
O 	O 	0.75247 0.36320 0.01414 -0.62700
O 	O 	0.82495 0.29177 0.96194 -0.30200
O 	O 	0.72893 0.19483 0.99841 -0.35800
O 	O 	0.65586 0.35718 0.88627 -0.33800
O 	O 	0.48867 0.23738 0.00222 -0.32800
C 	C 	0.43658 0.22992 0.97127 0.30800
C 	C 	0.77139 0.51201 0.97009 0.29900
O 	O 	0.68740 0.45729 0.97549 -0.33100
O 	O 	0.47096 0.28683 0.94696 -0.30400
O 	O 	0.74487 0.31324 0.90317 -0.32400
C 	C 	0.78946 0.21755 0.97617 0.30300
O 	O 	0.62118 0.32431 0.06583 -0.32400
O 	O 	0.74807 0.33465 0.08837 -0.33300
H 	H 	0.57968 0.20846 0.94444 0.22200
H 	H 	0.79178 0.42602 0.02868 0.24400
Cu	Cu	0.60643 0.20645 0.50765 0.94000
Cu	Cu	0.66758 0.20737 0.42280 0.92600
Cu	Cu	0.65235 0.34594 0.45669 0.91500
Cu	Cu	0.62065 0.37818 0.53632 0.92400
C 	C 	0.64337 0.27535 0.58969 0.31300
O 	O 	0.47671 0.15977 0.51075 -0.31000
C 	C 	0.61911 0.28741 0.37125 0.30900
O 	O 	0.68482 0.34631 0.51043 -0.63500
O 	O 	0.58781 0.21383 0.45208 -0.63000
O 	O 	0.65676 0.13797 0.50254 -0.30000
O 	O 	0.75429 0.22919 0.46486 -0.36200
O 	O 	0.60532 0.31426 0.58087 -0.33700
O 	O 	0.72363 0.47535 0.46369 -0.33000
C 	C 	0.73153 0.52807 0.49420 0.31100
C 	C 	0.44383 0.20051 0.49779 0.29800
O 	O 	0.49989 0.28341 0.49240 -0.32800
O 	O 	0.67543 0.49535 0.51918 -0.30400
O 	O 	0.64471 0.22247 0.56258 -0.32400
C 	C 	0.73010 0.16965 0.48740 0.30300
O 	O 	0.62775 0.34364 0.40047 -0.31700
O 	O 	0.60960 0.21409 0.37685 -0.34500
H 	H 	0.75111 0.38390 0.52071 0.21800
H 	H 	0.52377 0.17663 0.43824 0.24700
C 	C 	0.64480 0.19600 0.68507 -0.05900
C 	C 	0.68842 0.27667 0.71190 0.03500
C 	C 	0.72581 0.35797 0.69824 0.08200
C 	C 	0.71601 0.35720 0.65807 0.00500
C 	C 	0.66650 0.27575 0.63123 -0.06700
C 	C 	0.63165 0.19465 0.64488 0.14500
C 	C 	0.68744 0.27468 0.75400 0.03400
N 	N 	0.77081 0.44105 0.72511 -0.02000
H 	H 	0.74367 0.41976 0.64776 0.09900
N 	N 	0.57831 0.11036 0.61826 -0.02400
H 	H 	0.61665 0.13347 0.69547 0.11300
C 	C 	0.60579 0.23792 0.76819 0.08400
C 	C 	0.60765 0.24673 0.80846 0.00500
C 	C 	0.69055 0.29457 0.83489 -0.06600
C 	C 	0.77195 0.32874 0.82069 0.14400
C 	C 	0.76949 0.31662 0.78037 -0.05900
N 	N 	0.52131 0.19462 0.74180 -0.02000
H 	H 	0.54485 0.21967 0.81919 0.10000
N 	N 	0.85772 0.38033 0.84694 -0.02400
H 	H 	0.83227 0.34425 0.76956 0.11100
O 	O 	0.49669 0.07723 0.60083 -0.03100
O 	O 	0.60806 0.06307 0.61416 -0.02500
O 	O 	0.85583 0.50644 0.72563 -0.02000
O 	O 	0.72495 0.45384 0.74679 -0.02200
O 	O 	0.90519 0.35033 0.84994 -0.02900
O 	O 	0.89204 0.46069 0.86510 -0.03500
O 	O 	0.45476 0.11061 0.74106 -0.01500
O 	O 	0.50843 0.24098 0.72083 -0.02200
C 	C 	0.67640 0.38928 0.28056 -0.06000
C 	C 	0.60771 0.31521 0.25174 0.03500
C 	C 	0.53516 0.23683 0.26287 0.08100
C 	C 	0.53697 0.23011 0.30238 0.00800
C 	C 	0.60963 0.30151 0.33099 -0.06100
C 	C 	0.67776 0.38287 0.32010 0.13600
C 	C 	0.61965 0.31460 0.21056 0.03200
N 	N 	0.46086 0.16298 0.23397 -0.01800
H 	H 	0.48269 0.16863 0.31076 0.10900
N 	N 	0.75080 0.45764 0.34895 -0.02600
H 	H 	0.73148 0.45025 0.27217 0.10900
C 	C 	0.61361 0.37065 0.18863 0.08400
C 	C 	0.62996 0.37217 0.15031 0.00600
C 	C 	0.65132 0.31753 0.13355 -0.06200
C 	C 	0.65465 0.25962 0.15518 0.13400
C 	C 	0.64029 0.25960 0.19365 -0.05900
N 	N 	0.59110 0.42618 0.20518 -0.01900
H 	H 	0.62660 0.41626 0.13371 0.11000
N 	N 	0.67075 0.19933 0.13784 -0.02600
H 	H 	0.64442 0.21607 0.21036 0.10500
O 	O 	0.76015 0.53231 0.35450 -0.01700
O 	O 	0.81196 0.45350 0.36742 -0.06400
O 	O 	0.43514 0.08187 0.23427 -0.03100
O 	O 	0.41642 0.17620 0.20841 -0.02300
O 	O 	0.61480 0.13853 0.10711 -0.06100
O 	O 	0.73743 0.20087 0.15444 -0.02400
O 	O 	0.64387 0.51218 0.20527 -0.02000
O 	O 	0.51500 0.38998 0.21784 -0.01900
C 	C 	0.89946 0.77885 0.53131 0.03500
C 	C 	0.88362 0.81150 0.49983 0.07800
C 	C 	0.82354 0.75116 0.46492 -0.10500
C 	C 	0.77455 0.65821 0.46363 0.07800
C 	C 	0.78952 0.62555 0.49536 0.00600
C 	C 	0.85619 0.68646 0.52873 -0.06600
C 	C 	0.87943 0.65320 0.56209 0.77600
H 	H 	0.94624 0.82583 0.55774 0.13600
H 	H 	0.72339 0.61088 0.43821 0.10400
C 	C 	0.80888 0.78531 0.42962 0.78800
F 	F 	0.96160 0.72222 0.58601 -0.39200
F 	F 	0.88687 0.58703 0.54786 -0.44000
F 	F 	0.81197 0.61856 0.58429 -0.42100
F 	F 	0.89166 0.85427 0.42142 -0.41300
F 	F 	0.75952 0.81660 0.43705 -0.39900
F 	F 	0.76148 0.71795 0.39672 -0.39700
C 	C 	0.83253 0.05022 0.46465 0.03200
C 	C 	0.88968 0.07484 0.50034 0.07800
C 	C 	0.89137 0.12752 0.53261 -0.10400
C 	C 	0.83716 0.15672 0.52794 0.07400
C 	C 	0.77964 0.13151 0.49225 0.00100
C 	C 	0.77440 0.07476 0.46069 -0.06300
C 	C 	0.70925 0.04271 0.42233 0.76100
H 	H 	0.83235 0.01039 0.44012 0.13200
H 	H 	0.84051 0.20019 0.55184 0.09300
C 	C 	0.95290 0.15492 0.57154 0.76900
F 	F 	0.69850 0.97191 0.39924 -0.37000
F 	F 	0.74286 0.11268 0.40205 -0.46000
F 	F 	0.62416 0.01314 0.42906 -0.43700
F 	F 	0.04294 0.21174 0.56748 -0.35600
F 	F 	0.93605 0.07956 0.58405 -0.39000
F 	F 	0.93901 0.19942 0.60013 -0.40200
C 	C 	0.32053 0.15139 0.53525 0.07200
C 	C 	0.34866 0.16294 0.49914 0.00600
C 	C 	0.28846 0.14673 0.46557 -0.06600
C 	C 	0.20138 0.12056 0.46920 0.03600
C 	C 	0.17209 0.10529 0.50498 0.07600
C 	C 	0.23369 0.12559 0.53880 -0.09900
C 	C 	0.20517 0.11477 0.57832 0.78600
H 	H 	0.36706 0.16377 0.56074 0.09600
H 	H 	0.15424 0.10714 0.44374 0.12400
C 	C 	0.31613 0.15538 0.42584 0.77700
F 	F 	0.28004 0.16084 0.60841 -0.39300
F 	F 	0.15095 0.02459 0.58073 -0.39300
F 	F 	0.15693 0.14834 0.58342 -0.36300
F 	F 	0.35022 0.10802 0.41876 -0.43300
F 	F 	0.38218 0.24502 0.42481 -0.42100
F 	F 	0.24305 0.12149 0.39608 -0.39500
C 	C 	0.84672 0.75001 0.99758 0.02600
C 	C 	0.85933 0.77782 0.96147 0.08000
C 	C 	0.84165 0.71740 0.92803 -0.10500
C 	C 	0.82032 0.63345 0.93220 0.07200
C 	C 	0.81008 0.60646 0.96850 0.00100
C 	C 	0.82505 0.66582 0.00179 -0.06100
C 	C 	0.81805 0.63974 0.04174 0.77500
H 	H 	0.85833 0.79600 0.02281 0.12300
H 	H 	0.80941 0.58788 0.90695 0.09400
C 	C 	0.84998 0.74403 0.88821 0.78700
F 	F 	0.85545 0.71326 0.07125 -0.39800
F 	F 	0.86431 0.60414 0.04831 -0.43200
F 	F 	0.72753 0.57637 0.04374 -0.42100
F 	F 	0.94094 0.80124 0.88553 -0.40200
F 	F 	0.81117 0.78719 0.88262 -0.37000
F 	F 	0.80602 0.66949 0.85854 -0.39700
C 	C 	0.80529 0.11411 0.93504 0.08300
C 	C 	0.82594 0.16619 0.97155 -0.00100
C 	C 	0.87315 0.16155 0.00426 -0.06100
C 	C 	0.89189 0.09918 0.00029 0.03400
C 	C 	0.87299 0.04839 0.96373 0.08500
C 	C 	0.82848 0.05498 0.93072 -0.12400
C 	C 	0.80615 0.99942 0.89099 0.82300
H 	H 	0.76984 0.11868 0.91018 0.09200
H 	H 	0.92488 0.09270 0.02545 0.12900
C 	C 	0.90168 0.22116 0.04367 0.77000
F 	F 	0.75748 0.01052 0.86302 -0.41000
F 	F 	0.75426 0.90916 0.89325 -0.37600
F 	F 	0.88588 0.02492 0.87899 -0.40300
F 	F 	0.82737 0.18595 0.06186 -0.45700
F 	F 	0.93584 0.30774 0.03929 -0.44600
F 	F 	0.96911 0.22657 0.06760 -0.38800
C 	C 	0.18357 0.05561 0.93325 0.03800
C 	C 	0.14811 0.07019 0.96398 0.07700
C 	C 	0.20760 0.13373 0.99833 -0.10400
C 	C 	0.30208 0.18621 0.99985 0.07500
C 	C 	0.33751 0.17158 0.96909 0.00800
C 	C 	0.27796 0.10312 0.93611 -0.06500
C 	C 	0.31475 0.08210 0.90355 0.77600
H 	H 	0.13725 0.00655 0.90719 0.14100
H 	H 	0.34843 0.23925 0.02481 0.10400
C 	C 	0.17076 0.14805 0.03278 0.78900
F 	F 	0.24701 0.00112 0.87894 -0.38700
F 	F 	0.38183 0.07586 0.91888 -0.44000
F 	F 	0.35088 0.14953 0.88174 -0.42100
F 	F 	0.10386 0.06634 0.04209 -0.40500
F 	F 	0.13449 0.19196 0.02350 -0.39300
F 	F 	0.23850 0.19953 0.06565 -0.39400
