data_crystal

_cell_length_a 40.00032
_cell_length_b 41.26563
_cell_length_c 22.39683
_cell_angle_alpha 89.82514
_cell_angle_beta  89.99997
_cell_angle_gamma 89.99974

_symmetry_space_group_name_	'P 1'
_symmetry_space_group_name_H-M	'P 1'

loop_
_symmetry_equiv_pos_as_xyz
  x,y,z

loop_
_atom_site_label
_atom_site_type_symbol
_atom_site_fract_x
_atom_site_fract_y
_atom_site_fract_z
_atom_site_charge
C 	C 	0.49273 0.56329 0.97670 0.03700
N 	N 	0.47374 0.53984 0.00104 -0.12900
C 	C 	0.44421 0.54078 0.97240 0.07900
C 	C 	0.41435 0.52295 0.99361 -0.09300
C 	C 	0.41847 0.49046 0.02086 0.13500
C 	C 	0.38070 0.53763 0.98853 0.00900
C 	C 	0.37370 0.56714 0.01689 -0.00300
C 	C 	0.34143 0.58011 0.01484 0.00500
C 	C 	0.31589 0.56361 0.98463 0.01500
C 	C 	0.35530 0.52146 0.95731 -0.03800
N 	N 	0.44712 0.47338 0.01674 -0.12100
C 	C 	0.39812 0.47810 0.06526 -0.06200
C 	C 	0.44477 0.44982 0.05827 0.09700
C 	C 	0.46558 0.42041 0.05594 -0.06700
C 	C 	0.44975 0.38877 0.04474 0.08900
C 	C 	0.43150 0.34761 0.97492 -0.05400
C 	C 	0.44283 0.36778 0.09248 -0.04600
C 	C 	0.43039 0.33672 0.08147 -0.01500
C 	C 	0.42564 0.32619 0.02254 0.06800
N 	N 	0.51872 0.44848 0.08275 -0.16900
C 	C 	0.55090 0.44571 0.06556 0.09400
C 	C 	0.55530 0.41812 0.03136 -0.01400
C 	C 	0.52433 0.40337 0.02779 -0.01400
C 	C 	0.57537 0.47269 0.06855 -0.05000
C 	C 	0.61173 0.46580 0.06415 0.03700
C 	C 	0.66548 0.47535 0.01681 0.01300
C 	C 	0.67942 0.44953 0.04924 0.03000
C 	C 	0.65953 0.43223 0.08994 -0.01200
C 	C 	0.62599 0.44066 0.09807 -0.03400
N 	N 	0.54380 0.51949 0.02876 -0.11600
C 	C 	0.56726 0.55951 0.08250 -0.05000
C 	C 	0.54642 0.55185 0.03542 0.09500
C 	C 	0.52388 0.57512 0.00502 -0.03300
C 	C 	0.53242 0.60996 0.00299 0.09700
C 	C 	0.56204 0.62026 0.97526 -0.10400
C 	C 	0.56960 0.65328 0.97179 0.00300
C 	C 	0.54754 0.67622 0.99580 -0.01200
C 	C 	0.51796 0.66591 0.02363 0.04200
C 	C 	0.51056 0.63289 0.02765 -0.06700
C 	C 	0.47525 0.57949 0.93224 -0.03700
C 	C 	0.44408 0.56501 0.92948 -0.05700
C 	C 	0.32298 0.53431 0.95566 -0.02300
C 	C 	0.41467 0.45168 0.08853 -0.04400
C 	C 	0.50249 0.42273 0.05983 0.10300
C 	C 	0.57864 0.53045 0.10504 -0.04700
C 	C 	0.56344 0.50651 0.07145 0.09200
C 	C 	0.63174 0.48328 0.02383 -0.00300
H 	H 	0.47702 0.53072 0.04425 0.10400
H 	H 	0.50741 0.46968 0.09822 0.10500
H 	H 	0.59247 0.66105 0.95013 0.05600
H 	H 	0.50071 0.68350 0.04199 0.06800
H 	H 	0.57903 0.60271 0.95604 0.06600
H 	H 	0.48770 0.62513 0.04934 0.07400
H 	H 	0.33614 0.60271 0.03747 0.07100
H 	H 	0.36051 0.49873 0.93509 0.05800
H 	H 	0.30336 0.52132 0.93249 0.07200
H 	H 	0.39314 0.57976 0.04120 0.06000
H 	H 	0.42534 0.32053 0.11856 0.07900
H 	H 	0.44748 0.37540 0.13798 0.07000
C 	C 	0.44328 0.37889 0.98604 -0.08000
H 	H 	0.42758 0.33980 0.92932 0.07000
H 	H 	0.68063 0.48882 0.98523 0.03200
H 	H 	0.62102 0.50258 0.99710 0.02400
H 	H 	0.61092 0.42727 0.12986 0.06800
H 	H 	0.66999 0.41209 0.11483 0.07900
H 	H 	0.48084 0.60367 0.91619 0.05200
H 	H 	0.42192 0.57626 0.91101 0.06600
H 	H 	0.37184 0.48342 0.07112 0.07900
H 	H 	0.40281 0.43185 0.11215 0.06800
H 	H 	0.57526 0.41471 0.99933 0.03100
H 	H 	0.51701 0.38687 0.99267 0.03700
H 	H 	0.57846 0.58296 0.09058 0.07600
H 	H 	0.60138 0.52745 0.13070 0.07200
H 	H 	0.44833 0.39511 0.94899 0.06300
Co	Co	0.36738 0.13415 0.97943 1.18800
Co	Co	0.38165 0.05855 0.97980 1.12000
O 	O 	0.35895 0.18272 0.98096 -0.32900
O 	O 	0.41015 0.17192 0.96437 -0.22800
O 	O 	0.32358 0.11334 0.99195 -0.40000
O 	O 	0.41239 0.08372 0.92791 -0.41600
C 	C 	0.31486 0.08703 0.96276 0.33600
C 	C 	0.38810 0.19448 0.96987 0.34700
O 	O 	0.33768 0.06881 0.93719 -0.39300
O 	O 	0.37502 0.12143 0.89757 -0.37400
C 	C 	0.40021 0.10226 0.88562 0.33100
O 	O 	0.38518 0.12774 0.05877 -0.32400
O 	O 	0.37016 0.07457 0.06031 -0.39600
C 	C 	0.38603 0.09909 0.08442 0.30700
C 	C 	0.53438 0.01148 0.42501 0.03100
C 	C 	0.50931 0.03605 0.42593 0.04100
C 	C 	0.54988 0.00178 0.47846 -0.04000
C 	C 	0.54002 0.01562 0.53301 0.03300
C 	C 	0.49968 0.05002 0.48036 -0.04500
C 	C 	0.51440 0.03958 0.53401 0.03900
H 	H 	0.48171 0.06967 0.48082 0.08000
H 	H 	0.57025 0.98449 0.47738 0.07900
C 	C 	0.50514 0.05342 0.58922 -0.02000
C 	C 	0.51931 0.04255 0.64317 0.03100
C 	C 	0.49798 0.04712 0.69330 -0.02500
C 	C 	0.46705 0.06031 0.67776 0.01800
S 	S 	0.46697 0.06768 0.60462 0.11900
H 	H 	0.50488 0.04139 0.73882 0.07900
C 	C 	0.55629 0.00756 0.58701 -0.01400
C 	C 	0.54583 0.02033 0.64180 0.03300
C 	C 	0.55668 0.00172 0.69173 -0.02300
C 	C 	0.57531 0.97444 0.67544 0.02200
S 	S 	0.57647 0.97292 0.60092 0.11600
H 	H 	0.54824 0.00582 0.73697 0.07900
C 	C 	0.52736 0.00675 0.31660 0.04000
C 	C 	0.54426 0.99861 0.36926 -0.00400
S 	S 	0.56336 0.96307 0.35832 0.11700
C 	C 	0.55155 0.95752 0.28735 -0.00100
C 	C 	0.53150 0.98372 0.27032 -0.00600
C 	C 	0.49555 0.04668 0.37108 -0.02200
C 	C 	0.50270 0.03069 0.31765 0.03800
C 	C 	0.47777 0.03487 0.27320 -0.03000
C 	C 	0.45095 0.05403 0.29231 0.02300
S 	S 	0.45886 0.06543 0.36254 0.12300
H 	H 	0.48027 0.02631 0.22779 0.08200
H 	H 	0.52169 0.98674 0.22562 0.08500
Co	Co	0.61414 0.86898 0.96992 1.17900
Co	Co	0.53745 0.87724 0.97909 1.12300
O 	O 	0.66405 0.86278 0.95728 -0.33200
O 	O 	0.64896 0.91114 0.93787 -0.30000
O 	O 	0.59695 0.82700 0.99865 -0.39100
O 	O 	0.55657 0.87274 0.06076 -0.36600
C 	C 	0.57055 0.81336 0.97435 0.34400
C 	C 	0.67351 0.89091 0.93892 0.32900
O 	O 	0.54695 0.83124 0.95002 -0.36700
O 	O 	0.60817 0.89399 0.04192 -0.38200
C 	C 	0.58299 0.88902 0.07843 0.31600
O 	O 	0.59757 0.86724 0.88948 -0.39300
O 	O 	0.55721 0.90319 0.91328 -0.41900
C 	C 	0.57584 0.88911 0.87271 0.33300
Co	Co	0.11643 0.62354 0.97753 1.18200
Co	Co	0.03869 0.61382 0.98606 1.11500
O 	O 	0.16656 0.63168 0.97988 -0.33900
O 	O 	0.15501 0.58157 0.99306 -0.29600
O 	O 	0.09575 0.66612 0.96115 -0.35300
O 	O 	0.05277 0.62316 0.90270 -0.40400
C 	C 	0.07146 0.67762 0.99461 0.29900
C 	C 	0.17817 0.60320 0.99026 0.33400
O 	O 	0.05077 0.65775 0.02195 -0.31800
O 	O 	0.10549 0.60210 0.90332 -0.39200
C 	C 	0.07669 0.60673 0.87647 0.31700
O 	O 	0.10592 0.61995 0.06113 -0.35900
O 	O 	0.06423 0.58476 0.03975 -0.39900
C 	C 	0.08538 0.59704 0.07825 0.32400
C 	C 	0.00579 0.50862 0.51620 0.04000
C 	C 	0.98035 0.48458 0.51275 0.04600
C 	C 	0.02984 0.51108 0.47064 -0.03900
C 	C 	0.02846 0.49021 0.42118 0.03400
C 	C 	0.97925 0.46345 0.46374 -0.03900
C 	C 	0.00295 0.46625 0.41770 0.04400
H 	H 	0.95996 0.44509 0.46124 0.08100
H 	H 	0.04934 0.52921 0.47346 0.07700
C 	C 	0.00214 0.44549 0.36770 -0.01500
C 	C 	0.02388 0.45007 0.31910 0.03900
C 	C 	0.01133 0.43700 0.26475 -0.00700
C 	C 	0.97991 0.42269 0.27151 0.00000
S 	S 	0.96794 0.42677 0.34233 0.12900
H 	H 	0.02289 0.44068 0.22162 0.08500
C 	C 	0.05218 0.49233 0.37456 -0.00600
C 	C 	0.04905 0.47368 0.32259 0.03600
C 	C 	0.06542 0.48764 0.27221 -0.01300
C 	C 	0.08130 0.51702 0.28516 0.03100
S 	S 	0.07366 0.52564 0.35668 0.09100
H 	H 	0.06222 0.47904 0.22702 0.09800
C 	C 	0.98290 0.52675 0.61226 0.03600
C 	C 	0.00557 0.53034 0.56485 -0.01100
S 	S 	0.03867 0.55090 0.59010 0.11400
C 	C 	0.02472 0.55719 0.65928 0.00100
C 	C 	0.99370 0.54201 0.66576 -0.00400
C 	C 	0.95592 0.48316 0.55827 -0.01400
C 	C 	0.95807 0.50285 0.60917 0.03700
C 	C 	0.94071 0.48995 0.65934 -0.00700
C 	C 	0.92525 0.46037 0.64682 -0.00200
S 	S 	0.93382 0.45020 0.57652 0.12600
H 	H 	0.94212 0.49992 0.70388 0.08100
H 	H 	0.98058 0.54045 0.70790 0.08200
Co	Co	0.86838 0.36831 0.96791 1.18300
Co	Co	0.88028 0.44391 0.96740 1.10000
O 	O 	0.86066 0.31957 0.96590 -0.32000
O 	O 	0.91251 0.33111 0.97274 -0.24600
O 	O 	0.82345 0.38812 0.96566 -0.34400
O 	O 	0.91495 0.41941 0.01231 -0.41000
C 	C 	0.81586 0.41376 0.99788 0.23900
C 	C 	0.89051 0.30835 0.97095 0.32300
O 	O 	0.83964 0.43266 0.01860 -0.35900
O 	O 	0.88082 0.38023 0.04825 -0.35300
C 	C 	0.90618 0.39985 0.05584 0.32500
O 	O 	0.88194 0.37670 0.88639 -0.38400
O 	O 	0.86302 0.42879 0.88953 -0.40200
C 	C 	0.87724 0.40494 0.86049 0.31900
C 	C 	0.98619 0.92620 0.01387 0.18000
N 	N 	0.97007 0.95157 0.98928 -0.22000
C 	C 	0.93781 0.94894 0.00603 0.17700
C 	C 	0.91042 0.96810 0.97820 -0.10700
C 	C 	0.91671 0.00173 0.95747 0.10500
C 	C 	0.87671 0.95390 0.97203 0.01800
C 	C 	0.86521 0.94403 0.91582 -0.04200
C 	C 	0.83230 0.93327 0.90893 -0.01900
C 	C 	0.81080 0.93201 0.95837 0.00300
C 	C 	0.85535 0.95227 0.02159 -0.01000
N 	N 	0.94530 0.01768 0.96911 -0.13000
C 	C 	0.89258 0.02254 0.93504 -0.05900
C 	C 	0.93983 0.04857 0.95234 0.08500
C 	C 	0.96324 0.07531 0.96694 -0.04800
C 	C 	0.95144 0.10927 0.96513 -0.00200
C 	C 	0.93326 0.15777 0.01679 0.00900
C 	C 	0.94743 0.12521 0.91020 -0.03000
C 	C 	0.93609 0.15725 0.90853 -0.01800
C 	C 	0.92960 0.17388 0.96190 0.01000
N 	N 	0.01407 0.04025 0.97447 -0.16000
C 	C 	0.04583 0.04439 0.99275 0.06200
C 	C 	0.05002 0.07488 0.01751 -0.01100
C 	C 	0.01918 0.08990 0.01451 -0.01400
C 	C 	0.07348 0.02264 0.97454 -0.05000
C 	C 	0.10798 0.03510 0.97084 -0.00100
C 	C 	0.16079 0.04731 0.01888 0.01000
C 	C 	0.17499 0.05455 0.96315 0.00600
C 	C 	0.15542 0.05239 0.91130 -0.01700
C 	C 	0.12190 0.04302 0.91524 -0.03200
N 	N 	0.04362 0.97148 0.99992 -0.12900
C 	C 	0.07121 0.93658 0.94024 -0.06000
C 	C 	0.04606 0.94036 0.98211 0.10100
C 	C 	0.01997 0.91586 0.99453 -0.10900
C 	C 	0.02880 0.88114 0.99391 0.01600
C 	C 	0.04117 0.86621 0.04572 -0.00700
C 	C 	0.04855 0.83311 0.04573 0.00700
C 	C 	0.04400 0.81479 0.99369 0.01300
C 	C 	0.03252 0.82995 0.94137 -0.01900
C 	C 	0.02457 0.86294 0.94171 -0.04100
C 	C 	0.96417 0.90701 0.04614 -0.06500
C 	C 	0.93318 0.92158 0.04113 -0.06300
C 	C 	0.82270 0.94083 0.01499 0.02200
C 	C 	0.90743 0.05265 0.93176 -0.04500
C 	C 	0.99773 0.06786 0.98794 0.06300
C 	C 	0.08519 0.96679 0.93243 -0.05000
C 	C 	0.06760 0.98739 0.96939 0.08300
C 	C 	0.12748 0.03739 0.02265 0.00100
H 	H 	0.97813 0.96359 0.95075 0.10700
H 	H 	0.00710 0.02443 0.94032 0.10100
H 	H 	0.05756 0.82164 0.08623 0.07100
H 	H 	0.02933 0.81608 0.90078 0.07500
H 	H 	0.04460 0.88017 0.08615 0.06600
H 	H 	0.01518 0.87437 0.90145 0.05900
H 	H 	0.82339 0.92632 0.86512 0.06900
H 	H 	0.86400 0.96005 0.06509 0.06800
H 	H 	0.80640 0.93948 0.05356 0.07800
H 	H 	0.88155 0.94533 0.87731 0.06200
H 	H 	0.93275 0.16930 0.86590 0.07500
H 	H 	0.95293 0.11271 0.86888 0.06200
C 	C 	0.94378 0.12549 0.01835 0.00100
H 	H 	0.92806 0.17031 0.05819 0.07600
H 	H 	0.17573 0.04888 0.05911 0.07400
H 	H 	0.11687 0.03124 0.06573 0.06500
H 	H 	0.10697 0.04125 0.87502 0.05900
H 	H 	0.16626 0.05769 0.86803 0.07400
H 	H 	0.96801 0.88168 0.05677 0.08500
H 	H 	0.90964 0.90910 0.04729 0.07900
H 	H 	0.86588 0.01847 0.93729 0.07200
H 	H 	0.89391 0.07536 0.93109 0.06200
H 	H 	0.07361 0.08756 0.02114 0.07500
H 	H 	0.01551 0.11587 0.01545 0.07600
H 	H 	0.07257 0.91714 0.90799 0.06300
H 	H 	0.09959 0.97423 0.89384 0.06000
H 	H 	0.94640 0.11319 0.06090 0.06500
C 	C 	0.91890 0.20815 0.96046 0.00100
C 	C 	0.94108 0.23269 0.94189 0.14900
C 	C 	0.93099 0.26513 0.94325 -0.02200
C 	C 	0.89924 0.27366 0.96500 -0.06500
C 	C 	0.87718 0.24901 0.98444 0.17200
C 	C 	0.88690 0.21649 0.98088 -0.07900
H 	H 	0.94818 0.28382 0.92851 0.11400
H 	H 	0.86986 0.19767 0.99568 0.08700
Cl	Cl	0.98222 0.22333 0.91970 -0.26900
Cl	Cl	0.83833 0.25835 0.01731 -0.19300
C 	C 	0.87819 0.43618 0.70274 -0.00000
C 	C 	0.91270 0.43772 0.69255 0.10400
C 	C 	0.93483 0.42100 0.73128 -0.13800
C 	C 	0.92241 0.40836 0.78530 0.07400
C 	C 	0.88819 0.41000 0.79842 -0.02200
C 	C 	0.86557 0.42097 0.75421 -0.06400
C 	C 	0.82812 0.41794 0.76287 0.77600
H 	H 	0.86125 0.44800 0.67179 0.09800
H 	H 	0.93948 0.39871 0.81845 0.07900
C 	C 	0.97155 0.41707 0.71578 0.79200
F 	F 	0.81164 0.41846 0.70851 -0.41800
F 	F 	0.81672 0.44349 0.79704 -0.42600
F 	F 	0.82034 0.38900 0.79101 -0.41000
F 	F 	0.98780 0.44643 0.72148 -0.40400
F 	F 	0.97494 0.40611 0.65783 -0.42500
F 	F 	0.98704 0.39481 0.75300 -0.41000
C 	C 	0.91799 0.43357 0.14448 0.08300
C 	C 	0.92139 0.40373 0.11538 -0.01900
C 	C 	0.94158 0.37911 0.14090 -0.05600
C 	C 	0.95867 0.38538 0.19451 -0.00100
C 	C 	0.95704 0.41591 0.22146 0.10800
C 	C 	0.93619 0.44034 0.19674 -0.14000
C 	C 	0.93219 0.47309 0.22700 0.79400
H 	H 	0.90165 0.45179 0.12535 0.06300
H 	H 	0.97439 0.36687 0.21436 0.10700
C 	C 	0.94622 0.34681 0.10970 0.77100
F 	F 	0.91331 0.49426 0.19277 -0.42800
F 	F 	0.96303 0.48738 0.23616 -0.44400
F 	F 	0.91620 0.46909 0.28123 -0.43500
F 	F 	0.96011 0.35188 0.05391 -0.41300
F 	F 	0.91568 0.33148 0.10378 -0.42000
F 	F 	0.96723 0.32632 0.14126 -0.41400
C 	C 	0.05092 0.77963 0.99420 -0.03100
C 	C 	0.02464 0.75704 0.99005 0.15000
C 	C 	0.03167 0.72384 0.98995 -0.01300
C 	C 	0.06472 0.71278 0.99541 -0.10700
C 	C 	0.09093 0.73541 0.00167 0.23900
C 	C 	0.08394 0.76865 0.00017 -0.04600
H 	H 	0.01137 0.70661 0.98560 0.08300
H 	H 	0.10417 0.78596 0.00443 0.10200
Cl	Cl	0.98268 0.76995 0.98693 -0.29200
Cl	Cl	0.13229 0.72259 0.01515 -0.23400
C 	C 	0.06966 0.56054 0.80758 0.07700
C 	C 	0.07144 0.59413 0.81583 -0.02400
C 	C 	0.06438 0.61523 0.76754 -0.06200
C 	C 	0.05019 0.60245 0.71524 -0.00100
C 	C 	0.04550 0.56897 0.70904 0.10300
C 	C 	0.05796 0.54759 0.75349 -0.14200
C 	C 	0.05664 0.51109 0.74568 0.79500
H 	H 	0.07596 0.54450 0.84432 0.07100
H 	H 	0.04155 0.61862 0.68027 0.09800
C 	C 	0.07017 0.65146 0.77265 0.77300
F 	F 	0.07981 0.49590 0.78221 -0.41400
F 	F 	0.06382 0.50242 0.68748 -0.42000
F 	F 	0.02516 0.49998 0.76070 -0.41900
F 	F 	0.09965 0.65772 0.80285 -0.42400
F 	F 	0.04382 0.66546 0.80307 -0.43200
F 	F 	0.07251 0.66575 0.71680 -0.42000
C 	C 	0.06309 0.56685 0.23187 0.01200
C 	C 	0.08691 0.54220 0.23936 0.09700
C 	C 	0.11391 0.53967 0.19879 -0.12600
C 	C 	0.11395 0.55905 0.14701 0.08300
C 	C 	0.08887 0.58223 0.13767 -0.00600
C 	C 	0.06468 0.58786 0.18246 -0.06600
C 	C 	0.03937 0.61502 0.17590 0.77400
H 	H 	0.04257 0.56877 0.26325 0.10200
H 	H 	0.13258 0.55512 0.11266 0.09900
C 	C 	0.14139 0.51485 0.20851 0.79200
F 	F 	0.02326 0.62125 0.22937 -0.41500
F 	F 	0.01568 0.60650 0.13380 -0.45200
F 	F 	0.05515 0.64324 0.15789 -0.42200
F 	F 	0.12962 0.48436 0.19411 -0.42500
F 	F 	0.15162 0.51497 0.26753 -0.41900
F 	F 	0.16903 0.52146 0.17338 -0.40700
C 	C 	0.70878 0.90156 0.94077 -0.08800
C 	C 	0.73512 0.87974 0.92874 0.20600
C 	C 	0.76832 0.88988 0.93495 -0.09200
C 	C 	0.77566 0.92196 0.95071 0.00900
C 	C 	0.74944 0.94426 0.95903 0.14200
C 	C 	0.71626 0.93393 0.95486 -0.01500
H 	H 	0.78847 0.87286 0.92698 0.09600
H 	H 	0.69626 0.95110 0.96276 0.10300
Cl	Cl	0.72712 0.84033 0.90215 -0.26200
Cl	Cl	0.75782 0.98550 0.97282 -0.27600
C 	C 	0.54938 0.92775 0.72772 0.00400
C 	C 	0.57825 0.94559 0.71397 0.10100
C 	C 	0.60841 0.93899 0.74461 -0.13300
C 	C 	0.60783 0.91819 0.79445 0.08300
C 	C 	0.57797 0.90325 0.81236 -0.01500
C 	C 	0.54931 0.90566 0.77564 -0.06200
C 	C 	0.51802 0.88625 0.78938 0.77000
H 	H 	0.52655 0.93234 0.70302 0.10300
H 	H 	0.63011 0.91502 0.82132 0.08400
C 	C 	0.64056 0.95611 0.72724 0.79400
F 	F 	0.49785 0.88363 0.73939 -0.41100
F 	F 	0.50012 0.90146 0.83405 -0.44900
F 	F 	0.52627 0.85522 0.80776 -0.42300
F 	F 	0.63859 0.98840 0.74315 -0.42800
F 	F 	0.64550 0.95390 0.66626 -0.42500
F 	F 	0.66805 0.94249 0.75529 -0.42400
C 	C 	0.56169 0.90431 0.24017 0.00400
C 	C 	0.56999 0.93722 0.24441 0.10600
C 	C 	0.59076 0.95138 0.20017 -0.13900
C 	C 	0.59576 0.93483 0.14623 0.08100
C 	C 	0.58386 0.90310 0.13904 -0.01500
C 	C 	0.57027 0.88649 0.18896 -0.06300
C 	C 	0.56424 0.85020 0.18785 0.77500
H 	H 	0.54723 0.89298 0.27545 0.10200
H 	H 	0.60782 0.94705 0.10911 0.08900
C 	C 	0.60636 0.98456 0.20871 0.79400
F 	F 	0.56543 0.83744 0.24506 -0.41400
F 	F 	0.58840 0.83461 0.15427 -0.42300
F 	F 	0.53304 0.84394 0.16396 -0.42700
F 	F 	0.61453 0.98972 0.26791 -0.42900
F 	F 	0.58432 0.00828 0.18991 -0.43100
F 	F 	0.63549 0.98728 0.17566 -0.41100
C 	C 	0.27931 0.07798 0.95896 -0.10400
C 	C 	0.26872 0.04622 0.97279 0.21100
C 	C 	0.23467 0.03858 0.97172 -0.09800
C 	C 	0.21085 0.06254 0.95890 0.00900
C 	C 	0.22137 0.09429 0.94534 0.13800
C 	C 	0.25548 0.10177 0.94488 -0.01300
H 	H 	0.22663 0.01418 0.98253 0.09400
H 	H 	0.26345 0.12625 0.93445 0.09200
Cl	Cl	0.29748 0.01632 0.99583 -0.32700
Cl	Cl	0.19204 0.12522 0.93121 -0.27800
C 	C 	0.39995 0.06875 0.79454 0.08000
C 	C 	0.41066 0.09696 0.82349 -0.02000
C 	C 	0.43546 0.11667 0.79683 -0.05800
C 	C 	0.45251 0.10524 0.74614 0.00100
C 	C 	0.44399 0.07536 0.72067 0.10200
C 	C 	0.41604 0.05799 0.74245 -0.13600
C 	C 	0.40500 0.02674 0.71283 0.79300
H 	H 	0.38033 0.05426 0.81464 0.06700
H 	H 	0.47347 0.11873 0.72813 0.10000
C 	C 	0.44487 0.14901 0.82407 0.77000
F 	F 	0.37464 0.01599 0.73504 -0.42100
F 	F 	0.42871 0.00293 0.72271 -0.42800
F 	F 	0.40136 0.03153 0.65203 -0.42100
F 	F 	0.46100 0.14393 0.87790 -0.41700
F 	F 	0.41640 0.16729 0.83359 -0.42400
F 	F 	0.46588 0.16661 0.78704 -0.42000
C 	C 	0.44752 0.09574 0.21294 0.00200
C 	C 	0.43100 0.07369 0.25043 0.09900
C 	C 	0.39699 0.06641 0.24026 -0.13200
C 	C 	0.38164 0.07752 0.18755 0.07700
C 	C 	0.39976 0.09566 0.14540 -0.01100
C 	C 	0.43260 0.10632 0.15943 -0.06900
C 	C 	0.45192 0.12848 0.11738 0.77400
H 	H 	0.47292 0.10276 0.22355 0.10400
H 	H 	0.35610 0.07064 0.17763 0.09500
C 	C 	0.37774 0.04502 0.28347 0.79300
F 	F 	0.48410 0.13417 0.13756 -0.41000
F 	F 	0.43581 0.15804 0.11291 -0.41600
F 	F 	0.45428 0.11458 0.06139 -0.42600
F 	F 	0.38141 0.05648 0.34106 -0.42200
F 	F 	0.38986 0.01367 0.28058 -0.42500
F 	F 	0.34391 0.04447 0.27042 -0.41500
C 	C 	0.41580 0.29238 0.01053 0.05300
C 	C 	0.43824 0.26673 0.02138 0.12900
C 	C 	0.42873 0.23488 0.00890 0.05000
C 	C 	0.39724 0.22826 0.98398 -0.12800
C 	C 	0.37512 0.25409 0.97160 0.22900
C 	C 	0.38432 0.28587 0.98581 -0.14300
H 	H 	0.44597 0.21525 0.01824 0.13400
H 	H 	0.36720 0.30561 0.97654 0.10400
Cl	Cl	0.47889 0.27426 0.04834 -0.23400
Cl	Cl	0.33676 0.24737 0.93497 -0.26000
C 	C 	0.28125 0.57586 0.98674 -0.03300
C 	C 	0.26627 0.58978 0.93583 0.14600
C 	C 	0.23271 0.59940 0.93772 -0.01200
C 	C 	0.21399 0.59537 0.99016 -0.12900
C 	C 	0.22937 0.58274 0.04171 0.23700
C 	C 	0.26279 0.57284 0.03970 -0.04900
H 	H 	0.22107 0.60957 0.89818 0.09500
H 	H 	0.27439 0.56265 0.07926 0.10200
Cl	Cl	0.28934 0.59558 0.86967 -0.27600
Cl	Cl	0.20742 0.58039 0.10973 -0.22000
C 	C 	0.71414 0.43917 0.03730 0.03800
C 	C 	0.73923 0.44264 0.08094 0.14900
C 	C 	0.77210 0.43326 0.06820 -0.04700
C 	C 	0.78052 0.42125 0.01153 0.00400
C 	C 	0.75539 0.41826 0.96753 0.14800
C 	C 	0.72237 0.42663 0.98107 -0.11400
H 	H 	0.79122 0.43577 0.10216 0.10700
H 	H 	0.70315 0.42411 0.94726 0.09700
Cl	Cl	0.73018 0.45998 0.15089 -0.26700
Cl	Cl	0.76505 0.40634 0.89406 -0.19700
C 	C 	0.55487 0.71109 0.99007 -0.02400
C 	C 	0.56476 0.72932 0.04008 0.17400
C 	C 	0.57015 0.76267 0.03434 0.02100
C 	C 	0.56609 0.77805 0.97886 -0.12800
C 	C 	0.55736 0.75958 0.92836 0.20500
C 	C 	0.55152 0.72631 0.93432 -0.08900
H 	H 	0.57719 0.77671 0.07321 0.12700
H 	H 	0.54441 0.71223 0.89555 0.09600
Cl	Cl	0.57099 0.71059 0.10999 -0.24600
Cl	Cl	0.55519 0.77746 0.85690 -0.23000
