data_crystal

_cell_length_a 26.14564
_cell_length_b 26.46391
_cell_length_c 26.35561
_cell_angle_alpha 95.49826
_cell_angle_beta  95.49811
_cell_angle_gamma 125.78528

_symmetry_space_group_name_	'P 1'
_symmetry_space_group_name_H-M	'P 1'

loop_
_symmetry_equiv_pos_as_xyz
  x,y,z

loop_
_atom_site_label
_atom_site_type_symbol
_atom_site_fract_x
_atom_site_fract_y
_atom_site_fract_z
_atom_site_charge
C 	C 	0.94539 0.01384 0.46147 0.02800
C 	C 	0.03828 0.01508 0.45497 0.02800
C 	C 	0.77801 0.03770 0.39781 -0.04700
C 	C 	0.86051 0.02608 0.42970 -0.06200
H 	H 	0.67369 0.00005 0.90906 0.03400
H 	H 	0.10353 0.00125 0.90826 0.04700
H 	H 	0.18939 0.00077 0.88033 0.04000
C 	C 	0.75974 0.00703 0.92540 -0.04900
C 	C 	0.95220 0.02012 0.98285 0.02600
C 	C 	0.00958 0.04616 0.45545 -0.07100
C 	C 	0.91661 0.04816 0.46447 0.01000
H 	H 	0.70645 0.05160 0.37587 0.03500
C 	C 	0.85848 0.01862 0.95012 -0.06300
C 	C 	0.04951 0.02887 0.97742 0.02500
C 	C 	0.10723 0.05070 0.45380 0.01200
H 	H 	0.13198 0.04540 0.53249 0.04600
C 	C 	0.72259 0.02853 0.93052 -0.03700
H 	H 	0.09791 0.06777 0.37620 0.04100
C 	C 	0.01690 0.05628 0.97745 -0.06900
C 	C 	0.75336 0.07242 0.39869 -0.03600
C 	C 	0.83723 0.06237 0.42895 0.02800
C 	C 	0.13041 0.07431 0.40940 -0.04800
C 	C 	0.14986 0.06193 0.49756 -0.06800
C 	C 	0.82240 0.04193 0.95398 0.02800
C 	C 	0.91773 0.04877 0.98345 0.01300
C 	C 	0.13871 0.04412 0.93664 -0.06900
C 	C 	0.22445 0.04474 0.90754 -0.05400
H 	H 	0.30352 0.04554 0.89058 0.03400
C 	C 	0.11810 0.06705 0.97341 0.01600
C 	C 	0.28929 0.07024 0.91324 -0.03400
C 	C 	0.20444 0.07385 0.93857 0.03200
H 	H 	0.66388 0.08275 0.94134 0.02700
C 	C 	0.21557 0.09542 0.49667 0.03200
C 	C 	0.74902 0.08766 0.96121 -0.00000
H 	H 	0.24153 0.09707 0.57752 0.04000
H 	H 	0.03748 0.09573 0.45209 0.04900
C 	C 	0.84835 0.09942 0.98839 -0.01100
C 	C 	0.01695 0.96509 0.98210 -0.07100
C 	C 	0.95207 0.92857 0.98601 0.02200
C 	C 	0.92010 0.95633 0.98741 -0.07300
H 	H 	0.04162 0.10530 0.97312 0.04800
H 	H 	0.04195 0.94377 0.98226 0.04900
H 	H 	0.87023 0.92825 0.99170 0.04900
C 	C 	0.90958 0.94961 0.46614 -0.07400
C 	C 	0.93798 0.91798 0.46449 0.02300
C 	C 	0.00217 0.95085 0.45845 -0.07300
H 	H 	0.86030 0.92468 0.47160 0.04700
H 	H 	0.02417 0.92657 0.45687 0.04900
Cu	Cu	0.62499 0.23427 0.00238 0.92600
Cu	Cu	0.67140 0.23537 0.89135 0.86500
Cu	Cu	0.66360 0.33605 0.93687 0.89600
Cu	Cu	0.64452 0.36126 0.04313 0.89300
C 	C 	0.65656 0.28471 0.11125 0.29000
O 	O 	0.53522 0.20772 0.00544 -0.36500
C 	C 	0.64541 0.29912 0.82391 0.28400
O 	O 	0.68565 0.33360 0.00771 -0.64200
O 	O 	0.61494 0.24229 0.92903 -0.64100
O 	O 	0.65534 0.18083 0.99438 -0.37100
O 	O 	0.72925 0.24591 0.94812 -0.44300
O 	O 	0.63101 0.31412 0.10107 -0.38700
O 	O 	0.71733 0.42756 0.94666 -0.39100
C 	C 	0.72310 0.46689 0.98575 0.29300
C 	C 	0.51601 0.24056 0.98904 0.28200
O 	O 	0.55842 0.29958 0.98429 -0.39400
O 	O 	0.69057 0.44664 0.02386 -0.39900
O 	O 	0.64918 0.24152 0.07530 -0.36200
C 	C 	0.70895 0.20278 0.97736 0.28600
O 	O 	0.64593 0.33539 0.86253 -0.38100
O 	O 	0.63573 0.24542 0.82985 -0.42200
H 	H 	0.73220 0.35733 0.02097 0.16000
H 	H 	0.57025 0.21801 0.90983 0.17400
Cu	Cu	0.74406 0.35083 0.43861 0.92600
Cu	Cu	0.73847 0.30009 0.54781 0.86500
Cu	Cu	0.63794 0.30880 0.50158 0.89500
Cu	Cu	0.61660 0.33332 0.39664 0.89300
C 	C 	0.69610 0.32355 0.32939 0.28900
O 	O 	0.77238 0.44066 0.43786 -0.36000
C 	C 	0.67227 0.32405 0.61478 0.28500
O 	O 	0.64311 0.29081 0.43084 -0.64100
O 	O 	0.73311 0.35761 0.51145 -0.64200
O 	O 	0.79729 0.31957 0.44628 -0.37200
O 	O 	0.72922 0.24462 0.49027 -0.44300
O 	O 	0.66595 0.34841 0.33958 -0.38700
O 	O 	0.54515 0.25506 0.48935 -0.39000
C 	C 	0.50688 0.25216 0.45059 0.28900
C 	C 	0.73821 0.45905 0.45313 0.27900
O 	O 	0.67836 0.41661 0.45723 -0.39400
O 	O 	0.52951 0.28799 0.41493 -0.39600
O 	O 	0.73908 0.33001 0.36563 -0.36100
C 	C 	0.77410 0.26572 0.46216 0.28600
O 	O 	0.63565 0.32299 0.57569 -0.38200
O 	O 	0.72673 0.33349 0.60942 -0.42300
H 	H 	0.61932 0.24519 0.41612 0.16100
H 	H 	0.75695 0.40119 0.53168 0.17400
C 	C 	0.59480 0.26657 0.73080 -0.03700
C 	C 	0.64492 0.31337 0.77122 -0.09100
C 	C 	0.69861 0.36947 0.75968 0.06800
C 	C 	0.70445 0.37465 0.70767 -0.03700
C 	C 	0.65738 0.32485 0.66729 -0.09100
C 	C 	0.60045 0.27194 0.67878 0.06900
C 	C 	0.54678 0.22008 0.63591 -0.19100
H 	H 	0.55254 0.22463 0.73983 0.04200
H 	H 	0.74701 0.41629 0.69864 0.04100
C 	C 	0.75093 0.42269 0.80254 -0.19100
H 	H 	0.50557 0.18214 0.65143 0.06200
H 	H 	0.56415 0.19802 0.61218 0.05600
H 	H 	0.52894 0.24006 0.61079 0.07900
H 	H 	0.77320 0.40566 0.82654 0.05500
H 	H 	0.73060 0.44042 0.82742 0.08000
H 	H 	0.78940 0.46330 0.78697 0.06300
C 	C 	0.63301 0.23800 0.19061 -0.03200
C 	C 	0.67650 0.28670 0.16593 -0.08600
C 	C 	0.73387 0.34193 0.19570 0.06900
C 	C 	0.74269 0.35130 0.25009 -0.03200
C 	C 	0.69562 0.30555 0.27475 -0.08500
C 	C 	0.64257 0.24677 0.24502 0.06900
C 	C 	0.59364 0.19523 0.27100 -0.18900
H 	H 	0.58984 0.19479 0.16758 0.04800
H 	H 	0.78439 0.39571 0.27311 0.04700
C 	C 	0.78350 0.39295 0.16974 -0.18800
H 	H 	0.56311 0.14866 0.24401 0.06500
H 	H 	0.56230 0.20720 0.28435 0.05500
H 	H 	0.61794 0.19011 0.30488 0.06200
H 	H 	0.76720 0.42083 0.15669 0.05500
H 	H 	0.79109 0.37153 0.13568 0.06000
H 	H 	0.83050 0.42569 0.19667 0.06400
C 	C 	0.76371 0.52614 0.45824 -0.07700
C 	C 	0.72606 0.54229 0.43458 0.00800
C 	C 	0.74986 0.60579 0.43862 -0.05900
C 	C 	0.81303 0.65453 0.46514 0.01500
C 	C 	0.84851 0.63782 0.49312 0.00000
C 	C 	0.82460 0.57383 0.48797 -0.01400
C 	C 	0.90633 0.68489 0.52714 -0.03400
C 	C 	0.92965 0.74829 0.53324 -0.05400
C 	C 	0.89818 0.76643 0.50258 0.03100
C 	C 	0.84083 0.71988 0.46658 -0.01600
C 	C 	0.81583 0.73986 0.43028 -0.02900
C 	C 	0.84525 0.80444 0.43197 -0.04800
C 	C 	0.90072 0.85025 0.46879 0.01200
C 	C 	0.92578 0.83100 0.50513 -0.06900
H 	H 	0.67795 0.50548 0.41322 0.02400
H 	H 	0.71788 0.61637 0.42353 0.04200
H 	H 	0.85265 0.56113 0.50798 0.03300
H 	H 	0.93282 0.67222 0.54966 0.03300
H 	H 	0.97376 0.78378 0.56056 0.03900
H 	H 	0.77675 0.70622 0.39852 0.03400
H 	H 	0.82668 0.81893 0.40286 0.03900
H 	H 	0.96891 0.86649 0.53349 0.04400
C 	C 	0.80318 0.23276 0.45380 -0.08400
C 	C 	0.86720 0.26220 0.47662 0.00300
C 	C 	0.89170 0.22732 0.47745 -0.06000
C 	C 	0.85158 0.16171 0.45638 0.01300
C 	C 	0.78960 0.13421 0.42779 -0.00000
C 	C 	0.76498 0.16931 0.42812 -0.01200
C 	C 	0.87283 0.12331 0.46087 -0.01400
C 	C 	0.92583 0.14233 0.49875 -0.03000
C 	C 	0.94765 0.10519 0.50013 -0.04700
H 	H 	0.89766 0.31188 0.49482 0.02200
H 	H 	0.94216 0.25197 0.49268 0.04100
H 	H 	0.71608 0.14720 0.40892 0.03300
H 	H 	0.75011 0.99076 0.37389 0.03600
H 	H 	0.94841 0.18404 0.52861 0.03200
H 	H 	0.98906 0.12093 0.52886 0.03900
H 	H 	0.83537 0.98109 0.40311 0.04200
C 	C 	0.43717 0.21265 0.44998 -0.07800
C 	C 	0.39378 0.18862 0.40288 0.00500
C 	C 	0.32795 0.15419 0.40224 -0.05900
C 	C 	0.30460 0.14540 0.44925 0.01400
C 	C 	0.34783 0.16444 0.49619 -0.00000
C 	C 	0.41393 0.19933 0.49646 -0.01400
C 	C 	0.32447 0.14721 0.54209 -0.03400
C 	C 	0.25877 0.11131 0.54193 -0.05400
C 	C 	0.23847 0.11506 0.45044 -0.01500
C 	C 	0.19566 0.10734 0.40790 -0.02800
H 	H 	0.41099 0.19568 0.36652 0.02900
H 	H 	0.29549 0.13190 0.36518 0.04200
H 	H 	0.44719 0.21641 0.53281 0.04100
H 	H 	0.35727 0.16068 0.57788 0.03400
H 	H 	0.21289 0.12948 0.37488 0.03400
C 	C 	0.76220 0.53506 0.98439 -0.07600
C 	C 	0.76379 0.55554 0.93705 0.00700
C 	C 	0.79662 0.62001 0.93604 -0.06000
C 	C 	0.82631 0.66492 0.98289 0.01700
C 	C 	0.83029 0.64471 0.03000 -0.00300
C 	C 	0.79685 0.57978 0.03065 -0.01700
C 	C 	0.86868 0.68958 0.07566 -0.03400
C 	C 	0.90294 0.75422 0.07508 -0.05500
C 	C 	0.89607 0.77497 0.02966 0.02900
C 	C 	0.85497 0.73019 0.98374 -0.01400
C 	C 	0.84044 0.75127 0.94124 -0.02900
C 	C 	0.87215 0.81599 0.94229 -0.04900
C 	C 	0.91683 0.86043 0.98618 0.01500
C 	C 	0.92814 0.83996 0.03006 -0.07300
H 	H 	0.73922 0.52144 0.90093 0.03400
H 	H 	0.80114 0.63477 0.89886 0.04200
H 	H 	0.79805 0.56407 0.06700 0.03300
H 	H 	0.87291 0.67439 0.11159 0.03300
H 	H 	0.93367 0.78825 0.11045 0.03900
H 	H 	0.80259 0.71799 0.90859 0.03400
H 	H 	0.86157 0.83165 0.90902 0.03900
H 	H 	0.96129 0.87452 0.06457 0.04600
C 	C 	0.74238 0.17429 0.98586 -0.08100
C 	C 	0.80676 0.21250 0.01089 0.00600
C 	C 	0.84236 0.18861 0.01195 -0.06300
C 	C 	0.81331 0.12510 0.98865 0.01600
C 	C 	0.71324 0.11160 0.96199 -0.01600
C 	C 	0.90667 0.12775 0.02340 -0.03300
C 	C 	0.94133 0.10301 0.02028 -0.05000
H 	H 	0.83006 0.26167 0.02791 0.02600
H 	H 	0.89321 0.22093 0.02760 0.04100
H 	H 	0.73918 0.96230 0.89994 0.03500
H 	H 	0.92334 0.16616 0.05502 0.03500
H 	H 	0.98561 0.12485 0.04771 0.03900
H 	H 	0.83969 0.97600 0.92222 0.04200
C 	C 	0.16349 0.12220 0.01026 -0.05100
C 	C 	0.22909 0.15373 0.01126 -0.03100
C 	C 	0.25046 0.13108 0.97438 -0.01300
C 	C 	0.33570 0.12787 0.94717 0.00000
C 	C 	0.31690 0.16105 0.97520 0.01800
C 	C 	0.36469 0.22402 0.00138 -0.06200
C 	C 	0.42952 0.24973 0.00556 0.00500
C 	C 	0.44780 0.21408 0.98239 -0.07500
C 	C 	0.40101 0.15365 0.95245 -0.01300
H 	H 	0.14798 0.13910 0.03975 0.03900
H 	H 	0.26266 0.19277 0.04290 0.03400
H 	H 	0.35221 0.25423 0.01625 0.04200
H 	H 	0.46567 0.29756 0.02689 0.02500
H 	H 	0.41541 0.12724 0.93268 0.03200
