data_crystal

_cell_length_a 21.56545
_cell_length_b 18.66201
_cell_length_c 47.56316
_cell_angle_alpha 88.54631
_cell_angle_beta  88.69641
_cell_angle_gamma 107.09148

_symmetry_space_group_name_	'P 1'
_symmetry_space_group_name_H-M	'P 1'

loop_
_symmetry_equiv_pos_as_xyz
  x,y,z

loop_
_atom_site_label
_atom_site_type_symbol
_atom_site_fract_x
_atom_site_fract_y
_atom_site_fract_z
_atom_site_charge
C 	C 	0.04413 0.04992 0.75511 0.27200
O 	O 	0.01925 0.92088 0.63815 -0.37200
C 	C 	0.00142 0.20285 0.25214 0.38700
H 	H 	0.01498 0.80298 0.52142 0.04200
H 	H 	0.02040 0.68767 0.54701 0.03500
C 	C 	0.00297 0.51350 0.98037 0.01200
C 	C 	0.02045 0.67785 0.92930 0.07500
C 	C 	0.05262 0.81376 0.92520 -0.00300
C 	C 	0.02533 0.74739 0.94109 -0.06300
H 	H 	0.05661 0.86739 0.93435 0.04200
Zn	Zn	0.07173 0.90014 0.73864 1.20400
O 	O 	0.06063 0.92867 0.69934 -0.77000
O 	O 	0.01456 0.10160 0.13852 -0.44400
O 	O 	0.01453 0.15390 0.23519 -0.41600
C 	C 	0.01449 0.29843 0.10798 0.14900
C 	C 	0.03208 0.80617 0.34742 0.12400
H 	H 	0.03246 0.49247 0.99472 0.04800
C 	C 	0.03128 0.57929 0.96409 -0.03000
C 	C 	0.04256 0.67517 0.90149 -0.07200
H 	H 	0.03893 0.62170 0.89223 0.05700
H 	H 	0.08146 0.90434 0.68524 0.19000
O 	O 	0.08346 0.08613 0.73445 -0.42500
O 	O 	0.06615 0.60721 0.44438 -0.40000
C 	C 	0.04947 0.53943 0.45592 0.34500
C 	C 	0.04642 0.23802 0.27292 -0.12500
C 	C 	0.06971 0.74168 0.88566 -0.00500
C 	C 	0.07478 0.81092 0.89751 -0.04600
Zn	Zn	0.09715 0.03896 0.69902 1.21900
O 	O 	0.08868 0.06843 0.63086 -0.46100
O 	O 	0.05848 0.11227 0.18196 -0.36600
C 	C 	0.06065 0.09579 0.15513 0.30900
C 	C 	0.05373 0.34435 0.08636 -0.04800
C 	C 	0.06711 0.78560 0.36301 -0.14200
H 	H 	0.09588 0.86234 0.88524 0.04800
O 	O 	0.09350 0.50386 0.45936 -0.45300
O 	O 	0.09115 0.70895 0.39915 -0.41900
C 	C 	0.10261 0.61119 0.96319 0.29600
C 	C 	0.07762 0.27154 0.29170 0.07800
H 	H 	0.08685 0.73957 0.86422 0.03100
C 	C 	0.08832 0.38543 0.06867 0.00600
C 	C 	0.10143 0.05293 0.14547 -0.11600
C 	C 	0.11255 0.76480 0.38056 0.32800
O 	O 	0.02225 0.97619 0.75610 -0.37500
C 	C 	0.13807 0.11614 0.64256 0.33100
O 	O 	0.14678 0.11381 0.66992 -0.43600
O 	O 	0.11677 0.54341 0.39710 -0.43900
O 	O 	0.12946 0.67877 0.97261 -0.39300
C 	C 	0.12700 0.01400 0.13267 0.02100
C 	C 	0.10643 0.31456 0.31450 -0.02400
H 	H 	0.15015 0.27171 0.40999 0.04300
O 	O 	0.15318 0.96678 0.75333 -0.43800
O 	O 	0.13836 0.56772 0.95617 -0.45500
C 	C 	0.12853 0.43727 0.04889 0.05600
C 	C 	0.12488 0.35393 0.33413 -0.01800
C 	C 	0.01921 0.09114 0.77520 -0.02800
Zn	Zn	0.14227 0.64338 0.41340 1.22200
C 	C 	0.14856 0.96892 0.11378 0.01500
C 	C 	0.16298 0.93297 0.09544 -0.03900
C 	C 	0.14001 0.40252 0.35684 0.05900
H 	H 	0.16171 0.30356 0.46027 0.03200
C 	C 	0.14844 0.44571 0.37576 -0.11200
C 	C 	0.15412 0.49895 0.39745 0.32000
C 	C 	0.16067 0.48597 0.03292 -0.10700
O 	O 	0.17028 0.81285 0.38279 -0.45400
C 	C 	0.17882 0.89522 0.07234 0.07400
O 	O 	0.18957 0.03478 0.71250 -0.40800
O 	O 	0.18538 0.78844 0.01262 -0.41600
O 	O 	0.17930 0.61284 0.01892 -0.44300
C 	C 	0.19569 0.30767 0.41717 -0.03300
C 	C 	0.19067 0.15915 0.62450 -0.12000
C 	C 	0.19935 0.01542 0.73836 0.30800
C 	C 	0.19533 0.86748 0.05201 -0.13300
C 	C 	0.00362 0.68461 0.52567 0.01400
Zn	Zn	0.19042 0.55394 0.45793 1.19200
C 	C 	0.19368 0.54997 0.01530 0.32600
C 	C 	0.20216 0.32579 0.44551 -0.02200
O 	O 	0.19596 0.50252 0.41749 -0.41100
H 	H 	0.00838 0.74994 0.96256 0.06700
H 	H 	0.20982 0.69722 0.45506 0.18400
O 	O 	0.21051 0.65820 0.44144 -0.78400
Zn	Zn	0.21579 0.70639 0.99667 1.22100
C 	C 	0.22231 0.84085 0.02811 0.31600
O 	O 	0.22648 0.67811 0.38737 -0.79600
H 	H 	0.22752 0.64657 0.37104 0.17300
O 	O 	0.00251 0.02681 0.68688 -0.76600
C 	C 	0.23414 0.19081 0.60814 0.06200
Zn	Zn	0.23445 0.59600 0.95253 1.19400
O 	O 	0.23341 0.54387 0.99456 -0.41200
C 	C 	0.00044 0.74961 0.51126 0.00200
H 	H 	0.24300 0.32176 0.37617 0.03500
C 	C 	0.98355 0.25956 0.12713 -0.20000
C 	C 	0.99479 0.83419 0.32849 -0.08400
O 	O 	0.98232 0.21615 0.17409 -0.45300
Zn	Zn	0.60372 0.30330 0.90604 1.22000
Zn	Zn	0.69135 0.42613 0.94978 1.19200
C 	C 	0.80205 0.23443 0.87917 0.31600
Zn	Zn	0.75690 0.34651 0.90947 1.22000
Zn	Zn	0.66447 0.20618 0.87003 1.19500
H 	H 	0.67923 0.28387 0.95011 0.17800
C 	C 	0.74294 0.48933 0.88990 0.32000
O 	O 	0.57432 0.17511 0.85771 -0.47300
O 	O 	0.54164 0.27637 0.87070 -0.39200
O 	O 	0.68027 0.32322 0.93559 -0.78300
O 	O 	0.59925 0.42530 0.95528 -0.46200
O 	O 	0.55360 0.20503 0.92447 -0.42700
O 	O 	0.56502 0.38710 0.91130 -0.42900
O 	O 	0.62977 0.15053 0.91046 -0.41400
O 	O 	0.78521 0.48337 0.95275 -0.46000
H 	H 	0.68201 0.34491 0.86523 0.16800
O 	O 	0.82432 0.38632 0.94183 -0.40400
O 	O 	0.68021 0.31056 0.88163 -0.79400
O 	O 	0.74525 0.18353 0.88005 -0.46300
O 	O 	0.78252 0.44771 0.89168 -0.44900
O 	O 	0.81587 0.28715 0.89791 -0.42800
O 	O 	0.69368 0.47925 0.90798 -0.41600
C 	C 	0.53929 0.22122 0.85351 0.32100
C 	C 	0.55570 0.41548 0.93565 0.31700
C 	C 	0.57175 0.14433 0.92113 0.29400
C 	C 	0.83311 0.45313 0.95208 0.30600
Zn	Zn	0.64664 0.39399 0.48885 1.22000
Zn	Zn	0.53114 0.28282 0.45097 1.19400
C 	C 	0.67116 0.16828 0.53837 0.31100
Zn	Zn	0.58775 0.21903 0.50032 1.22300
Zn	Zn	0.72282 0.32983 0.53051 1.19400
H 	H 	0.64712 0.27614 0.45514 0.18100
C 	C 	0.47214 0.26191 0.51297 0.32800
O 	O 	0.76967 0.43782 0.53018 -0.47500
O 	O 	0.68815 0.48527 0.51592 -0.39700
O 	O 	0.61557 0.28931 0.46793 -0.78700
O 	O 	0.54897 0.38950 0.43921 -0.47500
O 	O 	0.73086 0.42374 0.46699 -0.42900
O 	O 	0.58146 0.44848 0.48000 -0.42200
O 	O 	0.75942 0.32775 0.48769 -0.41500
O 	O 	0.47151 0.17885 0.45369 -0.46400
H 	H 	0.60662 0.33309 0.53601 0.17000
O 	O 	0.54285 0.12709 0.47483 -0.41100
O 	O 	0.63235 0.32033 0.52045 -0.79000
O 	O 	0.72405 0.22441 0.53381 -0.46100
O 	O 	0.50318 0.21212 0.51754 -0.45100
O 	O 	0.62877 0.14879 0.51847 -0.42700
O 	O 	0.48458 0.30579 0.49011 -0.41700
C 	C 	0.74276 0.49256 0.52912 0.32400
C 	C 	0.54485 0.43886 0.45768 0.32000
C 	C 	0.77474 0.38875 0.47145 0.29800
C 	C 	0.48732 0.11948 0.46261 0.32000
Zn	Zn	0.95974 0.92064 0.69625 1.21700
Zn	Zn	0.99754 0.02576 0.64555 1.17200
O 	O 	0.90627 0.96983 0.63936 -0.46800
O 	O 	0.86766 0.93295 0.68450 -0.38600
O 	O 	0.98990 0.81672 0.74538 -0.48800
O 	O 	0.94782 0.84177 0.66858 -0.43500
O 	O 	0.91798 0.88059 0.73338 -0.43200
H 	H 	0.98011 0.06015 0.69578 0.13600
C 	C 	0.85907 0.95517 0.65865 0.33100
C 	C 	0.93228 0.82683 0.74798 0.34400
C 	C 	0.97610 0.85593 0.64365 0.29100
Zn	Zn	0.29395 0.67533 0.41395 1.22200
Zn	Zn	0.25169 0.78599 0.37687 1.19700
O 	O 	0.34564 0.81481 0.36849 -0.46800
O 	O 	0.36743 0.70519 0.38075 -0.39000
O 	O 	0.28043 0.54810 0.46564 -0.45600
O 	O 	0.34243 0.76577 0.43374 -0.43300
O 	O 	0.32375 0.58649 0.42138 -0.43000
O 	O 	0.27310 0.82852 0.41883 -0.41300
C 	C 	0.37926 0.76710 0.36485 0.32000
C 	C 	0.32829 0.55870 0.44673 0.31500
C 	C 	0.32643 0.82818 0.43157 0.30400
Zn	Zn	0.35172 0.83293 0.02113 1.19700
C 	C 	0.36269 0.56714 0.95683 0.31700
Zn	Zn	0.36065 0.70453 0.98508 1.22000
H 	H 	0.30651 0.69329 0.03272 0.17400
C 	C 	0.40850 0.85527 0.96102 0.31100
O 	O 	0.30644 0.72517 0.01577 -0.78600
O 	O 	0.28083 0.87829 0.01920 -0.45500
O 	O 	0.44488 0.84069 0.02098 -0.46800
H 	H 	0.27555 0.73981 0.94912 0.17900
O 	O 	0.44051 0.71936 0.01236 -0.39400
O 	O 	0.27333 0.70121 0.96409 -0.78500
O 	O 	0.31250 0.56379 0.94109 -0.45400
O 	O 	0.41584 0.78786 0.95984 -0.43100
O 	O 	0.36984 0.60300 0.98052 -0.43700
O 	O 	0.36209 0.86564 0.97706 -0.41900
C 	C 	0.46585 0.78213 0.02536 0.32400
Zn	Zn	0.96946 0.12656 0.19913 1.21400
Zn	Zn	0.86152 0.13541 0.24818 1.19500
C 	C 	0.78694 0.95032 0.14993 0.34900
Zn	Zn	0.83123 0.00934 0.20591 1.21700
Zn	Zn	0.92366 0.04326 0.14659 1.18600
H 	H 	0.84737 0.14803 0.19569 0.18200
C 	C 	0.88920 0.98092 0.25826 0.35300
O 	O 	0.86911 0.11926 0.20771 -0.78900
O 	O 	0.94473 0.21570 0.25197 -0.50700
O 	O 	0.90452 0.15128 0.14593 -0.43200
O 	O 	0.78152 0.06469 0.26581 -0.46900
H 	H 	0.94569 0.98784 0.19350 0.19100
O 	O 	0.74113 0.00885 0.22525 -0.41500
O 	O 	0.92334 0.02505 0.18783 -0.82400
O 	O 	0.83033 0.00822 0.13783 -0.49100
O 	O 	0.84918 0.95080 0.23838 -0.43700
O 	O 	0.77769 0.94480 0.17750 -0.42800
O 	O 	0.91160 0.05413 0.26024 -0.45100
C 	C 	0.95150 0.21213 0.15060 0.36000
C 	C 	0.73472 0.01834 0.25227 0.30500
C 	C 	0.51689 0.78747 0.04450 -0.12700
C 	C 	0.55914 0.79767 0.06127 0.06000
C 	C 	0.60786 0.81667 0.08120 -0.02500
C 	C 	0.64905 0.83905 0.09811 -0.02600
C 	C 	0.69686 0.87204 0.11730 0.06800
C 	C 	0.73779 0.90541 0.13283 -0.12900
C 	C 	0.43590 0.78965 0.34664 -0.12100
C 	C 	0.48260 0.81561 0.33119 0.06100
C 	C 	0.53621 0.85238 0.31336 -0.02700
C 	C 	0.58136 0.88771 0.29849 -0.01200
C 	C 	0.63396 0.93218 0.28165 0.05100
C 	C 	0.67936 0.97146 0.26786 -0.08300
C 	C 	0.91312 0.93397 0.27670 -0.11700
C 	C 	0.93597 0.89857 0.29282 0.05000
C 	C 	0.96606 0.86178 0.31206 0.00100
C 	C 	0.44525 0.04346 0.45660 -0.11600
C 	C 	0.37670 0.02539 0.45819 0.00900
C 	C 	0.33861 0.95298 0.45194 -0.00100
H 	H 	0.28613 0.93971 0.45295 0.04900
C 	C 	0.36764 0.89831 0.44362 -0.07300
C 	C 	0.43627 0.91562 0.44342 0.00400
C 	C 	0.47418 0.98788 0.44975 0.04400
H 	H 	0.52668 0.00107 0.44896 0.01500
C 	C 	0.46957 0.85922 0.43683 0.03400
C 	C 	0.48466 0.81590 0.45870 -0.04600
C 	C 	0.52666 0.77288 0.45351 -0.01700
C 	C 	0.55215 0.77108 0.42635 -0.03600
C 	C 	0.53696 0.81375 0.40447 -0.01100
C 	C 	0.49629 0.85839 0.40972 -0.04700
C 	C 	0.34406 0.08123 0.46659 0.02000
C 	C 	0.32893 0.12853 0.44614 -0.04400
C 	C 	0.29667 0.18018 0.45404 -0.02400
C 	C 	0.27726 0.18285 0.48214 -0.03300
C 	C 	0.29028 0.13403 0.50240 -0.01800
C 	C 	0.32449 0.08405 0.49476 -0.04600
H 	H 	0.28633 0.21769 0.43835 0.03400
H 	H 	0.25172 0.22233 0.48819 0.03800
H 	H 	0.27380 0.13484 0.52400 0.03700
H 	H 	0.33507 0.04698 0.51061 0.04400
H 	H 	0.34294 0.12590 0.42426 0.03800
H 	H 	0.46573 0.81774 0.47988 0.05000
H 	H 	0.54033 0.74205 0.47064 0.03600
H 	H 	0.48705 0.89395 0.39296 0.05300
H 	H 	0.55795 0.81363 0.38360 0.03900
H 	H 	0.58463 0.73777 0.42234 0.04000
C 	C 	0.97958 0.49941 0.46146 -0.12100
C 	C 	0.93689 0.53767 0.47221 0.03300
C 	C 	0.86964 0.50301 0.47279 -0.02500
H 	H 	0.83730 0.53307 0.48082 0.05200
C 	C 	0.84421 0.42831 0.46502 -0.07300
C 	C 	0.88682 0.38919 0.45493 0.01100
C 	C 	0.95409 0.42511 0.45304 -0.00700
H 	H 	0.98634 0.39565 0.44444 0.03100
C 	C 	0.86141 0.31119 0.44582 0.01800
C 	C 	0.82600 0.29575 0.42116 -0.05100
C 	C 	0.80008 0.22161 0.41310 -0.02500
C 	C 	0.80961 0.16277 0.42953 -0.04100
C 	C 	0.84521 0.17796 0.45402 -0.02200
C 	C 	0.87121 0.25201 0.46216 -0.04600
C 	C 	0.96208 0.61133 0.48509 0.01200
C 	C 	0.95881 0.67667 0.47072 -0.03300
C 	C 	0.97825 0.74569 0.48378 -0.06300
C 	C 	0.98456 0.61553 0.51264 -0.08800
H 	H 	0.97575 0.79605 0.47267 0.04000
H 	H 	0.98635 0.56522 0.52404 0.03800
H 	H 	0.94097 0.67385 0.44954 0.04500
H 	H 	0.81821 0.34107 0.40840 0.03900
H 	H 	0.77251 0.20976 0.39416 0.02300
H 	H 	0.89827 0.26336 0.48128 0.03600
H 	H 	0.85248 0.13234 0.46673 0.02800
H 	H 	0.78940 0.10541 0.42330 0.03100
C 	C 	0.48850 0.46914 0.45695 -0.08500
C 	C 	0.49370 0.54311 0.46495 0.02800
C 	C 	0.43993 0.57081 0.46259 -0.02100
H 	H 	0.44371 0.62737 0.46875 0.03600
C 	C 	0.38146 0.52592 0.45213 -0.07600
C 	C 	0.37540 0.45111 0.44540 0.02200
C 	C 	0.42876 0.42325 0.44782 -0.00900
H 	H 	0.42372 0.36557 0.44263 0.01900
C 	C 	0.31336 0.40153 0.43566 0.01900
C 	C 	0.30671 0.38315 0.40724 -0.04400
C 	C 	0.24803 0.33602 0.39808 -0.01700
C 	C 	0.26102 0.37212 0.45483 -0.05100
C 	C 	0.55483 0.59161 0.47592 0.01800
C 	C 	0.55961 0.60577 0.50475 -0.04100
C 	C 	0.61871 0.64758 0.51543 -0.01500
C 	C 	0.67306 0.67564 0.49739 -0.03000
C 	C 	0.66833 0.66234 0.46861 -0.01800
C 	C 	0.60938 0.62045 0.45784 -0.04400
H 	H 	0.62250 0.65781 0.53771 0.03800
H 	H 	0.71888 0.70752 0.50572 0.04200
H 	H 	0.71044 0.68413 0.45467 0.03500
H 	H 	0.60624 0.60960 0.43557 0.04300
H 	H 	0.51788 0.58344 0.51890 0.04500
H 	H 	0.34689 0.40543 0.39231 0.04500
H 	H 	0.26595 0.38526 0.47688 0.04200
C 	C 	0.67038 0.11576 0.56092 -0.12600
C 	C 	0.67580 0.07589 0.58039 0.04300
C 	C 	0.69160 0.03486 0.60293 -0.01200
C 	C 	0.71500 0.00549 0.62091 -0.07200
C 	C 	0.75457 0.97896 0.63902 0.10200
C 	C 	0.79815 0.96376 0.65068 -0.13700
C 	C 	0.42082 0.26386 0.53229 -0.11900
C 	C 	0.37782 0.25792 0.54959 0.05900
C 	C 	0.32753 0.24216 0.57035 -0.02600
C 	C 	0.28456 0.22179 0.58801 -0.02400
C 	C 	0.94736 0.80976 0.62098 -0.11000
C 	C 	0.91865 0.76963 0.60311 0.05000
C 	C 	0.88127 0.72005 0.58379 -0.02400
C 	C 	0.84765 0.67443 0.56881 -0.03000
C 	C 	0.80807 0.61634 0.55312 0.05800
C 	C 	0.77609 0.56220 0.54131 -0.12500
C 	C 	0.89943 0.49937 0.95832 -0.08100
C 	C 	0.93739 0.47335 0.97761 -0.01000
C 	C 	0.99235 0.60782 0.94613 -0.06400
C 	C 	0.92663 0.56781 0.94340 0.00300
H 	H 	0.89733 0.58859 0.92888 0.03700
C 	C 	0.90880 0.40477 0.99528 0.02000
C 	C 	0.92797 0.34017 0.99086 -0.05300
C 	C 	0.90247 0.27609 0.00820 -0.02000
C 	C 	0.85785 0.27625 0.02997 -0.04400
C 	C 	0.83857 0.34046 0.03443 -0.02400
C 	C 	0.86404 0.40472 0.01718 -0.05700
H 	H 	0.91737 0.22636 0.00479 0.02600
H 	H 	0.83825 0.22664 0.04341 0.03300
H 	H 	0.80406 0.34050 0.05131 0.02500
H 	H 	0.84925 0.45447 0.02087 0.03600
H 	H 	0.96262 0.33973 0.97406 0.04100
C 	C 	0.45182 0.92023 0.94460 -0.10200
C 	C 	0.51987 0.94090 0.94748 0.06200
C 	C 	0.55761 0.01522 0.94111 -0.06600
H 	H 	0.60968 0.03079 0.94370 0.05000
C 	C 	0.52894 0.06905 0.93094 -0.05600
C 	C 	0.46125 0.04682 0.92644 -0.02000
C 	C 	0.42400 0.97230 0.93245 0.02400
H 	H 	0.37200 0.95626 0.92954 0.03800
C 	C 	0.42781 0.10100 0.91665 0.03300
C 	C 	0.40576 0.09837 0.88905 -0.05200
C 	C 	0.36510 0.14094 0.88099 -0.01300
C 	C 	0.34708 0.18705 0.90025 -0.03600
C 	C 	0.36831 0.18928 0.92783 -0.01700
C 	C 	0.40818 0.14595 0.93613 -0.04900
C 	C 	0.55268 0.88485 0.95594 0.00800
C 	C 	0.55612 0.82858 0.93745 -0.03100
C 	C 	0.59029 0.77807 0.94476 -0.02400
C 	C 	0.62244 0.78464 0.97018 -0.02900
C 	C 	0.62076 0.84195 0.98828 -0.02100
C 	C 	0.58567 0.89176 0.98130 -0.03300
H 	H 	0.59235 0.73427 0.93060 0.03700
H 	H 	0.64909 0.74570 0.97576 0.03600
H 	H 	0.64656 0.84769 0.00774 0.03900
H 	H 	0.58428 0.93577 0.99551 0.04800
H 	H 	0.53264 0.82431 0.91742 0.04500
H 	H 	0.41887 0.06203 0.87409 0.04500
H 	H 	0.34680 0.13738 0.85992 0.03600
H 	H 	0.42273 0.14604 0.95778 0.04400
H 	H 	0.35276 0.22339 0.94292 0.03400
H 	H 	0.31580 0.22015 0.89393 0.04200
C 	C 	0.40618 0.52120 0.95001 -0.08000
C 	C 	0.43727 0.52701 0.92318 0.02100
C 	C 	0.48312 0.48819 0.91820 -0.01600
H 	H 	0.50814 0.49439 0.89784 0.05000
C 	C 	0.49954 0.44511 0.93984 -0.08000
C 	C 	0.46644 0.43701 0.96635 0.02100
C 	C 	0.41984 0.47473 0.97111 -0.01500
H 	H 	0.39481 0.46869 0.99147 0.04900
C 	C 	0.48074 0.38991 0.98940 0.01700
C 	C 	0.47008 0.31275 0.98605 -0.05200
C 	C 	0.48479 0.26870 0.00761 -0.02300
C 	C 	0.50984 0.30133 0.03266 -0.04300
C 	C 	0.52037 0.37811 0.03615 -0.02400
C 	C 	0.50592 0.42245 0.01459 -0.04800
C 	C 	0.42394 0.57556 0.90049 0.01600
C 	C 	0.39087 0.54350 0.87667 -0.04700
C 	C 	0.37732 0.58942 0.85544 -0.02200
C 	C 	0.39669 0.66732 0.85790 -0.04100
C 	C 	0.42984 0.69949 0.88154 -0.02400
C 	C 	0.44384 0.65385 0.90274 -0.05100
H 	H 	0.35165 0.56461 0.83713 0.03400
H 	H 	0.38592 0.70274 0.84150 0.03700
H 	H 	0.44440 0.75976 0.88350 0.03400
H 	H 	0.46887 0.67900 0.92113 0.04300
H 	H 	0.37535 0.48316 0.87473 0.04600
H 	H 	0.45187 0.28750 0.96654 0.04200
H 	H 	0.47706 0.20935 0.00487 0.02800
H 	H 	0.51475 0.48203 0.01735 0.04500
H 	H 	0.53990 0.40332 0.05553 0.02900
H 	H 	0.52124 0.26716 0.04933 0.03100
C 	C 	0.85346 0.22024 0.86279 -0.13900
C 	C 	0.89247 0.20394 0.84770 0.06400
C 	C 	0.93318 0.17997 0.82891 -0.05600
C 	C 	0.96391 0.15554 0.81222 0.00500
C 	C 	0.99548 0.12263 0.79228 -0.03300
C 	C 	0.49012 0.20286 0.83298 -0.12300
C 	C 	0.44868 0.18256 0.81597 0.05800
C 	C 	0.39928 0.15364 0.79688 -0.02800
C 	C 	0.35595 0.12532 0.78153 -0.02200
C 	C 	0.30358 0.08886 0.76487 0.05700
C 	C 	0.25708 0.05583 0.75196 -0.11200
C 	C 	0.75565 0.54805 0.86859 -0.11900
C 	C 	0.77111 0.59590 0.85010 0.05700
C 	C 	0.79463 0.64990 0.82806 -0.02300
C 	C 	0.81929 0.69405 0.80915 -0.02600
C 	C 	0.85344 0.74322 0.78720 0.06400
C 	C 	0.88704 0.78284 0.76889 -0.12300
