data_crystal

_cell_length_a 31.40497
_cell_length_b 29.05954
_cell_length_c 19.34822
_cell_angle_alpha 92.67343
_cell_angle_beta  85.31509
_cell_angle_gamma 124.34042

_symmetry_space_group_name_	'P 1'
_symmetry_space_group_name_H-M	'P 1'

loop_
_symmetry_equiv_pos_as_xyz
  x,y,z

loop_
_atom_site_label
_atom_site_type_symbol
_atom_site_fract_x
_atom_site_fract_y
_atom_site_fract_z
_atom_site_charge
C 	C 	0.14092 0.08543 0.10117 -0.00900
C 	C 	0.13669 0.07899 0.02917 -0.01100
C 	C 	0.08817 0.04644 0.00225 -0.05900
C 	C 	0.04337 0.01877 0.04673 0.07800
C 	C 	0.04741 0.02557 0.11895 -0.07200
C 	C 	0.09598 0.05955 0.14588 -0.02400
C 	C 	0.83886 0.13064 0.92403 -0.02400
C 	C 	0.81363 0.08545 0.97017 -0.01900
C 	C 	0.83628 0.05720 0.98320 -0.07300
C 	C 	0.88426 0.07382 0.95002 0.02900
C 	C 	0.88569 0.14562 0.88845 -0.02400
C 	C 	0.81971 0.63550 0.10404 -0.01200
C 	C 	0.79498 0.66336 0.10266 -0.02900
C 	C 	0.82410 0.72158 0.10157 -0.04700
C 	C 	0.87808 0.75243 0.10342 0.01700
C 	C 	0.87311 0.66642 0.11199 -0.03000
C 	C 	0.29617 0.16648 0.15704 -0.01400
C 	C 	0.25693 0.11652 0.19012 -0.03100
C 	C 	0.20542 0.09131 0.17518 -0.04700
C 	C 	0.19250 0.11708 0.12939 0.01700
C 	C 	0.23096 0.17020 0.10320 -0.04700
C 	C 	0.28261 0.19430 0.11576 -0.02800
H 	H 	0.87362 0.83615 0.16435 0.03300
H 	H 	0.17108 0.09835 0.99410 0.02200
H 	H 	0.08534 0.04115 0.94667 0.03800
H 	H 	0.01317 0.00490 0.15401 0.04700
H 	H 	0.09872 0.06556 0.20131 0.03700
H 	H 	0.77736 0.07353 0.99772 0.03100
H 	H 	0.81716 0.02327 0.02023 0.05600
H 	H 	0.75352 0.63991 0.09908 0.03700
H 	H 	0.80505 0.74258 0.09562 0.04200
H 	H 	0.89259 0.64548 0.11430 0.03600
H 	H 	0.26662 0.09574 0.22437 0.03400
H 	H 	0.17608 0.05047 0.19613 0.04000
H 	H 	0.22118 0.19128 0.06959 0.04200
H 	H 	0.31229 0.23314 0.09040 0.03700
N 	N 	0.02100 0.00911 0.32863 -0.14300
C 	C 	0.00390 0.07630 0.28906 -0.07100
C 	C 	0.16707 0.10106 0.41806 -0.00700
C 	C 	0.15800 0.06454 0.36239 -0.02400
C 	C 	0.11019 0.03499 0.33302 -0.07100
C 	C 	0.07078 0.04148 0.35879 0.07700
C 	C 	0.07980 0.07781 0.41527 -0.07200
C 	C 	0.12787 0.10785 0.44396 -0.02400
C 	C 	0.86464 0.17279 0.39022 -0.01400
C 	C 	0.86649 0.15276 0.32328 -0.03000
C 	C 	0.89135 0.12535 0.30982 -0.04700
C 	C 	0.88892 0.16627 0.44308 -0.03000
C 	C 	0.83078 0.66294 0.42750 -0.01600
C 	C 	0.81931 0.70079 0.45397 -0.02900
C 	C 	0.85092 0.75676 0.43413 -0.04800
C 	C 	0.87316 0.68109 0.37930 -0.02900
C 	C 	0.31212 0.18575 0.51227 -0.01400
C 	C 	0.26555 0.15355 0.55295 -0.03100
C 	C 	0.21829 0.12597 0.52224 -0.04800
C 	C 	0.21709 0.13091 0.45065 0.01400
C 	C 	0.26365 0.16381 0.41011 -0.04700
C 	C 	0.31093 0.19086 0.44071 -0.03000
H 	H 	0.00490 0.95986 0.45297 0.04800
H 	H 	0.03474 0.08994 0.24893 0.04900
H 	H 	0.18778 0.05850 0.34246 0.03400
H 	H 	0.10337 0.00633 0.29075 0.04800
H 	H 	0.04953 0.08206 0.43781 0.04900
H 	H 	0.13446 0.13598 0.48686 0.03400
H 	H 	0.84836 0.15804 0.28188 0.03600
H 	H 	0.89153 0.10895 0.25843 0.04000
H 	H 	0.88751 0.18121 0.49501 0.03600
H 	H 	0.78650 0.68705 0.49089 0.03600
H 	H 	0.84218 0.78586 0.45561 0.04000
H 	H 	0.88195 0.65197 0.35804 0.03400
H 	H 	0.26600 0.14950 0.60822 0.03400
H 	H 	0.18265 0.10040 0.55395 0.03900
H 	H 	0.26320 0.16817 0.35490 0.04200
H 	H 	0.34664 0.21524 0.40871 0.03900
Co	Co	0.70618 0.29840 0.99808 1.17600
O 	O 	0.76231 0.30143 0.92840 -0.39100
Co	Co	0.60449 0.29809 0.06366 1.18600
O 	O 	0.63882 0.28037 0.96252 -0.47100
O 	O 	0.66918 0.36711 0.09152 -0.42900
O 	O 	0.69929 0.22320 0.96535 -0.36000
C 	C 	0.70987 0.39944 0.04889 0.34700
O 	O 	0.60496 0.32723 0.96343 -0.38000
C 	C 	0.51025 0.24394 0.11511 0.30600
C 	C 	0.66933 0.26920 0.13078 0.31600
O 	O 	0.54834 0.29086 0.13713 -0.37900
O 	O 	0.52548 0.22665 0.06238 -0.35500
O 	O 	0.71575 0.28895 0.10389 -0.36400
O 	O 	0.63804 0.25783 0.08325 -0.46300
O 	O 	0.73110 0.37914 0.00620 -0.51400
C 	C 	0.74196 0.24848 0.92705 0.31200
C 	C 	0.63266 0.31294 0.92798 0.30000
H 	H 	0.76298 0.40594 0.97551 0.15400
Co	Co	0.71713 0.33099 0.50250 1.18200
O 	O 	0.77285 0.32611 0.44202 -0.38800
Co	Co	0.61281 0.33359 0.54274 1.18100
O 	O 	0.64949 0.30346 0.45927 -0.46500
O 	O 	0.67628 0.40847 0.55732 -0.43200
O 	O 	0.71152 0.25369 0.49514 -0.35500
C 	C 	0.71628 0.43370 0.51130 0.34200
O 	O 	0.61291 0.34330 0.43333 -0.36800
C 	C 	0.51716 0.28081 0.58921 0.30400
C 	C 	0.68239 0.32765 0.63412 0.30700
O 	O 	0.55259 0.33279 0.59949 -0.38100
O 	O 	0.53632 0.25810 0.55144 -0.35300
O 	O 	0.72805 0.34121 0.61127 -0.36800
O 	O 	0.64932 0.30375 0.58696 -0.46200
O 	O 	0.74125 0.41040 0.48784 -0.52700
C 	C 	0.75235 0.27409 0.45354 0.31100
C 	C 	0.64249 0.32717 0.41078 0.30000
H 	H 	0.77461 0.43341 0.45784 0.16400
C 	C 	0.64187 0.31854 0.85230 -0.10100
C 	C 	0.60739 0.27555 0.80771 0.05100
C 	C 	0.62059 0.27999 0.73605 -0.02900
C 	C 	0.66733 0.32660 0.70852 -0.09700
C 	C 	0.69964 0.37150 0.75275 0.04700
C 	C 	0.68742 0.36603 0.82448 -0.03000
H 	H 	0.59460 0.24681 0.70178 0.04400
H 	H 	0.71377 0.39885 0.85878 0.02700
C 	C 	0.55506 0.22659 0.83511 -0.07300
C 	C 	0.74655 0.42609 0.72438 -0.07100
C 	C 	0.51461 0.24020 0.83701 -0.13600
H 	H 	0.55661 0.21398 0.88762 0.05800
H 	H 	0.54234 0.18958 0.80127 0.04300
H 	H 	0.52551 0.27624 0.87175 0.06900
H 	H 	0.47661 0.20366 0.85690 0.05500
H 	H 	0.51069 0.25009 0.78406 0.05600
C 	C 	0.79633 0.42967 0.73235 -0.13600
H 	H 	0.74885 0.46133 0.75332 0.04000
H 	H 	0.74381 0.43256 0.66926 0.05400
H 	H 	0.80240 0.42962 0.78812 0.05300
H 	H 	0.82968 0.46897 0.70863 0.05200
H 	H 	0.79492 0.39406 0.70623 0.07100
C 	C 	0.66043 0.28364 0.20183 -0.11200
C 	C 	0.61871 0.24364 0.24641 0.04700
C 	C 	0.61289 0.25888 0.31468 -0.02200
C 	C 	0.64625 0.31384 0.33751 -0.09000
C 	C 	0.68566 0.35448 0.29131 0.03200
C 	C 	0.69437 0.33807 0.22556 -0.01100
H 	H 	0.58271 0.22776 0.35033 0.04700
H 	H 	0.72684 0.36822 0.19187 0.04400
C 	C 	0.58286 0.18357 0.22394 -0.07600
C 	C 	0.71501 0.41604 0.30845 -0.06400
C 	C 	0.60652 0.15074 0.23305 -0.13500
H 	H 	0.57340 0.18083 0.16925 0.05400
H 	H 	0.54535 0.16332 0.25533 0.04500
H 	H 	0.64306 0.16841 0.20010 0.06500
H 	H 	0.57906 0.10670 0.21751 0.05700
H 	H 	0.61450 0.15161 0.28817 0.05900
C 	C 	0.68722 0.44122 0.28456 -0.14300
H 	H 	0.75456 0.43840 0.28243 0.03700
H 	H 	0.72018 0.42374 0.36457 0.03800
H 	H 	0.68273 0.43529 0.22784 0.06900
H 	H 	0.71011 0.48660 0.29588 0.05700
H 	H 	0.64843 0.42136 0.31229 0.07000
C 	C 	0.79982 0.60496 0.45259 0.05800
C 	C 	0.82136 0.58656 0.49512 -0.09600
C 	C 	0.79241 0.53154 0.51846 0.04700
C 	C 	0.74161 0.49396 0.49911 -0.16200
C 	C 	0.71837 0.51349 0.46036 0.14700
C 	C 	0.74833 0.56862 0.43571 -0.13000
H 	H 	0.81006 0.51747 0.54976 0.01400
H 	H 	0.73136 0.58339 0.40418 0.06100
H 	H 	0.86080 0.61483 0.50955 0.05100
N 	N 	0.66747 0.48016 0.44783 -0.20900
H 	H 	0.64267 0.44202 0.47289 0.08500
H 	H 	0.65151 0.49382 0.41574 0.08400
C 	C 	0.83645 0.19963 0.40549 0.05700
C 	C 	0.78437 0.17159 0.39099 -0.09000
C 	C 	0.75697 0.19565 0.40841 0.04400
C 	C 	0.78091 0.24763 0.44167 -0.14000
C 	C 	0.83279 0.27491 0.45969 0.15000
C 	C 	0.86081 0.25181 0.43843 -0.12500
H 	H 	0.71714 0.17411 0.39530 0.02300
H 	H 	0.76501 0.13096 0.36646 0.05200
N 	N 	0.85482 0.32123 0.50041 -0.20600
H 	H 	0.83268 0.33365 0.52722 0.09300
H 	H 	0.89395 0.34294 0.50982 0.08400
C 	C 	0.36218 0.21214 0.54396 0.05600
C 	C 	0.39933 0.26961 0.53690 -0.08900
C 	C 	0.44902 0.29338 0.55866 0.04400
C 	C 	0.46218 0.25994 0.58774 -0.13900
C 	C 	0.42317 0.20316 0.60199 0.14700
C 	C 	0.37368 0.17934 0.57836 -0.12400
H 	H 	0.47819 0.33720 0.54896 0.02700
H 	H 	0.34449 0.13519 0.58579 0.06100
H 	H 	0.39028 0.29554 0.51224 0.05200
N 	N 	0.43295 0.17162 0.63857 -0.20700
H 	H 	0.46794 0.18936 0.66162 0.09000
H 	H 	0.40460 0.12925 0.64681 0.08500
C 	C 	0.79085 0.57489 0.09000 0.05400
C 	C 	0.79446 0.53990 0.13299 -0.09500
C 	C 	0.76983 0.48337 0.11726 0.05100
C 	C 	0.73902 0.46030 0.06041 -0.16400
C 	C 	0.73462 0.49528 0.01712 0.15300
C 	C 	0.76160 0.55261 0.03156 -0.11300
H 	H 	0.77460 0.45742 0.14952 0.01500
H 	H 	0.75968 0.57983 0.99738 0.04800
H 	H 	0.81681 0.55662 0.17832 0.05000
N 	N 	0.70449 0.47423 0.96223 -0.21900
H 	H 	0.68203 0.43164 0.95208 0.08800
H 	H 	0.70248 0.50060 0.92972 0.08300
C 	C 	0.81998 0.16662 0.92052 0.06500
C 	C 	0.79286 0.16289 0.86421 -0.09400
C 	C 	0.77031 0.19287 0.86460 0.04500
C 	C 	0.77458 0.22679 0.92134 -0.14100
C 	C 	0.80432 0.23282 0.97692 0.14500
C 	C 	0.82682 0.20258 0.97568 -0.14200
H 	H 	0.74784 0.18810 0.82189 0.02100
H 	H 	0.84872 0.20610 0.01852 0.07500
H 	H 	0.78797 0.13553 0.82106 0.05300
N 	N 	0.81071 0.26668 0.03187 -0.20000
H 	H 	0.79618 0.29130 0.03378 0.09400
H 	H 	0.83149 0.26946 0.07324 0.09000
C 	C 	0.35102 0.18561 0.15760 0.05600
C 	C 	0.36514 0.14818 0.14099 -0.08800
C 	C 	0.41710 0.16767 0.12824 0.04300
C 	C 	0.45567 0.22502 0.12874 -0.13900
C 	C 	0.44145 0.26320 0.14359 0.15000
C 	C 	0.38973 0.24260 0.16398 -0.12600
H 	H 	0.42737 0.13812 0.11662 0.02700
H 	H 	0.37904 0.27150 0.17827 0.06100
H 	H 	0.33574 0.10407 0.13579 0.05200
N 	N 	0.47572 0.31873 0.13191 -0.20500
H 	H 	0.50799 0.33359 0.09711 0.09700
H 	H 	0.46681 0.34691 0.15045 0.08600
C 	C 	0.89435 0.77536 0.38777 0.01500
C 	C 	0.90833 0.11729 0.90138 -0.05700
C 	C 	0.90201 0.72462 0.11275 -0.04800
H 	H 	0.90472 0.00926 0.86867 0.02900
H 	H 	0.90542 0.18046 0.85275 0.03300
H 	H 	0.89372 0.02854 0.43361 0.03400
H 	H 	0.90098 0.27339 0.45004 0.06200
C 	C 	0.90986 0.81209 0.08450 -0.01100
C 	C 	0.90177 0.84994 0.12043 -0.02300
C 	C 	0.91054 0.04775 0.96886 -0.03500
C 	C 	0.90481 0.73711 0.35943 -0.04800
C 	C 	0.91869 0.01587 0.91999 -0.01000
C 	C 	0.91520 0.11843 0.36294 0.01400
C 	C 	0.91455 0.13984 0.42932 -0.04700
H 	H 	0.91844 0.82498 0.26206 0.03600
C 	C 	0.92974 0.90563 0.09924 -0.07300
C 	C 	0.92841 0.05566 0.03538 0.00200
H 	H 	0.92312 0.93441 0.12716 0.04800
H 	H 	0.92201 0.08000 0.07358 0.03000
C 	C 	0.93014 0.83526 0.37171 -0.00800
C 	C 	0.92449 0.04210 0.39328 -0.02400
H 	H 	0.00200 0.89980 0.96216 0.03800
H 	H 	0.94525 0.13015 0.87519 0.04100
C 	C 	0.93734 0.85437 0.30371 -0.02400
H 	H 	0.93337 0.13537 0.47049 0.03900
H 	H 	0.93800 0.75099 0.32318 0.04100
C 	C 	0.94527 0.99283 0.93708 -0.09300
H 	H 	0.94346 0.74810 0.11645 0.04100
C 	C 	0.93910 0.08687 0.35008 -0.00800
C 	C 	0.94630 0.83053 0.02750 -0.01100
H 	H 	0.94024 0.98332 0.42228 0.04900
C 	C 	0.95512 0.03275 0.05247 -0.08600
H 	H 	0.95230 0.80154 0.99870 0.02200
H 	H 	0.95194 0.96876 0.89881 0.05200
H 	H 	0.95092 0.85917 0.47750 0.03400
C 	C 	0.95570 0.87360 0.42500 -0.02400
C 	C 	0.95051 0.01578 0.38612 -0.07400
C 	C 	0.96422 0.00167 0.00293 0.10000
C 	C 	0.96595 0.92379 0.04173 0.08000
H 	H 	0.96843 0.03896 0.10400 0.05100
C 	C 	0.96821 0.91155 0.28961 -0.07100
H 	H 	0.97304 0.92603 0.23725 0.05000
C 	C 	0.97421 0.88605 0.00648 -0.06000
C 	C 	0.97839 0.10330 0.29720 -0.02500
C 	C 	0.98663 0.93067 0.41097 -0.07200
H 	H 	0.98994 0.13775 0.26342 0.03500
C 	C 	0.99209 0.95007 0.34326 0.07800
C 	C 	0.99092 0.03308 0.33411 0.07600
N 	N 	0.99434 0.98047 0.01774 -0.14400
