data_crystal

_cell_length_a 20.11734
_cell_length_b 21.12538
_cell_length_c 43.76031
_cell_angle_alpha 60.64520
_cell_angle_beta  119.10800
_cell_angle_gamma 133.34172

_symmetry_space_group_name_	'P 1'
_symmetry_space_group_name_H-M	'P 1'

loop_
_symmetry_equiv_pos_as_xyz
  x,y,z

loop_
_atom_site_label
_atom_site_type_symbol
_atom_site_fract_x
_atom_site_fract_y
_atom_site_fract_z
_atom_site_charge
C 	C 	0.69099 0.25074 0.03687 0.26700
C 	C 	0.74104 0.37631 0.04966 0.27000
N 	N 	0.65033 0.34511 0.04085 -0.12400
C 	C 	0.58034 0.26947 0.02893 0.28000
N 	N 	0.60061 0.22308 0.02638 -0.10800
C 	C 	0.74771 0.31917 0.50129 0.25700
C 	C 	0.76491 0.43532 0.50727 0.27200
N 	N 	0.67475 0.37835 0.50981 -0.12600
C 	C 	0.62252 0.29144 0.51016 0.27800
N 	N 	0.65894 0.26162 0.50614 -0.11000
C 	C 	0.29537 0.68221 0.11751 0.26900
N 	N 	0.22096 0.60479 0.10646 -0.10900
C 	C 	0.23640 0.55517 0.10315 0.27400
N 	N 	0.32533 0.58300 0.11070 -0.12400
C 	C 	0.39897 0.65822 0.12264 0.28300
N 	N 	0.38418 0.70747 0.12639 -0.10300
C 	C 	0.30268 0.63196 0.66699 0.25700
N 	N 	0.24410 0.54478 0.66508 -0.10200
C 	C 	0.27968 0.50653 0.66678 0.27100
N 	N 	0.37328 0.55427 0.67189 -0.12300
C 	C 	0.42825 0.64400 0.66698 0.26800
N 	N 	0.39423 0.68276 0.66608 -0.09900
Co	Co	0.95532 0.05603 0.06633 1.19000
Co	Co	0.02483 0.01955 0.02553 1.16400
Co	Co	0.09017 0.91633 0.02275 1.18700
C 	C 	0.19382 0.11383 0.00074 0.40200
O 	O 	0.01199 0.04952 0.17111 -0.39200
C 	C 	0.03200 0.99216 0.19402 0.32500
O 	O 	0.98750 0.09359 0.02016 -0.40000
C 	C 	0.01373 0.19685 0.09431 0.39700
C 	C 	0.20974 0.91121 0.09584 0.39900
O 	O 	0.03013 0.94236 0.18267 -0.34300
O 	O 	0.21280 0.96098 0.06251 -0.32800
O 	O 	0.16071 0.89699 0.11350 -0.31100
O 	O 	0.93264 0.13714 0.10340 -0.35400
O 	O 	0.03974 0.17766 0.07925 -0.34000
O 	O 	0.04893 0.94244 0.04859 -0.73300
O 	O 	0.14306 0.04362 0.98834 -0.40100
O 	O 	0.15616 0.12270 0.01464 -0.35500
Co	Co	0.02165 0.09284 0.56997 1.18500
Co	Co	0.10537 0.03998 0.54526 1.18200
Co	Co	0.12519 0.90334 0.54300 1.18800
C 	C 	0.29387 0.07573 0.56044 0.35400
O 	O 	0.98642 0.04142 0.66557 -0.37000
C 	C 	0.97195 0.96392 0.68643 0.35700
O 	O 	0.10003 0.13890 0.53801 -0.41500
C 	C 	0.08724 0.22034 0.60718 0.40400
C 	C 	0.12591 0.79299 0.61919 0.42200
O 	O 	0.96607 0.91142 0.67500 -0.32500
O 	O 	0.10241 0.79161 0.58581 -0.37300
O 	O 	0.09558 0.81936 0.62812 -0.33800
O 	O 	0.99822 0.18555 0.59895 -0.35300
O 	O 	0.11557 0.19496 0.59666 -0.34400
O 	O 	0.07875 0.93613 0.56281 -0.74000
O 	O 	0.25540 0.98909 0.57129 -0.29200
O 	O 	0.25035 0.10764 0.55614 -0.33000
C 	C 	0.97150 0.94018 0.72429 -0.09000
C 	C 	0.05285 0.99623 0.74694 0.17400
C 	C 	0.04622 0.00056 0.77625 -0.20600
C 	C 	0.95842 0.94749 0.78380 0.16600
C 	C 	0.94921 0.96797 0.80912 -0.00200
C 	C 	0.98364 0.01056 0.90733 0.00200
C 	C 	0.98047 0.00151 0.87681 -0.07000
H 	H 	0.12030 0.04162 0.74020 0.03300
H 	H 	0.10882 0.04833 0.79203 0.12300
H 	H 	0.98043 0.03730 0.80586 0.05400
H 	H 	0.04574 0.06846 0.91809 0.07000
H 	H 	0.04055 0.05224 0.86484 0.07500
C 	C 	0.05348 0.98157 0.23302 -0.01300
C 	C 	0.13740 0.05269 0.24856 -0.02700
C 	C 	0.14310 0.06488 0.27876 -0.01200
C 	C 	0.06523 0.00564 0.29405 -0.01500
C 	C 	0.06401 0.03185 0.31983 -0.05000
C 	C 	0.12588 0.09384 0.41802 0.08000
C 	C 	0.11507 0.07797 0.38775 -0.12100
H 	H 	0.19560 0.10276 0.23551 0.08000
H 	H 	0.20640 0.12316 0.28905 0.07700
H 	H 	0.09569 0.10207 0.31519 0.07400
H 	H 	0.19189 0.15177 0.42781 0.08500
H 	H 	0.17286 0.12402 0.37471 0.09800
C 	C 	0.20029 0.34657 0.67434 0.26400
C 	C 	0.21894 0.42969 0.65137 -0.12800
C 	C 	0.20704 0.44646 0.61443 0.26600
C 	C 	0.17992 0.38212 0.60094 0.30900
C 	C 	0.15530 0.29701 0.62337 -0.19500
C 	C 	0.16992 0.28104 0.66050 0.28700
F 	F 	0.15277 0.20116 0.68305 -0.39800
F 	F 	0.21541 0.33073 0.71034 -0.36200
F 	F 	0.17638 0.40209 0.56585 -0.32700
F 	F 	0.22892 0.52808 0.59214 -0.33600
C 	C 	0.64395 0.71572 0.65339 0.29400
C 	C 	0.65235 0.78000 0.62026 -0.19600
C 	C 	0.58051 0.79189 0.60086 0.30100
C 	C 	0.51124 0.75310 0.61727 0.27400
C 	C 	0.51081 0.69857 0.65268 -0.12800
C 	C 	0.57622 0.67825 0.67025 0.25900
F 	F 	0.57387 0.62188 0.70371 -0.35800
F 	F 	0.70953 0.69893 0.67144 -0.37600
F 	F 	0.44344 0.76699 0.59851 -0.32900
F 	F 	0.58401 0.84924 0.56762 -0.33700
C 	C 	0.31812 0.76823 0.65939 0.26900
C 	C 	0.26434 0.67404 0.66593 -0.11600
C 	C 	0.17126 0.62087 0.66904 0.26500
C 	C 	0.12857 0.66160 0.65963 0.30700
C 	C 	0.17794 0.75523 0.64699 -0.19100
C 	C 	0.27506 0.80807 0.65060 0.29500
F 	F 	0.32617 0.89881 0.64242 -0.33300
F 	F 	0.41116 0.82142 0.66066 -0.33200
F 	F 	0.03718 0.60966 0.66043 -0.33700
F 	F 	0.12192 0.53013 0.68084 -0.34300
C 	C 	0.09847 0.36130 0.06510 0.30900
C 	C 	0.06751 0.29003 0.09541 -0.19300
C 	C 	0.07660 0.30643 0.12522 0.29100
C 	C 	0.11991 0.39355 0.12536 0.26500
C 	C 	0.15825 0.46580 0.09645 -0.12800
C 	C 	0.14336 0.44878 0.06560 0.27000
F 	F 	0.17773 0.51796 0.03697 -0.33500
F 	F 	0.08488 0.34591 0.03516 -0.34200
F 	F 	0.13209 0.40887 0.15502 -0.34600
F 	F 	0.04545 0.23799 0.15448 -0.39100
C 	C 	0.62076 0.74228 0.10896 0.30400
C 	C 	0.67929 0.74945 0.14389 -0.20100
C 	C 	0.64140 0.71637 0.17248 0.29800
C 	C 	0.54967 0.68690 0.16552 0.26800
C 	C 	0.49444 0.68787 0.13010 -0.13000
C 	C 	0.52890 0.71230 0.10207 0.27700
F 	F 	0.47440 0.71022 0.06788 -0.33200
F 	F 	0.65521 0.77099 0.08120 -0.36700
F 	F 	0.51472 0.65830 0.19310 -0.34900
C 	C 	0.20631 0.70764 0.12955 0.26600
C 	C 	0.28077 0.74267 0.11695 -0.12400
C 	C 	0.34178 0.83612 0.10377 0.26700
C 	C 	0.32518 0.89304 0.10126 0.30200
C 	C 	0.24555 0.85724 0.11059 -0.19000
C 	C 	0.18920 0.76470 0.12666 0.29300
F 	F 	0.11484 0.72930 0.13770 -0.36500
F 	F 	0.15007 0.61831 0.14431 -0.34000
F 	F 	0.38369 0.98286 0.08782 -0.32800
F 	F 	0.41466 0.87145 0.09178 -0.31400
C 	C 	0.72262 0.20559 0.48429 0.26100
F 	F 	0.63323 0.17831 0.46558 -0.35100
C 	C 	0.88061 0.60169 0.55691 0.29300
C 	C 	0.86026 0.53221 0.54914 0.27000
F 	F 	0.87042 0.46869 0.57662 -0.33300
F 	F 	0.91455 0.60704 0.59162 -0.34400
C 	C 	0.45399 0.12579 0.56977 0.28800
C 	C 	0.38177 0.13704 0.54907 -0.18600
C 	C 	0.38670 0.19505 0.51438 0.28400
C 	C 	0.46184 0.23947 0.50024 0.26500
C 	C 	0.53383 0.22803 0.52091 -0.13900
C 	C 	0.52904 0.17018 0.55557 0.27200
F 	F 	0.59974 0.16063 0.57616 -0.35000
F 	F 	0.45152 0.07211 0.60377 -0.33900
F 	F 	0.46623 0.29573 0.46672 -0.35700
F 	F 	0.31715 0.20628 0.49399 -0.38500
F 	F 	0.57425 0.06219 0.06465 -0.34000
C 	C 	0.83055 0.48081 0.08803 0.27100
C 	C 	0.87122 0.56651 0.08944 0.31500
F 	F 	0.88727 0.57910 0.12060 -0.33700
F 	F 	0.80176 0.41034 0.11706 -0.33200
C 	C 	0.35515 0.18548 0.03993 0.30000
C 	C 	0.29609 0.17227 0.00551 -0.21600
C 	C 	0.33304 0.19719 0.97812 0.30300
C 	C 	0.42566 0.22775 0.98589 0.27200
C 	C 	0.48253 0.23525 0.02090 -0.13800
C 	C 	0.44773 0.21617 0.04765 0.27300
F 	F 	0.50290 0.22469 0.08148 -0.34100
F 	F 	0.32081 0.16247 0.06661 -0.38300
F 	F 	0.46019 0.25009 0.95942 -0.35200
F 	F 	0.27773 0.18816 0.94434 -0.37900
N 	N 	0.76208 0.32898 0.04789 -0.10500
N 	N 	0.80213 0.40635 0.50274 -0.10000
Co	Co	0.03079 0.87884 0.09026 1.19600
Co	Co	0.96089 0.91453 0.13096 1.20200
C 	C 	0.95843 0.73220 0.06241 0.43600
Co	Co	0.88558 0.00698 0.13376 1.16700
O 	O 	0.94292 0.99570 0.10900 -0.70700
O 	O 	0.99532 0.83871 0.13589 -0.38300
O 	O 	0.02297 0.98797 0.08279 -0.54400
C 	C 	0.78156 0.81085 0.14866 0.40800
C 	C 	0.93801 0.92760 0.96588 0.28700
O 	O 	0.83007 0.87529 0.16435 -0.36800
O 	O 	0.82060 0.81491 0.13026 -0.35200
O 	O 	0.96097 0.87183 0.98709 -0.31800
O 	O 	0.93059 0.96632 0.97957 -0.31100
C 	C 	0.77132 0.01413 0.06001 0.34100
O 	O 	0.76554 0.96354 0.09296 -0.29700
O 	O 	0.81882 0.02424 0.04305 -0.32600
O 	O 	0.04062 0.78730 0.05481 -0.38600
O 	O 	0.93297 0.75917 0.07381 -0.34400
Co	Co	0.00526 0.85611 0.59070 1.19200
Co	Co	0.93304 0.91355 0.62062 1.21100
C 	C 	0.92441 0.75597 0.53507 0.39600
Co	Co	0.89957 0.04979 0.61524 1.17700
O 	O 	0.95952 0.01817 0.60202 -0.76200
O 	O 	0.93010 0.81156 0.62416 -0.38300
O 	O 	0.04192 0.98430 0.59089 -0.54600
C 	C 	0.74696 0.85671 0.61531 0.42100
C 	C 	0.08650 0.02380 0.47721 0.33900
O 	O 	0.79498 0.91710 0.63298 -0.37800
O 	O 	0.79003 0.85389 0.60145 -0.34900
O 	O 	0.15059 0.00931 0.49750 -0.39500
O 	O 	0.04524 0.02620 0.49226 -0.38400
C 	C 	0.86066 0.11158 0.53590 0.40100
O 	O 	0.81909 0.05332 0.56289 -0.35800
O 	O 	0.91673 0.10832 0.52980 -0.34100
O 	O 	0.98858 0.82505 0.51663 -0.35600
O 	O 	0.90488 0.76641 0.55678 -0.32900
C 	C 	0.87819 0.88505 0.76328 -0.08800
C 	C 	0.88490 0.88101 0.73384 0.07500
C 	C 	0.90726 0.90328 0.83667 -0.04000
C 	C 	0.90324 0.92389 0.86377 0.11400
C 	C 	0.82702 0.85884 0.88032 -0.05100
C 	C 	0.83161 0.86707 0.91138 0.03900
C 	C 	0.91270 0.94019 0.92645 -0.00700
H 	H 	0.80990 0.84341 0.76877 0.10100
H 	H 	0.82147 0.83713 0.71674 0.07400
H 	H 	0.87420 0.83379 0.83916 0.08500
H 	H 	0.76634 0.79935 0.87035 0.09500
H 	H 	0.77558 0.81270 0.92546 0.08200
C 	C 	0.98434 0.92956 0.28063 0.04300
C 	C 	0.97931 0.91687 0.25069 0.01300
C 	C 	0.02870 0.97173 0.34932 -0.02800
C 	C 	0.03308 0.99936 0.37629 0.11900
C 	C 	0.95985 0.94026 0.39416 -0.06700
C 	C 	0.97135 0.95595 0.42470 0.13200
C 	C 	0.05686 0.02987 0.43817 -0.15100
H 	H 	0.92335 0.88319 0.29188 0.07800
H 	H 	0.91440 0.86102 0.23931 0.09500
H 	H 	0.99576 0.90128 0.35369 0.09700
H 	H 	0.89578 0.87991 0.38549 0.11500
H 	H 	0.91683 0.90657 0.43958 0.08200
F 	F 	0.69558 0.71792 0.20672 -0.36900
C 	C 	0.88138 0.31851 0.51067 0.26200
C 	C 	0.78564 0.28443 0.49669 -0.11700
C 	C 	0.75021 0.15205 0.49305 0.30500
C 	C 	0.84253 0.17984 0.51204 -0.19900
C 	C 	0.90993 0.26767 0.51674 0.31000
F 	F 	0.00230 0.30171 0.52907 -0.36800
F 	F 	0.94588 0.39841 0.51979 -0.32900
F 	F 	0.68562 0.07047 0.48532 -0.35400
C 	C 	0.86936 0.66730 0.52891 -0.19100
C 	C 	0.83240 0.65949 0.49317 0.29700
C 	C 	0.81222 0.59020 0.48542 0.26300
C 	C 	0.82331 0.52448 0.51340 -0.12300
F 	F 	0.77564 0.58337 0.45077 -0.35100
F 	F 	0.81951 0.72143 0.46573 -0.37600
C 	C 	0.79867 0.16472 0.03033 0.28000
C 	C 	0.73893 0.07165 0.04504 -0.16800
C 	C 	0.65969 0.03790 0.05400 0.24700
C 	C 	0.64669 0.09643 0.05271 0.27400
C 	C 	0.70965 0.18998 0.04025 -0.12900
C 	C 	0.78471 0.22371 0.02833 0.27100
F 	F 	0.84373 0.31319 0.01463 -0.34000
F 	F 	0.87189 0.19842 0.01907 -0.36000
F 	F 	0.59798 0.94803 0.06615 -0.30700
C 	C 	0.84575 0.54058 0.02653 0.25900
C 	C 	0.81526 0.46688 0.05618 -0.11800
C 	C 	0.89684 0.63913 0.05899 -0.19700
C 	C 	0.88367 0.62535 0.02752 0.29300
F 	F 	0.90913 0.69489 0.99795 -0.37700
F 	F 	0.83186 0.52856 0.99562 -0.33700
