data_crystal

_cell_length_a 17.95222
_cell_length_b 19.61587
_cell_length_c 26.78343
_cell_angle_alpha 95.42503
_cell_angle_beta  95.42557
_cell_angle_gamma 126.42731

_symmetry_space_group_name_	'P 1'
_symmetry_space_group_name_H-M	'P 1'

loop_
_symmetry_equiv_pos_as_xyz
  x,y,z

loop_
_atom_site_label
_atom_site_type_symbol
_atom_site_fract_x
_atom_site_fract_y
_atom_site_fract_z
_atom_site_charge
C 	C 	0.95725 0.03490 0.98791 0.16700
N 	N 	0.05067 0.08749 0.98622 -0.10900
C 	C 	0.09759 0.05369 0.97999 0.18000
N 	N 	0.05093 0.96742 0.97475 -0.10600
C 	C 	0.95785 0.91467 0.97649 0.17500
N 	N 	0.91090 0.94838 0.98341 -0.10900
C 	C 	0.89046 0.98631 0.47568 0.20400
N 	N 	0.84583 0.90039 0.47277 -0.12100
C 	C 	0.89361 0.86756 0.46589 0.18900
N 	N 	0.98592 0.92068 0.46244 -0.12700
C 	C 	0.03103 0.00656 0.46619 0.19800
N 	N 	0.98317 0.03939 0.47251 -0.13700
Cu	Cu	0.67231 0.26179 0.01297 0.93100
Cu	Cu	0.75332 0.25550 0.90923 0.89400
Cu	Cu	0.72050 0.38192 0.93530 0.90100
Cu	Cu	0.67599 0.42439 0.03471 0.91100
C 	C 	0.67839 0.32783 0.11531 0.29300
O 	O 	0.53425 0.20791 0.01068 -0.35500
C 	C 	0.69796 0.30878 0.82731 0.28600
O 	O 	0.74792 0.39358 0.00806 -0.63800
O 	O 	0.65959 0.25777 0.93801 -0.63300
O 	O 	0.72535 0.19661 0.01904 -0.33900
O 	O 	0.83175 0.27516 0.96978 -0.41300
O 	O 	0.68581 0.39551 0.10348 -0.34900
O 	O 	0.78826 0.50521 0.93783 -0.35600
C 	C 	0.78027 0.55473 0.97026 0.33400
C 	C 	0.49638 0.24249 0.99210 0.33700
O 	O 	0.54991 0.31967 0.98138 -0.36400
O 	O 	0.71467 0.52137 0.99852 -0.35600
O 	O 	0.70227 0.28789 0.08619 -0.34100
C 	C 	0.79815 0.21669 0.99869 0.34300
O 	O 	0.70482 0.36845 0.85993 -0.35400
O 	O 	0.69698 0.24648 0.84272 -0.38200
H 	H 	0.81595 0.43260 0.02330 0.18500
H 	H 	0.59476 0.21743 0.91781 0.20400
Cu	Cu	0.60288 0.20982 0.50471 0.93200
Cu	Cu	0.68060 0.20410 0.39934 0.89300
Cu	Cu	0.65388 0.33572 0.43105 0.90200
Cu	Cu	0.60959 0.37283 0.52998 0.91000
C 	C 	0.63454 0.28697 0.60950 0.28800
O 	O 	0.46645 0.16205 0.50347 -0.34200
C 	C 	0.64383 0.27748 0.32320 0.27900
O 	O 	0.68195 0.34277 0.50310 -0.63900
O 	O 	0.59038 0.21013 0.43017 -0.63300
O 	O 	0.65098 0.14028 0.50677 -0.33700
O 	O 	0.75914 0.22148 0.45907 -0.41600
O 	O 	0.59641 0.32325 0.59328 -0.34800
O 	O 	0.72449 0.45949 0.43609 -0.36100
C 	C 	0.71853 0.51014 0.46889 0.33700
C 	C 	0.43061 0.19645 0.48173 0.32800
O 	O 	0.48677 0.27471 0.47257 -0.36600
O 	O 	0.66041 0.47963 0.50161 -0.35900
O 	O 	0.63643 0.23212 0.57788 -0.33600
C 	C 	0.72506 0.16204 0.48728 0.33900
O 	O 	0.63533 0.32615 0.35621 -0.34400
O 	O 	0.63150 0.20782 0.33423 -0.38200
H 	H 	0.74993 0.38118 0.51845 0.18300
H 	H 	0.52539 0.17156 0.41007 0.20400
C 	C 	0.67979 0.30558 0.77187 -0.05600
C 	C 	0.60380 0.22762 0.74042 -0.01000
C 	C 	0.59031 0.21967 0.68723 0.04600
C 	C 	0.65287 0.29080 0.66488 -0.05100
C 	C 	0.72840 0.36898 0.69625 -0.01500
C 	C 	0.74291 0.37655 0.74948 0.04300
S 	S 	0.49442 0.12047 0.64918 0.03000
S 	S 	0.84239 0.47387 0.78727 -0.00100
H 	H 	0.81987 0.52799 0.80010 0.07400
H 	H 	0.41510 0.11622 0.64523 0.07200
H 	H 	0.55546 0.17276 0.75740 0.07000
H 	H 	0.77616 0.42397 0.67920 0.05700
C 	C 	0.64954 0.29192 0.27001 -0.05200
C 	C 	0.59117 0.22122 0.22943 -0.01100
C 	C 	0.60179 0.23144 0.17887 0.04500
C 	C 	0.67033 0.31371 0.16837 -0.05100
C 	C 	0.72829 0.38443 0.20886 -0.00700
C 	C 	0.71900 0.37399 0.25946 0.03700
S 	S 	0.52899 0.14062 0.12930 0.01900
S 	S 	0.79804 0.46330 0.30917 0.02200
H 	H 	0.87478 0.46570 0.32422 0.04200
H 	H 	0.44529 0.12706 0.11473 0.06800
H 	H 	0.53798 0.15796 0.23726 0.07200
H 	H 	0.78158 0.44765 0.20100 0.06800
C 	C 	0.78617 0.71297 0.42264 0.08200
C 	C 	0.84793 0.77588 0.46644 -0.04500
C 	C 	0.87216 0.75192 0.50937 0.08200
C 	C 	0.83610 0.66552 0.50815 0.11600
C 	C 	0.77031 0.60180 0.46552 -0.11100
C 	C 	0.74550 0.62562 0.42261 0.11600
Br	Br	0.65282 0.53842 0.36478 -0.15400
Br	Br	0.75926 0.74683 0.36234 -0.12600
Br	Br	0.87837 0.63440 0.56438 -0.19200
Br	Br	0.95228 0.83718 0.57048 -0.13000
C 	C 	0.84850 0.06746 0.52778 0.08300
C 	C 	0.83769 0.02154 0.48043 -0.05500
C 	C 	0.77992 0.01295 0.43705 0.07600
C 	C 	0.73542 0.05234 0.44073 0.11600
C 	C 	0.75506 0.10643 0.48661 -0.12100
C 	C 	0.80920 0.11182 0.53061 0.11900
Br	Br	0.83095 0.18120 0.59431 -0.16400
Br	Br	0.91434 0.06717 0.58881 -0.13300
Br	Br	0.64389 0.02865 0.38392 -0.25500
Br	Br	0.76530 0.95066 0.37208 -0.11800
C 	C 	0.17153 0.06901 0.42477 0.08300
C 	C 	0.13362 0.06463 0.46912 -0.04700
C 	C 	0.19394 0.10838 0.51702 0.08300
C 	C 	0.29181 0.15565 0.52063 0.11600
C 	C 	0.32913 0.15434 0.47690 -0.11200
C 	C 	0.26926 0.11294 0.42871 0.11600
Br	Br	0.32098 0.11574 0.36835 -0.17800
Br	Br	0.08933 0.01465 0.35877 -0.12800
Br	Br	0.37487 0.22543 0.58499 -0.18500
Br	Br	0.14211 0.09938 0.57811 -0.11900
C 	C 	0.89677 0.70817 0.01311 0.11400
C 	C 	0.83410 0.64726 0.96885 -0.10800
C 	C 	0.81158 0.67434 0.92692 0.11900
C 	C 	0.85171 0.76214 0.92947 0.07900
C 	C 	0.91017 0.82206 0.97488 -0.03300
C 	C 	0.93187 0.79474 0.01686 0.06700
Br	Br	0.00758 0.87569 0.08003 -0.10800
Br	Br	0.93502 0.67270 0.06845 -0.20000
Br	Br	0.82909 0.80079 0.87035 -0.12100
Br	Br	0.72245 0.59079 0.86702 -0.16100
C 	C 	0.80547 0.10443 0.95270 0.11600
C 	C 	0.82719 0.16023 0.99823 -0.11900
C 	C 	0.88139 0.16558 0.04220 0.11800
C 	C 	0.91830 0.11910 0.03969 0.07400
C 	C 	0.90563 0.07143 0.99257 -0.03400
C 	C 	0.84829 0.06344 0.94916 0.07800
Br	Br	0.83260 0.00039 0.88425 -0.13400
Br	Br	0.71278 0.08001 0.89637 -0.25100
Br	Br	0.98319 0.11816 0.10087 -0.13400
Br	Br	0.90651 0.23774 0.10542 -0.16200
C 	C 	0.23606 0.11074 0.93745 0.07900
C 	C 	0.19995 0.11061 0.98195 -0.03700
C 	C 	0.26185 0.15733 0.02923 0.07600
C 	C 	0.35951 0.20443 0.03188 0.11200
C 	C 	0.39482 0.19848 0.98827 -0.11400
C 	C 	0.33333 0.15309 0.94079 0.12000
Br	Br	0.38234 0.14870 0.88051 -0.18500
Br	Br	0.15208 0.05331 0.87204 -0.12800
Br	Br	0.44515 0.28116 0.09436 -0.20000
Br	Br	0.21257 0.15212 0.09087 -0.12400
