data_crystal

_cell_length_a 18.61677
_cell_length_b 18.92349
_cell_length_c 34.88950
_cell_angle_alpha 95.45259
_cell_angle_beta  95.45277
_cell_angle_gamma 126.43770

_symmetry_space_group_name_	'P 1'
_symmetry_space_group_name_H-M	'P 1'

loop_
_symmetry_equiv_pos_as_xyz
  x,y,z

loop_
_atom_site_label
_atom_site_type_symbol
_atom_site_fract_x
_atom_site_fract_y
_atom_site_fract_z
_atom_site_charge
C 	C 	0.89069 0.97993 0.95747 0.13100
C 	C 	0.98435 0.03470 0.95757 -0.10800
C 	C 	0.03186 0.99881 0.95842 0.12500
C 	C 	0.98600 0.90777 0.95864 -0.07800
C 	C 	0.89228 0.85177 0.95811 0.11400
C 	C 	0.84428 0.88793 0.95778 -0.09200
H 	H 	0.02059 0.10563 0.95790 0.08600
H 	H 	0.02345 0.88058 0.95962 0.08800
H 	H 	0.77198 0.84524 0.95794 0.09400
C 	C 	0.95620 0.04891 0.50494 0.11100
C 	C 	0.04946 0.09400 0.50529 -0.08300
C 	C 	0.08510 0.04613 0.50423 0.11200
C 	C 	0.02768 0.95377 0.50300 -0.09900
C 	C 	0.93512 0.90903 0.50293 0.12600
C 	C 	0.89933 0.95642 0.50399 -0.09000
H 	H 	0.09371 0.16552 0.50604 0.10000
H 	H 	0.05499 0.91662 0.50190 0.08700
H 	H 	0.82723 0.92127 0.50342 0.08900
Cu	Cu	0.74379 0.32722 0.95784 0.92900
Cu	Cu	0.73733 0.26412 0.04284 0.88000
Cu	Cu	0.59746 0.27860 0.00648 0.90700
Cu	Cu	0.57593 0.32189 0.92778 0.90600
C 	C 	0.68679 0.30620 0.87511 0.28100
O 	O 	0.79719 0.45814 0.95679 -0.35400
C 	C 	0.65703 0.31402 0.09290 0.28300
O 	O 	0.60235 0.25391 0.95254 -0.63900
O 	O 	0.73147 0.34209 0.01317 -0.63600
O 	O 	0.80311 0.26654 0.96253 -0.33500
O 	O 	0.70655 0.17491 0.00040 -0.42800
O 	O 	0.64445 0.34040 0.88409 -0.36600
O 	O 	0.46668 0.20990 0.99646 -0.38100
C 	C 	0.41773 0.21157 0.96705 0.34100
C 	C 	0.75559 0.49129 0.96841 0.33100
O 	O 	0.67163 0.43678 0.97361 -0.37100
O 	O 	0.45593 0.26952 0.94336 -0.35500
O 	O 	0.73133 0.29479 0.90250 -0.33100
C 	C 	0.76413 0.19250 0.97703 0.32800
O 	O 	0.59027 0.28300 0.06286 -0.36500
O 	O 	0.73191 0.32452 0.08801 -0.40000
H 	H 	0.56365 0.18952 0.94063 0.18100
H 	H 	0.76801 0.40482 0.02729 0.19500
Cu	Cu	0.62573 0.21568 0.50887 0.93200
Cu	Cu	0.68604 0.21915 0.42322 0.87900
Cu	Cu	0.66933 0.35637 0.45884 0.90200
Cu	Cu	0.62684 0.37863 0.53798 0.90800
C 	C 	0.66164 0.28389 0.59129 0.28000
O 	O 	0.49363 0.16002 0.51106 -0.33000
C 	C 	0.63310 0.29570 0.37254 0.28000
O 	O 	0.69715 0.35454 0.51291 -0.63700
O 	O 	0.60730 0.22503 0.45325 -0.63800
O 	O 	0.68487 0.15615 0.50369 -0.33900
O 	O 	0.77745 0.24949 0.46531 -0.43400
O 	O 	0.61802 0.31729 0.58279 -0.34800
O 	O 	0.73623 0.48466 0.46807 -0.37800
C 	C 	0.73138 0.53177 0.49674 0.34200
C 	C 	0.45680 0.19758 0.49905 0.33100
O 	O 	0.50905 0.28000 0.49334 -0.38900
O 	O 	0.67245 0.49300 0.52028 -0.35700
O 	O 	0.66169 0.22999 0.56423 -0.32300
C 	C 	0.75944 0.19336 0.48898 0.33700
O 	O 	0.66290 0.36146 0.40226 -0.37100
O 	O 	0.62298 0.22258 0.37804 -0.40500
H 	H 	0.76288 0.39415 0.52445 0.18100
H 	H 	0.54311 0.18761 0.43953 0.18000
C 	C 	0.61655 0.13467 0.74389 -0.03300
C 	C 	0.61374 0.13156 0.70345 -0.03200
C 	C 	0.65844 0.21094 0.68835 0.03100
C 	C 	0.70945 0.29423 0.71426 -0.00300
C 	C 	0.71234 0.29737 0.75495 -0.00200
C 	C 	0.66415 0.21721 0.76975 0.02900
C 	C 	0.75989 0.38054 0.78064 0.02900
C 	C 	0.80734 0.46003 0.76570 -0.03300
C 	C 	0.80436 0.45689 0.72531 -0.03400
C 	C 	0.75391 0.37424 0.69935 0.03100
C 	C 	0.74367 0.37044 0.65868 -0.02600
C 	C 	0.68872 0.28751 0.63284 -0.03000
C 	C 	0.64906 0.20799 0.64765 -0.01500
C 	C 	0.66090 0.22057 0.80993 -0.02100
C 	C 	0.70425 0.30320 0.83507 -0.03600
C 	C 	0.75600 0.38302 0.82065 -0.02100
H 	H 	0.58024 0.07276 0.75499 0.05600
H 	H 	0.57525 0.06727 0.68384 0.05900
H 	H 	0.84505 0.52428 0.78527 0.06200
H 	H 	0.83976 0.51877 0.71417 0.05900
H 	H 	0.77509 0.43170 0.64710 0.05300
H 	H 	0.60704 0.14401 0.62761 0.07500
H 	H 	0.62166 0.15912 0.82131 0.05900
H 	H 	0.79025 0.44672 0.84034 0.06000
C 	C 	0.77483 0.47167 0.23030 -0.03400
C 	C 	0.77069 0.46942 0.27007 -0.03500
C 	C 	0.69593 0.39440 0.28143 0.02500
C 	C 	0.62296 0.32280 0.25255 -0.00400
C 	C 	0.62661 0.32558 0.21250 -0.00400
C 	C 	0.70394 0.39923 0.20138 0.02500
C 	C 	0.55484 0.25284 0.18364 0.02500
C 	C 	0.47873 0.17911 0.19498 -0.03600
C 	C 	0.47563 0.17586 0.23477 -0.03500
C 	C 	0.54831 0.24660 0.26370 0.02300
C 	C 	0.54916 0.24040 0.30351 -0.02200
C 	C 	0.62382 0.30984 0.33216 -0.05100
C 	C 	0.69527 0.38817 0.32120 -0.02400
C 	C 	0.71116 0.39772 0.16165 -0.02200
C 	C 	0.64161 0.32342 0.13306 -0.04800
C 	C 	0.56207 0.25280 0.14394 -0.02500
H 	H 	0.83395 0.52913 0.22204 0.05600
H 	H 	0.82664 0.52520 0.29202 0.05600
H 	H 	0.42278 0.12333 0.17303 0.05400
H 	H 	0.41738 0.11758 0.24303 0.05200
H 	H 	0.49344 0.18057 0.31213 0.05100
H 	H 	0.75253 0.44196 0.34341 0.05500
H 	H 	0.77191 0.45276 0.15309 0.05800
H 	H 	0.50818 0.19578 0.12176 0.05500
C 	C 	0.86761 0.77877 0.53615 -0.12700
C 	C 	0.87575 0.81220 0.50139 -0.06100
C 	C 	0.83517 0.75335 0.46506 0.30800
C 	C 	0.78821 0.66168 0.46356 -0.06900
C 	C 	0.78140 0.62821 0.49834 -0.13900
C 	C 	0.82079 0.68716 0.53472 0.35800
F 	F 	0.81585 0.65590 0.56859 -0.44700
H 	H 	0.89955 0.82411 0.56426 0.10600
H 	H 	0.75692 0.61662 0.43538 0.09900
F 	F 	0.84288 0.78532 0.43125 -0.42100
C 	C 	0.87693 0.10415 0.53395 -0.13200
C 	C 	0.91671 0.09707 0.50304 -0.05400
C 	C 	0.90911 0.12647 0.46852 0.30400
C 	C 	0.85932 0.15952 0.46439 -0.06900
C 	C 	0.81638 0.16340 0.49467 -0.14700
C 	C 	0.82706 0.13728 0.52987 0.36100
F 	F 	0.78950 0.14426 0.56012 -0.43600
H 	H 	0.88304 0.08212 0.56080 0.10300
H 	H 	0.85198 0.17980 0.43718 0.07900
F 	F 	0.94685 0.11955 0.43834 -0.41600
C 	C 	0.23641 0.09293 0.53547 -0.13200
C 	C 	0.18242 0.09202 0.50419 -0.05600
C 	C 	0.21822 0.12369 0.47074 0.30500
C 	C 	0.30703 0.15528 0.46856 -0.07000
C 	C 	0.36048 0.15479 0.49958 -0.14300
C 	C 	0.32484 0.12373 0.53316 0.35700
F 	F 	0.37680 0.12580 0.56399 -0.43900
H 	H 	0.20913 0.06828 0.56132 0.10200
H 	H 	0.33442 0.18027 0.44277 0.09000
F 	F 	0.16621 0.12180 0.44001 -0.41700
C 	C 	0.82034 0.61727 0.93189 -0.07000
C 	C 	0.79406 0.58498 0.96652 -0.13900
C 	C 	0.79190 0.63774 0.99695 0.35400
C 	C 	0.81787 0.72271 0.99305 -0.13500
C 	C 	0.84566 0.75562 0.95868 -0.05000
C 	C 	0.84512 0.70164 0.92779 0.30000
F 	F 	0.87072 0.73194 0.89416 -0.43400
H 	H 	0.81967 0.57618 0.90778 0.09100
H 	H 	0.81909 0.76404 0.01724 0.12600
F 	F 	0.76553 0.60707 0.03044 -0.43600
C 	C 	0.79270 0.08893 0.00052 -0.05000
C 	C 	0.79188 0.13380 0.97073 -0.15400
C 	C 	0.81369 0.11920 0.93479 0.36100
C 	C 	0.83915 0.06296 0.92937 -0.13000
C 	C 	0.84331 0.02094 0.95977 -0.06000
C 	C 	0.81811 0.03285 0.99507 0.28200
F 	F 	0.82249 0.99353 0.02486 -0.41600
H 	H 	0.77541 0.09894 0.02827 0.07300
H 	H 	0.85847 0.05428 0.90200 0.10500
F 	F 	0.80973 0.15882 0.90505 -0.43600
C 	C 	0.28337 0.15087 0.99912 -0.07800
C 	C 	0.31898 0.15849 0.96473 -0.13600
C 	C 	0.25984 0.11579 0.92813 0.35500
C 	C 	0.16600 0.06536 0.92610 -0.12500
C 	C 	0.13060 0.05722 0.96049 -0.06700
C 	C 	0.18955 0.10051 0.99702 0.30300
F 	F 	0.15572 0.09282 0.03047 -0.42600
H 	H 	0.32844 0.18432 0.02745 0.10600
H 	H 	0.12065 0.03153 0.89784 0.10700
F 	F 	0.29320 0.12136 0.89467 -0.44700
