data_crystal

_cell_length_a 26.63238
_cell_length_b 26.47081
_cell_length_c 26.55467
_cell_angle_alpha 89.91409
_cell_angle_beta  89.90475
_cell_angle_gamma 89.90475

_symmetry_space_group_name_	'P 1'
_symmetry_space_group_name_H-M	'P 1'

loop_
_symmetry_equiv_pos_as_xyz
  x,y,z

loop_
_atom_site_label
_atom_site_type_symbol
_atom_site_fract_x
_atom_site_fract_y
_atom_site_fract_z
_atom_site_charge
Co	Co	0.96753 0.04335 0.46555 1.18400
Co	Co	0.04903 0.94566 0.57041 1.19100
Co	Co	0.97022 0.02013 0.58502 1.18900
Co	Co	0.04221 0.96403 0.45009 1.18800
C 	C 	0.99336 0.12001 0.38636 0.28200
Co	Co	0.99350 0.01292 0.34899 1.16700
Co	Co	0.00464 0.95861 0.68421 1.17500
C 	C 	0.99629 0.90091 0.37092 0.29800
O 	O 	0.93015 0.98312 0.68777 -0.38800
O 	O 	0.01223 0.97948 0.60826 -0.77100
C 	C 	0.89726 0.97250 0.65225 0.30900
O 	O 	0.93879 0.06501 0.53232 -0.45000
O 	O 	0.07899 0.92485 0.50397 -0.44700
C 	C 	0.00479 0.85980 0.62992 0.30900
O 	O 	0.02380 0.00959 0.51980 -0.56100
C 	C 	0.01245 0.07306 0.67776 0.31400
C 	C 	0.88836 0.01394 0.38990 0.30500
C 	C 	0.10327 0.99666 0.35739 0.28900
O 	O 	0.91049 0.97522 0.60460 -0.39500
O 	O 	0.91805 0.99430 0.35542 -0.38500
O 	O 	0.90145 0.01256 0.43781 -0.38600
O 	O 	0.98080 0.88703 0.66386 -0.38700
O 	O 	0.01289 0.87803 0.58442 -0.38400
O 	O 	0.03070 0.03140 0.69874 -0.36300
O 	O 	0.97609 0.07142 0.64377 -0.38100
O 	O 	0.06882 0.02991 0.34452 -0.36500
O 	O 	0.10400 0.97645 0.40315 -0.36200
O 	O 	0.00549 0.01043 0.42730 -0.74900
C 	C 	0.11555 0.95011 0.66235 0.30200
O 	O 	0.07758 0.92957 0.68661 -0.38600
O 	O 	0.11288 0.95831 0.61331 -0.37400
O 	O 	0.97480 0.08895 0.35252 -0.38300
O 	O 	0.98472 0.11271 0.43471 -0.37400
O 	O 	0.01104 0.93652 0.33960 -0.37600
O 	O 	0.99805 0.90820 0.41991 -0.40200
Co	Co	0.98309 0.43180 0.04125 1.18700
Co	Co	0.03578 0.56628 0.96356 1.18400
Co	Co	0.95952 0.55159 0.04155 1.19000
Co	Co	0.06004 0.44657 0.96431 1.17800
C 	C 	0.92066 0.34791 0.00538 0.30200
Co	Co	0.03135 0.33050 0.99382 1.15600
Co	Co	0.96695 0.66349 0.99036 1.15200
C 	C 	0.13833 0.36659 0.97996 0.31100
O 	O 	0.93605 0.66784 0.06246 -0.37600
O 	O 	0.99176 0.58913 0.00201 -0.74900
C 	C 	0.95759 0.64754 0.10222 0.30000
O 	O 	0.94325 0.48598 0.07670 -0.44500
O 	O 	0.08237 0.51333 0.93515 -0.45100
C 	C 	0.07863 0.67089 0.99013 0.26400
O 	O 	0.02502 0.50230 0.01865 -0.54800
C 	C 	0.87173 0.60474 0.99198 0.27100
C 	C 	0.03010 0.34639 0.10565 0.29700
C 	C 	0.02631 0.36790 0.88841 0.29700
O 	O 	0.97008 0.59924 0.10242 -0.37100
O 	O 	0.05789 0.33172 0.06710 -0.35800
O 	O 	0.00138 0.38755 0.10389 -0.35500
O 	O 	0.03762 0.68249 0.01557 -0.32900
O 	O 	0.08765 0.62416 0.97410 -0.36700
O 	O 	0.89859 0.63665 0.96517 -0.37900
O 	O 	0.89068 0.56064 0.00577 -0.35000
O 	O 	0.00454 0.33797 0.92142 -0.37900
O 	O 	0.03128 0.41673 0.89771 -0.38000
O 	O 	0.02712 0.40897 0.00302 -0.73700
C 	C 	0.98545 0.62696 0.88518 0.30600
O 	O 	0.99322 0.66482 0.91627 -0.40000
O 	O 	0.99254 0.58027 0.90057 -0.40300
O 	O 	0.95834 0.31916 0.01995 -0.37900
O 	O 	0.92649 0.39711 0.00200 -0.38500
O 	O 	0.10397 0.33473 0.96396 -0.40300
O 	O 	0.12780 0.41505 0.98497 -0.38800
Co	Co	0.56697 0.02971 0.06163 1.19500
Co	Co	0.44921 0.98247 0.95782 1.18300
Co	Co	0.45225 0.05868 0.03692 1.20600
Co	Co	0.56569 0.95579 0.98039 1.17700
C 	C 	0.64042 0.99426 0.13988 0.29200
Co	Co	0.67378 0.97893 0.03145 1.17900
Co	Co	0.35032 0.05502 0.97074 1.16200
C 	C 	0.65484 0.97994 0.91984 0.30800
O 	O 	0.36501 0.12633 0.00055 -0.33800
O 	O 	0.42115 0.02711 0.99223 -0.78700
C 	C 	0.40793 0.15002 0.99317 0.27400
O 	O 	0.50867 0.07179 0.08571 -0.44200
O 	O 	0.50568 0.93541 0.93867 -0.44900
C 	C 	0.40394 0.04357 0.87402 0.29900
O 	O 	0.50157 0.99046 0.02427 -0.55700
C 	C 	0.35069 0.03512 0.08329 0.29200
C 	C 	0.65817 0.09132 0.02985 0.28900
C 	C 	0.63806 0.87343 0.01945 0.33400
O 	O 	0.45068 0.12537 0.99717 -0.39900
O 	O 	0.68307 0.05351 0.00944 -0.35200
O 	O 	0.60867 0.08986 0.03350 -0.37000
O 	O 	0.37960 0.07660 0.90190 -0.38000
O 	O 	0.44584 0.02279 0.89078 -0.37600
O 	O 	0.32563 0.02949 0.04067 -0.34200
O 	O 	0.39167 0.06322 0.08565 -0.36200
O 	O 	0.65700 0.90571 0.05199 -0.37600
O 	O 	0.59676 0.88411 0.99327 -0.40200
O 	O 	0.59550 0.98576 0.02717 -0.75500
C 	C 	0.34325 0.94226 0.95657 0.29700
O 	O 	0.33072 0.98636 0.93732 -0.39500
O 	O 	0.39058 0.93191 0.96731 -0.38100
O 	O 	0.67576 0.00291 0.10617 -0.37600
O 	O 	0.59253 0.00008 0.12868 -0.36900
O 	O 	0.67973 0.95681 0.95597 -0.40700
O 	O 	0.60741 0.99210 0.92646 -0.40600
C 	C 	0.73723 0.77113 0.00375 0.02700
C 	C 	0.70795 0.72690 0.00666 -0.00500
C 	C 	0.65555 0.73049 0.01350 -0.01700
C 	C 	0.63254 0.77835 0.01860 0.02300
C 	C 	0.66175 0.82281 0.01450 -0.06000
C 	C 	0.71419 0.81893 0.00667 -0.00300
C 	C 	0.73298 0.67655 0.00345 0.09200
C 	C 	0.62540 0.68498 0.01552 0.11200
C 	C 	0.74453 0.86413 0.00130 0.14100
C 	C 	0.75334 0.65459 0.04731 -0.06600
C 	C 	0.79545 0.62244 0.04342 0.07900
C 	C 	0.81703 0.61323 0.99583 -0.12500
C 	C 	0.78938 0.62533 0.95222 0.05600
C 	C 	0.74719 0.65738 0.95602 -0.09700
C 	C 	0.73293 0.66756 0.09622 0.12100
C 	C 	0.80524 0.60606 0.90368 0.08600
C 	C 	0.81770 0.60062 0.08818 0.07700
C 	C 	0.72041 0.67315 0.91123 0.11500
C 	C 	0.79136 0.76733 0.99828 0.04600
C 	C 	0.57936 0.78172 0.03001 0.11000
N 	N 	0.83540 0.58312 0.12394 -0.09100
N 	N 	0.71659 0.67797 0.13527 -0.10000
N 	N 	0.81798 0.59069 0.86492 -0.09400
N 	N 	0.69900 0.68580 0.87547 -0.10700
N 	N 	0.60139 0.64861 0.01713 -0.08800
N 	N 	0.53693 0.78437 0.03913 -0.08800
N 	N 	0.76895 0.90002 0.99711 -0.15800
N 	N 	0.83450 0.76418 0.99397 -0.10800
C 	C 	0.78748 0.31048 0.03880 -0.03500
C 	C 	0.78240 0.26652 0.00941 0.05600
C 	C 	0.81788 0.25588 0.97145 -0.06500
C 	C 	0.86142 0.28567 0.96697 -0.00900
C 	C 	0.86990 0.32564 0.00107 -0.03500
C 	C 	0.83163 0.33968 0.03530 0.02300
C 	C 	0.74402 0.22787 0.02291 0.05300
C 	C 	0.81035 0.21312 0.93819 0.10400
C 	C 	0.83852 0.38270 0.06831 0.09300
C 	C 	0.69945 0.22400 0.99468 -0.06400
C 	C 	0.66964 0.18015 0.99837 -0.00900
C 	C 	0.68345 0.14105 0.03206 -0.02800
C 	C 	0.72510 0.14772 0.06422 0.01700
C 	C 	0.75532 0.19109 0.05961 -0.03200
C 	C 	0.68505 0.26460 0.96093 0.10300
C 	C 	0.73773 0.10939 0.10117 0.09100
C 	C 	0.62625 0.17430 0.96596 0.09500
C 	C 	0.79909 0.19716 0.09149 0.11100
C 	C 	0.74794 0.32474 0.07359 0.11400
C 	C 	0.89756 0.27485 0.92757 0.08600
N 	N 	0.59164 0.16966 0.94008 -0.10300
N 	N 	0.67362 0.29704 0.93400 -0.10500
N 	N 	0.74829 0.07904 0.13073 -0.09400
N 	N 	0.83402 0.20207 0.11687 -0.10000
N 	N 	0.80428 0.17899 0.91172 -0.10400
N 	N 	0.92604 0.26570 0.89592 -0.10300
N 	N 	0.84396 0.41701 0.09469 -0.09400
N 	N 	0.71634 0.33607 0.10135 -0.09500
C 	C 	0.16979 0.76581 0.93479 -0.02900
C 	C 	0.19373 0.78389 0.97852 -0.01400
C 	C 	0.18063 0.76411 0.02613 0.00300
C 	C 	0.14275 0.72716 0.03011 0.05700
C 	C 	0.11907 0.70880 0.98625 -0.10000
C 	C 	0.13320 0.72766 0.93857 0.02200
C 	C 	0.23242 0.82438 0.97437 0.02300
C 	C 	0.20603 0.78202 0.07095 0.11300
C 	C 	0.10959 0.70819 0.89343 0.09000
C 	C 	0.21886 0.87519 0.98220 -0.02700
C 	C 	0.25484 0.91377 0.97646 0.02000
C 	C 	0.30451 0.90171 0.96096 -0.07500
C 	C 	0.31725 0.85055 0.95123 0.02500
C 	C 	0.28189 0.81201 0.96021 -0.03900
C 	C 	0.16765 0.88778 0.99619 0.05600
C 	C 	0.36583 0.83749 0.93015 0.09500
C 	C 	0.24047 0.96569 0.98647 0.07200
C 	C 	0.29634 0.75944 0.95462 0.10300
C 	C 	0.18251 0.78696 0.88597 0.10300
C 	C 	0.12819 0.70796 0.07921 0.10000
N 	N 	0.22847 0.00698 0.99435 -0.10900
N 	N 	0.12680 0.89776 0.00737 -0.05800
N 	N 	0.40454 0.82661 0.91350 -0.09300
N 	N 	0.30779 0.71749 0.95018 -0.10400
N 	N 	0.22632 0.79638 0.10666 -0.09200
N 	N 	0.11650 0.69270 0.11837 -0.09000
N 	N 	0.09078 0.69263 0.85742 -0.09600
N 	N 	0.19270 0.80388 0.84707 -0.10000
C 	C 	0.28189 0.35998 0.97530 -0.03600
C 	C 	0.29002 0.30912 0.98887 -0.00700
C 	C 	0.24886 0.27841 0.00227 -0.00600
C 	C 	0.20029 0.29921 0.00488 0.06300
C 	C 	0.19113 0.34848 0.98619 -0.11400
C 	C 	0.23241 0.37879 0.97081 0.03200
C 	C 	0.34183 0.28748 0.98925 -0.00800
C 	C 	0.25636 0.22504 0.01237 0.11200
C 	C 	0.22420 0.42802 0.94821 0.09500
C 	C 	0.36389 0.27349 0.03552 -0.00400
C 	C 	0.39674 0.23165 0.03709 0.05900
C 	C 	0.40776 0.20554 0.99231 -0.10600
C 	C 	0.39903 0.22999 0.94632 0.02300
C 	C 	0.36338 0.26935 0.94409 -0.03400
C 	C 	0.34987 0.29955 0.08135 0.11300
C 	C 	0.42821 0.21614 0.90252 0.09400
C 	C 	0.41647 0.21351 0.08457 0.09600
C 	C 	0.34649 0.28852 0.89591 0.10400
C 	C 	0.32436 0.39292 0.96597 0.10200
C 	C 	0.16024 0.27041 0.02832 0.09000
N 	N 	0.43228 0.19895 0.12249 -0.08800
N 	N 	0.33861 0.32039 0.11795 -0.09200
N 	N 	0.45207 0.20523 0.86775 -0.08900
N 	N 	0.33295 0.30385 0.85741 -0.09800
N 	N 	0.26228 0.18246 0.02037 -0.09700
N 	N 	0.12853 0.24710 0.04702 -0.09700
N 	N 	0.21776 0.46730 0.93012 -0.09400
N 	N 	0.35828 0.41916 0.95852 -0.10300
C 	C 	0.77257 0.01838 0.69863 -0.03000
C 	C 	0.75998 0.97713 0.72980 0.01900
C 	C 	0.78321 0.92993 0.72161 -0.03500
C 	C 	0.82425 0.92640 0.68829 0.02500
C 	C 	0.84361 0.97037 0.66572 -0.08200
C 	C 	0.81515 0.01533 0.66711 0.03500
C 	C 	0.72991 0.98555 0.77646 0.01900
C 	C 	0.76647 0.88578 0.74927 0.10500
C 	C 	0.83101 0.05888 0.63806 0.08900
C 	C 	0.67959 0.96942 0.77898 -0.03700
C 	C 	0.65450 0.96789 0.82579 0.02900
C 	C 	0.67858 0.98628 0.86960 -0.08600
C 	C 	0.72715 0.00746 0.86571 0.03300
C 	C 	0.75320 0.00586 0.81955 -0.03100
C 	C 	0.65397 0.95362 0.73352 0.10700
C 	C 	0.75039 0.03108 0.90906 0.08500
C 	C 	0.60515 0.94503 0.82920 0.08700
C 	C 	0.80449 0.02408 0.81655 0.10600
C 	C 	0.74316 0.06442 0.70083 0.10900
C 	C 	0.84641 0.87776 0.67709 0.09300
N 	N 	0.56580 0.92674 0.83180 -0.09400
N 	N 	0.63358 0.94102 0.69721 -0.09900
N 	N 	0.76942 0.04997 0.94333 -0.10600
N 	N 	0.84539 0.03860 0.81408 -0.10100
N 	N 	0.75308 0.85057 0.77138 -0.10200
N 	N 	0.86381 0.83874 0.66814 -0.09400
N 	N 	0.84371 0.09365 0.61488 -0.09400
N 	N 	0.71964 0.10118 0.70263 -0.09800
C 	C 	0.33589 0.95826 0.78530 -0.02900
C 	C 	0.30545 0.99385 0.76014 0.01200
C 	C 	0.31815 0.04550 0.76181 -0.02400
C 	C 	0.35623 0.06218 0.79467 0.01900
C 	C 	0.38187 0.02697 0.82533 -0.06500
C 	C 	0.37621 0.97492 0.81528 0.01200
C 	C 	0.25722 0.97779 0.73648 0.02500
C 	C 	0.29097 0.08152 0.73094 0.10500
C 	C 	0.41348 0.93915 0.83266 0.08200
C 	C 	0.21201 0.98224 0.76369 -0.03400
C 	C 	0.16568 0.97347 0.73968 0.02200
C 	C 	0.16459 0.95665 0.68895 -0.06900
C 	C 	0.21055 0.94684 0.66366 0.02600
C 	C 	0.25655 0.95974 0.68659 -0.03600
C 	C 	0.21327 0.99581 0.81662 0.09200
C 	C 	0.21081 0.92082 0.61562 0.10100
C 	C 	0.11940 0.98196 0.76729 0.08500
C 	C 	0.30320 0.95454 0.65882 0.10800
C 	C 	0.32443 0.90484 0.78210 0.10500
C 	C 	0.36961 0.11514 0.79615 0.09900
N 	N 	0.08268 0.98863 0.78970 -0.11000
N 	N 	0.21439 0.00659 0.85882 -0.10000
N 	N 	0.21110 0.90003 0.57731 -0.09300
N 	N 	0.34046 0.95040 0.63671 -0.09900
N 	N 	0.26922 0.11021 0.70628 -0.09800
N 	N 	0.37994 0.15755 0.79692 -0.09200
N 	N 	0.44344 0.91050 0.84614 -0.09400
N 	N 	0.31523 0.86221 0.77960 -0.09800
C 	C 	0.17823 0.97567 0.23759 -0.03400
C 	C 	0.22718 0.98673 0.25414 0.02400
C 	C 	0.23670 0.99286 0.30594 -0.02900
C 	C 	0.19636 0.99537 0.34032 0.01500
C 	C 	0.14654 0.98851 0.32308 -0.06400
C 	C 	0.13793 0.97650 0.27190 0.02200
C 	C 	0.26670 0.99952 0.21650 0.01300
C 	C 	0.28795 0.99792 0.32355 0.09700
C 	C 	0.08749 0.96628 0.25415 0.08200
C 	C 	0.27411 0.05039 0.20254 -0.02200
C 	C 	0.30280 0.06217 0.15957 0.02100
C 	C 	0.32451 0.02305 0.13071 -0.05500
C 	C 	0.31929 0.97233 0.14618 0.01100
C 	C 	0.29159 0.96073 0.18997 -0.02700
C 	C 	0.25085 0.09048 0.23163 0.10700
C 	C 	0.34112 0.93208 0.11622 0.09000
C 	C 	0.30811 0.11441 0.14376 0.10600
C 	C 	0.28769 0.90887 0.20716 0.10700
C 	C 	0.16918 0.96493 0.18479 0.10800
C 	C 	0.20594 0.00769 0.39264 0.11800
N 	N 	0.31225 0.15607 0.13119 -0.09200
N 	N 	0.23227 0.12238 0.25490 -0.09500
N 	N 	0.35846 0.89999 0.09224 -0.09300
N 	N 	0.28452 0.86749 0.22091 -0.09500
N 	N 	0.32887 0.00197 0.33754 -0.08900
N 	N 	0.21364 0.01754 0.43436 -0.09300
N 	N 	0.04741 0.95826 0.23943 -0.10300
N 	N 	0.16206 0.95636 0.14267 -0.09500
C 	C 	0.75245 0.98241 0.36776 -0.04400
C 	C 	0.74418 0.01100 0.32369 0.04100
C 	C 	0.77664 0.05132 0.31206 -0.03900
C 	C 	0.82238 0.05634 0.33800 0.02400
C 	C 	0.83487 0.02185 0.37663 -0.06800
C 	C 	0.79762 0.98849 0.39491 0.02600
C 	C 	0.70654 0.99420 0.28570 0.00800
C 	C 	0.76326 0.08718 0.27296 0.11000
C 	C 	0.80559 0.96078 0.44133 0.10200
C 	C 	0.66260 0.02283 0.27790 -0.02600
C 	C 	0.63821 0.02123 0.23079 0.02900
C 	C 	0.65536 0.98733 0.19327 -0.07400
C 	C 	0.69265 0.95144 0.20560 0.02300
C 	C 	0.71935 0.95586 0.25114 -0.03000
C 	C 	0.64400 0.05553 0.31751 0.10700
C 	C 	0.70356 0.91012 0.17150 0.08800
C 	C 	0.59756 0.05614 0.22016 0.09500
C 	C 	0.76143 0.92259 0.26141 0.10500
C 	C 	0.71522 0.94612 0.38428 0.11100
C 	C 	0.85684 0.09629 0.32411 0.08400
N 	N 	0.56514 0.08405 0.21172 -0.09300
N 	N 	0.62920 0.08163 0.34917 -0.09600
N 	N 	0.71246 0.87697 0.14454 -0.09600
N 	N 	0.79503 0.89605 0.26959 -0.10000
N 	N 	0.75252 0.11594 0.24192 -0.10000
N 	N 	0.88372 0.12849 0.31229 -0.09500
N 	N 	0.81192 0.93866 0.47841 -0.09500
N 	N 	0.68547 0.91713 0.39742 -0.09900
C 	C 	0.04431 0.21218 0.69128 -0.03400
C 	C 	0.03533 0.21981 0.74306 0.02500
C 	C 	0.02367 0.17830 0.77429 -0.04000
C 	C 	0.01563 0.13028 0.75302 0.04600
C 	C 	0.02428 0.12249 0.70105 -0.07600
C 	C 	0.04017 0.16327 0.67056 0.02900
C 	C 	0.03600 0.27183 0.76469 0.03600
C 	C 	0.02019 0.18506 0.82838 0.11300
C 	C 	0.05241 0.15483 0.61799 0.08700
C 	C 	0.99041 0.29780 0.77284 -0.04600
C 	C 	0.98835 0.33712 0.80857 0.01700
C 	C 	0.03165 0.34958 0.83625 -0.05800
C 	C 	0.07863 0.33143 0.81986 0.01800
C 	C 	0.08084 0.29153 0.78478 -0.03600
C 	C 	0.94548 0.28247 0.74627 0.10700
C 	C 	0.12437 0.35315 0.83971 0.08900
C 	C 	0.94158 0.36342 0.81830 0.09700
C 	C 	0.12872 0.26930 0.77113 0.10500
C 	C 	0.05738 0.25465 0.65934 0.11100
C 	C 	0.99549 0.08986 0.78397 0.07500
N 	N 	0.90423 0.38440 0.82615 -0.10000
N 	N 	0.90962 0.27016 0.72504 -0.10100
N 	N 	0.16100 0.37050 0.85534 -0.10000
N 	N 	0.16692 0.25151 0.76019 -0.10000
N 	N 	0.01754 0.19047 0.87154 -0.10700
N 	N 	0.97935 0.05768 0.80867 -0.09700
N 	N 	0.06215 0.14807 0.57604 -0.10400
N 	N 	0.06782 0.28858 0.63389 -0.09600
C 	C 	0.96081 0.72835 0.65504 -0.02900
C 	C 	0.99638 0.71496 0.69207 0.01100
C 	C 	0.04309 0.73999 0.69283 -0.01900
C 	C 	0.04924 0.78504 0.66528 0.01400
C 	C 	0.00854 0.80482 0.63789 -0.05900
C 	C 	0.96718 0.77351 0.62748 0.01400
C 	C 	0.98071 0.68405 0.73637 0.00700
C 	C 	0.08428 0.71981 0.72224 0.10500
C 	C 	0.93232 0.78712 0.58789 0.10300
C 	C 	0.00084 0.63529 0.74378 -0.00100
C 	C 	0.99918 0.61300 0.79213 -0.00800
C 	C 	0.97334 0.63788 0.83166 -0.06400
C 	C 	0.94351 0.68040 0.82017 0.02000
C 	C 	0.95044 0.70587 0.77424 -0.02900
C 	C 	0.02422 0.60884 0.70211 0.10400
C 	C 	0.90615 0.69820 0.85576 0.08700
C 	C 	0.02470 0.56543 0.80116 0.11800
C 	C 	0.92999 0.75624 0.76765 0.10100
C 	C 	0.91690 0.69713 0.64730 0.10700
C 	C 	0.09755 0.80998 0.66376 0.08900
N 	N 	0.04510 0.52744 0.80826 -0.09900
N 	N 	0.04289 0.58777 0.66882 -0.09300
N 	N 	0.87623 0.71268 0.88393 -0.10400
N 	N 	0.91380 0.79652 0.76265 -0.10500
N 	N 	0.11735 0.70367 0.74548 -0.09500
N 	N 	0.13639 0.82947 0.66257 -0.09800
N 	N 	0.90451 0.79800 0.55623 -0.09500
N 	N 	0.88181 0.67218 0.64116 -0.09800
C 	C 	0.98168 0.75865 0.19051 -0.03000
C 	C 	0.97339 0.73635 0.23798 0.02400
C 	C 	0.96027 0.68493 0.24136 -0.03500
C 	C 	0.95361 0.65611 0.19717 0.02500
C 	C 	0.96281 0.67813 0.14923 -0.06800
C 	C 	0.97704 0.72971 0.14629 0.02300
C 	C 	0.97754 0.76774 0.28446 0.01200
C 	C 	0.95348 0.66170 0.29040 0.10600
C 	C 	0.98673 0.75335 0.09791 0.08900
C 	C 	0.93476 0.79272 0.30358 -0.03300
C 	C 	0.94052 0.83316 0.33758 0.02500
C 	C 	0.98898 0.84937 0.35121 -0.08600
C 	C 	0.03113 0.82016 0.33734 0.03800
C 	C 	0.02524 0.77874 0.30456 -0.02300
C 	C 	0.88513 0.77809 0.28670 0.10800
C 	C 	0.08070 0.83421 0.35494 0.08800
C 	C 	0.89675 0.85879 0.35758 0.09400
C 	C 	0.06838 0.74870 0.28985 0.11000
C 	C 	0.99495 0.81173 0.18721 0.09000
C 	C 	0.93567 0.60454 0.20119 0.10000
N 	N 	0.86170 0.87910 0.37353 -0.09500
N 	N 	0.84554 0.76639 0.27320 -0.09700
N 	N 	0.12024 0.84553 0.36895 -0.09500
N 	N 	0.10278 0.72469 0.27805 -0.09400
N 	N 	0.94808 0.64321 0.32955 -0.10000
N 	N 	0.92145 0.56338 0.20463 -0.09100
N 	N 	0.99432 0.77278 0.05957 -0.10600
N 	N 	0.00553 0.85404 0.18463 -0.08400
C 	C 	0.01817 0.24467 0.20536 -0.03600
C 	C 	0.03398 0.27096 0.24869 0.02400
C 	C 	0.05238 0.32068 0.24438 -0.03200
C 	C 	0.05347 0.34469 0.19696 0.02700
C 	C 	0.03509 0.31931 0.15404 -0.06500
C 	C 	0.01868 0.26881 0.15810 0.02200
C 	C 	0.03048 0.24614 0.29890 0.03600
C 	C 	0.06982 0.34715 0.28879 0.11100
C 	C 	0.00132 0.24202 0.11379 0.11000
C 	C 	0.06959 0.21425 0.31537 -0.03200
C 	C 	0.05945 0.17641 0.35131 0.01500
C 	C 	0.01018 0.17022 0.36950 -0.03800
C 	C 	0.97462 0.20878 0.36136 0.01100
C 	C 	0.98456 0.24666 0.32539 -0.04500
C 	C 	0.11937 0.21913 0.29381 0.10800
C 	C 	0.92805 0.20918 0.38965 0.10300
C 	C 	0.09956 0.14465 0.37026 0.09700
C 	C 	0.94697 0.28457 0.31386 0.10700
C 	C 	0.00076 0.19292 0.20968 0.12900
C 	C 	0.07432 0.39505 0.19211 0.09900
N 	N 	0.13172 0.11949 0.38548 -0.09500
N 	N 	0.15909 0.22312 0.27656 -0.09500
N 	N 	0.89087 0.20947 0.41226 -0.09600
N 	N 	0.91699 0.31487 0.30461 -0.10000
N 	N 	0.08373 0.36823 0.32426 -0.09500
N 	N 	0.09095 0.43524 0.18823 -0.09400
N 	N 	0.98748 0.22056 0.07852 -0.11200
N 	N 	0.98687 0.15166 0.21324 -0.11700
