data_crystal

_cell_length_a 25.86748
_cell_length_b 25.21757
_cell_length_c 30.52397
_cell_angle_alpha 90.00218
_cell_angle_beta  90.00448
_cell_angle_gamma 92.42841

_symmetry_space_group_name_	'P 1'
_symmetry_space_group_name_H-M	'P 1'

loop_
_symmetry_equiv_pos_as_xyz
  x,y,z

loop_
_atom_site_label
_atom_site_type_symbol
_atom_site_fract_x
_atom_site_fract_y
_atom_site_fract_z
_atom_site_charge
C 	C 	0.93272 0.95733 0.01042 -0.03600
C 	C 	0.93233 0.01120 0.00016 -0.04600
C 	C 	0.97975 0.93142 0.01364 0.00800
C 	C 	0.02705 0.96120 0.00873 -0.00700
C 	C 	0.02669 0.01589 0.99816 -0.00200
C 	C 	0.97904 0.04101 0.99364 0.01400
C 	C 	0.07469 0.93635 0.01427 0.01100
C 	C 	0.12142 0.96641 0.00880 -0.04200
C 	C 	0.07399 0.04541 0.99230 0.00800
C 	C 	0.97908 0.09566 0.98285 -0.01000
C 	C 	0.02597 0.12425 0.97629 -0.04300
C 	C 	0.07323 0.09998 0.98134 -0.00800
C 	C 	0.98050 0.87623 0.02224 -0.00700
C 	C 	0.02772 0.85241 0.02895 -0.04500
C 	C 	0.07460 0.88170 0.02504 -0.00800
C 	C 	0.93045 0.12410 0.97987 0.02000
C 	C 	0.90560 0.12920 0.93935 -0.04500
C 	C 	0.86152 0.15919 0.93600 -0.03200
C 	C 	0.84226 0.18470 0.97313 0.00400
C 	C 	0.86662 0.17866 0.01381 -0.03000
C 	C 	0.91062 0.14862 0.01713 -0.04800
C 	C 	0.12159 0.13285 0.97683 0.01900
C 	C 	0.14494 0.15615 0.01397 -0.04800
C 	C 	0.18968 0.18876 0.00965 -0.03000
C 	C 	0.14312 0.14252 0.93528 -0.04400
C 	C 	0.18783 0.17528 0.93090 -0.03300
C 	C 	0.21137 0.19849 0.96811 0.00500
C 	C 	0.93267 0.84197 0.02089 0.01300
C 	C 	0.91496 0.81581 0.05894 -0.04400
C 	C 	0.87417 0.77772 0.05659 -0.02800
C 	C 	0.85058 0.76563 0.01617 -0.00000
C 	C 	0.86686 0.79359 0.97843 -0.03000
C 	C 	0.90820 0.83098 0.98069 -0.04100
C 	C 	0.12326 0.85388 0.03056 0.01300
C 	C 	0.14709 0.83156 0.99409 -0.04200
C 	C 	0.19016 0.80065 0.99968 -0.02500
C 	C 	0.20948 0.79143 0.04184 -0.00200
C 	C 	0.18633 0.81481 0.07826 -0.03200
C 	C 	0.14327 0.84581 0.07262 -0.04400
C 	C 	0.12107 0.01997 0.99752 -0.03400
H 	H 	0.92068 0.11028 0.91044 0.04500
H 	H 	0.84250 0.16280 0.90458 0.04200
H 	H 	0.85200 0.19801 0.04269 0.04700
H 	H 	0.92967 0.14487 0.04852 0.04500
H 	H 	0.84783 0.78598 0.94731 0.04200
H 	H 	0.92167 0.85094 0.95114 0.04500
H 	H 	0.86164 0.75684 0.08600 0.04800
H 	H 	0.93369 0.82401 0.09010 0.04400
H 	H 	0.13172 0.83750 0.96152 0.04600
H 	H 	0.20789 0.78299 0.97135 0.04700
H 	H 	0.12500 0.86291 0.10094 0.04400
H 	H 	0.20147 0.80868 0.11088 0.04200
H 	H 	0.12837 0.14903 0.04614 0.04600
H 	H 	0.20758 0.20636 0.03859 0.04800
H 	H 	0.12505 0.12493 0.90642 0.04500
H 	H 	0.20384 0.18303 0.89862 0.04200
H 	H 	0.89617 0.93603 0.01631 0.04400
H 	H 	0.89541 0.02959 0.99744 0.04900
H 	H 	0.02569 0.16610 0.96808 0.04700
H 	H 	0.15774 0.04151 0.99289 0.04400
H 	H 	0.15834 0.94843 0.01307 0.04600
H 	H 	0.02805 0.81024 0.03598 0.04600
C 	C 	0.07039 0.03222 0.47682 -0.03900
C 	C 	0.06356 0.97762 0.48322 -0.03900
C 	C 	0.02746 0.06390 0.47029 0.00900
C 	C 	0.97715 0.03957 0.46905 -0.00600
C 	C 	0.97027 0.98401 0.47496 -0.00500
C 	C 	0.01359 0.95303 0.48325 0.00800
C 	C 	0.93363 0.07082 0.46262 0.00900
C 	C 	0.88410 0.04575 0.45910 -0.03900
C 	C 	0.92005 0.95957 0.47273 0.00800
C 	C 	0.00609 0.89785 0.49112 -0.00800
C 	C 	0.95630 0.87399 0.48879 -0.04500
C 	C 	0.91338 0.90412 0.47959 -0.00800
C 	C 	0.03381 0.11967 0.46519 -0.00800
C 	C 	0.99044 0.15026 0.45946 -0.04500
C 	C 	0.94052 0.12668 0.45960 -0.00800
C 	C 	0.04991 0.86463 0.50241 0.01600
C 	C 	0.07227 0.83332 0.47018 -0.04500
C 	C 	0.11436 0.80269 0.48058 -0.02800
C 	C 	0.13453 0.80327 0.52328 0.00200
C 	C 	0.11164 0.83404 0.55571 -0.03200
C 	C 	0.06936 0.86448 0.54533 -0.04400
C 	C 	0.86151 0.87722 0.47832 0.01700
C 	C 	0.82840 0.87998 0.51454 -0.04500
C 	C 	0.77929 0.85472 0.51332 -0.02700
C 	C 	0.84540 0.84861 0.44100 -0.04400
C 	C 	0.79650 0.82279 0.43992 -0.03200
C 	C 	0.76308 0.82584 0.47606 0.00200
C 	C 	0.08509 0.14713 0.46970 0.01600
C 	C 	0.10107 0.16719 0.51054 -0.04400
C 	C 	0.14908 0.19411 0.51484 -0.03200
C 	C 	0.18182 0.20078 0.47834 0.00200
C 	C 	0.16553 0.18117 0.43733 -0.02800
C 	C 	0.11727 0.15448 0.43302 -0.04500
C 	C 	0.89591 0.16125 0.46131 0.01700
C 	C 	0.87311 0.17855 0.42248 -0.04500
C 	C 	0.83136 0.21192 0.42423 -0.03200
C 	C 	0.81271 0.22901 0.46489 0.00200
C 	C 	0.83548 0.21138 0.50370 -0.02800
C 	C 	0.87691 0.17767 0.50190 -0.04400
C 	C 	0.87748 0.99089 0.46361 -0.03800
H 	H 	0.05731 0.83306 0.43703 0.04500
H 	H 	0.13172 0.77904 0.45533 0.04700
H 	H 	0.12656 0.83432 0.58888 0.04200
H 	H 	0.05204 0.88831 0.57047 0.04500
H 	H 	0.19035 0.18631 0.40893 0.04800
H 	H 	0.10498 0.13937 0.40130 0.04500
H 	H 	0.16073 0.21009 0.54645 0.04200
H 	H 	0.07616 0.16209 0.53889 0.04400
H 	H 	0.88753 0.16586 0.39102 0.04400
H 	H 	0.81342 0.22434 0.39406 0.04200
H 	H 	0.89441 0.16446 0.53202 0.04500
H 	H 	0.82141 0.22424 0.53524 0.04800
H 	H 	0.84065 0.90194 0.54350 0.04600
H 	H 	0.75395 0.85727 0.54143 0.04900
H 	H 	0.87090 0.84610 0.41299 0.04500
H 	H 	0.78499 0.79964 0.41138 0.04200
H 	H 	0.10935 0.04965 0.47700 0.04400
H 	H 	0.09748 0.95456 0.48784 0.04400
H 	H 	0.95085 0.83168 0.49459 0.04800
H 	H 	0.83898 0.97296 0.45990 0.04500
H 	H 	0.85050 0.06854 0.45228 0.04600
H 	H 	0.99546 0.19308 0.45678 0.04700
Ni	Ni	0.50318 0.52238 0.04925 1.09700
O 	O 	0.55501 0.46421 0.03950 -0.70300
Ni	Ni	0.54559 0.44974 0.97470 1.09800
O 	O 	0.51275 0.52423 0.11624 -0.34700
O 	O 	0.50436 0.43479 0.12528 -0.40000
O 	O 	0.56200 0.58044 0.04925 -0.36500
Ni	Ni	0.53374 0.39831 0.07027 1.06600
O 	O 	0.49329 0.62715 0.99927 -0.39900
O 	O 	0.45999 0.39842 0.04655 -0.40500
O 	O 	0.59782 0.39177 0.96975 -0.36000
O 	O 	0.49396 0.50804 0.98444 -0.70100
O 	O 	0.45120 0.58067 0.05366 -0.36100
O 	O 	0.53488 0.44758 0.90788 -0.35600
O 	O 	0.54542 0.53687 0.89876 -0.39000
Ni	Ni	0.51646 0.57366 0.95381 1.06700
H 	H 	0.59113 0.47562 0.04657 0.15700
H 	H 	0.45780 0.49706 0.97709 0.15600
C 	C 	0.44950 0.38991 0.00515 0.26700
O 	O 	0.58913 0.57210 0.97879 -0.40100
C 	C 	0.52098 0.48153 0.13955 0.26800
C 	C 	0.59789 0.35370 0.99922 0.27300
C 	C 	0.59880 0.58500 0.01957 0.27400
C 	C 	0.52765 0.49051 0.88456 0.26700
C 	C 	0.45222 0.61915 0.02447 0.26800
O 	O 	0.48676 0.39181 0.97590 -0.35300
O 	O 	0.55715 0.34507 0.02470 -0.40200
Ni	Ni	0.44931 0.54987 0.54450 1.09900
O 	O 	0.50420 0.49364 0.54078 -0.70200
Ni	Ni	0.50525 0.48022 0.47618 1.10000
O 	O 	0.45501 0.55378 0.61154 -0.36000
O 	O 	0.44621 0.46371 0.61981 -0.38900
O 	O 	0.51133 0.60265 0.54093 -0.38600
Ni	Ni	0.48660 0.42691 0.57002 1.06900
O 	O 	0.37285 0.60943 0.47135 -0.40200
O 	O 	0.41847 0.41699 0.53692 -0.40200
O 	O 	0.56508 0.43063 0.47631 -0.36000
O 	O 	0.44386 0.52803 0.48165 -0.70600
O 	O 	0.39838 0.61051 0.54438 -0.36100
O 	O 	0.50963 0.48635 0.40917 -0.35700
O 	O 	0.51082 0.57680 0.41310 -0.40800
Ni	Ni	0.44282 0.59236 0.44605 1.07200
H 	H 	0.53867 0.50750 0.55060 0.15700
H 	H 	0.41075 0.50761 0.47737 0.15600
C 	C 	0.41683 0.40199 0.49583 0.27700
O 	O 	0.47927 0.64928 0.48405 -0.37900
C 	C 	0.46049 0.51080 0.63549 0.26200
C 	C 	0.56652 0.39204 0.50547 0.26600
C 	C 	0.51739 0.63919 0.51065 0.28600
C 	C 	0.51441 0.53304 0.38996 0.26400
C 	C 	0.36289 0.61670 0.51357 0.27500
O 	O 	0.45521 0.41464 0.46886 -0.36000
O 	O 	0.52442 0.37780 0.52825 -0.39700
C 	C 	0.48311 0.47631 0.75181 0.09000
C 	C 	0.50082 0.52536 0.76909 0.09100
N 	N 	0.51518 0.52889 0.81178 -0.09800
C 	C 	0.51270 0.48527 0.83814 -0.02600
C 	C 	0.49449 0.43621 0.82086 0.03900
N 	N 	0.48021 0.43273 0.77800 -0.11200
N 	N 	0.46946 0.47264 0.70892 -0.09900
N 	N 	0.50385 0.56890 0.74294 -0.11200
H 	H 	0.49147 0.40121 0.84138 0.05000
C 	C 	0.47262 0.51621 0.68248 -0.02800
C 	C 	0.49017 0.56537 0.69999 0.03900
H 	H 	0.49355 0.60035 0.67946 0.04600
C 	C 	0.54112 0.49201 0.27617 0.09400
C 	C 	0.52468 0.53584 0.25227 0.09300
N 	N 	0.52082 0.53277 0.20793 -0.08700
C 	C 	0.53273 0.48750 0.18649 -0.02500
C 	C 	0.55161 0.44472 0.21034 0.04000
N 	N 	0.55511 0.44774 0.25471 -0.11000
N 	N 	0.53970 0.49289 0.32060 -0.08800
N 	N 	0.50945 0.57961 0.27384 -0.10900
H 	H 	0.56226 0.40884 0.19374 0.02000
C 	C 	0.52287 0.53601 0.34235 -0.02700
C 	C 	0.50849 0.58074 0.31841 0.03600
H 	H 	0.49492 0.61539 0.33509 0.02500
C 	C 	0.22227 0.69115 0.52765 0.09500
C 	C 	0.26863 0.71667 0.54190 0.08900
N 	N 	0.31340 0.69038 0.54060 -0.08900
C 	C 	0.31374 0.63960 0.52542 -0.02300
C 	C 	0.26696 0.61344 0.51318 0.03900
N 	N 	0.22218 0.63975 0.51447 -0.11200
N 	N 	0.17886 0.71921 0.52378 -0.11500
N 	N 	0.26918 0.76881 0.55315 -0.10400
H 	H 	0.26664 0.57311 0.50094 0.02900
C 	C 	0.17970 0.77187 0.53375 0.04800
C 	C 	0.22560 0.79689 0.54951 0.00200
H 	H 	0.22701 0.83881 0.55732 0.04100
C 	C 	0.65397 0.73678 0.51306 0.09600
C 	C 	0.62054 0.73743 0.47680 0.08900
N 	N 	0.57595 0.70688 0.47705 -0.09300
C 	C 	0.56340 0.67566 0.51225 -0.02600
C 	C 	0.59650 0.67611 0.54890 0.04200
N 	N 	0.64109 0.70655 0.54846 -0.11300
N 	N 	0.69941 0.76564 0.51216 -0.11500
N 	N 	0.63356 0.76774 0.44138 -0.10400
H 	H 	0.58697 0.65210 0.57740 0.04200
C 	C 	0.71301 0.79545 0.47649 0.04900
C 	C 	0.67900 0.79702 0.44057 0.00200
H 	H 	0.68860 0.82150 0.41234 0.04100
C 	C 	0.68962 0.28754 0.49847 0.09500
C 	C 	0.68967 0.33353 0.47254 0.08900
N 	N 	0.64992 0.36676 0.47562 -0.09000
C 	C 	0.60988 0.35602 0.50366 -0.02400
C 	C 	0.61025 0.31025 0.53005 0.03800
N 	N 	0.65006 0.27690 0.52680 -0.11300
N 	N 	0.72923 0.25412 0.49518 -0.11500
N 	N 	0.72951 0.34452 0.44459 -0.10400
H 	H 	0.57908 0.30120 0.55286 0.03300
C 	C 	0.76913 0.26485 0.46697 0.04800
C 	C 	0.76936 0.31126 0.44141 0.00200
H 	H 	0.80136 0.32108 0.41960 0.04100
C 	C 	0.32256 0.28812 0.49787 0.09000
C 	C 	0.29014 0.30006 0.46262 0.09500
N 	N 	0.24572 0.27045 0.45593 -0.11500
C 	C 	0.23262 0.22903 0.48298 0.04800
C 	C 	0.26644 0.21566 0.51691 0.00200
N 	N 	0.31049 0.24577 0.52390 -0.10600
N 	N 	0.36436 0.32050 0.50700 -0.09400
N 	N 	0.30211 0.34277 0.43683 -0.11300
H 	H 	0.25722 0.18209 0.53804 0.04000
C 	C 	0.37578 0.36399 0.48189 -0.02400
C 	C 	0.34458 0.37478 0.44558 0.04100
H 	H 	0.35305 0.40940 0.42541 0.02800
C 	C 	0.33238 0.68745 0.05237 0.08800
C 	C 	0.33672 0.73249 0.02532 0.09200
N 	N 	0.29740 0.76636 0.02344 -0.11600
C 	C 	0.25375 0.75723 0.04766 0.04800
C 	C 	0.24976 0.71258 0.07524 0.00100
N 	N 	0.28917 0.67858 0.07702 -0.10500
N 	N 	0.37052 0.65203 0.05242 -0.09100
N 	N 	0.37935 0.74081 0.99996 -0.11200
H 	H 	0.21502 0.70434 0.09427 0.04000
C 	C 	0.41303 0.65983 0.02648 -0.03000
C 	C 	0.41761 0.70551 0.99999 0.04000
H 	H 	0.45110 0.71257 0.97921 0.03300
C 	C 	0.73077 0.68501 0.04109 0.09500
C 	C 	0.72916 0.64879 0.00612 0.08500
N 	N 	0.68744 0.61484 0.00112 -0.09500
C 	C 	0.64720 0.61526 0.02986 -0.02800
C 	C 	0.65003 0.64991 0.06603 0.04000
N 	N 	0.69162 0.68430 0.07073 -0.11200
N 	N 	0.77038 0.72195 0.04401 -0.11500
N 	N 	0.76816 0.64965 0.97635 -0.10400
H 	H 	0.61853 0.65083 0.08934 0.05100
C 	C 	0.80882 0.72393 0.01347 0.04500
C 	C 	0.80823 0.68612 0.97955 0.00500
H 	H 	0.83940 0.68586 0.95589 0.04000
C 	C 	0.71667 0.24388 0.99745 0.09700
C 	C 	0.71635 0.28560 0.96697 0.08800
N 	N 	0.67723 0.31986 0.96750 -0.09000
C 	C 	0.63818 0.31413 0.99730 -0.02500
C 	C 	0.63835 0.27192 0.02748 0.03300
N 	N 	0.67759 0.23771 0.02691 -0.11500
N 	N 	0.75691 0.21103 0.99818 -0.11500
N 	N 	0.75600 0.29242 0.93810 -0.10400
H 	H 	0.60786 0.26678 0.05159 0.03000
C 	C 	0.79696 0.21802 0.96952 0.04800
C 	C 	0.79632 0.25950 0.93875 0.00200
H 	H 	0.82824 0.26616 0.91620 0.04100
C 	C 	0.34922 0.29395 0.96405 0.08900
C 	C 	0.30480 0.31212 0.98478 0.09700
N 	N 	0.26023 0.28173 0.98419 -0.11400
C 	C 	0.25809 0.23369 0.96374 0.04800
C 	C 	0.30219 0.21618 0.94206 0.00300
N 	N 	0.34686 0.24667 0.94268 -0.10300
N 	N 	0.39511 0.32168 0.96849 -0.08900
N 	N 	0.30772 0.35813 0.00790 -0.11400
H 	H 	0.30134 0.17785 0.92603 0.04100
C 	C 	0.39853 0.36663 0.99325 -0.02100
C 	C 	0.35367 0.38579 0.01250 0.03300
H 	H 	0.35570 0.42163 0.03208 0.03100
