data_crystal

_cell_length_a 26.06031
_cell_length_b 26.34421
_cell_length_c 26.67002
_cell_angle_alpha 95.48385
_cell_angle_beta  95.48516
_cell_angle_gamma 125.83216

_symmetry_space_group_name_	'P 1'
_symmetry_space_group_name_H-M	'P 1'

loop_
_symmetry_equiv_pos_as_xyz
  x,y,z

loop_
_atom_site_label
_atom_site_type_symbol
_atom_site_fract_x
_atom_site_fract_y
_atom_site_fract_z
_atom_site_charge
C 	C 	0.97527 0.02908 0.99154 0.14600
N 	N 	0.04054 0.06661 0.99736 -0.12300
C 	C 	0.07109 0.03973 0.98949 0.15400
N 	N 	0.03630 0.97580 0.97392 -0.12300
C 	C 	0.97122 0.93805 0.96885 0.16200
N 	N 	0.94087 0.96477 0.97856 -0.11100
C 	C 	0.93191 0.00142 0.44828 0.14600
N 	N 	0.99722 0.03793 0.45556 -0.12800
C 	C 	0.02811 0.01140 0.46397 0.15200
N 	N 	0.99372 0.94831 0.46517 -0.11800
C 	C 	0.92840 0.91141 0.45728 0.16200
N 	N 	0.89739 0.93792 0.44873 -0.11300
Cu	Cu	0.66241 0.26507 0.01333 0.93100
Cu	Cu	0.66468 0.20849 0.89649 0.89000
Cu	Cu	0.68849 0.34309 0.92911 0.91000
Cu	Cu	0.65351 0.38099 0.02652 0.90200
C 	C 	0.67257 0.32492 0.11321 0.28100
O 	O 	0.56895 0.21924 0.02001 -0.34700
C 	C 	0.65977 0.27829 0.82247 0.28500
O 	O 	0.70304 0.35774 0.00186 -0.64300
O 	O 	0.63937 0.25146 0.93737 -0.63200
O 	O 	0.72090 0.23915 0.02049 -0.34700
O 	O 	0.66950 0.16446 0.94672 -0.40000
O 	O 	0.67334 0.37209 0.09833 -0.36400
O 	O 	0.73405 0.43272 0.92816 -0.34800
C 	C 	0.71901 0.46685 0.95288 0.30600
C 	C 	0.53673 0.24064 0.00469 0.30200
O 	O 	0.56500 0.29253 0.98514 -0.36400
O 	O 	0.66999 0.43997 0.97739 -0.37200
O 	O 	0.69119 0.29578 0.08577 -0.34600
C 	C 	0.71508 0.19467 0.98771 0.31000
O 	O 	0.69524 0.33197 0.85657 -0.36400
O 	O 	0.63096 0.22252 0.83659 -0.39200
H 	H 	0.74943 0.38858 0.01720 0.17800
H 	H 	0.59273 0.22958 0.92587 0.18800
Cu	Cu	0.72640 0.33834 0.43102 0.93300
Cu	Cu	0.73360 0.28032 0.53248 0.88100
Cu	Cu	0.63334 0.29912 0.50593 0.90100
Cu	Cu	0.60152 0.33131 0.40970 0.90100
C 	C 	0.66940 0.32493 0.32818 0.28600
O 	O 	0.75864 0.43071 0.43721 -0.33500
C 	C 	0.67969 0.30175 0.61212 0.28000
O 	O 	0.62716 0.28269 0.43299 -0.63900
O 	O 	0.72695 0.34253 0.50555 -0.63500
O 	O 	0.77604 0.30282 0.42445 -0.34000
O 	O 	0.71461 0.22683 0.47014 -0.42900
O 	O 	0.64337 0.35069 0.34821 -0.37100
O 	O 	0.54124 0.25095 0.50270 -0.37300
C 	C 	0.50191 0.25745 0.47396 0.31900
C 	C 	0.73074 0.45180 0.46118 0.30400
O 	O 	0.67271 0.41084 0.47046 -0.38100
O 	O 	0.51755 0.28560 0.43366 -0.36900
O 	O 	0.70958 0.31999 0.35749 -0.35000
C 	C 	0.75547 0.24847 0.43872 0.31000
O 	O 	0.64152 0.30776 0.58106 -0.35900
O 	O 	0.73194 0.31155 0.59926 -0.39500
H 	H 	0.59933 0.23702 0.41673 0.17400
H 	H 	0.75546 0.38582 0.52694 0.19800
C 	C 	0.66505 0.23986 0.73550 -0.00400
C 	C 	0.65922 0.28103 0.76752 -0.05600
C 	C 	0.65624 0.32681 0.74740 -0.00000
C 	C 	0.66068 0.33232 0.69600 0.00400
C 	C 	0.66874 0.29249 0.66460 -0.05700
C 	C 	0.67014 0.24581 0.68443 -0.00600
H 	H 	0.66748 0.20440 0.75057 0.04100
H 	H 	0.65084 0.35826 0.77156 0.06800
H 	H 	0.65948 0.36849 0.68103 0.06300
H 	H 	0.67597 0.21461 0.66037 0.03600
C 	C 	0.71521 0.31979 0.25099 -0.00300
C 	C 	0.66612 0.31662 0.27202 -0.05400
C 	C 	0.61616 0.31026 0.23949 -0.00500
C 	C 	0.61739 0.31107 0.18730 -0.00500
C 	C 	0.66797 0.31725 0.16686 -0.05200
C 	C 	0.71604 0.32003 0.19862 -0.00100
H 	H 	0.75379 0.32411 0.27535 0.06500
H 	H 	0.57706 0.30604 0.25483 0.04900
H 	H 	0.57945 0.30775 0.16287 0.04600
H 	H 	0.75518 0.32451 0.18314 0.06200
C 	C 	0.89148 0.84257 0.45664 -0.02700
C 	C 	0.89000 0.80250 0.41661 0.12300
C 	C 	0.86233 0.73892 0.41987 -0.06300
C 	C 	0.83554 0.71460 0.46263 0.01600
C 	C 	0.83545 0.75416 0.50204 0.10200
C 	C 	0.86315 0.81782 0.49877 -0.03600
H 	H 	0.86164 0.70836 0.38914 0.08800
C 	C 	0.80729 0.64751 0.46558 0.03100
H 	H 	0.86410 0.84846 0.52962 0.08800
C 	C 	0.84630 0.63231 0.48843 -0.08100
C 	C 	0.82129 0.56859 0.48873 0.15100
C 	C 	0.75678 0.51940 0.46547 -0.09300
C 	C 	0.71742 0.53487 0.44382 -0.00500
C 	C 	0.74237 0.59849 0.44368 0.08400
H 	H 	0.89611 0.67000 0.50584 0.09300
H 	H 	0.66771 0.49729 0.42602 0.06100
Br	Br	0.79834 0.72226 0.56077 -0.17400
Br	Br	0.92476 0.83361 0.35686 -0.16300
Br	Br	0.87514 0.55004 0.52301 -0.20800
Br	Br	0.68724 0.61750 0.41284 -0.17600
C 	C 	0.78386 0.21568 0.42491 -0.10200
C 	C 	0.84849 0.24296 0.44574 0.14400
C 	C 	0.87048 0.20553 0.44289 -0.08400
C 	C 	0.82853 0.14091 0.41969 0.03000
C 	C 	0.76515 0.11466 0.39620 0.08200
C 	C 	0.74321 0.15214 0.39876 -0.00700
H 	H 	0.91960 0.22614 0.46037 0.09000
C 	C 	0.84966 0.09997 0.42410 0.01200
H 	H 	0.69364 0.13103 0.38229 0.06400
C 	C 	0.84001 0.06972 0.46649 -0.06200
C 	C 	0.86455 0.03524 0.47379 0.11000
C 	C 	0.89877 0.03043 0.43813 -0.02400
C 	C 	0.90670 0.05911 0.39492 -0.04000
C 	C 	0.88243 0.09386 0.38781 0.10300
H 	H 	0.81466 0.07421 0.49443 0.07900
H 	H 	0.93285 0.05543 0.36733 0.09000
Br	Br	0.70732 0.02724 0.36183 -0.18600
Br	Br	0.90622 0.32987 0.48143 -0.22400
Br	Br	0.85398 0.99825 0.53416 -0.17500
Br	Br	0.89521 0.13330 0.32870 -0.17700
C 	C 	0.09839 0.05015 0.46901 -0.03100
C 	C 	0.12712 0.06531 0.42536 0.12400
C 	C 	0.19405 0.10052 0.43063 -0.06500
C 	C 	0.23268 0.12042 0.47915 0.01500
C 	C 	0.20401 0.10578 0.52288 0.10100
C 	C 	0.13704 0.07056 0.51760 -0.03800
H 	H 	0.21602 0.11181 0.39692 0.08800
C 	C 	0.30300 0.15598 0.48365 0.03000
H 	H 	0.11501 0.05888 0.55127 0.07900
C 	C 	0.34222 0.22258 0.48946 -0.08200
C 	C 	0.40812 0.25662 0.48892 0.15000
C 	C 	0.43513 0.22378 0.48203 -0.09500
C 	C 	0.39641 0.15743 0.47853 -0.00700
C 	C 	0.33053 0.12342 0.47910 0.08400
H 	H 	0.32132 0.24784 0.49381 0.09300
H 	H 	0.41709 0.13201 0.47370 0.06500
Br	Br	0.25549 0.13291 0.58996 -0.18500
Br	Br	0.07555 0.03682 0.35809 -0.17600
Br	Br	0.46075 0.34799 0.49900 -0.20200
Br	Br	0.27859 0.03240 0.47251 -0.18900
C 	C 	0.93504 0.86811 0.95984 -0.02700
C 	C 	0.87361 0.82734 0.92782 0.12500
C 	C 	0.83793 0.76130 0.92433 -0.06400
C 	C 	0.86417 0.73531 0.95035 0.01500
C 	C 	0.92773 0.77566 0.97826 0.10700
C 	C 	0.96214 0.84167 0.98401 -0.03200
H 	H 	0.78986 0.73012 0.90123 0.08900
C 	C 	0.82403 0.66619 0.94994 0.03200
H 	H 	0.00989 0.87249 0.00765 0.09100
C 	C 	0.81080 0.62402 0.90577 -0.08400
C 	C 	0.77459 0.55845 0.90533 0.15400
C 	C 	0.75429 0.53511 0.95062 -0.09400
C 	C 	0.76639 0.57744 0.99433 -0.00200
C 	C 	0.79949 0.64232 0.99371 0.08800
H 	H 	0.82786 0.64212 0.87147 0.09200
H 	H 	0.74971 0.55977 0.02885 0.05800
Br	Br	0.96849 0.74140 0.00845 -0.18300
Br	Br	0.83997 0.86007 0.88504 -0.17800
Br	Br	0.74799 0.50192 0.84129 -0.20500
Br	Br	0.80945 0.69745 0.05264 -0.17600
C 	C 	0.75697 0.17532 0.99894 -0.09700
C 	C 	0.82346 0.21739 0.99870 0.15100
C 	C 	0.86110 0.19551 0.00242 -0.08800
C 	C 	0.83292 0.13183 0.00604 0.03200
C 	C 	0.76723 0.09075 0.00910 0.08400
C 	C 	0.72952 0.11253 0.00524 -0.00800
H 	H 	0.91181 0.22742 0.00064 0.09000
C 	C 	0.87097 0.10718 0.00207 0.00800
H 	H 	0.67856 0.08024 0.00610 0.07200
C 	C 	0.90819 0.11184 0.04640 -0.06000
C 	C 	0.94332 0.08728 0.04332 0.11600
C 	C 	0.94150 0.05804 0.99544 -0.02000
C 	C 	0.90490 0.05410 0.95109 -0.04200
C 	C 	0.86999 0.07879 0.95413 0.10900
H 	H 	0.90921 0.13387 0.08332 0.08900
H 	H 	0.90342 0.03162 0.91420 0.08600
Br	Br	0.72792 0.00430 0.01713 -0.18100
Br	Br	0.86297 0.30373 0.99011 -0.24000
Br	Br	0.99165 0.09215 0.10505 -0.17200
Br	Br	0.82097 0.07309 0.89243 -0.19500
C 	C 	0.14163 0.07884 0.00110 -0.04000
C 	C 	0.17291 0.06963 0.04126 0.12400
C 	C 	0.23839 0.09690 0.04543 -0.06600
C 	C 	0.27337 0.13442 0.01045 0.01300
C 	C 	0.24308 0.14697 0.97230 0.10200
C 	C 	0.17738 0.11913 0.96780 -0.03200
H 	H 	0.26197 0.08842 0.07559 0.08600
C 	C 	0.34100 0.15860 0.01291 0.02500
H 	H 	0.15363 0.12697 0.93725 0.07900
C 	C 	0.35554 0.12477 0.98112 -0.07900
C 	C 	0.41970 0.14957 0.98001 0.15700
C 	C 	0.46984 0.20838 0.01140 -0.10400
C 	C 	0.45517 0.24048 0.04507 -0.00800
C 	C 	0.39110 0.21602 0.04584 0.08200
H 	H 	0.31696 0.08004 0.95629 0.09000
H 	H 	0.49372 0.28553 0.06958 0.05000
Br	Br	0.29049 0.20121 0.92561 -0.18400
Br	Br	0.12694 0.02029 0.09092 -0.18600
Br	Br	0.43784 0.10397 0.93368 -0.22200
Br	Br	0.37296 0.26280 0.09076 -0.19200
