data_crystal

_cell_length_a 39.82795
_cell_length_b 35.64917
_cell_length_c 22.83639
_cell_angle_alpha 89.96105
_cell_angle_beta  89.94683
_cell_angle_gamma 87.39882

_symmetry_space_group_name_	'P 1'
_symmetry_space_group_name_H-M	'P 1'

loop_
_symmetry_equiv_pos_as_xyz
  x,y,z

loop_
_atom_site_label
_atom_site_type_symbol
_atom_site_fract_x
_atom_site_fract_y
_atom_site_fract_z
_atom_site_charge
C 	C 	0.44471 0.55243 0.04048 -0.02700
C 	C 	0.47424 0.57149 0.03319 -0.03500
C 	C 	0.44531 0.51287 0.03975 0.01100
C 	C 	0.47649 0.49243 0.03476 0.00400
C 	C 	0.50645 0.51176 0.02671 -0.00300
C 	C 	0.50525 0.55156 0.02507 0.02200
C 	C 	0.47774 0.45267 0.03750 0.01500
C 	C 	0.50895 0.43275 0.03202 -0.02600
C 	C 	0.53755 0.49130 0.02040 0.02200
C 	C 	0.53527 0.57061 0.01583 -0.00800
C 	C 	0.56575 0.55011 0.00866 -0.03400
C 	C 	0.56724 0.51086 0.01082 -0.00700
C 	C 	0.41530 0.49328 0.04471 0.00300
C 	C 	0.41684 0.45408 0.04879 -0.03900
C 	C 	0.44757 0.43362 0.04537 0.00500
C 	C 	0.53535 0.61205 0.01276 0.04300
C 	C 	0.52713 0.63056 0.96010 -0.05000
C 	C 	0.53290 0.66876 0.95366 0.00500
C 	C 	0.54698 0.68871 0.99981 0.01500
C 	C 	0.55438 0.67041 0.05297 0.01500
C 	C 	0.54831 0.63233 0.05958 -0.04000
C 	C 	0.60012 0.49080 0.00200 0.04500
C 	C 	0.62479 0.49195 0.04566 -0.03900
C 	C 	0.65777 0.47923 0.03372 0.01700
C 	C 	0.60830 0.47507 0.94723 -0.05000
C 	C 	0.64118 0.46180 0.93557 0.00700
C 	C 	0.66619 0.46450 0.97841 0.01300
C 	C 	0.38193 0.51303 0.04158 0.03800
C 	C 	0.36076 0.51390 0.09075 -0.02700
C 	C 	0.32705 0.52595 0.08515 -0.00100
C 	C 	0.31427 0.53701 0.03028 0.03600
C 	C 	0.33603 0.53902 0.98219 -0.00700
C 	C 	0.36966 0.52654 0.98759 -0.03500
C 	C 	0.44750 0.39217 0.04870 0.02500
C 	C 	0.43619 0.37161 0.00081 -0.01500
C 	C 	0.43155 0.33314 0.00635 0.01200
C 	C 	0.43881 0.31476 0.05949 0.03000
C 	C 	0.45068 0.33519 0.10712 -0.00100
C 	C 	0.45494 0.37377 0.10177 -0.02700
C 	C 	0.53845 0.45179 0.02409 -0.03000
H 	H 	0.51729 0.61508 0.92359 0.06400
H 	H 	0.52726 0.68261 0.91235 0.07200
H 	H 	0.56567 0.68546 0.08856 0.07700
H 	H 	0.55493 0.61821 0.10026 0.06500
H 	H 	0.32656 0.54872 0.94011 0.08200
H 	H 	0.38589 0.52622 0.94949 0.06500
H 	H 	0.31054 0.52521 0.12282 0.07500
H 	H 	0.37012 0.50384 0.13271 0.06500
H 	H 	0.43007 0.38568 0.95986 0.06100
H 	H 	0.42181 0.31773 0.96969 0.07700
H 	H 	0.46338 0.38950 0.13914 0.06400
H 	H 	0.45609 0.32127 0.14845 0.07700
H 	H 	0.61871 0.50419 0.08799 0.06700
H 	H 	0.67702 0.48199 0.06674 0.07900
H 	H 	0.58942 0.47422 0.91319 0.06600
H 	H 	0.64750 0.45061 0.89266 0.07500
H 	H 	0.42141 0.56864 0.04744 0.06000
H 	H 	0.47283 0.60187 0.03426 0.07100
H 	H 	0.58859 0.56487 0.00099 0.05900
H 	H 	0.56201 0.43555 0.02099 0.07600
H 	H 	0.51059 0.40238 0.03374 0.07600
H 	H 	0.39376 0.43927 0.05336 0.07800
Zn	Zn	0.37290 0.10020 0.02487 1.23300
C 	C 	0.31048 0.06270 0.01629 0.34100
O 	O 	0.37074 0.07540 0.10161 -0.38700
O 	O 	0.32698 0.03172 0.03256 -0.41400
O 	O 	0.39920 0.02240 0.07009 -0.48800
C 	C 	0.38808 0.06964 0.91033 0.32900
O 	O 	0.39721 0.09308 0.95098 -0.45800
O 	O 	0.36825 0.04259 0.92361 -0.47900
C 	C 	0.38908 0.04474 0.11286 0.33100
O 	O 	0.41994 0.13235 0.05781 -0.29200
Zn	Zn	0.37352 0.01734 0.99835 1.17600
O 	O 	0.32694 0.09156 0.99760 -0.38500
C 	C 	0.39941 0.16165 0.05993 0.28700
O 	O 	0.36890 0.15610 0.04366 -0.27700
C 	C 	0.47813 0.98954 0.47780 0.01700
C 	C 	0.50971 0.96952 0.48094 0.01700
C 	C 	0.47028 0.01850 0.51792 -0.05100
C 	C 	0.49366 0.02784 0.56098 0.01600
C 	C 	0.53327 0.97915 0.52356 -0.05000
C 	C 	0.52552 0.00833 0.56339 0.01800
H 	H 	0.55744 0.96402 0.52573 0.06100
H 	H 	0.44609 0.03362 0.51574 0.05900
C 	C 	0.54906 0.01906 0.60568 -0.01500
C 	C 	0.54069 0.04645 0.64807 0.01600
C 	C 	0.56094 0.04285 0.69944 -0.04800
C 	C 	0.58411 0.01218 0.69773 0.00600
S 	S 	0.57918 0.99044 0.63386 0.03400
H 	H 	0.55616 0.05891 0.73895 0.05300
C 	C 	0.48614 0.05669 0.60188 -0.01000
C 	C 	0.50882 0.06518 0.64651 0.01500
C 	C 	0.49270 0.08169 0.69666 -0.05000
C 	C 	0.45759 0.08466 0.69215 0.01400
S 	S 	0.44760 0.06753 0.62692 0.01300
H 	H 	0.50542 0.08599 0.73774 0.05500
C 	C 	0.46260 0.95095 0.39389 0.01500
C 	C 	0.45479 0.97937 0.43488 -0.01100
S 	S 	0.42658 0.00921 0.40403 0.01500
C 	C 	0.42136 0.98674 0.34095 0.01600
C 	C 	0.44296 0.95461 0.34183 -0.05200
C 	C 	0.51686 0.94002 0.44098 -0.01300
C 	C 	0.49414 0.93149 0.39639 0.01500
C 	C 	0.51020 0.91431 0.34666 -0.05100
C 	C 	0.54525 0.91086 0.35137 0.01100
S 	S 	0.55532 0.92823 0.41644 0.02600
H 	H 	0.49754 0.90997 0.30555 0.05000
H 	H 	0.44710 0.93719 0.30354 0.05400
Zn	Zn	0.62573 0.89840 0.01599 1.22700
C 	C 	0.68855 0.93538 0.03056 0.33000
O 	O 	0.60007 0.90760 0.08867 -0.45500
O 	O 	0.67273 0.96647 0.01289 -0.39400
O 	O 	0.62865 0.95822 0.11649 -0.42200
C 	C 	0.61428 0.95245 0.92490 0.33200
O 	O 	0.63068 0.92102 0.93900 -0.43300
O 	O 	0.60152 0.97462 0.96582 -0.50300
C 	C 	0.61015 0.93002 0.12998 0.32700
O 	O 	0.57921 0.86787 0.97713 -0.30300
Zn	Zn	0.62466 0.98122 0.03975 1.18900
O 	O 	0.67163 0.90582 0.04471 -0.38900
C 	C 	0.59722 0.83713 0.98588 0.28700
O 	O 	0.62653 0.84142 0.00874 -0.30400
Zn	Zn	0.11197 0.58977 0.96415 1.22300
C 	C 	0.06626 0.65218 0.93856 0.33000
O 	O 	0.09469 0.60254 0.04258 -0.40900
O 	O 	0.04377 0.63423 0.96847 -0.39300
O 	O 	0.05284 0.56159 0.03637 -0.49400
C 	C 	0.08179 0.55712 0.86286 0.32600
O 	O 	0.10583 0.55301 0.90197 -0.46000
O 	O 	0.05281 0.57342 0.87740 -0.45100
C 	C 	0.07249 0.58196 0.06806 0.33900
O 	O 	0.15026 0.54544 0.00720 -0.28000
Zn	Zn	0.03858 0.57727 0.95828 1.18100
O 	O 	0.09462 0.63476 0.92270 -0.40900
C 	C 	0.17257 0.57003 0.99687 0.26400
O 	O 	0.16165 0.60027 0.97034 -0.30700
C 	C 	0.96896 0.50334 0.43058 0.01900
C 	C 	0.99996 0.52147 0.43000 0.01600
C 	C 	0.96402 0.47402 0.47038 -0.05100
C 	C 	0.98931 0.46333 0.51080 0.02000
C 	C 	0.02588 0.50948 0.46832 -0.05100
C 	C 	0.02057 0.48094 0.50942 0.01400
H 	H 	0.04978 0.52279 0.46699 0.05800
H 	H 	0.94038 0.46012 0.47068 0.06200
C 	C 	0.04549 0.47025 0.55092 -0.00900
C 	C 	0.03899 0.44468 0.59602 0.01400
C 	C 	0.05875 0.45028 0.64718 -0.04900
C 	C 	0.07953 0.48078 0.64301 0.01100
S 	S 	0.07378 0.49921 0.57640 0.01100
H 	H 	0.05464 0.43622 0.68833 0.05200
C 	C 	0.98397 0.43571 0.55372 -0.01300
C 	C 	0.00817 0.42680 0.59688 0.01500
C 	C 	0.99402 0.41164 0.64872 -0.04600
C 	C 	0.95893 0.41114 0.64769 0.00800
S 	S 	0.94649 0.42762 0.58251 0.03100
H 	H 	0.00822 0.40589 0.68827 0.05200
C 	C 	0.94727 0.54638 0.35399 0.01600
C 	C 	0.94295 0.51638 0.39280 -0.01400
S 	S 	0.91482 0.48893 0.36299 0.03300
C 	C 	0.90554 0.51421 0.30320 0.00700
C 	C 	0.92519 0.54577 0.30488 -0.04700
C 	C 	0.00368 0.55235 0.39227 -0.01300
C 	C 	0.97805 0.56431 0.35341 0.01400
C 	C 	0.99033 0.58400 0.30396 -0.04900
C 	C 	0.02531 0.58623 0.30342 0.00900
S 	S 	0.04014 0.56417 0.36313 0.01400
H 	H 	0.97502 0.59203 0.26656 0.05000
H 	H 	0.92664 0.56472 0.26809 0.05000
Zn	Zn	0.87143 0.41115 0.97982 1.22300
C 	C 	0.80892 0.45168 0.95463 0.33300
O 	O 	0.90070 0.41754 0.91164 -0.46300
O 	O 	0.82302 0.48202 0.97352 -0.39200
O 	O 	0.87294 0.46980 0.87674 -0.43800
C 	C 	0.87880 0.46463 0.07045 0.33600
O 	O 	0.86193 0.43565 0.05445 -0.41700
O 	O 	0.89217 0.48605 0.03082 -0.49600
C 	C 	0.89174 0.43925 0.86747 0.33000
O 	O 	0.91624 0.37821 0.02772 -0.30100
Zn	Zn	0.87208 0.49317 0.95360 1.18200
O 	O 	0.82739 0.42108 0.94318 -0.40000
C 	C 	0.89944 0.34857 0.01746 0.30800
O 	O 	0.87151 0.35445 0.98937 -0.32800
C 	C 	0.93683 0.01947 0.01947 -0.05100
C 	C 	0.95328 0.05299 0.02502 -0.01600
C 	C 	0.95476 0.98602 0.00352 0.05400
C 	C 	0.99005 0.98633 0.99579 -0.03800
C 	C 	0.00681 0.02025 0.00258 0.04100
C 	C 	0.98815 0.05401 0.01522 -0.00400
C 	C 	0.00863 0.95272 0.98182 0.03200
C 	C 	0.04376 0.95346 0.97483 -0.04100
C 	C 	0.04220 0.02038 0.99672 -0.02200
C 	C 	0.00490 0.08812 0.01882 0.01100
C 	C 	0.03998 0.08777 0.01521 -0.04900
C 	C 	0.05880 0.05429 0.00530 0.02300
C 	C 	0.93815 0.95204 0.99580 -0.03400
C 	C 	0.95668 0.91912 0.98113 -0.02700
C 	C 	0.99163 0.91895 0.97505 -0.00500
C 	C 	0.98603 0.12466 0.02295 0.03400
C 	C 	0.96935 0.13973 0.97360 -0.03500
C 	C 	0.95444 0.17594 0.97562 -0.01100
C 	C 	0.95689 0.19767 0.02649 0.03900
C 	C 	0.97233 0.18204 0.07659 -0.00300
C 	C 	0.98700 0.14570 0.07475 -0.02700
C 	C 	0.09589 0.05511 0.00534 0.03300
C 	C 	0.11433 0.04089 0.05342 -0.02600
C 	C 	0.14931 0.04267 0.05423 -0.00100
C 	C 	0.11260 0.07197 0.95878 -0.03200
C 	C 	0.14754 0.07416 0.95996 -0.00700
C 	C 	0.16607 0.05882 0.00711 0.03800
C 	C 	0.90146 0.95011 0.00435 0.05600
C 	C 	0.88898 0.93259 0.05436 -0.03800
C 	C 	0.85451 0.92791 0.06035 0.00100
C 	C 	0.83224 0.94070 0.01636 0.03500
C 	C 	0.84461 0.95921 0.96713 -0.00500
C 	C 	0.87916 0.96332 0.96065 -0.04600
C 	C 	0.01010 0.88281 0.96407 0.00800
C 	C 	0.01815 0.87184 0.90659 -0.01800
C 	C 	0.03190 0.83576 0.89553 -0.01400
C 	C 	0.03754 0.81038 0.94185 0.04600
C 	C 	0.02996 0.82161 0.99941 -0.03800
C 	C 	0.01657 0.85778 0.01051 0.00800
C 	C 	0.06027 0.98684 0.98177 -0.01100
H 	H 	0.96839 0.12360 0.93350 0.06300
H 	H 	0.94177 0.18750 0.93724 0.07800
H 	H 	0.97373 0.19841 0.11640 0.07600
H 	H 	0.99969 0.13418 0.11312 0.06400
H 	H 	0.82749 0.97011 0.93375 0.07900
H 	H 	0.88862 0.97678 0.92182 0.06800
H 	H 	0.84510 0.91414 0.09894 0.07500
H 	H 	0.90605 0.92222 0.08820 0.06600
H 	H 	0.01307 0.89097 0.87047 0.06300
H 	H 	0.03745 0.82722 0.85090 0.08000
H 	H 	0.01024 0.86601 0.05498 0.05800
H 	H 	0.03367 0.80198 0.03531 0.09600
H 	H 	0.10155 0.02838 0.08997 0.06500
H 	H 	0.16341 0.03127 0.09122 0.07700
H 	H 	0.09848 0.08352 0.92192 0.07000
H 	H 	0.16025 0.08746 0.92405 0.08600
H 	H 	0.91011 0.01970 0.02808 0.06200
H 	H 	0.93878 0.07805 0.03797 0.05300
H 	H 	0.05275 0.11386 0.01974 0.07600
H 	H 	0.08716 0.98649 0.97478 0.07500
H 	H 	0.05851 0.92823 0.96368 0.08000
H 	H 	0.94383 0.89318 0.97544 0.06500
C 	C 	0.91172 0.24492 0.05217 0.00400
C 	C 	0.94340 0.23690 0.02726 0.08100
C 	C 	0.96182 0.26622 0.00296 -0.13000
C 	C 	0.94681 0.30261 0.00002 0.08000
C 	C 	0.91492 0.31055 0.02426 -0.01400
C 	C 	0.89783 0.28188 0.05322 -0.06800
C 	C 	0.86439 0.29028 0.08359 0.77400
H 	H 	0.89787 0.22223 0.07059 0.09300
H 	H 	0.95961 0.32475 0.97787 0.06000
C 	C 	0.99680 0.25850 0.97781 0.77600
F 	F 	0.85642 0.26150 0.12117 -0.42200
F 	F 	0.83923 0.29454 0.04213 -0.40900
F 	F 	0.86554 0.32281 0.11641 -0.42700
F 	F 	0.99461 0.23825 0.92646 -0.45100
F 	F 	0.01672 0.23826 0.01734 -0.43400
F 	F 	0.01253 0.29146 0.96556 -0.44400
C 	C 	0.90672 0.43222 0.80920 -0.09900
C 	C 	0.90961 0.39551 0.78610 0.11900
C 	C 	0.92532 0.38924 0.73159 -0.08800
C 	C 	0.93906 0.41897 0.70103 0.02000
C 	C 	0.93631 0.45564 0.72425 0.04200
C 	C 	0.91942 0.46217 0.77749 -0.00600
H 	H 	0.92732 0.36109 0.71361 0.07100
H 	H 	0.91711 0.49044 0.79497 0.04300
N 	N 	0.89551 0.36479 0.81723 -0.13500
N 	N 	0.95055 0.48632 0.69320 -0.13400
C 	C 	0.92193 0.34058 0.84401 -0.09900
H 	H 	0.93725 0.32554 0.80990 0.07600
H 	H 	0.91018 0.31940 0.87214 0.08300
H 	H 	0.93854 0.35718 0.87212 0.08000
C 	C 	0.98115 0.49830 0.72185 -0.09100
H 	H 	0.97505 0.51261 0.76403 0.05200
H 	H 	0.99376 0.51833 0.69284 0.05900
H 	H 	0.99905 0.47402 0.72990 0.05400
H 	H 	0.88086 0.34918 0.78904 0.10500
H 	H 	0.93292 0.50889 0.68971 0.09600
C 	C 	0.88428 0.47208 0.13277 -0.10000
C 	C 	0.85807 0.48776 0.16760 0.12000
C 	C 	0.86492 0.49980 0.22482 -0.08700
C 	C 	0.89766 0.49620 0.24720 0.02000
C 	C 	0.92351 0.47874 0.21325 0.04300
C 	C 	0.91656 0.46647 0.15633 -0.00400
H 	H 	0.84496 0.51286 0.25111 0.07100
H 	H 	0.93649 0.45336 0.13002 0.04900
N 	N 	0.82451 0.49192 0.14440 -0.13500
N 	N 	0.95681 0.47315 0.23717 -0.13400
C 	C 	0.81751 0.53021 0.12318 -0.09400
H 	H 	0.81828 0.55074 0.15975 0.06600
H 	H 	0.79204 0.53218 0.10341 0.08500
H 	H 	0.83591 0.53749 0.08880 0.06400
C 	C 	0.98039 0.49811 0.20962 -0.09000
H 	H 	0.98682 0.48839 0.16459 0.04900
H 	H 	0.00376 0.49795 0.23603 0.05400
H 	H 	0.96987 0.52750 0.20778 0.05300
H 	H 	0.80685 0.48500 0.17616 0.10800
H 	H 	0.96525 0.44509 0.23236 0.09500
C 	C 	0.02369 0.74696 0.90773 0.00700
C 	C 	0.04773 0.77085 0.92952 0.07600
C 	C 	0.08020 0.75605 0.94429 -0.13100
C 	C 	0.08612 0.71689 0.94591 0.07300
C 	C 	0.06120 0.69281 0.92798 -0.01800
C 	C 	0.03079 0.70809 0.90389 -0.07600
C 	C 	0.00517 0.68315 0.87657 0.77100
H 	H 	0.99910 0.75860 0.89529 0.09000
H 	H 	0.10968 0.70505 0.96298 0.09200
C 	C 	0.10796 0.78168 0.96141 0.78300
F 	F 	0.98440 0.70339 0.83825 -0.43700
F 	F 	0.98557 0.66834 0.92007 -0.46100
F 	F 	0.02093 0.65419 0.84523 -0.46600
F 	F 	0.10321 0.79353 0.01856 -0.42600
F 	F 	0.10794 0.81266 0.92487 -0.43000
F 	F 	0.13924 0.76328 0.95714 -0.41200
C 	C 	0.08640 0.54098 0.80372 -0.10400
C 	C 	0.07075 0.55849 0.75490 0.11000
C 	C 	0.07047 0.53969 0.70096 -0.09200
C 	C 	0.08652 0.50400 0.69482 0.01100
C 	C 	0.10501 0.48826 0.74205 0.04200
C 	C 	0.10468 0.50671 0.79645 -0.01600
H 	H 	0.05660 0.55233 0.66465 0.06100
H 	H 	0.11770 0.49368 0.83339 0.05700
N 	N 	0.05506 0.59551 0.76025 -0.11800
N 	N 	0.12336 0.45284 0.73507 -0.13100
C 	C 	0.07795 0.62395 0.74078 -0.09500
H 	H 	0.10128 0.62260 0.76756 0.08500
H 	H 	0.06561 0.65226 0.74655 0.10800
H 	H 	0.08440 0.62014 0.69368 0.06800
C 	C 	0.15898 0.45867 0.72462 -0.10000
H 	H 	0.16222 0.47606 0.68474 0.07500
H 	H 	0.17240 0.43108 0.71742 0.08000
H 	H 	0.17047 0.47242 0.76295 0.07700
H 	H 	0.03262 0.59762 0.73639 0.10700
H 	H 	0.12039 0.43583 0.77193 0.09300
C 	C 	0.06689 0.58498 0.13143 -0.09700
C 	C 	0.07168 0.55324 0.16759 0.11600
C 	C 	0.06055 0.55473 0.22598 -0.08900
C 	C 	0.04434 0.58757 0.24809 0.01400
C 	C 	0.04204 0.62013 0.21317 0.04400
C 	C 	0.05341 0.61869 0.15494 -0.00700
H 	H 	0.06324 0.52986 0.25317 0.06200
H 	H 	0.05046 0.64340 0.12741 0.06100
N 	N 	0.08885 0.51982 0.14530 -0.13700
N 	N 	0.02711 0.65446 0.23654 -0.13000
C 	C 	0.06545 0.48998 0.13550 -0.09300
H 	H 	0.05624 0.47897 0.17785 0.05500
H 	H 	0.07866 0.46653 0.11168 0.07400
H 	H 	0.04377 0.50023 0.10833 0.05900
C 	C 	0.05314 0.67937 0.25564 -0.10100
H 	H 	0.06933 0.66541 0.28961 0.07900
H 	H 	0.04106 0.70509 0.27523 0.07700
H 	H 	0.06885 0.68782 0.21797 0.08400
H 	H 	0.10792 0.51067 0.17416 0.10500
H 	H 	0.01145 0.66793 0.20546 0.09200
C 	C 	0.77791 0.96007 0.06283 0.00400
C 	C 	0.79573 0.93647 0.02349 0.09200
C 	C 	0.77863 0.90915 0.99146 -0.14100
C 	C 	0.74335 0.90904 0.99471 0.06500
C 	C 	0.72549 0.93336 0.03295 -0.00700
C 	C 	0.74307 0.95740 0.07016 -0.07200
C 	C 	0.72473 0.98091 0.11662 0.77300
H 	H 	0.79127 0.98059 0.08759 0.09000
H 	H 	0.72965 0.89063 0.96658 0.08500
C 	C 	0.79764 0.88126 0.95196 0.79100
F 	F 	0.74685 0.99420 0.15763 -0.43000
F 	F 	0.70190 0.95964 0.14607 -0.43900
F 	F 	0.70791 0.01129 0.09054 -0.45600
F 	F 	0.82545 0.86555 0.98064 -0.43800
F 	F 	0.80797 0.89934 0.90195 -0.44300
F 	F 	0.77770 0.85226 0.93547 -0.41800
C 	C 	0.59481 0.99201 0.75131 0.02200
C 	C 	0.57421 0.96529 0.77687 0.04300
C 	C 	0.58238 0.95036 0.83224 -0.00100
C 	C 	0.61005 0.96292 0.86313 -0.10700
C 	C 	0.63151 0.98850 0.83643 0.11600
C 	C 	0.62372 0.00275 0.78066 -0.08700
H 	H 	0.56633 0.93014 0.85216 0.05400
H 	H 	0.63966 0.02313 0.76092 0.07700
N 	N 	0.54473 0.95368 0.74667 -0.13300
N 	N 	0.66088 0.00096 0.86616 -0.13800
C 	C 	0.51419 0.97127 0.77217 -0.09100
H 	H 	0.51012 0.96082 0.81740 0.05500
H 	H 	0.49228 0.96419 0.74499 0.06100
H 	H 	0.51555 0.00234 0.77284 0.05300
C 	C 	0.68918 0.97358 0.86022 -0.10100
H 	H 	0.68354 0.94643 0.88112 0.08800
H 	H 	0.71159 0.98459 0.88210 0.08500
H 	H 	0.69541 0.96892 0.81324 0.08600
H 	H 	0.54364 0.92441 0.74772 0.09800
H 	H 	0.65602 0.00742 0.91011 0.08200
C 	C 	0.59791 0.92551 0.19048 -0.09000
C 	C 	0.58700 0.95705 0.22393 0.11600
C 	C 	0.57188 0.95185 0.27867 -0.08700
C 	C 	0.56670 0.91559 0.29968 0.01600
C 	C 	0.57839 0.88415 0.26721 0.04800
C 	C 	0.59447 0.88928 0.21316 -0.00700
H 	H 	0.56270 0.97609 0.30359 0.06300
H 	H 	0.60347 0.86499 0.18820 0.06100
N 	N 	0.59014 0.99442 0.20122 -0.14000
N 	N 	0.57380 0.84688 0.28918 -0.12900
C 	C 	0.55841 0.00857 0.17550 -0.09700
H 	H 	0.55067 0.98984 0.13952 0.03700
H 	H 	0.56180 0.03686 0.15664 0.05400
H 	H 	0.53826 0.01097 0.20924 0.05100
C 	C 	0.54631 0.82938 0.25855 -0.10000
H 	H 	0.52262 0.84690 0.26259 0.07300
H 	H 	0.54210 0.80162 0.27864 0.08400
H 	H 	0.55252 0.82498 0.21148 0.07900
H 	H 	0.59776 0.01252 0.23424 0.10400
H 	H 	0.59607 0.83036 0.28486 0.10000
C 	C 	0.25863 0.03579 0.97855 0.07000
C 	C 	0.27356 0.06328 0.01241 -0.01300
C 	C 	0.25314 0.08941 0.04480 -0.06400
C 	C 	0.21795 0.08836 0.04032 0.00100
C 	C 	0.20308 0.06022 0.00774 0.09700
C 	C 	0.22353 0.03315 0.97734 -0.14600
C 	C 	0.20799 0.00196 0.94266 0.79100
H 	H 	0.27455 0.01620 0.95359 0.06800
H 	H 	0.20197 0.10916 0.06276 0.09800
C 	C 	0.26870 0.11871 0.08335 0.77300
F 	F 	0.23212 0.97597 0.92230 -0.43100
F 	F 	0.19085 0.01710 0.89495 -0.44200
F 	F 	0.18591 0.98305 0.97753 -0.43900
F 	F 	0.28342 0.14516 0.04858 -0.40200
F 	F 	0.29282 0.10194 0.11962 -0.42900
F 	F 	0.24489 0.13705 0.11858 -0.41500
C 	C 	0.43618 0.07938 0.74370 0.01100
C 	C 	0.41604 0.10942 0.76606 0.04700
C 	C 	0.39924 0.10532 0.81969 -0.00600
C 	C 	0.40282 0.07161 0.85135 -0.10500
C 	C 	0.42287 0.04123 0.82814 0.10800
C 	C 	0.43822 0.04501 0.77354 -0.08200
H 	H 	0.38397 0.12864 0.83723 0.05700
H 	H 	0.45314 0.02164 0.75551 0.05900
N 	N 	0.41316 0.14444 0.73469 -0.13000
N 	N 	0.42936 0.00709 0.86088 -0.14600
C 	C 	0.38198 0.14699 0.70085 -0.09800
H 	H 	0.38110 0.12326 0.66938 0.07100
H 	H 	0.38092 0.17355 0.67537 0.07600
H 	H 	0.35970 0.14701 0.73026 0.07200
C 	C 	0.45616 0.01115 0.90392 -0.09900
H 	H 	0.47929 0.02078 0.88236 0.05600
H 	H 	0.46231 0.98345 0.92443 0.04300
H 	H 	0.44816 0.03120 0.93899 0.03000
H 	H 	0.41414 0.16712 0.76363 0.10000
H 	H 	0.40772 0.99672 0.87960 0.06300
C 	C 	0.39779 0.03485 0.17366 -0.08900
C 	C 	0.43154 0.02704 0.18965 0.11100
C 	C 	0.43917 0.01426 0.24643 -0.08300
C 	C 	0.41334 0.00702 0.28612 0.01100
C 	C 	0.37976 0.01645 0.27115 0.05200
C 	C 	0.37214 0.03055 0.21494 -0.00900
H 	H 	0.46518 0.00861 0.25887 0.05600
H 	H 	0.34618 0.03685 0.20283 0.07900
N 	N 	0.45811 0.03242 0.14811 -0.13900
N 	N 	0.35324 0.01044 0.31247 -0.13000
C 	C 	0.47209 0.99631 0.12657 -0.08800
H 	H 	0.48517 0.98025 0.16226 0.04800
H 	H 	0.49056 0.00140 0.09133 0.04900
H 	H 	0.45204 0.97925 0.10788 0.06300
C 	C 	0.34154 0.04593 0.33932 -0.10300
H 	H 	0.36271 0.05980 0.36087 0.07800
H 	H 	0.32251 0.04024 0.37334 0.08000
H 	H 	0.32972 0.06514 0.30610 0.09200
H 	H 	0.47703 0.04777 0.16720 0.09000
H 	H 	0.33326 0.99760 0.29197 0.10000
C 	C 	0.40239 0.26522 0.09644 0.00700
C 	C 	0.43161 0.27467 0.06658 0.08800
C 	C 	0.45269 0.24603 0.04124 -0.13500
C 	C 	0.44167 0.20912 0.03951 0.07100
C 	C 	0.41170 0.19988 0.06736 0.00300
C 	C 	0.39320 0.22765 0.09994 -0.07000
C 	C 	0.36318 0.21776 0.13703 0.77600
H 	H 	0.38661 0.28726 0.11639 0.09600
H 	H 	0.45598 0.18769 0.01530 0.08200
C 	C 	0.48608 0.25495 0.01358 0.79800
F 	F 	0.35611 0.24504 0.17895 -0.41900
F 	F 	0.36947 0.18407 0.16604 -0.41700
F 	F 	0.33527 0.21496 0.10162 -0.38800
F 	F 	0.50343 0.27873 0.04924 -0.43500
F 	F 	0.48050 0.27193 0.95982 -0.45100
F 	F 	0.50624 0.22271 0.00524 -0.43100
C 	C 	0.22288 0.52700 0.98879 0.05300
C 	C 	0.20865 0.56168 0.00730 0.02500
C 	C 	0.22886 0.58761 0.03633 -0.07800
C 	C 	0.26365 0.57957 0.04101 0.00900
C 	C 	0.27782 0.54483 0.02271 0.09000
C 	C 	0.25707 0.51758 0.99842 -0.13700
C 	C 	0.27150 0.47901 0.98074 0.78300
H 	H 	0.20722 0.50742 0.96656 0.08300
H 	H 	0.27980 0.60020 0.05940 0.09400
C 	C 	0.21369 0.62408 0.06129 0.77800
F 	F 	0.24638 0.45470 0.96793 -0.43400
F 	F 	0.29058 0.46320 0.02576 -0.43400
F 	F 	0.29144 0.48223 0.93158 -0.44600
F 	F 	0.18432 0.61770 0.09140 -0.43000
F 	F 	0.20684 0.64920 0.01625 -0.40700
F 	F 	0.23548 0.64028 0.10005 -0.42300
C 	C 	0.71824 0.48244 0.92815 0.00200
C 	C 	0.70180 0.45655 0.96296 0.09100
C 	C 	0.72016 0.42517 0.98663 -0.14300
C 	C 	0.75543 0.42368 0.98271 0.06900
C 	C 	0.77206 0.45098 0.95098 -0.01400
C 	C 	0.75313 0.47875 0.91929 -0.07000
C 	C 	0.77002 0.50541 0.87789 0.77200
H 	H 	0.70391 0.50599 0.90916 0.09000
H 	H 	0.77003 0.40195 0.00578 0.10000
C 	C 	0.70252 0.39433 0.01857 0.80600
F 	F 	0.74723 0.52086 0.83788 -0.42800
F 	F 	0.79541 0.48670 0.84662 -0.44200
F 	F 	0.78336 0.53420 0.90960 -0.45300
F 	F 	0.67353 0.38548 0.98926 -0.43700
F 	F 	0.69431 0.40611 0.07464 -0.43500
F 	F 	0.72292 0.36191 0.02229 -0.40800
C 	C 	0.58716 0.73330 0.95965 0.00400
C 	C 	0.55731 0.72757 0.99034 0.07800
C 	C 	0.53850 0.75866 0.01390 -0.13100
C 	C 	0.55200 0.79444 0.01179 0.07900
C 	C 	0.58245 0.79996 0.98276 -0.01400
C 	C 	0.59915 0.76957 0.95321 -0.07200
C 	C 	0.63035 0.77536 0.91661 0.77400
H 	H 	0.60127 0.70933 0.94145 0.09000
H 	H 	0.53925 0.81791 0.03393 0.07300
C 	C 	0.50492 0.75357 0.04373 0.79000
F 	F 	0.63685 0.74548 0.87896 -0.42400
F 	F 	0.65776 0.77856 0.95307 -0.41700
F 	F 	0.62624 0.80751 0.88289 -0.43000
F 	F 	0.51016 0.73690 0.09783 -0.45000
F 	F 	0.48509 0.73117 0.00998 -0.43700
F 	F 	0.48744 0.78763 0.05189 -0.44100
