data_crystal

_cell_length_a 20.41414
_cell_length_b 21.27713
_cell_length_c 38.72658
_cell_angle_alpha 60.73240
_cell_angle_beta  118.98827
_cell_angle_gamma 133.36240

_symmetry_space_group_name_	'P 1'
_symmetry_space_group_name_H-M	'P 1'

loop_
_symmetry_equiv_pos_as_xyz
  x,y,z

loop_
_atom_site_label
_atom_site_type_symbol
_atom_site_fract_x
_atom_site_fract_y
_atom_site_fract_z
_atom_site_charge
H 	H 	0.16257 0.48438 0.19913 0.15800
H 	H 	0.18422 0.50832 0.68606 0.15700
Co	Co	0.07237 0.01203 0.05138 1.17700
Co	Co	0.11561 0.88379 0.05766 1.19500
C 	C 	0.25399 0.07958 0.04640 0.41400
O 	O 	0.06249 0.10807 0.04287 -0.41900
C 	C 	0.05552 0.16470 0.14154 0.39200
C 	C 	0.17118 0.83205 0.14718 0.39300
O 	O 	0.20480 0.89299 0.11476 -0.31800
O 	O 	0.10536 0.81826 0.15561 -0.32100
O 	O 	0.07406 0.16473 0.11259 -0.33800
O 	O 	0.06462 0.91645 0.07697 -0.74200
O 	O 	0.20386 0.01451 0.02938 -0.41600
O 	O 	0.21472 0.09251 0.05857 -0.35700
Co	Co	0.01968 0.10625 0.57447 1.19100
Co	Co	0.09693 0.05439 0.54264 1.18100
Co	Co	0.11752 0.91949 0.53888 1.20400
C 	C 	0.28100 0.09209 0.55603 0.39800
O 	O 	0.05319 0.08828 0.68639 -0.33500
C 	C 	0.04226 0.01454 0.71192 0.23200
O 	O 	0.08779 0.15039 0.53438 -0.41700
C 	C 	0.10789 0.24693 0.61243 0.42200
C 	C 	0.13015 0.81499 0.62545 0.40900
O 	O 	0.02904 0.95723 0.69920 -0.31200
O 	O 	0.10244 0.81195 0.58766 -0.37000
O 	O 	0.11378 0.85370 0.63542 -0.34500
O 	O 	0.02275 0.20903 0.61069 -0.39200
O 	O 	0.12665 0.20722 0.60495 -0.36000
O 	O 	0.06912 0.95015 0.56062 -0.74300
O 	O 	0.24797 0.00748 0.56843 -0.35400
O 	O 	0.24059 0.11888 0.55844 -0.35100
C 	C 	0.06712 0.02942 0.88097 -0.04300
C 	C 	0.05875 0.03290 0.91406 -0.02100
C 	C 	0.11579 0.11696 0.92418 0.12200
C 	C 	0.05151 0.93127 0.82629 0.00700
C 	C 	0.06032 0.94597 0.78833 0.00700
C 	C 	0.02238 0.98650 0.75176 0.02600
C 	C 	0.09501 0.89486 0.86392 0.13100
C 	C 	0.11224 0.92369 0.78729 0.14600
C 	C 	0.14239 0.10700 0.86106 0.12100
N 	N 	0.15374 0.90588 0.78650 -0.05900
N 	N 	0.12972 0.86578 0.89401 -0.05500
N 	N 	0.16078 0.18436 0.93198 -0.04600
N 	N 	0.20243 0.16887 0.84512 -0.06500
C 	C 	0.09608 0.07265 0.36602 -0.05200
C 	C 	0.11156 0.09740 0.39850 0.05700
C 	C 	0.19841 0.17874 0.40970 0.12400
C 	C 	0.03199 0.87270 0.35736 0.13800
C 	C 	0.16952 0.12496 0.34569 0.14300
N 	N 	0.05986 0.83959 0.38872 -0.05500
N 	N 	0.26770 0.24370 0.41863 -0.06800
N 	N 	0.22804 0.16666 0.32941 -0.04800
C 	C 	0.20588 0.46583 0.61745 0.26000
C 	C 	0.17814 0.40429 0.60018 0.30000
C 	C 	0.18081 0.33079 0.62505 -0.20100
C 	C 	0.22466 0.32722 0.66660 0.29200
F 	F 	0.13968 0.41094 0.55961 -0.34400
F 	F 	0.19985 0.53488 0.59304 -0.34200
C 	C 	0.25054 0.79394 0.67917 0.30000
C 	C 	0.15804 0.75609 0.65679 -0.18800
C 	C 	0.10513 0.67010 0.65196 0.29700
C 	C 	0.14930 0.63659 0.65654 0.25500
F 	F 	0.30161 0.87326 0.68775 -0.35200
F 	F 	0.10165 0.56988 0.63882 -0.36000
C 	C 	0.10747 0.24849 0.15179 -0.20000
C 	C 	0.14972 0.25329 0.19271 0.28900
C 	C 	0.18556 0.32691 0.20389 0.25000
F 	F 	0.23096 0.33332 0.24304 -0.36900
F 	F 	0.15604 0.18652 0.22161 -0.38900
C 	C 	0.12643 0.67943 0.16554 0.29100
C 	C 	0.19423 0.76754 0.16962 -0.18900
C 	C 	0.28725 0.79822 0.18608 0.30600
C 	C 	0.15231 0.63139 0.16746 0.25500
F 	F 	0.08690 0.55678 0.15315 -0.36500
F 	F 	0.03538 0.64189 0.15779 -0.36300
F 	F 	0.35341 0.88071 0.19333 -0.33300
C 	C 	0.27739 0.62018 0.17878 0.21700
C 	C 	0.24915 0.48660 0.18124 0.22600
C 	C 	0.22400 0.52622 0.18788 -0.12500
C 	C 	0.29624 0.65060 0.67603 0.21500
C 	C 	0.29720 0.53721 0.67487 0.22700
C 	C 	0.25249 0.56012 0.67987 -0.12100
C 	C 	0.25382 0.38956 0.68395 0.25000
C 	C 	0.24344 0.45868 0.65953 -0.14100
F 	F 	0.23292 0.25950 0.69074 -0.37600
F 	F 	0.29442 0.38427 0.72431 -0.36400
C 	C 	0.24470 0.67854 0.67538 -0.12500
C 	C 	0.29243 0.75277 0.69025 0.25400
F 	F 	0.37915 0.78563 0.71472 -0.35400
C 	C 	0.09670 0.31545 0.12271 0.29100
C 	C 	0.17991 0.39656 0.17426 -0.14100
C 	C 	0.13039 0.38775 0.13412 0.25600
F 	F 	0.12193 0.45342 0.10541 -0.34900
F 	F 	0.05174 0.30944 0.08347 -0.36400
C 	C 	0.31247 0.74453 0.19412 0.25600
C 	C 	0.24652 0.66427 0.18134 -0.13100
C 	C 	0.35638 0.15547 0.53469 -0.20800
C 	C 	0.35460 0.13171 0.50586 0.29600
F 	F 	0.28896 0.04776 0.50039 -0.41100
C 	C 	0.37342 0.21964 0.01044 0.26700
C 	C 	0.35095 0.14658 0.04438 -0.19500
F 	F 	0.32474 0.25407 0.99241 -0.35700
C 	C 	0.35808 0.67246 0.16495 -0.12700
C 	C 	0.33449 0.53877 0.17233 -0.13600
C 	C 	0.38710 0.71538 0.66966 -0.12100
C 	C 	0.39059 0.59957 0.67467 -0.13700
O 	O 	0.01940 0.96148 0.10553 -0.55500
C 	C 	0.01146 0.94194 0.98010 0.28300
O 	O 	0.01599 0.87440 0.00428 -0.33800
O 	O 	0.03002 0.74968 0.08190 -0.37900
C 	C 	0.07440 0.03629 0.46505 0.31600
O 	O 	0.13763 0.02249 0.48713 -0.36300
O 	O 	0.04159 0.04771 0.48188 -0.37100
C 	C 	0.00907 0.99682 0.35335 0.03100
C 	C 	0.04351 0.04191 0.42091 -0.11400
H 	H 	0.35521 0.50746 0.16870 0.13800
Co	Co	0.00380 0.83952 0.11298 1.19500
O 	O 	0.00365 0.98296 0.99375 -0.33200
C 	C 	0.38785 0.63138 0.16309 0.23300
C 	C 	0.00185 0.95043 0.86711 0.04800
F 	F 	0.01269 0.62665 0.63550 -0.34600
Co	Co	0.00987 0.87254 0.59712 1.19400
F 	F 	0.39272 0.05306 0.10048 -0.36500
F 	F 	0.39587 0.73023 0.08142 -0.34600
H 	H 	0.39646 0.74440 0.15499 0.16300
C 	C 	0.00044 0.95231 0.82751 -0.00600
O 	O 	0.98953 0.09181 0.16063 -0.37000
Co	Co	0.99157 0.06368 0.08195 1.19300
C 	C 	0.98881 0.97718 0.31563 0.10400
C 	C 	0.99704 0.91421 0.31812 -0.02900
C 	C 	0.96076 0.09235 0.27410 0.15900
N 	N 	0.96354 0.15073 0.27139 -0.07800
C 	C 	0.97069 0.89131 0.28239 0.06200
C 	C 	0.97937 0.82666 0.28529 0.13600
N 	N 	0.98632 0.77501 0.28765 -0.05000
H 	H 	0.41966 0.78570 0.66327 0.16300
C 	C 	0.95744 0.01916 0.27753 -0.11800
F 	F 	0.40099 0.77127 0.21348 -0.35600
F 	F 	0.41553 0.17399 0.45318 -0.37400
C 	C 	0.40981 0.11981 0.06593 0.28800
O 	O 	0.82689 0.90042 0.17899 -0.35700
C 	C 	0.89431 0.89760 0.20688 0.33600
O 	O 	0.94235 0.89099 0.19681 -0.33300
C 	C 	0.93157 0.92811 0.24438 -0.08000
C 	C 	0.43332 0.23696 0.54487 0.30800
F 	F 	0.43739 0.25959 0.57348 -0.35600
C 	C 	0.71026 0.27957 0.00675 0.19500
C 	C 	0.61558 0.24355 0.99651 -0.08800
C 	C 	0.58891 0.27952 0.00490 0.20700
C 	C 	0.65556 0.36120 0.01496 -0.13200
C 	C 	0.74895 0.39693 0.02649 0.21600
C 	C 	0.77728 0.35598 0.02295 -0.11000
H 	H 	0.56283 0.18589 0.98373 0.15000
H 	H 	0.63422 0.39210 0.01848 0.13500
H 	H 	0.84977 0.38202 0.03330 0.16300
C 	C 	0.71747 0.31453 0.49897 0.22100
C 	C 	0.78083 0.40186 0.50464 -0.12400
C 	C 	0.74782 0.45021 0.49509 0.23500
C 	C 	0.65315 0.41151 0.47993 -0.13400
C 	C 	0.59091 0.31975 0.48457 0.22300
C 	C 	0.62172 0.27437 0.48806 -0.13600
H 	H 	0.85396 0.43056 0.51748 0.16600
H 	H 	0.62799 0.44942 0.47183 0.14600
H 	H 	0.57195 0.20645 0.48495 0.17200
C 	C 	0.43474 0.68880 0.67046 0.23200
H 	H 	0.42660 0.58033 0.67339 0.13600
Co	Co	0.90602 0.88342 0.13715 1.20000
C 	C 	0.94151 0.70908 0.07447 0.44000
Co	Co	0.85907 0.00826 0.12921 1.17300
O 	O 	0.92628 0.98454 0.11574 -0.73500
O 	O 	0.92357 0.79098 0.14862 -0.39200
C 	C 	0.70981 0.83702 0.10661 0.39400
O 	O 	0.73957 0.92078 0.09499 -0.31200
O 	O 	0.76244 0.81537 0.11173 -0.33800
C 	C 	0.86356 0.11570 0.04437 0.41700
O 	O 	0.88348 0.11871 0.08111 -0.37300
O 	O 	0.88672 0.07799 0.03803 -0.35900
O 	O 	0.91147 0.74095 0.08052 -0.35400
Co	Co	0.96040 0.93655 0.63905 1.20400
C 	C 	0.92131 0.76627 0.53492 0.38700
Co	Co	0.94190 0.07699 0.63954 1.18500
O 	O 	0.97255 0.03491 0.61483 -0.76000
O 	O 	0.95575 0.83467 0.64208 -0.39300
O 	O 	0.99671 0.98155 0.58073 -0.53600
C 	C 	0.79489 0.88212 0.65280 0.42200
O 	O 	0.85599 0.94768 0.67060 -0.36400
O 	O 	0.82103 0.86509 0.63526 -0.33900
C 	C 	0.85613 0.11438 0.55229 0.38700
O 	O 	0.83733 0.06060 0.58806 -0.34400
O 	O 	0.91733 0.13061 0.53893 -0.31500
O 	O 	0.98080 0.83814 0.51265 -0.34300
O 	O 	0.91221 0.76980 0.56596 -0.31100
C 	C 	0.92715 0.87630 0.88594 -0.00500
C 	C 	0.91900 0.88111 0.91864 0.02800
C 	C 	0.99080 0.95554 0.93567 0.01200
C 	C 	0.85882 0.79544 0.87162 0.15200
C 	C 	0.97241 0.00865 0.75390 -0.03500
C 	C 	0.95408 0.98276 0.79100 0.05500
C 	C 	0.94718 0.06500 0.71927 0.10400
C 	C 	0.89021 0.99139 0.79179 0.13100
C 	C 	0.83627 0.81048 0.93438 0.16100
N 	N 	0.92695 0.11019 0.69198 -0.12800
N 	N 	0.83929 0.99820 0.79247 -0.05300
N 	N 	0.80432 0.73092 0.86016 -0.04500
N 	N 	0.77020 0.75409 0.94697 -0.05800
C 	C 	0.93676 0.94851 0.37228 -0.01400
C 	C 	0.95347 0.97301 0.40525 0.09200
C 	C 	0.84569 0.87346 0.35804 0.15800
C 	C 	0.92070 0.98920 0.24288 0.14300
C 	C 	0.86581 0.01620 0.20705 0.03200
C 	C 	0.87842 0.92706 0.42322 0.14300
N 	N 	0.82202 0.03801 0.17869 -0.09500
N 	N 	0.77303 0.81353 0.34665 -0.05400
N 	N 	0.81850 0.89036 0.43761 -0.05400
C 	C 	0.54476 0.78588 0.62644 0.26400
C 	C 	0.53001 0.75383 0.66532 -0.13800
C 	C 	0.60195 0.75997 0.69981 0.25700
C 	C 	0.68490 0.79108 0.69580 0.29900
C 	C 	0.69962 0.82246 0.65700 -0.20400
C 	C 	0.62877 0.81901 0.62234 0.30900
F 	F 	0.64261 0.85075 0.58461 -0.34100
F 	F 	0.47558 0.78020 0.59278 -0.33500
F 	F 	0.75301 0.79433 0.72964 -0.37500
F 	F 	0.58874 0.72959 0.73754 -0.35400
C 	C 	0.61756 0.71707 0.15809 0.29100
C 	C 	0.62016 0.76752 0.11762 -0.19300
C 	C 	0.54360 0.76915 0.09157 0.30400
C 	C 	0.46962 0.72843 0.10689 0.26400
C 	C 	0.47101 0.68469 0.14828 -0.14400
C 	C 	0.54481 0.67819 0.17369 0.25800
F 	F 	0.54543 0.63346 0.21348 -0.35900
F 	F 	0.68845 0.71027 0.18299 -0.37900
F 	F 	0.54262 0.81303 0.05170 -0.32500
C 	C 	0.70184 0.17092 0.53007 0.25400
C 	C 	0.74994 0.26125 0.50873 -0.13500
C 	C 	0.82564 0.29865 0.49505 0.26200
C 	C 	0.85704 0.24828 0.50577 0.29700
C 	C 	0.80856 0.15815 0.52742 -0.18200
C 	C 	0.72497 0.11823 0.53511 0.29000
F 	F 	0.67129 0.02920 0.55177 -0.34900
F 	F 	0.63604 0.13536 0.54788 -0.36700
F 	F 	0.93602 0.28794 0.49640 -0.34200
F 	F 	0.86903 0.38346 0.47175 -0.34900
C 	C 	0.84361 0.60233 0.55497 0.31100
C 	C 	0.86328 0.68095 0.52420 -0.18600
C 	C 	0.84920 0.68295 0.48437 0.29300
C 	C 	0.82681 0.61205 0.47657 0.25700
C 	C 	0.80785 0.53384 0.50723 -0.13700
C 	C 	0.81847 0.53002 0.54680 0.27800
F 	F 	0.79824 0.45386 0.57663 -0.32700
F 	F 	0.84696 0.59520 0.59249 -0.32800
F 	F 	0.81567 0.61630 0.43813 -0.36100
F 	F 	0.85948 0.75497 0.45330 -0.38500
C 	C 	0.42469 0.19238 0.48490 0.25200
C 	C 	0.50589 0.26970 0.49785 -0.13300
C 	C 	0.50960 0.29196 0.52809 0.25400
F 	F 	0.58880 0.36371 0.54293 -0.35200
C 	C 	0.68570 0.13901 0.01506 0.25000
C 	C 	0.73818 0.23310 0.00360 -0.13300
C 	C 	0.81849 0.28235 0.99009 0.26900
C 	C 	0.85325 0.23930 0.99458 0.32200
C 	C 	0.80725 0.14694 0.01196 -0.20300
C 	C 	0.71607 0.09695 0.01468 0.29000
F 	F 	0.66396 0.00662 0.02499 -0.35900
F 	F 	0.61045 0.08874 0.03006 -0.36000
F 	F 	0.93708 0.28875 0.98684 -0.33800
F 	F 	0.86377 0.37152 0.97351 -0.34100
C 	C 	0.88369 0.63479 0.02292 0.28900
C 	C 	0.87774 0.62785 0.05958 -0.19900
C 	C 	0.83975 0.54436 0.08754 0.31700
C 	C 	0.81162 0.47015 0.07967 0.25900
C 	C 	0.81548 0.47710 0.04250 -0.12500
C 	C 	0.85505 0.56068 0.01503 0.24900
F 	F 	0.85998 0.56895 0.97915 -0.34200
F 	F 	0.92337 0.71500 0.99612 -0.38400
F 	F 	0.77421 0.38976 0.10689 -0.34500
F 	F 	0.83427 0.53599 0.12329 -0.34000
C 	C 	0.48110 0.15595 0.05015 0.26400
C 	C 	0.49804 0.22335 0.01380 -0.15600
C 	C 	0.44297 0.25445 0.99382 0.28000
F 	F 	0.53680 0.12854 0.07120 -0.34700
F 	F 	0.46047 0.32190 0.95950 -0.36400
