data_crystal

_cell_length_a 18.56473
_cell_length_b 18.76514
_cell_length_c 40.09774
_cell_angle_alpha 95.44888
_cell_angle_beta  95.44824
_cell_angle_gamma 126.40622

_symmetry_space_group_name_	'P 1'
_symmetry_space_group_name_H-M	'P 1'

loop_
_symmetry_equiv_pos_as_xyz
  x,y,z

loop_
_atom_site_label
_atom_site_type_symbol
_atom_site_fract_x
_atom_site_fract_y
_atom_site_fract_z
_atom_site_charge
C 	C 	0.89490 0.98966 0.96438 0.12900
N 	N 	0.84973 0.90044 0.96532 -0.13800
C 	C 	0.89529 0.86430 0.96479 0.12200
N 	N 	0.98567 0.91762 0.96421 -0.13300
C 	C 	0.03065 0.00639 0.96364 0.11600
N 	N 	0.98510 0.04213 0.96328 -0.13900
C 	C 	0.96167 0.04436 0.50392 0.11400
N 	N 	0.05386 0.09610 0.50666 -0.13800
C 	C 	0.09483 0.05627 0.50200 0.11500
N 	N 	0.04437 0.96530 0.49559 -0.13500
C 	C 	0.95285 0.91357 0.49306 0.12200
N 	N 	0.91129 0.95306 0.49629 -0.13600
Cu	Cu	0.74414 0.33570 0.96442 0.92700
Cu	Cu	0.73371 0.26988 0.03778 0.86900
Cu	Cu	0.59807 0.29015 0.00669 0.89600
Cu	Cu	0.57513 0.32856 0.93714 0.89500
C 	C 	0.68021 0.30256 0.89221 0.28800
O 	O 	0.79698 0.46671 0.96277 -0.35700
C 	C 	0.65498 0.32211 0.08204 0.28600
O 	O 	0.60199 0.26148 0.95990 -0.63800
O 	O 	0.73181 0.35164 0.01249 -0.64200
O 	O 	0.80560 0.27730 0.96948 -0.36800
O 	O 	0.70588 0.18139 0.00077 -0.44200
O 	O 	0.64233 0.34228 0.89916 -0.38500
O 	O 	0.46703 0.22243 0.99838 -0.38200
C 	C 	0.41751 0.21955 0.97158 0.29500
C 	C 	0.75540 0.50033 0.97268 0.28600
O 	O 	0.67063 0.44570 0.97659 -0.39300
O 	O 	0.45510 0.27679 0.95056 -0.39000
O 	O 	0.73274 0.30133 0.91648 -0.36300
C 	C 	0.76507 0.20109 0.98091 0.29100
O 	O 	0.59288 0.30236 0.05582 -0.38400
O 	O 	0.72850 0.32963 0.07755 -0.42100
H 	H 	0.56314 0.19616 0.95020 0.16400
H 	H 	0.76965 0.41480 0.02495 0.17600
Cu	Cu	0.63123 0.21708 0.50979 0.92700
Cu	Cu	0.67148 0.19580 0.43282 0.87100
Cu	Cu	0.67496 0.35058 0.46239 0.89900
Cu	Cu	0.65110 0.39284 0.53305 0.89700
C 	C 	0.67555 0.29244 0.58149 0.30800
O 	O 	0.50319 0.17195 0.51483 -0.36300
C 	C 	0.62022 0.27354 0.38802 0.30500
O 	O 	0.71013 0.35595 0.50973 -0.64000
O 	O 	0.60567 0.21823 0.46097 -0.64200
O 	O 	0.68193 0.14890 0.50522 -0.37500
O 	O 	0.76858 0.22649 0.46698 -0.43700
O 	O 	0.64358 0.33719 0.57411 -0.38400
O 	O 	0.74858 0.48022 0.46693 -0.38000
C 	C 	0.75450 0.53533 0.49211 0.29500
C 	C 	0.47022 0.21350 0.50453 0.28700
O 	O 	0.52501 0.29426 0.49763 -0.39300
O 	O 	0.70017 0.50501 0.51462 -0.39000
O 	O 	0.67517 0.23848 0.55763 -0.36400
C 	C 	0.75415 0.17958 0.49123 0.29100
O 	O 	0.65983 0.34541 0.41246 -0.38600
O 	O 	0.60534 0.19856 0.39420 -0.42100
H 	H 	0.77673 0.39265 0.51797 0.16600
H 	H 	0.54021 0.18321 0.45091 0.17200
C 	C 	0.68266 0.28036 0.85621 -0.08400
C 	C 	0.76262 0.29894 0.84697 0.01600
C 	C 	0.76900 0.29029 0.81252 -0.06500
C 	C 	0.69545 0.26265 0.78704 0.02600
C 	C 	0.61403 0.23966 0.79624 -0.06500
C 	C 	0.60760 0.24830 0.83063 0.01300
C 	C 	0.70588 0.26459 0.75099 0.00300
C 	C 	0.64728 0.18578 0.72609 -0.04000
C 	C 	0.64833 0.19007 0.69147 -0.03200
C 	C 	0.70810 0.27306 0.68153 -0.00500
C 	C 	0.76957 0.35109 0.70641 -0.03200
C 	C 	0.76855 0.34693 0.74103 -0.03900
C 	C 	0.69956 0.27974 0.64606 0.04500
C 	C 	0.69008 0.28556 0.61649 -0.10100
H 	H 	0.82090 0.32319 0.86641 0.04100
H 	H 	0.83181 0.30724 0.80567 0.04800
H 	H 	0.55669 0.21779 0.77677 0.04600
H 	H 	0.54504 0.23227 0.83741 0.02500
H 	H 	0.59918 0.12177 0.73351 0.04000
H 	H 	0.60079 0.12938 0.67239 0.04100
H 	H 	0.81611 0.41546 0.69894 0.04000
H 	H 	0.81412 0.40815 0.76003 0.04200
C 	C 	0.63984 0.33230 0.11715 -0.08800
C 	C 	0.71435 0.38409 0.14451 0.01200
C 	C 	0.70009 0.38224 0.17813 -0.06600
C 	C 	0.61121 0.32911 0.18479 0.02500
C 	C 	0.53661 0.28151 0.15752 -0.06600
C 	C 	0.55080 0.28311 0.12385 0.01100
C 	C 	0.59663 0.31712 0.22007 0.00200
C 	C 	0.55373 0.23148 0.22864 -0.04100
C 	C 	0.55003 0.22168 0.26271 -0.03400
C 	C 	0.58921 0.29731 0.28847 -0.00800
C 	C 	0.62877 0.38233 0.27986 -0.03300
C 	C 	0.63232 0.39223 0.24576 -0.04100
C 	C 	0.59723 0.28912 0.32379 0.04400
C 	C 	0.60628 0.28202 0.35321 -0.11100
H 	H 	0.78338 0.42391 0.13975 0.03100
H 	H 	0.75817 0.41973 0.19900 0.04500
H 	H 	0.46769 0.24122 0.16239 0.04500
H 	H 	0.49260 0.24334 0.10304 0.03600
H 	H 	0.52599 0.17306 0.20904 0.03700
H 	H 	0.51923 0.15572 0.26916 0.03700
H 	H 	0.65900 0.44110 0.29963 0.04000
H 	H 	0.66484 0.45850 0.23941 0.04000
C 	C 	0.90144 0.81659 0.49238 -0.01500
C 	C 	0.92443 0.78747 0.51949 -0.05400
C 	C 	0.87932 0.69563 0.51898 0.05100
C 	C 	0.80970 0.63177 0.49119 -0.08800
C 	C 	0.78757 0.66080 0.46378 -0.00600
C 	C 	0.83302 0.75287 0.46423 0.00900
S 	S 	0.91228 0.66143 0.55284 -0.06600
S 	S 	0.80458 0.78742 0.42928 -0.03700
H 	H 	0.73886 0.79665 0.43537 0.03700
H 	H 	0.97864 0.65457 0.54530 0.03600
H 	H 	0.97786 0.83654 0.54097 0.05300
H 	H 	0.73387 0.61166 0.44239 0.04400
C 	C 	0.91582 0.08743 0.50695 -0.01200
C 	C 	0.95307 0.16975 0.49606 -0.05800
C 	C 	0.90540 0.20598 0.49464 0.04900
C 	C 	0.81514 0.15505 0.50083 -0.09200
C 	C 	0.78095 0.07645 0.51426 -0.01000
C 	C 	0.83246 0.04481 0.51885 0.00200
S 	S 	0.96324 0.31846 0.48902 -0.04900
S 	S 	0.79645 0.95844 0.54258 -0.02400
H 	H 	0.74019 0.87627 0.52104 0.03800
H 	H 	0.95415 0.32040 0.45487 0.03200
H 	H 	0.01941 0.20599 0.48882 0.05300
H 	H 	0.71431 0.03986 0.52126 0.04500
C 	C 	0.19358 0.11091 0.50377 -0.01500
C 	C 	0.24929 0.12797 0.53431 -0.05500
C 	C 	0.33935 0.15977 0.53480 0.04800
C 	C 	0.37417 0.17426 0.50430 -0.09000
C 	C 	0.31957 0.16082 0.47407 -0.01100
C 	C 	0.22975 0.12960 0.47369 0.00900
S 	S 	0.40817 0.18303 0.57386 -0.04200
S 	S 	0.16266 0.11281 0.43527 -0.04200
H 	H 	0.11521 0.02539 0.41862 0.03600
H 	H 	0.40231 0.10825 0.57809 0.04400
H 	H 	0.22158 0.11368 0.55750 0.05000
H 	H 	0.34705 0.17465 0.45081 0.03500
C 	C 	0.79528 0.59520 0.97148 -0.08700
C 	C 	0.81476 0.62544 0.94055 -0.01200
C 	C 	0.83998 0.71074 0.93721 0.01000
C 	C 	0.84774 0.76778 0.96528 -0.01600
C 	C 	0.82674 0.73701 0.99605 -0.05100
C 	C 	0.80125 0.65148 0.99939 0.05100
S 	S 	0.85994 0.74479 0.89753 -0.03300
S 	S 	0.78114 0.61742 0.03907 -0.06000
H 	H 	0.69042 0.57151 0.04007 0.04000
H 	H 	0.78044 0.72048 0.87877 0.03600
H 	H 	0.80780 0.58151 0.91874 0.04500
H 	H 	0.83389 0.78108 0.01785 0.04900
C 	C 	0.84912 0.03189 0.96808 -0.01900
C 	C 	0.82379 0.05524 0.93942 -0.05300
C 	C 	0.79696 0.11108 0.94316 0.04800
C 	C 	0.79585 0.14453 0.97602 -0.09000
C 	C 	0.81876 0.11897 0.00455 -0.01400
C 	C 	0.84541 0.06318 0.00076 0.00800
S 	S 	0.76316 0.13665 0.90649 -0.03300
S 	S 	0.87621 0.03482 0.03725 -0.05000
H 	H 	0.80137 0.95488 0.04278 0.03900
H 	H 	0.67071 0.07503 0.89576 0.03400
H 	H 	0.82699 0.03167 0.91425 0.04900
H 	H 	0.81678 0.14334 0.02981 0.01800
C 	C 	0.12939 0.06445 0.96519 -0.01300
C 	C 	0.16425 0.05164 0.93768 -0.05600
C 	C 	0.25835 0.10137 0.93958 0.05200
C 	C 	0.31849 0.16510 0.96929 -0.08900
C 	C 	0.28358 0.17805 0.99678 -0.00400
C 	C 	0.18949 0.12790 0.99496 0.01000
S 	S 	0.29986 0.08045 0.90522 -0.06800
S 	S 	0.14775 0.14308 0.03048 -0.03900
H 	H 	0.13270 0.20538 0.02688 0.03800
H 	H 	0.30966 0.01522 0.91030 0.03300
H 	H 	0.11799 0.00196 0.91496 0.05100
H 	H 	0.32976 0.22721 0.01961 0.04100
