data_crystal

_cell_length_a 26.57260
_cell_length_b 26.95782
_cell_length_c 40.11047
_cell_angle_alpha 95.50891
_cell_angle_beta  95.51252
_cell_angle_gamma 125.68399

_symmetry_space_group_name_	'P 1'
_symmetry_space_group_name_H-M	'P 1'

loop_
_symmetry_equiv_pos_as_xyz
  x,y,z

loop_
_atom_site_label
_atom_site_type_symbol
_atom_site_fract_x
_atom_site_fract_y
_atom_site_fract_z
_atom_site_charge
C 	C 	0.96713 0.02197 0.98785 0.05200
C 	C 	0.92771 0.95842 0.98940 -0.09400
C 	C 	0.95355 0.92611 0.99418 0.05400
C 	C 	0.01874 0.95739 0.99732 -0.09200
C 	C 	0.05803 0.02021 0.99466 0.05500
C 	C 	0.03213 0.05254 0.99005 -0.09400
H 	H 	0.87729 0.93440 0.98719 0.05300
H 	H 	0.03887 0.93272 0.00160 0.05000
H 	H 	0.06261 0.10163 0.98899 0.05300
C 	C 	0.94956 0.01302 0.48081 0.05600
C 	C 	0.01513 0.04945 0.48246 -0.09500
C 	C 	0.04815 0.02475 0.48967 0.05600
C 	C 	0.01549 0.96361 0.49568 -0.09300
C 	C 	0.94956 0.92633 0.49286 0.05700
C 	C 	0.91692 0.95132 0.48551 -0.09600
H 	H 	0.04030 0.09671 0.47796 0.05400
H 	H 	0.04136 0.94558 0.50310 0.05400
H 	H 	0.86618 0.92295 0.48382 0.05200
Cu	Cu	0.63344 0.23982 0.99431 0.92900
Cu	Cu	0.68227 0.23414 0.92289 0.87000
Cu	Cu	0.68261 0.34071 0.95107 0.89600
Cu	Cu	0.65228 0.36507 0.01863 0.89300
C 	C 	0.65411 0.28674 0.06547 0.28800
O 	O 	0.54522 0.21575 0.99287 -0.36800
C 	C 	0.65966 0.29645 0.87678 0.30700
O 	O 	0.69481 0.33697 0.99851 -0.63600
O 	O 	0.63001 0.24830 0.94600 -0.64300
O 	O 	0.66002 0.18436 0.99196 -0.38100
O 	O 	0.73579 0.24222 0.96138 -0.44500
O 	O 	0.63176 0.31730 0.05659 -0.38600
O 	O 	0.73517 0.43055 0.95914 -0.38900
C 	C 	0.72463 0.46492 0.97839 0.31200
C 	C 	0.52826 0.24824 0.98005 0.30200
O 	O 	0.57139 0.30603 0.97743 -0.40200
O 	O 	0.70343 0.44980 0.00707 -0.40000
O 	O 	0.65154 0.24630 0.04258 -0.36500
C 	C 	0.71256 0.20164 0.98173 0.30900
O 	O 	0.68476 0.34396 0.90226 -0.39100
O 	O 	0.64930 0.24378 0.88159 -0.42300
H 	H 	0.73941 0.35889 0.00950 0.16300
H 	H 	0.58704 0.22696 0.93259 0.17000
Cu	Cu	0.73517 0.34107 0.45122 0.92900
Cu	Cu	0.73556 0.29620 0.52458 0.86900
Cu	Cu	0.63850 0.31176 0.49667 0.89600
Cu	Cu	0.62171 0.34605 0.42952 0.89300
C 	C 	0.68564 0.32129 0.38032 0.30500
O 	O 	0.77523 0.43164 0.45052 -0.37000
C 	C 	0.68343 0.33296 0.57112 0.28800
O 	O 	0.63809 0.29492 0.44917 -0.64200
O 	O 	0.73086 0.35225 0.50021 -0.64100
O 	O 	0.77996 0.30222 0.45315 -0.37800
O 	O 	0.71791 0.23682 0.48689 -0.44700
O 	O 	0.66269 0.35182 0.38925 -0.38600
O 	O 	0.54798 0.26753 0.48990 -0.38800
C 	C 	0.51395 0.27131 0.46540 0.30700
C 	C 	0.75309 0.45974 0.46419 0.30300
O 	O 	0.69400 0.42697 0.46819 -0.39400
O 	O 	0.54081 0.31371 0.44595 -0.40000
O 	O 	0.72255 0.31769 0.40285 -0.36200
C 	C 	0.75882 0.25250 0.46660 0.31100
O 	O 	0.63657 0.31418 0.54587 -0.38900
O 	O 	0.73377 0.33727 0.56539 -0.42200
H 	H 	0.60935 0.25030 0.43845 0.16200
H 	H 	0.75793 0.39580 0.51272 0.17100
C 	C 	0.67587 0.34210 0.60676 -0.09000
C 	C 	0.72855 0.37380 0.63345 0.01100
C 	C 	0.72043 0.37421 0.66736 -0.06700
C 	C 	0.65969 0.34353 0.67500 0.02400
C 	C 	0.60743 0.31538 0.64846 -0.06700
C 	C 	0.61540 0.31460 0.61451 0.01100
C 	C 	0.65039 0.33568 0.71035 0.00100
C 	C 	0.61507 0.27584 0.71823 -0.04100
C 	C 	0.61217 0.26838 0.75216 -0.03400
C 	C 	0.64462 0.32061 0.77846 -0.00900
C 	C 	0.67796 0.38037 0.77061 -0.03300
C 	C 	0.68073 0.38792 0.73664 -0.04100
C 	C 	0.64868 0.31297 0.81342 0.04400
C 	C 	0.65308 0.30578 0.84248 -0.11300
H 	H 	0.77563 0.39668 0.62794 0.02900
H 	H 	0.76117 0.39653 0.68768 0.04300
H 	H 	0.56042 0.29242 0.65412 0.04500
H 	H 	0.57434 0.29068 0.59429 0.03700
H 	H 	0.59154 0.23520 0.69815 0.03700
H 	H 	0.58625 0.22205 0.75804 0.03600
H 	H 	0.70302 0.42097 0.79082 0.03800
H 	H 	0.70764 0.43429 0.73082 0.03800
C 	C 	0.66706 0.28625 0.10198 -0.08700
C 	C 	0.64932 0.23098 0.11282 0.01600
C 	C 	0.65612 0.22943 0.14765 -0.06600
C 	C 	0.68087 0.28311 0.17190 0.02600
C 	C 	0.70059 0.33880 0.16108 -0.06600
C 	C 	0.69377 0.34039 0.12631 0.01300
C 	C 	0.68250 0.28021 0.20849 0.00100
C 	C 	0.74017 0.31756 0.23162 -0.04000
C 	C 	0.74105 0.32097 0.26670 -0.03300
C 	C 	0.68433 0.28698 0.27886 -0.00700
C 	C 	0.62690 0.24758 0.25577 -0.03300
C 	C 	0.62595 0.24415 0.22068 -0.04000
C 	C 	0.68465 0.29725 0.31480 0.04400
C 	C 	0.68499 0.30736 0.34479 -0.10400
H 	H 	0.62864 0.18884 0.09435 0.03800
H 	H 	0.64110 0.18630 0.15577 0.04600
H 	H 	0.71985 0.38051 0.17962 0.04500
H 	H 	0.70837 0.38348 0.11827 0.02200
H 	H 	0.78411 0.34518 0.22245 0.03900
H 	H 	0.78565 0.35136 0.28441 0.04000
H 	H 	0.58288 0.22106 0.26499 0.03600
H 	H 	0.58120 0.21511 0.20304 0.03900
C 	C 	0.81124 0.62808 0.48884 0.00200
C 	C 	0.78293 0.65522 0.47701 -0.03600
C 	C 	0.81975 0.71903 0.47686 -0.04900
C 	C 	0.88518 0.75637 0.48896 0.02500
C 	C 	0.91313 0.72970 0.50202 -0.05000
C 	C 	0.87623 0.66603 0.50251 -0.03500
C 	C 	0.92514 0.82229 0.48549 -0.04300
C 	C 	0.91449 0.86201 0.49936 -0.06200
C 	C 	0.77302 0.55966 0.48556 0.00700
C 	C 	0.79371 0.52828 0.47241 -0.15200
H 	H 	0.73274 0.62657 0.46690 0.03600
H 	H 	0.79774 0.73914 0.46655 0.04000
H 	H 	0.96349 0.75822 0.51161 0.03900
H 	H 	0.89826 0.64603 0.51296 0.03600
H 	H 	0.96350 0.83836 0.47154 0.03900
H 	H 	0.87596 0.84541 0.51326 0.04400
H 	H 	0.72552 0.53458 0.49094 0.03400
H 	H 	0.84051 0.55361 0.46605 0.07700
C 	C 	0.89236 0.11399 0.48879 0.02400
C 	C 	0.88080 0.13501 0.51835 -0.05200
C 	C 	0.84282 0.15513 0.51588 -0.03600
C 	C 	0.81704 0.15563 0.48385 -0.00200
C 	C 	0.82845 0.13448 0.45416 -0.03400
C 	C 	0.86651 0.11438 0.45663 -0.05000
C 	C 	0.77710 0.17723 0.48169 0.00800
C 	C 	0.78831 0.22032 0.46294 -0.16200
C 	C 	0.93296 0.09320 0.49182 -0.04400
C 	C 	0.91439 0.03882 0.47363 -0.06200
H 	H 	0.90085 0.13527 0.54326 0.03800
H 	H 	0.83394 0.17095 0.53891 0.02800
H 	H 	0.80779 0.13351 0.42924 0.03800
H 	H 	0.87607 0.09936 0.43362 0.04000
H 	H 	0.74309 0.16298 0.49851 0.02300
H 	H 	0.82357 0.23568 0.44683 0.08000
H 	H 	0.97522 0.11940 0.51155 0.03800
H 	H 	0.86949 0.01014 0.45589 0.04300
C 	C 	0.34613 0.15729 0.48145 0.00200
C 	C 	0.32154 0.15233 0.51140 -0.03600
C 	C 	0.25628 0.11611 0.50982 -0.05000
C 	C 	0.21493 0.08438 0.47819 0.02500
C 	C 	0.23949 0.08833 0.44831 -0.05100
C 	C 	0.30476 0.12462 0.44989 -0.03600
C 	C 	0.14581 0.04386 0.47637 -0.04500
C 	C 	0.11751 0.06436 0.49267 -0.06100
C 	C 	0.41514 0.19323 0.48361 0.00700
C 	C 	0.44497 0.23483 0.46329 -0.14800
H 	H 	0.35300 0.17636 0.53592 0.03700
H 	H 	0.23788 0.11196 0.53317 0.04000
H 	H 	0.20801 0.06315 0.42387 0.03900
H 	H 	0.32313 0.12654 0.42669 0.03500
H 	H 	0.11745 0.99823 0.45995 0.04100
H 	H 	0.14525 0.11202 0.50653 0.04400
H 	H 	0.44199 0.18777 0.50313 0.03800
H 	H 	0.41812 0.24201 0.44482 0.07400
C 	C 	0.82405 0.75088 0.97723 0.02700
C 	C 	0.80598 0.70677 0.94813 -0.05000
C 	C 	0.77473 0.64416 0.95037 -0.03600
C 	C 	0.76152 0.62524 0.98183 0.00400
C 	C 	0.77654 0.66883 0.01048 -0.03800
C 	C 	0.80756 0.73136 0.00821 -0.05200
C 	C 	0.73046 0.55959 0.98486 0.00800
C 	C 	0.75158 0.52820 0.97237 -0.14900
C 	C 	0.86052 0.81748 0.97512 -0.04500
C 	C 	0.91319 0.86043 0.99810 -0.05800
H 	H 	0.81709 0.72115 0.92392 0.04000
H 	H 	0.76094 0.61046 0.92773 0.03800
H 	H 	0.76497 0.65439 0.03462 0.03600
H 	H 	0.81917 0.76467 0.03055 0.04000
H 	H 	0.69320 0.53833 0.99974 0.03200
H 	H 	0.78896 0.54938 0.95758 0.07800
H 	H 	0.84722 0.83085 0.95313 0.03900
H 	H 	0.92948 0.84617 0.01837 0.04200
C 	C 	0.87266 0.08660 0.99666 0.02700
C 	C 	0.80716 0.05436 0.99257 -0.05100
C 	C 	0.78026 0.08521 0.98684 -0.03500
C 	C 	0.81891 0.14912 0.98601 0.00000
C 	C 	0.88452 0.18153 0.99061 -0.03700
C 	C 	0.91136 0.15058 0.99619 -0.04900
C 	C 	0.79077 0.18118 0.97739 0.00600
C 	C 	0.74387 0.17346 0.99217 -0.15600
C 	C 	0.90052 0.05339 0.00228 -0.04900
C 	C 	0.94037 0.05638 0.98284 -0.05800
H 	H 	0.77698 0.00510 0.99315 0.03900
H 	H 	0.72942 0.05923 0.98239 0.03500
H 	H 	0.91471 0.23069 0.98978 0.03500
H 	H 	0.96216 0.17626 0.00012 0.03800
H 	H 	0.80972 0.21255 0.95937 0.02600
H 	H 	0.72696 0.14427 0.01133 0.07700
H 	H 	0.95544 0.08646 0.96405 0.04200
C 	C 	0.22813 0.11628 0.98012 0.02700
C 	C 	0.25151 0.11269 0.95079 -0.05100
C 	C 	0.31450 0.13486 0.95346 -0.03500
C 	C 	0.35474 0.16142 0.98547 0.00300
C 	C 	0.33189 0.16683 0.01463 -0.03800
C 	C 	0.26917 0.14525 0.01194 -0.05100
C 	C 	0.41954 0.17981 0.98901 0.01000
C 	C 	0.46112 0.22241 0.97223 -0.15200
C 	C 	0.16047 0.08891 0.97740 -0.04500
C 	C 	0.12689 0.05284 0.99921 -0.05800
H 	H 	0.22050 0.09130 0.92606 0.03900
H 	H 	0.33165 0.13020 0.93080 0.03700
H 	H 	0.36274 0.18762 0.03940 0.03700
H 	H 	0.25229 0.15042 0.03460 0.04000
H 	H 	0.43509 0.16305 0.00806 0.03800
H 	H 	0.44652 0.24227 0.95490 0.07300
H 	H 	0.13686 0.09410 0.95584 0.03900
H 	H 	0.14941 0.04307 0.01887 0.04200
H 	H 	0.88566 0.02357 0.02119 0.03900
