data_crystal

_cell_length_a 26.10895
_cell_length_b 26.45224
_cell_length_c 26.33111
_cell_angle_alpha 95.44654
_cell_angle_beta  95.44590
_cell_angle_gamma 125.80779

_symmetry_space_group_name_	'P 1'
_symmetry_space_group_name_H-M	'P 1'

loop_
_symmetry_equiv_pos_as_xyz
  x,y,z

loop_
_atom_site_label
_atom_site_type_symbol
_atom_site_fract_x
_atom_site_fract_y
_atom_site_fract_z
_atom_site_charge
C 	C 	0.96423 0.02361 0.98946 0.16400
N 	N 	0.02687 0.05538 0.98457 -0.11800
C 	C 	0.05421 0.02467 0.98308 0.18400
N 	N 	0.01909 0.96252 0.98709 -0.07300
C 	C 	0.95680 0.93091 0.99248 0.19700
N 	N 	0.92944 0.96149 0.99365 -0.10000
C 	C 	0.94141 0.00414 0.44566 0.16700
N 	N 	0.00532 0.03881 0.44497 -0.08800
C 	C 	0.03458 0.01019 0.44228 0.19300
N 	N 	0.99965 0.94653 0.43923 -0.11600
C 	C 	0.93564 0.91139 0.43938 0.20500
N 	N 	0.90643 0.94024 0.44289 -0.11500
Cu	Cu	0.63990 0.23915 0.00448 0.94000
Cu	Cu	0.68912 0.25127 0.89347 0.89300
Cu	Cu	0.66290 0.33786 0.93998 0.91500
Cu	Cu	0.64121 0.35505 0.04660 0.91400
C 	C 	0.66325 0.28290 0.11395 0.28900
O 	O 	0.54694 0.20194 0.00812 -0.31500
C 	C 	0.64962 0.30690 0.82728 0.29700
O 	O 	0.68981 0.33781 0.01048 -0.63900
O 	O 	0.62640 0.24633 0.93123 -0.63400
O 	O 	0.67998 0.19465 0.99574 -0.30700
O 	O 	0.74964 0.26587 0.95002 -0.40700
O 	O 	0.63188 0.30672 0.10331 -0.32600
O 	O 	0.70531 0.42825 0.94991 -0.32200
C 	C 	0.70824 0.46432 0.99021 0.34600
C 	C 	0.52057 0.22841 0.99076 0.33000
O 	O 	0.55723 0.28854 0.98681 -0.34400
O 	O 	0.67971 0.44092 0.02979 -0.32800
O 	O 	0.66695 0.24828 0.07715 -0.27900
C 	C 	0.73364 0.22155 0.97752 0.33900
O 	O 	0.64102 0.33534 0.86595 -0.29400
O 	O 	0.64922 0.25749 0.83200 -0.36900
H 	H 	0.73686 0.36647 0.02329 0.19300
H 	H 	0.58157 0.21741 0.91186 0.20500
Cu	Cu	0.74225 0.34307 0.44190 0.94100
Cu	Cu	0.73292 0.29693 0.55391 0.89600
Cu	Cu	0.63917 0.31395 0.50542 0.91400
Cu	Cu	0.62018 0.33380 0.39837 0.91000
C 	C 	0.69747 0.31742 0.33205 0.29000
O 	O 	0.77612 0.43412 0.43738 -0.28100
C 	C 	0.67169 0.33047 0.61861 0.29700
O 	O 	0.64157 0.28908 0.43520 -0.63700
O 	O 	0.73337 0.35575 0.51484 -0.63100
O 	O 	0.78965 0.30560 0.45157 -0.30000
O 	O 	0.71846 0.23698 0.49790 -0.40400
O 	O 	0.66990 0.34517 0.34185 -0.32900
O 	O 	0.54670 0.26671 0.49448 -0.29900
C 	C 	0.50945 0.26150 0.45344 0.34600
C 	C 	0.74499 0.45666 0.45176 0.33400
O 	O 	0.68527 0.41723 0.45780 -0.38100
O 	O 	0.53331 0.29392 0.41592 -0.36300
O 	O 	0.73448 0.31679 0.36938 -0.27600
C 	C 	0.76325 0.25294 0.47027 0.33600
O 	O 	0.63957 0.33448 0.57924 -0.30100
O 	O 	0.72434 0.33554 0.61432 -0.36900
H 	H 	0.61473 0.24270 0.42241 0.20100
H 	H 	0.76033 0.40024 0.53371 0.20700
C 	C 	0.59556 0.27396 0.73528 0.06100
C 	C 	0.64594 0.32169 0.77508 0.01500
C 	C 	0.69758 0.37904 0.76287 -0.09000
C 	C 	0.70238 0.38350 0.71045 0.06000
C 	C 	0.65578 0.33253 0.67065 0.01300
C 	C 	0.59944 0.27919 0.68286 -0.09200
C 	C 	0.54453 0.22708 0.64014 0.78300
H 	H 	0.55492 0.23136 0.74523 0.09700
H 	H 	0.74402 0.42525 0.70051 0.09700
C 	C 	0.74850 0.43456 0.80561 0.78000
F 	F 	0.49288 0.18070 0.66000 -0.41300
F 	F 	0.56519 0.19852 0.61054 -0.44100
F 	F 	0.52323 0.25264 0.60866 -0.41100
F 	F 	0.78088 0.41751 0.83522 -0.45300
F 	F 	0.71974 0.45195 0.83707 -0.41600
F 	F 	0.79309 0.48702 0.78575 -0.41100
C 	C 	0.64552 0.24330 0.24779 0.05400
C 	C 	0.69916 0.30078 0.27762 0.02200
C 	C 	0.74806 0.34632 0.25305 -0.08000
C 	C 	0.73773 0.33709 0.19847 0.05500
C 	C 	0.68078 0.28254 0.16863 0.02100
C 	C 	0.63625 0.23312 0.19322 -0.07900
C 	C 	0.57712 0.17112 0.16140 0.78100
H 	H 	0.60919 0.20809 0.26713 0.08700
H 	H 	0.77227 0.37389 0.17913 0.08500
C 	C 	0.80953 0.40621 0.28490 0.78100
F 	F 	0.54394 0.12650 0.19215 -0.41000
F 	F 	0.59502 0.14599 0.12487 -0.40300
F 	F 	0.53614 0.18177 0.13637 -0.42600
F 	F 	0.83723 0.39061 0.32145 -0.39700
F 	F 	0.79588 0.44428 0.30991 -0.42100
F 	F 	0.85408 0.44072 0.25417 -0.41200
C 	C 	0.87921 0.74285 0.40323 -0.12400
C 	C 	0.84740 0.71626 0.44397 0.01400
C 	C 	0.83943 0.75230 0.48052 0.32500
C 	C 	0.86490 0.81517 0.47712 -0.07400
C 	C 	0.89880 0.84253 0.43741 -0.07200
C 	C 	0.90467 0.80561 0.39982 0.35800
C 	C 	0.82120 0.65017 0.44756 0.02600
F 	F 	0.80813 0.72682 0.51985 -0.38400
H 	H 	0.86030 0.84326 0.50639 0.13000
F 	F 	0.93590 0.83093 0.36041 -0.40800
H 	H 	0.88451 0.71495 0.37437 0.13900
C 	C 	0.75506 0.60180 0.43237 0.31100
C 	C 	0.73052 0.53890 0.43392 -0.04900
C 	C 	0.77181 0.52352 0.45065 -0.12000
C 	C 	0.83813 0.57207 0.46605 0.38700
C 	C 	0.86266 0.63513 0.46440 -0.13400
F 	F 	0.71465 0.61569 0.41540 -0.38600
H 	H 	0.67942 0.50191 0.42143 0.10600
F 	F 	0.87861 0.55840 0.48337 -0.40400
H 	H 	0.91382 0.67230 0.47618 0.14100
C 	C 	0.91613 0.12722 0.48826 -0.10800
C 	C 	0.86008 0.10529 0.45353 0.00400
C 	C 	0.82881 0.04815 0.41783 0.32700
C 	C 	0.85411 0.01380 0.41651 -0.11500
C 	C 	0.91079 0.03631 0.45080 -0.05100
C 	C 	0.94116 0.09279 0.48723 0.34700
C 	C 	0.83275 0.14086 0.45637 0.02800
F 	F 	0.77393 0.02588 0.38459 -0.40100
H 	H 	0.83042 0.97045 0.38819 0.15000
F 	F 	0.99479 0.11413 0.52180 -0.38600
H 	H 	0.94012 0.17088 0.51628 0.13800
C 	C 	0.80690 0.14410 0.49983 0.29600
C 	C 	0.78517 0.18133 0.50442 -0.05100
C 	C 	0.78836 0.21535 0.46540 -0.13200
C 	C 	0.81349 0.21144 0.42144 0.38300
C 	C 	0.83581 0.17449 0.41714 -0.13000
F 	F 	0.80315 0.11134 0.53779 -0.39800
H 	H 	0.76611 0.18399 0.53854 0.09600
F 	F 	0.81522 0.24234 0.38255 -0.39200
H 	H 	0.85576 0.17226 0.38348 0.14600
C 	C 	0.34067 0.13331 0.47027 -0.12600
C 	C 	0.30704 0.15526 0.44977 0.03000
C 	C 	0.33998 0.21236 0.43101 0.30400
C 	C 	0.40610 0.24713 0.43254 -0.04600
C 	C 	0.43991 0.22509 0.45274 -0.11900
C 	C 	0.40683 0.16794 0.47171 0.39200
C 	C 	0.23728 0.11823 0.44770 0.00700
F 	F 	0.30777 0.23391 0.41101 -0.39000
H 	H 	0.43115 0.29139 0.41826 0.11800
F 	F 	0.43847 0.14528 0.49046 -0.38700
H 	H 	0.31543 0.08922 0.48480 0.14900
C 	C 	0.19478 0.06246 0.41054 0.33100
C 	C 	0.12853 0.02756 0.40856 -0.11400
C 	C 	0.10424 0.04816 0.44359 -0.05100
C 	C 	0.14689 0.10407 0.48078 0.35100
C 	C 	0.21313 0.13891 0.48271 -0.10700
F 	F 	0.21772 0.04237 0.37620 -0.39600
H 	H 	0.09603 0.98462 0.37966 0.16600
F 	F 	0.12425 0.12370 0.51583 -0.37900
H 	H 	0.24576 0.18182 0.51160 0.14400
C 	C 	0.90686 0.77435 0.02629 -0.10700
C 	C 	0.84687 0.73205 0.99329 0.01200
C 	C 	0.82200 0.75541 0.96145 0.32400
C 	C 	0.85743 0.82057 0.96207 -0.07800
C 	C 	0.91810 0.86284 0.99427 -0.05300
C 	C 	0.94243 0.83948 0.02681 0.34400
C 	C 	0.81066 0.66331 0.99159 0.02900
F 	F 	0.76403 0.71485 0.92929 -0.38400
H 	H 	0.83834 0.83812 0.93677 0.14600
F 	F 	0.00020 0.87996 0.05924 -0.37800
H 	H 	0.92600 0.75664 0.05135 0.14000
C 	C 	0.83223 0.63036 0.96902 0.30900
C 	C 	0.79848 0.56536 0.96837 -0.04100
C 	C 	0.74281 0.53265 0.99020 -0.11400
C 	C 	0.72065 0.56558 0.01201 0.38300
C 	C 	0.75472 0.63068 0.01289 -0.12800
F 	F 	0.88587 0.66138 0.94766 -0.37900
H 	H 	0.81593 0.54051 0.95133 0.13800
F 	F 	0.66548 0.53433 0.03136 -0.40300
H 	H 	0.73761 0.65580 0.03006 0.14700
C 	C 	0.80954 0.14624 0.02895 -0.13400
C 	C 	0.84061 0.14595 0.98840 0.03000
C 	C 	0.83833 0.17239 0.94530 0.29700
C 	C 	0.80399 0.19759 0.94219 -0.05000
C 	C 	0.77161 0.19675 0.98217 -0.13500
C 	C 	0.77527 0.17167 0.02602 0.38400
C 	C 	0.87208 0.11446 0.98952 0.00300
F 	F 	0.86870 0.17283 0.90607 -0.39800
H 	H 	0.80162 0.21678 0.90823 0.09400
F 	F 	0.74633 0.17256 0.06593 -0.39400
H 	H 	0.81139 0.12615 0.06246 0.14400
C 	C 	0.93339 0.14511 0.01980 0.32600
C 	C 	0.96393 0.11582 0.01915 -0.10500
C 	C 	0.93334 0.05566 0.98837 -0.05200
C 	C 	0.87213 0.02531 0.95780 0.32700
C 	C 	0.84168 0.05456 0.95859 -0.10500
F 	F 	0.96346 0.20336 0.04956 -0.39800
H 	H 	0.01099 0.13953 0.04299 0.13700
F 	F 	0.84270 0.96798 0.92665 -0.38400
H 	H 	0.79459 0.03091 0.93480 0.12900
C 	C 	0.35352 0.17764 0.94124 -0.13400
C 	C 	0.31951 0.14006 0.97696 0.02500
C 	C 	0.35039 0.12736 0.01453 0.31500
C 	C 	0.41547 0.15392 0.01745 -0.05600
C 	C 	0.45030 0.19359 0.98299 -0.11900
C 	C 	0.41863 0.20427 0.94410 0.37600
C 	C 	0.25162 0.11413 0.97510 0.01000
F 	F 	0.31751 0.09001 0.04866 -0.37900
H 	H 	0.43927 0.14521 0.04749 0.15400
F 	F 	0.45097 0.24050 0.90921 -0.41600
H 	H 	0.32965 0.18673 0.91159 0.13900
C 	C 	0.23484 0.14310 0.01028 0.32800
C 	C 	0.17008 0.11539 0.01119 -0.08000
C 	C 	0.12172 0.05845 0.97716 -0.05400
C 	C 	0.13866 0.03104 0.94047 0.33600
C 	C 	0.20337 0.05882 0.93955 -0.11100
F 	F 	0.28126 0.19730 0.04427 -0.38900
H 	H 	0.15752 0.13704 0.03945 0.12600
F 	F 	0.09237 0.97717 0.90608 -0.37100
H 	H 	0.21604 0.03671 0.91186 0.13200
