data_crystal

_cell_length_a 25.97898
_cell_length_b 26.70515
_cell_length_c 36.61599
_cell_angle_alpha 95.49224
_cell_angle_beta  95.49051
_cell_angle_gamma 125.82981

_symmetry_space_group_name_	'P 1'
_symmetry_space_group_name_H-M	'P 1'

loop_
_symmetry_equiv_pos_as_xyz
  x,y,z

loop_
_atom_site_label
_atom_site_type_symbol
_atom_site_fract_x
_atom_site_fract_y
_atom_site_fract_z
_atom_site_charge
C 	C 	0.96361 0.02583 0.00688 0.12500
C 	C 	0.93319 0.96326 0.01115 -0.09600
C 	C 	0.96423 0.93503 0.00608 0.12800
C 	C 	0.05859 0.03359 0.99565 0.13400
C 	C 	0.02667 0.06116 0.99946 -0.08900
H 	H 	0.88477 0.93610 0.01730 0.11000
H 	H 	0.05139 0.94884 0.99496 0.10500
H 	H 	0.05033 0.10950 0.99605 0.10600
C 	C 	0.92858 0.99369 0.45822 0.14300
C 	C 	0.89331 0.92961 0.46050 -0.09400
C 	C 	0.92366 0.89999 0.45994 0.14000
C 	C 	0.98886 0.93431 0.45671 -0.10900
C 	C 	0.02468 0.99859 0.45571 0.14600
C 	C 	0.99419 0.02789 0.45574 -0.12600
H 	H 	0.84310 0.90339 0.46345 0.11600
H 	H 	0.01218 0.91138 0.45607 0.10800
H 	H 	0.02184 0.07760 0.45478 0.10500
Cu	Cu	0.63739 0.24116 0.00064 0.93000
Cu	Cu	0.69074 0.24889 0.92215 0.89600
Cu	Cu	0.68327 0.34810 0.95724 0.90700
Cu	Cu	0.64547 0.36016 0.03033 0.90800
C 	C 	0.65540 0.28212 0.07939 0.30700
O 	O 	0.54397 0.20790 0.99916 -0.34800
C 	C 	0.66241 0.31170 0.87499 0.30800
O 	O 	0.69490 0.33987 0.00812 -0.64200
O 	O 	0.63288 0.25450 0.94847 -0.63500
O 	O 	0.67335 0.19273 0.99597 -0.35500
O 	O 	0.74799 0.26068 0.96397 -0.39100
O 	O 	0.62951 0.31093 0.07122 -0.36000
O 	O 	0.73702 0.43880 0.96935 -0.33200
C 	C 	0.73135 0.47207 0.99554 0.34000
C 	C 	0.52276 0.23876 0.98711 0.32500
O 	O 	0.56443 0.29794 0.98472 -0.34300
O 	O 	0.68698 0.44484 0.01667 -0.37000
O 	O 	0.65552 0.24454 0.05322 -0.34500
C 	C 	0.72796 0.21653 0.98397 0.33500
O 	O 	0.68518 0.35698 0.90425 -0.34500
O 	O 	0.65431 0.25899 0.87839 -0.38800
H 	H 	0.74058 0.36420 0.02083 0.18000
H 	H 	0.58881 0.23193 0.93362 0.18800
Cu	Cu	0.73503 0.33625 0.45545 0.93300
Cu	Cu	0.72796 0.29113 0.53595 0.89300
Cu	Cu	0.63424 0.30979 0.50319 0.90200
Cu	Cu	0.61358 0.33078 0.42627 0.91000
C 	C 	0.68752 0.31186 0.37674 0.31400
O 	O 	0.77118 0.42718 0.45304 -0.31500
C 	C 	0.67474 0.33103 0.58516 0.30900
O 	O 	0.63436 0.28527 0.45199 -0.63700
O 	O 	0.72847 0.34957 0.50837 -0.63700
O 	O 	0.78030 0.29629 0.46085 -0.35200
O 	O 	0.70959 0.23047 0.49523 -0.39100
O 	O 	0.66140 0.34056 0.38475 -0.35400
O 	O 	0.54138 0.26491 0.49618 -0.37000
C 	C 	0.50364 0.25731 0.46591 0.35100
C 	C 	0.74204 0.45130 0.46450 0.32700
O 	O 	0.68161 0.41383 0.46863 -0.38700
O 	O 	0.52723 0.29224 0.44013 -0.35600
O 	O 	0.72509 0.31044 0.40288 -0.33900
C 	C 	0.75373 0.24471 0.47497 0.33200
O 	O 	0.63546 0.32684 0.55708 -0.36000
O 	O 	0.72542 0.33321 0.58000 -0.39000
H 	H 	0.60643 0.23930 0.44257 0.18900
H 	H 	0.75665 0.39375 0.52188 0.19000
C 	C 	0.65107 0.34858 0.69304 0.00900
C 	C 	0.59474 0.30042 0.70402 -0.02200
C 	C 	0.59333 0.29793 0.74194 -0.02300
C 	C 	0.64826 0.34359 0.76899 0.01100
C 	C 	0.70263 0.39453 0.75814 -0.02300
C 	C 	0.70403 0.39702 0.72023 -0.02200
C 	C 	0.65262 0.33293 0.80663 0.06300
C 	C 	0.65641 0.32412 0.83815 -0.07200
C 	C 	0.65840 0.34275 0.65469 0.06200
C 	C 	0.66495 0.33822 0.62266 -0.08100
H 	H 	0.55331 0.26314 0.68318 0.06200
H 	H 	0.55081 0.25876 0.75011 0.06200
H 	H 	0.74505 0.43040 0.77890 0.06700
H 	H 	0.74754 0.43479 0.71199 0.06300
C 	C 	0.69284 0.27858 0.26656 0.01200
C 	C 	0.63791 0.22655 0.24209 -0.02200
C 	C 	0.63385 0.22334 0.20345 -0.02000
C 	C 	0.68471 0.27213 0.18914 0.01000
C 	C 	0.74149 0.32185 0.21355 -0.02100
C 	C 	0.74555 0.32505 0.25219 -0.02100
C 	C 	0.67522 0.27551 0.15029 0.06300
C 	C 	0.66694 0.27803 0.11774 -0.07700
C 	C 	0.69110 0.28917 0.30561 0.06500
C 	C 	0.69001 0.29838 0.33832 -0.07000
H 	H 	0.59715 0.19016 0.25296 0.06400
H 	H 	0.59002 0.18443 0.18476 0.06600
H 	H 	0.78128 0.35946 0.20270 0.06100
H 	H 	0.78841 0.36518 0.27091 0.06800
C 	C 	0.81860 0.72267 0.43731 -0.12600
C 	C 	0.84063 0.70945 0.46884 0.00300
C 	C 	0.88482 0.75846 0.49901 0.32300
C 	C 	0.90827 0.82031 0.49711 -0.09500
C 	C 	0.88863 0.83398 0.46487 -0.07300
C 	C 	0.84256 0.78469 0.43528 0.34100
C 	C 	0.81922 0.64467 0.46959 0.02000
F 	F 	0.90667 0.74642 0.52962 -0.40000
H 	H 	0.94375 0.85804 0.52008 0.12100
F 	F 	0.82307 0.79718 0.40395 -0.41300
H 	H 	0.78397 0.68506 0.41408 0.12200
C 	C 	0.77999 0.61047 0.49474 0.30400
C 	C 	0.75818 0.54853 0.49453 -0.05900
C 	C 	0.77442 0.51967 0.46881 -0.13700
C 	C 	0.81519 0.55459 0.44429 0.37300
C 	C 	0.83755 0.61682 0.44483 -0.14600
F 	F 	0.76176 0.63677 0.51878 -0.39800
H 	H 	0.72726 0.52236 0.51375 0.10000
F 	F 	0.83088 0.52752 0.41889 -0.42500
H 	H 	0.86829 0.64310 0.42557 0.12500
C 	C 	0.82408 0.04598 0.43342 -0.11500
C 	C 	0.85024 0.09732 0.46260 0.00500
C 	C 	0.90019 0.11270 0.49107 0.30900
C 	C 	0.92361 0.07704 0.49037 -0.09200
C 	C 	0.89830 0.02635 0.46090 -0.07700
C 	C 	0.84820 0.01077 0.43244 0.34100
C 	C 	0.82300 0.13288 0.46452 0.02100
F 	F 	0.92634 0.16253 0.51927 -0.41300
H 	H 	0.96231 0.08947 0.51240 0.11000
F 	F 	0.82383 0.96245 0.40350 -0.41000
H 	H 	0.78513 0.03339 0.41154 0.13200
C 	C 	0.83080 0.17050 0.43802 0.29100
C 	C 	0.80802 0.20680 0.44134 -0.05100
C 	C 	0.77774 0.20622 0.47131 -0.14100
C 	C 	0.77012 0.16839 0.49780 0.37100
C 	C 	0.79189 0.13149 0.49404 -0.13500
F 	F 	0.86126 0.17264 0.40943 -0.40700
H 	H 	0.81390 0.23527 0.42062 0.10700
F 	F 	0.74322 0.16863 0.52777 -0.45000
H 	H 	0.78570 0.10262 0.51457 0.13300
C 	C 	0.20216 0.07521 0.48801 -0.11600
C 	C 	0.22902 0.10848 0.45938 0.00400
C 	C 	0.18858 0.10531 0.42937 0.31000
C 	C 	0.12183 0.06889 0.42802 -0.08900
C 	C 	0.09504 0.03607 0.45685 -0.07900
C 	C 	0.13562 0.03976 0.48702 0.34100
C 	C 	0.29953 0.14688 0.46102 0.02300
F 	F 	0.21407 0.13806 0.40178 -0.40900
H 	H 	0.09092 0.06635 0.40467 0.11400
H 	H 	0.23299 0.07725 0.51118 0.13100
C 	C 	0.34186 0.19819 0.49047 0.28900
C 	C 	0.40865 0.23350 0.49238 -0.04700
C 	C 	0.43365 0.21856 0.46462 -0.14200
C 	C 	0.39143 0.16760 0.43506 0.37600
C 	C 	0.32465 0.13159 0.43345 -0.13600
F 	F 	0.31819 0.21416 0.51696 -0.40800
H 	H 	0.44097 0.27308 0.51512 0.10200
F 	F 	0.41517 0.15261 0.40812 -0.43800
H 	H 	0.29239 0.09177 0.41084 0.13600
C 	C 	0.83007 0.63441 0.97085 -0.14100
C 	C 	0.83747 0.67142 0.00370 0.01600
C 	C 	0.81230 0.64333 0.03427 0.30800
C 	C 	0.77976 0.57870 0.03190 -0.06300
C 	C 	0.77048 0.54109 0.99863 -0.12700
C 	C 	0.79627 0.56952 0.96808 0.37300
C 	C 	0.86886 0.73901 0.00534 0.00100
F 	F 	0.81815 0.67849 0.06598 -0.39600
H 	H 	0.76095 0.55769 0.05579 0.10400
F 	F 	0.78687 0.53423 0.93534 -0.42300
H 	H 	0.84949 0.65585 0.94718 0.12600
C 	C 	0.92671 0.78422 0.03072 0.32500
C 	C 	0.95661 0.84820 0.03175 -0.09600
C 	C 	0.92985 0.86756 0.00688 -0.07500
C 	C 	0.87211 0.82228 0.98139 0.34600
C 	C 	0.84150 0.75836 0.98093 -0.12400
F 	F 	0.95446 0.76610 0.05389 -0.40000
H 	H 	0.00115 0.88279 0.05147 0.11400
F 	F 	0.84663 0.84028 0.95645 -0.42200
H 	H 	0.79688 0.72375 0.96128 0.12400
C 	C 	0.83179 0.16283 0.96877 -0.13100
C 	C 	0.82879 0.13608 0.00034 0.01600
C 	C 	0.79388 0.13701 0.02706 0.29500
C 	C 	0.76149 0.16385 0.02188 -0.05800
C 	C 	0.76352 0.18969 0.98990 -0.13700
C 	C 	0.79895 0.18899 0.96331 0.37000
C 	C 	0.85996 0.10476 0.00440 0.00100
F 	F 	0.79055 0.11110 0.05770 -0.40800
H 	H 	0.73480 0.16449 0.04269 0.10600
F 	F 	0.79992 0.21185 0.93161 -0.45000
H 	H 	0.85868 0.16226 0.94806 0.13000
C 	C 	0.83657 0.04955 0.97932 0.31700
C 	C 	0.87029 0.02374 0.98039 -0.09100
C 	C 	0.92723 0.05234 0.00681 -0.07200
C 	C 	0.94950 0.10641 0.03275 0.33300
C 	C 	0.91608 0.13265 0.03139 -0.11500
F 	F 	0.78170 0.02155 0.95351 -0.40800
F 	F 	0.00350 0.13354 0.05913 -0.42000
H 	H 	0.93432 0.17518 0.05088 0.12800
C 	C 	0.20315 0.08655 0.95080 -0.11700
C 	C 	0.25394 0.12875 0.98086 0.00800
C 	C 	0.24043 0.14396 0.01465 0.30900
C 	C 	0.17643 0.11524 0.01875 -0.09600
C 	C 	0.12552 0.07099 0.98924 -0.06900
C 	C 	0.13912 0.05774 0.95493 0.34000
C 	C 	0.32100 0.15502 0.97752 0.01900
F 	F 	0.28927 0.18506 0.04385 -0.41100
H 	H 	0.16629 0.12576 0.04526 0.11700
F 	F 	0.09020 0.01578 0.92596 -0.41700
H 	H 	0.21330 0.07520 0.92451 0.12800
C 	C 	0.34239 0.11751 0.97864 0.29500
C 	C 	0.40775 0.14431 0.97984 -0.05700
C 	C 	0.45256 0.20905 0.98035 -0.13400
C 	C 	0.43016 0.24583 0.97718 0.37000
C 	C 	0.36473 0.21872 0.97580 -0.13300
F 	F 	0.30015 0.05548 0.97976 -0.40900
H 	H 	0.42375 0.11499 0.98127 0.10600
F 	F 	0.47183 0.30805 0.97642 -0.42900
H 	H 	0.34825 0.24766 0.97436 0.13200
C 	C 	0.02712 0.97046 0.99866 -0.09700
F 	F 	0.11062 0.00971 0.51563 -0.42500
H 	H 	0.85263 0.98189 0.96040 0.12500
