data_crystal

_cell_length_a 26.73617
_cell_length_b 29.05070
_cell_length_c 32.32635
_cell_angle_alpha 61.02331
_cell_angle_beta  118.67265
_cell_angle_gamma 133.22149

_symmetry_space_group_name_	'P 1'
_symmetry_space_group_name_H-M	'P 1'

loop_
_symmetry_equiv_pos_as_xyz
  x,y,z

loop_
_atom_site_label
_atom_site_type_symbol
_atom_site_fract_x
_atom_site_fract_y
_atom_site_fract_z
_atom_site_charge
Co	Co	0.06301 0.02115 0.08216 1.16700
Co	Co	0.00790 0.07358 0.10954 1.15700
C 	C 	0.20103 0.04962 0.09899 0.26800
Co	Co	0.07918 0.91267 0.09517 1.16000
O 	O 	0.06939 0.09952 0.07158 -0.49300
C 	C 	0.05919 0.16953 0.15637 0.26000
C 	C 	0.11164 0.87419 0.20359 0.31200
O 	O 	0.08084 0.96917 0.02426 -0.40600
O 	O 	0.99351 0.15030 0.13892 -0.37400
O 	O 	0.07805 0.14036 0.15225 -0.41200
O 	O 	0.08356 0.85374 0.16458 -0.43000
O 	O 	0.09474 0.90568 0.20669 -0.40800
O 	O 	0.04083 0.94547 0.10996 -0.76100
O 	O 	0.18271 0.98981 0.11467 -0.37200
O 	O 	0.16992 0.06348 0.10790 -0.41000
Co	Co	0.06232 0.01289 0.58136 1.16800
C 	C 	0.20409 0.04033 0.59815 0.26600
Co	Co	0.07704 0.90666 0.59081 1.16200
O 	O 	0.05275 0.08420 0.56298 -0.50000
C 	C 	0.03634 0.16309 0.63572 0.26500
C 	C 	0.09255 0.84587 0.69811 0.31600
O 	O 	0.08412 0.97124 0.52269 -0.41400
O 	O 	0.06065 0.14179 0.62769 -0.41000
O 	O 	0.07058 0.83604 0.65530 -0.42700
O 	O 	0.07507 0.87330 0.70590 -0.40300
O 	O 	0.04758 0.94049 0.61270 -0.76500
O 	O 	0.17762 0.97820 0.61877 -0.37500
O 	O 	0.16991 0.06469 0.58707 -0.39100
C 	C 	0.14978 0.39615 0.66973 -0.00800
C 	C 	0.12142 0.38368 0.70431 0.03200
C 	C 	0.13006 0.34202 0.65719 0.00600
C 	C 	0.06329 0.31541 0.72450 -0.17100
C 	C 	0.08525 0.32672 0.61191 0.01400
C 	C 	0.06505 0.27330 0.60210 -0.02000
C 	C 	0.08236 0.23104 0.63861 -0.11000
C 	C 	0.13179 0.24925 0.68224 0.09200
C 	C 	0.15563 0.30502 0.69110 -0.09600
C 	C 	0.05636 0.36523 0.57498 -0.16600
H 	H 	0.03064 0.26128 0.56751 0.02000
C 	C 	0.15534 0.20713 0.72077 -0.20400
H 	H 	0.08555 0.28800 0.75188 0.05600
H 	H 	0.02255 0.28982 0.69496 0.04900
H 	H 	0.03666 0.31567 0.74216 0.04800
H 	H 	0.09972 0.41541 0.56059 0.05500
H 	H 	0.03056 0.36734 0.59194 0.05300
H 	H 	0.11273 0.16338 0.74004 0.06800
C 	C 	0.19163 0.70186 0.77303 -0.01000
C 	C 	0.17489 0.69078 0.72860 0.03500
C 	C 	0.19789 0.66053 0.72699 -0.05000
C 	C 	0.17378 0.73922 0.77463 0.01200
C 	C 	0.13377 0.71233 0.68266 -0.17400
H 	H 	0.18666 0.65351 0.69270 0.03800
C 	C 	0.10487 0.70878 0.77617 0.01200
C 	C 	0.08040 0.74667 0.75789 -0.00800
C 	C 	0.12467 0.81418 0.73928 -0.12300
C 	C 	0.19748 0.84519 0.74840 0.10400
C 	C 	0.22145 0.80730 0.76515 -0.10100
C 	C 	0.05540 0.63579 0.79267 -0.16200
H 	H 	0.02516 0.72298 0.75348 0.02000
H 	H 	0.16266 0.76583 0.67414 0.06300
H 	H 	0.08096 0.68732 0.68714 0.05500
H 	H 	0.12564 0.70063 0.65098 0.05100
H 	H 	0.01029 0.62100 0.80179 0.04400
H 	H 	0.08346 0.61689 0.82576 0.05400
H 	H 	0.03443 0.61313 0.76341 0.04700
H 	H 	0.23038 0.94160 0.73742 0.08500
C 	C 	0.16714 0.33515 0.17480 -0.09400
C 	C 	0.15240 0.31771 0.21847 0.00400
C 	C 	0.12199 0.25272 0.24661 0.02000
C 	C 	0.10484 0.20603 0.22966 -0.02800
C 	C 	0.11005 0.22153 0.18282 -0.10200
C 	C 	0.14683 0.28753 0.15701 0.08800
C 	C 	0.16655 0.36743 0.23342 -0.01100
C 	C 	0.10165 0.23164 0.29216 -0.16900
H 	H 	0.08209 0.15639 0.25133 0.03600
C 	C 	0.15992 0.30687 0.10885 -0.20000
H 	H 	0.19233 0.38539 0.15388 0.04800
C 	C 	0.13430 0.43522 0.22035 0.05900
C 	C 	0.11745 0.38158 0.21295 -0.07800
C 	C 	0.08283 0.45228 0.19520 -0.18400
H 	H 	0.06736 0.35256 0.18955 0.03700
H 	H 	0.20661 0.35830 0.10134 0.06300
H 	H 	0.11317 0.30158 0.07939 0.05900
H 	H 	0.17044 0.27601 0.10871 0.07200
H 	H 	0.05874 0.23566 0.28254 0.05200
H 	H 	0.14753 0.26259 0.31766 0.05800
H 	H 	0.08260 0.18034 0.31156 0.05200
H 	H 	0.10267 0.49694 0.16530 0.06100
H 	H 	0.07596 0.46073 0.22154 0.06300
H 	H 	0.03004 0.41238 0.17952 0.05000
C 	C 	0.19512 0.72569 0.26813 -0.01000
C 	C 	0.17067 0.71575 0.22145 0.03400
C 	C 	0.18101 0.67876 0.21458 -0.05000
C 	C 	0.19013 0.76920 0.27541 0.01100
C 	C 	0.13972 0.74949 0.17800 -0.17700
H 	H 	0.16520 0.67364 0.17841 0.03700
C 	C 	0.12951 0.74402 0.28699 0.01200
C 	C 	0.11034 0.78516 0.27294 -0.01100
C 	C 	0.15031 0.84992 0.24662 -0.12000
C 	C 	0.21948 0.87789 0.24755 0.10400
C 	C 	0.23829 0.83694 0.26048 -0.09900
C 	C 	0.08661 0.67448 0.31508 -0.16500
H 	H 	0.06008 0.76477 0.27693 0.02400
H 	H 	0.18268 0.80168 0.16667 0.06200
H 	H 	0.10153 0.74585 0.18668 0.05800
H 	H 	0.11105 0.72728 0.14677 0.04900
H 	H 	0.03724 0.66051 0.31708 0.04600
H 	H 	0.07171 0.64054 0.29769 0.04900
H 	H 	0.25505 0.97733 0.22893 0.08900
H 	H 	0.23194 0.03154 0.53456 0.02200
C 	C 	0.26594 0.10300 0.08099 -0.10900
C 	C 	0.19767 0.13324 0.99794 -0.21200
H 	H 	0.16660 0.09663 0.97699 0.07000
H 	H 	0.21283 0.18115 0.97171 0.06500
H 	H 	0.16453 0.12136 0.01778 0.06500
C 	C 	0.19980 0.46047 0.64872 -0.08100
C 	C 	0.15047 0.43513 0.72196 -0.04900
H 	H 	0.13343 0.42506 0.75160 0.03800
H 	H 	0.22003 0.47021 0.62114 0.04500
H 	H 	0.16830 0.19172 0.70416 0.07200
H 	H 	0.11819 0.66843 0.35267 0.05500
Co	Co	0.00595 0.90236 0.15915 1.16700
C 	C 	0.03546 0.98302 0.99632 0.31700
O 	O 	0.02572 0.98706 0.64459 -0.59100
C 	C 	0.03358 0.97837 0.49568 0.34100
C 	C 	0.01584 0.98708 0.94503 -0.08400
C 	C 	0.01195 0.98201 0.44429 -0.18200
H 	H 	0.20340 0.23383 0.74790 0.06200
H 	H 	0.19191 0.31820 0.72518 0.04900
C 	C 	0.20485 0.49880 0.70378 -0.05000
C 	C 	0.22473 0.51220 0.66372 0.06700
H 	H 	0.26612 0.58506 0.60007 0.06000
O 	O 	0.02392 0.00985 0.01114 -0.42500
C 	C 	0.99563 0.99048 0.85556 0.09300
C 	C 	0.00481 0.98889 0.90338 -0.02600
C 	C 	0.24822 0.91833 0.73464 -0.21400
H 	H 	0.26900 0.95985 0.19029 0.08400
C 	C 	0.26279 0.13665 0.03128 0.09500
H 	H 	0.25260 0.93467 0.69684 0.08400
C 	C 	0.26960 0.94996 0.22820 -0.21500
H 	H 	0.28758 0.85722 0.25497 0.05500
H 	H 	0.27573 0.83081 0.76693 0.05400
H 	H 	0.32407 0.96805 0.25079 0.07600
C 	C 	0.27892 0.06824 0.55426 -0.02100
H 	H 	0.29866 0.04003 0.50009 0.04800
H 	H 	0.30134 0.93501 0.75937 0.07400
C 	C 	0.27255 0.08307 0.58602 -0.10700
H 	H 	0.30378 0.10396 0.67553 0.06300
C 	C 	0.24285 0.62952 0.24235 0.11800
N 	N 	0.21026 0.56456 0.25122 -0.14700
C 	C 	0.23402 0.54488 0.23871 0.11900
C 	C 	0.26572 0.61463 0.76497 0.11800
C 	C 	0.24994 0.54727 0.73248 0.12100
N 	N 	0.22248 0.56629 0.74146 -0.14800
C 	C 	0.27554 0.58125 0.63866 -0.18900
H 	H 	0.33059 0.59695 0.65728 0.07000
H 	H 	0.26888 0.61494 0.63882 0.06700
C 	C 	0.22912 0.68076 0.81535 -0.07900
C 	C 	0.23717 0.64107 0.76899 -0.04800
C 	C 	0.25074 0.64908 0.81395 0.06300
H 	H 	0.24168 0.68920 0.84936 0.04400
C 	C 	0.23067 0.40354 0.26541 0.03800
C 	C 	0.24578 0.45507 0.27455 -0.05000
C 	C 	0.20130 0.47511 0.24863 -0.04700
C 	C 	0.28631 0.39224 0.28552 -0.17800
H 	H 	0.29614 0.48435 0.29766 0.04200
H 	H 	0.30851 0.40843 0.25565 0.06400
H 	H 	0.26361 0.33992 0.30277 0.06200
C 	C 	0.22643 0.69596 0.30750 -0.07800
C 	C 	0.21592 0.65211 0.25333 -0.04700
C 	C 	0.23663 0.65881 0.30052 0.06400
H 	H 	0.24422 0.70285 0.34336 0.04500
C 	C 	0.34547 0.09735 0.55004 0.01700
C 	C 	0.33346 0.13082 0.61177 0.09300
C 	C 	0.35134 0.07632 0.51903 -0.16700
C 	C 	0.32784 0.14770 0.64601 -0.20000
H 	H 	0.29475 0.16573 0.62588 0.07400
C 	C 	0.32057 0.17213 0.01198 -0.09000
C 	C 	0.33059 0.11486 0.11197 -0.01700
H 	H 	0.33399 0.09141 0.15047 0.02700
H 	H 	0.31639 0.19346 0.97318 0.04300
C 	C 	0.28924 0.62519 0.86026 -0.18800
H 	H 	0.28145 0.62157 0.89281 0.05900
H 	H 	0.26930 0.57591 0.86235 0.06600
H 	H 	0.24137 0.57703 0.34484 0.06800
H 	H 	0.03266 0.34107 0.01686 0.01800
C 	C 	0.40643 0.14417 0.57642 0.00600
C 	C 	0.40010 0.16142 0.60645 -0.09700
H 	H 	0.37991 0.05380 0.54218 0.05400
H 	H 	0.38036 0.11889 0.49090 0.05700
H 	H 	0.38036 0.18637 0.66307 0.06100
C 	C 	0.38386 0.18070 0.04243 0.00600
C 	C 	0.39078 0.15672 0.09334 0.02000
H 	H 	0.36521 0.09125 0.01689 0.05900
N 	N 	0.29011 0.58983 0.21811 -0.14600
C 	C 	0.32187 0.65416 0.20864 0.12200
N 	N 	0.29856 0.67409 0.22103 -0.14400
N 	N 	0.33657 0.64446 0.77866 -0.14700
C 	C 	0.36382 0.62558 0.76923 0.12100
N 	N 	0.32014 0.57588 0.74747 -0.14600
H 	H 	0.34662 0.65953 0.86164 0.07000
H 	H 	0.33018 0.41971 0.31358 0.05900
C 	C 	0.31760 0.65023 0.11666 -0.18900
H 	H 	0.32504 0.66646 0.07983 0.06200
H 	H 	0.27516 0.65220 0.11216 0.06700
H 	H 	0.30062 0.59919 0.13269 0.06900
C 	C 	0.27285 0.62941 0.34296 -0.18900
H 	H 	0.27893 0.63292 0.37802 0.06100
H 	H 	0.32610 0.65529 0.33869 0.07000
H 	H 	0.41836 0.22892 0.48150 0.06200
H 	H 	0.43898 0.57690 0.81987 0.04100
H 	H 	0.40792 0.75239 0.70582 0.07100
C 	C 	0.38444 0.70201 0.18787 -0.04600
C 	C 	0.38528 0.69321 0.14887 0.06700
C 	C 	0.47723 0.17572 0.57262 -0.01000
H 	H 	0.48918 0.10378 0.63308 0.04100
H 	H 	0.44720 0.19801 0.62621 0.04900
C 	C 	0.44328 0.21696 0.02075 -0.01000
C 	C 	0.46168 0.17561 0.12779 -0.16900
C 	C 	0.42214 0.11214 0.03238 -0.17400
H 	H 	0.46164 0.16885 0.16467 0.05400
H 	H 	0.43567 0.09663 0.01630 0.05400
H 	H 	0.43115 0.09170 0.07226 0.05500
C 	C 	0.44071 0.66234 0.77803 -0.04900
H 	H 	0.46335 0.28057 0.52139 0.06300
H 	H 	0.47471 0.14503 0.13076 0.05600
C 	C 	0.46859 0.62679 0.79899 -0.04700
C 	C 	0.45698 0.77054 0.73494 -0.19100
H 	H 	0.44700 0.76969 0.76500 0.07400
H 	H 	0.44661 0.75842 0.24099 0.04500
C 	C 	0.51400 0.14864 0.60591 -0.07900
C 	C 	0.50852 0.23328 0.53648 0.03700
C 	C 	0.47070 0.26428 0.50129 -0.17700
C 	C 	0.46659 0.18539 0.02107 0.03400
C 	C 	0.47759 0.28399 0.00003 -0.06700
H 	H 	0.45666 0.30765 0.99611 0.03900
H 	H 	0.50367 0.22773 0.11507 0.06400
C 	C 	0.44739 0.74965 0.21236 -0.04900
C 	C 	0.52932 0.65214 0.78797 0.03700
C 	C 	0.48174 0.72881 0.75381 0.06800
H 	H 	0.49713 0.82215 0.71948 0.06600
H 	H 	0.51433 0.55895 0.82305 0.05900
C 	C 	0.45006 0.72307 0.14111 -0.07900
H 	H 	0.45120 0.71249 0.11379 0.04700
H 	H 	0.58785 0.10141 0.66240 0.05600
H 	H 	0.50090 0.30732 0.47379 0.05800
C 	C 	0.53269 0.22312 0.01132 -0.04000
H 	H 	0.53113 0.39950 0.93532 0.06000
Co	Co	0.00076 0.89049 0.65588 1.17000
C 	C 	0.54472 0.75542 0.74515 -0.07800
C 	C 	0.55283 0.60979 0.80527 -0.17700
H 	H 	0.55811 0.60811 0.77406 0.06400
H 	H 	0.50812 0.67643 0.67484 0.06200
C 	C 	0.51342 0.76592 0.16885 -0.00900
C 	C 	0.51187 0.78340 0.20190 0.04100
C 	C 	0.57712 0.26396 0.53517 -0.04800
C 	C 	0.58326 0.18013 0.60506 0.06300
C 	C 	0.53964 0.32074 0.98528 0.06200
H 	H 	0.55496 0.19964 0.01729 0.04100
H 	H 	0.01627 0.34277 0.54380 0.04600
C 	C 	0.98886 0.99265 0.81485 -0.11600
O 	O 	0.97838 0.04622 0.73086 -0.41400
O 	O 	0.96723 0.05195 0.23046 -0.37800
C 	C 	0.97989 0.99766 0.76525 0.34100
C 	C 	0.99957 0.98438 0.40220 0.13100
C 	C 	0.97253 0.00402 0.26053 0.22600
C 	C 	0.98175 0.99308 0.31164 -0.01500
C 	C 	0.98920 0.98787 0.35346 -0.01500
Co	Co	0.99578 0.05665 0.60558 1.19500
O 	O 	0.00725 0.98695 0.51478 -0.40200
H 	H 	0.98923 0.23163 0.47309 0.08000
O 	O 	0.96836 0.13003 0.63029 -0.38100
H 	H 	0.94283 0.14795 0.47638 0.08600
H 	H 	0.87557 0.79276 0.48423 0.08900
C 	C 	0.75008 0.34333 0.01405 0.12400
N 	N 	0.79090 0.39078 0.03790 -0.14600
C 	C 	0.76107 0.40901 0.04502 0.12400
N 	N 	0.69053 0.37880 0.02928 -0.14700
C 	C 	0.64935 0.33085 0.00610 0.13400
N 	N 	0.67926 0.31328 0.99824 -0.15400
C 	C 	0.78828 0.32631 0.55032 0.12100
N 	N 	0.72239 0.27619 0.55817 -0.14600
C 	C 	0.69264 0.28289 0.57702 0.12300
N 	N 	0.73010 0.33860 0.58984 -0.14400
C 	C 	0.79124 0.39173 0.57591 0.12200
N 	N 	0.82159 0.38535 0.55696 -0.14300
Co	Co	0.94417 0.95219 0.18322 1.19400
Co	Co	0.91035 0.05318 0.15883 1.15900
C 	C 	0.93705 0.79591 0.11150 0.30300
O 	O 	0.85947 0.05504 0.08647 -0.41500
O 	O 	0.95104 0.02060 0.14658 -0.76600
C 	C 	0.89531 0.09904 0.05248 0.30300
O 	O 	0.96207 0.88486 0.20662 -0.45200
C 	C 	0.79745 0.90925 0.16703 0.31000
O 	O 	0.98309 0.97708 0.12161 -0.54200
O 	O 	0.94725 0.10362 0.05090 -0.37300
O 	O 	0.82690 0.95905 0.18253 -0.39400
O 	O 	0.83527 0.89242 0.17156 -0.38900
O 	O 	0.99210 0.98209 0.24774 -0.34500
O 	O 	0.97282 0.83983 0.07732 -0.37200
O 	O 	0.93355 0.81257 0.14130 -0.36900
Co	Co	0.95011 0.94178 0.68828 1.19900
Co	Co	0.90524 0.03238 0.66496 1.16000
C 	C 	0.92827 0.79694 0.59454 0.30300
O 	O 	0.83785 0.01504 0.59811 -0.40600
O 	O 	0.95839 0.01103 0.65410 -0.76900
C 	C 	0.86329 0.05118 0.55892 0.30300
O 	O 	0.95589 0.86862 0.70471 -0.45200
C 	C 	0.80781 0.88603 0.68784 0.31600
O 	O 	0.90637 0.04815 0.55262 -0.39800
O 	O 	0.83593 0.93761 0.70026 -0.39900
O 	O 	0.84185 0.88750 0.66795 -0.40200
O 	O 	0.98288 0.95912 0.75641 -0.37700
O 	O 	0.97151 0.84046 0.56503 -0.37700
O 	O 	0.91951 0.81483 0.62017 -0.38000
C 	C 	0.56618 0.71632 0.75929 -0.00700
C 	C 	0.62568 0.74243 0.74224 0.00900
H 	H 	0.57525 0.80574 0.72522 0.05000
C 	C 	0.61899 0.75477 0.69247 0.02200
C 	C 	0.68010 0.79682 0.67479 -0.01000
C 	C 	0.74684 0.82339 0.70671 -0.11600
C 	C 	0.75184 0.79997 0.75736 0.10600
C 	C 	0.69165 0.76241 0.77468 -0.09600
C 	C 	0.54753 0.72724 0.65767 -0.17100
H 	H 	0.67589 0.81238 0.63597 0.04000
C 	C 	0.82215 0.82002 0.79289 -0.20900
H 	H 	0.69663 0.75108 0.81313 0.05200
H 	H 	0.60434 0.62946 0.83210 0.06200
H 	H 	0.54929 0.72621 0.62450 0.06100
H 	H 	0.53003 0.75771 0.64672 0.06300
H 	H 	0.84727 0.86601 0.80060 0.08500
H 	H 	0.85755 0.82709 0.77821 0.07700
H 	H 	0.81540 0.78187 0.82758 0.07300
C 	C 	0.60706 0.84425 0.12273 -0.09800
C 	C 	0.58113 0.79277 0.16274 0.01000
C 	C 	0.62144 0.76928 0.19777 0.02200
C 	C 	0.69183 0.80498 0.19671 -0.00900
C 	C 	0.72035 0.86108 0.15941 -0.11100
C 	C 	0.67561 0.87697 0.11989 0.10400
C 	C 	0.59068 0.70794 0.23718 -0.17100
H 	H 	0.72530 0.79101 0.22612 0.04000
C 	C 	0.70167 0.93104 0.07597 -0.21500
H 	H 	0.57458 0.86001 0.09444 0.05400
C 	C 	0.57872 0.83653 0.22693 -0.18100
H 	H 	0.72414 0.97739 0.08157 0.08800
H 	H 	0.65761 0.92112 0.04300 0.07500
H 	H 	0.74210 0.93578 0.06910 0.08800
H 	H 	0.53622 0.66936 0.22179 0.06400
H 	H 	0.58947 0.71796 0.26560 0.06200
H 	H 	0.62242 0.68873 0.25454 0.06100
H 	H 	0.56700 0.85256 0.24401 0.06600
H 	H 	0.61051 0.87980 0.20031 0.07200
H 	H 	0.61044 0.81870 0.25570 0.06700
C 	C 	0.82252 0.28403 0.47872 -0.07600
C 	C 	0.84334 0.24487 0.51660 -0.01000
C 	C 	0.86306 0.24692 0.56520 0.04600
C 	C 	0.85446 0.28275 0.57530 -0.04900
C 	C 	0.82464 0.31477 0.53789 -0.04400
C 	C 	0.81338 0.31940 0.48903 0.06700
C 	C 	0.83678 0.19643 0.50588 0.01100
C 	C 	0.88553 0.20528 0.60672 -0.18600
H 	H 	0.86506 0.28086 0.61274 0.04500
C 	C 	0.78572 0.35717 0.44801 -0.19100
H 	H 	0.80954 0.28404 0.44137 0.04700
C 	C 	0.77633 0.13109 0.51107 0.01600
C 	C 	0.78116 0.08189 0.51952 -0.01400
C 	C 	0.84574 0.09758 0.52339 -0.12000
C 	C 	0.89956 0.16338 0.50611 0.10800
C 	C 	0.89547 0.21273 0.49871 -0.09800
C 	C 	0.70903 0.11309 0.51225 -0.16700
H 	H 	0.73708 0.03121 0.52822 0.03200
C 	C 	0.96126 0.18129 0.49615 -0.21200
H 	H 	0.93938 0.26346 0.49003 0.05900
H 	H 	0.79471 0.36847 0.41307 0.06500
H 	H 	0.81309 0.40415 0.45534 0.07400
H 	H 	0.72820 0.32819 0.44407 0.06800
H 	H 	0.92250 0.20724 0.59819 0.08400
H 	H 	0.83848 0.15402 0.61370 0.05800
H 	H 	0.91298 0.22229 0.64049 0.06900
H 	H 	0.66353 0.06333 0.50673 0.05200
H 	H 	0.69693 0.14746 0.48283 0.06100
H 	H 	0.71457 0.11470 0.54792 0.05700
H 	H 	0.99938 0.17849 0.53077 0.08400
C 	C 	0.89298 0.55754 0.59562 -0.07800
C 	C 	0.83684 0.56117 0.58131 -0.00700
C 	C 	0.76874 0.51321 0.55961 0.03800
C 	C 	0.75908 0.46532 0.54985 -0.04600
C 	C 	0.81249 0.45665 0.56951 -0.04700
C 	C 	0.88069 0.50399 0.59181 0.07100
C 	C 	0.85048 0.61750 0.58624 0.00900
C 	C 	0.70595 0.51224 0.54720 -0.17800
H 	H 	0.70759 0.43069 0.53077 0.04300
C 	C 	0.94007 0.49770 0.61165 -0.19500
H 	H 	0.94580 0.59557 0.61064 0.05200
C 	C 	0.87089 0.62669 0.63248 0.02600
C 	C 	0.88792 0.68300 0.63546 -0.01300
C 	C 	0.88180 0.72829 0.59305 -0.11000
C 	C 	0.84962 0.71266 0.54772 0.10700
C 	C 	0.83975 0.66062 0.54420 -0.09700
C 	C 	0.87837 0.57894 0.67854 -0.17400
H 	H 	0.91076 0.69384 0.67054 0.04300
C 	C 	0.83081 0.75429 0.50240 -0.20800
H 	H 	0.82290 0.65320 0.50871 0.05400
H 	H 	0.98960 0.53809 0.62879 0.07500
H 	H 	0.95065 0.49886 0.58176 0.08100
H 	H 	0.92590 0.45119 0.63971 0.07700
H 	H 	0.70377 0.54685 0.51165 0.06200
H 	H 	0.70885 0.52539 0.57572 0.06500
H 	H 	0.65585 0.46288 0.54464 0.06000
H 	H 	0.87962 0.58533 0.71033 0.06500
H 	H 	0.92824 0.58661 0.68552 0.06900
H 	H 	0.83305 0.52808 0.67563 0.06500
H 	H 	0.81813 0.77743 0.51114 0.08400
H 	H 	0.78360 0.72421 0.47667 0.07000
C 	C 	0.61589 0.23965 0.57068 -0.04800
H 	H 	0.60221 0.30926 0.50836 0.04000
C 	C 	0.62327 0.15199 0.64241 -0.18900
H 	H 	0.64856 0.15058 0.62445 0.06600
H 	H 	0.66458 0.18242 0.66910 0.06600
C 	C 	0.79868 0.17402 0.98309 -0.09600
C 	C 	0.85179 0.23480 0.99451 0.00600
C 	C 	0.92288 0.25723 0.01018 0.01800
C 	C 	0.93817 0.21391 0.02269 -0.00800
C 	C 	0.88337 0.14913 0.01952 -0.10700
C 	C 	0.81437 0.13140 0.99450 0.08800
C 	C 	0.83162 0.26800 0.99935 -0.01900
C 	C 	0.98178 0.32483 0.01826 -0.11000
H 	H 	0.99198 0.22890 0.03894 0.05000
C 	C 	0.75829 0.06926 0.97758 -0.19700
H 	H 	0.74462 0.15858 0.96763 0.04600
C 	C 	0.80987 0.30495 0.95810 0.04400
C 	C 	0.78405 0.33007 0.96358 -0.05900
C 	C 	0.78126 0.31990 0.00971 -0.03800
C 	C 	0.80489 0.28445 0.05111 0.06200
C 	C 	0.83036 0.25918 0.04557 -0.06700
C 	C 	0.81227 0.31615 0.90821 -0.18100
H 	H 	0.76567 0.35718 0.93190 0.04300
C 	C 	0.80276 0.27318 0.10117 -0.18800
H 	H 	0.84793 0.23137 0.07716 0.04400
H 	H 	0.77643 0.03911 0.98922 0.06500
H 	H 	0.74242 0.08127 0.93724 0.06100
H 	H 	0.71127 0.04006 0.99189 0.05300
H 	H 	0.98737 0.32523 0.05443 0.06100
H 	H 	0.97094 0.36038 0.98964 0.05300
H 	H 	0.80303 0.35326 0.88099 0.06200
H 	H 	0.77099 0.26993 0.89631 0.06300
H 	H 	0.86484 0.33387 0.90878 0.06700
H 	H 	0.74914 0.25209 0.10141 0.06900
H 	H 	0.84166 0.32001 0.11210 0.07400
H 	H 	0.81585 0.23876 0.12882 0.06200
C 	C 	0.82357 0.63611 0.08032 -0.09400
C 	C 	0.86227 0.61101 0.11371 0.00600
C 	C 	0.91738 0.64093 0.15189 0.03000
C 	C 	0.93620 0.69836 0.15396 -0.01900
C 	C 	0.90218 0.72705 0.11761 -0.10700
C 	C 	0.84279 0.69379 0.08223 0.10300
C 	C 	0.84870 0.55704 0.10576 -0.00600
C 	C 	0.95917 0.61429 0.18842 -0.18000
H 	H 	0.98023 0.72291 0.18215 0.05300
C 	C 	0.80255 0.72164 0.04471 -0.20800
H 	H 	0.78013 0.61200 0.05173 0.05300
C 	C 	0.79743 0.49166 0.12536 0.03800
C 	C 	0.77689 0.44196 0.11028 -0.04600
C 	C 	0.80337 0.45701 0.07366 -0.04800
C 	C 	0.85973 0.52180 0.05780 0.06900
C 	C 	0.88238 0.57134 0.07441 -0.07800
C 	C 	0.75916 0.47515 0.15816 -0.17800
H 	H 	0.73554 0.39182 0.12383 0.04200
C 	C 	0.89360 0.53879 0.02163 -0.18500
H 	H 	0.92372 0.62153 0.06099 0.05200
H 	H 	0.74952 0.68391 0.02719 0.07000
H 	H 	0.83227 0.76167 0.01619 0.08500
H 	H 	0.79472 0.74082 0.06189 0.08000
H 	H 	0.99048 0.62068 0.17028 0.07600
H 	H 	0.92342 0.56176 0.20495 0.06800
H 	H 	0.99589 0.63965 0.21831 0.07500
H 	H 	0.72905 0.42235 0.17625 0.06000
H 	H 	0.72162 0.48825 0.13641 0.06500
H 	H 	0.79694 0.50206 0.18717 0.06400
H 	H 	0.93798 0.59134 0.01394 0.07100
H 	H 	0.85418 0.52758 0.98676 0.06700
H 	H 	0.91514 0.51064 0.03629 0.07800
C 	C 	0.57196 0.29137 0.99701 -0.06100
C 	C 	0.57263 0.39162 0.95925 -0.18700
H 	H 	0.60464 0.40832 0.93590 0.06800
H 	H 	0.60668 0.42157 0.98619 0.06800
