data_crystal

_cell_length_a 16.48614
_cell_length_b 15.56941
_cell_length_c 37.53187
_cell_angle_alpha 89.88088
_cell_angle_beta  89.88354
_cell_angle_gamma 119.39323

_symmetry_space_group_name_	'P 1'
_symmetry_space_group_name_H-M	'P 1'

loop_
_symmetry_equiv_pos_as_xyz
  x,y,z

loop_
_atom_site_label
_atom_site_type_symbol
_atom_site_fract_x
_atom_site_fract_y
_atom_site_fract_z
_atom_site_charge
Ni	Ni	0.05197 0.95072 0.77347 1.10300
Ni	Ni	0.05527 0.15599 0.75430 1.12400
O 	O 	0.04393 0.18291 0.20970 -0.34800
C 	C 	0.04020 0.22766 0.13380 0.08300
Br	Br	0.00672 0.35188 0.08561 -0.16600
Br	Br	0.05319 0.07023 0.36838 -0.14300
Br	Br	0.03362 0.56864 0.36737 -0.14400
C 	C 	0.05833 0.63197 0.53548 -0.08200
C 	C 	0.07606 0.66210 0.49983 -0.03900
C 	C 	0.09834 0.47848 0.92539 -0.01200
C 	C 	0.12636 0.55520 0.98444 -0.06000
H 	H 	0.11314 0.48539 0.89706 0.08400
Br	Br	0.07013 0.40747 0.76288 -0.17000
Br	Br	0.11632 0.92729 0.87821 -0.18000
C 	C 	0.20886 0.13880 0.79677 0.31700
C 	C 	0.15700 0.08666 0.71131 0.35200
O 	O 	0.14805 0.05034 0.80812 -0.33300
O 	O 	0.18171 0.19659 0.77963 -0.32400
O 	O 	0.15607 0.02214 0.73416 -0.32700
O 	O 	0.08929 0.10598 0.71094 -0.37400
C 	C 	0.17940 0.45129 0.40500 0.34500
C 	C 	0.15773 0.66693 0.48182 0.31400
O 	O 	0.15392 0.58426 0.47135 -0.35600
O 	O 	0.20217 0.53735 0.39339 -0.35500
O 	O 	0.19841 0.44381 0.43866 -0.33100
O 	O 	0.23641 0.76255 0.41185 -0.35700
O 	O 	0.23843 0.74853 0.48400 -0.35500
C 	C 	0.19645 0.65753 0.13054 0.34000
C 	C 	0.22455 0.40917 0.08231 0.33800
C 	C 	0.20091 0.59928 0.01083 0.32300
O 	O 	0.23362 0.69037 0.02285 -0.32800
O 	O 	0.19482 0.65404 0.09605 -0.35800
O 	O 	0.22256 0.47068 0.10524 -0.35600
O 	O 	0.22256 0.54001 0.02657 -0.38800
C 	C 	0.07786 0.14823 0.18557 0.32800
C 	C 	0.07832 0.17599 0.29178 0.28700
C 	C 	0.01115 0.83787 0.20239 0.29700
C 	C 	0.02558 0.86670 0.29532 0.29200
Ni	Ni	0.08489 0.02498 0.24443 1.13700
O 	O 	0.07680 0.90116 0.22356 -0.35200
O 	O 	0.09115 0.07404 0.19367 -0.34000
O 	O 	0.06855 0.96318 0.29227 -0.36400
O 	O 	0.12735 0.15961 0.26719 -0.33100
C 	C 	0.06942 0.28294 0.10207 0.12300
C 	C 	0.15510 0.30408 0.08672 -0.10400
C 	C 	0.18681 0.23757 0.09346 0.11500
C 	C 	0.16608 0.18877 0.12664 0.10400
C 	C 	0.09441 0.18777 0.14829 -0.08100
C 	C 	0.07515 0.80850 0.14682 0.10200
C 	C 	0.03264 0.77325 0.17998 -0.07900
C 	C 	0.03582 0.69227 0.19556 0.07700
C 	C 	0.08931 0.65396 0.17957 0.11800
C 	C 	0.14421 0.70054 0.14912 -0.09900
C 	C 	0.13831 0.78036 0.13331 0.11700
Br	Br	0.04497 0.89382 0.11954 -0.13900
Br	Br	0.08304 0.53526 0.19822 -0.14500
C 	C 	0.18507 0.34106 0.31532 0.10500
C 	C 	0.12740 0.24061 0.32181 -0.07900
C 	C 	0.10008 0.20711 0.35700 0.10000
C 	C 	0.11271 0.27497 0.38417 0.12000
C 	C 	0.17226 0.37672 0.37811 -0.10500
C 	C 	0.21476 0.40778 0.34360 0.12000
Br	Br	0.21876 0.38902 0.26689 -0.12600
Br	Br	0.03488 0.22972 0.42606 -0.13000
C 	C 	0.18584 0.76598 0.35296 -0.10300
C 	C 	0.08971 0.70076 0.34857 0.12400
C 	C 	0.03464 0.73309 0.33048 0.08200
C 	C 	0.07894 0.82198 0.31063 -0.07700
C 	C 	0.17743 0.87724 0.31059 0.10600
H 	H 	0.10871 0.62176 0.55053 0.10200
Br	Br	0.15964 0.94579 0.65152 -0.16100
C 	C 	0.15131 0.55964 0.94802 0.12000
Br	Br	0.26054 0.67171 0.92954 -0.15000
H 	H 	0.01196 0.05650 0.80207 0.14100
C 	C 	0.04590 0.47038 0.99614 -0.03700
Br	Br	0.22252 0.18591 0.05388 -0.12400
H 	H 	0.02381 0.46506 0.02354 0.08600
Br	Br	0.27488 0.97582 0.78565 -0.18600
C 	C 	0.23999 0.74350 0.37829 0.35700
Ni	Ni	0.26666 0.56568 0.47211 1.12600
O 	O 	0.30637 0.72785 0.36656 -0.33600
Ni	Ni	0.31200 0.74040 0.06872 1.13700
O 	O 	0.25778 0.64160 0.14768 -0.32200
O 	O 	0.29354 0.43965 0.05878 -0.34900
Br	Br	0.24282 0.13526 0.14315 -0.10500
Br	Br	0.22331 0.85895 0.09600 -0.20600
C 	C 	0.22692 0.85847 0.33641 0.12300
Br	Br	0.24578 0.97018 0.27324 -0.18000
Br	Br	0.27835 0.73723 0.58790 -0.17200
Br	Br	0.25296 0.28613 0.46642 -0.16500
C 	C 	0.24181 0.08578 0.65599 0.13100
C 	C 	0.23397 0.13712 0.68545 -0.10400
C 	C 	0.30972 0.17431 0.80368 -0.08800
Br	Br	0.30423 0.07582 0.58446 -0.14200
Br	Br	0.07199 0.75258 0.94005 -0.15400
Br	Br	0.34390 0.91616 0.98084 -0.15600
C 	C 	0.39676 0.50527 0.44118 0.30000
C 	C 	0.40228 0.74986 0.51455 0.29700
Ni	Ni	0.34160 0.63253 0.39223 1.13800
Ni	Ni	0.33929 0.78949 0.44660 1.12900
O 	O 	0.42682 0.80927 0.48630 -0.36600
O 	O 	0.32609 0.65970 0.51479 -0.34100
O 	O 	0.37620 0.52344 0.40851 -0.32800
O 	O 	0.37128 0.53341 0.47059 -0.35800
O 	O 	0.33849 0.66821 0.43886 -0.72400
H 	H 	0.40204 0.68567 0.44629 0.17400
Ni	Ni	0.34156 0.59185 0.12158 1.12300
Ni	Ni	0.35227 0.57783 0.03524 1.12800
O 	O 	0.40918 0.69964 0.00113 -0.34400
O 	O 	0.42430 0.82306 0.04025 -0.36100
O 	O 	0.38861 0.81512 0.11354 -0.32000
O 	O 	0.35747 0.65110 0.07609 -0.71600
Br	Br	0.31710 0.53796 0.33423 -0.27000
Br	Br	0.34052 0.96621 0.35463 -0.14700
C 	C 	0.40235 0.82560 0.57241 0.13100
H 	H 	0.41070 0.94989 0.60091 0.08600
C 	C 	0.38439 0.34418 0.45934 0.12800
C 	C 	0.29187 0.24034 0.68706 0.11100
C 	C 	0.37132 0.28618 0.66549 0.10700
C 	C 	0.37921 0.23622 0.63553 -0.09600
C 	C 	0.30919 0.13775 0.62944 0.10600
Br	Br	0.25501 0.32162 0.71338 -0.17400
C 	C 	0.42951 0.13352 0.82262 0.10700
C 	C 	0.34299 0.10546 0.80634 0.12700
C 	C 	0.37172 0.27445 0.81108 0.10900
Br	Br	0.32839 0.36892 0.81536 -0.12300
O 	O 	0.44383 0.86763 0.40907 -0.33400
C 	C 	0.44317 0.79541 0.00978 0.31500
O 	O 	0.42869 0.53077 0.10697 -0.32900
H 	H 	0.42459 0.69726 0.07591 0.17600
Br	Br	0.42503 0.83507 0.30497 -0.12000
C 	C 	0.44854 0.92214 0.58551 -0.01900
C 	C 	0.44845 0.79479 0.54833 -0.06400
H 	H 	0.38841 0.22184 0.48412 0.09200
Br	Br	0.44051 0.30573 0.09202 -0.13700
C 	C 	0.01628 0.39708 0.93829 -0.11000
Br	Br	0.00788 0.07794 0.63373 -0.16800
C 	C 	0.43742 0.43983 0.44494 -0.06400
Br	Br	0.46246 0.03478 0.83571 -0.10400
C 	C 	0.46900 0.27499 0.61639 0.34200
O 	O 	0.50744 0.21932 0.61467 -0.36900
O 	O 	0.47640 0.74481 0.39177 -0.35700
C 	C 	0.48537 0.55471 0.07838 0.30500
C 	C 	0.46041 0.80680 0.12674 0.31100
O 	O 	0.47671 0.60189 0.05095 -0.36800
O 	O 	0.44830 0.72221 0.13937 -0.34500
C 	C 	0.42884 0.29251 0.47096 -0.02400
Br	Br	0.47354 0.40943 0.68078 -0.12600
C 	C 	0.47238 0.94907 0.97986 0.11400
H 	H 	0.48409 0.32287 0.01322 0.08600
C 	C 	0.46453 0.30400 0.81973 0.10900
C 	C 	0.00900 0.38577 0.97513 0.09800
C 	C 	0.49395 0.83652 0.39030 0.32500
Br	Br	0.48441 0.98565 0.17843 -0.11900
C 	C 	0.49754 0.87519 0.98403 -0.05500
C 	C 	0.49888 0.41233 0.05923 0.12700
C 	C 	0.48981 0.23309 0.83052 -0.08200
C 	C 	0.52616 0.33882 0.47150 -0.07100
O 	O 	0.53976 0.32501 0.53431 -0.37100
O 	O 	0.51362 0.36712 0.60440 -0.34600
C 	C 	0.54247 0.98406 0.57705 -0.09000
C 	C 	0.54605 0.84659 0.54813 -0.02400
C 	C 	0.53275 0.47689 0.43856 -0.03100
H 	H 	0.52048 0.10457 0.97677 0.07800
C 	C 	0.52364 0.39512 0.02516 -0.03200
Br	Br	0.04054 0.74690 0.43677 -0.17200
C 	C 	0.54112 0.86704 0.32696 0.10400
C 	C 	0.54110 0.04831 0.97762 -0.01000
C 	C 	0.54287 0.50833 0.07256 -0.06300
Br	Br	0.55636 0.44155 0.81687 -0.16100
C 	C 	0.00935 0.67543 0.48079 0.08400
C 	C 	0.56981 0.32048 0.50260 0.31600
C 	C 	0.56303 0.26071 0.85801 0.32300
O 	O 	0.56549 0.32077 0.88298 -0.35700
C 	C 	0.55372 0.89241 0.13012 -0.09200
C 	C 	0.55943 0.90004 0.36253 -0.08500
C 	C 	0.58189 0.09151 0.57908 0.34500
C 	C 	0.57306 0.94892 0.16118 0.11300
C 	C 	0.59339 0.94304 0.56129 0.12100
H 	H 	0.58391 0.81840 0.53296 0.07900
C 	C 	0.57700 0.42541 0.45117 0.12600
H 	H 	0.57317 0.54737 0.42530 0.08300
O 	O 	0.59336 0.14137 0.54962 -0.35000
Br	Br	0.01525 0.56009 0.80980 -0.16400
Br	Br	0.58148 0.79149 0.26311 -0.14300
C 	C 	0.59003 0.89982 0.97690 -0.01400
C 	C 	0.60800 0.46588 0.00946 -0.05800
O 	O 	0.00514 0.21080 0.79129 -0.37700
H 	H 	0.61042 0.84352 0.97850 0.09500
O 	O 	0.62156 0.13707 0.60876 -0.34900
C 	C 	0.61211 0.86862 0.30613 0.10900
Br	Br	0.62362 0.85193 0.06521 -0.18600
Ni	Ni	0.62548 0.42161 0.57045 1.12600
C 	C 	0.62741 0.88396 0.11457 0.10400
Br	Br	0.62644 0.63756 0.64038 -0.14300
O 	O 	0.63541 0.24387 0.85252 -0.32900
C 	C 	0.63420 0.07453 0.97126 -0.03300
C 	C 	0.63444 0.57051 0.06153 -0.02200
C 	C 	0.64282 0.43678 0.97747 0.30100
O 	O 	0.64270 0.47380 0.94463 -0.32200
O 	O 	0.63977 0.30306 0.49877 -0.32400
Ni	Ni	0.64198 0.27293 0.62389 1.13800
Br	Br	0.65042 0.29172 0.76516 -0.12300
H 	H 	0.65282 0.30083 0.92597 0.18400
C 	C 	0.65216 0.96542 0.37210 0.09800
C 	C 	0.65283 0.96982 0.18131 0.09700
Br	Br	0.65499 0.73377 0.72423 -0.12000
O 	O 	0.65577 0.39202 0.65183 -0.33900
Br	Br	0.65671 0.94880 0.69339 -0.13700
C 	C 	0.65795 0.99845 0.96996 0.09900
C 	C 	0.66907 0.54822 0.03082 0.13200
O 	O 	0.67390 0.37451 0.98251 -0.36600
H 	H 	0.67633 0.63993 0.07506 0.09900
O 	O 	0.67775 0.33927 0.57953 -0.71600
Br	Br	0.67936 0.02547 0.41849 -0.11500
O 	O 	0.67982 0.16190 0.91638 -0.35300
O 	O 	0.99664 0.03190 0.77743 -0.65900
O 	O 	0.99514 0.16323 0.28402 -0.29700
Br	Br	0.97476 0.67954 0.73838 -0.11400
Br	Br	0.96421 0.63172 0.23790 -0.09600
O 	O 	0.94347 0.80978 0.27938 -0.30400
O 	O 	0.92643 0.82720 0.20265 -0.31900
O 	O 	0.95833 0.99137 0.24992 -0.71500
H 	H 	0.95515 0.99606 0.27593 0.16700
C 	C 	0.84874 0.59906 0.92947 0.34900
C 	C 	0.80450 0.42745 0.83498 0.34900
C 	C 	0.93094 0.38011 0.92097 0.36800
C 	C 	0.69081 0.16679 0.95123 0.29200
Ni	Ni	0.68832 0.44407 0.89403 1.12200
Ni	Ni	0.78840 0.39473 0.95760 1.12800
Ni	Ni	0.75026 0.27780 0.88577 1.12700
O 	O 	0.90279 0.44115 0.92893 -0.37700
O 	O 	0.82132 0.55729 0.89899 -0.36000
O 	O 	0.82904 0.54384 0.95838 -0.33100
O 	O 	0.73009 0.43691 0.84033 -0.32100
O 	O 	0.83633 0.40376 0.86181 -0.37900
O 	O 	0.75698 0.24915 0.96756 -0.32900
O 	O 	0.86968 0.29341 0.90850 -0.34800
O 	O 	0.71355 0.35128 0.91638 -0.71500
C 	C 	0.81054 0.49838 0.53182 0.31000
C 	C 	0.80792 0.26271 0.61011 0.33200
C 	C 	0.70550 0.48629 0.64201 0.33400
Ni	Ni	0.70806 0.27932 0.54180 1.12600
O 	O 	0.81551 0.41645 0.52812 -0.33400
O 	O 	0.72856 0.49678 0.53278 -0.35000
O 	O 	0.70559 0.51452 0.60865 -0.35400
O 	O 	0.79334 0.24542 0.57508 -0.31900
O 	O 	0.77814 0.31586 0.62662 -0.34100
H 	H 	0.74040 0.39234 0.58549 0.17100
C 	C 	0.87283 0.80727 0.74130 0.33400
C 	C 	0.92522 0.88501 0.83993 0.31900
C 	C 	0.88864 0.05709 0.70891 0.36800
C 	C 	0.91508 0.18284 0.79115 0.34500
Ni	Ni	0.86348 0.96757 0.78080 1.12400
O 	O 	0.83854 0.97910 0.72903 -0.36800
O 	O 	0.96091 0.86486 0.73407 -0.33300
O 	O 	0.83465 0.82721 0.76858 -0.34000
O 	O 	0.85234 0.08824 0.79653 -0.32800
O 	O 	0.96541 0.85833 0.81465 -0.31600
O 	O 	0.88043 0.93418 0.83178 -0.33500
O 	O 	0.94957 0.14101 0.72349 -0.35100
C 	C 	0.77976 0.94218 0.29165 0.30300
C 	C 	0.78454 0.93558 0.19400 0.31800
Ni	Ni	0.92573 0.08761 0.23885 1.13800
Ni	Ni	0.87100 0.85457 0.24640 1.12900
O 	O 	0.79897 0.00783 0.26584 -0.31400
O 	O 	0.80237 0.87104 0.28885 -0.33500
O 	O 	0.86509 0.01489 0.19269 -0.32000
O 	O 	0.77101 0.86098 0.21491 -0.33000
Br	Br	0.92765 0.20896 0.15666 -0.11000
C 	C 	0.70917 0.92857 0.17085 -0.08500
C 	C 	0.70031 0.89197 0.13613 0.10600
Br	Br	0.78721 0.85307 0.11825 -0.13000
Br	Br	0.69273 0.06781 0.21803 -0.12600
C 	C 	0.70508 0.92697 0.31663 -0.08200
C 	C 	0.72496 0.98334 0.34810 0.09200
Br	Br	0.84765 0.09160 0.35610 -0.10200
Br	Br	0.90138 0.66285 0.33717 -0.08500
Br	Br	0.72589 0.01838 0.55589 -0.15000
C 	C 	0.91973 0.63973 0.49521 0.03500
C 	C 	0.89775 0.59189 0.52839 -0.09200
C 	C 	0.97163 0.60541 0.55057 0.18200
Br	Br	0.94968 0.56762 0.59974 -0.15900
H 	H 	0.86579 0.64162 0.47941 0.08800
Br	Br	0.70552 0.47309 0.43997 -0.15800
C 	C 	0.76547 0.05819 0.67341 0.13300
C 	C 	0.85138 0.06165 0.67392 -0.10200
C 	C 	0.91382 0.11156 0.64582 0.14100
C 	C 	0.90087 0.17908 0.62469 0.10900
C 	C 	0.82496 0.19462 0.63207 -0.08500
C 	C 	0.76013 0.13706 0.65897 0.10700
Br	Br	0.68568 0.18182 0.68415 -0.19800
Br	Br	0.99085 0.25594 0.58856 -0.10100
C 	C 	0.81628 0.57144 0.69224 0.11200
C 	C 	0.74369 0.56278 0.67002 -0.08500
C 	C 	0.70729 0.62731 0.67514 0.11700
C 	C 	0.73689 0.69149 0.70434 0.10800
C 	C 	0.82023 0.71320 0.72170 -0.08700
C 	C 	0.85993 0.65202 0.71566 0.11100
Br	Br	0.85416 0.47241 0.69161 -0.12000
Br	Br	0.94007 0.25821 0.99628 -0.10600
Br	Br	0.78012 0.02598 0.95563 -0.10400
Br	Br	0.80131 0.61448 0.02520 -0.14700
C 	C 	0.78773 0.23316 0.78394 0.09200
C 	C 	0.88373 0.25951 0.78626 -0.09400
C 	C 	0.94999 0.36167 0.78482 0.12800
C 	C 	0.92226 0.43168 0.79387 0.13400
C 	C 	0.82705 0.40040 0.80003 -0.10500
C 	C 	0.76304 0.30834 0.78615 0.10500
Br	Br	0.69111 0.09947 0.77587 -0.11800
C 	C 	0.81529 0.73592 0.92408 0.10200
C 	C 	0.88120 0.70572 0.93136 -0.09300
C 	C 	0.97308 0.76943 0.92051 0.13400
C 	C 	0.99044 0.83770 0.89261 0.12600
C 	C 	0.91488 0.84234 0.87651 -0.08400
C 	C 	0.82713 0.79486 0.89393 0.10500
Br	Br	0.72106 0.80101 0.87529 -0.15100
Br	Br	0.71149 0.69947 0.95545 -0.15700
