data_crystal

_cell_length_a 19.64887
_cell_length_b 21.14909
_cell_length_c 43.29909
_cell_angle_alpha 60.63489
_cell_angle_beta  119.04699
_cell_angle_gamma 133.34348

_symmetry_space_group_name_	'P 1'
_symmetry_space_group_name_H-M	'P 1'

loop_
_symmetry_equiv_pos_as_xyz
  x,y,z

loop_
_atom_site_label
_atom_site_type_symbol
_atom_site_fract_x
_atom_site_fract_y
_atom_site_fract_z
_atom_site_charge
C 	C 	0.25887 0.61008 0.16055 0.14100
N 	N 	0.21524 0.52546 0.15959 -0.13900
C 	C 	0.26460 0.50810 0.15501 0.14200
N 	N 	0.35635 0.57429 0.15168 -0.14300
C 	C 	0.39892 0.65848 0.15161 0.14600
N 	N 	0.35008 0.67664 0.15570 -0.13700
C 	C 	0.24742 0.61171 0.65582 0.13900
N 	N 	0.33847 0.67947 0.65093 -0.13400
C 	C 	0.38700 0.66388 0.64501 0.14900
N 	N 	0.34506 0.58087 0.64394 -0.13600
C 	C 	0.25445 0.51305 0.64825 0.14400
N 	N 	0.20476 0.52791 0.65419 -0.14200
Co	Co	0.03936 0.10032 0.07373 1.17500
Co	Co	0.10998 0.04126 0.04350 1.17100
Co	Co	0.11122 0.89320 0.03743 1.17700
C 	C 	0.28567 0.04540 0.06872 0.27000
O 	O 	0.12670 0.14687 0.04419 -0.46700
C 	C 	0.12305 0.18506 0.13523 0.32000
C 	C 	0.07818 0.76635 0.11030 0.32300
O 	O 	0.06376 0.77190 0.07652 -0.40400
O 	O 	0.06360 0.80966 0.11747 -0.39500
O 	O 	0.05226 0.11662 0.15149 -0.41900
O 	O 	0.14298 0.17507 0.11324 -0.39300
O 	O 	0.05835 0.93107 0.05220 -0.74500
O 	O 	0.24015 0.95943 0.07344 -0.35100
O 	O 	0.24721 0.07337 0.07226 -0.38900
Co	Co	0.03576 0.10138 0.57145 1.17500
Co	Co	0.09756 0.03237 0.54202 1.16700
Co	Co	0.08557 0.87641 0.53582 1.17500
C 	C 	0.26624 0.02447 0.56787 0.25800
O 	O 	0.12055 0.14196 0.54222 -0.47000
C 	C 	0.12560 0.19312 0.63138 0.32100
C 	C 	0.05236 0.75241 0.60885 0.32400
O 	O 	0.96684 0.91255 0.66483 -0.38200
O 	O 	0.03394 0.75521 0.57503 -0.40600
O 	O 	0.04440 0.80073 0.61596 -0.39500
O 	O 	0.05653 0.12562 0.64842 -0.41200
O 	O 	0.14287 0.18153 0.60904 -0.39300
O 	O 	0.04015 0.92097 0.55056 -0.74900
O 	O 	0.21472 0.93760 0.57245 -0.34800
O 	O 	0.23330 0.05953 0.57012 -0.39600
C 	C 	0.97554 0.92087 0.72113 -0.13500
C 	C 	0.01659 0.95352 0.78602 0.14900
C 	C 	0.03046 0.97764 0.81586 -0.07400
C 	C 	0.04210 0.99783 0.84076 0.08500
C 	C 	0.05565 0.02144 0.87069 -0.08500
C 	C 	0.03050 0.98452 0.34068 0.06400
C 	C 	0.01966 0.96369 0.31617 -0.03500
C 	C 	0.00520 0.93829 0.28662 0.03600
C 	C 	0.20934 0.42581 0.64393 -0.04600
C 	C 	0.22065 0.36311 0.67462 -0.09200
C 	C 	0.20814 0.29360 0.67061 0.18400
C 	C 	0.17888 0.28311 0.63557 -0.12400
C 	C 	0.17203 0.34820 0.60492 -0.04000
C 	C 	0.18414 0.41761 0.60891 0.14400
H 	H 	0.24373 0.37073 0.70170 0.06700
O 	O 	0.21943 0.23288 0.70103 -0.29500
H 	H 	0.15225 0.34231 0.57788 0.07300
O 	O 	0.17683 0.48055 0.57859 -0.26500
H 	H 	0.10960 0.45946 0.57262 0.15500
H 	H 	0.28785 0.25737 0.70677 0.15000
O 	O 	0.43462 0.83207 0.59349 -0.27300
H 	H 	0.45543 0.87205 0.60673 0.14800
C 	C 	0.19132 0.63220 0.65829 -0.03800
C 	C 	0.09031 0.57806 0.64735 -0.08800
C 	C 	0.03936 0.61119 0.63854 0.17400
C 	C 	0.08973 0.70091 0.63808 -0.11500
C 	C 	0.18749 0.74770 0.65575 -0.04300
C 	C 	0.23865 0.71361 0.66606 0.14100
H 	H 	0.05156 0.51247 0.64378 0.06900
H 	H 	0.22595 0.81428 0.65824 0.06900
O 	O 	0.33394 0.75904 0.68404 -0.27000
H 	H 	0.36975 0.80818 0.66481 0.15400
C 	C 	0.21709 0.42075 0.15004 -0.04300
C 	C 	0.22700 0.35667 0.18027 -0.09400
C 	C 	0.20737 0.28413 0.17550 0.18300
C 	C 	0.17626 0.27431 0.14015 -0.12200
C 	C 	0.17027 0.34047 0.10991 -0.04300
C 	C 	0.18863 0.41238 0.11469 0.13800
H 	H 	0.25327 0.36473 0.20754 0.06900
O 	O 	0.21951 0.22320 0.20547 -0.28900
H 	H 	0.14688 0.33394 0.08260 0.05600
O 	O 	0.17857 0.47448 0.08474 -0.27900
H 	H 	0.24208 0.52060 0.07837 0.15500
H 	H 	0.15873 0.17967 0.21371 0.14400
O 	O 	0.56775 0.66438 0.19383 -0.27600
H 	H 	0.53919 0.60825 0.18898 0.15400
C 	C 	0.20329 0.63276 0.16177 -0.03800
C 	C 	0.10315 0.58358 0.14780 -0.08800
C 	C 	0.05509 0.62049 0.13767 0.17600
C 	C 	0.10795 0.70891 0.13966 -0.11600
C 	C 	0.20337 0.74984 0.16019 -0.04300
C 	C 	0.25150 0.71222 0.17127 0.14100
H 	H 	0.06341 0.51955 0.14254 0.07300
O 	O 	0.95856 0.57461 0.12159 -0.28500
H 	H 	0.24318 0.81514 0.16432 0.06800
O 	O 	0.34479 0.75253 0.19154 -0.26900
H 	H 	0.38508 0.80253 0.17371 0.15800
H 	H 	0.92618 0.54001 0.14186 0.15000
C 	C 	0.52164 0.20900 0.52869 -0.05200
C 	C 	0.45249 0.12392 0.52168 -0.07600
C 	C 	0.37219 0.06060 0.53668 0.13200
C 	C 	0.35871 0.08362 0.55789 -0.10000
C 	C 	0.43100 0.16673 0.56677 -0.05600
C 	C 	0.51319 0.22867 0.55292 0.14500
H 	H 	0.45982 0.10744 0.50390 0.06100
O 	O 	0.30459 0.97791 0.52908 -0.26600
H 	H 	0.42322 0.18367 0.58421 0.06600
O 	O 	0.58455 0.30886 0.56264 -0.26600
H 	H 	0.62883 0.29772 0.58485 0.15500
H 	H 	0.32618 0.94011 0.54841 0.15500
C 	C 	0.50733 0.21091 0.01239 -0.05700
C 	C 	0.43592 0.22364 0.99982 -0.07900
C 	C 	0.37127 0.17799 0.02078 0.17800
C 	C 	0.36928 0.11037 0.05246 -0.11400
C 	C 	0.43716 0.09384 0.06410 -0.05400
C 	C 	0.50614 0.14376 0.04434 0.14100
H 	H 	0.43515 0.27405 0.97498 0.06900
O 	O 	0.30791 0.19759 0.00959 -0.30200
H 	H 	0.43584 0.04151 0.08835 0.05000
O 	O 	0.57529 0.13009 0.05738 -0.28300
H 	H 	0.54771 0.08300 0.04641 0.13700
H 	H 	0.34175 0.24615 0.02103 0.15600
C 	C 	0.73787 0.33051 0.99190 0.13500
N 	N 	0.64699 0.26325 0.99718 -0.13800
C 	C 	0.59456 0.28228 0.99802 0.14600
N 	N 	0.63105 0.36856 0.99168 -0.14400
C 	C 	0.72346 0.43513 0.98924 0.14100
N 	N 	0.77653 0.41666 0.98839 -0.12300
C 	C 	0.73134 0.32270 0.49525 0.13800
N 	N 	0.76951 0.41036 0.48878 -0.14000
C 	C 	0.72084 0.43094 0.49163 0.14500
N 	N 	0.63326 0.36435 0.49934 -0.12900
C 	C 	0.60093 0.27787 0.51002 0.14600
N 	N 	0.64907 0.25685 0.50740 -0.14300
C 	C 	0.73208 0.89482 0.09574 0.32100
O 	O 	0.78020 0.98227 0.08827 -0.37200
O 	O 	0.76677 0.85862 0.09566 -0.37000
C 	C 	0.87506 0.75275 0.51631 0.31400
C 	C 	0.73189 0.90246 0.59681 0.31500
O 	O 	0.77974 0.99002 0.58875 -0.37400
O 	O 	0.76349 0.86600 0.59477 -0.35900
O 	O 	0.85838 0.75673 0.54167 -0.37000
C 	C 	0.64560 0.84433 0.61068 -0.11400
C 	C 	0.58167 0.86712 0.59605 -0.04100
C 	C 	0.50072 0.81334 0.60991 0.14400
C 	C 	0.48387 0.73653 0.63874 -0.04200
C 	C 	0.55261 0.71898 0.65543 -0.08800
C 	C 	0.63125 0.77033 0.64083 0.18800
H 	H 	0.59340 0.92519 0.57335 0.07000
H 	H 	0.54095 0.66092 0.67815 0.07300
O 	O 	0.69131 0.74542 0.65489 -0.28500
H 	H 	0.73777 0.77162 0.67619 0.15100
C 	C 	0.64753 0.83678 0.11055 -0.11900
C 	C 	0.64478 0.77468 0.14434 -0.04000
C 	C 	0.56812 0.72301 0.16022 0.14300
C 	C 	0.49176 0.73121 0.14179 -0.04100
C 	C 	0.49715 0.79697 0.10902 -0.08900
C 	C 	0.57490 0.84998 0.09340 0.18700
H 	H 	0.70255 0.76683 0.15844 0.06100
H 	H 	0.43849 0.80359 0.09465 0.07400
O 	O 	0.57693 0.91090 0.06039 -0.28000
H 	H 	0.60949 0.96711 0.06632 0.16000
C 	C 	0.78555 0.29872 0.49415 -0.03600
C 	C 	0.88671 0.35534 0.50258 -0.09700
C 	C 	0.93818 0.32213 0.51228 0.19900
C 	C 	0.88871 0.23076 0.51584 -0.12400
C 	C 	0.73727 0.21291 0.49030 0.13500
H 	H 	0.92544 0.42339 0.50346 0.07800
O 	O 	0.63995 0.16247 0.47556 -0.27600
H 	H 	0.05493 0.40305 0.49738 0.15600
C 	C 	0.77222 0.51830 0.49740 -0.04300
C 	C 	0.76932 0.58660 0.46770 -0.08600
C 	C 	0.79357 0.66030 0.47348 0.18400
C 	C 	0.82051 0.66572 0.50927 -0.11300
C 	C 	0.81881 0.59525 0.53871 -0.04200
C 	C 	0.80028 0.52458 0.53307 0.15200
H 	H 	0.74564 0.58136 0.44011 0.07200
O 	O 	0.79399 0.72837 0.44423 -0.28500
H 	H 	0.83739 0.59793 0.56622 0.08100
O 	O 	0.80449 0.45874 0.56245 -0.27100
H 	H 	0.72835 0.71188 0.43723 0.15500
C 	C 	0.79792 0.30795 0.99465 -0.02800
C 	C 	0.75280 0.22814 0.98655 -0.09500
C 	C 	0.80220 0.19081 0.99953 0.18900
C 	C 	0.89829 0.23485 0.01963 -0.12600
C 	C 	0.89785 0.35758 0.01054 0.13000
H 	H 	0.67762 0.19200 0.97230 0.07200
O 	O 	0.75509 0.10942 0.99392 -0.28500
H 	H 	0.72337 0.06380 0.01450 0.14800
C 	C 	0.84045 0.67797 0.00742 -0.11500
C 	C 	0.84886 0.68023 0.97629 -0.03800
C 	C 	0.81456 0.60163 0.97094 0.13900
C 	C 	0.77077 0.51974 0.99657 -0.03100
C 	C 	0.75802 0.51667 0.02664 -0.09300
C 	C 	0.79008 0.59464 0.03159 0.19300
H 	H 	0.88443 0.74346 0.95673 0.06600
O 	O 	0.82510 0.60532 0.94089 -0.26700
H 	H 	0.76622 0.59626 0.92170 0.14900
C 	C 	0.11304 0.04076 0.97449 0.31500
O 	O 	0.16396 0.00965 0.99661 -0.42000
O 	O 	0.08509 0.06309 0.98744 -0.38400
C 	C 	0.09730 0.02858 0.47321 0.25700
O 	O 	0.14383 0.99311 0.49555 -0.34400
O 	O 	0.07146 0.05312 0.48600 -0.38600
C 	C 	0.06587 0.99548 0.73323 0.16800
C 	C 	0.08574 0.01251 0.76525 -0.22200
C 	C 	0.08818 0.05075 0.93499 -0.12800
H 	H 	0.11791 0.04373 0.71652 -0.01300
C 	C 	0.07345 0.03933 0.43369 -0.11300
C 	C 	0.78914 0.17914 0.50142 -0.04300
H 	H 	0.75084 0.11025 0.50172 0.05200
H 	H 	0.60982 0.11906 0.49666 0.14300
H 	H 	0.72084 0.45304 0.04578 0.07700
H 	H 	0.15329 0.07315 0.77308 0.08900
C 	C 	0.16290 0.10597 0.91714 0.01300
H 	H 	0.23507 0.15614 0.92940 0.04000
C 	C 	0.14679 0.09113 0.88524 -0.03300
H 	H 	0.20616 0.13146 0.87277 0.03700
H 	H 	0.22089 0.14394 0.42874 0.03900
C 	C 	0.14888 0.09403 0.41629 0.00500
H 	H 	0.19370 0.11852 0.37264 0.03800
C 	C 	0.13375 0.07870 0.38471 -0.03200
C 	C 	0.07800 0.99212 0.26807 -0.02200
H 	H 	0.14809 0.04919 0.27744 0.01800
C 	C 	0.05876 0.97529 0.23609 0.04900
H 	H 	0.11360 0.02078 0.22075 0.01000
O 	O 	0.76794 0.58853 0.05895 -0.28100
C 	C 	0.90098 0.76253 0.01812 0.31200
H 	H 	0.87132 0.47850 0.56876 0.15600
O 	O 	0.87966 0.76662 0.04183 -0.36200
C 	C 	0.04289 0.00906 0.37004 -0.07900
H 	H 	0.89449 0.90675 0.37396 0.04700
H 	H 	0.91671 0.52755 0.64912 0.15400
O 	O 	0.94107 0.55891 0.62686 -0.28300
C 	C 	0.93755 0.92544 0.68164 0.32500
C 	C 	0.93095 0.87387 0.77619 -0.11000
C 	C 	0.91082 0.85732 0.74404 0.06600
C 	C 	0.91589 0.86308 0.27480 -0.05300
H 	H 	0.85981 0.81975 0.28938 0.05900
C 	C 	0.89665 0.84645 0.24284 0.02000
O 	O 	0.03677 0.37750 0.52063 -0.30100
H 	H 	0.82508 0.79183 0.23263 0.04100
H 	H 	0.87808 0.82655 0.79254 0.07000
H 	H 	0.84186 0.79829 0.73563 0.02000
H 	H 	0.92138 0.93296 0.42983 0.05200
C 	C 	0.96545 0.95967 0.38543 0.01600
C 	C 	0.98049 0.97533 0.41693 0.04800
C 	C 	0.97905 0.97115 0.88671 0.01300
H 	H 	0.90797 0.91801 0.87541 0.04100
C 	C 	0.99507 0.98623 0.91856 0.05300
H 	H 	0.93666 0.94310 0.93191 0.04400
C 	C 	0.93271 0.91394 0.18232 0.30800
O 	O 	0.96780 0.90655 0.16577 -0.37900
O 	O 	0.88021 0.95040 0.66269 -0.39800
C 	C 	0.96596 0.90578 0.22201 -0.08200
O 	O 	0.87458 0.93787 0.16295 -0.39400
Co	Co	0.97718 0.85138 0.07762 1.19300
Co	Co	0.91204 0.91041 0.11018 1.19600
Co	Co	0.91400 0.05324 0.12085 1.15700
O 	O 	0.95454 0.01896 0.09802 -0.77900
O 	O 	0.89482 0.80510 0.10914 -0.45600
O 	O 	0.98459 0.97279 0.06556 -0.55000
C 	C 	0.93540 0.18201 0.04691 0.32100
O 	O 	0.95280 0.17392 0.08150 -0.41000
O 	O 	0.96445 0.15581 0.03671 -0.37700
O 	O 	0.97628 0.83253 0.00407 -0.38500
Co	Co	0.96012 0.84478 0.57639 1.19300
Co	Co	0.90708 0.91359 0.60947 1.19600
Co	Co	0.91693 0.06279 0.61916 1.15700
O 	O 	0.95232 0.02320 0.59653 -0.77800
O 	O 	0.88311 0.80434 0.60876 -0.45300
O 	O 	0.97539 0.97051 0.56434 -0.55200
C 	C 	0.93332 0.18482 0.54370 0.32300
O 	O 	0.95405 0.18105 0.57806 -0.40300
O 	O 	0.96174 0.15731 0.53393 -0.38400
O 	O 	0.95044 0.82127 0.50221 -0.37600
C 	C 	0.94785 0.32189 0.02185 -0.01900
H 	H 	0.02339 0.35842 0.03557 0.05500
O 	O 	0.94625 0.43949 0.01599 -0.25700
H 	H 	0.94449 0.42651 0.04104 0.15700
H 	H 	0.82150 0.59386 0.08059 0.16400
