data_crystal

_cell_length_a 18.08524
_cell_length_b 17.53942
_cell_length_c 46.48068
_cell_angle_alpha 89.63393
_cell_angle_beta  89.63922
_cell_angle_gamma 119.40378

_symmetry_space_group_name_	'P 1'
_symmetry_space_group_name_H-M	'P 1'

loop_
_symmetry_equiv_pos_as_xyz
  x,y,z

loop_
_atom_site_label
_atom_site_type_symbol
_atom_site_fract_x
_atom_site_fract_y
_atom_site_fract_z
_atom_site_charge
C 	C 	0.99732 0.81025 0.68921 0.33500
C 	C 	0.00219 0.88327 0.76924 0.26400
H 	H 	0.99859 0.23687 0.16417 0.06900
C 	C 	0.01759 0.87565 0.79983 -0.10400
H 	H 	0.02557 0.75761 0.79477 0.04100
C 	C 	0.02073 0.80180 0.80988 0.06200
C 	C 	0.02481 0.53514 0.92159 -0.10700
C 	C 	0.03120 0.52646 0.88931 0.74600
Ni	Ni	0.97715 0.07077 0.69979 1.13000
O 	O 	0.99185 0.98148 0.71747 -0.71000
H 	H 	0.99431 0.00028 0.73750 0.15600
C 	C 	0.01445 0.10333 0.18753 0.27500
Ni	Ni	0.02105 0.97146 0.22568 1.10000
O 	O 	0.99659 0.86003 0.24736 -0.37000
C 	C 	0.02071 0.20595 0.14887 -0.02000
H 	H 	0.00012 0.25213 0.05954 0.07700
C 	C 	0.97072 0.60121 0.11031 -0.01100
H 	H 	0.17716 0.80320 0.36812 0.06100
C 	C 	0.06730 0.60578 0.44092 0.00600
C 	C 	0.05695 0.66608 0.64603 -0.08200
C 	C 	0.01623 0.55251 0.98180 -0.13700
C 	C 	0.01056 0.56025 0.01402 0.77000
H 	H 	0.05666 0.76841 0.90097 0.05600
C 	C 	0.06451 0.70831 0.32701 0.04300
H 	H 	0.01132 0.99098 0.81212 0.01000
F 	F 	0.04342 0.64731 0.02112 -0.45900
O 	O 	0.06260 0.88878 0.68526 -0.39700
O 	O 	0.03198 0.06484 0.66235 -0.39400
O 	O 	0.06211 0.89653 0.74984 -0.36200
O 	O 	0.08720 0.16281 0.25019 -0.37300
C 	C 	0.04370 0.24073 0.12103 -0.04200
C 	C 	0.03003 0.13417 0.15731 -0.06200
H 	H 	0.04000 0.29870 0.11527 0.05200
C 	C 	0.99275 0.65924 0.13335 0.04900
H 	H 	0.01673 0.55330 0.07618 0.11500
C 	C 	0.11406 0.68077 0.34534 0.04300
C 	C 	0.17208 0.73962 0.36506 -0.04400
C 	C 	0.07210 0.64228 0.49144 -0.13100
H 	H 	0.09978 0.60623 0.42124 0.07500
F 	F 	0.07096 0.71454 0.53485 -0.45600
C 	C 	0.06403 0.73685 0.66191 0.01100
C 	C 	0.01258 0.93303 0.81965 0.06200
O 	O 	0.06481 0.07865 0.19963 -0.37000
C 	C 	0.05810 0.09447 0.13708 0.01400
C 	C 	0.06777 0.27869 0.05630 -0.04300
H 	H 	0.07837 0.37865 0.02684 0.08700
C 	C 	0.03423 0.59938 0.09353 -0.00800
H 	H 	0.08745 0.12826 0.31772 0.03000
C 	C 	0.10839 0.59850 0.34160 -0.03300
H 	H 	0.06310 0.55204 0.32670 0.06700
C 	C 	0.07311 0.70944 0.29697 -0.05500
C 	C 	0.03831 0.74908 0.27972 -0.01500
C 	C 	0.11380 0.63467 0.46649 0.04200
H 	H 	0.04503 0.02164 0.60745 0.04200
H 	H 	0.11367 0.66723 0.63780 0.07800
C 	C 	0.09739 0.59474 0.93695 0.03800
C 	C 	0.09450 0.60084 0.96704 0.01900
F 	F 	0.11475 0.55991 0.88042 -0.43500
F 	F 	0.05603 0.52595 0.02738 -0.46700
Ni	Ni	0.09794 0.98706 0.71545 1.10600
C 	C 	0.12723 0.12426 0.26202 0.28600
O 	O 	0.11719 0.04870 0.25228 -0.37200
C 	C 	0.08037 0.12880 0.10910 -0.04900
C 	C 	0.07537 0.20351 0.10114 0.02500
H 	H 	0.06371 0.03777 0.14313 0.04100
C 	C 	0.22631 0.71828 0.37993 0.01800
H 	H 	0.27237 0.76531 0.39451 0.04300
H 	H 	0.04610 0.74987 0.25657 0.03800
C 	C 	0.12151 0.69591 0.51701 0.78700
H 	H 	0.12634 0.79147 0.66624 0.04800
C 	C 	0.11152 0.08351 0.65987 0.31000
O 	O 	0.09088 0.16650 0.71531 -0.37700
C 	C 	0.11260 0.24923 0.07346 0.03000
C 	C 	0.11204 0.34986 0.03750 0.02600
C 	C 	0.07847 0.71269 0.14025 -0.08700
C 	C 	0.15468 0.16782 0.31305 0.01400
C 	C 	0.22314 0.63772 0.37538 -0.07900
C 	C 	0.16258 0.57692 0.35671 0.02800
F 	F 	0.15141 0.64985 0.53284 -0.43600
C 	C 	0.10915 0.07614 0.60631 0.02600
H 	H 	0.11052 0.08169 0.56007 0.06300
H 	H 	0.15723 0.63375 0.92569 0.10400
H 	H 	0.10933 0.68230 0.28704 0.04800
C 	C 	0.12778 0.15912 0.73907 0.28400
O 	O 	0.14373 0.09348 0.74269 -0.36600
C 	C 	0.19459 0.63161 0.46829 0.26400
O 	O 	0.19517 0.56254 0.45731 -0.35700
H 	H 	0.10359 0.09876 0.09386 0.06700
C 	C 	0.12004 0.65720 0.09924 -0.05800
H 	H 	0.09594 0.75752 0.15810 0.04700
C 	C 	0.18638 0.16805 0.28546 -0.08100
H 	H 	0.15955 0.51450 0.35308 0.04400
F 	F 	0.18882 0.77488 0.50780 -0.40000
C 	C 	0.14659 0.10962 0.57942 -0.05500
H 	H 	0.10979 0.16315 0.79669 0.03300
H 	H 	0.18298 0.22443 0.35511 0.05200
O 	O 	0.15373 0.07990 0.68236 -0.36500
C 	C 	0.17505 0.64005 0.98311 0.31800
O 	O 	0.18027 0.67790 0.05175 -0.31200
C 	C 	0.14185 0.71188 0.12322 0.01700
C 	C 	0.15456 0.11244 0.63165 -0.08200
C 	C 	0.99070 0.73669 0.67223 -0.06300
O 	O 	0.20942 0.72168 0.99203 -0.32300
C 	C 	0.18663 0.66506 0.07922 0.30700
C 	C 	0.20100 0.39188 0.03601 -0.06500
C 	C 	0.20898 0.22165 0.33432 -0.05700
C 	C 	0.16210 0.22253 0.78774 0.02000
C 	C 	0.29016 0.62308 0.38734 0.27600
O 	O 	0.26985 0.55273 0.40376 -0.36900
O 	O 	0.25449 0.68332 0.48638 -0.26700
C 	C 	0.19889 0.27981 0.06737 -0.04200
C 	C 	0.17160 0.23509 0.75784 -0.07700
C 	C 	0.24795 0.48750 0.03315 0.31400
O 	O 	0.24509 0.53320 0.05487 -0.36000
O 	O 	0.21494 0.59502 0.98560 -0.35200
H 	H 	0.20790 0.75615 0.12802 0.03900
C 	C 	0.23066 0.17824 0.57753 0.03400
C 	C 	0.27376 0.21762 0.27982 0.02300
C 	C 	0.24249 0.34985 0.04810 0.02800
Ni	Ni	0.30089 0.55839 0.44650 1.11900
H 	H 	0.23379 0.25496 0.07943 0.08400
H 	H 	0.23787 0.07982 0.53339 0.09000
C 	C 	0.23884 0.18061 0.62979 0.02600
C 	C 	0.22493 0.28165 0.80597 -0.05300
H 	H 	0.22065 0.26707 0.82881 0.06100
C 	C 	0.00988 0.78049 0.83924 -0.12900
H 	H 	0.33143 0.69432 0.43373 0.13500
Ni	Ni	0.28003 0.76792 0.02821 1.13100
O 	O 	0.25811 0.67502 0.08955 -0.36900
C 	C 	0.29570 0.27592 0.32821 0.02800
H 	H 	0.29885 0.21728 0.25862 0.04400
C 	C 	0.27279 0.20904 0.54909 0.03000
C 	C 	0.23769 0.31383 0.74662 0.02000
C 	C 	0.27748 0.14968 0.53002 -0.04400
H 	H 	0.24447 0.32535 0.72358 0.04600
O 	O 	0.37043 0.68323 0.38252 -0.36500
O 	O 	0.32576 0.54543 0.48805 -0.33700
F 	F 	0.33303 0.50856 0.55324 -0.44300
C 	C 	0.27686 0.21308 0.60288 -0.05200
H 	H 	0.27451 0.20932 0.64915 0.04700
C 	C 	0.00296 0.91249 0.84908 -0.16400
O 	O 	0.30409 0.52516 0.01214 -0.35900
C 	C 	0.32842 0.27115 0.30119 -0.05500
F 	F 	0.31192 0.92910 0.47286 -0.42100
C 	C 	0.32035 0.29912 0.54294 -0.05700
H 	H 	0.31357 0.34573 0.55628 0.10300
H 	H 	0.32674 0.25883 0.38442 0.06600
H 	H 	0.91400 0.74565 0.11311 0.07700
C 	C 	0.92777 0.67209 0.14810 0.02700
C 	C 	0.90191 0.72822 0.13573 -0.05100
C 	C 	0.99531 0.78921 0.29232 -0.04700
H 	H 	0.92541 0.60137 0.18661 0.06000
C 	C 	0.90828 0.64700 0.17707 -0.05300
C 	C 	0.79211 0.57108 0.92746 0.27800
C 	C 	0.59649 0.18804 0.95536 0.28600
C 	C 	0.86581 0.42801 0.92173 0.32700
C 	C 	0.56734 0.39949 0.97656 0.28300
C 	C 	0.62315 0.22618 0.88331 0.28500
C 	C 	0.55216 0.40509 0.87308 0.30600
Ni	Ni	0.71910 0.38395 0.95771 1.12200
Ni	Ni	0.53986 0.29480 0.92283 1.12600
Ni	Ni	0.71915 0.41783 0.88916 1.12700
O 	O 	0.79138 0.52271 0.95049 -0.33400
O 	O 	0.74558 0.53607 0.90400 -0.36500
O 	O 	0.55358 0.23153 0.88858 -0.36900
O 	O 	0.66658 0.24990 0.96684 -0.26600
O 	O 	0.53346 0.20264 0.95046 -0.34300
O 	O 	0.61854 0.39809 0.86477 -0.38100
O 	O 	0.80691 0.36330 0.93607 -0.34500
O 	O 	0.84319 0.45958 0.90016 -0.32000
O 	O 	0.51583 0.37446 0.89830 -0.37700
O 	O 	0.63033 0.38774 0.98539 -0.29500
O 	O 	0.51090 0.34589 0.95775 -0.31500
O 	O 	0.69888 0.29707 0.88149 -0.35500
O 	O 	0.65707 0.37880 0.92525 -0.71800
H 	H 	0.64580 0.42687 0.92954 0.15300
C 	C 	0.80470 0.36632 0.55885 0.28400
C 	C 	0.48961 0.29356 0.50229 0.29800
C 	C 	0.62817 0.15041 0.53557 0.32800
C 	C 	0.64270 0.50103 0.52395 0.28400
C 	C 	0.64180 0.24806 0.44890 0.31500
C 	C 	0.85383 0.47176 0.47368 0.28400
Ni	Ni	0.62718 0.32269 0.54269 1.11500
Ni	Ni	0.66528 0.40592 0.47722 1.14600
Ni	Ni	0.75226 0.29355 0.49901 1.12300
O 	O 	0.74036 0.38016 0.56509 -0.36000
O 	O 	0.79662 0.30523 0.54024 -0.36500
O 	O 	0.61947 0.30857 0.44881 -0.32000
O 	O 	0.52032 0.25389 0.51812 -0.36300
O 	O 	0.54090 0.36620 0.48794 -0.34600
O 	O 	0.85591 0.40494 0.48657 -0.34900
O 	O 	0.62442 0.20552 0.55380 -0.36500
O 	O 	0.65332 0.17473 0.50897 -0.38700
O 	O 	0.78489 0.46136 0.45996 -0.26700
O 	O 	0.61240 0.43550 0.54318 -0.35700
O 	O 	0.69676 0.50667 0.50393 -0.30800
O 	O 	0.71775 0.26617 0.45759 -0.32500
O 	O 	0.69334 0.35447 0.50869 -0.71600
H 	H 	0.74238 0.40839 0.51557 0.15200
C 	C 	0.84677 0.92567 0.66652 0.30800
C 	C 	0.84864 0.99888 0.74625 0.27700
Ni	Ni	0.89179 0.87027 0.72022 1.12300
O 	O 	0.85616 0.86316 0.67886 -0.38000
O 	O 	0.94436 0.79418 0.71081 -0.37500
O 	O 	0.91130 0.07207 0.73472 -0.36800
O 	O 	0.81878 0.92253 0.73299 -0.37400
O 	O 	0.92381 0.86203 0.76138 -0.35000
O 	O 	0.86502 0.99771 0.68046 -0.38000
C 	C 	0.56860 0.83278 0.46360 0.29300
C 	C 	0.42750 0.54717 0.41072 0.31700
C 	C 	0.42748 0.88461 0.43255 0.28400
C 	C 	0.39559 0.60443 0.50072 0.30200
Ni	Ni	0.46038 0.73232 0.41497 1.11300
Ni	Ni	0.38083 0.75025 0.47696 1.14800
O 	O 	0.40667 0.68262 0.50621 -0.30600
O 	O 	0.55015 0.76682 0.44672 -0.34900
O 	O 	0.50779 0.84189 0.47606 -0.32700
O 	O 	0.48226 0.62924 0.40530 -0.34600
O 	O 	0.38857 0.52446 0.43562 -0.38400
O 	O 	0.46751 0.85613 0.41518 -0.36700
O 	O 	0.36502 0.83057 0.44962 -0.30700
O 	O 	0.37302 0.68276 0.44339 -0.70700
C 	C 	0.47380 0.63602 0.02569 0.30100
C 	C 	0.41335 0.84682 0.07512 0.28500
C 	C 	0.41115 0.83997 0.98250 0.27500
Ni	Ni	0.34415 0.65474 0.06540 1.11800
Ni	Ni	0.33785 0.64648 0.99532 1.12900
O 	O 	0.43732 0.62338 0.05164 -0.35300
O 	O 	0.45771 0.67740 0.00490 -0.31700
O 	O 	0.37741 0.75930 0.97157 -0.29200
O 	O 	0.37239 0.85892 0.00333 -0.34200
O 	O 	0.43050 0.78147 0.07694 -0.35500
O 	O 	0.33926 0.83453 0.06499 -0.35700
O 	O 	0.33857 0.70314 0.02989 -0.71800
H 	H 	0.39739 0.75163 0.02870 0.16400
C 	C 	0.87944 0.01985 0.30509 0.29500
C 	C 	0.77388 0.99943 0.22967 0.28500
C 	C 	0.87087 0.82553 0.20216 0.31000
C 	C 	0.96608 0.83874 0.27418 0.28400
Ni	Ni	0.95465 0.10317 0.24794 1.12000
Ni	Ni	0.83992 0.89127 0.25717 1.12200
O 	O 	0.93701 0.09352 0.29236 -0.35900
O 	O 	0.81860 0.95606 0.28988 -0.37200
O 	O 	0.93053 0.90605 0.19686 -0.38500
O 	O 	0.95967 0.11402 0.20326 -0.34900
O 	O 	0.89920 0.84559 0.28293 -0.37600
O 	O 	0.82604 0.06381 0.24611 -0.35000
O 	O 	0.77570 0.92536 0.22887 -0.37000
O 	O 	0.83309 0.80386 0.22759 -0.37300
O 	O 	0.94704 0.99222 0.24931 -0.70900
H 	H 	0.97389 0.99614 0.26799 0.15200
H 	H 	0.31039 0.37823 0.04553 0.07700
C 	C 	0.60382 0.00707 0.11392 -0.02700
C 	C 	0.56549 0.00813 0.14017 0.03400
C 	C 	0.47846 0.98146 0.14083 -0.06000
C 	C 	0.42811 0.93954 0.11704 0.02100
C 	C 	0.46477 0.92429 0.09259 -0.05700
C 	C 	0.55351 0.96570 0.09011 0.01400
C 	C 	0.61055 0.01580 0.16736 0.03700
H 	H 	0.44864 0.98566 0.16060 0.05300
H 	H 	0.35980 0.91087 0.11880 0.04300
H 	H 	0.58285 0.95784 0.07079 0.07800
H 	H 	0.67149 0.03063 0.11275 0.07200
C 	C 	0.57950 0.94378 0.18636 -0.06300
C 	C 	0.63099 0.94119 0.20817 0.01000
C 	C 	0.71393 0.01063 0.21130 -0.05500
C 	C 	0.74248 0.08589 0.19392 0.01800
C 	C 	0.69095 0.08845 0.17200 -0.05400
H 	H 	0.51736 0.88753 0.18314 0.05300
H 	H 	0.60772 0.88352 0.22183 0.04300
H 	H 	0.80617 0.14031 0.19633 0.04500
H 	H 	0.71514 0.14493 0.15776 0.06600
H 	H 	0.90463 0.55888 0.10508 0.08000
C 	C 	0.87043 0.77045 0.15323 0.02500
C 	C 	0.86456 0.75636 0.18310 -0.08300
C 	C 	0.87611 0.68867 0.19453 0.02100
H 	H 	0.85840 0.82014 0.14398 0.05100
H 	H 	0.86893 0.67496 0.21746 0.05100
C 	C 	0.79283 0.93570 0.44482 -0.03300
C 	C 	0.79262 0.99522 0.42444 0.00300
C 	C 	0.73491 0.02631 0.42826 -0.02700
C 	C 	0.66738 0.98395 0.44780 -0.01200
C 	C 	0.65499 0.90779 0.46200 -0.06000
C 	C 	0.72387 0.89226 0.46382 0.01500
C 	C 	0.83304 0.00422 0.39586 0.05700
H 	H 	0.73692 0.07642 0.41404 0.09300
H 	H 	0.61932 0.00338 0.44904 0.06800
H 	H 	0.71938 0.83963 0.47733 0.09100
H 	H 	0.84093 0.91599 0.44373 0.07900
C 	C 	0.87688 0.08649 0.38216 -0.05800
C 	C 	0.89595 0.09235 0.35270 0.03300
C 	C 	0.87182 0.01593 0.33676 -0.07000
C 	C 	0.83496 0.93462 0.35102 0.02100
C 	C 	0.81531 0.92867 0.38033 -0.06900
H 	H 	0.89255 0.14544 0.39400 0.08300
H 	H 	0.92626 0.15584 0.34211 0.05900
H 	H 	0.81877 0.87553 0.33917 0.04400
H 	H 	0.78202 0.86476 0.39060 0.08100
C 	C 	0.35237 0.32627 0.37744 -0.05000
C 	C 	0.34875 0.34618 0.34834 0.03100
C 	C 	0.38472 0.43400 0.33949 -0.05400
C 	C 	0.41700 0.50059 0.35981 0.02700
C 	C 	0.41298 0.48003 0.38922 -0.07500
C 	C 	0.38399 0.39290 0.39783 0.02800
H 	H 	0.38300 0.45028 0.31707 0.05400
H 	H 	0.44018 0.56765 0.35282 0.04500
H 	H 	0.38299 0.37640 0.42039 0.05600
H 	H 	0.39546 0.31170 0.29637 0.06500
C 	C 	0.98317 0.78439 0.32231 0.05200
C 	C 	0.01699 0.74346 0.33954 -0.07900
H 	H 	0.94952 0.81422 0.33235 0.04800
H 	H 	0.00872 0.74167 0.36269 0.09200
C 	C 	0.51725 0.10947 0.46414 0.03600
C 	C 	0.57752 0.15729 0.44281 -0.00300
C 	C 	0.57031 0.12116 0.41525 -0.10300
C 	C 	0.50867 0.03318 0.41085 0.05900
C 	C 	0.45892 0.98025 0.43400 -0.02200
C 	C 	0.45770 0.02099 0.46031 -0.08000
C 	C 	0.39284 0.97188 0.48411 0.76800
H 	H 	0.51717 0.14140 0.48388 0.07900
H 	H 	0.50369 0.00379 0.39002 0.07900
C 	C 	0.62702 0.17649 0.39055 0.77900
F 	F 	0.39358 0.02781 0.50509 -0.44300
F 	F 	0.41096 0.91256 0.49755 -0.46800
F 	F 	0.71128 0.20794 0.39748 -0.42800
F 	F 	0.61351 0.24644 0.38542 -0.41800
F 	F 	0.61092 0.12915 0.36543 -0.44500
C 	C 	0.98260 0.59911 0.49214 0.09300
C 	C 	0.93586 0.55179 0.46831 0.00600
C 	C 	0.97804 0.56513 0.44154 -0.05400
C 	C 	0.92817 0.53091 0.41407 0.77500
H 	H 	0.94923 0.59687 0.51184 0.06800
F 	F 	0.97989 0.56408 0.38999 -0.44300
F 	F 	0.86648 0.55561 0.41240 -0.40700
F 	F 	0.89006 0.44060 0.41368 -0.41200
C 	C 	0.54451 0.55136 0.54298 0.04000
C 	C 	0.59930 0.55434 0.52082 0.00800
C 	C 	0.59576 0.59027 0.49369 -0.10800
C 	C 	0.52351 0.59645 0.48696 0.04900
C 	C 	0.46321 0.58400 0.50812 -0.00600
C 	C 	0.47574 0.56559 0.53686 -0.09900
C 	C 	0.41675 0.56179 0.56090 0.77700
H 	H 	0.55234 0.53267 0.56452 0.07800
H 	H 	0.51673 0.61610 0.46554 0.07400
C 	C 	0.66960 0.62613 0.47238 0.78400
F 	F 	0.43049 0.52865 0.58617 -0.45800
F 	F 	0.43017 0.64516 0.56606 -0.42900
F 	F 	0.66467 0.55912 0.45552 -0.46700
F 	F 	0.74630 0.66633 0.48662 -0.43600
F 	F 	0.66776 0.68811 0.45427 -0.45100
C 	C 	0.66971 0.85685 0.61409 -0.05400
C 	C 	0.70965 0.92299 0.59308 0.03100
C 	C 	0.79841 0.97509 0.59312 -0.05900
C 	C 	0.84516 0.96930 0.61596 0.01900
C 	C 	0.80400 0.91034 0.63873 -0.07800
C 	C 	0.71686 0.85059 0.63689 0.02700
C 	C 	0.65901 0.95054 0.57537 0.04300
H 	H 	0.83031 0.02544 0.57679 0.06300
H 	H 	0.91228 0.01575 0.61717 0.04900
H 	H 	0.68457 0.80384 0.65417 0.04400
H 	H 	0.60150 0.81452 0.61388 0.08300
C 	C 	0.67672 0.96705 0.54580 -0.06200
C 	C 	0.65777 0.02568 0.53148 0.04400
C 	C 	0.62022 0.06735 0.54663 -0.07400
C 	C 	0.58915 0.03851 0.57467 0.04900
C 	C 	0.60887 0.98065 0.58905 -0.06100
H 	H 	0.71173 0.94062 0.53460 0.06600
H 	H 	0.67812 0.04356 0.50932 0.04500
H 	H 	0.55527 0.06582 0.58608 0.05300
H 	H 	0.59172 0.96558 0.61157 0.06300
C 	C 	0.38281 0.32916 0.52131 0.02600
C 	C 	0.40045 0.26975 0.50704 -0.07300
C 	C 	0.33947 0.18070 0.50824 0.02700
H 	H 	0.42357 0.39845 0.51803 0.05700
H 	H 	0.34607 0.13478 0.49454 0.09400
H 	H 	0.34239 0.26483 0.60170 0.06500
C 	C 	0.99114 0.54809 0.59128 -0.00300
C 	C 	0.96753 0.52605 0.62026 0.01400
C 	C 	0.91387 0.43783 0.62778 -0.04400
C 	C 	0.86864 0.37748 0.60638 0.01800
C 	C 	0.87857 0.40532 0.57757 -0.06500
C 	C 	0.94721 0.48698 0.56992 0.02200
C 	C 	0.97660 0.59487 0.64032 0.06600
H 	H 	0.89930 0.41863 0.65021 0.05500
H 	H 	0.81897 0.31245 0.61245 0.04200
H 	H 	0.96016 0.50641 0.54752 0.07000
H 	H 	0.03659 0.61479 0.58519 0.08700
C 	C 	0.91063 0.66480 0.66688 0.02900
C 	C 	0.90359 0.59444 0.65102 -0.06400
H 	H 	0.85365 0.66412 0.67461 0.04000
H 	H 	0.84116 0.54061 0.64626 0.06100
C 	C 	0.94401 0.49371 0.96663 0.09500
C 	C 	0.94672 0.48546 0.93668 -0.00000
H 	H 	0.88461 0.45489 0.97812 0.05200
F 	F 	0.99771 0.57209 0.87521 -0.43500
F 	F 	0.98746 0.43944 0.88142 -0.41800
F 	F 	0.92761 0.51535 0.02413 -0.43000
C 	C 	0.51680 0.03725 0.93605 0.06700
C 	C 	0.57771 0.09485 0.95551 0.00000
C 	C 	0.60417 0.05875 0.97807 -0.06700
C 	C 	0.55459 0.96867 0.98467 0.03400
C 	C 	0.48409 0.91411 0.96790 0.04000
C 	C 	0.47287 0.94641 0.94135 -0.11100
C 	C 	0.40973 0.88536 0.91965 0.78700
H 	H 	0.49864 0.06383 0.91808 0.06900
H 	H 	0.56641 0.94246 0.00421 0.09400
C 	C 	0.68471 0.11413 0.99474 0.77100
F 	F 	0.42137 0.92606 0.89307 -0.44900
F 	F 	0.32796 0.85859 0.92922 -0.44000
F 	F 	0.41998 0.81287 0.91598 -0.42400
F 	F 	0.67133 0.16564 0.01417 -0.41500
F 	F 	0.75051 0.16649 0.97608 -0.42300
F 	F 	0.70944 0.06234 0.00993 -0.41900
C 	C 	0.58661 0.54850 0.98029 0.05500
C 	C 	0.55126 0.46333 0.99161 0.00300
C 	C 	0.50744 0.44258 0.01834 -0.08700
C 	C 	0.49225 0.50552 0.03164 0.04700
C 	C 	0.51889 0.58727 0.01837 0.01100
C 	C 	0.57565 0.61257 0.99460 -0.10000
C 	C 	0.62565 0.70719 0.98458 0.78100
H 	H 	0.62411 0.56534 0.96059 0.06200
H 	H 	0.45596 0.48948 0.05151 0.07500
C 	C 	0.47518 0.35301 0.03228 0.77800
F 	F 	0.70436 0.72525 0.97396 -0.44000
F 	F 	0.63897 0.76395 0.00701 -0.42500
F 	F 	0.58210 0.72217 0.96293 -0.43500
F 	F 	0.54235 0.33816 0.03730 -0.41300
F 	F 	0.41800 0.28901 0.01427 -0.43200
F 	F 	0.43480 0.34588 0.05837 -0.45400
C 	C 	0.79718 0.08161 0.81385 -0.05600
C 	C 	0.70960 0.02390 0.81683 0.03800
C 	C 	0.66885 0.95452 0.79759 -0.06200
C 	C 	0.71446 0.94530 0.77479 0.01300
C 	C 	0.80141 0.00527 0.77114 -0.06400
C 	C 	0.84288 0.07203 0.79122 0.01800
C 	C 	0.65961 0.04293 0.83784 0.03200
H 	H 	0.60144 0.90932 0.79982 0.06600
H 	H 	0.68174 0.89294 0.75958 0.04800
H 	H 	0.91032 0.11728 0.78908 0.05000
H 	H 	0.82926 0.13563 0.82854 0.07200
C 	C 	0.68586 0.05931 0.86655 -0.03200
C 	C 	0.66468 0.11154 0.88335 0.02700
C 	C 	0.61471 0.14492 0.87184 -0.06200
C 	C 	0.57590 0.11493 0.84515 0.03500
C 	C 	0.59883 0.06452 0.82803 -0.04000
H 	H 	0.72959 0.03918 0.87482 0.07700
H 	H 	0.69324 0.13247 0.90430 0.07000
H 	H 	0.53497 0.13810 0.83644 0.05200
H 	H 	0.57556 0.04938 0.80623 0.06000
C 	C 	0.29756 0.35415 0.79439 0.02900
C 	C 	0.30041 0.37349 0.76488 -0.05500
C 	C 	0.37604 0.39671 0.81158 0.02700
H 	H 	0.35452 0.43103 0.75581 0.05700
C 	C 	0.37380 0.42531 0.83956 -0.05300
C 	C 	0.43699 0.43751 0.85919 0.02300
C 	C 	0.50290 0.42130 0.85092 -0.07500
C 	C 	0.51143 0.40535 0.82181 0.01900
C 	C 	0.44806 0.39262 0.80229 -0.05600
H 	H 	0.32023 0.43220 0.84667 0.07300
H 	H 	0.43185 0.45430 0.88122 0.06000
H 	H 	0.56378 0.39637 0.81473 0.04700
H 	H 	0.45179 0.37291 0.78053 0.05400
C 	C 	0.99630 0.83334 0.85884 0.14400
C 	C 	0.95862 0.79742 0.88759 -0.01800
H 	H 	0.99504 0.95515 0.86403 0.10700
H 	H 	0.00595 0.71974 0.84643 0.10800
C 	C 	0.87822 0.78624 0.89475 -0.01300
C 	C 	0.82642 0.72139 0.91466 0.01400
C 	C 	0.85345 0.66522 0.92628 -0.02800
C 	C 	0.94023 0.69151 0.92477 0.00700
C 	C 	0.99258 0.75616 0.90481 0.02700
H 	H 	0.85254 0.82103 0.88282 0.06000
H 	H 	0.76109 0.70627 0.91756 0.08700
H 	H 	0.96461 0.65516 0.93635 0.08200
