data_crystal

_cell_length_a 28.44241
_cell_length_b 29.66729
_cell_length_c 38.58179
_cell_angle_alpha 61.01184
_cell_angle_beta  118.69202
_cell_angle_gamma 133.18624

_symmetry_space_group_name_	'P 1'
_symmetry_space_group_name_H-M	'P 1'

loop_
_symmetry_equiv_pos_as_xyz
  x,y,z

loop_
_atom_site_label
_atom_site_type_symbol
_atom_site_fract_x
_atom_site_fract_y
_atom_site_fract_z
_atom_site_charge
C 	C 	0.23809 0.51217 0.23194 0.13500
N 	N 	0.21778 0.53776 0.23785 -0.14500
N 	N 	0.24332 0.59703 0.71875 -0.14600
Co	Co	0.04215 0.98407 0.08863 1.18700
Co	Co	0.00167 0.86930 0.15527 1.17800
C 	C 	0.17705 0.03446 0.09460 0.34700
Co	Co	0.07958 0.89643 0.09841 1.16800
O 	O 	0.03442 0.05211 0.07968 -0.47000
C 	C 	0.00461 0.09601 0.15614 0.29900
C 	C 	0.01330 0.94054 0.01759 0.31500
C 	C 	0.12407 0.87278 0.18768 0.31600
O 	O 	0.01987 0.98139 0.02851 -0.36300
O 	O 	0.02600 0.07317 0.14982 -0.41400
O 	O 	0.14593 0.90699 0.15423 -0.39700
O 	O 	0.08904 0.87996 0.19528 -0.39300
O 	O 	0.03174 0.91416 0.11273 -0.76200
O 	O 	0.14517 0.99228 0.07417 -0.41400
O 	O 	0.14386 0.03512 0.10891 -0.41000
O 	O 	0.01985 0.79957 0.12452 -0.42800
Co	Co	0.06926 0.04116 0.57331 1.18600
Co	Co	0.00824 0.07855 0.60036 1.18000
Co	Co	0.01349 0.91753 0.63214 1.18200
C 	C 	0.20703 0.07686 0.59479 0.33900
Co	Co	0.09847 0.94655 0.58186 1.17000
O 	O 	0.06002 0.10927 0.56212 -0.46400
C 	C 	0.06874 0.17245 0.64411 0.33100
C 	C 	0.06592 0.02350 0.50096 0.32400
C 	C 	0.11395 0.89276 0.67124 0.32500
O 	O 	0.11087 0.01336 0.52609 -0.39800
O 	O 	0.03997 0.03483 0.51375 -0.38500
O 	O 	0.00695 0.14941 0.63774 -0.42100
O 	O 	0.08232 0.14593 0.63453 -0.40000
O 	O 	0.09368 0.87938 0.63680 -0.40900
O 	O 	0.09517 0.92052 0.67429 -0.40000
O 	O 	0.05319 0.96880 0.59433 -0.77300
C 	C 	0.00833 0.00536 0.73613 0.31000
O 	O 	0.00733 0.05531 0.71409 -0.38700
O 	O 	0.01295 0.97788 0.72011 -0.38600
O 	O 	0.18880 0.01779 0.60828 -0.40100
O 	O 	0.17163 0.09028 0.59555 -0.39900
C 	C 	0.01950 0.95665 0.97645 -0.11400
C 	C 	0.02189 0.96927 0.89980 0.00800
C 	C 	0.06647 0.96075 0.93527 0.08100
C 	C 	0.06569 0.95540 0.97314 -0.00800
C 	C 	0.02254 0.97555 0.85934 0.01100
H 	H 	0.09992 0.94840 0.00029 0.04400
C 	C 	0.07303 0.03290 0.84000 -0.08600
C 	C 	0.07358 0.04027 0.80143 0.14800
C 	C 	0.02152 0.99095 0.78089 -0.10900
H 	H 	0.11200 0.07179 0.85498 0.08200
Br	Br	0.12700 0.95359 0.93291 -0.22600
Br	Br	0.14633 0.11778 0.77743 -0.23200
C 	C 	0.05104 0.03014 0.45709 -0.12100
C 	C 	0.10319 0.07212 0.43697 0.15100
C 	C 	0.09265 0.06510 0.39995 -0.08600
C 	C 	0.02982 0.01786 0.38185 0.01100
H 	H 	0.13346 0.09626 0.38533 0.08000
C 	C 	0.02036 0.00907 0.34361 0.00600
C 	C 	0.01527 0.95770 0.34495 -0.06500
C 	C 	0.00109 0.03916 0.26977 -0.06800
C 	C 	0.01505 0.05096 0.30580 0.09900
H 	H 	0.02080 0.92613 0.37403 0.07000
Br	Br	0.18922 0.13947 0.45964 -0.24300
Br	Br	0.02267 0.12240 0.30243 -0.24100
C 	C 	0.14817 0.30847 0.68508 0.00600
C 	C 	0.11180 0.33059 0.67570 -0.03400
C 	C 	0.14430 0.39123 0.67933 -0.04500
C 	C 	0.21353 0.42989 0.69331 0.02300
C 	C 	0.24986 0.40759 0.70283 -0.04400
C 	C 	0.21731 0.34705 0.69889 -0.03100
C 	C 	0.24934 0.49662 0.69322 -0.02800
C 	C 	0.22919 0.51228 0.70826 -0.07500
C 	C 	0.11260 0.24271 0.68373 0.02200
C 	C 	0.12228 0.23093 0.65904 -0.14600
H 	H 	0.05830 0.30091 0.66524 0.03600
H 	H 	0.11581 0.40858 0.67051 0.04200
H 	H 	0.24575 0.33001 0.70691 0.04900
H 	H 	0.18392 0.47597 0.71925 0.05600
H 	H 	0.07031 0.20473 0.69765 0.03600
H 	H 	0.16610 0.26715 0.64657 0.08300
C 	C 	0.21549 0.83331 0.72178 0.00700
C 	C 	0.17433 0.78381 0.70215 -0.03700
C 	C 	0.19528 0.74932 0.70738 -0.04400
C 	C 	0.25702 0.76286 0.73324 0.02200
C 	C 	0.25096 0.67902 0.72753 -0.07500
C 	C 	0.20453 0.88264 0.70592 0.01100
C 	C 	0.14907 0.86794 0.70740 -0.14600
H 	H 	0.12836 0.77524 0.68050 0.04500
H 	H 	0.16539 0.71502 0.68942 0.04200
H 	H 	0.19901 0.64567 0.72854 0.05600
H 	H 	0.23494 0.92720 0.68581 0.03500
H 	H 	0.12236 0.82731 0.73051 0.08000
C 	C 	0.16118 0.35604 0.21206 0.02300
C 	C 	0.16788 0.30604 0.23532 -0.03800
C 	C 	0.12785 0.25102 0.22149 -0.03100
C 	C 	0.08128 0.24581 0.18391 0.01500
C 	C 	0.07455 0.29575 0.16068 -0.03800
C 	C 	0.11466 0.35081 0.17443 -0.04200
C 	C 	0.03339 0.18516 0.17116 -0.01000
C 	C 	0.05338 0.15556 0.17033 -0.14000
C 	C 	0.20882 0.41674 0.22489 -0.02600
C 	C 	0.18910 0.44906 0.22212 -0.07400
H 	H 	0.20411 0.30981 0.26415 0.05000
H 	H 	0.13223 0.21210 0.24029 0.05200
H 	H 	0.03818 0.29190 0.13190 0.03700
H 	H 	0.11030 0.38973 0.15553 0.04200
H 	H 	0.10577 0.17580 0.17957 0.07800
H 	H 	0.13669 0.42887 0.21256 0.05800
C 	C 	0.18454 0.77104 0.22826 0.00600
C 	C 	0.24469 0.77787 0.24716 -0.03600
C 	C 	0.24971 0.73278 0.24925 -0.04400
C 	C 	0.19404 0.67926 0.23321 0.02200
C 	C 	0.13280 0.67027 0.21669 -0.04500
C 	C 	0.12800 0.71583 0.21422 -0.03600
C 	C 	0.20157 0.63800 0.22794 -0.02700
C 	C 	0.24245 0.62187 0.25643 -0.07400
C 	C 	0.18547 0.82790 0.21434 0.01000
C 	C 	0.13627 0.82399 0.21574 -0.14900
H 	H 	0.08950 0.62939 0.20415 0.04100
H 	H 	0.08134 0.71009 0.19911 0.04300
H 	H 	0.17505 0.62257 0.19977 0.04300
H 	H 	0.22501 0.87310 0.20000 0.03800
H 	H 	0.10070 0.78147 0.23385 0.07800
C 	C 	0.26926 0.12669 0.58565 -0.16400
H 	H 	0.28558 0.06548 0.58550 0.03200
C 	C 	0.28238 0.06714 0.09561 0.02300
C 	C 	0.24580 0.07835 0.10075 -0.17500
H 	H 	0.25956 0.01969 0.09457 0.03100
H 	H 	0.27104 0.12060 0.11023 0.09000
O 	O 	0.00919 0.88931 0.04414 -0.39300
C 	C 	0.26300 0.59578 0.24682 0.13600
C 	C 	0.28035 0.65821 0.72096 0.13500
C 	C 	0.26911 0.57859 0.71089 0.13700
C 	C 	0.27502 0.84408 0.74949 -0.03500
C 	C 	0.28731 0.73849 0.73164 -0.02800
H 	H 	0.26052 0.43426 0.23779 0.04600
H 	H 	0.28872 0.82027 0.25792 0.04200
H 	H 	0.26713 0.63506 0.28527 0.05700
C 	C 	0.30539 0.11433 0.58108 0.02200
H 	H 	0.28725 0.17565 0.57877 0.09300
H 	H 	0.30338 0.43735 0.71309 0.04600
H 	H 	0.29501 0.53298 0.68265 0.04600
C 	C 	0.29542 0.80870 0.75544 -0.04400
H 	H 	0.30722 0.88211 0.76482 0.04400
H 	H 	0.29770 0.74142 0.26128 0.04500
N 	N 	0.30328 0.54547 0.23403 -0.14600
N 	N 	0.33195 0.62116 0.70573 -0.14700
H 	H 	0.33317 0.12122 0.52016 0.04700
N 	N 	0.32825 0.62812 0.24962 -0.14500
H 	H 	0.34043 0.76992 0.73407 0.04700
H 	H 	0.33271 0.18911 0.04945 0.04500
H 	H 	0.34288 0.81940 0.77566 0.04500
C 	C 	0.34847 0.60331 0.24294 0.13800
N 	N 	0.34317 0.70069 0.71524 -0.14600
C 	C 	0.35105 0.11826 0.09076 0.00300
O 	O 	0.00255 0.87841 0.55626 -0.40900
C 	C 	0.00003 0.94519 0.30878 0.10400
H 	H 	0.99358 0.06969 0.24077 0.07400
C 	C 	0.69929 0.28684 0.01528 0.13800
N 	N 	0.74503 0.34435 0.02486 -0.14400
C 	C 	0.72767 0.36477 0.03839 0.13900
N 	N 	0.66473 0.32766 0.04226 -0.14700
C 	C 	0.61908 0.27012 0.03306 0.13900
N 	N 	0.63628 0.24992 0.01924 -0.14500
C 	C 	0.73968 0.36243 0.50605 0.13700
N 	N 	0.67730 0.31847 0.51257 -0.14600
C 	C 	0.64647 0.33716 0.51446 0.13700
N 	N 	0.67808 0.39989 0.50972 -0.14600
C 	C 	0.74037 0.44393 0.50343 0.13900
N 	N 	0.77129 0.42504 0.50193 -0.14500
C 	C 	0.36897 0.68215 0.70765 0.13800
Co	Co	0.92822 0.90219 0.17512 1.18800
Co	Co	0.96881 0.01498 0.11022 1.18500
Co	Co	0.86374 0.97361 0.15118 1.16900
C 	C 	0.95714 0.76816 0.12299 0.36300
O 	O 	0.82521 0.99208 0.08943 -0.38300
O 	O 	0.91371 0.95538 0.13958 -0.75800
C 	C 	0.86405 0.04025 0.06443 0.31100
O 	O 	0.96189 0.84908 0.19707 -0.44900
C 	C 	0.78869 0.83317 0.18148 0.31900
O 	O 	0.96163 0.92828 0.12120 -0.56100
O 	O 	0.91012 0.04270 0.06135 -0.37700
O 	O 	0.78414 0.87949 0.15422 -0.38700
O 	O 	0.83184 0.82719 0.18312 -0.37800
O 	O 	0.94085 0.07098 0.14556 -0.40400
C 	C 	0.95643 0.96350 0.23279 0.30300
O 	O 	0.89701 0.95055 0.21433 -0.39600
O 	O 	0.98277 0.95318 0.21940 -0.37700
O 	O 	0.94006 0.78337 0.13984 -0.39400
Co	Co	0.95871 0.95663 0.66261 1.19100
Co	Co	0.93773 0.05346 0.66015 1.17100
C 	C 	0.95210 0.83678 0.57430 0.34600
O 	O 	0.87388 0.05050 0.60359 -0.39800
O 	O 	0.96672 0.02549 0.63800 -0.75600
C 	C 	0.89729 0.09405 0.57113 0.31600
O 	O 	0.96414 0.88699 0.67171 -0.45500
C 	C 	0.83102 0.91392 0.66814 0.32900
O 	O 	0.98975 0.98831 0.60610 -0.57000
O 	O 	0.94093 0.10152 0.56055 -0.37400
O 	O 	0.86852 0.96032 0.68612 -0.40800
O 	O 	0.85780 0.90186 0.65689 -0.39200
O 	O 	0.95835 0.83746 0.61065 -0.38600
C 	C 	0.97520 0.96580 0.94090 0.16100
C 	C 	0.97720 0.97289 0.90275 -0.06800
H 	H 	0.94312 0.97996 0.87552 0.08100
C 	C 	0.97335 0.93222 0.80131 -0.00000
C 	C 	0.97374 0.92424 0.84041 0.09500
H 	H 	0.93363 0.89375 0.78601 0.05900
Br	Br	0.90957 0.96561 0.94382 -0.22000
Br	Br	0.90707 0.84317 0.86729 -0.21600
C 	C 	0.97649 0.97895 0.40041 0.09400
C 	C 	0.98736 0.98518 0.43790 0.00600
H 	H 	0.94693 0.95293 0.45301 0.05700
C 	C 	0.99113 0.98520 0.27076 -0.04400
Br	Br	0.88874 0.91655 0.37536 -0.22100
Br	Br	0.98723 0.87091 0.31199 -0.21600
C 	C 	0.65908 0.83883 0.67377 0.00600
C 	C 	0.61679 0.85775 0.65338 -0.03400
C 	C 	0.55301 0.81670 0.65988 -0.04400
C 	C 	0.53132 0.75663 0.68734 0.02400
C 	C 	0.57329 0.73743 0.70739 -0.04400
C 	C 	0.63711 0.77851 0.70101 -0.03100
C 	C 	0.46276 0.71132 0.69254 -0.02700
C 	C 	0.43692 0.72848 0.70109 -0.07600
C 	C 	0.72876 0.88538 0.67032 0.01800
C 	C 	0.75963 0.86849 0.66700 -0.15100
H 	H 	0.63348 0.90442 0.63263 0.04100
H 	H 	0.52035 0.83134 0.64335 0.04500
H 	H 	0.55666 0.69085 0.72826 0.04700
H 	H 	0.66990 0.76401 0.71787 0.04700
H 	H 	0.43458 0.66236 0.69169 0.04600
H 	H 	0.46632 0.77689 0.70353 0.05800
H 	H 	0.75494 0.93452 0.66990 0.03300
H 	H 	0.73210 0.82114 0.66351 0.08400
H 	H 	0.98130 0.16639 0.16019 0.05400
C 	C 	0.63981 0.73569 0.22536 0.00900
C 	C 	0.62902 0.73686 0.25672 -0.03500
C 	C 	0.56512 0.69640 0.26299 -0.04200
C 	C 	0.51116 0.65493 0.23755 0.02300
C 	C 	0.52244 0.65092 0.20785 -0.04400
C 	C 	0.58634 0.69142 0.20152 -0.03400
C 	C 	0.44264 0.61511 0.24196 -0.02700
C 	C 	0.41899 0.64093 0.24331 -0.07500
C 	C 	0.70339 0.78859 0.21272 0.01500
C 	C 	0.73359 0.77865 0.20187 -0.14100
H 	H 	0.66984 0.77061 0.27538 0.05000
H 	H 	0.55745 0.69810 0.28713 0.04700
H 	H 	0.48135 0.61804 0.18867 0.04400
H 	H 	0.59368 0.69040 0.17691 0.04600
H 	H 	0.40990 0.56553 0.24083 0.04600
H 	H 	0.45174 0.69082 0.24379 0.05900
H 	H 	0.72509 0.83692 0.21126 0.03500
H 	H 	0.71645 0.73052 0.20705 0.08500
C 	C 	0.84185 0.19636 0.54346 0.00500
C 	C 	0.87134 0.24515 0.56058 -0.03400
C 	C 	0.84221 0.27578 0.54757 -0.04400
C 	C 	0.78362 0.25872 0.51665 0.02300
C 	C 	0.75654 0.21282 0.49767 -0.04500
C 	C 	0.78556 0.18183 0.51096 -0.03300
C 	C 	0.74530 0.28151 0.50827 -0.02700
C 	C 	0.77585 0.34209 0.50735 -0.07500
C 	C 	0.86059 0.15191 0.56566 0.01500
C 	C 	0.87635 0.13674 0.54709 -0.14800
H 	H 	0.91470 0.25668 0.58572 0.04200
H 	H 	0.86318 0.31022 0.56308 0.04500
H 	H 	0.71147 0.19925 0.47378 0.04400
H 	H 	0.76204 0.14400 0.49761 0.04300
H 	H 	0.69161 0.24811 0.50314 0.04600
H 	H 	0.82867 0.37689 0.50855 0.05900
H 	H 	0.86504 0.13392 0.59842 0.02200
H 	H 	0.87738 0.15854 0.51506 0.08400
C 	C 	0.78060 0.59811 0.49991 0.02400
C 	C 	0.83938 0.65117 0.48661 -0.04200
C 	C 	0.87320 0.71028 0.49323 -0.03000
C 	C 	0.84835 0.71718 0.51277 0.00900
C 	C 	0.78752 0.66507 0.52385 -0.03200
C 	C 	0.75407 0.60576 0.51765 -0.04400
C 	C 	0.88630 0.77944 0.52106 0.01800
C 	C 	0.89573 0.78324 0.55906 -0.16800
C 	C 	0.74473 0.53488 0.49379 -0.02600
C 	C 	0.77704 0.51105 0.50260 -0.07500
H 	H 	0.85868 0.64674 0.47102 0.05000
H 	H 	0.91912 0.75061 0.48351 0.04900
H 	H 	0.76593 0.67051 0.53696 0.04200
H 	H 	0.70767 0.56564 0.52683 0.04400
H 	H 	0.91526 0.82257 0.49967 0.04700
H 	H 	0.86122 0.74239 0.57824 0.08800
H 	H 	0.69084 0.50529 0.48543 0.04600
H 	H 	0.83091 0.54056 0.51073 0.06000
C 	C 	0.36573 0.16644 0.56507 0.00900
C 	C 	0.37345 0.16091 0.53434 -0.03000
C 	C 	0.43325 0.20627 0.52200 -0.04300
C 	C 	0.48641 0.25703 0.54086 0.02400
C 	C 	0.47811 0.26349 0.57085 -0.04400
C 	C 	0.41821 0.21815 0.58313 -0.03200
C 	C 	0.54978 0.30567 0.52786 -0.02700
C 	C 	0.58037 0.28881 0.52403 -0.07500
H 	H 	0.43819 0.20201 0.49778 0.04600
H 	H 	0.51845 0.30307 0.58511 0.04500
H 	H 	0.41318 0.22243 0.60730 0.04400
H 	H 	0.57373 0.35551 0.52416 0.04700
H 	H 	0.55732 0.23871 0.52927 0.05700
C 	C 	0.77704 0.21887 0.01842 0.02300
C 	C 	0.84027 0.23253 0.03266 -0.04400
C 	C 	0.84855 0.19006 0.03432 -0.03400
C 	C 	0.79364 0.13384 0.02095 0.00800
C 	C 	0.73157 0.12310 0.00347 -0.03600
C 	C 	0.72286 0.16444 0.00296 -0.04400
C 	C 	0.79678 0.07989 0.03372 0.00800
C 	C 	0.85180 0.08892 0.03678 -0.14300
C 	C 	0.76652 0.25550 0.02627 -0.02500
C 	C 	0.71824 0.26337 0.00200 -0.07600
H 	H 	0.88247 0.27428 0.04459 0.04500
H 	H 	0.89674 0.19893 0.04839 0.04300
H 	H 	0.68890 0.08008 0.99298 0.04300
H 	H 	0.67334 0.15192 0.99286 0.04600
H 	H 	0.75467 0.03202 0.04364 0.04100
H 	H 	0.89069 0.13466 0.02231 0.08200
H 	H 	0.79747 0.27448 0.05322 0.04600
H 	H 	0.68869 0.24708 0.97409 0.05900
C 	C 	0.80915 0.50809 0.07492 0.02400
C 	C 	0.83305 0.56209 0.04254 -0.04200
C 	C 	0.86989 0.62279 0.04785 -0.03200
C 	C 	0.88198 0.63005 0.08522 0.00600
C 	C 	0.85803 0.57612 0.11756 -0.03200
C 	C 	0.82147 0.51544 0.11233 -0.04500
C 	C 	0.92601 0.69452 0.09164 0.02500
C 	C 	0.91049 0.71055 0.11146 -0.17700
C 	C 	0.76409 0.44340 0.06843 -0.02600
C 	C 	0.77669 0.42758 0.04817 -0.07600
H 	H 	0.82207 0.55697 0.01309 0.05000
H 	H 	0.88881 0.66421 0.02286 0.05100
H 	H 	0.86859 0.58127 0.14690 0.04500
H 	H 	0.80253 0.47404 0.13733 0.04500
H 	H 	0.97046 0.73044 0.07976 0.03800
H 	H 	0.86158 0.67811 0.11763 0.09300
H 	H 	0.72066 0.40776 0.08130 0.04600
H 	H 	0.82296 0.46138 0.03844 0.06000
C 	C 	0.39641 0.10353 0.10769 -0.03200
C 	C 	0.45602 0.14581 0.09556 -0.04500
C 	C 	0.47063 0.20310 0.06605 0.02500
C 	C 	0.42727 0.21971 0.05096 -0.04500
C 	C 	0.36748 0.17731 0.06303 -0.03000
C 	C 	0.53319 0.24772 0.05269 -0.02700
C 	C 	0.55276 0.22731 0.04139 -0.07600
H 	H 	0.38438 0.05826 0.12924 0.04000
H 	H 	0.49052 0.13375 0.10878 0.04500
H 	H 	0.43902 0.26466 0.02903 0.04600
H 	H 	0.56277 0.29796 0.05129 0.04700
H 	H 	0.52038 0.17807 0.03960 0.06000
