data_crystal

_cell_length_a 19.50236
_cell_length_b 17.18605
_cell_length_c 34.63909
_cell_angle_alpha 88.28710
_cell_angle_beta  88.43373
_cell_angle_gamma 107.43663

_symmetry_space_group_name_	'P 1'
_symmetry_space_group_name_H-M	'P 1'

loop_
_symmetry_equiv_pos_as_xyz
  x,y,z

loop_
_atom_site_label
_atom_site_type_symbol
_atom_site_fract_x
_atom_site_fract_y
_atom_site_fract_z
_atom_site_charge
Zn	Zn	0.58454 0.31716 0.89698 1.22300
Zn	Zn	0.70321 0.46176 0.93972 1.19900
C 	C 	0.78690 0.21800 0.84938 0.29700
Zn	Zn	0.75117 0.36256 0.87963 1.22100
Zn	Zn	0.62832 0.18677 0.85533 1.19100
H 	H 	0.69294 0.31018 0.94544 0.17900
C 	C 	0.73605 0.52035 0.85458 0.30400
O 	O 	0.52227 0.14753 0.85119 -0.46300
O 	O 	0.49564 0.26754 0.86140 -0.39600
O 	O 	0.68533 0.34796 0.92501 -0.79200
O 	O 	0.60694 0.45498 0.95815 -0.48900
O 	O 	0.53909 0.22992 0.93578 -0.44300
O 	O 	0.54612 0.41125 0.90367 -0.42900
O 	O 	0.61099 0.15427 0.91748 -0.41500
O 	O 	0.80273 0.52639 0.93093 -0.48000
H 	H 	0.64275 0.33136 0.83112 0.17000
O 	O 	0.84476 0.42311 0.91135 -0.40800
O 	O 	0.65149 0.30658 0.85596 -0.79900
O 	O 	0.72423 0.16793 0.86202 -0.45700
O 	O 	0.76477 0.46208 0.84665 -0.44700
O 	O 	0.80932 0.29379 0.86080 -0.43800
O 	O 	0.68562 0.50792 0.88230 -0.41700
C 	C 	0.47899 0.19349 0.84762 0.29600
C 	C 	0.55284 0.45064 0.93610 0.31700
C 	C 	0.55599 0.16203 0.93815 0.31600
C 	C 	0.85547 0.49521 0.92625 0.30300
Zn	Zn	0.64086 0.40173 0.55311 1.22100
Zn	Zn	0.52098 0.28233 0.49901 1.20000
C 	C 	0.67793 0.15090 0.61184 0.31000
Zn	Zn	0.57111 0.21314 0.57188 1.22300
Zn	Zn	0.73045 0.33186 0.60327 1.18900
H 	H 	0.64317 0.26860 0.51091 0.18000
C 	C 	0.43287 0.24613 0.57739 0.30100
O 	O 	0.78385 0.45033 0.60572 -0.46900
O 	O 	0.69350 0.50343 0.58726 -0.39800
O 	O 	0.60729 0.28537 0.52667 -0.79600
O 	O 	0.55352 0.39738 0.48136 -0.48400
O 	O 	0.72552 0.43729 0.51795 -0.43900
O 	O 	0.56879 0.45838 0.53889 -0.42900
O 	O 	0.77007 0.33980 0.54288 -0.41600
O 	O 	0.45310 0.17385 0.50187 -0.47800
H 	H 	0.60454 0.34041 0.61963 0.17100
O 	O 	0.51928 0.11000 0.53737 -0.39500
O 	O 	0.62797 0.32402 0.59688 -0.79500
O 	O 	0.72961 0.21606 0.59914 -0.46700
O 	O 	0.47708 0.21274 0.59459 -0.44300
O 	O 	0.61187 0.13647 0.59984 -0.43700
O 	O 	0.45749 0.30326 0.54950 -0.40800
C 	C 	0.75821 0.51297 0.60108 0.30100
C 	C 	0.54587 0.45451 0.50335 0.31500
C 	C 	0.77666 0.40300 0.51925 0.30100
C 	C 	0.46837 0.10766 0.51267 0.29800
Zn	Zn	0.93780 0.91173 0.72239 1.21700
Zn	Zn	0.05472 0.93370 0.79714 1.19600
C 	C 	0.15002 0.09238 0.64401 0.28800
Zn	Zn	0.08280 0.05317 0.72433 1.22700
Zn	Zn	0.99176 0.99972 0.64215 1.18000
H 	H 	0.07380 0.90388 0.72665 0.16400
C 	C 	0.01133 0.09642 0.78942 0.30900
O 	O 	0.88751 0.95900 0.63334 -0.46900
O 	O 	0.84051 0.91089 0.69461 -0.39900
O 	O 	0.04593 0.93534 0.74004 -0.79200
O 	O 	0.95647 0.88199 0.82017 -0.46900
O 	O 	0.93772 0.81178 0.69725 -0.45600
O 	O 	0.88025 0.88421 0.77160 -0.44700
O 	O 	0.98867 0.87019 0.63961 -0.41800
O 	O 	0.15765 0.98283 0.80440 -0.50300
H 	H 	0.95652 0.05506 0.70249 0.16700
O 	O 	0.17887 0.08569 0.75731 -0.40400
O 	O 	0.98539 0.01746 0.69776 -0.79600
O 	O 	0.10023 0.02894 0.63063 -0.43500
O 	O 	0.04380 0.12340 0.75582 -0.44100
O 	O 	0.14621 0.11422 0.68013 -0.43300
O 	O 	0.03564 0.04861 0.81202 -0.38700
C 	C 	0.83706 0.94882 0.66110 0.29000
C 	C 	0.90022 0.84496 0.80043 0.29600
C 	C 	0.94230 0.80972 0.65964 0.31300
C 	C 	0.19903 0.05150 0.78792 0.36000
Zn	Zn	0.30929 0.69048 0.39002 1.22200
Zn	Zn	0.17884 0.54987 0.43826 1.19600
C 	C 	0.12151 0.80162 0.33396 0.31000
Zn	Zn	0.14429 0.65451 0.37412 1.22000
Zn	Zn	0.27836 0.82003 0.34054 1.18800
H 	H 	0.19787 0.70405 0.43799 0.17900
C 	C 	0.16090 0.49677 0.35402 0.30100
O 	O 	0.38577 0.85727 0.33869 -0.47400
O 	O 	0.40635 0.73510 0.35388 -0.39500
O 	O 	0.20606 0.66565 0.41893 -0.78600
O 	O 	0.26985 0.54264 0.45912 -0.46700
O 	O 	0.35092 0.77823 0.42421 -0.45000
O 	O 	0.33965 0.59580 0.40507 -0.43900
O 	O 	0.28042 0.85140 0.40139 -0.42600
O 	O 	0.07715 0.49421 0.42932 -0.46700
H 	H 	0.25758 0.67171 0.32436 0.16800
O 	O 	0.04639 0.60602 0.40939 -0.39700
O 	O 	0.24785 0.69989 0.34745 -0.79800
O 	O 	0.18614 0.84816 0.34229 -0.46900
O 	O 	0.12564 0.55025 0.34773 -0.43800
O 	O 	0.09405 0.72816 0.35062 -0.43400
O 	O 	0.20419 0.50447 0.38323 -0.41500
C 	C 	0.42884 0.81069 0.33881 0.30300
C 	C 	0.33338 0.56969 0.44150 0.30900
C 	C 	0.32975 0.84308 0.42483 0.30800
C 	C 	0.02950 0.53365 0.42715 0.31200
Zn	Zn	0.20532 0.72478 0.06069 1.22200
Zn	Zn	0.33016 0.82967 0.11959 1.19500
C 	C 	0.36735 0.57862 0.01890 0.30100
Zn	Zn	0.36856 0.72708 0.05939 1.22300
Zn	Zn	0.24455 0.62318 0.99700 1.19700
H 	H 	0.28333 0.67528 0.11624 0.17300
C 	C 	0.40198 0.89970 0.03872 0.27800
O 	O 	0.17651 0.65677 0.96689 -0.47900
O 	O 	0.12398 0.70776 0.01656 -0.37500
O 	O 	0.29172 0.72202 0.09744 -0.79000
O 	O 	0.23896 0.85207 0.13033 -0.49200
O 	O 	0.14569 0.62167 0.08647 -0.44200
O 	O 	0.18182 0.82813 0.07295 -0.43700
O 	O 	0.15243 0.54667 0.03368 -0.39800
O 	O 	0.43465 0.86100 0.12499 -0.48100
H 	H 	0.29108 0.77045 0.00595 0.17200
O 	O 	0.45082 0.74554 0.10070 -0.41100
O 	O 	0.28166 0.72291 0.02435 -0.80400
O 	O 	0.29707 0.55334 0.01977 -0.46900
O 	O 	0.42184 0.83345 0.03565 -0.44400
O 	O 	0.40242 0.63660 0.04138 -0.43800
O 	O 	0.34993 0.90146 0.06383 -0.41700
C 	C 	0.11992 0.67012 0.98330 0.29200
C 	C 	0.19893 0.87128 0.10425 0.33100
C 	C 	0.12699 0.55188 0.06894 0.30800
C 	C 	0.47688 0.81671 0.11643 0.31300
Zn	Zn	0.97399 0.14289 0.20764 1.22100
Zn	Zn	0.85425 0.10569 0.28219 1.19200
C 	C 	0.77535 0.96081 0.13879 0.27200
Zn	Zn	0.83627 0.99329 0.21451 1.21300
Zn	Zn	0.92789 0.06703 0.13022 1.19200
H 	H 	0.83135 0.13957 0.21137 0.17600
C 	C 	0.92015 0.95879 0.27708 0.26500
O 	O 	0.02935 0.12750 0.11912 -0.45900
O 	O 	0.07611 0.15161 0.17904 -0.37300
O 	O 	0.86184 0.11124 0.22475 -0.78000
O 	O 	0.93912 0.20114 0.29355 -0.47200
O 	O 	0.97591 0.24719 0.18226 -0.45300
O 	O 	0.02283 0.16267 0.25697 -0.43400
O 	O 	0.91309 0.18970 0.13078 -0.41200
O 	O 	0.77038 0.01041 0.30131 -0.42800
H 	H 	0.96557 0.00227 0.18956 0.17600
O 	O 	0.73177 0.96054 0.24258 -0.40600
O 	O 	0.93472 0.03801 0.18562 -0.80000
O 	O 	0.82081 0.02738 0.12220 -0.43500
O 	O 	0.87131 0.92629 0.25195 -0.44500
O 	O 	0.78972 0.92935 0.17147 -0.45300
O 	O 	0.92565 0.03112 0.29049 -0.39600
C 	C 	0.07875 0.12421 0.14371 0.29300
C 	C 	0.00667 0.20999 0.28278 0.33400
C 	C 	0.95746 0.25337 0.14657 0.32400
C 	C 	0.71947 0.96624 0.27975 0.26500
C 	C 	0.04202 0.40886 0.06648 0.02300
C 	C 	0.00027 0.33761 0.08479 0.06800
C 	C 	0.98455 0.33361 0.12489 -0.13900
C 	C 	0.00595 0.40648 0.14515 0.04300
H 	H 	0.99219 0.40599 0.17569 0.01300
C 	C 	0.04975 0.47905 0.12659 -0.03100
H 	H 	0.06903 0.53336 0.14309 0.04300
C 	C 	0.07178 0.47945 0.08750 -0.07500
C 	C 	0.08689 0.36721 0.04443 -0.07400
H 	H 	0.07359 0.26283 0.08580 0.06900
H 	H 	0.14418 0.38494 0.05259 0.05500
H 	H 	0.00706 0.24212 0.04616 0.05100
H 	H 	0.07821 0.36817 0.01287 0.04800
C 	C 	0.04065 0.28686 0.06576 -0.10300
C 	C 	0.58277 0.93663 0.12677 0.01500
C 	C 	0.65503 0.97303 0.12867 0.01300
C 	C 	0.70350 0.92801 0.12405 -0.08900
C 	C 	0.67681 0.84393 0.11758 -0.00900
H 	H 	0.71328 0.80735 0.11560 0.02700
C 	C 	0.60258 0.80644 0.11535 -0.00900
H 	H 	0.58244 0.74170 0.11053 0.04000
C 	C 	0.55500 0.85308 0.11971 -0.08900
C 	C 	0.57273 0.00178 0.10006 -0.03200
H 	H 	0.66910 0.10193 0.11696 0.04500
H 	H 	0.54010 0.03742 0.11364 0.04100
H 	H 	0.68450 0.04423 0.07394 0.05600
H 	H 	0.55655 0.97960 0.07096 0.02700
C 	C 	0.65528 0.04307 0.10212 -0.07400
C 	C 	0.15610 0.06919 0.09988 0.03300
C 	C 	0.17868 0.00451 0.08906 0.05800
C 	C 	0.16475 0.93413 0.11326 -0.12400
C 	C 	0.13546 0.93484 0.15079 -0.03300
H 	H 	0.12867 0.88331 0.17089 0.03100
C 	C 	0.11517 0.00222 0.16249 0.01000
H 	H 	0.09116 0.00119 0.19115 0.02400
C 	C 	0.12089 0.06776 0.13620 -0.10800
C 	C 	0.12325 0.07618 0.06184 -0.08700
H 	H 	0.19363 0.02096 0.02665 0.05200
H 	H 	0.15118 0.13425 0.04552 0.05000
H 	H 	0.10520 0.94745 0.04422 0.03400
H 	H 	0.06355 0.05895 0.06291 0.04200
C 	C 	0.15007 0.00340 0.04952 -0.06300
C 	C 	0.53746 0.93239 0.32833 0.07500
C 	C 	0.60652 0.96942 0.31455 -0.04400
C 	C 	0.64723 0.92402 0.29729 -0.05700
C 	C 	0.61466 0.84000 0.29241 -0.02400
H 	H 	0.64397 0.80445 0.27765 0.04100
C 	C 	0.54398 0.80169 0.30707 0.00300
H 	H 	0.51938 0.73707 0.30332 0.03200
C 	C 	0.50538 0.84770 0.32600 -0.11100
C 	C 	0.54921 0.97392 0.36585 -0.17300
H 	H 	0.66819 0.99603 0.36706 0.00700
H 	H 	0.54611 0.93159 0.39122 0.06600
H 	H 	0.64032 0.08265 0.34502 0.01100
H 	H 	0.51736 0.01740 0.36890 0.07800
C 	C 	0.62794 0.01567 0.35031 0.02400
C 	C 	0.12129 0.42312 0.29420 0.03500
C 	C 	0.08338 0.35335 0.27699 0.04200
C 	C 	0.06365 0.27780 0.29742 -0.10200
C 	C 	0.08489 0.27381 0.33565 0.00200
H 	H 	0.06830 0.21638 0.35225 0.03000
C 	C 	0.12427 0.34509 0.35320 -0.00700
H 	H 	0.13746 0.34207 0.38328 0.03500
C 	C 	0.14136 0.42086 0.33277 -0.08700
C 	C 	0.17501 0.44982 0.26123 -0.08400
H 	H 	0.16303 0.32634 0.23808 0.05900
H 	H 	0.23018 0.44961 0.26854 0.04400
H 	H 	0.10421 0.38255 0.21547 0.05500
H 	H 	0.17168 0.50637 0.24601 0.03700
C 	C 	0.13178 0.37043 0.24163 -0.09300
C 	C 	0.04365 0.96330 0.29660 0.00100
C 	C 	0.09188 0.92593 0.30965 0.05700
C 	C 	0.07227 0.84056 0.31507 -0.12100
C 	C 	0.00483 0.79318 0.30271 0.04100
H 	H 	0.98991 0.72716 0.30465 0.01400
C 	C 	0.95536 0.83156 0.28921 -0.04800
H 	H 	0.90255 0.79485 0.28115 0.04600
C 	C 	0.97331 0.91722 0.28808 -0.08600
C 	C 	0.06003 0.02557 0.32700 -0.02500
H 	H 	0.09985 0.95349 0.37109 0.06500
H 	H 	0.01474 0.01944 0.34827 0.05600
H 	H 	0.17182 0.02195 0.33768 0.07500
H 	H 	0.08623 0.08831 0.31474 0.05000
C 	C 	0.11504 0.98303 0.34178 -0.14800
C 	C 	0.35509 0.01527 0.47948 0.00200
H 	H 	0.31899 0.05257 0.48635 0.03600
C 	C 	0.33970 0.92385 0.49111 -0.02700
H 	H 	0.29028 0.88501 0.50676 0.02300
C 	C 	0.38056 0.00041 0.43853 0.00400
H 	H 	0.36497 0.02437 0.41109 0.02900
C 	C 	0.36548 0.90997 0.45032 -0.08700
C 	C 	0.43265 0.03164 0.49290 -0.06300
C 	C 	0.45819 0.01720 0.45218 -0.00300
H 	H 	0.50767 0.05644 0.43675 0.01800
C 	C 	0.44296 0.92586 0.46378 -0.02200
H 	H 	0.47881 0.88826 0.45699 0.03400
C 	C 	0.41780 0.94127 0.50496 -0.02600
H 	H 	0.43373 0.91792 0.53245 0.02900
C 	C 	0.88302 0.52851 0.48939 -0.01300
H 	H 	0.86739 0.57751 0.50411 0.03500
C 	C 	0.88899 0.52070 0.44504 -0.00400
H 	H 	0.87925 0.56374 0.42285 0.03400
C 	C 	0.95495 0.50913 0.49398 -0.01600
H 	H 	0.99949 0.54302 0.51203 0.00800
C 	C 	0.96010 0.50090 0.44998 -0.09000
C 	C 	0.84277 0.43656 0.49385 -0.06800
C 	C 	0.91395 0.41697 0.49871 -0.01600
H 	H 	0.92395 0.37405 0.52088 0.02600
C 	C 	0.91973 0.40897 0.45444 -0.00800
H 	H 	0.93527 0.35988 0.43974 0.02900
C 	C 	0.84764 0.42829 0.44985 -0.01400
H 	H 	0.80292 0.39434 0.43194 0.02500
C 	C 	0.41117 0.47089 0.44884 -0.00900
H 	H 	0.38387 0.42800 0.42674 0.03100
C 	C 	0.41349 0.44936 0.49218 -0.01700
H 	H 	0.38814 0.38822 0.50629 0.03100
C 	C 	0.49182 0.51891 0.44783 -0.01000
H 	H 	0.53195 0.51521 0.42513 0.03400
C 	C 	0.49396 0.49711 0.49123 -0.07800
C 	C 	0.39393 0.54894 0.45941 -0.07400
C 	C 	0.47410 0.59772 0.45835 -0.01300
H 	H 	0.49816 0.65881 0.44392 0.03500
C 	C 	0.47735 0.57574 0.50206 -0.00900
H 	H 	0.50493 0.61821 0.52422 0.03300
C 	C 	0.39588 0.52800 0.50284 -0.00700
H 	H 	0.35547 0.53186 0.52533 0.03000
C 	C 	0.70819 0.02244 0.60525 0.09800
C 	C 	0.74593 0.97142 0.61753 -0.00500
C 	C 	0.77562 0.97884 0.65422 -0.11600
C 	C 	0.76137 0.03508 0.67947 0.01000
H 	H 	0.78439 0.04225 0.70775 0.02300
C 	C 	0.72382 0.08808 0.66665 -0.01000
H 	H 	0.71745 0.13527 0.68521 0.00600
C 	C 	0.69845 0.08309 0.62903 -0.11300
C 	C 	0.64666 0.95462 0.59220 -0.12500
H 	H 	0.70800 0.86543 0.58225 0.03900
H 	H 	0.64175 0.95648 0.56032 0.05000
H 	H 	0.66201 0.85577 0.63132 0.04200
H 	H 	0.59571 0.94609 0.60940 0.05600
C 	C 	0.68933 0.89642 0.60629 -0.06700
C 	C 	0.24947 0.09271 0.59595 0.02600
C 	C 	0.31766 0.12942 0.58041 0.04300
C 	C 	0.35419 0.21229 0.58661 -0.09000
C 	C 	0.31678 0.25896 0.60586 -0.00700
H 	H 	0.34275 0.32312 0.61011 0.03200
C 	C 	0.24730 0.22095 0.62233 -0.01300
H 	H 	0.22056 0.25648 0.63899 0.03400
C 	C 	0.21474 0.13619 0.61924 -0.08400
C 	C 	0.26678 0.01833 0.61038 -0.04500
H 	H 	0.35829 0.02681 0.56878 0.06100
H 	H 	0.23767 0.96297 0.59497 0.02000
H 	H 	0.38450 0.07518 0.61618 0.06500
H 	H 	0.26491 0.01085 0.64246 0.04400
C 	C 	0.34431 0.06005 0.59327 -0.09900
C 	C 	0.82148 0.70821 0.65313 0.04300
C 	C 	0.77742 0.63749 0.63920 0.02600
C 	C 	0.80320 0.59457 0.61147 -0.08800
C 	C 	0.87618 0.62344 0.59895 -0.01200
H 	H 	0.89791 0.58934 0.57867 0.03100
C 	C 	0.92139 0.69629 0.61307 -0.00700
H 	H 	0.97757 0.71759 0.60368 0.02700
C 	C 	0.89396 0.73974 0.64011 -0.09900
C 	C 	0.76762 0.75310 0.64721 -0.09300
H 	H 	0.70659 0.67805 0.60063 0.05500
H 	H 	0.78475 0.80216 0.62420 0.05900
H 	H 	0.66945 0.64416 0.65108 0.04400
H 	H 	0.74673 0.77022 0.67482 0.05800
C 	C 	0.71754 0.67251 0.63180 -0.08000
C 	C 	0.02102 0.53308 0.96957 -0.00500
H 	H 	0.04888 0.49132 0.98221 0.03000
C 	C 	0.00069 0.53579 0.92679 -0.00200
H 	H 	0.01065 0.49580 0.90409 0.03400
C 	C 	0.94606 0.53729 0.98301 -0.02800
H 	H 	0.91135 0.49800 0.00638 0.02800
C 	C 	0.92671 0.54046 0.94043 -0.08200
C 	C 	0.04869 0.62703 0.96835 -0.06300
C 	C 	0.97466 0.63172 0.98196 -0.02800
H 	H 	0.96459 0.67167 0.00465 0.03700
C 	C 	0.95429 0.63443 0.93914 -0.01900
H 	H 	0.92616 0.67570 0.92618 0.03100
C 	C 	0.02937 0.63023 0.92573 -0.00700
H 	H 	0.06407 0.66944 0.90233 0.02500
C 	C 	0.54095 0.07027 0.00396 0.04200
H 	H 	0.59430 0.10042 0.01583 0.02000
C 	C 	0.51324 0.97971 0.99334 -0.09500
H 	H 	0.54377 0.93493 0.99674 0.04700
C 	C 	0.46697 0.06296 0.02396 -0.01600
H 	H 	0.45860 0.08671 0.05259 0.03700
C 	C 	0.43957 0.97306 0.01306 -0.04200
C 	C 	0.51385 0.09429 0.96556 -0.11200
C 	C 	0.44022 0.08814 0.98509 0.02500
H 	H 	0.41028 0.13341 0.98142 0.02900
C 	C 	0.41241 0.99717 0.97459 -0.09000
H 	H 	0.35908 0.96692 0.96274 0.03200
C 	C 	0.48633 0.00445 0.95471 0.08800
H 	H 	0.49476 0.98057 0.92611 -0.01500
C 	C 	0.44998 0.58071 0.95654 -0.01200
H 	H 	0.44888 0.64016 0.94356 0.00800
C 	C 	0.42722 0.49752 0.93660 -0.02000
H 	H 	0.40811 0.48756 0.90673 0.03200
C 	C 	0.51721 0.56207 0.97160 -0.02500
H 	H 	0.57229 0.60592 0.97036 0.02700
C 	C 	0.49410 0.47932 0.95209 -0.06600
C 	C 	0.40849 0.53927 0.99370 -0.11100
C 	C 	0.47528 0.52078 0.00872 0.02800
H 	H 	0.49507 0.53049 0.03849 0.03000
C 	C 	0.45194 0.43801 0.98917 -0.03600
H 	H 	0.45296 0.37870 0.00238 0.04500
C 	C 	0.38418 0.45669 0.97422 -0.00100
H 	H 	0.32876 0.41371 0.97583 0.02400
C 	C 	0.89630 0.07700 0.82748 0.03200
C 	C 	0.84102 0.10441 0.84049 0.04300
C 	C 	0.83998 0.18402 0.83074 -0.10000
C 	C 	0.89285 0.23276 0.80446 -0.01200
H 	H 	0.89147 0.29314 0.79539 0.02600
C 	C 	0.94922 0.20455 0.79097 -0.00900
H 	H 	0.99060 0.24323 0.77142 0.03100
C 	C 	0.95312 0.12771 0.80394 -0.10400
C 	C 	0.90690 0.04363 0.86644 -0.05100
H 	H 	0.86137 0.12447 0.90189 0.05400
H 	H 	0.95908 0.07649 0.87902 0.04800
H 	H 	0.79484 0.02434 0.89043 0.05700
H 	H 	0.89309 0.97597 0.86759 0.03000
C 	C 	0.84387 0.07465 0.88118 -0.09300
C 	C 	0.37248 0.07426 0.83741 0.00100
C 	C 	0.30567 0.04042 0.82344 0.09500
C 	C 	0.27135 0.08855 0.80256 -0.12600
C 	C 	0.30828 0.17153 0.79435 0.01300
H 	H 	0.28368 0.20938 0.77752 0.03800
C 	C 	0.37649 0.20627 0.80901 -0.02200
H 	H 	0.40432 0.27040 0.80308 0.03800
C 	C 	0.40797 0.15804 0.83168 -0.07500
C 	C 	0.35230 0.03424 0.87665 -0.00200
H 	H 	0.23445 0.01910 0.87534 0.08800
H 	H 	0.35300 0.07782 0.89988 0.03800
H 	H 	0.26120 0.92875 0.85880 0.05700
H 	H 	0.38060 0.98827 0.88304 0.00800
C 	C 	0.27586 0.99612 0.86091 -0.18500
C 	C 	0.88856 0.71144 0.83356 0.02200
C 	C 	0.84995 0.63456 0.84636 0.04500
C 	C 	0.77560 0.60469 0.84118 -0.09400
C 	C 	0.74011 0.65704 0.82452 -0.01000
H 	H 	0.68242 0.63620 0.82144 0.03200
C 	C 	0.78031 0.73608 0.81060 -0.00700
H 	H 	0.75322 0.77577 0.79712 0.03600
C 	C 	0.85555 0.76259 0.81409 -0.09900
C 	C 	0.94754 0.68461 0.81537 -0.08800
H 	H 	0.93025 0.57021 0.85188 0.04900
H 	H 	0.99901 0.70783 0.83034 0.01800
H 	H 	0.88245 0.55651 0.80507 0.05400
H 	H 	0.95173 0.69273 0.78330 0.03000
C 	C 	0.90309 0.59657 0.82948 -0.08700
