data_crystal

_cell_length_a 25.95947
_cell_length_b 26.64127
_cell_length_c 44.53924
_cell_angle_alpha 95.47282
_cell_angle_beta  95.47239
_cell_angle_gamma 125.84919

_symmetry_space_group_name_	'P 1'
_symmetry_space_group_name_H-M	'P 1'

loop_
_symmetry_equiv_pos_as_xyz
  x,y,z

loop_
_atom_site_label
_atom_site_type_symbol
_atom_site_fract_x
_atom_site_fract_y
_atom_site_fract_z
_atom_site_charge
N 	N 	0.04002 0.09594 0.46812 -0.12900
C 	C 	0.91427 0.09227 0.44962 -0.00500
C 	C 	0.94484 0.08964 0.47671 -0.01600
C 	C 	0.24185 0.13103 0.45448 -0.02500
C 	C 	0.17433 0.09347 0.45291 -0.00300
C 	C 	0.14652 0.11773 0.46888 -0.01400
C 	C 	0.27151 0.10332 0.44226 0.10100
C 	C 	0.89557 0.13251 0.45061 -0.02300
C 	C 	0.95114 0.12272 0.50519 -0.00100
C 	C 	0.86605 0.13681 0.42263 0.10000
C 	C 	0.97894 0.11699 0.53329 0.09300
C 	C 	0.77979 0.13265 0.48500 0.10300
N 	N 	0.70367 0.20867 0.49364 -0.12100
N 	N 	0.84248 0.14030 0.40031 -0.10300
N 	N 	0.00117 0.11239 0.55568 -0.09200
N 	N 	0.73694 0.01297 0.07035 -0.10400
C 	C 	0.11777 0.01412 0.01082 -0.00100
C 	C 	0.07131 0.00394 0.98678 -0.01800
C 	C 	0.09076 0.02947 0.96013 -0.00100
C 	C 	0.04334 0.02042 0.93571 0.10100
C 	C 	0.23678 0.00124 0.94349 0.10400
N 	N 	0.38405 0.03011 0.92774 -0.10900
N 	N 	0.00546 0.01316 0.91623 -0.09600
C 	C 	0.93204 0.16260 0.50624 -0.02400
C 	C 	0.90645 0.16930 0.47881 0.01200
C 	C 	0.83010 0.19762 0.48330 -0.04200
C 	C 	0.75409 0.22360 0.49005 0.05200
C 	C 	0.28066 0.19532 0.46845 0.01400
C 	C 	0.18600 0.18194 0.48355 -0.00200
N 	N 	0.33921 0.20915 0.54756 -0.10300
C 	C 	0.79381 0.01867 0.99915 0.01100
C 	C 	0.89327 0.03062 0.01638 -0.00200
C 	C 	0.73402 0.03097 0.04807 0.10500
C 	C 	0.15608 0.06258 0.95699 -0.02400
C 	C 	0.20148 0.06843 0.98005 0.01400
C 	C 	0.18238 0.04476 0.00712 -0.02400
C 	C 	0.28682 0.06495 0.95992 -0.03700
C 	C 	0.37007 0.05741 0.94219 0.08200
C 	C 	0.17660 0.09029 0.93002 0.10200
C 	C 	0.89195 0.21604 0.47960 0.02900
C 	C 	0.81734 0.24238 0.48554 0.02500
C 	C 	0.93960 0.19754 0.53544 0.09800
C 	C 	0.35255 0.23475 0.47143 0.02600
C 	C 	0.36266 0.22847 0.52660 0.10400
C 	C 	0.25173 0.22144 0.48117 -0.02400
C 	C 	0.16024 0.20645 0.50258 0.10300
C 	C 	0.34154 0.24177 0.41640 0.10400
N 	N 	0.30974 0.23112 0.39317 -0.10300
C 	C 	0.73043 0.05350 0.02014 -0.03900
C 	C 	0.75835 0.04674 0.99584 0.02700
C 	C 	0.75055 0.06431 0.96787 -0.04100
C 	C 	0.78247 0.06121 0.94351 0.10300
C 	C 	0.85778 0.05529 0.01587 -0.02300
N 	N 	0.80796 0.05869 0.92410 -0.10600
C 	C 	0.22917 0.05133 0.03098 0.10100
C 	C 	0.35256 0.09164 0.96029 0.02400
N 	N 	0.26658 0.05662 0.04998 -0.10300
N 	N 	0.19304 0.11243 0.90851 -0.10200
N 	N 	0.94561 0.22546 0.55873 -0.10800
C 	C 	0.38130 0.25506 0.44553 -0.03700
C 	C 	0.39196 0.25266 0.50032 -0.03800
N 	N 	0.13976 0.22606 0.51777 -0.09800
C 	C 	0.69885 0.08199 0.01716 0.02800
C 	C 	0.67692 0.09562 0.04334 0.09100
C 	C 	0.95527 0.06438 0.03695 0.09400
N 	N 	0.65945 0.10642 0.06426 -0.09800
C 	C 	0.26974 0.09985 0.97599 0.02600
C 	C 	0.45977 0.29358 0.50358 0.02400
C 	C 	0.71219 0.08529 0.96364 0.02700
C 	C 	0.69005 0.09845 0.98886 -0.08600
C 	C 	0.44875 0.28851 0.44803 0.02100
C 	C 	0.69261 0.09004 0.93306 0.05300
O 	O 	0.60617 0.11159 0.99416 -0.35600
C 	C 	0.94061 0.27906 0.47742 -0.04900
C 	C 	0.86634 0.30568 0.48391 -0.09000
C 	C 	0.48850 0.30881 0.47721 -0.07300
C 	C 	0.28985 0.28890 0.49207 0.10200
C 	C 	0.49966 0.32244 0.53406 0.09600
N 	N 	0.00473 0.09129 0.05336 -0.09200
N 	N 	0.67702 0.09373 0.90864 -0.13500
N 	N 	0.53143 0.34542 0.55837 -0.09900
C 	C 	0.47671 0.29952 0.42050 0.07900
C 	C 	0.88737 0.11863 0.03209 0.09900
C 	C 	0.40128 0.15200 0.97801 -0.07500
O 	O 	0.48598 0.14176 0.99430 -0.34700
C 	C 	0.66202 0.13328 0.98608 0.29400
C 	C 	0.31819 0.16272 0.99074 -0.03900
H 	H 	0.53070 0.15100 0.93955 0.18800
H 	H 	0.65476 0.31966 0.45374 0.17000
C 	C 	0.00388 0.29774 0.47312 0.11500
C 	C 	0.92780 0.32386 0.47959 0.03300
N 	N 	0.49899 0.30826 0.39853 -0.11600
O 	O 	0.58996 0.33124 0.49996 -0.36700
C 	C 	0.46977 0.17553 0.98278 0.28500
C 	C 	0.55955 0.34340 0.47998 0.29000
N 	N 	0.05434 0.31254 0.46969 -0.10300
C 	C 	0.38392 0.18808 0.99281 0.02400
Cu	Cu	0.57667 0.16591 0.99621 0.93100
C 	C 	0.85367 0.35309 0.48791 0.29600
O 	O 	0.71807 0.31939 0.55143 -0.41600
N 	N 	0.32034 0.34273 0.50076 -0.10100
O 	O 	0.57410 0.17530 0.95274 -0.63900
O 	O 	0.81442 0.35099 0.46591 -0.35700
C 	C 	0.30023 0.20078 0.00437 0.10600
O 	O 	0.60698 0.18090 0.89634 -0.40200
Cu	Cu	0.63711 0.17180 0.93468 0.88000
O 	O 	0.59458 0.17204 0.03973 -0.34800
N 	N 	0.73970 0.08079 0.48636 -0.10600
H 	H 	0.53592 0.19693 0.15542 0.06200
H 	H 	0.60498 0.29859 0.30795 0.06100
N 	N 	0.91091 0.16916 0.04503 -0.10500
H 	H 	0.51129 0.18220 0.09903 0.04800
C 	C 	0.57222 0.20531 0.14211 -0.06500
C 	C 	0.55832 0.19708 0.11018 0.02600
H 	H 	0.62468 0.33875 0.36321 0.03600
O 	O 	0.68758 0.17987 0.97096 -0.42600
C 	C 	0.65075 0.31687 0.32227 -0.06400
H 	H 	0.67608 0.25281 0.59352 0.04100
C 	C 	0.63367 0.22689 0.15690 0.05100
O 	O 	0.68538 0.36390 0.46480 -0.64000
C 	C 	0.66206 0.33992 0.35356 0.02000
C 	C 	0.66387 0.26055 0.21742 0.01100
C 	C 	0.65085 0.24465 0.18987 -0.02000
C 	C 	0.67397 0.28653 0.60788 0.02000
H 	H 	0.65619 0.23853 0.64611 0.05900
C 	C 	0.67759 0.28019 0.24956 0.01000
C 	C 	0.69788 0.34856 0.56573 0.29000
C 	C 	0.68805 0.29765 0.27690 -0.01900
C 	C 	0.60577 0.21020 0.09278 -0.07800
C 	C 	0.66237 0.27822 0.63765 -0.06700
C 	C 	0.69862 0.31809 0.30946 0.05100
Cu	Cu	0.79697 0.36435 0.53483 0.88200
C 	C 	0.59478 0.21160 0.06002 0.29100
C 	C 	0.68290 0.33824 0.59674 -0.08700
C 	C 	0.68011 0.23701 0.13948 -0.06400
C 	C 	0.66610 0.22842 0.10745 0.02300
H 	H 	0.72764 0.25338 0.15075 0.06100
H 	H 	0.70296 0.23841 0.09420 0.03900
C 	C 	0.65956 0.32136 0.65656 0.05000
N 	N 	0.28582 0.23107 0.01524 -0.10200
C 	C 	0.72144 0.36445 0.37232 -0.07800
O 	O 	0.51512 0.23379 0.98029 -0.38700
C 	C 	0.75760 0.34162 0.32816 -0.06400
C 	C 	0.07704 0.07551 0.47128 0.13600
N 	N 	0.29524 0.08127 0.43252 -0.10400
O 	O 	0.57089 0.24121 0.05146 -0.37400
C 	C 	0.61547 0.23313 0.89151 0.28800
C 	C 	0.65134 0.31448 0.68779 -0.02100
C 	C 	0.43335 0.24990 0.01139 0.08100
H 	H 	0.79486 0.34277 0.31839 0.06200
H 	H 	0.65851 0.19723 0.84738 0.03700
C 	C 	0.64440 0.30711 0.71379 0.01000
C 	C 	0.61911 0.24706 0.86013 -0.08100
C 	C 	0.64272 0.22451 0.83998 0.02100
C 	C 	0.97963 0.06149 0.47468 0.13100
H 	H 	0.58119 0.30071 0.86540 0.04700
C 	C 	0.63732 0.29706 0.74414 0.00900
H 	H 	0.66518 0.22013 0.79505 0.05900
C 	C 	0.64680 0.23772 0.81036 -0.06600
C 	C 	0.59980 0.28323 0.85023 0.02400
O 	O 	0.63962 0.26467 0.00019 -0.63700
C 	C 	0.63226 0.28717 0.76994 -0.02100
C 	C 	0.62753 0.27367 0.80052 0.05000
C 	C 	0.60400 0.29643 0.82048 -0.06600
Cu	Cu	0.62328 0.26848 0.95766 0.89800
O 	O 	0.61452 0.26981 0.91338 -0.37100
C 	C 	0.90270 0.05401 0.42073 0.10000
H 	H 	0.58896 0.32425 0.81300 0.06200
H 	H 	0.68586 0.28792 0.00945 0.17500
Cu	Cu	0.59562 0.29226 0.01838 0.90300
N 	N 	0.47275 0.29920 0.02623 -0.11600
C 	C 	0.13343 0.03082 0.43407 0.10100
C 	C 	0.76903 0.36469 0.35951 0.02500
N 	N 	0.89349 0.02344 0.39769 -0.09800
Cu	Cu	0.68190 0.37419 0.50721 0.91500
N 	N 	0.05149 0.01797 0.47863 -0.12900
O 	O 	0.68181 0.37883 0.55067 -0.36800
C 	C 	0.66729 0.37239 0.64541 -0.06600
O 	O 	0.86640 0.38384 0.51559 -0.41200
O 	O 	0.67670 0.35951 0.96403 -0.37400
H 	H 	0.81518 0.38368 0.37366 0.05200
C 	C 	0.67889 0.38084 0.61560 0.02400
C 	C 	0.97775 0.38857 0.47733 0.07700
C 	C 	0.73372 0.39047 0.40512 0.28800
O 	O 	0.59195 0.39145 0.46562 -0.37500
O 	O 	0.77613 0.39133 0.42464 -0.34800
O 	O 	0.65066 0.37909 0.00977 -0.37600
N 	N 	0.95438 0.00422 0.48246 -0.13100
N 	N 	0.09146 0.00186 0.55210 -0.09900
C 	C 	0.09903 0.99345 0.03946 0.10200
N 	N 	0.96795 0.98538 0.99123 -0.13500
N 	N 	0.08399 0.97693 0.06229 -0.09500
C 	C 	0.86743 0.97214 0.99753 -0.01500
C 	C 	0.00197 0.96180 0.98842 0.14500
C 	C 	0.76567 0.95752 0.98303 -0.02200
C 	C 	0.90626 0.94786 0.99625 0.13500
N 	N 	0.19679 0.95041 0.93039 -0.10200
C 	C 	0.80381 0.93633 0.98022 -0.00300
C 	C 	0.69764 0.91686 0.96895 0.10100
N 	N 	0.97335 0.90013 0.98923 -0.13700
C 	C 	0.91178 0.86264 0.99406 0.13700
N 	N 	0.87898 0.88694 0.99844 -0.13300
C 	C 	0.98963 0.98149 0.48340 0.13100
C 	C 	0.67415 0.39683 0.98458 0.29900
Cu	Cu	0.78487 0.40610 0.46858 0.92700
Cu	Cu	0.67299 0.42022 0.44941 0.89900
O 	O 	0.83438 0.50102 0.47229 -0.34600
O 	O 	0.77620 0.41214 0.51258 -0.62700
O 	O 	0.71349 0.42443 0.41298 -0.37000
C 	C 	0.80980 0.52987 0.48170 0.28300
O 	O 	0.74935 0.49674 0.48540 -0.37800
H 	H 	0.80277 0.45634 0.52368 0.16700
H 	H 	0.66514 0.40592 0.65992 0.06200
H 	H 	0.68578 0.42099 0.60738 0.04700
C 	C 	0.88066 0.80247 0.47285 -0.02400
C 	C 	0.91870 0.79303 0.49279 0.01500
C 	C 	0.97563 0.84533 0.51227 -0.02800
C 	C 	0.99469 0.90677 0.51153 -0.00800
C 	C 	0.96068 0.91670 0.48916 -0.01300
C 	C 	0.90283 0.86418 0.47012 -0.00400
C 	C 	0.89981 0.72795 0.49244 0.02400
C 	C 	0.01523 0.83599 0.53259 0.10800
C 	C 	0.86755 0.87352 0.44692 0.10100
C 	C 	0.90973 0.69845 0.46804 -0.03800
C 	C 	0.88258 0.63385 0.46494 0.02000
C 	C 	0.84964 0.59984 0.48760 -0.07600
C 	C 	0.84755 0.63189 0.51407 0.02100
C 	C 	0.86953 0.69483 0.51574 -0.03800
C 	C 	0.94707 0.73442 0.44592 0.10300
C 	C 	0.82374 0.60039 0.53974 0.08100
C 	C 	0.88597 0.60192 0.43780 0.09200
C 	C 	0.85964 0.72500 0.54100 0.10200
C 	C 	0.81907 0.74861 0.45494 0.10000
C 	C 	0.04851 0.95964 0.53410 0.10800
N 	N 	0.88864 0.57643 0.41613 -0.09700
N 	N 	0.97686 0.76321 0.42828 -0.10300
N 	N 	0.80473 0.57521 0.56021 -0.11200
N 	N 	0.85178 0.74913 0.56116 -0.10500
N 	N 	0.04677 0.82847 0.54881 -0.10300
N 	N 	0.83940 0.88096 0.42839 -0.09700
N 	N 	0.76994 0.70557 0.44065 -0.10500
N 	N 	0.01760 0.44021 0.47552 -0.09200
N 	N 	0.10078 0.98083 0.41904 -0.09600
C 	C 	0.82142 0.69005 0.95965 -0.02400
C 	C 	0.81178 0.66335 0.98631 0.01300
C 	C 	0.83590 0.70227 0.01556 -0.02300
C 	C 	0.86969 0.76786 0.01813 -0.00200
C 	C 	0.87841 0.79439 0.99146 -0.01700
C 	C 	0.85423 0.75548 0.96221 -0.00200
C 	C 	0.77590 0.59399 0.98360 0.02600
C 	C 	0.82575 0.67465 0.04294 0.10100
C 	C 	0.86253 0.78282 0.93478 0.10100
C 	C 	0.81002 0.56794 0.98492 -0.03900
C 	C 	0.77660 0.50297 0.98460 0.02500
C 	C 	0.70871 0.46371 0.98217 -0.07600
C 	C 	0.67431 0.48936 0.97935 0.02400
C 	C 	0.70795 0.55456 0.98036 -0.03800
C 	C 	0.87961 0.60823 0.98689 0.10300
C 	C 	0.60426 0.44851 0.97529 0.08300
C 	C 	0.81219 0.47683 0.98773 0.08500
C 	C 	0.67284 0.58131 0.97833 0.10500
C 	C 	0.79747 0.65006 0.92962 0.10100
C 	C 	0.89601 0.80819 0.04819 0.09900
N 	N 	0.84058 0.45599 0.99023 -0.10900
N 	N 	0.93513 0.64044 0.98846 -0.10500
N 	N 	0.54839 0.41589 0.97206 -0.10000
N 	N 	0.64490 0.60273 0.97672 -0.10200
N 	N 	0.81760 0.65254 0.06477 -0.10300
N 	N 	0.91705 0.84042 0.07215 -0.09700
N 	N 	0.86919 0.80471 0.91293 -0.09800
N 	N 	0.77832 0.61808 0.90569 -0.10400
C 	C 	0.77898 0.87977 0.95823 0.10200
N 	N 	0.75916 0.83466 0.94068 -0.09800
N 	N 	0.64336 0.88448 0.95772 -0.10200
