data_crystal

_cell_length_a 18.57091
_cell_length_b 18.73984
_cell_length_c 34.66856
_cell_angle_alpha 95.42321
_cell_angle_beta  95.42411
_cell_angle_gamma 126.42411

_symmetry_space_group_name_	'P 1'
_symmetry_space_group_name_H-M	'P 1'

loop_
_symmetry_equiv_pos_as_xyz
  x,y,z

loop_
_atom_site_label
_atom_site_type_symbol
_atom_site_fract_x
_atom_site_fract_y
_atom_site_fract_z
_atom_site_charge
C 	C 	0.90633 0.99517 0.95997 0.29700
N 	N 	0.99513 0.04625 0.95628 -0.13100
C 	C 	0.04012 0.00996 0.95584 0.26300
N 	N 	0.99636 0.92234 0.95887 -0.11300
C 	C 	0.90794 0.87082 0.96298 0.26800
N 	N 	0.86258 0.90726 0.96369 -0.11100
C 	C 	0.96171 0.04606 0.50440 0.25200
N 	N 	0.90817 0.95714 0.50661 -0.10500
C 	C 	0.94440 0.91228 0.50838 0.27100
N 	N 	0.03417 0.95621 0.50803 -0.10300
C 	C 	0.08802 0.04489 0.50564 0.25300
N 	N 	0.05173 0.08997 0.50357 -0.10600
Cu	Cu	0.75791 0.34185 0.95907 0.93200
Cu	Cu	0.74728 0.28237 0.04564 0.90200
Cu	Cu	0.60520 0.28983 0.00479 0.91700
Cu	Cu	0.58484 0.32512 0.92336 0.92400
C 	C 	0.69557 0.30150 0.87523 0.28000
O 	O 	0.80617 0.47170 0.95620 -0.32700
C 	C 	0.65893 0.32937 0.09238 0.28600
O 	O 	0.61474 0.26250 0.95162 -0.64000
O 	O 	0.74020 0.35757 0.01369 -0.62900
O 	O 	0.82224 0.28670 0.96763 -0.32700
O 	O 	0.72303 0.19253 0.00462 -0.38000
O 	O 	0.65635 0.34053 0.88123 -0.33400
O 	O 	0.47386 0.21682 0.99297 -0.35500
C 	C 	0.42459 0.21601 0.96255 0.40300
C 	C 	0.75976 0.50145 0.96541 0.38500
O 	O 	0.67450 0.44391 0.96878 -0.36400
O 	O 	0.46193 0.26863 0.93645 -0.34200
O 	O 	0.75217 0.30803 0.90409 -0.31100
C 	C 	0.78332 0.21210 0.98228 0.37200
O 	O 	0.59410 0.29734 0.06110 -0.33500
O 	O 	0.73605 0.34277 0.08919 -0.37700
H 	H 	0.57877 0.19718 0.94076 0.19200
H 	H 	0.77448 0.42106 0.02728 0.21000
Cu	Cu	0.62415 0.20474 0.50485 0.93600
Cu	Cu	0.68540 0.21787 0.41851 0.89900
Cu	Cu	0.67335 0.35567 0.45977 0.91100
Cu	Cu	0.63298 0.37026 0.54052 0.91600
C 	C 	0.65219 0.25610 0.58898 0.28700
O 	O 	0.49268 0.15236 0.50758 -0.32600
C 	C 	0.63452 0.30395 0.37226 0.28900
O 	O 	0.70052 0.34583 0.51288 -0.63700
O 	O 	0.60788 0.22234 0.45033 -0.63700
O 	O 	0.67954 0.14161 0.49602 -0.33100
O 	O 	0.77562 0.24063 0.45953 -0.39200
O 	O 	0.61536 0.29732 0.58230 -0.33600
O 	O 	0.74352 0.48537 0.47230 -0.34700
C 	C 	0.73994 0.53175 0.50223 0.40500
C 	C 	0.45909 0.19479 0.49779 0.38400
O 	O 	0.51453 0.27970 0.49448 -0.36000
O 	O 	0.68710 0.49245 0.52821 -0.34400
O 	O 	0.65909 0.21119 0.55969 -0.31000
C 	C 	0.75519 0.18054 0.48180 0.38500
O 	O 	0.66757 0.36808 0.40367 -0.33800
O 	O 	0.62408 0.22874 0.37491 -0.38000
H 	H 	0.76633 0.38308 0.52428 0.19500
H 	H 	0.54379 0.18728 0.43658 0.20200
C 	C 	0.66158 0.23914 0.62893 -0.02700
C 	C 	0.74809 0.28130 0.65161 0.01400
C 	C 	0.75782 0.27827 0.69184 -0.02600
C 	C 	0.68072 0.23635 0.71019 0.01700
C 	C 	0.59296 0.18409 0.68602 0.03900
C 	C 	0.58401 0.18709 0.64568 -0.01200
C 	C 	0.51518 0.13065 0.70249 -0.02500
C 	C 	0.52301 0.13296 0.74301 -0.02000
C 	C 	0.60824 0.19258 0.76811 0.03200
C 	C 	0.68845 0.24537 0.75205 0.02200
C 	C 	0.77221 0.31169 0.77809 -0.02900
C 	C 	0.77561 0.32414 0.81884 0.02400
C 	C 	0.69587 0.27315 0.83431 -0.03200
C 	C 	0.61319 0.20522 0.80911 -0.01000
H 	H 	0.80800 0.31749 0.63823 0.07200
H 	H 	0.82427 0.30510 0.70791 0.07300
H 	H 	0.51686 0.15113 0.62756 0.10000
H 	H 	0.44814 0.08773 0.68384 0.08600
H 	H 	0.46188 0.09139 0.75516 0.07600
H 	H 	0.83348 0.35800 0.76711 0.07200
H 	H 	0.83959 0.37757 0.83820 0.07700
H 	H 	0.55154 0.16601 0.82125 0.06300
C 	C 	0.63944 0.33760 0.13204 -0.04200
C 	C 	0.56170 0.26357 0.14258 0.01600
C 	C 	0.55207 0.26265 0.18206 -0.03100
C 	C 	0.61889 0.33835 0.21178 0.01700
C 	C 	0.69628 0.41437 0.20072 0.02900
C 	C 	0.70502 0.41396 0.16089 -0.00900
C 	C 	0.76718 0.48730 0.22975 -0.02500
C 	C 	0.76609 0.48288 0.26961 -0.02400
C 	C 	0.69217 0.40715 0.28128 0.02900
C 	C 	0.61494 0.33722 0.25270 0.01900
C 	C 	0.53691 0.26769 0.26585 -0.03400
C 	C 	0.54218 0.25882 0.30541 0.01700
C 	C 	0.62261 0.32260 0.33286 -0.04300
C 	C 	0.69552 0.39927 0.32121 -0.00700
H 	H 	0.51124 0.20394 0.12043 0.07100
H 	H 	0.49588 0.20084 0.18932 0.06700
H 	H 	0.76510 0.47133 0.15260 0.07000
H 	H 	0.82548 0.54615 0.22137 0.07200
H 	H 	0.82371 0.53810 0.29150 0.07300
H 	H 	0.47159 0.22282 0.24625 0.07000
H 	H 	0.48366 0.20209 0.31471 0.06600
H 	H 	0.75654 0.45039 0.34281 0.07100
C 	C 	0.90014 0.78250 0.54062 0.26600
C 	C 	0.88584 0.81527 0.50832 -0.13300
C 	C 	0.82132 0.75455 0.47449 0.26200
C 	C 	0.77336 0.66169 0.47251 0.29700
C 	C 	0.78910 0.62898 0.50450 -0.20200
C 	C 	0.85158 0.68962 0.53880 0.29600
F 	F 	0.86681 0.65851 0.56996 -0.37800
F 	F 	0.96202 0.84086 0.57356 -0.34100
F 	F 	0.71141 0.60340 0.43957 -0.37200
F 	F 	0.80720 0.78577 0.44310 -0.35500
C 	C 	0.91135 0.11815 0.46494 0.26100
C 	C 	0.92086 0.09299 0.50080 -0.12900
C 	C 	0.88003 0.10131 0.53124 0.25800
C 	C 	0.82749 0.13166 0.52540 0.29400
C 	C 	0.81449 0.15303 0.48884 -0.20200
C 	C 	0.85795 0.14742 0.45883 0.29100
F 	F 	0.84545 0.16682 0.42318 -0.39500
F 	F 	0.95028 0.11004 0.43529 -0.34800
F 	F 	0.78957 0.14064 0.55529 -0.37700
F 	F 	0.89014 0.07855 0.56629 -0.35900
C 	C 	0.32682 0.11792 0.53214 0.29200
C 	C 	0.36325 0.15433 0.49918 -0.20500
C 	C 	0.31093 0.16073 0.46972 0.29200
C 	C 	0.22233 0.12937 0.47281 0.25800
C 	C 	0.18541 0.09147 0.50543 -0.12900
C 	C 	0.23852 0.08695 0.53528 0.25600
F 	F 	0.20414 0.05197 0.56731 -0.35300
F 	F 	0.37795 0.11487 0.56166 -0.38700
F 	F 	0.17128 0.13302 0.44350 -0.34700
F 	F 	0.34560 0.19632 0.43784 -0.38100
C 	C 	0.87419 0.66607 0.99306 0.28400
C 	C 	0.79752 0.59621 0.96511 -0.19900
C 	C 	0.75199 0.61632 0.93890 0.29400
C 	C 	0.78433 0.70582 0.93999 0.26300
C 	C 	0.86250 0.77611 0.96727 -0.12500
C 	C 	0.90613 0.75551 0.99437 0.25200
F 	F 	0.98045 0.82254 0.02159 -0.34200
F 	F 	0.91709 0.64724 0.01928 -0.37200
F 	F 	0.74200 0.72455 0.91338 -0.35100
F 	F 	0.67739 0.54917 0.91184 -0.38900
C 	C 	0.82827 0.13533 0.93876 0.29800
C 	C 	0.81092 0.15282 0.97572 -0.21900
C 	C 	0.81609 0.11029 0.00613 0.32500
C 	C 	0.84008 0.05258 0.99986 0.23300
C 	C 	0.86071 0.03779 0.96344 -0.13900
C 	C 	0.85333 0.07833 0.93272 0.26000
F 	F 	0.87226 0.06386 0.89722 -0.35800
F 	F 	0.82016 0.17282 0.90862 -0.37700
F 	F 	0.84797 0.01474 0.02991 -0.34600
F 	F 	0.80095 0.12734 0.04221 -0.39900
C 	C 	0.26556 0.10042 0.92664 0.29900
C 	C 	0.32627 0.16431 0.96059 -0.20300
C 	C 	0.29262 0.18072 0.99208 0.28900
C 	C 	0.19881 0.13265 0.98983 0.25100
C 	C 	0.13808 0.06742 0.95623 -0.12600
C 	C 	0.17171 0.05176 0.92457 0.24600
F 	F 	0.11329 0.98880 0.89194 -0.33500
F 	F 	0.29761 0.08446 0.89599 -0.38700
F 	F 	0.16669 0.14772 0.02069 -0.34200
F 	F 	0.35095 0.24384 0.02468 -0.36100
