data_crystal

_cell_length_a 29.50667
_cell_length_b 30.01590
_cell_length_c 39.61991
_cell_angle_alpha 60.91423
_cell_angle_beta  118.77626
_cell_angle_gamma 133.25081

_symmetry_space_group_name_	'P 1'
_symmetry_space_group_name_H-M	'P 1'

loop_
_symmetry_equiv_pos_as_xyz
  x,y,z

loop_
_atom_site_label
_atom_site_type_symbol
_atom_site_fract_x
_atom_site_fract_y
_atom_site_fract_z
_atom_site_charge
C 	C 	0.67864 0.29120 0.01141 0.13100
N 	N 	0.61784 0.26156 0.01222 -0.14200
C 	C 	0.60102 0.29528 0.01012 0.13300
N 	N 	0.64442 0.35818 0.00636 -0.14000
C 	C 	0.70639 0.38655 0.00985 0.13500
N 	N 	0.72362 0.35319 0.01193 -0.14000
C 	C 	0.67893 0.29081 0.51404 0.13000
N 	N 	0.72256 0.35367 0.51221 -0.14000
C 	C 	0.70452 0.38643 0.50996 0.13400
N 	N 	0.64306 0.35651 0.50879 -0.14200
C 	C 	0.60128 0.29316 0.51462 0.13300
N 	N 	0.61892 0.26002 0.51692 -0.14300
C 	C 	0.29996 0.64854 0.23268 0.13400
N 	N 	0.25887 0.58976 0.22617 -0.13700
C 	C 	0.28254 0.56132 0.22953 0.13600
N 	N 	0.34642 0.59132 0.23946 -0.14100
C 	C 	0.38728 0.65127 0.24303 0.13700
N 	N 	0.36421 0.68014 0.23976 -0.13600
C 	C 	0.29948 0.65114 0.72802 0.13400
N 	N 	0.36378 0.68117 0.73734 -0.13600
C 	C 	0.38659 0.65231 0.74019 0.13700
N 	N 	0.34530 0.59379 0.73415 -0.14100
C 	C 	0.28172 0.56596 0.72161 0.13600
N 	N 	0.25835 0.59443 0.71863 -0.13800
Co	Co	0.02903 0.00527 0.07225 1.16100
Co	Co	0.96184 0.93370 0.17744 1.18600
Co	Co	0.97547 0.03767 0.10614 1.15600
Co	Co	0.01360 0.89982 0.14278 1.19100
C 	C 	0.15567 0.07187 0.06110 0.33000
Co	Co	0.07981 0.93353 0.07880 1.18100
Co	Co	0.93236 0.02285 0.17437 1.13200
C 	C 	0.97882 0.80240 0.11364 0.31200
O 	O 	0.85172 0.99579 0.12859 -0.31600
O 	O 	0.95455 0.99316 0.15006 -0.72200
C 	C 	0.85665 0.02827 0.09163 0.23600
O 	O 	0.00721 0.06307 0.06015 -0.47500
O 	O 	0.97888 0.87266 0.18792 -0.46400
C 	C 	0.85061 0.88349 0.20266 0.32400
O 	O 	0.97138 0.95361 0.11741 -0.56100
C 	C 	0.03389 0.14488 0.13497 0.34800
C 	C 	0.99118 0.95210 0.00537 0.27100
C 	C 	0.14214 0.92568 0.16347 0.31700
O 	O 	0.89439 0.03810 0.07559 -0.38300
O 	O 	0.00086 0.90922 0.03175 -0.36900
O 	O 	0.98799 0.98546 0.01621 -0.33900
O 	O 	0.88911 0.93599 0.21367 -0.39200
O 	O 	0.87038 0.87059 0.18731 -0.38200
O 	O 	0.97601 0.11323 0.13812 -0.44000
O 	O 	0.04862 0.11885 0.12702 -0.40800
O 	O 	0.15367 0.96038 0.12810 -0.37100
O 	O 	0.10448 0.92112 0.17602 -0.37500
O 	O 	0.03334 0.94405 0.09816 -0.73400
C 	C 	0.02839 0.00513 0.24028 0.17100
O 	O 	0.01757 0.04793 0.21645 -0.37500
O 	O 	0.03015 0.97480 0.22571 -0.31900
O 	O 	0.12483 0.02568 0.04536 -0.44800
O 	O 	0.12717 0.07010 0.07945 -0.42000
O 	O 	0.03865 0.84061 0.11160 -0.39700
O 	O 	0.95776 0.81504 0.12820 -0.38700
Co	Co	0.02887 0.00594 0.57251 1.16100
Co	Co	0.96275 0.93292 0.67841 1.18600
Co	Co	0.97546 0.03715 0.60733 1.15600
Co	Co	0.01374 0.89994 0.64261 1.19100
C 	C 	0.15636 0.07404 0.56195 0.33100
Co	Co	0.08134 0.93605 0.57856 1.18100
Co	Co	0.93597 0.02287 0.67740 1.13200
C 	C 	0.98022 0.80432 0.61244 0.31200
O 	O 	0.85446 0.99675 0.63217 -0.31600
O 	O 	0.95645 0.99313 0.65184 -0.72100
C 	C 	0.85859 0.02892 0.59508 0.23700
O 	O 	0.00553 0.06242 0.56056 -0.47500
O 	O 	0.97826 0.87127 0.68779 -0.46400
C 	C 	0.85306 0.88340 0.70487 0.32300
O 	O 	0.97137 0.95341 0.61794 -0.56100
C 	C 	0.03641 0.14506 0.63668 0.34800
C 	C 	0.99256 0.95449 0.50516 0.27100
C 	C 	0.14291 0.92707 0.66336 0.31700
O 	O 	0.89402 0.03686 0.57815 -0.38400
O 	O 	0.00272 0.91187 0.53132 -0.36800
O 	O 	0.98853 0.98694 0.51627 -0.33900
O 	O 	0.89255 0.93559 0.71642 -0.39100
O 	O 	0.87155 0.87058 0.68848 -0.38300
O 	O 	0.97958 0.11359 0.64154 -0.44000
O 	O 	0.04953 0.11883 0.62747 -0.40800
O 	O 	0.15470 0.96247 0.62812 -0.37100
O 	O 	0.10465 0.92154 0.67598 -0.37500
O 	O 	0.03389 0.94513 0.59815 -0.73400
C 	C 	0.03153 0.00352 0.74218 0.17100
O 	O 	0.02165 0.04703 0.71872 -0.37500
O 	O 	0.03174 0.97252 0.72718 -0.31900
O 	O 	0.12597 0.02858 0.54566 -0.44800
O 	O 	0.12700 0.07151 0.58008 -0.42000
O 	O 	0.04028 0.84282 0.61080 -0.39800
O 	O 	0.95852 0.81602 0.62719 -0.38700
C 	C 	0.03666 0.00070 0.84033 -0.05700
C 	C 	0.06843 0.04332 0.86283 0.01200
C 	C 	0.05292 0.02241 0.89840 -0.15700
C 	C 	0.00491 0.95859 0.91175 0.15500
C 	C 	0.97388 0.91570 0.88966 -0.11600
C 	C 	0.98915 0.93667 0.85393 0.05400
C 	C 	0.99293 0.93500 0.95133 -0.08000
C 	C 	0.98548 0.96470 0.96296 -0.01600
C 	C 	0.04607 0.02534 0.79979 -0.07700
C 	C 	0.04462 0.99186 0.78341 0.00500
H 	H 	0.10469 0.09288 0.85249 0.02500
H 	H 	0.07882 0.05568 0.91582 0.06500
H 	H 	0.93762 0.86616 0.90004 0.06400
H 	H 	0.96290 0.90346 0.83640 0.02800
H 	H 	0.99186 0.89376 0.97153 0.05900
H 	H 	0.98142 0.00272 0.94171 -0.00100
H 	H 	0.05292 0.07004 0.78214 0.05200
H 	H 	0.04876 0.95333 0.80265 0.06000
C 	C 	0.03388 0.00325 0.33828 -0.05800
C 	C 	0.06496 0.04643 0.36016 0.01200
C 	C 	0.05077 0.02575 0.39620 -0.15800
C 	C 	0.00473 0.96157 0.41064 0.15600
C 	C 	0.97431 0.91820 0.38910 -0.11700
C 	C 	0.98829 0.93892 0.35292 0.05500
C 	C 	0.99450 0.93839 0.45072 -0.08100
C 	C 	0.98624 0.96714 0.46262 -0.01500
C 	C 	0.04190 0.02718 0.29744 -0.07700
C 	C 	0.04195 0.99435 0.28145 0.00600
H 	H 	0.09971 0.09622 0.34901 0.02500
H 	H 	0.07624 0.05948 0.41316 0.06500
H 	H 	0.93958 0.86843 0.40028 0.06500
H 	H 	0.96253 0.90521 0.33589 0.02800
H 	H 	0.99510 0.89806 0.47099 0.06000
H 	H 	0.98073 0.00429 0.44142 -0.00200
H 	H 	0.04672 0.07086 0.27932 0.05200
H 	H 	0.04774 0.95693 0.30102 0.06000
C 	C 	0.14423 0.32074 0.65032 -0.01200
C 	C 	0.20697 0.35284 0.67305 -0.02600
C 	C 	0.23087 0.40273 0.68603 -0.04300
C 	C 	0.19212 0.42075 0.67633 0.01900
C 	C 	0.13055 0.39078 0.65199 -0.04300
C 	C 	0.10673 0.34102 0.63890 -0.02500
C 	C 	0.21654 0.47083 0.69096 0.00700
C 	C 	0.24209 0.51329 0.70472 -0.03500
C 	C 	0.11396 0.26029 0.64562 0.05800
C 	C 	0.08273 0.20882 0.64048 -0.11900
H 	H 	0.23624 0.33746 0.68213 0.04000
H 	H 	0.27901 0.42649 0.70432 0.04700
H 	H 	0.10073 0.40515 0.64377 0.04800
H 	H 	0.05810 0.31642 0.62133 0.04300
C 	C 	0.56375 0.73660 0.73306 0.02000
C 	C 	0.62170 0.76922 0.75950 -0.04000
C 	C 	0.67859 0.79093 0.75491 -0.02400
C 	C 	0.67775 0.78013 0.72382 -0.00700
C 	C 	0.61958 0.74623 0.69795 -0.02400
C 	C 	0.56272 0.72452 0.70255 -0.04000
C 	C 	0.73711 0.81215 0.71502 0.05800
C 	C 	0.78903 0.84113 0.70982 -0.10500
C 	C 	0.50454 0.71132 0.73862 0.01000
C 	C 	0.45222 0.68761 0.74055 -0.03300
H 	H 	0.62276 0.77789 0.78352 0.05100
H 	H 	0.72351 0.81750 0.77490 0.04600
H 	H 	0.61855 0.73815 0.67366 0.04600
H 	H 	0.51788 0.69851 0.68231 0.05000
C 	C 	0.19097 0.80542 0.71173 -0.00400
C 	C 	0.14876 0.75139 0.69708 -0.02600
C 	C 	0.16917 0.71696 0.70312 -0.04000
C 	C 	0.23187 0.73625 0.72390 0.02000
C 	C 	0.27285 0.78797 0.74065 -0.03900
C 	C 	0.25241 0.82244 0.73461 -0.02400
C 	C 	0.25554 0.70596 0.72544 0.00900
C 	C 	0.27518 0.68053 0.72668 -0.03100
C 	C 	0.17558 0.84918 0.69710 0.05800
C 	C 	0.16056 0.88428 0.68396 -0.10200
H 	H 	0.10116 0.73777 0.67940 0.04700
H 	H 	0.13695 0.67667 0.69043 0.04900
H 	H 	0.32118 0.80283 0.75716 0.05300
H 	H 	0.28538 0.86402 0.74611 0.05200
C 	C 	0.14274 0.30535 0.16894 -0.01300
C 	C 	0.18713 0.36715 0.15060 -0.02500
C 	C 	0.20908 0.41811 0.16151 -0.04300
C 	C 	0.18652 0.40743 0.19071 0.01900
C 	C 	0.14238 0.34563 0.20913 -0.04500
C 	C 	0.12070 0.29478 0.19836 -0.02500
C 	C 	0.21530 0.45926 0.20542 0.00600
C 	C 	0.24185 0.50491 0.21627 -0.03500
C 	C 	0.11227 0.25322 0.15389 0.05900
C 	C 	0.08133 0.20523 0.14423 -0.12000
H 	H 	0.20381 0.37584 0.12749 0.04200
H 	H 	0.24404 0.46578 0.14757 0.04800
H 	H 	0.12552 0.33689 0.23216 0.04500
H 	H 	0.08584 0.24711 0.21241 0.03700
C 	C 	0.67743 0.78028 0.22408 -0.00700
C 	C 	0.61869 0.73310 0.20582 -0.02500
C 	C 	0.56172 0.71034 0.21097 -0.04100
C 	C 	0.56330 0.73480 0.23433 0.02000
C 	C 	0.62206 0.78096 0.25330 -0.04000
C 	C 	0.67902 0.80361 0.24823 -0.02400
C 	C 	0.50440 0.71065 0.23965 0.01000
C 	C 	0.45239 0.68687 0.24211 -0.03300
C 	C 	0.73546 0.81049 0.21440 0.05800
C 	C 	0.78694 0.83998 0.20838 -0.10500
H 	H 	0.61701 0.71508 0.18696 0.04500
H 	H 	0.51635 0.67409 0.19654 0.04900
H 	H 	0.62369 0.79957 0.27174 0.05200
H 	H 	0.72435 0.84034 0.26232 0.04700
C 	C 	0.23476 0.73665 0.22755 0.02000
C 	C 	0.27943 0.79628 0.23578 -0.03900
C 	C 	0.25919 0.83111 0.22931 -0.02400
C 	C 	0.19417 0.80661 0.21450 -0.00400
C 	C 	0.14911 0.74535 0.20860 -0.02600
C 	C 	0.16937 0.71051 0.21505 -0.04000
C 	C 	0.17552 0.84818 0.19821 0.05800
C 	C 	0.15998 0.88299 0.18459 -0.10100
C 	C 	0.25646 0.70441 0.22923 0.00900
C 	C 	0.27557 0.67824 0.23082 -0.03100
H 	H 	0.33001 0.81659 0.24588 0.05400
H 	H 	0.29439 0.87832 0.23399 0.05200
H 	H 	0.09874 0.72591 0.19719 0.04700
H 	H 	0.13442 0.66418 0.20904 0.04900
C 	C 	0.77730 0.12251 0.53998 -0.00600
C 	C 	0.81696 0.18857 0.52800 -0.03300
C 	C 	0.79496 0.22305 0.51897 -0.04400
C 	C 	0.73315 0.19159 0.52182 0.01400
C 	C 	0.69208 0.12549 0.53124 -0.04600
C 	C 	0.71407 0.09101 0.54024 -0.03500
C 	C 	0.71404 0.22680 0.51882 0.00100
C 	C 	0.69782 0.25605 0.51633 -0.04000
C 	C 	0.80459 0.08825 0.55839 0.02700
C 	C 	0.82820 0.06033 0.57372 -0.09600
H 	H 	0.86581 0.21330 0.52754 0.03900
H 	H 	0.82678 0.27415 0.51128 0.04300
H 	H 	0.64397 0.10082 0.53304 0.03700
H 	H 	0.68295 0.03995 0.54923 0.03000
C 	C 	0.87785 0.64920 0.57320 -0.00900
C 	C 	0.91343 0.63285 0.57462 -0.02800
C 	C 	0.88346 0.58371 0.55843 -0.04400
C 	C 	0.81788 0.55087 0.54074 0.01700
C 	C 	0.78261 0.56799 0.53876 -0.04300
C 	C 	0.81251 0.61697 0.55500 -0.02700
C 	C 	0.78473 0.49455 0.52948 0.00600
C 	C 	0.75157 0.44642 0.51949 -0.03900
C 	C 	0.90968 0.70240 0.58745 0.05100
C 	C 	0.93930 0.74747 0.59984 -0.10900
H 	H 	0.96424 0.65822 0.58822 0.03900
H 	H 	0.91092 0.57042 0.56038 0.04400
H 	H 	0.73172 0.54244 0.52536 0.04700
H 	H 	0.78492 0.62992 0.55332 0.04300
C 	C 	0.45086 0.22024 0.55163 0.01600
C 	C 	0.41721 0.15980 0.57588 -0.04800
C 	C 	0.36473 0.13860 0.58582 -0.02900
C 	C 	0.34503 0.17737 0.57097 -0.01600
C 	C 	0.38222 0.23976 0.54969 -0.02700
C 	C 	0.43494 0.26111 0.53989 -0.04500
C 	C 	0.27986 0.14837 0.56807 0.05400
C 	C 	0.22414 0.11796 0.56673 -0.12600
C 	C 	0.50216 0.24090 0.53905 0.00200
C 	C 	0.54573 0.26150 0.52746 -0.04100
H 	H 	0.43044 0.12860 0.58605 0.03700
H 	H 	0.33667 0.09048 0.60273 0.03000
H 	H 	0.36779 0.27030 0.53840 0.04000
H 	H 	0.46205 0.30866 0.52208 0.04600
C 	C 	0.77425 0.12084 0.03657 -0.00600
C 	C 	0.81144 0.18638 0.02108 -0.03300
C 	C 	0.78952 0.22085 0.01230 -0.04400
C 	C 	0.73025 0.18987 0.01888 0.01400
C 	C 	0.69125 0.12393 0.03182 -0.04600
C 	C 	0.71317 0.08949 0.04060 -0.03600
C 	C 	0.71215 0.22591 0.01596 0.00100
C 	C 	0.69669 0.25576 0.01358 -0.04000
C 	C 	0.80288 0.08786 0.05477 0.02700
C 	C 	0.82654 0.05997 0.07006 -0.09600
H 	H 	0.85859 0.21100 0.01768 0.04000
H 	H 	0.81967 0.27176 0.00187 0.04400
H 	H 	0.64504 0.09956 0.03652 0.03700
H 	H 	0.68396 0.03882 0.05236 0.03000
C 	C 	0.82220 0.54188 0.05149 0.01700
C 	C 	0.80231 0.53259 0.08158 -0.04300
C 	C 	0.83064 0.58372 0.09510 -0.02800
C 	C 	0.87904 0.64432 0.07865 -0.00900
C 	C 	0.89971 0.65350 0.04903 -0.02700
C 	C 	0.87128 0.60235 0.03545 -0.04300
C 	C 	0.90976 0.69687 0.09319 0.05100
C 	C 	0.93839 0.74358 0.10350 -0.10800
C 	C 	0.78700 0.49058 0.03428 0.00600
C 	C 	0.75367 0.44435 0.02214 -0.03900
H 	H 	0.76402 0.48593 0.09392 0.04500
H 	H 	0.81485 0.57621 0.11824 0.04200
H 	H 	0.93757 0.70027 0.03643 0.04000
H 	H 	0.88657 0.60998 0.01200 0.04500
C 	C 	0.34320 0.17867 0.06536 -0.01500
C 	C 	0.36498 0.14141 0.08132 -0.02900
C 	C 	0.41696 0.16274 0.07073 -0.04800
C 	C 	0.44803 0.22183 0.04466 0.01600
C 	C 	0.42982 0.26133 0.03141 -0.04500
C 	C 	0.37761 0.23985 0.04188 -0.02700
C 	C 	0.50029 0.24324 0.03270 0.00200
C 	C 	0.54444 0.26388 0.02172 -0.04100
C 	C 	0.27830 0.14838 0.06400 0.05400
C 	C 	0.22304 0.11705 0.06415 -0.12600
H 	H 	0.33900 0.09421 0.09982 0.03000
H 	H 	0.43203 0.13273 0.08206 0.03700
H 	H 	0.45498 0.30795 0.01217 0.04600
H 	H 	0.36147 0.26919 0.02963 0.04000
