data_crystal

_cell_length_a 30.12496
_cell_length_b 51.77592
_cell_length_c 15.58521
_cell_angle_alpha 90.00004
_cell_angle_beta  89.99993
_cell_angle_gamma 91.42726

_symmetry_space_group_name_	'P 1'
_symmetry_space_group_name_H-M	'P 1'

loop_
_symmetry_equiv_pos_as_xyz
  x,y,z

loop_
_atom_site_label
_atom_site_type_symbol
_atom_site_fract_x
_atom_site_fract_y
_atom_site_fract_z
_atom_site_charge
Cu	Cu	0.61846 0.79855 0.94276 0.92600
Cu	Cu	0.57357 0.85406 0.97907 0.86900
Cu	Cu	0.54338 0.80557 0.07236 0.90000
Cu	Cu	0.59229 0.75420 0.07386 0.89800
C 	C 	0.68222 0.76191 0.99799 0.25700
O 	O 	0.58850 0.77074 0.87005 -0.35800
C 	C 	0.48726 0.85081 0.04719 0.29200
O 	O 	0.60156 0.79049 0.07187 -0.62900
O 	O 	0.56295 0.81749 0.95598 -0.64500
O 	O 	0.65597 0.82793 0.90095 -0.36800
O 	O 	0.63440 0.85384 0.00880 -0.42000
O 	O 	0.64995 0.74530 0.01828 -0.36200
O 	O 	0.52657 0.79260 0.18517 -0.37300
C 	C 	0.52702 0.76804 0.20772 0.28200
C 	C 	0.55121 0.75912 0.89381 0.27500
O 	O 	0.54095 0.75708 0.97555 -0.39100
O 	O 	0.56033 0.75329 0.18596 -0.38100
O 	O 	0.67423 0.78221 0.95029 -0.35400
C 	C 	0.66337 0.84811 0.94987 0.27300
O 	O 	0.49028 0.82710 0.07812 -0.37100
O 	O 	0.51142 0.85862 0.98172 -0.42400
H 	H 	0.62189 0.79740 0.11671 0.16400
H 	H 	0.54052 0.81402 0.91071 0.17300
Cu	Cu	0.87438 0.70235 0.94276 0.92500
Cu	Cu	0.91928 0.64684 0.97907 0.86800
Cu	Cu	0.94947 0.69533 0.07236 0.89900
Cu	Cu	0.90055 0.74671 0.07386 0.89700
C 	C 	0.81062 0.73899 0.99799 0.25600
O 	O 	0.90434 0.73016 0.87005 -0.35900
C 	C 	0.00559 0.65010 0.04719 0.29000
O 	O 	0.89128 0.71041 0.07187 -0.63000
O 	O 	0.92989 0.68342 0.95598 -0.64600
O 	O 	0.83687 0.67297 0.90095 -0.36900
O 	O 	0.85844 0.64707 0.00880 -0.42000
O 	O 	0.84289 0.75560 0.01828 -0.36200
O 	O 	0.96627 0.70830 0.18517 -0.37200
C 	C 	0.96582 0.73286 0.20772 0.28100
C 	C 	0.94164 0.74179 0.89381 0.27500
O 	O 	0.95190 0.74382 0.97555 -0.39100
O 	O 	0.93252 0.74762 0.18596 -0.38100
O 	O 	0.81861 0.71870 0.95029 -0.35400
C 	C 	0.82948 0.65279 0.94987 0.27300
O 	O 	0.00256 0.67380 0.07812 -0.37200
O 	O 	0.98143 0.64228 0.98172 -0.42400
H 	H 	0.87095 0.70351 0.11671 0.16400
H 	H 	0.95232 0.68689 0.91071 0.17300
Cu	Cu	0.76847 0.45099 0.27023 0.92900
Cu	Cu	0.81424 0.39533 0.23956 0.87400
Cu	Cu	0.86659 0.44605 0.22230 0.89600
Cu	Cu	0.83543 0.49901 0.27661 0.89500
C 	C 	0.75570 0.49286 0.38506 0.28200
O 	O 	0.75076 0.47383 0.17182 -0.35600
C 	C 	0.89137 0.39752 0.13758 0.27500
O 	O 	0.83286 0.46371 0.30862 -0.63600
O 	O 	0.80672 0.43016 0.19609 -0.63900
O 	O 	0.73144 0.42234 0.31838 -0.36900
O 	O 	0.79140 0.39903 0.35172 -0.43400
O 	O 	0.77891 0.50849 0.33451 -0.37600
O 	O 	0.92345 0.46221 0.25383 -0.37400
C 	C 	0.93177 0.48736 0.25934 0.28300
C 	C 	0.78019 0.48370 0.11826 0.26600
O 	O 	0.82117 0.48856 0.14357 -0.38100
O 	O 	0.90124 0.50345 0.28579 -0.38300
O 	O 	0.73978 0.47065 0.35634 -0.35500
C 	C 	0.74920 0.40352 0.36136 0.28900
O 	O 	0.90057 0.42240 0.14940 -0.37000
O 	O 	0.85061 0.38820 0.14371 -0.40900
H 	H 	0.84212 0.46011 0.36831 0.16400
H 	H 	0.79911 0.43065 0.13432 0.17500
Cu	Cu	0.22438 0.54992 0.27023 0.92900
Cu	Cu	0.17861 0.60557 0.23957 0.87300
Cu	Cu	0.12626 0.55485 0.22230 0.89600
Cu	Cu	0.15742 0.50190 0.27661 0.89500
C 	C 	0.23714 0.50805 0.38506 0.28200
O 	O 	0.24208 0.52707 0.17182 -0.35600
C 	C 	0.10147 0.60339 0.13758 0.27500
O 	O 	0.15999 0.53720 0.30862 -0.63600
O 	O 	0.18613 0.57074 0.19609 -0.64000
O 	O 	0.26141 0.57857 0.31838 -0.36900
O 	O 	0.20145 0.60187 0.35172 -0.43500
O 	O 	0.21394 0.49241 0.33451 -0.37700
O 	O 	0.06940 0.53869 0.25383 -0.37400
C 	C 	0.06108 0.51354 0.25934 0.28400
C 	C 	0.21266 0.51720 0.11826 0.26600
O 	O 	0.17168 0.51235 0.14357 -0.38100
O 	O 	0.09160 0.49746 0.28579 -0.38300
O 	O 	0.25306 0.53025 0.35634 -0.35500
C 	C 	0.24364 0.59738 0.36137 0.29000
O 	O 	0.09228 0.57850 0.14940 -0.37000
O 	O 	0.14224 0.61271 0.14371 -0.40900
H 	H 	0.15073 0.54080 0.36831 0.16400
H 	H 	0.19373 0.57026 0.13432 0.17500
Cu	Cu	0.72438 0.54992 0.77023 0.92800
Cu	Cu	0.67861 0.60557 0.73957 0.87300
Cu	Cu	0.62626 0.55485 0.72230 0.89500
Cu	Cu	0.65742 0.50189 0.77661 0.89400
C 	C 	0.73714 0.50805 0.88506 0.29100
O 	O 	0.74208 0.52707 0.67182 -0.36000
C 	C 	0.60147 0.60339 0.63758 0.27500
O 	O 	0.65999 0.53720 0.80862 -0.63600
O 	O 	0.68613 0.57074 0.69609 -0.64000
O 	O 	0.76141 0.57857 0.81838 -0.37100
O 	O 	0.70145 0.60187 0.85172 -0.43600
O 	O 	0.71394 0.49241 0.83451 -0.38100
O 	O 	0.56940 0.53869 0.75384 -0.37500
C 	C 	0.56108 0.51354 0.75934 0.28300
C 	C 	0.71266 0.51720 0.61826 0.27600
O 	O 	0.67168 0.51235 0.64357 -0.38500
O 	O 	0.59160 0.49746 0.78579 -0.38500
O 	O 	0.75306 0.53025 0.85634 -0.35900
C 	C 	0.74364 0.59738 0.86137 0.29000
O 	O 	0.59228 0.57850 0.64940 -0.37200
O 	O 	0.64224 0.61271 0.64371 -0.41100
H 	H 	0.65073 0.54080 0.86831 0.16300
H 	H 	0.69373 0.57026 0.63432 0.17300
Cu	Cu	0.26847 0.45099 0.77023 0.92800
Cu	Cu	0.31424 0.39533 0.73956 0.87300
Cu	Cu	0.36659 0.44605 0.72230 0.89500
Cu	Cu	0.33543 0.49901 0.77661 0.89400
C 	C 	0.25571 0.49286 0.88506 0.29100
O 	O 	0.25076 0.47383 0.67182 -0.36000
C 	C 	0.39137 0.39752 0.63758 0.27500
O 	O 	0.33286 0.46371 0.80862 -0.63600
O 	O 	0.30672 0.43016 0.69609 -0.64000
O 	O 	0.23144 0.42234 0.81838 -0.37100
O 	O 	0.29140 0.39903 0.85172 -0.43600
O 	O 	0.27891 0.50849 0.83451 -0.38100
O 	O 	0.42345 0.46221 0.75383 -0.37500
C 	C 	0.43177 0.48736 0.75934 0.28300
C 	C 	0.28019 0.48370 0.61826 0.27600
O 	O 	0.32117 0.48856 0.64357 -0.38500
O 	O 	0.40125 0.50345 0.78579 -0.38500
O 	O 	0.23978 0.47065 0.85634 -0.35900
C 	C 	0.24920 0.40352 0.86136 0.29000
O 	O 	0.40057 0.42240 0.64940 -0.37200
O 	O 	0.35061 0.38820 0.64371 -0.41100
H 	H 	0.34212 0.46011 0.86831 0.16300
H 	H 	0.29911 0.43065 0.63432 0.17300
Cu	Cu	0.61846 0.29855 0.44275 0.92800
Cu	Cu	0.57357 0.35406 0.47907 0.87300
Cu	Cu	0.54338 0.30557 0.57235 0.89500
Cu	Cu	0.59229 0.25420 0.57385 0.89400
C 	C 	0.68222 0.26191 0.49798 0.28200
O 	O 	0.58850 0.27074 0.37005 -0.35600
C 	C 	0.48726 0.35081 0.54718 0.27600
O 	O 	0.60156 0.29050 0.57186 -0.63500
O 	O 	0.56295 0.31749 0.45597 -0.64000
O 	O 	0.65597 0.32794 0.40094 -0.36900
O 	O 	0.63440 0.35384 0.50880 -0.43600
O 	O 	0.64995 0.24530 0.51828 -0.37800
O 	O 	0.52657 0.29260 0.68516 -0.37500
C 	C 	0.52702 0.26804 0.70771 0.28100
C 	C 	0.55121 0.25912 0.39380 0.27500
O 	O 	0.54095 0.25708 0.47554 -0.38400
O 	O 	0.56033 0.25329 0.68595 -0.38400
O 	O 	0.67423 0.28221 0.45028 -0.35500
C 	C 	0.66337 0.34811 0.44987 0.28800
O 	O 	0.49028 0.32710 0.57811 -0.37200
O 	O 	0.51142 0.35862 0.48171 -0.41100
H 	H 	0.62189 0.29740 0.61670 0.16200
H 	H 	0.54052 0.31402 0.41070 0.17400
Cu	Cu	0.87439 0.20236 0.44275 0.92800
Cu	Cu	0.91928 0.14684 0.47907 0.87300
Cu	Cu	0.94947 0.19533 0.57235 0.89600
Cu	Cu	0.90055 0.24671 0.57385 0.89400
C 	C 	0.81063 0.23899 0.49798 0.28200
O 	O 	0.90434 0.23016 0.37005 -0.35600
C 	C 	0.00559 0.15010 0.54718 0.27500
O 	O 	0.89128 0.21041 0.57186 -0.63500
O 	O 	0.92989 0.18342 0.45597 -0.64000
O 	O 	0.83687 0.17297 0.40094 -0.36900
O 	O 	0.85845 0.14707 0.50880 -0.43600
O 	O 	0.84290 0.25560 0.51828 -0.37800
O 	O 	0.96627 0.20830 0.68516 -0.37400
C 	C 	0.96582 0.23286 0.70771 0.28000
C 	C 	0.94164 0.24179 0.39380 0.27500
O 	O 	0.95190 0.24382 0.47554 -0.38400
O 	O 	0.93252 0.24762 0.68595 -0.38400
O 	O 	0.81861 0.21870 0.45028 -0.35500
C 	C 	0.82948 0.15279 0.44987 0.28800
O 	O 	0.00256 0.17380 0.57811 -0.37200
O 	O 	0.98143 0.14228 0.48171 -0.41000
H 	H 	0.87095 0.20351 0.61670 0.16200
H 	H 	0.95232 0.18689 0.41070 0.17400
Cu	Cu	0.72438 0.04992 0.27023 0.92900
Cu	Cu	0.67860 0.10557 0.23956 0.87400
Cu	Cu	0.62625 0.05485 0.22230 0.89600
Cu	Cu	0.65742 0.00189 0.27661 0.89500
C 	C 	0.73714 0.00805 0.38506 0.28200
O 	O 	0.74208 0.02707 0.17182 -0.35600
C 	C 	0.60147 0.10339 0.13758 0.27500
O 	O 	0.65999 0.03720 0.30862 -0.63600
O 	O 	0.68612 0.07074 0.19609 -0.63900
O 	O 	0.76141 0.07857 0.31838 -0.36900
O 	O 	0.70145 0.10187 0.35172 -0.43500
O 	O 	0.71394 0.99241 0.33451 -0.37600
O 	O 	0.56940 0.03869 0.25383 -0.37400
C 	C 	0.56107 0.01354 0.25934 0.28300
C 	C 	0.71266 0.01720 0.11826 0.26600
O 	O 	0.67168 0.01234 0.14357 -0.38100
O 	O 	0.59160 0.99746 0.28579 -0.38300
O 	O 	0.75306 0.03025 0.35634 -0.35500
C 	C 	0.74364 0.09738 0.36136 0.28900
O 	O 	0.59228 0.07850 0.14940 -0.37000
O 	O 	0.64224 0.11271 0.14371 -0.40900
H 	H 	0.65073 0.04079 0.36831 0.16400
H 	H 	0.69373 0.07026 0.13432 0.17500
Cu	Cu	0.26846 0.95099 0.27023 0.92900
Cu	Cu	0.31424 0.89533 0.23956 0.87400
Cu	Cu	0.36659 0.94605 0.22230 0.89600
Cu	Cu	0.33543 0.99901 0.27661 0.89500
C 	C 	0.25570 0.99286 0.38506 0.28200
O 	O 	0.25076 0.97383 0.17182 -0.35600
C 	C 	0.39137 0.89752 0.13758 0.27500
O 	O 	0.33286 0.96371 0.30862 -0.63600
O 	O 	0.30672 0.93016 0.19609 -0.63900
O 	O 	0.23144 0.92234 0.31838 -0.36900
O 	O 	0.29140 0.89904 0.35172 -0.43500
O 	O 	0.27891 0.00849 0.33451 -0.37700
O 	O 	0.42345 0.96221 0.25383 -0.37400
C 	C 	0.43177 0.98736 0.25934 0.28300
C 	C 	0.28019 0.98370 0.11826 0.26600
O 	O 	0.32116 0.98856 0.14357 -0.38100
O 	O 	0.40124 0.00345 0.28579 -0.38300
O 	O 	0.23978 0.97065 0.35634 -0.35500
C 	C 	0.24920 0.90352 0.36137 0.28900
O 	O 	0.40056 0.92241 0.14940 -0.37000
O 	O 	0.35060 0.88820 0.14371 -0.40900
H 	H 	0.34211 0.96011 0.36831 0.16400
H 	H 	0.29911 0.93065 0.13432 0.17500
Cu	Cu	0.11846 0.79855 0.44276 0.92800
Cu	Cu	0.07357 0.85406 0.47907 0.87300
Cu	Cu	0.04338 0.80557 0.57236 0.89500
Cu	Cu	0.09229 0.75420 0.57386 0.89400
C 	C 	0.18222 0.76191 0.49799 0.28200
O 	O 	0.08850 0.77074 0.37005 -0.35600
C 	C 	0.98725 0.85081 0.54719 0.27700
O 	O 	0.10156 0.79049 0.57187 -0.63500
O 	O 	0.06295 0.81749 0.45598 -0.64000
O 	O 	0.15597 0.82794 0.40095 -0.37000
O 	O 	0.13440 0.85384 0.50880 -0.43600
O 	O 	0.14995 0.74530 0.51828 -0.37800
O 	O 	0.02657 0.79260 0.68517 -0.37500
C 	C 	0.02702 0.76804 0.70772 0.28000
C 	C 	0.05121 0.75912 0.39381 0.27500
O 	O 	0.04095 0.75708 0.47555 -0.38400
O 	O 	0.06033 0.75329 0.68596 -0.38400
O 	O 	0.17423 0.78221 0.45029 -0.35500
C 	C 	0.16337 0.84811 0.44987 0.28800
O 	O 	0.99028 0.82710 0.57812 -0.37200
O 	O 	0.01142 0.85862 0.48172 -0.41200
H 	H 	0.12189 0.79740 0.61671 0.16200
H 	H 	0.04052 0.81402 0.41071 0.17400
Cu	Cu	0.37438 0.70235 0.44276 0.92800
Cu	Cu	0.41928 0.64684 0.47907 0.87300
Cu	Cu	0.44947 0.69533 0.57236 0.89500
Cu	Cu	0.40055 0.74671 0.57386 0.89400
C 	C 	0.31062 0.73899 0.49799 0.28200
O 	O 	0.40434 0.73016 0.37005 -0.35600
C 	C 	0.50559 0.65010 0.54719 0.27600
O 	O 	0.39129 0.71041 0.57187 -0.63500
O 	O 	0.42989 0.68342 0.45598 -0.64000
O 	O 	0.33687 0.67297 0.40095 -0.36900
O 	O 	0.35845 0.64707 0.50880 -0.43600
O 	O 	0.34290 0.75560 0.51828 -0.37800
O 	O 	0.46627 0.70830 0.68517 -0.37500
C 	C 	0.46582 0.73286 0.70772 0.28100
C 	C 	0.44164 0.74179 0.39381 0.27500
O 	O 	0.45190 0.74382 0.47555 -0.38400
O 	O 	0.43252 0.74762 0.68596 -0.38400
O 	O 	0.31861 0.71870 0.45029 -0.35500
C 	C 	0.32948 0.65279 0.44987 0.28800
O 	O 	0.50256 0.67380 0.57812 -0.37200
O 	O 	0.48143 0.64228 0.48172 -0.41100
H 	H 	0.37095 0.70351 0.61671 0.16200
H 	H 	0.45233 0.68689 0.41071 0.17400
Cu	Cu	0.11846 0.29855 0.94275 0.92500
Cu	Cu	0.07357 0.35406 0.97907 0.86800
Cu	Cu	0.04338 0.30557 0.07235 0.89900
Cu	Cu	0.09229 0.25420 0.07385 0.89700
C 	C 	0.18222 0.26191 0.99798 0.25600
O 	O 	0.08850 0.27074 0.87005 -0.36000
C 	C 	0.98726 0.35081 0.04718 0.29100
O 	O 	0.10156 0.29050 0.07186 -0.63000
O 	O 	0.06295 0.31749 0.95597 -0.64600
O 	O 	0.15597 0.32794 0.90094 -0.36900
O 	O 	0.13440 0.35384 0.00880 -0.42000
O 	O 	0.14995 0.24530 0.01827 -0.36200
O 	O 	0.02657 0.29260 0.18516 -0.37300
C 	C 	0.02702 0.26804 0.20771 0.28100
C 	C 	0.05121 0.25912 0.89380 0.27500
O 	O 	0.04095 0.25708 0.97554 -0.39100
O 	O 	0.06033 0.25329 0.18595 -0.38100
O 	O 	0.17423 0.28221 0.95028 -0.35400
C 	C 	0.16337 0.34811 0.94987 0.27300
O 	O 	0.99028 0.32711 0.07811 -0.37100
O 	O 	0.01142 0.35862 0.98171 -0.42500
H 	H 	0.12189 0.29740 0.11670 0.16400
H 	H 	0.04052 0.31402 0.91070 0.17300
Cu	Cu	0.37438 0.20236 0.94275 0.92500
Cu	Cu	0.41928 0.14684 0.97907 0.86800
Cu	Cu	0.44947 0.19533 0.07235 0.89900
Cu	Cu	0.40055 0.24671 0.07385 0.89700
C 	C 	0.31062 0.23899 0.99798 0.25600
O 	O 	0.40434 0.23016 0.87005 -0.35900
C 	C 	0.50559 0.15010 0.04718 0.29100
O 	O 	0.39129 0.21041 0.07186 -0.63000
O 	O 	0.42989 0.18342 0.95597 -0.64600
O 	O 	0.33687 0.17297 0.90094 -0.36900
O 	O 	0.35844 0.14707 0.00880 -0.42000
O 	O 	0.34290 0.25560 0.01827 -0.36200
O 	O 	0.46627 0.20830 0.18516 -0.37300
C 	C 	0.46582 0.23286 0.20771 0.28200
C 	C 	0.44164 0.24179 0.89380 0.27500
O 	O 	0.45190 0.24382 0.97554 -0.39100
O 	O 	0.43252 0.24762 0.18595 -0.38100
O 	O 	0.31861 0.21870 0.95028 -0.35400
C 	C 	0.32948 0.15279 0.94987 0.27300
O 	O 	0.50256 0.17380 0.07811 -0.37100
O 	O 	0.48143 0.14228 0.98171 -0.42400
H 	H 	0.37095 0.20351 0.11670 0.16400
H 	H 	0.45232 0.18689 0.91070 0.17300
Cu	Cu	0.76846 0.95099 0.77023 0.92800
Cu	Cu	0.81424 0.89533 0.73956 0.87300
Cu	Cu	0.86659 0.94605 0.72230 0.89500
Cu	Cu	0.83543 0.99901 0.77661 0.89400
C 	C 	0.75570 0.99286 0.88506 0.29100
O 	O 	0.75076 0.97383 0.67182 -0.36000
C 	C 	0.89137 0.89752 0.63758 0.27500
O 	O 	0.83286 0.96371 0.80862 -0.63600
O 	O 	0.80672 0.93016 0.69609 -0.64000
O 	O 	0.73144 0.92234 0.81838 -0.37100
O 	O 	0.79140 0.89904 0.85172 -0.43600
O 	O 	0.77891 0.00849 0.83451 -0.38100
O 	O 	0.92344 0.96221 0.75384 -0.37500
C 	C 	0.93177 0.98736 0.75934 0.28200
C 	C 	0.78019 0.98370 0.61826 0.27600
O 	O 	0.82116 0.98856 0.64357 -0.38500
O 	O 	0.90124 0.00345 0.78579 -0.38400
O 	O 	0.73978 0.97065 0.85634 -0.35900
C 	C 	0.74920 0.90352 0.86137 0.29000
O 	O 	0.90056 0.92241 0.64940 -0.37200
O 	O 	0.85060 0.88820 0.64371 -0.41100
H 	H 	0.84211 0.96011 0.86831 0.16300
H 	H 	0.79911 0.93065 0.63432 0.17300
Cu	Cu	0.22438 0.04992 0.77023 0.92800
Cu	Cu	0.17861 0.10557 0.73956 0.87300
Cu	Cu	0.12625 0.05485 0.72230 0.89500
Cu	Cu	0.15742 0.00189 0.77661 0.89400
C 	C 	0.23714 0.00805 0.88506 0.29100
O 	O 	0.24208 0.02707 0.67182 -0.36000
C 	C 	0.10147 0.10339 0.63758 0.27500
O 	O 	0.15998 0.03720 0.80862 -0.63600
O 	O 	0.18612 0.07074 0.69609 -0.64000
O 	O 	0.26141 0.07857 0.81838 -0.37100
O 	O 	0.20145 0.10187 0.85172 -0.43700
O 	O 	0.21394 0.99241 0.83451 -0.38100
O 	O 	0.06940 0.03869 0.75384 -0.37600
C 	C 	0.06107 0.01354 0.75934 0.28300
C 	C 	0.21266 0.01720 0.61826 0.27600
O 	O 	0.17168 0.01234 0.64357 -0.38500
O 	O 	0.09160 0.99746 0.78579 -0.38500
O 	O 	0.25306 0.03025 0.85634 -0.35900
C 	C 	0.24364 0.09738 0.86137 0.29000
O 	O 	0.09228 0.07850 0.64940 -0.37200
O 	O 	0.14224 0.11271 0.64371 -0.41100
H 	H 	0.15073 0.04079 0.86831 0.16200
H 	H 	0.19373 0.07026 0.63432 0.17300
C 	C 	0.97736 0.99650 0.75804 -0.04000
C 	C 	0.01549 0.00440 0.75804 -0.04400
C 	C 	0.29761 0.13351 0.92323 -0.05400
C 	C 	0.27217 0.11704 0.89722 -0.06400
C 	C 	0.26552 0.24721 0.00300 -0.02700
C 	C 	0.22733 0.25369 0.00300 -0.02700
C 	C 	0.92492 0.88121 0.60417 -0.04700
C 	C 	0.95297 0.86709 0.57776 -0.04800
C 	C 	0.22733 0.75369 0.50301 -0.04100
C 	C 	0.26552 0.74721 0.50301 -0.04100
C 	C 	0.23953 0.00236 0.46530 -0.04400
C 	C 	0.22658 0.00941 0.53439 -0.04700
C 	C 	0.25332 0.99855 0.96530 -0.07200
C 	C 	0.26627 0.99149 0.03439 -0.01900
C 	C 	0.19524 0.86740 0.42323 -0.05600
C 	C 	0.22067 0.88387 0.39723 -0.05900
C 	C 	0.76627 0.99149 0.53439 -0.04700
C 	C 	0.75332 0.99855 0.46530 -0.04400
C 	C 	0.72658 0.00941 0.03439 -0.01900
C 	C 	0.73953 0.00236 0.96530 -0.07200
C 	C 	0.56792 0.11970 0.10417 -0.04200
C 	C 	0.53987 0.13381 0.07776 -0.05000
C 	C 	0.47736 0.99650 0.25804 -0.04000
C 	C 	0.51549 0.00440 0.25804 -0.04000
C 	C 	0.02068 0.24951 0.82959 -0.05100
C 	C 	0.99547 0.24173 0.77453 -0.04100
C 	C 	0.97216 0.25139 0.32959 -0.04600
C 	C 	0.99737 0.25918 0.27453 -0.04000
C 	C 	0.03987 0.13381 0.57776 -0.04800
C 	C 	0.06792 0.11970 0.60416 -0.04700
C 	C 	0.77217 0.11704 0.39722 -0.05900
C 	C 	0.79761 0.13351 0.42323 -0.05600
C 	C 	0.52068 0.24951 0.32959 -0.04600
C 	C 	0.49547 0.24173 0.27453 -0.04100
C 	C 	0.47216 0.25139 0.82959 -0.04900
C 	C 	0.49737 0.25918 0.77453 -0.04300
C 	C 	0.72733 0.25369 0.50300 -0.04100
C 	C 	0.76552 0.24721 0.50300 -0.04100
C 	C 	0.42493 0.38121 0.60416 -0.04700
C 	C 	0.45297 0.36709 0.57775 -0.04800
C 	C 	0.22068 0.38387 0.89722 -0.06400
C 	C 	0.19524 0.36740 0.92323 -0.05400
C 	C 	0.56792 0.61970 0.60417 -0.04700
C 	C 	0.53987 0.63381 0.57776 -0.04800
C 	C 	0.51549 0.50440 0.75804 -0.04200
C 	C 	0.47736 0.49650 0.75804 -0.04200
C 	C 	0.22658 0.50941 0.03439 -0.01900
C 	C 	0.23953 0.50236 0.96530 -0.07200
C 	C 	0.25332 0.49855 0.46530 -0.04400
C 	C 	0.26627 0.49149 0.53439 -0.04700
C 	C 	0.27217 0.61704 0.39723 -0.05900
C 	C 	0.29761 0.63351 0.42323 -0.05600
C 	C 	0.73953 0.50236 0.46530 -0.04400
C 	C 	0.72658 0.50941 0.53439 -0.04700
C 	C 	0.75332 0.49855 0.96530 -0.07200
C 	C 	0.76627 0.49149 0.03439 -0.01900
C 	C 	0.72068 0.38386 0.39722 -0.05900
C 	C 	0.69524 0.36740 0.42323 -0.05600
C 	C 	0.95298 0.36709 0.07775 -0.05000
C 	C 	0.92493 0.38121 0.10416 -0.04200
C 	C 	0.97736 0.49650 0.25804 -0.03900
C 	C 	0.01549 0.50440 0.25804 -0.04200
C 	C 	0.99737 0.75918 0.77453 -0.04200
C 	C 	0.97216 0.75139 0.82959 -0.04900
C 	C 	0.02068 0.74951 0.32959 -0.04800
C 	C 	0.99547 0.74173 0.27453 -0.03900
C 	C 	0.06792 0.61970 0.10417 -0.04300
C 	C 	0.03987 0.63381 0.07776 -0.05000
C 	C 	0.79761 0.63351 0.92323 -0.05400
C 	C 	0.77217 0.61704 0.89723 -0.06400
C 	C 	0.49737 0.75918 0.27453 -0.04100
C 	C 	0.47216 0.75139 0.32959 -0.04600
C 	C 	0.52068 0.74951 0.82959 -0.04900
C 	C 	0.49547 0.74173 0.77453 -0.04300
C 	C 	0.69524 0.86740 0.92323 -0.05400
C 	C 	0.72067 0.88387 0.89723 -0.06400
C 	C 	0.45297 0.86709 0.07776 -0.05000
C 	C 	0.42492 0.88121 0.10417 -0.04200
C 	C 	0.72733 0.75369 0.00300 -0.02700
C 	C 	0.76552 0.74721 0.00301 -0.02700
