data_crystal

_cell_length_a 16.78795
_cell_length_b 16.13569
_cell_length_c 76.81404
_cell_angle_alpha 90.06916
_cell_angle_beta  89.95592
_cell_angle_gamma 120.14650

_symmetry_space_group_name_	'P 1'
_symmetry_space_group_name_H-M	'P 1'

loop_
_symmetry_equiv_pos_as_xyz
  x,y,z

loop_
_atom_site_label
_atom_site_type_symbol
_atom_site_fract_x
_atom_site_fract_y
_atom_site_fract_z
_atom_site_charge
C 	C 	0.86825 0.42992 0.53855 0.31600
C 	C 	0.58764 0.45549 0.57984 0.31300
C 	C 	0.87475 0.44900 0.58619 0.31700
C 	C 	0.58756 0.39820 0.53515 0.31000
C 	C 	0.62045 0.19464 0.59424 0.31500
C 	C 	0.60725 0.14476 0.54310 0.30500
Ni	Ni	0.74855 0.47621 0.56116 1.11900
Ni	Ni	0.55918 0.26797 0.56516 1.12600
Ni	Ni	0.75550 0.27934 0.56609 1.13000
O 	O 	0.82394 0.47832 0.53977 -0.35700
O 	O 	0.86777 0.37456 0.55153 -0.34200
O 	O 	0.57067 0.23382 0.58994 -0.36500
O 	O 	0.67460 0.48185 0.58208 -0.36700
O 	O 	0.52851 0.36701 0.57504 -0.34000
O 	O 	0.69718 0.18832 0.54614 -0.35400
O 	O 	0.86551 0.51138 0.57656 -0.33400
O 	O 	0.80744 0.36089 0.58740 -0.37200
O 	O 	0.54949 0.14636 0.55484 -0.34900
O 	O 	0.64512 0.47193 0.54509 -0.35500
O 	O 	0.53856 0.30955 0.54148 -0.35400
O 	O 	0.66478 0.17634 0.58211 -0.35200
O 	O 	0.68857 0.34197 0.56052 -0.71500
H 	H 	0.68761 0.33323 0.54783 0.15500
C 	C 	0.35902 0.53942 0.42629 0.30700
C 	C 	0.13395 0.59966 0.37249 0.33300
C 	C 	0.39388 0.55372 0.37775 0.32400
C 	C 	0.11641 0.57446 0.42037 0.29700
C 	C 	0.41512 0.82716 0.37532 0.32300
C 	C 	0.38472 0.82684 0.42681 0.30700
Ni	Ni	0.22412 0.51971 0.39652 1.12200
Ni	Ni	0.25264 0.73703 0.39835 1.12600
Ni	Ni	0.42580 0.70742 0.40284 1.12500
O 	O 	0.30200 0.48471 0.41359 -0.33000
O 	O 	0.40805 0.63445 0.42514 -0.37500
O 	O 	0.36470 0.84320 0.38651 -0.36800
O 	O 	0.12820 0.52133 0.37908 -0.34000
O 	O 	0.20859 0.68234 0.37452 -0.38000
O 	O 	0.44624 0.82612 0.41601 -0.36600
O 	O 	0.30652 0.52681 0.37563 -0.34300
O 	O 	0.43792 0.59985 0.39182 -0.36900
O 	O 	0.30061 0.80145 0.42142 -0.36300
O 	O 	0.12968 0.50316 0.41567 -0.33700
O 	O 	0.12772 0.64201 0.40909 -0.35500
O 	O 	0.44336 0.76674 0.37917 -0.37100
O 	O 	0.29547 0.65011 0.40272 -0.71300
H 	H 	0.28483 0.64439 0.41534 0.14800
C 	C 	0.53968 0.67677 0.66437 0.29400
C 	C 	0.26244 0.78467 0.65965 0.32400
C 	C 	0.28734 0.53449 0.67723 0.32400
C 	C 	0.49912 0.91896 0.64258 0.31000
C 	C 	0.19899 0.54678 0.62451 0.32700
C 	C 	0.44611 0.65572 0.60933 0.30600
Ni	Ni	0.40576 0.74419 0.66847 1.12900
Ni	Ni	0.34420 0.74228 0.62853 1.12500
Ni	Ni	0.36454 0.56911 0.64270 1.13300
O 	O 	0.52898 0.74796 0.66999 -0.35100
O 	O 	0.46693 0.59133 0.66032 -0.32800
O 	O 	0.21872 0.62932 0.63104 -0.38000
O 	O 	0.27432 0.72033 0.66720 -0.35900
O 	O 	0.29793 0.81488 0.64400 -0.34700
O 	O 	0.45391 0.61267 0.62328 -0.37100
O 	O 	0.35354 0.61709 0.68319 -0.33800
O 	O 	0.26583 0.52598 0.66087 -0.35900
O 	O 	0.38415 0.68535 0.60839 -0.35900
O 	O 	0.46641 0.88727 0.65864 -0.31800
O 	O 	0.46636 0.86342 0.62868 -0.36500
O 	O 	0.26044 0.51861 0.62489 -0.35800
O 	O 	0.39679 0.69905 0.64563 -0.71700
H 	H 	0.46188 0.73268 0.64200 0.17400
C 	C 	0.81636 0.84655 0.70816 0.30200
C 	C 	0.08530 0.90838 0.76279 0.32300
C 	C 	0.81645 0.87809 0.75892 0.32700
C 	C 	0.09701 0.89967 0.71167 0.29100
C 	C 	0.03415 0.14049 0.75904 0.27400
C 	C 	0.07847 0.17361 0.71229 0.26900
Ni	Ni	0.93707 0.83648 0.73610 1.13200
Ni	Ni	0.11100 0.05279 0.73606 1.11500
Ni	Ni	0.90631 0.02075 0.73086 1.12300
O 	O 	0.81818 0.79921 0.72203 -0.35000
O 	O 	0.84170 0.93907 0.70939 -0.32700
O 	O 	0.10218 0.15736 0.74849 -0.37300
O 	O 	0.04459 0.84408 0.75059 -0.37300
O 	O 	0.11006 0.99846 0.75999 -0.36100
O 	O 	0.98882 0.13738 0.71568 -0.30400
O 	O 	0.87354 0.84455 0.75879 -0.34300
O 	O 	0.80217 0.91418 0.74473 -0.35600
O 	O 	0.11873 0.12135 0.71391 -0.37800
O 	O 	0.01051 0.83138 0.71465 -0.36000
O 	O 	0.14620 0.96227 0.72413 -0.35500
O 	O 	0.98518 0.96745 0.73105 -0.69600
C 	C 	0.23960 0.73188 0.93007 0.29700
C 	C 	0.49380 0.79104 0.87178 0.33000
C 	C 	0.21589 0.74806 0.87939 0.32900
C 	C 	0.52802 0.78674 0.91974 0.30600
C 	C 	0.24760 0.51608 0.87041 0.33000
C 	C 	0.27136 0.46263 0.91653 0.30600
Ni	Ni	0.38316 0.80858 0.90098 1.12100
Ni	Ni	0.40430 0.62186 0.89452 1.12800
Ni	Ni	0.20525 0.59381 0.90150 1.12600
O 	O 	0.28212 0.80041 0.91819 -0.34600
O 	O 	0.19909 0.63963 0.92577 -0.34600
O 	O 	0.30985 0.51107 0.88006 -0.36500
O 	O 	0.49498 0.84671 0.88437 -0.34100
O 	O 	0.43722 0.69860 0.87228 -0.36600
O 	O 	0.20210 0.47368 0.91071 -0.36900
O 	O 	0.30566 0.80168 0.87951 -0.36100
O 	O 	0.17263 0.69177 0.89261 -0.36300
O 	O 	0.35939 0.53047 0.91475 -0.35600
O 	O 	0.47187 0.82192 0.92071 -0.35800
O 	O 	0.52156 0.72615 0.90705 -0.33900
O 	O 	0.20171 0.55599 0.87653 -0.39300
O 	O 	0.33477 0.67551 0.90301 -0.72300
H 	H 	0.34334 0.66976 0.91555 0.16400
C 	C 	0.68900 0.21852 0.10333 0.30100
C 	C 	0.47432 0.22845 0.04298 0.32600
C 	C 	0.73195 0.19303 0.05481 0.31800
C 	C 	0.44857 0.23971 0.09085 0.30200
C 	C 	0.74772 0.45994 0.04365 0.32100
C 	C 	0.71779 0.49829 0.09363 0.30800
Ni	Ni	0.56060 0.17049 0.07174 1.11800
Ni	Ni	0.58692 0.38468 0.06626 1.12800
Ni	Ni	0.76182 0.36351 0.07503 1.13000
O 	O 	0.64018 0.15366 0.09113 -0.33900
O 	O 	0.74854 0.30948 0.09933 -0.35500
O 	O 	0.69852 0.48382 0.05350 -0.35000
O 	O 	0.46247 0.15779 0.05325 -0.34100
O 	O 	0.55008 0.31055 0.04387 -0.36500
O 	O 	0.78025 0.49018 0.08430 -0.35200
O 	O 	0.64353 0.16142 0.05230 -0.34800
O 	O 	0.77479 0.24929 0.06805 -0.34100
O 	O 	0.63343 0.46685 0.08761 -0.36700
O 	O 	0.46794 0.16950 0.08987 -0.34800
O 	O 	0.46114 0.29629 0.07732 -0.36600
O 	O 	0.77784 0.40459 0.04990 -0.35800
O 	O 	0.63120 0.30470 0.07482 -0.71200
H 	H 	0.62058 0.30940 0.08728 0.14700
C 	C 	0.14988 0.12806 0.20513 0.30500
C 	C 	0.92657 0.08456 0.26772 0.36000
C 	C 	0.18207 0.10424 0.25280 0.32400
C 	C 	0.87574 0.10880 0.21864 0.30700
C 	C 	0.92003 0.80005 0.24878 0.37400
C 	C 	0.87916 0.85723 0.20574 0.29800
Ni	Ni	0.04923 0.14975 0.23674 1.10000
Ni	Ni	0.86101 0.94168 0.23887 1.11700
Ni	Ni	0.05196 0.95423 0.22738 1.09400
O 	O 	0.15616 0.17994 0.21907 -0.36700
O 	O 	0.10718 0.03308 0.20563 -0.37200
O 	O 	0.85172 0.81836 0.24790 -0.35600
O 	O 	0.95938 0.14897 0.25533 -0.33300
O 	O 	0.88867 0.99273 0.26383 -0.38100
O 	O 	0.94723 0.84978 0.21310 -0.35000
O 	O 	0.11649 0.12253 0.25633 -0.36000
O 	O 	0.17327 0.04634 0.23981 -0.34200
O 	O 	0.82677 0.88154 0.21498 -0.36000
O 	O 	0.96631 0.16741 0.21885 -0.32600
O 	O 	0.83318 0.04699 0.23154 -0.34200
O 	O 	0.98547 0.01909 0.23107 -0.66800
H 	H 	0.97405 0.02581 0.21874 0.15700
C 	C 	0.57771 0.13153 0.32605 0.30100
C 	C 	0.79823 0.44235 0.27473 0.32700
C 	C 	0.81515 0.24911 0.31312 0.32500
C 	C 	0.53694 0.31332 0.28146 0.29700
C 	C 	0.85078 0.52587 0.32824 0.32100
C 	C 	0.60013 0.43048 0.33647 0.30500
Ni	Ni	0.67143 0.25403 0.29232 1.11800
Ni	Ni	0.69698 0.46149 0.30338 1.12700
Ni	Ni	0.71222 0.32963 0.33203 1.13100
O 	O 	0.60648 0.13281 0.30957 -0.33500
O 	O 	0.58995 0.20989 0.33364 -0.36400
O 	O 	0.79050 0.54658 0.32166 -0.33900
O 	O 	0.73387 0.35283 0.27171 -0.33800
O 	O 	0.80694 0.47736 0.29024 -0.36000
O 	O 	0.66237 0.41069 0.34325 -0.35700
O 	O 	0.80180 0.28412 0.29895 -0.35800
O 	O 	0.76828 0.24327 0.32725 -0.33600
O 	O 	0.59738 0.44551 0.31959 -0.36800
O 	O 	0.55011 0.23936 0.28307 -0.35200
O 	O 	0.60719 0.40388 0.28249 -0.34900
O 	O 	0.83631 0.43928 0.32688 -0.36800
O 	O 	0.66804 0.33530 0.30961 -0.71300
H 	H 	0.60123 0.30592 0.31151 0.17100
C 	C 	0.92428 0.75346 0.99564 0.31800
C 	C 	0.11568 0.11151 0.95200 0.31900
C 	C 	0.15813 0.90324 0.98362 0.32700
C 	C 	0.85770 0.94955 0.95917 0.28100
C 	C 	0.16780 0.15326 0.00720 0.32700
C 	C 	0.91582 0.03083 0.01679 0.31200
Ni	Ni	0.00950 0.90851 0.96569 1.08700
Ni	Ni	0.04279 0.95037 0.00704 1.09100
O 	O 	0.95463 0.77479 0.97911 -0.31400
O 	O 	0.93228 0.81918 0.00689 -0.34200
O 	O 	0.10033 0.16828 0.00258 -0.38700
O 	O 	0.06197 0.02122 0.94753 -0.34300
O 	O 	0.12131 0.13703 0.96823 -0.38600
O 	O 	0.97926 0.00812 0.02190 -0.29900
O 	O 	0.14336 0.95246 0.97215 -0.38100
O 	O 	0.11397 0.88420 0.99859 -0.36400
O 	O 	0.90618 0.04722 0.00031 -0.34600
O 	O 	0.88228 0.88366 0.95792 -0.31900
O 	O 	0.91996 0.04155 0.96231 -0.31100
O 	O 	0.16132 0.07079 0.00448 -0.37700
O 	O 	0.99518 0.96690 0.98568 -0.67600
H 	H 	0.92833 0.92723 0.98769 0.17300
C 	C 	0.37021 0.23963 0.28591 -0.03100
C 	C 	0.44657 0.29323 0.27507 -0.06900
C 	C 	0.43221 0.29364 0.25702 0.13200
C 	C 	0.34642 0.22911 0.24981 -0.02900
C 	C 	0.27333 0.16626 0.26054 -0.07300
C 	C 	0.28447 0.17417 0.27875 0.13400
Br	Br	0.18580 0.09093 0.29403 -0.17300
H 	H 	0.37983 0.24118 0.29988 0.07300
H 	H 	0.33625 0.22893 0.23588 0.09200
Br	Br	0.52905 0.38058 0.24197 -0.17600
C 	C 	0.96214 0.67948 0.25911 0.03300
C 	C 	0.89948 0.69898 0.25052 -0.10300
C 	C 	0.81703 0.62080 0.24384 0.14200
C 	C 	0.79179 0.52682 0.24862 -0.03800
C 	C 	0.84551 0.51045 0.26045 -0.06800
C 	C 	0.93674 0.58468 0.26328 0.14700
Br	Br	0.02298 0.55887 0.27491 -0.21400
H 	H 	0.02897 0.73760 0.26307 0.04500
H 	H 	0.72679 0.46765 0.24431 0.10300
Br	Br	0.74190 0.63856 0.22725 -0.16500
C 	C 	0.95617 0.24873 0.30493 0.01500
C 	C 	0.86684 0.19782 0.31181 -0.07300
C 	C 	0.81747 0.09781 0.30942 0.11700
C 	C 	0.84113 0.05691 0.29571 0.01500
C 	C 	0.91965 0.11449 0.28564 -0.08600
C 	C 	0.98273 0.20782 0.29166 0.16300
Br	Br	0.10506 0.27939 0.28231 -0.23200
H 	H 	0.00014 0.32372 0.30819 0.05300
H 	H 	0.79702 0.98180 0.29256 0.05400
Br	Br	0.72436 0.01640 0.32553 -0.16200
C 	C 	0.88123 0.54852 0.02416 -0.03900
C 	C 	0.78778 0.51302 0.02737 -0.05900
C 	C 	0.73724 0.53866 0.01604 0.13700
C 	C 	0.78275 0.60328 0.00246 -0.02100
C 	C 	0.87919 0.65377 0.00172 -0.07300
C 	C 	0.92840 0.62288 0.01234 0.18100
Br	Br	0.06003 0.69113 0.01361 -0.27000
H 	H 	0.91994 0.52700 0.03242 0.10900
H 	H 	0.74409 0.62419 0.99404 0.09300
Br	Br	0.60914 0.49524 0.01977 -0.18500
C 	C 	0.33358 0.25784 0.00781 -0.01900
C 	C 	0.24931 0.22555 0.01640 -0.08500
C 	C 	0.24874 0.21909 0.03465 0.13200
C 	C 	0.31972 0.21345 0.04313 -0.03600
C 	C 	0.39554 0.22348 0.03363 -0.07400
C 	C 	0.40339 0.24817 0.01586 0.13400
Br	Br	0.50114 0.25442 0.00187 -0.15000
H 	H 	0.33788 0.27198 0.99394 0.08200
H 	H 	0.31562 0.20093 0.05703 0.09200
Br	Br	0.14440 0.20134 0.04779 -0.22200
C 	C 	0.73499 0.05045 0.04257 -0.02300
C 	C 	0.77906 0.15027 0.04503 -0.06400
C 	C 	0.87241 0.20747 0.04013 0.14000
C 	C 	0.91996 0.16501 0.03296 -0.02500
C 	C 	0.87523 0.06611 0.02983 -0.05100
C 	C 	0.78254 0.00841 0.03495 0.14500
Br	Br	0.71950 0.87231 0.03140 -0.19000
H 	H 	0.66423 0.00533 0.04672 0.08800
Br	Br	0.93480 0.34475 0.04171 -0.17300
C 	C 	0.69346 0.18514 0.12083 -0.08400
C 	C 	0.75300 0.14954 0.12435 0.15300
C 	C 	0.76741 0.13176 0.14153 -0.07300
C 	C 	0.72190 0.14795 0.15529 0.03400
C 	C 	0.65951 0.18004 0.15171 0.08800
C 	C 	0.64608 0.19907 0.13452 -0.00900
H 	H 	0.81524 0.10681 0.14423 0.10200
C 	C 	0.74462 0.13687 0.17340 0.02700
H 	H 	0.60013 0.22648 0.13184 0.06200
C 	C 	0.80342 0.21864 0.18316 -0.07500
C 	C 	0.83984 0.20984 0.19897 0.15500
C 	C 	0.82059 0.11865 0.20473 -0.09200
C 	C 	0.75543 0.03665 0.19576 0.02200
C 	C 	0.71725 0.04535 0.18016 0.10300
H 	H 	0.82214 0.28917 0.17830 0.10300
H 	H 	0.73707 0.96622 0.20054 0.05200
Br	Br	0.59202 0.19801 0.17009 -0.16800
Br	Br	0.81768 0.12788 0.10589 -0.15000
Br	Br	0.62906 0.93163 0.16811 -0.21400
C 	C 	0.40374 0.24843 0.10657 -0.09200
C 	C 	0.31145 0.18039 0.11029 0.15300
C 	C 	0.27463 0.17996 0.12665 -0.07800
C 	C 	0.32905 0.24742 0.13935 0.02800
C 	C 	0.41967 0.31903 0.13523 0.08600
C 	C 	0.45662 0.31899 0.11891 -0.01400
H 	H 	0.20458 0.12524 0.12971 0.09500
C 	C 	0.29499 0.23454 0.15743 0.02900
H 	H 	0.52764 0.37166 0.11607 0.06100
C 	C 	0.32584 0.19249 0.16965 -0.07700
C 	C 	0.28344 0.16437 0.18593 0.15400
C 	C 	0.20812 0.17658 0.18998 -0.09200
C 	C 	0.18146 0.22472 0.17826 -0.01200
C 	C 	0.22477 0.25404 0.16202 0.08500
H 	H 	0.38107 0.17907 0.16629 0.10300
H 	H 	0.12477 0.23607 0.18148 0.05800
Br	Br	0.49453 0.41630 0.15185 -0.18100
Br	Br	0.23511 0.08675 0.09328 -0.18800
Br	Br	0.32885 0.10859 0.20241 -0.18200
Br	Br	0.18662 0.31954 0.14623 -0.20200
C 	C 	0.85395 0.82440 0.18754 -0.07500
C 	C 	0.76099 0.76538 0.18226 0.14900
C 	C 	0.74160 0.71925 0.16610 -0.06600
C 	C 	0.81314 0.73092 0.15512 0.01100
C 	C 	0.90503 0.79550 0.15970 0.13800
C 	C 	0.92490 0.84268 0.17573 -0.03000
H 	H 	0.67063 0.67200 0.16226 0.10000
C 	C 	0.79140 0.67192 0.13928 0.04200
H 	H 	0.99606 0.89077 0.17934 0.08900
C 	C 	0.78638 0.71007 0.12321 -0.07700
C 	C 	0.76521 0.65476 0.10808 0.15700
C 	C 	0.74765 0.55991 0.10903 -0.08800
C 	C 	0.75295 0.52184 0.12508 -0.00600
C 	C 	0.77485 0.57734 0.14019 0.09000
H 	H 	0.79933 0.78290 0.12248 0.09800
H 	H 	0.73869 0.44853 0.12585 0.06600
Br	Br	0.00464 0.81727 0.14452 -0.27400
Br	Br	0.65888 0.74629 0.19650 -0.17000
Br	Br	0.76179 0.71026 0.08618 -0.17000
Br	Br	0.78168 0.52281 0.16196 -0.15800
C 	C 	0.61341 0.79040 0.94625 -0.02600
C 	C 	0.61161 0.83282 0.93049 -0.06700
C 	C 	0.68396 0.92598 0.92649 0.14200
C 	C 	0.76144 0.97069 0.93729 -0.04700
C 	C 	0.76676 0.92429 0.95227 -0.05200
C 	C 	0.68924 0.83714 0.95739 0.12500
Br	Br	0.68700 0.78026 0.97947 -0.19000
H 	H 	0.55529 0.72181 0.94999 0.08300
H 	H 	0.81957 0.03916 0.93351 0.11600
Br	Br	0.67785 0.99421 0.90656 -0.16800
C 	C 	0.17232 0.28502 0.91526 -0.03300
C 	C 	0.24833 0.36590 0.92268 -0.07000
C 	C 	0.29371 0.35321 0.93701 0.12500
C 	C 	0.25823 0.26198 0.94440 -0.02800
C 	C 	0.17248 0.18552 0.93899 -0.07700
C 	C 	0.13273 0.19575 0.92357 0.12600
Br	Br	0.02194 0.09105 0.91404 -0.21100
H 	H 	0.14058 0.29273 0.90356 0.07800
H 	H 	0.29208 0.25319 0.95568 0.08500
Br	Br	0.39802 0.45967 0.94791 -0.18900
C 	C 	0.12560 0.74812 0.97140 -0.04100
C 	C 	0.19145 0.84014 0.97712 -0.07600
C 	C 	0.28113 0.88186 0.97030 0.13000
C 	C 	0.29839 0.84144 0.95563 -0.03400
C 	C 	0.22640 0.75909 0.94776 -0.07100
C 	C 	0.14022 0.70974 0.95627 0.12700
Br	Br	0.03713 0.59698 0.94650 -0.22600
H 	H 	0.05831 0.71177 0.97727 0.07700
H 	H 	0.36645 0.87685 0.94982 0.07600
Br	Br	0.37824 0.99925 0.97979 -0.18800
C 	C 	0.09347 0.87752 0.78033 -0.07700
C 	C 	0.17995 0.91519 0.78846 0.15400
C 	C 	0.18549 0.88782 0.80548 -0.07800
C 	C 	0.10532 0.82370 0.81454 0.02900
C 	C 	0.01880 0.78717 0.80650 0.07100
C 	C 	0.01348 0.81208 0.78931 -0.05500
H 	H 	0.25224 0.91564 0.81162 0.09600
C 	C 	0.11317 0.79285 0.83219 0.02000
C 	C 	0.12826 0.85386 0.84636 -0.08300
C 	C 	0.15357 0.83476 0.86256 0.15000
C 	C 	0.16377 0.75394 0.86463 -0.09600
C 	C 	0.14030 0.68845 0.85089 -0.01100
C 	C 	0.11607 0.70796 0.83466 0.08500
H 	H 	0.12387 0.91809 0.84461 0.08600
H 	H 	0.14629 0.62522 0.85249 0.07200
Br	Br	0.29146 0.00033 0.77626 -0.19200
Br	Br	0.17676 0.92125 0.88159 -0.20300
Br	Br	0.09236 0.62057 0.81576 -0.17700
C 	C 	0.05610 0.19533 0.77541 -0.06900
C 	C 	0.04169 0.14920 0.79164 0.10300
C 	C 	0.07207 0.20353 0.80692 -0.06300
C 	C 	0.11687 0.30377 0.80623 0.00700
C 	C 	0.13062 0.34999 0.79007 0.09400
C 	C 	0.10084 0.29573 0.77477 -0.01900
H 	H 	0.06171 0.16778 0.81935 0.07600
C 	C 	0.15064 0.35967 0.82249 0.04400
H 	H 	0.11458 0.33181 0.76234 0.08900
C 	C 	0.24459 0.40453 0.82663 -0.08700
C 	C 	0.27777 0.45677 0.84210 0.15800
C 	C 	0.21541 0.46011 0.85408 -0.10400
C 	C 	0.12112 0.41385 0.84994 0.00800
C 	C 	0.08898 0.36555 0.83412 0.04200
H 	H 	0.29226 0.40050 0.81762 0.09700
H 	H 	0.07273 0.41646 0.85896 0.05800
Br	Br	0.19062 0.48712 0.78859 -0.16800
Br	Br	0.98602 0.01294 0.79325 -0.16500
Br	Br	0.40862 0.52832 0.84580 -0.20100
C 	C 	0.55024 0.83294 0.85619 -0.08600
C 	C 	0.63903 0.84449 0.85517 0.15400
C 	C 	0.68359 0.86196 0.83908 -0.07500
C 	C 	0.63905 0.86456 0.82383 0.03100
C 	C 	0.55136 0.85579 0.82490 0.09000
C 	C 	0.50832 0.84202 0.84109 -0.00000
H 	H 	0.75123 0.86908 0.83830 0.10200
C 	C 	0.68084 0.86736 0.80678 0.03000
H 	H 	0.43965 0.83234 0.84180 0.07400
C 	C 	0.67600 0.78378 0.80022 -0.07600
C 	C 	0.71793 0.78551 0.78437 0.15700
C 	C 	0.76506 0.87179 0.77489 -0.08600
C 	C 	0.76614 0.95420 0.78112 0.00800
C 	C 	0.72719 0.95323 0.79726 0.09300
H 	H 	0.63964 0.71737 0.80747 0.09900
H 	H 	0.80086 0.02029 0.77377 0.07700
Br	Br	0.48673 0.85603 0.80429 -0.16300
Br	Br	0.69704 0.82797 0.87534 -0.16200
Br	Br	0.70488 0.66807 0.77543 -0.18200
Br	Br	0.74181 0.07079 0.80644 -0.15000
C 	C 	0.70423 0.68957 0.69464 -0.03000
C 	C 	0.76323 0.78941 0.69277 -0.05800
C 	C 	0.76854 0.83134 0.67629 0.13300
C 	C 	0.70652 0.77528 0.66319 -0.02800
C 	C 	0.62990 0.68630 0.66754 -0.06400
C 	C 	0.63883 0.63760 0.68181 0.13200
Br	Br	0.55554 0.50337 0.68507 -0.16400
H 	H 	0.70595 0.65331 0.70637 0.08900
H 	H 	0.70723 0.80833 0.65087 0.08400
Br	Br	0.85590 0.96352 0.67136 -0.15100
C 	C 	0.18958 0.43928 0.70206 -0.02100
C 	C 	0.24688 0.44746 0.68808 -0.07700
C 	C 	0.24681 0.36470 0.68199 0.14100
C 	C 	0.18843 0.27567 0.68950 -0.03600
C 	C 	0.12980 0.26680 0.70324 -0.05700
C 	C 	0.12984 0.34937 0.70946 0.12200
Br	Br	0.04621 0.34114 0.72733 -0.21400
H 	H 	0.18756 0.50190 0.70656 0.08100
H 	H 	0.18871 0.21277 0.68460 0.08800
Br	Br	0.32338 0.37035 0.66291 -0.22800
C 	C 	0.15224 0.83900 0.66705 -0.01300
C 	C 	0.23525 0.84150 0.67063 -0.07900
C 	C 	0.27794 0.87622 0.68706 0.14700
C 	C 	0.23477 0.90158 0.69973 -0.03800
C 	C 	0.14692 0.88806 0.69688 -0.05600
C 	C 	0.10675 0.85991 0.68018 0.10000
Br	Br	0.99035 0.84867 0.67497 -0.15400
H 	H 	0.11951 0.81390 0.65448 0.07100
H 	H 	0.26732 0.92579 0.71234 0.09600
Br	Br	0.39049 0.88069 0.69347 -0.25100
C 	C 	0.46988 0.39368 0.35641 -0.03300
C 	C 	0.55113 0.46205 0.34818 -0.06800
C 	C 	0.57697 0.55969 0.34895 0.12800
C 	C 	0.52037 0.58754 0.35739 -0.02700
C 	C 	0.43955 0.51963 0.36575 -0.07400
C 	C 	0.41446 0.42201 0.36533 0.13300
Br	Br	0.30694 0.32690 0.37737 -0.19600
H 	H 	0.44915 0.31839 0.35573 0.07900
H 	H 	0.54118 0.66289 0.35803 0.08000
Br	Br	0.69124 0.65678 0.33912 -0.18800
C 	C 	0.07914 0.64930 0.34657 -0.00400
C 	C 	0.05817 0.59434 0.36188 -0.12700
C 	C 	0.96659 0.54666 0.36807 0.17700
C 	C 	0.89834 0.55226 0.35858 -0.05900
C 	C 	0.91638 0.58713 0.34147 -0.01900
C 	C 	0.00840 0.64660 0.33648 0.08100
Br	Br	0.03754 0.71575 0.31495 -0.19500
H 	H 	0.14987 0.69222 0.34231 0.08500
H 	H 	0.82773 0.51328 0.36315 0.08500
Br	Br	0.93035 0.46338 0.38790 -0.15100
C 	C 	0.53850 0.98738 0.36690 -0.04900
C 	C 	0.46516 0.89902 0.36187 -0.07400
C 	C 	0.43978 0.88118 0.34418 0.13300
C 	C 	0.48154 0.95612 0.33202 -0.05600
C 	C 	0.55080 0.04748 0.33737 -0.04000
C 	C 	0.58264 0.06091 0.35487 0.15400
Br	Br	0.68677 0.17848 0.36289 -0.21600
H 	H 	0.56088 0.99947 0.38037 0.08600
H 	H 	0.45835 0.94393 0.31861 0.08000
Br	Br	0.35108 0.75507 0.33635 -0.20100
C 	C 	0.61726 0.61847 0.58881 -0.03100
C 	C 	0.55682 0.52776 0.58164 -0.07400
C 	C 	0.46664 0.50691 0.57686 0.12900
C 	C 	0.43405 0.56718 0.58263 -0.03000
C 	C 	0.48884 0.64542 0.59344 -0.06800
C 	C 	0.58403 0.67908 0.59392 0.12800
Br	Br	0.66606 0.79922 0.60486 -0.19300
H 	H 	0.68887 0.64042 0.59106 0.08000
H 	H 	0.36259 0.54637 0.58047 0.08100
Br	Br	0.38957 0.40360 0.56137 -0.19800
C 	C 	0.12335 0.52713 0.59624 -0.02900
C 	C 	0.11671 0.49730 0.61358 -0.07700
C 	C 	0.02982 0.44973 0.62162 0.10600
C 	C 	0.95272 0.44185 0.61307 0.00100
C 	C 	0.96027 0.47767 0.59610 -0.05300
C 	C 	0.04683 0.52095 0.58770 0.10300
H 	H 	0.19016 0.56362 0.58994 0.07300
H 	H 	0.88629 0.40610 0.61951 0.08700
Br	Br	0.01627 0.39919 0.64473 -0.19100
C 	C 	0.53751 0.13903 0.62271 -0.03100
C 	C 	0.61193 0.15466 0.61206 -0.07000
C 	C 	0.67089 0.12130 0.61786 0.13400
C 	C 	0.64241 0.05496 0.63155 -0.02700
C 	C 	0.55626 0.02229 0.63940 -0.07300
C 	C 	0.51196 0.07569 0.63680 0.13000
Br	Br	0.41163 0.05670 0.65139 -0.18800
H 	H 	0.49703 0.17230 0.61962 0.08600
H 	H 	0.68255 0.02144 0.63478 0.08300
Br	Br	0.79280 0.17110 0.60858 -0.19100
C 	C 	0.38668 0.49414 0.43972 -0.08200
C 	C 	0.32276 0.43069 0.45199 0.15000
C 	C 	0.35430 0.40676 0.46698 -0.07300
C 	C 	0.44923 0.44919 0.47021 0.02600
C 	C 	0.51269 0.50916 0.45755 0.08700
C 	C 	0.48096 0.52826 0.44216 -0.00500
H 	H 	0.30519 0.35874 0.47651 0.09500
C 	C 	0.48183 0.43387 0.48709 0.02800
H 	H 	0.53025 0.57538 0.43256 0.07500
C 	C 	0.52774 0.38141 0.48766 -0.07700
C 	C 	0.57100 0.37816 0.50297 0.15100
C 	C 	0.55980 0.41841 0.51834 -0.08600
C 	C 	0.51446 0.47121 0.51782 -0.00100
C 	C 	0.47616 0.47985 0.50227 0.08600
H 	H 	0.53479 0.34836 0.47591 0.09600
H 	H 	0.50909 0.50578 0.52950 0.08500
Br	Br	0.64319 0.57237 0.46166 -0.17100
Br	Br	0.19289 0.38010 0.44900 -0.20100
Br	Br	0.65721 0.33361 0.50197 -0.22000
Br	Br	0.41903 0.55694 0.50197 -0.15600
C 	C 	0.57101 0.08683 0.52696 -0.07500
C 	C 	0.48192 0.00467 0.52609 0.14600
C 	C 	0.44763 0.95904 0.51002 -0.07200
C 	C 	0.50274 0.99115 0.49503 0.02000
C 	C 	0.59329 0.06866 0.49617 0.09900
C 	C 	0.62703 0.11529 0.51205 -0.01000
H 	H 	0.37890 0.89713 0.50928 0.09900
C 	C 	0.46541 0.94355 0.47814 0.03100
H 	H 	0.69629 0.17586 0.51268 0.09600
C 	C 	0.42780 0.98223 0.46665 -0.08400
C 	C 	0.40389 0.94679 0.44966 0.14700
C 	C 	0.41421 0.86907 0.44427 -0.08700
C 	C 	0.45004 0.82913 0.45590 -0.01000
C 	C 	0.47643 0.86651 0.47271 0.09100
H 	H 	0.42079 0.04265 0.47068 0.09700
H 	H 	0.45767 0.76910 0.45187 0.07400
Br	Br	0.67209 0.11249 0.47608 -0.15900
Br	Br	0.41121 0.94515 0.54670 -0.18000
Br	Br	0.36505 0.01093 0.43365 -0.17400
Br	Br	0.53142 0.81455 0.48781 -0.15500
C 	C 	0.93967 0.46105 0.52494 -0.07700
C 	C 	0.94367 0.39408 0.51372 0.14800
C 	C 	0.98586 0.42382 0.49739 -0.05000
C 	C 	0.02678 0.52042 0.49245 0.01900
C 	C 	0.03308 0.58878 0.50455 0.06400
C 	C 	0.99044 0.55906 0.52075 0.02900
H 	H 	0.98479 0.37154 0.48838 0.10200
C 	C 	0.05419 0.54773 0.47419 -0.01800
H 	H 	0.99118 0.61169 0.52963 0.08700
C 	C 	0.01253 0.56415 0.44464 0.08900
C 	C 	0.09999 0.58427 0.43882 -0.06900
C 	C 	0.16705 0.59612 0.45103 -0.02200
C 	C 	0.14459 0.57813 0.46866 0.10700
H 	H 	0.92097 0.52530 0.46662 0.08500
H 	H 	0.23568 0.61529 0.44671 0.06200
Br	Br	0.09570 0.72273 0.49882 -0.18800
Br	Br	0.89539 0.26330 0.52062 -0.18100
Br	Br	0.92548 0.56782 0.42901 -0.12900
Br	Br	0.23813 0.59586 0.48498 -0.17100
O 	O 	0.94832 0.09612 0.75336 -0.33000
H 	H 	0.98999 0.96537 0.71831 0.16900
Br	Br	0.90716 0.70515 0.81894 -0.11500
Br	Br	0.96094 0.31063 0.82838 -0.09100
C 	C 	0.98938 0.54402 0.46224 0.00400
Br	Br	0.91015 0.32208 0.21304 -0.16100
H 	H 	0.94681 0.78276 0.78309 0.12100
Br	Br	0.06444 0.57789 0.56511 -0.21300
Ni	Ni	0.00908 0.09077 0.98330 1.09600
H 	H 	0.98991 0.21035 0.02841 0.10900
O 	O 	0.00592 0.87045 0.24835 -0.43200
