data_crystal

_cell_length_a 20.12007
_cell_length_b 20.93628
_cell_length_c 43.71766
_cell_angle_alpha 60.65489
_cell_angle_beta  119.10526
_cell_angle_gamma 133.31682

_symmetry_space_group_name_	'P 1'
_symmetry_space_group_name_H-M	'P 1'

loop_
_symmetry_equiv_pos_as_xyz
  x,y,z

loop_
_atom_site_label
_atom_site_type_symbol
_atom_site_fract_x
_atom_site_fract_y
_atom_site_fract_z
_atom_site_charge
C 	C 	0.67126 0.24128 0.03653 0.19400
N 	N 	0.58285 0.21643 0.02788 -0.13100
C 	C 	0.56895 0.26576 0.03249 0.19100
N 	N 	0.64298 0.33955 0.04578 -0.13800
C 	C 	0.73148 0.36642 0.05352 0.18600
C 	C 	0.74768 0.31478 0.50127 0.18100
C 	C 	0.74529 0.41937 0.50726 0.19500
N 	N 	0.65547 0.35390 0.51032 -0.12500
C 	C 	0.61199 0.26870 0.50991 0.19300
N 	N 	0.65818 0.24867 0.50580 -0.11400
C 	C 	0.28925 0.68151 0.12078 0.19200
N 	N 	0.37907 0.70797 0.13142 -0.09600
C 	C 	0.39788 0.65980 0.12896 0.20400
N 	N 	0.32706 0.58435 0.11648 -0.13700
C 	C 	0.23695 0.55490 0.10718 0.19200
N 	N 	0.21736 0.60337 0.10930 -0.12400
C 	C 	0.30904 0.64333 0.66136 0.18700
N 	N 	0.26673 0.55532 0.66433 -0.13500
C 	C 	0.31359 0.53215 0.66286 0.19200
N 	N 	0.40340 0.59617 0.65963 -0.11800
C 	C 	0.44456 0.68436 0.65468 0.19500
N 	N 	0.39733 0.70824 0.65543 -0.10800
Co	Co	0.93916 0.04863 0.06344 1.16600
Co	Co	0.00969 0.00970 0.02437 1.16000
Co	Co	0.08743 0.91658 0.02334 1.18700
C 	C 	0.18727 0.11435 0.00545 0.34500
O 	O 	0.01264 0.06671 0.16494 -0.39200
C 	C 	0.03758 0.01242 0.18761 0.25100
O 	O 	0.97267 0.08554 0.01782 -0.45800
C 	C 	0.00978 0.19953 0.08862 0.36500
C 	C 	0.20566 0.91758 0.09663 0.34100
O 	O 	0.04445 0.96979 0.17559 -0.30200
O 	O 	0.20904 0.96565 0.06318 -0.35300
O 	O 	0.15851 0.90844 0.11339 -0.31800
O 	O 	0.92763 0.14400 0.09620 -0.42300
O 	O 	0.03597 0.17156 0.07806 -0.37100
O 	O 	0.02993 0.92953 0.04739 -0.71800
O 	O 	0.13903 0.04743 0.99089 -0.43600
O 	O 	0.14872 0.11157 0.02362 -0.37600
Co	Co	0.05097 0.10211 0.57653 1.18800
Co	Co	0.10907 0.03431 0.54567 1.16100
Co	Co	0.10272 0.88374 0.53796 1.18100
C 	C 	0.28303 0.04630 0.56015 0.26900
O 	O 	0.88576 0.95814 0.66186 -0.37000
C 	C 	0.93246 0.92342 0.68369 0.31700
O 	O 	0.12489 0.14282 0.54387 -0.45300
C 	C 	0.13988 0.20363 0.63375 0.34900
C 	C 	0.09064 0.76479 0.61248 0.36600
O 	O 	0.95515 0.89639 0.67080 -0.35400
O 	O 	0.06639 0.76533 0.57868 -0.37100
O 	O 	0.06318 0.79238 0.62240 -0.34500
O 	O 	0.06996 0.13464 0.64975 -0.38300
O 	O 	0.15189 0.19795 0.60785 -0.36500
O 	O 	0.06711 0.92445 0.55943 -0.72600
O 	O 	0.23511 0.95761 0.56892 -0.30300
O 	O 	0.25040 0.08625 0.55844 -0.37000
C 	C 	0.93783 0.89288 0.78812 0.04600
C 	C 	0.87180 0.81775 0.77296 -0.05400
C 	C 	0.87655 0.82365 0.74053 0.03800
C 	C 	0.94811 0.90439 0.72308 -0.09200
H 	H 	0.81384 0.80092 0.86918 0.07100
H 	H 	0.81010 0.79266 0.92670 0.06300
H 	H 	0.92022 0.82771 0.84465 0.06700
H 	H 	0.81497 0.75573 0.78561 0.07900
H 	H 	0.82133 0.76735 0.72788 0.06300
C 	C 	0.12214 0.11952 0.41487 0.02000
C 	C 	0.12780 0.12301 0.38320 -0.04800
C 	C 	0.07037 0.04383 0.37140 -0.00900
C 	C 	0.09350 0.04417 0.34340 -0.10200
C 	C 	0.06205 0.00304 0.22687 -0.18300
C 	C 	0.12157 0.08175 0.23933 0.09000
C 	C 	0.11448 0.07864 0.27054 -0.18000
H 	H 	0.17234 0.17964 0.42513 0.05400
H 	H 	0.18052 0.18639 0.36899 0.07100
H 	H 	0.16678 0.08788 0.34256 0.06500
H 	H 	0.16745 0.14672 0.22311 0.03600
H 	H 	0.15520 0.14119 0.27787 0.09100
C 	C 	0.26313 0.37431 0.68428 -0.11200
C 	C 	0.26192 0.44517 0.65580 -0.06600
C 	C 	0.22972 0.43973 0.61998 0.32900
C 	C 	0.19907 0.36410 0.61277 -0.07400
C 	C 	0.19727 0.29177 0.64121 -0.13300
C 	C 	0.23092 0.29782 0.67708 0.35500
F 	F 	0.23086 0.22885 0.70493 -0.44200
H 	H 	0.29072 0.37927 0.71196 0.11100
H 	H 	0.17262 0.35985 0.58504 0.13200
F 	F 	0.23034 0.50899 0.59215 -0.40800
C 	C 	0.53498 0.81852 0.60937 -0.11100
C 	C 	0.53202 0.75345 0.64213 -0.04400
C 	C 	0.60323 0.74081 0.65796 0.31300
C 	C 	0.67216 0.78757 0.63992 -0.05400
C 	C 	0.67417 0.85135 0.60688 -0.15800
C 	C 	0.60568 0.86730 0.59181 0.38300
F 	F 	0.60731 0.92961 0.56001 -0.39400
H 	H 	0.48013 0.82842 0.59671 0.14000
H 	H 	0.72600 0.77642 0.65225 0.08300
F 	F 	0.60360 0.68075 0.69035 -0.42400
C 	C 	0.15610 0.60670 0.65559 -0.11200
C 	C 	0.25422 0.66947 0.65967 -0.05500
C 	C 	0.29769 0.75888 0.65895 0.33100
C 	C 	0.24255 0.78763 0.64880 -0.06900
C 	C 	0.14413 0.72784 0.63934 -0.12400
C 	C 	0.10153 0.63571 0.64573 0.36400
F 	F 	0.00644 0.57571 0.63902 -0.40400
H 	H 	0.12142 0.53634 0.65819 0.11800
H 	H 	0.27636 0.85827 0.64539 0.13200
F 	F 	0.39281 0.81837 0.66725 -0.39300
C 	C 	0.08282 0.30350 0.12492 -0.06500
C 	C 	0.07295 0.29214 0.09347 -0.13700
C 	C 	0.10521 0.36778 0.06429 0.36900
C 	C 	0.14935 0.45400 0.06711 -0.10600
C 	C 	0.16146 0.46546 0.09904 -0.05600
C 	C 	0.12482 0.38903 0.12739 0.31900
F 	F 	0.13582 0.39856 0.15843 -0.42300
H 	H 	0.05615 0.24537 0.14732 0.08700
H 	H 	0.17809 0.51253 0.04512 0.12300
F 	F 	0.09261 0.35782 0.03306 -0.42100
C 	C 	0.64737 0.73919 0.17901 -0.06600
C 	C 	0.68174 0.75697 0.15241 -0.13400
C 	C 	0.61990 0.73514 0.11923 0.37100
C 	C 	0.52717 0.70338 0.11172 -0.10000
C 	C 	0.49516 0.69251 0.13730 -0.05000
C 	C 	0.55475 0.70803 0.17137 0.32700
F 	F 	0.52312 0.69344 0.19699 -0.41100
H 	H 	0.69405 0.75423 0.20495 0.10300
H 	H 	0.48077 0.68949 0.08562 0.12800
C 	C 	0.19669 0.70849 0.13003 -0.10500
C 	C 	0.27180 0.74292 0.11811 -0.05200
C 	C 	0.33423 0.83726 0.10552 0.32300
C 	C 	0.31940 0.89563 0.10351 -0.07000
C 	C 	0.24010 0.86106 0.11253 -0.12100
C 	C 	0.18174 0.76738 0.12784 0.35600
F 	F 	0.10841 0.73284 0.13918 -0.41800
H 	H 	0.14987 0.63639 0.14093 0.12600
H 	H 	0.36611 0.96768 0.09241 0.11900
F 	F 	0.40709 0.87230 0.09370 -0.39900
H 	H 	0.93600 0.42006 0.50507 0.12200
C 	C 	0.83742 0.59000 0.55109 0.36100
C 	C 	0.81533 0.51479 0.54679 -0.10700
H 	H 	0.81222 0.46029 0.57024 0.11900
F 	F 	0.85916 0.59575 0.58471 -0.41400
C 	C 	0.37275 0.16288 0.51292 -0.08400
C 	C 	0.36689 0.10129 0.54685 -0.12200
C 	C 	0.43467 0.08369 0.56538 0.34200
C 	C 	0.51054 0.13142 0.55093 -0.11000
C 	C 	0.51941 0.19722 0.51805 -0.06100
C 	C 	0.44757 0.20927 0.49827 0.32200
F 	F 	0.45346 0.27020 0.46572 -0.41900
H 	H 	0.31867 0.17410 0.49773 0.09400
H 	H 	0.56543 0.12135 0.56635 0.11100
F 	F 	0.42840 0.02227 0.59781 -0.44100
C 	C 	0.62257 0.08662 0.04802 -0.09000
H 	H 	0.56241 0.05784 0.05635 0.10400
C 	C 	0.81788 0.47131 0.09137 -0.11400
C 	C 	0.86697 0.56011 0.09251 0.36700
F 	F 	0.87316 0.57510 0.12099 -0.41000
H 	H 	0.78088 0.41521 0.11220 0.11100
C 	C 	0.44130 0.22105 0.05110 -0.11900
C 	C 	0.47398 0.23808 0.02419 -0.07500
C 	C 	0.41720 0.23283 0.98905 0.32200
C 	C 	0.32563 0.20385 0.98163 -0.06900
C 	C 	0.28928 0.17720 0.00951 -0.15000
C 	C 	0.34944 0.19115 0.04381 0.35800
F 	F 	0.31673 0.16895 0.07083 -0.44700
H 	H 	0.48617 0.22814 0.07800 0.10500
H 	H 	0.28067 0.19604 0.95478 0.09400
F 	F 	0.45029 0.25449 0.96227 -0.42000
N 	N 	0.74602 0.31735 0.04893 -0.10900
N 	N 	0.79178 0.40043 0.50248 -0.13100
Co	Co	0.02055 0.87249 0.09062 1.20500
Co	Co	0.95127 0.91272 0.13021 1.19100
C 	C 	0.96355 0.72721 0.06518 0.34900
Co	Co	0.88183 0.01629 0.13034 1.13800
O 	O 	0.92364 0.98794 0.10568 -0.70300
O 	O 	0.99082 0.83864 0.13684 -0.41400
O 	O 	0.94979 0.93886 0.07310 -0.53700
C 	C 	0.78356 0.81779 0.15585 0.34700
C 	C 	0.93805 0.92550 0.96296 0.27900
O 	O 	0.83375 0.89065 0.16681 -0.38400
O 	O 	0.82079 0.80810 0.14204 -0.34100
O 	O 	0.95973 0.86922 0.98673 -0.37200
O 	O 	0.93953 0.97711 0.97336 -0.31400
C 	C 	0.75796 0.01248 0.05782 0.26000
O 	O 	0.75766 0.96525 0.09163 -0.27400
O 	O 	0.80777 0.02739 0.04030 -0.35900
O 	O 	0.04396 0.78734 0.05560 -0.38300
O 	O 	0.93767 0.74756 0.07984 -0.33100
Co	Co	0.98768 0.84599 0.58509 1.19100
Co	Co	0.92703 0.91408 0.61522 1.20300
C 	C 	0.89861 0.75197 0.52602 0.34300
Co	Co	0.93445 0.07112 0.61951 1.15900
O 	O 	0.97894 0.02633 0.60476 -0.80100
O 	O 	0.90695 0.80457 0.61513 -0.42800
O 	O 	0.04343 0.97817 0.59083 -0.52600
C 	C 	0.75755 0.91334 0.59222 0.42200
C 	C 	0.08605 0.02293 0.47507 0.23300
O 	O 	0.80384 0.00099 0.58643 -0.43300
O 	O 	0.79147 0.88082 0.58909 -0.38000
O 	O 	0.14090 0.99664 0.49484 -0.32100
O 	O 	0.05307 0.03361 0.49079 -0.38500
C 	C 	0.95049 0.18492 0.54494 0.35800
O 	O 	0.97596 0.18844 0.57815 -0.40000
O 	O 	0.96056 0.13767 0.53803 -0.39700
O 	O 	0.96627 0.81846 0.50899 -0.39300
O 	O 	0.88260 0.76627 0.54751 -0.34800
C 	C 	0.91880 0.93562 0.92403 0.00800
C 	C 	0.97916 0.01916 0.90298 -0.06000
C 	C 	0.98329 0.02342 0.87076 -0.12000
C 	C 	0.92715 0.94422 0.85916 0.10100
C 	C 	0.86143 0.86180 0.87871 -0.05500
C 	C 	0.85763 0.85753 0.91098 0.01100
C 	C 	0.93344 0.94977 0.82502 0.03000
C 	C 	0.93100 0.88650 0.82224 -0.05000
C 	C 	0.01846 0.97689 0.73990 0.09600
C 	C 	0.01315 0.97141 0.77209 0.01600
H 	H 	0.02695 0.07996 0.91260 0.06500
H 	H 	0.03206 0.08799 0.85537 0.07600
H 	H 	0.94475 0.00866 0.80256 -0.00300
H 	H 	0.07414 0.03963 0.72686 0.01800
H 	H 	0.06687 0.02866 0.78421 0.01600
C 	C 	0.05969 0.03668 0.43541 -0.10600
C 	C 	0.00124 0.96271 0.38996 0.03200
C 	C 	0.99452 0.95992 0.42121 0.04700
C 	C 	0.02615 0.99420 0.31871 0.02100
C 	C 	0.04981 0.99605 0.29046 0.17000
C 	C 	0.99729 0.91607 0.28003 -0.14700
C 	C 	0.00409 0.91946 0.24864 0.16700
H 	H 	0.95655 0.90063 0.38164 0.05100
H 	H 	0.94458 0.89577 0.43628 0.05400
H 	H 	0.95279 0.95043 0.31942 0.05400
H 	H 	0.94784 0.85172 0.29524 0.09400
H 	H 	0.95820 0.85800 0.23968 0.01700
F 	F 	0.65145 0.75093 0.09328 -0.42200
C 	C 	0.80576 0.17316 0.50445 -0.06800
C 	C 	0.90389 0.22802 0.51660 -0.13700
C 	C 	0.95017 0.32004 0.51268 0.35300
C 	C 	0.89877 0.35107 0.50476 -0.11400
C 	C 	0.80028 0.29114 0.49910 -0.05500
C 	C 	0.75379 0.20441 0.49559 0.31800
F 	F 	0.65866 0.14951 0.48475 -0.41400
H 	H 	0.76916 0.10338 0.50533 0.10500
F 	F 	0.04554 0.37657 0.52104 -0.41500
C 	C 	0.81549 0.65214 0.48629 -0.06900
C 	C 	0.84119 0.66090 0.52096 -0.13300
C 	C 	0.79345 0.50795 0.51225 -0.06400
C 	C 	0.79318 0.57689 0.48200 0.32300
F 	F 	0.76862 0.56973 0.44831 -0.41600
H 	H 	0.81755 0.70611 0.46276 0.10200
C 	C 	0.68485 0.18092 0.03591 -0.07400
C 	C 	0.76065 0.21680 0.02402 0.33200
C 	C 	0.77786 0.15935 0.02691 -0.09100
C 	C 	0.72108 0.06603 0.04256 -0.09700
C 	C 	0.64027 0.02943 0.05116 0.27900
F 	F 	0.58169 0.93881 0.06446 -0.35700
H 	H 	0.83915 0.18825 0.01932 0.11300
F 	F 	0.81846 0.30725 0.01025 -0.40300
C 	C 	0.81054 0.45455 0.06203 -0.05800
C 	C 	0.86019 0.52765 0.03564 0.32200
C 	C 	0.90822 0.61624 0.03648 -0.07200
C 	C 	0.90946 0.63295 0.06427 -0.12600
H 	H 	0.94305 0.67205 0.01508 0.09400
F 	F 	0.85540 0.51262 0.00751 -0.40500
