data_crystal

_cell_length_a 20.32085
_cell_length_b 18.32094
_cell_length_c 47.89893
_cell_angle_alpha 89.74706
_cell_angle_beta  89.75335
_cell_angle_gamma 119.43642

_symmetry_space_group_name_	'P 1'
_symmetry_space_group_name_H-M	'P 1'

loop_
_symmetry_equiv_pos_as_xyz
  x,y,z

loop_
_atom_site_label
_atom_site_type_symbol
_atom_site_fract_x
_atom_site_fract_y
_atom_site_fract_z
_atom_site_charge
O 	O 	0.03192 0.14161 0.76019 -0.37900
H 	H 	0.01084 0.85385 0.14505 0.06200
H 	H 	0.00179 0.20321 0.38326 0.08800
C 	C 	0.01300 0.49807 0.45933 -0.10000
C 	C 	0.06590 0.44382 0.86854 -0.11700
O 	O 	0.04371 0.50226 0.90981 -0.28200
C 	C 	0.04991 0.96268 0.86556 0.15000
C 	C 	0.04929 0.91958 0.81616 0.29000
O 	O 	0.00333 0.06900 0.35139 -0.27000
O 	O 	0.02753 0.65520 0.68061 -0.27900
O 	O 	0.05480 0.00050 0.76002 -0.70200
O 	O 	0.01282 0.92337 0.25157 -0.37700
C 	C 	0.02453 0.13485 0.30640 -0.04600
O 	O 	0.02687 0.29494 0.42805 -0.27900
H 	H 	0.01259 0.79168 0.27704 0.14200
O 	O 	0.02071 0.97757 0.65000 -0.29500
H 	H 	0.04356 0.75404 0.72236 0.04800
C 	C 	0.02592 0.56824 0.97541 0.03400
O 	O 	0.06484 0.04090 0.85696 -0.26100
H 	H 	0.08156 0.03341 0.77651 0.15600
C 	C 	0.03874 0.18200 0.17656 0.31800
C 	C 	0.04301 0.20182 0.25960 0.29700
C 	C 	0.04531 0.21854 0.14835 -0.12000
H 	H 	0.02953 0.41214 0.08084 0.07800
H 	H 	0.03897 0.51268 0.03165 0.15600
C 	C 	0.04987 0.84280 0.15729 -0.03800
O 	O 	0.05066 0.75194 0.12160 -0.27200
C 	C 	0.04477 0.13714 0.33440 0.12800
C 	C 	0.05863 0.22917 0.39131 -0.11000
H 	H 	0.02872 0.03469 0.35015 0.16400
H 	H 	0.05220 0.69841 0.66579 0.14700
C 	C 	0.10650 0.34835 0.81373 0.13000
C 	C 	0.09981 0.27614 0.80119 -0.03600
H 	H 	0.10077 0.42549 0.88043 0.08300
O 	O 	0.07491 0.81807 0.95158 -0.27700
H 	H 	0.08657 0.78200 0.93950 0.16500
H 	H 	0.08561 0.56099 0.91044 0.15400
Ni	Ni	0.07902 0.09047 0.73502 1.12200
O 	O 	0.10976 0.93882 0.80032 -0.37100
C 	C 	0.05477 0.94553 0.19221 0.28600
C 	C 	0.06119 0.98510 0.26804 0.27500
C 	C 	0.05863 0.28640 0.09430 0.00400
C 	C 	0.05695 0.39698 0.06422 -0.10600
C 	C 	0.05594 0.87918 0.30346 0.17600
C 	C 	0.05305 0.90653 0.84633 -0.10100
Ni	Ni	0.10436 0.93756 0.75675 1.10300
O 	O 	0.09012 0.92281 0.71366 -0.37800
C 	C 	0.09150 0.53729 0.45135 0.32800
O 	O 	0.07462 0.14028 0.18223 -0.36700
C 	C 	0.06581 0.32602 0.06656 0.01200
C 	C 	0.07536 0.78953 0.14703 0.11700
C 	C 	0.07743 0.88472 0.18260 -0.11500
H 	H 	0.08680 0.79213 0.10771 0.14600
C 	C 	0.06626 0.20431 0.28877 -0.11800
C 	C 	0.07914 0.27969 0.41506 0.19600
H 	H 	0.06679 0.79509 0.33220 0.07500
C 	C 	0.08726 0.62757 0.97939 -0.09100
C 	C 	0.03474 0.19811 0.80569 -0.11700
Ni	Ni	0.08365 0.10244 0.22148 1.12300
O 	O 	0.08953 0.20685 0.23920 -0.36100
C 	C 	0.09209 0.30088 0.04332 0.12100
C 	C 	0.08817 0.45150 0.04126 0.19200
O 	O 	0.08833 0.22403 0.04315 -0.26600
O 	O 	0.08723 0.52580 0.04075 -0.28400
H 	H 	0.08586 0.61472 0.15019 0.08100
H 	H 	0.09626 0.54924 0.09768 0.16400
O 	O 	0.09382 0.87163 0.39516 -0.27100
C 	C 	0.08599 0.96340 0.29454 -0.12900
C 	C 	0.08874 0.85993 0.32594 -0.09800
C 	C 	0.08971 0.98342 0.64510 0.14000
H 	H 	0.08960 0.00973 0.60119 0.07400
C 	C 	0.04904 0.34226 0.83158 -0.00900
C 	C 	0.03112 0.48378 0.88196 0.19200
H 	H 	0.02512 0.98057 0.90800 0.06400
C 	C 	0.11213 0.98647 0.69626 0.29000
O 	O 	0.11004 0.51595 0.42765 -0.36600
O 	O 	0.10544 0.01604 0.20383 -0.33300
O 	O 	0.10078 0.06369 0.25866 -0.35700
C 	C 	0.10507 0.21057 0.34530 0.00200
H 	H 	0.14366 0.28132 0.78702 0.06200
C 	C 	0.04767 0.41793 0.84081 0.01600
C 	C 	0.11423 0.22244 0.37583 0.01500
H 	H 	0.11224 0.92549 0.40511 0.15000
C 	C 	0.12369 0.30042 0.10906 0.12300
C 	C 	0.11669 0.26548 0.13577 -0.02500
C 	C 	0.12207 0.35474 0.02016 -0.02700
C 	C 	0.12860 0.43473 0.02073 -0.11700
H 	H 	0.11360 0.86413 0.23822 0.15000
C 	C 	0.12067 0.00124 0.61804 -0.06200
H 	H 	0.15604 0.44701 0.79165 0.15600
O 	O 	0.16896 0.42470 0.80839 -0.27100
O 	O 	0.13542 0.06237 0.70574 -0.34900
O 	O 	0.14266 0.57488 0.47057 -0.37200
C 	C 	0.12798 0.77685 0.16237 0.00300
C 	C 	0.12541 0.86687 0.19896 0.18800
O 	O 	0.13476 0.55252 0.11102 -0.27900
C 	C 	0.12969 0.27555 0.29918 0.19200
C 	C 	0.13179 0.97769 0.66741 -0.09300
C 	C 	0.14406 0.02748 0.31020 -0.01800
H 	H 	0.14808 0.33839 0.00331 0.06500
H 	H 	0.13856 0.23435 0.04946 0.15000
C 	C 	0.13946 0.65970 0.14089 -0.10800
C 	C 	0.14873 0.27867 0.32736 -0.11000
C 	C 	0.15578 0.32601 0.42234 -0.11600
H 	H 	0.14961 0.37945 0.28340 0.15400
C 	C 	0.02042 0.12730 0.78754 0.30400
C 	C 	0.16207 0.69510 0.98371 0.33300
C 	C 	0.03040 0.93830 0.89358 -0.09700
C 	C 	0.15079 0.92364 0.33987 -0.02800
H 	H 	0.15854 0.80200 0.42387 0.06600
C 	C 	0.15011 0.81280 0.18884 -0.10800
C 	C 	0.15777 0.86959 0.38713 0.11600
H 	H 	0.16485 0.09270 0.30477 0.06700
O 	O 	0.18070 0.15372 0.75431 -0.37700
O 	O 	0.17017 0.43388 0.45449 -0.35600
O 	O 	0.15010 0.90423 0.22442 -0.28400
O 	O 	0.18091 0.73010 0.00823 -0.36700
H 	H 	0.16700 0.27651 0.14693 0.06400
C 	C 	0.17290 0.74462 0.14809 0.00400
C 	C 	0.17134 0.63421 0.11959 0.20000
O 	O 	0.17253 0.34268 0.28197 -0.28200
C 	C 	0.17699 0.00775 0.33249 0.14900
C 	C 	0.18618 0.41433 0.42941 0.31300
C 	C 	0.18558 0.25003 0.38788 0.11800
O 	O 	0.19222 0.55097 0.98793 -0.36400
C 	C 	0.18703 0.83064 0.40437 -0.02900
C 	C 	0.19105 0.90143 0.36090 0.01300
H 	H 	0.01494 0.03490 0.85230 0.15300
O 	O 	0.20874 0.04538 0.75023 -0.34800
C 	C 	0.19696 0.50526 0.00856 0.32200
H 	H 	0.19519 0.33565 0.33559 0.07300
O 	O 	0.19425 0.35264 0.09819 -0.26400
C 	C 	0.19384 0.01417 0.61318 -0.01400
O 	O 	0.20541 0.68382 0.41312 -0.39100
H 	H 	0.19001 0.80267 0.20087 0.08100
C 	C 	0.20590 0.30110 0.41154 -0.03100
O 	O 	0.21435 0.70653 0.96582 -0.39300
C 	C 	0.04300 0.82929 0.85585 -0.04000
O 	O 	0.21120 0.46892 0.40828 -0.37900
Ni	Ni	0.21450 0.58054 0.40931 1.12300
C 	C 	0.20135 0.98186 0.66202 -0.08600
H 	H 	0.21011 0.31522 0.08908 0.14600
C 	C 	0.22686 0.12232 0.75824 0.31200
H 	H 	0.04629 0.78615 0.84123 0.06400
O 	O 	0.22594 0.71193 0.05717 -0.37500
Ni	Ni	0.23128 0.55013 0.47505 1.11500
H 	H 	0.23116 0.17003 0.59435 0.07600
O 	O 	0.23396 0.07089 0.34734 -0.26200
C 	C 	0.23435 0.05556 0.58700 0.00500
O 	O 	0.23642 0.23069 0.37583 -0.25600
C 	C 	0.23703 0.69402 0.10553 -0.11700
O 	O 	0.23441 0.93166 0.57020 -0.29800
C 	C 	0.23342 0.00218 0.63525 0.16600
H 	H 	0.23355 0.97632 0.67909 0.06600
O 	O 	0.01048 0.82064 0.76206 -0.38700
C 	C 	0.00733 0.44768 0.82505 0.09900
H 	H 	0.00595 0.25339 0.44351 0.15900
C 	C 	0.02114 0.80372 0.88353 0.12200
C 	C 	0.01241 0.85739 0.90241 -0.00900
O 	O 	0.00445 0.72458 0.89174 -0.27900
O 	O 	0.99995 0.19453 0.19607 -0.34700
C 	C 	0.24374 0.80164 0.13680 0.11900
C 	C 	0.24930 0.82287 0.39553 -0.12300
C 	C 	0.25031 0.68042 0.07625 0.31600
C 	C 	0.25772 0.14071 0.58272 -0.11100
C 	C 	0.25827 0.90230 0.35348 -0.12100
O 	O 	0.26275 0.51962 0.01787 -0.36900
C 	C 	0.26507 0.01717 0.56997 0.15900
O 	O 	0.99305 0.81615 0.29105 -0.26500
C 	C 	0.26299 0.75882 0.40879 0.32900
H 	H 	0.26425 0.91971 0.58398 0.15600
H 	H 	0.26163 0.91286 0.13243 0.14400
H 	H 	0.26362 0.33045 0.41890 0.05900
C 	C 	0.98737 0.24033 0.10697 -0.10100
H 	H 	0.98340 0.91718 0.64815 0.15700
H 	H 	0.97620 0.07913 0.29842 0.07000
C 	C 	0.71563 0.39387 0.85252 0.30600
C 	C 	0.83033 0.59433 0.95162 0.32200
C 	C 	0.91182 0.49024 0.88316 0.34100
C 	C 	0.64474 0.52181 0.92185 0.31900
C 	C 	0.81466 0.37866 0.96325 0.33000
C 	C 	0.62917 0.23628 0.93300 0.31800
Ni	Ni	0.78752 0.53032 0.89468 1.11400
Ni	Ni	0.69769 0.41844 0.95023 1.12400
Ni	Ni	0.77250 0.34843 0.90465 1.12100
O 	O 	0.72405 0.46757 0.86030 -0.35500
O 	O 	0.75914 0.36422 0.86278 -0.37300
O 	O 	0.76268 0.39148 0.97438 -0.38300
O 	O 	0.85508 0.57489 0.92928 -0.38200
O 	O 	0.76138 0.54299 0.96124 -0.36300
O 	O 	0.66620 0.25411 0.90890 -0.38500
O 	O 	0.87431 0.52510 0.87293 -0.37600
O 	O 	0.88286 0.43633 0.90359 -0.37900
O 	O 	0.62054 0.29392 0.94705 -0.36100
O 	O 	0.71193 0.56905 0.90990 -0.35900
O 	O 	0.62427 0.44663 0.93183 -0.37700
O 	O 	0.79660 0.32385 0.94309 -0.37900
O 	O 	0.73899 0.42566 0.91355 -0.71000
H 	H 	0.69007 0.39812 0.90391 0.15900
C 	C 	0.75071 0.39245 0.59738 0.31300
C 	C 	0.44504 0.20433 0.55347 0.32100
C 	C 	0.60167 0.17935 0.61376 0.32900
C 	C 	0.58476 0.42841 0.53529 0.31200
C 	C 	0.56370 0.10558 0.52792 0.29900
C 	C 	0.75036 0.32937 0.50899 0.29800
Ni	Ni	0.58524 0.31654 0.58474 1.11400
Ni	Ni	0.58468 0.27391 0.51849 1.12300
Ni	Ni	0.68371 0.23429 0.56155 1.12300
O 	O 	0.69390 0.40822 0.59418 -0.36100
O 	O 	0.74192 0.31580 0.59342 -0.37000
O 	O 	0.53748 0.14938 0.51528 -0.37300
O 	O 	0.48126 0.21350 0.57690 -0.38000
O 	O 	0.48007 0.25119 0.53145 -0.36700
O 	O 	0.76350 0.30437 0.53338 -0.37500
O 	O 	0.59974 0.24926 0.61758 -0.35900
O 	O 	0.60398 0.15531 0.58844 -0.39200
O 	O 	0.68115 0.29451 0.49799 -0.36200
O 	O 	0.55914 0.39607 0.56067 -0.36100
O 	O 	0.61602 0.39698 0.51837 -0.37600
O 	O 	0.63583 0.14020 0.53395 -0.36900
O 	O 	0.63021 0.29232 0.55424 -0.71900
H 	H 	0.67340 0.34835 0.55042 0.15800
C 	C 	0.95004 0.80003 0.74730 0.33400
C 	C 	0.91745 0.00879 0.72199 0.35800
Ni	Ni	0.95385 0.94767 0.77417 1.11500
O 	O 	0.90288 0.99277 0.74884 -0.39700
O 	O 	0.91691 0.84630 0.74855 -0.36900
O 	O 	0.98333 0.04959 0.79789 -0.35200
O 	O 	0.98122 0.88932 0.80484 -0.37000
O 	O 	0.98509 0.03099 0.71179 -0.37400
C 	C 	0.30919 0.72752 0.49566 0.33400
C 	C 	0.39530 0.59783 0.47847 0.30200
C 	C 	0.37470 0.65360 0.38586 0.31400
Ni	Ni	0.36067 0.71188 0.44145 1.12200
O 	O 	0.33270 0.77363 0.41272 -0.37400
O 	O 	0.28382 0.64951 0.50353 -0.36300
O 	O 	0.30547 0.74322 0.46951 -0.39300
O 	O 	0.30297 0.63451 0.38146 -0.38300
O 	O 	0.40702 0.67871 0.41060 -0.37500
O 	O 	0.32477 0.53582 0.48126 -0.36600
O 	O 	0.41121 0.67624 0.47213 -0.36500
O 	O 	0.27738 0.60180 0.44087 -0.71700
H 	H 	0.30374 0.57066 0.43587 0.16600
C 	C 	0.41137 0.62850 0.98140 0.31300
C 	C 	0.41284 0.80175 0.06252 0.30700
C 	C 	0.38046 0.84591 0.97144 0.28400
Ni	Ni	0.33745 0.63283 0.03566 1.11800
Ni	Ni	0.28637 0.77763 0.02367 1.11900
Ni	Ni	0.28283 0.66003 0.97338 1.12100
O 	O 	0.41978 0.63707 0.00865 -0.35900
O 	O 	0.34445 0.60092 0.97023 -0.37800
O 	O 	0.26723 0.62159 0.06968 -0.34900
O 	O 	0.36775 0.77325 0.96019 -0.36800
O 	O 	0.33158 0.85023 0.98906 -0.36900
O 	O 	0.42286 0.74134 0.05242 -0.36500
O 	O 	0.38375 0.83930 0.04683 -0.38400
O 	O 	0.31337 0.69692 0.01100 -0.70200
H 	H 	0.36689 0.73688 0.00714 0.13700
C 	C 	0.81757 0.94626 0.25987 0.27200
C 	C 	0.83312 0.94818 0.18558 0.29900
Ni	Ni	0.92041 0.09644 0.22051 1.11800
Ni	Ni	0.93111 0.92539 0.22731 1.11900
O 	O 	0.82437 0.00831 0.24317 -0.33900
O 	O 	0.86953 0.92248 0.26093 -0.36900
O 	O 	0.88428 0.02696 0.18460 -0.34700
O 	O 	0.83677 0.89798 0.20450 -0.37200
O 	O 	0.97082 0.17474 0.25427 -0.35400
O 	O 	0.98321 0.92464 0.19202 -0.38200
O 	O 	0.97722 0.04357 0.22895 -0.69800
H 	H 	0.97758 0.04803 0.24937 0.15700
C 	C 	0.98041 0.20663 0.13389 0.21000
O 	O 	0.91037 0.16356 0.14617 -0.29200
H 	H 	0.93727 0.23103 0.09603 0.08300
H 	H 	0.88770 0.10613 0.13849 0.18000
C 	C 	0.70204 0.92254 0.12725 -0.11200
C 	C 	0.64165 0.92110 0.14204 -0.00500
C 	C 	0.64200 0.92055 0.17141 0.12100
C 	C 	0.70112 0.91890 0.18567 -0.04100
C 	C 	0.76238 0.92259 0.17088 -0.12300
C 	C 	0.76202 0.92292 0.14155 0.18700
C 	C 	0.57161 0.90085 0.12711 0.02300
O 	O 	0.58313 0.91855 0.18618 -0.27200
H 	H 	0.70115 0.91894 0.20829 0.05900
O 	O 	0.82187 0.92708 0.12683 -0.29700
H 	H 	0.70130 0.92080 0.10463 0.06900
C 	C 	0.57040 0.95576 0.10669 0.08100
C 	C 	0.51096 0.92641 0.08748 -0.01700
C 	C 	0.45433 0.84189 0.08811 -0.12700
C 	C 	0.45183 0.79018 0.11051 0.19800
C 	C 	0.50984 0.82031 0.12996 -0.11700
O 	O 	0.62753 0.03743 0.10526 -0.23500
H 	H 	0.51246 0.96732 0.07079 0.05400
O 	O 	0.39870 0.70667 0.11102 -0.29400
H 	H 	0.50997 0.77826 0.14594 0.08600
H 	H 	0.80882 0.86797 0.12380 0.15700
H 	H 	0.66477 0.03760 0.09177 0.15500
H 	H 	0.36456 0.69984 0.12686 0.16100
H 	H 	0.59771 0.97814 0.18917 0.14900
C 	C 	0.27494 0.77662 0.11545 -0.04300
O 	O 	0.27991 0.88379 0.14511 -0.27100
H 	H 	0.32331 0.82407 0.10422 0.05300
C 	C 	0.54971 0.70007 0.34529 -0.11500
C 	C 	0.54438 0.74634 0.32290 0.00900
C 	C 	0.47615 0.74652 0.31825 0.12400
C 	C 	0.41607 0.70624 0.33727 -0.03100
C 	C 	0.42473 0.66835 0.36150 -0.11700
C 	C 	0.48981 0.66014 0.36436 0.19400
C 	C 	0.61177 0.79874 0.30551 -0.00200
O 	O 	0.46814 0.78605 0.29518 -0.27100
H 	H 	0.36441 0.70838 0.33391 0.06000
O 	O 	0.49657 0.61690 0.38661 -0.28100
H 	H 	0.60126 0.69737 0.34844 0.07900
C 	C 	0.65549 0.88541 0.31043 0.13700
C 	C 	0.72193 0.93383 0.29499 -0.08200
C 	C 	0.74601 0.89596 0.27510 -0.09200
C 	C 	0.70144 0.80960 0.26979 0.18500
C 	C 	0.63492 0.76131 0.28514 -0.10200
O 	O 	0.63303 0.92292 0.33014 -0.28200
H 	H 	0.75545 0.00045 0.29891 0.09600
O 	O 	0.72337 0.77212 0.24989 -0.28600
H 	H 	0.60155 0.69463 0.28131 0.07900
H 	H 	0.47518 0.55829 0.38012 0.15200
H 	H 	0.65679 0.91944 0.34778 0.15100
H 	H 	0.69916 0.77567 0.23238 0.15900
H 	H 	0.48362 0.84391 0.30129 0.15800
H 	H 	0.26830 0.27861 0.36330 0.14800
C 	C 	0.28740 0.86296 0.37063 0.19400
O 	O 	0.35143 0.86120 0.36254 -0.28300
H 	H 	0.28559 0.92931 0.33367 0.07100
H 	H 	0.33344 0.81132 0.35044 0.15200
H 	H 	0.28131 0.08295 0.33748 0.15800
C 	C 	0.51705 0.01605 0.52856 -0.02000
C 	C 	0.47155 0.94251 0.52683 -0.02700
C 	C 	0.41398 0.86008 0.52111 0.06900
C 	C 	0.36434 0.79495 0.51209 -0.11500
C 	C 	0.81501 0.37820 0.49133 -0.06800
C 	C 	0.87455 0.41801 0.47914 0.03500
C 	C 	0.94821 0.46245 0.46748 0.06700
C 	C 	0.55957 0.48264 0.52333 -0.07800
C 	C 	0.53285 0.52208 0.51270 0.04600
C 	C 	0.49408 0.55997 0.50007 0.04200
C 	C 	0.45352 0.58336 0.48967 -0.07400
C 	C 	0.73316 0.99132 0.69847 -0.14500
C 	C 	0.75885 0.05980 0.68007 0.04900
C 	C 	0.83605 0.10505 0.67278 0.11400
C 	C 	0.88746 0.08487 0.68522 -0.02600
C 	C 	0.86221 0.01854 0.70459 -0.09200
C 	C 	0.78411 0.96925 0.71014 0.17600
C 	C 	0.70456 0.08278 0.66784 -0.01400
O 	O 	0.86171 0.17072 0.65418 -0.27000
H 	H 	0.94720 0.12270 0.68051 0.06500
O 	O 	0.75774 0.90096 0.72764 -0.28300
H 	H 	0.67365 0.95523 0.70379 0.07600
C 	C 	0.65006 0.02934 0.64869 0.15700
C 	C 	0.60746 0.05737 0.63381 -0.04700
C 	C 	0.62080 0.13977 0.63708 -0.11700
C 	C 	0.66779 0.18872 0.65900 0.18900
C 	C 	0.71033 0.16059 0.67398 -0.09800
O 	O 	0.64245 0.95231 0.64289 -0.30300
H 	H 	0.56837 0.01733 0.61806 0.07600
O 	O 	0.67489 0.26539 0.66496 -0.27900
H 	H 	0.74965 0.20046 0.68969 0.08300
H 	H 	0.74770 0.85313 0.71538 0.15900
H 	H 	0.60176 0.91248 0.65557 0.14500
H 	H 	0.63549 0.25397 0.67927 0.15400
H 	H 	0.85834 0.14559 0.63558 0.15600
C 	C 	0.32892 0.06699 0.55338 -0.04000
C 	C 	0.36239 0.15464 0.55418 -0.11000
C 	C 	0.32153 0.19032 0.56616 0.19200
H 	H 	0.35721 0.03821 0.54256 0.07300
O 	O 	0.34772 0.27487 0.56376 -0.27900
O 	O 	0.30501 0.01451 0.63097 -0.27800
H 	H 	0.38088 0.30039 0.58012 0.15000
H 	H 	0.33939 0.07481 0.63468 0.15400
C 	C 	0.87785 0.59721 0.62946 -0.11100
C 	C 	0.88188 0.56964 0.65639 0.00500
C 	C 	0.86346 0.48575 0.66078 0.12800
C 	C 	0.83182 0.42803 0.63909 -0.03200
C 	C 	0.81575 0.45323 0.61350 -0.11200
C 	C 	0.84598 0.53933 0.60785 0.19200
C 	C 	0.89855 0.62643 0.68020 0.00800
O 	O 	0.87077 0.45886 0.68676 -0.26800
H 	H 	0.81360 0.36252 0.64299 0.07900
O 	O 	0.83731 0.56589 0.58201 -0.28500
H 	H 	0.89566 0.66270 0.62564 0.07500
C 	C 	0.97149 0.66822 0.69138 0.12200
C 	C 	0.98701 0.72243 0.71385 -0.01700
C 	C 	0.93057 0.73769 0.72485 -0.12800
C 	C 	0.85700 0.69469 0.71386 0.19900
C 	C 	0.84145 0.63970 0.69148 -0.11400
O 	O 	0.80046 0.70656 0.72478 -0.28600
H 	H 	0.78496 0.60724 0.68291 0.07900
H 	H 	0.88317 0.57681 0.57130 0.15400
H 	H 	0.77677 0.66364 0.73974 0.15600
H 	H 	0.92212 0.46520 0.68691 0.16000
C 	C 	0.89176 0.44116 0.96708 -0.09900
C 	C 	0.95434 0.49853 0.97079 0.07300
C 	C 	0.57945 0.14956 0.93964 -0.09700
C 	C 	0.53717 0.07686 0.94525 0.10000
C 	C 	0.48579 0.99284 0.95257 -0.01400
C 	C 	0.43934 0.92342 0.96016 -0.05700
C 	C 	0.60089 0.55973 0.93013 -0.07600
C 	C 	0.56111 0.58505 0.93966 0.04600
C 	C 	0.51161 0.60697 0.95305 0.04500
C 	C 	0.46700 0.61967 0.96568 -0.08400
C 	C 	0.98723 0.26345 0.83795 -0.10200
C 	C 	0.97947 0.19155 0.82496 0.20000
O 	O 	0.91489 0.11634 0.82933 -0.27700
H 	H 	0.94301 0.25859 0.85187 0.07400
C 	C 	0.97236 0.48735 0.83852 -0.01800
C 	C 	0.97665 0.49561 0.86765 -0.12400
O 	O 	0.99709 0.43209 0.79696 -0.26200
H 	H 	0.93506 0.50253 0.82684 0.06500
H 	H 	0.92522 0.09150 0.84604 0.15700
H 	H 	0.94967 0.37773 0.79535 0.15200
C 	C 	0.43789 0.21942 0.76022 -0.11400
C 	C 	0.45236 0.25101 0.78740 0.00700
C 	C 	0.39439 0.25255 0.80316 0.12900
C 	C 	0.32119 0.21694 0.79239 -0.03400
C 	C 	0.30543 0.17902 0.76611 -0.11400
C 	C 	0.36489 0.18431 0.74941 0.19500
C 	C 	0.52728 0.27950 0.79973 0.00600
O 	O 	0.40933 0.28917 0.82899 -0.26700
H 	H 	0.27601 0.21499 0.80506 0.06500
O 	O 	0.35085 0.15124 0.72304 -0.27900
H 	H 	0.48282 0.22012 0.74774 0.07500
C 	C 	0.53719 0.23086 0.82034 0.12300
C 	C 	0.60412 0.26523 0.83569 -0.03700
C 	C 	0.66123 0.34777 0.83046 -0.11500
C 	C 	0.65528 0.39155 0.80723 0.19600
C 	C 	0.58787 0.35785 0.79222 -0.11000
O 	O 	0.47968 0.15194 0.82672 -0.26900
H 	H 	0.60925 0.23000 0.85297 0.06800
O 	O 	0.71335 0.46976 0.80043 -0.28200
H 	H 	0.58164 0.39405 0.77551 0.07800
H 	H 	0.35744 0.19771 0.71055 0.15100
H 	H 	0.48798 0.11382 0.81439 0.15500
H 	H 	0.74537 0.45989 0.78699 0.15300
H 	H 	0.39854 0.24323 0.84243 0.16500
C 	C 	0.89493 0.80326 0.93110 -0.11700
C 	C 	0.97103 0.82320 0.92913 0.00800
C 	C 	0.99868 0.78811 0.94899 0.13700
C 	C 	0.94724 0.71930 0.96520 -0.03500
C 	C 	0.86966 0.68294 0.95972 -0.11900
C 	C 	0.84458 0.73496 0.94769 0.18700
H 	H 	0.96772 0.68645 0.97825 0.06500
O 	O 	0.76928 0.71129 0.94808 -0.28000
H 	H 	0.87358 0.83475 0.91776 0.07300
H 	H 	0.76231 0.73872 0.96475 0.15400
H 	H 	0.94984 0.68869 0.88791 0.14400
