data_crystal

_cell_length_a 17.80470
_cell_length_b 17.08502
_cell_length_c 49.39595
_cell_angle_alpha 90.73818
_cell_angle_beta  91.03863
_cell_angle_gamma 110.87391

_symmetry_space_group_name_	'P 1'
_symmetry_space_group_name_H-M	'P 1'

loop_
_symmetry_equiv_pos_as_xyz
  x,y,z

loop_
_atom_site_label
_atom_site_type_symbol
_atom_site_fract_x
_atom_site_fract_y
_atom_site_fract_z
_atom_site_charge
O 	O 	0.10007 0.87191 0.75367 -0.70000
Ni	Ni	0.11788 0.97995 0.77391 1.10000
O 	O 	0.15756 0.77138 0.71633 -0.39700
Ni	Ni	0.20622 0.87078 0.74419 1.07000
O 	O 	0.21407 0.96457 0.71794 -0.40800
O 	O 	0.19587 0.96811 0.80285 -0.38300
O 	O 	0.04229 0.98877 0.74371 -0.70400
O 	O 	0.11038 0.08285 0.79396 -0.36700
H 	H 	0.07052 0.82283 0.76454 0.15700
H 	H 	0.06445 0.04138 0.73357 0.15100
C 	C 	0.23127 0.04239 0.72703 0.27100
C 	C 	0.08489 0.74933 0.70529 0.30200
C 	C 	0.26715 0.96884 0.79619 0.30800
C 	C 	0.03984 0.08790 0.79888 0.28100
O 	O 	0.21248 0.05766 0.75198 -0.37300
O 	O 	0.28205 0.95738 0.77068 -0.40900
Ni	Ni	0.34228 0.77166 0.40743 1.11700
O 	O 	0.33106 0.70049 0.37250 -0.69600
Ni	Ni	0.21696 0.68647 0.36145 1.09500
O 	O 	0.44092 0.75201 0.42351 -0.31900
O 	O 	0.43665 0.63058 0.40317 -0.35700
O 	O 	0.41892 0.87704 0.38939 -0.34500
Ni	Ni	0.33151 0.58724 0.37955 1.08000
O 	O 	0.31765 0.94217 0.41454 -0.36800
O 	O 	0.26333 0.57959 0.41278 -0.38600
O 	O 	0.20370 0.60484 0.32973 -0.39800
O 	O 	0.23443 0.76657 0.39372 -0.70900
O 	O 	0.34479 0.84453 0.44040 -0.28900
O 	O 	0.10714 0.69540 0.35229 -0.36200
O 	O 	0.16285 0.83802 0.35021 -0.40700
Ni	Ni	0.24317 0.87936 0.38310 1.07800
H 	H 	0.36982 0.72855 0.35845 0.16000
H 	H 	0.19321 0.74528 0.40767 0.19800
C 	C 	0.18957 0.57957 0.41066 0.38300
O 	O 	0.33499 0.89680 0.35694 -0.40400
C 	C 	0.44338 0.67645 0.42530 0.39000
C 	C 	0.21082 0.53194 0.33354 0.29600
C 	C 	0.40696 0.90062 0.36500 0.28700
C 	C 	0.09892 0.76880 0.35052 0.28400
C 	C 	0.32008 0.90837 0.43837 0.38300
O 	O 	0.15895 0.58955 0.38693 -0.35800
O 	O 	0.23271 0.51369 0.35756 -0.38500
Ni	Ni	0.35244 0.67013 0.13265 1.10100
O 	O 	0.25413 0.64261 0.10657 -0.69200
Ni	Ni	0.18668 0.69765 0.12668 1.10500
O 	O 	0.40262 0.59348 0.11370 -0.32600
O 	O 	0.28642 0.48326 0.10657 -0.36800
O 	O 	0.42141 0.75900 0.10638 -0.33800
Ni	Ni	0.19053 0.52295 0.10062 1.10400
O 	O 	0.46309 0.84374 0.15227 -0.38000
O 	O 	0.16743 0.50271 0.14057 -0.40200
O 	O 	0.09184 0.66893 0.09994 -0.34100
O 	O 	0.28722 0.72923 0.15136 -0.70200
O 	O 	0.44717 0.70694 0.15971 -0.36600
O 	O 	0.13992 0.77341 0.14798 -0.34700
O 	O 	0.25312 0.88824 0.14409 -0.36500
Ni	Ni	0.35067 0.84992 0.14889 1.07500
H 	H 	0.26902 0.66923 0.08881 0.20400
H 	H 	0.27557 0.71124 0.17028 0.15700
C 	C 	0.11310 0.52558 0.15224 0.30500
O 	O 	0.35154 0.84706 0.10780 -0.37300
C 	C 	0.35844 0.52884 0.09887 0.40000
C 	C 	0.07510 0.60362 0.08353 0.39500
C 	C 	0.39787 0.81549 0.09486 0.39400
C 	C 	0.18442 0.85017 0.15566 0.28500
O 	O 	0.11886 0.60485 0.15246 -0.36200
O 	O 	0.08237 0.53410 0.09222 -0.37500
O 	O 	0.03751 0.20964 0.25117 -0.37600
O 	O 	0.08553 0.07577 0.24409 -0.40800
O 	O 	0.99848 0.08308 0.21025 -0.35600
Ni	Ni	0.02286 0.03778 0.27873 1.06500
O 	O 	0.04490 0.15665 0.29283 -0.40900
C 	C 	0.06098 0.22065 0.27672 0.29700
C 	C 	0.05258 0.05297 0.21960 0.27800
C 	C 	0.93216 0.34035 0.17380 -0.03700
C 	C 	0.00786 0.41126 0.21407 0.10400
C 	C 	0.06040 0.47251 0.19753 -0.03100
C 	C 	0.05268 0.46459 0.16918 -0.08900
C 	C 	0.98861 0.39663 0.15721 0.13200
N 	N 	0.98326 0.38247 0.13000 -0.19300
H 	H 	0.10885 0.52481 0.20676 0.04500
H 	H 	0.93103 0.33916 0.12108 0.14300
H 	H 	0.03352 0.40618 0.11802 0.11400
C 	C 	0.16790 0.01917 0.20290 -0.04500
C 	C 	0.08502 0.00358 0.20164 -0.09900
C 	C 	0.03363 0.93421 0.18596 0.12000
C 	C 	0.06742 0.88624 0.17042 -0.03900
C 	C 	0.14981 0.89966 0.17282 -0.07800
C 	C 	0.19949 0.96375 0.19056 0.11200
N 	N 	0.27584 0.96926 0.19705 -0.18700
H 	H 	0.20719 0.07137 0.21514 0.05700
H 	H 	0.02897 0.83668 0.15709 0.07900
N 	N 	0.95219 0.91105 0.18663 -0.19600
H 	H 	0.31390 0.02019 0.20856 0.07800
H 	H 	0.29574 0.91995 0.19281 0.04200
H 	H 	0.37542 0.81736 0.32004 0.07100
C 	C 	0.20928 0.43759 0.29498 -0.04800
C 	C 	0.16696 0.46222 0.31498 -0.09200
C 	C 	0.08639 0.41169 0.31997 0.12500
C 	C 	0.05281 0.33302 0.30711 -0.04600
C 	C 	0.09651 0.30605 0.28819 -0.09700
C 	C 	0.17474 0.35975 0.28140 0.11400
N 	N 	0.21776 0.33620 0.26254 -0.20200
H 	H 	0.27050 0.47735 0.29080 0.04000
N 	N 	0.04121 0.43818 0.33721 -0.19700
H 	H 	0.27539 0.37641 0.25770 0.09300
H 	H 	0.19488 0.27801 0.25256 0.10900
H 	H 	0.06188 0.49907 0.34530 0.13600
C 	C 	0.98053 0.80409 0.36281 -0.04500
C 	C 	0.01968 0.77293 0.34337 -0.08600
C 	C 	0.99230 0.76526 0.31604 0.11100
C 	C 	0.93719 0.80311 0.30810 -0.05100
H 	H 	0.99722 0.80466 0.38406 0.06000
H 	H 	0.92155 0.80406 0.28681 0.03200
N 	N 	0.02044 0.72430 0.29729 -0.20200
H 	H 	0.05843 0.69240 0.30282 0.10100
H 	H 	0.00222 0.72170 0.27696 0.08400
C 	C 	0.31687 0.95498 0.46313 -0.19100
C 	C 	0.26628 0.91349 0.48398 0.31300
F 	F 	0.20836 0.83721 0.47914 -0.35400
F 	F 	0.42196 0.07708 0.44784 -0.37300
C 	C 	0.11914 0.56928 0.48227 0.24000
C 	C 	0.04912 0.49752 0.48082 0.00200
C 	C 	0.02211 0.45617 0.45582 0.22800
C 	C 	0.06611 0.48519 0.43250 0.31800
C 	C 	0.13751 0.55562 0.43411 -0.22100
C 	C 	0.16318 0.59820 0.45901 0.31500
F 	F 	0.23127 0.66728 0.46066 -0.37100
F 	F 	0.14464 0.61067 0.50629 -0.31500
F 	F 	0.04102 0.44316 0.40855 -0.39000
C 	C 	0.47550 0.65397 0.50041 0.24100
C 	C 	0.51575 0.59742 0.45112 0.31300
C 	C 	0.47143 0.65129 0.45109 -0.20000
C 	C 	0.45139 0.67919 0.47595 0.31700
F 	F 	0.40721 0.72960 0.47642 -0.34000
F 	F 	0.40519 0.49217 0.53573 -0.31600
F 	F 	0.45706 0.68272 0.52420 -0.31700
C 	C 	0.36430 0.16364 0.67164 -0.03900
C 	C 	0.43163 0.21343 0.68714 -0.08100
C 	C 	0.42544 0.22051 0.71547 0.11000
C 	C 	0.35643 0.16807 0.72820 -0.04300
C 	C 	0.29247 0.11099 0.71292 -0.08700
C 	C 	0.29376 0.11371 0.68432 0.11800
N 	N 	0.22729 0.07033 0.66902 -0.19600
H 	H 	0.36776 0.16138 0.64976 0.08900
H 	H 	0.35403 0.16925 0.75012 0.06100
H 	H 	0.22974 0.06963 0.64790 0.12100
H 	H 	0.17169 0.04088 0.67788 0.09000
H 	H 	0.48184 0.28021 0.75155 0.08700
N 	N 	0.12972 0.66576 0.66027 -0.20200
H 	H 	0.14073 0.64240 0.64169 0.13100
H 	H 	0.17544 0.71682 0.66918 0.12400
C 	C 	0.03021 0.66485 0.01371 0.23600
C 	C 	0.03311 0.60274 0.05752 -0.21500
C 	C 	0.06400 0.66965 0.03973 0.31800
F 	F 	0.12901 0.73770 0.04728 -0.37700
F 	F 	0.06201 0.72866 0.99638 -0.32900
C 	C 	0.48484 0.84175 0.02471 0.23900
C 	C 	0.50643 0.92852 0.02141 0.00200
C 	C 	0.49272 0.97796 0.04228 0.24000
C 	C 	0.45811 0.94128 0.06631 0.32000
C 	C 	0.43521 0.85420 0.06954 -0.20400
C 	C 	0.44901 0.80461 0.04862 0.32100
F 	F 	0.42651 0.72038 0.05129 -0.37400
C 	C 	0.49169 0.95697 0.97256 0.24300
F 	F 	0.41441 0.90271 0.97255 -0.32300
F 	F 	0.47122 0.99694 0.92777 -0.36000
F 	F 	0.49824 0.79345 0.00469 -0.31200
F 	F 	0.44823 0.99062 0.08668 -0.37500
C 	C 	0.36737 0.47204 0.02528 0.23700
C 	C 	0.46920 0.51476 0.07134 0.33300
C 	C 	0.38873 0.50900 0.07317 -0.21500
C 	C 	0.33810 0.48807 0.04996 0.32700
F 	F 	0.26105 0.48528 0.05122 -0.42800
F 	F 	0.46791 0.32318 0.01422 -0.32500
F 	F 	0.31776 0.45093 0.00304 -0.33000
F 	F 	0.51857 0.53416 0.09364 -0.36900
H 	H 	0.02657 0.09067 0.85324 0.06800
C 	C 	0.47246 0.03225 0.83020 -0.04300
C 	C 	0.48273 0.11337 0.83965 -0.07700
C 	C 	0.41891 0.14405 0.83645 0.11500
C 	C 	0.34550 0.09191 0.82472 -0.02700
C 	C 	0.33608 0.01182 0.81458 -0.09800
C 	C 	0.39923 0.98062 0.81811 0.13200
N 	N 	0.38917 0.90053 0.81064 -0.19900
H 	H 	0.52056 0.00800 0.83317 0.05700
H 	H 	0.29723 0.11598 0.82183 0.06400
H 	H 	0.43689 0.87872 0.81247 0.09900
H 	H 	0.33323 0.85828 0.80400 0.08500
Ni	Ni	0.63805 0.28152 0.90123 1.11000
O 	O 	0.66197 0.35716 0.86848 -0.70400
O 	O 	0.55168 0.32414 0.91500 -0.34100
O 	O 	0.63656 0.46023 0.91481 -0.34100
O 	O 	0.54838 0.18866 0.88009 -0.34000
Ni	Ni	0.66572 0.47197 0.87394 1.08600
O 	O 	0.62675 0.09645 0.90321 -0.37700
O 	O 	0.73879 0.26941 0.88823 -0.70400
O 	O 	0.62025 0.20034 0.93218 -0.31400
Ni	Ni	0.71112 0.15456 0.87498 1.07600
H 	H 	0.62447 0.33135 0.85317 0.15300
H 	H 	0.77935 0.28165 0.90319 0.19200
O 	O 	0.62603 0.16099 0.84784 -0.41300
C 	C 	0.57195 0.40174 0.92394 0.37600
C 	C 	0.55596 0.16080 0.85574 0.29400
C 	C 	0.62438 0.12536 0.92817 0.39200
Ni	Ni	0.62176 0.33759 0.63009 1.10500
O 	O 	0.71809 0.37000 0.60498 -0.69400
O 	O 	0.57020 0.40616 0.60753 -0.30700
O 	O 	0.68365 0.52266 0.61195 -0.36200
O 	O 	0.57363 0.23953 0.60353 -0.37600
Ni	Ni	0.78334 0.48865 0.60576 1.11100
O 	O 	0.56885 0.22158 0.68355 -0.41800
O 	O 	0.69516 0.28907 0.64907 -0.69800
O 	O 	0.52057 0.29629 0.65347 -0.34700
O 	O 	0.69371 0.11994 0.63382 -0.37800
Ni	Ni	0.63188 0.17397 0.65878 1.07400
H 	H 	0.70170 0.35063 0.58607 0.20400
H 	H 	0.71750 0.32253 0.66577 0.15500
O 	O 	0.53271 0.13167 0.63320 -0.38100
C 	C 	0.61421 0.48166 0.59957 0.37400
C 	C 	0.52299 0.16648 0.61046 0.42300
C 	C 	0.51044 0.24553 0.67432 0.29700
C 	C 	0.47983 0.78700 0.16654 0.29000
C 	C 	0.52268 0.86111 0.21012 -0.04300
C 	C 	0.53958 0.81524 0.18895 -0.09500
C 	C 	0.61996 0.81949 0.18562 0.13100
C 	C 	0.68197 0.87540 0.20210 -0.04500
C 	C 	0.66530 0.93019 0.22040 -0.07800
C 	C 	0.58498 0.92571 0.22333 0.10800
N 	N 	0.56830 0.98833 0.23601 -0.18900
H 	H 	0.46094 0.85612 0.21315 0.02100
H 	H 	0.74332 0.87786 0.20006 0.04700
N 	N 	0.63802 0.77091 0.16668 -0.20100
H 	H 	0.50944 0.97965 0.24144 0.08400
H 	H 	0.61052 0.04908 0.23682 0.07800
H 	H 	0.59316 0.72615 0.15509 0.14300
H 	H 	0.69766 0.77619 0.16386 0.11600
C 	C 	0.53766 0.01703 0.36012 -0.05900
C 	C 	0.47720 0.94622 0.34866 -0.06000
C 	C 	0.48694 0.91717 0.32243 0.09100
C 	C 	0.55802 0.95812 0.30862 -0.01700
C 	C 	0.61865 0.02853 0.32012 -0.10900
C 	C 	0.60803 0.05914 0.34597 0.13200
N 	N 	0.66425 0.12930 0.35715 -0.20200
H 	H 	0.52982 0.03963 0.38011 0.09200
H 	H 	0.56696 0.93386 0.28904 0.05600
N 	N 	0.42924 0.84938 0.31055 -0.19600
H 	H 	0.65652 0.15050 0.37647 0.12600
H 	H 	0.43763 0.82828 0.29128 0.08100
C 	C 	0.27853 0.94821 0.51018 0.25700
C 	C 	0.34182 0.02424 0.51568 -0.01600
C 	C 	0.38669 0.06987 0.49426 0.23800
C 	C 	0.37414 0.03537 0.46803 0.30500
C 	C 	0.37022 0.04846 0.54379 0.00700
F 	F 	0.44654 0.14475 0.49926 -0.33700
C 	C 	0.41407 0.00609 0.55728 0.21300
C 	C 	0.45867 0.04099 0.58084 0.32100
C 	C 	0.45999 0.11862 0.59093 -0.22900
C 	C 	0.40953 0.15642 0.57903 0.31600
C 	C 	0.36468 0.12135 0.55553 0.22800
F 	F 	0.41803 0.93423 0.54646 -0.31600
F 	F 	0.40726 0.22941 0.58951 -0.36500
F 	F 	0.50548 0.00266 0.59264 -0.38300
F 	F 	0.31953 0.16071 0.54326 -0.32700
F 	F 	0.23241 0.90548 0.53057 -0.32800
C 	C 	0.51826 0.59907 0.50039 0.00100
C 	C 	0.53817 0.57077 0.47565 0.23500
C 	C 	0.54259 0.57151 0.52631 0.00100
F 	F 	0.57924 0.51735 0.47542 -0.32800
C 	C 	0.48423 0.51861 0.54319 0.23900
C 	C 	0.50720 0.49238 0.56769 0.32100
C 	C 	0.58915 0.51710 0.57526 -0.20400
C 	C 	0.64747 0.57089 0.55839 0.31100
C 	C 	0.62410 0.59855 0.53423 0.23900
F 	F 	0.72693 0.59430 0.56495 -0.39800
F 	F 	0.44981 0.44315 0.58410 -0.34400
F 	F 	0.68083 0.65113 0.51833 -0.32800
F 	F 	0.53825 0.57196 0.42746 -0.37700
H 	H 	0.68795 0.99427 0.66295 0.05800
N 	N 	0.73235 0.87938 0.68610 -0.20000
H 	H 	0.67078 0.86820 0.68692 0.09800
N 	N 	0.48529 0.27766 0.73048 -0.19800
H 	H 	0.53390 0.32240 0.72129 0.09400
C 	C 	0.54116 0.96763 0.99582 0.01100
F 	F 	0.51272 0.06176 0.03919 -0.32700
C 	C 	0.52063 0.00522 0.94974 0.31300
C 	C 	0.59900 0.06498 0.95010 -0.19900
C 	C 	0.64977 0.07263 0.97281 0.31800
C 	C 	0.62121 0.02357 0.99551 0.23300
F 	F 	0.72608 0.12920 0.97316 -0.37400
F 	F 	0.67027 0.03261 0.01761 -0.33200
C 	C 	0.44760 0.47753 0.02349 0.01100
C 	C 	0.49854 0.49930 0.04656 0.23600
C 	C 	0.47738 0.45734 0.99773 0.00300
F 	F 	0.57635 0.50496 0.04494 -0.32100
C 	C 	0.49603 0.51524 0.97673 0.24100
C 	C 	0.52462 0.49604 0.95230 0.32200
C 	C 	0.53538 0.41897 0.94876 -0.19600
C 	C 	0.51595 0.36076 0.96980 0.31900
C 	C 	0.48664 0.37980 0.99407 0.23900
F 	F 	0.48685 0.59030 0.98011 -0.30900
F 	F 	0.52796 0.28694 0.96706 -0.35700
F 	F 	0.54177 0.55222 0.93202 -0.37300
N 	N 	0.42869 0.22435 0.84356 -0.19400
H 	H 	0.48497 0.26804 0.84901 0.08300
H 	H 	0.38017 0.24510 0.84230 0.10400
H 	H 	0.69773 0.61942 0.74165 0.09100
O 	O 	0.69810 0.49638 0.83487 -0.40400
O 	O 	0.05906 0.80622 0.69557 -0.36200
C 	C 	0.69341 0.06714 0.30512 0.30500
O 	O 	0.68665 0.08367 0.27936 -0.41800
H 	H 	0.71509 0.16453 0.34661 0.10300
F 	F 	0.91410 0.53874 0.49412 -0.33000
H 	H 	0.06757 0.46662 0.25023 0.09000
F 	F 	0.04731 0.54345 0.96390 -0.33400
H 	H 	0.70545 0.54309 0.78105 0.05000
N 	N 	0.01903 0.41790 0.24144 -0.19800
C 	C 	0.93881 0.49201 0.51175 0.23700
H 	H 	0.92430 0.93411 0.20150 0.08200
O 	O 	0.79527 0.18902 0.84439 -0.40500
C 	C 	0.00338 0.46686 0.50543 0.00100
H 	H 	0.88276 0.28895 0.16458 0.07600
F 	F 	0.08992 0.39236 0.51750 -0.32800
O 	O 	0.97267 0.99587 0.31590 -0.39800
H 	H 	0.91547 0.86402 0.17346 0.10500
H 	H 	0.99259 0.29236 0.31202 0.03900
C 	C 	0.91256 0.85093 0.32683 -0.09500
C 	C 	0.92576 0.84207 0.35468 0.12900
C 	C 	0.96559 0.53283 0.04949 0.32500
F 	F 	0.93279 0.46943 0.06689 -0.37000
Ni	Ni	0.77105 0.35764 0.85867 1.10100
H 	H 	0.75272 0.83196 0.69224 0.11200
C 	C 	0.94459 0.34305 0.20192 -0.07700
O 	O 	0.78304 0.53448 0.88577 -0.36700
O 	O 	0.80627 0.45224 0.83088 -0.37300
O 	O 	0.86975 0.32846 0.84951 -0.34700
C 	C 	0.82499 0.49850 0.89947 0.37900
C 	C 	0.77153 0.50815 0.82649 0.29800
C 	C 	0.86569 0.25026 0.84734 0.28700
O 	O 	0.84015 0.43531 0.88869 -0.35400
Ni	Ni	0.78227 0.30609 0.62100 1.10700
O 	O 	0.80378 0.48847 0.64651 -0.40300
O 	O 	0.86691 0.33303 0.59199 -0.34400
O 	O 	0.82125 0.21554 0.63631 -0.36400
C 	C 	0.85896 0.46146 0.65615 0.29300
C 	C 	0.89220 0.40929 0.58212 0.39200
C 	C 	0.77143 0.13744 0.63753 0.27800
O 	O 	0.86626 0.39286 0.64604 -0.36100
O 	O 	0.88905 0.47331 0.59685 -0.36900
Ni	Ni	0.03577 0.88997 0.72066 1.10200
O 	O 	0.93397 0.79633 0.73375 -0.37700
O 	O 	0.87385 0.91923 0.72093 -0.40900
O 	O 	0.96756 0.91317 0.69050 -0.36100
O 	O 	0.97368 0.02253 0.79448 -0.40700
Ni	Ni	0.93423 0.97182 0.75608 1.06900
O 	O 	0.91700 0.85922 0.77306 -0.40600
C 	C 	0.90936 0.79147 0.75885 0.29500
C 	C 	0.90594 0.93517 0.69670 0.28300
Ni	Ni	0.93229 0.11804 0.23781 1.10400
O 	O 	0.87090 0.14778 0.26900 -0.70100
Ni	Ni	0.83852 0.03810 0.28831 1.09600
O 	O 	0.91395 0.19763 0.21011 -0.36300
O 	O 	0.83974 0.26351 0.23154 -0.39100
Ni	Ni	0.77384 0.16444 0.25618 1.07100
O 	O 	0.76146 0.06874 0.22928 -0.42300
O 	O 	0.75909 0.05754 0.31434 -0.39000
O 	O 	0.91838 0.02223 0.26197 -0.71800
O 	O 	0.83729 0.93309 0.30866 -0.35700
H 	H 	0.90378 0.19489 0.28089 0.16000
H 	H 	0.89632 0.96821 0.25181 0.16500
C 	C 	0.73117 0.99000 0.23700 0.28500
C 	C 	0.90276 0.26671 0.21724 0.30100
C 	C 	0.90646 0.92979 0.31753 0.28300
O 	O 	0.74518 0.96833 0.26194 -0.36300
H 	H 	0.97891 0.37584 0.25426 0.08900
H 	H 	0.98301 0.39882 0.34177 0.12000
N 	N 	0.88963 0.87414 0.37357 -0.20100
H 	H 	0.90191 0.87062 0.39420 0.12500
H 	H 	0.84707 0.90039 0.36788 0.12300
F 	F 	0.95386 0.38727 0.45422 -0.34400
C 	C 	0.90094 0.47085 0.53651 0.31400
C 	C 	0.92744 0.42441 0.55520 -0.21900
C 	C 	0.99004 0.39639 0.54845 0.32700
C 	C 	0.02797 0.41767 0.52362 0.23000
F 	F 	0.01595 0.35120 0.56630 -0.37100
F 	F 	0.83868 0.49586 0.54249 -0.39300
C 	C 	0.91548 0.03020 0.65819 -0.05300
C 	C 	0.86709 0.96930 0.67554 -0.08500
C 	C 	0.78296 0.95044 0.67490 0.12500
C 	C 	0.75132 0.00411 0.66143 -0.06400
C 	C 	0.80137 0.07089 0.64631 -0.08200
C 	C 	0.88216 0.07804 0.64239 0.12800
N 	N 	0.92641 0.12717 0.62271 -0.19700
H 	H 	0.97921 0.04114 0.65721 0.06100
H 	H 	0.98738 0.13629 0.62108 0.13000
H 	H 	0.89931 0.15098 0.60759 0.14500
C 	C 	0.00053 0.55687 0.66075 -0.04900
C 	C 	0.92566 0.51918 0.67269 -0.07900
C 	C 	0.91266 0.54599 0.69879 0.10800
C 	C 	0.97132 0.61670 0.71098 -0.03500
C 	C 	0.04157 0.66137 0.69728 -0.10000
C 	C 	0.05866 0.62828 0.67273 0.13700
H 	H 	0.01178 0.53362 0.64128 0.08500
H 	H 	0.96019 0.63978 0.73048 0.04600
N 	N 	0.84441 0.50418 0.71222 -0.19700
H 	H 	0.80187 0.44886 0.70427 0.08100
H 	H 	0.83460 0.52527 0.73131 0.09000
C 	C 	0.96534 0.59323 0.00527 0.00600
C 	C 	0.93200 0.52807 0.02343 0.23100
C 	C 	0.93678 0.58315 0.97681 -0.00100
F 	F 	0.86835 0.45915 0.01555 -0.33100
C 	C 	0.97722 0.55399 0.95727 0.23200
C 	C 	0.94426 0.53314 0.93110 0.31100
C 	C 	0.86955 0.53980 0.92441 -0.21000
C 	C 	0.83323 0.57672 0.94329 0.30700
C 	C 	0.86627 0.59730 0.96949 0.23700
F 	F 	0.76514 0.59096 0.93649 -0.37000
F 	F 	0.98447 0.50571 0.91233 -0.37500
F 	F 	0.82867 0.62896 0.98800 -0.32700
C 	C 	0.97511 0.26373 0.81554 -0.03200
C 	C 	0.93826 0.23383 0.84006 -0.08400
C 	C 	0.96314 0.17711 0.85503 0.11900
C 	C 	0.01282 0.13964 0.84284 -0.03700
C 	C 	0.03527 0.15668 0.81587 -0.08400
C 	C 	0.02481 0.22608 0.80346 0.09700
N 	N 	0.05895 0.25380 0.77936 -0.20300
H 	H 	0.96061 0.31193 0.80494 0.05500
N 	N 	0.93852 0.15751 0.88077 -0.20000
H 	H 	0.04840 0.30302 0.76965 0.08800
H 	H 	0.09841 0.22850 0.77058 0.08900
H 	H 	0.90535 0.18813 0.89079 0.09500
H 	H 	0.95489 0.11328 0.89139 0.11900
C 	C 	0.76616 0.58680 0.78491 -0.04500
C 	C 	0.80980 0.57699 0.80777 -0.08900
C 	C 	0.89020 0.63230 0.81227 0.11700
C 	C 	0.92469 0.69656 0.79396 -0.04200
C 	C 	0.87941 0.70988 0.77219 -0.10000
C 	C 	0.80025 0.65281 0.76702 0.11000
N 	N 	0.75664 0.66100 0.74505 -0.20300
H 	H 	0.98532 0.74026 0.79786 0.03400
N 	N 	0.93346 0.62649 0.83467 -0.19900
H 	H 	0.78117 0.70728 0.73082 0.10700
H 	H 	0.90741 0.58601 0.85028 0.13300
H 	H 	0.99361 0.66564 0.83722 0.11300
