data_crystal

_cell_length_a 16.95272
_cell_length_b 14.92332
_cell_length_c 36.07889
_cell_angle_alpha 89.87899
_cell_angle_beta  89.88099
_cell_angle_gamma 119.40722

_symmetry_space_group_name_	'P 1'
_symmetry_space_group_name_H-M	'P 1'

loop_
_symmetry_equiv_pos_as_xyz
  x,y,z

loop_
_atom_site_label
_atom_site_type_symbol
_atom_site_fract_x
_atom_site_fract_y
_atom_site_fract_z
_atom_site_charge
Ni	Ni	0.11074 0.99594 0.77176 1.10000
Ni	Ni	0.10544 0.20046 0.74248 1.12300
O 	O 	0.01959 0.17751 0.21880 -0.34800
C 	C 	0.08370 0.51573 0.93377 -0.00600
C 	C 	0.11959 0.58808 0.99644 -0.06400
H 	H 	0.09889 0.52434 0.90435 0.07200
N 	N 	0.15996 0.89688 0.86182 -0.10800
O 	O 	0.15333 0.14648 0.70290 -0.37100
C 	C 	0.06516 0.14424 0.19856 0.30600
C 	C 	0.09155 0.25090 0.28822 0.29300
C 	C 	0.04930 0.85647 0.22867 0.31700
C 	C 	0.04610 0.92691 0.33275 0.24200
Ni	Ni	0.10105 0.05654 0.26541 1.13100
C 	C 	0.10356 0.19200 0.16212 -0.05700
C 	C 	0.04609 0.18766 0.13289 0.02700
C 	C 	0.02631 0.21117 0.06600 0.12400
C 	C 	0.05870 0.69696 0.21297 0.02000
C 	C 	0.05690 0.90527 0.37284 -0.01700
N 	N 	0.08929 0.15555 0.60611 -0.08500
C 	C 	0.14248 0.59347 0.95840 0.09400
O 	O 	0.08239 0.07321 0.21122 -0.35700
O 	O 	0.10560 0.01833 0.31852 -0.32900
C 	C 	0.08372 0.22617 0.09750 0.00400
C 	C 	0.10086 0.51001 0.29809 -0.00200
C 	C 	0.06545 0.40548 0.28816 0.02400
C 	C 	0.12563 0.36511 0.28359 -0.05700
C 	C 	0.04090 0.54571 0.31194 0.11100
C 	C 	0.02801 0.78009 0.42215 0.02900
C 	C 	0.09210 0.88277 0.87457 0.09600
N 	N 	0.07827 0.76694 0.96530 -0.09600
N 	N 	0.22437 0.94203 0.65062 -0.12500
H 	H 	0.04970 0.09616 0.79257 0.17800
N 	N 	0.05174 0.65675 0.79613 -0.10200
N 	N 	0.14388 0.47260 0.75095 -0.10100
C 	C 	0.06964 0.43885 0.76082 0.11500
O 	O 	0.18187 0.10696 0.81028 -0.35400
N 	N 	0.05094 0.45650 0.20319 -0.10000
C 	C 	0.07524 0.54336 0.19997 0.10100
C 	C 	0.08269 0.80010 0.20516 -0.06100
C 	C 	0.28071 0.40493 0.26320 0.10100
N 	N 	0.33101 0.38052 0.25164 -0.09600
N 	N 	0.27714 0.10473 0.89366 -0.07500
C 	C 	0.24418 0.19788 0.79880 0.28600
C 	C 	0.22384 0.13657 0.70922 0.30600
O 	O 	0.22369 0.25244 0.77449 -0.34500
O 	O 	0.22326 0.07791 0.73662 -0.34500
C 	C 	0.17169 0.78273 0.43463 0.28200
C 	C 	0.08122 0.44999 0.45219 0.30800
C 	C 	0.21992 0.60272 0.34290 0.29500
Ni	Ni	0.23327 0.64410 0.47928 1.12300
Ni	Ni	0.25933 0.52650 0.40971 1.12700
Ni	Ni	0.32179 0.76509 0.40269 1.12300
O 	O 	0.19358 0.75828 0.46774 -0.32300
O 	O 	0.21220 0.78113 0.40357 -0.37400
O 	O 	0.26260 0.52983 0.50005 -0.33000
O 	O 	0.28871 0.69704 0.35075 -0.36200
O 	O 	0.18655 0.52865 0.36771 -0.38600
O 	O 	0.10419 0.52970 0.47374 -0.36200
O 	O 	0.14331 0.42645 0.43928 -0.34500
O 	O 	0.24844 0.63829 0.42821 -0.71600
H 	H 	0.18753 0.62009 0.41937 0.17100
C 	C 	0.21352 0.65846 0.14567 0.30500
C 	C 	0.21705 0.38897 0.08103 0.30600
C 	C 	0.19252 0.61966 0.02370 0.31800
Ni	Ni	0.33228 0.56508 0.12560 1.11700
Ni	Ni	0.32492 0.75236 0.08169 1.12500
Ni	Ni	0.33517 0.57701 0.03606 1.12800
O 	O 	0.24146 0.71574 0.03583 -0.35000
O 	O 	0.26064 0.61747 0.15947 -0.34600
O 	O 	0.21033 0.66738 0.11013 -0.37600
O 	O 	0.38950 0.71110 0.00492 -0.34300
O 	O 	0.21294 0.45247 0.10433 -0.36700
O 	O 	0.27772 0.42591 0.05408 -0.36000
O 	O 	0.43297 0.83653 0.05025 -0.37600
O 	O 	0.40629 0.80863 0.12915 -0.34400
O 	O 	0.21019 0.54957 0.03477 -0.38800
O 	O 	0.35401 0.64539 0.08226 -0.71400
O 	O 	0.10511 0.92664 0.25196 -0.38300
O 	O 	0.14193 0.21007 0.27663 -0.35300
C 	C 	0.17805 0.28130 0.09314 -0.05700
C 	C 	0.22924 0.25851 0.11805 -0.00200
C 	C 	0.19572 0.22481 0.15406 0.01100
C 	C 	0.30781 0.25371 0.10529 0.11100
C 	C 	0.25350 0.21517 0.18154 0.09600
N 	N 	0.29953 0.20636 0.20319 -0.09900
N 	N 	0.37036 0.24763 0.09597 -0.08900
C 	C 	0.17664 0.71052 0.16989 -0.06000
C 	C 	0.19588 0.81217 0.16099 0.01000
C 	C 	0.14235 0.85147 0.17586 0.00600
C 	C 	0.10587 0.65203 0.19529 0.00400
C 	C 	0.26656 0.87434 0.13461 0.07000
C 	C 	0.13578 0.93229 0.15634 0.09700
N 	N 	0.12984 0.99556 0.14009 -0.10700
N 	N 	0.32213 0.92531 0.11345 -0.12800
C 	C 	0.19434 0.57004 0.30447 -0.05700
C 	C 	0.21901 0.43692 0.27777 0.00600
C 	C 	0.25049 0.54233 0.28500 0.00200
C 	C 	0.34043 0.62061 0.27416 0.10100
N 	N 	0.41219 0.68359 0.26533 -0.10400
C 	C 	0.11909 0.83735 0.43279 -0.04600
C 	C 	0.16610 0.94227 0.42261 -0.01300
C 	C 	0.13237 0.97748 0.39359 -0.03500
C 	C 	0.25533 0.00931 0.43747 0.15100
C 	C 	0.16773 0.08692 0.38835 0.15000
N 	N 	0.19600 0.17439 0.38426 -0.10700
H 	H 	0.33711 0.89678 0.59885 0.06300
N 	N 	0.26653 0.86680 0.53131 -0.02100
O 	O 	0.20023 0.78319 0.54530 -0.11000
O 	O 	0.01347 0.29738 0.54409 -0.07400
O 	O 	0.02384 0.22641 0.49061 -0.04800
C 	C 	0.32573 0.34919 0.50254 0.10000
N 	N 	0.22982 0.28603 0.50581 -0.02300
O 	O 	0.18697 0.20657 0.48437 -0.07300
O 	O 	0.18729 0.30023 0.53321 -0.05800
C 	C 	0.45700 0.29854 0.63989 -0.05300
C 	C 	0.43611 0.35344 0.66620 0.00900
C 	C 	0.35366 0.30197 0.68601 0.00600
C 	C 	0.30452 0.19292 0.68567 -0.05800
C 	C 	0.32236 0.14099 0.65739 0.00200
C 	C 	0.38839 0.19852 0.63083 0.01200
C 	C 	0.26791 0.03034 0.65362 0.14900
C 	C 	0.37201 0.16643 0.59274 0.11400
C 	C 	0.31069 0.35939 0.69889 0.08600
N 	N 	0.35645 0.13820 0.56245 -0.08500
N 	N 	0.27591 0.40524 0.70876 -0.10800
N 	N 	0.22800 0.67376 0.94514 -0.02100
O 	O 	0.27710 0.65211 0.92309 -0.08700
O 	O 	0.25547 0.76890 0.95413 -0.08100
H 	H 	0.39764 0.93958 0.98720 0.09000
H 	H 	0.37358 0.34660 0.03599 0.08300
N 	N 	0.41230 0.34118 0.96508 -0.02300
O 	O 	0.34840 0.24830 0.97272 -0.06600
O 	O 	0.41578 0.37991 0.93238 -0.08100
C 	C 	0.34063 0.22650 0.80677 -0.05300
C 	C 	0.35727 0.16019 0.82940 0.01300
C 	C 	0.43515 0.15204 0.82295 -0.00800
C 	C 	0.41425 0.30604 0.78741 0.00800
C 	C 	0.31225 0.12857 0.86498 0.12100
C 	C 	0.41226 0.39956 0.77865 0.10000
N 	N 	0.41160 0.47514 0.77210 -0.09300
C 	C 	0.31721 0.50410 0.48248 0.31900
O 	O 	0.37504 0.60072 0.37850 -0.36400
C 	C 	0.38420 0.90297 0.57732 0.00000
O 	O 	0.48185 0.15376 0.93094 -0.08000
O 	O 	0.34472 0.53859 0.44945 -0.38400
H 	H 	0.34989 0.21985 0.50094 0.09000
C 	C 	0.03488 0.50800 0.00799 -0.01800
C 	C 	0.44254 0.06709 0.83854 0.15200
C 	C 	0.35760 0.89364 0.53982 0.07500
C 	C 	0.44355 0.80726 0.01708 0.29700
O 	O 	0.47734 0.17132 0.99274 -0.06700
H 	H 	0.42011 0.68853 0.08250 0.17300
N 	N 	0.45451 0.95940 0.20915 -0.10200
C 	C 	0.46744 0.96024 0.98167 -0.07800
N 	N 	0.44853 0.99922 0.85107 -0.12400
C 	C 	0.39040 0.84086 0.47893 0.31400
O 	O 	0.36663 0.74626 0.48498 -0.37100
O 	O 	0.36725 0.86609 0.44730 -0.35900
C 	C 	0.46161 0.53090 0.07139 0.30500
O 	O 	0.41048 0.50037 0.10253 -0.34300
O 	O 	0.45546 0.59321 0.04755 -0.37100
N 	N 	0.45019 0.49539 0.32227 -0.09600
N 	N 	0.32691 0.06319 0.44907 -0.09300
O 	O 	0.24983 0.93527 0.51661 -0.09000
C 	C 	0.36515 0.45753 0.50184 -0.06600
C 	C 	0.38100 0.30277 0.50092 -0.02100
C 	C 	0.49882 0.46084 0.67324 0.10900
C 	C 	0.49763 0.89021 0.99025 -0.02500
N 	N 	0.49688 0.13246 0.96427 -0.02800
C 	C 	0.47467 0.40320 0.99338 0.10900
C 	C 	0.44469 0.39569 0.03011 -0.03000
C 	C 	0.49838 0.30635 0.78614 0.00200
O 	O 	0.04299 0.24833 0.77813 -0.35700
O 	O 	0.43295 0.75451 0.40821 -0.38300
C 	C 	0.47620 0.94723 0.58554 -0.12400
C 	C 	0.03127 0.78110 0.94589 0.12000
C 	C 	0.51240 0.23838 0.80949 -0.04300
C 	C 	0.51619 0.05179 0.60110 0.35700
C 	C 	0.55172 0.32166 0.63539 0.30000
O 	O 	0.57494 0.25806 0.65014 -0.36600
O 	O 	0.50939 0.11755 0.58068 -0.39200
C 	C 	0.44558 0.68952 0.38858 0.30700
C 	C 	0.46679 0.78081 0.14107 0.27700
O 	O 	0.44206 0.68462 0.14929 -0.35500
C 	C 	0.50631 0.93529 0.19917 0.10400
C 	C 	0.42150 0.90999 0.51100 -0.06800
C 	C 	0.45991 0.51685 0.50306 -0.01800
C 	C 	0.47570 0.36309 0.50202 -0.06500
N 	N 	0.54887 0.54672 0.67897 -0.09200
C 	C 	0.52832 0.06039 0.96974 0.15700
C 	C 	0.49946 0.47004 0.05620 -0.06000
N 	N 	0.13148 0.75654 0.72183 -0.10400
O 	O 	0.04823 0.07103 0.76722 -0.69300
O 	O 	0.50973 0.77255 0.58025 -0.07700
C 	C 	0.49336 0.58189 0.32920 0.10800
C 	C 	0.52834 0.32545 0.52323 0.32400
O 	O 	0.58607 0.08665 0.62341 -0.36100
O 	O 	0.55505 0.36463 0.55551 -0.38400
C 	C 	0.51118 0.94391 0.52164 -0.07700
C 	C 	0.52779 0.93087 0.55864 0.10600
C 	C 	0.51412 0.47060 0.49849 0.09900
H 	H 	0.49141 0.60007 0.50215 0.08500
N 	N 	0.56778 0.88323 0.64799 -0.08100
C 	C 	0.56605 0.47083 0.98458 -0.06200
C 	C 	0.58781 0.28677 0.83591 0.28700
O 	O 	0.58479 0.35371 0.85844 -0.36400
O 	O 	0.52766 0.23912 0.51480 -0.33100
O 	O 	0.61456 0.41069 0.62149 -0.36000
N 	N 	0.56313 0.86341 0.56652 -0.02100
O 	O 	0.56580 0.74811 0.98618 -0.07900
C 	C 	0.57487 0.38963 0.76730 0.09700
C 	C 	0.53739 0.72595 0.37251 -0.06000
C 	C 	0.60699 0.44280 0.95445 0.31300
C 	C 	0.55922 0.85775 0.15200 -0.05000
C 	C 	0.57105 0.90490 0.18663 0.00100
C 	C 	0.54779 0.69003 0.33805 0.01100
C 	C 	0.58916 0.91858 0.98315 0.04900
O 	O 	0.63295 0.49922 0.92300 -0.33800
H 	H 	0.56018 0.95158 0.50076 0.07100
C 	C 	0.64264 0.94260 0.64180 0.06900
C 	C 	0.62021 0.09056 0.96429 -0.08700
H 	H 	0.01656 0.50199 0.03706 0.07700
O 	O 	0.63899 0.38185 0.96368 -0.36800
Ni	Ni	0.60891 0.18759 0.54246 1.11700
C 	C 	0.59300 0.52349 0.04947 0.10500
N 	N 	0.63557 0.45676 0.75225 -0.09700
O 	O 	0.64046 0.88269 0.55228 -0.09300
H 	H 	0.65234 0.32377 0.90745 0.19000
Ni	Ni	0.67585 0.24310 0.62913 1.12600
N 	N 	0.62188 0.68878 0.24809 -0.09200
N 	N 	0.62108 0.84644 0.98902 -0.01400
C 	C 	0.62443 0.53296 0.01280 -0.02100
C 	C 	0.62285 0.72077 0.27737 0.09400
O 	O 	0.65627 0.26393 0.83632 -0.34600
C 	C 	0.65458 0.96866 0.24514 0.04100
N 	N 	0.66166 0.01112 0.27277 -0.06400
C 	C 	0.61969 0.75577 0.31441 0.00000
N 	N 	0.60980 0.53372 0.49306 -0.02700
N 	N 	0.65670 0.70675 0.93037 -0.08400
N 	N 	0.70156 0.62987 0.60656 -0.10500
Ni	Ni	0.68093 0.41861 0.57349 1.12500
O 	O 	0.67394 0.28924 0.57849 -0.70800
C 	C 	0.64231 0.91659 0.21009 0.01800
C 	C 	0.61136 0.81506 0.38724 0.00500
C 	C 	0.64974 0.01876 0.97026 0.04300
N 	N 	0.65544 0.26936 0.73190 -0.10700
C 	C 	0.63066 0.84537 0.13755 0.00300
C 	C 	0.61867 0.83103 0.42697 0.10600
C 	C 	0.67890 0.18606 0.94359 0.31100
C 	C 	0.62795 0.81572 0.09927 0.09600
N 	N 	0.62457 0.84344 0.45871 -0.09500
N 	N 	0.73126 0.00086 0.73260 -0.09800
N 	N 	0.71726 0.07502 0.81138 -0.08600
O 	O 	0.68211 0.17966 0.90715 -0.36000
O 	O 	0.68504 0.11171 0.55893 -0.33200
N 	N 	0.62589 0.79155 0.06873 -0.08500
O 	O 	0.65066 0.51126 0.46716 -0.07100
Ni	Ni	0.69913 0.47821 0.87578 1.11700
O 	O 	0.65554 0.61550 0.51315 -0.09200
N 	N 	0.74069 0.80023 0.69900 -0.11100
N 	N 	0.65462 0.58086 0.07871 -0.02100
O 	O 	0.63235 0.55376 0.11312 -0.08000
C 	C 	0.74862 0.63097 0.62996 0.08800
H 	H 	0.69590 0.58111 0.00689 0.07700
C 	C 	0.68779 0.85406 0.32714 -0.04800
O 	O 	0.71457 0.37897 0.90236 -0.71400
C 	C 	0.68159 0.88379 0.36366 0.01400
C 	C 	0.73691 0.01656 0.63588 0.04100
C 	C 	0.71617 0.29358 0.75168 0.10700
C 	C 	0.70290 0.88145 0.19839 -0.06000
C 	C 	0.69827 0.84914 0.16137 0.01700
O 	O 	0.70657 0.87931 0.99522 -0.09300
C 	C 	0.73350 0.74526 0.92435 0.09600
C 	C 	0.05705 0.72383 0.71255 0.11700
C 	C 	0.76189 0.02149 0.70310 0.09800
H 	H 	0.71920 0.03970 0.96385 0.08000
O 	O 	0.69405 0.26862 0.50045 -0.35400
O 	O 	0.04484 0.89861 0.72801 -0.36000
O 	O 	0.73883 0.27067 0.96172 -0.34600
C 	C 	0.74534 0.13466 0.58689 0.29100
H 	H 	0.73640 0.31146 0.57059 0.15700
O 	O 	0.77160 0.38144 0.65045 -0.35600
O 	O 	0.71227 0.35805 0.42645 -0.06600
O 	O 	0.74016 0.43452 0.52105 -0.33500
C 	C 	0.76514 0.15368 0.79773 0.08900
O 	O 	0.73364 0.65888 0.07096 -0.08500
O 	O 	0.75381 0.47349 0.82295 -0.34900
C 	C 	0.78407 0.76136 0.69335 0.10100
C 	C 	0.01450 0.13072 0.61277 0.13100
O 	O 	0.76975 0.21532 0.60798 -0.37700
Ni	Ni	0.76464 0.41833 0.95042 1.12700
Ni	Ni	0.75949 0.30268 0.87617 1.12300
C 	C 	0.76999 0.05826 0.60053 -0.04600
C 	C 	0.76551 0.82431 0.14735 0.11100
C 	C 	0.74935 0.98337 0.37743 0.06300
O 	O 	0.00658 0.19082 0.29753 -0.35800
C 	C 	0.75675 0.36461 0.50418 0.29400
N 	N 	0.79650 0.99048 0.87857 -0.10800
O 	O 	0.01381 0.89790 0.81059 -0.34500
O 	O 	0.01006 0.18256 0.70397 -0.34800
C 	C 	0.77710 0.90681 0.30804 0.25300
C 	C 	0.79231 0.32161 0.77572 -0.00600
C 	C 	0.00626 0.86253 0.89031 0.03200
C 	C 	0.78620 0.90827 0.22020 0.29700
C 	C 	0.79735 0.04459 0.66565 -0.00300
N 	N 	0.79859 0.42352 0.42669 -0.01900
O 	O 	0.80021 0.48465 0.59891 -0.37900
O 	O 	0.79622 0.57040 0.95197 -0.36500
C 	C 	0.80355 0.47390 0.63490 0.29800
O 	O 	0.79817 0.83562 0.23646 -0.35000
C 	C 	0.80829 0.63393 0.65923 0.01200
N 	N 	0.80341 0.06284 0.38841 -0.06600
O 	O 	0.81041 0.00400 0.29571 -0.31400
C 	C 	0.00303 0.57192 0.78836 0.11200
C 	C 	0.82460 0.25236 0.78095 -0.00500
C 	C 	0.82308 0.45673 0.82092 0.30700
N 	N 	0.81952 0.80492 0.13634 -0.08800
O 	O 	0.82353 0.59589 0.89044 -0.36800
C 	C 	0.82809 0.93808 0.88337 0.10000
C 	C 	0.99954 0.43604 0.94613 -0.08500
C 	C 	0.99822 0.80939 0.38990 -0.02400
N 	N 	0.99767 0.28253 0.50872 -0.03200
O 	O 	0.98968 0.84953 0.31046 -0.35200
C 	C 	0.97754 0.63327 0.23428 0.08300
C 	C 	0.98595 0.37281 0.45405 -0.07400
C 	C 	0.96440 0.70082 0.44666 0.09100
N 	N 	0.91197 0.58233 0.25091 -0.09400
C 	C 	0.95507 0.33112 0.48936 0.11100
N 	N 	0.98025 0.19837 0.04072 -0.09000
O 	O 	0.96341 0.83053 0.22821 -0.38000
O 	O 	0.97391 0.00540 0.27254 -0.70200
N 	N 	0.91375 0.63850 0.46675 -0.08400
C 	C 	0.89610 0.35627 0.50818 -0.03000
H 	H 	0.88131 0.33627 0.53725 0.06200
C 	C 	0.97003 0.34359 0.27962 0.07800
H 	H 	0.94291 0.41116 0.40320 0.06800
C 	C 	0.92748 0.39210 0.43229 -0.02500
N 	N 	0.89384 0.29435 0.27275 -0.10600
N 	N 	0.89078 0.03692 0.52558 -0.07700
C 	C 	0.90587 0.74784 0.37726 0.11700
N 	N 	0.99347 0.57428 0.32354 -0.10400
C 	C 	0.94953 0.14356 0.13893 0.09800
H 	H 	0.97240 0.01643 0.29936 0.16300
N 	N 	0.87238 0.10865 0.14351 -0.08400
N 	N 	0.83196 0.69862 0.36723 -0.09400
C 	C 	0.83539 0.63284 0.92370 0.30600
C 	C 	0.92062 0.41555 0.92373 0.32500
O 	O 	0.88747 0.47522 0.92949 -0.39000
O 	O 	0.84832 0.43221 0.85092 -0.38500
O 	O 	0.86947 0.32595 0.90747 -0.35300
C 	C 	0.95816 0.83383 0.72974 0.28800
C 	C 	0.96455 0.92518 0.83168 0.27000
C 	C 	0.95131 0.09302 0.68928 0.28800
C 	C 	0.95465 0.21378 0.77565 0.27100
Ni	Ni	0.92073 0.99305 0.76114 1.10500
O 	O 	0.93190 0.00714 0.70611 -0.36000
O 	O 	0.90713 0.85023 0.75324 -0.36500
O 	O 	0.89638 0.11432 0.76876 -0.34700
O 	O 	0.91401 0.96072 0.81614 -0.36900
Ni	Ni	0.92271 0.08654 0.25896 1.12000
Ni	Ni	0.90453 0.85894 0.27156 1.11700
O 	O 	0.83019 0.86700 0.31287 -0.37300
O 	O 	0.85445 0.99849 0.21503 -0.39500
C 	C 	0.84547 0.39188 0.48839 -0.06200
C 	C 	0.85819 0.40413 0.44931 0.10700
O 	O 	0.83230 0.49583 0.40171 -0.08200
C 	C 	0.89119 0.08831 0.65861 -0.04500
C 	C 	0.85752 0.07690 0.59204 0.01400
C 	C 	0.92095 0.09959 0.62119 -0.00300
C 	C 	0.87649 0.05554 0.55512 0.12200
C 	C 	0.84519 0.56717 0.65846 -0.06100
C 	C 	0.92270 0.59121 0.67973 0.01400
C 	C 	0.96419 0.68309 0.70049 -0.01100
C 	C 	0.91816 0.74003 0.70599 -0.05000
C 	C 	0.83739 0.71148 0.68621 0.00300
C 	C 	0.96254 0.52464 0.67873 0.09400
N 	N 	0.99422 0.47140 0.67788 -0.10000
C 	C 	0.98463 0.42382 0.98456 0.08700
N 	N 	0.91119 0.33049 0.99921 -0.02200
O 	O 	0.88755 0.24319 0.98295 -0.07000
O 	O 	0.86824 0.33245 0.02888 -0.10000
C 	C 	0.84784 0.42433 0.78603 -0.06600
C 	C 	0.91887 0.28883 0.77761 -0.04700
C 	C 	0.97681 0.39726 0.77313 -0.00800
C 	C 	0.94166 0.46528 0.77941 -0.00300
C 	C 	0.94924 0.89303 0.87168 -0.06800
C 	C 	0.97235 0.79921 0.92196 -0.01900
C 	C 	0.87874 0.74480 0.92771 -0.05500
C 	C 	0.82906 0.79273 0.91611 0.00000
C 	C 	0.86754 0.87253 0.88956 0.00800
