data_crystal

_cell_length_a 44.07913
_cell_length_b 40.53522
_cell_length_c 22.88059
_cell_angle_alpha 89.96144
_cell_angle_beta  89.94548
_cell_angle_gamma 87.30667

_symmetry_space_group_name_	'P 1'
_symmetry_space_group_name_H-M	'P 1'

loop_
_symmetry_equiv_pos_as_xyz
  x,y,z

loop_
_atom_site_label
_atom_site_type_symbol
_atom_site_fract_x
_atom_site_fract_y
_atom_site_fract_z
_atom_site_charge
C 	C 	0.46954 0.54506 0.96706 -0.03900
C 	C 	0.49647 0.56164 0.96282 -0.04000
C 	C 	0.47009 0.51030 0.96983 0.00500
C 	C 	0.49824 0.49213 0.96579 -0.00500
C 	C 	0.52560 0.50897 0.96188 -0.00600
C 	C 	0.52474 0.54395 0.96110 0.00700
C 	C 	0.49908 0.45713 0.96590 0.00600
C 	C 	0.52728 0.43943 0.96190 -0.03800
C 	C 	0.55380 0.49081 0.95927 0.00700
C 	C 	0.55228 0.56057 0.95837 -0.00500
C 	C 	0.58000 0.54239 0.95572 -0.04700
C 	C 	0.58109 0.50785 0.95742 -0.00500
C 	C 	0.44296 0.49326 0.97604 -0.00200
C 	C 	0.44397 0.45872 0.97549 -0.04900
C 	C 	0.47158 0.44054 0.97023 -0.00400
C 	C 	0.55267 0.59697 0.96185 0.00700
C 	C 	0.55498 0.61574 0.91065 -0.04200
C 	C 	0.55957 0.64960 0.91412 -0.02800
C 	C 	0.56216 0.66485 0.96884 -0.00300
C 	C 	0.55860 0.64628 0.02002 -0.02500
C 	C 	0.55396 0.61246 0.01651 -0.03400
C 	C 	0.61102 0.49010 0.96194 0.00800
C 	C 	0.62231 0.48038 0.01689 -0.03500
C 	C 	0.65224 0.46790 0.02251 -0.02000
C 	C 	0.62945 0.48597 0.91227 -0.04200
C 	C 	0.65942 0.47351 0.91785 -0.03100
C 	C 	0.67115 0.46511 0.97322 -0.00500
C 	C 	0.41335 0.51112 0.98509 0.00200
C 	C 	0.40547 0.52348 0.04060 -0.02700
C 	C 	0.37597 0.53621 0.05137 -0.03900
C 	C 	0.35411 0.53635 0.00685 0.01700
C 	C 	0.36230 0.52506 0.95084 -0.04200
C 	C 	0.39184 0.51260 0.93994 -0.03500
C 	C 	0.47121 0.40409 0.96994 0.00800
C 	C 	0.46995 0.38704 0.91673 -0.04200
C 	C 	0.46495 0.35322 0.91626 -0.03000
C 	C 	0.46105 0.33623 0.96905 -0.00600
C 	C 	0.46333 0.35310 0.02229 -0.01800
C 	C 	0.46846 0.38687 0.02273 -0.03500
C 	C 	0.55423 0.45602 0.95832 -0.03900
H 	H 	0.55399 0.60395 0.86826 0.04600
H 	H 	0.56205 0.66376 0.87436 0.04800
H 	H 	0.56003 0.65793 0.06248 0.04500
H 	H 	0.55211 0.59813 0.05624 0.04600
H 	H 	0.34556 0.52518 0.91618 0.05000
H 	H 	0.39778 0.50314 0.89694 0.04400
H 	H 	0.36982 0.54487 0.09478 0.04800
H 	H 	0.42196 0.52239 0.07572 0.04500
H 	H 	0.47196 0.40019 0.87577 0.04600
H 	H 	0.46310 0.34048 0.87490 0.04400
H 	H 	0.46939 0.39987 0.06399 0.04700
H 	H 	0.46050 0.34018 0.06327 0.04900
H 	H 	0.60815 0.48342 0.05544 0.04700
H 	H 	0.66102 0.46131 0.06538 0.04900
H 	H 	0.62086 0.49339 0.86967 0.04500
H 	H 	0.67386 0.47164 0.87953 0.04300
H 	H 	0.44823 0.55946 0.96764 0.04300
H 	H 	0.49515 0.58834 0.96055 0.04500
H 	H 	0.60103 0.55527 0.95439 0.04800
H 	H 	0.57543 0.44161 0.95445 0.04400
H 	H 	0.52853 0.41270 0.96160 0.04300
H 	H 	0.42304 0.44585 0.97974 0.05000
Zn	Zn	0.36460 0.10675 0.98373 1.21800
C 	C 	0.30871 0.07270 0.97026 0.30000
O 	O 	0.38485 0.08764 0.05372 -0.44300
O 	O 	0.32453 0.05009 0.94050 -0.42300
O 	O 	0.36075 0.03932 0.04929 -0.48400
C 	C 	0.38158 0.07764 0.87402 0.33900
O 	O 	0.36389 0.10035 0.89918 -0.44900
O 	O 	0.39142 0.05165 0.90377 -0.49600
C 	C 	0.37624 0.06048 0.07887 0.32500
O 	O 	0.40675 0.13974 0.96781 -0.30600
Zn	Zn	0.36742 0.03347 0.96625 1.17500
O 	O 	0.32267 0.09506 0.00050 -0.42200
C 	C 	0.38904 0.16382 0.98701 0.26200
O 	O 	0.36188 0.15601 0.00150 -0.36700
C 	C 	0.50397 0.01721 0.52862 0.01500
C 	C 	0.47631 0.03667 0.52653 0.01400
C 	C 	0.51009 0.99277 0.48613 -0.05300
C 	C 	0.48887 0.98736 0.44177 0.01500
C 	C 	0.45513 0.03136 0.48196 -0.05200
C 	C 	0.46118 0.00671 0.43975 0.01600
H 	H 	0.43406 0.04619 0.48030 0.05600
H 	H 	0.53119 0.97798 0.48767 0.05500
C 	C 	0.43973 0.00001 0.39611 -0.01300
C 	C 	0.44579 0.97592 0.35307 0.01300
C 	C 	0.42781 0.98110 0.30183 -0.05100
C 	C 	0.40870 0.00966 0.30427 0.01000
S 	S 	0.41460 0.02783 0.36837 0.01600
H 	H 	0.43102 0.96690 0.26215 0.05000
C 	C 	0.49439 0.96247 0.39941 -0.01200
C 	C 	0.47358 0.95735 0.35409 0.01200
C 	C 	0.48755 0.94297 0.30324 -0.04700
C 	C 	0.51911 0.93820 0.30815 0.00500
S 	S 	0.52886 0.95108 0.37435 0.01300
H 	H 	0.47601 0.94077 0.26186 0.05000
C 	C 	0.51854 0.04644 0.61751 0.01200
C 	C 	0.52515 0.02338 0.57307 -0.01300
S 	S 	0.55059 0.99547 0.59949 0.01000
C 	C 	0.55573 0.01231 0.66501 0.01100
C 	C 	0.53600 0.04032 0.66911 -0.05100
C 	C 	0.47086 0.06145 0.56921 -0.01200
C 	C 	0.49102 0.06539 0.61591 0.01100
C 	C 	0.47685 0.08034 0.66599 -0.04900
C 	C 	0.44574 0.08768 0.65850 0.01000
S 	S 	0.43646 0.07499 0.59166 0.00700
H 	H 	0.48775 0.08174 0.70817 0.05200
H 	H 	0.53193 0.05325 0.70989 0.05000
Zn	Zn	0.60197 0.91365 0.98145 1.22000
C 	C 	0.65426 0.95410 0.98624 0.30000
O 	O 	0.57891 0.92067 0.05468 -0.44800
O 	O 	0.63655 0.97920 0.96879 -0.44300
O 	O 	0.60030 0.96886 0.07653 -0.48100
C 	C 	0.58337 0.95665 0.88805 0.33800
O 	O 	0.60249 0.93232 0.90289 -0.44700
O 	O 	0.57091 0.97592 0.92832 -0.50200
C 	C 	0.58615 0.94280 0.09345 0.32800
O 	O 	0.56366 0.87947 0.94749 -0.31100
Zn	Zn	0.59278 0.98673 0.99904 1.17200
O 	O 	0.64235 0.92717 0.00644 -0.40500
C 	C 	0.58329 0.85527 0.95766 0.26800
O 	O 	0.60916 0.86365 0.97828 -0.36100
Zn	Zn	0.12381 0.58049 0.04122 1.22400
C 	C 	0.08592 0.63771 0.00926 0.31600
O 	O 	0.10835 0.56641 0.11784 -0.45400
O 	O 	0.06745 0.61680 0.98606 -0.43800
O 	O 	0.06144 0.59121 0.10663 -0.48600
C 	C 	0.09850 0.55004 0.94125 0.33800
O 	O 	0.11753 0.57203 0.95809 -0.44300
O 	O 	0.07682 0.54158 0.97671 -0.50500
C 	C 	0.08328 0.57958 0.14067 0.33100
O 	O 	0.15798 0.53395 0.04148 -0.30900
Zn	Zn	0.05696 0.57390 0.02852 1.17600
O 	O 	0.10872 0.62683 0.04222 -0.42600
C 	C 	0.17867 0.55494 0.05178 0.27100
O 	O 	0.16898 0.58551 0.05543 -0.35800
C 	C 	0.03475 0.48432 0.58358 0.01600
C 	C 	0.00773 0.46661 0.58541 0.01700
C 	C 	0.03799 0.50918 0.54143 -0.05100
C 	C 	0.01439 0.51688 0.50173 0.01600
C 	C 	0.98456 0.47357 0.54446 -0.05200
C 	C 	0.98763 0.49870 0.50286 0.01600
H 	H 	0.96411 0.45975 0.54536 0.05600
H 	H 	0.05860 0.52269 0.53998 0.05600
C 	C 	0.96410 0.50693 0.46295 -0.01300
C 	C 	0.96709 0.53172 0.42071 0.01300
C 	C 	0.94828 0.52745 0.37084 -0.04900
C 	C 	0.93160 0.49894 0.37334 0.00900
S 	S 	0.94034 0.47994 0.43612 0.01300
H 	H 	0.94982 0.54187 0.33129 0.04900
C 	C 	0.01642 0.54303 0.46138 -0.01200
C 	C 	0.99345 0.55000 0.42001 0.01200
C 	C 	0.00413 0.56652 0.36950 -0.04700
C 	C 	0.03537 0.57117 0.37062 0.00400
S 	S 	0.04893 0.55539 0.43316 0.01400
H 	H 	0.99066 0.57095 0.33059 0.04800
C 	C 	0.05346 0.45424 0.67060 0.01200
C 	C 	0.05769 0.47714 0.62534 -0.01200
S 	S 	0.08082 0.50522 0.65088 0.01500
C 	C 	0.08683 0.48977 0.71754 0.00500
C 	C 	0.07053 0.46110 0.72184 -0.04700
C 	C 	0.00457 0.44226 0.62874 -0.01300
C 	C 	0.02694 0.43615 0.67155 0.01400
C 	C 	0.01525 0.42170 0.72330 -0.05000
C 	C 	0.98371 0.41872 0.72253 0.00900
S 	S 	0.97143 0.43266 0.65782 0.01600
H 	H 	0.02848 0.41748 0.76258 0.05200
H 	H 	0.06756 0.44872 0.76315 0.05100
Zn	Zn	0.89763 0.40861 0.04846 1.22400
C 	C 	0.84563 0.45381 0.03423 0.30900
O 	O 	0.92377 0.41224 0.97906 -0.45700
O 	O 	0.86225 0.47746 0.05406 -0.44100
O 	O 	0.90370 0.46275 0.95343 -0.47900
C 	C 	0.91195 0.45029 0.14405 0.33700
O 	O 	0.89343 0.42804 0.12611 -0.44700
O 	O 	0.92577 0.46864 0.10605 -0.49700
C 	C 	0.91919 0.43550 0.93973 0.33000
O 	O 	0.93426 0.37106 0.08967 -0.30700
Zn	Zn	0.90722 0.48073 0.03147 1.17900
O 	O 	0.85865 0.42577 0.01618 -0.41500
C 	C 	0.91521 0.34867 0.07700 0.26800
O 	O 	0.89033 0.35944 0.05203 -0.35900
C 	C 	0.92832 0.00642 0.00388 -0.02200
C 	C 	0.94392 0.03551 0.00641 -0.04500
C 	C 	0.94415 0.97567 0.99672 -0.00800
C 	C 	0.97623 0.97449 0.99210 0.00300
C 	C 	0.99207 0.00408 0.99416 -0.01700
C 	C 	0.97583 0.03477 0.00161 0.02100
C 	C 	0.99251 0.94376 0.98555 0.00300
C 	C 	0.02443 0.94300 0.98114 -0.03600
C 	C 	0.02412 0.00294 0.98886 0.01200
C 	C 	0.99189 0.06420 0.00407 -0.00300
C 	C 	0.02350 0.06287 0.99803 -0.05200
C 	C 	0.03971 0.03272 0.99010 -0.00600
C 	C 	0.92850 0.94595 0.99418 0.00200
C 	C 	0.94478 0.91573 0.98775 -0.05200
C 	C 	0.97648 0.91430 0.98367 -0.00300
C 	C 	0.97594 0.09666 0.01297 0.02400
C 	C 	0.96633 0.11568 0.96466 -0.05000
C 	C 	0.95281 0.14721 0.97292 -0.03900
C 	C 	0.94879 0.15994 0.02963 0.01300
C 	C 	0.95815 0.14072 0.07795 -0.02800
C 	C 	0.97166 0.10918 0.06964 -0.04400
C 	C 	0.07302 0.03281 0.98262 0.00900
C 	C 	0.09190 0.03465 0.03167 -0.03600
C 	C 	0.12328 0.03653 0.02456 -0.01900
C 	C 	0.08570 0.03272 0.92637 -0.04200
C 	C 	0.11709 0.03451 0.91921 -0.03000
C 	C 	0.13601 0.03650 0.96831 -0.00600
C 	C 	0.89503 0.94602 0.99780 -0.00100
C 	C 	0.88077 0.94254 0.05211 -0.02800
C 	C 	0.84921 0.94072 0.05524 -0.04000
C 	C 	0.83170 0.94207 0.00394 0.01500
C 	C 	0.84601 0.94597 0.94969 -0.04200
C 	C 	0.87756 0.94784 0.94664 -0.03500
C 	C 	0.99255 0.88167 0.97837 0.00700
C 	C 	0.99854 0.86804 0.92300 -0.04200
C 	C 	0.01168 0.83611 0.91800 -0.03200
C 	C 	0.01860 0.81744 0.96840 -0.00500
C 	C 	0.01334 0.83148 0.02377 -0.02000
C 	C 	0.00029 0.86344 0.02870 -0.03600
C 	C 	0.03999 0.97213 0.98282 -0.04100
H 	H 	0.96968 0.10619 0.92076 0.04600
H 	H 	0.94604 0.16200 0.93526 0.04500
H 	H 	0.95518 0.15032 0.12187 0.05000
H 	H 	0.97909 0.09461 0.10713 0.04800
H 	H 	0.83272 0.94717 0.90986 0.05100
H 	H 	0.88845 0.95044 0.90452 0.04300
H 	H 	0.83837 0.93832 0.09744 0.04600
H 	H 	0.89414 0.94112 0.09181 0.04300
H 	H 	0.99273 0.88206 0.88394 0.04500
H 	H 	0.01617 0.82574 0.87505 0.04200
H 	H 	0.99576 0.87386 0.07160 0.04600
H 	H 	0.01869 0.81735 0.06293 0.05000
H 	H 	0.08224 0.03486 0.07523 0.04700
H 	H 	0.13768 0.03804 0.06271 0.05000
H 	H 	0.07122 0.03152 0.88828 0.04600
H 	H 	0.12664 0.03482 0.87559 0.04300
H 	H 	0.90382 0.00799 0.00766 0.04500
H 	H 	0.93097 0.05864 0.01202 0.04900
H 	H 	0.03560 0.08556 0.99939 0.04900
H 	H 	0.06452 0.97053 0.97968 0.04500
H 	H 	0.03741 0.91983 0.97640 0.04400
H 	H 	0.93267 0.89305 0.98606 0.04700
C 	C 	0.94299 0.24772 0.07521 0.09700
C 	C 	0.91575 0.25877 0.04827 0.09300
N 	N 	0.90674 0.29123 0.05087 -0.08700
C 	C 	0.92393 0.31323 0.07918 -0.01200
C 	C 	0.95080 0.30196 0.10738 0.04100
N 	N 	0.95981 0.26944 0.10469 -0.10800
N 	N 	0.95290 0.21566 0.06976 -0.11100
N 	N 	0.89919 0.23717 0.01791 -0.10200
H 	H 	0.96459 0.31901 0.13070 0.05200
C 	C 	0.93669 0.19410 0.03825 0.04500
C 	C 	0.90906 0.20501 0.01252 0.01500
H 	H 	0.89568 0.18806 0.98807 0.03400
C 	C 	0.93427 0.43245 0.88253 -0.10800
C 	C 	0.95497 0.45587 0.86420 0.10100
C 	C 	0.96970 0.45195 0.81043 -0.08400
C 	C 	0.96540 0.42396 0.77589 0.02200
C 	C 	0.94482 0.40051 0.79413 0.02000
C 	C 	0.92923 0.40495 0.84716 0.00800
H 	H 	0.98543 0.47010 0.79639 0.07200
H 	H 	0.91349 0.38679 0.86125 0.05200
I 	I 	0.96715 0.49544 0.91915 -0.21900
I 	I 	0.93756 0.35770 0.74356 -0.09300
C 	C 	0.91536 0.45665 0.20673 -0.10600
C 	C 	0.94362 0.45082 0.23436 0.09100
C 	C 	0.94809 0.46268 0.29091 -0.07900
C 	C 	0.92462 0.48051 0.32014 0.01900
C 	C 	0.89577 0.48429 0.29410 0.02000
C 	C 	0.89122 0.47220 0.23765 0.00100
H 	H 	0.97021 0.45923 0.31127 0.07000
H 	H 	0.86926 0.47618 0.21686 0.04800
I 	I 	0.97993 0.42425 0.19168 -0.10000
I 	I 	0.85903 0.50917 0.33827 -0.10100
C 	C 	0.04823 0.71703 0.96324 0.08800
C 	C 	0.06428 0.73988 0.99567 0.09000
N 	N 	0.05501 0.77230 0.99523 -0.11500
C 	C 	0.03031 0.78289 0.96344 0.04900
C 	C 	0.01460 0.76004 0.93023 0.00100
N 	N 	0.02389 0.72758 0.93081 -0.10600
N 	N 	0.05624 0.68435 0.96676 -0.09600
N 	N 	0.08811 0.72920 0.02936 -0.10500
H 	H 	0.99464 0.76795 0.90545 0.04000
C 	C 	0.07971 0.67344 0.00147 -0.02500
C 	C 	0.09622 0.69647 0.03283 0.04800
H 	H 	0.11496 0.68834 0.06066 0.05300
C 	C 	0.09749 0.53986 0.87953 -0.10500
C 	C 	0.12278 0.52375 0.85217 0.09200
C 	C 	0.11953 0.50964 0.79679 -0.07900
C 	C 	0.09128 0.51106 0.76864 0.02000
C 	C 	0.06650 0.52902 0.79448 0.02000
C 	C 	0.06988 0.54347 0.84934 0.00600
H 	H 	0.13869 0.49624 0.77677 0.06600
H 	H 	0.05062 0.55662 0.86953 0.03400
I 	I 	0.16572 0.51857 0.89402 -0.09700
I 	I 	0.02320 0.53385 0.75336 -0.11000
C 	C 	0.07754 0.57633 0.20345 -0.10600
C 	C 	0.07499 0.60449 0.23934 0.09100
C 	C 	0.06325 0.60199 0.29596 -0.07900
C 	C 	0.05360 0.57168 0.31678 0.01900
C 	C 	0.05795 0.54305 0.28199 0.01900
C 	C 	0.07027 0.54554 0.22591 -0.00000
H 	H 	0.06042 0.62392 0.32286 0.06500
H 	H 	0.07263 0.52375 0.19855 0.04100
I 	I 	0.08815 0.65119 0.20865 -0.10000
I 	I 	0.04453 0.49599 0.31108 -0.10600
C 	C 	0.73644 0.93500 0.01018 0.09900
C 	C 	0.74951 0.96114 0.98042 0.08700
N 	N 	0.78016 0.96310 0.97929 -0.11700
C 	C 	0.79842 0.93999 0.00694 0.05200
C 	C 	0.78531 0.91375 0.03648 0.00500
N 	N 	0.75458 0.91183 0.03759 -0.10200
N 	N 	0.70576 0.93305 0.01131 -0.08200
N 	N 	0.73141 0.98423 0.95282 -0.11200
H 	H 	0.79952 0.89486 0.05784 0.04300
C 	C 	0.68751 0.95631 0.98395 -0.03500
C 	C 	0.70070 0.98237 0.95392 0.04300
H 	H 	0.68662 0.00092 0.93142 0.03900
C 	C 	0.57815 0.96446 0.82619 -0.10600
C 	C 	0.54934 0.96099 0.80107 0.09100
C 	C 	0.54274 0.97498 0.74638 -0.07900
C 	C 	0.56468 0.99248 0.71648 0.01700
C 	C 	0.59415 0.99382 0.73966 0.02100
C 	C 	0.60079 0.97969 0.79428 0.00000
H 	H 	0.52021 0.97326 0.72799 0.06400
H 	H 	0.62316 0.98189 0.81310 0.04700
I 	I 	0.51543 0.93478 0.84482 -0.11300
I 	I 	0.62865 0.01821 0.69423 -0.10000
C 	C 	0.53936 0.94063 0.25727 0.02000
C 	C 	0.54125 0.97058 0.22621 0.01900
C 	C 	0.55754 0.97117 0.17383 0.00100
C 	C 	0.57240 0.94234 0.15218 -0.10600
C 	C 	0.57228 0.91297 0.18529 0.09300
C 	C 	0.55550 0.91221 0.23727 -0.07900
H 	H 	0.55802 0.99396 0.14912 0.03100
H 	H 	0.55477 0.88940 0.26186 0.06600
I 	I 	0.52002 0.01554 0.25702 -0.11100
I 	I 	0.59876 0.87008 0.16028 -0.08500
C 	C 	0.21337 0.06794 0.98146 0.09100
C 	C 	0.23073 0.04422 0.94959 0.08900
N 	N 	0.26130 0.04653 0.94567 -0.09000
C 	C 	0.27534 0.07168 0.97239 -0.03700
C 	C 	0.25783 0.09566 0.00364 0.05600
N 	N 	0.22722 0.09325 0.00759 -0.10600
N 	N 	0.18291 0.06515 0.98665 -0.11400
N 	N 	0.21690 0.01876 0.92383 -0.10500
H 	H 	0.26850 0.11594 0.02494 0.04700
C 	C 	0.16898 0.03963 0.96092 0.05000
C 	C 	0.18637 0.01598 0.92884 0.00200
H 	H 	0.17569 0.99535 0.90865 0.04100
C 	C 	0.42434 0.08806 0.70811 0.01900
C 	C 	0.42330 0.11452 0.74807 0.02200
C 	C 	0.40768 0.11171 0.80103 0.00300
C 	C 	0.39280 0.08279 0.81429 -0.10300
C 	C 	0.39150 0.05763 0.77205 0.09400
C 	C 	0.40764 0.06012 0.71969 -0.07800
H 	H 	0.40802 0.13154 0.83272 0.05700
H 	H 	0.40789 0.03989 0.68874 0.06600
I 	I 	0.44518 0.15893 0.72967 -0.09300
I 	I 	0.36419 0.01638 0.78480 -0.13700
C 	C 	0.38451 0.05324 0.14000 -0.10300
C 	C 	0.41523 0.05049 0.15745 0.08900
C 	C 	0.42270 0.03883 0.21340 -0.08000
C 	C 	0.40000 0.02852 0.25141 0.01900
C 	C 	0.36930 0.03278 0.23515 0.02100
C 	C 	0.36170 0.04530 0.17976 0.00200
H 	H 	0.44633 0.03613 0.22627 0.07000
H 	H 	0.33805 0.04778 0.16685 0.05300
I 	I 	0.45113 0.06035 0.09874 -0.12500
I 	I 	0.33403 0.01909 0.29225 -0.09600
C 	C 	0.41671 0.26203 0.99424 0.09000
C 	C 	0.43464 0.23745 0.96561 0.09100
N 	N 	0.42542 0.20595 0.96401 -0.09000
C 	C 	0.39882 0.19801 0.98967 -0.02200
C 	C 	0.38094 0.22268 0.01838 0.05100
N 	N 	0.39028 0.25418 0.02011 -0.10500
N 	N 	0.42576 0.29358 0.99533 -0.11400
N 	N 	0.46094 0.24540 0.93924 -0.10300
H 	H 	0.35983 0.21682 0.03934 0.04900
C 	C 	0.45200 0.30169 0.96856 0.05000
C 	C 	0.46999 0.27704 0.94013 0.00200
H 	H 	0.49102 0.28304 0.91902 0.04200
C 	C 	0.26202 0.56157 0.04154 0.09300
C 	C 	0.27166 0.52872 0.02981 0.09900
N 	N 	0.30145 0.52109 0.01915 -0.11100
C 	C 	0.32214 0.54496 0.02025 0.04700
C 	C 	0.31258 0.57772 0.03284 0.00500
N 	N 	0.28266 0.58541 0.04306 -0.10100
N 	N 	0.23204 0.56940 0.04992 -0.08700
N 	N 	0.25106 0.50489 0.02816 -0.10700
H 	H 	0.32881 0.59696 0.03382 0.04400
C 	C 	0.21124 0.54564 0.04726 -0.01100
C 	C 	0.22107 0.51264 0.03691 0.04300
H 	H 	0.20491 0.49337 0.03502 0.05300
C 	C 	0.75057 0.46996 0.02386 0.10500
C 	C 	0.76545 0.44476 0.99108 0.08100
N 	N 	0.79603 0.43965 0.99556 -0.09000
C 	C 	0.81243 0.45892 0.03130 -0.02500
C 	C 	0.79739 0.48387 0.06458 0.04500
N 	N 	0.76678 0.48887 0.06013 -0.11300
N 	N 	0.72016 0.47571 0.01814 -0.11100
N 	N 	0.74923 0.42613 0.95421 -0.10200
H 	H 	0.80998 0.49910 0.09390 0.04000
C 	C 	0.70390 0.45741 0.98065 0.04500
C 	C 	0.71872 0.43193 0.94837 0.00200
H 	H 	0.70605 0.41694 0.91878 0.04200
C 	C 	0.55981 0.75567 0.94720 0.09600
C 	C 	0.58589 0.76445 0.97766 0.08500
N 	N 	0.59320 0.79660 0.98002 -0.08800
C 	C 	0.57534 0.82050 0.95349 -0.01300
C 	C 	0.54927 0.81165 0.92293 0.03900
N 	N 	0.54207 0.77940 0.92036 -0.11000
N 	N 	0.55246 0.72351 0.94498 -0.11300
N 	N 	0.60354 0.74077 0.00482 -0.09700
H 	H 	0.53492 0.83027 0.90121 0.04900
C 	C 	0.57004 0.69973 0.97250 0.04100
C 	C 	0.59615 0.70859 0.00284 0.01300
H 	H 	0.61060 0.68992 0.02423 0.04300
