data_crystal

_cell_length_a 33.67831
_cell_length_b 34.01944
_cell_length_c 35.69730
_cell_angle_alpha 95.54507
_cell_angle_beta  95.55267
_cell_angle_gamma 125.45743

_symmetry_space_group_name_	'P 1'
_symmetry_space_group_name_H-M	'P 1'

loop_
_symmetry_equiv_pos_as_xyz
  x,y,z

loop_
_atom_site_label
_atom_site_type_symbol
_atom_site_fract_x
_atom_site_fract_y
_atom_site_fract_z
_atom_site_charge
C 	C 	0.98619 0.03399 0.99270 0.11900
N 	N 	0.03564 0.06061 0.99253 -0.14100
C 	C 	0.05797 0.03785 0.99017 0.11800
N 	N 	0.03077 0.98849 0.98823 -0.14300
C 	C 	0.98138 0.96178 0.98844 0.11800
N 	N 	0.95912 0.98459 0.99055 -0.14200
C 	C 	0.94699 0.99286 0.45144 0.11600
N 	N 	0.99595 0.01914 0.44953 -0.14000
C 	C 	0.01892 0.99698 0.44881 0.11600
N 	N 	0.99278 0.94839 0.45003 -0.14100
C 	C 	0.94380 0.92185 0.45184 0.11700
N 	N 	0.92090 0.94414 0.45257 -0.14100
Cu	Cu	0.65887 0.26864 0.99741 0.92700
Cu	Cu	0.69219 0.27179 0.91379 0.86900
Cu	Cu	0.68828 0.35045 0.95220 0.89600
Cu	Cu	0.66769 0.36274 0.03039 0.89400
C 	C 	0.67832 0.30118 0.07893 0.32800
O 	O 	0.58830 0.24396 0.00009 -0.36100
C 	C 	0.66787 0.32123 0.86725 0.32700
O 	O 	0.70280 0.34561 0.00400 -0.64000
O 	O 	0.65063 0.27749 0.94400 -0.64300
O 	O 	0.68522 0.22963 0.98972 -0.37700
O 	O 	0.73933 0.28051 0.95396 -0.44200
O 	O 	0.65890 0.32490 0.07231 -0.39400
O 	O 	0.72867 0.42136 0.96342 -0.38700
C 	C 	0.72494 0.44830 0.99005 0.28900
C 	C 	0.57071 0.26762 0.98877 0.27800
O 	O 	0.60151 0.31415 0.98643 -0.39500
O 	O 	0.69958 0.42968 0.01767 -0.39300
O 	O 	0.67742 0.27227 0.05078 -0.37400
C 	C 	0.72586 0.24731 0.97561 0.29100
O 	O 	0.68404 0.35596 0.89756 -0.39800
O 	O 	0.66093 0.27945 0.87064 -0.43100
H 	H 	0.73862 0.36462 0.01492 0.16500
H 	H 	0.61588 0.25949 0.93045 0.17200
Cu	Cu	0.72239 0.32946 0.45029 0.92800
Cu	Cu	0.71559 0.29166 0.53216 0.86900
Cu	Cu	0.63784 0.29814 0.49396 0.89700
Cu	Cu	0.62941 0.32452 0.41742 0.89300
C 	C 	0.69161 0.31411 0.36878 0.32700
O 	O 	0.74982 0.40058 0.45012 -0.36500
C 	C 	0.66534 0.31520 0.57873 0.32700
O 	O 	0.64454 0.28719 0.44213 -0.64200
O 	O 	0.71157 0.33490 0.50343 -0.64200
O 	O 	0.75982 0.30106 0.45697 -0.37500
O 	O 	0.70625 0.24588 0.49079 -0.44200
O 	O 	0.66816 0.33382 0.37577 -0.39500
O 	O 	0.56624 0.25871 0.48130 -0.38400
C 	C 	0.54035 0.26254 0.45355 0.29000
C 	C 	0.72607 0.41829 0.46113 0.28200
O 	O 	0.67888 0.38806 0.46294 -0.39300
O 	O 	0.56208 0.29430 0.43043 -0.39600
O 	O 	0.72025 0.31393 0.39674 -0.37300
C 	C 	0.74006 0.25943 0.46935 0.28800
O 	O 	0.63031 0.29834 0.54819 -0.39800
O 	O 	0.70729 0.32125 0.57589 -0.43000
H 	H 	0.62510 0.25215 0.42983 0.16300
H 	H 	0.72967 0.36886 0.51793 0.17200
C 	C 	0.65399 0.31078 0.75961 0.00300
C 	C 	0.61954 0.27718 0.72677 -0.04100
C 	C 	0.62980 0.28660 0.69031 -0.04000
C 	C 	0.67463 0.33005 0.68631 0.00300
C 	C 	0.70827 0.36446 0.71914 -0.04100
C 	C 	0.69817 0.35488 0.75560 -0.04000
C 	C 	0.68971 0.33647 0.64848 0.01000
C 	C 	0.65522 0.32167 0.61497 -0.17400
C 	C 	0.64694 0.29632 0.79757 0.01000
C 	C 	0.66162 0.33080 0.83076 -0.17400
H 	H 	0.58556 0.24290 0.72949 0.03600
H 	H 	0.60394 0.25913 0.66530 0.03700
H 	H 	0.74310 0.39789 0.71644 0.03500
H 	H 	0.72567 0.38070 0.78065 0.03700
H 	H 	0.72823 0.35258 0.64689 0.03100
H 	H 	0.61895 0.31265 0.61718 0.08400
H 	H 	0.63051 0.25824 0.79952 0.03100
H 	H 	0.67086 0.36666 0.82812 0.08400
C 	C 	0.67618 0.30314 0.26140 0.00500
C 	C 	0.64041 0.26712 0.23007 -0.04100
C 	C 	0.64790 0.27392 0.19268 -0.03900
C 	C 	0.69088 0.31725 0.18634 0.00500
C 	C 	0.72754 0.35235 0.21768 -0.04100
C 	C 	0.72043 0.34515 0.25507 -0.03900
C 	C 	0.69391 0.32931 0.14767 0.01200
C 	C 	0.68914 0.29745 0.11661 -0.17000
C 	C 	0.66404 0.30044 0.30008 0.01200
C 	C 	0.69563 0.30407 0.33103 -0.16900
H 	H 	0.60610 0.23462 0.23466 0.03700
H 	H 	0.61920 0.24669 0.16868 0.04300
H 	H 	0.76077 0.38596 0.21308 0.03700
H 	H 	0.74819 0.37335 0.27907 0.04200
H 	H 	0.69895 0.36304 0.14338 0.02800
H 	H 	0.69309 0.26883 0.12189 0.08600
H 	H 	0.63035 0.29624 0.30443 0.02800
H 	H 	0.72414 0.29960 0.32562 0.08600
C 	C 	0.75086 0.47184 0.46752 -0.09000
C 	C 	0.79160 0.50227 0.45022 0.01200
C 	C 	0.81170 0.55196 0.45282 -0.06700
C 	C 	0.79146 0.57183 0.47286 0.02600
C 	C 	0.75189 0.54194 0.49127 -0.06700
C 	C 	0.73172 0.49220 0.48868 0.01100
C 	C 	0.81045 0.62341 0.47323 -0.00200
C 	C 	0.86033 0.66167 0.48890 -0.03800
C 	C 	0.87946 0.71015 0.48617 -0.04100
C 	C 	0.84887 0.72079 0.46782 0.00500
C 	C 	0.79861 0.68277 0.45327 -0.04100
C 	C 	0.77947 0.63425 0.45592 -0.03700
C 	C 	0.87027 0.77114 0.46165 0.01300
C 	C 	0.90422 0.79159 0.43687 -0.04900
C 	C 	0.92684 0.84024 0.43262 -0.02000
C 	C 	0.91584 0.86906 0.45322 -0.02200
C 	C 	0.88059 0.84806 0.47710 -0.02000
C 	C 	0.85790 0.79927 0.48128 -0.04900
H 	H 	0.80680 0.48719 0.43381 0.03700
H 	H 	0.84230 0.57478 0.43855 0.04500
H 	H 	0.73641 0.55709 0.50721 0.04500
H 	H 	0.70085 0.46941 0.50271 0.03000
H 	H 	0.88443 0.65374 0.50260 0.03700
H 	H 	0.91825 0.73934 0.49772 0.03900
H 	H 	0.77471 0.69066 0.43910 0.03900
H 	H 	0.74091 0.60497 0.44373 0.03800
H 	H 	0.91349 0.76991 0.42123 0.04100
H 	H 	0.95335 0.85573 0.41364 0.03800
H 	H 	0.87181 0.86987 0.49320 0.03900
H 	H 	0.83151 0.78366 0.50033 0.04100
C 	C 	0.92248 0.01737 0.45272 -0.02000
C 	C 	0.94803 0.06533 0.47369 -0.02100
C 	C 	0.92579 0.08952 0.47356 -0.04900
C 	C 	0.87784 0.06607 0.45243 0.01200
C 	C 	0.85205 0.01800 0.43171 -0.04700
C 	C 	0.87421 0.99368 0.43192 -0.02200
C 	C 	0.85468 0.09189 0.45207 0.00500
C 	C 	0.84176 0.10296 0.48561 -0.04200
C 	C 	0.82171 0.12922 0.48576 -0.03700
C 	C 	0.81449 0.14471 0.45239 -0.00300
C 	C 	0.82712 0.13339 0.41877 -0.03700
C 	C 	0.84707 0.10699 0.41859 -0.04100
C 	C 	0.79385 0.17291 0.45278 0.02600
C 	C 	0.82378 0.22264 0.44971 -0.06800
C 	C 	0.80566 0.25057 0.45367 0.01300
C 	C 	0.75741 0.22895 0.46080 -0.09600
C 	C 	0.72686 0.17864 0.46230 0.01200
C 	C 	0.74505 0.15083 0.45840 -0.06900
H 	H 	0.98511 0.08386 0.49011 0.03900
H 	H 	0.94591 0.12658 0.48971 0.04100
H 	H 	0.81492 0.99956 0.41542 0.04100
H 	H 	0.85421 0.95681 0.41544 0.04000
H 	H 	0.84748 0.09142 0.51157 0.03800
H 	H 	0.81210 0.13784 0.51185 0.03500
H 	H 	0.82153 0.14507 0.39284 0.03800
H 	H 	0.85708 0.09873 0.39260 0.04000
H 	H 	0.86147 0.23994 0.44523 0.04500
H 	H 	0.82963 0.28926 0.45233 0.03300
H 	H 	0.68926 0.16123 0.46704 0.02700
H 	H 	0.72149 0.11231 0.46036 0.04400
C 	C 	0.07220 0.02563 0.44706 -0.02200
C 	C 	0.09055 0.00339 0.42731 -0.01900
C 	C 	0.14130 0.02988 0.42694 -0.05000
C 	C 	0.17420 0.07888 0.44621 0.01300
C 	C 	0.15589 0.10140 0.46548 -0.04900
C 	C 	0.10513 0.07492 0.46593 -0.02000
C 	C 	0.22794 0.10627 0.44684 0.00500
C 	C 	0.26091 0.12278 0.48168 -0.04100
C 	C 	0.31174 0.14789 0.48223 -0.03700
C 	C 	0.32999 0.15661 0.44792 -0.00200
C 	C 	0.29703 0.14020 0.41309 -0.03700
C 	C 	0.24621 0.11517 0.41256 -0.04100
C 	C 	0.38363 0.18319 0.44852 0.02700
C 	C 	0.40805 0.16343 0.46145 -0.06800
C 	C 	0.45909 0.18909 0.46277 0.01400
C 	C 	0.48622 0.23480 0.45115 -0.08800
C 	C 	0.46158 0.25430 0.43787 0.01400
C 	C 	0.41056 0.22861 0.43660 -0.06700
H 	H 	0.06552 0.96560 0.41226 0.03800
H 	H 	0.15511 0.01221 0.41197 0.04100
H 	H 	0.18102 0.13930 0.48029 0.04100
H 	H 	0.09156 0.09247 0.48144 0.03900
H 	H 	0.24712 0.11590 0.50828 0.03900
H 	H 	0.33693 0.16063 0.50927 0.03800
H 	H 	0.31078 0.14671 0.38646 0.03700
H 	H 	0.22104 0.10265 0.38553 0.03900
H 	H 	0.38747 0.12820 0.47045 0.04500
H 	H 	0.47748 0.17337 0.47268 0.03000
H 	H 	0.48205 0.28967 0.42910 0.03200
H 	H 	0.39204 0.24423 0.42672 0.04500
C 	C 	0.95211 0.90819 0.98662 -0.02600
C 	C 	0.96504 0.88086 0.96642 -0.02000
C 	C 	0.93863 0.83049 0.96598 -0.04900
C 	C 	0.89890 0.80685 0.98557 0.01100
C 	C 	0.88541 0.83390 0.00526 -0.04700
C 	C 	0.91190 0.88433 0.00583 -0.01700
C 	C 	0.87217 0.75403 0.98617 0.00200
C 	C 	0.84705 0.71940 0.95184 -0.04100
C 	C 	0.82282 0.66945 0.95234 -0.03700
C 	C 	0.82342 0.65374 0.98717 -0.00400
C 	C 	0.84827 0.68832 0.02152 -0.03500
C 	C 	0.87261 0.73827 0.02103 -0.03900
C 	C 	0.79808 0.60113 0.98770 0.02400
C 	C 	0.81564 0.57636 0.97094 -0.06800
C 	C 	0.79189 0.52654 0.97174 0.01500
C 	C 	0.75022 0.50098 0.98926 -0.09100
C 	C 	0.73264 0.52590 0.00594 0.01600
C 	C 	0.75652 0.57573 0.00518 -0.06500
H 	H 	0.99556 0.89864 0.95108 0.03900
H 	H 	0.94932 0.80989 0.95071 0.04100
H 	H 	0.85462 0.81589 0.02031 0.04100
H 	H 	0.90165 0.90495 0.02169 0.04000
H 	H 	0.84634 0.73120 0.92482 0.03900
H 	H 	0.80351 0.64295 0.92570 0.03800
H 	H 	0.84900 0.67650 0.04854 0.03800
H 	H 	0.89214 0.76477 0.04765 0.03900
H 	H 	0.84787 0.59579 0.95752 0.04500
H 	H 	0.80614 0.50797 0.95904 0.03200
H 	H 	0.70026 0.50661 0.01919 0.03100
H 	H 	0.74260 0.59456 0.01804 0.04500
C 	C 	0.96177 0.05845 0.99470 -0.02500
C 	C 	0.98377 0.10243 0.02090 -0.01700
C 	C 	0.95976 0.12480 0.02354 -0.04400
C 	C 	0.91376 0.10361 0.99976 0.00400
C 	C 	0.89202 0.05987 0.97334 -0.04700
C 	C 	0.91578 0.03729 0.97095 -0.02100
C 	C 	0.88876 0.12764 0.00194 0.01500
C 	C 	0.83989 0.10147 0.00853 -0.04600
C 	C 	0.81456 0.12257 0.00700 -0.03000
C 	C 	0.83805 0.17021 0.99925 -0.00800
C 	C 	0.88763 0.19715 0.99432 -0.03300
C 	C 	0.91278 0.17587 0.99544 -0.04900
C 	C 	0.80972 0.19049 0.99353 0.02700
C 	C 	0.78670 0.19515 0.02264 -0.06700
C 	C 	0.75906 0.21346 0.01678 0.02100
C 	C 	0.75454 0.22760 0.98186 -0.10200
C 	C 	0.77769 0.22302 0.95283 0.01600
C 	C 	0.80494 0.20439 0.95858 -0.07100
H 	H 	0.01908 0.11890 0.03956 0.03900
H 	H 	0.97678 0.15845 0.04413 0.04100
H 	H 	0.85683 0.04354 0.95452 0.03900
H 	H 	0.89865 0.00356 0.95042 0.03900
H 	H 	0.82123 0.06446 0.01407 0.04100
H 	H 	0.77634 0.10148 0.01089 0.03700
H 	H 	0.90628 0.23416 0.98876 0.03500
H 	H 	0.95051 0.19642 0.99040 0.04000
H 	H 	0.79032 0.18469 0.04978 0.04700
H 	H 	0.74165 0.21713 0.03949 0.03600
H 	H 	0.77408 0.23335 0.92563 0.01200
H 	H 	0.82205 0.20039 0.93577 0.04300
C 	C 	0.51663 0.24320 0.98198 -0.08800
C 	C 	0.48506 0.20047 0.99660 0.00900
C 	C 	0.43459 0.17972 0.99303 -0.06900
C 	C 	0.41507 0.20129 0.97474 0.02600
C 	C 	0.44617 0.24312 0.95916 -0.06700
C 	C 	0.49669 0.26394 0.96267 0.01000
C 	C 	0.36247 0.18108 0.97320 -0.00200
C 	C 	0.32493 0.13285 0.95399 -0.03800
C 	C 	0.27532 0.11188 0.95587 -0.04200
C 	C 	0.26285 0.13898 0.97695 0.00600
C 	C 	0.30018 0.18780 0.99500 -0.04500
C 	C 	0.34982 0.20878 0.99315 -0.04000
C 	C 	0.21125 0.11519 0.98220 0.00900
C 	C 	0.18957 0.07715 0.00319 -0.04600
C 	C 	0.13996 0.05291 0.00674 -0.01700
C 	C 	0.11144 0.06639 0.98924 -0.02600
C 	C 	0.13358 0.10541 0.96909 -0.02000
C 	C 	0.18331 0.12970 0.96560 -0.04900
H 	H 	0.49976 0.18398 0.01153 0.04000
H 	H 	0.41083 0.14740 0.00513 0.04800
H 	H 	0.43129 0.25974 0.94465 0.04400
H 	H 	0.52035 0.29640 0.95070 0.03100
H 	H 	0.33430 0.11134 0.93824 0.03700
H 	H 	0.24667 0.07429 0.94159 0.03900
H 	H 	0.29086 0.20902 0.01126 0.04200
H 	H 	0.37856 0.24605 0.00806 0.04000
H 	H 	0.21108 0.06613 0.01649 0.04200
H 	H 	0.12357 0.02340 0.02286 0.04000
H 	H 	0.11200 0.11611 0.95535 0.03900
H 	H 	0.19985 0.15919 0.94946 0.04100
