data_crystal

_cell_length_a 28.80734
_cell_length_b 26.46383
_cell_length_c 31.77083
_cell_angle_alpha 103.68076
_cell_angle_beta  115.75767
_cell_angle_gamma 112.33085

_symmetry_space_group_name_	'P 1'
_symmetry_space_group_name_H-M	'P 1'

loop_
_symmetry_equiv_pos_as_xyz
  x,y,z

loop_
_atom_site_label
_atom_site_type_symbol
_atom_site_fract_x
_atom_site_fract_y
_atom_site_fract_z
_atom_site_charge
C 	C 	0.60750 0.26955 0.89671 0.05100
C 	C 	0.62799 0.32673 0.89653 -0.08900
C 	C 	0.67197 0.34869 0.88587 0.05100
C 	C 	0.69500 0.31322 0.87492 -0.08900
C 	C 	0.67484 0.25627 0.87538 0.05100
C 	C 	0.63077 0.23423 0.88593 -0.08900
H 	H 	0.61061 0.35448 0.90557 0.05400
H 	H 	0.72985 0.33074 0.86758 0.05400
H 	H 	0.61573 0.19051 0.88698 0.05400
C 	C 	0.53742 0.24127 0.36342 0.05000
C 	C 	0.55910 0.29832 0.36304 -0.09000
C 	C 	0.60439 0.31957 0.35368 0.05100
C 	C 	0.62741 0.28351 0.34415 -0.08900
C 	C 	0.60628 0.22692 0.34509 0.05200
C 	C 	0.56086 0.20550 0.35422 -0.08900
H 	H 	0.54181 0.32659 0.37111 0.05400
H 	H 	0.66336 0.30059 0.33798 0.05500
H 	H 	0.54506 0.16203 0.35565 0.05500
C 	C 	0.50166 0.77214 0.99767 0.05300
C 	C 	0.47434 0.80473 0.00361 -0.09000
C 	C 	0.42319 0.77783 0.00518 0.05300
C 	C 	0.39970 0.71859 0.00131 -0.09000
C 	C 	0.42672 0.68578 0.99520 0.05300
C 	C 	0.47786 0.71261 0.99351 -0.09000
H 	H 	0.49216 0.85037 0.00607 0.05500
H 	H 	0.35973 0.69755 0.00201 0.05500
H 	H 	0.49855 0.68707 0.98838 0.05400
C 	C 	0.44325 0.75058 0.47846 0.05200
C 	C 	0.41532 0.78348 0.48089 -0.08800
C 	C 	0.36275 0.75783 0.48069 0.05200
C 	C 	0.33848 0.69960 0.47863 -0.08800
C 	C 	0.36618 0.66655 0.47606 0.05200
C 	C 	0.41872 0.69212 0.47615 -0.08800
H 	H 	0.43370 0.82826 0.48186 0.05600
H 	H 	0.29738 0.67948 0.47792 0.05500
H 	H 	0.43985 0.66628 0.47361 0.05400
Zn	Zn	0.18824 0.14012 0.00405 1.18400
Zn	Zn	0.08703 0.08711 0.88783 1.19400
O 	O 	0.07462 0.98011 0.80403 -0.47300
O 	O 	0.05589 0.05735 0.81008 -0.44200
O 	O 	0.07568 0.90868 0.88107 -0.50100
C 	C 	0.25154 0.10890 0.96633 0.32500
O 	O 	0.02698 0.00324 0.86962 -0.88100
C 	C 	0.19302 0.22239 0.95584 0.33400
O 	O 	0.25891 0.14032 0.00993 -0.46500
O 	O 	0.19561 0.06896 0.92218 -0.35700
O 	O 	0.10460 0.09986 0.96061 -0.78200
O 	O 	0.12668 0.99343 0.96083 -0.45500
O 	O 	0.15359 0.17149 0.90874 -0.45500
O 	O 	0.20926 0.21930 0.00035 -0.46300
Zn	Zn	0.91267 0.90989 0.89176 1.17500
Zn	Zn	0.01496 0.94152 0.99209 1.18700
Zn	Zn	0.04781 0.01524 0.93916 1.21500
C 	C 	0.90180 0.81381 0.92816 0.34100
C 	C 	0.88104 0.95800 0.95589 0.33700
O 	O 	0.96982 0.04087 0.91777 -0.47100
Zn	Zn	0.03053 0.06196 0.02761 1.20100
O 	O 	0.96031 0.85291 0.96949 -0.46000
O 	O 	0.87467 0.82829 0.89183 -0.46700
O 	O 	0.86649 0.93902 0.90737 -0.47900
O 	O 	0.93599 0.97541 0.99533 -0.46700
C 	C 	0.04805 0.01785 0.10290 0.30800
O 	O 	0.99084 0.93084 0.91790 -0.79500
C 	C 	0.96812 0.08364 0.94729 0.34100
O 	O 	0.03615 0.96656 0.06874 -0.42200
O 	O 	0.06380 0.06820 0.09752 -0.46800
O 	O 	0.99791 0.10414 0.99869 -0.49500
O 	O 	0.06706 0.02649 0.00809 -0.89700
Zn	Zn	0.04553 0.94778 0.84379 1.18500
C 	C 	0.05998 0.01437 0.78404 0.30600
C 	C 	0.11934 0.94218 0.93242 0.33800
H 	H 	0.11139 0.04655 0.03625 0.16200
H 	H 	0.98363 0.98941 0.84437 0.15300
Zn	Zn	0.12419 0.11783 0.48009 1.18500
Zn	Zn	0.02527 0.06721 0.36388 1.19300
O 	O 	0.98545 0.94361 0.26045 -0.47800
O 	O 	0.00048 0.04010 0.28789 -0.45100
O 	O 	0.00991 0.88672 0.34874 -0.50000
C 	C 	0.18561 0.08916 0.43916 0.32700
O 	O 	0.96209 0.98329 0.34280 -0.87600
C 	C 	0.13030 0.20224 0.43494 0.33400
O 	O 	0.19454 0.11958 0.48393 -0.46400
O 	O 	0.12908 0.05025 0.39559 -0.37100
O 	O 	0.04052 0.07723 0.43557 -0.78000
O 	O 	0.06344 0.97130 0.42940 -0.45600
O 	O 	0.09441 0.15182 0.38792 -0.45600
O 	O 	0.14467 0.19806 0.47879 -0.46200
Zn	Zn	0.85008 0.88236 0.36446 1.17600
Zn	Zn	0.95620 0.91338 0.46264 1.18800
Zn	Zn	0.98432 0.99167 0.41188 1.21700
C 	C 	0.84383 0.78431 0.39752 0.34100
C 	C 	0.82031 0.92347 0.43289 0.33900
O 	O 	0.90603 0.01580 0.39488 -0.47100
Zn	Zn	0.96700 0.02881 0.50293 1.19800
O 	O 	0.90218 0.82412 0.43911 -0.45800
O 	O 	0.81579 0.79863 0.36148 -0.46700
O 	O 	0.80306 0.90606 0.38364 -0.48000
O 	O 	0.87544 0.93861 0.46972 -0.47800
C 	C 	0.00285 0.98484 0.57927 0.31700
O 	O 	0.92855 0.90617 0.38876 -0.80400
C 	C 	0.90237 0.05446 0.42623 0.34100
O 	O 	0.99052 0.93640 0.54158 -0.43200
O 	O 	0.00172 0.03150 0.57197 -0.47400
O 	O 	0.93019 0.06988 0.47680 -0.49800
O 	O 	0.00556 0.99940 0.48030 -0.89100
Zn	Zn	0.97446 0.92396 0.31285 1.18600
C 	C 	0.00597 0.99833 0.26199 0.32700
C 	C 	0.05575 0.92074 0.39949 0.33800
H 	H 	0.05021 0.02013 0.50793 0.15700
H 	H 	0.91944 0.97233 0.31935 0.15400
C 	C 	0.04910 0.00508 0.73233 -0.09200
C 	C 	0.08782 0.05289 0.72830 0.02800
C 	C 	0.07405 0.04415 0.67806 -0.02500
H 	H 	0.10358 0.08117 0.67499 0.03400
C 	C 	0.02152 0.98864 0.63166 -0.07600
C 	C 	0.98371 0.94019 0.63590 0.01700
C 	C 	0.99842 0.94843 0.68629 -0.01300
H 	H 	0.96896 0.91148 0.68947 0.01600
C 	C 	0.92653 0.88233 0.58792 0.01700
C 	C 	0.92597 0.82803 0.57056 -0.04500
C 	C 	0.87037 0.77160 0.52873 -0.01700
C 	C 	0.81525 0.76915 0.50427 -0.03700
C 	C 	0.81582 0.82336 0.52083 -0.01900
C 	C 	0.87133 0.87996 0.56244 -0.04600
C 	C 	0.14304 0.11209 0.77637 0.01300
C 	C 	0.19721 0.11502 0.80851 -0.04300
C 	C 	0.25079 0.17209 0.85175 -0.01900
C 	C 	0.25035 0.22619 0.86338 -0.03300
C 	C 	0.19632 0.22335 0.83171 -0.01600
C 	C 	0.14268 0.16644 0.78829 -0.04200
H 	H 	0.29289 0.17458 0.87565 0.03700
H 	H 	0.29192 0.27034 0.89682 0.03900
H 	H 	0.19609 0.26529 0.84062 0.03300
H 	H 	0.10110 0.16463 0.76367 0.04200
H 	H 	0.19800 0.07336 0.79949 0.04700
H 	H 	0.96835 0.82941 0.59002 0.04300
H 	H 	0.86990 0.72964 0.51567 0.03300
H 	H 	0.87130 0.92164 0.57559 0.04500
H 	H 	0.77309 0.82125 0.50211 0.03500
H 	H 	0.77207 0.72522 0.47262 0.03900
C 	C 	0.04285 0.01828 0.14738 -0.08200
C 	C 	0.01621 0.04764 0.16231 0.02200
C 	C 	0.00522 0.04124 0.20012 -0.01300
H 	H 	0.98296 0.06212 0.20998 0.04300
C 	C 	0.02123 0.00692 0.22423 -0.09400
C 	C 	0.05125 0.98073 0.21176 0.03100
C 	C 	0.06100 0.98587 0.17293 -0.01600
H 	H 	0.08287 0.96469 0.16272 0.04300
C 	C 	0.07348 0.94874 0.23963 0.00900
C 	C 	0.12728 0.98351 0.29203 -0.04100
C 	C 	0.14621 0.95300 0.31937 -0.02300
C 	C 	0.11184 0.88788 0.29442 -0.03700
C 	C 	0.05885 0.85308 0.24187 -0.02900
C 	C 	0.03979 0.88335 0.21434 -0.04200
C 	C 	0.99771 0.08355 0.13752 0.01200
C 	C 	0.04078 0.14701 0.15858 -0.04800
C 	C 	0.02329 0.18068 0.13462 -0.02700
C 	C 	0.96251 0.15159 0.09049 -0.04100
C 	C 	0.91898 0.08899 0.07062 -0.02200
C 	C 	0.93640 0.05504 0.09426 -0.05100
H 	H 	0.05681 0.22931 0.15027 0.02900
H 	H 	0.94907 0.17765 0.07189 0.03900
H 	H 	0.87172 0.06684 0.03702 0.03500
H 	H 	0.90240 0.00678 0.07913 0.04600
H 	H 	0.08791 0.16980 0.19280 0.04400
H 	H 	0.15393 0.03399 0.31165 0.04500
H 	H 	0.18740 0.97979 0.35991 0.03900
H 	H 	0.99833 0.85612 0.17382 0.03900
H 	H 	0.03240 0.80266 0.22256 0.03100
H 	H 	0.12631 0.86438 0.31577 0.03800
C 	C 	0.22285 0.37351 0.44922 -0.01400
C 	C 	0.27046 0.42510 0.50012 -0.02700
C 	C 	0.30167 0.48435 0.50571 -0.04900
C 	C 	0.28543 0.49224 0.46041 0.02000
C 	C 	0.23844 0.44050 0.40947 -0.04900
C 	C 	0.20722 0.38124 0.40389 -0.02700
C 	C 	0.31460 0.55379 0.46628 -0.01300
C 	C 	0.33887 0.60520 0.47093 -0.03100
C 	C 	0.18968 0.31281 0.44359 0.05200
C 	C 	0.16221 0.26221 0.43933 -0.12000
H 	H 	0.28294 0.41943 0.53534 0.03600
H 	H 	0.33790 0.52413 0.54521 0.04200
H 	H 	0.22559 0.44626 0.37428 0.04200
H 	H 	0.17063 0.34154 0.36440 0.03700
C 	C 	0.68490 0.86559 0.45618 -0.01600
C 	C 	0.64744 0.80152 0.43730 -0.02800
C 	C 	0.59958 0.77869 0.44332 -0.04900
C 	C 	0.58882 0.81978 0.46813 0.02000
C 	C 	0.62659 0.88395 0.48745 -0.04900
C 	C 	0.67460 0.90683 0.48151 -0.02700
C 	C 	0.53782 0.79582 0.47221 -0.01400
C 	C 	0.49501 0.77531 0.47543 -0.03100
C 	C 	0.73348 0.88866 0.44908 0.05200
C 	C 	0.77357 0.90585 0.44225 -0.12300
H 	H 	0.65526 0.76940 0.41781 0.03500
H 	H 	0.57059 0.72905 0.42832 0.04100
H 	H 	0.61853 0.91600 0.50667 0.04200
H 	H 	0.70345 0.95643 0.49630 0.03600
C 	C 	0.18979 0.88452 0.45284 -0.01900
C 	C 	0.19037 0.84893 0.47922 -0.02600
C 	C 	0.22995 0.82803 0.48921 -0.04900
C 	C 	0.26907 0.84262 0.47282 0.02100
C 	C 	0.27065 0.88078 0.44879 -0.04900
C 	C 	0.23112 0.90175 0.43887 -0.02500
C 	C 	0.30288 0.81359 0.47592 -0.01300
C 	C 	0.33101 0.78903 0.47871 -0.03000
C 	C 	0.14260 0.89758 0.43506 0.05500
C 	C 	0.10334 0.90884 0.41990 -0.13700
H 	H 	0.15876 0.83570 0.49038 0.03400
H 	H 	0.22873 0.79883 0.50808 0.04200
H 	H 	0.30104 0.89255 0.43629 0.04300
H 	H 	0.23123 0.92964 0.41879 0.03500
C 	C 	0.28480 0.39106 0.96563 -0.01400
C 	C 	0.34650 0.43592 0.00924 -0.02900
C 	C 	0.37736 0.49491 0.01421 -0.05000
C 	C 	0.34668 0.50921 0.97552 0.02100
C 	C 	0.28549 0.46380 0.93121 -0.04900
C 	C 	0.25462 0.40486 0.92629 -0.02900
C 	C 	0.37632 0.57166 0.98311 -0.01400
C 	C 	0.40027 0.62364 0.98870 -0.03200
C 	C 	0.25205 0.33145 0.96193 0.04800
C 	C 	0.22481 0.28162 0.95899 -0.12000
H 	H 	0.37026 0.42545 0.03964 0.03600
H 	H 	0.42466 0.52973 0.04854 0.04000
H 	H 	0.26148 0.47448 0.90112 0.04100
H 	H 	0.20705 0.37031 0.89231 0.03400
C 	C 	0.64502 0.84900 0.98541 0.02100
C 	C 	0.70502 0.86986 0.02636 -0.05000
C 	C 	0.75334 0.89496 0.02111 -0.03100
C 	C 	0.74187 0.89929 0.97487 -0.01200
C 	C 	0.68209 0.87943 0.93434 -0.02800
C 	C 	0.63377 0.85433 0.93959 -0.04800
C 	C 	0.79060 0.92062 0.96771 0.05200
C 	C 	0.83187 0.93858 0.96231 -0.12200
C 	C 	0.59491 0.82177 0.99021 -0.01400
C 	C 	0.55261 0.79891 0.99379 -0.03200
H 	H 	0.71415 0.86618 0.06202 0.03600
H 	H 	0.79943 0.91019 0.05261 0.03500
H 	H 	0.67286 0.88264 0.89849 0.03700
H 	H 	0.58758 0.83861 0.90789 0.04200
C 	C 	0.33074 0.86223 0.00728 0.02100
C 	C 	0.34210 0.91263 0.99692 -0.04800
C 	C 	0.30301 0.93406 0.98854 -0.02500
C 	C 	0.25237 0.90509 0.99041 -0.01800
C 	C 	0.24328 0.85720 0.00397 -0.02600
C 	C 	0.28239 0.83580 0.01238 -0.04900
C 	C 	0.20536 0.91834 0.97118 0.05600
C 	C 	0.16647 0.93002 0.95495 -0.13600
C 	C 	0.36425 0.83346 0.00701 -0.01200
C 	C 	0.39196 0.80894 0.00687 -0.03100
H 	H 	0.37972 0.93366 0.99337 0.04300
H 	H 	0.31057 0.97138 0.97840 0.03900
H 	H 	0.20444 0.83480 0.00579 0.03400
H 	H 	0.27364 0.79715 0.02083 0.04200
C 	C 	0.69671 0.14043 0.34323 0.02100
C 	C 	0.68068 0.08665 0.34885 -0.04900
C 	C 	0.71961 0.06496 0.35927 -0.02600
C 	C 	0.77472 0.09701 0.36413 -0.01900
C 	C 	0.78864 0.14832 0.35498 -0.02700
C 	C 	0.74968 0.16999 0.34453 -0.05000
C 	C 	0.82032 0.08243 0.38525 0.05500
C 	C 	0.85786 0.06945 0.40299 -0.13700
C 	C 	0.66367 0.16972 0.34314 -0.01300
C 	C 	0.63645 0.19480 0.34304 -0.03100
H 	H 	0.63951 0.06324 0.34744 0.04200
H 	H 	0.70830 0.02492 0.36586 0.03700
H 	H 	0.83091 0.17302 0.35824 0.03200
H 	H 	0.76208 0.21130 0.33976 0.04100
C 	C 	0.68756 0.49362 0.36988 0.02000
C 	C 	0.65457 0.51312 0.33831 -0.05000
C 	C 	0.68595 0.57205 0.34341 -0.02800
C 	C 	0.75039 0.61155 0.38001 -0.01700
C 	C 	0.78324 0.59226 0.41192 -0.02800
C 	C 	0.75190 0.53344 0.40687 -0.05000
C 	C 	0.78278 0.67225 0.38552 0.05100
C 	C 	0.81055 0.72322 0.39057 -0.12200
C 	C 	0.65597 0.43193 0.36296 -0.01400
C 	C 	0.63126 0.38065 0.35837 -0.03200
H 	H 	0.60481 0.48256 0.30961 0.04100
H 	H 	0.66022 0.58687 0.31886 0.03500
H 	H 	0.83303 0.62270 0.44048 0.03500
H 	H 	0.77769 0.51864 0.43139 0.04100
C 	C 	0.32560 0.14256 0.42144 -0.01400
C 	C 	0.37943 0.20282 0.45548 -0.02700
C 	C 	0.42315 0.22267 0.44440 -0.04800
C 	C 	0.41318 0.18233 0.39924 0.02000
C 	C 	0.36005 0.12161 0.36591 -0.04900
C 	C 	0.31635 0.10176 0.37698 -0.02800
C 	C 	0.45699 0.20347 0.38668 -0.01400
C 	C 	0.49352 0.22092 0.37598 -0.03200
C 	C 	0.27742 0.12454 0.42928 0.05000
C 	C 	0.23646 0.10846 0.43506 -0.11900
H 	H 	0.38682 0.23466 0.48985 0.03800
H 	H 	0.46431 0.26958 0.47051 0.04200
H 	H 	0.35221 0.09006 0.33109 0.04000
H 	H 	0.27478 0.05516 0.35042 0.03400
C 	C 	0.76166 0.16769 0.86526 0.02100
C 	C 	0.81357 0.19693 0.86508 -0.04900
C 	C 	0.85186 0.17452 0.87352 -0.02700
C 	C 	0.83838 0.12287 0.88220 -0.01900
C 	C 	0.78388 0.09082 0.87823 -0.02600
C 	C 	0.74560 0.11321 0.86980 -0.04900
C 	C 	0.88478 0.10937 0.90385 0.05500
C 	C 	0.92277 0.09704 0.92208 -0.13600
C 	C 	0.73016 0.19806 0.86812 -0.01300
C 	C 	0.70403 0.22380 0.87050 -0.03000
H 	H 	0.82590 0.23869 0.86098 0.04200
H 	H 	0.89364 0.19925 0.87607 0.03300
H 	H 	0.77288 0.05053 0.88448 0.03700
H 	H 	0.70516 0.08996 0.86939 0.04200
C 	C 	0.74511 0.52170 0.89809 0.02100
C 	C 	0.73836 0.52841 0.85370 -0.04900
C 	C 	0.76839 0.58787 0.85929 -0.02700
C 	C 	0.80528 0.64082 0.90929 -0.01500
C 	C 	0.81087 0.63416 0.95341 -0.02700
C 	C 	0.78084 0.57471 0.94782 -0.04900
C 	C 	0.83917 0.70180 0.91575 0.05400
C 	C 	0.86761 0.75293 0.92131 -0.12100
C 	C 	0.71868 0.46055 0.89339 -0.01300
C 	C 	0.69664 0.40946 0.88967 -0.03100
H 	H 	0.71077 0.48762 0.81513 0.04200
H 	H 	0.76369 0.59269 0.82497 0.03500
H 	H 	0.83915 0.67491 0.99215 0.03700
H 	H 	0.78623 0.56986 0.98230 0.04100
C 	C 	0.39711 0.16956 0.95602 -0.01400
C 	C 	0.41217 0.12909 0.93730 -0.02800
C 	C 	0.45652 0.14971 0.92695 -0.04800
C 	C 	0.48588 0.21083 0.93526 0.02000
C 	C 	0.47205 0.25176 0.95538 -0.04800
C 	C 	0.42779 0.23118 0.96576 -0.02900
C 	C 	0.52863 0.23098 0.92149 -0.01300
C 	C 	0.56451 0.24837 0.91010 -0.03100
C 	C 	0.34601 0.14635 0.95997 0.04800
C 	C 	0.30347 0.12863 0.96371 -0.11500
H 	H 	0.38856 0.08134 0.92957 0.03600
H 	H 	0.46722 0.11789 0.91163 0.04200
H 	H 	0.49473 0.29913 0.96208 0.04100
H 	H 	0.41611 0.26261 0.97993 0.03700
