data_crystal

_cell_length_a 26.02457
_cell_length_b 26.54527
_cell_length_c 26.10805
_cell_angle_alpha 95.50450
_cell_angle_beta  95.50400
_cell_angle_gamma 125.83395

_symmetry_space_group_name_	'P 1'
_symmetry_space_group_name_H-M	'P 1'

loop_
_symmetry_equiv_pos_as_xyz
  x,y,z

loop_
_atom_site_label
_atom_site_type_symbol
_atom_site_fract_x
_atom_site_fract_y
_atom_site_fract_z
_atom_site_charge
C 	C 	0.95432 0.01412 0.98934 0.15300
N 	N 	0.01654 0.04930 0.98233 -0.10300
C 	C 	0.04858 0.02337 0.98085 0.17900
N 	N 	0.01743 0.96147 0.98380 -0.09700
C 	C 	0.95532 0.92629 0.99062 0.18200
N 	N 	0.92440 0.95307 0.99483 -0.10400
C 	C 	0.94856 0.00791 0.45272 0.15200
N 	N 	0.00891 0.03872 0.44165 -0.10400
C 	C 	0.03890 0.01071 0.44157 0.17900
N 	N 	0.00736 0.95055 0.45004 -0.09700
C 	C 	0.94650 0.91888 0.45996 0.17900
N 	N 	0.91756 0.94805 0.46245 -0.10200
Cu	Cu	0.62691 0.23010 0.00027 0.93600
Cu	Cu	0.67937 0.24219 0.89040 0.89000
Cu	Cu	0.66479 0.33476 0.93850 0.90300
Cu	Cu	0.64736 0.35563 0.04679 0.91300
C 	C 	0.65585 0.27382 0.11092 0.29000
O 	O 	0.53739 0.20495 0.00446 -0.33700
C 	C 	0.64702 0.30381 0.82409 0.28800
O 	O 	0.68845 0.32953 0.00887 -0.63700
O 	O 	0.61792 0.24160 0.92729 -0.63800
O 	O 	0.65649 0.17646 0.98879 -0.33900
O 	O 	0.73408 0.24790 0.94794 -0.40700
O 	O 	0.63026 0.30345 0.10194 -0.36000
O 	O 	0.71656 0.42596 0.95050 -0.36800
C 	C 	0.71828 0.46275 0.98954 0.34400
C 	C 	0.51899 0.23862 0.98844 0.32300
O 	O 	0.56253 0.29791 0.98514 -0.37000
O 	O 	0.69927 0.44355 0.03350 -0.35600
O 	O 	0.65086 0.23383 0.07300 -0.33500
C 	C 	0.71126 0.20024 0.97261 0.33300
O 	O 	0.64474 0.33607 0.86454 -0.35900
O 	O 	0.64447 0.25324 0.82817 -0.38600
H 	H 	0.73538 0.35311 0.02152 0.18800
H 	H 	0.57359 0.21712 0.90667 0.20500
Cu	Cu	0.74782 0.34695 0.44079 0.93300
Cu	Cu	0.72290 0.28809 0.54724 0.89100
Cu	Cu	0.64017 0.31833 0.49966 0.90300
Cu	Cu	0.63081 0.34580 0.39191 0.90800
C 	C 	0.70626 0.32306 0.32984 0.29200
O 	O 	0.78739 0.43973 0.44158 -0.33300
C 	C 	0.66541 0.32564 0.61390 0.28800
O 	O 	0.64650 0.29704 0.42909 -0.63700
O 	O 	0.73342 0.35443 0.51301 -0.63700
O 	O 	0.79393 0.30834 0.45133 -0.34000
O 	O 	0.71504 0.23363 0.48920 -0.40500
O 	O 	0.68329 0.35545 0.33789 -0.36100
O 	O 	0.54790 0.27652 0.48457 -0.35900
C 	C 	0.51406 0.27067 0.44026 0.33700
C 	C 	0.75757 0.46444 0.45405 0.32000
O 	O 	0.69529 0.42737 0.45408 -0.36400
O 	O 	0.54178 0.30649 0.40526 -0.35600
O 	O 	0.74554 0.32558 0.36769 -0.33700
C 	C 	0.76482 0.25352 0.46645 0.33300
O 	O 	0.63562 0.33224 0.57404 -0.35200
O 	O 	0.71472 0.32438 0.60967 -0.38700
H 	H 	0.61862 0.25111 0.41446 0.18300
H 	H 	0.76177 0.39740 0.53490 0.19900
C 	C 	0.69732 0.38012 0.70617 -0.02800
C 	C 	0.64984 0.32932 0.66619 -0.07300
C 	C 	0.59369 0.27659 0.67894 0.09300
C 	C 	0.59068 0.27107 0.73172 -0.02800
C 	C 	0.64210 0.31842 0.77162 -0.07500
C 	C 	0.69362 0.37532 0.75901 0.09400
C 	C 	0.74669 0.42930 0.80152 -0.21000
H 	H 	0.73915 0.42179 0.69618 0.07000
H 	H 	0.54985 0.22847 0.74161 0.06800
C 	C 	0.53929 0.22389 0.63646 -0.21000
H 	H 	0.78139 0.47163 0.78528 0.10400
H 	H 	0.77377 0.41479 0.82265 0.08900
H 	H 	0.72585 0.44332 0.82966 0.11300
H 	H 	0.55455 0.19693 0.61687 0.08700
H 	H 	0.52559 0.24356 0.60701 0.11100
H 	H 	0.49564 0.19061 0.65253 0.10400
C 	C 	0.63861 0.24494 0.24825 -0.03400
C 	C 	0.69997 0.29648 0.27550 -0.07500
C 	C 	0.75070 0.32989 0.24762 0.11200
C 	C 	0.73672 0.31787 0.19258 -0.03600
C 	C 	0.67335 0.27186 0.16551 -0.07000
C 	C 	0.62506 0.23181 0.19325 0.10500
C 	C 	0.55782 0.17837 0.16460 -0.21500
H 	H 	0.60026 0.21767 0.26979 0.05400
H 	H 	0.77439 0.34675 0.17097 0.06100
C 	C 	0.81877 0.38080 0.27620 -0.22200
H 	H 	0.52956 0.14482 0.19048 0.10400
H 	H 	0.55981 0.15122 0.13074 0.11600
H 	H 	0.53224 0.19766 0.15032 0.11100
H 	H 	0.83332 0.36237 0.30626 0.12600
H 	H 	0.82197 0.42191 0.29540 0.12100
H 	H 	0.85367 0.39732 0.24911 0.10800
C 	C 	0.91237 0.85311 0.46844 -0.04700
C 	C 	0.86308 0.80233 0.42878 0.10300
C 	C 	0.83491 0.73969 0.43511 0.08000
C 	C 	0.86272 0.72771 0.47663 0.01200
C 	C 	0.91284 0.77849 0.51586 0.08000
C 	C 	0.93439 0.84062 0.51345 0.10100
C 	C 	0.84336 0.66269 0.47617 0.02300
C 	C 	0.80207 0.62495 0.50922 0.06600
C 	C 	0.78159 0.56238 0.50655 0.12700
C 	C 	0.79326 0.53410 0.46522 -0.11300
C 	C 	0.83388 0.57187 0.43154 0.12800
C 	C 	0.86294 0.63708 0.44011 0.06400
Br	Br	0.95468 0.76350 0.57082 -0.11800
Br	Br	0.84002 0.81828 0.36323 -0.10400
Br	Br	0.74197 0.51725 0.56148 -0.17400
Br	Br	0.92930 0.69140 0.40229 -0.12400
Br	Br	0.99226 0.90817 0.57230 -0.10700
Br	Br	0.75874 0.67023 0.38672 -0.12100
Br	Br	0.77066 0.65757 0.55585 -0.11000
Br	Br	0.84388 0.53391 0.37023 -0.16700
C 	C 	0.79350 0.21898 0.46502 -0.12000
C 	C 	0.81056 0.20600 0.41845 0.13100
C 	C 	0.83910 0.17438 0.41796 0.06400
C 	C 	0.84220 0.14786 0.46137 0.02500
C 	C 	0.82116 0.15724 0.50657 0.06400
C 	C 	0.80252 0.19740 0.51003 0.13200
C 	C 	0.86867 0.11113 0.45991 0.00700
C 	C 	0.83118 0.04868 0.43135 0.08500
C 	C 	0.85806 0.01569 0.42708 0.08200
C 	C 	0.91882 0.04129 0.45773 -0.03700
C 	C 	0.95336 0.10132 0.49053 0.08300
C 	C 	0.93079 0.13809 0.48815 0.08400
Br	Br	0.81625 0.11378 0.56317 -0.12400
Br	Br	0.79044 0.22685 0.35443 -0.16100
Br	Br	0.81454 0.93907 0.37570 -0.08400
Br	Br	0.98569 0.22589 0.52209 -0.12900
Br	Br	0.79712 0.22864 0.57761 -0.23300
Br	Br	0.87542 0.16886 0.35856 -0.12200
Br	Br	0.74266 0.00793 0.39911 -0.13000
Br	Br	0.02826 0.13084 0.54186 -0.09000
C 	C 	0.10766 0.04776 0.43792 -0.04800
C 	C 	0.12610 0.05573 0.38862 0.10200
C 	C 	0.19193 0.09182 0.38530 0.08000
C 	C 	0.23924 0.11869 0.43125 0.01200
C 	C 	0.22064 0.10984 0.48046 0.08000
C 	C 	0.15504 0.07548 0.48386 0.10200
C 	C 	0.30867 0.15723 0.42807 0.02300
C 	C 	0.33937 0.12806 0.42238 0.06500
C 	C 	0.40656 0.16530 0.42492 0.12500
C 	C 	0.44330 0.23176 0.43429 -0.11500
C 	C 	0.41244 0.26091 0.43913 0.12900
C 	C 	0.34500 0.22357 0.43477 0.06500
Br	Br	0.28531 0.14471 0.54316 -0.13100
Br	Br	0.06105 0.01663 0.32575 -0.10900
Br	Br	0.44837 0.12540 0.41509 -0.19200
Br	Br	0.30218 0.26309 0.43864 -0.10900
Br	Br	0.13016 0.06801 0.55154 -0.10600
Br	Br	0.21755 0.10490 0.31803 -0.11100
Br	Br	0.28939 0.03715 0.41222 -0.12500
Br	Br	0.46290 0.35196 0.45456 -0.13400
C 	C 	0.75233 0.53003 0.98770 -0.11800
C 	C 	0.82005 0.57002 0.99340 0.12900
C 	C 	0.85272 0.63477 0.99294 0.06400
C 	C 	0.81785 0.65981 0.98796 0.02300
C 	C 	0.75014 0.61984 0.98241 0.06600
C 	C 	0.71736 0.55485 0.98183 0.12600
C 	C 	0.85239 0.72816 0.98861 0.01200
C 	C 	0.87580 0.77045 0.03662 0.08000
C 	C 	0.91030 0.83566 0.03733 0.10400
C 	C 	0.92031 0.85842 0.99001 -0.05000
C 	C 	0.89631 0.81610 0.94198 0.10300
C 	C 	0.86270 0.75102 0.94130 0.08000
Br	Br	0.70262 0.65445 0.97587 -0.10900
Br	Br	0.86810 0.53634 0.00365 -0.17400
Br	Br	0.94505 0.89413 0.10311 -0.10400
Br	Br	0.83092 0.69295 0.87568 -0.12700
Br	Br	0.62442 0.49944 0.97225 -0.14300
Br	Br	0.94531 0.68946 0.99915 -0.12400
Br	Br	0.86041 0.73874 0.10124 -0.11300
Br	Br	0.90896 0.84747 0.87712 -0.11000
C 	C 	0.74302 0.16900 0.97628 -0.12100
C 	C 	0.76496 0.15748 0.93241 0.13100
C 	C 	0.80515 0.13862 0.93835 0.06300
C 	C 	0.81291 0.11895 0.98478 0.02100
C 	C 	0.78501 0.12374 0.02687 0.06500
C 	C 	0.75461 0.15337 0.02413 0.13100
C 	C 	0.84811 0.09101 0.98841 0.01200
C 	C 	0.81983 0.03009 0.95992 0.06900
C 	C 	0.85703 0.00792 0.95607 0.08700
C 	C 	0.91833 0.04113 0.98861 -0.04000
C 	C 	0.94420 0.09949 0.02124 0.08700
C 	C 	0.91126 0.12653 0.01788 0.08300
Br	Br	0.78678 0.08809 0.08741 -0.12100
Br	Br	0.73381 0.15985 0.86324 -0.22700
Br	Br	0.82715 0.93662 0.90215 -0.09300
Br	Br	0.95347 0.21289 0.05179 -0.13000
Br	Br	0.73457 0.17747 0.08689 -0.15700
Br	Br	0.85100 0.14140 0.88355 -0.12500
Br	Br	0.72993 0.97675 0.92696 -0.09100
Br	Br	0.02137 0.13957 0.07357 -0.09200
C 	C 	0.45029 0.21272 0.98151 -0.11600
C 	C 	0.40303 0.15363 0.94862 0.12800
C 	C 	0.33720 0.12554 0.94701 0.06500
C 	C 	0.31856 0.15904 0.97431 0.02300
C 	C 	0.36582 0.22070 0.00280 0.06500
C 	C 	0.43134 0.24582 0.00935 0.13100
C 	C 	0.24980 0.12745 0.97705 0.01100
C 	C 	0.20809 0.12388 0.93575 0.08000
C 	C 	0.14184 0.08978 0.93682 0.10300
C 	C 	0.11829 0.06344 0.98104 -0.04800
C 	C 	0.16119 0.07207 0.02430 0.10200
C 	C 	0.22612 0.10107 0.02120 0.08000
Br	Br	0.34043 0.27023 0.03344 -0.10900
Br	Br	0.42831 0.11238 0.90422 -0.18100
Br	Br	0.08302 0.07656 0.87687 -0.10800
Br	Br	0.28230 0.10303 0.07662 -0.13100
Br	Br	0.49380 0.32174 0.06073 -0.18100
Br	Br	0.27254 0.04034 0.90905 -0.12100
Br	Br	0.24193 0.16602 0.87806 -0.11100
Br	Br	0.13154 0.04694 0.08866 -0.11000
