data_crystal

_cell_length_a 32.28052
_cell_length_b 28.50834
_cell_length_c 19.75776
_cell_angle_alpha 92.67389
_cell_angle_beta  85.31976
_cell_angle_gamma 124.37038

_symmetry_space_group_name_	'P 1'
_symmetry_space_group_name_H-M	'P 1'

loop_
_symmetry_equiv_pos_as_xyz
  x,y,z

loop_
_atom_site_label
_atom_site_type_symbol
_atom_site_fract_x
_atom_site_fract_y
_atom_site_fract_z
_atom_site_charge
C 	C 	0.00259 0.05098 0.95652 0.10900
N 	N 	0.02974 0.02454 0.95613 -0.15300
C 	C 	0.17353 0.11912 0.03731 -0.07100
C 	C 	0.13119 0.07883 0.07799 0.02800
C 	C 	0.08351 0.04884 0.05260 -0.13000
C 	C 	0.07785 0.05834 0.98561 0.13900
C 	C 	0.11996 0.10022 0.94614 -0.10100
C 	C 	0.16755 0.13058 0.97182 0.05500
C 	C 	0.00870 0.92845 0.93174 -0.07100
H 	H 	0.00934 0.07351 0.06328 0.05100
H 	H 	0.13529 0.07038 0.12906 0.03500
H 	H 	0.05118 0.01841 0.08485 0.06200
H 	H 	0.11587 0.10828 0.89490 0.07100
H 	H 	0.19999 0.16163 0.93998 0.04500
H 	H 	0.03721 0.94568 0.88998 0.06300
C 	C 	0.13651 0.06325 0.50212 -0.01900
C 	C 	0.09327 0.02186 0.54054 -0.00400
C 	C 	0.04585 0.99606 0.51521 -0.07200
C 	C 	0.04132 0.01073 0.45033 0.08200
C 	C 	0.08452 0.05306 0.41284 -0.07000
C 	C 	0.13186 0.07933 0.43861 -0.00300
H 	H 	0.09639 0.00980 0.59011 0.04600
H 	H 	0.01282 0.96508 0.54603 0.05500
H 	H 	0.08140 0.06491 0.36318 0.05800
H 	H 	0.16502 0.11127 0.40855 0.04900
C 	C 	0.52649 0.27901 0.08130 0.26400
O 	O 	0.54405 0.25637 0.04111 -0.32900
C 	C 	0.48649 0.22985 0.58588 0.26200
O 	O 	0.51869 0.28413 0.58231 -0.34500
O 	O 	0.50564 0.20425 0.55639 -0.31700
H 	H 	0.54850 0.29778 0.70823 0.09600
C 	C 	0.33335 0.15801 0.57864 0.10500
N 	N 	0.36591 0.21498 0.58664 -0.06600
N 	N 	0.41459 0.23770 0.59250 -0.05400
C 	C 	0.43217 0.20415 0.58996 0.05400
N 	N 	0.39942 0.14703 0.58379 -0.05300
N 	N 	0.35065 0.12425 0.57851 -0.06500
C 	C 	0.18662 0.08833 0.52724 0.11600
N 	N 	0.19976 0.05432 0.54932 -0.07700
N 	N 	0.24633 0.07670 0.56734 -0.06600
C 	C 	0.28093 0.13376 0.56441 0.10100
N 	N 	0.26746 0.16785 0.54367 -0.06600
N 	N 	0.22104 0.14543 0.52504 -0.07700
C 	C 	0.37387 0.21396 0.09316 0.10200
N 	N 	0.38939 0.17844 0.08857 -0.06800
N 	N 	0.43824 0.19929 0.08613 -0.05700
C 	C 	0.47288 0.25619 0.08921 0.04900
N 	N 	0.45737 0.29171 0.09568 -0.05600
N 	N 	0.40852 0.27090 0.09708 -0.06900
C 	C 	0.22422 0.14560 0.06087 0.12600
N 	N 	0.25965 0.20187 0.05057 -0.08500
N 	N 	0.30716 0.22445 0.06427 -0.06900
C 	C 	0.32063 0.19126 0.08801 0.09700
N 	N 	0.28494 0.13533 0.09995 -0.06800
N 	N 	0.23738 0.11288 0.08687 -0.08200
H 	H 	0.55392 0.15906 0.33662 0.09600
O 	O 	0.56117 0.33123 0.09389 -0.35200
O 	O 	0.56579 0.27258 0.42246 -0.34800
C 	C 	0.00000 0.96447 0.97140 0.11100
C 	C 	0.94920 0.10169 0.95514 0.01000
C 	C 	0.95768 0.07900 0.89528 -0.00600
C 	C 	0.98409 0.05360 0.89612 -0.06700
C 	C 	0.99495 0.07479 0.01633 -0.09100
C 	C 	0.96800 0.09955 0.01565 -0.03200
C 	C 	0.94348 0.84736 0.99950 0.05100
C 	C 	0.98061 0.87024 0.94551 -0.01500
C 	C 	0.96285 0.94158 0.02571 -0.09000
C 	C 	0.93492 0.88343 0.03966 -0.04700
H 	H 	0.94319 0.08032 0.84835 0.05100
H 	H 	0.99013 0.03576 0.84983 0.06200
H 	H 	0.96194 0.11731 0.06204 0.05000
H 	H 	0.98732 0.84289 0.91368 0.06000
H 	H 	0.95649 0.96878 0.05813 0.05500
H 	H 	0.90698 0.86654 0.08214 0.05500
C 	C 	0.92111 0.06940 0.43346 -0.01900
C 	C 	0.92721 0.04741 0.37123 -0.00300
C 	C 	0.95107 0.01884 0.36754 -0.07200
C 	C 	0.96918 0.01202 0.42579 0.08800
C 	C 	0.96401 0.03508 0.48795 -0.07400
C 	C 	0.93992 0.06339 0.49172 -0.00200
N 	N 	0.99317 0.98176 0.42088 -0.14200
C 	C 	0.89957 0.80278 0.45359 -0.01900
C 	C 	0.93693 0.82608 0.39989 -0.00200
C 	C 	0.96716 0.88482 0.38930 -0.07100
C 	C 	0.96048 0.92103 0.43198 0.08900
C 	C 	0.92283 0.89768 0.48565 -0.07400
C 	C 	0.89266 0.83895 0.49632 -0.00200
H 	H 	0.91266 0.05151 0.32599 0.04700
H 	H 	0.95521 0.00157 0.31946 0.05800
H 	H 	0.97796 0.03038 0.53335 0.05700
H 	H 	0.93585 0.08060 0.53992 0.04900
H 	H 	0.94233 0.79869 0.36604 0.05000
H 	H 	0.99597 0.90235 0.34791 0.06100
H 	H 	0.91785 0.92488 0.52021 0.05800
H 	H 	0.86445 0.82168 0.53847 0.05000
Co	Co	0.71826 0.32590 0.00081 1.16600
O 	O 	0.77552 0.32204 0.94919 -0.34400
Co	Co	0.61956 0.33212 0.03773 1.17700
O 	O 	0.65447 0.30122 0.95320 -0.42800
O 	O 	0.68023 0.40851 0.05816 -0.40500
O 	O 	0.71150 0.24659 0.99230 -0.30700
C 	C 	0.72623 0.43315 0.02842 0.27600
O 	O 	0.62381 0.34859 0.93258 -0.34000
C 	C 	0.68099 0.31852 0.12949 0.30900
O 	O 	0.72599 0.33374 0.10839 -0.36000
O 	O 	0.65093 0.29707 0.08070 -0.47000
O 	O 	0.73917 0.40533 0.98582 -0.48700
C 	C 	0.75391 0.26825 0.95743 0.26100
C 	C 	0.64947 0.32887 0.90733 0.30000
H 	H 	0.76632 0.42704 0.94829 0.18000
Co	Co	0.68064 0.28573 0.48736 1.18500
O 	O 	0.73433 0.27826 0.43003 -0.35100
Co	Co	0.57671 0.28259 0.52907 1.18600
O 	O 	0.60988 0.24427 0.45450 -0.46500
O 	O 	0.63224 0.36499 0.52057 -0.39400
O 	O 	0.68230 0.21246 0.49884 -0.32600
C 	C 	0.67941 0.38763 0.49578 0.30000
C 	C 	0.65808 0.30146 0.61691 0.30300
O 	O 	0.70141 0.31652 0.58776 -0.35600
O 	O 	0.62179 0.26728 0.57817 -0.44700
O 	O 	0.69227 0.35789 0.45679 -0.51800
C 	C 	0.71928 0.22930 0.45401 0.25800
C 	C 	0.59458 0.25563 0.40289 0.31700
H 	H 	0.71805 0.37733 0.41713 0.18100
C 	C 	0.65035 0.29927 0.69187 -0.08600
C 	C 	0.61477 0.30769 0.72492 0.08400
C 	C 	0.61138 0.31068 0.79615 -0.03000
C 	C 	0.64793 0.31395 0.83418 -0.08000
C 	C 	0.68568 0.30946 0.80043 0.08300
C 	C 	0.68380 0.29702 0.73060 -0.02700
H 	H 	0.58233 0.31454 0.82134 0.06700
H 	H 	0.71143 0.29063 0.70564 0.06300
N 	N 	0.58526 0.31850 0.68610 -0.15300
N 	N 	0.72893 0.32402 0.83493 -0.15100
C 	C 	0.60792 0.37965 0.68205 -0.10500
H 	H 	0.60739 0.39749 0.73315 0.06900
H 	H 	0.58612 0.38723 0.64886 0.07700
H 	H 	0.64727 0.40225 0.65955 0.06900
C 	C 	0.77214 0.38087 0.81474 -0.10400
H 	H 	0.78464 0.38145 0.76045 0.06700
H 	H 	0.80398 0.39339 0.84587 0.07000
H 	H 	0.76271 0.41275 0.82319 0.06000
H 	H 	0.73748 0.29404 0.82350 0.09500
C 	C 	0.62267 0.27191 0.33598 -0.11700
C 	C 	0.61585 0.23006 0.28789 0.09100
C 	C 	0.63592 0.24616 0.22083 -0.02600
C 	C 	0.66241 0.30321 0.20086 -0.09800
C 	C 	0.67013 0.34512 0.24921 0.08400
C 	C 	0.64899 0.32886 0.31559 -0.02800
H 	H 	0.63012 0.21396 0.18391 0.06200
H 	H 	0.65096 0.36039 0.35051 0.05700
N 	N 	0.58606 0.17063 0.30537 -0.14100
N 	N 	0.69777 0.40433 0.23086 -0.14100
C 	C 	0.61626 0.15464 0.33558 -0.09400
H 	H 	0.65019 0.16687 0.30183 0.06600
H 	H 	0.59352 0.10784 0.34244 0.06900
H 	H 	0.62771 0.17489 0.38600 0.06200
C 	C 	0.66363 0.42027 0.21582 -0.09400
H 	H 	0.63598 0.39009 0.17944 0.05800
H 	H 	0.68562 0.46354 0.19339 0.07500
H 	H 	0.64314 0.42107 0.26338 0.06900
H 	H 	0.72530 0.41556 0.19124 0.09500
C 	C 	0.80892 0.62688 0.48408 0.09900
N 	N 	0.85750 0.65275 0.45939 -0.06700
N 	N 	0.88650 0.70886 0.45006 -0.07800
C 	C 	0.86770 0.74069 0.46496 0.11700
N 	N 	0.81918 0.71480 0.49000 -0.07800
N 	N 	0.79023 0.65873 0.49943 -0.06700
C 	C 	0.71434 0.45009 0.49753 0.02600
N 	N 	0.69705 0.48246 0.51853 -0.05500
N 	N 	0.72755 0.53895 0.51557 -0.06900
C 	C 	0.77629 0.56474 0.49174 0.10200
N 	N 	0.79395 0.53242 0.47236 -0.06900
N 	N 	0.76343 0.47589 0.47537 -0.06400
C 	C 	0.80877 0.16620 0.44747 0.10400
N 	N 	0.81915 0.20700 0.40292 -0.06700
N 	N 	0.79084 0.22765 0.40528 -0.05600
C 	C 	0.75130 0.20784 0.45202 0.05100
N 	N 	0.74085 0.16693 0.49627 -0.05400
N 	N 	0.76930 0.14660 0.49424 -0.06600
C 	C 	0.89332 0.09657 0.43824 0.11700
N 	N 	0.86021 0.08572 0.49211 -0.07700
N 	N 	0.83366 0.10848 0.49532 -0.06600
C 	C 	0.83959 0.14299 0.44492 0.10000
N 	N 	0.87307 0.15433 0.39132 -0.06700
N 	N 	0.89947 0.13133 0.38793 -0.07800
C 	C 	0.85579 0.67196 0.03283 0.09700
N 	N 	0.83633 0.70301 0.04827 -0.07100
N 	N 	0.86450 0.75903 0.03853 -0.07400
C 	C 	0.91300 0.78566 0.01316 0.05700
N 	N 	0.93271 0.75472 0.99876 -0.04400
N 	N 	0.90448 0.69865 0.00830 -0.08200
C 	C 	0.76135 0.49512 0.03582 0.02700
N 	N 	0.81063 0.52164 0.01433 -0.07100
N 	N 	0.84127 0.57817 0.01542 -0.07300
C 	C 	0.82353 0.60974 0.03829 0.09800
N 	N 	0.77466 0.58314 0.06182 -0.07100
N 	N 	0.74404 0.52664 0.06073 -0.05900
C 	C 	0.86522 0.17133 0.95302 0.12500
N 	N 	0.85415 0.13251 0.00088 -0.08600
N 	N 	0.88126 0.11065 0.00191 -0.09500
C 	C 	0.91994 0.12665 0.95475 0.13500
N 	N 	0.93091 0.16531 0.90670 -0.07500
N 	N 	0.90409 0.18757 0.90606 -0.06600
C 	C 	0.78203 0.24202 0.95415 0.05700
N 	N 	0.82730 0.26719 0.91849 -0.05500
N 	N 	0.85360 0.24417 0.91730 -0.06300
C 	C 	0.83553 0.19563 0.95225 0.10400
N 	N 	0.79014 0.17034 0.98761 -0.05900
N 	N 	0.76364 0.19306 0.98826 -0.04900
