data_crystal

_cell_length_a 15.56427
_cell_length_b 15.93171
_cell_length_c 39.94149
_cell_angle_alpha 95.38179
_cell_angle_beta  95.37918
_cell_angle_gamma 126.71037

_symmetry_space_group_name_	'P 1'
_symmetry_space_group_name_H-M	'P 1'

loop_
_symmetry_equiv_pos_as_xyz
  x,y,z

loop_
_atom_site_label
_atom_site_type_symbol
_atom_site_fract_x
_atom_site_fract_y
_atom_site_fract_z
_atom_site_charge
C 	C 	0.88075 0.98240 0.97252 0.00800
C 	C 	0.04969 0.00630 0.97273 -0.00100
C 	C 	0.99178 0.04721 0.97132 -0.04400
H 	H 	0.03381 0.13060 0.96986 0.04800
C 	C 	0.05990 0.11121 0.49567 -0.05600
C 	C 	0.10392 0.05548 0.49452 0.01300
H 	H 	0.11182 0.19633 0.49603 0.04900
Cu	Cu	0.75647 0.32791 0.96643 0.92500
Cu	Cu	0.70797 0.21846 0.03488 0.86600
Cu	Cu	0.58629 0.28976 0.00730 0.89400
Cu	Cu	0.55243 0.31560 0.93412 0.90100
C 	C 	0.69179 0.29842 0.89365 0.29100
O 	O 	0.81342 0.48509 0.96766 -0.35100
C 	C 	0.62791 0.29399 0.08130 0.28200
O 	O 	0.58672 0.24335 0.96031 -0.63100
O 	O 	0.73760 0.33686 0.01433 -0.64800
O 	O 	0.81926 0.24769 0.97065 -0.36400
O 	O 	0.68091 0.12448 0.99533 -0.43800
O 	O 	0.64982 0.34776 0.90053 -0.38600
O 	O 	0.44252 0.25474 0.99923 -0.38100
C 	C 	0.37183 0.20123 0.97028 0.31000
C 	C 	0.75567 0.51855 0.97544 0.28600
O 	O 	0.65153 0.44911 0.97593 -0.39600
O 	O 	0.40063 0.22664 0.94076 -0.39400
O 	O 	0.75146 0.29464 0.91825 -0.36200
C 	C 	0.75999 0.15174 0.97869 0.29900
O 	O 	0.58670 0.31697 0.05648 -0.37700
O 	O 	0.70226 0.28038 0.07720 -0.41900
H 	H 	0.53967 0.16496 0.95285 0.16000
H 	H 	0.79059 0.40810 0.02911 0.17200
Cu	Cu	0.62450 0.20710 0.50862 0.92700
Cu	Cu	0.72361 0.24419 0.43811 0.86700
Cu	Cu	0.65426 0.36613 0.46586 0.89600
Cu	Cu	0.63730 0.40603 0.53943 0.90100
C 	C 	0.66235 0.27575 0.58132 0.30800
O 	O 	0.46692 0.15040 0.50983 -0.35800
C 	C 	0.63636 0.31426 0.39138 0.29900
O 	O 	0.70983 0.37220 0.51264 -0.63500
O 	O 	0.60654 0.21856 0.46030 -0.64600
O 	O 	0.69552 0.13709 0.50306 -0.36900
O 	O 	0.82102 0.26556 0.47637 -0.44100
O 	O 	0.61167 0.31669 0.57464 -0.38700
O 	O 	0.68902 0.50647 0.47231 -0.38100
C 	C 	0.74249 0.57854 0.50069 0.30900
C 	C 	0.42860 0.20135 0.50014 0.29200
O 	O 	0.49575 0.30335 0.49927 -0.39800
O 	O 	0.72278 0.55260 0.53088 -0.39300
O 	O 	0.66752 0.21885 0.55665 -0.36200
C 	C 	0.79052 0.18818 0.49326 0.30800
O 	O 	0.61762 0.35818 0.41658 -0.37600
O 	O 	0.65496 0.24504 0.39587 -0.42000
H 	H 	0.79041 0.41947 0.51909 0.16100
H 	H 	0.53220 0.16507 0.44656 0.17500
C 	C 	0.69545 0.27235 0.85763 -0.08600
C 	C 	0.60362 0.22845 0.83208 0.01400
C 	C 	0.61064 0.21759 0.79752 -0.06500
C 	C 	0.70958 0.25042 0.78809 0.02700
C 	C 	0.80024 0.28997 0.81359 -0.06500
C 	C 	0.79319 0.30072 0.84824 0.01800
C 	C 	0.72025 0.25122 0.75170 0.00200
C 	C 	0.65186 0.15631 0.72731 -0.04000
C 	C 	0.64943 0.15934 0.69234 -0.03200
C 	C 	0.71563 0.25711 0.68152 -0.00600
C 	C 	0.78811 0.35126 0.70586 -0.03200
C 	C 	0.79049 0.34839 0.74082 -0.03900
C 	C 	0.69994 0.26238 0.64582 0.04600
C 	C 	0.68429 0.26787 0.61619 -0.10300
H 	H 	0.52749 0.20523 0.83901 0.02100
H 	H 	0.54012 0.18676 0.77806 0.04700
H 	H 	0.87677 0.31476 0.80659 0.04800
H 	H 	0.86468 0.33463 0.86768 0.03900
H 	H 	0.59807 0.08075 0.73542 0.04000
H 	H 	0.59349 0.08614 0.67370 0.04200
H 	H 	0.83977 0.42713 0.69771 0.03900
H 	H 	0.84372 0.42211 0.75939 0.04100
C 	C 	0.60310 0.29937 0.11579 -0.08700
C 	C 	0.58519 0.22308 0.13522 0.01200
C 	C 	0.57336 0.23355 0.16925 -0.06700
C 	C 	0.57960 0.32063 0.18432 0.02600
C 	C 	0.59423 0.39543 0.16466 -0.06700
C 	C 	0.60552 0.38462 0.13045 0.01600
C 	C 	0.57826 0.33691 0.22125 0.00100
C 	C 	0.48702 0.25959 0.23428 -0.04100
C 	C 	0.49335 0.26350 0.26965 -0.03400
C 	C 	0.59071 0.34488 0.29222 -0.00700
C 	C 	0.67949 0.42597 0.27935 -0.03400
C 	C 	0.67330 0.42211 0.24399 -0.04000
C 	C 	0.60457 0.33699 0.32773 0.04200
C 	C 	0.61798 0.32797 0.35705 -0.10500
H 	H 	0.58235 0.15656 0.12409 0.01800
H 	H 	0.56215 0.17544 0.18420 0.04400
H 	H 	0.59880 0.46278 0.17603 0.04500
H 	H 	0.61946 0.44412 0.11573 0.03400
H 	H 	0.41287 0.19408 0.21698 0.03800
H 	H 	0.42410 0.20085 0.27938 0.03800
H 	H 	0.75487 0.48948 0.29662 0.03700
H 	H 	0.74404 0.48249 0.23423 0.03900
C 	C 	0.80558 0.68816 0.49827 -0.10800
C 	C 	0.85144 0.14724 0.49545 -0.11400
C 	C 	0.89938 0.10942 0.49627 0.04000
C 	C 	0.21890 0.11040 0.49573 0.03600
C 	C 	0.31443 0.15148 0.49732 -0.10100
C 	C 	0.79972 0.62883 0.97604 -0.09600
C 	C 	0.79420 0.08471 0.97521 -0.10900
C 	C 	0.82671 0.03174 0.97361 0.03600
C 	C 	0.25895 0.13232 0.97147 -0.11400
C 	C 	0.16354 0.07442 0.97215 0.04800
C 	C 	0.82627 0.87334 0.97443 -0.05300
C 	C 	0.88585 0.83203 0.97525 0.00800
C 	C 	0.99730 0.89953 0.97465 -0.04500
H 	H 	0.73999 0.82208 0.97530 0.04600
H 	H 	0.04334 0.86859 0.97547 0.04300
C 	C 	0.94817 0.05585 0.49645 0.01000
C 	C 	0.03660 0.94587 0.49395 -0.05700
C 	C 	0.92631 0.89170 0.49511 0.01200
C 	C 	0.88202 0.94629 0.49630 -0.05400
H 	H 	0.07063 0.90302 0.49329 0.04800
H 	H 	0.79604 0.90356 0.49712 0.05000
C 	C 	0.85979 0.78084 0.49661 0.04300
C 	C 	0.83434 0.72032 0.97591 0.03400
