data_crystal

_cell_length_a 26.26687
_cell_length_b 26.43275
_cell_length_c 26.45207
_cell_angle_alpha 95.49554
_cell_angle_beta  95.49525
_cell_angle_gamma 125.83185

_symmetry_space_group_name_	'P 1'
_symmetry_space_group_name_H-M	'P 1'

loop_
_symmetry_equiv_pos_as_xyz
  x,y,z

loop_
_atom_site_label
_atom_site_type_symbol
_atom_site_fract_x
_atom_site_fract_y
_atom_site_fract_z
_atom_site_charge
C 	C 	0.94853 0.02077 0.98758 0.13400
C 	C 	0.01373 0.05733 0.98491 -0.10900
C 	C 	0.04379 0.02793 0.97904 0.13400
C 	C 	0.00867 0.96212 0.97609 -0.09300
C 	C 	0.94372 0.92568 0.97912 0.14200
C 	C 	0.91370 0.95502 0.98486 -0.09700
H 	H 	0.04080 0.10823 0.98716 0.10100
H 	H 	0.03199 0.93944 0.97196 0.10900
H 	H 	0.86336 0.92677 0.98709 0.10400
C 	C 	0.95554 0.01394 0.43259 0.12200
C 	C 	0.02033 0.04389 0.43067 -0.09200
C 	C 	0.04737 0.01193 0.43839 0.12400
C 	C 	0.00859 0.94848 0.44454 -0.10200
C 	C 	0.94323 0.91716 0.44377 0.13300
C 	C 	0.91676 0.95009 0.43861 -0.07700
H 	H 	0.05010 0.09266 0.42492 0.11000
H 	H 	0.02931 0.92352 0.45016 0.09300
H 	H 	0.86669 0.92659 0.44014 0.11500
Cu	Cu	0.61893 0.23127 0.00639 0.93500
Cu	Cu	0.66422 0.22585 0.89608 0.88300
Cu	Cu	0.65915 0.33208 0.93911 0.90100
Cu	Cu	0.63575 0.35768 0.04340 0.91400
C 	C 	0.64564 0.28205 0.11455 0.29200
O 	O 	0.52882 0.20372 0.00763 -0.33400
C 	C 	0.64949 0.29408 0.82814 0.29200
O 	O 	0.67864 0.33057 0.01058 -0.63200
O 	O 	0.61038 0.23787 0.93263 -0.63900
O 	O 	0.64936 0.17760 0.00172 -0.31800
O 	O 	0.72220 0.23872 0.95341 -0.43100
O 	O 	0.62079 0.31151 0.10227 -0.35500
O 	O 	0.71200 0.42375 0.94913 -0.34600
C 	C 	0.70870 0.46157 0.98281 0.33300
C 	C 	0.50920 0.23557 0.98973 0.31200
O 	O 	0.55129 0.29421 0.98374 -0.35800
O 	O 	0.68176 0.44312 0.02373 -0.35000
O 	O 	0.64174 0.24026 0.07953 -0.33900
C 	C 	0.70239 0.19787 0.98466 0.33100
O 	O 	0.64960 0.33251 0.86415 -0.35500
O 	O 	0.63077 0.23730 0.83484 -0.39400
H 	H 	0.72479 0.35485 0.02500 0.18400
H 	H 	0.56586 0.21361 0.91355 0.18700
Cu	Cu	0.74900 0.34921 0.44017 0.93300
Cu	Cu	0.76151 0.31040 0.55268 0.89900
Cu	Cu	0.65099 0.30853 0.51209 0.90400
Cu	Cu	0.62472 0.34066 0.41083 0.90200
C 	C 	0.68963 0.32062 0.33385 0.29200
O 	O 	0.78262 0.44087 0.43906 -0.32000
C 	C 	0.70315 0.33564 0.62438 0.29300
O 	O 	0.64988 0.29432 0.43938 -0.63700
O 	O 	0.74581 0.36002 0.51496 -0.63300
O 	O 	0.79722 0.31182 0.44141 -0.35100
O 	O 	0.73901 0.24775 0.49587 -0.39300
O 	O 	0.66341 0.34852 0.34792 -0.36600
O 	O 	0.55855 0.25527 0.50290 -0.33400
C 	C 	0.52161 0.25779 0.46723 0.33200
C 	C 	0.75342 0.46342 0.45756 0.33300
O 	O 	0.69644 0.42411 0.46820 -0.38400
O 	O 	0.54608 0.30462 0.44100 -0.37900
O 	O 	0.73470 0.32576 0.36632 -0.34300
C 	C 	0.77777 0.26206 0.46309 0.33300
O 	O 	0.65189 0.30732 0.58734 -0.35600
O 	O 	0.75811 0.35217 0.61324 -0.39000
H 	H 	0.62382 0.24891 0.42285 0.17400
H 	H 	0.76943 0.40460 0.53296 0.19600
C 	C 	0.63585 0.32867 0.74686 -0.03400
C 	C 	0.66965 0.31447 0.77926 -0.08000
C 	C 	0.72039 0.31612 0.76327 0.11400
C 	C 	0.73145 0.32452 0.71293 -0.03600
C 	C 	0.69564 0.33559 0.67930 -0.08000
C 	C 	0.65036 0.34202 0.69773 0.12900
N 	N 	0.62330 0.36395 0.66986 -0.19400
H 	H 	0.59868 0.32993 0.75998 0.07100
H 	H 	0.76771 0.32172 0.69973 0.06300
N 	N 	0.75925 0.31065 0.79631 -0.19500
H 	H 	0.58710 0.36477 0.68217 0.11900
H 	H 	0.64117 0.38482 0.63814 0.11700
H 	H 	0.75676 0.31112 0.83549 0.07000
H 	H 	0.79480 0.30906 0.78348 0.10500
C 	C 	0.60962 0.24286 0.19469 -0.03100
C 	C 	0.66021 0.28164 0.16954 -0.07400
C 	C 	0.72302 0.32527 0.19857 0.11800
C 	C 	0.73293 0.33381 0.25283 -0.03200
C 	C 	0.68124 0.29911 0.27819 -0.07700
C 	C 	0.61971 0.25063 0.24884 0.11800
N 	N 	0.57027 0.21152 0.27241 -0.19700
H 	H 	0.56187 0.20786 0.17218 0.07500
H 	H 	0.78048 0.36961 0.27536 0.07400
N 	N 	0.77374 0.35951 0.17472 -0.19800
H 	H 	0.52443 0.17724 0.25063 0.11300
H 	H 	0.57730 0.21320 0.31225 0.08900
H 	H 	0.76830 0.35210 0.13447 0.10100
H 	H 	0.81977 0.39293 0.19649 0.11600
C 	C 	0.86832 0.64171 0.46643 -0.13600
C 	C 	0.82561 0.65667 0.45602 0.02300
C 	C 	0.75954 0.60838 0.44674 0.29200
C 	C 	0.73634 0.54556 0.44737 -0.05400
C 	C 	0.77888 0.53024 0.45749 -0.14000
C 	C 	0.84516 0.57878 0.46731 0.37600
C 	C 	0.85013 0.72272 0.45366 0.00500
F 	F 	0.71780 0.62235 0.43704 -0.40500
H 	H 	0.68518 0.50862 0.43943 0.09200
F 	F 	0.88702 0.56525 0.47849 -0.42600
H 	H 	0.91944 0.67882 0.47372 0.13400
C 	C 	0.88031 0.76926 0.49896 0.31300
C 	C 	0.90650 0.83244 0.49612 -0.09200
C 	C 	0.90282 0.84962 0.44805 -0.07100
C 	C 	0.86985 0.80251 0.40308 0.34300
C 	C 	0.84374 0.73934 0.40590 -0.11500
F 	F 	0.88527 0.75345 0.54556 -0.40700
H 	H 	0.93185 0.86851 0.53100 0.11500
F 	F 	0.86579 0.81848 0.35638 -0.40600
H 	H 	0.81979 0.70354 0.37085 0.13200
C 	C 	0.85388 0.06880 0.39786 -0.11000
C 	C 	0.88390 0.12418 0.43544 0.00300
C 	C 	0.93821 0.14392 0.47111 0.31400
C 	C 	0.96067 0.10732 0.47050 -0.09700
C 	C 	0.93027 0.05146 0.43342 -0.06300
C 	C 	0.87724 0.03280 0.39653 0.32900
C 	C 	0.85467 0.15766 0.44110 0.02300
F 	F 	0.96855 0.19809 0.50694 -0.40900
H 	H 	0.00172 0.12229 0.49898 0.12300
F 	F 	0.84861 0.98011 0.35933 -0.40000
H 	H 	0.81192 0.05316 0.37023 0.13200
C 	C 	0.85299 0.19051 0.40298 0.29100
C 	C 	0.82804 0.22473 0.41013 -0.04900
C 	C 	0.80514 0.22683 0.45562 -0.14300
C 	C 	0.80742 0.19412 0.49383 0.37300
C 	C 	0.83104 0.15906 0.48608 -0.13700
F 	F 	0.87620 0.18995 0.35940 -0.40200
H 	H 	0.82636 0.24935 0.38029 0.10700
F 	F 	0.78826 0.19759 0.53909 -0.45400
H 	H 	0.83219 0.13387 0.51565 0.13300
C 	C 	0.35674 0.15096 0.50009 -0.14900
C 	C 	0.31806 0.14052 0.45391 0.02200
C 	C 	0.34615 0.16571 0.41155 0.30400
C 	C 	0.41227 0.20131 0.41546 -0.05700
C 	C 	0.45144 0.21400 0.46223 -0.13700
C 	C 	0.42319 0.18798 0.50453 0.37500
C 	C 	0.24867 0.10640 0.45095 -0.00000
F 	F 	0.30946 0.15722 0.36704 -0.39500
H 	H 	0.43331 0.22028 0.38239 0.09600
F 	F 	0.46000 0.20035 0.55040 -0.42900
H 	H 	0.33537 0.13153 0.53292 0.12400
C 	C 	0.20489 0.05030 0.41434 0.32900
C 	C 	0.13935 0.02061 0.40934 -0.10600
C 	C 	0.11682 0.04553 0.44188 -0.06800
C 	C 	0.16057 0.10070 0.47946 0.33700
C 	C 	0.22618 0.13130 0.48352 -0.12500
F 	F 	0.22592 0.02454 0.38377 -0.40100
H 	H 	0.10597 0.97787 0.38049 0.12500
F 	F 	0.13944 0.12398 0.51256 -0.42700
H 	H 	0.25963 0.17447 0.51194 0.12100
C 	C 	0.85317 0.75009 0.92915 -0.12300
C 	C 	0.84001 0.72609 0.97506 -0.00700
C 	C 	0.86085 0.76779 0.02226 0.33500
C 	C 	0.89428 0.83294 0.02340 -0.07900
C 	C 	0.90748 0.85693 0.97752 -0.08700
C 	C 	0.88682 0.81531 0.93033 0.34800
C 	C 	0.80491 0.65742 0.97374 0.02400
F 	F 	0.84914 0.74517 0.06700 -0.39500
H 	H 	0.91032 0.86488 0.05995 0.11500
F 	F 	0.89924 0.83809 0.88570 -0.40400
H 	H 	0.83725 0.71817 0.89261 0.12500
C 	C 	0.74213 0.62109 0.98301 0.30300
C 	C 	0.71042 0.55681 0.98499 -0.05500
C 	C 	0.74094 0.52816 0.97734 -0.13400
C 	C 	0.80325 0.56420 0.96679 0.37600
C 	C 	0.83501 0.62857 0.96499 -0.14700
F 	F 	0.71211 0.64827 0.99051 -0.39800
H 	H 	0.66219 0.52927 0.99269 0.10800
F 	F 	0.83380 0.53744 0.96008 -0.43300
H 	H 	0.88345 0.65636 0.95777 0.12700
C 	C 	0.84467 0.07216 0.95287 -0.14500
C 	C 	0.84616 0.09945 0.00169 0.01800
C 	C 	0.88335 0.10301 0.04571 0.31600
C 	C 	0.91828 0.07885 0.04085 -0.07200
C 	C 	0.91618 0.05095 0.99207 -0.09400
C 	C 	0.87951 0.04799 0.94804 0.35200
C 	C 	0.80970 0.12532 0.00631 0.03900
F 	F 	0.88514 0.12930 0.09314 -0.39400
H 	H 	0.94623 0.08098 0.07503 0.11000
F 	F 	0.87718 0.02110 0.90066 -0.41400
H 	H 	0.81645 0.06969 0.91870 0.12200
C 	C 	0.84122 0.19112 0.01303 0.29200
C 	C 	0.80587 0.21506 0.00950 -0.03400
C 	C 	0.73875 0.17349 0.99897 -0.16300
C 	C 	0.70729 0.10786 0.99538 0.38100
C 	C 	0.74274 0.08395 0.99898 -0.16600
F 	F 	0.90601 0.23166 0.02074 -0.39600
H 	H 	0.83060 0.26582 0.01312 0.09800
F 	F 	0.64244 0.06699 0.98545 -0.43500
H 	H 	0.71812 0.03312 0.99425 0.12900
C 	C 	0.35625 0.22007 0.98763 -0.13300
C 	C 	0.31022 0.15395 0.97525 0.02100
C 	C 	0.32929 0.11488 0.96474 0.29200
C 	C 	0.39414 0.14179 0.96789 -0.05900
C 	C 	0.44055 0.20792 0.98186 -0.13200
C 	C 	0.42113 0.24707 0.99123 0.36000
C 	C 	0.24242 0.12558 0.97580 -0.00800
F 	F 	0.28511 0.05077 0.95266 -0.41100
H 	H 	0.40836 0.11116 0.96008 0.09900
F 	F 	0.46513 0.31100 0.00576 -0.42200
H 	H 	0.34182 0.25049 0.99559 0.13100
C 	C 	0.22243 0.12783 0.02282 0.32200
C 	C 	0.15770 0.09831 0.02349 -0.08000
C 	C 	0.11248 0.06608 0.97733 -0.08700
C 	C 	0.13264 0.06525 0.93016 0.34500
C 	C 	0.19742 0.09504 0.92943 -0.11400
F 	F 	0.26552 0.15721 0.06794 -0.40800
H 	H 	0.14244 0.09898 0.06003 0.10900
F 	F 	0.08928 0.03450 0.88522 -0.40700
H 	H 	0.21257 0.09364 0.89297 0.13000
