data_crystal

_cell_length_a 26.06338
_cell_length_b 26.48665
_cell_length_c 26.58191
_cell_angle_alpha 95.49710
_cell_angle_beta  95.49475
_cell_angle_gamma 125.83338

_symmetry_space_group_name_	'P 1'
_symmetry_space_group_name_H-M	'P 1'

loop_
_symmetry_equiv_pos_as_xyz
  x,y,z

loop_
_atom_site_label
_atom_site_type_symbol
_atom_site_fract_x
_atom_site_fract_y
_atom_site_fract_z
_atom_site_charge
C 	C 	0.96932 0.02655 0.98123 0.12400
N 	N 	0.03164 0.05944 0.97498 -0.14100
C 	C 	0.05645 0.02803 0.96195 0.12200
N 	N 	0.01856 0.96380 0.95456 -0.14000
C 	C 	0.95675 0.93080 0.96192 0.12600
N 	N 	0.93244 0.96241 0.97583 -0.13700
C 	C 	0.93287 0.99687 0.44996 0.13000
N 	N 	0.99687 0.03308 0.44897 -0.14000
C 	C 	0.02925 0.00761 0.45229 0.12300
N 	N 	0.99732 0.94551 0.45513 -0.13800
C 	C 	0.93339 0.90910 0.45628 0.12600
N 	N 	0.90133 0.93513 0.45450 -0.13700
Cu	Cu	0.64341 0.24430 0.00941 0.93300
Cu	Cu	0.70341 0.24836 0.90543 0.87900
Cu	Cu	0.69167 0.34893 0.94593 0.90000
Cu	Cu	0.64858 0.36457 0.04317 0.90300
C 	C 	0.65375 0.28786 0.11579 0.39700
O 	O 	0.54949 0.21052 0.00245 -0.33700
C 	C 	0.67813 0.30870 0.83430 0.38700
O 	O 	0.69997 0.34368 0.01726 -0.63500
O 	O 	0.64324 0.25494 0.93681 -0.64200
O 	O 	0.67941 0.19530 0.00877 -0.34900
O 	O 	0.75767 0.26131 0.96598 -0.42800
O 	O 	0.62787 0.31552 0.10027 -0.37300
O 	O 	0.74125 0.44021 0.96021 -0.36500
C 	C 	0.72446 0.47165 0.98642 0.28700
C 	C 	0.52908 0.24113 0.98323 0.28700
O 	O 	0.57091 0.30028 0.97865 -0.38700
O 	O 	0.69323 0.45065 0.02491 -0.37700
O 	O 	0.65772 0.25034 0.08262 -0.34400
C 	C 	0.73552 0.21862 0.99550 0.28400
O 	O 	0.69860 0.35542 0.87306 -0.36600
O 	O 	0.67014 0.25625 0.84198 -0.39600
H 	H 	0.74499 0.36901 0.03620 0.18600
H 	H 	0.60000 0.23102 0.91481 0.18600
Cu	Cu	0.73247 0.33592 0.43993 0.93200
Cu	Cu	0.73739 0.28955 0.54944 0.88100
Cu	Cu	0.63421 0.30079 0.51037 0.90200
Cu	Cu	0.61173 0.33442 0.40955 0.90400
C 	C 	0.67768 0.31406 0.33345 0.38700
O 	O 	0.77160 0.42861 0.44130 -0.34500
C 	C 	0.68289 0.32125 0.62214 0.38400
O 	O 	0.63278 0.28497 0.43814 -0.63800
O 	O 	0.72886 0.34534 0.51411 -0.63800
O 	O 	0.77855 0.29671 0.44043 -0.35200
O 	O 	0.71693 0.22902 0.49166 -0.42900
O 	O 	0.65238 0.34287 0.34793 -0.37300
O 	O 	0.54150 0.25281 0.50145 -0.35600
C 	C 	0.50534 0.25664 0.46602 0.29500
C 	C 	0.74366 0.45351 0.45798 0.28600
O 	O 	0.68506 0.41660 0.46720 -0.38600
O 	O 	0.53106 0.30055 0.43717 -0.38100
O 	O 	0.71927 0.31424 0.36635 -0.33700
C 	C 	0.75662 0.24497 0.45930 0.29500
O 	O 	0.63424 0.30266 0.58507 -0.35600
O 	O 	0.73567 0.32996 0.61175 -0.39500
H 	H 	0.60472 0.23951 0.42186 0.17900
H 	H 	0.75541 0.38964 0.53315 0.18700
C 	C 	0.61947 0.27089 0.74348 0.26900
C 	C 	0.67296 0.31889 0.78108 -0.20800
C 	C 	0.72515 0.37267 0.76626 0.26700
C 	C 	0.72616 0.37580 0.71405 0.26800
C 	C 	0.67508 0.32518 0.67626 -0.20400
C 	C 	0.62046 0.27401 0.69129 0.26600
F 	F 	0.57004 0.22540 0.65525 -0.40000
F 	F 	0.56751 0.22000 0.75746 -0.40500
F 	F 	0.77790 0.42694 0.70010 -0.40200
F 	F 	0.77664 0.42010 0.80224 -0.40300
C 	C 	0.61147 0.25598 0.24612 0.26500
C 	C 	0.67257 0.29674 0.27796 -0.20200
C 	C 	0.72797 0.32783 0.25568 0.27200
C 	C 	0.72193 0.32139 0.20208 0.26800
C 	C 	0.66061 0.28422 0.17053 -0.20500
C 	C 	0.60551 0.24984 0.19264 0.27500
F 	F 	0.54602 0.21241 0.16231 -0.39900
F 	F 	0.55771 0.22425 0.26717 -0.41500
F 	F 	0.77555 0.35388 0.18095 -0.40800
F 	F 	0.78738 0.36720 0.28598 -0.39500
C 	C 	0.81620 0.72975 0.43546 -0.05900
C 	C 	0.84907 0.71670 0.47029 0.00600
C 	C 	0.90714 0.76712 0.50290 0.00700
C 	C 	0.93144 0.82974 0.50046 -0.03100
C 	C 	0.90051 0.84299 0.46372 -0.02800
C 	C 	0.84217 0.79238 0.43110 0.02900
C 	C 	0.82519 0.65027 0.46905 0.01600
S 	S 	0.95141 0.75254 0.54522 -0.02400
H 	H 	0.97589 0.86836 0.52590 0.04900
S 	S 	0.80359 0.80626 0.38228 -0.02800
H 	H 	0.77162 0.69096 0.41026 0.05200
C 	C 	0.79229 0.61693 0.50706 -0.00400
C 	C 	0.76953 0.55387 0.50462 -0.00400
C 	C 	0.77612 0.52234 0.46309 -0.08400
C 	C 	0.80756 0.55542 0.42418 0.04700
C 	C 	0.83331 0.61946 0.42825 -0.06700
S 	S 	0.77683 0.65271 0.55657 -0.02600
H 	H 	0.74488 0.52863 0.53427 0.04800
S 	S 	0.81048 0.51636 0.36820 0.01500
H 	H 	0.85796 0.64491 0.39868 0.05700
H 	H 	0.82853 0.80897 0.33867 0.04000
H 	H 	0.72024 0.64391 0.54004 0.04000
H 	H 	0.75528 0.48924 0.33267 0.04900
H 	H 	0.93286 0.74895 0.59206 0.04300
C 	C 	0.86701 0.19632 0.45698 -0.07400
C 	C 	0.82222 0.13078 0.43920 0.01900
C 	C 	0.75657 0.10384 0.42378 -0.00600
C 	C 	0.73616 0.14234 0.42795 0.00300
C 	C 	0.78058 0.20757 0.44771 -0.09300
C 	C 	0.84664 0.23480 0.46167 0.05900
C 	C 	0.84417 0.09046 0.43957 0.00500
S 	S 	0.69952 0.02200 0.39960 -0.02500
H 	H 	0.68544 0.12131 0.41694 0.04500
S 	S 	0.90385 0.31623 0.48755 -0.05500
H 	H 	0.91762 0.21713 0.46843 0.05700
C 	C 	0.86678 0.07902 0.39710 0.00600
C 	C 	0.89338 0.04609 0.40023 -0.03000
C 	C 	0.89778 0.02446 0.44544 -0.03200
C 	C 	0.87335 0.03425 0.48739 0.03100
C 	C 	0.84652 0.06697 0.48414 -0.05800
S 	S 	0.86289 0.10648 0.34014 -0.02800
H 	H 	0.91176 0.03828 0.36782 0.04800
S 	S 	0.87881 0.00849 0.54498 -0.03300
H 	H 	0.82887 0.07553 0.51675 0.05200
H 	H 	0.92719 0.34884 0.44840 0.05900
H 	H 	0.91724 0.16721 0.34400 0.04300
H 	H 	0.93707 0.05458 0.57616 0.04000
H 	H 	0.69572 0.01054 0.34751 0.04400
C 	C 	0.32876 0.12090 0.45260 -0.06900
C 	C 	0.30305 0.15388 0.46318 0.01900
C 	C 	0.34420 0.22059 0.47608 -0.00400
C 	C 	0.41035 0.25362 0.47745 0.00400
C 	C 	0.43606 0.22072 0.46634 -0.08000
C 	C 	0.39496 0.15392 0.45397 0.06000
C 	C 	0.23292 0.11813 0.46046 0.00600
S 	S 	0.31334 0.26323 0.49004 -0.02300
H 	H 	0.44190 0.30498 0.48709 0.04700
S 	S 	0.42536 0.11125 0.43826 -0.03000
H 	H 	0.29707 0.06956 0.44270 0.05800
C 	C 	0.19198 0.10414 0.41418 0.00600
C 	C 	0.12551 0.06934 0.41229 -0.03200
C 	C 	0.09943 0.04803 0.45608 -0.03000
C 	C 	0.14054 0.06310 0.50262 0.03100
C 	C 	0.20694 0.09774 0.50446 -0.05800
S 	S 	0.22335 0.12953 0.35838 -0.03200
H 	H 	0.09396 0.05798 0.37654 0.04700
S 	S 	0.10957 0.03994 0.55901 -0.03500
H 	H 	0.23850 0.10901 0.54018 0.05900
H 	H 	0.42542 0.10479 0.38650 0.04600
H 	H 	0.22714 0.08506 0.33210 0.04200
H 	H 	0.09345 0.98095 0.56144 0.04300
H 	H 	0.29513 0.27501 0.44524 0.04000
C 	C 	0.79124 0.61869 0.92715 -0.06400
C 	C 	0.81309 0.66489 0.97100 0.00900
C 	C 	0.80097 0.64670 0.01912 0.00200
C 	C 	0.77256 0.58373 0.02370 -0.00100
C 	C 	0.75261 0.53757 0.98012 -0.08200
C 	C 	0.75946 0.55495 0.93112 0.04700
C 	C 	0.85048 0.73244 0.96646 0.00900
S 	S 	0.82006 0.70207 0.07369 -0.02600
H 	H 	0.76613 0.57069 0.06127 0.04800
S 	S 	0.72427 0.49731 0.87434 0.03000
H 	H 	0.79859 0.63233 0.88982 0.05900
C 	C 	0.91763 0.77402 0.98434 0.00000
C 	C 	0.95137 0.83861 0.98331 -0.02900
C 	C 	0.91957 0.86201 0.96186 -0.03000
C 	C 	0.85306 0.81937 0.94035 0.03100
C 	C 	0.81872 0.75526 0.94404 -0.06000
S 	S 	0.96025 0.74549 0.00679 -0.01900
H 	H 	0.00256 0.87074 0.99912 0.04800
S 	S 	0.81336 0.84421 0.90525 -0.02900
H 	H 	0.76740 0.72289 0.92878 0.05300
H 	H 	0.66204 0.47610 0.85885 0.03800
H 	H 	0.97767 0.72676 0.96610 0.04300
H 	H 	0.81969 0.83906 0.85481 0.04000
H 	H 	0.88133 0.72945 0.09914 0.04200
C 	C 	0.88196 0.08405 0.04134 -0.06000
C 	C 	0.87523 0.11380 0.00311 0.01200
C 	C 	0.90342 0.11862 0.95938 0.00000
C 	C 	0.93602 0.09182 0.95354 -0.02900
C 	C 	0.94064 0.05992 0.99082 -0.03600
C 	C 	0.91452 0.05716 0.03549 0.03700
C 	C 	0.83674 0.13789 0.00823 0.02000
S 	S 	0.89704 0.15693 0.91124 -0.03900
H 	H 	0.95652 0.09449 0.91938 0.04700
S 	S 	0.92388 0.02193 0.08498 -0.03000
H 	H 	0.86120 0.08120 0.07537 0.05700
C 	C 	0.77027 0.09906 0.98729 -0.00800
C 	C 	0.73640 0.12501 0.98656 -0.01100
C 	C 	0.76829 0.18954 0.00626 -0.07800
C 	C 	0.83371 0.22724 0.03039 0.05400
C 	C 	0.86758 0.20127 0.03115 -0.06800
S 	S 	0.72950 0.01852 0.96035 -0.03000
H 	H 	0.68587 0.09562 0.96865 0.03900
S 	S 	0.87338 0.30658 0.06046 -0.00400
H 	H 	0.91832 0.23078 0.04843 0.05900
H 	H 	0.98046 0.06651 0.11869 0.04100
H 	H 	0.73481 0.01306 0.90967 0.03500
H 	H 	0.90064 0.34533 0.02550 0.04300
H 	H 	0.84103 0.11421 0.87635 0.03500
C 	C 	0.22341 0.13611 0.93081 -0.06000
C 	C 	0.25810 0.12380 0.96442 0.00700
C 	C 	0.22677 0.08143 0.99806 0.00200
C 	C 	0.16128 0.05166 0.99761 -0.03500
C 	C 	0.12626 0.06336 0.96370 -0.02900
C 	C 	0.15758 0.10581 0.92999 0.03000
C 	C 	0.32771 0.15683 0.96530 0.01500
S 	S 	0.26887 0.06464 0.04043 -0.00900
H 	H 	0.13731 0.01895 0.02347 0.05200
S 	S 	0.11466 0.11975 0.88549 -0.03600
H 	H 	0.24753 0.16881 0.90499 0.05300
C 	C 	0.34949 0.12962 0.93400 -0.00500
C 	C 	0.41554 0.15805 0.93968 0.00400
C 	C 	0.46015 0.21344 0.97635 -0.09000
C 	C 	0.43827 0.24099 0.00728 0.07300
C 	C 	0.37241 0.21308 0.00098 -0.06700
S 	S 	0.29453 0.05958 0.88816 -0.02400
H 	H 	0.43217 0.13684 0.91582 0.04400
S 	S 	0.49223 0.30797 0.05622 -0.06600
H 	H 	0.35565 0.23383 0.02524 0.06100
H 	H 	0.11449 0.16833 0.90815 0.04100
H 	H 	0.28301 0.07485 0.84275 0.04300
H 	H 	0.49898 0.28856 0.10073 0.07300
H 	H 	0.26726 0.01577 0.01570 0.04500
