data_crystal

_cell_length_a 14.73323
_cell_length_b 15.55522
_cell_length_c 34.30573
_cell_angle_alpha 95.40498
_cell_angle_beta  95.40546
_cell_angle_gamma 126.69950

_symmetry_space_group_name_	'P 1'
_symmetry_space_group_name_H-M	'P 1'

loop_
_symmetry_equiv_pos_as_xyz
  x,y,z

loop_
_atom_site_label
_atom_site_type_symbol
_atom_site_fract_x
_atom_site_fract_y
_atom_site_fract_z
_atom_site_charge
C 	C 	0.99948 0.96293 0.98386 0.11700
N 	N 	0.06650 0.95855 0.48616 -0.13400
C 	C 	0.12507 0.06836 0.49295 0.11600
N 	N 	0.06744 0.11037 0.49839 -0.13700
C 	C 	0.12560 0.03074 0.98867 -0.01200
H 	H 	0.13569 0.12460 0.94638 0.07900
H 	H 	0.17087 0.00997 0.00747 0.04600
N 	N 	0.94510 0.00910 0.98258 -0.14200
N 	N 	0.93765 0.85393 0.98208 -0.14100
C 	C 	0.25164 0.14218 0.49600 -0.02300
H 	H 	0.29588 0.22952 0.49944 0.04700
C 	C 	0.82853 0.94581 0.97923 0.11700
C 	C 	0.82117 0.78984 0.97801 0.11900
N 	N 	0.76671 0.83608 0.97705 -0.14100
C 	C 	0.95171 0.04232 0.49759 0.10800
N 	N 	0.89474 0.93281 0.49214 -0.13800
C 	C 	0.95215 0.89092 0.48641 0.11400
Cu	Cu	0.71796 0.30079 0.95525 0.92800
Cu	Cu	0.71861 0.22904 0.04262 0.86900
Cu	Cu	0.53273 0.23908 0.00474 0.89500
Cu	Cu	0.50208 0.28966 0.92312 0.89500
C 	C 	0.66301 0.29696 0.87289 0.29000
O 	O 	0.78943 0.45938 0.95431 -0.37300
C 	C 	0.61465 0.29335 0.09154 0.28500
O 	O 	0.53841 0.21074 0.94994 -0.63800
O 	O 	0.70296 0.31832 0.01140 -0.64500
O 	O 	0.80273 0.23781 0.95987 -0.37500
O 	O 	0.69199 0.12315 0.00039 -0.44600
O 	O 	0.56645 0.28484 0.87455 -0.37900
O 	O 	0.36697 0.15498 0.99457 -0.38200
C 	C 	0.30656 0.16542 0.96709 0.30500
C 	C 	0.73785 0.50205 0.96344 0.29900
O 	O 	0.62891 0.43861 0.96649 -0.39100
O 	O 	0.35650 0.23633 0.94311 -0.39400
O 	O 	0.70266 0.26456 0.89910 -0.36400
C 	C 	0.76496 0.15117 0.97591 0.30900
O 	O 	0.52512 0.23980 0.06180 -0.39000
O 	O 	0.70743 0.30038 0.08854 -0.41400
H 	H 	0.49093 0.13211 0.93811 0.16700
H 	H 	0.74790 0.39525 0.02513 0.16900
Cu	Cu	0.66712 0.22506 0.51208 0.92700
Cu	Cu	0.73888 0.23602 0.42352 0.87100
Cu	Cu	0.69889 0.38938 0.46110 0.89800
Cu	Cu	0.64388 0.40765 0.54256 0.89500
C 	C 	0.71611 0.31057 0.59579 0.28600
O 	O 	0.49764 0.14228 0.51521 -0.36500
C 	C 	0.64605 0.31251 0.37371 0.28600
O 	O 	0.74031 0.39129 0.51596 -0.63900
O 	O 	0.63630 0.23289 0.45558 -0.64100
O 	O 	0.75369 0.16431 0.50605 -0.37300
O 	O 	0.86046 0.27935 0.46516 -0.44500
O 	O 	0.64898 0.33931 0.58828 -0.38300
O 	O 	0.76809 0.54312 0.47024 -0.38500
C 	C 	0.75546 0.59495 0.49947 0.30500
C 	C 	0.43956 0.17736 0.50325 0.29800
O 	O 	0.49481 0.27879 0.49845 -0.39400
O 	O 	0.68489 0.54259 0.52416 -0.39800
O 	O 	0.71792 0.24639 0.56825 -0.35600
C 	C 	0.84457 0.21198 0.48886 0.30300
O 	O 	0.68835 0.39460 0.40359 -0.38600
O 	O 	0.64892 0.23092 0.37818 -0.41600
H 	H 	0.82369 0.44568 0.52719 0.16200
H 	H 	0.55424 0.18140 0.44234 0.17100
C 	C 	0.71924 0.36930 0.76803 0.00300
C 	C 	0.76724 0.42931 0.73809 -0.05700
C 	C 	0.78539 0.38179 0.70599 0.01800
C 	C 	0.76443 0.28092 0.70597 -0.00300
C 	C 	0.71796 0.22177 0.73639 -0.05200
C 	C 	0.70001 0.26966 0.76840 0.01500
S 	S 	0.73022 0.42172 0.81426 0.01600
C 	C 	0.70980 0.32112 0.83619 -0.06900
C 	C 	0.69252 0.24119 0.80668 -0.01900
S 	S 	0.74310 0.22519 0.65898 0.03200
C 	C 	0.76612 0.32732 0.63747 -0.07400
C 	C 	0.78692 0.40821 0.66748 -0.02300
H 	H 	0.78479 0.50777 0.73876 0.04500
H 	H 	0.69912 0.14275 0.73562 0.04600
H 	H 	0.67428 0.16551 0.81246 0.04400
H 	H 	0.78515 0.47419 0.66117 0.03500
C 	C 	0.55919 0.26026 0.25888 -0.00000
C 	C 	0.49493 0.22712 0.22040 -0.05700
C 	C 	0.54670 0.29556 0.19272 0.01300
C 	C 	0.65615 0.39759 0.20467 0.00100
C 	C 	0.71903 0.43124 0.24350 -0.05800
C 	C 	0.66660 0.36282 0.27098 0.01400
S 	S 	0.50565 0.21579 0.29931 0.01100
C 	C 	0.61588 0.32272 0.33339 -0.07300
C 	C 	0.69956 0.39785 0.31292 -0.02400
S 	S 	0.71448 0.43442 0.16439 0.00900
C 	C 	0.60267 0.32891 0.13056 -0.07500
C 	C 	0.51625 0.25707 0.15090 -0.02100
H 	H 	0.41030 0.14881 0.21175 0.04300
H 	H 	0.80445 0.50869 0.25217 0.04300
H 	H 	0.78233 0.47258 0.32768 0.03700
H 	H 	0.44397 0.17389 0.13715 0.03900
C 	C 	0.89151 0.77261 0.48097 -0.02100
C 	C 	0.80682 0.71074 0.50091 -0.12900
H 	H 	0.92343 0.73756 0.46336 0.05000
H 	H 	0.77942 0.74738 0.52026 0.07900
C 	C 	0.92203 0.18111 0.49240 -0.14500
C 	C 	0.88723 0.08620 0.50308 -0.01800
H 	H 	0.00351 0.23114 0.48226 0.08100
H 	H 	0.80415 0.03472 0.51209 0.05100
C 	C 	0.31263 0.10326 0.49648 -0.13000
H 	H 	0.26897 0.01629 0.49414 0.07800
C 	C 	0.80517 0.62181 0.97262 -0.13100
C 	C 	0.75322 0.66972 0.97309 -0.02400
H 	H 	0.89851 0.67147 0.97694 0.07900
H 	H 	0.65979 0.61985 0.96847 0.04800
C 	C 	0.76986 0.99665 0.98101 -0.01900
C 	C 	0.81590 0.09388 0.97009 -0.14100
H 	H 	0.68808 0.95393 0.99119 0.04600
H 	H 	0.89296 0.13243 0.95704 0.08100
C 	C 	0.18236 0.10753 0.96648 -0.13000
