data_crystal

_cell_length_a 18.50787
_cell_length_b 18.83246
_cell_length_c 34.77801
_cell_angle_alpha 95.44210
_cell_angle_beta  95.44239
_cell_angle_gamma 126.40815

_symmetry_space_group_name_	'P 1'
_symmetry_space_group_name_H-M	'P 1'

loop_
_symmetry_equiv_pos_as_xyz
  x,y,z

loop_
_atom_site_label
_atom_site_type_symbol
_atom_site_fract_x
_atom_site_fract_y
_atom_site_fract_z
_atom_site_charge
C 	C 	0.87895 0.96923 0.96643 0.05100
C 	C 	0.83543 0.87694 0.96480 -0.06700
C 	C 	0.88706 0.84439 0.96464 0.05600
C 	C 	0.98089 0.90356 0.96448 -0.04600
C 	C 	0.02431 0.99547 0.96636 0.03000
C 	C 	0.97371 0.02841 0.96861 -0.04000
H 	H 	0.76232 0.83104 0.96372 0.06100
H 	H 	0.02024 0.87815 0.96323 0.05500
H 	H 	0.00787 0.09999 0.97173 0.05100
C 	C 	0.97703 0.05658 0.49881 0.09100
C 	C 	0.91503 0.96449 0.49905 -0.09800
C 	C 	0.94409 0.91072 0.49720 0.09300
C 	C 	0.03486 0.94860 0.49470 -0.10300
C 	C 	0.09765 0.04077 0.49523 0.08400
C 	C 	0.06876 0.09497 0.49727 -0.10600
H 	H 	0.84432 0.93474 0.50051 0.07300
H 	H 	0.05692 0.90655 0.49282 0.07900
H 	H 	0.11725 0.16640 0.49772 0.06800
Cu	Cu	0.72435 0.30888 0.95825 0.93400
Cu	Cu	0.66813 0.21180 0.03457 0.87300
Cu	Cu	0.58737 0.28982 0.00530 0.89900
Cu	Cu	0.56301 0.31356 0.92223 0.91200
C 	C 	0.67496 0.29016 0.87505 0.33500
O 	O 	0.78210 0.44204 0.95906 -0.33700
C 	C 	0.63271 0.31156 0.08993 0.33000
O 	O 	0.58362 0.24593 0.95156 -0.63300
O 	O 	0.70999 0.31944 0.01327 -0.64500
O 	O 	0.77928 0.24486 0.96421 -0.34600
O 	O 	0.65980 0.13859 0.99009 -0.42000
O 	O 	0.64420 0.33616 0.88361 -0.35500
O 	O 	0.47039 0.26944 0.99733 -0.35700
C 	C 	0.40993 0.22742 0.96417 0.31200
C 	C 	0.74110 0.47775 0.96909 0.30000
O 	O 	0.65348 0.42537 0.97029 -0.38800
O 	O 	0.43529 0.24614 0.93009 -0.37100
O 	O 	0.71580 0.27611 0.90306 -0.33700
C 	C 	0.73199 0.16556 0.97447 0.31400
O 	O 	0.60443 0.33450 0.06063 -0.35600
O 	O 	0.65206 0.25452 0.08365 -0.39100
H 	H 	0.54000 0.17984 0.94307 0.17800
H 	H 	0.75780 0.37750 0.03107 0.19300
Cu	Cu	0.65029 0.22677 0.50657 0.93400
Cu	Cu	0.74117 0.26937 0.42794 0.87600
Cu	Cu	0.66908 0.35930 0.45761 0.90200
Cu	Cu	0.63214 0.37684 0.53767 0.90800
C 	C 	0.66652 0.27833 0.58899 0.33300
O 	O 	0.51433 0.16287 0.50564 -0.34600
C 	C 	0.66010 0.32163 0.37292 0.32800
O 	O 	0.70989 0.36414 0.51171 -0.63800
O 	O 	0.63623 0.23708 0.45108 -0.64100
O 	O 	0.71668 0.17447 0.50209 -0.34300
O 	O 	0.82090 0.28627 0.47269 -0.42600
O 	O 	0.61617 0.30427 0.57905 -0.36300
O 	O 	0.70873 0.48154 0.46406 -0.36500
C 	C 	0.72412 0.53286 0.49725 0.31000
C 	C 	0.47304 0.19593 0.49215 0.30400
O 	O 	0.52180 0.28102 0.48942 -0.38600
O 	O 	0.68357 0.49837 0.52694 -0.36100
O 	O 	0.68502 0.24023 0.56200 -0.33900
C 	C 	0.79637 0.21963 0.49110 0.31300
O 	O 	0.63442 0.34884 0.40140 -0.35300
O 	O 	0.68826 0.27248 0.37831 -0.38900
H 	H 	0.77632 0.40984 0.52182 0.17700
H 	H 	0.57586 0.19008 0.43416 0.19300
C 	C 	0.68740 0.27676 0.63086 -0.11500
C 	C 	0.72968 0.35561 0.65923 0.12200
C 	C 	0.73014 0.35081 0.69933 0.06600
C 	C 	0.69821 0.26918 0.71155 0.01800
C 	C 	0.66780 0.19330 0.68358 0.06700
C 	C 	0.65685 0.19522 0.64316 0.12600
C 	C 	0.69021 0.26143 0.75327 0.01800
C 	C 	0.76862 0.29752 0.78187 0.06700
C 	C 	0.76457 0.30679 0.82210 0.12900
C 	C 	0.67945 0.26996 0.83364 -0.11300
C 	C 	0.59922 0.22281 0.80475 0.12400
C 	C 	0.60511 0.22307 0.76476 0.06700
Br	Br	0.64021 0.08665 0.70074 -0.14400
Br	Br	0.78926 0.47046 0.64311 -0.20300
Br	Br	0.87631 0.37687 0.86080 -0.17000
Br	Br	0.49765 0.17535 0.72596 -0.15300
Br	Br	0.59231 0.08470 0.60525 -0.16000
Br	Br	0.76991 0.45463 0.73727 -0.14800
Br	Br	0.88146 0.33500 0.76580 -0.14500
Br	Br	0.48122 0.15643 0.82007 -0.20600
C 	C 	0.64184 0.33270 0.33253 -0.11400
C 	C 	0.68613 0.41945 0.32361 0.12200
C 	C 	0.67970 0.42982 0.28415 0.06800
C 	C 	0.63558 0.35441 0.25360 0.01700
C 	C 	0.58783 0.26757 0.26259 0.06500
C 	C 	0.58697 0.25676 0.30202 0.12700
C 	C 	0.64405 0.36652 0.21230 0.01800
C 	C 	0.57060 0.34978 0.18599 0.06700
C 	C 	0.56925 0.33957 0.14520 0.12500
C 	C 	0.64370 0.35032 0.13106 -0.11400
C 	C 	0.72371 0.38375 0.15797 0.12600
C 	C 	0.72237 0.38718 0.19841 0.06600
Br	Br	0.52737 0.16388 0.22098 -0.15800
Br	Br	0.75983 0.52409 0.36511 -0.18600
Br	Br	0.46574 0.31065 0.10916 -0.18400
Br	Br	0.82519 0.41437 0.23442 -0.15200
Br	Br	0.50677 0.13853 0.31432 -0.18300
Br	Br	0.73200 0.54705 0.27178 -0.14200
Br	Br	0.47108 0.33834 0.20591 -0.14700
Br	Br	0.83547 0.42701 0.13931 -0.19500
C 	C 	0.88004 0.81482 0.49867 -0.03300
C 	C 	0.88945 0.78405 0.53254 -0.09100
C 	C 	0.83770 0.69192 0.53248 0.18700
C 	C 	0.77450 0.62979 0.49853 -0.10600
C 	C 	0.76256 0.66085 0.46516 -0.03500
C 	C 	0.81500 0.75301 0.46516 0.14000
H 	H 	0.93909 0.83162 0.55852 0.08400
O 	O 	0.84962 0.66270 0.56547 -0.26900
H 	H 	0.71319 0.61350 0.43908 0.08700
O 	O 	0.80588 0.78244 0.43174 -0.25800
H 	H 	0.75803 0.79043 0.43415 0.15700
H 	H 	0.89858 0.65666 0.56237 0.15700
C 	C 	0.85335 0.18905 0.49527 -0.11900
C 	C 	0.89235 0.18305 0.46359 -0.03500
C 	C 	0.93790 0.14465 0.46547 0.13200
C 	C 	0.94490 0.11202 0.49929 -0.03000
C 	C 	0.91063 0.12282 0.53183 -0.09600
C 	C 	0.86510 0.16128 0.52997 0.19300
H 	H 	0.88433 0.20501 0.43689 0.04900
O 	O 	0.97010 0.13363 0.43327 -0.25800
H 	H 	0.91678 0.09880 0.55814 0.08200
O 	O 	0.82970 0.16906 0.56163 -0.26100
H 	H 	0.87894 0.22921 0.57769 0.16400
H 	H 	0.03361 0.18941 0.43660 0.14300
C 	C 	0.19405 0.08043 0.49436 -0.03400
C 	C 	0.23062 0.11332 0.46111 -0.09400
C 	C 	0.32025 0.14561 0.45897 0.18700
C 	C 	0.37423 0.14578 0.49043 -0.11100
C 	C 	0.33665 0.11050 0.52317 -0.04000
C 	C 	0.24753 0.07926 0.52552 0.13600
H 	H 	0.18937 0.11330 0.43680 0.07900
O 	O 	0.35594 0.17945 0.42665 -0.27800
H 	H 	0.37797 0.11100 0.54764 0.07900
O 	O 	0.21239 0.04679 0.55814 -0.27100
H 	H 	0.22769 0.09945 0.57650 0.15700
H 	H 	0.34203 0.12761 0.40816 0.16200
C 	C 	0.78660 0.57393 0.96940 -0.10300
C 	C 	0.78674 0.62604 0.00112 -0.04700
C 	C 	0.81515 0.71293 0.99902 0.14100
C 	C 	0.84372 0.74845 0.96492 -0.02300
C 	C 	0.84308 0.69611 0.93312 -0.09700
C 	C 	0.81559 0.60965 0.93537 0.18600
H 	H 	0.76360 0.59870 0.02725 0.07100
O 	O 	0.81850 0.76431 0.03091 -0.26600
H 	H 	0.86537 0.72311 0.90684 0.08300
O 	O 	0.81235 0.55839 0.90346 -0.27100
H 	H 	0.87347 0.57198 0.90714 0.17500
H 	H 	0.75745 0.75086 0.02721 0.15300
C 	C 	0.82597 0.00482 0.96566 -0.01900
C 	C 	0.82184 0.04373 0.93379 -0.10000
C 	C 	0.79130 0.09636 0.93639 0.19400
C 	C 	0.76277 0.10894 0.97081 -0.11200
C 	C 	0.76224 0.06596 0.00181 -0.04500
C 	C 	0.79361 0.01409 0.99933 0.13900
H 	H 	0.84570 0.03604 0.90757 0.08400
O 	O 	0.78666 0.13291 0.90481 -0.26900
H 	H 	0.73959 0.07455 0.02827 0.05100
O 	O 	0.79789 0.97720 0.03083 -0.27000
H 	H 	0.73831 0.91652 0.02631 0.15100
H 	H 	0.84772 0.19184 0.90817 0.17600
C 	C 	0.31172 0.17051 0.96571 -0.11500
C 	C 	0.25034 0.16865 0.93780 -0.02800
C 	C 	0.15648 0.11160 0.93775 0.12500
C 	C 	0.12340 0.05751 0.96654 -0.00700
C 	C 	0.18479 0.05987 0.99461 -0.10400
C 	C 	0.27825 0.11437 0.99375 0.20400
H 	H 	0.27524 0.21069 0.91577 0.07200
O 	O 	0.09684 0.10485 0.90821 -0.26600
H 	H 	0.15970 0.01769 0.01658 0.08000
O 	O 	0.33559 0.10753 0.01828 -0.30600
H 	H 	0.35362 0.14912 0.04318 0.18000
H 	H 	0.09346 0.15430 0.91704 0.15000
