data_crystal

_cell_length_a 13.36577
_cell_length_b 14.82399
_cell_length_c 42.09363
_cell_angle_alpha 90.37222
_cell_angle_beta  90.37584
_cell_angle_gamma 119.36663

_symmetry_space_group_name_	'P 1'
_symmetry_space_group_name_H-M	'P 1'

loop_
_symmetry_equiv_pos_as_xyz
  x,y,z

loop_
_atom_site_label
_atom_site_type_symbol
_atom_site_fract_x
_atom_site_fract_y
_atom_site_fract_z
_atom_site_charge
C 	C 	0.59598 0.39043 0.96514 0.30600
C 	C 	0.45927 0.31916 0.83368 0.32800
C 	C 	0.38939 0.15231 0.92182 0.32900
C 	C 	0.66499 0.58760 0.88269 0.32400
C 	C 	0.72281 0.23723 0.85325 0.34100
C 	C 	0.87637 0.42291 0.90460 0.28400
Ni	Ni	0.47971 0.37511 0.90269 1.12000
Ni	Ni	0.69936 0.41867 0.85660 1.12400
Ni	Ni	0.63482 0.26371 0.91557 1.12200
O 	O 	0.54754 0.43287 0.94760 -0.33900
O 	O 	0.58234 0.29832 0.95734 -0.37000
O 	O 	0.67465 0.28445 0.83908 -0.40200
O 	O 	0.40148 0.30427 0.86004 -0.35200
O 	O 	0.56145 0.40128 0.83070 -0.37300
O 	O 	0.79571 0.37105 0.92572 -0.37500
O 	O 	0.37501 0.23354 0.92508 -0.33600
O 	O 	0.47183 0.15969 0.90370 -0.38100
O 	O 	0.85491 0.45038 0.87606 -0.35000
O 	O 	0.55276 0.52286 0.88284 -0.35800
O 	O 	0.73481 0.56459 0.86677 -0.35400
O 	O 	0.69143 0.20084 0.88211 -0.38200
O 	O 	0.61643 0.36842 0.89491 -0.70800
H 	H 	0.66989 0.42847 0.90792 0.15100
C 	C 	0.71561 0.22731 0.73292 0.30800
C 	C 	0.73320 0.46828 0.62181 0.32300
C 	C 	0.76703 0.51102 0.72770 0.34200
C 	C 	0.68499 0.20458 0.62379 0.30500
C 	C 	0.44025 0.39647 0.67905 0.33000
C 	C 	0.35592 0.12540 0.69225 0.33300
Ni	Ni	0.77770 0.37136 0.67786 1.12400
Ni	Ni	0.52794 0.27981 0.64494 1.12600
Ni	Ni	0.55169 0.30955 0.72030 1.12100
O 	O 	0.78451 0.26554 0.70814 -0.35600
O 	O 	0.66271 0.27609 0.74523 -0.37000
O 	O 	0.50869 0.40073 0.65642 -0.39000
O 	O 	0.77877 0.48834 0.65050 -0.34500
O 	O 	0.65083 0.37507 0.61452 -0.37600
O 	O 	0.43405 0.15955 0.71547 -0.38900
O 	O 	0.82265 0.46370 0.71851 -0.36600
O 	O 	0.65473 0.46530 0.72499 -0.37500
O 	O 	0.37545 0.17224 0.66409 -0.37800
O 	O 	0.77355 0.28819 0.63692 -0.34500
O 	O 	0.57631 0.17636 0.63066 -0.35700
O 	O 	0.42938 0.34338 0.70502 -0.37600
O 	O 	0.61753 0.29680 0.68174 -0.72100
H 	H 	0.60384 0.22547 0.68373 0.16700
C 	C 	0.85954 0.80292 0.85961 0.33600
C 	C 	0.81192 0.04543 0.75494 0.34800
C 	C 	0.80783 0.74438 0.76784 0.33800
C 	C 	0.88981 0.11462 0.83675 0.32000
C 	C 	0.14233 0.98321 0.74750 0.34000
C 	C 	0.22856 0.08818 0.81430 0.30500
Ni	Ni	0.79111 0.90318 0.80794 1.12400
Ni	Ni	0.03178 0.08943 0.78251 1.10100
Ni	Ni	0.01999 0.87664 0.80529 1.10600
O 	O 	0.77971 0.78858 0.83843 -0.36000
O 	O 	0.96752 0.83866 0.85094 -0.33500
O 	O 	0.12000 0.06092 0.74840 -0.39200
O 	O 	0.75528 0.00138 0.78068 -0.37900
O 	O 	0.90755 0.04554 0.74885 -0.37300
O 	O 	0.17596 0.98804 0.82163 -0.37000
O 	O 	0.76301 0.80597 0.76929 -0.35500
O 	O 	0.87620 0.74547 0.79082 -0.35900
O 	O 	0.17042 0.13943 0.81145 -0.38100
O 	O 	0.83375 0.01427 0.84303 -0.37400
O 	O 	0.95275 0.15253 0.81031 -0.35400
O 	O 	0.07201 0.89362 0.76023 -0.40900
O 	O 	0.95303 0.96344 0.80467 -0.69300
H 	H 	0.97981 0.99143 0.82624 0.17300
C 	C 	0.42997 0.59703 0.48421 0.31300
C 	C 	0.55431 0.70410 0.35678 0.32800
C 	C 	0.65756 0.82632 0.43897 0.30500
C 	C 	0.32543 0.44157 0.37402 0.31600
C 	C 	0.34750 0.84492 0.39084 0.35000
C 	C 	0.16508 0.63161 0.43377 0.31600
Ni	Ni	0.51075 0.60074 0.41859 1.12000
Ni	Ni	0.31824 0.63970 0.37807 1.11900
Ni	Ni	0.41371 0.75275 0.44460 1.12400
O 	O 	0.45089 0.54119 0.46359 -0.33200
O 	O 	0.47274 0.69667 0.47944 -0.38000
O 	O 	0.37400 0.79101 0.37134 -0.39100
O 	O 	0.58544 0.65116 0.37509 -0.37300
O 	O 	0.44623 0.66288 0.34739 -0.37700
O 	O 	0.24980 0.65551 0.45452 -0.38700
O 	O 	0.64624 0.73260 0.44012 -0.34800
O 	O 	0.57338 0.83862 0.42770 -0.36500
O 	O 	0.17524 0.62007 0.40234 -0.36700
O 	O 	0.40212 0.45843 0.39678 -0.35400
O 	O 	0.25805 0.48409 0.37561 -0.36900
O 	O 	0.35804 0.83941 0.42164 -0.38800
O 	O 	0.39999 0.64651 0.41583 -0.70700
H 	H 	0.33811 0.58400 0.42567 0.15600
C 	C 	0.20862 0.65694 0.23127 0.31000
C 	C 	0.25038 0.55221 0.10034 0.32000
C 	C 	0.14909 0.39629 0.19425 0.35200
C 	C 	0.28242 0.79755 0.12786 0.31300
C 	C 	0.52909 0.57775 0.15773 0.32100
C 	C 	0.58368 0.78125 0.19991 0.32100
Ni	Ni	0.16569 0.58723 0.16289 1.11600
Ni	Ni	0.43401 0.71309 0.14113 1.13100
Ni	Ni	0.36964 0.58490 0.20623 1.12100
O 	O 	0.15455 0.65758 0.20470 -0.35500
O 	O 	0.24792 0.59034 0.23494 -0.37400
O 	O 	0.47494 0.60098 0.13598 -0.38300
O 	O 	0.17233 0.50674 0.12251 -0.34500
O 	O 	0.32642 0.65037 0.10346 -0.37400
O 	O 	0.49674 0.72591 0.21925 -0.38500
O 	O 	0.09740 0.45126 0.18969 -0.37300
O 	O 	0.26047 0.43882 0.19121 -0.37300
O 	O 	0.56599 0.80414 0.17073 -0.37100
O 	O 	0.18485 0.71205 0.13454 -0.35100
O 	O 	0.37927 0.81791 0.14211 -0.35500
O 	O 	0.49513 0.56242 0.18752 -0.37000
O 	O 	0.32461 0.64465 0.17301 -0.71100
H 	H 	0.33892 0.70793 0.18450 0.15600
C 	C 	0.20531 0.88022 0.26132 0.31400
C 	C 	0.14626 0.21314 0.32399 0.33600
C 	C 	0.24719 0.95975 0.33207 0.35100
C 	C 	0.12896 0.17476 0.23298 0.32200
C 	C 	0.84473 0.89546 0.33567 0.34900
C 	C 	0.82527 0.84575 0.25362 0.31900
Ni	Ni	0.22450 0.09036 0.28215 1.11000
Ni	Ni	0.96129 0.04855 0.28453 1.12300
Ni	Ni	0.01126 0.86365 0.30118 1.11300
O 	O 	0.26072 0.98336 0.25932 -0.35900
O 	O 	0.09329 0.82642 0.26734 -0.37600
O 	O 	0.83176 0.94741 0.31238 -0.36700
O 	O 	0.22206 0.21828 0.30292 -0.37000
O 	O 	0.03981 0.13589 0.32356 -0.39200
O 	O 	0.86113 0.80057 0.27504 -0.36400
O 	O 	0.27171 0.05427 0.32490 -0.40300
O 	O 	0.13958 0.88479 0.33231 -0.37900
O 	O 	0.87958 0.94772 0.24910 -0.36500
O 	O 	0.20252 0.14108 0.23819 -0.37300
O 	O 	0.05848 0.17144 0.25558 -0.39000
O 	O 	0.94030 0.89247 0.33879 -0.36800
O 	O 	0.06758 0.99655 0.28330 -0.71200
H 	H 	0.06065 0.97550 0.26077 0.15400
C 	C 	0.08806 0.29750 0.20366 -0.14100
C 	C 	0.14313 0.23180 0.20699 -0.10300
H 	H 	0.99727 0.26486 0.20875 0.11700
H 	H 	0.20530 0.23824 0.18934 0.10900
C 	C 	0.72650 0.78676 0.23800 -0.10300
C 	C 	0.69108 0.82935 0.21127 -0.11200
H 	H 	0.67511 0.70527 0.24381 0.08600
H 	H 	0.75754 0.89122 0.19743 0.10500
C 	C 	0.21689 0.71943 0.25544 -0.10600
C 	C 	0.25754 0.83027 0.24925 -0.10900
H 	H 	0.22721 0.69829 0.27942 0.07500
H 	H 	0.33980 0.87472 0.23763 0.08900
C 	C 	0.63533 0.79238 0.34393 -0.10900
C 	C 	0.75733 0.83842 0.35488 -0.10800
H 	H 	0.61159 0.83139 0.32609 0.09800
H 	H 	0.77580 0.81035 0.37674 0.10100
C 	C 	0.17486 0.29147 0.34468 -0.11700
C 	C 	0.29623 0.36058 0.35437 -0.09800
H 	H 	0.10725 0.29471 0.35804 0.10100
H 	H 	0.35785 0.33380 0.35054 0.08800
C 	C 	0.30196 0.90159 0.37979 -0.11400
C 	C 	0.32647 0.94612 0.34758 -0.11500
H 	H 	0.25945 0.92812 0.39634 0.09900
H 	H 	0.41595 0.99323 0.34105 0.09400
C 	C 	0.77856 0.06987 0.48437 -0.05000
C 	C 	0.78734 0.03166 0.51406 -0.00700
C 	C 	0.79854 0.94217 0.51540 0.10100
C 	C 	0.77708 0.88090 0.48803 -0.01900
C 	C 	0.74391 0.90874 0.45966 -0.05200
C 	C 	0.76218 0.01044 0.45685 0.08800
C 	C 	0.76549 0.07469 0.54326 0.04400
N 	N 	0.82527 0.91063 0.54487 -0.01900
H 	H 	0.77559 0.80744 0.48957 0.09600
N 	N 	0.75638 0.05041 0.42637 -0.01700
H 	H 	0.77846 0.14278 0.48288 0.08800
C 	C 	0.83389 0.18025 0.55116 0.06100
C 	C 	0.80201 0.22246 0.57631 0.00400
C 	C 	0.70879 0.15875 0.59566 -0.08100
C 	C 	0.64278 0.05241 0.58845 0.12100
C 	C 	0.66970 0.01143 0.56190 -0.09700
N 	N 	0.93701 0.24441 0.53406 0.00100
H 	H 	0.85111 0.30491 0.58117 0.08600
N 	N 	0.54978 0.98548 0.60829 -0.01700
H 	H 	0.61593 0.93035 0.55569 0.10400
O 	O 	0.70323 0.10353 0.42303 -0.08900
O 	O 	0.80599 0.03518 0.40203 -0.09000
O 	O 	0.75662 0.81933 0.55606 -0.07400
O 	O 	0.91616 0.97462 0.56109 -0.04200
O 	O 	0.44786 0.97365 0.60333 -0.06500
O 	O 	0.56529 0.93118 0.62992 -0.07000
O 	O 	0.95998 0.33663 0.52539 -0.08000
O 	O 	0.01341 0.21515 0.53019 -0.09300
C 	C 	0.95624 0.59259 0.55981 -0.01400
C 	C 	0.88675 0.58849 0.53408 0.00200
C 	C 	0.77434 0.57004 0.53968 0.07600
C 	C 	0.72980 0.54696 0.57048 -0.00100
C 	C 	0.79465 0.53820 0.59545 -0.07700
C 	C 	0.91118 0.56943 0.59052 0.11600
C 	C 	0.93113 0.60012 0.50135 0.08200
N 	N 	0.70555 0.57568 0.51433 -0.01500
H 	H 	0.64125 0.52713 0.57441 0.06800
N 	N 	0.98228 0.57233 0.61640 -0.00200
H 	H 	0.04427 0.61094 0.55584 0.05900
C 	C 	0.00496 0.69902 0.48907 0.01000
C 	C 	0.06120 0.70753 0.46033 0.01800
C 	C 	0.05733 0.61979 0.44630 -0.13100
C 	C 	0.97198 0.52115 0.45593 0.16800
C 	C 	0.91004 0.51160 0.48372 -0.09600
N 	N 	0.03302 0.79044 0.50736 -0.02600
H 	H 	0.12162 0.78370 0.45164 0.05600
N 	N 	0.95376 0.43031 0.43880 -0.02900
H 	H 	0.84906 0.43545 0.49227 0.09800
O 	O 	0.98961 0.49034 0.62325 -0.08500
O 	O 	0.02943 0.65290 0.63518 -0.10300
O 	O 	0.68510 0.51853 0.48894 -0.09200
O 	O 	0.65160 0.62771 0.51838 -0.08500
O 	O 	0.94210 0.34972 0.45405 -0.07000
O 	O 	0.94542 0.42707 0.40795 -0.07200
O 	O 	0.13988 0.86009 0.51208 -0.08600
O 	O 	0.95196 0.80518 0.51873 -0.05400
C 	C 	0.39455 0.57067 0.63472 -0.07300
C 	C 	0.31122 0.49482 0.61451 0.03400
C 	C 	0.23419 0.39717 0.62723 0.05000
C 	C 	0.25891 0.36980 0.65698 -0.00600
C 	C 	0.36266 0.43714 0.67238 -0.09800
C 	C 	0.41400 0.54271 0.66497 0.12800
C 	C 	0.32077 0.50980 0.57959 0.02800
N 	N 	0.13489 0.32482 0.60943 -0.01600
H 	H 	0.20805 0.29119 0.66532 0.06000
N 	N 	0.49888 0.61887 0.68588 -0.02500
H 	H 	0.44849 0.64866 0.62628 0.09900
C 	C 	0.31455 0.59308 0.56547 0.05900
C 	C 	0.33444 0.61060 0.53292 -0.00000
C 	C 	0.37200 0.55323 0.51477 -0.08200
C 	C 	0.36883 0.46475 0.52817 0.13000
C 	C 	0.34520 0.44470 0.56060 -0.06800
N 	N 	0.29726 0.66496 0.58443 -0.01900
H 	H 	0.32792 0.67377 0.52214 0.06000
N 	N 	0.38187 0.39168 0.50876 -0.01900
H 	H 	0.34720 0.37904 0.57112 0.08000
O 	O 	0.48390 0.61080 0.71646 -0.09300
O 	O 	0.59075 0.69654 0.67444 -0.08000
O 	O 	0.10501 0.22703 0.60888 -0.09700
O 	O 	0.07348 0.35658 0.59407 -0.09100
O 	O 	0.30622 0.34031 0.48664 -0.07200
O 	O 	0.45779 0.36466 0.51647 -0.08200
O 	O 	0.35605 0.76359 0.57881 -0.08100
O 	O 	0.21946 0.63183 0.60629 -0.07800
C 	C 	0.77658 0.09576 0.73575 -0.12400
C 	C 	0.71132 0.14615 0.74809 -0.10100
H 	H 	0.81315 0.11532 0.71212 0.10700
H 	H 	0.66190 0.11844 0.76974 0.08800
C 	C 	0.24960 0.04911 0.69816 -0.11800
C 	C 	0.22221 0.98751 0.72753 -0.10000
H 	H 	0.18213 0.02886 0.68045 0.09500
H 	H 	0.24948 0.92966 0.72928 0.08800
C 	C 	0.82533 0.60563 0.74076 -0.10900
C 	C 	0.77082 0.67083 0.74528 -0.10400
H 	H 	0.91658 0.63837 0.74583 0.10100
H 	H 	0.70445 0.66306 0.72867 0.11700
C 	C 	0.09423 0.56009 0.96384 -0.04500
C 	C 	0.11288 0.47797 0.97222 0.00600
C 	C 	0.09004 0.39917 0.94972 0.08200
C 	C 	0.03575 0.39699 0.92088 -0.07700
C 	C 	0.99475 0.46666 0.91587 0.01300
C 	C 	0.03936 0.55668 0.93497 0.05700
C 	C 	0.16060 0.47762 0.00401 0.03400
N 	N 	0.11667 0.31885 0.95666 -0.02100
H 	H 	0.01086 0.33243 0.90457 0.06200
N 	N 	0.01633 0.63873 0.92704 -0.03500
H 	H 	0.12012 0.62527 0.97999 0.07300
C 	C 	0.27288 0.55424 0.01237 0.06200
C 	C 	0.30989 0.56368 0.04401 0.00200
C 	C 	0.23216 0.50580 0.06789 -0.08200
C 	C 	0.12819 0.41764 0.05890 0.12900
C 	C 	0.09054 0.40625 0.02700 -0.07300
N 	N 	0.34818 0.62492 0.98902 -0.01200
H 	H 	0.39720 0.62044 0.05030 0.08000
N 	N 	0.07064 0.33348 0.08056 -0.03500
H 	H 	0.00749 0.34235 0.02012 0.08500
O 	O 	0.02678 0.67043 0.89788 -0.10600
O 	O 	0.98644 0.68274 0.94901 -0.06200
O 	O 	0.03587 0.22257 0.95601 -0.09300
O 	O 	0.22271 0.34134 0.96136 -0.07900
O 	O 	0.13026 0.30792 0.09932 -0.07100
O 	O 	0.95974 0.27511 0.07893 -0.03900
O 	O 	0.41548 0.72164 0.99655 -0.08300
O 	O 	0.35480 0.59134 0.96089 -0.07900
C 	C 	0.21126 0.97066 0.98694 -0.05600
C 	C 	0.29992 0.98649 0.00838 0.04700
C 	C 	0.41486 0.05040 0.99942 0.03800
C 	C 	0.43936 0.08038 0.96796 0.01500
C 	C 	0.35393 0.07840 0.94815 -0.09800
C 	C 	0.23797 0.02115 0.95739 0.11900
C 	C 	0.27522 0.92191 0.03714 0.02500
N 	N 	0.50616 0.08692 0.02252 -0.01500
H 	H 	0.52705 0.11441 0.95984 0.02900
N 	N 	0.14750 0.00976 0.93640 -0.03000
H 	H 	0.12258 0.91823 0.99283 0.09200
C 	C 	0.20785 0.92775 0.06196 0.06700
C 	C 	0.20923 0.88618 0.09183 0.00600
C 	C 	0.28854 0.85195 0.09813 -0.08300
C 	C 	0.36351 0.85704 0.07395 0.13100
C 	C 	0.34115 0.87365 0.04284 -0.06800
N 	N 	0.14495 0.98177 0.05767 -0.01000
H 	H 	0.15255 0.88474 0.11035 0.07300
N 	N 	0.47296 0.86666 0.08169 -0.03200
H 	H 	0.39202 0.86779 0.02387 0.09800
O 	O 	0.06054 0.01608 0.94752 -0.08900
O 	O 	0.14805 0.98590 0.90662 -0.07900
O 	O 	0.59953 0.08356 0.01634 -0.08400
O 	O 	0.49815 0.12821 0.04908 -0.07900
O 	O 	0.50931 0.81303 0.06582 -0.09500
O 	O 	0.54472 0.94321 0.09968 -0.07000
O 	O 	0.03537 0.93062 0.05154 -0.07900
O 	O 	0.19701 0.08214 0.06028 -0.08300
C 	C 	0.62059 0.42115 0.11120 -0.07700
C 	C 	0.71147 0.50328 0.09542 0.03400
C 	C 	0.77005 0.60062 0.11084 0.05600
C 	C 	0.71870 0.62095 0.13688 -0.00500
C 	C 	0.61049 0.54493 0.14709 -0.09200
C 	C 	0.56864 0.44184 0.13694 0.12900
C 	C 	0.71456 0.49753 0.06041 0.02900
N 	N 	0.87469 0.68175 0.09807 -0.01700
H 	H 	0.75659 0.69862 0.14679 0.06300
N 	N 	0.46639 0.36001 0.15037 -0.02400
H 	H 	0.58129 0.34371 0.10106 0.09600
C 	C 	0.74140 0.42691 0.04550 0.06600
C 	C 	0.70886 0.39778 0.01369 -0.00300
C 	C 	0.64472 0.43474 0.99706 -0.07400
C 	C 	0.62404 0.51014 0.01170 0.12400
C 	C 	0.66465 0.54478 0.04252 -0.06700
N 	N 	0.79656 0.38078 0.06301 -0.01900
H 	H 	0.73013 0.34364 0.00230 0.07400
N 	N 	0.54826 0.54029 0.99738 -0.02200
H 	H 	0.64473 0.59986 0.05389 0.08700
O 	O 	0.45873 0.34721 0.18098 -0.08900
O 	O 	0.38196 0.29683 0.13198 -0.08000
O 	O 	0.89549 0.77714 0.09907 -0.07100
O 	O 	0.95094 0.66074 0.08640 -0.07200
O 	O 	0.43825 0.47706 0.99747 -0.07100
O 	O 	0.58798 0.63406 0.98703 -0.06900
O 	O 	0.75320 0.28076 0.06279 -0.06500
O 	O 	0.89025 0.43869 0.07912 -0.07400
C 	C 	0.80521 0.22691 0.83835 -0.12700
C 	C 	0.86357 0.17560 0.85392 -0.09700
H 	H 	0.82834 0.25519 0.81425 0.09600
H 	H 	0.85160 0.16139 0.87929 0.09600
C 	C 	0.34371 0.14063 0.81576 -0.10700
C 	C 	0.41164 0.25285 0.80934 -0.10400
H 	H 	0.38985 0.09889 0.82074 0.08600
H 	H 	0.44881 0.27590 0.78591 0.05500
C 	C 	0.70629 0.68371 0.89442 -0.09900
C 	C 	0.82732 0.76332 0.88864 -0.09800
H 	H 	0.65052 0.70476 0.90733 0.10000
H 	H 	0.89197 0.77760 0.90670 0.12300
