data_crystal

_cell_length_a 41.42217
_cell_length_b 43.56588
_cell_length_c 22.77890
_cell_angle_alpha 89.96103
_cell_angle_beta  89.93326
_cell_angle_gamma 89.84525

_symmetry_space_group_name_	'P 1'
_symmetry_space_group_name_H-M	'P 1'

loop_
_symmetry_equiv_pos_as_xyz
  x,y,z

loop_
_atom_site_label
_atom_site_type_symbol
_atom_site_fract_x
_atom_site_fract_y
_atom_site_fract_z
_atom_site_charge
C 	C 	0.50989 0.53593 0.98598 0.03300
C 	C 	0.52286 0.50928 0.01348 0.00700
C 	C 	0.48116 0.53395 0.95350 -0.05100
C 	C 	0.46509 0.50571 0.94844 0.02100
C 	C 	0.50736 0.48083 0.00681 -0.06200
C 	C 	0.47874 0.47881 0.97394 0.03000
H 	H 	0.51743 0.46049 0.02718 0.06200
H 	H 	0.47195 0.55396 0.93069 0.06400
C 	C 	0.46330 0.45041 0.96426 0.00300
C 	C 	0.43314 0.44872 0.93705 0.01400
C 	C 	0.41644 0.42093 0.94905 -0.04700
C 	C 	0.43360 0.40132 0.98680 0.02100
S 	S 	0.46846 0.41849 0.00362 -0.00500
H 	H 	0.39393 0.41459 0.92832 0.06300
C 	C 	0.43594 0.50319 0.91650 -0.01400
C 	C 	0.41909 0.47528 0.91350 0.01900
C 	C 	0.38536 0.47907 0.90364 -0.04500
C 	C 	0.37611 0.50990 0.89872 0.00400
S 	S 	0.40898 0.53141 0.90884 0.03900
H 	H 	0.36802 0.46070 0.90843 0.06000
C 	C 	0.55559 0.56600 0.02303 -0.00000
C 	C 	0.52751 0.56358 0.98919 -0.00200
S 	S 	0.51246 0.59881 0.97996 0.04400
C 	C 	0.54075 0.61802 0.01702 -0.00300
C 	C 	0.56344 0.59673 0.03792 -0.04200
C 	C 	0.55059 0.51242 0.04908 -0.01100
C 	C 	0.56718 0.54034 0.05321 0.01900
C 	C 	0.59975 0.53692 0.07168 -0.04600
C 	C 	0.60824 0.50623 0.08235 0.00400
S 	S 	0.57642 0.48438 0.06606 0.02200
H 	H 	0.61741 0.55513 0.06841 0.06600
H 	H 	0.58413 0.60304 0.06424 0.06600
C 	C 	0.42626 0.30331 0.98723 0.05200
C 	C 	0.43271 0.31915 0.03948 -0.01800
C 	C 	0.43423 0.35121 0.03954 -0.03600
C 	C 	0.42975 0.36767 0.98719 0.04300
C 	C 	0.42337 0.35174 0.93483 -0.02500
C 	C 	0.42164 0.31972 0.93493 -0.00600
H 	H 	0.43684 0.30660 0.07987 0.08100
H 	H 	0.43929 0.36324 0.08010 0.06500
H 	H 	0.42057 0.36408 0.89385 0.06200
H 	H 	0.41724 0.30762 0.89420 0.07800
C 	C 	0.27977 0.53977 0.93635 0.03400
C 	C 	0.28591 0.52083 0.88783 0.00000
C 	C 	0.31747 0.51148 0.87514 -0.02600
C 	C 	0.34308 0.52070 0.91129 0.03700
C 	C 	0.33679 0.53917 0.96057 -0.03200
C 	C 	0.30526 0.54861 0.97304 0.01900
H 	H 	0.26625 0.51341 0.85996 0.08000
H 	H 	0.32201 0.49697 0.83740 0.06700
H 	H 	0.35620 0.54576 0.98975 0.06800
H 	H 	0.30059 0.56270 0.01131 0.06200
C 	C 	0.70465 0.47130 0.07292 0.03500
C 	C 	0.68505 0.46442 0.12140 -0.00300
C 	C 	0.65365 0.47615 0.12468 -0.02600
C 	C 	0.64160 0.49475 0.07944 0.03500
C 	C 	0.66112 0.50141 0.03065 -0.04100
C 	C 	0.69246 0.48957 0.02728 -0.01500
H 	H 	0.69410 0.44988 0.15634 0.07900
H 	H 	0.63865 0.47069 0.16224 0.06700
H 	H 	0.65184 0.51534 0.99501 0.07700
H 	H 	0.70721 0.49442 0.98908 0.09300
C 	C 	0.56053 0.71299 0.98588 0.05300
C 	C 	0.53049 0.70396 0.00839 -0.02600
C 	C 	0.52420 0.67294 0.01901 -0.01200
C 	C 	0.54780 0.65070 0.00681 0.01100
C 	C 	0.57770 0.65972 0.98332 0.00200
C 	C 	0.58395 0.69074 0.97262 -0.01100
H 	H 	0.51208 0.72098 0.01773 0.07900
H 	H 	0.50099 0.66620 0.03673 0.06100
H 	H 	0.59588 0.64270 0.97260 0.06400
H 	H 	0.60697 0.69750 0.95416 0.08900
Zn	Zn	0.39987 0.11361 0.94889 1.22700
C 	C 	0.43198 0.17131 0.97145 0.34500
O 	O 	0.42093 0.09658 0.87839 -0.42800
O 	O 	0.45302 0.15538 0.00213 -0.39600
O 	O 	0.46754 0.12331 0.88947 -0.42500
C 	C 	0.42549 0.09400 0.05908 0.35200
O 	O 	0.40390 0.11178 0.03417 -0.45000
O 	O 	0.45201 0.08671 0.03081 -0.49900
C 	C 	0.44700 0.10889 0.85562 0.32200
O 	O 	0.36842 0.06860 0.95627 -0.25400
Zn	Zn	0.47071 0.11389 0.97242 1.19300
O 	O 	0.41073 0.15719 0.93823 -0.41100
C 	C 	0.34506 0.08557 0.93650 0.29000
O 	O 	0.35223 0.11404 0.92701 -0.34100
C 	C 	0.47461 0.00752 0.40899 0.02000
C 	C 	0.49729 0.98304 0.40573 0.01600
C 	C 	0.47767 0.02994 0.45299 -0.05100
C 	C 	0.50340 0.02849 0.49310 0.02100
C 	C 	0.52279 0.98141 0.44626 -0.05100
C 	C 	0.52610 0.00404 0.48974 0.01800
H 	H 	0.54006 0.96273 0.44381 0.06100
H 	H 	0.46028 0.04850 0.45573 0.06300
C 	C 	0.55195 0.00311 0.53016 -0.01000
C 	C 	0.55431 0.02469 0.57580 0.01600
C 	C 	0.57068 0.01303 0.62623 -0.04600
C 	C 	0.58060 0.98244 0.62026 0.01700
S 	S 	0.56912 0.97076 0.55387 0.02800
H 	H 	0.57073 0.02454 0.66826 0.05200
C 	C 	0.50789 0.05152 0.53580 -0.01500
C 	C 	0.53275 0.04964 0.57739 0.01900
C 	C 	0.52680 0.06787 0.62816 -0.05100
C 	C 	0.49691 0.08285 0.62681 0.01600
S 	S 	0.47855 0.07325 0.56430 0.03800
H 	H 	0.54187 0.06751 0.66688 0.05500
C 	C 	0.44764 0.98788 0.32073 0.01700
C 	C 	0.44929 0.00886 0.36749 -0.01400
S 	S 	0.43187 0.04136 0.34495 0.03800
C 	C 	0.42093 0.03027 0.27771 0.01400
C 	C 	0.43118 0.99986 0.27069 -0.05200
C 	C 	0.49356 0.96057 0.36167 -0.01200
C 	C 	0.46977 0.96337 0.31820 0.01500
C 	C 	0.47746 0.94691 0.26591 -0.04600
C 	C 	0.50746 0.93207 0.26827 0.01600
S 	S 	0.52367 0.93971 0.33354 0.02500
H 	H 	0.46374 0.94872 0.22571 0.05500
H 	H 	0.43095 0.98863 0.22840 0.05500
Zn	Zn	0.60791 0.89828 0.95150 1.22900
C 	C 	0.57171 0.84211 0.94063 0.33300
O 	O 	0.60326 0.92167 0.87769 -0.43000
O 	O 	0.54548 0.85741 0.95484 -0.40400
O 	O 	0.55782 0.89668 0.85044 -0.44200
C 	C 	0.56148 0.91194 0.04095 0.32700
O 	O 	0.58692 0.89528 0.02800 -0.43700
O 	O 	0.54344 0.92337 0.99898 -0.48600
C 	C 	0.58215 0.91453 0.83706 0.33900
O 	O 	0.63793 0.93969 0.98978 -0.30100
Zn	Zn	0.53679 0.90138 0.92576 1.18300
O 	O 	0.59784 0.85672 0.92362 -0.36800
C 	C 	0.66284 0.92195 0.98231 0.30200
O 	O 	0.65658 0.89477 0.96259 -0.29100
Zn	Zn	0.09605 0.60078 0.03050 1.22700
C 	C 	0.06293 0.65872 0.04184 0.33400
O 	O 	0.08866 0.57658 0.10235 -0.42400
O 	O 	0.03586 0.64530 0.02657 -0.43000
O 	O 	0.04478 0.60419 0.13027 -0.47800
C 	C 	0.05037 0.59019 0.93909 0.33600
O 	O 	0.07633 0.60565 0.95335 -0.38700
O 	O 	0.03112 0.57965 0.98010 -0.48900
C 	C 	0.06861 0.58561 0.14359 0.32700
O 	O 	0.12526 0.55905 0.99010 -0.23000
Zn	Zn	0.02468 0.60145 0.05367 1.17500
O 	O 	0.08746 0.64226 0.06061 -0.38700
C 	C 	0.15053 0.57560 0.00112 0.24500
O 	O 	0.14495 0.60230 0.02373 -0.30900
C 	C 	0.98798 0.51609 0.57629 0.01600
C 	C 	0.96599 0.49112 0.57454 0.02100
C 	C 	0.01289 0.51805 0.53453 -0.05000
C 	C 	0.01627 0.49528 0.49128 0.01800
C 	C 	0.96928 0.46842 0.53108 -0.05200
C 	C 	0.99438 0.47026 0.48963 0.02000
H 	H 	0.95252 0.44940 0.52968 0.06400
H 	H 	0.02962 0.53710 0.53580 0.06100
C 	C 	0.99882 0.44719 0.44691 -0.01400
C 	C 	0.02302 0.44945 0.40394 0.01600
C 	C 	0.01612 0.43194 0.35263 -0.05700
C 	C 	0.98650 0.41664 0.35543 0.01800
S 	S 	0.96932 0.42555 0.41939 0.03100
H 	H 	0.03012 0.43319 0.31263 0.05100
C 	C 	0.04156 0.49650 0.44974 -0.01300
C 	C 	0.04453 0.47439 0.40518 0.01600
C 	C 	0.06125 0.48551 0.35471 -0.04900
C 	C 	0.06981 0.51650 0.35873 0.01700
S 	S 	0.05744 0.52899 0.42420 0.03400
H 	H 	0.06293 0.47297 0.31389 0.05500
C 	C 	0.96048 0.53608 0.66385 0.01600
C 	C 	0.98401 0.53884 0.61983 -0.00900
S 	S 	0.01385 0.56026 0.64680 0.02000
C 	C 	0.99777 0.56826 0.71215 0.01900
C 	C 	0.96804 0.55312 0.71542 -0.04600
C 	C 	0.94099 0.48972 0.61670 -0.01700
C 	C 	0.93906 0.51111 0.66275 0.01900
C 	C 	0.92299 0.49941 0.71342 -0.05200
C 	C 	0.91315 0.46890 0.70734 0.01400
S 	S 	0.92425 0.45719 0.64050 0.04400
H 	H 	0.92254 0.51107 0.75529 0.05600
H 	H 	0.95454 0.55146 0.75593 0.05700
Zn	Zn	0.88547 0.38787 0.03615 1.22400
C 	C 	0.91432 0.32823 0.01589 0.32000
O 	O 	0.90652 0.40525 0.10617 -0.45100
O 	O 	0.93771 0.34204 0.98728 -0.36700
O 	O 	0.95112 0.37503 0.09892 -0.48600
C 	C 	0.91369 0.40457 0.92612 0.34800
O 	O 	0.89065 0.38849 0.95093 -0.39600
O 	O 	0.94041 0.41030 0.95489 -0.48500
C 	C 	0.93170 0.39210 0.13062 0.33900
O 	O 	0.85479 0.43336 0.02501 -0.30400
Zn	Zn	0.95661 0.38307 0.01585 1.17500
O 	O 	0.89462 0.34419 0.04938 -0.39800
C 	C 	0.83079 0.41684 0.04345 0.27700
O 	O 	0.83781 0.38884 0.05744 -0.29900
C 	C 	0.02330 0.96832 0.08057 0.01900
C 	C 	0.04004 0.99595 0.06735 0.02100
C 	C 	0.99074 0.96945 0.09786 -0.04800
C 	C 	0.97435 0.99771 0.09997 0.01900
C 	C 	0.02371 0.02423 0.06980 -0.05000
C 	C 	0.99083 0.02523 0.08498 0.02200
H 	H 	0.03674 0.04538 0.06211 0.06400
H 	H 	0.97863 0.94864 0.11170 0.06400
C 	C 	0.97403 0.05340 0.08872 -0.01000
C 	C 	0.94106 0.05456 0.10274 0.02000
C 	C 	0.92552 0.08176 0.08263 -0.04400
C 	C 	0.94629 0.10114 0.05135 0.00600
S 	S 	0.98292 0.08491 0.05038 0.02600
H 	H 	0.90078 0.08773 0.09296 0.06600
C 	C 	0.94198 0.99962 0.11930 -0.01000
C 	C 	0.92495 0.02752 0.11851 0.01900
C 	C 	0.89084 0.02367 0.11677 -0.04200
C 	C 	0.88160 0.99273 0.11638 0.00800
S 	S 	0.91504 0.97127 0.11544 0.02800
H 	H 	0.87392 0.04236 0.11071 0.06500
C 	C 	0.07261 0.93882 0.05959 0.01300
C 	C 	0.04037 0.94022 0.07861 -0.01200
S 	S 	0.02367 0.90609 0.06573 0.04000
C 	C 	0.05592 0.88864 0.03706 -0.00300
C 	C 	0.08157 0.90952 0.03720 -0.04400
C 	C 	0.07334 0.99431 0.05432 -0.01300
C 	C 	0.08922 0.96611 0.04779 0.02300
C 	C 	0.11811 0.96813 0.01419 -0.06800
C 	C 	0.12407 0.99789 0.99331 0.02800
S 	S 	0.09433 0.02062 0.01737 0.02500
H 	H 	0.13476 0.94921 0.00805 0.05800
H 	H 	0.10566 0.90373 0.02240 0.05400
C 	C 	0.92687 0.19712 0.02970 0.04100
C 	C 	0.90359 0.17536 0.01390 -0.02700
C 	C 	0.91018 0.14404 0.02005 -0.01400
C 	C 	0.94014 0.13421 0.04206 0.02800
C 	C 	0.96379 0.15609 0.05620 -0.01800
C 	C 	0.95730 0.18737 0.04922 -0.00700
H 	H 	0.88022 0.18273 0.99777 0.09900
H 	H 	0.89195 0.12741 0.00801 0.05800
H 	H 	0.98694 0.14897 0.07359 0.06600
H 	H 	0.97567 0.20406 0.06022 0.08100
C 	C 	0.78875 0.96128 0.06039 0.04200
C 	C 	0.80302 0.98663 0.03278 -0.02700
C 	C 	0.83348 0.99677 0.05045 -0.01600
C 	C 	0.84992 0.98162 0.09603 0.02800
C 	C 	0.83602 0.95567 0.12234 -0.01800
C 	C 	0.80568 0.94539 0.10423 -0.00600
H 	H 	0.79041 0.99857 0.99789 0.09200
H 	H 	0.84435 0.01622 0.02845 0.05500
H 	H 	0.84860 0.94363 0.15713 0.07000
H 	H 	0.79515 0.92531 0.12472 0.08700
C 	C 	0.21712 0.03619 0.95934 0.05000
C 	C 	0.19187 0.04061 0.91923 -0.00400
C 	C 	0.16161 0.02758 0.92985 -0.02100
C 	C 	0.15658 0.00952 0.98001 0.04100
C 	C 	0.18219 0.00430 0.01918 -0.03500
C 	C 	0.21240 0.01742 0.00862 -0.01900
H 	H 	0.19552 0.05462 0.88048 0.08300
H 	H 	0.14201 0.03171 0.89936 0.06800
H 	H 	0.17851 0.99060 0.05831 0.06200
H 	H 	0.23197 0.01346 0.03924 0.07500
C 	C 	0.06348 0.79083 0.04176 0.02700
C 	C 	0.08564 0.80878 0.07300 0.00100
C 	C 	0.08371 0.84081 0.07059 -0.02900
C 	C 	0.05986 0.85507 0.03619 0.03900
C 	C 	0.03840 0.83705 0.00348 -0.04100
C 	C 	0.04039 0.80506 0.00586 -0.01100
H 	H 	0.10389 0.79793 0.10004 0.07500
H 	H 	0.10027 0.85447 0.09635 0.06300
H 	H 	0.02004 0.84784 0.97658 0.08100
H 	H 	0.02366 0.79131 0.98058 0.09200
C 	C 	0.91178 0.27985 0.07284 0.08000
C 	C 	0.91329 0.29442 0.01797 -0.02800
C 	C 	0.91486 0.27650 0.96612 -0.05400
C 	C 	0.91971 0.24464 0.97092 0.02200
C 	C 	0.91935 0.23022 0.02597 0.06600
C 	C 	0.91312 0.24771 0.07715 -0.13100
C 	C 	0.90945 0.23239 0.13671 0.79000
H 	H 	0.91024 0.29367 0.11231 0.08100
H 	H 	0.92404 0.23101 0.93188 0.09200
C 	C 	0.91233 0.29116 0.90578 0.77300
F 	F 	0.89551 0.25211 0.17716 -0.42500
F 	F 	0.93945 0.22365 0.15741 -0.44300
F 	F 	0.88988 0.20680 0.13254 -0.43300
F 	F 	0.94180 0.30362 0.89030 -0.43500
F 	F 	0.88902 0.31399 0.90546 -0.41800
F 	F 	0.90377 0.26972 0.86379 -0.42200
C 	C 	0.90994 0.41598 0.86565 -0.10300
C 	C 	0.88413 0.43566 0.85087 0.17100
C 	C 	0.88484 0.45185 0.79760 -0.09600
C 	C 	0.91062 0.44808 0.75832 0.01000
C 	C 	0.93601 0.42767 0.77255 0.10000
C 	C 	0.93475 0.41082 0.82494 -0.01000
H 	H 	0.86579 0.46816 0.78776 0.08100
H 	H 	0.95414 0.39498 0.83539 0.07100
O 	O 	0.86031 0.44214 0.89155 -0.17300
O 	O 	0.96132 0.42301 0.73394 -0.17000
C 	C 	0.83290 0.42438 0.87810 -0.05000
H 	H 	0.82299 0.43024 0.83406 0.07700
H 	H 	0.81379 0.42972 0.91068 0.10900
H 	H 	0.83820 0.39935 0.88101 0.12000
C 	C 	0.98722 0.44211 0.75042 -0.03500
H 	H 	0.98030 0.46681 0.75020 0.05400
H 	H 	0.00691 0.43922 0.71783 0.06000
H 	H 	0.99705 0.43546 0.79409 0.05400
C 	C 	0.96760 0.40971 0.30255 0.00400
C 	C 	0.96575 0.37940 0.28162 0.09800
C 	C 	0.95081 0.37346 0.22764 -0.01500
C 	C 	0.93930 0.39773 0.19287 -0.12000
C 	C 	0.93918 0.42783 0.21565 0.16700
C 	C 	0.95397 0.43374 0.26981 -0.10200
H 	H 	0.94952 0.35008 0.21158 0.07500
H 	H 	0.95548 0.45713 0.28573 0.06700
O 	O 	0.97684 0.35530 0.31562 -0.16100
O 	O 	0.92786 0.45201 0.18211 -0.20000
C 	C 	0.00852 0.34788 0.29766 -0.04000
H 	H 	0.00897 0.33927 0.25165 0.06200
H 	H 	0.01770 0.32914 0.32616 0.07700
H 	H 	0.02524 0.36767 0.30270 0.05500
C 	C 	0.89591 0.45865 0.19963 -0.03100
H 	H 	0.87982 0.43832 0.19532 0.07300
H 	H 	0.88615 0.47680 0.17040 0.07300
H 	H 	0.89517 0.46768 0.24532 0.06000
C 	C 	0.08594 0.74109 0.00806 -0.01800
C 	C 	0.06492 0.75703 0.04549 0.09000
C 	C 	0.04443 0.74064 0.08413 -0.14200
C 	C 	0.04407 0.70840 0.08177 0.07900
C 	C 	0.06459 0.69244 0.04345 -0.02600
C 	C 	0.08576 0.70882 0.00598 -0.07700
C 	C 	0.10829 0.69199 0.96419 0.78000
H 	H 	0.10205 0.75397 0.97985 0.10800
H 	H 	0.02777 0.69556 0.10971 0.06800
C 	C 	0.02235 0.75750 0.12667 0.79100
F 	F 	0.12389 0.71198 0.92642 -0.42300
F 	F 	0.09104 0.67142 0.93041 -0.43800
F 	F 	0.13147 0.67627 0.99595 -0.42500
F 	F 	0.99854 0.77282 0.09576 -0.44400
F 	F 	0.03988 0.77845 0.15913 -0.44000
F 	F 	0.00758 0.73756 0.16563 -0.43500
C 	C 	0.01774 0.57359 0.76450 -0.00100
C 	C 	0.02699 0.54880 0.80063 0.10100
C 	C 	0.03848 0.55447 0.85738 -0.02400
C 	C 	0.04264 0.58466 0.87712 -0.10200
C 	C 	0.03585 0.60943 0.83921 0.16400
C 	C 	0.02407 0.60371 0.78253 -0.08900
H 	H 	0.04369 0.53536 0.88638 0.06400
H 	H 	0.01830 0.62279 0.75381 0.08300
O 	O 	0.02177 0.51894 0.78261 -0.19100
O 	O 	0.04221 0.63921 0.85652 -0.13500
C 	C 	0.05067 0.50749 0.75811 -0.03200
H 	H 	0.05925 0.52183 0.72076 0.05600
H 	H 	0.04604 0.48419 0.74057 0.05200
H 	H 	0.06987 0.50534 0.79203 0.06200
C 	C 	0.01361 0.65225 0.87923 -0.03900
H 	H 	0.99506 0.65506 0.84430 0.06200
H 	H 	0.01929 0.67545 0.89636 0.09700
H 	H 	0.00370 0.63866 0.91653 0.05200
C 	C 	0.06977 0.53651 0.30667 0.00500
C 	C 	0.04049 0.54813 0.28408 0.09700
C 	C 	0.04075 0.56622 0.23321 -0.02300
C 	C 	0.06960 0.57098 0.20215 -0.11200
C 	C 	0.09901 0.56015 0.22583 0.16900
C 	C 	0.09882 0.54248 0.27732 -0.09200
H 	H 	0.01821 0.57543 0.21660 0.05000
H 	H 	0.12130 0.53327 0.29420 0.08800
O 	O 	0.01191 0.54381 0.31440 -0.17900
O 	O 	0.12774 0.56485 0.19633 -0.13500
C 	C 	0.99449 0.51978 0.28769 -0.02700
H 	H 	0.98460 0.52717 0.24454 0.04400
H 	H 	0.97375 0.51387 0.31636 0.05400
H 	H 	0.00916 0.49852 0.28231 0.04000
C 	C 	0.14171 0.59224 0.21713 -0.04800
H 	H 	0.12588 0.61245 0.20855 0.07200
H 	H 	0.16465 0.59609 0.19308 0.09900
H 	H 	0.14769 0.59060 0.26470 0.06900
C 	C 	0.75407 0.93192 0.99204 0.02000
C 	C 	0.75652 0.95069 0.04171 0.06500
C 	C 	0.72832 0.95980 0.07227 -0.13200
C 	C 	0.69813 0.94905 0.05314 0.07400
C 	C 	0.69546 0.93100 0.00233 -0.03000
C 	C 	0.72375 0.92292 0.97035 -0.05900
C 	C 	0.72203 0.90387 0.91451 0.77300
H 	H 	0.77595 0.92461 0.96990 0.09400
H 	H 	0.67652 0.95474 0.07772 0.08000
C 	C 	0.73042 0.98041 0.12594 0.78900
F 	F 	0.75093 0.90459 0.88392 -0.42500
F 	F 	0.69833 0.91500 0.87743 -0.43600
F 	F 	0.71541 0.87367 0.92870 -0.40700
F 	F 	0.74716 0.00692 0.11232 -0.44000
F 	F 	0.74623 0.96511 0.17069 -0.43700
F 	F 	0.70017 0.98895 0.14617 -0.43700
C 	C 	0.58229 0.93087 0.77995 -0.10600
C 	C 	0.61125 0.94224 0.75535 0.16800
C 	C 	0.61077 0.95601 0.69959 -0.09100
C 	C 	0.58142 0.96150 0.67098 0.00300
C 	C 	0.55244 0.95062 0.69577 0.09800
C 	C 	0.55299 0.93575 0.75032 -0.02300
H 	H 	0.63311 0.96411 0.68028 0.08600
H 	H 	0.53045 0.92852 0.77007 0.05000
O 	O 	0.64022 0.93903 0.78483 -0.13600
O 	O 	0.52316 0.95773 0.66999 -0.19100
C 	C 	0.64750 0.96719 0.81249 -0.04700
H 	H 	0.65329 0.98525 0.77958 0.06600
H 	H 	0.66922 0.96401 0.84019 0.11500
H 	H 	0.62764 0.97511 0.84191 0.06600
C 	C 	0.51180 0.93166 0.63975 -0.03400
H 	H 	0.53012 0.92197 0.60904 0.06200
H 	H 	0.49062 0.93858 0.61303 0.06100
H 	H 	0.50362 0.91370 0.67112 0.06600
C 	C 	0.55240 0.91694 0.10253 -0.11400
C 	C 	0.54530 0.89184 0.13943 0.17000
C 	C 	0.53339 0.89710 0.19626 -0.09400
C 	C 	0.52723 0.92709 0.21543 0.00300
C 	C 	0.53666 0.95215 0.18026 0.09800
C 	C 	0.54814 0.94696 0.12325 -0.02100
H 	H 	0.52746 0.87779 0.22424 0.08600
H 	H 	0.55361 0.96632 0.09507 0.05600
O 	O 	0.55140 0.86217 0.12093 -0.16600
O 	O 	0.53200 0.98186 0.19976 -0.19100
C 	C 	0.52260 0.84971 0.09826 -0.03300
H 	H 	0.50407 0.84698 0.13331 0.06200
H 	H 	0.52793 0.82651 0.08064 0.08200
H 	H 	0.51280 0.86370 0.06140 0.04300
C 	C 	0.56123 0.99244 0.22405 -0.03400
H 	H 	0.56983 0.97745 0.26047 0.06000
H 	H 	0.55710 0.01559 0.24281 0.05600
H 	H 	0.58025 0.99469 0.18975 0.06500
C 	C 	0.27175 0.03511 0.91475 0.01300
C 	C 	0.24883 0.05065 0.94901 0.07300
C 	C 	0.25659 0.07935 0.97446 -0.11100
C 	C 	0.28808 0.09091 0.96811 0.05900
C 	C 	0.31140 0.07470 0.93589 0.00500
C 	C 	0.30268 0.04750 0.90589 -0.07700
C 	C 	0.32652 0.03104 0.86607 0.77600
H 	H 	0.26551 0.01318 0.89547 0.09000
H 	H 	0.29488 0.11201 0.98995 0.09000
C 	C 	0.23178 0.09701 0.01029 0.76400
F 	F 	0.31092 0.01092 0.82866 -0.43200
F 	F 	0.34818 0.01453 0.89983 -0.43200
F 	F 	0.34321 0.05189 0.83174 -0.43500
F 	F 	0.22439 0.08076 0.06068 -0.44500
F 	F 	0.20397 0.10134 0.97775 -0.42300
F 	F 	0.24307 0.12564 0.02668 -0.42900
C 	C 	0.47930 0.09105 0.68068 0.00400
C 	C 	0.46075 0.06894 0.71082 0.10200
C 	C 	0.44774 0.07601 0.76613 -0.02500
C 	C 	0.45470 0.10420 0.79299 -0.10100
C 	C 	0.47118 0.12703 0.76093 0.16200
C 	C 	0.48401 0.12008 0.70558 -0.09300
H 	H 	0.43350 0.05899 0.78916 0.08700
H 	H 	0.49820 0.13713 0.68249 0.08300
O 	O 	0.45303 0.04144 0.68406 -0.16700
O 	O 	0.47700 0.15544 0.78561 -0.14000
C 	C 	0.47353 0.01821 0.70600 -0.03400
H 	H 	0.49952 0.02380 0.70001 0.04900
H 	H 	0.46881 0.99681 0.68112 0.06900
H 	H 	0.46834 0.01337 0.75304 0.05500
C 	C 	0.45128 0.17523 0.77076 -0.04200
H 	H 	0.44942 0.17845 0.72236 0.06600
H 	H 	0.45602 0.19809 0.79032 0.10400
H 	H 	0.42795 0.16694 0.78916 0.07800
C 	C 	0.41931 0.05163 0.22746 0.00800
C 	C 	0.44584 0.07058 0.21327 0.09500
C 	C 	0.44586 0.08709 0.16047 -0.01300
C 	C 	0.42087 0.08327 0.11976 -0.12200
C 	C 	0.39359 0.06575 0.13511 0.17400
C 	C 	0.39323 0.04959 0.18844 -0.10100
H 	H 	0.46621 0.10167 0.14985 0.05600
H 	H 	0.37310 0.03464 0.19853 0.08100
O 	O 	0.47087 0.07446 0.25263 -0.17500
O 	O 	0.36900 0.06138 0.09506 -0.18200
C 	C 	0.49641 0.05459 0.23701 -0.03400
H 	H 	0.48872 0.03014 0.23597 0.05400
H 	H 	0.51555 0.05650 0.27080 0.05900
H 	H 	0.50725 0.06127 0.19415 0.05200
C 	C 	0.34370 0.08196 0.10842 -0.03700
H 	H 	0.33328 0.07730 0.15262 0.06900
H 	H 	0.32409 0.07859 0.07602 0.07500
H 	H 	0.35164 0.10629 0.10508 0.07500
C 	C 	0.40179 0.21940 0.99108 0.07200
C 	C 	0.43108 0.20507 0.97637 -0.01800
C 	C 	0.45888 0.22314 0.96523 -0.07200
C 	C 	0.45703 0.25513 0.97247 0.00700
C 	C 	0.42764 0.26945 0.98596 0.07500
C 	C 	0.39966 0.25156 0.99556 -0.11500
C 	C 	0.36762 0.26672 0.01051 0.76600
H 	H 	0.38069 0.20536 0.99912 0.08700
H 	H 	0.47839 0.26912 0.96659 0.09200
C 	C 	0.49067 0.20849 0.94688 0.77100
F 	F 	0.34332 0.24539 0.01874 -0.42800
F 	F 	0.35842 0.28610 0.96539 -0.42500
F 	F 	0.37065 0.28353 0.06168 -0.43800
F 	F 	0.48571 0.18714 0.90298 -0.45700
F 	F 	0.50472 0.19425 0.99475 -0.44500
F 	F 	0.51209 0.23013 0.92540 -0.43300
C 	C 	0.22859 0.53022 0.98966 0.06200
C 	C 	0.24632 0.54872 0.95105 0.06200
C 	C 	0.23248 0.57598 0.92828 -0.10900
C 	C 	0.20088 0.58413 0.94491 0.04400
C 	C 	0.18329 0.56583 0.98413 0.06200
C 	C 	0.19748 0.53898 0.00807 -0.13400
C 	C 	0.17943 0.51944 0.05252 0.79000
H 	H 	0.23932 0.50915 0.00591 0.06600
H 	H 	0.18981 0.60474 0.92736 0.11200
C 	C 	0.25134 0.59630 0.88629 0.78500
F 	F 	0.19944 0.49780 0.07833 -0.43900
F 	F 	0.15449 0.50420 0.02485 -0.44000
F 	F 	0.16696 0.53768 0.09681 -0.44200
F 	F 	0.25935 0.57988 0.83640 -0.43500
F 	F 	0.27929 0.60640 0.91312 -0.43000
F 	F 	0.23372 0.62183 0.86920 -0.41400
C 	C 	0.73955 0.42754 0.04434 0.00100
C 	C 	0.73697 0.45719 0.06758 0.08000
C 	C 	0.76504 0.47322 0.08488 -0.13600
C 	C 	0.79546 0.45950 0.07630 0.06700
C 	C 	0.79819 0.42997 0.05215 -0.00700
C 	C 	0.76991 0.41383 0.03516 -0.07600
C 	C 	0.77170 0.38151 0.01004 0.75500
H 	H 	0.71772 0.41522 0.03313 0.08900
H 	H 	0.81717 0.47168 0.08874 0.07600
C 	C 	0.76262 0.50506 0.11174 0.79000
F 	F 	0.74261 0.37283 0.98526 -0.41300
F 	F 	0.77903 0.36099 0.05442 -0.41200
F 	F 	0.79494 0.37962 0.96658 -0.42900
F 	F 	0.74224 0.50450 0.15986 -0.43900
F 	F 	0.75060 0.52546 0.07063 -0.44400
F 	F 	0.79237 0.51571 0.13034 -0.44000
C 	C 	0.58098 0.79724 0.00475 0.05800
C 	C 	0.57275 0.80874 0.94931 0.00100
C 	C 	0.56304 0.78848 0.90425 -0.06900
C 	C 	0.55971 0.75705 0.91695 0.00500
C 	C 	0.56678 0.74567 0.97309 0.09400
C 	C 	0.57848 0.76570 0.01709 -0.14400
C 	C 	0.58702 0.75370 0.07777 0.79100
H 	H 	0.58850 0.81308 0.03871 0.08100
H 	H 	0.55098 0.74141 0.88362 0.09400
C 	C 	0.55503 0.80055 0.84343 0.77300
F 	F 	0.60102 0.77616 0.11227 -0.42800
F 	F 	0.60871 0.72963 0.07320 -0.43700
F 	F 	0.55938 0.74358 0.10574 -0.44500
F 	F 	0.58047 0.81783 0.82218 -0.41800
F 	F 	0.52767 0.81876 0.84626 -0.44700
F 	F 	0.54938 0.77699 0.80403 -0.42700
