data_crystal

_cell_length_a 18.50256
_cell_length_b 19.06652
_cell_length_c 45.20606
_cell_angle_alpha 95.46257
_cell_angle_beta  95.45827
_cell_angle_gamma 126.36301

_symmetry_space_group_name_	'P 1'
_symmetry_space_group_name_H-M	'P 1'

loop_
_symmetry_equiv_pos_as_xyz
  x,y,z

loop_
_atom_site_label
_atom_site_type_symbol
_atom_site_fract_x
_atom_site_fract_y
_atom_site_fract_z
_atom_site_charge
C 	C 	0.92076 0.01378 0.97277 0.02700
C 	C 	0.87441 0.92326 0.97411 -0.05000
C 	C 	0.92298 0.88768 0.97532 0.03400
C 	C 	0.01718 0.94289 0.97590 -0.05100
C 	C 	0.06261 0.03212 0.97403 0.02800
C 	C 	0.01417 0.06698 0.97183 -0.05800
H 	H 	0.80197 0.88147 0.97459 0.05900
H 	H 	0.05501 0.91612 0.97750 0.05900
H 	H 	0.04994 0.13650 0.97070 0.05900
C 	C 	0.93207 0.01532 0.49727 0.02700
C 	C 	0.86970 0.92321 0.49449 -0.05200
C 	C 	0.89994 0.87126 0.49312 0.03400
C 	C 	0.99231 0.91072 0.49361 -0.05400
C 	C 	0.05537 0.00269 0.49648 0.02900
C 	C 	0.02554 0.05552 0.49864 -0.05700
H 	H 	0.79774 0.89210 0.49372 0.06000
H 	H 	0.01537 0.87001 0.49224 0.05900
H 	H 	0.07432 0.12690 0.50106 0.05900
Cu	Cu	0.77831 0.36489 0.96994 0.92800
Cu	Cu	0.77457 0.30242 0.03527 0.88100
Cu	Cu	0.63536 0.31902 0.00928 0.90000
Cu	Cu	0.60627 0.35696 0.94815 0.90000
C 	C 	0.70671 0.32979 0.90634 0.30900
O 	O 	0.83120 0.49430 0.96863 -0.34700
C 	C 	0.69945 0.35429 0.07572 0.30900
O 	O 	0.63623 0.29185 0.96741 -0.63800
O 	O 	0.76968 0.38166 0.01307 -0.63900
O 	O 	0.83842 0.30494 0.97301 -0.35600
O 	O 	0.74131 0.21414 0.00210 -0.42900
O 	O 	0.66830 0.36802 0.91316 -0.37400
O 	O 	0.50397 0.24990 0.00295 -0.37200
C 	C 	0.45290 0.25023 0.98055 0.29500
C 	C 	0.78919 0.52714 0.97748 0.28300
O 	O 	0.70555 0.47360 0.98218 -0.38400
O 	O 	0.48923 0.30827 0.96242 -0.38100
O 	O 	0.76280 0.33074 0.92710 -0.35100
C 	C 	0.79936 0.23158 0.98418 0.29000
O 	O 	0.63312 0.32964 0.05315 -0.37200
O 	O 	0.77297 0.36264 0.07090 -0.40600
H 	H 	0.59723 0.22764 0.95874 0.17200
H 	H 	0.80734 0.44396 0.02395 0.18500
Cu	Cu	0.61980 0.21057 0.50740 0.92700
Cu	Cu	0.66026 0.18191 0.43942 0.88300
Cu	Cu	0.62961 0.32790 0.46426 0.91400
Cu	Cu	0.58579 0.35199 0.52468 0.90100
C 	C 	0.64300 0.28107 0.57021 0.31200
O 	O 	0.48369 0.13614 0.50913 -0.34900
C 	C 	0.64278 0.29023 0.40414 0.30700
O 	O 	0.66707 0.34122 0.50670 -0.63900
O 	O 	0.59152 0.20523 0.46330 -0.63100
O 	O 	0.71178 0.18602 0.50845 -0.36000
O 	O 	0.65470 0.10016 0.46141 -0.41100
O 	O 	0.59111 0.30476 0.56181 -0.37300
O 	O 	0.67575 0.44922 0.46639 -0.36900
C 	C 	0.67090 0.49492 0.48885 0.29300
C 	C 	0.43381 0.16000 0.49858 0.28400
O 	O 	0.47372 0.23909 0.49203 -0.38700
O 	O 	0.61220 0.45504 0.50704 -0.37900
O 	O 	0.65887 0.23812 0.55051 -0.35200
C 	C 	0.70825 0.12978 0.48791 0.29100
O 	O 	0.60110 0.31034 0.42080 -0.36800
O 	O 	0.69958 0.27713 0.41702 -0.41400
H 	H 	0.73267 0.38970 0.51468 0.16900
H 	H 	0.52561 0.16065 0.45469 0.16800
C 	C 	0.70772 0.27967 0.81665 -0.00100
C 	C 	0.62495 0.23211 0.79593 -0.02700
C 	C 	0.62480 0.22695 0.76487 -0.03900
C 	C 	0.70754 0.26924 0.75430 0.01300
C 	C 	0.79009 0.31346 0.77503 -0.03900
C 	C 	0.79013 0.31869 0.80612 -0.02600
C 	C 	0.70812 0.27273 0.72182 0.01300
C 	C 	0.65934 0.19396 0.70019 -0.03900
C 	C 	0.65158 0.19684 0.66932 -0.02600
C 	C 	0.69265 0.27840 0.65988 -0.00100
C 	C 	0.74411 0.35732 0.68140 -0.02700
C 	C 	0.75182 0.35455 0.71227 -0.03900
C 	C 	0.67654 0.28060 0.62828 0.05400
C 	C 	0.66255 0.28159 0.60177 -0.08700
C 	C 	0.70878 0.29676 0.84849 0.05400
C 	C 	0.70833 0.31038 0.87505 -0.08600
H 	H 	0.56096 0.20163 0.80391 0.04700
H 	H 	0.56070 0.19254 0.74907 0.04800
H 	H 	0.85425 0.34552 0.76709 0.04900
H 	H 	0.85438 0.35532 0.82200 0.05000
H 	H 	0.62590 0.13052 0.70730 0.04800
H 	H 	0.61198 0.13557 0.65279 0.05100
H 	H 	0.77628 0.42064 0.67426 0.04800
H 	H 	0.78956 0.41573 0.72877 0.04900
C 	C 	0.63948 0.32107 0.31600 -0.00500
C 	C 	0.65702 0.39855 0.30817 -0.02600
C 	C 	0.65806 0.40958 0.27801 -0.04000
C 	C 	0.64154 0.34309 0.25550 0.01200
C 	C 	0.62308 0.26519 0.26338 -0.04000
C 	C 	0.62202 0.25426 0.29352 -0.02700
C 	C 	0.64698 0.35628 0.22390 0.01200
C 	C 	0.73036 0.42402 0.21663 -0.04000
C 	C 	0.73848 0.42978 0.18635 -0.02700
C 	C 	0.66337 0.36789 0.16317 -0.00300
C 	C 	0.57890 0.30290 0.17043 -0.02700
C 	C 	0.57066 0.29710 0.20070 -0.04000
C 	C 	0.67574 0.36430 0.13222 0.05300
C 	C 	0.68599 0.36121 0.10630 -0.09700
C 	C 	0.64072 0.31059 0.34715 0.05300
C 	C 	0.64164 0.30134 0.37317 -0.10200
H 	H 	0.67037 0.45040 0.32543 0.05000
H 	H 	0.67216 0.46984 0.27216 0.04900
H 	H 	0.61074 0.21370 0.24620 0.04600
H 	H 	0.60834 0.19417 0.29940 0.04200
H 	H 	0.78958 0.47026 0.23438 0.04700
H 	H 	0.80394 0.48039 0.18092 0.04700
H 	H 	0.52043 0.25504 0.15263 0.04700
H 	H 	0.50571 0.24522 0.20609 0.04700
C 	C 	0.83513 0.77533 0.49268 0.01300
C 	C 	0.83517 0.74192 0.51918 -0.03700
C 	C 	0.78043 0.64982 0.51805 0.01900
C 	C 	0.72166 0.59117 0.49079 -0.07900
C 	C 	0.71551 0.62511 0.46502 0.02300
C 	C 	0.77438 0.71702 0.46569 -0.03900
C 	C 	0.89150 0.80254 0.54759 0.09900
C 	C 	0.64724 0.56566 0.43813 0.09100
C 	C 	0.77370 0.75163 0.43852 0.09700
C 	C 	0.78687 0.61528 0.54462 0.07000
N 	N 	0.77325 0.77936 0.41687 -0.10700
N 	N 	0.79200 0.58771 0.56579 -0.11800
N 	N 	0.59281 0.51824 0.41668 -0.10200
N 	N 	0.93645 0.85098 0.57023 -0.10200
C 	C 	0.77823 0.11457 0.49252 -0.08500
C 	C 	0.83194 0.12739 0.47031 0.02200
C 	C 	0.88931 0.10157 0.47285 -0.04000
C 	C 	0.89811 0.06896 0.49859 0.01500
C 	C 	0.85674 0.07092 0.52299 -0.04100
C 	C 	0.79345 0.08950 0.51948 0.02300
C 	C 	0.83095 0.17017 0.44557 0.05000
C 	C 	0.87753 0.05127 0.55137 0.09700
C 	C 	0.74191 0.07982 0.54308 0.08700
C 	C 	0.93687 0.10580 0.44855 0.09600
N 	N 	0.70082 0.07212 0.56192 -0.10100
N 	N 	0.97483 0.10915 0.42918 -0.10700
N 	N 	0.89418 0.03551 0.57400 -0.10700
N 	N 	0.83036 0.20435 0.42581 -0.13300
C 	C 	0.15305 0.04318 0.49708 0.01300
C 	C 	0.21052 0.06415 0.52463 -0.03900
C 	C 	0.30046 0.09254 0.52481 0.01600
C 	C 	0.33416 0.10303 0.49755 -0.07900
C 	C 	0.27484 0.07674 0.46985 0.01900
C 	C 	0.18502 0.04856 0.46964 -0.03800
C 	C 	0.17713 0.05690 0.55280 0.09500
C 	C 	0.30667 0.07928 0.44158 0.07500
C 	C 	0.12537 0.02511 0.44122 0.09700
C 	C 	0.35883 0.11246 0.55309 0.08300
N 	N 	0.07768 0.00633 0.41857 -0.10600
N 	N 	0.40529 0.12824 0.57567 -0.10100
N 	N 	0.33211 0.08136 0.41903 -0.11600
N 	N 	0.15039 0.05110 0.57525 -0.10500
C 	C 	0.82942 0.62155 0.97728 -0.07700
C 	C 	0.83759 0.65169 0.94953 0.01600
C 	C 	0.85775 0.73529 0.94842 -0.03700
C 	C 	0.87563 0.79166 0.97528 0.01200
C 	C 	0.86677 0.76141 0.00298 -0.03700
C 	C 	0.84440 0.67684 0.00403 0.01800
C 	C 	0.82573 0.59700 0.92210 0.08300
C 	C 	0.88193 0.81785 0.03047 0.09800
C 	C 	0.83817 0.64720 0.03271 0.07800
C 	C 	0.86114 0.76395 0.91965 0.09800
N 	N 	0.83316 0.62347 0.05558 -0.11000
N 	N 	0.86389 0.78695 0.89672 -0.10300
N 	N 	0.89407 0.86297 0.05240 -0.10300
N 	N 	0.81656 0.55372 0.90016 -0.09900
C 	C 	0.87474 0.05624 0.97573 0.01200
C 	C 	0.83885 0.06910 0.94959 -0.03600
C 	C 	0.81682 0.12874 0.95215 0.02000
C 	C 	0.83149 0.17629 0.98086 -0.08300
C 	C 	0.86682 0.16268 0.00697 0.02100
C 	C 	0.88419 0.09981 0.00447 -0.03900
C 	C 	0.82524 0.02144 0.92009 0.08700
C 	C 	0.88832 0.21564 0.03631 0.05200
C 	C 	0.91327 0.08084 0.03150 0.09700
C 	C 	0.77847 0.14052 0.92531 0.08400
N 	N 	0.93641 0.06561 0.05306 -0.10500
N 	N 	0.74786 0.14991 0.90389 -0.10300
N 	N 	0.90552 0.25788 0.05972 -0.13400
N 	N 	0.81444 0.98334 0.89656 -0.09800
C 	C 	0.35317 0.19488 0.97893 -0.07800
C 	C 	0.31705 0.20364 0.00396 0.02200
C 	C 	0.22183 0.14983 0.00241 -0.03800
C 	C 	0.16246 0.09024 0.97539 0.01200
C 	C 	0.19845 0.08383 0.95003 -0.03500
C 	C 	0.29370 0.13459 0.95201 0.01700
C 	C 	0.37776 0.26952 0.03099 0.08800
C 	C 	0.13731 0.02526 0.92186 0.08700
C 	C 	0.33062 0.12348 0.92659 0.07100
C 	C 	0.18480 0.15484 0.02874 0.09600
N 	N 	0.36011 0.11466 0.90634 -0.11700
N 	N 	0.15524 0.15883 0.04972 -0.10600
N 	N 	0.08845 0.97851 0.89941 -0.09700
N 	N 	0.42618 0.32205 0.05255 -0.10200
