data_crystal

_cell_length_a 30.12825
_cell_length_b 30.32278
_cell_length_c 34.83139
_cell_angle_alpha 95.47997
_cell_angle_beta  95.47874
_cell_angle_gamma 125.57587

_symmetry_space_group_name_	'P 1'
_symmetry_space_group_name_H-M	'P 1'

loop_
_symmetry_equiv_pos_as_xyz
  x,y,z

loop_
_atom_site_label
_atom_site_type_symbol
_atom_site_fract_x
_atom_site_fract_y
_atom_site_fract_z
_atom_site_charge
C 	C 	0.95909 0.01341 0.98184 0.10800
N 	N 	0.01146 0.03902 0.97457 -0.13800
C 	C 	0.03368 0.01099 0.97089 0.11400
N 	N 	0.00325 0.95709 0.97448 -0.13600
C 	C 	0.95061 0.93106 0.98131 0.11300
N 	N 	0.92864 0.95934 0.98505 -0.13800
C 	C 	0.96455 0.01547 0.45830 0.10800
N 	N 	0.02025 0.04913 0.45944 -0.13700
C 	C 	0.05077 0.02969 0.46470 0.11500
N 	N 	0.02541 0.97641 0.46893 -0.13500
C 	C 	0.96971 0.94254 0.46779 0.11400
N 	N 	0.93937 0.96218 0.46243 -0.13800
Cu	Cu	0.63000 0.23984 0.99852 0.92900
Cu	Cu	0.68016 0.24994 0.91833 0.86200
Cu	Cu	0.65122 0.32105 0.94503 0.89300
Cu	Cu	0.63021 0.34246 0.02353 0.89100
C 	C 	0.65036 0.28561 0.07952 0.29500
O 	O 	0.54940 0.20838 0.99856 -0.36300
C 	C 	0.63654 0.28476 0.86042 0.29300
O 	O 	0.67320 0.32524 0.99965 -0.63900
O 	O 	0.62099 0.24232 0.94220 -0.64500
O 	O 	0.66318 0.19926 0.99645 -0.37300
O 	O 	0.72782 0.25957 0.96341 -0.44300
O 	O 	0.62202 0.30446 0.06896 -0.38900
O 	O 	0.68664 0.39923 0.94851 -0.39100
C 	C 	0.68891 0.43299 0.97704 0.29900
C 	C 	0.52687 0.23024 0.98248 0.28400
O 	O 	0.55853 0.28205 0.97823 -0.39700
O 	O 	0.66436 0.41559 0.00754 -0.40100
O 	O 	0.65111 0.25093 0.05416 -0.36700
C 	C 	0.71021 0.22015 0.98399 0.29200
O 	O 	0.63086 0.31292 0.88845 -0.38500
O 	O 	0.64826 0.25030 0.86802 -0.42800
H 	H 	0.71373 0.35051 0.00979 0.15700
H 	H 	0.58319 0.21585 0.92624 0.17400
Cu	Cu	0.74656 0.35143 0.45159 0.92800
Cu	Cu	0.73374 0.29706 0.53021 0.86300
Cu	Cu	0.66451 0.33188 0.50457 0.89400
Cu	Cu	0.64682 0.35738 0.42671 0.89200
C 	C 	0.70287 0.33589 0.37073 0.29500
O 	O 	0.78165 0.43275 0.45369 -0.36500
C 	C 	0.69033 0.33053 0.58692 0.28700
O 	O 	0.66084 0.31165 0.44963 -0.64100
O 	O 	0.74279 0.35779 0.50789 -0.64200
O 	O 	0.78487 0.31571 0.45224 -0.37400
O 	O 	0.72246 0.25063 0.48390 -0.44400
O 	O 	0.68598 0.36577 0.38186 -0.38800
O 	O 	0.58660 0.30079 0.50066 -0.39200
C 	C 	0.55322 0.29388 0.46935 0.29100
C 	C 	0.76094 0.45650 0.46989 0.28200
O 	O 	0.70838 0.42631 0.47336 -0.39700
O 	O 	0.57282 0.32409 0.44184 -0.39700
O 	O 	0.73643 0.33296 0.39574 -0.36500
C 	C 	0.76207 0.26787 0.46332 0.29200
O 	O 	0.67163 0.34817 0.56130 -0.38400
O 	O 	0.72960 0.32513 0.58054 -0.42300
H 	H 	0.63434 0.27165 0.43871 0.15800
H 	H 	0.77040 0.39476 0.52443 0.17300
C 	C 	0.61025 0.30334 0.67063 -0.09300
C 	C 	0.65124 0.31847 0.70271 0.00300
C 	C 	0.70543 0.33913 0.69693 0.02200
C 	C 	0.71835 0.34666 0.65935 -0.01700
C 	C 	0.67683 0.32921 0.62681 -0.10800
C 	C 	0.62189 0.30640 0.63246 0.09300
C 	C 	0.63582 0.30786 0.74167 0.00200
C 	C 	0.74895 0.35112 0.73035 -0.17000
H 	H 	0.76048 0.36451 0.65522 0.03800
C 	C 	0.57531 0.28415 0.59811 -0.20200
H 	H 	0.56864 0.28718 0.67523 0.05100
C 	C 	0.65099 0.35142 0.77176 0.02500
C 	C 	0.64880 0.34291 0.81068 -0.02000
C 	C 	0.62739 0.29038 0.81922 -0.10900
C 	C 	0.60256 0.24488 0.78793 0.09600
C 	C 	0.60939 0.25441 0.74959 -0.09400
C 	C 	0.67095 0.40717 0.76272 -0.17300
H 	H 	0.66536 0.37748 0.83436 0.04200
C 	C 	0.56897 0.18639 0.79505 -0.19900
H 	H 	0.59495 0.22038 0.72601 0.04900
H 	H 	0.57996 0.31882 0.58587 0.08800
H 	H 	0.53405 0.25973 0.60697 0.06600
H 	H 	0.57535 0.25632 0.57496 0.06600
H 	H 	0.73321 0.31399 0.74379 0.06000
H 	H 	0.75973 0.38578 0.75304 0.05900
H 	H 	0.78768 0.36268 0.72025 0.05600
H 	H 	0.66902 0.43216 0.78707 0.06200
H 	H 	0.64442 0.40240 0.73584 0.06600
H 	H 	0.71454 0.43007 0.75822 0.06100
H 	H 	0.53761 0.15728 0.76848 0.06300
H 	H 	0.54603 0.18193 0.81930 0.07100
H 	H 	0.59683 0.17442 0.80233 0.06800
C 	C 	0.70542 0.34554 0.18799 -0.09000
C 	C 	0.68657 0.29778 0.20354 0.00300
C 	C 	0.66167 0.24693 0.17804 0.02500
C 	C 	0.65152 0.24376 0.13731 -0.01400
C 	C 	0.66798 0.29113 0.12180 -0.10400
C 	C 	0.69804 0.34295 0.14725 0.09100
C 	C 	0.68968 0.30079 0.24649 0.00300
C 	C 	0.64373 0.19560 0.19412 -0.17200
H 	H 	0.62943 0.20415 0.11778 0.04500
C 	C 	0.72100 0.39536 0.13128 -0.19700
H 	H 	0.72541 0.38470 0.20768 0.05100
C 	C 	0.74058 0.32388 0.27183 0.02500
C 	C 	0.74404 0.33371 0.31261 -0.01400
C 	C 	0.69685 0.31874 0.32832 -0.10400
C 	C 	0.64482 0.29058 0.30298 0.09100
C 	C 	0.64204 0.28351 0.26221 -0.09000
C 	C 	0.79170 0.34017 0.25554 -0.17200
H 	H 	0.78377 0.35437 0.33206 0.04400
C 	C 	0.59244 0.26932 0.31912 -0.19700
H 	H 	0.60282 0.26494 0.24265 0.05100
H 	H 	0.75467 0.43214 0.15335 0.06300
H 	H 	0.68743 0.39985 0.12334 0.06200
H 	H 	0.73898 0.39486 0.10498 0.05500
H 	H 	0.60580 0.18064 0.20666 0.06300
H 	H 	0.67725 0.20441 0.21733 0.06300
H 	H 	0.63439 0.16209 0.17086 0.06100
H 	H 	0.82501 0.34832 0.27863 0.06100
H 	H 	0.80787 0.37817 0.24316 0.06300
H 	H 	0.78173 0.30651 0.23215 0.06300
H 	H 	0.58963 0.30373 0.32762 0.06100
H 	H 	0.59198 0.25056 0.34509 0.05400
H 	H 	0.55495 0.23693 0.29695 0.06300
C 	C 	0.94215 0.88442 0.47200 -0.02500
C 	C 	0.89431 0.85693 0.48888 -0.01500
C 	C 	0.86747 0.80155 0.49194 -0.05900
C 	C 	0.88852 0.77325 0.47867 0.03300
C 	C 	0.93637 0.80065 0.46182 -0.05800
C 	C 	0.96316 0.85597 0.45864 -0.01600
C 	C 	0.85759 0.71368 0.47942 -0.04800
C 	C 	0.88367 0.69300 0.49346 -0.05600
C 	C 	0.85383 0.63277 0.49025 0.04600
C 	C 	0.87668 0.60756 0.47449 -0.07700
C 	C 	0.84734 0.55026 0.46911 0.01600
C 	C 	0.79482 0.51750 0.47971 -0.09100
C 	C 	0.77344 0.54322 0.49760 0.01400
C 	C 	0.80287 0.60056 0.50292 -0.07600
H 	H 	0.87790 0.87843 0.49966 0.03800
H 	H 	0.83026 0.78061 0.50460 0.04200
H 	H 	0.95213 0.77878 0.45045 0.04300
H 	H 	0.99957 0.87634 0.44510 0.03800
H 	H 	0.81296 0.68660 0.46875 0.04100
H 	H 	0.92826 0.72023 0.50435 0.04200
H 	H 	0.91658 0.63223 0.46548 0.04600
H 	H 	0.86497 0.53134 0.45595 0.03500
H 	H 	0.73377 0.51885 0.50694 0.03200
H 	H 	0.78587 0.61986 0.51659 0.04700
C 	C 	0.78476 0.23632 0.45621 -0.10300
C 	C 	0.82119 0.24971 0.42959 0.02100
C 	C 	0.84639 0.22312 0.42548 -0.08000
C 	C 	0.83485 0.18233 0.44743 0.04700
C 	C 	0.79759 0.16809 0.47344 -0.08000
C 	C 	0.77242 0.19464 0.47762 0.01600
C 	C 	0.86595 0.15856 0.44589 -0.05800
C 	C 	0.83972 0.10383 0.44218 -0.04700
C 	C 	0.87139 0.08069 0.44558 0.03000
C 	C 	0.85760 0.04145 0.46956 -0.05600
C 	C 	0.88769 0.01984 0.47349 -0.02300
C 	C 	0.93167 0.03697 0.45320 -0.02200
C 	C 	0.94454 0.07519 0.42837 -0.01800
C 	C 	0.91429 0.09664 0.42434 -0.05700
H 	H 	0.83059 0.28117 0.41245 0.03500
H 	H 	0.87531 0.23461 0.40549 0.04600
H 	H 	0.78929 0.13755 0.49123 0.04400
H 	H 	0.74454 0.18383 0.49832 0.01500
H 	H 	0.91071 0.18614 0.44786 0.04200
H 	H 	0.79489 0.07634 0.43988 0.03900
H 	H 	0.82407 0.02830 0.48562 0.03900
H 	H 	0.87733 0.99041 0.49275 0.04200
H 	H 	0.97767 0.08795 0.41197 0.03600
H 	H 	0.92402 0.12540 0.40463 0.04100
C 	C 	0.49263 0.25876 0.46861 -0.09500
C 	C 	0.46927 0.21671 0.49096 0.01800
C 	C 	0.41198 0.18292 0.48993 -0.08000
C 	C 	0.37739 0.19095 0.46685 0.04700
C 	C 	0.40049 0.23254 0.44415 -0.07800
C 	C 	0.45782 0.26648 0.44520 0.01900
C 	C 	0.31662 0.15342 0.46476 -0.05700
C 	C 	0.28709 0.17326 0.46908 -0.04800
C 	C 	0.22645 0.13567 0.46757 0.03300
C 	C 	0.19116 0.14255 0.44413 -0.05900
C 	C 	0.13385 0.10790 0.44307 -0.01500
C 	C 	0.11132 0.06636 0.46584 -0.02500
C 	C 	0.14682 0.06006 0.48979 -0.01600
C 	C 	0.20410 0.09471 0.49081 -0.05800
H 	H 	0.49538 0.20973 0.50876 0.02200
H 	H 	0.39445 0.15044 0.50710 0.04400
H 	H 	0.37401 0.23817 0.42537 0.04700
H 	H 	0.47505 0.29866 0.42779 0.03000
H 	H 	0.29630 0.10931 0.46162 0.04200
H 	H 	0.30732 0.21735 0.47217 0.04100
H 	H 	0.20808 0.17446 0.42648 0.04200
H 	H 	0.10698 0.11310 0.42432 0.03800
H 	H 	0.13017 0.02884 0.50801 0.03800
H 	H 	0.23114 0.09012 0.50996 0.04200
C 	C 	0.71739 0.49151 0.97372 -0.09600
C 	C 	0.75861 0.51590 0.95057 0.02000
C 	C 	0.78518 0.57107 0.94710 -0.07900
C 	C 	0.77147 0.60269 0.96709 0.04800
C 	C 	0.72991 0.57833 0.98993 -0.07600
C 	C 	0.70315 0.52309 0.99336 0.02300
C 	C 	0.79914 0.66064 0.96257 -0.05700
C 	C 	0.82279 0.70136 0.99411 -0.04400
C 	C 	0.85438 0.75980 0.98972 0.03400
C 	C 	0.84604 0.79516 0.01115 -0.06100
C 	C 	0.87710 0.85094 0.00823 -0.01800
C 	C 	0.91719 0.87200 0.98405 -0.02200
C 	C 	0.92583 0.83661 0.96287 -0.01700
C 	C 	0.89497 0.78096 0.96596 -0.05800
H 	H 	0.77027 0.49224 0.93541 0.02700
H 	H 	0.81680 0.58939 0.92909 0.04500
H 	H 	0.71794 0.60198 0.00466 0.04500
H 	H 	0.67089 0.50472 0.01084 0.02700
H 	H 	0.80354 0.67050 0.93332 0.04300
H 	H 	0.81791 0.69150 0.02333 0.03700
H 	H 	0.81547 0.77942 0.03005 0.04200
H 	H 	0.87047 0.87787 0.02514 0.03800
H 	H 	0.95644 0.85217 0.94401 0.03700
H 	H 	0.90301 0.75445 0.95021 0.04200
C 	C 	0.93539 0.04424 0.98611 -0.02200
C 	C 	0.94883 0.08507 0.96362 -0.01800
C 	C 	0.92735 0.11512 0.96819 -0.05900
C 	C 	0.89178 0.10433 0.99494 0.03300
C 	C 	0.87882 0.06399 0.01783 -0.06100
C 	C 	0.90025 0.03384 0.01326 -0.02000
C 	C 	0.86983 0.13683 0.99967 -0.04400
C 	C 	0.81531 0.11184 0.99844 -0.05900
C 	C 	0.79214 0.14339 0.99702 0.05100
C 	C 	0.75427 0.13535 0.02113 -0.08300
C 	C 	0.72883 0.16176 0.01781 0.01900
C 	C 	0.74045 0.19588 0.98985 -0.10000
C 	C 	0.77898 0.20443 0.96607 0.01700
C 	C 	0.80437 0.17807 0.96945 -0.08100
H 	H 	0.97568 0.09335 0.94246 0.03700
H 	H 	0.93799 0.14650 0.95067 0.04000
H 	H 	0.85268 0.05640 0.03941 0.04100
H 	H 	0.89026 0.00309 0.03124 0.03600
H 	H 	0.89764 0.18107 0.00051 0.03600
H 	H 	0.78745 0.06775 0.99814 0.04300
H 	H 	0.74429 0.10839 0.04230 0.04700
H 	H 	0.69972 0.15523 0.03668 0.03500
H 	H 	0.78819 0.23032 0.94422 0.01400
H 	H 	0.83252 0.18353 0.94999 0.04500
C 	C 	0.09092 0.03915 0.96334 -0.02200
C 	C 	0.12982 0.09672 0.97477 -0.01700
C 	C 	0.18429 0.12311 0.96858 -0.05800
C 	C 	0.20075 0.09227 0.95152 0.03200
C 	C 	0.16172 0.03497 0.93916 -0.05600
C 	C 	0.10708 0.00851 0.94504 -0.02200
C 	C 	0.25901 0.12028 0.94681 -0.04800
C 	C 	0.28929 0.10483 0.96266 -0.05600
C 	C 	0.34983 0.13778 0.96359 0.04800
C 	C 	0.37437 0.11086 0.95680 -0.07800
C 	C 	0.43215 0.14120 0.96174 0.02000
C 	C 	0.46598 0.19879 0.97372 -0.09300
C 	C 	0.44139 0.22586 0.97976 0.02000
C 	C 	0.38370 0.19552 0.97515 -0.07700
H 	H 	0.11814 0.12097 0.98895 0.04000
H 	H 	0.21405 0.16744 0.97782 0.04300
H 	H 	0.17373 0.01097 0.92507 0.04200
H 	H 	0.07735 0.96429 0.93528 0.04300
H 	H 	0.27864 0.15679 0.93343 0.04000
H 	H 	0.26929 0.06766 0.97531 0.04400
H 	H 	0.34869 0.06634 0.94820 0.04600
H 	H 	0.45062 0.11987 0.95670 0.02600
H 	H 	0.46703 0.27021 0.98940 0.02600
H 	H 	0.36549 0.21671 0.98178 0.04700
