data_crystal

_cell_length_a 17.19655
_cell_length_b 17.63793
_cell_length_c 37.21972
_cell_angle_alpha 60.70236
_cell_angle_beta  119.09981
_cell_angle_gamma 133.29069

_symmetry_space_group_name_	'P 1'
_symmetry_space_group_name_H-M	'P 1'

loop_
_symmetry_equiv_pos_as_xyz
  x,y,z

loop_
_atom_site_label
_atom_site_type_symbol
_atom_site_fract_x
_atom_site_fract_y
_atom_site_fract_z
_atom_site_charge
C 	C 	0.78930 0.35419 0.02930 0.12300
N 	N 	0.86995 0.44693 0.04223 -0.12400
C 	C 	0.84453 0.50580 0.04119 0.13500
N 	N 	0.73934 0.47310 0.02686 -0.13100
C 	C 	0.65869 0.38068 0.01415 0.11600
N 	N 	0.68336 0.32060 0.01557 -0.12300
C 	C 	0.59939 0.21099 0.48126 0.11900
N 	N 	0.49011 0.15836 0.47586 -0.11900
C 	C 	0.45525 0.20544 0.47814 0.15000
N 	N 	0.52803 0.30739 0.48174 -0.13200
C 	C 	0.63635 0.35200 0.49440 0.12000
N 	N 	0.67311 0.30580 0.49277 -0.12100
C 	C 	0.44445 0.80788 0.14108 0.08900
N 	N 	0.55101 0.84246 0.15757 -0.13500
C 	C 	0.58221 0.78856 0.15840 0.11600
N 	N 	0.50745 0.70080 0.14256 -0.12800
C 	C 	0.40143 0.66602 0.12579 0.10900
N 	N 	0.36926 0.71926 0.12505 -0.13000
C 	C 	0.16950 0.50793 0.66771 0.10800
N 	N 	0.08859 0.41229 0.65629 -0.13900
C 	C 	0.11531 0.35212 0.65892 0.14500
N 	N 	0.22168 0.38793 0.67271 -0.13300
C 	C 	0.30277 0.48884 0.67802 0.11600
N 	N 	0.27662 0.54631 0.67803 -0.13200
Co	Co	0.16021 0.96837 0.10392 1.14500
Co	Co	0.07480 0.18535 0.07002 1.17800
Co	Co	0.09104 0.02853 0.14926 1.20200
Co	Co	0.14151 0.12399 0.02429 1.18700
C 	C 	0.07699 0.78560 0.07663 0.25300
Co	Co	0.21823 0.99975 0.02365 1.13300
Co	Co	0.02945 0.16879 0.14977 1.15000
C 	C 	0.33760 0.23466 0.99717 0.33500
O 	O 	0.18554 0.22575 0.18888 -0.39000
O 	O 	0.06020 0.11867 0.12001 -0.76100
C 	C 	0.21240 0.15849 0.21249 0.30700
O 	O 	0.13314 0.93625 0.15850 -0.51200
O 	O 	0.10493 0.22010 0.01574 -0.47200
C 	C 	0.17609 0.37588 0.09662 0.31700
O 	O 	0.07750 0.04795 0.08222 -0.56100
C 	C 	0.90790 0.93401 0.18362 0.22500
C 	C 	0.36925 0.01329 0.10706 0.40300
C 	C 	0.04042 0.00795 0.95581 0.42900
O 	O 	0.22098 0.11707 0.19416 -0.36200
O 	O 	0.36722 0.06383 0.06700 -0.37300
O 	O 	0.32140 0.01032 0.12748 -0.35100
O 	O 	0.08369 0.31729 0.10713 -0.42500
O 	O 	0.19851 0.33287 0.08565 -0.39600
O 	O 	0.97227 0.02385 0.19473 -0.29400
O 	O 	0.94553 0.91187 0.16934 -0.36300
O 	O 	0.06346 0.94022 0.98472 -0.47800
O 	O 	0.04673 0.07407 0.96677 -0.39500
O 	O 	0.16323 0.02756 0.05230 -0.70900
C 	C 	0.87400 0.15681 0.06643 0.31200
O 	O 	0.87892 0.10668 0.10682 -0.33800
O 	O 	0.92513 0.16725 0.04491 -0.33000
O 	O 	0.16920 0.85018 0.06495 -0.41200
O 	O 	0.05633 0.81546 0.09527 -0.40100
O 	O 	0.27334 0.15058 0.98213 -0.38500
O 	O 	0.30230 0.24017 0.01955 -0.40100
Co	Co	0.91175 0.72962 0.60058 1.19300
Co	Co	0.85418 0.97613 0.55173 1.14400
Co	Co	0.79181 0.78714 0.62137 1.18200
Co	Co	0.96440 0.91551 0.52623 1.16800
C 	C 	0.83188 0.55146 0.57172 0.32900
Co	Co	0.01864 0.75832 0.53859 1.14500
Co	Co	0.67450 0.90103 0.59275 1.15200
C 	C 	0.17177 0.99544 0.51546 0.13600
O 	O 	0.73018 0.86407 0.65846 -0.42000
O 	O 	0.76420 0.87557 0.58278 -0.76700
C 	C 	0.83019 0.88924 0.67842 0.35400
O 	O 	0.85340 0.70161 0.64510 -0.45200
O 	O 	0.95541 0.03341 0.51747 -0.38800
C 	C 	0.90580 0.10467 0.60101 0.26800
O 	O 	0.84476 0.82929 0.56528 -0.58500
C 	C 	0.56017 0.66993 0.62733 0.31500
C 	C 	0.11703 0.73419 0.62884 0.29700
C 	C 	0.89279 0.81577 0.45742 0.33100
O 	O 	0.87891 0.87685 0.66509 -0.42200
O 	O 	0.14336 0.79614 0.59230 -0.40900
O 	O 	0.05347 0.73182 0.64091 -0.40500
O 	O 	0.80062 0.06485 0.58648 -0.34900
O 	O 	0.94766 0.07562 0.59241 -0.33400
O 	O 	0.55113 0.74193 0.59478 -0.38900
O 	O 	0.63705 0.65973 0.63562 -0.36800
O 	O 	0.88676 0.73119 0.48698 -0.37500
O 	O 	0.89556 0.88284 0.46620 -0.37200
O 	O 	0.95662 0.80167 0.55558 -0.74200
C 	C 	0.67405 0.01379 0.50441 0.40700
O 	O 	0.61243 0.92343 0.52848 -0.46300
O 	O 	0.76413 0.03763 0.50262 -0.34400
O 	O 	0.93523 0.60439 0.57497 -0.37700
O 	O 	0.79980 0.58501 0.58290 -0.37300
O 	O 	0.11103 0.90948 0.50235 -0.40100
O 	O 	0.13295 0.00781 0.53386 -0.30200
C 	C 	0.84449 0.87254 0.78564 -0.10700
C 	C 	0.93640 0.97670 0.79020 -0.10000
C 	C 	0.00149 0.04732 0.76028 0.05800
C 	C 	0.97346 0.01356 0.72601 0.21700
C 	C 	0.87789 0.91159 0.72018 -0.26500
C 	C 	0.81555 0.83962 0.75103 0.23200
C 	C 	0.97394 0.00522 0.82968 0.21600
O 	O 	0.09364 0.14843 0.76499 -0.25800
H 	H 	0.02403 0.06801 0.70324 -0.02100
O 	O 	0.72356 0.73835 0.74643 -0.29500
H 	H 	0.79621 0.81651 0.80928 0.06400
C 	C 	0.91160 0.01534 0.83905 0.02800
C 	C 	0.93880 0.02506 0.87955 0.11900
C 	C 	0.02681 0.02298 0.91090 -0.25100
C 	C 	0.09297 0.01970 0.90033 0.29200
C 	C 	0.06567 0.01006 0.86011 -0.25400
O 	O 	0.82470 0.01626 0.80873 -0.15300
H 	H 	0.88843 0.02916 0.88706 0.05500
O 	O 	0.18050 0.01921 0.93016 -0.32400
H 	H 	0.11402 0.00257 0.85304 0.12800
H 	H 	0.75001 0.69272 0.76096 0.16000
H 	H 	0.75929 0.94032 0.81295 0.07000
H 	H 	0.24655 0.09340 0.92334 0.16800
H 	H 	0.06796 0.19485 0.74943 0.14500
C 	C 	0.97054 0.97206 0.35105 -0.13800
C 	C 	0.03888 0.94791 0.35637 -0.12100
C 	C 	0.05227 0.87487 0.39341 0.06600
C 	C 	0.99692 0.82578 0.42446 0.10700
C 	C 	0.93323 0.85398 0.42045 -0.16100
C 	C 	0.91791 0.92559 0.38295 0.21900
C 	C 	0.09856 0.00135 0.32356 0.19100
O 	O 	0.12527 0.85685 0.40065 -0.27800
H 	H 	0.00863 0.76998 0.45288 -0.03500
O 	O 	0.85305 0.95141 0.37757 -0.30300
H 	H 	0.95904 0.02759 0.32238 0.14900
C 	C 	0.07572 0.94103 0.30084 -0.03600
C 	C 	0.13126 0.99295 0.26936 -0.07500
C 	C 	0.19861 0.10565 0.25649 -0.07000
C 	C 	0.22791 0.16536 0.28131 0.20700
C 	C 	0.17870 0.11293 0.31499 -0.16700
O 	O 	0.99664 0.83202 0.30834 -0.19300
H 	H 	0.11201 0.94588 0.25173 0.03100
O 	O 	0.30460 0.27481 0.27270 -0.27700
H 	H 	0.20044 0.15943 0.33358 0.10100
H 	H 	0.77808 0.89759 0.36369 0.15000
H 	H 	0.92704 0.82227 0.28883 0.14300
H 	H 	0.26175 0.30497 0.25453 0.15100
H 	H 	0.08022 0.78964 0.39193 0.14500
C 	C 	0.03689 0.26435 0.63854 -0.08500
C 	C 	0.97771 0.19168 0.62138 0.05300
C 	C 	0.40289 0.54573 0.66693 0.03300
C 	C 	0.47932 0.59740 0.65178 -0.07700
C 	C 	0.14448 0.58026 0.65900 0.02100
C 	C 	0.12953 0.64744 0.64841 -0.09400
C 	C 	0.32242 0.56779 0.11226 0.02900
C 	C 	0.25810 0.48212 0.10344 -0.08800
C 	C 	0.79227 0.87546 0.17666 -0.07100
C 	C 	0.69613 0.83408 0.16928 0.01000
C 	C 	0.39499 0.93742 0.12417 -0.19300
C 	C 	0.41621 0.87615 0.13345 0.06200
C 	C 	0.66059 0.09696 0.49125 -0.08900
C 	C 	0.63699 0.15411 0.48503 0.06300
C 	C 	0.70279 0.42214 0.52154 0.04500
C 	C 	0.75645 0.47915 0.54507 -0.08300
C 	C 	0.27360 0.08062 0.50345 0.05800
C 	C 	0.35598 0.13968 0.49118 -0.01800
C 	C 	0.83788 0.22342 0.04912 -0.05900
C 	C 	0.81317 0.28225 0.03835 0.04300
C 	C 	0.92786 0.60128 0.05588 0.01000
C 	C 	0.99580 0.68392 0.06669 0.00100
C 	C 	0.54719 0.33719 0.00693 0.04600
C 	C 	0.45239 0.29564 0.00213 -0.09700
