data_crystal

_cell_length_a 25.91284
_cell_length_b 27.31635
_cell_length_c 46.63925
_cell_angle_alpha 60.79944
_cell_angle_beta  118.90259
_cell_angle_gamma 133.26877

_symmetry_space_group_name_	'P 1'
_symmetry_space_group_name_H-M	'P 1'

loop_
_symmetry_equiv_pos_as_xyz
  x,y,z

loop_
_atom_site_label
_atom_site_type_symbol
_atom_site_fract_x
_atom_site_fract_y
_atom_site_fract_z
_atom_site_charge
C 	C 	0.78828 0.34430 0.01658 -0.01700
C 	C 	0.83876 0.41397 0.01896 -0.03000
C 	C 	0.82077 0.44117 0.02853 -0.01600
C 	C 	0.75294 0.39957 0.03564 -0.02500
C 	C 	0.70181 0.33092 0.03268 -0.02000
C 	C 	0.71931 0.30355 0.02293 -0.02000
H 	H 	0.74059 0.42042 0.04415 0.04700
H 	H 	0.67972 0.25029 0.02081 0.06000
C 	C 	0.67551 0.29894 0.50042 -0.01800
C 	C 	0.60107 0.25222 0.50086 -0.03100
C 	C 	0.56799 0.27295 0.50432 -0.01800
C 	C 	0.60861 0.34081 0.50647 -0.02400
C 	C 	0.68313 0.38686 0.50714 -0.01900
C 	C 	0.71582 0.36683 0.50283 -0.02000
H 	H 	0.56961 0.19922 0.49991 0.03700
H 	H 	0.58331 0.35659 0.50957 0.05200
C 	C 	0.31656 0.65315 0.18569 -0.01500
C 	C 	0.38773 0.70398 0.18050 -0.01900
C 	C 	0.41657 0.68989 0.16911 -0.01600
C 	C 	0.37313 0.62641 0.16113 -0.02200
C 	C 	0.30258 0.57525 0.16649 -0.01600
C 	C 	0.27501 0.58777 0.17966 -0.03000
H 	H 	0.42094 0.75396 0.18572 0.06300
H 	H 	0.39465 0.61654 0.15119 0.05300
H 	H 	0.22163 0.54676 0.18512 0.04100
C 	C 	0.22229 0.60571 0.67825 -0.01500
C 	C 	0.29345 0.65170 0.67336 -0.02400
C 	C 	0.31937 0.63004 0.66505 -0.01700
C 	C 	0.27334 0.56321 0.66030 -0.02100
C 	C 	0.20186 0.51739 0.66431 -0.01600
C 	C 	0.17682 0.53782 0.67413 -0.02600
H 	H 	0.32932 0.70357 0.67695 0.05700
H 	H 	0.29326 0.54664 0.65369 0.05300
H 	H 	0.12279 0.50083 0.67886 0.04500
Co	Co	0.11278 0.03456 0.06927 1.17200
Co	Co	0.05330 0.08548 0.08888 1.18600
C 	C 	0.25497 0.05527 0.08323 0.21300
Co	Co	0.11931 0.92001 0.06967 1.17000
O 	O 	0.11580 0.11606 0.06124 -0.46900
C 	C 	0.11486 0.17425 0.13552 0.26200
C 	C 	0.11347 0.83692 0.14217 0.27000
O 	O 	0.13634 0.99838 0.02515 -0.35800
O 	O 	0.05880 0.12397 0.14986 -0.37500
O 	O 	0.12123 0.16964 0.11031 -0.36900
O 	O 	0.10101 0.83591 0.11152 -0.38600
O 	O 	0.08870 0.85984 0.14773 -0.36800
O 	O 	0.08888 0.95366 0.08672 -0.74800
O 	O 	0.22253 0.98775 0.09445 -0.34300
O 	O 	0.22388 0.08350 0.07784 -0.35800
Co	Co	0.04100 0.00093 0.56543 1.17200
Co	Co	0.97732 0.04492 0.58727 1.16900
C 	C 	0.18523 0.02203 0.59087 0.21200
Co	Co	0.06004 0.89049 0.56991 1.17300
O 	O 	0.04307 0.08042 0.55987 -0.46700
C 	C 	0.04139 0.12283 0.63821 0.27400
C 	C 	0.05407 0.81514 0.64183 0.27200
O 	O 	0.08907 0.97220 0.52718 -0.40900
O 	O 	0.98844 0.07532 0.65430 -0.40600
O 	O 	0.05540 0.10527 0.62231 -0.38500
O 	O 	0.03873 0.80782 0.61234 -0.37600
O 	O 	0.03772 0.84933 0.64397 -0.37400
O 	O 	0.01161 0.91828 0.57848 -0.75100
O 	O 	0.15858 0.95653 0.59811 -0.32800
O 	O 	0.14860 0.03901 0.59138 -0.38700
C 	C 	0.97982 0.93914 0.78989 -0.00100
C 	C 	0.03128 0.98513 0.77005 -0.00800
C 	C 	0.01323 0.97495 0.73892 0.06200
C 	C 	0.99444 0.95523 0.82019 0.05600
C 	C 	0.01422 0.98223 0.87708 0.02100
C 	C 	0.01610 0.02933 0.84538 -0.06300
C 	C 	0.00618 0.01587 0.81707 -0.08000
C 	C 	0.02797 0.99786 0.90732 0.10200
C 	C 	0.11340 0.06387 0.95009 0.05200
C 	C 	0.09627 0.05507 0.91877 -0.13700
H 	H 	0.08419 0.03006 0.77816 0.01100
H 	H 	0.05179 0.01291 0.72294 0.00300
H 	H 	0.02515 0.07628 0.84268 0.04200
H 	H 	0.00683 0.05217 0.79266 0.04400
H 	H 	0.16774 0.10596 0.95955 0.02400
H 	H 	0.13724 0.09087 0.90416 0.06100
C 	C 	0.12188 0.34573 0.66996 0.11000
C 	C 	0.12891 0.29109 0.68674 -0.08400
C 	C 	0.13508 0.26820 0.66808 0.00500
C 	C 	0.13050 0.29564 0.63381 0.12200
C 	C 	0.12366 0.35044 0.61708 -0.09700
C 	C 	0.11660 0.37270 0.63566 0.02900
O 	O 	0.14463 0.39028 0.68668 -0.21200
C 	C 	0.15398 0.44718 0.65919 0.12400
C 	C 	0.13726 0.43703 0.62870 -0.10600
O 	O 	0.10667 0.25076 0.61698 -0.19300
C 	C 	0.09449 0.19273 0.64413 0.03800
C 	C 	0.11209 0.20308 0.67474 -0.05300
H 	H 	0.13169 0.26861 0.71358 0.06300
H 	H 	0.12056 0.37275 0.59021 0.07000
H 	H 	0.15940 0.47837 0.60716 0.06500
H 	H 	0.08916 0.16195 0.69615 0.05100
C 	C 	0.49378 0.70444 0.66102 0.11300
C 	C 	0.53693 0.69694 0.65594 -0.08500
C 	C 	0.57206 0.74458 0.62917 0.01000
C 	C 	0.56812 0.79987 0.60941 0.12100
C 	C 	0.52398 0.80667 0.61419 -0.09300
C 	C 	0.48964 0.75951 0.64122 0.03000
O 	O 	0.43603 0.64883 0.67651 -0.21300
C 	C 	0.39625 0.67549 0.66364 0.12600
C 	C 	0.42759 0.74129 0.64248 -0.10500
O 	O 	0.62758 0.85652 0.59515 -0.18000
C 	C 	0.66844 0.83066 0.60890 0.04900
C 	C 	0.63549 0.76383 0.62900 -0.05500
H 	H 	0.54133 0.65436 0.67171 0.06800
H 	H 	0.51965 0.84932 0.59850 0.07600
H 	H 	0.39778 0.76241 0.62304 0.06700
C 	C 	0.08062 0.68741 0.69466 0.12100
C 	C 	0.06721 0.62913 0.69334 -0.09200
C 	C 	0.12716 0.62969 0.70115 0.02700
C 	C 	0.19747 0.68887 0.70540 0.11600
C 	C 	0.21055 0.74919 0.70377 -0.08500
C 	C 	0.15126 0.74550 0.70072 0.01400
O 	O 	0.02908 0.70118 0.67767 -0.18300
C 	C 	0.07519 0.77337 0.67236 0.04800
C 	C 	0.14802 0.79993 0.68659 -0.05500
O 	O 	0.24613 0.69107 0.69889 -0.21300
C 	C 	0.19795 0.62811 0.68968 0.12400
C 	C 	0.12671 0.59136 0.69070 -0.10300
H 	H 	0.01234 0.58704 0.68430 0.07300
H 	H 	0.26398 0.79823 0.70261 0.07500
H 	H 	0.19241 0.85260 0.67766 0.06600
H 	H 	0.07911 0.55394 0.67602 0.06200
C 	C 	0.20929 0.31134 0.17045 0.11800
C 	C 	0.20018 0.33871 0.18501 -0.09600
C 	C 	0.20640 0.40059 0.16658 0.02700
C 	C 	0.22724 0.43734 0.13639 0.11400
C 	C 	0.23812 0.41099 0.12217 -0.08500
C 	C 	0.23047 0.34827 0.14022 0.01000
O 	O 	0.17284 0.24046 0.17717 -0.19400
C 	C 	0.17153 0.23785 0.14761 0.04300
C 	C 	0.20676 0.30195 0.12573 -0.05600
O 	O 	0.25934 0.50753 0.12851 -0.21300
C 	C 	0.25679 0.50944 0.15721 0.12500
C 	C 	0.22546 0.44596 0.18008 -0.10700
H 	H 	0.18453 0.31061 0.20893 0.06600
H 	H 	0.25348 0.43909 0.09818 0.07100
H 	H 	0.19474 0.31008 0.09872 0.06300
H 	H 	0.23669 0.43911 0.20686 0.06200
C 	C 	0.57533 0.81632 0.13832 0.11500
C 	C 	0.60324 0.85512 0.10939 -0.08300
C 	C 	0.64542 0.84435 0.10585 0.01200
C 	C 	0.66240 0.79943 0.13074 0.12200
C 	C 	0.63441 0.76066 0.15966 -0.09500
C 	C 	0.59335 0.77237 0.16346 0.02800
O 	O 	0.51167 0.80034 0.13844 -0.20700
C 	C 	0.49234 0.74160 0.16553 0.12600
C 	C 	0.54100 0.72494 0.18071 -0.10500
O 	O 	0.72634 0.81552 0.13094 -0.19200
C 	C 	0.74805 0.87621 0.10497 0.04900
C 	C 	0.69952 0.89315 0.08957 -0.05400
H 	H 	0.59068 0.89091 0.08983 0.07500
H 	H 	0.64702 0.72493 0.17927 0.07000
H 	H 	0.52721 0.67348 0.19501 0.06300
H 	H 	0.71392 0.94503 0.07603 0.06600
C 	C 	0.15045 0.71465 0.19509 0.12200
C 	C 	0.14373 0.65846 0.19601 -0.09400
C 	C 	0.20737 0.66310 0.20650 0.02800
C 	C 	0.27557 0.72430 0.21145 0.11600
C 	C 	0.28229 0.78235 0.20798 -0.08400
C 	C 	0.21868 0.77450 0.20213 0.01300
O 	O 	0.09622 0.72470 0.17554 -0.18900
C 	C 	0.13835 0.79627 0.17085 0.04800
C 	C 	0.21125 0.82638 0.18654 -0.05600
O 	O 	0.32956 0.73070 0.20710 -0.21300
C 	C 	0.28696 0.66830 0.19832 0.12500
C 	C 	0.21396 0.62788 0.19772 -0.10500
H 	H 	0.09135 0.61496 0.18645 0.07100
H 	H 	0.33447 0.83284 0.20747 0.07400
H 	H 	0.25471 0.88028 0.17837 0.06100
H 	H 	0.16984 0.59047 0.18256 0.06400
C 	C 	0.72554 0.15732 0.49851 -0.09700
C 	C 	0.72931 0.20176 0.50759 0.02400
O 	O 	0.78915 0.30911 0.51498 -0.21700
C 	C 	0.71379 0.27509 0.50161 0.12200
C 	C 	0.67782 0.21107 0.49686 -0.10800
H 	H 	0.67350 0.11171 0.49054 0.06400
H 	H 	0.62542 0.18463 0.47974 0.05800
C 	C 	0.75050 0.54797 0.55578 -0.09400
C 	C 	0.76237 0.52261 0.54148 0.02900
C 	C 	0.72856 0.45255 0.51645 0.12500
C 	C 	0.72763 0.45549 0.54488 -0.10700
H 	H 	0.73276 0.51850 0.57921 0.07100
H 	H 	0.68863 0.41272 0.56043 0.06300
C 	C 	0.35667 0.11072 0.57999 0.11700
C 	C 	0.39615 0.10304 0.57203 -0.09900
C 	C 	0.41495 0.14120 0.54069 0.02200
C 	C 	0.40062 0.18936 0.51919 0.11100
C 	C 	0.36163 0.19751 0.52721 -0.08900
C 	C 	0.34196 0.15871 0.55841 0.01000
O 	O 	0.30857 0.05711 0.60084 -0.20300
C 	C 	0.26155 0.07551 0.58877 0.05300
C 	C 	0.28188 0.13668 0.56392 -0.06400
O 	O 	0.44772 0.24198 0.49776 -0.21700
C 	C 	0.49302 0.22189 0.50913 0.12200
C 	C 	0.47337 0.16149 0.53452 -0.10900
H 	H 	0.40867 0.06606 0.58899 0.06000
H 	H 	0.34897 0.23438 0.51018 0.06700
H 	H 	0.24423 0.14922 0.54511 0.05200
H 	H 	0.51078 0.14838 0.55288 0.05800
C 	C 	0.81128 0.23334 0.01322 0.11400
C 	C 	0.79060 0.17446 0.00873 -0.09100
O 	O 	0.76248 0.23986 0.01300 -0.21900
C 	C 	0.80817 0.31171 0.00976 0.12000
C 	C 	0.87792 0.34459 0.00794 -0.10100
H 	H 	0.73797 0.12551 0.01198 0.05900
C 	C 	0.87390 0.51230 0.03281 0.12100
C 	C 	0.86997 0.56502 0.00733 -0.10300
H 	H 	0.83193 0.55830 0.98287 0.06000
C 	C 	0.41601 0.18417 0.05368 0.11800
C 	C 	0.47882 0.25145 0.04675 -0.09700
C 	C 	0.54314 0.25929 0.05430 0.02900
C 	C 	0.54451 0.20293 0.06620 0.11100
C 	C 	0.48161 0.13558 0.07311 -0.08800
C 	C 	0.41719 0.12775 0.06545 0.00800
O 	O 	0.35974 0.17044 0.06024 -0.19000
C 	C 	0.32845 0.10078 0.07781 0.05200
C 	C 	0.36215 0.07501 0.08084 -0.07300
O 	O 	0.60077 0.21671 0.05956 -0.21700
C 	C 	0.63168 0.28629 0.04187 0.12500
C 	C 	0.59777 0.31197 0.03870 -0.10900
H 	H 	0.47823 0.29611 0.03700 0.07100
H 	H 	0.48217 0.09090 0.08287 0.06000
H 	H 	0.35643 0.02810 0.09868 0.04500
H 	H 	0.60182 0.35767 0.02006 0.06300
H 	H 	0.89196 0.44649 0.01404 0.04200
H 	H 	0.77340 0.40286 0.50312 0.05800
Co	Co	0.96809 0.94635 0.13041 1.19900
Co	Co	0.02721 0.89526 0.11058 1.19000
Co	Co	0.95356 0.06146 0.12356 1.15100
C 	C 	0.96008 0.81180 0.06203 0.25500
O 	O 	0.97527 0.14159 0.08007 -0.39600
O 	O 	0.99977 0.02974 0.11639 -0.80000
C 	C 	0.95749 0.13041 0.05127 0.27100
O 	O 	0.96311 0.86414 0.13754 -0.46000
C 	C 	0.82519 0.92868 0.10388 0.26300
O 	O 	0.06395 0.99779 0.11095 -0.55100
C 	C 	0.08786 0.01156 0.00665 0.27500
O 	O 	0.97438 0.09598 0.04993 -0.39800
O 	O 	0.06093 0.01888 0.02087 -0.40400
O 	O 	0.85328 0.99474 0.09636 -0.36100
O 	O 	0.86093 0.90993 0.10413 -0.36700
C 	C 	0.96576 0.96205 0.18949 0.31400
O 	O 	0.92433 0.98245 0.16714 -0.38700
O 	O 	0.98877 0.94219 0.18037 -0.37400
O 	O 	0.01201 0.85712 0.04552 -0.36200
O 	O 	0.94739 0.83220 0.07695 -0.37700
Co	Co	0.89439 0.90354 0.62769 1.19000
Co	Co	0.95808 0.85994 0.60581 1.18700
Co	Co	0.88187 0.01183 0.62940 1.14600
C 	C 	0.89654 0.78126 0.55449 0.26100
O 	O 	0.90030 0.09838 0.58905 -0.39800
O 	O 	0.91554 0.98338 0.61106 -0.73800
C 	C 	0.89073 0.10214 0.55783 0.27200
O 	O 	0.89425 0.82464 0.63418 -0.46200
C 	C 	0.74736 0.87781 0.61145 0.26100
O 	O 	0.94399 0.94519 0.58530 -0.56300
C 	C 	0.04607 0.99096 0.50529 0.41400
O 	O 	0.91459 0.07970 0.55123 -0.38400
O 	O 	0.02143 0.00830 0.51504 -0.43900
O 	O 	0.77999 0.94533 0.60297 -0.34400
O 	O 	0.78307 0.85124 0.62111 -0.36600
C 	C 	0.91628 0.92097 0.69108 0.31200
O 	O 	0.86548 0.93115 0.67290 -0.39100
O 	O 	0.94584 0.91767 0.67633 -0.39000
O 	O 	0.95605 0.82816 0.54240 -0.38000
O 	O 	0.89575 0.77832 0.58369 -0.35700
C 	C 	0.94343 0.91905 0.72727 -0.10000
C 	C 	0.89408 0.87038 0.74826 0.02000
C 	C 	0.91214 0.88037 0.77940 -0.05200
C 	C 	0.99280 0.90824 0.85192 -0.05800
C 	C 	0.00262 0.92166 0.88022 -0.01700
C 	C 	0.97504 0.95251 0.92630 -0.10500
C 	C 	0.99215 0.96154 0.95760 0.08500
C 	C 	0.06244 0.01558 0.97027 -0.14200
H 	H 	0.84014 0.82691 0.73959 0.03500
H 	H 	0.87228 0.84411 0.79465 0.04900
H 	H 	0.98379 0.86131 0.85464 0.05000
H 	H 	0.00185 0.88531 0.90462 0.04400
H 	H 	0.92168 0.90883 0.91744 0.06600
H 	H 	0.95234 0.92392 0.97293 0.03600
C 	C 	0.03426 0.00206 0.46909 -0.21900
C 	C 	0.96438 0.95904 0.45052 0.11700
C 	C 	0.95558 0.95562 0.41930 -0.12400
C 	C 	0.01665 0.99547 0.40635 0.11300
C 	C 	0.08588 0.04189 0.42388 -0.15600
C 	C 	0.09462 0.04519 0.45507 0.08600
C 	C 	0.00892 0.98513 0.37576 0.02100
C 	C 	0.98274 0.92010 0.37554 -0.02700
C 	C 	0.97845 0.91102 0.34720 -0.06300
C 	C 	0.00046 0.96690 0.31884 0.08000
C 	C 	0.02665 0.03192 0.31905 -0.09400
C 	C 	0.03084 0.04098 0.34736 -0.05800
C 	C 	0.99281 0.95660 0.28827 -0.01300
C 	C 	0.92336 0.91231 0.26996 -0.04600
C 	C 	0.91508 0.90937 0.23877 0.01800
C 	C 	0.97615 0.95065 0.22557 -0.09600
C 	C 	0.04604 0.99139 0.24491 0.05900
C 	C 	0.05435 0.99456 0.27611 -0.00100
H 	H 	0.91743 0.92536 0.46112 0.01500
H 	H 	0.90171 0.92038 0.40574 0.06800
H 	H 	0.13330 0.07336 0.41400 0.06500
H 	H 	0.14881 0.07878 0.46914 0.01000
H 	H 	0.96636 0.87681 0.39744 0.04100
H 	H 	0.95808 0.86063 0.34730 0.05200
H 	H 	0.04310 0.07522 0.29716 0.04900
H 	H 	0.05111 0.09136 0.34723 0.04000
H 	H 	0.87556 0.88227 0.27925 0.04800
H 	H 	0.86087 0.87746 0.22412 0.04000
H 	H 	0.09355 0.02351 0.23498 0.00100
H 	H 	0.10833 0.02813 0.29028 0.01000
H 	H 	0.66464 0.74238 0.64897 0.06000
C 	C 	0.79449 0.25966 0.51777 0.11300
C 	C 	0.86025 0.27431 0.52109 -0.08700
C 	C 	0.85716 0.22827 0.51353 0.00900
C 	C 	0.79114 0.16928 0.50369 0.11900
O 	O 	0.79474 0.11493 0.51271 -0.19600
C 	C 	0.86784 0.14536 0.53016 0.04200
C 	C 	0.90565 0.21332 0.53001 -0.05600
H 	H 	0.91201 0.31927 0.52977 0.06600
H 	H 	0.95433 0.23888 0.54896 0.05800
C 	C 	0.76821 0.61507 0.54059 0.12000
C 	C 	0.78300 0.55848 0.51128 0.11200
C 	C 	0.79923 0.62494 0.49554 -0.08500
C 	C 	0.79056 0.65199 0.51061 0.00900
O 	O 	0.79232 0.65658 0.55950 -0.18400
C 	C 	0.83508 0.72176 0.53935 0.04600
C 	C 	0.83284 0.71949 0.50976 -0.05700
O 	O 	0.76350 0.51684 0.49378 -0.21300
H 	H 	0.81738 0.65437 0.47223 0.06600
H 	H 	0.87470 0.76030 0.49553 0.05700
C 	C 	0.91027 0.24172 0.99903 0.11400
C 	C 	0.92808 0.30165 0.00116 -0.08900
C 	C 	0.87869 0.29411 0.01047 0.02200
C 	C 	0.84167 0.17971 0.00175 0.00900
O 	O 	0.96372 0.23285 0.00879 -0.18800
C 	C 	0.92327 0.16068 0.02062 0.03800
C 	C 	0.84985 0.12873 0.01471 -0.06000
H 	H 	0.98152 0.35032 0.99926 0.06700
H 	H 	0.81383 0.07760 0.02913 0.04400
H 	H 	0.91495 0.39916 0.99706 0.05900
C 	C 	0.86888 0.66986 0.03298 0.11700
C 	C 	0.86969 0.65146 0.00996 -0.09200
C 	C 	0.89369 0.61004 0.02272 0.02400
C 	C 	0.91179 0.58414 0.05693 0.11400
C 	C 	0.91062 0.60227 0.07994 -0.08800
C 	C 	0.88624 0.64340 0.06720 0.01400
O 	O 	0.87844 0.73136 0.02484 -0.18600
C 	C 	0.90660 0.74137 0.05727 0.04900
C 	C 	0.90957 0.68813 0.08266 -0.06400
O 	O 	0.90300 0.52302 0.06514 -0.21400
H 	H 	0.85489 0.67107 0.98301 0.06600
H 	H 	0.92561 0.58281 0.10690 0.06900
H 	H 	0.94695 0.69424 0.10731 0.06000
