data_crystal

_cell_length_a 26.06577
_cell_length_b 26.64243
_cell_length_c 40.08149
_cell_angle_alpha 95.48534
_cell_angle_beta  95.48057
_cell_angle_gamma 125.91525

_symmetry_space_group_name_	'P 1'
_symmetry_space_group_name_H-M	'P 1'

loop_
_symmetry_equiv_pos_as_xyz
  x,y,z

loop_
_atom_site_label
_atom_site_type_symbol
_atom_site_fract_x
_atom_site_fract_y
_atom_site_fract_z
_atom_site_charge
C 	C 	0.00597 0.07229 0.01004 0.14500
C 	C 	0.09683 0.06764 0.01455 0.10900
C 	C 	0.07205 0.10204 0.01113 -0.04600
H 	H 	0.10379 0.15139 0.00922 0.14600
H 	H 	0.97875 0.04131 0.45529 0.11800
Cu	Cu	0.69027 0.29932 0.00997 0.94000
Cu	Cu	0.69789 0.25758 0.93173 0.92200
Cu	Cu	0.69699 0.37816 0.95735 0.92700
Cu	Cu	0.69149 0.41907 0.02983 0.92100
C 	C 	0.71254 0.35482 0.08005 0.31300
O 	O 	0.59815 0.25562 0.01726 -0.28100
C 	C 	0.69328 0.33578 0.88944 0.28600
O 	O 	0.73208 0.39345 0.00450 -0.62800
O 	O 	0.66185 0.28896 0.96028 -0.61500
O 	O 	0.74447 0.26842 0.00962 -0.28400
O 	O 	0.69025 0.20033 0.95877 -0.35000
O 	O 	0.72035 0.40663 0.07401 -0.33700
O 	O 	0.73788 0.46590 0.95584 -0.31100
C 	C 	0.73977 0.50504 0.97962 0.29500
C 	C 	0.56818 0.28131 0.01316 0.28700
O 	O 	0.59767 0.33609 0.00346 -0.34200
O 	O 	0.70432 0.48438 0.00347 -0.30100
O 	O 	0.72416 0.32383 0.05816 -0.31400
C 	C 	0.73234 0.22184 0.98700 0.30000
O 	O 	0.67072 0.35903 0.90826 -0.32600
O 	O 	0.73018 0.32266 0.90435 -0.35600
H 	H 	0.77979 0.42298 0.00987 0.21200
H 	H 	0.61424 0.26102 0.95368 0.18500
Cu	Cu	0.69005 0.28750 0.45150 0.94000
Cu	Cu	0.72231 0.27203 0.53013 0.92700
Cu	Cu	0.60004 0.27134 0.50030 0.92900
Cu	Cu	0.56658 0.28322 0.42807 0.92300
C 	C 	0.64294 0.27365 0.38085 0.33000
O 	O 	0.73355 0.37926 0.44731 -0.28000
C 	C 	0.63798 0.27529 0.56931 0.30400
O 	O 	0.59144 0.24215 0.45311 -0.62900
O 	O 	0.69311 0.30893 0.50098 -0.61200
O 	O 	0.72296 0.23537 0.45150 -0.28200
O 	O 	0.78369 0.28081 0.50505 -0.34900
O 	O 	0.58801 0.26354 0.38469 -0.32500
O 	O 	0.50889 0.22827 0.49857 -0.30600
C 	C 	0.47027 0.22606 0.47367 0.29900
C 	C 	0.70481 0.40617 0.45154 0.28800
O 	O 	0.64659 0.37348 0.45865 -0.34200
O 	O 	0.49326 0.26290 0.45086 -0.30000
O 	O 	0.67197 0.26015 0.40297 -0.30500
C 	C 	0.76403 0.24131 0.47638 0.30400
O 	O 	0.61361 0.29529 0.54923 -0.31500
O 	O 	0.65357 0.24001 0.55606 -0.34200
H 	H 	0.56255 0.19558 0.44633 0.21600
H 	H 	0.72021 0.35515 0.50907 0.18500
C 	C 	0.68482 0.33263 0.85206 -0.05300
C 	C 	0.72576 0.32865 0.83343 0.02700
C 	C 	0.71561 0.32213 0.79792 -0.04000
C 	C 	0.66459 0.31964 0.78060 0.04300
C 	C 	0.62442 0.32488 0.79913 -0.03800
C 	C 	0.63439 0.33127 0.83469 0.03100
C 	C 	0.65228 0.30976 0.74301 0.02400
C 	C 	0.66389 0.35873 0.72652 -0.01700
C 	C 	0.65727 0.35101 0.69095 -0.00800
C 	C 	0.63884 0.29425 0.67170 0.02400
C 	C 	0.62554 0.24474 0.68807 -0.00900
C 	C 	0.63222 0.25243 0.72360 -0.01800
C 	C 	0.63742 0.28812 0.63544 0.08300
C 	C 	0.63715 0.28250 0.60518 -0.04600
H 	H 	0.76532 0.33038 0.84640 0.08300
H 	H 	0.74719 0.31863 0.78382 0.08600
H 	H 	0.58492 0.32305 0.78595 0.09400
H 	H 	0.60225 0.33406 0.84863 0.08700
H 	H 	0.67933 0.40313 0.74128 0.08800
H 	H 	0.66758 0.38949 0.67847 0.09000
H 	H 	0.61115 0.20070 0.67336 0.08800
H 	H 	0.62282 0.21424 0.73609 0.08000
C 	C 	0.70930 0.34268 0.11537 -0.03200
C 	C 	0.73004 0.30836 0.12754 0.04200
C 	C 	0.72753 0.29800 0.16114 -0.03500
C 	C 	0.70429 0.32175 0.18284 0.05100
C 	C 	0.68282 0.35523 0.17060 -0.03500
C 	C 	0.68519 0.36555 0.13708 0.05000
C 	C 	0.70204 0.31142 0.21835 0.02500
C 	C 	0.65860 0.25057 0.22505 -0.01300
C 	C 	0.65082 0.24185 0.25859 -0.00800
C 	C 	0.68650 0.29385 0.28560 0.03200
C 	C 	0.73174 0.35430 0.27907 -0.00800
C 	C 	0.73955 0.36308 0.24557 -0.01300
C 	C 	0.67246 0.28607 0.31944 0.09400
C 	C 	0.65961 0.28010 0.34760 -0.01700
H 	H 	0.74866 0.29026 0.11119 0.08900
H 	H 	0.74402 0.27192 0.17036 0.09300
H 	H 	0.66407 0.37307 0.18706 0.09400
H 	H 	0.66781 0.39096 0.12791 0.08300
H 	H 	0.62951 0.21038 0.20423 0.09200
H 	H 	0.61583 0.19495 0.26344 0.09100
H 	H 	0.75960 0.39470 0.29984 0.11200
H 	H 	0.77354 0.41018 0.24067 0.08700
C 	C 	0.74162 0.47567 0.45488 0.01000
C 	C 	0.78281 0.50936 0.43187 -0.06000
H 	H 	0.69751 0.48166 0.49636 0.10300
C 	C 	0.79617 0.47690 0.40458 0.77900
F 	F 	0.83356 0.46109 0.41969 -0.40100
F 	F 	0.82896 0.51558 0.38185 -0.40400
F 	F 	0.73889 0.42310 0.38599 -0.44400
C 	C 	0.81515 0.03270 0.43407 0.03600
C 	C 	0.81864 0.05969 0.46678 0.09500
C 	C 	0.83300 0.04045 0.49578 -0.09300
C 	C 	0.80590 0.10729 0.47026 0.09800
C 	C 	0.82794 0.06192 0.53104 0.78800
H 	H 	0.80193 0.04607 0.41199 0.12900
C 	C 	0.85535 0.17190 0.47061 -0.09700
C 	C 	0.84037 0.21493 0.47251 0.08300
C 	C 	0.77776 0.19477 0.47457 0.00300
C 	C 	0.72881 0.13041 0.47505 -0.06300
C 	C 	0.74299 0.08698 0.47137 0.04000
C 	C 	0.92270 0.19422 0.46649 0.78900
H 	H 	0.87720 0.26412 0.47191 0.10700
C 	C 	0.66090 0.10742 0.47827 0.78100
H 	H 	0.70509 0.03710 0.46952 0.13200
F 	F 	0.76465 0.03830 0.53165 -0.39900
F 	F 	0.86645 0.12709 0.53906 -0.38200
F 	F 	0.84732 0.04092 0.55607 -0.38800
F 	F 	0.62465 0.04680 0.48504 -0.38700
F 	F 	0.63025 0.10727 0.44810 -0.42200
F 	F 	0.66279 0.14620 0.50469 -0.48100
F 	F 	0.96568 0.25942 0.47210 -0.38500
F 	F 	0.92076 0.17083 0.43371 -0.39900
F 	F 	0.94604 0.17349 0.48952 -0.38500
C 	C 	0.15937 0.06116 0.43250 0.06200
C 	C 	0.19606 0.08312 0.46556 0.08100
C 	C 	0.16532 0.07157 0.49420 -0.07200
C 	C 	0.09780 0.03580 0.48887 0.03600
C 	C 	0.06093 0.01072 0.45578 0.08900
C 	C 	0.09174 0.02464 0.42722 -0.10000
C 	C 	0.26691 0.11918 0.46986 0.10200
C 	C 	0.20447 0.09966 0.53034 0.78300
H 	H 	0.07345 0.02641 0.51046 0.11600
H 	H 	0.18377 0.07190 0.41091 0.12700
C 	C 	0.29580 0.08801 0.46615 -0.09300
C 	C 	0.36290 0.12424 0.46804 0.07600
C 	C 	0.40132 0.19028 0.47496 0.01100
C 	C 	0.37289 0.22122 0.48128 -0.05000
C 	C 	0.30544 0.18525 0.47654 0.03700
C 	C 	0.25492 0.01641 0.45759 0.76500
H 	H 	0.38529 0.10118 0.46325 0.09600
C 	C 	0.41388 0.29250 0.49186 0.77900
H 	H 	0.28266 0.20856 0.47826 0.13800
F 	F 	0.23745 0.16436 0.53623 -0.38800
F 	F 	0.24824 0.08627 0.53497 -0.37700
F 	F 	0.16552 0.07570 0.55445 -0.37800
F 	F 	0.43300 0.32007 0.46357 -0.39100
F 	F 	0.46787 0.31466 0.51590 -0.39500
F 	F 	0.37974 0.31089 0.50621 -0.36700
C 	C 	0.66544 0.55285 0.95885 0.77900
F 	F 	0.64411 0.58330 0.94326 -0.36900
F 	F 	0.63749 0.53472 0.98726 -0.39400
C 	C 	0.92528 0.14813 0.03193 0.05300
C 	C 	0.90163 0.14878 0.99920 0.08400
C 	C 	0.92134 0.13401 0.97044 -0.08100
C 	C 	0.96053 0.11403 0.97501 0.04700
C 	C 	0.97959 0.10827 0.00744 0.04400
C 	C 	0.96496 0.12878 0.03646 -0.07300
C 	C 	0.85727 0.16645 0.99545 0.10000
C 	C 	0.90224 0.14121 0.93517 0.78500
C 	C 	0.98841 0.12658 0.07206 0.76800
H 	H 	0.91138 0.16134 0.05379 0.12800
C 	C 	0.79029 0.12168 0.99473 -0.09900
C 	C 	0.75051 0.14130 0.99259 0.08100
C 	C 	0.77593 0.20360 0.98984 0.00200
C 	C 	0.84244 0.24753 0.98907 -0.06200
C 	C 	0.88292 0.22920 0.99395 0.03700
C 	C 	0.76189 0.05423 0.99847 0.78700
H 	H 	0.69969 0.10828 0.99331 0.10600
C 	C 	0.87089 0.31441 0.98406 0.77800
H 	H 	0.93457 0.26357 0.99612 0.13100
F 	F 	0.98114 0.16059 0.09695 -0.37300
F 	F 	0.05311 0.15217 0.07654 -0.34400
F 	F 	0.95347 0.06469 0.07666 -0.35900
F 	F 	0.93203 0.20434 0.93461 -0.39900
F 	F 	0.93166 0.34397 0.97597 -0.38700
F 	F 	0.87613 0.34929 0.01380 -0.41600
F 	F 	0.83232 0.31405 0.95766 -0.47200
F 	F 	0.78223 0.05358 0.03146 -0.39500
C 	C 	0.40114 0.17012 0.03500 0.03600
C 	C 	0.36583 0.18328 0.01400 0.10400
C 	C 	0.39714 0.22913 0.99334 -0.09900
C 	C 	0.46108 0.25449 0.99067 0.07400
C 	C 	0.49774 0.24389 0.01277 0.01300
C 	C 	0.46797 0.20329 0.03647 -0.06200
C 	C 	0.29668 0.15090 0.01515 0.08900
C 	C 	0.36426 0.25446 0.97623 0.78700
H 	H 	0.48342 0.28472 0.97232 0.10400
C 	C 	0.50670 0.19569 0.06354 0.78000
H 	H 	0.37665 0.13511 0.05086 0.13200
C 	C 	0.24796 0.09764 0.99019 -0.07900
C 	C 	0.18356 0.07510 0.98883 0.04500
C 	C 	0.16618 0.09786 0.01512 0.07200
C 	C 	0.21443 0.14469 0.04308 -0.08200
C 	C 	0.27962 0.17363 0.04153 0.05600
C 	C 	0.26406 0.06259 0.96657 0.78600
C 	C 	0.19726 0.16522 0.07410 0.78500
H 	H 	0.31729 0.21373 0.06093 0.12500
F 	F 	0.52389 0.15993 0.04856 -0.40200
F 	F 	0.47144 0.16562 0.08813 -0.40200
F 	F 	0.56149 0.25403 0.08001 -0.44900
F 	F 	0.34620 0.27865 0.00057 -0.39400
F 	F 	0.31006 0.20685 0.95269 -0.37700
F 	F 	0.40474 0.30229 0.95937 -0.38200
F 	F 	0.24768 0.19523 0.10180 -0.37300
F 	F 	0.14409 0.11382 0.08361 -0.35800
F 	F 	0.18434 0.20682 0.06678 -0.37000
F 	F 	0.29674 0.04557 0.98568 -0.39800
F 	F 	0.30236 0.10054 0.94506 -0.37800
C 	C 	0.81119 0.57408 0.43432 0.03500
C 	C 	0.79342 0.60349 0.45615 0.10200
C 	C 	0.74840 0.56860 0.47704 -0.09600
C 	C 	0.72768 0.50692 0.47834 0.07900
C 	C 	0.71810 0.59479 0.49547 0.79000
H 	H 	0.84585 0.60142 0.41851 0.13200
H 	H 	0.74958 0.64419 0.41121 0.12600
F 	F 	0.68655 0.60734 0.47195 -0.39500
F 	F 	0.76492 0.64986 0.51831 -0.37600
F 	F 	0.67358 0.55251 0.51346 -0.38100
F 	F 	0.87912 0.66825 0.52361 -0.37700
C 	C 	0.77205 0.66154 0.97465 0.03500
C 	C 	0.83963 0.70203 0.98166 0.10500
C 	C 	0.87455 0.67668 0.98421 -0.10100
C 	C 	0.84054 0.61126 0.98212 0.07800
C 	C 	0.77301 0.57113 0.97597 0.00800
C 	C 	0.73835 0.59588 0.96959 -0.05200
C 	C 	0.94786 0.71947 0.99221 0.78700
H 	H 	0.86654 0.59166 0.98666 0.09300
H 	H 	0.74577 0.68140 0.97344 0.13800
F 	F 	0.64513 0.49972 0.93579 -0.40000
F 	F 	0.97203 0.68573 0.98608 -0.38600
H 	H 	0.97427 0.10052 0.95319 0.10500
F 	F 	0.83612 0.10851 0.92700 -0.38300
H 	H 	0.14639 0.03829 0.96796 0.11200
F 	F 	0.09154 0.02253 0.36703 -0.37600
F 	F 	0.01312 0.01874 0.38813 -0.36500
F 	F 	0.92035 0.11814 0.91018 -0.38700
C 	C 	0.81958 0.67003 0.45546 0.08600
F 	F 	0.93764 0.68370 0.48263 -0.39700
C 	C 	0.87370 0.72028 0.47970 -0.07500
C 	C 	0.81553 0.74563 0.42764 -0.08600
C 	C 	0.79076 0.68301 0.42980 0.05600
C 	C 	0.91495 0.70930 0.50255 0.78500
C 	C 	0.78849 0.75866 0.39718 0.78600
F 	F 	0.75416 0.70705 0.37065 -0.37400
F 	F 	0.96765 0.76492 0.52296 -0.38200
C 	C 	0.87320 0.77096 0.98878 0.08000
C 	C 	0.88450 0.80509 0.96190 -0.07400
C 	C 	0.89347 0.80243 0.02281 0.05800
C 	C 	0.85722 0.77124 0.92485 0.78400
H 	H 	0.88306 0.77544 0.04306 0.12600
F 	F 	0.96908 0.74839 0.02620 -0.39900
F 	F 	0.97269 0.76522 0.97215 -0.38000
F 	F 	0.88064 0.81326 0.90257 -0.38000
F 	F 	0.79080 0.73662 0.91892 -0.38900
F 	F 	0.87360 0.73107 0.91757 -0.37500
C 	C 	0.89203 0.78174 0.48059 0.04300
C 	C 	0.86456 0.79527 0.45440 0.07600
H 	H 	0.93013 0.81995 0.50066 0.11200
F 	F 	0.83762 0.80910 0.38492 -0.36100
F 	F 	0.74736 0.77179 0.40670 -0.37200
C 	C 	0.91946 0.87096 0.96991 0.04200
C 	C 	0.92826 0.86829 0.03074 -0.08000
H 	H 	0.92943 0.89798 0.94971 0.11100
F 	F 	0.92329 0.85959 0.08971 -0.37100
C 	C 	0.94348 0.90279 0.00393 0.06300
C 	C 	0.95077 0.90179 0.06774 0.77200
H 	H 	0.81065 0.85725 0.46124 0.13600
C 	C 	0.89433 0.86237 0.45289 0.08300
F 	F 	0.78134 0.02859 0.97598 -0.38400
H 	H 	0.98665 0.88402 0.44763 0.12200
C 	C 	0.85987 0.88725 0.45714 -0.01900
F 	F 	0.79985 0.89848 0.39199 -0.35500
C 	C 	0.95933 0.90259 0.44986 -0.02400
F 	F 	0.01706 0.93637 0.07641 -0.35300
F 	F 	0.93376 0.94198 0.07238 -0.35900
F 	F 	0.69512 0.01599 0.99173 -0.38400
F 	F 	0.20905 0.00811 0.94668 -0.38000
C 	C 	0.96403 0.00716 0.00916 -0.09200
F 	F 	0.01487 0.93480 0.38425 -0.36300
C 	C 	0.05465 0.00280 0.01463 -0.05500
C 	C 	0.05255 0.99999 0.39122 0.81400
C 	C 	0.85089 0.99990 0.49150 0.06000
F 	F 	0.29244 0.99549 0.46129 -0.36900
F 	F 	0.22239 0.99553 0.42416 -0.38300
F 	F 	0.88753 0.99324 0.38645 -0.35200
C 	C 	0.95493 0.99127 0.45413 -0.00900
C 	C 	0.83046 0.99020 0.42977 -0.06600
H 	H 	0.86587 0.98780 0.51355 0.11100
F 	F 	0.21067 0.98959 0.47895 -0.36300
C 	C 	0.85307 0.97754 0.45894 0.07100
C 	C 	0.99011 0.96720 0.45152 0.07200
C 	C 	0.88944 0.95121 0.45610 0.08100
C 	C 	0.98820 0.97225 0.01095 0.12100
H 	H 	0.91254 0.98351 0.00639 0.15600
H 	H 	0.07328 0.97567 0.01617 0.14700
C 	C 	0.82643 0.96163 0.39412 0.78100
F 	F 	0.78814 0.96586 0.36992 -0.36600
