data_crystal

_cell_length_a 27.78769
_cell_length_b 28.17714
_cell_length_c 34.66964
_cell_angle_alpha 95.47862
_cell_angle_beta  95.46933
_cell_angle_gamma 125.74288

_symmetry_space_group_name_	'P 1'
_symmetry_space_group_name_H-M	'P 1'

loop_
_symmetry_equiv_pos_as_xyz
  x,y,z

loop_
_atom_site_label
_atom_site_type_symbol
_atom_site_fract_x
_atom_site_fract_y
_atom_site_fract_z
_atom_site_charge
C 	C 	0.96602 0.02633 0.99565 0.04800
C 	C 	0.02652 0.06020 0.99100 -0.08700
C 	C 	0.05499 0.03277 0.98612 0.05000
C 	C 	0.02306 0.97172 0.98589 -0.08700
C 	C 	0.96279 0.93797 0.99058 0.05100
C 	C 	0.93422 0.96522 0.99547 -0.08500
H 	H 	0.05121 0.10750 0.99115 0.05500
H 	H 	0.04517 0.95056 0.98217 0.05600
H 	H 	0.88741 0.93898 0.99901 0.05600
C 	C 	0.94213 0.00182 0.45209 0.04900
C 	C 	0.90871 0.94186 0.45619 -0.08400
C 	C 	0.93745 0.91440 0.45979 0.05100
C 	C 	0.99926 0.94682 0.45930 -0.08400
C 	C 	0.03251 0.00651 0.45522 0.05000
C 	C 	0.00399 0.03399 0.45157 -0.08600
H 	H 	0.86086 0.91687 0.45667 0.05600
H 	H 	0.02147 0.92561 0.46213 0.05600
H 	H 	0.02989 0.08035 0.44854 0.05500
Cu	Cu	0.63789 0.24513 0.00162 0.92700
Cu	Cu	0.68301 0.24290 0.91763 0.87200
Cu	Cu	0.68120 0.34283 0.95228 0.89900
Cu	Cu	0.64746 0.36036 0.02937 0.89500
C 	C 	0.65882 0.29071 0.08403 0.28600
O 	O 	0.55119 0.21526 0.00042 -0.36400
C 	C 	0.66096 0.30319 0.86593 0.28600
O 	O 	0.69215 0.33833 0.00676 -0.64100
O 	O 	0.63275 0.25417 0.94576 -0.64000
O 	O 	0.66995 0.19765 0.99846 -0.37300
O 	O 	0.73828 0.25581 0.96145 -0.44200
O 	O 	0.63430 0.31746 0.07443 -0.38200
O 	O 	0.73173 0.42889 0.96267 -0.38200
C 	C 	0.72719 0.46219 0.98931 0.31200
C 	C 	0.53147 0.24389 0.98645 0.30400
O 	O 	0.56995 0.29935 0.98268 -0.39200
O 	O 	0.68654 0.43888 0.01231 -0.39700
O 	O 	0.65580 0.25163 0.05755 -0.35600
C 	C 	0.72029 0.21776 0.98547 0.31000
O 	O 	0.68477 0.34789 0.89597 -0.38200
O 	O 	0.64844 0.25164 0.87120 -0.41800
H 	H 	0.73487 0.36127 0.02001 0.16400
H 	H 	0.59126 0.23303 0.93071 0.17300
Cu	Cu	0.73898 0.34298 0.45244 0.92800
Cu	Cu	0.73745 0.29528 0.53557 0.87200
Cu	Cu	0.63827 0.29961 0.50033 0.89800
Cu	Cu	0.62414 0.33627 0.42403 0.89500
C 	C 	0.69936 0.33079 0.36982 0.28700
O 	O 	0.77094 0.42941 0.45489 -0.36100
C 	C 	0.67603 0.31731 0.58672 0.28600
O 	O 	0.64452 0.29045 0.44600 -0.64100
O 	O 	0.72818 0.34652 0.50797 -0.64100
O 	O 	0.78507 0.30888 0.45529 -0.37200
O 	O 	0.72374 0.24110 0.49132 -0.44200
O 	O 	0.67033 0.35271 0.38001 -0.38200
O 	O 	0.55104 0.25061 0.48886 -0.38200
C 	C 	0.51843 0.25539 0.46147 0.30900
C 	C 	0.74165 0.44896 0.46833 0.30100
O 	O 	0.68533 0.41089 0.47190 -0.39300
O 	O 	0.54345 0.29711 0.43972 -0.39400
O 	O 	0.73353 0.32687 0.39656 -0.35700
C 	C 	0.76294 0.25851 0.46776 0.30700
O 	O 	0.63137 0.29443 0.55632 -0.38200
O 	O 	0.72820 0.32893 0.58200 -0.41800
H 	H 	0.62103 0.24860 0.43212 0.16500
H 	H 	0.74970 0.38719 0.52348 0.17300
C 	C 	0.70381 0.33629 0.76417 -0.00200
C 	C 	0.72788 0.36493 0.73276 -0.05600
C 	C 	0.69764 0.33227 0.69445 0.01400
C 	C 	0.64303 0.27515 0.68846 -0.00200
C 	C 	0.61436 0.25065 0.71983 -0.05600
C 	C 	0.64695 0.28115 0.75817 0.01400
S 	S 	0.72067 0.36924 0.81075 0.01600
C 	C 	0.65879 0.31462 0.82564 -0.07400
C 	C 	0.62172 0.26846 0.79274 -0.02200
S 	S 	0.60961 0.25724 0.64173 0.01500
C 	C 	0.66355 0.31909 0.62677 -0.07400
C 	C 	0.70972 0.35695 0.65978 -0.02200
H 	H 	0.76736 0.41095 0.73787 0.04400
H 	H 	0.56833 0.21058 0.71468 0.04400
H 	H 	0.57970 0.22649 0.79415 0.03900
H 	H 	0.75151 0.39913 0.65835 0.03900
C 	C 	0.69707 0.35109 0.26177 -0.00100
C 	C 	0.71344 0.37264 0.22692 -0.05500
C 	C 	0.68304 0.33144 0.19135 0.01700
C 	C 	0.64122 0.27065 0.19142 -0.00200
C 	C 	0.63253 0.24841 0.22659 -0.05500
C 	C 	0.65941 0.28996 0.26209 0.01700
S 	S 	0.73724 0.38637 0.30677 0.02700
C 	C 	0.70733 0.32697 0.32883 -0.06700
C 	C 	0.66450 0.27625 0.29986 -0.02700
S 	S 	0.62908 0.23318 0.14718 0.03100
C 	C 	0.67381 0.29174 0.12591 -0.07200
C 	C 	0.70108 0.34353 0.15453 -0.02400
H 	H 	0.74950 0.41903 0.22752 0.04500
H 	H 	0.60753 0.20113 0.22639 0.04600
H 	H 	0.63603 0.23175 0.30621 0.03500
H 	H 	0.73019 0.38810 0.14842 0.03200
C 	C 	0.80670 0.62243 0.47261 -0.01000
C 	C 	0.85536 0.66878 0.50145 -0.02800
C 	C 	0.87756 0.72777 0.50059 -0.04700
C 	C 	0.85117 0.74064 0.47089 0.02100
C 	C 	0.80161 0.69415 0.44260 -0.04700
C 	C 	0.77938 0.63518 0.44348 -0.02700
C 	C 	0.78550 0.56188 0.47228 0.04600
C 	C 	0.76653 0.51069 0.47108 -0.11000
C 	C 	0.87871 0.80160 0.46718 -0.01200
C 	C 	0.90392 0.85288 0.46386 -0.02900
H 	H 	0.87653 0.65927 0.52418 0.03800
H 	H 	0.91603 0.76348 0.52249 0.04300
H 	H 	0.78109 0.70372 0.41947 0.04300
H 	H 	0.74154 0.59954 0.42119 0.03800
C 	C 	0.86797 0.09115 0.44504 0.02100
C 	C 	0.80751 0.06448 0.44774 -0.04800
C 	C 	0.78561 0.09837 0.44868 -0.02800
C 	C 	0.82410 0.15908 0.44697 -0.01200
C 	C 	0.88413 0.18536 0.44323 -0.02800
C 	C 	0.90600 0.15146 0.44223 -0.04700
C 	C 	0.89190 0.05759 0.44713 -0.01300
C 	C 	0.91360 0.03104 0.44926 -0.02900
C 	C 	0.80345 0.19535 0.45263 0.04700
C 	C 	0.78553 0.22492 0.45869 -0.11800
H 	H 	0.77778 0.01787 0.44981 0.04200
H 	H 	0.73916 0.07773 0.45163 0.03700
H 	H 	0.91419 0.23225 0.44195 0.03900
H 	H 	0.95276 0.17235 0.44003 0.04300
C 	C 	0.33710 0.16099 0.45737 -0.01000
C 	C 	0.30778 0.18557 0.44543 -0.02800
C 	C 	0.24586 0.15445 0.44468 -0.04700
C 	C 	0.21304 0.09864 0.45586 0.02100
C 	C 	0.24232 0.07395 0.46766 -0.04700
C 	C 	0.30424 0.10508 0.46841 -0.02800
C 	C 	0.40102 0.19352 0.45879 0.04700
C 	C 	0.45460 0.22135 0.46001 -0.10700
C 	C 	0.14944 0.06681 0.45544 -0.01200
C 	C 	0.09615 0.03968 0.45525 -0.02900
H 	H 	0.33294 0.22881 0.43687 0.03900
H 	H 	0.22349 0.17377 0.43551 0.04300
H 	H 	0.21718 0.03079 0.47631 0.04300
H 	H 	0.32664 0.08583 0.47769 0.03900
C 	C 	0.81820 0.63940 0.98898 -0.00900
C 	C 	0.81279 0.65877 0.95417 -0.02700
C 	C 	0.84082 0.71927 0.95464 -0.04700
C 	C 	0.87428 0.76059 0.98993 0.02300
C 	C 	0.87981 0.74124 0.02472 -0.04900
C 	C 	0.85179 0.68074 0.02425 -0.02900
C 	C 	0.78722 0.57693 0.98886 0.04800
C 	C 	0.76041 0.52455 0.98894 -0.10800
C 	C 	0.90442 0.82297 0.99022 -0.01200
C 	C 	0.93044 0.87533 0.99043 -0.02900
H 	H 	0.78669 0.62699 0.92683 0.04000
H 	H 	0.83658 0.73398 0.92760 0.04400
H 	H 	0.90584 0.77300 0.05208 0.04300
H 	H 	0.85595 0.66603 0.05130 0.03700
C 	C 	0.81380 0.14976 0.00535 -0.01600
C 	C 	0.78333 0.08854 0.00390 -0.02600
C 	C 	0.81533 0.06446 0.00428 -0.04900
C 	C 	0.87793 0.10149 0.00606 0.02300
C 	C 	0.90867 0.16296 0.00873 -0.04900
C 	C 	0.87667 0.18705 0.00838 -0.02600
C 	C 	0.78014 0.17341 0.99986 0.05200
C 	C 	0.75241 0.19343 0.99403 -0.12000
C 	C 	0.90999 0.07599 0.00293 -0.01600
C 	C 	0.93606 0.05389 0.99980 -0.02500
H 	H 	0.73474 0.05943 0.00152 0.03700
H 	H 	0.79130 0.01691 0.00235 0.04300
H 	H 	0.95709 0.19189 0.01026 0.04300
H 	H 	0.90054 0.23443 0.00949 0.03600
C 	C 	0.35345 0.17399 0.97557 -0.01100
C 	C 	0.33748 0.20363 0.99972 -0.02500
C 	C 	0.27665 0.17834 0.99956 -0.04600
C 	C 	0.23157 0.12338 0.97521 0.02100
C 	C 	0.24755 0.09467 0.95013 -0.04700
C 	C 	0.30839 0.11993 0.95033 -0.02700
C 	C 	0.41588 0.19756 0.97828 0.04800
C 	C 	0.46846 0.21803 0.98147 -0.11200
C 	C 	0.16940 0.09369 0.97870 -0.01100
C 	C 	0.11728 0.06710 0.98197 -0.02900
H 	H 	0.37212 0.24559 0.01920 0.03600
H 	H 	0.26464 0.20077 0.01904 0.04200
H 	H 	0.21292 0.05213 0.93124 0.04300
H 	H 	0.32040 0.09689 0.93146 0.03800
