data_crystal

_cell_length_a 19.06623
_cell_length_b 18.08934
_cell_length_c 50.43881
_cell_angle_alpha 89.63681
_cell_angle_beta  89.64252
_cell_angle_gamma 119.44335

_symmetry_space_group_name_	'P 1'
_symmetry_space_group_name_H-M	'P 1'

loop_
_symmetry_equiv_pos_as_xyz
  x,y,z

loop_
_atom_site_label
_atom_site_type_symbol
_atom_site_fract_x
_atom_site_fract_y
_atom_site_fract_z
_atom_site_charge
O 	O 	0.00677 0.18043 0.18287 -0.34600
N 	N 	0.00628 0.67684 0.13981 -0.09200
C 	C 	0.00741 0.53697 0.46149 -0.00400
O 	O 	0.02664 0.45819 0.89143 -0.06900
C 	C 	0.04220 0.94200 0.87240 0.10500
C 	C 	0.01717 0.84817 0.80413 -0.03700
O 	O 	0.01653 0.85861 0.69771 -0.35100
O 	O 	0.01731 0.98722 0.73011 -0.72500
H 	H 	0.03461 0.00887 0.74812 0.17200
O 	O 	0.03796 0.00493 0.26945 -0.34200
O 	O 	0.02898 0.10769 0.23214 -0.70100
H 	H 	0.03455 0.12176 0.25111 0.15900
C 	C 	0.01258 0.26491 0.05314 0.14300
N 	N 	0.02175 0.01212 0.14344 -0.08400
N 	N 	0.04337 0.82259 0.26702 -0.09400
H 	H 	0.04030 0.44861 0.47830 0.09500
C 	C 	0.03960 0.90809 0.82469 0.01200
N 	N 	0.05976 0.99108 0.88921 -0.09200
N 	N 	0.01431 0.69422 0.96979 -0.06700
N 	N 	0.02325 0.34605 0.98641 -0.08500
Ni	Ni	0.03054 0.08775 0.71325 1.13100
O 	O 	0.04996 0.86831 0.75668 -0.34700
O 	O 	0.06073 0.96227 0.21946 -0.37200
C 	C 	0.05112 0.74274 0.14818 0.12000
C 	C 	0.02977 0.34881 0.37246 -0.00800
C 	C 	0.03296 0.37029 0.39922 0.04100
C 	C 	0.02757 0.27788 0.29117 0.04200
C 	C 	0.02147 0.25889 0.31826 -0.01200
C 	C 	0.02516 0.93599 0.62783 0.10900
N 	N 	0.01747 0.97987 0.55806 -0.10300
C 	C 	0.03444 0.60188 0.66462 0.13600
C 	C 	0.05239 0.54391 0.92938 0.13200
N 	N 	0.05031 0.53306 0.90123 -0.02300
O 	O 	0.05726 0.62234 0.02466 -0.06500
C 	C 	0.07921 0.99798 0.81820 0.07900
O 	O 	0.04780 0.04985 0.67736 -0.36000
O 	O 	0.05895 0.27661 0.23372 -0.34200
C 	C 	0.05294 0.08270 0.13691 0.10100
C 	C 	0.08589 0.87640 0.28097 0.10500
C 	C 	0.05633 0.71933 0.70593 0.11300
C 	C 	0.06174 0.55567 0.98502 0.12300
N 	N 	0.06518 0.56255 0.01325 -0.02300
O 	O 	0.07707 0.59876 0.88548 -0.07800
C 	C 	0.06722 0.77177 0.90162 0.14600
O 	O 	0.00349 0.12038 0.74836 -0.34400
C 	C 	0.08219 0.21232 0.17542 0.30100
C 	C 	0.06794 0.34504 0.00163 0.10400
C 	C 	0.07902 0.87362 0.17181 0.05800
C 	C 	0.06300 0.00927 0.57513 0.13400
N 	N 	0.11070 0.06967 0.81298 -0.08800
Ni	Ni	0.09232 0.95157 0.72335 1.11400
C 	C 	0.09008 0.59425 0.45096 0.31100
C 	C 	0.10372 0.99978 0.19827 0.30600
C 	C 	0.09119 0.17070 0.12838 0.02200
N 	N 	0.09688 0.07570 0.06795 -0.08800
C 	C 	0.07600 0.31201 0.36357 0.02400
C 	C 	0.08851 0.30615 0.33455 0.02300
N 	N 	0.08955 0.95832 0.38890 -0.09300
N 	N 	0.08389 0.58414 0.66010 -0.09900
O 	O 	0.06995 0.50530 0.02762 -0.07700
O 	O 	0.10603 0.58945 0.42590 -0.35000
C 	C 	0.11133 0.28541 0.25226 0.29200
C 	C 	0.11834 0.04789 0.27095 0.27800
C 	C 	0.09635 0.30148 0.04545 -0.04000
C 	C 	0.10929 0.19134 0.10114 -0.03000
C 	C 	0.10329 0.23465 0.14677 -0.06300
C 	C 	0.10236 0.12700 0.08270 0.11300
C 	C 	0.10751 0.82541 0.15865 -0.04300
C 	C 	0.09769 0.37873 0.41452 -0.06300
C 	C 	0.10359 0.31464 0.27890 -0.07700
C 	C 	0.09629 0.01735 0.62277 0.03800
N 	N 	0.11348 0.74727 0.71886 -0.10400
C 	C 	0.02021 0.88049 0.85138 -0.00000
C 	C 	0.11264 0.04524 0.67146 0.30900
O 	O 	0.13073 0.08097 0.19380 -0.36800
C 	C 	0.13401 0.95371 0.18220 -0.07700
C 	C 	0.11776 0.29054 0.38248 -0.03000
C 	C 	0.13923 0.94385 0.29845 0.00100
N 	N 	0.14237 0.76940 0.32919 -0.09900
C 	C 	0.12538 0.59935 0.94153 -0.02900
C 	C 	0.13118 0.60420 0.96934 -0.06400
N 	N 	0.13525 0.79440 0.89928 -0.10200
Ni	Ni	0.14008 0.16094 0.22274 1.12400
C 	C 	0.12370 0.34335 0.02057 0.03100
C 	C 	0.13133 0.27366 0.09173 0.02200
C 	C 	0.12264 0.31615 0.13723 0.02500
C 	C 	0.12939 0.32519 0.40824 0.02500
C 	C 	0.12008 0.04613 0.59650 -0.04100
O 	O 	0.14877 0.63118 0.46753 -0.35700
O 	O 	0.13943 0.23869 0.19330 -0.35600
C 	C 	0.13292 0.33428 0.10964 -0.03300
C 	C 	0.12641 0.37933 0.15559 0.10500
C 	C 	0.13644 0.41104 0.09948 0.10700
N 	N 	0.12903 0.42936 0.17034 -0.08700
C 	C 	0.15713 0.02843 0.29343 -0.03300
C 	C 	0.15713 0.83858 0.32501 0.10400
C 	C 	0.14693 0.95221 0.38670 0.11500
C 	C 	0.14505 0.06480 0.64402 -0.07200
N 	N 	0.14868 0.28224 0.77359 -0.08900
O 	O 	0.15250 0.15103 0.72002 -0.36000
O 	O 	0.15037 0.02633 0.68982 -0.34700
C 	C 	0.15462 0.46491 0.42335 0.28500
O 	O 	0.16529 0.09455 0.25061 -0.35300
O 	O 	0.16206 0.25569 0.24863 -0.35500
C 	C 	0.15213 0.29658 0.06281 0.02700
N 	N 	0.13818 0.47171 0.09122 -0.09500
C 	C 	0.14831 0.23408 0.37546 0.11500
O 	O 	0.17299 0.05517 0.74504 -0.35500
C 	C 	0.16425 0.36108 0.32242 -0.03300
C 	C 	0.17578 0.92536 0.31983 -0.01900
N 	N 	0.15667 0.85696 0.44811 -0.07900
C 	C 	0.00659 0.87308 0.77692 0.30200
O 	O 	0.16497 0.48209 0.44966 -0.34500
C 	C 	0.17228 0.36257 0.29446 0.03100
H 	H 	0.17847 0.63646 0.92930 0.08300
C 	C 	0.19168 0.13414 0.73881 0.29500
C 	C 	0.19075 0.85784 0.15514 0.02700
C 	C 	0.18102 0.31428 0.42689 0.10200
N 	N 	0.17255 0.18880 0.36984 -0.09900
O 	O 	0.19358 0.52311 0.40443 -0.36300
C 	C 	0.19511 0.88055 0.42888 0.10700
C 	C 	0.19935 0.11160 0.59111 0.03300
N 	N 	0.19904 0.92105 0.56803 -0.09100
C 	C 	0.20489 0.27540 0.76935 0.09500
C 	C 	0.21177 0.65038 0.98157 0.31000
C 	C 	0.20660 0.38629 0.01473 -0.06900
N 	N 	0.21110 0.97422 0.09534 -0.10000
C 	C 	0.21524 0.09471 0.30902 0.00900
N 	N 	0.20303 0.30903 0.57153 -0.09300
C 	C 	0.21939 0.81843 0.13537 0.02700
C 	C 	0.21651 0.91523 0.10116 0.11400
C 	C 	0.21762 0.98298 0.18055 0.01300
C 	C 	0.21885 0.94462 0.38389 -0.03900
O 	O 	0.22490 0.70780 0.99982 -0.33700
Ni	Ni	0.21807 0.64384 0.40779 1.12400
C 	C 	0.22324 0.84120 0.10852 -0.03400
N 	N 	0.22236 0.30566 0.44182 -0.08900
C 	C 	0.23080 0.99121 0.33614 -0.00300
C 	C 	0.22134 0.13594 0.63867 0.02900
C 	C 	0.21977 0.98844 0.55963 0.09000
O 	O 	0.22804 0.67007 0.05113 -0.36200
C 	C 	0.22941 0.31814 0.05272 -0.03700
C 	C 	0.23112 0.75042 0.14288 -0.03500
C 	C 	0.23277 0.79224 0.08883 0.03800
C 	C 	0.23267 0.73130 0.17079 0.11100
N 	N 	0.23388 0.71611 0.19305 -0.09600
C 	C 	0.22553 0.26554 0.56261 0.10800
C 	C 	0.23784 0.71867 0.09608 -0.07800
C 	C 	0.24010 0.70025 0.12341 0.03200
C 	C 	0.24131 0.82060 0.06142 0.06800
C 	C 	0.23230 0.41762 0.33846 0.11200
C 	C 	0.23947 0.18222 0.30263 0.10000
C 	C 	0.23056 0.13085 0.56321 0.01500
Ni	Ni	0.23957 0.60031 0.46918 1.11400
O 	O 	0.24317 0.75835 0.41946 -0.37900
C 	C 	0.24584 0.93440 0.16725 -0.03300
N 	N 	0.24799 0.84419 0.03968 -0.11800
C 	C 	0.24278 0.90953 0.40466 0.03100
C 	C 	0.24668 0.66497 0.07535 0.32700
C 	C 	0.24542 0.47937 0.01132 0.29600
O 	O 	0.24500 0.52191 0.03205 -0.36000
C 	C 	0.24917 0.41776 0.28174 0.10600
C 	C 	0.25142 0.07597 0.33046 -0.00600
C 	C 	0.24576 0.07280 0.54913 -0.01000
C 	C 	0.25234 0.35473 0.02707 0.01700
C 	C 	0.25426 0.63172 0.13161 0.10500
C 	C 	0.25106 0.15431 0.61240 -0.03900
N 	N 	0.25960 0.25233 0.29760 -0.09900
C 	C 	0.25370 0.21111 0.55149 -0.02800
N 	N 	0.26628 0.57762 0.13823 -0.09500
C 	C 	0.26415 0.97059 0.36011 0.03600
C 	C 	0.26589 0.19432 0.65965 0.09600
O 	O 	0.27236 0.65351 0.96831 -0.38200
N 	N 	0.26622 0.99058 0.48864 -0.10400
C 	C 	0.27083 0.20328 0.74720 -0.06300
C 	C 	0.27424 0.06127 0.19336 0.11200
C 	C 	0.27556 0.26726 0.76415 0.02300
C 	C 	0.27839 0.03962 0.50504 0.12500
C 	C 	0.28491 0.30418 0.06857 0.10800
O 	O 	0.28649 0.64444 0.43619 -0.71500
N 	N 	0.28655 0.46276 0.35128 -0.09800
N 	N 	0.00073 0.71009 0.59630 -0.07400
O 	O 	0.29405 0.63367 0.07969 -0.35800
C 	C 	0.29114 0.09971 0.52552 0.01200
O 	O 	0.29604 0.71323 0.49146 -0.33100
H 	H 	0.29667 0.59808 0.43116 0.16500
O 	O 	0.29595 0.51875 0.99095 -0.35400
N 	N 	0.29509 0.63152 0.31299 -0.09400
N 	N 	0.30151 0.24161 0.67625 -0.09500
O 	O 	0.30233 0.69243 0.37727 -0.36900
C 	C 	0.30591 0.23798 0.52912 0.01600
C 	C 	0.31019 0.14396 0.34665 0.10900
C 	C 	0.98649 0.37277 0.35387 0.07700
O 	O 	0.98208 0.64623 0.41981 -0.09100
C 	C 	0.97302 0.38816 0.41027 0.07200
C 	C 	0.80580 0.56782 0.92829 0.28500
C 	C 	0.63549 0.18853 0.95227 0.30700
C 	C 	0.90263 0.44809 0.93245 0.33200
C 	C 	0.58080 0.37735 0.96122 0.29500
C 	C 	0.71698 0.24664 0.88902 0.29000
C 	C 	0.62111 0.37864 0.86431 0.31500
Ni	Ni	0.74184 0.38478 0.95575 1.11200
Ni	Ni	0.59714 0.28703 0.91373 1.13000
Ni	Ni	0.77705 0.42846 0.89287 1.13100
O 	O 	0.80066 0.52139 0.95040 -0.34600
O 	O 	0.77562 0.53260 0.90502 -0.36100
O 	O 	0.64301 0.23647 0.88754 -0.35900
O 	O 	0.69861 0.25368 0.96337 -0.34400
O 	O 	0.57932 0.19970 0.94164 -0.35900
O 	O 	0.69829 0.40173 0.86245 -0.36400
O 	O 	0.84550 0.38361 0.94490 -0.37600
O 	O 	0.88518 0.48129 0.91216 -0.36600
O 	O 	0.58434 0.36148 0.88723 -0.36900
O 	O 	0.63811 0.37124 0.97392 -0.36500
O 	O 	0.54350 0.32777 0.94072 -0.33200
O 	O 	0.78107 0.32262 0.88715 -0.36600
O 	O 	0.70076 0.37653 0.92202 -0.71900
H 	H 	0.68105 0.41695 0.92416 0.16100
C 	C 	0.72898 0.36218 0.57714 0.28800
C 	C 	0.42545 0.22312 0.52072 0.30100
C 	C 	0.56267 0.14405 0.57550 0.31600
C 	C 	0.57335 0.44302 0.51844 0.30100
C 	C 	0.56118 0.13284 0.49125 0.31000
C 	C 	0.76889 0.36218 0.49126 0.29700
Ni	Ni	0.56063 0.30381 0.55870 1.11800
Ni	Ni	0.58879 0.30681 0.49414 1.12900
Ni	Ni	0.67191 0.23313 0.53270 1.12900
O 	O 	0.67124 0.38305 0.57561 -0.35300
O 	O 	0.71764 0.28736 0.56875 -0.36000
O 	O 	0.53825 0.18580 0.48247 -0.35300
O 	O 	0.45652 0.21014 0.54210 -0.36500
O 	O 	0.47207 0.27877 0.50244 -0.34900
O 	O 	0.76947 0.32330 0.51367 -0.35600
O 	O 	0.55975 0.21067 0.58440 -0.34700
O 	O 	0.57296 0.13956 0.55030 -0.38600
O 	O 	0.70047 0.34031 0.47801 -0.34500
O 	O 	0.54470 0.40290 0.54174 -0.35100
O 	O 	0.62164 0.42713 0.50374 -0.35900
O 	O 	0.63486 0.16201 0.49990 -0.35900
O 	O 	0.62077 0.29938 0.52930 -0.71600
H 	H 	0.66850 0.35624 0.53025 0.16200
C 	C 	0.95016 0.79236 0.70589 0.29000
C 	C 	0.86085 0.97883 0.69467 0.29500
C 	C 	0.93992 0.06539 0.76264 0.28300
Ni	Ni	0.90852 0.90444 0.73730 1.12200
O 	O 	0.86546 0.91119 0.70175 -0.37700
O 	O 	0.91025 0.79703 0.72652 -0.36400
O 	O 	0.88416 0.99327 0.75223 -0.37700
O 	O 	0.94466 0.88592 0.77305 -0.38300
O 	O 	0.91755 0.05551 0.70151 -0.36400
C 	C 	0.36291 0.78144 0.48375 0.31400
C 	C 	0.40392 0.60354 0.47194 0.30500
C 	C 	0.31280 0.82552 0.41383 0.28900
C 	C 	0.37766 0.70730 0.37806 0.31100
Ni	Ni	0.39671 0.72832 0.43367 1.12800
O 	O 	0.38252 0.82727 0.41899 -0.36400
O 	O 	0.41685 0.77360 0.47040 -0.37500
O 	O 	0.40224 0.68349 0.39851 -0.38100
O 	O 	0.32748 0.56828 0.48025 -0.34200
O 	O 	0.42771 0.64385 0.44866 -0.35400
C 	C 	0.46112 0.58283 0.00844 0.32300
C 	C 	0.45827 0.78725 0.06316 0.27600
C 	C 	0.44935 0.84434 0.98801 0.28100
Ni	Ni	0.35143 0.60518 0.04937 1.12000
Ni	Ni	0.31553 0.75098 0.02654 1.12900
Ni	Ni	0.36468 0.65024 0.98530 1.12200
O 	O 	0.41314 0.55170 0.02947 -0.35900
O 	O 	0.46464 0.64609 0.99472 -0.38000
O 	O 	0.43920 0.77564 0.97460 -0.34900
O 	O 	0.38873 0.84305 0.00119 -0.35100
O 	O 	0.45035 0.70981 0.06409 -0.34900
O 	O 	0.39608 0.80076 0.05781 -0.34600
O 	O 	0.35892 0.67854 0.02088 -0.71500
H 	H 	0.41643 0.72013 0.02095 0.15200
C 	C 	0.86955 0.03621 0.26618 0.31000
C 	C 	0.87393 0.99792 0.19346 0.29200
Ni	Ni	0.96681 0.15752 0.22219 1.10800
Ni	Ni	0.97806 0.98749 0.23513 1.10800
O 	O 	0.91120 0.11776 0.25924 -0.37100
O 	O 	0.87734 0.97696 0.25316 -0.38000
O 	O 	0.86633 0.04946 0.20961 -0.35300
O 	O 	0.92433 0.96965 0.19894 -0.37100
C 	C 	0.31079 0.34434 0.01168 0.10600
N 	N 	0.32925 0.29296 0.08126 -0.09300
N 	N 	0.35669 0.33461 0.99922 -0.09300
N 	N 	0.94552 0.23576 0.05922 -0.11900
C 	C 	0.73925 0.87103 0.13686 -0.03400
C 	C 	0.73977 0.93636 0.12137 0.00900
C 	C 	0.79259 0.02130 0.12752 -0.02200
C 	C 	0.82873 0.04129 0.15243 0.03500
C 	C 	0.82958 0.97642 0.16822 -0.08500
C 	C 	0.78191 0.89069 0.16084 0.02800
C 	C 	0.67186 0.91667 0.10344 0.02700
C 	C 	0.79953 0.08831 0.10991 0.10700
C 	C 	0.76614 0.82338 0.17974 0.09700
C 	C 	0.60422 0.92132 0.11288 -0.03500
C 	C 	0.53683 0.89508 0.09658 0.02600
C 	C 	0.53453 0.85729 0.07215 -0.05700
C 	C 	0.60655 0.86652 0.06106 0.02800
C 	C 	0.67537 0.89569 0.07685 -0.03300
C 	C 	0.60321 0.95029 0.13956 0.10500
C 	C 	0.60854 0.84332 0.03372 0.09000
C 	C 	0.46995 0.90633 0.10491 0.10600
C 	C 	0.74897 0.90250 0.06603 0.10700
C 	C 	0.69187 0.78347 0.12867 0.10800
C 	C 	0.84872 0.12272 0.16376 0.08800
N 	N 	0.41666 0.91568 0.11151 -0.09800
N 	N 	0.60253 0.97342 0.16085 -0.10100
N 	N 	0.61030 0.82491 0.01189 -0.09600
N 	N 	0.80777 0.90799 0.05742 -0.10400
N 	N 	0.80436 0.14159 0.09593 -0.09400
N 	N 	0.86356 0.18762 0.17263 -0.10800
N 	N 	0.75307 0.76961 0.19485 -0.09500
N 	N 	0.65401 0.71361 0.12210 -0.09500
C 	C 	0.33128 0.96219 0.16643 0.10600
C 	C 	0.99307 0.84050 0.17479 0.05600
N 	N 	0.31939 0.12369 0.20360 -0.10300
N 	N 	0.39951 0.98448 0.16590 -0.09700
N 	N 	0.92434 0.81325 0.17709 -0.09100
C 	C 	0.70643 0.89167 0.31323 -0.03200
C 	C 	0.64340 0.90825 0.30695 0.02500
C 	C 	0.65785 0.97402 0.28878 -0.04300
C 	C 	0.73446 0.02159 0.27659 0.04000
C 	C 	0.79828 0.00689 0.28382 -0.05700
C 	C 	0.78492 0.94581 0.30358 0.01100
C 	C 	0.56812 0.86840 0.32352 0.02200
C 	C 	0.59373 0.99201 0.28234 0.09200
C 	C 	0.85216 0.93825 0.31375 0.08700
C 	C 	0.57273 0.89051 0.35031 -0.03100
C 	C 	0.51339 0.83536 0.36835 0.02800
C 	C 	0.43949 0.76793 0.35887 -0.07900
C 	C 	0.43020 0.75272 0.33129 0.02700
C 	C 	0.49595 0.80044 0.31376 -0.03500
C 	C 	0.64233 0.96697 0.35967 0.09600
C 	C 	0.35506 0.68533 0.32112 0.09800
C 	C 	0.53211 0.84336 0.39639 0.07200
C 	C 	0.49022 0.77806 0.28602 0.10800
C 	C 	0.69037 0.81923 0.32988 0.10600
C 	C 	0.74630 0.08247 0.25578 0.10000
N 	N 	0.54805 0.85027 0.41868 -0.12600
N 	N 	0.69788 0.02790 0.36710 -0.08000
N 	N 	0.48569 0.76024 0.26386 -0.09800
N 	N 	0.54254 0.00629 0.27712 -0.08100
N 	N 	0.75557 0.13088 0.23913 -0.09500
N 	N 	0.90587 0.93233 0.32184 -0.10400
N 	N 	0.67744 0.76143 0.34317 -0.09800
C 	C 	0.96262 0.28302 0.27827 0.06400
C 	C 	0.94636 0.19268 0.32940 0.08000
N 	N 	0.31060 0.46188 0.27158 -0.09000
N 	N 	0.91074 0.28755 0.26800 -0.09300
N 	N 	0.88633 0.13982 0.33831 -0.09400
N 	N 	0.92341 0.40129 0.41840 -0.08800
N 	N 	0.95199 0.39199 0.33906 -0.09600
C 	C 	0.33988 0.97442 0.35894 -0.05800
C 	C 	0.36644 0.94582 0.38075 0.03500
C 	C 	0.31195 0.90028 0.40144 -0.07100
C 	C 	0.39038 0.00803 0.33549 0.13000
C 	C 	0.45155 0.97882 0.38455 0.08300
N 	N 	0.35710 0.19813 0.35958 -0.09000
N 	N 	0.43067 0.03502 0.31675 -0.09900
N 	N 	0.51999 0.00697 0.38765 -0.07400
C 	C 	0.50547 0.98705 0.51113 -0.05600
C 	C 	0.50366 0.03987 0.49087 -0.04800
C 	C 	0.43945 0.00588 0.47269 0.11700
C 	C 	0.37726 0.92157 0.47575 -0.04000
C 	C 	0.38484 0.86640 0.49360 -0.06600
C 	C 	0.44403 0.90176 0.51337 0.11500
N 	N 	0.44339 0.85043 0.53527 -0.02100
H 	H 	0.55422 0.01191 0.52517 0.09400
H 	H 	0.32810 0.89625 0.46191 0.07400
N 	N 	0.44067 0.05427 0.44987 -0.02000
O 	O 	0.51083 0.86267 0.54541 -0.08200
O 	O 	0.37536 0.79526 0.54619 -0.06700
O 	O 	0.50510 0.09226 0.43505 -0.07000
O 	O 	0.37681 0.05867 0.44352 -0.07900
C 	C 	0.99164 0.46181 0.47466 -0.09600
C 	C 	0.94340 0.55387 0.45709 0.07000
C 	C 	0.86457 0.49508 0.46592 -0.00700
C 	C 	0.84850 0.41795 0.47808 -0.06700
C 	C 	0.91249 0.40016 0.48130 0.12800
N 	N 	0.89667 0.31771 0.48991 -0.02400
H 	H 	0.81643 0.51003 0.46356 0.07800
N 	N 	0.95829 0.63135 0.44446 -0.01800
O 	O 	0.84675 0.25071 0.47685 -0.07600
O 	O 	0.93640 0.31019 0.50965 -0.09100
O 	O 	0.94188 0.68385 0.45691 -0.08300
C 	C 	0.49587 0.54294 0.46785 -0.02200
C 	C 	0.45565 0.57271 0.48421 -0.05700
C 	C 	0.46018 0.56682 0.51205 0.10400
C 	C 	0.50171 0.52773 0.52306 -0.02200
C 	C 	0.53851 0.49383 0.50659 -0.06400
C 	C 	0.53635 0.50315 0.47866 0.10400
N 	N 	0.57233 0.46928 0.46110 -0.02300
H 	H 	0.49292 0.54735 0.44648 0.08300
H 	H 	0.50430 0.52286 0.54441 0.07700
N 	N 	0.42256 0.60003 0.52921 -0.02200
O 	O 	0.52912 0.39343 0.45163 -0.10700
O 	O 	0.64520 0.51774 0.45217 -0.08400
O 	O 	0.37365 0.55250 0.54794 -0.07800
O 	O 	0.44109 0.67928 0.52719 -0.06700
C 	C 	0.68402 0.91897 0.64845 -0.02900
C 	C 	0.66673 0.98455 0.65429 -0.00200
C 	C 	0.69641 0.03064 0.67786 -0.01900
C 	C 	0.75225 0.01967 0.69321 0.03200
C 	C 	0.78410 0.96860 0.68367 -0.07900
C 	C 	0.74623 0.91414 0.66207 0.02100
C 	C 	0.63557 0.01816 0.63289 0.04200
C 	C 	0.67136 0.09099 0.68594 0.10800
C 	C 	0.77315 0.85625 0.65308 0.10000
C 	C 	0.55749 0.00874 0.63466 -0.02300
C 	C 	0.53290 0.04975 0.61586 0.03200
C 	C 	0.58326 0.09288 0.59390 -0.07600
C 	C 	0.65584 0.09020 0.59023 0.03800
C 	C 	0.68524 0.06086 0.61086 -0.03800
C 	C 	0.50262 0.95668 0.65559 0.09700
C 	C 	0.69858 0.11378 0.56501 0.06100
C 	C 	0.45567 0.04631 0.61886 0.10300
C 	C 	0.76769 0.07698 0.60980 0.11400
C 	C 	0.64102 0.85991 0.62745 0.10400
C 	C 	0.77487 0.05871 0.71904 0.10300
N 	N 	0.39404 0.04364 0.62124 -0.09300
N 	N 	0.45887 0.91512 0.67231 -0.09700
N 	N 	0.73313 0.13216 0.54495 -0.12200
N 	N 	0.83342 0.08980 0.60899 -0.10300
N 	N 	0.65133 0.13908 0.69246 -0.09300
N 	N 	0.79245 0.09017 0.73962 -0.09000
N 	N 	0.79419 0.80978 0.64574 -0.09400
N 	N 	0.60664 0.81285 0.61066 -0.09200
C 	C 	0.33737 0.18682 0.52016 -0.06000
C 	C 	0.33509 0.21538 0.60733 0.11300
C 	C 	0.32092 0.31253 0.51406 0.10600
N 	N 	0.40214 0.26402 0.60325 -0.12300
N 	N 	0.96871 0.87075 0.63188 -0.10800
N 	N 	0.33207 0.37167 0.50182 -0.09200
C 	C 	0.83750 0.60330 0.66271 -0.03600
C 	C 	0.90005 0.58607 0.65597 0.03100
C 	C 	0.97243 0.62403 0.67026 -0.05400
C 	C 	0.98467 0.68434 0.68976 0.00900
C 	C 	0.92629 0.70962 0.69389 -0.06600
C 	C 	0.84993 0.66322 0.68234 0.02600
C 	C 	0.88742 0.52454 0.63478 0.01400
C 	C 	0.78404 0.67600 0.69100 0.10000
C 	C 	0.90033 0.55180 0.60810 -0.02300
C 	C 	0.85528 0.49415 0.58812 0.01700
C 	C 	0.79599 0.41097 0.59521 -0.06300
C 	C 	0.79328 0.38103 0.62135 0.02100
C 	C 	0.84336 0.43740 0.64070 -0.03200
C 	C 	0.95615 0.63978 0.60151 0.08100
C 	C 	0.73241 0.29614 0.62913 0.09900
C 	C 	0.86777 0.52074 0.56051 0.09000
C 	C 	0.84440 0.40716 0.66731 0.10300
C 	C 	0.76114 0.56049 0.64904 0.11000
N 	N 	0.87768 0.54185 0.53846 -0.10000
N 	N 	0.68373 0.22883 0.63576 -0.09800
N 	N 	0.84525 0.38308 0.68855 -0.09900
N 	N 	0.73139 0.68603 0.69796 -0.09700
N 	N 	0.70031 0.52628 0.63810 -0.10100
C 	C 	0.98791 0.50232 0.97284 -0.03700
C 	C 	0.98255 0.49645 0.94502 -0.10100
H 	H 	0.93435 0.46718 0.98504 0.06000
C 	C 	0.60181 0.08211 0.98858 0.00600
C 	C 	0.61119 0.10013 0.96136 -0.07300
C 	C 	0.57808 0.03092 0.94342 0.12100
C 	C 	0.53670 0.94698 0.95308 -0.04700
C 	C 	0.51698 0.92990 0.97997 -0.04200
C 	C 	0.55108 0.99889 0.99804 0.07500
N 	N 	0.53387 0.98598 0.02585 -0.02700
H 	H 	0.62689 0.13391 0.00256 0.07400
H 	H 	0.51208 0.89528 0.93907 0.08500
N 	N 	0.58144 0.04469 0.91547 -0.02700
O 	O 	0.59385 0.01606 0.04221 -0.08400
O 	O 	0.46345 0.97029 0.03451 -0.09100
O 	O 	0.60832 0.00567 0.90045 -0.09100
O 	O 	0.53580 0.07169 0.90511 -0.08600
C 	C 	0.55251 0.44003 0.00090 -0.02500
C 	C 	0.54746 0.42759 0.97331 -0.06200
C 	C 	0.51766 0.46993 0.95732 0.09900
C 	C 	0.49091 0.52147 0.96903 -0.01300
C 	C 	0.49564 0.53363 0.99657 -0.07800
C 	C 	0.52838 0.49417 0.01251 0.10900
N 	N 	0.53817 0.50967 0.04041 -0.02200
H 	H 	0.57622 0.40852 0.01333 0.08000
H 	H 	0.46586 0.55177 0.95665 0.06200
N 	N 	0.51689 0.46297 0.92908 -0.01900
O 	O 	0.50788 0.44630 0.05716 -0.08300
O 	O 	0.58178 0.58668 0.04899 -0.08500
O 	O 	0.44866 0.42390 0.91674 -0.07800
O 	O 	0.58387 0.50236 0.91558 -0.09000
C 	C 	0.93094 0.19459 0.82031 -0.03500
C 	C 	0.89445 0.13045 0.83969 0.02100
C 	C 	0.89453 0.05424 0.83604 -0.02400
C 	C 	0.89627 0.02765 0.81023 0.02900
C 	C 	0.92610 0.08903 0.78938 -0.06500
C 	C 	0.94370 0.17341 0.79460 0.02400
C 	C 	0.83079 0.12940 0.85665 0.02800
C 	C 	0.88082 0.99832 0.85847 0.08900
C 	C 	0.96330 0.23414 0.77305 0.10300
C 	C 	0.75599 0.11005 0.84553 -0.03300
C 	C 	0.70586 0.13452 0.85880 0.03100
C 	C 	0.72973 0.17483 0.88352 -0.05800
C 	C 	0.79146 0.16988 0.89735 0.02800
C 	C 	0.84592 0.15340 0.88331 -0.03100
C 	C 	0.73225 0.06758 0.82021 0.11100
C 	C 	0.80174 0.18664 0.92547 0.09500
C 	C 	0.63231 0.12208 0.84657 0.11500
C 	C 	0.91911 0.16541 0.89575 0.11200
C 	C 	0.94815 0.28013 0.82623 0.10800
C 	C 	0.84842 0.93816 0.80447 0.08000
N 	N 	0.57364 0.11198 0.83671 -0.09000
N 	N 	0.71329 0.03365 0.80002 -0.09500
N 	N 	0.81121 0.19948 0.94796 -0.08900
N 	N 	0.97754 0.17499 0.90567 -0.10000
N 	N 	0.86999 0.95437 0.87660 -0.10400
N 	N 	0.80879 0.86659 0.80010 -0.09500
N 	N 	0.97879 0.28260 0.75586 -0.09700
N 	N 	0.96179 0.34840 0.83100 -0.09700
C 	C 	0.41487 0.25673 0.75261 -0.03400
C 	C 	0.41513 0.30803 0.77348 0.02400
C 	C 	0.34851 0.32073 0.77701 -0.03300
C 	C 	0.34197 0.20181 0.74004 0.02800
C 	C 	0.47122 0.32528 0.79588 0.02600
C 	C 	0.35373 0.38497 0.79516 0.11000
C 	C 	0.33940 0.14161 0.72067 0.09900
C 	C 	0.54318 0.40362 0.79753 -0.03500
C 	C 	0.59355 0.42087 0.81971 0.02900
C 	C 	0.57236 0.35900 0.83999 -0.07300
C 	C 	0.50152 0.27940 0.83772 0.03200
C 	C 	0.45116 0.26289 0.81579 -0.03500
C 	C 	0.56506 0.46641 0.77650 0.10900
C 	C 	0.47952 0.21483 0.85822 0.08600
C 	C 	0.66543 0.50310 0.82208 0.09900
C 	C 	0.37765 0.18173 0.81380 0.11200
C 	C 	0.48838 0.25623 0.74547 0.10900
N 	N 	0.72277 0.56870 0.82399 -0.09600
N 	N 	0.58247 0.51647 0.75971 -0.09900
N 	N 	0.46141 0.16324 0.87456 -0.10200
N 	N 	0.31904 0.11712 0.81217 -0.09600
N 	N 	0.35800 0.43630 0.80967 -0.09500
N 	N 	0.33747 0.09358 0.70524 -0.09400
N 	N 	0.54712 0.25589 0.73980 -0.09700
C 	C 	0.98218 0.74355 0.90455 -0.07000
C 	C 	0.94117 0.76255 0.88462 0.04000
C 	C 	0.86185 0.74644 0.88999 -0.04000
C 	C 	0.82361 0.70517 0.91397 0.02900
C 	C 	0.85496 0.66130 0.92823 -0.07300
C 	C 	0.93891 0.69626 0.92730 0.04100
C 	C 	0.97845 0.79292 0.85757 -0.01200
C 	C 	0.81632 0.76039 0.86965 0.11500
C 	C 	0.98073 0.69451 0.95081 0.06000
C 	C 	0.96534 0.73369 0.83742 -0.01800
C 	C 	0.98496 0.76137 0.81071 -0.00600
C 	C 	0.92975 0.64425 0.84409 0.10700
C 	C 	0.96846 0.70018 0.78991 0.10400
C 	C 	0.74728 0.69750 0.92189 0.09800
N 	N 	0.95527 0.65142 0.77327 -0.09800
N 	N 	0.90133 0.57289 0.84946 -0.11800
N 	N 	0.77947 0.77084 0.85339 -0.09700
N 	N 	0.68633 0.69163 0.92828 -0.09200
