data_crystal

_cell_length_a 24.57363
_cell_length_b 22.42259
_cell_length_c 35.80421
_cell_angle_alpha 104.03092
_cell_angle_beta  115.93993
_cell_angle_gamma 111.53463

_symmetry_space_group_name_	'P 1'
_symmetry_space_group_name_H-M	'P 1'

loop_
_symmetry_equiv_pos_as_xyz
  x,y,z

loop_
_atom_site_label
_atom_site_type_symbol
_atom_site_fract_x
_atom_site_fract_y
_atom_site_fract_z
_atom_site_charge
C 	C 	0.77349 0.48649 0.97301 0.01300
C 	C 	0.79577 0.49371 0.01807 0.02600
C 	C 	0.77256 0.43146 0.02341 -0.04400
C 	C 	0.72804 0.36162 0.98395 0.09200
C 	C 	0.70783 0.35468 0.93895 -0.05500
C 	C 	0.73022 0.41685 0.93363 0.01900
N 	N 	0.70243 0.29808 0.98999 -0.14000
C 	C 	0.50564 0.22265 0.97643 0.02100
C 	C 	0.56305 0.22526 0.01233 0.02700
C 	C 	0.62726 0.24938 0.01618 -0.03700
C 	C 	0.63484 0.27159 0.98446 0.09700
C 	C 	0.57685 0.26875 0.94834 -0.04800
C 	C 	0.51311 0.24541 0.94491 0.02200
C 	C 	0.73347 0.13902 0.92690 0.03400
C 	C 	0.78553 0.19294 0.97459 0.01600
C 	C 	0.77457 0.24457 0.99517 -0.05500
C 	C 	0.71107 0.24213 0.96861 0.10400
C 	C 	0.65747 0.18613 0.92121 -0.04900
C 	C 	0.66988 0.13645 0.90006 0.02000
H 	H 	0.83093 0.54750 0.04887 0.08600
H 	H 	0.78891 0.43732 0.05818 0.08600
H 	H 	0.67340 0.30145 0.90802 0.07500
H 	H 	0.71400 0.41100 0.89886 0.08700
H 	H 	0.55780 0.20845 0.03712 0.09200
H 	H 	0.67149 0.25134 0.04402 0.09300
H 	H 	0.58056 0.28347 0.92261 0.08600
H 	H 	0.46918 0.24438 0.91747 0.09900
H 	H 	0.83489 0.19528 0.99550 0.08900
H 	H 	0.81566 0.28694 0.03175 0.09700
H 	H 	0.60759 0.18277 0.90038 0.08800
H 	H 	0.63013 0.09597 0.86293 0.10300
C 	C 	0.78588 0.54496 0.48010 0.02800
C 	C 	0.83150 0.54068 0.51874 0.01400
C 	C 	0.80387 0.48189 0.52629 -0.04400
C 	C 	0.73069 0.42589 0.49480 0.09900
C 	C 	0.68470 0.43049 0.45618 -0.05000
C 	C 	0.71202 0.49067 0.44960 0.01800
N 	N 	0.70533 0.36110 0.49979 -0.13500
C 	C 	0.51105 0.28000 0.49127 0.03300
C 	C 	0.52459 0.23083 0.47070 0.01500
C 	C 	0.58749 0.25666 0.47278 -0.04300
C 	C 	0.63670 0.33278 0.49393 0.09500
C 	C 	0.62328 0.38167 0.51559 -0.04300
C 	C 	0.56018 0.35540 0.51329 0.01400
C 	C 	0.75050 0.22287 0.43189 0.02000
C 	C 	0.78623 0.25505 0.48116 0.02500
C 	C 	0.76916 0.29822 0.50304 -0.04500
C 	C 	0.71599 0.30934 0.47597 0.10500
C 	C 	0.67801 0.27462 0.42625 -0.05100
C 	C 	0.69515 0.23133 0.40434 0.02400
H 	H 	0.88838 0.58307 0.54297 0.08800
H 	H 	0.83966 0.47862 0.55591 0.09200
H 	H 	0.62803 0.38774 0.43155 0.07900
H 	H 	0.67590 0.49502 0.42077 0.10200
H 	H 	0.48668 0.17242 0.45355 0.11000
H 	H 	0.59805 0.21739 0.45856 0.08500
H 	H 	0.66220 0.44009 0.53466 0.08200
H 	H 	0.54980 0.39372 0.52906 0.10000
H 	H 	0.82792 0.24731 0.50253 0.09000
H 	H 	0.79837 0.32453 0.54124 0.09900
H 	H 	0.63535 0.28105 0.40480 0.08200
H 	H 	0.66618 0.20521 0.36615 0.08900
C 	C 	0.27886 0.49255 0.95621 0.02200
C 	C 	0.32981 0.53909 0.00527 0.03100
C 	C 	0.38071 0.61222 0.02281 -0.03300
C 	C 	0.38295 0.63881 0.99156 0.08700
C 	C 	0.33555 0.59053 0.94239 -0.04400
C 	C 	0.28293 0.51816 0.92484 0.01700
N 	N 	0.42986 0.71633 0.01007 -0.13100
C 	C 	0.58732 0.77862 0.98063 0.03200
C 	C 	0.56968 0.72029 0.99046 0.01300
C 	C 	0.51626 0.69835 0.99827 -0.05200
C 	C 	0.48016 0.73523 0.99706 0.08900
C 	C 	0.50260 0.79768 0.99088 -0.04700
C 	C 	0.55388 0.81742 0.98115 0.00700
C 	C 	0.30000 0.80491 0.99409 0.00600
C 	C 	0.29907 0.77029 0.95534 0.03300
C 	C 	0.34318 0.74298 0.96055 -0.06800
C 	C 	0.38987 0.75134 0.00503 0.11800
C 	C 	0.39249 0.78836 0.04407 -0.05600
C 	C 	0.34802 0.81536 0.03871 0.03700
H 	H 	0.32951 0.51880 0.02976 0.10500
H 	H 	0.41782 0.64861 0.06070 0.09000
H 	H 	0.33940 0.60911 0.91794 0.08500
H 	H 	0.24544 0.48195 0.88692 0.08400
H 	H 	0.59807 0.69256 0.99274 0.10800
H 	H 	0.50456 0.65418 0.00681 0.09300
H 	H 	0.48216 0.83224 0.99485 0.07500
H 	H 	0.56914 0.86429 0.97532 0.09700
H 	H 	0.26364 0.76398 0.92107 0.08500
H 	H 	0.34213 0.71667 0.93041 0.08700
H 	H 	0.42799 0.79480 0.07833 0.09100
H 	H 	0.35008 0.84337 0.06903 0.08000
C 	C 	0.31694 0.57266 0.48295 0.02100
C 	C 	0.35415 0.62654 0.52970 0.01500
C 	C 	0.39599 0.70042 0.54344 -0.05100
C 	C 	0.40075 0.72134 0.51059 0.09700
C 	C 	0.36365 0.66718 0.46366 -0.05600
C 	C 	0.32115 0.59328 0.44982 0.01700
N 	N 	0.44272 0.79820 0.52534 -0.14100
C 	C 	0.59717 0.86151 0.49438 0.01900
C 	C 	0.61273 0.85082 0.53393 0.01900
C 	C 	0.56158 0.82972 0.54372 -0.04800
C 	C 	0.49402 0.81820 0.51381 0.10400
C 	C 	0.47800 0.82788 0.47365 -0.05300
C 	C 	0.52942 0.84943 0.46409 0.01900
C 	C 	0.33128 0.90772 0.51222 0.00600
C 	C 	0.39871 0.93844 0.55430 0.02400
C 	C 	0.43544 0.90261 0.55804 -0.05100
C 	C 	0.40459 0.83516 0.52012 0.10200
C 	C 	0.33648 0.80408 0.47802 -0.06100
C 	C 	0.30009 0.84018 0.47426 0.02300
H 	H 	0.35050 0.61114 0.55535 0.08300
H 	H 	0.42437 0.74165 0.57958 0.08300
H 	H 	0.36679 0.68234 0.43786 0.07300
H 	H 	0.29181 0.55209 0.41348 0.08500
H 	H 	0.66425 0.85825 0.55685 0.08800
H 	H 	0.57431 0.82217 0.57455 0.08700
H 	H 	0.42560 0.81747 0.44947 0.08200
H 	H 	0.51632 0.85585 0.43283 0.08500
H 	H 	0.42269 0.99009 0.58402 0.08800
H 	H 	0.48765 0.92682 0.59058 0.09100
H 	H 	0.31236 0.75294 0.44803 0.07100
H 	H 	0.24771 0.81582 0.44178 0.07500
Zn	Zn	0.14568 0.13134 0.98119 1.20800
Zn	Zn	0.01481 0.04199 0.87660 1.22100
O 	O 	0.04803 0.94658 0.82046 -0.43300
O 	O 	0.98553 0.00265 0.80914 -0.31000
O 	O 	0.05980 0.85829 0.88733 -0.44800
C 	C 	0.23837 0.14101 0.95410 0.32900
O 	O 	0.97225 0.94256 0.86877 -0.85200
C 	C 	0.11539 0.20458 0.92238 0.33100
O 	O 	0.23629 0.15189 0.99098 -0.33900
O 	O 	0.17792 0.10420 0.91143 -0.23900
O 	O 	0.04942 0.06381 0.94423 -0.73400
O 	O 	0.10699 0.95657 0.95553 -0.39700
O 	O 	0.05354 0.14398 0.88576 -0.33300
O 	O 	0.14586 0.21156 0.96538 -0.37100
Zn	Zn	0.86038 0.82769 0.89997 1.18700
Zn	Zn	0.99277 0.89096 0.99087 1.20100
Zn	Zn	0.00277 0.96464 0.93277 1.21100
C 	C 	0.87949 0.73603 0.94690 0.33500
C 	C 	0.81562 0.87530 0.95483 0.31800
O 	O 	0.89567 0.96959 0.90904 -0.44300
Zn	Zn	0.97929 0.01470 0.01076 1.23300
O 	O 	0.94706 0.79025 0.98030 -0.38800
O 	O 	0.83747 0.73969 0.90997 -0.41400
O 	O 	0.79746 0.84906 0.91134 -0.44900
O 	O 	0.88315 0.90621 0.99049 -0.41100
C 	C 	0.03692 0.98762 0.08955 0.29800
O 	O 	0.95382 0.86652 0.92166 -0.75300
C 	C 	0.88768 0.01747 0.93206 0.35100
O 	O 	0.03227 0.93162 0.06189 -0.40100
O 	O 	0.02808 0.03531 0.07638 -0.37000
O 	O 	0.92438 0.04822 0.97830 -0.39700
O 	O 	0.03275 0.98695 0.99623 -0.94400
Zn	Zn	0.01433 0.89658 0.85174 1.19200
C 	C 	0.01605 0.97334 0.79613 0.25800
C 	C 	0.10488 0.89821 0.93358 0.31500
H 	H 	0.08544 0.01967 0.02068 0.23200
H 	H 	0.91912 0.91296 0.84593 0.18000
Zn	Zn	0.15535 0.19732 0.49971 1.19700
Zn	Zn	0.03914 0.11932 0.39513 1.20300
O 	O 	0.05929 0.01127 0.33344 -0.39400
O 	O 	0.01046 0.08109 0.32775 -0.39900
O 	O 	0.07792 0.93887 0.40893 -0.45700
C 	C 	0.24363 0.17975 0.47270 0.30700
O 	O 	0.98664 0.01831 0.38321 -0.82300
C 	C 	0.14576 0.28427 0.45092 0.34200
O 	O 	0.24569 0.21486 0.50896 -0.42000
O 	O 	0.18214 0.12232 0.43447 -0.29400
O 	O 	0.05785 0.13619 0.45941 -0.76000
O 	O 	0.11842 0.03726 0.47443 -0.39300
O 	O 	0.10014 0.22298 0.40976 -0.36200
O 	O 	0.16246 0.28346 0.49100 -0.40500
Zn	Zn	0.86528 0.88152 0.40505 1.19600
Zn	Zn	0.99816 0.95842 0.50117 1.22200
Zn	Zn	0.00870 0.03598 0.44512 1.21800
C 	C 	0.89595 0.80062 0.45876 0.33200
C 	C 	0.80883 0.91450 0.45408 0.32800
O 	O 	0.89907 0.03816 0.41445 -0.38500
Zn	Zn	0.96346 0.06664 0.51431 1.21600
O 	O 	0.96245 0.85754 0.49119 -0.31700
O 	O 	0.85543 0.79598 0.41750 -0.36300
O 	O 	0.79147 0.88572 0.41100 -0.34800
O 	O 	0.87664 0.94976 0.49040 -0.42500
C 	C 	0.02260 0.04308 0.59469 0.34000
O 	O 	0.96143 0.93576 0.43228 -0.74700
C 	C 	0.87922 0.07429 0.43486 0.32900
O 	O 	0.03082 0.99600 0.57073 -0.34800
O 	O 	0.00629 0.08629 0.57965 -0.43800
O 	O 	0.89860 0.08855 0.47798 -0.44000
O 	O 	0.02961 0.05467 0.50645 -0.88200
Zn	Zn	0.02853 0.96990 0.36887 1.18400
C 	C 	0.03516 0.04566 0.31245 0.31600
C 	C 	0.12377 0.98377 0.45466 0.32400
H 	H 	0.08062 0.09174 0.53336 0.20200
H 	H 	0.93431 0.99151 0.35825 0.16400
C 	C 	0.03584 0.99137 0.68753 0.10700
C 	C 	0.02444 0.03887 0.71219 0.15900
N 	N 	0.01759 0.03166 0.74669 -0.04100
C 	C 	0.02298 0.97964 0.75831 0.00100
C 	C 	0.03532 0.93268 0.73402 0.06100
N 	N 	0.04118 0.93931 0.69896 -0.06800
N 	N 	0.03883 0.99607 0.65130 -0.05300
N 	N 	0.01873 0.09065 0.70065 -0.07300
H 	H 	0.03935 0.89069 0.74258 0.06500
C 	C 	0.03076 0.04640 0.63856 0.02500
C 	C 	0.02199 0.09567 0.66453 0.06800
H 	H 	0.01615 0.13657 0.65533 0.07700
C 	C 	0.04739 0.05102 0.19928 0.15400
C 	C 	0.05240 0.99885 0.21327 0.09200
N 	N 	0.04881 0.99838 0.24999 -0.08400
C 	C 	0.03988 0.04776 0.27318 0.03000
C 	C 	0.03621 0.10081 0.25963 0.07200
N 	N 	0.03991 0.10123 0.22290 -0.07800
N 	N 	0.04652 0.04872 0.16081 -0.04900
N 	N 	0.05788 0.94739 0.18880 -0.08900
H 	H 	0.03073 0.14155 0.27830 0.08900
C 	C 	0.04963 0.99580 0.13519 -0.00700
C 	C 	0.05667 0.94480 0.15006 0.05600
H 	H 	0.05960 0.90248 0.13039 0.07100
C 	C 	0.25682 0.38126 0.46756 0.09100
C 	C 	0.18553 0.35390 0.45271 -0.00300
C 	C 	0.15539 0.39618 0.44402 -0.06400
C 	C 	0.19852 0.46660 0.45201 0.00600
C 	C 	0.27049 0.49477 0.46818 0.09400
C 	C 	0.29922 0.45066 0.47414 -0.13000
C 	C 	0.37591 0.47864 0.48945 0.79400
H 	H 	0.27985 0.34917 0.47534 0.09600
H 	H 	0.17704 0.50071 0.44719 0.10100
C 	C 	0.07891 0.36809 0.42907 0.77900
F 	F 	0.39053 0.42432 0.48738 -0.42600
F 	F 	0.42377 0.53539 0.53556 -0.43600
F 	F 	0.38682 0.50348 0.46004 -0.43000
F 	F 	0.07384 0.35948 0.46462 -0.41100
F 	F 	0.03163 0.30138 0.38798 -0.41700
F 	F 	0.05821 0.41574 0.42043 -0.39500
C 	C 	0.76081 0.95891 0.49469 0.06800
C 	C 	0.75215 0.90003 0.46225 0.03000
C 	C 	0.69085 0.82832 0.43925 -0.04900
C 	C 	0.63881 0.81826 0.44832 0.01000
C 	C 	0.64859 0.87680 0.48156 0.10100
C 	C 	0.70865 0.94840 0.50375 -0.14200
C 	C 	0.71811 0.01330 0.53790 0.81200
H 	H 	0.80821 0.01313 0.51263 0.09700
H 	H 	0.59110 0.76427 0.43033 0.10300
C 	C 	0.68051 0.76237 0.40533 0.77900
F 	F 	0.77272 0.07913 0.54939 -0.42200
F 	F 	0.73493 0.00970 0.57919 -0.41600
F 	F 	0.65523 0.01274 0.51772 -0.41300
F 	F 	0.74263 0.76192 0.42552 -0.43100
F 	F 	0.66291 0.76438 0.36351 -0.40400
F 	F 	0.62576 0.69728 0.39448 -0.41600
C 	C 	0.24149 0.00758 0.47318 0.15700
C 	C 	0.18884 0.98298 0.48161 -0.07300
C 	C 	0.19239 0.94585 0.50855 -0.04800
C 	C 	0.24307 0.92567 0.52116 -0.01700
C 	C 	0.29115 0.94410 0.50860 0.12200
C 	C 	0.29366 0.98945 0.48713 -0.20700
C 	C 	0.34921 0.01499 0.47671 0.84400
H 	H 	0.23884 0.03681 0.45305 0.05900
H 	H 	0.24265 0.89215 0.53846 0.10400
C 	C 	0.13792 0.92163 0.51986 0.76700
F 	F 	0.34832 0.06542 0.46092 -0.43600
F 	F 	0.33524 0.95582 0.44206 -0.45600
F 	F 	0.41746 0.04776 0.51737 -0.40300
F 	F 	0.07149 0.86491 0.47886 -0.46300
F 	F 	0.13255 0.97932 0.53826 -0.51100
F 	F 	0.15749 0.89777 0.55293 -0.42000
C 	C 	0.13191 0.32602 0.93861 0.08700
C 	C 	0.14001 0.27132 0.91769 0.01500
C 	C 	0.18225 0.28661 0.89999 -0.06100
C 	C 	0.22781 0.35960 0.91324 0.02300
C 	C 	0.22404 0.41543 0.93759 0.09700
C 	C 	0.17036 0.39722 0.94600 -0.12300
C 	C 	0.15560 0.45357 0.96439 0.78600
H 	H 	0.09745 0.31371 0.95050 0.10800
H 	H 	0.26687 0.37310 0.90502 0.10100
C 	C 	0.18190 0.22703 0.86868 0.78100
F 	F 	0.08665 0.41982 0.95307 -0.39700
F 	F 	0.16125 0.49931 0.94449 -0.40100
F 	F 	0.20424 0.49486 0.01313 -0.41000
F 	F 	0.11834 0.15986 0.84361 -0.43800
F 	F 	0.23887 0.22212 0.89627 -0.42400
F 	F 	0.18986 0.24399 0.83597 -0.42000
C 	C 	0.69334 0.78306 0.92838 0.09300
C 	C 	0.75783 0.85186 0.96229 -0.02500
C 	C 	0.76496 0.89772 0.00166 -0.04400
C 	C 	0.71032 0.87025 0.00830 0.02100
C 	C 	0.64506 0.80301 0.97341 0.09100
C 	C 	0.63490 0.76071 0.93170 -0.11300
C 	C 	0.56264 0.69107 0.89112 0.79200
H 	H 	0.68845 0.74721 0.89902 0.08300
H 	H 	0.71787 0.90190 0.04031 0.09500
C 	C 	0.83029 0.97516 0.03690 0.74100
F 	F 	0.55873 0.66946 0.84990 -0.40900
F 	F 	0.50704 0.70171 0.88182 -0.41900
F 	F 	0.55307 0.63533 0.90271 -0.40500
F 	F 	0.84714 0.01115 0.01355 -0.42900
F 	F 	0.88821 0.97319 0.06674 -0.44600
F 	F 	0.81768 0.01541 0.06434 -0.39000
C 	C 	0.27955 0.90562 0.99682 -0.00300
C 	C 	0.25290 0.83330 0.98827 0.09500
C 	C 	0.17982 0.78668 0.96976 -0.12600
C 	C 	0.13321 0.81173 0.95593 0.07200
C 	C 	0.15836 0.88183 0.95999 -0.02000
C 	C 	0.23277 0.93011 0.98180 -0.08800
C 	C 	0.26159 0.00619 0.98700 0.78800
H 	H 	0.33633 0.94160 0.01295 0.10400
H 	H 	0.07641 0.77544 0.93965 0.09800
C 	C 	0.15073 0.70903 0.96228 0.78700
F 	F 	0.33376 0.04223 0.00465 -0.41500
F 	F 	0.25385 0.04717 0.01771 -0.44300
F 	F 	0.22353 0.00115 0.94314 -0.46800
F 	F 	0.19363 0.70938 0.00345 -0.39800
F 	F 	0.14994 0.66765 0.92623 -0.41100
F 	F 	0.08137 0.67587 0.95009 -0.37100
C 	C 	0.72932 0.10250 0.39027 0.00700
C 	C 	0.77006 0.17856 0.40932 0.10100
C 	C 	0.83812 0.21212 0.41733 -0.13200
C 	C 	0.87212 0.17327 0.41931 0.08600
C 	C 	0.83611 0.10044 0.40958 -0.02500
C 	C 	0.76116 0.06229 0.38794 -0.04400
C 	C 	0.71568 0.97989 0.36486 0.75900
H 	H 	0.67482 0.07550 0.38054 0.10700
H 	H 	0.92840 0.20145 0.43254 0.08100
C 	C 	0.87749 0.29100 0.42838 0.79400
F 	F 	0.64792 0.95313 0.32566 -0.41900
F 	F 	0.70838 0.96017 0.39680 -0.44100
F 	F 	0.74618 0.94821 0.34983 -0.45400
F 	F 	0.91818 0.33647 0.47664 -0.41100
F 	F 	0.82943 0.30910 0.40487 -0.39900
F 	F 	0.92263 0.30231 0.41404 -0.36300
C 	C 	0.83586 0.67714 0.50722 0.01400
C 	C 	0.81471 0.60991 0.47429 0.09500
C 	C 	0.82426 0.60597 0.43768 -0.11900
C 	C 	0.84874 0.66865 0.43239 0.09100
C 	C 	0.87057 0.73618 0.46563 0.02400
C 	C 	0.86560 0.74100 0.50418 -0.05300
C 	C 	0.89647 0.81443 0.54380 0.77500
H 	H 	0.83022 0.67967 0.53584 0.09700
H 	H 	0.85185 0.66531 0.40275 0.10200
C 	C 	0.80695 0.53497 0.40363 0.79100
F 	F 	0.87873 0.80650 0.57482 -0.43000
F 	F 	0.87009 0.85285 0.52546 -0.43800
F 	F 	0.97068 0.85430 0.56925 -0.41100
F 	F 	0.73313 0.48682 0.37215 -0.41700
F 	F 	0.83633 0.50344 0.42819 -0.40100
F 	F 	0.83474 0.54662 0.37792 -0.39900
C 	C 	0.38202 0.23733 0.44543 0.02400
C 	C 	0.44247 0.25243 0.48641 0.10200
C 	C 	0.43710 0.24084 0.52211 -0.10900
C 	C 	0.37130 0.21698 0.51670 0.09200
C 	C 	0.31083 0.20280 0.47596 -0.00400
C 	C 	0.31611 0.21338 0.43979 -0.05600
C 	C 	0.25077 0.19381 0.39360 0.77600
H 	H 	0.38650 0.24405 0.41772 0.10400
H 	H 	0.36659 0.20849 0.54395 0.09000
C 	C 	0.50131 0.25369 0.56581 0.79400
F 	F 	0.27063 0.22304 0.36842 -0.41800
F 	F 	0.21253 0.22063 0.40196 -0.46000
F 	F 	0.20674 0.11861 0.36579 -0.42900
F 	F 	0.55620 0.32679 0.59162 -0.42300
F 	F 	0.52561 0.21178 0.55244 -0.39200
F 	F 	0.48399 0.23502 0.59498 -0.40400
C 	C 	0.79749 0.11328 0.89444 0.03000
C 	C 	0.74759 0.08745 0.90497 0.06900
C 	C 	0.72643 0.02020 0.90575 -0.05300
C 	C 	0.76604 0.98844 0.90545 0.01100
C 	C 	0.82673 0.02414 0.90592 0.02700
C 	C 	0.83689 0.08113 0.89420 -0.08400
C 	C 	0.89509 0.11303 0.88687 0.78200
H 	H 	0.81067 0.16268 0.89125 0.09900
H 	H 	0.75449 0.94048 0.90998 0.10000
C 	C 	0.66728 0.98673 0.91219 0.74200
F 	F 	0.88254 0.15107 0.86228 -0.41000
F 	F 	0.89682 0.05773 0.86097 -0.48800
F 	F 	0.96126 0.16031 0.93038 -0.44900
F 	F 	0.60675 0.98317 0.88016 -0.42900
F 	F 	0.69102 0.02896 0.95778 -0.39700
F 	F 	0.64749 0.91634 0.90478 -0.42100
C 	C 	0.79129 0.64915 0.95322 0.08300
C 	C 	0.85032 0.66971 0.95078 -0.01700
C 	C 	0.88287 0.62881 0.95444 -0.06100
C 	C 	0.86012 0.57259 0.96533 0.00500
C 	C 	0.80093 0.55167 0.96752 0.09500
C 	C 	0.76523 0.58944 0.96080 -0.13400
C 	C 	0.70035 0.56694 0.96250 0.78600
H 	H 	0.76657 0.68066 0.95000 0.07600
H 	H 	0.88743 0.54370 0.97111 0.10900
C 	C 	0.94318 0.64613 0.94822 0.79500
F 	F 	0.67168 0.60880 0.95336 -0.41400
F 	F 	0.72037 0.57545 0.00697 -0.43100
F 	F 	0.64701 0.49449 0.92893 -0.42400
F 	F 	0.00711 0.70614 0.98938 -0.43000
F 	F 	0.92864 0.66090 0.91079 -0.42300
F 	F 	0.95148 0.58766 0.93866 -0.37500
C 	C 	0.43590 0.24954 0.00294 0.04400
C 	C 	0.43861 0.19908 0.97302 0.08500
C 	C 	0.37567 0.12939 0.93713 -0.11000
C 	C 	0.30975 0.11431 0.92910 0.09900
C 	C 	0.30715 0.16364 0.95991 0.04900
C 	C 	0.37012 0.23387 0.99561 -0.07700
C 	C 	0.36777 0.29234 0.02579 0.79600
H 	H 	0.48497 0.30207 0.03105 0.09900
H 	H 	0.26034 0.06338 0.89933 0.12300
C 	C 	0.37819 0.07185 0.90641 0.79300
F 	F 	0.42761 0.36133 0.04688 -0.41800
F 	F 	0.36652 0.27874 0.06115 -0.41000
F 	F 	0.30755 0.29331 0.99849 -0.43300
F 	F 	0.43616 0.06797 0.93400 -0.41600
F 	F 	0.38453 0.08950 0.87350 -0.42000
F 	F 	0.31636 0.00314 0.88239 -0.40100
