data_crystal

_cell_length_a 26.16622
_cell_length_b 26.39458
_cell_length_c 34.90570
_cell_angle_alpha 95.46950
_cell_angle_beta  95.46648
_cell_angle_gamma 125.80948

_symmetry_space_group_name_	'P 1'
_symmetry_space_group_name_H-M	'P 1'

loop_
_symmetry_equiv_pos_as_xyz
  x,y,z

loop_
_atom_site_label
_atom_site_type_symbol
_atom_site_fract_x
_atom_site_fract_y
_atom_site_fract_z
_atom_site_charge
C 	C 	0.98382 0.02796 0.99386 0.13000
N 	N 	0.94812 0.96354 0.98796 -0.14400
C 	C 	0.97666 0.93448 0.98329 0.13000
N 	N 	0.04095 0.96989 0.98489 -0.14500
C 	C 	0.07654 0.03415 0.99013 0.12600
N 	N 	0.04801 0.06327 0.99468 -0.14300
C 	C 	0.92595 0.00514 0.46339 0.12700
N 	N 	0.89280 0.94388 0.46869 -0.14300
C 	C 	0.92261 0.91572 0.47130 0.12600
N 	N 	0.98473 0.94801 0.46694 -0.14000
C 	C 	0.01781 0.00904 0.46146 0.12000
N 	N 	0.98855 0.03774 0.46003 -0.13900
Cu	Cu	0.65666 0.24482 0.00427 0.93200
Cu	Cu	0.69104 0.22498 0.91862 0.87900
Cu	Cu	0.69655 0.33820 0.94788 0.91000
Cu	Cu	0.67542 0.37375 0.02694 0.90700
C 	C 	0.67106 0.29345 0.08483 0.30700
O 	O 	0.56602 0.21417 0.00685 -0.32900
C 	C 	0.65933 0.28009 0.86387 0.30800
O 	O 	0.71555 0.34269 0.00290 -0.63700
O 	O 	0.64350 0.24465 0.94754 -0.63900
O 	O 	0.68887 0.19257 0.00352 -0.35800
O 	O 	0.75477 0.24433 0.96089 -0.43500
O 	O 	0.68032 0.34675 0.07826 -0.32100
O 	O 	0.75217 0.42949 0.95225 -0.35700
C 	C 	0.75026 0.46932 0.97684 0.30000
C 	C 	0.54508 0.24622 0.99610 0.31400
O 	O 	0.58498 0.30237 0.98748 -0.36900
O 	O 	0.70880 0.44901 0.00088 -0.37200
O 	O 	0.68174 0.26112 0.05985 -0.34800
C 	C 	0.73925 0.20929 0.98806 0.29700
O 	O 	0.69222 0.33276 0.89074 -0.33400
O 	O 	0.64892 0.22725 0.87177 -0.38300
H 	H 	0.76185 0.36657 0.01367 0.17000
H 	H 	0.59818 0.22185 0.93474 0.20000
Cu	Cu	0.72472 0.34430 0.45448 0.93500
Cu	Cu	0.71673 0.29262 0.53718 0.88700
Cu	Cu	0.61570 0.30087 0.49974 0.90200
Cu	Cu	0.60354 0.33641 0.42205 0.90600
C 	C 	0.68363 0.32545 0.37161 0.30900
O 	O 	0.75878 0.43601 0.45546 -0.35300
C 	C 	0.65166 0.32031 0.58620 0.30500
O 	O 	0.62409 0.28836 0.44647 -0.63800
O 	O 	0.71101 0.34925 0.50907 -0.63800
O 	O 	0.77476 0.30967 0.45991 -0.35000
O 	O 	0.70674 0.23609 0.49411 -0.41900
O 	O 	0.65423 0.35120 0.37954 -0.35900
O 	O 	0.52319 0.24915 0.48712 -0.37000
C 	C 	0.48929 0.25485 0.45973 0.30400
C 	C 	0.72793 0.45780 0.46784 0.29400
O 	O 	0.66672 0.41790 0.46909 -0.39000
O 	O 	0.51620 0.29493 0.43534 -0.38000
O 	O 	0.72188 0.32601 0.39953 -0.31000
C 	C 	0.75133 0.25622 0.47269 0.30900
O 	O 	0.60622 0.29912 0.55523 -0.36400
O 	O 	0.70562 0.32838 0.58281 -0.34300
H 	H 	0.59930 0.24324 0.43354 0.20800
H 	H 	0.73428 0.39279 0.52442 0.19700
C 	C 	0.60708 0.31706 0.77214 0.03000
C 	C 	0.63329 0.30075 0.74468 0.09500
C 	C 	0.66707 0.27628 0.75624 -0.11500
C 	C 	0.67367 0.26867 0.79530 0.07600
C 	C 	0.64665 0.28411 0.82260 -0.00900
C 	C 	0.61062 0.30602 0.81062 -0.06600
C 	C 	0.62810 0.31265 0.70433 0.08600
C 	C 	0.70044 0.26307 0.72792 0.78900
H 	H 	0.70154 0.25245 0.80493 0.06800
C 	C 	0.57786 0.31983 0.83899 0.77500
H 	H 	0.58366 0.33815 0.76339 0.11000
C 	C 	0.57623 0.26497 0.67428 -0.10700
C 	C 	0.58224 0.27029 0.63495 0.07500
C 	C 	0.63709 0.32407 0.62574 -0.00100
C 	C 	0.68210 0.37701 0.65589 -0.07100
C 	C 	0.67842 0.36990 0.69514 0.03700
C 	C 	0.51576 0.20774 0.68406 0.78800
H 	H 	0.54625 0.23114 0.61159 0.07900
C 	C 	0.73566 0.43999 0.64656 0.77900
H 	H 	0.71631 0.40766 0.71848 0.10100
F 	F 	0.53196 0.32359 0.81935 -0.42700
F 	F 	0.62299 0.37716 0.86412 -0.45200
F 	F 	0.54736 0.27205 0.86062 -0.45100
F 	F 	0.75104 0.31976 0.71967 -0.43800
F 	F 	0.65809 0.22411 0.69344 -0.41900
F 	F 	0.72444 0.23301 0.74344 -0.43900
F 	F 	0.75656 0.48966 0.67676 -0.43900
F 	F 	0.71478 0.45157 0.61290 -0.47000
F 	F 	0.78677 0.43891 0.64139 -0.43200
F 	F 	0.46868 0.17015 0.65096 -0.43700
F 	F 	0.49131 0.22782 0.70978 -0.43200
F 	F 	0.52951 0.17088 0.70116 -0.40900
C 	C 	0.65702 0.24277 0.26898 0.02800
C 	C 	0.68777 0.29470 0.24967 0.09700
C 	C 	0.72202 0.35743 0.27132 -0.11600
C 	C 	0.72185 0.36637 0.31165 0.07600
C 	C 	0.68945 0.31435 0.33066 -0.00600
C 	C 	0.65840 0.25200 0.30956 -0.07300
C 	C 	0.67688 0.28249 0.20626 0.08700
C 	C 	0.75330 0.41445 0.25096 0.79000
H 	H 	0.74519 0.41382 0.32818 0.07700
C 	C 	0.62501 0.19530 0.33005 0.77500
H 	H 	0.63035 0.19507 0.25202 0.11400
C 	C 	0.71757 0.27600 0.18586 -0.10600
C 	C 	0.71322 0.27688 0.14543 0.07600
C 	C 	0.66679 0.28052 0.12513 0.00200
C 	C 	0.61988 0.27681 0.14460 -0.07200
C 	C 	0.62688 0.28013 0.18535 0.03600
C 	C 	0.76493 0.26756 0.20699 0.78800
H 	H 	0.74725 0.27698 0.12996 0.08100
C 	C 	0.56446 0.27300 0.12269 0.77600
H 	H 	0.59465 0.28300 0.20113 0.10200
F 	F 	0.66861 0.20238 0.35997 -0.44300
F 	F 	0.59857 0.13870 0.30467 -0.43200
F 	F 	0.57624 0.19117 0.34557 -0.46700
F 	F 	0.70640 0.41587 0.23045 -0.43800
F 	F 	0.78878 0.41120 0.22526 -0.41200
F 	F 	0.79445 0.47099 0.27763 -0.43600
F 	F 	0.51426 0.24808 0.14301 -0.44500
F 	F 	0.54112 0.23407 0.08628 -0.46600
F 	F 	0.58503 0.33331 0.11820 -0.45300
F 	F 	0.79965 0.26143 0.18187 -0.43600
F 	F 	0.73217 0.21329 0.22309 -0.43500
F 	F 	0.80784 0.31946 0.23655 -0.40700
C 	C 	0.88699 0.77074 0.50930 -0.07700
C 	C 	0.83141 0.72215 0.48255 -0.00500
C 	C 	0.80001 0.73752 0.45631 0.04600
C 	C 	0.82929 0.80148 0.45382 -0.04600
C 	C 	0.88758 0.85008 0.47861 -0.04400
C 	C 	0.91424 0.83474 0.50840 0.07500
C 	C 	0.80874 0.65560 0.48053 0.00900
C 	C 	0.73661 0.68593 0.43008 -0.18600
H 	H 	0.80767 0.81333 0.43185 0.05200
C 	C 	0.97248 0.88613 0.53861 -0.19200
H 	H 	0.90975 0.75873 0.53033 0.06100
C 	C 	0.82650 0.62835 0.45310 0.03700
C 	C 	0.80043 0.56380 0.44973 -0.01300
C 	C 	0.75960 0.52702 0.47474 -0.10500
C 	C 	0.74715 0.55622 0.50482 0.11400
C 	C 	0.77004 0.61974 0.50654 -0.09300
C 	C 	0.87260 0.66769 0.42713 -0.18300
H 	H 	0.81108 0.54189 0.42718 0.06100
C 	C 	0.70966 0.52025 0.53505 -0.22200
H 	H 	0.75799 0.64141 0.52828 0.06400
H 	H 	0.01660 0.90383 0.52641 0.07800
H 	H 	0.97543 0.86771 0.56541 0.08000
H 	H 	0.97036 0.92629 0.54763 0.07900
H 	H 	0.70298 0.65154 0.44737 0.07600
H 	H 	0.74387 0.66039 0.40669 0.07800
H 	H 	0.71370 0.70576 0.41601 0.07600
H 	H 	0.88643 0.64111 0.41012 0.08900
H 	H 	0.91718 0.71132 0.44516 0.08100
H 	H 	0.85018 0.68139 0.40609 0.08000
H 	H 	0.71980 0.55332 0.56187 0.11200
H 	H 	0.72299 0.48962 0.54407 0.12300
H 	H 	0.65748 0.49045 0.52287 0.09500
C 	C 	0.84079 0.07695 0.48953 -0.07700
C 	C 	0.84235 0.10418 0.45668 -0.00600
C 	C 	0.86863 0.09626 0.42518 0.04900
C 	C 	0.89419 0.06216 0.42744 -0.04600
C 	C 	0.89401 0.03611 0.46069 -0.04400
C 	C 	0.86733 0.04379 0.49213 0.07600
C 	C 	0.81963 0.14403 0.45656 0.00900
C 	C 	0.87148 0.12587 0.38980 -0.19100
H 	H 	0.91507 0.05657 0.40349 0.05000
C 	C 	0.86742 0.01725 0.52855 -0.19600
H 	H 	0.82009 0.08281 0.51348 0.05800
C 	C 	0.75408 0.11635 0.44430 0.04100
C 	C 	0.73297 0.15445 0.44817 -0.00100
C 	C 	0.77637 0.21960 0.46412 -0.09500
C 	C 	0.84236 0.24760 0.47534 0.10900
C 	C 	0.86344 0.20955 0.47102 -0.08800
C 	C 	0.70617 0.04591 0.42867 -0.18200
H 	H 	0.68245 0.13312 0.43952 0.07000
C 	C 	0.89024 0.31755 0.49255 -0.21000
H 	H 	0.91387 0.23065 0.47986 0.06100
H 	H 	0.83284 0.96457 0.52180 0.08200
H 	H 	0.85331 0.03505 0.55236 0.07900
H 	H 	0.91613 0.03159 0.53982 0.08100
H 	H 	0.90509 0.17849 0.39830 0.08700
H 	H 	0.82314 0.11144 0.37741 0.09100
H 	H 	0.88831 0.11078 0.36635 0.08300
H 	H 	0.65819 0.03278 0.41670 0.09100
H 	H 	0.70106 0.01922 0.45257 0.07800
H 	H 	0.72235 0.03110 0.40467 0.08300
H 	H 	0.87458 0.33050 0.51774 0.07700
H 	H 	0.89496 0.34604 0.46984 0.10300
H 	H 	0.93848 0.33042 0.50340 0.08500
C 	C 	0.17627 0.10590 0.42651 -0.07600
C 	C 	0.21838 0.11405 0.45872 -0.00700
C 	C 	0.19464 0.08805 0.49197 0.04800
C 	C 	0.12883 0.05390 0.49237 -0.04700
C 	C 	0.08660 0.04542 0.46009 -0.04300
C 	C 	0.11026 0.07083 0.42662 0.07400
C 	C 	0.28753 0.15027 0.45749 0.01100
C 	C 	0.23939 0.09734 0.52720 -0.19000
H 	H 	0.11042 0.03415 0.51793 0.04800
C 	C 	0.06561 0.06122 0.39119 -0.19500
H 	H 	0.19488 0.12633 0.40117 0.05600
C 	C 	0.31259 0.11951 0.44180 0.03400
C 	C 	0.37885 0.15454 0.44267 -0.00900
C 	C 	0.42004 0.21969 0.45862 -0.10000
C 	C 	0.39490 0.25057 0.47399 0.11200
C 	C 	0.32862 0.21563 0.47292 -0.09200
C 	C 	0.26888 0.04954 0.42416 -0.18000
H 	H 	0.39843 0.13110 0.43090 0.05100
C 	C 	0.43855 0.32055 0.49164 -0.21300
H 	H 	0.30902 0.23904 0.48467 0.06100
H 	H 	0.02363 0.01036 0.38264 0.07900
H 	H 	0.08982 0.07526 0.36558 0.07600
H 	H 	0.04877 0.09056 0.39786 0.08000
H 	H 	0.27431 0.14875 0.54008 0.08800
H 	H 	0.26581 0.07845 0.51852 0.08500
H 	H 	0.21304 0.07223 0.55025 0.08400
H 	H 	0.29594 0.03264 0.41323 0.08100
H 	H 	0.23320 0.04021 0.39909 0.07700
H 	H 	0.24333 0.02151 0.44650 0.07600
H 	H 	0.46078 0.34868 0.46861 0.08600
H 	H 	0.47685 0.33074 0.51510 0.09000
H 	H 	0.41204 0.33646 0.50484 0.08300
C 	C 	0.90626 0.76372 0.94218 -0.07800
C 	C 	0.87581 0.73349 0.97243 -0.00600
C 	C 	0.87512 0.76872 0.00522 0.04600
C 	C 	0.90664 0.83427 0.00773 -0.04200
C 	C 	0.93838 0.86480 0.97791 -0.04700
C 	C 	0.93627 0.82892 0.94419 0.07700
C 	C 	0.84519 0.66487 0.96974 0.00800
C 	C 	0.84244 0.73695 0.03802 -0.18500
H 	H 	0.90780 0.86187 0.03335 0.04700
C 	C 	0.96707 0.86005 0.91072 -0.19300
H 	H 	0.90629 0.73635 0.91697 0.06100
C 	C 	0.78068 0.61884 0.95091 0.03900
C 	C 	0.75091 0.55448 0.95220 -0.00900
C 	C 	0.78491 0.53562 0.97159 -0.09100
C 	C 	0.85040 0.58122 0.98849 0.10200
C 	C 	0.88007 0.64569 0.98748 -0.08900
C 	C 	0.74313 0.63835 0.93030 -0.18200
H 	H 	0.70083 0.51908 0.93878 0.07100
C 	C 	0.88803 0.56162 0.00885 -0.20500
H 	H 	0.92989 0.68119 0.00136 0.06200
H 	H 	0.95576 0.89310 0.90387 0.07800
H 	H 	0.94926 0.82420 0.88365 0.08000
H 	H 	0.01988 0.88680 0.91859 0.07800
H 	H 	0.86748 0.71966 0.05278 0.07900
H 	H 	0.79161 0.69612 0.02630 0.07700
H 	H 	0.84281 0.77017 0.06035 0.07500
H 	H 	0.69391 0.59652 0.91606 0.08900
H 	H 	0.76774 0.66482 0.90720 0.08300
H 	H 	0.73897 0.66915 0.95167 0.07500
H 	H 	0.88501 0.52446 0.98863 0.08200
H 	H 	0.86831 0.54252 0.03509 0.07900
H 	H 	0.93955 0.60231 0.01848 0.08200
C 	C 	0.87479 0.19864 0.01814 -0.09400
C 	C 	0.84500 0.13420 0.00368 0.01500
C 	C 	0.77833 0.09287 0.98876 0.02700
C 	C 	0.74340 0.11769 0.98591 -0.00800
C 	C 	0.77412 0.18292 0.99790 -0.11300
C 	C 	0.83965 0.22328 0.01574 0.11900
C 	C 	0.88454 0.11103 0.00225 -0.00200
C 	C 	0.74488 0.02288 0.97455 -0.17600
H 	H 	0.69276 0.08665 0.97297 0.03800
C 	C 	0.87274 0.29291 0.03099 -0.21600
H 	H 	0.92573 0.22993 0.03029 0.06500
C 	C 	0.91393 0.11445 0.96968 0.04100
C 	C 	0.94783 0.08855 0.96790 -0.04200
C 	C 	0.95261 0.05932 0.99809 -0.04800
C 	C 	0.92561 0.05837 0.03145 0.08100
C 	C 	0.89139 0.08396 0.03313 -0.07900
C 	C 	0.90843 0.14479 0.93659 -0.18300
H 	H 	0.96948 0.08999 0.94264 0.04800
C 	C 	0.93181 0.02882 0.06481 -0.19800
H 	H 	0.86919 0.08195 0.05821 0.06200
H 	H 	0.88166 0.31844 0.00606 0.08500
H 	H 	0.91946 0.31486 0.05060 0.09100
H 	H 	0.84260 0.29923 0.04816 0.09500
H 	H 	0.75284 0.00181 0.99834 0.07600
H 	H 	0.76386 0.01603 0.94901 0.07100
H 	H 	0.69228 0.99659 0.96540 0.07300
H 	H 	0.93431 0.14391 0.91339 0.07400
H 	H 	0.92934 0.19522 0.94787 0.07500
H 	H 	0.85723 0.11890 0.92297 0.07200
H 	H 	0.91722 0.04074 0.09103 0.08100
H 	H 	0.98239 0.04660 0.07355 0.08300
H 	H 	0.90075 0.97628 0.05569 0.08000
C 	C 	0.39092 0.22625 0.00518 -0.08900
C 	C 	0.34506 0.16143 0.98960 0.01700
C 	C 	0.36456 0.12498 0.97447 0.03800
C 	C 	0.43013 0.15380 0.97614 0.00300
C 	C 	0.47637 0.21832 0.99288 -0.08600
C 	C 	0.45657 0.25484 0.00789 0.14100
C 	C 	0.27673 0.13150 0.99066 -0.00900
C 	C 	0.31567 0.05537 0.95682 -0.17800
H 	H 	0.44525 0.12596 0.96449 0.05300
C 	C 	0.50477 0.32424 0.02637 -0.22600
H 	H 	0.37549 0.25413 0.01620 0.06800
C 	C 	0.25125 0.10876 0.02426 0.05300
C 	C 	0.18594 0.07924 0.02417 -0.04500
C 	C 	0.14592 0.07197 0.99104 -0.04500
C 	C 	0.17163 0.09583 0.95772 0.07500
C 	C 	0.23712 0.12593 0.95793 -0.07600
C 	C 	0.29344 0.11556 0.06008 -0.19500
H 	H 	0.16590 0.06084 0.04967 0.05200
C 	C 	0.12915 0.08792 0.92165 -0.19600
H 	H 	0.25712 0.14409 0.93239 0.06200
H 	H 	0.54471 0.33193 0.04693 0.12600
H 	H 	0.48261 0.34180 0.04346 0.10600
H 	H 	0.52409 0.35297 0.00318 0.10000
H 	H 	0.28254 0.04949 0.93140 0.08000
H 	H 	0.28764 0.02916 0.97901 0.07600
H 	H 	0.33866 0.03353 0.94638 0.08000
H 	H 	0.26585 0.09378 0.08347 0.08700
H 	H 	0.33186 0.16669 0.07215 0.10200
H 	H 	0.31561 0.09166 0.05231 0.09400
H 	H 	0.10687 0.11184 0.92902 0.08000
H 	H 	0.09082 0.03657 0.91005 0.07600
H 	H 	0.15654 0.10903 0.89807 0.08000
