data_crystal

_cell_length_a 19.10281
_cell_length_b 19.20422
_cell_length_c 43.16766
_cell_angle_alpha 89.97927
_cell_angle_beta  90.02069
_cell_angle_gamma 120.04805

_symmetry_space_group_name_	'P 1'
_symmetry_space_group_name_H-M	'P 1'

loop_
_symmetry_equiv_pos_as_xyz
  x,y,z

loop_
_atom_site_label
_atom_site_type_symbol
_atom_site_fract_x
_atom_site_fract_y
_atom_site_fract_z
_atom_site_charge
Cu	Cu	0.65298 0.39838 0.57117 0.95000
Cu	Cu	0.75960 0.42158 0.63416 0.90500
Cu	Cu	0.82839 0.43907 0.57183 0.91300
Cu	Cu	0.75925 0.44305 0.51094 0.92400
C 	C 	0.61758 0.46674 0.51864 0.29500
O 	O 	0.60513 0.29536 0.54587 -0.25000
C 	C 	0.88760 0.38795 0.62409 0.28900
O 	O 	0.76670 0.47940 0.55199 -0.63900
O 	O 	0.72487 0.36981 0.59397 -0.63100
O 	O 	0.60453 0.42179 0.60772 -0.28400
O 	O 	0.72736 0.49961 0.62992 -0.35000
O 	O 	0.65517 0.43962 0.50091 -0.29800
O 	O 	0.92825 0.51383 0.55191 -0.33200
C 	C 	0.93948 0.52469 0.52173 0.35400
C 	C 	0.65206 0.27103 0.53348 0.28600
O 	O 	0.72802 0.32393 0.52757 -0.34500
O 	O 	0.87830 0.49730 0.50192 -0.29200
O 	O 	0.60184 0.44534 0.54802 -0.26500
C 	C 	0.65041 0.47677 0.62803 0.30500
O 	O 	0.88796 0.39637 0.59372 -0.31300
O 	O 	0.82315 0.37111 0.64074 -0.30800
H 	H 	0.78840 0.53795 0.55443 0.23300
H 	H 	0.70984 0.31251 0.59407 0.25600
Cu	Cu	0.37608 0.67260 0.42591 0.94300
Cu	Cu	0.37902 0.77975 0.36643 0.92400
Cu	Cu	0.40947 0.84440 0.43171 0.91200
Cu	Cu	0.44257 0.77368 0.48741 0.93800
C 	C 	0.46226 0.63460 0.47091 0.30700
O 	O 	0.28186 0.62366 0.45594 -0.28500
C 	C 	0.35041 0.90609 0.38275 0.29300
O 	O 	0.46175 0.78547 0.44435 -0.63100
O 	O 	0.33914 0.74327 0.40827 -0.62500
O 	O 	0.38784 0.62688 0.38627 -0.29300
O 	O 	0.45971 0.75000 0.36397 -0.34700
O 	O 	0.44032 0.66916 0.49217 -0.27600
O 	O 	0.48441 0.94354 0.45248 -0.30200
C 	C 	0.50808 0.95114 0.48165 0.30100
C 	C 	0.26332 0.66868 0.47319 0.28700
O 	O 	0.31822 0.74346 0.47947 -0.34100
O 	O 	0.50574 0.89077 0.49732 -0.29600
O 	O 	0.43061 0.62068 0.44290 -0.29700
C 	C 	0.43912 0.67399 0.36519 0.30600
O 	O 	0.36317 0.90493 0.41276 -0.31500
O 	O 	0.32550 0.84107 0.36573 -0.30600
H 	H 	0.51909 0.80988 0.43799 0.24800
H 	H 	0.28067 0.72378 0.41075 0.21400
Cu	Cu	0.53064 0.24603 0.24554 0.94400
Cu	Cu	0.50377 0.33794 0.30434 0.92500
Cu	Cu	0.49637 0.38380 0.23867 0.92200
Cu	Cu	0.48581 0.29200 0.18102 0.93300
C 	C 	0.45872 0.13021 0.19671 0.30500
O 	O 	0.63484 0.29704 0.22074 -0.30600
C 	C 	0.53780 0.49620 0.29016 0.28600
O 	O 	0.45165 0.27632 0.22282 -0.63100
O 	O 	0.55933 0.34956 0.26523 -0.62700
O 	O 	0.50604 0.18120 0.28411 -0.28500
O 	O 	0.42540 0.22726 0.30238 -0.36200
O 	O 	0.48776 0.18948 0.17639 -0.30300
O 	O 	0.42748 0.40982 0.21441 -0.31100
C 	C 	0.42032 0.40473 0.18397 0.31400
C 	C 	0.65972 0.36383 0.20473 0.28500
O 	O 	0.60711 0.38407 0.19490 -0.29600
O 	O 	0.42693 0.34913 0.16823 -0.29900
O 	O 	0.48395 0.14329 0.22567 -0.30600
C 	C 	0.44879 0.17384 0.30291 0.30700
O 	O 	0.53401 0.48669 0.25980 -0.26000
O 	O 	0.55541 0.45207 0.30834 -0.29500
H 	H 	0.39270 0.24171 0.22609 0.23100
H 	H 	0.61794 0.38864 0.26625 0.26300
Cu	Cu	0.25945 0.70000 0.09791 0.94500
Cu	Cu	0.14777 0.61921 0.03646 0.89700
Cu	Cu	0.08616 0.56105 0.10088 0.91400
Cu	Cu	0.16325 0.64104 0.16093 0.92100
C 	C 	0.30026 0.80605 0.15000 0.29400
O 	O 	0.31148 0.64553 0.12081 -0.29500
C 	C 	0.02179 0.45904 0.04588 0.25700
O 	O 	0.14806 0.66488 0.11989 -0.63700
O 	O 	0.18639 0.60041 0.07551 -0.63500
O 	O 	0.30164 0.77222 0.06129 -0.29200
O 	O 	0.17618 0.72826 0.04172 -0.38400
O 	O 	0.26709 0.74314 0.16864 -0.30400
O 	O 	0.98887 0.53073 0.12441 -0.29900
C 	C 	0.98372 0.53072 0.15491 0.35700
C 	C 	0.26856 0.57588 0.13496 0.28500
O 	O 	0.19453 0.55296 0.14426 -0.29700
O 	O 	0.04597 0.58032 0.17238 -0.35100
O 	O 	0.31378 0.79832 0.12063 -0.25000
C 	C 	0.25238 0.78419 0.04386 0.30500
O 	O 	0.02155 0.46318 0.07643 -0.27600
O 	O 	0.08712 0.50608 0.02973 -0.31500
H 	H 	0.12425 0.70010 0.11781 0.20400
H 	H 	0.20591 0.56163 0.07372 0.25000
Cu	Cu	0.22720 0.55104 0.76110 0.94400
Cu	Cu	0.32078 0.53026 0.70164 0.93800
Cu	Cu	0.36240 0.51087 0.76767 0.93100
Cu	Cu	0.26909 0.50153 0.82511 0.92800
C 	C 	0.10759 0.47664 0.80868 0.35000
O 	O 	0.27768 0.65329 0.78653 -0.31700
C 	C 	0.47365 0.55144 0.71516 0.29100
O 	O 	0.25455 0.46936 0.78320 -0.63000
O 	O 	0.33214 0.57912 0.74221 -0.62000
O 	O 	0.16402 0.53040 0.72225 -0.29500
O 	O 	0.20988 0.45116 0.70277 -0.33300
O 	O 	0.16557 0.50255 0.82963 -0.33300
O 	O 	0.38285 0.43701 0.79116 -0.26000
C 	C 	0.36954 0.42071 0.82105 0.31000
C 	C 	0.34340 0.67620 0.80318 0.28600
O 	O 	0.36236 0.62267 0.81264 -0.30700
O 	O 	0.32921 0.44606 0.83822 -0.30500
O 	O 	0.12312 0.50501 0.78018 -0.31900
C 	C 	0.15563 0.47362 0.70321 0.30200
O 	O 	0.46429 0.54173 0.74550 -0.25800
O 	O 	0.43484 0.57988 0.69927 -0.32400
H 	H 	0.21816 0.41110 0.77959 0.25500
H 	H 	0.37297 0.63713 0.74269 0.24100
Cu	Cu	0.67514 0.27736 0.90665 0.95000
Cu	Cu	0.58852 0.18099 0.97084 0.93500
Cu	Cu	0.54480 0.09891 0.90834 0.91900
Cu	Cu	0.61852 0.17365 0.84595 0.92200
C 	C 	0.78164 0.31693 0.85486 0.27800
O 	O 	0.61825 0.32217 0.88056 -0.24300
C 	C 	0.43347 0.04837 0.96285 0.29300
O 	O 	0.64559 0.16533 0.88726 -0.63300
O 	O 	0.57412 0.20368 0.92872 -0.62400
O 	O 	0.74582 0.32750 0.94352 -0.26400
O 	O 	0.69794 0.20797 0.96836 -0.36000
O 	O 	0.71739 0.27959 0.83684 -0.30300
O 	O 	0.52131 0.00254 0.88566 -0.30300
C 	C 	0.51595 0.99557 0.85516 0.30800
C 	C 	0.54625 0.27416 0.86879 0.27400
O 	O 	0.52570 0.19965 0.86174 -0.32100
O 	O 	0.56368 0.05607 0.83676 -0.30900
O 	O 	0.77454 0.33060 0.88430 -0.27900
C 	C 	0.75399 0.28330 0.96484 0.29300
O 	O 	0.45708 0.02701 0.93743 -0.28300
O 	O 	0.47444 0.12231 0.97339 -0.33400
H 	H 	0.68562 0.14728 0.88961 0.19800
H 	H 	0.53041 0.21673 0.92670 0.24800
C 	C 	0.34880 0.80246 0.82039 0.06000
C 	C 	0.39019 0.76058 0.81429 0.02100
C 	C 	0.47491 0.79923 0.81965 -0.08200
C 	C 	0.51304 0.87312 0.83550 0.06800
C 	C 	0.47152 0.91450 0.84165 0.02300
C 	C 	0.38957 0.88061 0.83289 -0.06800
C 	C 	0.34744 0.92980 0.83478 0.78000
H 	H 	0.28470 0.77389 0.81545 0.11300
H 	H 	0.57603 0.89994 0.84217 0.10500
C 	C 	0.52539 0.76336 0.80829 0.78500
F 	F 	0.38446 0.99440 0.81468 -0.40100
F 	F 	0.35235 0.95832 0.86455 -0.38100
F 	F 	0.26646 0.88490 0.82687 -0.37700
F 	F 	0.49981 0.72882 0.77936 -0.43800
F 	F 	0.51957 0.70591 0.82908 -0.41000
F 	F 	0.60606 0.82199 0.80567 -0.38700
C 	C 	0.89492 0.31307 0.82877 0.00400
C 	C 	0.86233 0.35887 0.84047 0.06100
C 	C 	0.90865 0.44402 0.83964 -0.12700
C 	C 	0.98999 0.48125 0.83027 0.20400
C 	C 	0.02314 0.43536 0.81927 -0.12200
C 	C 	0.97497 0.35063 0.81776 0.04200
C 	C 	0.00926 0.30046 0.80472 0.69900
H 	H 	0.85821 0.24805 0.82888 0.11000
H 	H 	0.02767 0.54615 0.83137 0.05100
C 	C 	0.87271 0.49537 0.84963 0.80100
F 	F 	0.95286 0.21909 0.80493 -0.35200
F 	F 	0.07502 0.31240 0.82224 -0.41800
F 	F 	0.03378 0.32313 0.77443 -0.42400
F 	F 	0.87073 0.49775 0.88162 -0.38200
F 	F 	0.79506 0.46428 0.83814 -0.39000
F 	F 	0.91822 0.57338 0.83872 -0.37300
C 	C 	0.43412 0.26722 0.83681 0.06200
C 	C 	0.49150 0.30566 0.86050 0.03800
C 	C 	0.49810 0.37569 0.87467 -0.07600
C 	C 	0.45964 0.41374 0.86066 0.07200
C 	C 	0.40494 0.37675 0.83628 0.03100
C 	C 	0.38658 0.29935 0.82617 -0.05900
C 	C 	0.31766 0.25136 0.80375 0.77800
H 	H 	0.42707 0.21271 0.82642 0.12600
H 	H 	0.47203 0.47222 0.86884 0.11500
C 	C 	0.54405 0.40959 0.90475 0.78700
F 	F 	0.29310 0.17025 0.80505 -0.36600
F 	F 	0.34266 0.27829 0.77391 -0.35800
F 	F 	0.25144 0.25942 0.81089 -0.39100
F 	F 	0.62561 0.45801 0.89858 -0.37100
F 	F 	0.53253 0.34850 0.92474 -0.42700
F 	F 	0.51732 0.45564 0.91981 -0.38500
C 	C 	0.88747 0.31318 0.98491 0.05700
C 	C 	0.81886 0.32125 0.98792 0.02500
C 	C 	0.81145 0.36293 0.01361 -0.07800
C 	C 	0.87704 0.40286 0.03405 0.05700
C 	C 	0.94810 0.39976 0.02966 0.06000
C 	C 	0.95067 0.34871 0.00659 -0.04000
C 	C 	0.02116 0.33349 0.00440 0.72300
H 	H 	0.89164 0.27926 0.96562 0.10600
H 	H 	0.87470 0.43999 0.05247 0.11100
C 	C 	0.73490 0.36709 0.01864 0.78100
F 	F 	0.99756 0.26019 0.99036 -0.35200
F 	F 	0.05050 0.33174 0.03355 -0.37000
F 	F 	0.08234 0.39356 0.98699 -0.40300
F 	F 	0.66842 0.29031 0.01938 -0.46100
F 	F 	0.72575 0.40999 0.99479 -0.39200
F 	F 	0.73701 0.40449 0.04632 -0.39600
C 	C 	0.37879 0.99759 0.01547 0.05200
C 	C 	0.37124 0.98562 0.98321 0.02900
C 	C 	0.30976 0.91085 0.97141 -0.08800
C 	C 	0.27075 0.84510 0.99172 0.07200
C 	C 	0.28442 0.85563 0.02376 0.00200
C 	C 	0.33244 0.93405 0.03589 -0.06800
C 	C 	0.33839 0.95006 0.07050 0.77500
H 	H 	0.42311 0.05566 0.02472 0.10500
H 	H 	0.23086 0.78544 0.98255 0.07700
C 	C 	0.28531 0.90014 0.93758 0.78900
F 	F 	0.35954 0.02909 0.07640 -0.39900
F 	F 	0.39701 0.93635 0.08301 -0.40000
F 	F 	0.26515 0.90121 0.08500 -0.43200
F 	F 	0.33299 0.87783 0.92108 -0.40000
F 	F 	0.29332 0.97040 0.92534 -0.38000
F 	F 	0.20520 0.84064 0.93420 -0.39300
C 	C 	0.77738 0.36368 0.18045 0.06000
C 	C 	0.74421 0.40793 0.19332 0.02800
C 	C 	0.79206 0.49308 0.19521 -0.07700
C 	C 	0.87000 0.53194 0.18207 0.07700
C 	C 	0.90282 0.48749 0.16924 0.01100
C 	C 	0.85741 0.40244 0.16942 -0.06600
C 	C 	0.89277 0.35289 0.15670 0.77900
H 	H 	0.74027 0.29884 0.17876 0.11200
H 	H 	0.90512 0.59706 0.18150 0.11500
C 	C 	0.75980 0.54307 0.21013 0.78600
F 	F 	0.84655 0.27269 0.16498 -0.37300
F 	F 	0.97002 0.38101 0.16815 -0.37000
F 	F 	0.89577 0.35790 0.12473 -0.39000
F 	F 	0.72315 0.50990 0.23811 -0.41600
F 	F 	0.70445 0.54672 0.19057 -0.37300
F 	F 	0.82127 0.62088 0.21595 -0.36500
C 	C 	0.30816 0.40555 0.15527 0.06900
C 	C 	0.38568 0.44887 0.16829 0.02000
C 	C 	0.42737 0.53398 0.16788 -0.07000
C 	C 	0.38683 0.57384 0.15764 0.05900
C 	C 	0.30871 0.53073 0.14503 0.03000
C 	C 	0.27043 0.44571 0.14229 -0.08000
C 	C 	0.18862 0.39715 0.12663 0.78500
H 	H 	0.27667 0.34038 0.15574 0.11600
H 	H 	0.41569 0.63867 0.15981 0.13400
C 	C 	0.51359 0.58261 0.17972 0.78100
F 	F 	0.17315 0.32062 0.11912 -0.37700
F 	F 	0.18600 0.43382 0.09945 -0.42300
F 	F 	0.12839 0.38998 0.14637 -0.38500
F 	F 	0.55947 0.54978 0.16948 -0.38400
F 	F 	0.51322 0.58331 0.21173 -0.39400
F 	F 	0.55036 0.66130 0.16926 -0.36400
C 	C 	0.46281 0.00909 0.17976 0.06900
C 	C 	0.41745 0.04692 0.18518 0.02600
C 	C 	0.33288 0.00448 0.18028 -0.07500
C 	C 	0.29550 0.92491 0.16920 0.07100
C 	C 	0.34085 0.88713 0.16367 0.03600
C 	C 	0.42505 0.92860 0.16976 -0.06400
C 	C 	0.47512 0.88820 0.16459 0.78300
H 	H 	0.52765 0.04263 0.18338 0.11600
H 	H 	0.23114 0.89238 0.16449 0.10200
C 	C 	0.28272 0.04404 0.18688 0.78200
F 	F 	0.55232 0.93341 0.17666 -0.37700
F 	F 	0.48158 0.87845 0.13319 -0.37500
F 	F 	0.43900 0.81372 0.17889 -0.39800
F 	F 	0.30825 0.11088 0.16813 -0.42400
F 	F 	0.29187 0.06765 0.21759 -0.43400
F 	F 	0.20122 0.99240 0.18140 -0.39100
C 	C 	0.33985 0.04539 0.32423 0.06600
C 	C 	0.41803 0.11169 0.32708 0.01100
C 	C 	0.46633 0.11762 0.35293 -0.07600
C 	C 	0.44010 0.05109 0.37275 0.05500
C 	C 	0.36499 0.98146 0.36808 0.02000
C 	C 	0.31106 0.98189 0.34566 -0.07700
C 	C 	0.22383 0.91438 0.34387 0.78400
H 	H 	0.30186 0.04275 0.30507 0.11100
H 	H 	0.48004 0.05147 0.39067 0.11800
C 	C 	0.54760 0.19278 0.35847 0.78300
F 	F 	0.17521 0.94213 0.33172 -0.38200
F 	F 	0.19435 0.88324 0.37298 -0.38700
F 	F 	0.21861 0.85389 0.32494 -0.39500
F 	F 	0.54067 0.26082 0.35553 -0.45300
F 	F 	0.60315 0.19607 0.33714 -0.39800
F 	F 	0.57655 0.19332 0.38794 -0.38200
C 	C 	0.45281 0.55854 0.29686 0.06400
C 	C 	0.52478 0.55909 0.30382 0.03400
C 	C 	0.57627 0.61077 0.32734 -0.06800
C 	C 	0.54696 0.64785 0.34744 0.06400
C 	C 	0.47136 0.64098 0.34224 0.02100
C 	C 	0.42622 0.60066 0.31555 -0.07900
C 	C 	0.34771 0.59884 0.30797 0.78200
H 	H 	0.41518 0.52125 0.27803 0.10500
H 	H 	0.58247 0.68117 0.36738 0.12600
C 	C 	0.66124 0.62503 0.33172 0.78400
F 	F 	0.31931 0.56700 0.27884 -0.40200
F 	F 	0.35948 0.67602 0.30849 -0.44300
F 	F 	0.28948 0.55222 0.32958 -0.41700
F 	F 	0.69488 0.62254 0.30363 -0.35600
F 	F 	0.65915 0.56689 0.35121 -0.38100
F 	F 	0.71084 0.69989 0.34475 -0.35900
C 	C 	0.64826 0.17473 0.49411 0.06500
C 	C 	0.61725 0.18738 0.52173 0.03000
C 	C 	0.55395 0.12025 0.53751 -0.07300
C 	C 	0.51758 0.04409 0.52328 0.06800
C 	C 	0.54892 0.03191 0.49579 0.02500
C 	C 	0.61826 0.09688 0.48210 -0.06900
C 	C 	0.65916 0.08435 0.45418 0.78300
H 	H 	0.69589 0.22584 0.48190 0.10800
H 	H 	0.46460 0.99392 0.53362 0.10500
C 	C 	0.52400 0.12881 0.56911 0.78500
F 	F 	0.73722 0.14806 0.45056 -0.37800
F 	F 	0.61577 0.07833 0.42770 -0.39700
F 	F 	0.66395 0.01519 0.45758 -0.39300
F 	F 	0.47454 0.16175 0.56579 -0.38400
F 	F 	0.58825 0.17696 0.58826 -0.42800
F 	F 	0.47995 0.05488 0.58359 -0.38500
C 	C 	0.07408 0.53567 0.51948 0.08400
C 	C 	0.02302 0.56432 0.50975 -0.03700
C 	C 	0.05314 0.63162 0.48961 -0.05000
C 	C 	0.13130 0.66317 0.47712 0.04600
C 	C 	0.18197 0.63403 0.48674 0.02500
C 	C 	0.15472 0.57247 0.50935 -0.08500
C 	C 	0.21088 0.54497 0.52232 0.78700
H 	H 	0.05073 0.48458 0.53506 0.08900
H 	H 	0.15293 0.71052 0.45988 0.10000
C 	C 	0.00200 0.66883 0.48077 0.71800
F 	F 	0.17844 0.49742 0.54840 -0.38600
F 	F 	0.28413 0.61072 0.53073 -0.41500
F 	F 	0.22400 0.50072 0.50020 -0.40400
F 	F 	0.96336 0.67662 0.50653 -0.37400
F 	F 	0.94492 0.62081 0.45905 -0.35900
F 	F 	0.04898 0.74479 0.46817 -0.38100
C 	C 	0.62417 0.58440 0.49235 0.06700
C 	C 	0.57690 0.50597 0.50378 0.03000
C 	C 	0.49143 0.46704 0.50182 -0.06800
C 	C 	0.45511 0.51110 0.49167 0.06700
C 	C 	0.50243 0.59024 0.48100 0.03000
C 	C 	0.58762 0.62666 0.48037 -0.07600
C 	C 	0.63938 0.71098 0.46747 0.78300
H 	H 	0.68949 0.61290 0.49339 0.11300
H 	H 	0.38986 0.48400 0.49212 0.13100
C 	C 	0.43868 0.37976 0.51153 0.78300
F 	F 	0.72068 0.73425 0.46717 -0.36700
F 	F 	0.62964 0.76515 0.48545 -0.41100
F 	F 	0.61611 0.71406 0.43738 -0.41700
F 	F 	0.43419 0.37489 0.54349 -0.38100
F 	F 	0.47021 0.33345 0.50055 -0.39400
F 	F 	0.36104 0.34755 0.49985 -0.38000
C 	C 	0.01910 0.37211 0.68528 0.01700
C 	C 	0.09196 0.44330 0.67958 0.02700
C 	C 	0.10236 0.48625 0.65171 -0.07600
C 	C 	0.03544 0.46310 0.63219 0.02000
C 	C 	0.96021 0.39618 0.63948 0.05200
C 	C 	0.95434 0.34542 0.66437 -0.03500
C 	C 	0.87949 0.26373 0.66910 0.77800
H 	H 	0.01258 0.33792 0.70615 0.12600
H 	H 	0.04044 0.49975 0.61229 0.09900
C 	C 	0.18359 0.55867 0.64348 0.78000
F 	F 	0.89923 0.21174 0.68378 -0.36100
F 	F 	0.84386 0.22939 0.64104 -0.38200
F 	F 	0.82455 0.27197 0.68731 -0.39400
F 	F 	0.24363 0.53859 0.64520 -0.44500
F 	F 	0.20115 0.62077 0.66391 -0.42100
F 	F 	0.18387 0.58567 0.61371 -0.38800
C 	C 	0.58972 0.59783 0.67943 0.06100
C 	C 	0.53359 0.53742 0.69909 0.03300
C 	C 	0.52318 0.45905 0.69762 -0.08900
C 	C 	0.56258 0.44085 0.67418 0.06700
C 	C 	0.61272 0.49945 0.65275 0.01000
C 	C 	0.62781 0.57921 0.65556 -0.06800
C 	C 	0.68366 0.64411 0.63299 0.78100
H 	H 	0.59985 0.65839 0.68165 0.12600
H 	H 	0.55380 0.38072 0.67232 0.10000
C 	C 	0.46995 0.39482 0.72088 0.78900
F 	F 	0.68264 0.71507 0.63720 -0.37900
F 	F 	0.65995 0.61876 0.60284 -0.40600
F 	F 	0.76207 0.66002 0.63723 -0.39200
F 	F 	0.39137 0.37999 0.71884 -0.42200
F 	F 	0.49917 0.42059 0.75048 -0.39700
F 	F 	0.46862 0.32299 0.71578 -0.38300
