data_crystal

_cell_length_a 26.22328
_cell_length_b 26.51905
_cell_length_c 34.89918
_cell_angle_alpha 95.49220
_cell_angle_beta  95.48903
_cell_angle_gamma 125.82732

_symmetry_space_group_name_	'P 1'
_symmetry_space_group_name_H-M	'P 1'

loop_
_symmetry_equiv_pos_as_xyz
  x,y,z

loop_
_atom_site_label
_atom_site_type_symbol
_atom_site_fract_x
_atom_site_fract_y
_atom_site_fract_z
_atom_site_charge
C 	C 	0.95454 0.01970 0.98774 0.05400
C 	C 	0.02024 0.05408 0.98732 -0.09800
C 	C 	0.04742 0.02218 0.98136 0.05400
C 	C 	0.00908 0.95605 0.97649 -0.10100
C 	C 	0.94351 0.92163 0.97697 0.05100
C 	C 	0.91616 0.95342 0.98228 -0.10100
H 	H 	0.05003 0.10534 0.99165 0.05400
H 	H 	0.03032 0.93146 0.97262 0.05400
H 	H 	0.86537 0.92678 0.98261 0.05300
C 	C 	0.94775 0.01033 0.46485 0.05400
C 	C 	0.01262 0.04363 0.46237 -0.09600
C 	C 	0.04167 0.01304 0.46294 0.05400
C 	C 	0.00594 0.94917 0.46627 -0.09900
C 	C 	0.94168 0.91628 0.47031 0.05100
C 	C 	0.91217 0.94649 0.46862 -0.09900
H 	H 	0.04042 0.09321 0.46006 0.05400
H 	H 	0.02841 0.92546 0.46653 0.05300
H 	H 	0.86210 0.92076 0.47080 0.05300
Cu	Cu	0.62890 0.23495 0.00339 0.93000
Cu	Cu	0.67226 0.22310 0.91990 0.87200
Cu	Cu	0.66966 0.33068 0.94891 0.90100
Cu	Cu	0.63968 0.35857 0.02527 0.89500
C 	C 	0.65166 0.28926 0.08426 0.33900
O 	O 	0.53732 0.20354 0.00347 -0.35900
C 	C 	0.64380 0.27881 0.86412 0.33500
O 	O 	0.68588 0.33293 0.00390 -0.64000
O 	O 	0.61956 0.23730 0.94684 -0.64100
O 	O 	0.66273 0.18451 0.00276 -0.36300
O 	O 	0.73319 0.24161 0.96374 -0.44300
O 	O 	0.62727 0.31827 0.07258 -0.39200
O 	O 	0.72227 0.42186 0.95490 -0.37500
C 	C 	0.71730 0.45986 0.97888 0.30200
C 	C 	0.51542 0.23250 0.98852 0.29300
O 	O 	0.55561 0.28931 0.98105 -0.39100
O 	O 	0.67895 0.43910 0.00479 -0.39400
O 	O 	0.65208 0.24890 0.05915 -0.33900
C 	C 	0.71579 0.20465 0.98977 0.30100
O 	O 	0.66841 0.32886 0.89203 -0.35800
O 	O 	0.63264 0.22605 0.87232 -0.42000
H 	H 	0.73180 0.35859 0.01606 0.16900
H 	H 	0.57487 0.21303 0.93255 0.17800
Cu	Cu	0.74805 0.34917 0.45552 0.93000
Cu	Cu	0.74369 0.30272 0.53987 0.87600
Cu	Cu	0.64017 0.30700 0.50138 0.89800
Cu	Cu	0.62575 0.33907 0.42296 0.89700
C 	C 	0.70532 0.32783 0.37268 0.34100
O 	O 	0.78041 0.43978 0.45534 -0.35100
C 	C 	0.67671 0.32808 0.58807 0.33700
O 	O 	0.64767 0.29278 0.44812 -0.64100
O 	O 	0.73543 0.35613 0.51023 -0.64200
O 	O 	0.79889 0.31566 0.46154 -0.36900
O 	O 	0.73332 0.24491 0.49777 -0.43800
O 	O 	0.67642 0.35388 0.38056 -0.37200
O 	O 	0.54782 0.25465 0.48919 -0.38300
C 	C 	0.51311 0.26030 0.46245 0.30000
C 	C 	0.74965 0.46130 0.46812 0.28900
O 	O 	0.68853 0.42139 0.46936 -0.39400
O 	O 	0.53813 0.29622 0.43581 -0.39300
O 	O 	0.74410 0.32905 0.40051 -0.35000
C 	C 	0.77710 0.26393 0.47588 0.29600
O 	O 	0.63143 0.30714 0.55705 -0.39000
O 	O 	0.73208 0.33969 0.58451 -0.39100
H 	H 	0.62304 0.24759 0.43578 0.16700
H 	H 	0.75836 0.39989 0.52486 0.17800
C 	C 	0.62602 0.33758 0.77261 -0.15000
C 	C 	0.63705 0.30475 0.74487 0.01100
C 	C 	0.64653 0.26084 0.75578 0.29000
C 	C 	0.64668 0.25106 0.79439 -0.06400
C 	C 	0.63749 0.28514 0.82261 -0.14800
C 	C 	0.62583 0.32764 0.81130 0.36500
C 	C 	0.64199 0.31854 0.70491 0.00700
F 	F 	0.65723 0.22881 0.72912 -0.43100
H 	H 	0.65573 0.21822 0.80261 0.08000
F 	F 	0.61401 0.35899 0.83767 -0.44900
H 	H 	0.61810 0.37113 0.76426 0.10900
C 	C 	0.59204 0.27511 0.67335 0.29400
C 	C 	0.60188 0.28105 0.63485 -0.06400
C 	C 	0.66180 0.33024 0.62761 -0.14900
C 	C 	0.70988 0.37670 0.65919 0.36500
C 	C 	0.69995 0.37071 0.69768 -0.14900
F 	F 	0.53511 0.22539 0.68004 -0.42800
H 	H 	0.56407 0.24550 0.61074 0.08800
F 	F 	0.76681 0.42659 0.65262 -0.45400
H 	H 	0.73829 0.40509 0.72191 0.10700
C 	C 	0.72495 0.29080 0.18364 -0.15100
C 	C 	0.68500 0.29170 0.20727 0.01000
C 	C 	0.63382 0.29110 0.19037 0.29300
C 	C 	0.62277 0.28973 0.15021 -0.06200
C 	C 	0.66297 0.28937 0.12649 -0.14600
C 	C 	0.71402 0.28957 0.14337 0.36400
C 	C 	0.69855 0.29658 0.25000 0.00800
F 	F 	0.59538 0.29281 0.21303 -0.42600
H 	H 	0.58286 0.28886 0.13749 0.08800
F 	F 	0.75383 0.29007 0.12097 -0.45500
H 	H 	0.76478 0.29166 0.19653 0.10800
C 	C 	0.65587 0.24590 0.26776 0.29700
C 	C 	0.66096 0.25497 0.30849 -0.06300
C 	C 	0.70894 0.31445 0.33171 -0.14600
C 	C 	0.75456 0.36368 0.31422 0.37100
C 	C 	0.74936 0.35470 0.27349 -0.15200
F 	F 	0.60767 0.18883 0.24540 -0.42400
H 	H 	0.62597 0.21658 0.32183 0.07500
F 	F 	0.80185 0.42118 0.33652 -0.44800
H 	H 	0.78294 0.39382 0.26005 0.10700
C 	C 	0.78618 0.62077 0.50468 -0.09300
C 	C 	0.82997 0.65816 0.48137 0.00700
C 	C 	0.85427 0.63335 0.45797 0.03100
C 	C 	0.82811 0.56902 0.45429 -0.01800
C 	C 	0.78167 0.53042 0.47605 -0.10300
C 	C 	0.76414 0.55788 0.50364 0.09800
C 	C 	0.85044 0.72344 0.48174 -0.01100
C 	C 	0.90734 0.67495 0.43648 -0.17600
H 	H 	0.84325 0.54880 0.43402 0.06200
C 	C 	0.72284 0.52109 0.53224 -0.20300
H 	H 	0.76958 0.64077 0.52385 0.05300
C 	C 	0.82521 0.73765 0.45056 0.04500
C 	C 	0.85464 0.80115 0.44750 -0.06100
C 	C 	0.90553 0.85023 0.47673 -0.03400
C 	C 	0.92427 0.83556 0.51074 0.05600
C 	C 	0.89819 0.77226 0.51229 -0.07400
C 	C 	0.76819 0.68547 0.42006 -0.18300
H 	H 	0.83872 0.81237 0.42207 0.04300
C 	C 	0.97338 0.88711 0.54480 -0.18700
H 	H 	0.91583 0.76106 0.53694 0.04900
H 	H 	0.67160 0.49098 0.51789 0.07700
H 	H 	0.72968 0.55347 0.55829 0.07500
H 	H 	0.73556 0.49104 0.54307 0.07800
H 	H 	0.94679 0.71970 0.45653 0.06800
H 	H 	0.88873 0.68619 0.41142 0.06800
H 	H 	0.92797 0.65137 0.42496 0.07300
H 	H 	0.74675 0.70382 0.40263 0.06500
H 	H 	0.73046 0.64870 0.43429 0.06900
H 	H 	0.78290 0.66341 0.39976 0.06900
H 	H 	0.96918 0.86803 0.57226 0.06500
H 	H 	0.96652 0.92460 0.54988 0.06600
H 	H 	0.02226 0.90834 0.53884 0.06600
C 	C 	0.87723 0.09496 0.49572 -0.07200
C 	C 	0.86733 0.11193 0.46047 -0.01300
C 	C 	0.88198 0.09382 0.42631 0.04500
C 	C 	0.90612 0.05862 0.42795 -0.06100
C 	C 	0.91715 0.04260 0.46338 -0.03300
C 	C 	0.90316 0.06140 0.49766 0.05500
C 	C 	0.84386 0.15088 0.46005 0.01000
C 	C 	0.87397 0.11371 0.38847 -0.18400
H 	H 	0.91761 0.04472 0.40183 0.04300
C 	C 	0.91584 0.04591 0.53630 -0.18100
H 	H 	0.86570 0.10886 0.52182 0.04700
C 	C 	0.77762 0.12222 0.45307 0.02300
C 	C 	0.75673 0.16030 0.45627 -0.01200
C 	C 	0.80097 0.22642 0.46708 -0.11200
C 	C 	0.86744 0.25514 0.47339 0.10000
C 	C 	0.88818 0.21700 0.46912 -0.09500
C 	C 	0.72915 0.05108 0.44406 -0.17200
H 	H 	0.70586 0.13837 0.45136 0.03900
C 	C 	0.91637 0.32602 0.48539 -0.20400
H 	H 	0.93900 0.23870 0.47397 0.05300
H 	H 	0.88197 0.99415 0.53531 0.06200
H 	H 	0.90968 0.07045 0.56099 0.06400
H 	H 	0.96574 0.06113 0.54259 0.06700
H 	H 	0.90702 0.16611 0.39216 0.07100
H 	H 	0.82394 0.09737 0.37999 0.07000
H 	H 	0.88472 0.09335 0.36404 0.06600
H 	H 	0.67950 0.03620 0.43633 0.06400
H 	H 	0.73210 0.03121 0.47006 0.06600
H 	H 	0.73845 0.03063 0.41886 0.06600
H 	H 	0.90608 0.34393 0.51135 0.06500
H 	H 	0.91566 0.34921 0.46071 0.08900
H 	H 	0.96560 0.33995 0.49344 0.07000
C 	C 	0.19873 0.09471 0.42639 -0.07200
C 	C 	0.24238 0.11782 0.46165 -0.01300
C 	C 	0.22011 0.10665 0.49742 0.04600
C 	C 	0.15425 0.07226 0.49730 -0.06100
C 	C 	0.11056 0.04885 0.46204 -0.03300
C 	C 	0.13277 0.05964 0.42623 0.05600
C 	C 	0.31155 0.15395 0.46088 0.01100
C 	C 	0.26643 0.13188 0.53572 -0.18500
H 	H 	0.13688 0.06374 0.52469 0.04400
C 	C 	0.08643 0.03437 0.38795 -0.18200
H 	H 	0.21615 0.10366 0.39904 0.04800
C 	C 	0.33968 0.12253 0.45513 0.02500
C 	C 	0.40576 0.15811 0.45567 -0.01000
C 	C 	0.44390 0.22441 0.46181 -0.10700
C 	C 	0.41579 0.25585 0.46787 0.10300
C 	C 	0.34952 0.22019 0.46663 -0.09500
C 	C 	0.29937 0.05121 0.44823 -0.17300
H 	H 	0.42756 0.13420 0.45115 0.03700
C 	C 	0.45607 0.32721 0.47558 -0.20500
H 	H 	0.32756 0.24400 0.47080 0.05300
H 	H 	0.11090 0.04280 0.36243 0.06500
H 	H 	0.06288 0.05809 0.38719 0.06700
H 	H 	0.04937 0.98250 0.38468 0.06400
H 	H 	0.29868 0.18444 0.54107 0.07200
H 	H 	0.29556 0.11405 0.53482 0.07300
H 	H 	0.24122 0.11688 0.56085 0.06900
H 	H 	0.32878 0.03399 0.44509 0.06500
H 	H 	0.26299 0.03078 0.42094 0.06700
H 	H 	0.27478 0.03356 0.47329 0.06700
H 	H 	0.42874 0.34432 0.48539 0.07000
H 	H 	0.47222 0.34489 0.44834 0.07800
H 	H 	0.49848 0.34775 0.49901 0.07400
C 	C 	0.85414 0.74690 0.93695 -0.07400
C 	C 	0.84034 0.72198 0.97135 -0.01200
C 	C 	0.85729 0.76225 0.00733 0.04400
C 	C 	0.88944 0.82731 0.00846 -0.05900
C 	C 	0.90424 0.85241 0.97418 -0.03500
C 	C 	0.88490 0.81175 0.93793 0.05700
C 	C 	0.80849 0.65359 0.96956 0.01000
C 	C 	0.84266 0.73627 0.04465 -0.18200
H 	H 	0.90405 0.85871 0.03616 0.04200
C 	C 	0.89857 0.83755 0.90052 -0.18800
H 	H 	0.84075 0.71570 0.90939 0.05000
C 	C 	0.74107 0.60986 0.96153 0.02600
C 	C 	0.71201 0.54619 0.96372 -0.00900
C 	C 	0.74934 0.52568 0.97355 -0.10400
C 	C 	0.81685 0.56907 0.98031 0.10100
C 	C 	0.84588 0.63268 0.97779 -0.09400
C 	C 	0.70007 0.63113 0.95136 -0.17200
H 	H 	0.66021 0.51259 0.95821 0.04400
C 	C 	0.85801 0.54804 0.99072 -0.20500
H 	H 	0.89766 0.66637 0.98331 0.05300
H 	H 	0.88417 0.86925 0.89829 0.06700
H 	H 	0.87159 0.79898 0.87428 0.06600
H 	H 	0.95050 0.86452 0.90004 0.06600
H 	H 	0.87043 0.71796 0.05193 0.06700
H 	H 	0.79074 0.69730 0.04109 0.06600
H 	H 	0.85533 0.77313 0.06977 0.06300
H 	H 	0.64823 0.59093 0.94511 0.06600
H 	H 	0.71184 0.65298 0.92488 0.06800
H 	H 	0.70865 0.66630 0.97617 0.06300
H 	H 	0.85133 0.51468 0.96542 0.08000
H 	H 	0.84483 0.52430 0.01643 0.06900
H 	H 	0.90966 0.58869 0.99835 0.06900
C 	C 	0.85305 0.19573 0.01594 -0.09800
C 	C 	0.82174 0.13051 0.00486 0.01300
C 	C 	0.75421 0.08884 0.99499 0.02100
C 	C 	0.71950 0.11371 0.99241 -0.01200
C 	C 	0.75131 0.17935 0.00040 -0.11200
C 	C 	0.81813 0.22044 0.01456 0.11300
C 	C 	0.86017 0.10663 0.00112 -0.01100
C 	C 	0.71934 0.01817 0.98550 -0.16700
H 	H 	0.66797 0.08213 0.98260 0.03500
C 	C 	0.85268 0.29070 0.02696 -0.21300
H 	H 	0.90477 0.22741 0.02460 0.05600
C 	C 	0.87841 0.10063 0.96514 0.04200
C 	C 	0.91055 0.07331 0.96149 -0.05900
C 	C 	0.92561 0.05304 0.99339 -0.03500
C 	C 	0.91055 0.06230 0.02999 0.05800
C 	C 	0.87729 0.08850 0.03344 -0.07300
C 	C 	0.86278 0.12234 0.93049 -0.18000
H 	H 	0.92307 0.06694 0.93363 0.04200
C 	C 	0.92810 0.04261 0.06501 -0.18300
H 	H 	0.86385 0.09393 0.06111 0.05100
H 	H 	0.86075 0.31305 0.00067 0.07600
H 	H 	0.89984 0.31328 0.04616 0.07900
H 	H 	0.82431 0.30014 0.04380 0.09900
H 	H 	0.73483 0.00252 0.00942 0.06800
H 	H 	0.72973 0.00527 0.95764 0.06100
H 	H 	0.66668 0.99202 0.98221 0.05900
H 	H 	0.88282 0.11697 0.90510 0.06200
H 	H 	0.88329 0.17313 0.93850 0.06500
H 	H 	0.81006 0.09393 0.92113 0.06300
H 	H 	0.92121 0.06098 0.09246 0.06600
H 	H 	0.97924 0.06148 0.06885 0.06900
H 	H 	0.89762 0.99015 0.06080 0.06300
C 	C 	0.36098 0.21030 0.99863 -0.09700
C 	C 	0.31544 0.14700 0.98010 0.01200
C 	C 	0.33545 0.11246 0.96283 0.02400
C 	C 	0.40110 0.14173 0.96498 -0.01000
C 	C 	0.44684 0.20447 0.98470 -0.10800
C 	C 	0.42662 0.23877 0.00233 0.10600
C 	C 	0.24697 0.11617 0.98092 -0.01300
C 	C 	0.28705 0.04434 0.94251 -0.17200
H 	H 	0.41669 0.11549 0.95163 0.03600
C 	C 	0.47450 0.30509 0.02571 -0.20600
H 	H 	0.34523 0.23669 0.01152 0.05500
C 	C 	0.22134 0.09248 0.01426 0.04700
C 	C 	0.15654 0.06446 0.01456 -0.06000
C 	C 	0.11668 0.05804 0.98166 -0.03400
C 	C 	0.14219 0.08137 0.94821 0.05700
C 	C 	0.20755 0.11134 0.94840 -0.07300
C 	C 	0.26296 0.09723 0.04955 -0.18500
H 	H 	0.13667 0.04640 0.04014 0.04500
C 	C 	0.09991 0.07407 0.91227 -0.18700
H 	H 	0.22763 0.13009 0.92303 0.04900
H 	H 	0.51048 0.30736 0.04692 0.06500
H 	H 	0.45094 0.32071 0.04287 0.07100
H 	H 	0.49894 0.33869 0.00564 0.07200
H 	H 	0.25562 0.04119 0.91720 0.06700
H 	H 	0.25729 0.01554 0.96327 0.06600
H 	H 	0.31047 0.02354 0.93137 0.06500
H 	H 	0.23457 0.07177 0.07178 0.06900
H 	H 	0.29972 0.14769 0.06352 0.07300
H 	H 	0.28706 0.07600 0.04065 0.07300
H 	H 	0.08151 0.10171 0.91929 0.06700
H 	H 	0.05892 0.02339 0.90194 0.06700
H 	H 	0.12631 0.09131 0.88781 0.06600
