data_crystal

_cell_length_a 18.51496
_cell_length_b 18.95751
_cell_length_c 34.79470
_cell_angle_alpha 95.40984
_cell_angle_beta  95.41073
_cell_angle_gamma 126.37725

_symmetry_space_group_name_	'P 1'
_symmetry_space_group_name_H-M	'P 1'

loop_
_symmetry_equiv_pos_as_xyz
  x,y,z

loop_
_atom_site_label
_atom_site_type_symbol
_atom_site_fract_x
_atom_site_fract_y
_atom_site_fract_z
_atom_site_charge
C 	C 	0.86883 0.94723 0.95716 0.09900
C 	C 	0.96430 0.00428 0.96185 -0.04300
C 	C 	0.01350 0.97016 0.96517 0.08000
C 	C 	0.96797 0.87909 0.96405 -0.06000
C 	C 	0.87254 0.82048 0.95801 0.10900
C 	C 	0.82241 0.85460 0.95485 -0.05700
H 	H 	0.00030 0.07533 0.96329 0.08700
H 	H 	0.00689 0.85345 0.96706 0.08400
H 	H 	0.74854 0.80989 0.95077 0.12000
C 	C 	0.96716 0.06925 0.50156 0.16500
C 	C 	0.06113 0.11619 0.50221 -0.12500
C 	C 	0.10002 0.07133 0.50343 0.15900
C 	C 	0.04474 0.97969 0.50365 -0.12100
C 	C 	0.95134 0.93310 0.50337 0.16000
C 	C 	0.91248 0.97773 0.50228 -0.10800
H 	H 	0.10359 0.18701 0.50169 0.11000
H 	H 	0.07444 0.94466 0.50404 0.11800
H 	H 	0.83977 0.94120 0.50152 0.12000
Cu	Cu	0.72151 0.29393 0.95367 0.93300
Cu	Cu	0.73074 0.24503 0.04106 0.89500
Cu	Cu	0.58350 0.25230 0.00753 0.91700
Cu	Cu	0.54127 0.27355 0.92384 0.93600
C 	C 	0.65888 0.27224 0.87155 0.30100
O 	O 	0.77481 0.42298 0.94967 -0.30500
C 	C 	0.65968 0.30335 0.09313 0.30800
O 	O 	0.57960 0.21926 0.95307 -0.63300
O 	O 	0.71741 0.31677 0.00985 -0.62900
O 	O 	0.78070 0.23265 0.95768 -0.30900
O 	O 	0.69208 0.14997 0.00006 -0.40300
O 	O 	0.57715 0.24864 0.87508 -0.28000
O 	O 	0.45216 0.18199 0.00158 -0.33400
C 	C 	0.39975 0.17984 0.97226 0.33800
C 	C 	0.72854 0.45420 0.95552 0.35100
O 	O 	0.64512 0.40108 0.96183 -0.35300
O 	O 	0.43507 0.23836 0.94879 -0.32000
O 	O 	0.70446 0.25951 0.89796 -0.31200
C 	C 	0.74441 0.16198 0.97452 0.32200
O 	O 	0.58705 0.26550 0.06500 -0.31400
O 	O 	0.73304 0.31206 0.08611 -0.35900
H 	H 	0.54326 0.15405 0.94399 0.19700
H 	H 	0.75428 0.38061 0.02212 0.21300
Cu	Cu	0.63820 0.23504 0.50560 0.93900
Cu	Cu	0.69435 0.24748 0.41857 0.91200
Cu	Cu	0.68697 0.38484 0.46144 0.91300
Cu	Cu	0.65454 0.40171 0.54318 0.92300
C 	C 	0.67585 0.28800 0.58963 0.31400
O 	O 	0.50904 0.18733 0.51072 -0.33900
C 	C 	0.64180 0.33408 0.37418 0.31100
O 	O 	0.71788 0.37469 0.51372 -0.63400
O 	O 	0.61907 0.25290 0.45164 -0.63400
O 	O 	0.68868 0.16894 0.49474 -0.33900
O 	O 	0.78478 0.26617 0.45814 -0.37000
O 	O 	0.63944 0.32969 0.58452 -0.33100
O 	O 	0.76002 0.51299 0.47404 -0.35300
C 	C 	0.75572 0.55968 0.50317 0.35000
C 	C 	0.47635 0.23016 0.50118 0.34200
O 	O 	0.53253 0.31444 0.49852 -0.35400
O 	O 	0.71098 0.52358 0.53174 -0.32100
O 	O 	0.67609 0.24002 0.55960 -0.31100
C 	C 	0.76336 0.20575 0.47984 0.34500
O 	O 	0.67600 0.39701 0.40575 -0.33500
O 	O 	0.63261 0.26007 0.37598 -0.31700
H 	H 	0.78421 0.41018 0.52402 0.22400
H 	H 	0.55453 0.21924 0.43856 0.22900
C 	C 	0.67216 0.32400 0.76857 0.04500
C 	C 	0.70515 0.27959 0.75306 0.09000
C 	C 	0.73745 0.24554 0.77818 -0.08700
C 	C 	0.72483 0.24659 0.81748 0.07600
C 	C 	0.68512 0.28517 0.83232 0.02600
C 	C 	0.66555 0.33080 0.80842 -0.06100
C 	C 	0.70358 0.26779 0.71016 0.10400
C 	C 	0.78748 0.21059 0.76351 0.78800
H 	H 	0.74353 0.21530 0.83627 0.12300
C 	C 	0.63282 0.38274 0.82425 0.78000
H 	H 	0.64986 0.35191 0.74926 0.11800
C 	C 	0.62154 0.19990 0.68352 -0.10500
C 	C 	0.61575 0.20441 0.64335 0.08300
C 	C 	0.69070 0.27321 0.62941 0.00300
C 	C 	0.77546 0.33465 0.65523 -0.06100
C 	C 	0.78026 0.33323 0.69571 0.03500
C 	C 	0.53686 0.12874 0.69820 0.79100
H 	H 	0.55127 0.15729 0.62316 0.09300
C 	C 	0.85908 0.40553 0.64006 0.77600
H 	H 	0.84232 0.38544 0.71628 0.13300
F 	F 	0.53906 0.32553 0.82122 -0.40700
F 	F 	0.65434 0.44889 0.80297 -0.40300
F 	F 	0.67346 0.42378 0.86303 -0.43600
F 	F 	0.86700 0.27895 0.75294 -0.40100
F 	F 	0.73326 0.14255 0.73122 -0.37800
F 	F 	0.81067 0.17757 0.79204 -0.38900
F 	F 	0.84991 0.46952 0.63078 -0.42300
F 	F 	0.86836 0.36752 0.60680 -0.42100
F 	F 	0.93810 0.44677 0.66779 -0.38700
F 	F 	0.47346 0.05781 0.66803 -0.39500
F 	F 	0.49701 0.16506 0.71355 -0.40700
F 	F 	0.55869 0.09532 0.72693 -0.38400
C 	C 	0.61350 0.38104 0.18600 0.03700
C 	C 	0.63489 0.34325 0.21332 0.09800
C 	C 	0.66211 0.29024 0.20088 -0.10300
C 	C 	0.66927 0.27814 0.16132 0.08200
C 	C 	0.65182 0.31917 0.13438 0.00300
C 	C 	0.62632 0.37355 0.14699 -0.05400
C 	C 	0.62705 0.35814 0.25487 0.09200
C 	C 	0.67808 0.24211 0.22908 0.78900
H 	H 	0.68725 0.23558 0.15115 0.08600
C 	C 	0.61036 0.42168 0.11890 0.77700
H 	H 	0.58843 0.41770 0.19543 0.12900
C 	C 	0.70300 0.43043 0.28279 -0.09600
C 	C 	0.70395 0.42606 0.32297 0.08400
C 	C 	0.62853 0.35353 0.33522 0.01100
C 	C 	0.54609 0.29213 0.30781 -0.05500
C 	C 	0.54686 0.29353 0.26752 0.04300
C 	C 	0.78455 0.50947 0.26974 0.78900
H 	H 	0.76539 0.47559 0.34444 0.09600
C 	C 	0.45895 0.22164 0.32101 0.77700
H 	H 	0.48702 0.24111 0.24593 0.12100
F 	F 	0.67931 0.46230 0.09724 -0.42300
F 	F 	0.60893 0.48739 0.13894 -0.38800
F 	F 	0.52739 0.36125 0.09367 -0.42000
F 	F 	0.59670 0.17785 0.23988 -0.41000
F 	F 	0.74096 0.30172 0.26235 -0.39900
F 	F 	0.71145 0.20033 0.21215 -0.40200
F 	F 	0.38300 0.19412 0.29407 -0.39300
F 	F 	0.45333 0.25482 0.35686 -0.40700
F 	F 	0.45732 0.14867 0.32445 -0.39500
F 	F 	0.84616 0.57719 0.30131 -0.39700
F 	F 	0.75572 0.54375 0.24446 -0.40100
F 	F 	0.82923 0.48295 0.25066 -0.38600
C 	C 	0.79621 0.68429 0.46878 -0.06100
C 	C 	0.80175 0.65496 0.50372 -0.11900
C 	C 	0.85235 0.71722 0.53900 0.37300
C 	C 	0.89830 0.80801 0.53904 -0.10800
C 	C 	0.89431 0.83731 0.50396 -0.05800
C 	C 	0.84223 0.77512 0.46889 0.32400
F 	F 	0.83810 0.80300 0.43477 -0.40000
H 	H 	0.75655 0.63667 0.44152 0.12300
H 	H 	0.93883 0.85588 0.56616 0.14300
F 	F 	0.85958 0.69001 0.57291 -0.39400
C 	C 	0.91477 0.13867 0.46199 -0.10800
C 	C 	0.92478 0.11444 0.49781 -0.05800
C 	C 	0.88572 0.12473 0.52847 0.33000
C 	C 	0.83423 0.15596 0.52276 -0.05600
C 	C 	0.82153 0.17733 0.48644 -0.11900
C 	C 	0.86319 0.16969 0.45619 0.36900
F 	F 	0.85059 0.18881 0.42068 -0.41700
H 	H 	0.94443 0.13055 0.43816 0.13100
H 	H 	0.80379 0.16309 0.54649 0.13900
F 	F 	0.89629 0.10287 0.56351 -0.38800
C 	C 	0.34318 0.15630 0.53462 -0.06300
C 	C 	0.38018 0.18987 0.50158 -0.12400
C 	C 	0.32674 0.19022 0.47027 0.36800
C 	C 	0.23607 0.15487 0.47162 -0.10800
C 	C 	0.19857 0.11980 0.50440 -0.06000
C 	C 	0.25312 0.12225 0.53624 0.32500
F 	F 	0.21831 0.09056 0.56854 -0.39600
H 	H 	0.38470 0.15772 0.55929 0.12100
H 	H 	0.19432 0.15282 0.44685 0.13000
F 	F 	0.36209 0.22314 0.43825 -0.39000
C 	C 	0.75022 0.59217 0.98506 -0.07000
C 	C 	0.77183 0.55029 0.95802 -0.11000
C 	C 	0.82201 0.59611 0.92961 0.38500
C 	C 	0.84670 0.68098 0.92725 -0.11500
C 	C 	0.82624 0.72341 0.95463 -0.03700
C 	C 	0.77758 0.67827 0.98351 0.31900
F 	F 	0.75947 0.71888 0.01092 -0.37300
H 	H 	0.71183 0.55776 0.00723 0.14700
H 	H 	0.88521 0.71550 0.90513 0.13100
F 	F 	0.84652 0.55845 0.90414 -0.38300
C 	C 	0.76181 0.04994 0.99659 -0.06600
C 	C 	0.76875 0.10027 0.96786 -0.12100
C 	C 	0.79656 0.08949 0.93290 0.37000
C 	C 	0.82160 0.03275 0.92787 -0.11200
C 	C 	0.81905 0.98616 0.95758 -0.04100
C 	C 	0.78641 0.99313 0.99142 0.30400
F 	F 	0.78350 0.94877 0.02040 -0.37900
H 	H 	0.73947 0.05650 0.02347 0.11500
H 	H 	0.84634 0.02762 0.90154 0.13500
F 	F 	0.79933 0.13359 0.90384 -0.39500
C 	C 	0.14730 0.03598 0.93248 -0.12400
C 	C 	0.11244 0.02867 0.96711 -0.04100
C 	C 	0.17196 0.06970 0.00365 0.32500
C 	C 	0.26595 0.11760 0.00545 -0.04600
C 	C 	0.30088 0.12465 0.97073 -0.13100
C 	C 	0.24102 0.08338 0.93421 0.37300
F 	F 	0.27373 0.08818 0.90046 -0.41200
H 	H 	0.10140 0.00332 0.90424 0.13000
H 	H 	0.31165 0.15012 0.03373 0.13600
F 	F 	0.13854 0.06226 0.03736 -0.38800
