data_crystal

_cell_length_a 20.38889
_cell_length_b 18.43978
_cell_length_c 32.07538
_cell_angle_alpha 104.23372
_cell_angle_beta  116.03713
_cell_angle_gamma 111.02719

_symmetry_space_group_name_	'P 1'
_symmetry_space_group_name_H-M	'P 1'

loop_
_symmetry_equiv_pos_as_xyz
  x,y,z

loop_
_atom_site_label
_atom_site_type_symbol
_atom_site_fract_x
_atom_site_fract_y
_atom_site_fract_z
_atom_site_charge
Zn	Zn	0.22741 0.17528 0.01864 1.18600
Zn	Zn	0.09205 0.12787 0.91115 1.19700
O 	O 	0.06880 0.98922 0.81376 -0.48300
O 	O 	0.04871 0.10396 0.83581 -0.43800
O 	O 	0.09431 0.87997 0.88788 -0.49600
C 	C 	0.29620 0.12515 0.96595 0.36300
C 	C 	0.24262 0.31753 0.99032 0.37600
O 	O 	0.31786 0.16977 0.01347 -0.47600
O 	O 	0.21540 0.08243 0.92506 -0.42000
O 	O 	0.11149 0.12803 0.97952 -0.76900
O 	O 	0.14124 0.97214 0.97072 -0.46500
O 	O 	0.18368 0.25441 0.94015 -0.46300
O 	O 	0.26404 0.29776 0.02918 -0.47700
Zn	Zn	0.02883 0.00468 0.94933 1.22800
O 	O 	0.04479 0.00647 0.01341 -0.86100
Zn	Zn	0.04332 0.93666 0.85598 1.18900
C 	C 	0.04984 0.04645 0.80270 0.33500
C 	C 	0.14820 0.91791 0.93960 0.34000
H 	H 	0.10542 0.03332 0.04337 0.16700
Zn	Zn	0.17680 0.18844 0.52152 1.18700
Zn	Zn	0.05239 0.13131 0.40601 1.20300
O 	O 	0.07629 0.02287 0.32635 -0.47300
O 	O 	0.02529 0.11405 0.33391 -0.43700
O 	O 	0.07859 0.89193 0.38669 -0.50300
C 	C 	0.29156 0.19772 0.49403 0.36700
C 	C 	0.18459 0.32530 0.48860 0.38400
O 	O 	0.28657 0.20946 0.53432 -0.48300
O 	O 	0.22107 0.16123 0.44634 -0.37700
O 	O 	0.06141 0.12231 0.47051 -0.76100
O 	O 	0.11830 0.98522 0.46668 -0.46400
O 	O 	0.13499 0.26207 0.43861 -0.45800
O 	O 	0.19626 0.30574 0.52716 -0.47600
O 	O 	0.00461 0.98792 0.49927 -0.88100
Zn	Zn	0.03087 0.95072 0.35480 1.18600
C 	C 	0.04682 0.06991 0.30909 0.33400
C 	C 	0.12351 0.92521 0.43832 0.33900
H 	H 	0.06471 0.01904 0.53103 0.18100
C 	C 	0.03608 0.05144 0.75464 -0.10900
C 	C 	0.02513 0.98835 0.71588 -0.07400
H 	H 	0.03145 0.10618 0.74989 0.07300
H 	H 	0.02927 0.93307 0.72004 0.05200
C 	C 	0.03942 0.03128 0.18420 0.04900
C 	C 	0.04668 0.02269 0.23045 0.01800
C 	C 	0.04560 0.08043 0.26475 -0.16100
H 	H 	0.03952 0.13368 0.25849 0.08200
H 	H 	0.03985 0.08874 0.18082 0.03300
C 	C 	0.22592 0.41109 0.50085 -0.22400
H 	H 	0.26255 0.46190 0.54164 0.09300
C 	C 	0.27205 0.83636 0.46632 -0.05000
C 	C 	0.21680 0.86900 0.44203 0.03500
C 	C 	0.18408 0.89955 0.46499 -0.18100
H 	H 	0.20277 0.90646 0.50379 0.06800
H 	H 	0.27443 0.82197 0.49770 0.03800
C 	C 	0.27458 0.42875 0.96535 0.05200
C 	C 	0.28281 0.40335 0.00244 -0.21700
H 	H 	0.23813 0.37994 0.92409 0.03100
C 	C 	0.22279 0.90754 0.96297 -0.17900
C 	C 	0.25485 0.88993 0.93557 0.03400
H 	H 	0.25393 0.91823 0.00331 0.07100
H 	H 	0.22933 0.88913 0.89764 0.02200
C 	C 	0.63850 0.29660 0.99194 0.05700
C 	C 	0.67846 0.38149 0.99759 -0.10200
C 	C 	0.72333 0.40005 0.97495 0.05800
C 	C 	0.72884 0.33367 0.94689 -0.10000
C 	C 	0.69411 0.25031 0.94433 0.05900
C 	C 	0.64868 0.23192 0.96666 -0.09900
H 	H 	0.67362 0.43267 0.01891 0.04900
H 	H 	0.76205 0.34765 0.92845 0.05000
H 	H 	0.62255 0.16793 0.96514 0.05400
C 	C 	0.54601 0.27564 0.43171 0.06200
C 	C 	0.60189 0.35404 0.43657 -0.10300
C 	C 	0.67910 0.36848 0.44331 0.05900
C 	C 	0.69948 0.30383 0.44431 -0.10300
C 	C 	0.64171 0.22352 0.43702 0.06000
C 	C 	0.56567 0.21013 0.43150 -0.10200
H 	H 	0.58663 0.40469 0.43671 0.05300
H 	H 	0.76036 0.31618 0.45106 0.04800
H 	H 	0.52195 0.14899 0.42713 0.05600
C 	C 	0.50941 0.78561 0.99475 0.05300
C 	C 	0.46505 0.82897 0.99527 -0.10000
C 	C 	0.38033 0.78161 0.98125 0.05600
C 	C 	0.34204 0.69215 0.96881 -0.09900
C 	C 	0.38653 0.64912 0.96889 0.05700
C 	C 	0.46984 0.69576 0.98151 -0.10000
H 	H 	0.49655 0.89901 0.00708 0.05000
H 	H 	0.27699 0.65556 0.95812 0.05500
H 	H 	0.50398 0.66231 0.98121 0.05000
C 	C 	0.49040 0.76975 0.48859 0.05700
C 	C 	0.45014 0.81796 0.48235 -0.10100
C 	C 	0.36522 0.78029 0.46768 0.05800
C 	C 	0.32212 0.69590 0.46223 -0.09900
C 	C 	0.36281 0.64817 0.46958 0.05800
C 	C 	0.44722 0.68565 0.48324 -0.10100
H 	H 	0.48339 0.88306 0.48650 0.04900
H 	H 	0.25537 0.66522 0.44906 0.05700
H 	H 	0.47774 0.64781 0.48736 0.05000
Zn	Zn	0.83502 0.84929 0.88921 1.17100
C 	C 	0.81131 0.70475 0.91992 0.38200
C 	C 	0.77496 0.91136 0.94501 0.35800
O 	O 	0.77780 0.72930 0.88462 -0.48800
O 	O 	0.76394 0.88868 0.89925 -0.50100
O 	O 	0.84428 0.92456 0.98596 -0.49100
Zn	Zn	0.80784 0.82171 0.36755 1.17600
C 	C 	0.79308 0.67381 0.39320 0.38500
C 	C 	0.73281 0.85664 0.41870 0.36400
O 	O 	0.76353 0.69756 0.35678 -0.48900
O 	O 	0.72115 0.83531 0.37280 -0.49600
O 	O 	0.80408 0.87294 0.45951 -0.49900
C 	C 	0.22786 0.43556 0.46488 0.05800
C 	C 	0.27903 0.53023 0.48064 -0.05500
C 	C 	0.31275 0.55418 0.45502 -0.05900
H 	H 	0.29043 0.58053 0.51369 0.04100
H 	H 	0.30603 0.50430 0.42427 0.04300
H 	H 	0.19536 0.38594 0.42445 0.03100
C 	C 	0.57486 0.80389 0.49644 -0.06400
C 	C 	0.58715 0.83141 0.46395 -0.05000
C 	C 	0.66575 0.85191 0.46589 0.03300
C 	C 	0.66538 0.85115 0.42202 -0.20300
H 	H 	0.72162 0.86215 0.50008 0.02300
H 	H 	0.62385 0.79791 0.52524 0.03600
H 	H 	0.60843 0.83969 0.38799 0.08500
H 	H 	0.53615 0.83282 0.43328 0.03800
C 	C 	0.31679 0.82167 0.44837 -0.06300
H 	H 	0.20212 0.86742 0.40473 0.02400
H 	H 	0.31853 0.84130 0.41936 0.04000
C 	C 	0.34443 0.55387 0.95363 -0.05900
C 	C 	0.31750 0.52418 0.98083 -0.05700
H 	H 	0.33867 0.50844 0.92138 0.04300
H 	H 	0.32542 0.45379 0.04388 0.09000
H 	H 	0.32882 0.57081 0.01535 0.04200
C 	C 	0.70617 0.90590 0.94702 -0.19900
C 	C 	0.69906 0.89679 0.98726 0.03000
C 	C 	0.61535 0.86799 0.98045 -0.05300
C 	C 	0.59880 0.83457 0.00994 -0.06000
H 	H 	0.56446 0.86726 0.94832 0.03800
H 	H 	0.65207 0.89867 0.91326 0.08200
H 	H 	0.64880 0.83278 0.04101 0.03300
H 	H 	0.75230 0.90375 0.02144 0.02100
C 	C 	0.32806 0.87652 0.95672 -0.04900
C 	C 	0.33076 0.82477 0.97984 -0.06200
H 	H 	0.37075 0.89575 0.94457 0.03500
H 	H 	0.28554 0.80249 0.98999 0.04200
C 	C 	0.79072 0.08224 0.41278 -0.18000
C 	C 	0.73790 0.08384 0.42665 0.03500
C 	C 	0.69532 0.13264 0.41335 -0.04800
C 	C 	0.66421 0.15645 0.43971 -0.06400
H 	H 	0.69644 0.15637 0.38564 0.03600
H 	H 	0.79166 0.10376 0.38428 0.06300
H 	H 	0.65809 0.12850 0.46492 0.04200
C 	C 	0.74680 0.58972 0.38156 -0.21800
C 	C 	0.77453 0.55973 0.42128 0.03800
C 	C 	0.71505 0.48196 0.41461 -0.05500
C 	C 	0.74079 0.45286 0.45174 -0.06400
H 	H 	0.64818 0.44343 0.38006 0.04000
H 	H 	0.68538 0.54344 0.34292 0.08800
H 	H 	0.80841 0.48860 0.48492 0.03400
H 	H 	0.84130 0.59874 0.45602 0.02400
C 	C 	0.46740 0.26265 0.42746 -0.06400
C 	C 	0.45432 0.24822 0.46469 -0.04800
C 	C 	0.37808 0.23177 0.45941 0.03500
C 	C 	0.36835 0.22680 0.50190 -0.20500
H 	H 	0.32651 0.22549 0.42458 0.03600
H 	H 	0.42161 0.26871 0.39659 0.04400
H 	H 	0.42540 0.25250 0.54102 0.08800
H 	H 	0.50417 0.25020 0.49816 0.04000
C 	C 	0.80924 0.13673 0.92803 0.03400
C 	C 	0.78639 0.20438 0.93238 -0.04700
C 	C 	0.70773 0.18272 0.92029 -0.06400
H 	H 	0.83711 0.27364 0.95192 0.03400
H 	H 	0.65709 0.11318 0.90004 0.04300
H 	H 	0.76533 0.07185 0.92032 0.02700
C 	C 	0.77153 0.49122 0.98511 -0.06600
C 	C 	0.74661 0.51245 0.94408 -0.05500
C 	C 	0.79296 0.59929 0.95427 0.03600
C 	C 	0.76188 0.62490 0.91256 -0.21800
H 	H 	0.82424 0.54306 0.02560 0.03400
H 	H 	0.69625 0.58019 0.87677 0.08900
H 	H 	0.69035 0.46136 0.90422 0.04100
C 	C 	0.58518 0.27558 0.01210 -0.05800
C 	C 	0.50752 0.19981 0.98248 -0.05000
C 	C 	0.44644 0.18683 0.99699 0.03700
C 	C 	0.35812 0.12509 0.95809 -0.19300
H 	H 	0.46939 0.23058 0.03653 0.02800
H 	H 	0.60515 0.32639 0.04861 0.03600
H 	H 	0.33663 0.08205 0.91882 0.08900
H 	H 	0.48581 0.15064 0.94478 0.04300
C 	C 	0.00479 0.99273 0.66661 0.17300
H 	H 	0.00757 0.88074 0.63341 0.15400
C 	C 	0.02968 0.96779 0.14601 -0.22500
H 	H 	0.05035 0.96784 0.23568 0.01500
H 	H 	0.03047 0.91141 0.15044 0.09400
C 	C 	0.01628 0.97099 0.10166 0.36300
H 	H 	0.73293 0.05645 0.45234 0.02900
C 	C 	0.88879 0.15917 0.94208 -0.18100
H 	H 	0.85096 0.64937 0.99384 0.02200
O 	O 	0.86866 0.73027 0.43987 -0.48100
O 	O 	0.89365 0.75535 0.96066 -0.49500
C 	C 	0.85186 0.05699 0.43843 0.34000
H 	H 	0.93155 0.22206 0.94739 0.05700
O 	O 	0.86889 0.01137 0.41057 -0.47400
C 	C 	0.92556 0.11015 0.96205 0.33600
O 	O 	0.92209 0.04631 0.92983 -0.47600
O 	O 	0.88078 0.07071 0.48680 -0.50700
O 	O 	0.00923 0.00331 0.88475 -0.82300
O 	O 	0.94867 0.12039 0.00917 -0.50600
O 	O 	0.92322 0.86921 0.40589 -0.81400
H 	H 	0.91875 0.97736 0.34729 0.12500
O 	O 	0.01491 0.03888 0.09554 -0.45700
O 	O 	0.94664 0.88142 0.92009 -0.82700
H 	H 	0.94898 0.98452 0.85855 0.09500
Zn	Zn	0.93183 0.01049 0.51210 1.20000
Zn	Zn	0.94030 0.86093 0.47237 1.18200
O 	O 	0.00567 0.90601 0.06505 -0.43900
H 	H 	0.99620 0.04597 0.66213 -0.02200
Zn	Zn	0.99312 0.99572 0.43813 1.19900
C 	C 	0.99663 0.93220 0.62778 -0.38000
O 	O 	0.97963 0.00276 0.37629 -0.88600
Zn	Zn	0.97102 0.88289 0.98980 1.17200
Zn	Zn	0.98366 0.04732 0.03094 1.18700
C 	C 	0.97574 0.93451 0.58222 0.43300
O 	O 	0.97181 0.87582 0.54607 -0.48600
O 	O 	0.95928 0.99479 0.57420 -0.52400
