data_crystal

_cell_length_a 22.16155
_cell_length_b 18.64879
_cell_length_c 42.83191
_cell_angle_alpha 89.88092
_cell_angle_beta  89.88342
_cell_angle_gamma 119.58171

_symmetry_space_group_name_	'P 1'
_symmetry_space_group_name_H-M	'P 1'

loop_
_symmetry_equiv_pos_as_xyz
  x,y,z

loop_
_atom_site_label
_atom_site_type_symbol
_atom_site_fract_x
_atom_site_fract_y
_atom_site_fract_z
_atom_site_charge
C 	C 	0.04194 0.17141 0.62971 0.05900
C 	C 	0.02881 0.24840 0.59513 0.02800
C 	C 	0.00011 0.45037 0.46244 0.12800
H 	H 	0.06616 0.68955 0.66105 0.08500
C 	C 	0.11069 0.92119 0.66476 0.05700
C 	C 	0.05393 0.15235 0.66168 0.28200
C 	C 	0.01019 0.82469 0.17506 -0.04800
C 	C 	0.02687 0.54024 0.41707 0.12300
O 	O 	0.05448 0.94640 0.76117 -0.33100
H 	H 	0.04085 0.89838 0.82451 0.07800
O 	O 	0.11595 0.85139 0.67169 -0.16600
C 	C 	0.09825 0.96586 0.68959 0.30900
H 	H 	0.04911 0.37465 0.59515 0.08600
H 	H 	0.02353 0.79330 0.40484 0.10000
C 	C 	0.01864 0.89585 0.35966 -0.05900
C 	C 	0.01181 0.17225 0.26972 0.26200
C 	C 	0.01961 0.95623 0.30717 0.28100
O 	O 	0.01525 0.19315 0.74551 -0.34500
Ni	Ni	0.01999 0.02570 0.24515 1.11400
O 	O 	0.02173 0.92039 0.23721 -0.34900
C 	C 	0.06862 0.25153 0.61932 -0.04700
Br	Br	0.02930 0.40225 0.49482 -0.15300
C 	C 	0.01289 0.23186 0.07282 0.03200
C 	C 	0.03096 0.72965 0.19309 0.12700
C 	C 	0.03949 0.77907 0.16775 0.02100
H 	H 	0.05413 0.79623 0.11769 0.09000
H 	H 	0.04792 0.08833 0.75345 0.15500
C 	C 	0.04854 0.75731 0.13754 -0.07600
O 	O 	0.06325 0.20494 0.68424 -0.36300
C 	C 	0.03270 0.30435 0.29455 -0.04700
C 	C 	0.04924 0.50893 0.44175 -0.11100
C 	C 	0.03687 0.65873 0.18972 -0.08100
H 	H 	0.03198 0.62058 0.20972 0.08000
C 	C 	0.09475 0.81073 0.64331 0.12900
C 	C 	0.06255 0.72461 0.64165 -0.07900
H 	H 	0.03355 0.35699 0.07404 0.07900
C 	C 	0.04913 0.48411 0.90239 0.07000
C 	C 	0.04878 0.63826 0.15966 0.02100
C 	C 	0.05642 0.68755 0.13408 0.12600
C 	C 	0.08118 0.85424 0.62087 0.02700
C 	C 	0.09117 0.92405 0.63450 -0.04300
C 	C 	0.05171 0.61144 0.88755 0.07200
O 	O 	0.04091 0.14522 0.24913 -0.34800
O 	O 	0.07402 0.09465 0.73405 -0.72000
O 	O 	0.04151 0.07730 0.66803 -0.37200
H 	H 	0.05277 0.46076 0.30845 0.08600
C 	C 	0.05103 0.95691 0.33743 0.08200
C 	C 	0.01521 0.31218 0.58727 -0.07100
O 	O 	0.05214 0.02226 0.28876 -0.37100
C 	C 	0.04703 0.31226 0.06516 -0.05000
H 	H 	0.04189 0.05184 0.14095 0.06500
C 	C 	0.05616 0.25142 0.28522 0.05100
C 	C 	0.06835 0.85403 0.40185 -0.07800
C 	C 	0.06606 0.91283 0.38207 0.02600
H 	H 	0.06595 0.95846 0.62716 0.08100
C 	C 	0.05239 0.13645 0.08664 -0.07200
H 	H 	0.09835 0.30563 0.63363 0.07400
C 	C 	0.07849 0.57022 0.90552 0.01600
C 	C 	0.05929 0.20324 0.06879 0.12100
Br	Br	0.09301 0.61533 0.38714 -0.18300
O 	O 	0.09667 0.68214 0.11032 -0.16000
O 	O 	0.03434 0.94067 0.69880 -0.35100
Br	Br	0.09311 0.42800 0.92134 -0.14600
C 	C 	0.08586 0.60069 0.15370 -0.05200
C 	C 	0.09696 0.61644 0.96112 0.06700
C 	C 	0.08967 0.37336 0.30357 0.01500
Br	Br	0.10000 0.64281 0.02794 -0.15100
Br	Br	0.10012 0.72999 0.88562 -0.14900
C 	C 	0.09742 0.45245 0.30519 -0.07800
Ni	Ni	0.10418 0.20782 0.72679 1.12400
H 	H 	0.09306 0.12018 0.08640 0.08700
C 	C 	0.11472 0.62785 0.12449 0.05400
C 	C 	0.01805 0.68452 0.61655 0.02700
H 	H 	0.10710 0.57813 0.17150 0.06900
C 	C 	0.12281 0.55170 0.45030 0.32800
C 	C 	0.11359 0.33081 0.05723 0.05800
O 	O 	0.15066 0.01893 0.70635 -0.36800
O 	O 	0.11978 0.01480 0.34427 -0.20900
C 	C 	0.12526 0.61280 0.93205 0.01800
C 	C 	0.03196 0.81345 0.59738 -0.07600
Ni	Ni	0.13696 0.06262 0.74879 1.11100
C 	C 	0.12599 0.98249 0.37259 0.14000
C 	C 	0.13187 0.87409 0.41592 0.13800
O 	O 	0.12356 0.26257 0.05741 -0.15800
O 	O 	0.12814 0.28447 0.28727 -0.18000
C 	C 	0.13799 0.63682 0.98816 0.12500
O 	O 	0.13431 0.11941 0.78983 -0.37000
O 	O 	0.14472 0.81448 0.42884 -0.16600
O 	O 	0.14745 0.62244 0.46549 -0.34400
C 	C 	0.14529 0.36152 0.29906 0.12400
O 	O 	0.15823 0.51116 0.44906 -0.34500
C 	C 	0.16513 0.52013 0.30696 0.12200
C 	C 	0.16247 0.20061 0.79152 0.26700
C 	C 	0.17431 0.62098 0.11327 0.27900
Br	Br	0.16849 0.34763 0.48560 -0.17400
O 	O 	0.15439 0.24510 0.76906 -0.34100
O 	O 	0.16895 0.45686 0.08597 -0.35900
C 	C 	0.17252 0.41349 0.06276 0.28100
O 	O 	0.17945 0.58765 0.32547 -0.16500
H 	H 	0.18774 0.13909 0.84634 0.06600
Br	Br	0.00087 0.58855 0.96413 -0.15400
O 	O 	0.19304 0.22753 0.70566 -0.35300
C 	C 	0.19048 0.99835 0.38431 -0.04200
C 	C 	0.19117 0.94618 0.40781 0.01200
H 	H 	0.01278 0.84631 0.58335 0.09300
C 	C 	0.19653 0.63937 0.92958 0.07000
O 	O 	0.20176 0.65253 0.08605 -0.34100
O 	O 	0.20160 0.58713 0.13109 -0.35600
C 	C 	0.20622 0.65037 0.98630 -0.10900
C 	C 	0.21375 0.24492 0.81602 0.05600
C 	C 	0.21276 0.42885 0.29836 -0.08400
C 	C 	0.21711 0.85739 0.42710 0.06200
C 	C 	0.21992 0.20460 0.84188 -0.05200
C 	C 	0.22170 0.50836 0.30285 0.01800
O 	O 	0.22354 0.57131 0.38884 -0.35500
C 	C 	0.00109 0.72753 0.59526 0.12800
O 	O 	0.22758 0.57860 0.50331 -0.34000
C 	C 	0.99940 0.06195 0.13446 -0.05400
C 	C 	0.99698 0.09884 0.10787 0.01200
O 	O 	0.99691 0.74143 0.21813 -0.17500
O 	O 	0.99110 0.02139 0.19991 -0.38300
C 	C 	0.98471 0.80182 0.20496 0.05400
H 	H 	0.98464 0.30089 0.28709 0.06600
H 	H 	0.99706 0.85964 0.15890 0.07200
C 	C 	0.96140 0.19887 0.09608 -0.08600
C 	C 	0.87484 0.44212 0.88655 0.32600
C 	C 	0.56969 0.32330 0.87899 0.28200
C 	C 	0.77276 0.54073 0.91059 0.28400
C 	C 	0.67006 0.22164 0.84918 0.25700
C 	C 	0.64371 0.33786 0.97258 0.34800
C 	C 	0.73723 0.21675 0.94919 0.32800
Ni	Ni	0.72419 0.39757 0.86884 1.11700
Ni	Ni	0.63400 0.24435 0.91549 1.12800
Ni	Ni	0.77568 0.39606 0.93947 1.13100
O 	O 	0.83375 0.46169 0.87008 -0.34500
O 	O 	0.85566 0.40426 0.91412 -0.35300
O 	O 	0.62635 0.26461 0.96125 -0.35600
O 	O 	0.61938 0.34732 0.85803 -0.35300
O 	O 	0.57722 0.30033 0.90699 -0.34500
O 	O 	0.76025 0.29124 0.96182 -0.34200
O 	O 	0.71914 0.48811 0.89447 -0.35900
O 	O 	0.81050 0.51548 0.92575 -0.33000
O 	O 	0.68731 0.18730 0.92774 -0.36100
O 	O 	0.71717 0.29957 0.84335 -0.33900
O 	O 	0.62009 0.20159 0.87041 -0.34700
O 	O 	0.70220 0.40322 0.96436 -0.36000
O 	O 	0.71946 0.33804 0.90476 -0.72200
H 	H 	0.74461 0.31008 0.89736 0.16600
C 	C 	0.71221 0.41858 0.51810 0.32500
C 	C 	0.63423 0.20189 0.62714 0.34200
C 	C 	0.55171 0.34212 0.56827 0.34800
C 	C 	0.79943 0.29942 0.58239 0.25900
C 	C 	0.66505 0.45043 0.64955 0.27800
C 	C 	0.84018 0.54607 0.60101 0.25700
Ni	Ni	0.65745 0.28371 0.56652 1.12800
Ni	Ni	0.74876 0.37795 0.62805 1.12400
Ni	Ni	0.69393 0.47067 0.58264 1.12700
O 	O 	0.70459 0.34543 0.52556 -0.33700
O 	O 	0.68372 0.45362 0.53522 -0.34400
O 	O 	0.67902 0.39043 0.65432 -0.34600
O 	O 	0.60497 0.22748 0.60701 -0.35400
O 	O 	0.69643 0.25392 0.63774 -0.35100
O 	O 	0.79663 0.54895 0.58044 -0.33300
O 	O 	0.57347 0.29831 0.55269 -0.32600
O 	O 	0.59115 0.39576 0.58916 -0.37800
O 	O 	0.81690 0.50143 0.62709 -0.35700
O 	O 	0.73307 0.24822 0.57502 -0.33300
O 	O 	0.81692 0.35426 0.60526 -0.34500
O 	O 	0.69673 0.50481 0.62728 -0.36100
O 	O 	0.71247 0.38222 0.58786 -0.71400
H 	H 	0.75488 0.40386 0.57507 0.15900
C 	C 	0.24398 0.22768 0.72136 0.28300
C 	C 	0.99058 0.93154 0.76755 0.25500
C 	C 	0.95363 0.12958 0.73844 0.25300
Ni	Ni	0.99912 0.02009 0.70852 1.11200
O 	O 	0.23198 0.16924 0.74175 -0.36000
O 	O 	0.94558 0.08150 0.71419 -0.36300
O 	O 	0.95503 0.94980 0.74711 -0.32400
C 	C 	0.25836 0.81790 0.43443 0.26500
C 	C 	0.26255 0.53961 0.49859 0.35000
C 	C 	0.40169 0.80584 0.48395 0.34600
C 	C 	0.40746 0.63983 0.41530 0.28600
C 	C 	0.26328 0.62895 0.36837 0.26700
Ni	Ni	0.24972 0.68724 0.47978 1.12300
Ni	Ni	0.25636 0.55871 0.43077 1.12800
Ni	Ni	0.35197 0.75155 0.41889 1.12500
O 	O 	0.26444 0.80145 0.46409 -0.32700
O 	O 	0.29652 0.81027 0.41206 -0.34400
O 	O 	0.34517 0.57691 0.40980 -0.36100
O 	O 	0.29502 0.54759 0.47208 -0.35800
O 	O 	0.32440 0.69402 0.37618 -0.36100
O 	O 	0.34994 0.73992 0.49645 -0.34800
O 	O 	0.39647 0.82997 0.45560 -0.34500
O 	O 	0.41475 0.70629 0.42892 -0.35800
O 	O 	0.27397 0.66679 0.43996 -0.71800
H 	H 	0.23746 0.66809 0.42736 0.16700
C 	C 	0.35725 0.47733 0.08776 0.33000
C 	C 	0.36209 0.69121 0.13908 0.25400
C 	C 	0.23940 0.64076 0.01451 0.35100
C 	C 	0.42603 0.73267 0.03890 0.33300
Ni	Ni	0.25443 0.52958 0.11338 1.11700
Ni	Ni	0.30439 0.70247 0.07675 1.12800
Ni	Ni	0.30675 0.55418 0.04134 1.13000
O 	O 	0.29921 0.45522 0.10400 -0.34700
O 	O 	0.37284 0.52354 0.06207 -0.34700
O 	O 	0.28084 0.70605 0.03120 -0.34900
O 	O 	0.38558 0.66248 0.02356 -0.34200
O 	O 	0.23265 0.43465 0.04953 -0.33400
O 	O 	0.40436 0.75486 0.06410 -0.36900
O 	O 	0.33397 0.61018 0.14222 -0.33500
O 	O 	0.33009 0.72429 0.12319 -0.34400
O 	O 	0.23222 0.56817 0.02082 -0.37300
O 	O 	0.30337 0.60058 0.08008 -0.72200
H 	H 	0.35149 0.62041 0.08681 0.16500
C 	C 	0.79922 0.92858 0.30647 0.26400
C 	C 	0.96072 0.06180 0.18926 0.27400
C 	C 	0.77686 0.85998 0.22679 0.27800
C 	C 	0.96977 0.85501 0.22459 0.27900
Ni	Ni	0.87595 0.03232 0.24728 1.10100
Ni	Ni	0.88339 0.87219 0.27266 1.12400
O 	O 	0.80153 0.97881 0.28355 -0.32700
O 	O 	0.84776 0.90732 0.30965 -0.36300
O 	O 	0.93574 0.09534 0.20857 -0.34900
O 	O 	0.96781 0.88509 0.29657 -0.35900
O 	O 	0.81693 0.93590 0.21726 -0.33600
O 	O 	0.78767 0.83444 0.25381 -0.36100
O 	O 	0.94316 0.13782 0.27213 -0.35900
O 	O 	0.90586 0.82844 0.23415 -0.35900
O 	O 	0.92863 0.98512 0.26109 -0.68000
H 	H 	0.94029 0.01030 0.28197 0.12800
C 	C 	0.95377 0.13120 0.11348 0.12900
O 	O 	0.92561 0.11549 0.14340 -0.17800
C 	C 	0.95747 0.07296 0.15546 0.04700
H 	H 	0.93334 0.23037 0.10276 0.08800
C 	C 	0.63487 0.78845 0.17653 0.13500
C 	C 	0.60164 0.81425 0.15510 -0.07500
C 	C 	0.53604 0.80307 0.16296 0.03200
C 	C 	0.50221 0.76209 0.18982 0.12300
C 	C 	0.53535 0.73620 0.21127 -0.07500
C 	C 	0.60121 0.74790 0.20353 0.02100
O 	O 	0.70663 0.82645 0.17835 -0.16400
C 	C 	0.71311 0.80767 0.20935 0.05400
C 	C 	0.65048 0.76000 0.22441 -0.05000
O 	O 	0.43046 0.72435 0.18792 -0.17400
C 	C 	0.42427 0.74457 0.15707 0.06500
C 	C 	0.48704 0.79226 0.14217 -0.05400
H 	H 	0.62725 0.84499 0.13359 0.10000
H 	H 	0.50963 0.70526 0.23272 0.07600
H 	H 	0.64334 0.75852 0.24949 0.07400
H 	H 	0.49422 0.79385 0.11707 0.08100
C 	C 	0.64086 0.77121 0.33319 0.12100
C 	C 	0.56983 0.71339 0.33330 -0.08200
C 	C 	0.53990 0.67240 0.36153 0.01700
C 	C 	0.57552 0.69837 0.38936 0.12600
C 	C 	0.64538 0.76107 0.38940 -0.07700
C 	C 	0.67802 0.79116 0.36044 0.01900
O 	O 	0.67314 0.82778 0.30919 -0.18500
C 	C 	0.73470 0.88268 0.32446 0.05800
C 	C 	0.73601 0.86335 0.35558 -0.05200
O 	O 	0.53282 0.68110 0.41534 -0.15900
C 	C 	0.46823 0.64249 0.40052 0.05200
C 	C 	0.47208 0.63719 0.36849 -0.05000
H 	H 	0.53856 0.70347 0.31264 0.07200
H 	H 	0.67179 0.78836 0.41107 0.09000
H 	H 	0.78207 0.88741 0.36996 0.07400
H 	H 	0.43292 0.63349 0.35244 0.05900
C 	C 	0.24638 0.60934 0.33536 0.05700
C 	C 	0.27350 0.56630 0.32007 -0.05400
H 	H 	0.25704 0.41959 0.29568 0.07700
H 	H 	0.31530 0.55846 0.32945 0.06000
C 	C 	0.24531 0.93536 0.41445 -0.03500
H 	H 	0.23833 0.04657 0.37425 0.05600
H 	H 	0.97399 0.83573 0.35546 0.07600
H 	H 	0.29618 0.96882 0.40369 0.08200
C 	C 	0.46236 0.85819 0.50372 -0.11000
C 	C 	0.48657 0.81939 0.52447 0.12600
C 	C 	0.51487 0.85616 0.55334 0.07700
C 	C 	0.53287 0.93891 0.55848 -0.00100
C 	C 	0.52370 0.98413 0.53430 0.09900
C 	C 	0.48450 0.94285 0.50779 0.13800
C 	C 	0.55497 0.97642 0.58983 0.05600
C 	C 	0.50902 0.99071 0.60811 0.08600
C 	C 	0.53605 0.05882 0.62840 0.10200
C 	C 	0.60814 0.11219 0.62942 -0.11800
C 	C 	0.65145 0.08118 0.61957 0.13200
C 	C 	0.62561 0.01546 0.59817 0.01000
Br	Br	0.56427 0.10211 0.53774 -0.24300
Br	Br	0.48252 0.71737 0.51280 -0.13400
Br	Br	0.47542 0.08393 0.65235 -0.15600
Br	Br	0.68639 0.98121 0.57957 -0.12500
Br	Br	0.45879 0.00160 0.47838 -0.18300
Br	Br	0.52151 0.79083 0.58666 -0.11800
Br	Br	0.41038 0.92151 0.60332 -0.12700
Br	Br	0.74163 0.12194 0.63791 -0.20100
C 	C 	0.74266 0.45433 0.48745 -0.09900
C 	C 	0.80152 0.53325 0.48628 0.11600
C 	C 	0.85686 0.54713 0.46647 0.06500
C 	C 	0.84986 0.48354 0.44649 0.01500
C 	C 	0.78323 0.41689 0.44082 0.07000
C 	C 	0.72915 0.40138 0.46176 0.12600
C 	C 	0.91124 0.47476 0.43976 0.01700
C 	C 	0.95726 0.52164 0.41576 0.06700
C 	C 	0.93081 0.43259 0.46122 0.06000
Br	Br	0.76899 0.34226 0.40706 -0.15100
Br	Br	0.80529 0.62159 0.51081 -0.16300
Br	Br	0.86381 0.35511 0.49042 -0.16700
Br	Br	0.63926 0.30513 0.45700 -0.13200
Br	Br	0.94409 0.64836 0.46918 -0.15800
Br	Br	0.92595 0.56511 0.38257 -0.16100
C 	C 	0.26542 0.48601 0.52307 -0.11200
C 	C 	0.30992 0.52174 0.54864 0.12800
C 	C 	0.34250 0.48088 0.56212 0.06800
C 	C 	0.32502 0.40127 0.55174 0.01700
C 	C 	0.26687 0.35819 0.53240 0.06600
C 	C 	0.23870 0.40150 0.51696 0.12500
C 	C 	0.37656 0.37295 0.55412 0.01600
C 	C 	0.42411 0.38966 0.52954 0.06500
C 	C 	0.47591 0.36756 0.53242 0.12100
C 	C 	0.48422 0.33541 0.56087 -0.11300
C 	C 	0.43406 0.31392 0.58469 0.12000
C 	C 	0.37933 0.33113 0.58101 0.06600
Br	Br	0.23082 0.24236 0.52486 -0.15500
Br	Br	0.32554 0.62548 0.56509 -0.14900
Br	Br	0.53648 0.38345 0.49764 -0.13800
Br	Br	0.30877 0.29852 0.61281 -0.15600
Br	Br	0.41581 0.53670 0.59204 -0.15000
Br	Br	0.42077 0.44739 0.49264 -0.14300
Br	Br	0.44175 0.26330 0.62267 -0.15900
C 	C 	0.97886 0.16667 0.59155 0.12500
C 	C 	0.91500 0.14625 0.57769 -0.07800
C 	C 	0.90492 0.21038 0.56638 0.03100
C 	C 	0.95268 0.29186 0.57219 0.13000
O 	O 	0.98531 0.11369 0.61246 -0.18400
O 	O 	0.92380 0.34304 0.57375 -0.17000
C 	C 	0.85393 0.28451 0.56967 0.07400
C 	C 	0.84251 0.20584 0.56451 -0.05000
H 	H 	0.87252 0.08328 0.57830 0.08800
H 	H 	0.79370 0.15049 0.56880 0.09100
C 	C 	0.54188 0.43211 0.70583 0.12200
C 	C 	0.49231 0.38286 0.72817 -0.07500
C 	C 	0.42537 0.37258 0.72574 0.01400
C 	C 	0.40518 0.39901 0.69963 0.13200
C 	C 	0.45391 0.44427 0.67636 -0.07500
C 	C 	0.52345 0.46587 0.68141 0.02900
O 	O 	0.60070 0.42555 0.70000 -0.17100
C 	C 	0.61577 0.45882 0.66991 0.05800
C 	C 	0.57014 0.48267 0.65861 -0.04700
O 	O 	0.33442 0.35367 0.69344 -0.16100
C 	C 	0.31478 0.29713 0.71800 0.05100
C 	C 	0.36819 0.30805 0.73737 -0.04500
H 	H 	0.50407 0.34898 0.74541 0.07800
H 	H 	0.43743 0.45682 0.65422 0.10200
H 	H 	0.56072 0.48718 0.63405 0.07800
H 	H 	0.36767 0.26102 0.75247 0.06800
O 	O 	0.93600 0.68065 0.58196 -0.16300
C 	C 	0.91416 0.60710 0.59832 0.06300
C 	C 	0.96303 0.60824 0.61847 -0.05700
H 	H 	0.95112 0.56786 0.63854 0.07000
C 	C 	0.94881 0.47961 0.87791 -0.10700
C 	C 	0.98494 0.43906 0.88724 0.12100
C 	C 	0.98727 0.56517 0.87263 0.12400
C 	C 	0.23677 0.65628 0.95679 0.12700
Br	Br	0.94320 0.32177 0.88185 -0.16200
Br	Br	0.23790 0.64883 0.88906 -0.13000
Br	Br	0.95559 0.61623 0.84279 -0.18300
Br	Br	0.33215 0.68205 0.95379 -0.14600
C 	C 	0.49017 0.79577 0.02362 -0.10200
C 	C 	0.49075 0.86318 0.00830 0.12600
C 	C 	0.55318 0.92781 0.99652 0.08600
C 	C 	0.61605 0.92806 0.00160 0.04300
C 	C 	0.61564 0.86040 0.01654 0.06700
C 	C 	0.55244 0.79346 0.02699 0.12000
C 	C 	0.68239 0.00151 0.99252 -0.00800
C 	C 	0.70678 0.00947 0.96158 0.05000
C 	C 	0.74520 0.08867 0.94837 0.12700
C 	C 	0.75277 0.15714 0.96517 -0.10200
C 	C 	0.74819 0.15066 0.99791 0.12700
C 	C 	0.71047 0.07201 0.01170 0.07300
Br	Br	0.70169 0.86063 0.02340 -0.11800
Br	Br	0.40670 0.86937 0.00483 -0.13300
Br	Br	0.79067 0.10472 0.90875 -0.18800
Br	Br	0.69169 0.06085 0.05585 -0.16600
Br	Br	0.55121 0.69954 0.04651 -0.14500
Br	Br	0.55289 0.01726 0.97379 -0.18600
Br	Br	0.68101 0.91295 0.93666 -0.11400
Br	Br	0.80306 0.24598 0.02326 -0.14900
C 	C 	0.39618 0.43393 0.09363 -0.11100
C 	C 	0.46760 0.48045 0.09964 0.12800
C 	C 	0.51255 0.45441 0.08741 0.06800
C 	C 	0.48484 0.38084 0.07006 0.01900
C 	C 	0.41292 0.32558 0.07113 0.06400
C 	C 	0.36842 0.35192 0.08354 0.12600
C 	C 	0.52734 0.37146 0.04547 0.01800
C 	C 	0.53292 0.40746 0.01587 0.06600
C 	C 	0.57054 0.39575 0.99192 0.12700
C 	C 	0.60081 0.34577 0.99715 -0.11200
C 	C 	0.59392 0.30826 0.02659 0.12500
C 	C 	0.55884 0.32305 0.05097 0.07000
Br	Br	0.37546 0.21773 0.05277 -0.15000
Br	Br	0.50314 0.58067 0.12342 -0.17900
Br	Br	0.58011 0.44772 0.95178 -0.16000
Br	Br	0.55440 0.27781 0.09201 -0.14300
Br	Br	0.26994 0.27758 0.08547 -0.16900
Br	Br	0.61148 0.52226 0.09172 -0.13300
Br	Br	0.48797 0.47191 0.00807 -0.13900
Br	Br	0.63235 0.23669 0.03355 -0.13400
C 	C 	0.70794 0.13693 0.78647 0.12200
C 	C 	0.75714 0.16695 0.76223 -0.07600
C 	C 	0.81639 0.15931 0.76554 0.01800
C 	C 	0.82293 0.11421 0.78924 0.13300
C 	C 	0.77138 0.07802 0.81217 -0.08500
C 	C 	0.71381 0.09055 0.81044 0.02900
O 	O 	0.67319 0.17848 0.79517 -0.17500
C 	C 	0.66401 0.15916 0.82695 0.06600
C 	C 	0.68425 0.10313 0.83571 -0.06200
O 	O 	0.87164 0.08950 0.78348 -0.18300
C 	C 	0.89203 0.12293 0.75349 0.05800
C 	C 	0.85969 0.16496 0.74270 -0.05100
H 	H 	0.75278 0.20257 0.74325 0.08200
H 	H 	0.77690 0.04365 0.83131 0.09200
H 	H 	0.69690 0.09580 0.85944 0.08500
H 	H 	0.85748 0.18108 0.71857 0.07300
C 	C 	0.39437 0.25306 0.86048 0.12600
C 	C 	0.32310 0.21660 0.86641 -0.08200
C 	C 	0.28589 0.24975 0.85147 0.02300
C 	C 	0.31816 0.31609 0.83120 0.12400
C 	C 	0.39000 0.35347 0.82598 -0.07900
C 	C 	0.42588 0.31721 0.83961 0.01300
O 	O 	0.44001 0.24552 0.88063 -0.17200
C 	C 	0.50199 0.31234 0.86983 0.05500
C 	C 	0.49406 0.35517 0.84537 -0.04800
O 	O 	0.27405 0.31864 0.80883 -0.17500
H 	H 	0.29745 0.16422 0.88204 0.08300
H 	H 	0.41576 0.40482 0.80990 0.07800
H 	H 	0.53180 0.41704 0.83803 0.06600
C 	C 	0.87448 0.79150 0.82361 0.12200
C 	C 	0.81360 0.75274 0.84145 -0.07600
C 	C 	0.81780 0.72780 0.87205 0.02400
C 	C 	0.88045 0.74151 0.88436 0.13100
C 	C 	0.94194 0.78625 0.86703 -0.07300
C 	C 	0.93615 0.80485 0.83589 0.03300
O 	O 	0.88129 0.83701 0.79677 -0.16800
C 	C 	0.95382 0.87940 0.79455 0.06300
C 	C 	0.98697 0.86086 0.81785 -0.05300
O 	O 	0.87351 0.68264 0.90619 -0.15600
C 	C 	0.80191 0.62952 0.90446 0.05800
C 	C 	0.76822 0.65781 0.88511 -0.04500
H 	H 	0.76432 0.74002 0.83160 0.08400
H 	H 	0.99135 0.79830 0.87647 0.10200
H 	H 	0.71812 0.61857 0.87450 0.07200
