data_crystal

_cell_length_a 21.37975
_cell_length_b 18.37707
_cell_length_c 50.53683
_cell_angle_alpha 90.67987
_cell_angle_beta  91.50891
_cell_angle_gamma 111.01884

_symmetry_space_group_name_	'P 1'
_symmetry_space_group_name_H-M	'P 1'

loop_
_symmetry_equiv_pos_as_xyz
  x,y,z

loop_
_atom_site_label
_atom_site_type_symbol
_atom_site_fract_x
_atom_site_fract_y
_atom_site_fract_z
_atom_site_charge
Ni	Ni	0.74002 0.32347 0.90243 1.10000
O 	O 	0.64996 0.25667 0.88487 -0.69900
Ni	Ni	0.58614 0.27545 0.90986 1.10200
O 	O 	0.79146 0.29124 0.87358 -0.36200
O 	O 	0.73388 0.16264 0.88157 -0.40200
O 	O 	0.73225 0.41006 0.87874 -0.38500
Ni	Ni	0.63208 0.14565 0.88073 1.06700
O 	O 	0.78653 0.42874 0.95803 -0.41300
O 	O 	0.62941 0.12474 0.92021 -0.41300
O 	O 	0.50108 0.21881 0.88805 -0.36300
O 	O 	0.67543 0.32627 0.93002 -0.70400
O 	O 	0.82908 0.39871 0.91919 -0.37400
O 	O 	0.53498 0.32478 0.93341 -0.37500
O 	O 	0.61222 0.44670 0.92789 -0.41800
Ni	Ni	0.69990 0.43413 0.94245 1.07100
H 	H 	0.64392 0.27739 0.86738 0.14800
H 	H 	0.67933 0.29347 0.94492 0.16200
C 	C 	0.57672 0.12179 0.93339 0.31400
O 	O 	0.75406 0.49948 0.91265 -0.39300
C 	C 	0.77694 0.21691 0.86753 0.24300
C 	C 	0.49752 0.15993 0.87210 0.25100
C 	C 	0.74208 0.48109 0.88738 0.27400
C 	C 	0.55254 0.40086 0.93535 0.29200
C 	C 	0.83769 0.42988 0.94352 0.31200
O 	O 	0.55964 0.18351 0.93547 -0.37000
O 	O 	0.52971 0.11236 0.87823 -0.39700
Ni	Ni	0.60920 0.28464 0.49618 1.10000
O 	O 	0.69468 0.30681 0.47544 -0.70000
Ni	Ni	0.75721 0.28939 0.50292 1.09900
O 	O 	0.56727 0.33975 0.47004 -0.38000
O 	O 	0.65933 0.45190 0.47266 -0.39900
O 	O 	0.56038 0.18336 0.47413 -0.36900
Ni	Ni	0.73512 0.41214 0.46140 1.07100
O 	O 	0.53006 0.13471 0.52618 -0.40200
O 	O 	0.79726 0.48312 0.49066 -0.38700
O 	O 	0.84825 0.33174 0.48439 -0.36500
O 	O 	0.66798 0.25518 0.52210 -0.69700
O 	O 	0.52724 0.25659 0.51914 -0.36900
O 	O 	0.80245 0.25340 0.53396 -0.35600
O 	O 	0.72131 0.13267 0.53179 -0.39900
Ni	Ni	0.62826 0.14333 0.52780 1.06900
H 	H 	0.68725 0.26797 0.46083 0.15700
H 	H 	0.67183 0.28426 0.53906 0.15400
C 	C 	0.81484 0.45859 0.51297 0.28000
O 	O 	0.62714 0.11848 0.48864 -0.40900
C 	C 	0.59560 0.41476 0.46596 0.28800
C 	C 	0.86226 0.38105 0.46443 0.30000
C 	C 	0.57826 0.12183 0.47322 0.30900
C 	C 	0.77081 0.18606 0.54492 0.25300
C 	C 	0.50986 0.19228 0.53300 0.24900
O 	O 	0.77715 0.39252 0.52270 -0.39700
O 	O 	0.81393 0.38609 0.44839 -0.41600
Ni	Ni	0.04686 0.96133 0.73648 1.09700
O 	O 	0.03139 0.88094 0.70647 -0.70900
Ni	Ni	0.06997 0.95116 0.67663 1.09800
O 	O 	0.00486 0.87540 0.76306 -0.36600
O 	O 	0.90984 0.81861 0.73686 -0.40400
O 	O 	0.13718 0.94759 0.74193 -0.38600
Ni	Ni	0.93817 0.82081 0.69742 1.06400
O 	O 	0.10165 0.15738 0.74123 -0.40400
O 	O 	0.91073 0.91560 0.69101 -0.40300
O 	O 	0.06280 0.86572 0.64972 -0.37400
O 	O 	0.06897 0.02994 0.70510 -0.70700
O 	O 	0.07148 0.04515 0.76608 -0.37000
O 	O 	0.12942 0.03518 0.65253 -0.37600
O 	O 	0.20853 0.08930 0.68552 -0.40800
Ni	Ni	0.15061 0.11904 0.71333 1.06800
H 	H 	0.05659 0.84575 0.70953 0.15500
H 	H 	0.03249 0.05022 0.70195 0.15100
C 	C 	0.93482 0.96309 0.67145 0.25800
O 	O 	0.19474 0.07807 0.74288 -0.39000
C 	C 	0.94902 0.81590 0.75727 0.24800
C 	C 	0.00625 0.80494 0.64692 0.23900
C 	C 	0.19430 0.00659 0.74294 0.27300
C 	C 	0.19140 0.07743 0.66008 0.24400
C 	C 	0.07500 0.11795 0.76262 0.25800
O 	O 	0.98626 0.96025 0.65845 -0.36400
O 	O 	0.95042 0.80596 0.65773 -0.39200
Ni	Ni	0.22838 0.65628 0.39565 1.09800
O 	O 	0.31243 0.69503 0.37354 -0.70400
Ni	Ni	0.38153 0.67938 0.39805 1.09700
O 	O 	0.17209 0.68383 0.36661 -0.35400
O 	O 	0.24550 0.80951 0.36620 -0.39700
O 	O 	0.20812 0.55221 0.37581 -0.37000
Ni	Ni	0.34141 0.80505 0.36507 1.06700
O 	O 	0.18664 0.56234 0.45224 -0.41600
O 	O 	0.35287 0.84122 0.40374 -0.40600
O 	O 	0.45769 0.71027 0.37219 -0.37000
O 	O 	0.30057 0.65317 0.42191 -0.70000
O 	O 	0.14300 0.60917 0.41707 -0.36300
O 	O 	0.43772 0.63963 0.42373 -0.37700
O 	O 	0.35301 0.52231 0.42750 -0.40300
Ni	Ni	0.27235 0.55170 0.43935 1.07000
H 	H 	0.30746 0.66322 0.35713 0.15000
H 	H 	0.30801 0.69497 0.43548 0.15300
C 	C 	0.40562 0.84383 0.41794 0.31100
O 	O 	0.21764 0.47827 0.41000 -0.38800
C 	C 	0.19188 0.75361 0.35636 0.24300
C 	C 	0.46638 0.76952 0.35630 0.24800
C 	C 	0.22636 0.49641 0.38511 0.25100
C 	C 	0.41571 0.56786 0.43227 0.29100
C 	C 	0.13559 0.55763 0.43599 0.30500
O 	O 	0.42864 0.78650 0.41671 -0.37200
O 	O 	0.44162 0.82417 0.36221 -0.40000
Ni	Ni	0.36801 0.67521 0.00224 1.09900
O 	O 	0.28198 0.66363 0.98139 -0.70200
Ni	Ni	0.22662 0.68753 0.00948 1.09700
O 	O 	0.40307 0.62083 0.97385 -0.37500
O 	O 	0.30780 0.51295 0.97328 -0.41400
O 	O 	0.42280 0.77647 0.98332 -0.35900
Ni	Ni	0.23372 0.55975 0.96548 1.06900
O 	O 	0.46046 0.81574 0.03702 -0.40700
O 	O 	0.17814 0.49142 0.99491 -0.39000
O 	O 	0.13467 0.65707 0.98983 -0.37600
O 	O 	0.31657 0.70937 0.02926 -0.70200
O 	O 	0.45045 0.69083 0.02548 -0.37000
O 	O 	0.19030 0.73305 0.04035 -0.36600
O 	O 	0.28007 0.84762 0.04030 -0.40200
Ni	Ni	0.36557 0.81922 0.03784 1.06400
H 	H 	0.29086 0.70335 0.96752 0.15800
H 	H 	0.31182 0.67788 0.04535 0.15300
C 	C 	0.15791 0.51735 0.01621 0.26900
O 	O 	0.36751 0.85162 0.99960 -0.42100
C 	C 	0.37032 0.54822 0.96650 0.29800
C 	C 	0.11403 0.60226 0.97093 0.30900
C 	C 	0.41075 0.84179 0.98353 0.31000
C 	C 	0.22449 0.80233 0.05097 0.24900
C 	C 	0.47512 0.75253 0.04133 0.25600
O 	O 	0.19596 0.58279 0.02794 -0.39000
O 	O 	0.15637 0.59239 0.95396 -0.41800
Ni	Ni	0.94207 0.02223 0.23417 1.09900
O 	O 	0.93466 0.10083 0.20715 -0.70100
Ni	Ni	0.90090 0.03231 0.17485 1.09600
O 	O 	0.00629 0.10444 0.25955 -0.37400
O 	O 	0.07794 0.15653 0.22635 -0.41000
O 	O 	0.86383 0.03237 0.25528 -0.36600
Ni	Ni	0.01788 0.18593 0.19861 1.06600
O 	O 	0.83106 0.86644 0.25139 -0.40300
O 	O 	0.06291 0.14825 0.16825 -0.39200
O 	O 	0.91174 0.11352 0.14549 -0.37500
O 	O 	0.89767 0.95244 0.20331 -0.69600
O 	O 	0.94333 0.93679 0.25897 -0.37100
O 	O 	0.85527 0.94461 0.14761 -0.36300
O 	O 	0.76875 0.88620 0.17489 -0.40700
Ni	Ni	0.80844 0.88492 0.21287 1.06500
H 	H 	0.90056 0.12272 0.21234 0.15600
H 	H 	0.92429 0.92014 0.19854 0.15500
C 	C 	0.03910 0.07896 0.15659 0.28000
O 	O 	0.78229 0.97655 0.22350 -0.41200
C 	C 	0.06432 0.15217 0.25164 0.24900
C 	C 	0.94747 0.18932 0.14804 0.26600
C 	C 	0.80075 0.01030 0.24683 0.26300
C 	C 	0.80220 0.88414 0.15351 0.24800
C 	C 	0.89121 0.87117 0.26048 0.25100
O 	O 	0.99001 0.02263 0.16668 -0.40100
O 	O 	0.96563 0.22356 0.17158 -0.41700
C 	C 	0.03788 0.42032 0.06389 0.07600
C 	C 	0.02696 0.41638 0.09123 -0.08200
C 	C 	0.01870 0.34589 0.10363 0.00500
C 	C 	0.01882 0.28104 0.08942 0.07500
C 	C 	0.02942 0.28444 0.06210 -0.08200
C 	C 	0.03815 0.35518 0.04955 0.01300
N 	N 	0.07581 0.48618 0.05214 -0.15200
C 	C 	0.10084 0.46380 0.03050 0.00200
C 	C 	0.07874 0.38283 0.02820 -0.04300
N 	N 	0.98302 0.21531 0.10178 -0.15000
C 	C 	0.96118 0.23775 0.12429 0.00000
C 	C 	0.98081 0.31875 0.12557 -0.04300
H 	H 	0.02640 0.46672 0.10244 0.05000
H 	H 	0.03018 0.23399 0.05101 0.05500
H 	H 	0.10521 0.35090 0.01805 0.05100
H 	H 	0.97993 0.35352 0.14291 0.04300
H 	H 	0.09745 0.54038 0.06186 0.09200
H 	H 	0.98633 0.16065 0.09827 0.09000
C 	C 	0.72960 0.78099 0.09445 0.07400
C 	C 	0.70432 0.79642 0.07011 -0.08200
C 	C 	0.63628 0.75728 0.06371 0.01000
C 	C 	0.59324 0.71041 0.08198 0.07800
C 	C 	0.61749 0.69956 0.10707 -0.08600
C 	C 	0.68675 0.73219 0.11249 0.01200
N 	N 	0.78211 0.83442 0.10739 -0.15100
C 	C 	0.77260 0.82178 0.13349 -0.00300
C 	C 	0.71438 0.75824 0.13741 -0.05400
N 	N 	0.53102 0.71085 0.07779 -0.15300
C 	C 	0.53409 0.75966 0.05775 -0.00600
C 	C 	0.59823 0.78794 0.04806 -0.03300
H 	H 	0.73495 0.84305 0.05791 0.05400
H 	H 	0.58316 0.67357 0.12265 0.04800
H 	H 	0.68560 0.74967 0.15521 0.03600
H 	H 	0.61784 0.83871 0.03586 0.04800
H 	H 	0.81049 0.88832 0.09962 0.09300
H 	H 	0.49255 0.69303 0.09132 0.06900
C 	C 	0.19240 0.93879 0.09227 0.07200
C 	C 	0.19767 0.98073 0.11617 -0.07700
C 	C 	0.14004 0.99222 0.12467 0.00800
C 	C 	0.08123 0.96721 0.10953 0.08200
C 	C 	0.07597 0.92682 0.08541 -0.08600
C 	C 	0.13295 0.91327 0.07708 0.01400
N 	N 	0.22733 0.89221 0.08781 -0.15300
C 	C 	0.19161 0.83766 0.06956 -0.00100
C 	C 	0.13157 0.84765 0.06309 -0.04300
N 	N 	0.04346 0.00929 0.11554 -0.15800
C 	C 	0.07644 0.05943 0.13551 -0.00400
C 	C 	0.13863 0.05282 0.14076 -0.04400
H 	H 	0.24377 0.00061 0.12808 0.04500
H 	H 	0.02945 0.90625 0.07376 0.05400
H 	H 	0.09980 0.82296 0.04575 0.05000
H 	H 	0.16850 0.07234 0.15889 0.04400
H 	H 	0.27806 0.90598 0.09286 0.06600
H 	H 	0.99206 0.99191 0.11110 0.09500
C 	C 	0.57206 0.84272 0.30251 0.07200
C 	C 	0.58434 0.89568 0.28179 -0.08500
C 	C 	0.64710 0.95640 0.28156 0.00800
C 	C 	0.69548 0.96461 0.30152 0.07700
C 	C 	0.68217 0.91257 0.32261 -0.08300
C 	C 	0.62071 0.84991 0.32211 0.01100
N 	N 	0.51054 0.80480 0.31167 -0.15500
C 	C 	0.51965 0.78706 0.33704 0.00000
C 	C 	0.58746 0.81478 0.34433 -0.04000
N 	N 	0.75724 0.99770 0.29194 -0.14800
C 	C 	0.74917 0.00902 0.26584 -0.01000
C 	C 	0.68120 0.98456 0.25875 -0.04200
H 	H 	0.54675 0.88939 0.26626 0.04700
H 	H 	0.71962 0.91868 0.33819 0.05600
H 	H 	0.60687 0.83010 0.36447 0.05400
H 	H 	0.66079 0.96572 0.23892 0.04300
H 	H 	0.46660 0.81054 0.30409 0.06400
H 	H 	0.80002 0.99090 0.30032 0.09700
C 	C 	0.23535 0.39042 0.32752 0.07400
C 	C 	0.21211 0.38133 0.30096 -0.08100
C 	C 	0.16114 0.31132 0.29336 0.00600
C 	C 	0.13743 0.25071 0.31066 0.07900
C 	C 	0.16279 0.25739 0.33671 -0.08400
C 	C 	0.21197 0.32864 0.34497 0.01300
N 	N 	0.25233 0.45885 0.34086 -0.15300
C 	C 	0.23910 0.44174 0.36652 -0.00400
C 	C 	0.21471 0.36161 0.36989 -0.04000
N 	N 	0.11023 0.18268 0.29726 -0.15200
C 	C 	0.11451 0.19964 0.27121 -0.00200
C 	C 	0.14866 0.27922 0.26809 -0.04800
H 	H 	0.23031 0.42868 0.28727 0.04600
H 	H 	0.14380 0.20981 0.35028 0.05500
H 	H 	0.18267 0.33282 0.38580 0.05300
H 	H 	0.14726 0.31116 0.25034 0.02500
H 	H 	0.25400 0.51099 0.33227 0.07600
H 	H 	0.07817 0.13091 0.30523 0.09300
C 	C 	0.06616 0.81659 0.32843 0.07900
C 	C 	0.00642 0.82899 0.33301 -0.08600
C 	C 	0.95215 0.79584 0.31493 0.01800
C 	C 	0.95690 0.74904 0.29367 0.07900
C 	C 	0.01464 0.73015 0.29095 -0.08800
C 	C 	0.06998 0.76803 0.30786 0.01400
N 	N 	0.11235 0.82110 0.34758 -0.15200
C 	C 	0.14512 0.77481 0.33930 0.00700
C 	C 	0.11990 0.73991 0.31484 -0.05700
N 	N 	0.92171 0.75952 0.27251 -0.15500
C 	C 	0.89592 0.81391 0.27959 0.00100
C 	C 	0.91205 0.83564 0.30607 -0.04200
H 	H 	0.00330 0.86644 0.34924 0.05600
H 	H 	0.01812 0.69250 0.27485 0.04900
H 	H 	0.12280 0.68552 0.30760 0.04400
H 	H 	0.91492 0.89153 0.31434 0.05400
H 	H 	0.10916 0.83610 0.36739 0.09100
H 	H 	0.93217 0.74965 0.25297 0.07000
C 	C 	0.53409 0.05053 0.45906 -0.10700
C 	C 	0.50829 0.05561 0.43363 -0.06000
C 	C 	0.46447 0.98863 0.42036 0.17500
C 	C 	0.44508 0.91587 0.43276 -0.10700
C 	C 	0.46998 0.91106 0.45835 -0.05800
C 	C 	0.51365 0.97793 0.47164 0.17500
H 	H 	0.52286 0.11136 0.42399 0.06100
O 	O 	0.44107 0.99430 0.39522 -0.29800
H 	H 	0.45556 0.85526 0.46795 0.05700
O 	O 	0.53645 0.97217 0.49687 -0.30400
H 	H 	0.50254 0.97907 0.50867 0.13700
H 	H 	0.47450 0.98696 0.38326 0.14400
C 	C 	0.93347 0.41970 0.45689 -0.10000
C 	C 	0.94836 0.44037 0.43045 -0.05700
C 	C 	0.01438 0.48260 0.42340 0.16200
C 	C 	0.06640 0.50737 0.44300 -0.09800
C 	C 	0.05219 0.48368 0.46920 -0.06600
C 	C 	0.98634 0.43986 0.47619 0.16900
H 	H 	0.90881 0.42326 0.41524 0.06300
O 	O 	0.02779 0.49987 0.39733 -0.27400
H 	H 	0.09190 0.50018 0.48434 0.06200
O 	O 	0.97425 0.41546 0.50172 -0.27700
H 	H 	0.97133 0.46076 0.51171 0.15000
H 	H 	0.03884 0.45585 0.38994 0.15100
C 	C 	0.46421 0.53373 0.44249 -0.10400
C 	C 	0.52727 0.55310 0.43112 -0.05700
C 	C 	0.57129 0.51592 0.43917 0.16500
C 	C 	0.55272 0.45959 0.45898 -0.10100
C 	C 	0.49076 0.44245 0.47101 -0.05900
C 	C 	0.44683 0.47961 0.46300 0.16700
H 	H 	0.54142 0.59528 0.41550 0.06800
O 	O 	0.63212 0.53430 0.42751 -0.29400
H 	H 	0.47648 0.39996 0.48654 0.06800
O 	O 	0.38643 0.46196 0.47496 -0.30000
H 	H 	0.39519 0.49957 0.49008 0.13200
H 	H 	0.62377 0.49809 0.41200 0.13400
C 	C 	0.83484 0.03476 0.63236 0.07700
C 	C 	0.77542 0.04020 0.62200 -0.08500
C 	C 	0.77949 0.10994 0.60972 0.01300
C 	C 	0.84078 0.17197 0.60824 0.07300
C 	C 	0.89936 0.16703 0.62000 -0.08400
C 	C 	0.89491 0.09630 0.63125 0.01400
N 	N 	0.83757 0.98599 0.65159 -0.15000
C 	C 	0.90074 0.01500 0.66229 -0.00500
C 	C 	0.93658 0.08620 0.65090 -0.04900
N 	N 	0.84153 0.21226 0.58607 -0.15000
C 	C 	0.78187 0.17622 0.57328 -0.01200
C 	C 	0.74193 0.11282 0.58739 -0.06000
H 	H 	0.72830 0.99150 0.62271 0.05100
H 	H 	0.94702 0.21482 0.61907 0.05200
H 	H 	0.99067 0.11413 0.65159 0.03700
H 	H 	0.70224 0.06279 0.57858 0.03200
H 	H 	0.80552 0.92776 0.65240 0.08300
H 	H 	0.88524 0.24594 0.57674 0.09400
C 	C 	0.34691 0.13383 0.62814 0.07300
C 	C 	0.40216 0.19093 0.61693 -0.08300
C 	C 	0.42817 0.16949 0.59417 0.00600
C 	C 	0.39454 0.09949 0.58080 0.07200
C 	C 	0.33386 0.04726 0.58989 -0.08200
C 	C 	0.31377 0.06295 0.61485 0.01100
N 	N 	0.30471 0.15096 0.64426 -0.15200
C 	C 	0.24436 0.09310 0.64073 0.00200
C 	C 	0.24834 0.03686 0.62294 -0.04600
N 	N 	0.41080 0.10493 0.55523 -0.15200
C 	C 	0.45651 0.17744 0.55216 0.00300
C 	C 	0.46618 0.22038 0.57583 -0.05200
H 	H 	0.42147 0.25031 0.62470 0.04900
H 	H 	0.30191 0.99912 0.57747 0.05300
H 	H 	0.20604 0.99328 0.61269 0.05200
H 	H 	0.50865 0.27300 0.58071 0.03500
H 	H 	0.31221 0.20619 0.65234 0.07400
H 	H 	0.40270 0.05736 0.54230 0.08800
C 	C 	0.92947 0.55694 0.56511 0.07500
C 	C 	0.93289 0.56710 0.59276 -0.08400
C 	C 	0.94191 0.64119 0.60309 0.01200
C 	C 	0.95161 0.70394 0.58674 0.07900
C 	C 	0.94939 0.69473 0.55917 -0.08300
C 	C 	0.93824 0.62005 0.54860 0.01200
N 	N 	0.88969 0.49050 0.55291 -0.15100
C 	C 	0.87190 0.51055 0.52903 -0.00500
C 	C 	0.90119 0.59035 0.52552 -0.04400
N 	N 	0.98757 0.77075 0.59963 -0.15200
C 	C 	0.99934 0.75151 0.62453 0.01300
C 	C 	0.97335 0.67100 0.62709 -0.05600
H 	H 	0.92614 0.51839 0.60566 0.05000
H 	H 	0.95603 0.74372 0.54641 0.05700
H 	H 	0.88089 0.62340 0.51249 0.05400
H 	H 	0.96352 0.64054 0.64563 0.03000
H 	H 	0.86212 0.43989 0.56277 0.09400
H 	H 	0.99009 0.82615 0.59386 0.09600
C 	C 	0.90634 0.47147 0.95393 -0.10500
C 	C 	0.92678 0.55094 0.96093 -0.05900
C 	C 	0.99430 0.59391 0.96738 0.17700
C 	C 	0.04187 0.55717 0.96681 -0.11100
C 	C 	0.02067 0.47685 0.96112 -0.06200
C 	C 	0.95339 0.43417 0.95448 0.17400
H 	H 	0.89076 0.58006 0.96045 0.05700
O 	O 	0.01416 0.67252 0.97261 -0.28600
H 	H 	0.05666 0.44769 0.96142 0.05300
O 	O 	0.93342 0.35560 0.94909 -0.29200
H 	H 	0.93987 0.35097 0.92986 0.15400
H 	H 	0.00943 0.67744 0.99196 0.15300
C 	C 	0.45325 0.90865 0.96842 -0.10800
C 	C 	0.42375 0.95425 0.95452 -0.05900
C 	C 	0.46375 0.02357 0.94293 0.16600
C 	C 	0.53427 0.04783 0.94509 -0.10900
C 	C 	0.56384 0.00078 0.95816 -0.06400
C 	C 	0.52373 0.93185 0.97006 0.16900
H 	H 	0.36963 0.93639 0.95293 0.05900
O 	O 	0.43386 0.06585 0.92858 -0.27900
H 	H 	0.61794 0.01848 0.95967 0.06200
O 	O 	0.55352 0.88772 0.98346 -0.27400
H 	H 	0.56116 0.90917 0.00186 0.14700
H 	H 	0.42483 0.10127 0.94165 0.15600
C 	C 	0.40811 0.50255 0.95567 -0.10800
C 	C 	0.41047 0.43740 0.96921 -0.05900
C 	C 	0.45709 0.40335 0.96251 0.16600
C 	C 	0.50180 0.43452 0.94202 -0.10600
C 	C 	0.49703 0.49714 0.92760 -0.06200
C 	C 	0.45062 0.53131 0.93439 0.17100
H 	H 	0.37824 0.41529 0.98574 0.06200
O 	O 	0.46165 0.34278 0.97706 -0.29100
H 	H 	0.52960 0.51970 0.91120 0.06300
O 	O 	0.44614 0.59217 0.91997 -0.29800
H 	H 	0.47983 0.63977 0.92829 0.16100
H 	H 	0.42925 0.29494 0.96837 0.15700
C 	C 	0.99516 0.21779 0.80149 0.07500
C 	C 	0.93970 0.24166 0.79990 -0.08400
C 	C 	0.88443 0.20268 0.81521 0.01100
C 	C 	0.88532 0.14467 0.83243 0.07500
C 	C 	0.94211 0.12398 0.83519 -0.08500
C 	C 	0.99712 0.16169 0.81950 0.01500
N 	N 	0.03183 0.21616 0.78036 -0.15400
C 	C 	0.05678 0.15911 0.78456 0.00400
C 	C 	0.03685 0.12474 0.80881 -0.04900
N 	N 	0.84289 0.13904 0.85214 -0.15300
C 	C 	0.81584 0.19404 0.84779 -0.00300
C 	C 	0.84060 0.23535 0.82515 -0.05300
H 	H 	0.93850 0.28640 0.78635 0.05100
H 	H 	0.94310 0.07922 0.84877 0.05400
H 	H 	0.03288 0.06585 0.81348 0.05600
H 	H 	0.84271 0.29415 0.82148 0.05000
H 	H 	0.02363 0.23502 0.76158 0.08100
H 	H 	0.84663 0.11595 0.87068 0.08800
C 	C 	0.31381 0.98570 0.78700 0.07500
C 	C 	0.31994 0.98789 0.81479 -0.08300
C 	C 	0.35950 0.05824 0.82722 0.01300
C 	C 	0.39838 0.12092 0.81278 0.07700
C 	C 	0.39960 0.11550 0.78521 -0.08600
C 	C 	0.35489 0.04797 0.77237 0.01100
N 	N 	0.25399 0.95214 0.77429 -0.15000
C 	C 	0.25490 0.99367 0.75233 -0.00400
C 	C 	0.31775 0.05120 0.74996 -0.04300
N 	N 	0.44992 0.16817 0.82786 -0.15500
C 	C 	0.44404 0.13526 0.85184 0.00200
C 	C 	0.38895 0.06622 0.85224 -0.04000
H 	H 	0.28958 0.93918 0.82625 0.05400
H 	H 	0.43077 0.16428 0.77397 0.04900
H 	H 	0.32647 0.10393 0.73888 0.04400
H 	H 	0.38420 0.01855 0.86540 0.05700
H 	H 	0.21004 0.92071 0.78392 0.09300
H 	H 	0.49488 0.20625 0.82053 0.06700
C 	C 	0.77559 0.59564 0.82965 0.07500
C 	C 	0.79541 0.59533 0.80336 -0.08400
C 	C 	0.85789 0.64959 0.79672 0.01200
C 	C 	0.89838 0.70351 0.81530 0.07700
C 	C 	0.87760 0.70543 0.84132 -0.08200
C 	C 	0.81503 0.65136 0.84803 0.01200
N 	N 	0.73859 0.53043 0.84202 -0.15200
C 	C 	0.75396 0.54413 0.86820 0.00000
C 	C 	0.80118 0.61865 0.87269 -0.04200
N 	N 	0.93874 0.76721 0.80317 -0.15100
C 	C 	0.92346 0.75477 0.77699 0.00200
C 	C 	0.87323 0.68248 0.77209 -0.05600
H 	H 	0.76423 0.55306 0.78888 0.04800
H 	H 	0.90888 0.74768 0.85580 0.05600
H 	H 	0.83583 0.63540 0.88965 0.05500
H 	H 	0.83958 0.66756 0.75483 0.03500
H 	H 	0.71968 0.47495 0.83302 0.08500
H 	H 	0.96066 0.82233 0.81226 0.09400
