data_crystal

_cell_length_a 39.66258
_cell_length_b 38.19001
_cell_length_c 26.60165
_cell_angle_alpha 89.95060
_cell_angle_beta  89.94017
_cell_angle_gamma 90.60930

_symmetry_space_group_name_	'P 1'
_symmetry_space_group_name_H-M	'P 1'

loop_
_symmetry_equiv_pos_as_xyz
  x,y,z

loop_
_atom_site_label
_atom_site_type_symbol
_atom_site_fract_x
_atom_site_fract_y
_atom_site_fract_z
_atom_site_charge
Zn	Zn	0.47925 0.47332 0.00979 1.22200
C 	C 	0.49910 0.54559 0.99810 0.33100
O 	O 	0.50630 0.46082 0.06857 -0.47800
O 	O 	0.47380 0.55124 0.02883 -0.45800
O 	O 	0.51688 0.51426 0.10131 -0.49600
C 	C 	0.41472 0.49948 0.03489 0.33900
O 	O 	0.43530 0.49355 0.99732 -0.44600
O 	O 	0.42639 0.50072 0.08102 -0.50900
C 	C 	0.52771 0.48354 0.08729 0.33600
O 	O 	0.45023 0.41991 0.01698 -0.33100
Zn	Zn	0.46904 0.52457 0.09595 1.17000
O 	O 	0.50684 0.51332 0.98522 -0.43100
C 	C 	0.46840 0.40942 0.97956 0.29300
O 	O 	0.48936 0.43258 0.96161 -0.38100
Zn	Zn	0.41823 0.06286 0.01714 1.22200
C 	C 	0.44391 0.05781 0.11907 0.34000
O 	O 	0.36922 0.05222 0.01726 -0.45300
O 	O 	0.43360 0.08963 0.12861 -0.45600
O 	O 	0.36588 0.06080 0.10130 -0.49700
C 	C 	0.43208 0.13629 0.02907 0.34000
O 	O 	0.44606 0.10569 0.02128 -0.45400
O 	O 	0.40251 0.13830 0.05088 -0.51700
C 	C 	0.35178 0.05074 0.05924 0.32700
O 	O 	0.41726 0.07208 0.92865 -0.31800
Zn	Zn	0.38758 0.10620 0.10276 1.17300
O 	O 	0.43141 0.04035 0.08078 -0.44000
C 	C 	0.43226 0.04203 0.92658 0.26800
O 	O 	0.43813 0.02734 0.96937 -0.38200
C 	C 	0.54597 0.95254 0.32922 0.13900
C 	C 	0.52545 0.97509 0.30136 -0.10000
H 	H 	0.50930 0.99342 0.32069 0.06700
C 	C 	0.52612 0.97417 0.24866 0.03600
C 	C 	0.54697 0.95029 0.22391 -0.08700
C 	C 	0.56746 0.92769 0.25163 0.06700
C 	C 	0.56708 0.92895 0.30431 -0.11200
H 	H 	0.58314 0.91176 0.32587 0.07100
N 	N 	0.54560 0.95388 0.38325 -0.17900
C 	C 	0.52565 0.93068 0.40958 0.19000
C 	C 	0.52450 0.93200 0.46247 -0.06100
C 	C 	0.54388 0.95737 0.48791 0.03000
C 	C 	0.56422 0.98090 0.46046 -0.06000
C 	C 	0.56489 0.97862 0.40762 0.19100
C 	C 	0.50425 0.90840 0.49018 -0.01400
C 	C 	0.50339 0.91014 0.54269 -0.01400
C 	C 	0.52275 0.93554 0.56837 -0.06100
C 	C 	0.54292 0.95921 0.54091 0.03000
C 	C 	0.56219 0.98468 0.56634 -0.06000
C 	C 	0.58349 0.00637 0.48614 -0.01500
C 	C 	0.58245 0.00827 0.53863 -0.01500
C 	C 	0.52237 0.93756 0.62123 0.19000
N 	N 	0.54145 0.96248 0.64559 -0.18000
C 	C 	0.56097 0.98605 0.61923 0.19100
C 	C 	0.54148 0.96344 0.69963 0.14700
C 	C 	0.51574 0.98084 0.72549 -0.11900
C 	C 	0.51477 0.98016 0.77818 0.07700
C 	C 	0.53975 0.96234 0.80495 -0.10600
C 	C 	0.56550 0.94498 0.77924 0.07700
C 	C 	0.56658 0.94590 0.72657 -0.12000
O 	O 	0.58413 0.00031 0.38144 -0.20500
O 	O 	0.50737 0.90719 0.38523 -0.20600
O 	O 	0.50380 0.91527 0.64747 -0.20700
O 	O 	0.57871 0.01000 0.64354 -0.20300
H 	H 	0.58642 0.93247 0.70655 0.07400
H 	H 	0.49631 0.99427 0.70462 0.07400
H 	H 	0.59928 0.02476 0.46559 0.04900
H 	H 	0.59748 0.02807 0.55760 0.04900
H 	H 	0.48915 0.88866 0.47121 0.04700
H 	H 	0.48766 0.89171 0.56324 0.04800
H 	H 	0.53896 0.96170 0.84570 0.06600
H 	H 	0.54744 0.94946 0.18316 0.05900
Zn	Zn	0.66857 0.85371 0.00865 1.22000
C 	C 	0.64903 0.85212 0.11363 0.31000
O 	O 	0.71712 0.86572 0.00691 -0.46400
O 	O 	0.65916 0.81951 0.11583 -0.44700
O 	O 	0.72655 0.84868 0.08764 -0.49900
C 	C 	0.65298 0.78027 0.01062 0.34200
O 	O 	0.63983 0.81166 0.01040 -0.45500
O 	O 	0.68391 0.77585 0.02632 -0.51700
C 	C 	0.73495 0.86764 0.04843 0.33000
O 	O 	0.66692 0.84917 0.91967 -0.32000
Zn	Zn	0.70287 0.80441 0.07986 1.17000
O 	O 	0.65793 0.87216 0.07563 -0.43600
C 	C 	0.65170 0.87909 0.92162 0.26800
O 	O 	0.64706 0.89156 0.96621 -0.38000
Zn	Zn	0.10336 0.63545 0.95774 1.22200
C 	C 	0.09430 0.61854 0.06312 0.31000
O 	O 	0.09284 0.68558 0.94856 -0.46400
O 	O 	0.12485 0.63055 0.07203 -0.44800
O 	O 	0.09938 0.69784 0.03145 -0.50100
C 	C 	0.17253 0.62104 0.97921 0.34200
O 	O 	0.14287 0.60660 0.97120 -0.45200
O 	O 	0.17488 0.65417 0.99146 -0.51700
C 	C 	0.08757 0.70620 0.98716 0.33200
O 	O 	0.11689 0.63108 0.87101 -0.32900
Zn	Zn	0.14262 0.67520 0.03681 1.17000
O 	O 	0.07890 0.62651 0.02096 -0.43700
C 	C 	0.08851 0.61400 0.86788 0.30000
O 	O 	0.07182 0.61058 0.90936 -0.39200
C 	C 	0.97430 0.53835 0.64437 0.13400
C 	C 	0.00202 0.55385 0.66876 -0.09600
H 	H 	0.02348 0.56300 0.64697 0.06700
C 	C 	0.00196 0.55743 0.72111 0.02900
C 	C 	0.97431 0.54530 0.74912 -0.06800
C 	C 	0.94604 0.53075 0.72486 0.03000
C 	C 	0.94616 0.52712 0.67236 -0.09400
H 	H 	0.92455 0.51573 0.65330 0.06700
N 	N 	0.97487 0.53374 0.59079 -0.17800
C 	C 	0.99126 0.50552 0.57072 0.19100
C 	C 	0.99401 0.50177 0.51825 -0.06000
C 	C 	0.97925 0.52684 0.48674 0.03100
C 	C 	0.96182 0.55511 0.50785 -0.06100
C 	C 	0.95988 0.55815 0.56050 0.19000
C 	C 	0.01152 0.47354 0.49692 -0.01400
C 	C 	0.01444 0.47055 0.44471 -0.01600
C 	C 	0.99979 0.49567 0.41296 -0.05700
C 	C 	0.98205 0.52373 0.43406 0.02900
C 	C 	0.96719 0.54874 0.40255 -0.06100
C 	C 	0.94687 0.58002 0.47610 -0.01400
C 	C 	0.94951 0.57685 0.42388 -0.01400
C 	C 	0.00261 0.49322 0.36033 0.18600
N 	N 	0.98788 0.51779 0.33003 -0.17800
C 	C 	0.97029 0.54522 0.35010 0.19000
C 	C 	0.99060 0.51457 0.27639 0.14000
C 	C 	0.01491 0.53428 0.25011 -0.11400
C 	C 	0.01637 0.53263 0.19752 0.06400
C 	C 	0.99384 0.51083 0.17137 -0.08600
C 	C 	0.96905 0.49166 0.19743 0.03600
C 	C 	0.96768 0.49329 0.25002 -0.10100
O 	O 	0.94395 0.58477 0.58080 -0.20300
O 	O 	0.00467 0.48198 0.60072 -0.20400
O 	O 	0.01952 0.46726 0.34005 -0.20400
O 	O 	0.95615 0.56829 0.32008 -0.20600
H 	H 	0.94831 0.47886 0.27032 0.06800
H 	H 	0.03199 0.55145 0.27046 0.07100
H 	H 	0.93323 0.60191 0.49170 0.04800
H 	H 	0.93786 0.59635 0.40016 0.04700
H 	H 	0.02302 0.45394 0.52064 0.04900
H 	H 	0.02810 0.44868 0.42910 0.04900
H 	H 	0.99449 0.51017 0.13061 0.05700
H 	H 	0.97467 0.54748 0.78977 0.05200
Zn	Zn	0.85236 0.42363 0.95513 1.22200
C 	C 	0.79165 0.45867 0.98754 0.33500
O 	O 	0.86702 0.44440 0.89053 -0.45200
O 	O 	0.81114 0.48269 0.00794 -0.45500
O 	O 	0.83785 0.49407 0.90404 -0.48600
C 	C 	0.88228 0.45549 0.04240 0.34600
O 	O 	0.86143 0.43085 0.02686 -0.45700
O 	O 	0.88759 0.48356 0.01494 -0.50900
C 	C 	0.85766 0.47553 0.87540 0.32800
O 	O 	0.90158 0.38952 0.95311 -0.33000
Zn	Zn	0.85289 0.50277 0.97199 1.17600
O 	O 	0.80405 0.43597 0.95542 -0.43200
C 	C 	0.88149 0.36359 0.94251 0.29200
O 	O 	0.84977 0.37107 0.94058 -0.38200
Zn	Zn	0.01221 0.04956 0.03521 1.22100
C 	C 	0.03363 0.97825 0.02499 0.33300
O 	O 	0.97536 0.04368 0.08426 -0.47000
O 	O 	0.05384 0.98591 0.06266 -0.45600
O 	O 	0.99215 0.99371 0.12233 -0.49700
C 	C 	0.07864 0.06016 0.07387 0.34600
O 	O 	0.06094 0.05653 0.03265 -0.44900
O 	O 	0.06432 0.05409 0.11743 -0.51500
C 	C 	0.96812 0.01296 0.10368 0.33400
O 	O 	0.00872 0.11050 0.04428 -0.33000
Zn	Zn	0.03795 0.01141 0.12666 1.16900
O 	O 	0.01204 0.00147 0.00808 -0.43600
C 	C 	0.99371 0.11013 0.00108 0.28800
O 	O 	0.98974 0.07949 0.98076 -0.37800
C 	C 	0.93348 0.21610 0.01591 -0.07900
C 	C 	0.94612 0.20155 0.96485 0.03000
C 	C 	0.89945 0.23571 0.92136 -0.07800
C 	C 	0.91865 0.26375 0.95285 0.02900
C 	C 	0.91739 0.25255 0.00887 -0.07800
H 	H 	0.91457 0.19778 0.03272 0.04600
H 	H 	0.95483 0.21830 0.04294 0.04700
C 	C 	0.96195 0.16723 0.97302 0.02100
H 	H 	0.90003 0.24300 0.88083 0.04600
H 	H 	0.87250 0.23448 0.93302 0.04700
C 	C 	0.90382 0.29878 0.94708 0.02200
H 	H 	0.89079 0.25163 0.02229 0.04600
H 	H 	0.93108 0.27210 0.03250 0.04500
C 	C 	0.95605 0.26445 0.93563 -0.07700
H 	H 	0.97058 0.28425 0.95768 0.04700
H 	H 	0.95776 0.27228 0.89537 0.04600
C 	C 	0.97217 0.22794 0.94266 -0.07800
H 	H 	0.98157 0.21832 0.90577 0.04600
H 	H 	0.99438 0.23037 0.96805 0.04700
C 	C 	0.91564 0.19907 0.92842 -0.07800
H 	H 	0.92396 0.18887 0.89129 0.04600
H 	H 	0.89642 0.18036 0.94347 0.04600
C 	C 	0.97596 0.14033 0.98357 -0.08400
C 	C 	0.89293 0.32809 0.94421 -0.08800
C 	C 	0.91646 0.51938 0.75491 0.04200
C 	C 	0.90522 0.48449 0.75303 -0.08200
C 	C 	0.88393 0.47124 0.79060 0.04600
C 	C 	0.87521 0.49211 0.83208 -0.14500
C 	C 	0.88608 0.52775 0.83327 0.13400
C 	C 	0.90370 0.54167 0.79200 -0.11400
H 	H 	0.87562 0.44415 0.78881 0.03200
H 	H 	0.91128 0.56905 0.79220 0.06000
H 	H 	0.91421 0.46717 0.72381 0.05600
N 	N 	0.88293 0.54746 0.87549 -0.19400
H 	H 	0.88324 0.53592 0.91099 -0.00300
H 	H 	0.88575 0.57467 0.87355 0.07100
C 	C 	0.94221 0.47352 0.16915 0.04300
C 	C 	0.90996 0.48805 0.16692 -0.08600
C 	C 	0.88764 0.47797 0.12891 0.04700
C 	C 	0.89749 0.45347 0.09265 -0.15200
C 	C 	0.92759 0.43461 0.10000 0.15300
C 	C 	0.95026 0.44543 0.13760 -0.12100
H 	H 	0.86397 0.49160 0.12483 0.01300
H 	H 	0.97459 0.43297 0.14098 0.06300
H 	H 	0.90319 0.50910 0.19215 0.05300
N 	N 	0.93486 0.40641 0.07104 -0.21100
H 	H 	0.91677 0.39543 0.04721 0.10600
H 	H 	0.95801 0.39383 0.07458 0.08900
C 	C 	0.04864 0.82368 0.92690 -0.07600
C 	C 	0.05747 0.80824 0.97927 0.02200
C 	C 	0.08016 0.86818 0.00501 -0.07900
C 	C 	0.04373 0.87553 0.98695 0.02500
C 	C 	0.04052 0.86343 0.93143 -0.07700
H 	H 	0.07013 0.82013 0.90051 0.04200
H 	H 	0.02653 0.80948 0.91075 0.04300
C 	C 	0.06600 0.77082 0.97696 0.03000
H 	H 	0.08331 0.87654 0.04486 0.03800
H 	H 	0.09862 0.88361 0.98221 0.04300
C 	C 	0.03705 0.91312 0.99359 0.03200
H 	H 	0.05815 0.87883 0.90723 0.04400
H 	H 	0.01453 0.86822 0.91749 0.04400
C 	C 	0.01891 0.85336 0.01938 -0.07900
H 	H 	0.99251 0.85793 0.00702 0.04300
H 	H 	0.02063 0.86142 0.05953 0.03900
C 	C 	0.02699 0.81384 0.01488 -0.07600
H 	H 	0.03255 0.80311 0.05288 0.04000
H 	H 	0.00445 0.79948 0.00036 0.04100
C 	C 	0.08819 0.82882 0.00053 -0.07700
H 	H 	0.09514 0.81846 0.03824 0.03500
H 	H 	0.11048 0.82543 0.97558 0.03800
C 	C 	0.07493 0.74081 0.97948 -0.12500
C 	C 	0.03410 0.94349 0.00485 -0.11500
C 	C 	0.03030 0.57482 0.74693 0.04200
C 	C 	0.05643 0.55472 0.76682 -0.08000
C 	C 	0.07816 0.56905 0.80281 0.04000
C 	C 	0.07384 0.60355 0.81944 -0.13000
C 	C 	0.04997 0.62512 0.79526 0.14600
C 	C 	0.02814 0.61040 0.75926 -0.11700
H 	H 	0.09686 0.55256 0.82037 0.02600
H 	H 	0.00849 0.62619 0.74269 0.06300
H 	H 	0.05857 0.52734 0.75677 0.05500
N 	N 	0.04752 0.65964 0.80707 -0.20800
H 	H 	0.06453 0.67166 0.83171 0.10000
H 	H 	0.02908 0.67512 0.79031 0.08600
C 	C 	0.07613 0.59861 0.10206 -0.06600
C 	C 	0.04331 0.60801 0.11544 -0.00700
C 	C 	0.02478 0.58745 0.14913 -0.03200
C 	C 	0.03860 0.55686 0.16932 -0.04600
C 	C 	0.07234 0.54795 0.15766 0.08400
C 	C 	0.09093 0.56917 0.12414 -0.04800
H 	H 	0.99912 0.59461 0.15823 0.04100
H 	H 	0.11652 0.56220 0.11422 0.04900
H 	H 	0.03193 0.63106 0.09913 0.03900
N 	N 	0.08684 0.51909 0.17800 -0.19700
H 	H 	0.07397 0.50321 0.20375 0.09100
H 	H 	0.11156 0.51249 0.16857 0.08300
C 	C 	0.85176 0.90523 0.05209 -0.07600
C 	C 	0.82060 0.92807 0.06371 0.02200
C 	C 	0.85583 0.96119 0.12876 -0.07600
C 	C 	0.87690 0.96387 0.07974 0.02200
C 	C 	0.88480 0.92623 0.06151 -0.07600
H 	H 	0.85146 0.88137 0.07618 0.03800
H 	H 	0.85104 0.89629 0.01227 0.04100
C 	C 	0.78938 0.90762 0.05549 0.03100
H 	H 	0.84962 0.98786 0.14264 0.04300
H 	H 	0.87069 0.94809 0.15873 0.04100
C 	C 	0.90862 0.98328 0.08880 0.03300
H 	H 	0.90025 0.91237 0.09007 0.04100
H 	H 	0.89987 0.92730 0.02618 0.04400
C 	C 	0.85524 0.98210 0.03898 -0.07400
H 	H 	0.86971 0.98432 0.00322 0.04600
H 	H 	0.84901 0.00917 0.05111 0.04300
C 	C 	0.82209 0.96102 0.02955 -0.07800
H 	H 	0.80004 0.97802 0.03718 0.04600
H 	H 	0.82075 0.95317 0.98930 0.04700
C 	C 	0.82276 0.94016 0.11935 -0.07600
H 	H 	0.80074 0.95678 0.12878 0.04400
H 	H 	0.82185 0.91705 0.14488 0.04100
C 	C 	0.76428 0.88984 0.05088 -0.11700
C 	C 	0.93536 0.99769 0.09600 -0.11500
C 	C 	0.63437 0.89389 0.87782 -0.04200
C 	C 	0.63829 0.92953 0.86658 -0.01500
C 	C 	0.61726 0.94543 0.83147 -0.02100
C 	C 	0.59154 0.92608 0.80784 -0.05200
C 	C 	0.58863 0.88954 0.81694 0.09200
C 	C 	0.61045 0.87369 0.85165 -0.05600
H 	H 	0.61990 0.97327 0.82435 0.04100
H 	H 	0.60768 0.84601 0.86002 0.05500
H 	H 	0.65695 0.94521 0.88635 0.04300
N 	N 	0.56462 0.86979 0.79348 -0.19800
H 	H 	0.54808 0.88066 0.76743 0.09400
H 	H 	0.56244 0.84299 0.80096 0.08600
C 	C 	0.63081 0.86747 0.15618 -0.06500
C 	C 	0.64288 0.89847 0.17819 -0.00700
C 	C 	0.62306 0.91654 0.21266 -0.02900
C 	C 	0.59074 0.90410 0.22516 -0.04600
C 	C 	0.57940 0.87141 0.20597 0.08600
C 	C 	0.59967 0.85333 0.17137 -0.04800
H 	H 	0.63212 0.94124 0.22776 0.04100
H 	H 	0.59067 0.82896 0.15505 0.04800
H 	H 	0.66721 0.90919 0.16727 0.04000
N 	N 	0.54919 0.85745 0.22026 -0.19700
H 	H 	0.53434 0.86943 0.24760 0.09300
H 	H 	0.54063 0.83380 0.20492 0.08300
C 	C 	0.23784 0.09037 0.06731 -0.07400
C 	C 	0.24827 0.05168 0.05935 0.01900
C 	C 	0.19532 0.03267 0.10693 -0.07500
C 	C 	0.18202 0.05685 0.06459 0.02100
C 	C 	0.19892 0.09341 0.07039 -0.07600
H 	H 	0.24927 0.10080 0.10254 0.03200
H 	H 	0.24746 0.10690 0.03579 0.03700
C 	C 	0.28531 0.04924 0.05706 0.03000
H 	H 	0.18364 0.00613 0.10367 0.03600
H 	H 	0.18814 0.04325 0.14439 0.03600
C 	C 	0.14503 0.05952 0.06774 0.03300
H 	H 	0.19178 0.10522 0.10709 0.04000
H 	H 	0.18995 0.11134 0.04032 0.04300
C 	C 	0.19278 0.04127 0.01317 -0.07700
H 	H 	0.18372 0.05816 0.98195 0.04700
H 	H 	0.18105 0.01490 0.00797 0.04300
C 	C 	0.23176 0.03822 0.01010 -0.07600
H 	H 	0.23864 0.01041 0.00349 0.04300
H 	H 	0.24130 0.05367 0.97745 0.04500
C 	C 	0.23424 0.02962 0.10384 -0.07500
H 	H 	0.24114 0.00163 0.09906 0.04000
H 	H 	0.24562 0.03874 0.13983 0.03800
C 	C 	0.31570 0.04880 0.05695 -0.13400
C 	C 	0.11472 0.06067 0.07058 -0.12400
C 	C 	0.44651 0.02816 0.87972 -0.04500
C 	C 	0.46841 0.04893 0.85065 -0.01600
C 	C 	0.48868 0.03353 0.81391 -0.02400
C 	C 	0.48705 0.99725 0.80566 -0.05000
C 	C 	0.46219 0.97691 0.83086 0.09200
C 	C 	0.44249 0.99250 0.86844 -0.05300
H 	H 	0.50711 0.04945 0.79399 0.04000
H 	H 	0.42475 0.97665 0.88989 0.05400
H 	H 	0.47132 0.07661 0.85866 0.04400
N 	N 	0.45737 0.94253 0.81941 -0.19800
H 	H 	0.47005 0.93088 0.78945 0.09300
H 	H 	0.43984 0.92736 0.83942 0.08600
C 	C 	0.50503 0.99824 0.21924 0.04300
C 	C 	0.46992 0.99404 0.21918 -0.08300
C 	C 	0.45008 0.01454 0.18765 0.04500
C 	C 	0.46507 0.03957 0.15585 -0.14800
C 	C 	0.50048 0.04489 0.15708 0.15000
C 	C 	0.52021 0.02402 0.18890 -0.12000
H 	H 	0.42300 0.01045 0.18710 0.02200
H 	H 	0.54738 0.02747 0.18947 0.06400
H 	H 	0.45805 0.97426 0.24267 0.05300
N 	N 	0.51567 0.06957 0.12759 -0.21000
H 	H 	0.50174 0.08578 0.10401 0.09800
H 	H 	0.54185 0.07297 0.12837 0.08800
C 	C 	0.49884 0.28247 0.94795 -0.07900
C 	C 	0.47050 0.30274 0.97545 0.03100
C 	C 	0.43149 0.25008 0.96281 -0.07400
C 	C 	0.46279 0.23460 0.98946 0.02100
C 	C 	0.49428 0.24218 0.95623 -0.07500
H 	H 	0.49824 0.28840 0.90700 0.04500
H 	H 	0.52396 0.29102 0.96229 0.04600
C 	C 	0.47340 0.34109 0.96989 0.02100
H 	H 	0.40839 0.24515 0.98572 0.04200
H 	H 	0.42753 0.23700 0.92586 0.04400
C 	C 	0.45679 0.19701 0.99913 0.03700
H 	H 	0.49149 0.22888 0.91923 0.04500
H 	H 	0.51722 0.23151 0.97452 0.04400
C 	C 	0.46758 0.25368 0.04041 -0.07500
H 	H 	0.49007 0.24330 0.06029 0.04100
H 	H 	0.44537 0.24883 0.06521 0.03900
C 	C 	0.47208 0.29353 0.03223 -0.08000
H 	H 	0.45200 0.30759 0.05315 0.04600
H 	H 	0.49672 0.30223 0.04824 0.04500
C 	C 	0.43601 0.28999 0.95461 -0.07900
H 	H 	0.41508 0.30400 0.97365 0.04600
H 	H 	0.43424 0.29602 0.91374 0.04500
C 	C 	0.47264 0.37264 0.97109 -0.08800
C 	C 	0.44771 0.16793 0.01103 -0.12100
C 	C 	0.29204 0.50911 0.00285 -0.08000
C 	C 	0.31996 0.53767 0.00832 0.02100
C 	C 	0.28567 0.57728 0.95099 -0.07600
C 	C 	0.26070 0.56677 0.99348 0.02200
C 	C 	0.25712 0.52626 0.99410 -0.07200
H 	H 	0.29798 0.49154 0.97074 0.04700
H 	H 	0.29096 0.49257 0.03731 0.04300
C 	C 	0.35329 0.52212 0.01701 0.03200
H 	H 	0.28883 0.60627 0.94966 0.04200
H 	H 	0.27549 0.56887 0.91387 0.04500
C 	C 	0.22794 0.58384 0.98591 0.03300
H 	H 	0.24638 0.51689 0.95782 0.04400
H 	H 	0.23938 0.51791 0.02439 0.04100
C 	C 	0.27591 0.57870 0.04448 -0.07600
H 	H 	0.25859 0.57138 0.07583 0.03900
H 	H 	0.27889 0.60773 0.04518 0.03700
C 	C 	0.31067 0.56163 0.05317 -0.07500
H 	H 	0.33020 0.58252 0.05799 0.03600
H 	H 	0.30993 0.54615 0.08866 0.03800
C 	C 	0.32049 0.56018 0.95971 -0.07400
H 	H 	0.34023 0.58103 0.96253 0.04300
H 	H 	0.32696 0.54361 0.92675 0.04600
C 	C 	0.38111 0.51099 0.02490 -0.11900
C 	C 	0.20205 0.59979 0.98167 -0.11900
C 	C 	0.65029 0.46302 0.10008 -0.07500
C 	C 	0.62793 0.47061 0.05362 0.02200
C 	C 	0.67862 0.50005 0.01166 -0.07800
C 	C 	0.69146 0.46315 0.02618 0.02500
C 	C 	0.68765 0.45862 0.08395 -0.07700
H 	H 	0.64844 0.48484 0.12765 0.04100
H 	H 	0.64132 0.43876 0.11935 0.04300
C 	C 	0.59239 0.47495 0.06837 0.03500
H 	H 	0.68085 0.50405 0.97031 0.04400
H 	H 	0.69439 0.52063 0.03008 0.04000
C 	C 	0.72703 0.45950 0.01104 0.02700
H 	H 	0.70362 0.47832 0.10390 0.04300
H 	H 	0.69652 0.43226 0.09555 0.04500
C 	C 	0.66880 0.43535 -0.00007 -0.07800
H 	H 	0.67733 0.40854 0.00985 0.04600
H 	H 	0.67088 0.43804 0.95836 0.04800
C 	C 	0.63144 0.43973 0.01606 -0.07700
H 	H 	0.61569 0.44448 0.98215 0.04900
H 	H 	0.62212 0.41499 0.03363 0.04500
C 	C 	0.64133 0.50444 0.02778 -0.07700
H 	H 	0.62577 0.51054 0.99413 0.04700
H 	H 	0.63930 0.52709 0.05389 0.04100
C 	C 	0.56303 0.47881 0.07846 -0.12000
C 	C 	0.75639 0.45809 0.99953 -0.10600
C 	C 	0.54440 0.65774 0.02354 -0.07600
C 	C 	0.56025 0.63214 0.98505 0.02500
C 	C 	0.58230 0.68520 0.93609 -0.07600
C 	C 	0.59572 0.69101 0.99032 0.02300
C 	C 	0.56517 0.69221 0.02661 -0.07700
H 	H 	0.51801 0.66378 0.01250 0.04000
H 	H 	0.54329 0.64537 0.06145 0.03600
C 	C 	0.53995 0.59955 0.98389 0.02900
H 	H 	0.60375 0.68412 0.90914 0.04300
H 	H 	0.56623 0.70755 0.92464 0.04400
C 	C 	0.61555 0.72380 0.99452 0.03500
H 	H 	0.54873 0.71470 0.01695 0.04300
H 	H 	0.57398 0.69624 0.06594 0.04000
C 	C 	0.61775 0.65917 0.00483 -0.07800
H 	H 	0.62769 0.66246 0.04369 0.03800
H 	H 	0.63990 0.65754 0.97922 0.04100
C 	C 	0.59692 0.62459 0.00172 -0.07900
H 	H 	0.60907 0.60646 0.97460 0.04300
H 	H 	0.59693 0.61144 0.03910 0.04000
C 	C 	0.56141 0.65051 0.93298 -0.07700
H 	H 	0.57290 0.63287 0.90459 0.04400
H 	H 	0.53538 0.65633 0.92006 0.04400
C 	C 	0.52202 0.57398 0.98763 -0.11400
C 	C 	0.63219 0.75007 0.00063 -0.12200
