data_crystal

_cell_length_a 18.56548
_cell_length_b 18.74927
_cell_length_c 34.83112
_cell_angle_alpha 95.37892
_cell_angle_beta  95.37925
_cell_angle_gamma 126.39362

_symmetry_space_group_name_	'P 1'
_symmetry_space_group_name_H-M	'P 1'

loop_
_symmetry_equiv_pos_as_xyz
  x,y,z

loop_
_atom_site_label
_atom_site_type_symbol
_atom_site_fract_x
_atom_site_fract_y
_atom_site_fract_z
_atom_site_charge
C 	C 	0.91418 0.00789 0.97611 0.14800
N 	N 	0.86619 0.91735 0.97470 -0.12000
C 	C 	0.90815 0.87808 0.97007 0.15700
N 	N 	0.99654 0.92867 0.96603 -0.13500
C 	C 	0.04463 0.01878 0.96794 0.17300
N 	N 	0.00360 0.05832 0.97344 -0.10600
C 	C 	0.96959 0.04646 0.49607 0.14800
N 	N 	0.05951 0.08973 0.49521 -0.10600
C 	C 	0.09420 0.04295 0.49497 0.16400
N 	N 	0.03871 0.95318 0.49511 -0.11200
C 	C 	0.94864 0.90963 0.49490 0.15100
N 	N 	0.91444 0.95653 0.49584 -0.12300
Cu	Cu	0.75128 0.34380 0.95841 0.93800
Cu	Cu	0.71673 0.25478 0.03731 0.88800
Cu	Cu	0.61189 0.31187 0.00792 0.90900
Cu	Cu	0.58485 0.34196 0.92708 0.91600
C 	C 	0.69104 0.31845 0.87559 0.30700
O 	O 	0.80583 0.47655 0.95940 -0.32500
C 	C 	0.65446 0.32243 0.09256 0.30000
O 	O 	0.60961 0.27397 0.95380 -0.63200
O 	O 	0.73972 0.35492 0.01390 -0.63700
O 	O 	0.80872 0.28133 0.96249 -0.31800
O 	O 	0.69666 0.17712 0.99177 -0.39400
O 	O 	0.65607 0.36039 0.88472 -0.34400
O 	O 	0.48436 0.26193 0.00170 -0.30700
C 	C 	0.42980 0.23979 0.96824 0.31200
C 	C 	0.76384 0.51008 0.97070 0.29500
O 	O 	0.67809 0.45555 0.97402 -0.37700
O 	O 	0.46104 0.28209 0.93871 -0.35400
O 	O 	0.74162 0.31374 0.90290 -0.28500
C 	C 	0.76373 0.20195 0.97303 0.32300
O 	O 	0.62082 0.34335 0.06440 -0.29900
O 	O 	0.71265 0.30543 0.08677 -0.37300
H 	H 	0.56808 0.20793 0.94417 0.21500
H 	H 	0.78423 0.41538 0.03059 0.19600
Cu	Cu	0.63867 0.21566 0.50508 0.94000
Cu	Cu	0.73711 0.26747 0.42908 0.89100
Cu	Cu	0.66317 0.35275 0.45804 0.90200
Cu	Cu	0.64592 0.38167 0.54175 0.92000
C 	C 	0.65580 0.26084 0.58858 0.30500
O 	O 	0.50555 0.16447 0.50454 -0.29100
C 	C 	0.64230 0.30513 0.37279 0.30400
O 	O 	0.70866 0.35540 0.51146 -0.63600
O 	O 	0.62907 0.23005 0.45020 -0.64200
O 	O 	0.69911 0.15700 0.49888 -0.31900
O 	O 	0.80984 0.27375 0.47345 -0.40500
O 	O 	0.62025 0.30272 0.58129 -0.30800
O 	O 	0.68643 0.46965 0.46593 -0.35100
C 	C 	0.72910 0.53065 0.49855 0.30600
C 	C 	0.47326 0.20874 0.49530 0.30100
O 	O 	0.52943 0.29549 0.49477 -0.37200
O 	O 	0.71954 0.50726 0.53329 -0.34400
O 	O 	0.67017 0.22193 0.56003 -0.31300
C 	C 	0.78015 0.20214 0.48918 0.30900
O 	O 	0.62883 0.34404 0.40203 -0.34100
O 	O 	0.68847 0.27285 0.37901 -0.32700
H 	H 	0.77588 0.39587 0.51916 0.18300
H 	H 	0.56988 0.18402 0.43250 0.23400
C 	C 	0.67615 0.20429 0.77554 0.03400
C 	C 	0.69166 0.26819 0.75263 0.09800
C 	C 	0.70992 0.34982 0.77040 -0.10300
C 	C 	0.71573 0.36698 0.81115 0.07600
C 	C 	0.69644 0.30165 0.83390 0.00800
C 	C 	0.67566 0.21882 0.81593 -0.06500
C 	C 	0.67951 0.24505 0.70943 0.09200
C 	C 	0.71551 0.41513 0.74563 0.78800
H 	H 	0.73251 0.43033 0.82519 0.10400
C 	C 	0.65591 0.14715 0.83974 0.77800
H 	H 	0.66246 0.14226 0.76157 0.12600
C 	C 	0.75486 0.27404 0.69087 -0.09700
C 	C 	0.74563 0.27585 0.65045 0.08200
C 	C 	0.66049 0.24024 0.62815 0.01200
C 	C 	0.58195 0.19374 0.64554 -0.05900
C 	C 	0.59281 0.20023 0.68648 0.04100
C 	C 	0.84467 0.30380 0.71407 0.79000
H 	H 	0.80503 0.30824 0.63668 0.09400
C 	C 	0.48704 0.14097 0.62102 0.77800
H 	H 	0.53445 0.17393 0.70071 0.11500
F 	F 	0.73548 0.17621 0.86387 -0.41500
F 	F 	0.62192 0.06638 0.81581 -0.40800
F 	F 	0.59187 0.13048 0.86240 -0.44100
F 	F 	0.63186 0.37430 0.72187 -0.41900
F 	F 	0.78043 0.44051 0.72238 -0.39900
F 	F 	0.73889 0.49279 0.76864 -0.40800
F 	F 	0.42282 0.07567 0.63987 -0.40700
F 	F 	0.48154 0.09776 0.58516 -0.42200
F 	F 	0.46592 0.19889 0.61489 -0.41700
F 	F 	0.90442 0.31604 0.68966 -0.40800
F 	F 	0.82977 0.23887 0.73530 -0.41400
F 	F 	0.88517 0.38419 0.73969 -0.38900
C 	C 	0.54542 0.30159 0.18233 0.03100
C 	C 	0.61976 0.33594 0.21244 0.10000
C 	C 	0.70706 0.37394 0.20319 -0.10500
C 	C 	0.71795 0.37846 0.16387 0.07700
C 	C 	0.64228 0.33648 0.13338 0.00500
C 	C 	0.55463 0.29776 0.14265 -0.06500
C 	C 	0.60296 0.32057 0.25273 0.09100
C 	C 	0.78618 0.40047 0.23439 0.78900
H 	H 	0.78490 0.41000 0.15660 0.09400
C 	C 	0.47097 0.25221 0.11057 0.77800
H 	H 	0.47939 0.27399 0.18991 0.12900
C 	C 	0.61806 0.38865 0.28161 -0.09600
C 	C 	0.62699 0.38155 0.32142 0.08100
C 	C 	0.61035 0.30306 0.33186 0.01200
C 	C 	0.57388 0.22715 0.30205 -0.06300
C 	C 	0.57607 0.23848 0.26280 0.04300
C 	C 	0.62343 0.46754 0.27005 0.79000
H 	H 	0.65020 0.43803 0.34421 0.09600
C 	C 	0.53462 0.13481 0.31172 0.77900
H 	H 	0.55902 0.18425 0.24018 0.11300
F 	F 	0.47630 0.31619 0.09148 -0.41100
F 	F 	0.39139 0.20813 0.12561 -0.40800
F 	F 	0.46516 0.18881 0.08387 -0.44100
F 	F 	0.76721 0.32434 0.24718 -0.42100
F 	F 	0.80042 0.46050 0.26599 -0.39700
F 	F 	0.86650 0.44125 0.22003 -0.41000
F 	F 	0.46806 0.06765 0.28089 -0.40200
F 	F 	0.49496 0.12275 0.34463 -0.43000
F 	F 	0.60298 0.12545 0.31831 -0.41400
F 	F 	0.62502 0.51896 0.30186 -0.40600
F 	F 	0.54818 0.43593 0.24196 -0.41000
F 	F 	0.70132 0.52247 0.25487 -0.38600
C 	C 	0.82652 0.77674 0.51972 -0.04700
C 	C 	0.88819 0.81176 0.49384 -0.00400
C 	C 	0.89278 0.75306 0.46761 0.09000
C 	C 	0.83985 0.66116 0.46924 -0.00600
C 	C 	0.78011 0.62653 0.49591 -0.07200
C 	C 	0.77125 0.68431 0.52039 0.12900
N 	N 	0.70401 0.64894 0.54490 -0.02300
H 	H 	0.82123 0.82132 0.53929 0.09500
H 	H 	0.84519 0.61660 0.44970 0.07300
N 	N 	0.94937 0.78617 0.43862 -0.02500
O 	O 	0.72799 0.68119 0.58239 -0.04800
O 	O 	0.61815 0.58992 0.52931 -0.05700
O 	O 	0.01060 0.77325 0.43688 -0.04300
O 	O 	0.93570 0.82399 0.41241 -0.04600
C 	C 	0.88886 0.09742 0.52748 -0.04800
C 	C 	0.93103 0.09608 0.49630 -0.00300
C 	C 	0.92735 0.13372 0.46370 0.08700
C 	C 	0.87962 0.17000 0.46214 -0.00500
C 	C 	0.83468 0.16852 0.49269 -0.07800
C 	C 	0.84184 0.13452 0.52611 0.13100
N 	N 	0.80483 0.14094 0.55934 -0.02200
H 	H 	0.89266 0.06966 0.55286 0.09700
H 	H 	0.87520 0.19687 0.43654 0.06800
N 	N 	0.96944 0.13255 0.43151 -0.02500
O 	O 	0.74477 0.06844 0.57200 -0.04000
O 	O 	0.83699 0.21968 0.57896 -0.05200
O 	O 	0.93940 0.05615 0.41011 -0.05100
O 	O 	0.03273 0.20791 0.42165 -0.03800
C 	C 	0.21599 0.04981 0.46670 -0.04000
C 	C 	0.19145 0.08869 0.49380 -0.00200
C 	C 	0.25998 0.16711 0.52136 0.10000
C 	C 	0.35179 0.20612 0.52123 0.00400
C 	C 	0.37620 0.16672 0.49441 -0.05600
C 	C 	0.30791 0.08849 0.46683 0.13100
N 	N 	0.33157 0.04917 0.43836 -0.02600
H 	H 	0.16361 0.98966 0.44537 0.10700
H 	H 	0.40420 0.26598 0.54269 0.09200
N 	N 	0.23660 0.20535 0.55051 -0.01800
O 	O 	0.29941 0.96520 0.43585 -0.03100
O 	O 	0.37862 0.09484 0.41277 -0.04100
O 	O 	0.19380 0.16027 0.57711 -0.03500
O 	O 	0.26479 0.28800 0.55243 -0.04500
C 	C 	0.81841 0.66031 0.00542 -0.01100
C 	C 	0.80543 0.60584 0.97091 -0.07200
C 	C 	0.81688 0.63852 0.93539 0.12000
C 	C 	0.84277 0.72538 0.93490 -0.04700
C 	C 	0.85894 0.78107 0.96960 -0.00900
C 	C 	0.84580 0.74792 0.00502 0.08800
N 	N 	0.86141 0.80341 0.04076 -0.02000
H 	H 	0.80715 0.63465 0.03261 0.07900
H 	H 	0.85340 0.75076 0.90763 0.09600
N 	N 	0.79959 0.58268 0.89949 -0.02800
O 	O 	0.79498 0.77843 0.05954 -0.04700
O 	O 	0.94342 0.87480 0.05619 -0.05200
O 	O 	0.73213 0.55636 0.87182 -0.05600
O 	O 	0.85778 0.56797 0.89255 -0.05000
C 	C 	0.78850 0.01586 0.95262 -0.05300
C 	C 	0.86910 0.05145 0.97898 0.00500
C 	C 	0.91402 0.13618 0.00366 0.08200
C 	C 	0.88155 0.18671 0.99981 -0.00300
C 	C 	0.80205 0.15199 0.97298 -0.07700
C 	C 	0.75419 0.06517 0.94973 0.14200
N 	N 	0.67229 0.02785 0.92235 -0.02100
H 	H 	0.75357 0.95084 0.93361 0.09900
H 	H 	0.91658 0.25185 0.01874 0.06300
N 	N 	0.99181 0.17040 0.03318 -0.02500
O 	O 	0.66500 0.99828 0.88581 0.00800
O 	O 	0.60098 0.01161 0.93490 -0.03300
O 	O 	0.06636 0.25149 0.03555 -0.03600
O 	O 	0.98670 0.12213 0.05884 -0.05000
C 	C 	0.19491 0.04838 0.98205 -0.03700
C 	C 	0.14268 0.07412 0.96647 -0.00500
C 	C 	0.18476 0.15256 0.94975 0.09700
C 	C 	0.27885 0.20699 0.95119 -0.00300
C 	C 	0.33097 0.18140 0.96695 -0.05800
C 	C 	0.28805 0.09986 0.98119 0.13700
N 	N 	0.33778 0.06687 0.99296 -0.02000
H 	H 	0.16283 0.98736 0.99427 0.10300
H 	H 	0.31125 0.26866 0.93946 0.09100
N 	N 	0.13170 0.17496 0.92976 -0.02000
O 	O 	0.32777 0.03430 0.02508 -0.01700
O 	O 	0.38356 0.05873 0.96919 -0.07600
O 	O 	0.14691 0.25131 0.94185 -0.04300
O 	O 	0.07302 0.12218 0.89780 -0.04500
