data_crystal

_cell_length_a 46.17986
_cell_length_b 43.78849
_cell_length_c 30.71508
_cell_angle_alpha 89.95989
_cell_angle_beta  89.94448
_cell_angle_gamma 90.47758

_symmetry_space_group_name_	'P 1'
_symmetry_space_group_name_H-M	'P 1'

loop_
_symmetry_equiv_pos_as_xyz
  x,y,z

loop_
_atom_site_label
_atom_site_type_symbol
_atom_site_fract_x
_atom_site_fract_y
_atom_site_fract_z
_atom_site_charge
Zn	Zn	0.47682 0.46155 0.00790 1.22200
C 	C 	0.48660 0.52612 0.02239 0.31600
O 	O 	0.49632 0.44313 0.05787 -0.47300
O 	O 	0.46335 0.52496 0.04721 -0.44800
O 	O 	0.49717 0.48362 0.10330 -0.48600
C 	C 	0.41736 0.47457 0.02179 0.32300
O 	O 	0.43869 0.47678 0.99368 -0.44800
O 	O 	0.42297 0.47059 0.06335 -0.50100
C 	C 	0.51052 0.46061 0.08517 0.32000
O 	O 	0.45970 0.41295 0.98692 -0.31800
Zn	Zn	0.45631 0.49014 0.09139 1.17300
O 	O 	0.49763 0.50086 0.00637 -0.43400
C 	C 	0.47977 0.41408 0.95734 0.27800
O 	O 	0.49498 0.43907 0.95670 -0.37600
Zn	Zn	0.44104 0.07132 0.02668 1.22400
C 	C 	0.45074 0.07016 0.11945 0.31400
O 	O 	0.40151 0.06246 0.04765 -0.44200
O 	O 	0.42914 0.08919 0.12398 -0.40500
O 	O 	0.38949 0.11265 0.05302 -0.49800
C 	C 	0.47420 0.12769 0.02674 0.32100
O 	O 	0.46255 0.10607 0.00265 -0.45200
O 	O 	0.46550 0.13130 0.06705 -0.43300
C 	C 	0.38177 0.08387 0.04922 0.32400
O 	O 	0.42644 0.06167 0.95407 -0.31600
Zn	Zn	0.42500 0.12557 0.08186 1.18300
O 	O 	0.46270 0.06614 0.08112 -0.39200
C 	C 	0.44106 0.03661 0.95798 0.29600
O 	O 	0.45292 0.03249 0.99562 -0.36500
C 	C 	0.52851 0.97646 0.31032 0.15200
C 	C 	0.50999 0.99574 0.28704 -0.11000
H 	H 	0.49456 0.00976 0.30436 0.08300
C 	C 	0.51178 0.99722 0.24153 0.07600
C 	C 	0.53189 0.97918 0.21930 -0.09300
C 	C 	0.55051 0.95996 0.24248 0.07600
C 	C 	0.54875 0.95860 0.28803 -0.11000
H 	H 	0.56323 0.94397 0.30616 0.08000
N 	N 	0.52727 0.97559 0.35707 -0.18100
C 	C 	0.51111 0.95331 0.37734 0.20000
C 	C 	0.51090 0.95111 0.42309 -0.07700
C 	C 	0.52770 0.97166 0.44770 0.06300
C 	C 	0.54270 0.99544 0.42654 -0.07500
C 	C 	0.54252 0.99684 0.38073 0.19900
C 	C 	0.49341 0.92942 0.44445 0.01400
C 	C 	0.49349 0.92743 0.48979 -0.05400
C 	C 	0.51291 0.94543 0.51473 0.01900
C 	C 	0.52888 0.96892 0.49364 -0.02600
C 	C 	0.54501 0.99047 0.51822 0.01900
C 	C 	0.55677 0.01801 0.45131 0.01400
C 	C 	0.55688 0.01627 0.49666 -0.05300
C 	C 	0.51560 0.94151 0.56056 0.01900
C 	C 	0.53170 0.96310 0.58513 -0.02500
C 	C 	0.54768 0.98657 0.56403 0.01800
O 	O 	0.55737 0.01843 0.36047 -0.18200
O 	O 	0.49595 0.93372 0.35386 -0.19500
H 	H 	0.56683 0.03756 0.43560 0.05400
H 	H 	0.56482 0.03577 0.51471 0.05300
H 	H 	0.47895 0.91469 0.42610 0.05000
H 	H 	0.47736 0.91307 0.50524 0.05300
C 	C 	0.56705 0.00462 0.58898 -0.05300
C 	C 	0.56697 0.00277 0.63433 0.01400
C 	C 	0.54944 0.98113 0.65568 -0.07600
C 	C 	0.53282 0.96042 0.63107 0.06300
C 	C 	0.50378 0.91569 0.58212 -0.05200
C 	C 	0.50393 0.91394 0.62749 0.01400
C 	C 	0.51792 0.93657 0.65226 -0.07200
C 	C 	0.54898 0.97915 0.70143 0.20000
N 	N 	0.53299 0.95676 0.72172 -0.17800
C 	C 	0.51810 0.93521 0.69809 0.19900
C 	C 	0.53147 0.95618 0.76846 0.15000
C 	C 	0.55345 0.94218 0.79264 -0.09800
C 	C 	0.55278 0.94315 0.83824 0.07600
C 	C 	0.53016 0.95814 0.85959 -0.05700
C 	C 	0.50765 0.97125 0.83557 0.06200
C 	C 	0.50847 0.97050 0.78995 -0.07800
O 	O 	0.56364 0.99918 0.72490 -0.19500
O 	O 	0.50366 0.91333 0.71837 -0.16200
H 	H 	0.57105 0.93087 0.77598 0.08400
H 	H 	0.49149 0.98124 0.77120 0.08500
H 	H 	0.58325 0.01890 0.57356 0.05300
H 	H 	0.58136 0.01757 0.65270 0.05100
H 	H 	0.49586 0.89619 0.56407 0.05300
H 	H 	0.49392 0.89437 0.64321 0.05800
H 	H 	0.53004 0.95953 0.89485 0.09700
H 	H 	0.53321 0.98029 0.18407 0.08300
Zn	Zn	0.63772 0.87525 0.04688 1.23000
C 	C 	0.62666 0.88789 0.13741 0.31700
O 	O 	0.66939 0.90387 0.06097 -0.38900
O 	O 	0.65272 0.87879 0.14801 -0.40400
O 	O 	0.69957 0.86589 0.08268 -0.49400
C 	C 	0.62744 0.81196 0.06811 0.31500
O 	O 	0.63250 0.83150 0.03647 -0.42500
O 	O 	0.63685 0.81784 0.10754 -0.48300
C 	C 	0.69539 0.89446 0.07151 0.33100
O 	O 	0.64890 0.87973 0.97170 -0.26800
Zn	Zn	0.67144 0.84250 0.11642 1.17600
O 	O 	0.61488 0.87898 0.10063 -0.39800
C 	C 	0.62540 0.89575 0.96982 0.27000
O 	O 	0.61181 0.89916 0.00625 -0.30700
Zn	Zn	0.08616 0.61136 0.94786 1.22700
C 	C 	0.08646 0.60655 0.04166 0.31900
O 	O 	0.07962 0.65436 0.93170 -0.45100
O 	O 	0.11331 0.61663 0.04289 -0.40000
O 	O 	0.09287 0.67298 0.99782 -0.48600
C 	C 	0.14554 0.59442 0.95657 0.32600
O 	O 	0.11874 0.58432 0.95849 -0.40200
O 	O 	0.15113 0.62365 0.96143 -0.49600
C 	C 	0.07873 0.67609 0.96110 0.31600
O 	O 	0.09051 0.59816 0.87326 -0.31100
Zn	Zn	0.12815 0.64929 0.99970 1.17500
O 	O 	0.07029 0.61150 0.00725 -0.40500
C 	C 	0.06498 0.58604 0.87834 0.29700
O 	O 	0.05381 0.58858 0.91676 -0.34700
C 	C 	0.98585 0.52998 0.22464 0.15200
C 	C 	0.96278 0.51947 0.19883 -0.11100
H 	H 	0.94359 0.50995 0.21419 0.07900
C 	C 	0.96436 0.52180 0.15333 0.07600
C 	C 	0.98931 0.53419 0.13381 -0.09400
C 	C 	0.01198 0.54555 0.15954 0.07600
C 	C 	0.01031 0.54331 0.20499 -0.11100
H 	H 	0.02783 0.55201 0.22503 0.08100
N 	N 	0.98421 0.52749 0.27123 -0.18100
C 	C 	0.99525 0.50219 0.29142 0.20000
C 	C 	0.99362 0.49923 0.33702 -0.07600
C 	C 	0.98122 0.52276 0.36169 0.06400
C 	C 	0.96893 0.54788 0.34033 -0.07700
C 	C 	0.97106 0.55012 0.29470 0.20000
C 	C 	0.00304 0.47260 0.35793 0.01400
C 	C 	0.00109 0.46985 0.40309 -0.05400
C 	C 	0.99193 0.49477 0.42881 0.02000
C 	C 	0.98035 0.52072 0.40772 -0.02600
C 	C 	0.96676 0.54400 0.43214 0.02000
C 	C 	0.95365 0.56965 0.36450 0.01400
C 	C 	0.95148 0.56702 0.40965 -0.05400
C 	C 	0.99276 0.49371 0.47511 0.01900
C 	C 	0.97920 0.51701 0.49954 -0.02300
C 	C 	0.96753 0.54291 0.47843 0.01800
O 	O 	0.96047 0.57413 0.27445 -0.19200
O 	O 	0.00747 0.48059 0.26804 -0.19000
H 	H 	0.94246 0.58808 0.34826 0.05000
H 	H 	0.93668 0.58189 0.42649 0.05300
H 	H 	0.01097 0.45347 0.33915 0.05100
H 	H 	0.00520 0.44780 0.41747 0.05300
C 	C 	0.95828 0.56781 0.50413 -0.05100
C 	C 	0.95636 0.56508 0.54928 0.01300
C 	C 	0.96600 0.53856 0.57023 -0.06900
C 	C 	0.97849 0.51507 0.54559 0.06100
C 	C 	0.00812 0.47074 0.49757 -0.05200
C 	C 	0.00623 0.46827 0.54277 0.01300
C 	C 	0.99106 0.49011 0.56699 -0.07000
C 	C 	0.96456 0.53572 0.61583 0.19700
N 	N 	0.97617 0.51076 0.63615 -0.17500
C 	C 	0.98934 0.48813 0.61270 0.20000
C 	C 	0.97525 0.50874 0.68282 0.14800
C 	C 	0.99627 0.52394 0.70783 -0.06100
C 	C 	0.99402 0.52424 0.75332 0.05400
C 	C 	0.97177 0.50770 0.77384 -0.01800
C 	C 	0.95039 0.49296 0.74897 0.06300
C 	C 	0.95221 0.49343 0.70341 -0.06300
O 	O 	0.95194 0.55711 0.63914 -0.15500
O 	O 	0.00048 0.46445 0.63306 -0.16800
H 	H 	0.01356 0.53651 0.69182 0.08400
H 	H 	0.93542 0.48266 0.68400 0.09100
H 	H 	0.95407 0.58983 0.48974 0.05300
H 	H 	0.94836 0.58419 0.56804 0.05900
H 	H 	0.02280 0.45578 0.48065 0.05300
H 	H 	0.01752 0.44991 0.55900 0.05600
H 	H 	0.97015 0.50776 0.80907 0.10700
H 	H 	0.99074 0.53576 0.09862 0.08700
Zn	Zn	0.86473 0.43935 0.95968 1.22600
C 	C 	0.80640 0.46285 0.96719 0.31700
O 	O 	0.85772 0.45054 0.89849 -0.43500
O 	O 	0.81531 0.48555 0.94257 -0.42900
O 	O 	0.87355 0.49988 0.90364 -0.43200
C 	C 	0.87922 0.48045 0.03007 0.30800
O 	O 	0.88719 0.45617 0.00818 -0.42500
O 	O 	0.85639 0.49574 0.01778 -0.41600
C 	C 	0.87008 0.47473 0.88089 0.33300
O 	O 	0.90807 0.41488 0.93832 -0.29200
Zn	Zn	0.85304 0.50819 0.95746 1.21200
O 	O 	0.82533 0.44387 0.98388 -0.42500
C 	C 	0.89370 0.38973 0.94517 0.27900
O 	O 	0.86730 0.39300 0.95839 -0.37500
Zn	Zn	0.02091 0.04112 0.01958 1.22100
C 	C 	0.03267 0.97804 0.99889 0.31800
O 	O 	0.98724 0.03854 0.05881 -0.46400
O 	O 	0.04869 0.97802 0.03428 -0.44700
O 	O 	0.99420 0.98985 0.08153 -0.49000
C 	C 	0.07692 0.04023 0.05922 0.32700
O 	O 	0.06307 0.04123 0.02199 -0.44800
O 	O 	0.06337 0.03090 0.09442 -0.50200
C 	C 	0.97664 0.01200 0.07099 0.31900
O 	O 	0.02378 0.09424 0.03184 -0.32100
Zn	Zn	0.03505 0.99780 0.09153 1.17200
O 	O 	0.01614 0.00155 0.98977 -0.43000
C 	C 	0.01277 0.09681 0.99317 0.27900
O 	O 	0.00734 0.07131 0.97327 -0.37600
C 	C 	0.90690 0.35938 0.94003 -0.05200
C 	C 	0.88939 0.33372 0.93157 0.01300
C 	C 	0.90161 0.30466 0.92921 -0.03500
C 	C 	0.93149 0.30086 0.93572 0.01400
C 	C 	0.93690 0.35579 0.94498 0.01700
C 	C 	0.94404 0.26982 0.93676 0.11100
N 	N 	0.92719 0.24530 0.94720 -0.07700
N 	N 	0.93877 0.21764 0.95074 -0.07700
C 	C 	0.96756 0.21367 0.94411 0.10800
N 	N 	0.98435 0.23807 0.93302 -0.07500
N 	N 	0.97274 0.26572 0.92923 -0.07300
C 	C 	0.98081 0.18370 0.95243 0.01200
C 	C 	0.97774 0.12826 0.95090 0.01100
C 	C 	0.00302 0.12647 0.97614 -0.06700
C 	C 	0.01776 0.15339 0.98790 0.01100
C 	C 	0.00677 0.18185 0.97600 -0.04200
C 	C 	0.94913 0.32670 0.94303 -0.03100
C 	C 	0.96662 0.15675 0.93926 -0.04100
H 	H 	0.86628 0.33625 0.92692 0.05500
H 	H 	0.88779 0.28511 0.92257 0.06200
H 	H 	0.97219 0.32423 0.94819 0.06900
H 	H 	0.95067 0.37542 0.95142 0.06800
H 	H 	0.94678 0.15788 0.92057 0.06000
H 	H 	0.96621 0.10766 0.94149 0.05000
H 	H 	0.01795 0.20245 0.98630 0.06000
H 	H 	0.03747 0.15229 0.00693 0.04600
C 	C 	0.88355 0.47263 0.83768 -0.11600
C 	C 	0.88016 0.49665 0.80802 0.07100
C 	C 	0.90022 0.50093 0.77453 -0.08500
C 	C 	0.92396 0.48137 0.77063 0.11800
C 	C 	0.92459 0.45416 0.79556 -0.16800
C 	C 	0.90457 0.45034 0.82980 0.12000
H 	H 	0.89886 0.52111 0.75421 0.09500
H 	H 	0.90660 0.43125 0.85201 0.06300
H 	H 	0.86333 0.51338 0.81299 0.04200
C 	C 	0.94797 0.43063 0.78836 0.80000
F 	F 	0.93961 0.40243 0.80473 -0.44200
F 	F 	0.95350 0.42718 0.74436 -0.44400
F 	F 	0.97309 0.43990 0.80915 -0.44500
C 	C 	0.93943 0.51274 0.12596 -0.02300
C 	C 	0.92835 0.48289 0.12785 -0.01300
C 	C 	0.90756 0.47314 0.09780 -0.01800
C 	C 	0.89826 0.49276 0.06453 0.01200
C 	C 	0.90951 0.52309 0.06236 -0.10700
C 	C 	0.92865 0.53322 0.09500 0.05000
H 	H 	0.89931 0.44993 0.09951 0.05500
H 	H 	0.93624 0.55670 0.09524 0.07500
H 	H 	0.93640 0.46697 0.15189 0.04900
C 	C 	0.90191 0.54438 0.02500 0.77400
F 	F 	0.87352 0.55374 0.02915 -0.48700
F 	F 	0.91950 0.57015 0.02462 -0.43900
F 	F 	0.90552 0.52973 0.98549 -0.51100
C 	C 	0.06396 0.70502 0.95150 -0.08700
C 	C 	0.06452 0.71721 0.90919 0.01800
C 	C 	0.05400 0.74658 0.90136 -0.04400
C 	C 	0.04267 0.76395 0.93571 0.01300
C 	C 	0.05126 0.72177 0.98535 0.01900
C 	C 	0.03559 0.79641 0.92898 0.10600
N 	N 	0.05336 0.81448 0.90466 -0.07900
N 	N 	0.05027 0.84471 0.90499 -0.07900
C 	C 	0.02933 0.85777 0.92966 0.10400
N 	N 	0.01056 0.83958 0.95203 -0.07900
N 	N 	0.01365 0.80935 0.95171 -0.07700
C 	C 	0.03002 0.89097 0.93795 0.01200
C 	C 	0.05747 0.93575 0.96057 0.01700
C 	C 	0.03168 0.95062 0.97140 -0.08700
C 	C 	0.00499 0.93656 0.96202 0.01600
C 	C 	0.00415 0.90679 0.94549 -0.04800
C 	C 	0.04062 0.75104 0.97750 -0.04500
C 	C 	0.05667 0.90611 0.94377 -0.04800
H 	H 	0.07405 0.70442 0.88270 0.04700
H 	H 	0.05528 0.75607 0.86882 0.06200
H 	H 	0.03183 0.76413 0.00428 0.05700
H 	H 	0.05022 0.71239 0.01797 0.04300
H 	H 	0.07681 0.89434 0.93762 0.05800
H 	H 	0.07819 0.94661 0.96706 0.04100
H 	H 	0.98343 0.89563 0.94017 0.05900
H 	H 	0.98492 0.94797 0.96988 0.04000
C 	C 	0.04851 0.57313 0.84180 -0.09700
C 	C 	0.05920 0.54794 0.81900 0.05500
C 	C 	0.04183 0.53297 0.78837 -0.08500
C 	C 	0.01383 0.54349 0.77948 0.11000
C 	C 	0.00409 0.57089 0.79910 -0.16200
C 	C 	0.02112 0.58468 0.83171 0.11400
H 	H 	0.04972 0.51251 0.77266 0.08000
H 	H 	0.01301 0.60420 0.84949 0.07100
H 	H 	0.08049 0.53912 0.82639 0.04500
C 	C 	0.97513 0.58468 0.78692 0.79700
F 	F 	0.95303 0.56876 0.80746 -0.44600
F 	F 	0.97373 0.61501 0.79940 -0.43700
F 	F 	0.97095 0.58352 0.74235 -0.44700
C 	C 	0.03658 0.56134 0.13863 -0.02400
C 	C 	0.03707 0.59328 0.13659 -0.01200
C 	C 	0.05544 0.60826 0.10728 -0.02100
C 	C 	0.07371 0.59146 0.08000 0.01500
C 	C 	0.07584 0.55944 0.08560 -0.10600
C 	C 	0.05664 0.54451 0.11440 0.05000
H 	H 	0.05424 0.63286 0.10394 0.05000
H 	H 	0.05626 0.51981 0.11642 0.07700
H 	H 	0.02186 0.60642 0.15568 0.05000
C 	C 	0.09715 0.54104 0.05895 0.78000
F 	F 	0.09946 0.51144 0.07436 -0.44600
F 	F 	0.08805 0.53992 0.01611 -0.45400
F 	F 	0.12434 0.55445 0.06087 -0.45700
C 	C 	0.94528 0.00605 0.06835 -0.09100
C 	C 	0.93503 0.97805 0.05204 0.01800
C 	C 	0.90529 0.97237 0.04905 -0.04900
C 	C 	0.88546 0.99454 0.06264 0.01300
C 	C 	0.92548 0.02843 0.08135 0.01800
C 	C 	0.85418 0.98784 0.06149 0.10500
N 	N 	0.84231 0.97374 0.02633 -0.07800
N 	N 	0.81495 0.96389 0.02748 -0.07800
C 	C 	0.79869 0.96770 0.06390 0.10700
N 	N 	0.81027 0.98270 0.09854 -0.07400
N 	N 	0.83759 0.99271 0.09729 -0.07700
C 	C 	0.77044 0.95209 0.06795 0.01800
C 	C 	0.72550 0.93441 0.03497 0.02800
C 	C 	0.71993 0.91601 0.07149 -0.06600
C 	C 	0.73900 0.91678 0.10699 0.03100
C 	C 	0.76406 0.93483 0.10533 -0.04100
C 	C 	0.89568 0.02262 0.07879 -0.04700
C 	C 	0.75077 0.95225 0.03307 -0.03900
H 	H 	0.95012 0.96076 0.04138 0.03800
H 	H 	0.89767 0.95055 0.03678 0.05700
H 	H 	0.88056 0.03993 0.08926 0.06000
H 	H 	0.93315 0.05017 0.09386 0.04100
H 	H 	0.75531 0.96574 0.00424 0.06400
H 	H 	0.71079 0.93414 0.00752 0.05300
H 	H 	0.77902 0.93454 0.13247 0.06100
H 	H 	0.73466 0.90297 0.13558 0.04000
C 	C 	0.57541 0.92802 0.86390 -0.01800
C 	C 	0.59951 0.94478 0.87826 -0.00800
C 	C 	0.61764 0.93281 0.91027 -0.02700
C 	C 	0.61188 0.90392 0.92815 0.04100
C 	C 	0.58950 0.88548 0.91026 -0.10500
C 	C 	0.57088 0.89813 0.87891 0.05800
H 	H 	0.63515 0.94675 0.92307 0.06400
H 	H 	0.55219 0.88530 0.86754 0.09800
H 	H 	0.60329 0.96777 0.86634 0.05100
C 	C 	0.58429 0.85318 0.92656 0.78200
F 	F 	0.57156 0.85411 0.96730 -0.44200
F 	F 	0.56625 0.83695 0.89883 -0.43500
F 	F 	0.61022 0.83770 0.92926 -0.44900
C 	C 	0.57214 0.94162 0.21897 -0.02300
C 	C 	0.57060 0.90968 0.22026 -0.01400
C 	C 	0.58934 0.89228 0.19487 -0.02100
C 	C 	0.60988 0.90658 0.16791 0.01500
C 	C 	0.61248 0.93886 0.16779 -0.10400
C 	C 	0.59334 0.95616 0.19341 0.04800
H 	H 	0.58740 0.86760 0.19527 0.05100
H 	H 	0.59449 0.98088 0.19291 0.08100
H 	H 	0.55434 0.89833 0.24008 0.04800
C 	C 	0.63465 0.95480 0.13894 0.78100
F 	F 	0.62787 0.94967 0.09570 -0.44700
F 	F 	0.63532 0.98603 0.14594 -0.43700
F 	F 	0.66200 0.94361 0.14741 -0.44800
C 	C 	0.35091 0.07585 0.04507 -0.08900
C 	C 	0.33899 0.05183 0.06966 0.02000
C 	C 	0.30899 0.04697 0.07023 -0.04700
C 	C 	0.29069 0.06601 0.04593 0.01400
C 	C 	0.33276 0.09401 0.01940 0.01900
C 	C 	0.25888 0.06278 0.04941 0.10400
N 	N 	0.24652 0.03503 0.05702 -0.07800
N 	N 	0.21782 0.03221 0.06007 -0.07900
C 	C 	0.20066 0.05705 0.05552 0.10400
N 	N 	0.21301 0.08479 0.04801 -0.07900
N 	N 	0.24169 0.08763 0.04510 -0.08000
C 	C 	0.16888 0.05384 0.05789 0.01400
C 	C 	0.12604 0.03011 0.08959 0.02000
C 	C 	0.10838 0.04625 0.06049 -0.09300
C 	C 	0.12110 0.06673 0.03075 0.02200
C 	C 	0.15118 0.07053 0.02949 -0.04900
C 	C 	0.30285 0.08906 0.01968 -0.04800
C 	C 	0.15613 0.03384 0.08823 -0.05100
H 	H 	0.35282 0.03764 0.08954 0.04500
H 	H 	0.29996 0.02903 0.09054 0.06000
H 	H 	0.28910 0.10339 0.99988 0.06000
H 	H 	0.34180 0.11230 0.99972 0.03900
H 	H 	0.16951 0.02113 0.11069 0.05500
H 	H 	0.11654 0.01416 0.11259 0.02400
H 	H 	0.16074 0.08603 0.00593 0.05900
H 	H 	0.10771 0.07951 0.00838 0.04400
C 	C 	0.45160 0.02014 0.91960 -0.10100
C 	C 	0.46766 0.03579 0.88779 0.05100
C 	C 	0.48410 0.01959 0.85759 -0.08800
C 	C 	0.48419 0.98756 0.85833 0.10300
C 	C 	0.46461 0.97173 0.88608 -0.16200
C 	C 	0.44955 0.98820 0.91813 0.11200
H 	H 	0.49820 0.03192 0.83537 0.06600
H 	H 	0.43690 0.97618 0.94257 0.06700
H 	H 	0.46903 0.06050 0.88839 0.03800
C 	C 	0.46081 0.93735 0.88320 0.79700
F 	F 	0.43412 0.92840 0.89962 -0.43600
F 	F 	0.46227 0.92767 0.84037 -0.43900
F 	F 	0.48224 0.92321 0.90705 -0.43800
C 	C 	0.49354 0.01861 0.21710 -0.02400
C 	C 	0.46656 0.00899 0.20123 -0.01100
C 	C 	0.45148 0.02717 0.17171 -0.02300
C 	C 	0.46318 0.05518 0.15784 0.01600
C 	C 	0.48912 0.06636 0.17691 -0.10500
C 	C 	0.50450 0.04747 0.20573 0.05100
H 	H 	0.43134 0.01877 0.15790 0.05300
H 	H 	0.52541 0.05470 0.21818 0.08100
H 	H 	0.45788 0.98681 0.21028 0.04900
C 	C 	0.50121 0.09754 0.16469 0.78300
F 	F 	0.47950 0.11911 0.16568 -0.46900
F 	F 	0.52267 0.10688 0.19330 -0.44100
F 	F 	0.51287 0.09639 0.12324 -0.43900
C 	C 	0.49035 0.38593 0.93694 -0.06600
C 	C 	0.47047 0.36356 0.92326 0.00900
C 	C 	0.47970 0.33382 0.91505 -0.04100
C 	C 	0.50895 0.32612 0.92077 0.01000
C 	C 	0.52000 0.37907 0.93807 0.01000
C 	C 	0.51729 0.29374 0.92408 0.10600
N 	N 	0.50250 0.27216 0.90121 -0.07900
N 	N 	0.50419 0.24282 0.91238 -0.08000
C 	C 	0.52079 0.23418 0.94666 0.10600
N 	N 	0.53755 0.25544 0.96699 -0.07700
N 	N 	0.53578 0.28479 0.95591 -0.07800
C 	C 	0.51629 0.20378 0.96663 0.01200
C 	C 	0.49518 0.15297 0.96065 0.01400
C 	C 	0.49296 0.15120 0.00626 -0.07600
C 	C 	0.50569 0.17427 0.03183 0.01500
C 	C 	0.51720 0.20047 0.01214 -0.04200
C 	C 	0.52926 0.34926 0.93007 -0.04100
C 	C 	0.50680 0.17914 0.94096 -0.04400
H 	H 	0.44761 0.36880 0.92132 0.04500
H 	H 	0.46383 0.31637 0.90703 0.05700
H 	H 	0.55201 0.34385 0.93328 0.05800
H 	H 	0.53565 0.39629 0.94789 0.04700
H 	H 	0.50713 0.18083 0.90577 0.05900
H 	H 	0.48663 0.13480 0.94038 0.04900
H 	H 	0.52526 0.21889 0.03242 0.06400
H 	H 	0.50542 0.17260 0.06702 0.07200
C 	C 	0.38717 0.47776 0.00698 -0.09300
C 	C 	0.36450 0.46354 0.03001 0.01800
C 	C 	0.33574 0.46840 0.01781 -0.05000
C 	C 	0.32932 0.48772 0.98261 0.01500
C 	C 	0.38083 0.49607 0.97075 0.02000
C 	C 	0.29896 0.49563 0.97274 0.10500
N 	N 	0.27895 0.49653 0.00516 -0.07900
N 	N 	0.25264 0.50759 0.99761 -0.07400
C 	C 	0.24556 0.51815 0.95747 0.10800
N 	N 	0.26517 0.51616 0.92465 -0.07800
N 	N 	0.29144 0.50495 0.93213 -0.07900
C 	C 	0.21868 0.53546 0.95126 0.01100
C 	C 	0.16815 0.54364 0.96954 0.01900
C 	C 	0.16958 0.57287 0.95078 -0.06900
C 	C 	0.19510 0.58245 0.92980 0.01200
C 	C 	0.21950 0.56381 0.92994 -0.04100
C 	C 	0.35209 0.50108 0.95867 -0.04900
C 	C 	0.19268 0.52511 0.97010 -0.03100
H 	H 	0.36912 0.44887 0.05751 0.03800
H 	H 	0.31845 0.45742 0.03602 0.05900
H 	H 	0.34755 0.51608 0.93151 0.06000
H 	H 	0.39811 0.50718 0.95268 0.04500
H 	H 	0.19165 0.50303 0.98599 0.07300
H 	H 	0.14840 0.53569 0.98500 0.10900
H 	H 	0.23938 0.57196 0.91502 0.05700
H 	H 	0.19628 0.60468 0.91433 0.04200
C 	C 	0.54239 0.45919 0.08646 -0.09400
C 	C 	0.55642 0.43139 0.07851 0.01700
C 	C 	0.58623 0.43096 0.07050 -0.04800
C 	C 	0.60228 0.45832 0.07030 0.01300
C 	C 	0.55884 0.48626 0.08915 0.01900
C 	C 	0.63257 0.45865 0.05517 0.10400
N 	N 	0.65110 0.43638 0.06767 -0.07800
N 	N 	0.67837 0.43653 0.05335 -0.07800
C 	C 	0.68780 0.45881 0.02583 0.10500
N 	N 	0.66915 0.48089 0.01308 -0.07900
N 	N 	0.64197 0.48084 0.02758 -0.07900
C 	C 	0.71826 0.45966 0.01099 0.01500
C 	C 	0.76272 0.43347 0.99177 0.02100
C 	C 	0.77593 0.46157 0.98150 -0.08200
C 	C 	0.76018 0.48867 0.98612 0.02100
C 	C 	0.73160 0.48773 0.00090 -0.04700
C 	C 	0.58860 0.48583 0.08101 -0.04900
C 	C 	0.73399 0.43250 0.00633 -0.04700
H 	H 	0.54405 0.41029 0.07690 0.04200
H 	H 	0.59658 0.40955 0.06262 0.05900
H 	H 	0.60088 0.50702 0.08176 0.05600
H 	H 	0.54836 0.50788 0.09534 0.03900
H 	H 	0.72392 0.41064 0.01355 0.06100
H 	H 	0.77460 0.41239 0.98818 0.04700
H 	H 	0.71992 0.50890 0.00490 0.06100
H 	H 	0.77025 0.51053 0.97895 0.03900
C 	C 	0.61291 0.78249 0.05874 -0.07100
C 	C 	0.59660 0.77872 0.02047 0.01600
C 	C 	0.58358 0.75055 0.01104 -0.03000
C 	C 	0.58665 0.72584 0.03982 0.01200
C 	C 	0.61575 0.75782 0.08766 0.01100
C 	C 	0.57305 0.69603 0.02987 0.10900
N 	N 	0.54703 0.69465 0.00936 -0.07300
N 	N 	0.53396 0.66780 0.00272 -0.07500
C 	C 	0.54651 0.64155 0.01645 0.10600
N 	N 	0.57276 0.64291 0.03626 -0.07900
N 	N 	0.58586 0.66974 0.04279 -0.07900
C 	C 	0.53088 0.61209 0.01276 0.01300
C 	C 	0.48595 0.58295 0.01691 0.01600
C 	C 	0.50154 0.55558 0.01526 -0.08700
C 	C 	0.53178 0.55663 0.01035 0.01600
C 	C 	0.54636 0.58472 0.00903 -0.04700
C 	C 	0.60269 0.72970 0.07827 -0.04200
C 	C 	0.50052 0.61104 0.01573 -0.04800
H 	H 	0.59398 0.79758 0.99804 0.11200
H 	H 	0.57136 0.74787 0.98119 0.08200
H 	H 	0.60492 0.71097 0.10104 0.05600
H 	H 	0.62830 0.76030 0.11724 0.03400
H 	H 	0.48826 0.63193 0.01847 0.06000
H 	H 	0.46257 0.58247 0.02000 0.04100
H 	H 	0.56972 0.58517 0.00588 0.05900
H 	H 	0.54409 0.53569 0.00899 0.04400
