data_crystal

_cell_length_a 26.93744
_cell_length_b 26.79929
_cell_length_c 26.74142
_cell_angle_alpha 89.91409
_cell_angle_beta  89.90474
_cell_angle_gamma 89.90475

_symmetry_space_group_name_	'P 1'
_symmetry_space_group_name_H-M	'P 1'

loop_
_symmetry_equiv_pos_as_xyz
  x,y,z

loop_
_atom_site_label
_atom_site_type_symbol
_atom_site_fract_x
_atom_site_fract_y
_atom_site_fract_z
_atom_site_charge
Co	Co	0.97008 0.02517 0.43655 1.17600
Co	Co	0.04320 0.96696 0.56939 1.18800
Co	Co	0.96957 0.04562 0.55623 1.17700
Co	Co	0.04494 0.94836 0.44943 1.18900
C 	C 	0.98465 0.07599 0.33738 0.31000
Co	Co	0.00480 0.96470 0.33690 1.17700
Co	Co	0.99842 0.01917 0.67024 1.15000
C 	C 	0.01262 0.86566 0.38656 0.29300
O 	O 	0.92679 0.04724 0.66316 -0.41600
O 	O 	0.00870 0.01340 0.59267 -0.75200
C 	C 	0.89463 0.02562 0.63345 0.30800
O 	O 	0.93943 0.06751 0.49068 -0.47700
O 	O 	0.07543 0.92619 0.51476 -0.46900
C 	C 	0.99194 0.90915 0.65174 0.27600
O 	O 	0.02318 0.01188 0.50067 -0.57200
C 	C 	0.00444 0.12499 0.63271 0.32100
C 	C 	0.89919 0.96656 0.37156 0.29700
C 	C 	0.11366 0.97825 0.36237 0.28900
O 	O 	0.90769 0.01305 0.58782 -0.41000
O 	O 	0.93302 0.93904 0.34888 -0.40400
O 	O 	0.90731 0.98466 0.41677 -0.40000
O 	O 	0.97019 0.94744 0.67377 -0.39700
O 	O 	0.00260 0.91072 0.60343 -0.37600
O 	O 	0.02728 0.08995 0.65903 -0.38900
O 	O 	0.98017 0.11490 0.59044 -0.40700
O 	O 	0.07668 0.99232 0.33272 -0.37900
O 	O 	0.10646 0.94869 0.40178 -0.38000
O 	O 	0.00990 0.98424 0.41259 -0.76000
C 	C 	0.10722 0.99879 0.65603 0.30600
O 	O 	0.06845 0.98961 0.68447 -0.39600
O 	O 	0.10663 0.98757 0.60802 -0.38900
O 	O 	0.97378 0.03295 0.31646 -0.42300
O 	O 	0.98905 0.08026 0.38625 -0.40900
O 	O 	0.03172 0.89311 0.35066 -0.39300
O 	O 	0.00673 0.88456 0.43152 -0.39000
Co	Co	0.95892 0.43945 0.02483 1.17300
Co	Co	0.04916 0.56554 0.97422 1.19300
Co	Co	0.96616 0.55954 0.04380 1.17500
Co	Co	0.04110 0.44581 0.95431 1.19000
C 	C 	0.88966 0.37456 0.96593 0.29600
Co	Co	0.99307 0.33625 0.96878 1.15400
Co	Co	0.01290 0.67038 0.02105 1.17000
C 	C 	0.10291 0.35183 0.97950 0.30300
O 	O 	0.97972 0.66966 0.09125 -0.42200
O 	O 	0.01276 0.59198 0.01705 -0.75800
C 	C 	0.98788 0.63477 0.12487 0.30800
O 	O 	0.92798 0.49718 0.06187 -0.47600
O 	O 	0.07680 0.50873 0.93336 -0.46600
C 	C 	0.12000 0.64136 0.02386 0.28300
O 	O 	0.01761 0.49912 0.01553 -0.57600
C 	C 	0.90593 0.64574 0.00588 0.28900
C 	C 	0.97259 0.34158 0.07918 0.30700
C 	C 	0.00907 0.38376 0.86957 0.34300
O 	O 	0.97835 0.58748 0.11499 -0.39800
O 	O 	0.96012 0.31948 0.03720 -0.42200
O 	O 	0.96845 0.39040 0.08411 -0.40000
O 	O 	0.08275 0.65927 0.05066 -0.39100
O 	O 	0.11497 0.60075 0.99552 -0.37200
O 	O 	0.94244 0.67435 0.99006 -0.39200
O 	O 	0.91059 0.59672 0.00544 -0.40900
O 	O 	0.02370 0.34679 0.89827 -0.40400
O 	O 	0.00608 0.42929 0.88769 -0.39900
O 	O 	0.00114 0.41174 0.98813 -0.74400
C 	C 	0.02722 0.65322 0.91152 0.29900
O 	O 	0.04379 0.67879 0.94991 -0.39600
O 	O 	0.01712 0.60551 0.91656 -0.39100
O 	O 	0.92304 0.34957 0.94015 -0.40100
O 	O 	0.89862 0.42067 0.98073 -0.39700
O 	O 	0.06336 0.33029 0.99927 -0.38200
O 	O 	0.10182 0.39799 0.96097 -0.38100
Co	Co	0.57636 0.03560 0.04787 1.18500
Co	Co	0.45100 0.96678 0.97132 1.19500
Co	Co	0.45553 0.04274 0.04896 1.18300
Co	Co	0.57153 0.95910 0.97124 1.19000
C 	C 	0.64923 0.99767 0.11947 0.30800
Co	Co	0.68151 0.98956 0.01378 1.16300
Co	Co	0.34552 0.00660 0.01080 1.16100
C 	C 	0.66024 0.97472 0.90440 0.30200
O 	O 	0.34201 0.07777 0.04123 -0.41400
O 	O 	0.42318 0.00919 0.00685 -0.77900
C 	C 	0.37187 0.11400 0.02755 0.31000
O 	O 	0.51806 0.06979 0.08073 -0.47400
O 	O 	0.50916 0.93030 0.94105 -0.46700
C 	C 	0.37118 0.01117 0.90118 0.29300
O 	O 	0.51436 0.01673 0.99438 -0.57800
C 	C 	0.37626 0.00166 0.11737 0.29200
C 	C 	0.65980 0.10051 0.00337 0.26100
C 	C 	0.64210 0.88534 0.01792 0.30000
O 	O 	0.42038 0.10932 0.03193 -0.39500
O 	O 	0.68542 0.06190 0.98591 -0.37600
O 	O 	0.62572 0.09523 0.03915 -0.37900
O 	O 	0.34947 0.03469 0.93887 -0.38900
O 	O 	0.40733 0.97783 0.90797 -0.38000
O 	O 	0.34986 0.97889 0.08294 -0.38800
O 	O 	0.42462 0.00807 0.11135 -0.39700
O 	O 	0.67122 0.91770 0.04040 -0.39700
O 	O 	0.59497 0.89609 0.00966 -0.40300
O 	O 	0.60445 0.99908 0.00631 -0.77600
C 	C 	0.37147 0.89854 0.00122 0.29500
O 	O 	0.34222 0.93374 0.98359 -0.39000
O 	O 	0.41862 0.90814 0.00929 -0.40300
O 	O 	0.68118 0.01552 0.08687 -0.40900
O 	O 	0.60191 0.99503 0.10788 -0.40200
O 	O 	0.68770 0.95977 0.94218 -0.40200
O 	O 	0.61137 0.97207 0.90652 -0.39100
C 	C 	0.80662 0.73581 0.04619 -0.06300
C 	C 	0.76531 0.71822 0.01966 0.01100
C 	C 	0.76936 0.67421 0.99147 -0.05500
C 	C 	0.81494 0.64917 0.98833 0.02800
C 	C 	0.85670 0.66820 0.01317 -0.10100
C 	C 	0.85202 0.71096 0.04292 0.01300
C 	C 	0.71996 0.74908 0.01705 0.01100
H 	H 	0.73764 0.66021 0.97099 0.04700
H 	H 	0.81813 0.61604 0.96538 0.03500
H 	H 	0.88393 0.72556 0.06269 0.02400
H 	H 	0.80399 0.76983 0.06789 0.04300
C 	C 	0.69690 0.76497 0.06140 -0.06400
C 	C 	0.66637 0.80719 0.06109 0.02100
C 	C 	0.65799 0.83312 0.01629 -0.10000
C 	C 	0.67536 0.81312 0.97112 0.02300
C 	C 	0.70640 0.77126 0.97146 -0.05200
H 	H 	0.70589 0.74713 0.09664 0.04500
H 	H 	0.65222 0.82179 0.09610 0.03300
H 	H 	0.66823 0.83239 0.93619 0.02800
H 	H 	0.72306 0.75864 0.93681 0.04600
C 	C 	0.77109 0.31086 0.93063 -0.06500
C 	C 	0.75909 0.28747 0.97616 0.03100
C 	C 	0.78431 0.30160 0.01987 -0.07200
C 	C 	0.82397 0.33510 0.01722 0.00100
C 	C 	0.83948 0.35393 0.97082 -0.07800
C 	C 	0.81161 0.34339 0.92785 0.01700
C 	C 	0.72603 0.24323 0.97677 0.02400
H 	H 	0.77521 0.28433 0.05537 0.04600
H 	H 	0.84500 0.34342 0.05070 0.02900
H 	H 	0.82288 0.35830 0.89191 0.03100
H 	H 	0.75087 0.30163 0.89691 0.04600
C 	C 	0.68941 0.23816 0.01393 -0.06600
C 	C 	0.66532 0.19239 0.02088 -0.00900
C 	C 	0.67719 0.15139 0.99026 -0.05200
C 	C 	0.71021 0.15812 0.95005 0.00000
C 	C 	0.73498 0.20346 0.94379 -0.05700
H 	H 	0.68104 0.26904 0.03867 0.04400
H 	H 	0.63892 0.18841 0.05120 0.04300
H 	H 	0.71830 0.12756 0.92483 0.03700
H 	H 	0.76274 0.20692 0.91464 0.04200
C 	C 	0.25074 0.68234 0.99264 -0.05100
C 	C 	0.25651 0.72282 0.02541 0.01000
C 	C 	0.22065 0.73132 0.06260 -0.06100
C 	C 	0.17763 0.70228 0.06443 0.01100
C 	C 	0.16960 0.66478 0.02860 -0.09200
C 	C 	0.20738 0.65366 0.99397 0.02100
C 	C 	0.29545 0.76060 0.01590 0.01200
H 	H 	0.22489 0.76206 0.08850 0.04400
H 	H 	0.14973 0.71030 0.09252 0.03400
H 	H 	0.20238 0.62424 0.96673 0.03900
H 	H 	0.27873 0.67465 0.96454 0.04600
C 	C 	0.32571 0.77752 0.05515 -0.06300
C 	C 	0.35437 0.82069 0.04907 0.01700
C 	C 	0.35308 0.84701 0.00370 -0.09800
C 	C 	0.32651 0.82744 0.96316 0.02600
C 	C 	0.29771 0.78459 0.96924 -0.05300
H 	H 	0.32515 0.75867 0.09102 0.04600
H 	H 	0.37523 0.83517 0.08046 0.03400
H 	H 	0.32605 0.84700 0.92766 0.03300
H 	H 	0.27497 0.77168 0.93850 0.04600
C 	C 	0.30891 0.21772 0.95896 -0.07200
C 	C 	0.28462 0.24181 0.99864 0.03400
C 	C 	0.29748 0.22996 0.04807 -0.08300
C 	C 	0.33025 0.19067 0.05773 0.03100
C 	C 	0.35063 0.16332 0.01801 -0.11200
C 	C 	0.34185 0.17855 0.96865 0.03600
C 	C 	0.23966 0.27147 0.98886 0.04100
H 	H 	0.27942 0.24882 0.07897 0.05000
H 	H 	0.33732 0.17947 0.09602 0.02600
H 	H 	0.35788 0.15792 0.93775 0.02600
H 	H 	0.29981 0.22717 0.92064 0.04900
C 	C 	0.23847 0.32255 0.00019 -0.10300
C 	C 	0.19401 0.34930 0.99600 0.05800
C 	C 	0.15041 0.32491 0.98096 -0.10100
C 	C 	0.15201 0.27412 0.96854 0.02800
C 	C 	0.19643 0.24758 0.97232 -0.07300
H 	H 	0.27168 0.34126 0.01309 0.05400
H 	H 	0.19318 0.38854 0.00562 0.01600
H 	H 	0.11870 0.25511 0.95633 0.02500
H 	H 	0.19702 0.20809 0.96366 0.05000
C 	C 	0.69344 0.96830 0.76722 -0.06600
C 	C 	0.73621 0.99810 0.76585 0.02900
C 	C 	0.75228 0.02215 0.80948 -0.06900
C 	C 	0.72662 0.01547 0.85439 0.01200
C 	C 	0.68450 0.98484 0.85614 -0.08700
C 	C 	0.66751 0.96186 0.81219 0.01800
C 	C 	0.76616 0.00171 0.71978 0.01100
H 	H 	0.78532 0.04514 0.80879 0.04400
H 	H 	0.73983 0.03363 0.88801 0.02600
H 	H 	0.63509 0.93800 0.81314 0.03500
H 	H 	0.68075 0.94960 0.73372 0.04800
C 	C 	0.79429 0.96054 0.70383 -0.05800
C 	C 	0.83328 0.96724 0.66986 0.01800
C 	C 	0.84452 0.01515 0.65197 -0.09600
C 	C 	0.81279 0.05509 0.66345 0.01700
C 	C 	0.77366 0.04838 0.69718 -0.06200
H 	H 	0.78824 0.92412 0.72039 0.04500
H 	H 	0.85719 0.93599 0.66069 0.03400
H 	H 	0.82068 0.09210 0.64917 0.02800
H 	H 	0.75139 0.08017 0.70837 0.04500
C 	C 	0.30576 0.97711 0.78240 -0.05900
C 	C 	0.28587 0.02353 0.76838 0.01600
C 	C 	0.30208 0.06695 0.79273 -0.06200
C 	C 	0.33334 0.06336 0.83427 0.01300
C 	C 	0.34945 0.01643 0.85109 -0.08700
C 	C 	0.33766 0.97364 0.82339 0.01600
C 	C 	0.24245 0.02557 0.73470 0.02500
H 	H 	0.28816 0.10316 0.78129 0.04500
H 	H 	0.34320 0.09679 0.85469 0.03100
H 	H 	0.35039 0.93726 0.83566 0.03700
H 	H 	0.29403 0.94337 0.76357 0.04600
C 	C 	0.24367 0.00105 0.68832 -0.07200
C 	C 	0.19983 0.99418 0.66120 0.02500
C 	C 	0.15452 0.01223 0.68008 -0.09500
C 	C 	0.15411 0.04017 0.72442 0.02000
C 	C 	0.19772 0.04650 0.75176 -0.06600
H 	H 	0.27816 0.98560 0.67429 0.05000
H 	H 	0.20085 0.97321 0.62662 0.03600
H 	H 	0.11965 0.05561 0.73857 0.02700
H 	H 	0.19631 0.06576 0.78733 0.04700
C 	C 	0.28158 0.04221 0.21139 -0.06100
C 	C 	0.29126 0.00905 0.25092 0.01800
C 	C 	0.33474 0.97989 0.24982 -0.06100
C 	C 	0.36550 0.98047 0.20748 0.02100
C 	C 	0.35336 0.01071 0.16639 -0.09100
C 	C 	0.31266 0.04324 0.16958 0.01000
C 	C 	0.25267 0.00010 0.28956 0.01500
H 	H 	0.34340 0.95511 0.28064 0.04600
H 	H 	0.39714 0.95552 0.20560 0.03400
H 	H 	0.30340 0.06725 0.13832 0.03000
H 	H 	0.24844 0.06516 0.21177 0.04500
C 	C 	0.22862 0.04065 0.31261 -0.05800
C 	C 	0.18429 0.03325 0.33897 0.00700
C 	C 	0.16461 0.98510 0.34400 -0.07700
C 	C 	0.19101 0.94412 0.32504 0.01100
C 	C 	0.23461 0.95156 0.29760 -0.05600
H 	H 	0.24287 0.07814 0.30788 0.04500
H 	H 	0.16443 0.06508 0.35397 0.03100
H 	H 	0.17623 0.90674 0.32906 0.03600
H 	H 	0.25277 0.91988 0.28028 0.04500
C 	C 	0.78338 0.01094 0.30764 -0.06800
C 	C 	0.76085 0.96536 0.29515 0.02700
C 	C 	0.77991 0.92077 0.31518 -0.06600
C 	C 	0.82387 0.92130 0.34293 0.01800
C 	C 	0.84835 0.96655 0.35200 -0.08600
C 	C 	0.82678 0.01148 0.33620 0.01000
C 	C 	0.72349 0.96370 0.25466 0.01300
H 	H 	0.76219 0.88548 0.30689 0.04600
H 	H 	0.83984 0.88644 0.35578 0.03100
H 	H 	0.84525 0.04663 0.34343 0.02600
H 	H 	0.76897 0.04566 0.29272 0.04600
C 	C 	0.68236 0.99606 0.25551 -0.04800
C 	C 	0.65439 0.00376 0.21205 0.00300
C 	C 	0.66722 0.97893 0.16772 -0.08100
C 	C 	0.70481 0.94269 0.16849 0.01000
C 	C 	0.73295 0.93522 0.21164 -0.05800
H 	H 	0.67380 0.01724 0.28891 0.04000
H 	H 	0.62489 0.03128 0.21205 0.03400
H 	H 	0.71434 0.92257 0.13469 0.03100
H 	H 	0.76411 0.90963 0.21062 0.04200
C 	C 	0.03734 0.34778 0.73885 -0.02300
C 	C 	0.99802 0.31441 0.73059 -0.05100
C 	C 	0.95585 0.31687 0.76146 -0.04700
C 	C 	0.95618 0.34692 0.80414 0.01700
C 	C 	0.99890 0.37397 0.81669 -0.14500
C 	C 	0.03782 0.37740 0.78194 0.04700
C 	C 	0.00507 0.27100 0.69707 0.09500
H 	H 	0.92457 0.29244 0.75477 0.03700
H 	H 	0.92520 0.34525 0.82999 0.02800
H 	H 	0.07045 0.39933 0.79054 0.02700
H 	H 	0.06925 0.34781 0.71413 0.04000
C 	C 	0.96797 0.25787 0.66268 -0.10900
C 	C 	0.96918 0.21118 0.63928 -0.00100
C 	C 	0.00775 0.17735 0.64975 -0.06800
C 	C 	0.04694 0.19225 0.68092 0.02200
C 	C 	0.04547 0.23866 0.70462 -0.08500
H 	H 	0.93708 0.28288 0.65581 0.05400
H 	H 	0.93900 0.20051 0.61483 0.03600
H 	H 	0.07768 0.16718 0.68823 0.03400
H 	H 	0.07453 0.24842 0.73079 0.05500
C 	C 	0.05511 0.74071 0.80506 -0.05800
C 	C 	0.01125 0.73738 0.77701 0.03500
C 	C 	0.97546 0.70146 0.78982 -0.08100
C 	C 	0.98210 0.67141 0.83219 -0.01400
C 	C 	0.02451 0.67718 0.86206 -0.05700
C 	C 	0.06172 0.71074 0.84730 0.00900
C 	C 	0.00043 0.77532 0.73834 0.06100
H 	H 	0.94175 0.69811 0.76805 0.04600
H 	H 	0.95328 0.64539 0.84304 0.03700
H 	H 	0.09502 0.71485 0.86958 0.03700
H 	H 	0.08311 0.76807 0.79540 0.04700
C 	C 	0.96009 0.80795 0.74460 -0.10900
C 	C 	0.95545 0.85013 0.71415 0.03700
C 	C 	0.99131 0.86029 0.67729 -0.12500
C 	C 	0.02960 0.82572 0.66864 0.05800
C 	C 	0.03408 0.78336 0.69898 -0.08400
H 	H 	0.93363 0.80189 0.77454 0.05300
H 	H 	0.92484 0.87569 0.72026 0.02700
H 	H 	0.05718 0.83279 0.63997 0.02400
H 	H 	0.06491 0.75798 0.69331 0.05500
C 	C 	0.03580 0.70650 0.23517 -0.04500
C 	C 	0.99932 0.69606 0.27128 0.00600
C 	C 	0.96308 0.65983 0.26121 -0.06900
C 	C 	0.96135 0.63685 0.21422 0.02400
C 	C 	0.99577 0.65009 0.17701 -0.12200
C 	C 	0.03395 0.68370 0.18828 0.04500
C 	C 	0.99501 0.72821 0.31599 -0.02300
H 	H 	0.93507 0.65105 0.28896 0.04500
H 	H 	0.93184 0.61072 0.20599 0.03000
H 	H 	0.06100 0.69374 0.15998 0.02500
H 	H 	0.06404 0.73427 0.24251 0.04600
C 	C 	0.03638 0.73537 0.34703 -0.01400
C 	C 	0.03932 0.77790 0.37720 -0.01100
C 	C 	0.00088 0.81328 0.37653 -0.03900
C 	C 	0.95642 0.80187 0.35185 -0.03900
C 	C 	0.95355 0.75958 0.32141 -0.03600
H 	H 	0.06792 0.71035 0.34461 0.04000
H 	H 	0.07334 0.78564 0.39727 0.03900
H 	H 	0.92590 0.82825 0.35226 0.04100
H 	H 	0.92076 0.75367 0.29878 0.03700
C 	C 	0.01633 0.23703 0.16218 -0.04000
C 	C 	0.98582 0.24356 0.20420 -0.00300
C 	C 	0.95419 0.28511 0.20697 -0.06500
C 	C 	0.95156 0.31873 0.16701 0.02300
C 	C 	0.98027 0.31073 0.12389 -0.12300
C 	C 	0.01342 0.27036 0.12210 0.04400
C 	C 	0.98287 0.20404 0.24228 -0.00200
H 	H 	0.93058 0.29047 0.23936 0.04500
H 	H 	0.92585 0.34982 0.16877 0.03000
H 	H 	0.03607 0.26416 0.08915 0.02600
H 	H 	0.04095 0.20510 0.15983 0.04500
C 	C 	0.94321 0.17024 0.24151 -0.06700
C 	C 	0.94322 0.12901 0.27348 0.02200
C 	C 	0.98279 0.12140 0.30670 -0.12600
C 	C 	0.02152 0.15626 0.30888 0.04800
C 	C 	0.02170 0.19734 0.27654 -0.04200
H 	H 	0.91305 0.17523 0.21520 0.04400
H 	H 	0.91278 0.10267 0.27205 0.02700
H 	H 	0.05214 0.15077 0.33455 0.03000
H 	H 	0.05246 0.22332 0.27736 0.04800
