data_crystal

_cell_length_a 31.19102
_cell_length_b 28.56605
_cell_length_c 19.13057
_cell_angle_alpha 92.67318
_cell_angle_beta  85.32075
_cell_angle_gamma 124.37128

_symmetry_space_group_name_	'P 1'
_symmetry_space_group_name_H-M	'P 1'

loop_
_symmetry_equiv_pos_as_xyz
  x,y,z

loop_
_atom_site_label
_atom_site_type_symbol
_atom_site_fract_x
_atom_site_fract_y
_atom_site_fract_z
_atom_site_charge
C 	C 	0.12009 0.03189 0.99940 -0.07300
C 	C 	0.08085 0.99467 0.04897 0.03000
C 	C 	0.02906 0.97460 0.04096 -0.05200
C 	C 	0.01569 0.99083 0.98285 0.06500
C 	C 	0.05498 0.02704 0.93193 -0.07700
C 	C 	0.10699 0.04782 0.94063 0.00900
H 	H 	0.09063 0.98228 0.09459 0.04400
H 	H 	0.04538 0.03896 0.88585 0.05400
H 	H 	0.13703 0.07621 0.90174 0.03600
N 	N 	0.01282 0.02847 0.66942 -0.14200
C 	C 	0.17844 0.12500 0.66169 -0.01800
C 	C 	0.14858 0.08748 0.71732 -0.00300
C 	C 	0.09426 0.05703 0.72037 -0.07100
C 	C 	0.06919 0.06322 0.66746 0.08600
C 	C 	0.09939 0.10118 0.61169 -0.07300
C 	C 	0.15367 0.13222 0.60942 -0.00100
H 	H 	0.16741 0.08162 0.75793 0.04500
H 	H 	0.07146 0.02749 0.76290 0.05500
H 	H 	0.08100 0.10541 0.56919 0.06100
H 	H 	0.17644 0.16067 0.56587 0.05200
H 	H 	0.04957 0.98653 0.56842 0.05800
C 	C 	0.48638 0.21091 0.06952 0.26100
C 	C 	0.39435 0.23487 0.60620 0.10700
N 	N 	0.42817 0.29176 0.61410 -0.06400
N 	N 	0.47767 0.31771 0.58947 -0.05100
C 	C 	0.49454 0.28761 0.55551 0.05800
N 	N 	0.46085 0.23069 0.54805 -0.05100
N 	N 	0.41152 0.20463 0.57345 -0.06300
C 	C 	0.23529 0.15429 0.65595 0.11800
N 	N 	0.25666 0.12390 0.65089 -0.07600
N 	N 	0.30776 0.14985 0.63692 -0.06400
C 	C 	0.33898 0.20698 0.62828 0.10200
N 	N 	0.31777 0.23753 0.63523 -0.06400
N 	N 	0.26659 0.21150 0.64836 -0.07500
C 	C 	0.27305 0.10134 0.04662 0.10500
N 	N 	0.25716 0.13559 0.03451 -0.06000
N 	N 	0.20881 0.11345 0.01680 -0.07400
C 	C 	0.17490 0.05643 0.01110 0.15200
N 	N 	0.19078 0.02214 0.02310 -0.07500
N 	N 	0.23937 0.04433 0.03992 -0.06100
C 	C 	0.42947 0.17798 0.07980 0.06300
N 	N 	0.40023 0.12325 0.05774 -0.04700
N 	N 	0.34944 0.09754 0.05070 -0.05900
C 	C 	0.32661 0.12601 0.06505 0.11000
N 	N 	0.35528 0.17964 0.09059 -0.06100
N 	N 	0.40590 0.20515 0.09814 -0.04800
C 	C 	0.01346 0.95443 0.59600 -0.06800
O 	O 	0.50990 0.18916 0.03936 -0.29800
O 	O 	0.51278 0.26435 0.05605 -0.32100
C 	C 	0.54782 0.31673 0.52379 0.26200
O 	O 	0.54799 0.23912 0.88816 -0.34600
O 	O 	0.56449 0.29130 0.48496 -0.31400
Co	Co	0.57233 0.26858 0.99187 1.17500
O 	O 	0.58598 0.36421 0.54696 -0.33300
C 	C 	0.58431 0.23243 0.86405 0.32700
H 	H 	0.60887 0.34143 0.28264 0.07100
I 	I 	0.60617 0.37251 0.13089 -0.07000
O 	O 	0.61021 0.23428 0.91502 -0.46000
C 	C 	0.61005 0.25428 0.79392 -0.10700
I 	I 	0.62149 0.15323 0.78514 -0.06300
O 	O 	0.61592 0.34969 0.96114 -0.38900
O 	O 	0.63403 0.27534 0.03527 -0.43100
C 	C 	0.61449 0.30225 0.76859 -0.01000
C 	C 	0.63177 0.22932 0.75313 0.06300
H 	H 	0.59795 0.32171 0.79982 0.06500
C 	C 	0.63855 0.33859 0.25330 -0.01000
Co	Co	0.64513 0.35926 0.49521 1.18800
C 	C 	0.63948 0.33657 0.18013 0.05700
O 	O 	0.66156 0.38571 0.38871 -0.35100
C 	C 	0.64480 0.32890 0.70724 0.05300
C 	C 	0.65866 0.25351 0.68844 -0.01400
H 	H 	0.00782 0.88667 0.53413 0.05300
C 	C 	0.66431 0.37754 0.93216 0.30000
C 	C 	0.67312 0.31915 0.06493 0.29900
O 	O 	0.66675 0.31368 0.54054 -0.45400
C 	C 	0.66526 0.30327 0.66516 -0.07900
H 	H 	0.67428 0.23354 0.65622 0.06900
C 	C 	0.67368 0.32595 0.14210 -0.07000
C 	C 	0.68003 0.34573 0.28785 -0.07300
I 	I 	0.66675 0.41236 0.68772 -0.07300
N 	N 	0.67024 0.46678 0.94664 -0.04900
O 	O 	0.68272 0.32867 0.40999 -0.44200
C 	C 	0.68447 0.36167 0.36314 0.30000
Co	Co	0.68681 0.29178 0.93209 1.18100
O 	O 	0.68132 0.35102 0.89282 -0.52000
C 	C 	0.69228 0.32722 0.59637 0.31400
C 	C 	0.69397 0.43976 0.92846 0.03000
N 	N 	0.69707 0.52313 0.94327 -0.06600
O 	O 	0.70565 0.23186 0.94927 -0.32400
H 	H 	0.70283 0.36919 0.84742 0.18700
O 	O 	0.70998 0.42698 0.52735 -0.39700
C 	C 	0.71323 0.32909 0.17705 -0.01300
O 	O 	0.71630 0.33794 0.02703 -0.33400
C 	C 	0.71962 0.34490 0.24793 0.06600
H 	H 	0.99913 0.94658 0.08017 0.06400
H 	H 	0.99763 0.10345 0.73428 0.06000
C 	C 	0.91820 0.06800 0.88354 -0.03000
C 	C 	0.92126 0.02761 0.84319 0.00400
C 	C 	0.93987 0.99860 0.87154 -0.08800
C 	C 	0.95149 0.00637 0.94251 0.10300
C 	C 	0.94968 0.04780 0.98207 -0.11200
C 	C 	0.93374 0.07899 0.95252 0.01500
N 	N 	0.96176 0.96982 0.97647 -0.14900
C 	C 	0.86534 0.79297 0.93424 -0.01300
C 	C 	0.91219 0.82761 0.89352 -0.00600
C 	C 	0.94365 0.88594 0.90621 -0.07600
C 	C 	0.92832 0.91033 0.95951 0.09100
C 	C 	0.88075 0.87604 0.99830 -0.09400
C 	C 	0.84944 0.81769 0.98599 -0.02500
H 	H 	0.90864 0.01818 0.79026 0.04100
H 	H 	0.94393 0.96918 0.83915 0.05500
H 	H 	0.95940 0.05478 0.03633 0.09300
H 	H 	0.93143 0.11006 0.98416 0.04200
H 	H 	0.92433 0.80934 0.85231 0.04900
H 	H 	0.97970 0.91219 0.87457 0.05500
H 	H 	0.86860 0.89458 0.03910 0.08600
H 	H 	0.81347 0.79153 0.01787 0.07700
C 	C 	0.94191 0.10370 0.58851 -0.01700
C 	C 	0.94915 0.06697 0.54619 -0.00100
C 	C 	0.97343 0.04309 0.57168 -0.07300
C 	C 	0.98944 0.05450 0.64085 0.08500
C 	C 	0.98350 0.09256 0.68219 -0.07100
C 	C 	0.95955 0.11678 0.65641 -0.00200
C 	C 	0.94130 0.85561 0.60852 -0.01700
C 	C 	0.98953 0.89769 0.57609 -0.00700
C 	C 	0.98960 0.96970 0.64952 0.07900
C 	C 	0.94156 0.92743 0.68204 -0.07000
C 	C 	0.91765 0.87070 0.66199 -0.00600
H 	H 	0.93664 0.05757 0.49317 0.05100
H 	H 	0.98019 0.01626 0.53762 0.06000
H 	H 	0.95443 0.14541 0.68934 0.05500
H 	H 	0.92218 0.93881 0.72167 0.05500
H 	H 	0.88053 0.83853 0.68767 0.05000
O 	O 	0.74324 0.29112 0.86532 -0.34800
C 	C 	0.74057 0.25091 0.89774 0.26500
Co	Co	0.74196 0.34264 0.46865 1.18600
O 	O 	0.80126 0.33474 0.42498 -0.33800
O 	O 	0.72858 0.26038 0.45529 -0.31600
C 	C 	0.75447 0.45370 0.48932 0.31400
O 	O 	0.73888 0.33975 0.58101 -0.34000
O 	O 	0.77608 0.42689 0.46366 -0.50600
C 	C 	0.77515 0.28024 0.42879 0.26700
H 	H 	0.81193 0.44954 0.43835 0.19100
H 	H 	0.74194 0.32462 0.14768 0.07400
I 	I 	0.79481 0.38464 0.28437 -0.10000
C 	C 	0.86552 0.68822 0.53758 0.10200
N 	N 	0.83840 0.71182 0.55326 -0.06400
N 	N 	0.86253 0.76507 0.57635 -0.07600
C 	C 	0.91451 0.79632 0.58436 0.11700
N 	N 	0.94173 0.77286 0.56829 -0.07600
N 	N 	0.91753 0.71947 0.54550 -0.06500
C 	C 	0.78533 0.51605 0.48886 0.03300
N 	N 	0.83728 0.54661 0.49723 -0.05700
N 	N 	0.86343 0.60216 0.51011 -0.06500
C 	C 	0.83828 0.62860 0.51542 0.10800
N 	N 	0.78673 0.59837 0.50490 -0.06300
N 	N 	0.76063 0.54291 0.49201 -0.05100
C 	C 	0.84735 0.20171 0.47891 0.10800
N 	N 	0.79501 0.17062 0.47384 -0.06200
N 	N 	0.77204 0.19517 0.45444 -0.05000
C 	C 	0.80085 0.25132 0.43876 0.05800
N 	N 	0.85337 0.28189 0.44141 -0.05000
N 	N 	0.87627 0.25751 0.46151 -0.06300
C 	C 	0.91674 0.12913 0.56130 0.12000
N 	N 	0.94104 0.18627 0.56178 -0.07400
N 	N 	0.91912 0.20947 0.53474 -0.06300
C 	C 	0.87207 0.17614 0.50700 0.10300
N 	N 	0.84757 0.11895 0.50701 -0.06300
N 	N 	0.86979 0.09579 0.53331 -0.07400
C 	C 	0.77836 0.61626 0.92024 0.10100
N 	N 	0.75425 0.64318 0.93607 -0.06600
N 	N 	0.78179 0.69962 0.93838 -0.07900
C 	C 	0.83428 0.73079 0.92507 0.11300
N 	N 	0.85826 0.70385 0.90799 -0.07700
N 	N 	0.83068 0.64741 0.90549 -0.06600
N 	N 	0.74538 0.47070 0.90733 -0.06200
N 	N 	0.77224 0.52706 0.90408 -0.06700
C 	C 	0.74845 0.55407 0.92191 0.10500
C 	C 	0.84400 0.14429 0.83424 0.10000
N 	N 	0.81893 0.08708 0.82997 -0.06500
N 	N 	0.84393 0.06284 0.84037 -0.07700
C 	C 	0.89455 0.09504 0.85617 0.11600
N 	N 	0.92027 0.15238 0.85726 -0.08000
N 	N 	0.89544 0.17668 0.84593 -0.06700
C 	C 	0.76402 0.22122 0.86936 0.05500
N 	N 	0.81324 0.25099 0.83908 -0.05400
N 	N 	0.83811 0.22573 0.82441 -0.06500
C 	C 	0.81406 0.16974 0.83845 0.10600
N 	N 	0.76397 0.13945 0.86564 -0.06400
N 	N 	0.73950 0.16495 0.88156 -0.05100
