data_crystal

_cell_length_a 26.13953
_cell_length_b 26.33783
_cell_length_c 36.72545
_cell_angle_alpha 95.53364
_cell_angle_beta  95.53061
_cell_angle_gamma 125.54817

_symmetry_space_group_name_	'P 1'
_symmetry_space_group_name_H-M	'P 1'

loop_
_symmetry_equiv_pos_as_xyz
  x,y,z

loop_
_atom_site_label
_atom_site_type_symbol
_atom_site_fract_x
_atom_site_fract_y
_atom_site_fract_z
_atom_site_charge
C 	C 	0.96848 0.02895 0.99582 0.10800
N 	N 	0.02872 0.05907 0.98854 -0.13700
C 	C 	0.05467 0.02712 0.98457 0.11500
N 	N 	0.02024 0.96510 0.98785 -0.13500
C 	C 	0.96009 0.93485 0.99501 0.11100
N 	N 	0.93426 0.96683 0.99901 -0.13800
C 	C 	0.93730 0.99948 0.46092 0.11500
N 	N 	0.00016 0.03412 0.45827 -0.13800
C 	C 	0.03279 0.00892 0.46232 0.11600
N 	N 	0.00244 0.94892 0.46894 -0.13500
C 	C 	0.93968 0.91400 0.47166 0.11200
N 	N 	0.90703 0.93934 0.46768 -0.14000
Cu	Cu	0.63520 0.23834 0.00279 0.92700
Cu	Cu	0.69022 0.24590 0.92540 0.87000
Cu	Cu	0.67398 0.34249 0.95710 0.89700
Cu	Cu	0.63554 0.35536 0.02974 0.89400
C 	C 	0.65128 0.28208 0.08075 0.30400
O 	O 	0.54140 0.20091 0.00053 -0.36500
C 	C 	0.65663 0.30292 0.87556 0.30600
O 	O 	0.68743 0.33762 0.00847 -0.64200
O 	O 	0.62986 0.24879 0.95026 -0.64100
O 	O 	0.67461 0.19246 0.99992 -0.37100
O 	O 	0.74814 0.26089 0.96774 -0.44100
O 	O 	0.62238 0.30793 0.07144 -0.38700
O 	O 	0.72180 0.43400 0.96717 -0.38300
C 	C 	0.71589 0.46750 0.99336 0.29200
C 	C 	0.51732 0.22902 0.98727 0.28500
O 	O 	0.55583 0.28905 0.98454 -0.39400
O 	O 	0.67360 0.44001 0.01537 -0.39800
O 	O 	0.65380 0.24462 0.05557 -0.36200
C 	C 	0.72975 0.21812 0.98898 0.28800
O 	O 	0.67497 0.34867 0.90387 -0.38700
O 	O 	0.65241 0.25183 0.88049 -0.42200
H 	H 	0.73291 0.36439 0.02106 0.16300
H 	H 	0.58604 0.22331 0.93522 0.17300
Cu	Cu	0.73671 0.33983 0.45770 0.92700
Cu	Cu	0.73011 0.28660 0.53554 0.87000
Cu	Cu	0.63183 0.30123 0.50353 0.89700
Cu	Cu	0.61786 0.33807 0.43054 0.89400
C 	C 	0.69201 0.32270 0.37965 0.30400
O 	O 	0.77389 0.43293 0.45958 -0.36200
C 	C 	0.67234 0.31971 0.58516 0.30600
O 	O 	0.63662 0.28746 0.45216 -0.64000
O 	O 	0.72636 0.34567 0.51024 -0.64200
O 	O 	0.78273 0.30030 0.46073 -0.37200
O 	O 	0.71413 0.22821 0.49347 -0.44200
O 	O 	0.66552 0.35099 0.38879 -0.38700
O 	O 	0.53951 0.25308 0.49360 -0.38300
C 	C 	0.50533 0.25799 0.46713 0.29000
C 	C 	0.74485 0.45645 0.47226 0.28100
O 	O 	0.68462 0.41779 0.47539 -0.39400
O 	O 	0.53266 0.30002 0.44511 -0.39500
O 	O 	0.73017 0.32088 0.40493 -0.36200
C 	C 	0.75665 0.24568 0.47190 0.28800
O 	O 	0.62597 0.30084 0.55685 -0.38700
O 	O 	0.72422 0.32471 0.58021 -0.42200
H 	H 	0.60989 0.24223 0.43977 0.16300
H 	H 	0.75179 0.38931 0.52505 0.17300
C 	C 	0.64658 0.33317 0.69253 -0.00600
C 	C 	0.59297 0.28128 0.70317 -0.03500
C 	C 	0.59087 0.27897 0.74094 -0.03500
C 	C 	0.64236 0.32854 0.76824 -0.00600
C 	C 	0.69430 0.38206 0.75761 -0.03500
C 	C 	0.69641 0.38437 0.71984 -0.03500
C 	C 	0.65437 0.32998 0.65425 0.04400
C 	C 	0.66198 0.32603 0.62250 -0.11100
C 	C 	0.64585 0.32073 0.80649 0.04400
C 	C 	0.65004 0.31316 0.83822 -0.11100
H 	H 	0.55413 0.24162 0.68224 0.03900
H 	H 	0.55041 0.23753 0.74891 0.03900
H 	H 	0.73419 0.42070 0.77853 0.03900
H 	H 	0.73792 0.42477 0.71186 0.03800
C 	C 	0.68340 0.28051 0.19147 -0.00400
C 	C 	0.63486 0.23110 0.20658 -0.03400
C 	C 	0.63992 0.23608 0.24523 -0.03500
C 	C 	0.69355 0.29048 0.26895 -0.00400
C 	C 	0.74347 0.33850 0.25385 -0.03400
C 	C 	0.73840 0.33353 0.21519 -0.03500
C 	C 	0.67351 0.28014 0.15213 0.04300
C 	C 	0.66406 0.28063 0.11940 -0.10300
C 	C 	0.69397 0.30036 0.30830 0.04300
C 	C 	0.69349 0.30984 0.34103 -0.10300
H 	H 	0.59227 0.18986 0.18843 0.04100
H 	H 	0.60120 0.19867 0.25668 0.03900
H 	H 	0.78516 0.38063 0.27199 0.04100
H 	H 	0.77621 0.37185 0.20374 0.03800
C 	C 	0.91421 0.77073 0.50435 -0.04500
C 	C 	0.85383 0.72156 0.48321 0.00600
C 	C 	0.81893 0.73619 0.46101 -0.04500
C 	C 	0.84552 0.79948 0.45869 -0.02300
C 	C 	0.90726 0.84858 0.47854 -0.02000
C 	C 	0.94073 0.83393 0.50214 -0.02300
C 	C 	0.82872 0.65476 0.48272 0.02300
H 	H 	0.77204 0.69848 0.44477 0.04100
H 	H 	0.81916 0.81006 0.44041 0.04100
H 	H 	0.98794 0.87144 0.51811 0.03900
H 	H 	0.94112 0.75990 0.52192 0.04000
C 	C 	0.85687 0.62978 0.46505 -0.06500
C 	C 	0.83126 0.56565 0.46297 0.01200
C 	C 	0.77711 0.52583 0.47856 -0.08800
C 	C 	0.75059 0.55168 0.49753 0.01000
C 	C 	0.77608 0.61573 0.49940 -0.06500
H 	H 	0.89786 0.65977 0.45232 0.04600
H 	H 	0.85249 0.54668 0.44837 0.03800
H 	H 	0.70959 0.52197 0.51030 0.03200
H 	H 	0.75459 0.63487 0.51352 0.04500
C 	C 	0.88425 0.09645 0.42839 -0.04500
C 	C 	0.84849 0.09387 0.45527 0.00500
C 	C 	0.83819 0.05642 0.48245 -0.04500
C 	C 	0.86492 0.02331 0.48334 -0.02500
C 	C 	0.90265 0.02779 0.45728 -0.02100
C 	C 	0.91137 0.06376 0.42946 -0.02200
C 	C 	0.82400 0.13237 0.45592 0.02400
H 	H 	0.81072 0.05411 0.50336 0.03800
H 	H 	0.85800 0.99588 0.50500 0.04100
H 	H 	0.93980 0.06701 0.40895 0.03900
H 	H 	0.89175 0.12446 0.40699 0.04100
C 	C 	0.86654 0.19868 0.45948 -0.06700
C 	C 	0.84406 0.23557 0.46282 0.01300
C 	C 	0.77893 0.20655 0.46301 -0.09500
C 	C 	0.73610 0.14005 0.45812 0.01400
C 	C 	0.75850 0.10315 0.45449 -0.06800
H 	H 	0.91720 0.22176 0.46058 0.04500
H 	H 	0.87763 0.28681 0.46662 0.03000
H 	H 	0.68561 0.11702 0.45773 0.02800
H 	H 	0.72510 0.05196 0.45115 0.04500
C 	C 	0.20844 0.14589 0.47812 -0.04400
C 	C 	0.23325 0.11684 0.46086 0.00500
C 	C 	0.19167 0.05309 0.44268 -0.04400
C 	C 	0.12602 0.01825 0.44246 -0.02500
C 	C 	0.10127 0.04693 0.46030 -0.01900
C 	C 	0.14271 0.11115 0.47775 -0.02200
C 	C 	0.30283 0.15284 0.46234 0.02500
H 	H 	0.21028 0.03048 0.42889 0.04000
H 	H 	0.12424 0.13371 0.49177 0.04100
H 	H 	0.24019 0.19508 0.49227 0.04200
C 	C 	0.33570 0.20794 0.44694 -0.06600
C 	C 	0.40166 0.24225 0.44848 0.01300
C 	C 	0.43548 0.22160 0.46535 -0.08700
C 	C 	0.40233 0.16614 0.48057 0.01400
C 	C 	0.33641 0.13211 0.47917 -0.06500
H 	H 	0.31011 0.22416 0.43375 0.04600
H 	H 	0.42647 0.28508 0.43682 0.03400
H 	H 	0.42752 0.14923 0.49334 0.03300
H 	H 	0.31143 0.08968 0.49123 0.04600
C 	C 	0.91839 0.77907 0.01647 -0.04300
C 	C 	0.85412 0.73682 0.99847 0.00500
C 	C 	0.82383 0.76021 0.98084 -0.04300
C 	C 	0.85792 0.82518 0.98061 -0.02400
C 	C 	0.92270 0.86726 0.99781 -0.01400
C 	C 	0.95256 0.84396 0.01608 -0.03500
C 	C 	0.81897 0.66798 0.99739 0.02700
H 	H 	0.77423 0.72792 0.96684 0.04100
H 	H 	0.83444 0.84257 0.96629 0.04100
H 	H 	0.00233 0.87609 0.02982 0.04700
H 	H 	0.94193 0.76154 0.03054 0.03800
C 	C 	0.84077 0.63536 0.98082 -0.06600
C 	C 	0.80746 0.57012 0.97972 0.01400
C 	C 	0.75166 0.53669 0.99497 -0.08500
C 	C 	0.72997 0.56955 0.01160 0.01100
C 	C 	0.76357 0.63485 0.01286 -0.06800
H 	H 	0.88344 0.66055 0.96871 0.04600
H 	H 	0.82518 0.54567 0.96714 0.03300
H 	H 	0.68686 0.54451 0.02330 0.03300
H 	H 	0.74654 0.65972 0.02585 0.04600
C 	C 	0.91322 0.12940 0.97549 -0.04200
C 	C 	0.87629 0.11990 0.00302 0.00200
C 	C 	0.87263 0.08322 0.02938 -0.04300
C 	C 	0.90399 0.05474 0.02756 -0.02700
C 	C 	0.93974 0.06307 0.99952 -0.01500
C 	C 	0.94503 0.10135 0.97385 -0.02600
C 	C 	0.83929 0.14605 0.00322 0.02100
H 	H 	0.84490 0.07621 0.05101 0.04000
H 	H 	0.90019 0.02590 0.04778 0.04000
H 	H 	0.97230 0.10795 0.95202 0.03900
H 	H 	0.91620 0.15743 0.95492 0.03700
C 	C 	0.87036 0.21141 0.00498 -0.06600
C 	C 	0.83472 0.23534 0.00180 0.00900
C 	C 	0.76767 0.19420 0.99708 -0.09200
C 	C 	0.73684 0.12923 0.99697 0.01100
C 	C 	0.77245 0.10522 0.99983 -0.06300
H 	H 	0.92200 0.24348 0.00818 0.04300
H 	H 	0.85914 0.28571 0.00246 0.02800
H 	H 	0.68515 0.09697 0.99331 0.03200
H 	H 	0.74797 0.05469 0.99845 0.04500
C 	C 	0.23304 0.14949 0.99385 -0.04200
C 	C 	0.24864 0.11506 0.97228 0.00500
C 	C 	0.19977 0.05413 0.95199 -0.04400
C 	C 	0.13599 0.02665 0.95453 -0.02400
C 	C 	0.12050 0.05977 0.97757 -0.01900
C 	C 	0.16920 0.12198 0.99648 -0.02000
C 	C 	0.31622 0.14093 0.97310 0.02400
H 	H 	0.21134 0.02755 0.93489 0.04100
H 	H 	0.09873 0.97907 0.93924 0.04400
H 	H 	0.15795 0.14811 0.01429 0.03900
H 	H 	0.27050 0.19673 0.00949 0.03900
C 	C 	0.35592 0.19490 0.95780 -0.06500
C 	C 	0.42104 0.22198 0.96088 0.01100
C 	C 	0.44723 0.19562 0.97965 -0.09000
C 	C 	0.40674 0.14004 0.99367 0.01500
C 	C 	0.34161 0.11293 0.99042 -0.06300
H 	H 	0.33650 0.21633 0.94395 0.04600
H 	H 	0.45129 0.26405 0.94924 0.03300
H 	H 	0.42594 0.11882 0.00799 0.03600
H 	H 	0.31114 0.07098 0.00212 0.04500
H 	H 	0.09442 0.96894 0.42854 0.04400
