data_crystal

_cell_length_a 18.04988
_cell_length_b 18.63257
_cell_length_c 22.47944
_cell_angle_alpha 60.87788
_cell_angle_beta  118.81538
_cell_angle_gamma 133.16653

_symmetry_space_group_name_	'P 1'
_symmetry_space_group_name_H-M	'P 1'

loop_
_symmetry_equiv_pos_as_xyz
  x,y,z

loop_
_atom_site_label
_atom_site_type_symbol
_atom_site_fract_x
_atom_site_fract_y
_atom_site_fract_z
_atom_site_charge
C 	C 	0.72460 0.29046 0.02742 0.00900
C 	C 	0.62188 0.22249 0.03617 -0.05500
C 	C 	0.58220 0.25267 0.05240 0.00700
C 	C 	0.64122 0.35168 0.05606 -0.05600
C 	C 	0.74073 0.42309 0.04367 0.01300
C 	C 	0.78521 0.39283 0.03070 -0.05900
H 	H 	0.57494 0.14429 0.03436 0.04900
H 	H 	0.60854 0.37399 0.06774 0.05100
H 	H 	0.86446 0.44694 0.02390 0.04300
C 	C 	0.72478 0.28768 0.53230 0.01500
C 	C 	0.62245 0.22040 0.54162 -0.05200
C 	C 	0.58393 0.25162 0.55797 0.01200
C 	C 	0.64387 0.35085 0.56150 -0.05000
C 	C 	0.74289 0.42166 0.54835 0.01400
C 	C 	0.78618 0.39042 0.53512 -0.05200
H 	H 	0.57482 0.14200 0.53997 0.05500
H 	H 	0.61214 0.37392 0.57339 0.05700
H 	H 	0.86507 0.44409 0.52772 0.05000
C 	C 	0.28614 0.66376 0.24404 0.01300
C 	C 	0.39057 0.72870 0.23836 -0.05500
C 	C 	0.43364 0.68911 0.23665 0.01100
C 	C 	0.37603 0.58583 0.24478 -0.05400
C 	C 	0.27044 0.52285 0.24253 0.01400
C 	C 	0.22451 0.56067 0.24330 -0.05500
H 	H 	0.43661 0.80930 0.23330 0.04900
H 	H 	0.41137 0.55588 0.24572 0.05400
H 	H 	0.14174 0.51175 0.24119 0.05100
C 	C 	0.28430 0.66159 0.74749 0.01900
C 	C 	0.38810 0.72567 0.74077 -0.05200
C 	C 	0.42901 0.68522 0.73736 0.01700
C 	C 	0.36996 0.58196 0.74472 -0.05100
C 	C 	0.26504 0.51968 0.74407 0.02000
C 	C 	0.22121 0.55838 0.74649 -0.05200
H 	H 	0.43527 0.80628 0.73621 0.05500
H 	H 	0.40368 0.55133 0.74434 0.06100
H 	H 	0.13888 0.51005 0.74540 0.05700
Co	Co	0.13054 0.96305 0.16050 1.17900
Co	Co	0.86540 0.97681 0.10513 1.17000
Co	Co	0.06728 0.05613 0.21231 1.18100
Co	Co	0.94257 0.90962 0.04169 1.16200
C 	C 	0.12735 0.77596 0.19820 0.30500
Co	Co	0.09597 0.86936 0.04896 1.15300
Co	Co	0.89449 0.06438 0.21539 1.17900
C 	C 	0.03686 0.98852 0.91771 0.20700
O 	O 	0.99872 0.21125 0.17032 -0.39000
O 	O 	0.94635 0.02935 0.17466 -0.74200
C 	C 	0.09942 0.25344 0.19498 0.30000
O 	O 	0.17676 0.03714 0.22948 -0.45300
O 	O 	0.82777 0.91856 0.02898 -0.48400
C 	C 	0.79696 0.10502 0.06860 0.30900
O 	O 	0.01071 0.99375 0.12201 -0.58600
C 	C 	0.02914 0.01980 0.34489 0.23200
C 	C 	0.29928 0.04799 0.09988 0.33400
C 	C 	0.87191 0.71951 0.02213 0.24800
O 	O 	0.14294 0.21224 0.20143 -0.37300
O 	O 	0.25040 0.95390 0.10159 -0.42400
O 	O 	0.26150 0.07264 0.11855 -0.39100
O 	O 	0.77428 0.04866 0.12881 -0.40700
O 	O 	0.84434 0.09487 0.04575 -0.37800
O 	O 	0.00852 0.08579 0.30714 -0.37500
O 	O 	0.04146 0.98337 0.31455 -0.36300
O 	O 	0.94822 0.78455 0.99141 -0.34400
O 	O 	0.85659 0.75153 0.05394 -0.38300
O 	O 	0.05606 0.92178 0.08533 -0.75600
C 	C 	0.72356 0.85499 0.20900 0.30900
O 	O 	0.79991 0.91141 0.25363 -0.40000
O 	O 	0.74089 0.85486 0.15715 -0.38600
O 	O 	0.06057 0.75624 0.13865 -0.39900
O 	O 	0.14925 0.84301 0.22294 -0.37400
O 	O 	0.11642 0.98381 0.95941 -0.32100
O 	O 	0.98247 0.98918 0.94271 -0.32700
Co	Co	0.13025 0.96295 0.66356 1.18100
Co	Co	0.86255 0.97283 0.60778 1.17300
Co	Co	0.06486 0.05492 0.71453 1.18100
Co	Co	0.94190 0.90737 0.54486 1.17500
C 	C 	0.12833 0.77612 0.70200 0.30500
Co	Co	0.09793 0.87009 0.55289 1.17400
Co	Co	0.88770 0.05753 0.71800 1.17900
C 	C 	0.03775 0.98691 0.42128 0.21600
O 	O 	0.99129 0.20557 0.67376 -0.38700
O 	O 	0.94229 0.02452 0.67783 -0.74200
C 	C 	0.09221 0.24867 0.69819 0.30200
O 	O 	0.17600 0.03817 0.73156 -0.44500
O 	O 	0.82607 0.91508 0.53176 -0.46600
C 	C 	0.79251 0.09953 0.57091 0.31100
O 	O 	0.00920 0.99219 0.62459 -0.57900
C 	C 	0.02572 0.01669 0.84801 0.22100
C 	C 	0.30049 0.04836 0.60442 0.33500
C 	C 	0.87401 0.71830 0.52621 0.31900
O 	O 	0.13697 0.21036 0.70207 -0.36700
O 	O 	0.25188 0.95438 0.60617 -0.41300
O 	O 	0.26142 0.07298 0.62180 -0.38200
O 	O 	0.76838 0.04170 0.63061 -0.40600
O 	O 	0.84144 0.09075 0.54850 -0.36900
O 	O 	0.00030 0.07922 0.81018 -0.36500
O 	O 	0.04346 0.98458 0.81789 -0.34700
O 	O 	0.95039 0.78408 0.49540 -0.41500
O 	O 	0.85804 0.74954 0.55819 -0.38500
O 	O 	0.05636 0.92140 0.58854 -0.74400
C 	C 	0.71893 0.84831 0.71093 0.31100
O 	O 	0.79484 0.90433 0.75577 -0.39300
O 	O 	0.73681 0.84982 0.65860 -0.37900
O 	O 	0.06230 0.75653 0.64226 -0.39200
O 	O 	0.14987 0.84339 0.72638 -0.36600
O 	O 	0.11901 0.98599 0.46432 -0.35900
O 	O 	0.97718 0.98188 0.44441 -0.36000
C 	C 	0.20143 0.42170 0.73032 0.04400
C 	C 	0.15496 0.34292 0.71653 -0.08600
C 	C 	0.61450 0.79338 0.71486 -0.09800
C 	C 	0.53008 0.74854 0.72366 0.04800
C 	C 	0.23740 0.70524 0.74281 0.04100
C 	C 	0.19310 0.74053 0.73145 -0.08800
C 	C 	0.16266 0.34723 0.21407 -0.09400
C 	C 	0.20847 0.42552 0.22829 0.03800
C 	C 	0.53481 0.75344 0.22282 0.04200
C 	C 	0.61930 0.79919 0.21371 -0.10600
C 	C 	0.23757 0.70625 0.23859 0.03500
C 	C 	0.19241 0.74078 0.22705 -0.09700
C 	C 	0.78824 0.18667 0.54210 -0.09100
C 	C 	0.76900 0.24370 0.53276 0.03800
C 	C 	0.82763 0.61215 0.53900 -0.09900
C 	C 	0.79452 0.52692 0.54404 0.04300
C 	C 	0.48380 0.18074 0.57418 0.05400
C 	C 	0.40038 0.12257 0.58839 -0.10500
C 	C 	0.79075 0.19110 0.03848 -0.10000
C 	C 	0.77013 0.24735 0.02846 0.03000
C 	C 	0.82490 0.61316 0.03505 -0.09000
C 	C 	0.79181 0.52801 0.03990 0.02200
C 	C 	0.48213 0.18081 0.06883 0.04800
C 	C 	0.39888 0.12216 0.08336 -0.11600
