data_crystal

_cell_length_a 20.35433
_cell_length_b 20.84451
_cell_length_c 47.68525
_cell_angle_alpha 60.64704
_cell_angle_beta  119.11329
_cell_angle_gamma 133.35530

_symmetry_space_group_name_	'P 1'
_symmetry_space_group_name_H-M	'P 1'

loop_
_symmetry_equiv_pos_as_xyz
  x,y,z

loop_
_atom_site_label
_atom_site_type_symbol
_atom_site_fract_x
_atom_site_fract_y
_atom_site_fract_z
_atom_site_charge
C 	C 	0.31074 0.62260 0.15864 0.11500
C 	C 	0.25680 0.53964 0.15015 -0.10300
C 	C 	0.30051 0.50460 0.15346 0.12400
H 	H 	0.18239 0.50448 0.14007 0.08800
C 	C 	0.30758 0.71449 0.60669 0.11800
C 	C 	0.25326 0.58222 0.59406 0.12200
C 	C 	0.23410 0.63412 0.59532 -0.10200
H 	H 	0.16319 0.61281 0.58722 0.08800
Co	Co	0.02649 0.07791 0.06630 1.19200
Co	Co	0.08804 0.00250 0.04369 1.17300
Co	Co	0.08525 0.84330 0.04442 1.17800
C 	C 	0.26046 0.01539 0.05944 0.31100
O 	O 	0.03448 0.06178 0.15521 -0.40600
C 	C 	0.02615 0.98598 0.17466 0.31600
O 	O 	0.09855 0.11285 0.03732 -0.44400
C 	C 	0.11840 0.22138 0.09750 0.36900
C 	C 	0.10146 0.75293 0.11575 0.36300
O 	O 	0.02371 0.93604 0.16378 -0.35800
O 	O 	0.06275 0.73650 0.08656 -0.36900
O 	O 	0.09437 0.80411 0.12113 -0.36700
O 	O 	0.03336 0.19278 0.09122 -0.37200
O 	O 	0.13383 0.17446 0.09374 -0.38100
O 	O 	0.04627 0.89173 0.05828 -0.75100
O 	O 	0.21939 0.92730 0.06853 -0.36300
O 	O 	0.22744 0.05013 0.06134 -0.36300
Co	Co	0.02296 0.03518 0.51834 1.18000
Co	Co	0.10007 0.94269 0.51716 1.18000
C 	C 	0.19710 0.14126 0.49970 0.36300
O 	O 	0.02652 0.09103 0.64556 -0.35100
C 	C 	0.04546 0.03327 0.66779 0.26400
C 	C 	0.02119 0.22405 0.57652 0.36400
C 	C 	0.21902 0.94716 0.58403 0.33900
O 	O 	0.04955 0.98577 0.65824 -0.33400
O 	O 	0.22070 0.99471 0.55324 -0.38000
O 	O 	0.17144 0.93590 0.59965 -0.34000
O 	O 	0.04697 0.19553 0.56706 -0.38500
O 	O 	0.04295 0.95484 0.53934 -0.74000
O 	O 	0.14897 0.07324 0.48674 -0.40400
O 	O 	0.16056 0.13784 0.51723 -0.40400
C 	C 	0.03660 0.96923 0.79919 0.05500
C 	C 	0.11896 0.02484 0.81998 -0.06100
C 	C 	0.11580 0.02594 0.84854 -0.05000
C 	C 	0.03691 0.98049 0.76580 0.02000
C 	C 	0.03707 0.00529 0.70194 -0.08200
C 	C 	0.09565 0.98510 0.73009 0.05000
C 	C 	0.09538 0.97241 0.76199 -0.04300
H 	H 	0.18507 0.06897 0.81361 0.05800
H 	H 	0.17997 0.06832 0.86450 0.06100
H 	H 	0.14269 0.98136 0.72737 0.05500
H 	H 	0.14082 0.95706 0.78354 0.06900
C 	C 	0.00393 0.04207 0.38046 -0.06600
C 	C 	0.01071 0.95361 0.26664 0.06700
C 	C 	0.09145 0.02928 0.25493 -0.07900
C 	C 	0.10300 0.03445 0.22702 -0.00200
C 	C 	0.03328 0.96460 0.21016 -0.03700
H 	H 	0.04840 0.10218 0.41791 0.07400
H 	H 	0.05851 0.10379 0.36799 0.07000
H 	H 	0.14360 0.08566 0.26665 0.07200
H 	H 	0.16312 0.09557 0.21716 0.06000
C 	C 	0.13532 0.41666 0.61101 -0.13200
C 	C 	0.17785 0.49293 0.58596 -0.05300
C 	C 	0.16882 0.48039 0.55747 0.30800
C 	C 	0.12242 0.39273 0.55515 -0.05900
C 	C 	0.08413 0.31693 0.58111 -0.14100
C 	C 	0.09059 0.32956 0.60902 0.36100
F 	F 	0.05332 0.25704 0.63431 -0.45500
H 	H 	0.14240 0.42545 0.63316 0.10500
H 	H 	0.11513 0.38378 0.53301 0.11000
F 	F 	0.20896 0.55355 0.53280 -0.40700
C 	C 	0.33099 0.92818 0.58771 -0.06900
C 	C 	0.25672 0.89372 0.59857 -0.12700
C 	C 	0.20474 0.80108 0.61530 0.35600
C 	C 	0.22204 0.74285 0.61836 -0.11900
C 	C 	0.29061 0.77629 0.60450 -0.05700
C 	C 	0.34506 0.86959 0.58918 0.31300
H 	H 	0.37281 0.99959 0.57537 0.12500
H 	H 	0.18102 0.67162 0.63094 0.10700
F 	F 	0.13451 0.76638 0.62704 -0.42400
C 	C 	0.23764 0.44818 0.10477 -0.12400
C 	C 	0.25013 0.42923 0.13885 -0.05700
C 	C 	0.24032 0.34789 0.15959 0.30300
C 	C 	0.21527 0.28535 0.14614 -0.07100
C 	C 	0.19353 0.30030 0.11172 -0.13800
C 	C 	0.21248 0.38538 0.09145 0.37500
F 	F 	0.19813 0.40376 0.05829 -0.40500
H 	H 	0.25038 0.51295 0.08874 0.12200
H 	H 	0.20485 0.22159 0.16226 0.09200
F 	F 	0.25704 0.33043 0.19285 -0.43800
C 	C 	0.18204 0.60511 0.16451 -0.12300
C 	C 	0.26557 0.66170 0.15465 -0.05000
C 	C 	0.30388 0.75496 0.13986 0.30900
C 	C 	0.25809 0.78940 0.13460 -0.07300
C 	C 	0.16755 0.73004 0.13911 -0.12700
C 	C 	0.13243 0.63868 0.15624 0.36500
F 	F 	0.04685 0.58068 0.16244 -0.41200
H 	H 	0.15345 0.53426 0.17726 0.11000
H 	H 	0.28903 0.86120 0.12365 0.11500
C 	C 	0.35743 0.21053 0.53457 -0.06300
C 	C 	0.29775 0.20447 0.50286 -0.15100
C 	C 	0.33229 0.23746 0.47584 0.36200
F 	F 	0.27689 0.23654 0.44472 -0.44200
H 	H 	0.33216 0.18686 0.55552 0.09300
C 	C 	0.34036 0.05225 0.02240 -0.11100
C 	C 	0.34247 0.07490 0.04630 -0.12500
H 	H 	0.27781 0.99300 0.01312 0.12000
C 	C 	0.06197 0.97262 0.98204 0.30000
O 	O 	0.11562 0.94599 0.00146 -0.38900
O 	O 	0.03945 0.99929 0.99390 -0.35200
C 	C 	0.03093 0.97599 0.94645 -0.03700
C 	C 	0.08091 0.05829 0.92417 -0.00500
H 	H 	0.12647 0.12223 0.93093 0.05100
Co	Co	0.03415 0.89765 0.57903 1.19700
C 	C 	0.07790 0.05780 0.89416 -0.07600
H 	H 	0.11796 0.12173 0.87749 0.06400
O 	O 	0.05912 0.81362 0.54722 -0.39000
C 	C 	0.02993 0.97309 0.85622 0.03700
C 	C 	0.02595 0.97479 0.88639 0.06300
C 	C 	0.34480 0.61089 0.60375 -0.08600
O 	O 	0.00232 0.86126 0.62117 -0.41700
H 	H 	0.35935 0.57073 0.60284 0.10000
F 	F 	0.38101 0.81065 0.12811 -0.40800
O 	O 	0.98454 0.11000 0.51205 -0.44100
H 	H 	0.99788 0.84252 0.32888 0.05900
C 	C 	0.99761 0.04138 0.40868 -0.00700
C 	C 	0.99168 0.95445 0.29288 0.02100
C 	C 	0.98768 0.89209 0.32392 -0.02600
O 	O 	0.93993 0.16842 0.58339 -0.37900
Co	Co	0.95056 0.07199 0.55376 1.18800
C 	C 	0.97857 0.01852 0.28691 -0.04700
H 	H 	0.98101 0.06669 0.26302 0.05500
C 	C 	0.97115 0.89300 0.90772 -0.05700
C 	C 	0.97215 0.89391 0.93712 0.00900
H 	H 	0.93041 0.82838 0.90219 0.06700
H 	H 	0.93272 0.82992 0.95393 0.05000
C 	C 	0.96207 0.02047 0.31175 -0.05300
H 	H 	0.95174 0.06998 0.30674 0.05700
F 	F 	0.40833 0.90271 0.57415 -0.39800
C 	C 	0.42560 0.14801 0.05976 0.35900
F 	F 	0.42973 0.16795 0.08399 -0.42800
C 	C 	0.71419 0.28463 0.99941 0.11600
C 	C 	0.75508 0.37756 0.99322 -0.11200
C 	C 	0.70749 0.40212 0.99459 0.13000
C 	C 	0.61466 0.33624 0.99608 -0.10900
C 	C 	0.57969 0.24471 0.00748 0.12600
C 	C 	0.62874 0.21833 0.00876 -0.08800
H 	H 	0.82460 0.42972 0.98906 0.08800
H 	H 	0.57558 0.35622 0.99451 0.09900
H 	H 	0.60261 0.14731 0.01823 0.11600
C 	C 	0.67298 0.25931 0.52499 0.12000
C 	C 	0.75043 0.33941 0.53594 -0.09500
C 	C 	0.73775 0.39532 0.53784 0.12100
C 	C 	0.64831 0.37086 0.52934 -0.09400
C 	C 	0.57116 0.29101 0.51897 0.12000
C 	C 	0.58338 0.23653 0.51577 -0.09200
H 	H 	0.81982 0.35768 0.54312 0.09200
H 	H 	0.63872 0.41417 0.53086 0.09500
H 	H 	0.52333 0.17543 0.50706 0.10200
C 	C 	0.39667 0.55232 0.16486 -0.09900
C 	C 	0.45066 0.64101 0.16730 0.10900
C 	C 	0.40848 0.67156 0.16838 -0.07400
H 	H 	0.43009 0.52650 0.16630 0.09200
H 	H 	0.45156 0.73571 0.17465 0.11400
C 	C 	0.39905 0.74025 0.61753 -0.09000
C 	C 	0.41773 0.69049 0.61470 0.11900
H 	H 	0.45585 0.80076 0.62692 0.10600
Co	Co	0.99066 0.82303 0.08884 1.19400
Co	Co	0.94742 0.90563 0.11695 1.19500
C 	C 	0.88439 0.70245 0.04030 0.34300
Co	Co	0.93616 0.06054 0.11182 1.16900
O 	O 	0.96627 0.00801 0.09571 -0.77400
O 	O 	0.93880 0.79580 0.12358 -0.42800
O 	O 	0.98418 0.94133 0.07103 -0.56300
C 	C 	0.78045 0.86071 0.12452 0.36000
O 	O 	0.83872 0.93357 0.13578 -0.39400
O 	O 	0.80852 0.83947 0.11272 -0.36200
C 	C 	0.87557 0.11040 0.03881 0.34000
O 	O 	0.84423 0.05416 0.06597 -0.39100
O 	O 	0.93970 0.12018 0.03252 -0.34900
O 	O 	0.94695 0.76864 0.02258 -0.39800
O 	O 	0.88730 0.71087 0.06716 -0.34000
Co	Co	0.96195 0.93457 0.61504 1.19100
C 	C 	0.97918 0.75282 0.55568 0.35700
Co	Co	0.89564 0.04064 0.61500 1.17000
O 	O 	0.93569 0.01116 0.59250 -0.76900
O 	O 	0.96277 0.96285 0.56282 -0.56400
C 	C 	0.79593 0.84028 0.63791 0.36100
C 	C 	0.95040 0.94911 0.46235 0.31500
O 	O 	0.84681 0.91349 0.64818 -0.37500
O 	O 	0.83129 0.83055 0.62457 -0.37200
O 	O 	0.97312 0.89344 0.48402 -0.38700
O 	O 	0.95212 0.00100 0.47192 -0.37700
C 	C 	0.77104 0.03565 0.54896 0.30400
O 	O 	0.77182 0.98949 0.58012 -0.35600
O 	O 	0.82035 0.05072 0.53283 -0.33300
O 	O 	0.95316 0.77222 0.56932 -0.34000
C 	C 	0.94792 0.91629 0.83571 -0.03000
C 	C 	0.95152 0.91277 0.80792 -0.04100
C 	C 	0.97808 0.99959 0.73762 0.01000
C 	C 	0.97743 0.01094 0.70615 -0.00100
H 	H 	0.88114 0.87554 0.84104 0.05900
H 	H 	0.88754 0.86872 0.79239 0.06800
H 	H 	0.93353 0.00708 0.74004 0.03300
H 	H 	0.93231 0.02715 0.68480 0.03700
C 	C 	0.93208 0.96013 0.42677 -0.04900
C 	C 	0.94344 0.96186 0.36964 0.04900
C 	C 	0.87199 0.88311 0.38578 -0.05300
C 	C 	0.86632 0.88231 0.41414 0.01900
C 	C 	0.95881 0.95858 0.34292 0.03200
C 	C 	0.97166 0.89431 0.34884 -0.03200
C 	C 	0.95696 0.88514 0.22382 0.00600
C 	C 	0.94529 0.87989 0.25178 -0.05500
H 	H 	0.82311 0.82147 0.37717 0.06400
H 	H 	0.81473 0.81935 0.42758 0.05300
H 	H 	0.97009 0.84664 0.37281 0.06000
H 	H 	0.90329 0.83027 0.21142 0.08100
H 	H 	0.88345 0.82031 0.26093 0.06800
C 	C 	0.57019 0.72666 0.65353 -0.13000
C 	C 	0.51410 0.72428 0.62125 -0.05100
C 	C 	0.54722 0.74623 0.59572 0.30700
C 	C 	0.63656 0.77266 0.60234 -0.06200
C 	C 	0.69525 0.78169 0.63408 -0.14500
C 	C 	0.66041 0.75513 0.65998 0.36400
F 	F 	0.71566 0.76108 0.69106 -0.43500
H 	H 	0.54410 0.70709 0.67356 0.10700
H 	H 	0.66269 0.79291 0.58220 0.10100
F 	F 	0.49349 0.74405 0.56433 -0.41000
C 	C 	0.62232 0.81050 0.11413 -0.06300
C 	C 	0.68952 0.79343 0.13233 -0.14200
C 	C 	0.68082 0.73078 0.16336 0.36400
C 	C 	0.60914 0.69031 0.17692 -0.13400
C 	C 	0.54126 0.70673 0.15860 -0.04800
C 	C 	0.54896 0.76802 0.12717 0.30700
F 	F 	0.48261 0.78281 0.10856 -0.40300
H 	H 	0.62914 0.85976 0.09035 0.10200
H 	H 	0.60307 0.64189 0.20087 0.10800
F 	F 	0.74371 0.71131 0.18083 -0.44700
C 	C 	0.65454 0.04778 0.54601 -0.11100
C 	C 	0.72721 0.08327 0.53393 -0.11100
C 	C 	0.77167 0.17325 0.51427 0.35000
C 	C 	0.75006 0.22913 0.50982 -0.11900
C 	C 	0.68512 0.19634 0.52531 -0.06300
C 	C 	0.63582 0.10455 0.54280 0.32200
F 	F 	0.57451 0.07205 0.55864 -0.41800
H 	H 	0.61779 0.97786 0.56037 0.14500
H 	H 	0.78652 0.29900 0.49544 0.11400
F 	F 	0.84003 0.20850 0.50135 -0.43500
C 	C 	0.83092 0.49614 0.57548 -0.12800
C 	C 	0.81778 0.48296 0.54645 -0.05800
C 	C 	0.86445 0.55857 0.52201 0.30500
C 	C 	0.91621 0.64638 0.52507 -0.06900
C 	C 	0.92326 0.65963 0.55285 -0.13800
C 	C 	0.88312 0.58415 0.57865 0.36800
F 	F 	0.89450 0.59592 0.60668 -0.41500
H 	H 	0.79609 0.43803 0.59469 0.11900
H 	H 	0.94912 0.70431 0.50543 0.08900
F 	F 	0.85375 0.54683 0.49409 -0.43200
C 	C 	0.42157 0.26535 0.48114 -0.13100
C 	C 	0.47743 0.26209 0.51335 -0.05600
C 	C 	0.44623 0.23734 0.53996 0.30300
H 	H 	0.44675 0.28804 0.46032 0.10800
F 	F 	0.50081 0.23622 0.57118 -0.42900
C 	C 	0.85959 0.29808 0.01503 -0.12800
C 	C 	0.76446 0.25613 0.99955 -0.05100
C 	C 	0.71482 0.17866 0.98840 0.30400
C 	C 	0.75484 0.13455 0.99822 -0.06500
C 	C 	0.84664 0.17107 0.01714 -0.13600
C 	C 	0.90130 0.25775 0.02231 0.35500
F 	F 	0.99369 0.30036 0.03626 -0.41500
H 	H 	0.90016 0.35923 0.02295 0.10400
H 	H 	0.71297 0.06965 0.99270 0.09500
F 	F 	0.62653 0.14373 0.96948 -0.41700
C 	C 	0.80485 0.48310 0.03905 -0.12400
C 	C 	0.75931 0.48393 0.00548 -0.06800
C 	C 	0.73998 0.54832 0.98568 0.30800
C 	C 	0.76653 0.61126 0.99926 -0.07100
C 	C 	0.81760 0.61428 0.03222 -0.13400
C 	C 	0.83140 0.54618 0.05256 0.35400
F 	F 	0.87765 0.54587 0.08483 -0.41700
H 	H 	0.81630 0.43106 0.05498 0.10400
H 	H 	0.75452 0.66293 0.98337 0.09600
F 	F 	0.69318 0.54821 0.95347 -0.43100
C 	C 	0.50527 0.19940 0.04874 -0.12100
C 	C 	0.50140 0.18005 0.02332 -0.06700
C 	C 	0.41894 0.10546 0.01056 0.32500
H 	H 	0.56949 0.25605 0.05919 0.10800
F 	F 	0.41432 0.08595 0.98607 -0.42500
