data_crystal

_cell_length_a 24.40478
_cell_length_b 23.97885
_cell_length_c 17.43576
_cell_angle_alpha 90.00000
_cell_angle_beta  90.00000
_cell_angle_gamma 120.56546

_symmetry_space_group_name_	'P 1'
_symmetry_space_group_name_H-M	'P 1'

loop_
_symmetry_equiv_pos_as_xyz
  x,y,z

loop_
_atom_site_label
_atom_site_type_symbol
_atom_site_fract_x
_atom_site_fract_y
_atom_site_fract_z
_atom_site_charge
H 	H 	0.01068 0.44747 0.11672 0.05900
C 	C 	0.05340 0.54978 0.02254 0.00800
C 	C 	0.04005 0.53279 0.94517 -0.10300
C 	C 	0.08913 0.55468 0.89105 0.13100
N 	N 	0.07420 0.54282 0.81536 -0.20500
H 	H 	0.02694 0.51299 0.79817 0.08700
H 	H 	0.09583 0.59449 0.16262 0.08500
H 	H 	0.02867 0.64227 0.02637 0.08700
C 	C 	0.05213 0.53198 0.48596 0.00100
N 	N 	0.02627 0.57280 0.34080 -0.19200
C 	C 	0.05379 0.57065 0.54823 0.05900
H 	H 	0.10511 0.49898 0.42031 0.05500
N 	N 	0.00476 0.58113 0.56146 -0.19200
H 	H 	0.00565 0.60821 0.60892 0.08100
H 	H 	0.01573 0.59239 0.29339 0.08100
H 	H 	0.07374 0.59411 0.35789 0.08500
C 	C 	0.10547 0.52639 0.46998 -0.09900
C 	C 	0.11732 0.58854 0.04709 0.06300
H 	H 	0.10831 0.56621 0.77285 0.10700
C 	C 	0.10630 0.59778 0.59768 -0.02600
H 	H 	0.10601 0.62467 0.64750 0.04400
N 	N 	0.13146 0.60710 0.12167 -0.19300
C 	C 	0.15340 0.59079 0.91589 -0.11300
C 	C 	0.16681 0.60831 0.99342 -0.03600
C 	C 	0.15976 0.55715 0.51689 0.12600
C 	C 	0.15775 0.58809 0.58516 -0.10700
H 	H 	0.17881 0.63527 0.13933 0.08100
C 	C 	0.20484 0.60401 0.64737 0.29300
C 	C 	0.20655 0.60755 0.86241 0.31300
O 	O 	0.20434 0.56268 0.81695 -0.37500
O 	O 	0.20894 0.64503 0.70177 -0.38900
N 	N 	0.21431 0.55970 0.49424 -0.20200
H 	H 	0.21439 0.53343 0.44644 0.08200
H 	H 	0.21589 0.63664 0.01227 0.05200
O 	O 	0.22743 0.56451 0.65908 -0.37500
O 	O 	0.25416 0.66751 0.85858 -0.39300
H 	H 	0.25786 0.59143 0.52018 0.09100
C 	C 	0.38895 0.60062 0.86023 0.31700
C 	C 	0.39164 0.59871 0.64361 0.29800
C 	C 	0.40011 0.78684 0.86102 0.31900
C 	C 	0.38999 0.78992 0.64382 0.29900
Ni	Ni	0.28175 0.57217 0.75479 1.11300
Ni	Ni	0.41740 0.70653 0.74940 1.11800
Ni	Ni	0.29010 0.71174 0.75674 1.12000
O 	O 	0.41627 0.74271 0.85270 -0.40100
O 	O 	0.32775 0.57931 0.85758 -0.38100
O 	O 	0.42646 0.63678 0.80452 -0.39000
O 	O 	0.32820 0.76117 0.65946 -0.39000
O 	O 	0.43095 0.78688 0.69197 -0.38900
O 	O 	0.34834 0.55817 0.69379 -0.37400
O 	O 	0.42100 0.66274 0.65179 -0.39100
O 	O 	0.35866 0.78888 0.81452 -0.39100
O 	O 	0.32816 0.66151 0.73566 -0.72000
H 	H 	0.32650 0.66130 0.67921 0.15300
C 	C 	0.58556 0.38995 0.34525 0.29600
C 	C 	0.81339 0.42423 0.17823 0.30000
C 	C 	0.59783 0.40902 0.17262 0.29800
C 	C 	0.80441 0.40134 0.34814 0.29400
C 	C 	0.61104 0.20721 0.14111 0.30600
C 	C 	0.59947 0.18529 0.31483 0.28900
Ni	Ni	0.71019 0.42839 0.26908 1.11000
Ni	Ni	0.71654 0.29515 0.24073 1.11700
Ni	Ni	0.57881 0.28606 0.24145 1.11500
O 	O 	0.64785 0.42358 0.35308 -0.38000
O 	O 	0.55590 0.32744 0.32847 -0.38900
O 	O 	0.67286 0.24429 0.14637 -0.38800
O 	O 	0.78242 0.45519 0.18912 -0.37900
O 	O 	0.78142 0.36137 0.16675 -0.37700
O 	O 	0.56636 0.21540 0.31515 -0.38600
O 	O 	0.65872 0.44712 0.18846 -0.37800
O 	O 	0.57432 0.34645 0.16308 -0.38000
O 	O 	0.66269 0.21814 0.30935 -0.38900
O 	O 	0.77166 0.43120 0.35358 -0.37900
O 	O 	0.77599 0.33889 0.33120 -0.39000
O 	O 	0.57416 0.23176 0.15080 -0.39200
O 	O 	0.66869 0.33695 0.26078 -0.70600
H 	H 	0.66521 0.32903 0.31670 0.13700
C 	C 	0.88030 0.46189 0.15061 -0.10700
C 	C 	0.92212 0.43708 0.15608 0.12500
C 	C 	0.98043 0.46847 0.11689 -0.09500
C 	C 	0.99968 0.52622 0.07703 -0.00100
C 	C 	0.96194 0.55541 0.08013 0.05900
C 	C 	0.90204 0.52243 0.11554 -0.02500
N 	N 	0.90766 0.38472 0.20047 -0.20200
N 	N 	0.98279 0.61485 0.04882 -0.19300
H 	H 	0.87183 0.54342 0.11431 0.04900
H 	H 	0.99095 0.50373 0.92661 0.05800
H 	H 	0.95378 0.63524 0.04905 0.08200
H 	H 	0.87016 0.36628 0.23941 0.08800
H 	H 	0.93706 0.36478 0.20038 0.08500
C 	C 	0.86843 0.43277 0.38240 -0.11200
C 	C 	0.88239 0.40524 0.44595 0.13000
C 	C 	0.94523 0.43429 0.47274 -0.09900
C 	C 	0.99295 0.49298 0.44158 0.00000
C 	C 	0.97946 0.51933 0.37667 0.05800
C 	C 	0.91684 0.49005 0.34928 -0.02700
N 	N 	0.83536 0.35366 0.48436 -0.20400
H 	H 	0.95596 0.41401 0.52214 0.05700
H 	H 	0.90577 0.51192 0.30192 0.03800
H 	H 	0.96612 0.56399 0.52407 0.08900
H 	H 	0.78743 0.33779 0.47463 0.10400
H 	H 	0.84656 0.33154 0.52838 0.08500
C 	C 	0.41561 0.84111 0.58526 -0.10700
C 	C 	0.44368 0.83514 0.51707 0.12200
C 	C 	0.47235 0.88756 0.46578 -0.09600
C 	C 	0.47264 0.94512 0.48119 -0.00400
C 	C 	0.44151 0.94966 0.54739 0.05600
C 	C 	0.41371 0.89767 0.59904 -0.02000
N 	N 	0.44257 0.77920 0.50004 -0.20500
H 	H 	0.49535 0.88392 0.41436 0.05300
C 	C 	0.50943 0.00187 0.43072 0.00300
N 	N 	0.43847 0.00381 0.56186 -0.18900
H 	H 	0.39125 0.90160 0.65081 0.04300
C 	C 	0.47909 0.01078 0.36764 -0.09000
C 	C 	0.50847 0.06939 0.32667 0.11900
C 	C 	0.56951 0.12003 0.34985 -0.10300
C 	C 	0.60140 0.10910 0.40980 -0.02600
C 	C 	0.57221 0.05029 0.44995 0.06000
H 	H 	0.43161 0.97272 0.35182 0.04900
N 	N 	0.47820 0.07627 0.26505 -0.20300
H 	H 	0.64854 0.14719 0.42672 0.05000
N 	N 	0.60442 0.04092 0.50744 -0.18900
H 	H 	0.43327 0.03857 0.24872 0.08400
H 	H 	0.49926 0.11807 0.23164 0.09000
H 	H 	0.65016 0.07767 0.52265 0.08300
H 	H 	0.58518 0.99676 0.53631 0.08400
H 	H 	0.41651 0.00715 0.61170 0.08400
H 	H 	0.45670 0.04254 0.52342 0.09000
H 	H 	0.41812 0.73805 0.53437 0.09300
H 	H 	0.46486 0.77582 0.45053 0.08400
C 	C 	0.43493 0.84006 0.91600 -0.11400
C 	C 	0.50016 0.88695 0.90489 0.12800
C 	C 	0.52900 0.94219 0.95170 -0.10500
C 	C 	0.49368 0.95255 0.00724 0.00200
C 	C 	0.42966 0.90425 0.02122 0.06300
C 	C 	0.40089 0.84836 0.97531 -0.02800
N 	N 	0.53479 0.88039 0.84812 -0.20200
H 	H 	0.57846 0.97882 0.94238 0.05500
C 	C 	0.52208 0.01702 0.04384 0.00500
N 	N 	0.39565 0.91125 0.07835 -0.19300
H 	H 	0.35133 0.81196 0.98452 0.04000
C 	C 	0.51693 0.06596 0.00655 -0.09400
C 	C 	0.54971 0.12980 0.03406 0.13800
C 	C 	0.58491 0.14386 0.10306 -0.11700
C 	C 	0.59109 0.09522 0.13951 -0.02500
C 	C 	0.55908 0.03154 0.11137 0.06300
H 	H 	0.48943 0.05482 0.95408 0.05400
N 	N 	0.54980 0.17770 0.99213 -0.21100
H 	H 	0.61918 0.10645 0.19148 0.03900
N 	N 	0.56304 0.98448 0.15019 -0.19500
H 	H 	0.52115 0.16647 0.94337 0.08600
H 	H 	0.58101 0.22648 0.00462 0.11300
H 	H 	0.59041 0.99570 0.20009 0.08100
H 	H 	0.53814 0.93626 0.13227 0.08600
H 	H 	0.34796 0.87597 0.08721 0.08100
H 	H 	0.41645 0.95085 0.11556 0.08300
H 	H 	0.51476 0.84129 0.81037 0.08100
H 	H 	0.58279 0.91534 0.84076 0.08100
C 	C 	0.56403 0.43892 0.13596 -0.10600
C 	C 	0.49777 0.41362 0.14697 0.12100
C 	C 	0.46716 0.44068 0.10637 -0.09600
C 	C 	0.50137 0.49312 0.05667 -0.00100
C 	C 	0.56799 0.52108 0.04948 0.06000
C 	C 	0.59847 0.49308 0.08818 -0.02400
N 	N 	0.46358 0.36448 0.19718 -0.20300
H 	H 	0.41628 0.42032 0.11286 0.05600
C 	C 	0.46629 0.51531 0.00821 0.00600
N 	N 	0.60291 0.57455 0.00529 -0.18500
H 	H 	0.64915 0.51309 0.08020 0.05100
C 	C 	0.45144 0.56036 0.03812 -0.09100
C 	C 	0.42442 0.58775 0.99121 0.11600
C 	C 	0.41222 0.56949 0.91307 -0.11300
C 	C 	0.42491 0.52270 0.88402 -0.02100
C 	C 	0.45108 0.49473 0.93106 0.05300
H 	H 	0.46230 0.57526 0.09757 0.05300
N 	N 	0.41120 0.63199 0.02125 -0.19800
H 	H 	0.41467 0.50825 0.82434 0.04500
N 	N 	0.46162 0.44836 0.90184 -0.19100
H 	H 	0.42097 0.64560 0.07885 0.08500
H 	H 	0.39079 0.65300 0.98816 0.09800
H 	H 	0.45174 0.43470 0.84427 0.08300
H 	H 	0.47828 0.42441 0.93608 0.08700
H 	H 	0.65187 0.59387 0.99873 0.07600
H 	H 	0.58229 0.59840 0.97857 0.08200
H 	H 	0.48511 0.34602 0.23225 0.08700
H 	H 	0.41468 0.34562 0.20354 0.08400
C 	C 	0.54835 0.41694 0.37814 -0.11200
C 	C 	0.51107 0.39052 0.44520 0.13100
C 	C 	0.47619 0.41781 0.47397 -0.09900
C 	C 	0.48158 0.47355 0.44049 0.00000
C 	C 	0.51701 0.49853 0.37217 0.05900
C 	C 	0.55105 0.47069 0.34248 -0.02600
N 	N 	0.51124 0.34157 0.48450 -0.20400
H 	H 	0.44845 0.39848 0.52598 0.05700
C 	C 	0.46020 0.51162 0.48488 0.00100
N 	N 	0.51826 0.54892 0.33471 -0.19200
H 	H 	0.58004 0.49121 0.29163 0.03800
C 	C 	0.50194 0.55649 0.53868 -0.09900
C 	C 	0.48046 0.58491 0.59192 0.12800
C 	C 	0.41692 0.57179 0.58723 -0.10900
C 	C 	0.37606 0.52948 0.53065 -0.02500
C 	C 	0.39699 0.49888 0.47951 0.05700
H 	H 	0.55049 0.56643 0.54204 0.05700
N 	N 	0.52013 0.62231 0.64912 -0.20400
H 	H 	0.32760 0.51975 0.52693 0.03700
N 	N 	0.35642 0.45783 0.42532 -0.19200
H 	H 	0.56761 0.63387 0.64987 0.08300
H 	H 	0.50385 0.63748 0.69532 0.09600
H 	H 	0.30952 0.44792 0.42255 0.08000
H 	H 	0.37126 0.43635 0.38460 0.08500
H 	H 	0.54529 0.56772 0.28482 0.08200
H 	H 	0.49086 0.56848 0.35322 0.08500
H 	H 	0.54353 0.32657 0.47173 0.10500
H 	H 	0.48117 0.32041 0.53163 0.08500
