data_crystal

_cell_length_a 20.24986
_cell_length_b 21.22227
_cell_length_c 43.52658
_cell_angle_alpha 60.70977
_cell_angle_beta  119.03945
_cell_angle_gamma 133.23867

_symmetry_space_group_name_	'P 1'
_symmetry_space_group_name_H-M	'P 1'

loop_
_symmetry_equiv_pos_as_xyz
  x,y,z

loop_
_atom_site_label
_atom_site_type_symbol
_atom_site_fract_x
_atom_site_fract_y
_atom_site_fract_z
_atom_site_charge
C 	C 	0.69532 0.25493 0.03623 0.14000
C 	C 	0.75192 0.38201 0.04946 0.14100
N 	N 	0.66330 0.35269 0.04247 -0.14000
C 	C 	0.59091 0.27679 0.03128 0.14100
N 	N 	0.60667 0.22813 0.02785 -0.13200
C 	C 	0.70228 0.25712 0.53880 0.14300
C 	C 	0.75939 0.37891 0.55627 0.14100
N 	N 	0.67081 0.34786 0.55080 -0.13500
C 	C 	0.59818 0.27393 0.53821 0.14100
N 	N 	0.61372 0.22909 0.53180 -0.14600
C 	C 	0.29814 0.67862 0.12279 0.14200
N 	N 	0.22867 0.59961 0.11264 -0.13400
C 	C 	0.25122 0.55317 0.11143 0.14300
N 	N 	0.34167 0.58573 0.12006 -0.14200
C 	C 	0.41011 0.66253 0.13085 0.14800
N 	N 	0.38845 0.70798 0.13298 -0.13600
C 	C 	0.29489 0.67848 0.62187 0.14300
N 	N 	0.22478 0.60042 0.61097 -0.13400
C 	C 	0.24641 0.55527 0.60805 0.14400
N 	N 	0.33672 0.58888 0.61521 -0.14000
C 	C 	0.40582 0.66428 0.62701 0.14700
N 	N 	0.38506 0.70841 0.63079 -0.13300
Co	Co	0.96427 0.05825 0.06656 1.15300
Co	Co	0.03401 0.02207 0.02604 1.15300
Co	Co	0.10249 0.92541 0.02244 1.18300
C 	C 	0.21163 0.12082 0.00916 0.31900
O 	O 	0.02756 0.05748 0.17070 -0.43600
C 	C 	0.04618 0.99895 0.19190 0.34400
O 	O 	0.00322 0.10008 0.02139 -0.47400
C 	C 	0.03853 0.20161 0.09681 0.33500
C 	C 	0.21116 0.91110 0.09703 0.30600
O 	O 	0.05185 0.95905 0.17815 -0.37100
O 	O 	0.21937 0.96399 0.06442 -0.37200
O 	O 	0.16252 0.89932 0.11404 -0.36000
O 	O 	0.95558 0.14833 0.10299 -0.43500
O 	O 	0.06312 0.17481 0.08495 -0.40100
O 	O 	0.04669 0.93806 0.04722 -0.73200
O 	O 	0.16226 0.05746 0.99282 -0.43700
O 	O 	0.17399 0.11727 0.02802 -0.41000
Co	Co	0.96416 0.06021 0.56459 1.15400
Co	Co	0.03805 0.02398 0.52609 1.16500
Co	Co	0.10794 0.92657 0.52414 1.18300
C 	C 	0.21758 0.12216 0.51098 0.33500
O 	O 	0.02364 0.06138 0.66789 -0.37800
C 	C 	0.04225 0.00297 0.68967 0.13900
O 	O 	0.00630 0.10224 0.52031 -0.46700
C 	C 	0.03515 0.20475 0.59305 0.33800
C 	C 	0.21336 0.91189 0.59941 0.31300
O 	O 	0.04901 0.96265 0.67660 -0.30900
O 	O 	0.22348 0.96412 0.56680 -0.36200
O 	O 	0.16425 0.90223 0.61537 -0.37200
O 	O 	0.95239 0.15137 0.59942 -0.43500
O 	O 	0.06144 0.17672 0.58279 -0.40300
O 	O 	0.04984 0.93943 0.54774 -0.72800
O 	O 	0.16916 0.05891 0.49471 -0.44200
O 	O 	0.17869 0.11817 0.52943 -0.42000
C 	C 	0.05672 0.98386 0.72913 0.07700
C 	C 	0.10121 0.04412 0.77682 -0.08900
C 	C 	0.11434 0.05569 0.74511 -0.08500
C 	C 	0.00351 0.00449 0.82686 -0.23900
C 	C 	0.03512 0.06535 0.87319 -0.17300
C 	C 	0.02030 0.05360 0.90454 -0.01800
H 	H 	0.14467 0.10066 0.78823 0.04700
H 	H 	0.16508 0.12184 0.73163 0.05700
H 	H 	0.01429 0.06260 0.80444 0.07800
H 	H 	0.08817 0.13099 0.86047 0.07300
H 	H 	0.06426 0.10973 0.91628 0.03800
C 	C 	0.03459 0.04231 0.40664 -0.03100
C 	C 	0.04035 0.04250 0.37568 -0.14100
C 	C 	0.96985 0.96857 0.36029 0.13400
C 	C 	0.97606 0.96659 0.32801 -0.08700
C 	C 	0.06474 0.98141 0.23152 -0.02800
C 	C 	0.13856 0.05284 0.24818 -0.03300
C 	C 	0.13538 0.05184 0.27994 -0.11900
H 	H 	0.09165 0.09766 0.41928 0.04700
H 	H 	0.10015 0.09939 0.36407 0.05900
H 	H 	0.91546 0.94721 0.30528 0.06400
H 	H 	0.19501 0.11201 0.23509 0.04400
H 	H 	0.19109 0.10890 0.29167 0.05400
C 	C 	0.17386 0.46458 0.60216 -0.04100
C 	C 	0.15145 0.45197 0.56864 -0.09100
C 	C 	0.11349 0.36871 0.56596 0.18600
C 	C 	0.09691 0.29681 0.59691 -0.12500
C 	C 	0.11693 0.30901 0.63012 -0.04100
C 	C 	0.15251 0.39132 0.63256 0.13700
H 	H 	0.16777 0.50792 0.54500 0.07400
O 	O 	0.08918 0.35697 0.53280 -0.28800
H 	H 	0.10179 0.25342 0.65391 0.05300
O 	O 	0.17315 0.40188 0.66548 -0.27600
H 	H 	0.11615 0.38800 0.66629 0.15000
H 	H 	0.14545 0.37202 0.53067 0.15700
C 	C 	0.50310 0.70016 0.63397 -0.04200
C 	C 	0.53572 0.72034 0.60617 -0.08700
C 	C 	0.62769 0.75246 0.61259 0.18900
C 	C 	0.68829 0.76584 0.64699 -0.12300
C 	C 	0.65371 0.74023 0.67535 -0.04100
C 	C 	0.56153 0.70766 0.66893 0.14000
H 	H 	0.49013 0.71262 0.57935 0.08000
O 	O 	0.66020 0.77726 0.58450 -0.27300
H 	H 	0.69967 0.74945 0.70202 0.06200
O 	O 	0.52948 0.68552 0.69663 -0.27000
H 	H 	0.50322 0.62143 0.70804 0.15100
H 	H 	0.64836 0.72301 0.58505 0.15400
C 	C 	0.27537 0.73728 0.61967 -0.03600
C 	C 	0.34295 0.83041 0.61200 -0.08700
C 	C 	0.32836 0.88762 0.61055 0.18500
C 	C 	0.24370 0.85299 0.61512 -0.11200
C 	C 	0.17910 0.75975 0.62570 -0.03900
C 	C 	0.19364 0.70183 0.62731 0.14300
H 	H 	0.40672 0.85892 0.60659 0.08300
O 	O 	0.39474 0.97814 0.60227 -0.26900
H 	H 	0.11508 0.73202 0.63061 0.07000
O 	O 	0.12907 0.61127 0.63709 -0.26900
H 	H 	0.08240 0.59449 0.61420 0.15400
H 	H 	0.43591 0.99315 0.62597 0.16300
C 	C 	0.17902 0.46330 0.10474 -0.03700
C 	C 	0.15178 0.38993 0.13466 -0.09200
C 	C 	0.11517 0.30627 0.13328 0.18400
C 	C 	0.10065 0.29355 0.10103 -0.12000
C 	C 	0.12411 0.36599 0.07049 -0.04000
C 	C 	0.16347 0.45060 0.07228 0.13900
H 	H 	0.16526 0.39918 0.16000 0.06900
O 	O 	0.09563 0.23725 0.16385 -0.28800
H 	H 	0.11012 0.35654 0.04513 0.06000
O 	O 	0.18757 0.52106 0.04235 -0.26900
H 	H 	0.25243 0.54740 0.04401 0.15500
H 	H 	0.03137 0.20951 0.16364 0.13600
C 	C 	0.50750 0.69988 0.13721 -0.04100
C 	C 	0.56455 0.70329 0.17236 -0.09100
C 	C 	0.65646 0.73493 0.17893 0.18700
C 	C 	0.69187 0.76375 0.15010 -0.12200
C 	C 	0.63279 0.75509 0.11537 -0.03600
C 	C 	0.54111 0.72387 0.10879 0.14200
H 	H 	0.53764 0.68134 0.19461 0.07200
H 	H 	0.65964 0.77770 0.09298 0.06900
O 	O 	0.48590 0.72117 0.07419 -0.26300
H 	H 	0.45457 0.66141 0.07180 0.15100
C 	C 	0.27770 0.73865 0.11819 -0.03700
C 	C 	0.20936 0.70685 0.13339 -0.08300
C 	C 	0.19391 0.76522 0.13066 0.18100
C 	C 	0.24609 0.85601 0.11197 -0.10000
C 	C 	0.31931 0.88848 0.09961 -0.04600
C 	C 	0.33355 0.83042 0.10167 0.14700
H 	H 	0.16899 0.63738 0.14770 0.07100
O 	O 	0.13173 0.73439 0.14784 -0.27800
H 	H 	0.36178 0.95844 0.08615 0.08600
O 	O 	0.39870 0.86280 0.08562 -0.25400
H 	H 	0.45859 0.88570 0.10415 0.16600
H 	H 	0.06998 0.70720 0.13070 0.14900
C 	C 	0.65142 0.10656 0.54519 -0.06100
H 	H 	0.58793 0.07699 0.55118 0.04700
O 	O 	0.60276 0.95996 0.55492 -0.20800
H 	H 	0.61453 0.94012 0.58175 0.15600
C 	C 	0.83553 0.46873 0.56222 -0.04400
C 	C 	0.84871 0.48677 0.59255 -0.09000
H 	H 	0.82115 0.43241 0.61555 0.07000
O 	O 	0.90464 0.59052 0.62226 -0.28800
H 	H 	0.84687 0.58137 0.61911 0.15800
C 	C 	0.50318 0.24418 0.53061 -0.04200
C 	C 	0.44945 0.24614 0.49491 -0.09300
C 	C 	0.35784 0.21605 0.48749 0.18600
C 	C 	0.31906 0.18239 0.51606 -0.13100
C 	C 	0.37595 0.18858 0.55126 -0.03500
C 	C 	0.46750 0.21847 0.55868 0.13700
H 	H 	0.47846 0.27029 0.47295 0.07200
O 	O 	0.30612 0.21956 0.45233 -0.28600
H 	H 	0.34724 0.16438 0.57333 0.05200
O 	O 	0.52201 0.22244 0.59336 -0.27800
H 	H 	0.51116 0.16344 0.60495 0.13600
H 	H 	0.27909 0.16426 0.44720 0.14300
C 	C 	0.65615 0.10282 0.05384 0.17800
H 	H 	0.63216 0.97667 0.06954 0.14600
O 	O 	0.58606 0.06744 0.06786 -0.29900
H 	H 	0.92614 0.23515 0.02752 0.14700
H 	H 	0.61576 0.07134 0.09350 0.13000
C 	C 	0.82837 0.47084 0.05633 -0.04400
C 	C 	0.86522 0.54292 0.02722 -0.08600
C 	C 	0.90531 0.62897 0.02707 0.17900
H 	H 	0.85565 0.53112 0.00332 0.07000
O 	O 	0.93619 0.69799 0.99738 -0.28300
H 	H 	0.88200 0.69994 0.98127 0.15400
C 	C 	0.49578 0.24558 0.02456 -0.04900
C 	C 	0.46560 0.22772 0.05262 -0.09300
C 	C 	0.37438 0.19667 0.04674 0.18600
C 	C 	0.31266 0.18328 0.01248 -0.13200
C 	C 	0.34658 0.21089 0.98350 -0.03800
C 	C 	0.43743 0.24085 0.98954 0.14400
H 	H 	0.51229 0.23597 0.07924 0.07100
O 	O 	0.34544 0.17864 0.07455 -0.28700
H 	H 	0.30039 0.20349 0.95675 0.05700
O 	O 	0.46805 0.26268 0.96144 -0.27800
H 	H 	0.49636 0.32729 0.95060 0.15100
H 	H 	0.32441 0.11651 0.08826 0.13900
N 	N 	0.76850 0.33338 0.04627 -0.14300
N 	N 	0.77553 0.33308 0.55068 -0.13700
Co	Co	0.02998 0.87511 0.08941 1.18700
Co	Co	0.96153 0.91240 0.13043 1.18700
C 	C 	0.96880 0.73676 0.05924 0.31300
Co	Co	0.90150 0.01848 0.13379 1.12900
O 	O 	0.94221 0.99244 0.10776 -0.70700
O 	O 	0.99440 0.83575 0.13520 -0.45100
O 	O 	0.96761 0.94731 0.07327 -0.55300
C 	C 	0.79286 0.82130 0.15416 0.32900
C 	C 	0.96421 0.94908 0.96133 0.28500
O 	O 	0.84459 0.89048 0.16723 -0.39700
O 	O 	0.82822 0.81300 0.13889 -0.38500
O 	O 	0.97910 0.88849 0.98404 -0.37500
O 	O 	0.96794 0.99916 0.97325 -0.32500
C 	C 	0.78796 0.03106 0.05968 0.21000
O 	O 	0.78214 0.97901 0.09271 -0.31100
O 	O 	0.83850 0.04683 0.04222 -0.36900
O 	O 	0.05097 0.79456 0.05169 -0.39200
O 	O 	0.94331 0.75592 0.07453 -0.38700
Co	Co	0.03161 0.87697 0.58971 1.18800
Co	Co	0.96034 0.91502 0.62903 1.18600
C 	C 	0.97432 0.73703 0.56166 0.32100
Co	Co	0.89821 0.02161 0.63048 1.12900
O 	O 	0.94060 0.99479 0.60559 -0.70400
O 	O 	0.99406 0.83808 0.63487 -0.45500
O 	O 	0.96829 0.94904 0.57231 -0.55000
C 	C 	0.78952 0.82463 0.65102 0.32500
C 	C 	0.97130 0.95109 0.46184 0.36300
O 	O 	0.84040 0.89375 0.66402 -0.38900
O 	O 	0.82666 0.81534 0.63710 -0.37900
O 	O 	0.98599 0.89046 0.48484 -0.39500
O 	O 	0.97472 0.00168 0.47330 -0.44300
C 	C 	0.78629 0.03264 0.55595 0.22100
O 	O 	0.77984 0.98109 0.58900 -0.30200
O 	O 	0.83849 0.04885 0.53918 -0.37300
O 	O 	0.05549 0.79528 0.55315 -0.40300
O 	O 	0.94672 0.75792 0.57510 -0.38200
C 	C 	0.99285 0.89833 0.74753 -0.03400
C 	C 	0.97975 0.88665 0.77931 -0.03500
C 	C 	0.03065 0.96031 0.79310 0.05800
C 	C 	0.01234 0.94807 0.82567 0.07600
C 	C 	0.98452 0.99190 0.85931 0.22200
C 	C 	0.95460 0.96825 0.92232 -0.02900
C 	C 	0.89813 0.89650 0.90643 0.03700
C 	C 	0.91308 0.90815 0.87519 -0.12100
H 	H 	0.94842 0.84205 0.73582 0.05500
H 	H 	0.92756 0.82093 0.79238 0.04700
H 	H 	0.00158 0.88997 0.84809 0.02500
H 	H 	0.84630 0.83046 0.91951 0.03600
H 	H 	0.87009 0.85176 0.86374 0.07500
C 	C 	0.95914 0.96773 0.42287 -0.03700
C 	C 	0.89042 0.89796 0.37448 -0.08900
C 	C 	0.88528 0.89732 0.40567 0.03000
C 	C 	0.05239 0.98199 0.32759 0.03500
C 	C 	0.05818 0.97963 0.29532 0.08600
C 	C 	0.98892 0.90435 0.28078 -0.06400
C 	C 	0.99293 0.90486 0.24931 0.01100
H 	H 	0.83403 0.84198 0.36215 0.06300
H 	H 	0.82640 0.83952 0.41769 0.04100
H 	H 	0.11304 0.00136 0.35029 -0.01500
H 	H 	0.93109 0.84630 0.29333 0.05600
H 	H 	0.93650 0.84831 0.23732 0.04600
O 	O 	0.71141 0.73672 0.21360 -0.28800
H 	H 	0.73958 0.79446 0.21694 0.15400
C 	C 	0.71774 0.19980 0.53720 -0.06200
C 	C 	0.66844 0.05079 0.54713 0.08400
C 	C 	0.75248 0.08775 0.54115 -0.07100
C 	C 	0.81379 0.18085 0.52912 -0.06700
C 	C 	0.79782 0.23701 0.52782 0.15500
H 	H 	0.87717 0.21001 0.52318 0.07500
O 	O 	0.85922 0.32777 0.51654 -0.27200
H 	H 	0.90929 0.34705 0.53854 0.15200
C 	C 	0.89074 0.57379 0.59216 0.18500
C 	C 	0.92136 0.64383 0.56141 -0.11800
C 	C 	0.91467 0.62659 0.53234 -0.04100
C 	C 	0.87386 0.53993 0.53302 0.13900
H 	H 	0.94109 0.68064 0.50909 0.06000
O 	O 	0.86416 0.52384 0.50364 -0.27000
H 	H 	0.92048 0.52805 0.50908 0.15300
C 	C 	0.74939 0.08252 0.04461 -0.05600
C 	C 	0.67372 0.04698 0.05629 -0.17100
C 	C 	0.71130 0.19492 0.03768 -0.06300
C 	C 	0.78098 0.22914 0.02268 -0.07200
C 	C 	0.79978 0.17334 0.02581 0.15600
H 	H 	0.82108 0.29907 0.00881 0.06800
O 	O 	0.86568 0.20723 0.00980 -0.27900
C 	C 	0.91394 0.64454 0.05725 -0.11400
C 	C 	0.88344 0.57344 0.08756 -0.04400
C 	C 	0.84196 0.48707 0.08737 0.14100
H 	H 	0.89257 0.58511 0.11139 0.06100
O 	O 	0.80856 0.41743 0.11654 -0.27900
H 	H 	0.86073 0.41222 0.13253 0.14400
