data_crystal

_cell_length_a 18.72028
_cell_length_b 18.79209
_cell_length_c 42.96850
_cell_angle_alpha 95.42887
_cell_angle_beta  95.42768
_cell_angle_gamma 126.41438

_symmetry_space_group_name_	'P 1'
_symmetry_space_group_name_H-M	'P 1'

loop_
_symmetry_equiv_pos_as_xyz
  x,y,z

loop_
_atom_site_label
_atom_site_type_symbol
_atom_site_fract_x
_atom_site_fract_y
_atom_site_fract_z
_atom_site_charge
C 	C 	0.92906 0.02167 0.97999 0.00800
C 	C 	0.88582 0.92908 0.97841 0.03500
C 	C 	0.93535 0.89528 0.97572 0.02800
C 	C 	0.02770 0.95419 0.97500 0.03900
C 	C 	0.07128 0.04664 0.97736 0.02200
C 	C 	0.02245 0.08055 0.98090 0.02400
H 	H 	0.81426 0.88372 0.97894 0.10000
H 	H 	0.06589 0.92818 0.97293 0.10100
H 	H 	0.05686 0.15248 0.98420 0.10100
C 	C 	0.92667 0.01184 0.49143 -0.00200
C 	C 	0.87809 0.92665 0.49973 0.04200
C 	C 	0.91723 0.88275 0.50274 0.02800
C 	C 	0.00816 0.92761 0.50053 0.05000
C 	C 	0.05984 0.01616 0.49511 0.01600
C 	C 	0.01844 0.05765 0.48967 0.04000
H 	H 	0.80775 0.89192 0.50166 0.10100
H 	H 	0.03836 0.89331 0.50257 0.10300
H 	H 	0.05690 0.12432 0.48380 0.09600
Cu	Cu	0.75675 0.35053 0.96902 0.93300
Cu	Cu	0.76409 0.30053 0.04127 0.93500
Cu	Cu	0.62939 0.34270 0.01004 0.94100
Cu	Cu	0.60408 0.36923 0.94314 0.91500
C 	C 	0.70040 0.33203 0.90180 0.29900
O 	O 	0.82188 0.48510 0.96820 -0.31700
C 	C 	0.65139 0.32457 0.07373 0.29800
O 	O 	0.62043 0.29768 0.96608 -0.62500
O 	O 	0.75196 0.37269 0.01462 -0.62000
O 	O 	0.79098 0.26640 0.96892 -0.32400
O 	O 	0.85100 0.30318 0.02172 -0.32400
O 	O 	0.67537 0.38254 0.90963 -0.36000
O 	O 	0.51436 0.32312 0.00523 -0.28600
C 	C 	0.45508 0.28414 0.97838 0.29600
C 	C 	0.78890 0.52748 0.97806 0.29300
O 	O 	0.70355 0.48098 0.98083 -0.34900
O 	O 	0.48053 0.31066 0.95152 -0.34500
O 	O 	0.73918 0.31457 0.92377 -0.33600
C 	C 	0.82516 0.25244 0.99378 0.29100
O 	O 	0.64097 0.37114 0.05550 -0.29800
O 	O 	0.66157 0.26526 0.06108 -0.34000
H 	H 	0.57389 0.23180 0.95919 0.20600
H 	H 	0.79826 0.43696 0.02439 0.21700
Cu	Cu	0.59564 0.17591 0.50221 0.93900
Cu	Cu	0.65239 0.17593 0.42989 0.90300
Cu	Cu	0.64756 0.32998 0.46737 0.93000
Cu	Cu	0.59530 0.33879 0.52958 0.91100
C 	C 	0.61804 0.23170 0.56960 0.29500
O 	O 	0.46224 0.12023 0.50052 -0.31200
C 	C 	0.66037 0.31350 0.40295 0.29600
O 	O 	0.66834 0.31714 0.51011 -0.63200
O 	O 	0.58766 0.19797 0.45775 -0.61800
O 	O 	0.66042 0.11998 0.50081 -0.27500
O 	O 	0.63305 0.07973 0.44702 -0.38100
O 	O 	0.57503 0.26572 0.56304 -0.35400
O 	O 	0.71464 0.45825 0.47744 -0.31400
C 	C 	0.70195 0.50197 0.49927 0.31400
C 	C 	0.42926 0.16248 0.49193 0.30100
O 	O 	0.48459 0.24789 0.49017 -0.33900
O 	O 	0.65165 0.46257 0.52076 -0.34100
O 	O 	0.61866 0.17890 0.54718 -0.30800
C 	C 	0.67981 0.09653 0.47496 0.29000
O 	O 	0.62484 0.33492 0.42313 -0.30100
O 	O 	0.70701 0.28595 0.41310 -0.38700
H 	H 	0.73284 0.35584 0.52052 0.21200
H 	H 	0.52432 0.16459 0.44671 0.21700
C 	C 	0.70497 0.31332 0.86823 -0.06200
C 	C 	0.68719 0.23154 0.85540 0.02900
C 	C 	0.68755 0.21233 0.82314 -0.04500
C 	C 	0.70649 0.27506 0.80357 0.04100
C 	C 	0.72608 0.35746 0.81655 -0.04600
C 	C 	0.72531 0.37652 0.84868 0.02900
C 	C 	0.70213 0.25328 0.76922 0.01700
C 	C 	0.78023 0.30426 0.75608 -0.02100
C 	C 	0.77377 0.29446 0.72304 -0.02200
C 	C 	0.68910 0.23380 0.70287 0.01700
C 	C 	0.61176 0.17897 0.71602 -0.02200
C 	C 	0.61827 0.18864 0.74907 -0.02200
C 	C 	0.67991 0.23557 0.66848 0.04300
C 	C 	0.64410 0.15771 0.64596 -0.04400
C 	C 	0.62721 0.15724 0.61345 0.03700
C 	C 	0.64564 0.23456 0.60327 -0.05100
C 	C 	0.68449 0.31324 0.62578 0.03100
C 	C 	0.70147 0.31373 0.65819 -0.04500
H 	H 	0.67156 0.18231 0.87024 0.07100
H 	H 	0.67246 0.14856 0.81333 0.08400
H 	H 	0.74075 0.40626 0.80161 0.08100
H 	H 	0.74052 0.44043 0.85837 0.07700
H 	H 	0.84541 0.35369 0.77146 0.07300
H 	H 	0.83403 0.33632 0.71312 0.07300
H 	H 	0.54612 0.13168 0.70067 0.07200
H 	H 	0.55766 0.14867 0.75900 0.07000
H 	H 	0.62773 0.09718 0.65365 0.08000
H 	H 	0.59727 0.09606 0.59634 0.07700
H 	H 	0.69993 0.37357 0.61819 0.05700
H 	H 	0.72920 0.37418 0.67538 0.07700
C 	C 	0.63937 0.32964 0.10720 -0.03800
C 	C 	0.61779 0.25931 0.12324 0.02700
C 	C 	0.61256 0.26672 0.15547 -0.04000
C 	C 	0.62823 0.34418 0.17203 0.03700
C 	C 	0.64736 0.41348 0.15588 -0.03900
C 	C 	0.65301 0.40634 0.12362 0.02600
C 	C 	0.62928 0.35453 0.20664 0.01700
C 	C 	0.55331 0.28982 0.21866 -0.02400
C 	C 	0.55840 0.29256 0.25148 -0.02400
C 	C 	0.63932 0.36035 0.27260 0.01700
C 	C 	0.71367 0.42788 0.26067 -0.02300
C 	C 	0.70879 0.42481 0.22784 -0.02400
C 	C 	0.64909 0.35539 0.30670 0.03900
C 	C 	0.71300 0.34525 0.32026 -0.04600
C 	C 	0.71840 0.33420 0.35187 0.02200
C 	C 	0.65946 0.33261 0.37032 -0.04900
C 	C 	0.59693 0.34507 0.35695 0.03600
C 	C 	0.59183 0.35641 0.32529 -0.03900
H 	H 	0.60584 0.19920 0.11084 0.08700
H 	H 	0.59790 0.21291 0.16773 0.07400
H 	H 	0.65904 0.47334 0.16840 0.07900
H 	H 	0.66973 0.46115 0.11162 0.08900
H 	H 	0.49125 0.23594 0.20252 0.07100
H 	H 	0.50050 0.24028 0.26043 0.06700
H 	H 	0.77611 0.48109 0.27679 0.07200
H 	H 	0.76771 0.47530 0.21884 0.06800
H 	H 	0.75744 0.34427 0.30610 0.06900
H 	H 	0.76777 0.32587 0.36188 0.06200
H 	H 	0.55118 0.34428 0.37084 0.10100
H 	H 	0.54265 0.36481 0.31509 0.08500
C 	C 	0.80306 0.72593 0.47422 0.00500
C 	C 	0.85905 0.78550 0.50280 0.10100
C 	C 	0.85660 0.75193 0.53112 -0.13000
C 	C 	0.80373 0.65834 0.52951 0.08100
C 	C 	0.74874 0.59880 0.50076 -0.00900
C 	C 	0.74344 0.63297 0.47335 -0.05500
C 	C 	0.67688 0.57093 0.44282 0.77200
H 	H 	0.80565 0.75241 0.45266 0.13400
H 	H 	0.80690 0.63152 0.55040 0.08300
C 	C 	0.91413 0.81532 0.56262 0.78400
F 	F 	0.65986 0.61702 0.42399 -0.39700
F 	F 	0.59510 0.50074 0.44934 -0.42100
F 	F 	0.71246 0.53650 0.42579 -0.42800
F 	F 	0.90478 0.88303 0.56749 -0.40000
F 	F 	0.00380 0.85314 0.56245 -0.38400
F 	F 	0.88907 0.77056 0.58799 -0.41000
C 	C 	0.74117 0.01826 0.45480 0.05700
C 	C 	0.75156 0.08441 0.47735 -0.01200
C 	C 	0.83285 0.14154 0.50047 -0.07000
C 	C 	0.89252 0.11919 0.50420 0.00500
C 	C 	0.87909 0.04980 0.48257 0.10600
C 	C 	0.80817 0.00582 0.45572 -0.15400
C 	C 	0.80027 0.94145 0.42894 0.80700
H 	H 	0.68093 0.97654 0.43641 0.10800
H 	H 	0.94804 0.15417 0.52439 0.11900
C 	C 	0.85676 0.22573 0.52110 0.77500
F 	F 	0.75582 0.93844 0.40061 -0.41300
F 	F 	0.75182 0.85593 0.43598 -0.42500
F 	F 	0.88468 0.96848 0.42445 -0.42800
F 	F 	0.81018 0.20246 0.54604 -0.42800
F 	F 	0.83568 0.27093 0.50345 -0.47300
F 	F 	0.94841 0.28468 0.53370 -0.41600
C 	C 	0.30986 0.13382 0.52127 0.07700
C 	C 	0.33375 0.12185 0.49237 -0.00700
C 	C 	0.26901 0.08114 0.46381 -0.06200
C 	C 	0.18075 0.05263 0.46487 0.00300
C 	C 	0.15660 0.06361 0.49388 0.10100
C 	C 	0.22261 0.10789 0.52221 -0.12900
C 	C 	0.19948 0.12550 0.55356 0.79100
H 	H 	0.36019 0.16514 0.54296 0.07700
H 	H 	0.12986 0.01952 0.44331 0.11400
C 	C 	0.29411 0.06844 0.43229 0.77000
F 	F 	0.27596 0.18243 0.57706 -0.41500
F 	F 	0.14225 0.04512 0.56369 -0.39100
F 	F 	0.15742 0.16551 0.54979 -0.41500
F 	F 	0.32958 0.02174 0.43437 -0.44200
F 	F 	0.35801 0.15163 0.42506 -0.43500
F 	F 	0.22007 0.02049 0.40760 -0.41700
C 	C 	0.84590 0.65346 0.94903 0.07200
C 	C 	0.83981 0.62469 0.97826 -0.00600
C 	C 	0.86506 0.68516 0.00674 -0.06600
C 	C 	0.88845 0.77092 0.00510 0.01000
C 	C 	0.89243 0.79901 0.97579 0.09100
C 	C 	0.86896 0.73908 0.94731 -0.12700
C 	C 	0.87014 0.76683 0.91517 0.79000
H 	H 	0.82832 0.60724 0.92742 0.08100
H 	H 	0.90612 0.81710 0.02672 0.10100
C 	C 	0.86576 0.65783 0.03882 0.77300
F 	F 	0.82665 0.69368 0.89038 -0.41600
F 	F 	0.95852 0.82811 0.91146 -0.39900
F 	F 	0.82660 0.80572 0.91302 -0.38000
F 	F 	0.90794 0.61743 0.04005 -0.44600
F 	F 	0.77797 0.59782 0.04335 -0.44100
F 	F 	0.91188 0.73144 0.06353 -0.42000
C 	C 	0.84375 0.15154 0.95944 0.07700
C 	C 	0.83595 0.17971 0.98959 -0.00600
C 	C 	0.83592 0.13588 0.01492 -0.07000
C 	C 	0.86510 0.08210 0.01139 0.01000
C 	C 	0.87758 0.05818 0.98164 0.09200
C 	C 	0.85607 0.08468 0.95480 -0.12300
C 	C 	0.84747 0.04311 0.92136 0.77700
H 	H 	0.83969 0.18121 0.93955 0.09200
H 	H 	0.87876 0.05945 0.03183 0.09300
C 	C 	0.80096 0.14176 0.04478 0.77200
F 	F 	0.79519 0.05185 0.89944 -0.41400
F 	F 	0.80660 0.95226 0.91905 -0.36900
F 	F 	0.93202 0.08556 0.91364 -0.37200
F 	F 	0.72531 0.13836 0.03735 -0.48700
F 	F 	0.86778 0.22085 0.06575 -0.45000
F 	F 	0.77609 0.07036 0.05988 -0.42200
C 	C 	0.22894 0.11319 0.00162 0.01000
C 	C 	0.16938 0.10826 0.97749 0.09100
C 	C 	0.20392 0.15900 0.95312 -0.12600
C 	C 	0.29766 0.22310 0.95624 0.07800
C 	C 	0.35727 0.22437 0.97917 -0.00300
C 	C 	0.32168 0.16396 0.00090 -0.06700
C 	C 	0.38093 0.15232 0.02308 0.77400
H 	H 	0.20232 0.07473 0.02033 0.09500
H 	H 	0.32441 0.27030 0.94007 0.09400
C 	C 	0.14218 0.14777 0.92428 0.79200
F 	F 	0.32930 0.07334 0.03475 -0.42300
F 	F 	0.42957 0.22350 0.04864 -0.43400
F 	F 	0.43965 0.14804 0.00722 -0.46300
F 	F 	0.11465 0.20006 0.93182 -0.39900
F 	F 	0.06743 0.05869 0.91425 -0.37100
F 	F 	0.18707 0.17530 0.89899 -0.40200
