data_crystal

_cell_length_a 26.07690
_cell_length_b 26.47735
_cell_length_c 44.98386
_cell_angle_alpha 95.47858
_cell_angle_beta  95.47765
_cell_angle_gamma 125.73938

_symmetry_space_group_name_	'P 1'
_symmetry_space_group_name_H-M	'P 1'

loop_
_symmetry_equiv_pos_as_xyz
  x,y,z

loop_
_atom_site_label
_atom_site_type_symbol
_atom_site_fract_x
_atom_site_fract_y
_atom_site_fract_z
_atom_site_charge
C 	C 	0.96152 0.03114 0.99869 0.02300
C 	C 	0.02688 0.06147 0.99774 -0.06800
C 	C 	0.05152 0.02644 0.99641 0.02400
H 	H 	0.05833 0.11198 0.99795 0.04800
C 	C 	0.01120 0.03407 0.47182 -0.06900
H 	H 	0.03866 0.08365 0.46998 0.04900
Cu	Cu	0.63656 0.24324 0.99915 0.92800
Cu	Cu	0.68781 0.25348 0.93459 0.87000
Cu	Cu	0.66618 0.34452 0.96170 0.89700
Cu	Cu	0.62798 0.35339 0.02143 0.89400
C 	C 	0.64916 0.28250 0.06301 0.28900
O 	O 	0.54154 0.19973 0.99868 -0.36300
C 	C 	0.64529 0.30500 0.89499 0.28900
O 	O 	0.68303 0.34112 0.00353 -0.64100
O 	O 	0.62670 0.25215 0.95623 -0.64100
O 	O 	0.68197 0.20367 0.99611 -0.37400
O 	O 	0.74997 0.27365 0.96842 -0.44100
O 	O 	0.61865 0.30688 0.05550 -0.38800
O 	O 	0.70963 0.43491 0.96982 -0.38400
C 	C 	0.70094 0.46581 0.99113 0.28600
C 	C 	0.51315 0.22424 0.98852 0.27900
O 	O 	0.54823 0.28361 0.98525 -0.39400
O 	O 	0.65946 0.43620 0.00930 -0.39400
O 	O 	0.65865 0.25160 0.04210 -0.36400
C 	C 	0.73633 0.23209 0.98595 0.28400
O 	O 	0.66448 0.35060 0.91825 -0.39000
O 	O 	0.64467 0.25585 0.89867 -0.42100
H 	H 	0.72893 0.37028 0.01346 0.16400
H 	H 	0.58206 0.22471 0.94458 0.17300
Cu	Cu	0.74890 0.34015 0.46374 0.92700
Cu	Cu	0.74771 0.29933 0.53035 0.86900
Cu	Cu	0.64120 0.29775 0.49977 0.89700
Cu	Cu	0.62086 0.32052 0.43728 0.89300
C 	C 	0.70208 0.30892 0.39933 0.28800
O 	O 	0.77690 0.42890 0.46114 -0.36000
C 	C 	0.68213 0.32928 0.56693 0.28900
O 	O 	0.64799 0.28001 0.45873 -0.64100
O 	O 	0.73699 0.35003 0.50605 -0.64300
O 	O 	0.80258 0.30967 0.47025 -0.37300
O 	O 	0.73709 0.23943 0.49864 -0.44000
O 	O 	0.67047 0.33288 0.40404 -0.38500
O 	O 	0.54844 0.24170 0.49132 -0.38600
C 	C 	0.51065 0.24189 0.46962 0.28800
C 	C 	0.74279 0.44814 0.46913 0.27800
O 	O 	0.68247 0.40651 0.47136 -0.39200
O 	O 	0.53333 0.27605 0.44809 -0.39400
O 	O 	0.74463 0.31655 0.42141 -0.36200
C 	C 	0.78008 0.25754 0.48114 0.28500
O 	O 	0.63469 0.30274 0.54316 -0.38900
O 	O 	0.73691 0.33844 0.56455 -0.42100
H 	H 	0.62510 0.23446 0.45044 0.16400
H 	H 	0.75880 0.39420 0.51655 0.17200
C 	C 	0.63301 0.31355 0.86383 -0.09300
C 	C 	0.66736 0.37454 0.85670 0.01600
C 	C 	0.66362 0.38199 0.82638 -0.07400
C 	C 	0.62536 0.32867 0.80303 0.04400
C 	C 	0.58795 0.26804 0.81020 -0.07400
C 	C 	0.59164 0.26045 0.84048 0.01700
C 	C 	0.62994 0.33562 0.77183 -0.03300
C 	C 	0.63327 0.34069 0.74562 -0.00300
C 	C 	0.63849 0.34553 0.71491 -0.00400
C 	C 	0.64395 0.34862 0.68871 -0.03300
C 	C 	0.65159 0.35098 0.65748 0.04400
C 	C 	0.71292 0.39204 0.65062 -0.07400
C 	C 	0.72239 0.38725 0.62070 0.01700
C 	C 	0.67051 0.34109 0.59742 -0.09300
C 	C 	0.60839 0.30250 0.60412 0.01700
C 	C 	0.59908 0.30735 0.63407 -0.07400
H 	H 	0.69905 0.41600 0.87447 0.03300
H 	H 	0.69229 0.42907 0.82102 0.04800
H 	H 	0.55769 0.22663 0.79227 0.04800
H 	H 	0.56376 0.21322 0.84570 0.02800
H 	H 	0.75366 0.42627 0.66858 0.04700
H 	H 	0.77030 0.41829 0.61578 0.02800
H 	H 	0.56779 0.26700 0.58639 0.03400
H 	H 	0.55143 0.27569 0.63919 0.04800
C 	C 	0.65848 0.27639 0.09495 -0.08800
C 	C 	0.71174 0.27916 0.10746 0.01600
C 	C 	0.72142 0.27546 0.13811 -0.07200
C 	C 	0.67778 0.26866 0.15632 0.04400
C 	C 	0.62405 0.26468 0.14372 -0.07300
C 	C 	0.61436 0.26848 0.11321 0.01800
C 	C 	0.68889 0.26792 0.18820 -0.03200
C 	C 	0.69543 0.26704 0.21499 -0.00200
C 	C 	0.70047 0.26665 0.24647 -0.00200
C 	C 	0.70266 0.26697 0.27337 -0.03100
C 	C 	0.70283 0.26826 0.30546 0.04500
C 	C 	0.76112 0.30614 0.32634 -0.07300
C 	C 	0.76103 0.31637 0.35744 0.02200
C 	C 	0.70256 0.28913 0.36775 -0.08800
C 	C 	0.64432 0.24846 0.34693 0.01700
C 	C 	0.64449 0.23795 0.31592 -0.07300
H 	H 	0.74606 0.28513 0.09361 0.03200
H 	H 	0.76307 0.27850 0.14771 0.04900
H 	H 	0.58997 0.25912 0.15765 0.04900
H 	H 	0.57245 0.26512 0.10374 0.03300
H 	H 	0.80644 0.32954 0.31844 0.05000
H 	H 	0.80631 0.34773 0.37330 0.03800
H 	H 	0.59894 0.22664 0.35468 0.01800
H 	H 	0.59924 0.20826 0.29992 0.04800
C 	C 	0.77010 0.51569 0.47254 -0.07700
C 	C 	0.83214 0.56197 0.48930 0.00600
C 	C 	0.85891 0.62626 0.49193 -0.05800
C 	C 	0.82314 0.64522 0.47816 0.01500
C 	C 	0.76229 0.59842 0.45948 0.00100
C 	C 	0.73520 0.53396 0.45773 -0.01300
C 	C 	0.73065 0.61654 0.44156 -0.03400
C 	C 	0.75966 0.68042 0.44119 -0.05400
H 	H 	0.86008 0.54819 0.50004 0.02700
H 	H 	0.90848 0.66080 0.50313 0.04200
H 	H 	0.68800 0.49810 0.44395 0.03100
H 	H 	0.68433 0.58091 0.42707 0.03500
C 	C 	0.80769 0.22306 0.47648 -0.08300
C 	C 	0.87164 0.25138 0.48969 0.00500
C 	C 	0.89528 0.21568 0.48967 -0.06000
C 	C 	0.85436 0.15034 0.47694 0.01400
C 	C 	0.79229 0.12392 0.46051 -0.00100
C 	C 	0.76851 0.15982 0.46126 -0.01100
C 	C 	0.75527 0.06250 0.44307 -0.03400
C 	C 	0.83881 0.05095 0.45954 0.03200
C 	C 	0.87501 0.11128 0.47874 -0.01600
C 	C 	0.92819 0.12915 0.50052 -0.02900
C 	C 	0.94981 0.09174 0.50031 -0.04800
C 	C 	0.91833 0.03555 0.47882 0.01300
H 	H 	0.90281 0.30090 0.50050 0.02200
H 	H 	0.94576 0.23954 0.49843 0.04100
H 	H 	0.71964 0.13859 0.45017 0.03400
H 	H 	0.70824 0.04248 0.42998 0.03500
H 	H 	0.95111 0.17016 0.51844 0.03300
H 	H 	0.99148 0.10668 0.51678 0.03900
C 	C 	0.10981 0.04016 0.47090 0.01300
C 	C 	0.15429 0.08084 0.49742 -0.04800
C 	C 	0.22019 0.11526 0.49768 -0.02800
C 	C 	0.24258 0.10737 0.47151 -0.01500
C 	C 	0.19759 0.07024 0.44408 0.03200
C 	C 	0.13138 0.03543 0.44417 -0.06900
C 	C 	0.21926 0.07003 0.41674 -0.05400
C 	C 	0.28497 0.10664 0.41628 -0.03400
C 	C 	0.33020 0.14080 0.44342 0.00100
C 	C 	0.30922 0.13859 0.47152 0.01400
C 	C 	0.35471 0.16433 0.49880 -0.05800
C 	C 	0.42019 0.19829 0.49804 0.00600
C 	C 	0.44134 0.20501 0.47018 -0.07500
C 	C 	0.39623 0.17552 0.44290 -0.01500
H 	H 	0.13773 0.08651 0.51780 0.04000
H 	H 	0.25323 0.15020 0.51765 0.03400
H 	H 	0.09675 0.00547 0.42341 0.04700
H 	H 	0.18507 0.04252 0.39563 0.04100
H 	H 	0.30075 0.10732 0.39479 0.03500
H 	H 	0.33966 0.15557 0.52047 0.04200
H 	H 	0.45456 0.21909 0.51922 0.03800
H 	H 	0.41240 0.17850 0.42135 0.03500
C 	C 	0.77648 0.62428 0.96681 0.00100
C 	C 	0.79608 0.66486 0.99511 0.01300
C 	C 	0.77688 0.63774 0.02119 -0.05800
C 	C 	0.74683 0.57314 0.01986 0.00500
C 	C 	0.73245 0.53392 0.99230 -0.07600
C 	C 	0.74624 0.55939 0.96571 -0.01500
H 	H 	0.76951 0.61749 0.91813 0.03600
H 	H 	0.78195 0.66546 0.04204 0.04200
H 	H 	0.73409 0.55343 0.04028 0.02900
H 	H 	0.73243 0.52859 0.94411 0.04500
C 	C 	0.77844 0.21220 0.99129 -0.08500
C 	C 	0.82642 0.22943 0.97391 0.00200
C 	C 	0.86210 0.20576 0.97668 -0.06000
C 	C 	0.84830 0.16198 0.99598 0.01300
C 	C 	0.80547 0.15066 0.01607 0.00100
C 	C 	0.76981 0.17476 0.01320 -0.01400
C 	C 	0.79936 0.11612 0.03899 -0.03400
C 	C 	0.83420 0.09159 0.04175 -0.05300
C 	C 	0.87252 0.09757 0.02045 0.03300
C 	C 	0.87792 0.13078 0.99658 -0.01600
C 	C 	0.90824 0.12774 0.97276 -0.02900
C 	C 	0.93723 0.09712 0.97413 -0.04800
C 	C 	0.93479 0.06725 0.99859 0.01200
C 	C 	0.90284 0.06789 0.02183 -0.06800
H 	H 	0.83615 0.26120 0.95816 0.02300
H 	H 	0.90199 0.22376 0.96484 0.04000
H 	H 	0.73544 0.16431 0.02791 0.04700
H 	H 	0.76797 0.10876 0.05494 0.03700
H 	H 	0.90611 0.14536 0.95233 0.03200
H 	H 	0.95977 0.09473 0.95556 0.03900
C 	C 	0.11978 0.05771 0.99486 0.01200
C 	C 	0.14325 0.08263 0.96911 -0.04800
C 	C 	0.20616 0.10674 0.96610 -0.02900
C 	C 	0.24771 0.10881 0.98966 -0.01500
C 	C 	0.22246 0.08002 0.01476 0.03200
C 	C 	0.15945 0.05663 0.01767 -0.06800
C 	C 	0.25937 0.07249 0.03600 -0.05300
C 	C 	0.32096 0.09305 0.03263 -0.03500
C 	C 	0.34855 0.12537 0.00914 0.00200
C 	C 	0.31315 0.13597 0.98811 0.01200
C 	C 	0.34518 0.17677 0.96760 -0.05800
C 	C 	0.40918 0.20211 0.96652 0.00300
C 	C 	0.44329 0.18960 0.98660 -0.07900
C 	C 	0.41252 0.15036 0.00751 -0.01600
H 	H 	0.11185 0.08103 0.95080 0.04000
H 	H 	0.22061 0.11974 0.94471 0.03400
H 	H 	0.34812 0.08543 0.04893 0.03700
H 	H 	0.32253 0.19246 0.95392 0.04200
H 	H 	0.43304 0.23352 0.95075 0.03100
H 	H 	0.43939 0.14207 0.02362 0.04500
H 	H 	0.14058 0.03581 0.03722 0.04600
H 	H 	0.23975 0.04940 0.05490 0.04100
C 	C 	0.78577 0.64862 0.93988 -0.03500
H 	H 	0.73566 0.69336 0.42624 0.04000
C 	C 	0.77937 0.02725 0.44173 -0.05300
H 	H 	0.90000 0.04372 0.04047 0.04600
H 	H 	0.82966 0.06595 0.05994 0.04100
C 	C 	0.86184 0.01434 0.45898 -0.06800
C 	C 	0.84872 0.71024 0.48054 -0.01500
C 	C 	0.81870 0.72748 0.46033 0.03200
C 	C 	0.81494 0.71283 0.94072 -0.05400
C 	C 	0.83213 0.73136 0.99622 -0.01600
H 	H 	0.91942 0.74608 0.52199 0.03400
H 	H 	0.82058 0.73050 0.91959 0.04000
C 	C 	0.90165 0.75796 0.50328 -0.02800
C 	C 	0.83908 0.75461 0.96862 0.03200
H 	H 	0.86806 0.75996 0.04512 0.03400
C 	C 	0.04048 0.00352 0.47106 0.02300
C 	C 	0.94715 0.00138 0.47586 0.02200
C 	C 	0.86514 0.77521 0.02400 -0.02800
C 	C 	0.01083 0.96121 0.99622 -0.07000
C 	C 	0.94579 0.93095 0.99738 0.02200
C 	C 	0.92107 0.96578 0.99851 -0.07000
H 	H 	0.02969 0.93397 0.99499 0.04900
H 	H 	0.87042 0.94203 0.99892 0.04800
C 	C 	0.00496 0.93931 0.47297 -0.06900
C 	C 	0.94081 0.90601 0.47692 0.02200
C 	C 	0.91190 0.93718 0.47840 -0.07000
H 	H 	0.02761 0.91561 0.47207 0.04900
H 	H 	0.86280 0.91203 0.48209 0.04700
C 	C 	0.92982 0.82175 0.50282 -0.04800
C 	C 	0.90475 0.83894 0.48032 0.01300
C 	C 	0.84791 0.79179 0.45976 -0.06900
H 	H 	0.97164 0.85798 0.51985 0.04000
H 	H 	0.82717 0.80507 0.44303 0.04600
H 	H 	0.75094 0.98070 0.42738 0.04000
H 	H 	0.83627 0.96989 0.44299 0.04500
C 	C 	0.90354 0.86252 0.99704 0.01200
C 	C 	0.89939 0.84007 0.02429 -0.04800
C 	C 	0.87313 0.81990 0.96929 -0.06900
H 	H 	0.92488 0.87316 0.04571 0.04000
H 	H 	0.87806 0.83774 0.94820 0.04600
