data_crystal

_cell_length_a 25.68355
_cell_length_b 24.15207
_cell_length_c 31.95300
_cell_angle_alpha 103.92848
_cell_angle_beta  115.87414
_cell_angle_gamma 111.76954

_symmetry_space_group_name_	'P 1'
_symmetry_space_group_name_H-M	'P 1'

loop_
_symmetry_equiv_pos_as_xyz
  x,y,z

loop_
_atom_site_label
_atom_site_type_symbol
_atom_site_fract_x
_atom_site_fract_y
_atom_site_fract_z
_atom_site_charge
C 	C 	0.56514 0.25925 0.88428 0.05300
C 	C 	0.58717 0.32128 0.88352 -0.09200
C 	C 	0.64004 0.34754 0.87693 0.05500
C 	C 	0.67022 0.31136 0.87048 -0.09100
C 	C 	0.64869 0.24972 0.87172 0.05400
C 	C 	0.59551 0.22325 0.87792 -0.09200
H 	H 	0.56459 0.34984 0.88945 0.05700
H 	H 	0.71234 0.33252 0.86673 0.05700
H 	H 	0.57963 0.17608 0.87980 0.05300
C 	C 	0.56571 0.25918 0.38506 0.05500
C 	C 	0.58812 0.32130 0.38444 -0.09000
C 	C 	0.64083 0.34716 0.37764 0.05600
C 	C 	0.67045 0.31050 0.37080 -0.09000
C 	C 	0.64855 0.24878 0.37191 0.05500
C 	C 	0.59554 0.22271 0.37833 -0.09100
H 	H 	0.56598 0.35022 0.39067 0.05800
H 	H 	0.71244 0.33136 0.36689 0.05800
H 	H 	0.57938 0.17547 0.38012 0.05400
C 	C 	0.47354 0.76125 0.99433 0.05700
C 	C 	0.43949 0.79465 0.99634 -0.08800
C 	C 	0.38027 0.76373 0.99512 0.05800
C 	C 	0.35566 0.69985 0.99265 -0.08900
C 	C 	0.38931 0.66617 0.99040 0.05700
C 	C 	0.44847 0.69696 0.99143 -0.09000
H 	H 	0.45804 0.84375 0.99755 0.06400
H 	H 	0.30934 0.67560 0.99108 0.05900
H 	H 	0.47418 0.67062 0.98914 0.05700
C 	C 	0.47489 0.76207 0.49567 0.05900
C 	C 	0.44948 0.69772 0.49264 -0.08900
C 	C 	0.39043 0.66728 0.49180 0.05800
C 	C 	0.35724 0.70139 0.49438 -0.08900
C 	C 	0.38217 0.76532 0.49696 0.06000
C 	C 	0.44129 0.79590 0.49800 -0.08800
H 	H 	0.47481 0.67104 0.49008 0.05800
H 	H 	0.31098 0.67740 0.49292 0.06100
H 	H 	0.46007 0.84502 0.49927 0.06600
Zn	Zn	0.17442 0.14070 0.99896 1.18100
Zn	Zn	0.05890 0.08624 0.88526 1.18700
O 	O 	0.04550 0.96715 0.80228 -0.42300
O 	O 	0.02707 0.05370 0.80843 -0.44100
O 	O 	0.03627 0.88367 0.87318 -0.49300
C 	C 	0.23833 0.10465 0.95427 0.32500
O 	O 	0.99103 0.99497 0.86661 -0.84600
C 	C 	0.17735 0.23325 0.95404 0.33800
O 	O 	0.25088 0.14050 0.99943 -0.47100
O 	O 	0.17439 0.05802 0.91337 -0.37100
O 	O 	0.08098 0.09873 0.95807 -0.79200
O 	O 	0.10087 0.97791 0.95321 -0.43300
O 	O 	0.13364 0.17838 0.90678 -0.45900
O 	O 	0.19689 0.22849 0.99787 -0.46500
Zn	Zn	0.86496 0.89366 0.89171 1.17900
Zn	Zn	0.98287 0.92436 0.98785 1.19000
Zn	Zn	0.01622 0.00678 0.93604 1.20000
C 	C 	0.85591 0.78525 0.92361 0.34500
C 	C 	0.83430 0.94155 0.96115 0.34500
O 	O 	0.93218 0.03918 0.91952 -0.48800
Zn	Zn	0.99919 0.05360 0.02746 1.19600
O 	O 	0.92135 0.82755 0.96469 -0.45900
O 	O 	0.82433 0.80274 0.88924 -0.46300
O 	O 	0.81562 0.92433 0.91242 -0.46800
O 	O 	0.89639 0.95879 0.99787 -0.46200
C 	C 	0.03265 0.00522 0.10319 0.25500
O 	O 	0.95120 0.91516 0.91397 -0.78500
C 	C 	0.92985 0.08354 0.95099 0.32700
O 	O 	0.01749 0.95045 0.06613 -0.37600
O 	O 	0.03923 0.05874 0.09679 -0.46100
O 	O 	0.96008 0.09995 0.00120 -0.48800
O 	O 	0.04003 0.01735 0.00469 -0.90400
Zn	Zn	0.00701 0.93049 0.83822 1.18900
C 	C 	0.03474 0.00815 0.78412 0.24800
C 	C 	0.08765 0.91926 0.92363 0.33800
H 	H 	0.08975 0.03859 0.03195 0.16200
H 	H 	0.94283 0.98173 0.84289 0.15800
Zn	Zn	0.17420 0.14158 0.49931 1.18300
Zn	Zn	0.05832 0.08663 0.38546 1.18700
O 	O 	0.04772 0.96993 0.30370 -0.41700
O 	O 	0.02610 0.05423 0.30854 -0.45200
O 	O 	0.03861 0.88509 0.37379 -0.48700
C 	C 	0.23890 0.10616 0.45520 0.32500
O 	O 	0.99138 0.99495 0.36693 -0.84600
C 	C 	0.17631 0.23395 0.45418 0.33800
O 	O 	0.25115 0.14217 0.50017 -0.46800
O 	O 	0.17507 0.05928 0.41425 -0.36900
O 	O 	0.08071 0.09891 0.45830 -0.78700
O 	O 	0.10215 0.97898 0.45384 -0.42900
O 	O 	0.13229 0.17915 0.40686 -0.45800
O 	O 	0.19593 0.22915 0.49800 -0.46100
Zn	Zn	0.86576 0.89247 0.39170 1.18000
Zn	Zn	0.98420 0.92425 0.48833 1.19400
Zn	Zn	0.01668 0.00675 0.43637 1.20300
C 	C 	0.85774 0.78467 0.42418 0.34500
C 	C 	0.83436 0.93954 0.46079 0.34600
O 	O 	0.93177 0.03796 0.41955 -0.49000
Zn	Zn	0.99887 0.05247 0.52751 1.19400
O 	O 	0.92307 0.82739 0.46538 -0.45400
O 	O 	0.82602 0.80159 0.38937 -0.46000
O 	O 	0.81554 0.92203 0.41200 -0.46600
O 	O 	0.89648 0.95683 0.49748 -0.45500
C 	C 	0.03463 0.00492 0.60384 0.30200
O 	O 	0.95236 0.91494 0.41440 -0.78200
C 	C 	0.92902 0.08198 0.45090 0.34400
O 	O 	0.01999 0.95055 0.56680 -0.39500
O 	O 	0.03860 0.05758 0.59686 -0.45900
O 	O 	0.95903 0.09824 0.50107 -0.50300
O 	O 	0.04062 0.01734 0.50505 -0.91600
Zn	Zn	0.00878 0.93167 0.33886 1.19200
C 	C 	0.03435 0.00914 0.28439 0.29600
C 	C 	0.08955 0.92065 0.42435 0.33800
H 	H 	0.09040 0.03903 0.53241 0.15900
H 	H 	0.94296 0.98103 0.34306 0.16000
C 	C 	0.03778 0.00715 0.73911 -0.07100
C 	C 	0.99952 0.94527 0.69280 -0.00200
C 	C 	0.00152 0.94415 0.64961 0.07300
C 	C 	0.04241 0.00490 0.65246 -0.19100
C 	C 	0.08433 0.06656 0.70033 0.20000
C 	C 	0.08079 0.06761 0.74301 -0.09400
H 	H 	0.96935 0.89634 0.61326 0.03100
H 	H 	0.11214 0.11531 0.77933 0.07400
H 	H 	0.96695 0.89819 0.68980 0.02900
O 	O 	0.12797 0.12588 0.70520 -0.29300
H 	H 	0.17220 0.12855 0.71893 0.13900
C 	C 	0.03980 0.00550 0.15168 -0.06700
C 	C 	0.07696 0.06755 0.19776 -0.04200
C 	C 	0.07488 0.06858 0.24090 0.03900
C 	C 	0.03624 0.00762 0.23877 -0.19200
C 	C 	0.00055 0.94516 0.19327 0.23900
C 	C 	0.00288 0.94427 0.15013 -0.05500
H 	H 	0.10350 0.11682 0.27608 0.03100
H 	H 	0.97386 0.89609 0.11479 0.07700
H 	H 	0.10659 0.11512 0.19986 0.04600
O 	O 	0.96309 0.88501 0.19076 -0.30700
H 	H 	0.91603 0.87603 0.17516 0.14200
C 	C 	0.36157 0.59962 0.48563 -0.03100
C 	C 	0.33521 0.54298 0.48017 -0.00000
C 	C 	0.30249 0.47680 0.47367 0.00800
C 	C 	0.27361 0.42055 0.46831 -0.03900
C 	C 	0.23929 0.35504 0.46251 0.07200
C 	C 	0.21015 0.29951 0.45822 -0.12500
C 	C 	0.53290 0.79170 0.49316 -0.02900
C 	C 	0.58077 0.81665 0.49035 0.00400
C 	C 	0.63609 0.84559 0.48618 0.01200
C 	C 	0.68265 0.86955 0.48182 -0.03200
C 	C 	0.73641 0.89624 0.47567 0.08100
C 	C 	0.78157 0.91727 0.46945 -0.11500
C 	C 	0.13977 0.90332 0.44426 -0.12800
C 	C 	0.18089 0.88701 0.45819 0.08200
C 	C 	0.22748 0.86578 0.47145 -0.03400
C 	C 	0.26570 0.84578 0.48040 0.01600
C 	C 	0.30844 0.82012 0.48832 0.00600
C 	C 	0.34311 0.79625 0.49319 -0.02700
C 	C 	0.36091 0.59862 0.98451 -0.03300
C 	C 	0.33493 0.54206 0.97926 -0.00200
C 	C 	0.30262 0.47596 0.97302 0.00600
C 	C 	0.27407 0.41977 0.96785 -0.04100
C 	C 	0.24004 0.35431 0.96222 0.07100
C 	C 	0.21110 0.29880 0.95803 -0.12700
C 	C 	0.78135 0.91890 0.96964 -0.11900
C 	C 	0.73605 0.89751 0.97567 0.07800
C 	C 	0.68209 0.87037 0.98156 -0.03500
C 	C 	0.63535 0.84602 0.98568 0.01000
C 	C 	0.57982 0.81663 0.98955 0.00200
C 	C 	0.53176 0.79130 0.99211 -0.03100
C 	C 	0.34095 0.79439 0.99129 -0.02900
C 	C 	0.30615 0.81811 0.98644 0.00300
C 	C 	0.26334 0.84369 0.97861 0.01300
C 	C 	0.22514 0.86372 0.96983 -0.03700
C 	C 	0.17865 0.88507 0.95682 0.07900
C 	C 	0.13766 0.90159 0.94317 -0.13300
C 	C 	0.68705 0.21755 0.37434 -0.03400
C 	C 	0.72096 0.19292 0.37881 -0.00600
C 	C 	0.76243 0.16586 0.38712 0.00600
C 	C 	0.79923 0.14429 0.39709 -0.05200
C 	C 	0.84364 0.12084 0.41226 0.07200
C 	C 	0.88239 0.10231 0.42825 -0.15200
C 	C 	0.66917 0.41415 0.38273 -0.03200
C 	C 	0.69493 0.47058 0.38785 -0.00000
C 	C 	0.72704 0.53691 0.39468 0.00800
C 	C 	0.75580 0.59368 0.40103 -0.03900
C 	C 	0.79066 0.66023 0.40891 0.07500
C 	C 	0.82110 0.71707 0.41584 -0.12400
C 	C 	0.51578 0.23526 0.39648 -0.03500
C 	C 	0.47450 0.21507 0.40650 -0.00300
C 	C 	0.42633 0.19137 0.41835 0.00400
C 	C 	0.38486 0.17124 0.42819 -0.04100
C 	C 	0.33548 0.14798 0.43899 0.06900
C 	C 	0.29218 0.12854 0.44718 -0.12400
C 	C 	0.88335 0.10405 0.92845 -0.14900
C 	C 	0.84465 0.12266 0.91252 0.06600
C 	C 	0.80024 0.14612 0.89738 -0.05200
C 	C 	0.76337 0.16762 0.88738 0.00300
C 	C 	0.72171 0.19449 0.87897 -0.00800
C 	C 	0.68757 0.21888 0.87437 -0.03600
C 	C 	0.66796 0.41447 0.88186 -0.03400
C 	C 	0.69337 0.47087 0.88687 -0.00200
C 	C 	0.72516 0.53719 0.89360 0.00700
C 	C 	0.75371 0.59399 0.89994 -0.04100
C 	C 	0.78848 0.66060 0.90789 0.07400
C 	C 	0.81898 0.71751 0.91497 -0.12600
C 	C 	0.29143 0.12708 0.94606 -0.12600
C 	C 	0.33462 0.14663 0.93778 0.06700
C 	C 	0.38395 0.17011 0.92694 -0.04400
C 	C 	0.42542 0.19046 0.91714 0.00200
C 	C 	0.47367 0.21448 0.90540 -0.00500
C 	C 	0.51506 0.23497 0.89551 -0.03700
