data_crystal

_cell_length_a 24.98916
_cell_length_b 24.91125
_cell_length_c 36.98129
_cell_angle_alpha 95.49018
_cell_angle_beta  95.48858
_cell_angle_gamma 125.79902

_symmetry_space_group_name_	'P 1'
_symmetry_space_group_name_H-M	'P 1'

loop_
_symmetry_equiv_pos_as_xyz
  x,y,z

loop_
_atom_site_label
_atom_site_type_symbol
_atom_site_fract_x
_atom_site_fract_y
_atom_site_fract_z
_atom_site_charge
C 	C 	0.03244 0.97601 0.98373 -0.03900
C 	C 	0.07266 0.04621 0.99338 -0.01000
C 	C 	0.04437 0.07842 0.00397 -0.03600
H 	H 	0.05444 0.95175 0.97425 0.04500
H 	H 	0.07645 0.13273 0.01257 0.04500
C 	C 	0.00575 0.03851 0.46412 -0.03400
C 	C 	0.03503 0.00472 0.46323 -0.01900
H 	H 	0.03741 0.09293 0.46733 0.04000
H 	H 	0.01807 0.90925 0.46198 0.04700
C 	C 	0.10749 0.04180 0.46340 0.12400
H 	H 	0.01128 0.16920 0.99408 0.05400
H 	H 	0.12632 0.11707 0.42949 0.06000
O 	O 	0.14296 0.01911 0.47827 -0.21600
C 	C 	0.13890 0.08555 0.43947 -0.10700
C 	C 	0.14514 0.08572 0.99398 0.11700
O 	O 	0.17132 0.10581 0.96193 -0.21300
H 	H 	0.17250 0.06038 0.04438 0.06200
C 	C 	0.19814 0.05333 0.46108 0.11200
C 	C 	0.18694 0.08477 0.02067 -0.10500
C 	C 	0.19578 0.09229 0.43786 0.02700
C 	C 	0.23174 0.11519 0.97176 0.10700
C 	C 	0.24014 0.10079 0.00591 0.03100
H 	H 	0.00181 0.85071 0.99909 0.05500
C 	C 	0.25455 0.14897 0.43003 -0.09600
H 	H 	0.25381 0.18607 0.41740 0.06800
C 	C 	0.25965 0.06650 0.47509 -0.08500
H 	H 	0.26352 0.04181 0.49667 0.06600
C 	C 	0.97501 0.04045 0.00421 -0.00200
C 	C 	0.93540 0.96955 0.99638 -0.03200
C 	C 	0.96445 0.93712 0.98694 -0.00700
H 	H 	0.88250 0.93987 0.99780 0.06600
C 	C 	0.93587 0.00218 0.46191 -0.01000
C 	C 	0.99504 0.93502 0.46158 -0.01700
C 	C 	0.92531 0.89817 0.45888 -0.01800
C 	C 	0.89583 0.93187 0.45949 -0.02200
H 	H 	0.84201 0.90351 0.45781 0.05800
Cu	Cu	0.64264 0.24384 0.00437 0.92900
Cu	Cu	0.70184 0.24520 0.92844 0.87300
Cu	Cu	0.68407 0.34959 0.95523 0.89700
Cu	Cu	0.63405 0.36410 0.02347 0.89600
C 	C 	0.65226 0.29481 0.07984 0.30500
O 	O 	0.54297 0.19906 0.00036 -0.33700
C 	C 	0.66857 0.30183 0.87574 0.30700
O 	O 	0.69329 0.34799 0.00697 -0.63800
O 	O 	0.63830 0.25041 0.95127 -0.64000
O 	O 	0.68757 0.19870 0.00625 -0.35500
O 	O 	0.76262 0.26695 0.97188 -0.41500
O 	O 	0.62080 0.31931 0.06733 -0.37800
O 	O 	0.73255 0.44651 0.96334 -0.35800
C 	C 	0.72108 0.48029 0.98700 0.25300
C 	C 	0.51520 0.22504 0.98545 0.25000
O 	O 	0.55367 0.28654 0.97911 -0.38100
O 	O 	0.66939 0.44906 0.00405 -0.37900
O 	O 	0.65993 0.25615 0.05732 -0.35600
C 	C 	0.74444 0.22420 0.99448 0.24800
O 	O 	0.69103 0.35323 0.90260 -0.38500
O 	O 	0.66252 0.24778 0.88250 -0.41700
H 	H 	0.74011 0.37870 0.02085 0.17000
H 	H 	0.59249 0.22221 0.93608 0.17400
Cu	Cu	0.72125 0.32407 0.45297 0.92800
Cu	Cu	0.71790 0.26486 0.52904 0.87200
Cu	Cu	0.62031 0.29067 0.50407 0.89700
Cu	Cu	0.60350 0.33570 0.43409 0.89600
C 	C 	0.67024 0.31399 0.37741 0.30600
O 	O 	0.76760 0.42430 0.45591 -0.33600
C 	C 	0.66985 0.30644 0.58346 0.30800
O 	O 	0.61839 0.27627 0.45189 -0.63900
O 	O 	0.71769 0.33156 0.50647 -0.63900
O 	O 	0.76284 0.27565 0.45102 -0.34400
O 	O 	0.69264 0.20285 0.48543 -0.43200
O 	O 	0.64688 0.34659 0.38990 -0.37900
O 	O 	0.52457 0.24575 0.49799 -0.37000
C 	C 	0.48948 0.25195 0.47195 0.25500
C 	C 	0.74352 0.45409 0.47094 0.25100
O 	O 	0.68223 0.41731 0.47758 -0.38100
O 	O 	0.51913 0.30155 0.45328 -0.36900
O 	O 	0.70657 0.30390 0.40001 -0.35500
C 	C 	0.73573 0.21888 0.46330 0.25700
O 	O 	0.61965 0.28940 0.55739 -0.38600
O 	O 	0.72056 0.30736 0.57551 -0.41800
H 	H 	0.58640 0.22865 0.43912 0.16600
H 	H 	0.74822 0.37774 0.52136 0.17600
C 	C 	0.65484 0.32286 0.76791 -0.00400
C 	C 	0.71077 0.37631 0.75616 -0.03300
C 	C 	0.71091 0.37686 0.71838 -0.03300
C 	C 	0.65511 0.32400 0.69222 -0.00400
C 	C 	0.59774 0.27255 0.70402 -0.03300
C 	C 	0.59762 0.27199 0.74181 -0.03300
C 	C 	0.65979 0.31831 0.65372 0.04700
C 	C 	0.66390 0.31372 0.62151 -0.10700
C 	C 	0.65918 0.31595 0.80609 0.04700
C 	C 	0.66277 0.31011 0.83804 -0.10700
H 	H 	0.75507 0.41604 0.77618 0.04300
H 	H 	0.75532 0.41698 0.70947 0.04200
H 	H 	0.55426 0.23169 0.68397 0.04200
H 	H 	0.55406 0.23068 0.75069 0.04200
C 	C 	0.67352 0.30245 0.26710 -0.00100
C 	C 	0.68517 0.26107 0.24656 -0.03200
C 	C 	0.68416 0.25975 0.20852 -0.03200
C 	C 	0.67154 0.29983 0.19102 -0.00100
C 	C 	0.66075 0.34169 0.21172 -0.03200
C 	C 	0.66172 0.34299 0.24961 -0.03200
C 	C 	0.66627 0.29584 0.15159 0.04700
C 	C 	0.66110 0.29479 0.11874 -0.09600
C 	C 	0.67310 0.30331 0.30606 0.04800
C 	C 	0.67202 0.30661 0.33869 -0.09500
H 	H 	0.69455 0.22973 0.25992 0.04600
H 	H 	0.69247 0.22717 0.19268 0.04600
H 	H 	0.65083 0.37269 0.19836 0.04300
H 	H 	0.65282 0.37518 0.26533 0.04500
C 	C 	0.84353 0.73543 0.47839 0.11200
C 	C 	0.79714 0.67749 0.49192 -0.08500
C 	C 	0.78133 0.61582 0.47475 0.00800
C 	C 	0.81253 0.61216 0.44684 0.11900
C 	C 	0.85780 0.66987 0.43292 -0.09500
C 	C 	0.87339 0.73123 0.45007 0.02900
O 	O 	0.84807 0.79408 0.48411 -0.21100
C 	C 	0.88352 0.82438 0.45612 0.12400
C 	C 	0.89564 0.78526 0.43463 -0.10600
O 	O 	0.81216 0.55592 0.44287 -0.18600
C 	C 	0.77771 0.52612 0.47115 0.04100
C 	C 	0.76120 0.56275 0.49098 -0.06000
H 	H 	0.77383 0.68022 0.51455 0.06700
H 	H 	0.88174 0.66742 0.41056 0.07100
H 	H 	0.93013 0.80224 0.41543 0.06300
H 	H 	0.72706 0.54522 0.51037 0.05400
C 	C 	0.84560 0.17503 0.46542 0.11800
C 	C 	0.89728 0.17233 0.45633 -0.09600
C 	C 	0.90200 0.12362 0.46905 0.02700
C 	C 	0.85167 0.07279 0.48409 0.11100
C 	C 	0.79589 0.07126 0.48920 -0.08400
C 	C 	0.79742 0.12653 0.48229 0.00100
O 	O 	0.82804 0.21238 0.44964 -0.18700
C 	C 	0.76457 0.18180 0.45923 0.03200
C 	C 	0.74469 0.12802 0.47690 -0.05900
O 	O 	0.85060 0.01612 0.48207 -0.21300
C 	C 	0.90500 0.03793 0.46410 0.12200
C 	C 	0.93525 0.10160 0.45588 -0.10600
H 	H 	0.93122 0.20555 0.43945 0.07000
H 	H 	0.75237 0.02794 0.49690 0.06500
H 	H 	0.70358 0.10457 0.49191 0.04500
H 	H 	0.96689 0.12159 0.43538 0.06100
C 	C 	0.31513 0.15839 0.44131 0.11800
C 	C 	0.31670 0.11630 0.46233 0.00600
O 	O 	0.37741 0.21961 0.44344 -0.19100
C 	C 	0.41620 0.21038 0.46810 0.04300
C 	C 	0.38001 0.15003 0.48032 -0.05700
H 	H 	0.40050 0.12887 0.49554 0.05500
C 	C 	0.84182 0.65694 0.99860 0.12000
C 	C 	0.90207 0.71411 0.99263 -0.09500
C 	C 	0.90025 0.76342 0.97855 0.02600
C 	C 	0.84233 0.75894 0.97297 0.11300
C 	C 	0.78198 0.70190 0.97923 -0.08500
C 	C 	0.78381 0.65252 0.99342 0.00700
O 	O 	0.83072 0.59516 0.99729 -0.19500
C 	C 	0.76060 0.55351 0.99032 0.04500
C 	C 	0.73209 0.58690 0.98811 -0.05700
O 	O 	0.85359 0.82078 0.97354 -0.21400
C 	C 	0.92392 0.86254 0.98059 0.11900
C 	C 	0.95203 0.82874 0.98387 -0.09900
H 	H 	0.94818 0.71875 0.99739 0.06900
H 	H 	0.73589 0.69726 0.97443 0.06600
H 	H 	0.68133 0.56449 0.97430 0.05400
C 	C 	0.85918 0.18585 0.99816 0.10900
C 	C 	0.92222 0.19881 0.00320 -0.08500
C 	C 	0.92787 0.15153 0.01712 0.02100
C 	C 	0.87264 0.09185 0.02363 0.11600
C 	C 	0.80953 0.07934 0.01896 -0.08600
C 	C 	0.80423 0.12694 0.00512 0.01100
O 	O 	0.85118 0.23636 0.99716 -0.19500
C 	C 	0.78605 0.20214 0.00465 0.04300
C 	C 	0.75868 0.13761 0.01073 -0.06000
O 	O 	0.87976 0.04032 0.02208 -0.21300
C 	C 	0.94420 0.07482 0.01350 0.11700
C 	C 	0.97294 0.14094 0.01029 -0.09200
H 	H 	0.96558 0.24470 0.99728 0.06400
H 	H 	0.76592 0.03322 0.02451 0.06800
H 	H 	0.70609 0.09872 0.01055 0.05600
C 	C 	0.35941 0.16734 0.00929 0.12300
C 	C 	0.30377 0.12755 0.02592 -0.09800
C 	C 	0.28748 0.15563 0.95522 -0.08300
C 	C 	0.35142 0.18328 0.97547 0.00200
O 	O 	0.41840 0.17381 0.01826 -0.18700
C 	C 	0.44449 0.19413 0.98629 0.03600
C 	C 	0.40527 0.20043 0.96085 -0.05600
H 	H 	0.30970 0.11621 0.05292 0.07000
H 	H 	0.28144 0.16670 0.92816 0.06400
H 	H 	0.40885 0.20202 0.93195 0.04900
