data_crystal

_cell_length_a 26.94510
_cell_length_b 24.94645
_cell_length_c 31.76652
_cell_angle_alpha 104.09587
_cell_angle_beta  115.95542
_cell_angle_gamma 111.20854

_symmetry_space_group_name_	'P 1'
_symmetry_space_group_name_H-M	'P 1'

loop_
_symmetry_equiv_pos_as_xyz
  x,y,z

loop_
_atom_site_label
_atom_site_type_symbol
_atom_site_fract_x
_atom_site_fract_y
_atom_site_fract_z
_atom_site_charge
N 	N 	0.58393 0.22809 0.87587 -0.13500
C 	C 	0.55538 0.26045 0.88467 0.14300
N 	N 	0.57736 0.32159 0.88970 -0.13800
C 	C 	0.62700 0.34985 0.88516 0.14700
N 	N 	0.65415 0.31667 0.87508 -0.13200
C 	C 	0.63424 0.25673 0.87210 0.14500
C 	C 	0.40800 0.18430 0.91319 0.02400
C 	C 	0.40351 0.21697 0.88254 -0.04500
C 	C 	0.45039 0.23970 0.87179 -0.00500
C 	C 	0.50348 0.23112 0.89213 -0.03900
C 	C 	0.50755 0.19749 0.92180 0.06800
C 	C 	0.45929 0.17382 0.93228 0.04700
H 	H 	0.36413 0.22565 0.86758 0.05500
H 	H 	0.44577 0.26481 0.84819 0.04800
N 	N 	0.56041 0.19287 0.94816 -0.10700
N 	N 	0.47192 0.14933 0.96712 -0.09500
C 	C 	0.74765 0.16820 0.88260 0.02700
C 	C 	0.77906 0.23635 0.90846 0.04700
C 	C 	0.74151 0.26624 0.90369 0.07100
C 	C 	0.67297 0.22726 0.87245 -0.03700
C 	C 	0.64180 0.15879 0.84390 -0.00100
C 	C 	0.67876 0.12960 0.84900 -0.03900
N 	N 	0.84503 0.27719 0.94635 -0.09400
N 	N 	0.77649 0.33183 0.93781 -0.10900
C 	C 	0.72276 0.55012 0.91720 0.02300
C 	C 	0.75822 0.52693 0.94602 -0.03700
C 	C 	0.72624 0.46233 0.93714 0.00000
C 	C 	0.65802 0.41943 0.89921 -0.03700
C 	C 	0.62188 0.44317 0.87257 0.07100
C 	C 	0.65460 0.50928 0.88174 0.04500
H 	H 	0.81096 0.55830 0.97419 0.06300
H 	H 	0.75491 0.44521 0.95896 0.05500
N 	N 	0.55690 0.40402 0.83155 -0.10800
N 	N 	0.61675 0.52505 0.84844 -0.09600
S 	S 	0.54183 0.15918 0.98152 0.13300
S 	S 	0.85064 0.34663 0.97017 0.14000
S 	S 	0.54607 0.45543 0.81086 0.13100
H 	H 	0.58888 0.12783 0.81875 0.05200
H 	H 	0.65366 0.07669 0.82848 0.06100
N 	N 	0.60468 0.23902 0.39373 -0.13500
C 	C 	0.58237 0.27787 0.40389 0.14600
N 	N 	0.61130 0.33931 0.41025 -0.13400
C 	C 	0.66197 0.36163 0.40593 0.14600
N 	N 	0.68428 0.32270 0.39601 -0.13500
C 	C 	0.65563 0.26131 0.38976 0.14600
C 	C 	0.43684 0.21121 0.43541 0.02500
C 	C 	0.49383 0.27449 0.46989 -0.03600
C 	C 	0.54053 0.29661 0.45885 -0.00100
C 	C 	0.53131 0.25578 0.41313 -0.03800
C 	C 	0.47480 0.19281 0.37875 0.07000
C 	C 	0.42733 0.17032 0.39009 0.04400
H 	H 	0.50200 0.30680 0.50524 0.06800
H 	H 	0.58430 0.34529 0.48633 0.05300
N 	N 	0.45831 0.15171 0.33114 -0.10600
N 	N 	0.37137 0.11040 0.35204 -0.10200
C 	C 	0.75897 0.16320 0.39082 0.02500
C 	C 	0.74461 0.18926 0.35604 0.04200
C 	C 	0.70742 0.21911 0.35350 0.07000
C 	C 	0.68528 0.22261 0.38598 -0.03800
C 	C 	0.69723 0.19321 0.41895 -0.00100
C 	C 	0.73387 0.16409 0.42148 -0.03300
N 	N 	0.76785 0.19220 0.32562 -0.09800
N 	N 	0.69942 0.24674 0.32077 -0.10600
C 	C 	0.76317 0.55903 0.43205 0.02600
C 	C 	0.79809 0.53264 0.45651 -0.03700
C 	C 	0.76488 0.46864 0.44860 -0.00100
C 	C 	0.69592 0.42956 0.41597 -0.03800
C 	C 	0.66087 0.45611 0.39265 0.07000
C 	C 	0.69485 0.52140 0.40075 0.04500
H 	H 	0.85110 0.56132 0.48114 0.06700
H 	H 	0.79298 0.44939 0.46767 0.05400
N 	N 	0.59449 0.42046 0.35638 -0.10600
N 	N 	0.65675 0.54014 0.37140 -0.09600
S 	S 	0.38629 0.09098 0.30779 0.11200
S 	S 	0.73950 0.23140 0.29809 0.13700
S 	S 	0.58427 0.47375 0.33820 0.13100
H 	H 	0.68038 0.19509 0.44430 0.05500
H 	H 	0.74444 0.14403 0.44864 0.07000
N 	N 	0.44794 0.80933 0.02663 -0.13100
C 	C 	0.48082 0.77912 0.02565 0.14500
N 	N 	0.45625 0.71727 0.01924 -0.13400
C 	C 	0.39920 0.68589 0.01399 0.14400
N 	N 	0.36664 0.71630 0.01495 -0.13300
C 	C 	0.39021 0.77749 0.02026 0.14500
C 	C 	0.65136 0.86293 0.02432 0.02000
C 	C 	0.64672 0.82722 0.05203 -0.03500
C 	C 	0.59223 0.80210 0.05410 -0.00600
C 	C 	0.54080 0.81162 0.02804 -0.03700
C 	C 	0.54638 0.84931 0.00214 0.07300
C 	C 	0.60235 0.87547 0.00060 0.05000
H 	H 	0.68440 0.81725 0.07077 0.05300
H 	H 	0.58957 0.77412 0.07517 0.05100
N 	N 	0.49674 0.85576 0.97110 -0.10900
N 	N 	0.59926 0.90384 0.96855 -0.10300
C 	C 	0.27330 0.86352 0.00013 0.04200
C 	C 	0.24381 0.79693 0.96755 0.03200
C 	C 	0.28244 0.76819 0.97409 0.06400
C 	C 	0.35002 0.80642 0.01370 -0.03000
C 	C 	0.37911 0.87333 0.04715 -0.00100
C 	C 	0.34109 0.90155 0.04045 -0.04000
N 	N 	0.18004 0.75779 0.92411 -0.10000
N 	N 	0.25082 0.70519 0.93590 -0.11000
C 	C 	0.30543 0.48678 0.98588 0.01400
C 	C 	0.27122 0.50661 0.95188 -0.03300
C 	C 	0.30277 0.57092 0.95989 -0.01700
C 	C 	0.36933 0.61690 0.00213 -0.02600
C 	C 	0.40448 0.59671 0.03460 0.06300
C 	C 	0.37215 0.53105 0.02645 0.05700
H 	H 	0.21962 0.47274 0.91997 0.05600
H 	H 	0.27492 0.58529 0.93379 0.05300
N 	N 	0.46704 0.63882 0.07950 -0.10800
N 	N 	0.40791 0.51863 0.06447 -0.09600
S 	S 	0.52736 0.89397 0.94521 0.12300
S 	S 	0.17764 0.69098 0.89793 0.11400
S 	S 	0.47649 0.59034 0.10456 0.12900
H 	H 	0.43121 0.90369 0.07834 0.05300
H 	H 	0.36467 0.95324 0.06617 0.06300
N 	N 	0.47425 0.82008 0.53713 -0.13200
C 	C 	0.50537 0.78897 0.53258 0.14300
N 	N 	0.48356 0.72850 0.52900 -0.13600
C 	C 	0.43091 0.69934 0.53000 0.14400
N 	N 	0.40023 0.73076 0.53472 -0.13400
C 	C 	0.42099 0.79055 0.53728 0.14400
C 	C 	0.66731 0.87287 0.52060 0.02100
C 	C 	0.66568 0.83611 0.54786 -0.04200
C 	C 	0.61382 0.81047 0.55296 -0.00600
C 	C 	0.56163 0.81992 0.53003 -0.03800
C 	C 	0.56347 0.85740 0.50359 0.06800
C 	C 	0.61693 0.88426 0.49908 0.04700
H 	H 	0.70366 0.82576 0.56391 0.05000
H 	H 	0.61391 0.78236 0.57413 0.04600
N 	N 	0.51214 0.86292 0.47461 -0.10400
N 	N 	0.60999 0.91221 0.46657 -0.09700
C 	C 	0.30878 0.88066 0.52731 0.02200
C 	C 	0.27687 0.81297 0.49694 0.04200
C 	C 	0.31390 0.78265 0.50073 0.07000
C 	C 	0.38237 0.82057 0.53535 -0.03700
C 	C 	0.41394 0.88851 0.56730 -0.00200
C 	C 	0.37749 0.91821 0.56336 -0.03300
N 	N 	0.21147 0.77380 0.45689 -0.10200
N 	N 	0.27919 0.71834 0.46366 -0.10400
C 	C 	0.33925 0.50112 0.50428 0.02400
C 	C 	0.35494 0.55320 0.54757 -0.03700
C 	C 	0.38750 0.61823 0.55724 -0.00200
C 	C 	0.40536 0.63271 0.52393 -0.03900
C 	C 	0.39227 0.58148 0.48207 0.07000
C 	C 	0.35905 0.51511 0.47228 0.04400
H 	H 	0.34075 0.54328 0.57322 0.06100
H 	H 	0.39770 0.65721 0.59014 0.04900
N 	N 	0.40107 0.58907 0.44424 -0.10700
N 	N 	0.34056 0.46771 0.42650 -0.09600
S 	S 	0.53824 0.90120 0.44661 0.13200
S 	S 	0.20572 0.70506 0.43006 0.12800
S 	S 	0.36739 0.51271 0.40251 0.13000
H 	H 	0.46681 0.91864 0.59481 0.05100
H 	H 	0.40296 0.97074 0.58732 0.06700
Zn	Zn	0.15817 0.14406 0.00897 1.19400
Zn	Zn	0.04782 0.09400 0.89714 1.19300
O 	O 	0.03407 0.97918 0.81151 -0.48800
O 	O 	0.01606 0.06295 0.81965 -0.44800
O 	O 	0.03872 0.90430 0.88752 -0.50000
C 	C 	0.21556 0.11562 0.95782 0.31900
O 	O 	0.98602 0.00570 0.87911 -0.83200
C 	C 	0.16106 0.23507 0.96538 0.34400
O 	O 	0.22750 0.13990 0.00518 -0.41500
O 	O 	0.15497 0.08104 0.91516 -0.35800
O 	O 	0.06985 0.10628 0.97067 -0.77800
O 	O 	0.09755 0.99645 0.96637 -0.46600
O 	O 	0.11618 0.18301 0.91755 -0.44200
O 	O 	0.18068 0.22944 0.00911 -0.41100
Zn	Zn	0.87317 0.90339 0.90648 1.18100
Zn	Zn	0.98930 0.93651 0.00230 1.20700
Zn	Zn	0.01227 0.01705 0.94915 1.20900
C 	C 	0.87012 0.80213 0.94026 0.35200
C 	C 	0.84457 0.93713 0.98007 0.35000
O 	O 	0.92787 0.04216 0.93329 -0.44800
Zn	Zn	0.99602 0.05517 0.04211 1.21500
O 	O 	0.93238 0.84343 0.98104 -0.41000
O 	O 	0.84174 0.81454 0.90135 -0.43100
O 	O 	0.82479 0.92493 0.93112 -0.45000
O 	O 	0.90597 0.95861 0.01591 -0.45400
C 	C 	0.04360 0.01379 0.12003 0.32900
O 	O 	0.95553 0.92793 0.92768 -0.78000
C 	C 	0.91865 0.07722 0.96430 0.33600
O 	O 	0.02990 0.96236 0.08189 -0.42600
O 	O 	0.04041 0.06246 0.11249 -0.46700
O 	O 	0.94999 0.09393 0.01515 -0.44000
O 	O 	0.03809 0.02667 0.01838 -0.90200
Zn	Zn	0.00319 0.94486 0.85067 1.17800
C 	C 	0.02196 0.01849 0.79359 0.33200
C 	C 	0.08846 0.94129 0.93787 0.35400
H 	H 	0.08577 0.04921 0.04542 0.18500
H 	H 	0.93974 0.99198 0.85572 0.14600
Zn	Zn	0.18430 0.15764 0.52240 1.19200
Zn	Zn	0.07802 0.10283 0.40747 1.19800
O 	O 	0.07470 0.99190 0.32913 -0.47700
O 	O 	0.04851 0.06975 0.33036 -0.43600
O 	O 	0.07804 0.91952 0.40755 -0.48700
C 	C 	0.24363 0.12059 0.47730 0.34200
O 	O 	0.01847 0.01399 0.39030 -0.89000
C 	C 	0.19213 0.24439 0.47477 0.34700
O 	O 	0.25636 0.15501 0.52321 -0.42000
O 	O 	0.18264 0.07655 0.43674 -0.37100
O 	O 	0.09575 0.11688 0.48031 -0.76500
O 	O 	0.12897 0.01075 0.48496 -0.43300
O 	O 	0.14427 0.19279 0.42703 -0.44300
O 	O 	0.20573 0.24079 0.51879 -0.43000
Zn	Zn	0.90028 0.90853 0.41230 1.18300
Zn	Zn	0.01390 0.94964 0.51420 1.18700
Zn	Zn	0.03999 0.02735 0.45975 1.21500
C 	C 	0.90137 0.81105 0.45099 0.35300
C 	C 	0.86118 0.94712 0.47685 0.33700
O 	O 	0.95121 0.04716 0.43514 -0.44600
Zn	Zn	0.01330 0.06713 0.54539 1.19500
O 	O 	0.96153 0.85620 0.49378 -0.41200
O 	O 	0.87119 0.82169 0.41130 -0.41200
O 	O 	0.84424 0.92762 0.42778 -0.45200
O 	O 	0.92162 0.96975 0.51579 -0.46600
C 	C 	0.04919 0.02740 0.62545 0.33200
O 	O 	0.98518 0.93809 0.43946 -0.76700
C 	C 	0.94330 0.08767 0.46314 0.35900
O 	O 	0.04227 0.97683 0.59200 -0.43200
O 	O 	0.05194 0.07687 0.61655 -0.47100
O 	O 	0.96791 0.10364 0.51334 -0.45600
O 	O 	0.06045 0.03948 0.52851 -0.89700
Zn	Zn	0.04217 0.95699 0.36731 1.18700
C 	C 	0.05719 0.02603 0.30708 0.32300
C 	C 	0.12451 0.95748 0.45871 0.34600
H 	H 	0.10775 0.06425 0.55758 0.18100
H 	H 	0.97188 0.99751 0.36436 0.17600
C 	C 	0.02841 0.02146 0.75048 -0.13300
C 	C 	0.97741 0.01313 0.70346 0.11700
C 	C 	0.98572 0.01553 0.66326 0.00400
C 	C 	0.04238 0.02325 0.66805 -0.12200
C 	C 	0.09241 0.02941 0.71411 0.07200
C 	C 	0.08559 0.03007 0.75552 -0.01600
H 	H 	0.94731 0.01035 0.62758 0.05300
H 	H 	0.12481 0.03700 0.79175 0.05700
C 	C 	0.91247 0.99843 0.69403 -0.17300
C 	C 	0.15432 0.03777 0.72054 -0.13000
C 	C 	0.85733 0.92645 0.65347 0.00200
H 	H 	0.85255 0.91299 0.61525 0.03800
H 	H 	0.81055 0.92066 0.64496 0.03600
C 	C 	0.20522 0.11002 0.74367 -0.00100
H 	H 	0.22055 0.13859 0.78465 0.04000
H 	H 	0.18374 0.13044 0.71860 0.03500
H 	H 	0.91471 0.01142 0.73099 0.09300
H 	H 	0.14319 0.00764 0.68178 0.08400
C 	C 	0.86764 0.87940 0.67410 -0.16500
C 	C 	0.26552 0.11812 0.74611 -0.17600
H 	H 	0.87384 0.89293 0.71285 0.03900
H 	H 	0.82428 0.82880 0.64486 0.07400
H 	H 	0.91136 0.88008 0.67913 0.07800
H 	H 	0.89880 0.02961 0.67803 0.10300
H 	H 	0.28921 0.09973 0.77207 0.09300
H 	H 	0.30122 0.17078 0.76278 0.07100
H 	H 	0.25171 0.09089 0.70550 0.07800
H 	H 	0.17558 0.01923 0.74766 0.08300
C 	C 	0.05224 0.01177 0.16835 -0.10400
C 	C 	0.10919 0.06177 0.21965 0.06700
C 	C 	0.10952 0.06613 0.26467 -0.01700
C 	C 	0.05478 0.02056 0.25919 -0.10900
C 	C 	0.99977 0.96794 0.20822 0.08000
C 	C 	0.99907 0.96426 0.16326 -0.00500
H 	H 	0.15285 0.10455 0.30412 0.05700
H 	H 	0.95551 0.92622 0.12388 0.07400
C 	C 	0.17158 0.10756 0.22737 -0.11400
C 	C 	0.93917 0.91844 0.20059 -0.11200
C 	C 	0.21915 0.08395 0.24114 -0.01700
H 	H 	0.22756 0.07444 0.27534 0.05600
H 	H 	0.26705 0.12360 0.25372 0.05100
C 	C 	0.89150 0.94152 0.19115 -0.02100
H 	H 	0.87860 0.94994 0.15604 0.06200
H 	H 	0.91502 0.98844 0.22659 0.04900
H 	H 	0.16202 0.11506 0.19224 0.06000
H 	H 	0.95191 0.90932 0.23531 0.03600
C 	C 	0.19497 0.02235 0.19385 -0.15100
C 	C 	0.82872 0.89090 0.18082 -0.15800
H 	H 	0.18420 0.03016 0.15866 0.07700
H 	H 	0.23340 0.01063 0.20467 0.07700
H 	H 	0.15031 0.97992 0.18326 0.07500
H 	H 	0.19634 0.15691 0.26076 0.07900
H 	H 	0.80314 0.84408 0.14453 0.07300
H 	H 	0.79560 0.90932 0.17452 0.08200
H 	H 	0.83996 0.88194 0.21552 0.04800
H 	H 	0.91450 0.87050 0.16557 0.07100
C 	C 	0.22997 0.30765 0.47877 -0.11400
C 	C 	0.29899 0.34314 0.51056 0.20700
C 	C 	0.33420 0.40552 0.51737 -0.09800
C 	C 	0.30133 0.43293 0.49258 0.01200
C 	C 	0.23245 0.39653 0.45914 0.13600
C 	C 	0.19711 0.33405 0.45222 -0.01700
H 	H 	0.38723 0.43306 0.54249 0.09200
H 	H 	0.14409 0.30671 0.42721 0.07400
Cl	Cl	0.34208 0.30963 0.54122 -0.32000
Cl	Cl	0.18987 0.42910 0.42633 -0.30300
C 	C 	0.71732 0.89233 0.50977 0.01000
C 	C 	0.77057 0.95761 0.53853 0.12600
C 	C 	0.81678 0.97515 0.52693 -0.03700
C 	C 	0.81002 0.92816 0.48639 -0.11500
C 	C 	0.75667 0.86261 0.45783 0.20600
C 	C 	0.71083 0.84527 0.46968 -0.10100
H 	H 	0.85802 0.02534 0.54952 0.07500
H 	H 	0.66998 0.79494 0.44761 0.09400
Cl	Cl	0.78006 0.01780 0.58927 -0.30200
Cl	Cl	0.74741 0.80099 0.40832 -0.32500
C 	C 	0.27172 0.91296 0.51773 0.01500
C 	C 	0.26226 0.93461 0.47948 0.14000
C 	C 	0.21621 0.95228 0.46237 -0.00700
C 	C 	0.17949 0.94881 0.48322 -0.13000
C 	C 	0.19224 0.93175 0.52423 0.21500
C 	C 	0.23822 0.91378 0.54126 -0.10300
H 	H 	0.20774 0.96713 0.43178 0.06800
H 	H 	0.24598 0.89791 0.57121 0.09100
Cl	Cl	0.30591 0.93720 0.45108 -0.29800
Cl	Cl	0.14884 0.92978 0.55283 -0.39500
C 	C 	0.26980 0.42240 0.98143 0.00600
C 	C 	0.26500 0.36731 0.95029 0.13800
C 	C 	0.22808 0.30595 0.94426 -0.01100
C 	C 	0.19642 0.29915 0.96963 -0.11700
C 	C 	0.20113 0.35428 0.00068 0.21500
C 	C 	0.23784 0.41554 0.00651 -0.09200
H 	H 	0.22497 0.26374 0.92062 0.07800
H 	H 	0.24098 0.45779 0.03011 0.09100
Cl	Cl	0.30532 0.37461 0.91889 -0.31300
Cl	Cl	0.15912 0.34683 0.03069 -0.32600
C 	C 	0.70280 0.87980 0.01508 0.02200
C 	C 	0.76460 0.93826 0.05246 0.13300
C 	C 	0.81155 0.95487 0.04165 -0.00200
C 	C 	0.79618 0.91534 0.99244 -0.10800
C 	C 	0.73495 0.85532 0.95592 0.21800
C 	C 	0.68884 0.83811 0.96749 -0.10600
H 	H 	0.85930 0.99968 0.07082 0.08000
H 	H 	0.64175 0.79234 0.93921 0.09300
Cl	Cl	0.78278 0.99249 0.11189 -0.31200
Cl	Cl	0.71661 0.79895 0.89732 -0.32600
C 	C 	0.23462 0.89416 0.99067 -0.00600
C 	C 	0.22188 0.91397 0.95121 0.13200
C 	C 	0.17481 0.93046 0.93492 -0.01300
C 	C 	0.14129 0.92890 0.95856 -0.14900
C 	C 	0.15721 0.91352 0.00058 0.22100
C 	C 	0.20355 0.89586 0.01627 -0.09700
H 	H 	0.16345 0.94343 0.90320 0.05500
H 	H 	0.21379 0.88136 0.04711 0.08600
Cl	Cl	0.26358 0.91688 0.92104 -0.30100
Cl	Cl	0.11763 0.91362 0.03243 -0.40600
C 	C 	0.80582 0.14235 0.40035 0.01900
C 	C 	0.78437 0.07565 0.38236 0.13000
C 	C 	0.83011 0.05758 0.40003 -0.01300
C 	C 	0.89719 0.10568 0.43582 -0.13600
C 	C 	0.91870 0.17191 0.45049 0.23900
C 	C 	0.87303 0.18998 0.43277 -0.11000
H 	H 	0.81338 0.00636 0.38766 0.06700
H 	H 	0.88974 0.24131 0.44578 0.10300
Cl	Cl	0.70032 0.01443 0.33869 -0.29700
Cl	Cl	0.00285 0.23278 0.49152 -0.37700
C 	C 	0.79841 0.62380 0.43703 0.01400
C 	C 	0.81466 0.68059 0.47662 0.14100
C 	C 	0.84944 0.74181 0.48151 -0.01100
C 	C 	0.86778 0.74683 0.44691 -0.10200
C 	C 	0.85172 0.69007 0.40744 0.21200
C 	C 	0.81713 0.62889 0.40267 -0.09700
H 	H 	0.86138 0.78542 0.51171 0.07600
H 	H 	0.80500 0.58526 0.37236 0.09500
Cl	Cl	0.79150 0.67564 0.52018 -0.31100
Cl	Cl	0.87628 0.69511 0.36473 -0.31200
C 	C 	0.38781 0.18906 0.44681 0.01300
C 	C 	0.33129 0.19108 0.42077 0.14100
C 	C 	0.28400 0.16750 0.43040 -0.01500
C 	C 	0.29354 0.14385 0.46725 -0.10600
C 	C 	0.35080 0.14330 0.49432 0.21400
C 	C 	0.39744 0.16543 0.48369 -0.09400
H 	H 	0.24042 0.16897 0.41013 0.06800
H 	H 	0.44112 0.16415 0.50400 0.09700
Cl	Cl	0.32020 0.22499 0.37731 -0.32500
Cl	Cl	0.36427 0.11421 0.54102 -0.29900
C 	C 	0.87120 0.09622 0.94093 -0.11700
C 	C 	0.83095 0.09734 0.95803 0.20600
C 	C 	0.78821 0.11755 0.93639 -0.10000
C 	C 	0.78514 0.13730 0.89817 0.01200
C 	C 	0.82331 0.13408 0.87961 0.13500
C 	C 	0.86602 0.11353 0.90094 -0.02000
H 	H 	0.75850 0.11966 0.95046 0.09400
H 	H 	0.89610 0.11221 0.88711 0.06000
Cl	Cl	0.83252 0.07316 0.00598 -0.30200
Cl	Cl	0.81846 0.15619 0.83000 -0.29600
C 	C 	0.75782 0.61442 0.92150 0.01400
C 	C 	0.77380 0.61942 0.88536 0.13800
C 	C 	0.81126 0.68108 0.89222 -0.01300
C 	C 	0.83359 0.73804 0.93523 -0.10400
C 	C 	0.81726 0.73305 0.97120 0.21100
C 	C 	0.77950 0.67133 0.96417 -0.10000
H 	H 	0.82322 0.68474 0.86418 0.07400
H 	H 	0.76735 0.66761 0.99209 0.08600
Cl	Cl	0.74783 0.54873 0.83169 -0.29400
Cl	Cl	0.84232 0.80358 0.02440 -0.32800
C 	C 	0.36162 0.16545 0.92764 0.00700
C 	C 	0.30940 0.10009 0.90089 0.13800
C 	C 	0.26402 0.08378 0.91329 -0.02400
C 	C 	0.26968 0.13231 0.95189 -0.10600
C 	C 	0.32261 0.19781 0.97912 0.19400
C 	C 	0.36842 0.21375 0.96715 -0.09500
H 	H 	0.22309 0.03362 0.89165 0.07700
H 	H 	0.40860 0.26415 0.98774 0.09300
Cl	Cl	0.29905 0.03847 0.85052 -0.30600
Cl	Cl	0.33021 0.26128 0.02586 -0.30800
