data_crystal

_cell_length_a 18.35167
_cell_length_b 18.70568
_cell_length_c 33.88796
_cell_angle_alpha 95.43917
_cell_angle_beta  95.43976
_cell_angle_gamma 126.40922

_symmetry_space_group_name_	'P 1'
_symmetry_space_group_name_H-M	'P 1'

loop_
_symmetry_equiv_pos_as_xyz
  x,y,z

loop_
_atom_site_label
_atom_site_type_symbol
_atom_site_fract_x
_atom_site_fract_y
_atom_site_fract_z
_atom_site_charge
C 	C 	0.83263 0.91684 0.97203 0.18900
N 	N 	0.78891 0.82605 0.96567 -0.11800
C 	C 	0.83887 0.79419 0.96313 0.18600
N 	N 	0.93146 0.85293 0.96543 -0.12200
C 	C 	0.97482 0.94333 0.97175 0.18500
N 	N 	0.92559 0.97508 0.97609 -0.12300
C 	C 	0.00848 0.09062 0.48877 0.20100
N 	N 	0.96345 0.00456 0.49504 -0.14200
C 	C 	0.01053 0.97122 0.50298 0.21800
N 	N 	0.10308 0.02441 0.50525 -0.13300
C 	C 	0.14825 0.10997 0.49829 0.18800
N 	N 	0.10094 0.14316 0.48984 -0.12300
Cu	Cu	0.67730 0.25624 0.95343 0.93300
Cu	Cu	0.62664 0.17593 0.03583 0.88400
Cu	Cu	0.54366 0.24830 0.00094 0.90100
Cu	Cu	0.49456 0.22472 0.90864 0.91000
C 	C 	0.63163 0.23127 0.86769 0.30200
O 	O 	0.72935 0.38553 0.94856 -0.34100
C 	C 	0.59300 0.28075 0.08923 0.29700
O 	O 	0.53319 0.18546 0.94877 -0.63200
O 	O 	0.66699 0.27765 0.00954 -0.64600
O 	O 	0.73677 0.19681 0.96369 -0.33700
O 	O 	0.61988 0.09575 0.99388 -0.40300
O 	O 	0.54433 0.19566 0.86599 -0.37400
O 	O 	0.42662 0.22935 0.99127 -0.35200
C 	C 	0.35825 0.17076 0.96114 0.33300
C 	C 	0.68040 0.41632 0.94670 0.31100
O 	O 	0.59024 0.36166 0.94459 -0.36700
O 	O 	0.37258 0.16688 0.92393 -0.35900
O 	O 	0.67571 0.22336 0.89782 -0.34100
C 	C 	0.69226 0.12100 0.97781 0.32900
O 	O 	0.55593 0.29291 0.05758 -0.35500
O 	O 	0.63151 0.23958 0.08529 -0.39300
H 	H 	0.49522 0.11899 0.94650 0.17700
H 	H 	0.71593 0.33849 0.02586 0.19900
Cu	Cu	0.68701 0.26824 0.50551 0.92800
Cu	Cu	0.75902 0.30485 0.41846 0.88000
Cu	Cu	0.71092 0.41681 0.46670 0.91500
Cu	Cu	0.72198 0.44363 0.55547 0.91300
C 	C 	0.73154 0.31227 0.59287 0.30200
O 	O 	0.56032 0.23107 0.51302 -0.34000
C 	C 	0.69808 0.39844 0.38328 0.30400
O 	O 	0.76822 0.41024 0.51644 -0.63500
O 	O 	0.66991 0.29131 0.45092 -0.63700
O 	O 	0.72482 0.18886 0.49245 -0.32800
O 	O 	0.74858 0.20242 0.42795 -0.39300
O 	O 	0.69756 0.35727 0.59154 -0.36200
O 	O 	0.74072 0.53582 0.48209 -0.34800
C 	C 	0.80061 0.59557 0.51431 0.33200
C 	C 	0.53350 0.28207 0.50786 0.31800
O 	O 	0.59449 0.37038 0.51178 -0.37500
O 	O 	0.80428 0.57051 0.54892 -0.36400
O 	O 	0.72604 0.26514 0.55972 -0.34000
C 	C 	0.77217 0.19534 0.46428 0.31900
O 	O 	0.66519 0.41441 0.41262 -0.34400
O 	O 	0.76819 0.39651 0.39178 -0.40800
H 	H 	0.83615 0.44638 0.52017 0.17300
H 	H 	0.60540 0.24866 0.43621 0.18900
C 	C 	0.81685 0.34824 0.70319 -0.08500
C 	C 	0.74149 0.26842 0.71260 0.00700
C 	C 	0.67496 0.19500 0.68116 0.04300
C 	C 	0.67831 0.20699 0.64094 -0.00600
C 	C 	0.74730 0.29088 0.63192 -0.09000
C 	C 	0.82092 0.35952 0.66288 0.11100
C 	C 	0.72325 0.26864 0.75422 0.00800
C 	C 	0.59517 0.10712 0.69047 -0.18500
H 	H 	0.62329 0.15329 0.61691 0.06200
C 	C 	0.90023 0.44735 0.65340 -0.21500
H 	H 	0.86946 0.40353 0.72735 0.06800
C 	C 	0.75568 0.23897 0.78289 0.04400
C 	C 	0.72728 0.22929 0.82038 -0.01100
C 	C 	0.66923 0.25156 0.82997 -0.08800
C 	C 	0.64410 0.28939 0.80242 0.11500
C 	C 	0.66973 0.29557 0.76451 -0.08500
C 	C 	0.81872 0.21574 0.77331 -0.18700
H 	H 	0.74865 0.20247 0.84167 0.07500
C 	C 	0.58620 0.31915 0.81217 -0.21100
H 	H 	0.64657 0.32001 0.74259 0.07100
H 	H 	0.96120 0.48384 0.67828 0.09300
H 	H 	0.87929 0.49128 0.64893 0.08400
H 	H 	0.92144 0.43456 0.62559 0.09500
H 	H 	0.54427 0.11551 0.70036 0.08800
H 	H 	0.61943 0.08591 0.71470 0.08300
H 	H 	0.56010 0.05188 0.66355 0.08800
H 	H 	0.84336 0.20002 0.79992 0.09500
H 	H 	0.88016 0.27378 0.76388 0.08800
H 	H 	0.78172 0.15581 0.74855 0.08600
H 	H 	0.59825 0.37164 0.79481 0.10000
H 	H 	0.60327 0.34922 0.84459 0.08600
H 	H 	0.51205 0.26030 0.80408 0.09000
C 	C 	0.60331 0.29648 0.27266 -0.08400
C 	C 	0.61733 0.36982 0.25728 0.00500
C 	C 	0.64127 0.44635 0.28403 0.04200
C 	C 	0.66372 0.45361 0.32580 -0.00800
C 	C 	0.65759 0.38329 0.34090 -0.09700
C 	C 	0.62096 0.30171 0.31438 0.10400
C 	C 	0.61508 0.36885 0.21345 0.00900
C 	C 	0.64625 0.52148 0.26817 -0.18600
H 	H 	0.68878 0.51501 0.34634 0.06400
C 	C 	0.60428 0.22147 0.33027 -0.20600
H 	H 	0.58158 0.23641 0.25204 0.06400
C 	C 	0.69536 0.40033 0.19739 0.03800
C 	C 	0.68768 0.37772 0.15576 -0.00800
C 	C 	0.60106 0.32277 0.13014 -0.09400
C 	C 	0.52183 0.29835 0.14568 0.11700
C 	C 	0.52978 0.32226 0.18732 -0.09000
C 	C 	0.78801 0.45066 0.22486 -0.18200
H 	H 	0.74870 0.39864 0.14356 0.05300
C 	C 	0.42818 0.24226 0.11860 -0.22400
H 	H 	0.46868 0.30004 0.19971 0.06800
H 	H 	0.67051 0.23185 0.33788 0.05600
H 	H 	0.55618 0.15806 0.30754 0.09000
H 	H 	0.57278 0.21212 0.35758 0.07400
H 	H 	0.58375 0.49307 0.24518 0.08900
H 	H 	0.70823 0.56103 0.25427 0.08600
H 	H 	0.65010 0.56816 0.29265 0.09200
H 	H 	0.84499 0.48015 0.20756 0.08400
H 	H 	0.78982 0.40371 0.24190 0.08100
H 	H 	0.80113 0.50719 0.24648 0.08100
H 	H 	0.37387 0.23053 0.13534 0.09900
H 	H 	0.40929 0.17536 0.10564 0.10600
H 	H 	0.42875 0.27742 0.09388 0.11600
C 	C 	0.85307 0.75208 0.53929 0.11600
C 	C 	0.85691 0.69234 0.51252 -0.11200
C 	C 	0.91340 0.72511 0.48330 0.11600
C 	C 	0.96095 0.81580 0.47914 0.08000
C 	C 	0.96064 0.87628 0.50714 -0.06000
C 	C 	0.90933 0.84483 0.53813 0.08700
Br	Br	0.91935 0.92936 0.57998 -0.14400
Br	Br	0.76528 0.70621 0.57505 -0.16700
Br	Br	0.02105 0.85557 0.43351 -0.13200
Br	Br	0.92896 0.64683 0.45022 -0.21800
C 	C 	0.91166 0.22032 0.50175 0.11300
C 	C 	0.83381 0.16957 0.47025 -0.11600
C 	C 	0.81788 0.09718 0.44346 0.11700
C 	C 	0.88289 0.08009 0.44652 0.07500
C 	C 	0.95624 0.12560 0.47985 -0.05500
C 	C 	0.97054 0.19583 0.50758 0.07700
Br	Br	0.06746 0.25511 0.55468 -0.13500
Br	Br	0.93919 0.32499 0.53613 -0.22900
Br	Br	0.87343 0.99652 0.40436 -0.14000
Br	Br	0.70290 0.01546 0.40553 -0.17300
C 	C 	0.30695 0.20057 0.53850 0.08300
C 	C 	0.24845 0.16667 0.50063 -0.04600
C 	C 	0.28472 0.17571 0.46505 0.08400
C 	C 	0.37877 0.21510 0.46739 0.11500
C 	C 	0.43567 0.24262 0.50525 -0.10900
C 	C 	0.40000 0.23658 0.54085 0.11600
Br	Br	0.47839 0.27656 0.59280 -0.18900
Br	Br	0.25911 0.19759 0.58713 -0.14400
Br	Br	0.42972 0.23198 0.41886 -0.20900
Br	Br	0.20474 0.13120 0.41316 -0.14600
C 	C 	0.72383 0.55964 0.98731 0.11800
C 	C 	0.72841 0.51504 0.95275 -0.10800
C 	C 	0.77057 0.56297 0.92213 0.11100
C 	C 	0.79761 0.65126 0.92367 0.08200
C 	C 	0.79329 0.69612 0.95817 -0.04400
C 	C 	0.75732 0.65044 0.99024 0.08400
Br	Br	0.75743 0.71328 0.03886 -0.14600
Br	Br	0.67698 0.49816 0.03165 -0.20800
Br	Br	0.83679 0.70942 0.87779 -0.15100
Br	Br	0.79783 0.51069 0.87982 -0.19900
C 	C 	0.74271 0.96115 0.93761 0.09500
C 	C 	0.77985 0.95281 0.97366 -0.04700
C 	C 	0.78309 0.99540 0.01102 0.09300
C 	C 	0.75772 0.05322 0.01230 0.09900
C 	C 	0.72381 0.06441 0.97618 -0.10500
C 	C 	0.71386 0.01625 0.93887 0.10500
Br	Br	0.65905 0.02427 0.88968 -0.18300
Br	Br	0.73393 0.89907 0.88648 -0.13900
Br	Br	0.77392 0.12076 0.06340 -0.23800
Br	Br	0.82340 0.97498 0.06044 -0.14200
C 	C 	0.10573 0.06676 0.94397 0.08000
C 	C 	0.07414 0.00659 0.97137 -0.04400
C 	C 	0.13791 0.00655 0.99807 0.07600
C 	C 	0.23116 0.05940 0.99440 0.12100
C 	C 	0.26284 0.12122 0.96780 -0.11600
C 	C 	0.20066 0.12896 0.94473 0.12000
Br	Br	0.24588 0.22805 0.91624 -0.16700
Br	Br	0.01927 0.05816 0.90278 -0.14200
Br	Br	0.31339 0.04149 0.02315 -0.25500
Br	Br	0.09867 0.93829 0.04099 -0.14200
