data_crystal

_cell_length_a 25.66540
_cell_length_b 26.44595
_cell_length_c 21.72473
_cell_angle_alpha 95.50117
_cell_angle_beta  95.50126
_cell_angle_gamma 125.82060

_symmetry_space_group_name_	'P 1'
_symmetry_space_group_name_H-M	'P 1'

loop_
_symmetry_equiv_pos_as_xyz
  x,y,z

loop_
_atom_site_label
_atom_site_type_symbol
_atom_site_fract_x
_atom_site_fract_y
_atom_site_fract_z
_atom_site_charge
N 	N 	0.01578 0.06798 0.02175 -0.11800
C 	C 	0.04211 0.03610 0.01589 0.15500
N 	N 	0.01362 0.02337 0.41830 -0.13300
C 	C 	0.11872 0.04096 0.44415 -0.04300
C 	C 	0.15242 0.05028 0.50423 0.12900
C 	C 	0.22066 0.08579 0.51575 -0.06700
C 	C 	0.25574 0.11279 0.46802 0.01800
C 	C 	0.22214 0.10472 0.40838 0.09900
C 	C 	0.15391 0.06904 0.39681 -0.02900
H 	H 	0.24645 0.09255 0.56188 0.09100
H 	H 	0.12812 0.06213 0.35060 0.08600
Br	Br	0.26866 0.14170 0.34211 -0.17700
C 	C 	0.10963 0.06892 0.00577 -0.03400
C 	C 	0.15760 0.07623 0.05129 0.12700
C 	C 	0.21926 0.09961 0.03761 -0.07000
C 	C 	0.18628 0.11011 0.93380 0.09900
C 	C 	0.12450 0.08654 0.94743 -0.03000
H 	H 	0.08755 0.08056 0.91212 0.08500
Br	Br	0.14031 0.05618 0.13305 -0.17500
C 	C 	0.23393 0.11660 0.97905 0.02200
H 	H 	0.25620 0.10552 0.07289 0.08900
Br	Br	0.20472 0.13308 0.85321 -0.16900
C 	C 	0.32752 0.14895 0.48054 0.02900
H 	H 	0.32420 0.06690 0.44984 0.09100
C 	C 	0.30077 0.14559 0.96740 0.03000
H 	H 	0.27897 0.05630 0.92548 0.09400
Br	Br	0.10624 0.01643 0.57157 -0.17700
Br	Br	0.33192 0.25864 0.52576 -0.17200
C 	C 	0.31665 0.10692 0.94056 -0.08000
Br	Br	0.32924 0.26599 0.02135 -0.18000
C 	C 	0.35540 0.11784 0.46639 -0.08100
C 	C 	0.34946 0.21140 0.98584 0.08600
C 	C 	0.36822 0.21491 0.50321 0.08500
C 	C 	0.38110 0.13339 0.93340 0.15300
Br	Br	0.40010 0.07970 0.89276 -0.20000
C 	C 	0.95240 0.03664 0.02870 0.13700
Cu	Cu	0.62560 0.25446 0.00799 0.93200
Cu	Cu	0.72161 0.28784 0.90613 0.87200
O 	O 	0.52641 0.20438 0.98417 -0.33100
O 	O 	0.63612 0.26274 0.91966 -0.63600
O 	O 	0.67644 0.22050 0.02468 -0.34100
C 	C 	0.49981 0.22738 0.95420 0.31000
O 	O 	0.62946 0.26401 0.09751 -0.34600
C 	C 	0.73825 0.25434 0.01944 0.31100
O 	O 	0.70346 0.29060 0.81909 -0.40600
H 	H 	0.59849 0.22964 0.88622 0.19600
Cu	Cu	0.76664 0.27857 0.54099 0.88500
O 	O 	0.64979 0.28034 0.42784 -0.63800
O 	O 	0.73528 0.21783 0.46651 -0.42300
O 	O 	0.57444 0.25560 0.52287 -0.35500
C 	C 	0.53276 0.25741 0.48422 0.31300
C 	C 	0.76974 0.23280 0.42170 0.31100
H 	H 	0.61777 0.23463 0.40914 0.18400
H 	H 	0.67954 0.26841 0.20646 0.11700
C 	C 	0.91137 0.01191 0.39800 -0.04100
C 	C 	0.88187 0.01847 0.44647 0.11700
C 	C 	0.85506 0.05153 0.44113 -0.06500
C 	C 	0.85760 0.07847 0.38789 0.01600
C 	C 	0.88506 0.07004 0.33844 0.09900
H 	H 	0.83372 0.05771 0.47915 0.08300
C 	C 	0.83626 0.11962 0.38675 0.03000
C 	C 	0.88175 0.18490 0.41067 -0.08100
C 	C 	0.86104 0.22327 0.41900 0.14600
C 	C 	0.79406 0.19632 0.40265 -0.09900
C 	C 	0.74906 0.13163 0.37566 -0.00500
C 	C 	0.76983 0.09324 0.36767 0.08300
H 	H 	0.93300 0.20544 0.42497 0.09200
H 	H 	0.69759 0.11074 0.36260 0.07100
Br	Br	0.92440 0.31132 0.45702 -0.22200
C 	C 	0.42317 0.15257 0.47089 0.14900
C 	C 	0.46362 0.21905 0.49026 -0.09300
C 	C 	0.43597 0.24961 0.50800 -0.00400
H 	H 	0.46700 0.30066 0.52372 0.07500
Br	Br	0.45909 0.10883 0.44677 -0.22700
C 	C 	0.92267 0.07025 0.03188 -0.02600
C 	C 	0.86585 0.04847 0.98868 0.11700
C 	C 	0.83714 0.07979 0.99378 -0.05600
C 	C 	0.86617 0.13459 0.03965 0.01000
C 	C 	0.92327 0.15680 0.08245 0.10500
C 	C 	0.95094 0.12431 0.07869 -0.03800
H 	H 	0.79357 0.06299 0.96040 0.08300
C 	C 	0.83927 0.17098 0.03923 0.03100
H 	H 	0.99457 0.14124 0.11203 0.08600
C 	C 	0.79849 0.16408 0.08154 -0.08500
C 	C 	0.76791 0.19384 0.07798 0.15700
C 	C 	0.77584 0.22866 0.02965 -0.11100
C 	C 	0.81866 0.23723 0.98886 -0.00500
C 	C 	0.85079 0.20927 0.99395 0.08100
H 	H 	0.79081 0.13583 0.11747 0.09900
H 	H 	0.82612 0.26476 0.95231 0.04000
Br	Br	0.96517 0.23240 0.14506 -0.17400
Br	Br	0.72024 0.19036 0.14242 -0.19800
Br	Br	0.91043 0.22400 0.93853 -0.19600
C 	C 	0.43035 0.19904 0.95411 -0.09600
C 	C 	0.41374 0.23775 0.97916 -0.00300
O 	O 	0.78959 0.28492 0.40013 -0.33500
O 	O 	0.76128 0.30259 0.99048 -0.42400
O 	O 	0.78106 0.32137 0.62349 -0.40600
C 	C 	0.66010 0.29056 0.22961 -0.11400
H 	H 	0.45130 0.28828 0.99516 0.05100
C 	C 	0.61146 0.29531 0.12837 0.31900
C 	C 	0.68835 0.32673 0.79835 0.31900
O 	O 	0.53795 0.28567 0.94450 -0.38600
Cu	Cu	0.74685 0.32743 0.41379 0.93400
Cu	Cu	0.66621 0.29939 0.51825 0.90100
C 	C 	0.67539 0.30815 0.29254 0.32600
C 	C 	0.73616 0.32227 0.64723 0.32300
O 	O 	0.55332 0.30124 0.44890 -0.37500
O 	O 	0.71827 0.30297 0.32407 -0.35000
O 	O 	0.68255 0.30699 0.61078 -0.37200
C 	C 	0.69697 0.33996 0.74055 -0.10800
C 	C 	0.74403 0.33605 0.70990 -0.11100
H 	H 	0.78629 0.34478 0.73932 0.08300
Cu	Cu	0.62720 0.33255 0.40298 0.90200
O 	O 	0.57646 0.30997 0.09794 -0.37900
O 	O 	0.65783 0.34366 0.83024 -0.36800
O 	O 	0.75834 0.33891 0.50685 -0.63500
C 	C 	0.61852 0.30262 0.19120 -0.10600
Cu	Cu	0.66086 0.34963 0.92104 0.90000
O 	O 	0.65650 0.34014 0.32023 -0.38000
H 	H 	0.67521 0.36058 0.71906 0.10000
H 	H 	0.59610 0.32138 0.21482 0.08900
O 	O 	0.66716 0.35147 0.01045 -0.64000
Cu	Cu	0.60010 0.35757 0.02717 0.90200
H 	H 	0.79015 0.38324 0.52992 0.19500
H 	H 	0.71119 0.38454 0.03604 0.17200
Br	Br	0.88677 0.10377 0.26360 -0.18300
C 	C 	0.91187 0.03693 0.34375 -0.03400
H 	H 	0.93418 0.03165 0.30617 0.08100
Br	Br	0.70666 0.00467 0.33186 -0.18200
C 	C 	0.04693 0.99897 0.42945 0.18400
N 	N 	0.00473 0.97284 0.01564 -0.11300
N 	N 	0.01383 0.93570 0.42739 -0.11700
Br	Br	0.88076 0.98551 0.52176 -0.17000
C 	C 	0.94163 0.94156 0.02284 0.15600
N 	N 	0.91574 0.97362 0.03018 -0.11200
C 	C 	0.94716 0.98464 0.40630 0.17000
C 	C 	0.94748 0.89678 0.41503 0.15600
N 	N 	0.91402 0.92126 0.40479 -0.12200
O 	O 	0.69235 0.43700 0.92538 -0.36900
C 	C 	0.68353 0.46930 0.96778 0.32000
O 	O 	0.63733 0.44079 0.00166 -0.37000
O 	O 	0.78696 0.42088 0.41646 -0.33500
C 	C 	0.76566 0.44826 0.44798 0.30800
O 	O 	0.71093 0.41290 0.46873 -0.38200
C 	C 	0.79134 0.51398 0.44351 -0.09700
C 	C 	0.85756 0.56484 0.46693 0.15200
C 	C 	0.88069 0.62681 0.46142 -0.08200
C 	C 	0.83814 0.63850 0.43307 0.03000
C 	C 	0.77202 0.58765 0.40971 0.08200
C 	C 	0.74896 0.52583 0.41508 -0.00400
H 	H 	0.93162 0.66592 0.47957 0.09200
C 	C 	0.86329 0.70402 0.42741 0.01500
H 	H 	0.69804 0.48680 0.39664 0.05200
C 	C 	0.88691 0.72683 0.37315 -0.06400
C 	C 	0.91108 0.78883 0.36704 0.12200
C 	C 	0.91223 0.82879 0.41580 -0.02600
C 	C 	0.88688 0.80541 0.46926 -0.03600
C 	C 	0.86265 0.74336 0.47538 0.10200
H 	H 	0.88646 0.69632 0.33570 0.08500
H 	H 	0.88777 0.83606 0.50693 0.09200
Br	Br	0.71243 0.60178 0.37040 -0.18500
Br	Br	0.91645 0.55109 0.50877 -0.20700
Br	Br	0.94176 0.81802 0.29152 -0.18100
Br	Br	0.82960 0.71338 0.54983 -0.17100
C 	C 	0.89922 0.87212 0.01361 -0.03200
C 	C 	0.87635 0.84102 0.06458 0.12900
C 	C 	0.83927 0.77482 0.05536 -0.06900
C 	C 	0.82541 0.73945 0.99577 0.02200
C 	C 	0.84731 0.77053 0.94463 0.09900
C 	C 	0.88398 0.83659 0.95376 -0.02900
H 	H 	0.82226 0.75093 0.09476 0.09200
C 	C 	0.78936 0.67016 0.98760 0.03000
H 	H 	0.90133 0.86047 0.91441 0.08500
C 	C 	0.72140 0.63030 0.96669 -0.08100
C 	C 	0.68653 0.56435 0.95757 0.15500
C 	C 	0.71971 0.53791 0.97093 -0.09800
C 	C 	0.78782 0.57779 0.99073 -0.00400
C 	C 	0.82274 0.64370 0.99918 0.08600
H 	H 	0.69580 0.65059 0.95668 0.09600
H 	H 	0.81353 0.55758 0.00058 0.05500
Br	Br	0.82882 0.72356 0.86231 -0.17400
Br	Br	0.89738 0.88828 0.14746 -0.17200
Br	Br	0.59438 0.51129 0.92359 -0.18400
Br	Br	0.91602 0.69689 0.02641 -0.18800
Br	Br	0.82974 0.97938 0.91926 -0.17200
