data_crystal

_cell_length_a 27.06703
_cell_length_b 28.97090
_cell_length_c 40.75783
_cell_angle_alpha 60.84928
_cell_angle_beta  118.85724
_cell_angle_gamma 133.27823

_symmetry_space_group_name_	'P 1'
_symmetry_space_group_name_H-M	'P 1'

loop_
_symmetry_equiv_pos_as_xyz
  x,y,z

loop_
_atom_site_label
_atom_site_type_symbol
_atom_site_fract_x
_atom_site_fract_y
_atom_site_fract_z
_atom_site_charge
Co	Co	0.05153 0.01671 0.06613 1.17500
Co	Co	0.98061 0.04875 0.09098 1.18100
C 	C 	0.20058 0.05909 0.09024 0.29800
Co	Co	0.09291 0.92759 0.07568 1.17900
O 	O 	0.03826 0.08392 0.05558 -0.43000
C 	C 	0.03776 0.13316 0.14153 0.35300
C 	C 	0.09754 0.86096 0.15962 0.36300
O 	O 	0.10645 0.99801 0.02360 -0.35800
O 	O 	0.99516 0.08628 0.16483 -0.39900
O 	O 	0.05398 0.11951 0.12303 -0.36800
O 	O 	0.08607 0.85558 0.12618 -0.39700
O 	O 	0.07371 0.88618 0.16209 -0.36200
O 	O 	0.03795 0.94365 0.08638 -0.74000
O 	O 	0.18372 0.99953 0.10289 -0.32000
O 	O 	0.15936 0.07034 0.08870 -0.37600
Co	Co	0.07223 0.01550 0.56809 1.17100
Co	Co	0.01522 0.06501 0.59071 1.18900
C 	C 	0.21030 0.05325 0.57376 0.35800
Co	Co	0.09659 0.91082 0.58117 1.18400
O 	O 	0.06439 0.08806 0.55432 -0.43000
C 	C 	0.07505 0.16106 0.63519 0.35400
C 	C 	0.12877 0.87292 0.66646 0.34700
O 	O 	0.03256 0.11310 0.65863 -0.37300
O 	O 	0.08384 0.14985 0.61093 -0.34800
O 	O 	0.15742 0.91480 0.63662 -0.37500
O 	O 	0.07740 0.86529 0.67052 -0.33400
O 	O 	0.06180 0.94422 0.59465 -0.73900
O 	O 	0.17360 0.00490 0.55800 -0.41600
O 	O 	0.17956 0.07010 0.57804 -0.36400
C 	C 	0.01689 0.98881 0.89253 0.08400
C 	C 	0.00089 0.97601 0.82310 -0.03700
C 	C 	0.04412 0.96328 0.85733 0.02500
C 	C 	0.05209 0.96964 0.89193 -0.05000
H 	H 	0.07169 0.94867 0.85722 0.06900
H 	H 	0.08572 0.95979 0.91820 0.08200
C 	C 	0.20474 0.45515 0.63474 -0.11800
C 	C 	0.16860 0.39121 0.65744 0.01500
C 	C 	0.15249 0.33756 0.64888 0.02000
H 	H 	0.21516 0.46446 0.60882 0.14700
C 	C 	0.10688 0.31906 0.61401 0.30100
C 	C 	0.08798 0.26511 0.60743 -0.05000
C 	C 	0.11310 0.22840 0.63597 -0.13500
C 	C 	0.16264 0.24983 0.66952 0.38100
C 	C 	0.18259 0.30446 0.67581 -0.13300
F 	F 	0.07858 0.35154 0.58729 -0.38300
H 	H 	0.05011 0.24920 0.58130 0.12500
F 	F 	0.18856 0.21558 0.69696 -0.42400
C 	C 	0.21413 0.66578 0.75050 0.31300
C 	C 	0.20027 0.75605 0.72147 0.02900
F 	F 	0.18327 0.64112 0.77875 -0.39700
H 	H 	0.22706 0.58963 0.77175 0.11700
C 	C 	0.24760 0.82197 0.72293 0.29600
C 	C 	0.22331 0.85943 0.70925 -0.04600
C 	C 	0.15165 0.83106 0.69454 -0.13700
C 	C 	0.10404 0.76304 0.69873 0.37800
C 	C 	0.12835 0.72578 0.71176 -0.13800
H 	H 	0.26043 0.91150 0.70735 0.11800
F 	F 	0.03433 0.73420 0.68652 -0.42800
H 	H 	0.09132 0.67449 0.71160 0.14500
C 	C 	0.07275 0.29481 0.11510 -0.13000
C 	C 	0.11387 0.31313 0.15033 0.02600
C 	C 	0.14011 0.27785 0.18016 0.28800
C 	C 	0.12080 0.22190 0.17580 -0.04500
C 	C 	0.07623 0.20135 0.14141 -0.14200
C 	C 	0.05524 0.23999 0.11040 0.37900
C 	C 	0.12949 0.36927 0.15595 0.00800
H 	H 	0.13785 0.19281 0.19980 0.09900
F 	F 	0.01428 0.22214 0.07646 -0.40800
H 	H 	0.05311 0.32219 0.09166 0.15700
H 	H 	0.08154 0.31217 0.20448 0.13200
C 	C 	0.09307 0.71558 0.21920 -0.14300
C 	C 	0.16082 0.74178 0.22070 0.02700
C 	C 	0.19330 0.85109 0.20345 -0.05300
C 	C 	0.12273 0.82517 0.19441 -0.13200
C 	C 	0.07441 0.75729 0.20683 0.37800
H 	H 	0.23195 0.90357 0.19600 0.12900
F 	F 	0.00686 0.73136 0.20132 -0.42300
H 	H 	0.05363 0.66313 0.22475 0.13700
F 	F 	0.28525 0.18341 0.52887 -0.41900
H 	H 	0.23155 0.15866 0.02617 0.09600
C 	C 	0.15368 0.37964 0.69040 0.30600
C 	C 	0.18115 0.43231 0.70264 -0.07800
C 	C 	0.22320 0.49658 0.68196 -0.07600
C 	C 	0.23118 0.50760 0.64667 0.35900
F 	F 	0.11532 0.31763 0.71146 -0.41100
F 	F 	0.26909 0.56959 0.62544 -0.39600
H 	H 	0.21976 0.31987 0.70218 0.13700
C 	C 	0.22517 0.72334 0.72220 0.01100
C 	C 	0.23539 0.63381 0.74977 -0.07600
F 	F 	0.31731 0.85092 0.73466 -0.38400
F 	F 	0.18316 0.29701 0.21363 -0.40300
C 	C 	0.16565 0.43208 0.13199 0.31300
C 	C 	0.18805 0.48610 0.14040 -0.07600
C 	C 	0.17699 0.47840 0.17358 -0.06400
C 	C 	0.13559 0.41509 0.19558 0.35600
C 	C 	0.11154 0.36068 0.18662 -0.11100
F 	F 	0.18268 0.44130 0.10192 -0.40100
H 	H 	0.21885 0.53467 0.12281 0.12100
F 	F 	0.12292 0.40657 0.22722 -0.40400
C 	C 	0.21221 0.80968 0.21561 0.30800
C 	C 	0.17436 0.70033 0.22035 0.00700
F 	F 	0.27891 0.83590 0.21882 -0.38200
C 	C 	0.22291 0.68964 0.25083 0.32800
C 	C 	0.24221 0.65779 0.24791 -0.07800
C 	C 	0.16183 0.64392 0.18495 0.35800
C 	C 	0.14277 0.67597 0.18783 -0.12400
F 	F 	0.25249 0.71130 0.28289 -0.38400
H 	H 	0.28098 0.65123 0.27118 0.12600
H 	H 	0.10515 0.68385 0.16420 0.13700
C 	C 	0.32313 0.06839 0.60661 -0.05200
C 	C 	0.28639 0.09536 0.58022 -0.14700
C 	C 	0.31972 0.15619 0.55413 0.38500
H 	H 	0.29810 0.02183 0.62717 0.08500
C 	C 	0.27569 0.15749 0.04575 -0.05800
C 	C 	0.27005 0.11418 0.08251 -0.13100
N 	N 	0.19677 0.55587 0.19639 -0.10200
N 	N 	0.24735 0.57312 0.70743 -0.12800
C 	C 	0.05576 0.00279 0.99896 0.30700
O 	O 	0.02472 0.01230 0.00952 -0.37300
O 	O 	0.97713 0.94346 0.20119 -0.36400
O 	O 	0.03473 0.98812 0.61822 -0.54100
O 	O 	0.02448 0.99281 0.51389 -0.32900
C 	C 	0.02590 0.99573 0.92845 0.12000
C 	C 	0.03674 0.00015 0.95974 -0.13200
C 	C 	0.01051 0.97269 0.32439 0.06400
C 	C 	0.02342 0.98004 0.39491 0.06900
C 	C 	0.02437 0.97837 0.43146 0.06600
C 	C 	0.99431 0.96126 0.28831 0.06200
H 	H 	0.17354 0.42328 0.72950 0.11300
C 	C 	0.25726 0.74832 0.69320 -0.11600
C 	C 	0.26815 0.65942 0.72097 -0.07000
C 	C 	0.21286 0.63592 0.21464 -0.06800
F 	F 	0.13320 0.62357 0.15248 -0.39800
C 	C 	0.99302 0.97062 0.78694 0.10300
C 	C 	0.22325 0.53500 0.19027 0.20600
C 	C 	0.04508 0.94788 0.39462 -0.02100
C 	C 	0.03860 0.94419 0.35949 -0.02100
C 	C 	0.02718 0.97387 0.46345 -0.03200
H 	H 	0.05372 0.91775 0.35971 0.07600
C 	C 	0.32812 0.11404 0.10786 0.37200
F 	F 	0.32477 0.07499 0.14426 -0.42800
C 	C 	0.03255 0.96144 0.50360 0.31700
H 	H 	0.06553 0.92453 0.42160 0.07600
C 	C 	0.27139 0.55026 0.70113 0.20300
F 	F 	0.33979 0.23471 0.99669 -0.39900
C 	C 	0.33597 0.19498 0.03290 0.28700
C 	C 	0.24089 0.61115 0.20935 0.20000
N 	N 	0.31114 0.64542 0.21576 -0.13400
N 	N 	0.29320 0.56908 0.19719 -0.12100
C 	C 	0.29328 0.62778 0.72103 0.20400
N 	N 	0.34096 0.58190 0.70846 -0.12800
C 	C 	0.27896 0.71677 0.69269 0.36400
H 	H 	0.26493 0.79206 0.67089 0.14000
C 	C 	0.38998 0.09863 0.60451 0.29100
C 	C 	0.38679 0.18666 0.55214 -0.13600
H 	H 	0.41115 0.23231 0.53089 0.13800
C 	C 	0.38809 0.15106 0.09496 -0.13700
C 	C 	0.39124 0.18976 0.05698 0.02300
F 	F 	0.31008 0.74162 0.66451 -0.38200
C 	C 	0.42087 0.15655 0.57621 0.02300
C 	C 	0.33727 0.62427 0.20971 0.20300
C 	C 	0.38699 0.63719 0.72114 0.20500
N 	N 	0.36306 0.65953 0.72803 -0.10200
F 	F 	0.42671 0.14955 0.51128 -0.41000
F 	F 	0.42322 0.06993 0.62863 -0.40600
C 	C 	0.45176 0.22353 0.04235 0.00400
H 	H 	0.43131 0.14814 0.11408 0.13800
C 	C 	0.44353 0.20476 0.01310 -0.11500
H 	H 	0.39233 0.16655 0.00047 0.12400
C 	C 	0.49011 0.64693 0.72829 -0.07700
C 	C 	0.46127 0.67767 0.72134 -0.06700
H 	H 	0.46333 0.59478 0.74095 0.11800
F 	F 	0.47360 0.77744 0.70127 -0.38300
C 	C 	0.44757 0.73132 0.19321 -0.07600
C 	C 	0.41242 0.66464 0.21223 -0.07500
C 	C 	0.44512 0.63410 0.22654 0.35600
H 	H 	0.42368 0.75585 0.18276 0.12300
F 	F 	0.41405 0.57085 0.24727 -0.40200
C 	C 	0.48683 0.18374 0.57025 0.01000
C 	C 	0.48748 0.18150 0.53680 0.31000
O 	O 	0.02939 0.90895 0.52737 -0.34000
F 	F 	0.52695 0.29109 0.08708 -0.40400
C 	C 	0.49872 0.74601 0.70679 0.36100
C 	C 	0.54963 0.21448 0.59717 -0.11700
C 	C 	0.55099 0.21419 0.52898 -0.08000
H 	H 	0.55123 0.21528 0.50210 0.12500
H 	H 	0.54941 0.21506 0.62348 0.13900
C 	C 	0.51836 0.27232 0.05892 0.31200
C 	C 	0.50143 0.23537 0.00009 0.34500
F 	F 	0.49256 0.21825 0.97102 -0.39300
C 	C 	0.55984 0.78146 0.69542 -0.11000
C 	C 	0.54975 0.68199 0.71563 0.31300
C 	C 	0.50779 0.66746 0.21757 -0.11800
C 	C 	0.51114 0.76518 0.18496 0.30800
F 	F 	0.54362 0.82913 0.16549 -0.39700
C 	C 	0.57616 0.30213 0.04638 -0.08400
C 	C 	0.56800 0.28459 0.01654 -0.07000
H 	H 	0.53018 0.64212 0.22655 0.14500
C 	C 	0.97771 0.95454 0.25661 -0.05800
O 	O 	0.98529 0.94888 0.70481 -0.33300
C 	C 	0.99088 0.00659 0.32466 -0.06000
H 	H 	0.96897 0.02868 0.29772 0.06400
H 	H 	0.98056 0.03527 0.35960 0.07100
C 	C 	0.99728 0.01021 0.35978 -0.06200
C 	C 	0.70964 0.32272 0.99257 0.19900
N 	N 	0.75796 0.38716 0.99278 -0.13200
C 	C 	0.74057 0.41917 0.99551 0.21300
N 	N 	0.67492 0.38687 0.99762 -0.12900
C 	C 	0.62857 0.32151 0.00106 0.19300
N 	N 	0.64551 0.28944 0.99787 -0.10000
C 	C 	0.76223 0.32992 0.51561 0.20200
N 	N 	0.79703 0.39389 0.51370 -0.11900
C 	C 	0.77177 0.41024 0.52495 0.20400
N 	N 	0.71340 0.36287 0.53880 -0.12400
C 	C 	0.67902 0.29943 0.54093 0.20400
N 	N 	0.70286 0.28292 0.52890 -0.12400
Co	Co	0.92445 0.92067 0.14728 1.19300
Co	Co	0.99028 0.88628 0.11985 1.19600
Co	Co	0.89371 0.01338 0.14412 1.15500
C 	C 	0.95064 0.80430 0.07241 0.34900
O 	O 	0.89319 0.08333 0.09361 -0.37600
O 	O 	0.93206 0.99098 0.12427 -0.72800
C 	C 	0.87496 0.07680 0.05909 0.36300
O 	O 	0.93461 0.85197 0.15623 -0.41900
C 	C 	0.77847 0.87733 0.13816 0.35300
O 	O 	0.96478 0.95839 0.09576 -0.54600
O 	O 	0.90495 0.06332 0.05092 -0.35300
O 	O 	0.79811 0.93797 0.12171 -0.34600
O 	O 	0.81718 0.85974 0.14422 -0.35300
C 	C 	0.94854 0.94769 0.21739 0.32000
O 	O 	0.89352 0.94766 0.19741 -0.37800
O 	O 	0.99470 0.85715 0.05078 -0.37500
O 	O 	0.93161 0.80787 0.09541 -0.32800
Co	Co	0.95261 0.94003 0.64846 1.20700
Co	Co	0.01170 0.89208 0.62709 1.19500
Co	Co	0.92932 0.04396 0.63736 1.16200
C 	C 	0.95466 0.79150 0.59165 0.36200
O 	O 	0.93604 0.11197 0.58492 -0.39700
O 	O 	0.97310 0.01576 0.62690 -0.78400
C 	C 	0.91440 0.09804 0.55243 0.35500
O 	O 	0.95391 0.86470 0.65962 -0.41700
C 	C 	0.81152 0.91008 0.62774 0.34800
O 	O 	0.93205 0.06749 0.54980 -0.38100
O 	O 	0.83108 0.97075 0.61432 -0.35800
O 	O 	0.84600 0.89452 0.62599 -0.35300
C 	C 	0.96378 0.96817 0.71532 0.34500
O 	O 	0.91680 0.97857 0.69115 -0.35900
O 	O 	0.02004 0.81335 0.60168 -0.37800
O 	O 	0.93813 0.82212 0.59526 -0.36400
C 	C 	0.97351 0.00135 0.85832 -0.16000
C 	C 	0.96554 0.99498 0.82374 0.12800
C 	C 	0.98256 0.96782 0.75523 -0.06400
H 	H 	0.94608 0.01612 0.85840 0.09200
H 	H 	0.93203 0.00498 0.79745 0.00300
C 	C 	0.58313 0.74897 0.69759 0.00800
C 	C 	0.63881 0.78401 0.67839 0.02600
F 	F 	0.57262 0.65010 0.71880 -0.40300
H 	H 	0.58712 0.83372 0.68305 0.14500
C 	C 	0.63108 0.81430 0.63865 0.29400
C 	C 	0.68632 0.85233 0.62131 -0.04200
C 	C 	0.74887 0.85888 0.64321 -0.14100
C 	C 	0.75448 0.82433 0.68216 0.37900
C 	C 	0.70021 0.78815 0.69986 -0.13400
F 	F 	0.57047 0.80770 0.61702 -0.38800
H 	H 	0.68123 0.87814 0.59110 0.11700
F 	F 	0.81400 0.82867 0.70337 -0.43700
H 	H 	0.70640 0.76441 0.73041 0.14500
C 	C 	0.53965 0.73231 0.19542 0.01300
C 	C 	0.59922 0.76380 0.18057 0.02400
C 	C 	0.66152 0.77243 0.20622 0.29300
C 	C 	0.71831 0.80408 0.19191 -0.05000
C 	C 	0.71409 0.82901 0.15201 -0.13700
C 	C 	0.65084 0.81777 0.12633 0.38600
C 	C 	0.59345 0.78469 0.14056 -0.13100
F 	F 	0.66787 0.75235 0.24498 -0.40400
H 	H 	0.76695 0.81256 0.21194 0.10300
F 	F 	0.64572 0.84074 0.08762 -0.40700
H 	H 	0.54493 0.77649 0.12052 0.14600
C 	C 	0.76891 0.24922 0.46936 -0.11300
C 	C 	0.82625 0.24814 0.49509 0.00800
C 	C 	0.86778 0.28189 0.52442 0.30900
C 	C 	0.85000 0.31352 0.52902 -0.07500
C 	C 	0.79004 0.31086 0.50491 -0.07000
C 	C 	0.75054 0.27999 0.47439 0.35200
C 	C 	0.83859 0.20623 0.49396 0.02000
F 	F 	0.92311 0.28103 0.54975 -0.39500
H 	H 	0.88075 0.33711 0.55265 0.13000
F 	F 	0.69297 0.27784 0.45045 -0.41200
H 	H 	0.73712 0.22423 0.44633 0.13800
C 	C 	0.79054 0.13774 0.50355 0.29000
C 	C 	0.81128 0.09824 0.51441 -0.05400
C 	C 	0.88100 0.12700 0.51804 -0.14000
C 	C 	0.92382 0.19406 0.50089 0.37800
C 	C 	0.90317 0.23385 0.48955 -0.12900
F 	F 	0.72626 0.10969 0.50588 -0.41100
H 	H 	0.77615 0.04593 0.52533 0.09300
F 	F 	0.98950 0.22215 0.50081 -0.42300
H 	H 	0.93940 0.28642 0.48022 0.14400
C 	C 	0.88732 0.56649 0.55426 -0.11300
C 	C 	0.84189 0.58475 0.53682 0.00700
C 	C 	0.78177 0.55433 0.50843 0.31000
C 	C 	0.76452 0.50272 0.50001 -0.07800
C 	C 	0.80532 0.47906 0.52097 -0.07200
C 	C 	0.86894 0.51360 0.54654 0.35600
C 	C 	0.85538 0.63298 0.54990 0.02300
F 	F 	0.73783 0.57198 0.49073 -0.40400
H 	H 	0.71602 0.47727 0.47962 0.11800
F 	F 	0.91016 0.49273 0.56622 -0.40600
H 	H 	0.93526 0.59132 0.57509 0.13500
C 	C 	0.86240 0.62234 0.58899 0.29500
C 	C 	0.88511 0.67204 0.60220 -0.04700
C 	C 	0.90082 0.73260 0.57656 -0.13200
C 	C 	0.88417 0.73951 0.53675 0.37300
C 	C 	0.86344 0.69069 0.52359 -0.13200
F 	F 	0.84978 0.56487 0.61440 -0.39600
H 	H 	0.89582 0.66533 0.63286 0.12900
F 	F 	0.89322 0.79562 0.51112 -0.42400
H 	H 	0.85598 0.69869 0.49318 0.14200
C 	C 	0.61411 0.24950 0.55441 -0.07400
C 	C 	0.61305 0.24691 0.58943 0.35500
F 	F 	0.67376 0.27872 0.61503 -0.40400
C 	C 	0.70343 0.20879 0.96741 -0.11300
C 	C 	0.76539 0.21572 0.99209 0.01400
C 	C 	0.81024 0.25991 0.01565 0.30300
C 	C 	0.79252 0.29569 0.01511 -0.08700
C 	C 	0.72959 0.28735 0.99135 -0.06300
C 	C 	0.68540 0.24426 0.96710 0.35500
C 	C 	0.78017 0.17235 0.99615 0.02400
F 	F 	0.86980 0.26639 0.04011 -0.41200
H 	H 	0.82690 0.32868 0.03394 0.11300
F 	F 	0.62523 0.23695 0.94318 -0.39400
H 	H 	0.66868 0.17504 0.94904 0.14000
C 	C 	0.74035 0.10582 0.01490 0.29100
C 	C 	0.76683 0.06973 0.03021 -0.05500
C 	C 	0.83380 0.10026 0.02772 -0.12900
C 	C 	0.86811 0.16335 0.00358 0.38000
C 	C 	0.84145 0.19945 0.98796 -0.11700
F 	F 	0.67927 0.07789 0.02148 -0.40900
H 	H 	0.73861 0.02011 0.04753 0.10500
F 	F 	0.93086 0.19214 0.99869 -0.38900
H 	H 	0.87113 0.25000 0.97209 0.14300
C 	C 	0.82752 0.58938 0.99425 -0.12500
C 	C 	0.85518 0.58601 0.03400 0.00300
C 	C 	0.85858 0.53324 0.05916 0.32300
C 	C 	0.83002 0.48219 0.04498 -0.07800
C 	C 	0.79522 0.48204 0.00598 -0.09300
C 	C 	0.79749 0.53750 0.98028 0.36500
C 	C 	0.87763 0.63621 0.04932 0.02400
F 	F 	0.88578 0.52954 0.09765 -0.38900
H 	H 	0.82920 0.43986 0.06496 0.11100
F 	F 	0.76585 0.53888 0.94225 -0.40900
H 	H 	0.82672 0.63095 0.97444 0.12600
C 	C 	0.94775 0.67687 0.06756 0.30300
C 	C 	0.96995 0.72806 0.07884 -0.05600
C 	C 	0.92291 0.74038 0.07105 -0.13300
C 	C 	0.85202 0.69751 0.05486 0.38400
C 	C 	0.82941 0.64540 0.04417 -0.14600
F 	F 	0.99498 0.66866 0.07272 -0.39000
H 	H 	0.02467 0.76056 0.09167 0.09400
F 	F 	0.80580 0.70842 0.04753 -0.41500
H 	H 	0.77489 0.61340 0.03080 0.13200
H 	H 	0.62742 0.33952 0.05959 0.11400
