data_crystal

_cell_length_a 20.23770
_cell_length_b 21.62422
_cell_length_c 31.60727
_cell_angle_alpha 60.72169
_cell_angle_beta  118.99536
_cell_angle_gamma 133.22829

_symmetry_space_group_name_	'P 1'
_symmetry_space_group_name_H-M	'P 1'

loop_
_symmetry_equiv_pos_as_xyz
  x,y,z

loop_
_atom_site_label
_atom_site_type_symbol
_atom_site_fract_x
_atom_site_fract_y
_atom_site_fract_z
_atom_site_charge
O 	O 	0.00189 0.86343 0.00423 -0.37800
O 	O 	0.00300 0.49098 0.19588 -0.08500
Co	Co	0.05623 0.00471 0.05411 1.16700
Co	Co	0.98966 0.07213 0.09186 1.18500
Co	Co	0.10391 0.87710 0.06905 1.18100
O 	O 	0.04350 0.09999 0.03915 -0.45000
C 	C 	0.07282 0.21713 0.13233 0.30700
C 	C 	0.16839 0.83816 0.17774 0.31400
O 	O 	0.98587 0.17809 0.12959 -0.38400
O 	O 	0.09501 0.18176 0.12172 -0.37400
O 	O 	0.19895 0.89087 0.13689 -0.35500
O 	O 	0.11788 0.84246 0.19020 -0.36200
O 	O 	0.04696 0.91029 0.08814 -0.73300
C 	C 	0.01534 0.00530 0.26372 0.21200
Co	Co	0.06428 0.02373 0.55161 1.17300
Co	Co	0.01143 0.08998 0.59912 1.17700
Co	Co	0.11447 0.90259 0.56213 1.18600
O 	O 	0.06146 0.12172 0.54332 -0.44300
C 	C 	0.11254 0.20993 0.66895 0.30300
C 	C 	0.18078 0.86070 0.66887 0.31200
O 	O 	0.01143 0.88713 0.49758 -0.37300
O 	O 	0.05918 0.14587 0.70069 -0.39900
O 	O 	0.12013 0.19360 0.63606 -0.36100
O 	O 	0.20966 0.92297 0.62927 -0.37100
O 	O 	0.12053 0.84824 0.68420 -0.34600
O 	O 	0.05457 0.92935 0.58331 -0.73500
C 	C 	0.97522 0.95854 0.76910 0.32600
C 	C 	0.03525 0.02419 0.88088 0.06600
C 	C 	0.03800 0.03218 0.83432 -0.05400
H 	H 	0.05645 0.09299 0.80581 0.06500
N 	N 	0.06106 0.09761 0.88991 -0.02300
O 	O 	0.14867 0.16199 0.90021 -0.08800
C 	C 	0.05975 0.95716 0.35811 -0.04100
C 	C 	0.06657 0.95176 0.40638 0.11500
N 	N 	0.12125 0.92453 0.44853 -0.03000
H 	H 	0.09415 0.93872 0.35412 0.09000
O 	O 	0.08436 0.84145 0.46819 -0.10100
O 	O 	0.21101 0.98155 0.46130 -0.07700
C 	C 	0.22577 0.31256 0.72337 -0.00800
C 	C 	0.17285 0.29979 0.67512 -0.08100
H 	H 	0.24363 0.26762 0.75050 0.06900
N 	N 	0.29260 0.38177 0.78960 -0.01900
O 	O 	0.25578 0.37620 0.81662 -0.07300
C 	C 	0.19644 0.73750 0.73276 0.13000
N 	N 	0.19375 0.75146 0.77154 -0.02400
O 	O 	0.13247 0.68669 0.79824 -0.06500
O 	O 	0.25776 0.82661 0.78314 -0.06600
C 	C 	0.19008 0.37798 0.20182 0.06800
C 	C 	0.16680 0.30710 0.19245 -0.01100
C 	C 	0.14269 0.30375 0.14336 -0.08200
H 	H 	0.16142 0.25179 0.22323 0.07200
N 	N 	0.21436 0.37959 0.25214 -0.01900
O 	O 	0.15163 0.32239 0.27829 -0.07400
O 	O 	0.30073 0.43325 0.27313 -0.08600
C 	C 	0.11024 0.68448 0.19569 -0.00900
H 	H 	0.03808 0.65858 0.18748 0.06100
N 	N 	0.05940 0.56570 0.16944 -0.02200
O 	O 	0.04359 0.57556 0.12226 -0.09900
O 	O 	0.79904 0.70861 0.94710 -0.07800
C 	C 	0.71312 0.29643 0.01217 0.05300
C 	C 	0.61771 0.26219 0.99365 -0.06200
C 	C 	0.58383 0.29479 0.00029 0.06300
C 	C 	0.64584 0.37583 0.01123 -0.07200
C 	C 	0.74104 0.41345 0.02854 0.06100
C 	C 	0.77553 0.37310 0.03007 -0.06000
H 	H 	0.56856 0.20365 0.97989 0.07100
H 	H 	0.61902 0.40398 0.01287 0.08000
H 	H 	0.84832 0.39856 0.04681 0.09100
C 	C 	0.72655 0.30936 0.51489 0.06300
C 	C 	0.63039 0.26759 0.50546 -0.06700
C 	C 	0.59984 0.30848 0.50648 0.06300
C 	C 	0.66239 0.39590 0.50793 -0.06900
C 	C 	0.75814 0.43705 0.52039 0.06900
C 	C 	0.79109 0.39408 0.52373 -0.07000
H 	H 	0.58013 0.20139 0.50066 0.07900
H 	H 	0.63716 0.42803 0.50651 0.07800
H 	H 	0.86538 0.42485 0.53440 0.08000
C 	C 	0.25931 0.64177 0.18906 0.06400
C 	C 	0.20966 0.55385 0.18815 -0.06700
C 	C 	0.24534 0.53411 0.17120 0.06800
C 	C 	0.33420 0.59772 0.16220 -0.07700
C 	C 	0.38585 0.68206 0.16641 0.07200
C 	C 	0.34575 0.70599 0.17551 -0.07900
H 	H 	0.14711 0.50151 0.20207 0.09300
H 	H 	0.36482 0.58043 0.15358 0.08000
H 	H 	0.38421 0.77378 0.17467 0.08100
C 	C 	0.26918 0.62617 0.72107 0.06200
C 	C 	0.36663 0.68359 0.72779 -0.07100
C 	C 	0.41416 0.66045 0.72514 0.07000
C 	C 	0.36689 0.57592 0.72246 -0.06900
C 	C 	0.27010 0.51735 0.71569 0.06600
C 	C 	0.22042 0.54219 0.71497 -0.06500
H 	H 	0.40385 0.74971 0.72957 0.08100
H 	H 	0.40451 0.55847 0.72077 0.08200
H 	H 	0.14492 0.49862 0.70756 0.07800
Co	Co	0.94674 0.91951 0.18058 1.19700
Co	Co	0.00426 0.84797 0.14069 1.18100
C 	C 	0.24149 0.07076 0.05419 0.32500
Co	Co	0.90649 0.05016 0.16887 1.17600
C 	C 	0.92888 0.70718 0.09775 0.32500
O 	O 	0.80288 0.02348 0.10521 -0.39100
O 	O 	0.94993 0.01027 0.14523 -0.77000
C 	C 	0.82339 0.07870 0.06236 0.30700
O 	O 	0.95587 0.82267 0.19489 -0.43600
C 	C 	0.77139 0.85716 0.19265 0.32900
O 	O 	0.97322 0.94782 0.10854 -0.54700
C 	C 	0.00895 0.93281 0.96985 0.29900
O 	O 	0.88512 0.09441 0.04635 -0.36000
O 	O 	0.01306 0.98872 0.98060 -0.31100
O 	O 	0.82540 0.92548 0.21057 -0.35500
O 	O 	0.80572 0.84221 0.17546 -0.37000
O 	O 	0.01787 0.07264 0.22931 -0.36400
O 	O 	0.01149 0.95017 0.25226 -0.31900
O 	O 	0.19415 0.00569 0.03448 -0.41900
O 	O 	0.19970 0.07804 0.07126 -0.39600
O 	O 	0.01633 0.74595 0.10135 -0.40600
O 	O 	0.90648 0.73340 0.11573 -0.36400
Co	Co	0.94011 0.92200 0.67642 1.20000
Co	Co	0.01082 0.86271 0.63575 1.18100
C 	C 	0.24718 0.09609 0.54555 0.32900
Co	Co	0.91933 0.05931 0.67457 1.16400
C 	C 	0.94266 0.72863 0.59094 0.33400
O 	O 	0.93005 0.15983 0.61174 -0.39300
O 	O 	0.95805 0.01982 0.64736 -0.77600
C 	C 	0.89159 0.14777 0.56699 0.32600
O 	O 	0.95014 0.82698 0.68760 -0.42600
C 	C 	0.75249 0.88173 0.66382 0.31200
O 	O 	0.98151 0.96295 0.60693 -0.54700
C 	C 	0.01647 0.95658 0.46443 0.32800
O 	O 	0.90733 0.11027 0.55382 -0.36100
O 	O 	0.02003 0.01049 0.47704 -0.37800
O 	O 	0.78593 0.96541 0.64494 -0.35600
O 	O 	0.79762 0.85137 0.67079 -0.35400
O 	O 	0.90752 0.96674 0.74196 -0.38100
O 	O 	0.01008 0.94815 0.74844 -0.36100
O 	O 	0.20128 0.03111 0.52633 -0.40300
O 	O 	0.20742 0.09616 0.56830 -0.39900
O 	O 	0.03114 0.77086 0.59562 -0.39900
O 	O 	0.91490 0.75346 0.60610 -0.36000
C 	C 	0.98667 0.87486 0.90759 -0.02200
C 	C 	0.00672 0.94397 0.91773 -0.02800
C 	C 	0.01011 0.96038 0.82297 -0.05200
C 	C 	0.98691 0.88229 0.86070 0.11500
N 	N 	0.96026 0.80874 0.85124 -0.01800
H 	H 	0.97066 0.81468 0.93620 0.08500
O 	O 	0.01424 0.78322 0.87402 -0.08000
O 	O 	0.87831 0.76240 0.82363 -0.08100
O 	O 	0.99711 0.10533 0.88146 -0.07800
C 	C 	0.01252 0.98950 0.31543 0.01700
C 	C 	0.97051 0.01605 0.32188 0.06800
C 	C 	0.97542 0.00855 0.37022 -0.03200
C 	C 	0.02252 0.97608 0.41285 -0.03700
H 	H 	0.94098 0.02690 0.37427 0.08100
N 	N 	0.92240 0.05037 0.27959 -0.02500
O 	O 	0.83171 0.00055 0.26702 -0.11000
O 	O 	0.96755 0.13445 0.26036 -0.09700
C 	C 	0.17479 0.42555 0.65513 -0.06700
C 	C 	0.22157 0.43376 0.70449 0.00100
C 	C 	0.24541 0.37540 0.73894 0.06300
C 	C 	0.15129 0.35980 0.64007 0.11200
N 	N 	0.10372 0.35327 0.58940 -0.02300
H 	H 	0.16028 0.47270 0.62775 0.08500
O 	O 	0.03878 0.36562 0.56632 -0.09100
O 	O 	0.13332 0.34637 0.56454 -0.08000
O 	O 	0.37279 0.39384 0.80861 -0.06900
C 	C 	0.50887 0.77776 0.66310 -0.06600
C 	C 	0.50568 0.72881 0.71273 0.00200
C 	C 	0.58376 0.72906 0.74597 0.06900
C 	C 	0.66194 0.77432 0.72855 -0.00700
C 	C 	0.66375 0.82077 0.67848 -0.08300
C 	C 	0.58597 0.82127 0.64534 0.12500
N 	N 	0.58337 0.86254 0.59316 -0.02400
H 	H 	0.44806 0.77606 0.63726 0.09100
H 	H 	0.72273 0.77603 0.75443 0.07900
N 	N 	0.58313 0.68215 0.79731 -0.01800
O 	O 	0.60665 0.84806 0.56893 -0.07300
O 	O 	0.54863 0.90709 0.56888 -0.06600
O 	O 	0.61032 0.63167 0.81857 -0.07000
O 	O 	0.55924 0.69284 0.82340 -0.07100
C 	C 	0.21305 0.67623 0.74469 -0.06300
C 	C 	0.21864 0.66312 0.70727 0.00700
C 	C 	0.20119 0.70738 0.65743 0.06200
C 	C 	0.19272 0.77306 0.64619 0.00900
C 	C 	0.18782 0.78772 0.68315 -0.08600
H 	H 	0.22659 0.64263 0.78332 0.08800
H 	H 	0.18987 0.81296 0.60827 0.03400
N 	N 	0.20032 0.69115 0.61831 -0.01800
O 	O 	0.13299 0.61637 0.60646 -0.09600
O 	O 	0.26382 0.75285 0.59268 -0.08600
C 	C 	0.16926 0.44506 0.11287 -0.06400
C 	C 	0.19093 0.44762 0.16184 0.00200
C 	C 	0.15251 0.37710 0.10406 0.11800
N 	N 	0.14522 0.38261 0.05501 -0.02600
H 	H 	0.17426 0.50027 0.08210 0.09000
O 	O 	0.10661 0.41818 0.01576 -0.07800
O 	O 	0.18299 0.35756 0.04958 -0.08100
C 	C 	0.61188 0.79580 0.13941 0.00300
C 	C 	0.67103 0.80295 0.18723 -0.08900
C 	C 	0.63699 0.77599 0.22721 0.12900
C 	C 	0.54626 0.74753 0.21830 -0.06400
C 	C 	0.48655 0.73918 0.17067 0.00200
C 	C 	0.52012 0.76489 0.13077 0.07200
N 	N 	0.46030 0.75783 0.08161 -0.01600
H 	H 	0.63858 0.81838 0.10839 0.08000
H 	H 	0.51970 0.72533 0.24929 0.08400
N 	N 	0.69406 0.77575 0.27718 -0.02300
O 	O 	0.41049 0.78719 0.06231 -0.07100
O 	O 	0.45795 0.72463 0.05552 -0.07700
O 	O 	0.69599 0.80379 0.30627 -0.06500
O 	O 	0.73872 0.74169 0.29471 -0.07100
C 	C 	0.29246 0.73548 0.23227 -0.06700
C 	C 	0.22582 0.66766 0.20696 0.00500
C 	C 	0.13210 0.63926 0.19080 0.06400
C 	C 	0.18156 0.76706 0.20623 -0.08500
C 	C 	0.27234 0.78858 0.22935 0.12700
N 	N 	0.34435 0.86457 0.24922 -0.02200
H 	H 	0.36182 0.75113 0.25083 0.08200
O 	O 	0.43025 0.90978 0.24747 -0.05700
O 	O 	0.32479 0.88623 0.27114 -0.05900
C 	C 	0.81847 0.29458 0.49254 -0.06400
C 	C 	0.75909 0.25994 0.52118 0.00500
C 	C 	0.72450 0.17474 0.55289 0.06100
C 	C 	0.74833 0.12584 0.55478 -0.00900
C 	C 	0.82206 0.16692 0.53475 -0.08400
C 	C 	0.84992 0.24813 0.49904 0.12800
N 	N 	0.91161 0.28448 0.47027 -0.02300
H 	H 	0.84062 0.35736 0.46563 0.08500
H 	H 	0.72237 0.06124 0.57989 0.06300
N 	N 	0.67494 0.14208 0.58759 -0.02000
O 	O 	0.97257 0.36885 0.45747 -0.06500
O 	O 	0.90297 0.23358 0.45427 -0.07000
O 	O 	0.59283 0.06751 0.58803 -0.09500
O 	O 	0.71614 0.18194 0.62225 -0.08400
C 	C 	0.85306 0.51138 0.58916 -0.06300
C 	C 	0.82122 0.51808 0.53762 0.00600
C 	C 	0.82167 0.59186 0.50473 0.06700
C 	C 	0.84423 0.65245 0.52375 -0.00500
C 	C 	0.87731 0.64660 0.57518 -0.08700
C 	C 	0.87949 0.57413 0.60812 0.12600
N 	N 	0.91317 0.56650 0.66088 -0.02400
H 	H 	0.85186 0.45445 0.61481 0.08900
H 	H 	0.84463 0.70899 0.49809 0.07500
N 	N 	0.79639 0.60391 0.45178 -0.01800
O 	O 	0.88178 0.57567 0.68332 -0.07200
O 	O 	0.97350 0.54822 0.68669 -0.08000
O 	O 	0.74061 0.62728 0.42306 -0.07700
O 	O 	0.83163 0.59439 0.43212 -0.07800
C 	C 	0.41682 0.18113 0.57642 -0.00300
C 	C 	0.33977 0.17177 0.53708 -0.09500
C 	C 	0.35073 0.21420 0.48761 0.12600
C 	C 	0.43484 0.25513 0.47775 -0.06900
C 	C 	0.50884 0.25628 0.51690 0.00300
C 	C 	0.50058 0.22112 0.56671 0.06300
N 	N 	0.57600 0.22305 0.60744 -0.01500
H 	H 	0.40915 0.15024 0.61457 0.06400
H 	H 	0.44293 0.28680 0.43967 0.08300
N 	N 	0.27425 0.21087 0.44707 -0.02400
O 	O 	0.65193 0.29728 0.61775 -0.09000
O 	O 	0.56309 0.15012 0.63863 -0.08000
O 	O 	0.22607 0.22769 0.44989 -0.08400
O 	O 	0.25303 0.19140 0.40724 -0.08700
C 	C 	0.68301 0.15041 0.03925 -0.07200
C 	C 	0.74223 0.24178 0.02160 0.00600
C 	C 	0.82320 0.27839 0.00919 0.06200
C 	C 	0.84710 0.22399 0.01852 -0.00500
C 	C 	0.78676 0.13241 0.03606 -0.08700
C 	C 	0.70033 0.09600 0.04176 0.11200
N 	N 	0.63160 0.00296 0.05267 -0.05700
H 	H 	0.62143 0.12108 0.04967 0.07000
H 	H 	0.91320 0.25326 0.01315 0.08000
N 	N 	0.87984 0.36961 0.98614 -0.01300
O 	O 	0.58963 0.96441 0.08787 -0.05800
O 	O 	0.60840 0.95728 0.02614 -0.04400
O 	O 	0.96335 0.42113 0.01056 -0.08200
O 	O 	0.84774 0.40131 0.94082 -0.07100
C 	C 	0.84862 0.54818 0.11588 0.00300
C 	C 	0.85825 0.62493 0.08153 -0.08400
C 	C 	0.82835 0.62964 0.03016 0.11400
C 	C 	0.81160 0.56867 0.01422 -0.07200
C 	C 	0.80173 0.49154 0.04823 0.01000
C 	C 	0.81785 0.48043 0.09948 0.07000
N 	N 	0.79574 0.39803 0.13431 -0.01600
H 	H 	0.86802 0.54215 0.15552 0.07100
H 	H 	0.79436 0.57554 0.97464 0.09500
N 	N 	0.80886 0.69240 0.99441 -0.01800
O 	O 	0.83441 0.36464 0.13958 -0.07800
O 	O 	0.74045 0.35851 0.16256 -0.08200
O 	O 	0.78967 0.72506 0.00842 -0.08400
C 	C 	0.48289 0.17353 0.05895 -0.06200
C 	C 	0.49261 0.23438 0.01243 -0.01200
C 	C 	0.42542 0.25188 0.98458 0.08200
C 	C 	0.34940 0.20800 0.00350 -0.02100
C 	C 	0.33655 0.14276 0.04832 -0.08500
C 	C 	0.40687 0.12977 0.07763 0.11100
N 	N 	0.39888 0.06883 0.12561 -0.02400
H 	H 	0.53695 0.16330 0.08170 0.07600
H 	H 	0.29600 0.21912 0.98119 0.08400
N 	N 	0.43355 0.31320 0.93674 -0.02000
O 	O 	0.41416 0.01212 0.13767 -0.10100
O 	O 	0.37974 0.07218 0.15793 -0.08500
O 	O 	0.44883 0.30795 0.90349 -0.07600
O 	O 	0.42190 0.37202 0.92570 -0.06600
