data_crystal

_cell_length_a 16.50629
_cell_length_b 16.72195
_cell_length_c 76.95104
_cell_angle_alpha 90.06852
_cell_angle_beta  89.94319
_cell_angle_gamma 119.77829

_symmetry_space_group_name_	'P 1'
_symmetry_space_group_name_H-M	'P 1'

loop_
_symmetry_equiv_pos_as_xyz
  x,y,z

loop_
_atom_site_label
_atom_site_type_symbol
_atom_site_fract_x
_atom_site_fract_y
_atom_site_fract_z
_atom_site_charge
C 	C 	0.81106 0.53228 0.04855 0.29300
C 	C 	0.49741 0.22972 0.08882 0.35100
C 	C 	0.77370 0.45952 0.09485 0.34300
C 	C 	0.51813 0.26265 0.03864 0.27800
C 	C 	0.75350 0.21624 0.08888 0.35000
C 	C 	0.75727 0.20640 0.04134 0.29000
Ni	Ni	0.62577 0.39461 0.06727 1.11300
Ni	Ni	0.60910 0.19361 0.06349 1.12000
Ni	Ni	0.81295 0.37342 0.06477 1.12200
O 	O 	0.73542 0.51865 0.05731 -0.36900
O 	O 	0.83036 0.46500 0.04595 -0.38100
O 	O 	0.69549 0.16270 0.07674 -0.40600
O 	O 	0.50110 0.29281 0.07818 -0.38500
O 	O 	0.55401 0.19678 0.08679 -0.40400
O 	O 	0.82578 0.28653 0.04753 -0.37100
O 	O 	0.68393 0.42651 0.09203 -0.38500
O 	O 	0.83076 0.47417 0.08178 -0.39200
O 	O 	0.66903 0.18547 0.04157 -0.39500
O 	O 	0.55553 0.35010 0.04364 -0.36600
O 	O 	0.50389 0.19712 0.05005 -0.37300
O 	O 	0.81494 0.30271 0.08559 -0.40300
O 	O 	0.68265 0.32359 0.06189 -0.71700
H 	H 	0.68508 0.33000 0.04916 0.15400
C 	C 	0.03406 0.87876 0.01622 0.28600
C 	C 	0.90488 0.00914 0.00990 0.27800
Ni	Ni	0.10574 0.07258 0.00332 1.11100
O 	O 	0.05644 0.96270 0.02106 -0.36600
O 	O 	0.99042 0.08080 0.01065 -0.36600
O 	O 	0.88957 0.92432 0.00639 -0.36900
C 	C 	0.86258 0.70058 0.04625 -0.00200
C 	C 	0.87839 0.62691 0.04257 -0.07100
C 	C 	0.95936 0.64446 0.03345 0.01000
C 	C 	0.01907 0.73243 0.02683 -0.04300
C 	C 	0.99770 0.80337 0.02894 -0.04200
C 	C 	0.92235 0.78842 0.03955 -0.02200
H 	H 	0.80259 0.68942 0.05385 0.04300
H 	H 	0.97478 0.58960 0.03102 0.04100
H 	H 	0.07821 0.74368 0.01893 0.04800
H 	H 	0.90578 0.84290 0.04150 0.05000
C 	C 	0.44106 0.28435 0.01255 -0.01100
C 	C 	0.47871 0.23588 0.02096 -0.06100
C 	C 	0.47208 0.15732 0.01296 -0.01400
H 	H 	0.44899 0.34736 0.01813 0.04400
H 	H 	0.50539 0.12199 0.01875 0.04200
C 	C 	0.76681 0.12322 0.01537 -0.00600
C 	C 	0.78068 0.14134 0.03323 -0.06500
C 	C 	0.80730 0.08952 0.04360 -0.01000
C 	C 	0.82968 0.02729 0.03588 -0.00800
C 	C 	0.83099 0.02086 0.01771 -0.06100
C 	C 	0.79093 0.06215 0.00765 -0.01400
H 	H 	0.74075 0.15888 0.00738 0.04000
H 	H 	0.81266 0.09891 0.05757 0.04300
H 	H 	0.85670 0.99250 0.04387 0.04100
C 	C 	0.70457 0.08629 0.10885 0.01800
C 	C 	0.76495 0.17779 0.10409 -0.17400
H 	H 	0.82685 0.02610 0.11488 0.04300
H 	H 	0.64388 0.04184 0.10101 0.03400
H 	H 	0.82181 0.22155 0.11281 0.09100
C 	C 	0.30469 0.19285 0.11995 0.00400
C 	C 	0.20797 0.13491 0.11829 -0.04000
C 	C 	0.36473 0.22212 0.10441 0.01600
C 	C 	0.43414 0.19780 0.10259 -0.17700
H 	H 	0.17634 0.11587 0.10552 0.03800
H 	H 	0.35162 0.25859 0.09410 0.03700
H 	H 	0.43852 0.15200 0.11209 0.08600
C 	C 	0.81114 0.49495 0.11118 -0.16800
H 	H 	0.88550 0.54290 0.11225 0.08700
C 	C 	0.72077 0.05226 0.12536 0.00400
C 	C 	0.79469 0.03377 0.12657 -0.03600
H 	H 	0.07794 0.05249 0.13173 0.03300
C 	C 	0.75485 0.46834 0.12613 0.01500
H 	H 	0.68182 0.41530 0.12516 0.03900
C 	C 	0.67896 0.06084 0.14059 -0.03700
H 	H 	0.62142 0.07452 0.13979 0.04000
C 	C 	0.34490 0.21743 0.13653 -0.03900
C 	C 	0.15235 0.09861 0.13312 -0.04000
H 	H 	0.41946 0.26277 0.13794 0.04100
H 	H 	0.92965 0.54086 0.14064 0.04200
C 	C 	0.83303 0.03397 0.14277 -0.03900
H 	H 	0.89357 0.02493 0.14348 0.04400
C 	C 	0.19296 0.12159 0.14969 0.00300
C 	C 	0.28949 0.18155 0.15132 -0.03900
C 	C 	0.78904 0.51904 0.14277 0.00700
C 	C 	0.88247 0.55517 0.14803 -0.03600
H 	H 	0.65388 0.49946 0.15003 0.03900
C 	C 	0.79675 0.05113 0.15790 0.01000
C 	C 	0.71729 0.06121 0.15681 -0.03900
C 	C 	0.72688 0.53027 0.15355 -0.03900
H 	H 	0.68857 0.07464 0.16839 0.04200
H 	H 	0.92500 0.10829 0.17394 0.04600
C 	C 	0.13524 0.07999 0.16530 0.01300
H 	H 	0.32179 0.19889 0.16405 0.04200
H 	H 	0.08675 0.00623 0.16558 0.03500
C 	C 	0.75896 0.58277 0.16872 -0.03700
C 	C 	0.85427 0.62674 0.17304 0.00700
C 	C 	0.91510 0.60981 0.16299 -0.03800
H 	H 	0.98793 0.64017 0.16659 0.04300
C 	C 	0.84913 0.07015 0.17437 0.01500
C 	C 	0.14364 0.13501 0.17967 -0.17600
H 	H 	0.18027 0.20953 0.17821 0.08400
H 	H 	0.70993 0.59008 0.17701 0.04000
H 	H 	0.80475 0.75251 0.18263 0.08600
C 	C 	0.80301 0.03296 0.19012 -0.16400
H 	H 	0.72802 0.98626 0.19012 0.07800
C 	C 	0.89104 0.69199 0.18784 0.01600
C 	C 	0.85845 0.75385 0.19099 -0.17200
C 	C 	0.89188 0.81685 0.20470 0.34900
C 	C 	0.11035 0.09722 0.19603 0.34200
C 	C 	0.85271 0.04696 0.20554 0.35300
O 	O 	0.08075 0.00936 0.19889 -0.39200
H 	H 	0.94770 0.69531 0.19558 0.04100
O 	O 	0.96316 0.82771 0.21408 -0.37600
O 	O 	0.85189 0.86613 0.20789 -0.40200
O 	O 	0.12393 0.15300 0.20910 -0.39800
O 	O 	0.94002 0.11390 0.20666 -0.39000
Ni	Ni	0.06298 0.95570 0.22389 1.10100
Ni	Ni	0.02365 0.12875 0.22692 1.11000
O 	O 	0.80951 0.99770 0.21924 -0.41600
Ni	Ni	0.85473 0.92129 0.23147 1.11900
O 	O 	0.18534 0.07421 0.23210 -0.36800
O 	O 	0.98552 0.00288 0.23091 -0.70100
H 	H 	0.36015 0.15091 0.23556 0.04500
C 	C 	0.19282 0.13888 0.24322 0.28200
O 	O 	0.12585 0.16104 0.24486 -0.38200
O 	O 	0.93563 0.13651 0.24482 -0.36600
O 	O 	0.03366 0.88903 0.24791 -0.39300
O 	O 	0.87448 0.82487 0.24403 -0.38000
H 	H 	0.99872 0.00888 0.24347 0.16200
C 	C 	0.36377 0.19286 0.24659 -0.01300
H 	H 	0.75873 0.13357 0.24062 0.04400
C 	C 	0.94717 0.84548 0.25423 0.30600
C 	C 	0.86577 0.06747 0.25361 0.29800
O 	O 	0.85237 0.98268 0.25359 -0.40100
C 	C 	0.28430 0.19720 0.25190 -0.05900
C 	C 	0.44754 0.24018 0.25588 -0.01000
H 	H 	0.50613 0.23139 0.25228 0.04300
C 	C 	0.75044 0.12155 0.25452 -0.00900
H 	H 	0.65994 0.17885 0.25722 0.03600
C 	C 	0.29230 0.25570 0.26571 -0.01400
C 	C 	0.45302 0.29233 0.27058 -0.06200
H 	H 	0.23270 0.26173 0.26976 0.04400
C 	C 	0.92988 0.80329 0.27159 -0.08000
H 	H 	0.03174 0.75879 0.26905 0.01800
C 	C 	0.79992 0.08568 0.26321 -0.06400
C 	C 	0.69280 0.14524 0.26386 -0.00700
C 	C 	0.52626 0.31391 0.28373 0.28400
O 	O 	0.61349 0.33895 0.27849 -0.37600
C 	C 	0.37645 0.30371 0.27487 -0.01000
C 	C 	0.97417 0.75410 0.27662 0.03100
C 	C 	0.85746 0.79872 0.28192 -0.00200
H 	H 	0.82500 0.83924 0.27857 0.03800
C 	C 	0.78405 0.06497 0.28096 -0.00700
C 	C 	0.68768 0.13703 0.28202 -0.07000
C 	C 	0.67468 0.20406 0.29199 0.30700
Ni	Ni	0.73416 0.39882 0.29318 1.12000
O 	O 	0.73810 0.52043 0.29465 -0.38200
O 	O 	0.59044 0.18633 0.29654 -0.38300
O 	O 	0.74646 0.28635 0.29403 -0.38600
H 	H 	0.38026 0.34518 0.28600 0.03900
C 	C 	0.93745 0.69060 0.29022 -0.03100
H 	H 	0.96528 0.64508 0.29250 0.05200
C 	C 	0.72764 0.09029 0.29034 -0.00400
H 	H 	0.81884 0.03345 0.28764 0.04400
C 	C 	0.79296 0.58410 0.30591 0.28200
O 	O 	0.87093 0.46978 0.30173 -0.36900
O 	O 	0.49827 0.28844 0.29994 -0.38900
C 	C 	0.82136 0.73583 0.29567 -0.01500
C 	C 	0.85640 0.67622 0.29897 -0.05400
H 	H 	0.76023 0.72708 0.30257 0.03900
H 	H 	0.72224 0.08144 0.30432 0.04200
C 	C 	0.89908 0.45190 0.31652 0.28600
Ni	Ni	0.56744 0.25227 0.31645 1.12000
O 	O 	0.66823 0.37478 0.31457 -0.71400
H 	H 	0.63387 0.40833 0.31285 0.16700
O 	O 	0.80595 0.56282 0.32213 -0.36400
O 	O 	0.64460 0.21506 0.33094 -0.38600
O 	O 	0.83727 0.40038 0.32791 -0.37100
H 	H 	0.42519 0.42826 0.32532 0.03600
C 	C 	0.04360 0.47345 0.33021 -0.04800
C 	C 	0.99435 0.51358 0.32290 -0.01300
C 	C 	0.01832 0.60349 0.32801 -0.08200
H 	H 	0.02958 0.40608 0.32587 0.04500
H 	H 	0.98462 0.63767 0.32208 0.07200
C 	C 	0.53717 0.37592 0.34143 0.28100
Ni	Ni	0.73641 0.43212 0.33478 1.11400
O 	O 	0.51856 0.29017 0.33784 -0.37400
C 	C 	0.42642 0.43343 0.33937 -0.01300
H 	H 	0.37433 0.52865 0.33948 0.03900
C 	C 	0.07443 0.64351 0.34264 0.01700
C 	C 	0.09976 0.51321 0.34486 0.00800
C 	C 	0.65954 0.23684 0.34732 0.30200
O 	O 	0.68371 0.32107 0.35229 -0.36500
O 	O 	0.62399 0.44528 0.34226 -0.37000
C 	C 	0.39997 0.49221 0.34734 -0.00700
C 	C 	0.46524 0.39056 0.34933 -0.06100
C 	C 	0.10947 0.59508 0.35190 -0.08100
H 	H 	0.08495 0.70894 0.34743 0.03400
H 	H 	0.13114 0.47766 0.35129 0.03500
H 	H 	0.69774 0.09694 0.34694 0.04700
C 	C 	0.41132 0.50736 0.36531 -0.06500
C 	C 	0.58817 0.00162 0.36373 0.00800
C 	C 	0.62987 0.16211 0.36010 -0.06500
C 	C 	0.64574 0.08857 0.35648 -0.01500
H 	H 	0.59750 0.94430 0.35994 0.03700
C 	C 	0.14736 0.62426 0.36963 0.28400
C 	C 	0.38740 0.57157 0.37367 0.29000
O 	O 	0.46481 0.82577 0.37927 -0.38100
O 	O 	0.29915 0.55125 0.37348 -0.39400
O 	O 	0.18455 0.71220 0.37422 -0.36800
C 	C 	0.43839 0.45518 0.37548 -0.00900
C 	C 	0.46296 0.39511 0.36752 -0.00800
H 	H 	0.48990 0.35983 0.37539 0.04100
C 	C 	0.51566 0.98801 0.37504 -0.08100
C 	C 	0.56469 0.15109 0.37292 -0.01500
H 	H 	0.55297 0.20766 0.37613 0.04700
C 	C 	0.44587 0.89407 0.38085 0.29300
O 	O 	0.36459 0.88055 0.38718 -0.37000
O 	O 	0.45352 0.64337 0.38261 -0.37400
O 	O 	0.13128 0.56033 0.38146 -0.37500
H 	H 	0.31613 0.69433 0.38121 0.15300
H 	H 	0.44243 0.46270 0.38949 0.04400
C 	C 	0.50782 0.06448 0.38037 0.00200
H 	H 	0.45541 0.05623 0.38979 0.04300
Ni	Ni	0.25401 0.75988 0.39790 1.11200
Ni	Ni	0.23506 0.55628 0.39511 1.12100
Ni	Ni	0.43832 0.73364 0.39859 1.12000
O 	O 	0.31001 0.68698 0.39392 -0.71700
O 	O 	0.31944 0.52349 0.40843 -0.40800
O 	O 	0.13251 0.65855 0.40946 -0.38800
O 	O 	0.45538 0.83759 0.41457 -0.39800
C 	C 	0.13679 0.60570 0.42154 0.34600
C 	C 	0.39548 0.82692 0.42681 0.34500
C 	C 	0.36953 0.57202 0.42173 0.34800
O 	O 	0.17569 0.55526 0.41825 -0.39600
O 	O 	0.30821 0.80037 0.42282 -0.38900
O 	O 	0.42547 0.66156 0.42032 -0.40300
C 	C 	0.37295 0.52638 0.43663 -0.17500
H 	H 	0.34074 0.45172 0.43646 0.08600
C 	C 	0.10225 0.60486 0.43810 -0.17300
H 	H 	0.05035 0.62612 0.43978 0.08400
C 	C 	0.41358 0.57471 0.45198 0.01500
H 	H 	0.51191 0.48458 0.45369 0.04300
H 	H 	0.43364 0.64704 0.45315 0.03800
C 	C 	0.36868 0.84444 0.45744 0.01400
C 	C 	0.42922 0.86236 0.44332 -0.17200
H 	H 	0.29441 0.79650 0.45591 0.03800
H 	H 	0.50409 0.90474 0.44516 0.08600
C 	C 	0.13867 0.58286 0.45264 0.01500
H 	H 	0.19962 0.57452 0.45111 0.03800
C 	C 	0.42448 0.52720 0.46713 0.00500
C 	C 	0.48058 0.48608 0.46598 -0.03800
C 	C 	0.08788 0.55582 0.46934 0.00600
H 	H 	0.05096 0.66339 0.46951 0.03800
C 	C 	0.49854 0.44921 0.48081 -0.03900
C 	C 	0.38468 0.52917 0.48311 -0.03900
H 	H 	0.54281 0.41856 0.47985 0.04200
H 	H 	0.34114 0.56065 0.48410 0.03900
C 	C 	0.40143 0.90025 0.47353 0.00500
C 	C 	0.34445 0.92937 0.48163 -0.03700
C 	C 	0.49030 0.92745 0.48043 -0.03700
H 	H 	0.27485 0.90682 0.47673 0.03800
H 	H 	0.53295 0.90106 0.47500 0.03900
C 	C 	0.08428 0.48234 0.47873 -0.03900
C 	C 	0.04426 0.60316 0.47607 -0.03900
H 	H 	0.12004 0.44716 0.47393 0.04000
C 	C 	0.46035 0.45305 0.49688 0.00600
C 	C 	0.40164 0.49121 0.49789 -0.03900
C 	C 	0.37859 0.99112 0.49555 -0.04200
C 	C 	0.46990 0.02400 0.50161 0.00900
C 	C 	0.52524 0.99072 0.49414 -0.04000
H 	H 	0.33504 0.01576 0.50129 0.03900
H 	H 	0.59618 0.01602 0.49853 0.04200
C 	C 	0.03193 0.45187 0.49398 -0.03700
C 	C 	0.98358 0.49527 0.50016 0.00500
C 	C 	0.99111 0.57211 0.49130 -0.03600
H 	H 	0.02695 0.39287 0.50078 0.04000
H 	H 	0.95378 0.60604 0.49590 0.04000
C 	C 	0.48283 0.41862 0.51273 0.01500
H 	H 	0.37108 0.49353 0.51022 0.04100
H 	H 	0.63142 0.50789 0.51018 0.08700
C 	C 	0.51039 0.10183 0.51403 0.01300
H 	H 	0.48773 0.15268 0.51330 0.03800
C 	C 	0.91558 0.45194 0.51438 0.01500
H 	H 	0.87233 0.37731 0.51443 0.04200
C 	C 	0.57571 0.45687 0.51827 -0.17200
H 	H 	0.42599 0.37045 0.52097 0.03700
C 	C 	0.57132 0.10761 0.52735 -0.17500
H 	H 	0.59142 0.05503 0.52847 0.08400
C 	C 	0.91195 0.50369 0.52843 -0.17000
H 	H 	0.95476 0.57833 0.52831 0.08400
C 	C 	0.60446 0.17882 0.53959 0.34800
C 	C 	0.85325 0.46029 0.54257 0.34600
C 	C 	0.59812 0.43545 0.53447 0.35000
O 	O 	0.57731 0.24019 0.53893 -0.40400
O 	O 	0.68410 0.48545 0.54025 -0.40300
O 	O 	0.53105 0.37607 0.54465 -0.40500
O 	O 	0.66278 0.18373 0.55170 -0.39100
O 	O 	0.81049 0.37030 0.54389 -0.38900
O 	O 	0.84765 0.51000 0.55525 -0.39000
Ni	Ni	0.74424 0.30231 0.56648 1.11300
Ni	Ni	0.54239 0.28578 0.56041 1.11900
Ni	Ni	0.72292 0.48607 0.56507 1.12100
O 	O 	0.66734 0.35595 0.56791 -0.71700
H 	H 	0.50081 0.99670 0.56860 0.04200
C 	C 	0.52813 0.43113 0.57882 0.28600
O 	O 	0.61502 0.49813 0.57525 -0.37700
O 	O 	0.50584 0.34308 0.57960 -0.38600
O 	O 	0.51945 0.17155 0.57481 -0.37400
H 	H 	0.65526 0.35283 0.58050 0.16000
C 	C 	0.45570 0.45690 0.58248 -0.06000
C 	C 	0.47293 0.54645 0.57875 -0.01300
H 	H 	0.53585 0.59489 0.57195 0.04400
H 	H 	0.42956 0.64673 0.58305 0.04400
C 	C 	0.51157 0.99131 0.58235 -0.00500
H 	H 	0.45535 0.84472 0.58130 0.04000
O 	O 	0.84361 0.40739 0.58223 -0.36700
C 	C 	0.82195 0.45255 0.59384 0.27700
C 	C 	0.57816 0.16042 0.58533 0.28900
O 	O 	0.78178 0.50096 0.58894 -0.37000
O 	O 	0.66656 0.22415 0.58719 -0.38400
C 	C 	0.36996 0.39326 0.58998 -0.01400
C 	C 	0.41125 0.57531 0.58463 -0.01100
C 	C 	0.33292 0.51557 0.59453 -0.07300
C 	C 	0.30799 0.42219 0.59564 -0.00500
H 	H 	0.35308 0.32269 0.59218 0.04500
C 	C 	0.54779 0.06959 0.59301 -0.06600
C 	C 	0.48860 0.90565 0.58943 -0.00900
C 	C 	0.30214 0.55444 0.60846 0.30500
O 	O 	0.27664 0.61579 0.60505 -0.36500
H 	H 	0.24553 0.37429 0.60264 0.04100
C 	C 	0.49740 0.89686 0.60738 -0.06200
C 	C 	0.42925 0.81150 0.61581 0.28100
Ni	Ni	0.23312 0.67303 0.62487 1.11400
O 	O 	0.34296 0.79685 0.61699 -0.37100
O 	O 	0.44864 0.74327 0.61799 -0.37400
C 	C 	0.89626 0.54758 0.62032 -0.01500
C 	C 	0.85840 0.46259 0.61171 -0.05900
C 	C 	0.86731 0.39092 0.61927 -0.01700
H 	H 	0.88626 0.60234 0.61518 0.04400
H 	H 	0.83366 0.32307 0.61338 0.03900
C 	C 	0.56800 0.06269 0.61047 -0.01300
C 	C 	0.54362 0.97668 0.61758 -0.00900
H 	H 	0.60046 0.12353 0.61863 0.04000
O 	O 	0.17240 0.73499 0.64050 -0.36200
O 	O 	0.32106 0.54367 0.62435 -0.38900
O 	O 	0.13401 0.54183 0.63181 -0.37900
C 	C 	0.92653 0.40900 0.63354 -0.00000
C 	C 	0.95536 0.56525 0.63459 -0.01100
H 	H 	0.55288 0.97114 0.63138 0.03600
C 	C 	0.07764 0.53182 0.64442 0.31800
Ni	Ni	0.40694 0.65335 0.63885 1.12000
O 	O 	0.30934 0.67888 0.64350 -0.71500
H 	H 	0.34562 0.74580 0.64558 0.16800
H 	H 	0.20538 0.32447 0.64803 0.04400
C 	C 	0.97982 0.49943 0.63981 -0.09100
H 	H 	0.94037 0.35574 0.63815 0.03300
H 	H 	0.99189 0.63408 0.63989 0.03700
C 	C 	0.19903 0.77300 0.65637 0.28100
C 	C 	0.30529 0.49422 0.66224 0.30600
Ni	Ni	0.25178 0.63497 0.66554 1.12100
O 	O 	0.25238 0.75507 0.66661 -0.38100
O 	O 	0.38865 0.56001 0.65746 -0.38400
O 	O 	0.11249 0.57737 0.65902 -0.37300
O 	O 	0.48433 0.75335 0.65564 -0.38800
C 	C 	0.22460 0.32497 0.66151 -0.00600
H 	H 	0.11444 0.18605 0.66605 0.04300
C 	C 	0.15000 0.81617 0.66454 -0.05100
H 	H 	0.26997 0.95322 0.66454 0.04300
C 	C 	0.46249 0.74856 0.67232 0.28500
O 	O 	0.37759 0.68701 0.67835 -0.37500
O 	O 	0.23467 0.50901 0.66279 -0.38500
C 	C 	0.60873 0.88704 0.68171 -0.01100
H 	H 	0.59563 0.92861 0.67258 0.03900
C 	C 	0.29233 0.40745 0.66923 -0.06900
C 	C 	0.17218 0.24695 0.67176 -0.00300
C 	C 	0.06173 0.75890 0.67188 -0.02500
C 	C 	0.20234 0.90778 0.67026 -0.01900
H 	H 	0.02138 0.68760 0.66791 0.05200
C 	C 	0.54027 0.79489 0.68467 -0.06000
C 	C 	0.69617 0.92424 0.68973 -0.00900
H 	H 	0.74842 0.99511 0.68714 0.04000
C 	C 	0.31964 0.40578 0.68642 -0.00800
C 	C 	0.19006 0.25021 0.68960 -0.07000
H 	H 	0.37405 0.46819 0.69237 0.03800
C 	C 	0.17266 0.93777 0.68465 0.01200
C 	C 	0.08918 0.87687 0.69318 -0.08000
C 	C 	0.03143 0.78909 0.68611 0.02600
H 	H 	0.21617 0.00712 0.68952 0.03500
H 	H 	0.96569 0.74204 0.69228 0.02600
C 	C 	0.12313 0.17779 0.70109 0.30400
C 	C 	0.80747 0.90933 0.70987 0.30000
C 	C 	0.06372 0.90381 0.70970 0.32100
O 	O 	0.04445 0.17559 0.70504 -0.36100
O 	O 	0.13642 0.10960 0.70524 -0.39400
O 	O 	0.87563 0.99085 0.70534 -0.37800
C 	C 	0.55830 0.74200 0.69652 -0.01100
C 	C 	0.71604 0.86975 0.70090 -0.06600
C 	C 	0.64583 0.77879 0.70447 -0.00700
H 	H 	0.50646 0.67058 0.69880 0.04400
C 	C 	0.26778 0.32753 0.69667 -0.01100
Ni	Ni	0.94949 0.09061 0.72396 1.10300
O 	O 	0.12988 0.95789 0.72066 -0.38300
O 	O 	0.97524 0.86441 0.71432 -0.39900
H 	H 	0.65950 0.73595 0.71316 0.04200
H 	H 	0.28422 0.32926 0.71034 0.03800
Ni	Ni	0.13710 0.07359 0.73015 1.11800
Ni	Ni	0.93392 0.89713 0.73646 1.11700
O 	O 	0.81317 0.87067 0.72435 -0.37600
O 	O 	0.00757 0.02780 0.73329 -0.70600
C 	C 	0.10761 0.21948 0.74736 0.31900
O 	O 	0.83925 0.02136 0.74168 -0.39300
O 	O 	0.03167 0.88762 0.75110 -0.38500
O 	O 	0.02528 0.19968 0.74086 -0.37600
O 	O 	0.16653 0.20208 0.73843 -0.38900
H 	H 	0.01219 0.04672 0.74550 0.14300
C 	C 	0.84658 0.98591 0.75667 0.34300
C 	C 	0.09507 0.95495 0.76098 0.33800
O 	O 	0.87730 0.92562 0.75729 -0.39400
O 	O 	0.15018 0.03816 0.75450 -0.40600
C 	C 	0.13828 0.27424 0.76224 -0.16200
C 	C 	0.11694 0.93440 0.77733 -0.16700
H 	H 	0.02949 0.78629 0.77550 0.04100
C 	C 	0.20385 0.27213 0.77348 0.00800
H 	H 	0.24862 0.24571 0.76906 0.03600
H 	H 	0.09890 0.30668 0.76668 0.08600
C 	C 	0.80742 0.00062 0.77146 -0.19500
H 	H 	0.76340 0.03168 0.77021 0.08700
C 	C 	0.08448 0.84315 0.78275 0.01900
H 	H 	0.26452 0.93687 0.79469 0.04100
H 	H 	0.16555 0.99096 0.78552 0.08600
C 	C 	0.20965 0.30225 0.79176 0.00800
H 	H 	0.35964 0.38917 0.79151 0.03900
C 	C 	0.82357 0.97576 0.78786 0.03000
H 	H 	0.63421 0.88500 0.78775 0.04400
H 	H 	0.88104 0.96243 0.78984 0.03000
C 	C 	0.12427 0.82234 0.79829 0.00000
C 	C 	0.06881 0.74212 0.80796 -0.01800
C 	C 	0.21908 0.87799 0.80262 -0.03300
H 	H 	0.99643 0.69711 0.80445 0.02300
C 	C 	0.12803 0.27060 0.80176 -0.04000
C 	C 	0.29617 0.36527 0.79901 -0.04000
H 	H 	0.06112 0.21959 0.79652 0.04200
C 	C 	0.76145 0.96414 0.80249 -0.00400
C 	C 	0.66424 0.91078 0.80045 -0.03300
C 	C 	0.10710 0.71857 0.82195 -0.04500
C 	C 	0.25653 0.85597 0.81690 -0.04100
H 	H 	0.32956 0.89980 0.82012 0.04100
C 	C 	0.13228 0.30630 0.81838 -0.03800
C 	C 	0.30051 0.40050 0.81573 -0.03800
H 	H 	0.36732 0.45173 0.82096 0.04100
C 	C 	0.60603 0.88594 0.81495 -0.04200
C 	C 	0.79934 0.99673 0.81899 -0.02600
H 	H 	0.53138 0.84184 0.81337 0.04200
H 	H 	0.87421 0.03854 0.82065 0.02600
C 	C 	0.20090 0.77658 0.82673 0.01100
H 	H 	0.06458 0.65416 0.82869 0.04300
H 	H 	0.31881 0.77437 0.84009 0.04000
C 	C 	0.21828 0.37201 0.82538 0.00600
H 	H 	0.06857 0.28346 0.82575 0.04000
C 	C 	0.64457 0.91376 0.83157 0.00800
C 	C 	0.74091 0.97238 0.83348 -0.04400
C 	C 	0.24460 0.75124 0.84098 0.01300
C 	C 	0.22086 0.41644 0.84215 0.01500
H 	H 	0.17231 0.44163 0.84428 0.04000
C 	C 	0.58628 0.87326 0.84699 0.01500
C 	C 	0.54626 0.77864 0.85017 -0.17500
H 	H 	0.77093 0.99511 0.84629 0.04300
H 	H 	0.54834 0.73391 0.84012 0.08700
C 	C 	0.50792 0.74134 0.86628 0.35000
C 	C 	0.19551 0.70684 0.85618 -0.17000
H 	H 	0.12037 0.67791 0.85678 0.08500
C 	C 	0.28069 0.42105 0.85552 -0.17100
H 	H 	0.32363 0.38916 0.85366 0.08400
H 	H 	0.58435 0.91889 0.85685 0.03700
C 	C 	0.28914 0.46861 0.87100 0.34600
C 	C 	0.24200 0.69802 0.87061 0.34600
O 	O 	0.19295 0.64318 0.88341 -0.40300
O 	O 	0.34812 0.47326 0.88286 -0.38700
O 	O 	0.23918 0.50913 0.87354 -0.39500
O 	O 	0.47877 0.65395 0.86925 -0.39100
O 	O 	0.51394 0.79594 0.87907 -0.39700
O 	O 	0.33266 0.75314 0.87219 -0.40200
Ni	Ni	0.44397 0.59790 0.89405 1.11400
Ni	Ni	0.23291 0.56454 0.89674 1.12000
Ni	Ni	0.40382 0.77019 0.89438 1.12100
O 	O 	0.36362 0.64485 0.89870 -0.72000
H 	H 	0.73983 0.82712 0.90190 0.04500
C 	C 	0.56690 0.78364 0.91345 0.28500
O 	O 	0.56198 0.71301 0.90444 -0.36700
O 	O 	0.30473 0.77568 0.90965 -0.37600
O 	O 	0.24417 0.46573 0.91051 -0.37000
H 	H 	0.36953 0.64962 0.91145 0.15600
C 	C 	0.74093 0.85903 0.91422 -0.01100
H 	H 	0.13352 0.78182 0.90776 0.04300
C 	C 	0.31080 0.48411 0.92218 0.27800
C 	C 	0.23721 0.70848 0.91921 0.28800
O 	O 	0.49596 0.80049 0.91422 -0.37700
O 	O 	0.21816 0.62164 0.91851 -0.39100
O 	O 	0.40027 0.52812 0.91758 -0.36600
C 	C 	0.82429 0.90383 0.92365 -0.01000
C 	C 	0.65796 0.85018 0.92121 -0.06000
H 	H 	0.88563 0.90332 0.91878 0.04300
C 	C 	0.17578 0.72993 0.92959 -0.06200
C 	C 	0.12723 0.76893 0.92163 -0.01000
C 	C 	0.07266 0.79398 0.93164 -0.00800
H 	H 	0.04006 0.82923 0.92552 0.03700
O 	O 	0.98348 0.97540 0.94743 -0.37400
C 	C 	0.82575 0.94107 0.94007 -0.06100
C 	C 	0.66218 0.89751 0.93654 -0.01200
H 	H 	0.59965 0.89406 0.94181 0.04500
C 	C 	0.28439 0.43787 0.93922 -0.06000
H 	H 	0.39983 0.41146 0.94030 0.04500
C 	C 	0.05310 0.84655 0.96042 0.30200
C 	C 	0.89730 0.95268 0.95291 0.28400
Ni	Ni	0.10485 0.03936 0.96181 1.11800
O 	O 	0.12258 0.92999 0.96266 -0.38500
C 	C 	0.74621 0.94419 0.94577 -0.00900
H 	H 	0.74742 0.97613 0.95810 0.04100
C 	C 	0.33569 0.39983 0.94640 -0.00800
C 	C 	0.20321 0.42462 0.94767 -0.01200
H 	H 	0.16507 0.45700 0.94272 0.04100
C 	C 	0.16299 0.70895 0.94737 -0.01100
C 	C 	0.06888 0.78318 0.94975 -0.06900
C 	C 	0.10971 0.73561 0.95743 -0.00500
H 	H 	0.19748 0.67565 0.95353 0.04000
C 	C 	0.15398 0.22264 0.97438 0.28600
O 	O 	0.10206 0.15763 0.96311 -0.38600
O 	O 	0.96793 0.82483 0.96522 -0.37800
O 	O 	0.24121 0.11498 0.97046 -0.37500
O 	O 	0.86725 0.91869 0.96866 -0.38500
C 	C 	0.16793 0.36482 0.96190 -0.00900
C 	C 	0.21196 0.31581 0.96741 -0.06400
C 	C 	0.29957 0.33893 0.96039 -0.01400
H 	H 	0.10137 0.34939 0.96746 0.03700
H 	H 	0.33369 0.30073 0.96415 0.04500
H 	H 	0.10627 0.72575 0.97139 0.03900
C 	C 	0.27033 0.09718 0.98514 0.30100
Ni	Ni	0.94148 0.88865 0.98511 1.12300
O 	O 	0.17103 0.20276 0.99042 -0.36800
O 	O 	0.03847 0.01296 0.98316 -0.71800
H 	H 	0.00151 0.04381 0.98140 0.16400
C 	C 	0.36517 0.15984 0.99156 -0.07300
H 	H 	0.40581 0.05558 0.99289 0.03800
H 	H 	0.34869 0.28007 0.99268 0.04400
H 	H 	0.78801 0.05481 0.99363 0.03500
O 	O 	0.02251 0.85745 0.99981 -0.38500
O 	O 	0.20917 0.04451 0.99650 -0.38000
C 	C 	0.41711 0.12066 0.99805 -0.00500
C 	C 	0.38549 0.24704 0.99777 -0.01700
