data_crystal

_cell_length_a 26.13252
_cell_length_b 26.56106
_cell_length_c 35.03991
_cell_angle_alpha 95.49186
_cell_angle_beta  95.48901
_cell_angle_gamma 125.83951

_symmetry_space_group_name_	'P 1'
_symmetry_space_group_name_H-M	'P 1'

loop_
_symmetry_equiv_pos_as_xyz
  x,y,z

loop_
_atom_site_label
_atom_site_type_symbol
_atom_site_fract_x
_atom_site_fract_y
_atom_site_fract_z
_atom_site_charge
C 	C 	0.95239 0.02078 0.99615 0.24400
C 	C 	0.91881 0.95615 0.99700 -0.12100
C 	C 	0.94804 0.92633 0.99057 0.24500
C 	C 	0.01096 0.96139 0.98340 -0.12500
C 	C 	0.04551 0.02641 0.98415 0.24400
C 	C 	0.01607 0.05605 0.99016 -0.12900
H 	H 	0.87006 0.92916 0.00244 0.16600
H 	H 	0.03357 0.93841 0.97818 0.16100
H 	H 	0.04262 0.10631 0.99037 0.16000
C 	C 	0.94426 0.00724 0.45577 0.23900
C 	C 	0.90905 0.94362 0.45997 -0.12000
C 	C 	0.94064 0.91602 0.46626 0.24600
C 	C 	0.00738 0.95231 0.46909 -0.12400
C 	C 	0.04243 0.01518 0.46372 0.23800
C 	C 	0.01076 0.04257 0.45703 -0.12700
H 	H 	0.85746 0.91577 0.45818 0.16100
H 	H 	0.03180 0.93116 0.47456 0.16000
H 	H 	0.03777 0.09125 0.45296 0.16500
Cu	Cu	0.62289 0.23344 0.00225 0.94200
Cu	Cu	0.68306 0.23447 0.92389 0.90700
Cu	Cu	0.67377 0.33684 0.95295 0.91400
Cu	Cu	0.62731 0.35326 0.02464 0.93100
C 	C 	0.63274 0.27985 0.08237 0.33900
O 	O 	0.52903 0.19884 0.99626 -0.30000
C 	C 	0.66111 0.29487 0.86862 0.33900
O 	O 	0.67959 0.33229 0.00716 -0.63800
O 	O 	0.62345 0.24280 0.94679 -0.62900
O 	O 	0.65901 0.18497 0.00361 -0.31000
O 	O 	0.73689 0.24905 0.97046 -0.38300
O 	O 	0.60776 0.30786 0.06972 -0.30300
O 	O 	0.72652 0.42821 0.96328 -0.31100
C 	C 	0.71728 0.46232 0.98750 0.39000
C 	C 	0.50870 0.22857 0.98054 0.38700
O 	O 	0.55066 0.28677 0.97594 -0.34100
O 	O 	0.66854 0.43543 0.00628 -0.30900
O 	O 	0.63634 0.24128 0.05797 -0.31700
C 	C 	0.71478 0.20744 0.99350 0.39800
O 	O 	0.68181 0.34211 0.89764 -0.30600
O 	O 	0.65101 0.24194 0.87521 -0.36900
H 	H 	0.72402 0.35775 0.02231 0.20700
H 	H 	0.58059 0.21932 0.92984 0.21200
Cu	Cu	0.74740 0.34919 0.45249 0.94200
Cu	Cu	0.75031 0.29188 0.53096 0.91200
Cu	Cu	0.64666 0.30300 0.50507 0.91300
Cu	Cu	0.62604 0.34698 0.43341 0.93200
C 	C 	0.69520 0.33773 0.37307 0.34300
O 	O 	0.78450 0.44234 0.45788 -0.30600
C 	C 	0.69307 0.31396 0.58873 0.34100
O 	O 	0.64747 0.29529 0.45028 -0.63600
O 	O 	0.74177 0.35086 0.50861 -0.62800
O 	O 	0.79406 0.31065 0.44928 -0.30100
O 	O 	0.73050 0.23660 0.48429 -0.38000
O 	O 	0.66841 0.36352 0.38677 -0.33100
O 	O 	0.55378 0.25236 0.49713 -0.31600
C 	C 	0.51833 0.26062 0.47294 0.38800
C 	C 	0.75538 0.46381 0.47348 0.38800
O 	O 	0.69757 0.42355 0.48043 -0.34500
O 	O 	0.54502 0.30891 0.45448 -0.31000
O 	O 	0.73536 0.33412 0.39652 -0.29700
C 	C 	0.77068 0.25599 0.45995 0.40100
O 	O 	0.64498 0.29781 0.56106 -0.33100
O 	O 	0.74659 0.32548 0.58019 -0.34000
H 	H 	0.62030 0.25121 0.43561 0.21500
H 	H 	0.76713 0.39351 0.52515 0.21400
C 	C 	0.69933 0.29030 0.69333 -0.12600
C 	C 	0.66819 0.31447 0.70791 0.02700
C 	C 	0.64522 0.33867 0.68338 0.31700
C 	C 	0.65336 0.33852 0.64442 -0.04000
C 	C 	0.68475 0.31446 0.62982 -0.11500
C 	C 	0.70746 0.29005 0.65450 0.38700
C 	C 	0.65937 0.31375 0.74885 0.03000
F 	F 	0.61492 0.36211 0.69721 -0.36700
H 	H 	0.63566 0.35744 0.62571 0.13300
F 	F 	0.73592 0.26459 0.64059 -0.40300
H 	H 	0.71685 0.27127 0.71209 0.14800
C 	C 	0.60897 0.25808 0.75928 0.31200
C 	C 	0.60752 0.25337 0.79863 -0.04700
C 	C 	0.65648 0.30418 0.82792 -0.11600
C 	C 	0.70476 0.36132 0.81746 0.38700
C 	C 	0.70606 0.36593 0.77806 -0.12500
F 	F 	0.56286 0.20766 0.73123 -0.37200
H 	H 	0.56944 0.20953 0.80635 0.12700
F 	F 	0.75240 0.41109 0.84531 -0.37600
H 	H 	0.74491 0.40918 0.77020 0.15600
C 	C 	0.67366 0.26154 0.27015 -0.12100
C 	C 	0.67910 0.30623 0.24900 0.02900
C 	C 	0.69399 0.36296 0.26892 0.31400
C 	C 	0.70107 0.37391 0.30955 -0.04300
C 	C 	0.69346 0.32834 0.33070 -0.11200
C 	C 	0.68097 0.27256 0.31090 0.38600
C 	C 	0.66459 0.29176 0.20596 0.02700
F 	F 	0.70037 0.40696 0.24879 -0.37100
H 	H 	0.71183 0.41757 0.32459 0.13900
F 	F 	0.67368 0.22814 0.33095 -0.39200
H 	H 	0.66235 0.21771 0.25497 0.15700
C 	C 	0.71194 0.30219 0.18478 0.31600
C 	C 	0.70046 0.29578 0.14411 -0.04500
C 	C 	0.64189 0.27947 0.12444 -0.11100
C 	C 	0.59352 0.26629 0.14552 0.39200
C 	C 	0.60492 0.27244 0.18609 -0.12200
F 	F 	0.76967 0.32036 0.20369 -0.37000
H 	H 	0.73779 0.30539 0.12804 0.12600
F 	F 	0.53560 0.24782 0.12671 -0.38000
H 	H 	0.56791 0.26361 0.20222 0.15600
C 	C 	0.86978 0.76556 0.50593 0.25400
C 	C 	0.85393 0.72259 0.47211 -0.00300
C 	C 	0.86127 0.74212 0.43590 0.25400
C 	C 	0.88590 0.80458 0.43367 0.30000
C 	C 	0.90377 0.84814 0.46765 -0.15600
C 	C 	0.89470 0.82817 0.50371 0.29900
C 	C 	0.82847 0.65675 0.47441 0.00900
F 	F 	0.84549 0.70075 0.40298 -0.31600
F 	F 	0.91178 0.86992 0.53673 -0.33200
C 	C 	0.76267 0.60794 0.46191 0.23900
C 	C 	0.73885 0.54511 0.46171 0.32000
C 	C 	0.78062 0.53043 0.47460 -0.20100
C 	C 	0.84645 0.57946 0.48762 0.32300
C 	C 	0.87029 0.64238 0.48746 0.24000
F 	F 	0.72190 0.62142 0.44934 -0.31600
F 	F 	0.88720 0.56620 0.50066 -0.35100
F 	F 	0.67548 0.49826 0.44785 -0.37500
F 	F 	0.93408 0.68934 0.49957 -0.31600
F 	F 	0.86163 0.74679 0.54096 -0.31600
F 	F 	0.89449 0.82344 0.39867 -0.32900
C 	C 	0.77388 0.11717 0.43335 0.24000
C 	C 	0.84004 0.14636 0.44234 0.01000
C 	C 	0.88370 0.21259 0.45191 0.24000
C 	C 	0.86118 0.24917 0.45482 0.32100
C 	C 	0.79474 0.21968 0.44831 -0.19900
C 	C 	0.75130 0.15365 0.43623 0.32600
C 	C 	0.86325 0.10748 0.44499 -0.00300
F 	F 	0.94787 0.24132 0.45989 -0.31700
F 	F 	0.68708 0.12473 0.42844 -0.34800
C 	C 	0.88142 0.09059 0.41259 0.25600
C 	C 	0.90566 0.05573 0.41565 0.29700
C 	C 	0.91200 0.03764 0.45119 -0.15300
C 	C 	0.89238 0.05331 0.48330 0.29800
C 	C 	0.86807 0.08806 0.48020 0.25200
F 	F 	0.87625 0.10854 0.37831 -0.31200
F 	F 	0.89852 0.03633 0.51781 -0.33600
F 	F 	0.92382 0.04024 0.38430 -0.33500
F 	F 	0.85011 0.10375 0.51159 -0.32500
F 	F 	0.73138 0.05326 0.42308 -0.31700
F 	F 	0.90379 0.31292 0.46615 -0.35000
C 	C 	0.35476 0.16009 0.50172 0.24100
C 	C 	0.31484 0.15304 0.46854 0.00700
C 	C 	0.34147 0.17933 0.43642 0.24200
C 	C 	0.40733 0.21202 0.43729 0.32000
C 	C 	0.44792 0.22123 0.47103 -0.18900
C 	C 	0.42109 0.19483 0.50328 0.32200
C 	C 	0.24504 0.11786 0.46730 -0.00500
F 	F 	0.30341 0.17332 0.40434 -0.31000
F 	F 	0.45931 0.20409 0.53643 -0.34700
C 	C 	0.22213 0.14135 0.49274 0.25500
C 	C 	0.15604 0.10794 0.49159 0.29600
C 	C 	0.11219 0.05177 0.46415 -0.15100
C 	C 	0.13516 0.02920 0.43805 0.29000
C 	C 	0.20124 0.06140 0.44015 0.25600
F 	F 	0.26398 0.19659 0.51853 -0.31200
F 	F 	0.09331 0.97599 0.41066 -0.32800
F 	F 	0.13459 0.12963 0.51746 -0.34000
F 	F 	0.22283 0.03777 0.41582 -0.31400
F 	F 	0.32925 0.13356 0.53258 -0.31300
F 	F 	0.43171 0.23445 0.40522 -0.35500
C 	C 	0.79600 0.63541 0.02368 0.24300
C 	C 	0.82040 0.66150 0.99104 0.00700
C 	C 	0.81408 0.62274 0.95789 0.24300
C 	C 	0.78129 0.55787 0.95675 0.32100
C 	C 	0.75619 0.53145 0.98936 -0.18600
C 	C 	0.76534 0.57107 0.02319 0.32000
C 	C 	0.85227 0.72940 0.99150 -0.00300
F 	F 	0.83917 0.64790 0.92659 -0.31200
F 	F 	0.74454 0.54717 0.05565 -0.35100
C 	C 	0.91007 0.77510 0.01771 0.25400
C 	C 	0.93979 0.83937 0.01854 0.29700
C 	C 	0.91337 0.85859 0.99210 -0.15300
C 	C 	0.85557 0.81286 0.96585 0.29800
C 	C 	0.82464 0.74857 0.96598 0.25400
F 	F 	0.93756 0.75710 0.04220 -0.31000
F 	F 	0.83006 0.83074 0.93975 -0.33800
F 	F 	0.99453 0.88311 0.04489 -0.33200
F 	F 	0.76793 0.70481 0.94122 -0.31200
F 	F 	0.80159 0.67243 0.05581 -0.30800
F 	F 	0.77236 0.52055 0.92359 -0.33400
C 	C 	0.74982 0.08944 0.00115 0.23600
C 	C 	0.81724 0.12965 0.01015 0.01000
C 	C 	0.85022 0.19537 0.01856 0.23700
C 	C 	0.81626 0.22086 0.01563 0.32300
C 	C 	0.74900 0.18076 0.00410 -0.20900
C 	C 	0.71576 0.11484 0.99815 0.32300
C 	C 	0.85330 0.10326 0.00694 -0.00500
F 	F 	0.91537 0.23456 0.02822 -0.31800
F 	F 	0.65075 0.07545 0.98732 -0.35200
C 	C 	0.86770 0.09278 0.97078 0.25200
C 	C 	0.90088 0.06669 0.96740 0.30000
C 	C 	0.92005 0.05098 0.00019 -0.15700
C 	C 	0.90627 0.06210 0.03648 0.29800
C 	C 	0.87296 0.08814 0.03983 0.25600
F 	F 	0.84907 0.10753 0.93887 -0.32700
F 	F 	0.92504 0.04750 0.06841 -0.33600
F 	F 	0.91362 0.05574 0.93215 -0.33700
F 	F 	0.85948 0.09841 0.07494 -0.31400
F 	F 	0.71750 0.02574 0.99374 -0.31700
F 	F 	0.84876 0.28459 0.02305 -0.35600
C 	C 	0.22429 0.11372 0.01197 0.25100
C 	C 	0.24232 0.12028 0.97525 -0.00200
C 	C 	0.19623 0.10002 0.94171 0.25300
C 	C 	0.13215 0.07183 0.94478 0.29900
C 	C 	0.11390 0.06394 0.98142 -0.15700
C 	C 	0.16036 0.08582 0.01504 0.30000
C 	C 	0.30956 0.14866 0.97210 0.00900
F 	F 	0.21348 0.10711 0.90615 -0.31500
F 	F 	0.14308 0.07839 0.05058 -0.33100
C 	C 	0.32766 0.10983 0.96083 0.24100
C 	C 	0.39259 0.13616 0.96221 0.32400
C 	C 	0.43995 0.20151 0.97520 -0.19600
C 	C 	0.42139 0.24052 0.98524 0.32300
C 	C 	0.35649 0.21417 0.98341 0.24200
F 	F 	0.28240 0.04642 0.94944 -0.31700
F 	F 	0.46642 0.30361 0.99839 -0.36200
F 	F 	0.40951 0.09819 0.95112 -0.35300
F 	F 	0.33924 0.25209 0.99384 -0.31400
F 	F 	0.26865 0.13353 0.04458 -0.31500
F 	F 	0.08749 0.05086 0.91211 -0.33500
