data_crystal

_cell_length_a 18.46670
_cell_length_b 18.79523
_cell_length_c 34.95623
_cell_angle_alpha 95.42418
_cell_angle_beta  95.42460
_cell_angle_gamma 126.41766

_symmetry_space_group_name_	'P 1'
_symmetry_space_group_name_H-M	'P 1'

loop_
_symmetry_equiv_pos_as_xyz
  x,y,z

loop_
_atom_site_label
_atom_site_type_symbol
_atom_site_fract_x
_atom_site_fract_y
_atom_site_fract_z
_atom_site_charge
C 	C 	0.86271 0.95742 0.95369 0.16400
N 	N 	0.81033 0.86625 0.95105 -0.12900
C 	C 	0.85150 0.82607 0.95595 0.14900
N 	N 	0.94401 0.87640 0.96269 -0.13400
C 	C 	0.99605 0.96673 0.96545 0.15300
N 	N 	0.95555 0.00735 0.96163 -0.13000
C 	C 	0.01060 0.08925 0.51429 0.16700
N 	N 	0.95376 0.99936 0.51378 -0.13200
C 	C 	0.98751 0.95205 0.51394 0.14100
N 	N 	0.07787 0.99439 0.51463 -0.11100
C 	C 	0.13494 0.08405 0.51511 0.14700
N 	N 	0.10125 0.13160 0.51459 -0.12700
Cu	Cu	0.70380 0.29974 0.94973 0.92900
Cu	Cu	0.72771 0.25640 0.03708 0.87800
Cu	Cu	0.57238 0.25782 0.00637 0.90100
Cu	Cu	0.52584 0.28407 0.92640 0.90600
C 	C 	0.62247 0.25884 0.86830 0.28600
O 	O 	0.75053 0.42800 0.94527 -0.33900
C 	C 	0.65554 0.30988 0.09109 0.27900
O 	O 	0.56347 0.22395 0.95144 -0.63600
O 	O 	0.70604 0.32408 0.00625 -0.64000
O 	O 	0.76862 0.24382 0.95248 -0.36200
O 	O 	0.69014 0.15956 0.99687 -0.40900
O 	O 	0.58072 0.29347 0.87864 -0.35800
O 	O 	0.44103 0.18703 0.00281 -0.36900
C 	C 	0.38381 0.17834 0.97360 0.31200
C 	C 	0.70944 0.46104 0.95836 0.29600
O 	O 	0.62847 0.40702 0.96736 -0.38300
O 	O 	0.41290 0.23389 0.94854 -0.37000
O 	O 	0.67832 0.25755 0.89439 -0.35000
C 	C 	0.73655 0.17227 0.96868 0.29500
O 	O 	0.58113 0.27179 0.06392 -0.37200
O 	O 	0.73021 0.32327 0.08244 -0.40600
H 	H 	0.52505 0.15819 0.94169 0.18700
H 	H 	0.74311 0.38871 0.01815 0.17700
Cu	Cu	0.67815 0.25656 0.51199 0.93000
Cu	Cu	0.74548 0.26220 0.42812 0.87600
Cu	Cu	0.72153 0.39670 0.46108 0.90300
Cu	Cu	0.67604 0.41941 0.54080 0.90200
C 	C 	0.67912 0.30186 0.59256 0.27900
O 	O 	0.54335 0.19403 0.51218 -0.36100
C 	C 	0.68685 0.33255 0.37554 0.28100
O 	O 	0.74724 0.39589 0.51555 -0.63500
O 	O 	0.66215 0.26530 0.45629 -0.63900
O 	O 	0.74269 0.20141 0.50935 -0.35200
O 	O 	0.83680 0.29620 0.47142 -0.43100
O 	O 	0.68611 0.37536 0.58951 -0.37000
O 	O 	0.78569 0.52544 0.46977 -0.36000
C 	C 	0.77785 0.57018 0.49842 0.30800
C 	C 	0.50496 0.23210 0.50289 0.30200
O 	O 	0.55575 0.31548 0.49777 -0.37100
O 	O 	0.71298 0.52811 0.51920 -0.37400
O 	O 	0.70783 0.27084 0.56750 -0.34100
C 	C 	0.81926 0.24091 0.49565 0.30500
O 	O 	0.71775 0.40038 0.40448 -0.36200
O 	O 	0.68207 0.26191 0.38174 -0.40400
H 	H 	0.81331 0.43585 0.52732 0.17500
H 	H 	0.59783 0.22644 0.44209 0.18900
C 	C 	0.79080 0.28842 0.76182 -0.03400
C 	C 	0.79847 0.29359 0.72251 -0.03500
C 	C 	0.72466 0.27236 0.69502 0.02800
C 	C 	0.64128 0.24219 0.70686 -0.00500
C 	C 	0.63340 0.23649 0.74638 -0.00200
C 	C 	0.70910 0.26161 0.77411 0.02600
C 	C 	0.55110 0.20941 0.75844 0.02700
C 	C 	0.47623 0.18513 0.73069 -0.03200
C 	C 	0.48428 0.19145 0.69152 -0.03600
C 	C 	0.56717 0.22175 0.67957 0.02900
C 	C 	0.57824 0.23582 0.64116 -0.02600
C 	C 	0.66247 0.26976 0.62980 -0.04000
C 	C 	0.73450 0.28497 0.65630 -0.02100
C 	C 	0.70348 0.26334 0.81398 -0.02000
C 	C 	0.62298 0.24086 0.82627 -0.04000
C 	C 	0.54593 0.21066 0.79827 -0.02200
H 	H 	0.84901 0.30680 0.78280 0.05400
H 	H 	0.86247 0.31586 0.71364 0.05600
H 	H 	0.41231 0.16315 0.73958 0.05800
H 	H 	0.42649 0.17428 0.67063 0.06300
H 	H 	0.52282 0.22411 0.62059 0.04800
H 	H 	0.79939 0.31089 0.64737 0.06700
H 	H 	0.76277 0.28593 0.83549 0.06300
H 	H 	0.48318 0.19131 0.80768 0.05400
C 	C 	0.50438 0.19812 0.24219 -0.03700
C 	C 	0.49998 0.19515 0.20181 -0.03700
C 	C 	0.57415 0.26464 0.18725 0.02300
C 	C 	0.65184 0.33942 0.21353 -0.00500
C 	C 	0.65580 0.34293 0.25421 -0.00500
C 	C 	0.58276 0.27091 0.26854 0.02400
C 	C 	0.73451 0.41655 0.28050 0.02400
C 	C 	0.80754 0.48734 0.26595 -0.03800
C 	C 	0.80402 0.48337 0.22554 -0.03700
C 	C 	0.72716 0.40885 0.19916 0.02200
C 	C 	0.72610 0.40124 0.15869 -0.02400
C 	C 	0.65028 0.32498 0.13258 -0.05200
C 	C 	0.57321 0.25840 0.14683 -0.02500
C 	C 	0.59070 0.27073 0.30889 -0.02300
C 	C 	0.67084 0.34198 0.33492 -0.04700
C 	C 	0.74101 0.41639 0.32086 -0.02400
H 	H 	0.44740 0.14302 0.25293 0.05100
H 	H 	0.43958 0.13785 0.18187 0.05100
H 	H 	0.86792 0.54464 0.28589 0.05000
H 	H 	0.86175 0.53763 0.21480 0.04800
H 	H 	0.78494 0.45324 0.14759 0.04900
H 	H 	0.51454 0.19980 0.12663 0.05400
H 	H 	0.53616 0.21391 0.31991 0.05400
H 	H 	0.80256 0.47160 0.34108 0.05400
C 	C 	0.86796 0.79881 0.47600 -0.05700
C 	C 	0.92604 0.85461 0.51159 -0.01100
C 	C 	0.93392 0.81657 0.54305 0.07400
C 	C 	0.88588 0.72335 0.53816 -0.01300
C 	C 	0.82980 0.66773 0.50225 -0.08600
C 	C 	0.81959 0.70549 0.47116 0.11800
N 	N 	0.75959 0.64924 0.43480 -0.02200
H 	H 	0.86175 0.82808 0.45180 0.08000
H 	H 	0.89195 0.69406 0.56238 0.05400
N 	N 	0.99107 0.87262 0.57996 -0.02400
O 	O 	0.67205 0.59078 0.43364 -0.08300
O 	O 	0.79153 0.66100 0.40248 -0.09100
O 	O 	0.97986 0.92853 0.59775 -0.08400
O 	O 	0.05046 0.86382 0.59690 -0.06600
C 	C 	0.93609 0.15111 0.54244 -0.05200
C 	C 	0.97252 0.13881 0.51131 -0.02700
C 	C 	0.96557 0.16749 0.47629 0.06300
C 	C 	0.91888 0.20458 0.47214 -0.01100
C 	C 	0.87843 0.21298 0.50258 -0.09300
C 	C 	0.89064 0.18965 0.53856 0.11400
N 	N 	0.85992 0.20788 0.57157 -0.02000
H 	H 	0.94326 0.13096 0.56974 0.07700
H 	H 	0.91099 0.22354 0.44460 0.04300
N 	N 	0.00332 0.15639 0.44439 -0.00700
O 	O 	0.80567 0.14344 0.58962 -0.09200
O 	O 	0.89162 0.29005 0.58535 -0.09900
O 	O 	0.97012 0.07605 0.42666 -0.11000
O 	O 	0.06610 0.22636 0.43120 -0.08900
C 	C 	0.26683 0.16704 0.48142 -0.05600
C 	C 	0.23182 0.12799 0.51373 -0.01000
C 	C 	0.28516 0.11846 0.54126 0.07200
C 	C 	0.37173 0.14599 0.53560 -0.01400
C 	C 	0.40731 0.18613 0.50358 -0.09000
C 	C 	0.35359 0.19486 0.47584 0.11300
N 	N 	0.38606 0.22986 0.44147 -0.02200
H 	H 	0.22501 0.17224 0.45969 0.08700
H 	H 	0.41304 0.13984 0.55713 0.05900
N 	N 	0.25222 0.08239 0.57540 -0.01800
O 	O 	0.41247 0.19406 0.41857 -0.10700
O 	O 	0.38387 0.29380 0.43179 -0.08700
O 	O 	0.25630 0.01960 0.58519 -0.08800
O 	O 	0.22443 0.11682 0.59823 -0.08400
C 	C 	0.78168 0.67246 0.92068 -0.05400
C 	C 	0.79693 0.72852 0.95495 -0.01400
C 	C 	0.78247 0.69578 0.99030 0.07600
C 	C 	0.75836 0.60983 0.99146 -0.01000
C 	C 	0.74726 0.55543 0.95756 -0.08600
C 	C 	0.75748 0.58651 0.92183 0.11000
N 	N 	0.74161 0.53035 0.88649 -0.02400
H 	H 	0.79292 0.69726 0.89342 0.07600
H 	H 	0.74712 0.58495 0.01871 0.05500
N 	N 	0.79491 0.75081 0.02540 -0.01900
O 	O 	0.66687 0.49177 0.86081 -0.09700
O 	O 	0.80512 0.52394 0.87852 -0.08800
O 	O 	0.75098 0.78503 0.02606 -0.08900
O 	O 	0.84655 0.76297 0.05723 -0.09400
C 	C 	0.83451 0.13819 0.94006 -0.02300
C 	C 	0.75721 0.10865 0.95688 -0.07600
C 	C 	0.70471 0.02086 0.96563 0.09000
C 	C 	0.73780 0.97016 0.96320 -0.02900
C 	C 	0.81922 0.00297 0.94933 -0.03300
C 	C 	0.86385 0.08457 0.93498 0.08200
N 	N 	0.93723 0.11192 0.91430 -0.02500
H 	H 	0.87240 0.20305 0.93111 0.07000
H 	H 	0.70029 0.90557 0.97240 0.08100
N 	N 	0.61629 0.98160 0.97541 -0.01400
O 	O 	0.92475 0.05852 0.88352 -0.09300
O 	O 	0.01478 0.19215 0.92491 -0.07500
O 	O 	0.55271 0.97350 0.95122 -0.08900
O 	O 	0.59712 0.94754 0.00699 -0.09800
C 	C 	0.13045 0.99814 0.93954 -0.02900
C 	C 	0.09547 0.01905 0.96874 -0.01500
C 	C 	0.15582 0.08864 0.00113 0.08000
C 	C 	0.25059 0.13807 0.00340 -0.01500
C 	C 	0.28546 0.11837 0.97370 -0.07400
C 	C 	0.22505 0.04717 0.94191 0.09900
N 	N 	0.25971 0.02462 0.91193 -0.02500
H 	H 	0.08401 0.94373 0.91489 0.08100
H 	H 	0.29708 0.19275 0.02794 0.06900
N 	N 	0.12113 0.10893 0.03183 -0.01800
O 	O 	0.31477 0.00458 0.92100 -0.10800
O 	O 	0.23173 0.01865 0.87537 -0.09700
O 	O 	0.06909 0.04775 0.05168 -0.08200
O 	O 	0.14653 0.19023 0.04164 -0.08700
