data_crystal

_cell_length_a 33.63050
_cell_length_b 33.98871
_cell_length_c 35.07276
_cell_angle_alpha 95.52664
_cell_angle_beta  95.52542
_cell_angle_gamma 125.43415

_symmetry_space_group_name_	'P 1'
_symmetry_space_group_name_H-M	'P 1'

loop_
_symmetry_equiv_pos_as_xyz
  x,y,z

loop_
_atom_site_label
_atom_site_type_symbol
_atom_site_fract_x
_atom_site_fract_y
_atom_site_fract_z
_atom_site_charge
C 	C 	0.98749 0.02575 0.99251 0.11800
N 	N 	0.95927 0.97584 0.98454 -0.13800
C 	C 	0.98118 0.95271 0.98121 0.12200
N 	N 	0.03139 0.97962 0.98591 -0.13800
C 	C 	0.05975 0.02946 0.99372 0.11800
N 	N 	0.03777 0.05254 0.99702 -0.13900
C 	C 	0.94695 0.00399 0.45956 0.11700
N 	N 	0.92125 0.95666 0.46504 -0.13900
C 	C 	0.94455 0.93488 0.46871 0.12000
N 	N 	0.99353 0.96054 0.46688 -0.13900
C 	C 	0.01940 0.00784 0.46164 0.11700
N 	N 	0.99600 0.02943 0.45785 -0.14000
Cu	Cu	0.66667 0.26860 0.99709 0.92900
Cu	Cu	0.69221 0.25774 0.91061 0.87800
Cu	Cu	0.68405 0.33752 0.94015 0.89900
Cu	Cu	0.67350 0.36437 0.02119 0.89900
C 	C 	0.67948 0.30571 0.07739 0.31500
O 	O 	0.59604 0.24060 0.00276 -0.36400
C 	C 	0.66427 0.29810 0.85625 0.30700
O 	O 	0.70617 0.34385 0.99427 -0.63700
O 	O 	0.65136 0.26618 0.94063 -0.63900
O 	O 	0.69635 0.23213 0.99492 -0.36800
O 	O 	0.74366 0.27503 0.95173 -0.43000
O 	O 	0.68414 0.34608 0.07176 -0.36700
O 	O 	0.72093 0.40766 0.94251 -0.37600
C 	C 	0.72069 0.43794 0.96893 0.29200
C 	C 	0.57514 0.26164 0.99236 0.29400
O 	O 	0.60237 0.30604 0.98449 -0.38700
O 	O 	0.69270 0.42171 0.99582 -0.38700
O 	O 	0.68988 0.28314 0.05201 -0.36500
C 	C 	0.73440 0.24675 0.97760 0.29000
O 	O 	0.66744 0.33028 0.88329 -0.37300
O 	O 	0.65723 0.25774 0.86447 -0.40000
H 	H 	0.74274 0.36482 0.00266 0.16900
H 	H 	0.61558 0.24489 0.92877 0.17600
Cu	Cu	0.71951 0.33820 0.44326 0.93000
Cu	Cu	0.71267 0.29440 0.52328 0.87200
Cu	Cu	0.63834 0.30818 0.49115 0.89900
Cu	Cu	0.62561 0.33400 0.41453 0.89700
C 	C 	0.68560 0.32557 0.36166 0.31200
O 	O 	0.74599 0.40954 0.44531 -0.36000
C 	C 	0.66547 0.31631 0.57598 0.31000
O 	O 	0.64168 0.29593 0.43748 -0.64000
O 	O 	0.71149 0.34209 0.49819 -0.64100
O 	O 	0.75709 0.30964 0.44650 -0.36500
O 	O 	0.70284 0.25135 0.47860 -0.43300
O 	O 	0.66395 0.34635 0.37144 -0.38200
O 	O 	0.56671 0.27051 0.48174 -0.37300
C 	C 	0.53887 0.27281 0.45406 0.29300
C 	C 	0.72271 0.42661 0.45931 0.28200
O 	O 	0.67576 0.39583 0.46188 -0.39300
O 	O 	0.55818 0.30153 0.42805 -0.39000
O 	O 	0.71486 0.32377 0.38819 -0.34600
C 	C 	0.73699 0.26672 0.45690 0.29300
O 	O 	0.63589 0.31485 0.54713 -0.36500
O 	O 	0.70626 0.32115 0.57067 -0.41400
H 	H 	0.62135 0.26076 0.42505 0.17700
H 	H 	0.73149 0.37555 0.51429 0.17700
C 	C 	0.66122 0.30385 0.81522 -0.10100
C 	C 	0.69211 0.30131 0.79225 0.14700
C 	C 	0.68793 0.30551 0.75307 -0.08500
C 	C 	0.65416 0.31363 0.73666 0.02200
C 	C 	0.62395 0.31716 0.75973 0.08300
C 	C 	0.62751 0.31215 0.79884 -0.01000
H 	H 	0.71149 0.30317 0.73543 0.08000
C 	C 	0.65066 0.31803 0.69522 0.02400
H 	H 	0.60390 0.31446 0.81643 0.06300
C 	C 	0.61417 0.27651 0.66698 -0.08500
C 	C 	0.61656 0.27681 0.62738 0.14400
C 	C 	0.65609 0.31884 0.61587 -0.10100
C 	C 	0.69044 0.36150 0.64386 -0.01100
C 	C 	0.68768 0.36138 0.68340 0.08100
H 	H 	0.58509 0.24333 0.67593 0.08200
H 	H 	0.72025 0.39431 0.63502 0.05800
Br	Br	0.57824 0.32952 0.73848 -0.21800
Br	Br	0.74235 0.29512 0.81439 -0.28100
Br	Br	0.56710 0.21858 0.58967 -0.25600
Br	Br	0.73548 0.42032 0.72100 -0.22000
C 	C 	0.67688 0.29475 0.11700 -0.09600
C 	C 	0.63660 0.28445 0.13444 0.14600
C 	C 	0.63889 0.28355 0.17434 -0.08400
C 	C 	0.68128 0.29328 0.19716 0.02100
C 	C 	0.71986 0.29975 0.17918 0.08600
C 	C 	0.71747 0.30037 0.13918 -0.01000
H 	H 	0.60860 0.27738 0.18795 0.07900
C 	C 	0.68751 0.30259 0.24004 0.02300
H 	H 	0.74818 0.30742 0.12575 0.06500
C 	C 	0.66933 0.26332 0.26010 -0.08400
C 	C 	0.67010 0.27076 0.30024 0.14400
C 	C 	0.68889 0.31782 0.32047 -0.09800
C 	C 	0.70863 0.35736 0.30061 -0.01100
C 	C 	0.70805 0.34999 0.26061 0.08400
H 	H 	0.65372 0.22685 0.24438 0.08100
H 	H 	0.72383 0.39378 0.31621 0.06400
Br	Br	0.77702 0.31000 0.20912 -0.21800
Br	Br	0.57842 0.27213 0.10433 -0.25600
Br	Br	0.64359 0.21589 0.32657 -0.25100
Br	Br	0.73460 0.40493 0.23436 -0.22000
C 	C 	0.91689 0.88349 0.47453 -0.02100
C 	C 	0.86759 0.84823 0.45499 -0.01800
C 	C 	0.84342 0.79859 0.45713 -0.04800
C 	C 	0.86835 0.78379 0.47878 0.01500
C 	C 	0.91690 0.81925 0.49951 -0.04800
C 	C 	0.94097 0.86883 0.49753 -0.01700
C 	C 	0.84491 0.73102 0.47777 0.00600
C 	C 	0.83885 0.71256 0.51257 -0.03900
C 	C 	0.82026 0.66345 0.51186 -0.03600
C 	C 	0.80731 0.63231 0.47631 0.00100
C 	C 	0.81246 0.65053 0.44145 -0.03600
C 	C 	0.83131 0.69967 0.44218 -0.03800
C 	C 	0.78826 0.58059 0.47552 0.02700
C 	C 	0.74418 0.54849 0.48893 -0.06300
C 	C 	0.72399 0.49865 0.48531 0.01200
C 	C 	0.74743 0.48025 0.46781 -0.08500
C 	C 	0.79273 0.51293 0.45592 0.01400
C 	C 	0.81300 0.56281 0.45978 -0.06300
H 	H 	0.84852 0.85901 0.43722 0.04100
H 	H 	0.80574 0.77155 0.44134 0.04400
H 	H 	0.93641 0.80824 0.51640 0.04500
H 	H 	0.97868 0.89575 0.51332 0.04100
H 	H 	0.84907 0.73640 0.54017 0.04200
H 	H 	0.81633 0.64972 0.53892 0.04200
H 	H 	0.80208 0.62665 0.41383 0.04300
H 	H 	0.83608 0.71360 0.41519 0.04300
H 	H 	0.72500 0.56193 0.50140 0.04900
H 	H 	0.68961 0.47422 0.49539 0.03700
H 	H 	0.81165 0.49958 0.44282 0.04300
H 	H 	0.84749 0.58750 0.44991 0.05000
C 	C 	0.75510 0.23738 0.44675 -0.08800
C 	C 	0.80616 0.26047 0.44894 0.01700
C 	C 	0.82406 0.23228 0.44516 -0.06400
C 	C 	0.79099 0.18075 0.43878 0.02900
C 	C 	0.73972 0.15766 0.43446 -0.06400
C 	C 	0.72187 0.18583 0.43856 0.02000
C 	C 	0.81023 0.15118 0.43933 0.00000
C 	C 	0.84066 0.15460 0.41310 -0.03500
C 	C 	0.86105 0.12865 0.41512 -0.03900
C 	C 	0.85095 0.09888 0.44324 0.00600
C 	C 	0.81968 0.09460 0.46888 -0.04000
C 	C 	0.79951 0.12074 0.46703 -0.03600
C 	C 	0.87535 0.07447 0.44729 0.01400
C 	C 	0.92617 0.10233 0.46308 -0.04700
C 	C 	0.94934 0.07929 0.46753 -0.02000
C 	C 	0.92193 0.02805 0.45598 -0.01900
C 	C 	0.87090 0.00015 0.44027 -0.02200
C 	C 	0.84774 0.02330 0.43604 -0.04700
H 	H 	0.83217 0.30021 0.45516 0.03500
H 	H 	0.86370 0.25049 0.44841 0.04900
H 	H 	0.71381 0.11791 0.42886 0.05000
H 	H 	0.68230 0.16760 0.43615 0.03900
H 	H 	0.84887 0.17768 0.39142 0.04400
H 	H 	0.88509 0.13207 0.39515 0.04300
H 	H 	0.81180 0.07180 0.49074 0.04200
H 	H 	0.77626 0.11800 0.48753 0.04000
H 	H 	0.94765 0.14183 0.47212 0.04400
H 	H 	0.98853 0.10126 0.48014 0.04300
H 	H 	0.84933 0.96070 0.43091 0.04400
H 	H 	0.80842 0.00151 0.42387 0.04400
C 	C 	0.48500 0.24518 0.45385 -0.08100
C 	C 	0.45761 0.25932 0.43491 0.01500
C 	C 	0.40682 0.23351 0.43510 -0.06300
C 	C 	0.38288 0.19345 0.45432 0.02800
C 	C 	0.41006 0.17917 0.47316 -0.06100
C 	C 	0.46082 0.20480 0.47287 0.01700
C 	C 	0.32939 0.16661 0.45488 0.00100
C 	C 	0.31157 0.19109 0.47216 -0.03500
C 	C 	0.26093 0.16559 0.47288 -0.03900
C 	C 	0.22774 0.11539 0.45645 0.00600
C 	C 	0.24550 0.09093 0.43905 -0.03900
C 	C 	0.29612 0.11645 0.43822 -0.03600
C 	C 	0.17455 0.08824 0.45803 0.01400
C 	C 	0.14534 0.09869 0.43664 -0.04800
C 	C 	0.09475 0.07261 0.43788 -0.01900
C 	C 	0.07295 0.03589 0.46064 -0.02000
C 	C 	0.10242 0.02576 0.48225 -0.02200
C 	C 	0.15293 0.05177 0.48087 -0.04700
H 	H 	0.47568 0.29054 0.42033 0.03700
H 	H 	0.38607 0.24467 0.42033 0.04800
H 	H 	0.39189 0.14833 0.48815 0.05300
H 	H 	0.48126 0.19315 0.48734 0.04800
H 	H 	0.33700 0.22976 0.48523 0.04300
H 	H 	0.24752 0.18471 0.48648 0.04300
H 	H 	0.22009 0.05220 0.42619 0.04200
H 	H 	0.30949 0.09731 0.42460 0.04200
H 	H 	0.16175 0.12674 0.41885 0.04400
H 	H 	0.07245 0.08056 0.42082 0.04200
H 	H 	0.08629 0.99800 0.50031 0.04400
H 	H 	0.17532 0.04371 0.49767 0.04500
C 	C 	0.74574 0.48961 0.96448 -0.08200
C 	C 	0.78800 0.51319 0.94709 0.01700
C 	C 	0.81253 0.56257 0.94400 -0.06300
C 	C 	0.79512 0.58885 0.95834 0.02900
C 	C 	0.75258 0.56518 0.97525 -0.06400
C 	C 	0.72794 0.51583 0.97823 0.01700
C 	C 	0.82245 0.64161 0.95705 0.00100
C 	C 	0.87153 0.67527 0.97742 -0.03500
C 	C 	0.89623 0.72562 0.97861 -0.03900
C 	C 	0.87204 0.74275 0.95952 0.00600
C 	C 	0.82329 0.70910 0.93858 -0.03900
C 	C 	0.79862 0.65870 0.93726 -0.03500
C 	C 	0.89742 0.79595 0.96225 0.01600
C 	C 	0.93950 0.82363 0.94532 -0.04800
C 	C 	0.96597 0.87465 0.95052 -0.01700
C 	C 	0.95069 0.89854 0.97285 -0.02200
C 	C 	0.90763 0.87059 0.98878 -0.01600
C 	C 	0.88113 0.81951 0.98348 -0.04900
H 	H 	0.80225 0.49351 0.93647 0.03900
H 	H 	0.84528 0.58052 0.93077 0.05200
H 	H 	0.73895 0.58520 0.98648 0.05000
H 	H 	0.69503 0.49802 0.99124 0.03900
H 	H 	0.89015 0.66246 0.99293 0.04200
H 	H 	0.93388 0.75138 0.99486 0.04300
H 	H 	0.80447 0.72201 0.92356 0.04300
H 	H 	0.76083 0.63297 0.92128 0.04400
H 	H 	0.95204 0.80565 0.92858 0.04600
H 	H 	0.99860 0.89567 0.93749 0.04300
H 	H 	0.89546 0.88850 0.00611 0.04100
H 	H 	0.84862 0.79836 0.99661 0.04500
C 	C 	0.96354 0.05073 0.99579 -0.01800
C 	C 	0.98477 0.09283 0.02455 -0.02100
C 	C 	0.96172 0.11618 0.02784 -0.04700
C 	C 	0.91741 0.09781 0.00227 0.01200
C 	C 	0.89626 0.05580 0.97350 -0.04500
C 	C 	0.91912 0.03230 0.97034 -0.02000
C 	C 	0.89372 0.12317 0.00498 0.00600
C 	C 	0.84438 0.09761 0.01060 -0.04000
C 	C 	0.82041 0.12016 0.00948 -0.03400
C 	C 	0.84567 0.16857 0.00297 -0.00400
C 	C 	0.89565 0.19481 0.99897 -0.03300
C 	C 	0.91951 0.17215 0.99983 -0.03900
C 	C 	0.81873 0.19035 0.99720 0.03300
C 	C 	0.79601 0.19575 0.02676 -0.06700
C 	C 	0.76882 0.21457 0.02057 0.01800
C 	C 	0.76425 0.22826 0.98477 -0.09100
C 	C 	0.78755 0.22336 0.95543 0.01600
C 	C 	0.81451 0.20441 0.96159 -0.06700
H 	H 	0.01880 0.10716 0.04459 0.04200
H 	H 	0.97824 0.14847 0.05025 0.04400
H 	H 	0.86233 0.04162 0.95338 0.04300
H 	H 	0.90259 0.00010 0.94783 0.04200
H 	H 	0.82433 0.05997 0.01505 0.04200
H 	H 	0.78185 0.09960 0.01263 0.04000
H 	H 	0.91561 0.23235 0.99430 0.04200
H 	H 	0.95763 0.19225 0.99556 0.04200
H 	H 	0.79929 0.18525 0.05444 0.05300
H 	H 	0.75148 0.21862 0.04360 0.04400
H 	H 	0.78405 0.23342 0.92758 0.02500
H 	H 	0.83158 0.20001 0.93849 0.04900
C 	C 	0.52095 0.23530 0.98920 -0.08100
C 	C 	0.49369 0.19503 0.00789 0.01900
C 	C 	0.44340 0.17309 0.00795 -0.06200
C 	C 	0.41981 0.19097 0.98918 0.03000
C 	C 	0.44651 0.23014 0.96950 -0.06300
C 	C 	0.49678 0.25215 0.96943 0.01500
C 	C 	0.36745 0.16938 0.99085 0.00300
C 	C 	0.32995 0.12024 0.97334 -0.03600
C 	C 	0.28037 0.09963 0.97530 -0.03900
C 	C 	0.26788 0.12797 0.99484 0.00700
C 	C 	0.30534 0.17720 0.01213 -0.04000
C 	C 	0.35494 0.19784 0.01015 -0.03600
C 	C 	0.21568 0.10577 0.99769 0.01600
C 	C 	0.19006 0.06606 0.01706 -0.04900
C 	C 	0.13953 0.04239 0.01710 -0.02000
C 	C 	0.11411 0.05824 0.99780 -0.02000
C 	C 	0.14023 0.09926 0.97976 -0.01900
C 	C 	0.19082 0.12288 0.97965 -0.04800
H 	H 	0.51167 0.18148 0.02317 0.05000
H 	H 	0.42299 0.14274 0.02313 0.05200
H 	H 	0.42840 0.24375 0.95451 0.05000
H 	H 	0.51700 0.28259 0.95430 0.03700
H 	H 	0.33924 0.09809 0.95821 0.04100
H 	H 	0.25165 0.06166 0.96166 0.04200
H 	H 	0.29607 0.19931 0.02736 0.04200
H 	H 	0.38369 0.23578 0.02383 0.04400
H 	H 	0.20914 0.05306 0.03154 0.04400
H 	H 	0.11994 0.01124 0.03163 0.04100
H 	H 	0.12105 0.11183 0.96475 0.04200
H 	H 	0.21038 0.15367 0.96476 0.04500
