data_crystal

_cell_length_a 28.42477
_cell_length_b 26.55477
_cell_length_c 48.42507
_cell_angle_alpha 103.80722
_cell_angle_beta  115.84341
_cell_angle_gamma 112.10128

_symmetry_space_group_name_	'P 1'
_symmetry_space_group_name_H-M	'P 1'

loop_
_symmetry_equiv_pos_as_xyz
  x,y,z

loop_
_atom_site_label
_atom_site_type_symbol
_atom_site_fract_x
_atom_site_fract_y
_atom_site_fract_z
_atom_site_charge
C 	C 	0.60055 0.27127 0.92434 0.04300
C 	C 	0.62950 0.23918 0.92265 -0.08700
C 	C 	0.67981 0.26326 0.92024 0.04300
C 	C 	0.70006 0.31858 0.91853 -0.08700
C 	C 	0.67140 0.35092 0.92035 0.04300
C 	C 	0.62131 0.32704 0.92301 -0.08700
H 	H 	0.61457 0.19693 0.92466 0.04900
H 	H 	0.73988 0.33790 0.91740 0.04900
H 	H 	0.59993 0.35270 0.92516 0.04900
C 	C 	0.51108 0.23361 0.39458 0.04400
C 	C 	0.53200 0.28972 0.39361 -0.08600
C 	C 	0.58244 0.31418 0.39128 0.04400
C 	C 	0.61132 0.28208 0.38944 -0.08600
C 	C 	0.59090 0.22639 0.39077 0.04400
C 	C 	0.54024 0.20175 0.39287 -0.08600
H 	H 	0.51046 0.31520 0.39580 0.05000
H 	H 	0.65138 0.30180 0.38854 0.05000
H 	H 	0.52521 0.15924 0.39461 0.05000
C 	C 	0.51899 0.78110 0.01698 0.04300
C 	C 	0.48786 0.81157 0.01648 -0.08600
C 	C 	0.43372 0.78465 0.01537 0.04300
C 	C 	0.41129 0.72778 0.01532 -0.08600
C 	C 	0.44196 0.69699 0.01557 0.04300
C 	C 	0.49604 0.72376 0.01656 -0.08600
H 	H 	0.50472 0.85520 0.01598 0.04900
H 	H 	0.36887 0.70655 0.01397 0.04900
H 	H 	0.51935 0.69955 0.01626 0.04900
C 	C 	0.43013 0.74296 0.48815 0.04300
C 	C 	0.39861 0.77300 0.48769 -0.08600
C 	C 	0.34467 0.74568 0.48672 0.04400
C 	C 	0.32280 0.68886 0.48675 -0.08600
C 	C 	0.35385 0.65850 0.48694 0.04300
C 	C 	0.40775 0.68567 0.48781 -0.08600
H 	H 	0.41505 0.81659 0.48714 0.05000
H 	H 	0.28053 0.66732 0.48551 0.04900
H 	H 	0.43136 0.66180 0.48748 0.05000
Zn	Zn	0.19982 0.14622 0.01055 1.18300
Zn	Zn	0.09213 0.10203 0.93726 1.19300
O 	O 	0.08201 0.00237 0.88021 -0.47900
O 	O 	0.05978 0.07691 0.88631 -0.45000
O 	O 	0.07573 0.91676 0.92238 -0.50600
C 	C 	0.25411 0.11443 0.97831 0.31900
O 	O 	0.03230 0.01678 0.92356 -0.88200
C 	C 	0.20222 0.23558 0.98436 0.33100
O 	O 	0.26739 0.14619 0.00886 -0.46900
O 	O 	0.19547 0.07433 0.95142 -0.35700
O 	O 	0.11534 0.10848 0.98500 -0.78300
O 	O 	0.13370 0.99831 0.97691 -0.45700
O 	O 	0.15857 0.18768 0.95240 -0.46000
O 	O 	0.22108 0.22813 0.01232 -0.46800
Zn	Zn	0.92115 0.91858 0.93952 1.17500
Zn	Zn	0.02889 0.94217 0.00054 1.18300
Zn	Zn	0.05729 0.02320 0.96886 1.21600
C 	C 	0.91226 0.81640 0.95753 0.33600
C 	C 	0.89708 0.96043 0.98768 0.33400
O 	O 	0.98198 0.05180 0.96187 -0.47200
Zn	Zn	0.04678 0.06051 0.03153 1.19800
O 	O 	0.97262 0.85294 0.98329 -0.45700
O 	O 	0.88362 0.83419 0.93621 -0.46900
O 	O 	0.87858 0.94591 0.95536 -0.48300
O 	O 	0.95274 0.97339 0.01068 -0.46900
C 	C 	0.07873 0.01000 0.07820 0.31700
O 	O 	0.99859 0.93832 0.95263 -0.79200
C 	C 	0.98281 0.09214 0.98444 0.34900
O 	O 	0.06203 0.96105 0.05181 -0.44000
O 	O 	0.08420 0.06014 0.07592 -0.47600
O 	O 	0.01263 0.10558 0.01739 -0.51100
O 	O 	0.08099 0.02838 0.01364 -0.90000
Zn	Zn	0.04801 0.96198 0.90239 1.18400
C 	C 	0.06837 0.03893 0.86911 0.30600
C 	C 	0.12171 0.94646 0.95572 0.33200
H 	H 	0.12618 0.04694 0.03078 0.16100
H 	H 	0.98822 0.00396 0.90862 0.15300
Zn	Zn	0.11371 0.10823 0.48272 1.18300
Zn	Zn	0.00816 0.06359 0.40884 1.19000
O 	O 	0.00147 0.96049 0.35449 -0.49100
O 	O 	0.98200 0.03706 0.35883 -0.45200
O 	O 	0.98396 0.87488 0.39520 -0.49000
C 	C 	0.16882 0.07494 0.45146 0.31500
O 	O 	0.94645 0.97888 0.39485 -0.86500
C 	C 	0.11764 0.19708 0.45632 0.32900
O 	O 	0.18191 0.10847 0.48162 -0.46600
O 	O 	0.11042 0.03208 0.42514 -0.35300
O 	O 	0.02914 0.07085 0.45639 -0.78700
O 	O 	0.04470 0.95886 0.44905 -0.45600
O 	O 	0.07624 0.14871 0.42445 -0.46300
O 	O 	0.13547 0.19010 0.48442 -0.46700
Zn	Zn	0.83261 0.88276 0.41122 1.17400
Zn	Zn	0.93973 0.90655 0.47238 1.18700
Zn	Zn	0.96966 0.98606 0.44020 1.22000
C 	C 	0.82285 0.78079 0.42951 0.33600
C 	C 	0.80871 0.92485 0.45943 0.33300
O 	O 	0.89529 0.01655 0.43242 -0.47000
Zn	Zn	0.95803 0.02470 0.50241 1.19900
O 	O 	0.88291 0.81772 0.45576 -0.46000
O 	O 	0.79458 0.79840 0.40790 -0.47000
O 	O 	0.79051 0.91073 0.42718 -0.48600
O 	O 	0.86449 0.93821 0.48255 -0.47400
C 	C 	0.99524 0.97813 0.55080 0.33300
O 	O 	0.90977 0.90166 0.42421 -0.79800
C 	C 	0.89452 0.05581 0.45461 0.33400
O 	O 	0.97463 0.92709 0.52402 -0.43600
O 	O 	0.99671 0.02639 0.54736 -0.47200
O 	O 	0.92349 0.06904 0.48754 -0.49700
O 	O 	0.99239 0.99213 0.48495 -0.88800
Zn	Zn	0.96029 0.92112 0.37434 1.18700
C 	C 	0.99643 0.00172 0.34497 0.33700
C 	C 	0.03094 0.90544 0.42836 0.31800
H 	H 	0.03746 0.01050 0.50229 0.15200
H 	H 	0.90280 0.96710 0.37972 0.14300
C 	C 	0.05086 0.96364 0.69619 -0.04300
C 	C 	0.04596 0.00467 0.68317 -0.00100
C 	C 	0.04741 0.05529 0.70185 -0.04200
H 	H 	0.04321 0.08699 0.69191 0.03400
C 	C 	0.05371 0.06479 0.73325 -0.03900
C 	C 	0.05802 0.02344 0.74610 -0.00600
C 	C 	0.05660 0.97283 0.72743 -0.03900
H 	H 	0.05957 0.94045 0.73704 0.03200
C 	C 	0.06335 0.03270 0.77888 0.02900
C 	C 	0.01665 0.03372 0.78182 -0.08200
C 	C 	0.01973 0.03858 0.81204 0.00600
C 	C 	0.06910 0.04171 0.83936 -0.10000
C 	C 	0.11683 0.04273 0.83689 0.01800
C 	C 	0.11410 0.03850 0.80685 -0.07300
C 	C 	0.03794 0.99401 0.64963 0.01800
C 	C 	0.98610 0.93868 0.61866 -0.06300
C 	C 	0.97446 0.93165 0.58634 0.03600
C 	C 	0.01416 0.98014 0.58473 -0.12600
C 	C 	0.06777 0.03407 0.61584 0.02500
C 	C 	0.07978 0.04085 0.64816 -0.07400
H 	H 	0.93297 0.88979 0.56248 0.02900
H 	H 	0.09916 0.07146 0.61490 0.01400
H 	H 	0.12061 0.08321 0.67198 0.04200
H 	H 	0.95368 0.90208 0.61951 0.04500
H 	H 	0.97735 0.02941 0.76040 0.05100
H 	H 	0.98272 0.03785 0.81372 0.02700
H 	H 	0.15095 0.03887 0.80511 0.04300
H 	H 	0.15568 0.04612 0.85810 0.03200
H 	H 	0.05508 0.10416 0.74754 0.03400
H 	H 	0.05000 0.92456 0.68204 0.03300
C 	C 	0.08240 0.97545 0.21077 -0.04000
C 	C 	0.08206 0.01723 0.19770 -0.00400
C 	C 	0.07268 0.06261 0.21130 -0.04000
H 	H 	0.07205 0.09490 0.20127 0.03400
C 	C 	0.06274 0.06554 0.23731 -0.04200
C 	C 	0.06157 0.02282 0.24977 -0.00100
C 	C 	0.07198 0.97809 0.23661 -0.04200
H 	H 	0.07108 0.94483 0.24602 0.03400
C 	C 	0.04749 0.02359 0.27578 0.01900
C 	C 	0.08965 0.02967 0.30767 -0.07300
C 	C 	0.07384 0.02478 0.33090 0.02700
C 	C 	0.01593 0.01424 0.32257 -0.12700
C 	C 	0.97502 0.01107 0.29148 0.03300
C 	C 	0.99056 0.01537 0.26805 -0.06400
C 	C 	0.08819 0.01151 0.16854 0.02700
C 	C 	0.13496 0.06257 0.17208 -0.07200
C 	C 	0.13471 0.06051 0.14291 0.01900
C 	C 	0.08792 0.00722 0.10999 -0.10100
C 	C 	0.04404 0.95453 0.10704 0.01900
C 	C 	0.04395 0.95677 0.13616 -0.07100
H 	H 	0.16950 0.10110 0.14562 0.02000
H 	H 	0.00783 0.91305 0.08180 0.03000
H 	H 	0.00791 0.91691 0.13319 0.04200
H 	H 	0.17013 0.10459 0.19715 0.04200
H 	H 	0.13413 0.03705 0.31413 0.04300
H 	H 	0.10619 0.02830 0.35515 0.03100
H 	H 	0.95776 0.01080 0.24355 0.04400
H 	H 	0.93036 0.00321 0.28492 0.01600
H 	H 	0.05527 0.10055 0.24750 0.03400
H 	H 	0.08991 0.94048 0.20059 0.03400
C 	C 	0.16484 0.38125 0.44153 -0.07200
C 	C 	0.21095 0.37144 0.46834 0.01800
C 	C 	0.29772 0.44669 0.46732 -0.08400
C 	C 	0.27056 0.48365 0.47631 0.04500
C 	C 	0.19983 0.44712 0.44620 -0.08400
H 	H 	0.14175 0.34587 0.41433 0.03900
H 	H 	0.12725 0.37517 0.44506 0.03700
C 	C 	0.17745 0.30884 0.46389 0.02900
H 	H 	0.34846 0.47164 0.48857 0.04100
H 	H 	0.29332 0.44279 0.44279 0.04200
C 	C 	0.30310 0.54631 0.48064 -0.03300
H 	H 	0.19342 0.44317 0.42123 0.04100
H 	H 	0.17889 0.47244 0.45195 0.04000
C 	C 	0.27730 0.48772 0.51048 -0.08400
H 	H 	0.25801 0.51391 0.51757 0.04100
H 	H 	0.32764 0.51346 0.53258 0.04100
C 	C 	0.24228 0.42180 0.50579 -0.07200
H 	H 	0.27590 0.41608 0.52567 0.03800
H 	H 	0.20629 0.41656 0.51065 0.03700
C 	C 	0.26266 0.38069 0.46263 -0.07200
H 	H 	0.29668 0.37412 0.48163 0.04000
H 	H 	0.24156 0.34530 0.43586 0.04100
C 	C 	0.14996 0.25776 0.46034 -0.11800
C 	C 	0.32760 0.59754 0.48378 -0.02800
C 	C 	0.56972 0.85412 0.46132 -0.08400
C 	C 	0.57787 0.81623 0.48096 0.04500
C 	C 	0.63344 0.79017 0.45612 -0.07200
C 	C 	0.67019 0.86212 0.47436 0.01900
C 	C 	0.62394 0.88107 0.45745 -0.07200
H 	H 	0.52427 0.82402 0.43488 0.04100
H 	H 	0.56880 0.89275 0.47584 0.04200
C 	C 	0.52597 0.79035 0.48434 -0.03200
H 	H 	0.66540 0.77507 0.46781 0.04100
H 	H 	0.61400 0.77099 0.42780 0.04000
C 	C 	0.72128 0.88709 0.47027 0.03200
H 	H 	0.60433 0.86382 0.42916 0.03900
H 	H 	0.64891 0.93257 0.47012 0.03900
C 	C 	0.69611 0.88678 0.51363 -0.07300
H 	H 	0.72253 0.93839 0.52742 0.04100
H 	H 	0.72937 0.87368 0.52648 0.04200
C 	C 	0.64182 0.85979 0.51751 -0.08400
H 	H 	0.64919 0.83382 0.53222 0.04300
H 	H 	0.64235 0.89853 0.53317 0.04200
C 	C 	0.57926 0.76324 0.46000 -0.08400
H 	H 	0.58537 0.73533 0.47356 0.04200
H 	H 	0.53400 0.73124 0.43353 0.04100
C 	C 	0.48270 0.76881 0.48641 -0.02800
C 	C 	0.76190 0.90558 0.46590 -0.11700
C 	C 	0.16721 0.76264 0.43602 -0.08400
C 	C 	0.23301 0.81469 0.47012 0.04600
C 	C 	0.21221 0.89459 0.45715 -0.07200
C 	C 	0.15561 0.85229 0.45629 0.01600
C 	C 	0.12180 0.78469 0.42791 -0.07100
H 	H 	0.17041 0.74912 0.41361 0.04100
H 	H 	0.14811 0.72049 0.43874 0.04000
C 	C 	0.27543 0.79279 0.47736 -0.03300
H 	H 	0.23764 0.94351 0.47742 0.04000
H 	H 	0.19564 0.89392 0.43148 0.04000
C 	C 	0.11190 0.87264 0.44800 0.02900
H 	H 	0.10334 0.78170 0.40162 0.03800
H 	H 	0.08104 0.75309 0.42677 0.03600
C 	C 	0.18077 0.85442 0.49243 -0.07200
H 	H 	0.14119 0.82427 0.49259 0.03600
H 	H 	0.20556 0.90254 0.51339 0.03600
C 	C 	0.22631 0.83229 0.50057 -0.08400
H 	H 	0.27285 0.86983 0.52543 0.04100
H 	H 	0.20846 0.79158 0.50462 0.04100
C 	C 	0.25772 0.87247 0.46528 -0.08400
H 	H 	0.30487 0.91080 0.48945 0.04200
H 	H 	0.26282 0.86122 0.44348 0.04200
C 	C 	0.30814 0.77259 0.48218 -0.02800
C 	C 	0.07521 0.88809 0.43981 -0.13000
C 	C 	0.38540 0.48549 0.99700 -0.08100
C 	C 	0.35713 0.52212 0.00472 0.04300
C 	C 	0.25139 0.41935 0.96898 -0.07300
C 	C 	0.29661 0.40994 0.99660 0.02000
C 	C 	0.34981 0.41952 0.99222 -0.07200
H 	H 	0.38258 0.48154 0.97284 0.04200
H 	H 	0.43579 0.51073 0.01889 0.04000
C 	C 	0.39020 0.58476 0.00912 -0.03200
H 	H 	0.21276 0.41304 0.97155 0.03800
H 	H 	0.22961 0.38392 0.94207 0.04000
C 	C 	0.26264 0.34736 0.99207 0.02900
H 	H 	0.33004 0.38410 0.96579 0.04100
H 	H 	0.38324 0.41326 0.01183 0.03900
C 	C 	0.32613 0.46037 0.03363 -0.07400
H 	H 	0.35909 0.45494 0.05408 0.03800
H 	H 	0.28905 0.45491 0.03754 0.03700
C 	C 	0.36169 0.52625 0.03840 -0.08300
H 	H 	0.34155 0.55221 0.04458 0.04000
H 	H 	0.41161 0.55227 0.06111 0.04000
C 	C 	0.28691 0.48519 0.97374 -0.08200
H 	H 	0.26519 0.51027 0.97856 0.04100
H 	H 	0.28206 0.48118 0.94909 0.04100
C 	C 	0.41515 0.63599 0.01233 -0.02900
C 	C 	0.23482 0.29628 0.98846 -0.11700
C 	C 	0.66507 0.80008 0.98655 -0.08300
C 	C 	0.66683 0.85336 0.00978 0.04400
C 	C 	0.78534 0.91977 0.04217 -0.07200
C 	C 	0.75902 0.89877 0.00302 0.01600
C 	C 	0.71917 0.82673 0.98259 -0.07100
H 	H 	0.66917 0.76943 0.99838 0.04200
H 	H 	0.61950 0.77083 0.96017 0.04200
C 	C 	0.61496 0.82776 0.01321 -0.03200
H 	H 	0.81397 0.97136 0.05753 0.04200
H 	H 	0.81663 0.90372 0.05330 0.04300
C 	C 	0.81001 0.92344 0.99883 0.03400
H 	H 	0.74909 0.80876 0.99251 0.04100
H 	H 	0.69939 0.81015 0.95431 0.04000
C 	C 	0.71556 0.92176 0.98853 -0.07000
H 	H 	0.69573 0.90720 0.96039 0.03900
H 	H 	0.74280 0.97340 0.00283 0.03800
C 	C 	0.66141 0.89509 0.99250 -0.08200
H 	H 	0.66279 0.93401 0.00868 0.04100
H 	H 	0.61578 0.86783 0.96623 0.04100
C 	C 	0.73112 0.89306 0.04614 -0.08400
H 	H 	0.73389 0.93192 0.06341 0.04300
H 	H 	0.73654 0.86428 0.05916 0.04300
C 	C 	0.57166 0.80650 0.01529 -0.02800
C 	C 	0.85049 0.94163 0.99434 -0.11700
C 	C 	0.34864 0.91287 0.99381 -0.08400
C 	C 	0.32308 0.85487 0.99836 0.04800
C 	C 	0.27054 0.89491 0.02022 -0.07200
C 	C 	0.24628 0.89321 0.98421 0.01600
C 	C 	0.30347 0.93542 0.98549 -0.07000
H 	H 	0.39569 0.95094 0.01814 0.04100
H 	H 	0.35422 0.90171 0.97220 0.04200
C 	C 	0.36515 0.83254 0.00576 -0.03400
H 	H 	0.23052 0.86482 0.02008 0.03500
H 	H 	0.29537 0.94298 0.04125 0.03600
C 	C 	0.20283 0.91389 0.97574 0.03200
H 	H 	0.32896 0.98429 0.00585 0.03900
H 	H 	0.28755 0.93505 0.95992 0.04000
C 	C 	0.21240 0.82568 0.95573 -0.07100
H 	H 	0.19457 0.82298 0.92954 0.03800
H 	H 	0.17120 0.79413 0.95428 0.03700
C 	C 	0.25746 0.80319 0.96403 -0.08500
H 	H 	0.23775 0.76090 0.96653 0.04100
H 	H 	0.26113 0.78977 0.94179 0.04200
C 	C 	0.31574 0.87235 0.02854 -0.08600
H 	H 	0.29727 0.83150 0.03238 0.04100
H 	H 	0.36215 0.90963 0.05356 0.04100
C 	C 	0.39756 0.81197 0.01070 -0.02700
C 	C 	0.16619 0.92937 0.96738 -0.13300
C 	C 	0.76844 0.20879 0.43915 -0.08400
C 	C 	0.70048 0.15508 0.40777 0.04600
C 	C 	0.74491 0.10332 0.38483 -0.07100
C 	C 	0.77517 0.11432 0.42300 0.01600
C 	C 	0.81228 0.18487 0.44809 -0.07100
H 	H 	0.78584 0.24627 0.43277 0.04200
H 	H 	0.76973 0.22958 0.46255 0.04300
C 	C 	0.65940 0.17852 0.39992 -0.03200
H 	H 	0.71770 0.05294 0.36618 0.03400
H 	H 	0.78192 0.12770 0.38147 0.03500
C 	C 	0.81725 0.09212 0.43222 0.03200
H 	H 	0.85062 0.21090 0.44597 0.03800
H 	H 	0.83447 0.19425 0.47575 0.04100
C 	C 	0.72208 0.07990 0.42660 -0.07200
H 	H 	0.74235 0.08704 0.45381 0.04100
H 	H 	0.69438 0.02905 0.40876 0.03900
C 	C 	0.67821 0.10386 0.41765 -0.08400
H 	H 	0.62954 0.06447 0.39552 0.04100
H 	H 	0.67758 0.12244 0.44059 0.04200
C 	C 	0.70091 0.12733 0.37586 -0.08500
H 	H 	0.65269 0.08842 0.35291 0.04100
H 	H 	0.71692 0.16317 0.36821 0.04100
C 	C 	0.62731 0.19942 0.39499 -0.02700
C 	C 	0.85237 0.07505 0.44152 -0.13000
C 	C 	0.67572 0.59382 0.42011 -0.07200
C 	C 	0.72577 0.60351 0.41292 0.01900
C 	C 	0.73714 0.52510 0.43232 -0.08400
C 	C 	0.66607 0.48996 0.40324 0.04600
C 	C 	0.64059 0.52701 0.41441 -0.08400
H 	H 	0.69830 0.62809 0.44748 0.04000
H 	H 	0.64151 0.60174 0.40237 0.03900
C 	C 	0.75958 0.66692 0.41848 0.03100
H 	H 	0.75688 0.49969 0.42499 0.04200
H 	H 	0.74498 0.52751 0.45735 0.04300
C 	C 	0.63353 0.42667 0.39809 -0.03200
H 	H 	0.64643 0.52941 0.43906 0.04200
H 	H 	0.58962 0.50302 0.39394 0.04100
C 	C 	0.65731 0.48797 0.36896 -0.08400
H 	H 	0.60667 0.46322 0.34760 0.04100
H 	H 	0.67537 0.46176 0.36032 0.04100
C 	C 	0.69242 0.55473 0.37465 -0.07200
H 	H 	0.72721 0.56035 0.36872 0.03800
H 	H 	0.65854 0.56186 0.35600 0.03700
C 	C 	0.77219 0.59176 0.43800 -0.07300
H 	H 	0.80863 0.59814 0.43337 0.04100
H 	H 	0.79673 0.62597 0.46573 0.04200
C 	C 	0.78814 0.71888 0.42337 -0.11700
C 	C 	0.60900 0.37518 0.39457 -0.02800
C 	C 	0.39018 0.22772 0.44199 -0.08400
C 	C 	0.37996 0.17188 0.41503 0.04600
C 	C 	0.33961 0.10583 0.43979 -0.07300
C 	C 	0.29874 0.13298 0.43015 0.02100
C 	C 	0.34246 0.20487 0.45087 -0.07300
H 	H 	0.43859 0.25496 0.46643 0.04200
H 	H 	0.38486 0.25947 0.43127 0.04200
C 	C 	0.42567 0.19376 0.40687 -0.03200
H 	H 	0.30945 0.05418 0.42517 0.03900
H 	H 	0.36516 0.12013 0.46823 0.03900
C 	C 	0.25334 0.11152 0.43854 0.02700
H 	H 	0.36809 0.22120 0.47955 0.04000
H 	H 	0.31437 0.22572 0.44439 0.04100
C 	C 	0.26428 0.11226 0.39040 -0.07300
H 	H 	0.23458 0.13122 0.38269 0.04200
H 	H 	0.23260 0.06074 0.37479 0.04000
C 	C 	0.31203 0.13513 0.38151 -0.08400
H 	H 	0.30318 0.09453 0.36167 0.04200
H 	H 	0.30516 0.16502 0.36958 0.04300
C 	C 	0.38736 0.12870 0.43091 -0.08400
H 	H 	0.38001 0.08795 0.41206 0.04200
H 	H 	0.43570 0.15388 0.45512 0.04200
C 	C 	0.46403 0.21189 0.40087 -0.02700
C 	C 	0.21544 0.09451 0.44493 -0.11000
C 	C 	0.85711 0.24560 0.96933 -0.08500
C 	C 	0.78930 0.19195 0.93775 0.04700
C 	C 	0.83422 0.14045 0.91517 -0.07100
C 	C 	0.86390 0.15118 0.95328 0.01500
C 	C 	0.90092 0.22166 0.97845 -0.07000
H 	H 	0.87482 0.28322 0.96311 0.04300
H 	H 	0.85800 0.26620 0.99260 0.04300
C 	C 	0.74826 0.21538 0.92971 -0.03200
H 	H 	0.80710 0.09012 0.89646 0.03500
H 	H 	0.87154 0.16498 0.91205 0.03600
C 	C 	0.90590 0.12895 0.96259 0.03500
H 	H 	0.93956 0.24784 0.97658 0.03800
H 	H 	0.92269 0.23084 0.00607 0.04000
C 	C 	0.81041 0.11655 0.95655 -0.07100
H 	H 	0.83027 0.12349 0.98370 0.04200
H 	H 	0.78279 0.06574 0.93863 0.03900
C 	C 	0.76656 0.14052 0.94742 -0.08500
H 	H 	0.71799 0.10117 0.92513 0.04100
H 	H 	0.76553 0.15891 0.97022 0.04300
C 	C 	0.79026 0.16447 0.90602 -0.08500
H 	H 	0.74214 0.12562 0.88293 0.04100
H 	H 	0.80659 0.20047 0.89852 0.04200
C 	C 	0.71619 0.23628 0.92463 -0.02700
C 	C 	0.94089 0.11174 0.97177 -0.13400
C 	C 	0.78072 0.59048 0.90284 -0.07200
C 	C 	0.81515 0.63946 0.94125 0.01900
C 	C 	0.73073 0.56386 0.94353 -0.08400
C 	C 	0.75523 0.52617 0.93179 0.04600
C 	C 	0.74548 0.52386 0.89728 -0.08400
H 	H 	0.74678 0.59790 0.88446 0.03800
H 	H 	0.81487 0.59558 0.89644 0.03800
C 	C 	0.84905 0.70272 0.94669 0.03100
H 	H 	0.73728 0.56649 0.96836 0.04200
H 	H 	0.67967 0.54023 0.92341 0.04100
C 	C 	0.72259 0.46305 0.92678 -0.03200
H 	H 	0.69471 0.49945 0.87625 0.04100
H 	H 	0.76282 0.49718 0.88823 0.04200
C 	C 	0.82646 0.56081 0.96039 -0.08400
H 	H 	0.84550 0.53492 0.95265 0.04300
H 	H 	0.83500 0.56342 0.98558 0.04300
C 	C 	0.86164 0.62733 0.96594 -0.07300
H 	H 	0.88695 0.66169 0.99377 0.04300
H 	H 	0.89745 0.63317 0.96084 0.04100
C 	C 	0.76599 0.63053 0.94910 -0.07200
H 	H 	0.78936 0.66496 0.97658 0.04100
H 	H 	0.73176 0.63875 0.93164 0.03900
C 	C 	0.87763 0.75459 0.95149 -0.11600
C 	C 	0.69799 0.41170 0.92342 -0.02700
C 	C 	0.43096 0.14912 0.97182 -0.07100
C 	C 	0.38659 0.17174 0.95881 0.02000
C 	C 	0.47514 0.26645 0.96866 -0.08400
C 	C 	0.46903 0.21043 0.94453 0.04600
C 	C 	0.47945 0.17188 0.96342 -0.08400
H 	H 	0.45593 0.16690 0.00059 0.03800
H 	H 	0.40345 0.09751 0.95904 0.03900
C 	C 	0.34038 0.15039 0.96665 0.02900
H 	H 	0.46762 0.29491 0.95574 0.04200
H 	H 	0.52319 0.29700 0.99354 0.04200
C 	C 	0.51522 0.23212 0.93669 -0.03200
H 	H 	0.52757 0.20048 0.98819 0.04200
H 	H 	0.47512 0.13111 0.94664 0.04200
C 	C 	0.40152 0.16903 0.91031 -0.08400
H 	H 	0.39564 0.12823 0.89247 0.04200
H 	H 	0.39253 0.19555 0.89622 0.04300
C 	C 	0.35304 0.14627 0.91871 -0.07300
H 	H 	0.32086 0.16187 0.90859 0.04200
H 	H 	0.32399 0.09459 0.90485 0.04100
C 	C 	0.42669 0.24371 0.97706 -0.07100
H 	H 	0.39604 0.26135 0.96815 0.04100
H 	H 	0.45160 0.26342 0.00594 0.03900
C 	C 	0.30165 0.13357 0.97246 -0.11000
C 	C 	0.55366 0.24998 0.93073 -0.02700
