data_crystal

_cell_length_a 26.07492
_cell_length_b 26.54099
_cell_length_c 34.80319
_cell_angle_alpha 95.56696
_cell_angle_beta  95.56194
_cell_angle_gamma 125.59090

_symmetry_space_group_name_	'P 1'
_symmetry_space_group_name_H-M	'P 1'

loop_
_symmetry_equiv_pos_as_xyz
  x,y,z

loop_
_atom_site_label
_atom_site_type_symbol
_atom_site_fract_x
_atom_site_fract_y
_atom_site_fract_z
_atom_site_charge
C 	C 	0.94143 0.00470 0.98825 0.08100
C 	C 	0.90205 0.94051 0.99054 -0.07600
C 	C 	0.92561 0.90483 0.98690 0.09000
C 	C 	0.98942 0.93380 0.98280 -0.09200
C 	C 	0.02985 0.99844 0.98219 0.10400
C 	C 	0.00583 0.03398 0.98493 -0.09000
H 	H 	0.85276 0.91810 0.99411 0.08800
H 	H 	0.00773 0.90616 0.98036 0.09000
H 	H 	0.03696 0.08399 0.98432 0.08900
C 	C 	0.95657 0.02035 0.46567 0.07200
C 	C 	0.02215 0.05662 0.46405 -0.07000
C 	C 	0.05477 0.02938 0.46542 0.07500
C 	C 	0.02195 0.96596 0.46882 -0.06500
C 	C 	0.95720 0.93032 0.47256 0.07700
C 	C 	0.92433 0.95745 0.47058 -0.07200
H 	H 	0.04757 0.10574 0.46142 0.08800
H 	H 	0.04704 0.94468 0.46928 0.09100
H 	H 	0.87398 0.92976 0.47272 0.08100
Cu	Cu	0.61967 0.22174 0.99838 0.93500
Cu	Cu	0.68265 0.24132 0.91983 0.88600
Cu	Cu	0.64551 0.31937 0.94814 0.90500
Cu	Cu	0.61214 0.33323 0.02583 0.92000
C 	C 	0.63441 0.26516 0.08044 0.39700
O 	O 	0.52430 0.17938 0.99636 -0.33100
C 	C 	0.63846 0.28660 0.86334 0.38700
O 	O 	0.66641 0.31960 0.00273 -0.63400
O 	O 	0.61205 0.22930 0.94258 -0.63700
O 	O 	0.66565 0.18273 0.99591 -0.33600
O 	O 	0.73921 0.25930 0.96645 -0.41100
O 	O 	0.60218 0.28738 0.07006 -0.33300
O 	O 	0.68495 0.40876 0.95537 -0.33300
C 	C 	0.68463 0.44273 0.98559 0.30800
C 	C 	0.49740 0.20542 0.98350 0.30900
O 	O 	0.53371 0.26399 0.97843 -0.37100
O 	O 	0.64589 0.41620 0.01076 -0.34800
O 	O 	0.64077 0.23072 0.05415 -0.31900
C 	C 	0.72301 0.21477 0.98685 0.31700
O 	O 	0.62971 0.31687 0.89141 -0.33700
O 	O 	0.64584 0.24285 0.87004 -0.36900
H 	H 	0.71267 0.34932 0.01461 0.20200
H 	H 	0.56898 0.19932 0.92570 0.19900
Cu	Cu	0.75724 0.35927 0.45352 0.93600
Cu	Cu	0.74681 0.30447 0.53487 0.88800
Cu	Cu	0.65639 0.32872 0.50347 0.90800
Cu	Cu	0.63836 0.35799 0.42506 0.91200
C 	C 	0.71164 0.34133 0.37125 0.40000
O 	O 	0.79419 0.45123 0.45447 -0.33500
C 	C 	0.69227 0.34103 0.58886 0.38500
O 	O 	0.65725 0.30860 0.44916 -0.63900
O 	O 	0.74971 0.36754 0.50927 -0.63800
O 	O 	0.80319 0.32022 0.45698 -0.34100
O 	O 	0.73250 0.24767 0.49021 -0.40100
O 	O 	0.68632 0.37051 0.38119 -0.34600
O 	O 	0.56433 0.28441 0.49590 -0.33800
C 	C 	0.52784 0.28392 0.46648 0.31600
C 	C 	0.76679 0.47573 0.46905 0.30200
O 	O 	0.70585 0.43857 0.47165 -0.35700
O 	O 	0.55213 0.31899 0.43942 -0.35000
O 	O 	0.74844 0.33763 0.39786 -0.32900
C 	C 	0.77624 0.26562 0.46822 0.31700
O 	O 	0.65822 0.34492 0.56008 -0.32800
O 	O 	0.74152 0.34082 0.58319 -0.36500
H 	H 	0.62917 0.26297 0.43764 0.19600
H 	H 	0.77788 0.41080 0.52517 0.20300
C 	C 	0.60432 0.30864 0.67404 0.23500
C 	C 	0.65508 0.33469 0.70610 -0.00400
C 	C 	0.71861 0.36934 0.69985 0.22900
C 	C 	0.73110 0.37531 0.66173 0.31100
C 	C 	0.67999 0.34487 0.62928 -0.20100
C 	C 	0.61658 0.31309 0.63576 0.30900
C 	C 	0.64154 0.32078 0.74557 -0.00400
F 	F 	0.76817 0.39544 0.73064 -0.34300
F 	F 	0.56664 0.28412 0.60489 -0.37100
C 	C 	0.61201 0.25908 0.75237 0.22800
C 	C 	0.60682 0.24713 0.79058 0.31000
C 	C 	0.63305 0.29714 0.82263 -0.20500
C 	C 	0.65954 0.35836 0.81557 0.30900
C 	C 	0.66311 0.36992 0.77715 0.23400
F 	F 	0.59026 0.21103 0.72203 -0.34400
F 	F 	0.68445 0.40715 0.84603 -0.37400
F 	F 	0.57698 0.18702 0.79654 -0.37600
F 	F 	0.68953 0.42932 0.77072 -0.33800
F 	F 	0.54290 0.27713 0.67991 -0.33700
F 	F 	0.79285 0.41009 0.65629 -0.37200
C 	C 	0.72585 0.36003 0.26599 0.22800
C 	C 	0.69747 0.29775 0.24755 -0.00100
C 	C 	0.68016 0.25125 0.27045 0.23300
C 	C 	0.68786 0.26624 0.31131 0.31100
C 	C 	0.71263 0.32772 0.32944 -0.20900
C 	C 	0.73352 0.37500 0.30676 0.31700
C 	C 	0.67936 0.28006 0.20427 -0.00100
F 	F 	0.65390 0.19115 0.25295 -0.33900
F 	F 	0.76021 0.43525 0.32421 -0.37200
C 	C 	0.72658 0.29694 0.18130 0.23500
C 	C 	0.71119 0.28926 0.14044 0.31300
C 	C 	0.64856 0.26488 0.12237 -0.20300
C 	C 	0.60055 0.24452 0.14514 0.31600
C 	C 	0.61594 0.25224 0.18591 0.23000
F 	F 	0.78777 0.32269 0.19873 -0.33800
F 	F 	0.53915 0.21814 0.12777 -0.36500
F 	F 	0.75771 0.30800 0.11865 -0.37500
F 	F 	0.56974 0.23483 0.20780 -0.34400
F 	F 	0.74369 0.40554 0.24418 -0.34300
F 	F 	0.66875 0.22046 0.33305 -0.37900
C 	C 	0.92349 0.86399 0.47749 -0.01700
C 	C 	0.94486 0.84889 0.51017 0.11100
C 	C 	0.92002 0.78602 0.51094 -0.06000
C 	C 	0.87204 0.73763 0.48014 0.01500
C 	C 	0.84623 0.75220 0.44945 0.10600
C 	C 	0.87293 0.81526 0.44782 -0.04700
H 	H 	0.93828 0.77480 0.53537 0.09200
C 	C 	0.85020 0.67214 0.47977 0.03100
H 	H 	0.85509 0.82644 0.42314 0.08900
C 	C 	0.81162 0.63787 0.50626 -0.07600
C 	C 	0.78848 0.57502 0.50528 0.14700
C 	C 	0.80111 0.54488 0.47607 -0.08100
C 	C 	0.84282 0.58042 0.45112 -0.00600
C 	C 	0.86839 0.64407 0.45342 0.09300
H 	H 	0.80007 0.66026 0.52786 0.09700
H 	H 	0.85437 0.55827 0.42934 0.09900
Br	Br	0.77424 0.68662 0.40978 -0.15300
Br	Br	0.00588 0.91310 0.55468 -0.17500
Br	Br	0.74510 0.53341 0.54623 -0.17000
Br	Br	0.92876 0.69211 0.42075 -0.14400
C 	C 	0.92196 0.04870 0.46270 -0.01800
C 	C 	0.90730 0.06153 0.42655 0.11200
C 	C 	0.88188 0.09560 0.42518 -0.05900
C 	C 	0.87012 0.11636 0.45952 0.01400
C 	C 	0.88150 0.10055 0.49525 0.10500
C 	C 	0.90775 0.06724 0.49673 -0.05000
H 	H 	0.87186 0.10649 0.39748 0.09500
C 	C 	0.84701 0.15556 0.45799 0.03300
H 	H 	0.91820 0.05676 0.52450 0.08400
C 	C 	0.78131 0.12650 0.44599 -0.07800
C 	C 	0.75807 0.16260 0.44679 0.15400
C 	C 	0.80073 0.22839 0.46055 -0.08900
C 	C 	0.86689 0.25777 0.47047 -0.00500
C 	C 	0.89019 0.22174 0.46904 0.08900
H 	H 	0.74821 0.07577 0.43626 0.09700
H 	H 	0.90007 0.30844 0.48042 0.07700
Br	Br	0.86195 0.12449 0.54234 -0.17300
Br	Br	0.92077 0.03206 0.37872 -0.16700
Br	Br	0.66863 0.12173 0.42700 -0.15500
Br	Br	0.98102 0.26360 0.48277 -0.16500
C 	C 	0.12410 0.06804 0.46504 -0.01700
C 	C 	0.14661 0.07991 0.42941 0.11300
C 	C 	0.21263 0.11591 0.42964 -0.05900
C 	C 	0.25648 0.13970 0.46514 0.01600
C 	C 	0.23397 0.12803 0.50077 0.10300
C 	C 	0.16800 0.09230 0.50056 -0.04700
H 	H 	0.22985 0.12485 0.40218 0.09300
C 	C 	0.32582 0.17638 0.46474 0.03300
H 	H 	0.15077 0.08312 0.52801 0.08900
C 	C 	0.36301 0.24231 0.46977 -0.07500
C 	C 	0.42921 0.27802 0.47068 0.15600
C 	C 	0.45848 0.24749 0.46583 -0.07900
C 	C 	0.42122 0.18154 0.46074 -0.00100
C 	C 	0.35511 0.14590 0.46009 0.09100
H 	H 	0.34062 0.26589 0.47362 0.09800
H 	H 	0.44362 0.15792 0.45718 0.07700
Br	Br	0.29261 0.15991 0.54992 -0.13600
Br	Br	0.08785 0.04624 0.38014 -0.16300
Br	Br	0.47921 0.36845 0.48066 -0.15800
Br	Br	0.30567 0.05571 0.45322 -0.15500
C 	C 	0.71796 0.51048 0.98651 -0.07800
C 	C 	0.78479 0.55092 0.98814 0.15500
C 	C 	0.81544 0.61515 0.98840 -0.07400
C 	C 	0.78014 0.63963 0.98756 0.03500
C 	C 	0.71347 0.59936 0.98625 0.09000
C 	C 	0.68272 0.53509 0.98576 -0.00000
H 	H 	0.86686 0.64621 0.98961 0.09900
C 	C 	0.81330 0.70734 0.98768 0.01100
H 	H 	0.63128 0.50412 0.98452 0.08400
C 	C 	0.81782 0.72832 0.95187 -0.05900
C 	C 	0.85248 0.79278 0.95136 0.11700
C 	C 	0.88332 0.83682 0.98698 -0.02900
C 	C 	0.87731 0.81576 0.02282 -0.04000
C 	C 	0.84249 0.75128 0.02334 0.10700
H 	H 	0.79490 0.69451 0.92440 0.10000
H 	H 	0.90073 0.84960 0.05028 0.08300
Br	Br	0.66377 0.63145 0.98533 -0.15700
Br	Br	0.83544 0.51994 0.99186 -0.18100
Br	Br	0.85780 0.81994 0.90179 -0.15000
Br	Br	0.83571 0.72401 0.07293 -0.15600
C 	C 	0.91499 0.04109 0.98911 -0.02500
C 	C 	0.86497 0.02531 0.95903 0.10900
C 	C 	0.83634 0.05621 0.96221 -0.05700
C 	C 	0.85985 0.10576 0.99385 0.00900
C 	C 	0.91170 0.12344 0.02308 0.10600
C 	C 	0.93830 0.09040 0.02091 -0.04200
H 	H 	0.79699 0.04302 0.93941 0.09000
C 	C 	0.83118 0.14013 0.99531 0.02800
H 	H 	0.97719 0.10315 0.04392 0.08100
C 	C 	0.79161 0.13095 0.02260 -0.07000
C 	C 	0.75998 0.15922 0.02227 0.15700
C 	C 	0.76370 0.19285 0.99221 -0.09600
C 	C 	0.80536 0.20386 0.96591 -0.00700
C 	C 	0.83995 0.17887 0.96790 0.08400
H 	H 	0.78628 0.10269 0.04453 0.10000
H 	H 	0.81037 0.23129 0.94351 0.06500
Br	Br	0.94822 0.19378 0.06539 -0.15400
Br	Br	0.83794 0.96469 0.91219 -0.15200
Br	Br	0.71892 0.15749 0.06562 -0.11800
Br	Br	0.89987 0.19910 0.93333 -0.16700
C 	C 	0.09836 0.02942 0.98122 -0.03900
C 	C 	0.12322 0.05074 0.94728 0.11800
C 	C 	0.18772 0.07731 0.94643 -0.06100
C 	C 	0.22718 0.08092 0.97868 0.01200
C 	C 	0.20180 0.05803 0.01215 0.10200
C 	C 	0.13799 0.03333 0.01349 -0.03700
H 	H 	0.20711 0.09487 0.92063 0.09400
C 	C 	0.29614 0.11310 0.97850 0.02900
H 	H 	0.11877 0.01610 0.03941 0.07900
C 	C 	0.34090 0.17448 0.00011 -0.07100
C 	C 	0.40668 0.20414 0.00312 0.16600
C 	C 	0.42831 0.17365 0.98230 -0.09300
C 	C 	0.38347 0.11241 0.96029 0.00200
C 	C 	0.31756 0.08186 0.95853 0.08300
H 	H 	0.32451 0.19826 0.01590 0.10000
H 	H 	0.39978 0.08851 0.94457 0.07500
Br	Br	0.25319 0.05867 0.05591 -0.14700
Br	Br	0.06932 0.04166 0.90131 -0.16500
Br	Br	0.46571 0.28351 0.03877 -0.19900
Br	Br	0.25767 0.99703 0.92958 -0.15000
