data_crystal

_cell_length_a 26.25123
_cell_length_b 26.50635
_cell_length_c 34.87750
_cell_angle_alpha 95.48012
_cell_angle_beta  95.47911
_cell_angle_gamma 125.83170

_symmetry_space_group_name_	'P 1'
_symmetry_space_group_name_H-M	'P 1'

loop_
_symmetry_equiv_pos_as_xyz
  x,y,z

loop_
_atom_site_label
_atom_site_type_symbol
_atom_site_fract_x
_atom_site_fract_y
_atom_site_fract_z
_atom_site_charge
C 	C 	0.00153 0.06364 0.99519 0.04600
C 	C 	0.06524 0.09820 0.98986 -0.09100
C 	C 	0.09524 0.06860 0.98707 0.04300
C 	C 	0.06210 0.00504 0.99110 -0.08500
C 	C 	0.99797 0.97002 0.99528 0.04400
C 	C 	0.96791 0.99949 0.99774 -0.09500
H 	H 	0.09112 0.14768 0.98754 0.04800
H 	H 	0.08568 0.98247 0.98999 0.04500
H 	H 	0.91831 0.97242 0.00114 0.05200
C 	C 	0.89942 0.96118 0.45245 0.05100
C 	C 	0.96627 0.99746 0.45777 -0.09800
C 	C 	0.99634 0.96798 0.46031 0.04600
C 	C 	0.95957 0.90217 0.45733 -0.09200
C 	C 	0.89270 0.86558 0.45137 0.04700
C 	C 	0.86259 0.89511 0.44888 -0.09500
H 	H 	0.99478 0.04849 0.46035 0.05400
H 	H 	0.98292 0.87946 0.45959 0.05000
H 	H 	0.81088 0.86695 0.44463 0.05000
Cu	Cu	0.67444 0.27891 0.01202 0.92700
Cu	Cu	0.72112 0.27555 0.92792 0.86900
Cu	Cu	0.71250 0.37859 0.96053 0.89500
Cu	Cu	0.67525 0.39635 0.03680 0.89300
C 	C 	0.69160 0.32711 0.09346 0.28200
O 	O 	0.58136 0.24225 0.01048 -0.36700
C 	C 	0.68781 0.33182 0.87533 0.28200
O 	O 	0.72637 0.37718 0.01523 -0.64000
O 	O 	0.66653 0.28507 0.95592 -0.64300
O 	O 	0.71222 0.23191 0.01072 -0.37500
O 	O 	0.78080 0.29194 0.97153 -0.44600
O 	O 	0.66304 0.35245 0.08231 -0.38600
O 	O 	0.76097 0.46988 0.96896 -0.38700
C 	C 	0.75687 0.50462 0.99651 0.29400
C 	C 	0.55646 0.26782 0.99418 0.28700
O 	O 	0.59384 0.32755 0.99073 -0.39700
O 	O 	0.71271 0.47849 0.01862 -0.39900
O 	O 	0.69500 0.28946 0.06786 -0.36300
C 	C 	0.76313 0.25129 0.99526 0.29000
O 	O 	0.71442 0.38109 0.90419 -0.39100
O 	O 	0.68072 0.27985 0.88122 -0.42200
H 	H 	0.77191 0.40439 0.02828 0.15900
H 	H 	0.62207 0.25987 0.94117 0.16600
Cu	Cu	0.69453 0.29615 0.44909 0.92600
Cu	Cu	0.71474 0.26835 0.53706 0.86800
Cu	Cu	0.60076 0.26209 0.50525 0.89700
Cu	Cu	0.56545 0.27908 0.42430 0.89300
C 	C 	0.64752 0.28215 0.36888 0.28500
O 	O 	0.72652 0.38538 0.44413 -0.37600
C 	C 	0.65892 0.30245 0.58973 0.28200
O 	O 	0.59602 0.24030 0.45046 -0.63800
O 	O 	0.69489 0.31283 0.50563 -0.64300
O 	O 	0.74561 0.26257 0.45129 -0.37800
O 	O 	0.69509 0.20296 0.49666 -0.44500
O 	O 	0.59224 0.27035 0.37367 -0.38600
O 	O 	0.50877 0.20837 0.50092 -0.38600
C 	C 	0.46901 0.20836 0.47468 0.29600
C 	C 	0.69558 0.40795 0.45410 0.29300
O 	O 	0.63822 0.37011 0.46208 -0.39500
O 	O 	0.49021 0.24885 0.45034 -0.40000
O 	O 	0.67772 0.26914 0.39372 -0.36600
C 	C 	0.73059 0.21591 0.46974 0.29500
O 	O 	0.60610 0.26957 0.56262 -0.39000
O 	O 	0.71241 0.31317 0.58224 -0.42200
H 	H 	0.57141 0.19420 0.44071 0.16200
H 	H 	0.71817 0.35813 0.51724 0.16700
C 	C 	0.67727 0.33932 0.83479 -0.07800
C 	C 	0.72833 0.38773 0.81992 0.00300
C 	C 	0.72308 0.38771 0.77968 -0.05600
C 	C 	0.66505 0.34024 0.75358 0.00400
C 	C 	0.61300 0.29198 0.76900 0.00400
C 	C 	0.61915 0.29272 0.80954 -0.01800
C 	C 	0.55701 0.24109 0.74359 -0.04300
C 	C 	0.55368 0.23472 0.70314 -0.04400
C 	C 	0.60510 0.28073 0.68722 0.00600
C 	C 	0.65929 0.33618 0.71208 0.00300
C 	C 	0.70622 0.38554 0.69477 -0.05600
C 	C 	0.70507 0.37507 0.65454 0.00200
C 	C 	0.65500 0.31716 0.63064 -0.07700
C 	C 	0.60350 0.27140 0.64667 -0.02000
H 	H 	0.77370 0.42336 0.83929 0.02800
H 	H 	0.76551 0.42205 0.76901 0.03700
H 	H 	0.57972 0.25521 0.82120 0.03100
H 	H 	0.51682 0.20475 0.75530 0.03300
H 	H 	0.51114 0.19341 0.68409 0.03500
H 	H 	0.74182 0.43255 0.71172 0.03800
H 	H 	0.74307 0.41217 0.64191 0.02600
H 	H 	0.56353 0.22750 0.62790 0.04000
C 	C 	0.70458 0.32779 0.13565 -0.07200
C 	C 	0.72681 0.38194 0.16307 0.00100
C 	C 	0.72763 0.37953 0.20292 -0.05400
C 	C 	0.70324 0.32171 0.21568 0.00400
C 	C 	0.68949 0.26986 0.18883 0.00700
C 	C 	0.68908 0.27273 0.14877 -0.01700
C 	C 	0.67574 0.21565 0.20222 -0.04200
C 	C 	0.67293 0.21141 0.24165 -0.04200
C 	C 	0.67958 0.25941 0.26782 0.00700
C 	C 	0.69289 0.31436 0.25473 0.00400
C 	C 	0.68939 0.35722 0.27957 -0.05300
C 	C 	0.67710 0.34761 0.31729 0.00100
C 	C 	0.66669 0.29474 0.33069 -0.07100
C 	C 	0.66888 0.25119 0.30622 -0.01600
H 	H 	0.74285 0.42587 0.15341 0.02100
H 	H 	0.74925 0.42297 0.22366 0.03800
H 	H 	0.67450 0.23158 0.12780 0.04600
H 	H 	0.66728 0.17667 0.18204 0.03600
H 	H 	0.66287 0.16938 0.25151 0.03600
H 	H 	0.69197 0.39560 0.26912 0.03800
H 	H 	0.67389 0.38054 0.33582 0.02700
H 	H 	0.65921 0.20943 0.31636 0.04100
C 	C 	0.80953 0.58764 0.47102 -0.09700
C 	C 	0.77116 0.60107 0.45091 0.00900
C 	C 	0.70810 0.55110 0.43182 0.01800
C 	C 	0.68471 0.48824 0.43261 -0.01300
C 	C 	0.72270 0.47467 0.45311 -0.11500
C 	C 	0.78530 0.52485 0.47316 0.09800
C 	C 	0.79753 0.66783 0.44996 -0.01300
C 	C 	0.66592 0.56457 0.41020 -0.16800
H 	H 	0.63677 0.44971 0.41722 0.02400
C 	C 	0.82630 0.51195 0.49692 -0.20000
H 	H 	0.85799 0.62623 0.48555 0.04900
C 	C 	0.79905 0.70603 0.48189 0.04100
C 	C 	0.82832 0.77033 0.48133 -0.06200
C 	C 	0.85438 0.79632 0.44891 -0.03400
C 	C 	0.84861 0.75694 0.41579 0.05300
C 	C 	0.82185 0.69337 0.41706 -0.07400
C 	C 	0.77139 0.67897 0.51706 -0.17900
H 	H 	0.83218 0.80054 0.50650 0.03900
C 	C 	0.87296 0.78297 0.37968 -0.18500
H 	H 	0.81988 0.66366 0.39242 0.04400
H 	H 	0.86921 0.55606 0.51565 0.06100
H 	H 	0.84273 0.49123 0.47699 0.07300
H 	H 	0.79889 0.47879 0.51664 0.06000
H 	H 	0.68540 0.58505 0.38424 0.06000
H 	H 	0.66362 0.59850 0.42979 0.05900
H 	H 	0.61625 0.52087 0.39986 0.05500
H 	H 	0.76972 0.71273 0.53736 0.05700
H 	H 	0.80118 0.66802 0.53340 0.06200
H 	H 	0.72171 0.63498 0.50760 0.06200
H 	H 	0.92589 0.81122 0.38497 0.06300
H 	H 	0.85880 0.81345 0.37210 0.06400
H 	H 	0.85285 0.74432 0.35394 0.05900
C 	C 	0.83902 0.16696 0.45831 -0.09700
C 	C 	0.79443 0.10081 0.45077 0.00900
C 	C 	0.72843 0.07256 0.44625 0.01400
C 	C 	0.70821 0.11111 0.45099 -0.01100
C 	C 	0.75292 0.17732 0.46000 -0.11700
C 	C 	0.81895 0.20560 0.46334 0.09300
C 	C 	0.81759 0.06152 0.45023 -0.01000
C 	C 	0.67966 0.00145 0.43799 -0.15300
H 	H 	0.65764 0.08953 0.44842 0.03200
C 	C 	0.86818 0.27667 0.47290 -0.19800
H 	H 	0.88959 0.18835 0.46122 0.04900
C 	C 	0.83220 0.04438 0.41565 0.03700
C 	C 	0.85746 0.01010 0.41662 -0.05000
C 	C 	0.86816 0.99277 0.45154 -0.04600
C 	C 	0.85255 0.00902 0.48596 0.06500
C 	C 	0.82723 0.04321 0.48498 -0.07900
C 	C 	0.82275 0.06415 0.37808 -0.17800
H 	H 	0.86976 0.99772 0.39032 0.03500
C 	C 	0.86371 0.99083 0.52383 -0.20000
H 	H 	0.81567 0.05627 0.51138 0.04400
H 	H 	0.91767 0.29077 0.47827 0.06000
H 	H 	0.86163 0.29665 0.49982 0.05100
H 	H 	0.86352 0.29775 0.44803 0.07700
H 	H 	0.68371 0.98214 0.46403 0.05300
H 	H 	0.68759 0.98021 0.41242 0.05400
H 	H 	0.63009 0.98688 0.43111 0.04900
H 	H 	0.83163 0.04288 0.35302 0.05900
H 	H 	0.85632 0.11650 0.38148 0.06400
H 	H 	0.77288 0.04856 0.37072 0.06300
H 	H 	0.84981 0.00777 0.54817 0.06300
H 	H 	0.91518 0.01194 0.53243 0.06800
H 	H 	0.83490 0.93847 0.52012 0.06500
C 	C 	0.17093 0.05699 0.50624 -0.07300
C 	C 	0.19957 0.07191 0.47308 -0.01400
C 	C 	0.16154 0.05399 0.43574 0.04200
C 	C 	0.09518 0.02088 0.43217 -0.06300
C 	C 	0.06655 0.00594 0.46531 -0.03100
C 	C 	0.10469 0.02492 0.50275 0.05100
C 	C 	0.26970 0.10722 0.47772 0.00900
C 	C 	0.19145 0.06937 0.39968 -0.18000
H 	H 	0.06562 0.00615 0.40352 0.04100
C 	C 	0.07482 0.01014 0.53883 -0.17900
H 	H 	0.20038 0.07089 0.53482 0.04400
C 	C 	0.31064 0.17409 0.48586 0.02000
C 	C 	0.37623 0.20649 0.48609 -0.01300
C 	C 	0.40140 0.17305 0.47845 -0.10900
C 	C 	0.36083 0.10613 0.47191 0.09400
C 	C 	0.29524 0.07374 0.47199 -0.09600
C 	C 	0.28434 0.21095 0.49344 -0.16900
H 	H 	0.40769 0.25786 0.49163 0.03600
C 	C 	0.38696 0.06916 0.46412 -0.20000
H 	H 	0.26367 0.02237 0.46643 0.04900
H 	H 	0.11163 0.03343 0.56612 0.05800
H 	H 	0.04428 0.95820 0.53783 0.05900
H 	H 	0.04513 0.02726 0.54038 0.06100
H 	H 	0.21350 0.04466 0.39494 0.06300
H 	H 	0.22876 0.12125 0.40327 0.06200
H 	H 	0.15556 0.05425 0.37298 0.05800
H 	H 	0.32279 0.26286 0.50025 0.05700
H 	H 	0.25953 0.19767 0.51882 0.06100
H 	H 	0.25001 0.20059 0.46715 0.05900
H 	H 	0.34838 0.01728 0.45720 0.06200
H 	H 	0.42114 0.07926 0.49041 0.07100
H 	H 	0.41179 0.08247 0.43874 0.06000
C 	C 	0.90008 0.79252 0.96133 -0.07300
C 	C 	0.89563 0.77208 0.99730 -0.01500
C 	C 	0.92432 0.81672 0.03275 0.04300
C 	C 	0.95741 0.88137 0.03161 -0.06000
C 	C 	0.96155 0.90173 0.99564 -0.03400
C 	C 	0.93204 0.85700 0.96020 0.05200
C 	C 	0.85984 0.70359 0.99755 0.00600
C 	C 	0.92019 0.79563 0.07174 -0.18000
H 	H 	0.98014 0.91595 0.05871 0.04100
C 	C 	0.93520 0.87795 0.92121 -0.18400
H 	H 	0.87800 0.75801 0.93422 0.04400
C 	C 	0.79274 0.66452 0.99440 0.02000
C 	C 	0.75979 0.59944 0.99379 -0.01400
C 	C 	0.79302 0.57313 0.99702 -0.11100
C 	C 	0.86041 0.61258 0.00119 0.09500
C 	C 	0.89311 0.67736 0.00055 -0.09300
C 	C 	0.75609 0.69186 0.99104 -0.17200
H 	H 	0.70812 0.56908 0.99058 0.03500
C 	C 	0.89758 0.58595 0.00606 -0.19700
H 	H 	0.94463 0.70760 0.00283 0.04900
H 	H 	0.90552 0.83693 0.89648 0.05800
H 	H 	0.98537 0.90655 0.91654 0.06100
H 	H 	0.91730 0.90689 0.92049 0.06100
H 	H 	0.94536 0.77371 0.07466 0.06200
H 	H 	0.86934 0.76055 0.07399 0.06200
H 	H 	0.94247 0.83595 0.09668 0.05800
H 	H 	0.70464 0.65603 0.99167 0.05600
H 	H 	0.75959 0.70930 0.96300 0.06100
H 	H 	0.77587 0.73173 0.01587 0.06100
H 	H 	0.94969 0.62419 0.01557 0.06100
H 	H 	0.89008 0.55743 0.97774 0.06900
H 	H 	0.88189 0.55570 0.02873 0.05900
C 	C 	0.80284 0.13523 0.00011 -0.09000
C 	C 	0.86978 0.17657 0.00686 0.00500
C 	C 	0.90168 0.24267 0.01309 0.01900
C 	C 	0.86584 0.26634 0.01135 -0.01600
C 	C 	0.79874 0.22498 0.00277 -0.11200
C 	C 	0.76685 0.15867 0.99723 0.08600
C 	C 	0.90590 0.14999 0.00452 -0.01000
C 	C 	0.97371 0.28791 0.01964 -0.16700
H 	H 	0.89021 0.31707 0.01560 0.03300
C 	C 	0.69478 0.11269 0.98740 -0.19800
H 	H 	0.77871 0.08454 0.99585 0.04600
C 	C 	0.92559 0.13532 0.03806 0.04100
C 	C 	0.95808 0.10833 0.03464 -0.05900
C 	C 	0.96981 0.09462 0.99811 -0.03400
C 	C 	0.94888 0.10810 0.96442 0.05200
C 	C 	0.91815 0.13685 0.96808 -0.07700
C 	C 	0.91042 0.14660 0.07718 -0.17900
H 	H 	0.97356 0.09719 0.06032 0.04200
C 	C 	0.95931 0.09208 0.92463 -0.18200
H 	H 	0.90282 0.14817 0.94243 0.04200
H 	H 	0.67805 0.06298 0.97952 0.06000
H 	H 	0.67598 0.12312 0.96191 0.05300
H 	H 	0.67433 0.11595 0.01313 0.07900
H 	H 	0.99041 0.28243 0.99255 0.05700
H 	H 	0.99512 0.27816 0.04412 0.05900
H 	H 	0.99148 0.33798 0.02728 0.05500
H 	H 	0.93150 0.13518 0.10082 0.05900
H 	H 	0.85779 0.11632 0.07542 0.06400
H 	H 	0.92994 0.19708 0.08554 0.06300
H 	H 	0.93296 0.09796 0.90080 0.05800
H 	H 	0.94202 0.04201 0.91880 0.06200
H 	H 	0.01101 0.12375 0.92343 0.06000
C 	C 	0.24045 0.11054 0.94518 -0.07300
C 	C 	0.28977 0.15903 0.97523 -0.01500
C 	C 	0.27540 0.18530 0.00565 0.04500
C 	C 	0.21133 0.15600 0.00887 -0.06200
C 	C 	0.16175 0.10434 0.98028 -0.03200
C 	C 	0.17650 0.08471 0.94664 0.05000
C 	C 	0.35574 0.17933 0.97597 0.00600
C 	C 	0.32805 0.24330 0.03523 -0.18100
H 	H 	0.20005 0.17266 0.03394 0.04100
C 	C 	0.12446 0.03484 0.91298 -0.17800
H 	H 	0.25178 0.09216 0.92099 0.04300
C 	C 	0.38195 0.15845 0.00145 0.02300
C 	C 	0.44758 0.18670 0.00652 -0.01600
C 	C 	0.48610 0.23159 0.98404 -0.11400
C 	C 	0.45717 0.24433 0.95392 0.09400
C 	C 	0.39289 0.22057 0.95151 -0.09700
C 	C 	0.34055 0.10720 0.02390 -0.17100
H 	H 	0.46888 0.17470 0.02852 0.04300
C 	C 	0.49388 0.28229 0.92413 -0.19800
H 	H 	0.37174 0.23409 0.93056 0.04900
H 	H 	0.10588 0.98707 0.91896 0.05500
H 	H 	0.14313 0.04015 0.88520 0.05800
H 	H 	0.08462 0.03890 0.90843 0.06100
H 	H 	0.36523 0.27929 0.02034 0.06500
H 	H 	0.35032 0.23022 0.05679 0.06200
H 	H 	0.30939 0.26560 0.05137 0.05900
H 	H 	0.36489 0.08766 0.03609 0.05900
H 	H 	0.29523 0.06731 0.00433 0.06300
H 	H 	0.32936 0.12657 0.04857 0.06100
H 	H 	0.46092 0.27068 0.89666 0.06300
H 	H 	0.52696 0.27153 0.91614 0.06300
H 	H 	0.52141 0.33366 0.93611 0.07200
