data_crystal

_cell_length_a 21.76550
_cell_length_b 23.61432
_cell_length_c 39.83649
_cell_angle_alpha 60.73005
_cell_angle_beta  118.98515
_cell_angle_gamma 133.16150

_symmetry_space_group_name_	'P 1'
_symmetry_space_group_name_H-M	'P 1'

loop_
_symmetry_equiv_pos_as_xyz
  x,y,z

loop_
_atom_site_label
_atom_site_type_symbol
_atom_site_fract_x
_atom_site_fract_y
_atom_site_fract_z
_atom_site_charge
C 	C 	0.24789 0.60383 0.18829 0.04600
C 	C 	0.33583 0.65938 0.18710 -0.08000
C 	C 	0.32993 0.56101 0.17853 -0.08200
C 	C 	0.24179 0.50607 0.17757 0.04600
C 	C 	0.19968 0.52684 0.18262 -0.08000
H 	H 	0.36205 0.54499 0.17463 0.05900
H 	H 	0.13091 0.48469 0.18158 0.05600
C 	C 	0.25381 0.65980 0.64419 0.04800
C 	C 	0.19546 0.58591 0.63337 -0.07800
C 	C 	0.22833 0.55726 0.62739 0.04800
C 	C 	0.31683 0.60245 0.63133 -0.08000
C 	C 	0.34332 0.70188 0.65007 -0.07900
H 	H 	0.12637 0.55185 0.62955 0.05800
H 	H 	0.34174 0.58081 0.62628 0.06100
Co	Co	0.07346 0.01876 0.05812 1.16400
Co	Co	0.01252 0.07411 0.09256 1.17500
C 	C 	0.24682 0.04111 0.08424 0.26300
Co	Co	0.09325 0.89431 0.05899 1.17600
O 	O 	0.07629 0.11045 0.05378 -0.47000
C 	C 	0.09954 0.16800 0.15407 0.31500
C 	C 	0.08373 0.78965 0.13970 0.32500
O 	O 	0.13257 0.99505 0.01252 -0.34600
O 	O 	0.04691 0.10530 0.17703 -0.41100
O 	O 	0.11132 0.15955 0.12720 -0.38400
O 	O 	0.06081 0.79052 0.10289 -0.41100
O 	O 	0.06872 0.82429 0.14992 -0.38100
O 	O 	0.04425 0.92436 0.07619 -0.74400
O 	O 	0.21096 0.96406 0.09326 -0.35100
O 	O 	0.20635 0.06745 0.08209 -0.38800
Co	Co	0.03989 0.02573 0.54275 1.16700
Co	Co	0.96838 0.06525 0.58014 1.17600
C 	C 	0.21384 0.10600 0.53705 0.34000
Co	Co	0.10409 0.93268 0.54575 1.17900
O 	O 	0.01288 0.09992 0.53397 -0.47100
C 	C 	0.03181 0.19569 0.61038 0.32300
C 	C 	0.18392 0.90628 0.62975 0.31700
O 	O 	0.99942 0.90849 0.49787 -0.38800
O 	O 	0.95382 0.14855 0.61585 -0.41000
O 	O 	0.05745 0.17075 0.59962 -0.39300
O 	O 	0.20252 0.95788 0.59606 -0.37800
O 	O 	0.13659 0.90007 0.64493 -0.37500
O 	O 	0.04425 0.94588 0.56726 -0.73100
O 	O 	0.17049 0.05282 0.51740 -0.43600
O 	O 	0.17278 0.10500 0.55313 -0.41700
C 	C 	0.03628 0.00563 0.83014 -0.01600
C 	C 	0.10495 0.07184 0.81096 -0.00500
C 	C 	0.10667 0.06942 0.77667 -0.00400
S 	S 	0.19039 0.15733 0.82993 -0.03800
H 	H 	0.15628 0.12254 0.76073 0.04100
C 	C 	0.05781 0.95371 0.90375 0.00400
S 	S 	0.07243 0.87510 0.98126 -0.08100
H 	H 	0.07094 0.91909 0.90145 0.04800
H 	H 	0.99562 0.80034 0.98049 0.05100
H 	H 	0.17184 0.21204 0.81229 0.04000
C 	C 	0.03359 0.02332 0.29975 -0.03000
C 	C 	0.04187 0.01452 0.26993 -0.06500
S 	S 	0.06329 0.11684 0.29534 -0.04600
H 	H 	0.07715 0.06725 0.24838 0.05700
C 	C 	0.06161 0.03508 0.41545 0.01200
C 	C 	0.06567 0.02067 0.38639 -0.11000
S 	S 	0.14773 0.12532 0.43000 -0.03500
H 	H 	0.12732 0.05633 0.37941 0.05600
H 	H 	0.13391 0.18298 0.40520 0.03900
H 	H 	0.99324 0.11960 0.27407 0.03000
C 	C 	0.08189 0.27850 0.60972 -0.10800
C 	C 	0.11213 0.34345 0.61139 0.06300
C 	C 	0.14289 0.41627 0.61538 -0.02200
C 	C 	0.17460 0.47914 0.62022 -0.01400
C 	C 	0.22334 0.69687 0.64624 -0.01100
C 	C 	0.20731 0.73624 0.64727 -0.01800
C 	C 	0.19577 0.78990 0.64628 0.06800
C 	C 	0.18942 0.84065 0.64181 -0.10700
C 	C 	0.13090 0.24561 0.15363 -0.11100
C 	C 	0.14994 0.30486 0.15678 0.06100
C 	C 	0.17131 0.37156 0.16310 -0.02300
C 	C 	0.19618 0.43031 0.16960 -0.01500
C 	C 	0.11832 0.74409 0.16797 -0.10100
C 	C 	0.14566 0.70447 0.18145 0.06300
C 	C 	0.17689 0.66159 0.18841 -0.01700
C 	C 	0.20589 0.63085 0.18978 -0.01300
C 	C 	0.46711 0.20310 0.56956 -0.03300
C 	C 	0.38063 0.17424 0.56023 0.07400
C 	C 	0.30516 0.14640 0.55047 -0.13400
C 	C 	0.46538 0.18738 0.04605 -0.02400
C 	C 	0.39084 0.13934 0.06020 0.05100
C 	C 	0.32624 0.09682 0.07185 -0.10500
C 	C 	0.73504 0.31803 0.01468 0.04500
C 	C 	0.64873 0.26295 0.01830 -0.08200
C 	C 	0.60966 0.28796 0.02167 0.04800
C 	C 	0.65432 0.36830 0.01896 -0.08200
C 	C 	0.74173 0.42254 0.01839 0.04800
C 	C 	0.78281 0.39801 0.01589 -0.08000
H 	H 	0.61356 0.20027 0.02028 0.05300
H 	H 	0.62299 0.38732 0.02096 0.06000
H 	H 	0.85104 0.43970 0.01582 0.05800
C 	C 	0.73702 0.28312 0.56473 0.04600
C 	C 	0.79811 0.36045 0.57171 -0.08000
C 	C 	0.77437 0.38779 0.58470 0.04700
C 	C 	0.69271 0.33706 0.59228 -0.08100
C 	C 	0.62991 0.26482 0.58130 0.04500
C 	C 	0.65216 0.23683 0.56829 -0.08200
H 	H 	0.86254 0.39861 0.56697 0.05800
H 	H 	0.67491 0.35806 0.60258 0.05900
H 	H 	0.60347 0.17941 0.56069 0.05200
C 	C 	0.37575 0.63825 0.18123 0.05000
H 	H 	0.37199 0.71981 0.18915 0.06300
C 	C 	0.37419 0.67283 0.64361 0.05100
H 	H 	0.38857 0.75778 0.65894 0.06300
Co	Co	0.92605 0.91065 0.14568 1.19300
Co	Co	0.98128 0.85403 0.10921 1.18500
Co	Co	0.91725 0.03617 0.15179 1.15600
C 	C 	0.90709 0.76434 0.04758 0.31100
O 	O 	0.93789 0.13638 0.10587 -0.41300
O 	O 	0.95144 0.00374 0.12685 -0.78400
C 	C 	0.90974 0.13600 0.06867 0.32000
O 	O 	0.91844 0.81756 0.14826 -0.45900
C 	C 	0.75595 0.88364 0.13418 0.31500
O 	O 	0.97559 0.95777 0.09239 -0.55500
C 	C 	0.07587 0.00778 0.98590 0.19400
O 	O 	0.92926 0.10935 0.05545 -0.38800
O 	O 	0.03651 0.01802 0.99743 -0.36500
O 	O 	0.79329 0.96127 0.12320 -0.37000
O 	O 	0.79359 0.85309 0.13801 -0.37000
C 	C 	0.95494 0.92896 0.22293 0.28700
O 	O 	0.89547 0.94141 0.20171 -0.38500
O 	O 	0.98769 0.92278 0.20502 -0.36600
O 	O 	0.96674 0.82936 0.02802 -0.38100
O 	O 	0.89249 0.76663 0.07593 -0.36800
Co	Co	0.95463 0.93166 0.65145 1.19400
Co	Co	0.01918 0.88794 0.61228 1.18300
Co	Co	0.89842 0.03134 0.64919 1.15500
C 	C 	0.96650 0.76220 0.58140 0.32300
O 	O 	0.79371 0.99788 0.60158 -0.33900
O 	O 	0.94362 0.00740 0.62517 -0.78000
C 	C 	0.80563 0.04807 0.56671 0.26400
O 	O 	0.97941 0.85612 0.65960 -0.45500
C 	C 	0.79311 0.85545 0.67111 0.33400
O 	O 	0.96960 0.96211 0.59091 -0.55700
C 	C 	0.99223 0.96651 0.47202 0.32500
O 	O 	0.85456 0.06045 0.54956 -0.37300
O 	O 	0.99358 0.01236 0.48361 -0.40000
O 	O 	0.84118 0.91725 0.68535 -0.39600
O 	O 	0.82618 0.84744 0.65488 -0.38300
C 	C 	0.02457 0.00989 0.71850 0.24900
O 	O 	0.01084 0.06416 0.69290 -0.39100
O 	O 	0.02781 0.96802 0.70627 -0.33200
O 	O 	0.04421 0.81208 0.57466 -0.40000
O 	O 	0.94001 0.78196 0.59513 -0.38300
C 	C 	0.97470 0.93528 0.81640 -0.03400
C 	C 	0.04244 0.00040 0.76173 -0.11900
C 	C 	0.97979 0.93138 0.78362 0.08300
C 	C 	0.03851 0.00278 0.86951 -0.04900
S 	S 	0.91062 0.83863 0.77188 -0.02900
H 	H 	0.92480 0.88234 0.83222 0.05300
C 	C 	0.01870 0.04585 0.87277 0.03000
C 	C 	0.02510 0.04355 0.91066 -0.09400
C 	C 	0.04644 0.99513 0.94533 0.03500
C 	C 	0.05829 0.94659 0.94091 0.02200
S 	S 	0.98412 0.10104 0.83006 -0.05000
H 	H 	0.01516 0.08052 0.91297 0.06300
H 	H 	0.95000 0.80043 0.79184 0.04500
H 	H 	0.89588 0.05209 0.81707 0.03100
C 	C 	0.96214 0.88059 0.32941 -0.06300
C 	C 	0.99425 0.95593 0.33042 0.04200
C 	C 	0.99507 0.93817 0.26465 -0.02900
C 	C 	0.95899 0.87097 0.29600 0.04200
C 	C 	0.98976 0.96449 0.36454 0.05200
S 	S 	0.90759 0.77445 0.29336 -0.03200
H 	H 	0.93676 0.82899 0.35377 0.05400
C 	C 	0.90998 0.91940 0.37425 -0.00700
C 	C 	0.90908 0.92536 0.40771 -0.00500
C 	C 	0.98544 0.98174 0.42942 -0.04300
S 	S 	0.81083 0.85858 0.34408 -0.02000
H 	H 	0.84923 0.88502 0.41720 0.04700
H 	H 	0.82175 0.74163 0.27486 0.04200
H 	H 	0.78858 0.78232 0.35781 0.03600
C 	C 	0.46510 0.71365 0.65028 -0.00900
C 	C 	0.53970 0.74317 0.65509 -0.02200
C 	C 	0.62634 0.77657 0.66031 0.07700
C 	C 	0.70167 0.80879 0.66495 -0.11600
C 	C 	0.67429 0.83111 0.14418 -0.10300
C 	C 	0.60704 0.78990 0.15338 0.06700
C 	C 	0.52850 0.74184 0.16422 -0.01800
C 	C 	0.45995 0.69758 0.17278 -0.01200
C 	C 	0.76179 0.24745 0.55741 -0.01900
C 	C 	0.77531 0.20942 0.55338 -0.02200
C 	C 	0.78613 0.15757 0.55221 0.05200
C 	C 	0.79425 0.10901 0.55562 -0.10500
C 	C 	0.82596 0.47065 0.58432 -0.01400
C 	C 	0.85847 0.53733 0.58429 -0.02100
C 	C 	0.89072 0.61354 0.58412 0.06500
C 	C 	0.92065 0.67982 0.58340 -0.10500
C 	C 	0.54089 0.22881 0.57579 -0.01400
C 	C 	0.77702 0.28880 0.01564 -0.01600
C 	C 	0.80789 0.25809 0.01913 -0.02400
C 	C 	0.84224 0.21686 0.02813 0.05900
C 	C 	0.87223 0.17945 0.04214 -0.11100
C 	C 	0.78939 0.49985 0.02493 -0.01500
C 	C 	0.81835 0.56043 0.03107 -0.02000
C 	C 	0.84580 0.62890 0.03816 0.06100
C 	C 	0.87016 0.68852 0.04334 -0.10300
C 	C 	0.53003 0.23058 0.03432 -0.01900
