data_crystal

_cell_length_a 26.48402
_cell_length_b 26.35931
_cell_length_c 45.03417
_cell_angle_alpha 95.50756
_cell_angle_beta  95.50674
_cell_angle_gamma 125.80474

_symmetry_space_group_name_	'P 1'
_symmetry_space_group_name_H-M	'P 1'

loop_
_symmetry_equiv_pos_as_xyz
  x,y,z

loop_
_atom_site_label
_atom_site_type_symbol
_atom_site_fract_x
_atom_site_fract_y
_atom_site_fract_z
_atom_site_charge
C 	C 	0.89188 0.05847 0.45361 0.05300
C 	C 	0.14753 0.08230 0.50924 -0.06200
C 	C 	0.95390 0.06286 0.04575 -0.18400
H 	H 	0.00391 0.08105 0.04623 0.06300
C 	C 	0.96486 0.02055 0.98545 0.05100
C 	C 	0.05759 0.02264 0.98392 0.05200
C 	C 	0.00617 0.05053 0.48312 -0.09500
C 	C 	0.87295 0.09836 0.45460 -0.07300
C 	C 	0.90922 0.04562 0.48096 -0.03400
H 	H 	0.86107 0.10965 0.43375 0.04600
C 	C 	0.21267 0.11675 0.50928 0.04300
C 	C 	0.10425 0.05852 0.48190 -0.03300
C 	C 	0.25864 0.14210 0.53893 -0.18100
H 	H 	0.26452 0.04168 0.49039 0.06100
H 	H 	0.28680 0.12336 0.53832 0.06500
C 	C 	0.93669 0.05486 0.98851 -0.03400
C 	C 	0.92849 0.07277 0.01722 0.05300
H 	H 	0.88600 0.10970 0.04089 0.04500
C 	C 	0.73207 0.01791 0.98570 -0.16300
H 	H 	0.95288 0.08857 0.06645 0.06000
H 	H 	0.73877 0.00117 0.96390 0.05700
C 	C 	0.14424 0.03736 0.95920 -0.05600
C 	C 	0.22613 0.03461 0.93653 -0.17400
H 	H 	0.24870 0.01538 0.94813 0.06300
H 	H 	0.25969 0.07062 0.92387 0.06100
C 	C 	0.02877 0.05351 0.98292 -0.09500
H 	H 	0.03383 0.10164 0.48445 0.05200
C 	C 	0.28875 0.05848 0.47085 -0.16900
H 	H 	0.31734 0.04046 0.46870 0.05700
H 	H 	0.29120 0.19494 0.54287 0.06500
C 	C 	0.89460 0.09821 0.01907 -0.07400
C 	C 	0.20836 0.06408 0.95968 0.03900
C 	C 	0.12594 0.05790 0.98299 -0.03500
C 	C 	0.90398 0.06977 0.50866 -0.06100
H 	H 	0.91678 0.05926 0.52955 0.04100
H 	H 	0.75382 0.09322 0.48095 0.04900
H 	H 	0.67507 0.10706 0.48811 0.05900
C 	C 	0.12615 0.06967 0.45415 0.05200
H 	H 	0.25263 0.03768 0.44971 0.06100
C 	C 	0.91515 0.06699 0.96243 -0.06100
C 	C 	0.76554 0.08883 0.99028 0.01700
H 	H 	0.67862 0.07980 0.98322 0.03200
C 	C 	0.87050 0.12487 0.48244 -0.01300
C 	C 	0.23453 0.12753 0.48151 -0.01400
C 	C 	0.08020 0.04459 0.42451 -0.17900
C 	C 	0.87089 0.10802 0.99283 -0.01300
H 	H 	0.92259 0.05424 0.94053 0.04100
H 	H 	0.05628 0.10325 0.98094 0.05100
C 	C 	0.88320 0.09452 0.96443 0.04100
C 	C 	0.72994 0.11259 0.98879 -0.01500
C 	C 	0.88472 0.10938 0.50965 0.04100
C 	C 	0.78902 0.14394 0.48223 -0.09400
C 	C 	0.32937 0.13022 0.47567 0.01900
C 	C 	0.19131 0.10454 0.45422 -0.07300
H 	H 	0.10474 0.05596 0.40480 0.05900
H 	H 	0.32009 0.08820 0.01829 0.05100
H 	H 	0.45387 0.10428 0.02465 0.08200
C 	C 	0.83238 0.13166 0.99521 0.01000
C 	C 	0.25521 0.11574 0.98300 -0.01100
H 	H 	0.80905 0.07793 0.93070 0.05900
C 	C 	0.17285 0.10779 0.00708 0.05300
C 	C 	0.85254 0.16857 0.48291 0.00800
C 	C 	0.30273 0.16285 0.48078 0.01000
H 	H 	0.05470 0.06623 0.42465 0.06100
H 	H 	0.11636 0.08627 0.04224 0.06300
H 	H 	0.75139 0.00624 0.00462 0.06100
C 	C 	0.70259 0.15703 0.48447 -0.19200
C 	C 	0.77090 0.18445 0.48389 0.09000
H 	H 	0.97153 0.24102 0.46339 0.06200
H 	H 	0.68009 0.15753 0.46250 0.06800
C 	C 	0.39412 0.16494 0.47466 -0.01300
H 	H 	0.41475 0.14012 0.47048 0.02800
H 	H 	0.20848 0.11335 0.43301 0.04400
C 	C 	0.86162 0.10858 0.93623 -0.17800
H 	H 	0.87893 0.09963 0.91633 0.05800
C 	C 	0.23717 0.13814 0.00609 -0.07500
C 	C 	0.32296 0.14287 0.98505 0.00900
C 	C 	0.34965 0.12356 0.00509 -0.09900
H 	H 	0.29648 0.17924 0.93081 0.05900
H 	H 	0.41064 0.11306 0.05040 0.06600
C 	C 	0.88032 0.13573 0.53972 -0.17900
H 	H 	0.83095 0.11936 0.53953 0.06100
C 	C 	0.15484 0.12833 0.03402 -0.18500
C 	C 	0.41467 0.15157 0.00928 0.09900
C 	C 	0.44346 0.13681 0.03442 -0.20500
C 	C 	0.89864 0.23455 0.48437 0.01900
H 	H 	0.89376 0.11976 0.55888 0.05800
H 	H 	0.69959 0.18515 0.50326 0.03100
C 	C 	0.34098 0.22944 0.48493 -0.09800
C 	C 	0.96715 0.26182 0.48474 -0.16900
C 	C 	0.76033 0.17844 0.99321 -0.11800
C 	C 	0.36138 0.18982 0.96827 0.01900
H 	H 	0.13899 0.15720 0.02760 0.06100
H 	H 	0.32014 0.25416 0.48875 0.05000
C 	C 	0.86274 0.19741 0.00164 -0.10000
H 	H 	0.19563 0.15772 0.05333 0.06000
O 	O 	0.66940 0.17792 0.99647 -0.37800
H 	H 	0.88018 0.15937 0.93989 0.06100
C 	C 	0.33557 0.21694 0.94939 -0.16900
H 	H 	0.98542 0.25081 0.50439 0.05900
H 	H 	0.27332 0.17763 0.02401 0.04400
C 	C 	0.45228 0.19475 0.99055 -0.11400
O 	O 	0.54299 0.19298 0.00120 -0.37200
H 	H 	0.54927 0.21064 0.79215 0.03400
H 	H 	0.55005 0.21962 0.73812 0.03700
C 	C 	0.43239 0.23154 0.47879 -0.11300
H 	H 	0.60522 0.15176 0.20017 0.03800
H 	H 	0.91266 0.18859 0.54400 0.06100
H 	H 	0.60445 0.15666 0.14565 0.03700
C 	C 	0.42498 0.21320 0.97010 -0.01700
H 	H 	0.48750 0.18128 0.04799 0.08300
H 	H 	0.23383 0.12782 0.55848 0.06000
C 	C 	0.81681 0.25038 0.48490 -0.11700
C 	C 	0.72252 0.20183 0.98633 0.29700
C 	C 	0.40599 0.26427 0.48457 0.10200
H 	H 	0.58025 0.21184 0.94700 0.17100
H 	H 	0.13037 0.07369 0.53046 0.04200
H 	H 	0.59429 0.23953 0.45425 0.15900
C 	C 	0.63926 0.19648 0.19339 -0.04500
H 	H 	0.92470 0.01133 0.04664 0.06200
C 	C 	0.63897 0.19921 0.16252 -0.03200
C 	C 	0.82719 0.22120 0.00155 0.09900
C 	C 	0.52097 0.22457 0.99364 0.29100
H 	H 	0.91410 0.23012 0.00633 0.05000
H 	H 	0.31739 0.23708 0.96390 0.06100
C 	C 	0.88030 0.27500 0.48533 -0.01200
Cu	Cu	0.67781 0.22663 0.93500 0.86900
O 	O 	0.53735 0.26786 0.49988 -0.38500
O 	O 	0.63762 0.23339 0.89982 -0.42500
H 	H 	0.54644 0.29147 0.64564 0.03600
Cu	Cu	0.63408 0.22683 0.00060 0.92700
C 	C 	0.50000 0.26638 0.47761 0.29900
C 	C 	0.58146 0.25681 0.78614 -0.03300
C 	C 	0.58188 0.26190 0.75554 -0.04500
O 	O 	0.62460 0.23573 0.95785 -0.64300
H 	H 	0.45374 0.24705 0.95614 0.03500
H 	H 	0.53705 0.29338 0.69975 0.03800
O 	O 	0.65656 0.23403 0.04336 -0.36700
O 	O 	0.67641 0.27868 0.55344 -0.43600
O 	O 	0.73883 0.24199 0.96764 -0.44700
H 	H 	0.37262 0.25570 0.93897 0.05700
H 	H 	0.94668 0.05579 0.42198 0.06100
C 	C 	0.03603 0.02091 0.48243 0.05200
H 	H 	0.57993 0.22296 0.23952 0.03800
C 	C 	0.61999 0.23717 0.25648 -0.04400
C 	C 	0.68175 0.25195 0.21542 0.00800
C 	C 	0.67573 0.25137 0.24765 0.00700
C 	C 	0.61676 0.24369 0.28726 -0.03300
H 	H 	0.57415 0.23424 0.29388 0.03500
H 	H 	0.87365 0.03971 0.40413 0.06000
C 	C 	0.72730 0.26979 0.26986 -0.04500
C 	C 	0.68119 0.25733 0.15350 -0.01000
C 	C 	0.94039 0.01407 0.48117 0.05200
C 	C 	0.66918 0.26449 0.30943 -0.00900
H 	H 	0.77035 0.28038 0.26328 0.03800
O 	O 	0.62334 0.28621 0.46157 -0.64200
C 	C 	0.89616 0.03203 0.42352 -0.18000
O 	O 	0.75714 0.28489 0.46391 -0.37200
C 	C 	0.72403 0.27638 0.30067 -0.03200
C 	C 	0.67348 0.26248 0.12211 0.04300
C 	C 	0.66695 0.26671 0.09581 -0.11000
C 	C 	0.66853 0.27863 0.34101 0.04400
C 	C 	0.79888 0.29383 0.48634 0.29800
C 	C 	0.58645 0.30575 0.66267 -0.03100
C 	C 	0.65684 0.27218 0.06479 0.30500
C 	C 	0.66781 0.29042 0.36744 -0.10700
H 	H 	0.76465 0.29222 0.31769 0.03900
C 	C 	0.64550 0.28639 0.89612 0.30600
O 	O 	0.56037 0.28377 0.99004 -0.39900
C 	C 	0.58113 0.30684 0.69329 -0.04600
O 	O 	0.52261 0.30129 0.45640 -0.40200
C 	C 	0.63738 0.29621 0.86578 -0.11600
C 	C 	0.86094 0.29207 0.00972 -0.20200
O 	O 	0.70573 0.30527 0.41959 -0.36400
C 	C 	0.65849 0.31235 0.56478 0.30800
Cu	Cu	0.62747 0.31273 0.50333 0.90900
C 	C 	0.66781 0.30633 0.39880 0.30700
C 	C 	0.63187 0.30319 0.83990 0.04300
H 	H 	0.99750 0.31440 0.48670 0.05700
Cu	Cu	0.74702 0.31454 0.53215 0.87100
C 	C 	0.65236 0.31568 0.59608 -0.12300
C 	C 	0.62459 0.31058 0.80887 -0.01200
H 	H 	0.83438 0.30267 0.02342 0.06900
O 	O 	0.63246 0.30241 0.05842 -0.39400
C 	C 	0.64772 0.31856 0.62245 0.04500
C 	C 	0.72624 0.30938 0.20634 -0.04500
H 	H 	0.86594 0.31212 0.98869 0.06900
C 	C 	0.64303 0.32227 0.65406 -0.01400
C 	C 	0.72595 0.31200 0.17547 -0.03300
C 	C 	0.62544 0.32088 0.74748 0.00700
H 	H 	0.90901 0.31634 0.02350 0.06300
C 	C 	0.63242 0.32444 0.71548 0.00700
H 	H 	0.91543 0.32563 0.48636 0.03200
O 	O 	0.68969 0.32633 0.00459 -0.64200
O 	O 	0.81288 0.33022 0.51233 -0.43300
Cu	Cu	0.67245 0.33001 0.96290 0.89600
H 	H 	0.10823 0.99862 0.94097 0.03700
H 	H 	0.68037 0.99137 0.98515 0.05300
H 	H 	0.18400 0.99486 0.91970 0.05500
H 	H 	0.04529 0.99200 0.42120 0.05800
C 	C 	0.92844 0.95542 0.98646 -0.09800
C 	C 	0.95658 0.92403 0.98651 0.04900
C 	C 	0.02124 0.95781 0.98566 -0.09800
H 	H 	0.87869 0.92958 0.98777 0.05100
H 	H 	0.04322 0.93371 0.98634 0.05100
C 	C 	0.90446 0.94776 0.47889 -0.09800
C 	C 	0.93452 0.91812 0.47837 0.04900
C 	C 	0.00046 0.95502 0.48078 -0.09800
H 	H 	0.85345 0.91937 0.47702 0.05100
H 	H 	0.02376 0.93221 0.48043 0.05100
Cu	Cu	0.64485 0.34961 0.02435 0.89200
O 	O 	0.72362 0.42185 0.97054 -0.38900
C 	C 	0.71717 0.45726 0.99027 0.30000
O 	O 	0.68572 0.43514 0.01267 -0.40100
O 	O 	0.66937 0.33413 0.91919 -0.39100
H 	H 	0.73534 0.35135 0.01349 0.16100
Cu	Cu	0.72101 0.33401 0.46247 0.92300
Cu	Cu	0.60326 0.33324 0.44151 0.89200
O 	O 	0.75961 0.42607 0.45888 -0.36400
O 	O 	0.71983 0.35278 0.50614 -0.63300
O 	O 	0.64310 0.33632 0.40558 -0.39000
C 	C 	0.73394 0.45344 0.46845 0.28900
O 	O 	0.67625 0.41826 0.47413 -0.40100
O 	O 	0.63640 0.33384 0.54664 -0.38500
H 	H 	0.74582 0.39904 0.51429 0.15500
C 	C 	0.69462 0.34096 0.67623 -0.03200
C 	C 	0.68936 0.34200 0.70682 -0.04600
C 	C 	0.66618 0.37534 0.77028 -0.04600
C 	C 	0.66578 0.37015 0.80089 -0.03300
H 	H 	0.73853 0.35391 0.66973 0.03000
H 	H 	0.72910 0.35531 0.72374 0.03700
H 	H 	0.69944 0.42125 0.76429 0.03700
H 	H 	0.69901 0.41201 0.81835 0.03500
H 	H 	0.75938 0.35243 0.22316 0.03800
H 	H 	0.75894 0.35704 0.16866 0.03400
C 	C 	0.86549 0.74736 0.44636 -0.07400
C 	C 	0.84328 0.71840 0.47137 -0.01300
C 	C 	0.84562 0.75387 0.49779 0.04100
C 	C 	0.87337 0.81883 0.49932 -0.06100
C 	C 	0.89695 0.84814 0.47456 -0.03400
C 	C 	0.89025 0.81143 0.44735 0.05300
C 	C 	0.81607 0.65029 0.46941 0.00900
C 	C 	0.82008 0.72308 0.52458 -0.17900
H 	H 	0.87795 0.84698 0.52005 0.04000
C 	C 	0.91171 0.84090 0.41975 -0.18400
H 	H 	0.86288 0.71977 0.42599 0.04500
C 	C 	0.75310 0.60213 0.45440 0.01900
C 	C 	0.72827 0.53801 0.45307 -0.01200
C 	C 	0.76448 0.52122 0.46750 -0.11100
C 	C 	0.82754 0.56946 0.48264 0.09600
C 	C 	0.85325 0.63369 0.48287 -0.09600
C 	C 	0.71229 0.61891 0.43976 -0.16800
H 	H 	0.68016 0.50094 0.44119 0.02500
C 	C 	0.86736 0.55296 0.49871 -0.20000
H 	H 	0.90182 0.67090 0.49409 0.04900
H 	H 	0.89852 0.87330 0.41662 0.06200
H 	H 	0.88910 0.80386 0.39877 0.05900
H 	H 	0.96392 0.86812 0.42239 0.06100
H 	H 	0.85003 0.71044 0.53512 0.06200
H 	H 	0.77058 0.67932 0.51715 0.06300
H 	H 	0.81970 0.75539 0.54217 0.05800
H 	H 	0.66262 0.57605 0.43130 0.05500
H 	H 	0.73156 0.64196 0.42019 0.06100
H 	H 	0.71119 0.65194 0.45647 0.06000
H 	H 	0.87895 0.52955 0.48179 0.07600
H 	H 	0.84146 0.52056 0.51454 0.05900
H 	H 	0.91261 0.59607 0.51230 0.06100
H 	H 	0.87150 0.97993 0.42122 0.05900
C 	C 	0.44670 0.33607 0.49011 -0.20400
H 	H 	0.49000 0.35665 0.50738 0.07400
H 	H 	0.42112 0.35428 0.49872 0.06400
H 	H 	0.46052 0.35294 0.46858 0.07300
C 	C 	0.87482 0.76779 0.01472 -0.07400
C 	C 	0.84973 0.72423 0.98727 -0.01300
C 	C 	0.85751 0.74612 0.95944 0.04200
C 	C 	0.89177 0.81164 0.95958 -0.06200
C 	C 	0.91809 0.85530 0.98706 -0.03300
C 	C 	0.90929 0.83335 0.01486 0.05100
C 	C 	0.81603 0.65569 0.98788 0.00900
C 	C 	0.82955 0.69983 0.92964 -0.18000
H 	H 	0.89845 0.82879 0.93830 0.04100
C 	C 	0.93662 0.87961 0.04463 -0.18300
H 	H 	0.86818 0.75063 0.03599 0.04400
C 	C 	0.84963 0.62959 0.99092 0.01900
C 	C 	0.81643 0.56438 0.99136 -0.01200
C 	C 	0.75035 0.52507 0.98878 -0.11100
C 	C 	0.71662 0.55098 0.98509 0.09800
C 	C 	0.74998 0.61644 0.98527 -0.09700
C 	C 	0.92081 0.67125 0.99412 -0.16800
H 	H 	0.84211 0.54427 0.99407 0.03200
C 	C 	0.64531 0.50930 0.98120 -0.20100
H 	H 	0.72448 0.63681 0.98302 0.05000
H 	H 	0.92654 0.85497 0.06434 0.05900
H 	H 	0.91574 0.90585 0.04541 0.06000
H 	H 	0.98888 0.91415 0.04710 0.06200
H 	H 	0.77720 0.66643 0.92712 0.06400
H 	H 	0.84908 0.67230 0.92882 0.06300
H 	H 	0.84053 0.72460 0.90996 0.05900
H 	H 	0.93970 0.64319 0.99514 0.05600
H 	H 	0.94296 0.70759 0.01532 0.05900
H 	H 	0.93497 0.69554 0.97438 0.06000
H 	H 	0.63109 0.49563 0.00317 0.07100
H 	H 	0.62386 0.46567 0.96385 0.06900
H 	H 	0.62568 0.53430 0.97351 0.06300
