data_crystal

_cell_length_a 16.39043
_cell_length_b 15.50889
_cell_length_c 38.08400
_cell_angle_alpha 89.88473
_cell_angle_beta  89.88682
_cell_angle_gamma 119.44300

_symmetry_space_group_name_	'P 1'
_symmetry_space_group_name_H-M	'P 1'

loop_
_symmetry_equiv_pos_as_xyz
  x,y,z

loop_
_atom_site_label
_atom_site_type_symbol
_atom_site_fract_x
_atom_site_fract_y
_atom_site_fract_z
_atom_site_charge
Ni	Ni	0.08708 0.93241 0.74200 1.12000
Ni	Ni	0.06482 0.12935 0.72969 1.11800
O 	O 	0.04425 0.83269 0.24329 -0.37800
H 	H 	0.08320 0.54846 0.27658 0.15800
C 	C 	0.02460 0.35624 0.01612 0.00300
C 	C 	0.08227 0.47194 0.96692 0.01100
C 	C 	0.04247 0.31705 0.04794 0.09200
C 	C 	0.09277 0.18607 0.21443 0.30800
C 	C 	0.06098 0.19668 0.29089 0.30400
C 	C 	0.10286 0.89507 0.22043 0.33000
C 	C 	0.03854 0.88824 0.32278 0.30900
Ni	Ni	0.11272 0.05019 0.26665 1.11100
C 	C 	0.08778 0.31256 0.17358 0.17600
H 	H 	0.10031 0.41946 0.13471 0.07000
C 	C 	0.06216 0.75965 0.17590 0.18800
H 	H 	0.05244 0.64969 0.13930 0.07200
C 	C 	0.07160 0.36390 0.29224 -0.04800
O 	O 	0.07487 0.51892 0.30034 -0.27000
C 	C 	0.02003 0.75987 0.36712 -0.04000
O 	O 	0.03056 0.63490 0.40085 -0.27300
C 	C 	0.02990 0.39037 0.51039 0.00800
C 	C 	0.02835 0.40645 0.47418 -0.05800
C 	C 	0.09702 0.44317 0.00054 -0.05100
N 	N 	0.05679 0.28565 0.07334 -0.10900
O 	O 	0.11851 0.10346 0.68637 -0.38800
C 	C 	0.13595 0.28641 0.19836 -0.09800
C 	C 	0.13624 0.40184 0.15496 -0.05500
C 	C 	0.08418 0.72825 0.14468 -0.06300
C 	C 	0.12143 0.46583 0.29931 0.16900
C 	C 	0.05961 0.73297 0.39487 0.16500
H 	H 	0.09371 0.81305 0.83325 0.07100
H 	H 	0.13003 0.74107 0.90028 0.16100
C 	C 	0.09438 0.36032 0.52421 0.10000
C 	C 	0.05607 0.86022 0.35830 -0.09700
O 	O 	0.07542 0.69544 0.88590 -0.27500
C 	C 	0.11110 0.86110 0.18492 -0.11400
O 	O 	0.09655 0.14022 0.30118 -0.37400
C 	C 	0.11652 0.30650 0.29468 -0.10100
O 	O 	0.18435 0.03077 0.77722 -0.37400
C 	C 	0.15038 0.56597 0.95170 0.10100
N 	N 	0.20398 0.64101 0.93933 -0.10600
C 	C 	0.21181 0.12676 0.78013 0.30300
C 	C 	0.19292 0.09433 0.68898 0.32600
O 	O 	0.19071 0.17594 0.75581 -0.36000
O 	O 	0.18569 0.01331 0.70288 -0.36700
C 	C 	0.21821 0.78784 0.41756 0.30100
C 	C 	0.11724 0.47731 0.45876 0.30000
C 	C 	0.23641 0.56471 0.34409 0.31500
O 	O 	0.20130 0.51135 0.37272 -0.38100
O 	O 	0.14540 0.57020 0.46642 -0.37400
O 	O 	0.17637 0.44754 0.44710 -0.36300
H 	H 	0.22331 0.62773 0.41312 0.18000
C 	C 	0.17588 0.51545 0.02217 0.28700
C 	C 	0.21457 0.76402 0.10466 0.30500
O 	O 	0.17569 0.59825 0.03028 -0.36400
O 	O 	0.25366 0.50755 0.02452 -0.35900
O 	O 	0.23716 0.78959 0.07105 -0.34900
O 	O 	0.15268 0.98868 0.22871 -0.36400
O 	O 	0.14859 0.16001 0.23050 -0.37200
O 	O 	0.11235 0.95603 0.30453 -0.35800
C 	C 	0.22922 0.35587 0.20680 -0.06100
C 	C 	0.23261 0.46415 0.16025 -0.09900
C 	C 	0.16937 0.93043 0.15968 -0.01600
C 	C 	0.19165 0.89833 0.12867 0.16100
C 	C 	0.15605 0.79653 0.12293 -0.08600
C 	C 	0.21429 0.50885 0.31121 -0.09700
C 	C 	0.21491 0.35568 0.29867 0.17200
C 	C 	0.13887 0.80632 0.41246 -0.08400
C 	C 	0.12035 0.93292 0.38136 0.20200
N 	N 	0.14595 0.33637 0.53527 -0.09600
N 	N 	0.23230 0.27317 0.45790 -0.10400
H 	H 	0.23410 0.25397 0.64783 0.07700
N 	N 	0.27391 0.48331 0.93078 -0.10200
H 	H 	0.22633 0.07270 0.84661 0.06500
O 	O 	0.25896 0.72983 0.12435 -0.38200
H 	H 	0.20078 0.00909 0.16472 0.05000
O 	O 	0.26378 0.78661 0.38894 -0.36200
Ni	Ni	0.28509 0.52211 0.41182 1.12500
O 	O 	0.24957 0.78479 0.44996 -0.35300
O 	O 	0.30857 0.65847 0.34531 -0.36500
O 	O 	0.28618 0.64315 0.42099 -0.71200
C 	C 	0.28887 0.53177 0.13198 0.30600
Ni	Ni	0.29707 0.73234 0.03516 1.11900
O 	O 	0.28382 0.49338 0.10043 -0.37500
O 	O 	0.32673 0.67192 0.07156 -0.71700
H 	H 	0.26344 0.62788 0.08083 0.16200
C 	C 	0.27710 0.44459 0.18810 0.17500
H 	H 	0.26633 0.33899 0.22670 0.08200
O 	O 	0.25262 0.96660 0.10503 -0.26200
C 	C 	0.26395 0.45838 0.30428 -0.06800
O 	O 	0.26323 0.30448 0.29672 -0.29500
H 	H 	0.26935 0.28756 0.32135 0.15600
C 	C 	0.15835 0.90486 0.40938 -0.06200
O 	O 	0.14564 0.03069 0.37676 -0.29800
H 	H 	0.20462 0.05976 0.36292 0.15600
N 	N 	0.27698 0.08407 0.51060 -0.10700
C 	C 	0.30145 0.32769 0.47174 0.08700
C 	C 	0.28615 0.18278 0.68342 -0.10600
C 	C 	0.29513 0.25890 0.66073 -0.05400
N 	N 	0.24622 0.90880 0.01454 -0.11500
C 	C 	0.35153 0.54396 0.93338 0.09600
C 	C 	0.28815 0.18373 0.80571 -0.09000
C 	C 	0.28883 0.13871 0.83783 -0.05500
H 	H 	0.03206 0.02051 0.77189 0.13400
H 	H 	0.20971 0.96101 0.42635 0.08900
C 	C 	0.31978 0.96950 0.02335 0.11300
O 	O 	0.35715 0.62277 0.13995 -0.36900
Ni	Ni	0.28268 0.67496 0.46815 1.11600
Ni	Ni	0.36376 0.74801 0.38936 1.12400
O 	O 	0.30771 0.57029 0.49463 -0.35400
Ni	Ni	0.38553 0.74761 0.11221 1.12400
Ni	Ni	0.36236 0.57564 0.06028 1.12400
O 	O 	0.34733 0.68984 0.99167 -0.35600
O 	O 	0.37005 0.50760 0.19494 -0.27700
H 	H 	0.37063 0.55384 0.21303 0.15400
H 	H 	0.31614 0.98446 0.11354 0.16500
H 	H 	0.33857 0.49460 0.30913 0.07000
C 	C 	0.32524 0.04928 0.51199 0.11300
C 	C 	0.36542 0.19675 0.70264 0.18100
C 	C 	0.38421 0.33888 0.65319 0.17900
O 	O 	0.35843 0.12922 0.72745 -0.27600
O 	O 	0.39380 0.40685 0.62813 -0.27300
H 	H 	0.39521 0.46256 0.64135 0.15700
H 	H 	0.37411 0.08321 0.71492 0.14600
C 	C 	0.38482 0.16921 0.00120 0.09700
N 	N 	0.33542 0.19048 0.98654 -0.10100
N 	N 	0.47000 0.49290 0.86257 -0.10500
C 	C 	0.37108 0.17577 0.85796 0.16800
C 	C 	0.36897 0.27156 0.79545 0.17700
O 	O 	0.36931 0.13249 0.88961 -0.27600
O 	O 	0.36811 0.32232 0.76606 -0.27400
H 	H 	0.34977 0.37087 0.77450 0.15700
H 	H 	0.38454 0.07953 0.88406 0.15000
N 	N 	0.46363 0.23963 0.45124 -0.10600
C 	C 	0.36223 0.53870 0.48092 0.30900
O 	O 	0.39116 0.56252 0.37663 -0.38200
O 	O 	0.38356 0.55266 0.44791 -0.37800
C 	C 	0.42202 0.67923 0.99302 0.30600
O 	O 	0.42515 0.85943 0.03778 -0.36800
O 	O 	0.41850 0.88773 0.09591 -0.36800
C 	C 	0.38565 0.00577 0.51371 -0.07400
C 	C 	0.38805 0.39586 0.48907 0.00900
C 	C 	0.40019 0.48681 0.50199 -0.06000
C 	C 	0.46233 0.29869 0.46931 0.10000
C 	C 	0.41197 0.04698 0.03365 -0.01300
C 	C 	0.44942 0.61771 0.93632 0.00400
C 	C 	0.49129 0.54168 0.88747 0.08700
O 	O 	0.42403 0.76433 0.46654 -0.38000
O 	O 	0.43184 0.86568 0.42380 -0.35100
C 	C 	0.44277 0.92117 0.06353 0.33200
O 	O 	0.45123 0.66328 0.02293 -0.37600
O 	O 	0.47735 0.61636 0.09112 -0.36900
C 	C 	0.41792 0.99270 0.54675 -0.01900
C 	C 	0.41523 0.97952 0.48242 0.06500
C 	C 	0.43387 0.86479 0.57875 0.11500
C 	C 	0.40265 0.01471 0.44875 0.05900
N 	N 	0.41617 0.81386 0.60311 -0.10600
N 	N 	0.39336 0.04231 0.42158 -0.10000
C 	C 	0.46177 0.37361 0.49153 0.01000
C 	C 	0.46360 0.33675 0.66572 -0.11100
C 	C 	0.45243 0.28064 0.69604 -0.05500
C 	C 	0.47038 0.02538 0.05509 -0.08700
C 	C 	0.44679 0.14259 0.01953 0.00800
C 	C 	0.47932 0.69409 0.96149 -0.06400
C 	C 	0.45371 0.25910 0.84620 -0.09000
C 	C 	0.45189 0.30636 0.81482 -0.05400
C 	C 	0.03974 0.80285 0.85195 -0.05700
C 	C 	0.45350 0.07620 0.57216 0.27600
C 	C 	0.45198 0.85330 0.45628 0.31500
O 	O 	0.46982 0.72158 0.39507 -0.38700
C 	C 	0.45389 0.92784 0.54838 -0.01500
C 	C 	0.51689 0.60326 0.91844 0.00000
O 	O 	0.01851 0.99980 0.74723 -0.69100
O 	O 	0.50252 0.24800 0.62558 -0.38800
O 	O 	0.49049 0.16254 0.55839 -0.36900
C 	C 	0.46904 0.64833 0.37822 0.33300
O 	O 	0.51432 0.77773 0.09807 -0.36900
C 	C 	0.46386 0.92550 0.48442 -0.10100
H 	H 	0.51375 0.28848 0.70958 0.06100
H 	H 	0.51463 0.37156 0.80573 0.07400
O 	O 	0.01126 0.16773 0.77038 -0.38400
C 	C 	0.52617 0.33369 0.63925 0.33500
O 	O 	0.48757 0.06892 0.60270 -0.35700
C 	C 	0.53896 0.70921 0.09877 0.32100
H 	H 	0.57261 0.60355 0.14827 0.08000
H 	H 	0.45759 0.66888 0.30867 0.06700
C 	C 	0.47697 0.54355 0.52373 0.01100
C 	C 	0.49266 0.91109 0.51792 0.01300
C 	C 	0.53918 0.30537 0.86839 0.30700
C 	C 	0.54031 0.43267 0.51238 -0.06000
C 	C 	0.47569 0.61742 0.54643 0.10400
C 	C 	0.54265 0.21138 0.02210 -0.05800
C 	C 	0.02448 0.74312 0.88150 0.17800
N 	N 	0.47430 0.67581 0.56488 -0.09700
O 	O 	0.56552 0.25085 0.96039 -0.37900
C 	C 	0.56066 0.10228 0.06395 0.01200
O 	O 	0.57266 0.24867 0.88193 -0.37000
C 	C 	0.52817 0.69548 0.31816 -0.05900
C 	C 	0.55203 0.52369 0.52509 0.01200
C 	C 	0.57559 0.76232 0.96373 0.00800
H 	H 	0.00602 0.66456 0.69932 0.07100
O 	O 	0.58897 0.40343 0.86813 -0.36900
C 	C 	0.58594 0.38567 0.53214 0.31100
O 	O 	0.58627 0.39130 0.56597 -0.37600
C 	C 	0.63242 0.67579 0.14303 -0.05800
C 	C 	0.54278 0.67259 0.35239 -0.11000
C 	C 	0.58904 0.28251 0.99300 0.28800
C 	C 	0.59705 0.19568 0.04730 -0.00000
C 	C 	0.56452 0.88308 0.52079 0.11000
Ni	Ni	0.58872 0.19333 0.62883 1.12000
C 	C 	0.62991 0.73336 0.11495 -0.09600
H 	H 	0.59126 0.89581 0.62493 0.16300
C 	C 	0.60915 0.64865 0.93114 -0.06100
O 	O 	0.61528 0.32958 0.51685 -0.35400
O 	O 	0.61227 0.40773 0.63513 -0.37900
C 	C 	0.61760 0.08383 0.08864 0.09100
C 	C 	0.60697 0.85539 0.98187 0.09900
H 	H 	0.62780 0.40302 0.92737 0.16200
Ni	Ni	0.62779 0.21943 0.54526 1.11400
N 	N 	0.63191 0.92965 0.99638 -0.08900
O 	O 	0.62943 0.89220 0.60534 -0.27100
C 	C 	0.64041 0.73324 0.95269 0.00600
C 	C 	0.60382 0.76223 0.29769 0.17300
O 	O 	0.58800 0.78977 0.26526 -0.27500
H 	H 	0.58773 0.74043 0.24866 0.15200
O 	O 	0.00611 0.11947 0.20670 -0.37200
C 	C 	0.63480 0.70707 0.36428 0.18100
N 	N 	0.62243 0.86120 0.52292 -0.09000
O 	O 	0.64358 0.37829 0.00026 -0.36000
O 	O 	0.00776 0.83812 0.78287 -0.36100
O 	O 	0.65043 0.67898 0.39665 -0.27700
C 	C 	0.64043 0.59519 0.54051 0.09000
C 	C 	0.65930 0.59165 0.93116 0.28800
O 	O 	0.64292 0.09883 0.56544 -0.35800
H 	H 	0.65464 0.73038 0.41318 0.16800
O 	O 	0.66161 0.54783 0.96089 -0.36500
N 	N 	0.66304 0.06900 0.10832 -0.10200
O 	O 	0.66148 0.27456 0.59018 -0.71000
H 	H 	0.66239 0.43920 0.70444 0.07400
Ni	Ni	0.66363 0.27987 0.92404 1.11900
O 	O 	0.66558 0.12614 0.62576 -0.38300
H 	H 	0.67395 0.67228 0.21344 0.15600
O 	O 	0.67637 0.29355 0.66648 -0.37000
C 	C 	0.68987 0.27493 0.05595 0.10000
C 	C 	0.68718 0.10049 0.59548 0.29800
O 	O 	0.69198 0.41365 0.92484 -0.71400
Ni	Ni	0.69531 0.41006 0.59471 1.12400
N 	N 	0.00546 0.42399 0.60085 -0.09700
H 	H 	0.69524 0.64031 0.69464 0.15400
C 	C 	0.69535 0.80354 0.31087 -0.09600
C 	C 	0.70842 0.71521 0.16643 0.17300
O 	O 	0.70838 0.65965 0.19452 -0.28600
C 	C 	0.70999 0.82521 0.10765 0.17200
O 	O 	0.71166 0.87966 0.07894 -0.25700
C 	C 	0.71072 0.77256 0.34355 -0.06000
O 	O 	0.71292 0.59931 0.90374 -0.36900
N 	N 	0.71102 0.65226 0.55283 -0.10700
O 	O 	0.71317 0.62410 0.71756 -0.27800
H 	H 	0.71880 0.12910 0.86184 0.05600
C 	C 	0.71884 0.96589 0.61199 0.19300
H 	H 	0.72235 0.27753 0.59357 0.17300
H 	H 	0.99758 0.32926 0.28627 0.07200
H 	H 	0.98957 0.23797 0.64747 0.15900
O 	O 	0.99227 0.18768 0.63220 -0.27600
C 	C 	0.99523 0.41640 0.95050 0.00100
H 	H 	0.98249 0.61458 0.41959 0.15700
C 	C 	0.98498 0.43150 0.91368 0.10500
N 	N 	0.97870 0.44454 0.88414 -0.10100
O 	O 	0.95646 0.82892 0.30731 -0.37800
N 	N 	0.91592 0.38553 0.39369 -0.09800
C 	C 	0.93107 0.39596 0.42350 0.09200
H 	H 	0.96639 0.70265 0.35102 0.07400
C 	C 	0.99377 0.42142 0.57082 0.08100
O 	O 	0.97296 0.15609 0.27999 -0.37400
O 	O 	0.97935 0.97762 0.26134 -0.69900
H 	H 	0.96396 0.97831 0.28634 0.14700
O 	O 	0.99386 0.25212 0.16771 -0.28500
H 	H 	0.99011 0.21002 0.14752 0.16400
O 	O 	0.99662 0.69073 0.19820 -0.28500
H 	H 	0.93579 0.68346 0.19049 0.15800
C 	C 	0.97896 0.41811 0.53322 0.00100
C 	C 	0.89539 0.62395 0.91959 0.32600
C 	C 	0.77113 0.32263 0.85913 0.33100
C 	C 	0.83220 0.36017 0.96841 0.30300
Ni	Ni	0.72827 0.48328 0.88196 1.11400
Ni	Ni	0.74238 0.48422 0.96812 1.12500
O 	O 	0.83797 0.44343 0.97913 -0.37200
O 	O 	0.86536 0.54871 0.89834 -0.37300
O 	O 	0.85024 0.61445 0.94925 -0.36500
O 	O 	0.74756 0.38764 0.84813 -0.36100
O 	O 	0.77155 0.30554 0.89251 -0.39400
O 	O 	0.74987 0.28185 0.96240 -0.37900
C 	C 	0.81939 0.38867 0.53894 0.29400
C 	C 	0.75729 0.37912 0.66118 0.31000
O 	O 	0.76581 0.29366 0.53331 -0.37900
O 	O 	0.78523 0.44487 0.55203 -0.36300
O 	O 	0.78673 0.41289 0.62931 -0.38200
C 	C 	0.91026 0.76170 0.71611 0.31600
C 	C 	0.96736 0.86354 0.80799 0.29400
C 	C 	0.90133 0.02456 0.68211 0.30000
C 	C 	0.92080 0.11965 0.77827 0.31500
Ni	Ni	0.88515 0.92234 0.74947 1.12500
O 	O 	0.86980 0.93748 0.69767 -0.36400
O 	O 	0.99604 0.82719 0.70645 -0.36600
O 	O 	0.86684 0.78465 0.74023 -0.36300
O 	O 	0.86186 0.03598 0.76220 -0.39200
O 	O 	0.90521 0.89287 0.80002 -0.35100
O 	O 	0.95418 0.10737 0.69960 -0.37500
C 	C 	0.77456 0.85897 0.28744 0.31000
C 	C 	0.84214 0.86744 0.19186 0.31800
Ni	Ni	0.90940 0.03639 0.24520 1.10300
Ni	Ni	0.92905 0.83819 0.25600 1.12300
O 	O 	0.80457 0.95425 0.28186 -0.34400
O 	O 	0.79649 0.80799 0.26565 -0.38500
O 	O 	0.82359 0.93034 0.20855 -0.35200
O 	O 	0.90477 0.84473 0.20386 -0.37400
C 	C 	0.78263 0.81267 0.16173 -0.09900
C 	C 	0.78536 0.86495 0.13123 -0.04900
H 	H 	0.84323 0.93907 0.12690 0.07600
H 	H 	0.73861 0.85854 0.05966 0.16200
H 	H 	0.78158 0.79907 0.35284 0.07100
C 	C 	0.90729 0.43391 0.51963 -0.06000
C 	C 	0.95018 0.40906 0.46078 0.00000
C 	C 	0.90056 0.44008 0.48285 0.00900
C 	C 	0.83493 0.46747 0.46814 0.09200
N 	N 	0.78250 0.48933 0.45643 -0.09900
C 	C 	0.85946 0.02956 0.64785 -0.10800
C 	C 	0.77238 0.95075 0.63751 -0.03800
C 	C 	0.75211 0.06050 0.59699 -0.11100
C 	C 	0.84790 0.12923 0.60053 -0.05500
C 	C 	0.90073 0.11641 0.62708 0.17600
H 	H 	0.74264 0.88024 0.65109 0.07000
H 	H 	0.87753 0.19897 0.58643 0.06600
C 	C 	0.79521 0.45333 0.68951 -0.09700
C 	C 	0.73733 0.48807 0.70316 -0.05700
C 	C 	0.77347 0.58939 0.70952 0.17300
C 	C 	0.87098 0.65525 0.70685 -0.09700
C 	C 	0.93073 0.61659 0.69934 -0.05600
C 	C 	0.89315 0.51553 0.69142 0.17200
O 	O 	0.95198 0.48017 0.68193 -0.27400
H 	H 	0.96495 0.45516 0.70402 0.15200
C 	C 	0.91737 0.35048 0.97055 -0.05900
C 	C 	0.93377 0.31009 0.00113 0.00700
C 	C 	0.85835 0.22147 0.01672 0.09800
N 	N 	0.79816 0.15036 0.02912 -0.10100
N 	N 	0.76396 0.33832 0.06289 -0.10500
C 	C 	0.73308 0.77962 0.96805 0.09200
N 	N 	0.80655 0.81691 0.98082 -0.10400
C 	C 	0.79797 0.26799 0.83419 -0.10400
C 	C 	0.77028 0.16847 0.84148 -0.05400
C 	C 	0.81180 0.12069 0.82391 0.17200
C 	C 	0.88098 0.17176 0.79829 -0.09900
C 	C 	0.90535 0.26971 0.78953 -0.05500
C 	C 	0.86414 0.31794 0.80737 0.17700
O 	O 	0.78793 0.02553 0.83309 -0.29600
H 	H 	0.95565 0.30824 0.76874 0.06400
O 	O 	0.88744 0.41289 0.79813 -0.28200
H 	H 	0.94349 0.45630 0.81229 0.16300
H 	H 	0.73318 0.98251 0.81827 0.16900
C 	C 	0.94979 0.72331 0.90421 -0.11000
C 	C 	0.90790 0.78322 0.90203 -0.05300
C 	C 	0.91905 0.83882 0.87166 0.16900
C 	C 	0.97875 0.84035 0.84474 -0.09400
H 	H 	0.85700 0.77604 0.92137 0.08300
O 	O 	0.87232 0.89148 0.86855 -0.25800
H 	H 	0.80858 0.84309 0.86030 0.16100
