data_crystal

_cell_length_a 47.99107
_cell_length_b 40.68061
_cell_length_c 24.74937
_cell_angle_alpha 89.94990
_cell_angle_beta  89.94398
_cell_angle_gamma 90.47875

_symmetry_space_group_name_	'P 1'
_symmetry_space_group_name_H-M	'P 1'

loop_
_symmetry_equiv_pos_as_xyz
  x,y,z

loop_
_atom_site_label
_atom_site_type_symbol
_atom_site_fract_x
_atom_site_fract_y
_atom_site_fract_z
_atom_site_charge
Zn	Zn	0.46948 0.47604 0.94871 1.22400
C 	C 	0.48195 0.54557 0.94319 0.31700
O 	O 	0.49098 0.46285 0.01234 -0.47700
O 	O 	0.46031 0.54879 0.97541 -0.45000
O 	O 	0.49469 0.51224 0.05376 -0.49500
C 	C 	0.41345 0.49401 0.97037 0.33200
O 	O 	0.43247 0.49234 0.93237 -0.45200
O 	O 	0.42100 0.49621 0.02127 -0.51200
C 	C 	0.50606 0.48456 0.03857 0.32100
O 	O 	0.44963 0.42298 0.94474 -0.32400
Zn	Zn	0.45507 0.51943 0.04277 1.16900
O 	O 	0.49063 0.51609 0.92945 -0.43300
C 	C 	0.46645 0.41815 0.90452 0.27800
O 	O 	0.48228 0.44296 0.89184 -0.38300
Zn	Zn	0.41719 0.04736 0.04398 1.22300
C 	C 	0.36103 0.02809 0.07768 0.32200
O 	O 	0.44158 0.04537 0.10725 -0.44800
O 	O 	0.36731 0.99735 0.06753 -0.45100
O 	O 	0.41250 0.00920 0.14924 -0.49100
C 	C 	0.42128 0.98863 0.98250 0.31800
O 	O 	0.40795 0.01661 0.98638 -0.45400
O 	O 	0.41992 0.96722 0.02212 -0.50300
C 	C 	0.43587 0.02617 0.14851 0.30300
O 	O 	0.45577 0.06466 0.99031 -0.32800
Zn	Zn	0.40446 0.97759 0.09229 1.17200
O 	O 	0.38088 0.05047 0.08084 -0.43500
C 	C 	0.44322 0.09281 0.98956 0.28600
O 	O 	0.42001 0.09403 0.01593 -0.39500
C 	C 	0.54704 0.97129 0.36329 0.13500
C 	C 	0.52472 0.98456 0.33422 -0.10100
H 	H 	0.50670 0.99368 0.35570 0.06600
C 	C 	0.52564 0.98567 0.27764 0.04400
C 	C 	0.54851 0.97243 0.25027 -0.08200
C 	C 	0.57059 0.95850 0.27908 0.04300
C 	C 	0.57009 0.95852 0.33572 -0.10000
H 	H 	0.58734 0.94851 0.35839 0.06600
N 	N 	0.54607 0.97031 0.42130 -0.17900
C 	C 	0.53711 0.94217 0.44682 0.18900
C 	C 	0.53545 0.94098 0.50358 -0.06200
C 	C 	0.54296 0.96893 0.53373 0.03000
C 	C 	0.55213 0.99753 0.50704 -0.06300
C 	C 	0.55371 0.99770 0.45024 0.18800
C 	C 	0.52635 0.91234 0.53054 -0.01400
C 	C 	0.52480 0.91164 0.58696 -0.01400
C 	C 	0.53231 0.93957 0.61736 -0.06100
C 	C 	0.54131 0.96825 0.59066 0.03000
C 	C 	0.54870 0.99625 0.62079 -0.06300
C 	C 	0.55951 0.02552 0.53743 -0.01200
C 	C 	0.55777 0.02490 0.59383 -0.01200
C 	C 	0.53114 0.93925 0.67420 0.19000
N 	N 	0.53868 0.96668 0.70312 -0.17800
C 	C 	0.54705 0.99505 0.67755 0.18800
C 	C 	0.53846 0.96544 0.76114 0.13600
C 	C 	0.51360 0.97093 0.78958 -0.10000
C 	C 	0.51341 0.96960 0.84618 0.04400
C 	C 	0.53824 0.96364 0.87412 -0.08200
C 	C 	0.56315 0.95857 0.84598 0.04400
C 	C 	0.56319 0.95906 0.78937 -0.10000
O 	O 	0.56254 0.02428 0.42470 -0.20200
O 	O 	0.52988 0.91622 0.41802 -0.20500
O 	O 	0.52299 0.91240 0.69980 -0.20300
O 	O 	0.55368 0.02124 0.70630 -0.20000
H 	H 	0.58228 0.95483 0.76721 0.06700
H 	H 	0.49464 0.97618 0.76763 0.06700
H 	H 	0.56658 0.04781 0.51753 0.04900
H 	H 	0.56356 0.04670 0.61641 0.04900
H 	H 	0.52047 0.89057 0.50795 0.04800
H 	H 	0.51778 0.88934 0.60686 0.04800
H 	H 	0.53822 0.96326 0.91794 0.05000
H 	H 	0.54896 0.97254 0.20647 0.04800
Zn	Zn	0.66860 0.88619 0.04329 1.22400
C 	C 	0.72534 0.91025 0.05869 0.31700
O 	O 	0.65073 0.88770 0.11458 -0.44400
O 	O 	0.71575 0.93937 0.04589 -0.45000
O 	O 	0.68006 0.92791 0.14313 -0.49600
C 	C 	0.65646 0.94295 0.98023 0.32100
O 	O 	0.67147 0.91610 0.98190 -0.45200
O 	O 	0.65801 0.96448 0.01959 -0.50400
C 	C 	0.65771 0.90978 0.15082 0.30500
O 	O 	0.62571 0.86843 0.00574 -0.33300
Zn	Zn	0.68103 0.95833 0.08291 1.17300
O 	O 	0.70802 0.88536 0.06590 -0.43100
C 	C 	0.63773 0.84012 0.00084 0.27400
O 	O 	0.66317 0.83890 0.01806 -0.38800
Zn	Zn	0.09775 0.61773 0.89462 1.22400
C 	C 	0.08314 0.68693 0.88201 0.31900
O 	O 	0.09603 0.60777 0.97264 -0.42700
O 	O 	0.05739 0.67677 0.87507 -0.45100
O 	O 	0.06657 0.64962 0.98550 -0.48700
C 	C 	0.04640 0.60204 0.83828 0.31600
O 	O 	0.07193 0.61385 0.83307 -0.44600
O 	O 	0.03099 0.60966 0.88029 -0.50200
C 	C 	0.07750 0.62230 0.00306 0.29000
O 	O 	0.11044 0.56225 0.87900 -0.32500
Zn	Zn	0.03900 0.64526 0.92942 1.17600
O 	O 	0.10223 0.66604 0.89801 -0.42800
C 	C 	0.13501 0.57441 0.86871 0.28000
O 	O 	0.13711 0.60601 0.87255 -0.38700
C 	C 	0.97966 0.52424 0.20408 0.13500
C 	C 	0.95821 0.51116 0.17185 -0.09900
H 	H 	0.94021 0.49982 0.19081 0.06600
C 	C 	0.95992 0.51341 0.11540 0.04200
C 	C 	0.98344 0.52791 0.09148 -0.08100
C 	C 	0.00415 0.54260 0.12343 0.04300
C 	C 	0.00245 0.54035 0.17985 -0.10000
H 	H 	0.01842 0.55145 0.20494 0.06600
N 	N 	0.97787 0.52200 0.26193 -0.17900
C 	C 	0.98975 0.49582 0.28795 0.19000
C 	C 	0.98837 0.49329 0.34464 -0.06100
C 	C 	0.97464 0.51780 0.37419 0.03000
C 	C 	0.96251 0.54441 0.34697 -0.06100
C 	C 	0.96437 0.54611 0.29025 0.18900
C 	C 	0.00050 0.46668 0.37211 -0.01400
C 	C 	0.99896 0.46464 0.42846 -0.01300
C 	C 	0.98526 0.48916 0.45827 -0.06100
C 	C 	0.97308 0.51573 0.43105 0.03000
C 	C 	0.95935 0.54023 0.46059 -0.06100
C 	C 	0.94875 0.56889 0.37677 -0.01400
C 	C 	0.94718 0.56681 0.43311 -0.01400
C 	C 	0.98357 0.48757 0.51501 0.19000
N 	N 	0.97015 0.51173 0.54335 -0.17900
C 	C 	0.95805 0.53777 0.51729 0.19000
C 	C 	0.96882 0.50979 0.60128 0.13600
C 	C 	0.94667 0.49293 0.62638 -0.10000
C 	C 	0.94547 0.49087 0.68289 0.04300
C 	C 	0.96666 0.50528 0.71393 -0.08100
C 	C 	0.98791 0.52375 0.68927 0.04400
C 	C 	0.98923 0.52559 0.63279 -0.10000
O 	O 	0.95314 0.57099 0.26422 -0.20600
O 	O 	0.00252 0.47295 0.25973 -0.20200
O 	O 	0.99498 0.46282 0.54107 -0.20100
O 	O 	0.94517 0.56055 0.54550 -0.20600
H 	H 	0.00563 0.53969 0.61329 0.06700
H 	H 	0.93034 0.48202 0.60196 0.06600
H 	H 	0.93926 0.58956 0.35647 0.04700
H 	H 	0.93650 0.58593 0.45522 0.04700
H 	H 	0.01115 0.44755 0.35000 0.04900
H 	H 	0.00846 0.44397 0.44876 0.04900
H 	H 	0.96549 0.50416 0.75765 0.04900
H 	H 	0.98472 0.52975 0.04782 0.04700
Zn	Zn	0.84878 0.42903 0.91759 1.22400
C 	C 	0.79580 0.46243 0.92354 0.31800
O 	O 	0.85932 0.42379 0.84140 -0.43700
O 	O 	0.80935 0.49070 0.92281 -0.44600
O 	O 	0.83467 0.46835 0.81785 -0.49400
C 	C 	0.87328 0.48514 0.96933 0.32200
O 	O 	0.85543 0.46077 0.97540 -0.45500
O 	O 	0.87183 0.50457 0.92706 -0.50100
C 	C 	0.85406 0.44703 0.80634 0.30300
O 	O 	0.89167 0.40552 0.94281 -0.33000
Zn	Zn	0.84287 0.50068 0.87274 1.17300
O 	O 	0.80838 0.43512 0.90934 -0.43200
C 	C 	0.87678 0.37996 0.95596 0.28100
O 	O 	0.85023 0.38251 0.94790 -0.38500
Zn	Zn	0.02858 0.03417 0.18823 1.22200
C 	C 	0.05711 0.97617 0.15019 0.32000
O 	O 	0.99843 0.01773 0.23479 -0.47200
O 	O 	0.07080 0.97574 0.19624 -0.45300
O 	O 	0.01667 0.96769 0.25252 -0.49500
C 	C 	0.08136 0.04624 0.23817 0.33100
O 	O 	0.06726 0.04800 0.19294 -0.45400
O 	O 	0.07087 0.03010 0.27950 -0.51000
C 	C 	0.99496 0.98608 0.24270 0.31500
O 	O 	0.01663 0.08871 0.21065 -0.32700
Zn	Zn	0.05262 0.98761 0.26907 1.16900
O 	O 	0.03480 0.99450 0.14461 -0.44100
C 	C 	0.00611 0.08983 0.16237 0.27800
O 	O 	0.00835 0.06317 0.13421 -0.38600
C 	C 	0.95034 0.24964 0.01400 -0.04600
C 	C 	0.92686 0.26248 0.04011 0.00400
C 	C 	0.91601 0.24659 0.08597 -0.04000
H 	H 	0.89792 0.25637 0.10644 0.04000
C 	C 	0.92864 0.21818 0.10573 -0.03700
C 	C 	0.95221 0.20544 0.07977 -0.00100
C 	C 	0.96297 0.22124 0.03376 -0.03500
H 	H 	0.98120 0.21162 0.01355 0.03800
C 	C 	0.96579 0.17577 0.10108 0.02600
C 	C 	0.96651 0.14698 0.07001 -0.06400
C 	C 	0.97964 0.11894 0.08995 0.01100
C 	C 	0.99219 0.11943 0.14125 -0.07700
C 	C 	0.99138 0.14832 0.17233 0.01100
C 	C 	0.97824 0.17633 0.15230 -0.06400
C 	C 	0.91379 0.29268 0.01968 0.02200
C 	C 	0.88652 0.29168 0.99937 -0.05800
C 	C 	0.87433 0.32020 0.97899 0.01300
C 	C 	0.88933 0.35000 0.97868 -0.08100
C 	C 	0.91654 0.35102 0.99959 0.02400
C 	C 	0.92870 0.32249 0.01995 -0.07100
H 	H 	0.85336 0.31901 0.96290 0.04200
H 	H 	0.92825 0.37390 0.00021 0.03200
H 	H 	0.94969 0.32353 0.03595 0.04900
H 	H 	0.87488 0.26874 0.99894 0.04700
H 	H 	0.95686 0.14632 0.03046 0.04600
H 	H 	0.98001 0.09686 0.06554 0.04100
H 	H 	0.97787 0.19852 0.17646 0.04700
H 	H 	0.00099 0.14915 0.21189 0.04000
H 	H 	0.92014 0.20607 0.14118 0.03900
H 	H 	0.95879 0.26168 0.97844 0.04600
C 	C 	0.89658 0.43444 0.73787 0.01800
H 	H 	0.89485 0.40722 0.73638 0.03400
C 	C 	0.92184 0.45418 0.75982 -0.04300
H 	H 	0.94127 0.44332 0.77606 0.04200
C 	C 	0.89499 0.45787 0.68839 -0.04700
H 	H 	0.89212 0.44992 0.64586 0.04100
C 	C 	0.92000 0.47748 0.71093 0.01000
C 	C 	0.87700 0.45734 0.76914 -0.10800
C 	C 	0.87497 0.48057 0.72029 0.00300
H 	H 	0.85547 0.49136 0.70434 0.02000
C 	C 	0.90027 0.50024 0.74227 -0.05800
H 	H 	0.90197 0.52746 0.74402 0.02700
C 	C 	0.90202 0.47690 0.79134 -0.01300
H 	H 	0.90484 0.48471 0.83398 -0.00200
C 	C 	0.90951 0.46526 0.04629 0.01400
H 	H 	0.90456 0.43855 0.04654 0.03500
C 	C 	0.90718 0.48868 0.09558 -0.04800
H 	H 	0.90033 0.48121 0.13667 0.04200
C 	C 	0.93815 0.48074 0.03168 -0.05500
H 	H 	0.95710 0.46684 0.02042 0.04200
C 	C 	0.93557 0.50406 0.08033 0.01100
C 	C 	0.89520 0.49124 0.01093 -0.09600
C 	C 	0.92357 0.50654 0.99593 0.02000
H 	H 	0.93029 0.51390 0.95468 0.02300
C 	C 	0.92109 0.52989 0.04482 -0.05600
H 	H 	0.92601 0.55661 0.04437 0.03600
C 	C 	0.89249 0.51449 0.05950 0.01300
H 	H 	0.87350 0.52838 0.07055 0.02500
C 	C 	0.10036 0.85082 0.02277 -0.05900
C 	C 	0.09088 0.87925 0.99677 0.01600
C 	C 	0.08662 0.87899 0.94068 -0.04700
H 	H 	0.07961 0.90095 0.92016 0.04100
C 	C 	0.09042 0.84999 0.91131 -0.03200
C 	C 	0.09826 0.82101 0.93795 -0.01000
C 	C 	0.10400 0.82184 0.99356 -0.02000
H 	H 	0.11002 0.79964 0.01458 0.03000
C 	C 	0.09686 0.78911 0.90961 0.03100
C 	C 	0.07152 0.77828 0.88739 -0.07200
C 	C 	0.06783 0.74529 0.87338 0.01500
C 	C 	0.08932 0.72264 0.88236 -0.09900
C 	C 	0.11566 0.73427 0.89882 0.02100
C 	C 	0.11940 0.76738 0.91233 -0.07000
C 	C 	0.08293 0.90810 0.02909 0.01700
C 	C 	0.05479 0.91695 0.03308 -0.06500
C 	C 	0.04646 0.94031 0.07105 0.01700
C 	C 	0.06621 0.95497 0.10545 -0.09600
C 	C 	0.09455 0.94749 0.09927 0.01600
C 	C 	0.10287 0.92418 0.06122 -0.06600
H 	H 	0.02455 0.94600 0.07520 0.03500
H 	H 	0.11007 0.95921 0.12473 0.03100
H 	H 	0.12468 0.91778 0.05798 0.04300
H 	H 	0.03925 0.90471 0.00836 0.04300
H 	H 	0.05414 0.79499 0.88400 0.04400
H 	H 	0.04777 0.73705 0.85835 0.02500
H 	H 	0.13935 0.77575 0.92774 0.04800
H 	H 	0.13285 0.71745 0.90368 0.04000
H 	H 	0.08629 0.84975 0.86828 0.03600
H 	H 	0.10379 0.85082 0.06604 0.04100
C 	C 	0.00990 0.55751 0.80873 0.00500
H 	H 	0.00152 0.55262 0.84982 0.02700
C 	C 	0.02323 0.53153 0.77165 -0.04800
H 	H 	0.02574 0.50512 0.78171 0.04200
C 	C 	0.99295 0.57103 0.76089 -0.04800
H 	H 	0.97046 0.57721 0.76214 0.03500
C 	C 	0.00626 0.54508 0.72397 0.00700
C 	C 	0.03367 0.58165 0.79456 -0.08300
C 	C 	0.01683 0.59529 0.74689 0.00700
H 	H 	0.01429 0.62173 0.73705 0.02700
C 	C 	0.03008 0.56915 0.70933 -0.04500
H 	H 	0.03841 0.57393 0.66820 0.04200
C 	C 	0.04725 0.55585 0.75783 0.00900
H 	H 	0.06977 0.54983 0.75703 0.03600
C 	C 	0.04103 0.61397 0.08481 -0.00000
H 	H 	0.03947 0.63994 0.09817 0.02000
C 	C 	0.04981 0.58461 0.12093 -0.04600
H 	H 	0.05544 0.58629 0.16433 0.04000
C 	C 	0.01693 0.59307 0.06117 -0.05700
H 	H 	0.99521 0.60156 0.05536 0.02200
C 	C 	0.02584 0.56394 0.09673 0.00900
C 	C 	0.06021 0.60131 0.03972 -0.10500
C 	C 	0.03626 0.58056 0.01599 -0.02800
H 	H 	0.03061 0.57861 0.97268 -0.00100
C 	C 	0.04513 0.55137 0.05171 -0.03900
H 	H 	0.04668 0.52544 0.03815 0.03900
C 	C 	0.06937 0.57230 0.07523 0.01400
H 	H 	0.09115 0.56395 0.08067 0.03200
C 	C 	0.83923 0.92256 0.19025 -0.03900
C 	C 	0.83764 0.91284 0.13591 -0.00200
C 	C 	0.86213 0.91051 0.10515 -0.03900
H 	H 	0.86116 0.90274 0.06333 0.03700
C 	C 	0.88779 0.91939 0.12774 -0.03900
C 	C 	0.88921 0.93047 0.18139 -0.00100
C 	C 	0.86491 0.93124 0.21293 -0.03900
H 	H 	0.86583 0.93942 0.25455 0.03700
C 	C 	0.91567 0.94366 0.20306 0.02700
C 	C 	0.93944 0.92385 0.20478 -0.07000
C 	C 	0.96514 0.93731 0.22008 0.01900
C 	C 	0.96732 0.97076 0.23386 -0.10000
C 	C 	0.94323 0.99016 0.23450 0.01500
C 	C 	0.91757 0.97671 0.21898 -0.06800
C 	C 	0.81019 0.90824 0.10998 0.02700
C 	C 	0.80222 0.92892 0.06741 -0.07000
C 	C 	0.77489 0.92799 0.04805 0.01600
C 	C 	0.75518 0.90655 0.07137 -0.09900
C 	C 	0.76365 0.88438 0.11159 0.01900
C 	C 	0.79105 0.88524 0.13081 -0.07000
H 	H 	0.76880 0.94472 0.01618 0.03000
H 	H 	0.74875 0.86750 0.12966 0.03800
H 	H 	0.79713 0.86880 0.16311 0.04600
H 	H 	0.81691 0.94657 0.05071 0.04400
H 	H 	0.93811 0.89822 0.19313 0.04400
H 	H 	0.98348 0.92197 0.21954 0.03100
H 	H 	0.89931 0.99218 0.21798 0.04500
H 	H 	0.94446 0.01584 0.24587 0.03700
H 	H 	0.90645 0.91861 0.10309 0.03800
H 	H 	0.82045 0.92442 0.21437 0.03700
C 	C 	0.61997 0.95176 0.85711 -0.04900
H 	H 	0.62710 0.95361 0.81454 0.04200
C 	C 	0.62489 0.92189 0.89502 0.01400
H 	H 	0.63607 0.89906 0.88405 0.03600
C 	C 	0.62879 0.97546 0.90323 0.01200
H 	H 	0.64323 0.99676 0.89894 0.02700
C 	C 	0.63329 0.94573 0.94047 -0.09100
C 	C 	0.58960 0.95345 0.87717 0.00800
C 	C 	0.59823 0.97716 0.92274 -0.05000
H 	H 	0.58716 0.99999 0.93412 0.04000
C 	C 	0.60295 0.94739 0.96022 0.01400
H 	H 	0.59605 0.94554 0.00297 0.01800
C 	C 	0.59421 0.92368 0.91444 -0.04700
H 	H 	0.57978 0.90237 0.91893 0.04500
C 	C 	0.61501 0.90007 0.21984 0.01600
H 	H 	0.61491 0.87278 0.22058 0.03200
C 	C 	0.59096 0.92187 0.19935 -0.04400
H 	H 	0.57069 0.91264 0.18361 0.03800
C 	C 	0.61868 0.92274 0.26976 -0.04700
H 	H 	0.62150 0.91407 0.31191 0.04100
C 	C 	0.59486 0.94445 0.24873 0.00900
C 	C 	0.63577 0.92179 0.18842 -0.10300
C 	C 	0.63985 0.94428 0.23772 0.00400
H 	H 	0.66019 0.95339 0.25319 0.02100
C 	C 	0.61572 0.96606 0.21722 -0.05700
H 	H 	0.61583 0.99335 0.21629 0.03000
C 	C 	0.61196 0.94342 0.16761 -0.00600
H 	H 	0.60934 0.95184 0.12522 0.00200
C 	C 	0.24606 0.06321 0.20519 -0.03900
C 	C 	0.24995 0.05808 0.14961 -0.00100
C 	C 	0.22686 0.05784 0.11491 -0.03800
H 	H 	0.22969 0.05420 0.07190 0.03900
C 	C 	0.20002 0.06142 0.13582 -0.03800
C 	C 	0.19602 0.06549 0.19163 -0.00200
C 	C 	0.21920 0.06697 0.22611 -0.03800
H 	H 	0.21635 0.07029 0.26918 0.03800
C 	C 	0.16755 0.06527 0.21419 0.03100
C 	C 	0.14788 0.08797 0.19567 -0.07200
C 	C 	0.11964 0.08346 0.20771 0.02800
C 	C 	0.11088 0.05627 0.23851 -0.10700
C 	C 	0.13088 0.03545 0.26137 0.02500
C 	C 	0.15909 0.03984 0.24904 -0.07400
C 	C 	0.27799 0.05123 0.12820 0.02900
C 	C 	0.29941 0.07465 0.13343 -0.06900
C 	C 	0.32632 0.06751 0.11556 0.02000
C 	C 	0.33210 0.03675 0.09230 -0.09900
C 	C 	0.31037 0.01372 0.08560 0.02000
C 	C 	0.28351 0.02089 0.10367 -0.07100
H 	H 	0.34273 0.08567 0.12068 0.04000
H 	H 	0.31433 0.99012 0.06702 0.02700
H 	H 	0.26705 0.00269 0.09930 0.04500
H 	H 	0.29526 0.09828 0.15181 0.04800
H 	H 	0.15430 0.10816 0.16981 0.04900
H 	H 	0.10445 0.10014 0.19087 0.03400
H 	H 	0.17416 0.02240 0.26412 0.04400
H 	H 	0.12443 0.01457 0.28569 0.00900
H 	H 	0.18227 0.06013 0.10888 0.04000
H 	H 	0.26378 0.06351 0.23229 0.03800
C 	C 	0.45173 0.00725 0.89363 0.01800
H 	H 	0.44028 0.02955 0.88085 0.03700
C 	C 	0.45657 0.97616 0.85848 -0.05100
H 	H 	0.44919 0.97271 0.81636 0.04200
C 	C 	0.48259 0.00640 0.91208 -0.04300
H 	H 	0.49691 0.02795 0.91401 0.05000
C 	C 	0.48711 0.97544 0.87762 0.00700
C 	C 	0.44388 0.98496 0.94161 -0.09600
C 	C 	0.47442 0.98425 0.96036 0.01100
H 	H 	0.48168 0.98766 0.00260 0.01200
C 	C 	0.47902 0.95328 0.92569 -0.05000
H 	H 	0.49029 0.93095 0.93892 0.03900
C 	C 	0.44830 0.95403 0.90713 0.01400
H 	H 	0.43398 0.93248 0.90539 0.02700
C 	C 	0.45596 0.99766 0.23904 -0.00100
H 	H 	0.43600 0.98983 0.25796 0.02300
C 	C 	0.47787 0.02107 0.26489 -0.04200
H 	H 	0.47615 0.03255 0.30541 0.04100
C 	C 	0.47953 0.97443 0.22058 -0.05200
H 	H 	0.47936 0.94726 0.22478 0.03100
C 	C 	0.50113 0.99788 0.24595 0.00400
C 	C 	0.45889 0.01662 0.18553 -0.09300
C 	C 	0.48215 0.99352 0.16675 -0.00900
H 	H 	0.48374 0.98225 0.12602 0.00600
C 	C 	0.50393 0.01693 0.19238 -0.04000
H 	H 	0.52378 0.02493 0.17319 0.03700
C 	C 	0.48040 0.04018 0.21080 0.01100
H 	H 	0.48054 0.06734 0.20644 0.03300
C 	C 	0.49317 0.23456 0.93543 -0.03700
C 	C 	0.48164 0.21365 0.89613 0.00100
C 	C 	0.47472 0.22643 0.84518 -0.03800
H 	H 	0.46630 0.21042 0.81417 0.04000
C 	C 	0.47683 0.26025 0.83547 -0.03800
C 	C 	0.48600 0.28150 0.87654 0.00100
C 	C 	0.49535 0.26833 0.92567 -0.03700
H 	H 	0.50274 0.28448 0.95747 0.04100
C 	C 	0.48161 0.31725 0.87161 0.02600
C 	C 	0.50416 0.33922 0.87689 -0.06400
C 	C 	0.49936 0.37291 0.88319 0.01300
C 	C 	0.47197 0.38477 0.88465 -0.07700
C 	C 	0.44961 0.36309 0.87543 0.01300
C 	C 	0.45440 0.32950 0.86881 -0.06300
C 	C 	0.47244 0.18015 0.91137 0.02700
C 	C 	0.49166 0.15738 0.93160 -0.06400
C 	C 	0.48224 0.12779 0.95450 0.01300
C 	C 	0.45356 0.12095 0.95767 -0.08100
C 	C 	0.43454 0.14286 0.93450 0.01500
C 	C 	0.44392 0.17228 0.91151 -0.06400
H 	H 	0.49715 0.11090 0.97172 0.03600
H 	H 	0.41239 0.13752 0.93571 0.03900
H 	H 	0.42892 0.18960 0.89582 0.04800
H 	H 	0.51375 0.16306 0.93118 0.04700
H 	H 	0.52528 0.33006 0.87848 0.04700
H 	H 	0.51682 0.38944 0.89001 0.03800
H 	H 	0.43686 0.31279 0.86435 0.04700
H 	H 	0.42841 0.37205 0.87582 0.03600
H 	H 	0.47002 0.27009 0.79705 0.04000
H 	H 	0.49883 0.22494 0.97472 0.04100
C 	C 	0.25687 0.49632 0.85993 -0.03900
C 	C 	0.24038 0.51356 0.89701 0.00100
C 	C 	0.25177 0.52332 0.94673 -0.03800
H 	H 	0.23922 0.53675 0.97552 0.04100
C 	C 	0.27968 0.51697 0.95850 -0.03700
C 	C 	0.29645 0.50061 0.92077 -0.00100
C 	C 	0.28478 0.48977 0.87183 -0.03700
H 	H 	0.29745 0.47681 0.84267 0.03900
C 	C 	0.32655 0.49652 0.93128 0.02800
C 	C 	0.34629 0.51033 0.89584 -0.07000
C 	C 	0.37471 0.50884 0.90799 0.02300
C 	C 	0.38365 0.49377 0.95594 -0.10500
C 	C 	0.36393 0.47933 0.99079 0.02600
C 	C 	0.33553 0.48058 0.97841 -0.06700
C 	C 	0.21213 0.52419 0.88188 0.02600
C 	C 	0.20874 0.54855 0.84235 -0.06300
C 	C 	0.18281 0.56329 0.83508 0.01400
C 	C 	0.16001 0.55373 0.86716 -0.07800
C 	C 	0.16288 0.52757 0.90375 0.01300
C 	C 	0.18889 0.51295 0.91126 -0.06300
H 	H 	0.18074 0.58313 0.80617 0.03600
H 	H 	0.14539 0.51980 0.92851 0.03900
H 	H 	0.19123 0.49386 0.94142 0.04800
H 	H 	0.22650 0.55717 0.81909 0.04700
H 	H 	0.33959 0.52284 0.85950 0.04700
H 	H 	0.38969 0.52013 0.88081 0.03500
H 	H 	0.32049 0.46955 0.00576 0.04100
H 	H 	0.37059 0.46721 0.02752 0.02400
H 	H 	0.28847 0.52552 0.99631 0.03800
H 	H 	0.24823 0.48860 0.82151 0.04000
C 	C 	0.67106 0.45458 0.03844 -0.04800
C 	C 	0.68039 0.46315 0.98649 0.00900
C 	C 	0.66131 0.47456 0.94802 -0.04400
H 	H 	0.66835 0.48133 0.90788 0.04000
C 	C 	0.63318 0.47771 0.96153 -0.02800
C 	C 	0.62388 0.46940 0.01358 -0.01100
C 	C 	0.64288 0.45762 0.05189 -0.03300
H 	H 	0.63585 0.45107 0.09213 0.03600
C 	C 	0.59427 0.47315 0.02783 0.03200
C 	C 	0.58288 0.50462 0.03302 -0.07300
C 	C 	0.55419 0.50834 0.04012 0.02100
C 	C 	0.53656 0.48057 0.04154 -0.10500
C 	C 	0.54821 0.44903 0.03913 0.02100
C 	C 	0.57695 0.44535 0.03230 -0.07200
C 	C 	0.71026 0.46146 0.97298 0.02300
C 	C 	0.72915 0.48372 0.99640 -0.06000
C 	C 	0.75715 0.48369 0.98087 0.01500
C 	C 	0.76656 0.46131 0.94183 -0.09500
C 	C 	0.74775 0.43850 0.91933 0.01800
C 	C 	0.71969 0.43866 0.93475 -0.06500
H 	H 	0.77151 0.50112 0.99908 0.03400
H 	H 	0.75471 0.42114 0.88914 0.03800
H 	H 	0.70524 0.42133 0.91654 0.04700
H 	H 	0.72203 0.50139 0.02599 0.04000
H 	H 	0.59617 0.52621 0.03004 0.04500
H 	H 	0.54556 0.53283 0.04216 0.02900
H 	H 	0.58562 0.42094 0.02877 0.04700
H 	H 	0.53493 0.42738 0.04097 0.03200
H 	H 	0.61861 0.48668 0.93164 0.03800
H 	H 	0.68565 0.44575 0.06839 0.04100
C 	C 	0.53765 0.68675 0.97125 -0.04100
C 	C 	0.54476 0.66509 0.92939 0.00000
C 	C 	0.56711 0.67294 0.89492 -0.03900
H 	H 	0.57271 0.65645 0.86238 0.03900
C 	C 	0.58236 0.70204 0.90260 -0.03700
C 	C 	0.57533 0.72354 0.94472 -0.00200
C 	C 	0.55283 0.71585 0.97880 -0.03200
H 	H 	0.54735 0.73219 0.01161 0.03200
C 	C 	0.59208 0.75355 0.95440 0.02700
C 	C 	0.61979 0.75107 0.97184 -0.06600
C 	C 	0.63490 0.77934 0.98582 0.01700
C 	C 	0.62242 0.81043 0.98260 -0.07500
C 	C 	0.59495 0.81294 0.96337 0.01100
C 	C 	0.57986 0.78463 0.94949 -0.06400
C 	C 	0.52925 0.63382 0.92279 0.02700
C 	C 	0.54296 0.60370 0.92917 -0.06900
C 	C 	0.52761 0.57434 0.93147 0.01800
C 	C 	0.49840 0.57490 0.92810 -0.09700
C 	C 	0.48490 0.60478 0.91813 0.01800
C 	C 	0.50027 0.63408 0.91530 -0.06900
H 	H 	0.53830 0.55141 0.93871 0.03500
H 	H 	0.46242 0.60545 0.91449 0.03000
H 	H 	0.48954 0.65713 0.90926 0.04500
H 	H 	0.56535 0.60318 0.93458 0.04600
H 	H 	0.62940 0.72719 0.97569 0.04700
H 	H 	0.65613 0.77699 0.00001 0.03600
H 	H 	0.55854 0.78680 0.93563 0.04600
H 	H 	0.58518 0.83675 0.95976 0.03800
H 	H 	0.59967 0.70781 0.87602 0.03900
H 	H 	0.52059 0.68081 0.99835 0.03700
