data_crystal

_cell_length_a 18.54010
_cell_length_b 18.80838
_cell_length_c 39.58783
_cell_angle_alpha 95.43966
_cell_angle_beta  95.43995
_cell_angle_gamma 126.49991

_symmetry_space_group_name_	'P 1'
_symmetry_space_group_name_H-M	'P 1'

loop_
_symmetry_equiv_pos_as_xyz
  x,y,z

loop_
_atom_site_label
_atom_site_type_symbol
_atom_site_fract_x
_atom_site_fract_y
_atom_site_fract_z
_atom_site_charge
C 	C 	0.95044 0.03982 0.97923 0.18100
N 	N 	0.04262 0.09542 0.98278 -0.12100
C 	C 	0.09006 0.06199 0.98458 0.19000
N 	N 	0.04574 0.97286 0.98361 -0.12300
C 	C 	0.95355 0.91637 0.97992 0.18500
N 	N 	0.90518 0.94951 0.97734 -0.11600
C 	C 	0.90207 0.98578 0.48426 0.19000
N 	N 	0.99414 0.03401 0.48746 -0.12400
C 	C 	0.03312 0.99175 0.48992 0.19200
N 	N 	0.98038 0.90211 0.49002 -0.12400
C 	C 	0.88834 0.85372 0.48606 0.18700
N 	N 	0.84924 0.89545 0.48267 -0.12200
Cu	Cu	0.78316 0.37446 0.96430 0.93000
Cu	Cu	0.81314 0.33361 0.04295 0.89600
Cu	Cu	0.65407 0.34594 0.01267 0.91900
Cu	Cu	0.61999 0.38490 0.94380 0.91100
C 	C 	0.70112 0.33928 0.89272 0.31100
O 	O 	0.84783 0.50872 0.96359 -0.32900
C 	C 	0.69921 0.35020 0.08288 0.28900
O 	O 	0.64425 0.31341 0.96430 -0.63800
O 	O 	0.78422 0.39623 0.01455 -0.63000
O 	O 	0.81832 0.29123 0.96164 -0.33500
O 	O 	0.89526 0.33694 0.01721 -0.38800
O 	O 	0.66978 0.38442 0.90131 -0.35000
O 	O 	0.52633 0.28835 0.01028 -0.35800
C 	C 	0.47442 0.28812 0.98502 0.33500
C 	C 	0.81260 0.54861 0.97442 0.32000
O 	O 	0.73016 0.50043 0.98136 -0.37200
O 	O 	0.50994 0.34600 0.96388 -0.35800
O 	O 	0.76031 0.34126 0.91496 -0.33300
C 	C 	0.86356 0.28379 0.98698 0.32600
O 	O 	0.67400 0.38415 0.06158 -0.35400
O 	O 	0.71857 0.29698 0.07053 -0.39200
H 	H 	0.59961 0.24791 0.95506 0.18200
H 	H 	0.82499 0.46120 0.02479 0.18400
Cu	Cu	0.57615 0.16004 0.50158 0.93400
Cu	Cu	0.64402 0.17937 0.42744 0.89300
Cu	Cu	0.59556 0.29303 0.45838 0.90700
Cu	Cu	0.59894 0.33572 0.53383 0.91300
C 	C 	0.62603 0.22786 0.57475 0.29500
O 	O 	0.44801 0.11703 0.50659 -0.33500
C 	C 	0.58140 0.25228 0.38397 0.30300
O 	O 	0.64990 0.29970 0.50442 -0.63300
O 	O 	0.55377 0.16705 0.45283 -0.63700
O 	O 	0.62798 0.09373 0.49393 -0.34100
O 	O 	0.72882 0.19657 0.46436 -0.41000
O 	O 	0.58386 0.26365 0.56974 -0.35800
O 	O 	0.62547 0.41280 0.46485 -0.34700
C 	C 	0.67667 0.47699 0.49238 0.33200
C 	C 	0.41580 0.16112 0.49830 0.31800
O 	O 	0.47194 0.24721 0.49670 -0.37100
O 	O 	0.67529 0.45815 0.52361 -0.36300
O 	O 	0.61945 0.17231 0.54946 -0.33500
C 	C 	0.70379 0.13162 0.48159 0.33500
O 	O 	0.56078 0.28502 0.40904 -0.33900
O 	O 	0.58507 0.18522 0.38664 -0.38300
H 	H 	0.71748 0.33780 0.50886 0.17900
H 	H 	0.48976 0.12192 0.44051 0.20000
C 	C 	0.65686 0.22905 0.61049 -0.06500
C 	C 	0.61516 0.14826 0.62302 0.03200
C 	C 	0.62724 0.15019 0.65863 -0.05300
C 	C 	0.68155 0.23293 0.68187 0.03700
C 	C 	0.72874 0.31354 0.66915 -0.05300
C 	C 	0.71635 0.31159 0.63363 0.02300
C 	C 	0.68085 0.23554 0.71919 0.01200
C 	C 	0.59998 0.20469 0.73137 -0.02900
C 	C 	0.60187 0.21962 0.76683 -0.02200
C 	C 	0.68448 0.26529 0.79033 0.00900
C 	C 	0.76457 0.29275 0.77833 -0.02100
C 	C 	0.76279 0.27788 0.74287 -0.02900
C 	C 	0.68839 0.28944 0.82645 0.06400
C 	C 	0.69311 0.31135 0.85668 -0.06800
H 	H 	0.56943 0.08411 0.60537 0.06100
H 	H 	0.59154 0.08754 0.66818 0.06800
H 	H 	0.77151 0.37776 0.68687 0.06400
H 	H 	0.74956 0.37431 0.62417 0.04000
H 	H 	0.53639 0.17207 0.71331 0.06100
H 	H 	0.53961 0.19781 0.77594 0.06100
H 	H 	0.82860 0.32759 0.79639 0.06600
H 	H 	0.82548 0.30153 0.73375 0.06100
C 	C 	0.68488 0.35392 0.11888 -0.07100
C 	C 	0.62040 0.36573 0.12764 0.02400
C 	C 	0.60371 0.36470 0.16137 -0.05200
C 	C 	0.65147 0.35226 0.18668 0.03400
C 	C 	0.71714 0.34227 0.17816 -0.05500
C 	C 	0.73380 0.34310 0.14444 0.02100
C 	C 	0.63010 0.34580 0.22171 0.01100
C 	C 	0.69717 0.40969 0.25030 -0.03000
C 	C 	0.68088 0.39730 0.28380 -0.02300
C 	C 	0.59754 0.32097 0.28893 0.00800
C 	C 	0.52871 0.25964 0.26038 -0.02200
C 	C 	0.54487 0.27202 0.22686 -0.03000
C 	C 	0.58823 0.29858 0.32283 0.06100
C 	C 	0.58325 0.27825 0.35096 -0.07300
H 	H 	0.58201 0.37402 0.10823 0.07000
H 	H 	0.55305 0.37268 0.16774 0.06900
H 	H 	0.75432 0.33257 0.19757 0.06200
H 	H 	0.78440 0.33494 0.13816 0.04100
H 	H 	0.76279 0.46743 0.24658 0.05800
H 	H 	0.73437 0.44513 0.30575 0.06300
H 	H 	0.46407 0.20051 0.26413 0.06200
H 	H 	0.49244 0.22262 0.20494 0.05900
C 	C 	0.77257 0.72159 0.51058 0.08200
C 	C 	0.83122 0.75661 0.48651 -0.04500
C 	C 	0.83484 0.69831 0.46285 0.08200
C 	C 	0.78660 0.60716 0.46546 0.11800
C 	C 	0.72537 0.57170 0.48867 -0.11100
C 	C 	0.71415 0.62835 0.50950 0.11800
Br	Br	0.61362 0.57773 0.53396 -0.16700
Br	Br	0.77771 0.80147 0.54688 -0.13800
Br	Br	0.80883 0.53277 0.43884 -0.21000
Br	Br	0.90106 0.74184 0.42562 -0.14500
C 	C 	0.80855 0.02075 0.45188 0.08100
C 	C 	0.85932 0.03110 0.48322 -0.04600
C 	C 	0.85871 0.07418 0.51421 0.08200
C 	C 	0.80663 0.10615 0.51382 0.12000
C 	C 	0.75343 0.09305 0.48258 -0.11800
C 	C 	0.75335 0.04900 0.45169 0.11800
Br	Br	0.67400 0.02328 0.40948 -0.23800
Br	Br	0.81570 0.96867 0.40913 -0.13900
Br	Br	0.80916 0.16904 0.55591 -0.17400
Br	Br	0.92742 0.08725 0.55724 -0.13600
C 	C 	0.28083 0.10488 0.52646 0.11400
C 	C 	0.31779 0.11782 0.49609 -0.10700
C 	C 	0.26232 0.09496 0.46393 0.11400
C 	C 	0.16944 0.05692 0.46205 0.08500
C 	C 	0.13227 0.04259 0.49235 -0.04700
C 	C 	0.18835 0.06809 0.52459 0.08400
Br	Br	0.13819 0.05295 0.56621 -0.13900
Br	Br	0.35721 0.13870 0.57069 -0.17400
Br	Br	0.09245 0.02268 0.41794 -0.13500
Br	Br	0.31337 0.11469 0.42246 -0.19000
C 	C 	0.90602 0.78728 0.00904 0.08300
C 	C 	0.90694 0.81932 0.97824 -0.04500
C 	C 	0.88388 0.76417 0.94625 0.08300
C 	C 	0.86333 0.67866 0.94513 0.11000
C 	C 	0.86143 0.64613 0.97596 -0.10900
C 	C 	0.88532 0.70176 0.00796 0.11600
Br	Br	0.89049 0.66083 0.05034 -0.19500
Br	Br	0.93367 0.86116 0.05279 -0.13900
Br	Br	0.83720 0.60583 0.90133 -0.16700
Br	Br	0.88041 0.80608 0.90395 -0.13500
C 	C 	0.90596 0.19763 0.95339 0.11800
C 	C 	0.87198 0.20989 0.98201 -0.11700
C 	C 	0.84263 0.14892 0.00514 0.11700
C 	C 	0.86076 0.08581 0.00277 0.08300
C 	C 	0.90037 0.07788 0.97543 -0.04300
C 	C 	0.91382 0.12746 0.94900 0.08000
Br	Br	0.94554 0.10039 0.90727 -0.13900
Br	Br	0.94907 0.28103 0.92187 -0.15600
Br	Br	0.83584 0.01385 0.03793 -0.13900
Br	Br	0.77167 0.14685 0.03819 -0.25900
C 	C 	0.24923 0.18780 0.01362 0.08300
C 	C 	0.18804 0.12089 0.98450 -0.04800
C 	C 	0.22056 0.11219 0.95487 0.08300
C 	C 	0.31480 0.16631 0.95524 0.11600
C 	C 	0.37603 0.23371 0.98426 -0.11400
C 	C 	0.34287 0.24667 0.01295 0.12000
Br	Br	0.42486 0.34812 0.05029 -0.16800
Br	Br	0.20496 0.19659 0.05482 -0.14900
Br	Br	0.36047 0.14572 0.91661 -0.20200
Br	Br	0.13567 0.02906 0.91327 -0.13100
