data_crystal

_cell_length_a 18.91634
_cell_length_b 18.73570
_cell_length_c 36.95566
_cell_angle_alpha 95.42558
_cell_angle_beta  95.43003
_cell_angle_gamma 126.62661

_symmetry_space_group_name_	'P 1'
_symmetry_space_group_name_H-M	'P 1'

loop_
_symmetry_equiv_pos_as_xyz
  x,y,z

loop_
_atom_site_label
_atom_site_type_symbol
_atom_site_fract_x
_atom_site_fract_y
_atom_site_fract_z
_atom_site_charge
C 	C 	0.92286 0.01020 0.96979 0.04200
C 	C 	0.87668 0.91695 0.96927 -0.08700
C 	C 	0.92465 0.88159 0.97168 0.04000
C 	C 	0.01790 0.93934 0.97499 -0.08700
C 	C 	0.06352 0.03171 0.97547 0.04200
C 	C 	0.01631 0.06719 0.97312 -0.08600
H 	H 	0.80440 0.87247 0.96685 0.05000
H 	H 	0.05490 0.91213 0.97680 0.05200
H 	H 	0.05221 0.13913 0.97379 0.05100
C 	C 	0.94266 0.03325 0.50034 0.04000
C 	C 	0.89262 0.94053 0.50099 -0.08800
C 	C 	0.93274 0.89759 0.49861 0.03900
C 	C 	0.02386 0.94773 0.49721 -0.08800
C 	C 	0.07502 0.04054 0.49708 0.04000
C 	C 	0.03443 0.08371 0.49847 -0.08600
H 	H 	0.82181 0.90126 0.50204 0.05200
H 	H 	0.05480 0.91425 0.49571 0.05200
H 	H 	0.07343 0.15530 0.49770 0.04900
Cu	Cu	0.74413 0.33453 0.95824 0.92300
Cu	Cu	0.77359 0.29099 0.04175 0.87200
Cu	Cu	0.61849 0.30853 0.01069 0.90900
Cu	Cu	0.58895 0.35136 0.93752 0.89400
C 	C 	0.67114 0.31173 0.88170 0.30600
O 	O 	0.80880 0.46956 0.95805 -0.36000
C 	C 	0.66052 0.30160 0.08484 0.30500
O 	O 	0.60848 0.27551 0.95858 -0.63900
O 	O 	0.74551 0.35551 0.01236 -0.63200
O 	O 	0.78083 0.25282 0.95480 -0.36500
O 	O 	0.85613 0.29954 0.01433 -0.42700
O 	O 	0.64293 0.35828 0.89281 -0.39100
O 	O 	0.49353 0.25445 0.00797 -0.38300
C 	C 	0.44310 0.25173 0.97980 0.29700
C 	C 	0.77786 0.51125 0.97204 0.28600
O 	O 	0.69666 0.46362 0.97925 -0.40000
O 	O 	0.47878 0.31032 0.95737 -0.39700
O 	O 	0.71986 0.30102 0.90518 -0.36300
C 	C 	0.82597 0.24641 0.98199 0.29100
O 	O 	0.63577 0.33847 0.06385 -0.38400
O 	O 	0.67766 0.24840 0.06965 -0.43300
H 	H 	0.56306 0.20999 0.94834 0.15700
H 	H 	0.78700 0.42067 0.02366 0.15400
Cu	Cu	0.60316 0.19251 0.50686 0.92500
Cu	Cu	0.66668 0.18956 0.42741 0.87100
Cu	Cu	0.65191 0.33087 0.45651 0.89600
Cu	Cu	0.61390 0.36467 0.53081 0.89300
C 	C 	0.63495 0.26497 0.58442 0.30500
O 	O 	0.47289 0.14194 0.50788 -0.36400
C 	C 	0.62107 0.26460 0.37571 0.30400
O 	O 	0.67890 0.33279 0.50827 -0.63900
O 	O 	0.58729 0.19788 0.45353 -0.63900
O 	O 	0.65965 0.12923 0.50482 -0.36900
O 	O 	0.75352 0.22105 0.46864 -0.44200
O 	O 	0.60093 0.30636 0.57482 -0.39600
O 	O 	0.72232 0.46122 0.46284 -0.38400
C 	C 	0.72503 0.51333 0.49053 0.29700
C 	C 	0.44065 0.18324 0.49598 0.28800
O 	O 	0.49551 0.26525 0.48945 -0.39500
O 	O 	0.66466 0.47901 0.51203 -0.39900
O 	O 	0.63713 0.21088 0.55962 -0.36500
C 	C 	0.73280 0.16343 0.49078 0.29500
O 	O 	0.64119 0.32969 0.40246 -0.38500
O 	O 	0.60867 0.19088 0.38290 -0.42400
H 	H 	0.74376 0.37129 0.51899 0.16100
H 	H 	0.52440 0.16031 0.44007 0.17300
C 	C 	0.65963 0.25226 0.69417 -0.00600
C 	C 	0.58092 0.19623 0.70811 -0.03600
C 	C 	0.58424 0.20259 0.74635 -0.03600
C 	C 	0.66629 0.26495 0.77086 -0.00600
C 	C 	0.74562 0.31775 0.75692 -0.03600
C 	C 	0.74230 0.31141 0.71864 -0.03600
C 	C 	0.66797 0.28064 0.81003 0.04100
C 	C 	0.66930 0.29372 0.84280 -0.10600
C 	C 	0.65396 0.25722 0.65539 0.04100
C 	C 	0.64702 0.25986 0.62282 -0.10700
H 	H 	0.51677 0.15015 0.68939 0.03800
H 	H 	0.52269 0.16116 0.75689 0.03600
H 	H 	0.80942 0.36572 0.77568 0.03900
H 	H 	0.80350 0.35476 0.70812 0.03700
C 	C 	0.61775 0.29517 0.26769 -0.00700
C 	C 	0.69042 0.37366 0.25787 -0.03700
C 	C 	0.69659 0.37766 0.22055 -0.03600
C 	C 	0.63008 0.30319 0.19290 -0.00900
C 	C 	0.55563 0.22616 0.20265 -0.03500
C 	C 	0.54947 0.22216 0.23995 -0.03700
C 	C 	0.64109 0.30342 0.15479 0.04200
C 	C 	0.64984 0.30310 0.12284 -0.11800
C 	C 	0.61834 0.28553 0.30597 0.04100
C 	C 	0.61845 0.27706 0.33795 -0.11300
H 	H 	0.74344 0.43045 0.27912 0.03600
H 	H 	0.75411 0.43766 0.21324 0.03400
H 	H 	0.50368 0.16853 0.18143 0.03800
H 	H 	0.49303 0.16129 0.24729 0.03700
C 	C 	0.77940 0.64571 0.46045 -0.01700
C 	C 	0.78290 0.61171 0.49222 -0.10600
C 	C 	0.83752 0.67210 0.52598 0.09000
C 	C 	0.88312 0.76525 0.52792 -0.08400
C 	C 	0.87863 0.79907 0.49629 -0.01400
C 	C 	0.82773 0.73919 0.46211 0.03100
C 	C 	0.82420 0.77468 0.42753 -0.17400
H 	H 	0.73777 0.59921 0.43455 0.04300
H 	H 	0.92339 0.81175 0.55397 0.04800
C 	C 	0.84649 0.63761 0.56007 -0.19700
H 	H 	0.78581 0.71962 0.40270 0.06100
H 	H 	0.89314 0.82497 0.42257 0.06200
H 	H 	0.79121 0.80734 0.43059 0.06200
H 	H 	0.85561 0.58496 0.55301 0.05700
H 	H 	0.78553 0.60855 0.57242 0.06400
H 	H 	0.90563 0.69288 0.58123 0.06300
C 	C 	0.83530 0.14372 0.52770 -0.01800
C 	C 	0.78153 0.12458 0.49383 -0.10600
C 	C 	0.78336 0.07798 0.46192 0.08300
C 	C 	0.84277 0.05620 0.46397 -0.08000
C 	C 	0.89606 0.07460 0.49781 -0.01500
C 	C 	0.89247 0.11880 0.52999 0.03300
C 	C 	0.94837 0.13835 0.56679 -0.17600
H 	H 	0.83389 0.17942 0.55215 0.03900
H 	H 	0.84494 0.02148 0.43939 0.04600
C 	C 	0.72312 0.05240 0.42549 -0.18700
H 	H 	0.94133 0.17703 0.58890 0.06200
H 	H 	0.02033 0.17915 0.56468 0.06300
H 	H 	0.92699 0.07378 0.57515 0.06600
H 	H 	0.75187 0.11245 0.41211 0.03100
H 	H 	0.65479 0.02637 0.42973 0.03700
H 	H 	0.71600 0.99814 0.40634 0.05700
C 	C 	0.23265 0.12761 0.52956 -0.08500
C 	C 	0.17164 0.09195 0.49607 -0.01300
C 	C 	0.19979 0.08762 0.46237 0.03000
C 	C 	0.28662 0.11326 0.46292 -0.01800
C 	C 	0.34635 0.14517 0.49655 -0.10700
C 	C 	0.31942 0.15324 0.53018 0.09200
C 	C 	0.38377 0.19210 0.56663 -0.20300
H 	H 	0.21116 0.13162 0.55536 0.04800
H 	H 	0.30800 0.10915 0.43710 0.03100
C 	C 	0.13608 0.05158 0.42591 -0.17200
H 	H 	0.34978 0.18504 0.59046 0.06800
H 	H 	0.43780 0.26526 0.56802 0.06400
H 	H 	0.41341 0.15618 0.56967 0.08700
H 	H 	0.10018 0.08161 0.42529 0.06300
H 	H 	0.08640 0.97677 0.42200 0.05900
H 	H 	0.17222 0.06861 0.40232 0.05900
C 	C 	0.83615 0.64003 0.93932 -0.02300
C 	C 	0.82615 0.60883 0.97289 -0.10500
C 	C 	0.84501 0.66676 0.00590 0.09000
C 	C 	0.86871 0.75304 0.00446 -0.08500
C 	C 	0.87810 0.78402 0.97087 -0.01400
C 	C 	0.86036 0.72656 0.93792 0.03200
C 	C 	0.86987 0.75833 0.90143 -0.17600
H 	H 	0.82134 0.59544 0.91398 0.04100
H 	H 	0.88333 0.79759 0.02978 0.04700
C 	C 	0.83809 0.63618 0.04259 -0.19800
H 	H 	0.83948 0.70132 0.87771 0.06100
H 	H 	0.94202 0.80908 0.90059 0.06300
H 	H 	0.83544 0.78947 0.89780 0.06200
H 	H 	0.86810 0.60042 0.04490 0.06000
H 	H 	0.76655 0.58993 0.04518 0.07200
H 	H 	0.87450 0.69460 0.06610 0.06300
C 	C 	0.86109 0.15825 0.94380 -0.02000
C 	C 	0.83692 0.17430 0.97660 -0.10600
C 	C 	0.82078 0.11933 0.00344 0.07900
C 	C 	0.84285 0.05980 0.99960 -0.07700
C 	C 	0.87454 0.04971 0.96824 -0.01600
C 	C 	0.87640 0.09355 0.93881 0.03400
C 	C 	0.89978 0.07561 0.90291 -0.17700
H 	H 	0.86916 0.19689 0.92234 0.04500
H 	H 	0.83849 0.02385 0.02167 0.04600
C 	C 	0.78031 0.12356 0.03607 -0.18700
H 	H 	0.87084 0.08991 0.87974 0.06300
H 	H 	0.87238 0.00351 0.89579 0.06400
H 	H 	0.97377 0.11958 0.90534 0.06400
H 	H 	0.72387 0.12559 0.02720 0.02400
H 	H 	0.83234 0.18443 0.05734 0.04100
H 	H 	0.75288 0.06286 0.04897 0.06000
C 	C 	0.19291 0.08694 0.94449 -0.08300
C 	C 	0.16066 0.09063 0.97663 -0.01400
C 	C 	0.22125 0.14734 0.00996 0.03200
C 	C 	0.31366 0.20093 0.01038 -0.01700
C 	C 	0.34602 0.19639 0.97832 -0.10500
C 	C 	0.28524 0.13774 0.94523 0.08900
C 	C 	0.31835 0.12912 0.91071 -0.19600
H 	H 	0.14585 0.04306 0.91901 0.04700
H 	H 	0.36056 0.24615 0.03570 0.04400
C 	C 	0.18763 0.15128 0.04496 -0.17600
H 	H 	0.26321 0.06987 0.88948 0.06200
H 	H 	0.37043 0.11957 0.91723 0.05500
H 	H 	0.34690 0.19098 0.89860 0.06400
H 	H 	0.14073 0.08208 0.05088 0.06500
H 	H 	0.15238 0.18164 0.04182 0.06400
H 	H 	0.24342 0.19290 0.06926 0.06200
