data_crystal

_cell_length_a 26.14528
_cell_length_b 26.59807
_cell_length_c 26.02500
_cell_angle_alpha 95.53308
_cell_angle_beta  95.53071
_cell_angle_gamma 125.89751

_symmetry_space_group_name_	'P 1'
_symmetry_space_group_name_H-M	'P 1'

loop_
_symmetry_equiv_pos_as_xyz
  x,y,z

loop_
_atom_site_label
_atom_site_type_symbol
_atom_site_fract_x
_atom_site_fract_y
_atom_site_fract_z
_atom_site_charge
C 	C 	0.93722 0.99870 0.98168 0.10800
C 	C 	0.00091 0.02971 0.97436 -0.11600
C 	C 	0.02879 0.99787 0.97470 0.12000
C 	C 	0.99335 0.93575 0.98377 -0.10900
C 	C 	0.92889 0.90388 0.98850 0.10200
C 	C 	0.90092 0.93541 0.98759 -0.10000
H 	H 	0.02846 0.07812 0.96827 0.08300
H 	H 	0.01518 0.91147 0.98515 0.09600
H 	H 	0.85093 0.91070 0.99116 0.08900
C 	C 	0.96604 0.03149 0.46258 0.06700
C 	C 	0.93081 0.96565 0.45807 -0.06700
C 	C 	0.96306 0.93805 0.45984 0.07100
C 	C 	0.03033 0.97645 0.46696 -0.06500
C 	C 	0.06528 0.04187 0.47067 0.07000
C 	C 	0.03323 0.06942 0.46917 -0.06900
H 	H 	0.87879 0.93614 0.45261 0.08100
H 	H 	0.05530 0.95524 0.46833 0.08200
H 	H 	0.06041 0.12015 0.47213 0.08200
Cu	Cu	0.61799 0.22345 0.99759 0.91900
Cu	Cu	0.66034 0.21122 0.88515 0.89300
Cu	Cu	0.64111 0.31891 0.92846 0.91500
Cu	Cu	0.59623 0.32693 0.02846 0.90900
C 	C 	0.62841 0.27031 0.10554 0.30100
O 	O 	0.52128 0.17322 0.99247 -0.35100
C 	C 	0.66944 0.30233 0.82932 0.30200
O 	O 	0.65636 0.31927 0.00193 -0.62500
O 	O 	0.60907 0.22871 0.92181 -0.62800
O 	O 	0.67582 0.19681 0.00177 -0.32000
O 	O 	0.64129 0.14329 0.91744 -0.39800
O 	O 	0.59044 0.28540 0.08954 -0.35600
O 	O 	0.67778 0.40742 0.93794 -0.35100
C 	C 	0.67026 0.43767 0.97614 0.27600
C 	C 	0.48962 0.19293 0.97137 0.29600
O 	O 	0.52097 0.25204 0.96553 -0.37000
O 	O 	0.62478 0.40703 0.00401 -0.33500
O 	O 	0.63619 0.23502 0.07295 -0.32800
C 	C 	0.67080 0.15526 0.96554 0.29000
O 	O 	0.63697 0.31700 0.85370 -0.34000
O 	O 	0.70248 0.28719 0.85571 -0.40500
H 	H 	0.70160 0.35149 0.01998 0.17700
H 	H 	0.56389 0.19973 0.90291 0.18000
Cu	Cu	0.75553 0.36080 0.43573 0.93100
Cu	Cu	0.79084 0.33944 0.55329 0.89800
Cu	Cu	0.66933 0.34212 0.51474 0.91700
Cu	Cu	0.63736 0.36539 0.41110 0.90200
C 	C 	0.69018 0.33263 0.32922 0.30400
O 	O 	0.79661 0.45311 0.43135 -0.32600
C 	C 	0.70591 0.33534 0.61750 0.31000
O 	O 	0.65830 0.31649 0.44085 -0.63800
O 	O 	0.76147 0.37938 0.51304 -0.62300
O 	O 	0.78922 0.30928 0.43145 -0.33500
O 	O 	0.85228 0.35290 0.51302 -0.39400
O 	O 	0.67007 0.36587 0.34491 -0.36500
O 	O 	0.57901 0.29970 0.51454 -0.36100
C 	C 	0.53936 0.29930 0.47873 0.31200
C 	C 	0.77356 0.48195 0.45105 0.30300
O 	O 	0.71740 0.44867 0.46530 -0.37800
O 	O 	0.56046 0.33658 0.44367 -0.36400
O 	O 	0.73291 0.33261 0.36079 -0.33000
C 	C 	0.83289 0.31587 0.46735 0.31100
O 	O 	0.68448 0.36058 0.59045 -0.35600
O 	O 	0.72186 0.30229 0.59293 -0.39500
H 	H 	0.62710 0.27030 0.42786 0.17800
H 	H 	0.78958 0.42533 0.52741 0.18300
C 	C 	0.74088 0.34994 0.76457 -0.03100
C 	C 	0.67849 0.31402 0.77558 -0.07800
C 	C 	0.62519 0.28711 0.73457 0.12300
C 	C 	0.63485 0.29623 0.68329 -0.02400
C 	C 	0.69712 0.33078 0.67219 -0.08000
C 	C 	0.75037 0.35826 0.71316 0.12800
Br	Br	0.83649 0.40831 0.69982 -0.24100
H 	H 	0.78207 0.37121 0.79598 0.08000
H 	H 	0.59374 0.27483 0.65176 0.08100
Br	Br	0.53873 0.23409 0.74692 -0.19100
C 	C 	0.70993 0.33043 0.18755 -0.03500
C 	C 	0.64792 0.27844 0.16228 -0.07200
C 	C 	0.60248 0.23986 0.19238 0.13000
C 	C 	0.61807 0.25601 0.24731 -0.03400
C 	C 	0.67876 0.31034 0.27255 -0.07300
C 	C 	0.72546 0.34682 0.24248 0.13100
Br	Br	0.80932 0.42141 0.27554 -0.18500
H 	H 	0.74521 0.35987 0.16448 0.06900
H 	H 	0.58229 0.22737 0.27033 0.06600
Br	Br	0.51843 0.16578 0.15905 -0.18300
C 	C 	0.80303 0.54812 0.44648 -0.09000
C 	C 	0.86686 0.59738 0.47143 0.15200
C 	C 	0.89127 0.66040 0.47109 -0.07900
C 	C 	0.85210 0.67480 0.44694 0.03200
C 	C 	0.78880 0.62553 0.42116 0.08400
C 	C 	0.76483 0.56266 0.42066 -0.00300
H 	H 	0.94019 0.69824 0.49068 0.09300
C 	C 	0.87734 0.74157 0.44948 0.01200
H 	H 	0.71585 0.52495 0.40109 0.05900
C 	C 	0.89934 0.77032 0.40609 -0.05800
C 	C 	0.92306 0.83335 0.40770 0.11000
C 	C 	0.92668 0.86882 0.45367 -0.01700
C 	C 	0.90293 0.83952 0.49649 -0.05200
C 	C 	0.87805 0.77610 0.49452 0.10300
H 	H 	0.89762 0.74353 0.37095 0.09000
H 	H 	0.90528 0.86650 0.53183 0.07800
Br	Br	0.73356 0.64323 0.38800 -0.18000
Br	Br	0.92027 0.57992 0.50858 -0.20400
Br	Br	0.94956 0.87008 0.34653 -0.16400
Br	Br	0.84516 0.73739 0.55360 -0.18200
C 	C 	0.93292 0.06115 0.45990 -0.01800
C 	C 	0.91685 0.07318 0.41171 0.11000
C 	C 	0.89760 0.11243 0.41102 -0.05900
C 	C 	0.89467 0.14027 0.45813 0.01000
C 	C 	0.90787 0.12592 0.50607 0.10400
C 	C 	0.92670 0.08634 0.50670 -0.05400
H 	H 	0.88633 0.12244 0.37396 0.08900
C 	C 	0.87859 0.18505 0.45710 0.03200
H 	H 	0.93892 0.07713 0.54385 0.07700
C 	C 	0.81473 0.16293 0.45520 -0.08200
C 	C 	0.79917 0.20516 0.45791 0.14900
C 	C 	0.84775 0.27031 0.46117 -0.10100
C 	C 	0.91149 0.29228 0.46209 -0.00200
C 	C 	0.92711 0.25002 0.46003 0.08200
H 	H 	0.77736 0.11302 0.45312 0.09200
H 	H 	0.94906 0.34230 0.46495 0.07400
Br	Br	0.90270 0.16176 0.57122 -0.19500
Br	Br	0.92294 0.03799 0.34669 -0.16900
Br	Br	0.71208 0.17340 0.46079 -0.24900
Br	Br	0.01508 0.28199 0.46242 -0.17600
C 	C 	0.13532 0.08127 0.47384 -0.01900
C 	C 	0.16164 0.09626 0.42803 0.11100
C 	C 	0.22826 0.13277 0.43158 -0.06000
C 	C 	0.26895 0.15399 0.48046 0.01200
C 	C 	0.24266 0.13927 0.52631 0.10300
C 	C 	0.17602 0.10303 0.52280 -0.05200
H 	H 	0.24843 0.14415 0.39626 0.08800
C 	C 	0.33892 0.19120 0.48318 0.03200
H 	H 	0.15582 0.09147 0.55809 0.07800
C 	C 	0.37657 0.25735 0.49215 -0.08100
C 	C 	0.44259 0.29334 0.49234 0.15300
C 	C 	0.47115 0.26288 0.48247 -0.09300
C 	C 	0.43376 0.19680 0.47489 -0.00800
C 	C 	0.36786 0.16087 0.47511 0.08500
H 	H 	0.35450 0.28079 0.49909 0.09400
H 	H 	0.45576 0.17327 0.46798 0.06500
Br	Br	0.29700 0.16757 0.59387 -0.17800
Br	Br	0.10723 0.06645 0.36024 -0.16300
Br	Br	0.49332 0.38390 0.50866 -0.18600
Br	Br	0.31803 0.07042 0.46422 -0.18300
C 	C 	0.88904 0.83578 0.98905 -0.04900
C 	C 	0.87082 0.81332 0.03581 0.13300
C 	C 	0.83339 0.74835 0.03543 -0.04600
C 	C 	0.81474 0.70564 0.98890 0.00300
C 	C 	0.83279 0.72814 0.94215 0.10000
C 	C 	0.86967 0.79296 0.94242 -0.04300
H 	H 	0.81958 0.73108 0.07146 0.09000
C 	C 	0.77750 0.63762 0.98956 -0.00600
H 	H 	0.88364 0.81020 0.90639 0.08400
C 	C 	0.71034 0.59894 0.97477 -0.06400
C 	C 	0.67463 0.53341 0.97029 0.13400
C 	C 	0.70625 0.50634 0.98193 -0.06200
C 	C 	0.77327 0.54522 0.99784 -0.07800
C 	C 	0.80898 0.61063 0.00173 0.14400
H 	H 	0.68608 0.61967 0.96518 0.08700
H 	H 	0.79770 0.52450 0.00684 0.09400
Br	Br	0.80835 0.67101 0.87777 -0.17900
Br	Br	0.89812 0.87072 0.10072 -0.16200
Br	Br	0.58340 0.48160 0.94499 -0.18700
Br	Br	0.90087 0.66228 0.02253 -0.17400
C 	C 	0.71315 0.13650 0.97494 -0.09800
C 	C 	0.78005 0.18066 0.97833 0.14700
C 	C 	0.81915 0.16086 0.98217 -0.08700
C 	C 	0.79209 0.09716 0.98183 0.03500
C 	C 	0.72547 0.05327 0.97973 0.07800
C 	C 	0.68631 0.07309 0.97611 -0.00500
H 	H 	0.87044 0.19474 0.98402 0.08900
C 	C 	0.83342 0.07638 0.98160 -0.01000
H 	H 	0.63489 0.03900 0.97342 0.06800
C 	C 	0.86366 0.07698 0.02940 -0.04100
C 	C 	0.90075 0.05484 0.02983 0.13300
C 	C 	0.90774 0.03182 0.98204 -0.05700
C 	C 	0.87979 0.03379 0.93427 -0.04400
C 	C 	0.84274 0.05598 0.93382 0.10400
H 	H 	0.85757 0.09382 0.06622 0.08800
H 	H 	0.88532 0.01636 0.89743 0.07600
Br	Br	0.68708 0.96594 0.98070 -0.18200
Br	Br	0.81849 0.26752 0.97479 -0.25800
Br	Br	0.94102 0.05575 0.09599 -0.17300
Br	Br	0.80404 0.05676 0.86764 -0.19500
C 	C 	0.41873 0.15157 0.96108 -0.08300
C 	C 	0.38398 0.15628 0.91934 0.14200
C 	C 	0.31950 0.13088 0.91869 -0.07800
C 	C 	0.28829 0.09780 0.95775 0.01900
C 	C 	0.32064 0.08592 0.99534 0.08300
C 	C 	0.38593 0.11377 0.99746 -0.03700
H 	H 	0.29371 0.13709 0.88794 0.08900
C 	C 	0.22216 0.07645 0.95937 0.03100
H 	H 	0.41167 0.10793 0.02858 0.10600
C 	C 	0.17097 0.02641 0.92081 -0.08100
C 	C 	0.10777 0.00377 0.92307 0.12700
C 	C 	0.09517 0.02939 0.96566 -0.07500
C 	C 	0.14663 0.08176 0.00255 0.02100
C 	C 	0.21004 0.10627 0.99889 0.05200
H 	H 	0.18032 0.00511 0.88906 0.08800
H 	H 	0.13733 0.10276 0.03458 0.07300
Br	Br	0.27647 0.03188 0.04398 -0.15200
Br	Br	0.42237 0.19335 0.86117 -0.19600
Br	Br	0.03959 0.93970 0.86661 -0.19900
Br	Br	0.27939 0.18101 0.04756 -0.15400
