data_crystal

_cell_length_a 35.19824
_cell_length_b 35.75920
_cell_length_c 35.04598
_cell_angle_alpha 95.52627
_cell_angle_beta  95.52629
_cell_angle_gamma 125.38949

_symmetry_space_group_name_	'P 1'
_symmetry_space_group_name_H-M	'P 1'

loop_
_symmetry_equiv_pos_as_xyz
  x,y,z

loop_
_atom_site_label
_atom_site_type_symbol
_atom_site_fract_x
_atom_site_fract_y
_atom_site_fract_z
_atom_site_charge
C 	C 	0.97630 0.01877 0.99361 0.12900
N 	N 	0.02320 0.04430 0.99201 -0.13800
C 	C 	0.04466 0.02289 0.98835 0.13200
N 	N 	0.01924 0.97605 0.98616 -0.13700
C 	C 	0.97240 0.95054 0.98771 0.13200
N 	N 	0.95089 0.97187 0.99140 -0.13800
C 	C 	0.95278 0.00085 0.44651 0.12800
N 	N 	0.00011 0.02619 0.44678 -0.13900
C 	C 	0.02261 0.00576 0.44977 0.13300
N 	N 	0.99784 0.96006 0.45251 -0.14000
C 	C 	0.95057 0.93464 0.45228 0.13300
N 	N 	0.92793 0.95501 0.44931 -0.13800
Cu	Cu	0.65282 0.26321 0.99546 0.92800
Cu	Cu	0.69074 0.26286 0.91393 0.86800
Cu	Cu	0.67827 0.33492 0.94286 0.89600
Cu	Cu	0.65611 0.35187 0.01989 0.89400
C 	C 	0.66867 0.30091 0.07648 0.28900
O 	O 	0.58418 0.23791 0.99510 -0.36300
C 	C 	0.66883 0.30416 0.85861 0.28500
O 	O 	0.69241 0.33578 0.99733 -0.63900
O 	O 	0.64624 0.26648 0.93944 -0.64100
O 	O 	0.68028 0.22772 0.99399 -0.37400
O 	O 	0.73405 0.27492 0.95843 -0.44500
O 	O 	0.64805 0.32053 0.06581 -0.38500
O 	O 	0.71381 0.40212 0.94912 -0.38600
C 	C 	0.71239 0.42938 0.97626 0.31300
C 	C 	0.56637 0.25809 0.98001 0.30300
O 	O 	0.59476 0.30127 0.97485 -0.39500
O 	O 	0.68415 0.41259 0.00200 -0.39700
O 	O 	0.66944 0.27179 0.05089 -0.36200
C 	C 	0.72041 0.24471 0.98181 0.31100
O 	O 	0.67019 0.33335 0.88608 -0.37900
O 	O 	0.66308 0.26589 0.86594 -0.42000
H 	H 	0.72664 0.35570 0.00896 0.16200
H 	H 	0.61340 0.24671 0.92430 0.17500
Cu	Cu	0.72448 0.33797 0.44417 0.92800
Cu	Cu	0.72706 0.30464 0.52781 0.87100
Cu	Cu	0.64955 0.31010 0.49532 0.89700
Cu	Cu	0.63385 0.33355 0.41804 0.89400
C 	C 	0.68694 0.32130 0.36266 0.28700
O 	O 	0.75001 0.40548 0.44386 -0.36300
C 	C 	0.68458 0.32863 0.58057 0.28700
O 	O 	0.65061 0.29844 0.44105 -0.64000
O 	O 	0.71974 0.34469 0.49985 -0.64100
O 	O 	0.76052 0.31077 0.44698 -0.37500
O 	O 	0.71421 0.25996 0.48479 -0.44300
O 	O 	0.66614 0.34102 0.37243 -0.38400
O 	O 	0.58098 0.27311 0.48711 -0.38300
C 	C 	0.55401 0.27481 0.45946 0.30800
C 	C 	0.72870 0.42274 0.45769 0.30100
O 	O 	0.68481 0.39455 0.46274 -0.39300
O 	O 	0.57231 0.30589 0.43639 -0.39500
O 	O 	0.71683 0.32158 0.38886 -0.36100
C 	C 	0.74374 0.27202 0.46045 0.30800
O 	O 	0.64821 0.31143 0.55172 -0.38500
O 	O 	0.72379 0.33433 0.57420 -0.42000
H 	H 	0.63119 0.26495 0.42886 0.16300
H 	H 	0.73812 0.37727 0.51421 0.17300
C 	C 	0.65072 0.34184 0.76535 -0.06300
C 	C 	0.67121 0.32760 0.74099 0.01900
C 	C 	0.69063 0.30564 0.75523 -0.06400
C 	C 	0.68967 0.29795 0.79353 0.01100
C 	C 	0.66932 0.31222 0.81810 -0.08800
C 	C 	0.64990 0.33432 0.80385 0.01500
C 	C 	0.67211 0.33518 0.70042 0.01800
H 	H 	0.70642 0.29447 0.73655 0.04300
H 	H 	0.70515 0.28127 0.80424 0.02000
H 	H 	0.63384 0.34527 0.82240 0.03700
H 	H 	0.63553 0.35871 0.75451 0.04700
C 	C 	0.63140 0.30473 0.67150 -0.06200
C 	C 	0.63466 0.30483 0.63203 0.01100
C 	C 	0.67879 0.33535 0.62124 -0.08800
C 	C 	0.71865 0.36841 0.65026 0.01100
C 	C 	0.71532 0.36826 0.68967 -0.06300
H 	H 	0.59776 0.27936 0.67956 0.04600
H 	H 	0.60346 0.27952 0.60998 0.03700
H 	H 	0.75263 0.39299 0.64232 0.03000
H 	H 	0.74681 0.39237 0.71185 0.04400
C 	C 	0.66812 0.26042 0.17210 -0.06200
C 	C 	0.68846 0.30194 0.19885 0.02000
C 	C 	0.70617 0.34379 0.18530 -0.06200
C 	C 	0.70159 0.34377 0.14524 0.01200
C 	C 	0.67947 0.30193 0.11837 -0.08300
C 	C 	0.66381 0.26042 0.13199 0.01600
C 	C 	0.68724 0.30094 0.24065 0.02000
H 	H 	0.72209 0.37604 0.20578 0.04600
H 	H 	0.71422 0.37607 0.13507 0.02300
H 	H 	0.64667 0.22788 0.11156 0.04000
H 	H 	0.65453 0.22797 0.18233 0.04700
C 	C 	0.64433 0.28232 0.25383 -0.06200
C 	C 	0.64396 0.28706 0.29382 0.01100
C 	C 	0.68648 0.31026 0.32098 -0.08300
C 	C 	0.72911 0.32683 0.30776 0.01600
C 	C 	0.72949 0.32235 0.26773 -0.06200
H 	H 	0.61151 0.26556 0.23310 0.04600
H 	H 	0.61081 0.27374 0.30369 0.02300
H 	H 	0.76217 0.34480 0.32842 0.04000
H 	H 	0.76276 0.33664 0.25778 0.04700
C 	C 	0.78640 0.56077 0.46326 -0.00900
C 	C 	0.77740 0.57474 0.42962 -0.03000
C 	C 	0.79565 0.62152 0.43039 -0.04400
C 	C 	0.82299 0.65467 0.46487 0.01100
C 	C 	0.83174 0.64056 0.49862 -0.04400
C 	C 	0.81350 0.59374 0.49779 -0.03000
C 	C 	0.84406 0.70440 0.46515 0.00500
C 	C 	0.81480 0.71851 0.45678 -0.03800
C 	C 	0.83494 0.76530 0.45502 -0.04000
C 	C 	0.88438 0.79819 0.46167 0.01300
C 	C 	0.91360 0.78428 0.47065 -0.04000
C 	C 	0.89355 0.73757 0.47236 -0.03800
C 	C 	0.90537 0.84594 0.45805 0.00500
C 	C 	0.92482 0.88631 0.45539 -0.03900
C 	C 	0.76697 0.51240 0.46243 0.04600
C 	C 	0.75020 0.47167 0.46078 -0.11100
H 	H 	0.75635 0.54940 0.40286 0.03900
H 	H 	0.78896 0.63208 0.40412 0.04200
H 	H 	0.85275 0.66587 0.52539 0.04100
H 	H 	0.82042 0.58315 0.52395 0.03800
H 	H 	0.77656 0.69322 0.45135 0.04000
H 	H 	0.81213 0.77582 0.44815 0.04300
H 	H 	0.95186 0.80954 0.47584 0.04300
H 	H 	0.91643 0.72702 0.47869 0.04000
C 	C 	0.79316 0.19442 0.44026 -0.01200
C 	C 	0.76612 0.14841 0.44677 -0.03000
C 	C 	0.78435 0.12254 0.44470 -0.04500
C 	C 	0.82978 0.14253 0.43607 0.01000
C 	C 	0.85617 0.18809 0.42828 -0.04500
C 	C 	0.83791 0.21395 0.43042 -0.03000
C 	C 	0.85079 0.11684 0.43745 0.00500
C 	C 	0.82944 0.07425 0.41179 -0.03800
C 	C 	0.84899 0.04960 0.41366 -0.04000
C 	C 	0.88994 0.06736 0.44118 0.01300
C 	C 	0.91122 0.10979 0.46686 -0.04100
C 	C 	0.89172 0.13443 0.46504 -0.03800
C 	C 	0.91099 0.04278 0.44246 0.00400
C 	C 	0.92937 0.02296 0.44419 -0.03800
C 	C 	0.77650 0.22264 0.44665 0.04600
C 	C 	0.76174 0.24549 0.45220 -0.12000
H 	H 	0.73146 0.13306 0.45433 0.03600
H 	H 	0.76368 0.08742 0.45073 0.04000
H 	H 	0.89111 0.20370 0.42127 0.04100
H 	H 	0.85896 0.24945 0.42523 0.03800
H 	H 	0.79784 0.06036 0.39039 0.04000
H 	H 	0.83242 0.01688 0.39365 0.04200
H 	H 	0.94291 0.12375 0.48817 0.04200
H 	H 	0.90825 0.16707 0.48517 0.03900
C 	C 	0.16487 0.07935 0.45179 0.01300
C 	C 	0.19541 0.12787 0.46453 -0.04000
C 	C 	0.24420 0.15210 0.46581 -0.03800
C 	C 	0.26270 0.12789 0.45434 0.00500
C 	C 	0.23201 0.07931 0.44150 -0.03800
C 	C 	0.18326 0.05514 0.44025 -0.04000
C 	C 	0.31411 0.15342 0.45551 0.01100
C 	C 	0.33678 0.18673 0.43172 -0.04400
C 	C 	0.38547 0.21077 0.43269 -0.03000
C 	C 	0.41179 0.20165 0.45741 -0.00900
C 	C 	0.38923 0.16837 0.48116 -0.03000
C 	C 	0.34052 0.14430 0.48023 -0.04400
C 	C 	0.46203 0.22687 0.45864 0.04600
C 	C 	0.50404 0.24839 0.45922 -0.10800
C 	C 	0.11476 0.05421 0.45119 0.00500
C 	C 	0.07270 0.03253 0.45048 -0.03900
H 	H 	0.18143 0.14679 0.47356 0.04300
H 	H 	0.26762 0.18960 0.47585 0.04000
H 	H 	0.24593 0.06036 0.43239 0.04000
H 	H 	0.15983 0.01761 0.43038 0.04300
H 	H 	0.31666 0.19384 0.41241 0.04100
H 	H 	0.40271 0.23647 0.41425 0.03900
H 	H 	0.40939 0.16120 0.50038 0.03900
H 	H 	0.32334 0.11873 0.49878 0.04100
C 	C 	0.78093 0.56728 0.97152 -0.00900
C 	C 	0.83022 0.59872 0.98378 -0.03000
C 	C 	0.85325 0.64640 0.98435 -0.04400
C 	C 	0.82705 0.66290 0.97264 0.01000
C 	C 	0.77777 0.63127 0.95985 -0.04400
C 	C 	0.75479 0.58360 0.95929 -0.02900
C 	C 	0.85110 0.71331 0.97444 0.00700
C 	C 	0.88484 0.73732 0.95094 -0.03800
C 	C 	0.90836 0.78533 0.95327 -0.04000
C 	C 	0.89830 0.80962 0.97907 0.01500
C 	C 	0.86432 0.78566 0.00230 -0.04200
C 	C 	0.84076 0.73763 0.00001 -0.04000
C 	C 	0.92386 0.85933 0.98246 0.00500
C 	C 	0.94560 0.90095 0.98492 -0.03800
C 	C 	0.75695 0.51859 0.97299 0.04800
C 	C 	0.73689 0.47783 0.97424 -0.10900
H 	H 	0.85062 0.58632 0.99329 0.03800
H 	H 	0.89130 0.67056 0.99431 0.04100
H 	H 	0.75731 0.64366 0.95054 0.04200
H 	H 	0.71666 0.55945 0.94974 0.04000
H 	H 	0.89288 0.71880 0.93099 0.04000
H 	H 	0.93459 0.80367 0.93521 0.04300
H 	H 	0.85641 0.80425 0.02234 0.04300
H 	H 	0.81484 0.71940 0.01833 0.04000
C 	C 	0.90952 0.08123 0.99949 0.01600
C 	C 	0.87832 0.07342 0.96645 -0.04200
C 	C 	0.85572 0.09513 0.96752 -0.03500
C 	C 	0.86420 0.12484 0.00167 0.00200
C 	C 	0.89504 0.13222 0.03491 -0.03700
C 	C 	0.91767 0.11049 0.03379 -0.04400
C 	C 	0.84187 0.14921 0.00217 0.00800
C 	C 	0.85391 0.18272 0.97860 -0.04300
C 	C 	0.83025 0.20334 0.97675 -0.03200
C 	C 	0.79440 0.19063 0.99844 -0.01000
C 	C 	0.78316 0.15809 0.02283 -0.03200
C 	C 	0.80687 0.13744 0.02473 -0.04400
C 	C 	0.76745 0.20903 0.99383 0.04700
C 	C 	0.74574 0.22522 0.98913 -0.12200
C 	C 	0.93346 0.05954 0.99800 0.00300
C 	C 	0.95319 0.04108 0.99623 -0.03800
H 	H 	0.87175 0.05072 0.93989 0.04300
H 	H 	0.83181 0.08909 0.94177 0.03800
H 	H 	0.90184 0.15515 0.06139 0.03900
H 	H 	0.94169 0.11660 0.05948 0.04300
H 	H 	0.88110 0.19225 0.96129 0.04000
H 	H 	0.83922 0.22859 0.95793 0.03500
H 	H 	0.75555 0.14817 0.03975 0.04000
H 	H 	0.79740 0.11166 0.04308 0.04100
C 	C 	0.42600 0.20054 0.97329 -0.01000
C 	C 	0.39019 0.15566 0.95210 -0.02900
C 	C 	0.34256 0.13629 0.95276 -0.04400
C 	C 	0.33054 0.16175 0.97467 0.01000
C 	C 	0.36643 0.20707 0.99518 -0.04200
C 	C 	0.41400 0.22637 0.99449 -0.02800
C 	C 	0.28063 0.14021 0.97758 0.00700
C 	C 	0.24724 0.12756 0.94423 -0.03800
C 	C 	0.19963 0.10580 0.94686 -0.04000
C 	C 	0.18515 0.09656 0.98280 0.01500
C 	C 	0.21857 0.10986 0.01625 -0.04200
C 	C 	0.26617 0.13160 0.01366 -0.04000
C 	C 	0.13564 0.07102 0.98489 0.00500
C 	C 	0.09416 0.04962 0.98657 -0.03800
C 	C 	0.47511 0.21949 0.97464 0.04700
C 	C 	0.51659 0.23650 0.97646 -0.11100
H 	H 	0.39922 0.13553 0.93558 0.03800
H 	H 	0.31508 0.10125 0.93685 0.04100
H 	H 	0.35748 0.22708 0.01198 0.04000
H 	H 	0.44153 0.26116 0.01085 0.03700
H 	H 	0.25812 0.13433 0.91630 0.04000
H 	H 	0.17395 0.09558 0.92088 0.04300
H 	H 	0.20759 0.10275 0.04411 0.04300
H 	H 	0.29169 0.14121 0.03955 0.04000
