data_crystal

_cell_length_a 18.61333
_cell_length_b 18.93551
_cell_length_c 34.78510
_cell_angle_alpha 95.44110
_cell_angle_beta  95.44170
_cell_angle_gamma 126.42684

_symmetry_space_group_name_	'P 1'
_symmetry_space_group_name_H-M	'P 1'

loop_
_symmetry_equiv_pos_as_xyz
  x,y,z

loop_
_atom_site_label
_atom_site_type_symbol
_atom_site_fract_x
_atom_site_fract_y
_atom_site_fract_z
_atom_site_charge
C 	C 	0.89446 0.99223 0.96200 0.00400
C 	C 	0.98657 0.04432 0.95917 -0.03600
C 	C 	0.03278 0.00704 0.95967 0.00500
C 	C 	0.98604 0.91637 0.96097 -0.05400
C 	C 	0.89331 0.86272 0.96251 0.02400
C 	C 	0.84740 0.90090 0.96361 -0.06700
H 	H 	0.02311 0.11471 0.95819 0.03700
H 	H 	0.02200 0.88763 0.96111 0.04000
H 	H 	0.77616 0.86020 0.96579 0.04900
C 	C 	0.95280 0.03689 0.49398 0.07000
C 	C 	0.90066 0.94559 0.49497 -0.10800
C 	C 	0.94056 0.90218 0.49413 0.06500
C 	C 	0.03258 0.94977 0.49197 -0.11600
C 	C 	0.08542 0.04139 0.49156 0.06200
C 	C 	0.04548 0.08510 0.49242 -0.11000
H 	H 	0.82909 0.90838 0.49633 0.05900
H 	H 	0.06347 0.91598 0.49143 0.05800
H 	H 	0.08615 0.15598 0.49189 0.05800
Cu	Cu	0.74807 0.33892 0.95974 0.92800
Cu	Cu	0.74086 0.28113 0.04632 0.87500
Cu	Cu	0.59938 0.29041 0.00708 0.89700
Cu	Cu	0.57712 0.32743 0.92657 0.90100
C 	C 	0.68290 0.30044 0.87649 0.30900
O 	O 	0.79814 0.46795 0.95660 -0.35300
C 	C 	0.65800 0.33333 0.09395 0.31100
O 	O 	0.60589 0.26326 0.95362 -0.63600
O 	O 	0.73386 0.35611 0.01475 -0.64200
O 	O 	0.81167 0.28321 0.96706 -0.36400
O 	O 	0.71540 0.19176 0.00521 -0.43900
O 	O 	0.64627 0.34128 0.88362 -0.37000
O 	O 	0.46839 0.21903 0.99639 -0.37700
C 	C 	0.41886 0.21735 0.96594 0.29900
C 	C 	0.75523 0.50011 0.96752 0.28500
O 	O 	0.67048 0.44507 0.97166 -0.39100
O 	O 	0.45639 0.27422 0.94171 -0.38800
O 	O 	0.73788 0.30332 0.90475 -0.36000
C 	C 	0.77499 0.21088 0.98268 0.29900
O 	O 	0.59108 0.29825 0.06340 -0.38500
O 	O 	0.73274 0.34219 0.09047 -0.39900
H 	H 	0.56850 0.19857 0.94252 0.17200
H 	H 	0.76913 0.41912 0.02826 0.17800
Cu	Cu	0.62395 0.20597 0.50804 0.92900
Cu	Cu	0.68603 0.21490 0.42241 0.87500
Cu	Cu	0.67719 0.35390 0.46146 0.90000
Cu	Cu	0.63994 0.37563 0.54181 0.90100
C 	C 	0.66094 0.26743 0.59130 0.31100
O 	O 	0.49456 0.15992 0.51064 -0.36200
C 	C 	0.64523 0.30349 0.37428 0.31200
O 	O 	0.70406 0.34587 0.51472 -0.63700
O 	O 	0.60845 0.22150 0.45305 -0.63900
O 	O 	0.67530 0.13959 0.50037 -0.36800
O 	O 	0.77277 0.23656 0.46437 -0.43800
O 	O 	0.62114 0.30491 0.58395 -0.37600
O 	O 	0.75068 0.48211 0.47321 -0.38500
C 	C 	0.73981 0.52904 0.49916 0.30200
C 	C 	0.46366 0.20311 0.49921 0.29100
O 	O 	0.52084 0.28710 0.49606 -0.39300
O 	O 	0.70072 0.49761 0.52957 -0.38500
O 	O 	0.65839 0.21376 0.56303 -0.35900
C 	C 	0.74956 0.17508 0.48557 0.30000
O 	O 	0.66978 0.36475 0.40529 -0.37400
O 	O 	0.62848 0.22685 0.37824 -0.41200
H 	H 	0.76972 0.38146 0.52587 0.17800
H 	H 	0.54485 0.18765 0.43902 0.17900
C 	C 	0.68554 0.26595 0.63263 -0.10000
C 	C 	0.73585 0.34523 0.66114 0.14600
C 	C 	0.74047 0.34086 0.70111 -0.08400
C 	C 	0.69841 0.25820 0.71311 0.02300
C 	C 	0.65571 0.17979 0.68468 0.08100
C 	C 	0.64876 0.18383 0.64461 -0.01200
H 	H 	0.77543 0.40168 0.72289 0.08400
C 	C 	0.69152 0.25362 0.75496 0.02300
H 	H 	0.61188 0.12274 0.62286 0.06600
C 	C 	0.60821 0.22039 0.76649 -0.08400
C 	C 	0.60328 0.22858 0.80637 0.14700
C 	C 	0.68313 0.27410 0.83518 -0.09900
C 	C 	0.76530 0.30199 0.82370 -0.01200
C 	C 	0.76953 0.29106 0.78379 0.08100
H 	H 	0.54746 0.18938 0.74441 0.08300
H 	H 	0.82655 0.33472 0.84568 0.06800
Br	Br	0.60656 0.06681 0.70004 -0.22000
Br	Br	0.80046 0.46021 0.64603 -0.26800
Br	Br	0.48640 0.17377 0.82091 -0.27800
Br	Br	0.88228 0.32753 0.76922 -0.21800
C 	C 	0.64139 0.34582 0.13368 -0.10200
C 	C 	0.70477 0.42664 0.16057 0.14900
C 	C 	0.70022 0.43035 0.20061 -0.08400
C 	C 	0.63324 0.35371 0.21405 0.02000
C 	C 	0.56453 0.27578 0.18662 0.08300
C 	C 	0.56865 0.27234 0.14660 -0.01400
H 	H 	0.75157 0.49139 0.22150 0.08000
C 	C 	0.64393 0.35080 0.25638 0.02200
H 	H 	0.51821 0.21071 0.12585 0.05800
C 	C 	0.59405 0.36367 0.27998 -0.08500
C 	C 	0.59541 0.35054 0.31898 0.14900
C 	C 	0.64843 0.32578 0.33473 -0.10500
C 	C 	0.70132 0.31695 0.31156 -0.01200
C 	C 	0.69903 0.32889 0.27258 0.08200
H 	H 	0.55185 0.38090 0.26764 0.08000
H 	H 	0.74308 0.29904 0.32369 0.04600
Br	Br	0.46803 0.17144 0.20359 -0.22600
Br	Br	0.79767 0.53243 0.14314 -0.25600
Br	Br	0.52032 0.36145 0.34927 -0.25500
Br	Br	0.76915 0.31171 0.24140 -0.23100
C 	C 	0.84332 0.68783 0.53229 -0.01500
C 	C 	0.78611 0.62400 0.49811 -0.10400
C 	C 	0.77537 0.65176 0.46309 0.10200
C 	C 	0.82739 0.74322 0.46217 -0.08200
C 	C 	0.88607 0.80684 0.49612 -0.01700
C 	C 	0.89215 0.77916 0.53175 0.03700
C 	C 	0.95234 0.84680 0.56897 -0.16600
H 	H 	0.85077 0.66630 0.55919 0.04800
H 	H 	0.82213 0.76506 0.43503 0.05300
C 	C 	0.70990 0.58451 0.42655 -0.21100
H 	H 	0.94076 0.81450 0.59512 0.07000
H 	H 	0.93802 0.89578 0.57400 0.06700
H 	H 	0.02484 0.88270 0.56658 0.05900
H 	H 	0.64454 0.52982 0.43398 0.09000
H 	H 	0.74020 0.55603 0.41190 0.10000
H 	H 	0.69409 0.61588 0.40531 0.08200
C 	C 	0.86436 0.07360 0.45549 -0.07600
C 	C 	0.90844 0.08022 0.49209 -0.01900
C 	C 	0.89894 0.11665 0.52683 0.04000
C 	C 	0.84394 0.14463 0.52436 -0.01500
C 	C 	0.79911 0.13711 0.48772 -0.10600
C 	C 	0.80746 0.09913 0.45304 0.09100
C 	C 	0.75614 0.08588 0.41337 -0.19500
H 	H 	0.87164 0.04521 0.42894 0.05300
H 	H 	0.83699 0.17337 0.55090 0.04800
C 	C 	0.94561 0.12386 0.56652 -0.16900
H 	H 	0.75347 0.03798 0.39103 0.07000
H 	H 	0.79029 0.15068 0.40324 0.04800
H 	H 	0.68485 0.05831 0.41501 0.04300
H 	H 	0.01949 0.16039 0.56704 0.06100
H 	H 	0.91596 0.05598 0.57262 0.07100
H 	H 	0.93778 0.16063 0.59049 0.07400
C 	C 	0.24217 0.12828 0.52952 -0.08000
C 	C 	0.18386 0.09225 0.49288 -0.01900
C 	C 	0.21820 0.09505 0.45808 0.03800
C 	C 	0.30980 0.13012 0.46065 -0.01700
C 	C 	0.36733 0.16340 0.49737 -0.10500
C 	C 	0.33380 0.16388 0.53209 0.09700
C 	C 	0.39551 0.20258 0.57186 -0.20500
H 	H 	0.21546 0.12631 0.55611 0.05100
H 	H 	0.33632 0.13139 0.43406 0.03900
C 	C 	0.15678 0.05808 0.41835 -0.17100
H 	H 	0.35883 0.19801 0.59605 0.07500
H 	H 	0.45216 0.27424 0.57335 0.06900
H 	H 	0.42359 0.16565 0.57691 0.09200
H 	H 	0.11867 0.08605 0.41607 0.06900
H 	H 	0.10783 0.98415 0.41419 0.06200
H 	H 	0.19599 0.07545 0.39413 0.07100
C 	C 	0.83895 0.73840 0.99930 -0.06700
C 	C 	0.84510 0.76638 0.96300 -0.01200
C 	C 	0.82208 0.70647 0.92821 0.04000
C 	C 	0.79928 0.62186 0.93055 -0.02500
C 	C 	0.79468 0.59443 0.96688 -0.09200
C 	C 	0.81446 0.65303 0.00156 0.08100
C 	C 	0.80956 0.62489 0.04097 -0.20000
H 	H 	0.85662 0.78436 0.02597 0.04700
H 	H 	0.78264 0.57630 0.90389 0.04600
C 	C 	0.82537 0.73384 0.88870 -0.18000
H 	H 	0.83825 0.68179 0.06559 0.08200
H 	H 	0.84900 0.59862 0.04508 0.07800
H 	H 	0.73763 0.57209 0.04269 0.08200
H 	H 	0.89714 0.77976 0.88495 0.07200
H 	H 	0.79356 0.76806 0.88631 0.06900
H 	H 	0.78783 0.67496 0.86430 0.07000
C 	C 	0.79411 0.11231 0.93952 -0.01300
C 	C 	0.80562 0.15460 0.97744 -0.10000
C 	C 	0.84009 0.13763 0.01043 0.09100
C 	C 	0.85963 0.07657 0.00493 -0.09300
C 	C 	0.85048 0.03614 0.96703 0.01200
C 	C 	0.81550 0.05250 0.93406 0.03000
C 	C 	0.80413 0.00904 0.89302 -0.16800
H 	H 	0.76760 0.12516 0.91425 0.04800
H 	H 	0.88651 0.06397 0.03017 0.05600
C 	C 	0.85676 0.18468 0.05150 -0.19700
H 	H 	0.76303 0.01686 0.87109 0.07400
H 	H 	0.76873 0.93632 0.89137 0.06300
H 	H 	0.87189 0.04004 0.88496 0.07300
H 	H 	0.79117 0.15384 0.06170 0.05600
H 	H 	0.89060 0.25687 0.05221 0.04800
H 	H 	0.90181 0.17982 0.07253 0.07100
C 	C 	0.28669 0.16951 0.99757 -0.00700
C 	C 	0.31998 0.16393 0.96380 -0.10600
C 	C 	0.25855 0.10717 0.92842 0.10100
C 	C 	0.16479 0.05920 0.92716 -0.08900
C 	C 	0.13164 0.06410 0.96105 0.00100
C 	C 	0.19290 0.11892 0.99666 0.03400
C 	C 	0.15857 0.12407 0.03364 -0.18100
H 	H 	0.33398 0.21335 0.02462 0.04300
H 	H 	0.11734 0.01659 0.89997 0.05400
C 	C 	0.29239 0.09762 0.89199 -0.20700
H 	H 	0.21467 0.16335 0.05968 0.07000
H 	H 	0.10887 0.05597 0.03965 0.07000
H 	H 	0.12535 0.15672 0.03025 0.06600
H 	H 	0.34445 0.08712 0.89921 0.07900
H 	H 	0.32233 0.15870 0.87903 0.08700
H 	H 	0.23641 0.03940 0.86941 0.07900
