data_crystal

_cell_length_a 24.89892
_cell_length_b 25.38004
_cell_length_c 38.89265
_cell_angle_alpha 60.90804
_cell_angle_beta  118.82184
_cell_angle_gamma 133.30035

_symmetry_space_group_name_	'P 1'
_symmetry_space_group_name_H-M	'P 1'

loop_
_symmetry_equiv_pos_as_xyz
  x,y,z

loop_
_atom_site_label
_atom_site_type_symbol
_atom_site_fract_x
_atom_site_fract_y
_atom_site_fract_z
_atom_site_charge
C 	C 	0.73589 0.31628 0.02694 0.11100
N 	N 	0.65997 0.26945 0.02548 -0.13800
C 	C 	0.62852 0.29098 0.03168 0.11300
N 	N 	0.67271 0.35883 0.03906 -0.13800
C 	C 	0.74798 0.40503 0.04118 0.11500
N 	N 	0.77983 0.38362 0.03548 -0.13900
C 	C 	0.69875 0.26247 0.53169 0.11100
N 	N 	0.62703 0.21120 0.53803 -0.13900
C 	C 	0.59549 0.23276 0.54409 0.11300
N 	N 	0.63512 0.30515 0.54317 -0.14000
C 	C 	0.70687 0.35583 0.53804 0.11500
N 	N 	0.73866 0.33457 0.53223 -0.14000
C 	C 	0.30481 0.68592 0.18237 0.11200
N 	N 	0.37743 0.73803 0.17733 -0.13800
C 	C 	0.41322 0.71680 0.17520 0.11300
N 	N 	0.37609 0.64427 0.17754 -0.13900
C 	C 	0.30356 0.59269 0.18156 0.11500
N 	N 	0.26832 0.61332 0.18453 -0.13900
C 	C 	0.27619 0.64173 0.68793 0.11200
N 	N 	0.35084 0.68001 0.69054 -0.14000
C 	C 	0.37454 0.65173 0.68395 0.11500
N 	N 	0.32455 0.58198 0.67817 -0.13900
C 	C 	0.25018 0.54149 0.67697 0.11200
N 	N 	0.22534 0.57175 0.68125 -0.13700
Co	Co	0.07600 0.04553 0.05664 1.18200
Co	Co	0.95439 0.95662 0.14609 1.18600
Co	Co	0.02596 0.10303 0.08883 1.18800
Co	Co	0.01691 0.90389 0.11938 1.18600
C 	C 	0.21976 0.08944 0.05158 0.30000
Co	Co	0.09638 0.92685 0.06251 1.17000
Co	Co	0.94684 0.08092 0.14498 1.16500
C 	C 	0.94960 0.78600 0.08285 0.29500
O 	O 	0.95958 0.16550 0.09292 -0.41200
O 	O 	0.98297 0.04532 0.12772 -0.77400
C 	C 	0.92648 0.14997 0.05776 0.29800
O 	O 	0.07192 0.12930 0.04665 -0.46900
O 	O 	0.95475 0.87093 0.15485 -0.47000
C 	C 	0.80687 0.93450 0.12893 0.29600
O 	O 	0.04083 0.01198 0.11205 -0.58400
C 	C 	0.10826 0.20636 0.14489 0.28700
C 	C 	0.01937 0.98347 0.98595 0.30300
C 	C 	0.14932 0.89022 0.15148 0.28700
O 	O 	0.93662 0.11198 0.05039 -0.39800
O 	O 	0.01573 0.92270 0.00912 -0.39100
O 	O 	0.01510 0.01928 0.99967 -0.39300
O 	O 	0.83737 0.00635 0.11786 -0.40400
O 	O 	0.83816 0.91000 0.12662 -0.39100
O 	O 	0.06108 0.15041 0.16889 -0.39100
O 	O 	0.10841 0.19661 0.11397 -0.37500
O 	O 	0.17234 0.93698 0.11781 -0.39200
O 	O 	0.09349 0.87585 0.15992 -0.37300
O 	O 	0.06451 0.96362 0.08217 -0.75800
O 	O 	0.92639 0.99864 0.19845 -0.41000
O 	O 	0.17436 0.03356 0.03478 -0.41800
O 	O 	0.19180 0.10705 0.06234 -0.39000
O 	O 	0.02044 0.81532 0.08776 -0.40400
O 	O 	0.93332 0.82152 0.08756 -0.39800
Co	Co	0.05133 0.99366 0.57023 1.18600
Co	Co	0.93337 0.90384 0.66162 1.18500
Co	Co	0.99678 0.04895 0.60139 1.17500
Co	Co	0.97660 0.84555 0.62615 1.18300
C 	C 	0.19850 0.01403 0.58772 0.28400
Co	Co	0.05782 0.86918 0.57049 1.16900
Co	Co	0.91815 0.01928 0.66268 1.16100
C 	C 	0.89609 0.74444 0.56967 0.28900
O 	O 	0.92065 0.10129 0.61065 -0.41100
O 	O 	0.94790 0.98695 0.63844 -0.75500
C 	C 	0.89108 0.08946 0.57458 0.29500
O 	O 	0.05382 0.08027 0.56334 -0.46600
O 	O 	0.93188 0.81808 0.66910 -0.47400
C 	C 	0.78022 0.86684 0.65313 0.29200
O 	O 	0.96752 0.93997 0.60545 -0.58500
C 	C 	0.07376 0.15027 0.65589 0.29100
C 	C 	0.03015 0.96952 0.49473 0.31800
C 	C 	0.07032 0.79195 0.65735 0.30000
O 	O 	0.91627 0.07057 0.56254 -0.38900
O 	O 	0.07887 0.95394 0.51796 -0.41500
O 	O 	0.00805 0.98732 0.50968 -0.38700
O 	O 	0.80896 0.93846 0.63947 -0.39600
O 	O 	0.81974 0.84205 0.66219 -0.38200
O 	O 	0.03199 0.09673 0.68237 -0.39600
O 	O 	0.08409 0.13421 0.63261 -0.38500
O 	O 	0.04234 0.78157 0.62116 -0.40700
O 	O 	0.06172 0.83089 0.66493 -0.39200
O 	O 	0.02267 0.90469 0.58860 -0.76000
O 	O 	0.91638 0.94225 0.71783 -0.40700
O 	O 	0.16677 0.94192 0.59877 -0.39100
O 	O 	0.16768 0.04001 0.58903 -0.39100
O 	O 	0.94363 0.80041 0.54588 -0.39500
O 	O 	0.89255 0.75514 0.59884 -0.38100
C 	C 	0.99836 0.90961 0.84514 -0.09300
C 	C 	0.02562 0.98110 0.84314 0.00700
C 	C 	0.05639 0.04083 0.80995 0.02800
C 	C 	0.05857 0.02723 0.77983 -0.02800
C 	C 	0.99193 0.89524 0.81208 0.09200
C 	C 	0.02084 0.99256 0.87561 0.01300
C 	C 	0.08437 0.11817 0.80553 -0.17500
H 	H 	0.08627 0.07342 0.75585 0.05100
C 	C 	0.95304 0.81645 0.81245 -0.20400
H 	H 	0.97873 0.86446 0.87150 0.05100
C 	C 	0.94998 0.95409 0.88321 0.01900
C 	C 	0.94842 0.95724 0.91791 -0.01000
C 	C 	0.01593 0.00409 0.94258 -0.11100
C 	C 	0.08408 0.05378 0.92962 0.10000
C 	C 	0.08756 0.04230 0.89911 -0.10000
C 	C 	0.87633 0.90782 0.85553 -0.17100
H 	H 	0.89518 0.92075 0.92667 0.03800
C 	C 	0.15199 0.12120 0.94637 -0.20800
H 	H 	0.14202 0.07344 0.89309 0.05300
H 	H 	0.89203 0.79063 0.79720 0.07400
H 	H 	0.95785 0.78225 0.84393 0.06900
H 	H 	0.97944 0.81583 0.79649 0.07700
H 	H 	0.14265 0.14798 0.82461 0.06400
H 	H 	0.04609 0.11567 0.81421 0.06500
H 	H 	0.08608 0.15140 0.77366 0.06300
H 	H 	0.82895 0.89998 0.85856 0.06300
H 	H 	0.86258 0.85203 0.86331 0.06400
H 	H 	0.88002 0.93572 0.82338 0.06500
H 	H 	0.20024 0.11702 0.96222 0.08200
H 	H 	0.14004 0.12804 0.96740 0.07700
H 	H 	0.16912 0.17225 0.92112 0.07100
C 	C 	0.99943 0.01584 0.38189 -0.13800
C 	C 	0.98275 0.95276 0.37879 0.02800
C 	C 	0.96892 0.89113 0.41257 0.01400
C 	C 	0.96944 0.89259 0.44834 -0.00500
C 	C 	0.99469 0.95852 0.45313 -0.12500
C 	C 	0.00631 0.01955 0.41901 0.12500
C 	C 	0.97967 0.95152 0.33996 -0.01000
C 	C 	0.95981 0.82641 0.41178 -0.17400
H 	H 	0.95845 0.84500 0.47408 0.03200
C 	C 	0.02935 0.08968 0.42241 -0.20400
H 	H 	0.00892 0.06273 0.35575 0.06700
C 	C 	0.90936 0.91106 0.31368 0.02900
C 	C 	0.90808 0.90665 0.27864 -0.01400
C 	C 	0.04585 0.99011 0.29285 0.10500
C 	C 	0.04744 0.98921 0.32987 -0.08200
C 	C 	0.83607 0.87749 0.32118 -0.17600
H 	H 	0.85400 0.87498 0.25866 0.03900
C 	C 	0.11921 0.03605 0.28110 -0.21300
H 	H 	0.10140 0.01927 0.35037 0.04800
H 	H 	0.02874 0.12905 0.39233 0.07100
H 	H 	0.08762 0.11834 0.44178 0.07600
H 	H 	0.98927 0.07571 0.43586 0.07400
H 	H 	0.01016 0.84703 0.40431 0.06900
H 	H 	0.90821 0.79699 0.38889 0.06400
H 	H 	0.95448 0.78502 0.44153 0.05800
H 	H 	0.78686 0.85380 0.29586 0.06400
H 	H 	0.83951 0.92109 0.32422 0.06800
H 	H 	0.82489 0.83197 0.34924 0.06500
H 	H 	0.12710 0.08691 0.25710 0.08100
H 	H 	0.11841 0.00293 0.26971 0.08300
H 	H 	0.16872 0.05358 0.30732 0.07100
C 	C 	0.19693 0.46581 0.66977 -0.00500
C 	C 	0.14351 0.40599 0.69338 -0.03000
C 	C 	0.10727 0.33224 0.69440 -0.03900
C 	C 	0.12456 0.31750 0.67203 -0.00200
C 	C 	0.17536 0.37724 0.64672 0.03200
C 	C 	0.20988 0.45112 0.64492 -0.05400
C 	C 	0.19314 0.36250 0.62462 -0.06500
C 	C 	0.16138 0.28886 0.62806 0.01100
C 	C 	0.11128 0.22901 0.65354 -0.07700
C 	C 	0.09266 0.24379 0.67530 -0.01200
H 	H 	0.13276 0.41642 0.71248 0.04200
H 	H 	0.06754 0.28663 0.71355 0.03600
H 	H 	0.24976 0.49719 0.62586 0.05100
H 	H 	0.23202 0.40806 0.60502 0.04700
H 	H 	0.17572 0.27857 0.61084 0.03800
H 	H 	0.05310 0.19800 0.69453 0.03100
C 	C 	0.70123 0.81279 0.65778 -0.07600
C 	C 	0.67482 0.74013 0.68245 0.00900
C 	C 	0.60471 0.69336 0.69220 -0.06500
C 	C 	0.56084 0.71914 0.67793 0.03000
C 	C 	0.58637 0.79143 0.65235 0.00000
C 	C 	0.65516 0.83689 0.64146 -0.01500
C 	C 	0.54373 0.81814 0.63884 -0.04100
C 	C 	0.47616 0.77348 0.65055 -0.02800
C 	C 	0.44976 0.70113 0.67548 -0.00800
C 	C 	0.49224 0.67402 0.68920 -0.05300
H 	H 	0.70946 0.72059 0.69505 0.03800
H 	H 	0.58542 0.63777 0.71159 0.04500
H 	H 	0.67414 0.89207 0.62147 0.04200
H 	H 	0.56299 0.87362 0.61929 0.03800
H 	H 	0.44319 0.79441 0.63936 0.04100
H 	H 	0.47191 0.61813 0.70848 0.04900
C 	C 	0.25005 0.68203 0.68510 -0.00600
C 	C 	0.29020 0.75952 0.66789 -0.02700
C 	C 	0.27281 0.80075 0.66864 -0.04200
C 	C 	0.21262 0.76499 0.68489 0.00300
C 	C 	0.17090 0.68708 0.70181 0.03000
C 	C 	0.19050 0.64577 0.70243 -0.05300
C 	C 	0.10784 0.65124 0.71586 -0.06200
C 	C 	0.08139 0.69086 0.70860 0.01200
C 	C 	0.11779 0.76640 0.68730 -0.07600
C 	C 	0.18892 0.80493 0.68089 -0.01700
H 	H 	0.33549 0.78808 0.65400 0.04200
H 	H 	0.30473 0.86037 0.65529 0.04200
H 	H 	0.15962 0.58623 0.71606 0.04900
H 	H 	0.07654 0.59199 0.73010 0.04700
H 	H 	0.02805 0.66086 0.71551 0.03200
H 	H 	0.21982 0.86434 0.66683 0.04600
C 	C 	0.26172 0.51565 0.17987 -0.00700
C 	C 	0.20725 0.45521 0.20279 -0.02900
C 	C 	0.16915 0.38216 0.20202 -0.03900
C 	C 	0.18488 0.36870 0.17816 -0.00000
C 	C 	0.23970 0.42917 0.15510 0.03200
C 	C 	0.27783 0.50242 0.15600 -0.05300
C 	C 	0.25501 0.41563 0.13106 -0.06500
C 	C 	0.21449 0.34267 0.12897 0.01000
C 	C 	0.15838 0.28237 0.15102 -0.07400
C 	C 	0.14526 0.29565 0.17644 -0.01400
H 	H 	0.19500 0.46473 0.22159 0.04300
H 	H 	0.12724 0.33604 0.21989 0.03700
H 	H 	0.31936 0.54903 0.13793 0.05100
H 	H 	0.29757 0.46164 0.11357 0.04700
H 	H 	0.22608 0.33328 0.10977 0.03900
H 	H 	0.10256 0.24943 0.19385 0.03600
C 	C 	0.49022 0.77242 0.16755 -0.00700
C 	C 	0.50911 0.83989 0.13812 -0.03000
C 	C 	0.57368 0.88377 0.12342 -0.03900
C 	C 	0.61988 0.86045 0.13788 -0.00100
C 	C 	0.60290 0.79425 0.16860 0.03100
C 	C 	0.53919 0.75149 0.18394 -0.05400
C 	C 	0.64898 0.77083 0.18302 -0.06600
C 	C 	0.71265 0.81386 0.16776 0.01000
C 	C 	0.73108 0.88081 0.13793 -0.07800
C 	C 	0.68314 0.90279 0.12221 -0.01200
H 	H 	0.47198 0.85667 0.12527 0.04300
H 	H 	0.58678 0.93505 0.10019 0.03900
H 	H 	0.52563 0.70016 0.20728 0.04900
H 	H 	0.63616 0.71983 0.20646 0.04500
H 	H 	0.74946 0.79675 0.18041 0.03100
H 	H 	0.69646 0.95393 0.09877 0.04300
C 	C 	0.26304 0.70852 0.18227 -0.00600
C 	C 	0.18319 0.66432 0.17024 -0.03000
C 	C 	0.14298 0.68496 0.16950 -0.04000
C 	C 	0.18177 0.75086 0.17997 0.00100
C 	C 	0.26174 0.79476 0.19314 0.03000
C 	C 	0.30219 0.77313 0.19455 -0.05400
C 	C 	0.30032 0.86157 0.20273 -0.06400
C 	C 	0.26064 0.88829 0.19519 0.01000
C 	C 	0.18205 0.84836 0.17820 -0.07300
C 	C 	0.14213 0.77646 0.17446 -0.01800
H 	H 	0.15213 0.61440 0.16079 0.04500
H 	H 	0.08165 0.65070 0.15957 0.03900
H 	H 	0.36356 0.80680 0.20462 0.05000
H 	H 	0.36143 0.89485 0.21395 0.04700
H 	H 	0.29198 0.94310 0.19923 0.03400
H 	H 	0.08114 0.74419 0.16288 0.04300
C 	C 	0.83526 0.10549 0.54654 -0.07500
C 	C 	0.75886 0.04962 0.54873 -0.00700
C 	C 	0.71306 0.06870 0.54244 -0.06000
C 	C 	0.74270 0.14405 0.53263 0.02700
C 	C 	0.81567 0.20017 0.52451 0.00100
C 	C 	0.86098 0.18039 0.53057 -0.01300
C 	C 	0.84475 0.27544 0.51357 -0.04100
C 	C 	0.80454 0.29524 0.51376 -0.02900
C 	C 	0.73481 0.24002 0.52542 -0.00700
C 	C 	0.70247 0.16408 0.53323 -0.05400
H 	H 	0.73730 0.99142 0.55941 0.04300
H 	H 	0.65604 0.02489 0.54723 0.04000
H 	H 	0.91912 0.22369 0.52737 0.03700
H 	H 	0.89966 0.31892 0.50604 0.03900
H 	H 	0.82869 0.35380 0.50578 0.04300
H 	H 	0.64785 0.12092 0.54111 0.04800
C 	C 	0.75087 0.43307 0.54045 -0.00800
C 	C 	0.80528 0.49327 0.51741 -0.03000
C 	C 	0.84250 0.56664 0.51736 -0.04000
C 	C 	0.82565 0.58065 0.54033 -0.00200
C 	C 	0.77134 0.52039 0.56371 0.03100
C 	C 	0.73475 0.44692 0.56398 -0.05300
C 	C 	0.75433 0.53437 0.58657 -0.06500
C 	C 	0.79245 0.60762 0.58710 0.01100
C 	C 	0.84814 0.66788 0.56479 -0.07600
C 	C 	0.86326 0.65409 0.54064 -0.01300
H 	H 	0.81776 0.48337 0.49894 0.04100
H 	H 	0.88412 0.61255 0.49929 0.03400
H 	H 	0.69360 0.40058 0.58230 0.04900
H 	H 	0.71209 0.48848 0.60427 0.04500
H 	H 	0.77940 0.61732 0.60536 0.03800
H 	H 	0.90568 0.70024 0.52305 0.03200
C 	C 	0.27558 0.06593 0.58085 -0.07600
C 	C 	0.33363 0.12529 0.59980 0.01100
C 	C 	0.40892 0.16704 0.59829 -0.06600
C 	C 	0.42680 0.15003 0.57761 0.03100
C 	C 	0.36844 0.09150 0.55772 -0.00200
C 	C 	0.29304 0.04994 0.55929 -0.01300
C 	C 	0.38625 0.07521 0.53657 -0.04000
C 	C 	0.46125 0.11852 0.53399 -0.03100
C 	C 	0.51935 0.17798 0.55292 -0.00800
C 	C 	0.50214 0.19167 0.57600 -0.05300
H 	H 	0.32088 0.13768 0.61673 0.03500
H 	H 	0.45333 0.21224 0.61343 0.04500
H 	H 	0.24810 0.00429 0.54443 0.03100
H 	H 	0.34186 0.02996 0.52146 0.03600
H 	H 	0.47363 0.10733 0.51617 0.04100
H 	H 	0.54711 0.23632 0.59157 0.04800
C 	C 	0.86936 0.16488 0.03025 -0.07900
C 	C 	0.79327 0.10831 0.03305 0.00600
C 	C 	0.74826 0.12615 0.02974 -0.06500
C 	C 	0.77798 0.20112 0.02169 0.02800
C 	C 	0.84991 0.25822 0.01238 -0.00000
C 	C 	0.89429 0.23961 0.01544 -0.01200
C 	C 	0.87911 0.33317 0.00318 -0.03900
C 	C 	0.83993 0.35157 0.00600 -0.03000
C 	C 	0.77103 0.29533 0.01843 -0.00600
C 	C 	0.73869 0.21975 0.02490 -0.05500
H 	H 	0.77140 0.05029 0.04183 0.03800
H 	H 	0.69180 0.08162 0.03523 0.04200
H 	H 	0.95175 0.28361 0.01125 0.03600
H 	H 	0.93332 0.37745 0.99491 0.03800
H 	H 	0.86410 0.40985 0.99929 0.04200
H 	H 	0.68501 0.17585 0.03378 0.04800
C 	C 	0.79542 0.47586 0.05253 -0.00800
C 	C 	0.85866 0.49198 0.08545 -0.03000
C 	C 	0.89532 0.55127 0.10134 -0.03900
C 	C 	0.87020 0.59627 0.08392 -0.00200
C 	C 	0.80804 0.58188 0.05007 0.03100
C 	C 	0.77053 0.52137 0.03463 -0.05300
C 	C 	0.78500 0.62892 0.03177 -0.06600
C 	C 	0.82669 0.69261 0.04536 0.01100
C 	C 	0.89068 0.70888 0.07787 -0.07900
C 	C 	0.90866 0.65751 0.09882 -0.01100
H 	H 	0.87766 0.45679 0.09974 0.04100
H 	H 	0.94325 0.56213 0.12723 0.03500
H 	H 	0.72162 0.50902 0.00918 0.04700
H 	H 	0.73670 0.61788 0.00608 0.04500
H 	H 	0.81188 0.73142 0.02912 0.03400
H 	H 	0.95645 0.66856 0.12480 0.03600
C 	C 	0.30083 0.13969 0.05151 -0.08200
C 	C 	0.33535 0.21587 0.03244 0.01200
C 	C 	0.40466 0.25967 0.02242 -0.06700
C 	C 	0.44025 0.22767 0.03144 0.03100
C 	C 	0.40729 0.15181 0.05199 -0.00200
C 	C 	0.33827 0.10842 0.06246 -0.01100
C 	C 	0.44324 0.12000 0.06130 -0.04000
C 	C 	0.51304 0.16406 0.05168 -0.03000
C 	C 	0.54734 0.24022 0.03236 -0.00700
C 	C 	0.50895 0.27094 0.02071 -0.05400
H 	H 	0.30672 0.24034 0.02353 0.03200
H 	H 	0.42994 0.31812 0.00700 0.04600
H 	H 	0.31184 0.04959 0.07742 0.03300
H 	H 	0.41799 0.06155 0.07673 0.03700
H 	H 	0.54187 0.13968 0.06084 0.04000
H 	H 	0.53438 0.32935 0.00496 0.04900
C 	C 	0.96973 0.97625 0.22198 0.31100
O 	O 	0.99342 0.96057 0.20666 -0.39100
C 	C 	0.97385 0.93818 0.73692 0.29900
O 	O 	0.99907 0.93083 0.71760 -0.39700
C 	C 	0.01611 0.95387 0.77746 -0.09300
C 	C 	0.97535 0.95161 0.26599 -0.11500
