data_crystal

_cell_length_a 30.81827
_cell_length_b 31.06687
_cell_length_c 40.12818
_cell_angle_alpha 95.54515
_cell_angle_beta  95.54741
_cell_angle_gamma 125.44894

_symmetry_space_group_name_	'P 1'
_symmetry_space_group_name_H-M	'P 1'

loop_
_symmetry_equiv_pos_as_xyz
  x,y,z

loop_
_atom_site_label
_atom_site_type_symbol
_atom_site_fract_x
_atom_site_fract_y
_atom_site_fract_z
_atom_site_charge
C 	C 	0.05853 0.03336 0.99616 0.03000
C 	C 	0.03610 0.06166 0.99918 -0.06900
H 	H 	0.06152 0.10488 0.00059 0.04700
C 	C 	0.00152 0.02982 0.46307 -0.07700
C 	C 	0.02805 0.00555 0.46619 0.03200
H 	H 	0.02406 0.07153 0.46013 0.05000
Cu	Cu	0.65298 0.26045 0.00005 0.92700
Cu	Cu	0.69330 0.26015 0.92728 0.87000
Cu	Cu	0.68116 0.34425 0.95523 0.89700
Cu	Cu	0.65061 0.35879 0.02205 0.89300
C 	C 	0.67121 0.30340 0.07090 0.28800
O 	O 	0.57369 0.22697 0.99991 -0.36400
C 	C 	0.66146 0.30521 0.88099 0.28900
O 	O 	0.69470 0.34375 0.00267 -0.64200
O 	O 	0.64460 0.26520 0.95132 -0.64100
O 	O 	0.68760 0.22279 0.99808 -0.37500
O 	O 	0.74578 0.27670 0.96520 -0.44100
O 	O 	0.64473 0.32337 0.06209 -0.38600
O 	O 	0.72067 0.42156 0.96243 -0.38400
C 	C 	0.71565 0.45047 0.98599 0.29200
C 	C 	0.55067 0.24823 0.98742 0.28400
O 	O 	0.58104 0.29824 0.98291 -0.39200
O 	O 	0.67883 0.42760 0.00553 -0.39700
O 	O 	0.67210 0.26993 0.04846 -0.36300
C 	C 	0.73297 0.24331 0.98649 0.28900
O 	O 	0.68062 0.34622 0.90616 -0.39000
O 	O 	0.65777 0.26209 0.88643 -0.42100
H 	H 	0.73351 0.36756 0.01364 0.16200
H 	H 	0.60673 0.24283 0.93862 0.17100
Cu	Cu	0.72543 0.33437 0.45586 0.92800
Cu	Cu	0.72128 0.28585 0.52566 0.87000
Cu	Cu	0.63736 0.29922 0.49859 0.89700
Cu	Cu	0.62623 0.33652 0.43442 0.89300
C 	C 	0.69058 0.32932 0.38541 0.28900
O 	O 	0.75836 0.41374 0.45982 -0.36400
C 	C 	0.67327 0.31308 0.57253 0.28800
O 	O 	0.64107 0.29112 0.45130 -0.64200
O 	O 	0.71742 0.33684 0.50418 -0.64200
O 	O 	0.76377 0.30009 0.45602 -0.37300
O 	O 	0.70686 0.23795 0.48588 -0.44200
O 	O 	0.66656 0.35094 0.39579 -0.38700
O 	O 	0.55925 0.25884 0.48983 -0.38400
C 	C 	0.53071 0.26545 0.46695 0.29000
C 	C 	0.73510 0.43415 0.47303 0.28200
O 	O 	0.68422 0.40188 0.47635 -0.39400
O 	O 	0.55438 0.30377 0.44863 -0.39600
O 	O 	0.71867 0.32095 0.40736 -0.36300
C 	C 	0.74245 0.25358 0.46574 0.28900
O 	O 	0.63262 0.29467 0.54699 -0.39000
O 	O 	0.71682 0.31659 0.56754 -0.42000
H 	H 	0.61792 0.25343 0.43877 0.16300
H 	H 	0.73901 0.37333 0.51839 0.17200
C 	C 	0.65180 0.31110 0.84554 -0.09200
C 	C 	0.61413 0.26536 0.82029 0.01600
C 	C 	0.61091 0.26980 0.78593 -0.07200
C 	C 	0.64519 0.31991 0.77657 0.03800
C 	C 	0.68055 0.36606 0.80180 -0.07100
C 	C 	0.68379 0.36176 0.83618 0.01500
C 	C 	0.64826 0.32310 0.74122 -0.02300
C 	C 	0.65086 0.32582 0.71163 -0.02300
C 	C 	0.65523 0.32840 0.67637 0.03800
C 	C 	0.70631 0.36207 0.66762 -0.07200
C 	C 	0.71188 0.35890 0.63349 0.01600
C 	C 	0.66632 0.32189 0.60781 -0.09200
C 	C 	0.61474 0.29020 0.61652 0.01500
C 	C 	0.60931 0.29339 0.65071 -0.07100
H 	H 	0.58840 0.22621 0.82719 0.02800
H 	H 	0.58303 0.23401 0.76656 0.04600
H 	H 	0.70691 0.40501 0.79475 0.04700
H 	H 	0.71277 0.39747 0.85537 0.03400
H 	H 	0.74195 0.38954 0.68733 0.04600
H 	H 	0.75174 0.38432 0.62708 0.02800
H 	H 	0.57919 0.26164 0.59700 0.03500
H 	H 	0.56964 0.26740 0.65728 0.04700
C 	C 	0.68732 0.30736 0.10745 -0.08800
C 	C 	0.71219 0.35634 0.12999 0.01600
C 	C 	0.72011 0.35861 0.16517 -0.07100
C 	C 	0.70312 0.31195 0.17810 0.04000
C 	C 	0.68087 0.26355 0.15567 -0.07100
C 	C 	0.67310 0.26124 0.12041 0.02000
C 	C 	0.70339 0.31272 0.21404 -0.02200
C 	C 	0.70436 0.31530 0.24430 -0.02200
C 	C 	0.70469 0.32035 0.28038 0.03900
C 	C 	0.69767 0.28016 0.29760 -0.07000
C 	C 	0.69410 0.28351 0.33217 0.01500
C 	C 	0.69709 0.32689 0.34956 -0.08600
C 	C 	0.70531 0.36761 0.33235 0.01700
C 	C 	0.70910 0.36431 0.29794 -0.07000
H 	H 	0.72398 0.39233 0.12027 0.01900
H 	H 	0.73776 0.39627 0.18238 0.04700
H 	H 	0.66791 0.22735 0.16549 0.04900
H 	H 	0.65402 0.22320 0.10327 0.03700
H 	H 	0.69425 0.24604 0.28417 0.04800
H 	H 	0.68796 0.25195 0.34521 0.03200
H 	H 	0.70866 0.40178 0.34562 0.03400
H 	H 	0.71474 0.39561 0.28480 0.04700
C 	C 	0.85035 0.77037 0.45154 -0.04700
C 	C 	0.86605 0.75825 0.48106 0.01900
C 	C 	0.84586 0.70354 0.48242 -0.01500
C 	C 	0.82869 0.65760 0.48329 -0.02700
C 	C 	0.80844 0.60262 0.48363 0.04000
C 	C 	0.83127 0.58086 0.46685 -0.07200
C 	C 	0.80893 0.52637 0.46470 0.01500
C 	C 	0.76327 0.49306 0.47926 -0.09100
C 	C 	0.74198 0.51566 0.49738 0.01300
C 	C 	0.76439 0.57018 0.49941 -0.07200
H 	H 	0.82088 0.73842 0.43036 0.04100
H 	H 	0.86565 0.60586 0.45484 0.04800
H 	H 	0.82615 0.50981 0.45086 0.03700
H 	H 	0.70749 0.49085 0.50932 0.03100
H 	H 	0.74689 0.58690 0.51274 0.04700
C 	C 	0.87820 0.01016 0.43388 -0.03400
C 	C 	0.85450 0.03712 0.43111 -0.04700
C 	C 	0.84716 0.10894 0.45361 -0.01500
C 	C 	0.82761 0.13306 0.45180 -0.02800
C 	C 	0.80446 0.16215 0.45056 0.04100
C 	C 	0.83768 0.21750 0.45050 -0.07400
C 	C 	0.81674 0.24710 0.45361 0.01600
C 	C 	0.76241 0.22148 0.45704 -0.09900
C 	C 	0.72860 0.16553 0.45540 0.01600
C 	C 	0.74961 0.13605 0.45223 -0.07500
H 	H 	0.82337 0.02416 0.40923 0.04100
H 	H 	0.96622 0.08336 0.50942 0.03700
H 	H 	0.84327 0.29016 0.45470 0.03100
H 	H 	0.68638 0.14508 0.45738 0.02700
H 	H 	0.72356 0.09317 0.45199 0.04700
C 	C 	0.08661 0.03674 0.46583 -0.00600
C 	C 	0.12278 0.04622 0.49464 -0.03300
C 	C 	0.17814 0.07475 0.49406 -0.04700
C 	C 	0.19770 0.09405 0.46472 0.01900
C 	C 	0.16172 0.08491 0.43599 -0.04700
C 	C 	0.10631 0.05633 0.43652 -0.03300
C 	C 	0.25468 0.12311 0.46412 -0.01500
C 	C 	0.30246 0.14741 0.46386 -0.02700
C 	C 	0.35960 0.17652 0.46380 0.04100
C 	C 	0.38854 0.22761 0.45510 -0.07200
C 	C 	0.44429 0.25651 0.45582 0.01700
C 	C 	0.47157 0.23447 0.46531 -0.09000
C 	C 	0.44226 0.18297 0.47371 0.01700
C 	C 	0.38650 0.15418 0.47297 -0.07200
H 	H 	0.20576 0.08178 0.51639 0.04100
H 	H 	0.17659 0.09977 0.41322 0.04100
H 	H 	0.07868 0.04908 0.41413 0.03700
H 	H 	0.36795 0.24511 0.44799 0.04800
H 	H 	0.46633 0.29629 0.44949 0.03200
H 	H 	0.46260 0.16521 0.48072 0.03000
H 	H 	0.36430 0.11461 0.47964 0.04700
C 	C 	0.74567 0.50878 0.98687 -0.08900
C 	C 	0.75836 0.54343 0.01737 0.01500
C 	C 	0.78510 0.59843 0.01800 -0.07500
C 	C 	0.79941 0.61924 0.98822 0.04400
C 	C 	0.78729 0.58495 0.95782 -0.07200
C 	C 	0.76053 0.52991 0.95710 0.01800
C 	C 	0.82663 0.67581 0.98891 -0.02700
C 	C 	0.84943 0.72321 0.98959 -0.01500
C 	C 	0.87708 0.77987 0.99041 0.02100
H 	H 	0.74763 0.52780 0.04058 0.02500
H 	H 	0.79461 0.62481 0.04164 0.04700
H 	H 	0.79834 0.60084 0.93470 0.04800
H 	H 	0.75068 0.50366 0.93332 0.03600
H 	H 	0.86809 0.79634 0.04186 0.04100
C 	C 	0.87917 0.14015 0.00531 -0.01600
C 	C 	0.85587 0.16066 0.00514 -0.02800
C 	C 	0.82752 0.18460 0.00412 0.03700
C 	C 	0.77611 0.15782 0.01289 -0.07100
C 	C 	0.74596 0.17801 0.00838 0.01300
C 	C 	0.76702 0.22516 0.99489 -0.09400
C 	C 	0.81961 0.25311 0.98752 0.01200
C 	C 	0.84959 0.23275 0.99201 -0.07000
H 	H 	0.88924 0.09000 0.05311 0.04100
H 	H 	0.75895 0.12069 0.02245 0.04700
H 	H 	0.70573 0.15618 0.01449 0.03500
H 	H 	0.83692 0.29009 0.97777 0.02800
H 	H 	0.88951 0.25386 0.98542 0.04600
C 	C 	0.11639 0.06201 0.99451 -0.00200
C 	C 	0.15152 0.06364 0.02047 -0.03600
C 	C 	0.20536 0.08685 0.01757 -0.04900
C 	C 	0.22442 0.10861 0.98874 0.02200
C 	C 	0.18976 0.10811 0.96312 -0.04700
C 	C 	0.13586 0.08489 0.96599 -0.03400
C 	C 	0.27920 0.13037 0.98518 -0.01600
C 	C 	0.32524 0.14838 0.98275 -0.02600
C 	C 	0.38043 0.16978 0.98067 0.04000
C 	C 	0.41041 0.21300 0.96396 -0.07100
C 	C 	0.46553 0.23713 0.96477 0.01400
C 	C 	0.49115 0.21838 0.98257 -0.09200
C 	C 	0.46025 0.17344 0.99799 0.01800
C 	C 	0.40517 0.14937 0.99707 -0.06900
H 	H 	0.13688 0.04625 0.04263 0.03700
H 	H 	0.23206 0.08738 0.03756 0.04100
H 	H 	0.20432 0.12508 0.94082 0.04100
H 	H 	0.10899 0.08374 0.94580 0.03700
H 	H 	0.39134 0.22861 0.95092 0.04700
H 	H 	0.48846 0.27100 0.95213 0.03100
H 	H 	0.47917 0.15814 0.01157 0.03500
H 	H 	0.38205 0.11565 0.00981 0.04600
C 	C 	0.98082 0.03414 0.00038 0.02600
C 	C 	0.94603 0.00049 0.46410 0.03200
C 	C 	0.90392 0.79980 0.50840 -0.04700
H 	H 	0.91602 0.79071 0.53137 0.04100
C 	C 	0.91881 0.02686 0.46202 -0.00600
C 	C 	0.87124 0.08087 0.45646 0.01900
C 	C 	0.91134 0.09719 0.48474 -0.04700
C 	C 	0.93503 0.07029 0.48755 -0.03300
H 	H 	0.92429 0.13081 0.50451 0.04000
H 	H 	0.88008 0.23791 0.44901 0.04800
C 	C 	0.89820 0.80200 0.96210 -0.04700
H 	H 	0.89246 0.77638 0.93918 0.04100
C 	C 	0.95684 0.06363 0.00248 -0.00600
C 	C 	0.95656 0.09005 0.97609 -0.03200
C 	C 	0.93184 0.11611 0.97738 -0.04400
C 	C 	0.90722 0.11590 0.00501 0.01600
C 	C 	0.90815 0.09025 0.03164 -0.04600
C 	C 	0.93293 0.06421 0.03042 -0.03400
H 	H 	0.97481 0.08973 0.95439 0.03600
H 	H 	0.93126 0.13589 0.95670 0.04000
H 	H 	0.93321 0.04419 0.05101 0.03600
C 	C 	0.02568 0.97753 0.99443 -0.07500
H 	H 	0.04300 0.95562 0.99204 0.05000
C 	C 	0.99892 0.95171 0.47013 -0.07600
H 	H 	0.01933 0.93280 0.47231 0.05000
H 	H 	0.87416 0.92388 0.46905 0.05000
C 	C 	0.87389 0.82396 0.44888 -0.03300
H 	H 	0.86267 0.83307 0.42561 0.03700
H 	H 	0.86550 0.97678 0.41400 0.03700
H 	H 	0.10798 0.03143 0.51743 0.03600
C 	C 	0.88446 0.81324 0.01990 -0.04900
C 	C 	0.94808 0.97823 0.99866 -0.07200
C 	C 	0.97045 0.94989 0.99560 0.03000
H 	H 	0.90523 0.95680 0.99922 0.05000
C 	C 	0.94347 0.92218 0.47120 0.03200
C 	C 	0.91696 0.94654 0.46802 -0.07700
C 	C 	0.91335 0.86573 0.47573 -0.00600
C 	C 	0.92748 0.85338 0.50577 -0.03300
H 	H 	0.95767 0.88535 0.52671 0.03600
C 	C 	0.92755 0.85745 0.96348 -0.03400
C 	C 	0.93600 0.89110 0.99324 -0.00300
C 	C 	0.91381 0.86873 0.02132 -0.03600
H 	H 	0.94430 0.87435 0.94162 0.03700
H 	H 	0.92016 0.89442 0.04440 0.03700
