data_crystal

_cell_length_a 30.72852
_cell_length_b 31.04347
_cell_length_c 35.20481
_cell_angle_alpha 95.52929
_cell_angle_beta  95.52845
_cell_angle_gamma 125.54400

_symmetry_space_group_name_	'P 1'
_symmetry_space_group_name_H-M	'P 1'

loop_
_symmetry_equiv_pos_as_xyz
  x,y,z

loop_
_atom_site_label
_atom_site_type_symbol
_atom_site_fract_x
_atom_site_fract_y
_atom_site_fract_z
_atom_site_charge
H 	H 	0.01332 0.12135 0.96727 0.04300
C 	C 	0.01413 0.00160 0.46035 0.11900
C 	C 	0.98933 0.03322 0.99593 0.12300
N 	N 	0.04408 0.06285 0.99773 -0.13900
C 	C 	0.06839 0.03787 0.99418 0.12000
N 	N 	0.03782 0.98328 0.98858 -0.13900
C 	C 	0.98325 0.95368 0.98661 0.13500
N 	N 	0.95899 0.97856 0.99038 -0.13900
C 	C 	0.93273 0.99393 0.45251 0.12200
N 	N 	0.98740 0.02369 0.45400 -0.14000
N 	N 	0.98605 0.94959 0.46517 -0.13900
C 	C 	0.93144 0.91958 0.46369 0.12100
N 	N 	0.90474 0.94177 0.45730 -0.13900
Cu	Cu	0.66468 0.26592 0.00077 0.92900
Cu	Cu	0.70125 0.25940 0.91728 0.87800
Cu	Cu	0.69139 0.34558 0.94620 0.89900
Cu	Cu	0.67385 0.37154 0.02559 0.90000
C 	C 	0.67305 0.30261 0.08073 0.31200
O 	O 	0.58660 0.23627 0.00298 -0.35700
C 	C 	0.67516 0.30672 0.86252 0.30500
O 	O 	0.71082 0.34920 0.00043 -0.63900
O 	O 	0.65336 0.26671 0.94463 -0.63900
O 	O 	0.69537 0.22442 0.99947 -0.36600
O 	O 	0.75335 0.27446 0.96033 -0.43000
O 	O 	0.67878 0.34724 0.07549 -0.36700
O 	O 	0.73382 0.42294 0.95047 -0.37500
C 	C 	0.73425 0.45566 0.97771 0.29200
C 	C 	0.56609 0.26124 0.99231 0.31100
O 	O 	0.59793 0.31037 0.98580 -0.38700
O 	O 	0.70011 0.43685 0.00224 -0.38500
O 	O 	0.68563 0.27861 0.05587 -0.35900
C 	C 	0.73924 0.24137 0.98488 0.31100
O 	O 	0.67647 0.34030 0.88967 -0.37200
O 	O 	0.66786 0.26233 0.86991 -0.39800
H 	H 	0.75052 0.37126 0.01043 0.17100
H 	H 	0.61492 0.24423 0.93098 0.17900
Cu	Cu	0.71234 0.32971 0.44403 0.93000
Cu	Cu	0.71322 0.28530 0.52471 0.87700
Cu	Cu	0.62812 0.29786 0.49635 0.90000
Cu	Cu	0.61032 0.32856 0.42148 0.89800
C 	C 	0.67010 0.31699 0.36381 0.30800
O 	O 	0.74352 0.40853 0.44621 -0.35600
C 	C 	0.66824 0.31331 0.58054 0.30600
O 	O 	0.62790 0.28553 0.44188 -0.63900
O 	O 	0.70815 0.33545 0.49987 -0.63900
O 	O 	0.75195 0.29656 0.44394 -0.36000
O 	O 	0.69719 0.23603 0.47981 -0.43200
O 	O 	0.64724 0.33982 0.37575 -0.37900
O 	O 	0.54966 0.25703 0.48927 -0.36700
C 	C 	0.51882 0.26040 0.46276 0.30900
C 	C 	0.72048 0.42892 0.46173 0.30100
O 	O 	0.67023 0.39674 0.46713 -0.38900
O 	O 	0.53988 0.29653 0.44000 -0.38600
O 	O 	0.70214 0.31288 0.38860 -0.34200
C 	C 	0.73205 0.25105 0.45629 0.31300
O 	O 	0.62776 0.29936 0.55261 -0.36300
O 	O 	0.71170 0.31787 0.57277 -0.41000
H 	H 	0.60445 0.24711 0.42902 0.17800
H 	H 	0.73071 0.37255 0.51528 0.17700
C 	C 	0.61785 0.28341 0.67527 -0.07300
C 	C 	0.66289 0.32778 0.70170 0.02800
C 	C 	0.70650 0.37065 0.68773 0.05400
C 	C 	0.70657 0.36667 0.64774 -0.00400
C 	C 	0.66324 0.32059 0.62148 -0.09300
C 	C 	0.61790 0.27939 0.63528 0.11800
C 	C 	0.66776 0.32552 0.74356 0.02500
N 	N 	0.75149 0.41766 0.71419 -0.01600
H 	H 	0.74087 0.39903 0.63716 0.05700
N 	N 	0.57317 0.23210 0.60903 -0.02200
H 	H 	0.58400 0.25061 0.68589 0.08100
C 	C 	0.63430 0.32964 0.76604 0.05600
C 	C 	0.63750 0.32420 0.80512 -0.00200
C 	C 	0.67400 0.31500 0.82202 -0.09000
C 	C 	0.70838 0.31226 0.79974 0.11400
C 	C 	0.70459 0.31688 0.76061 -0.07000
N 	N 	0.59684 0.33900 0.74923 -0.01600
H 	H 	0.61126 0.32671 0.82221 0.06200
N 	N 	0.74790 0.30575 0.81699 -0.02500
H 	H 	0.73057 0.31402 0.74344 0.07900
O 	O 	0.52489 0.22082 0.60536 -0.09200
O 	O 	0.57967 0.19786 0.59156 -0.11500
O 	O 	0.80108 0.43506 0.71207 -0.10400
O 	O 	0.74301 0.44451 0.73919 -0.09000
O 	O 	0.78562 0.34140 0.84633 -0.12600
O 	O 	0.74871 0.26652 0.80150 -0.11300
O 	O 	0.54557 0.30664 0.75128 -0.10200
O 	O 	0.61450 0.38172 0.73409 -0.08800
C 	C 	0.66282 0.25597 0.26260 -0.07100
C 	C 	0.67319 0.29665 0.24212 0.02700
C 	C 	0.68451 0.34474 0.26197 0.05600
C 	C 	0.68357 0.35094 0.30171 -0.00300
C 	C 	0.67194 0.30982 0.32211 -0.08700
C 	C 	0.66199 0.26221 0.30249 0.11700
C 	C 	0.66846 0.28743 0.19945 0.02400
N 	N 	0.69651 0.38723 0.24170 -0.01600
H 	H 	0.69238 0.38806 0.31682 0.06400
N 	N 	0.64956 0.21956 0.32267 -0.02200
H 	H 	0.65407 0.21894 0.24738 0.08100
C 	C 	0.71103 0.29306 0.18277 0.05900
C 	C 	0.71003 0.29337 0.14288 -0.00100
C 	C 	0.66722 0.28873 0.11965 -0.08500
C 	C 	0.62259 0.27862 0.13578 0.11700
C 	C 	0.62347 0.27808 0.17556 -0.07000
N 	N 	0.75612 0.30018 0.20641 -0.01600
H 	H 	0.74403 0.30023 0.13047 0.06400
N 	N 	0.57650 0.26936 0.11182 -0.02700
H 	H 	0.58986 0.27201 0.18813 0.07800
O 	O 	0.67892 0.20187 0.32265 -0.09400
O 	O 	0.60658 0.19578 0.33860 -0.11500
O 	O 	0.66779 0.40559 0.24261 -0.10300
O 	O 	0.73819 0.40978 0.22439 -0.09100
O 	O 	0.54835 0.22892 0.08275 -0.10300
O 	O 	0.56037 0.29894 0.12076 -0.10500
O 	O 	0.76681 0.26568 0.19926 -0.09900
O 	O 	0.78903 0.34334 0.23294 -0.08800
C 	C 	0.90142 0.86300 0.46873 -0.02000
C 	C 	0.85174 0.82262 0.44390 -0.01700
C 	C 	0.82703 0.76828 0.44534 -0.04700
C 	C 	0.85169 0.75390 0.47170 0.01500
C 	C 	0.90007 0.79432 0.49763 -0.04700
C 	C 	0.92480 0.84858 0.49619 -0.01700
C 	C 	0.82878 0.69666 0.47052 0.00900
C 	C 	0.81062 0.67293 0.50304 -0.04000
C 	C 	0.79068 0.61920 0.50231 -0.02900
C 	C 	0.78888 0.58893 0.46914 -0.00500
C 	C 	0.80706 0.61259 0.43669 -0.02800
C 	C 	0.82697 0.66626 0.43737 -0.03900
C 	C 	0.76602 0.53288 0.46764 0.05000
C 	C 	0.74596 0.48563 0.46551 -0.10300
H 	H 	0.83324 0.83319 0.42263 0.04400
H 	H 	0.78939 0.73735 0.42544 0.04700
H 	H 	0.91926 0.78364 0.51822 0.04700
H 	H 	0.96272 0.87940 0.51587 0.04200
H 	H 	0.81192 0.69608 0.52879 0.04500
H 	H 	0.77642 0.60109 0.52743 0.04500
H 	H 	0.80558 0.58937 0.41089 0.04700
H 	H 	0.84132 0.68433 0.41225 0.04600
C 	C 	0.90430 0.01886 0.44699 -0.02100
C 	C 	0.92036 0.05664 0.42236 -0.01700
C 	C 	0.89729 0.08430 0.42006 -0.04700
C 	C 	0.85800 0.07452 0.44235 0.01500
C 	C 	0.84054 0.03545 0.46592 -0.04600
C 	C 	0.86350 0.00767 0.46819 -0.01900
C 	C 	0.83783 0.10762 0.44300 0.00900
C 	C 	0.85126 0.14383 0.47695 -0.04100
C 	C 	0.83174 0.17481 0.47784 -0.02900
C 	C 	0.79864 0.16984 0.44482 -0.00600
C 	C 	0.78568 0.13418 0.41070 -0.02700
C 	C 	0.80533 0.10322 0.40975 -0.04000
C 	C 	0.77536 0.19893 0.44689 0.05400
C 	C 	0.75575 0.22302 0.45020 -0.10700
H 	H 	0.95123 0.06510 0.40543 0.04200
H 	H 	0.91085 0.11422 0.40166 0.04700
H 	H 	0.80997 0.02740 0.48306 0.04600
H 	H 	0.85073 0.97867 0.48730 0.04500
H 	H 	0.87668 0.14783 0.50266 0.04400
H 	H 	0.84184 0.20221 0.50434 0.03900
H 	H 	0.75997 0.12999 0.38509 0.05100
H 	H 	0.79487 0.07549 0.38336 0.04700
C 	C 	0.07354 0.03399 0.46220 -0.01900
C 	C 	0.10545 0.02604 0.48757 -0.01900
C 	C 	0.16135 0.05502 0.48819 -0.04600
C 	C 	0.18594 0.09226 0.46350 0.01500
C 	C 	0.15432 0.10084 0.43854 -0.04700
C 	C 	0.09837 0.07188 0.43789 -0.01800
C 	C 	0.24466 0.12168 0.46342 0.01000
C 	C 	0.27999 0.17800 0.47478 -0.03900
C 	C 	0.33571 0.20580 0.47496 -0.02800
C 	C 	0.35645 0.17750 0.46382 -0.00300
C 	C 	0.32126 0.12127 0.45247 -0.02800
C 	C 	0.26553 0.09342 0.45225 -0.03900
C 	C 	0.41374 0.20625 0.46359 0.05200
C 	C 	0.46171 0.23069 0.46329 -0.09400
H 	H 	0.08696 0.99747 0.50683 0.04400
H 	H 	0.18554 0.04850 0.50780 0.04700
H 	H 	0.17298 0.12947 0.41933 0.04600
H 	H 	0.07423 0.07820 0.41803 0.04200
H 	H 	0.26430 0.20014 0.48359 0.04500
H 	H 	0.36271 0.24929 0.48374 0.04600
H 	H 	0.33701 0.09916 0.44374 0.04500
H 	H 	0.23855 0.04996 0.44331 0.04500
C 	C 	0.76593 0.51350 0.97619 -0.08200
C 	C 	0.78599 0.55151 0.01056 0.01600
C 	C 	0.81213 0.60593 0.00905 -0.06400
C 	C 	0.81849 0.62292 0.97318 0.03100
C 	C 	0.79970 0.58524 0.93887 -0.06200
C 	C 	0.77357 0.53074 0.94035 0.01900
C 	C 	0.84422 0.68004 0.97159 0.00100
C 	C 	0.89410 0.71088 0.95901 -0.03300
C 	C 	0.92036 0.76597 0.96010 -0.03900
C 	C 	0.89692 0.79051 0.97375 0.01600
C 	C 	0.84648 0.75953 0.98543 -0.03900
C 	C 	0.82014 0.70443 0.98431 -0.03300
C 	C 	0.92612 0.84792 0.97786 0.00800
C 	C 	0.95156 0.89615 0.98170 -0.03800
H 	H 	0.78096 0.53881 0.03842 0.03300
H 	H 	0.82717 0.63488 0.03572 0.05100
H 	H 	0.80460 0.59806 0.91106 0.05500
H 	H 	0.75811 0.50183 0.91359 0.04800
H 	H 	0.91298 0.69241 0.94913 0.04500
H 	H 	0.95935 0.78971 0.95098 0.04800
H 	H 	0.82808 0.77824 0.99593 0.04700
H 	H 	0.78143 0.68084 0.99381 0.04400
C 	C 	0.96288 0.06021 0.00006 -0.02100
C 	C 	0.91941 0.03993 0.02018 -0.01600
C 	C 	0.89253 0.06384 0.02245 -0.04700
C 	C 	0.90875 0.10817 0.00456 0.01500
C 	C 	0.95293 0.12920 0.98516 -0.04700
C 	C 	0.97995 0.10540 0.98297 -0.01500
C 	C 	0.87787 0.13091 0.00454 0.00900
C 	C 	0.90381 0.18505 0.02138 -0.04100
C 	C 	0.87507 0.20717 0.01968 -0.02600
C 	C 	0.82027 0.17527 0.00125 -0.00900
C 	C 	0.79404 0.12095 0.98510 -0.02700
C 	C 	0.82271 0.09883 0.98671 -0.04000
C 	C 	0.79190 0.19903 0.99668 0.05500
C 	C 	0.76792 0.21855 0.99188 -0.11100
H 	H 	0.90637 0.00560 0.03399 0.04400
H 	H 	0.85878 0.04763 0.03779 0.04700
H 	H 	0.96565 0.16331 0.97116 0.04600
H 	H 	0.94627 0.21006 0.03544 0.04600
H 	H 	0.89562 0.24922 0.03221 0.04500
H 	H 	0.75170 0.09610 0.97074 0.04200
H 	H 	0.80236 0.05703 0.97356 0.04500
C 	C 	0.12781 0.06975 0.99702 -0.01900
C 	C 	0.15695 0.05417 0.01687 -0.01700
C 	C 	0.21244 0.08130 0.01676 -0.04700
C 	C 	0.23942 0.12436 0.99690 0.01600
C 	C 	0.21072 0.14092 0.97788 -0.04700
C 	C 	0.15512 0.11378 0.97799 -0.01700
C 	C 	0.29731 0.15102 0.99517 0.00900
C 	C 	0.31280 0.14683 0.95956 -0.03900
C 	C 	0.36721 0.16881 0.95834 -0.02900
C 	C 	0.40636 0.19505 0.99268 -0.00200
C 	C 	0.39110 0.19991 0.02818 -0.02800
C 	C 	0.33676 0.17801 0.02944 -0.03900
C 	C 	0.46230 0.21737 0.99156 0.05600
C 	C 	0.50948 0.23680 0.99140 -0.09600
H 	H 	0.13646 0.02068 0.03205 0.04400
H 	H 	0.23432 0.06836 0.03162 0.04800
H 	H 	0.23135 0.17438 0.96269 0.04700
H 	H 	0.13307 0.12613 0.96253 0.04200
H 	H 	0.28259 0.12584 0.93298 0.04500
H 	H 	0.37880 0.16513 0.93077 0.04400
H 	H 	0.42126 0.22040 0.05481 0.05500
H 	H 	0.32520 0.18154 0.05705 0.04700
