data_crystal

_cell_length_a 22.51844
_cell_length_b 23.69405
_cell_length_c 39.66878
_cell_angle_alpha 60.66032
_cell_angle_beta  119.05401
_cell_angle_gamma 133.35126

_symmetry_space_group_name_	'P 1'
_symmetry_space_group_name_H-M	'P 1'

loop_
_symmetry_equiv_pos_as_xyz
  x,y,z

loop_
_atom_site_label
_atom_site_type_symbol
_atom_site_fract_x
_atom_site_fract_y
_atom_site_fract_z
_atom_site_charge
C 	C 	0.25261 0.62890 0.17196 0.04800
C 	C 	0.24096 0.52494 0.16393 0.04900
C 	C 	0.20348 0.54978 0.16830 -0.07700
H 	H 	0.13745 0.50884 0.16845 0.06200
C 	C 	0.28767 0.67840 0.64188 0.05000
C 	C 	0.23114 0.60023 0.63606 -0.07700
C 	C 	0.25838 0.57245 0.62628 0.05100
H 	H 	0.16718 0.56192 0.63895 0.06200
Co	Co	0.05437 0.01727 0.05442 1.17100
Co	Co	0.00246 0.07362 0.09295 1.18300
C 	C 	0.21634 0.03888 0.06846 0.27300
Co	Co	0.05883 0.88835 0.04795 1.17500
O 	O 	0.06116 0.10947 0.05261 -0.46000
C 	C 	0.09393 0.17107 0.15420 0.31300
C 	C 	0.07219 0.79431 0.13090 0.32000
O 	O 	0.08494 0.98427 0.99847 -0.35700
O 	O 	0.04606 0.10965 0.17901 -0.39600
O 	O 	0.10194 0.15999 0.12701 -0.37700
O 	O 	0.03830 0.78909 0.09428 -0.40200
O 	O 	0.06254 0.82945 0.14377 -0.37000
O 	O 	0.02337 0.92196 0.07084 -0.73600
O 	O 	0.17964 0.96164 0.07715 -0.36100
O 	O 	0.18320 0.06656 0.07086 -0.38400
Co	Co	0.06331 0.03016 0.54856 1.17300
Co	Co	0.99875 0.07392 0.58705 1.17100
C 	C 	0.22222 0.09714 0.53480 0.33400
Co	Co	0.10466 0.92198 0.54895 1.17900
O 	O 	0.04410 0.10858 0.54133 -0.45700
C 	C 	0.05861 0.19931 0.62124 0.33600
C 	C 	0.18328 0.89073 0.63285 0.31100
O 	O 	0.00150 0.90114 0.50220 -0.37000
O 	O 	0.98216 0.15277 0.62599 -0.41500
O 	O 	0.08241 0.17663 0.60833 -0.38200
O 	O 	0.20051 0.94481 0.59926 -0.37900
O 	O 	0.13080 0.87452 0.64857 -0.36000
O 	O 	0.06306 0.94793 0.57293 -0.73500
O 	O 	0.17253 0.03905 0.51738 -0.43100
O 	O 	0.19120 0.10696 0.55072 -0.39300
C 	C 	0.02847 0.05610 0.86971 -0.05100
C 	C 	0.02956 0.06331 0.90346 -0.00800
C 	C 	0.09119 0.02170 0.79228 -0.01900
C 	C 	0.08571 0.02451 0.82542 -0.07400
C 	C 	0.16176 0.07573 0.85073 0.09400
C 	C 	0.06940 0.14141 0.90657 0.08700
N 	N 	0.22273 0.11678 0.87102 -0.11800
N 	N 	0.10136 0.20406 0.90907 -0.10700
H 	H 	0.05460 0.10883 0.84585 0.05100
H 	H 	0.15060 0.06417 0.78370 0.04300
C 	C 	0.96768 0.88379 0.33270 -0.06400
C 	C 	0.96352 0.87318 0.29925 -0.00400
C 	C 	0.07476 0.02832 0.42591 -0.01000
C 	C 	0.07926 0.01710 0.39567 -0.07100
C 	C 	0.16011 0.04859 0.39385 0.09200
C 	C 	0.91702 0.79323 0.29611 0.08400
N 	N 	0.22489 0.07379 0.39241 -0.11900
N 	N 	0.87972 0.72912 0.29357 -0.10900
H 	H 	0.93745 0.83193 0.35598 0.05400
H 	H 	0.13227 0.06756 0.44432 0.04900
C 	C 	0.10806 0.28179 0.62106 -0.10700
C 	C 	0.14039 0.34818 0.62185 0.07000
C 	C 	0.17444 0.42424 0.62342 -0.01900
C 	C 	0.20739 0.49037 0.62487 -0.01000
C 	C 	0.25878 0.71261 0.64691 -0.01000
C 	C 	0.23815 0.74610 0.64937 -0.01400
C 	C 	0.21685 0.79085 0.64922 0.06500
C 	C 	0.20057 0.83373 0.64500 -0.09700
C 	C 	0.19444 0.44522 0.15965 -0.01000
C 	C 	0.16784 0.38262 0.15617 -0.01600
C 	C 	0.14420 0.31158 0.15304 0.06500
C 	C 	0.12420 0.24982 0.15208 -0.10200
C 	C 	0.11790 0.75903 0.15594 -0.09200
C 	C 	0.15098 0.72621 0.16713 0.06300
C 	C 	0.18557 0.68824 0.17256 -0.01200
C 	C 	0.21452 0.65871 0.17343 -0.01000
C 	C 	0.31095 0.13799 0.54324 -0.12200
C 	C 	0.38300 0.16556 0.54847 0.07000
C 	C 	0.36745 0.13209 0.05587 0.05300
C 	C 	0.29940 0.09296 0.06196 -0.09700
C 	C 	0.71789 0.29606 0.02909 0.04600
C 	C 	0.76617 0.37621 0.03072 -0.07900
C 	C 	0.72880 0.40191 0.03425 0.04900
C 	C 	0.64465 0.34861 0.03574 -0.08100
C 	C 	0.59771 0.26900 0.03582 0.05000
C 	C 	0.63360 0.24241 0.03208 -0.08000
H 	H 	0.83180 0.41738 0.02980 0.05800
H 	H 	0.61618 0.36868 0.03836 0.06200
H 	H 	0.59696 0.18022 0.03235 0.05600
C 	C 	0.74145 0.28488 0.55561 0.04500
C 	C 	0.65535 0.23803 0.55409 -0.07900
C 	C 	0.62548 0.26660 0.56108 0.04700
C 	C 	0.68071 0.34062 0.56993 -0.08000
C 	C 	0.76482 0.39001 0.56922 0.04800
C 	C 	0.79644 0.36228 0.56250 -0.07800
H 	H 	0.61224 0.17965 0.54782 0.05600
H 	H 	0.65699 0.36184 0.57552 0.06100
H 	H 	0.86234 0.39985 0.56278 0.05700
C 	C 	0.33787 0.68193 0.17056 -0.07800
C 	C 	0.37374 0.65632 0.16597 0.05200
C 	C 	0.32569 0.57816 0.16341 -0.07900
H 	H 	0.37544 0.74308 0.17224 0.06400
H 	H 	0.35422 0.55895 0.16008 0.06300
C 	C 	0.33962 0.62287 0.62121 -0.07900
C 	C 	0.39738 0.69730 0.62989 0.05200
C 	C 	0.37169 0.72589 0.63990 -0.07800
H 	H 	0.35993 0.60145 0.61328 0.06300
H 	H 	0.41648 0.78463 0.64594 0.06400
Co	Co	0.92439 0.91145 0.14811 1.19000
Co	Co	0.97222 0.85425 0.10810 1.17600
Co	Co	0.91909 0.03715 0.15626 1.15800
C 	C 	0.88265 0.75480 0.04759 0.31000
O 	O 	0.93497 0.13573 0.10999 -0.41600
O 	O 	0.94776 0.00405 0.12918 -0.78000
C 	C 	0.90227 0.13275 0.07291 0.31800
O 	O 	0.92030 0.82028 0.15091 -0.45900
C 	C 	0.76026 0.88304 0.13975 0.31200
O 	O 	0.96720 0.95740 0.09300 -0.57000
C 	C 	0.03169 0.00186 0.97658 0.24000
O 	O 	0.91945 0.10710 0.05792 -0.38700
O 	O 	0.00488 0.01528 0.99335 -0.36300
O 	O 	0.79737 0.96076 0.12915 -0.37600
O 	O 	0.79693 0.85204 0.14439 -0.36700
C 	C 	0.96073 0.93238 0.22631 0.27100
O 	O 	0.90235 0.94372 0.20662 -0.38700
O 	O 	0.99011 0.92675 0.20687 -0.37000
O 	O 	0.93223 0.81826 0.02366 -0.39800
O 	O 	0.87737 0.76174 0.07753 -0.37100
Co	Co	0.96310 0.92770 0.65348 1.18700
Co	Co	0.02972 0.88529 0.61583 1.18800
Co	Co	0.91753 0.03131 0.65346 1.16100
C 	C 	0.96333 0.75837 0.58144 0.30500
O 	O 	0.82403 0.01157 0.60224 -0.40700
O 	O 	0.96890 0.01284 0.63100 -0.77300
C 	C 	0.84356 0.06568 0.56909 0.31300
O 	O 	0.97985 0.84790 0.66026 -0.46400
C 	C 	0.79859 0.85867 0.65988 0.33700
O 	O 	0.03691 0.99220 0.60747 -0.55200
C 	C 	0.99752 0.96130 0.47758 0.29900
O 	O 	0.89249 0.07651 0.55347 -0.38400
O 	O 	0.99937 0.00535 0.49074 -0.39800
O 	O 	0.84597 0.91125 0.68069 -0.40200
O 	O 	0.83325 0.85683 0.64194 -0.39200
C 	C 	0.01731 0.98562 0.72677 0.31300
O 	O 	0.01685 0.04768 0.70199 -0.40900
O 	O 	0.00890 0.93702 0.71374 -0.34700
O 	O 	0.04036 0.80209 0.57848 -0.38900
O 	O 	0.94015 0.78557 0.59161 -0.38900
C 	C 	0.95742 0.91272 0.89764 -0.02000
C 	C 	0.99745 0.98165 0.86773 0.00300
C 	C 	0.99418 0.99482 0.93445 -0.02300
C 	C 	0.94941 0.91938 0.92837 -0.02000
C 	C 	0.00646 0.97616 0.83400 0.08800
C 	C 	0.93561 0.91998 0.81138 -0.07900
C 	C 	0.94395 0.91010 0.78199 0.00700
C 	C 	0.01972 0.96650 0.76930 -0.03100
C 	C 	0.87721 0.83837 0.76770 0.08600
C 	C 	0.93082 0.83618 0.89918 0.08000
N 	N 	0.82366 0.78034 0.75661 -0.10500
N 	N 	0.90952 0.77484 0.90046 -0.11100
H 	H 	0.91682 0.86585 0.95038 0.05400
H 	H 	0.87444 0.88196 0.81752 0.06300
C 	C 	0.04985 0.02781 0.30540 -0.05300
C 	C 	0.00785 0.96081 0.33532 0.05300
C 	C 	0.00155 0.94012 0.26835 -0.00200
C 	C 	0.05289 0.01692 0.27452 -0.04400
C 	C 	0.00481 0.97064 0.36938 0.06900
C 	C 	0.92680 0.93288 0.37550 -0.08000
C 	C 	0.92284 0.93742 0.40857 0.03000
C 	C 	0.99747 0.98294 0.43513 -0.06000
C 	C 	0.84194 0.89396 0.41539 0.08000
C 	C 	0.08399 0.10709 0.30419 0.08900
N 	N 	0.77706 0.85911 0.42087 -0.10300
N 	N 	0.11131 0.17062 0.30319 -0.11400
H 	H 	0.08793 0.06886 0.25276 0.05800
H 	H 	0.86916 0.89830 0.35520 0.06000
C 	C 	0.48457 0.73856 0.63326 -0.00800
C 	C 	0.55555 0.76579 0.63663 -0.01700
C 	C 	0.63797 0.79405 0.64203 0.07700
C 	C 	0.71002 0.82024 0.64872 -0.10700
C 	C 	0.45897 0.71057 0.16166 -0.01100
C 	C 	0.52848 0.74973 0.15717 -0.01500
C 	C 	0.60853 0.79248 0.15126 0.06600
C 	C 	0.67714 0.83078 0.14597 -0.09700
C 	C 	0.77316 0.25082 0.55249 -0.01500
C 	C 	0.79456 0.21669 0.55110 -0.02300
C 	C 	0.81542 0.17056 0.55199 0.05800
C 	C 	0.83008 0.12599 0.55653 -0.11000
C 	C 	0.91098 0.67555 0.58093 -0.09900
C 	C 	0.87884 0.60971 0.57919 0.05900
C 	C 	0.84668 0.53517 0.57616 -0.01800
C 	C 	0.81542 0.47064 0.57309 -0.01500
C 	C 	0.46571 0.19514 0.55314 -0.02600
C 	C 	0.53727 0.22357 0.55667 -0.01300
C 	C 	0.75660 0.26626 0.02847 -0.01600
C 	C 	0.78730 0.23778 0.03019 -0.02200
C 	C 	0.82408 0.20138 0.03662 0.05700
C 	C 	0.85800 0.16930 0.04833 -0.10800
C 	C 	0.85075 0.67748 0.04705 -0.10500
C 	C 	0.82913 0.61607 0.04493 0.06200
C 	C 	0.80361 0.54488 0.04130 -0.01900
C 	C 	0.77570 0.48187 0.03791 -0.01400
C 	C 	0.51431 0.21445 0.04239 -0.01700
C 	C 	0.44622 0.17518 0.04850 -0.01900
