data_crystal

_cell_length_a 24.01514
_cell_length_b 21.37444
_cell_length_c 19.00525
_cell_angle_alpha 92.70671
_cell_angle_beta  85.31727
_cell_angle_gamma 124.79045

_symmetry_space_group_name_	'P 1'
_symmetry_space_group_name_H-M	'P 1'

loop_
_symmetry_equiv_pos_as_xyz
  x,y,z

loop_
_atom_site_label
_atom_site_type_symbol
_atom_site_fract_x
_atom_site_fract_y
_atom_site_fract_z
_atom_site_charge
C 	C 	0.89120 0.08250 0.02360 -0.02800
C 	C 	0.86582 0.05526 0.09264 0.04100
C 	C 	0.88970 0.01977 0.12769 -0.08100
C 	C 	0.93949 0.01169 0.09439 0.11600
C 	C 	0.96535 0.03961 0.02520 -0.11700
C 	C 	0.94200 0.07589 0.99055 0.08400
N 	N 	0.96198 0.97270 0.13077 -0.13700
C 	C 	0.17529 0.09445 0.15130 0.02400
C 	C 	0.13242 0.01734 0.16998 -0.01200
C 	C 	0.06226 0.97818 0.16599 -0.02600
C 	C 	0.03461 0.01556 0.14128 0.07500
C 	C 	0.07696 0.09589 0.13540 -0.04400
C 	C 	0.14716 0.13473 0.13901 0.01000
C 	C 	0.87375 0.74814 0.05004 0.04100
C 	C 	0.84393 0.76112 0.11041 0.01800
C 	C 	0.87331 0.83501 0.13675 -0.03600
C 	C 	0.93237 0.89665 0.10274 0.09800
C 	C 	0.96203 0.88357 0.04181 -0.03800
C 	C 	0.93236 0.80972 0.01533 0.00000
H 	H 	0.82744 0.06139 0.11899 0.08500
H 	H 	0.86938 0.99825 0.18071 0.09400
H 	H 	0.00495 0.03545 0.99940 0.12500
H 	H 	0.96309 0.09851 0.93794 0.08100
H 	H 	0.15368 0.98698 0.18435 0.09800
H 	H 	0.02961 0.91857 0.18050 0.08600
H 	H 	0.05591 0.12817 0.12814 0.07700
H 	H 	0.17985 0.19554 0.12940 0.09200
H 	H 	0.79817 0.71390 0.13702 0.11600
H 	H 	0.85030 0.84452 0.18368 0.10100
H 	H 	0.00853 0.93027 0.01592 0.10000
H 	H 	0.95539 0.80019 0.96840 0.12000
C 	C 	0.95730 0.16040 0.36383 0.02500
C 	C 	0.96338 0.12281 0.30435 0.00900
C 	C 	0.98644 0.07646 0.31053 -0.06100
C 	C 	0.00589 0.06921 0.37544 0.10400
C 	C 	0.00200 0.10913 0.43467 -0.04300
C 	C 	0.97626 0.15289 0.42912 0.01500
N 	N 	0.02724 0.01875 0.38097 -0.14400
C 	C 	0.21078 0.11561 0.48307 0.03400
C 	C 	0.14826 0.07436 0.52264 0.01200
C 	C 	0.08766 0.04172 0.48947 -0.04800
C 	C 	0.08916 0.05091 0.41621 0.09400
C 	C 	0.15170 0.09082 0.37667 -0.03600
C 	C 	0.21219 0.12206 0.40973 0.00800
C 	C 	0.87716 0.78802 0.43885 0.02500
C 	C 	0.87198 0.84585 0.46864 0.01400
C 	C 	0.92015 0.92167 0.44911 -0.05500
C 	C 	0.97417 0.94040 0.39897 0.09700
C 	C 	0.97807 0.88205 0.36803 -0.05300
C 	C 	0.93041 0.80639 0.38853 0.01500
H 	H 	0.94838 0.12781 0.25382 0.06100
H 	H 	0.98723 0.04424 0.26553 0.06400
H 	H 	0.01577 0.10342 0.48551 0.08700
H 	H 	0.96951 0.17949 0.47589 0.10000
H 	H 	0.14669 0.06801 0.57913 0.09000
H 	H 	0.03982 0.01069 0.52077 0.07500
H 	H 	0.15327 0.09714 0.32021 0.07000
H 	H 	0.26012 0.15147 0.37849 0.11500
H 	H 	0.83141 0.83218 0.50811 0.09100
H 	H 	0.91657 0.96556 0.47461 0.07900
H 	H 	0.01916 0.89576 0.32930 0.08300
H 	H 	0.93547 0.76216 0.36616 0.10000
Co	Co	0.71377 0.29859 0.97188 1.20400
O 	O 	0.78126 0.28217 0.91071 -0.27200
Co	Co	0.57608 0.29834 0.02356 1.19200
O 	O 	0.61422 0.23891 0.94831 -0.41500
O 	O 	0.64928 0.40686 0.99997 -0.33000
O 	O 	0.71575 0.20187 0.99030 -0.27100
C 	C 	0.71229 0.43369 0.97470 0.34200
O 	O 	0.54921 0.26972 0.91634 -0.27100
C 	C 	0.46287 0.23385 0.10024 0.31100
C 	C 	0.69391 0.33423 0.10423 0.26900
O 	O 	0.50526 0.30587 0.08837 -0.28000
O 	O 	0.48466 0.19692 0.06709 -0.29300
O 	O 	0.75035 0.34959 0.07263 -0.27100
O 	O 	0.64226 0.28457 0.06954 -0.42300
O 	O 	0.72638 0.39145 0.93425 -0.50700
C 	C 	0.76260 0.21964 0.94112 0.28700
C 	C 	0.58755 0.24676 0.89586 0.29700
H 	H 	0.75908 0.41532 0.89107 0.24700
Co	Co	0.75368 0.35105 0.48493 1.19600
O 	O 	0.83458 0.36551 0.41934 -0.32100
Co	Co	0.60681 0.33319 0.53075 1.19800
O 	O 	0.66795 0.32016 0.43721 -0.41100
O 	O 	0.68400 0.43335 0.56195 -0.34700
O 	O 	0.75306 0.25365 0.45018 -0.25700
C 	C 	0.73853 0.47776 0.51968 0.34000
O 	O 	0.61474 0.37149 0.42562 -0.29000
C 	C 	0.47839 0.24459 0.56605 0.30800
C 	C 	0.69303 0.30735 0.61470 0.29400
O 	O 	0.52054 0.31194 0.59079 -0.29900
O 	O 	0.50955 0.22703 0.51956 -0.25300
O 	O 	0.75597 0.33456 0.59516 -0.28000
O 	O 	0.65609 0.28780 0.56151 -0.40900
O 	O 	0.78117 0.45847 0.49883 -0.49400
C 	C 	0.80950 0.29402 0.41247 0.30500
C 	C 	0.65948 0.36058 0.39684 0.27100
H 	H 	0.82927 0.49967 0.48097 0.22200
C 	C 	0.61263 0.25180 0.82224 0.07100
N 	N 	0.57278 0.24123 0.77002 -0.01100
N 	N 	0.59788 0.25590 0.70322 -0.03100
C 	C 	0.66381 0.28248 0.68678 0.08200
N 	N 	0.70350 0.29170 0.73878 -0.02400
N 	N 	0.67807 0.27603 0.80564 -0.05800
C 	C 	0.68731 0.34590 0.17979 0.08100
N 	N 	0.63309 0.34492 0.20802 -0.03300
N 	N 	0.62557 0.35265 0.27740 -0.00600
C 	C 	0.67151 0.36038 0.32044 0.08100
N 	N 	0.72603 0.36196 0.29214 -0.03700
N 	N 	0.73420 0.35562 0.22261 -0.01200
C 	C 	0.74702 0.57456 0.44451 0.08400
C 	C 	0.76037 0.55664 0.50826 -0.03200
C 	C 	0.80378 0.61570 0.55466 -0.05100
C 	C 	0.84050 0.69167 0.53163 0.00500
C 	C 	0.83082 0.70926 0.46552 0.09600
C 	C 	0.77992 0.65082 0.42385 -0.12600
C 	C 	0.76340 0.66903 0.35546 0.78800
H 	H 	0.71323 0.52896 0.40957 0.08000
H 	H 	0.87834 0.73711 0.56398 0.10500
C 	C 	0.81363 0.59763 0.62706 0.77200
F 	F 	0.70133 0.60841 0.33374 -0.40300
F 	F 	0.81310 0.68461 0.30306 -0.42100
F 	F 	0.75994 0.73140 0.36423 -0.42300
F 	F 	0.84992 0.56534 0.61985 -0.41300
F 	F 	0.75123 0.54724 0.66214 -0.37900
F 	F 	0.84872 0.66246 0.66830 -0.39300
C 	C 	0.92029 0.30941 0.39201 0.08200
C 	C 	0.84985 0.26480 0.38508 0.00400
C 	C 	0.81832 0.19111 0.35492 -0.06400
C 	C 	0.85466 0.15776 0.34696 0.01000
C 	C 	0.92387 0.20038 0.35955 0.09100
C 	C 	0.95842 0.27908 0.37493 -0.12900
C 	C 	0.03527 0.33028 0.37573 0.79600
H 	H 	0.94513 0.36709 0.41209 0.10200
H 	H 	0.82881 0.09815 0.33261 0.09400
C 	C 	0.74589 0.14709 0.33270 0.77600
F 	F 	0.05931 0.40525 0.36307 -0.38900
F 	F 	0.06524 0.30883 0.32393 -0.41100
F 	F 	0.05458 0.32623 0.44098 -0.40600
F 	F 	0.73287 0.19536 0.30368 -0.41000
F 	F 	0.70108 0.11057 0.39069 -0.39500
F 	F 	0.73471 0.09284 0.28224 -0.41000
C 	C 	0.38583 0.26004 0.54693 0.08500
C 	C 	0.40552 0.21213 0.56295 0.01300
C 	C 	0.35669 0.13233 0.56534 -0.05900
C 	C 	0.29276 0.10157 0.53934 0.01800
C 	C 	0.27482 0.14942 0.51812 0.09400
C 	C 	0.31963 0.22924 0.52734 -0.11300
C 	C 	0.29873 0.28200 0.51231 0.79100
H 	H 	0.42300 0.32121 0.54650 0.10800
H 	H 	0.25747 0.04039 0.53400 0.10500
C 	C 	0.37367 0.07957 0.59170 0.77600
F 	F 	0.34067 0.35274 0.54308 -0.38600
F 	F 	0.23293 0.25210 0.53929 -0.41000
F 	F 	0.30278 0.29172 0.44024 -0.39400
F 	F 	0.41349 0.11145 0.64889 -0.39900
F 	F 	0.40831 0.06639 0.53811 -0.39000
F 	F 	0.31522 0.01043 0.61318 -0.39300
C 	C 	0.81356 0.54167 0.02982 0.05600
C 	C 	0.76448 0.51623 0.98051 -0.00400
C 	C 	0.75957 0.56965 0.94529 -0.05800
C 	C 	0.79662 0.64586 0.96822 0.03900
C 	C 	0.84192 0.67018 0.02154 0.07100
C 	C 	0.85361 0.61881 0.04980 -0.10700
C 	C 	0.90563 0.64501 0.10435 0.78400
H 	H 	0.81817 0.50064 0.05512 0.09400
H 	H 	0.78893 0.68597 0.94599 0.11400
C 	C 	0.71200 0.54497 0.88633 0.77800
F 	F 	0.91761 0.59031 0.11601 -0.39600
F 	F 	0.88225 0.65959 0.16759 -0.40900
F 	F 	0.96683 0.71055 0.08160 -0.41400
F 	F 	0.64625 0.51190 0.91496 -0.39500
F 	F 	0.71451 0.49308 0.84231 -0.40200
F 	F 	0.72980 0.60652 0.84546 -0.37700
C 	C 	0.89813 0.19971 0.99877 0.02300
C 	C 	0.86691 0.12156 0.98740 0.11800
C 	C 	0.80940 0.08021 0.94674 -0.13500
C 	C 	0.77969 0.11636 0.92518 0.08100
C 	C 	0.80700 0.19271 0.94262 0.01400
C 	C 	0.86942 0.23639 0.97561 -0.06700
C 	C 	0.90461 0.32139 0.98752 0.79900
H 	H 	0.94339 0.23117 0.02810 0.09600
H 	H 	0.73275 0.08392 0.89861 0.09900
C 	C 	0.77752 0.99663 0.92970 0.80300
F 	F 	0.96697 0.35425 0.01568 -0.40600
F 	F 	0.86463 0.33424 0.03382 -0.43200
F 	F 	0.91577 0.35707 0.92398 -0.39800
F 	F 	0.74994 0.95420 0.99112 -0.40400
F 	F 	0.82621 0.98708 0.89826 -0.41600
F 	F 	0.72641 0.96873 0.88370 -0.39500
C 	C 	0.34606 0.15751 0.06024 0.07500
C 	C 	0.38962 0.19910 0.11420 0.00600
C 	C 	0.36298 0.20695 0.18067 -0.06300
C 	C 	0.29258 0.17299 0.19147 0.01200
C 	C 	0.24900 0.13086 0.13757 0.08500
C 	C 	0.27589 0.12384 0.07081 -0.11600
C 	C 	0.22973 0.07943 0.01120 0.76500
H 	H 	0.36724 0.15194 0.00971 0.09800
H 	H 	0.27142 0.17910 0.24176 0.09200
C 	C 	0.40956 0.25175 0.23971 0.77400
F 	F 	0.26635 0.08437 0.94902 -0.38500
F 	F 	0.19224 0.10778 0.99822 -0.41200
F 	F 	0.18600 0.00337 0.02944 -0.42400
F 	F 	0.45329 0.32756 0.22060 -0.39300
F 	F 	0.44713 0.22332 0.25226 -0.41400
F 	F 	0.37355 0.24755 0.30209 -0.41200
