data_crystal

_cell_length_a 21.15762
_cell_length_b 17.95307
_cell_length_c 68.60047
_cell_angle_alpha 90.52372
_cell_angle_beta  91.66276
_cell_angle_gamma 111.08507

_symmetry_space_group_name_	'P 1'
_symmetry_space_group_name_H-M	'P 1'

loop_
_symmetry_equiv_pos_as_xyz
  x,y,z

loop_
_atom_site_label
_atom_site_type_symbol
_atom_site_fract_x
_atom_site_fract_y
_atom_site_fract_z
_atom_site_charge
O 	O 	0.24479 0.58674 0.00138 -0.40400
Ni	Ni	0.41212 0.82966 0.00193 1.07300
O 	O 	0.32694 0.85815 0.00682 -0.40200
H 	H 	0.36300 0.68643 0.00870 0.15300
O 	O 	0.24029 0.74047 0.01184 -0.37000
C 	C 	0.15746 0.46609 0.01044 -0.09000
C 	C 	0.15171 0.38576 0.01123 0.01700
C 	C 	0.56489 0.74896 0.01571 -0.09200
H 	H 	0.52226 0.61982 0.01627 0.02800
C 	C 	0.27728 0.81403 0.01756 0.27100
H 	H 	0.61885 0.87647 0.01887 0.03800
C 	C 	0.13033 0.49859 0.02529 0.01500
C 	C 	0.12254 0.33983 0.02728 -0.06600
H 	H 	0.13364 0.56019 0.02470 0.03600
H 	H 	0.11997 0.27855 0.02801 0.04700
C 	C 	0.61238 0.81815 0.02454 0.01100
C 	C 	0.55848 0.67373 0.02298 0.01000
H 	H 	0.30577 0.97244 0.02423 0.04500
C 	C 	0.25613 0.85165 0.03413 -0.07800
C 	C 	0.65026 0.81232 0.04108 -0.06600
C 	C 	0.59621 0.66805 0.03956 -0.06700
C 	C 	0.27733 0.93533 0.03570 -0.00300
C 	C 	0.10137 0.45284 0.04132 -0.06400
C 	C 	0.09882 0.37386 0.04264 0.02700
C 	C 	0.64093 0.73738 0.04894 0.02600
H 	H 	0.68515 0.86617 0.04818 0.05000
H 	H 	0.58913 0.60994 0.04547 0.04500
H 	H 	0.08289 0.47959 0.05302 0.04700
C 	C 	0.21840 0.80465 0.04904 0.00300
C 	C 	0.26249 0.97150 0.05216 -0.03300
H 	H 	0.20189 0.74014 0.04809 0.03700
H 	H 	0.27996 0.03604 0.05331 0.02700
C 	C 	0.07566 0.32888 0.06067 0.00200
H 	H 	0.97589 0.33642 0.05892 0.04000
H 	H 	0.77406 0.76844 0.05715 0.04300
C 	C 	0.01081 0.31705 0.06746 -0.04000
H 	H 	0.17044 0.31203 0.06681 0.03900
C 	C 	0.67272 0.73234 0.06796 0.00200
C 	C 	0.74332 0.75509 0.06993 -0.03900
C 	C 	0.20320 0.84101 0.06547 -0.05400
C 	C 	0.22579 0.92462 0.06717 0.00600
H 	H 	0.15625 0.02527 0.06842 0.04600
C 	C 	0.12019 0.30292 0.07185 -0.04000
H 	H 	0.57863 0.69531 0.08316 0.03700
C 	C 	0.17316 0.01333 0.08271 -0.07500
H 	H 	0.17415 0.80426 0.07690 0.04400
C 	C 	0.10057 0.26702 0.08982 -0.03400
C 	C 	0.99138 0.28145 0.08548 -0.03300
C 	C 	0.77461 0.76506 0.08847 -0.03100
C 	C 	0.63330 0.71378 0.08458 -0.04000
H 	H 	0.82943 0.78657 0.08991 0.04300
C 	C 	0.21065 0.96309 0.08461 0.03900
C 	C 	0.03648 0.25714 0.09679 -0.00700
H 	H 	0.94153 0.27339 0.09069 0.03900
H 	H 	0.12451 0.08253 0.09773 0.03300
H 	H 	0.13547 0.24771 0.09840 0.03700
C 	C 	0.73550 0.75274 0.10512 -0.00700
C 	C 	0.66467 0.72411 0.10312 -0.03300
C 	C 	0.15552 0.04612 0.09931 -0.01100
C 	C 	0.23286 0.94882 0.10320 -0.06200
H 	H 	0.26290 0.91133 0.10480 0.04500
C 	C 	0.01709 0.22224 0.11558 0.04400
C 	C 	0.76791 0.78317 0.12369 0.04500
H 	H 	0.63408 0.71389 0.11592 0.03800
C 	C 	0.17484 0.02856 0.11791 -0.04200
C 	C 	0.21486 0.98133 0.11979 0.00300
C 	C 	0.00112 0.19245 0.13125 -0.10700
C 	C 	0.79648 0.81314 0.13878 -0.10600
C 	C 	0.14411 0.04710 0.13479 0.05800
H 	H 	0.22997 0.96745 0.13412 0.03500
O 	O 	0.93922 0.08046 0.14980 -0.38700
O 	O 	0.89299 0.90864 0.15408 -0.37000
C 	C 	0.98233 0.15533 0.14975 0.30600
C 	C 	0.11454 0.05855 0.14856 -0.12000
C 	C 	0.83269 0.85389 0.15599 0.29200
C 	C 	0.07415 0.06644 0.16428 0.32300
O 	O 	0.02368 0.00350 0.16933 -0.40700
O 	O 	0.99575 0.20113 0.16573 -0.42000
Ni	Ni	0.92892 0.00489 0.17287 1.09300
O 	O 	0.09649 0.12981 0.17584 -0.40200
O 	O 	0.79938 0.85125 0.17206 -0.41100
Ni	Ni	0.03432 0.17373 0.19107 1.06700
O 	O 	0.95041 0.08283 0.19535 -0.70300
O 	O 	0.92573 0.93341 0.19605 -0.69300
Ni	Ni	0.84048 0.84486 0.19975 1.06900
H 	H 	0.91274 0.10295 0.19632 0.15300
H 	H 	0.96186 0.91073 0.19521 0.15800
O 	O 	0.78305 0.90375 0.21092 -0.40900
Ni	Ni	0.95024 0.01166 0.21844 1.09400
O 	O 	0.08306 0.16187 0.21715 -0.41500
O 	O 	0.85798 0.01525 0.22583 -0.40400
O 	O 	0.87023 0.81550 0.22637 -0.41600
C 	C 	0.80297 0.95119 0.22625 0.32900
C 	C 	0.05543 0.15904 0.23424 0.28900
O 	O 	0.99493 0.10641 0.23731 -0.38300
O 	O 	0.94353 0.93372 0.24044 -0.37600
C 	C 	0.89282 0.86437 0.24179 0.28700
C 	C 	0.75814 0.94068 0.24215 -0.11700
C 	C 	0.72101 0.92850 0.25572 0.05200
H 	H 	0.58540 0.85743 0.25433 0.03900
C 	C 	0.09643 0.20155 0.25069 -0.11000
H 	H 	0.90024 0.72432 0.25388 0.03000
C 	C 	0.87923 0.83022 0.26126 -0.08400
C 	C 	0.89122 0.76008 0.26552 0.01600
C 	C 	0.67712 0.91098 0.27206 -0.00900
C 	C 	0.60715 0.87122 0.26902 -0.03100
C 	C 	0.12821 0.23520 0.26511 0.04100
H 	H 	0.20838 0.38958 0.27021 0.03500
H 	H 	0.85602 0.92865 0.27332 0.03600
H 	H 	0.51122 0.81621 0.28245 0.03900
C 	C 	0.86612 0.87490 0.27645 0.01400
C 	C 	0.70488 0.92787 0.29111 -0.02900
C 	C 	0.56515 0.84771 0.28495 -0.04100
C 	C 	0.16291 0.27351 0.28292 -0.00800
C 	C 	0.19984 0.35584 0.28352 -0.03400
C 	C 	0.89825 0.74023 0.28489 -0.06500
H 	H 	0.91315 0.68970 0.28801 0.04500
H 	H 	0.75901 0.95810 0.29358 0.04100
C 	C 	0.22303 0.39553 0.30145 -0.04100
H 	H 	0.24951 0.45964 0.30184 0.03700
C 	C 	0.87153 0.85397 0.29583 -0.06300
C 	C 	0.89255 0.78997 0.30014 0.02600
C 	C 	0.59290 0.86397 0.30405 0.00400
C 	C 	0.66293 0.90465 0.30706 -0.04000
C 	C 	0.15278 0.23027 0.30019 -0.03300
H 	H 	0.12470 0.16647 0.29982 0.03700
H 	H 	0.86453 0.89109 0.30749 0.04800
H 	H 	0.48662 0.90741 0.31269 0.04700
C 	C 	0.20876 0.35313 0.31889 0.00200
C 	C 	0.17555 0.26990 0.31812 -0.04100
C 	C 	0.92182 0.78517 0.31970 0.00300
C 	C 	0.49535 0.86716 0.32320 -0.06500
C 	C 	0.54855 0.83896 0.32088 0.02700
H 	H 	0.68481 0.91805 0.32174 0.04500
H 	H 	0.15660 0.46365 0.32981 0.04400
C 	C 	0.90403 0.71149 0.32904 -0.04000
C 	C 	0.97559 0.85137 0.32752 -0.03900
H 	H 	0.86167 0.66042 0.32343 0.03900
H 	H 	0.98958 0.90873 0.32056 0.04400
C 	C 	0.45353 0.84391 0.33914 0.01200
C 	C 	0.55936 0.78688 0.33461 -0.06400
H 	H 	0.60003 0.76436 0.33288 0.04800
C 	C 	0.21992 0.39667 0.33780 0.02400
H 	H 	0.16453 0.23650 0.33147 0.03900
H 	H 	0.41246 0.86591 0.34070 0.01700
C 	C 	0.18720 0.45071 0.34128 -0.06500
C 	C 	0.94389 0.70227 0.34479 -0.03200
C 	C 	0.01485 0.84221 0.34336 -0.03200
C 	C 	0.46474 0.79263 0.35306 -0.08300
C 	C 	0.51774 0.76387 0.35064 0.01700
C 	C 	0.25910 0.38009 0.35283 -0.06500
H 	H 	0.28479 0.33865 0.35027 0.04500
C 	C 	0.00098 0.76693 0.35145 -0.00700
H 	H 	0.93226 0.64407 0.35118 0.04100
H 	H 	0.05839 0.89271 0.34862 0.04100
H 	H 	0.52732 0.72463 0.36128 0.04500
C 	C 	0.19230 0.48660 0.35968 0.00600
H 	H 	0.16657 0.52808 0.36211 0.02900
C 	C 	0.05060 0.75374 0.36430 0.04500
H 	H 	0.26713 0.65392 0.37868 0.15200
C 	C 	0.42217 0.77136 0.37035 0.27900
O 	O 	0.39809 0.82429 0.37751 -0.40500
C 	C 	0.22994 0.46857 0.37493 -0.08800
C 	C 	0.26417 0.41592 0.37132 0.01000
C 	C 	0.09407 0.74369 0.37446 -0.11000
O 	O 	0.20212 0.79460 0.39067 -0.41100
Ni	Ni	0.29946 0.79841 0.38485 1.06600
O 	O 	0.42157 0.70958 0.38083 -0.37200
C 	C 	0.14726 0.73243 0.38600 0.29400
H 	H 	0.29375 0.40172 0.38286 0.03500
O 	O 	0.27950 0.68674 0.39084 -0.70800
O 	O 	0.13606 0.66360 0.39442 -0.37100
O 	O 	0.18572 0.53370 0.39921 -0.36900
C 	C 	0.23258 0.50438 0.39458 0.26500
Ni	Ni	0.36092 0.67633 0.40423 1.10100
O 	O 	0.27844 0.50213 0.40781 -0.42300
C 	C 	0.53291 0.92128 0.41199 0.08900
N 	N 	0.55809 0.89515 0.40035 -0.10100
H 	H 	0.44505 0.45621 0.41274 0.03600
N 	N 	0.52428 0.31660 0.41445 -0.11900
Ni	Ni	0.20957 0.64578 0.41176 1.09800
O 	O 	0.32807 0.83582 0.41294 -0.41600
O 	O 	0.43394 0.63709 0.41625 -0.35600
C 	C 	0.38854 0.84361 0.41984 0.29600
O 	O 	0.41336 0.78704 0.41687 -0.36000
N 	N 	0.88129 0.24061 0.42517 -0.11700
C 	C 	0.52388 0.37379 0.42228 0.07100
O 	O 	0.29371 0.64844 0.42667 -0.69700
O 	O 	0.14134 0.60003 0.43293 -0.38300
C 	C 	0.42373 0.58094 0.42934 0.28900
C 	C 	0.43128 0.91924 0.42978 -0.08200
C 	C 	0.54131 0.02342 0.43694 -0.04200
C 	C 	0.50159 0.95406 0.42654 0.03300
H 	H 	0.59560 0.04832 0.43498 0.04500
H 	H 	0.04279 0.38704 0.42614 0.05100
C 	C 	0.91434 0.29911 0.43327 0.08000
C 	C 	0.48007 0.48285 0.42492 -0.01600
C 	C 	0.52337 0.44517 0.43206 0.00300
O 	O 	0.81203 0.38414 0.45051 -0.41300
O 	O 	0.17115 0.49016 0.43507 -0.40500
O 	O 	0.37726 0.57016 0.44240 -0.40200
Ni	Ni	0.27491 0.53958 0.43575 1.06900
H 	H 	0.30617 0.68851 0.43748 0.16700
C 	C 	0.13091 0.52867 0.43980 0.28600
C 	C 	0.40115 0.95841 0.44217 0.01700
C 	C 	0.44052 0.02949 0.45197 -0.02600
C 	C 	0.51155 0.06075 0.44991 -0.05200
H 	H 	0.34697 0.93323 0.44430 0.04100
C 	C 	0.02285 0.41114 0.43804 -0.00900
C 	C 	0.95559 0.37213 0.44338 0.00400
C 	C 	0.56585 0.47705 0.44871 -0.06900
C 	C 	0.47950 0.55273 0.43402 -0.06300
O 	O 	0.56173 0.35522 0.46388 -0.36500
O 	O 	0.54342 0.19240 0.46465 -0.35900
Ni	Ni	0.73586 0.41718 0.45985 1.07000
H 	H 	0.67640 0.27073 0.45666 0.15800
C 	C 	0.59857 0.42865 0.45932 0.27000
C 	C 	0.55558 0.12572 0.46292 0.28500
C 	C 	0.40745 0.06970 0.46408 0.09300
C 	C 	0.92871 0.40476 0.45838 -0.06400
C 	C 	0.06364 0.48288 0.44747 -0.06500
C 	C 	0.56988 0.55105 0.45660 -0.01300
C 	C 	0.52709 0.58917 0.44929 0.00600
O 	O 	0.68504 0.30777 0.46804 -0.69900
O 	O 	0.66095 0.46222 0.46651 -0.40900
O 	O 	0.60052 0.11226 0.47439 -0.41600
C 	C 	0.85610 0.37054 0.46264 0.28700
N 	N 	0.38056 0.10170 0.47370 -0.10900
C 	C 	0.97041 0.47418 0.46846 -0.01600
C 	C 	0.03762 0.51340 0.46309 0.00400
H 	H 	0.60399 0.57710 0.46900 0.04700
C 	C 	0.53137 0.66486 0.45777 0.08700
Ni	Ni	0.59740 0.28942 0.48250 1.10000
O 	O 	0.79578 0.47919 0.48340 -0.39700
O 	O 	0.83603 0.31604 0.47633 -0.37600
H 	H 	0.95011 0.49864 0.48021 0.04300
C 	C 	0.07970 0.58439 0.47382 0.07200
N 	N 	0.53478 0.72552 0.46455 -0.11000
Ni	Ni	0.74129 0.27693 0.48832 1.09900
O 	O 	0.51319 0.26440 0.49859 -0.37400
N 	N 	0.11339 0.64125 0.48242 -0.11700
O 	O 	0.50597 0.13505 0.50268 -0.40600
O 	O 	0.64938 0.24614 0.50123 -0.69700
O 	O 	0.77865 0.22667 0.51055 -0.36800
O 	O 	0.69060 0.10836 0.50603 -0.41100
Ni	Ni	0.60151 0.13151 0.50353 1.06700
C 	C 	0.80757 0.44701 0.49960 0.32300
C 	C 	0.49249 0.19797 0.50861 0.28100
O 	O 	0.76548 0.37806 0.50500 -0.40500
H 	H 	0.65343 0.27261 0.51418 0.15600
C 	C 	0.74250 0.15521 0.51670 0.28400
C 	C 	0.44718 0.19020 0.52504 -0.09100
C 	C 	0.41103 0.24187 0.52704 0.01800
H 	H 	0.41311 0.28520 0.51596 0.04100
C 	C 	0.85557 0.49596 0.51394 -0.10900
C 	C 	0.75548 0.13072 0.53633 -0.10400
H 	H 	0.86464 0.18049 0.53473 0.03500
C 	C 	0.89383 0.53156 0.52710 0.05100
C 	C 	0.70083 0.08913 0.54794 0.02000
C 	C 	0.82210 0.14809 0.54353 0.02500
H 	H 	0.64919 0.07682 0.54268 -0.01300
C 	C 	0.44304 0.13370 0.53945 0.01200
C 	C 	0.37230 0.23791 0.54347 -0.06700
H 	H 	0.47091 0.09381 0.53818 0.00800
H 	H 	0.34498 0.27829 0.54498 0.04700
C 	C 	0.93660 0.56857 0.54385 -0.00700
H 	H 	0.91030 0.67421 0.54357 0.04300
C 	C 	0.83388 0.12159 0.56190 -0.07500
C 	C 	0.40448 0.12995 0.55583 -0.06900
C 	C 	0.36959 0.18254 0.55801 0.02700
H 	H 	0.23297 0.12605 0.56055 0.04000
C 	C 	0.93549 0.64053 0.55161 -0.03000
C 	C 	0.96957 0.52565 0.55436 -0.03000
H 	H 	0.97092 0.47010 0.54842 0.04100
C 	C 	0.71260 0.06329 0.56635 -0.07900
C 	C 	0.77910 0.07822 0.57329 0.03700
H 	H 	0.67004 0.03064 0.57511 0.04200
H 	H 	0.88544 0.13321 0.56712 0.04800
C 	C 	0.33046 0.17936 0.57557 0.00100
C 	C 	0.25958 0.14333 0.57456 -0.04000
H 	H 	0.40213 0.08655 0.56693 0.04400
C 	C 	0.96321 0.66669 0.57030 -0.03800
C 	C 	0.99694 0.55149 0.57310 -0.04200
H 	H 	0.73438 0.92180 0.58251 0.03800
C 	C 	0.22335 0.12494 0.59169 -0.03400
H 	H 	0.16894 0.09366 0.59080 0.03800
C 	C 	0.99192 0.62075 0.58138 -0.00000
H 	H 	0.95956 0.72063 0.57652 0.04400
H 	H 	0.01968 0.51610 0.58145 0.04100
C 	C 	0.79122 0.04368 0.59180 -0.02800
C 	C 	0.76560 0.96058 0.59403 -0.00800
C 	C 	0.36431 0.20217 0.59378 -0.04100
H 	H 	0.41899 0.23079 0.59469 0.03700
H 	H 	0.09576 0.74724 0.59693 0.05200
C 	C 	0.83114 0.09326 0.60690 -0.02400
C 	C 	0.78267 0.92720 0.61075 -0.04900
H 	H 	0.85024 0.15754 0.60546 0.03200
H 	H 	0.76491 0.86284 0.61199 0.04600
C 	C 	0.25779 0.14264 0.60990 -0.00700
C 	C 	0.32805 0.18375 0.61090 -0.03400
C 	C 	0.00964 0.64047 0.60221 0.03300
C 	C 	0.06266 0.71138 0.60778 -0.06500
H 	H 	0.92788 0.53784 0.61236 0.04600
C 	C 	0.84841 0.05971 0.62360 -0.06400
C 	C 	0.82571 0.97653 0.62531 0.02200
C 	C 	0.22293 0.10850 0.62721 0.03800
H 	H 	0.35497 0.19820 0.62492 0.03700
C 	C 	0.96822 0.59349 0.61647 -0.06900
C 	C 	0.07042 0.73873 0.62717 0.01800
C 	C 	0.85569 0.94205 0.64006 0.03700
H 	H 	0.88164 0.09827 0.63482 0.03700
C 	C 	0.19398 0.07692 0.64149 -0.10700
C 	C 	0.02450 0.69580 0.64111 -0.08100
C 	C 	0.97574 0.62093 0.63586 0.01200
H 	H 	0.10918 0.79592 0.63104 0.04600
O 	O 	0.11792 0.96157 0.65555 -0.35400
C 	C 	0.15951 0.03587 0.65813 0.27900
O 	O 	0.97902 0.87783 0.65854 -0.37400
C 	C 	0.88361 0.91302 0.65159 -0.10200
H 	H 	0.94114 0.58618 0.64655 0.02200
O 	O 	0.07168 0.79563 0.66625 -0.39500
C 	C 	0.92062 0.87901 0.66419 0.29500
C 	C 	0.01846 0.73586 0.65948 0.29500
O 	O 	0.95671 0.72800 0.66492 -0.40800
Ni	Ni	0.06090 0.89539 0.67733 1.09900
O 	O 	0.89040 0.83565 0.67886 -0.41100
O 	O 	0.18538 0.06258 0.67560 -0.41300
H 	H 	0.01704 0.01298 0.68107 0.13900
Ni	Ni	0.92864 0.75742 0.69157 1.06300
O 	O 	0.04407 0.99042 0.68953 -0.68800
Ni	Ni	0.12841 0.07349 0.69900 1.05900
Ni	Ni	0.99367 0.93874 0.71305 1.09900
O 	O 	0.01193 0.84371 0.70111 -0.70300
H 	H 	0.04047 0.82336 0.70960 0.15500
O 	O 	0.15835 0.99211 0.71300 -0.41900
O 	O 	0.87412 0.75891 0.71633 -0.40500
O 	O 	0.09649 0.10749 0.72445 -0.41700
O 	O 	0.98164 0.03886 0.72343 -0.39800
C 	C 	0.13377 0.96478 0.72986 0.30700
C 	C 	0.03422 0.10360 0.72804 0.30800
O 	O 	0.92952 0.87387 0.73371 -0.36200
O 	O 	0.07081 0.95528 0.73374 -0.36600
C 	C 	0.90073 0.79565 0.73294 0.29600
C 	C 	0.02627 0.15453 0.74319 -0.10700
C 	C 	0.01867 0.19236 0.75691 0.04500
H 	H 	0.91301 0.23748 0.76366 0.03700
C 	C 	0.22013 0.97662 0.75924 0.04800
C 	C 	0.18027 0.96865 0.74577 -0.10300
H 	H 	0.35568 0.03501 0.75732 0.03700
C 	C 	0.87506 0.75601 0.75071 -0.10300
C 	C 	0.94706 0.24404 0.77621 -0.03900
C 	C 	0.00820 0.23142 0.77423 -0.00300
H 	H 	0.09986 0.23205 0.78908 0.04100
C 	C 	0.33781 0.02613 0.77207 -0.04800
C 	C 	0.26833 0.99090 0.77534 0.00200
C 	C 	0.85352 0.72423 0.76581 0.04200
H 	H 	0.75810 0.57897 0.77036 0.03600
C 	C 	0.92726 0.25897 0.79465 -0.03800
C 	C 	0.05218 0.24094 0.79052 -0.03500
H 	H 	0.87832 0.26449 0.79622 0.03500
C 	C 	0.38421 0.05292 0.78783 -0.04200
C 	C 	0.24568 0.97979 0.79447 -0.00700
H 	H 	0.43773 0.08140 0.78517 0.03600
C 	C 	0.82818 0.68735 0.78399 -0.00600
C 	C 	0.77868 0.61041 0.78401 -0.03400
C 	C 	0.96854 0.26120 0.81119 -0.00400
C 	C 	0.03228 0.25546 0.80897 -0.03500
C 	C 	0.36135 0.04461 0.80697 0.00900
C 	C 	0.29205 0.00649 0.81025 -0.07900
H 	H 	0.19201 0.95277 0.79711 0.03900
C 	C 	0.85394 0.72788 0.80172 -0.03200
C 	C 	0.75656 0.57316 0.80168 -0.04000
H 	H 	0.89185 0.78763 0.80182 0.04400
H 	H 	0.71940 0.51298 0.80156 0.03700
C 	C 	0.94153 0.25921 0.83074 0.02600
H 	H 	0.91883 0.13270 0.83403 0.04500
H 	H 	0.95777 0.38503 0.83181 0.04600
H 	H 	0.06491 0.25836 0.82165 0.04100
C 	C 	0.40966 0.07772 0.82351 0.02700
H 	H 	0.43436 0.20050 0.81512 0.04600
H 	H 	0.27400 0.99934 0.82499 0.06300
C 	C 	0.78399 0.61260 0.81946 0.00200
C 	C 	0.83193 0.69068 0.81940 -0.03900
H 	H 	0.81249 0.48249 0.82941 0.04300
C 	C 	0.91570 0.18657 0.84046 -0.06900
C 	C 	0.93771 0.32867 0.83921 -0.06800
C 	C 	0.42179 0.02657 0.83721 -0.08600
C 	C 	0.44378 0.16054 0.82559 -0.06700
C 	C 	0.49032 0.19192 0.84115 0.01200
H 	H 	0.39546 0.96259 0.83576 0.06400
C 	C 	0.78853 0.50338 0.84091 -0.06600
C 	C 	0.76863 0.56901 0.83792 0.02600
H 	H 	0.85361 0.72156 0.83302 0.04300
C 	C 	0.88399 0.18282 0.85820 0.00900
C 	C 	0.90649 0.32519 0.85702 0.01000
H 	H 	0.86324 0.12612 0.86540 0.03000
H 	H 	0.90261 0.37902 0.86322 0.03600
C 	C 	0.50323 0.14068 0.85472 -0.08800
C 	C 	0.46830 0.05782 0.85275 0.02100
H 	H 	0.51703 0.25586 0.84248 0.02900
C 	C 	0.77959 0.46603 0.85891 0.00900
C 	C 	0.73769 0.59555 0.85296 -0.06500
H 	H 	0.79642 0.41635 0.86108 0.01900
H 	H 	0.72186 0.64601 0.85076 0.04900
C 	C 	0.55458 0.17329 0.87058 0.28000
C 	C 	0.87807 0.25185 0.86640 -0.09600
H 	H 	0.47707 0.01766 0.86328 0.03800
C 	C 	0.75052 0.49379 0.87420 -0.09000
C 	C 	0.72844 0.55789 0.87103 0.01500
O 	O 	0.70349 0.27590 0.89046 -0.70700
O 	O 	0.85074 0.30968 0.89534 -0.36700
O 	O 	0.78920 0.17908 0.88796 -0.41000
Ni	Ni	0.68740 0.16419 0.88420 1.06600
O 	O 	0.55680 0.23848 0.88011 -0.37600
H 	H 	0.71187 0.30726 0.87840 0.15100
C 	C 	0.83778 0.24667 0.88385 0.27900
C 	C 	0.74832 0.45934 0.89375 0.26900
O 	O 	0.58558 0.12727 0.87800 -0.40600
N 	N 	0.57976 0.95577 0.88598 -0.12400
H 	H 	0.70595 0.58000 0.88267 0.03500
Ni	Ni	0.77654 0.32332 0.91193 1.09700
Ni	Ni	0.62193 0.28084 0.90357 1.09900
O 	O 	0.79659 0.43294 0.89934 -0.37000
O 	O 	0.70245 0.46159 0.90615 -0.42200
C 	C 	0.56709 0.96438 0.90195 0.07600
H 	H 	0.53065 0.49084 0.90614 0.03700
C 	C 	0.44970 0.57317 0.91205 0.07500
N 	N 	0.44675 0.62557 0.90283 -0.11600
O 	O 	0.67153 0.13139 0.91256 -0.41500
O 	O 	0.69348 0.31929 0.92614 -0.69800
O 	O 	0.54718 0.31214 0.91600 -0.35900
C 	C 	0.61367 0.12260 0.92051 0.28900
O 	O 	0.58045 0.16999 0.91594 -0.36300
H 	H 	0.93725 0.58932 0.92825 0.05300
C 	C 	0.06718 0.67898 0.93547 0.08100
N 	N 	0.09786 0.73698 0.92763 -0.11200
C 	C 	0.50743 0.90912 0.93170 -0.01100
C 	C 	0.55125 0.97476 0.92190 0.02300
H 	H 	0.48487 0.85191 0.92410 0.05200
C 	C 	0.49731 0.46899 0.91821 -0.01700
C 	C 	0.45339 0.50779 0.92356 0.00400
O 	O 	0.81302 0.48200 0.93506 -0.40400
O 	O 	0.84629 0.37453 0.93382 -0.38400
O 	O 	0.60742 0.40092 0.93980 -0.40100
Ni	Ni	0.70938 0.42997 0.93442 1.06800
H 	H 	0.68480 0.28258 0.93726 0.16300
C 	C 	0.55821 0.37793 0.92641 0.28500
C 	C 	0.85500 0.44624 0.94067 0.28500
O 	O 	0.42000 0.61130 0.95250 -0.37000
O 	O 	0.44527 0.77562 0.95768 -0.36300
Ni	Ni	0.24876 0.55481 0.95434 1.07000
H 	H 	0.30805 0.70144 0.95330 0.16300
C 	C 	0.38263 0.53578 0.94934 0.27000
O 	O 	0.17125 0.59336 0.94884 -0.41100
C 	C 	0.92243 0.49549 0.94907 -0.06300
C 	C 	0.96033 0.56676 0.94000 -0.01400
C 	C 	0.02888 0.60659 0.94526 0.00900
C 	C 	0.49181 0.91719 0.95116 -0.06300
C 	C 	0.57887 0.05006 0.93150 -0.07800
C 	C 	0.56540 0.05755 0.95112 -0.02000
C 	C 	0.50084 0.40464 0.92898 -0.06100
C 	C 	0.41354 0.48297 0.94014 -0.06600
C 	C 	0.45527 0.37403 0.94409 0.00600
Ni	Ni	0.39983 0.67652 0.97451 1.10000
O 	O 	0.30529 0.66254 0.96368 -0.70200
O 	O 	0.32340 0.50467 0.95750 -0.41100
O 	O 	0.40336 0.85785 0.97379 -0.40700
C 	C 	0.13420 0.60590 0.96278 0.28900
C 	C 	0.44411 0.84738 0.96107 0.29500
C 	C 	0.05998 0.57526 0.95984 -0.06600
C 	C 	0.02080 0.50779 0.97000 -0.01000
C 	C 	0.95228 0.46765 0.96468 -0.00100
C 	C 	0.52332 0.99149 0.96114 0.01600
H 	H 	0.58732 0.11515 0.95859 0.03700
C 	C 	0.41192 0.41338 0.94961 -0.01400
H 	H 	0.37969 0.39237 0.96194 0.04500
C 	C 	0.45421 0.30375 0.95437 0.08500
Ni	Ni	0.26271 0.69073 0.98705 1.09900
O 	O 	0.19845 0.49062 0.97776 -0.39700
O 	O 	0.16221 0.65570 0.97769 -0.37500
O 	O 	0.49230 0.69629 0.98726 -0.37400
H 	H 	0.04429 0.48479 0.98156 0.04100
C 	C 	0.91299 0.39812 0.97531 0.07100
N 	N 	0.88154 0.34242 0.98383 -0.12100
C 	C 	0.51490 0.99996 0.98177 0.08400
N 	N 	0.45339 0.24744 0.96260 -0.11400
O 	O 	0.50550 0.82225 0.99828 -0.40100
O 	O 	0.36077 0.71671 0.99687 -0.69700
C 	C 	0.19873 0.51890 0.99558 0.30400
C 	C 	0.51750 0.75508 0.00022 0.27600
H 	H 	0.17219 0.35983 0.99984 0.03500
N 	N 	0.50824 0.00692 0.99830 -0.16100
