data_crystal

_cell_length_a 18.47631
_cell_length_b 18.85058
_cell_length_c 33.58294
_cell_angle_alpha 95.41505
_cell_angle_beta  95.41572
_cell_angle_gamma 126.40061

_symmetry_space_group_name_	'P 1'
_symmetry_space_group_name_H-M	'P 1'

loop_
_symmetry_equiv_pos_as_xyz
  x,y,z

loop_
_atom_site_label
_atom_site_type_symbol
_atom_site_fract_x
_atom_site_fract_y
_atom_site_fract_z
_atom_site_charge
C 	C 	0.90463 0.99099 0.95672 0.29400
N 	N 	0.99539 0.04373 0.95564 -0.12900
C 	C 	0.04119 0.00824 0.95505 0.26600
N 	N 	0.99626 0.91969 0.95518 -0.11500
C 	C 	0.90571 0.86626 0.95644 0.26900
N 	N 	0.85956 0.90198 0.95763 -0.11200
C 	C 	0.94613 0.03807 0.50599 0.25700
N 	N 	0.89217 0.94892 0.50672 -0.10600
C 	C 	0.92901 0.90462 0.50783 0.27400
N 	N 	0.01961 0.94929 0.50832 -0.10300
C 	C 	0.07365 0.03806 0.50727 0.26000
N 	N 	0.03689 0.08261 0.50584 -0.10700
Cu	Cu	0.75918 0.34102 0.95742 0.93100
Cu	Cu	0.75388 0.28099 0.04646 0.90400
Cu	Cu	0.61134 0.29299 0.00789 0.92000
Cu	Cu	0.58855 0.33302 0.92515 0.91800
C 	C 	0.69734 0.31205 0.87126 0.26800
O 	O 	0.81162 0.47185 0.95545 -0.32000
C 	C 	0.67151 0.33003 0.09778 0.26600
O 	O 	0.61642 0.26671 0.95199 -0.64000
O 	O 	0.74643 0.35723 0.01474 -0.62700
O 	O 	0.82009 0.28126 0.96329 -0.32100
O 	O 	0.72339 0.19044 0.00312 -0.37400
O 	O 	0.65748 0.34952 0.88005 -0.32500
O 	O 	0.47949 0.22388 0.99757 -0.35200
C 	C 	0.42981 0.22268 0.96612 0.40300
C 	C 	0.76868 0.50460 0.96675 0.37700
O 	O 	0.68409 0.44967 0.97211 -0.36100
O 	O 	0.46754 0.27993 0.94109 -0.34400
O 	O 	0.74744 0.30721 0.90004 -0.29700
C 	C 	0.78150 0.20769 0.97895 0.36900
O 	O 	0.60424 0.29861 0.06658 -0.32300
O 	O 	0.74792 0.34282 0.09263 -0.35500
H 	H 	0.57798 0.20189 0.94013 0.19800
H 	H 	0.78288 0.42044 0.02892 0.21100
Cu	Cu	0.61573 0.20737 0.50808 0.93700
Cu	Cu	0.67367 0.20959 0.41854 0.90200
Cu	Cu	0.66024 0.34966 0.45646 0.91200
Cu	Cu	0.61914 0.37178 0.53937 0.92000
C 	C 	0.65418 0.27545 0.59386 0.26600
O 	O 	0.48340 0.15262 0.51100 -0.32200
C 	C 	0.62341 0.28950 0.36670 0.26600
O 	O 	0.68869 0.34693 0.51251 -0.63500
O 	O 	0.59656 0.21756 0.45049 -0.63400
O 	O 	0.67284 0.14548 0.50180 -0.32800
O 	O 	0.76597 0.23831 0.46163 -0.39000
O 	O 	0.61080 0.30976 0.58564 -0.32000
O 	O 	0.72797 0.47855 0.46634 -0.34000
C 	C 	0.72506 0.52567 0.49700 0.40400
C 	C 	0.44673 0.19109 0.49913 0.38600
O 	O 	0.49965 0.27391 0.49337 -0.35600
O 	O 	0.66547 0.48678 0.52133 -0.34200
O 	O 	0.65264 0.22077 0.56546 -0.29800
C 	C 	0.74725 0.18154 0.48606 0.38700
O 	O 	0.65395 0.35544 0.39765 -0.32600
O 	O 	0.60991 0.21466 0.37236 -0.35800
H 	H 	0.75495 0.38601 0.52426 0.19900
H 	H 	0.53173 0.18069 0.43662 0.20700
C 	C 	0.70512 0.33274 0.69887 0.14000
C 	C 	0.74997 0.38492 0.73803 -0.06900
C 	C 	0.71451 0.34282 0.77097 0.03900
C 	C 	0.64809 0.25203 0.76607 0.13300
C 	C 	0.61047 0.19813 0.72701 -0.06200
C 	C 	0.63622 0.24253 0.69381 0.03100
O 	O 	0.73882 0.36075 0.66378 -0.16100
C 	C 	0.68130 0.27799 0.63669 0.08200
C 	C 	0.62364 0.20618 0.65521 -0.03600
O 	O 	0.63973 0.21868 0.80188 -0.15800
C 	C 	0.70732 0.29957 0.82895 0.08600
C 	C 	0.75568 0.37298 0.81006 -0.04800
H 	H 	0.81017 0.45423 0.74258 0.11200
H 	H 	0.56468 0.12562 0.72280 0.10700
H 	H 	0.56220 0.14166 0.63947 0.10600
H 	H 	0.79651 0.44253 0.82521 0.11700
C 	C 	0.59959 0.26302 0.26156 0.13100
C 	C 	0.55871 0.22737 0.22025 -0.06700
C 	C 	0.61257 0.27310 0.19170 0.02500
C 	C 	0.69635 0.35551 0.20300 0.13200
C 	C 	0.73234 0.39615 0.24426 -0.06700
C 	C 	0.68446 0.34440 0.27288 0.02500
O 	O 	0.55178 0.23333 0.29319 -0.15600
C 	C 	0.61758 0.30501 0.32493 0.07100
C 	C 	0.69474 0.37405 0.31230 -0.04200
O 	O 	0.72829 0.40138 0.17119 -0.15500
C 	C 	0.65524 0.33703 0.13938 0.07200
C 	C 	0.58347 0.26248 0.15208 -0.04100
H 	H 	0.48822 0.16807 0.21091 0.10100
H 	H 	0.79356 0.46488 0.25350 0.10200
H 	H 	0.76001 0.42551 0.33204 0.08500
H 	H 	0.53053 0.19844 0.13248 0.08600
C 	C 	0.81059 0.74927 0.47004 0.26400
C 	C 	0.87055 0.80780 0.50631 -0.13200
C 	C 	0.88238 0.77334 0.53944 0.26800
C 	C 	0.83555 0.68102 0.53617 0.29600
C 	C 	0.77713 0.62259 0.49962 -0.20100
C 	C 	0.76424 0.65693 0.46664 0.30000
F 	F 	0.70595 0.60067 0.43152 -0.36400
F 	F 	0.79926 0.78224 0.43776 -0.34900
F 	F 	0.84777 0.64824 0.56833 -0.37600
F 	F 	0.94028 0.82962 0.57463 -0.33700
C 	C 	0.81754 0.12921 0.52983 0.29600
C 	C 	0.80446 0.15136 0.49236 -0.20100
C 	C 	0.84462 0.14256 0.46051 0.29200
C 	C 	0.89523 0.10999 0.46583 0.26400
C 	C 	0.90506 0.08459 0.50267 -0.12900
C 	C 	0.86708 0.09536 0.53482 0.26100
F 	F 	0.87748 0.07213 0.57080 -0.35300
F 	F 	0.78258 0.14082 0.56142 -0.36800
F 	F 	0.93151 0.09948 0.43454 -0.34400
F 	F 	0.83154 0.16214 0.42388 -0.39400
C 	C 	0.20724 0.12095 0.47282 0.26200
C 	C 	0.17124 0.08490 0.50692 -0.13000
C 	C 	0.22554 0.08236 0.53807 0.26000
C 	C 	0.31451 0.11412 0.53486 0.29300
C 	C 	0.35017 0.14896 0.50046 -0.20300
C 	C 	0.29630 0.15270 0.46955 0.29400
F 	F 	0.33005 0.18628 0.43616 -0.37300
F 	F 	0.15479 0.12239 0.44222 -0.34200
F 	F 	0.36708 0.11350 0.56573 -0.37500
F 	F 	0.19165 0.04857 0.57140 -0.34700
C 	C 	0.83720 0.63282 0.92949 0.29100
C 	C 	0.80726 0.59876 0.96485 -0.19500
C 	C 	0.80135 0.65006 0.99576 0.28000
C 	C 	0.82688 0.73517 0.99168 0.25200
C 	C 	0.85860 0.76992 0.95668 -0.12600
C 	C 	0.86232 0.71766 0.92537 0.26100
F 	F 	0.89204 0.74998 0.89119 -0.34500
F 	F 	0.83958 0.58272 0.89858 -0.38000
F 	F 	0.82412 0.78524 0.02244 -0.32600
F 	F 	0.77156 0.61772 0.02992 -0.35800
C 	C 	0.83590 0.04675 0.99715 0.22900
C 	C 	0.85741 0.03225 0.95976 -0.13500
C 	C 	0.85120 0.07330 0.92808 0.25900
C 	C 	0.82659 0.13057 0.93420 0.30100
C 	C 	0.80864 0.14797 0.97222 -0.21900
C 	C 	0.81259 0.10487 0.00356 0.33100
F 	F 	0.79705 0.12178 0.04074 -0.39600
F 	F 	0.84250 0.00836 0.02813 -0.33100
F 	F 	0.81970 0.16854 0.90310 -0.36700
F 	F 	0.87127 0.05941 0.89164 -0.35400
C 	C 	0.17704 0.05405 0.92470 0.24900
C 	C 	0.14029 0.06644 0.95696 -0.12700
C 	C 	0.19891 0.13049 0.99223 0.24900
C 	C 	0.29371 0.18095 0.99546 0.28900
C 	C 	0.33047 0.16814 0.96328 -0.20200
C 	C 	0.27185 0.10513 0.92776 0.29900
F 	F 	0.30690 0.09265 0.89643 -0.38100
F 	F 	0.12074 0.99234 0.89045 -0.32200
F 	F 	0.34995 0.24304 0.02963 -0.35200
F 	F 	0.16383 0.14240 0.02370 -0.33800
