data_crystal

_cell_length_a 22.02063
_cell_length_b 19.21828
_cell_length_c 47.91793
_cell_angle_alpha 90.62722
_cell_angle_beta  91.17888
_cell_angle_gamma 110.68901

_symmetry_space_group_name_	'P 1'
_symmetry_space_group_name_H-M	'P 1'

loop_
_symmetry_equiv_pos_as_xyz
  x,y,z

loop_
_atom_site_label
_atom_site_type_symbol
_atom_site_fract_x
_atom_site_fract_y
_atom_site_fract_z
_atom_site_charge
Ni	Ni	0.55470 0.27080 0.87513 1.09700
O 	O 	0.60121 0.38028 0.86626 -0.70800
Ni	Ni	0.68570 0.37804 0.85310 1.09900
O 	O 	0.47452 0.29195 0.88759 -0.37500
O 	O 	0.53640 0.37967 0.91911 -0.41300
O 	O 	0.51972 0.25937 0.83506 -0.40200
Ni	Ni	0.61940 0.44574 0.89890 1.06300
O 	O 	0.58665 0.10939 0.86914 -0.40600
O 	O 	0.66711 0.38778 0.91982 -0.42000
O 	O 	0.72299 0.48688 0.84262 -0.38100
O 	O 	0.64305 0.27121 0.86647 -0.70300
O 	O 	0.50882 0.15912 0.88078 -0.38900
O 	O 	0.75945 0.35813 0.83307 -0.37200
O 	O 	0.68859 0.25577 0.81018 -0.41500
Ni	Ni	0.63316 0.18744 0.84069 1.06900
H 	H 	0.57858 0.39790 0.85139 0.15700
H 	H 	0.66423 0.26356 0.88399 0.15400
C 	C 	0.72699 0.39591 0.91400 0.29900
O 	O 	0.54861 0.16536 0.81734 -0.39500
C 	C 	0.48004 0.34456 0.90630 0.28000
C 	C 	0.72497 0.54000 0.86082 0.27500
C 	C 	0.50488 0.19662 0.82105 0.30400
C 	C 	0.74848 0.30096 0.81588 0.27000
C 	C 	0.54059 0.11348 0.88593 0.28600
O 	O 	0.74634 0.40523 0.88808 -0.37100
O 	O 	0.70575 0.52365 0.88685 -0.40800
Ni	Ni	0.65095 0.31820 0.62168 1.09700
O 	O 	0.71634 0.32480 0.59135 -0.70400
Ni	Ni	0.77360 0.27782 0.61055 1.10000
O 	O 	0.60210 0.37003 0.59743 -0.36300
O 	O 	0.69492 0.46769 0.58942 -0.41400
O 	O 	0.59276 0.21861 0.60345 -0.37300
Ni	Ni	0.76880 0.42680 0.58224 1.06600
O 	O 	0.56811 0.18038 0.65462 -0.41100
O 	O 	0.79973 0.45162 0.62261 -0.42200
O 	O 	0.83018 0.28153 0.57705 -0.37300
O 	O 	0.71337 0.28105 0.64263 -0.69700
O 	O 	0.58562 0.30457 0.65248 -0.39400
O 	O 	0.81451 0.20708 0.62840 -0.36500
O 	O 	0.74386 0.15526 0.66278 -0.41000
Ni	Ni	0.66128 0.18098 0.65516 1.06600
H 	H 	0.69567 0.29653 0.57418 0.15400
H 	H 	0.73581 0.31497 0.65831 0.16000
C 	C 	0.84815 0.43396 0.63239 0.29300
O 	O 	0.64942 0.14273 0.61485 -0.42100
C 	C 	0.63422 0.42832 0.58272 0.28100
C 	C 	0.84820 0.34137 0.56161 0.28600
C 	C 	0.61319 0.16373 0.59694 0.27700
C 	C 	0.78195 0.14856 0.64299 0.28600
C 	C 	0.54962 0.23738 0.65997 0.28900
O 	O 	0.84911 0.36639 0.62828 -0.36800
O 	O 	0.85020 0.40585 0.57219 -0.41300
Ni	Ni	0.00837 0.99809 0.74380 1.09600
O 	O 	0.05265 0.92467 0.73403 -0.70600
Ni	Ni	0.08342 0.95517 0.69535 1.09400
O 	O 	0.97200 0.94519 0.78022 -0.37900
O 	O 	0.92168 0.83779 0.75557 -0.42200
O 	O 	0.09144 0.06644 0.76509 -0.36500
Ni	Ni	0.99653 0.81952 0.73483 1.06400
O 	O 	0.04966 0.16853 0.73903 -0.39900
O 	O 	0.94144 0.80783 0.69862 -0.39000
O 	O 	0.12045 0.87351 0.68627 -0.37600
O 	O 	0.03709 0.02907 0.70465 -0.68100
O 	O 	0.96161 0.07005 0.75119 -0.38400
O 	O 	0.12980 0.01224 0.66154 -0.36700
O 	O 	0.13716 0.13215 0.66887 -0.39400
Ni	Ni	0.08981 0.13585 0.70565 1.07100
H 	H 	0.09078 0.93244 0.74662 0.15000
H 	H 	0.99842 0.02095 0.69240 0.14400
C 	C 	0.94876 0.86348 0.68179 0.26200
O 	O 	0.15983 0.11662 0.72905 -0.41600
C 	C 	0.93179 0.87585 0.77915 0.27200
C 	C 	0.08759 0.80364 0.69288 0.28800
C 	C 	0.15023 0.08949 0.75437 0.26800
C 	C 	0.16518 0.08317 0.66438 0.28000
C 	C 	0.98714 0.13957 0.74390 0.26800
O 	O 	0.00502 0.89743 0.67082 -0.37500
O 	O 	0.06675 0.78708 0.71841 -0.41500
Ni	Ni	0.25138 0.69806 0.38780 1.09900
O 	O 	0.33557 0.75274 0.36807 -0.70700
Ni	Ni	0.40081 0.73125 0.39264 1.10000
O 	O 	0.20017 0.73167 0.35798 -0.36900
O 	O 	0.26052 0.85449 0.36700 -0.40900
O 	O 	0.24707 0.60899 0.36278 -0.38600
Ni	Ni	0.35742 0.85987 0.36750 1.06300
O 	O 	0.21247 0.60913 0.44600 -0.41300
O 	O 	0.35853 0.87474 0.41003 -0.41100
O 	O 	0.47792 0.77736 0.36793 -0.37300
O 	O 	0.31867 0.69223 0.41582 -0.69900
O 	O 	0.16537 0.63574 0.40593 -0.37100
O 	O 	0.45441 0.68514 0.41718 -0.37000
O 	O 	0.37156 0.57357 0.41587 -0.41500
Ni	Ni	0.29086 0.59208 0.43057 1.08100
H 	H 	0.33584 0.73280 0.34895 0.15500
H 	H 	0.31983 0.72679 0.43139 0.15900
C 	C 	0.40276 0.86381 0.42641 0.29200
O 	O 	0.23414 0.52959 0.39888 -0.40200
C 	C 	0.21160 0.80280 0.35370 0.26600
C 	C 	0.48620 0.84248 0.35655 0.26800
C 	C 	0.24505 0.54451 0.37249 0.28900
C 	C 	0.42935 0.61577 0.42525 0.28800
C 	C 	0.16071 0.60221 0.43025 0.29600
O 	O 	0.43751 0.82560 0.41734 -0.37000
O 	O 	0.45652 0.88644 0.36674 -0.40300
Ni	Ni	0.34148 0.66529 0.08992 1.09700
O 	O 	0.25692 0.62641 0.06676 -0.70500
Ni	Ni	0.20998 0.68996 0.08172 1.10200
O 	O 	0.37574 0.59054 0.07114 -0.36600
O 	O 	0.28568 0.49530 0.08342 -0.41100
O 	O 	0.38265 0.74027 0.05861 -0.36700
Ni	Ni	0.20471 0.52346 0.07478 1.06800
O 	O 	0.43385 0.82453 0.10315 -0.41200
O 	O 	0.20235 0.54541 0.11638 -0.41600
O 	O 	0.13291 0.65100 0.05430 -0.37000
O 	O 	0.28953 0.71927 0.10895 -0.69600
O 	O 	0.42447 0.70620 0.11393 -0.38800
O 	O 	0.17626 0.77460 0.09091 -0.36300
O 	O 	0.26164 0.85243 0.11667 -0.41000
Ni	Ni	0.34193 0.82502 0.10777 1.06700
H 	H 	0.26387 0.63358 0.04649 0.15800
H 	H 	0.27901 0.70219 0.12826 0.15900
C 	C 	0.16115 0.57452 0.12576 0.28800
O 	O 	0.32572 0.81837 0.06586 -0.43400
C 	C 	0.33726 0.52076 0.06807 0.29300
C 	C 	0.10445 0.57855 0.04982 0.28100
C 	C 	0.36073 0.79243 0.04966 0.28600
C 	C 	0.21286 0.84251 0.09896 0.28800
C 	C 	0.45689 0.77804 0.11567 0.28300
O 	O 	0.15053 0.62818 0.11212 -0.36500
O 	O 	0.11544 0.53089 0.06721 -0.41000
Ni	Ni	0.89329 0.01498 0.23449 1.09700
O 	O 	0.95840 0.03623 0.20347 -0.71300
Ni	Ni	0.03107 0.12167 0.22025 1.10400
O 	O 	0.82943 0.92956 0.21106 -0.37300
O 	O 	0.83082 0.01038 0.17599 -0.41100
O 	O 	0.94059 0.94804 0.24994 -0.38300
Ni	Ni	0.92951 0.06738 0.16893 1.06200
O 	O 	0.87457 0.09673 0.29395 -0.41800
O 	O 	0.91764 0.16013 0.18570 -0.41500
O 	O 	0.09557 0.12517 0.19030 -0.37200
O 	O 	0.95790 0.11378 0.24744 -0.70300
O 	O 	0.83191 0.98836 0.26744 -0.37900
O 	O 	0.10513 0.19392 0.24443 -0.36500
O 	O 	0.06790 0.13245 0.28433 -0.41200
Ni	Ni	0.96932 0.11000 0.28794 1.06700
H 	H 	0.97290 0.99378 0.19989 0.15500
H 	H 	0.93883 0.15227 0.24352 0.14900
C 	C 	0.96754 0.21973 0.19275 0.28100
O 	O 	0.95109 0.99949 0.29351 -0.39700
C 	C 	0.80657 0.94330 0.18684 0.26400
C 	C 	0.07454 0.11379 0.16397 0.27400
C 	C 	0.96737 0.95863 0.27514 0.27800
C 	C 	0.10362 0.19303 0.27178 0.28100
C 	C 	0.82469 0.03712 0.28554 0.28400
O 	O 	0.02196 0.21379 0.20203 -0.36300
O 	O 	0.02143 0.12670 0.15575 -0.39700
C 	C 	0.96860 0.29365 0.18429 -0.09100
C 	C 	0.93925 0.30121 0.15875 0.01500
C 	C 	0.96343 0.36771 0.14418 -0.07800
C 	C 	0.01787 0.42625 0.15483 0.03400
C 	C 	0.04163 0.42215 0.18216 0.00400
C 	C 	0.01389 0.35714 0.19739 0.00200
C 	C 	0.09815 0.47861 0.19230 -0.05000
C 	C 	0.13521 0.53327 0.17433 0.00400
C 	C 	0.11457 0.53371 0.14649 -0.06800
C 	C 	0.05353 0.48383 0.13744 -0.02700
H 	H 	0.90174 0.25375 0.14904 0.02500
H 	H 	0.94313 0.37142 0.12368 0.04400
H 	H 	0.03350 0.35275 0.21797 0.03700
H 	H 	0.11588 0.47707 0.21347 0.04300
H 	H 	0.18160 0.57282 0.18162 0.02600
H 	H 	0.03697 0.48546 0.11605 0.05000
C 	C 	0.74253 0.89251 0.17619 -0.06900
C 	C 	0.69710 0.84687 0.19458 0.00200
C 	C 	0.63247 0.81049 0.18572 -0.05700
C 	C 	0.61235 0.82003 0.15849 0.01200
C 	C 	0.65849 0.86297 0.13955 0.01300
C 	C 	0.72361 0.89740 0.14831 -0.02300
C 	C 	0.63834 0.87395 0.11252 -0.05800
C 	C 	0.57261 0.84520 0.10468 0.00700
C 	C 	0.52631 0.80406 0.12360 -0.07200
C 	C 	0.54636 0.78982 0.15026 -0.02300
H 	H 	0.71112 0.84196 0.21607 0.04100
H 	H 	0.59771 0.77694 0.20033 0.04000
H 	H 	0.75890 0.93093 0.13385 0.02800
H 	H 	0.67341 0.90622 0.09776 0.04000
H 	H 	0.55752 0.85530 0.08391 0.04200
H 	H 	0.51060 0.75751 0.16478 0.03300
C 	C 	0.18458 0.90167 0.09736 -0.06900
C 	C 	0.11949 0.88444 0.08852 0.00300
C 	C 	0.08677 0.93261 0.09513 -0.05300
C 	C 	0.11868 0.99789 0.11080 0.00100
C 	C 	0.18622 0.01996 0.11642 0.02300
C 	C 	0.21936 0.97283 0.10863 -0.02600
C 	C 	0.21789 0.08437 0.13260 -0.06300
C 	C 	0.18163 0.12057 0.14619 0.01200
C 	C 	0.11366 0.09354 0.14317 -0.08000
C 	C 	0.08302 0.03650 0.12359 -0.01600
H 	H 	0.09318 0.83195 0.07797 0.04700
H 	H 	0.03563 0.91682 0.08961 0.03900
H 	H 	0.27085 0.98872 0.11353 0.03300
H 	H 	0.27002 0.10345 0.13619 0.04300
H 	H 	0.20598 0.16693 0.16032 0.04000
H 	H 	0.03067 0.01731 0.12055 0.01500
C 	C 	0.54185 0.87493 0.33854 -0.07100
C 	C 	0.54575 0.83862 0.31349 -0.00100
C 	C 	0.59994 0.86735 0.29681 -0.05700
C 	C 	0.65149 0.93188 0.30538 0.01400
C 	C 	0.64756 0.96909 0.33049 0.01200
C 	C 	0.59224 0.94088 0.34681 -0.01900
C 	C 	0.69986 0.03255 0.33937 -0.05600
C 	C 	0.75685 0.05688 0.32413 0.00300
C 	C 	0.76185 0.01850 0.29962 -0.07100
C 	C 	0.70789 0.95793 0.28972 -0.02100
H 	H 	0.50680 0.78793 0.30697 0.02200
H 	H 	0.60237 0.83858 0.27752 0.04100
H 	H 	0.58918 0.96881 0.36625 0.04600
H 	H 	0.69706 0.06201 0.35844 0.04200
H 	H 	0.79754 0.10444 0.33177 0.03200
H 	H 	0.71057 0.92961 0.27033 0.04600
C 	C 	0.23507 0.48213 0.35287 -0.07400
C 	C 	0.26355 0.42892 0.35877 0.00100
C 	C 	0.24454 0.36190 0.34357 -0.05500
C 	C 	0.19659 0.34726 0.32237 0.00800
C 	C 	0.16975 0.40204 0.31559 0.01500
C 	C 	0.18964 0.46954 0.33072 -0.01900
C 	C 	0.12183 0.38752 0.29438 -0.06200
C 	C 	0.10002 0.31886 0.28031 0.00100
C 	C 	0.12587 0.26402 0.28722 -0.09700
C 	C 	0.17418 0.27820 0.30820 -0.01500
H 	H 	0.29903 0.43861 0.37575 0.03300
H 	H 	0.26609 0.32078 0.34871 0.04200
H 	H 	0.16744 0.51053 0.32622 0.04800
H 	H 	0.10107 0.42914 0.28895 0.04300
H 	H 	0.06254 0.30793 0.26413 0.01800
H 	H 	0.19437 0.23583 0.31336 0.03600
C 	C 	0.15813 0.82395 0.34248 -0.06600
C 	C 	0.11103 0.83059 0.36050 0.00800
C 	C 	0.06104 0.85300 0.35036 -0.05400
C 	C 	0.05775 0.86939 0.32203 0.01100
C 	C 	0.10420 0.86120 0.30360 0.01600
C 	C 	0.15431 0.83828 0.31395 -0.02500
C 	C 	0.10080 0.87778 0.27526 -0.05800
C 	C 	0.05348 0.90550 0.26557 0.00400
C 	C 	0.00894 0.91669 0.28407 -0.06800
C 	C 	0.00991 0.89621 0.31209 -0.00900
H 	H 	0.11349 0.81892 0.38249 0.03400
H 	H 	0.02540 0.85859 0.36463 0.04600
H 	H 	0.19052 0.83259 0.29999 0.02700
H 	H 	0.13566 0.87091 0.26086 0.04100
H 	H 	0.05307 0.92093 0.24391 0.02600
H 	H 	0.97474 0.90332 0.32631 0.03900
C 	C 	0.46504 0.91315 0.50070 -0.07200
C 	C 	0.48118 0.99038 0.50089 0.00500
C 	C 	0.46479 0.02498 0.47761 0.00300
C 	C 	0.43479 0.98219 0.45395 -0.00900
C 	C 	0.42155 0.90515 0.45321 -0.09200
C 	C 	0.43498 0.87029 0.47719 0.06200
C 	C 	0.51499 0.03439 0.52567 0.01900
S 	S 	0.48218 0.12173 0.47774 -0.04400
H 	H 	0.42416 0.00926 0.43573 0.04000
S 	S 	0.41310 0.77301 0.47835 -0.08200
H 	H 	0.47614 0.88639 0.51892 0.05300
C 	C 	0.47971 0.04373 0.54868 -0.00900
C 	C 	0.51269 0.08261 0.57248 0.00100
C 	C 	0.58073 0.11383 0.57344 -0.09000
C 	C 	0.61613 0.10347 0.55058 0.05200
C 	C 	0.58307 0.06356 0.52687 -0.07300
S 	S 	0.39420 0.00789 0.54778 -0.03400
H 	H 	0.48538 0.08967 0.59014 0.04200
S 	S 	0.70154 0.14129 0.55110 -0.07200
H 	H 	0.61026 0.05552 0.50929 0.05500
H 	H 	0.46507 0.75378 0.47117 0.05400
H 	H 	0.37304 0.93619 0.55695 0.03200
H 	H 	0.72109 0.20891 0.53839 0.02500
H 	H 	0.43194 0.13703 0.48946 0.03900
C 	C 	0.97867 0.37364 0.50997 -0.09500
C 	C 	0.95143 0.40287 0.48841 0.02700
C 	C 	0.88423 0.38882 0.48777 -0.01300
C 	C 	0.84731 0.35643 0.51074 -0.00600
C 	C 	0.87744 0.34011 0.53456 -0.10300
C 	C 	0.94214 0.34310 0.53327 0.06900
C 	C 	0.99490 0.46005 0.47050 -0.01900
S 	S 	0.84688 0.41627 0.45926 -0.04800
H 	H 	0.79647 0.35043 0.51113 0.01200
S 	S 	0.97932 0.31448 0.56155 -0.04900
H 	H 	0.02978 0.38092 0.50978 0.06400
C 	C 	0.02684 0.53310 0.48092 0.01300
C 	C 	0.07778 0.58235 0.46617 -0.01100
C 	C 	0.09636 0.55990 0.44083 -0.08300
C 	C 	0.05894 0.49012 0.42877 0.04200
C 	C 	0.00914 0.44004 0.44392 -0.04000
S 	S 	0.00447 0.56275 0.51275 -0.04000
H 	H 	0.10494 0.63699 0.47502 0.04000
S 	S 	0.07424 0.46456 0.39498 -0.03000
H 	H 	0.98273 0.38486 0.43537 0.03600
H 	H 	0.00539 0.37298 0.58002 0.05200
H 	H 	0.03750 0.54458 0.53434 0.03900
H 	H 	0.11176 0.42103 0.39674 0.04200
H 	H 	0.82733 0.35993 0.43960 0.03300
C 	C 	0.45630 0.53543 0.49435 -0.07900
C 	C 	0.51963 0.53613 0.49161 0.01700
C 	C 	0.55395 0.56441 0.46725 -0.01000
C 	C 	0.52428 0.59118 0.44584 0.00500
C 	C 	0.46055 0.58990 0.44847 -0.10800
C 	C 	0.42692 0.56312 0.47325 0.07200
C 	C 	0.55012 0.50906 0.51479 0.01000
S 	S 	0.63411 0.56720 0.46345 -0.04400
H 	H 	0.55056 0.61239 0.42704 0.04000
S 	S 	0.34967 0.56766 0.47889 -0.16000
H 	H 	0.43027 0.51460 0.51325 0.05900
C 	C 	0.58099 0.55656 0.53747 -0.00700
C 	C 	0.60588 0.52873 0.56010 -0.00500
C 	C 	0.60066 0.45383 0.56035 -0.09600
C 	C 	0.56968 0.40620 0.53761 0.04800
C 	C 	0.54433 0.43404 0.51509 -0.07100
S 	S 	0.58966 0.65123 0.53755 -0.03900
H 	H 	0.63009 0.56562 0.57740 0.04100
S 	S 	0.56441 0.31249 0.53656 -0.04600
H 	H 	0.52022 0.39737 0.49772 0.05200
H 	H 	0.30283 0.50308 0.46933 0.00900
H 	H 	0.64572 0.69106 0.52447 0.03300
H 	H 	0.61946 0.30763 0.52525 0.01900
H 	H 	0.67635 0.63252 0.47483 0.03400
C 	C 	0.80539 0.08517 0.64384 -0.07400
C 	C 	0.83755 0.06970 0.62086 0.00300
C 	C 	0.86435 0.01382 0.62225 -0.05500
C 	C 	0.85941 0.97264 0.64664 0.00700
C 	C 	0.82412 0.98500 0.66926 0.00100
C 	C 	0.79695 0.04099 0.66774 -0.01800
C 	C 	0.81909 0.94352 0.69361 -0.05700
C 	C 	0.85350 0.89500 0.69638 -0.02000
C 	C 	0.89402 0.88834 0.67504 -0.07900
C 	C 	0.89275 0.92275 0.64940 -0.02600
H 	H 	0.84252 0.10168 0.60201 0.04100
H 	H 	0.89033 0.00383 0.60458 0.04400
H 	H 	0.77139 0.05178 0.68542 0.03800
H 	H 	0.79069 0.95099 0.71083 0.03800
H 	H 	0.85192 0.86643 0.71582 0.03400
H 	H 	0.92192 0.91534 0.63243 0.04500
C 	C 	0.23476 0.10903 0.65854 -0.07700
C 	C 	0.25683 0.08088 0.63528 0.01000
C 	C 	0.32323 0.10337 0.63035 -0.05600
C 	C 	0.36831 0.15329 0.64894 0.01400
C 	C 	0.34641 0.18162 0.67247 0.01500
C 	C 	0.27956 0.16011 0.67694 -0.02500
C 	C 	0.39178 0.23020 0.69140 -0.05800
C 	C 	0.45842 0.24998 0.68705 0.00300
C 	C 	0.48010 0.22140 0.66380 -0.06900
C 	C 	0.43498 0.17414 0.64456 -0.01500
H 	H 	0.22250 0.04172 0.62096 0.04200
H 	H 	0.33964 0.08133 0.61225 0.04700
H 	H 	0.26245 0.18181 0.69494 0.03700
H 	H 	0.37553 0.25182 0.70965 0.04400
H 	H 	0.49308 0.28641 0.70199 0.02800
H 	H 	0.45191 0.15305 0.62639 0.05000
C 	C 	0.90713 0.49342 0.64317 -0.08500
C 	C 	0.94227 0.48068 0.66608 0.02100
C 	C 	0.99579 0.53859 0.67743 -0.09100
C 	C 	0.01426 0.60999 0.66611 0.04400
C 	C 	0.98154 0.62191 0.64201 -0.00600
C 	C 	0.92839 0.56332 0.63049 -0.00500
C 	C 	0.99970 0.69357 0.63092 -0.05500
C 	C 	0.04411 0.75426 0.64561 0.01100
C 	C 	0.07023 0.74367 0.67151 -0.07000
C 	C 	0.06084 0.67084 0.67999 -0.03100
H 	H 	0.92710 0.42647 0.67556 0.02900
H 	H 	0.02134 0.52856 0.69563 0.05500
H 	H 	0.90265 0.57248 0.61216 0.02500
H 	H 	0.97676 0.70294 0.61182 0.04200
H 	H 	0.05370 0.80996 0.63807 0.04700
H 	H 	0.08412 0.66230 0.69916 0.04400
C 	C 	0.99765 0.54094 0.98434 -0.09500
C 	C 	0.93865 0.49260 0.99441 0.01700
C 	C 	0.93416 0.47298 0.02274 -0.00600
C 	C 	0.98815 0.50306 0.04078 -0.01300
C 	C 	0.04727 0.55148 0.03076 -0.08400
C 	C 	0.05207 0.57003 0.00227 0.06300
C 	C 	0.88135 0.46443 0.97527 0.01200
S 	S 	0.86134 0.41056 0.03580 -0.04600
H 	H 	0.98429 0.48843 0.06263 0.04100
S 	S 	0.12649 0.62671 0.98855 -0.06100
H 	H 	0.00121 0.55572 0.96250 0.06400
C 	C 	0.83614 0.50103 0.97348 -0.00700
C 	C 	0.78358 0.47522 0.95449 0.00200
C 	C 	0.77620 0.41401 0.93677 -0.09700
C 	C 	0.82053 0.37626 0.93903 0.06100
C 	C 	0.87278 0.40161 0.95828 -0.07500
S 	S 	0.84589 0.58044 0.99435 -0.04400
H 	H 	0.74973 0.50455 0.95273 0.02900
S 	S 	0.81040 0.29648 0.91831 -0.06900
H 	H 	0.90708 0.37284 0.95990 0.05100
H 	H 	0.16119 0.58327 0.98072 0.02800
H 	H 	0.88473 0.64245 0.98104 0.03500
H 	H 	0.77142 0.23472 0.93171 0.03300
H 	H 	0.82336 0.44940 0.04446 0.03700
C 	C 	0.52982 0.98319 0.94623 -0.08100
C 	C 	0.46250 0.95353 0.94981 0.01500
C 	C 	0.42083 0.97297 0.93125 -0.01200
C 	C 	0.44684 0.02212 0.90959 0.00300
C 	C 	0.51440 0.05483 0.90682 -0.09400
C 	C 	0.55612 0.03507 0.92539 0.06100
C 	C 	0.43706 0.91117 0.97531 0.01400
S 	S 	0.33624 0.93883 0.93566 -0.03700
H 	H 	0.41447 0.03655 0.89533 0.04600
S 	S 	0.64108 0.07910 0.92435 -0.07500
H 	H 	0.56196 0.96875 0.96061 0.05200
C 	C 	0.40796 0.83288 0.97446 -0.00500
C 	C 	0.38298 0.79461 0.99885 -0.00400
C 	C 	0.38818 0.83354 0.02427 -0.09100
C 	C 	0.42050 0.91160 0.02531 0.06500
C 	C 	0.44320 0.94984 0.00078 -0.08100
S 	S 	0.40342 0.78222 0.94317 -0.04100
H 	H 	0.35952 0.73460 0.99804 0.03300
S 	S 	0.43683 0.96155 0.05733 -0.07600
H 	H 	0.46675 0.00985 0.00156 0.05600
H 	H 	0.66597 0.03946 0.90693 0.03700
H 	H 	0.45850 0.76512 0.94090 0.03400
H 	H 	0.38619 0.98456 0.06325 0.02900
H 	H 	0.32027 0.98565 0.95343 0.03500
C 	C 	0.35542 0.31170 0.96010 -0.07300
C 	C 	0.35697 0.38486 0.96330 0.01200
C 	C 	0.38021 0.43533 0.94154 -0.00400
C 	C 	0.41170 0.41622 0.91931 -0.01000
C 	C 	0.42145 0.34803 0.91912 -0.09200
C 	C 	0.38746 0.29287 0.93798 0.05800
C 	C 	0.34938 0.41237 0.99131 0.01700
S 	S 	0.37480 0.52454 0.94311 -0.04800
H 	H 	0.43446 0.45726 0.90378 0.01900
S 	S 	0.38884 0.20195 0.93532 -0.04100
H 	H 	0.33405 0.27134 0.97603 0.05200
C 	C 	0.28997 0.41756 0.99923 -0.01400
C 	C 	0.28606 0.45102 0.02483 0.00500
C 	C 	0.34096 0.47906 0.04272 -0.11400
C 	C 	0.39951 0.47037 0.03537 0.06500
C 	C 	0.40343 0.43729 0.00970 -0.07900
S 	S 	0.22055 0.38341 0.97712 -0.05000
H 	H 	0.24076 0.45709 0.03053 -0.02300
S 	S 	0.46747 0.49847 0.05845 -0.03800
H 	H 	0.44886 0.43191 0.00378 0.05400
H 	H 	0.44243 0.19851 0.94944 0.03700
H 	H 	0.18803 0.30989 0.98253 0.03500
H 	H 	0.46458 0.44091 0.07562 0.03700
H 	H 	0.31688 0.52177 0.93120 0.03600
C 	C 	0.94996 0.18826 0.74849 -0.07200
C 	C 	0.89601 0.18048 0.73096 -0.00300
C 	C 	0.84739 0.20611 0.73978 -0.05300
C 	C 	0.85212 0.23924 0.76636 0.00600
C 	C 	0.90881 0.25230 0.78315 0.01800
C 	C 	0.95810 0.22802 0.77382 -0.03000
C 	C 	0.91355 0.28497 0.80977 -0.06200
C 	C 	0.86139 0.30145 0.82021 0.00300
C 	C 	0.80393 0.28594 0.80409 -0.08200
C 	C 	0.79984 0.25624 0.77693 -0.02100
H 	H 	0.88988 0.15056 0.71118 0.02400
H 	H 	0.80487 0.19729 0.72643 0.03700
H 	H 	0.00020 0.23469 0.78721 0.05600
H 	H 	0.95703 0.29591 0.82270 0.04300
H 	H 	0.86509 0.32482 0.84113 0.03700
H 	H 	0.75599 0.24559 0.76425 0.03300
C 	C 	0.20772 0.09633 0.77220 -0.07200
C 	C 	0.20899 0.11401 0.80078 0.00300
C 	C 	0.26733 0.13434 0.81641 -0.05600
C 	C 	0.32508 0.13765 0.80357 0.01300
C 	C 	0.32349 0.11693 0.77511 0.01600
C 	C 	0.26464 0.09517 0.75971 -0.02600
C 	C 	0.38118 0.12055 0.76219 -0.06100
C 	C 	0.44021 0.14560 0.77728 0.00900
C 	C 	0.44233 0.16764 0.80542 -0.07500
C 	C 	0.38461 0.16301 0.81861 -0.01800
H 	H 	0.16544 0.11478 0.81067 0.04400
H 	H 	0.26784 0.14927 0.83832 0.04700
H 	H 	0.26353 0.08002 0.73777 0.03500
H 	H 	0.38049 0.10497 0.74034 0.04400
H 	H 	0.48448 0.14917 0.76694 0.03100
H 	H 	0.38614 0.17938 0.84044 0.04900
C 	C 	0.77006 0.61536 0.85560 -0.06800
C 	C 	0.83572 0.63524 0.86365 0.00800
C 	C 	0.88153 0.70118 0.85430 -0.05900
C 	C 	0.86204 0.74768 0.83670 0.01200
C 	C 	0.79522 0.73108 0.83057 0.01400
C 	C 	0.74939 0.66473 0.84011 -0.02600
C 	C 	0.77587 0.77790 0.81308 -0.06000
C 	C 	0.82248 0.83490 0.79905 0.00800
C 	C 	0.88864 0.84522 0.80231 -0.07400
C 	C 	0.90849 0.80615 0.82298 -0.02600
H 	H 	0.85163 0.59793 0.87616 0.04000
H 	H 	0.93244 0.71433 0.85973 0.04000
H 	H 	0.69841 0.64986 0.83435 0.02700
H 	H 	0.72477 0.76750 0.80903 0.04000
H 	H 	0.80688 0.86656 0.78373 0.03000
H 	H 	0.95978 0.81579 0.82614 0.02700
