data_crystal

_cell_length_a 20.45747
_cell_length_b 21.25265
_cell_length_c 38.80595
_cell_angle_alpha 60.67191
_cell_angle_beta  119.06728
_cell_angle_gamma 133.31952

_symmetry_space_group_name_	'P 1'
_symmetry_space_group_name_H-M	'P 1'

loop_
_symmetry_equiv_pos_as_xyz
  x,y,z

loop_
_atom_site_label
_atom_site_type_symbol
_atom_site_fract_x
_atom_site_fract_y
_atom_site_fract_z
_atom_site_charge
C 	C 	0.25591 0.65763 0.14867 0.14900
N 	N 	0.18374 0.57444 0.14171 -0.12300
C 	C 	0.20067 0.52669 0.13756 0.15300
C 	C 	0.33048 0.66713 0.65722 0.15300
N 	N 	0.25674 0.58530 0.64962 -0.12700
C 	C 	0.27118 0.52920 0.65236 0.15500
Co	Co	0.05698 0.04616 0.03515 1.17000
Co	Co	0.11473 0.93465 0.03769 1.18700
C 	C 	0.24444 0.12650 0.03509 0.33000
O 	O 	0.03982 0.13500 0.02942 -0.44900
C 	C 	0.03655 0.18877 0.12657 0.32000
C 	C 	0.17765 0.88750 0.12595 0.30500
O 	O 	0.20704 0.94880 0.09324 -0.36900
O 	O 	0.11893 0.87697 0.13780 -0.34300
O 	O 	0.06021 0.17997 0.10343 -0.37600
O 	O 	0.04779 0.94989 0.05698 -0.73000
O 	O 	0.19933 0.07028 0.01340 -0.41800
O 	O 	0.19975 0.12267 0.05238 -0.39500
Co	Co	0.01945 0.07271 0.58538 1.17400
Co	Co	0.07531 0.02164 0.54053 1.16300
Co	Co	0.11636 0.90098 0.53657 1.18400
C 	C 	0.23701 0.09838 0.51414 0.33400
O 	O 	0.06420 0.11343 0.53678 -0.44300
C 	C 	0.09314 0.18997 0.63791 0.30500
C 	C 	0.22484 0.88377 0.62106 0.30300
O 	O 	0.23288 0.93429 0.58371 -0.36300
O 	O 	0.17409 0.87116 0.63913 -0.33600
O 	O 	0.05029 0.11971 0.66632 -0.40000
O 	O 	0.10940 0.18265 0.61099 -0.35600
O 	O 	0.08205 0.93389 0.56509 -0.73400
O 	O 	0.17971 0.02859 0.49930 -0.41900
O 	O 	0.20924 0.11010 0.53342 -0.38600
C 	C 	0.10993 0.06483 0.87783 -0.04400
C 	C 	0.03274 0.00116 0.85533 -0.09200
C 	C 	0.09951 0.07770 0.90660 0.13000
C 	C 	0.04520 0.98493 0.82616 0.15400
N 	N 	0.17527 0.15240 0.92426 -0.02700
H 	H 	0.17787 0.10507 0.87271 0.08000
C 	C 	0.09076 0.05557 0.79477 -0.00700
C 	C 	0.09654 0.03752 0.76642 -0.05300
N 	N 	0.12468 0.14430 0.78961 -0.01100
H 	H 	0.13104 0.09195 0.74233 0.07000
O 	O 	0.16163 0.20147 0.92661 -0.06100
O 	O 	0.25910 0.17691 0.93396 -0.08700
O 	O 	0.21091 0.20985 0.78885 -0.08300
O 	O 	0.06779 0.16065 0.78228 -0.08400
C 	C 	0.00828 0.03083 0.40183 0.08000
C 	C 	0.02252 0.03796 0.36766 -0.10500
N 	N 	0.04146 0.10922 0.40942 -0.02000
H 	H 	0.06993 0.10308 0.35073 0.10500
O 	O 	0.08101 0.89441 0.26543 -0.05600
O 	O 	0.12254 0.18261 0.40429 -0.06600
C 	C 	0.13461 0.28674 0.67410 -0.02300
C 	C 	0.12953 0.27856 0.63879 -0.08300
C 	C 	0.14755 0.35127 0.60383 0.13800
C 	C 	0.17819 0.43188 0.60628 -0.05800
C 	C 	0.19409 0.44218 0.64323 -0.02000
C 	C 	0.16320 0.36687 0.67567 0.10400
H 	H 	0.11677 0.23079 0.70054 0.08000
H 	H 	0.19818 0.48924 0.58044 0.08800
Br	Br	0.13332 0.34471 0.55270 -0.20300
C 	C 	0.25240 0.69795 0.67357 -0.05400
C 	C 	0.31569 0.72902 0.65413 -0.01400
C 	C 	0.36389 0.81886 0.63177 0.10600
C 	C 	0.34537 0.87464 0.62790 -0.02100
C 	C 	0.27268 0.84003 0.64241 -0.07100
C 	C 	0.23200 0.75330 0.66858 0.13600
Br	Br	0.15740 0.71227 0.70140 -0.16400
H 	H 	0.21924 0.63075 0.69279 0.09400
C 	C 	0.13511 0.36898 0.17070 -0.06100
C 	C 	0.12865 0.43288 0.13581 -0.00900
C 	C 	0.08504 0.41243 0.09771 0.10200
C 	C 	0.06101 0.33547 0.09437 -0.01500
C 	C 	0.07981 0.27810 0.12892 -0.09100
C 	C 	0.11888 0.29649 0.16723 0.14600
Br	Br	0.16138 0.23030 0.21429 -0.20100
H 	H 	0.16652 0.38298 0.20029 0.09200
H 	H 	0.02662 0.31978 0.06502 0.06600
Br	Br	0.06520 0.49301 0.04950 -0.17200
C 	C 	0.16110 0.67940 0.15978 -0.05800
C 	C 	0.23917 0.71672 0.14820 -0.01100
C 	C 	0.30422 0.81094 0.13862 0.10400
C 	C 	0.29417 0.86393 0.14417 -0.02000
C 	C 	0.20921 0.82886 0.14805 -0.07400
C 	C 	0.14542 0.73502 0.15939 0.13300
H 	H 	0.11258 0.60760 0.16900 0.09100
H 	H 	0.34636 0.93556 0.13814 0.09600
C 	C 	0.33602 0.15134 0.51716 -0.10200
C 	C 	0.36668 0.17730 0.48373 0.14200
Br	Br	0.28708 0.17053 0.43011 -0.20300
C 	C 	0.34520 0.18752 0.04234 -0.09600
Br	Br	0.33636 0.33536 0.98581 -0.16100
N 	N 	0.28760 0.56263 0.13926 -0.13200
C 	C 	0.01424 0.99348 0.96038 0.43000
O 	O 	0.01821 0.04386 0.97373 -0.39700
O 	O 	0.03975 0.79864 0.06219 -0.39200
O 	O 	0.05854 0.98193 0.60296 -0.54900
C 	C 	0.01415 0.01771 0.91751 -0.19100
Br	Br	0.16915 0.37537 0.72425 -0.16800
C 	C 	0.04529 0.94917 0.76504 -0.03200
Br	Br	0.04256 0.68155 0.17852 -0.19500
O 	O 	0.03752 0.92661 0.70683 -0.34700
N 	N 	0.34374 0.68898 0.15373 -0.11400
Co	Co	0.00180 0.87539 0.09780 1.19300
O 	O 	0.01408 0.92349 0.98496 -0.38000
Co	Co	0.05325 0.86646 0.60980 1.19500
N 	N 	0.35813 0.55464 0.66244 -0.13200
O 	O 	0.05649 0.77036 0.57048 -0.39500
C 	C 	0.00881 0.87965 0.79873 0.13400
C 	C 	0.01052 0.89818 0.82953 -0.09700
C 	C 	0.00477 0.92061 0.31646 -0.05900
N 	N 	0.01538 0.86021 0.28067 -0.02300
H 	H 	0.02339 0.88223 0.34515 0.09600
C 	C 	0.35900 0.64335 0.14715 0.16000
O 	O 	0.00209 0.77093 0.79130 -0.06300
O 	O 	0.00248 0.82213 0.65684 -0.42500
H 	H 	0.36974 0.09460 0.09363 0.05800
H 	H 	0.37353 0.13715 0.58168 0.06400
C 	C 	0.99872 0.91640 0.27971 0.12000
H 	H 	0.38155 0.94302 0.61005 0.09300
O 	O 	0.98513 0.15898 0.26268 -0.08300
O 	O 	0.98254 0.11878 0.15121 -0.39400
C 	C 	0.96044 0.02216 0.24256 -0.05200
H 	H 	0.93838 0.05817 0.21419 0.06100
C 	C 	0.96222 0.02326 0.27874 0.02100
C 	C 	0.97220 0.96445 0.24221 -0.01500
N 	N 	0.93652 0.07285 0.27703 -0.01600
O 	O 	0.97508 0.94169 0.18678 -0.34500
C 	C 	0.39723 0.15927 0.55564 -0.01800
O 	O 	0.98566 0.11069 0.41574 -0.09000
Br	Br	0.80368 0.73064 0.97507 -0.18000
C 	C 	0.98209 0.97049 0.31601 0.07600
C 	C 	0.38486 0.26702 0.01261 0.14400
O 	O 	0.85944 0.03110 0.28574 -0.09700
Co	Co	0.96822 0.08245 0.06996 1.17800
O 	O 	0.85048 0.92530 0.18246 -0.37300
C 	C 	0.92814 0.93502 0.20420 0.30700
O 	O 	0.92377 0.92511 0.70475 -0.37900
C 	C 	0.99926 0.92995 0.72460 0.31000
C 	C 	0.39495 0.15107 0.06811 -0.02300
C 	C 	0.69458 0.30097 0.00380 0.13800
N 	N 	0.60859 0.25848 0.00750 -0.12800
C 	C 	0.59387 0.29774 0.01936 0.15200
N 	N 	0.66335 0.37956 0.02629 -0.13400
C 	C 	0.74787 0.42322 0.02180 0.15900
N 	N 	0.76461 0.38356 0.01140 -0.11400
C 	C 	0.73154 0.27101 0.52654 0.15100
N 	N 	0.64052 0.22914 0.52202 -0.13700
C 	C 	0.61469 0.26136 0.53182 0.15400
N 	N 	0.67883 0.33851 0.54363 -0.12400
C 	C 	0.76931 0.38298 0.54696 0.15200
N 	N 	0.79664 0.34834 0.53943 -0.11700
C 	C 	0.43142 0.63715 0.66801 0.16100
N 	N 	0.41782 0.69242 0.66686 -0.11500
Co	Co	0.90796 0.90954 0.13033 1.20400
C 	C 	0.95133 0.74827 0.06006 0.31900
Co	Co	0.85088 0.01956 0.12862 1.15600
O 	O 	0.90782 0.00048 0.10553 -0.79800
O 	O 	0.93590 0.82614 0.13999 -0.43100
O 	O 	0.95541 0.96391 0.07396 -0.53900
C 	C 	0.70586 0.83615 0.11771 0.31500
O 	O 	0.72878 0.91802 0.10263 -0.33600
O 	O 	0.76579 0.81846 0.12872 -0.34700
C 	C 	0.82643 0.11781 0.04076 0.31300
O 	O 	0.84849 0.11889 0.07829 -0.40200
O 	O 	0.86258 0.09838 0.03026 -0.37800
O 	O 	0.91816 0.76712 0.07280 -0.35700
Co	Co	0.97335 0.90364 0.64859 1.19000
C 	C 	0.97395 0.72106 0.57605 0.32100
Co	Co	0.91755 0.01415 0.64968 1.14700
O 	O 	0.97668 0.99697 0.62654 -0.72000
C 	C 	0.77706 0.82853 0.64217 0.31000
C 	C 	0.98033 0.93242 0.47094 0.29900
O 	O 	0.79276 0.90719 0.62819 -0.34300
O 	O 	0.82929 0.81657 0.63866 -0.36100
O 	O 	0.99360 0.86998 0.49433 -0.37700
O 	O 	0.98191 0.97690 0.48691 -0.32300
C 	C 	0.87289 0.09630 0.56126 0.31500
O 	O 	0.90369 0.10566 0.59793 -0.40500
O 	O 	0.89835 0.06542 0.55145 -0.38700
O 	O 	0.95110 0.75327 0.58659 -0.36800
C 	C 	0.94409 0.95207 0.86122 0.12000
C 	C 	0.93563 0.95916 0.89286 0.06600
N 	N 	0.86275 0.89472 0.83539 -0.02400
H 	H 	0.86863 0.91570 0.89960 0.07400
N 	N 	0.96413 0.78935 0.80030 -0.02900
H 	H 	0.98130 0.84444 0.85508 0.10500
O 	O 	0.80225 0.81213 0.85123 -0.06600
O 	O 	0.84665 0.92638 0.79616 -0.05900
O 	O 	0.88586 0.72539 0.81106 -0.07000
C 	C 	0.97167 0.96159 0.35405 0.07100
C 	C 	0.90489 0.87827 0.37459 0.06600
C 	C 	0.89757 0.87063 0.41081 -0.00900
C 	C 	0.95442 0.94578 0.42631 -0.02100
N 	N 	0.84419 0.80136 0.35874 -0.01900
H 	H 	0.85130 0.80531 0.42812 0.07900
O 	O 	0.96996 0.77624 0.29962 -0.06700
O 	O 	0.84105 0.72992 0.38104 -0.06900
O 	O 	0.78760 0.80066 0.32312 -0.05900
C 	C 	0.52495 0.67711 0.62848 -0.05400
C 	C 	0.52008 0.67336 0.66433 -0.01500
C 	C 	0.59848 0.69899 0.69690 0.10800
C 	C 	0.68289 0.73617 0.69179 -0.02100
C 	C 	0.69010 0.75146 0.65386 -0.08000
C 	C 	0.60941 0.71480 0.62343 0.14700
Br	Br	0.61498 0.72317 0.57326 -0.17000
H 	H 	0.46343 0.65297 0.60409 0.08900
H 	H 	0.74460 0.76094 0.71603 0.08100
Br	Br	0.59220 0.68570 0.74805 -0.16000
Br	Br	0.44690 0.86440 0.60208 -0.16900
C 	C 	0.45254 0.70005 0.10271 -0.05300
C 	C 	0.44836 0.68754 0.14079 -0.01300
C 	C 	0.52683 0.70727 0.17340 0.10700
C 	C 	0.61006 0.74487 0.16688 -0.01900
C 	C 	0.61605 0.76481 0.12784 -0.08000
C 	C 	0.53553 0.73693 0.09641 0.14500
Br	Br	0.53840 0.75010 0.04448 -0.16600
H 	H 	0.39107 0.68098 0.07798 0.09300
H 	H 	0.67165 0.76426 0.19152 0.08200
Br	Br	0.52191 0.68377 0.22689 -0.16300
Br	Br	0.39386 0.87040 0.10915 -0.15600
C 	C 	0.70049 0.13108 0.53070 -0.04800
C 	C 	0.75890 0.22499 0.52290 -0.02300
C 	C 	0.84098 0.27245 0.51131 0.10600
C 	C 	0.86997 0.22548 0.51441 -0.02500
C 	C 	0.82007 0.13250 0.53045 -0.07500
C 	C 	0.72941 0.08545 0.53266 0.08900
Br	Br	0.64944 0.95761 0.54474 -0.11700
H 	H 	0.63399 0.09318 0.53668 0.07200
H 	H 	0.93521 0.26205 0.50768 0.08500
Br	Br	0.90981 0.39886 0.48789 -0.16900
C 	C 	0.85544 0.47712 0.59446 -0.05900
C 	C 	0.83541 0.47192 0.55538 -0.01300
C 	C 	0.85194 0.54759 0.52267 0.10100
C 	C 	0.88517 0.62576 0.52893 -0.01800
C 	C 	0.90658 0.63151 0.56807 -0.08500
C 	C 	0.88894 0.55557 0.60072 0.13900
Br	Br	0.90782 0.55682 0.65391 -0.18000
H 	H 	0.83979 0.41840 0.61961 0.08800
H 	H 	0.89923 0.68397 0.50359 0.07000
Br	Br	0.82610 0.54432 0.46871 -0.16700
C 	C 	0.45675 0.20902 0.48930 -0.06500
C 	C 	0.51704 0.21527 0.52786 -0.02200
C 	C 	0.48657 0.18893 0.56131 0.09700
H 	H 	0.48053 0.23064 0.46339 0.08600
Br	Br	0.56381 0.18704 0.61545 -0.21500
C 	C 	0.65486 0.15866 0.00516 -0.06600
C 	C 	0.71415 0.25245 0.99669 0.00500
C 	C 	0.79653 0.29758 0.98595 0.09800
C 	C 	0.82820 0.24956 0.99338 -0.00600
C 	C 	0.77634 0.15673 0.00962 -0.09100
C 	C 	0.68452 0.11121 0.00993 0.09800
Br	Br	0.60260 0.98353 0.02189 -0.12000
H 	H 	0.58751 0.12233 0.00983 0.08100
H 	H 	0.89609 0.28522 0.98947 0.07200
Br	Br	0.85854 0.42013 0.95574 -0.16000
C 	C 	0.80363 0.57931 0.99944 -0.03000
C 	C 	0.81907 0.51435 0.02694 -0.03000
C 	C 	0.87932 0.52804 0.06536 0.11200
C 	C 	0.91508 0.60047 0.07747 -0.02300
C 	C 	0.89353 0.66157 0.05113 -0.07600
C 	C 	0.83727 0.65048 0.01187 0.11600
H 	H 	0.75787 0.56969 0.96960 0.08500
H 	H 	0.96217 0.61089 0.10692 0.08000
Br	Br	0.90936 0.44538 0.10266 -0.18700
C 	C 	0.46039 0.29681 0.00236 -0.06800
C 	C 	0.50308 0.25291 0.02465 -0.01700
C 	C 	0.47213 0.18172 0.05880 0.09800
Br	Br	0.53600 0.12753 0.09385 -0.21600
H 	H 	0.48843 0.35638 0.97817 0.09800
