data_crystal

_cell_length_a 26.07422
_cell_length_b 26.35359
_cell_length_c 23.30650
_cell_angle_alpha 95.49160
_cell_angle_beta  95.49171
_cell_angle_gamma 125.82867

_symmetry_space_group_name_	'P 1'
_symmetry_space_group_name_H-M	'P 1'

loop_
_symmetry_equiv_pos_as_xyz
  x,y,z

loop_
_atom_site_label
_atom_site_type_symbol
_atom_site_fract_x
_atom_site_fract_y
_atom_site_fract_z
_atom_site_charge
C 	C 	0.05858 0.03325 0.97467 0.11900
N 	N 	0.03248 0.06428 0.98602 -0.12600
N 	N 	0.00213 0.03495 0.44339 -0.13600
C 	C 	0.03285 0.00818 0.45248 0.12600
C 	C 	0.20080 0.10923 0.41832 -0.04100
C 	C 	0.13409 0.07585 0.41259 -0.00200
C 	C 	0.10334 0.04688 0.45881 -0.01600
H 	H 	0.22444 0.13123 0.38269 0.05400
C 	C 	0.16773 0.06552 0.01753 -0.00400
C 	C 	0.12821 0.06952 0.97535 -0.01200
C 	C 	0.14236 0.03173 0.06490 0.08800
N 	N 	0.12200 0.00464 0.10282 -0.10700
C 	C 	0.13995 0.05219 0.51039 -0.01800
H 	H 	0.11637 0.03001 0.54599 0.05300
C 	C 	0.23251 0.09532 0.01417 -0.04000
C 	C 	0.20669 0.08571 0.51612 -0.02400
C 	C 	0.23725 0.11405 0.46970 0.01100
C 	C 	0.15462 0.10488 0.93124 -0.02000
H 	H 	0.12433 0.10813 0.89886 0.05700
C 	C 	0.09734 0.07013 0.35860 0.08900
C 	C 	0.21948 0.13463 0.92783 -0.02200
C 	C 	0.24353 0.09097 0.56977 0.09200
N 	N 	0.26200 0.00928 0.88345 -0.11000
H 	H 	0.26279 0.09203 0.04649 0.05300
C 	C 	0.25852 0.12934 0.96922 0.01100
N 	N 	0.06788 0.06553 0.31537 -0.10700
C 	C 	0.24541 0.16976 0.88138 0.09300
N 	N 	0.27309 0.09522 0.61273 -0.10700
H 	H 	0.29961 0.06397 0.44580 0.05700
C 	C 	0.29977 0.06117 0.90838 0.09600
C 	C 	0.30756 0.14900 0.47445 0.02800
N 	N 	0.99479 0.12104 0.87159 -0.11000
C 	C 	0.96872 0.03057 0.98806 0.10900
C 	C 	0.86873 0.03134 0.46776 0.00800
C 	C 	0.90397 0.02838 0.42692 -0.03400
C 	C 	0.91203 0.05823 0.37828 -0.01200
C 	C 	0.85995 0.00135 0.51838 0.06800
H 	H 	0.93874 0.05568 0.34662 0.05100
C 	C 	0.94007 0.06390 0.00064 -0.01200
C 	C 	0.90928 0.05395 0.04907 -0.02200
C 	C 	0.73442 0.03377 0.98034 0.07700
H 	H 	0.91037 0.02521 0.07882 0.05000
C 	C 	0.84368 0.06549 0.46040 -0.04900
H 	H 	0.73342 0.05744 0.37065 0.05800
N 	N 	0.62046 0.08825 0.35366 -0.10700
H 	H 	0.81764 0.06874 0.49239 0.05000
C 	C 	0.93904 0.10178 0.96231 -0.00700
C 	C 	0.88687 0.09231 0.37093 -0.02700
C 	C 	0.85363 0.09709 0.41286 0.01400
C 	C 	0.76594 0.10819 0.38829 -0.06100
N 	N 	0.44118 0.08441 0.42743 -0.11100
C 	C 	0.87626 0.08002 0.05871 -0.02300
C 	C 	0.84443 0.06865 0.10852 0.09200
N 	N 	0.81884 0.05949 0.14837 -0.10600
H 	H 	0.68295 0.09638 0.98417 0.03300
C 	C 	0.67453 0.11299 0.37085 0.07500
C 	C 	0.89625 0.12311 0.32082 0.09400
C 	C 	0.96998 0.11248 0.91193 0.08500
N 	N 	0.90382 0.14788 0.28073 -0.10600
C 	C 	0.33209 0.11544 0.45897 -0.05900
C 	C 	0.42199 0.11275 0.44161 0.07100
C 	C 	0.87353 0.11617 0.01933 0.01100
C 	C 	0.76799 0.10056 0.00397 -0.03700
C 	C 	0.83129 0.13725 0.40885 0.02600
C 	C 	0.74204 0.14390 0.39232 0.02900
C 	C 	0.90595 0.12777 0.97196 -0.04300
C 	C 	0.73390 0.12643 0.00322 0.00800
C 	C 	0.34685 0.12593 0.93951 -0.04100
H 	H 	0.42761 0.12742 0.92258 0.03700
C 	C 	0.39805 0.14814 0.45931 0.02700
C 	C 	0.83491 0.14023 0.02599 0.02500
H 	H 	0.90425 0.15598 0.94191 0.04800
C 	C 	0.41260 0.15437 0.94285 0.01500
C 	C 	0.32726 0.16049 0.96676 0.02900
C 	C 	0.76616 0.19182 0.02319 -0.08800
N 	N 	0.02088 0.96863 0.96509 -0.11900
N 	N 	0.26624 0.19791 0.84417 -0.10500
N 	N 	0.30640 0.27925 0.52423 -0.10800
N 	N 	0.85288 0.97734 0.55893 -0.08900
N 	N 	0.93144 0.96596 0.97943 -0.12600
C 	C 	0.95736 0.93497 0.96746 0.12500
C 	C 	0.93703 0.99903 0.43717 0.14700
N 	N 	0.99853 0.94563 0.45597 -0.13400
C 	C 	0.93352 0.90955 0.44973 0.13000
N 	N 	0.90261 0.93610 0.43997 -0.13300
Cu	Cu	0.64204 0.24801 0.01527 0.92900
Cu	Cu	0.70155 0.24140 0.89984 0.87100
Cu	Cu	0.68370 0.34076 0.92997 0.89800
Cu	Cu	0.64951 0.37185 0.03956 0.90300
C 	C 	0.65652 0.30535 0.13263 0.28400
O 	O 	0.54874 0.21598 0.00723 -0.35400
C 	C 	0.67788 0.29258 0.80742 0.28000
O 	O 	0.69871 0.34632 0.01348 -0.63800
O 	O 	0.63870 0.24807 0.93012 -0.64000
O 	O 	0.67789 0.19909 0.02257 -0.36300
O 	O 	0.75563 0.26088 0.97159 -0.43400
O 	O 	0.62988 0.33044 0.10978 -0.36700
O 	O 	0.73269 0.43189 0.93464 -0.37900
C 	C 	0.72283 0.46938 0.96514 0.29700
C 	C 	0.52799 0.24426 0.98037 0.28500
O 	O 	0.56962 0.30152 0.96966 -0.38400
O 	O 	0.69592 0.45484 0.01214 -0.37500
O 	O 	0.65949 0.26388 0.09961 -0.34600
C 	C 	0.73383 0.22086 0.00797 0.29400
O 	O 	0.67786 0.33414 0.84413 -0.36700
O 	O 	0.66899 0.24171 0.82318 -0.41000
H 	H 	0.74468 0.37355 0.03267 0.17400
H 	H 	0.59513 0.22031 0.90531 0.17900
Cu	Cu	0.73369 0.33750 0.42751 0.92900
Cu	Cu	0.74215 0.28052 0.54416 0.87400
Cu	Cu	0.63868 0.29410 0.51222 0.89900
Cu	Cu	0.61169 0.33519 0.40524 0.89700
C 	C 	0.67571 0.32438 0.31035 0.28400
O 	O 	0.76978 0.43087 0.43550 -0.34900
C 	C 	0.69116 0.30550 0.63595 0.28400
O 	O 	0.63440 0.28348 0.42897 -0.63900
O 	O 	0.73299 0.34061 0.51274 -0.63800
O 	O 	0.78061 0.29937 0.41961 -0.36200
O 	O 	0.71944 0.22462 0.47307 -0.43200
O 	O 	0.65085 0.35137 0.33326 -0.37200
O 	O 	0.54617 0.24443 0.50543 -0.37000
C 	C 	0.50830 0.25112 0.47052 0.29500
C 	C 	0.74291 0.45305 0.46282 0.28600
O 	O 	0.68550 0.41290 0.47463 -0.38900
O 	O 	0.53167 0.29640 0.43875 -0.38700
O 	O 	0.71740 0.32090 0.34320 -0.34600
C 	C 	0.75788 0.24415 0.43486 0.29300
O 	O 	0.64205 0.29123 0.59701 -0.37000
O 	O 	0.74287 0.31517 0.62003 -0.41000
H 	H 	0.60616 0.23862 0.40795 0.17500
H 	H 	0.76013 0.38382 0.53736 0.18100
C 	C 	0.68505 0.30321 0.69642 -0.04200
C 	C 	0.68105 0.29935 0.74718 -0.04000
C 	C 	0.66549 0.30965 0.19515 -0.03100
C 	C 	0.67111 0.31525 0.24781 -0.03100
C 	C 	0.85528 0.73468 0.40567 -0.02300
C 	C 	0.84446 0.71454 0.46006 0.01200
C 	C 	0.85845 0.75769 0.51010 -0.04200
C 	C 	0.88464 0.82107 0.50664 -0.00100
C 	C 	0.89679 0.84154 0.45252 -0.01600
C 	C 	0.88107 0.79792 0.40217 -0.01800
C 	C 	0.81786 0.64804 0.46483 0.02800
C 	C 	0.85985 0.63326 0.48276 -0.06000
C 	C 	0.83591 0.56999 0.48419 0.02900
C 	C 	0.76922 0.52074 0.46670 -0.08200
C 	C 	0.72716 0.53605 0.45055 0.01500
C 	C 	0.75107 0.59928 0.44983 -0.04100
C 	C 	0.87978 0.55636 0.50532 0.07600
C 	C 	0.70680 0.61373 0.43303 0.09600
C 	C 	0.84088 0.69094 0.35348 0.09300
C 	C 	0.90014 0.86513 0.55901 0.09100
N 	N 	0.91493 0.54546 0.52227 -0.11100
N 	N 	0.67139 0.62536 0.41956 -0.10900
N 	N 	0.91261 0.90045 0.60098 -0.09900
N 	N 	0.82931 0.65584 0.31171 -0.10700
H 	H 	0.89061 0.81371 0.36056 0.05300
H 	H 	0.84943 0.74202 0.55179 0.05500
H 	H 	0.91119 0.67099 0.49525 0.05800
H 	H 	0.67584 0.49847 0.43738 0.03200
C 	C 	0.78387 0.20942 0.41729 -0.08800
C 	C 	0.85005 0.23939 0.43362 0.01000
C 	C 	0.87389 0.20360 0.43006 -0.04200
C 	C 	0.94173 0.23490 0.45004 0.09300
N 	N 	0.99606 0.25992 0.46602 -0.11100
H 	H 	0.88250 0.28997 0.45199 0.03500
C 	C 	0.43997 0.21519 0.47516 -0.07900
C 	C 	0.41561 0.24850 0.49229 0.01600
C 	C 	0.34975 0.21579 0.49214 -0.04100
C 	C 	0.32571 0.25105 0.50996 0.09700
H 	H 	0.44795 0.30002 0.50519 0.04400
C 	C 	0.85196 0.63925 0.95396 -0.04100
C 	C 	0.81627 0.66363 0.94814 0.02800
C 	C 	0.74905 0.62248 0.94200 -0.05800
C 	C 	0.71755 0.55805 0.94486 0.02900
C 	C 	0.75359 0.53432 0.95358 -0.07800
C 	C 	0.82042 0.57472 0.95631 0.01600
C 	C 	0.84929 0.73288 0.95242 0.01200
C 	C 	0.86970 0.76060 0.90302 -0.04000
C 	C 	0.90403 0.82656 0.90707 -0.00200
C 	C 	0.91773 0.86523 0.96104 -0.01300
C 	C 	0.89572 0.83726 0.00998 -0.01800
C 	C 	0.86193 0.77142 0.00607 -0.02300
C 	C 	0.92445 0.85411 0.85559 0.09100
C 	C 	0.84137 0.74387 0.05752 0.09200
C 	C 	0.92112 0.68055 0.95915 0.09500
C 	C 	0.64825 0.51654 0.93858 0.07700
N 	N 	0.94083 0.87622 0.81437 -0.10200
N 	N 	0.82488 0.72173 0.09871 -0.10600
N 	N 	0.59275 0.48327 0.93356 -0.10300
N 	N 	0.97653 0.71369 0.96332 -0.11000
H 	H 	0.84814 0.55641 0.96242 0.04100
H 	H 	0.72149 0.64102 0.93646 0.06000
H 	H 	0.85950 0.73086 0.86163 0.05400
H 	H 	0.90611 0.86698 0.05145 0.05400
C 	C 	0.86612 0.20449 0.05022 -0.06100
C 	C 	0.83211 0.23045 0.04903 0.02900
C 	C 	0.86523 0.29681 0.07421 0.07600
N 	N 	0.89174 0.34996 0.09438 -0.10800
N 	N 	0.70758 0.98026 0.96142 -0.09700
H 	H 	0.91725 0.23466 0.06853 0.05800
C 	C 	0.37363 0.22380 0.99543 -0.05900
C 	C 	0.43933 0.25228 0.99895 0.03000
C 	C 	0.45914 0.21721 0.97290 -0.08000
C 	C 	0.48603 0.31651 0.03154 0.06900
N 	N 	0.52341 0.36795 0.05764 -0.11900
H 	H 	0.35851 0.25038 0.01628 0.06000
