data_crystal

_cell_length_a 23.18534
_cell_length_b 23.37675
_cell_length_c 26.78161
_cell_angle_alpha 95.48399
_cell_angle_beta  95.48545
_cell_angle_gamma 125.94238

_symmetry_space_group_name_	'P 1'
_symmetry_space_group_name_H-M	'P 1'

loop_
_symmetry_equiv_pos_as_xyz
  x,y,z

loop_
_atom_site_label
_atom_site_type_symbol
_atom_site_fract_x
_atom_site_fract_y
_atom_site_fract_z
_atom_site_charge
C 	C 	0.96902 0.03831 0.99522 0.11400
C 	C 	0.06980 0.04013 0.98480 0.11600
N 	N 	0.04106 0.07589 0.99432 -0.13600
N 	N 	0.99839 0.04047 0.45204 -0.14200
C 	C 	0.03486 0.01230 0.45978 0.13100
Cu	Cu	0.64554 0.24657 0.01287 0.93000
Cu	Cu	0.69010 0.22783 0.90351 0.88200
Cu	Cu	0.67513 0.34430 0.93468 0.89700
Cu	Cu	0.65036 0.38391 0.03713 0.90100
C 	C 	0.65822 0.30370 0.11625 0.33600
O 	O 	0.54031 0.20320 0.01601 -0.35700
C 	C 	0.65498 0.28257 0.82674 0.32600
O 	O 	0.70226 0.35586 0.00693 -0.63300
O 	O 	0.62774 0.24057 0.93806 -0.64200
O 	O 	0.69208 0.19665 0.01569 -0.34800
O 	O 	0.76383 0.25877 0.96010 -0.42700
O 	O 	0.66057 0.35913 0.10541 -0.37600
O 	O 	0.72772 0.44660 0.93643 -0.37400
C 	C 	0.72293 0.48980 0.96831 0.28200
C 	C 	0.51032 0.23262 0.99913 0.29500
O 	O 	0.55032 0.29612 0.98689 -0.39300
O 	O 	0.67838 0.46513 0.00118 -0.37700
O 	O 	0.67578 0.27094 0.08539 -0.34000
C 	C 	0.74985 0.21957 0.99542 0.27300
O 	O 	0.66094 0.33303 0.85921 -0.37600
O 	O 	0.64089 0.22390 0.84093 -0.38700
H 	H 	0.75526 0.38800 0.01999 0.17800
H 	H 	0.57603 0.20820 0.92115 0.17700
Cu	Cu	0.72881 0.33100 0.43348 0.92800
Cu	Cu	0.74088 0.27858 0.54054 0.87400
Cu	Cu	0.62686 0.29754 0.50972 0.90000
Cu	Cu	0.59560 0.33445 0.41146 0.90400
C 	C 	0.66212 0.30911 0.33004 0.33100
O 	O 	0.77362 0.43688 0.43422 -0.35700
C 	C 	0.68698 0.31408 0.61812 0.32700
O 	O 	0.61823 0.27635 0.43717 -0.63700
O 	O 	0.73172 0.34385 0.50810 -0.63900
O 	O 	0.77674 0.28223 0.42987 -0.36500
O 	O 	0.70932 0.20766 0.48232 -0.43800
O 	O 	0.63657 0.34324 0.34779 -0.35600
O 	O 	0.52347 0.24691 0.50589 -0.36800
C 	C 	0.48120 0.25270 0.47343 0.29400
C 	C 	0.74660 0.46708 0.45586 0.28300
O 	O 	0.68228 0.42633 0.46783 -0.38600
O 	O 	0.50777 0.29904 0.44204 -0.38000
O 	O 	0.70666 0.30391 0.36047 -0.36300
C 	C 	0.75021 0.22257 0.44782 0.29000
O 	O 	0.63391 0.30345 0.58483 -0.34900
O 	O 	0.74542 0.32633 0.60379 -0.41800
H 	H 	0.58423 0.22455 0.42169 0.17300
H 	H 	0.76470 0.39432 0.52670 0.18000
C 	C 	0.63511 0.32210 0.74740 -0.08700
C 	C 	0.66290 0.29127 0.77341 -0.13200
C 	C 	0.69930 0.26926 0.74848 0.33300
C 	C 	0.70676 0.27685 0.69799 -0.09400
C 	C 	0.67867 0.30711 0.67168 -0.13000
C 	C 	0.64286 0.32999 0.69666 0.33700
F 	F 	0.61683 0.36095 0.67227 -0.43900
H 	H 	0.60725 0.33958 0.76631 0.09600
H 	H 	0.73422 0.25881 0.67914 0.07800
F 	F 	0.72881 0.24177 0.77359 -0.46900
C 	C 	0.71680 0.30964 0.25392 -0.08900
C 	C 	0.65637 0.29403 0.27425 -0.12400
C 	C 	0.59313 0.27176 0.24104 0.33600
C 	C 	0.59259 0.27104 0.18873 -0.09000
C 	C 	0.65459 0.29131 0.16897 -0.12500
C 	C 	0.71593 0.30828 0.20148 0.34100
F 	F 	0.77609 0.32734 0.18274 -0.43800
H 	H 	0.76562 0.32611 0.27897 0.10100
H 	H 	0.54463 0.25672 0.16373 0.08800
F 	F 	0.53285 0.25259 0.25965 -0.45400
C 	C 	0.78181 0.54456 0.45812 -0.08300
H 	H 	0.73955 0.55559 0.52407 0.04100
H 	H 	0.83064 0.55155 0.39179 0.04500
C 	C 	0.82761 0.09635 0.42891 0.03400
C 	C 	0.75586 0.06373 0.43499 -0.06500
C 	C 	0.72891 0.10387 0.43765 0.01600
C 	C 	0.88695 0.02852 0.43815 -0.04000
C 	C 	0.84436 0.20871 0.42561 0.01600
C 	C 	0.87117 0.16839 0.42288 -0.06300
C 	C 	0.85862 0.05812 0.43337 0.00400
C 	C 	0.77378 0.17727 0.43465 -0.09100
H 	H 	0.72158 0.00791 0.43915 0.05200
H 	H 	0.67391 0.07851 0.44367 0.03400
H 	H 	0.87954 0.26507 0.42297 0.03900
H 	H 	0.92657 0.19387 0.41775 0.05400
C 	C 	0.25491 0.13590 0.47602 0.03800
C 	C 	0.29429 0.20599 0.46623 -0.06200
C 	C 	0.36868 0.24503 0.46689 0.02100
C 	C 	0.11235 0.05720 0.46608 -0.03000
C 	C 	0.36500 0.14457 0.48862 0.02000
C 	C 	0.29053 0.10561 0.48792 -0.06200
C 	C 	0.17740 0.09356 0.47096 0.00200
C 	C 	0.40423 0.21405 0.47723 -0.07800
H 	H 	0.26712 0.22985 0.45731 0.05600
H 	H 	0.39853 0.29907 0.45893 0.04300
H 	H 	0.39171 0.12005 0.49666 0.03700
H 	H 	0.26034 0.05143 0.49567 0.05400
C 	C 	0.87213 0.13728 0.01264 0.03600
C 	C 	0.80040 0.09657 0.02066 -0.06000
C 	C 	0.76153 0.12507 0.01829 0.01400
C 	C 	0.93735 0.07536 0.00255 -0.01600
C 	C 	0.86734 0.23652 0.00250 0.02400
C 	C 	0.90604 0.20792 0.00486 -0.05200
C 	C 	0.90849 0.10435 0.00777 -0.00100
C 	C 	0.79413 0.19445 0.00759 -0.07300
H 	H 	0.77395 0.04205 0.02707 0.05500
H 	H 	0.70528 0.09207 0.02256 0.04300
H 	H 	0.89361 0.29060 0.99517 0.03300
H 	H 	0.96169 0.23999 0.99914 0.04600
C 	C 	0.29496 0.13973 0.99016 -0.00800
C 	C 	0.27312 0.16583 0.02742 -0.02600
C 	C 	0.19968 0.13607 0.02424 -0.01200
C 	C 	0.43403 0.19699 0.99616 -0.10700
C 	C 	0.17016 0.05563 0.94564 -0.02100
C 	C 	0.24348 0.08540 0.94889 -0.03500
C 	C 	0.37049 0.17007 0.99357 0.04800
C 	C 	0.14768 0.07987 0.98381 -0.02300
H 	H 	0.31281 0.20853 0.05912 0.04800
H 	H 	0.18304 0.15503 0.05402 0.04800
H 	H 	0.13060 0.01269 0.91403 0.04400
H 	H 	0.26011 0.06575 0.91954 0.04400
C 	C 	0.75902 0.56471 0.96167 -0.08000
H 	H 	0.67026 0.56701 0.97684 0.03800
N 	N 	0.92608 0.96531 0.98691 -0.13300
C 	C 	0.95488 0.92984 0.97748 0.13300
N 	N 	0.02648 0.96718 0.97638 -0.13300
C 	C 	0.92484 0.99746 0.44480 0.14600
N 	N 	0.99796 0.94115 0.46013 -0.13500
C 	C 	0.92454 0.89782 0.45286 0.13500
N 	N 	0.88764 0.92586 0.44521 -0.13700
C 	C 	0.83104 0.68595 0.45388 0.03600
C 	C 	0.79364 0.65197 0.49234 -0.06100
C 	C 	0.76916 0.58161 0.49451 0.01500
C 	C 	0.88652 0.82226 0.45274 -0.02900
C 	C 	0.82089 0.57948 0.42035 0.01600
C 	C 	0.84529 0.64984 0.41825 -0.06100
C 	C 	0.85948 0.75973 0.45312 0.00300
H 	H 	0.78353 0.67997 0.52057 0.05500
H 	H 	0.87512 0.67617 0.38884 0.05600
C 	C 	0.83370 0.71174 0.96032 0.03600
C 	C 	0.86667 0.67833 0.95037 -0.06300
C 	C 	0.82940 0.60497 0.95091 0.01700
C 	C 	0.91042 0.85297 0.97068 -0.03100
C 	C 	0.72510 0.59780 0.96951 0.01700
C 	C 	0.76242 0.67107 0.96892 -0.06300
C 	C 	0.87483 0.78850 0.96549 0.00100
H 	H 	0.92175 0.70950 0.94346 0.05400
H 	H 	0.85606 0.58005 0.94464 0.03600
H 	H 	0.73644 0.69648 0.97625 0.05400
