data_crystal

_cell_length_a 19.21588
_cell_length_b 18.21512
_cell_length_c 26.60149
_cell_angle_alpha 95.41896
_cell_angle_beta  95.41898
_cell_angle_gamma 126.41302

_symmetry_space_group_name_	'P 1'
_symmetry_space_group_name_H-M	'P 1'

loop_
_symmetry_equiv_pos_as_xyz
  x,y,z

loop_
_atom_site_label
_atom_site_type_symbol
_atom_site_fract_x
_atom_site_fract_y
_atom_site_fract_z
_atom_site_charge
N 	N 	0.99781 0.02953 0.96524 -0.13400
C 	C 	0.08641 0.06551 0.49163 0.11900
N 	N 	0.04756 0.10798 0.49262 -0.14500
Cu	Cu	0.72458 0.21781 0.04376 0.86800
Cu	Cu	0.57996 0.23331 0.01950 0.89000
C 	C 	0.62170 0.27905 0.83730 0.27800
C 	C 	0.66902 0.26826 0.12649 0.28000
O 	O 	0.56368 0.20985 0.94585 -0.63100
O 	O 	0.75735 0.22543 0.92748 -0.36500
O 	O 	0.68771 0.13047 0.98364 -0.43400
O 	O 	0.45464 0.16384 0.01934 -0.39800
C 	C 	0.40266 0.17241 0.98863 0.30800
O 	O 	0.43534 0.24107 0.96302 -0.39800
O 	O 	0.66390 0.25408 0.86387 -0.36300
C 	C 	0.73797 0.15494 0.94907 0.29900
O 	O 	0.59519 0.23527 0.09452 -0.39100
O 	O 	0.73600 0.27850 0.10956 -0.42100
H 	H 	0.52406 0.14300 0.93010 0.16400
Cu	Cu	0.72774 0.25688 0.54860 0.86500
Cu	Cu	0.63091 0.32715 0.52296 0.89100
C 	C 	0.69045 0.34193 0.34565 0.28300
C 	C 	0.68057 0.32251 0.63068 0.27400
O 	O 	0.62148 0.28996 0.44987 -0.63600
O 	O 	0.82085 0.30593 0.45014 -0.36900
O 	O 	0.71776 0.18921 0.48634 -0.44700
O 	O 	0.51527 0.29983 0.52032 -0.38400
C 	C 	0.45331 0.26349 0.47898 0.29400
O 	O 	0.47328 0.28283 0.43359 -0.40000
O 	O 	0.74131 0.33373 0.37760 -0.36400
C 	C 	0.78595 0.22507 0.46373 0.29900
O 	O 	0.64156 0.34447 0.59833 -0.38100
O 	O 	0.73574 0.30720 0.61693 -0.42100
H 	H 	0.58102 0.22201 0.43701 0.15500
C 	C 	0.57111 0.27639 0.74638 -0.01500
C 	C 	0.63869 0.29728 0.78513 -0.06600
C 	C 	0.66904 0.32405 0.68472 -0.07000
C 	C 	0.58634 0.28992 0.69651 -0.01600
H 	H 	0.50617 0.24748 0.75447 0.03800
H 	H 	0.53288 0.27054 0.66665 0.03500
C 	C 	0.67347 0.28553 0.18265 -0.07200
C 	C 	0.61381 0.29609 0.20205 -0.01400
C 	C 	0.61837 0.31260 0.25511 -0.01500
C 	C 	0.68317 0.31963 0.28953 -0.06900
H 	H 	0.56424 0.29214 0.17612 0.03700
H 	H 	0.57163 0.32020 0.26943 0.02900
C 	C 	0.84621 0.06265 0.44343 -0.07200
C 	C 	0.91582 0.10153 0.48519 -0.03000
C 	C 	0.94577 0.18442 0.51813 0.04300
C 	C 	0.90721 0.22830 0.50777 -0.02700
C 	C 	0.83627 0.18816 0.46685 -0.11600
C 	C 	0.80645 0.10565 0.43385 0.09100
C 	C 	0.73114 0.06223 0.38911 -0.20100
H 	H 	0.93000 0.29185 0.53294 0.02100
C 	C 	0.01850 0.22636 0.56433 -0.18100
H 	H 	0.74261 0.11532 0.36632 0.07400
H 	H 	0.66875 0.03236 0.40355 0.07000
H 	H 	0.08305 0.26284 0.55180 0.07000
H 	H 	0.00856 0.17172 0.58520 0.06700
H 	H 	0.02018 0.27733 0.59197 0.05700
C 	C 	0.23345 0.10517 0.52108 -0.07000
C 	C 	0.18097 0.11912 0.48952 -0.02900
C 	C 	0.21857 0.18113 0.45481 0.04400
C 	C 	0.30900 0.23261 0.45499 -0.02400
C 	C 	0.36086 0.21614 0.48502 -0.10100
C 	C 	0.32222 0.15026 0.51767 0.08600
C 	C 	0.37459 0.12728 0.54872 -0.19400
H 	H 	0.33870 0.28383 0.43044 0.03900
C 	C 	0.16292 0.19203 0.41699 -0.17800
H 	H 	0.42146 0.18555 0.58127 0.07400
H 	H 	0.41125 0.11415 0.52427 0.05300
H 	H 	0.14762 0.23575 0.43703 0.06900
H 	H 	0.10086 0.12322 0.39847 0.06800
H 	H 	0.19780 0.22601 0.38571 0.05900
C 	C 	0.75792 0.04120 0.90919 -0.01600
C 	C 	0.79072 0.12093 0.94530 -0.10900
C 	C 	0.86828 0.16094 0.98180 0.08800
C 	C 	0.90685 0.11548 0.98478 -0.05300
C 	C 	0.87144 0.03293 0.95041 -0.02600
H 	H 	0.69924 0.01145 0.88067 0.03600
H 	H 	0.96329 0.14322 0.01472 0.03400
C 	C 	0.90712 0.24894 0.01971 -0.20100
H 	H 	0.86736 0.23306 0.05035 0.01500
H 	H 	0.97598 0.28114 0.03799 0.06100
C 	C 	0.18659 0.09948 0.02262 -0.09100
C 	C 	0.12768 0.03266 0.97889 -0.00700
C 	C 	0.15906 0.00643 0.94059 0.04300
C 	C 	0.24890 0.04667 0.94707 -0.02500
C 	C 	0.30828 0.11554 0.98994 -0.09300
C 	C 	0.27684 0.14089 0.02863 0.08300
H 	H 	0.16207 0.11872 0.05216 0.04800
H 	H 	0.27334 0.02729 0.91753 0.02800
C 	C 	0.95990 0.05796 0.49226 0.11900
C 	C 	0.33951 0.21378 0.07554 -0.19900
C 	C 	0.73723 0.29081 0.21707 -0.01400
C 	C 	0.74202 0.30771 0.27012 -0.01400
H 	H 	0.78300 0.28156 0.20280 0.03300
H 	H 	0.79213 0.31252 0.29603 0.04400
H 	H 	0.30394 0.22032 0.10406 0.06300
H 	H 	0.37948 0.19511 0.09467 0.07700
H 	H 	0.90845 0.30088 0.00015 0.05100
Cu	Cu	0.75715 0.36134 0.45122 0.92700
Cu	Cu	0.69634 0.28346 0.93736 0.92800
Cu	Cu	0.52821 0.27886 0.92139 0.89500
O 	O 	0.70652 0.29877 0.01335 -0.64700
O 	O 	0.55083 0.26598 0.85055 -0.38900
Cu	Cu	0.59305 0.35979 0.41864 0.89700
O 	O 	0.75208 0.36597 0.52491 -0.64400
H 	H 	0.38397 0.28229 0.06417 0.07000
C 	C 	0.72268 0.33603 0.77393 -0.01600
O 	O 	0.66168 0.38777 0.36253 -0.38900
C 	C 	0.73779 0.34935 0.72403 -0.01200
H 	H 	0.20465 0.05765 0.54766 0.04900
H 	H 	0.33117 0.06371 0.56482 0.06100
H 	H 	0.74539 0.36405 0.03192 0.16900
H 	H 	0.77615 0.35531 0.80376 0.04100
H 	H 	0.80254 0.37777 0.71572 0.03700
O 	O 	0.63966 0.40457 0.97180 -0.38800
H 	H 	0.72384 0.00588 0.36292 0.06400
O 	O 	0.75175 0.41963 0.93956 -0.37000
H 	H 	0.79818 0.42614 0.54801 0.17200
C 	C 	0.79931 0.99833 0.91042 0.03900
C 	C 	0.03283 0.98488 0.97548 0.10700
C 	C 	0.90905 0.98255 0.95755 0.11300
H 	H 	0.05265 0.95051 0.87624 0.06700
C 	C 	0.76510 0.91517 0.86965 -0.17700
H 	H 	0.72565 0.91213 0.83504 0.06100
H 	H 	0.82038 0.91868 0.85711 0.06700
H 	H 	0.82363 0.99939 0.41804 0.04400
N 	N 	0.85563 0.89070 0.96004 -0.14100
C 	C 	0.89095 0.84626 0.97007 0.11500
N 	N 	0.97936 0.89372 0.97838 -0.13800
N 	N 	0.91153 0.96560 0.49294 -0.14500
C 	C 	0.95049 0.92309 0.49261 0.11800
N 	N 	0.03783 0.97316 0.49191 -0.14500
C 	C 	0.71546 0.45655 0.95728 0.29000
O 	O 	0.80614 0.49711 0.45715 -0.36100
C 	C 	0.76797 0.53038 0.47787 0.28400
O 	O 	0.68456 0.47388 0.48169 -0.40100
C 	C 	0.92328 0.78950 0.52895 -0.06900
C 	C 	0.89781 0.82221 0.49115 -0.02800
C 	C 	0.82750 0.75826 0.44979 0.04500
C 	C 	0.78380 0.66273 0.44717 -0.02200
C 	C 	0.81112 0.63042 0.48406 -0.09900
C 	C 	0.88034 0.69389 0.52574 0.08700
C 	C 	0.90918 0.66014 0.56645 -0.19800
H 	H 	0.97741 0.83869 0.56051 0.04800
H 	H 	0.72969 0.61339 0.41561 0.03100
C 	C 	0.79915 0.79125 0.40825 -0.17800
H 	H 	0.95982 0.71781 0.59840 0.06400
H 	H 	0.93758 0.62774 0.54929 0.06700
H 	H 	0.85198 0.60812 0.58301 0.06400
H 	H 	0.85687 0.84565 0.39297 0.06700
H 	H 	0.76654 0.81971 0.42406 0.06700
H 	H 	0.75182 0.73375 0.37539 0.05900
C 	C 	0.80372 0.68768 0.91864 -0.07400
C 	C 	0.83387 0.74525 0.96683 -0.01300
C 	C 	0.82235 0.70715 0.01190 0.02900
C 	C 	0.78582 0.61299 0.00820 -0.03800
C 	C 	0.75893 0.55620 0.96011 -0.09100
C 	C 	0.76606 0.59320 0.91484 0.08500
C 	C 	0.73396 0.53245 0.86254 -0.19800
H 	H 	0.81247 0.71725 0.88413 0.04700
H 	H 	0.77840 0.58385 0.04280 0.03400
C 	C 	0.85226 0.76748 0.06405 -0.17500
H 	H 	0.73987 0.57076 0.83108 0.06700
H 	H 	0.66351 0.47231 0.85830 0.06400
H 	H 	0.77348 0.50701 0.85773 0.07800
H 	H 	0.83007 0.81157 0.06370 0.06200
H 	H 	0.92521 0.81269 0.07442 0.06400
H 	H 	0.82460 0.72509 0.09425 0.05900
H 	H 	0.72252 0.85048 0.88495 0.07000
C 	C 	0.09702 0.93525 0.89292 -0.18000
H 	H 	0.05696 0.86488 0.90270 0.07000
H 	H 	0.13336 0.93526 0.86282 0.05900
