data_crystal

_cell_length_a 30.55219
_cell_length_b 31.33585
_cell_length_c 35.00696
_cell_angle_alpha 95.52723
_cell_angle_beta  95.52696
_cell_angle_gamma 125.54566

_symmetry_space_group_name_	'P 1'
_symmetry_space_group_name_H-M	'P 1'

loop_
_symmetry_equiv_pos_as_xyz
  x,y,z

loop_
_atom_site_label
_atom_site_type_symbol
_atom_site_fract_x
_atom_site_fract_y
_atom_site_fract_z
_atom_site_charge
C 	C 	0.97254 0.02679 0.00159 0.03700
C 	C 	0.02728 0.05682 0.99657 -0.08500
C 	C 	0.05322 0.03212 0.99186 0.03600
C 	C 	0.02456 0.97753 0.99255 -0.08300
C 	C 	0.96991 0.94742 0.99748 0.03300
C 	C 	0.94407 0.97216 0.00229 -0.07900
H 	H 	0.04920 0.09892 0.99558 0.04900
H 	H 	0.04468 0.95846 0.98905 0.05000
H 	H 	0.90168 0.94882 0.00592 0.05000
C 	C 	0.93532 0.99148 0.44789 0.02700
C 	C 	0.99221 0.02282 0.44973 -0.06900
C 	C 	0.02006 0.99981 0.45290 0.02500
C 	C 	0.99099 0.94538 0.45436 -0.07100
C 	C 	0.93417 0.91383 0.45252 0.02900
C 	C 	0.90634 0.93693 0.44943 -0.07400
H 	H 	0.01471 0.06496 0.44867 0.04700
H 	H 	0.01254 0.92762 0.45700 0.04800
H 	H 	0.86236 0.91255 0.44787 0.04900
Cu	Cu	0.65086 0.26133 0.99972 0.92700
Cu	Cu	0.69959 0.26582 0.91932 0.87000
Cu	Cu	0.68610 0.34802 0.95071 0.89600
Cu	Cu	0.64850 0.35863 0.02450 0.89400
C 	C 	0.65660 0.29578 0.08050 0.28300
O 	O 	0.57015 0.22890 0.99547 -0.36500
C 	C 	0.67243 0.31334 0.86579 0.28300
O 	O 	0.69479 0.34438 0.00493 -0.63900
O 	O 	0.64780 0.26920 0.94425 -0.64100
O 	O 	0.68599 0.22396 0.99929 -0.37500
O 	O 	0.74836 0.28061 0.96493 -0.44300
O 	O 	0.63380 0.31861 0.06858 -0.38400
O 	O 	0.72708 0.42482 0.96087 -0.38500
C 	C 	0.72035 0.45274 0.98722 0.28900
C 	C 	0.54947 0.25165 0.98000 0.28300
O 	O 	0.58242 0.30175 0.97625 -0.39600
O 	O 	0.68153 0.42930 0.00834 -0.39300
O 	O 	0.66492 0.26803 0.05535 -0.36000
C 	C 	0.73287 0.24495 0.98743 0.29100
O 	O 	0.69044 0.35301 0.89516 -0.38800
O 	O 	0.66784 0.27006 0.87157 -0.41900
H 	H 	0.73320 0.36730 0.01920 0.16500
H 	H 	0.61059 0.24785 0.92803 0.17200
Cu	Cu	0.72487 0.33326 0.44756 0.92700
Cu	Cu	0.72765 0.29206 0.53003 0.87000
Cu	Cu	0.64027 0.30263 0.50028 0.89700
Cu	Cu	0.62366 0.33498 0.42527 0.89300
C 	C 	0.67920 0.31722 0.36715 0.28100
O 	O 	0.75843 0.41177 0.44925 -0.36300
C 	C 	0.68142 0.31992 0.58484 0.28300
O 	O 	0.64009 0.29139 0.44557 -0.64000
O 	O 	0.72088 0.33990 0.50375 -0.64100
O 	O 	0.76298 0.29864 0.44762 -0.37400
O 	O 	0.70932 0.24100 0.48568 -0.44300
O 	O 	0.65916 0.34294 0.37878 -0.38400
O 	O 	0.56142 0.26273 0.49278 -0.38200
C 	C 	0.53138 0.26832 0.46694 0.28900
C 	C 	0.73622 0.43347 0.46421 0.28300
O 	O 	0.68589 0.40263 0.47040 -0.39200
O 	O 	0.55405 0.30573 0.44534 -0.39600
O 	O 	0.71404 0.31600 0.39172 -0.36000
C 	C 	0.74256 0.25385 0.46071 0.28800
O 	O 	0.63909 0.30083 0.55649 -0.38700
O 	O 	0.72602 0.32587 0.57760 -0.42000
H 	H 	0.61595 0.25342 0.43240 0.16200
H 	H 	0.74338 0.37698 0.51867 0.17100
C 	C 	0.66555 0.32101 0.82539 -0.07600
C 	C 	0.70370 0.37013 0.81491 0.00200
C 	C 	0.70296 0.37484 0.77558 -0.05400
C 	C 	0.66516 0.32959 0.74607 0.00400
C 	C 	0.62227 0.28233 0.75699 0.00600
C 	C 	0.62345 0.27788 0.79655 -0.01800
C 	C 	0.57892 0.24006 0.72833 -0.04200
C 	C 	0.57890 0.24328 0.68888 -0.04200
C 	C 	0.62399 0.28719 0.67724 0.00700
C 	C 	0.66842 0.33033 0.70578 0.00400
C 	C 	0.71679 0.37008 0.69359 -0.05400
C 	C 	0.71967 0.36806 0.65392 0.00200
C 	C 	0.67516 0.32609 0.62578 -0.07500
C 	C 	0.62687 0.28656 0.63742 -0.01900
H 	H 	0.73469 0.40447 0.83719 0.03500
H 	H 	0.73030 0.41389 0.76845 0.04000
H 	H 	0.59228 0.24068 0.80484 0.03600
H 	H 	0.54502 0.20455 0.73662 0.03600
H 	H 	0.54476 0.21035 0.66718 0.03700
H 	H 	0.75340 0.40048 0.71459 0.03900
H 	H 	0.75738 0.39830 0.64516 0.03000
H 	H 	0.59279 0.25353 0.61566 0.04100
C 	C 	0.65895 0.28928 0.12146 -0.06900
C 	C 	0.70930 0.31094 0.14539 0.00100
C 	C 	0.71278 0.31102 0.18555 -0.05200
C 	C 	0.66501 0.28726 0.20218 0.00500
C 	C 	0.61423 0.26596 0.17772 0.00800
C 	C 	0.61143 0.26589 0.13748 -0.01600
C 	C 	0.56745 0.24787 0.19398 -0.04100
C 	C 	0.57092 0.25345 0.23433 -0.04100
C 	C 	0.62056 0.27444 0.25911 0.00800
C 	C 	0.66712 0.28810 0.24319 0.00500
C 	C 	0.71393 0.30128 0.26852 -0.05200
C 	C 	0.71730 0.30920 0.30903 0.00500
C 	C 	0.67323 0.30159 0.32479 -0.07000
C 	C 	0.62420 0.28204 0.29977 -0.01900
H 	H 	0.74631 0.32999 0.13321 0.02900
H 	H 	0.75290 0.33254 0.20363 0.04100
H 	H 	0.57253 0.24941 0.11881 0.04400
H 	H 	0.52856 0.23126 0.17533 0.03800
H 	H 	0.53479 0.24139 0.24638 0.03600
H 	H 	0.74659 0.30322 0.25721 0.04200
H 	H 	0.75446 0.32179 0.32813 0.04200
H 	H 	0.58917 0.27357 0.31198 0.03000
C 	C 	0.76449 0.49172 0.46856 -0.09100
C 	C 	0.74812 0.51679 0.49246 0.01300
C 	C 	0.76922 0.57012 0.49230 -0.07200
C 	C 	0.80701 0.59889 0.46846 0.04000
C 	C 	0.82531 0.57482 0.44596 -0.07100
C 	C 	0.80426 0.52149 0.44603 0.01500
C 	C 	0.82514 0.65227 0.46567 -0.02700
C 	C 	0.84074 0.69698 0.46297 -0.01500
C 	C 	0.85982 0.75033 0.45909 0.01900
C 	C 	0.87773 0.76907 0.42491 -0.04600
C 	C 	0.89971 0.82192 0.42204 -0.03400
C 	C 	0.90394 0.85641 0.45338 -0.00500
C 	C 	0.88429 0.83710 0.48708 -0.03400
C 	C 	0.86234 0.78419 0.48994 -0.04600
H 	H 	0.71826 0.49470 0.51055 0.03000
H 	H 	0.75536 0.58868 0.51013 0.04700
H 	H 	0.85490 0.59700 0.42771 0.04800
H 	H 	0.81751 0.50291 0.42755 0.03700
H 	H 	0.87558 0.74303 0.40085 0.04100
H 	H 	0.91469 0.83644 0.39589 0.03700
H 	H 	0.88746 0.86344 0.51145 0.03700
H 	H 	0.84827 0.76988 0.51637 0.04100
C 	C 	0.76042 0.22018 0.45009 -0.09800
C 	C 	0.81407 0.24358 0.44382 0.01600
C 	C 	0.83336 0.21267 0.43944 -0.07400
C 	C 	0.79912 0.15820 0.44109 0.04100
C 	C 	0.74484 0.13427 0.44548 -0.07400
C 	C 	0.72550 0.16506 0.44991 0.01600
C 	C 	0.82062 0.12762 0.44089 -0.02800
C 	C 	0.83821 0.10168 0.44074 -0.01500
C 	C 	0.85940 0.07086 0.44127 0.01800
C 	C 	0.85732 0.04631 0.47318 -0.04600
C 	C 	0.88066 0.01896 0.47482 -0.03400
C 	C 	0.90626 0.01601 0.44452 -0.00300
C 	C 	0.90710 0.03951 0.41213 -0.03400
C 	C 	0.88380 0.06689 0.41055 -0.04600
H 	H 	0.84144 0.28598 0.44378 0.03000
H 	H 	0.87529 0.23138 0.43577 0.04800
H 	H 	0.71797 0.09207 0.44639 0.04700
H 	H 	0.68375 0.14629 0.45405 0.02700
H 	H 	0.83836 0.04907 0.49698 0.04000
H 	H 	0.87987 0.00107 0.49997 0.03700
H 	H 	0.92652 0.03723 0.38849 0.03800
H 	H 	0.88538 0.08558 0.38572 0.04100
C 	C 	0.07976 0.03266 0.45450 -0.00300
C 	C 	0.10117 0.02111 0.42484 -0.03400
C 	C 	0.15782 0.05106 0.42702 -0.04700
C 	C 	0.19342 0.09275 0.45882 0.01900
C 	C 	0.17216 0.10464 0.48833 -0.04600
C 	C 	0.11549 0.07468 0.48620 -0.03400
C 	C 	0.25176 0.12331 0.46112 -0.01500
C 	C 	0.30056 0.14871 0.46283 -0.02700
C 	C 	0.35879 0.17913 0.46456 0.04100
C 	C 	0.38792 0.23052 0.45581 -0.07200
C 	C 	0.44429 0.25980 0.45677 0.01700
C 	C 	0.47200 0.23779 0.46652 -0.09000
C 	C 	0.44267 0.18633 0.47551 0.01700
C 	C 	0.38626 0.15713 0.47451 -0.07200
H 	H 	0.07392 0.98886 0.40020 0.03600
H 	H 	0.17400 0.04177 0.40405 0.04100
H 	H 	0.19947 0.13689 0.51297 0.04100
H 	H 	0.09936 0.08378 0.50930 0.03700
H 	H 	0.36693 0.24781 0.44819 0.04800
H 	H 	0.46640 0.29965 0.45019 0.03200
H 	H 	0.46340 0.16871 0.48283 0.02900
H 	H 	0.36393 0.11735 0.48126 0.04700
C 	C 	0.93924 0.88958 0.99632 -0.00900
C 	C 	0.92978 0.85581 0.96213 -0.03200
C 	C 	0.90237 0.80121 0.96141 -0.04700
C 	C 	0.88420 0.78002 0.99480 0.01700
C 	C 	0.89306 0.81354 0.02886 -0.04400
C 	C 	0.92051 0.86821 0.02963 -0.03000
C 	C 	0.85695 0.72398 0.99419 -0.01500
C 	C 	0.83416 0.67699 0.99336 -0.02700
C 	C 	0.80690 0.62082 0.99210 0.03900
C 	C 	0.78980 0.59903 0.02547 -0.07000
C 	C 	0.76220 0.54424 0.02404 0.01900
C 	C 	0.75143 0.51082 0.98912 -0.09200
C 	C 	0.76926 0.53298 0.95583 0.01800
C 	C 	0.79687 0.58779 0.95736 -0.07200
H 	H 	0.94386 0.87194 0.93622 0.03600
H 	H 	0.89548 0.77545 0.93495 0.04100
H 	H 	0.87900 0.79736 0.05476 0.04100
H 	H 	0.92771 0.89400 0.05617 0.03700
H 	H 	0.79766 0.62445 0.05248 0.04700
H 	H 	0.74922 0.52780 0.05005 0.02600
H 	H 	0.76097 0.50770 0.92862 0.03600
H 	H 	0.81007 0.60447 0.93146 0.04800
C 	C 	0.76445 0.22354 0.99492 -0.10500
C 	C 	0.80376 0.23298 0.97220 0.01800
C 	C 	0.83080 0.20962 0.97714 -0.08100
C 	C 	0.81904 0.17673 0.00480 0.04700
C 	C 	0.78118 0.16845 0.02840 -0.07700
C 	C 	0.75400 0.19185 0.02356 0.02400
C 	C 	0.84350 0.14909 0.00720 -0.02900
C 	C 	0.86489 0.12673 0.00822 -0.01400
C 	C 	0.89030 0.09987 0.00783 0.02200
C 	C 	0.93519 0.11754 0.03692 -0.04700
C 	C 	0.96202 0.09356 0.03503 -0.03200
C 	C 	0.94408 0.05184 0.00395 -0.00500
C 	C 	0.89886 0.03399 0.97504 -0.03500
C 	C 	0.87205 0.05790 0.97702 -0.05000
H 	H 	0.81250 0.25741 0.95009 0.01600
H 	H 	0.86015 0.21627 0.95888 0.04600
H 	H 	0.77215 0.14328 0.05004 0.05000
H 	H 	0.72456 0.18492 0.04178 0.03700
H 	H 	0.94962 0.15010 0.06077 0.04200
H 	H 	0.99672 0.10742 0.05759 0.03700
H 	H 	0.88482 0.00193 0.95088 0.03700
H 	H 	0.83753 0.04424 0.95433 0.04000
C 	C 	0.48950 0.22374 0.97242 -0.09200
C 	C 	0.46787 0.25140 0.96281 0.01300
C 	C 	0.41218 0.22760 0.96119 -0.07200
C 	C 	0.37754 0.17593 0.96882 0.04100
C 	C 	0.39822 0.14708 0.97628 -0.07200
C 	C 	0.45394 0.17076 0.97794 0.01600
C 	C 	0.32168 0.15386 0.97147 -0.02800
C 	C 	0.27490 0.13541 0.97367 -0.01500
C 	C 	0.21918 0.11324 0.97687 0.01700
C 	C 	0.17635 0.07575 0.94591 -0.04700
C 	C 	0.12199 0.05077 0.95024 -0.03200
C 	C 	0.11019 0.06312 0.98563 -0.01000
C 	C 	0.15316 0.10204 0.01613 -0.03000
C 	C 	0.20752 0.12701 0.01175 -0.04500
H 	H 	0.49438 0.29186 0.95770 0.03000
H 	H 	0.39626 0.24987 0.95496 0.04700
H 	H 	0.37144 0.10679 0.98170 0.04800
H 	H 	0.46958 0.14837 0.98448 0.03400
H 	H 	0.18510 0.06516 0.91878 0.04100
H 	H 	0.08905 0.02098 0.92645 0.03600
H 	H 	0.14444 0.11185 0.04354 0.03600
H 	H 	0.24049 0.15617 0.03575 0.04100
