data_crystal

_cell_length_a 27.41810
_cell_length_b 29.04013
_cell_length_c 44.06425
_cell_angle_alpha 60.86936
_cell_angle_beta  118.84234
_cell_angle_gamma 133.26747

_symmetry_space_group_name_	'P 1'
_symmetry_space_group_name_H-M	'P 1'

loop_
_symmetry_equiv_pos_as_xyz
  x,y,z

loop_
_atom_site_label
_atom_site_type_symbol
_atom_site_fract_x
_atom_site_fract_y
_atom_site_fract_z
_atom_site_charge
Co	Co	0.00158 0.89482 0.61679 1.18000
O 	O 	0.01041 0.82037 0.58590 -0.40900
Co	Co	0.00960 0.89455 0.11489 1.18300
C 	C 	0.02635 0.97648 0.49708 0.30700
O 	O 	0.01838 0.92192 0.51863 -0.40400
C 	C 	0.00364 0.01110 0.69672 0.29500
C 	C 	0.01979 0.99516 0.89531 0.03100
C 	C 	0.02379 0.99121 0.45957 -0.08400
C 	C 	0.02751 0.99340 0.39613 0.03000
C 	C 	0.03072 0.99008 0.36463 0.01200
C 	C 	0.02781 0.98167 0.30273 0.01100
H 	H 	0.00313 0.77128 0.66805 0.08500
N 	N 	0.02878 0.32601 0.06500 -0.19700
C 	C 	0.01795 0.99415 0.86143 0.00700
O 	O 	0.03314 0.98944 0.10923 -0.58000
O 	O 	0.01869 0.99590 0.01281 -0.39000
O 	O 	0.02770 0.01372 0.50721 -0.39300
O 	O 	0.00993 0.97904 0.68686 -0.38400
C 	C 	0.02484 0.98935 0.96232 -0.08000
C 	C 	0.01379 0.99180 0.79712 -0.01000
C 	C 	0.01423 0.99484 0.76350 0.06300
C 	C 	0.01149 0.00024 0.73383 -0.12900
N 	N 	0.01860 0.74418 0.67181 -0.20500
C 	C 	0.03084 0.97141 0.00078 0.29200
O 	O 	0.03004 0.91941 0.02046 -0.39400
O 	O 	0.01636 0.81881 0.08773 -0.41500
O 	O 	0.03651 0.94208 0.58061 -0.75600
C 	C 	0.05590 0.04583 0.33653 -0.05100
C 	C 	0.05466 0.04164 0.30580 -0.04900
H 	H 	0.03901 0.28112 0.16473 0.08100
H 	H 	0.02776 0.64125 0.19424 0.08000
C 	C 	0.06172 0.25475 0.08982 -0.02400
O 	O 	0.05899 0.08917 0.05004 -0.47600
C 	C 	0.06651 0.16039 0.12282 0.30600
Co	Co	0.05168 0.01577 0.55997 1.18000
O 	O 	0.04064 0.08574 0.54696 -0.47700
C 	C 	0.06813 0.30586 0.09137 0.05400
C 	C 	0.04317 0.16708 0.60397 0.31000
H 	H 	0.07467 0.09195 0.33808 0.03800
H 	H 	0.07201 0.08449 0.28378 0.03800
H 	H 	0.04003 0.26341 0.54936 0.03600
H 	H 	0.03716 0.35424 0.52840 0.07900
H 	H 	0.04782 0.74437 0.17576 0.04300
O 	O 	0.07643 0.14861 0.10142 -0.38700
O 	O 	0.06020 0.94845 0.08556 -0.76100
N 	N 	0.06762 0.32360 0.17272 -0.19600
H 	H 	0.06042 0.31959 0.19535 0.07800
H 	H 	0.05368 0.29437 0.64969 0.08400
Co	Co	0.07030 0.01953 0.06236 1.17900
O 	O 	0.06080 0.13680 0.60165 -0.40800
C 	C 	0.05624 0.97962 0.82915 -0.03000
H 	H 	0.06162 0.32540 0.67962 0.07800
H 	H 	0.06717 0.68180 0.68487 0.05500
C 	C 	0.09475 0.22739 0.11883 -0.11800
C 	C 	0.05817 0.98054 0.86125 -0.04200
C 	C 	0.08542 0.03692 0.44807 0.00100
Co	Co	0.08314 0.91999 0.56847 1.16800
C 	C 	0.08249 0.03675 0.91621 -0.07500
C 	C 	0.08497 0.03380 0.94957 -0.00200
C 	C 	0.08741 0.03779 0.41661 -0.07600
N 	N 	0.06773 0.36699 0.55284 -0.19200
C 	C 	0.07519 0.27858 0.57402 -0.01800
H 	H 	0.07533 0.40432 0.55680 0.08400
O 	O 	0.07340 0.86663 0.15416 -0.38600
O 	O 	0.08748 0.89773 0.65323 -0.39800
N 	N 	0.07858 0.33379 0.65952 -0.19600
C 	C 	0.08615 0.77156 0.67785 0.12600
N 	N 	0.08055 0.66395 0.20017 -0.19100
H 	H 	0.02529 0.35755 0.06750 0.08300
O 	O 	0.02939 0.11295 0.14666 -0.40100
H 	H 	0.02646 0.23271 0.06728 0.04300
C 	C 	0.01266 0.97470 0.26831 0.03200
Co	Co	0.00951 0.06295 0.08421 1.18000
Co	Co	0.09376 0.91682 0.07093 1.16800
H 	H 	0.08796 0.96981 0.82921 0.03900
H 	H 	0.09078 0.97067 0.88592 0.04000
C 	C 	0.00693 0.93071 0.36225 -0.04500
C 	C 	0.09233 0.23733 0.60252 -0.11900
C 	C 	0.00517 0.92650 0.33133 -0.04200
C 	C 	0.09418 0.33378 0.57894 0.05300
H 	H 	0.09714 0.63464 0.21063 0.08400
O 	O 	0.99841 0.05872 0.67365 -0.39000
C 	C 	0.11368 0.33397 0.12107 0.00500
H 	H 	0.89668 0.82853 0.00878 0.10200
C 	C 	0.75789 0.31282 0.02869 0.05100
C 	C 	0.79008 0.37926 0.02361 -0.09500
C 	C 	0.76712 0.39700 0.03575 0.05100
C 	C 	0.70962 0.34855 0.05073 -0.09200
C 	C 	0.67570 0.28255 0.05451 0.05200
C 	C 	0.70060 0.26468 0.04404 -0.09300
H 	H 	0.83359 0.41662 0.01123 0.05400
H 	H 	0.69029 0.36238 0.05874 0.05600
H 	H 	0.67512 0.21356 0.04749 0.05300
C 	C 	0.73062 0.29866 0.53698 0.05200
C 	C 	0.67748 0.25068 0.55526 -0.09400
C 	C 	0.65370 0.26869 0.56644 0.05200
C 	C 	0.68527 0.33490 0.56058 -0.09300
C 	C 	0.73944 0.38296 0.54316 0.05300
C 	C 	0.76020 0.36479 0.52998 -0.09600
H 	H 	0.65416 0.19956 0.56034 0.05300
H 	H 	0.66695 0.34908 0.56907 0.05600
H 	H 	0.80091 0.40190 0.51562 0.05500
C 	C 	0.27442 0.63495 0.18494 0.05200
C 	C 	0.34366 0.66486 0.18843 -0.09500
C 	C 	0.36011 0.64351 0.17469 0.05300
C 	C 	0.30786 0.58828 0.16088 -0.09400
C 	C 	0.23874 0.55739 0.15797 0.05300
C 	C 	0.22203 0.58042 0.17027 -0.09600
H 	H 	0.38416 0.70760 0.19923 0.05600
H 	H 	0.32084 0.57066 0.15123 0.05700
H 	H 	0.16847 0.55782 0.16707 0.05300
C 	C 	0.26185 0.63616 0.68116 0.05100
C 	C 	0.21935 0.58482 0.66447 -0.09500
C 	C 	0.24828 0.56385 0.65989 0.05100
C 	C 	0.31918 0.59329 0.67268 -0.09200
C 	C 	0.36182 0.64463 0.68915 0.05100
C 	C 	0.33283 0.66516 0.69401 -0.09400
H 	H 	0.16465 0.56283 0.65416 0.05300
H 	H 	0.34157 0.57773 0.66863 0.05800
H 	H 	0.36571 0.70516 0.70655 0.05400
Co	Co	0.95247 0.93878 0.13806 1.18800
C 	C 	0.20696 0.05855 0.06677 0.31400
Co	Co	0.92740 0.03922 0.13060 1.16400
C 	C 	0.95203 0.79755 0.07901 0.32000
O 	O 	0.92543 0.10247 0.08093 -0.41400
O 	O 	0.97126 0.01375 0.11901 -0.76500
C 	C 	0.90266 0.08679 0.05122 0.31400
O 	O 	0.95321 0.86460 0.14616 -0.46800
C 	C 	0.81276 0.90328 0.12337 0.30700
C 	C 	0.12431 0.87482 0.15032 0.30800
O 	O 	0.92352 0.05993 0.04807 -0.40400
O 	O 	0.82918 0.96246 0.11280 -0.39200
O 	O 	0.84742 0.89254 0.11816 -0.40300
O 	O 	0.15262 0.91672 0.12269 -0.39800
C 	C 	0.97233 0.96925 0.20153 0.31500
O 	O 	0.92405 0.97798 0.18150 -0.40500
O 	O 	0.98770 0.94639 0.19053 -0.38700
O 	O 	0.17133 0.01166 0.05121 -0.42000
O 	O 	0.17625 0.07472 0.07101 -0.40000
O 	O 	0.93674 0.82747 0.08386 -0.40500
Co	Co	0.94927 0.94392 0.64034 1.19000
Co	Co	0.98669 0.05765 0.57904 1.18800
C 	C 	0.19167 0.05940 0.57107 0.31600
Co	Co	0.91770 0.04191 0.62897 1.16500
C 	C 	0.94614 0.79418 0.58285 0.31600
O 	O 	0.84354 0.02326 0.58188 -0.40000
O 	O 	0.94952 0.00944 0.61396 -0.77200
C 	C 	0.86064 0.05943 0.55073 0.30200
O 	O 	0.95974 0.87350 0.65325 -0.46500
C 	C 	0.81893 0.89538 0.65086 0.31600
O 	O 	0.97400 0.96561 0.59078 -0.57800
C 	C 	0.11931 0.88471 0.64726 0.30900
O 	O 	0.90780 0.06777 0.54274 -0.38600
O 	O 	0.85561 0.95029 0.65949 -0.40600
O 	O 	0.84586 0.88413 0.63961 -0.39400
O 	O 	0.97852 0.13787 0.60145 -0.40700
O 	O 	0.14550 0.91936 0.61918 -0.39900
O 	O 	0.15966 0.01832 0.55198 -0.41900
O 	O 	0.15641 0.06406 0.58032 -0.41400
O 	O 	0.93188 0.81015 0.59937 -0.39500
C 	C 	0.96144 0.95120 0.94029 0.02100
C 	C 	0.95894 0.95369 0.90706 -0.06300
C 	C 	0.97317 0.00471 0.79736 -0.03500
C 	C 	0.97538 0.00609 0.82930 -0.04800
H 	H 	0.91456 0.91727 0.94966 0.02800
H 	H 	0.91006 0.92198 0.89098 0.04600
H 	H 	0.12954 0.07011 0.90706 0.04300
H 	H 	0.13420 0.06360 0.96631 0.02800
H 	H 	0.94045 0.01445 0.77268 0.03500
H 	H 	0.94434 0.01687 0.82903 0.03700
C 	C 	0.96309 0.94964 0.43795 0.02200
C 	C 	0.96486 0.95082 0.40634 -0.06300
C 	C 	0.99661 0.97080 0.23839 -0.09400
H 	H 	0.91513 0.91443 0.44644 0.02700
H 	H 	0.91794 0.91747 0.39030 0.04600
H 	H 	0.13593 0.07137 0.40884 0.04400
H 	H 	0.13263 0.06916 0.46458 0.03000
H 	H 	0.98415 0.87990 0.32920 0.04500
H 	H 	0.98856 0.88760 0.38402 0.04300
C 	C 	0.14155 0.25907 0.63374 0.12800
C 	C 	0.16445 0.31671 0.63792 -0.10100
C 	C 	0.13790 0.35199 0.61172 0.00600
N 	N 	0.16558 0.22405 0.66012 -0.20500
H 	H 	0.20072 0.33259 0.66227 0.05700
C 	C 	0.15493 0.40673 0.61937 -0.01400
C 	C 	0.20040 0.47103 0.60197 -0.08100
C 	C 	0.22236 0.52378 0.61106 0.08500
C 	C 	0.20507 0.51207 0.64082 -0.03800
C 	C 	0.15606 0.44798 0.65664 -0.06700
C 	C 	0.12913 0.39516 0.64540 0.07300
H 	H 	0.21814 0.48001 0.58109 0.05100
N 	N 	0.26005 0.58548 0.59128 -0.19800
H 	H 	0.14070 0.43898 0.67858 0.04400
H 	H 	0.27523 0.59418 0.57028 0.08100
H 	H 	0.27180 0.62487 0.59550 0.08400
H 	H 	0.15219 0.18297 0.65696 0.10000
H 	H 	0.19985 0.23895 0.68377 0.08500
C 	C 	0.43764 0.68176 0.69729 -0.03700
C 	C 	0.46893 0.64882 0.71633 0.08500
C 	C 	0.53317 0.67868 0.71184 -0.08100
C 	C 	0.56995 0.74348 0.69209 -0.01400
C 	C 	0.54357 0.77987 0.67819 0.07500
C 	C 	0.47668 0.74811 0.67996 -0.06700
N 	N 	0.43757 0.58884 0.73890 -0.19800
H 	H 	0.55465 0.65158 0.72379 0.05100
C 	C 	0.63242 0.77081 0.68320 0.00600
N 	N 	0.58203 0.84500 0.66306 -0.19600
H 	H 	0.45393 0.77435 0.66652 0.04600
C 	C 	0.62949 0.78166 0.64782 -0.10000
C 	C 	0.68991 0.81772 0.63691 0.12800
C 	C 	0.75386 0.84084 0.66230 -0.11600
C 	C 	0.75525 0.82234 0.69849 -0.01700
C 	C 	0.69569 0.78982 0.70908 0.05500
H 	H 	0.58048 0.76482 0.62835 0.05600
N 	N 	0.68636 0.83134 0.60197 -0.20600
H 	H 	0.80411 0.83830 0.71808 0.04300
N 	N 	0.70023 0.77940 0.74370 -0.19200
H 	H 	0.63916 0.81587 0.58320 0.08300
H 	H 	0.72994 0.85626 0.59320 0.09700
H 	H 	0.74711 0.79308 0.76260 0.08300
H 	H 	0.65804 0.75899 0.75214 0.08600
H 	H 	0.56119 0.87099 0.65158 0.08200
H 	H 	0.63371 0.87093 0.66388 0.08800
H 	H 	0.39294 0.56823 0.74514 0.08500
H 	H 	0.45948 0.56356 0.75176 0.08100
C 	C 	0.23318 0.66331 0.68269 -0.03800
C 	C 	0.22890 0.71312 0.65410 0.08500
C 	C 	0.20924 0.74322 0.65810 -0.07900
C 	C 	0.19457 0.72518 0.69013 -0.01400
C 	C 	0.19764 0.67461 0.71852 0.07200
C 	C 	0.21644 0.64382 0.71436 -0.06700
N 	N 	0.24408 0.73262 0.62292 -0.19800
H 	H 	0.20605 0.78143 0.63628 0.05100
C 	C 	0.17586 0.75979 0.69336 0.00500
N 	N 	0.18387 0.65618 0.74993 -0.19600
H 	H 	0.21983 0.60574 0.73621 0.04500
C 	C 	0.10608 0.73253 0.68597 -0.10000
C 	C 	0.13653 0.83938 0.67490 -0.11700
C 	C 	0.20628 0.86368 0.68848 -0.01600
C 	C 	0.22655 0.82438 0.69763 0.05500
H 	H 	0.24513 0.91480 0.68874 0.04100
N 	N 	0.29447 0.84921 0.70971 -0.19100
H 	H 	0.98117 0.69452 0.67251 0.08900
H 	H 	0.33186 0.89770 0.71153 0.08100
H 	H 	0.31056 0.82002 0.71852 0.08600
H 	H 	0.18600 0.61864 0.77066 0.08000
H 	H 	0.17153 0.67912 0.75426 0.08500
H 	H 	0.25835 0.71107 0.61885 0.08500
H 	H 	0.24134 0.76979 0.60212 0.08000
C 	C 	0.18408 0.50136 0.14147 -0.03900
C 	C 	0.18377 0.50611 0.10790 0.08600
C 	C 	0.15650 0.44999 0.10007 -0.08200
C 	C 	0.12322 0.38876 0.12365 -0.01400
C 	C 	0.11025 0.38310 0.15317 0.07200
C 	C 	0.14270 0.43976 0.16252 -0.06700
N 	N 	0.21094 0.56454 0.08362 -0.19800
H 	H 	0.16324 0.45418 0.07632 0.05100
H 	H 	0.13904 0.43587 0.18721 0.04400
C 	C 	0.15295 0.31149 0.14804 -0.10100
C 	C 	0.14359 0.25812 0.14729 0.13000
H 	H 	0.19023 0.33510 0.16992 0.05700
N 	N 	0.18196 0.23694 0.17373 -0.20500
H 	H 	0.21649 0.25855 0.19531 0.08300
H 	H 	0.17954 0.20038 0.17249 0.09400
H 	H 	0.99867 0.30784 0.04217 0.09000
H 	H 	0.22712 0.60603 0.08790 0.08400
H 	H 	0.21334 0.56833 0.05947 0.08100
C 	C 	0.43150 0.68080 0.17268 -0.03700
C 	C 	0.46294 0.74267 0.14832 0.08600
C 	C 	0.52649 0.77192 0.14333 -0.07900
C 	C 	0.55463 0.73729 0.15842 -0.01400
C 	C 	0.52252 0.67493 0.18213 0.07400
C 	C 	0.46385 0.64943 0.19079 -0.06700
N 	N 	0.43138 0.77301 0.12870 -0.19800
H 	H 	0.55217 0.82039 0.12593 0.05200
C 	C 	0.61878 0.76782 0.14992 0.00700
N 	N 	0.54587 0.63827 0.19541 -0.19600
H 	H 	0.43994 0.60229 0.20952 0.04600
C 	C 	0.67934 0.78526 0.17707 -0.10100
C 	C 	0.74236 0.82126 0.16900 0.12700
C 	C 	0.74632 0.84771 0.13292 -0.11700
C 	C 	0.68569 0.82804 0.10584 -0.01500
C 	C 	0.62142 0.78564 0.11426 0.05300
H 	H 	0.67720 0.77002 0.20455 0.05800
N 	N 	0.79846 0.82903 0.19586 -0.20300
H 	H 	0.68856 0.84644 0.07820 0.04000
N 	N 	0.56269 0.76184 0.08824 -0.19100
H 	H 	0.79660 0.81331 0.22249 0.08800
H 	H 	0.84243 0.84607 0.19066 0.08800
H 	H 	0.56512 0.77747 0.06173 0.08100
H 	H 	0.51440 0.72537 0.09432 0.08600
H 	H 	0.52355 0.59352 0.21403 0.08100
H 	H 	0.58376 0.65200 0.18613 0.08700
H 	H 	0.38060 0.74959 0.12814 0.08500
H 	H 	0.45660 0.81984 0.11211 0.08200
C 	C 	0.25652 0.66800 0.18997 -0.03800
C 	C 	0.26021 0.66346 0.22441 0.08500
C 	C 	0.24272 0.69605 0.22776 -0.08100
C 	C 	0.22015 0.73146 0.19735 -0.01300
C 	C 	0.21756 0.73673 0.16297 0.07600
C 	C 	0.23588 0.70496 0.15972 -0.06800
N 	N 	0.27955 0.62741 0.25419 -0.19800
H 	H 	0.24510 0.69257 0.25402 0.05000
C 	C 	0.19733 0.76123 0.20153 0.00600
N 	N 	0.19760 0.77223 0.13303 -0.19500
H 	H 	0.23399 0.70889 0.13345 0.04500
C 	C 	0.24437 0.82711 0.20239 -0.10300
C 	C 	0.22069 0.86460 0.19060 0.13000
C 	C 	0.14931 0.83546 0.17741 -0.11800
C 	C 	0.10273 0.76739 0.18354 -0.02200
C 	C 	0.12632 0.72971 0.19572 0.05500
H 	H 	0.29921 0.85032 0.20940 0.05700
N 	N 	0.26633 0.92825 0.19181 -0.20500
H 	H 	0.31924 0.95009 0.20066 0.08400
H 	H 	0.24944 0.95572 0.18541 0.09600
H 	H 	0.19516 0.77509 0.10781 0.07900
H 	H 	0.18497 0.79780 0.13435 0.08500
H 	H 	0.29103 0.60113 0.25259 0.08500
H 	H 	0.28260 0.62480 0.27950 0.08100
C 	C 	0.75622 0.27942 0.52588 -0.03800
C 	C 	0.81159 0.27483 0.54859 0.08600
C 	C 	0.82710 0.24611 0.54002 -0.08000
C 	C 	0.78822 0.22174 0.50938 -0.01400
C 	C 	0.73685 0.23139 0.48516 0.07200
C 	C 	0.72080 0.25958 0.49387 -0.06700
N 	N 	0.84920 0.29684 0.57889 -0.19800
H 	H 	0.86775 0.24022 0.55803 0.05200
C 	C 	0.79577 0.17905 0.50561 0.00500
N 	N 	0.70318 0.21410 0.45355 -0.19600
H 	H 	0.67963 0.26478 0.47606 0.04500
C 	C 	0.74669 0.11126 0.51464 -0.10400
C 	C 	0.76316 0.06915 0.52360 0.12800
C 	C 	0.83087 0.09572 0.52550 -0.11800
C 	C 	0.87524 0.16245 0.51046 -0.02000
C 	C 	0.85779 0.20445 0.50011 0.05500
H 	H 	0.69710 0.09143 0.51651 0.05400
N 	N 	0.71423 0.00356 0.53050 -0.21600
H 	H 	0.92549 0.18249 0.50940 0.04400
N 	N 	0.90088 0.26893 0.48540 -0.19200
H 	H 	0.66511 0.98401 0.53063 0.09100
H 	H 	0.72364 0.97172 0.53409 0.10300
H 	H 	0.94724 0.28764 0.48197 0.08000
H 	H 	0.88741 0.30045 0.47595 0.08500
H 	H 	0.66383 0.21953 0.43628 0.07900
H 	H 	0.71724 0.19720 0.44529 0.08400
H 	H 	0.83942 0.31885 0.58598 0.08300
H 	H 	0.88957 0.29266 0.59562 0.08100
C 	C 	0.89133 0.73383 0.57040 -0.11700
C 	C 	0.87658 0.73540 0.53464 0.12800
C 	C 	0.84974 0.67980 0.52641 -0.10200
C 	C 	0.82831 0.62043 0.55236 0.00700
C 	C 	0.83130 0.61636 0.58654 0.05400
C 	C 	0.86481 0.67370 0.59561 -0.01500
N 	N 	0.88516 0.78905 0.50806 -0.20500
H 	H 	0.84458 0.68245 0.49971 0.05700
C 	C 	0.81060 0.56524 0.54502 -0.01400
N 	N 	0.80234 0.55786 0.61058 -0.19100
H 	H 	0.87241 0.67178 0.62262 0.04000
C 	C 	0.85506 0.54647 0.56360 -0.07900
C 	C 	0.83587 0.48931 0.56113 0.08600
C 	C 	0.77260 0.45236 0.53796 -0.03800
C 	C 	0.73311 0.47645 0.51566 -0.06700
C 	C 	0.74943 0.53057 0.52025 0.07400
H 	H 	0.90330 0.57476 0.58141 0.05300
N 	N 	0.87746 0.46941 0.58167 -0.19800
H 	H 	0.68575 0.44911 0.49716 0.04600
N 	N 	0.70482 0.54710 0.50200 -0.19600
H 	H 	0.92330 0.49637 0.59920 0.08200
H 	H 	0.86542 0.42769 0.58024 0.08300
H 	H 	0.66074 0.52215 0.48315 0.08100
H 	H 	0.71197 0.58312 0.50709 0.08600
H 	H 	0.80729 0.55555 0.63625 0.08000
H 	H 	0.77222 0.51409 0.60356 0.08500
H 	H 	0.89224 0.82561 0.51258 0.09700
H 	H 	0.87876 0.79192 0.48196 0.08600
C 	C 	0.26699 0.09782 0.58334 -0.12000
C 	C 	0.30888 0.15572 0.56030 0.13000
C 	C 	0.37623 0.17800 0.56586 -0.10100
C 	C 	0.40145 0.14249 0.59358 0.00600
C 	C 	0.36226 0.08887 0.61902 0.05400
C 	C 	0.29611 0.06863 0.61425 -0.02300
N 	N 	0.28440 0.18948 0.53258 -0.20500
H 	H 	0.40775 0.22104 0.54744 0.05600
C 	C 	0.46508 0.15785 0.59330 -0.01400
N 	N 	0.38666 0.05539 0.64727 -0.19200
H 	H 	0.26544 0.02705 0.63332 0.04500
C 	C 	0.52710 0.19354 0.61675 -0.08200
C 	C 	0.59009 0.22100 0.61187 0.08500
C 	C 	0.59119 0.21855 0.58092 -0.03800
C 	C 	0.52903 0.17702 0.55982 -0.06800
C 	C 	0.46583 0.14507 0.56642 0.07400
H 	H 	0.52639 0.20072 0.63845 0.05000
N 	N 	0.64922 0.24977 0.63673 -0.19800
H 	H 	0.52967 0.17228 0.53709 0.04500
N 	N 	0.40614 0.10301 0.54664 -0.19500
H 	H 	0.64856 0.25386 0.65880 0.08000
H 	H 	0.69572 0.26559 0.63518 0.08400
H 	H 	0.40692 0.09581 0.52588 0.07800
H 	H 	0.35881 0.07516 0.55261 0.08500
H 	H 	0.35694 0.01554 0.66568 0.07600
H 	H 	0.43503 0.06828 0.65128 0.08200
H 	H 	0.23586 0.17591 0.52903 0.09100
H 	H 	0.31482 0.23109 0.51488 0.08300
C 	C 	0.78448 0.29307 0.01846 -0.03700
C 	C 	0.83382 0.28089 0.04346 0.08500
C 	C 	0.84610 0.24790 0.03622 -0.08100
C 	C 	0.81187 0.22882 0.00401 -0.01200
C 	C 	0.76611 0.24499 0.97793 0.07100
C 	C 	0.75256 0.27667 0.98553 -0.06700
N 	N 	0.86909 0.30018 0.07455 -0.19800
H 	H 	0.88113 0.23551 0.05614 0.05200
C 	C 	0.82093 0.18791 0.99920 0.00400
N 	N 	0.73507 0.23029 0.94570 -0.19600
H 	H 	0.71548 0.28679 0.96619 0.04600
C 	C 	0.77540 0.11976 0.00972 -0.10100
C 	C 	0.79624 0.08083 0.01902 0.12700
C 	C 	0.86460 0.11107 0.01989 -0.11900
C 	C 	0.90308 0.17677 0.00149 -0.01800
C 	C 	0.88206 0.21595 0.99143 0.05300
H 	H 	0.72595 0.09743 0.01308 0.05300
N 	N 	0.75244 0.01493 0.02972 -0.21800
H 	H 	0.95335 0.19925 0.99911 0.03700
N 	N 	0.92114 0.28024 0.97507 -0.19300
H 	H 	0.70291 0.99259 0.03083 0.09300
H 	H 	0.76671 0.98537 0.03597 0.10500
H 	H 	0.96749 0.30126 0.97050 0.08100
H 	H 	0.90488 0.30943 0.96591 0.08500
H 	H 	0.70033 0.24124 0.92687 0.08000
H 	H 	0.74614 0.20922 0.93870 0.08400
H 	H 	0.86290 0.32661 0.08026 0.08400
H 	H 	0.90474 0.29022 0.09307 0.08200
C 	C 	0.80013 0.46646 0.03111 -0.03700
C 	C 	0.86010 0.50133 0.05627 0.08600
C 	C 	0.87555 0.55582 0.06004 -0.07900
C 	C 	0.83032 0.57384 0.04063 -0.01400
C 	C 	0.77258 0.54129 0.01402 0.07400
C 	C 	0.76107 0.49089 0.00798 -0.06600
N 	N 	0.90219 0.48211 0.07733 -0.19800
H 	H 	0.92142 0.58258 0.07926 0.05300
C 	C 	0.84438 0.62709 0.04839 0.00700
N 	N 	0.72622 0.55569 0.99554 -0.19600
H 	H 	0.71651 0.46552 0.98789 0.04600
C 	C 	0.86238 0.68616 0.02240 -0.10100
C 	C 	0.88377 0.73959 0.03058 0.13000
C 	C 	0.89721 0.73718 0.06634 -0.11900
C 	C 	0.87432 0.67699 0.09167 -0.01600
C 	C 	0.84557 0.62116 0.08262 0.05400
H 	H 	0.85887 0.69029 0.99571 0.05700
N 	N 	0.89039 0.79264 0.00403 -0.20400
H 	H 	0.88186 0.67419 0.11889 0.03800
N 	N 	0.81921 0.56235 0.10672 -0.19100
H 	H 	0.88445 0.79615 0.97788 0.08700
H 	H 	0.82304 0.55886 0.13242 0.08100
H 	H 	0.79186 0.51930 0.09966 0.08500
H 	H 	0.68540 0.53321 0.97503 0.08100
H 	H 	0.72807 0.58664 0.00240 0.08700
H 	H 	0.89355 0.44326 0.07449 0.08400
H 	H 	0.94525 0.50705 0.09649 0.08200
C 	C 	0.61039 0.23274 0.06652 -0.03800
C 	C 	0.60682 0.23015 0.09836 0.08500
C 	C 	0.54292 0.20151 0.10272 -0.08100
C 	C 	0.48207 0.16959 0.07759 -0.01400
C 	C 	0.48492 0.16345 0.04860 0.07400
C 	C 	0.54927 0.19654 0.04283 -0.06700
N 	N 	0.66443 0.25481 0.12476 -0.19800
H 	H 	0.54050 0.20392 0.12571 0.05000
C 	C 	0.41659 0.14775 0.08007 0.00600
N 	N 	0.42628 0.12618 0.02626 -0.19600
H 	H 	0.55176 0.19634 0.01907 0.04500
C 	C 	0.38912 0.18288 0.05558 -0.10100
C 	C 	0.32190 0.15775 0.05292 0.13000
C 	C 	0.28261 0.09745 0.07609 -0.11800
C 	C 	0.31356 0.06689 0.10351 -0.02600
C 	C 	0.37926 0.09003 0.10501 0.05400
H 	H 	0.41890 0.22836 0.03739 0.05600
N 	N 	0.29506 0.19101 0.02766 -0.20600
H 	H 	0.28421 0.02189 0.12199 0.04000
N 	N 	0.40485 0.05531 0.12948 -0.19200
H 	H 	0.32378 0.23455 0.01000 0.08300
H 	H 	0.24626 0.17491 0.02577 0.09500
H 	H 	0.37650 0.01246 0.14754 0.07600
H 	H 	0.45242 0.06973 0.13060 0.08300
H 	H 	0.42881 0.12385 0.00417 0.07900
H 	H 	0.37792 0.09725 0.03133 0.08500
H 	H 	0.71135 0.27095 0.12359 0.08400
H 	H 	0.66202 0.25524 0.14757 0.08000
