data_crystal

_cell_length_a 26.03860
_cell_length_b 26.46328
_cell_length_c 26.60268
_cell_angle_alpha 95.46982
_cell_angle_beta  95.47159
_cell_angle_gamma 125.82002

_symmetry_space_group_name_	'P 1'
_symmetry_space_group_name_H-M	'P 1'

loop_
_symmetry_equiv_pos_as_xyz
  x,y,z

loop_
_atom_site_label
_atom_site_type_symbol
_atom_site_fract_x
_atom_site_fract_y
_atom_site_fract_z
_atom_site_charge
C 	C 	0.98056 0.03422 0.00947 0.11700
N 	N 	0.94405 0.97052 0.00758 -0.13700
C 	C 	0.97102 0.93968 0.00359 0.10800
N 	N 	0.03516 0.97287 0.00414 -0.13600
C 	C 	0.07244 0.03685 0.00846 0.12000
N 	N 	0.04499 0.06748 0.01027 -0.14200
C 	C 	0.92214 0.99113 0.45363 0.13200
N 	N 	0.98741 0.02950 0.46019 -0.14300
C 	C 	0.02022 0.00441 0.46224 0.12300
N 	N 	0.98784 0.94090 0.45806 -0.13700
C 	C 	0.92252 0.90220 0.45098 0.12500
N 	N 	0.88952 0.92733 0.44899 -0.14000
Cu	Cu	0.65941 0.25633 0.00460 0.92200
Cu	Cu	0.71184 0.25152 0.89913 0.86900
Cu	Cu	0.68523 0.34259 0.92597 0.89600
Cu	Cu	0.65492 0.37316 0.02714 0.88800
C 	C 	0.66106 0.30275 0.10683 0.28400
O 	O 	0.56416 0.21231 0.00412 -0.37900
C 	C 	0.66698 0.28654 0.81729 0.28000
O 	O 	0.70562 0.35247 0.99922 -0.62000
O 	O 	0.64743 0.25217 0.92924 -0.63700
O 	O 	0.70671 0.21832 0.00992 -0.38800
O 	O 	0.77391 0.28184 0.95968 -0.44500
O 	O 	0.66526 0.35282 0.09617 -0.38500
O 	O 	0.72827 0.43238 0.92767 -0.37600
C 	C 	0.72392 0.46883 0.96168 0.29400
C 	C 	0.53542 0.23683 0.98816 0.30400
O 	O 	0.56922 0.29280 0.97536 -0.39000
O 	O 	0.67897 0.44400 0.99016 -0.38800
O 	O 	0.68126 0.27653 0.07804 -0.36400
C 	C 	0.76139 0.24475 0.99329 0.32600
O 	O 	0.67643 0.33332 0.85033 -0.38100
O 	O 	0.66837 0.24153 0.83306 -0.42000
H 	H 	0.75231 0.38241 0.01382 0.15400
H 	H 	0.60262 0.22149 0.90998 0.17700
Cu	Cu	0.70944 0.32078 0.42444 0.92400
Cu	Cu	0.74212 0.29441 0.53766 0.87500
Cu	Cu	0.62406 0.30363 0.50231 0.91000
Cu	Cu	0.59445 0.33040 0.40177 0.89400
C 	C 	0.64997 0.30175 0.31972 0.28400
O 	O 	0.75334 0.41422 0.42178 -0.35600
C 	C 	0.65768 0.29050 0.60109 0.28200
O 	O 	0.61258 0.27870 0.42970 -0.64000
O 	O 	0.71563 0.33809 0.50018 -0.63000
O 	O 	0.74100 0.26714 0.41878 -0.36700
O 	O 	0.80408 0.30843 0.49842 -0.42700
O 	O 	0.62830 0.33327 0.33693 -0.38400
O 	O 	0.53404 0.26389 0.50243 -0.37700
C 	C 	0.49509 0.26403 0.46697 0.29500
C 	C 	0.73171 0.44427 0.44196 0.28800
O 	O 	0.67526 0.41177 0.45580 -0.39700
O 	O 	0.51733 0.30245 0.43340 -0.39500
O 	O 	0.68637 0.29385 0.35105 -0.36000
C 	C 	0.78479 0.27269 0.45310 0.29600
O 	O 	0.63902 0.31938 0.57653 -0.37600
O 	O 	0.67170 0.25651 0.57524 -0.42900
H 	H 	0.58029 0.23258 0.41649 0.16100
H 	H 	0.74516 0.38400 0.51490 0.15900
C 	C 	0.67674 0.34163 0.74324 -0.01600
C 	C 	0.65664 0.28567 0.76141 -0.06700
C 	C 	0.63153 0.22998 0.72599 -0.01600
C 	C 	0.63018 0.23117 0.67350 -0.01100
C 	C 	0.65307 0.28777 0.65566 -0.07500
C 	C 	0.67474 0.34256 0.69059 -0.01100
H 	H 	0.69581 0.38489 0.76992 0.04600
H 	H 	0.61421 0.18602 0.73916 0.03900
H 	H 	0.61193 0.18820 0.64676 0.03700
H 	H 	0.69207 0.38641 0.67718 0.03600
C 	C 	0.59861 0.27982 0.17718 -0.01200
C 	C 	0.65136 0.28844 0.15863 -0.06300
C 	C 	0.69904 0.29216 0.19202 -0.00900
C 	C 	0.69661 0.29241 0.24438 -0.01000
C 	C 	0.64629 0.28876 0.26369 -0.06400
C 	C 	0.59587 0.27963 0.22937 -0.01200
H 	H 	0.56091 0.27569 0.15148 0.03200
H 	H 	0.73968 0.29819 0.17798 0.04500
H 	H 	0.73540 0.29851 0.27017 0.04900
H 	H 	0.55577 0.27479 0.24344 0.03200
C 	C 	0.84943 0.62348 0.46542 -0.07500
C 	C 	0.81272 0.63823 0.43761 0.01800
C 	C 	0.75145 0.58900 0.40842 -0.00800
C 	C 	0.72686 0.52578 0.40839 0.00100
C 	C 	0.76247 0.51088 0.43761 -0.09400
C 	C 	0.82451 0.56008 0.46578 0.05800
C 	C 	0.83822 0.70534 0.44011 0.00300
S 	S 	0.70429 0.60594 0.37300 -0.04000
H 	H 	0.67930 0.48801 0.38640 0.02600
S 	S 	0.87037 0.54312 0.50310 -0.05700
H 	H 	0.89680 0.66134 0.48760 0.05400
C 	C 	0.82987 0.73718 0.48035 0.00700
C 	C 	0.85475 0.80085 0.48213 -0.03400
C 	C 	0.88775 0.83309 0.44403 -0.03000
C 	C 	0.89344 0.80033 0.40255 0.03000
C 	C 	0.86937 0.73698 0.40115 -0.05900
S 	S 	0.78867 0.69794 0.52873 -0.04200
H 	H 	0.84992 0.82578 0.51388 0.04700
S 	S 	0.92883 0.83756 0.35141 -0.04100
H 	H 	0.87442 0.71209 0.36953 0.05100
H 	H 	0.85516 0.53829 0.55117 0.02900
H 	H 	0.83136 0.70326 0.56723 0.03600
H 	H 	0.88278 0.83071 0.31550 0.03800
H 	H 	0.66882 0.61257 0.40414 0.03700
C 	C 	0.76574 0.11855 0.43947 -0.07900
C 	C 	0.82981 0.14065 0.44163 0.01900
C 	C 	0.87852 0.20584 0.44416 -0.01100
C 	C 	0.86293 0.24838 0.44621 0.00200
C 	C 	0.79910 0.22654 0.44563 -0.10600
C 	C 	0.75018 0.16105 0.44216 0.06100
C 	C 	0.84603 0.09584 0.44458 0.00100
S 	S 	0.95930 0.23485 0.44591 -0.03800
H 	H 	0.90062 0.29861 0.44905 0.03600
S 	S 	0.67000 0.13209 0.44413 -0.09500
H 	H 	0.72827 0.06843 0.43746 0.05400
C 	C 	0.86173 0.08486 0.49251 0.00800
C 	C 	0.88206 0.04636 0.49478 -0.03400
C 	C 	0.88707 0.01875 0.44968 -0.03500
C 	C 	0.86812 0.02702 0.40159 0.02600
C 	C 	0.84755 0.06536 0.39928 -0.05800
S 	S 	0.85809 0.12066 0.54998 -0.05000
H 	H 	0.89639 0.03986 0.53179 0.04400
S 	S 	0.87178 0.99116 0.34417 -0.03300
H 	H 	0.83430 0.07280 0.36233 0.04900
H 	H 	0.63735 0.11744 0.39515 0.04400
H 	H 	0.91562 0.17944 0.56697 0.03400
H 	H 	0.93171 0.03086 0.33229 0.03600
H 	H 	0.98870 0.24818 0.49587 0.03400
C 	C 	0.33229 0.22255 0.48193 -0.07600
C 	C 	0.29388 0.15614 0.47080 0.01700
C 	C 	0.32216 0.12534 0.46009 -0.00700
C 	C 	0.38825 0.16123 0.45984 -0.00300
C 	C 	0.42646 0.22765 0.46987 -0.09400
C 	C 	0.39848 0.25848 0.48195 0.06000
C 	C 	0.22390 0.11924 0.46943 0.00300
S 	S 	0.27530 0.04195 0.44710 -0.04200
H 	H 	0.40987 0.13749 0.45119 0.03000
S 	S 	0.44604 0.34174 0.49896 -0.04500
H 	H 	0.31063 0.24620 0.49078 0.05300
C 	C 	0.19808 0.09989 0.51402 0.00600
C 	C 	0.13133 0.06295 0.51137 -0.03400
C 	C 	0.09009 0.04523 0.46465 -0.03100
C 	C 	0.11595 0.06506 0.42017 0.03100
C 	C 	0.18267 0.10219 0.42286 -0.06000
S 	S 	0.24880 0.12117 0.57315 -0.04100
H 	H 	0.11142 0.04767 0.54559 0.04500
S 	S 	0.06517 0.04236 0.36069 -0.04800
H 	H 	0.20256 0.11710 0.38856 0.04900
H 	H 	0.44896 0.36674 0.45560 0.03800
H 	H 	0.26796 0.17893 0.59814 0.03700
H 	H 	0.04741 0.98497 0.33619 0.04300
H 	H 	0.27228 0.02057 0.49244 0.03800
C 	C 	0.85997 0.64318 0.97439 -0.07200
C 	C 	0.82539 0.66816 0.96796 0.01500
C 	C 	0.75757 0.62694 0.95514 -0.00500
C 	C 	0.72500 0.56150 0.95086 -0.00000
C 	C 	0.75941 0.53661 0.95950 -0.09100
C 	C 	0.82741 0.57775 0.97056 0.05400
C 	C 	0.86047 0.73764 0.97711 0.01400
S 	S 	0.71291 0.65685 0.94584 -0.03300
H 	H 	0.67274 0.52996 0.94183 0.04300
S 	S 	0.87220 0.54834 0.98224 -0.04800
H 	H 	0.91219 0.67489 0.98385 0.05500
C 	C 	0.87648 0.77207 0.02707 -0.00100
C 	C 	0.91131 0.83810 0.03514 -0.05200
C 	C 	0.93006 0.87013 0.99379 -0.00100
C 	C 	0.91246 0.83554 0.94364 0.02400
C 	C 	0.87827 0.76960 0.93564 -0.05800
S 	S 	0.85333 0.73303 0.07972 -0.04900
H 	H 	0.92456 0.86466 0.07368 0.05000
S 	S 	0.93242 0.87421 0.89060 -0.03400
H 	H 	0.86535 0.74309 0.89714 0.05100
H 	H 	0.88009 0.54584 0.03339 0.02100
H 	H 	0.89949 0.72681 0.09954 0.03400
H 	H 	0.99253 0.89349 0.88393 0.04100
H 	H 	0.70125 0.67124 0.99223 0.04100
C 	C 	0.83248 0.16686 0.05028 -0.08100
C 	C 	0.86540 0.16590 0.01181 0.01000
C 	C 	0.86922 0.19619 0.97007 -0.00400
C 	C 	0.83610 0.22264 0.96504 0.01400
C 	C 	0.80094 0.22165 0.00243 -0.13500
C 	C 	0.80246 0.19676 0.04691 0.06700
C 	C 	0.89299 0.13035 0.01405 -0.01100
S 	S 	0.91629 0.20231 0.92428 -0.04500
H 	H 	0.83711 0.24337 0.93158 0.01700
S 	S 	0.77308 0.20810 0.10052 -0.04300
H 	H 	0.83120 0.14531 0.08327 0.05300
C 	C 	0.95127 0.15558 0.04765 0.00800
C 	C 	0.97896 0.12339 0.04619 -0.03600
C 	C 	0.95024 0.06719 0.01034 -0.04000
C 	C 	0.89274 0.04295 0.97575 0.03200
C 	C 	0.86335 0.07330 0.97922 -0.04400
S 	S 	0.99090 0.22814 0.09070 -0.04700
H 	H 	0.02313 0.14234 0.07274 0.04700
S 	S 	0.86024 0.97836 0.92505 -0.02300
H 	H 	0.81893 0.05423 0.95298 0.04700
H 	H 	0.70978 0.15757 0.09671 0.04500
H 	H 	0.96797 0.21693 0.13575 0.03600
H 	H 	0.88887 0.00023 0.88364 0.03400
H 	H 	0.97836 0.25576 0.94094 0.04000
C 	C 	0.24565 0.09660 0.04368 -0.05100
C 	C 	0.27106 0.12623 0.00225 -0.02900
C 	C 	0.23225 0.13052 0.96483 0.02400
C 	C 	0.16806 0.10364 0.96851 -0.02600
C 	C 	0.14211 0.07245 0.00920 -0.04100
C 	C 	0.18175 0.07039 0.04770 0.02600
C 	C 	0.33901 0.15436 0.99926 0.05000
S 	S 	0.26356 0.16961 0.91343 -0.04300
H 	H 	0.13786 0.10565 0.93903 0.04700
S 	S 	0.15268 0.03735 0.10203 -0.04500
H 	H 	0.27588 0.09456 0.07310 0.04400
C 	C 	0.38922 0.21594 0.02624 -0.02700
C 	C 	0.45320 0.24167 0.02311 -0.00900
C 	C 	0.46784 0.20687 0.99286 -0.09100
C 	C 	0.41763 0.14513 0.96595 0.06400
C 	C 	0.35356 0.11909 0.96956 -0.08500
S 	S 	0.37249 0.26152 0.06359 -0.04500
H 	H 	0.49173 0.28903 0.04404 0.02200
S 	S 	0.43397 0.10101 0.92608 -0.05200
H 	H 	0.31495 0.07168 0.94881 0.05900
H 	H 	0.16295 0.08329 0.13942 0.03600
H 	H 	0.37001 0.24837 0.11226 0.03300
H 	H 	0.43449 0.11507 0.87779 0.03400
H 	H 	0.29206 0.23293 0.92829 0.04100
