data_crystal

_cell_length_a 27.83336
_cell_length_b 24.89714
_cell_length_c 46.27825
_cell_angle_alpha 90.49792
_cell_angle_beta  90.60707
_cell_angle_gamma 113.39868

_symmetry_space_group_name_	'P 1'
_symmetry_space_group_name_H-M	'P 1'

loop_
_symmetry_equiv_pos_as_xyz
  x,y,z

loop_
_atom_site_label
_atom_site_type_symbol
_atom_site_fract_x
_atom_site_fract_y
_atom_site_fract_z
_atom_site_charge
Ni	Ni	0.72849 0.35388 0.90602 1.09900
O 	O 	0.65998 0.31909 0.88292 -0.70700
Ni	Ni	0.61243 0.33970 0.90857 1.10000
O 	O 	0.76562 0.32438 0.87557 -0.37300
O 	O 	0.70569 0.23025 0.88073 -0.41500
O 	O 	0.74219 0.42773 0.88231 -0.39500
Ni	Ni	0.63236 0.23481 0.87841 1.06400
O 	O 	0.76392 0.41799 0.96979 -0.42000
O 	O 	0.62868 0.22116 0.92181 -0.42000
O 	O 	0.54989 0.31169 0.88113 -0.38400
O 	O 	0.67765 0.36218 0.93420 -0.70500
O 	O 	0.79825 0.39533 0.92817 -0.37700
O 	O 	0.57812 0.38271 0.93365 -0.37900
O 	O 	0.65236 0.46684 0.93344 -0.41800
Ni	Ni	0.70871 0.44078 0.95101 1.06900
H 	H 	0.66247 0.33772 0.86387 0.15500
H 	H 	0.67206 0.33327 0.94970 0.15800
C 	C 	0.58951 0.22284 0.93656 0.29300
O 	O 	0.76311 0.48874 0.92171 -0.40200
C 	C 	0.74864 0.26817 0.86888 0.27100
C 	C 	0.53591 0.26054 0.86761 0.27600
C 	C 	0.75781 0.48057 0.89364 0.31800
C 	C 	0.60240 0.43906 0.93949 0.27100
C 	C 	0.80345 0.41419 0.95544 0.29400
O 	O 	0.57372 0.26567 0.93271 -0.37100
O 	O 	0.55461 0.22170 0.87639 -0.41000
Ni	Ni	0.60723 0.33408 0.55559 1.10000
O 	O 	0.67357 0.35985 0.53145 -0.70300
Ni	Ni	0.72430 0.35049 0.56005 1.10000
O 	O 	0.57224 0.37731 0.53115 -0.37900
O 	O 	0.64564 0.46216 0.53405 -0.42000
O 	O 	0.57131 0.26204 0.52884 -0.37400
Ni	Ni	0.70343 0.43910 0.51653 1.06700
O 	O 	0.54970 0.21201 0.58276 -0.41100
O 	O 	0.75472 0.48554 0.54866 -0.40200
O 	O 	0.79532 0.39391 0.54019 -0.37600
O 	O 	0.65495 0.31302 0.58125 -0.70400
O 	O 	0.54335 0.30162 0.58124 -0.38100
O 	O 	0.76107 0.32057 0.59064 -0.37400
O 	O 	0.70254 0.22607 0.58300 -0.41200
Ni	Ni	0.62832 0.22840 0.58301 1.06400
H 	H 	0.66891 0.33208 0.51519 0.15500
H 	H 	0.65655 0.33005 0.60083 0.15400
C 	C 	0.74668 0.47464 0.57624 0.29900
O 	O 	0.62774 0.21910 0.53944 -0.42300
C 	C 	0.59597 0.43392 0.52672 0.27200
C 	C 	0.80252 0.42172 0.51517 0.29400
C 	C 	0.58898 0.22105 0.52389 0.29400
C 	C 	0.74385 0.26448 0.59682 0.27400
C 	C 	0.52821 0.24821 0.59188 0.27400
O 	O 	0.73588 0.42180 0.58599 -0.39300
O 	O 	0.76263 0.42188 0.49934 -0.42100
C 	C 	0.03914 0.98731 0.70371 -0.04400
H 	H 	0.03812 0.98564 0.67968 0.04400
C 	C 	0.04161 0.99100 0.76148 -0.03900
H 	H 	0.04272 0.99249 0.78551 0.04300
C 	C 	0.01772 0.02942 0.71749 0.00200
C 	C 	0.00775 0.92890 0.71839 0.00600
C 	C 	0.09395 0.00658 0.71752 0.00200
C 	C 	0.01899 0.03135 0.74702 0.00000
C 	C 	0.00891 0.93077 0.74796 -0.00900
C 	C 	0.09512 0.00824 0.74713 -0.00100
Ni	Ni	0.24499 0.69594 0.39637 1.10000
O 	O 	0.31353 0.72883 0.37417 -0.70400
Ni	Ni	0.36368 0.72141 0.40339 1.10000
O 	O 	0.20548 0.71067 0.36181 -0.37400
O 	O 	0.26033 0.80781 0.36151 -0.41100
O 	O 	0.23699 0.61783 0.37778 -0.39300
Ni	Ni	0.33630 0.81057 0.36442 1.06300
O 	O 	0.21079 0.64701 0.46197 -0.42000
O 	O 	0.33635 0.83529 0.40647 -0.42100
O 	O 	0.42700 0.74712 0.37725 -0.38100
O 	O 	0.29758 0.70074 0.42732 -0.70300
O 	O 	0.17501 0.65619 0.41772 -0.37500
O 	O 	0.40146 0.69062 0.43316 -0.37900
O 	O 	0.33094 0.60322 0.43512 -0.42100
Ni	Ni	0.27137 0.62770 0.44860 1.06700
H 	H 	0.31257 0.70523 0.35668 0.15400
H 	H 	0.30096 0.73320 0.44077 0.15600
C 	C 	0.37574 0.84153 0.42376 0.29400
O 	O 	0.22043 0.56867 0.42023 -0.40300
C 	C 	0.21946 0.76328 0.35076 0.27400
C 	C 	0.43906 0.79476 0.36145 0.27400
C 	C 	0.22735 0.56961 0.39225 0.30100
C 	C 	0.38047 0.63562 0.44122 0.27000
C 	C 	0.16970 0.63950 0.44516 0.29400
O 	O 	0.39676 0.80257 0.42348 -0.37300
O 	O 	0.41572 0.83149 0.36604 -0.40800
Ni	Ni	0.37074 0.73369 0.06021 1.10100
O 	O 	0.30090 0.69735 0.03837 -0.70500
Ni	Ni	0.25132 0.69945 0.06895 1.10000
O 	O 	0.40881 0.69668 0.03404 -0.37700
O 	O 	0.34348 0.60623 0.03952 -0.41900
O 	O 	0.39554 0.80550 0.03335 -0.37000
Ni	Ni	0.27754 0.61712 0.02401 1.06800
O 	O 	0.41835 0.85703 0.08918 -0.41200
O 	O 	0.23203 0.56531 0.05605 -0.40200
O 	O 	0.18012 0.64643 0.05082 -0.37800
O 	O 	0.32211 0.74699 0.08814 -0.70400
O 	O 	0.43702 0.77533 0.08400 -0.37900
O 	O 	0.21338 0.72339 0.10117 -0.37300
O 	O 	0.26042 0.82026 0.09207 -0.41500
Ni	Ni	0.33845 0.83022 0.09067 1.06400
H 	H 	0.29957 0.72282 0.02235 0.15800
H 	H 	0.32567 0.73177 0.10738 0.15500
C 	C 	0.23732 0.57753 0.08385 0.32100
O 	O 	0.33335 0.83757 0.04730 -0.42100
C 	C 	0.39058 0.63947 0.03042 0.26900
C 	C 	0.17260 0.62047 0.02500 0.29600
C 	C 	0.37318 0.84308 0.03111 0.29500
C 	C 	0.22375 0.77898 0.10653 0.29000
C 	C 	0.44478 0.82537 0.09729 0.29300
O 	O 	0.25243 0.63162 0.09346 -0.39700
O 	O 	0.21216 0.62427 0.00830 -0.42100
C 	C 	0.93854 0.07180 0.20587 -0.03400
H 	H 	0.93951 0.07787 0.18207 0.03900
C 	C 	0.93607 0.05708 0.26299 -0.04800
H 	H 	0.93510 0.05115 0.28680 0.04400
C 	C 	0.95228 0.02109 0.21617 -0.01400
C 	C 	0.97618 0.12447 0.22340 -0.01300
C 	C 	0.88519 0.05889 0.21969 -0.01200
C 	C 	0.95108 0.01365 0.24546 0.00700
C 	C 	0.97479 0.11696 0.25267 0.00700
C 	C 	0.88374 0.05083 0.24903 0.00700
C 	C 	0.01064 0.17947 0.20946 0.01800
C 	C 	0.06521 0.19693 0.21019 -0.04500
C 	C 	0.09764 0.24895 0.19705 -0.03800
C 	C 	0.07572 0.28352 0.18269 0.00300
C 	C 	0.02109 0.26569 0.18174 -0.03700
C 	C 	0.98871 0.21384 0.19504 -0.04500
C 	C 	0.10983 0.33749 0.16793 0.01000
C 	C 	0.10908 0.39176 0.17583 -0.04500
C 	C 	0.13870 0.44217 0.16055 -0.03100
C 	C 	0.16940 0.43873 0.13735 -0.01000
C 	C 	0.17132 0.38490 0.12995 -0.03100
C 	C 	0.14165 0.33445 0.14516 -0.04500
C 	C 	0.19506 0.48911 0.11949 0.04700
C 	C 	0.21526 0.53022 0.10375 -0.10900
H 	H 	0.08246 0.17030 0.22099 0.04000
H 	H 	0.13972 0.26230 0.19795 0.03700
H 	H 	0.00372 0.29173 0.17051 0.03800
H 	H 	0.94662 0.20045 0.19418 0.04100
H 	H 	0.08503 0.39472 0.19353 0.04000
H 	H 	0.13695 0.48359 0.16639 0.03900
H 	H 	0.19484 0.38184 0.11200 0.03700
H 	H 	0.14253 0.29284 0.13886 0.03900
C 	C 	0.83695 0.03989 0.20189 0.01600
C 	C 	0.80403 0.07019 0.20380 -0.04300
C 	C 	0.75410 0.04654 0.19112 -0.04000
C 	C 	0.73705 0.99273 0.17624 0.00500
C 	C 	0.77097 0.96391 0.17313 -0.03900
C 	C 	0.82078 0.98746 0.18588 -0.04200
C 	C 	0.68335 0.96579 0.16460 0.00900
C 	C 	0.64803 0.91275 0.17578 -0.04500
C 	C 	0.59814 0.88503 0.16339 -0.03200
C 	C 	0.58331 0.91024 0.13984 -0.01000
C 	C 	0.61800 0.96400 0.12918 -0.03100
C 	C 	0.66792 0.99174 0.14153 -0.04300
C 	C 	0.53379 0.87953 0.12557 0.04300
C 	C 	0.49281 0.85430 0.11299 -0.11000
H 	H 	0.81640 0.11086 0.21604 0.04000
H 	H 	0.72823 0.06926 0.19343 0.03800
H 	H 	0.75829 0.92270 0.16133 0.03900
H 	H 	0.84604 0.96387 0.18426 0.04100
H 	H 	0.65955 0.89267 0.19376 0.03800
H 	H 	0.57137 0.84355 0.17178 0.03500
H 	H 	0.60664 0.98374 0.11099 0.03900
H 	H 	0.69494 0.03276 0.13283 0.03900
C 	C 	0.97503 0.99050 0.19667 0.01900
C 	C 	0.94801 0.93032 0.19120 -0.04500
C 	C 	0.97412 0.89784 0.17930 -0.03800
C 	C 	0.02734 0.92543 0.17262 0.00100
C 	C 	0.05332 0.98631 0.17619 -0.03400
C 	C 	0.02717 0.01875 0.18809 -0.04700
C 	C 	0.05658 0.89033 0.16346 0.01000
C 	C 	0.04447 0.85964 0.13700 -0.04500
C 	C 	0.07473 0.82988 0.12738 -0.03000
C 	C 	0.11721 0.83057 0.14417 -0.01000
C 	C 	0.12793 0.85908 0.17118 -0.03200
C 	C 	0.09771 0.88887 0.18081 -0.04700
C 	C 	0.15379 0.80932 0.13199 0.04200
C 	C 	0.18532 0.79394 0.12092 -0.10800
H 	H 	0.90765 0.90820 0.19769 0.04000
H 	H 	0.95360 0.85095 0.17636 0.03700
H 	H 	0.09418 0.00815 0.17058 0.03600
H 	H 	0.04824 0.06525 0.19209 0.04100
H 	H 	0.01253 0.86013 0.12357 0.04000
H 	H 	0.06624 0.80795 0.10647 0.03900
H 	H 	0.16065 0.85975 0.18429 0.03300
H 	H 	0.10693 0.91183 0.20146 0.03900
C 	C 	0.48892 0.81651 0.34549 -0.08400
C 	C 	0.52940 0.79881 0.35323 0.01400
C 	C 	0.57866 0.82507 0.34061 -0.06600
C 	C 	0.58804 0.86927 0.32014 0.02700
C 	C 	0.54714 0.88539 0.31160 -0.06700
C 	C 	0.49781 0.85898 0.32408 0.01000
C 	C 	0.64116 0.90012 0.30840 -0.00400
C 	C 	0.64908 0.90085 0.27845 -0.03400
C 	C 	0.69895 0.93178 0.26731 -0.04800
C 	C 	0.74132 0.96192 0.28600 0.02300
C 	C 	0.73364 0.96099 0.31590 -0.04800
C 	C 	0.68372 0.93029 0.32708 -0.03300
C 	C 	0.79256 0.99405 0.27436 -0.02100
C 	C 	0.83464 0.02035 0.26359 -0.01100
H 	H 	0.52326 0.76599 0.36960 0.04000
H 	H 	0.60975 0.81170 0.34707 0.04600
H 	H 	0.55384 0.91922 0.29570 0.04300
H 	H 	0.46680 0.87240 0.31752 0.01500
H 	H 	0.61662 0.87763 0.26383 0.03500
H 	H 	0.70461 0.93242 0.24416 0.04300
H 	H 	0.76618 0.98424 0.33048 0.04200
H 	H 	0.67802 0.93041 0.35020 0.03800
C 	C 	0.21160 0.51362 0.37626 -0.09100
C 	C 	0.19160 0.50826 0.34788 0.01700
C 	C 	0.17095 0.45364 0.33403 -0.06800
C 	C 	0.17018 0.40388 0.34832 0.02900
C 	C 	0.19250 0.40957 0.37607 -0.06900
C 	C 	0.21331 0.46425 0.38996 0.01700
C 	C 	0.14189 0.34551 0.33524 -0.00500
C 	C 	0.09549 0.30656 0.34769 -0.03200
C 	C 	0.06340 0.25584 0.33268 -0.04800
C 	C 	0.07758 0.24374 0.30521 0.02400
C 	C 	0.12535 0.28078 0.29349 -0.04800
C 	C 	0.15752 0.33147 0.30849 -0.03300
C 	C 	0.04078 0.19745 0.28774 -0.02300
C 	C 	0.01030 0.16009 0.27227 -0.00900
H 	H 	0.19036 0.54596 0.33692 0.03700
H 	H 	0.15390 0.44963 0.31254 0.04700
H 	H 	0.19264 0.37143 0.38712 0.04500
H 	H 	0.22982 0.46803 0.41157 0.02700
H 	H 	0.08320 0.31694 0.36839 0.03800
H 	H 	0.02663 0.22716 0.34192 0.04200
H 	H 	0.13662 0.27148 0.27228 0.04200
H 	H 	0.19352 0.36099 0.29884 0.03600
C 	C 	0.18117 0.77601 0.33301 -0.08700
C 	C 	0.19865 0.82078 0.31259 0.01200
C 	C 	0.16343 0.84106 0.29980 -0.06800
C 	C 	0.11046 0.81672 0.30733 0.02800
C 	C 	0.09233 0.76939 0.32626 -0.06700
C 	C 	0.12750 0.74896 0.33901 0.01500
C 	C 	0.07534 0.84450 0.29770 -0.00500
C 	C 	0.05699 0.87427 0.31777 -0.03200
C 	C 	0.02827 0.90597 0.30831 -0.04900
C 	C 	0.01757 0.90786 0.27880 0.02500
C 	C 	0.03427 0.87649 0.25883 -0.05000
C 	C 	0.06324 0.84505 0.26823 -0.03300
C 	C 	0.99287 0.94519 0.26868 -0.02300
C 	C 	0.97326 0.97656 0.25900 -0.00700
H 	H 	0.23982 0.84132 0.30743 0.01200
H 	H 	0.17766 0.87724 0.28495 0.04300
H 	H 	0.05134 0.74984 0.33189 0.04600
H 	H 	0.11340 0.71412 0.35460 0.03800
H 	H 	0.06623 0.87415 0.34056 0.03700
H 	H 	0.01536 0.93004 0.32385 0.04200
H 	H 	0.02575 0.87746 0.23600 0.04400
H 	H 	0.07714 0.82210 0.25259 0.03700
C 	C 	0.46514 0.95465 0.47641 -0.06300
C 	C 	0.46338 0.00613 0.46533 0.01900
C 	C 	0.43017 0.00296 0.44182 -0.06600
C 	C 	0.39981 0.94891 0.42903 0.01600
C 	C 	0.40264 0.89740 0.43953 -0.09100
C 	C 	0.43489 0.90049 0.46357 0.01500
C 	C 	0.49591 0.06330 0.47851 0.01800
H 	H 	0.42843 0.04249 0.43321 0.04400
H 	H 	0.37530 0.94730 0.41043 0.02400
H 	H 	0.43698 0.86108 0.47211 0.03200
H 	H 	0.49010 0.95665 0.49487 0.04400
C 	C 	0.47216 0.09780 0.49111 -0.06400
C 	C 	0.50280 0.15099 0.50458 0.01400
C 	C 	0.55757 0.17008 0.50573 -0.09200
C 	C 	0.58140 0.13645 0.49225 0.01000
C 	C 	0.55068 0.08327 0.47868 -0.06400
H 	H 	0.42990 0.08279 0.49098 0.04500
H 	H 	0.48385 0.17623 0.51510 0.04100
H 	H 	0.62362 0.15096 0.49274 0.03000
H 	H 	0.56936 0.05730 0.46858 0.04500
C 	C 	0.91866 0.48792 0.46587 -0.06300
C 	C 	0.95920 0.51690 0.48593 0.01800
C 	C 	0.94811 0.51417 0.51553 -0.06200
C 	C 	0.89714 0.48257 0.52501 0.01300
C 	C 	0.85654 0.45363 0.50499 -0.08600
C 	C 	0.86752 0.45663 0.47534 0.01000
C 	C 	0.01345 0.54949 0.47601 0.02000
H 	H 	0.97894 0.53674 0.53119 0.04500
H 	H 	0.88908 0.48132 0.54791 0.03900
H 	H 	0.83665 0.43436 0.45967 0.02900
H 	H 	0.92682 0.48936 0.44298 0.04400
C 	C 	0.05434 0.53519 0.48652 -0.06400
C 	C 	0.10559 0.56587 0.47718 0.01500
C 	C 	0.11649 0.61093 0.45702 -0.08600
C 	C 	0.07564 0.62562 0.44672 0.01500
C 	C 	0.02442 0.59518 0.45623 -0.06300
H 	H 	0.04634 0.49990 0.50171 0.04400
H 	H 	0.13655 0.55360 0.48507 0.02200
H 	H 	0.08350 0.66049 0.43130 0.03400
H 	H 	0.99331 0.60708 0.44823 0.04400
C 	C 	0.56083 0.54544 0.48692 -0.06500
C 	C 	0.50710 0.52564 0.49238 0.01900
C 	C 	0.48305 0.47703 0.51008 -0.06400
C 	C 	0.51218 0.44755 0.52163 0.01300
C 	C 	0.56576 0.46664 0.51573 -0.09000
C 	C 	0.59008 0.51619 0.49861 0.00900
C 	C 	0.47558 0.55436 0.47870 0.01700
H 	H 	0.44169 0.46182 0.51468 0.04400
H 	H 	0.49310 0.40992 0.53516 0.03800
H 	H 	0.63136 0.53128 0.49384 0.01200
H 	H 	0.57972 0.58285 0.47323 0.04300
C 	C 	0.48721 0.61375 0.48429 -0.06300
C 	C 	0.45666 0.64057 0.47170 0.00800
C 	C 	0.41404 0.60811 0.45354 -0.08800
C 	C 	0.40282 0.54884 0.44773 0.00800
C 	C 	0.43354 0.52218 0.46018 -0.06300
H 	H 	0.51955 0.63892 0.49861 0.04300
H 	H 	0.46558 0.68625 0.47646 0.03300
H 	H 	0.37046 0.52348 0.43347 0.03200
H 	H 	0.42464 0.47648 0.45547 0.04400
C 	C 	0.77836 0.24296 0.61303 -0.08800
C 	C 	0.75687 0.18940 0.62746 0.01200
C 	C 	0.78963 0.16546 0.64002 -0.06900
C 	C 	0.84416 0.19487 0.63834 0.02800
C 	C 	0.86575 0.24937 0.62486 -0.06700
C 	C 	0.83303 0.27339 0.61228 0.01500
C 	C 	0.87856 0.16790 0.65005 -0.00500
C 	C 	0.87713 0.11530 0.63804 -0.03300
C 	C 	0.90810 0.08835 0.64996 -0.04900
C 	C 	0.94076 0.11391 0.67387 0.02500
C 	C 	0.94309 0.16708 0.68549 -0.05000
C 	C 	0.91207 0.19400 0.67363 -0.03300
C 	C 	0.96867 0.08349 0.68791 -0.02500
C 	C 	0.99139 0.05846 0.70069 -0.00600
H 	H 	0.71479 0.16592 0.62857 0.01200
H 	H 	0.77266 0.12373 0.65076 0.04300
H 	H 	0.90784 0.27252 0.62361 0.04600
H 	H 	0.85021 0.31473 0.60121 0.03900
H 	H 	0.85166 0.09508 0.61969 0.03700
H 	H 	0.90606 0.04720 0.64091 0.04200
H 	H 	0.96816 0.18696 0.70404 0.04200
H 	H 	0.91342 0.23460 0.68303 0.03600
C 	C 	0.47696 0.22275 0.60629 -0.08400
C 	C 	0.46083 0.25736 0.62472 0.00900
C 	C 	0.41197 0.23318 0.63803 -0.06700
C 	C 	0.37880 0.17425 0.63297 0.02600
C 	C 	0.39489 0.13973 0.61454 -0.06700
C 	C 	0.44358 0.16379 0.60124 0.01000
C 	C 	0.32753 0.14827 0.64731 -0.00500
C 	C 	0.28110 0.12453 0.63069 -0.03300
C 	C 	0.23290 0.09605 0.64416 -0.04900
C 	C 	0.23078 0.09119 0.67432 0.02500
C 	C 	0.27696 0.11572 0.69098 -0.04900
C 	C 	0.32516 0.14417 0.67754 -0.03300
C 	C 	0.18136 0.06056 0.68826 -0.02400
C 	C 	0.14094 0.03547 0.70087 -0.00600
H 	H 	0.48616 0.30280 0.62886 0.02800
H 	H 	0.39991 0.26023 0.65221 0.04400
H 	H 	0.36969 0.09416 0.61059 0.04400
H 	H 	0.45507 0.13672 0.58676 0.03300
H 	H 	0.28244 0.12764 0.60735 0.03700
H 	H 	0.19737 0.07746 0.63115 0.04200
H 	H 	0.27561 0.11221 0.71431 0.04300
H 	H 	0.36071 0.16209 0.69057 0.03500
C 	C 	0.76361 0.52421 0.59679 -0.09100
C 	C 	0.75446 0.57436 0.59036 0.01500
C 	C 	0.77776 0.62509 0.60728 -0.06800
C 	C 	0.81049 0.62611 0.63072 0.02900
C 	C 	0.81707 0.57495 0.63821 -0.06900
C 	C 	0.79364 0.52414 0.62136 0.01700
C 	C 	0.84193 0.68187 0.64550 -0.00500
C 	C 	0.83706 0.68836 0.67534 -0.03300
C 	C 	0.86999 0.73959 0.68971 -0.04900
C 	C 	0.90782 0.78457 0.67431 0.02500
C 	C 	0.91200 0.77868 0.64444 -0.04900
C 	C 	0.87921 0.72748 0.63006 -0.03200
C 	C 	0.94334 0.83591 0.68931 -0.02300
C 	C 	0.97295 0.87851 0.70223 -0.00800
H 	H 	0.73055 0.57453 0.57176 0.02800
H 	H 	0.77178 0.66415 0.60163 0.04500
H 	H 	0.84206 0.57525 0.65638 0.04600
H 	H 	0.80080 0.48563 0.62664 0.03600
H 	H 	0.80830 0.65346 0.68742 0.03600
H 	H 	0.86654 0.74400 0.71284 0.04300
H 	H 	0.94112 0.81339 0.63242 0.04200
H 	H 	0.88344 0.72273 0.60704 0.03700
C 	C 	0.02992 0.51951 0.02681 -0.06300
C 	C 	0.01498 0.51918 0.99780 0.01900
C 	C 	0.05237 0.55050 0.97742 -0.06300
C 	C 	0.10418 0.58302 0.98616 0.01200
C 	C 	0.11882 0.58456 0.01536 -0.08800
C 	C 	0.08159 0.55201 0.03557 0.01600
C 	C 	0.95975 0.48864 0.98904 0.02000
H 	H 	0.04107 0.55048 0.95494 0.04600
H 	H 	0.13259 0.60788 0.97037 0.02900
H 	H 	0.09272 0.55194 0.05807 0.04100
H 	H 	0.00135 0.49504 0.04262 0.04600
C 	C 	0.94455 0.44065 0.96990 -0.06300
C 	C 	0.89268 0.41411 0.96012 0.01600
C 	C 	0.85564 0.43565 0.96928 -0.08700
C 	C 	0.87049 0.48206 0.98946 0.01600
C 	C 	0.92235 0.50848 0.99925 -0.06500
H 	H 	0.97309 0.42450 0.96228 0.04500
H 	H 	0.88152 0.37763 0.94495 0.03500
H 	H 	0.84237 0.49913 0.99672 0.02400
H 	H 	0.93377 0.54531 0.01422 0.04500
C 	C 	0.46501 0.95440 0.98039 -0.06200
C 	C 	0.46000 0.00580 0.98963 0.01900
C 	C 	0.42359 0.00276 0.01094 -0.06500
C 	C 	0.39345 0.94918 0.02347 0.01500
C 	C 	0.39969 0.89793 0.01501 -0.08900
C 	C 	0.43505 0.90073 0.99303 0.01500
C 	C 	0.49335 0.06298 0.97727 0.01800
H 	H 	0.41933 0.04211 0.01820 0.04400
H 	H 	0.36649 0.94791 0.04041 0.02100
H 	H 	0.43986 0.86157 0.98600 0.03500
H 	H 	0.49241 0.95611 0.96361 0.04400
C 	C 	0.54813 0.08342 0.97925 -0.06400
C 	C 	0.57964 0.13702 0.96712 0.01000
C 	C 	0.55669 0.17086 0.95299 -0.09000
C 	C 	0.50187 0.15119 0.95180 0.01300
C 	C 	0.47040 0.09744 0.96377 -0.06300
H 	H 	0.56628 0.05765 0.99004 0.04500
H 	H 	0.62186 0.15182 0.96833 0.03000
H 	H 	0.48360 0.17651 0.94072 0.04200
H 	H 	0.42818 0.08217 0.96216 0.04500
C 	C 	0.44587 0.52760 0.01120 -0.06300
C 	C 	0.48481 0.55872 0.99154 0.01600
C 	C 	0.49390 0.61700 0.98537 -0.06200
C 	C 	0.46376 0.64370 0.99842 0.00700
C 	C 	0.42414 0.61227 0.01774 -0.08700
C 	C 	0.41566 0.55418 0.02422 0.00600
C 	C 	0.51539 0.52987 0.97705 0.01900
H 	H 	0.52383 0.64135 0.97018 0.04400
H 	H 	0.47059 0.68841 0.99309 0.03600
H 	H 	0.38571 0.52961 0.03934 0.03300
H 	H 	0.43893 0.48276 0.01632 0.04300
C 	C 	0.56974 0.55079 0.98155 -0.06400
C 	C 	0.59836 0.52195 0.96877 0.00900
C 	C 	0.57282 0.47178 0.95142 -0.08800
C 	C 	0.51854 0.45161 0.94649 0.01300
C 	C 	0.49002 0.48055 0.95922 -0.06400
H 	H 	0.58967 0.58884 0.99529 0.04400
H 	H 	0.64015 0.53788 0.97286 0.01500
H 	H 	0.49842 0.41348 0.93284 0.03800
H 	H 	0.44815 0.46446 0.95537 0.04300
C 	C 	0.78485 0.24595 0.85504 -0.08600
C 	C 	0.82213 0.28059 0.83535 0.01000
C 	C 	0.85661 0.25943 0.82250 -0.06600
C 	C 	0.85411 0.20352 0.82927 0.02600
C 	C 	0.81699 0.16902 0.84896 -0.06700
C 	C 	0.78261 0.19005 0.86180 0.00900
C 	C 	0.88897 0.18008 0.81500 -0.00500
C 	C 	0.92351 0.16392 0.83160 -0.03300
C 	C 	0.95193 0.13516 0.81853 -0.04900
C 	C 	0.94609 0.12256 0.78882 0.02500
C 	C 	0.91285 0.14025 0.77208 -0.05000
C 	C 	0.88441 0.16896 0.78510 -0.03300
C 	C 	0.97294 0.09010 0.77554 -0.02500
C 	C 	0.99444 0.06304 0.76333 -0.00500
H 	H 	0.82418 0.32364 0.82983 0.03500
H 	H 	0.88511 0.28635 0.80726 0.04500
H 	H 	0.81455 0.12567 0.85416 0.04400
H 	H 	0.75449 0.16301 0.87716 0.03200
H 	H 	0.92749 0.17257 0.85467 0.03700
H 	H 	0.97783 0.12195 0.83157 0.04200
H 	H 	0.90827 0.13075 0.74907 0.04300
H 	H 	0.85777 0.18110 0.77211 0.03500
C 	C 	0.48782 0.23940 0.84965 -0.08800
C 	C 	0.45018 0.26331 0.85330 0.01600
C 	C 	0.40136 0.23740 0.83952 -0.06800
C 	C 	0.38977 0.18758 0.82196 0.02800
C 	C 	0.42821 0.16562 0.81700 -0.07000
C 	C 	0.47714 0.19157 0.83068 0.01200
C 	C 	0.33655 0.15639 0.81026 -0.00600
C 	C 	0.30465 0.10138 0.82103 -0.03200
C 	C 	0.25394 0.07174 0.80999 -0.05000
C 	C 	0.23490 0.09699 0.78817 0.02500
C 	C 	0.26652 0.15218 0.77759 -0.05000
C 	C 	0.31723 0.18186 0.78862 -0.03300
C 	C 	0.18452 0.06469 0.77515 -0.02600
C 	C 	0.14318 0.03837 0.76314 -0.00500
H 	H 	0.45794 0.30053 0.86764 0.03800
H 	H 	0.37196 0.25492 0.84321 0.04600
H 	H 	0.41975 0.12768 0.80305 0.04300
H 	H 	0.50624 0.17357 0.82713 0.01300
H 	H 	0.31922 0.08163 0.83791 0.03700
H 	H 	0.22972 0.02893 0.81815 0.04200
H 	H 	0.25209 0.17168 0.76054 0.04200
H 	H 	0.34162 0.22436 0.78022 0.03500
C 	C 	0.97774 0.87990 0.76571 0.01700
C 	C 	0.92330 0.86217 0.76750 -0.04300
C 	C 	0.89342 0.81174 0.78266 -0.03800
C 	C 	0.91783 0.77896 0.79639 0.00300
C 	C 	0.97245 0.79745 0.79508 -0.03800
C 	C 	0.00226 0.84778 0.77982 -0.04400
C 	C 	0.88625 0.72528 0.81216 0.01000
C 	C 	0.88530 0.67082 0.80318 -0.04500
C 	C 	0.85687 0.62033 0.81871 -0.03100
C 	C 	0.82912 0.62389 0.84326 -0.00900
C 	C 	0.82935 0.67807 0.85198 -0.03100
C 	C 	0.85779 0.72860 0.83649 -0.04500
C 	C 	0.80285 0.57260 0.86043 0.04600
C 	C 	0.78170 0.53021 0.87527 -0.10700
H 	H 	0.90409 0.88691 0.75675 0.04300
H 	H 	0.85132 0.79788 0.78353 0.03800
H 	H 	0.99173 0.77277 0.80581 0.03900
H 	H 	0.04430 0.86135 0.77865 0.04100
H 	H 	0.90679 0.66769 0.78431 0.04000
H 	H 	0.85693 0.57864 0.81184 0.03800
H 	H 	0.80810 0.68122 0.87096 0.03800
H 	H 	0.85827 0.77038 0.84361 0.04000
