data_crystal

_cell_length_a 19.86064
_cell_length_b 18.72620
_cell_length_c 35.14748
_cell_angle_alpha 90.80015
_cell_angle_beta  90.89916
_cell_angle_gamma 113.56338

_symmetry_space_group_name_	'P 1'
_symmetry_space_group_name_H-M	'P 1'

loop_
_symmetry_equiv_pos_as_xyz
  x,y,z

loop_
_atom_site_label
_atom_site_type_symbol
_atom_site_fract_x
_atom_site_fract_y
_atom_site_fract_z
_atom_site_charge
C 	C 	0.04037 0.98969 0.70280 -0.04100
H 	H 	0.03389 0.98765 0.67127 0.03800
C 	C 	0.05639 0.99527 0.77819 -0.04000
H 	H 	0.06443 0.99888 0.80965 0.03900
C 	C 	0.12007 0.01647 0.71715 -0.00700
C 	C 	0.12775 0.01900 0.75604 -0.00900
Ni	Ni	0.21505 0.71031 0.41306 1.09900
O 	O 	0.16513 0.76659 0.38065 -0.36800
O 	O 	0.18459 0.62408 0.37205 -0.39000
O 	O 	0.15907 0.58864 0.48437 -0.41700
O 	O 	0.11694 0.65393 0.44094 -0.37100
O 	O 	0.16596 0.52442 0.41261 -0.40400
C 	C 	0.20075 0.84064 0.37254 0.27500
C 	C 	0.17390 0.55134 0.37803 0.29100
C 	C 	0.10417 0.59810 0.46629 0.28500
Ni	Ni	0.23526 0.70712 0.07966 1.09800
O 	O 	0.21098 0.51684 0.06825 -0.39700
O 	O 	0.12575 0.63950 0.07081 -0.38600
O 	O 	0.21016 0.75367 0.12787 -0.38000
C 	C 	0.20722 0.54523 0.10221 0.29700
C 	C 	0.09895 0.58112 0.04572 0.29000
C 	C 	0.22327 0.82839 0.13004 0.26900
O 	O 	0.24476 0.61946 0.11078 -0.39500
O 	O 	0.13615 0.57831 0.01528 -0.41800
C 	C 	0.17487 0.48950 0.13282 -0.07800
C 	C 	0.22080 0.47273 0.15875 0.01500
C 	C 	0.19252 0.40615 0.18109 -0.07100
C 	C 	0.11788 0.35568 0.17774 0.04100
C 	C 	0.07062 0.37476 0.15334 -0.00900
C 	C 	0.09935 0.44174 0.13108 -0.00900
C 	C 	0.01480 0.23667 0.19520 0.02700
C 	C 	0.09011 0.28567 0.19791 -0.07500
H 	H 	0.22906 0.39296 0.20027 0.04500
H 	H 	0.06373 0.45476 0.11118 0.03600
H 	H 	0.12665 0.26952 0.21572 0.04900
C 	C 	0.17278 0.85398 0.15157 -0.07800
C 	C 	0.10849 0.79894 0.16725 0.00900
C 	C 	0.05578 0.82255 0.18257 -0.07100
C 	C 	0.06644 0.90132 0.18221 0.04300
C 	C 	0.13192 0.95715 0.16765 -0.01500
C 	C 	0.18534 0.93345 0.15314 -0.01200
C 	C 	0.14271 0.03590 0.16721 -0.02500
C 	C 	0.08945 0.05932 0.18164 -0.05700
C 	C 	0.02497 0.00450 0.19692 0.03300
C 	C 	0.01268 0.92516 0.19635 -0.08000
H 	H 	0.09843 0.73767 0.16682 0.04100
H 	H 	0.23573 0.97654 0.14217 0.03100
H 	H 	0.19264 0.07915 0.15596 0.03100
H 	H 	0.09948 0.12059 0.18215 0.04400
C 	C 	0.02772 0.23249 0.28019 0.02900
C 	C 	0.08599 0.23012 0.30240 -0.05500
C 	C 	0.13153 0.29571 0.32354 -0.03000
C 	C 	0.11918 0.36433 0.32253 -0.01100
C 	C 	0.06135 0.36727 0.29951 0.04300
C 	C 	0.01468 0.30060 0.27926 -0.07700
C 	C 	0.04993 0.43633 0.29793 -0.07200
C 	C 	0.09175 0.49995 0.32131 0.01700
C 	C 	0.14523 0.49492 0.34649 -0.08300
C 	C 	0.16147 0.42871 0.34557 -0.01000
H 	H 	0.09629 0.17754 0.30304 0.04200
H 	H 	0.17602 0.29298 0.34088 0.03300
H 	H 	0.07971 0.55151 0.32144 0.03900
H 	H 	0.20414 0.42577 0.36436 0.03300
C 	C 	0.00350 0.98797 0.28033 0.02100
C 	C 	0.06183 0.89932 0.32263 -0.01000
C 	C 	0.10896 0.96482 0.30263 0.03900
C 	C 	0.07963 0.00999 0.28247 -0.07000
C 	C 	0.18477 0.98434 0.30323 -0.07800
C 	C 	0.21408 0.94120 0.32472 0.01300
C 	C 	0.16803 0.87832 0.34608 -0.08800
C 	C 	0.09167 0.85624 0.34430 -0.00500
H 	H 	0.11572 0.06136 0.26784 0.04700
H 	H 	0.22116 0.03343 0.28734 0.04400
H 	H 	0.27296 0.95751 0.32538 -0.00200
H 	H 	0.05598 0.80740 0.36062 0.04400
C 	C 	0.00505 0.47080 0.48454 -0.01100
C 	C 	0.02708 0.55049 0.47735 -0.06400
H 	H 	0.04381 0.44368 0.48179 0.02800
C 	C 	0.18295 0.05994 0.69207 0.02400
C 	C 	0.18732 0.12948 0.67553 -0.05300
C 	C 	0.25264 0.17989 0.65920 -0.03300
H 	H 	0.14119 0.14632 0.67689 0.04200
H 	H 	0.25536 0.23397 0.64723 0.03200
H 	H 	0.02624 0.84932 0.65875 0.04800
C 	C 	0.02026 0.53298 0.04559 -0.07100
H 	H 	0.02966 0.42961 0.02286 0.03000
H 	H 	0.06473 0.17886 0.80632 0.04800
C 	C 	0.19906 0.04037 0.77558 0.03200
C 	C 	0.21435 0.98372 0.79526 -0.05700
C 	C 	0.25472 0.11410 0.77034 -0.07700
H 	H 	0.17114 0.92685 0.79978 0.04300
H 	H 	0.24201 0.15916 0.75688 0.05200
C 	C 	0.24318 0.03845 0.68961 -0.07000
H 	H 	0.23959 0.98411 0.70171 0.04700
H 	H 	0.04945 0.28462 0.84300 0.04400
Ni	Ni	0.24007 0.57096 0.45626 1.06600
H 	H 	0.00625 0.77936 0.19419 0.04600
H 	H 	0.00710 0.43990 0.27955 0.04800
O 	O 	0.26045 0.88404 0.39209 -0.41300
O 	O 	0.28640 0.68105 0.44367 -0.70200
H 	H 	0.29845 0.71200 0.46774 0.15200
O 	O 	0.27815 0.68873 0.03096 -0.70400
Ni	Ni	0.23742 0.57735 0.01836 1.06900
O 	O 	0.26820 0.87712 0.10589 -0.41300
H 	H 	0.26487 0.71656 0.01035 0.15700
H 	H 	0.27908 0.50914 0.16028 0.02800
C 	C 	0.31478 0.16172 0.65941 -0.01000
C 	C 	0.31010 0.09057 0.67470 0.03700
C 	C 	0.28589 0.99965 0.80810 -0.03100
C 	C 	0.32732 0.12698 0.77907 0.04500
H 	H 	0.29709 0.95617 0.82390 0.03400
C 	C 	0.01248 0.04508 0.72319 -0.00900
C 	C 	0.02016 0.04767 0.76218 -0.00900
H 	H 	0.30222 0.74098 0.35546 0.15200
H 	H 	0.02132 0.19317 0.72452 0.04900
O 	O 	0.30981 0.75841 0.38251 -0.70100
O 	O 	0.31682 0.53900 0.42882 -0.41900
C 	C 	0.34278 0.07135 0.80009 -0.00800
C 	C 	0.00815 0.91408 0.76168 -0.01100
O 	O 	0.34478 0.76942 0.08945 -0.70200
Ni	Ni	0.35892 0.87140 0.38615 1.06300
O 	O 	0.36393 0.87180 0.44405 -0.41900
O 	O 	0.33758 0.56686 0.02071 -0.41100
Ni	Ni	0.37185 0.88177 0.09203 1.06300
H 	H 	0.36223 0.75225 0.11273 0.15100
O 	O 	0.34173 0.88857 0.03738 -0.41700
H 	H 	0.35260 0.87983 0.52664 0.02700
H 	H 	0.33539 0.41784 0.45126 0.02900
H 	H 	0.34040 0.99865 0.98267 0.03300
H 	H 	0.36000 0.45201 0.99467 0.03600
C 	C 	0.38497 0.19508 0.76771 -0.07000
H 	H 	0.37456 0.23526 0.74900 0.04900
Ni	Ni	0.37508 0.71575 0.40872 1.09800
Ni	Ni	0.38805 0.74139 0.04309 1.09900
C 	C 	0.37289 0.07361 0.67604 -0.06900
C 	C 	0.38167 0.21408 0.64467 -0.01600
H 	H 	0.37033 0.01984 0.68832 0.04600
H 	H 	0.38494 0.26832 0.63258 0.03800
O 	O 	0.42242 0.64942 0.43447 -0.37900
C 	C 	0.41204 0.85279 0.46220 0.28600
C 	C 	0.38794 0.57348 0.43688 0.26700
O 	O 	0.41851 0.68427 0.00058 -0.37200
O 	O 	0.40122 0.82780 0.00405 -0.37100
C 	C 	0.39170 0.60765 0.99866 0.25700
C 	C 	0.38553 0.88897 0.01005 0.29700
C 	C 	0.41070 0.91562 0.52420 -0.01200
H 	H 	0.41066 0.99654 0.56805 0.04000
C 	C 	0.39430 0.44762 0.45556 -0.02000
C 	C 	0.39909 0.01525 0.98069 -0.00500
H 	H 	0.41793 0.12641 0.95629 0.04800
C 	C 	0.40575 0.48617 0.97726 -0.02100
H 	H 	0.42623 0.38643 0.95987 0.04200
C 	C 	0.41371 0.09076 0.81498 -0.00600
H 	H 	0.42458 0.05136 0.83406 0.04000
H 	H 	0.40477 0.34709 0.47894 0.02100
O 	O 	0.46087 0.75859 0.37250 -0.38000
O 	O 	0.43586 0.80332 0.44680 -0.37200
O 	O 	0.46587 0.88275 0.38101 -0.41100
C 	C 	0.44341 0.98206 0.54738 -0.01600
C 	C 	0.45101 0.89997 0.49530 -0.07500
C 	C 	0.43373 0.40750 0.47140 -0.01400
C 	C 	0.43044 0.52674 0.44701 -0.06800
C 	C 	0.43937 0.12589 0.66141 0.01200
C 	C 	0.44403 0.19586 0.64505 -0.08100
C 	C 	0.44330 0.08826 0.96611 -0.01600
C 	C 	0.43067 0.96369 0.99226 -0.08200
C 	C 	0.44307 0.44872 0.95723 -0.01600
C 	C 	0.42851 0.56751 0.97553 -0.06800
C 	C 	0.45566 0.21328 0.78222 0.01600
C 	C 	0.46749 0.16594 0.80990 -0.08500
C 	C 	0.00558 0.14663 0.80579 -0.07900
C 	C 	0.48687 0.83269 0.36269 0.27100
O 	O 	0.47837 0.91089 0.07641 -0.41300
H 	H 	0.48663 0.11079 0.66182 0.04300
H 	H 	0.49911 0.26886 0.77576 0.02300
C 	C 	0.48681 0.61020 0.95194 -0.01800
O 	O 	0.49661 0.14692 0.55913 -0.41600
O 	O 	0.49478 0.80041 0.05891 -0.38200
O 	O 	0.50544 0.28798 0.59657 -0.41800
C 	C 	0.50365 0.49198 0.93517 -0.07700
H 	H 	0.50395 0.67256 0.94946 0.04400
O 	O 	0.50640 0.36100 0.53016 -0.41400
C 	C 	0.51109 0.24526 0.62428 0.29600
C 	C 	0.51422 0.86480 0.07997 0.27300
C 	C 	0.51654 0.03312 0.54163 -0.06800
C 	C 	0.50946 0.44649 0.47963 -0.07000
C 	C 	0.50746 0.56316 0.45137 -0.01400
C 	C 	0.50689 0.98662 0.99009 -0.01000
O 	O 	0.52022 0.26867 0.85552 -0.38000
C 	C 	0.52015 0.20335 0.84081 0.27500
Ni	Ni	0.51574 0.25732 0.54241 1.06200
C 	C 	0.51976 0.11091 0.96371 -0.06900
C 	C 	0.52402 0.57264 0.93184 -0.01900
O 	O 	0.52522 0.37821 0.91570 -0.37400
C 	C 	0.52691 0.94436 0.49364 -0.01400
H 	H 	0.53221 0.75235 0.31111 0.03100
H 	H 	0.53217 0.94814 0.99959 0.04800
H 	H 	0.53673 0.62324 0.44340 0.05000
O 	O 	0.53864 0.23261 0.93211 -0.36700
C 	C 	0.54361 0.11336 0.55642 0.27400
H 	H 	0.99385 0.78268 0.59650 0.04500
C 	C 	0.99340 0.45914 0.02780 -0.01000
C 	C 	0.99572 0.32524 0.15051 -0.03000
H 	H 	0.98985 0.62125 0.07126 0.04300
C 	C 	0.97103 0.56678 0.05514 -0.00900
H 	H 	0.99103 0.64519 0.47427 0.04200
C 	C 	0.98569 0.87882 0.32119 -0.03100
C 	C 	0.99922 0.91157 0.72264 -0.01100
H 	H 	0.96891 0.30180 0.26240 0.05100
C 	C 	0.95670 0.92293 0.30002 -0.05100
H 	H 	0.94898 0.82872 0.33634 0.03700
C 	C 	0.97518 0.58398 0.47998 -0.01100
H 	H 	0.89347 0.96364 0.67787 0.04300
Ni	Ni	0.76019 0.37383 0.91257 1.09800
O 	O 	0.67760 0.30681 0.87593 -0.70200
Ni	Ni	0.59322 0.32640 0.89723 1.10100
O 	O 	0.83553 0.34104 0.88618 -0.37300
O 	O 	0.76100 0.21361 0.89504 -0.41300
O 	O 	0.77823 0.45974 0.87363 -0.39800
Ni	Ni	0.65524 0.19626 0.87731 1.06600
O 	O 	0.76962 0.48336 0.99157 -0.41300
O 	O 	0.63162 0.19146 0.93341 -0.42100
O 	O 	0.67279 0.37897 0.93784 -0.70500
O 	O 	0.83905 0.44795 0.94904 -0.37900
O 	O 	0.62031 0.49710 0.91361 -0.42100
Ni	Ni	0.69812 0.48874 0.95120 1.07000
H 	H 	0.68649 0.32522 0.84947 0.15300
H 	H 	0.66289 0.34783 0.96120 0.15800
C 	C 	0.56631 0.18315 0.94390 0.28600
O 	O 	0.78466 0.55283 0.91777 -0.39500
C 	C 	0.81933 0.26643 0.87975 0.27400
C 	C 	0.79484 0.53300 0.88297 0.30000
C 	C 	0.55026 0.45475 0.91893 0.26600
C 	C 	0.82424 0.46185 0.98432 0.27700
O 	O 	0.54710 0.16061 0.86079 -0.41200
Ni	Ni	0.65529 0.25650 0.59076 1.09600
O 	O 	0.70325 0.37420 0.60174 -0.70100
Ni	Ni	0.67198 0.41664 0.55482 1.09500
O 	O 	0.70708 0.22871 0.63581 -0.37100
O 	O 	0.81991 0.31184 0.61769 -0.41500
O 	O 	0.57362 0.23817 0.63048 -0.37100
Ni	Ni	0.81113 0.41391 0.60208 1.06300
O 	O 	0.81338 0.37369 0.54855 -0.42000
O 	O 	0.72157 0.53166 0.57007 -0.38000
O 	O 	0.62402 0.29892 0.54387 -0.70000
O 	O 	0.60657 0.14169 0.57562 -0.38000
O 	O 	0.61825 0.44340 0.51006 -0.37000
H 	H 	0.68514 0.38945 0.62527 0.15100
H 	H 	0.64298 0.28408 0.52051 0.15000
C 	C 	0.81198 0.41660 0.52009 0.28900
C 	C 	0.77810 0.26377 0.64249 0.28000
C 	C 	0.78750 0.55894 0.58629 0.27900
C 	C 	0.54635 0.41071 0.50531 0.27200
O 	O 	0.75531 0.43581 0.51551 -0.36400
O 	O 	0.83086 0.52165 0.58177 -0.41900
C 	C 	0.94178 0.08409 0.19848 -0.03400
H 	H 	0.94259 0.08328 0.16685 0.04000
C 	C 	0.93862 0.08484 0.27434 -0.03700
H 	H 	0.93756 0.08537 0.30596 0.04100
C 	C 	0.97473 0.03158 0.21761 -0.01300
C 	C 	0.98427 0.16410 0.21761 -0.01100
C 	C 	0.86493 0.05753 0.21552 -0.01300
C 	C 	0.97243 0.03194 0.25662 -0.00600
C 	C 	0.98224 0.16442 0.25661 -0.01100
C 	C 	0.86318 0.05729 0.25445 -0.01000
C 	C 	0.96802 0.25683 0.17142 -0.05300
H 	H 	0.95891 0.33950 0.13201 0.03600
H 	H 	0.90999 0.21957 0.16924 0.04300
C 	C 	0.79859 0.03370 0.19133 0.03400
C 	C 	0.75475 0.07661 0.19218 -0.05700
C 	C 	0.69097 0.05314 0.16959 -0.02400
C 	C 	0.67109 0.98705 0.14563 -0.01900
C 	C 	0.71640 0.94503 0.14402 0.04500
C 	C 	0.78005 0.96875 0.16692 -0.08600
C 	C 	0.69682 0.87933 0.11989 -0.07700
C 	C 	0.63184 0.85428 0.09818 0.01300
C 	C 	0.58568 0.89478 0.10034 -0.08700
C 	C 	0.60608 0.96177 0.12377 -0.01100
H 	H 	0.76999 0.12788 0.21055 0.04200
H 	H 	0.65693 0.08613 0.17082 0.02800
H 	H 	0.81469 0.93628 0.16617 0.05000
H 	H 	0.73155 0.84714 0.11823 0.04500
H 	H 	0.61704 0.80286 0.07999 0.03500
H 	H 	0.57066 0.99320 0.12559 0.02200
H 	H 	0.96264 0.88272 0.20799 0.05000
C 	C 	0.55336 0.86350 0.33878 -0.07700
C 	C 	0.56914 0.81326 0.31373 0.00700
C 	C 	0.63255 0.84133 0.29188 -0.07200
C 	C 	0.68110 0.92014 0.29463 0.04100
C 	C 	0.66527 0.97135 0.31931 -0.01500
C 	C 	0.60150 0.94289 0.34127 -0.01400
C 	C 	0.71375 0.05025 0.32200 -0.02600
C 	C 	0.77766 0.07800 0.30057 -0.05600
C 	C 	0.79382 0.02751 0.27607 0.03100
C 	C 	0.74562 0.94840 0.27322 -0.08000
H 	H 	0.64386 0.80162 0.27286 0.04400
H 	H 	0.58996 0.98213 0.36052 0.03500
H 	H 	0.70217 0.09011 0.34079 0.03100
H 	H 	0.81470 0.13891 0.30303 0.04200
H 	H 	0.75856 0.90907 0.25467 0.05000
H 	H 	0.89777 0.90618 0.29859 0.04200
C 	C 	0.55962 0.01114 0.51671 -0.01600
H 	H 	0.61688 0.04889 0.51304 0.03200
H 	H 	0.55903 0.93135 0.47209 0.04400
C 	C 	0.90302 0.53895 0.49129 -0.01100
C 	C 	0.88177 0.45973 0.49986 -0.06800
C 	C 	0.93291 0.42570 0.49545 -0.01700
H 	H 	0.86481 0.56654 0.49486 0.04900
H 	H 	0.91748 0.36474 0.50163 0.03800
C 	C 	0.54666 0.52338 0.46773 -0.01100
H 	H 	0.60534 0.55362 0.47272 0.04900
C 	C 	0.81308 0.22909 0.66913 -0.08200
C 	C 	0.87117 0.27828 0.69279 0.00900
C 	C 	0.92298 0.25230 0.70736 -0.07300
C 	C 	0.91683 0.17670 0.69852 0.04200
C 	C 	0.85448 0.12462 0.67788 -0.01000
C 	C 	0.80214 0.15082 0.66383 -0.00600
C 	C 	0.84719 0.04822 0.67006 -0.03000
C 	C 	0.90102 0.02351 0.68293 -0.05000
C 	C 	0.96302 0.07509 0.70348 0.02700
C 	C 	0.97239 0.15271 0.70962 -0.07500
H 	H 	0.87892 0.33835 0.69773 0.00900
H 	H 	0.96911 0.29178 0.72444 0.04400
H 	H 	0.75634 0.11230 0.64618 0.04400
H 	H 	0.79962 0.00777 0.65426 0.03700
C 	C 	0.82122 0.64054 0.59871 -0.08300
C 	C 	0.89004 0.68796 0.58446 0.01600
C 	C 	0.93882 0.75002 0.60647 -0.07600
C 	C 	0.91766 0.76732 0.64205 0.04000
C 	C 	0.84431 0.72799 0.65347 -0.01300
C 	C 	0.79607 0.66434 0.63160 -0.01600
C 	C 	0.82149 0.75080 0.68739 -0.03200
C 	C 	0.87188 0.81058 0.71024 -0.05300
C 	C 	0.94660 0.84376 0.70086 0.02600
C 	C 	0.96904 0.82200 0.66664 -0.08100
H 	H 	0.90828 0.67204 0.55799 0.03400
H 	H 	0.74163 0.62956 0.64179 0.02800
H 	H 	0.76470 0.72319 0.69578 0.03300
H 	H 	0.85268 0.83199 0.73478 0.04300
C 	C 	0.92250 0.42824 0.01208 -0.00700
C 	C 	0.87899 0.47142 0.01430 -0.06800
C 	C 	0.90013 0.53587 0.03943 -0.01000
H 	H 	0.90430 0.37506 0.99492 0.03000
H 	H 	0.86481 0.56681 0.04345 0.03800
C 	C 	0.55117 0.06003 0.97663 -0.01600
H 	H 	0.61000 0.07678 0.97565 0.04000
H 	H 	0.56961 0.60656 0.91427 0.03500
C 	C 	0.97424 0.07426 0.78650 0.02700
C 	C 	0.89768 0.03267 0.78556 -0.04900
C 	C 	0.85236 0.06429 0.80224 -0.02900
C 	C 	0.88299 0.13760 0.82051 -0.01300
C 	C 	0.96010 0.17891 0.82266 0.04200
C 	C 	0.99043 0.25207 0.84140 -0.07500
C 	C 	0.94447 0.28275 0.85883 0.01500
C 	C 	0.86791 0.24084 0.85730 -0.08900
C 	C 	0.83748 0.16954 0.83710 -0.00700
H 	H 	0.87325 0.97704 0.77046 0.04000
H 	H 	0.79329 0.03206 0.80061 0.03100
H 	H 	0.96849 0.33793 0.87431 0.03400
H 	H 	0.77825 0.13800 0.83518 0.00700
C 	C 	0.96335 0.84944 0.78699 0.02600
C 	C 	0.92565 0.86508 0.81735 -0.05600
C 	C 	0.88355 0.80575 0.84133 -0.02900
C 	C 	0.87980 0.72996 0.83603 -0.01100
C 	C 	0.91890 0.71369 0.80623 0.03900
C 	C 	0.96131 0.77382 0.78202 -0.07600
C 	C 	0.91551 0.63779 0.80124 -0.07200
C 	C 	0.87439 0.57877 0.82588 0.01100
C 	C 	0.83592 0.59481 0.85586 -0.07900
C 	C 	0.83827 0.67045 0.86057 -0.00900
H 	H 	0.92980 0.92356 0.82283 0.04300
H 	H 	0.85453 0.81910 0.86437 0.03300
H 	H 	0.99251 0.76194 0.75958 0.04800
H 	H 	0.94503 0.62444 0.77844 0.04100
H 	H 	0.87334 0.52087 0.82193 0.03500
H 	H 	0.80805 0.68305 0.88329 0.03700
