data_crystal

_cell_length_a 18.22424
_cell_length_b 14.90119
_cell_length_c 44.02225
_cell_angle_alpha 90.49459
_cell_angle_beta  91.08847
_cell_angle_gamma 111.02993

_symmetry_space_group_name_	'P 1'
_symmetry_space_group_name_H-M	'P 1'

loop_
_symmetry_equiv_pos_as_xyz
  x,y,z

loop_
_atom_site_label
_atom_site_type_symbol
_atom_site_fract_x
_atom_site_fract_y
_atom_site_fract_z
_atom_site_charge
Ni	Ni	0.74355 0.35240 0.89452 1.09600
O 	O 	0.64970 0.30273 0.86432 -0.70300
Ni	Ni	0.56343 0.31601 0.88991 1.09500
O 	O 	0.81927 0.31692 0.86695 -0.36000
O 	O 	0.73469 0.17017 0.85114 -0.40800
O 	O 	0.78673 0.48242 0.87311 -0.37000
Ni	Ni	0.61969 0.16450 0.85465 1.06100
O 	O 	0.80375 0.54572 0.93009 -0.39700
O 	O 	0.62400 0.12723 0.89909 -0.40300
O 	O 	0.47408 0.26090 0.85890 -0.38500
O 	O 	0.65732 0.36816 0.91944 -0.70700
O 	O 	0.83132 0.40756 0.92645 -0.36600
O 	O 	0.48835 0.34647 0.91891 -0.35500
O 	O 	0.56838 0.50348 0.92561 -0.40700
Ni	Ni	0.68387 0.50639 0.92675 1.06300
H 	H 	0.65677 0.34129 0.84567 0.14700
H 	H 	0.65075 0.33305 0.93877 0.15700
C 	C 	0.57761 0.14331 0.91912 0.24800
O 	O 	0.68702 0.53639 0.88170 -0.42100
C 	C 	0.79492 0.24899 0.84587 0.26600
C 	C 	0.45974 0.17661 0.84567 0.27300
C 	C 	0.74475 0.53380 0.86490 0.27900
C 	C 	0.50691 0.42910 0.93356 0.24700
C 	C 	0.84109 0.49010 0.94041 0.25000
O 	O 	0.52844 0.18532 0.91089 -0.35900
O 	O 	0.49934 0.12178 0.85410 -0.40500
Ni	Ni	0.52429 0.39484 0.55848 1.09700
O 	O 	0.62311 0.42342 0.53294 -0.69800
Ni	Ni	0.68245 0.35496 0.55731 1.09600
O 	O 	0.48138 0.48558 0.53565 -0.35700
O 	O 	0.59654 0.61182 0.53227 -0.39800
O 	O 	0.45742 0.29187 0.52714 -0.35800
Ni	Ni	0.68847 0.56120 0.53372 1.06700
O 	O 	0.40819 0.20002 0.57885 -0.40700
O 	O 	0.68416 0.56544 0.57977 -0.42200
O 	O 	0.77886 0.38991 0.53052 -0.36800
O 	O 	0.58243 0.32445 0.58201 -0.70300
O 	O 	0.42936 0.35927 0.58565 -0.38000
O 	O 	0.72262 0.26483 0.58223 -0.36300
O 	O 	0.60790 0.13634 0.57841 -0.40700
Ni	Ni	0.51603 0.18710 0.57892 1.06300
H 	H 	0.61151 0.39755 0.51189 0.15400
H 	H 	0.59292 0.34753 0.60338 0.15000
C 	C 	0.73115 0.53691 0.59659 0.28000
O 	O 	0.51908 0.18439 0.53285 -0.40800
C 	C 	0.52682 0.56080 0.52105 0.25100
C 	C 	0.80972 0.47842 0.52069 0.25400
C 	C 	0.47728 0.22149 0.51623 0.25800
C 	C 	0.67559 0.18133 0.59222 0.26800
C 	C 	0.39349 0.26930 0.59333 0.27100
O 	O 	0.74748 0.46086 0.58841 -0.36500
O 	O 	0.79589 0.54849 0.53487 -0.40000
Ni	Ni	0.98331 0.02380 0.68871 1.09900
O 	O 	0.07358 0.03804 0.71830 -0.71500
Ni	Ni	0.01593 0.98092 0.75516 1.09300
O 	O 	0.06318 0.08151 0.65571 -0.37000
O 	O 	0.11610 0.21739 0.68502 -0.41900
O 	O 	0.97250 0.88488 0.67632 -0.37100
Ni	Ni	0.13344 0.17272 0.72845 1.06200
O 	O 	0.79165 0.90953 0.68022 -0.41800
O 	O 	0.04191 0.20827 0.74525 -0.41200
O 	O 	0.11396 0.98306 0.77914 -0.37300
O 	O 	0.92500 0.99486 0.72837 -0.69100
O 	O 	0.89821 0.01485 0.65782 -0.38100
O 	O 	0.94932 0.88917 0.78745 -0.36000
O 	O 	0.82568 0.86373 0.76960 -0.41400
Ni	Ni	0.82429 0.88828 0.72358 1.06500
H 	H 	0.10771 0.00328 0.71149 0.15900
H 	H 	0.91257 0.05200 0.73394 0.14400
C 	C 	0.00919 0.17075 0.77082 0.27200
O 	O 	0.88342 0.80186 0.71147 -0.42200
C 	C 	0.11827 0.16628 0.66068 0.27100
C 	C 	0.17597 0.06491 0.77923 0.26600
C 	C 	0.91236 0.80776 0.68417 0.27800
C 	C 	0.87575 0.83141 0.78296 0.28300
C 	C 	0.82507 0.99011 0.66547 0.26100
O 	O 	0.02079 0.09583 0.78175 -0.36900
O 	O 	0.16748 0.14620 0.77090 -0.40300
Ni	Ni	0.14444 0.75851 0.38935 1.10200
O 	O 	0.23246 0.81048 0.35840 -0.70200
Ni	Ni	0.32235 0.79080 0.38111 1.09900
O 	O 	0.06600 0.80484 0.36677 -0.34500
O 	O 	0.15014 0.94896 0.35128 -0.39700
O 	O 	0.09253 0.63310 0.36400 -0.36300
Ni	Ni	0.26449 0.94997 0.35217 1.06200
O 	O 	0.08381 0.56010 0.42010 -0.40700
O 	O 	0.27332 0.98030 0.39783 -0.39600
O 	O 	0.40488 0.84561 0.34919 -0.38700
O 	O 	0.23378 0.73634 0.41143 -0.69900
O 	O 	0.06311 0.70268 0.42180 -0.34800
O 	O 	0.40046 0.74844 0.40596 -0.37600
O 	O 	0.31483 0.59538 0.41076 -0.39900
Ni	Ni	0.20218 0.59588 0.41497 1.08600
H 	H 	0.22083 0.77426 0.33885 0.14800
H 	H 	0.24528 0.76957 0.43150 0.18100
C 	C 	0.33183 0.97384 0.41445 0.34500
O 	O 	0.19082 0.57400 0.36931 -0.41600
C 	C 	0.08799 0.87098 0.34601 0.26800
C 	C 	0.41888 0.93146 0.33785 0.27700
C 	C 	0.12943 0.57750 0.35428 0.27500
C 	C 	0.37617 0.66749 0.42076 0.36000
C 	C 	0.05134 0.61682 0.43287 0.34300
O 	O 	0.36992 0.91837 0.40550 -0.38000
O 	O 	0.38393 0.98802 0.34889 -0.41100
Ni	Ni	0.33095 0.85277 0.06188 1.10300
O 	O 	0.25189 0.73858 0.08347 -0.69800
Ni	Ni	0.24019 0.62891 0.05474 1.10300
O 	O 	0.29739 0.95588 0.08321 -0.35400
O 	O 	0.17544 0.86803 0.06644 -0.41800
O 	O 	0.41707 0.86923 0.09548 -0.36000
Ni	Ni	0.14688 0.74093 0.08968 1.07100
O 	O 	0.49752 0.87150 0.03979 -0.41600
O 	O 	0.07410 0.66267 0.05497 -0.41500
O 	O 	0.14449 0.52237 0.07332 -0.35400
O 	O 	0.33028 0.74005 0.03608 -0.69400
O 	O 	0.41365 0.95582 0.03863 -0.35000
O 	O 	0.25737 0.53106 0.02490 -0.33800
O 	O 	0.38498 0.57788 0.04118 -0.41500
Ni	Ni	0.43243 0.72683 0.04013 1.06800
H 	H 	0.27453 0.72738 0.10306 0.16100
H 	H 	0.31886 0.74991 0.01455 0.16200
C 	C 	0.09625 0.64888 0.02769 0.37800
O 	O 	0.42380 0.72328 0.08574 -0.42000
C 	C 	0.22278 0.94547 0.08047 0.27100
C 	C 	0.10827 0.53350 0.09834 0.28400
C 	C 	0.44819 0.80362 0.10117 0.28600
C 	C 	0.32856 0.52887 0.02204 0.35400
C 	C 	0.47274 0.93630 0.02706 0.34100
O 	O 	0.16929 0.65821 0.02267 -0.37800
O 	O 	0.12626 0.61787 0.11216 -0.42200
Ni	Ni	0.88325 0.01933 0.18530 1.09800
O 	O 	0.79252 0.02678 0.21034 -0.70700
Ni	Ni	0.84948 0.10293 0.24645 1.10000
O 	O 	0.80481 0.94302 0.15187 -0.36300
O 	O 	0.74023 0.83091 0.18590 -0.41500
O 	O 	0.89316 0.14342 0.16184 -0.36500
Ni	Ni	0.72905 0.89989 0.22562 1.06400
O 	O 	0.05764 0.15589 0.17269 -0.41800
O 	O 	0.82136 0.87223 0.24604 -0.41100
O 	O 	0.75126 0.11165 0.26644 -0.36500
O 	O 	0.94083 0.07724 0.22471 -0.68800
O 	O 	0.97285 0.00347 0.16189 -0.37900
O 	O 	0.91550 0.20948 0.27685 -0.36400
O 	O 	0.03913 0.23628 0.26032 -0.42100
Ni	Ni	0.03305 0.18894 0.21571 1.06400
H 	H 	0.76024 0.05830 0.19963 0.16200
H 	H 	0.95908 0.02975 0.23472 0.15100
C 	C 	0.85718 0.92230 0.27026 0.27800
O 	O 	0.95518 0.24701 0.20056 -0.43300
C 	C 	0.74084 0.87260 0.15974 0.27400
C 	C 	0.69059 0.02995 0.26969 0.26400
C 	C 	0.93174 0.23196 0.17206 0.28100
C 	C 	0.98824 0.26861 0.27261 0.30200
C 	C 	0.04457 0.06770 0.16261 0.26400
O 	O 	0.84580 0.00113 0.27773 -0.36600
O 	O 	0.69971 0.94654 0.26551 -0.40600
C 	C 	0.02893 0.29732 0.12546 -0.02300
H 	H 	0.03989 0.23082 0.11963 0.05200
C 	C 	0.09164 0.39319 0.13688 -0.00900
H 	H 	0.15513 0.40637 0.14055 0.02900
C 	C 	0.99499 0.35282 0.10291 0.00700
H 	H 	0.97929 0.33303 0.07864 0.05100
C 	C 	0.05732 0.44745 0.11470 -0.06400
C 	C 	0.97288 0.30763 0.14988 -0.05400
C 	C 	0.93799 0.36145 0.12767 -0.00900
H 	H 	0.87441 0.34792 0.12412 0.03800
C 	C 	0.00084 0.45737 0.13902 -0.02600
H 	H 	0.98935 0.52389 0.14461 0.04000
C 	C 	0.03527 0.40288 0.16131 -0.02400
H 	H 	0.05211 0.42449 0.18541 0.02200
C 	C 	0.59681 0.81996 0.10185 -0.00900
H 	H 	0.59804 0.79885 0.07766 0.01900
C 	C 	0.61096 0.76425 0.12941 -0.01100
H 	H 	0.62466 0.69750 0.12811 0.03500
C 	C 	0.65075 0.91613 0.11665 -0.00600
H 	H 	0.69718 0.97412 0.10484 0.04600
C 	C 	0.66412 0.85993 0.14404 -0.08000
C 	C 	0.52565 0.83052 0.11782 -0.06400
C 	C 	0.57864 0.92662 0.13241 -0.01100
H 	H 	0.56471 0.99321 0.13365 0.04300
C 	C 	0.59331 0.87092 0.16011 -0.02100
H 	H 	0.59262 0.89200 0.18433 -0.01300
C 	C 	0.53935 0.77470 0.14523 -0.01700
H 	H 	0.49299 0.71662 0.15704 0.02800
C 	C 	0.09638 0.95966 0.10262 -0.02600
H 	H 	0.05496 0.90864 0.08611 0.02900
C 	C 	0.10266 0.06456 0.10761 0.00200
H 	H 	0.06729 0.09965 0.09498 0.04300
C 	C 	0.09678 0.94471 0.13711 -0.03100
H 	H 	0.05671 0.88095 0.14897 0.01800
C 	C 	0.10274 0.04950 0.14213 -0.06000
C 	C 	0.18695 0.99238 0.10322 -0.07100
C 	C 	0.18731 0.97757 0.13777 -0.03300
H 	H 	0.22236 0.94144 0.15013 0.01600
C 	C 	0.19324 0.08329 0.14312 -0.00900
H 	H 	0.23273 0.13465 0.16003 0.02500
C 	C 	0.19377 0.09762 0.10805 -0.00400
H 	H 	0.23413 0.16053 0.09594 0.05800
C 	C 	0.58796 0.09780 0.30272 -0.01900
H 	H 	0.61420 0.17741 0.30181 0.04000
C 	C 	0.57321 0.03726 0.33217 0.00600
H 	H 	0.58668 0.06656 0.35574 0.04100
C 	C 	0.50419 0.03434 0.29061 -0.00700
H 	H 	0.46069 0.06122 0.27979 0.01900
C 	C 	0.49132 0.97417 0.31962 -0.07500
C 	C 	0.62154 0.02717 0.28787 -0.04700
C 	C 	0.53908 0.96478 0.27554 -0.03700
H 	H 	0.52490 0.93477 0.25207 0.01700
C 	C 	0.52570 0.90501 0.30460 -0.00400
H 	H 	0.50072 0.82522 0.30510 0.03300
C 	C 	0.60765 0.96766 0.31710 -0.01800
H 	H 	0.65032 0.93998 0.32822 0.05000
C 	C 	0.13261 0.44414 0.31423 -0.02200
H 	H 	0.19683 0.45911 0.31565 0.03500
C 	C 	0.08576 0.44879 0.28499 -0.01100
H 	H 	0.11069 0.46653 0.26204 0.01700
C 	C 	0.06764 0.34846 0.32265 0.00400
H 	H 	0.07765 0.28339 0.33082 0.03500
C 	C 	0.02111 0.35367 0.29362 -0.08600
C 	C 	0.08915 0.49918 0.33162 -0.05200
C 	C 	0.02440 0.40416 0.34021 -0.03200
H 	H 	0.99952 0.38640 0.36317 0.05900
C 	C 	0.97727 0.40852 0.31091 0.02100
H 	H 	0.91301 0.39311 0.30940 0.03800
C 	C 	0.04260 0.50500 0.30264 -0.03000
H 	H 	0.03280 0.57033 0.29462 0.03200
C 	C 	0.90256 0.85428 0.31992 -0.00400
H 	H 	0.84480 0.82714 0.33113 0.04600
C 	C 	0.97644 0.93720 0.33191 0.00500
H 	H 	0.98076 0.97896 0.35331 0.05200
C 	C 	0.95357 0.79356 0.31238 -0.00400
H 	H 	0.93910 0.71658 0.31785 0.04800
C 	C 	0.02676 0.87718 0.32421 -0.06900
C 	C 	0.91705 0.89691 0.28797 -0.07400
C 	C 	0.96727 0.83669 0.28002 -0.01000
H 	H 	0.96270 0.79530 0.25853 0.02700
C 	C 	0.04161 0.91966 0.29225 -0.04100
H 	H 	0.09949 0.94704 0.28114 0.01000
C 	C 	0.99079 0.97997 0.29987 -0.00400
H 	H 	0.00630 0.05732 0.29468 0.02900
C 	C 	0.44015 0.17180 0.48773 0.00900
C 	C 	0.48633 0.14971 0.46591 -0.06900
C 	C 	0.45076 0.08813 0.44142 0.06500
C 	C 	0.36836 0.04684 0.43861 -0.19200
C 	C 	0.32190 0.07226 0.45973 0.38200
C 	C 	0.35780 0.13487 0.48414 -0.16000
H 	H 	0.48735 0.07114 0.42490 0.03400
H 	H 	0.32156 0.15125 0.50094 0.11400
H 	H 	0.54987 0.17835 0.46833 0.04900
F 	F 	0.24226 0.03333 0.45739 -0.45400
C 	C 	0.86645 0.50172 0.49610 0.00300
C 	C 	0.93461 0.47899 0.49847 -0.06400
C 	C 	0.99449 0.51542 0.47748 0.07100
C 	C 	0.98652 0.57477 0.45399 -0.19100
C 	C 	0.91646 0.59349 0.45082 0.39000
C 	C 	0.85706 0.55751 0.47189 -0.16600
H 	H 	0.04780 0.49946 0.47992 0.01400
H 	H 	0.80411 0.57439 0.46972 0.07500
H 	H 	0.94244 0.43607 0.51712 0.06400
F 	F 	0.90565 0.64580 0.42721 -0.44500
C 	C 	0.49178 0.60260 0.49745 0.01200
C 	C 	0.53529 0.64430 0.47192 -0.07900
C 	C 	0.49855 0.67113 0.44733 0.07900
C 	C 	0.41822 0.65632 0.44819 -0.22200
C 	C 	0.37620 0.62106 0.47460 0.39000
C 	C 	0.41283 0.59422 0.49911 -0.16700
H 	H 	0.53160 0.69940 0.42715 0.02400
H 	H 	0.37943 0.56499 0.51913 0.11400
H 	H 	0.59659 0.65211 0.47060 0.03800
F 	F 	0.29921 0.61062 0.47615 -0.50900
C 	C 	0.67016 0.01939 0.62147 -0.01200
H 	H 	0.61039 0.97060 0.61418 0.02600
C 	C 	0.69896 0.04770 0.65489 -0.02400
H 	H 	0.66346 0.02125 0.67537 0.01500
C 	C 	0.74792 0.00381 0.61454 -0.00300
H 	H 	0.75245 0.94111 0.60199 0.03500
C 	C 	0.77587 0.03265 0.64757 -0.06500
C 	C 	0.70915 0.12549 0.61249 -0.06500
C 	C 	0.78595 0.11022 0.60537 -0.00400
H 	H 	0.82186 0.13658 0.58497 0.04700
C 	C 	0.81411 0.13891 0.63850 -0.01200
H 	H 	0.87377 0.18856 0.64564 0.03400
C 	C 	0.73686 0.15441 0.64552 -0.02200
H 	H 	0.73250 0.21727 0.65802 0.02100
C 	C 	0.23075 0.29460 0.62803 -0.00900
H 	H 	0.20967 0.35576 0.62927 0.03500
C 	C 	0.24110 0.24364 0.59844 -0.00700
H 	H 	0.23011 0.26351 0.57499 0.04700
C 	C 	0.31115 0.29529 0.64040 -0.02000
H 	H 	0.35773 0.35756 0.65153 0.02300
C 	C 	0.32037 0.24393 0.61109 -0.06300
C 	C 	0.19048 0.19569 0.64228 -0.07400
C 	C 	0.26982 0.19605 0.65491 -0.02400
H 	H 	0.28088 0.17614 0.67834 -0.00300
C 	C 	0.27997 0.14508 0.62540 -0.01700
H 	H 	0.30081 0.08369 0.62425 0.02400
C 	C 	0.19980 0.14439 0.61296 -0.00500
H 	H 	0.15341 0.08208 0.60176 0.04600
C 	C 	0.89710 0.66383 0.64277 -0.00700
H 	H 	0.95667 0.65989 0.64476 0.03800
C 	C 	0.85958 0.68704 0.61334 -0.01000
H 	H 	0.88758 0.70100 0.59082 0.04200
C 	C 	0.81854 0.58072 0.64926 -0.01300
H 	H 	0.81257 0.50725 0.65646 0.03300
C 	C 	0.78179 0.60514 0.62024 -0.06300
C 	C 	0.86847 0.73383 0.66057 -0.06500
C 	C 	0.79061 0.65163 0.66740 -0.01900
H 	H 	0.76199 0.63705 0.68979 0.02100
C 	C 	0.75352 0.67528 0.63813 -0.01600
H 	H 	0.69409 0.67978 0.63625 0.03200
C 	C 	0.83163 0.75782 0.63149 -0.01100
H 	H 	0.83734 0.83093 0.62403 0.04800
C 	C 	0.90848 0.53231 0.96201 0.01300
C 	C 	0.91249 0.61124 0.98055 -0.07800
C 	C 	0.97602 0.65222 0.00079 0.08200
C 	C 	0.03621 0.61448 0.00306 -0.21600
C 	C 	0.03312 0.53635 0.98422 0.38200
C 	C 	0.96957 0.49557 0.96378 -0.15400
H 	H 	0.97771 0.71232 0.01519 0.02000
H 	H 	0.96787 0.43537 0.94945 0.11800
H 	H 	0.86588 0.64028 0.97954 0.04400
F 	F 	0.09002 0.49769 0.98647 -0.44600
C 	C 	0.56908 0.09777 0.94897 0.00700
C 	C 	0.56797 0.00349 0.95157 -0.06100
C 	C 	0.54257 0.95288 0.97832 0.05500
C 	C 	0.51812 0.99621 0.00260 -0.21100
C 	C 	0.52697 0.09371 0.00106 0.39800
C 	C 	0.55171 0.14391 0.97426 -0.16900
H 	H 	0.53732 0.87822 0.97945 -0.00500
H 	H 	0.55429 0.21751 0.97273 0.09300
H 	H 	0.58234 0.96755 0.93233 0.04800
F 	F 	0.50921 0.13888 0.02519 -0.44300
C 	C 	0.44768 0.44500 0.95303 0.01300
C 	C 	0.42645 0.52587 0.94903 -0.07600
C 	C 	0.37660 0.54606 0.96958 0.05900
C 	C 	0.34925 0.48704 0.99473 -0.20600
C 	C 	0.36450 0.40135 0.99706 0.39700
C 	C 	0.41347 0.38035 0.97622 -0.17000
H 	H 	0.36449 0.61182 0.96736 0.00000
H 	H 	0.42771 0.31620 0.97896 0.11900
H 	H 	0.45026 0.57452 0.93055 0.05300
F 	F 	0.33682 0.34221 0.02082 -0.44400
C 	C 	0.97433 0.24992 0.81970 0.00300
H 	H 	0.03279 0.27089 0.83135 0.03600
C 	C 	0.89781 0.17323 0.83073 -0.00400
H 	H 	0.89241 0.13046 0.85166 0.04700
C 	C 	0.92959 0.31876 0.81282 -0.01500
H 	H 	0.95025 0.39632 0.81911 0.04300
C 	C 	0.85354 0.24120 0.82375 -0.06000
C 	C 	0.95463 0.20763 0.78725 -0.06400
C 	C 	0.91062 0.27600 0.77991 -0.01800
H 	H 	0.91641 0.31819 0.75885 0.02900
C 	C 	0.83344 0.19932 0.79128 -0.02500
H 	H 	0.77479 0.17806 0.77978 0.01000
C 	C 	0.87799 0.13109 0.79829 -0.01800
H 	H 	0.85622 0.05322 0.79231 0.03000
C 	C 	0.30343 0.07790 0.84208 -0.00700
H 	H 	0.29355 0.05731 0.86626 0.04800
C 	C 	0.28156 0.00710 0.81431 -0.00500
H 	H 	0.25279 0.92776 0.81540 0.03100
C 	C 	0.26914 0.14485 0.82512 -0.00500
H 	H 	0.22996 0.17892 0.83522 0.04700
C 	C 	0.24822 0.07499 0.79761 -0.06100
C 	C 	0.38383 0.13263 0.82822 -0.06200
C 	C 	0.34976 0.19928 0.81138 -0.01400
H 	H 	0.37763 0.27872 0.81000 0.03100
C 	C 	0.32907 0.12925 0.78393 -0.02500
H 	H 	0.33953 0.15043 0.75981 0.01000
C 	C 	0.36375 0.06233 0.80085 -0.02100
H 	H 	0.40360 0.02897 0.79094 0.01900
C 	C 	0.81757 0.59944 0.81280 -0.01500
H 	H 	0.82274 0.53160 0.80433 0.02900
C 	C 	0.88712 0.69400 0.82058 -0.00700
H 	H 	0.95038 0.70564 0.81813 0.04200
C 	C 	0.77370 0.65724 0.79615 -0.02000
H 	H 	0.74396 0.63865 0.77348 0.01800
C 	C 	0.84279 0.75065 0.80427 -0.06500
C 	C 	0.77823 0.61090 0.84244 -0.06500
C 	C 	0.73397 0.66751 0.82610 -0.01600
H 	H 	0.67071 0.65594 0.82853 0.02900
C 	C 	0.80345 0.76183 0.83393 -0.00800
H 	H 	0.79825 0.82959 0.84247 0.03600
C 	C 	0.84735 0.70425 0.85052 -0.00700
H 	H 	0.87714 0.72286 0.87318 0.04300
