data_crystal

_cell_length_a 25.37658
_cell_length_b 21.86168
_cell_length_c 52.51898
_cell_angle_alpha 90.56197
_cell_angle_beta  91.19167
_cell_angle_gamma 110.77349

_symmetry_space_group_name_	'P 1'
_symmetry_space_group_name_H-M	'P 1'

loop_
_symmetry_equiv_pos_as_xyz
  x,y,z

loop_
_atom_site_label
_atom_site_type_symbol
_atom_site_fract_x
_atom_site_fract_y
_atom_site_fract_z
_atom_site_charge
Ni	Ni	0.70355 0.32107 0.88922 1.10300
O 	O 	0.64203 0.26727 0.86381 -0.70600
Ni	Ni	0.57399 0.27424 0.87981 1.10400
O 	O 	0.76436 0.30441 0.86821 -0.35500
O 	O 	0.71815 0.19316 0.86880 -0.38400
O 	O 	0.70804 0.39864 0.86674 -0.39100
Ni	Ni	0.63238 0.17543 0.86186 1.07200
O 	O 	0.70586 0.39778 0.94488 -0.40500
O 	O 	0.62124 0.16216 0.90012 -0.40300
O 	O 	0.51828 0.22618 0.85169 -0.37200
O 	O 	0.63431 0.31650 0.90744 -0.70300
O 	O 	0.76398 0.38158 0.91393 -0.35800
O 	O 	0.51531 0.30772 0.89534 -0.36300
O 	O 	0.58078 0.41066 0.89699 -0.41000
Ni	Ni	0.64549 0.40441 0.92031 1.07400
H 	H 	0.64675 0.28639 0.84663 0.16700
H 	H 	0.63011 0.28733 0.92214 0.15800
C 	C 	0.57389 0.15885 0.91068 0.28800
O 	O 	0.70702 0.46891 0.89910 -0.38100
C 	C 	0.75989 0.24487 0.86085 0.29200
C 	C 	0.51344 0.16618 0.84447 0.30000
C 	C 	0.71964 0.45824 0.87574 0.33100
C 	C 	0.52891 0.37059 0.90051 0.27100
C 	C 	0.75504 0.39557 0.93776 0.29000
O 	O 	0.54310 0.19090 0.90109 -0.36000
O 	O 	0.54654 0.13662 0.85463 -0.38300
Ni	Ni	0.63154 0.33358 0.57537 1.10300
O 	O 	0.69545 0.35317 0.55003 -0.69900
Ni	Ni	0.75278 0.32760 0.56962 1.10200
O 	O 	0.59167 0.38850 0.55717 -0.36600
O 	O 	0.67396 0.47557 0.55688 -0.40300
O 	O 	0.58291 0.25452 0.55299 -0.36900
Ni	Ni	0.73003 0.44260 0.53805 1.07300
O 	O 	0.56727 0.20019 0.59923 -0.39800
O 	O 	0.79396 0.49304 0.56359 -0.39100
O 	O 	0.82103 0.35996 0.54599 -0.36000
O 	O 	0.68585 0.30065 0.59365 -0.69900
O 	O 	0.56995 0.30633 0.60160 -0.36100
O 	O 	0.79632 0.28565 0.59266 -0.34300
O 	O 	0.72368 0.18722 0.59142 -0.39700
Ni	Ni	0.64939 0.20601 0.59565 1.07700
H 	H 	0.68311 0.32395 0.53487 0.15700
H 	H 	0.69585 0.32112 0.61082 0.18000
C 	C 	0.81472 0.46788 0.58224 0.32200
O 	O 	0.63980 0.19441 0.55727 -0.41300
C 	C 	0.61973 0.44968 0.55139 0.27500
C 	C 	0.82765 0.40385 0.52787 0.29000
C 	C 	0.60034 0.20805 0.54472 0.28600
C 	C 	0.77315 0.22534 0.60069 0.30400
C 	C 	0.54987 0.24529 0.60947 0.30500
O 	O 	0.78503 0.41095 0.59154 -0.37500
O 	O 	0.78396 0.41433 0.51738 -0.41300
Ni	Ni	0.01298 0.95926 0.74869 1.09800
O 	O 	0.03321 0.89454 0.72639 -0.71100
Ni	Ni	0.07450 0.95226 0.69852 1.09900
O 	O 	0.97183 0.88675 0.77356 -0.34700
O 	O 	0.91485 0.82500 0.74164 -0.37700
O 	O 	0.08547 0.97952 0.77126 -0.35500
Ni	Ni	0.96523 0.83039 0.71042 1.08700
O 	O 	0.07633 0.10194 0.76708 -0.38500
O 	O 	0.93586 0.89919 0.69579 -0.38600
O 	O 	0.09410 0.88135 0.67955 -0.35000
O 	O 	0.04696 0.01655 0.71875 -0.69200
O 	O 	0.98930 0.02355 0.76938 -0.34700
O 	O 	0.13118 0.02031 0.67625 -0.33900
O 	O 	0.14631 0.11674 0.69720 -0.37400
Ni	Ni	0.10648 0.09600 0.73182 1.08000
H 	H 	0.05684 0.87357 0.73538 0.17100
H 	H 	0.01751 0.02876 0.70994 0.16900
C 	C 	0.96111 0.93671 0.67703 0.32300
O 	O 	0.15105 0.03984 0.74298 -0.42000
C 	C 	0.93478 0.83077 0.76518 0.30300
C 	C 	0.05319 0.82469 0.67467 0.29700
C 	C 	0.13789 0.00269 0.76310 0.30800
C 	C 	0.16617 0.07647 0.68549 0.30500
C 	C 	0.02200 0.08516 0.77098 0.29000
O 	O 	0.01260 0.94223 0.67123 -0.35900
O 	O 	0.00001 0.81952 0.67682 -0.37500
Ni	Ni	0.25812 0.68202 0.39876 1.10100
O 	O 	0.32295 0.73101 0.37561 -0.70400
Ni	Ni	0.38814 0.72093 0.39439 1.10600
O 	O 	0.20170 0.70090 0.37460 -0.36100
O 	O 	0.25177 0.81083 0.37748 -0.38300
O 	O 	0.25186 0.60092 0.37721 -0.37600
Ni	Ni	0.33681 0.82375 0.37322 1.08100
O 	O 	0.24751 0.61272 0.45506 -0.40900
O 	O 	0.34829 0.84079 0.41166 -0.40400
O 	O 	0.44699 0.76359 0.36802 -0.36600
O 	O 	0.32502 0.68482 0.42002 -0.69800
O 	O 	0.19315 0.62638 0.42104 -0.37100
O 	O 	0.44279 0.68398 0.41257 -0.36100
O 	O 	0.37227 0.58526 0.41347 -0.39900
Ni	Ni	0.30836 0.59792 0.43416 1.07600
H 	H 	0.31857 0.71052 0.35842 0.17800
H 	H 	0.32962 0.71644 0.43425 0.15800
C 	C 	0.39552 0.84396 0.42325 0.29000
O 	O 	0.24662 0.53451 0.41109 -0.39400
C 	C 	0.20997 0.76099 0.36723 0.29800
C 	C 	0.45304 0.82235 0.35919 0.29600
C 	C 	0.23896 0.54225 0.38671 0.33200
C 	C 	0.42450 0.62230 0.41929 0.28000
C 	C 	0.19856 0.61120 0.44516 0.28700
O 	O 	0.42242 0.80539 0.41604 -0.36700
O 	O 	0.42259 0.85621 0.36814 -0.37500
Ni	Ni	0.34192 0.68241 0.05726 1.10400
O 	O 	0.27085 0.66368 0.03485 -0.70000
Ni	Ni	0.21854 0.68254 0.05922 1.10300
O 	O 	0.37745 0.63111 0.03458 -0.35900
O 	O 	0.29613 0.54264 0.03426 -0.40800
O 	O 	0.38376 0.76396 0.03620 -0.35700
Ni	Ni	0.23444 0.57590 0.02023 1.07300
O 	O 	0.41034 0.81367 0.08426 -0.39400
O 	O 	0.17712 0.52093 0.04604 -0.39300
O 	O 	0.14256 0.64775 0.03907 -0.35100
O 	O 	0.29282 0.71150 0.07997 -0.70200
O 	O 	0.41035 0.70849 0.08118 -0.36100
O 	O 	0.18190 0.71930 0.08709 -0.34000
O 	O 	0.25021 0.82062 0.08403 -0.39800
Ni	Ni	0.32713 0.80608 0.08396 1.07000
H 	H 	0.27795 0.69536 0.02086 0.15900
H 	H 	0.28909 0.68997 0.09667 0.16800
C 	C 	0.16733 0.53988 0.06879 0.32900
O 	O 	0.32682 0.82081 0.04588 -0.41200
C 	C 	0.34849 0.57060 0.02722 0.27300
C 	C 	0.13325 0.61121 0.01795 0.29100
C 	C 	0.36503 0.81178 0.03150 0.28800
C 	C 	0.20488 0.78073 0.09494 0.29500
C 	C 	0.43035 0.76788 0.09155 0.30000
O 	O 	0.19856 0.59696 0.07859 -0.38500
O 	O 	0.17525 0.60684 0.00460 -0.41400
Ni	Ni	0.93527 0.02876 0.25821 1.10600
O 	O 	0.94364 0.10234 0.23303 -0.70100
Ni	Ni	0.90696 0.05032 0.20190 1.10500
O 	O 	0.97544 0.09502 0.28673 -0.33000
O 	O 	0.05069 0.14418 0.26148 -0.38500
O 	O 	0.85921 0.03607 0.26743 -0.37100
Ni	Ni	0.02129 0.15280 0.22485 1.07200
O 	O 	0.88808 0.86183 0.25419 -0.36500
O 	O 	0.04101 0.07344 0.21422 -0.38300
O 	O 	0.91112 0.12800 0.17980 -0.34300
O 	O 	0.91053 0.97813 0.22558 -0.70300
O 	O 	0.92162 0.95094 0.28183 -0.35200
O 	O 	0.85090 0.98644 0.17655 -0.34900
O 	O 	0.79264 0.93723 0.20887 -0.39900
Ni	Ni	0.84327 0.90186 0.23151 1.08200
H 	H 	0.92335 0.13136 0.23836 0.16800
H 	H 	0.94024 0.96139 0.22056 0.17500
C 	C 	0.01967 0.03909 0.19339 0.29500
O 	O 	0.81226 0.92613 0.26397 -0.37400
C 	C 	0.02152 0.14509 0.28185 0.28800
C 	C 	0.95956 0.17788 0.17888 0.30000
C 	C 	0.81255 0.98485 0.26919 0.32100
C 	C 	0.80161 0.94704 0.18437 0.29200
C 	C 	0.92176 0.89349 0.27351 0.30400
O 	O 	0.97385 0.04249 0.18224 -0.35000
O 	O 	0.00682 0.17200 0.18777 -0.39400
C 	C 	0.96451 0.23228 0.16176 -0.08700
C 	C 	0.96416 0.22275 0.13515 0.15100
C 	C 	0.99015 0.27608 0.11954 -0.06900
C 	C 	0.01738 0.33867 0.13032 0.01400
C 	C 	0.01221 0.34925 0.15648 0.08100
C 	C 	0.98503 0.29619 0.17197 -0.00800
H 	H 	0.99225 0.26816 0.09924 0.08600
C 	C 	0.05620 0.39071 0.11480 0.03000
H 	H 	0.98409 0.30403 0.19234 0.05200
C 	C 	0.03864 0.43991 0.10494 -0.09200
C 	C 	0.07541 0.49038 0.09072 0.15000
C 	C 	0.12978 0.49062 0.08553 -0.10000
C 	C 	0.14731 0.44139 0.09540 -0.00600
C 	C 	0.11109 0.39195 0.11020 0.08000
H 	H 	0.99665 0.43946 0.10864 0.09700
H 	H 	0.18918 0.44158 0.09158 0.06300
Br	Br	0.04581 0.43493 0.17173 -0.20100
Br	Br	0.93279 0.13669 0.12002 -0.18100
Br	Br	0.05080 0.55881 0.07899 -0.20900
Br	Br	0.13767 0.32722 0.12437 -0.20300
C 	C 	0.48656 0.78934 0.10379 -0.09300
C 	C 	0.53505 0.80383 0.08899 0.15300
C 	C 	0.58853 0.82815 0.10077 -0.08400
C 	C 	0.59419 0.83872 0.12720 0.02600
C 	C 	0.54573 0.82426 0.14200 0.08500
C 	C 	0.49219 0.79951 0.13024 -0.01400
H 	H 	0.62576 0.83948 0.08935 0.08700
C 	C 	0.65093 0.86651 0.13917 0.02300
H 	H 	0.45498 0.78890 0.14163 0.05300
C 	C 	0.67750 0.93461 0.14131 -0.07900
C 	C 	0.72888 0.96182 0.15477 0.15100
C 	C 	0.75416 0.92056 0.16611 -0.09000
C 	C 	0.72901 0.85254 0.16277 -0.01200
C 	C 	0.67770 0.82538 0.14929 0.08800
H 	H 	0.65740 0.96637 0.13314 0.08600
H 	H 	0.74855 0.82066 0.17131 0.05200
Br	Br	0.55196 0.83880 0.17824 -0.18500
Br	Br	0.52908 0.79293 0.05257 -0.21000
Br	Br	0.76231 0.05528 0.15857 -0.20500
Br	Br	0.64392 0.73198 0.14553 -0.19600
C 	C 	0.05010 0.00128 0.18103 -0.09200
C 	C 	0.06425 0.95339 0.19444 0.14500
C 	C 	0.08719 0.91289 0.18146 -0.07700
C 	C 	0.09979 0.92253 0.15561 0.02300
C 	C 	0.08862 0.97284 0.14258 0.08500
C 	C 	0.06281 0.01093 0.15518 -0.00900
H 	H 	0.09630 0.87471 0.19162 0.09300
C 	C 	0.12481 0.87997 0.14230 0.02500
H 	H 	0.05311 0.04857 0.14492 0.08100
C 	C 	0.09244 0.83417 0.12398 -0.08000
C 	C 	0.11751 0.80009 0.10859 0.15300
C 	C 	0.17485 0.80839 0.11279 -0.09300
C 	C 	0.20594 0.85068 0.13242 -0.01200
C 	C 	0.18168 0.88751 0.14675 0.08300
H 	H 	0.04849 0.82783 0.12071 0.08900
H 	H 	0.24990 0.85716 0.13577 0.04400
Br	Br	0.11002 0.99168 0.10785 -0.19700
Br	Br	0.05431 0.94362 0.23051 -0.24100
Br	Br	0.07416 0.74832 0.08042 -0.19900
Br	Br	0.22797 0.95088 0.17115 -0.20000
C 	C 	0.50416 0.85738 0.34460 -0.08600
C 	C 	0.53865 0.92300 0.35071 0.14700
C 	C 	0.58721 0.95381 0.33688 -0.08400
C 	C 	0.60400 0.91945 0.31801 0.02500
C 	C 	0.57029 0.85400 0.31211 0.08900
C 	C 	0.52019 0.82381 0.32505 -0.01500
H 	H 	0.61350 0.00385 0.34168 0.08700
C 	C 	0.66006 0.94981 0.30672 0.02400
H 	H 	0.49429 0.77364 0.32026 0.07100
C 	C 	0.70852 0.95360 0.32094 -0.08200
C 	C 	0.76120 0.97453 0.30958 0.15100
C 	C 	0.76550 0.99044 0.28360 -0.09200
C 	C 	0.71804 0.99335 0.27020 -0.01200
C 	C 	0.66540 0.97353 0.28170 0.09000
H 	H 	0.70498 0.93817 0.34058 0.08600
H 	H 	0.72130 0.00701 0.25035 0.06800
Br	Br	0.59314 0.80415 0.28719 -0.18700
Br	Br	0.52439 0.96987 0.37933 -0.22500
Br	Br	0.82642 0.97686 0.32934 -0.18900
Br	Br	0.60118 0.97736 0.26276 -0.18200
C 	C 	0.04393 0.19931 0.30039 -0.09300
C 	C 	0.07857 0.19501 0.32107 0.15000
C 	C 	0.10862 0.25116 0.33557 -0.08000
C 	C 	0.10418 0.31163 0.32966 0.02400
C 	C 	0.06777 0.31532 0.30963 0.08600
C 	C 	0.03778 0.25923 0.29516 -0.01800
H 	H 	0.13596 0.24797 0.35124 0.08800
C 	C 	0.13847 0.37104 0.34422 0.02500
H 	H 	0.01108 0.26268 0.27927 0.04100
C 	C 	0.19199 0.40920 0.33568 -0.08200
C 	C 	0.22485 0.46607 0.34913 0.15000
C 	C 	0.20404 0.48511 0.37133 -0.09800
C 	C 	0.15038 0.44705 0.37975 -0.00600
C 	C 	0.11767 0.39018 0.36636 0.08500
H 	H 	0.20809 0.39455 0.31862 0.08700
H 	H 	0.13418 0.46156 0.39682 0.06900
Br	Br	0.05939 0.39684 0.30144 -0.19800
Br	Br	0.08637 0.11325 0.32938 -0.19000
Br	Br	0.29879 0.51550 0.33745 -0.22400
Br	Br	0.04463 0.33927 0.37859 -0.19800
C 	C 	0.16423 0.77383 0.35319 -0.09400
C 	C 	0.17623 0.81993 0.33354 0.15100
C 	C 	0.13237 0.83415 0.32151 -0.08200
C 	C 	0.07636 0.80147 0.32834 0.02600
C 	C 	0.06406 0.75311 0.34704 0.08200
C 	C 	0.10796 0.74016 0.35962 -0.00500
H 	H 	0.14177 0.87031 0.30667 0.09300
C 	C 	0.03091 0.81794 0.31562 0.02900
H 	H 	0.09834 0.70420 0.37453 0.07000
C 	C 	0.01219 0.79305 0.29109 -0.08900
C 	C 	0.97375 0.81369 0.27745 0.16100
C 	C 	0.95326 0.86003 0.28867 -0.08400
C 	C 	0.96909 0.88080 0.31405 -0.00000
C 	C 	0.00874 0.86143 0.32724 0.08300
H 	H 	0.02860 0.75862 0.28234 0.09200
H 	H 	0.95222 0.91422 0.32325 0.09100
Br	Br	0.98756 0.70393 0.35552 -0.18200
Br	Br	0.25160 0.86072 0.32168 -0.26700
Br	Br	0.95091 0.77755 0.24372 -0.20400
Br	Br	0.03408 0.89738 0.36072 -0.18200
C 	C 	0.57137 0.16614 0.52280 -0.07000
C 	C 	0.51381 0.15272 0.51777 0.00800
C 	C 	0.48420 0.10404 0.49993 -0.04600
C 	C 	0.51135 0.06552 0.48791 0.00900
C 	C 	0.57067 0.08427 0.49102 0.01600
C 	C 	0.60015 0.13430 0.50842 -0.01700
C 	C 	0.59993 0.05256 0.47689 -0.03700
C 	C 	0.57101 0.00097 0.46036 -0.02800
C 	C 	0.51202 0.97824 0.45835 0.01400
C 	C 	0.48124 0.00941 0.47242 0.01400
C 	C 	0.42159 0.98136 0.47182 -0.04800
C 	C 	0.39367 0.92782 0.45564 0.00700
C 	C 	0.42448 0.89914 0.44094 -0.06400
C 	C 	0.48350 0.92345 0.44289 -0.00700
H 	H 	0.49171 0.17928 0.52792 0.05100
H 	H 	0.44124 0.09849 0.49494 0.05300
H 	H 	0.64529 0.14721 0.51133 0.04600
H 	H 	0.64543 0.06796 0.47876 0.05100
H 	H 	0.59455 0.97744 0.44946 0.05400
H 	H 	0.39671 0.99832 0.48459 0.05200
H 	H 	0.34801 0.90763 0.45508 0.04400
H 	H 	0.50739 0.89993 0.43220 0.06800
C 	C 	0.14769 0.58618 0.46056 -0.06300
C 	C 	0.14130 0.53508 0.47755 0.00800
C 	C 	0.09073 0.50659 0.49021 -0.04200
C 	C 	0.04479 0.52728 0.48522 -0.00000
C 	C 	0.05350 0.58333 0.47017 0.02400
C 	C 	0.10432 0.61134 0.45742 -0.01600
C 	C 	0.01181 0.61146 0.46839 -0.04800
C 	C 	0.96141 0.58424 0.48114 -0.01800
C 	C 	0.95015 0.52591 0.49450 0.00800
C 	C 	0.99084 0.49525 0.49576 0.02200
C 	C 	0.97524 0.43167 0.50584 -0.03600
C 	C 	0.92237 0.40233 0.51654 0.01500
C 	C 	0.88355 0.43471 0.51667 -0.06100
C 	C 	0.89765 0.49651 0.50570 -0.00900
H 	H 	0.17540 0.51696 0.48082 0.03900
H 	H 	0.08856 0.47081 0.50458 0.05100
H 	H 	0.11016 0.65269 0.44511 0.05100
H 	H 	0.01880 0.65518 0.45737 0.05600
H 	H 	0.93021 0.60755 0.47997 0.04800
H 	H 	0.00225 0.40326 0.50414 0.05000
H 	H 	0.91111 0.35359 0.52415 0.06000
H 	H 	0.86746 0.52136 0.50560 0.03800
C 	C 	0.45475 0.60145 0.43965 -0.08700
C 	C 	0.51319 0.61729 0.43884 0.01900
C 	C 	0.54165 0.59631 0.45798 -0.05300
C 	C 	0.51202 0.56130 0.47894 0.01400
C 	C 	0.45255 0.54294 0.47900 0.00300
C 	C 	0.42464 0.56460 0.45979 -0.00600
C 	C 	0.42129 0.50092 0.49767 -0.03200
C 	C 	0.44803 0.47483 0.51567 -0.03800
C 	C 	0.50684 0.49329 0.51632 0.01500
C 	C 	0.53965 0.54002 0.49901 0.00600
C 	C 	0.59879 0.56562 0.50275 -0.04800
C 	C 	0.62482 0.53766 0.52051 0.00000
C 	C 	0.59229 0.48581 0.53556 -0.07300
C 	C 	0.53334 0.46578 0.53420 -0.01300
H 	H 	0.53643 0.64423 0.42296 0.04800
H 	H 	0.58574 0.60420 0.45561 0.05100
H 	H 	0.37932 0.55218 0.46036 -0.01400
H 	H 	0.37580 0.48675 0.49772 0.04000
H 	H 	0.42288 0.44041 0.52931 0.05100
H 	H 	0.62456 0.60855 0.49284 0.04900
H 	H 	0.67039 0.55594 0.52234 0.02300
H 	H 	0.50810 0.42827 0.54682 0.05700
C 	C 	0.93571 0.98097 0.66530 -0.10100
C 	C 	0.87837 0.95846 0.65756 0.15300
C 	C 	0.85471 0.00267 0.64795 -0.07600
C 	C 	0.88794 0.06893 0.64555 0.02700
C 	C 	0.94530 0.09119 0.65291 0.08800
C 	C 	0.96914 0.04705 0.66221 0.00400
H 	H 	0.81072 0.98530 0.64187 0.08300
C 	C 	0.86291 0.11408 0.63433 0.02700
H 	H 	0.01366 0.06434 0.66732 0.05400
C 	C 	0.83381 0.14328 0.64984 -0.08000
C 	C 	0.80694 0.18321 0.63919 0.14500
C 	C 	0.80941 0.19437 0.61284 -0.09000
C 	C 	0.84060 0.16752 0.59754 -0.00400
C 	C 	0.86683 0.12692 0.60809 0.08600
H 	H 	0.83137 0.13414 0.67011 0.09300
H 	H 	0.84259 0.17613 0.57723 0.06900
Br	Br	0.99174 0.18184 0.65044 -0.17200
Br	Br	0.83296 0.86702 0.65782 -0.19600
Br	Br	0.76616 0.22115 0.66079 -0.23800
Br	Br	0.90623 0.08766 0.58625 -0.18300
C 	C 	0.22304 0.10323 0.67514 -0.08800
C 	C 	0.23524 0.14925 0.65549 0.15200
C 	C 	0.29014 0.17563 0.64649 -0.07800
C 	C 	0.33287 0.15542 0.65651 0.02400
C 	C 	0.32074 0.10978 0.67629 0.09000
C 	C 	0.26599 0.08402 0.68552 -0.01200
H 	H 	0.29925 0.21045 0.63118 0.08700
C 	C 	0.38875 0.17794 0.64471 0.02500
H 	H 	0.25685 0.04905 0.70079 0.06600
C 	C 	0.43315 0.23080 0.65565 -0.07900
C 	C 	0.48625 0.25286 0.64452 0.14400
C 	C 	0.49479 0.22265 0.62192 -0.09100
C 	C 	0.45014 0.17000 0.61098 -0.01100
C 	C 	0.39755 0.14731 0.62234 0.08300
H 	H 	0.42658 0.25425 0.67295 0.09000
H 	H 	0.45626 0.14680 0.59352 0.07000
Br	Br	0.37813 0.08119 0.69061 -0.17900
Br	Br	0.17706 0.17452 0.63994 -0.18500
Br	Br	0.54700 0.32195 0.66114 -0.21800
Br	Br	0.33831 0.07377 0.60718 -0.19600
C 	C 	0.86265 0.51226 0.59755 -0.09300
C 	C 	0.91435 0.50173 0.59939 0.14300
C 	C 	0.96179 0.54975 0.61067 -0.07100
C 	C 	0.95763 0.60702 0.62114 0.02900
C 	C 	0.90518 0.61579 0.62059 0.08300
C 	C 	0.85830 0.56890 0.60858 -0.00700
H 	H 	0.00175 0.54219 0.61153 0.08200
C 	C 	0.00801 0.65764 0.63283 0.01400
H 	H 	0.81846 0.57675 0.60763 0.07000
C 	C 	0.03414 0.71608 0.61987 -0.07600
C 	C 	0.06294 0.77390 0.63369 0.15000
C 	C 	0.06457 0.77288 0.66048 -0.08500
C 	C 	0.05190 0.71228 0.67233 -0.01900
C 	C 	0.02175 0.65452 0.65877 0.08300
H 	H 	0.02715 0.71793 0.59951 0.08200
H 	H 	0.05763 0.71074 0.69279 0.05900
Br	Br	0.89658 0.69122 0.63641 -0.19200
Br	Br	0.92095 0.42181 0.58731 -0.20700
Br	Br	0.09135 0.85514 0.61614 -0.18200
Br	Br	0.99400 0.57350 0.67656 -0.17800
C 	C 	0.80329 0.41868 0.95569 -0.05800
C 	C 	0.83827 0.38209 0.95898 0.01200
C 	C 	0.88951 0.40877 0.97243 -0.04100
C 	C 	0.90814 0.47446 0.98123 0.01300
C 	C 	0.86972 0.50816 0.98066 0.01800
C 	C 	0.81760 0.48027 0.96764 -0.00500
C 	C 	0.88411 0.56959 0.99275 -0.02900
C 	C 	0.93711 0.59902 0.00449 -0.03300
C 	C 	0.97778 0.56936 0.00301 0.02900
C 	C 	0.96412 0.50742 0.99067 0.01900
C 	C 	0.00762 0.48283 0.98615 -0.05400
C 	C 	0.06209 0.51622 0.99561 0.01300
C 	C 	0.07508 0.57611 0.00870 -0.05800
C 	C 	0.03288 0.60253 0.01250 -0.01500
H 	H 	0.82583 0.33294 0.95101 0.04400
H 	H 	0.91332 0.37762 0.97668 0.05500
H 	H 	0.78941 0.50755 0.96585 0.05100
H 	H 	0.85417 0.59470 0.99305 0.05300
H 	H 	0.94728 0.64625 0.01395 0.06200
H 	H 	0.00046 0.44005 0.97417 0.05300
H 	H 	0.09465 0.49588 0.99237 0.03100
H 	H 	0.04322 0.64957 0.02217 0.07100
C 	C 	0.39362 0.86162 0.01266 -0.06400
C 	C 	0.42395 0.84656 0.99305 0.01100
C 	C 	0.45482 0.89504 0.97645 -0.04400
C 	C 	0.45765 0.96037 0.97990 0.01000
C 	C 	0.42316 0.97412 0.99832 0.01400
C 	C 	0.39239 0.92513 0.01489 -0.01400
C 	C 	0.41869 0.03618 0.99961 -0.03400
C 	C 	0.44734 0.08445 0.98261 -0.03400
C 	C 	0.48360 0.07288 0.96498 0.01500
C 	C 	0.49153 0.01190 0.96441 0.01400
C 	C 	0.53467 0.00514 0.94932 -0.04200
C 	C 	0.56312 0.05423 0.93245 0.01300
C 	C 	0.55081 0.11185 0.93114 -0.06100
C 	C 	0.51259 0.12200 0.94807 -0.01000
H 	H 	0.42306 0.79698 0.99042 0.04600
H 	H 	0.47391 0.88077 0.96034 0.05100
H 	H 	0.36791 0.93664 0.02964 0.04800
H 	H 	0.39187 0.04664 0.01350 0.04900
H 	H 	0.44193 0.13144 0.98341 0.04600
H 	H 	0.54796 0.96357 0.95125 0.05200
H 	H 	0.59425 0.04700 0.92016 0.04800
H 	H 	0.50497 0.16780 0.94789 0.04400
C 	C 	0.37137 0.53834 0.00782 -0.07400
C 	C 	0.35316 0.46987 0.00624 0.00200
C 	C 	0.37219 0.43899 0.98695 -0.04900
C 	C 	0.41214 0.47652 0.96955 0.00800
C 	C 	0.42691 0.54543 0.97000 0.01200
C 	C 	0.40782 0.57593 0.98954 -0.01900
C 	C 	0.45912 0.58298 0.95053 -0.03700
C 	C 	0.47792 0.55322 0.93092 -0.03800
C 	C 	0.46815 0.48597 0.93130 0.01200
C 	C 	0.43637 0.44702 0.95103 0.00700
C 	C 	0.43360 0.38144 0.95291 -0.04900
C 	C 	0.45971 0.35486 0.93497 0.00000
C 	C 	0.49091 0.39356 0.91549 -0.07500
C 	C 	0.49322 0.45822 0.91316 -0.02000
H 	H 	0.32321 0.44038 0.01967 0.04400
H 	H 	0.35322 0.38646 0.98480 0.04900
H 	H 	0.41998 0.62879 0.99005 0.05100
H 	H 	0.46914 0.63548 0.95042 0.04800
H 	H 	0.50215 0.58308 0.91587 0.05000
H 	H 	0.41513 0.35230 0.96912 0.04700
H 	H 	0.45871 0.30526 0.93725 0.04100
H 	H 	0.51735 0.48811 0.89805 0.05100
C 	C 	0.99895 0.13346 0.78070 -0.07800
C 	C 	0.94992 0.13809 0.76920 0.14000
C 	C 	0.91809 0.16798 0.78243 -0.07200
C 	C 	0.93622 0.19635 0.80661 0.01800
C 	C 	0.98899 0.19900 0.81665 0.10400
C 	C 	0.01979 0.16680 0.80381 -0.03300
H 	H 	0.87833 0.16739 0.77426 0.08900
C 	C 	0.89661 0.21485 0.82252 0.02900
H 	H 	0.05856 0.16532 0.81235 0.08600
C 	C 	0.87287 0.17669 0.84356 -0.08200
C 	C 	0.83045 0.18836 0.85714 0.14700
C 	C 	0.80839 0.23564 0.84851 -0.09400
C 	C 	0.83349 0.27528 0.82801 -0.01400
C 	C 	0.87810 0.26592 0.81533 0.08100
H 	H 	0.88769 0.13809 0.84946 0.09300
H 	H 	0.81818 0.31329 0.82185 0.06800
Br	Br	0.01938 0.24609 0.84781 -0.20700
Br	Br	0.92571 0.10345 0.73543 -0.24600
Br	Br	0.80781 0.14402 0.88871 -0.21200
Br	Br	0.91420 0.32444 0.78872 -0.18700
C 	C 	0.18413 0.99848 0.77941 -0.10300
C 	C 	0.19885 0.03525 0.80237 0.15300
C 	C 	0.25335 0.05188 0.81282 -0.08700
C 	C 	0.29322 0.03150 0.80077 0.02800
C 	C 	0.27652 0.98823 0.77965 0.08300
C 	C 	0.22213 0.97207 0.76902 -0.00900
H 	H 	0.26545 0.08300 0.82973 0.08500
C 	C 	0.35282 0.05893 0.80950 0.02300
H 	H 	0.21061 0.94238 0.75172 0.05400
C 	C 	0.36914 0.03691 0.83223 -0.08000
C 	C 	0.42202 0.07046 0.84361 0.14700
C 	C 	0.46039 0.12526 0.83149 -0.09000
C 	C 	0.44506 0.14512 0.80805 -0.01500
C 	C 	0.39134 0.11284 0.79717 0.08900
H 	H 	0.33949 0.99569 0.84180 0.08200
H 	H 	0.47420 0.18715 0.79869 0.06400
Br	Br	0.32807 0.95301 0.76448 -0.19100
Br	Br	0.14652 0.06720 0.81879 -0.20500
Br	Br	0.43826 0.04442 0.87685 -0.21700
Br	Br	0.37030 0.14526 0.76618 -0.19400
C 	C 	0.90764 0.77883 0.78326 -0.09200
C 	C 	0.90951 0.71570 0.77965 0.14900
C 	C 	0.87837 0.66472 0.79523 -0.07900
C 	C 	0.84513 0.67601 0.81441 0.02500
C 	C 	0.84439 0.73948 0.81847 0.08700
C 	C 	0.87576 0.79061 0.80295 -0.00500
H 	H 	0.87975 0.61616 0.79234 0.09200
C 	C 	0.81199 0.62128 0.83040 0.02700
H 	H 	0.87419 0.83910 0.80579 0.07500
C 	C 	0.83561 0.60979 0.85339 -0.08300
C 	C 	0.80594 0.55654 0.86831 0.15300
C 	C 	0.75181 0.51416 0.86022 -0.10100
C 	C 	0.72831 0.52551 0.83714 -0.00700
C 	C 	0.75803 0.57892 0.82226 0.08300
H 	H 	0.87735 0.64197 0.85956 0.08900
H 	H 	0.68675 0.49308 0.83084 0.06100
Br	Br	0.79981 0.75686 0.84473 -0.19700
Br	Br	0.95527 0.69853 0.75384 -0.27000
Br	Br	0.84127 0.54099 0.89902 -0.21300
Br	Br	0.72415 0.59357 0.79099 -0.19300
