data_crystal

_cell_length_a 27.30590
_cell_length_b 27.20288
_cell_length_c 28.20248
_cell_angle_alpha 90.00729
_cell_angle_beta  89.99344
_cell_angle_gamma 119.99842

_symmetry_space_group_name_	'P 1'
_symmetry_space_group_name_H-M	'P 1'

loop_
_symmetry_equiv_pos_as_xyz
  x,y,z

loop_
_atom_site_label
_atom_site_type_symbol
_atom_site_fract_x
_atom_site_fract_y
_atom_site_fract_z
_atom_site_charge
Zn	Zn	0.32363 0.15858 0.67093 1.20000
Zn	Zn	0.42040 0.13807 0.65257 1.22000
Zn	Zn	0.24420 0.03129 0.67353 1.21300
P 	P 	0.34615 0.08707 0.73368 0.31100
P 	P 	0.31912 0.09006 0.59142 0.31100
C 	C 	0.14698 0.92838 0.64496 0.28600
C 	C 	0.20926 0.11986 0.68296 0.31300
C 	C 	0.43284 0.25268 0.66619 0.31200
O 	O 	0.35985 0.15056 0.72818 -0.42900
O 	O 	0.29169 0.12633 0.60803 -0.41500
O 	O 	0.37251 0.07144 0.68983 -0.43400
O 	O 	0.29810 0.03612 0.62549 -0.42400
O 	O 	0.27885 0.04684 0.73642 -0.40500
O 	O 	0.38633 0.13137 0.59184 -0.42300
O 	O 	0.17587 0.95845 0.68180 -0.39400
O 	O 	0.48394 0.08136 0.68746 -0.23600
O 	O 	0.17119 0.93920 0.60312 -0.22200
O 	O 	0.20198 0.07420 0.66022 -0.42200
O 	O 	0.44878 0.21663 0.68080 -0.41200
O 	O 	0.25851 0.15497 0.70146 -0.43000
O 	O 	0.38114 0.23379 0.65093 -0.42900
C 	C 	0.51625 0.12540 0.66080 0.29000
O 	O 	0.49428 0.15104 0.63709 -0.40700
Zn	Zn	0.48891 0.01271 0.00349 1.18900
Zn	Zn	0.45890 0.10499 0.01096 1.21300
Zn	Zn	0.36698 0.92650 0.98205 1.22000
P 	P 	0.42784 0.03174 0.92642 0.30100
P 	P 	0.40102 0.99923 0.06704 0.31700
C 	C 	0.26837 0.82169 0.00205 0.25700
C 	C 	0.46241 0.90092 0.99003 0.32100
C 	C 	0.57642 0.12448 0.01571 0.29800
O 	O 	0.49005 0.04798 0.94146 -0.41900
O 	O 	0.44248 0.97486 0.06105 -0.41600
O 	O 	0.40270 0.05669 0.96464 -0.41900
O 	O 	0.35854 0.97885 0.02319 -0.42800
O 	O 	0.39133 0.96388 0.92114 -0.39300
O 	O 	0.44014 0.06678 0.07145 -0.41900
O 	O 	0.29977 0.85484 0.96750 -0.38500
O 	O 	0.39907 0.16917 0.97696 -0.22000
O 	O 	0.27089 0.84327 0.04425 -0.22800
O 	O 	0.41188 0.88898 0.00545 -0.42700
O 	O 	0.54175 0.13757 0.99378 -0.40200
O 	O 	0.49954 0.95292 0.97826 -0.42500
O 	O 	0.55680 0.07339 0.03317 -0.43700
C 	C 	0.44233 0.20082 0.00445 0.27900
O 	O 	0.46864 0.17843 0.02669 -0.40100
Zn	Zn	0.18565 0.85968 0.33595 1.20200
Zn	Zn	0.31456 0.90933 0.33370 1.22000
Zn	Zn	0.20639 0.97884 0.31912 1.22000
P 	P 	0.25280 0.92656 0.25513 0.31300
P 	P 	0.26026 0.95321 0.39730 0.31100
C 	C 	0.17733 0.05989 0.34761 0.29000
C 	C 	0.09280 0.87599 0.32970 0.30600
C 	C 	0.23060 0.78792 0.34891 0.31400
O 	O 	0.21593 0.86254 0.27166 -0.41700
O 	O 	0.19633 0.90389 0.39479 -0.41900
O 	O 	0.30739 0.95904 0.28827 -0.42100
O 	O 	0.27356 0.99555 0.35401 -0.43000
O 	O 	0.21328 0.95481 0.25625 -0.41300
O 	O 	0.29961 0.92501 0.39738 -0.39900
O 	O 	0.19298 0.04158 0.31073 -0.41200
O 	O 	0.37641 0.87915 0.26260 -0.23400
O 	O 	0.17297 0.03675 0.38939 -0.23800
O 	O 	0.12910 0.92593 0.34772 -0.41200
O 	O 	0.27011 0.82518 0.32051 -0.42400
O 	O 	0.10992 0.84072 0.31731 -0.42800
O 	O 	0.19050 0.79717 0.36382 -0.42400
C 	C 	0.39937 0.88641 0.30471 0.28700
O 	O 	0.38665 0.91206 0.33785 -0.39100
Zn	Zn	0.81500 0.66777 0.65881 1.19900
Zn	Zn	0.79136 0.76206 0.68141 1.22100
Zn	Zn	0.68792 0.58537 0.65948 1.21800
P 	P 	0.73866 0.68812 0.60081 0.31100
P 	P 	0.74820 0.65978 0.74124 0.30900
C 	C 	0.57836 0.49380 0.68387 0.29200
C 	C 	0.77514 0.55274 0.63974 0.31300
C 	C 	0.90665 0.77921 0.66583 0.31300
O 	O 	0.80287 0.70398 0.60276 -0.43200
O 	O 	0.78505 0.63385 0.72213 -0.41600
O 	O 	0.72414 0.71281 0.64636 -0.43000
O 	O 	0.69300 0.63790 0.70890 -0.41600
O 	O 	0.70046 0.62056 0.59745 -0.39900
O 	O 	0.78779 0.72758 0.74149 -0.41900
O 	O 	0.61673 0.51645 0.65045 -0.39400
O 	O 	0.76198 0.83674 0.62637 -0.23300
O 	O 	0.58220 0.52334 0.72192 -0.22900
O 	O 	0.73359 0.54550 0.66813 -0.41500
O 	O 	0.86878 0.79233 0.65076 -0.41500
O 	O 	0.81185 0.60396 0.62526 -0.43400
O 	O 	0.89033 0.72674 0.67822 -0.43100
C 	C 	0.79137 0.86323 0.66423 0.29400
O 	O 	0.80154 0.83510 0.69673 -0.40300
Zn	Zn	0.52299 0.53238 0.00017 1.19500
Zn	Zn	0.64368 0.56150 0.01449 1.21400
Zn	Zn	0.56117 0.65723 0.99212 1.22200
P 	P 	0.60977 0.60281 0.93312 0.31100
P 	P 	0.59087 0.61071 0.07560 0.31000
C 	C 	0.56736 0.76397 0.00872 0.28100
C 	C 	0.44097 0.56359 0.98852 0.32500
C 	C 	0.54449 0.44320 0.01103 0.29700
O 	O 	0.56444 0.53802 0.94061 -0.41800
O 	O 	0.52671 0.56878 0.06242 -0.41600
O 	O 	0.65349 0.62372 0.97583 -0.43200
O 	O 	0.61690 0.66228 0.03852 -0.41700
O 	O 	0.57645 0.63717 0.92993 -0.40000
O 	O 	0.62249 0.57417 0.07626 -0.42200
O 	O 	0.55591 0.72382 0.97760 -0.38500
O 	O 	0.70666 0.53303 0.94551 -0.23200
O 	O 	0.59640 0.76759 0.04698 -0.23000
O 	O 	0.47832 0.61032 0.01032 -0.43300
O 	O 	0.59384 0.47958 0.99216 -0.39700
O 	O 	0.45638 0.52853 0.97189 -0.42400
O 	O 	0.50995 0.46055 0.02474 -0.43100
C 	C 	0.72980 0.53944 0.98754 0.30000
O 	O 	0.71010 0.55477 0.02365 -0.41700
Zn	Zn	0.66510 0.83666 0.33542 1.19900
Zn	Zn	0.76243 0.81385 0.33152 1.21800
Zn	Zn	0.58374 0.71063 0.34610 1.21800
P 	P 	0.68076 0.77372 0.41117 0.31000
P 	P 	0.66443 0.75533 0.26805 0.31100
C 	C 	0.47610 0.61818 0.32269 0.28900
C 	C 	0.54990 0.79984 0.33852 0.31100
C 	C 	0.77408 0.92976 0.32864 0.30200
O 	O 	0.69667 0.83668 0.39867 -0.41800
O 	O 	0.63797 0.79501 0.27454 -0.42400
O 	O 	0.71295 0.75376 0.37541 -0.41200
O 	O 	0.64274 0.70955 0.30951 -0.43400
O 	O 	0.61304 0.73502 0.40912 -0.41600
O 	O 	0.73177 0.79533 0.26777 -0.40000
O 	O 	0.51518 0.63865 0.35576 -0.39800
O 	O 	0.81717 0.74285 0.35487 -0.22400
O 	O 	0.48844 0.63883 0.27948 -0.23000
O 	O 	0.54450 0.75260 0.32029 -0.40900
O 	O 	0.78861 0.89590 0.35033 -0.40700
O 	O 	0.59827 0.83775 0.35670 -0.43000
O 	O 	0.72347 0.90878 0.31039 -0.42600
C 	C 	0.85390 0.79114 0.33514 0.29400
O 	O 	0.83838 0.82769 0.32238 -0.39400
Zn	Zn	0.83883 0.18339 0.66950 1.20200
Zn	Zn	0.87317 0.30841 0.66436 1.22100
Zn	Zn	0.96424 0.22091 0.67983 1.22100
P 	P 	0.90731 0.26265 0.74362 0.31000
P 	P 	0.92099 0.25772 0.59994 0.31300
C 	C 	0.04942 0.19590 0.65603 0.28900
C 	C 	0.87111 0.10121 0.67939 0.30900
C 	C 	0.75512 0.21302 0.65844 0.31900
O 	O 	0.84323 0.21870 0.73186 -0.42100
O 	O 	0.87796 0.19246 0.60847 -0.41600
O 	O 	0.93150 0.31383 0.70659 -0.43000
O 	O 	0.96989 0.28081 0.63901 -0.42900
O 	O 	0.94200 0.22944 0.74272 -0.41300
O 	O 	0.88580 0.29034 0.60126 -0.40700
O 	O 	0.03168 0.21609 0.69001 -0.40500
O 	O 	0.80943 0.33623 0.59381 -0.22900
O 	O 	0.03088 0.19284 0.61264 -0.24000
O 	O 	0.91672 0.13993 0.65721 -0.41800
O 	O 	0.79125 0.25787 0.68298 -0.42100
O 	O 	0.83213 0.11313 0.69228 -0.42400
O 	O 	0.76960 0.17622 0.64428 -0.42500
C 	C 	0.83510 0.37834 0.62399 0.29200
O 	O 	0.86811 0.37612 0.65674 -0.39600
Zn	Zn	0.00650 0.49720 0.99814 1.20100
Zn	Zn	0.09502 0.46064 0.98919 1.22300
Zn	Zn	0.91842 0.37327 0.02009 1.21400
P 	P 	0.02437 0.43454 0.07380 0.30500
P 	P 	0.99041 0.40620 0.93412 0.31600
C 	C 	0.81930 0.26665 0.00490 0.27300
C 	C 	0.89379 0.46811 0.01280 0.30400
C 	C 	0.11886 0.58085 0.98085 0.32400
O 	O 	0.04290 0.49757 0.05876 -0.42500
O 	O 	0.97078 0.45175 0.94022 -0.41900
O 	O 	0.04505 0.40636 0.03502 -0.44600
O 	O 	0.96785 0.36261 0.97753 -0.41000
O 	O 	0.95696 0.40018 0.08064 -0.39400
O 	O 	0.05797 0.43950 0.92836 -0.40900
O 	O 	0.84627 0.30749 0.03594 -0.39300
O 	O 	0.19150 0.50106 0.05509 -0.23600
O 	O 	0.84598 0.26478 0.96677 -0.22200
O 	O 	0.88364 0.41897 0.99519 -0.40700
O 	O 	0.12906 0.54465 0.00392 -0.43300
O 	O 	0.94560 0.50640 0.02403 -0.43200
O 	O 	0.06682 0.56520 0.96841 -0.42800
C 	C 	0.20564 0.48937 0.01387 0.27700
O 	O 	0.16725 0.46512 0.98057 -0.38600
Zn	Zn	0.15102 0.34475 0.34179 1.19900
Zn	Zn	0.12759 0.44161 0.35342 1.22100
Zn	Zn	0.02553 0.26576 0.32510 1.21600
P 	P 	0.08889 0.36947 0.26958 0.31100
P 	P 	0.06993 0.33788 0.41044 0.30600
C 	C 	0.91595 0.17248 0.34314 0.29200
C 	C 	0.11310 0.23004 0.32624 0.31500
C 	C 	0.24229 0.45506 0.35339 0.31000
O 	O 	0.15073 0.38199 0.28157 -0.41800
O 	O 	0.10769 0.30981 0.40104 -0.42300
O 	O 	0.06756 0.39508 0.31016 -0.43500
O 	O 	0.02375 0.31948 0.36939 -0.42500
O 	O 	0.04916 0.30221 0.26372 -0.40100
O 	O 	0.11222 0.40498 0.41426 -0.41200
O 	O 	0.95559 0.19732 0.31099 -0.39100
O 	O 	0.14827 0.53520 0.28761 -0.23400
O 	O 	0.91842 0.20001 0.38217 -0.23400
O 	O 	0.06610 0.22349 0.34546 -0.42400
O 	O 	0.20803 0.46924 0.33234 -0.41600
O 	O 	0.15304 0.28078 0.31382 -0.43100
O 	O 	0.22257 0.40306 0.36890 -0.42600
C 	C 	0.15642 0.55307 0.33171 0.29000
O 	O 	0.14015 0.51622 0.36647 -0.40700
C 	C 	0.05792 0.43333 0.12855 -0.02700
C 	C 	0.04440 0.44986 0.17161 0.06700
C 	C 	0.05921 0.43497 0.21450 -0.03400
C 	C 	0.08705 0.40323 0.21507 -0.02400
C 	C 	0.10553 0.39177 0.17199 0.06500
C 	C 	0.09169 0.40773 0.12917 -0.03200
H 	H 	0.04692 0.44619 0.24743 0.07500
H 	H 	0.10525 0.39788 0.09624 0.06700
I 	I 	0.00262 0.49811 0.17370 -0.05400
I 	I 	0.15363 0.34985 0.16948 -0.04900
C 	C 	0.91498 0.29180 0.80258 -0.02300
C 	C 	0.90188 0.33493 0.81232 0.06000
C 	C 	0.92599 0.37030 0.85182 -0.03300
C 	C 	0.96159 0.36207 0.88247 -0.02600
C 	C 	0.97099 0.31613 0.87462 0.07500
C 	C 	0.94557 0.28007 0.83609 -0.03500
H 	H 	0.91607 0.40346 0.85908 0.07600
H 	H 	0.95277 0.24480 0.83064 0.08200
I 	I 	0.83885 0.34172 0.77406 -0.10200
I 	I 	0.02640 0.30145 0.91798 -0.07100
C 	C 	0.95503 0.27410 0.54251 -0.02800
C 	C 	0.97331 0.23932 0.52042 0.07400
C 	C 	0.01302 0.26171 0.48338 -0.04700
C 	C 	0.02894 0.31528 0.46425 -0.02000
C 	C 	0.00427 0.34633 0.48247 0.05400
C 	C 	0.97049 0.32709 0.52278 -0.01800
H 	H 	0.02787 0.23551 0.46703 0.07100
H 	H 	0.95555 0.35347 0.53859 0.07400
I 	I 	0.93030 0.15004 0.53053 -0.04900
I 	I 	0.01053 0.41888 0.44756 -0.07900
C 	C 	0.30357 0.49303 0.34938 -0.07000
C 	C 	0.33516 0.48333 0.31489 0.07500
C 	C 	0.39214 0.52366 0.30772 -0.02200
C 	C 	0.41798 0.57391 0.33435 -0.06000
C 	C 	0.38648 0.58317 0.36934 0.07100
C 	C 	0.32962 0.54264 0.37667 -0.01800
H 	H 	0.41608 0.51644 0.28070 0.06700
H 	H 	0.30518 0.55052 0.40275 0.05800
I 	I 	0.29732 0.40983 0.27117 -0.06900
I 	I 	0.42191 0.65940 0.40950 -0.08400
C 	C 	0.87518 0.11095 0.33945 -0.06800
C 	C 	0.85502 0.08460 0.29494 0.07900
C 	C 	0.82452 0.02529 0.29184 -0.04500
C 	C 	0.81007 0.99183 0.33289 -0.03200
C 	C 	0.82547 0.01842 0.37772 0.04200
C 	C 	0.85953 0.07744 0.38060 -0.01300
H 	H 	0.81031 0.00520 0.25750 0.06700
H 	H 	0.87348 0.09731 0.41503 0.06700
I 	I 	0.86242 0.13243 0.23293 -0.05400
I 	I 	0.79233 0.97228 0.44171 -0.02800
C 	C 	0.60101 0.64146 0.13449 -0.02100
C 	C 	0.57607 0.67403 0.14818 0.06200
C 	C 	0.59816 0.71130 0.18700 -0.03200
C 	C 	0.64273 0.71417 0.21396 -0.02700
C 	C 	0.66426 0.67804 0.20250 0.06400
C 	C 	0.64320 0.64210 0.16329 -0.03600
H 	H 	0.57880 0.73598 0.19744 0.08000
H 	H 	0.66125 0.61579 0.15440 0.07600
I 	I 	0.49853 0.65952 0.11876 -0.06300
I 	I 	0.72826 0.67518 0.24370 -0.05800
C 	C 	0.77265 0.52273 0.99521 -0.04000
C 	C 	0.82492 0.55086 0.97140 0.05700
C 	C 	0.86405 0.53246 0.97734 0.01000
C 	C 	0.85151 0.48596 0.00670 -0.09200
C 	C 	0.79919 0.45775 0.03049 0.07900
C 	C 	0.76020 0.47648 0.02484 -0.04400
H 	H 	0.90428 0.55424 0.95898 0.05900
H 	H 	0.71985 0.45457 0.04300 0.06600
I 	I 	0.84674 0.62242 0.92742 -0.05100
I 	I 	0.77829 0.38763 0.07593 -0.08200
C 	C 	0.26471 0.50581 0.00457 -0.07700
C 	C 	0.29782 0.55009 0.97265 0.08700
C 	C 	0.35548 0.56862 0.96766 -0.02500
C 	C 	0.38054 0.54369 0.99440 -0.05300
C 	C 	0.34754 0.49989 0.02673 0.05800
C 	C 	0.28986 0.48100 0.03135 -0.01400
H 	H 	0.38089 0.60270 0.94317 0.06300
H 	H 	0.26471 0.44771 0.05655 0.06300
I 	I 	0.26287 0.59192 0.93341 -0.07300
I 	I 	0.38400 0.46360 0.07117 -0.07500
C 	C 	0.72429 0.64012 0.80177 -0.02000
C 	C 	0.68437 0.58360 0.81372 0.06300
C 	C 	0.64786 0.57265 0.85245 -0.02900
C 	C 	0.65279 0.61747 0.88065 -0.02600
C 	C 	0.69693 0.67327 0.87143 0.06600
C 	C 	0.73368 0.68355 0.83357 -0.03400
H 	H 	0.61706 0.52929 0.86140 0.08100
H 	H 	0.76727 0.72654 0.82697 0.07900
I 	I 	0.68713 0.51452 0.78175 -0.06700
I 	I 	0.70856 0.74431 0.91231 -0.05500
C 	C 	0.85718 0.04160 0.67837 -0.05900
C 	C 	0.82797 0.00480 0.71635 0.05400
C 	C 	0.80598 0.94641 0.71106 0.00200
C 	C 	0.81529 0.92463 0.66914 -0.07100
C 	C 	0.84992 0.96206 0.63339 0.08800
C 	C 	0.86962 0.02012 0.63772 -0.03900
H 	H 	0.78212 0.91797 0.73977 0.06600
H 	H 	0.89447 0.04853 0.60939 0.08000
I 	I 	0.82192 0.03649 0.78372 -0.06000
I 	I 	0.87800 0.93321 0.57495 -0.04400
C 	C 	0.82036 0.42346 0.62556 -0.06000
C 	C 	0.86228 0.48054 0.63268 0.06900
C 	C 	0.84657 0.52173 0.63897 -0.01600
C 	C 	0.78965 0.50748 0.63524 -0.07000
C 	C 	0.74801 0.45082 0.62535 0.07300
C 	C 	0.76347 0.40906 0.62171 -0.02300
H 	H 	0.87892 0.56526 0.64585 0.06400
H 	H 	0.73115 0.36529 0.61563 0.06900
I 	I 	0.94992 0.50722 0.62905 -0.05800
I 	I 	0.66261 0.42730 0.61122 -0.07200
C 	C 	0.72389 0.71938 0.55036 -0.02400
C 	C 	0.66920 0.71141 0.54307 0.06700
C 	C 	0.65897 0.73706 0.50432 -0.03200
C 	C 	0.70155 0.76779 0.47093 -0.02200
C 	C 	0.75743 0.78097 0.48114 0.06500
C 	C 	0.76804 0.75574 0.52017 -0.03200
H 	H 	0.61676 0.73013 0.49871 0.07800
H 	H 	0.81090 0.76546 0.52748 0.07700
I 	I 	0.59990 0.65910 0.58833 -0.05600
I 	I 	0.82750 0.84555 0.44412 -0.09000
C 	C 	0.43810 0.86455 0.31451 -0.06000
C 	C 	0.43400 0.83457 0.35672 0.06900
C 	C 	0.47016 0.81261 0.36373 -0.01700
C 	C 	0.50747 0.81639 0.32796 -0.06900
C 	C 	0.50958 0.84385 0.28501 0.07400
C 	C 	0.47583 0.86859 0.27893 -0.02300
H 	H 	0.46951 0.79293 0.39728 0.06400
H 	H 	0.47843 0.89046 0.24608 0.07200
I 	I 	0.37107 0.81698 0.40897 -0.07500
I 	I 	0.56318 0.84892 0.22841 -0.06500
C 	C 	0.91396 0.80784 0.33308 -0.06600
C 	C 	0.94362 0.82468 0.28980 0.08200
C 	C 	0.00239 0.84859 0.28939 -0.03400
C 	C 	0.03202 0.85568 0.33172 -0.06400
C 	C 	0.00233 0.83780 0.37495 0.06100
C 	C 	0.94348 0.81375 0.37536 -0.00700
H 	H 	0.02502 0.86108 0.25598 0.06100
H 	H 	0.92083 0.80088 0.40874 0.06700
I 	I 	0.90054 0.81204 0.22423 -0.05600
I 	I 	0.04506 0.84605 0.44007 -0.05700
C 	C 	0.12784 0.18542 0.33258 -0.07300
C 	C 	0.09717 0.13271 0.30942 0.07100
C 	C 	0.11443 0.09232 0.31378 -0.02200
C 	C 	0.16148 0.10372 0.34173 -0.06300
C 	C 	0.19153 0.15606 0.36550 0.06600
C 	C 	0.17470 0.19659 0.36070 -0.01400
H 	H 	0.09085 0.05179 0.29590 0.05900
H 	H 	0.19821 0.23703 0.37875 0.06000
I 	I 	0.02517 0.11314 0.26722 -0.08700
I 	I 	0.26367 0.17588 0.40772 -0.06200
C 	C 	0.22272 0.73024 0.35290 -0.07100
C 	C 	0.18473 0.69110 0.38633 0.07300
C 	C 	0.16330 0.63304 0.37929 -0.02400
C 	C 	0.18384 0.61409 0.34216 -0.06300
C 	C 	0.23026 0.65397 0.31516 0.06700
C 	C 	0.24811 0.71170 0.31943 -0.01700
H 	H 	0.13106 0.60270 0.40294 0.07000
H 	H 	0.28151 0.74200 0.29661 0.07500
I 	I 	0.16685 0.71827 0.45154 -0.05300
I 	I 	0.27947 0.62950 0.27347 -0.04800
C 	C 	0.27920 0.93456 0.19512 -0.03800
C 	C 	0.30315 0.90243 0.17794 0.07000
C 	C 	0.34366 0.92469 0.14140 -0.04000
C 	C 	0.35518 0.97507 0.11825 -0.00200
C 	C 	0.32355 0.00147 0.13052 0.02700
C 	C 	0.28734 0.98207 0.16948 0.01000
H 	H 	0.36297 0.90069 0.12887 0.08000
H 	H 	0.26656 0.00517 0.18062 0.05300
I 	I 	0.26589 0.81467 0.19384 -0.03600
I 	I 	0.32500 0.06792 0.08924 -0.07500
C 	C 	0.16152 0.64218 0.98251 -0.06000
C 	C 	0.16217 0.68056 0.94837 0.07500
C 	C 	0.19675 0.73917 0.95541 -0.03200
C 	C 	0.23359 0.75989 0.99435 -0.02900
C 	C 	0.23782 0.72130 0.02508 0.05000
C 	C 	0.20057 0.66306 0.02005 -0.02700
H 	H 	0.19559 0.76858 0.93013 0.07100
H 	H 	0.20239 0.63394 0.04524 0.07800
I 	I 	0.11813 0.65190 0.88293 -0.06500
I 	I 	0.30441 0.74863 0.07528 -0.05400
C 	C 	0.63825 0.16304 0.01289 -0.08500
C 	C 	0.66534 0.18507 0.96896 0.08300
C 	C 	0.72423 0.21945 0.96717 -0.01100
C 	C 	0.75716 0.22989 0.00816 -0.07100
C 	C 	0.73030 0.20587 0.05173 0.06800
C 	C 	0.67112 0.17380 0.05397 -0.01800
H 	H 	0.74455 0.23743 0.93355 0.06800
H 	H 	0.65071 0.15579 0.08755 0.06300
I 	I 	0.62000 0.16290 0.90380 -0.05400
I 	I 	0.77740 0.21150 0.11360 -0.05700
C 	C 	0.52365 0.38194 0.00886 -0.08400
C 	C 	0.51079 0.35326 0.96494 0.08400
C 	C 	0.48212 0.29386 0.96389 -0.01000
C 	C 	0.46566 0.26257 0.00618 -0.07500
C 	C 	0.47770 0.29123 0.04999 0.07000
C 	C 	0.50724 0.35056 0.05107 -0.01800
H 	H 	0.47329 0.27200 0.93012 0.06400
H 	H 	0.51569 0.37239 0.08483 0.06100
I 	I 	0.53188 0.39799 0.89949 -0.05600
I 	I 	0.44768 0.24625 0.11492 -0.06100
C 	C 	0.54090 0.79969 0.00385 -0.07700
C 	C 	0.53396 0.81825 0.95888 0.08500
C 	C 	0.50216 0.84544 0.95454 -0.02600
C 	C 	0.48136 0.85914 0.99485 -0.05400
C 	C 	0.49050 0.84288 0.04008 0.05700
C 	C 	0.51861 0.81187 0.04412 -0.01600
H 	H 	0.49702 0.85959 0.91992 0.06600
H 	H 	0.52383 0.79794 0.07880 0.07000
I 	I 	0.57802 0.81427 0.89805 -0.04900
I 	I 	0.46791 0.86928 0.10334 -0.05800
C 	C 	0.37826 0.07907 0.78720 -0.02900
C 	C 	0.38035 0.10796 0.82944 0.06600
C 	C 	0.40795 0.10264 0.86925 -0.03800
C 	C 	0.42612 0.06268 0.87005 -0.02500
C 	C 	0.42780 0.03703 0.82722 0.05800
C 	C 	0.40309 0.04456 0.78629 -0.03500
H 	H 	0.41064 0.12599 0.90101 0.07200
H 	H 	0.40258 0.02288 0.75397 0.07800
I 	I 	0.33492 0.15217 0.83788 -0.04300
I 	I 	0.47202 0.99149 0.82190 -0.02900
C 	C 	0.69527 0.19676 0.65778 -0.07300
C 	C 	0.66345 0.17674 0.61576 0.07200
C 	C 	0.60469 0.15215 0.61741 -0.02100
C 	C 	0.57747 0.14884 0.66039 -0.06500
C 	C 	0.60966 0.17263 0.70174 0.06700
C 	C 	0.66828 0.19582 0.70037 -0.01700
H 	H 	0.58017 0.13615 0.58514 0.06400
H 	H 	0.69278 0.21230 0.73260 0.07100
I 	I 	0.70331 0.18679 0.54887 -0.05200
I 	I 	0.57138 0.17766 0.76589 -0.06500
C 	C 	0.16839 0.13929 0.67591 -0.07500
C 	C 	0.18169 0.18659 0.64679 0.07600
C 	C 	0.14326 0.20596 0.64226 -0.02400
C 	C 	0.09133 0.17855 0.66595 -0.06100
C 	C 	0.07781 0.13112 0.69491 0.06000
C 	C 	0.11633 0.11166 0.69955 -0.01500
H 	H 	0.15338 0.24189 0.61946 0.06600
H 	H 	0.10584 0.07515 0.72172 0.05300
I 	I 	0.25786 0.22818 0.60701 -0.08300
I 	I 	0.99923 0.08702 0.73106 -0.06600
C 	C 	0.08530 0.89031 0.64908 -0.05000
C 	C 	0.05852 0.83529 0.62936 0.05100
C 	C 	0.99985 0.80039 0.63348 0.00300
C 	C 	0.96743 0.81909 0.65805 -0.07700
C 	C 	0.99417 0.87421 0.67759 0.08600
C 	C 	0.05270 0.90956 0.67262 -0.03800
H 	H 	0.97952 0.75813 0.61831 0.06000
H 	H 	0.07296 0.95205 0.68735 0.06800
I 	I 	0.10553 0.80174 0.59621 -0.05100
I 	I 	0.94840 0.90444 0.71726 -0.06700
C 	C 	0.53587 0.43303 0.68137 -0.06000
C 	C 	0.50671 0.40899 0.63876 0.07000
C 	C 	0.47557 0.35002 0.63367 -0.01700
C 	C 	0.47084 0.31433 0.67142 -0.07100
C 	C 	0.49718 0.33843 0.71518 0.07400
C 	C 	0.52995 0.39751 0.71965 -0.02400
H 	H 	0.45384 0.33183 0.60057 0.06700
H 	H 	0.55151 0.41579 0.75278 0.07100
I 	I 	0.50488 0.46051 0.58285 -0.05300
I 	I 	0.48582 0.28770 0.77616 -0.05400
C 	C 	0.30146 0.06500 0.53097 -0.02000
C 	C 	0.24483 0.03122 0.51606 0.05100
C 	C 	0.23247 0.99487 0.47692 -0.01600
C 	C 	0.27639 0.99667 0.44965 -0.01500
C 	C 	0.33294 0.03739 0.46044 0.05400
C 	C 	0.34498 0.07031 0.50126 -0.03400
H 	H 	0.18890 0.96767 0.46627 0.08300
H 	H 	0.38867 0.09922 0.51043 0.07500
I 	I 	0.18061 0.04676 0.54134 -0.05100
I 	I 	0.40184 0.05322 0.41511 -0.08100
