data_crystal

_cell_length_a 26.72834
_cell_length_b 26.60815
_cell_length_c 34.81103
_cell_angle_alpha 95.53508
_cell_angle_beta  95.53538
_cell_angle_gamma 125.63992

_symmetry_space_group_name_	'P 1'
_symmetry_space_group_name_H-M	'P 1'

loop_
_symmetry_equiv_pos_as_xyz
  x,y,z

loop_
_atom_site_label
_atom_site_type_symbol
_atom_site_fract_x
_atom_site_fract_y
_atom_site_fract_z
_atom_site_charge
N 	N 	0.00022 0.93999 0.97838 -0.13800
C 	C 	0.04138 0.00345 0.98308 0.13200
N 	N 	0.02036 0.03925 0.98564 -0.13900
N 	N 	0.02050 0.06532 0.47113 -0.14100
C 	C 	0.05826 0.04810 0.48054 0.13100
N 	N 	0.03270 0.98831 0.48578 -0.13800
C 	C 	0.16687 0.08524 0.50135 -0.03000
C 	C 	0.12636 0.09312 0.48230 -0.07500
H 	H 	0.14973 0.04551 0.51622 0.04400
H 	H 	0.14358 0.13281 0.46739 0.05500
C 	C 	0.10890 0.03311 0.98852 -0.08200
H 	H 	0.12771 0.01514 0.00721 0.06000
C 	C 	0.95818 0.01145 0.98385 0.11600
N 	N 	0.91703 0.94761 0.97886 -0.14100
C 	C 	0.93817 0.91193 0.97619 0.12600
C 	C 	0.95732 0.02319 0.46737 0.12100
C 	C 	0.96965 0.94576 0.48143 0.12800
N 	N 	0.93195 0.96344 0.47272 -0.14200
Cu	Cu	0.61528 0.22203 0.99795 0.92400
Cu	Cu	0.68521 0.22915 0.92434 0.86600
Cu	Cu	0.66382 0.32424 0.94814 0.89400
Cu	Cu	0.62374 0.34448 0.02146 0.89500
C 	C 	0.61992 0.26583 0.07774 0.27900
O 	O 	0.52505 0.19316 0.98917 -0.36900
C 	C 	0.67286 0.29267 0.86683 0.27400
O 	O 	0.67282 0.32084 0.00324 -0.63400
O 	O 	0.62016 0.23157 0.94257 -0.64200
O 	O 	0.64616 0.16948 0.00049 -0.36800
O 	O 	0.72917 0.23630 0.97305 -0.44600
O 	O 	0.59616 0.29356 0.06379 -0.38300
O 	O 	0.71111 0.41510 0.95614 -0.39200
C 	C 	0.70007 0.44923 0.97862 0.30500
C 	C 	0.50855 0.22475 0.97185 0.30100
O 	O 	0.55124 0.28392 0.97009 -0.40800
O 	O 	0.67545 0.43141 0.01031 -0.39300
O 	O 	0.62532 0.22823 0.05392 -0.35700
C 	C 	0.70170 0.19047 0.99287 0.29500
O 	O 	0.66277 0.32547 0.89163 -0.37800
O 	O 	0.66291 0.23997 0.87369 -0.41800
H 	H 	0.71668 0.34575 0.01757 0.16500
H 	H 	0.57958 0.20595 0.92389 0.17300
Cu	Cu	0.74661 0.36226 0.44687 0.92800
Cu	Cu	0.77497 0.32577 0.52916 0.86700
Cu	Cu	0.66397 0.32470 0.50894 0.89600
Cu	Cu	0.61636 0.33915 0.43296 0.89300
C 	C 	0.67727 0.32818 0.36879 0.27900
O 	O 	0.76700 0.44852 0.44601 -0.36800
C 	C 	0.72519 0.34939 0.59126 0.27500
O 	O 	0.65236 0.30152 0.45313 -0.64000
O 	O 	0.75436 0.37534 0.50460 -0.64200
O 	O 	0.80240 0.33592 0.44328 -0.38200
O 	O 	0.75563 0.26682 0.48424 -0.44800
O 	O 	0.64940 0.35173 0.38291 -0.38300
O 	O 	0.57543 0.27001 0.51011 -0.39300
C 	C 	0.53129 0.26960 0.48910 0.31400
C 	C 	0.73888 0.46748 0.46516 0.30200
O 	O 	0.68477 0.42594 0.47466 -0.40200
O 	O 	0.53915 0.29261 0.45624 -0.40000
O 	O 	0.72453 0.33491 0.39095 -0.36100
C 	C 	0.78913 0.28571 0.45652 0.31100
O 	O 	0.67792 0.33981 0.56688 -0.38000
O 	O 	0.77637 0.36335 0.57912 -0.41900
H 	H 	0.62866 0.25579 0.44313 0.16500
H 	H 	0.77915 0.41973 0.51832 0.17300
C 	C 	0.79268 0.32289 0.71976 -0.04500
C 	C 	0.78520 0.31477 0.75842 -0.04400
C 	C 	0.74072 0.31815 0.77436 0.01300
C 	C 	0.70436 0.33110 0.75152 -0.00800
C 	C 	0.71174 0.33907 0.71250 -0.01000
C 	C 	0.75570 0.33440 0.69650 0.01400
C 	C 	0.67428 0.35039 0.68927 0.01600
C 	C 	0.63066 0.35504 0.70551 -0.04300
C 	C 	0.62345 0.34731 0.74433 -0.04200
C 	C 	0.65970 0.33474 0.76740 0.01400
C 	C 	0.65093 0.32437 0.80584 -0.02400
C 	C 	0.68590 0.30961 0.82812 -0.06200
C 	C 	0.73130 0.30748 0.81254 -0.02800
C 	C 	0.76120 0.33987 0.65722 -0.03000
C 	C 	0.72282 0.34950 0.63358 -0.06100
C 	C 	0.68007 0.35574 0.64989 -0.02700
H 	H 	0.82685 0.31960 0.70778 0.03400
H 	H 	0.81366 0.30527 0.77585 0.03300
H 	H 	0.60191 0.36411 0.68800 0.03900
H 	H 	0.58924 0.35052 0.75630 0.03900
H 	H 	0.61589 0.32600 0.81795 0.04400
H 	H 	0.75867 0.29674 0.83001 0.02600
H 	H 	0.79410 0.33493 0.64472 0.03400
H 	H 	0.65107 0.36412 0.63193 0.04800
C 	C 	0.53965 0.24892 0.23917 -0.04300
C 	C 	0.53156 0.24031 0.19815 -0.04200
C 	C 	0.58109 0.25360 0.17935 0.01600
C 	C 	0.63865 0.27399 0.20191 -0.00800
C 	C 	0.64693 0.28301 0.24324 -0.00800
C 	C 	0.59746 0.27114 0.26192 0.01600
C 	C 	0.70519 0.30557 0.26589 0.01600
C 	C 	0.75415 0.31710 0.24701 -0.04200
C 	C 	0.74584 0.30784 0.20593 -0.04300
C 	C 	0.68853 0.28713 0.18321 0.01700
C 	C 	0.68106 0.28125 0.14212 -0.02900
C 	C 	0.62470 0.26365 0.11987 -0.05700
C 	C 	0.57437 0.24848 0.13841 -0.02500
C 	C 	0.60692 0.28330 0.30309 -0.02800
C 	C 	0.66574 0.30839 0.32577 -0.05700
C 	C 	0.71435 0.31803 0.30710 -0.02600
H 	H 	0.50120 0.23916 0.25325 0.03800
H 	H 	0.48696 0.22403 0.18105 0.04000
H 	H 	0.79894 0.33393 0.26413 0.04000
H 	H 	0.78430 0.31763 0.19185 0.03900
H 	H 	0.71964 0.29246 0.12764 0.03900
H 	H 	0.53054 0.23388 0.12101 0.04700
H 	H 	0.56901 0.27449 0.31750 0.03500
H 	H 	0.75965 0.33696 0.32453 0.05100
C 	C 	0.86836 0.76633 0.46316 0.02200
C 	C 	0.80516 0.71816 0.46279 -0.04700
C 	C 	0.78448 0.65583 0.46018 -0.03500
C 	C 	0.82703 0.64116 0.45807 0.00400
C 	C 	0.89003 0.68924 0.45793 -0.03700
C 	C 	0.91062 0.75146 0.46034 -0.04700
C 	C 	0.80483 0.57491 0.45208 0.00800
C 	C 	0.76573 0.53482 0.47376 -0.15100
C 	C 	0.88902 0.83148 0.46334 -0.03000
C 	C 	0.94274 0.88078 0.48638 -0.07500
H 	H 	0.77193 0.72890 0.46412 0.04100
H 	H 	0.73524 0.61886 0.45889 0.03800
H 	H 	0.92292 0.67828 0.45546 0.03700
H 	H 	0.95909 0.78785 0.45916 0.04100
H 	H 	0.82164 0.55919 0.43017 0.04000
H 	H 	0.75029 0.55104 0.49638 0.07300
H 	H 	0.86039 0.83911 0.44414 0.04400
H 	H 	0.97028 0.87279 0.50634 0.05300
C 	C 	0.90055 0.12135 0.44385 0.02100
C 	C 	0.93326 0.18639 0.45626 -0.04900
C 	C 	0.90078 0.21264 0.45789 -0.03600
C 	C 	0.83519 0.17415 0.44633 0.00000
C 	C 	0.80269 0.10938 0.43265 -0.03600
C 	C 	0.83523 0.08314 0.43101 -0.04800
C 	C 	0.79973 0.19982 0.45320 0.00800
C 	C 	0.81780 0.25512 0.44353 -0.16000
C 	C 	0.93535 0.09394 0.44399 -0.03200
C 	C 	0.91670 0.04340 0.46054 -0.07400
H 	H 	0.98373 0.21639 0.46569 0.03900
H 	H 	0.92637 0.26249 0.46926 0.03300
H 	H 	0.75212 0.07924 0.42375 0.03600
H 	H 	0.80968 0.03316 0.42008 0.04000
H 	H 	0.75849 0.17320 0.46648 0.02900
H 	H 	0.85545 0.27894 0.42705 0.07800
H 	H 	0.97988 0.11903 0.43400 0.04200
H 	H 	0.87191 0.01786 0.47019 0.05100
C 	C 	0.23398 0.12573 0.49879 0.02200
C 	C 	0.26388 0.09813 0.48977 -0.04700
C 	C 	0.32671 0.13573 0.48587 -0.03500
C 	C 	0.36061 0.20154 0.49175 0.00300
C 	C 	0.33110 0.22925 0.50167 -0.03600
C 	C 	0.26827 0.19162 0.50565 -0.04700
C 	C 	0.42522 0.24114 0.48419 0.01000
C 	C 	0.46852 0.23416 0.49943 -0.15100
H 	H 	0.23800 0.04740 0.48486 0.04100
H 	H 	0.34862 0.11368 0.47746 0.03800
H 	H 	0.35681 0.27994 0.50619 0.03700
H 	H 	0.24621 0.21360 0.51387 0.04200
H 	H 	0.43780 0.27733 0.46678 0.03400
H 	H 	0.45743 0.20189 0.51966 0.07700
C 	C 	0.74691 0.61646 0.98956 0.00700
C 	C 	0.81266 0.65717 0.99938 -0.04100
C 	C 	0.84486 0.72137 0.99920 -0.05300
C 	C 	0.81172 0.74562 0.98907 0.02500
C 	C 	0.74600 0.70540 0.98063 -0.04800
C 	C 	0.71369 0.64102 0.98088 -0.03800
C 	C 	0.84585 0.81351 0.98843 -0.03900
C 	C 	0.89415 0.84281 0.96943 -0.07200
C 	C 	0.71254 0.54877 0.99091 -0.00100
C 	C 	0.72948 0.51474 0.97367 -0.14500
H 	H 	0.83873 0.63919 0.00766 0.04400
H 	H 	0.89555 0.75239 0.00722 0.04800
H 	H 	0.71998 0.72385 0.97354 0.04100
H 	H 	0.66292 0.61023 0.97412 0.03600
H 	H 	0.83256 0.83986 0.00445 0.04900
H 	H 	0.90575 0.81561 0.95247 0.05200
H 	H 	0.67254 0.52642 0.00561 0.03900
H 	H 	0.76570 0.53567 0.95593 0.07600
C 	C 	0.80730 0.13729 0.99382 -0.00400
C 	C 	0.83562 0.13343 0.96291 -0.03800
C 	C 	0.85907 0.09822 0.96288 -0.05000
C 	C 	0.85560 0.06746 0.99425 0.02000
C 	C 	0.82692 0.07096 0.02509 -0.04500
C 	C 	0.80344 0.10624 0.02511 -0.03000
C 	C 	0.87866 0.02853 0.99387 -0.04800
C 	C 	0.93549 0.05060 0.98551 -0.06800
C 	C 	0.78571 0.17748 0.99432 -0.00400
C 	C 	0.72805 0.15585 0.00078 -0.14400
H 	H 	0.83913 0.15745 0.93874 0.02900
H 	H 	0.87947 0.09446 0.93835 0.03900
H 	H 	0.82343 0.04692 0.04924 0.04000
H 	H 	0.78301 0.11003 0.04962 0.03800
H 	H 	0.85003 0.98260 0.00211 0.05600
H 	H 	0.96616 0.09861 0.98059 0.04900
H 	H 	0.81487 0.22275 0.98534 0.02900
H 	H 	0.69877 0.11059 0.00972 0.07500
C 	C 	0.33268 0.13236 0.96965 0.00100
C 	C 	0.28227 0.06820 0.96240 -0.03300
C 	C 	0.22096 0.04931 0.96038 -0.05700
C 	C 	0.20957 0.09454 0.96650 0.02400
C 	C 	0.25972 0.15870 0.97251 -0.04900
C 	C 	0.32111 0.17763 0.97449 -0.03400
C 	C 	0.14509 0.07475 0.96659 -0.02900
C 	C 	0.39766 0.15179 0.97645 0.00800
C 	C 	0.44174 0.19712 0.95949 -0.15100
H 	H 	0.29064 0.03294 0.95871 0.03500
H 	H 	0.18238 0.99956 0.95451 0.05000
H 	H 	0.25136 0.19392 0.97674 0.04100
H 	H 	0.35972 0.22738 0.98082 0.03600
H 	H 	0.12710 0.09403 0.94851 0.04200
H 	H 	0.40952 0.12902 0.99579 0.03900
H 	H 	0.42916 0.21824 0.93914 0.07300
