data_crystal

_cell_length_a 22.42659
_cell_length_b 20.33506
_cell_length_c 49.24222
_cell_angle_alpha 89.86214
_cell_angle_beta  89.86575
_cell_angle_gamma 119.56999

_symmetry_space_group_name_	'P 1'
_symmetry_space_group_name_H-M	'P 1'

loop_
_symmetry_equiv_pos_as_xyz
  x,y,z

loop_
_atom_site_label
_atom_site_type_symbol
_atom_site_fract_x
_atom_site_fract_y
_atom_site_fract_z
_atom_site_charge
C 	C 	0.64715 0.31100 0.85595 0.28600
C 	C 	0.76835 0.57127 0.92819 0.30700
C 	C 	0.82963 0.42840 0.88051 0.30700
C 	C 	0.58764 0.46733 0.90771 0.29900
C 	C 	0.75526 0.37298 0.96667 0.31700
C 	C 	0.57688 0.24474 0.94008 0.29200
Ni	Ni	0.71347 0.46360 0.88195 1.11400
Ni	Ni	0.66019 0.41569 0.94390 1.12100
Ni	Ni	0.70908 0.31664 0.91068 1.12100
O 	O 	0.65141 0.37850 0.85526 -0.36700
O 	O 	0.69217 0.29945 0.86973 -0.37400
O 	O 	0.74644 0.43037 0.96090 -0.39300
O 	O 	0.78563 0.54509 0.90714 -0.37700
O 	O 	0.70792 0.53076 0.93976 -0.37900
O 	O 	0.61208 0.23827 0.91946 -0.38800
O 	O 	0.79165 0.44779 0.86595 -0.36900
O 	O 	0.80813 0.39615 0.90432 -0.38200
O 	O 	0.60459 0.30532 0.95621 -0.37800
O 	O 	0.64049 0.49824 0.89030 -0.36900
O 	O 	0.57962 0.41402 0.92521 -0.38500
O 	O 	0.73240 0.31430 0.95034 -0.38300
O 	O 	0.67955 0.38966 0.90946 -0.71600
H 	H 	0.63248 0.35764 0.90284 0.15900
C 	C 	0.83359 0.46079 0.54748 0.29100
C 	C 	0.61871 0.15356 0.57515 0.31200
C 	C 	0.64432 0.36572 0.53432 0.31100
C 	C 	0.81161 0.24866 0.58865 0.28700
C 	C 	0.59621 0.31336 0.61890 0.30800
C 	C 	0.79456 0.42930 0.63583 0.28700
Ni	Ni	0.73025 0.29454 0.55011 1.11400
Ni	Ni	0.70402 0.27141 0.61521 1.12200
Ni	Ni	0.71571 0.41867 0.58652 1.12000
O 	O 	0.82303 0.39162 0.54234 -0.37200
O 	O 	0.78224 0.47217 0.55500 -0.38000
O 	O 	0.60909 0.25693 0.61879 -0.38700
O 	O 	0.63262 0.20389 0.55591 -0.37600
O 	O 	0.66003 0.16969 0.59604 -0.37900
O 	O 	0.79038 0.46673 0.61438 -0.38200
O 	O 	0.68864 0.34575 0.52577 -0.36900
O 	O 	0.63593 0.37211 0.56037 -0.39000
O 	O 	0.74493 0.35948 0.64177 -0.37500
O 	O 	0.77429 0.23251 0.56614 -0.36700
O 	O 	0.79317 0.26928 0.61141 -0.37700
O 	O 	0.64628 0.38364 0.61690 -0.38400
O 	O 	0.73209 0.33598 0.58425 -0.71800
H 	H 	0.78186 0.36307 0.58751 0.15300
C 	C 	0.20087 0.12498 0.80064 0.29500
C 	C 	0.99407 0.88192 0.73372 0.30300
C 	C 	0.20488 0.10356 0.73291 0.30600
C 	C 	0.97914 0.92418 0.80993 0.28000
C 	C 	0.01761 0.09506 0.71216 0.31100
C 	C 	0.99084 0.13850 0.78710 0.28400
Ni	Ni	0.10237 0.98523 0.77199 1.10800
Ni	Ni	0.96459 0.99470 0.75957 1.11500
Ni	Ni	0.11062 0.14704 0.75883 1.12100
O 	O 	0.15336 0.05376 0.80454 -0.37500
O 	O 	0.18966 0.17239 0.78548 -0.37700
O 	O 	0.97996 0.02414 0.72000 -0.38300
O 	O 	0.06022 0.92628 0.73640 -0.37500
O 	O 	0.95102 0.89133 0.74912 -0.38000
O 	O 	0.05895 0.17308 0.78634 -0.37300
O 	O 	0.19420 0.05067 0.75082 -0.37100
O 	O 	0.15897 0.12445 0.72861 -0.38800
O 	O 	0.95284 0.08468 0.76942 -0.37400
O 	O 	0.01948 0.90639 0.79557 -0.36400
O 	O 	0.94333 0.95230 0.79796 -0.37700
O 	O 	0.04779 0.14911 0.73018 -0.38300
O 	O 	0.05943 0.04415 0.76936 -0.70900
H 	H 	0.05553 0.05342 0.78872 0.15800
C 	C 	0.47456 0.74393 0.38037 0.28500
C 	C 	0.19739 0.48462 0.38494 0.30900
C 	C 	0.30211 0.69706 0.34385 0.30400
C 	C 	0.36317 0.52307 0.42404 0.29100
C 	C 	0.20797 0.68079 0.42385 0.31500
C 	C 	0.37198 0.73034 0.45850 0.29200
Ni	Ni	0.34402 0.59741 0.37312 1.11300
Ni	Ni	0.26954 0.58604 0.43085 1.12200
Ni	Ni	0.34818 0.74558 0.40036 1.12100
O 	O 	0.44883 0.67068 0.37555 -0.36900
O 	O 	0.43585 0.77661 0.37818 -0.37400
O 	O 	0.20026 0.61400 0.41841 -0.39800
O 	O 	0.23951 0.53079 0.36646 -0.37900
O 	O 	0.21801 0.48768 0.41002 -0.37900
O 	O 	0.39834 0.77096 0.43593 -0.38500
O 	O 	0.34506 0.67079 0.34333 -0.36900
O 	O 	0.28974 0.72217 0.36651 -0.37900
O 	O 	0.30923 0.67005 0.45897 -0.38600
O 	O 	0.34631 0.51413 0.39782 -0.36700
O 	O 	0.33363 0.54742 0.44176 -0.37600
O 	O 	0.26836 0.74191 0.42094 -0.38200
O 	O 	0.33437 0.64564 0.40393 -0.71600
H 	H 	0.37673 0.65700 0.41362 0.15200
C 	C 	0.35338 0.61518 0.03927 0.29600
C 	C 	0.23203 0.61734 0.14806 0.30800
C 	C 	0.19633 0.47181 0.07402 0.30600
C 	C 	0.39588 0.76594 0.12008 0.28700
C 	C 	0.11249 0.61772 0.08026 0.31600
C 	C 	0.27895 0.78777 0.04930 0.29100
Ni	Ni	0.31219 0.60537 0.10076 1.11400
Ni	Ni	0.24830 0.71808 0.10353 1.12000
Ni	Ni	0.22652 0.62009 0.05050 1.12200
O 	O 	0.35257 0.58809 0.06423 -0.36500
O 	O 	0.31737 0.64890 0.03311 -0.38600
O 	O 	0.15582 0.68778 0.08718 -0.38600
O 	O 	0.28633 0.61225 0.14131 -0.36500
O 	O 	0.19842 0.63061 0.12933 -0.39200
O 	O 	0.23209 0.72020 0.04000 -0.37800
O 	O 	0.22293 0.50171 0.09756 -0.37500
O 	O 	0.21410 0.51386 0.05199 -0.38000
O 	O 	0.28996 0.80109 0.07573 -0.38400
O 	O 	0.39823 0.70878 0.10812 -0.37200
O 	O 	0.33637 0.76239 0.12657 -0.37400
O 	O 	0.13389 0.57638 0.06775 -0.39400
O 	O 	0.27770 0.66088 0.08267 -0.71800
H 	H 	0.32046 0.70236 0.07504 0.16100
C 	C 	0.87013 0.95810 0.28372 0.28200
C 	C 	0.99039 0.04341 0.17512 0.29800
C 	C 	0.79926 0.87101 0.21428 0.30900
C 	C 	0.05419 0.14300 0.24595 0.29400
C 	C 	0.00965 0.85227 0.20919 0.30100
C 	C 	0.04578 0.90297 0.26741 0.28500
Ni	Ni	0.91536 0.02425 0.22767 1.11300
Ni	Ni	0.05385 0.00899 0.22274 1.12200
Ni	Ni	0.91103 0.86847 0.24557 1.11700
O 	O 	0.89431 0.02101 0.26889 -0.36700
O 	O 	0.85298 0.89128 0.27243 -0.37200
O 	O 	0.03423 0.92066 0.19906 -0.39100
O 	O 	0.92934 0.01443 0.18650 -0.37000
O 	O 	0.04594 0.06617 0.19006 -0.37000
O 	O 	0.98071 0.88000 0.27383 -0.38800
O 	O 	0.81536 0.93546 0.22576 -0.37800
O 	O 	0.84086 0.84311 0.21552 -0.37600
O 	O 	0.08419 0.96772 0.25417 -0.38400
O 	O 	0.00413 0.12922 0.22897 -0.37100
O 	O 	0.08912 0.10656 0.24392 -0.37000
O 	O 	0.94904 0.81811 0.22109 -0.38200
O 	O 	0.96371 0.97309 0.23681 -0.71400
H 	H 	0.97893 0.99234 0.25531 0.14600
C 	C 	0.12877 0.25566 0.08306 0.00200
C 	C 	0.12778 0.19753 0.09869 -0.05300
C 	C 	0.06524 0.14400 0.11035 0.01600
C 	C 	0.00665 0.15180 0.10753 0.00400
C 	C 	0.01079 0.21663 0.09562 -0.04800
C 	C 	0.07218 0.26764 0.08254 0.01600
S 	S 	0.19869 0.33783 0.07668 0.02400
C 	C 	0.16056 0.38950 0.07120 -0.07300
C 	C 	0.09014 0.34332 0.07601 -0.01700
S 	S 	0.95240 0.10232 0.13231 0.02300
C 	C 	0.99807 0.06643 0.14643 -0.07300
C 	C 	0.06050 0.09603 0.13224 -0.01200
H 	H 	0.17470 0.19650 0.10293 0.04700
H 	H 	0.96926 0.22904 0.09779 0.04300
H 	H 	0.05512 0.36526 0.07825 0.04100
H 	H 	0.10417 0.09242 0.13975 0.04500
C 	C 	0.65332 0.82194 0.16263 -0.00100
C 	C 	0.62912 0.84437 0.14031 -0.05400
C 	C 	0.57225 0.85475 0.14420 0.01700
C 	C 	0.54597 0.85101 0.17049 -0.00200
C 	C 	0.57211 0.83112 0.19296 -0.05300
C 	C 	0.62737 0.81826 0.18879 0.01700
S 	S 	0.73187 0.83407 0.16548 0.03200
C 	C 	0.73471 0.83062 0.19942 -0.07600
C 	C 	0.67298 0.82311 0.20958 -0.01800
S 	S 	0.46415 0.82732 0.16730 0.02900
C 	C 	0.45854 0.82304 0.13341 -0.07000
C 	C 	0.52365 0.84074 0.12342 -0.02200
H 	H 	0.65085 0.84880 0.12027 0.04700
H 	H 	0.55019 0.82591 0.21301 0.04800
H 	H 	0.66603 0.83296 0.23067 0.04600
H 	H 	0.53175 0.82949 0.10263 0.04500
C 	C 	0.07213 0.70491 0.21270 -0.00300
C 	C 	0.07737 0.64091 0.20645 -0.05200
C 	C 	0.14309 0.64951 0.20313 0.01600
C 	C 	0.20168 0.72123 0.20602 0.00000
C 	C 	0.19550 0.78636 0.20863 -0.05500
C 	C 	0.12978 0.77735 0.21195 0.01800
S 	S 	0.00381 0.71373 0.20611 0.03500
C 	C 	0.04329 0.80793 0.20257 -0.07500
C 	C 	0.11364 0.83550 0.20660 -0.02400
S 	S 	0.26402 0.71983 0.18833 0.02300
C 	C 	0.22170 0.63160 0.17632 -0.07700
C 	C 	0.15489 0.59903 0.18705 -0.01800
H 	H 	0.03195 0.58759 0.20195 0.04800
H 	H 	0.23966 0.84206 0.20584 0.04500
H 	H 	0.15137 0.89511 0.20666 0.03600
H 	H 	0.11314 0.54712 0.17903 0.04400
C 	C 	0.76346 0.95917 0.34640 -0.00500
C 	C 	0.70173 0.95354 0.35533 -0.05200
C 	C 	0.65762 0.89068 0.37123 0.01500
C 	C 	0.67426 0.83375 0.37681 -0.00100
C 	C 	0.73024 0.83376 0.36414 -0.05500
C 	C 	0.77591 0.89815 0.34929 0.01800
S 	S 	0.80733 0.00921 0.31948 0.03400
C 	C 	0.84563 0.95912 0.31133 -0.07100
C 	C 	0.82189 0.89784 0.32946 -0.02100
S 	S 	0.60234 0.75591 0.38536 0.02400
C 	C 	0.54907 0.79127 0.38377 -0.07300
C 	C 	0.58695 0.86671 0.37506 -0.02100
H 	H 	0.68662 0.99407 0.34874 0.04500
H 	H 	0.73565 0.78366 0.36440 0.04600
H 	H 	0.82946 0.84979 0.32617 0.04400
H 	H 	0.56339 0.89899 0.36798 0.04500
C 	C 	0.03781 0.27298 0.29928 -0.00100
C 	C 	0.04909 0.33961 0.31191 -0.05300
C 	C 	0.06440 0.34805 0.33972 0.01600
C 	C 	0.06927 0.29097 0.35415 -0.00100
C 	C 	0.06692 0.22930 0.34059 -0.05300
C 	C 	0.05081 0.22063 0.31290 0.02000
S 	S 	0.04915 0.26603 0.26629 0.02800
C 	C 	0.06982 0.19752 0.26782 -0.07400
C 	C 	0.06799 0.17763 0.29519 -0.02100
S 	S 	0.11824 0.33108 0.38104 0.03200
C 	C 	0.13315 0.41926 0.37631 -0.07900
C 	C 	0.09987 0.41991 0.35232 -0.01700
H 	H 	0.05158 0.38592 0.30008 0.04700
H 	H 	0.08313 0.19331 0.35064 0.04900
H 	H 	0.07702 0.13264 0.30205 0.04700
H 	H 	0.11070 0.47178 0.34197 0.04400
C 	C 	0.10564 0.75759 0.28399 0.00100
C 	C 	0.11339 0.70099 0.29702 -0.05300
C 	C 	0.17926 0.70862 0.29736 0.01700
C 	C 	0.23537 0.77323 0.28606 0.00200
C 	C 	0.22883 0.83506 0.27748 -0.05400
C 	C 	0.16277 0.82589 0.27618 0.01700
S 	S 	0.03991 0.77310 0.28823 0.02100
C 	C 	0.08053 0.86531 0.27998 -0.06800
C 	C 	0.14895 0.88640 0.27383 -0.02400
S 	S 	0.30626 0.78068 0.29948 0.02500
C 	C 	0.27044 0.70248 0.31864 -0.07300
C 	C 	0.19898 0.66903 0.31580 -0.01700
H 	H 	0.07082 0.65487 0.30759 0.04800
H 	H 	0.27366 0.88938 0.27336 0.04600
H 	H 	0.18651 0.94234 0.26684 0.04500
H 	H 	0.16313 0.62598 0.32960 0.04400
C 	C 	0.47130 0.98616 0.54223 -0.08500
C 	C 	0.49041 0.93081 0.54644 0.02000
C 	C 	0.54267 0.94439 0.56514 -0.01800
C 	C 	0.58115 0.01626 0.57657 0.01000
C 	C 	0.56665 0.07420 0.57000 -0.09900
C 	C 	0.50762 0.05674 0.55467 0.06800
C 	C 	0.46206 0.86395 0.52852 0.01200
S 	S 	0.56021 0.87200 0.57438 -0.03800
H 	H 	0.62437 0.02805 0.58948 0.04600
S 	S 	0.47741 0.12165 0.55170 -0.03300
H 	H 	0.42928 0.97491 0.52869 0.05400
C 	C 	0.39116 0.81220 0.52831 -0.00600
C 	C 	0.36221 0.76381 0.50619 -0.00400
C 	C 	0.40386 0.76492 0.48463 -0.08700
C 	C 	0.47574 0.80791 0.48708 0.05700
C 	C 	0.50440 0.85881 0.50857 -0.07000
S 	S 	0.33819 0.80814 0.55546 -0.03900
H 	H 	0.30702 0.72805 0.50515 0.04500
S 	S 	0.53014 0.79623 0.46412 -0.04900
H 	H 	0.55939 0.89626 0.50928 0.05400
H 	H 	0.42894 0.10669 0.57133 0.03600
H 	H 	0.31252 0.85559 0.55019 0.03400
H 	H 	0.54734 0.84702 0.44318 0.04500
H 	H 	0.51951 0.83248 0.59598 0.03700
C 	C 	0.03592 0.62199 0.45459 -0.06700
C 	C 	0.05586 0.65415 0.48047 0.01100
C 	C 	0.12466 0.70924 0.48507 -0.00600
C 	C 	0.17395 0.72459 0.46492 -0.00200
C 	C 	0.15510 0.68510 0.44023 -0.09700
C 	C 	0.08510 0.63810 0.43434 0.05700
C 	C 	0.00704 0.62138 0.50334 0.01900
S 	S 	0.14987 0.75783 0.51615 -0.04100
H 	H 	0.22753 0.76329 0.46917 0.04600
S 	S 	0.05858 0.59935 0.40172 -0.04100
H 	H 	0.98251 0.58188 0.45063 0.04900
C 	C 	0.94820 0.62936 0.50468 -0.01100
C 	C 	0.89361 0.58160 0.52163 -0.00200
C 	C 	0.89726 0.52568 0.53716 -0.08800
C 	C 	0.96014 0.52605 0.53895 0.05400
C 	C 	0.01420 0.57266 0.52161 -0.06800
S 	S 	0.94191 0.69788 0.48491 -0.04100
H 	H 	0.84719 0.58555 0.52174 0.04300
S 	S 	0.97249 0.47066 0.56346 -0.05400
H 	H 	0.06086 0.56908 0.52159 0.05400
H 	H 	0.05664 0.53100 0.40037 0.04600
H 	H 	0.91335 0.66721 0.46032 0.03500
H 	H 	0.95486 0.40126 0.55278 0.04400
H 	H 	0.14353 0.82139 0.51466 0.03800
C 	C 	0.59008 0.43325 0.47194 -0.07300
C 	C 	0.52294 0.41411 0.47913 0.01400
C 	C 	0.49409 0.37386 0.50342 -0.00600
C 	C 	0.53345 0.35574 0.52066 -0.00100
C 	C 	0.60231 0.37958 0.51445 -0.09300
C 	C 	0.63088 0.41922 0.48986 0.05600
C 	C 	0.48626 0.44396 0.46274 0.01300
S 	S 	0.40966 0.34836 0.51296 -0.03200
H 	H 	0.51089 0.32444 0.53925 0.04700
S 	S 	0.71891 0.45854 0.48250 -0.03400
H 	H 	0.61215 0.46394 0.45321 0.05200
C 	C 	0.50296 0.52029 0.46491 -0.00500
C 	C 	0.46536 0.54657 0.45041 -0.00400
C 	C 	0.40938 0.49699 0.43450 -0.08700
C 	C 	0.39338 0.42083 0.43189 0.05600
C 	C 	0.43293 0.39530 0.44554 -0.07100
S 	S 	0.56894 0.58274 0.48661 -0.03700
H 	H 	0.47792 0.60514 0.45236 0.04000
S 	S 	0.32182 0.35590 0.41303 -0.03100
H 	H 	0.42053 0.33680 0.44362 0.05500
H 	H 	0.75211 0.53322 0.48971 0.03600
H 	H 	0.62997 0.61549 0.47274 0.03400
H 	H 	0.34112 0.35624 0.38659 0.04000
H 	H 	0.41020 0.40693 0.52687 0.03900
C 	C 	0.91121 0.14267 0.60691 -0.00000
C 	C 	0.91467 0.08872 0.62356 -0.05300
C 	C 	0.97042 0.11341 0.64131 0.01400
C 	C 	0.01927 0.19077 0.64293 0.00300
C 	C 	0.00896 0.24535 0.62970 -0.04800
C 	C 	0.95502 0.22048 0.61107 0.01300
S 	S 	0.83951 0.13180 0.59302 0.02900
C 	C 	0.86203 0.22312 0.59042 -0.07000
C 	C 	0.92692 0.26582 0.60210 -0.02100
S 	S 	0.05982 0.20492 0.67231 0.03000
C 	C 	0.02058 0.11536 0.68334 -0.06800
C 	C 	0.97084 0.07086 0.66417 -0.02100
H 	H 	0.87346 0.03056 0.62386 0.04800
H 	H 	0.03916 0.30462 0.63492 0.04800
H 	H 	0.94846 0.32494 0.60734 0.04000
H 	H 	0.93055 0.01355 0.66826 0.04900
C 	C 	0.31604 0.15325 0.66801 -0.00000
C 	C 	0.35809 0.15077 0.64750 -0.05300
C 	C 	0.41213 0.21958 0.63796 0.01600
C 	C 	0.42556 0.28818 0.65005 -0.00100
C 	C 	0.38977 0.28904 0.67327 -0.05400
C 	C 	0.33326 0.22068 0.68170 0.01700
S 	S 	0.26732 0.08168 0.68860 0.03500
C 	C 	0.26445 0.13200 0.71491 -0.07800
C 	C 	0.30339 0.20878 0.70791 -0.01900
S 	S 	0.50658 0.35206 0.64322 0.02800
C 	C 	0.52588 0.29787 0.62372 -0.07600
C 	C 	0.46864 0.22504 0.62314 -0.01700
H 	H 	0.35141 0.09726 0.64027 0.04800
H 	H 	0.40769 0.33994 0.68525 0.04600
H 	H 	0.30894 0.25420 0.72100 0.03500
H 	H 	0.47100 0.17603 0.61599 0.04600
C 	C 	0.98293 0.71186 0.69361 -0.00400
C 	C 	0.97768 0.66590 0.67161 -0.05900
C 	C 	0.93182 0.58800 0.67386 0.01900
C 	C 	0.89046 0.55844 0.69718 -0.00300
C 	C 	0.88827 0.60634 0.71708 -0.05300
C 	C 	0.93610 0.68365 0.71531 0.01600
S 	S 	0.01255 0.80447 0.69155 0.03600
C 	C 	0.96888 0.81258 0.71775 -0.08000
C 	C 	0.92873 0.74037 0.72909 -0.01900
S 	S 	0.82385 0.47560 0.68890 0.03000
C 	C 	0.84567 0.47190 0.65668 -0.07000
C 	C 	0.90659 0.53933 0.65108 -0.02300
H 	H 	0.00505 0.69034 0.65282 0.05100
H 	H 	0.84794 0.58502 0.73227 0.04700
H 	H 	0.89658 0.72936 0.74687 0.04600
H 	H 	0.92582 0.55752 0.63064 0.04500
C 	C 	0.79547 0.40958 0.04013 -0.07300
C 	C 	0.86588 0.43489 0.03911 0.01400
C 	C 	0.89354 0.41665 0.01647 -0.00600
C 	C 	0.85334 0.38557 0.99333 0.00100
C 	C 	0.78575 0.37189 0.99283 -0.09600
C 	C 	0.75502 0.37722 0.01714 0.06100
C 	C 	0.91179 0.49189 0.05878 0.01400
S 	S 	0.97958 0.43719 0.01630 -0.03900
H 	H 	0.87627 0.37793 0.97505 0.04000
S 	S 	0.66665 0.34628 0.01861 -0.05800
H 	H 	0.77316 0.41959 0.05811 0.05400
C 	C 	0.94625 0.56914 0.05155 -0.01100
C 	C 	0.00966 0.61794 0.06333 0.00400
C 	C 	0.03862 0.58937 0.08183 -0.09100
C 	C 	0.99639 0.51793 0.09367 0.05200
C 	C 	0.93348 0.46847 0.08167 -0.07100
S 	S 	0.91393 0.60325 0.02590 -0.03100
H 	H 	0.03996 0.67515 0.05562 0.04300
S 	S 	0.02473 0.48792 0.12192 -0.03700
H 	H 	0.90453 0.41036 0.08862 0.05200
H 	H 	0.63141 0.27073 0.02486 0.04500
H 	H 	0.93596 0.59309 0.00109 0.03800
H 	H 	0.06585 0.45966 0.11348 0.05000
H 	H 	0.02085 0.51058 0.00813 0.03900
C 	C 	0.42333 0.11312 0.98309 -0.07400
C 	C 	0.41958 0.04367 0.97733 0.01800
C 	C 	0.45704 0.03841 0.95528 0.00100
C 	C 	0.50492 0.10402 0.94177 -0.00700
C 	C 	0.51479 0.17520 0.94966 -0.08400
C 	C 	0.46908 0.17853 0.96874 0.05700
C 	C 	0.38306 0.97930 0.99629 0.00800
S 	S 	0.44578 0.95016 0.94493 -0.04500
H 	H 	0.53623 0.09985 0.92581 0.04700
S 	S 	0.46359 0.26143 0.97283 -0.04600
H 	H 	0.39144 0.11647 0.99900 0.05500
C 	C 	0.41966 0.96230 0.01568 -0.00900
C 	C 	0.38513 0.89822 0.03217 -0.00400
C 	C 	0.31385 0.85184 0.03025 -0.08800
C 	C 	0.27669 0.87057 0.01157 0.05600
C 	C 	0.31170 0.93354 0.99445 -0.07100
S 	S 	0.50857 0.02176 0.01986 -0.03000
H 	H 	0.41368 0.88482 0.04680 0.03900
S 	S 	0.18646 0.81873 0.01048 -0.03700
H 	H 	0.28338 0.94722 0.97982 0.05200
H 	H 	0.41942 0.26281 0.95396 0.04300
H 	H 	0.51979 0.07847 0.03762 0.03700
H 	H 	0.16004 0.84767 0.02904 0.04100
H 	H 	0.48923 0.93395 0.95930 0.03800
C 	C 	0.44466 0.49445 0.93263 -0.07300
C 	C 	0.48339 0.56193 0.94706 0.01300
C 	C 	0.55409 0.60682 0.94141 -0.00500
C 	C 	0.58529 0.58110 0.92292 -0.00300
C 	C 	0.54923 0.50724 0.91291 -0.09000
C 	C 	0.47748 0.46620 0.91597 0.05600
C 	C 	0.45247 0.57750 0.97104 0.01300
S 	S 	0.60547 0.69071 0.95951 -0.03300
H 	H 	0.63962 0.61489 0.91897 0.04700
S 	S 	0.42883 0.37822 0.89997 -0.04400
H 	H 	0.38979 0.46131 0.93597 0.05400
C 	C 	0.43958 0.63858 0.97126 -0.00300
C 	C 	0.41401 0.65433 0.99480 -0.00700
C 	C 	0.39294 0.60445 0.01716 -0.08500
C 	C 	0.40212 0.54019 0.01616 0.05500
C 	C 	0.43485 0.52966 0.99373 -0.07100
S 	S 	0.45092 0.69264 0.94173 -0.04200
H 	H 	0.40719 0.70353 0.99520 0.04600
S 	S 	0.36790 0.46896 0.04128 -0.03300
H 	H 	0.44405 0.48207 0.99343 0.05400
H 	H 	0.40933 0.38913 0.87477 0.04000
H 	H 	0.39195 0.65918 0.92672 0.03700
H 	H 	0.41571 0.48512 0.06118 0.03800
H 	H 	0.61212 0.75142 0.94491 0.03600
C 	C 	0.91905 0.26809 0.81160 -0.00200
C 	C 	0.91099 0.33169 0.81007 -0.05200
C 	C 	0.92649 0.37723 0.83324 0.01500
C 	C 	0.95653 0.36301 0.85607 0.00000
C 	C 	0.96906 0.30183 0.85657 -0.05700
C 	C 	0.95119 0.25546 0.83365 0.02200
S 	S 	0.92064 0.21777 0.78548 0.03100
C 	C 	0.95830 0.17523 0.80148 -0.06500
C 	C 	0.97455 0.20364 0.82799 -0.02900
S 	S 	0.93360 0.39351 0.88326 0.02200
C 	C 	0.88895 0.42861 0.86770 -0.07600
C 	C 	0.89029 0.41585 0.83977 -0.01800
H 	H 	0.88780 0.34176 0.79242 0.04800
H 	H 	0.99029 0.28983 0.87441 0.04700
H 	H 	0.00755 0.19370 0.84139 0.05000
H 	H 	0.85569 0.42053 0.82558 0.05000
C 	C 	0.36317 0.11999 0.82320 0.00000
C 	C 	0.41445 0.12135 0.83966 -0.05500
C 	C 	0.48257 0.16250 0.83054 0.02000
C 	C 	0.49812 0.20324 0.80592 -0.00100
C 	C 	0.44756 0.21004 0.79159 -0.05200
C 	C 	0.37951 0.16715 0.80037 0.01700
S 	S 	0.28655 0.10180 0.83426 0.02800
C 	C 	0.27023 0.15024 0.81064 -0.07300
C 	C 	0.32730 0.18389 0.79322 -0.01800
S 	S 	0.57906 0.27167 0.80754 0.03000
C 	C 	0.59853 0.25167 0.83807 -0.06900
C 	C 	0.53928 0.18929 0.84842 -0.02600
H 	H 	0.40242 0.09597 0.85973 0.04900
H 	H 	0.46141 0.25177 0.77556 0.04700
H 	H 	0.32971 0.21618 0.77531 0.04200
H 	H 	0.53361 0.17333 0.86969 0.04500
C 	C 	0.97238 0.85815 0.88556 -0.00300
C 	C 	0.96550 0.80118 0.90340 -0.05900
C 	C 	0.90627 0.76499 0.91959 0.01700
C 	C 	0.85533 0.78610 0.91772 -0.00100
C 	C 	0.85886 0.83699 0.89768 -0.05500
C 	C 	0.91819 0.87337 0.88161 0.01500
S 	S 	0.01801 0.88011 0.85696 0.03000
C 	C 	0.97414 0.91259 0.83950 -0.07700
C 	C 	0.91922 0.90417 0.85556 -0.02000
S 	S 	0.78213 0.71210 0.92754 0.01900
C 	C 	0.81015 0.65175 0.93473 -0.07400
C 	C 	0.88112 0.69037 0.92970 -0.02000
H 	H 	0.00177 0.78057 0.90279 0.05100
H 	H 	0.81434 0.84257 0.89304 0.04500
H 	H 	0.87689 0.90977 0.84765 0.04500
H 	H 	0.91047 0.66122 0.92819 0.04600
