data_crystal

_cell_length_a 20.95647
_cell_length_b 19.58315
_cell_length_c 40.17423
_cell_angle_alpha 90.72305
_cell_angle_beta  90.81982
_cell_angle_gamma 112.75055

_symmetry_space_group_name_	'P 1'
_symmetry_space_group_name_H-M	'P 1'

loop_
_symmetry_equiv_pos_as_xyz
  x,y,z

loop_
_atom_site_label
_atom_site_type_symbol
_atom_site_fract_x
_atom_site_fract_y
_atom_site_fract_z
_atom_site_charge
Ni	Ni	0.76579 0.35527 0.86984 1.10000
O 	O 	0.66428 0.31204 0.85466 -0.70400
Ni	Ni	0.61923 0.33673 0.89391 1.09800
O 	O 	0.70723 0.18653 0.85981 -0.41700
Ni	Ni	0.61916 0.20514 0.84689 1.06700
O 	O 	0.57173 0.15776 0.89038 -0.39700
O 	O 	0.51635 0.27337 0.88356 -0.38100
O 	O 	0.72160 0.39304 0.90576 -0.69800
O 	O 	0.59115 0.38386 0.93379 -0.37000
O 	O 	0.65588 0.50049 0.91610 -0.41300
Ni	Ni	0.75206 0.49998 0.90363 1.06600
H 	H 	0.65689 0.33831 0.83501 0.15600
H 	H 	0.73380 0.37920 0.92787 0.15400
C 	C 	0.58880 0.18729 0.92044 0.30100
O 	O 	0.72442 0.49281 0.85486 -0.42500
C 	C 	0.76395 0.21497 0.84243 0.26600
C 	C 	0.49137 0.23317 0.85598 0.29300
C 	C 	0.61604 0.45614 0.93854 0.26600
O 	O 	0.62703 0.25778 0.92456 -0.40000
O 	O 	0.53197 0.22024 0.83395 -0.41900
Ni	Ni	0.63309 0.22527 0.66908 1.10100
O 	O 	0.67942 0.32949 0.68922 -0.70300
Ni	Ni	0.67001 0.39051 0.65140 1.09900
O 	O 	0.68481 0.17932 0.69970 -0.38200
O 	O 	0.55280 0.20009 0.70251 -0.37200
O 	O 	0.48372 0.15318 0.64071 -0.41100
O 	O 	0.73496 0.49512 0.66707 -0.38000
O 	O 	0.61118 0.28604 0.63433 -0.69900
O 	O 	0.58005 0.12551 0.64653 -0.37400
O 	O 	0.63922 0.43522 0.61158 -0.37100
O 	O 	0.52499 0.37345 0.62375 -0.41200
Ni	Ni	0.51254 0.26439 0.63339 1.06600
H 	H 	0.65288 0.33641 0.70824 0.15600
H 	H 	0.62599 0.27563 0.61220 0.15600
O 	O 	0.51400 0.28603 0.68290 -0.42500
C 	C 	0.75302 0.20471 0.69908 0.26300
C 	C 	0.50943 0.23422 0.70406 0.28800
C 	C 	0.57327 0.41696 0.60407 0.26500
C 	C 	0.52147 0.11624 0.63074 0.27200
O 	O 	0.74604 0.38001 0.62305 -0.40000
C 	C 	0.05651 0.98150 0.73852 -0.04500
H 	H 	0.06306 0.98944 0.71124 0.04000
C 	C 	0.04045 0.96248 0.80406 -0.03500
H 	H 	0.03378 0.95453 0.83133 0.03800
C 	C 	0.12239 0.02133 0.75986 -0.00400
C 	C 	0.11394 0.01119 0.79352 -0.01300
Ni	Ni	0.22213 0.73316 0.39755 1.09500
O 	O 	0.28908 0.75886 0.35850 -0.70000
Ni	Ni	0.37131 0.74271 0.37856 1.09700
O 	O 	0.15469 0.77419 0.37635 -0.37300
O 	O 	0.24137 0.88437 0.36510 -0.42000
O 	O 	0.15895 0.63482 0.37441 -0.37200
Ni	Ni	0.31745 0.85984 0.34116 1.06200
O 	O 	0.16844 0.58858 0.43773 -0.40700
O 	O 	0.38494 0.92191 0.37756 -0.39300
O 	O 	0.44107 0.78187 0.34127 -0.38200
O 	O 	0.30143 0.71081 0.41642 -0.70000
O 	O 	0.16038 0.70200 0.43800 -0.37900
O 	O 	0.44000 0.70847 0.40353 -0.36300
O 	O 	0.35756 0.59363 0.41059 -0.41100
Ni	Ni	0.26658 0.60401 0.42381 1.06600
H 	H 	0.26952 0.72295 0.33984 0.15000
H 	H 	0.31973 0.73924 0.43739 0.15200
C 	C 	0.39715 0.89356 0.40509 0.26300
O 	O 	0.23814 0.58229 0.37533 -0.42700
C 	C 	0.17580 0.83991 0.36304 0.27400
C 	C 	0.44967 0.84432 0.32622 0.29500
C 	C 	0.17885 0.58186 0.36482 0.29400
C 	C 	0.41786 0.64483 0.41877 0.27800
C 	C 	0.15162 0.63938 0.45294 0.27000
O 	O 	0.42065 0.84079 0.40353 -0.37500
O 	O 	0.39569 0.85436 0.31321 -0.42400
Ni	Ni	0.35604 0.74999 0.15111 1.09900
O 	O 	0.25846 0.68708 0.13377 -0.69800
Ni	Ni	0.20209 0.72144 0.16468 1.10100
O 	O 	0.39907 0.70594 0.11584 -0.36900
O 	O 	0.33341 0.58786 0.13147 -0.41300
O 	O 	0.35075 0.82469 0.11723 -0.40000
Ni	Ni	0.23201 0.58072 0.13631 1.06500
O 	O 	0.42328 0.87028 0.21402 -0.41600
O 	O 	0.24384 0.58698 0.18667 -0.42100
O 	O 	0.10912 0.66505 0.14173 -0.37400
O 	O 	0.29868 0.77080 0.18589 -0.70400
O 	O 	0.45313 0.82082 0.16686 -0.38000
O 	O 	0.16111 0.78518 0.19083 -0.37800
O 	O 	0.24981 0.88999 0.17467 -0.41800
Ni	Ni	0.33762 0.87821 0.19343 1.06700
H 	H 	0.25116 0.69986 0.11064 0.15200
H 	H 	0.30251 0.74569 0.20660 0.15700
C 	C 	0.19297 0.58841 0.20477 0.29100
O 	O 	0.39375 0.92542 0.15218 -0.39900
C 	C 	0.37692 0.63392 0.11072 0.26600
C 	C 	0.09921 0.60102 0.12695 0.27100
C 	C 	0.38107 0.89640 0.12191 0.30300
C 	C 	0.19006 0.85790 0.18932 0.26800
C 	C 	0.46842 0.85263 0.19683 0.29000
O 	O 	0.17264 0.64406 0.20209 -0.37100
O 	O 	0.12827 0.55739 0.13939 -0.40900
C 	C 	0.14719 0.51951 0.22100 -0.08300
C 	C 	0.08955 0.51856 0.23882 0.01700
C 	C 	0.03805 0.45130 0.24789 -0.07000
C 	C 	0.04405 0.38416 0.23979 0.04300
C 	C 	0.10414 0.38483 0.22412 -0.01100
C 	C 	0.15561 0.45248 0.21490 -0.01300
C 	C 	0.11171 0.31773 0.21762 -0.03100
C 	C 	0.06107 0.25076 0.22766 -0.05300
C 	C 	0.00186 0.25003 0.24379 0.02800
H 	H 	0.08353 0.56981 0.24478 0.03800
H 	H 	0.20090 0.45274 0.20210 0.02800
H 	H 	0.15753 0.31752 0.20552 0.03100
H 	H 	0.06935 0.19986 0.22425 0.04200
C 	C 	0.54059 0.88230 0.20810 -0.08000
C 	C 	0.56866 0.83610 0.22350 0.01800
C 	C 	0.63887 0.86330 0.23239 -0.07200
C 	C 	0.68142 0.93713 0.22605 0.04800
C 	C 	0.65300 0.98386 0.21064 -0.01800
C 	C 	0.58270 0.95596 0.20159 -0.00100
C 	C 	0.69488 0.05850 0.20561 -0.02200
C 	C 	0.76278 0.08787 0.21815 -0.05800
C 	C 	0.75078 0.96625 0.23680 -0.08200
H 	H 	0.53610 0.77904 0.22848 0.02500
H 	H 	0.65990 0.82733 0.24464 0.04800
H 	H 	0.56067 0.99136 0.18953 0.03200
H 	H 	0.67399 0.09447 0.19327 0.03200
C 	C 	0.99169 0.01935 0.24269 0.03000
C 	C 	0.05397 0.92989 0.21391 -0.00800
C 	C 	0.09473 0.99506 0.23199 0.03200
C 	C 	0.06346 0.04014 0.24581 -0.07100
C 	C 	0.16598 0.01359 0.23638 -0.06400
C 	C 	0.19678 0.96829 0.22267 0.00300
C 	C 	0.15664 0.90365 0.20462 -0.08400
C 	C 	0.08515 0.88420 0.20047 -0.00900
H 	H 	0.09430 0.08971 0.26006 0.04700
H 	H 	0.19758 0.06309 0.25041 0.04000
H 	H 	0.25194 0.98325 0.22618 -0.00100
H 	H 	0.05420 0.83438 0.18642 0.04200
C 	C 	0.52059 0.89623 0.31797 -0.07700
C 	C 	0.53062 0.96337 0.30229 0.01300
C 	C 	0.59741 0.01609 0.29767 -0.06800
C 	C 	0.65523 0.00227 0.30831 0.04700
C 	C 	0.64585 0.93413 0.32314 -0.01300
C 	C 	0.57861 0.88162 0.32815 -0.00600
C 	C 	0.70391 0.91886 0.33219 -0.02600
C 	C 	0.72243 0.05418 0.30285 -0.07700
H 	H 	0.48663 0.97536 0.29415 0.02400
H 	H 	0.60410 0.06749 0.28555 0.04500
H 	H 	0.57152 0.82983 0.34003 0.04800
H 	H 	0.69742 0.86706 0.34386 0.03600
H 	H 	0.72981 0.10642 0.29130 0.05100
C 	C 	0.00288 0.24363 0.31641 0.02800
C 	C 	0.07391 0.25799 0.31580 -0.05200
C 	C 	0.12260 0.32848 0.32384 -0.02900
C 	C 	0.10083 0.38532 0.33270 -0.00900
C 	C 	0.02947 0.36993 0.33545 0.04100
C 	C 	0.00776 0.42720 0.34377 -0.07300
C 	C 	0.05662 0.49847 0.35080 0.01500
C 	C 	0.12779 0.51314 0.34965 -0.08400
C 	C 	0.14941 0.45722 0.33886 -0.01100
H 	H 	0.09129 0.21650 0.30598 0.04100
H 	H 	0.17724 0.33953 0.32195 0.03400
H 	H 	0.03910 0.54151 0.35834 0.04200
H 	H 	0.20417 0.46903 0.33656 0.04000
C 	C 	0.98976 0.02280 0.31700 0.03300
C 	C 	0.04032 0.06580 0.34029 -0.05900
C 	C 	0.08603 0.03785 0.35476 -0.02300
C 	C 	0.08068 0.96596 0.34657 -0.01700
C 	C 	0.02607 0.92025 0.32534 0.04500
C 	C 	0.02050 0.84826 0.31721 -0.07200
C 	C 	0.06921 0.82210 0.32975 0.01100
C 	C 	0.12425 0.86771 0.35037 -0.08600
C 	C 	0.12966 0.93949 0.35894 -0.00800
H 	H 	0.04518 0.12138 0.34669 0.04300
H 	H 	0.12629 0.07258 0.37187 0.03300
H 	H 	0.06472 0.76663 0.32305 0.03000
H 	H 	0.17169 0.97446 0.37521 0.03700
C 	C 	0.58846 0.07505 0.51833 -0.04000
C 	C 	0.56996 0.05087 0.48537 -0.04700
C 	C 	0.50024 0.01112 0.47629 0.02800
C 	C 	0.44862 0.99633 0.50043 -0.02200
C 	C 	0.46720 0.02090 0.53355 -0.00300
C 	C 	0.53741 0.06023 0.54254 0.00900
C 	C 	0.41558 0.00648 0.55767 0.01200
C 	C 	0.34583 0.96675 0.54856 -0.04600
C 	C 	0.32744 0.94134 0.51571 -0.04800
C 	C 	0.37855 0.95564 0.49155 0.02000
C 	C 	0.36088 0.92746 0.45895 -0.03800
C 	C 	0.41268 0.93918 0.43543 -0.05500
C 	C 	0.48179 0.98340 0.44373 -0.02900
C 	C 	0.55549 0.08600 0.57540 -0.02900
C 	C 	0.50388 0.07477 0.59904 -0.07700
C 	C 	0.43422 0.03345 0.59037 -0.02800
H 	H 	0.64250 0.10550 0.52498 0.03700
H 	H 	0.60996 0.06250 0.46698 0.04200
H 	H 	0.30579 0.95546 0.56691 0.03600
H 	H 	0.27347 0.91020 0.50913 0.03800
H 	H 	0.30750 0.89330 0.45232 0.01900
H 	H 	0.52152 0.99253 0.42532 0.04800
H 	H 	0.60924 0.11812 0.58217 0.03100
H 	H 	0.39456 0.02434 0.60881 0.04000
C 	C 	0.04619 0.48462 0.58568 -0.04300
C 	C 	0.09475 0.51909 0.56135 -0.04400
C 	C 	0.07653 0.55260 0.53411 0.01500
C 	C 	0.03898 0.61873 0.47948 -0.02300
C 	C 	0.10531 0.61686 0.48148 -0.05900
C 	C 	0.12427 0.58492 0.50905 -0.03000
H 	H 	0.06106 0.45890 0.60649 0.03700
H 	H 	0.14644 0.51934 0.56363 0.03400
H 	H 	0.02432 0.64304 0.45807 0.05000
H 	H 	0.17557 0.58372 0.51053 0.02000
C 	C 	0.41262 0.58611 0.53652 -0.04200
C 	C 	0.43103 0.54878 0.56200 -0.04600
C 	C 	0.48422 0.52295 0.55739 0.01600
C 	C 	0.52051 0.53666 0.52726 -0.01200
C 	C 	0.50177 0.57397 0.50156 -0.00500
C 	C 	0.44692 0.59774 0.50604 0.00800
C 	C 	0.53593 0.58474 0.47086 0.01100
C 	C 	0.59065 0.56107 0.46664 -0.04000
C 	C 	0.60984 0.52477 0.49234 -0.04500
C 	C 	0.57431 0.51137 0.52251 0.01700
C 	C 	0.59119 0.47204 0.54777 -0.03100
C 	C 	0.55422 0.45711 0.57754 -0.06100
C 	C 	0.50104 0.48289 0.58235 -0.03000
C 	C 	0.42461 0.62912 0.47943 -0.02500
C 	C 	0.45506 0.63463 0.44816 -0.07400
C 	C 	0.51254 0.61551 0.44427 -0.01700
H 	H 	0.37074 0.60471 0.54027 0.03100
H 	H 	0.40337 0.53926 0.58519 0.03700
H 	H 	0.61770 0.56974 0.44329 0.03800
H 	H 	0.65175 0.50623 0.48859 0.03800
H 	H 	0.63249 0.45238 0.54420 0.04100
H 	H 	0.47338 0.47243 0.60558 0.04300
H 	H 	0.38071 0.64490 0.48237 -0.00000
H 	H 	0.53629 0.62049 0.42011 0.04000
C 	C 	0.75334 0.08015 0.71305 0.00500
H 	H 	0.06199 0.14930 0.73302 0.04100
H 	H 	0.75995 0.97545 0.72318 0.03900
H 	H 	0.69735 0.05635 0.71133 0.04000
C 	C 	0.19209 0.05134 0.74495 0.02500
C 	C 	0.21683 0.00348 0.72821 -0.04800
C 	C 	0.28621 0.02829 0.71904 -0.02800
C 	C 	0.33184 0.10115 0.72683 -0.01000
C 	C 	0.30718 0.14954 0.74368 0.04000
C 	C 	0.23683 0.12516 0.75158 -0.07300
C 	C 	0.35312 0.22179 0.75218 -0.07000
C 	C 	0.42178 0.24760 0.74183 0.01200
C 	C 	0.44545 0.20134 0.72313 -0.08400
C 	C 	0.40123 0.12705 0.71701 -0.01200
H 	H 	0.18280 0.94638 0.72317 0.03800
H 	H 	0.30454 0.99063 0.70616 0.03200
H 	H 	0.21738 0.16261 0.76391 0.04800
H 	H 	0.33533 0.25860 0.76609 0.04500
H 	H 	0.45581 0.30462 0.74710 0.02600
H 	H 	0.41959 0.09090 0.70290 0.04800
H 	H 	0.09002 0.80425 0.73092 0.04000
C 	C 	0.01082 0.54521 0.02918 -0.01000
C 	C 	0.02410 0.65805 0.98398 -0.04700
C 	C 	0.04875 0.67624 0.01677 -0.04400
C 	C 	0.04196 0.62014 0.03954 0.01100
C 	C 	0.06700 0.63806 0.07234 -0.03000
C 	C 	0.06222 0.58177 0.09470 -0.07600
C 	C 	0.02945 0.50713 0.08462 -0.03100
H 	H 	0.02918 0.70195 0.96676 0.03500
H 	H 	0.07298 0.73399 0.02446 0.03600
H 	H 	0.09260 0.69570 0.08012 0.03400
C 	C 	0.56752 0.10401 0.06941 -0.03900
C 	C 	0.59796 0.14275 0.04090 -0.04400
C 	C 	0.56411 0.12261 0.00970 0.01800
C 	C 	0.49911 0.06311 0.00717 -0.01200
C 	C 	0.46839 0.02415 0.03590 0.00200
C 	C 	0.50283 0.04457 0.06711 0.01000
C 	C 	0.40352 0.96445 0.03334 0.00500
C 	C 	0.36956 0.94447 0.00217 -0.03600
C 	C 	0.39995 0.98325 0.97367 -0.05100
C 	C 	0.46474 0.04255 0.97596 0.02300
C 	C 	0.49521 0.08195 0.94746 -0.02600
C 	C 	0.55970 0.14192 0.94994 -0.06000
C 	C 	0.59425 0.16160 0.98106 -0.02500
C 	C 	0.47270 0.00453 0.09554 -0.01500
C 	C 	0.40871 0.94391 0.09292 -0.07000
C 	C 	0.37385 0.92478 0.06188 -0.01800
H 	H 	0.59444 0.12016 0.09325 0.03700
H 	H 	0.64789 0.18844 0.04312 0.03800
H 	H 	0.31966 0.89873 0.99994 0.03500
H 	H 	0.37304 0.96709 0.94983 0.03900
H 	H 	0.46813 0.06713 0.92357 0.04800
H 	H 	0.64421 0.20743 0.98299 0.04200
H 	H 	0.49987 0.01905 0.11941 0.04500
H 	H 	0.32420 0.87847 0.05991 0.03800
C 	C 	0.47834 0.45800 0.07307 -0.04300
C 	C 	0.51475 0.43517 0.04944 -0.04300
C 	C 	0.53454 0.47356 0.01956 0.01700
C 	C 	0.51811 0.53569 0.01350 -0.00900
C 	C 	0.48140 0.55858 0.03725 -0.00900
C 	C 	0.46137 0.51954 0.06714 0.01500
C 	C 	0.46467 0.62049 0.03110 0.01600
C 	C 	0.48475 0.65909 0.00130 -0.04200
C 	C 	0.52111 0.63625 0.97767 -0.04400
C 	C 	0.53777 0.57449 0.98353 0.01500
C 	C 	0.57260 0.55017 0.95954 -0.03000
C 	C 	0.58726 0.48703 0.96517 -0.06200
C 	C 	0.56945 0.44980 0.99544 -0.02900
C 	C 	0.42524 0.54298 0.09083 -0.02900
C 	C 	0.40954 0.60535 0.08491 -0.06400
C 	C 	0.42857 0.64338 0.05491 -0.02900
H 	H 	0.46333 0.42775 0.09598 0.03800
H 	H 	0.52725 0.38741 0.05432 0.04000
H 	H 	0.47220 0.70682 0.99641 0.03900
H 	H 	0.53604 0.66645 0.95475 0.03700
H 	H 	0.58633 0.57883 0.93616 0.04300
H 	H 	0.58174 0.40167 0.99990 0.04400
H 	H 	0.41078 0.51390 0.11408 0.04200
H 	H 	0.41568 0.69107 0.05029 0.04300
H 	H 	0.06027 0.13307 0.81781 0.04100
H 	H 	0.70183 0.07645 0.81646 0.01500
C 	C 	0.41628 0.19888 0.85063 -0.08200
C 	C 	0.37605 0.24143 0.85394 0.01800
C 	C 	0.30450 0.20894 0.84854 -0.07500
C 	C 	0.27258 0.13356 0.83973 0.04800
C 	C 	0.31270 0.08996 0.83755 -0.01600
C 	C 	0.38444 0.12292 0.84304 -0.00100
C 	C 	0.28085 0.01485 0.82826 -0.01400
C 	C 	0.21135 0.98527 0.81804 -0.06500
C 	C 	0.17355 0.03073 0.81678 0.03800
C 	C 	0.20228 0.10255 0.83054 -0.08200
H 	H 	0.40040 0.29997 0.86017 0.02900
H 	H 	0.27418 0.24280 0.85040 0.04600
H 	H 	0.41557 0.08985 0.84114 0.03100
H 	H 	0.31068 0.98038 0.82733 0.02700
H 	H 	0.18869 0.92899 0.80824 0.04400
H 	H 	0.17224 0.13683 0.83050 0.04800
H 	H 	0.07748 0.80086 0.81267 0.04000
H 	H 	0.71574 0.57210 0.79605 0.02700
C 	C 	0.03247 0.90092 0.74970 -0.00900
C 	C 	0.02355 0.89099 0.78334 -0.01300
C 	C 	0.98263 0.91142 0.20955 -0.03000
C 	C 	0.03616 0.78761 0.72343 -0.05100
H 	H 	0.72616 0.62569 0.69707 0.02800
H 	H 	0.02107 0.67342 0.71636 0.03400
C 	C 	0.75744 0.09409 0.81928 0.00900
H 	H 	0.00582 0.21783 0.83621 0.03500
H 	H 	0.75615 0.98830 0.80360 0.04000
C 	C 	0.02172 0.77543 0.80954 -0.05400
H 	H 	0.01596 0.66876 0.82544 0.03500
H 	H 	0.02507 0.46374 0.10205 0.03900
C 	C 	0.00447 0.11319 0.81863 -0.05300
C 	C 	0.76800 0.48950 0.83261 0.29000
O 	O 	0.79006 0.43481 0.83317 -0.37400
C 	C 	0.99156 0.31638 0.24792 -0.07400
H 	H 	0.99335 0.45148 0.26108 0.04800
H 	H 	0.94477 0.31554 0.25943 0.04900
H 	H 	0.79319 0.14669 0.21632 0.04300
C 	C 	0.98085 0.29818 0.32845 -0.07700
H 	H 	0.95311 0.41643 0.34519 0.04600
C 	C 	0.97925 0.94816 0.31162 -0.08100
H 	H 	0.93708 0.91326 0.29543 0.05100
H 	H 	0.97899 0.81284 0.30086 0.04800
O 	O 	0.79438 0.28733 0.83937 -0.38400
O 	O 	0.85232 0.51737 0.89279 -0.41100
O 	O 	0.86448 0.40631 0.88743 -0.37600
C 	C 	0.88201 0.47185 0.90219 0.27100
O 	O 	0.78781 0.26916 0.68555 -0.41400
Ni	Ni	0.77733 0.36537 0.70191 1.06900
O 	O 	0.83350 0.42183 0.66208 -0.39600
C 	C 	0.81193 0.41298 0.63083 0.30200
C 	C 	0.76964 0.51273 0.69589 0.29400
O 	O 	0.77129 0.46184 0.71695 -0.41600
C 	C 	0.00316 0.00798 0.75389 -0.00000
C 	C 	0.99553 0.99912 0.78758 -0.02000
C 	C 	0.92368 0.10726 0.24427 -0.03600
H 	H 	0.92678 0.10812 0.21667 0.04000
C 	C 	0.91587 0.10508 0.31062 -0.03600
H 	H 	0.91228 0.10455 0.33820 0.03900
C 	C 	0.95740 0.05991 0.26165 -0.01000
C 	C 	0.95764 0.18305 0.26178 -0.01000
C 	C 	0.85027 0.07721 0.25769 -0.01100
C 	C 	0.95301 0.05811 0.29576 -0.01200
C 	C 	0.95463 0.18193 0.29589 -0.01100
C 	C 	0.84579 0.07632 0.29178 -0.01000
C 	C 	0.78936 0.04273 0.23549 0.03500
H 	H 	0.77262 0.93105 0.24917 0.05100
C 	C 	0.95173 0.95617 0.22379 -0.05700
H 	H 	0.89631 0.94040 0.22110 0.04200
H 	H 	0.95096 0.86197 0.19551 0.03600
C 	C 	0.77049 0.96898 0.32479 -0.05900
C 	C 	0.77977 0.03529 0.30872 0.03400
H 	H 	0.81447 0.95427 0.32976 0.04400
H 	H 	0.92593 0.28672 0.32920 0.04800
C 	C 	0.00918 0.55219 0.53151 -0.00900
C 	C 	0.96009 0.51692 0.55587 -0.00700
C 	C 	0.97870 0.48301 0.58304 0.01500
C 	C 	0.89231 0.51516 0.55291 0.01600
C 	C 	0.87431 0.54936 0.52585 -0.04100
C 	C 	0.92314 0.58462 0.50172 -0.04200
C 	C 	0.99055 0.58591 0.50427 0.01700
C 	C 	0.92963 0.44793 0.60722 -0.02400
C 	C 	0.86207 0.44616 0.60437 -0.06200
C 	C 	0.84347 0.47947 0.57711 -0.02400
H 	H 	0.82243 0.54852 0.52341 0.04000
H 	H 	0.90832 0.61043 0.48093 0.04000
H 	H 	0.94385 0.42196 0.62818 0.04100
H 	H 	0.79153 0.47879 0.57511 0.04900
C 	C 	0.96956 0.04942 0.73471 0.02300
C 	C 	0.00643 0.12484 0.72886 -0.04900
C 	C 	0.97124 0.17006 0.72018 -0.03100
C 	C 	0.89867 0.14022 0.71734 -0.00400
C 	C 	0.86159 0.06357 0.72151 0.03500
C 	C 	0.89757 0.01803 0.72902 -0.06600
C 	C 	0.78895 0.03404 0.71953 -0.06100
C 	C 	0.78999 0.15635 0.70832 -0.07500
C 	C 	0.86277 0.18627 0.71094 -0.01500
H 	H 	0.00028 0.22869 0.71667 0.03300
H 	H 	0.86920 0.95947 0.73317 0.04100
H 	H 	0.89136 0.24523 0.70799 0.03300
C 	C 	0.81152 0.59073 0.70330 -0.08000
C 	C 	0.78152 0.64336 0.70103 0.01700
C 	C 	0.82283 0.71885 0.70354 -0.07300
C 	C 	0.89459 0.74240 0.70844 0.04400
C 	C 	0.92510 0.68951 0.71030 -0.00900
C 	C 	0.88327 0.61386 0.70795 -0.00200
C 	C 	0.99670 0.71316 0.71592 -0.02600
C 	C 	0.00402 0.83835 0.72585 0.02700
C 	C 	0.93545 0.81742 0.71447 -0.07600
H 	H 	0.79886 0.75889 0.70226 0.04500
H 	H 	0.90646 0.57306 0.70916 0.03300
H 	H 	0.91161 0.85769 0.71487 0.04800
C 	C 	0.94825 0.39589 0.00859 -0.04400
C 	C 	0.97306 0.41407 0.04136 -0.04500
C 	C 	0.00412 0.48856 0.05187 0.01100
C 	C 	0.98619 0.52692 0.99618 -0.01200
C 	C 	0.95408 0.45197 0.98595 0.01100
C 	C 	0.99217 0.58355 0.97360 0.01200
C 	C 	0.92556 0.43405 0.95371 -0.03100
C 	C 	0.92738 0.49039 0.93196 -0.07600
C 	C 	0.96360 0.56495 0.94140 -0.03200
H 	H 	0.92387 0.33814 0.00092 0.03700
H 	H 	0.96797 0.37018 0.05857 0.03600
H 	H 	0.89841 0.37644 0.94623 0.03600
H 	H 	0.96668 0.60835 0.92420 0.03800
C 	C 	0.96361 0.04111 0.80736 0.03300
C 	C 	0.97352 0.16179 0.82827 -0.02900
C 	C 	0.90138 0.13916 0.82610 -0.00800
C 	C 	0.85998 0.06571 0.81590 0.03900
C 	C 	0.89133 0.01606 0.80815 -0.07100
C 	C 	0.78819 0.04394 0.81218 -0.06500
C 	C 	0.79796 0.16636 0.83057 -0.08100
C 	C 	0.87011 0.18917 0.83350 -0.01000
H 	H 	0.85983 0.95991 0.79991 0.04400
H 	H 	0.90154 0.24499 0.84217 0.04300
C 	C 	0.98515 0.81693 0.79739 0.02900
C 	C 	0.98692 0.70017 0.81623 -0.03000
C 	C 	0.91512 0.66547 0.81056 -0.01000
C 	C 	0.87800 0.70722 0.79860 0.04000
C 	C 	0.91287 0.78341 0.79324 -0.07500
C 	C 	0.80660 0.67214 0.79205 -0.07100
C 	C 	0.77140 0.59751 0.79969 0.01300
C 	C 	0.80703 0.55719 0.81414 -0.08500
C 	C 	0.87955 0.59018 0.81775 -0.01100
H 	H 	0.88453 0.81571 0.78412 0.04800
H 	H 	0.77800 0.70301 0.78177 0.04400
H 	H 	0.90754 0.55880 0.82821 0.04900
