data_crystal

_cell_length_a 18.54730
_cell_length_b 18.82164
_cell_length_c 34.50550
_cell_angle_alpha 95.46140
_cell_angle_beta  95.46191
_cell_angle_gamma 126.41084

_symmetry_space_group_name_	'P 1'
_symmetry_space_group_name_H-M	'P 1'

loop_
_symmetry_equiv_pos_as_xyz
  x,y,z

loop_
_atom_site_label
_atom_site_type_symbol
_atom_site_fract_x
_atom_site_fract_y
_atom_site_fract_z
_atom_site_charge
C 	C 	0.88053 0.96861 0.96057 0.11500
N 	N 	0.97021 0.02054 0.95819 -0.13600
C 	C 	0.01533 0.98448 0.95716 0.11900
N 	N 	0.97111 0.89653 0.95898 -0.14100
C 	C 	0.88142 0.84389 0.96117 0.12000
N 	N 	0.83566 0.87979 0.96193 -0.14100
C 	C 	0.96234 0.05553 0.50232 0.12200
N 	N 	0.05401 0.10664 0.50385 -0.14300
C 	C 	0.09624 0.06735 0.50377 0.12400
N 	N 	0.04707 0.97758 0.50213 -0.14300
C 	C 	0.95588 0.92667 0.50062 0.12200
N 	N 	0.91352 0.96565 0.50106 -0.14400
Cu	Cu	0.73124 0.31489 0.95655 0.92600
Cu	Cu	0.72960 0.26111 0.04427 0.87000
Cu	Cu	0.58337 0.26568 0.00536 0.89500
Cu	Cu	0.55429 0.29505 0.92146 0.89500
C 	C 	0.68457 0.30243 0.87364 0.28700
O 	O 	0.78444 0.44492 0.95320 -0.36600
C 	C 	0.64679 0.31257 0.09279 0.28400
O 	O 	0.58841 0.23746 0.95128 -0.63500
O 	O 	0.71845 0.33363 0.01204 -0.64400
O 	O 	0.79351 0.25735 0.96321 -0.37200
O 	O 	0.69989 0.16821 0.00323 -0.44500
O 	O 	0.60398 0.28454 0.87397 -0.38500
O 	O 	0.45176 0.19229 0.99519 -0.38200
C 	C 	0.40234 0.19407 0.96566 0.30000
C 	C 	0.73722 0.47550 0.95796 0.29300
O 	O 	0.65249 0.42110 0.96247 -0.39100
O 	O 	0.44038 0.25236 0.94180 -0.39500
O 	O 	0.72053 0.28183 0.90098 -0.36700
C 	C 	0.75586 0.18439 0.97883 0.29800
O 	O 	0.57758 0.27406 0.06258 -0.38700
O 	O 	0.72281 0.32425 0.08851 -0.41800
H 	H 	0.55315 0.17221 0.94105 0.16500
H 	H 	0.75295 0.39742 0.02492 0.17100
Cu	Cu	0.63388 0.22811 0.51304 0.92600
Cu	Cu	0.67152 0.21279 0.42268 0.87100
Cu	Cu	0.67619 0.36485 0.45977 0.89700
Cu	Cu	0.65690 0.40477 0.54348 0.89400
C 	C 	0.69572 0.31000 0.59590 0.28500
O 	O 	0.50685 0.18354 0.52077 -0.36300
C 	C 	0.61791 0.29149 0.37290 0.28400
O 	O 	0.71312 0.36751 0.51412 -0.63900
O 	O 	0.60595 0.23228 0.45684 -0.64100
O 	O 	0.68335 0.15921 0.50507 -0.37500
O 	O 	0.76908 0.24235 0.46170 -0.44200
O 	O 	0.65700 0.34962 0.59015 -0.39000
O 	O 	0.75138 0.49437 0.46630 -0.38400
C 	C 	0.75922 0.54844 0.49666 0.29800
C 	C 	0.47371 0.22577 0.51032 0.29200
O 	O 	0.52817 0.30742 0.50341 -0.39400
O 	O 	0.70445 0.51701 0.52262 -0.39500
O 	O 	0.67998 0.24637 0.56818 -0.36300
C 	C 	0.75388 0.19035 0.48753 0.29700
O 	O 	0.65893 0.36242 0.40190 -0.38400
O 	O 	0.60315 0.21627 0.37912 -0.41700
H 	H 	0.77994 0.40334 0.52300 0.16000
H 	H 	0.54025 0.19788 0.44560 0.17300
C 	C 	0.72476 0.36280 0.76968 0.00300
C 	C 	0.76032 0.41091 0.73933 -0.05800
C 	C 	0.76525 0.36748 0.70547 0.01600
C 	C 	0.74233 0.28121 0.70402 -0.00400
C 	C 	0.70785 0.23374 0.73481 -0.05300
C 	C 	0.70271 0.27738 0.76849 0.01400
S 	S 	0.74214 0.40765 0.81658 0.00900
C 	C 	0.72101 0.32122 0.83702 -0.06900
C 	C 	0.69893 0.25296 0.80630 -0.01800
S 	S 	0.71612 0.23375 0.65661 0.02800
C 	C 	0.73754 0.32060 0.63652 -0.07800
C 	C 	0.76286 0.38981 0.66749 -0.02400
H 	H 	0.77922 0.47792 0.74111 0.04400
H 	H 	0.68768 0.16625 0.73296 0.04500
H 	H 	0.67901 0.18787 0.81091 0.04000
H 	H 	0.76594 0.44754 0.66267 0.03500
C 	C 	0.57939 0.25129 0.25870 -0.00100
C 	C 	0.54264 0.21934 0.21806 -0.05800
C 	C 	0.59732 0.27235 0.19208 0.01300
C 	C 	0.68212 0.35527 0.20677 -0.00000
C 	C 	0.71189 0.39311 0.24728 -0.05900
C 	C 	0.65979 0.33798 0.27332 0.01400
S 	S 	0.52448 0.21199 0.29570 0.01000
C 	C 	0.60143 0.30129 0.33196 -0.07300
C 	C 	0.67288 0.36662 0.31454 -0.02700
S 	S 	0.72021 0.40872 0.16944 0.00800
C 	C 	0.63294 0.32810 0.13297 -0.07400
C 	C 	0.56916 0.25633 0.15055 -0.02600
H 	H 	0.47487 0.15695 0.20724 0.04300
H 	H 	0.77195 0.46196 0.25796 0.04300
H 	H 	0.73496 0.42852 0.33143 0.04000
H 	H 	0.50942 0.19250 0.13370 0.03900
C 	C 	0.80156 0.67520 0.46314 -0.02900
C 	C 	0.81568 0.64534 0.49671 -0.10300
C 	C 	0.87706 0.70848 0.53135 0.11600
C 	C 	0.91846 0.79989 0.53260 -0.07300
C 	C 	0.90367 0.82972 0.49923 -0.03300
C 	C 	0.84584 0.76707 0.46387 0.07900
N 	N 	0.83325 0.79457 0.43050 -0.19500
H 	H 	0.75483 0.62666 0.43655 0.04900
H 	H 	0.96454 0.84840 0.55931 0.05300
N 	N 	0.89853 0.68209 0.56298 -0.20100
H 	H 	0.78949 0.74753 0.40474 0.08200
H 	H 	0.86754 0.86252 0.42948 0.08800
H 	H 	0.87661 0.61623 0.56149 0.07300
H 	H 	0.94121 0.72871 0.58900 0.08100
C 	C 	0.81009 0.11064 0.45831 -0.02800
C 	C 	0.80764 0.15637 0.49209 -0.11300
C 	C 	0.86072 0.17359 0.52912 0.12400
C 	C 	0.91263 0.14163 0.53171 -0.07700
C 	C 	0.91454 0.09554 0.49791 -0.03100
C 	C 	0.86434 0.08150 0.46068 0.07500
N 	N 	0.86892 0.04128 0.42707 -0.19400
H 	H 	0.77049 0.09873 0.42989 0.02100
H 	H 	0.95154 0.15260 0.56016 0.05400
N 	N 	0.86367 0.22201 0.56200 -0.20300
H 	H 	0.82943 0.02870 0.39990 0.07700
H 	H 	0.91362 0.02475 0.42729 0.08600
H 	H 	0.83155 0.25238 0.56060 0.09800
H 	H 	0.90096 0.23206 0.58937 0.08700
C 	C 	0.25342 0.15590 0.54168 -0.07400
C 	C 	0.19482 0.12115 0.50480 -0.03300
C 	C 	0.22862 0.12211 0.46964 0.07900
C 	C 	0.31918 0.15295 0.47218 -0.03000
C 	C 	0.37681 0.18445 0.50912 -0.10600
C 	C 	0.34407 0.18699 0.54429 0.11900
N 	N 	0.39892 0.21861 0.58056 -0.20500
H 	H 	0.22725 0.15513 0.56857 0.05300
H 	H 	0.34528 0.15370 0.44527 0.03500
N 	N 	0.17464 0.09394 0.43342 -0.19500
H 	H 	0.37430 0.22106 0.60628 0.08600
H 	H 	0.46594 0.24019 0.58372 0.09600
H 	H 	0.10887 0.07581 0.43053 0.08800
H 	H 	0.19922 0.09242 0.40756 0.08200
C 	C 	0.77621 0.68327 0.92883 -0.07400
C 	C 	0.83459 0.74814 0.96295 -0.03200
C 	C 	0.86227 0.72320 0.99532 0.08100
C 	C 	0.83534 0.63514 0.99195 -0.02400
C 	C 	0.77834 0.57072 0.95753 -0.10500
C 	C 	0.74881 0.59508 0.92551 0.11600
N 	N 	0.69586 0.53478 0.89123 -0.20200
H 	H 	0.75558 0.70255 0.90395 0.05200
H 	H 	0.85605 0.61590 0.01682 0.03200
N 	N 	0.91309 0.78292 0.02993 -0.19700
H 	H 	0.67300 0.55273 0.86801 0.08200
H 	H 	0.67885 0.47051 0.88686 0.07600
H 	H 	0.92759 0.84618 0.03453 0.08700
H 	H 	0.93586 0.76516 0.05327 0.08000
C 	C 	0.79498 0.02066 0.93235 -0.07500
C 	C 	0.83532 0.01121 0.96598 -0.02200
C 	C 	0.84740 0.05711 0.00384 0.07000
C 	C 	0.82360 0.11546 0.00708 -0.03300
C 	C 	0.78542 0.12687 0.97340 -0.10700
C 	C 	0.76869 0.07718 0.93568 0.12200
N 	N 	0.72659 0.08231 0.90274 -0.20300
H 	H 	0.78569 0.98540 0.90335 0.05100
H 	H 	0.83424 0.15169 0.03606 0.02100
N 	N 	0.88186 0.04556 0.03718 -0.19200
H 	H 	0.71648 0.04697 0.87496 0.08700
H 	H 	0.70141 0.11927 0.90439 0.09900
H 	H 	0.89545 0.99901 0.03605 0.08400
H 	H 	0.89308 0.08165 0.06494 0.07700
C 	C 	0.24463 0.07273 0.93103 -0.03100
C 	C 	0.30366 0.14195 0.96375 -0.10500
C 	C 	0.26764 0.16371 0.99299 0.12600
C 	C 	0.17278 0.11245 0.98979 -0.07100
C 	C 	0.11375 0.04222 0.95739 -0.03000
C 	C 	0.14987 0.02392 0.92704 0.08200
N 	N 	0.09421 0.96149 0.89361 -0.19600
H 	H 	0.27263 0.05791 0.90819 0.03500
H 	H 	0.14477 0.12687 0.01277 0.05000
N 	N 	0.32344 0.23433 0.02376 -0.20400
H 	H 	0.12130 0.94613 0.87204 0.08200
H 	H 	0.02437 0.93051 0.88788 0.09100
H 	H 	0.39402 0.27763 0.02571 0.09500
H 	H 	0.29602 0.24821 0.04568 0.08400
