data_crystal

_cell_length_a 48.02184
_cell_length_b 49.98428
_cell_length_c 22.01557
_cell_angle_alpha 89.85713
_cell_angle_beta  90.00002
_cell_angle_gamma 90.00010

_symmetry_space_group_name_	'P 1'
_symmetry_space_group_name_H-M	'P 1'

loop_
_symmetry_equiv_pos_as_xyz
  x,y,z

loop_
_atom_site_label
_atom_site_type_symbol
_atom_site_fract_x
_atom_site_fract_y
_atom_site_fract_z
_atom_site_charge
C 	C 	0.48763 0.55977 0.90685 0.09700
N 	N 	0.47576 0.53700 0.92670 -0.17300
C 	C 	0.45001 0.53633 0.90267 0.09900
C 	C 	0.42792 0.51820 0.92552 -0.07600
C 	C 	0.43511 0.49057 0.94447 0.08900
C 	C 	0.39872 0.52748 0.92849 0.03900
C 	C 	0.39143 0.54877 0.96674 -0.05500
C 	C 	0.36381 0.55754 0.96956 -0.03700
C 	C 	0.34328 0.54498 0.93439 0.01000
C 	C 	0.37823 0.51506 0.89298 -0.05600
N 	N 	0.45987 0.47904 0.93219 -0.12900
C 	C 	0.41979 0.47527 0.98483 -0.06900
C 	C 	0.46007 0.45610 0.96452 0.08300
C 	C 	0.48115 0.43494 0.95543 -0.07400
C 	C 	0.47322 0.40641 0.95953 0.05300
C 	C 	0.44791 0.36821 0.91987 -0.03800
C 	C 	0.48525 0.38996 0.00408 -0.06700
C 	C 	0.47864 0.36274 0.00658 -0.05000
C 	C 	0.46004 0.35171 0.96431 0.02400
N 	N 	0.52338 0.46330 0.96956 -0.17600
C 	C 	0.54860 0.46492 0.94308 0.10100
C 	C 	0.55204 0.44466 0.90093 -0.06200
C 	C 	0.52759 0.42999 0.90179 -0.06200
C 	C 	0.56800 0.48763 0.95131 -0.07700
C 	C 	0.59833 0.48323 0.94532 0.03600
C 	C 	0.64211 0.49264 0.89444 -0.04000
C 	C 	0.65510 0.47229 0.92815 0.01800
C 	C 	0.63969 0.45777 0.97122 -0.04400
C 	C 	0.61146 0.46327 0.97987 -0.03400
N 	N 	0.53661 0.52602 0.93226 -0.13000
C 	C 	0.55700 0.55706 0.99138 -0.01700
C 	C 	0.53677 0.55206 0.94818 0.07300
C 	C 	0.51372 0.57059 0.93285 -0.06700
C 	C 	0.51674 0.59968 0.94338 0.03400
C 	C 	0.53795 0.61410 0.91413 -0.05300
C 	C 	0.54096 0.64153 0.92457 -0.03400
C 	C 	0.52265 0.65481 0.96402 0.00500
C 	C 	0.50128 0.64042 0.99286 -0.02300
C 	C 	0.49839 0.61296 0.98270 -0.04200
C 	C 	0.46944 0.57393 0.87005 -0.06300
C 	C 	0.44528 0.55891 0.86736 -0.06400
C 	C 	0.35060 0.52373 0.89603 -0.03600
C 	C 	0.43565 0.45298 0.99715 -0.04200
C 	C 	0.51056 0.44214 0.94423 0.10100
C 	C 	0.57035 0.53309 0.00148 -0.10800
C 	C 	0.55709 0.51455 0.96496 0.11000
C 	C 	0.61382 0.49807 0.90294 -0.05100
H 	H 	0.48154 0.52707 0.96660 0.09700
H 	H 	0.51385 0.47818 0.99556 0.09500
H 	H 	0.55758 0.65242 0.90227 0.04000
H 	H 	0.48693 0.65051 0.02308 0.02600
H 	H 	0.55213 0.60403 0.88349 0.04500
H 	H 	0.48194 0.60198 0.00541 0.03000
H 	H 	0.35832 0.57392 0.99938 0.04100
H 	H 	0.38372 0.49869 0.86313 0.04500
H 	H 	0.33488 0.51397 0.86862 0.04000
H 	H 	0.40714 0.55847 0.99430 0.04600
H 	H 	0.48792 0.35025 0.04139 0.03900
H 	H 	0.49973 0.39827 0.03673 0.04400
C 	C 	0.45445 0.39546 0.91757 -0.05600
H 	H 	0.43360 0.35988 0.88692 0.04000
H 	H 	0.65387 0.50407 0.86137 0.04000
H 	H 	0.60384 0.51348 0.87596 0.04600
H 	H 	0.59970 0.45182 0.01292 0.03000
H 	H 	0.64953 0.44200 0.99738 0.04600
H 	H 	0.47063 0.59519 0.86095 0.04800
H 	H 	0.42497 0.56683 0.85586 0.04900
H 	H 	0.39775 0.47734 0.99399 0.05100
H 	H 	0.42776 0.43429 0.01520 0.03200
H 	H 	0.56671 0.44508 0.86361 0.05000
H 	H 	0.52045 0.41721 0.86534 0.05000
H 	H 	0.56467 0.57657 0.00451 0.02500
H 	H 	0.59099 0.53093 0.02067 0.05300
H 	H 	0.44517 0.40800 0.88283 0.04700
Co	Co	0.39745 0.10876 0.02316 1.17700
Co	Co	0.40242 0.04599 0.04259 1.08900
O 	O 	0.39168 0.14891 0.01795 -0.39300
O 	O 	0.43134 0.13757 0.98259 -0.32100
O 	O 	0.36219 0.09501 0.05726 -0.42200
O 	O 	0.42360 0.06000 0.97185 -0.47900
C 	C 	0.34909 0.07463 0.03253 0.31700
C 	C 	0.41432 0.15701 0.99282 0.31400
O 	O 	0.36324 0.05411 0.01166 -0.45100
O 	O 	0.39471 0.09355 0.94290 -0.43100
C 	C 	0.41072 0.07328 0.92869 0.31900
O 	O 	0.42080 0.10551 0.09434 -0.43000
O 	O 	0.40103 0.06575 0.12037 -0.46400
C 	C 	0.41856 0.08521 0.13208 0.31000
C 	C 	0.48209 0.01231 0.56308 0.01100
C 	C 	0.49981 0.98955 0.56081 0.01000
C 	C 	0.48596 0.03344 0.52174 -0.05500
C 	C 	0.50624 0.03146 0.47584 0.01100
C 	C 	0.52058 0.98789 0.51604 -0.05500
C 	C 	0.52344 0.00838 0.47260 0.01000
H 	H 	0.53407 0.97054 0.51431 0.05000
H 	H 	0.47293 0.05108 0.52448 0.04900
C 	C 	0.54311 0.00644 0.42520 -0.01300
C 	C 	0.54466 0.02580 0.37903 0.00700
C 	C 	0.55717 0.01593 0.32477 -0.04900
C 	C 	0.56412 0.98873 0.32799 0.00400
S 	S 	0.55494 0.97771 0.39662 -0.00800
H 	H 	0.55953 0.02764 0.28378 0.04300
C 	C 	0.50919 0.05167 0.43124 -0.01300
C 	C 	0.52691 0.04817 0.38102 0.00900
C 	C 	0.51784 0.06238 0.32826 -0.05100
C 	C 	0.49296 0.07652 0.33696 0.00400
S 	S 	0.48320 0.07141 0.40862 -0.00700
H 	H 	0.52633 0.05899 0.28346 0.04200
C 	C 	0.45628 0.99182 0.64751 0.00700
C 	C 	0.45988 0.01248 0.60507 -0.01400
S 	S 	0.44479 0.03987 0.63304 -0.00400
C 	C 	0.43165 0.02642 0.69633 0.00500
C 	C 	0.44005 0.99962 0.69862 -0.05300
C 	C 	0.49517 0.96829 0.60196 -0.01400
C 	C 	0.47443 0.96979 0.64677 0.00700
C 	C 	0.47995 0.95315 0.69806 -0.05600
C 	C 	0.50493 0.93888 0.69308 0.00800
S 	S 	0.51990 0.94775 0.62768 -0.00800
H 	H 	0.46848 0.95432 0.74023 0.03800
H 	H 	0.43708 0.98724 0.73845 0.03900
Co	Co	0.58776 0.89373 0.01603 1.17400
Co	Co	0.52372 0.90631 0.03365 1.08900
O 	O 	0.62769 0.88241 0.99993 -0.37400
O 	O 	0.62154 0.92368 0.98022 -0.32200
O 	O 	0.56928 0.86142 0.04824 -0.42600
O 	O 	0.54337 0.90186 0.11245 -0.46400
C 	C 	0.54668 0.85166 0.02277 0.31900
C 	C 	0.63909 0.90416 0.98092 0.29800
O 	O 	0.52714 0.86789 0.00271 -0.44800
O 	O 	0.58715 0.91563 0.08828 -0.44300
C 	C 	0.56573 0.91585 0.12525 0.31300
O 	O 	0.57169 0.89389 0.93591 -0.42900
O 	O 	0.54120 0.92596 0.96532 -0.48100
C 	C 	0.55392 0.91281 0.92191 0.31800
Co	Co	0.09373 0.61656 0.89938 1.18000
Co	Co	0.03035 0.60640 0.87751 1.09400
O 	O 	0.13442 0.62292 0.92100 -0.37900
O 	O 	0.12405 0.58146 0.92313 -0.32800
O 	O 	0.07700 0.65184 0.88198 -0.41900
O 	O 	0.04942 0.61709 0.80108 -0.46400
C 	C 	0.05368 0.65944 0.90847 0.31400
C 	C 	0.14328 0.59903 0.93146 0.30200
O 	O 	0.03454 0.64170 0.92304 -0.43900
O 	O 	0.09278 0.60099 0.81919 -0.44200
C 	C 	0.07174 0.60447 0.78214 0.31200
O 	O 	0.07755 0.61113 0.97812 -0.43600
O 	O 	0.04690 0.58165 0.93820 -0.48300
C 	C 	0.06022 0.59122 0.98550 0.33600
C 	C 	0.03179 0.49460 0.45135 0.01100
C 	C 	0.00838 0.47722 0.45616 0.01000
C 	C 	0.04158 0.50239 0.39384 -0.05500
C 	C 	0.02893 0.49228 0.34114 0.01000
C 	C 	0.99465 0.46846 0.40351 -0.05500
C 	C 	0.00536 0.47508 0.34604 0.00900
H 	H 	0.97584 0.45661 0.40721 0.04900
H 	H 	0.06013 0.51463 0.39018 0.05000
C 	C 	0.99322 0.46515 0.29218 -0.01300
C 	C 	0.00583 0.46902 0.23564 0.00500
C 	C 	0.99718 0.45036 0.19116 -0.05500
C 	C 	0.97803 0.43164 0.21343 0.00900
S 	S 	0.97212 0.43871 0.28666 -0.01500
H 	H 	0.00428 0.45071 0.14447 0.04000
C 	C 	0.04106 0.49624 0.28332 -0.01500
C 	C 	0.02984 0.48455 0.23099 0.00800
C 	C 	0.03819 0.49749 0.17656 -0.05800
C 	C 	0.05572 0.51939 0.18686 0.00800
S 	S 	0.05947 0.52296 0.26190 -0.00700
H 	H 	0.02826 0.49392 0.13315 0.03900
C 	C 	0.03893 0.49101 0.56168 0.00700
C 	C 	0.04678 0.50101 0.50462 -0.01300
S 	S 	0.06462 0.52920 0.51579 -0.00500
C 	C 	0.06501 0.52856 0.59168 0.00500
C 	C 	0.04963 0.50625 0.61070 -0.05200
C 	C 	0.99946 0.46933 0.51459 -0.01400
C 	C 	0.01503 0.47525 0.56637 0.00800
C 	C 	0.00858 0.45872 0.61685 -0.05500
C 	C 	0.98814 0.43959 0.60377 0.00600
S 	S 	0.97861 0.44363 0.53111 -0.00400
H 	H 	0.01776 0.46113 0.66142 0.04100
H 	H 	0.04295 0.50348 0.65727 0.04000
Co	Co	0.89825 0.37775 0.90091 1.18100
Co	Co	0.90779 0.44001 0.91388 1.09400
O 	O 	0.89245 0.33825 0.88285 -0.37700
O 	O 	0.93550 0.34832 0.88663 -0.33000
O 	O 	0.86083 0.39306 0.91350 -0.41400
O 	O 	0.89638 0.42342 0.99198 -0.44600
C 	C 	0.85311 0.41578 0.88818 0.31600
C 	C 	0.91757 0.32958 0.87755 0.30100
O 	O 	0.87187 0.43259 0.86706 -0.44100
O 	O 	0.91193 0.38059 0.98327 -0.41600
C 	C 	0.90973 0.40279 0.01467 0.28400
O 	O 	0.90579 0.39169 0.82088 -0.43500
O 	O 	0.93527 0.42251 0.85998 -0.48300
C 	C 	0.92670 0.40821 0.81380 0.32000
C 	C 	0.98444 0.94149 0.09332 0.10100
N 	N 	0.97103 0.96414 0.07770 -0.17400
C 	C 	0.94467 0.96153 0.09782 0.10200
C 	C 	0.92151 0.97829 0.07480 -0.08600
C 	C 	0.92544 0.00739 0.06645 0.09400
C 	C 	0.89371 0.96650 0.06466 0.05900
C 	C 	0.88836 0.95183 0.01175 -0.10300
C 	C 	0.86131 0.94311 0.99897 0.01100
C 	C 	0.83947 0.94883 0.03936 -0.01900
C 	C 	0.87207 0.97167 0.10571 -0.06900
N 	N 	0.94689 0.02095 0.09114 -0.13000
C 	C 	0.91262 0.02217 0.02124 -0.07600
C 	C 	0.94730 0.04476 0.06224 0.08900
C 	C 	0.97122 0.06333 0.06545 -0.07200
C 	C 	0.96845 0.09073 0.04119 0.01700
C 	C 	0.94754 0.13481 0.04640 -0.06100
C 	C 	0.98142 0.09772 0.98636 -0.03000
C 	C 	0.97706 0.12304 0.96099 -0.05000
C 	C 	0.95992 0.14164 0.99069 0.03400
N 	N 	0.01088 0.03237 0.08025 -0.17200
C 	C 	0.03731 0.03523 0.09971 0.10000
C 	C 	0.04075 0.05980 0.12773 -0.06500
C 	C 	0.01519 0.07243 0.12500 -0.06300
C 	C 	0.06050 0.01847 0.07680 -0.08000
C 	C 	0.08909 0.02925 0.07363 0.04400
C 	C 	0.13714 0.02800 0.10739 -0.03800
C 	C 	0.14464 0.04563 0.06048 0.01300
C 	C 	0.12407 0.05570 0.02129 -0.04800
C 	C 	0.09637 0.04753 0.02787 -0.06800
N 	N 	0.03567 0.97536 0.09033 -0.13000
C 	C 	0.05189 0.95330 0.00842 -0.07600
C 	C 	0.03369 0.95287 0.05704 0.09300
C 	C 	0.01099 0.93323 0.06466 -0.08500
C 	C 	0.01593 0.90488 0.04887 0.05700
C 	C 	0.03866 0.89115 0.07409 -0.06700
C 	C 	0.04372 0.86455 0.05839 -0.02500
C 	C 	0.02593 0.85132 0.01778 -0.01300
C 	C 	0.00321 0.86506 0.99245 0.00700
C 	C 	0.99831 0.89179 0.00773 -0.10000
C 	C 	0.96662 0.92425 0.12376 -0.06500
C 	C 	0.94116 0.93706 0.12655 -0.06500
C 	C 	0.84509 0.96276 0.09330 -0.02100
C 	C 	0.92665 0.04615 0.01850 -0.07200
C 	C 	0.99735 0.05495 0.09553 0.09800
C 	C 	0.06608 0.97716 0.01241 -0.07400
C 	C 	0.05578 0.98995 0.06329 0.09200
C 	C 	0.10950 0.01980 0.11384 -0.05500
H 	H 	0.97697 0.97657 0.04172 0.09000
H 	H 	0.00492 0.01985 0.04458 0.09000
H 	H 	0.06140 0.85416 0.07793 0.03500
H 	H 	0.98926 0.85499 0.96132 0.03100
H 	H 	0.05238 0.90110 0.10592 0.04900
H 	H 	0.98081 0.90229 0.98775 0.06300
H 	H 	0.85723 0.93237 0.95723 0.03100
H 	H 	0.87609 0.98292 0.14679 0.05000
H 	H 	0.82848 0.96695 0.12520 0.03500
H 	H 	0.90500 0.94777 0.97985 0.06300
H 	H 	0.98670 0.12809 0.91798 0.04300
H 	H 	0.99441 0.08336 0.96287 0.04100
C 	C 	0.95167 0.10941 0.07133 -0.04100
H 	H 	0.93461 0.14914 0.07013 0.04300
H 	H 	0.15283 0.02033 0.13823 0.03900
H 	H 	0.10400 0.00577 0.14947 0.04700
H 	H 	0.08070 0.05493 0.99667 0.05500
H 	H 	0.12964 0.06937 0.98501 0.05100
H 	H 	0.96944 0.90282 0.12752 0.04700
H 	H 	0.92140 0.92695 0.13248 0.04700
H 	H 	0.90075 0.01374 0.98412 0.06000
H 	H 	0.92722 0.05903 0.97890 0.05800
H 	H 	0.06044 0.07008 0.13298 0.04700
H 	H 	0.01235 0.09388 0.12752 0.04700
H 	H 	0.04931 0.94190 0.96706 0.05900
H 	H 	0.07606 0.98712 0.97450 0.05900
H 	H 	0.94169 0.10415 0.11385 0.04200
C 	C 	0.94387 0.21939 0.91980 0.05100
N 	N 	0.92258 0.20214 0.93202 -0.11400
C 	C 	0.92739 0.17692 0.95290 0.02600
C 	C 	0.95471 0.16816 0.96332 -0.02200
C 	C 	0.97691 0.18526 0.94958 -0.01600
C 	C 	0.97155 0.21088 0.92735 -0.05400
H 	H 	0.90996 0.16380 0.96223 0.03300
H 	H 	0.99820 0.17890 0.95709 0.03600
H 	H 	0.98874 0.22413 0.91689 0.05100
C 	C 	0.92473 0.30102 0.88330 -0.10900
C 	C 	0.90507 0.28129 0.86950 0.03400
C 	C 	0.91154 0.25442 0.87907 -0.07700
C 	C 	0.93768 0.24744 0.90296 0.06500
N 	N 	0.95686 0.26694 0.91419 -0.12400
C 	C 	0.95109 0.29324 0.90442 0.06800
H 	H 	0.88477 0.28674 0.85190 0.03400
H 	H 	0.89626 0.23917 0.86861 0.05800
H 	H 	0.96680 0.30812 0.91440 0.03100
C 	C 	0.96937 0.42886 0.65066 0.00900
C 	C 	0.94546 0.44321 0.66840 0.03300
C 	C 	0.93008 0.43469 0.71915 -0.01400
C 	C 	0.93891 0.41261 0.75342 -0.12000
C 	C 	0.96206 0.39743 0.73361 0.10700
C 	C 	0.97710 0.40574 0.68244 -0.09100
H 	H 	0.91201 0.44603 0.73351 0.02500
H 	H 	0.99529 0.39451 0.66834 0.05900
N 	N 	0.93705 0.46671 0.63523 -0.13500
N 	N 	0.97055 0.37351 0.76514 -0.14700
C 	C 	0.94463 0.49106 0.66808 -0.08700
H 	H 	0.93285 0.49259 0.71141 0.03100
H 	H 	0.93949 0.50874 0.63961 0.04100
H 	H 	0.96735 0.49151 0.67762 0.04400
C 	C 	0.95461 0.35036 0.74420 -0.09000
H 	H 	0.93198 0.35314 0.75264 0.06200
H 	H 	0.96165 0.33223 0.76905 0.05600
H 	H 	0.95821 0.34701 0.69491 0.05200
H 	H 	0.91558 0.46630 0.62702 0.07400
H 	H 	0.96948 0.37561 0.81231 0.09100
C 	C 	0.92380 0.40504 0.07409 -0.11200
C 	C 	0.91355 0.42246 0.11916 0.09400
C 	C 	0.93060 0.42938 0.16855 -0.09300
C 	C 	0.95749 0.41863 0.17374 0.00300
C 	C 	0.96624 0.39874 0.13293 0.03500
C 	C 	0.94935 0.39201 0.08323 -0.02500
H 	H 	0.92342 0.44409 0.20106 0.05100
H 	H 	0.95686 0.37772 0.05010 0.04100
N 	N 	0.88581 0.43319 0.11456 -0.14000
N 	N 	0.99302 0.38625 0.14058 -0.13500
C 	C 	0.86646 0.41763 0.15185 -0.09000
H 	H 	0.86630 0.39634 0.13726 0.05500
H 	H 	0.84509 0.42572 0.14601 0.04700
H 	H 	0.87213 0.41891 0.20075 0.04500
C 	C 	0.99002 0.36019 0.17021 -0.09200
H 	H 	0.97991 0.36244 0.21537 0.05300
H 	H 	0.01096 0.35131 0.17740 0.04800
H 	H 	0.97762 0.34629 0.14153 0.04800
H 	H 	0.88548 0.45333 0.12749 0.06600
H 	H 	0.00309 0.38417 0.09869 0.07100
C 	C 	0.04263 0.74107 0.95802 0.05700
N 	N 	0.06246 0.73398 0.91680 -0.11600
C 	C 	0.06635 0.70798 0.90036 0.06900
C 	C 	0.04964 0.68775 0.92561 -0.11100
C 	C 	0.02890 0.69478 0.96742 0.02800
C 	C 	0.02521 0.72147 0.98328 -0.06400
H 	H 	0.08228 0.70311 0.86740 0.03300
H 	H 	0.01571 0.67963 0.98774 0.02900
H 	H 	0.00883 0.72693 0.01472 0.03400
C 	C 	0.03063 0.82288 0.00326 -0.02800
C 	C 	0.03130 0.80370 0.04964 -0.01200
C 	C 	0.03579 0.77693 0.03534 -0.08000
C 	C 	0.03907 0.76941 0.97437 0.07000
N 	N 	0.03887 0.78843 0.92991 -0.11300
C 	C 	0.03474 0.81475 0.94299 0.03600
H 	H 	0.02830 0.80953 0.09655 0.03100
H 	H 	0.03671 0.76212 0.07129 0.04600
H 	H 	0.03471 0.82936 0.90659 0.03000
C 	C 	0.07156 0.59106 0.72187 -0.12200
C 	C 	0.09612 0.57960 0.69687 0.10900
C 	C 	0.09377 0.56019 0.65125 -0.09200
C 	C 	0.06761 0.55285 0.62879 0.00900
C 	C 	0.04379 0.56721 0.64670 0.03200
C 	C 	0.04595 0.58653 0.69267 -0.02000
H 	H 	0.11234 0.55053 0.63391 0.05800
H 	H 	0.02749 0.59720 0.70715 0.02500
N 	N 	0.12341 0.58942 0.71283 -0.14400
N 	N 	0.01774 0.56312 0.61566 -0.13500
C 	C 	0.13829 0.57068 0.75253 -0.09000
H 	H 	0.12480 0.56305 0.78977 0.06500
H 	H 	0.15656 0.58084 0.77309 0.05600
H 	H 	0.14602 0.55348 0.72552 0.05100
C 	C 	0.99679 0.55109 0.65561 -0.08700
H 	H 	0.00520 0.53324 0.67951 0.04000
H 	H 	0.97878 0.54456 0.62778 0.04300
H 	H 	0.98927 0.56584 0.68956 0.02700
H 	H 	0.12317 0.60888 0.73016 0.09200
H 	H 	0.01045 0.58128 0.59805 0.07500
C 	C 	0.05831 0.54169 0.14362 0.00700
C 	C 	0.08346 0.54573 0.11223 0.03500
C 	C 	0.08423 0.56329 0.06240 -0.00900
C 	C 	0.05998 0.57640 0.04316 -0.12900
C 	C 	0.03528 0.57400 0.07779 0.10200
C 	C 	0.03463 0.55658 0.12766 -0.09100
H 	H 	0.10347 0.56589 0.03732 0.04100
H 	H 	0.01543 0.55400 0.15291 0.05500
N 	N 	0.10812 0.53137 0.13015 -0.13500
N 	N 	0.01080 0.58937 0.06311 -0.14800
C 	C 	0.11288 0.50845 0.09023 -0.09100
H 	H 	0.09458 0.49481 0.09068 0.05000
H 	H 	0.13120 0.49704 0.10682 0.04700
H 	H 	0.11715 0.51517 0.04293 0.04600
C 	C 	0.01335 0.61695 0.08459 -0.09600
H 	H 	0.01720 0.61731 0.13439 0.05100
H 	H 	0.99359 0.62776 0.07556 0.03900
H 	H 	0.03044 0.62762 0.06060 0.05200
H 	H 	0.12543 0.54409 0.12970 0.07700
H 	H 	0.00621 0.58878 0.01670 0.04900
C 	C 	0.72609 0.91925 0.99403 0.09100
N 	N 	0.70934 0.93534 0.95980 -0.11800
C 	C 	0.68156 0.93048 0.95413 0.06700
C 	C 	0.66940 0.90863 0.98417 -0.09600
C 	C 	0.68630 0.89176 0.01922 0.02300
C 	C 	0.71465 0.89717 0.02465 -0.10000
H 	H 	0.66889 0.94370 0.92657 0.02800
H 	H 	0.67741 0.87492 0.04344 0.03100
H 	H 	0.72748 0.88473 0.05368 0.05100
C 	C 	0.81063 0.94092 0.02448 -0.00900
C 	C 	0.80400 0.91407 0.01377 -0.02100
C 	C 	0.77646 0.90684 0.00226 -0.07000
C 	C 	0.75559 0.92653 0.00272 0.03700
N 	N 	0.76260 0.95266 0.01147 -0.10900
C 	C 	0.78939 0.96017 0.02216 0.01700
H 	H 	0.82007 0.89887 0.01492 0.03000
H 	H 	0.77136 0.88612 0.99323 0.05600
H 	H 	0.79419 0.98111 0.02919 0.03100
C 	C 	0.52110 0.93067 0.74671 0.00600
C 	C 	0.51734 0.90507 0.77212 0.03500
C 	C 	0.53022 0.89860 0.82754 -0.01700
C 	C 	0.54626 0.91769 0.85823 -0.12000
C 	C 	0.55163 0.94273 0.83047 0.10500
C 	C 	0.53870 0.94915 0.77533 -0.09100
H 	H 	0.52668 0.87913 0.84795 0.03800
H 	H 	0.54201 0.96871 0.75521 0.05800
N 	N 	0.50019 0.88568 0.74162 -0.13500
N 	N 	0.57085 0.96149 0.85698 -0.14800
C 	C 	0.47285 0.88367 0.77059 -0.09000
H 	H 	0.47474 0.87578 0.81769 0.04000
H 	H 	0.45958 0.86974 0.74412 0.04700
H 	H 	0.46236 0.90349 0.77136 0.04500
C 	C 	0.59965 0.95406 0.84335 -0.09300
H 	H 	0.60466 0.93391 0.86178 0.06400
H 	H 	0.61398 0.96880 0.86440 0.05600
H 	H 	0.60323 0.95430 0.79346 0.05400
H 	H 	0.51001 0.86698 0.74135 0.07800
H 	H 	0.56778 0.96365 0.90373 0.08600
C 	C 	0.56557 0.93408 0.17786 -0.12700
C 	C 	0.58796 0.93478 0.21986 0.11200
C 	C 	0.58726 0.95304 0.26815 -0.09300
C 	C 	0.56504 0.97101 0.27442 0.01100
C 	C 	0.54290 0.97048 0.23226 0.02900
C 	C 	0.54300 0.95155 0.18528 -0.01000
H 	H 	0.60405 0.95312 0.30108 0.05900
H 	H 	0.52568 0.95084 0.15373 -0.00100
N 	N 	0.61092 0.91628 0.21564 -0.14600
N 	N 	0.51994 0.98883 0.23809 -0.13400
C 	C 	0.63485 0.92853 0.18516 -0.09100
H 	H 	0.62899 0.93708 0.14032 0.06400
H 	H 	0.65123 0.91318 0.17791 0.05100
H 	H 	0.64378 0.94459 0.21403 0.05100
C 	C 	0.52004 0.00854 0.18871 -0.08900
H 	H 	0.54105 0.01754 0.18277 0.04400
H 	H 	0.50535 0.02494 0.19978 0.04000
H 	H 	0.51330 0.99923 0.14534 0.02600
H 	H 	0.60542 0.89806 0.19569 0.08700
H 	H 	0.50109 0.97834 0.23874 0.06600
C 	C 	0.26067 0.06919 0.03471 0.05500
N 	N 	0.27581 0.05729 0.98993 -0.11400
C 	C 	0.30405 0.05943 0.98765 0.08600
C 	C 	0.31839 0.07385 0.03240 -0.13500
C 	C 	0.30318 0.08663 0.07820 0.04000
C 	C 	0.27426 0.08420 0.07963 -0.08500
H 	H 	0.31535 0.04972 0.95131 0.02100
H 	H 	0.31374 0.09774 0.11354 0.03100
H 	H 	0.26259 0.09321 0.11639 0.05000
C 	C 	0.17418 0.05247 0.05067 -0.02000
C 	C 	0.18343 0.07884 0.05733 -0.02000
C 	C 	0.21171 0.08464 0.05122 -0.06100
C 	C 	0.23057 0.06386 0.03906 0.05100
N 	N 	0.22100 0.03845 0.03098 -0.11200
C 	C 	0.19350 0.03240 0.03656 0.02100
H 	H 	0.16884 0.09470 0.06786 0.03200
H 	H 	0.21893 0.10506 0.05600 0.04300
H 	H 	0.18665 0.01194 0.03046 0.02900
C 	C 	0.42633 0.04216 0.75145 0.00800
C 	C 	0.44855 0.05100 0.78798 0.03400
C 	C 	0.44299 0.06340 0.84384 -0.01300
C 	C 	0.41551 0.06615 0.86457 -0.11900
C 	C 	0.39315 0.05833 0.82638 0.10200
C 	C 	0.39883 0.04644 0.77018 -0.09100
H 	H 	0.46013 0.06997 0.87216 0.03900
H 	H 	0.38174 0.03985 0.74173 0.05700
N 	N 	0.47687 0.04737 0.76804 -0.13400
N 	N 	0.36457 0.06164 0.84483 -0.14700
C 	C 	0.49045 0.02562 0.80142 -0.09000
H 	H 	0.49358 0.03116 0.84982 0.04200
H 	H 	0.51112 0.02160 0.78081 0.04900
H 	H 	0.47801 0.00691 0.79879 0.04700
C 	C 	0.35385 0.08785 0.82663 -0.09000
H 	H 	0.36686 0.10430 0.84517 0.06500
H 	H 	0.33229 0.09026 0.84404 0.05400
H 	H 	0.35320 0.08942 0.77629 0.05200
H 	H 	0.48811 0.06517 0.77306 0.07800
H 	H 	0.36150 0.05797 0.89106 0.08800
C 	C 	0.47230 0.07916 0.28791 0.01000
C 	C 	0.45801 0.05651 0.26628 0.03000
C 	C 	0.44065 0.05879 0.21533 -0.01900
C 	C 	0.43630 0.08374 0.18728 -0.11800
C 	C 	0.44937 0.10678 0.21146 0.10700
C 	C 	0.46745 0.10423 0.26146 -0.09600
H 	H 	0.43069 0.04103 0.19740 0.01500
H 	H 	0.47770 0.12180 0.27960 0.05400
N 	N 	0.46153 0.03098 0.29580 -0.13200
N 	N 	0.44323 0.13289 0.18716 -0.13600
C 	C 	0.43725 0.02442 0.33312 -0.09200
H 	H 	0.43253 0.04083 0.36551 0.05400
H 	H 	0.44175 0.00609 0.35994 0.04800
H 	H 	0.41873 0.02057 0.30412 0.04100
C 	C 	0.46660 0.14313 0.15127 -0.08800
H 	H 	0.48485 0.14737 0.18080 0.04300
H 	H 	0.46024 0.16203 0.12861 0.05500
H 	H 	0.47262 0.12863 0.11537 0.05800
H 	H 	0.46482 0.01595 0.26361 0.06600
H 	H 	0.43837 0.14618 0.22227 0.07800
C 	C 	0.44116 0.26855 0.97446 0.04900
N 	N 	0.46787 0.27708 0.96601 -0.11300
C 	C 	0.47422 0.30358 0.96196 0.02400
C 	C 	0.45316 0.32291 0.96683 -0.01800
C 	C 	0.42561 0.31458 0.97514 -0.01800
C 	C 	0.41953 0.28736 0.97880 -0.05200
H 	H 	0.49564 0.30964 0.95506 0.03300
H 	H 	0.40901 0.32915 0.97917 0.03700
H 	H 	0.39817 0.28091 0.98484 0.05300
C 	C 	0.42247 0.18545 0.98994 -0.09600
C 	C 	0.44507 0.19360 0.95419 0.03000
C 	C 	0.45147 0.22075 0.94920 -0.07700
C 	C 	0.43519 0.23963 0.98025 0.07400
N 	N 	0.41359 0.23124 0.01567 -0.13100
C 	C 	0.40695 0.20487 0.02100 0.05200
H 	H 	0.45732 0.17903 0.92951 0.03400
H 	H 	0.46861 0.22709 0.92061 0.05800
H 	H 	0.38952 0.19903 0.04928 0.03300
C 	C 	0.25865 0.56972 0.94107 0.05000
N 	N 	0.27854 0.58592 0.91640 -0.11400
C 	C 	0.30582 0.57851 0.91486 0.02200
C 	C 	0.31405 0.55369 0.93857 -0.01600
C 	C 	0.29405 0.53695 0.96486 -0.02000
C 	C 	0.26627 0.54497 0.96632 -0.05300
H 	H 	0.32106 0.59174 0.89447 0.03100
H 	H 	0.30000 0.51777 0.98383 0.03600
H 	H 	0.25077 0.53203 0.98676 0.05100
C 	C 	0.17312 0.59202 0.93346 -0.11000
C 	C 	0.19340 0.61188 0.94088 0.03300
C 	C 	0.22147 0.60476 0.94346 -0.07700
C 	C 	0.22907 0.57773 0.93869 0.06500
N 	N 	0.20901 0.55872 0.93142 -0.12400
C 	C 	0.18153 0.56521 0.92891 0.06600
H 	H 	0.18748 0.63270 0.94504 0.03600
H 	H 	0.23716 0.62007 0.94977 0.05800
H 	H 	0.16623 0.54950 0.92329 0.02900
C 	C 	0.73970 0.45025 0.90104 0.05100
N 	N 	0.73080 0.45936 0.95600 -0.11100
C 	C 	0.70399 0.46723 0.96496 0.03900
C 	C 	0.68464 0.46573 0.91741 -0.02400
C 	C 	0.69340 0.45659 0.86049 -0.01600
C 	C 	0.72100 0.44878 0.85218 -0.06000
H 	H 	0.69761 0.47434 0.00925 0.01600
H 	H 	0.67875 0.45502 0.82324 0.03300
H 	H 	0.72768 0.44107 0.80860 0.04400
C 	C 	0.82348 0.42346 0.88823 -0.11700
C 	C 	0.81296 0.44079 0.84370 0.03400
C 	C 	0.78536 0.44931 0.84689 -0.08500
C 	C 	0.76839 0.44034 0.89466 0.06600
N 	N 	0.77895 0.42340 0.93739 -0.11800
C 	C 	0.80578 0.41472 0.93496 0.07100
H 	H 	0.82617 0.44778 0.80705 0.02500
H 	H 	0.77734 0.46314 0.81320 0.04800
H 	H 	0.81354 0.40156 0.97024 0.03400
C 	C 	0.53292 0.73830 0.99493 0.07900
N 	N 	0.52801 0.72877 0.93796 -0.11100
C 	C 	0.52462 0.70215 0.92731 0.01900
C 	C 	0.52596 0.68375 0.97543 -0.00100
C 	C 	0.53056 0.69317 0.03441 -0.03100
C 	C 	0.53385 0.72052 0.04437 -0.07700
H 	H 	0.52076 0.69527 0.88146 0.03300
H 	H 	0.53161 0.67934 0.07232 0.03300
H 	H 	0.53690 0.72787 0.09013 0.04600
C 	C 	0.54308 0.82234 0.01730 -0.13100
C 	C 	0.56104 0.80476 0.04785 0.03600
C 	C 	0.55778 0.77722 0.04106 -0.07800
C 	C 	0.53627 0.76733 0.00425 0.03800
N 	N 	0.51914 0.78469 0.97451 -0.11200
C 	C 	0.52199 0.81167 0.98033 0.08500
H 	H 	0.57755 0.81236 0.07654 0.03100
H 	H 	0.57207 0.76367 0.06355 0.04600
H 	H 	0.50806 0.82480 0.95564 0.02300
