data_crystal

_cell_length_a 21.79309
_cell_length_b 19.70843
_cell_length_c 44.74032
_cell_angle_alpha 89.88152
_cell_angle_beta  89.88392
_cell_angle_gamma 119.74297

_symmetry_space_group_name_	'P 1'
_symmetry_space_group_name_H-M	'P 1'

loop_
_symmetry_equiv_pos_as_xyz
  x,y,z

loop_
_atom_site_label
_atom_site_type_symbol
_atom_site_fract_x
_atom_site_fract_y
_atom_site_fract_z
_atom_site_charge
C 	C 	0.86861 0.48347 0.89113 0.31800
C 	C 	0.56681 0.38668 0.86478 0.27900
C 	C 	0.75232 0.55295 0.92195 0.27700
C 	C 	0.68657 0.31892 0.83000 0.25900
C 	C 	0.59975 0.31799 0.95365 0.33300
C 	C 	0.69468 0.22394 0.92276 0.31300
Ni	Ni	0.72555 0.46061 0.86703 1.11500
Ni	Ni	0.61595 0.28514 0.89042 1.12100
Ni	Ni	0.74526 0.39854 0.93164 1.13000
O 	O 	0.83417 0.51542 0.87764 -0.36600
O 	O 	0.83727 0.42593 0.91107 -0.35000
O 	O 	0.58530 0.26306 0.93373 -0.38100
O 	O 	0.62564 0.42645 0.84949 -0.34300
O 	O 	0.56537 0.34763 0.88870 -0.37600
O 	O 	0.72232 0.28618 0.94087 -0.33900
O 	O 	0.70700 0.52080 0.90028 -0.35200
O 	O 	0.78418 0.51682 0.93325 -0.35100
O 	O 	0.66682 0.22500 0.89655 -0.37900
O 	O 	0.73223 0.39475 0.83253 -0.35500
O 	O 	0.62529 0.28560 0.84474 -0.35200
O 	O 	0.65849 0.38545 0.95222 -0.37300
O 	O 	0.70577 0.37654 0.89269 -0.71900
H 	H 	0.73521 0.35729 0.88339 0.17000
C 	C 	0.87261 0.48373 0.59179 0.31300
C 	C 	0.59560 0.24575 0.55405 0.33000
C 	C 	0.70661 0.49846 0.56609 0.32800
C 	C 	0.74269 0.22122 0.58269 0.25600
C 	C 	0.58549 0.35077 0.64043 0.28300
C 	C 	0.73760 0.34794 0.67165 0.26400
Ni	Ni	0.74013 0.36926 0.56074 1.12900
Ni	Ni	0.64787 0.26110 0.61691 1.12100
Ni	Ni	0.73780 0.44752 0.62377 1.12400
O 	O 	0.84660 0.42976 0.57066 -0.34200
O 	O 	0.83442 0.51314 0.60341 -0.35300
O 	O 	0.57857 0.29927 0.62030 -0.36000
O 	O 	0.63357 0.32113 0.55364 -0.35200
O 	O 	0.59874 0.20730 0.57761 -0.36700
O 	O 	0.77861 0.40813 0.65445 -0.37700
O 	O 	0.75042 0.47893 0.55391 -0.34400
O 	O 	0.68935 0.48410 0.59445 -0.35900
O 	O 	0.67943 0.28557 0.66100 -0.35800
O 	O 	0.73501 0.25917 0.55944 -0.32800
O 	O 	0.71183 0.21605 0.60896 -0.36300
O 	O 	0.64872 0.40544 0.64924 -0.36000
O 	O 	0.72223 0.35791 0.60177 -0.71400
H 	H 	0.76292 0.35280 0.60818 0.16300
C 	C 	0.92080 0.00394 0.68251 0.22400
C 	C 	0.93998 0.92201 0.80670 0.28200
C 	C 	0.93301 0.10261 0.75900 0.30900
C 	C 	0.92077 0.79887 0.73769 0.26200
C 	C 	0.14241 0.10876 0.77491 0.28100
C 	C 	0.14228 0.03848 0.70677 0.22200
Ni	Ni	0.89529 0.93903 0.74508 1.12100
Ni	Ni	0.04493 0.94679 0.75908 1.11500
Ni	Ni	0.04354 0.08994 0.72518 1.10500
O 	O 	0.88240 0.94003 0.69893 -0.30800
O 	O 	0.96578 0.07169 0.69525 -0.34600
O 	O 	0.09390 0.04091 0.78537 -0.39600
O 	O 	0.90711 0.95086 0.79115 -0.34900
O 	O 	0.97500 0.89249 0.79313 -0.33700
O 	O 	0.09578 0.05801 0.69678 -0.38800
O 	O 	0.88775 0.03976 0.74468 -0.38200
O 	O 	0.00115 0.12896 0.75659 -0.39000
O 	O 	0.12716 0.98707 0.72910 -0.32000
O 	O 	0.87889 0.82492 0.74798 -0.35800
O 	O 	0.99086 0.84338 0.73717 -0.33000
O 	O 	0.13244 0.13811 0.75012 -0.37900
O 	O 	0.99244 0.98313 0.73738 -0.68700
H 	H 	0.99038 0.95733 0.71825 0.17000
C 	C 	0.22110 0.78875 0.42684 0.25500
C 	C 	0.45224 0.71540 0.45164 0.32900
C 	C 	0.40215 0.87765 0.39830 0.32000
C 	C 	0.27072 0.62652 0.48544 0.30500
C 	C 	0.37307 0.66345 0.36242 0.28000
C 	C 	0.18123 0.54532 0.39166 0.26100
Ni	Ni	0.34916 0.77534 0.45041 1.12300
Ni	Ni	0.31760 0.61003 0.42307 1.12000
Ni	Ni	0.28026 0.72080 0.38439 1.12500
O 	O 	0.28379 0.82368 0.44058 -0.33000
O 	O 	0.20595 0.73600 0.40543 -0.36400
O 	O 	0.33532 0.60164 0.37930 -0.37300
O 	O 	0.42269 0.74693 0.46781 -0.33400
O 	O 	0.42315 0.68160 0.42642 -0.38800
O 	O 	0.21089 0.60745 0.37347 -0.35100
O 	O 	0.41991 0.84040 0.41734 -0.35400
O 	O 	0.34029 0.84006 0.38511 -0.36300
O 	O 	0.21407 0.53972 0.41578 -0.37700
O 	O 	0.28233 0.69901 0.48258 -0.35000
O 	O 	0.30535 0.59995 0.46885 -0.36400
O 	O 	0.36005 0.72167 0.36182 -0.35400
O 	O 	0.29982 0.69466 0.42294 -0.71800
H 	H 	0.25202 0.66918 0.43174 0.16400
C 	C 	0.39759 0.50217 0.08716 0.31400
C 	C 	0.18367 0.59757 0.11847 0.27900
C 	C 	0.20906 0.41886 0.06773 0.27500
C 	C 	0.37668 0.69274 0.14200 0.25800
C 	C 	0.24547 0.63050 0.02339 0.32800
C 	C 	0.43289 0.74544 0.04237 0.31600
Ni	Ni	0.28399 0.53419 0.11569 1.11500
Ni	Ni	0.31129 0.69295 0.08244 1.12800
Ni	Ni	0.33321 0.56764 0.04618 1.12700
O 	O 	0.34233 0.47803 0.10565 -0.36800
O 	O 	0.40990 0.55302 0.06519 -0.35700
O 	O 	0.28365 0.69375 0.03934 -0.35700
O 	O 	0.21878 0.57215 0.13436 -0.36300
O 	O 	0.20679 0.62898 0.09208 -0.35600
O 	O 	0.40432 0.67545 0.02899 -0.35200
O 	O 	0.19986 0.45611 0.08988 -0.35600
O 	O 	0.26980 0.45021 0.05332 -0.35600
O 	O 	0.41231 0.75493 0.06919 -0.35900
O 	O 	0.36098 0.61841 0.14282 -0.35500
O 	O 	0.33701 0.71498 0.12685 -0.34400
O 	O 	0.24927 0.56679 0.02761 -0.37800
O 	O 	0.32498 0.60536 0.08403 -0.72200
H 	H 	0.37491 0.63125 0.09012 0.17000
C 	C 	0.03189 0.14652 0.26699 0.22300
C 	C 	0.00807 0.85157 0.22416 0.24300
C 	C 	0.00962 0.05209 0.18681 0.24900
C 	C 	0.02074 0.93147 0.30431 0.23700
C 	C 	0.80271 0.86834 0.21475 0.27500
C 	C 	0.80878 0.91791 0.28614 0.26400
Ni	Ni	0.05323 0.01375 0.24511 1.08900
Ni	Ni	0.90006 0.86257 0.26039 1.12400
Ni	Ni	0.90755 0.02012 0.23596 1.10200
O 	O 	0.07169 0.12792 0.25030 -0.35700
O 	O 	0.96283 0.11415 0.26252 -0.34300
O 	O 	0.81199 0.82624 0.23526 -0.35100
O 	O 	0.05647 0.91092 0.23922 -0.33500
O 	O 	0.94163 0.83380 0.22532 -0.32800
O 	O 	0.82532 0.97427 0.26571 -0.35100
O 	O 	0.04404 0.02016 0.19902 -0.36400
O 	O 	0.97983 0.08213 0.20374 -0.35100
O 	O 	0.85088 0.88906 0.29242 -0.35000
O 	O 	0.06482 0.99760 0.29028 -0.33500
O 	O 	0.97588 0.86823 0.28906 -0.31400
O 	O 	0.85533 0.93574 0.20617 -0.36500
O 	O 	0.95592 0.97201 0.25308 -0.68700
H 	H 	0.95857 0.99147 0.27356 0.17200
C 	C 	0.06801 0.11185 0.11274 0.12800
C 	C 	0.12609 0.15847 0.09424 -0.09000
C 	C 	0.12255 0.21404 0.07565 0.01700
C 	C 	0.06801 0.23029 0.07835 0.12300
C 	C 	0.01146 0.18600 0.09784 -0.10500
C 	C 	0.01054 0.12353 0.11336 -0.02900
O 	O 	0.07471 0.07569 0.13830 -0.18100
C 	C 	0.01690 0.06850 0.15451 0.00500
C 	C 	0.97828 0.09636 0.13981 0.01500
O 	O 	0.08683 0.30650 0.07064 -0.18400
C 	C 	0.15823 0.33548 0.06398 0.05000
C 	C 	0.17947 0.28033 0.06632 -0.05200
H 	H 	0.17458 0.15618 0.09617 0.08200
H 	H 	0.97288 0.20394 0.10272 0.09800
H 	H 	0.94484 0.11521 0.15073 0.04400
H 	H 	0.23352 0.29423 0.07016 0.07000
C 	C 	0.53125 0.83484 0.17664 0.12400
C 	C 	0.60449 0.88232 0.17273 -0.07900
C 	C 	0.64927 0.87374 0.19293 0.01600
C 	C 	0.62346 0.81389 0.21357 0.11500
C 	C 	0.55061 0.76353 0.21640 -0.08400
C 	C 	0.50521 0.77865 0.19896 0.01600
O 	O 	0.48437 0.81939 0.15322 -0.17700
C 	C 	0.42902 0.74771 0.16304 0.05700
C 	C 	0.44065 0.72352 0.19033 -0.05300
O 	O 	0.67255 0.79276 0.22274 -0.18100
C 	C 	0.73046 0.84581 0.20562 0.04700
C 	C 	0.71604 0.89214 0.18706 -0.05300
H 	H 	0.62559 0.91970 0.15325 0.08500
H 	H 	0.53024 0.71137 0.23012 0.07400
H 	H 	0.41485 0.66323 0.19784 0.06600
H 	H 	0.75459 0.94378 0.17513 0.06900
C 	C 	0.06526 0.65756 0.14241 0.12100
C 	C 	0.05459 0.72214 0.14263 -0.08400
C 	C 	0.06226 0.76059 0.16981 0.02100
C 	C 	0.07329 0.73250 0.19622 0.12100
C 	C 	0.08038 0.66574 0.19634 -0.08400
C 	C 	0.07492 0.62818 0.16902 0.01200
O 	O 	0.09373 0.64041 0.11770 -0.17800
C 	C 	0.12387 0.60099 0.13203 0.04500
C 	C 	0.11149 0.59195 0.16244 -0.05400
O 	O 	0.05389 0.75822 0.22151 -0.18500
C 	C 	0.02772 0.80190 0.20740 0.05700
C 	C 	0.03304 0.80437 0.17671 -0.05600
H 	H 	0.04579 0.74490 0.12201 0.08000
H 	H 	0.08979 0.64367 0.21701 0.07200
H 	H 	0.14456 0.58325 0.17830 0.06400
H 	H 	0.00347 0.82039 0.16160 0.07000
C 	C 	0.51266 0.73062 0.31250 0.12100
C 	C 	0.55987 0.80048 0.29793 -0.08000
C 	C 	0.62981 0.84124 0.30799 0.02300
C 	C 	0.65459 0.80984 0.32900 0.12800
C 	C 	0.60812 0.73918 0.34319 -0.07900
C 	C 	0.53692 0.69996 0.33430 0.01900
O 	O 	0.44167 0.70777 0.31541 -0.17800
C 	C 	0.42649 0.66529 0.34206 0.05000
C 	C 	0.48240 0.65840 0.35296 -0.05200
O 	O 	0.72695 0.83808 0.32733 -0.17000
C 	C 	0.74286 0.88927 0.30312 0.06100
C 	C 	0.68526 0.89148 0.29149 -0.04800
H 	H 	0.54144 0.82491 0.28079 0.07700
H 	H 	0.62677 0.71523 0.36044 0.08500
H 	H 	0.48851 0.64797 0.37628 0.06700
H 	H 	0.68184 0.90869 0.26881 0.06800
C 	C 	0.06888 0.39922 0.34362 0.11700
C 	C 	0.06706 0.38101 0.31322 -0.08400
C 	C 	0.08445 0.32401 0.30520 0.01200
C 	C 	0.09447 0.27973 0.32627 0.12300
C 	C 	0.09157 0.29391 0.35672 -0.08900
C 	C 	0.07848 0.35438 0.36498 0.01500
O 	O 	0.09096 0.47510 0.35276 -0.18300
C 	C 	0.11983 0.47398 0.38047 0.05200
C 	C 	0.10945 0.40124 0.38845 -0.05500
O 	O 	0.08444 0.20888 0.31561 -0.20000
C 	C 	0.06651 0.21498 0.28615 0.05600
C 	C 	0.06576 0.28306 0.27978 -0.05900
H 	H 	0.05874 0.41503 0.29632 0.06900
H 	H 	0.10039 0.25992 0.37346 0.07000
H 	H 	0.14192 0.39201 0.40447 0.06300
H 	H 	0.03504 0.28957 0.26213 0.05500
C 	C 	0.14265 0.90339 0.41520 0.09700
C 	C 	0.14610 0.96115 0.39573 -0.00800
C 	C 	0.08623 0.94413 0.37861 -0.02600
C 	C 	0.02852 0.86964 0.37781 0.12500
C 	C 	0.02682 0.81063 0.39593 -0.12700
C 	C 	0.08291 0.83030 0.41585 0.04700
O 	O 	0.20336 0.90369 0.42484 -0.16000
C 	C 	0.17559 0.82369 0.42974 0.06300
C 	C 	0.10367 0.77991 0.42505 -0.06900
O 	O 	0.98999 0.85262 0.35147 -0.13800
C 	C 	0.03083 0.92320 0.33635 0.01300
C 	C 	0.08812 0.97811 0.35228 0.02400
H 	H 	0.19556 0.01490 0.39224 0.03700
H 	H 	0.98629 0.75026 0.39279 0.11400
H 	H 	0.07612 0.71813 0.41972 0.06800
H 	H 	0.13525 0.02590 0.34237 0.02300
C 	C 	0.56717 0.20421 0.52543 -0.10400
C 	C 	0.59809 0.23994 0.49762 0.16000
C 	C 	0.56536 0.20337 0.47100 -0.09000
C 	C 	0.50870 0.12688 0.47120 0.03600
C 	C 	0.48058 0.08881 0.49876 0.05800
C 	C 	0.50814 0.12873 0.52564 0.00400
H 	H 	0.58827 0.23185 0.44987 0.09100
C 	C 	0.48814 0.08290 0.44290 0.01200
H 	H 	0.48470 0.10022 0.54668 0.06200
C 	C 	0.53460 0.06231 0.42927 -0.06900
C 	C 	0.50955 0.00436 0.40738 0.07900
C 	C 	0.43688 0.96293 0.40104 -0.05700
C 	C 	0.39542 0.99638 0.40919 0.02100
C 	C 	0.42059 0.05589 0.43057 0.05700
H 	H 	0.58875 0.08792 0.43688 0.07700
H 	H 	0.34116 0.97023 0.40173 0.08100
Br	Br	0.40810 0.98079 0.50023 -0.16500
Br	Br	0.69092 0.33056 0.49485 -0.26400
Br	Br	0.57275 0.97469 0.38943 -0.15400
Br	Br	0.36139 0.09675 0.44358 -0.21000
C 	C 	0.94891 0.52312 0.59698 -0.11000
C 	C 	0.99352 0.59153 0.58080 0.19600
C 	C 	0.05997 0.60518 0.57141 -0.13100
C 	C 	0.08171 0.55075 0.57809 0.04600
C 	C 	0.04324 0.49147 0.59915 0.04800
C 	C 	0.97733 0.47879 0.60898 0.03800
H 	H 	0.09164 0.65388 0.55661 0.09400
C 	C 	0.13381 0.54615 0.55838 0.01600
H 	H 	0.94476 0.42868 0.62304 0.05700
C 	C 	0.20608 0.59530 0.56362 -0.07800
C 	C 	0.25489 0.61224 0.54046 0.14600
C 	C 	0.23093 0.58171 0.51171 -0.08800
C 	C 	0.16065 0.52275 0.50799 -0.02000
C 	C 	0.11180 0.50499 0.53119 0.08900
H 	H 	0.22379 0.62418 0.58500 0.08700
H 	H 	0.14254 0.49616 0.48625 0.06300
Br	Br	0.07638 0.42254 0.61219 -0.22100
Br	Br	0.96090 0.66113 0.56797 -0.18300
Br	Br	0.35348 0.68192 0.54772 -0.19300
Br	Br	0.01419 0.42985 0.52442 -0.21500
C 	C 	0.67743 0.53834 0.54801 -0.08800
C 	C 	0.60416 0.51157 0.54803 0.15000
C 	C 	0.57781 0.55263 0.53211 -0.07800
C 	C 	0.62318 0.61835 0.51501 0.02400
C 	C 	0.69623 0.64478 0.51466 0.08900
C 	C 	0.72306 0.60488 0.53122 -0.00600
H 	H 	0.52146 0.53161 0.53209 0.08800
C 	C 	0.59262 0.65429 0.49543 0.02800
H 	H 	0.77939 0.62581 0.53113 0.08500
C 	C 	0.58846 0.71931 0.50542 -0.07900
C 	C 	0.54865 0.74549 0.48957 0.15500
C 	C 	0.50865 0.70281 0.46453 -0.09300
C 	C 	0.51827 0.64214 0.45320 -0.01100
C 	C 	0.56031 0.61832 0.46838 0.08300
H 	H 	0.61605 0.74946 0.52554 0.09300
H 	H 	0.49101 0.61144 0.43312 0.05900
Br	Br	0.75986 0.73424 0.49131 -0.17400
Br	Br	0.53842 0.41562 0.56757 -0.18900
Br	Br	0.55718 0.84420 0.50028 -0.17400
Br	Br	0.57156 0.53491 0.45222 -0.19700
C 	C 	0.83078 0.00418 0.61737 0.09700
C 	C 	0.77065 0.00464 0.60647 -0.12100
C 	C 	0.78036 0.06608 0.58743 0.03000
C 	C 	0.84633 0.13048 0.58305 0.12200
C 	C 	0.90614 0.13230 0.59556 -0.08100
C 	C 	0.89728 0.06547 0.61077 0.02500
O 	O 	0.82835 0.96243 0.64292 -0.13100
C 	C 	0.89923 0.00551 0.65144 0.03000
C 	C 	0.94062 0.06651 0.63228 -0.05000
O 	O 	0.84478 0.19855 0.57618 -0.17200
C 	C 	0.77179 0.16921 0.57735 0.06300
C 	C 	0.73316 0.09044 0.58396 -0.06100
H 	H 	0.71841 0.96192 0.61430 0.11400
H 	H 	0.95675 0.18578 0.59536 0.09100
H 	H 	0.98976 0.11783 0.63852 0.07000
H 	H 	0.68089 0.06213 0.59398 0.06200
C 	C 	0.32540 0.14250 0.69174 0.11700
C 	C 	0.39364 0.19396 0.70225 -0.08900
C 	C 	0.43488 0.26435 0.68656 0.01400
C 	C 	0.41036 0.28154 0.66083 0.11900
C 	C 	0.34113 0.23121 0.65103 -0.08300
C 	C 	0.30098 0.16013 0.66624 0.01400
O 	O 	0.27223 0.08767 0.71008 -0.19400
C 	C 	0.21342 0.07552 0.69333 0.05500
C 	C 	0.23013 0.11882 0.66721 -0.06200
O 	O 	0.46364 0.33023 0.64117 -0.16700
C 	C 	0.52243 0.33841 0.65683 0.05100
C 	C 	0.50570 0.30043 0.68416 -0.05500
H 	H 	0.41357 0.18025 0.72217 0.07100
H 	H 	0.32102 0.24469 0.63111 0.07800
H 	H 	0.19541 0.13483 0.65571 0.06100
H 	H 	0.53822 0.28073 0.69534 0.06500
C 	C 	0.87406 0.60076 0.72718 0.12100
C 	C 	0.88153 0.53455 0.73015 -0.08400
C 	C 	0.81954 0.46053 0.73121 0.01300
C 	C 	0.75293 0.45406 0.73132 0.11800
C 	C 	0.74715 0.52211 0.73151 -0.08500
C 	C 	0.80867 0.59368 0.72681 0.01200
O 	O 	0.92936 0.67719 0.73001 -0.17200
C 	C 	0.88908 0.71485 0.73128 0.05500
C 	C 	0.81676 0.66510 0.72972 -0.05600
O 	O 	0.70187 0.38697 0.71728 -0.18700
C 	C 	0.74502 0.36182 0.70393 0.04900
C 	C 	0.81295 0.39930 0.71532 -0.05800
H 	H 	0.93331 0.53960 0.72926 0.08100
H 	H 	0.69576 0.51810 0.73115 0.07500
H 	H 	0.77658 0.67808 0.73749 0.06500
H 	H 	0.85724 0.39980 0.70398 0.06500
C 	C 	0.94634 0.52610 0.89029 -0.11300
C 	C 	0.98306 0.48450 0.89318 0.19500
C 	C 	0.04662 0.51758 0.90904 -0.13100
C 	C 	0.07376 0.59230 0.92148 0.04300
C 	C 	0.04528 0.63951 0.91263 0.04000
C 	C 	0.98232 0.60653 0.89632 0.04000
H 	H 	0.07135 0.48282 0.91395 0.09200
C 	C 	0.11844 0.61225 0.94833 0.02200
H 	H 	0.95807 0.64149 0.89101 0.05700
C 	C 	0.19219 0.65186 0.94540 -0.07700
C 	C 	0.23479 0.66311 0.97038 0.14900
C 	C 	0.20331 0.63337 0.99846 -0.09200
C 	C 	0.12981 0.59729 0.00162 -0.00400
C 	C 	0.08729 0.58686 0.97677 0.06800
H 	H 	0.21636 0.67262 0.92365 0.09000
H 	H 	0.10551 0.57518 0.02326 0.06800
Br	Br	0.08754 0.74628 0.92525 -0.21000
Br	Br	0.94454 0.38084 0.87741 -0.20200
Br	Br	0.33566 0.71772 0.96562 -0.18800
Br	Br	0.98651 0.53567 0.98193 -0.15900
C 	C 	0.67948 0.14694 0.93510 -0.08300
C 	C 	0.71472 0.14178 0.96076 0.14600
C 	C 	0.68385 0.07305 0.97796 -0.06800
C 	C 	0.62055 0.00784 0.96878 -0.01400
C 	C 	0.59180 0.00923 0.94082 0.06500
C 	C 	0.62117 0.07844 0.92413 -0.01300
H 	H 	0.70834 0.07089 0.99873 0.08000
C 	C 	0.57861 0.94442 0.99035 0.07000
H 	H 	0.59608 0.07995 0.90346 0.06200
C 	C 	0.52475 0.94686 0.00659 -0.09000
C 	C 	0.47671 0.88242 0.02348 0.16300
C 	C 	0.48457 0.81547 0.02553 -0.08300
C 	C 	0.54033 0.81430 0.01016 -0.00000
C 	C 	0.58707 0.87823 0.99249 0.08100
H 	H 	0.51799 0.99764 0.00485 0.10900
H 	H 	0.54688 0.76335 0.01163 0.07800
Br	Br	0.50995 0.91812 0.92583 -0.15200
Br	Br	0.80782 0.22389 0.97090 -0.18100
Br	Br	0.39720 0.88487 0.04098 -0.20200
Br	Br	0.66089 0.87328 0.97087 -0.16900
C 	C 	0.55238 0.30203 0.97913 -0.10000
C 	C 	0.57141 0.28779 0.00753 0.14900
C 	C 	0.54267 0.30177 0.03320 -0.08400
C 	C 	0.49434 0.32879 0.03061 0.02800
C 	C 	0.46827 0.33248 0.00219 0.08400
C 	C 	0.49723 0.31870 0.97660 -0.00600
H 	H 	0.56090 0.29595 0.05507 0.08700
C 	C 	0.48228 0.36733 0.05629 0.02100
H 	H 	0.48069 0.32698 0.95470 0.06400
C 	C 	0.52846 0.44736 0.06077 -0.08100
C 	C 	0.50494 0.49227 0.07585 0.14900
C 	C 	0.43462 0.45686 0.08608 -0.09100
C 	C 	0.39469 0.37491 0.08734 -0.01200
C 	C 	0.41789 0.32991 0.07205 0.08800
H 	H 	0.58036 0.47561 0.05045 0.08800
H 	H 	0.34297 0.34655 0.09777 0.06300
Br	Br	0.39780 0.36328 0.99779 -0.20900
Br	Br	0.63882 0.25258 0.01156 -0.21900
Br	Br	0.56847 0.60186 0.08154 -0.20300
Br	Br	0.35823 0.21859 0.07043 -0.21800
C 	C 	0.73231 0.18937 0.79803 0.12100
C 	C 	0.75601 0.13750 0.80607 -0.08200
C 	C 	0.82621 0.15870 0.79957 0.01700
C 	C 	0.86956 0.22496 0.78333 0.12700
C 	C 	0.84537 0.27570 0.77445 -0.08100
C 	C 	0.77566 0.25581 0.78163 0.01600
O 	O 	0.68147 0.19528 0.81478 -0.18600
C 	C 	0.70091 0.27275 0.80837 0.05300
C 	C 	0.75566 0.30836 0.78802 -0.05200
O 	O 	0.92387 0.22152 0.76841 -0.17100
C 	C 	0.90748 0.14591 0.77659 0.04100
C 	C 	0.84957 0.10819 0.79523 -0.04700
H 	H 	0.72221 0.08479 0.81861 0.07200
H 	H 	0.87941 0.32851 0.76200 0.07600
H 	H 	0.79043 0.37100 0.78636 0.06800
H 	H 	0.81716 0.04525 0.79726 0.05000
C 	C 	0.28952 0.20044 0.82320 0.11900
C 	C 	0.32130 0.24085 0.84951 -0.08600
C 	C 	0.38625 0.31073 0.84724 0.01700
C 	C 	0.41958 0.33811 0.81997 0.11900
C 	C 	0.38646 0.29876 0.79360 -0.08200
C 	C 	0.32287 0.22787 0.79607 0.01200
O 	O 	0.21720 0.14923 0.82104 -0.18200
C 	C 	0.21072 0.15074 0.79001 0.03900
C 	C 	0.27315 0.19709 0.77496 -0.05000
O 	O 	0.49263 0.38318 0.82197 -0.17800
C 	C 	0.50038 0.37711 0.85268 0.04600
C 	C 	0.43717 0.33551 0.86796 -0.05200
H 	H 	0.29610 0.21906 0.87101 0.07500
H 	H 	0.41176 0.31998 0.77207 0.07300
H 	H 	0.27757 0.22041 0.75260 0.06500
H 	H 	0.43141 0.30691 0.88935 0.06400
C 	C 	0.80169 0.74866 0.91229 0.12500
C 	C 	0.79616 0.79886 0.89156 -0.07700
C 	C 	0.85819 0.85729 0.87800 0.02100
C 	C 	0.92187 0.85912 0.88165 0.13000
C 	C 	0.92705 0.80742 0.90172 -0.08100
C 	C 	0.86686 0.75610 0.91842 0.02700
O 	O 	0.74517 0.67456 0.91815 -0.17300
C 	C 	0.78217 0.63706 0.92723 0.05200
C 	C 	0.85442 0.68598 0.92837 -0.04900
O 	O 	0.96769 0.89113 0.85745 -0.16400
C 	C 	0.92533 0.90782 0.83889 0.05700
C 	C 	0.86028 0.88817 0.85096 -0.04600
H 	H 	0.74474 0.78810 0.88423 0.08300
H 	H 	0.97431 0.80233 0.90225 0.09800
H 	H 	0.89264 0.66612 0.92741 0.07800
H 	H 	0.81397 0.87549 0.83789 0.06500
