data_crystal

_cell_length_a 27.34346
_cell_length_b 28.92602
_cell_length_c 43.54731
_cell_angle_alpha 60.81494
_cell_angle_beta  118.89585
_cell_angle_gamma 133.22569

_symmetry_space_group_name_	'P 1'
_symmetry_space_group_name_H-M	'P 1'

loop_
_symmetry_equiv_pos_as_xyz
  x,y,z

loop_
_atom_site_label
_atom_site_type_symbol
_atom_site_fract_x
_atom_site_fract_y
_atom_site_fract_z
_atom_site_charge
C 	C 	0.02014 0.97634 0.99994 0.29800
O 	O 	0.01492 0.92439 0.08366 -0.75500
Co	Co	0.04574 0.08275 0.59533 1.19400
C 	C 	0.05889 0.00449 0.50040 0.29100
O 	O 	0.03638 0.01298 0.51677 -0.37500
C 	C 	0.02316 0.99123 0.86619 0.00500
C 	C 	0.00657 0.98668 0.89603 0.08100
C 	C 	0.03053 0.00499 0.46161 -0.10300
C 	C 	0.01245 0.99671 0.33904 0.00800
C 	C 	0.00468 0.97429 0.31143 0.08000
Co	Co	0.02110 0.90241 0.61758 1.19200
Co	Co	0.03251 0.99936 0.06507 1.20200
Co	Co	0.05985 0.90084 0.07131 1.17700
O 	O 	0.02735 0.07112 0.05719 -0.44200
O 	O 	0.06817 0.96719 0.02110 -0.38200
O 	O 	0.05744 0.83253 0.12004 -0.37200
O 	O 	0.05952 0.87308 0.15453 -0.36200
Co	Co	0.09139 0.03171 0.56812 1.18200
Co	Co	0.09855 0.92477 0.56771 1.18000
O 	O 	0.09500 0.10855 0.56087 -0.42800
O 	O 	0.05458 0.99971 0.61630 -0.55000
O 	O 	0.06364 0.12189 0.66349 -0.39100
O 	O 	0.08986 0.85001 0.61397 -0.38800
O 	O 	0.08530 0.87400 0.65507 -0.36800
O 	O 	0.07264 0.95659 0.58795 -0.74400
C 	C 	0.03242 0.01814 0.79140 -0.08900
C 	C 	0.03706 0.02252 0.75926 0.00400
C 	C 	0.03900 0.04414 0.90493 -0.07700
C 	C 	0.03570 0.04075 0.93723 0.00500
H 	H 	0.05797 0.06263 0.79820 0.07300
H 	H 	0.06630 0.07032 0.74187 0.04900
H 	H 	0.06496 0.08554 0.94490 0.06200
C 	C 	0.06255 0.03786 0.40723 -0.11200
C 	C 	0.07565 0.05170 0.43818 0.05500
C 	C 	0.05251 0.01778 0.28960 -0.08400
C 	C 	0.03847 0.00320 0.25866 0.00400
H 	H 	0.03331 0.04760 0.33314 0.03600
H 	H 	0.05288 0.73427 0.69138 0.11000
F 	F 	0.01859 0.21901 0.07662 -0.43800
F 	F 	0.00730 0.72137 0.20037 -0.40100
C 	C 	0.03704 0.12759 0.13825 0.35600
C 	C 	0.07855 0.84492 0.15097 0.36500
O 	O 	0.05015 0.11147 0.12076 -0.37000
C 	C 	0.11014 0.17082 0.64409 0.34900
C 	C 	0.10972 0.85598 0.64672 0.36200
O 	O 	0.10685 0.99468 0.51875 -0.33700
O 	O 	0.11696 0.16263 0.61904 -0.33800
H 	H 	0.07559 0.02872 0.86250 0.03900
H 	H 	0.06952 0.09154 0.88771 0.08200
H 	H 	0.10105 0.07187 0.39141 0.08200
H 	H 	0.07338 0.03940 0.24068 0.05300
F 	F 	0.10179 0.27271 0.58892 -0.39800
C 	C 	0.10659 0.76020 0.69271 -0.04300
F 	F 	0.09487 0.65968 0.72236 -0.37700
C 	C 	0.07204 0.74995 0.19964 0.39100
H 	H 	0.05927 0.65839 0.22102 0.13900
H 	H 	0.12399 0.09622 0.44567 0.07600
H 	H 	0.09893 0.06436 0.29556 0.07500
H 	H 	0.08362 0.30879 0.19584 0.13100
C 	C 	0.07765 0.19653 0.13786 -0.14700
C 	C 	0.05882 0.23651 0.10850 0.37800
C 	C 	0.07735 0.29212 0.11275 -0.13600
H 	H 	0.05919 0.32047 0.09057 0.14800
H 	H 	0.09853 0.67210 0.15861 0.12800
C 	C 	0.11304 0.81667 0.18257 -0.12900
C 	C 	0.09405 0.71093 0.21140 -0.13700
C 	C 	0.14024 0.28236 0.62260 0.38000
H 	H 	0.14992 0.36920 0.61103 0.15300
C 	C 	0.13457 0.72522 0.70812 0.31400
C 	C 	0.14562 0.82711 0.67567 -0.13900
F 	F 	0.13612 0.67282 0.66275 -0.38700
F 	F 	0.02768 0.25414 0.51479 -0.39100
C 	C 	0.15304 0.23651 0.64924 -0.14000
O 	O 	0.15602 0.97480 0.09284 -0.34200
O 	O 	0.13903 0.04870 0.08347 -0.38200
C 	C 	0.16311 0.33593 0.63128 -0.13000
C 	C 	0.11418 0.35746 0.17947 -0.11000
C 	C 	0.11729 0.30980 0.14592 0.02600
F 	F 	0.12408 0.40312 0.21708 -0.40500
C 	C 	0.12157 0.21673 0.17018 -0.04400
F 	F 	0.12731 0.61091 0.14929 -0.41100
H 	H 	0.17523 0.34436 0.71950 0.13300
C 	C 	0.13304 0.36616 0.15120 0.00600
C 	C 	0.13785 0.41186 0.18787 0.35600
C 	C 	0.14179 0.27335 0.17414 0.28500
H 	H 	0.13705 0.18666 0.19289 0.09500
C 	C 	0.13869 0.66797 0.18013 -0.12500
C 	C 	0.17367 0.03484 0.08065 0.31900
O 	O 	0.19840 0.99312 0.59000 -0.32600
O 	O 	0.19586 0.08106 0.57263 -0.34400
C 	C 	0.15836 0.63580 0.17825 0.35300
C 	C 	0.15849 0.73915 0.20776 0.02800
H 	H 	0.17460 0.10063 0.01061 0.08600
C 	C 	0.00043 0.97989 0.96116 -0.03600
C 	C 	0.19431 0.24799 0.68367 -0.04900
C 	C 	0.20189 0.75720 0.70657 0.02100
C 	C 	0.19305 0.68064 0.68927 0.32000
H 	H 	0.19812 0.62580 0.67232 0.12400
C 	C 	0.17004 0.42922 0.12921 0.31300
C 	C 	0.17285 0.69734 0.20880 0.00700
C 	C 	0.18199 0.84634 0.18531 -0.05400
C 	C 	0.20184 0.34595 0.66619 0.02400
C 	C 	0.20815 0.39338 0.70422 -0.11200
H 	H 	0.20472 0.21301 0.70437 0.09600
C 	C 	0.21569 0.86043 0.67858 0.38000
C 	C 	0.17980 0.47532 0.16771 -0.06400
F 	F 	0.18381 0.29191 0.20567 -0.40600
N 	N 	0.19785 0.55239 0.18873 -0.10100
C 	C 	0.19212 0.48327 0.13708 -0.07600
F 	F 	0.18802 0.43858 0.10150 -0.40300
C 	C 	0.20438 0.80763 0.19717 0.30700
F 	F 	0.22075 0.43803 0.74353 -0.40700
C 	C 	0.21930 0.30285 0.69204 0.28800
C 	C 	0.22186 0.65328 0.69158 -0.07500
C 	C 	0.21237 0.63241 0.20524 -0.06700
H 	H 	0.21546 0.89841 0.17390 0.12300
C 	C 	0.00259 0.97800 0.39856 0.12400
C 	C 	0.22554 0.05601 0.57633 0.31400
C 	C 	0.22507 0.71897 0.71302 0.01500
C 	C 	0.22483 0.53175 0.18343 0.20500
C 	C 	0.22578 0.40270 0.67521 0.00600
H 	H 	0.22341 0.53198 0.12095 0.12000
C 	C 	0.22462 0.69146 0.23660 0.32600
C 	C 	0.22444 0.11088 0.02734 -0.05900
O 	O 	0.00013 0.95196 0.69742 -0.35300
O 	O 	0.99901 0.99340 0.01162 -0.35500
O 	O 	0.99570 0.08236 0.16055 -0.40500
Co	Co	0.97398 0.03997 0.09121 1.18000
O 	O 	0.97371 0.93865 0.19439 -0.36900
C 	C 	0.99859 0.96581 0.74777 -0.04600
C 	C 	0.97611 0.94532 0.24897 -0.04700
C 	C 	0.68436 0.29834 0.99869 0.19800
N 	N 	0.61490 0.26446 0.99258 -0.11800
C 	C 	0.58931 0.28754 0.99674 0.19900
N 	N 	0.63316 0.34465 0.00663 -0.12700
C 	C 	0.70228 0.37798 0.01343 0.20200
N 	N 	0.72801 0.35538 0.00901 -0.11400
C 	C 	0.77229 0.34221 0.51519 0.19900
N 	N 	0.70249 0.30444 0.50990 -0.12000
C 	C 	0.67352 0.32120 0.51672 0.20200
N 	N 	0.71432 0.37518 0.52918 -0.12200
C 	C 	0.78380 0.41277 0.53486 0.20000
N 	N 	0.81310 0.39640 0.52789 -0.12100
C 	C 	0.24085 0.60778 0.20071 0.19800
N 	N 	0.31046 0.64225 0.20709 -0.13500
C 	C 	0.33709 0.62125 0.20194 0.20100
N 	N 	0.29415 0.56604 0.19031 -0.12200
C 	C 	0.31976 0.64552 0.71546 0.20600
N 	N 	0.28446 0.58435 0.71218 -0.12000
C 	C 	0.31759 0.56803 0.70878 0.21000
N 	N 	0.38600 0.61217 0.70991 -0.13000
C 	C 	0.41905 0.67508 0.70862 0.20400
N 	N 	0.38645 0.69149 0.71238 -0.11600
Co	Co	0.91778 0.91333 0.14472 1.19300
Co	Co	0.97452 0.87205 0.11791 1.19500
Co	Co	0.89380 0.01055 0.14213 1.16200
C 	C 	0.91729 0.78017 0.07390 0.35000
O 	O 	0.89319 0.08023 0.09449 -0.37800
O 	O 	0.92674 0.98423 0.12279 -0.73500
C 	C 	0.87322 0.07252 0.06221 0.37200
O 	O 	0.92665 0.84324 0.15415 -0.42500
C 	C 	0.77632 0.87417 0.13796 0.35000
O 	O 	0.95222 0.94647 0.09539 -0.55900
O 	O 	0.90085 0.05730 0.05422 -0.36900
O 	O 	0.79707 0.93529 0.12233 -0.32500
O 	O 	0.81281 0.85460 0.14359 -0.35700
C 	C 	0.94734 0.94328 0.21055 0.29900
O 	O 	0.89419 0.94565 0.19248 -0.38200
O 	O 	0.95843 0.82994 0.05179 -0.38600
O 	O 	0.90892 0.78862 0.09812 -0.34000
Co	Co	0.97150 0.95225 0.64314 1.19700
Co	Co	0.96156 0.06158 0.63896 1.16500
C 	C 	0.95177 0.81734 0.56793 0.35200
O 	O 	0.97700 0.13658 0.59232 -0.36800
O 	O 	0.99993 0.03083 0.62729 -0.78500
C 	C 	0.95578 0.12611 0.56076 0.36700
O 	O 	0.96667 0.87489 0.64981 -0.43900
C 	C 	0.83680 0.93501 0.62134 0.34300
O 	O 	0.96871 0.09321 0.55690 -0.38100
O 	O 	0.86450 0.99783 0.61206 -0.34200
O 	O 	0.86726 0.91450 0.62063 -0.37300
C 	C 	0.98142 0.97162 0.70884 0.29600
O 	O 	0.93982 0.98862 0.68655 -0.37400
O 	O 	0.99487 0.86106 0.54657 -0.37400
O 	O 	0.94152 0.83556 0.58563 -0.37400
C 	C 	0.96108 0.90432 0.77070 0.03400
C 	C 	0.95709 0.89975 0.80315 -0.06500
C 	C 	0.99087 0.95664 0.81314 0.09900
C 	C 	0.97449 0.95135 0.84336 -0.06100
C 	C 	0.96298 0.92239 0.95072 0.02000
C 	C 	0.96672 0.92564 0.91863 -0.05700
H 	H 	0.93105 0.86013 0.76222 0.05900
H 	H 	0.92520 0.85200 0.81968 0.08300
H 	H 	0.92215 0.91364 0.84720 0.07500
H 	H 	0.93549 0.87506 0.96889 0.05500
H 	H 	0.94200 0.88077 0.91254 0.07500
C 	C 	0.96750 0.94828 0.45100 0.07500
C 	C 	0.95381 0.93462 0.41980 -0.08900
C 	C 	0.99542 0.95579 0.37108 -0.07300
C 	C 	0.93175 0.89896 0.27279 0.03000
C 	C 	0.94515 0.91375 0.30343 -0.06000
H 	H 	0.93179 0.91201 0.46856 0.06900
H 	H 	0.90693 0.88868 0.41324 0.09200
H 	H 	0.97478 0.90496 0.37704 0.07300
H 	H 	0.88362 0.85387 0.26581 0.05900
H 	H 	0.90714 0.87982 0.31955 0.07600
C 	C 	0.26668 0.46635 0.65493 0.31400
C 	C 	0.29115 0.52000 0.66414 -0.08200
C 	C 	0.27781 0.51109 0.69466 -0.07100
C 	C 	0.23469 0.44746 0.71418 0.35300
F 	F 	0.28477 0.47629 0.62707 -0.40100
H 	H 	0.32340 0.56894 0.64853 0.13800
F 	F 	0.25969 0.31370 0.72535 -0.40800
C 	C 	0.52469 0.76598 0.64220 -0.13100
C 	C 	0.59126 0.79120 0.66484 0.01100
C 	C 	0.60205 0.78806 0.70066 0.32300
C 	C 	0.54565 0.75456 0.71449 -0.07700
C 	C 	0.47869 0.72597 0.69234 -0.07600
C 	C 	0.46897 0.73485 0.65565 0.35600
C 	C 	0.64959 0.82211 0.65064 0.02400
F 	F 	0.66685 0.81665 0.72212 -0.39800
H 	H 	0.55372 0.74865 0.74272 0.12400
F 	F 	0.40454 0.70926 0.63364 -0.42100
H 	H 	0.51595 0.76932 0.61436 0.13100
C 	C 	0.69132 0.79995 0.66800 0.30500
C 	C 	0.74968 0.83312 0.65602 -0.05300
C 	C 	0.76582 0.88760 0.62621 -0.13700
C 	C 	0.71923 0.90436 0.60633 0.38500
C 	C 	0.66255 0.87298 0.61905 -0.14800
F 	F 	0.67602 0.74714 0.69678 -0.39300
H 	H 	0.78436 0.81876 0.67109 0.09800
F 	F 	0.73070 0.95311 0.57553 -0.41200
H 	H 	0.62934 0.88897 0.60471 0.13800
C 	C 	0.24362 0.82551 0.69381 -0.14200
F 	F 	0.25498 0.92573 0.66365 -0.42300
H 	H 	0.29630 0.85096 0.69350 0.13500
C 	C 	0.28336 0.66467 0.71722 -0.07100
C 	C 	0.31350 0.70026 0.74212 0.35800
C 	C 	0.28432 0.72713 0.74004 -0.12800
F 	F 	0.37178 0.70988 0.76784 -0.40700
H 	H 	0.30901 0.75609 0.75867 0.13300
C 	C 	0.50735 0.66567 0.21082 -0.11900
C 	C 	0.53887 0.73069 0.19023 0.01200
C 	C 	0.50987 0.76314 0.17995 0.30800
C 	C 	0.44631 0.72875 0.18706 -0.07700
C 	C 	0.41161 0.66193 0.20470 -0.07600
C 	C 	0.44457 0.63172 0.21854 0.35500
C 	C 	0.59846 0.76265 0.17678 0.02300
F 	F 	0.54189 0.82720 0.16180 -0.39800
H 	H 	0.42217 0.75301 0.17694 0.12100
F 	F 	0.41381 0.56830 0.23779 -0.40400
H 	H 	0.53012 0.64066 0.21960 0.14300
C 	C 	0.66025 0.77209 0.20116 0.29200
C 	C 	0.71681 0.80359 0.18816 -0.05200
C 	C 	0.71272 0.82732 0.15082 -0.13500
C 	C 	0.65020 0.81571 0.12645 0.38800
C 	C 	0.59311 0.78290 0.13939 -0.13100
F 	F 	0.66621 0.75274 0.23737 -0.40900
H 	H 	0.76500 0.81258 0.20715 0.09500
F 	F 	0.64535 0.83776 0.09024 -0.39100
H 	H 	0.54506 0.77423 0.12039 0.14600
C 	C 	0.24419 0.65909 0.23484 -0.07900
F 	F 	0.25711 0.71843 0.26485 -0.38800
H 	H 	0.28521 0.65604 0.25607 0.12500
F 	F 	0.26832 0.83615 0.19524 -0.38700
C 	C 	0.93582 0.25840 0.50269 -0.12400
C 	C 	0.86940 0.22657 0.50538 0.01600
C 	C 	0.82518 0.15782 0.51446 0.30100
C 	C 	0.85078 0.12201 0.52598 -0.06000
C 	C 	0.92106 0.15469 0.52983 -0.13000
C 	C 	0.96123 0.22234 0.51435 0.38400
C 	C 	0.85096 0.26440 0.50518 0.00900
F 	F 	0.75948 0.12598 0.51534 -0.40500
H 	H 	0.81818 0.06938 0.53605 0.12600
H 	H 	0.96940 0.31131 0.49411 0.14100
C 	C 	0.88262 0.29207 0.53431 0.30800
C 	C 	0.85922 0.32058 0.53654 -0.07900
C 	C 	0.80371 0.32138 0.50988 -0.07000
C 	C 	0.77426 0.29651 0.47984 0.35400
C 	C 	0.79778 0.26807 0.47760 -0.11500
F 	F 	0.93416 0.28889 0.56120 -0.41200
H 	H 	0.88245 0.33968 0.55975 0.11500
F 	F 	0.72245 0.29931 0.45303 -0.40600
H 	H 	0.77362 0.24757 0.45484 0.13600
C 	C 	0.88954 0.58728 0.53682 -0.12600
C 	C 	0.86857 0.57854 0.56416 0.01000
C 	C 	0.83171 0.51568 0.58631 0.32700
C 	C 	0.81231 0.46180 0.57965 -0.07900
C 	C 	0.82662 0.46961 0.54982 -0.07200
C 	C 	0.86837 0.53299 0.52954 0.35500
C 	C 	0.88002 0.63418 0.56740 0.02600
F 	F 	0.81093 0.50622 0.61282 -0.38500
H 	H 	0.78129 0.41319 0.59593 0.12000
F 	F 	0.88409 0.54166 0.50112 -0.41000
H 	H 	0.91955 0.63580 0.52017 0.12400
C 	C 	0.91919 0.65523 0.59965 0.30500
C 	C 	0.93370 0.71065 0.60152 -0.05000
C 	C 	0.91281 0.74769 0.57069 -0.14600
C 	C 	0.86955 0.72400 0.53935 0.38400
C 	C 	0.85286 0.66725 0.53782 -0.15100
F 	F 	0.94614 0.62408 0.62849 -0.37300
H 	H 	0.96590 0.72776 0.62608 0.09300
F 	F 	0.84733 0.75829 0.50960 -0.42900
H 	H 	0.82082 0.65026 0.51321 0.13200
C 	C 	0.50057 0.26867 0.50995 -0.13100
C 	C 	0.46957 0.20243 0.52834 0.00700
C 	C 	0.49998 0.17263 0.53600 0.32200
C 	C 	0.56473 0.21064 0.52909 -0.08000
C 	C 	0.59866 0.27826 0.51377 -0.07100
C 	C 	0.56410 0.30611 0.50203 0.35500
C 	C 	0.40725 0.16546 0.54098 0.02000
F 	F 	0.46783 0.10738 0.55111 -0.39800
H 	H 	0.59000 0.18820 0.53739 0.12000
F 	F 	0.59388 0.37040 0.48460 -0.40900
H 	H 	0.47651 0.29168 0.50287 0.12700
C 	C 	0.40775 0.13674 0.57803 0.30800
C 	C 	0.34895 0.10277 0.58982 -0.05700
C 	C 	0.29026 0.09940 0.56499 -0.12900
C 	C 	0.29100 0.13087 0.52828 0.36900
C 	C 	0.34871 0.16267 0.51626 -0.14800
F 	F 	0.46540 0.14240 0.60259 -0.39300
H 	H 	0.34887 0.07882 0.61822 0.12200
F 	F 	0.23497 0.12899 0.50410 -0.44400
H 	H 	0.34806 0.18531 0.48772 0.12300
C 	C 	0.73711 0.09936 0.01783 -0.13500
C 	C 	0.77706 0.16689 0.00238 0.02300
C 	C 	0.84150 0.19736 0.99759 0.30000
C 	C 	0.86943 0.16246 0.01258 -0.04400
C 	C 	0.83374 0.09751 0.03297 -0.13500
C 	C 	0.76527 0.06466 0.03300 0.37200
C 	C 	0.75818 0.20699 0.99845 0.01300
F 	F 	0.87928 0.26197 0.98098 -0.39500
H 	H 	0.92141 0.18766 0.01126 0.12700
F 	F 	0.72864 0.00076 0.05097 -0.41700
H 	H 	0.68640 0.07490 0.02065 0.13900
C 	C 	0.70073 0.20393 0.97177 0.31200
C 	C 	0.67806 0.23560 0.97115 -0.07700
C 	C 	0.71231 0.27021 0.99736 -0.06800
C 	C 	0.77090 0.27448 0.02352 0.35200
C 	C 	0.79377 0.24333 0.02385 -0.12100
F 	F 	0.66621 0.16938 0.94685 -0.40200
H 	H 	0.63337 0.23255 0.95061 0.11900
F 	F 	0.80375 0.30615 0.04965 -0.40900
H 	H 	0.83784 0.24550 0.04469 0.12900
C 	C 	0.87273 0.61633 0.09098 -0.14600
C 	C 	0.83065 0.60192 0.05719 0.02200
C 	C 	0.80883 0.64154 0.03094 0.30300
C 	C 	0.83307 0.69765 0.03754 -0.05100
C 	C 	0.87799 0.71386 0.07066 -0.13800
C 	C 	0.89577 0.67171 0.09784 0.37500
C 	C 	0.80784 0.54430 0.04973 0.00800
F 	F 	0.76487 0.62608 0.99889 -0.39500
H 	H 	0.81881 0.72974 0.01649 0.10300
F 	F 	0.93864 0.68648 0.13013 -0.41700
H 	H 	0.88868 0.58532 0.11167 0.12900
C 	C 	0.82428 0.55171 0.02086 0.32400
C 	C 	0.79426 0.49648 0.01075 -0.08000
C 	C 	0.74846 0.43374 0.02965 -0.06800
C 	C 	0.73764 0.42638 0.06066 0.35700
C 	C 	0.76665 0.48144 0.07040 -0.12800
F 	F 	0.86750 0.61233 0.00196 -0.40100
H 	H 	0.80387 0.50261 0.98717 0.12000
F 	F 	0.69605 0.36574 0.08025 -0.40900
H 	H 	0.75516 0.47525 0.09327 0.12800
C 	C 	0.35270 0.13584 0.07019 -0.14900
C 	C 	0.34089 0.15418 0.03232 0.02200
C 	C 	0.27690 0.14284 0.01091 0.30100
C 	C 	0.23421 0.08709 0.06506 -0.14100
C 	C 	0.29938 0.10184 0.08651 0.38000
C 	C 	0.39483 0.18310 0.01534 0.00500
F 	F 	0.26447 0.15990 0.97427 -0.40100
F 	F 	0.30998 0.08037 0.12309 -0.42400
H 	H 	0.40251 0.14599 0.08693 0.13400
C 	C 	0.42508 0.24723 0.99344 0.32500
C 	C 	0.48402 0.27841 0.98277 -0.08300
C 	C 	0.51539 0.24717 0.99543 -0.07100
C 	C 	0.48125 0.18084 0.01432 0.35200
C 	C 	0.42091 0.14890 0.02398 -0.13000
F 	F 	0.40015 0.28082 0.98453 -0.38800
H 	H 	0.50862 0.32884 0.96713 0.12100
F 	F 	0.50923 0.14885 0.02573 -0.41400
H 	H 	0.39651 0.09864 0.03988 0.12200
