data_crystal

_cell_length_a 16.32510
_cell_length_b 15.80099
_cell_length_c 28.87200
_cell_angle_alpha 90.99571
_cell_angle_beta  91.09830
_cell_angle_gamma 113.54867

_symmetry_space_group_name_	'P 1'
_symmetry_space_group_name_H-M	'P 1'

loop_
_symmetry_equiv_pos_as_xyz
  x,y,z

loop_
_atom_site_label
_atom_site_type_symbol
_atom_site_fract_x
_atom_site_fract_y
_atom_site_fract_z
_atom_site_charge
Ni	Ni	0.78708 0.35769 0.88332 1.10600
O 	O 	0.65709 0.29364 0.86034 -0.69900
Ni	Ni	0.59393 0.32391 0.91244 1.10300
O 	O 	0.83124 0.27359 0.84529 -0.34000
O 	O 	0.71875 0.14894 0.87403 -0.38900
O 	O 	0.81677 0.44794 0.82859 -0.34700
Ni	Ni	0.60342 0.15982 0.85088 1.09800
O 	O 	0.89166 0.56543 0.92210 -0.38100
O 	O 	0.53811 0.10039 0.91024 -0.36000
O 	O 	0.46442 0.23695 0.89680 -0.36100
O 	O 	0.72378 0.40367 0.92959 -0.70300
O 	O 	0.91191 0.43073 0.90966 -0.34300
O 	O 	0.55303 0.38829 0.96329 -0.35600
O 	O 	0.62718 0.53052 0.93181 -0.37900
Ni	Ni	0.75804 0.53649 0.92565 1.07800
H 	H 	0.64745 0.32359 0.83211 0.17900
H 	H 	0.73850 0.38941 0.96115 0.16800
C 	C 	0.55255 0.13833 0.95219 0.31000
O 	O 	0.75228 0.54304 0.85524 -0.37800
C 	C 	0.79031 0.18357 0.84921 0.32300
C 	C 	0.43675 0.18740 0.85785 0.34100
C 	C 	0.81224 0.52954 0.82968 0.32400
C 	C 	0.56789 0.47635 0.96095 0.28600
C 	C 	0.92823 0.50749 0.93426 0.28500
O 	O 	0.59973 0.22788 0.95859 -0.37400
O 	O 	0.49267 0.17525 0.82877 -0.38000
Ni	Ni	0.64028 0.27208 0.62435 1.10400
O 	O 	0.73313 0.40086 0.64281 -0.69400
Ni	Ni	0.71412 0.48030 0.59366 1.10400
O 	O 	0.69816 0.20263 0.66329 -0.34100
O 	O 	0.82795 0.28135 0.62771 -0.38800
O 	O 	0.56471 0.27132 0.68139 -0.35000
Ni	Ni	0.85878 0.41724 0.64650 1.09600
O 	O 	0.43396 0.20113 0.58341 -0.38000
O 	O 	0.91353 0.45254 0.58208 -0.35500
O 	O 	0.81540 0.60388 0.61193 -0.34500
O 	O 	0.61534 0.35250 0.57768 -0.69600
O 	O 	0.54298 0.15000 0.60257 -0.34500
O 	O 	0.66279 0.54537 0.54727 -0.34300
O 	O 	0.52803 0.48350 0.58178 -0.38500
Ni	Ni	0.49160 0.34187 0.58300 1.07800
H 	H 	0.71738 0.42025 0.67297 0.17800
H 	H 	0.62360 0.33209 0.54615 0.16300
C 	C 	0.88248 0.48840 0.54877 0.29600
O 	O 	0.48566 0.35001 0.65314 -0.37400
C 	C 	0.78102 0.21621 0.65537 0.32200
C 	C 	0.89164 0.60871 0.63063 0.32300
C 	C 	0.49040 0.28512 0.67931 0.32800
C 	C 	0.57828 0.53331 0.54901 0.28600
C 	C 	0.47855 0.14940 0.57423 0.28900
O 	O 	0.79497 0.46316 0.54287 -0.36200
O 	O 	0.89195 0.55114 0.66286 -0.38200
C 	C 	0.06412 0.01081 0.69745 -0.04900
H 	H 	0.08224 0.04339 0.66361 0.10400
C 	C 	0.01820 0.93596 0.77936 -0.05700
H 	H 	0.00194 0.90121 0.81254 0.09500
C 	C 	0.13507 0.05752 0.73615 0.03800
C 	C 	0.10988 0.01841 0.77885 0.03600
Ni	Ni	0.27514 0.65384 0.43697 1.10300
O 	O 	0.36197 0.78319 0.45943 -0.69900
Ni	Ni	0.32752 0.86331 0.41716 1.10700
O 	O 	0.33045 0.59190 0.48264 -0.35000
O 	O 	0.46924 0.67320 0.45423 -0.38400
O 	O 	0.18453 0.65795 0.48583 -0.36900
Ni	Ni	0.48940 0.81209 0.45545 1.07900
O 	O 	0.12412 0.57664 0.35080 -0.35700
O 	O 	0.49563 0.81284 0.38481 -0.37700
O 	O 	0.40512 0.98594 0.44832 -0.34900
O 	O 	0.25515 0.73390 0.38920 -0.69400
O 	O 	0.18202 0.52775 0.41413 -0.35900
O 	O 	0.25315 0.92394 0.38425 -0.33400
O 	O 	0.13190 0.81280 0.41431 -0.39300
Ni	Ni	0.12557 0.69320 0.38141 1.10200
H 	H 	0.34868 0.79490 0.49165 0.16600
H 	H 	0.28119 0.72509 0.35974 0.19100
C 	C 	0.49062 0.88082 0.36106 0.32300
O 	O 	0.06258 0.61498 0.43628 -0.36100
C 	C 	0.41755 0.61450 0.48405 0.28300
C 	C 	0.47585 0.99238 0.47346 0.28600
C 	C 	0.09660 0.62095 0.47835 0.31400
C 	C 	0.16706 0.89000 0.39202 0.32600
C 	C 	0.13860 0.51154 0.37345 0.33600
O 	O 	0.41760 0.89813 0.36285 -0.32900
O 	O 	0.52843 0.95218 0.45904 -0.38000
Ni	Ni	0.39622 0.75304 0.06586 1.10400
O 	O 	0.27578 0.65354 0.04449 -0.70000
Ni	Ni	0.19331 0.67803 0.08843 1.10600
O 	O 	0.46308 0.70873 0.01784 -0.34500
O 	O 	0.40336 0.56376 0.04722 -0.37800
O 	O 	0.37499 0.83959 0.01935 -0.37900
Ni	Ni	0.26543 0.52709 0.04943 1.08500
O 	O 	0.46137 0.90274 0.15261 -0.37100
O 	O 	0.27404 0.52994 0.12019 -0.37600
O 	O 	0.07795 0.58701 0.05899 -0.35400
O 	O 	0.31593 0.76301 0.11515 -0.69700
O 	O 	0.51262 0.86065 0.08587 -0.36000
O 	O 	0.12496 0.74026 0.12539 -0.33800
O 	O 	0.21904 0.88101 0.10047 -0.38200
Ni	Ni	0.34416 0.89481 0.12464 1.10200
H 	H 	0.26059 0.66419 0.01236 0.16800
H 	H 	0.32897 0.73725 0.14402 0.18600
C 	C 	0.20383 0.52076 0.14411 0.32900
O 	O 	0.40852 0.96637 0.06743 -0.36100
C 	C 	0.45489 0.62219 0.01712 0.28100
C 	C 	0.07960 0.51601 0.03487 0.28200
C 	C 	0.40976 0.92986 0.02614 0.31100
C 	C 	0.14799 0.83004 0.12324 0.32500
C 	C 	0.52755 0.90323 0.12692 0.33200
O 	O 	0.17029 0.58399 0.14135 -0.33400
O 	O 	0.12836 0.47128 0.04934 -0.37000
C 	C 	0.85110 0.06355 0.21799 0.03800
C 	C 	0.82472 0.05034 0.26355 0.04400
C 	C 	0.12074 0.27126 0.18521 0.06700
C 	C 	0.05995 0.26897 0.22051 -0.00400
C 	C 	0.04848 0.35242 0.22985 0.05900
C 	C 	0.10745 0.43631 0.21089 0.12800
C 	C 	0.15732 0.43471 0.17164 -0.10500
C 	C 	0.15782 0.34899 0.15712 0.13100
Br	Br	0.20068 0.33304 0.09700 -0.22800
Br	Br	0.16115 0.17436 0.17667 -0.14800
Br	Br	0.12086 0.55175 0.24009 -0.14600
C 	C 	0.72970 0.09897 0.17977 0.06800
C 	C 	0.78997 0.05662 0.17799 -0.01100
C 	C 	0.77712 0.99092 0.14263 0.07200
C 	C 	0.68962 0.93311 0.12992 0.12700
C 	C 	0.61968 0.96024 0.14184 -0.11500
C 	C 	0.64134 0.04768 0.16420 0.12100
Br	Br	0.55544 0.10326 0.16734 -0.16700
Br	Br	0.77637 0.23066 0.17760 -0.12700
Br	Br	0.66738 0.81812 0.09700 -0.15600
Br	Br	0.86781 0.01294 0.09742 -0.14700
C 	C 	0.01467 0.95552 0.21062 -0.00600
C 	C 	0.10597 0.97272 0.21938 0.07000
C 	C 	0.14874 0.92959 0.19143 0.13800
C 	C 	0.10341 0.87509 0.15252 -0.11600
C 	C 	0.01451 0.86084 0.14267 0.13200
Br	Br	0.84105 0.83277 0.17322 -0.12000
Br	Br	0.26963 0.94474 0.20687 -0.25400
Br	Br	0.17376 0.05531 0.26861 -0.12500
C 	C 	0.60986 0.02429 0.32734 0.11900
C 	C 	0.56108 0.92747 0.32591 -0.10000
C 	C 	0.59020 0.87395 0.29654 0.12000
C 	C 	0.67750 0.91151 0.27912 0.06300
C 	C 	0.72685 0.00869 0.27892 -0.01200
C 	C 	0.68940 0.06497 0.30163 0.06900
Br	Br	0.74439 0.19643 0.29736 -0.11400
Br	Br	0.56911 0.10166 0.36440 -0.14100
Br	Br	0.73516 0.82979 0.26977 -0.13600
Br	Br	0.51094 0.74884 0.28001 -0.15800
C 	C 	0.14983 0.37601 0.33475 0.12200
C 	C 	0.09704 0.41679 0.35566 -0.10800
C 	C 	0.00796 0.36163 0.36639 0.13300
C 	C 	0.02131 0.23222 0.32635 -0.00500
C 	C 	0.11442 0.28055 0.32672 0.06500
Br	Br	0.18711 0.21713 0.34427 -0.13000
Br	Br	0.27132 0.44957 0.31894 -0.17000
Br	Br	0.87979 0.18590 0.39316 -0.14600
C 	C 	0.06982 0.86344 0.32203 0.11500
C 	C 	0.10746 0.91621 0.36292 -0.11200
C 	C 	0.06638 0.97119 0.38239 0.12900
C 	C 	0.98695 0.96898 0.36208 0.06500
C 	C 	0.96758 0.93891 0.31549 0.00400
C 	C 	0.99363 0.86805 0.30092 0.06600
Br	Br	0.12177 0.78456 0.29515 -0.26400
Br	Br	0.88897 0.94890 0.40242 -0.15000
Br	Br	0.11061 0.03783 0.44023 -0.14000
C 	C 	0.50610 0.05890 0.51240 -0.08300
C 	C 	0.44738 0.08095 0.53626 -0.08600
H 	H 	0.57643 0.08753 0.52298 0.08200
H 	H 	0.37708 0.05276 0.52567 0.09400
C 	C 	0.03504 0.57682 0.51730 -0.07100
H 	H 	0.91454 0.54500 0.47789 0.10500
H 	H 	0.06434 0.57410 0.55100 0.09900
C 	C 	0.54297 0.58474 0.51794 -0.08300
C 	C 	0.45423 0.56200 0.51358 -0.08000
H 	H 	0.58947 0.64058 0.49814 0.08900
H 	H 	0.40799 0.50495 0.53285 0.07800
C 	C 	0.82161 0.15859 0.67629 -0.11200
C 	C 	0.79193 0.06511 0.66165 0.13000
C 	C 	0.85013 0.01964 0.66617 0.07500
Br	Br	0.06707 0.22243 0.65493 -0.14900
Br	Br	0.84004 0.92598 0.62106 -0.12400
Br	Br	0.67548 0.00200 0.63228 -0.15000
C 	C 	0.37831 0.13462 0.70679 0.11500
C 	C 	0.41352 0.23143 0.70908 -0.10700
C 	C 	0.35818 0.27328 0.72691 0.11700
C 	C 	0.26651 0.21825 0.73532 0.06500
C 	C 	0.23104 0.12135 0.72508 -0.01400
C 	C 	0.28614 0.08705 0.70080 0.07200
Br	Br	0.24958 0.03753 0.63957 -0.16400
Br	Br	0.45403 0.06831 0.70285 -0.13900
Br	Br	0.18959 0.27864 0.75184 -0.12000
Br	Br	0.40844 0.40372 0.74193 -0.13700
C 	C 	0.97467 0.68743 0.62103 -0.12800
C 	C 	0.97016 0.76291 0.59780 0.13500
C 	C 	0.01879 0.85167 0.61654 0.06700
Br	Br	0.22703 0.83033 0.68006 -0.11800
Br	Br	0.04719 0.95649 0.57745 -0.12900
Br	Br	0.90617 0.74496 0.53926 -0.15500
C 	C 	0.51066 0.07967 0.99264 -0.06700
C 	C 	0.44998 0.99094 0.98642 -0.07200
H 	H 	0.52894 0.10938 0.02746 0.09600
H 	H 	0.43282 0.96117 0.95159 0.10500
C 	C 	0.50195 0.50670 0.98218 -0.07300
C 	C 	0.51833 0.59625 0.99022 -0.07100
H 	H 	0.44017 0.45373 0.99399 0.08600
H 	H 	0.57865 0.65010 0.97763 0.09200
C 	C 	0.80894 0.99678 0.77280 0.06000
C 	C 	0.82628 0.12135 0.82816 -0.11600
C 	C 	0.78097 0.06490 0.78948 0.11700
Br	Br	0.67349 0.07152 0.76426 -0.23100
Br	Br	0.72194 0.88508 0.74517 -0.12200
Br	Br	0.92884 0.94776 0.88228 -0.15600
C 	C 	0.30152 0.04247 0.84512 0.12700
C 	C 	0.34167 0.13999 0.84856 -0.12400
C 	C 	0.28714 0.19026 0.84796 0.12400
C 	C 	0.19636 0.14382 0.83617 0.06900
C 	C 	0.16489 0.05101 0.82181 -0.00800
C 	C 	0.20916 0.99890 0.83923 0.06900
Br	Br	0.14552 0.89974 0.87915 -0.15100
Br	Br	0.37073 0.96876 0.84816 -0.18000
Br	Br	0.11393 0.19474 0.85512 -0.13000
Br	Br	0.33620 0.32130 0.86216 -0.16600
C 	C 	0.82637 0.64274 0.76626 0.11600
C 	C 	0.86744 0.60281 0.79721 -0.11000
C 	C 	0.87920 0.72067 0.74075 0.06400
Br	Br	0.82483 0.75879 0.69118 -0.14700
Br	Br	0.69852 0.58591 0.75542 -0.17400
Br	Br	0.14172 0.76810 0.78434 -0.12200
C 	C 	0.97093 0.01098 0.23566 0.04400
Br	Br	0.09133 0.60496 0.65889 -0.18100
C 	C 	0.93122 0.06489 0.69134 -0.01400
H 	H 	0.03893 0.61413 0.97349 0.08100
C 	C 	0.88914 0.99625 0.79070 -0.00600
Br	Br	0.90761 0.75776 0.27192 -0.12600
C 	C 	0.10178 0.79235 0.66591 0.06400
C 	C 	0.90705 0.20228 0.69764 0.11800
Br	Br	0.01977 0.56308 0.82613 -0.14100
C 	C 	0.96803 0.89308 0.17396 0.07600
Br	Br	0.92151 0.14746 0.91661 -0.15100
C 	C 	0.94415 0.99845 0.28127 0.04200
Br	Br	0.94172 0.35098 0.25625 -0.13200
H 	H 	0.98699 0.40679 0.98780 0.09200
C 	C 	0.88851 0.09892 0.85379 0.13300
C 	C 	0.96175 0.63526 0.79829 0.11700
C 	C 	0.95182 0.08828 0.21084 -0.05100
H 	H 	0.97170 0.09724 0.17437 0.09500
Br	Br	0.95582 0.79700 0.08598 -0.15700
C 	C 	0.05198 0.70291 0.64835 0.12300
C 	C 	0.06682 0.85924 0.65858 0.00200
C 	C 	0.00335 0.54010 0.96727 -0.07700
C 	C 	0.01968 0.48085 0.99461 -0.08900
C 	C 	0.97280 0.76447 0.74892 -0.01200
C 	C 	0.97681 0.01320 0.71604 0.03800
C 	C 	0.04782 0.90763 0.69913 0.03700
C 	C 	0.95347 0.97595 0.75958 0.03800
C 	C 	0.02129 0.86777 0.74170 0.03800
C 	C 	0.90276 0.06595 0.29814 -0.05700
H 	H 	0.87993 0.05610 0.33359 0.10000
C 	C 	0.99931 0.17613 0.24166 0.03900
C 	C 	0.97476 0.16370 0.28781 0.04200
C 	C 	0.97233 0.26696 0.35516 0.07600
Br	Br	0.93295 0.41590 0.39359 -0.15700
C 	C 	0.94404 0.53814 0.51088 -0.05900
C 	C 	0.96733 0.16086 0.69335 0.07200
Br	Br	0.94593 0.32389 0.72536 -0.22300
C 	C 	0.91339 0.02869 0.83705 0.06600
C 	C 	0.01407 0.71834 0.77633 0.06500
