data_crystal

_cell_length_a 18.29891
_cell_length_b 14.77184
_cell_length_c 43.46202
_cell_angle_alpha 90.93013
_cell_angle_beta  91.30646
_cell_angle_gamma 111.10342

_symmetry_space_group_name_	'P 1'
_symmetry_space_group_name_H-M	'P 1'

loop_
_symmetry_equiv_pos_as_xyz
  x,y,z

loop_
_atom_site_label
_atom_site_type_symbol
_atom_site_fract_x
_atom_site_fract_y
_atom_site_fract_z
_atom_site_charge
Ni	Ni	0.70307 0.28091 0.89310 1.10700
O 	O 	0.61829 0.23277 0.85847 -0.69500
Ni	Ni	0.52918 0.25430 0.87999 1.10700
O 	O 	0.77496 0.21359 0.87698 -0.32800
O 	O 	0.70057 0.09817 0.84239 -0.31400
O 	O 	0.76334 0.39953 0.86749 -0.28400
Ni	Ni	0.58632 0.09267 0.84967 1.09900
O 	O 	0.76969 0.48665 0.92399 -0.34900
O 	O 	0.59003 0.06905 0.89585 -0.37700
O 	O 	0.44375 0.19192 0.84712 -0.31400
O 	O 	0.61774 0.31430 0.91194 -0.70800
O 	O 	0.78226 0.33801 0.92830 -0.34500
O 	O 	0.45473 0.30140 0.90474 -0.29900
O 	O 	0.54158 0.45733 0.90527 -0.37500
Ni	Ni	0.65299 0.45585 0.91446 1.07900
H 	H 	0.63146 0.27070 0.83949 0.21600
H 	H 	0.60542 0.28590 0.93251 0.16600
C 	C 	0.53786 0.08194 0.91422 0.25500
O 	O 	0.67155 0.47065 0.86867 -0.38700
C 	C 	0.76522 0.17279 0.84945 0.30800
C 	C 	0.42654 0.10106 0.83817 0.30200
C 	C 	0.73372 0.46192 0.85657 0.30300
C 	C 	0.47882 0.39091 0.91596 0.27700
C 	C 	0.80007 0.42880 0.93803 0.29100
O 	O 	0.49202 0.12835 0.90475 -0.31300
O 	O 	0.46664 0.05019 0.84957 -0.34400
Ni	Ni	0.61120 0.35182 0.57078 1.10700
O 	O 	0.69200 0.36482 0.53739 -0.69200
Ni	Ni	0.76239 0.30327 0.55730 1.11100
O 	O 	0.56763 0.45086 0.55279 -0.33900
O 	O 	0.69023 0.55771 0.54770 -0.38000
O 	O 	0.52699 0.24673 0.54404 -0.35800
Ni	Ni	0.75382 0.49367 0.52274 1.08500
O 	O 	0.50131 0.16165 0.59865 -0.34900
O 	O 	0.84767 0.55069 0.55334 -0.36500
O 	O 	0.85280 0.33509 0.52662 -0.30500
O 	O 	0.67543 0.28006 0.58877 -0.69500
O 	O 	0.53254 0.32626 0.60489 -0.32600
O 	O 	0.81044 0.21919 0.58166 -0.25200
O 	O 	0.69410 0.09091 0.58129 -0.34100
Ni	Ni	0.60569 0.14413 0.59032 1.09500
H 	H 	0.66634 0.32462 0.51903 0.16000
H 	H 	0.69632 0.30642 0.60957 0.21000
C 	C 	0.87674 0.50091 0.57159 0.29200
O 	O 	0.58250 0.13098 0.54421 -0.38400
C 	C 	0.61534 0.53117 0.54118 0.29200
C 	C 	0.86790 0.40581 0.50653 0.28000
C 	C 	0.53821 0.17228 0.53082 0.29300
C 	C 	0.76673 0.13351 0.59167 0.29000
C 	C 	0.49231 0.23671 0.61305 0.30800
O 	O 	0.82955 0.42101 0.58377 -0.32100
O 	O 	0.81134 0.43199 0.49538 -0.38200
Ni	Ni	0.97798 0.93064 0.74384 1.10900
O 	O 	0.01132 0.84060 0.71643 -0.70100
Ni	Ni	0.06761 0.93169 0.68397 1.11100
O 	O 	0.92112 0.82022 0.77255 -0.30600
O 	O 	0.84697 0.72311 0.73337 -0.30100
O 	O 	0.07564 0.95980 0.77296 -0.32100
Ni	Ni	0.91957 0.74216 0.69600 1.08600
O 	O 	0.06322 0.13689 0.77125 -0.31400
O 	O 	0.87165 0.83855 0.67981 -0.31000
O 	O 	0.09693 0.83180 0.65899 -0.28000
O 	O 	0.02785 0.02182 0.70976 -0.66100
O 	O 	0.94063 0.02085 0.76900 -0.27700
O 	O 	0.14292 0.03939 0.65844 -0.25000
O 	O 	0.17077 0.17698 0.68820 -0.31500
Ni	Ni	0.10923 0.13645 0.72861 1.09400
H 	H 	0.04547 0.81158 0.72720 0.21400
H 	H 	0.98930 0.04274 0.69859 0.20800
C 	C 	0.90710 0.90423 0.65972 0.26300
O 	O 	0.17089 0.05277 0.74139 -0.34500
C 	C 	0.87267 0.73517 0.76219 0.28200
C 	C 	0.04122 0.74884 0.65038 0.29000
C 	C 	0.14951 0.99350 0.76446 0.27100
C 	C 	0.19450 0.11927 0.67096 0.29000
C 	C 	0.98727 0.10963 0.77599 0.26700
O 	O 	0.97929 0.91740 0.65208 -0.32000
O 	O 	0.96705 0.73649 0.65447 -0.37400
Ni	Ni	0.25147 0.67557 0.39498 1.11200
O 	O 	0.34147 0.75505 0.36833 -0.70200
Ni	Ni	0.43337 0.76203 0.39487 1.11700
O 	O 	0.17197 0.68111 0.36198 -0.29400
O 	O 	0.22445 0.84770 0.36200 -0.32800
O 	O 	0.26131 0.55905 0.37190 -0.32900
Ni	Ni	0.34659 0.88613 0.36111 1.10000
O 	O 	0.23558 0.58599 0.46500 -0.38300
O 	O 	0.35132 0.92335 0.40688 -0.36700
O 	O 	0.51601 0.82733 0.36393 -0.32400
O 	O 	0.34314 0.70239 0.42415 -0.69400
O 	O 	0.16230 0.58522 0.42058 -0.32000
O 	O 	0.51477 0.73086 0.42170 -0.33800
O 	O 	0.43048 0.57516 0.42316 -0.36600
Ni	Ni	0.33161 0.58040 0.44401 1.08300
H 	H 	0.34231 0.72143 0.34852 0.23500
H 	H 	0.34139 0.75022 0.44003 0.16700
C 	C 	0.41444 0.93787 0.42416 0.25100
O 	O 	0.25954 0.47322 0.41511 -0.36900
C 	C 	0.17287 0.76422 0.35114 0.28700
C 	C 	0.51541 0.90540 0.34956 0.30800
C 	C 	0.25806 0.47854 0.38505 0.32000
C 	C 	0.49877 0.64151 0.43080 0.28600
C 	C 	0.16745 0.56908 0.45038 0.29700
O 	O 	0.46395 0.89488 0.41741 -0.35400
O 	O 	0.46682 0.94990 0.35785 -0.34100
Ni	Ni	0.36397 0.68918 0.06078 1.10700
O 	O 	0.26730 0.65464 0.03175 -0.69900
Ni	Ni	0.20431 0.72257 0.05346 1.10800
O 	O 	0.41125 0.60259 0.03720 -0.32800
O 	O 	0.29883 0.46999 0.03520 -0.36600
O 	O 	0.43010 0.79661 0.03211 -0.33400
Ni	Ni	0.20414 0.51499 0.03179 1.08000
O 	O 	0.47214 0.88915 0.08740 -0.33300
O 	O 	0.20151 0.51361 0.07866 -0.37900
O 	O 	0.11210 0.68304 0.02256 -0.32300
O 	O 	0.29986 0.75484 0.08298 -0.70200
O 	O 	0.45636 0.72902 0.09143 -0.32700
O 	O 	0.15592 0.80694 0.07726 -0.26600
O 	O 	0.26742 0.94045 0.08117 -0.36100
Ni	Ni	0.36214 0.89473 0.08408 1.08800
H 	H 	0.27996 0.67828 0.01062 0.16700
H 	H 	0.28661 0.72951 0.10387 0.22500
C 	C 	0.15384 0.54605 0.09327 0.31000
O 	O 	0.36366 0.89982 0.03745 -0.39800
C 	C 	0.36648 0.52052 0.02378 0.28200
C 	C 	0.08049 0.59189 0.01287 0.28100
C 	C 	0.40997 0.86782 0.02175 0.30300
C 	C 	0.19800 0.88925 0.09120 0.28900
C 	C 	0.49006 0.82006 0.10094 0.29700
O 	O 	0.13559 0.61715 0.08191 -0.30400
O 	O 	0.09554 0.52341 0.02788 -0.37400
Ni	Ni	0.95900 0.03588 0.27069 1.12400
O 	O 	0.97715 0.15039 0.24269 -0.70800
Ni	Ni	0.91425 0.08295 0.20553 1.11300
O 	O 	0.02889 0.12553 0.30459 -0.25200
O 	O 	0.12997 0.17184 0.27133 -0.31900
O 	O 	0.86170 0.06131 0.28525 -0.29000
Ni	Ni	0.08512 0.20816 0.23064 1.10100
O 	O 	0.87655 0.79007 0.26278 -0.29800
O 	O 	0.08995 0.08236 0.21219 -0.29100
O 	O 	0.92717 0.20566 0.18232 -0.28700
O 	O 	0.91333 0.96703 0.23077 -0.70800
O 	O 	0.93331 0.91718 0.29753 -0.30100
O 	O 	0.82725 0.00028 0.17520 -0.28800
O 	O 	0.74935 0.92508 0.21449 -0.32500
Ni	Ni	0.81586 0.86017 0.23897 1.11900
H 	H 	0.95760 0.19970 0.25120 0.19200
H 	H 	0.95007 0.93834 0.22238 0.21400
C 	C 	0.05855 0.05056 0.18496 0.31000
O 	O 	0.78419 0.90177 0.27997 -0.32000
C 	C 	0.10212 0.17822 0.29871 0.26900
C 	C 	0.99862 0.27119 0.17942 0.23900
C 	C 	0.79261 0.99167 0.28677 0.24700
C 	C 	0.75929 0.94111 0.18484 0.25600
C 	C 	0.92819 0.83259 0.28545 0.28100
O 	O 	0.99351 0.06201 0.17606 -0.31400
O 	O 	0.06175 0.25175 0.18796 -0.31300
C 	C 	0.05731 0.44447 0.16778 0.04000
C 	C 	0.01019 0.35025 0.15775 0.06700
C 	C 	0.99737 0.32900 0.12576 -0.11800
C 	C 	0.04584 0.39399 0.10503 0.09200
C 	C 	0.10120 0.48292 0.11556 0.00200
C 	C 	0.10366 0.51158 0.14690 -0.06300
C 	C 	0.15875 0.61094 0.15836 0.77500
H 	H 	0.06339 0.46203 0.19223 0.09600
H 	H 	0.04153 0.37499 0.08068 0.08100
C 	C 	0.93458 0.23553 0.11378 0.79400
F 	F 	0.15132 0.62558 0.18951 -0.39200
F 	F 	0.14243 0.68262 0.14274 -0.42300
F 	F 	0.23541 0.61977 0.15348 -0.44100
F 	F 	0.86439 0.22283 0.12765 -0.40800
F 	F 	0.95703 0.15763 0.12004 -0.40800
F 	F 	0.92197 0.23699 0.08229 -0.40500
C 	C 	0.55998 0.79436 0.14760 0.07100
C 	C 	0.56163 0.84684 0.12086 0.00300
C 	C 	0.63168 0.92351 0.11353 -0.05500
C 	C 	0.69240 0.95748 0.13594 0.01800
C 	C 	0.69138 0.90482 0.16268 0.04500
C 	C 	0.62685 0.81721 0.16717 -0.09000
C 	C 	0.62880 0.74703 0.19210 0.78500
H 	H 	0.50689 0.73459 0.15290 0.10500
H 	H 	0.74151 0.02400 0.13223 0.15500
C 	C 	0.64288 0.96917 0.08207 0.74600
F 	F 	0.57356 0.65542 0.18582 -0.39500
F 	F 	0.61238 0.77979 0.22015 -0.41600
F 	F 	0.70137 0.73772 0.19398 -0.47100
F 	F 	0.60956 0.03953 0.08121 -0.40400
F 	F 	0.60930 0.90001 0.05897 -0.42000
F 	F 	0.72177 0.01253 0.07609 -0.36900
C 	C 	0.04854 0.93451 0.14207 0.06800
C 	C 	0.09672 0.00423 0.16333 0.04800
C 	C 	0.17949 0.03859 0.16019 -0.04000
C 	C 	0.21088 0.99638 0.13719 0.01100
C 	C 	0.16203 0.93337 0.11446 0.03900
C 	C 	0.07975 0.90950 0.11551 -0.07400
C 	C 	0.02530 0.86372 0.08802 0.79000
H 	H 	0.98565 0.90590 0.14493 0.09900
H 	H 	0.27357 0.01316 0.13676 0.11100
C 	C 	0.23461 0.11939 0.18098 0.77400
F 	F 	0.95720 0.88405 0.08931 -0.40500
F 	F 	0.00504 0.76403 0.08797 -0.40300
F 	F 	0.06051 0.89984 0.06071 -0.41400
F 	F 	0.23506 0.08620 0.21053 -0.38400
F 	F 	0.21145 0.19882 0.18132 -0.44100
F 	F 	0.31072 0.15064 0.17085 -0.40000
C 	C 	0.65588 0.98506 0.28482 0.01600
C 	C 	0.72737 0.01041 0.30149 0.07500
C 	C 	0.72898 0.02722 0.33372 -0.10600
C 	C 	0.65770 0.00071 0.34912 0.10100
C 	C 	0.58591 0.96096 0.33271 -0.01500
C 	C 	0.58464 0.96050 0.30019 -0.05900
C 	C 	0.50748 0.92565 0.28192 0.77500
H 	H 	0.65537 0.97615 0.26001 0.11100
H 	H 	0.65788 0.00485 0.37404 0.09200
C 	C 	0.80620 0.06749 0.35190 0.79500
F 	F 	0.51836 0.94607 0.25101 -0.39900
F 	F 	0.45882 0.97110 0.29296 -0.43800
F 	F 	0.47133 0.82637 0.28465 -0.40600
F 	F 	0.85456 0.15203 0.33888 -0.40500
F 	F 	0.84253 0.00000 0.35179 -0.38500
F 	F 	0.79552 0.08926 0.38219 -0.40500
C 	C 	0.22234 0.31754 0.31462 0.05300
C 	C 	0.15584 0.23942 0.32324 0.02800
C 	C 	0.13905 0.22673 0.35495 -0.08400
C 	C 	0.17472 0.30525 0.37566 0.06700
C 	C 	0.23532 0.38854 0.36607 0.00400
C 	C 	0.26567 0.38859 0.33645 -0.08100
C 	C 	0.34218 0.46578 0.32750 0.78000
H 	H 	0.23909 0.32456 0.29076 0.09600
H 	H 	0.15422 0.30234 0.39897 0.09800
C 	C 	0.08700 0.12989 0.36717 0.78400
F 	F 	0.37813 0.42937 0.30534 -0.39500
F 	F 	0.39370 0.49670 0.35263 -0.43800
F 	F 	0.32758 0.54409 0.31564 -0.42300
F 	F 	0.09402 0.05349 0.35017 -0.40200
F 	F 	0.00985 0.12394 0.36612 -0.36300
F 	F 	0.10799 0.12042 0.39743 -0.39400
C 	C 	0.96820 0.75379 0.32884 0.05400
C 	C 	0.97902 0.78399 0.29834 0.02200
C 	C 	0.04954 0.79189 0.28383 -0.08300
C 	C 	0.11236 0.78518 0.30166 0.06300
C 	C 	0.10423 0.76509 0.33302 0.02000
C 	C 	0.03088 0.74668 0.34677 -0.05900
C 	C 	0.01927 0.71954 0.38040 0.78500
H 	H 	0.91252 0.74305 0.33923 0.11500
H 	H 	0.16845 0.79791 0.29133 0.09800
C 	C 	0.06096 0.81744 0.25018 0.78500
F 	F 	0.94745 0.71769 0.39040 -0.41700
F 	F 	0.07694 0.78627 0.39884 -0.42100
F 	F 	0.02260 0.62834 0.38418 -0.42400
F 	F 	0.07456 0.91506 0.24716 -0.46500
F 	F 	0.99522 0.76345 0.23263 -0.43600
F 	F 	0.12411 0.79851 0.23870 -0.38800
C 	C 	0.49518 0.12900 0.50210 -0.07300
C 	C 	0.53270 0.15428 0.47408 0.02100
C 	C 	0.50311 0.09624 0.44758 -0.00700
C 	C 	0.43527 0.01188 0.44914 0.01400
C 	C 	0.39326 0.99252 0.47634 -0.06800
C 	C 	0.42279 0.05092 0.50284 0.06400
H 	H 	0.58697 0.21647 0.47324 0.03800
H 	H 	0.33963 0.92944 0.47730 0.07800
C 	C 	0.37952 0.02899 0.53086 0.11200
C 	C 	0.54323 0.12294 0.41899 0.12900
N 	N 	0.34487 0.01152 0.55332 -0.04000
N 	N 	0.57543 0.14447 0.39611 -0.07000
C 	C 	0.09498 0.52970 0.46747 -0.04600
C 	C 	0.04920 0.58666 0.47160 0.04000
C 	C 	0.97620 0.54828 0.48508 0.00100
C 	C 	0.94762 0.45030 0.49436 -0.02300
C 	C 	0.99500 0.39432 0.49121 -0.00800
C 	C 	0.06828 0.43334 0.47769 0.04900
H 	H 	0.07016 0.66098 0.46391 0.09600
H 	H 	0.97401 0.31964 0.49851 0.12100
C 	C 	0.11453 0.37304 0.47346 0.13200
C 	C 	0.93144 0.61038 0.48936 0.11800
N 	N 	0.15154 0.32472 0.47006 -0.05800
N 	N 	0.89585 0.66045 0.49268 -0.09000
C 	C 	0.54499 0.62253 0.45636 -0.05900
C 	C 	0.56691 0.68718 0.48191 -0.01300
C 	C 	0.59045 0.65837 0.50982 0.02000
C 	C 	0.59144 0.56384 0.51228 -0.08200
C 	C 	0.57540 0.50217 0.48615 -0.01300
C 	C 	0.55373 0.53169 0.45812 0.00900
H 	H 	0.56189 0.75798 0.48052 0.06300
H 	H 	0.58030 0.43127 0.48766 0.02700
C 	C 	0.54084 0.46856 0.43120 0.11400
C 	C 	0.61196 0.72548 0.53593 0.11300
N 	N 	0.53050 0.41794 0.40965 -0.06200
N 	N 	0.62927 0.77930 0.55683 -0.07000
C 	C 	0.78634 0.05853 0.63986 0.09300
C 	C 	0.80373 0.07577 0.60882 0.00900
C 	C 	0.84808 0.02842 0.59367 -0.03900
C 	C 	0.87745 0.96794 0.61054 0.01900
C 	C 	0.86256 0.95308 0.64199 0.04200
C 	C 	0.81337 0.99544 0.65660 -0.12700
C 	C 	0.78463 0.96826 0.68898 0.78100
H 	H 	0.75003 0.09295 0.65076 0.08800
H 	H 	0.91339 0.93347 0.59940 0.13500
C 	C 	0.86581 0.04417 0.55974 0.78500
F 	F 	0.73894 0.01940 0.69893 -0.38200
F 	F 	0.84720 0.98839 0.70966 -0.48400
F 	F 	0.73945 0.87044 0.68939 -0.39500
F 	F 	0.91237 0.14004 0.55549 -0.38500
F 	F 	0.79683 0.02197 0.54248 -0.42200
F 	F 	0.90497 0.98623 0.54876 -0.40800
C 	C 	0.35101 0.21101 0.61140 0.06800
C 	C 	0.41843 0.21924 0.62896 0.01700
C 	C 	0.41346 0.20409 0.66100 -0.07400
C 	C 	0.33955 0.17491 0.67455 0.06000
C 	C 	0.27151 0.16148 0.65664 0.03400
C 	C 	0.27776 0.18602 0.62515 -0.07400
C 	C 	0.20641 0.18181 0.60574 0.78200
H 	H 	0.35555 0.22238 0.58683 0.09600
H 	H 	0.33455 0.16087 0.69894 0.11700
C 	C 	0.48630 0.21540 0.68046 0.78200
F 	F 	0.22821 0.23532 0.57940 -0.40300
F 	F 	0.15938 0.21959 0.62203 -0.39000
F 	F 	0.16369 0.08656 0.59703 -0.36000
F 	F 	0.54289 0.30593 0.67622 -0.41500
F 	F 	0.51535 0.14466 0.67177 -0.42100
F 	F 	0.47081 0.20666 0.71153 -0.39900
C 	C 	0.00195 0.64448 0.57527 0.09400
C 	C 	0.95735 0.55104 0.58518 -0.00700
C 	C 	0.98399 0.51762 0.61204 -0.09600
C 	C 	0.03306 0.58695 0.63340 0.06500
C 	C 	0.05694 0.68610 0.62700 0.02800
C 	C 	0.05563 0.71138 0.59589 -0.09800
C 	C 	0.10020 0.81367 0.58599 0.79100
H 	H 	0.99040 0.66742 0.55273 0.07000
H 	H 	0.04398 0.56494 0.65619 0.08600
C 	C 	0.96725 0.41082 0.61663 0.77400
F 	F 	0.11650 0.81438 0.55502 -0.41500
F 	F 	0.17060 0.85278 0.60248 -0.40500
F 	F 	0.05577 0.87067 0.59097 -0.39500
F 	F 	0.95933 0.36231 0.58853 -0.41000
F 	F 	0.89936 0.37101 0.63282 -0.43300
F 	F 	0.02828 0.39793 0.63310 -0.39300
C 	C 	0.01255 0.56301 0.99139 -0.02700
C 	C 	0.94393 0.57698 0.00008 0.00200
C 	C 	0.87376 0.53249 0.98303 0.02100
C 	C 	0.87234 0.47407 0.95685 -0.02500
C 	C 	0.94180 0.46377 0.94744 0.00900
C 	C 	0.01175 0.50806 0.96449 0.03000
H 	H 	0.94447 0.61919 0.02081 0.10600
H 	H 	0.94142 0.42179 0.92667 0.10500
C 	C 	0.08274 0.49708 0.95422 0.10300
C 	C 	0.80300 0.54432 0.99317 0.10900
N 	N 	0.13961 0.48831 0.94602 -0.09300
N 	N 	0.74632 0.55378 0.00129 -0.09000
C 	C 	0.51780 0.02585 0.94256 0.00400
C 	C 	0.52073 0.07544 0.97060 -0.01700
C 	C 	0.48745 0.02466 0.99680 0.06400
C 	C 	0.45021 0.92252 0.99502 -0.07300
C 	C 	0.45102 0.87241 0.96741 0.02800
C 	C 	0.48398 0.92343 0.94114 -0.01700
H 	H 	0.54700 0.15405 0.97179 0.04800
H 	H 	0.42385 0.79387 0.96612 0.04500
C 	C 	0.47971 0.87048 0.91250 0.11900
C 	C 	0.49205 0.07801 0.02540 0.12600
N 	N 	0.47629 0.82822 0.88953 -0.08500
N 	N 	0.49564 0.12088 0.04826 -0.06300
C 	C 	0.43858 0.41586 0.94186 -0.04300
C 	C 	0.42897 0.36246 0.96885 -0.00700
C 	C 	0.40633 0.39643 0.99594 0.02000
C 	C 	0.39267 0.48452 0.99602 -0.05900
C 	C 	0.39908 0.53571 0.96874 -0.00300
C 	C 	0.42071 0.50114 0.94159 0.01200
H 	H 	0.44241 0.29665 0.96909 0.06100
H 	H 	0.38601 0.60178 0.96857 0.04100
C 	C 	0.42211 0.55184 0.91334 0.11800
C 	C 	0.40000 0.34229 0.02378 0.11800
N 	N 	0.42317 0.59232 0.89068 -0.06900
N 	N 	0.39495 0.29887 0.04606 -0.06600
C 	C 	0.90413 0.20627 0.78362 0.06000
C 	C 	0.95749 0.16789 0.79643 0.03100
C 	C 	0.95933 0.15593 0.82861 -0.09600
C 	C 	0.89653 0.15995 0.84596 0.07600
C 	C 	0.83611 0.18368 0.83199 0.02400
C 	C 	0.84317 0.21492 0.80121 -0.07100
C 	C 	0.78297 0.25060 0.78641 0.78300
H 	H 	0.90516 0.21950 0.75914 0.09900
H 	H 	0.89276 0.14044 0.86996 0.09900
C 	C 	0.02367 0.12898 0.84393 0.79700
F 	F 	0.80931 0.29714 0.75920 -0.40700
F 	F 	0.76766 0.31592 0.80595 -0.44800
F 	F 	0.71432 0.17268 0.78008 -0.41900
F 	F 	0.09573 0.18437 0.83266 -0.41000
F 	F 	0.00983 0.03179 0.83813 -0.40400
F 	F 	0.02690 0.14531 0.87548 -0.39700
C 	C 	0.21066 0.01869 0.81687 0.07700
C 	C 	0.21111 0.98845 0.78614 0.01200
C 	C 	0.27801 0.97273 0.77527 -0.11700
C 	C 	0.34853 0.00874 0.79285 0.09500
C 	C 	0.35021 0.04926 0.82237 0.00700
C 	C 	0.27899 0.04481 0.83568 -0.06900
C 	C 	0.27597 0.07194 0.86933 0.78100
H 	H 	0.15844 0.02719 0.82561 0.14300
H 	H 	0.40237 0.00750 0.78327 0.09500
C 	C 	0.27529 0.92047 0.74473 0.79200
F 	F 	0.20045 0.03157 0.87983 -0.38400
F 	F 	0.30041 0.17172 0.87283 -0.40800
F 	F 	0.32345 0.03816 0.88739 -0.42000
F 	F 	0.29041 0.98596 0.72123 -0.44800
F 	F 	0.20249 0.84865 0.73932 -0.45700
F 	F 	0.33076 0.87685 0.74459 -0.40800
C 	C 	0.72201 0.54656 0.80904 0.06400
C 	C 	0.77075 0.52377 0.83055 0.02700
C 	C 	0.85364 0.56745 0.82838 -0.07200
C 	C 	0.88463 0.63026 0.80410 0.05700
C 	C 	0.83586 0.65924 0.78446 0.01800
C 	C 	0.75347 0.61954 0.78759 -0.07900
C 	C 	0.69872 0.65365 0.76810 0.78300
H 	H 	0.65907 0.50979 0.80988 0.09700
H 	H 	0.94734 0.65927 0.80091 0.09200
C 	C 	0.90943 0.54814 0.85164 0.78200
F 	F 	0.62443 0.62405 0.77999 -0.40600
F 	F 	0.69246 0.61520 0.73852 -0.39400
F 	F 	0.72646 0.75395 0.76720 -0.39500
F 	F 	0.90681 0.45387 0.84782 -0.41400
F 	F 	0.88959 0.56295 0.88129 -0.43500
F 	F 	0.98610 0.60981 0.84801 -0.42000
