data_crystal

_cell_length_a 14.81174
_cell_length_b 15.56884
_cell_length_c 26.17169
_cell_angle_alpha 95.36875
_cell_angle_beta  95.36677
_cell_angle_gamma 126.67048

_symmetry_space_group_name_	'P 1'
_symmetry_space_group_name_H-M	'P 1'

loop_
_symmetry_equiv_pos_as_xyz
  x,y,z

loop_
_atom_site_label
_atom_site_type_symbol
_atom_site_fract_x
_atom_site_fract_y
_atom_site_fract_z
_atom_site_charge
C 	C 	0.92675 0.02547 0.97264 0.06600
C 	C 	0.10477 0.04791 0.97771 0.05300
H 	H 	0.79582 0.03996 0.99662 0.05300
C 	C 	0.87437 0.00021 0.51144 0.03700
O 	O 	0.58727 0.01588 0.42349 -0.40500
C 	C 	0.05238 0.02191 0.51583 0.02000
C 	C 	0.86505 0.07312 0.97466 -0.00600
C 	C 	0.04679 0.09335 0.97903 -0.08700
C 	C 	0.65148 0.04299 0.46896 0.31500
C 	C 	0.81263 0.04777 0.50751 0.01300
C 	C 	0.23187 0.05713 0.49751 -0.12900
H 	H 	0.27756 0.10452 0.01275 0.02700
C 	C 	0.99260 0.06566 0.51140 -0.04700
F 	F 	0.55176 0.09483 0.25438 -0.42700
O 	O 	0.41768 0.09739 0.51645 -0.34200
C 	C 	0.17846 0.09405 0.51825 0.01000
F 	F 	0.58394 0.11243 0.67092 -0.38500
F 	F 	0.58342 0.11511 0.15348 -0.42000
C 	C 	0.23058 0.11844 0.98478 0.03600
H 	H 	0.45513 0.11756 0.41947 0.17000
C 	C 	0.70770 0.99175 0.47758 -0.14300
H 	H 	0.18380 0.97215 0.47924 0.07900
C 	C 	0.04342 0.93501 0.97146 -0.09200
H 	H 	0.03791 0.15033 0.50773 0.04700
H 	H 	0.03913 0.87903 0.52755 0.05400
C 	C 	0.92421 0.86688 0.96883 0.07500
C 	C 	0.86592 0.91239 0.96868 -0.08700
H 	H 	0.09506 0.18119 0.98583 0.06600
H 	H 	0.08831 0.90036 0.96756 0.07300
H 	H 	0.77355 0.85998 0.96535 0.07000
C 	C 	0.99334 0.91257 0.52172 -0.04600
C 	C 	0.87489 0.84652 0.52034 0.03900
C 	C 	0.81630 0.89105 0.51685 -0.06600
H 	H 	0.72570 0.84074 0.51835 0.06600
Cu	Cu	0.81694 0.38068 0.94405 0.93800
Cu	Cu	0.78485 0.26812 0.04736 0.87500
Cu	Cu	0.63400 0.32469 0.00891 0.89000
Cu	Cu	0.61353 0.38843 0.90713 0.90600
C 	C 	0.74465 0.36564 0.83579 0.39500
O 	O 	0.88925 0.54206 0.95112 -0.33300
C 	C 	0.67919 0.31403 0.11908 0.39000
O 	O 	0.63846 0.29625 0.93631 -0.62800
O 	O 	0.79819 0.38426 0.01775 -0.65200
O 	O 	0.89470 0.31104 0.94534 -0.34700
O 	O 	0.76267 0.17904 0.98558 -0.40900
O 	O 	0.70563 0.41889 0.85113 -0.36400
O 	O 	0.47168 0.25622 0.99778 -0.35500
C 	C 	0.41011 0.25429 0.95698 0.32100
C 	C 	0.84018 0.58241 0.97065 0.29700
O 	O 	0.73094 0.51746 0.97300 -0.37700
O 	O 	0.45812 0.31941 0.92311 -0.38000
O 	O 	0.80632 0.35372 0.86974 -0.33700
C 	C 	0.84570 0.21551 0.95900 0.31500
O 	O 	0.63102 0.33822 0.08415 -0.36000
O 	O 	0.77009 0.32069 0.11245 -0.39700
H 	H 	0.58591 0.21840 0.91930 0.18700
H 	H 	0.85096 0.45680 0.04082 0.18400
Cu	Cu	0.58342 0.17759 0.50726 0.92900
Cu	Cu	0.61206 0.12645 0.38841 0.89900
Cu	Cu	0.59778 0.32316 0.43238 0.91500
Cu	Cu	0.56476 0.36686 0.54105 0.90600
C 	C 	0.64510 0.28257 0.61516 0.39100
C 	C 	0.61545 0.27282 0.32970 0.39100
O 	O 	0.65223 0.34038 0.50484 -0.63800
O 	O 	0.53912 0.16878 0.43173 -0.62700
O 	O 	0.68027 0.12702 0.50312 -0.36000
O 	O 	0.57788 0.31026 0.60420 -0.36600
O 	O 	0.66494 0.47501 0.43534 -0.35000
C 	C 	0.67693 0.53898 0.47659 0.31000
C 	C 	0.35714 0.13024 0.50145 0.30000
O 	O 	0.40828 0.22825 0.49033 -0.38400
O 	O 	0.60989 0.49836 0.51153 -0.37500
O 	O 	0.64425 0.21393 0.58090 -0.33200
O 	O 	0.56581 0.30293 0.35701 -0.35300
O 	O 	0.67860 0.24986 0.35357 -0.40500
H 	H 	0.73622 0.39592 0.51604 0.18000
C 	C 	0.79524 0.43220 0.75259 0.27800
C 	C 	0.74488 0.34527 0.77986 -0.20000
C 	C 	0.67922 0.23781 0.75207 0.27000
C 	C 	0.65443 0.21701 0.69735 0.27800
C 	C 	0.69565 0.30380 0.67024 -0.19900
C 	C 	0.77055 0.41152 0.69799 0.26900
F 	F 	0.81463 0.49611 0.67207 -0.40700
F 	F 	0.86363 0.53671 0.77913 -0.38700
F 	F 	0.63303 0.15325 0.77808 -0.39700
C 	C 	0.58800 0.18936 0.23834 0.26900
C 	C 	0.61238 0.27731 0.27369 -0.20900
C 	C 	0.64573 0.37330 0.25613 0.27600
C 	C 	0.66125 0.38336 0.20440 0.27600
C 	C 	0.64354 0.29756 0.17005 -0.20600
C 	C 	0.60371 0.19954 0.18682 0.26800
F 	F 	0.69884 0.47824 0.18843 -0.39400
F 	F 	0.66882 0.45873 0.28981 -0.39000
C 	C 	0.81105 0.72937 0.52052 0.00300
C 	C 	0.74459 0.65617 0.47650 -0.12900
H 	H 	0.81864 0.70286 0.55657 0.05400
H 	H 	0.74362 0.68340 0.43982 0.09800
H 	H 	0.85667 0.13189 0.52632 0.05400
H 	H 	0.66766 0.91092 0.45535 0.08700
H 	H 	0.22785 0.17979 0.53574 0.04000
C 	C 	0.90323 0.70096 0.98259 -0.08000
C 	C 	0.85821 0.74673 0.96188 -0.01400
H 	H 	0.98853 0.75124 0.00642 0.05200
H 	H 	0.77123 0.69480 0.93946 0.05100
C 	C 	0.89372 0.15628 0.95011 -0.12900
H 	H 	0.95833 0.18505 0.92568 0.09300
C 	C 	0.28545 0.19059 0.95346 -0.14200
H 	H 	0.23709 0.19987 0.92365 0.09000
