data_crystal

_cell_length_a 15.54913
_cell_length_b 15.92828
_cell_length_c 26.51022
_cell_angle_alpha 95.38888
_cell_angle_beta  95.39031
_cell_angle_gamma 126.66794

_symmetry_space_group_name_	'P 1'
_symmetry_space_group_name_H-M	'P 1'

loop_
_symmetry_equiv_pos_as_xyz
  x,y,z

loop_
_atom_site_label
_atom_site_type_symbol
_atom_site_fract_x
_atom_site_fract_y
_atom_site_fract_z
_atom_site_charge
C 	C 	0.99652 0.05500 0.95744 -0.03700
C 	C 	0.00210 0.90733 0.96238 -0.05700
C 	C 	0.05616 0.10182 0.49207 -0.05800
C 	C 	0.09940 0.04539 0.48909 0.03200
H 	H 	0.10876 0.18729 0.49375 0.06100
H 	H 	0.06470 0.89197 0.48492 0.06600
C 	C 	0.88495 0.98968 0.95811 0.01300
C 	C 	0.05466 0.01429 0.96002 0.02400
C 	C 	0.89018 0.83936 0.96218 0.03000
C 	C 	0.83026 0.88038 0.96040 -0.04900
H 	H 	0.03870 0.13855 0.95561 0.05900
H 	H 	0.04835 0.87655 0.96396 0.06700
H 	H 	0.74357 0.82873 0.96088 0.06000
C 	C 	0.94437 0.04674 0.49307 0.02900
C 	C 	0.03122 0.93535 0.48677 -0.06200
C 	C 	0.92088 0.88145 0.48845 0.03000
C 	C 	0.87735 0.93674 0.49143 -0.05900
H 	H 	0.79136 0.89425 0.49266 0.06200
Cu	Cu	0.76028 0.33493 0.94773 0.93300
Cu	Cu	0.71694 0.22944 0.05210 0.86800
Cu	Cu	0.59236 0.29787 0.01084 0.88900
Cu	Cu	0.55584 0.32311 0.90070 0.91000
C 	C 	0.69391 0.30615 0.83829 0.33300
O 	O 	0.81722 0.49197 0.94915 -0.32800
C 	C 	0.64151 0.30889 0.12298 0.32500
O 	O 	0.59081 0.25082 0.93977 -0.62300
O 	O 	0.74411 0.34593 0.02029 -0.65600
O 	O 	0.82264 0.25417 0.95367 -0.34200
O 	O 	0.68658 0.13332 0.99265 -0.41100
O 	O 	0.65203 0.35534 0.84937 -0.37000
O 	O 	0.44800 0.26182 0.99965 -0.35000
C 	C 	0.37672 0.20891 0.95616 0.31000
C 	C 	0.76024 0.52590 0.96177 0.29100
O 	O 	0.65649 0.45684 0.96338 -0.38100
O 	O 	0.40468 0.23509 0.91166 -0.37200
O 	O 	0.75229 0.29986 0.87490 -0.34000
C 	C 	0.76395 0.15897 0.96659 0.30300
O 	O 	0.59450 0.32584 0.08522 -0.36000
O 	O 	0.71516 0.29461 0.11598 -0.40200
H 	H 	0.54353 0.17244 0.92856 0.17900
H 	H 	0.79732 0.41771 0.04204 0.18500
Cu	Cu	0.62187 0.19990 0.51281 0.93200
Cu	Cu	0.72126 0.23364 0.40658 0.87600
Cu	Cu	0.65047 0.35609 0.44647 0.90100
Cu	Cu	0.63133 0.39806 0.55670 0.90900
C 	C 	0.65790 0.27139 0.62192 0.33300
O 	O 	0.46365 0.14200 0.51397 -0.33900
C 	C 	0.63573 0.30303 0.33477 0.32400
O 	O 	0.70563 0.36447 0.51753 -0.63200
O 	O 	0.60381 0.20894 0.43950 -0.64200
O 	O 	0.69441 0.13100 0.50601 -0.35200
O 	O 	0.81887 0.25818 0.46506 -0.42600
O 	O 	0.60582 0.31059 0.61062 -0.36900
O 	O 	0.68427 0.49595 0.45479 -0.36300
C 	C 	0.73660 0.56872 0.49731 0.31000
C 	C 	0.42436 0.19150 0.49823 0.29400
O 	O 	0.49075 0.29304 0.49599 -0.39000
O 	O 	0.71549 0.54376 0.54282 -0.37400
O 	O 	0.66493 0.21445 0.58559 -0.34000
C 	C 	0.78922 0.18178 0.49105 0.31000
O 	O 	0.61436 0.34605 0.37190 -0.35200
O 	O 	0.65311 0.23316 0.34232 -0.39800
H 	H 	0.78622 0.41247 0.52758 0.17800
H 	H 	0.52954 0.15477 0.41883 0.18900
C 	C 	0.78617 0.36582 0.76289 0.10700
C 	C 	0.70042 0.28449 0.78407 -0.10500
C 	C 	0.61176 0.18928 0.75146 0.09900
C 	C 	0.60208 0.18068 0.69751 0.10700
C 	C 	0.68193 0.26707 0.67633 -0.10500
C 	C 	0.77705 0.35680 0.70895 0.09900
Br	Br	0.89299 0.46851 0.67955 -0.20400
Br	Br	0.91365 0.49126 0.80780 -0.17200
Br	Br	0.47724 0.05286 0.65266 -0.17300
Br	Br	0.50200 0.07235 0.78089 -0.20300
C 	C 	0.53132 0.23631 0.19175 0.09900
C 	C 	0.62373 0.32196 0.17589 -0.10800
C 	C 	0.70751 0.41245 0.21276 0.10600
C 	C 	0.70632 0.41075 0.26574 0.09800
C 	C 	0.62105 0.31875 0.28161 -0.10500
C 	C 	0.52988 0.23482 0.24473 0.10500
Br	Br	0.40414 0.11769 0.26693 -0.19200
Br	Br	0.40918 0.11930 0.14091 -0.22000
Br	Br	0.82339 0.53228 0.31656 -0.21000
Br	Br	0.82431 0.53753 0.19052 -0.19700
C 	C 	0.79972 0.67799 0.49311 -0.08600
C 	C 	0.85407 0.77056 0.49047 0.05100
C 	C 	0.89644 0.10117 0.49401 0.04700
C 	C 	0.84926 0.13983 0.49361 -0.09600
C 	C 	0.21443 0.09997 0.49129 0.04500
C 	C 	0.31005 0.14111 0.49389 -0.08100
C 	C 	0.83866 0.72756 0.96268 0.04500
C 	C 	0.80419 0.63609 0.96267 -0.07100
C 	C 	0.83051 0.03872 0.95926 0.05400
C 	C 	0.79793 0.09167 0.96144 -0.08900
C 	C 	0.26402 0.14021 0.95832 -0.08400
C 	C 	0.16862 0.08242 0.95939 0.05800
