data_crystal

_cell_length_a 29.77041
_cell_length_b 26.72213
_cell_length_c 26.05987
_cell_angle_alpha 89.92709
_cell_angle_beta  89.92572
_cell_angle_gamma 90.90779

_symmetry_space_group_name_	'P 1'
_symmetry_space_group_name_H-M	'P 1'

loop_
_symmetry_equiv_pos_as_xyz
  x,y,z

loop_
_atom_site_label
_atom_site_type_symbol
_atom_site_fract_x
_atom_site_fract_y
_atom_site_fract_z
_atom_site_charge
Zn	Zn	0.49267 0.48797 0.99378 1.22300
C 	C 	0.54563 0.57667 0.97175 0.28400
O 	O 	0.52743 0.45944 0.04969 -0.46800
O 	O 	0.52062 0.59692 0.00743 -0.42800
O 	O 	0.56901 0.52632 0.07386 -0.47600
C 	C 	0.42678 0.55473 0.02958 0.36400
O 	O 	0.44495 0.53598 0.98807 -0.44700
O 	O 	0.44805 0.55220 0.07375 -0.50300
C 	C 	0.56680 0.47922 0.06015 0.30400
O 	O 	0.43580 0.42799 0.00909 -0.31500
Zn	Zn	0.51310 0.56368 0.07821 1.17300
O 	O 	0.54066 0.52876 0.96078 -0.42200
C 	C 	0.45055 0.40579 0.96836 0.29700
O 	O 	0.48399 0.42816 0.94552 -0.37500
Zn	Zn	0.35542 0.11341 0.00806 1.22500
C 	C 	0.39434 0.10867 0.10944 0.35000
O 	O 	0.28980 0.10297 0.01418 -0.44100
O 	O 	0.38487 0.15605 0.11594 -0.44300
O 	O 	0.28968 0.12232 0.09912 -0.47200
C 	C 	0.38086 0.21647 0.00866 0.31400
O 	O 	0.39667 0.17092 0.00693 -0.44300
O 	O 	0.34419 0.22562 0.03473 -0.49700
C 	C 	0.26945 0.10288 0.05903 0.29200
O 	O 	0.34979 0.12470 0.91799 -0.31800
Zn	Zn	0.32419 0.18386 0.09159 1.17600
O 	O 	0.37478 0.08275 0.07274 -0.42600
C 	C 	0.36818 0.08101 0.91507 0.27100
O 	O 	0.37621 0.05989 0.95870 -0.38300
C 	C 	0.54523 0.96572 0.31437 0.14600
C 	C 	0.51672 0.99736 0.28706 -0.10100
H 	H 	0.49471 0.02227 0.30770 0.07500
C 	C 	0.51646 0.99665 0.23328 0.04300
C 	C 	0.54507 0.96440 0.20679 -0.08500
C 	C 	0.57341 0.93237 0.23399 0.08400
C 	C 	0.57329 0.93292 0.28784 -0.10400
H 	H 	0.59487 0.90801 0.30904 0.08400
N 	N 	0.54550 0.96682 0.36955 -0.17800
C 	C 	0.52058 0.93196 0.39644 0.19100
C 	C 	0.51814 0.93439 0.45036 -0.05800
C 	C 	0.54140 0.97291 0.47624 0.03100
C 	C 	0.56731 0.00788 0.44825 -0.05500
C 	C 	0.56940 0.00383 0.39442 0.19300
C 	C 	0.49251 0.89922 0.47864 -0.01100
C 	C 	0.49000 0.90265 0.53212 -0.01100
C 	C 	0.51301 0.94137 0.55822 -0.05700
C 	C 	0.53863 0.97656 0.53019 0.03100
C 	C 	0.56146 0.01544 0.55601 -0.05500
C 	C 	0.59037 0.04656 0.47435 -0.01000
C 	C 	0.58737 0.05038 0.52777 -0.01000
C 	C 	0.51096 0.94539 0.61205 0.19100
N 	N 	0.53353 0.98350 0.63678 -0.17800
C 	C 	0.55812 0.01861 0.60982 0.19300
C 	C 	0.53229 0.98599 0.69189 0.14300
C 	C 	0.49515 0.00664 0.71686 -0.10200
C 	C 	0.49382 0.00866 0.77061 0.08600
C 	C 	0.52962 0.98983 0.79932 -0.08700
C 	C 	0.56675 0.96898 0.77451 0.04500
C 	C 	0.56804 0.96719 0.72074 -0.09800
O 	O 	0.59417 0.03591 0.36776 -0.18600
O 	O 	0.49836 0.89646 0.37163 -0.19900
O 	O 	0.48758 0.91216 0.63887 -0.19800
O 	O 	0.57873 0.05541 0.63443 -0.18600
H 	H 	0.59659 0.95108 0.70132 0.07300
H 	H 	0.46745 0.02090 0.69453 0.08400
H 	H 	0.61050 0.07385 0.45340 0.05600
H 	H 	0.60530 0.08051 0.54704 0.05700
H 	H 	0.47445 0.86919 0.45935 0.05300
H 	H 	0.47008 0.87518 0.55310 0.05300
H 	H 	0.52828 0.99079 0.84091 0.06600
H 	H 	0.54476 0.96362 0.16518 0.06600
Zn	Zn	0.70015 0.81872 0.99623 1.22100
C 	C 	0.67847 0.80758 0.10312 0.30600
O 	O 	0.74652 0.86082 0.02945 -0.42700
O 	O 	0.71865 0.79071 0.11338 -0.43800
O 	O 	0.79435 0.79558 0.03759 -0.49300
C 	C 	0.68609 0.71259 0.98843 0.33700
O 	O 	0.69611 0.75352 0.96267 -0.46400
O 	O 	0.69983 0.70754 0.03597 -0.48300
C 	C 	0.78644 0.84367 0.04071 0.30700
O 	O 	0.71941 0.85222 0.91457 -0.31700
Zn	Zn	0.75136 0.74534 0.06174 1.17500
O 	O 	0.66234 0.80399 0.05641 -0.42700
C 	C 	0.68231 0.87674 0.91911 0.31400
O 	O 	0.65983 0.86833 0.96075 -0.37700
Zn	Zn	0.17424 0.66905 0.97440 1.22000
C 	C 	0.15363 0.67826 0.08167 0.34800
O 	O 	0.12718 0.71991 0.97376 -0.44200
O 	O 	0.16057 0.72678 0.07728 -0.44500
O 	O 	0.17869 0.78312 0.97842 -0.50300
C 	C 	0.26571 0.66965 0.00937 0.30900
O 	O 	0.23962 0.66451 0.96896 -0.46700
O 	O 	0.25473 0.70060 0.04618 -0.47700
C 	C 	0.13744 0.76763 0.96942 0.29900
O 	O 	0.17062 0.66538 0.88381 -0.31500
Zn	Zn	0.21362 0.75480 0.03419 1.17600
O 	O 	0.16805 0.64775 0.04598 -0.42500
C 	C 	0.14962 0.62298 0.89107 0.26900
O 	O 	0.14452 0.60984 0.93854 -0.37900
C 	C 	0.00458 0.53454 0.29338 0.14500
C 	C 	0.97427 0.50592 0.26405 -0.10900
H 	H 	0.95008 0.48139 0.28298 0.08000
C 	C 	0.97497 0.50939 0.21042 0.08600
C 	C 	0.00623 0.54125 0.18613 -0.08300
C 	C 	0.03615 0.57046 0.21537 0.04500
C 	C 	0.03555 0.56678 0.26903 -0.09900
H 	H 	0.05880 0.58906 0.29181 0.07300
N 	N 	0.00351 0.53130 0.34838 -0.17900
C 	C 	0.02505 0.49282 0.37250 0.19200
C 	C 	0.02316 0.48810 0.42625 -0.05900
C 	C 	0.99951 0.52358 0.45492 0.03400
C 	C 	0.97808 0.56311 0.42973 -0.05800
C 	C 	0.98036 0.56629 0.37588 0.19200
C 	C 	0.04439 0.44843 0.45166 -0.01000
C 	C 	0.04198 0.44426 0.50510 -0.01100
C 	C 	0.01841 0.47977 0.53401 -0.05600
C 	C 	0.99725 0.51950 0.50884 0.03200
C 	C 	0.97386 0.55518 0.53753 -0.05600
C 	C 	0.95461 0.59870 0.45865 -0.01000
C 	C 	0.95256 0.59479 0.51211 -0.01000
C 	C 	0.01575 0.47632 0.58783 0.19200
N 	N 	0.99317 0.51175 0.61536 -0.17800
C 	C 	0.97227 0.55070 0.59131 0.19300
C 	C 	0.99199 0.50847 0.67034 0.15800
C 	C 	0.95544 0.48501 0.69496 -0.11000
C 	C 	0.95375 0.48289 0.74867 0.09500
C 	C 	0.98813 0.50539 0.77772 -0.10100
C 	C 	0.02453 0.52926 0.75315 0.09600
C 	C 	0.02683 0.52989 0.69943 -0.11000
O 	O 	0.95992 0.60283 0.35171 -0.19200
O 	O 	0.04757 0.46013 0.34517 -0.19700
O 	O 	0.03507 0.43898 0.61191 -0.18600
O 	O 	0.95084 0.58421 0.61875 -0.18500
H 	H 	0.05511 0.54788 0.68026 0.08700
H 	H 	0.92857 0.46838 0.67235 0.08600
H 	H 	0.93794 0.62945 0.43988 0.05400
H 	H 	0.93435 0.62261 0.53362 0.05600
H 	H 	0.06273 0.42071 0.43018 0.05400
H 	H 	0.05852 0.41341 0.52385 0.05600
H 	H 	0.98652 0.50440 0.81929 0.07100
H 	H 	0.00697 0.54367 0.14458 0.06800
Zn	Zn	0.82224 0.37421 0.98407 1.21800
C 	C 	0.82046 0.38681 0.87472 0.31000
O 	O 	0.76158 0.38015 0.01293 -0.44900
O 	O 	0.80515 0.34092 0.86808 -0.43500
O 	O 	0.72724 0.36691 0.93631 -0.47400
C 	C 	0.84753 0.27444 0.95730 0.30300
O 	O 	0.86121 0.32140 0.95930 -0.45100
O 	O 	0.80444 0.26352 0.95401 -0.49300
C 	C 	0.72632 0.38462 0.98325 0.31400
O 	O 	0.85094 0.35822 0.06731 -0.31300
Zn	Zn	0.76206 0.30776 0.92050 1.17600
O 	O 	0.81415 0.40951 0.91872 -0.44000
C 	C 	0.86675 0.40369 0.06423 0.26800
O 	O 	0.85814 0.42726 0.02215 -0.37600
Zn	Zn	0.99618 0.02670 0.03333 1.22600
C 	C 	0.03547 0.93009 0.01708 0.37000
O 	O 	0.94660 0.01039 0.08053 -0.46300
O 	O 	0.05883 0.93993 0.05882 -0.45400
O 	O 	0.97355 0.93929 0.11506 -0.48700
C 	C 	0.08191 0.05080 0.07643 0.35500
O 	O 	0.05962 0.04410 0.03362 -0.43800
O 	O 	0.06425 0.03547 0.12001 -0.50800
C 	C 	0.93990 0.96425 0.09613 0.34800
O 	O 	0.98282 0.11232 0.04578 -0.33100
Zn	Zn	0.03192 0.97147 0.12369 1.17200
O 	O 	0.00343 0.96025 0.00189 -0.42500
C 	C 	0.96424 0.11097 0.00080 0.32800
O 	O 	0.96459 0.06778 0.97806 -0.37100
C 	C 	0.88036 0.23382 0.96187 -0.02900
C 	C 	0.92111 0.24211 0.98773 -0.04600
C 	C 	0.94989 0.20236 0.99713 0.02400
C 	C 	0.93817 0.15363 0.98130 -0.14000
C 	C 	0.89858 0.14579 0.95248 0.19800
C 	C 	0.87007 0.18593 0.94261 -0.09200
H 	H 	0.98067 0.20914 0.01834 0.04700
H 	H 	0.83948 0.17951 0.92092 0.07100
H 	H 	0.92984 0.27902 0.00210 0.06700
O 	O 	0.88760 0.09913 0.93404 -0.27100
H 	H 	0.86746 0.08396 0.96032 0.15700
C 	C 	0.84985 0.41023 0.83578 -0.06100
C 	C 	0.84969 0.46229 0.82872 -0.00400
C 	C 	0.88249 0.48562 0.79821 -0.02500
C 	C 	0.91593 0.45722 0.77470 -0.04300
C 	C 	0.91501 0.40471 0.77984 0.10400
C 	C 	0.88180 0.38143 0.81000 -0.04100
H 	H 	0.88275 0.52598 0.79411 0.04800
H 	H 	0.88213 0.34120 0.81528 0.07200
H 	H 	0.82485 0.48481 0.84795 0.04600
Br	Br	0.96019 0.36447 0.74826 -0.22600
C 	C 	0.88977 0.42842 0.10731 -0.04000
C 	C 	0.92343 0.40351 0.13435 -0.01300
C 	C 	0.94981 0.42948 0.17015 -0.02100
C 	C 	0.94244 0.48040 0.17948 -0.04400
C 	C 	0.90658 0.50447 0.15498 0.10800
C 	C 	0.88066 0.47853 0.11874 -0.04900
H 	H 	0.97701 0.41052 0.18927 0.04500
H 	H 	0.85385 0.49754 0.09892 0.06900
H 	H 	0.93041 0.36467 0.12610 0.04800
Br	Br	0.89274 0.57277 0.17039 -0.25300
C 	C 	0.10160 0.80463 0.96405 -0.01800
C 	C 	0.11121 0.85116 0.94116 -0.05400
C 	C 	0.08425 0.89224 0.95178 0.05400
C 	C 	0.04788 0.88708 0.98570 -0.18600
C 	C 	0.03383 0.83888 0.00121 0.23700
C 	C 	0.06089 0.79771 0.99061 -0.13500
H 	H 	0.09438 0.92900 0.93800 0.02800
H 	H 	0.05214 0.76145 0.00676 0.09500
H 	H 	0.14146 0.85642 0.91849 0.05400
O 	O 	0.99666 0.83283 0.03189 -0.30700
H 	H 	0.97125 0.82724 0.00789 0.16300
C 	C 	0.12243 0.59956 0.85042 -0.03900
C 	C 	0.12002 0.54728 0.84647 -0.01200
C 	C 	0.08925 0.52456 0.81307 -0.02000
C 	C 	0.06008 0.55387 0.78386 -0.04500
C 	C 	0.06322 0.60651 0.78680 0.10700
C 	C 	0.09479 0.62908 0.81952 -0.04800
H 	H 	0.08721 0.48410 0.81088 0.04800
H 	H 	0.09632 0.66951 0.82269 0.07500
H 	H 	0.14133 0.52422 0.87010 0.04800
Br	Br	0.02277 0.64808 0.74914 -0.22700
C 	C 	0.06829 0.60451 0.18951 0.04300
C 	C 	0.05259 0.64561 0.16166 -0.07900
C 	C 	0.08168 0.67246 0.12933 0.04700
C 	C 	0.12661 0.65820 0.12432 -0.13800
C 	C 	0.14325 0.61953 0.15546 0.16400
C 	C 	0.11398 0.59275 0.18781 -0.11000
H 	H 	0.06870 0.70257 0.10602 0.03000
H 	H 	0.12643 0.56171 0.21020 0.08200
H 	H 	0.01744 0.65538 0.16340 0.06300
Br	Br	0.20577 0.60289 0.15427 -0.24100
C 	C 	0.82210 0.87809 0.05848 -0.03500
C 	C 	0.84824 0.86536 0.10110 -0.03500
C 	C 	0.88489 0.89547 0.11536 0.03800
C 	C 	0.89632 0.93838 0.08669 -0.14900
C 	C 	0.86846 0.95268 0.04542 0.20000
C 	C 	0.83150 0.92249 0.03163 -0.07500
H 	H 	0.90520 0.88463 0.14787 0.03200
H 	H 	0.81108 0.93281 0.99899 0.07400
H 	H 	0.84054 0.83167 0.12280 0.03700
O 	O 	0.87863 0.99448 0.01684 -0.28500
H 	H 	0.86197 0.02197 0.03341 0.16000
C 	C 	0.60333 0.94717 0.80509 0.04200
C 	C 	0.61216 0.89586 0.80163 -0.07500
C 	C 	0.64139 0.87353 0.83646 0.04300
C 	C 	0.66174 0.90219 0.87532 -0.11800
C 	C 	0.65543 0.95428 0.87656 0.16000
C 	C 	0.62640 0.97660 0.84136 -0.10800
H 	H 	0.64621 0.83344 0.83506 0.03100
H 	H 	0.62062 0.01649 0.84332 0.08500
H 	H 	0.59483 0.87289 0.77346 0.05700
Br	Br	0.68537 0.99523 0.92683 -0.23900
C 	C 	0.65321 0.83474 0.14250 -0.05900
C 	C 	0.60704 0.82541 0.14868 -0.00400
C 	C 	0.58154 0.85603 0.18048 -0.02700
C 	C 	0.60179 0.89678 0.20588 -0.03900
C 	C 	0.64848 0.90533 0.20100 0.10300
C 	C 	0.67403 0.87394 0.16978 -0.04000
H 	H 	0.54575 0.84899 0.18423 0.04200
H 	H 	0.70967 0.88145 0.16495 0.07000
H 	H 	0.59072 0.79507 0.12797 0.04100
Br	Br	0.67743 0.96126 0.23413 -0.22800
C 	C 	0.22172 0.08858 0.06266 -0.03600
C 	C 	0.20643 0.05858 0.10346 -0.04500
C 	C 	0.16058 0.04785 0.10914 0.03700
C 	C 	0.12941 0.06755 0.07437 -0.15800
C 	C 	0.14469 0.09938 0.03455 0.20100
C 	C 	0.19075 0.10889 0.02826 -0.08900
H 	H 	0.14942 0.02329 0.13987 0.01500
H 	H 	0.20226 0.13319 0.99744 0.05900
H 	H 	0.23011 0.04327 0.13060 0.06000
O 	O 	0.11472 0.12085 0.00152 -0.27600
H 	H 	0.10661 0.15304 0.01774 0.15000
C 	C 	0.39153 0.06473 0.86833 -0.04400
C 	C 	0.39228 0.01369 0.85598 -0.00300
C 	C 	0.42338 0.99597 0.82043 -0.03000
C 	C 	0.45438 0.02903 0.79727 -0.03700
C 	C 	0.45124 0.08083 0.80639 0.10500
C 	C 	0.41959 0.09851 0.84157 -0.04500
H 	H 	0.42510 0.95615 0.81307 0.04500
H 	H 	0.41880 0.13810 0.85042 0.07500
H 	H 	0.37029 0.98740 0.87585 0.04100
Br	Br	0.49179 0.12756 0.77379 -0.22600
C 	C 	0.48472 0.02798 0.20467 0.04400
C 	C 	0.50076 0.06702 0.17328 -0.07700
C 	C 	0.47082 0.09482 0.14385 0.04800
C 	C 	0.42466 0.08359 0.14528 -0.13700
C 	C 	0.40834 0.04546 0.17810 0.16400
C 	C 	0.43843 0.01781 0.20758 -0.10900
H 	H 	0.48364 0.12420 0.11887 0.03100
H 	H 	0.42588 0.98801 0.23222 0.07800
H 	H 	0.53645 0.07537 0.17116 0.06400
Br	Br	0.34509 0.03119 0.18377 -0.25100
C 	C 	0.40388 0.25759 0.98138 -0.04200
C 	C 	0.37846 0.29224 0.95380 -0.03100
C 	C 	0.39637 0.33966 0.94273 0.02800
C 	C 	0.43972 0.35283 0.95930 -0.13100
C 	C 	0.46731 0.31574 0.98046 0.20000
C 	C 	0.44935 0.26803 0.99110 -0.10300
H 	H 	0.37519 0.36754 0.92527 0.03500
H 	H 	0.46974 0.24072 0.01065 0.08700
H 	H 	0.34375 0.28375 0.94430 0.04600
O 	O 	0.51099 0.32685 0.99331 -0.29600
H 	H 	0.50993 0.33834 0.02948 0.16300
C 	C 	0.30701 0.64016 0.01392 -0.01600
C 	C 	0.34209 0.65689 0.04589 -0.04300
C 	C 	0.38059 0.62831 0.05185 0.04200
C 	C 	0.38469 0.58273 0.02578 -0.14900
C 	C 	0.34932 0.56540 0.99423 0.20000
C 	C 	0.31081 0.59430 0.98811 -0.10500
H 	H 	0.40767 0.64214 0.07597 0.01400
H 	H 	0.28368 0.58063 0.96396 0.08100
H 	H 	0.33971 0.69228 0.06585 0.04600
O 	O 	0.35246 0.52051 0.96907 -0.28300
H 	H 	0.33972 0.49519 0.99311 0.15200
C 	C 	0.60771 0.45361 0.04249 -0.05000
C 	C 	0.65043 0.47009 0.05855 -0.02700
C 	C 	0.68905 0.44779 0.03886 0.02000
C 	C 	0.68538 0.40856 0.00311 -0.11700
C 	C 	0.64249 0.39168 0.98741 0.16800
C 	C 	0.60405 0.41431 0.00688 -0.06100
H 	H 	0.72182 0.46125 0.05116 0.03800
H 	H 	0.57139 0.40192 0.99336 0.06700
H 	H 	0.65381 0.50042 0.08587 0.04500
O 	O 	0.63796 0.35167 0.95476 -0.29600
H 	H 	0.63555 0.36648 0.91996 0.15500
C 	C 	0.58522 0.60471 0.95344 -0.02600
C 	C 	0.62801 0.58872 0.96798 -0.05000
C 	C 	0.66283 0.62376 0.97506 0.03700
C 	C 	0.65534 0.67477 0.96613 -0.15900
C 	C 	0.61479 0.68939 0.94314 0.20400
C 	C 	0.57993 0.65417 0.93665 -0.10200
H 	H 	0.69460 0.61172 0.99068 0.01600
H 	H 	0.54741 0.66642 0.92335 0.07500
H 	H 	0.63303 0.55010 0.97893 0.05200
O 	O 	0.60748 0.73878 0.93195 -0.29700
H 	H 	0.61723 0.74312 0.89579 0.15600
