data_crystal

_cell_length_a 18.53903
_cell_length_b 18.84424
_cell_length_c 34.10344
_cell_angle_alpha 95.42441
_cell_angle_beta  95.42425
_cell_angle_gamma 126.40433

_symmetry_space_group_name_	'P 1'
_symmetry_space_group_name_H-M	'P 1'

loop_
_symmetry_equiv_pos_as_xyz
  x,y,z

loop_
_atom_site_label
_atom_site_type_symbol
_atom_site_fract_x
_atom_site_fract_y
_atom_site_fract_z
_atom_site_charge
C 	C 	0.83521 0.98890 0.97377 0.15400
N 	N 	0.92724 0.04458 0.97743 -0.13700
C 	C 	0.97388 0.01056 0.97370 0.12700
N 	N 	0.92885 0.92058 0.96889 -0.12300
C 	C 	0.83749 0.86459 0.96773 0.13600
N 	N 	0.78994 0.89852 0.96915 -0.12900
C 	C 	0.03210 0.04820 0.50041 0.11800
N 	N 	0.98745 0.95994 0.50168 -0.12100
C 	C 	0.03365 0.92498 0.50296 0.13200
N 	N 	0.12440 0.97821 0.50313 -0.12200
C 	C 	0.16937 0.06649 0.50220 0.12100
N 	N 	0.12326 0.10169 0.50064 -0.12800
Cu	Cu	0.67302 0.32529 0.95155 0.93200
Cu	Cu	0.62932 0.23511 0.03117 0.87600
Cu	Cu	0.53902 0.30472 0.00259 0.89200
Cu	Cu	0.50182 0.31688 0.91646 0.90700
C 	C 	0.60960 0.29169 0.86630 0.29500
O 	O 	0.72510 0.45626 0.95099 -0.34000
C 	C 	0.58723 0.31981 0.08951 0.28900
O 	O 	0.53182 0.25753 0.94762 -0.63300
O 	O 	0.66357 0.33898 0.00826 -0.64800
O 	O 	0.73411 0.26651 0.95743 -0.34200
O 	O 	0.61988 0.16112 0.98606 -0.41200
O 	O 	0.57393 0.33328 0.87409 -0.37400
O 	O 	0.42014 0.28026 0.99600 -0.35800
C 	C 	0.35639 0.23454 0.96342 0.29300
C 	C 	0.68190 0.48999 0.96037 0.27800
O 	O 	0.59451 0.43624 0.96211 -0.37900
O 	O 	0.37676 0.24676 0.92749 -0.37400
O 	O 	0.66197 0.29086 0.89502 -0.34500
C 	C 	0.69178 0.18936 0.96987 0.28900
O 	O 	0.54840 0.33552 0.06052 -0.36100
O 	O 	0.63647 0.29226 0.08235 -0.39400
H 	H 	0.49070 0.19116 0.94040 0.17000
H 	H 	0.71097 0.39840 0.02548 0.19000
Cu	Cu	0.69831 0.21633 0.50762 0.93000
Cu	Cu	0.74906 0.21425 0.41812 0.88400
Cu	Cu	0.76188 0.36682 0.46018 0.90300
Cu	Cu	0.73614 0.39797 0.54478 0.90400
C 	C 	0.71547 0.26220 0.59216 0.29300
O 	O 	0.57102 0.17539 0.51158 -0.35400
C 	C 	0.70641 0.30706 0.37202 0.29300
O 	O 	0.78803 0.35719 0.51414 -0.63700
O 	O 	0.68237 0.23316 0.45206 -0.64100
O 	O 	0.74285 0.14325 0.49897 -0.35700
O 	O 	0.83821 0.23259 0.45900 -0.42100
O 	O 	0.73965 0.34396 0.59204 -0.36100
O 	O 	0.84610 0.49585 0.47153 -0.36900
C 	C 	0.84508 0.54747 0.50008 0.29600
C 	C 	0.54672 0.22703 0.50616 0.29000
O 	O 	0.60752 0.31042 0.50285 -0.37900
O 	O 	0.78913 0.51374 0.52584 -0.37400
O 	O 	0.72913 0.22147 0.56348 -0.34800
C 	C 	0.81498 0.17368 0.48240 0.29100
O 	O 	0.75341 0.37511 0.40283 -0.36800
O 	O 	0.69038 0.22959 0.37441 -0.39400
H 	H 	0.85342 0.38701 0.52430 0.18100
H 	H 	0.61864 0.20462 0.43932 0.18800
C 	C 	0.61160 0.16488 0.77361 -0.03400
C 	C 	0.63579 0.22516 0.74690 0.02400
C 	C 	0.64063 0.30222 0.75755 -0.03500
C 	C 	0.62937 0.32333 0.79614 0.02400
C 	C 	0.60973 0.26513 0.82381 -0.07000
C 	C 	0.59349 0.18249 0.81111 0.02500
C 	C 	0.65781 0.20888 0.70762 0.02300
C 	C 	0.65766 0.36004 0.72872 0.10700
C 	C 	0.55268 0.11357 0.83543 0.08800
C 	C 	0.58736 0.15506 0.67375 -0.03300
C 	C 	0.60837 0.16272 0.63496 0.02100
C 	C 	0.69856 0.22850 0.63021 -0.06400
C 	C 	0.76999 0.27291 0.66394 0.02600
C 	C 	0.74946 0.26056 0.70263 -0.03500
C 	C 	0.49332 0.09530 0.67880 0.10400
C 	C 	0.86396 0.33402 0.65895 0.10000
C 	C 	0.53734 0.10388 0.60008 0.08800
C 	C 	0.82223 0.30417 0.73742 0.10800
C 	C 	0.60659 0.08562 0.76277 0.10800
C 	C 	0.63583 0.40355 0.80678 0.10100
N 	N 	0.48035 0.05656 0.57235 -0.09900
N 	N 	0.41824 0.04763 0.68286 -0.10300
N 	N 	0.93900 0.38296 0.65502 -0.09500
N 	N 	0.88023 0.33896 0.76525 -0.09800
N 	N 	0.67126 0.40605 0.70568 -0.10100
N 	N 	0.64054 0.46739 0.81497 -0.09700
N 	N 	0.52006 0.05859 0.85485 -0.10500
N 	N 	0.60262 0.02236 0.75410 -0.10200
C 	C 	0.60607 0.36277 0.28903 -0.03400
C 	C 	0.63882 0.34729 0.25611 0.02400
C 	C 	0.69631 0.32172 0.26162 -0.03600
C 	C 	0.72175 0.31265 0.29997 0.02500
C 	C 	0.68454 0.32273 0.33239 -0.07100
C 	C 	0.62597 0.34708 0.32678 0.02600
C 	C 	0.61057 0.35486 0.21518 0.02300
C 	C 	0.72839 0.30377 0.22764 0.10400
C 	C 	0.58363 0.35273 0.35936 0.09200
C 	C 	0.67332 0.42904 0.19828 -0.03400
C 	C 	0.66105 0.42224 0.15626 0.02500
C 	C 	0.58401 0.34270 0.13157 -0.06700
C 	C 	0.51298 0.27681 0.14916 0.02000
C 	C 	0.52718 0.28147 0.19097 -0.03500
C 	C 	0.75204 0.51052 0.22399 0.10700
C 	C 	0.42615 0.20378 0.12423 0.08300
C 	C 	0.72918 0.49519 0.13836 0.09300
C 	C 	0.45800 0.20923 0.20883 0.10300
C 	C 	0.55200 0.39476 0.28401 0.10800
C 	C 	0.78779 0.29492 0.30628 0.08300
N 	N 	0.78365 0.55341 0.12409 -0.09900
N 	N 	0.81487 0.57553 0.24456 -0.09900
N 	N 	0.35657 0.14544 0.10449 -0.10100
N 	N 	0.40284 0.15160 0.22313 -0.10300
N 	N 	0.75388 0.28950 0.20050 -0.10300
N 	N 	0.84046 0.28079 0.31131 -0.10700
N 	N 	0.54986 0.35721 0.38537 -0.10100
N 	N 	0.50884 0.42029 0.27997 -0.10000
C 	C 	0.98476 0.82846 0.50228 0.00200
C 	C 	0.00244 0.79914 0.53587 -0.02300
C 	C 	0.96048 0.70728 0.53426 0.02000
C 	C 	0.89777 0.64419 0.49969 -0.07000
C 	C 	0.88031 0.67365 0.46602 0.02000
C 	C 	0.92471 0.76581 0.46717 -0.02200
C 	C 	0.06298 0.86354 0.57224 0.10900
C 	C 	0.81551 0.60909 0.43046 0.09600
C 	C 	0.90989 0.79641 0.43196 0.10800
C 	C 	0.98288 0.67766 0.56790 0.08600
N 	N 	0.89801 0.82068 0.40386 -0.09300
N 	N 	0.00071 0.65400 0.59472 -0.10400
N 	N 	0.76397 0.55783 0.40202 -0.09700
N 	N 	0.11131 0.91498 0.60122 -0.09400
C 	C 	0.98027 0.08416 0.49592 0.00200
C 	C 	0.96632 0.11937 0.53019 -0.02300
C 	C 	0.90971 0.14614 0.52599 0.02000
C 	C 	0.86620 0.13677 0.48745 -0.07600
C 	C 	0.87845 0.09920 0.45327 0.01900
C 	C 	0.93805 0.07611 0.45744 -0.02500
C 	C 	0.01070 0.12846 0.56974 0.10200
C 	C 	0.82783 0.08213 0.41393 0.06500
C 	C 	0.95737 0.04564 0.42211 0.10500
C 	C 	0.89732 0.18431 0.56125 0.09300
N 	N 	0.97296 0.02154 0.39393 -0.09700
N 	N 	0.88763 0.21466 0.58950 -0.09300
N 	N 	0.78747 0.06852 0.38256 -0.12300
N 	N 	0.04616 0.13568 0.60127 -0.09800
C 	C 	0.26782 0.12313 0.50205 0.00000
C 	C 	0.33042 0.16819 0.53869 -0.02300
C 	C 	0.42226 0.20316 0.53996 0.02000
C 	C 	0.45112 0.19199 0.50460 -0.07300
C 	C 	0.38996 0.15271 0.46751 0.02000
C 	C 	0.29853 0.11925 0.46622 -0.02300
C 	C 	0.29967 0.17656 0.57521 0.10500
C 	C 	0.42098 0.14660 0.43074 0.08200
C 	C 	0.23546 0.07948 0.42813 0.10400
C 	C 	0.48723 0.25122 0.57752 0.07700
N 	N 	0.18503 0.04770 0.39778 -0.09900
N 	N 	0.53896 0.28964 0.60749 -0.10600
N 	N 	0.44539 0.14159 0.40131 -0.11000
N 	N 	0.27500 0.18313 0.60431 -0.09800
C 	C 	0.79030 0.76663 0.96438 -0.00300
C 	C 	0.79791 0.71991 0.93220 -0.01800
C 	C 	0.77259 0.63330 0.93335 0.01400
C 	C 	0.72872 0.58822 0.96419 -0.06500
C 	C 	0.71934 0.63426 0.99607 0.02300
C 	C 	0.75070 0.72348 0.99632 -0.01100
C 	C 	0.83073 0.76060 0.89759 0.10800
C 	C 	0.67978 0.59074 0.02921 0.07900
C 	C 	0.74387 0.77133 0.02982 0.09700
C 	C 	0.79550 0.59260 0.90385 0.10200
N 	N 	0.73840 0.80944 0.05658 -0.09300
N 	N 	0.81445 0.56049 0.88047 -0.09300
N 	N 	0.64808 0.55597 0.05560 -0.09700
N 	N 	0.85692 0.79314 0.86999 -0.09600
C 	C 	0.73198 0.14055 0.97109 -0.06200
C 	C 	0.74658 0.10997 0.93549 0.01300
C 	C 	0.76723 0.04887 0.93544 -0.01100
C 	C 	0.78458 0.02687 0.97178 -0.01000
C 	C 	0.77211 0.05891 0.00754 -0.02500
C 	C 	0.74719 0.11666 0.00739 0.00700
C 	C 	0.74737 0.14634 0.89981 0.10300
C 	C 	0.78663 0.03379 0.04471 0.09900
C 	C 	0.74247 0.15564 0.04492 0.05700
C 	C 	0.77070 0.00855 0.89800 0.09100
N 	N 	0.73883 0.18671 0.07490 -0.12700
N 	N 	0.77343 0.97626 0.86813 -0.08200
N 	N 	0.79830 0.01387 0.07439 -0.10000
N 	N 	0.74895 0.17577 0.87135 -0.09400
C 	C 	0.07283 0.07103 0.97261 -0.00600
C 	C 	0.13333 0.05992 0.99431 -0.00800
C 	C 	0.22466 0.10947 0.98910 0.02300
C 	C 	0.25959 0.18016 0.96749 -0.07000
C 	C 	0.20121 0.19701 0.94890 0.01900
C 	C 	0.10698 0.13844 0.94887 -0.02000
C 	C 	0.10269 0.00023 0.02306 0.07900
C 	C 	0.23830 0.27576 0.93067 0.09500
C 	C 	0.04514 0.14490 0.92295 0.10400
C 	C 	0.28082 0.08389 0.00359 0.06800
N 	N 	0.99612 0.15037 0.90223 -0.09900
N 	N 	0.32564 0.06336 0.01496 -0.12200
N 	N 	0.26785 0.33858 0.91614 -0.10000
N 	N 	0.07826 0.95262 0.04600 -0.08500
