data_crystal

_cell_length_a 21.44869
_cell_length_b 20.18200
_cell_length_c 46.87207
_cell_angle_alpha 89.88411
_cell_angle_beta  89.88708
_cell_angle_gamma 119.41217

_symmetry_space_group_name_	'P 1'
_symmetry_space_group_name_H-M	'P 1'

loop_
_symmetry_equiv_pos_as_xyz
  x,y,z

loop_
_atom_site_label
_atom_site_type_symbol
_atom_site_fract_x
_atom_site_fract_y
_atom_site_fract_z
_atom_site_charge
C 	C 	0.59799 0.25167 0.85098 0.25700
C 	C 	0.78766 0.54151 0.90471 0.28000
C 	C 	0.79651 0.38100 0.84118 0.27700
C 	C 	0.58993 0.41661 0.91722 0.31300
C 	C 	0.82610 0.36068 0.93633 0.32200
C 	C 	0.63163 0.22008 0.94070 0.31300
Ni	Ni	0.68659 0.41444 0.86804 1.11400
Ni	Ni	0.70950 0.39261 0.93493 1.12500
Ni	Ni	0.72169 0.28252 0.88951 1.12500
O 	O 	0.59852 0.31762 0.85247 -0.35600
O 	O 	0.65805 0.24805 0.85382 -0.36000
O 	O 	0.81084 0.41532 0.93310 -0.38600
O 	O 	0.78218 0.50633 0.88069 -0.36700
O 	O 	0.74527 0.50504 0.92631 -0.36000
O 	O 	0.64127 0.20690 0.91377 -0.36300
O 	O 	0.74327 0.39415 0.83604 -0.35700
O 	O 	0.80563 0.36190 0.86689 -0.37000
O 	O 	0.67296 0.28746 0.95311 -0.36100
O 	O 	0.62621 0.44958 0.89329 -0.36800
O 	O 	0.61079 0.38045 0.93512 -0.37100
O 	O 	0.78989 0.29656 0.92212 -0.35400
O 	O 	0.68848 0.35242 0.89760 -0.71600
H 	H 	0.63686 0.31713 0.89982 0.16500
C 	C 	0.88158 0.51906 0.54822 0.30800
C 	C 	0.63109 0.25129 0.50785 0.32300
C 	C 	0.73314 0.50344 0.50011 0.33200
C 	C 	0.78054 0.26872 0.55673 0.25700
C 	C 	0.57493 0.37146 0.57268 0.28300
C 	C 	0.72921 0.41333 0.61779 0.26200
Ni	Ni	0.77236 0.38469 0.51661 1.12200
Ni	Ni	0.66112 0.29867 0.56901 1.12100
Ni	Ni	0.73014 0.47830 0.56158 1.12200
O 	O 	0.87215 0.46048 0.53244 -0.35300
O 	O 	0.83411 0.54347 0.54808 -0.36300
O 	O 	0.58398 0.32171 0.55818 -0.38000
O 	O 	0.66977 0.32284 0.50123 -0.34900
O 	O 	0.63216 0.22825 0.53413 -0.36600
O 	O 	0.76449 0.47148 0.60021 -0.38100
O 	O 	0.77994 0.48033 0.49616 -0.34500
O 	O 	0.69154 0.48143 0.52264 -0.37500
O 	O 	0.67486 0.34639 0.60908 -0.37000
O 	O 	0.77647 0.28683 0.52969 -0.34100
O 	O 	0.73438 0.26541 0.57638 -0.36500
O 	O 	0.63028 0.43862 0.57842 -0.36800
O 	O 	0.73565 0.38933 0.55263 -0.71200
H 	H 	0.77506 0.39543 0.56504 0.15800
C 	C 	0.18851 0.09421 0.75886 0.26400
C 	C 	0.95254 0.85086 0.69311 0.27700
C 	C 	0.17486 0.07259 0.68292 0.28000
C 	C 	0.96178 0.89226 0.77287 0.25500
C 	C 	0.97727 0.07180 0.67432 0.28200
C 	C 	0.97895 0.11585 0.75579 0.26100
Ni	Ni	0.08036 0.95564 0.72731 1.10100
Ni	Ni	0.93688 0.97081 0.72418 1.10800
Ni	Ni	0.09026 0.12009 0.71764 1.12000
O 	O 	0.14325 0.02024 0.76084 -0.35900
O 	O 	0.18096 0.13883 0.73956 -0.36800
O 	O 	0.94092 0.00043 0.68289 -0.36300
O 	O 	0.02245 0.89403 0.69203 -0.37300
O 	O 	0.91448 0.86496 0.71159 -0.37400
O 	O 	0.04916 0.14987 0.75086 -0.36900
O 	O 	0.17042 0.02157 0.70160 -0.35500
O 	O 	0.12574 0.09301 0.68198 -0.37400
O 	O 	0.93261 0.06380 0.73800 -0.36400
O 	O 	0.00085 0.87652 0.75479 -0.36000
O 	O 	0.92686 0.92801 0.76421 -0.37400
O 	O 	0.01716 0.12599 0.69239 -0.37300
O 	O 	0.03775 0.01714 0.72935 -0.70600
H 	H 	0.04034 0.02637 0.75004 0.16100
C 	C 	0.20135 0.74512 0.45049 0.26600
C 	C 	0.46557 0.71501 0.46195 0.33400
C 	C 	0.36391 0.81482 0.40602 0.32000
C 	C 	0.29821 0.62983 0.50857 0.30700
C 	C 	0.34323 0.61406 0.38788 0.28100
C 	C 	0.17996 0.49007 0.42670 0.27000
Ni	Ni	0.34684 0.75333 0.46434 1.12100
Ni	Ni	0.32301 0.58638 0.44922 1.12000
Ni	Ni	0.24136 0.65650 0.41196 1.12200
O 	O 	0.26991 0.78833 0.45765 -0.34400
O 	O 	0.17831 0.67946 0.43722 -0.36900
O 	O 	0.32633 0.56232 0.40787 -0.38100
O 	O 	0.43646 0.74666 0.47735 -0.34700
O 	O 	0.42763 0.66270 0.44333 -0.39000
O 	O 	0.16902 0.54361 0.41493 -0.36200
O 	O 	0.39658 0.79815 0.42590 -0.36700
O 	O 	0.29495 0.76988 0.40170 -0.37700
O 	O 	0.22046 0.50355 0.44964 -0.37500
O 	O 	0.30345 0.69668 0.50225 -0.34900
O 	O 	0.33035 0.59989 0.49289 -0.35700
O 	O 	0.30011 0.64113 0.38205 -0.37600
O 	O 	0.29160 0.65908 0.44607 -0.71400
H 	H 	0.24972 0.63494 0.45887 0.16000
C 	C 	0.38006 0.58778 0.06574 0.32100
C 	C 	0.22631 0.61084 0.16897 0.28000
C 	C 	0.20923 0.45610 0.09832 0.28300
C 	C 	0.40591 0.75550 0.14638 0.26700
C 	C 	0.12627 0.60825 0.08749 0.33600
C 	C 	0.31085 0.77041 0.06214 0.30800
Ni	Ni	0.32432 0.59320 0.12706 1.11500
Ni	Ni	0.25894 0.70786 0.11924 1.12200
Ni	Ni	0.25150 0.60191 0.06767 1.12600
O 	O 	0.37426 0.56637 0.09317 -0.34700
O 	O 	0.35131 0.62826 0.05629 -0.37100
O 	O 	0.16821 0.67795 0.09665 -0.37600
O 	O 	0.28568 0.60721 0.16659 -0.35800
O 	O 	0.19806 0.62283 0.14633 -0.37000
O 	O 	0.26330 0.70217 0.05220 -0.36700
O 	O 	0.23036 0.49093 0.12282 -0.36200
O 	O 	0.23375 0.49364 0.07420 -0.36400
O 	O 	0.31212 0.78779 0.08953 -0.36700
O 	O 	0.41175 0.69857 0.13507 -0.35000
O 	O 	0.34307 0.75467 0.14785 -0.36300
O 	O 	0.15218 0.56312 0.08199 -0.38200
O 	O 	0.29470 0.64690 0.10285 -0.71700
H 	H 	0.34149 0.68763 0.09619 0.17800
C 	C 	0.78074 0.84701 0.29730 0.26900
C 	C 	0.01102 0.07271 0.22097 0.27900
C 	C 	0.81383 0.84723 0.22496 0.28300
C 	C 	0.98698 0.09356 0.30273 0.26200
C 	C 	0.03239 0.86865 0.24145 0.28100
C 	C 	0.01329 0.90105 0.32031 0.26600
Ni	Ni	0.88448 0.98652 0.25993 1.10600
Ni	Ni	0.04159 0.00372 0.27118 1.13100
Ni	Ni	0.90347 0.83859 0.27291 1.12000
O 	O 	0.79043 0.90534 0.28074 -0.36600
O 	O 	0.83319 0.83215 0.30308 -0.37500
O 	O 	0.07119 0.92762 0.25793 -0.38200
O 	O 	0.96295 0.07765 0.23684 -0.35200
O 	O 	0.04134 0.03325 0.22968 -0.36100
O 	O 	0.97572 0.84349 0.30245 -0.37100
O 	O 	0.85827 0.92038 0.22366 -0.38000
O 	O 	0.81940 0.80523 0.24532 -0.37000
O 	O 	0.04834 0.97276 0.31124 -0.38600
O 	O 	0.91937 0.06071 0.29433 -0.34300
O 	O 	0.03789 0.09753 0.28542 -0.36100
O 	O 	0.96282 0.84006 0.23963 -0.38000
O 	O 	0.93984 0.94505 0.27391 -0.72300
H 	H 	0.93371 0.95016 0.29445 0.15300
C 	C 	0.05289 0.21019 0.16613 0.08700
C 	C 	0.03379 0.23910 0.14256 -0.08000
C 	C 	0.08282 0.26990 0.11985 0.02600
C 	C 	0.14761 0.26937 0.12038 0.08600
C 	C 	0.16379 0.23488 0.14319 -0.07800
C 	C 	0.11679 0.20887 0.16651 0.01700
N 	N 	0.00509 0.15676 0.18382 -0.15000
C 	C 	0.03756 0.11978 0.19504 0.01300
C 	C 	0.10761 0.15134 0.18508 -0.04200
N 	N 	0.19852 0.33124 0.10676 -0.14900
C 	C 	0.16798 0.37277 0.09817 0.01700
C 	C 	0.09570 0.33522 0.10537 -0.04200
H 	H 	0.98388 0.24037 0.14236 0.07000
H 	H 	0.21360 0.23343 0.14358 0.06500
H 	H 	0.14016 0.12395 0.18569 0.06100
H 	H 	0.06490 0.36394 0.10868 0.07400
H 	H 	0.94978 0.13564 0.18335 0.09800
H 	H 	0.25326 0.35477 0.11086 0.09600
C 	C 	0.54142 0.81149 0.19615 0.07700
C 	C 	0.56893 0.77142 0.21137 -0.08100
C 	C 	0.63328 0.77667 0.20198 0.01500
C 	C 	0.67307 0.82652 0.18034 0.08600
C 	C 	0.64770 0.86948 0.16594 -0.08200
C 	C 	0.58049 0.85991 0.17380 0.02000
N 	N 	0.47089 0.78162 0.19125 -0.15200
C 	C 	0.46375 0.80680 0.16534 0.01800
C 	C 	0.53101 0.85731 0.15430 -0.04700
N 	N 	0.74314 0.84990 0.18380 -0.15000
C 	C 	0.74845 0.81486 0.20761 0.00300
C 	C 	0.68099 0.76859 0.21939 -0.04100
H 	H 	0.53905 0.73400 0.22887 0.05700
H 	H 	0.67825 0.90750 0.14869 0.06500
H 	H 	0.54216 0.86791 0.13171 0.07400
H 	H 	0.67136 0.75293 0.24173 0.05700
H 	H 	0.43197 0.73035 0.20028 0.09300
H 	H 	0.78446 0.90104 0.17570 0.09400
C 	C 	0.07921 0.73658 0.21198 0.08400
C 	C 	0.06516 0.66112 0.21339 -0.08300
C 	C 	0.12313 0.64798 0.21754 0.02000
C 	C 	0.19224 0.70848 0.22159 0.07600
C 	C 	0.20438 0.78361 0.22309 -0.08100
C 	C 	0.14742 0.79643 0.21663 0.01100
N 	N 	0.02996 0.75767 0.21773 -0.15000
C 	C 	0.06666 0.83105 0.22626 0.00500
C 	C 	0.14006 0.85707 0.22618 -0.04100
N 	N 	0.24036 0.69207 0.20977 -0.15200
C 	C 	0.20322 0.62344 0.19698 0.00500
C 	C 	0.13045 0.59319 0.20261 -0.04400
H 	H 	0.01165 0.61431 0.20986 0.06600
H 	H 	0.25763 0.83077 0.22673 0.05700
H 	H 	0.17862 0.90270 0.23942 0.05400
H 	H 	0.08881 0.55147 0.18904 0.06900
H 	H 	0.97675 0.71992 0.22323 0.09400
H 	H 	0.29140 0.73370 0.20317 0.09400
C 	C 	0.51699 0.67744 0.36124 0.08900
C 	C 	0.57875 0.67207 0.35608 -0.07500
C 	C 	0.61622 0.70322 0.33053 0.02300
C 	C 	0.59295 0.73883 0.31105 0.07900
C 	C 	0.53040 0.74272 0.31617 -0.07700
C 	C 	0.49417 0.71290 0.34189 0.02800
N 	N 	0.46162 0.62710 0.37716 -0.15100
C 	C 	0.40346 0.63146 0.36857 0.01200
C 	C 	0.42158 0.68249 0.34592 -0.04000
N 	N 	0.64892 0.79275 0.29642 -0.15200
C 	C 	0.70767 0.79274 0.30667 0.01100
C 	C 	0.68991 0.73764 0.32766 -0.04300
H 	H 	0.59647 0.64407 0.37115 0.07200
H 	H 	0.51200 0.77004 0.30107 0.06100
H 	H 	0.39013 0.70749 0.33826 0.06500
H 	H 	0.72611 0.73889 0.34399 0.07100
H 	H 	0.46630 0.60392 0.39646 0.10100
H 	H 	0.64916 0.83851 0.28582 0.09500
C 	C 	0.13350 0.33009 0.38388 0.08600
C 	C 	0.13783 0.26613 0.37516 -0.08100
C 	C 	0.07490 0.20263 0.36563 0.02100
C 	C 	0.00989 0.20283 0.36519 0.08700
C 	C 	0.00573 0.26642 0.37480 -0.07800
C 	C 	0.06928 0.33074 0.38305 0.01700
N 	N 	0.17745 0.38028 0.40323 -0.15200
C 	C 	0.14171 0.41288 0.41517 0.01300
C 	C 	0.07431 0.38367 0.40285 -0.03800
N 	N 	0.96803 0.15751 0.34420 -0.14900
C 	C 	0.00609 0.12949 0.33096 0.01500
C 	C 	0.07262 0.15595 0.34362 -0.04200
H 	H 	0.18830 0.26608 0.37543 0.06500
H 	H 	0.95548 0.26695 0.37455 0.06700
H 	H 	0.02993 0.38849 0.41159 0.06200
H 	H 	0.11934 0.16040 0.33291 0.05700
H 	H 	0.22448 0.38363 0.41110 0.09500
H 	H 	0.92684 0.16299 0.33458 0.10300
C 	C 	0.04569 0.81387 0.37998 0.08200
C 	C 	0.02328 0.76444 0.40344 -0.07800
C 	C 	0.06720 0.78647 0.42779 0.02400
C 	C 	0.12869 0.85799 0.42915 0.08900
C 	C 	0.14552 0.91048 0.40670 -0.08300
C 	C 	0.10562 0.88503 0.38163 0.01800
N 	N 	0.00147 0.81272 0.35940 -0.15000
C 	C 	0.03225 0.88391 0.34842 0.01100
C 	C 	0.09757 0.93028 0.36157 -0.04200
N 	N 	0.18010 0.85310 0.44391 -0.15100
C 	C 	0.15416 0.77907 0.45086 0.02300
C 	C 	0.08298 0.73696 0.44234 -0.03600
H 	H 	0.97611 0.70877 0.40218 0.06600
H 	H 	0.19197 0.96663 0.40783 0.07200
H 	H 	0.12614 0.99189 0.36121 0.05500
H 	H 	0.05596 0.67621 0.43848 0.06800
H 	H 	0.94733 0.77220 0.35754 0.09700
H 	H 	0.23466 0.89202 0.44174 0.11200
C 	C 	0.39862 0.89370 0.39568 -0.08600
C 	C 	0.47363 0.93300 0.39308 0.11800
C 	C 	0.51267 0.00462 0.40558 -0.05000
C 	C 	0.47634 0.03902 0.41813 0.00700
C 	C 	0.40313 0.00965 0.41217 0.12000
C 	C 	0.36413 0.93647 0.40063 -0.04800
H 	H 	0.57024 0.03037 0.40762 0.08100
C 	C 	0.51162 0.09545 0.44103 0.02800
H 	H 	0.30648 0.90993 0.39888 0.06700
C 	C 	0.57329 0.16402 0.43451 -0.08500
C 	C 	0.61657 0.21127 0.45626 0.15500
C 	C 	0.59289 0.19542 0.48499 -0.09200
C 	C 	0.53027 0.12744 0.49152 -0.01300
C 	C 	0.49139 0.07595 0.46989 0.10600
H 	H 	0.59071 0.17769 0.41251 0.08600
H 	H 	0.51243 0.11378 0.51346 0.07400
Br	Br	0.35563 0.06635 0.42129 -0.21100
Br	Br	0.52303 0.88380 0.37750 -0.23800
Br	Br	0.71230 0.28851 0.44649 -0.23600
Br	Br	0.41491 0.97702 0.48045 -0.25900
C 	C 	0.94867 0.56111 0.56378 -0.09700
C 	C 	0.00815 0.61986 0.54978 0.15200
C 	C 	0.07630 0.62967 0.55494 -0.08600
C 	C 	0.08469 0.58068 0.57390 0.01900
C 	C 	0.02800 0.53432 0.59231 0.08900
C 	C 	0.95999 0.52546 0.58741 -0.01800
H 	H 	0.12118 0.66948 0.54202 0.08300
C 	C 	0.14419 0.56521 0.56908 0.02400
H 	H 	0.91462 0.48367 0.59960 0.05200
C 	C 	0.21332 0.62065 0.57699 -0.08600
C 	C 	0.27162 0.63359 0.55980 0.14700
C 	C 	0.25986 0.59098 0.53465 -0.08700
C 	C 	0.19517 0.52306 0.53177 -0.02200
C 	C 	0.13642 0.51053 0.54857 0.08700
H 	H 	0.22061 0.65929 0.59430 0.08200
H 	H 	0.18749 0.48595 0.51385 0.06800
Br	Br	0.04090 0.47696 0.62212 -0.23600
Br	Br	0.99584 0.67912 0.52054 -0.22100
Br	Br	0.36484 0.71589 0.56866 -0.20100
Br	Br	0.04407 0.42640 0.53978 -0.21700
C 	C 	0.54062 0.73553 0.46632 -0.10000
C 	C 	0.56194 0.71710 0.49218 0.14300
C 	C 	0.62278 0.70868 0.49278 -0.08300
C 	C 	0.66169 0.71712 0.46767 0.02300
C 	C 	0.64765 0.74834 0.44334 0.08300
C 	C 	0.58666 0.75671 0.44260 -0.01400
H 	H 	0.63567 0.68826 0.51207 0.08400
C 	C 	0.70130 0.67497 0.46508 0.02300
H 	H 	0.57247 0.77468 0.42301 0.07300
C 	C 	0.66679 0.60267 0.45245 -0.08400
C 	C 	0.68328 0.54683 0.46121 0.14600
C 	C 	0.73571 0.56409 0.48218 -0.09700
C 	C 	0.77922 0.63994 0.49050 -0.01600
C 	C 	0.76225 0.69561 0.48193 0.08400
H 	H 	0.62225 0.58762 0.43811 0.08000
H 	H 	0.82238 0.65434 0.50550 0.07400
Br	Br	0.71032 0.77798 0.41092 -0.22600
Br	Br	0.50457 0.69465 0.52605 -0.19700
Br	Br	0.62965 0.44571 0.44624 -0.20500
Br	Br	0.81890 0.79792 0.49532 -0.21000
C 	C 	0.83959 0.15615 0.59049 0.08200
C 	C 	0.84176 0.08941 0.59669 -0.06900
C 	C 	0.90524 0.09685 0.60831 0.00800
C 	C 	0.96424 0.16844 0.61327 0.09100
C 	C 	0.96195 0.23500 0.60618 -0.08100
C 	C 	0.89751 0.22685 0.59571 0.02800
N 	N 	0.79693 0.16106 0.57066 -0.15000
C 	C 	0.82605 0.23573 0.56375 0.02600
C 	C 	0.89054 0.27789 0.57821 -0.04100
N 	N 	0.00225 0.16500 0.63547 -0.14800
C 	C 	0.96772 0.09235 0.64508 0.00100
C 	C 	0.90730 0.04822 0.62869 -0.00100
H 	H 	0.79572 0.03396 0.59303 0.07100
H 	H 	0.00749 0.29075 0.60995 0.08100
H 	H 	0.91578 0.33845 0.58217 0.07200
H 	H 	0.86056 0.99734 0.63636 0.03000
H 	H 	0.74338 0.12008 0.56753 0.10500
H 	H 	0.03631 0.21188 0.64791 0.10000
C 	C 	0.44466 0.27864 0.62503 0.07900
C 	C 	0.41352 0.26674 0.65222 -0.07800
C 	C 	0.33884 0.22105 0.65419 0.01400
C 	C 	0.29722 0.18897 0.63005 0.08500
C 	C 	0.32883 0.20177 0.60282 -0.07900
C 	C 	0.40358 0.24592 0.60112 0.01800
N 	N 	0.50723 0.33971 0.61777 -0.15100
C 	C 	0.50792 0.34484 0.58889 0.00600
C 	C 	0.44230 0.28908 0.57800 -0.04000
N 	N 	0.23667 0.12510 0.63719 -0.15000
C 	C 	0.23986 0.11438 0.66554 0.00800
C 	C 	0.30314 0.17278 0.67673 -0.04500
H 	H 	0.44597 0.29124 0.67104 0.05800
H 	H 	0.29680 0.17671 0.58395 0.06800
H 	H 	0.43275 0.26984 0.55607 0.06500
H 	H 	0.31235 0.18870 0.69899 0.05100
H 	H 	0.55280 0.36309 0.63062 0.09300
H 	H 	0.20201 0.08365 0.62294 0.10200
C 	C 	0.82974 0.66684 0.66783 0.08300
C 	C 	0.76294 0.60305 0.67334 -0.08200
C 	C 	0.75870 0.53120 0.67462 0.01600
C 	C 	0.82077 0.52499 0.67330 0.08200
C 	C 	0.88858 0.59116 0.67212 -0.07900
C 	C 	0.89107 0.66088 0.66713 0.01600
N 	N 	0.84563 0.73854 0.67385 -0.15100
C 	C 	0.91760 0.77893 0.67710 0.00500
C 	C 	0.94784 0.73208 0.67342 -0.03900
N 	N 	0.80744 0.46204 0.65864 -0.15100
C 	C 	0.73999 0.43118 0.64827 0.01100
C 	C 	0.70668 0.46924 0.65997 -0.04500
H 	H 	0.71498 0.60813 0.67416 0.05900
H 	H 	0.93707 0.58707 0.67166 0.06300
H 	H 	0.99745 0.74185 0.68312 0.04900
H 	H 	0.66131 0.46976 0.65003 0.05100
H 	H 	0.80952 0.75354 0.68272 0.09300
H 	H 	0.84778 0.45571 0.64856 0.09400
C 	C 	0.05208 0.58307 0.07935 -0.10300
C 	C 	0.00084 0.50749 0.08568 0.15400
C 	C 	0.95765 0.46055 0.06380 -0.08800
C 	C 	0.95786 0.49247 0.03712 0.02300
C 	C 	0.99097 0.57245 0.03473 0.08800
C 	C 	0.03986 0.61785 0.05570 -0.00800
H 	H 	0.92744 0.39957 0.06703 0.08100
C 	C 	0.93111 0.44302 0.01151 0.02100
H 	H 	0.07348 0.67834 0.05206 0.07100
C 	C 	0.86311 0.37805 0.01198 -0.08500
C 	C 	0.83587 0.33490 0.98722 0.14100
C 	C 	0.87006 0.36439 0.96092 -0.09300
C 	C 	0.94211 0.42151 0.96117 -0.00800
C 	C 	0.97391 0.45859 0.98673 0.09100
H 	H 	0.83228 0.36012 0.03158 0.08000
H 	H 	0.97191 0.44028 0.94134 0.06800
Br	Br	0.96913 0.61972 0.00368 -0.20300
Br	Br	0.99884 0.46509 0.12252 -0.23700
Br	Br	0.76044 0.23193 0.99033 -0.19400
Br	Br	0.07589 0.52357 0.98801 -0.20800
C 	C 	0.35572 0.83135 0.04202 -0.09000
C 	C 	0.43016 0.87402 0.04619 0.14500
C 	C 	0.47098 0.93995 0.03020 -0.07700
C 	C 	0.43910 0.96157 0.00874 0.00000
C 	C 	0.36538 0.91598 0.00317 0.09300
C 	C 	0.32379 0.85189 0.02018 -0.01300
H 	H 	0.52813 0.97324 0.03382 0.08000
C 	C 	0.48496 0.02708 0.99028 0.04500
H 	H 	0.26663 0.81861 0.01659 0.07500
C 	C 	0.53156 0.02051 0.97100 -0.05700
C 	C 	0.58263 0.08406 0.95607 0.14900
C 	C 	0.58389 0.15450 0.95875 -0.07800
C 	C 	0.53703 0.16109 0.97798 -0.00900
C 	C 	0.48863 0.09817 0.99416 0.09000
H 	H 	0.53032 0.96646 0.96864 0.06800
H 	H 	0.53820 0.21509 0.98040 0.07600
Br	Br	0.32109 0.93921 0.97208 -0.20800
Br	Br	0.47780 0.83958 0.07193 -0.23400
Br	Br	0.65492 0.07493 0.93486 -0.19000
Br	Br	0.42960 0.11094 0.02199 -0.17800
C 	C 	0.40101 0.54923 0.04428 -0.09300
C 	C 	0.47109 0.56036 0.04320 0.15000
C 	C 	0.49354 0.53584 0.01929 -0.07900
C 	C 	0.44737 0.50291 0.99598 0.02400
C 	C 	0.37689 0.49025 0.99743 0.08400
C 	C 	0.35355 0.51132 0.02181 -0.00700
H 	H 	0.54745 0.54426 0.01849 0.08700
C 	C 	0.47270 0.48026 0.97043 0.02600
H 	H 	0.29940 0.50221 0.02259 0.06300
C 	C 	0.44673 0.40289 0.96484 -0.08100
C 	C 	0.47650 0.38077 0.94282 0.15000
C 	C 	0.53651 0.43608 0.92778 -0.09700
C 	C 	0.55624 0.51309 0.93088 -0.00900
C 	C 	0.52450 0.53541 0.95215 0.08200
H 	H 	0.40446 0.36002 0.97797 0.09300
H 	H 	0.60026 0.55604 0.91844 0.06500
Br	Br	0.31312 0.44913 0.96554 -0.19800
Br	Br	0.53785 0.61200 0.07336 -0.21000
Br	Br	0.43785 0.27450 0.93476 -0.21700
Br	Br	0.55334 0.64124 0.95623 -0.20400
C 	C 	0.90815 0.33371 0.80165 0.08200
C 	C 	0.96183 0.31408 0.80618 -0.08300
C 	C 	0.94473 0.23842 0.80143 0.02000
C 	C 	0.87720 0.18462 0.79209 0.08400
C 	C 	0.82490 0.20527 0.78621 -0.08100
C 	C 	0.84209 0.28111 0.79050 0.01600
N 	N 	0.90125 0.38476 0.81788 -0.15200
C 	C 	0.83128 0.36558 0.81712 0.00600
C 	C 	0.79332 0.30216 0.79995 -0.04400
N 	N 	0.88095 0.12888 0.77793 -0.15100
C 	C 	0.95076 0.14753 0.77734 0.01600
C 	C 	0.99238 0.21568 0.79171 -0.04500
H 	H 	0.01412 0.35557 0.81399 0.06500
H 	H 	0.77259 0.16367 0.77845 0.06200
H 	H 	0.73657 0.26275 0.80239 0.05900
H 	H 	0.04853 0.25414 0.78740 0.06200
H 	H 	0.93578 0.41482 0.83461 0.09800
H 	H 	0.84290 0.09337 0.76309 0.10000
C 	C 	0.45382 0.12693 0.80782 0.08100
C 	C 	0.42217 0.12635 0.78151 -0.07700
C 	C 	0.34978 0.10661 0.78170 0.01500
C 	C 	0.31370 0.09974 0.80692 0.08900
C 	C 	0.34818 0.11093 0.83327 -0.08100
C 	C 	0.41683 0.11827 0.83329 0.02800
N 	N 	0.52486 0.16742 0.81228 -0.15000
C 	C 	0.53375 0.18515 0.84032 0.01900
C 	C 	0.46785 0.15609 0.85400 -0.04400
N 	N 	0.25830 0.11195 0.80237 -0.15200
C 	C 	0.25680 0.12379 0.77395 0.01300
C 	C 	0.31564 0.12477 0.76073 -0.04500
H 	H 	0.45365 0.14482 0.76207 0.05900
H 	H 	0.32443 0.11788 0.85266 0.07500
H 	H 	0.45865 0.18042 0.87307 0.07000
H 	H 	0.31910 0.11524 0.73821 0.05300
H 	H 	0.56231 0.19913 0.79648 0.09300
H 	H 	0.21452 0.09399 0.81615 0.10000
C 	C 	0.90997 0.72216 0.88135 0.08700
C 	C 	0.95721 0.74837 0.85791 -0.08400
C 	C 	0.93563 0.77139 0.83347 0.01800
C 	C 	0.87444 0.77785 0.83338 0.08000
C 	C 	0.83060 0.75919 0.85760 -0.08200
C 	C 	0.84806 0.72876 0.88136 0.01800
N 	N 	0.89852 0.66024 0.89635 -0.14900
C 	C 	0.82935 0.62473 0.90493 0.01500
C 	C 	0.79731 0.66739 0.89685 -0.03900
N 	N 	0.87936 0.82815 0.81338 -0.15100
C 	C 	0.94441 0.85496 0.80098 0.00900
C 	C 	0.98057 0.82011 0.81272 -0.04700
H 	H 	0.00566 0.74420 0.85785 0.06500
H 	H 	0.78241 0.76388 0.85743 0.06200
H 	H 	0.74016 0.64297 0.89358 0.05500
H 	H 	0.03768 0.84127 0.81120 0.05100
H 	H 	0.92778 0.63192 0.89318 0.10300
H 	H 	0.84789 0.85449 0.81250 0.09400
