data_crystal

_cell_length_a 20.22643
_cell_length_b 20.65212
_cell_length_c 45.18331
_cell_angle_alpha 95.46436
_cell_angle_beta  95.46420
_cell_angle_gamma 126.13645

_symmetry_space_group_name_	'P 1'
_symmetry_space_group_name_H-M	'P 1'

loop_
_symmetry_equiv_pos_as_xyz
  x,y,z

loop_
_atom_site_label
_atom_site_type_symbol
_atom_site_fract_x
_atom_site_fract_y
_atom_site_fract_z
_atom_site_charge
C 	C 	0.03406 0.00263 0.96955 0.03600
C 	C 	0.99257 0.03785 0.96906 -0.07000
H 	H 	0.02689 0.10242 0.96854 0.05300
C 	C 	0.95307 0.03821 0.49531 0.05100
C 	C 	0.07589 0.04353 0.49350 0.04900
C 	C 	0.03869 0.08331 0.49485 -0.08600
H 	H 	0.07590 0.14861 0.49550 0.05600
Cu	Cu	0.74606 0.33608 0.96769 0.92600
Cu	Cu	0.74061 0.27957 0.03350 0.87100
Cu	Cu	0.61100 0.29076 0.00504 0.89800
Cu	Cu	0.58745 0.32415 0.94322 0.89600
C 	C 	0.68583 0.30333 0.90360 0.28900
O 	O 	0.79055 0.45431 0.96619 -0.35800
C 	C 	0.66689 0.32731 0.07189 0.28800
O 	O 	0.61566 0.26597 0.96358 -0.63800
O 	O 	0.73403 0.34999 0.01025 -0.64200
O 	O 	0.80398 0.28405 0.97233 -0.37100
O 	O 	0.71568 0.19840 0.00117 -0.44200
O 	O 	0.64946 0.33796 0.90956 -0.38300
O 	O 	0.49079 0.22629 0.99754 -0.38300
C 	C 	0.44430 0.22440 0.97437 0.31500
C 	C 	0.74968 0.48223 0.97469 0.30100
O 	O 	0.67245 0.43097 0.97809 -0.39500
O 	O 	0.47702 0.27453 0.95507 -0.39500
O 	O 	0.73660 0.30550 0.92512 -0.36100
C 	C 	0.76865 0.21587 0.98305 0.30700
O 	O 	0.60562 0.29889 0.04865 -0.38300
O 	O 	0.73478 0.33452 0.06833 -0.41900
H 	H 	0.58186 0.20691 0.95504 0.16500
H 	H 	0.76670 0.40729 0.02102 0.17400
Cu	Cu	0.62762 0.22363 0.50530 0.92800
Cu	Cu	0.67921 0.22573 0.43859 0.87100
Cu	Cu	0.67181 0.35469 0.46787 0.89800
Cu	Cu	0.64639 0.38170 0.53075 0.89600
C 	C 	0.66562 0.28272 0.56944 0.29000
O 	O 	0.51021 0.18459 0.50851 -0.36200
C 	C 	0.63147 0.30005 0.40087 0.28800
O 	O 	0.70162 0.35106 0.50899 -0.63900
O 	O 	0.61011 0.23423 0.46280 -0.64200
O 	O 	0.67360 0.16149 0.49922 -0.37500
O 	O 	0.76154 0.24620 0.47016 -0.44300
O 	O 	0.63127 0.31944 0.56396 -0.38200
O 	O 	0.73837 0.47220 0.47513 -0.38600
C 	C 	0.73349 0.51784 0.49594 0.31700
C 	C 	0.48184 0.22413 0.49943 0.30300
O 	O 	0.53406 0.30068 0.49678 -0.39700
O 	O 	0.70360 0.49262 0.52064 -0.39400
O 	O 	0.66254 0.23326 0.54755 -0.36000
C 	C 	0.74186 0.19326 0.48795 0.31200
O 	O 	0.65860 0.35906 0.42427 -0.38300
O 	O 	0.62273 0.23284 0.40431 -0.42000
H 	H 	0.76231 0.38324 0.51658 0.16800
H 	H 	0.55119 0.20258 0.45255 0.17400
C 	C 	0.68779 0.28051 0.60118 -0.08600
C 	C 	0.72846 0.35142 0.62340 0.01800
C 	C 	0.73757 0.34722 0.65407 -0.07100
C 	C 	0.70607 0.27218 0.66279 0.04600
C 	C 	0.66935 0.20201 0.64064 -0.07100
C 	C 	0.66040 0.20612 0.60991 0.02200
C 	C 	0.70428 0.26599 0.69426 -0.02900
C 	C 	0.70361 0.26262 0.72076 0.00000
C 	C 	0.70130 0.26020 0.75182 0.00000
C 	C 	0.69807 0.25942 0.77832 -0.02900
C 	C 	0.69273 0.26006 0.80993 0.04600
C 	C 	0.61725 0.23286 0.81895 -0.07100
C 	C 	0.61420 0.24347 0.84968 0.01800
C 	C 	0.68670 0.28139 0.87168 -0.08600
C 	C 	0.76148 0.30507 0.86265 0.02200
C 	C 	0.76446 0.29464 0.83185 -0.07100
H 	H 	0.75082 0.40934 0.61694 0.02300
H 	H 	0.76670 0.40187 0.67106 0.05100
H 	H 	0.64530 0.14382 0.64721 0.05200
H 	H 	0.62906 0.15095 0.59301 0.04000
H 	H 	0.56143 0.20562 0.80213 0.05000
H 	H 	0.55594 0.22404 0.85637 0.02300
H 	H 	0.81790 0.33436 0.87937 0.04100
H 	H 	0.82301 0.31559 0.82506 0.05300
C 	C 	0.65502 0.34231 0.10288 -0.09000
C 	C 	0.72449 0.39879 0.12591 0.01700
C 	C 	0.71477 0.40402 0.15608 -0.07300
C 	C 	0.63563 0.35311 0.16348 0.04400
C 	C 	0.56561 0.29993 0.14042 -0.07200
C 	C 	0.57515 0.29461 0.11021 0.01600
C 	C 	0.62741 0.34986 0.19476 -0.03100
C 	C 	0.62119 0.34760 0.22100 -0.00200
C 	C 	0.61504 0.34344 0.25176 -0.00200
C 	C 	0.61076 0.33859 0.27800 -0.03100
C 	C 	0.60687 0.33120 0.30932 0.04400
C 	C 	0.55260 0.25420 0.31681 -0.07300
C 	C 	0.55735 0.24471 0.34700 0.01700
C 	C 	0.61670 0.31226 0.36995 -0.09100
C 	C 	0.66780 0.39016 0.36254 0.01600
C 	C 	0.66304 0.39947 0.33230 -0.07200
H 	H 	0.78624 0.43715 0.12055 0.03000
H 	H 	0.76911 0.44589 0.17377 0.04900
H 	H 	0.50413 0.26077 0.14595 0.05000
H 	H 	0.52090 0.25109 0.09270 0.03700
H 	H 	0.50850 0.20124 0.29918 0.04900
H 	H 	0.51645 0.18453 0.35244 0.03000
H 	H 	0.71361 0.44289 0.37999 0.03600
H 	H 	0.70490 0.45930 0.32670 0.05000
C 	C 	0.77506 0.60197 0.49440 -0.11300
C 	C 	0.78941 0.16272 0.49183 -0.12300
C 	C 	0.82974 0.13725 0.49389 0.06100
C 	C 	0.87595 0.10621 0.49517 -0.02800
C 	C 	0.91309 0.07723 0.49553 -0.01700
C 	C 	0.16390 0.08871 0.49390 -0.01800
C 	C 	0.23709 0.12221 0.49447 -0.02500
C 	C 	0.32227 0.15814 0.49557 0.05900
C 	C 	0.39496 0.18789 0.49699 -0.11400
C 	C 	0.78304 0.56609 0.97454 -0.11100
C 	C 	0.80710 0.63521 0.97407 0.05800
C 	C 	0.79427 0.16434 0.97771 -0.11900
C 	C 	0.81487 0.12004 0.97465 0.05800
C 	C 	0.84077 0.06935 0.97227 -0.02800
C 	C 	0.86721 0.02987 0.97092 -0.01400
C 	C 	0.12222 0.05208 0.97029 -0.01200
C 	C 	0.19612 0.09217 0.97113 -0.02900
C 	C 	0.28256 0.13814 0.97227 0.06300
C 	C 	0.35645 0.17730 0.97327 -0.11500
C 	C 	0.81121 0.67313 0.49355 0.06200
C 	C 	0.83503 0.71607 0.97321 -0.02500
C 	C 	0.90727 0.99048 0.96983 0.04100
C 	C 	0.86308 0.90670 0.97089 -0.07700
C 	C 	0.90533 0.87146 0.97108 0.04100
C 	C 	0.99051 0.91975 0.97036 -0.07100
H 	H 	0.79718 0.86974 0.97171 0.05500
H 	H 	0.02315 0.89281 0.97072 0.05200
C 	C 	0.90528 0.95395 0.49450 -0.08400
C 	C 	0.94257 0.91462 0.49309 0.05200
C 	C 	0.02762 0.95928 0.49252 -0.08700
H 	H 	0.83916 0.91907 0.49487 0.05700
H 	H 	0.05645 0.92860 0.49159 0.05700
C 	C 	0.89409 0.82862 0.49292 -0.01700
C 	C 	0.85507 0.75679 0.49303 -0.02500
C 	C 	0.86287 0.78605 0.97230 -0.01400
