data_crystal

_cell_length_a 26.90417
_cell_length_b 22.03579
_cell_length_c 56.90715
_cell_angle_alpha 90.49376
_cell_angle_beta  90.59718
_cell_angle_gamma 113.32630

_symmetry_space_group_name_	'P 1'
_symmetry_space_group_name_H-M	'P 1'

loop_
_symmetry_equiv_pos_as_xyz
  x,y,z

loop_
_atom_site_label
_atom_site_type_symbol
_atom_site_fract_x
_atom_site_fract_y
_atom_site_fract_z
_atom_site_charge
C 	C 	0.46306 0.51173 0.00155 0.02800
N 	N 	0.54111 0.11476 0.00249 -0.01400
C 	C 	0.00791 0.55651 0.00007 0.02700
H 	H 	0.47882 0.39820 0.00299 0.08300
H 	H 	0.01815 0.65847 0.00320 0.08300
N 	N 	0.00151 0.44165 0.99919 -0.01600
C 	C 	0.37856 0.92344 0.00672 -0.00700
C 	C 	0.03564 0.62285 0.00690 -0.07200
C 	C 	0.03059 0.51021 0.00497 0.05600
O 	O 	0.58983 0.12822 0.01052 -0.09400
H 	H 	0.33615 0.90973 0.01059 0.06600
C 	C 	0.46339 0.91022 0.01290 0.12300
O 	O 	0.16185 0.74659 0.01415 -0.10900
H 	H 	0.33453 0.49711 0.01289 0.04000
O 	O 	0.51047 0.83978 0.01527 -0.07600
C 	C 	0.37813 0.51429 0.01471 -0.00600
O 	O 	0.95325 0.40972 0.00737 -0.08400
O 	O 	0.50356 0.11433 0.01679 -0.08300
C 	C 	0.08704 0.64399 0.01747 0.12100
C 	C 	0.40810 0.89198 0.01825 -0.09000
C 	C 	0.49112 0.56027 0.01844 -0.07300
C 	C 	0.08219 0.53147 0.01526 -0.00000
O 	O 	0.20276 0.60773 0.02028 -0.40400
N 	N 	0.90565 0.54692 0.01897 -0.01600
H 	H 	0.53477 0.57764 0.02005 0.08100
N 	N 	0.11561 0.71227 0.02372 -0.02500
C 	C 	0.11082 0.59820 0.02125 -0.09100
N 	N 	0.49570 0.88284 0.02550 -0.02100
H 	H 	0.09985 0.49592 0.01880 0.05800
O 	O 	0.88688 0.59099 0.02474 -0.09900
C 	C 	0.40650 0.56596 0.03058 -0.09100
H 	H 	0.29794 0.71239 0.03171 0.16900
C 	C 	0.16482 0.61920 0.03193 0.31400
C 	C 	0.46317 0.58686 0.03318 0.12500
O 	O 	0.09349 0.74131 0.03762 -0.09300
Ni	Ni	0.26441 0.59174 0.03590 1.07500
C 	C 	0.38170 0.84219 0.03649 0.30500
O 	O 	0.91737 0.51351 0.03528 -0.08600
O 	O 	0.40000 0.79604 0.04090 -0.34700
C 	C 	0.37778 0.60260 0.04233 0.29100
O 	O 	0.40134 0.66738 0.04448 -0.34800
O 	O 	0.51504 0.90606 0.04624 -0.08300
O 	O 	0.29588 0.68455 0.04552 -0.70500
O 	O 	0.53438 0.68663 0.04555 -0.07900
O 	O 	0.32784 0.57076 0.04960 -0.40900
O 	O 	0.34339 0.84770 0.04930 -0.41000
N 	N 	0.49230 0.63418 0.05104 -0.02100
O 	O 	0.17244 0.64266 0.05382 -0.36300
O 	O 	0.21278 0.54224 0.06231 -0.39100
Ni	Ni	0.36709 0.71919 0.06402 1.10400
Ni	Ni	0.24653 0.69831 0.06898 1.10300
O 	O 	0.47873 0.62287 0.07294 -0.09800
O 	O 	0.43561 0.76088 0.08371 -0.35600
H 	H 	0.19896 0.42942 0.08330 0.03900
O 	O 	0.42647 0.86031 0.08530 -0.39600
O 	O 	0.32020 0.74674 0.08487 -0.70300
Ni	Ni	0.34556 0.84232 0.08492 1.06800
C 	C 	0.21848 0.56024 0.08460 0.30900
O 	O 	0.26748 0.84123 0.08621 -0.40100
O 	O 	0.24113 0.62279 0.09081 -0.39900
C 	C 	0.44696 0.81909 0.09388 0.27800
O 	O 	0.21001 0.73449 0.09371 -0.36100
O 	O 	0.02447 0.41027 0.98685 -0.09800
H 	H 	0.52010 0.94579 0.09956 0.04800
C 	C 	0.18322 0.44399 0.09882 0.02400
H 	H 	0.22026 0.91811 0.09837 0.04200
C 	C 	0.22811 0.79834 0.09867 0.27300
H 	H 	0.32127 0.73111 0.10106 0.15600
C 	C 	0.19150 0.51044 0.10258 -0.08700
C 	C 	0.49227 0.84419 0.11082 -0.08100
C 	C 	0.52673 0.91157 0.11148 0.02000
H 	H 	0.14752 0.34483 0.11186 0.05700
C 	C 	0.19682 0.88597 0.11207 0.01500
C 	C 	0.15418 0.39605 0.11504 -0.06800
C 	C 	0.19672 0.82250 0.11472 -0.08100
C 	C 	0.17147 0.52853 0.12303 0.02300
H 	H 	0.16579 0.95646 0.12455 0.05400
C 	C 	0.57065 0.93463 0.12719 -0.06600
C 	C 	0.50168 0.80047 0.12629 0.01800
H 	H 	0.47502 0.74853 0.12613 0.03600
H 	H 	0.59753 0.98650 0.12738 0.05600
H 	H 	0.17728 0.57949 0.12613 0.03900
C 	C 	0.16576 0.90769 0.12687 -0.06500
C 	C 	0.16576 0.78155 0.13257 0.01500
C 	C 	0.13326 0.41408 0.13512 0.04600
H 	H 	0.16573 0.73284 0.13504 0.03800
C 	C 	0.14244 0.48046 0.13920 -0.06900
C 	C 	0.58030 0.89063 0.14234 0.04500
C 	C 	0.54557 0.82367 0.14198 -0.06600
C 	C 	0.13444 0.86634 0.14444 0.04100
C 	C 	0.13475 0.80341 0.14733 -0.06600
C 	C 	0.10131 0.36418 0.15124 -0.02200
H 	H 	0.55290 0.78946 0.15370 0.05400
H 	H 	0.12652 0.49476 0.15474 0.05200
C 	C 	0.62722 0.91346 0.15742 -0.02200
C 	C 	0.10134 0.88814 0.15929 -0.02100
H 	H 	0.11083 0.77128 0.16094 0.05200
C 	C 	0.07465 0.32178 0.16456 -0.00900
C 	C 	0.66686 0.93190 0.16990 -0.00800
H 	H 	0.96477 0.86060 0.17107 0.04800
H 	H 	0.08335 0.20597 0.17101 0.04500
C 	C 	0.07357 0.90641 0.17165 -0.01300
H 	H 	0.73285 0.86864 0.17602 0.04700
C 	C 	0.04297 0.27012 0.18015 0.02000
C 	C 	0.05195 0.21183 0.18139 -0.04000
C 	C 	0.98392 0.89998 0.18385 -0.04400
C 	C 	0.71428 0.95297 0.18466 0.01700
C 	C 	0.74521 0.91476 0.18585 -0.04000
C 	C 	0.04044 0.92832 0.18645 0.02400
C 	C 	0.00215 0.27719 0.19359 -0.04200
H 	H 	0.99489 0.32211 0.19269 0.04700
H 	H 	0.70650 0.04211 0.19660 0.04600
H 	H 	0.91348 0.03814 0.19502 0.04700
H 	H 	0.90834 0.90144 0.19522 0.03900
C 	C 	0.02012 0.16061 0.19586 -0.04100
H 	H 	0.02722 0.11569 0.19657 0.04400
C 	C 	0.73035 0.01241 0.19744 -0.03700
C 	C 	0.95192 0.92307 0.19754 -0.03400
C 	C 	0.79245 0.93629 0.19957 -0.03600
H 	H 	0.81623 0.90656 0.20045 0.03900
C 	C 	0.06479 0.97915 0.20305 -0.05700
H 	H 	0.10845 0.00141 0.20514 0.04900
C 	C 	0.97020 0.22588 0.20810 -0.03500
C 	C 	0.97920 0.16742 0.20933 0.01500
C 	C 	0.77763 0.03401 0.21116 -0.03100
C 	C 	0.80882 0.99600 0.21221 0.00500
Ni	Ni	0.24369 0.70529 0.41286 1.10200
O 	O 	0.30341 0.72910 0.38814 -0.70200
Ni	Ni	0.35933 0.70624 0.40546 1.09900
O 	O 	0.19681 0.74263 0.39422 -0.35200
O 	O 	0.26517 0.83858 0.38390 -0.39600
O 	O 	0.19963 0.61837 0.39501 -0.36200
Ni	Ni	0.33692 0.82450 0.38240 1.06500
O 	O 	0.18526 0.57245 0.43810 -0.39200
O 	O 	0.34578 0.84501 0.41753 -0.40800
O 	O 	0.41622 0.73343 0.37977 -0.37800
O 	O 	0.29913 0.68149 0.42990 -0.70400
O 	O 	0.18711 0.67726 0.43861 -0.36000
O 	O 	0.40546 0.66829 0.42444 -0.34600
O 	O 	0.33636 0.57100 0.43300 -0.40100
Ni	Ni	0.26478 0.58545 0.43481 1.07200
H 	H 	0.29168 0.70350 0.37326 0.15100
H 	H 	0.31073 0.70627 0.44492 0.18200
C 	C 	0.38471 0.83817 0.42967 0.31100
O 	O 	0.25537 0.56412 0.39980 -0.41100
C 	C 	0.21744 0.79150 0.37947 0.28100
C 	C 	0.43251 0.79249 0.37035 0.28400
C 	C 	0.22004 0.57710 0.38704 0.28500
C 	C 	0.38414 0.61710 0.43820 0.29900
C 	C 	0.16805 0.61655 0.44670 0.30100
O 	O 	0.40343 0.79369 0.42332 -0.35200
O 	O 	0.41622 0.83713 0.37916 -0.40500
C 	C 	0.97623 0.97442 0.21399 0.00100
C 	C 	0.03285 0.00228 0.21674 -0.02400
H 	H 	0.05215 0.04291 0.22903 0.03700
H 	H 	0.46141 0.89238 0.33890 0.02000
C 	C 	0.98130 0.17800 0.26141 0.01400
C 	C 	0.03776 0.19830 0.26140 -0.04000
C 	C 	0.07060 0.25377 0.27459 -0.04000
C 	C 	0.04715 0.28893 0.28795 0.01800
C 	C 	0.99080 0.26905 0.28777 -0.03800
C 	C 	0.95795 0.21359 0.27459 -0.04000
C 	C 	0.08053 0.34312 0.30285 -0.00900
C 	C 	0.10782 0.38862 0.31544 -0.02100
C 	C 	0.13930 0.44205 0.33104 0.04200
C 	C 	0.19078 0.44833 0.33869 -0.06600
C 	C 	0.21843 0.49468 0.35620 0.01400
C 	C 	0.19445 0.53471 0.36636 -0.08200
C 	C 	0.14402 0.53059 0.35770 0.01800
C 	C 	0.11657 0.48428 0.34018 -0.06400
H 	H 	0.05606 0.17066 0.25141 0.04100
H 	H 	0.11414 0.26876 0.27471 0.04300
H 	H 	0.97241 0.29597 0.29810 0.04600
H 	H 	0.91437 0.19801 0.27474 0.04100
H 	H 	0.20882 0.41621 0.33150 0.05200
H 	H 	0.25788 0.49840 0.36222 0.03700
H 	H 	0.12525 0.56170 0.36504 0.05800
H 	H 	0.07692 0.47999 0.33419 0.05600
C 	C 	0.18116 0.80450 0.36263 -0.08500
C 	C 	0.20222 0.83931 0.34202 0.01700
C 	C 	0.16904 0.85722 0.32705 -0.07000
C 	C 	0.11464 0.84043 0.33255 0.04400
C 	C 	0.09284 0.80309 0.35252 -0.06600
C 	C 	0.12593 0.78502 0.36752 0.02400
C 	C 	0.08280 0.86680 0.31899 -0.02100
C 	C 	0.05671 0.88933 0.30742 -0.01200
C 	C 	0.02687 0.91838 0.29383 0.02500
C 	C 	0.98319 0.87852 0.27956 -0.04400
C 	C 	0.95515 0.90730 0.26590 -0.03100
C 	C 	0.97111 0.97613 0.26629 0.00200
C 	C 	0.01418 0.01573 0.28091 -0.02600
C 	C 	0.04208 0.98694 0.29458 -0.05500
H 	H 	0.24450 0.85346 0.33783 0.01100
H 	H 	0.18599 0.88570 0.31151 0.04900
H 	H 	0.05068 0.78971 0.35679 0.06000
H 	H 	0.10903 0.75779 0.38328 0.05800
H 	H 	0.97114 0.82541 0.27898 0.04700
H 	H 	0.92143 0.87630 0.25486 0.04100
H 	H 	0.02653 0.06884 0.28141 0.03900
H 	H 	0.07576 0.01795 0.30565 0.05200
C 	C 	0.43106 0.95355 0.48228 -0.07200
C 	C 	0.47570 0.00567 0.47299 0.03200
C 	C 	0.49155 0.00099 0.44972 0.06100
C 	C 	0.46354 0.94377 0.43630 -0.00500
C 	C 	0.41802 0.89264 0.44535 -0.08300
C 	C 	0.40141 0.89784 0.46838 0.12300
H 	H 	0.47571 0.94041 0.41839 0.06400
N 	N 	0.35375 0.84744 0.47755 -0.02800
H 	H 	0.41900 0.95662 0.50022 0.08400
C 	C 	0.48092 0.10403 0.49719 0.05900
N 	N 	0.42673 0.09309 0.49015 -0.01600
O 	O 	0.31345 0.86181 0.48406 -0.09400
O 	O 	0.35251 0.78874 0.48127 -0.10800
O 	O 	0.39007 0.08470 0.50595 -0.09000
O 	O 	0.41482 0.09538 0.46805 -0.08200
C 	C 	0.01558 0.53783 0.48181 0.02600
C 	C 	0.06440 0.56501 0.49497 0.06000
C 	C 	0.11411 0.59179 0.48333 -0.00800
C 	C 	0.11554 0.59216 0.45870 -0.08400
C 	C 	0.06674 0.56523 0.44558 0.12500
C 	C 	0.01715 0.53791 0.45717 -0.07300
N 	N 	0.06370 0.56524 0.52012 -0.01600
H 	H 	0.15155 0.61218 0.49348 0.05400
N 	N 	0.06745 0.56493 0.42044 -0.02200
O 	O 	0.04982 0.50912 0.40883 -0.10000
O 	O 	0.08218 0.62025 0.40915 -0.08800
C 	C 	0.48991 0.50219 0.52093 -0.07400
C 	C 	0.48462 0.56460 0.48555 0.02600
H 	H 	0.44687 0.48816 0.52333 0.08100
C 	C 	0.45485 0.52015 0.46764 0.05800
C 	C 	0.42291 0.53829 0.45198 -0.00300
C 	C 	0.42030 0.60045 0.45401 -0.09100
C 	C 	0.45070 0.64523 0.47175 0.11700
N 	N 	0.45646 0.45615 0.46552 -0.01600
H 	H 	0.40015 0.50399 0.43819 0.06500
N 	N 	0.44714 0.70789 0.47463 -0.02900
O 	O 	0.42331 0.71906 0.49293 -0.09800
O 	O 	0.41185 0.40337 0.46631 -0.09400
O 	O 	0.50193 0.45076 0.46120 -0.08700
O 	O 	0.76349 0.42755 0.51469 -0.40100
C 	C 	0.91490 0.04235 0.21452 -0.04200
C 	C 	0.91711 0.05201 0.26131 -0.04100
H 	H 	0.91799 0.05613 0.28081 0.04700
C 	C 	0.94252 0.00234 0.22706 -0.00200
C 	C 	0.94514 0.11264 0.22444 -0.00500
C 	C 	0.85931 0.01943 0.22615 -0.00100
C 	C 	0.94322 0.00699 0.25114 -0.00100
C 	C 	0.94634 0.11755 0.24851 -0.00800
C 	C 	0.86034 0.02432 0.25013 -0.00200
H 	H 	0.93842 0.23142 0.21828 0.04300
H 	H 	0.79022 0.08035 0.22085 0.04200
C 	C 	0.81085 0.99565 0.26445 0.00500
C 	C 	0.78154 0.92690 0.26490 -0.03400
C 	C 	0.73380 0.90004 0.27778 -0.04100
C 	C 	0.71526 0.94167 0.29044 0.01700
C 	C 	0.74494 0.01030 0.29026 -0.03700
C 	C 	0.79268 0.03719 0.27736 -0.03300
C 	C 	0.66562 0.91399 0.30354 -0.00800
C 	C 	0.62414 0.89106 0.31451 -0.02100
C 	C 	0.57458 0.86405 0.32770 0.04400
C 	C 	0.53701 0.89346 0.32649 -0.06800
C 	C 	0.48997 0.86895 0.33991 0.01700
C 	C 	0.48012 0.81480 0.35475 -0.08300
C 	C 	0.51740 0.78455 0.35553 0.02200
C 	C 	0.56443 0.80919 0.34208 -0.06600
H 	H 	0.79554 0.89439 0.25515 0.04100
H 	H 	0.71125 0.84697 0.27786 0.04500
H 	H 	0.73100 0.04283 0.30003 0.04700
H 	H 	0.81513 0.09026 0.27719 0.04000
H 	H 	0.54439 0.93565 0.31532 0.05100
H 	H 	0.51064 0.74295 0.36690 0.05000
H 	H 	0.59318 0.78603 0.34306 0.05800
C 	C 	0.50642 0.06435 0.48791 0.02600
N 	N 	0.53486 0.05515 0.43942 -0.01800
C 	C 	0.50877 0.15460 0.51342 -0.00500
C 	C 	0.56276 0.16792 0.51977 -0.08800
C 	C 	0.58992 0.13277 0.50845 0.11800
C 	C 	0.56099 0.07943 0.49344 -0.07000
H 	H 	0.48806 0.18278 0.52135 0.07700
N 	N 	0.64717 0.15270 0.51145 -0.02000
H 	H 	0.58123 0.05030 0.48578 0.08800
O 	O 	0.57512 0.04576 0.42999 -0.09300
O 	O 	0.53207 0.11260 0.43790 -0.08700
O 	O 	0.67993 0.21263 0.50643 -0.10200
O 	O 	0.66669 0.10966 0.51754 -0.09100
C 	C 	0.94583 0.44704 0.50409 -0.07200
C 	C 	0.96253 0.50943 0.49371 0.02900
C 	C 	0.92743 0.54292 0.49352 0.05700
C 	C 	0.87607 0.51364 0.50355 -0.00200
C 	C 	0.85925 0.45127 0.51397 -0.08600
C 	C 	0.89428 0.41750 0.51403 0.12300
N 	N 	0.94381 0.60677 0.48315 -0.01600
H 	H 	0.84964 0.54013 0.50364 0.05400
N 	N 	0.87699 0.35235 0.52337 -0.02300
H 	H 	0.97240 0.42074 0.50396 0.08300
H 	H 	0.97978 0.51711 0.44699 0.08300
O 	O 	0.83475 0.30453 0.51440 -0.08700
O 	O 	0.91398 0.61696 0.46679 -0.09700
O 	O 	0.98656 0.65577 0.49113 -0.08500
C 	C 	0.51648 0.54504 0.50281 0.02700
C 	C 	0.57285 0.56603 0.50047 0.05600
C 	C 	0.60137 0.53983 0.51506 -0.00500
N 	N 	0.60109 0.61291 0.48297 -0.01700
H 	H 	0.64432 0.55374 0.51245 0.03900
C 	C 	0.48264 0.62702 0.48743 -0.07100
H 	H 	0.50546 0.66119 0.50124 0.08200
O 	O 	0.63943 0.66897 0.48920 -0.09700
O 	O 	0.59150 0.59746 0.46079 -0.08800
O 	O 	0.47416 0.75635 0.46089 -0.07700
C 	C 	0.80582 0.42308 0.52543 0.31100
Ni	Ni	0.70896 0.45376 0.53166 1.07500
H 	H 	0.66862 0.33273 0.53100 0.17400
C 	C 	0.57403 0.49265 0.53194 -0.09500
O 	O 	0.09104 0.53808 0.53187 -0.09900
O 	O 	0.03881 0.59648 0.53129 -0.08700
C 	C 	0.51851 0.47662 0.53575 0.12500
O 	O 	0.90587 0.33976 0.53958 -0.08600
C 	C 	0.58849 0.21331 0.53979 0.30300
C 	C 	0.60202 0.45525 0.54349 0.29400
O 	O 	0.67675 0.36476 0.54423 -0.70300
O 	O 	0.56948 0.25756 0.54621 -0.36400
O 	O 	0.80205 0.39668 0.54665 -0.34900
O 	O 	0.57590 0.39166 0.54718 -0.35700
O 	O 	0.65421 0.48428 0.54831 -0.41100
O 	O 	0.44628 0.38429 0.55108 -0.09000
O 	O 	0.62490 0.20312 0.55282 -0.39300
N 	N 	0.49135 0.43533 0.55487 -0.02200
O 	O 	0.76875 0.50554 0.55561 -0.39500
Ni	Ni	0.73148 0.35218 0.56549 1.10500
Ni	Ni	0.61208 0.34128 0.56611 1.10300
H 	H 	0.85202 0.60963 0.57066 0.04700
O 	O 	0.50995 0.45100 0.57625 -0.10300
C 	C 	0.76540 0.49478 0.57827 0.30600
O 	O 	0.66272 0.31518 0.58522 -0.70100
O 	O 	0.70612 0.21323 0.58712 -0.39500
O 	O 	0.74968 0.43455 0.58628 -0.39100
C 	C 	0.83657 0.60587 0.58833 0.02700
O 	O 	0.54985 0.31103 0.58918 -0.36600
O 	O 	0.77213 0.31797 0.58898 -0.35400
Ni	Ni	0.63091 0.21968 0.58810 1.06800
O 	O 	0.55121 0.20733 0.59057 -0.39800
C 	C 	0.79048 0.55070 0.59479 -0.08800
C 	C 	0.75009 0.25750 0.59722 0.27500
H 	H 	0.74842 0.13396 0.60157 0.04300
H 	H 	0.90050 0.69656 0.60002 0.06000
C 	C 	0.53431 0.25226 0.59901 0.27500
H 	H 	0.66806 0.33633 0.60099 0.15500
H 	H 	0.45593 0.30136 0.60243 0.06000
C 	C 	0.86422 0.65497 0.60499 -0.06800
C 	C 	0.77592 0.16955 0.61388 0.01700
C 	C 	0.78134 0.23563 0.61401 -0.08300
C 	C 	0.44995 0.26078 0.61420 0.01800
C 	C 	0.48713 0.23035 0.61484 -0.07700
C 	C 	0.77109 0.54666 0.61779 0.02400
H 	H 	0.73515 0.50481 0.62290 0.02800
H 	H 	0.80288 0.09861 0.62898 0.05400
H 	H 	0.37556 0.26123 0.62765 0.05900
C 	C 	0.80688 0.14953 0.62936 -0.06600
C 	C 	0.40418 0.23785 0.62845 -0.06200
C 	C 	0.81742 0.28109 0.63004 0.01700
C 	C 	0.84596 0.64938 0.62815 0.04700
C 	C 	0.47829 0.17751 0.63018 0.01400
H 	H 	0.82145 0.33200 0.63053 0.04000
H 	H 	0.50680 0.15400 0.63109 0.02000
C 	C 	0.79881 0.59581 0.63441 -0.07100
C 	C 	0.84341 0.19523 0.64504 0.04400
C 	C 	0.39516 0.18451 0.64346 0.04300
C 	C 	0.43249 0.15470 0.64440 -0.06600
C 	C 	0.84840 0.26090 0.64549 -0.06700
C 	C 	0.87703 0.69682 0.64573 -0.02300
H 	H 	0.78420 0.59156 0.65225 0.05100
C 	C 	0.34708 0.15957 0.65765 -0.02000
H 	H 	0.42594 0.11364 0.65603 0.05100
C 	C 	0.87667 0.17487 0.66020 -0.02200
H 	H 	0.87648 0.29638 0.65767 0.05300
C 	C 	0.90323 0.73672 0.66038 -0.00800
H 	H 	0.01158 0.79058 0.66434 0.04500
C 	C 	0.30695 0.13848 0.66955 -0.00900
C 	C 	0.90370 0.15559 0.67257 -0.00900
H 	H 	0.88917 0.02876 0.67541 0.04500
H 	H 	0.23033 0.18777 0.67341 0.04700
C 	C 	0.93493 0.78453 0.67773 0.01700
C 	C 	0.99155 0.80900 0.67728 -0.03600
C 	C 	0.92283 0.06179 0.68604 -0.04100
C 	C 	0.25890 0.11287 0.68373 0.02100
C 	C 	0.22246 0.14406 0.68382 -0.04100
C 	C 	0.93494 0.12965 0.68670 0.01900
H 	H 	0.05789 0.01087 0.69430 0.04500
H 	H 	0.06628 0.87814 0.69246 0.04300
C 	C 	0.02249 0.85838 0.69324 -0.04400
C 	C 	0.90932 0.80837 0.69458 -0.04000
H 	H 	0.14770 0.14324 0.69732 0.04300
H 	H 	0.94490 0.98390 0.69816 0.03900
H 	H 	0.86553 0.78957 0.69503 0.04300
C 	C 	0.24824 0.05627 0.69726 -0.04300
C 	C 	0.17558 0.11877 0.69733 -0.03800
H 	H 	0.27612 0.03178 0.69726 0.04600
C 	C 	0.97863 0.17214 0.70042 -0.03900
C 	C 	0.95443 0.03638 0.69887 -0.03600
H 	H 	0.98828 0.22478 0.70093 0.04500
C 	C 	0.99698 0.88337 0.70977 0.01600
C 	C 	0.16495 0.06225 0.71091 0.01200
C 	C 	0.99815 0.07861 0.71263 0.01500
C 	C 	0.94023 0.85776 0.71053 -0.04100
C 	C 	0.20133 0.03089 0.71073 -0.03100
C 	C 	0.01031 0.14667 0.71333 -0.04000
C 	C 	0.05849 0.00985 0.71384 -0.03600
H 	H 	0.92015 0.87748 0.72302 0.04100
H 	H 	0.19323 0.98687 0.72098 0.03800
H 	H 	0.04428 0.17969 0.72379 0.04300
C 	C 	0.02970 0.94108 0.72453 -0.01100
C 	C 	0.11513 0.03533 0.72510 -0.00500
C 	C 	0.03158 0.05138 0.72602 -0.00800
C 	C 	0.03056 0.93971 0.74863 -0.01000
C 	C 	0.11591 0.03418 0.74913 -0.00500
C 	C 	0.03225 0.04990 0.75013 -0.00600
H 	H 	0.92284 0.01168 0.75069 0.04100
H 	H 	0.03618 0.81921 0.75049 0.04400
H 	H 	0.18053 0.16391 0.75448 0.04200
C 	C 	0.06018 0.00745 0.76066 -0.03600
C 	C 	0.94392 0.05026 0.76349 -0.03800
C 	C 	0.99576 0.88141 0.76211 0.01700
C 	C 	0.00410 0.82245 0.76111 -0.04200
C 	C 	0.16604 0.06306 0.76319 0.01200
C 	C 	0.19484 0.13179 0.76422 -0.03600
C 	C 	0.00075 0.07711 0.76495 0.01200
C 	C 	0.97096 0.76755 0.77387 -0.03800
H 	H 	0.97770 0.72225 0.77308 0.04400
H 	H 	0.87031 0.04995 0.77804 0.04300
C 	C 	0.95446 0.88517 0.77612 -0.04300
H 	H 	0.94791 0.93042 0.77716 0.04200
C 	C 	0.91414 0.07146 0.77915 -0.04100
C 	C 	0.24228 0.15906 0.77776 -0.04100
H 	H 	0.26474 0.21216 0.77830 0.04500
C 	C 	0.18416 0.02188 0.77615 -0.03300
H 	H 	0.16173 0.96878 0.77558 0.03800
H 	H 	0.06135 0.00658 0.78019 0.04500
C 	C 	0.02743 0.12564 0.78206 -0.04100
H 	H 	0.07122 0.14628 0.78344 0.04300
C 	C 	0.92144 0.83041 0.78884 -0.03900
C 	C 	0.92966 0.77157 0.78782 0.01700
C 	C 	0.26072 0.11772 0.79047 0.02100
C 	C 	0.23151 0.04914 0.78971 -0.04200
C 	C 	0.94088 0.11930 0.79644 0.01800
C 	C 	0.99760 0.14679 0.79773 -0.03700
H 	H 	0.88974 0.83393 0.79965 0.04300
H 	H 	0.24565 0.01698 0.79952 0.04900
C 	C 	0.89705 0.71640 0.80186 -0.00900
C 	C 	0.31039 0.14529 0.80370 -0.00800
H 	H 	0.42899 0.11883 0.81284 0.05500
C 	C 	0.91011 0.13930 0.81317 -0.00900
H 	H 	0.01857 0.18392 0.81101 0.04500
C 	C 	0.35224 0.16704 0.81471 -0.02000
C 	C 	0.86894 0.67129 0.81386 -0.02200
C 	C 	0.43865 0.16060 0.82481 -0.06800
C 	C 	0.88446 0.15612 0.82719 -0.02200
C 	C 	0.40256 0.19154 0.82752 0.04800
H 	H 	0.77624 0.10548 0.83172 0.05000
H 	H 	0.87966 0.55733 0.82250 0.05400
H 	H 	0.51432 0.15800 0.83575 0.03500
C 	C 	0.83553 0.61899 0.82882 0.04400
C 	C 	0.48706 0.18299 0.83770 0.02900
C 	C 	0.84760 0.56346 0.83230 -0.06600
C 	C 	0.79731 0.14615 0.84378 -0.06900
H 	H 	0.78370 0.66867 0.83857 0.05200
C 	C 	0.85397 0.17672 0.84387 0.04400
C 	C 	0.79357 0.62609 0.84135 -0.06700
C 	C 	0.41509 0.24530 0.84308 -0.06600
H 	H 	0.38725 0.26942 0.84522 0.05900
H 	H 	0.72374 0.14617 0.85816 0.01500
C 	C 	0.49976 0.23670 0.85340 -0.08100
C 	C 	0.46358 0.26787 0.85601 0.02600
O 	O 	0.59315 0.25326 0.85808 -0.41700
C 	C 	0.76755 0.16904 0.85888 0.01400
C 	C 	0.81947 0.51664 0.84901 0.02000
H 	H 	0.82984 0.47447 0.85180 0.04500
C 	C 	0.88087 0.22893 0.85965 -0.06500
H 	H 	0.92470 0.25241 0.85998 0.05900
C 	C 	0.76545 0.57950 0.85813 0.01700
C 	C 	0.77934 0.52544 0.86260 -0.08300
C 	C 	0.55026 0.25925 0.86728 0.30000
H 	H 	0.47309 0.30964 0.86795 0.04300
C 	C 	0.79433 0.22297 0.87415 -0.08600
H 	H 	0.73412 0.58664 0.86814 0.03700
Ni	Ni	0.65016 0.23613 0.87704 1.07300
H 	H 	0.68263 0.35654 0.87468 0.15700
C 	C 	0.85124 0.25193 0.87476 0.02100
C 	C 	0.76306 0.25286 0.88782 0.27500
C 	C 	0.75555 0.48161 0.88268 0.28900
H 	H 	0.87252 0.29292 0.88666 0.05500
O 	O 	0.67682 0.32734 0.88839 -0.70500
O 	O 	0.48618 0.03489 0.89237 -0.10200
O 	O 	0.55114 0.28374 0.88877 -0.36900
O 	O 	0.71225 0.21731 0.89307 -0.40600
O 	O 	0.78485 0.31636 0.89315 -0.36300
O 	O 	0.77902 0.44322 0.89045 -0.36000
O 	O 	0.59246 0.17842 0.90023 -0.37800
O 	O 	0.46756 0.12514 0.89719 -0.08900
O 	O 	0.71627 0.48804 0.89454 -0.41400
N 	N 	0.48714 0.08414 0.90540 -0.02200
Ni	Ni	0.61973 0.33688 0.90838 1.10100
Ni	Ni	0.74191 0.36104 0.91087 1.10400
O 	O 	0.90495 0.51906 0.90665 -0.08900
C 	C 	0.58356 0.19607 0.92144 0.32600
C 	C 	0.90914 0.53148 0.99472 0.05800
C 	C 	0.50439 0.08915 0.92947 0.12400
O 	O 	0.60780 0.25724 0.92898 -0.39100
O 	O 	0.68762 0.38285 0.92877 -0.70300
O 	O 	0.93966 0.44497 0.91652 -0.09300
O 	O 	0.63368 0.47537 0.92841 -0.40500
N 	N 	0.91911 0.48703 0.92268 -0.02300
O 	O 	0.57464 0.36719 0.93094 -0.34500
Ni	Ni	0.71219 0.47844 0.93010 1.07100
H 	H 	0.44160 0.99566 0.93857 0.08100
O 	O 	0.80355 0.40138 0.93434 -0.36200
C 	C 	0.54923 0.14507 0.93780 -0.08900
O 	O 	0.79366 0.50045 0.93344 -0.39300
C 	C 	0.47480 0.03953 0.94514 -0.06700
C 	C 	0.59209 0.42903 0.93854 0.29000
H 	H 	0.68374 0.36464 0.94482 0.17200
C 	C 	0.81528 0.46146 0.94293 0.29700
H 	H 	0.57170 0.53943 0.93599 0.06300
O 	O 	0.38296 0.44510 0.96136 -0.08800
C 	C 	0.91540 0.50118 0.94706 0.12700
C 	C 	0.55193 0.50871 0.95069 -0.00800
C 	C 	0.55765 0.44884 0.95440 -0.08800
C 	C 	0.56104 0.15274 0.96202 0.00300
C 	C 	0.86515 0.49231 0.95684 -0.08900
O 	O 	0.46883 0.59226 0.95753 -0.08800
H 	H 	0.00053 0.52969 0.95378 0.08100
C 	C 	0.48740 0.04677 0.96925 0.03100
H 	H 	0.59452 0.19621 0.96866 0.07000
O 	O 	0.32961 0.97484 0.96822 -0.09600
C 	C 	0.96197 0.52362 0.96126 -0.07200
N 	N 	0.37656 0.43533 0.98384 -0.01700
O 	O 	0.49672 0.29312 0.97889 -0.07700
C 	C 	0.52036 0.52900 0.96573 0.05800
N 	N 	0.51591 0.59079 0.96186 -0.01600
C 	C 	0.53109 0.40881 0.97346 0.11700
O 	O 	0.34017 0.38027 0.99137 -0.09600
C 	C 	0.52976 0.10467 0.97778 0.05900
N 	N 	0.53842 0.34924 0.97835 -0.02100
O 	O 	0.55930 0.64509 0.96115 -0.09800
N 	N 	0.37390 0.00786 0.98006 -0.01400
C 	C 	0.45894 0.99159 0.98531 0.02200
C 	C 	0.86249 0.50929 0.98044 -0.00700
H 	H 	0.53004 0.97162 0.99190 0.08200
O 	O 	0.58617 0.35180 0.98407 -0.11000
O 	O 	0.38862 0.07098 0.98374 -0.07800
C 	C 	0.49881 0.42875 0.98828 -0.07100
C 	C 	0.49378 0.48896 0.98468 0.02600
C 	C 	0.40390 0.97389 0.99061 0.05600
H 	H 	0.82391 0.50320 0.98790 0.04600
C 	C 	0.48778 0.95826 0.99601 -0.07200
C 	C 	0.40610 0.48715 0.00019 0.05700
C 	C 	0.95896 0.53747 0.98515 0.02700
