data_crystal

_cell_length_a 18.13031
_cell_length_b 17.67439
_cell_length_c 46.17775
_cell_angle_alpha 90.72783
_cell_angle_beta  90.99721
_cell_angle_gamma 110.85113

_symmetry_space_group_name_	'P 1'
_symmetry_space_group_name_H-M	'P 1'

loop_
_symmetry_equiv_pos_as_xyz
  x,y,z

loop_
_atom_site_label
_atom_site_type_symbol
_atom_site_fract_x
_atom_site_fract_y
_atom_site_fract_z
_atom_site_charge
O 	O 	0.10043 0.90308 0.75814 -0.70200
Ni	Ni	0.12401 0.00780 0.78132 1.10000
O 	O 	0.15163 0.83282 0.70648 -0.39200
Ni	Ni	0.20001 0.89347 0.74513 1.06800
O 	O 	0.23583 0.00134 0.72442 -0.39500
O 	O 	0.21093 0.00274 0.80854 -0.36100
O 	O 	0.03784 0.01345 0.75362 -0.70100
O 	O 	0.12074 0.10638 0.80485 -0.34500
H 	H 	0.07376 0.85662 0.77053 0.15800
H 	H 	0.05477 0.06447 0.74272 0.17800
C 	C 	0.25674 0.07124 0.73834 0.28200
C 	C 	0.07581 0.79207 0.70278 0.27800
C 	C 	0.27583 0.99704 0.79855 0.26800
C 	C 	0.05350 0.10831 0.81438 0.26500
O 	O 	0.20676 0.08835 0.75546 -0.36400
O 	O 	0.27260 0.93611 0.78099 -0.39700
Ni	Ni	0.34678 0.76086 0.40075 1.09700
O 	O 	0.29679 0.66008 0.37503 -0.70400
Ni	Ni	0.18807 0.66275 0.36735 1.10000
O 	O 	0.44835 0.73667 0.40811 -0.36100
O 	O 	0.38111 0.60924 0.42383 -0.40500
O 	O 	0.40295 0.81999 0.36497 -0.37100
Ni	Ni	0.28413 0.56044 0.39581 1.06900
O 	O 	0.31974 0.93833 0.40836 -0.40500
O 	O 	0.22611 0.58700 0.42960 -0.40900
O 	O 	0.14792 0.56230 0.34118 -0.36500
O 	O 	0.23623 0.76121 0.39461 -0.70100
O 	O 	0.39224 0.86463 0.42509 -0.37500
O 	O 	0.08567 0.68424 0.35911 -0.36000
O 	O 	0.15271 0.81483 0.34712 -0.41300
Ni	Ni	0.23931 0.86569 0.37910 1.06700
H 	H 	0.32513 0.66235 0.35673 0.16800
H 	H 	0.20911 0.75291 0.41335 0.14700
C 	C 	0.15684 0.59351 0.42668 0.28800
O 	O 	0.32250 0.88382 0.34821 -0.39600
C 	C 	0.44807 0.66706 0.41795 0.28100
C 	C 	0.16109 0.49650 0.34863 0.28100
C 	C 	0.39387 0.88389 0.35362 0.29900
C 	C 	0.08587 0.75622 0.35256 0.28500
C 	C 	0.35014 0.91046 0.43015 0.27700
O 	O 	0.12599 0.59452 0.40084 -0.36200
O 	O 	0.18156 0.48805 0.37566 -0.40000
Ni	Ni	0.36691 0.67542 0.12472 1.10100
O 	O 	0.25354 0.63381 0.10778 -0.69700
Ni	Ni	0.20055 0.68813 0.13432 1.10100
O 	O 	0.40286 0.61026 0.09463 -0.35600
O 	O 	0.30104 0.49303 0.10411 -0.40000
O 	O 	0.38557 0.76395 0.09463 -0.38400
Ni	Ni	0.19725 0.51726 0.10772 1.06700
O 	O 	0.45628 0.79424 0.17956 -0.39800
O 	O 	0.20317 0.51231 0.15163 -0.40500
O 	O 	0.09508 0.65369 0.11246 -0.36300
O 	O 	0.30842 0.71502 0.15434 -0.70100
O 	O 	0.48245 0.72655 0.14006 -0.35900
O 	O 	0.16914 0.76828 0.15898 -0.36500
O 	O 	0.28273 0.87114 0.14837 -0.40700
Ni	Ni	0.36936 0.82892 0.16334 1.07900
H 	H 	0.25183 0.65349 0.08789 0.15000
H 	H 	0.30367 0.68291 0.17208 0.16900
C 	C 	0.15267 0.53171 0.16729 0.29100
O 	O 	0.43329 0.86897 0.12700 -0.39300
C 	C 	0.35777 0.53587 0.08710 0.27600
C 	C 	0.06621 0.58149 0.09974 0.25800
C 	C 	0.40713 0.84145 0.10089 0.29600
C 	C 	0.21250 0.84562 0.15983 0.27600
C 	C 	0.50658 0.77623 0.16297 0.29200
O 	O 	0.14758 0.60387 0.16534 -0.35800
O 	O 	0.08579 0.52080 0.10943 -0.40500
O 	O 	0.04199 0.18120 0.25966 -0.37200
O 	O 	0.09442 0.05015 0.25437 -0.39300
O 	O 	0.02323 0.06405 0.21449 -0.36100
Ni	Ni	0.01779 0.01195 0.28769 1.07000
O 	O 	0.03920 0.12535 0.30412 -0.39900
C 	C 	0.05032 0.18879 0.28799 0.28300
C 	C 	0.07251 0.03378 0.22673 0.29000
C 	C 	0.98627 0.31800 0.20259 -0.05100
C 	C 	0.06907 0.33566 0.20482 -0.01100
C 	C 	0.12132 0.41477 0.20035 0.00300
C 	C 	0.09542 0.46886 0.18501 -0.06000
C 	C 	0.01320 0.45218 0.18182 -0.02400
C 	C 	0.10082 0.27137 0.20520 0.10000
C 	C 	0.98457 0.51241 0.16993 0.12300
C 	C 	0.20284 0.43932 0.21038 0.09300
N 	N 	0.26794 0.45904 0.21836 -0.10100
N 	N 	0.12807 0.22133 0.20503 -0.09100
N 	N 	0.51863 0.63341 0.21757 -0.10300
C 	C 	0.18139 0.90372 0.17351 -0.06400
C 	C 	0.10166 0.89452 0.16869 0.00800
C 	C 	0.06489 0.93185 0.18771 -0.00600
C 	C 	0.11081 0.99008 0.20835 -0.08400
C 	C 	0.19320 0.00797 0.21042 0.02400
C 	C 	0.22755 0.96127 0.19434 -0.01100
C 	C 	0.05784 0.84758 0.14389 0.09200
C 	C 	0.24294 0.07598 0.22812 0.09500
C 	C 	0.30911 0.96999 0.20017 0.06400
C 	C 	0.97944 0.90731 0.18704 0.09900
N 	N 	0.37415 0.97693 0.20486 -0.14100
N 	N 	0.91133 0.88770 0.18650 -0.11300
N 	N 	0.28272 0.13023 0.24223 -0.09800
N 	N 	0.02291 0.81012 0.12411 -0.10500
C 	C 	0.40039 0.85194 0.29247 0.08700
N 	N 	0.34788 0.80241 0.28081 -0.11400
C 	C 	0.07596 0.27016 0.30195 -0.06600
C 	C 	0.03034 0.28653 0.32407 -0.02000
C 	C 	0.05485 0.36375 0.33745 0.01500
C 	C 	0.12735 0.42314 0.33021 -0.06700
C 	C 	0.17185 0.40790 0.30766 -0.00300
C 	C 	0.14760 0.33064 0.29415 0.00200
C 	C 	0.96026 0.22293 0.33404 0.08600
C 	C 	0.24332 0.47136 0.29871 0.07200
C 	C 	0.19992 0.31105 0.27446 0.09400
C 	C 	0.00567 0.38216 0.35886 0.07900
N 	N 	0.24202 0.29550 0.25888 -0.09400
N 	N 	0.96653 0.39692 0.37593 -0.08600
N 	N 	0.30032 0.52204 0.29157 -0.11200
C 	C 	0.89349 0.82682 0.32807 -0.05600
C 	C 	0.92781 0.79285 0.30675 -0.03000
C 	C 	0.98849 0.76427 0.31479 0.03800
C 	C 	0.01049 0.76532 0.34424 -0.10500
C 	C 	0.96228 0.78023 0.36558 0.02000
C 	C 	0.90089 0.80750 0.35717 -0.00700
C 	C 	0.97828 0.77162 0.39597 0.06800
C 	C 	0.85059 0.82326 0.37862 0.09500
C 	C 	0.02933 0.73586 0.29287 0.06200
N 	N 	0.81036 0.83585 0.39576 -0.10600
N 	N 	0.06196 0.71320 0.27538 -0.10200
N 	N 	0.99108 0.76496 0.42025 -0.11500
C 	C 	0.30249 0.99728 0.50249 -0.02100
C 	C 	0.30173 0.05520 0.52327 -0.04000
S 	S 	0.31223 0.01447 0.46720 0.03700
C 	C 	0.35574 0.94812 0.45896 -0.07800
H 	H 	0.29089 0.10926 0.51697 0.04600
C 	C 	0.99506 0.56476 0.48513 0.02900
C 	C 	0.02864 0.47016 0.51584 -0.05700
C 	C 	0.05042 0.53198 0.49552 0.00200
S 	S 	0.02441 0.60547 0.45308 0.02300
C 	C 	0.10980 0.58905 0.45252 -0.08000
C 	C 	0.11563 0.54647 0.47728 -0.01200
H 	H 	0.07087 0.44466 0.52408 0.05100
H 	H 	0.15853 0.51711 0.47986 0.04500
C 	C 	0.55166 0.66160 0.51065 -0.05400
C 	C 	0.56283 0.65525 0.48081 0.01900
S 	S 	0.53584 0.57826 0.43440 0.01600
C 	C 	0.51911 0.66523 0.43293 -0.06200
C 	C 	0.54000 0.70277 0.46040 -0.01600
H 	H 	0.55247 0.71799 0.52038 0.04900
H 	H 	0.52243 0.75277 0.46712 0.04700
C 	C 	0.45981 0.25506 0.70394 -0.06400
C 	C 	0.38421 0.25956 0.69910 0.00700
C 	C 	0.31730 0.20126 0.71148 0.00600
C 	C 	0.32659 0.13848 0.72823 -0.05700
C 	C 	0.40336 0.13957 0.73474 -0.00200
C 	C 	0.46880 0.20546 0.72629 -0.00200
C 	C 	0.37609 0.32719 0.68371 0.10100
C 	C 	0.41537 0.06836 0.74567 0.07100
C 	C 	0.54428 0.22386 0.74120 0.09100
C 	C 	0.23927 0.20391 0.70600 0.09700
N 	N 	0.17697 0.20598 0.70165 -0.11100
N 	N 	0.42613 0.01168 0.75409 -0.11300
N 	N 	0.36955 0.38123 0.67144 -0.10400
N 	N 	0.03944 0.66748 0.76822 -0.12500
C 	C 	0.95887 0.57653 0.03141 0.04100
S 	S 	0.94823 0.47013 0.06722 0.02400
C 	C 	0.99984 0.56426 0.07914 -0.03400
C 	C 	0.00041 0.61713 0.05669 -0.06200
H 	H 	0.99941 0.67471 0.00110 0.05500
H 	H 	0.04111 0.67930 0.05660 0.05000
C 	C 	0.50435 0.99539 0.04664 0.01100
C 	C 	0.45213 0.94422 0.02584 0.00000
C 	C 	0.47514 0.93901 0.99733 -0.04200
C 	C 	0.54995 0.99128 0.98931 -0.01200
C 	C 	0.56892 0.01577 0.96039 0.01900
S 	S 	0.38739 0.86835 0.04308 0.02100
C 	C 	0.41937 0.89850 0.07703 -0.07300
C 	C 	0.48575 0.97001 0.07552 -0.01100
H 	H 	0.43529 0.89740 0.98170 0.04600
H 	H 	0.52872 0.99071 0.94217 0.03800
C 	C 	0.38768 0.51562 0.98094 -0.05500
C 	C 	0.36084 0.48970 0.00865 0.01600
C 	C 	0.33916 0.40762 0.01577 -0.00300
C 	C 	0.35416 0.35237 0.99693 -0.05000
S 	S 	0.34173 0.40244 0.05178 0.02200
C 	C 	0.37018 0.50163 0.05935 -0.07500
C 	C 	0.37727 0.54244 0.03320 -0.02900
H 	H 	0.41099 0.57954 0.97610 0.04900
H 	H 	0.35182 0.29376 0.00446 0.05200
H 	H 	0.39452 0.60760 0.03186 0.04600
N 	N 	0.14013 0.29172 0.76862 -0.10300
C 	C 	0.35158 0.04269 0.81402 -0.04500
C 	C 	0.39517 0.00102 0.82813 0.01900
C 	C 	0.47038 0.04466 0.84052 -0.00100
C 	C 	0.50225 0.12991 0.83881 -0.05700
C 	C 	0.46016 0.17079 0.82366 0.00400
C 	C 	0.38248 0.12827 0.81356 -0.00200
C 	C 	0.36095 0.91394 0.83132 0.08000
C 	C 	0.49785 0.25582 0.81725 0.07400
C 	C 	0.33332 0.17308 0.80438 0.09100
C 	C 	0.51476 0.00186 0.85517 0.10500
N 	N 	0.29493 0.21005 0.79731 -0.09500
N 	N 	0.55008 0.96759 0.86684 -0.13100
N 	N 	0.52745 0.32358 0.81184 -0.12300
N 	N 	0.33366 0.84447 0.83388 -0.10800
N 	N 	0.05696 0.83791 0.83150 -0.12200
Ni	Ni	0.64626 0.29120 0.90674 1.09800
O 	O 	0.66599 0.36975 0.87307 -0.70600
Ni	Ni	0.76947 0.36695 0.85862 1.10000
O 	O 	0.54864 0.31295 0.92083 -0.36100
O 	O 	0.60380 0.45061 0.91970 -0.40000
O 	O 	0.56399 0.19891 0.88286 -0.36200
Ni	Ni	0.68713 0.48110 0.88730 1.06800
O 	O 	0.64557 0.11574 0.90796 -0.39300
O 	O 	0.76529 0.47488 0.91868 -0.40700
O 	O 	0.78578 0.45119 0.82728 -0.36400
O 	O 	0.74805 0.28619 0.89167 -0.70200
O 	O 	0.63476 0.21208 0.93940 -0.37400
O 	O 	0.86789 0.34476 0.84547 -0.35000
O 	O 	0.80694 0.20772 0.84464 -0.39600
Ni	Ni	0.72623 0.17474 0.87774 1.07300
H 	H 	0.62395 0.35295 0.85789 0.16900
H 	H 	0.79009 0.30146 0.90690 0.16000
C 	C 	0.83201 0.46640 0.91223 0.28500
O 	O 	0.64224 0.17672 0.84827 -0.40300
C 	C 	0.54094 0.38416 0.92014 0.28300
C 	C 	0.78703 0.52435 0.83388 0.28300
C 	C 	0.57333 0.17655 0.85635 0.28600
C 	C 	0.87176 0.27202 0.84665 0.28300
C 	C 	0.64577 0.14326 0.93473 0.28700
O 	O 	0.84735 0.45411 0.88532 -0.36000
O 	O 	0.77724 0.54366 0.86094 -0.39900
Ni	Ni	0.74251 0.33953 0.64219 1.10300
O 	O 	0.63923 0.25430 0.62674 -0.69900
Ni	Ni	0.57330 0.32282 0.62004 1.10100
O 	O 	0.79284 0.25298 0.64703 -0.35300
O 	O 	0.69135 0.17659 0.67486 -0.39600
O 	O 	0.77364 0.34735 0.59970 -0.38400
Ni	Ni	0.58674 0.17087 0.65392 1.07100
O 	O 	0.80116 0.53489 0.65697 -0.40100
O 	O 	0.58078 0.25596 0.68285 -0.41000
O 	O 	0.47914 0.23485 0.60114 -0.37400
O 	O 	0.67003 0.40278 0.64094 -0.70300
O 	O 	0.84866 0.42907 0.65432 -0.35700
O 	O 	0.53220 0.41021 0.60566 -0.37000
O 	O 	0.65090 0.48043 0.58601 -0.41300
Ni	Ni	0.72486 0.50577 0.62255 1.07400
H 	H 	0.64632 0.22917 0.60822 0.16100
H 	H 	0.65735 0.41324 0.66101 0.17000
C 	C 	0.52154 0.28143 0.68136 0.29300
O 	O 	0.80944 0.48429 0.59864 -0.39100
C 	C 	0.75714 0.18594 0.66118 0.27300
C 	C 	0.45556 0.16067 0.61136 0.27600
C 	C 	0.79897 0.41500 0.58547 0.30400
C 	C 	0.57456 0.46500 0.58770 0.27200
C 	C 	0.85885 0.50609 0.66032 0.29500
O 	O 	0.50676 0.31152 0.65691 -0.35900
O 	O 	0.47382 0.14791 0.63838 -0.39800
Ni	Ni	0.02343 0.91890 0.72709 1.09300
O 	O 	0.02775 0.83140 0.69852 -0.36100
O 	O 	0.92951 0.82913 0.74483 -0.35900
O 	O 	0.86666 0.94510 0.73742 -0.38900
O 	O 	0.94520 0.94223 0.69955 -0.35300
O 	O 	0.98933 0.04329 0.81250 -0.37400
Ni	Ni	0.93709 0.99427 0.77287 1.07800
O 	O 	0.92633 0.88469 0.78932 -0.40000
C 	C 	0.91800 0.82129 0.77279 0.28900
C 	C 	0.89047 0.96600 0.71084 0.27300
Ni	Ni	0.94685 0.09509 0.23908 1.11000
O 	O 	0.87201 0.12092 0.26738 -0.70100
Ni	Ni	0.83309 0.01463 0.28776 1.10500
O 	O 	0.94291 0.17252 0.20719 -0.35900
O 	O 	0.86202 0.23483 0.22456 -0.38400
Ni	Ni	0.78403 0.13441 0.24613 1.07400
O 	O 	0.78720 0.04313 0.21880 -0.39900
O 	O 	0.74043 0.02878 0.30863 -0.36600
O 	O 	0.92278 0.00145 0.26490 -0.69700
O 	O 	0.82259 0.91066 0.30987 -0.34800
O 	O 	0.95127 0.97034 0.32410 -0.40100
H 	H 	0.89770 0.16756 0.28060 0.17100
H 	H 	0.90503 0.95074 0.25315 0.16700
C 	C 	0.76275 0.96656 0.22722 0.25500
C 	C 	0.92958 0.23880 0.21299 0.29300
C 	C 	0.68195 0.03946 0.29401 0.28300
C 	C 	0.88683 0.90578 0.32227 0.27400
O 	O 	0.75626 0.94950 0.25523 -0.35900
O 	O 	0.68808 0.05437 0.26596 -0.39200
C 	C 	0.95856 0.37687 0.19069 0.01700
C 	C 	0.87485 0.35762 0.18502 0.09200
N 	N 	0.80810 0.34240 0.18045 -0.10700
N 	N 	0.96143 0.56037 0.16051 -0.09600
C 	C 	0.72218 0.89992 0.20558 -0.04800
C 	C 	0.67679 0.82129 0.21511 0.00500
C 	C 	0.60962 0.77343 0.19877 0.01000
C 	C 	0.59001 0.80283 0.17272 -0.05800
C 	C 	0.64655 0.87016 0.15992 0.00100
C 	C 	0.71417 0.91799 0.17622 0.00300
C 	C 	0.69906 0.78935 0.24124 0.10500
C 	C 	0.63510 0.89003 0.13025 0.09400
C 	C 	0.77752 0.98084 0.16234 0.08600
C 	C 	0.55905 0.69555 0.20923 0.09400
N 	N 	0.82817 0.03100 0.15126 -0.09400
N 	N 	0.62612 0.90575 0.10652 -0.10800
N 	N 	0.71592 0.76344 0.26218 -0.09800
C 	C 	0.45924 0.93639 0.33606 -0.07200
C 	C 	0.52048 0.00186 0.34932 0.01500
C 	C 	0.59160 0.03971 0.33465 -0.00300
C 	C 	0.60212 0.01109 0.30689 -0.04600
C 	C 	0.53774 0.95040 0.29260 -0.00900
C 	C 	0.46622 0.91405 0.30710 0.01200
C 	C 	0.51055 0.03006 0.37810 0.08800
C 	C 	0.54530 0.92391 0.26330 0.10000
C 	C 	0.65365 0.10842 0.34798 0.09000
N 	N 	0.70318 0.16325 0.35861 -0.10600
N 	N 	0.55088 0.90273 0.23990 -0.10900
N 	N 	0.50293 0.05288 0.40105 -0.09900
N 	N 	0.90443 0.17229 0.34208 -0.12300
C 	C 	0.90586 0.79383 0.27652 0.06900
N 	N 	0.88901 0.79405 0.25225 -0.11300
C 	C 	0.34626 0.97983 0.55913 -0.01000
C 	C 	0.35767 0.92901 0.53754 -0.05400
C 	C 	0.33462 0.93781 0.50905 0.02000
C 	C 	0.32279 0.04528 0.55196 0.02700
S 	S 	0.40026 0.00500 0.58957 0.01900
C 	C 	0.39367 0.09574 0.59549 -0.06600
C 	C 	0.34936 0.11033 0.57244 -0.01900
C 	C 	0.36352 0.90930 0.48450 -0.02800
H 	H 	0.38917 0.88863 0.54236 0.04600
H 	H 	0.34710 0.16965 0.56823 0.05400
H 	H 	0.38897 0.86242 0.48538 0.04200
C 	C 	0.91689 0.53630 0.49430 -0.05600
C 	C 	0.89598 0.47584 0.51519 0.02400
C 	C 	0.94995 0.43976 0.52419 0.01000
S 	S 	0.91974 0.39430 0.55526 0.05800
C 	C 	0.83704 0.41494 0.55787 -0.07500
C 	C 	0.83261 0.46283 0.53440 -0.01700
H 	H 	0.87461 0.56179 0.48612 0.05700
H 	H 	0.79231 0.49564 0.53335 0.04400
C 	C 	0.56462 0.58214 0.46877 0.00700
C 	C 	0.54738 0.51263 0.48559 -0.05600
C 	C 	0.52966 0.51794 0.51475 0.01800
C 	C 	0.52999 0.59092 0.52669 0.00400
S 	S 	0.53740 0.58673 0.56244 0.01300
C 	C 	0.53465 0.49111 0.56431 -0.06600
C 	C 	0.53185 0.46123 0.53580 -0.02000
H 	H 	0.54538 0.45566 0.47599 0.05000
H 	H 	0.54413 0.40701 0.53055 0.04000
C 	C 	0.80362 0.13644 0.67022 -0.05600
C 	C 	0.79054 0.06072 0.65660 -0.00800
C 	C 	0.82226 0.00605 0.66914 0.02100
C 	C 	0.86490 0.02635 0.69576 -0.06600
C 	C 	0.88016 0.10363 0.70867 0.00400
C 	C 	0.85300 0.15978 0.69505 0.00600
C 	C 	0.74397 0.03889 0.62990 0.07400
C 	C 	0.91933 0.12375 0.73679 0.04300
C 	C 	0.87424 0.24129 0.70705 0.09900
C 	C 	0.80853 0.92800 0.65527 0.08000
N 	N 	0.89121 0.30628 0.71660 -0.09700
N 	N 	0.79758 0.86570 0.64421 -0.10600
N 	N 	0.94991 0.14044 0.75935 -0.16100
N 	N 	0.70677 0.02151 0.60859 -0.12100
N 	N 	0.60455 0.23854 0.75315 -0.10400
C 	C 	0.04895 0.70618 0.69349 -0.05800
C 	C 	0.00647 0.64647 0.71291 -0.01900
C 	C 	0.94730 0.57504 0.70222 0.02800
C 	C 	0.93587 0.56099 0.67205 -0.06600
C 	C 	0.99128 0.61211 0.65316 0.02100
C 	C 	0.04705 0.68584 0.66383 -0.01200
C 	C 	0.02453 0.65825 0.74367 0.06900
C 	C 	0.98989 0.58972 0.62280 0.08900
C 	C 	0.10032 0.74184 0.64428 0.09400
C 	C 	0.89600 0.51826 0.72207 0.09100
N 	N 	0.14288 0.78658 0.62867 -0.11200
N 	N 	0.85502 0.47304 0.73795 -0.09700
N 	N 	0.98924 0.57217 0.59855 -0.10200
C 	C 	0.96200 0.55677 0.97999 0.00100
C 	C 	0.97456 0.60976 0.00381 -0.06200
C 	C 	0.92403 0.49216 0.03448 -0.00400
C 	C 	0.91011 0.43934 0.01053 -0.05300
C 	C 	0.92732 0.47267 0.98303 0.01800
S 	S 	0.94269 0.57856 0.94658 0.04700
C 	C 	0.89440 0.48409 0.93429 -0.07200
C 	C 	0.88964 0.43165 0.95728 -0.02000
H 	H 	0.88538 0.37435 0.01317 0.04900
H 	H 	0.84918 0.36935 0.95696 0.02700
C 	C 	0.60181 0.04316 0.01002 0.02000
C 	C 	0.57896 0.04815 0.03858 -0.04400
S 	S 	0.66626 0.11904 0.99263 0.02700
C 	C 	0.63510 0.08730 0.95873 -0.08100
H 	H 	0.61885 0.08966 0.05421 0.05500
H 	H 	0.52559 0.99532 0.09379 0.05300
C 	C 	0.39185 0.45776 0.96069 0.00500
C 	C 	0.37995 0.37793 0.96898 0.01800
S 	S 	0.45441 0.47950 0.93358 0.01800
C 	C 	0.46698 0.39053 0.93043 -0.06700
C 	C 	0.42183 0.34004 0.95186 -0.01500
H 	H 	0.42963 0.28442 0.95810 0.05600
C 	C 	0.94891 0.26164 0.84483 -0.07700
C 	C 	0.99463 0.28471 0.81977 0.03000
C 	C 	0.04878 0.24657 0.81295 -0.02600
C 	C 	0.05049 0.18099 0.82952 -0.04500
C 	C 	0.02065 0.17318 0.85768 -0.02000
C 	C 	0.96923 0.21363 0.86540 0.02000
C 	C 	0.98328 0.34393 0.80051 0.10000
C 	C 	0.03878 0.11973 0.87781 0.09400
C 	C 	0.93487 0.20357 0.89385 0.05000
C 	C 	0.09955 0.27173 0.78832 0.09900
N 	N 	0.90735 0.19560 0.91655 -0.13200
N 	N 	0.05327 0.07700 0.89389 -0.10900
N 	N 	0.97422 0.39123 0.78512 -0.09000
C 	C 	0.82880 0.59124 0.81450 -0.05200
C 	C 	0.90181 0.64931 0.82368 0.00100
C 	C 	0.93061 0.72500 0.81030 0.02200
C 	C 	0.89085 0.73962 0.78561 -0.07100
C 	C 	0.82334 0.67696 0.77405 0.00800
C 	C 	0.79182 0.60308 0.78876 -0.00400
C 	C 	0.94772 0.63064 0.84671 0.11000
C 	C 	0.78493 0.68930 0.74766 0.09500
C 	C 	0.72103 0.53983 0.77762 0.08500
C 	C 	0.00093 0.78786 0.82205 0.05200
N 	N 	0.66456 0.48930 0.76873 -0.10800
N 	N 	0.75430 0.69910 0.72658 -0.10500
N 	N 	0.98443 0.61584 0.86506 -0.09800
