data_crystal

_cell_length_a 38.07259
_cell_length_b 39.21854
_cell_length_c 19.66044
_cell_angle_alpha 91.58162
_cell_angle_beta  91.00471
_cell_angle_gamma 90.08638

_symmetry_space_group_name_	'P 1'
_symmetry_space_group_name_H-M	'P 1'

loop_
_symmetry_equiv_pos_as_xyz
  x,y,z

loop_
_atom_site_label
_atom_site_type_symbol
_atom_site_fract_x
_atom_site_fract_y
_atom_site_fract_z
_atom_site_charge
Cd	Cd	0.96157 0.91229 0.23114 1.24100
Cd	Cd	0.95906 0.97895 0.35512 1.10100
O 	O 	0.97492 0.85446 0.26949 -0.31400
O 	O 	0.95949 0.86394 0.16326 -0.34500
C 	C 	0.96876 0.84199 0.20865 0.29100
O 	O 	0.93885 0.95597 0.17464 -0.38700
O 	O 	0.96381 0.99559 0.24748 -0.57500
C 	C 	0.94031 0.98738 0.20015 0.31200
C 	C 	0.90173 0.91910 0.31463 0.30500
O 	O 	0.00381 0.94163 0.32407 -0.45000
O 	O 	0.89497 0.89893 0.26210 -0.28200
O 	O 	0.93427 0.92818 0.32292 -0.55700
C 	C 	0.02681 0.94545 0.27627 0.28500
O 	O 	0.01783 0.93226 0.21670 -0.34700
Cd	Cd	0.99181 0.86518 0.98762 1.23900
Cd	Cd	0.96633 0.92061 0.85818 1.09500
O 	O 	0.01193 0.80742 0.95556 -0.31300
O 	O 	0.01053 0.82510 0.06181 -0.33600
C 	C 	0.01483 0.79952 0.01913 0.30000
O 	O 	0.98640 0.91528 0.04302 -0.39700
O 	O 	0.94862 0.93580 0.96308 -0.59700
C 	C 	0.97087 0.94123 0.01402 0.32800
C 	C 	0.04464 0.89791 0.91277 0.30300
O 	O 	0.94531 0.86685 0.88560 -0.46300
O 	O 	0.05810 0.88495 0.96796 -0.29000
O 	O 	0.01230 0.88966 0.89882 -0.55300
C 	C 	0.92104 0.85934 0.92909 0.27900
O 	O 	0.93228 0.85579 0.99156 -0.34700
C 	C 	0.96939 0.66845 0.97154 0.12400
N 	N 	0.96193 0.63828 0.00056 -0.12700
C 	C 	0.94835 0.61203 0.96170 0.12800
N 	N 	0.94233 0.61607 0.89407 -0.14300
C 	C 	0.94954 0.64626 0.86527 0.13300
N 	N 	0.96367 0.67217 0.90383 -0.13600
C 	C 	0.95803 0.70361 0.25859 0.13800
N 	N 	0.96104 0.67280 0.22589 -0.13300
C 	C 	0.95659 0.64370 0.26073 0.13400
N 	N 	0.95098 0.64553 0.32872 -0.14400
C 	C 	0.94938 0.67620 0.36185 0.13300
N 	N 	0.95206 0.70527 0.32652 -0.13800
Cd	Cd	0.83342 0.93353 0.75254 1.24300
Cd	Cd	0.90724 0.94945 0.86026 1.10300
O 	O 	0.77640 0.92641 0.80739 -0.30700
O 	O 	0.78050 0.92759 0.69587 -0.33900
C 	C 	0.76053 0.92470 0.74850 0.29000
O 	O 	0.87562 0.94809 0.68077 -0.38300
O 	O 	0.91933 0.93231 0.75368 -0.56500
C 	C 	0.90876 0.94980 0.70122 0.30600
C 	C 	0.84334 0.99979 0.81161 0.31000
O 	O 	0.86804 0.90390 0.85291 -0.45300
O 	O 	0.82051 0.00045 0.76137 -0.27900
O 	O 	0.85354 0.96980 0.82941 -0.55800
C 	C 	0.87007 0.87654 0.81370 0.28700
O 	O 	0.85373 0.87828 0.75491 -0.35600
Cd	Cd	0.81346 0.01812 0.51761 1.24200
Cd	Cd	0.86810 0.03469 0.37888 1.09600
O 	O 	0.75573 0.99210 0.49205 -0.31000
O 	O 	0.77468 0.00081 0.59749 -0.32600
C 	C 	0.74996 0.98925 0.55647 0.29000
O 	O 	0.86512 0.03081 0.56774 -0.38900
O 	O 	0.88347 0.06074 0.47780 -0.58000
C 	C 	0.89088 0.04307 0.53181 0.31300
C 	C 	0.84987 0.96325 0.45366 0.30400
O 	O 	0.81221 0.05459 0.40575 -0.45600
O 	O 	0.83818 0.95434 0.51263 -0.29100
O 	O 	0.83936 0.99258 0.43264 -0.55900
C 	C 	0.80402 0.08116 0.44389 0.28200
O 	O 	0.79988 0.07503 0.50826 -0.34600
C 	C 	0.62101 0.90722 0.82268 0.14100
N 	N 	0.62474 0.89590 0.88710 -0.13500
C 	C 	0.59651 0.89450 0.92826 0.12500
N 	N 	0.56438 0.90376 0.90415 -0.14300
C 	C 	0.56047 0.91484 0.83962 0.13300
N 	N 	0.58900 0.91734 0.79951 -0.13500
C 	C 	0.61100 0.95251 0.52778 0.14000
N 	N 	0.61152 0.93635 0.46572 -0.13300
C 	C 	0.58174 0.93375 0.42685 0.13400
N 	N 	0.55157 0.94804 0.44969 -0.14200
C 	C 	0.55112 0.96509 0.51066 0.13200
N 	N 	0.58066 0.96667 0.55032 -0.14000
Cd	Cd	0.87696 0.14771 0.23359 1.24400
Cd	Cd	0.89773 0.08969 0.36181 1.09800
O 	O 	0.86890 0.20839 0.26575 -0.31000
O 	O 	0.86895 0.19058 0.15870 -0.32700
C 	C 	0.86593 0.21596 0.20206 0.29000
O 	O 	0.89110 0.10013 0.17530 -0.38100
O 	O 	0.87791 0.06602 0.26320 -0.57800
C 	C 	0.89375 0.07063 0.20540 0.31100
C 	C 	0.94678 0.14546 0.28664 0.30300
O 	O 	0.84958 0.12552 0.34749 -0.45600
O 	O 	0.94558 0.16174 0.22963 -0.29000
O 	O 	0.91663 0.13768 0.31152 -0.55800
C 	C 	0.82060 0.11896 0.31289 0.28300
O 	O 	0.82075 0.12791 0.24935 -0.34400
Cd	Cd	0.94232 0.10825 0.97566 1.24000
Cd	Cd	0.95697 0.04335 0.85100 1.09800
O 	O 	0.91267 0.16067 0.93956 -0.31700
O 	O 	0.92624 0.15235 0.04699 -0.34800
C 	C 	0.91193 0.17205 0.00213 0.30600
O 	O 	0.95848 0.06373 0.03710 -0.39200
O 	O 	0.98723 0.03831 0.94909 -0.59200
C 	C 	0.97124 0.03605 0.00734 0.32200
C 	C 	0.88536 0.06642 0.92967 0.30300
O 	O 	0.97644 0.09960 0.85993 -0.46400
O 	O 	0.87745 0.08279 0.98609 -0.28500
O 	O 	0.91459 0.07514 0.90232 -0.55700
C 	C 	0.00462 0.11123 0.89170 0.29400
O 	O 	0.00005 0.12156 0.95468 -0.35700
C 	C 	0.89057 0.31095 0.96438 0.13700
N 	N 	0.90288 0.34017 0.99523 -0.12700
C 	C 	0.90419 0.36939 0.95970 0.13800
N 	N 	0.89330 0.36930 0.89362 -0.14400
C 	C 	0.88085 0.34025 0.86300 0.13400
N 	N 	0.87863 0.31135 0.89891 -0.13900
C 	C 	0.86871 0.35194 0.25245 0.13400
N 	N 	0.88001 0.38267 0.23094 -0.13500
C 	C 	0.88445 0.40909 0.27663 0.13100
N 	N 	0.87599 0.40515 0.34265 -0.14400
C 	C 	0.86470 0.37458 0.36423 0.13300
N 	N 	0.86179 0.34780 0.31928 -0.13700
Cd	Cd	0.07091 0.01998 0.70233 1.24100
Cd	Cd	0.01262 0.01154 0.83769 1.09800
O 	O 	0.13291 0.03309 0.72993 -0.31400
O 	O 	0.11489 0.02235 0.62444 -0.33200
C 	C 	0.14076 0.03027 0.66609 0.29200
O 	O 	0.02209 0.99880 0.65198 -0.37900
O 	O 	0.98685 0.01955 0.73591 -0.57900
C 	C 	0.99182 0.99874 0.68353 0.30600
C 	C 	0.07165 0.95877 0.77654 0.30400
O 	O 	0.04779 0.05724 0.80706 -0.45800
O 	O 	0.08816 0.95469 0.71925 -0.28000
O 	O 	0.06245 0.98978 0.79193 -0.55900
C 	C 	0.04016 0.08121 0.76422 0.28100
O 	O 	0.04840 0.07438 0.70109 -0.35400
Cd	Cd	0.06090 0.05850 0.45602 1.24300
Cd	Cd	0.98873 0.03555 0.34970 1.09400
O 	O 	0.11407 0.08022 0.40253 -0.30600
O 	O 	0.10986 0.07813 0.51355 -0.33900
C 	C 	0.12893 0.08564 0.46174 0.29000
O 	O 	0.01778 0.05092 0.52951 -0.38600
O 	O 	0.98688 0.01609 0.45583 -0.58400
C 	C 	0.98783 0.03678 0.50949 0.31200
C 	C 	0.01785 0.11065 0.40232 0.31200
O 	O 	0.04639 0.01545 0.35279 -0.45800
O 	O 	0.03749 0.12272 0.45254 -0.29400
O 	O 	0.02461 0.07973 0.38192 -0.55900
C 	C 	0.05957 0.99106 0.38941 0.28700
O 	O 	0.07178 0.00079 0.44934 -0.34200
C 	C 	0.28119 0.05277 0.70628 0.13900
N 	N 	0.31139 0.03544 0.69360 -0.14100
C 	C 	0.33837 0.03672 0.73980 0.13200
N 	N 	0.33543 0.05592 0.79788 -0.14500
C 	C 	0.30565 0.07385 0.81016 0.13500
N 	N 	0.27859 0.07225 0.76426 -0.13300
C 	C 	0.27351 0.10033 0.41015 0.14300
N 	N 	0.30238 0.08928 0.44433 -0.13200
C 	C 	0.33363 0.08675 0.41257 0.13600
N 	N 	0.33613 0.09586 0.34671 -0.14200
C 	C 	0.30720 0.10631 0.31177 0.13300
N 	N 	0.27589 0.10853 0.34368 -0.13600
C 	C 	0.30055 0.09015 0.87789 -0.05400
C 	C 	0.32662 0.11180 0.90794 0.11400
C 	C 	0.32626 0.11885 0.97838 -0.11200
C 	C 	0.29961 0.10569 0.01846 0.02200
C 	C 	0.27106 0.08793 0.98682 0.05400
C 	C 	0.27197 0.08003 0.91676 -0.04200
N 	N 	0.35165 0.12621 0.86938 -0.20100
H 	H 	0.34733 0.13374 0.00234 0.07000
C 	C 	0.30415 0.10676 0.09353 -0.01100
N 	N 	0.24311 0.07788 0.02355 -0.18700
H 	H 	0.25124 0.06456 0.89318 0.05500
C 	C 	0.29319 0.13573 0.13080 -0.08200
C 	C 	0.29567 0.13691 0.20228 0.10700
C 	C 	0.30825 0.10802 0.23688 -0.04700
C 	C 	0.32019 0.07950 0.19940 -0.05200
C 	C 	0.31865 0.07870 0.12804 0.07800
H 	H 	0.28278 0.15744 0.10411 0.06100
N 	N 	0.28686 0.16604 0.23705 -0.19900
H 	H 	0.33019 0.05756 0.22594 0.05100
N 	N 	0.33103 0.05092 0.09306 -0.19400
H 	H 	0.27642 0.18677 0.21129 0.09800
H 	H 	0.29164 0.16896 0.28934 0.10900
H 	H 	0.34104 0.03008 0.11908 0.08900
H 	H 	0.33150 0.04992 0.03999 0.09500
H 	H 	0.22268 0.06380 0.00024 0.09600
H 	H 	0.24088 0.08476 0.07497 0.09600
H 	H 	0.35051 0.12419 0.81631 0.10000
H 	H 	0.37167 0.14102 0.89223 0.08900
C 	C 	0.22404 0.06351 0.44166 -0.05200
C 	C 	0.23877 0.09619 0.43994 -0.01400
C 	C 	0.21848 0.12485 0.45853 0.08200
C 	C 	0.18287 0.12063 0.47350 -0.01600
C 	C 	0.16724 0.08826 0.46794 -0.07500
C 	C 	0.18821 0.05938 0.45373 0.10800
N 	N 	0.17254 0.02623 0.44517 -0.02500
H 	H 	0.23994 0.04138 0.42907 0.07000
H 	H 	0.16694 0.14278 0.48566 0.06700
N 	N 	0.23359 0.15835 0.45995 -0.01800
O 	O 	0.17839 0.00782 0.39050 -0.10000
O 	O 	0.15344 0.01398 0.49295 -0.08300
O 	O 	0.21783 0.18296 0.42862 -0.09800
O 	O 	0.26227 0.16462 0.49504 -0.08500
C 	C 	0.19120 0.06556 0.63367 -0.01800
C 	C 	0.17723 0.03305 0.64392 -0.06500
C 	C 	0.20023 0.00533 0.65244 0.10800
C 	C 	0.23624 0.01144 0.66320 -0.05700
C 	C 	0.24922 0.04495 0.66544 -0.01700
C 	C 	0.22732 0.07161 0.64360 0.07400
N 	N 	0.24148 0.10500 0.63376 -0.01800
H 	H 	0.17374 0.08660 0.62285 0.06900
H 	H 	0.25352 0.99046 0.67550 0.07000
N 	N 	0.18672 0.97129 0.65568 -0.02200
O 	O 	0.27166 0.10845 0.60466 -0.09200
O 	O 	0.22364 0.13197 0.65158 -0.09500
O 	O 	0.16489 0.95967 0.60894 -0.07500
O 	O 	0.19698 0.95159 0.70433 -0.09700
C 	C 	0.86075 0.36933 0.43785 -0.04800
C 	C 	0.83263 0.34992 0.46316 0.10600
C 	C 	0.83270 0.34171 0.53227 -0.08600
C 	C 	0.85814 0.35557 0.57753 -0.00300
C 	C 	0.88463 0.37721 0.55312 0.07300
C 	C 	0.88622 0.38306 0.48328 -0.05100
N 	N 	0.80480 0.34057 0.42245 -0.19800
H 	H 	0.81213 0.32559 0.55137 0.06000
C 	C 	0.85772 0.34627 0.64992 -0.00300
N 	N 	0.90856 0.39243 0.59642 -0.19400
H 	H 	0.90753 0.39827 0.46415 0.05400
C 	C 	0.88159 0.32174 0.67266 -0.08400
C 	C 	0.88990 0.31941 0.74219 0.10700
C 	C 	0.87133 0.33984 0.79011 -0.04900
C 	C 	0.84485 0.36183 0.76753 -0.05000
C 	C 	0.83802 0.36551 0.69775 0.07200
H 	H 	0.89603 0.30652 0.63574 0.06100
N 	N 	0.91680 0.29891 0.76206 -0.20000
H 	H 	0.83018 0.37689 0.80436 0.05200
N 	N 	0.81304 0.38792 0.67707 -0.19400
H 	H 	0.92924 0.28293 0.72656 0.09500
H 	H 	0.92686 0.29981 0.81177 0.10700
H 	H 	0.79922 0.40260 0.71276 0.08800
H 	H 	0.80664 0.39060 0.62566 0.09100
H 	H 	0.92854 0.40765 0.57761 0.08800
H 	H 	0.90710 0.39013 0.64905 0.09200
H 	H 	0.80088 0.35108 0.37472 0.10000
H 	H 	0.78531 0.32450 0.44043 0.09600
C 	C 	0.03314 0.12658 0.85290 -0.09500
C 	C 	0.03954 0.11728 0.78797 -0.08900
H 	H 	0.04446 0.15035 0.87277 0.07600
H 	H 	0.05130 0.13598 0.75553 0.07500
C 	C 	0.93208 0.23081 0.02884 -0.01600
C 	C 	0.90407 0.20800 0.01770 -0.07700
C 	C 	0.87007 0.22080 0.00471 0.13200
C 	C 	0.86520 0.25598 0.99803 -0.06500
C 	C 	0.89421 0.27806 0.99810 -0.02100
C 	C 	0.92777 0.26555 0.01610 0.08000
N 	N 	0.95803 0.28725 0.01526 -0.01300
H 	H 	0.95812 0.22108 0.04013 0.06500
H 	H 	0.83917 0.26575 0.98692 0.07800
N 	N 	0.84102 0.19794 0.99217 -0.02900
O 	O 	0.97805 0.29053 0.06931 -0.08600
O 	O 	0.96856 0.29914 0.95794 -0.11500
O 	O 	0.83599 0.17241 0.03175 -0.07200
O 	O 	0.81915 0.20311 0.94194 -0.09000
C 	C 	0.98679 0.12888 0.37781 -0.16500
C 	C 	0.97930 0.12970 0.31108 -0.15100
H 	H 	0.97016 0.14218 0.41424 0.05000
H 	H 	0.99754 0.11899 0.27435 0.05200
C 	C 	0.83479 0.30540 0.19516 -0.05300
C 	C 	0.86707 0.32220 0.20537 -0.01900
C 	C 	0.89820 0.30478 0.18898 0.07700
C 	C 	0.89747 0.26928 0.17875 -0.01700
C 	C 	0.86556 0.25154 0.18110 -0.07100
C 	C 	0.83389 0.27002 0.18253 0.10500
N 	N 	0.80082 0.25262 0.17595 -0.02500
H 	H 	0.81049 0.31923 0.20297 0.06800
H 	H 	0.92190 0.25533 0.17396 0.07000
N 	N 	0.93083 0.32275 0.18691 -0.01800
O 	O 	0.77562 0.25998 0.21768 -0.10000
O 	O 	0.79555 0.23014 0.12693 -0.08100
O 	O 	0.95679 0.31437 0.22692 -0.09900
O 	O 	0.93539 0.34584 0.14166 -0.09200
C 	C 	0.52111 0.98720 0.52692 -0.04600
C 	C 	0.52043 0.02146 0.50600 0.10100
C 	C 	0.48836 0.03897 0.50374 -0.08400
C 	C 	0.45720 0.02302 0.52271 -0.00800
C 	C 	0.45862 0.99024 0.55100 0.07600
C 	C 	0.49061 0.97246 0.55222 -0.05300
N 	N 	0.55022 0.03732 0.48615 -0.19900
H 	H 	0.48736 0.06447 0.48380 0.05800
C 	C 	0.42319 0.03781 0.50067 -0.00200
N 	N 	0.42923 0.97544 0.57529 -0.19400
H 	H 	0.49140 0.94651 0.56980 0.04900
C 	C 	0.40433 0.02158 0.44704 -0.08800
C 	C 	0.37370 0.03622 0.42031 0.10600
C 	C 	0.36287 0.06866 0.44523 -0.04700
C 	C 	0.38087 0.08436 0.50043 -0.04800
C 	C 	0.41093 0.06918 0.52875 0.07300
H 	H 	0.41356 0.99742 0.42604 0.06100
N 	N 	0.35451 0.01877 0.37172 -0.20100
H 	H 	0.37186 0.10877 0.52063 0.06000
N 	N 	0.42789 0.08486 0.58248 -0.19400
H 	H 	0.36353 0.99552 0.35157 0.09200
H 	H 	0.32981 0.02724 0.35570 0.09700
H 	H 	0.41864 0.10799 0.60279 0.08900
H 	H 	0.45009 0.07415 0.60509 0.08800
H 	H 	0.42984 0.95031 0.59158 0.08700
H 	H 	0.40588 0.98913 0.58052 0.09600
H 	H 	0.57468 0.02543 0.48889 0.09900
H 	H 	0.54925 0.06230 0.46899 0.09300
C 	C 	0.36956 0.01508 0.73018 -0.05400
C 	C 	0.36825 0.97959 0.74218 0.10600
C 	C 	0.39973 0.96135 0.74953 -0.09000
C 	C 	0.43222 0.97802 0.74692 -0.00100
C 	C 	0.43354 0.01259 0.72849 0.06900
C 	C 	0.40212 0.03088 0.72067 -0.05200
N 	N 	0.33705 0.96315 0.74899 -0.20000
H 	H 	0.39890 0.93451 0.76133 0.05800
C 	C 	0.46404 0.96054 0.77262 -0.00500
N 	N 	0.46485 0.02852 0.72010 -0.19300
H 	H 	0.40305 0.05785 0.71001 0.05000
C 	C 	0.48017 0.93566 0.73128 -0.08500
C 	C 	0.51080 0.91911 0.75352 0.10600
C 	C 	0.52641 0.92892 0.81708 -0.04800
C 	C 	0.50980 0.95328 0.85899 -0.05200
C 	C 	0.47826 0.96854 0.83820 0.07400
H 	H 	0.46838 0.92854 0.68239 0.05300
N 	N 	0.52428 0.89312 0.71489 -0.19900
H 	H 	0.52149 0.96042 0.90805 0.05200
N 	N 	0.46162 0.99053 0.88160 -0.19200
H 	H 	0.51379 0.88740 0.66641 0.09400
H 	H 	0.54390 0.87723 0.73381 0.11000
H 	H 	0.47293 0.99710 0.92900 0.08600
H 	H 	0.43687 0.00040 0.86994 0.08900
H 	H 	0.46593 0.05489 0.71435 0.08500
H 	H 	0.48829 0.01478 0.71782 0.09300
H 	H 	0.31311 0.97588 0.74488 0.10000
H 	H 	0.33648 0.93706 0.75845 0.09300
C 	C 	0.60169 0.88886 0.00183 -0.03600
C 	C 	0.57794 0.86848 0.03769 0.10300
C 	C 	0.57663 0.87186 0.10894 -0.08300
C 	C 	0.59981 0.89391 0.14480 -0.00600
C 	C 	0.62687 0.91036 0.10964 0.07900
C 	C 	0.62726 0.90807 0.03824 -0.05500
N 	N 	0.55691 0.84528 0.00420 -0.19300
H 	H 	0.55694 0.85800 0.13632 0.05800
C 	C 	0.59272 0.90303 0.21696 -0.00200
N 	N 	0.65208 0.92882 0.14400 -0.19400
H 	H 	0.64647 0.92257 0.01094 0.06300
C 	C 	0.60435 0.88129 0.26813 -0.08600
C 	C 	0.59921 0.88986 0.33718 0.10900
C 	C 	0.58370 0.92162 0.35514 -0.04800
C 	C 	0.57135 0.94293 0.30379 -0.05100
C 	C 	0.57507 0.93366 0.23487 0.07400
H 	H 	0.61715 0.85749 0.25417 0.06200
N 	N 	0.60818 0.86713 0.38552 -0.19900
H 	H 	0.55910 0.96705 0.31751 0.05400
N 	N 	0.56162 0.95424 0.18625 -0.19400
H 	H 	0.62104 0.84447 0.37207 0.10000
H 	H 	0.60094 0.87083 0.43615 0.11200
H 	H 	0.54945 0.97722 0.20000 0.09000
H 	H 	0.56226 0.94733 0.13464 0.09300
H 	H 	0.67127 0.94188 0.11757 0.09700
H 	H 	0.65357 0.92951 0.19710 0.09800
H 	H 	0.56004 0.83957 0.95246 0.09600
H 	H 	0.53836 0.83138 0.03059 0.09300
C 	C 	0.78444 0.10979 0.41410 -0.08900
C 	C 	0.78671 0.11756 0.34811 -0.09000
H 	H 	0.76266 0.12028 0.44280 0.08000
H 	H 	0.76424 0.12963 0.32399 0.08000
C 	C 	0.92637 0.02884 0.53945 -0.15500
C 	C 	0.95464 0.04929 0.53827 -0.14300
H 	H 	0.92961 0.00135 0.53466 0.04000
H 	H 	0.95191 0.07641 0.54984 0.05000
C 	C 	0.70577 0.94519 0.57921 -0.02000
C 	C 	0.71511 0.97979 0.58038 -0.05900
C 	C 	0.68859 0.00473 0.58467 0.10200
C 	C 	0.65328 0.99498 0.57687 -0.04600
C 	C 	0.64445 0.96068 0.56348 -0.02000
C 	C 	0.67046 0.93542 0.57070 0.07600
N 	N 	0.66126 0.89992 0.56644 -0.01900
H 	H 	0.72611 0.92588 0.57985 0.07200
H 	H 	0.63308 0.01440 0.57521 0.06600
N 	N 	0.69757 0.04022 0.58983 -0.02300
O 	O 	0.68107 0.87837 0.53344 -0.10000
O 	O 	0.63343 0.88903 0.59664 -0.09400
O 	O 	0.68401 0.06147 0.54707 -0.10300
O 	O 	0.71834 0.05149 0.63866 -0.07800
C 	C 	0.93142 0.97723 0.67723 -0.14500
C 	C 	0.96583 0.97165 0.66761 -0.14500
H 	H 	0.92146 0.00319 0.67892 0.04700
H 	H 	0.97516 0.94581 0.65806 0.04800
C 	C 	0.86111 0.03074 0.83721 -0.15900
C 	C 	0.86512 0.03683 0.90424 -0.14600
H 	H 	0.87046 0.04908 0.80118 0.04900
H 	H 	0.85308 0.02005 0.94030 0.05800
C 	C 	0.70573 0.89157 0.73157 -0.01500
C 	C 	0.72208 0.92333 0.74288 -0.07500
C 	C 	0.70202 0.95140 0.76626 0.10900
C 	C 	0.66692 0.94647 0.78404 -0.05300
C 	C 	0.65238 0.91365 0.78253 -0.01600
C 	C 	0.67121 0.88629 0.75293 0.08000
N 	N 	0.65608 0.85278 0.74787 -0.01700
H 	H 	0.72073 0.87026 0.71125 0.06700
H 	H 	0.65187 0.96778 0.80425 0.07200
N 	N 	0.71814 0.98418 0.77812 -0.02300
O 	O 	0.62437 0.84846 0.72335 -0.09300
O 	O 	0.67443 0.82644 0.76577 -0.09900
O 	O 	0.73901 0.99658 0.73332 -0.06900
O 	O 	0.71163 0.00182 0.83347 -0.09500
C 	C 	0.89885 0.44198 0.25551 -0.05100
C 	C 	0.93253 0.44428 0.22629 0.10700
C 	C 	0.94621 0.47647 0.21178 -0.08700
C 	C 	0.92928 0.50631 0.23444 -0.00500
C 	C 	0.89664 0.50394 0.26750 0.07100
C 	C 	0.88079 0.47192 0.27363 -0.05300
N 	N 	0.95263 0.41606 0.21573 -0.19900
H 	H 	0.97160 0.47827 0.18830 0.05500
C 	C 	0.94509 0.54001 0.22092 -0.00600
N 	N 	0.88105 0.53205 0.29559 -0.19400
H 	H 	0.85518 0.47018 0.29661 0.05100
C 	C 	0.92695 0.56224 0.17800 -0.08300
C 	C 	0.93406 0.59736 0.18129 0.10500
C 	C 	0.96049 0.61000 0.22676 -0.04400
C 	C 	0.98377 0.58686 0.25648 -0.06100
C 	C 	0.97513 0.55210 0.25793 0.07600
H 	H 	0.90537 0.55266 0.14628 0.05500
N 	N 	0.91486 0.61878 0.14228 -0.20000
H 	H 	0.00591 0.59650 0.28675 0.06400
N 	N 	0.99452 0.53109 0.29774 -0.19900
H 	H 	0.89406 0.60944 0.11172 0.09800
H 	H 	0.92152 0.64444 0.13912 0.11800
H 	H 	0.01697 0.54029 0.32361 0.09500
H 	H 	0.98716 0.50589 0.30516 0.09100
H 	H 	0.85612 0.53030 0.31663 0.08700
H 	H 	0.89424 0.55536 0.30049 0.09200
H 	H 	0.94719 0.39326 0.23953 0.11800
H 	H 	0.97580 0.41757 0.18824 0.10000
C 	C 	0.91868 0.40089 0.99142 -0.05500
C 	C 	0.94816 0.41674 0.96314 0.11300
C 	C 	0.95358 0.45183 0.97438 -0.09900
C 	C 	0.93132 0.47090 0.01700 0.00500
C 	C 	0.90422 0.45398 0.05175 0.07000
C 	C 	0.89855 0.41893 0.03918 -0.03500
N 	N 	0.97110 0.39843 0.92455 -0.20100
H 	H 	0.97466 0.46453 0.94859 0.05800
C 	C 	0.93356 0.50882 0.01711 0.00400
N 	N 	0.88300 0.47134 0.09547 -0.19300
H 	H 	0.87686 0.40627 0.06319 0.05800
C 	C 	0.90536 0.52729 0.98968 -0.09900
C 	C 	0.90825 0.56249 0.98019 0.10600
C 	C 	0.94095 0.57889 0.99215 -0.06000
C 	C 	0.96839 0.56116 0.02373 -0.04000
C 	C 	0.96500 0.52627 0.03690 0.06900
H 	H 	0.88111 0.51418 0.97548 0.05700
N 	N 	0.87948 0.58051 0.96067 -0.20100
H 	H 	0.99301 0.57416 0.03554 0.05300
N 	N 	0.99198 0.50972 0.06791 -0.19700
H 	H 	0.85574 0.56805 0.94914 0.08800
H 	H 	0.87990 0.60713 0.96036 0.09800
H 	H 	0.01481 0.52292 0.08299 0.09700
H 	H 	0.99052 0.48380 0.07800 0.09000
H 	H 	0.86211 0.45898 0.11831 0.09100
H 	H 	0.88763 0.49686 0.10891 0.09000
H 	H 	0.96906 0.37192 0.91932 0.10900
H 	H 	0.99214 0.41048 0.90155 0.09100
C 	C 	0.94548 0.67775 0.43624 -0.04700
C 	C 	0.97390 0.68758 0.48011 0.10100
C 	C 	0.97065 0.68430 0.55066 -0.08300
C 	C 	0.94032 0.67006 0.57775 -0.00400
C 	C 	0.91147 0.66139 0.53421 0.07300
C 	C 	0.91428 0.66564 0.46385 -0.05100
N 	N 	0.00463 0.69922 0.45491 -0.19600
H 	H 	0.99245 0.69144 0.58438 0.05900
C 	C 	0.94012 0.66218 0.65099 -0.00300
N 	N 	0.88130 0.64847 0.55938 -0.19400
H 	H 	0.89247 0.65845 0.43019 0.05300
C 	C 	0.92499 0.68553 0.69705 -0.08600
C 	C 	0.92507 0.67924 0.76701 0.10700
C 	C 	0.94327 0.65048 0.79169 -0.05000
C 	C 	0.95771 0.62674 0.74548 -0.05100
C 	C 	0.95583 0.63201 0.67518 0.07200
H 	H 	0.91230 0.70823 0.67820 0.06000
N 	N 	0.90659 0.70007 0.80969 -0.19900
H 	H 	0.97101 0.60436 0.76433 0.05200
N 	N 	0.96913 0.60808 0.63133 -0.19400
H 	H 	0.89487 0.72224 0.79174 0.09600
H 	H 	0.90183 0.69342 0.85976 0.11000
H 	H 	0.98127 0.58622 0.64978 0.08700
H 	H 	0.96697 0.61051 0.57869 0.09100
H 	H 	0.86028 0.64187 0.52669 0.08900
H 	H 	0.87828 0.64498 0.61138 0.09200
H 	H 	0.00865 0.70059 0.40271 0.11300
H 	H 	0.02526 0.70665 0.48787 0.10000
C 	C 	0.98280 0.97625 0.03049 -0.14800
C 	C 	0.95999 0.00231 0.02948 -0.15000
H 	H 	0.01086 0.98138 0.03356 0.05900
H 	H 	0.93205 0.99739 0.03417 0.05400
C 	C 	0.87515 0.84287 0.84388 -0.09400
C 	C 	0.89010 0.83924 0.90567 -0.08600
H 	H 	0.86063 0.82141 0.82129 0.07500
H 	H 	0.88341 0.81683 0.93408 0.08300
C 	C 	0.06227 0.92544 0.87740 -0.14300
C 	C 	0.05641 0.92969 0.81077 -0.16000
H 	H 	0.08028 0.94228 0.90574 0.06300
H 	H 	0.04066 0.91129 0.78121 0.03600
C 	C 	0.96842 0.75768 0.04044 -0.02600
C 	C 	0.00439 0.76511 0.03828 -0.06600
C 	C 	0.02871 0.73815 0.03510 0.11000
C 	C 	0.01662 0.70461 0.02305 -0.04100
C 	C 	0.98058 0.69811 0.01374 -0.01600
C 	C 	0.95631 0.72436 0.02780 0.07600
N 	N 	0.91929 0.71793 0.02206 -0.01400
H 	H 	0.94965 0.77833 0.04509 0.07200
H 	H 	0.03535 0.68409 0.01587 0.07600
N 	N 	0.06564 0.74487 0.04153 -0.02200
O 	O 	0.90543 0.69271 0.05381 -0.11000
O 	O 	0.89921 0.73816 0.98736 -0.11500
O 	O 	0.07759 0.76524 0.08994 -0.08100
O 	O 	0.08747 0.72970 0.00053 -0.08900
C 	C 	0.91242 0.01188 0.18350 -0.14700
C 	C 	0.91962 0.04537 0.18175 -0.14200
H 	H 	0.88527 0.00327 0.18305 0.05100
H 	H 	0.94645 0.05377 0.17418 0.05000
C 	C 	0.87361 0.93663 0.35135 -0.15000
C 	C 	0.87694 0.94363 0.41818 -0.15800
H 	H 	0.84971 0.94349 0.32393 0.05900
H 	H 	0.89940 0.93421 0.44688 0.04700
C 	C 	0.06446 0.94889 0.29417 -0.08900
C 	C 	0.07572 0.96108 0.35534 -0.08600
H 	H 	0.08308 0.93524 0.26230 0.07900
H 	H 	0.10128 0.95293 0.37411 0.08800
C 	C 	0.93173 0.75362 0.20361 -0.05200
C 	C 	0.96190 0.73519 0.22124 -0.01700
C 	C 	0.99514 0.75069 0.21715 0.07100
C 	C 	0.99748 0.78563 0.20488 -0.02100
C 	C 	0.96696 0.80503 0.19553 -0.07100
C 	C 	0.93410 0.78850 0.19066 0.10600
N 	N 	0.90285 0.80746 0.17662 -0.02300
H 	H 	0.90619 0.74138 0.20401 0.07600
H 	H 	0.02296 0.79803 0.20603 0.08100
N 	N 	0.02646 0.73145 0.22936 -0.01500
O 	O 	0.89854 0.82161 0.11802 -0.08200
O 	O 	0.87765 0.80849 0.22044 -0.09000
O 	O 	0.03237 0.70360 0.19398 -0.09100
O 	O 	0.04992 0.74271 0.27338 -0.09500
