data_crystal

_cell_length_a 25.45230
_cell_length_b 26.10214
_cell_length_c 17.35079
_cell_angle_alpha 95.48782
_cell_angle_beta  95.48400
_cell_angle_gamma 125.84666

_symmetry_space_group_name_	'P 1'
_symmetry_space_group_name_H-M	'P 1'

loop_
_symmetry_equiv_pos_as_xyz
  x,y,z

loop_
_atom_site_label
_atom_site_type_symbol
_atom_site_fract_x
_atom_site_fract_y
_atom_site_fract_z
_atom_site_charge
N 	N 	0.03690 0.07010 0.94689 -0.14300
C 	C 	0.05979 0.03614 0.92519 0.12400
C 	C 	0.02411 0.99865 0.42268 0.12200
C 	C 	0.34504 0.20691 0.54467 -0.07700
C 	C 	0.30499 0.14047 0.51577 0.01800
C 	C 	0.33431 0.10955 0.49997 -0.00900
C 	C 	0.40275 0.14619 0.50536 -0.00400
C 	C 	0.41348 0.24346 0.55053 0.06000
C 	C 	0.23302 0.10534 0.49302 0.00200
S 	S 	0.28571 0.02529 0.47182 -0.03900
H 	H 	0.42495 0.12271 0.48932 0.03100
H 	H 	0.32272 0.23041 0.55996 0.05300
C 	C 	0.19164 0.08026 0.54880 0.00700
C 	C 	0.12346 0.04654 0.52544 -0.03500
C 	C 	0.09613 0.03770 0.44682 -0.03000
C 	C 	0.13765 0.06311 0.39117 0.02800
C 	C 	0.20578 0.09703 0.41464 -0.05800
S 	S 	0.22451 0.09001 0.64757 -0.04800
H 	H 	0.09158 0.02678 0.56829 0.04400
H 	H 	0.23769 0.11656 0.37176 0.05000
H 	H 	0.23932 0.14539 0.68991 0.03500
H 	H 	0.27707 0.99848 0.53797 0.03500
C 	C 	0.20570 0.06487 0.84395 -0.06100
C 	C 	0.25794 0.12130 0.89541 0.00300
C 	C 	0.24448 0.15494 0.94823 0.00700
C 	C 	0.17915 0.12859 0.95444 -0.03400
C 	C 	0.12679 0.06971 0.90665 -0.03100
C 	C 	0.14029 0.04020 0.84731 0.03000
C 	C 	0.32582 0.14081 0.89993 0.01500
S 	S 	0.30911 0.22898 0.00871 -0.04300
H 	H 	0.16922 0.15264 0.99857 0.04700
H 	H 	0.21594 0.03949 0.80235 0.05100
C 	C 	0.35273 0.12434 0.95853 -0.00800
C 	C 	0.41982 0.15123 0.97001 -0.00900
C 	C 	0.43184 0.20444 0.85823 0.05200
C 	C 	0.36494 0.17892 0.84823 -0.07300
S 	S 	0.30314 0.07119 0.01908 -0.03600
H 	H 	0.34358 0.18934 0.80090 0.05200
H 	H 	0.27461 0.00923 0.98312 0.03600
H 	H 	0.32935 0.21782 0.07695 0.03700
H 	H 	0.10637 0.10423 0.28199 0.03700
H 	H 	0.06120 0.13050 0.17148 0.03500
H 	H 	0.06503 0.99825 0.71194 0.03500
S 	S 	0.10497 0.05208 0.29185 -0.03800
O 	O 	0.55842 0.21016 0.98900 -0.36300
C 	C 	0.53307 0.23355 0.94813 0.28200
O 	O 	0.56917 0.29553 0.94652 -0.39300
O 	O 	0.55491 0.25109 0.55228 -0.38500
C 	C 	0.50940 0.25171 0.50985 0.29900
O 	O 	0.52384 0.29048 0.45856 -0.39100
C 	C 	0.44205 0.21342 0.52604 -0.09600
S 	S 	0.46290 0.32655 0.58907 -0.04600
H 	H 	0.48128 0.33678 0.66910 0.04300
C 	C 	0.46058 0.19407 0.92286 -0.09000
H 	H 	0.44089 0.14108 0.01802 0.04800
S 	S 	0.47761 0.24538 0.78685 -0.03900
H 	H 	0.46985 0.20200 0.72684 0.04100
N 	N 	0.02416 0.97273 0.92949 -0.13900
S 	S 	0.07627 0.97514 0.77412 -0.04100
O 	O 	0.60033 0.31167 0.13931 -0.35300
H 	H 	0.64463 0.23582 0.88148 0.17100
Cu	Cu	0.59790 0.32643 0.39933 0.89400
O 	O 	0.62541 0.27651 0.42692 -0.64200
H 	H 	0.59423 0.22990 0.40454 0.16700
H 	H 	0.62603 0.07545 0.43384 0.03200
S 	S 	0.62891 0.52907 0.97886 -0.05000
H 	H 	0.62188 0.52931 0.05618 0.03900
O 	O 	0.62519 0.33743 0.29393 -0.35400
Cu	Cu	0.62909 0.36406 0.05520 0.89800
C 	C 	0.63581 0.29743 0.17804 0.19800
Cu	Cu	0.64603 0.29774 0.53973 0.89500
S 	S 	0.63622 0.08440 0.35861 -0.04900
Cu	Cu	0.65660 0.25930 0.03098 0.92900
C 	C 	0.64762 0.30935 0.25660 0.19700
O 	O 	0.65162 0.26340 0.14046 -0.32200
O 	O 	0.67806 0.27129 0.92543 -0.64700
O 	O 	0.67925 0.45331 0.03582 -0.38800
O 	O 	0.67039 0.31738 0.65488 -0.34300
H 	H 	0.66141 0.48725 0.42219 0.02700
Cu	Cu	0.69143 0.35360 0.92223 0.89600
O 	O 	0.68728 0.34052 0.80977 -0.34000
O 	O 	0.68154 0.40878 0.48155 -0.39400
O 	O 	0.69079 0.30339 0.29446 -0.32600
H 	H 	0.66311 0.62020 0.47350 0.03800
O 	O 	0.69663 0.35713 0.03533 -0.63500
S 	S 	0.67616 0.60261 0.40515 -0.04100
O 	O 	0.70287 0.22122 0.05775 -0.36500
O 	O 	0.69850 0.43151 0.91438 -0.37700
O 	O 	0.71476 0.21649 0.46293 -0.44000
H 	H 	0.70898 0.12564 0.04767 0.04200
H 	H 	0.71415 0.03898 0.34203 0.05300
C 	C 	0.72304 0.32665 0.77619 0.19600
C 	C 	0.70730 0.47271 0.97410 0.29200
Cu	Cu	0.72238 0.32857 0.40546 0.92800
C 	C 	0.71671 0.31786 0.69782 0.19100
C 	C 	0.72077 0.12565 0.35652 0.05900
C 	C 	0.71324 0.57231 0.97406 0.06100
C 	C 	0.71380 0.52637 0.43426 -0.00000
O 	O 	0.73773 0.33927 0.52120 -0.64400
H 	H 	0.72713 0.66237 0.97843 0.05500
C 	C 	0.73565 0.44710 0.45457 0.29000
C 	C 	0.74628 0.23354 0.40367 0.29600
C 	C 	0.73509 0.58861 0.42845 -0.00800
C 	C 	0.74534 0.09032 0.34270 -0.07600
H 	H 	0.74116 0.39067 0.06706 0.15900
Cu	Cu	0.74601 0.27628 0.55869 0.86300
C 	C 	0.74325 0.54097 0.96773 -0.09300
H 	H 	0.73470 0.02068 0.96059 0.03400
S 	S 	0.74738 0.04210 0.04013 -0.03700
C 	C 	0.75007 0.63825 0.97309 -0.07600
O 	O 	0.75769 0.42206 0.41090 -0.36000
O 	O 	0.76013 0.31486 0.66559 -0.38700
C 	C 	0.75971 0.51399 0.45396 -0.09600
C 	C 	0.76336 0.19337 0.36508 -0.09700
C 	C 	0.76239 0.15548 0.06189 -0.00400
C 	C 	0.76624 0.25283 0.05815 0.30000
O 	O 	0.76788 0.28911 0.38381 -0.37200
Cu	Cu	0.76960 0.30519 0.92299 0.85900
O 	O 	0.76953 0.32731 0.81886 -0.39300
H 	H 	0.77021 0.38384 0.55099 0.17800
N 	N 	0.99519 0.02661 0.40119 -0.13900
C 	C 	0.97869 0.04068 0.97269 0.12500
O 	O 	0.79749 0.30577 0.02897 -0.43600
C 	C 	0.84907 0.62740 0.46303 -0.07600
C 	C 	0.80306 0.63930 0.44179 0.01800
C 	C 	0.82780 0.56522 0.47006 0.05900
C 	C 	0.82659 0.70482 0.43230 0.00300
S 	S 	0.88660 0.55293 0.50282 -0.05600
H 	H 	0.90140 0.66665 0.47459 0.05300
S 	S 	0.83615 0.73283 0.59285 -0.04300
H 	H 	0.81574 0.68389 0.30602 0.05100
H 	H 	0.89615 0.56013 0.58333 0.03300
C 	C 	0.83384 0.04500 0.28332 -0.06000
C 	C 	0.84230 0.08894 0.34591 0.00100
C 	C 	0.87764 0.09918 0.42064 0.00900
C 	C 	0.90573 0.06708 0.43132 -0.03600
C 	C 	0.89726 0.02308 0.36899 -0.02900
C 	C 	0.86041 0.01141 0.29471 0.02800
C 	C 	0.81118 0.12162 0.33425 0.01800
S 	S 	0.88553 0.15079 0.50181 -0.05500
H 	H 	0.80621 0.03663 0.22601 0.05200
C 	C 	0.84976 0.18723 0.32876 -0.00700
C 	C 	0.82613 0.22310 0.34536 -0.00300
S 	S 	0.92836 0.22523 0.30384 -0.04000
H 	H 	0.85775 0.27452 0.34672 0.04200
H 	H 	0.97481 0.24874 0.37083 0.03200
H 	H 	0.94098 0.21208 0.50518 0.03200
C 	C 	0.81601 0.67301 0.96359 0.01800
C 	C 	0.84545 0.64139 0.95513 -0.00900
C 	C 	0.80896 0.57566 0.95719 -0.00200
S 	S 	0.92771 0.68346 0.94132 -0.04300
H 	H 	0.83196 0.55161 0.95151 0.02600
H 	H 	0.92899 0.68256 0.86246 0.03400
C 	C 	0.90044 0.23187 0.09640 -0.07700
C 	C 	0.86379 0.16527 0.07067 0.01600
C 	C 	0.79445 0.12658 0.05949 -0.00800
C 	C 	0.79920 0.22287 0.07785 -0.10100
C 	C 	0.86837 0.26065 0.10258 0.05600
C 	C 	0.89766 0.13766 0.04601 0.00400
S 	S 	0.91437 0.34226 0.14721 -0.04600
H 	H 	0.95386 0.26137 0.11010 0.05200
C 	C 	0.90061 0.12639 0.96590 0.00600
C 	C 	0.92886 0.09618 0.94282 -0.03400
C 	C 	0.95510 0.07788 0.99897 -0.03400
C 	C 	0.95552 0.09244 0.07952 0.03200
C 	C 	0.92597 0.12138 0.10251 -0.06100
S 	S 	0.86906 0.14985 0.89411 -0.06000
H 	H 	0.92955 0.08605 0.88099 0.04500
H 	H 	0.92489 0.13112 0.16427 0.05300
H 	H 	0.93875 0.37980 0.09113 0.03000
H 	H 	0.91702 0.21240 0.88907 0.02900
H 	H 	0.89180 0.74114 0.62816 0.03500
S 	S 	0.99619 0.07813 0.15216 -0.03600
H 	H 	0.84022 0.69061 0.76748 0.03600
C 	C 	0.84519 0.75192 0.49810 0.00700
C 	C 	0.87155 0.81482 0.48838 -0.03300
C 	C 	0.87919 0.83116 0.41348 -0.03100
C 	C 	0.85706 0.78318 0.34714 0.03000
C 	C 	0.83129 0.72042 0.35691 -0.05900
H 	H 	0.88810 0.85158 0.53945 0.04500
C 	C 	0.89202 0.78801 0.03015 -0.05700
C 	C 	0.85340 0.74226 0.96074 0.00100
C 	C 	0.85132 0.76270 0.88893 0.00600
S 	S 	0.80363 0.70639 0.80077 -0.03800
H 	H 	0.89418 0.77232 0.08520 0.04900
S 	S 	0.86348 0.80162 0.25200 -0.04400
C 	C 	0.88802 0.82850 0.88725 -0.03300
C 	C 	0.92874 0.85383 0.02844 0.03100
H 	H 	0.93357 0.07572 0.48860 0.04600
H 	H 	0.79157 0.89484 0.21976 0.04000
H 	H 	0.92344 0.81980 0.23687 0.03800
C 	C 	0.96524 0.94298 0.95333 0.12600
N 	N 	0.94267 0.97701 0.97532 -0.14000
N 	N 	0.89055 0.92724 0.38555 -0.13900
C 	C 	0.91960 0.89934 0.40705 0.12400
N 	N 	0.98626 0.93517 0.42594 -0.14000
C 	C 	0.92653 0.87421 0.95666 -0.03100
H 	H 	0.88672 0.84418 0.83189 0.04600
S 	S 	0.97871 0.91026 0.11597 -0.03700
H 	H 	0.94325 0.92551 0.15332 0.04400
S 	S 	0.84664 0.95457 0.21601 -0.03900
C 	C 	0.92840 0.99090 0.38200 0.12300
