data_crystal

_cell_length_a 33.78906
_cell_length_b 34.03919
_cell_length_c 36.83765
_cell_angle_alpha 95.50053
_cell_angle_beta  95.50495
_cell_angle_gamma 125.42800

_symmetry_space_group_name_	'P 1'
_symmetry_space_group_name_H-M	'P 1'

loop_
_symmetry_equiv_pos_as_xyz
  x,y,z

loop_
_atom_site_label
_atom_site_type_symbol
_atom_site_fract_x
_atom_site_fract_y
_atom_site_fract_z
_atom_site_charge
C 	C 	0.97887 0.02750 0.99451 0.02900
C 	C 	0.02859 0.05340 0.99071 -0.07600
C 	C 	0.05035 0.02884 0.98698 0.02900
H 	H 	0.05029 0.09251 0.99085 0.04800
C 	C 	0.95341 0.00212 0.45434 0.02800
C 	C 	0.03020 0.01010 0.46074 0.02800
C 	C 	0.00485 0.03102 0.45662 -0.07500
H 	H 	0.02513 0.06973 0.45548 0.04900
Cu	Cu	0.64979 0.26133 0.99738 0.92700
Cu	Cu	0.69523 0.26523 0.92182 0.87000
Cu	Cu	0.68148 0.34064 0.95026 0.89600
Cu	Cu	0.64610 0.35033 0.01997 0.89400
C 	C 	0.65791 0.29619 0.07397 0.30400
O 	O 	0.57676 0.23053 0.99301 -0.36500
C 	C 	0.67179 0.30892 0.86999 0.30700
O 	O 	0.68858 0.33765 0.00184 -0.64000
O 	O 	0.64770 0.26830 0.94464 -0.64200
O 	O 	0.68118 0.22663 0.99764 -0.37500
O 	O 	0.73877 0.27796 0.96534 -0.44300
O 	O 	0.63545 0.31550 0.06284 -0.38600
O 	O 	0.71762 0.41123 0.95961 -0.38200
C 	C 	0.70978 0.43641 0.98360 0.28800
C 	C 	0.55726 0.25073 0.97828 0.28300
O 	O 	0.58611 0.29682 0.97462 -0.39300
O 	O 	0.67433 0.41445 0.00332 -0.39400
O 	O 	0.66191 0.26753 0.05024 -0.36100
C 	C 	0.72398 0.24562 0.98723 0.29000
O 	O 	0.68637 0.34508 0.89757 -0.38900
O 	O 	0.66759 0.26924 0.87596 -0.42300
H 	H 	0.72316 0.35897 0.01558 0.16300
H 	H 	0.61423 0.24838 0.92905 0.17200
Cu	Cu	0.72484 0.33507 0.44921 0.92800
Cu	Cu	0.72577 0.29510 0.52670 0.87000
Cu	Cu	0.64829 0.30700 0.49902 0.89700
Cu	Cu	0.63393 0.33716 0.42790 0.89300
C 	C 	0.68576 0.32281 0.37273 0.30400
O 	O 	0.75504 0.40715 0.45128 -0.36400
C 	C 	0.68478 0.32156 0.57926 0.30700
O 	O 	0.64832 0.29662 0.44706 -0.64100
O 	O 	0.72092 0.34044 0.50252 -0.64100
O 	O 	0.75984 0.30391 0.44911 -0.37300
O 	O 	0.71061 0.24942 0.48408 -0.44200
O 	O 	0.66665 0.34543 0.38388 -0.38700
O 	O 	0.57720 0.27092 0.49188 -0.38200
C 	C 	0.55015 0.27636 0.46746 0.28900
C 	C 	0.73528 0.42709 0.46614 0.28300
O 	O 	0.68948 0.39886 0.47133 -0.39200
O 	O 	0.57054 0.30997 0.44626 -0.39600
O 	O 	0.71563 0.31987 0.39626 -0.36200
C 	C 	0.74153 0.26238 0.46095 0.28900
O 	O 	0.64706 0.30572 0.55243 -0.38900
O 	O 	0.72424 0.32526 0.57238 -0.42300
H 	H 	0.62649 0.26176 0.43450 0.16300
H 	H 	0.74151 0.37431 0.51707 0.17200
C 	C 	0.66623 0.32981 0.76294 -0.00700
C 	C 	0.62394 0.29577 0.73586 -0.03500
C 	C 	0.62583 0.29761 0.69824 -0.03500
C 	C 	0.67003 0.33349 0.68758 -0.00700
C 	C 	0.71136 0.36937 0.71476 -0.03600
C 	C 	0.70946 0.36754 0.75236 -0.03500
C 	C 	0.67490 0.32970 0.64923 0.04400
C 	C 	0.67911 0.32665 0.61715 -0.11200
C 	C 	0.66728 0.32237 0.80075 0.04400
C 	C 	0.66869 0.31658 0.83250 -0.11200
H 	H 	0.59025 0.26671 0.74382 0.03800
H 	H 	0.59360 0.26995 0.67739 0.03900
H 	H 	0.74556 0.39744 0.70676 0.03800
H 	H 	0.74221 0.39421 0.77315 0.03800
C 	C 	0.67643 0.29340 0.18453 -0.00400
C 	C 	0.72138 0.32957 0.20841 -0.03500
C 	C 	0.72472 0.33258 0.24686 -0.03400
C 	C 	0.68312 0.29944 0.26155 -0.00500
C 	C 	0.63889 0.26180 0.23759 -0.03500
C 	C 	0.63555 0.25878 0.19916 -0.03400
C 	C 	0.68423 0.30722 0.30086 0.04300
C 	C 	0.68512 0.31371 0.33377 -0.10400
C 	C 	0.67083 0.29468 0.14551 0.04300
C 	C 	0.66553 0.29524 0.11277 -0.10300
H 	H 	0.75323 0.35628 0.19729 0.03800
H 	H 	0.75913 0.36163 0.26520 0.04100
H 	H 	0.60664 0.23590 0.24874 0.03800
H 	H 	0.60075 0.23053 0.18086 0.04100
C 	C 	0.76196 0.48083 0.47219 -0.09000
C 	C 	0.74948 0.50380 0.49748 0.01100
C 	C 	0.77074 0.55377 0.50013 -0.06700
C 	C 	0.80467 0.58123 0.47756 0.02600
C 	C 	0.81842 0.55872 0.45321 -0.06600
C 	C 	0.79732 0.50883 0.45061 0.01300
C 	C 	0.82421 0.63298 0.47820 -0.00200
C 	C 	0.79187 0.64508 0.46823 -0.03700
C 	C 	0.81063 0.69358 0.46604 -0.04200
C 	C 	0.86184 0.73027 0.47363 0.00700
C 	C 	0.89412 0.71841 0.48440 -0.04200
C 	C 	0.87538 0.66998 0.48676 -0.03700
C 	C 	0.88179 0.78064 0.46876 0.00700
C 	C 	0.87908 0.81143 0.49489 -0.04300
C 	C 	0.90506 0.79849 0.43858 -0.04300
H 	H 	0.72285 0.48284 0.51471 0.03000
H 	H 	0.76038 0.57098 0.51937 0.04500
H 	H 	0.84460 0.57962 0.43567 0.04600
H 	H 	0.80730 0.49167 0.43095 0.03800
H 	H 	0.75231 0.61677 0.46145 0.03700
H 	H 	0.78547 0.70246 0.45774 0.03900
H 	H 	0.93371 0.74661 0.49051 0.03900
H 	H 	0.90063 0.66109 0.49474 0.03700
H 	H 	0.86098 0.79784 0.51819 0.03900
H 	H 	0.90694 0.77482 0.41812 0.03900
C 	C 	0.92702 0.02449 0.45061 -0.00400
C 	C 	0.90345 0.02719 0.47908 -0.03700
C 	C 	0.88126 0.05126 0.47669 -0.04300
C 	C 	0.88247 0.07285 0.44580 0.00700
C 	C 	0.90510 0.06923 0.41695 -0.04300
C 	C 	0.92727 0.04514 0.41934 -0.03600
C 	C 	0.86176 0.10085 0.44437 0.00700
C 	C 	0.82117 0.08479 0.41677 -0.04300
C 	C 	0.80109 0.11096 0.41586 -0.03700
C 	C 	0.82147 0.15340 0.44253 -0.00300
C 	C 	0.86237 0.16970 0.46988 -0.03700
C 	C 	0.88245 0.14357 0.47078 -0.04300
C 	C 	0.79884 0.17969 0.44279 0.02600
C 	C 	0.75069 0.15656 0.44978 -0.06900
C 	C 	0.73111 0.18299 0.45404 0.01200
C 	C 	0.75962 0.23294 0.45152 -0.09700
C 	C 	0.80701 0.25544 0.44283 0.01400
C 	C 	0.82651 0.22892 0.43854 -0.06900
H 	H 	0.86361 0.05361 0.49899 0.03800
H 	H 	0.90619 0.08575 0.39300 0.03900
H 	H 	0.94516 0.04301 0.39713 0.03700
H 	H 	0.80498 0.05187 0.39625 0.03900
H 	H 	0.76956 0.09814 0.39460 0.03800
H 	H 	0.87822 0.20228 0.49069 0.03500
H 	H 	0.91397 0.15640 0.49205 0.03800
H 	H 	0.72892 0.11847 0.45288 0.04400
H 	H 	0.69417 0.16489 0.46002 0.02800
H 	H 	0.82935 0.29382 0.44059 0.03300
H 	H 	0.86354 0.24693 0.43274 0.04500
C 	C 	0.49674 0.24926 0.46766 -0.08800
C 	C 	0.47199 0.26956 0.45748 0.01400
C 	C 	0.42145 0.24387 0.45765 -0.06700
C 	C 	0.39513 0.19771 0.46804 0.02700
C 	C 	0.41973 0.17738 0.47826 -0.06700
C 	C 	0.47029 0.20300 0.47806 0.01400
C 	C 	0.34172 0.17052 0.46793 -0.00200
C 	C 	0.32461 0.18992 0.49176 -0.03700
C 	C 	0.27391 0.16474 0.49100 -0.04200
C 	C 	0.23992 0.11996 0.46641 0.00700
C 	C 	0.25705 0.10042 0.44274 -0.04200
C 	C 	0.30774 0.12561 0.44348 -0.03700
C 	C 	0.18643 0.09349 0.46547 0.00700
C 	C 	0.15542 0.08614 0.43325 -0.04300
C 	C 	0.10448 0.05968 0.43194 -0.03600
C 	C 	0.08417 0.04035 0.46283 -0.00400
C 	C 	0.11528 0.04833 0.49524 -0.03600
C 	C 	0.16621 0.07479 0.49655 -0.04300
H 	H 	0.49193 0.30536 0.44971 0.03300
H 	H 	0.40271 0.25978 0.44962 0.04500
H 	H 	0.39969 0.14176 0.48637 0.04500
H 	H 	0.48878 0.18674 0.48572 0.03100
H 	H 	0.35059 0.22451 0.51080 0.03800
H 	H 	0.26101 0.18011 0.50936 0.03900
H 	H 	0.23108 0.06574 0.42380 0.03800
H 	H 	0.32061 0.11042 0.42491 0.03700
H 	H 	0.17076 0.10069 0.40919 0.03900
H 	H 	0.08074 0.05364 0.40679 0.03700
H 	H 	0.18987 0.08030 0.52154 0.03900
C 	C 	0.87482 0.81538 0.96367 -0.04300
C 	C 	0.89070 0.79809 0.99028 0.00600
C 	C 	0.93277 0.83165 0.01776 -0.04200
C 	C 	0.86371 0.74485 0.98907 0.00500
C 	C 	0.84329 0.72429 0.01960 -0.04100
C 	C 	0.81851 0.67401 0.01872 -0.03500
C 	C 	0.81365 0.64379 0.98722 -0.00400
C 	C 	0.83389 0.66432 0.95663 -0.03700
C 	C 	0.85894 0.71465 0.95759 -0.04200
C 	C 	0.78701 0.59062 0.98615 0.02700
C 	C 	0.73734 0.56174 0.99019 -0.06800
C 	C 	0.71217 0.51146 0.98946 0.01400
C 	C 	0.73637 0.48948 0.98448 -0.08800
C 	C 	0.78600 0.51835 0.98024 0.01400
C 	C 	0.81125 0.56871 0.98118 -0.06800
H 	H 	0.84219 0.78977 0.94250 0.03900
H 	H 	0.94539 0.81867 0.03837 0.03800
H 	H 	0.84663 0.74726 0.04397 0.03800
H 	H 	0.80316 0.65855 0.04252 0.03700
H 	H 	0.83011 0.64126 0.93211 0.03800
H 	H 	0.87481 0.73021 0.93397 0.03900
H 	H 	0.71820 0.57824 0.99374 0.04500
H 	H 	0.67372 0.48952 0.99235 0.03200
H 	H 	0.80516 0.50189 0.97660 0.02900
H 	H 	0.84968 0.59075 0.97824 0.04500
C 	C 	0.95566 0.05310 0.99763 -0.00700
C 	C 	0.95132 0.07462 0.96832 -0.03500
C 	C 	0.92746 0.09704 0.97059 -0.04600
C 	C 	0.90762 0.09803 0.00214 0.00900
C 	C 	0.91260 0.07717 0.03169 -0.04400
C 	C 	0.93657 0.05483 0.02946 -0.03300
C 	C 	0.88037 0.11961 0.00374 0.00800
C 	C 	0.89804 0.16088 0.03083 -0.04300
C 	C 	0.87277 0.18196 0.03174 -0.03700
C 	C 	0.82967 0.16195 0.00554 -0.00200
C 	C 	0.81174 0.12036 0.97872 -0.03900
C 	C 	0.83693 0.09925 0.97786 -0.04400
C 	C 	0.80431 0.18555 0.00523 0.02900
C 	C 	0.82847 0.23329 0.99792 -0.07200
C 	C 	0.80286 0.25377 0.99368 0.01300
C 	C 	0.75266 0.22655 0.99649 -0.10000
C 	C 	0.72916 0.17959 0.00550 0.01700
C 	C 	0.75488 0.15922 0.00982 -0.07000
H 	H 	0.96590 0.07342 0.94362 0.03600
H 	H 	0.92404 0.11331 0.94773 0.03800
H 	H 	0.89739 0.07774 0.05616 0.03900
H 	H 	0.93155 0.17685 0.05093 0.03900
H 	H 	0.88682 0.21399 0.05260 0.03800
H 	H 	0.77862 0.10478 0.95828 0.03500
H 	H 	0.82286 0.06721 0.95699 0.03800
H 	H 	0.86673 0.25403 0.99457 0.04400
H 	H 	0.82178 0.29040 0.98750 0.02700
H 	H 	0.69060 0.15825 0.00804 0.03400
H 	H 	0.73609 0.12254 0.01591 0.04600
C 	C 	0.50304 0.22394 0.97075 -0.09000
C 	C 	0.47330 0.18543 0.98936 0.01100
C 	C 	0.42286 0.16398 0.98576 -0.06800
C 	C 	0.40149 0.18057 0.96337 0.02600
C 	C 	0.43066 0.21763 0.94355 -0.06700
C 	C 	0.48120 0.23919 0.94717 0.01100
C 	C 	0.34926 0.16095 0.96231 -0.00200
C 	C 	0.31176 0.11057 0.95027 -0.03700
C 	C 	0.26287 0.09118 0.95294 -0.04300
C 	C 	0.25108 0.12201 0.96752 0.00700
C 	C 	0.28823 0.17258 0.97841 -0.04300
C 	C 	0.33717 0.19201 0.97585 -0.03700
C 	C 	0.20055 0.10092 0.97357 0.00500
C 	C 	0.18529 0.08016 0.00512 -0.04100
C 	C 	0.13660 0.05787 0.01003 -0.03500
C 	C 	0.10271 0.05601 0.98334 -0.00600
C 	C 	0.11829 0.07779 0.95218 -0.03600
C 	C 	0.16709 0.10021 0.94733 -0.04300
H 	H 	0.48952 0.17316 0.00759 0.03900
H 	H 	0.40061 0.13535 0.00113 0.04700
H 	H 	0.41435 0.23024 0.92581 0.04500
H 	H 	0.50346 0.26823 0.93212 0.03100
H 	H 	0.32067 0.08636 0.93954 0.03700
H 	H 	0.23431 0.05209 0.94435 0.03900
H 	H 	0.27936 0.19663 0.98963 0.03900
H 	H 	0.36585 0.23093 0.98528 0.03700
H 	H 	0.21103 0.08083 0.02560 0.03900
H 	H 	0.09239 0.07650 0.93141 0.03600
H 	H 	0.17868 0.11633 0.92295 0.03900
C 	C 	0.02227 0.97831 0.98696 -0.07500
C 	C 	0.97272 0.95236 0.99108 0.03000
C 	C 	0.95105 0.97701 0.99480 -0.07500
H 	H 	0.03891 0.95919 0.98364 0.04900
H 	H 	0.91266 0.95696 0.99781 0.04900
C 	C 	0.92732 0.95212 0.45613 -0.07400
C 	C 	0.95261 0.93109 0.46021 0.02900
C 	C 	0.00404 0.96020 0.46261 -0.07400
H 	H 	0.88752 0.92964 0.45413 0.04900
H 	H 	0.02365 0.94403 0.46584 0.05000
C 	C 	0.90083 0.86022 0.49146 -0.03600
C 	C 	0.92533 0.87848 0.46181 -0.00400
C 	C 	0.92663 0.84717 0.43506 -0.03600
H 	H 	0.89965 0.88410 0.51226 0.03600
H 	H 	0.94511 0.86082 0.41192 0.03700
H 	H 	0.90308 0.01138 0.50333 0.03600
H 	H 	0.09992 0.03367 0.51926 0.03700
C 	C 	0.94356 0.89930 0.99148 -0.00600
C 	C 	0.90121 0.86577 0.96422 -0.03600
C 	C 	0.95898 0.88203 0.01843 -0.03500
H 	H 	0.88909 0.87874 0.94324 0.03700
H 	H 	0.99149 0.90765 0.03970 0.03700
H 	H 	0.93997 0.03855 0.05231 0.03700
H 	H 	0.12499 0.04145 0.03429 0.03700
