data_crystal

_cell_length_a 31.36739
_cell_length_b 28.52103
_cell_length_c 19.21306
_cell_angle_alpha 92.67280
_cell_angle_beta  85.31969
_cell_angle_gamma 124.33999

_symmetry_space_group_name_	'P 1'
_symmetry_space_group_name_H-M	'P 1'

loop_
_symmetry_equiv_pos_as_xyz
  x,y,z

loop_
_atom_site_label
_atom_site_type_symbol
_atom_site_fract_x
_atom_site_fract_y
_atom_site_fract_z
_atom_site_charge
C 	C 	0.92724 0.81020 0.05499 0.01500
C 	C 	0.93366 0.89917 0.06523 -0.05200
C 	C 	0.90888 0.84229 0.08405 -0.04300
N 	N 	0.00311 0.98296 0.99607 -0.12500
C 	C 	0.91557 0.04818 0.95169 0.01400
C 	C 	0.93358 0.05559 0.01851 -0.04100
C 	C 	0.95140 0.99360 0.91726 -0.07500
C 	C 	0.92386 0.01632 0.90153 -0.02500
C 	C 	0.14363 0.07955 0.09473 0.02000
C 	C 	0.14166 0.09097 0.02534 -0.08600
C 	C 	0.09440 0.06217 0.99452 -0.00800
C 	C 	0.04883 0.02182 0.03277 0.03300
C 	C 	0.05021 0.01515 0.10460 -0.04700
C 	C 	0.09764 0.04314 0.13503 -0.04700
C 	C 	0.84557 0.13468 0.90734 0.01100
C 	C 	0.82195 0.09172 0.95801 -0.05000
C 	C 	0.84402 0.06233 0.97122 -0.01500
C 	C 	0.88970 0.07548 0.93355 -0.00200
C 	C 	0.91187 0.11654 0.88046 -0.03600
C 	C 	0.88958 0.14570 0.86703 -0.04500
C 	C 	0.84208 0.63223 0.09927 0.00900
C 	C 	0.85865 0.65173 0.03031 -0.05700
C 	C 	0.88636 0.70965 0.01592 -0.05400
C 	C 	0.89888 0.74890 0.07059 0.00300
C 	C 	0.88360 0.72942 0.13984 -0.04000
C 	C 	0.85514 0.67131 0.15405 -0.04400
C 	C 	0.29609 0.14422 0.15047 0.00800
C 	C 	0.26532 0.08920 0.12313 -0.04600
C 	C 	0.21411 0.06653 0.10957 -0.03800
C 	C 	0.19364 0.09922 0.12146 -0.00300
C 	C 	0.22381 0.15361 0.15046 -0.03900
C 	C 	0.27505 0.17632 0.16417 -0.04700
H 	H 	0.02821 0.91142 0.95032 0.03700
H 	H 	0.92003 0.92383 0.08942 0.04000
H 	H 	0.87515 0.82303 0.12061 0.03800
H 	H 	0.92702 0.07980 0.05776 0.03300
H 	H 	0.95856 0.97002 0.87780 0.05200
H 	H 	0.90955 0.00981 0.85010 0.03600
H 	H 	0.17706 0.11981 0.99421 0.05900
H 	H 	0.09352 0.06862 0.93970 0.03600
H 	H 	0.01492 0.98693 0.13600 0.04000
H 	H 	0.09884 0.03459 0.18888 0.04200
H 	H 	0.78756 0.08256 0.98879 0.04600
H 	H 	0.82624 0.03015 0.01161 0.02100
H 	H 	0.94697 0.12673 0.85079 0.03700
H 	H 	0.90741 0.17805 0.82686 0.03700
H 	H 	0.84831 0.62173 0.98764 0.05000
H 	H 	0.89718 0.72396 0.96218 0.05000
H 	H 	0.89277 0.75910 0.18240 0.03800
H 	H 	0.84262 0.65679 0.20735 0.03800
H 	H 	0.28152 0.06459 0.11083 0.04000
H 	H 	0.19099 0.02449 0.08695 0.03600
H 	H 	0.20823 0.17910 0.15973 0.03400
H 	H 	0.29890 0.21943 0.18341 0.03500
C 	C 	0.91667 0.83563 0.33100 -0.00700
C 	C 	0.95728 0.86147 0.27875 -0.02600
C 	C 	0.94509 0.92873 0.37823 -0.07200
C 	C 	0.91102 0.86965 0.38094 -0.02500
N 	N 	0.02101 0.01590 0.32131 -0.14200
C 	C 	0.94511 0.10180 0.34065 -0.00700
C 	C 	0.94910 0.07874 0.27629 -0.02600
C 	C 	0.15810 0.09429 0.43185 -0.00700
C 	C 	0.15881 0.11565 0.36712 -0.02600
C 	C 	0.11382 0.08926 0.33089 -0.07000
C 	C 	0.06763 0.04099 0.35858 0.07600
C 	C 	0.06710 0.01939 0.42357 -0.07000
C 	C 	0.11215 0.04593 0.45972 -0.02600
C 	C 	0.86353 0.18093 0.38176 0.00600
C 	C 	0.83646 0.12313 0.36412 -0.04200
C 	C 	0.86335 0.09785 0.34690 -0.04300
C 	C 	0.91748 0.13009 0.34786 0.00900
C 	C 	0.94464 0.18837 0.36284 -0.04400
C 	C 	0.91776 0.21364 0.37992 -0.04200
C 	C 	0.81477 0.65731 0.37102 0.00300
C 	C 	0.79445 0.68938 0.36160 -0.04100
C 	C 	0.82743 0.74662 0.34266 -0.04400
C 	C 	0.88124 0.77288 0.33549 0.00800
C 	C 	0.90121 0.73983 0.34040 -0.04400
C 	C 	0.86804 0.68222 0.35769 -0.04200
C 	C 	0.30235 0.17949 0.52799 0.00400
C 	C 	0.27730 0.12207 0.50917 -0.04200
C 	C 	0.22914 0.09351 0.48044 -0.04500
C 	C 	0.20570 0.12222 0.47004 0.00800
C 	C 	0.22940 0.17873 0.49245 -0.04500
C 	C 	0.27755 0.20725 0.52131 -0.04400
H 	H 	0.96279 0.83579 0.24076 0.03300
H 	H 	0.02306 0.94003 0.23631 0.04700
H 	H 	0.94069 0.95417 0.41786 0.04700
H 	H 	0.88065 0.85024 0.42250 0.03400
H 	H 	0.00714 0.06461 0.43863 0.04800
H 	H 	0.93249 0.08219 0.23113 0.03200
H 	H 	0.19418 0.15282 0.34498 0.03100
H 	H 	0.11458 0.10673 0.28160 0.04800
H 	H 	0.03179 0.98322 0.44697 0.04600
H 	H 	0.11119 0.02925 0.50977 0.03400
H 	H 	0.79457 0.09747 0.36582 0.03900
H 	H 	0.84203 0.05283 0.33536 0.03900
H 	H 	0.93897 0.25826 0.39364 0.03800
H 	H 	0.75355 0.67084 0.37261 0.03500
H 	H 	0.81140 0.77129 0.33713 0.03700
H 	H 	0.94255 0.75930 0.33410 0.03700
H 	H 	0.88409 0.65776 0.36463 0.03600
H 	H 	0.29646 0.10051 0.51314 0.03900
H 	H 	0.21114 0.04988 0.46345 0.03800
H 	H 	0.21128 0.20104 0.48555 0.03800
H 	H 	0.29658 0.25157 0.53566 0.03700
Co	Co	0.70610 0.29211 0.00434 1.17800
O 	O 	0.75990 0.29888 0.92657 -0.37500
Co	Co	0.60567 0.28806 0.08353 1.18400
O 	O 	0.63635 0.27210 0.97677 -0.43200
O 	O 	0.67056 0.35831 0.11177 -0.42500
O 	O 	0.69997 0.21752 0.96345 -0.33200
C 	C 	0.71132 0.39242 0.06940 0.33700
O 	O 	0.60179 0.31893 0.98603 -0.37000
C 	C 	0.51184 0.23061 0.13794 0.30500
C 	C 	0.67657 0.26117 0.13907 0.34200
O 	O 	0.54978 0.27888 0.15959 -0.36900
O 	O 	0.52742 0.21382 0.08436 -0.33500
O 	O 	0.72164 0.28146 0.10672 -0.37400
O 	O 	0.64210 0.24856 0.09547 -0.44500
O 	O 	0.72824 0.37306 0.01726 -0.54500
C 	C 	0.74050 0.24527 0.92101 0.29700
C 	C 	0.62737 0.30434 0.94509 0.31800
H 	H 	0.75717 0.40134 0.98324 0.17900
Co	Co	0.72511 0.34592 0.52811 1.18800
O 	O 	0.78777 0.34423 0.48517 -0.36600
Co	Co	0.61554 0.34133 0.54131 1.18600
O 	O 	0.66102 0.31224 0.47215 -0.46000
O 	O 	0.67523 0.41998 0.55449 -0.41200
O 	O 	0.72300 0.26946 0.53252 -0.34800
C 	C 	0.71716 0.44378 0.51164 0.33600
O 	O 	0.62407 0.34718 0.42947 -0.37500
C 	C 	0.51734 0.28625 0.57395 0.29100
C 	C 	0.67763 0.34170 0.65309 0.33900
O 	O 	0.55113 0.33961 0.58403 -0.36500
O 	O 	0.53959 0.26295 0.54484 -0.34500
O 	O 	0.72547 0.35872 0.63882 -0.36600
O 	O 	0.65024 0.31584 0.60015 -0.45800
O 	O 	0.74827 0.42575 0.50795 -0.51100
C 	C 	0.76885 0.29263 0.50273 0.28800
C 	C 	0.65640 0.33264 0.41680 0.33200
H 	H 	0.78520 0.45188 0.48771 0.18500
C 	C 	0.65443 0.32624 0.72459 -0.11600
C 	C 	0.64631 0.36295 0.76563 0.17400
C 	C 	0.63269 0.35248 0.83707 -0.05700
C 	C 	0.62834 0.30632 0.86824 -0.11000
C 	C 	0.62983 0.26562 0.82528 0.17100
C 	C 	0.64431 0.27664 0.75410 -0.04100
H 	H 	0.62724 0.38135 0.86872 0.06400
H 	H 	0.64789 0.24671 0.72171 0.07000
Cl	Cl	0.65387 0.42269 0.72849 -0.36900
Cl	Cl	0.60738 0.19804 0.85740 -0.33800
C 	C 	0.67189 0.27705 0.21190 -0.12400
C 	C 	0.62487 0.24489 0.25277 0.17100
C 	C 	0.62007 0.26371 0.31960 -0.03700
C 	C 	0.66248 0.31302 0.34731 -0.11500
C 	C 	0.71025 0.34328 0.30810 0.17400
C 	C 	0.71461 0.32571 0.24046 -0.03900
H 	H 	0.58354 0.23955 0.35044 0.07300
H 	H 	0.75111 0.35041 0.20972 0.06900
Cl	Cl	0.57292 0.17910 0.22305 -0.33900
Cl	Cl	0.76516 0.40312 0.34301 -0.38600
C 	C 	0.78256 0.60216 0.40774 0.00700
C 	C 	0.75251 0.55029 0.37106 0.00700
C 	C 	0.73037 0.49880 0.40664 -0.00100
C 	C 	0.73527 0.49815 0.47834 -0.12400
C 	C 	0.76074 0.54973 0.51621 0.08900
C 	C 	0.78509 0.60132 0.48020 -0.09000
H 	H 	0.70937 0.45907 0.37826 0.05000
H 	H 	0.80701 0.64107 0.50846 0.05200
C 	C 	0.74327 0.54877 0.29432 -0.09700
C 	C 	0.76333 0.55056 0.59474 -0.13800
C 	C 	0.68614 0.52267 0.28236 -0.02200
H 	H 	0.66095 0.47984 0.30646 0.03600
H 	H 	0.68124 0.51715 0.22528 0.03000
C 	C 	0.81096 0.55286 0.61422 0.00000
H 	H 	0.84672 0.59256 0.59339 0.02400
H 	H 	0.81050 0.51622 0.59100 0.03200
H 	H 	0.76716 0.59114 0.26945 0.05000
H 	H 	0.72755 0.51319 0.61933 0.09500
C 	C 	0.66802 0.55999 0.31082 -0.15600
C 	C 	0.81244 0.55136 0.69330 -0.17100
H 	H 	0.69163 0.60232 0.28531 0.05600
H 	H 	0.62697 0.53969 0.29961 0.05400
H 	H 	0.67088 0.56519 0.36825 0.06100
H 	H 	0.75483 0.52229 0.26605 0.05800
H 	H 	0.81350 0.58789 0.71829 0.06400
H 	H 	0.84766 0.55391 0.70565 0.06200
H 	H 	0.77793 0.51112 0.71517 0.08200
H 	H 	0.76525 0.58837 0.61709 0.06100
C 	C 	0.78857 0.25957 0.47134 -0.09600
C 	C 	0.79671 0.22591 0.51311 0.07600
C 	C 	0.81953 0.19890 0.48198 -0.08200
C 	C 	0.83505 0.20552 0.41062 0.00500
C 	C 	0.82605 0.23819 0.36861 0.00700
C 	C 	0.80228 0.26434 0.39935 -0.00800
H 	H 	0.82653 0.17383 0.51394 0.05000
H 	H 	0.79480 0.28888 0.36714 0.05000
C 	C 	0.78360 0.22025 0.59153 -0.12700
C 	C 	0.83945 0.24352 0.29048 -0.09500
C 	C 	0.83143 0.25972 0.63311 -0.01000
H 	H 	0.86293 0.25399 0.61582 0.02700
H 	H 	0.82087 0.24768 0.68917 0.02600
C 	C 	0.79420 0.19512 0.25128 -0.02500
H 	H 	0.75941 0.19618 0.26263 0.04200
H 	H 	0.78478 0.15353 0.26893 0.03400
H 	H 	0.75271 0.22692 0.60797 0.07100
H 	H 	0.87487 0.24405 0.27730 0.04800
C 	C 	0.85147 0.32224 0.62656 -0.16400
C 	C 	0.80714 0.20008 0.17245 -0.15600
H 	H 	0.82014 0.32862 0.64176 0.06800
H 	H 	0.88333 0.34808 0.66179 0.06100
H 	H 	0.86689 0.33735 0.57225 0.06800
H 	H 	0.76736 0.17576 0.60686 0.05300
H 	H 	0.81555 0.24074 0.15293 0.06100
H 	H 	0.77368 0.16452 0.14569 0.06100
H 	H 	0.84119 0.19796 0.15939 0.05400
H 	H 	0.84860 0.28487 0.27210 0.05000
C 	C 	0.46314 0.26404 0.56284 -0.09800
C 	C 	0.44755 0.26505 0.49591 0.07800
C 	C 	0.39500 0.24013 0.48699 -0.08400
C 	C 	0.35768 0.21280 0.54253 0.00600
C 	C 	0.37346 0.21500 0.61018 0.00600
C 	C 	0.42616 0.24023 0.61953 -0.00900
H 	H 	0.38309 0.24133 0.43620 0.04700
H 	H 	0.43828 0.24061 0.67096 0.03700
C 	C 	0.48608 0.29185 0.43296 -0.12400
C 	C 	0.33468 0.19050 0.67278 -0.09500
C 	C 	0.49603 0.34882 0.41233 -0.01000
H 	H 	0.45880 0.34434 0.40764 0.02600
H 	H 	0.51739 0.36129 0.36014 0.03100
C 	C 	0.31852 0.13014 0.68875 -0.02400
H 	H 	0.35308 0.13087 0.70017 0.03600
H 	H 	0.30112 0.10219 0.64287 0.03400
H 	H 	0.52336 0.29745 0.43974 0.06900
H 	H 	0.30000 0.19046 0.66458 0.05000
C 	C 	0.52816 0.39633 0.46395 -0.16200
C 	C 	0.27914 0.10497 0.75148 -0.15800
H 	H 	0.56603 0.40225 0.46815 0.06400
H 	H 	0.53554 0.43670 0.44522 0.05900
H 	H 	0.50709 0.38662 0.51621 0.07500
H 	H 	0.46988 0.26229 0.38794 0.05900
H 	H 	0.29582 0.13141 0.79871 0.06000
H 	H 	0.26843 0.06148 0.76177 0.06000
H 	H 	0.24359 0.10241 0.74087 0.05900
H 	H 	0.35241 0.21807 0.71901 0.04800
C 	C 	0.74253 0.45363 0.08606 -0.13100
C 	C 	0.72349 0.48771 0.07806 0.08400
C 	C 	0.75400 0.54536 0.09594 -0.09200
C 	C 	0.80529 0.57092 0.11233 0.00400
C 	C 	0.82314 0.53653 0.12497 -0.00300
C 	C 	0.79111 0.47781 0.11263 0.00000
H 	H 	0.73975 0.57169 0.08937 0.04800
H 	H 	0.80429 0.45104 0.12288 0.03100
C 	C 	0.67434 0.46552 0.04164 -0.14300
C 	C 	0.87444 0.56119 0.15653 -0.08900
C 	C 	0.68556 0.48982 0.96745 0.00700
H 	H 	0.70191 0.53598 0.97030 0.02900
H 	H 	0.64836 0.46882 0.94205 0.03100
C 	C 	0.86774 0.56115 0.23655 -0.03100
H 	H 	0.83981 0.51697 0.25574 0.05400
H 	H 	0.85223 0.58672 0.25388 0.03500
H 	H 	0.64932 0.41863 0.03922 0.05400
H 	H 	0.90371 0.60500 0.13728 0.04600
C 	C 	0.72277 0.48094 0.92177 -0.17000
C 	C 	0.91901 0.58605 0.26954 -0.15300
H 	H 	0.71074 0.43627 0.92458 0.06900
H 	H 	0.72291 0.49110 0.86663 0.07400
H 	H 	0.76278 0.50940 0.93879 0.06600
H 	H 	0.65089 0.47819 0.07275 0.05100
H 	H 	0.93541 0.56100 0.25399 0.05900
H 	H 	0.91252 0.58478 0.32731 0.06000
H 	H 	0.94710 0.63093 0.25310 0.05500
H 	H 	0.89013 0.53555 0.13983 0.04400
C 	C 	0.77414 0.22498 0.90585 -0.10400
C 	C 	0.76156 0.18126 0.85651 0.07800
C 	C 	0.78903 0.15569 0.85328 -0.08600
C 	C 	0.82654 0.17101 0.90071 0.00900
C 	C 	0.84137 0.21720 0.94671 -0.00300
C 	C 	0.81574 0.24457 0.94759 -0.00100
H 	H 	0.77972 0.12220 0.81566 0.05000
H 	H 	0.82648 0.27945 0.98357 0.03800
C 	C 	0.71948 0.16186 0.80639 -0.12800
C 	C 	0.88572 0.23904 0.99337 -0.06000
C 	C 	0.67351 0.09989 0.81872 0.00200
H 	H 	0.68662 0.07094 0.81086 0.02500
H 	H 	0.64513 0.08839 0.77917 0.03500
C 	C 	0.93751 0.28319 0.95496 -0.01300
H 	H 	0.93709 0.32024 0.94054 0.03100
H 	H 	0.94366 0.26462 0.90624 0.03100
H 	H 	0.70498 0.18956 0.80787 0.07500
H 	H 	0.88706 0.20379 0.01254 0.03100
C 	C 	0.64603 0.08995 0.89134 -0.17800
H 	H 	0.63169 0.11762 0.89987 0.11000
H 	H 	0.61238 0.04504 0.89594 0.07500
H 	H 	0.67245 0.09834 0.93245 0.08400
H 	H 	0.73653 0.16527 0.75231 0.05300
H 	H 	0.01947 0.33599 0.97137 0.07200
H 	H 	0.87967 0.25904 0.04081 0.02700
C 	C 	0.35219 0.17128 0.15435 0.00400
C 	C 	0.37157 0.15284 0.20277 0.00900
C 	C 	0.42463 0.17491 0.19849 -0.00900
C 	C 	0.45826 0.21461 0.14696 -0.09900
C 	C 	0.43942 0.23597 0.10191 0.07500
C 	C 	0.38644 0.21366 0.10584 -0.08400
H 	H 	0.43961 0.16039 0.23473 0.04700
H 	H 	0.37159 0.22836 0.06964 0.04600
C 	C 	0.33678 0.11171 0.26121 -0.09800
C 	C 	0.47487 0.28180 0.04835 -0.13100
C 	C 	0.33775 0.14261 0.32926 -0.02000
H 	H 	0.37834 0.17369 0.34296 0.03200
H 	H 	0.31778 0.11078 0.37194 0.03000
C 	C 	0.47320 0.25606 0.97572 0.00000
H 	H 	0.43247 0.22384 0.96341 0.03500
H 	H 	0.49373 0.23457 0.97484 0.05700
H 	H 	0.29629 0.08186 0.24688 0.05100
H 	H 	0.51537 0.30865 0.06381 0.05400
C 	C 	0.31053 0.17292 0.32492 -0.16100
C 	C 	0.49841 0.30148 0.91879 -0.16700
H 	H 	0.27101 0.14327 0.30682 0.06400
H 	H 	0.30682 0.18892 0.37702 0.06200
H 	H 	0.33348 0.20997 0.28937 0.06100
H 	H 	0.35043 0.08435 0.27150 0.05100
H 	H 	0.47437 0.31815 0.91244 0.06500
H 	H 	0.50177 0.28273 0.86838 0.07500
H 	H 	0.53765 0.33725 0.93208 0.08000
H 	H 	0.46210 0.31099 0.04588 0.04900
C 	C 	0.97113 0.83596 0.00791 -0.08500
C 	C 	0.97618 0.92405 0.01545 0.03300
C 	C 	0.96094 0.03267 0.03437 -0.08700
C 	C 	0.97094 0.00249 0.98313 0.09900
H 	H 	0.98654 0.81217 0.98660 0.05800
C 	C 	0.96676 0.09706 0.39875 -0.02500
C 	C 	0.97456 0.05107 0.27013 -0.07000
H 	H 	0.96345 0.11431 0.44878 0.03400
H 	H 	0.97731 0.03319 0.22039 0.04700
H 	H 	0.97810 0.32349 0.04914 0.05900
H 	H 	0.97440 0.03845 0.08614 0.04900
C 	C 	0.98560 0.95470 0.32553 0.07500
H 	H 	0.98643 0.21367 0.36338 0.03800
C 	C 	0.98269 0.30378 0.00039 -0.19100
H 	H 	0.98487 0.26776 0.01394 0.05900
C 	C 	0.99479 0.89217 0.98739 -0.00800
C 	C 	0.99152 0.92064 0.27617 -0.07000
C 	C 	0.99198 0.06927 0.39281 -0.07200
C 	C 	0.99605 0.04600 0.32823 0.07700
