data_crystal

_cell_length_a 15.56951
_cell_length_b 15.89738
_cell_length_c 36.92427
_cell_angle_alpha 95.41181
_cell_angle_beta  95.41771
_cell_angle_gamma 127.25976

_symmetry_space_group_name_	'P 1'
_symmetry_space_group_name_H-M	'P 1'

loop_
_symmetry_equiv_pos_as_xyz
  x,y,z

loop_
_atom_site_label
_atom_site_type_symbol
_atom_site_fract_x
_atom_site_fract_y
_atom_site_fract_z
_atom_site_charge
N 	N 	0.00045 0.91125 0.97698 -0.11700
N 	N 	0.99678 0.05526 0.97313 -0.14300
N 	N 	0.02848 0.94369 0.49121 -0.11300
C 	C 	0.88682 0.98984 0.97145 0.13300
C 	C 	0.05335 0.01642 0.97618 0.11300
C 	C 	0.89040 0.84359 0.97487 0.10600
N 	N 	0.83209 0.88256 0.97232 -0.12900
N 	N 	0.05352 0.10624 0.49805 -0.12100
C 	C 	0.09543 0.05191 0.49450 0.10300
C 	C 	0.92057 0.88905 0.49190 0.10500
N 	N 	0.87868 0.94223 0.49591 -0.12100
Cu	Cu	0.76002 0.33506 0.96250 0.92400
Cu	Cu	0.72063 0.22874 0.03742 0.86700
Cu	Cu	0.59503 0.29772 0.00947 0.89600
Cu	Cu	0.55253 0.32039 0.93046 0.90400
C 	C 	0.68962 0.30648 0.88405 0.30800
O 	O 	0.81676 0.49383 0.96397 -0.34500
C 	C 	0.64847 0.30763 0.08973 0.29800
O 	O 	0.58981 0.24928 0.95805 -0.63000
O 	O 	0.74716 0.34609 0.01501 -0.64700
O 	O 	0.82191 0.25310 0.96556 -0.35500
O 	O 	0.68694 0.13155 0.99433 -0.43300
O 	O 	0.64702 0.35425 0.89281 -0.38400
O 	O 	0.45047 0.26206 0.00263 -0.38000
C 	C 	0.37605 0.20786 0.97190 0.30900
C 	C 	0.75944 0.52701 0.97338 0.28000
O 	O 	0.65565 0.45633 0.97523 -0.39000
O 	O 	0.40177 0.23037 0.93939 -0.38700
O 	O 	0.74857 0.29959 0.90983 -0.36000
C 	C 	0.76367 0.15734 0.97523 0.28800
O 	O 	0.60004 0.32488 0.06330 -0.37300
O 	O 	0.72244 0.29487 0.08381 -0.41900
H 	H 	0.54178 0.17001 0.95018 0.16300
H 	H 	0.80197 0.41872 0.03057 0.17400
Cu	Cu	0.61296 0.19343 0.51004 0.92700
Cu	Cu	0.69731 0.20636 0.43122 0.87000
Cu	Cu	0.66343 0.35767 0.46197 0.89800
Cu	Cu	0.63490 0.39935 0.53892 0.90000
C 	C 	0.65259 0.27090 0.58826 0.30700
O 	O 	0.45554 0.13986 0.51135 -0.35300
C 	C 	0.62885 0.28898 0.38069 0.30200
O 	O 	0.70782 0.36032 0.51305 -0.63700
O 	O 	0.59295 0.20219 0.45730 -0.64200
O 	O 	0.68519 0.12376 0.50562 -0.36600
O 	O 	0.80369 0.24422 0.47259 -0.43900
O 	O 	0.60766 0.31655 0.57959 -0.38200
O 	O 	0.74252 0.51087 0.46821 -0.38300
C 	C 	0.74348 0.57298 0.49489 0.31200
C 	C 	0.42023 0.19217 0.49965 0.29000
O 	O 	0.49098 0.29244 0.49598 -0.39600
O 	O 	0.71719 0.54472 0.52697 -0.39000
O 	O 	0.65575 0.20986 0.56251 -0.35900
C 	C 	0.77949 0.17464 0.49405 0.30100
O 	O 	0.63480 0.35356 0.40810 -0.37400
O 	O 	0.62537 0.20661 0.38652 -0.41900
H 	H 	0.78831 0.40573 0.52182 0.17100
H 	H 	0.51614 0.15423 0.44342 0.17700
C 	C 	0.69618 0.25537 0.69780 -0.00100
C 	C 	0.79065 0.34261 0.72273 -0.03300
C 	C 	0.79530 0.34680 0.76099 -0.03200
C 	C 	0.70548 0.26378 0.77452 -0.00200
C 	C 	0.61376 0.17359 0.74957 -0.03300
C 	C 	0.60912 0.16940 0.71131 -0.03200
C 	C 	0.70113 0.27780 0.81338 0.04600
C 	C 	0.69731 0.28935 0.84587 -0.09900
C 	C 	0.68264 0.26054 0.65900 0.04600
C 	C 	0.67061 0.26421 0.62651 -0.09700
H 	H 	0.85860 0.40915 0.71255 0.04300
H 	H 	0.86678 0.41658 0.78005 0.04500
H 	H 	0.54418 0.10881 0.75974 0.04200
H 	H 	0.53603 0.10137 0.69227 0.04500
C 	C 	0.60339 0.32521 0.27286 -0.00400
C 	C 	0.69012 0.41776 0.26178 -0.03400
C 	C 	0.69237 0.42024 0.22403 -0.03400
C 	C 	0.60791 0.33018 0.19718 -0.00300
C 	C 	0.51780 0.24036 0.20826 -0.03500
C 	C 	0.51555 0.23787 0.24599 -0.03400
C 	C 	0.62130 0.32377 0.15906 0.04200
C 	C 	0.63211 0.31800 0.12714 -0.10200
C 	C 	0.61179 0.31408 0.31117 0.04300
C 	C 	0.61826 0.30418 0.34316 -0.10400
H 	H 	0.75804 0.48593 0.28233 0.04100
H 	H 	0.76205 0.49028 0.21575 0.04200
H 	H 	0.45185 0.17061 0.18772 0.04000
H 	H 	0.44785 0.16626 0.25428 0.04100
C 	C 	0.80101 0.68309 0.49276 -0.08500
C 	C 	0.85362 0.77691 0.49190 0.03200
C 	C 	0.84382 0.13760 0.49779 -0.09800
C 	C 	0.89475 0.10297 0.49898 0.02700
C 	C 	0.21120 0.10801 0.49612 0.02600
C 	C 	0.30665 0.14684 0.49754 -0.08200
C 	C 	0.80287 0.63805 0.97402 -0.07300
C 	C 	0.83708 0.73029 0.97436 0.02200
C 	C 	0.83146 0.03776 0.97107 0.00300
C 	C 	0.79861 0.09057 0.97195 -0.08000
C 	C 	0.16755 0.08459 0.97568 0.02900
C 	C 	0.26329 0.14132 0.97445 -0.08600
C 	C 	0.94421 0.05040 0.49869 0.08900
