data_crystal

_cell_length_a 36.33763
_cell_length_b 36.45321
_cell_length_c 25.70847
_cell_angle_alpha 90.00336
_cell_angle_beta  89.99997
_cell_angle_gamma 120.00433

_symmetry_space_group_name_	'P 1'
_symmetry_space_group_name_H-M	'P 1'

loop_
_symmetry_equiv_pos_as_xyz
  x,y,z

loop_
_atom_site_label
_atom_site_type_symbol
_atom_site_fract_x
_atom_site_fract_y
_atom_site_fract_z
_atom_site_charge
C 	C 	0.55719 0.42709 0.74008 0.40600
C 	C 	0.72068 0.56944 0.67343 0.41600
C 	C 	0.61113 0.53474 0.78751 0.41600
C 	C 	0.66936 0.46815 0.61053 0.39700
C 	C 	0.61506 0.59227 0.63541 0.42100
C 	C 	0.54837 0.48310 0.57806 0.39900
Ni	Ni	0.64714 0.49386 0.71734 1.13600
Ni	Ni	0.64306 0.53293 0.60569 1.14100
Ni	Ni	0.56899 0.50847 0.68766 1.14400
O 	O 	0.59507 0.43381 0.72551 -0.31900
O 	O 	0.54684 0.45758 0.73811 -0.31400
O 	O 	0.64836 0.58777 0.62897 -0.33200
O 	O 	0.69483 0.55632 0.71312 -0.31800
O 	O 	0.70549 0.55777 0.62609 -0.31200
O 	O 	0.53594 0.47243 0.62711 -0.31400
O 	O 	0.62546 0.50804 0.78573 -0.29400
O 	O 	0.60452 0.54915 0.74416 -0.32400
O 	O 	0.58758 0.51419 0.56586 -0.30500
O 	O 	0.67748 0.47549 0.66149 -0.29900
O 	O 	0.64647 0.48137 0.58454 -0.31300
O 	O 	0.57762 0.55929 0.64597 -0.31400
O 	O 	0.61484 0.50130 0.66603 -0.72800
H 	H 	0.59909 0.47251 0.65126 0.19200
C 	C 	0.40131 0.52144 0.23644 0.40400
C 	C 	0.23846 0.37819 0.16966 0.41700
C 	C 	0.34322 0.41600 0.29110 0.41100
C 	C 	0.29255 0.47427 0.09873 0.40600
C 	C 	0.34363 0.35106 0.14676 0.42200
C 	C 	0.41270 0.45867 0.08347 0.39900
Ni	Ni	0.31152 0.45516 0.21166 1.13400
Ni	Ni	0.31802 0.40952 0.10658 1.14300
Ni	Ni	0.38928 0.43716 0.19334 1.14000
O 	O 	0.36439 0.51493 0.21808 -0.31000
O 	O 	0.41068 0.49033 0.23949 -0.31700
O 	O 	0.31092 0.35596 0.13729 -0.33000
O 	O 	0.26308 0.39296 0.21029 -0.32600
O 	O 	0.25507 0.38683 0.12269 -0.30400
O 	O 	0.42509 0.46998 0.13240 -0.32000
O 	O 	0.33024 0.44350 0.28415 -0.29600
O 	O 	0.35128 0.39958 0.25059 -0.32600
O 	O 	0.37473 0.42540 0.07198 -0.31300
O 	O 	0.28391 0.47172 0.14980 -0.29800
O 	O 	0.31742 0.46089 0.07873 -0.31900
O 	O 	0.38099 0.38405 0.15768 -0.31300
O 	O 	0.34476 0.44407 0.16562 -0.72600
H 	H 	0.36160 0.47205 0.14906 0.19000
C 	C 	0.51607 0.09618 0.05798 0.39700
C 	C 	0.36103 0.10519 0.02668 0.37900
C 	C 	0.41427 0.03178 0.11521 0.42000
C 	C 	0.46072 0.16832 0.95499 0.43100
C 	C 	0.34576 0.98720 0.96503 0.41200
C 	C 	0.45165 0.04156 0.89572 0.39900
Ni	Ni	0.44317 0.11298 0.05489 1.13000
Ni	Ni	0.39874 0.07702 0.94323 1.14500
Ni	Ni	0.43343 0.02627 0.00746 1.13800
O 	O 	0.50539 0.12588 0.05236 -0.32000
O 	O 	0.48793 0.05481 0.05224 -0.30700
O 	O 	0.34795 0.02404 0.96843 -0.32000
O 	O 	0.37902 0.09226 0.06029 -0.31400
O 	O 	0.37239 0.10915 0.97746 -0.27900
O 	O 	0.46609 0.03681 0.94119 -0.31100
O 	O 	0.43692 0.07332 0.11745 -0.30100
O 	O 	0.39682 0.01358 0.07120 -0.33300
O 	O 	0.41740 0.04619 0.89210 -0.30800
O 	O 	0.45360 0.16428 0.00637 -0.33100
O 	O 	0.44678 0.13497 0.92365 -0.32400
O 	O 	0.38056 0.98454 0.96793 -0.29800
O 	O 	0.43546 0.07870 0.99686 -0.71500
H 	H 	0.46325 0.09479 0.97944 0.19800
C 	C 	0.44098 0.84874 0.55898 0.40600
C 	C 	0.59648 0.84147 0.52528 0.41000
C 	C 	0.54283 0.91421 0.61569 0.42100
C 	C 	0.49686 0.77854 0.45459 0.41000
C 	C 	0.61049 0.96000 0.46509 0.41300
C 	C 	0.50409 0.90462 0.39662 0.40300
Ni	Ni	0.51473 0.83339 0.55488 1.13600
Ni	Ni	0.55815 0.86997 0.44271 1.14100
Ni	Ni	0.52289 0.91963 0.50840 1.15000
O 	O 	0.45219 0.81953 0.55272 -0.31900
O 	O 	0.46867 0.89023 0.55362 -0.30500
O 	O 	0.60906 0.92340 0.46655 -0.32900
O 	O 	0.57909 0.85503 0.55886 -0.31000
O 	O 	0.58557 0.83836 0.47592 -0.30000
O 	O 	0.48981 0.90902 0.44243 -0.31600
O 	O 	0.52087 0.87264 0.61796 -0.29000
O 	O 	0.55999 0.93249 0.57166 -0.32900
O 	O 	0.53852 0.90039 0.39235 -0.31400
O 	O 	0.50474 0.78258 0.50579 -0.31200
O 	O 	0.51032 0.81188 0.42337 -0.32700
O 	O 	0.57532 0.96196 0.46888 -0.30500
O 	O 	0.52175 0.86775 0.49715 -0.72800
H 	H 	0.49388 0.85148 0.47998 0.19300
C 	C 	0.12543 0.56422 0.87931 0.39800
C 	C 	0.11145 0.71559 0.84373 0.40800
C 	C 	0.05578 0.59565 0.94273 0.40100
C 	C 	0.17853 0.68455 0.76849 0.40800
C 	C 	0.99601 0.60167 0.79291 0.42900
C 	C 	0.05007 0.55577 0.72394 0.40400
Ni	Ni	0.13105 0.64927 0.87346 1.13500
Ni	Ni	0.08501 0.64650 0.76494 1.14700
Ni	Ni	0.04604 0.56437 0.83669 1.14000
O 	O 	0.15130 0.60543 0.87175 -0.30500
O 	O 	0.08300 0.54681 0.87933 -0.30400
O 	O 	0.03084 0.63849 0.79481 -0.33500
O 	O 	0.10406 0.68725 0.87942 -0.31700
O 	O 	0.11360 0.70655 0.79466 -0.30000
O 	O 	0.05551 0.54237 0.76973 -0.32700
O 	O 	0.09745 0.61677 0.93998 -0.29100
O 	O 	0.03323 0.58821 0.90043 -0.32200
O 	O 	0.05553 0.59466 0.71702 -0.30500
O 	O 	0.17664 0.69090 0.81943 -0.30900
O 	O 	0.14376 0.66199 0.74004 -0.31700
O 	O 	0.99719 0.56657 0.80119 -0.31500
O 	O 	0.09438 0.61705 0.81951 -0.72800
H 	H 	0.11172 0.60724 0.80119 0.19400
C 	C 	0.82852 0.36757 0.38871 0.40000
C 	C 	0.85080 0.22394 0.33714 0.40000
C 	C 	0.90408 0.34355 0.43906 0.41800
C 	C 	0.77853 0.24926 0.26881 0.40500
C 	C 	0.96161 0.34323 0.28588 0.41900
C 	C 	0.90068 0.38455 0.22376 0.39300
Ni	Ni	0.82794 0.28615 0.37303 1.13700
Ni	Ni	0.87220 0.29398 0.26101 1.14900
Ni	Ni	0.90832 0.37468 0.33501 1.15500
O 	O 	0.80461 0.32737 0.37501 -0.31100
O 	O 	0.87079 0.38908 0.38172 -0.29800
O 	O 	0.92845 0.30521 0.28742 -0.33600
O 	O 	0.85930 0.25219 0.37321 -0.31700
O 	O 	0.84803 0.23349 0.28847 -0.29200
O 	O 	0.89365 0.39504 0.27048 -0.31100
O 	O 	0.86262 0.31878 0.43943 -0.28700
O 	O 	0.92449 0.35051 0.39528 -0.32400
O 	O 	0.89725 0.34677 0.21413 -0.29900
O 	O 	0.78176 0.24364 0.31977 -0.31000
O 	O 	0.81192 0.27516 0.24000 -0.31300
O 	O 	0.95773 0.37665 0.29550 -0.30900
O 	O 	0.86173 0.32059 0.31827 -0.72400
H 	H 	0.84236 0.32880 0.30195 0.19100
C 	C 	0.97484 0.44370 0.51432 0.24700
C 	C 	0.96590 0.42923 0.56577 0.01100
C 	C 	0.93662 0.38641 0.57589 0.24900
C 	C 	0.91634 0.35825 0.53460 0.34000
C 	C 	0.92525 0.37281 0.48296 -0.19300
C 	C 	0.95448 0.41585 0.47315 0.33000
C 	C 	0.98588 0.45950 0.60893 0.01200
F 	F 	0.92769 0.37219 0.62566 -0.29700
F 	F 	0.96236 0.43091 0.42367 -0.36700
C 	C 	0.96954 0.48558 0.62390 0.24600
C 	C 	0.99121 0.51786 0.66032 0.33200
C 	C 	0.02941 0.52426 0.68230 -0.18600
C 	C 	0.04548 0.49778 0.66783 0.33200
C 	C 	0.02384 0.46559 0.63115 0.24800
F 	F 	0.93283 0.47988 0.60264 -0.30300
F 	F 	0.08226 0.50353 0.68892 -0.32500
F 	F 	0.97454 0.54226 0.67525 -0.34200
F 	F 	0.04010 0.44078 0.61652 -0.29900
F 	F 	0.00293 0.48508 0.50427 -0.30400
F 	F 	0.88846 0.31684 0.54473 -0.31400
C 	C 	0.93265 0.44005 0.09336 0.24700
C 	C 	0.96265 0.48147 0.10857 0.01300
C 	C 	0.97054 0.49143 0.16153 0.24800
C 	C 	0.95001 0.45995 0.19907 0.32700
C 	C 	0.92036 0.41819 0.18403 -0.18000
C 	C 	0.91137 0.40857 0.13095 0.32900
C 	C 	0.98767 0.51381 0.06908 -0.00600
F 	F 	0.99902 0.53153 0.17656 -0.29900
F 	F 	0.88205 0.36879 0.11582 -0.32800
C 	C 	0.96876 0.53226 0.03943 0.26800
C 	C 	0.99212 0.56177 0.00068 0.27300
C 	C 	0.03459 0.57286 0.99102 -0.12700
C 	C 	0.05435 0.55675 0.02361 0.29800
C 	C 	0.03076 0.52681 0.06177 0.26500
F 	F 	0.92762 0.52128 0.04787 -0.30700
F 	F 	0.09607 0.56914 0.01735 -0.33200
F 	F 	0.97336 0.57920 0.97202 -0.29700
F 	F 	0.04958 0.50982 0.09112 -0.30000
F 	F 	0.92470 0.43018 0.04213 -0.30600
F 	F 	0.96017 0.46966 0.24999 -0.33500
C 	C 	0.36532 0.81982 0.67026 0.24600
C 	C 	0.32682 0.79104 0.64616 0.00900
C 	C 	0.32499 0.78721 0.59167 0.25000
C 	C 	0.36213 0.80916 0.56207 0.33200
C 	C 	0.40105 0.83595 0.58658 -0.18700
C 	C 	0.40203 0.84281 0.64045 0.33200
C 	C 	0.28905 0.76359 0.67815 0.00900
F 	F 	0.28750 0.76124 0.56765 -0.29600
F 	F 	0.43929 0.86949 0.66440 -0.35400
C 	C 	0.27124 0.78166 0.71053 0.24900
C 	C 	0.23692 0.75590 0.74275 0.33500
C 	C 	0.21862 0.71165 0.74098 -0.18800
C 	C 	0.23634 0.69350 0.70866 0.33200
C 	C 	0.27187 0.71939 0.67801 0.24700
F 	F 	0.28711 0.82421 0.71051 -0.28900
F 	F 	0.21923 0.65079 0.70712 -0.32500
F 	F 	0.22087 0.77388 0.77500 -0.33300
F 	F 	0.28976 0.70162 0.64836 -0.30200
F 	F 	0.36754 0.82403 0.72283 -0.29600
F 	F 	0.36063 0.80306 0.50983 -0.31900
C 	C 	0.72774 0.03306 0.44091 0.25000
C 	C 	0.72735 0.06537 0.41172 0.00600
C 	C 	0.68885 0.06483 0.40361 0.24600
C 	C 	0.65077 0.03126 0.42243 0.33400
C 	C 	0.65093 0.99833 0.45092 -0.18600
C 	C 	0.68992 0.00025 0.46144 0.32800
C 	C 	0.76735 0.10058 0.39093 0.00500
F 	F 	0.68837 0.09682 0.37710 -0.31400
F 	F 	0.69112 0.97019 0.49143 -0.33000
C 	C 	0.77265 0.10754 0.33703 0.24800
C 	C 	0.80459 0.14649 0.31789 0.32200
C 	C 	0.83110 0.17883 0.35279 -0.18100
C 	C 	0.83070 0.16855 0.40570 0.31900
C 	C 	0.79804 0.13015 0.42497 0.24600
F 	F 	0.74545 0.07742 0.30342 -0.30100
F 	F 	0.86038 0.19685 0.43892 -0.32300
F 	F 	0.80881 0.15319 0.26576 -0.31100
F 	F 	0.79473 0.12276 0.47700 -0.29800
F 	F 	0.76480 0.03335 0.44913 -0.29500
F 	F 	0.61366 0.03021 0.41172 -0.31700
C 	C 	0.42861 0.91376 0.30416 0.25100
C 	C 	0.45706 0.94756 0.27266 0.01100
C 	C 	0.50097 0.96400 0.27826 0.24900
C 	C 	0.51644 0.94799 0.31661 0.33200
C 	C 	0.48804 0.91532 0.34975 -0.18100
C 	C 	0.44402 0.89764 0.34251 0.32800
C 	C 	0.44095 0.96579 0.23369 0.01600
F 	F 	0.52867 0.99620 0.24728 -0.28700
F 	F 	0.41623 0.86548 0.37348 -0.32200
C 	C 	0.43470 0.99961 0.24716 0.25100
C 	C 	0.42352 0.01969 0.20896 0.34100
C 	C 	0.41890 0.00632 0.15685 -0.18300
C 	C 	0.42341 0.97113 0.14399 0.33500
C 	C 	0.43432 0.95104 0.18230 0.25300
F 	F 	0.44034 0.01358 0.29707 -0.30000
F 	F 	0.41932 0.95772 0.09394 -0.36400
F 	F 	0.41776 0.05248 0.22246 -0.32200
F 	F 	0.43979 0.91801 0.16914 -0.30400
F 	F 	0.38606 0.89701 0.29816 -0.30000
F 	F 	0.55905 0.96567 0.32332 -0.32300
C 	C 	0.45385 0.97997 0.77935 0.25000
C 	C 	0.49778 0.99749 0.77221 0.00800
C 	C 	0.52628 0.03274 0.80174 0.25300
C 	C 	0.51100 0.04927 0.83972 0.32800
C 	C 	0.46707 0.03061 0.84853 -0.17800
C 	C 	0.43852 0.99646 0.81730 0.32800
C 	C 	0.51384 0.97928 0.73315 0.01600
F 	F 	0.56880 0.05054 0.79416 -0.29800
F 	F 	0.39601 0.97779 0.82567 -0.33100
C 	C 	0.51810 0.99232 0.68116 0.24800
C 	C 	0.52950 0.97247 0.64310 0.33300
C 	C 	0.53697 0.93927 0.65678 -0.18300
C 	C 	0.53447 0.92750 0.70932 0.34800
C 	C 	0.52278 0.94733 0.74731 0.25300
F 	F 	0.50997 0.02352 0.66728 -0.30400
F 	F 	0.54270 0.89642 0.72343 -0.31500
F 	F 	0.53137 0.98418 0.59259 -0.37300
F 	F 	0.51931 0.93494 0.79773 -0.29800
F 	F 	0.42605 0.94631 0.75030 -0.29600
F 	F 	0.53889 0.08273 0.86898 -0.32000
C 	C 	0.70407 0.16804 0.17254 0.25300
C 	C 	0.66653 0.16907 0.18151 0.01100
C 	C 	0.66488 0.19402 0.22215 0.24800
C 	C 	0.70108 0.21900 0.25229 0.33100
C 	C 	0.73918 0.21944 0.24167 -0.18400
C 	C 	0.74028 0.19320 0.20236 0.33400
C 	C 	0.62998 0.14643 0.14614 0.01000
F 	F 	0.62857 0.19496 0.23137 -0.30800
F 	F 	0.77674 0.19271 0.19248 -0.32000
C 	C 	0.59408 0.10869 0.16214 0.24800
C 	C 	0.55771 0.08971 0.13083 0.33200
C 	C 	0.55697 0.10853 0.08332 -0.18500
C 	C 	0.59404 0.14452 0.06569 0.32800
C 	C 	0.63032 0.16352 0.09709 0.24500
F 	F 	0.59397 0.09120 0.20881 -0.28800
F 	F 	0.59425 0.16214 0.01907 -0.32900
F 	F 	0.52238 0.05456 0.14813 -0.35000
F 	F 	0.66534 0.19942 0.08070 -0.30600
F 	F 	0.70569 0.14335 0.13409 -0.29600
F 	F 	0.69956 0.24393 0.29050 -0.33700
C 	C 	0.23587 0.91854 0.90789 0.25400
C 	C 	0.22891 0.87781 0.91833 0.01000
C 	C 	0.25948 0.87293 0.94616 0.25000
C 	C 	0.29701 0.90854 0.96278 0.33300
C 	C 	0.30493 0.94947 0.95039 -0.17700
C 	C 	0.27389 0.95419 0.92298 0.33000
C 	C 	0.19086 0.84026 0.89747 0.00800
F 	F 	0.25307 0.83361 0.95635 -0.30700
F 	F 	0.28105 0.99327 0.90961 -0.33400
C 	C 	0.18664 0.83254 0.84367 0.25300
C 	C 	0.15521 0.79330 0.82471 0.33900
C 	C 	0.12987 0.76052 0.85971 -0.18100
C 	C 	0.12979 0.77062 0.91261 0.32400
C 	C 	0.16051 0.81027 0.93146 0.25000
F 	F 	0.21425 0.86231 0.81002 -0.28700
F 	F 	0.10107 0.74152 0.94598 -0.32400
F 	F 	0.15037 0.78675 0.77257 -0.31300
F 	F 	0.16195 0.81892 0.98304 -0.29800
F 	F 	0.20606 0.92355 0.88211 -0.29400
F 	F 	0.32554 0.90326 0.99116 -0.31900
C 	C 	0.07727 0.37571 0.27064 0.24600
C 	C 	0.07556 0.35187 0.22678 0.00900
C 	C 	0.03689 0.32739 0.20072 0.24800
C 	C 	0.00007 0.32621 0.21870 0.32900
C 	C 	0.00136 0.34879 0.26369 -0.19400
C 	C 	0.04024 0.37407 0.28913 0.33600
C 	C 	0.11440 0.35312 0.20760 0.00900
F 	F 	0.03501 0.30452 0.15807 -0.30000
F 	F 	0.04192 0.39610 0.33252 -0.32400
C 	C 	0.13250 0.33304 0.23566 0.24600
C 	C 	0.17142 0.33756 0.22002 0.33000
C 	C 	0.19264 0.36239 0.17633 -0.19200
C 	C 	0.17233 0.37894 0.14550 0.32800
C 	C 	0.13374 0.37488 0.16155 0.24200
F 	F 	0.11286 0.31005 0.27880 -0.30300
F 	F 	0.19098 0.40075 0.10139 -0.35200
F 	F 	0.18939 0.31922 0.24845 -0.32000
F 	F 	0.11578 0.39331 0.13326 -0.30100
F 	F 	0.11477 0.40022 0.29543 -0.30700
F 	F 	0.96301 0.30309 0.19244 -0.34900
C 	C 	0.20906 0.53717 0.91618 0.25600
C 	C 	0.19135 0.51358 0.96167 0.00100
C 	C 	0.14880 0.49983 0.97414 0.27800
C 	C 	0.12511 0.51233 0.94351 0.33200
C 	C 	0.14425 0.53962 0.90080 -0.17000
C 	C 	0.18546 0.54970 0.88552 0.32500
C 	C 	0.21759 0.50385 0.99663 0.03800
F 	F 	0.13070 0.47512 0.01662 -0.30700
F 	F 	0.20323 0.57315 0.84206 -0.32300
C 	C 	0.23495 0.52764 0.04220 0.22700
C 	C 	0.26020 0.51866 0.07509 0.33600
C 	C 	0.26831 0.48582 0.06260 -0.17100
C 	C 	0.25110 0.46227 0.01664 0.31900
C 	C 	0.22587 0.47126 0.98397 0.27300
F 	F 	0.22750 0.55959 0.05443 -0.30400
F 	F 	0.25736 0.42949 0.00479 -0.34200
F 	F 	0.27715 0.54218 0.11870 -0.32900
F 	F 	0.20900 0.44794 0.94019 -0.29500
F 	F 	0.24961 0.54904 0.90255 -0.30100
F 	F 	0.08411 0.49908 0.95637 -0.31900
C 	C 	0.43434 0.68150 0.37180 0.24700
C 	C 	0.46324 0.66663 0.36752 0.00900
C 	C 	0.50104 0.68608 0.39656 0.24900
C 	C 	0.51033 0.72070 0.42852 0.33400
C 	C 	0.48266 0.73711 0.43037 -0.19100
C 	C 	0.44433 0.71700 0.40252 0.33100
C 	C 	0.45407 0.63096 0.33226 0.00900
F 	F 	0.52928 0.67211 0.39272 -0.29000
F 	F 	0.41712 0.73232 0.40453 -0.32600
C 	C 	0.45058 0.63506 0.27838 0.24800
C 	C 	0.43673 0.59978 0.24584 0.33100
C 	C 	0.42710 0.56036 0.26675 -0.18600
C 	C 	0.43482 0.55746 0.31977 0.33500
C 	C 	0.44727 0.59230 0.35260 0.24900
F 	F 	0.45946 0.67293 0.25783 -0.30300
F 	F 	0.42807 0.52023 0.34001 -0.34200
F 	F 	0.43123 0.60351 0.19426 -0.32500
F 	F 	0.45118 0.58807 0.40447 -0.28600
F 	F 	0.39688 0.66189 0.34561 -0.30100
F 	F 	0.54716 0.73949 0.45595 -0.34000
C 	C 	0.32037 0.18180 0.03014 0.24100
C 	C 	0.32407 0.19091 0.08357 0.01200
C 	C 	0.32847 0.16388 0.11861 0.24700
C 	C 	0.33453 0.13126 0.09999 0.31600
C 	C 	0.33808 0.12667 0.04602 -0.16900
C 	C 	0.32671 0.14934 0.01141 0.32000
C 	C 	0.32959 0.23170 0.10185 0.00500
F 	F 	0.32922 0.17070 0.17061 -0.30100
F 	F 	0.32334 0.14104 0.95960 -0.30200
C 	C 	0.29693 0.23310 0.12923 0.25100
C 	C 	0.30232 0.27195 0.14628 0.33000
C 	C 	0.34029 0.30981 0.13541 -0.18600
C 	C 	0.37341 0.30812 0.10919 0.33200
C 	C 	0.36807 0.26924 0.09267 0.24600
F 	F 	0.25985 0.19685 0.13896 -0.29800
F 	F 	0.41023 0.34426 0.09818 -0.32000
F 	F 	0.27063 0.27288 0.17318 -0.32300
F 	F 	0.40020 0.26801 0.06723 -0.30500
F 	F 	0.31289 0.20586 0.99620 -0.27700
F 	F 	0.33846 0.10514 0.13437 -0.32900
C 	C 	0.76793 0.37881 0.50042 0.24800
C 	C 	0.76475 0.41397 0.48474 0.01100
C 	C 	0.78492 0.43563 0.43880 0.25000
C 	C 	0.80724 0.42147 0.40811 0.33200
C 	C 	0.80945 0.38562 0.42325 -0.18500
C 	C 	0.79041 0.36489 0.47005 0.32700
C 	C 	0.74040 0.42808 0.51668 0.01000
F 	F 	0.78261 0.47013 0.42378 -0.30000
F 	F 	0.79334 0.33088 0.48578 -0.34300
C 	C 	0.75679 0.44821 0.56449 0.25200
C 	C 	0.73260 0.45891 0.59670 0.33900
C 	C 	0.69212 0.45085 0.58056 -0.17600
C 	C 	0.67531 0.42957 0.53319 0.32700
C 	C 	0.69943 0.41839 0.50139 0.24900
F 	F 	0.79617 0.45717 0.57989 -0.29200
F 	F 	0.63540 0.41919 0.51833 -0.33000
F 	F 	0.74873 0.47746 0.64335 -0.33600
F 	F 	0.68277 0.39763 0.45598 -0.30400
F 	F 	0.74878 0.35785 0.54490 -0.30200
F 	F 	0.82575 0.44189 0.36313 -0.32900
C 	C 	0.82349 0.61216 0.74692 0.24900
C 	C 	0.84491 0.59707 0.71597 0.01000
C 	C 	0.82915 0.58057 0.66639 0.25200
C 	C 	0.79076 0.57652 0.64935 0.33800
C 	C 	0.76665 0.58690 0.68293 -0.18700
C 	C 	0.78463 0.60733 0.73037 0.33000
C 	C 	0.88353 0.59803 0.73569 0.01400
F 	F 	0.85045 0.56729 0.63535 -0.28800
F 	F 	0.76382 0.62136 0.76109 -0.31900
C 	C 	0.88063 0.57065 0.77601 0.25100
C 	C 	0.91728 0.57143 0.79447 0.34000
C 	C 	0.95702 0.59929 0.77233 -0.18400
C 	C 	0.95964 0.62591 0.73110 0.34000
C 	C 	0.92317 0.62567 0.71343 0.25100
F 	F 	0.84229 0.54329 0.79722 -0.29900
F 	F 	0.99750 0.65160 0.70766 -0.34600
F 	F 	0.91428 0.54576 0.83447 -0.31900
F 	F 	0.92630 0.65226 0.67450 -0.29700
F 	F 	0.83989 0.63064 0.79353 -0.29800
F 	F 	0.77630 0.56105 0.60099 -0.33700
C 	C 	0.57932 0.52359 0.92877 0.26000
C 	C 	0.54191 0.52576 0.92532 0.00600
C 	C 	0.53193 0.53881 0.87876 0.25200
C 	C 	0.55679 0.54559 0.83446 0.32500
C 	C 	0.59194 0.53909 0.83634 -0.17800
C 	C 	0.60454 0.53068 0.88459 0.34300
C 	C 	0.51034 0.50871 0.96760 0.03600
F 	F 	0.49662 0.54252 0.87567 -0.30600
F 	F 	0.64037 0.52797 0.88828 -0.31600
C 	C 	0.50527 0.53624 0.00117 0.20700
C 	C 	0.47290 0.51995 0.03852 0.33300
C 	C 	0.44533 0.47599 0.04247 -0.18400
C 	C 	0.45072 0.44849 0.00903 0.31100
C 	C 	0.48303 0.46481 0.97179 0.26300
F 	F 	0.53145 0.57876 0.99721 -0.27800
F 	F 	0.42514 0.40590 0.01333 -0.31800
F 	F 	0.46797 0.54685 0.07047 -0.33900
F 	F 	0.48759 0.43799 0.93926 -0.29200
F 	F 	0.59022 0.51280 0.97440 -0.29200
F 	F 	0.54537 0.55631 0.78916 -0.35500
C 	C 	0.40671 0.39526 0.39053 0.24700
C 	C 	0.41187 0.42477 0.42897 0.01100
C 	C 	0.38634 0.44364 0.42780 0.25800
C 	C 	0.35959 0.43693 0.38527 0.34100
C 	C 	0.35884 0.41183 0.34309 -0.17700
C 	C 	0.37950 0.38797 0.34847 0.32100
C 	C 	0.44712 0.43938 0.46679 0.00900
F 	F 	0.38890 0.46998 0.46675 -0.29300
F 	F 	0.37425 0.35866 0.31218 -0.33500
C 	C 	0.48240 0.48035 0.46257 0.24800
C 	C 	0.51613 0.49425 0.49772 0.33100
C 	C 	0.51530 0.46696 0.53711 -0.17500
C 	C 	0.48051 0.42542 0.54019 0.32600
C 	C 	0.44637 0.41191 0.50559 0.25200
F 	F 	0.48390 0.50681 0.42437 -0.29300
F 	F 	0.47976 0.39820 0.57680 -0.32300
F 	F 	0.54898 0.53466 0.49446 -0.31900
F 	F 	0.41250 0.37215 0.50985 -0.29500
F 	F 	0.42958 0.37511 0.39267 -0.30300
F 	F 	0.33565 0.45598 0.38433 -0.32200
C 	C 	0.50014 0.31339 0.78251 0.24800
C 	C 	0.50349 0.31827 0.83686 0.01000
C 	C 	0.51759 0.35846 0.85872 0.24900
C 	C 	0.53071 0.39380 0.82649 0.33400
C 	C 	0.53106 0.38948 0.77219 -0.18700
C 	C 	0.51430 0.34893 0.75031 0.33200
C 	C 	0.49467 0.28183 0.87063 0.01000
F 	F 	0.52040 0.36357 0.91117 -0.28600
F 	F 	0.51346 0.34421 0.69786 -0.32400
C 	C 	0.52038 0.26316 0.86752 0.24700
C 	C 	0.51051 0.22712 0.89710 0.33400
C 	C 	0.47553 0.21007 0.93098 -0.19100
C 	C 	0.45126 0.23014 0.93622 0.33900
C 	C 	0.46040 0.26548 0.90564 0.25100
F 	F 	0.55460 0.27967 0.83537 -0.30200
F 	F 	0.41773 0.21435 0.96939 -0.32800
F 	F 	0.53460 0.20840 0.89231 -0.32100
F 	F 	0.43534 0.28322 0.90909 -0.28400
F 	F 	0.48452 0.27439 0.76094 -0.30100
F 	F 	0.54591 0.43272 0.84810 -0.34500
C 	C 	0.63921 0.76628 0.52481 0.25700
C 	C 	0.63107 0.75206 0.57653 0.00900
C 	C 	0.62155 0.77441 0.61343 0.24800
C 	C 	0.61558 0.80777 0.59776 0.32000
C 	C 	0.61755 0.81804 0.54449 -0.17400
C 	C 	0.63319 0.79966 0.50897 0.34200
C 	C 	0.62757 0.71120 0.59069 0.01000
F 	F 	0.61605 0.76243 0.66416 -0.30200
F 	F 	0.64117 0.81311 0.45884 -0.31800
C 	C 	0.65886 0.71019 0.62165 0.25000
C 	C 	0.65420 0.67136 0.63752 0.33100
C 	C 	0.61830 0.63316 0.62217 -0.18800
C 	C 	0.58698 0.63428 0.59115 0.33400
C 	C 	0.59157 0.67312 0.57565 0.24600
F 	F 	0.69369 0.74687 0.63655 -0.29600
F 	F 	0.55261 0.59772 0.57498 -0.32000
F 	F 	0.68436 0.67081 0.66815 -0.32700
F 	F 	0.56092 0.67382 0.54616 -0.29900
F 	F 	0.65124 0.74661 0.48949 -0.29500
F 	F 	0.60658 0.82917 0.63411 -0.33000
