data_crystal

_cell_length_a 20.91640
_cell_length_b 21.28659
_cell_length_c 38.98247
_cell_angle_alpha 60.69184
_cell_angle_beta  119.02481
_cell_angle_gamma 133.31981

_symmetry_space_group_name_	'P 1'
_symmetry_space_group_name_H-M	'P 1'

loop_
_symmetry_equiv_pos_as_xyz
  x,y,z

loop_
_atom_site_label
_atom_site_type_symbol
_atom_site_fract_x
_atom_site_fract_y
_atom_site_fract_z
_atom_site_charge
H 	H 	0.15908 0.51930 0.16110 0.11000
H 	H 	0.16463 0.57946 0.62570 0.12900
Co	Co	0.07499 0.01577 0.04895 1.18600
Co	Co	0.08929 0.87297 0.04844 1.17600
C 	C 	0.25286 0.04518 0.06640 0.32900
O 	O 	0.07620 0.11712 0.04321 -0.41600
C 	C 	0.10096 0.19115 0.13977 0.34700
C 	C 	0.10564 0.77873 0.13503 0.35500
O 	O 	0.07160 0.76701 0.09872 -0.39700
O 	O 	0.09286 0.82229 0.14329 -0.36300
O 	O 	0.04854 0.12590 0.16498 -0.37200
O 	O 	0.11302 0.17461 0.11532 -0.36900
O 	O 	0.04375 0.91016 0.06724 -0.76500
O 	O 	0.21718 0.95975 0.07781 -0.37300
O 	O 	0.21423 0.07467 0.06717 -0.34900
Co	Co	0.05046 0.03632 0.53128 1.18900
Co	Co	0.09144 0.91801 0.52755 1.17700
C 	C 	0.22157 0.11130 0.51917 0.38700
O 	O 	0.01298 0.06358 0.68648 -0.33800
C 	C 	0.02066 0.99808 0.70983 0.31600
O 	O 	0.03734 0.12670 0.52635 -0.42700
C 	C 	0.05841 0.22049 0.60863 0.33800
C 	C 	0.18478 0.89060 0.61313 0.34000
O 	O 	0.02749 0.95867 0.69498 -0.32200
O 	O 	0.19876 0.94304 0.57716 -0.36200
O 	O 	0.13823 0.88488 0.63000 -0.35700
O 	O 	0.08152 0.18906 0.59815 -0.37200
O 	O 	0.04417 0.94172 0.55339 -0.75200
O 	O 	0.16707 0.05122 0.49840 -0.36700
O 	O 	0.18875 0.11469 0.53925 -0.37600
C 	C 	0.03093 0.05172 0.86161 0.02500
C 	C 	0.03139 0.05431 0.89736 -0.06300
C 	C 	0.05142 0.13597 0.89923 0.76200
H 	H 	0.04446 0.10792 0.83543 0.11800
C 	C 	0.19515 0.06997 0.77227 0.77800
F 	F 	0.05086 0.19381 0.86139 -0.39900
F 	F 	0.13561 0.18090 0.92444 -0.39600
F 	F 	0.21377 0.14875 0.74342 -0.39700
C 	C 	0.06831 0.04488 0.37327 -0.00700
C 	C 	0.05325 0.06102 0.39864 -0.09400
C 	C 	0.10355 0.15638 0.39854 0.79700
H 	H 	0.13558 0.08615 0.36887 0.13300
C 	C 	0.04603 0.04557 0.28661 -0.10400
C 	C 	0.06466 0.03554 0.26022 0.05100
C 	C 	0.06065 0.13212 0.27780 0.76800
H 	H 	0.10234 0.09289 0.23817 0.11100
F 	F 	0.12346 0.16368 0.43627 -0.43200
F 	F 	0.05016 0.18549 0.37134 -0.39000
F 	F 	0.18387 0.21190 0.38689 -0.37400
F 	F 	0.05695 0.17480 0.23706 -0.43100
F 	F 	0.14478 0.18839 0.29965 -0.40500
C 	C 	0.16969 0.46353 0.58554 0.32100
C 	C 	0.13529 0.38299 0.58108 -0.06200
C 	C 	0.12265 0.31062 0.61486 -0.12100
H 	H 	0.11487 0.37563 0.55112 0.10800
F 	F 	0.18408 0.53370 0.55275 -0.39900
C 	C 	0.33432 0.83413 0.63231 -0.12100
C 	C 	0.20148 0.69954 0.65784 0.30900
C 	C 	0.17482 0.75048 0.65165 -0.06000
C 	C 	0.22759 0.84320 0.63547 -0.12300
C 	C 	0.31155 0.88494 0.62958 0.37100
F 	F 	0.36738 0.97503 0.61737 -0.40800
H 	H 	0.11117 0.71729 0.65758 0.10000
C 	C 	0.13330 0.34087 0.11180 -0.05900
C 	C 	0.15488 0.28266 0.14292 -0.13100
C 	C 	0.16079 0.41563 0.11912 0.31500
F 	F 	0.14280 0.47326 0.08829 -0.40500
H 	H 	0.09245 0.32651 0.08236 0.09700
C 	C 	0.29248 0.77616 0.15573 0.31400
C 	C 	0.25552 0.81294 0.15435 -0.06400
C 	C 	0.17079 0.75729 0.16301 -0.12100
C 	C 	0.13702 0.66797 0.18425 0.37000
F 	F 	0.05830 0.61370 0.19567 -0.40700
H 	H 	0.28596 0.88324 0.14072 0.11000
F 	F 	0.36001 0.82792 0.13667 -0.40200
F 	F 	0.28564 0.17976 0.99307 -0.38400
C 	C 	0.29039 0.64314 0.17335 0.12500
C 	C 	0.23135 0.55801 0.16529 -0.08600
C 	C 	0.26682 0.52417 0.16208 0.13400
C 	C 	0.30281 0.68697 0.64705 0.12700
C 	C 	0.26062 0.56282 0.63135 0.13300
C 	C 	0.23539 0.60657 0.63421 -0.08500
C 	C 	0.17829 0.39992 0.65751 -0.11400
C 	C 	0.19337 0.47310 0.62403 -0.04400
C 	C 	0.14590 0.32029 0.65322 0.37000
F 	F 	0.13318 0.25081 0.68620 -0.39600
H 	H 	0.19747 0.40677 0.68743 0.13500
C 	C 	0.27891 0.74066 0.64581 -0.04100
F 	F 	0.15258 0.61105 0.67566 -0.40700
C 	C 	0.20597 0.30137 0.18112 0.38800
C 	C 	0.22856 0.37260 0.18905 -0.11000
C 	C 	0.20980 0.43264 0.15779 -0.04200
H 	H 	0.26757 0.38561 0.21882 0.14500
F 	F 	0.23213 0.24907 0.21094 -0.40800
C 	C 	0.17923 0.63205 0.18991 -0.11500
C 	C 	0.25390 0.68441 0.17329 -0.03900
H 	H 	0.15161 0.56284 0.20572 0.13100
C 	C 	0.31916 0.15869 0.52704 -0.13400
C 	C 	0.35477 0.18492 0.49601 0.37400
F 	F 	0.30658 0.18983 0.45700 -0.38100
C 	C 	0.34130 0.10841 0.05650 -0.12400
C 	C 	0.35005 0.16570 0.01761 0.35400
C 	C 	0.35884 0.57656 0.16447 -0.10000
C 	C 	0.38426 0.69152 0.17879 -0.07500
C 	C 	0.35162 0.60165 0.63843 -0.09500
C 	C 	0.05585 0.99345 0.97321 0.33600
O 	O 	0.11504 0.97627 0.99674 -0.35300
O 	O 	0.02506 0.00963 0.98832 -0.31000
C 	C 	0.01513 0.98079 0.93153 -0.00000
C 	C 	0.10458 0.01830 0.78066 -0.06000
Co	Co	0.01822 0.87729 0.59881 1.18500
O 	O 	0.02440 0.78463 0.55739 -0.41900
F 	F 	0.26409 0.08980 0.80695 -0.39900
H 	H 	0.38508 0.55244 0.15970 0.10000
C 	C 	0.10093 0.02171 0.81495 0.02700
H 	H 	0.16289 0.05942 0.83581 0.11700
C 	C 	0.02306 0.97010 0.75327 0.00200
F 	F 	0.19356 0.02045 0.75819 -0.40900
C 	C 	0.01029 0.97266 0.31981 0.05400
C 	C 	0.02126 0.95028 0.25765 -0.01000
H 	H 	0.34423 0.13557 0.59138 0.11800
C 	C 	0.37126 0.15677 0.56705 -0.04900
C 	C 	0.01536 0.97755 0.85988 0.08300
C 	C 	0.01741 0.97743 0.82218 0.09200
Co	Co	0.00933 0.07626 0.08235 1.17900
O 	O 	0.00454 0.92652 0.19751 -0.35300
F 	F 	0.00653 0.79622 0.27475 -0.42400
H 	H 	0.37063 0.56931 0.63478 0.10600
F 	F 	0.08477 0.87211 0.89194 -0.40800
H 	H 	0.39395 0.86759 0.62279 0.12300
C 	C 	0.39462 0.72163 0.65674 -0.09900
C 	C 	0.00202 0.83271 0.89694 0.74100
F 	F 	0.98660 0.11064 0.91403 -0.38000
F 	F 	0.99467 0.11695 0.28731 -0.37600
H 	H 	0.40240 0.05028 0.11143 0.11400
C 	C 	0.40845 0.09443 0.08138 -0.06200
Co	Co	0.98308 0.08198 0.57151 1.20000
O 	O 	0.97484 0.17507 0.60977 -0.36700
O 	O 	0.98753 0.02007 0.47133 -0.28900
C 	C 	0.97959 0.96934 0.45662 0.29800
C 	C 	0.97362 0.99280 0.41310 0.04200
C 	C 	0.99502 0.98069 0.35087 0.15200
O 	O 	0.98101 0.90007 0.48049 -0.33800
F 	F 	0.85594 0.96933 0.79593 -0.40500
C 	C 	0.94075 0.91703 0.76374 0.09000
H 	H 	0.87921 0.87207 0.74550 0.11000
O 	O 	0.90575 0.94056 0.19692 -0.33500
C 	C 	0.97240 0.93285 0.21680 0.36200
C 	C 	0.93641 0.92937 0.79466 -0.07700
C 	C 	0.84687 0.89859 0.79589 0.78700
F 	F 	0.77911 0.86643 0.76256 -0.40800
C 	C 	0.43804 0.20240 0.50517 -0.12200
C 	C 	0.42322 0.20554 0.00328 -0.13100
H 	H 	0.43012 0.25072 0.97347 0.14500
C 	C 	0.70081 0.26626 0.01316 0.13800
C 	C 	0.76097 0.35147 0.02099 -0.08900
C 	C 	0.72737 0.38731 0.02377 0.14700
C 	C 	0.63583 0.33659 0.02175 -0.10800
C 	C 	0.57703 0.24987 0.01747 0.13200
C 	C 	0.60771 0.21679 0.01026 -0.09300
H 	H 	0.83319 0.38847 0.02596 0.13600
H 	H 	0.61119 0.36305 0.02592 0.10100
H 	H 	0.55991 0.15191 0.00377 0.10600
C 	C 	0.69665 0.26204 0.53435 0.12400
C 	C 	0.74977 0.35448 0.52994 -0.07900
C 	C 	0.72794 0.38745 0.54287 0.13100
C 	C 	0.64734 0.33106 0.55481 -0.09900
C 	C 	0.58618 0.24298 0.55203 0.14000
C 	C 	0.61353 0.20625 0.54519 -0.10500
H 	H 	0.80736 0.40037 0.51658 0.13300
H 	H 	0.62855 0.35790 0.56278 0.11000
H 	H 	0.56932 0.13550 0.54727 0.09900
C 	C 	0.41688 0.66092 0.17128 0.13400
H 	H 	0.43136 0.75398 0.18750 0.13400
C 	C 	0.41837 0.68151 0.65008 0.13400
H 	H 	0.44734 0.78116 0.66806 0.10700
Co	Co	0.98899 0.83740 0.10448 1.20400
Co	Co	0.93017 0.89964 0.14039 1.20200
C 	C 	0.89868 0.72212 0.04626 0.34400
Co	Co	0.91402 0.03759 0.14322 1.18800
O 	O 	0.94956 0.00069 0.11826 -0.74900
O 	O 	0.93073 0.79933 0.14658 -0.39700
O 	O 	0.97391 0.94713 0.08447 -0.54500
C 	C 	0.75018 0.85901 0.13243 0.34800
O 	O 	0.78484 0.94430 0.11793 -0.33500
O 	O 	0.79339 0.82716 0.13896 -0.32200
C 	C 	0.88835 0.13076 0.05564 0.34000
O 	O 	0.92113 0.14010 0.09250 -0.37500
O 	O 	0.91514 0.10512 0.04364 -0.34000
O 	O 	0.95516 0.79145 0.02297 -0.35000
O 	O 	0.89311 0.72997 0.07666 -0.34400
Co	Co	0.94901 0.92204 0.63927 1.20000
C 	C 	0.94342 0.73565 0.56300 0.38800
Co	Co	0.90245 0.04199 0.63871 1.18400
O 	O 	0.94381 0.01066 0.61362 -0.74900
O 	O 	0.97476 0.83883 0.64687 -0.40300
O 	O 	0.97245 0.96323 0.57859 -0.54700
C 	C 	0.77786 0.84469 0.65492 0.36400
O 	O 	0.82824 0.91150 0.67102 -0.37400
O 	O 	0.81369 0.83213 0.64100 -0.35800
C 	C 	0.81677 0.07520 0.55181 0.35100
O 	O 	0.79868 0.01912 0.58707 -0.37100
O 	O 	0.87326 0.09041 0.53717 -0.34700
O 	O 	0.92399 0.76158 0.57897 -0.35600
C 	C 	0.99805 0.90405 0.89397 -0.05600
C 	C 	0.98737 0.90276 0.92730 0.09100
H 	H 	0.96907 0.84467 0.95245 0.10500
F 	F 	0.93415 0.78671 0.86744 -0.36400
F 	F 	0.99209 0.77157 0.93420 -0.39300
F 	F 	0.82014 0.83163 0.83033 -0.37600
C 	C 	0.90726 0.92740 0.35724 -0.11700
C 	C 	0.89907 0.92875 0.39076 0.08200
C 	C 	0.82300 0.86793 0.32954 0.79500
H 	H 	0.83613 0.87781 0.40047 0.10400
C 	C 	0.99309 0.87897 0.29209 -0.04300
C 	C 	0.99022 0.89161 0.32363 0.06700
C 	C 	0.95942 0.78809 0.29394 0.79000
H 	H 	0.96911 0.83762 0.35025 0.11700
F 	F 	0.81058 0.78822 0.34113 -0.41400
F 	F 	0.82961 0.90862 0.28963 -0.39700
F 	F 	0.74736 0.84980 0.33168 -0.40000
F 	F 	0.86852 0.74096 0.27510 -0.37700
F 	F 	0.97105 0.74072 0.33367 -0.39700
C 	C 	0.56723 0.70791 0.68796 -0.11000
C 	C 	0.51256 0.72637 0.65173 -0.05200
C 	C 	0.54077 0.77099 0.61549 0.32100
C 	C 	0.62367 0.79840 0.61573 -0.06100
C 	C 	0.68089 0.78488 0.65230 -0.13100
C 	C 	0.65070 0.73635 0.68823 0.38400
F 	F 	0.70448 0.72083 0.72376 -0.38800
H 	H 	0.54440 0.67039 0.71580 0.14100
H 	H 	0.64619 0.83557 0.58782 0.12300
F 	F 	0.48710 0.78672 0.57997 -0.39500
C 	C 	0.57649 0.71493 0.19249 -0.10700
C 	C 	0.50682 0.72191 0.16312 -0.04700
C 	C 	0.51535 0.76810 0.12300 0.33000
C 	C 	0.59088 0.80369 0.11210 -0.06300
C 	C 	0.66135 0.79823 0.14149 -0.11200
C 	C 	0.65341 0.75278 0.18175 0.36900
F 	F 	0.72158 0.74801 0.21070 -0.37100
H 	H 	0.56967 0.67772 0.22336 0.14300
H 	H 	0.59587 0.83779 0.08089 0.14900
F 	F 	0.44778 0.77407 0.09412 -0.38900
C 	C 	0.66698 0.14467 0.51544 -0.11800
C 	C 	0.72928 0.22341 0.52909 -0.04400
C 	C 	0.82247 0.26143 0.54027 0.31500
C 	C 	0.85088 0.22095 0.53773 -0.06200
C 	C 	0.78807 0.13408 0.53259 -0.12800
C 	C 	0.69572 0.09774 0.51935 0.37100
F 	F 	0.63372 0.01581 0.51171 -0.40700
H 	H 	0.59613 0.11811 0.50325 0.11800
H 	H 	0.92243 0.25367 0.54372 0.11000
F 	F 	0.88454 0.33213 0.55714 -0.40400
C 	C 	0.76527 0.53840 0.51822 -0.12200
C 	C 	0.78994 0.48043 0.54504 -0.04600
C 	C 	0.86198 0.50516 0.57911 0.32100
C 	C 	0.90729 0.58602 0.58683 -0.05000
C 	C 	0.88215 0.64364 0.56023 -0.14300
C 	C 	0.81084 0.61948 0.52590 0.37700
F 	F 	0.78757 0.67582 0.49936 -0.41600
H 	H 	0.70885 0.51917 0.49214 0.12900
H 	H 	0.96372 0.60521 0.61291 0.11700
F 	F 	0.88589 0.44925 0.60548 -0.38400
C 	C 	0.48979 0.19955 0.54509 -0.05200
C 	C 	0.45632 0.17723 0.57606 0.33100
H 	H 	0.46464 0.22260 0.48088 0.12200
F 	F 	0.50676 0.17649 0.61474 -0.38700
C 	C 	0.85851 0.24254 0.00592 -0.10200
C 	C 	0.82436 0.15356 0.02757 -0.10300
C 	C 	0.73774 0.09725 0.03444 0.35800
C 	C 	0.69691 0.13328 0.02966 -0.10400
C 	C 	0.73622 0.22491 0.01241 -0.06600
C 	C 	0.81300 0.27745 0.99711 0.36500
F 	F 	0.84369 0.36179 0.97405 -0.39500
H 	H 	0.92315 0.28617 0.99835 0.14800
H 	H 	0.63714 0.09054 0.04106 0.12800
F 	F 	0.69744 0.00855 0.04993 -0.43000
C 	C 	0.78446 0.54532 0.99589 -0.05900
C 	C 	0.78718 0.47788 0.02918 -0.07700
C 	C 	0.82412 0.49018 0.06844 0.33500
C 	C 	0.85407 0.56736 0.07430 -0.07400
C 	C 	0.84826 0.63338 0.04099 -0.10900
C 	C 	0.81256 0.62148 0.00172 0.33500
F 	F 	0.80527 0.68403 0.96915 -0.37700
H 	H 	0.75494 0.53595 0.96553 0.13900
H 	H 	0.88407 0.57693 0.10464 0.13200
F 	F 	0.82704 0.42542 0.10100 -0.39700
C 	C 	0.48929 0.18994 0.02792 -0.05000
C 	C 	0.48109 0.13362 0.06699 0.32000
F 	F 	0.54570 0.11983 0.09163 -0.40100
