data_crystal

_cell_length_a 26.19020
_cell_length_b 26.52419
_cell_length_c 34.47693
_cell_angle_alpha 95.48747
_cell_angle_beta  95.48432
_cell_angle_gamma 125.82858

_symmetry_space_group_name_	'P 1'
_symmetry_space_group_name_H-M	'P 1'

loop_
_symmetry_equiv_pos_as_xyz
  x,y,z

loop_
_atom_site_label
_atom_site_type_symbol
_atom_site_fract_x
_atom_site_fract_y
_atom_site_fract_z
_atom_site_charge
C 	C 	0.95151 0.00182 0.99227 0.10400
C 	C 	0.01455 0.03830 0.98517 -0.07400
C 	C 	0.04742 0.01160 0.98230 0.11000
C 	C 	0.01584 0.94744 0.98388 -0.07200
C 	C 	0.95291 0.91095 0.99063 0.11400
C 	C 	0.92179 0.93879 0.99646 -0.08100
H 	H 	0.03812 0.08732 0.98241 0.10200
H 	H 	0.04052 0.92623 0.98042 0.10000
H 	H 	0.87349 0.91071 0.00255 0.10700
C 	C 	0.95122 0.02664 0.47515 0.10000
C 	C 	0.01355 0.06212 0.46713 -0.07300
C 	C 	0.04466 0.03411 0.46192 0.10700
C 	C 	0.01269 0.96986 0.46346 -0.06800
C 	C 	0.95103 0.93439 0.47267 0.10400
C 	C 	0.92045 0.96308 0.47888 -0.06800
H 	H 	0.03799 0.11162 0.46533 0.10000
H 	H 	0.03660 0.94806 0.45889 0.10000
H 	H 	0.87295 0.93606 0.48618 0.10200
Cu	Cu	0.62040 0.21320 0.99806 0.93400
Cu	Cu	0.68175 0.22767 0.91869 0.89200
Cu	Cu	0.66164 0.31748 0.94996 0.90100
Cu	Cu	0.63616 0.33789 0.02958 0.91400
C 	C 	0.64391 0.25920 0.08084 0.29100
O 	O 	0.52990 0.18663 0.99725 -0.33300
C 	C 	0.64784 0.28227 0.86343 0.29300
O 	O 	0.68063 0.31286 0.00430 -0.63300
O 	O 	0.61604 0.22441 0.94238 -0.63800
O 	O 	0.65248 0.16132 0.99291 -0.34000
O 	O 	0.73270 0.23514 0.96496 -0.40800
O 	O 	0.61627 0.28606 0.07173 -0.35200
O 	O 	0.71218 0.40878 0.95884 -0.35900
C 	C 	0.71220 0.44564 0.98748 0.33700
C 	C 	0.51220 0.21993 0.98343 0.32200
O 	O 	0.55594 0.27893 0.98059 -0.37500
O 	O 	0.68836 0.42571 0.01953 -0.35200
O 	O 	0.63985 0.21765 0.05390 -0.33100
C 	C 	0.70882 0.18675 0.98305 0.33200
O 	O 	0.65015 0.31968 0.89306 -0.35800
O 	O 	0.64888 0.23441 0.86920 -0.38800
H 	H 	0.72684 0.33716 0.01559 0.18800
H 	H 	0.57304 0.19906 0.92523 0.20100
Cu	Cu	0.73861 0.35261 0.45585 0.93000
Cu	Cu	0.74018 0.31708 0.54432 0.89500
Cu	Cu	0.63350 0.33181 0.49979 0.92000
Cu	Cu	0.63084 0.36511 0.41906 0.90800
C 	C 	0.69773 0.33132 0.37149 0.29300
O 	O 	0.78758 0.44749 0.45656 -0.32800
C 	C 	0.64361 0.31343 0.57848 0.29100
O 	O 	0.63979 0.31171 0.44639 -0.63500
O 	O 	0.72571 0.36472 0.51086 -0.62500
O 	O 	0.76716 0.29691 0.46010 -0.34400
O 	O 	0.81285 0.33352 0.52556 -0.39200
O 	O 	0.67944 0.36788 0.37742 -0.35600
O 	O 	0.54307 0.29384 0.48773 -0.34800
C 	C 	0.51332 0.29401 0.45462 0.33300
C 	C 	0.76226 0.47725 0.46467 0.31800
O 	O 	0.70084 0.44473 0.46584 -0.36500
O 	O 	0.54507 0.33468 0.43123 -0.35600
O 	O 	0.73489 0.33122 0.40017 -0.33500
C 	C 	0.80521 0.30261 0.49092 0.33800
O 	O 	0.62962 0.34201 0.55552 -0.34900
O 	O 	0.66046 0.27896 0.56339 -0.39800
H 	H 	0.60938 0.26610 0.43449 0.18400
H 	H 	0.75349 0.40989 0.52378 0.18000
C 	C 	0.65688 0.36555 0.68738 -0.06200
C 	C 	0.62417 0.30717 0.69994 0.02000
C 	C 	0.59064 0.25067 0.67163 -0.00500
C 	C 	0.59406 0.25327 0.63153 0.00700
C 	C 	0.63107 0.31181 0.61932 -0.08200
C 	C 	0.66133 0.36831 0.64737 0.05400
C 	C 	0.63291 0.30600 0.74278 0.01900
S 	S 	0.54664 0.17649 0.68627 0.01300
H 	H 	0.56963 0.20971 0.60998 0.06200
S 	S 	0.70835 0.44278 0.63337 -0.00300
H 	H 	0.68193 0.40902 0.70909 0.07200
C 	C 	0.68565 0.30986 0.76151 -0.00200
C 	C 	0.69088 0.30406 0.80130 0.00400
C 	C 	0.64382 0.29402 0.82276 -0.07500
C 	C 	0.59144 0.29109 0.80423 0.05800
C 	C 	0.58667 0.29774 0.76447 -0.06100
S 	S 	0.74445 0.32007 0.73507 -0.00100
H 	H 	0.73117 0.30636 0.81547 0.05100
S 	S 	0.52994 0.27575 0.82969 0.01400
H 	H 	0.54605 0.29471 0.75008 0.07300
H 	H 	0.67045 0.46089 0.62250 0.07500
H 	H 	0.72519 0.26206 0.71638 0.04800
H 	H 	0.48455 0.21163 0.82527 0.05800
H 	H 	0.58666 0.16046 0.69619 0.04900
C 	C 	0.63067 0.25731 0.26292 -0.06300
C 	C 	0.68641 0.27493 0.24879 0.02000
C 	C 	0.74399 0.30306 0.27597 -0.00200
C 	C 	0.74662 0.31847 0.31649 0.01000
C 	C 	0.69185 0.30493 0.33026 -0.07400
C 	C 	0.63284 0.27109 0.30350 0.05900
C 	C 	0.68570 0.27097 0.20558 0.02200
S 	S 	0.81284 0.31886 0.25964 0.01900
H 	H 	0.79172 0.34279 0.33708 0.07000
S 	S 	0.56117 0.24433 0.32055 -0.02600
H 	H 	0.58590 0.23414 0.24218 0.06900
C 	C 	0.65138 0.21186 0.17976 -0.00300
C 	C 	0.64072 0.20851 0.13867 0.01200
C 	C 	0.66514 0.26386 0.12307 -0.07200
C 	C 	0.70484 0.32331 0.14877 0.06000
C 	C 	0.71390 0.32649 0.18981 -0.06100
S 	S 	0.62178 0.14196 0.19851 0.02200
H 	H 	0.61177 0.16276 0.11898 0.07300
S 	S 	0.74481 0.39403 0.12989 -0.02300
H 	H 	0.74184 0.37215 0.20957 0.07300
H 	H 	0.53511 0.18605 0.33032 0.06000
H 	H 	0.56163 0.11723 0.20595 0.05300
H 	H 	0.80269 0.40989 0.12285 0.05800
H 	H 	0.81193 0.26657 0.25866 0.06000
C 	C 	0.91973 0.86772 0.47719 -0.04300
C 	C 	0.86798 0.81756 0.44801 0.09000
C 	C 	0.84347 0.75455 0.45009 0.08200
C 	C 	0.87507 0.74201 0.47859 0.00800
C 	C 	0.92738 0.79227 0.50734 0.08300
C 	C 	0.94644 0.85426 0.50829 0.08500
C 	C 	0.85345 0.67606 0.47816 0.02300
C 	C 	0.81666 0.64146 0.50577 0.06500
C 	C 	0.79570 0.57887 0.50487 0.12800
C 	C 	0.80262 0.54739 0.47282 -0.11200
C 	C 	0.83997 0.58220 0.44526 0.12400
C 	C 	0.86843 0.64738 0.44950 0.06600
Br	Br	0.97476 0.77667 0.54412 -0.12700
Br	Br	0.83327 0.83521 0.40398 -0.12600
Br	Br	0.76042 0.53732 0.54846 -0.19300
Br	Br	0.92779 0.69740 0.41614 -0.12700
Br	Br	0.00683 0.92014 0.55300 -0.11500
Br	Br	0.76637 0.68542 0.41427 -0.12900
Br	Br	0.79195 0.67848 0.54333 -0.12400
Br	Br	0.84783 0.54015 0.39993 -0.15100
C 	C 	0.91821 0.05638 0.47920 -0.04600
C 	C 	0.92820 0.09168 0.51610 0.09000
C 	C 	0.90793 0.13054 0.51848 0.08100
C 	C 	0.87709 0.13369 0.48399 0.00800
C 	C 	0.86392 0.09565 0.44749 0.08100
C 	C 	0.88435 0.05694 0.44514 0.09000
C 	C 	0.85888 0.17735 0.48603 0.02400
C 	C 	0.79810 0.15618 0.49380 0.06500
C 	C 	0.78057 0.19728 0.49534 0.12600
C 	C 	0.82377 0.25968 0.48908 -0.12200
C 	C 	0.88453 0.28091 0.48134 0.12800
C 	C 	0.90216 0.23982 0.47986 0.06400
Br	Br	0.81892 0.09760 0.40067 -0.13100
Br	Br	0.97094 0.08768 0.56315 -0.13500
Br	Br	0.69739 0.16827 0.50615 -0.22700
Br	Br	0.98546 0.26884 0.46938 -0.12900
Br	Br	0.86758 0.00585 0.39506 -0.13000
Br	Br	0.92335 0.18041 0.56876 -0.13300
Br	Br	0.73892 0.07076 0.50226 -0.12900
Br	Br	0.94337 0.36616 0.47260 -0.14900
C 	C 	0.11243 0.07319 0.45743 -0.04700
C 	C 	0.12815 0.08330 0.41959 0.09100
C 	C 	0.19284 0.12067 0.41544 0.08200
C 	C 	0.24170 0.14606 0.44897 0.00800
C 	C 	0.22585 0.13546 0.48675 0.08100
C 	C 	0.16140 0.10053 0.49110 0.09100
C 	C 	0.30981 0.18415 0.44465 0.02400
C 	C 	0.33846 0.15404 0.43621 0.06600
C 	C 	0.40487 0.19051 0.43701 0.12600
C 	C 	0.44304 0.25690 0.44790 -0.11300
C 	C 	0.41406 0.28714 0.45484 0.12900
C 	C 	0.34722 0.25074 0.45217 0.06500
Br	Br	0.29263 0.16831 0.53243 -0.13300
Br	Br	0.06094 0.04571 0.37354 -0.12700
Br	Br	0.44371 0.14978 0.42280 -0.19000
Br	Br	0.30679 0.29180 0.45953 -0.12000
Br	Br	0.14012 0.09185 0.54329 -0.12600
Br	Br	0.21478 0.13758 0.36401 -0.12000
Br	Br	0.28694 0.06284 0.42487 -0.12800
Br	Br	0.46621 0.37807 0.47011 -0.13900
C 	C 	0.74741 0.51318 0.98624 -0.11500
C 	C 	0.71403 0.53953 0.98231 0.12600
C 	C 	0.74803 0.60493 0.98367 0.06500
C 	C 	0.81520 0.64358 0.98730 0.02400
C 	C 	0.84841 0.61692 0.99009 0.06400
C 	C 	0.81471 0.55202 0.99057 0.12900
C 	C 	0.85089 0.71221 0.98819 0.00300
C 	C 	0.85833 0.73520 0.95240 0.08200
C 	C 	0.89109 0.80031 0.95321 0.09300
C 	C 	0.91849 0.84272 0.98983 -0.05500
C 	C 	0.91250 0.81991 0.02562 0.09700
C 	C 	0.87756 0.75454 0.02480 0.08600
Br	Br	0.94007 0.66954 0.99311 -0.13100
Br	Br	0.62159 0.48560 0.97415 -0.15000
Br	Br	0.89774 0.83155 0.90422 -0.12800
Br	Br	0.86559 0.72264 0.07373 -0.12200
Br	Br	0.86090 0.51686 0.99917 -0.17600
Br	Br	0.70291 0.64195 0.98099 -0.12200
Br	Br	0.82389 0.67728 0.90236 -0.13100
Br	Br	0.95343 0.87851 0.07565 -0.12500
C 	C 	0.74001 0.15506 0.98601 -0.12800
C 	C 	0.74527 0.13339 0.02102 0.13600
C 	C 	0.77580 0.10400 0.02328 0.06800
C 	C 	0.81046 0.10611 0.99380 0.01800
C 	C 	0.80959 0.13267 0.96056 0.06300
C 	C 	0.76844 0.14982 0.95457 0.13300
C 	C 	0.84403 0.07664 0.99618 0.00400
C 	C 	0.90312 0.10751 0.02237 0.08700
C 	C 	0.93588 0.08036 0.02309 0.09000
C 	C 	0.91527 0.02847 0.99333 -0.04900
C 	C 	0.85842 0.00047 0.96540 0.08600
C 	C 	0.81988 0.02057 0.96956 0.07700
Br	Br	0.86577 0.14682 0.92373 -0.13200
Br	Br	0.71627 0.14875 0.06697 -0.16100
Br	Br	0.00559 0.11113 0.06629 -0.12300
Br	Br	0.73383 0.97105 0.93924 -0.11800
Br	Br	0.74364 0.15636 0.90185 -0.23700
Br	Br	0.76795 0.05879 0.06566 -0.12600
Br	Br	0.94077 0.18838 0.05552 -0.12900
Br	Br	0.83681 0.93951 0.91934 -0.12300
C 	C 	0.11640 0.05172 0.98081 -0.05200
C 	C 	0.13700 0.07066 0.94511 0.09200
C 	C 	0.20220 0.10324 0.94284 0.08300
C 	C 	0.24565 0.11183 0.97506 0.00200
C 	C 	0.22482 0.09245 0.01062 0.08500
C 	C 	0.16118 0.06585 0.01416 0.09600
C 	C 	0.31349 0.14239 0.97199 0.02500
C 	C 	0.33143 0.10663 0.95359 0.06400
C 	C 	0.39667 0.13417 0.95449 0.12700
C 	C 	0.44408 0.19474 0.97764 -0.11500
C 	C 	0.42580 0.23012 0.99646 0.12800
C 	C 	0.36088 0.20564 0.99086 0.06000
Br	Br	0.28295 0.10028 0.05390 -0.12900
Br	Br	0.07554 0.04941 0.89891 -0.13100
Br	Br	0.42093 0.09046 0.92242 -0.18100
Br	Br	0.33649 0.25820 0.00966 -0.11100
Br	Br	0.13542 0.05015 0.06489 -0.12500
Br	Br	0.23230 0.13676 0.89598 -0.12600
Br	Br	0.26682 0.01924 0.92876 -0.12900
Br	Br	0.48807 0.30822 0.03363 -0.17900
