data_crystal

_cell_length_a 23.14946
_cell_length_b 23.46811
_cell_length_c 35.03994
_cell_angle_alpha 95.47833
_cell_angle_beta  95.47770
_cell_angle_gamma 125.92583

_symmetry_space_group_name_	'P 1'
_symmetry_space_group_name_H-M	'P 1'

loop_
_symmetry_equiv_pos_as_xyz
  x,y,z

loop_
_atom_site_label
_atom_site_type_symbol
_atom_site_fract_x
_atom_site_fract_y
_atom_site_fract_z
_atom_site_charge
C 	C 	0.01985 0.97132 0.46305 0.12900
H 	H 	0.00985 0.18042 0.97072 0.03800
N 	N 	0.04655 0.10143 0.00248 -0.14100
N 	N 	0.03257 0.99316 0.99584 -0.14200
C 	C 	0.07575 0.06544 0.99933 0.11200
C 	C 	0.09711 0.01446 0.46626 -0.03800
C 	C 	0.97423 0.06492 0.00244 0.11800
C 	C 	0.96060 0.95674 0.99558 0.13000
N 	N 	0.93138 0.99247 0.99896 -0.14200
C 	C 	0.91117 0.95967 0.45474 0.12700
N 	N 	0.98447 0.00075 0.45815 -0.14100
N 	N 	0.98215 0.90087 0.46462 -0.14100
C 	C 	0.90885 0.85929 0.46110 0.11700
N 	N 	0.87308 0.88867 0.45610 -0.14000
Cu	Cu	0.64428 0.26352 0.00473 0.92800
Cu	Cu	0.69836 0.26485 0.92141 0.86900
Cu	Cu	0.68303 0.37570 0.95400 0.89600
Cu	Cu	0.64622 0.39599 0.03132 0.89400
C 	C 	0.66509 0.31555 0.08646 0.29500
O 	O 	0.53861 0.22129 0.00493 -0.36300
C 	C 	0.65614 0.32475 0.86862 0.29500
O 	O 	0.70300 0.37473 0.00817 -0.64000
O 	O 	0.63309 0.27049 0.94908 -0.64200
O 	O 	0.68963 0.21304 0.00172 -0.37500
O 	O 	0.76821 0.28652 0.96473 -0.44600
O 	O 	0.63402 0.34592 0.07642 -0.38700
O 	O 	0.73701 0.47858 0.96241 -0.38500
C 	C 	0.72980 0.51758 0.98848 0.29000
C 	C 	0.51033 0.25189 0.99136 0.30000
O 	O 	0.55308 0.31810 0.98606 -0.39800
O 	O 	0.68668 0.48927 0.01415 -0.39400
O 	O 	0.67020 0.27530 0.06004 -0.36500
C 	C 	0.75057 0.24143 0.98864 0.30700
O 	O 	0.68000 0.37846 0.89760 -0.38800
O 	O 	0.65114 0.26758 0.87475 -0.42500
H 	H 	0.75520 0.40577 0.02024 0.16300
H 	H 	0.58242 0.24084 0.93452 0.17100
Cu	Cu	0.72229 0.29835 0.44813 0.92500
Cu	Cu	0.73308 0.25502 0.53345 0.87000
Cu	Cu	0.61277 0.26036 0.50218 0.89600
Cu	Cu	0.58017 0.28644 0.42208 0.89400
C 	C 	0.67413 0.28863 0.36788 0.29600
O 	O 	0.76456 0.40222 0.44609 -0.37400
C 	C 	0.67337 0.29617 0.58692 0.29400
O 	O 	0.60977 0.23834 0.44765 -0.63800
O 	O 	0.71959 0.31332 0.50426 -0.64200
O 	O 	0.77344 0.25291 0.44984 -0.37200
O 	O 	0.70645 0.18180 0.49145 -0.44200
O 	O 	0.61188 0.27675 0.37221 -0.38900
O 	O 	0.50819 0.20339 0.49618 -0.38300
C 	C 	0.46624 0.20765 0.47018 0.29000
C 	C 	0.72938 0.42837 0.45454 0.30100
O 	O 	0.66356 0.38639 0.46152 -0.39600
O 	O 	0.49391 0.25457 0.44667 -0.39600
O 	O 	0.70643 0.27207 0.39269 -0.36700
C 	C 	0.74810 0.19547 0.46547 0.28600
O 	O 	0.61530 0.26580 0.55913 -0.39100
O 	O 	0.73258 0.30490 0.57948 -0.42200
H 	H 	0.58036 0.18635 0.43705 0.16500
H 	H 	0.74827 0.36416 0.51726 0.17100
C 	C 	0.58461 0.28032 0.76043 -0.09400
C 	C 	0.64657 0.33496 0.74786 0.00300
C 	C 	0.70548 0.39411 0.77551 0.02400
C 	C 	0.70548 0.39291 0.81551 -0.01700
C 	C 	0.64684 0.33419 0.82803 -0.11000
C 	C 	0.58382 0.28006 0.80043 0.09700
C 	C 	0.65341 0.32501 0.70657 0.00400
C 	C 	0.77053 0.45595 0.76253 -0.17200
H 	H 	0.75285 0.43573 0.83679 0.03600
C 	C 	0.51708 0.22013 0.81331 -0.20200
H 	H 	0.53839 0.23619 0.73908 0.05100
C 	C 	0.68099 0.28772 0.69427 0.02100
C 	C 	0.68725 0.27906 0.65509 -0.01400
C 	C 	0.66707 0.30761 0.62806 -0.11100
C 	C 	0.64083 0.34626 0.64053 0.10000
C 	C 	0.63270 0.35321 0.67960 -0.09400
C 	C 	0.70303 0.25644 0.72276 -0.16900
H 	H 	0.70723 0.24937 0.64548 0.02700
C 	C 	0.62106 0.37972 0.61248 -0.20400
H 	H 	0.61129 0.38154 0.68916 0.05200
H 	H 	0.52368 0.17836 0.81903 0.07100
H 	H 	0.46784 0.19515 0.79048 0.06600
H 	H 	0.50789 0.24056 0.84019 0.06900
H 	H 	0.75279 0.47519 0.73975 0.06400
H 	H 	0.80171 0.43865 0.75051 0.06100
H 	H 	0.80720 0.50186 0.78714 0.06000
H 	H 	0.72537 0.23060 0.70879 0.05500
H 	H 	0.65518 0.21525 0.73439 0.06100
H 	H 	0.74559 0.29929 0.74732 0.06000
H 	H 	0.56879 0.33741 0.59260 0.08000
H 	H 	0.66417 0.40905 0.59503 0.06900
H 	H 	0.61496 0.41883 0.62815 0.06700
C 	C 	0.75186 0.33196 0.18842 -0.09200
C 	C 	0.69275 0.30461 0.20767 0.00300
C 	C 	0.62396 0.27846 0.18671 0.02600
C 	C 	0.61570 0.28132 0.14691 -0.01400
C 	C 	0.67501 0.30983 0.12776 -0.10400
C 	C 	0.74360 0.33492 0.14853 0.09500
C 	C 	0.70387 0.30662 0.25026 0.00300
C 	C 	0.55975 0.24920 0.20690 -0.17300
H 	H 	0.56306 0.26173 0.13082 0.04300
C 	C 	0.80799 0.36512 0.12845 -0.20300
H 	H 	0.80443 0.35158 0.20460 0.05100
C 	C 	0.69152 0.24705 0.26491 0.02600
C 	C 	0.68620 0.24355 0.30436 -0.01400
C 	C 	0.69503 0.29959 0.32934 -0.10400
C 	C 	0.71553 0.36253 0.31561 0.09500
C 	C 	0.71911 0.36527 0.27600 -0.09200
C 	C 	0.67987 0.18549 0.23818 -0.17300
H 	H 	0.67218 0.19597 0.31520 0.04200
C 	C 	0.73123 0.42582 0.34278 -0.20600
H 	H 	0.73072 0.41182 0.26483 0.05100
H 	H 	0.79883 0.32214 0.10630 0.08200
H 	H 	0.85886 0.38786 0.14944 0.06700
H 	H 	0.81605 0.40871 0.11393 0.06400
H 	H 	0.56981 0.29243 0.22925 0.06500
H 	H 	0.55073 0.20510 0.22123 0.06500
H 	H 	0.50905 0.22743 0.18604 0.06200
H 	H 	0.68023 0.14770 0.25485 0.06300
H 	H 	0.72387 0.20578 0.22093 0.06700
H 	H 	0.62674 0.15558 0.21798 0.06400
H 	H 	0.75671 0.47415 0.32916 0.06900
H 	H 	0.76942 0.43921 0.36978 0.07900
H 	H 	0.67997 0.41307 0.35056 0.06800
C 	C 	0.81436 0.63903 0.45977 -0.00400
C 	C 	0.86580 0.69108 0.49203 -0.03900
C 	C 	0.89295 0.76268 0.49376 -0.02400
C 	C 	0.76270 0.50325 0.45630 -0.11700
C 	C 	0.81513 0.73017 0.43164 -0.02400
C 	C 	0.78802 0.65845 0.42991 -0.04000
C 	C 	0.78718 0.56534 0.45778 0.04100
C 	C 	0.86895 0.78287 0.46317 -0.01800
H 	H 	0.88552 0.67633 0.51552 0.03900
H 	H 	0.93427 0.80285 0.51833 0.04000
H 	H 	0.79643 0.74507 0.40777 0.04000
H 	H 	0.74743 0.61829 0.40512 0.03700
C 	C 	0.81885 0.06382 0.44853 0.03300
C 	C 	0.74945 0.03439 0.45664 -0.07000
C 	C 	0.72474 0.07630 0.46006 0.01300
C 	C 	0.87485 0.99256 0.45176 -0.03500
C 	C 	0.83776 0.17665 0.44569 0.01400
C 	C 	0.86231 0.13454 0.44222 -0.06900
C 	C 	0.84798 0.02373 0.44989 -0.00700
C 	C 	0.76956 0.14834 0.45566 -0.09500
H 	H 	0.71528 0.97963 0.46124 0.04700
H 	H 	0.67146 0.05327 0.46703 0.02800
H 	H 	0.87287 0.23192 0.44206 0.03200
H 	H 	0.91593 0.15760 0.43573 0.04900
C 	C 	0.23927 0.09097 0.47140 0.03300
C 	C 	0.27836 0.16003 0.46286 -0.06800
C 	C 	0.35278 0.19874 0.46321 0.01600
C 	C 	0.34960 0.09979 0.48143 0.01500
C 	C 	0.27509 0.06116 0.48105 -0.06800
C 	C 	0.16197 0.04965 0.46879 -0.00400
C 	C 	0.38867 0.16848 0.47205 -0.09000
H 	H 	0.25100 0.18350 0.45557 0.04800
H 	H 	0.38245 0.25213 0.45652 0.03200
H 	H 	0.37657 0.07579 0.48824 0.03000
H 	H 	0.24510 0.00774 0.48774 0.04800
C 	C 	0.84035 0.74066 0.98744 0.02900
C 	C 	0.77385 0.70161 0.00011 -0.06100
C 	C 	0.73716 0.62851 0.99995 0.00900
C 	C 	0.91592 0.88060 0.99250 -0.03900
C 	C 	0.83308 0.63317 0.97388 0.01400
C 	C 	0.86958 0.70623 0.97402 -0.06600
C 	C 	0.88050 0.81670 0.99006 -0.00300
C 	C 	0.76698 0.59401 0.98720 -0.08700
H 	H 	0.75092 0.72796 0.01043 0.04700
H 	H 	0.68567 0.59877 0.00976 0.03500
H 	H 	0.85684 0.60737 0.96409 0.03100
H 	H 	0.92109 0.73626 0.96422 0.04700
C 	C 	0.87028 0.16696 0.00494 -0.00400
C 	C 	0.92961 0.19289 0.98604 -0.04200
C 	C 	0.96546 0.16137 0.98641 -0.02600
C 	C 	0.79264 0.21556 0.99586 -0.12500
C 	C 	0.88433 0.07954 0.02585 -0.02400
C 	C 	0.84856 0.11110 0.02541 -0.03900
C 	C 	0.82818 0.19370 0.00061 0.04600
C 	C 	0.94200 0.10348 0.00563 -0.01700
H 	H 	0.94679 0.23623 0.97023 0.03700
H 	H 	0.86652 0.03578 0.04140 0.04200
H 	H 	0.80300 0.09107 0.04027 0.04100
C 	C 	0.29867 0.16400 0.99518 -0.00600
C 	C 	0.26405 0.11493 0.01989 -0.03600
C 	C 	0.19215 0.08530 0.02264 -0.02600
C 	C 	0.43517 0.21970 0.99121 -0.11300
C 	C 	0.18961 0.15526 0.97668 -0.02800
C 	C 	0.26172 0.18492 0.97396 -0.03800
C 	C 	0.37270 0.19412 0.99242 0.04300
C 	C 	0.15415 0.10439 0.00057 -0.01300
H 	H 	0.29267 0.09932 0.03679 0.04100
H 	H 	0.16555 0.04662 0.04147 0.04200
H 	H 	0.16078 0.17024 0.95941 0.03900
H 	H 	0.28851 0.22353 0.95512 0.03900
