data_crystal

_cell_length_a 25.89923
_cell_length_b 26.70442
_cell_length_c 26.17269
_cell_angle_alpha 95.50031
_cell_angle_beta  95.49936
_cell_angle_gamma 125.87346

_symmetry_space_group_name_	'P 1'
_symmetry_space_group_name_H-M	'P 1'

loop_
_symmetry_equiv_pos_as_xyz
  x,y,z

loop_
_atom_site_label
_atom_site_type_symbol
_atom_site_fract_x
_atom_site_fract_y
_atom_site_fract_z
_atom_site_charge
C 	C 	0.97429 0.04423 0.97650 0.13200
C 	C 	0.03784 0.07333 0.96794 -0.09600
C 	C 	0.06723 0.04319 0.97399 0.12700
C 	C 	0.03222 0.98331 0.98727 -0.09900
C 	C 	0.96745 0.95276 0.99265 0.13800
C 	C 	0.93882 0.98354 0.98788 -0.09600
H 	H 	0.06468 0.11963 0.95770 0.10700
H 	H 	0.05469 0.95981 0.99186 0.10500
H 	H 	0.88904 0.96031 0.99298 0.10600
C 	C 	0.92095 0.97358 0.44525 0.12000
C 	C 	0.98895 0.01133 0.45624 -0.07800
C 	C 	0.02094 0.98351 0.45961 0.10900
C 	C 	0.98489 0.91802 0.45391 -0.07400
C 	C 	0.91689 0.88001 0.44288 0.11600
C 	C 	0.88490 0.90780 0.43777 -0.08400
H 	H 	0.01686 0.06209 0.46136 0.09800
H 	H 	0.00968 0.89659 0.45720 0.09600
H 	H 	0.83234 0.87851 0.42874 0.10400
Cu	Cu	0.66843 0.28393 0.00489 0.93100
Cu	Cu	0.71734 0.29042 0.89384 0.89900
Cu	Cu	0.68393 0.38345 0.94520 0.92200
Cu	Cu	0.63925 0.37859 0.04742 0.90900
C 	C 	0.67322 0.31509 0.11501 0.31300
O 	O 	0.57048 0.22858 0.99838 -0.32800
C 	C 	0.71555 0.38024 0.84585 0.31200
O 	O 	0.70188 0.37830 0.01669 -0.63700
O 	O 	0.65923 0.29621 0.93192 -0.62400
O 	O 	0.73029 0.26179 0.00319 -0.34700
O 	O 	0.70025 0.21829 0.91673 -0.38900
O 	O 	0.63393 0.32998 0.10230 -0.35900
O 	O 	0.71366 0.46951 0.96022 -0.34300
C 	C 	0.70969 0.49575 0.00357 0.33000
C 	C 	0.53597 0.24811 0.98352 0.31900
O 	O 	0.56492 0.30798 0.98229 -0.36400
O 	O 	0.66608 0.46164 0.03207 -0.35300
O 	O 	0.68614 0.28778 0.07895 -0.33400
C 	C 	0.72580 0.22342 0.96438 0.34100
O 	O 	0.67877 0.38764 0.87163 -0.34400
O 	O 	0.75356 0.36899 0.87004 -0.39700
H 	H 	0.74736 0.41091 0.03467 0.19300
H 	H 	0.61420 0.26581 0.91227 0.18700
Cu	Cu	0.72429 0.31461 0.43431 0.93500
Cu	Cu	0.75082 0.29374 0.55280 0.89100
Cu	Cu	0.63690 0.29047 0.51426 0.90600
Cu	Cu	0.59185 0.29616 0.40466 0.91400
C 	C 	0.66835 0.29193 0.32796 0.30900
O 	O 	0.75591 0.40170 0.42305 -0.34100
C 	C 	0.70388 0.33771 0.62550 0.30500
O 	O 	0.62586 0.26126 0.44149 -0.63600
O 	O 	0.73080 0.33745 0.51002 -0.63600
O 	O 	0.77511 0.28039 0.43732 -0.33700
O 	O 	0.72690 0.22535 0.50070 -0.40500
O 	O 	0.61265 0.27956 0.33622 -0.34200
O 	O 	0.54459 0.23898 0.51395 -0.35000
C 	C 	0.50127 0.23417 0.47855 0.33400
C 	C 	0.72516 0.42521 0.43500 0.32500
O 	O 	0.66875 0.38985 0.44918 -0.36100
O 	O 	0.51889 0.27001 0.44271 -0.35100
O 	O 	0.70200 0.28216 0.36103 -0.33900
C 	C 	0.75981 0.23488 0.46295 0.33400
O 	O 	0.64885 0.30745 0.59118 -0.36500
O 	O 	0.75494 0.34303 0.61324 -0.37600
H 	H 	0.60037 0.21497 0.43154 0.19800
H 	H 	0.75626 0.38313 0.52374 0.20000
C 	C 	0.70995 0.37847 0.78914 -0.10300
C 	C 	0.76602 0.41614 0.76823 -0.04600
C 	C 	0.76347 0.40640 0.71420 0.17400
C 	C 	0.70481 0.35699 0.68077 -0.08900
C 	C 	0.64781 0.32238 0.70145 -0.05500
C 	C 	0.65016 0.33324 0.75534 0.17700
H 	H 	0.81197 0.45205 0.79398 0.08700
O 	O 	0.81870 0.44402 0.69438 -0.25900
H 	H 	0.60210 0.28512 0.67609 0.09000
O 	O 	0.59482 0.29626 0.77522 -0.28000
H 	H 	0.57501 0.31872 0.77581 0.18600
H 	H 	0.81852 0.47950 0.68641 0.17300
C 	C 	0.68322 0.29997 0.27536 -0.08400
C 	C 	0.71295 0.35928 0.26169 -0.04800
C 	C 	0.71444 0.36542 0.20922 0.18000
C 	C 	0.68668 0.31196 0.17004 -0.08400
C 	C 	0.66186 0.25347 0.18425 -0.04300
C 	C 	0.66006 0.24734 0.23677 0.18400
H 	H 	0.73229 0.40025 0.29149 0.08500
O 	O 	0.74272 0.42363 0.19624 -0.26800
H 	H 	0.64065 0.21210 0.15436 0.09700
O 	O 	0.63170 0.18917 0.24981 -0.25400
H 	H 	0.66754 0.18556 0.25751 0.18100
H 	H 	0.70795 0.42915 0.19220 0.16600
C 	C 	0.87936 0.81082 0.43620 -0.04700
C 	C 	0.87902 0.77670 0.39144 0.09100
C 	C 	0.85459 0.71347 0.38953 0.08200
C 	C 	0.82513 0.68264 0.43030 0.00900
C 	C 	0.82005 0.71520 0.47277 0.08100
C 	C 	0.84943 0.77985 0.47679 0.09300
C 	C 	0.80111 0.61655 0.42928 0.02400
C 	C 	0.73981 0.56663 0.39966 0.06500
C 	C 	0.71745 0.50409 0.39840 0.12800
C 	C 	0.75305 0.49100 0.43111 -0.11700
C 	C 	0.81409 0.54097 0.46132 0.12900
C 	C 	0.83919 0.60361 0.45864 0.06400
Br	Br	0.77292 0.67111 0.52539 -0.12100
Br	Br	0.91111 0.81650 0.33253 -0.11800
Br	Br	0.64039 0.43670 0.34940 -0.19900
Br	Br	0.92581 0.67180 0.49488 -0.12000
Br	Br	0.85191 0.82667 0.53908 -0.11900
Br	Br	0.86356 0.66974 0.33216 -0.12300
Br	Br	0.68582 0.58396 0.36204 -0.12000
Br	Br	0.86171 0.52393 0.50843 -0.17000
C 	C 	0.88757 0.00328 0.44194 -0.05000
C 	C 	0.86910 0.01764 0.48671 0.09200
C 	C 	0.84371 0.05193 0.48510 0.08100
C 	C 	0.83861 0.07358 0.43921 0.00900
C 	C 	0.85507 0.05745 0.39392 0.08100
C 	C 	0.87867 0.02155 0.39511 0.09200
C 	C 	0.81922 0.11604 0.43952 0.02300
C 	C 	0.75346 0.09091 0.42460 0.06500
C 	C 	0.73457 0.13077 0.42905 0.12800
C 	C 	0.78099 0.19530 0.45033 -0.11700
C 	C 	0.84706 0.22081 0.46341 0.12500
C 	C 	0.86626 0.18134 0.45715 0.06600
Br	Br	0.84671 0.08589 0.33077 -0.11500
Br	Br	0.88072 0.99212 0.55068 -0.11700
Br	Br	0.64547 0.09743 0.40496 -0.15500
Br	Br	0.95686 0.21637 0.47345 -0.12000
Br	Br	0.89920 0.99755 0.33277 -0.11500
Br	Br	0.81664 0.07010 0.54588 -0.12900
Br	Br	0.68924 0.00173 0.39934 -0.11800
Br	Br	0.91086 0.30926 0.49220 -0.16400
C 	C 	0.43330 0.19769 0.48556 -0.11000
C 	C 	0.40695 0.22903 0.50093 0.12900
C 	C 	0.33984 0.19454 0.49969 0.06600
C 	C 	0.29950 0.12841 0.48556 0.02300
C 	C 	0.32678 0.09680 0.47458 0.06700
C 	C 	0.39351 0.13147 0.47372 0.12500
C 	C 	0.22812 0.09243 0.47925 0.00900
C 	C 	0.19765 0.07320 0.52267 0.08100
C 	C 	0.12993 0.03949 0.51658 0.09200
C 	C 	0.09238 0.02280 0.46672 -0.04800
C 	C 	0.12279 0.04155 0.42324 0.09200
C 	C 	0.19070 0.07740 0.42969 0.08000
Br	Br	0.27236 0.00606 0.45991 -0.12000
Br	Br	0.46317 0.31895 0.52517 -0.14100
Br	Br	0.08847 0.01669 0.57649 -0.12600
Br	Br	0.23276 0.10626 0.37078 -0.12000
Br	Br	0.43004 0.08847 0.45443 -0.16000
Br	Br	0.30269 0.23776 0.51581 -0.11700
Br	Br	0.24876 0.09247 0.59020 -0.11800
Br	Br	0.07110 0.01652 0.35463 -0.12000
C 	C 	0.74601 0.56445 0.01470 -0.11100
C 	C 	0.71350 0.59170 0.00754 0.12800
C 	C 	0.74945 0.65731 0.01233 0.06600
C 	C 	0.81770 0.69516 0.02108 0.02400
C 	C 	0.85006 0.66831 0.03100 0.06700
C 	C 	0.81413 0.60311 0.02884 0.12600
C 	C 	0.85489 0.76127 0.01390 0.00800
C 	C 	0.86306 0.77508 0.96338 0.08100
C 	C 	0.89813 0.83775 0.95634 0.09800
C 	C 	0.92831 0.88695 0.00003 -0.06000
C 	C 	0.92051 0.87327 0.05060 0.09600
C 	C 	0.88264 0.81034 0.05743 0.08000
Br	Br	0.94363 0.72066 0.04531 -0.11700
Br	Br	0.62019 0.53901 0.98773 -0.12800
Br	Br	0.90304 0.85633 0.88675 -0.11800
Br	Br	0.86830 0.79110 0.12618 -0.10700
Br	Br	0.85800 0.56648 0.04530 -0.17600
Br	Br	0.70552 0.69548 0.00550 -0.11700
Br	Br	0.82692 0.70794 0.90400 -0.12400
Br	Br	0.96219 0.94087 0.11037 -0.11700
C 	C 	0.94534 0.07801 0.97530 -0.05100
C 	C 	0.94839 0.11107 0.02220 0.09300
C 	C 	0.91371 0.13637 0.02233 0.07800
C 	C 	0.87642 0.12912 0.97545 0.01200
C 	C 	0.87522 0.09798 0.92822 0.08000
C 	C 	0.90964 0.07238 0.92818 0.09400
C 	C 	0.83876 0.15455 0.97575 0.02400
C 	C 	0.77387 0.11645 0.98290 0.06600
C 	C 	0.73727 0.13978 0.98085 0.13000
C 	C 	0.76552 0.20109 0.97169 -0.12000
C 	C 	0.83102 0.23989 0.96630 0.12900
C 	C 	0.86756 0.21657 0.96818 0.06600
Br	Br	0.82586 0.09003 0.86380 -0.12600
Br	Br	0.99937 0.12068 0.08635 -0.11500
Br	Br	0.64837 0.08787 0.99035 -0.14100
Br	Br	0.95689 0.26913 0.95971 -0.11700
Br	Br	0.90706 0.02850 0.86383 -0.12300
Br	Br	0.91651 0.18038 0.08671 -0.11600
Br	Br	0.73524 0.03220 0.99497 -0.11800
Br	Br	0.87027 0.32477 0.95560 -0.19900
C 	C 	0.46450 0.20345 0.97007 -0.10800
C 	C 	0.42881 0.16431 0.00508 0.12000
C 	C 	0.36110 0.13121 0.99681 0.07100
C 	C 	0.33033 0.14357 0.95823 0.02200
C 	C 	0.36542 0.18080 0.92229 0.06700
C 	C 	0.43136 0.20671 0.92607 0.12600
C 	C 	0.26308 0.12208 0.95853 0.00800
C 	C 	0.21088 0.06891 0.92245 0.08200
C 	C 	0.14710 0.04780 0.92405 0.09100
C 	C 	0.13465 0.07401 0.96606 -0.04800
C 	C 	0.18689 0.12666 0.00267 0.08800
C 	C 	0.25098 0.15297 0.99678 0.08600
Br	Br	0.32448 0.19980 0.87029 -0.11500
Br	Br	0.47262 0.16086 0.06712 -0.14400
Br	Br	0.07729 0.98531 0.86760 -0.12200
Br	Br	0.32228 0.23135 0.04088 -0.13200
Br	Br	0.47564 0.24430 0.87014 -0.17400
Br	Br	0.31047 0.06994 0.03893 -0.12500
Br	Br	0.22649 0.02314 0.87281 -0.11600
Br	Br	0.17091 0.15975 0.06289 -0.12700
