data_crystal

_cell_length_a 18.35201
_cell_length_b 18.93394
_cell_length_c 34.66590
_cell_angle_alpha 95.42490
_cell_angle_beta  95.42509
_cell_angle_gamma 126.41140

_symmetry_space_group_name_	'P 1'
_symmetry_space_group_name_H-M	'P 1'

loop_
_symmetry_equiv_pos_as_xyz
  x,y,z

loop_
_atom_site_label
_atom_site_type_symbol
_atom_site_fract_x
_atom_site_fract_y
_atom_site_fract_z
_atom_site_charge
C 	C 	0.95288 0.03397 0.97759 0.12300
N 	N 	0.90771 0.94451 0.97580 -0.13300
C 	C 	0.95580 0.91062 0.97502 0.12400
N 	N 	0.04808 0.96608 0.97601 -0.13700
C 	C 	0.09329 0.05539 0.97931 0.12300
N 	N 	0.04547 0.08892 0.97989 -0.13800
C 	C 	0.88913 0.98592 0.47888 0.12300
N 	N 	0.98050 0.03479 0.47749 -0.13400
C 	C 	0.02027 0.99318 0.47342 0.11700
N 	N 	0.96894 0.90367 0.47135 -0.13200
C 	C 	0.87802 0.85519 0.47237 0.12600
N 	N 	0.83814 0.89621 0.47603 -0.13600
Cu	Cu	0.80477 0.38190 0.96465 0.92900
Cu	Cu	0.77121 0.29440 0.04429 0.87500
Cu	Cu	0.66548 0.35394 0.01468 0.89700
Cu	Cu	0.63340 0.37651 0.93177 0.90400
C 	C 	0.74724 0.36149 0.88158 0.31100
O 	O 	0.85607 0.51318 0.96557 -0.34700
C 	C 	0.70666 0.35816 0.09949 0.30000
O 	O 	0.66199 0.31351 0.96015 -0.63100
O 	O 	0.79364 0.39277 0.02057 -0.64300
O 	O 	0.86247 0.31876 0.96844 -0.35000
O 	O 	0.74959 0.21695 0.99855 -0.42200
O 	O 	0.71256 0.40309 0.89160 -0.38300
O 	O 	0.54323 0.32542 0.00817 -0.36900
C 	C 	0.48123 0.28656 0.97524 0.29700
C 	C 	0.81219 0.54525 0.97693 0.27700
O 	O 	0.72446 0.49001 0.97921 -0.39100
O 	O 	0.50542 0.30185 0.94061 -0.38300
O 	O 	0.79396 0.35115 0.90870 -0.34400
C 	C 	0.81756 0.24095 0.97992 0.29500
O 	O 	0.67125 0.37888 0.07176 -0.35800
O 	O 	0.76957 0.34713 0.09367 -0.40800
H 	H 	0.62056 0.24776 0.95148 0.17400
H 	H 	0.83972 0.45283 0.03713 0.17900
Cu	Cu	0.57895 0.18193 0.50768 0.92600
Cu	Cu	0.60611 0.14333 0.41628 0.89100
Cu	Cu	0.60061 0.30544 0.45194 0.91400
Cu	Cu	0.58179 0.34826 0.53357 0.90100
C 	C 	0.61888 0.25895 0.59041 0.30800
O 	O 	0.44587 0.12834 0.51239 -0.34600
C 	C 	0.60523 0.26370 0.37277 0.30600
O 	O 	0.64654 0.31822 0.50643 -0.63800
O 	O 	0.54915 0.17807 0.45038 -0.62800
O 	O 	0.65194 0.13404 0.50736 -0.35600
O 	O 	0.59173 0.05706 0.44406 -0.40900
O 	O 	0.57726 0.29440 0.58094 -0.36500
O 	O 	0.65931 0.43010 0.45351 -0.37500
C 	C 	0.67418 0.48688 0.48412 0.29800
C 	C 	0.40724 0.16440 0.49936 0.28700
O 	O 	0.45834 0.24550 0.49195 -0.39400
O 	O 	0.62793 0.45965 0.51322 -0.38500
O 	O 	0.62288 0.20756 0.56358 -0.35200
C 	C 	0.64867 0.08370 0.47729 0.29300
O 	O 	0.56693 0.28726 0.39538 -0.37400
O 	O 	0.65644 0.24297 0.38881 -0.40000
H 	H 	0.71452 0.36018 0.51435 0.16800
H 	H 	0.48186 0.13851 0.44027 0.16300
C 	C 	0.72321 0.25121 0.77929 -0.07300
C 	C 	0.73585 0.31510 0.75734 0.02800
C 	C 	0.76571 0.39907 0.77711 0.05600
C 	C 	0.77655 0.41597 0.81823 -0.00300
C 	C 	0.75535 0.34908 0.83992 -0.08900
C 	C 	0.73187 0.26734 0.82046 0.11600
C 	C 	0.70192 0.28856 0.71421 0.02400
N 	N 	0.77900 0.46518 0.75525 -0.01600
H 	H 	0.79793 0.48015 0.83320 0.06400
N 	N 	0.71307 0.19921 0.84208 -0.02200
H 	H 	0.70130 0.18694 0.76420 0.08200
C 	C 	0.75906 0.29561 0.68788 0.06100
C 	C 	0.72996 0.28259 0.64717 -0.00500
C 	C 	0.64365 0.26097 0.63254 -0.08600
C 	C 	0.58324 0.24554 0.65872 0.12100
C 	C 	0.61345 0.26119 0.69937 -0.07200
N 	N 	0.84567 0.31423 0.70221 -0.01700
H 	H 	0.77544 0.29147 0.62708 0.06100
N 	N 	0.49020 0.21100 0.64403 -0.02300
H 	H 	0.56803 0.25222 0.71952 0.07900
O 	O 	0.76128 0.16955 0.84107 -0.09900
O 	O 	0.64213 0.16068 0.85943 -0.11200
O 	O 	0.73499 0.49851 0.76029 -0.10100
O 	O 	0.83855 0.49538 0.73187 -0.08800
O 	O 	0.43627 0.13607 0.61878 -0.09700
O 	O 	0.45673 0.24937 0.65897 -0.10400
O 	O 	0.86198 0.25891 0.68946 -0.09700
O 	O 	0.91063 0.38945 0.72564 -0.08500
C 	C 	0.57976 0.30936 0.18499 -0.07200
C 	C 	0.65249 0.34583 0.21695 0.02700
C 	C 	0.74400 0.39620 0.21059 0.05700
C 	C 	0.76133 0.40558 0.17218 -0.00500
C 	C 	0.68814 0.36314 0.13983 -0.08800
C 	C 	0.59686 0.31644 0.14642 0.11400
C 	C 	0.63192 0.32014 0.25573 0.02400
N 	N 	0.81920 0.43383 0.24283 -0.01600
H 	H 	0.83177 0.44334 0.16740 0.06300
N 	N 	0.52099 0.27021 0.11391 -0.02200
H 	H 	0.50933 0.27083 0.18982 0.07900
C 	C 	0.61401 0.36597 0.28283 0.05900
C 	C 	0.60216 0.34511 0.32062 -0.00300
C 	C 	0.60624 0.27757 0.33138 -0.09000
C 	C 	0.61689 0.22712 0.30302 0.11500
C 	C 	0.63161 0.24999 0.26576 -0.07000
N 	N 	0.60679 0.43300 0.27198 -0.01600
H 	H 	0.59216 0.38306 0.34187 0.06800
N 	N 	0.61008 0.15107 0.31155 -0.02500
H 	H 	0.64213 0.21261 0.24442 0.07800
O 	O 	0.46945 0.29574 0.10836 -0.09700
O 	O 	0.49827 0.19772 0.09218 -0.12600
O 	O 	0.87696 0.41544 0.24144 -0.09900
O 	O 	0.83274 0.49009 0.27262 -0.08600
O 	O 	0.53493 0.08448 0.32086 -0.14200
O 	O 	0.67610 0.14537 0.30703 -0.10800
O 	O 	0.53202 0.42526 0.27407 -0.09900
O 	O 	0.67729 0.50491 0.26294 -0.08600
C 	C 	0.82609 0.76098 0.47485 -0.01000
C 	C 	0.85170 0.73705 0.50757 -0.05000
C 	C 	0.80275 0.64746 0.51086 0.05300
C 	C 	0.72667 0.58104 0.48130 -0.08500
C 	C 	0.70138 0.60498 0.44844 -0.00000
C 	C 	0.75097 0.69454 0.44497 0.01000
S 	S 	0.83927 0.61907 0.55139 -0.04600
S 	S 	0.72010 0.72246 0.40259 -0.00700
H 	H 	0.65909 0.73940 0.40956 0.04500
H 	H 	0.79445 0.61619 0.58135 0.04500
H 	H 	0.90989 0.78836 0.53046 0.05900
H 	H 	0.64310 0.55374 0.42557 0.05200
C 	C 	0.84480 0.02937 0.48342 -0.01000
C 	C 	0.83785 0.07020 0.45314 -0.05300
C 	C 	0.77575 0.09045 0.45127 0.05700
C 	C 	0.71800 0.06740 0.47954 -0.09300
C 	C 	0.73037 0.03315 0.51150 0.00000
C 	C 	0.79440 0.01540 0.51391 0.01000
S 	S 	0.77443 0.14834 0.41464 -0.09100
S 	S 	0.81240 0.97749 0.55561 -0.01500
H 	H 	0.88192 0.04940 0.58361 0.04600
H 	H 	0.71136 0.08814 0.38175 0.04400
H 	H 	0.87842 0.08337 0.43024 0.06100
H 	H 	0.68971 0.01974 0.53439 0.05200
C 	C 	0.12071 0.04559 0.47690 -0.00900
C 	C 	0.17814 0.11016 0.51095 -0.05300
C 	C 	0.27086 0.14511 0.51995 0.05400
C 	C 	0.30734 0.11594 0.49449 -0.08200
C 	C 	0.25062 0.05328 0.45986 -0.00600
C 	C 	0.15825 0.01951 0.45049 0.01000
S 	S 	0.34009 0.22391 0.56369 -0.03600
S 	S 	0.09154 0.94833 0.40472 -0.01600
H 	H 	0.09898 0.99852 0.37716 0.04200
H 	H 	0.31986 0.17984 0.59477 0.06800
H 	H 	0.14965 0.13025 0.53140 0.05800
H 	H 	0.27939 0.03362 0.43937 0.03600
C 	C 	0.90890 0.81410 0.97377 -0.00600
C 	C 	0.88306 0.77885 0.00813 -0.05500
C 	C 	0.85617 0.69287 0.01031 0.04300
C 	C 	0.85405 0.64071 0.97762 -0.07300
C 	C 	0.87920 0.67577 0.94317 -0.01100
C 	C 	0.90561 0.76146 0.94094 0.01100
S 	S 	0.82927 0.65297 0.05469 -0.03800
S 	S 	0.93236 0.80131 0.89655 -0.01200
H 	H 	0.02511 0.84781 0.89756 0.04300
H 	H 	0.73647 0.60623 0.05363 0.04900
H 	H 	0.88705 0.81951 0.03370 0.05700
H 	H 	0.87555 0.63529 0.91762 0.05100
C 	C 	0.90287 0.07276 0.97834 -0.00400
C 	C 	0.91236 0.12124 0.01414 -0.05900
C 	C 	0.88996 0.18035 0.01472 0.05400
C 	C 	0.85420 0.18921 0.97916 -0.08300
C 	C 	0.84195 0.13873 0.94340 -0.00300
C 	C 	0.86617 0.08079 0.94280 0.00900
S 	S 	0.91175 0.24644 0.05997 -0.10700
S 	S 	0.85172 0.01986 0.89734 -0.00700
H 	H 	0.93169 0.06760 0.88278 0.04500
H 	H 	0.99885 0.32549 0.06586 0.04700
H 	H 	0.94206 0.11664 0.04146 0.05900
H 	H 	0.81266 0.14369 0.91609 0.06300
C 	C 	0.19306 0.11535 0.97920 -0.00800
C 	C 	0.22652 0.18042 0.95534 -0.05200
C 	C 	0.32094 0.24008 0.95542 0.05400
C 	C 	0.38265 0.23104 0.97763 -0.07500
C 	C 	0.34945 0.16682 0.00188 -0.01000
C 	C 	0.25568 0.11078 0.00369 0.01000
S 	S 	0.36128 0.32996 0.93034 -0.03000
S 	S 	0.21910 0.04022 0.03870 -0.01400
H 	H 	0.22356 0.08495 0.07340 0.04900
H 	H 	0.38011 0.40152 0.95546 0.04500
H 	H 	0.17904 0.18570 0.93720 0.05800
H 	H 	0.39679 0.16065 0.01948 0.05500
