data_crystal

_cell_length_a 27.63292
_cell_length_b 28.20981
_cell_length_c 45.45358
_cell_angle_alpha 95.56704
_cell_angle_beta  95.56508
_cell_angle_gamma 125.65214

_symmetry_space_group_name_	'P 1'
_symmetry_space_group_name_H-M	'P 1'

loop_
_symmetry_equiv_pos_as_xyz
  x,y,z

loop_
_atom_site_label
_atom_site_type_symbol
_atom_site_fract_x
_atom_site_fract_y
_atom_site_fract_z
_atom_site_charge
N 	N 	0.03308 0.06187 0.99722 -0.14100
C 	C 	0.05979 0.03417 0.99454 0.13200
N 	N 	0.02693 0.97482 0.99356 -0.14000
C 	C 	0.02298 0.99964 0.46673 0.13500
Cu	Cu	0.64952 0.25553 0.00233 0.92900
Cu	Cu	0.70003 0.25652 0.93993 0.87200
Cu	Cu	0.68497 0.34830 0.96255 0.89700
Cu	Cu	0.64970 0.36552 0.02073 0.89600
C 	C 	0.66294 0.29946 0.06470 0.30700
O 	O 	0.56083 0.22055 0.00060 -0.36200
C 	C 	0.66765 0.30553 0.89726 0.30800
O 	O 	0.69876 0.34774 0.00465 -0.64000
O 	O 	0.64321 0.26100 0.95923 -0.64100
O 	O 	0.68702 0.21291 0.00193 -0.37100
O 	O 	0.75535 0.27410 0.97475 -0.44300
O 	O 	0.63744 0.32468 0.05591 -0.38400
O 	O 	0.73000 0.43379 0.96869 -0.38100
C 	C 	0.72471 0.46633 0.98913 0.31000
C 	C 	0.53777 0.24569 0.98891 0.30300
O 	O 	0.57392 0.30057 0.98494 -0.39500
O 	O 	0.68437 0.44230 0.00680 -0.39300
O 	O 	0.66829 0.26566 0.04517 -0.36100
C 	C 	0.73853 0.23561 0.99264 0.31200
O 	O 	0.68469 0.34986 0.91910 -0.38400
O 	O 	0.66326 0.25837 0.90285 -0.42100
H 	H 	0.74196 0.37351 0.01471 0.16600
H 	H 	0.60149 0.23625 0.94722 0.17500
Cu	Cu	0.72757 0.33224 0.46141 0.92800
Cu	Cu	0.73034 0.28631 0.52478 0.87200
Cu	Cu	0.63493 0.29905 0.50246 0.89800
Cu	Cu	0.61415 0.33161 0.44409 0.89500
C 	C 	0.67813 0.31552 0.39932 0.30600
O 	O 	0.76320 0.41943 0.46247 -0.35900
C 	C 	0.68240 0.32029 0.56758 0.30800
O 	O 	0.63368 0.28454 0.46019 -0.63900
O 	O 	0.72395 0.34027 0.50476 -0.64000
O 	O 	0.76952 0.29337 0.46142 -0.36900
O 	O 	0.70907 0.22962 0.49045 -0.44300
O 	O 	0.65402 0.34200 0.40839 -0.38500
O 	O 	0.54762 0.25437 0.49733 -0.38000
C 	C 	0.51321 0.25722 0.47639 0.30800
C 	C 	0.73750 0.44236 0.47387 0.30000
O 	O 	0.68222 0.40713 0.47890 -0.39300
O 	O 	0.53677 0.29770 0.45919 -0.39300
O 	O 	0.71501 0.31241 0.41842 -0.36000
C 	C 	0.74645 0.24370 0.47166 0.30800
O 	O 	0.63542 0.30038 0.54609 -0.38500
O 	O 	0.73035 0.32453 0.56168 -0.42000
H 	H 	0.60716 0.24202 0.45047 0.16500
H 	H 	0.74930 0.38156 0.51626 0.17400
C 	C 	0.67119 0.34027 0.65617 -0.00900
C 	C 	0.72233 0.36075 0.67777 -0.03100
C 	C 	0.71814 0.36004 0.70813 -0.04300
C 	C 	0.66277 0.33890 0.71710 0.00900
C 	C 	0.61224 0.32074 0.69564 -0.04300
C 	C 	0.61645 0.32139 0.66522 -0.03000
C 	C 	0.65641 0.33070 0.74834 0.00900
C 	C 	0.65181 0.28274 0.75802 -0.04400
C 	C 	0.65056 0.27728 0.78821 -0.03100
C 	C 	0.65398 0.31975 0.80893 -0.00900
C 	C 	0.65699 0.36691 0.79916 -0.03000
C 	C 	0.65815 0.37235 0.76890 -0.04300
C 	C 	0.65834 0.31682 0.84044 0.04700
C 	C 	0.66190 0.31239 0.86654 -0.11000
C 	C 	0.67353 0.33334 0.62464 0.04700
C 	C 	0.67702 0.32810 0.59845 -0.11000
H 	H 	0.76484 0.37554 0.67094 0.03800
H 	H 	0.75743 0.37432 0.72458 0.04100
H 	H 	0.56934 0.30449 0.70239 0.04200
H 	H 	0.57675 0.30564 0.64865 0.04100
H 	H 	0.65025 0.25029 0.74226 0.04100
H 	H 	0.64814 0.24068 0.79559 0.03800
H 	H 	0.65957 0.39988 0.81505 0.04100
H 	H 	0.66157 0.40946 0.76158 0.04200
C 	C 	0.67550 0.28591 0.15322 -0.00600
C 	C 	0.62324 0.24136 0.16274 -0.03000
C 	C 	0.62379 0.23928 0.19336 -0.04300
C 	C 	0.67665 0.28185 0.21467 0.00900
C 	C 	0.72957 0.32522 0.20502 -0.04200
C 	C 	0.72896 0.32724 0.17436 -0.03000
C 	C 	0.67522 0.28382 0.24710 0.00900
C 	C 	0.63816 0.29593 0.25957 -0.04300
C 	C 	0.63797 0.29953 0.29042 -0.03000
C 	C 	0.67483 0.29114 0.30905 -0.00700
C 	C 	0.71137 0.27834 0.29662 -0.03000
C 	C 	0.71160 0.27469 0.26571 -0.04200
C 	C 	0.67725 0.29866 0.34108 0.04600
C 	C 	0.67790 0.30539 0.36775 -0.10100
C 	C 	0.67288 0.29168 0.12208 0.04700
C 	C 	0.66937 0.29545 0.09588 -0.10100
H 	H 	0.58180 0.20915 0.14650 0.04200
H 	H 	0.58283 0.20542 0.20058 0.04200
H 	H 	0.77061 0.35827 0.22130 0.04200
H 	H 	0.76959 0.36172 0.16714 0.03900
H 	H 	0.61010 0.30324 0.24541 0.04200
H 	H 	0.60974 0.30960 0.29990 0.04000
H 	H 	0.74004 0.27186 0.31090 0.04200
H 	H 	0.74017 0.26509 0.25627 0.04200
C 	C 	0.84794 0.73262 0.47128 0.01700
C 	C 	0.81216 0.68785 0.44564 -0.04300
C 	C 	0.79110 0.62942 0.44664 -0.02800
C 	C 	0.80576 0.61545 0.47326 -0.00800
C 	C 	0.84072 0.66000 0.49903 -0.02900
C 	C 	0.86178 0.71846 0.49804 -0.04300
C 	C 	0.78332 0.55499 0.47430 0.04600
C 	C 	0.76386 0.50402 0.47446 -0.10800
C 	C 	0.87548 0.79387 0.46930 0.00500
H 	H 	0.80153 0.69845 0.42483 0.04500
H 	H 	0.76369 0.59513 0.42668 0.04000
H 	H 	0.85182 0.64949 0.51977 0.03900
C 	C 	0.80839 0.14329 0.46267 -0.01100
C 	C 	0.80747 0.11603 0.48705 -0.02900
C 	C 	0.82896 0.08173 0.48642 -0.04500
C 	C 	0.85151 0.07444 0.46141 0.01700
C 	C 	0.85143 0.10079 0.43677 -0.04400
C 	C 	0.82989 0.13514 0.43739 -0.02800
C 	C 	0.78759 0.17989 0.46391 0.04700
C 	C 	0.76952 0.20982 0.46650 -0.11900
H 	H 	0.79071 0.12192 0.50662 0.03500
H 	H 	0.82904 0.06172 0.50559 0.04400
H 	H 	0.86894 0.09551 0.41738 0.04500
H 	H 	0.83049 0.15578 0.41839 0.04100
C 	C 	0.33152 0.16242 0.47515 -0.00800
C 	C 	0.29659 0.10168 0.47608 -0.02800
C 	C 	0.23400 0.06942 0.47461 -0.04300
C 	C 	0.20610 0.09777 0.47220 0.01700
C 	C 	0.24110 0.15861 0.47150 -0.04300
C 	C 	0.30371 0.19088 0.47297 -0.02800
C 	C 	0.14154 0.06425 0.47021 0.00500
C 	C 	0.08742 0.03533 0.46857 -0.03900
C 	C 	0.39564 0.19527 0.47573 0.04700
C 	C 	0.44937 0.22326 0.47619 -0.10600
H 	H 	0.31780 0.07940 0.47777 0.04000
H 	H 	0.20720 0.02240 0.47522 0.04500
H 	H 	0.21985 0.18084 0.46969 0.04500
H 	H 	0.33047 0.23785 0.47225 0.04100
C 	C 	0.87374 0.76463 0.99076 0.01700
C 	C 	0.81057 0.72720 0.98816 -0.04300
C 	C 	0.78016 0.66627 0.98707 -0.02800
C 	C 	0.81288 0.64263 0.98858 -0.00900
C 	C 	0.87595 0.68000 0.99088 -0.02800
C 	C 	0.78200 0.58041 0.98864 0.04900
C 	C 	0.75618 0.52828 0.98870 -0.10700
H 	H 	0.78510 0.74528 0.98714 0.04500
H 	H 	0.73135 0.63758 0.98528 0.04100
C 	C 	0.88930 0.11001 0.00047 0.01800
C 	C 	0.87452 0.12311 0.97360 -0.04600
C 	C 	0.84402 0.14883 0.97311 -0.02700
C 	C 	0.82812 0.16161 0.99948 -0.01400
C 	C 	0.84317 0.14886 0.02644 -0.02600
C 	C 	0.87374 0.12307 0.02694 -0.04500
C 	C 	0.79630 0.18770 0.99869 0.05000
C 	C 	0.76973 0.20952 0.99670 -0.12300
H 	H 	0.88639 0.11309 0.95307 0.04400
H 	H 	0.83259 0.15867 0.95220 0.03300
H 	H 	0.83111 0.15873 0.04694 0.04100
H 	H 	0.88503 0.11304 0.04780 0.04600
C 	C 	0.23849 0.12423 0.98970 0.01600
C 	C 	0.25577 0.12061 0.96205 -0.04300
C 	C 	0.31643 0.14532 0.96108 -0.02800
C 	C 	0.35994 0.17369 0.98776 -0.01000
C 	C 	0.34286 0.17847 0.01529 -0.02700
C 	C 	0.28227 0.15379 0.01626 -0.04300
C 	C 	0.42210 0.19797 0.98699 0.04900
C 	C 	0.47460 0.21887 0.98730 -0.11100
C 	C 	0.17540 0.09319 0.99118 0.00500
C 	C 	0.12266 0.06733 0.99265 -0.03800
H 	H 	0.22211 0.09773 0.94142 0.04500
H 	H 	0.32943 0.14187 0.93969 0.03900
H 	H 	0.37638 0.20073 0.03597 0.04100
H 	H 	0.26921 0.15664 0.03771 0.04500
H 	H 	0.88967 0.75285 0.51792 0.04500
C 	C 	0.87906 0.04392 0.46203 0.00400
H 	H 	0.90148 0.66199 0.99207 0.03900
C 	C 	0.89892 0.84535 0.46805 -0.03700
N 	N 	0.90125 0.93213 0.46455 -0.13900
C 	C 	0.90213 0.01842 0.46249 -0.03800
C 	C 	0.90633 0.74088 0.99198 -0.04300
C 	C 	0.90526 0.82740 0.99234 0.00500
C 	C 	0.91921 0.08199 0.00064 0.00400
N 	N 	0.99340 0.02454 0.46453 -0.14100
N 	N 	0.99183 0.94113 0.46778 -0.14100
C 	C 	0.97341 0.03001 0.99898 0.13200
C 	C 	0.96740 0.94299 0.99525 0.13400
N 	N 	0.94053 0.97051 0.99792 -0.14000
C 	C 	0.93256 0.99090 0.46340 0.13300
C 	C 	0.93108 0.90728 0.46667 0.13300
C 	C 	0.93283 0.88013 0.99372 -0.03800
H 	H 	0.95519 0.76960 0.99394 0.04500
C 	C 	0.94425 0.05853 0.00016 -0.03700
