data_crystal

_cell_length_a 36.56547
_cell_length_b 38.32922
_cell_length_c 30.01360
_cell_angle_alpha 89.49934
_cell_angle_beta  89.99999
_cell_angle_gamma 89.99991

_symmetry_space_group_name_	'P 1'
_symmetry_space_group_name_H-M	'P 1'

loop_
_symmetry_equiv_pos_as_xyz
  x,y,z

loop_
_atom_site_label
_atom_site_type_symbol
_atom_site_fract_x
_atom_site_fract_y
_atom_site_fract_z
_atom_site_charge
C 	C 	0.47479 0.57357 0.90511 0.10300
N 	N 	0.46187 0.54181 0.91638 -0.17200
C 	C 	0.42829 0.53934 0.89828 0.10300
C 	C 	0.40088 0.51373 0.91431 -0.07600
C 	C 	0.41149 0.47696 0.92190 0.09100
C 	C 	0.36254 0.52447 0.92141 0.04900
C 	C 	0.35382 0.54791 0.95539 -0.06300
C 	C 	0.31730 0.55625 0.96408 -0.01200
C 	C 	0.28916 0.54128 0.93867 -0.01900
C 	C 	0.33459 0.51000 0.89550 -0.06200
N 	N 	0.44187 0.46274 0.90419 -0.12800
C 	C 	0.39737 0.45610 0.95557 -0.06100
C 	C 	0.44650 0.43224 0.92617 0.08900
C 	C 	0.48013 0.41103 0.92285 -0.07600
C 	C 	0.47808 0.37285 0.93056 0.04800
C 	C 	0.44803 0.31743 0.91728 -0.01100
C 	C 	0.50012 0.35687 0.96315 -0.06300
C 	C 	0.49606 0.32130 0.97282 -0.01200
C 	C 	0.46955 0.30158 0.95044 -0.01900
N 	N 	0.52580 0.45902 0.92318 -0.17300
C 	C 	0.56181 0.46145 0.91419 0.10200
C 	C 	0.57407 0.43143 0.89354 -0.06300
C 	C 	0.54402 0.40978 0.88981 -0.06200
C 	C 	0.58595 0.48754 0.93549 -0.08200
C 	C 	0.62520 0.48013 0.94181 0.05300
C 	C 	0.68824 0.48968 0.91979 -0.01300
C 	C 	0.70031 0.47121 0.95767 -0.01800
C 	C 	0.67448 0.45644 0.98698 -0.02200
C 	C 	0.63706 0.46087 0.97899 -0.07400
N 	N 	0.54688 0.53885 0.91803 -0.12900
C 	C 	0.55823 0.57158 0.97854 -0.07100
C 	C 	0.53866 0.56868 0.93930 0.09200
C 	C 	0.50613 0.58991 0.92825 -0.07800
C 	C 	0.50640 0.62787 0.93718 0.04800
C 	C 	0.53544 0.64864 0.92175 -0.06200
C 	C 	0.53654 0.68418 0.93161 -0.01200
C 	C 	0.50840 0.69940 0.95657 -0.02000
C 	C 	0.47906 0.67878 0.97151 -0.01300
C 	C 	0.47823 0.64308 0.96219 -0.06500
C 	C 	0.44946 0.59158 0.87943 -0.06300
C 	C 	0.41966 0.56969 0.87511 -0.06200
C 	C 	0.29809 0.51843 0.90394 -0.01200
C 	C 	0.41985 0.42736 0.95828 -0.06100
C 	C 	0.51488 0.42759 0.90847 0.10100
C 	C 	0.58004 0.54234 0.98117 -0.07100
C 	C 	0.57241 0.52316 0.94357 0.09400
C 	C 	0.65088 0.49420 0.91203 -0.06400
H 	H 	0.47061 0.52745 0.94418 0.09200
H 	H 	0.51249 0.47305 0.94810 0.09200
H 	H 	0.55916 0.69993 0.91964 0.04400
H 	H 	0.45725 0.69026 0.99093 0.04000
H 	H 	0.55721 0.63721 0.90221 0.05200
H 	H 	0.45583 0.62722 0.97455 0.04700
H 	H 	0.31089 0.57379 0.99108 0.04400
H 	H 	0.34116 0.49204 0.86899 0.05200
H 	H 	0.27678 0.50715 0.88354 0.04500
H 	H 	0.37530 0.55918 0.97555 0.04800
H 	H 	0.51280 0.30930 0.99850 0.04200
H 	H 	0.51991 0.37212 0.98148 0.04800
C 	C 	0.45243 0.35283 0.90719 -0.06100
H 	H 	0.42773 0.30235 0.89953 0.04500
H 	H 	0.70779 0.50065 0.89645 0.04300
H 	H 	0.64186 0.50896 0.88310 0.05200
H 	H 	0.61734 0.44994 0.00214 0.05900
H 	H 	0.68336 0.44219 0.01637 0.05500
H 	H 	0.44846 0.61965 0.87537 0.05200
H 	H 	0.39217 0.57844 0.86763 0.05200
H 	H 	0.38028 0.46531 0.98248 0.05000
H 	H 	0.42273 0.41085 0.98752 0.05000
H 	H 	0.60217 0.42255 0.89313 0.05100
H 	H 	0.54551 0.38178 0.88584 0.05200
H 	H 	0.54990 0.58698 0.00686 0.06100
H 	H 	0.59151 0.53180 0.01170 0.05900
H 	H 	0.43552 0.36485 0.88171 0.05200
Co	Co	0.41774 0.09729 0.00541 1.18500
Co	Co	0.42397 0.01610 0.00299 1.09400
O 	O 	0.41271 0.14986 0.01091 -0.34200
O 	O 	0.46478 0.13572 0.98453 -0.29300
O 	O 	0.37025 0.07815 0.02513 -0.39900
O 	O 	0.45306 0.03998 0.95581 -0.47900
C 	C 	0.35366 0.05339 0.00273 0.29000
C 	C 	0.44395 0.16090 0.99715 0.25400
O 	O 	0.37286 0.02978 0.98148 -0.43300
O 	O 	0.41463 0.08524 0.94338 -0.43400
C 	C 	0.43690 0.06153 0.92793 0.34000
O 	O 	0.44649 0.08569 0.05744 -0.43200
O 	O 	0.42009 0.03209 0.06554 -0.45700
C 	C 	0.44020 0.05750 0.08148 0.32700
S 	S 	0.45214 0.01374 0.55749 -0.00100
C 	C 	0.47569 0.01823 0.60637 -0.01600
C 	C 	0.50881 0.99923 0.60605 -0.01300
S 	S 	0.51482 0.97806 0.55643 -0.00100
C 	C 	0.47737 0.98698 0.52585 -0.00700
C 	C 	0.47740 0.98850 0.47704 -0.00600
S 	S 	0.49700 0.95824 0.44472 -0.00100
C 	C 	0.50805 0.97927 0.39595 -0.01400
C 	C 	0.49870 0.01508 0.39727 -0.01500
S 	S 	0.47932 0.02582 0.44738 -0.00200
C 	C 	0.52446 0.93917 0.26576 0.02400
C 	C 	0.48892 0.94630 0.28075 -0.04100
C 	C 	0.48307 0.95626 0.32484 -0.03800
C 	C 	0.51284 0.96031 0.35387 0.02000
C 	C 	0.54804 0.95105 0.33971 -0.04100
C 	C 	0.55376 0.94004 0.29593 -0.03800
H 	H 	0.46602 0.94506 0.25791 0.04200
H 	H 	0.45568 0.96276 0.33575 0.04400
H 	H 	0.57111 0.95358 0.36208 0.04300
H 	H 	0.58098 0.93276 0.28532 0.04200
C 	C 	0.47865 0.05473 0.26755 0.02700
C 	C 	0.51477 0.05075 0.28244 -0.04100
C 	C 	0.52174 0.04180 0.32688 -0.03600
C 	C 	0.49258 0.03597 0.35644 0.01900
C 	C 	0.45670 0.04326 0.34251 -0.04000
C 	C 	0.44976 0.05248 0.29816 -0.03800
H 	H 	0.53730 0.05291 0.25913 0.05100
H 	H 	0.54958 0.03674 0.33744 0.04400
H 	H 	0.43396 0.03911 0.36507 0.04400
H 	H 	0.42180 0.05589 0.28702 0.04900
C 	C 	0.44419 0.04201 0.73818 0.02400
C 	C 	0.43503 0.00950 0.72018 -0.03800
C 	C 	0.44120 0.00299 0.67508 -0.04000
C 	C 	0.45757 0.02859 0.64795 0.02000
C 	C 	0.46392 0.06196 0.66507 -0.04000
C 	C 	0.45735 0.06864 0.71008 -0.04400
H 	H 	0.42449 0.98886 0.74147 0.04900
H 	H 	0.43594 0.97721 0.66203 0.04500
H 	H 	0.47625 0.08198 0.64427 0.04300
H 	H 	0.46376 0.09407 0.72347 0.04500
C 	C 	0.53758 0.97068 0.73784 0.02700
C 	C 	0.54514 0.00446 0.72218 -0.04100
C 	C 	0.54077 0.01262 0.67700 -0.03900
C 	C 	0.52678 0.98758 0.64764 0.02100
C 	C 	0.52186 0.95313 0.66276 -0.04000
C 	C 	0.52723 0.94473 0.70771 -0.03900
H 	H 	0.55291 0.02474 0.74524 0.04100
H 	H 	0.54517 0.03917 0.66557 0.04300
H 	H 	0.51124 0.93349 0.64047 0.04400
H 	H 	0.52164 0.91847 0.71950 0.04700
Co	Co	0.56768 0.90164 0.99724 1.17500
Co	Co	0.48428 0.91369 0.99613 1.08200
O 	O 	0.62236 0.89263 0.99313 -0.35900
O 	O 	0.60971 0.94636 0.98209 -0.30500
O 	O 	0.54534 0.85623 0.01226 -0.39000
O 	O 	0.49984 0.90403 0.05866 -0.45100
C 	C 	0.51772 0.84373 0.98927 0.27100
C 	C 	0.63510 0.92307 0.98373 0.26700
O 	O 	0.49342 0.86492 0.97126 -0.41700
O 	O 	0.55767 0.92581 0.05216 -0.43800
C 	C 	0.52897 0.91824 0.07665 0.32200
O 	O 	0.55425 0.90359 0.93547 -0.43700
O 	O 	0.51037 0.94304 0.95146 -0.48700
C 	C 	0.53204 0.92833 0.92224 0.33400
Co	Co	0.07542 0.59589 0.98621 1.17700
Co	Co	0.99103 0.59037 0.98009 1.07700
O 	O 	0.13047 0.59883 0.99460 -0.35500
O 	O 	0.11475 0.55080 0.96471 -0.30000
O 	O 	0.05594 0.64065 0.00744 -0.39300
O 	O 	0.01684 0.56440 0.93234 -0.49800
C 	C 	0.03003 0.65740 0.98566 0.27200
C 	C 	0.14142 0.56931 0.97962 0.27000
O 	O 	0.00566 0.64008 0.96241 -0.42100
O 	O 	0.06446 0.60148 0.92399 -0.42400
C 	C 	0.04030 0.58063 0.90635 0.33600
O 	O 	0.06111 0.56677 0.03591 -0.43000
O 	O 	0.00471 0.59151 0.04412 -0.46600
C 	C 	0.03269 0.57426 0.06077 0.32200
S 	S 	0.97422 0.47116 0.42982 -0.00200
C 	C 	0.99645 0.47583 0.37991 -0.01700
C 	C 	0.01936 0.50557 0.37945 -0.01100
S 	S 	0.01766 0.52721 0.42914 0.00100
C 	C 	0.98759 0.50511 0.46083 -0.01000
C 	C 	0.98753 0.50525 0.50976 -0.01000
S 	S 	0.01511 0.53018 0.54089 0.00200
C 	C 	0.01872 0.50910 0.59121 -0.01200
C 	C 	0.99857 0.47759 0.59186 -0.01700
S 	S 	0.97729 0.47051 0.54184 -0.00300
C 	C 	0.04098 0.54972 0.71956 0.02700
C 	C 	0.00724 0.55655 0.69912 -0.03200
C 	C 	0.00084 0.54568 0.65554 -0.03400
C 	C 	0.02816 0.52785 0.63213 0.02000
C 	C 	0.06278 0.52331 0.65139 -0.04000
C 	C 	0.06927 0.53445 0.69492 -0.03700
H 	H 	0.98569 0.56946 0.71743 0.04200
H 	H 	0.97407 0.54949 0.64079 0.04000
H 	H 	0.08414 0.50985 0.63336 0.04300
H 	H 	0.09596 0.53055 0.70976 0.04400
C 	C 	0.96434 0.44803 0.72189 0.02400
C 	C 	0.00040 0.44158 0.70846 -0.03100
C 	C 	0.01093 0.44807 0.66443 -0.03500
C 	C 	0.98553 0.46147 0.63368 0.01800
C 	C 	0.94876 0.46510 0.64629 -0.04000
C 	C 	0.93814 0.45798 0.69015 -0.03800
H 	H 	0.02044 0.43243 0.73238 0.05000
H 	H 	0.03924 0.44458 0.65482 0.04400
H 	H 	0.92881 0.47516 0.62279 0.04200
H 	H 	0.90980 0.46117 0.69973 0.04100
C 	C 	0.96673 0.44151 0.25078 0.03200
C 	C 	0.94680 0.46828 0.27106 -0.03800
C 	C 	0.95441 0.47768 0.31493 -0.03500
C 	C 	0.98209 0.46040 0.33880 0.01500
C 	C 	0.00005 0.43188 0.31969 -0.02900
C 	C 	0.99222 0.42230 0.27586 -0.05000
H 	H 	0.92619 0.48246 0.25239 0.05000
H 	H 	0.94024 0.49961 0.32955 0.04200
H 	H 	0.02122 0.41818 0.33806 0.04100
H 	H 	0.00651 0.40053 0.26114 0.04800
C 	C 	0.03606 0.54662 0.24931 0.03000
C 	C 	0.05607 0.51741 0.26360 -0.03500
C 	C 	0.05341 0.50580 0.30772 -0.03500
C 	C 	0.03038 0.52311 0.33769 0.01800
C 	C 	0.01290 0.55409 0.32428 -0.03400
C 	C 	0.01613 0.56602 0.28035 -0.04100
H 	H 	0.07282 0.50317 0.24025 0.05100
H 	H 	0.06757 0.48223 0.31797 0.04400
H 	H 	0.99530 0.56789 0.34720 0.03900
H 	H 	0.00229 0.58975 0.27015 0.04300
Co	Co	0.90967 0.40540 0.98638 1.17700
Co	Co	0.92779 0.48425 0.98615 1.08100
O 	O 	0.89619 0.35415 0.98169 -0.36100
O 	O 	0.95207 0.36303 0.96463 -0.29400
O 	O 	0.86515 0.42935 0.00700 -0.38400
O 	O 	0.92177 0.46763 0.04877 -0.45800
C 	C 	0.85219 0.45682 0.98566 0.27000
C 	C 	0.92624 0.34033 0.96832 0.26700
O 	O 	0.87454 0.47924 0.96637 -0.42500
O 	O 	0.94010 0.41144 0.03829 -0.43500
C 	C 	0.93708 0.43886 0.06381 0.32900
O 	O 	0.90776 0.42004 0.92524 -0.43500
O 	O 	0.95306 0.45891 0.93761 -0.48400
C 	C 	0.93409 0.43978 0.90986 0.33700
C 	C 	0.97270 0.92906 0.04658 0.10100
N 	N 	0.95932 0.95832 0.02761 -0.16700
C 	C 	0.92369 0.95984 0.03882 0.10400
C 	C 	0.89747 0.98423 0.01729 -0.07800
C 	C 	0.90966 0.01969 0.00456 0.10400
C 	C 	0.85852 0.97454 0.01246 0.05900
C 	C 	0.84856 0.94595 0.98623 -0.07200
C 	C 	0.81168 0.93716 0.98111 -0.02700
C 	C 	0.78444 0.95708 0.00192 0.00500
C 	C 	0.83134 0.99430 0.03348 -0.06000
N 	N 	0.94067 0.03398 0.02038 -0.12300
C 	C 	0.89696 0.03798 0.96777 -0.08000
C 	C 	0.94730 0.06176 0.99385 0.06400
C 	C 	0.97656 0.08722 0.00289 -0.05100
C 	C 	0.96923 0.12484 0.99687 0.02300
C 	C 	0.93580 0.17686 0.01770 -0.00500
C 	C 	0.98779 0.14396 0.96390 -0.06200
C 	C 	0.98042 0.17948 0.95784 -0.01300
C 	C 	0.95436 0.19613 0.98471 -0.02900
N 	N 	0.02439 0.04276 0.01950 -0.16600
C 	C 	0.05890 0.04341 0.03517 0.10500
C 	C 	0.06765 0.07655 0.05004 -0.06300
C 	C 	0.03690 0.09690 0.04319 -0.05700
C 	C 	0.08618 0.01607 0.02458 -0.08200
C 	C 	0.12531 0.02512 0.02083 0.06200
C 	C 	0.18519 0.03068 0.05482 -0.01100
C 	C 	0.20052 0.03835 0.01299 -0.01100
C 	C 	0.17793 0.03991 0.97519 -0.02000
C 	C 	0.14040 0.03355 0.97918 -0.07500
N 	N 	0.04411 0.96655 0.04121 -0.13000
C 	C 	0.06854 0.92579 0.99633 -0.07100
C 	C 	0.04054 0.93387 0.02546 0.10200
C 	C 	0.00712 0.91258 0.03158 -0.07800
C 	C 	0.00886 0.87447 0.02527 0.06500
C 	C 	0.02993 0.85379 0.05417 -0.06500
C 	C 	0.03303 0.81795 0.04710 -0.01200
C 	C 	0.01526 0.80245 0.01075 -0.00900
C 	C 	0.99369 0.82320 0.98217 -0.02400
C 	C 	0.99044 0.85904 0.98954 -0.07900
C 	C 	0.94546 0.91167 0.07005 -0.06100
C 	C 	0.91408 0.93146 0.06516 -0.06300
C 	C 	0.79448 0.98567 0.02817 -0.01600
C 	C 	0.92090 0.06525 0.96116 -0.04800
C 	C 	0.01096 0.07523 0.02433 0.09800
C 	C 	0.09070 0.95478 0.99441 -0.07200
C 	C 	0.07505 0.97901 0.02245 0.10500
C 	C 	0.14777 0.02387 0.05866 -0.06500
H 	H 	0.97061 0.97042 0.99945 0.08500
H 	H 	0.01479 0.02481 0.99624 0.08800
H 	H 	0.04921 0.80226 0.06990 0.04500
H 	H 	0.97995 0.81171 0.95390 0.04200
H 	H 	0.04402 0.86553 0.08203 0.05300
H 	H 	0.97407 0.87490 0.96710 0.04900
H 	H 	0.80429 0.91517 0.96054 0.04600
H 	H 	0.83880 0.01633 0.05395 0.05100
H 	H 	0.77376 0.00103 0.04475 0.04700
H 	H 	0.86937 0.93065 0.96970 0.04800
H 	H 	0.99472 0.19396 0.93203 0.04300
H 	H 	0.00782 0.13129 0.94293 0.04900
C 	C 	0.94321 0.14138 0.02370 -0.04600
H 	H 	0.91593 0.18942 0.03899 0.04600
H 	H 	0.20238 0.02930 0.08419 0.04400
H 	H 	0.13626 0.01738 0.09095 0.05300
H 	H 	0.12317 0.03462 0.94983 0.04900
H 	H 	0.18944 0.04604 0.94279 0.04300
H 	H 	0.94573 0.88412 0.07832 0.05100
H 	H 	0.88655 0.92163 0.06953 0.05300
H 	H 	0.87045 0.03505 0.95221 0.05300
H 	H 	0.91545 0.08854 0.94160 0.04600
H 	H 	0.09513 0.08675 0.05318 0.05400
H 	H 	0.03711 0.12508 0.04058 0.05500
H 	H 	0.06708 0.90608 0.97078 0.05100
H 	H 	0.10902 0.96096 0.96713 0.05000
H 	H 	0.92880 0.12674 0.04927 0.05000
C 	C 	0.94669 0.23366 0.97861 0.11300
N 	N 	0.97402 0.25607 0.96740 -0.08500
N 	N 	0.96737 0.29015 0.96360 -0.06000
C 	C 	0.93326 0.30278 0.97100 0.04100
N 	N 	0.90585 0.28037 0.98171 -0.06300
N 	N 	0.91246 0.24629 0.98547 -0.08600
C 	C 	0.94138 0.44164 0.86163 -0.12900
C 	C 	0.94214 0.41106 0.83576 0.17100
C 	C 	0.95021 0.41341 0.79013 -0.10500
C 	C 	0.95453 0.44605 0.76945 -0.00400
C 	C 	0.95194 0.47667 0.79488 0.09700
C 	C 	0.94725 0.47418 0.84116 -0.02000
H 	H 	0.95303 0.38980 0.77082 0.06700
H 	H 	0.94726 0.49771 0.86095 0.02900
O 	O 	0.93917 0.37864 0.85600 -0.19200
O 	O 	0.95750 0.50894 0.77507 -0.18700
C 	C 	0.90374 0.36542 0.84816 -0.02600
H 	H 	0.88190 0.38395 0.85843 0.05400
H 	H 	0.90018 0.34124 0.86829 0.05600
H 	H 	0.90022 0.35830 0.81256 0.04100
C 	C 	0.92328 0.52531 0.76899 -0.02400
H 	H 	0.90366 0.50872 0.75034 0.03600
H 	H 	0.92737 0.54950 0.74909 0.03700
H 	H 	0.91130 0.53306 0.80152 0.03000
C 	C 	0.94651 0.43587 0.11115 -0.12500
C 	C 	0.92244 0.41933 0.14124 0.17000
C 	C 	0.92990 0.42006 0.18706 -0.10300
C 	C 	0.96233 0.43513 0.20271 -0.00700
C 	C 	0.98803 0.44860 0.17208 0.09800
C 	C 	0.97915 0.45049 0.12668 -0.02300
H 	H 	0.91002 0.40967 0.21046 0.06700
H 	H 	0.99772 0.46326 0.10359 0.03700
O 	O 	0.88958 0.40593 0.12638 -0.19600
O 	O 	0.02027 0.46321 0.18707 -0.18100
C 	C 	0.89364 0.36965 0.12062 -0.02900
H 	H 	0.91596 0.36336 0.09676 0.05400
H 	H 	0.86788 0.35923 0.10647 0.05700
H 	H 	0.89833 0.35611 0.15309 0.04400
C 	C 	0.04883 0.43903 0.18058 -0.02900
H 	H 	0.04300 0.41331 0.19659 0.04000
H 	H 	0.07403 0.44938 0.19618 0.04500
H 	H 	0.05465 0.43564 0.14449 0.04600
C 	C 	0.02704 0.69535 0.98973 0.03000
N 	N 	0.05388 0.71363 0.01025 -0.05400
N 	N 	0.05036 0.74784 0.01629 -0.08400
C 	C 	0.01974 0.76476 0.00232 0.12200
N 	N 	0.99303 0.74650 0.98138 -0.09600
N 	N 	0.99666 0.71229 0.97509 -0.07100
C 	C 	0.04185 0.57270 0.85850 -0.12900
C 	C 	0.04662 0.59968 0.82678 0.16900
C 	C 	0.04925 0.59161 0.78144 -0.10400
C 	C 	0.04588 0.55700 0.76731 -0.00500
C 	C 	0.04237 0.52994 0.79910 0.10000
C 	C 	0.03872 0.53807 0.84434 -0.02200
H 	H 	0.05261 0.61243 0.75711 0.06700
H 	H 	0.03434 0.51729 0.86848 0.05300
O 	O 	0.05056 0.63386 0.84028 -0.19300
O 	O 	0.03925 0.49570 0.78556 -0.18200
C 	C 	0.01583 0.64989 0.83992 -0.01500
H 	H 	0.00437 0.65132 0.80557 0.03500
H 	H 	0.01890 0.67704 0.85190 0.05200
H 	H 	0.99637 0.63641 0.86285 0.02800
C 	C 	0.07332 0.47905 0.79173 -0.02900
H 	H 	0.09591 0.49300 0.77423 0.04100
H 	H 	0.07175 0.45250 0.77752 0.04500
H 	H 	0.07981 0.47601 0.82778 0.04700
C 	C 	0.03393 0.56691 0.10889 -0.12600
C 	C 	0.06393 0.57797 0.13469 0.17000
C 	C 	0.06449 0.57109 0.18062 -0.10300
C 	C 	0.03426 0.55556 0.20153 -0.00600
C 	C 	0.00339 0.54632 0.17611 0.10100
C 	C 	0.00408 0.55063 0.12968 -0.02000
H 	H 	0.08836 0.57805 0.20002 0.06800
H 	H 	0.98116 0.54168 0.10993 0.02800
O 	O 	0.09383 0.59355 0.11454 -0.19400
O 	O 	0.97394 0.52992 0.19621 -0.18700
C 	C 	0.08956 0.63007 0.11673 -0.03200
H 	H 	0.06372 0.63898 0.10058 0.05500
H 	H 	0.11249 0.64253 0.09835 0.06000
H 	H 	0.09083 0.63925 0.15179 0.04400
C 	C 	0.94539 0.55436 0.20099 -0.02400
H 	H 	0.95439 0.57844 0.21831 0.03500
H 	H 	0.92350 0.54238 0.22159 0.04100
H 	H 	0.93319 0.56114 0.16807 0.03500
C 	C 	0.67395 0.93186 0.98780 0.04200
N 	N 	0.68488 0.96569 0.98666 -0.06300
N 	N 	0.72016 0.97372 0.99090 -0.08400
C 	C 	0.74552 0.94813 0.99615 0.09800
N 	N 	0.73460 0.91426 0.99690 -0.08300
N 	N 	0.69929 0.90625 0.99282 -0.06100
C 	C 	0.53711 0.96321 0.78610 -0.00900
C 	C 	0.56893 0.95159 0.80796 0.09400
C 	C 	0.56695 0.94013 0.85240 -0.02200
C 	C 	0.53372 0.94147 0.87582 -0.12900
C 	C 	0.50199 0.95392 0.85404 0.16900
C 	C 	0.50410 0.96538 0.80962 -0.10700
H 	H 	0.59138 0.93031 0.86867 0.06100
H 	H 	0.47974 0.97502 0.79310 0.06700
O 	O 	0.60130 0.94819 0.78463 -0.18600
O 	O 	0.46944 0.95719 0.87703 -0.22600
C 	C 	0.62311 0.97783 0.79270 -0.02600
H 	H 	0.60903 0.00244 0.78275 0.03900
H 	H 	0.64829 0.97588 0.77226 0.04800
H 	H 	0.63172 0.97895 0.82824 0.04500
C 	C 	0.44825 0.92703 0.86976 -0.01900
H 	H 	0.44058 0.92456 0.83402 0.03700
H 	H 	0.42251 0.92935 0.88908 0.01400
H 	H 	0.46247 0.90302 0.88174 0.02500
C 	C 	0.53099 0.92219 0.12540 -0.12100
C 	C 	0.51930 0.89505 0.15406 0.16400
C 	C 	0.51844 0.90035 0.20020 -0.10400
C 	C 	0.53095 0.93180 0.21820 -0.01100
C 	C 	0.54558 0.95777 0.18982 0.09600
C 	C 	0.54457 0.95321 0.14349 -0.02300
H 	H 	0.50736 0.88024 0.22191 0.06600
H 	H 	0.55353 0.97418 0.12163 0.05800
O 	O 	0.50598 0.86424 0.13680 -0.19700
O 	O 	0.55636 0.98950 0.20701 -0.19300
C 	C 	0.53509 0.84023 0.13399 -0.02400
H 	H 	0.55732 0.85002 0.11180 0.05200
H 	H 	0.52457 0.81577 0.11920 0.05600
H 	H 	0.54612 0.83355 0.16759 0.04100
C 	C 	0.59488 0.99040 0.20894 -0.02400
H 	H 	0.60648 0.96759 0.22727 0.03800
H 	H 	0.60321 0.01416 0.22718 0.04200
H 	H 	0.60684 0.99219 0.17492 0.04500
C 	C 	0.24020 0.04379 0.00864 0.11900
N 	N 	0.25801 0.06536 0.03698 -0.08300
N 	N 	0.29421 0.06894 0.03451 -0.05800
C 	C 	0.31365 0.05076 0.00395 0.04100
N 	N 	0.29583 0.02933 0.97546 -0.07100
N 	N 	0.25959 0.02600 0.97765 -0.09200
C 	C 	0.43923 0.05560 0.87971 -0.12600
C 	C 	0.47300 0.05814 0.85732 0.17100
C 	C 	0.47420 0.05461 0.81085 -0.10100
C 	C 	0.44218 0.04747 0.78678 -0.01100
C 	C 	0.40842 0.04523 0.80922 0.09700
C 	C 	0.40726 0.04846 0.85565 -0.02400
H 	H 	0.50010 0.05711 0.79357 0.06400
H 	H 	0.38134 0.04590 0.87291 0.05500
O 	O 	0.50405 0.06830 0.88008 -0.19600
O 	O 	0.37678 0.03759 0.78609 -0.19200
C 	C 	0.52552 0.03852 0.88919 -0.02500
H 	H 	0.51008 0.01832 0.90829 0.05500
H 	H 	0.54905 0.04643 0.91012 0.05200
H 	H 	0.53687 0.02737 0.85799 0.04200
C 	C 	0.35968 0.06923 0.77385 -0.02600
H 	H 	0.35123 0.08432 0.80367 0.04500
H 	H 	0.33452 0.06308 0.75481 0.04700
H 	H 	0.37747 0.08539 0.75172 0.04300
C 	C 	0.45075 0.05684 0.12894 -0.12200
C 	C 	0.46418 0.02596 0.14893 0.16900
C 	C 	0.47450 0.02601 0.19392 -0.10200
C 	C 	0.47079 0.05623 0.21942 -0.00700
C 	C 	0.45806 0.08723 0.19935 0.09500
C 	C 	0.44740 0.08723 0.15447 -0.02100
H 	H 	0.48429 0.00219 0.20939 0.07400
H 	H 	0.43644 0.11087 0.13958 0.06000
O 	O 	0.47092 0.99684 0.12330 -0.22500
O 	O 	0.45320 0.11688 0.22453 -0.18700
C 	C 	0.44355 0.97170 0.13191 -0.01500
H 	H 	0.44719 0.95978 0.16555 0.03800
H 	H 	0.44634 0.95049 0.10724 0.01400
H 	H 	0.41543 0.98259 0.12835 0.03500
C 	C 	0.48510 0.13741 0.22120 -0.02800
H 	H 	0.50953 0.12329 0.23426 0.04300
H 	H 	0.48140 0.16099 0.24189 0.04900
H 	H 	0.48989 0.14643 0.18630 0.04700
C 	C 	0.45068 0.19744 0.98491 0.04800
N 	N 	0.42278 0.22079 0.98492 -0.06100
N 	N 	0.42884 0.25404 0.97389 -0.08300
C 	C 	0.46306 0.26496 0.96313 0.11300
N 	N 	0.49104 0.24167 0.96350 -0.08300
N 	N 	0.48490 0.20832 0.97406 -0.06100
C 	C 	0.17972 0.56218 0.96873 0.04500
N 	N 	0.18929 0.53132 0.95024 -0.06100
N 	N 	0.22416 0.52469 0.94061 -0.08400
C 	C 	0.25045 0.54879 0.94905 0.11300
N 	N 	0.24081 0.57969 0.96751 -0.08400
N 	N 	0.20595 0.58625 0.97732 -0.06000
C 	C 	0.81255 0.46149 0.98112 0.03700
N 	N 	0.78924 0.43593 0.99461 -0.06100
N 	N 	0.75338 0.43919 0.98767 -0.08500
C 	C 	0.73984 0.46813 0.96708 0.11000
N 	N 	0.76315 0.49390 0.95423 -0.08800
N 	N 	0.79899 0.49057 0.96102 -0.06800
C 	C 	0.51453 0.80595 0.98282 0.03800
N 	N 	0.54300 0.78462 0.99304 -0.06300
N 	N 	0.54082 0.75051 0.98526 -0.08500
C 	C 	0.50996 0.73672 0.96748 0.11100
N 	N 	0.48125 0.75796 0.95788 -0.08600
N 	N 	0.48356 0.79214 0.96528 -0.06600
