data_crystal

_cell_length_a 19.33982
_cell_length_b 17.34378
_cell_length_c 48.95220
_cell_angle_alpha 89.63841
_cell_angle_beta  89.64491
_cell_angle_gamma 119.44827

_symmetry_space_group_name_	'P 1'
_symmetry_space_group_name_H-M	'P 1'

loop_
_symmetry_equiv_pos_as_xyz
  x,y,z

loop_
_atom_site_label
_atom_site_type_symbol
_atom_site_fract_x
_atom_site_fract_y
_atom_site_fract_z
_atom_site_charge
Ni	Ni	0.04986 0.96035 0.75038 1.10400
O 	O 	0.02317 0.08903 0.68420 -0.38700
O 	O 	0.00664 0.03294 0.74149 -0.71100
H 	H 	0.00737 0.05782 0.75960 0.16300
O 	O 	0.02625 0.13613 0.17481 -0.36800
O 	O 	0.01468 0.03080 0.22378 -0.70300
H 	H 	0.02632 0.04533 0.24294 0.13800
N 	N 	0.02155 0.17125 0.04307 -0.19000
H 	H 	0.00202 0.12937 0.06019 0.09800
N 	N 	0.05757 0.27436 0.36728 -0.19300
H 	H 	0.06411 0.05169 0.31579 0.09800
H 	H 	0.02843 0.07070 0.28455 0.09700
H 	H 	0.04258 0.24256 0.34848 0.09400
C 	C 	0.03794 0.66075 0.47013 -0.02300
C 	C 	0.04684 0.53671 0.48956 0.13400
H 	H 	0.06278 0.72014 0.45751 0.06500
H 	H 	0.05280 0.31418 0.54678 0.10500
H 	H 	0.03979 0.22843 0.57037 0.09600
C 	C 	0.07237 0.46751 0.98054 -0.03800
N 	N 	0.07293 0.09288 0.29892 -0.20600
H 	H 	0.00685 0.77658 0.28387 0.09800
C 	C 	0.07735 0.61123 0.47202 -0.09100
C 	C 	0.08952 0.55950 0.94070 0.12400
H 	H 	0.01453 0.74178 0.31769 0.08800
Ni	Ni	0.06970 0.13822 0.72083 1.12200
C 	C 	0.01752 0.87581 0.18713 0.32500
O 	O 	0.09911 0.21585 0.22932 -0.37100
H 	H 	0.08130 0.27726 0.00006 0.06100
N 	N 	0.03399 0.79216 0.30293 -0.20400
H 	H 	0.09622 0.45353 0.99868 0.06900
O 	O 	0.09763 0.96885 0.71174 -0.40200
C 	C 	0.09420 0.14275 0.16709 0.31100
C 	C 	0.07523 0.93554 0.26361 0.30100
H 	H 	0.11373 0.03789 0.13134 0.05300
C 	C 	0.09896 0.21217 0.03501 0.07000
H 	H 	0.12750 0.98772 0.08745 0.07600
C 	C 	0.00791 0.80944 0.16675 -0.11900
C 	C 	0.00764 0.59532 0.09035 -0.09100
N 	N 	0.00490 0.49325 0.05717 -0.20200
H 	H 	0.10341 0.36675 0.41233 0.06200
C 	C 	0.11949 0.54421 0.96504 -0.08100
C 	C 	0.12932 0.17930 0.29953 0.13000
O 	O 	0.07315 0.95892 0.18315 -0.40200
C 	C 	0.12273 0.09886 0.12190 -0.02300
N 	N 	0.13347 0.04504 0.07808 -0.18400
C 	C 	0.00628 0.72944 0.17444 0.14100
C 	C 	0.00651 0.69411 0.12669 0.01900
H 	H 	0.03073 0.46039 0.04726 0.10900
C 	C 	0.13453 0.32821 0.37438 0.06900
Br	Br	0.09712 0.46516 0.49223 -0.25000
C 	C 	0.13838 0.19736 0.24801 0.29300
C 	C 	0.11969 0.16367 0.13811 -0.10500
C 	C 	0.13428 0.11065 0.09340 0.06400
C 	C 	0.12311 0.26393 0.01085 -0.02100
H 	H 	0.13774 0.04960 0.05681 0.09400
C 	C 	0.04665 0.55942 0.07511 0.13300
C 	C 	0.14786 0.23428 0.27592 -0.11100
H 	H 	0.15134 0.17615 0.34236 0.06300
C 	C 	0.09623 0.87380 0.30810 0.12900
H 	H 	0.12306 0.94545 0.41304 0.09500
H 	H 	0.12186 0.97792 0.37827 0.08800
Br	Br	0.15316 0.66221 0.91838 -0.22500
H 	H 	0.01521 0.98622 0.61219 0.08800
O 	O 	0.12887 0.18819 0.75591 -0.38000
Ni	Ni	0.11654 0.04721 0.21347 1.12500
C 	C 	0.15171 0.37388 0.39924 -0.02300
C 	C 	0.15870 0.21798 0.32477 -0.10100
C 	C 	0.12081 0.94402 0.28884 -0.12300
N 	N 	0.02218 0.71529 0.20045 -0.20600
C 	C 	0.15499 0.04409 0.70227 0.34300
O 	O 	0.15551 0.07217 0.76348 -0.36300
C 	C 	0.15636 0.64533 0.45928 0.33800
O 	O 	0.11310 0.95469 0.23979 -0.39600
C 	C 	0.14511 0.19007 0.08105 0.00300
C 	C 	0.04984 0.66368 0.10890 -0.00300
H 	H 	0.05231 0.76766 0.21388 0.10500
H 	H 	0.12275 0.83319 0.34670 0.05800
H 	H 	0.13553 0.06931 0.81600 0.10200
H 	H 	0.01278 0.65289 0.20645 0.08700
O 	O 	0.16272 0.11943 0.71088 -0.38700
O 	O 	0.16275 0.63316 0.43333 -0.37900
O 	O 	0.14486 0.14568 0.18541 -0.37900
C 	C 	0.13381 0.24447 0.12591 0.13200
C 	C 	0.15674 0.20556 0.05097 0.00000
C 	C 	0.17971 0.32582 0.27919 -0.02200
N 	N 	0.14949 0.96112 0.39363 -0.19300
C 	C 	0.13986 0.88753 0.33231 -0.09600
C 	C 	0.18383 0.30744 0.32854 0.00400
C 	C 	0.16586 0.15248 0.76948 0.29700
O 	O 	0.16673 0.14339 0.24224 -0.37600
C 	C 	0.14564 0.25646 0.09748 -0.09500
H 	H 	0.13581 0.30755 0.16269 0.09900
C 	C 	0.20386 0.59740 0.97157 0.31900
N 	N 	0.13774 0.31138 0.14139 -0.20400
H 	H 	0.15569 0.31801 0.08809 0.05700
C 	C 	0.12857 0.59108 0.07925 -0.12200
C 	C 	0.19801 0.34221 0.35664 -0.00000
C 	C 	0.19453 0.36264 0.30551 0.05900
H 	H 	0.19222 0.36829 0.26137 0.04400
H 	H 	0.01143 0.26453 0.38061 0.09500
C 	C 	0.20432 0.31341 0.00427 -0.11200
H 	H 	0.14570 0.36974 0.13215 0.09000
C 	C 	0.19090 0.02406 0.29346 -0.01300
H 	H 	0.20283 0.12401 0.65377 0.04500
O 	O 	0.18232 0.59839 0.03489 -0.39500
C 	C 	0.13185 0.69504 0.11288 0.06200
O 	O 	0.23039 0.67343 0.98419 -0.36700
N 	N 	0.21852 0.45015 0.30850 -0.19200
H 	H 	0.21142 0.96630 0.73269 0.07900
N 	N 	0.19317 0.10416 0.82354 -0.20400
C 	C 	0.17564 0.57084 0.06006 0.32600
O 	O 	0.21749 0.67249 0.47489 -0.35400
H 	H 	0.22659 0.47869 0.32775 0.09100
H 	H 	0.21273 0.07593 0.27809 0.05000
H 	H 	0.20604 0.08068 0.84143 0.09600
C 	C 	0.16883 0.65443 0.09927 -0.02100
H 	H 	0.15246 0.80341 0.13742 0.09000
H 	H 	0.22774 0.49046 0.29136 0.08200
C 	C 	0.20642 0.97039 0.33777 -0.01200
C 	C 	0.21783 0.04524 0.68487 -0.11700
N 	N 	0.01471 0.25661 0.55774 -0.19100
O 	O 	0.23680 0.53112 0.44388 -0.32500
O 	O 	0.22153 0.44806 0.02205 -0.38900
C 	C 	0.23206 0.23326 0.03931 -0.10100
N 	N 	0.17556 0.76513 0.12937 -0.19200
C 	C 	0.22929 0.44078 0.40460 -0.08200
C 	C 	0.22047 0.96474 0.38913 0.06100
H 	H 	0.23201 0.93170 0.43089 0.06100
C 	C 	0.22949 0.04055 0.31867 0.07100
C 	C 	0.23387 0.21139 0.78666 -0.10300
C 	C 	0.23896 0.52292 0.41642 0.28200
C 	C 	0.23797 0.41021 0.00215 0.30900
O 	O 	0.24191 0.58380 0.39892 -0.37400
O 	O 	0.25351 0.57433 0.96137 -0.36700
C 	C 	0.23816 0.09467 0.66051 -0.01600
Ni	Ni	0.26318 0.70439 0.41014 1.12100
C 	C 	0.25332 0.28146 0.01452 0.13700
C 	C 	0.25477 0.98088 0.36258 -0.01100
C 	C 	0.26120 0.95313 0.41112 -0.02200
N 	N 	0.24878 0.96237 0.71800 -0.21100
C 	C 	0.24860 0.18162 0.81180 0.13000
O 	O 	0.22757 0.55057 0.06981 -0.38000
H 	H 	0.23105 0.67683 0.10287 0.05100
C 	C 	0.27605 0.39208 0.36556 -0.09200
C 	C 	0.26320 0.00551 0.69352 0.14300
C 	C 	0.01179 0.49997 0.93276 -0.02300
H 	H 	0.27448 0.22023 0.04982 0.06900
Br	Br	0.28611 0.89395 0.49358 -0.22600
H 	H 	0.27542 0.32064 0.75797 0.04500
H 	H 	0.27948 0.92902 0.72333 0.08100
O 	O 	0.28788 0.81680 0.42834 -0.38700
Ni	Ni	0.28658 0.69627 0.02026 1.12000
H 	H 	0.23505 0.78483 0.13322 0.08300
C 	C 	0.29272 0.44448 0.38882 0.13000
N 	N 	0.28613 0.12445 0.32485 -0.19400
C 	C 	0.28736 0.29704 0.77697 -0.02000
O 	O 	0.29840 0.45858 0.98532 -0.36100
H 	H 	0.30482 0.17523 0.31025 0.08800
H 	H 	0.29327 0.19266 0.61680 0.09000
Ni	Ni	0.30953 0.64695 0.46742 1.11900
H 	H 	0.32438 0.39701 0.35293 0.05900
H 	H 	0.30824 0.14127 0.34461 0.09300
C 	C 	0.30601 0.11066 0.64554 0.06400
N 	N 	0.31797 0.29335 0.00021 -0.20500
O 	O 	0.33324 0.76876 0.37666 -0.39400
Ni	Ni	0.31113 0.53857 0.04584 1.11400
H 	H 	0.33181 0.32556 0.98122 0.11300
C 	C 	0.32686 0.01500 0.67715 -0.07900
N 	N 	0.32764 0.16458 0.62308 -0.19200
C 	C 	0.32041 0.23450 0.82528 -0.09500
O 	O 	0.34326 0.70466 0.43360 -0.71000
O 	O 	0.33139 0.62126 0.01725 -0.71200
H 	H 	0.34006 0.70975 0.32518 0.09400
C 	C 	0.33530 0.95821 0.40670 -0.12500
C 	C 	0.33479 0.00233 0.35970 -0.08500
Br	Br	0.33923 0.43398 0.46211 -0.24100
H 	H 	0.33364 0.21014 0.84387 0.06300
H 	H 	0.34894 0.40244 0.85489 0.09600
C 	C 	0.35013 0.89107 0.42046 0.31100
Ni	Ni	0.35097 0.59528 0.98112 1.13000
O 	O 	0.33311 0.73031 0.05909 -0.37500
H 	H 	0.35090 0.26406 0.00690 0.10800
C 	C 	0.35166 0.07162 0.65431 0.00300
H 	H 	0.35565 0.66310 0.42431 0.14600
H 	H 	0.36107 0.98386 0.68344 0.03900
C 	C 	0.35676 0.35207 0.79137 0.05900
O 	O 	0.36515 0.75733 0.49299 -0.33800
N 	N 	0.36922 0.50443 0.39439 -0.20000
H 	H 	0.36442 0.02324 0.33999 0.06100
H 	H 	0.37504 0.99022 0.61099 0.04400
H 	H 	0.37875 0.17990 0.61176 0.09600
C 	C 	0.37483 0.31914 0.81519 0.00300
O 	O 	0.38204 0.80041 0.00347 -0.37500
H 	H 	0.38284 0.55052 0.40975 0.09700
C 	C 	0.37742 0.00082 0.38268 0.15000
H 	H 	0.36926 0.77421 0.11760 0.04100
H 	H 	0.38650 0.66525 0.02134 0.14800
N 	N 	0.39234 0.74424 0.31368 -0.20600
H 	H 	0.39441 0.72129 0.29417 0.08400
H 	H 	0.39260 0.45936 0.76434 0.08300
N 	N 	0.39621 0.40960 0.86687 -0.19300
H 	H 	0.39798 0.42806 0.88725 0.10200
O 	O 	0.39378 0.50141 0.03138 -0.37200
C 	C 	0.39940 0.95956 0.49642 0.09300
H 	H 	0.40508 0.08673 0.49194 0.06700
N 	N 	0.40518 0.43648 0.78241 -0.19200
C 	C 	0.40653 0.78442 0.37171 0.32000
C 	C 	0.39340 0.72116 0.06884 0.28900
O 	O 	0.39226 0.64400 0.06837 -0.37200
O 	O 	0.40828 0.62881 0.47100 -0.34800
O 	O 	0.41037 0.72616 0.96970 -0.33400
H 	H 	0.41584 0.50669 0.38285 0.09500
H 	H 	0.40112 0.79097 0.16483 0.08100
C 	C 	0.42211 0.83451 0.48425 0.31000
O 	O 	0.42243 0.89856 0.41980 -0.38300
C 	C 	0.42781 0.09409 0.64069 -0.00300
C 	C 	0.42649 0.05291 0.61603 -0.07100
C 	C 	0.43340 0.79475 0.98656 0.28500
C 	C 	0.43907 0.05280 0.49443 -0.01200
C 	C 	0.43131 0.79818 0.11271 -0.01800
H 	H 	0.43966 0.99375 0.56852 0.08400
O 	O 	0.44420 0.76376 0.38966 -0.40400
C 	C 	0.44363 0.91544 0.49989 -0.06800
C 	C 	0.44601 0.53853 0.01094 0.30900
Ni	Ni	0.44833 0.79881 0.42844 1.12200
O 	O 	0.45018 0.60531 0.99708 -0.36900
C 	C 	0.45256 0.49206 0.45752 0.11600
H 	H 	0.45497 0.37217 0.46708 0.06200
C 	C 	0.45232 0.37018 0.82892 -0.00000
H 	H 	0.45406 0.48105 0.79370 0.08800
C 	C 	0.45443 0.84805 0.35015 -0.12200
C 	C 	0.45515 0.81917 0.32327 0.13100
C 	C 	0.45613 0.39954 0.85602 0.06600
C 	C 	0.45324 0.79046 0.08595 -0.10500
N 	N 	0.45756 0.05156 0.38297 -0.20500
C 	C 	0.46122 0.64224 0.45157 0.28500
H 	H 	0.46537 0.16649 0.68962 0.08900
N 	N 	0.46035 0.81013 0.16035 -0.19200
O 	O 	0.47477 0.83704 0.46709 -0.38300
Br	Br	0.47772 0.55674 0.94464 -0.27400
C 	C 	0.48487 0.49060 0.99970 -0.08600
N 	N 	0.48654 0.05678 0.57285 -0.19000
C 	C 	0.48632 0.82154 0.13395 0.05900
C 	C 	0.48745 0.09725 0.59662 0.12300
H 	H 	0.48892 0.06081 0.40108 0.11000
H 	H 	0.48877 0.08591 0.36540 0.09100
C 	C 	0.49025 0.44145 0.46135 -0.03500
C 	C 	0.49100 0.48226 0.97104 0.12200
C 	C 	0.99966 0.76860 0.11892 0.04800
C 	C 	0.99972 0.82556 0.13915 -0.02200
C 	C 	0.99658 0.66832 0.15421 -0.11500
H 	H 	0.99613 0.60755 0.15994 0.06000
H 	H 	0.99567 0.88366 0.13337 0.03900
N 	N 	0.99528 0.78687 0.09216 -0.19100
O 	O 	0.99784 0.90948 0.26510 -0.39300
H 	H 	0.99235 0.74378 0.07684 0.08700
H 	H 	0.99207 0.84322 0.08649 0.08100
O 	O 	0.98042 0.84875 0.21084 -0.40000
H 	H 	0.94441 0.56978 0.08788 0.05500
H 	H 	0.94500 0.47210 0.05361 0.09700
O 	O 	0.99625 0.19006 0.72718 -0.38600
C 	C 	0.77676 0.52257 0.94215 0.29300
C 	C 	0.63713 0.14515 0.96384 0.30700
C 	C 	0.87681 0.38533 0.94679 0.32900
C 	C 	0.54695 0.30409 0.96744 0.30400
C 	C 	0.68335 0.20488 0.87866 0.32300
C 	C 	0.62352 0.37251 0.87919 0.29500
Ni	Ni	0.71572 0.34329 0.96896 1.11800
Ni	Ni	0.59112 0.22918 0.92073 1.12300
Ni	Ni	0.76802 0.38352 0.90468 1.12000
O 	O 	0.73681 0.47393 0.96393 -0.36000
O 	O 	0.81809 0.49805 0.92633 -0.37900
O 	O 	0.64420 0.17118 0.90151 -0.39700
O 	O 	0.70300 0.21619 0.97147 -0.33500
O 	O 	0.57816 0.15298 0.95383 -0.36100
O 	O 	0.70131 0.42265 0.88326 -0.39100
O 	O 	0.83815 0.40042 0.96622 -0.36200
O 	O 	0.84194 0.34895 0.92369 -0.37800
O 	O 	0.58465 0.28639 0.88526 -0.39100
O 	O 	0.59825 0.29097 0.98137 -0.34600
O 	O 	0.52824 0.27474 0.94205 -0.37500
O 	O 	0.74323 0.28673 0.87732 -0.38900
O 	O 	0.68672 0.32933 0.93174 -0.70900
H 	H 	0.66554 0.37040 0.93057 0.14000
C 	C 	0.79272 0.28911 0.53295 0.29000
C 	C 	0.60945 0.44220 0.47928 0.32100
C 	C 	0.85676 0.52285 0.51472 0.32400
C 	C 	0.56563 0.19952 0.49137 0.29300
C 	C 	0.64077 0.48547 0.56810 0.32000
C 	C 	0.58457 0.24971 0.57925 0.29400
Ni	Ni	0.71969 0.36780 0.49196 1.11400
Ni	Ni	0.56716 0.33475 0.52970 1.12100
Ni	Ni	0.73663 0.40531 0.55727 1.12100
O 	O 	0.80037 0.32979 0.50870 -0.35600
O 	O 	0.77376 0.31587 0.55573 -0.38500
O 	O 	0.57472 0.41403 0.56114 -0.37800
O 	O 	0.64828 0.40424 0.46880 -0.34800
O 	O 	0.59873 0.44197 0.50562 -0.37700
O 	O 	0.64816 0.32801 0.58445 -0.38700
O 	O 	0.79667 0.50005 0.49861 -0.35900
O 	O 	0.84480 0.49019 0.53974 -0.37200
O 	O 	0.54044 0.23860 0.55738 -0.38700
O 	O 	0.63830 0.24016 0.48105 -0.34900
O 	O 	0.52995 0.24582 0.49817 -0.37500
O 	O 	0.70831 0.50119 0.55714 -0.38700
O 	O 	0.67124 0.34838 0.52667 -0.71000
H 	H 	0.65855 0.28679 0.53010 0.15000
C 	C 	0.90403 0.82029 0.72174 0.32200
C 	C 	0.91377 0.90743 0.79036 0.29400
C 	C 	0.94800 0.06049 0.67877 0.31500
C 	C 	0.93844 0.16375 0.74592 0.30600
Ni	Ni	0.89710 0.98000 0.73432 1.11100
O 	O 	0.89583 0.04057 0.69887 -0.38200
O 	O 	0.95780 0.83414 0.74025 -0.38400
O 	O 	0.89933 0.88644 0.71097 -0.40300
O 	O 	0.89729 0.08015 0.75445 -0.38600
O 	O 	0.99155 0.93860 0.78781 -0.38800
O 	O 	0.86822 0.90032 0.76892 -0.38900
O 	O 	0.49495 0.71691 0.43655 -0.36000
C 	C 	0.87704 0.02602 0.26253 0.31200
C 	C 	0.83605 0.95615 0.19629 0.29600
Ni	Ni	0.98809 0.11862 0.21541 1.10900
Ni	Ni	0.93585 0.91336 0.23209 1.11600
O 	O 	0.93952 0.10061 0.25431 -0.39500
O 	O 	0.86615 0.94647 0.25555 -0.39700
O 	O 	0.87150 0.04115 0.20234 -0.36600
O 	O 	0.87336 0.91003 0.19856 -0.38900
H 	H 	0.97960 0.17858 0.03167 0.10400
C 	C 	0.53482 0.82616 0.07930 0.12900
C 	C 	0.59135 0.86254 0.09995 -0.09300
C 	C 	0.56726 0.85171 0.12740 0.00400
N 	N 	0.55844 0.81902 0.05365 -0.20300
H 	H 	0.65390 0.89069 0.09490 0.06200
C 	C 	0.62620 0.86618 0.14877 0.00000
C 	C 	0.64899 0.93669 0.16681 -0.09500
C 	C 	0.70793 0.95473 0.18609 0.11800
C 	C 	0.75690 0.91569 0.18328 -0.10600
C 	C 	0.73356 0.84387 0.16559 -0.02600
C 	C 	0.66562 0.81549 0.14946 0.06200
H 	H 	0.61762 0.97411 0.16690 0.05600
N 	N 	0.71263 0.00256 0.20849 -0.18900
H 	H 	0.76806 0.81013 0.16430 0.05000
N 	N 	0.63801 0.73942 0.13500 -0.19300
H 	H 	0.68033 0.03620 0.20971 0.08800
H 	H 	0.74130 0.99844 0.22590 0.08900
H 	H 	0.66947 0.70473 0.13460 0.08700
H 	H 	0.58319 0.71161 0.12526 0.09300
H 	H 	0.49723 0.81594 0.17658 0.08600
H 	H 	0.51741 0.78678 0.03824 0.09000
H 	H 	0.61870 0.84522 0.04894 0.09500
C 	C 	0.52325 0.86689 0.30672 -0.10400
C 	C 	0.58895 0.94356 0.31662 0.00900
C 	C 	0.58165 0.98035 0.34130 0.04400
C 	C 	0.51638 0.93031 0.35843 -0.01900
H 	H 	0.52723 0.84105 0.28701 0.05700
C 	C 	0.66847 0.97216 0.30478 -0.02100
N 	N 	0.63970 0.06115 0.34948 -0.18400
H 	H 	0.51866 0.95014 0.37943 0.03500
C 	C 	0.69925 0.03984 0.28500 -0.07700
C 	C 	0.77687 0.07294 0.27487 0.11400
C 	C 	0.82007 0.02948 0.28201 -0.09400
C 	C 	0.79292 0.96891 0.30390 -0.04200
C 	C 	0.71684 0.93847 0.31510 0.07200
H 	H 	0.66392 0.06916 0.27828 0.05200
N 	N 	0.80928 0.14602 0.25841 -0.20300
H 	H 	0.82843 0.93989 0.31071 0.04700
N 	N 	0.69008 0.87576 0.33529 -0.19500
H 	H 	0.77443 0.17242 0.25121 0.08300
H 	H 	0.87015 0.18146 0.25449 0.09000
H 	H 	0.72655 0.85194 0.34284 0.08900
H 	H 	0.63298 0.84948 0.34357 0.09500
H 	H 	0.63566 0.08608 0.36845 0.09000
H 	H 	0.68754 0.10145 0.33666 0.09100
C 	C 	0.52280 0.10108 0.49405 -0.09500
C 	C 	0.56507 0.05444 0.49809 0.13400
C 	C 	0.52355 0.96641 0.50680 -0.06700
H 	H 	0.55680 0.93316 0.51201 0.07100
Br	Br	0.66953 0.09563 0.48269 -0.23200
C 	C 	0.97820 0.51293 0.50504 -0.04300
C 	C 	0.93700 0.56016 0.50245 -0.08500
C 	C 	0.96842 0.63611 0.48547 0.12000
Br	Br	0.92265 0.71226 0.48536 -0.20600
H 	H 	0.95578 0.45624 0.51867 0.07000
C 	C 	0.57324 0.48171 0.46150 -0.08300
C 	C 	0.61828 0.57056 0.45271 0.12500
C 	C 	0.58086 0.62131 0.44774 -0.04000
C 	C 	0.49828 0.58400 0.45156 -0.07300
H 	H 	0.61658 0.69063 0.44218 0.07300
Br	Br	0.73106 0.62438 0.44821 -0.21000
C 	C 	0.82064 0.22411 0.53619 -0.08900
C 	C 	0.76940 0.14096 0.54883 0.13300
C 	C 	0.80209 0.09745 0.56376 -0.08800
C 	C 	0.88263 0.14267 0.57050 0.00100
C 	C 	0.93477 0.21827 0.55481 0.06900
C 	C 	0.90290 0.25576 0.53662 -0.02400
N 	N 	0.68951 0.10815 0.54943 -0.19900
H 	H 	0.76287 0.03524 0.57404 0.06400
C 	C 	0.90543 0.12736 0.59819 0.00600
H 	H 	0.94240 0.31534 0.52529 0.06100
C 	C 	0.94423 0.07733 0.60110 -0.10300
C 	C 	0.95561 0.05059 0.62721 0.14500
C 	C 	0.92612 0.07312 0.65069 -0.11200
C 	C 	0.88162 0.11626 0.64734 -0.02100
C 	C 	0.87668 0.14992 0.62177 0.05900
H 	H 	0.96396 0.05741 0.58304 0.06600
N 	N 	0.99071 0.99946 0.62941 -0.21500
H 	H 	0.85269 0.12612 0.66479 0.04600
N 	N 	0.84479 0.20438 0.62000 -0.19200
H 	H 	0.99050 0.96884 0.64786 0.10100
H 	H 	0.81985 0.21687 0.63726 0.08300
H 	H 	0.84842 0.23869 0.60198 0.09500
H 	H 	0.66403 0.14368 0.54110 0.09200
H 	H 	0.65206 0.04721 0.55887 0.09400
C 	C 	0.54834 0.18475 0.60194 -0.10500
C 	C 	0.55865 0.21556 0.62889 -0.02800
C 	C 	0.49865 0.17003 0.64853 0.06200
H 	H 	0.60979 0.27840 0.63401 0.04700
N 	N 	0.50873 0.19990 0.67460 -0.19300
H 	H 	0.53378 0.08620 0.55895 0.09500
H 	H 	0.56203 0.25481 0.68040 0.08000
C 	C 	0.64299 0.52750 0.59431 -0.12000
C 	C 	0.69842 0.61779 0.59808 0.13600
C 	C 	0.73041 0.64700 0.62403 -0.10000
C 	C 	0.70539 0.58774 0.64629 0.00200
C 	C 	0.63991 0.50150 0.64335 0.05600
C 	C 	0.60788 0.47292 0.61733 -0.01900
N 	N 	0.72191 0.67604 0.57674 -0.20400
H 	H 	0.77653 0.71512 0.62677 0.06100
C 	C 	0.74924 0.61668 0.67220 0.00200
N 	N 	0.60863 0.44553 0.66516 -0.19300
H 	H 	0.56106 0.40510 0.61466 0.05200
C 	C 	0.71766 0.64392 0.69341 -0.10000
C 	C 	0.76683 0.69749 0.71420 0.12700
C 	C 	0.84964 0.73033 0.71231 -0.12100
C 	C 	0.87859 0.69121 0.69389 -0.01700
C 	C 	0.82848 0.63341 0.67385 0.05800
H 	H 	0.65563 0.62664 0.69308 0.05600
N 	N 	0.73485 0.71924 0.73554 -0.21000
H 	H 	0.94137 0.71170 0.69355 0.04200
N 	N 	0.85698 0.59599 0.65592 -0.19100
H 	H 	0.67433 0.69942 0.73602 0.08200
H 	H 	0.76870 0.75087 0.75257 0.09400
H 	H 	0.91638 0.61127 0.65656 0.08500
H 	H 	0.81971 0.54898 0.64190 0.08500
H 	H 	0.55739 0.38421 0.66297 0.08400
H 	H 	0.63442 0.46211 0.68442 0.08400
H 	H 	0.69514 0.65675 0.55767 0.11100
H 	H 	0.76523 0.74220 0.57936 0.09400
C 	C 	0.96314 0.42582 0.94916 -0.09400
C 	C 	0.99506 0.40795 0.97254 0.12500
H 	H 	0.98760 0.51438 0.91476 0.05300
Br	Br	0.93234 0.30374 0.99442 -0.24500
C 	C 	0.60359 0.99315 0.95143 -0.07900
C 	C 	0.62147 0.05616 0.97198 -0.05400
C 	C 	0.59693 0.02653 0.99890 0.14100
C 	C 	0.54150 0.93762 0.00398 -0.05900
C 	C 	0.51193 0.87649 0.98245 -0.07000
C 	C 	0.54890 0.90341 0.95639 0.13200
Br	Br	0.52994 0.82046 0.92768 -0.22200
H 	H 	0.62683 0.01488 0.93096 0.08500
H 	H 	0.51536 0.91817 0.02420 0.07000
Br	Br	0.63021 0.10859 0.02855 -0.21100
C 	C 	0.50733 0.41798 0.96104 -0.04200
C 	C 	0.51902 0.36222 0.97879 -0.08900
C 	C 	0.51488 0.37166 0.00732 0.11600
C 	C 	0.50154 0.43830 0.01749 -0.03700
H 	H 	0.51231 0.41240 0.93925 0.05900
H 	H 	0.49759 0.44453 0.03938 0.06600
Br	Br	0.51322 0.28545 0.03265 -0.22300
C 	C 	0.90499 0.22134 0.75180 -0.11100
C 	C 	0.83546 0.20487 0.73813 0.13300
C 	C 	0.76911 0.19135 0.75352 -0.09900
C 	C 	0.77788 0.21184 0.78136 0.00200
C 	C 	0.85562 0.25968 0.79202 0.06400
C 	C 	0.91889 0.26083 0.77747 -0.02300
N 	N 	0.83227 0.20064 0.71054 -0.20500
H 	H 	0.71082 0.16010 0.74435 0.05500
C 	C 	0.71018 0.16166 0.80021 0.00500
N 	N 	0.86846 0.29957 0.81669 -0.19300
H 	H 	0.97573 0.28341 0.78722 0.04200
C 	C 	0.71529 0.10292 0.81891 -0.09700
C 	C 	0.69079 0.10052 0.84607 0.14100
C 	C 	0.65750 0.15376 0.85350 -0.12100
C 	C 	0.62805 0.18556 0.83276 -0.01900
C 	C 	0.65637 0.19241 0.80592 0.06100
H 	H 	0.74865 0.06998 0.81345 0.06600
N 	N 	0.70423 0.05240 0.86516 -0.20500
H 	H 	0.59257 0.21603 0.83805 0.05000
N 	N 	0.63307 0.22949 0.78606 -0.19200
H 	H 	0.73211 0.01604 0.85977 0.09800
H 	H 	0.68492 0.04875 0.88533 0.11100
H 	H 	0.58992 0.24757 0.79019 0.08400
H 	H 	0.65509 0.23738 0.76614 0.08300
H 	H 	0.92517 0.33063 0.82516 0.08900
H 	H 	0.82286 0.30337 0.82704 0.09700
H 	H 	0.88431 0.22201 0.69905 0.09800
H 	H 	0.77925 0.18313 0.70038 0.08400
C 	C 	0.52066 0.37622 0.81670 -0.09700
C 	C 	0.58806 0.39790 0.83249 0.12700
C 	C 	0.58391 0.40609 0.86104 -0.10700
C 	C 	0.52222 0.41698 0.87197 -0.02600
H 	H 	0.52009 0.36005 0.79531 0.05500
N 	N 	0.65609 0.41034 0.82025 -0.20500
H 	H 	0.52270 0.43224 0.89336 0.04200
H 	H 	0.65953 0.40677 0.79902 0.08300
H 	H 	0.70737 0.42851 0.83152 0.09600
C 	C 	0.77651 0.60539 0.93520 -0.10500
C 	C 	0.84975 0.68506 0.93296 0.13400
C 	C 	0.86040 0.74721 0.91241 -0.09400
C 	C 	0.79777 0.73220 0.89499 0.00100
C 	C 	0.72052 0.66232 0.90127 0.07100
C 	C 	0.71049 0.59912 0.92143 -0.02000
N 	N 	0.91111 0.69980 0.94950 -0.20300
H 	H 	0.91873 0.80396 0.90882 0.06000
C 	C 	0.81659 0.77552 0.86745 0.00400
N 	N 	0.65639 0.65482 0.88775 -0.19100
H 	H 	0.65287 0.54067 0.92433 0.04600
C 	C 	0.81749 0.72664 0.84490 -0.09700
C 	C 	0.84650 0.76762 0.81933 0.12700
C 	C 	0.87426 0.85976 0.81611 -0.10600
C 	C 	0.86980 0.90793 0.83836 -0.02600
C 	C 	0.84037 0.86645 0.86399 0.05900
H 	H 	0.79795 0.65669 0.84748 0.06100
N 	N 	0.84868 0.71837 0.79819 -0.20700
H 	H 	0.88985 0.97799 0.83585 0.03500
N 	N 	0.83403 0.91385 0.88493 -0.19300
H 	H 	0.82759 0.65052 0.80076 0.08700
H 	H 	0.87113 0.74643 0.77910 0.10400
H 	H 	0.85299 0.98125 0.88239 0.08300
H 	H 	0.80812 0.88382 0.90361 0.09400
H 	H 	0.59962 0.60232 0.89208 0.10400
H 	H 	0.66198 0.70310 0.87366 0.09700
H 	H 	0.90356 0.65590 0.96545 0.10400
H 	H 	0.96635 0.75687 0.94708 0.09400
