data_crystal

_cell_length_a 25.27065
_cell_length_b 27.06508
_cell_length_c 41.66747
_cell_angle_alpha 90.00066
_cell_angle_beta  90.00342
_cell_angle_gamma 120.47910

_symmetry_space_group_name_	'P 1'
_symmetry_space_group_name_H-M	'P 1'

loop_
_symmetry_equiv_pos_as_xyz
  x,y,z

loop_
_atom_site_label
_atom_site_type_symbol
_atom_site_fract_x
_atom_site_fract_y
_atom_site_fract_z
_atom_site_charge
C 	C 	0.74546 0.46121 0.79529 0.28800
C 	C 	0.73084 0.29562 0.69676 0.32600
C 	C 	0.73866 0.45939 0.70565 0.31000
C 	C 	0.75335 0.28858 0.78638 0.28900
C 	C 	0.55897 0.29436 0.70934 0.31000
C 	C 	0.57523 0.28942 0.80018 0.30300
Ni	Ni	0.76942 0.38778 0.74646 1.11200
Ni	Ni	0.63982 0.26755 0.74846 1.12100
Ni	Ni	0.64064 0.38555 0.75286 1.12100
O 	O 	0.78333 0.45969 0.77336 -0.37200
O 	O 	0.68475 0.42938 0.79270 -0.38200
O 	O 	0.56165 0.25730 0.72879 -0.38200
O 	O 	0.77356 0.32670 0.71784 -0.37700
O 	O 	0.67261 0.27577 0.70315 -0.38400
O 	O 	0.57013 0.32423 0.77942 -0.38100
O 	O 	0.75498 0.42070 0.70484 -0.38300
O 	O 	0.70147 0.45789 0.72827 -0.38000
O 	O 	0.59933 0.25765 0.79149 -0.38100
O 	O 	0.78154 0.34541 0.78479 -0.37500
O 	O 	0.70818 0.25515 0.76612 -0.37500
O 	O 	0.60019 0.34920 0.71111 -0.39000
O 	O 	0.68619 0.34767 0.75675 -0.71900
H 	H 	0.68965 0.34699 0.78027 0.15800
C 	C 	0.24605 0.53965 0.29329 0.31100
C 	C 	0.26028 0.70095 0.19160 0.30800
C 	C 	0.25721 0.53976 0.20660 0.31100
C 	C 	0.23392 0.71090 0.28149 0.30500
C 	C 	0.43486 0.70912 0.20971 0.30900
C 	C 	0.41205 0.71807 0.29976 0.28700
Ni	Ni	0.22199 0.61180 0.24315 1.11300
Ni	Ni	0.34901 0.73447 0.24505 1.12100
Ni	Ni	0.35277 0.61909 0.25357 1.12000
O 	O 	0.20766 0.54144 0.27181 -0.37300
O 	O 	0.30590 0.57679 0.29314 -0.38900
O 	O 	0.42944 0.74666 0.22744 -0.38300
O 	O 	0.21706 0.67022 0.21258 -0.37500
O 	O 	0.31847 0.72280 0.19908 -0.38300
O 	O 	0.42016 0.68301 0.28054 -0.37900
O 	O 	0.24180 0.57874 0.20342 -0.38500
O 	O 	0.29590 0.54466 0.22929 -0.37900
O 	O 	0.38755 0.74833 0.28885 -0.38100
O 	O 	0.20512 0.65413 0.27967 -0.37400
O 	O 	0.27749 0.74406 0.26052 -0.37600
O 	O 	0.39438 0.65420 0.21192 -0.39100
O 	O 	0.30459 0.65468 0.25469 -0.71800
H 	H 	0.29962 0.65651 0.27803 0.15900
C 	C 	0.17093 0.08482 0.99811 0.29000
C 	C 	0.09046 0.92414 0.00741 0.32600
C 	C 	0.01750 0.08183 0.05750 0.30300
Ni	Ni	0.06737 0.00406 0.04487 1.11400
Ni	Ni	0.05665 0.99497 0.96729 1.12200
O 	O 	0.15537 0.05072 0.02383 -0.36800
O 	O 	0.13343 0.07219 0.97312 -0.37900
O 	O 	0.01372 0.02731 0.93983 -0.37900
O 	O 	0.05818 0.92676 0.03112 -0.37900
O 	O 	0.10816 0.96149 0.98382 -0.37700
O 	O 	0.06637 0.07607 0.06037 -0.37300
O 	O 	0.03068 0.00998 0.00695 -0.71900
H 	H 	0.04952 0.05187 0.00520 0.16000
C 	C 	0.82993 0.93241 0.48636 0.30500
C 	C 	0.06152 0.07173 0.56078 0.32800
C 	C 	0.08132 0.10670 0.45880 0.31200
Ni	Ni	0.04980 0.00860 0.50176 1.12100
O 	O 	0.84511 0.96223 0.51377 -0.36800
O 	O 	0.09249 0.06534 0.46564 -0.38500
O 	O 	0.00506 0.03441 0.56951 -0.37000
O 	O 	0.07748 0.07726 0.53063 -0.39200
O 	O 	0.02539 0.94536 0.46982 -0.38700
O 	O 	0.02550 0.95347 0.54028 -0.37500
O 	O 	0.02582 0.09859 0.46141 -0.39200
C 	C 	0.22034 0.48459 0.18998 -0.09300
C 	C 	0.24855 0.45666 0.17597 0.02200
C 	C 	0.21340 0.40606 0.15848 -0.06800
C 	C 	0.14978 0.38290 0.15515 0.03000
C 	C 	0.12149 0.41014 0.16978 -0.06900
C 	C 	0.15653 0.46070 0.18711 0.02300
C 	C 	0.11285 0.33035 0.13619 0.00100
C 	C 	0.07016 0.27923 0.15146 -0.03900
C 	C 	0.03825 0.22849 0.13376 -0.03200
C 	C 	0.04882 0.22856 0.10072 -0.00500
C 	C 	0.08852 0.28037 0.08515 -0.03200
C 	C 	0.12060 0.33108 0.10284 -0.03900
C 	C 	0.03069 0.17524 0.08463 0.04500
C 	C 	0.02094 0.13155 0.07175 -0.09700
H 	H 	0.29769 0.47463 0.17810 0.03200
H 	H 	0.23556 0.38501 0.14743 0.04900
H 	H 	0.07240 0.39240 0.16749 0.04800
H 	H 	0.13412 0.48146 0.19825 0.02100
H 	H 	0.06313 0.27846 0.17715 0.04100
H 	H 	0.00768 0.18866 0.14601 0.04100
H 	H 	0.09696 0.28086 0.05962 0.04100
H 	H 	0.15253 0.37062 0.09075 0.04100
C 	C 	0.49275 0.72770 0.19228 -0.08900
C 	C 	0.51873 0.69248 0.19165 0.02000
C 	C 	0.57706 0.71276 0.17847 -0.06700
C 	C 	0.60981 0.76827 0.16561 0.02900
C 	C 	0.58314 0.80286 0.16536 -0.06700
C 	C 	0.52495 0.78272 0.17869 0.02000
C 	C 	0.67189 0.79011 0.15222 0.00200
C 	C 	0.72205 0.84043 0.16451 -0.04000
C 	C 	0.77974 0.86385 0.14997 -0.03100
C 	C 	0.78774 0.83696 0.12321 -0.00800
C 	C 	0.73842 0.78523 0.11189 -0.03100
C 	C 	0.68066 0.76192 0.12629 -0.04000
C 	C 	0.84315 0.86649 0.10448 0.05200
H 	H 	0.49460 0.65007 0.20223 0.02800
H 	H 	0.59717 0.68567 0.17869 0.04700
H 	H 	0.60764 0.84544 0.15500 0.04800
H 	H 	0.50518 0.81010 0.17875 0.03300
H 	H 	0.71599 0.86204 0.18485 0.04100
H 	H 	0.81763 0.90386 0.15886 0.04200
H 	H 	0.74423 0.76423 0.09118 0.04100
H 	H 	0.64237 0.72291 0.11672 0.04100
C 	C 	0.24364 0.71456 0.16022 -0.08700
C 	C 	0.28334 0.72831 0.13382 0.01700
C 	C 	0.26949 0.74487 0.10468 -0.06600
C 	C 	0.21587 0.74784 0.10166 0.02700
C 	C 	0.17519 0.73220 0.12769 -0.06500
C 	C 	0.18892 0.71557 0.15679 0.01600
C 	C 	0.20524 0.77275 0.07258 0.00300
C 	C 	0.24612 0.83035 0.06475 -0.04000
C 	C 	0.22831 0.85882 0.04320 -0.03100
C 	C 	0.16947 0.83003 0.02958 -0.00800
C 	C 	0.13171 0.77086 0.03439 -0.03100
C 	C 	0.14955 0.74222 0.05582 -0.04000
C 	C 	0.14271 0.86275 0.01832 0.05000
C 	C 	0.11929 0.89067 0.01170 -0.10700
H 	H 	0.32516 0.72668 0.13594 0.04000
H 	H 	0.30099 0.75649 0.08467 0.04800
H 	H 	0.13385 0.73470 0.12568 0.04800
H 	H 	0.15784 0.70505 0.17690 0.03800
H 	H 	0.28980 0.85408 0.07703 0.04100
H 	H 	0.25832 0.90436 0.03913 0.04000
H 	H 	0.08659 0.74796 0.02346 0.04100
H 	H 	0.11839 0.69729 0.06099 0.04100
C 	C 	0.12871 0.15963 0.44374 -0.09000
C 	C 	0.14604 0.21214 0.45869 0.02000
C 	C 	0.16922 0.26216 0.44041 -0.06500
C 	C 	0.17587 0.26005 0.40710 0.02800
C 	C 	0.16586 0.20899 0.39287 -0.06700
C 	C 	0.14263 0.15894 0.41121 0.01800
C 	C 	0.18566 0.30873 0.38688 0.00200
C 	C 	0.14051 0.30188 0.36470 -0.03900
C 	C 	0.14807 0.34876 0.34681 -0.03200
C 	C 	0.20055 0.40277 0.35111 -0.00600
C 	C 	0.24546 0.40976 0.37337 -0.03200
C 	C 	0.23810 0.36291 0.39117 -0.04000
C 	C 	0.21133 0.44992 0.33073 0.04600
C 	C 	0.22434 0.49040 0.31361 -0.10200
H 	H 	0.13657 0.21331 0.48396 0.03500
H 	H 	0.17819 0.30168 0.45178 0.04800
H 	H 	0.17269 0.20733 0.36731 0.04700
H 	H 	0.13045 0.11875 0.39955 0.03200
H 	H 	0.09943 0.26038 0.36154 0.04100
H 	H 	0.11340 0.34294 0.32948 0.04100
H 	H 	0.28644 0.45134 0.37659 0.04000
H 	H 	0.27307 0.36871 0.40830 0.04000
C 	C 	0.44276 0.73288 0.33120 -0.07900
C 	C 	0.43739 0.68944 0.35171 0.01200
C 	C 	0.47084 0.70355 0.38035 -0.06300
C 	C 	0.51073 0.76127 0.38846 0.02600
C 	C 	0.51427 0.80466 0.36847 -0.06400
C 	C 	0.48018 0.79052 0.34009 0.01600
C 	C 	0.55378 0.77632 0.41572 0.00300
C 	C 	0.56002 0.81753 0.43829 -0.04000
C 	C 	0.61022 0.84185 0.45925 -0.03200
C 	C 	0.65397 0.82461 0.45805 -0.00500
C 	C 	0.64407 0.77915 0.43797 -0.03200
C 	C 	0.59441 0.75530 0.41673 -0.03900
C 	C 	0.71421 0.86117 0.47128 0.04500
C 	C 	0.76635 0.89309 0.47976 -0.09800
H 	H 	0.40793 0.64478 0.34527 0.03500
H 	H 	0.46707 0.66969 0.39578 0.04600
H 	H 	0.54513 0.84935 0.37435 0.04800
H 	H 	0.48461 0.82440 0.32445 0.03600
H 	H 	0.52794 0.83293 0.43838 0.04000
H 	H 	0.61703 0.87645 0.47502 0.04000
H 	H 	0.67726 0.76505 0.43717 0.04100
H 	H 	0.58969 0.72298 0.39976 0.04100
C 	C 	0.00956 0.91103 0.41569 -0.08100
C 	C 	0.04113 0.93715 0.38721 0.01500
C 	C 	0.06277 0.90930 0.36753 -0.06500
C 	C 	0.05272 0.85505 0.37611 0.02700
C 	C 	0.01650 0.82690 0.40302 -0.06400
C 	C 	0.08527 0.83048 0.35906 0.00300
C 	C 	0.05204 0.77726 0.34357 -0.03900
C 	C 	0.08301 0.75269 0.32888 -0.03200
C 	C 	0.14733 0.78114 0.32960 -0.00500
C 	C 	0.18059 0.83437 0.34495 -0.03200
C 	C 	0.14971 0.85896 0.35967 -0.03900
C 	C 	0.17917 0.75667 0.31354 0.04500
C 	C 	0.20495 0.73596 0.29943 -0.09700
H 	H 	0.05236 0.98043 0.38138 0.03600
H 	H 	0.08963 0.93091 0.34642 0.04700
H 	H 	0.00767 0.78463 0.40957 0.04800
H 	H 	0.00233 0.75490 0.34301 0.04100
H 	H 	0.05702 0.71166 0.31689 0.04100
H 	H 	0.23032 0.85671 0.34548 0.04100
H 	H 	0.17576 0.89981 0.37182 0.04200
C 	C 	0.78407 0.26283 0.80399 -0.07900
C 	C 	0.79310 0.22115 0.78903 0.01500
C 	C 	0.82443 0.19825 0.80499 -0.06400
C 	C 	0.84663 0.21628 0.83622 0.02600
C 	C 	0.83793 0.25817 0.85119 -0.06300
C 	C 	0.80704 0.28158 0.83505 0.01300
C 	C 	0.84554 0.12975 0.85795 -0.03900
H 	H 	0.77669 0.20715 0.76482 0.04000
H 	H 	0.83138 0.16638 0.79310 0.04800
H 	H 	0.85454 0.27216 0.87537 0.04700
H 	H 	0.80063 0.31390 0.84678 0.03400
H 	H 	0.84884 0.05817 0.87800 0.04200
H 	H 	0.79925 0.10326 0.84889 0.04100
C 	C 	0.77045 0.50722 0.81952 -0.08200
C 	C 	0.81602 0.56308 0.81098 0.01400
C 	C 	0.82884 0.60928 0.83109 -0.06400
C 	C 	0.79602 0.60001 0.85984 0.02600
C 	C 	0.75325 0.54383 0.86928 -0.06400
C 	C 	0.74097 0.49766 0.84938 0.01400
C 	C 	0.80547 0.64915 0.87970 0.00300
C 	C 	0.79879 0.69323 0.86616 -0.04000
C 	C 	0.81185 0.74154 0.88440 -0.03100
C 	C 	0.83107 0.74587 0.91636 -0.00700
C 	C 	0.83408 0.70030 0.93044 -0.03000
C 	C 	0.82175 0.65231 0.91215 -0.04000
C 	C 	0.85969 0.80060 0.93235 0.05200
H 	H 	0.83933 0.57111 0.78809 0.03700
H 	H 	0.86313 0.65236 0.82396 0.04700
H 	H 	0.72822 0.53607 0.89159 0.04700
H 	H 	0.70641 0.45464 0.85647 0.03500
H 	H 	0.78481 0.69063 0.84134 0.04100
H 	H 	0.80943 0.77655 0.87330 0.04100
H 	H 	0.84902 0.70333 0.95511 0.04300
H 	H 	0.82656 0.61838 0.92296 0.04100
C 	C 	0.23581 0.12783 0.99328 -0.08100
C 	C 	0.27916 0.11011 0.99136 0.01700
C 	C 	0.33407 0.14341 0.97465 -0.06400
C 	C 	0.34620 0.19497 0.96018 0.02600
C 	C 	0.30723 0.21669 0.96654 -0.06400
C 	C 	0.25186 0.18293 0.98277 0.01500
C 	C 	0.39046 0.21885 0.93341 0.00300
C 	C 	0.36962 0.22124 0.90253 -0.03900
C 	C 	0.40932 0.23716 0.87633 -0.03200
C 	C 	0.47010 0.25056 0.88066 -0.00500
C 	C 	0.49166 0.24960 0.91153 -0.03200
C 	C 	0.45195 0.23385 0.93789 -0.04000
C 	C 	0.50968 0.26425 0.85323 0.04500
C 	C 	0.54063 0.27555 0.82937 -0.09800
H 	H 	0.26785 0.06818 0.00013 0.03800
H 	H 	0.36461 0.12687 0.97069 0.04800
H 	H 	0.31735 0.25754 0.95656 0.04700
H 	H 	0.21944 0.19776 0.98498 0.03200
H 	H 	0.32213 0.20915 0.89872 0.04300
H 	H 	0.39249 0.23810 0.85255 0.04200
H 	H 	0.53880 0.26032 0.91506 0.04000
H 	H 	0.46858 0.23227 0.96161 0.04000
C 	C 	0.84816 0.19001 0.53851 0.02700
C 	C 	0.81277 0.14364 0.51791 -0.06600
C 	C 	0.83905 0.11475 0.50315 0.01600
C 	C 	0.81767 0.20818 0.56204 0.00300
C 	C 	0.77532 0.16808 0.58389 -0.03900
C 	C 	0.75480 0.18642 0.60989 -0.03100
C 	C 	0.77647 0.24489 0.61433 -0.00700
C 	C 	0.81637 0.28481 0.59174 -0.03100
C 	C 	0.83676 0.26650 0.56557 -0.04000
C 	C 	0.76079 0.26403 0.64310 0.05000
C 	C 	0.74741 0.27893 0.66753 -0.10700
H 	H 	0.76406 0.12753 0.51517 0.04700
H 	H 	0.81022 0.07622 0.48944 0.03800
H 	H 	0.76040 0.12301 0.58150 0.04100
H 	H 	0.72354 0.15530 0.62713 0.04000
H 	H 	0.83282 0.33008 0.59487 0.04100
H 	H 	0.86897 0.29777 0.54871 0.04000
C 	C 	0.77105 0.51037 0.68488 -0.09100
C 	C 	0.83127 0.52884 0.67457 0.02000
C 	C 	0.86247 0.57733 0.65515 -0.06800
C 	C 	0.83396 0.60791 0.64579 0.02900
C 	C 	0.77377 0.58955 0.65594 -0.06700
C 	C 	0.74246 0.54101 0.67547 0.02000
C 	C 	0.86747 0.65966 0.62577 0.00200
C 	C 	0.84831 0.65994 0.59421 -0.03900
H 	H 	0.85418 0.50601 0.68192 0.02800
H 	H 	0.75145 0.61305 0.64885 0.04900
H 	H 	0.69599 0.52712 0.68311 0.03300
H 	H 	0.80980 0.62167 0.58413 0.04100
C 	C 	0.50245 0.27583 0.69063 -0.08800
C 	C 	0.47432 0.30923 0.69054 0.02000
C 	C 	0.41576 0.28750 0.67730 -0.06700
C 	C 	0.38501 0.23240 0.66376 0.02900
C 	C 	0.41418 0.19997 0.66267 -0.06600
C 	C 	0.47250 0.22150 0.67614 0.02100
C 	C 	0.32227 0.20856 0.65073 0.00300
C 	C 	0.31107 0.23694 0.62581 -0.04000
C 	C 	0.25313 0.21169 0.61141 -0.03100
C 	C 	0.20607 0.15777 0.62167 -0.00800
C 	C 	0.21631 0.13059 0.64755 -0.03100
C 	C 	0.27414 0.15598 0.66214 -0.03900
C 	C 	0.15147 0.12675 0.60241 0.05100
C 	C 	0.10841 0.10118 0.58452 -0.10900
H 	H 	0.49675 0.35109 0.70181 0.02800
H 	H 	0.39382 0.31301 0.67812 0.04700
H 	H 	0.39137 0.15785 0.65171 0.04800
H 	H 	0.49393 0.19552 0.67583 0.03400
H 	H 	0.34773 0.27765 0.61692 0.04100
H 	H 	0.24560 0.23297 0.59139 0.04100
H 	H 	0.18020 0.08892 0.65564 0.04100
H 	H 	0.28197 0.13416 0.68175 0.04200
H 	H 	0.86125 0.71054 0.55199 0.04100
C 	C 	0.87664 0.18944 0.85368 0.00300
O 	O 	0.86901 0.94700 0.46200 -0.38100
C 	C 	0.87374 0.10417 0.87433 -0.03200
C 	C 	0.87786 0.71011 0.57591 -0.03200
C 	C 	0.88743 0.89152 0.08732 -0.11000
C 	C 	0.88877 0.84628 0.94563 -0.10500
H 	H 	0.90891 0.59123 0.64743 0.04800
C 	C 	0.90090 0.13228 0.50883 -0.08900
C 	C 	0.91818 0.70913 0.63835 -0.03900
C 	C 	0.91166 0.21189 0.54070 -0.06500
O 	O 	0.91194 0.93521 0.96966 -0.38500
O 	O 	0.90443 0.05816 0.47844 -0.37900
H 	H 	0.01032 0.22405 0.89205 0.04100
C 	C 	0.92657 0.76035 0.58906 -0.00500
H 	H 	0.93372 0.70911 0.66258 0.04100
O 	O 	0.92386 0.91783 0.03442 -0.39100
O 	O 	0.92246 0.92169 0.54961 -0.37300
C 	C 	0.93041 0.89953 0.96098 0.33000
C 	C 	0.92270 0.09180 0.50378 0.30900
C 	C 	0.93662 0.22322 0.86562 -0.03900
C 	C 	0.93305 0.13798 0.88684 -0.00400
H 	H 	0.93979 0.24851 0.55590 0.04800
Ni	Ni	0.93105 0.99945 0.53733 1.11400
C 	C 	0.93675 0.92149 0.06494 0.33000
C 	C 	0.93796 0.18327 0.52578 0.01800
C 	C 	0.94759 0.75934 0.62005 -0.03200
C 	C 	0.94675 0.81441 0.57338 0.04500
H 	H 	0.94605 0.95346 0.49570 0.16000
Ni	Ni	0.94684 0.98841 0.00804 1.12100
Ni	Ni	0.95088 0.02057 0.46068 1.12100
O 	O 	0.94947 0.08161 0.52761 -0.37900
C 	C 	0.00353 0.94592 0.44091 0.29000
C 	C 	0.95802 0.11222 0.90762 0.04500
H 	H 	0.96134 0.26925 0.86216 0.04100
C 	C 	0.95954 0.85934 0.56096 -0.09800
C 	C 	0.99032 0.05937 0.94970 0.30800
O 	O 	0.99152 0.95985 0.07529 -0.37000
O 	O 	0.96732 0.05453 0.97890 -0.38900
O 	O 	0.96291 0.03803 0.04854 -0.37400
O 	O 	0.98813 0.91391 0.96330 -0.39100
C 	C 	0.96855 0.91168 0.54733 0.30300
O 	O 	0.99024 0.98607 0.43235 -0.38000
O 	O 	0.96867 0.99515 0.49945 -0.71800
C 	C 	0.99485 0.85471 0.42267 0.01500
H 	H 	0.96960 0.83373 0.44430 0.03400
C 	C 	0.96462 0.19755 0.88226 -0.03200
C 	C 	0.97523 0.08894 0.92609 -0.09700
H 	H 	0.98625 0.19830 0.52941 0.03600
H 	H 	0.98507 0.79801 0.63045 0.04200
