data_crystal

_cell_length_a 18.55897
_cell_length_b 18.83887
_cell_length_c 34.45396
_cell_angle_alpha 95.44545
_cell_angle_beta  95.44543
_cell_angle_gamma 126.40879

_symmetry_space_group_name_	'P 1'
_symmetry_space_group_name_H-M	'P 1'

loop_
_symmetry_equiv_pos_as_xyz
  x,y,z

loop_
_atom_site_label
_atom_site_type_symbol
_atom_site_fract_x
_atom_site_fract_y
_atom_site_fract_z
_atom_site_charge
C 	C 	0.88985 0.98350 0.96697 0.03100
C 	C 	0.98180 0.04005 0.96377 -0.04800
C 	C 	0.03228 0.00710 0.96302 0.01700
C 	C 	0.99066 0.91700 0.96513 -0.05000
C 	C 	0.89773 0.85887 0.96673 0.03500
C 	C 	0.84718 0.89229 0.96794 -0.07100
H 	H 	0.01462 0.11025 0.96283 0.05400
H 	H 	0.03024 0.89187 0.96505 0.05800
H 	H 	0.77574 0.84808 0.97002 0.06200
C 	C 	0.95541 0.03497 0.48792 0.06600
C 	C 	0.89986 0.94231 0.48721 -0.09300
C 	C 	0.93892 0.89806 0.49133 0.06400
C 	C 	0.03294 0.94548 0.49373 -0.09900
C 	C 	0.08844 0.03758 0.49327 0.05900
C 	C 	0.04972 0.08255 0.49044 -0.10000
H 	H 	0.82673 0.90521 0.48441 0.07100
H 	H 	0.06309 0.91100 0.49647 0.06900
H 	H 	0.09276 0.15417 0.49068 0.06900
Cu	Cu	0.74579 0.32956 0.96240 0.93700
Cu	Cu	0.71590 0.25886 0.04722 0.89100
Cu	Cu	0.59260 0.28524 0.00533 0.90400
Cu	Cu	0.58016 0.32220 0.92436 0.90300
C 	C 	0.69825 0.30438 0.87796 0.29800
O 	O 	0.79818 0.45983 0.96020 -0.31100
C 	C 	0.62797 0.31263 0.09224 0.30800
O 	O 	0.60335 0.25512 0.95267 -0.64000
O 	O 	0.72553 0.34445 0.01674 -0.63900
O 	O 	0.80541 0.27097 0.97201 -0.33400
O 	O 	0.69693 0.17343 0.00516 -0.41300
O 	O 	0.65971 0.34381 0.88456 -0.34600
O 	O 	0.46239 0.21856 0.99284 -0.35500
C 	C 	0.41648 0.22515 0.96359 0.30200
C 	C 	0.75488 0.49242 0.97043 0.28200
O 	O 	0.66801 0.43713 0.97202 -0.38900
O 	O 	0.45266 0.26214 0.93310 -0.37500
O 	O 	0.74161 0.29580 0.90755 -0.31000
C 	C 	0.76140 0.19456 0.98495 0.29300
O 	O 	0.58644 0.31659 0.06008 -0.34900
O 	O 	0.69984 0.31404 0.09176 -0.36900
H 	H 	0.56486 0.18991 0.94173 0.18200
H 	H 	0.76254 0.40680 0.03183 0.18400
Cu	Cu	0.63286 0.20951 0.50571 0.93700
Cu	Cu	0.70000 0.23667 0.42023 0.89400
Cu	Cu	0.64701 0.34350 0.45891 0.90400
Cu	Cu	0.64547 0.37654 0.54555 0.90900
C 	C 	0.67245 0.26535 0.59017 0.30000
O 	O 	0.50397 0.16244 0.51192 -0.32100
C 	C 	0.63342 0.31084 0.37321 0.29900
O 	O 	0.70190 0.34835 0.51115 -0.63400
O 	O 	0.60895 0.21906 0.45026 -0.63800
O 	O 	0.68604 0.14549 0.49521 -0.32500
O 	O 	0.78488 0.25034 0.46145 -0.40700
O 	O 	0.62691 0.29766 0.58425 -0.34700
O 	O 	0.67371 0.46121 0.46884 -0.36600
C 	C 	0.72574 0.52286 0.50107 0.29800
C 	C 	0.46885 0.20330 0.50136 0.27800
O 	O 	0.52246 0.28995 0.50108 -0.38900
O 	O 	0.71740 0.50120 0.53651 -0.37100
O 	O 	0.67894 0.22178 0.56024 -0.29600
C 	C 	0.76028 0.18369 0.47996 0.29400
O 	O 	0.61043 0.33834 0.40297 -0.35700
O 	O 	0.64032 0.24533 0.37444 -0.35400
H 	H 	0.76941 0.38869 0.51670 0.17700
H 	H 	0.54525 0.17367 0.43602 0.18000
C 	C 	0.79323 0.30347 0.78496 0.02900
C 	C 	0.71546 0.26473 0.75575 0.09100
C 	C 	0.62997 0.22753 0.76709 -0.11200
C 	C 	0.62563 0.23326 0.80767 0.07300
C 	C 	0.70538 0.28345 0.83675 -0.00900
C 	C 	0.79102 0.32119 0.82527 -0.06200
C 	C 	0.72557 0.27081 0.71372 0.09100
C 	C 	0.54327 0.18061 0.73612 0.78800
H 	H 	0.56037 0.20211 0.81681 0.06700
C 	C 	0.87991 0.38225 0.85530 0.77900
H 	H 	0.85687 0.32562 0.77597 0.11200
C 	C 	0.75709 0.35107 0.69959 -0.11000
C 	C 	0.75104 0.34961 0.65853 0.07500
C 	C 	0.70591 0.26850 0.63149 -0.00400
C 	C 	0.68043 0.18957 0.64572 -0.06000
C 	C 	0.69578 0.19360 0.68698 0.03000
C 	C 	0.79717 0.43813 0.72810 0.78700
H 	H 	0.77579 0.41061 0.64727 0.06800
C 	C 	0.63670 0.10143 0.61738 0.77900
H 	H 	0.67879 0.13485 0.69846 0.11100
F 	F 	0.95451 0.42623 0.83676 -0.41100
F 	F 	0.88912 0.33194 0.87904 -0.44500
F 	F 	0.88154 0.44720 0.87875 -0.42500
F 	F 	0.52240 0.10185 0.71580 -0.42700
F 	F 	0.55446 0.23550 0.70952 -0.41800
F 	F 	0.46980 0.15923 0.75328 -0.43300
F 	F 	0.69749 0.11061 0.59410 -0.44400
F 	F 	0.55838 0.07703 0.59338 -0.42300
F 	F 	0.61251 0.03221 0.63748 -0.42100
F 	F 	0.81455 0.50568 0.70814 -0.43100
F 	F 	0.87848 0.46695 0.75091 -0.42200
F 	F 	0.73725 0.42533 0.75272 -0.41700
C 	C 	0.69298 0.37898 0.27485 0.03300
C 	C 	0.61021 0.35611 0.25521 0.09300
C 	C 	0.53944 0.33175 0.27662 -0.11300
C 	C 	0.54955 0.32055 0.31608 0.07700
C 	C 	0.63067 0.33864 0.33491 -0.00900
C 	C 	0.70554 0.37476 0.31513 -0.07600
C 	C 	0.59443 0.34582 0.21137 0.09800
C 	C 	0.44999 0.30952 0.25669 0.78900
H 	H 	0.49283 0.29387 0.33158 0.07800
C 	C 	0.79683 0.40228 0.33582 0.77600
H 	H 	0.74642 0.39664 0.25821 0.11300
C 	C 	0.64176 0.42171 0.19283 -0.11700
C 	C 	0.64864 0.40942 0.15283 0.07800
C 	C 	0.60399 0.32297 0.13070 -0.01200
C 	C 	0.54557 0.24711 0.14761 -0.07300
C 	C 	0.54424 0.25926 0.18833 0.02800
C 	C 	0.69249 0.51626 0.21632 0.79000
H 	H 	0.69207 0.46725 0.13937 0.07100
C 	C 	0.49029 0.15300 0.12307 0.77400
H 	H 	0.50841 0.20156 0.20267 0.11600
F 	F 	0.86624 0.46143 0.31692 -0.41800
F 	F 	0.79360 0.32696 0.33535 -0.45800
F 	F 	0.81796 0.44468 0.37471 -0.48100
F 	F 	0.39416 0.22188 0.23609 -0.42900
F 	F 	0.46428 0.36640 0.23066 -0.40100
F 	F 	0.40552 0.31851 0.28455 -0.42400
F 	F 	0.54753 0.13078 0.11642 -0.45600
F 	F 	0.44682 0.14861 0.08698 -0.45300
F 	F 	0.42413 0.09021 0.14218 -0.41900
F 	F 	0.70344 0.57437 0.19150 -0.42500
F 	F 	0.77769 0.54632 0.23503 -0.42700
F 	F 	0.64541 0.51887 0.24452 -0.40100
C 	C 	0.87350 0.74092 0.46326 -0.07600
C 	C 	0.88156 0.80187 0.49345 -0.01000
C 	C 	0.84008 0.77153 0.52666 0.05100
C 	C 	0.78636 0.67965 0.52780 -0.01200
C 	C 	0.77987 0.61871 0.49804 -0.09500
C 	C 	0.82683 0.65041 0.46618 0.11600
C 	C 	0.82851 0.58886 0.43550 -0.22000
H 	H 	0.90623 0.76471 0.43803 0.07600
H 	H 	0.75034 0.65565 0.55216 0.06100
C 	C 	0.85181 0.83642 0.56069 -0.18900
H 	H 	0.88406 0.62759 0.41863 0.12800
H 	H 	0.76279 0.54623 0.41404 0.13100
H 	H 	0.84089 0.54574 0.44987 0.10200
H 	H 	0.80862 0.85708 0.55193 0.08500
H 	H 	0.92423 0.89678 0.56936 0.08200
H 	H 	0.83152 0.80541 0.58737 0.09200
C 	C 	0.84808 0.14521 0.51887 -0.01200
C 	C 	0.81329 0.14882 0.48180 -0.08600
C 	C 	0.82934 0.11896 0.44673 0.10600
C 	C 	0.88148 0.08757 0.44950 -0.07100
C 	C 	0.91440 0.08204 0.48648 -0.01400
C 	C 	0.89908 0.11248 0.52153 0.05700
C 	C 	0.93451 0.10754 0.56164 -0.17800
H 	H 	0.83559 0.16808 0.54568 0.08900
H 	H 	0.89387 0.06447 0.42272 0.07100
C 	C 	0.79049 0.11960 0.40635 -0.21200
H 	H 	0.92516 0.14238 0.58620 0.10100
H 	H 	0.00853 0.14004 0.56501 0.07300
H 	H 	0.89751 0.03623 0.56468 0.08400
H 	H 	0.82856 0.18965 0.40125 0.09500
H 	H 	0.71717 0.08934 0.40412 0.07000
H 	H 	0.79561 0.08005 0.38226 0.10200
C 	C 	0.22416 0.10490 0.46143 -0.07200
C 	C 	0.18744 0.08679 0.49612 -0.01600
C 	C 	0.24344 0.10662 0.53252 0.05700
C 	C 	0.33407 0.13949 0.53319 -0.01900
C 	C 	0.37071 0.15721 0.49849 -0.08500
C 	C 	0.31559 0.14009 0.46231 0.10400
C 	C 	0.35361 0.15804 0.42458 -0.21300
H 	H 	0.18089 0.08967 0.43358 0.06800
H 	H 	0.37697 0.15366 0.56098 0.07600
C 	C 	0.20623 0.09072 0.57047 -0.19300
H 	H 	0.30033 0.13590 0.39842 0.10300
H 	H 	0.38208 0.12105 0.41902 0.08500
H 	H 	0.40823 0.23109 0.42716 0.09500
H 	H 	0.16155 0.01767 0.57085 0.08900
H 	H 	0.16639 0.11690 0.57298 0.08200
H 	H 	0.26188 0.12541 0.59698 0.10300
C 	C 	0.83937 0.73186 0.00292 -0.07900
C 	C 	0.85367 0.76270 0.96686 -0.00300
C 	C 	0.83666 0.70469 0.93208 0.05600
C 	C 	0.81077 0.61863 0.93443 -0.01900
C 	C 	0.79661 0.58778 0.97046 -0.08100
C 	C 	0.81118 0.64480 0.00505 0.10400
C 	C 	0.79646 0.61307 0.04415 -0.21300
H 	H 	0.85222 0.77638 0.02954 0.06800
H 	H 	0.79884 0.57448 0.90787 0.08200
C 	C 	0.84864 0.73508 0.89267 -0.19300
H 	H 	0.82201 0.66892 0.06919 0.10500
H 	H 	0.83340 0.58460 0.05037 0.09100
H 	H 	0.72256 0.56075 0.04308 0.09400
H 	H 	0.92222 0.77960 0.89128 0.09200
H 	H 	0.81977 0.77191 0.88859 0.08700
H 	H 	0.81301 0.67704 0.86757 0.10700
C 	C 	0.80450 0.03530 0.93806 -0.08500
C 	C 	0.84058 0.02206 0.97183 0.00500
C 	C 	0.84537 0.06131 0.00996 0.04300
C 	C 	0.82070 0.11879 0.01362 -0.01200
C 	C 	0.78903 0.13571 0.97982 -0.09600
C 	C 	0.77745 0.09095 0.94176 0.12600
C 	C 	0.73842 0.10379 0.90505 -0.23300
H 	H 	0.80057 0.00485 0.90882 0.06900
H 	H 	0.82695 0.15112 0.04285 0.04200
C 	C 	0.88135 0.04589 0.04674 -0.18600
H 	H 	0.72208 0.05499 0.87843 0.10400
H 	H 	0.78859 0.17255 0.89953 0.14500
H 	H 	0.67437 0.09384 0.90877 0.09900
H 	H 	0.95573 0.08104 0.04925 0.08900
H 	H 	0.84614 0.97294 0.04531 0.08600
H 	H 	0.86988 0.07139 0.07404 0.09200
C 	C 	0.19152 0.13171 0.99569 -0.08200
C 	C 	0.13012 0.06825 0.96170 0.00600
C 	C 	0.16242 0.06386 0.92672 0.04400
C 	C 	0.25657 0.11783 0.92742 -0.00800
C 	C 	0.31834 0.17851 0.96201 -0.09800
C 	C 	0.28534 0.18890 0.99577 0.13100
C 	C 	0.34965 0.25920 0.03220 -0.23400
H 	H 	0.16616 0.13635 0.02217 0.07000
H 	H 	0.28190 0.11086 0.90135 0.05700
C 	C 	0.09726 0.99894 0.88922 -0.18600
H 	H 	0.31341 0.27506 0.05077 0.10900
H 	H 	0.40484 0.32278 0.02378 0.10100
H 	H 	0.38000 0.23431 0.05038 0.14600
H 	H 	0.03816 0.00023 0.88360 0.08200
H 	H 	0.07261 0.93001 0.89199 0.08300
H 	H 	0.13076 0.01643 0.86295 0.09100
