data_crystal

_cell_length_a 18.53552
_cell_length_b 18.82300
_cell_length_c 43.49674
_cell_angle_alpha 95.44269
_cell_angle_beta  95.44199
_cell_angle_gamma 126.37119

_symmetry_space_group_name_	'P 1'
_symmetry_space_group_name_H-M	'P 1'

loop_
_symmetry_equiv_pos_as_xyz
  x,y,z

loop_
_atom_site_label
_atom_site_type_symbol
_atom_site_fract_x
_atom_site_fract_y
_atom_site_fract_z
_atom_site_charge
C 	C 	0.90968 0.00320 0.96905 0.08900
N 	N 	0.00185 0.05756 0.97200 -0.12900
C 	C 	0.04845 0.02304 0.97389 0.10700
N 	N 	0.00278 0.93366 0.97256 -0.12400
C 	C 	0.91081 0.87845 0.96974 0.10100
N 	N 	0.86373 0.91318 0.96822 -0.13000
C 	C 	0.94726 0.03095 0.50085 0.09000
N 	N 	0.03842 0.07556 0.50202 -0.12800
C 	C 	0.07229 0.02856 0.49841 0.10400
N 	N 	0.01512 0.93759 0.49340 -0.12500
C 	C 	0.92432 0.89304 0.49190 0.10200
N 	N 	0.89052 0.93977 0.49563 -0.13200
Cu	Cu	0.75977 0.34940 0.96692 0.92500
Cu	Cu	0.75390 0.28744 0.03512 0.86600
Cu	Cu	0.62011 0.31111 0.00796 0.89600
Cu	Cu	0.58760 0.33914 0.94327 0.89500
C 	C 	0.68962 0.31200 0.90068 0.28900
O 	O 	0.81009 0.47964 0.96451 -0.35900
C 	C 	0.68117 0.34495 0.07709 0.28400
O 	O 	0.61797 0.27551 0.96474 -0.63900
O 	O 	0.75282 0.36919 0.01162 -0.64200
O 	O 	0.81986 0.28913 0.97100 -0.37200
O 	O 	0.72238 0.19707 0.00119 -0.44200
O 	O 	0.65242 0.35202 0.90756 -0.38600
O 	O 	0.48943 0.24556 0.00265 -0.38700
C 	C 	0.43550 0.23980 0.97870 0.29300
C 	C 	0.76787 0.51263 0.97386 0.27800
O 	O 	0.68424 0.45783 0.97862 -0.39700
O 	O 	0.46796 0.28650 0.95609 -0.39600
O 	O 	0.74373 0.31153 0.92262 -0.36600
C 	C 	0.77979 0.21418 0.98231 0.28300
O 	O 	0.62311 0.33495 0.05349 -0.38100
O 	O 	0.75274 0.34926 0.07221 -0.42300
H 	H 	0.57841 0.20977 0.95697 0.16400
H 	H 	0.79264 0.43261 0.02270 0.17400
Cu	Cu	0.61825 0.20338 0.50770 0.92700
Cu	Cu	0.68203 0.20251 0.44016 0.86700
Cu	Cu	0.65287 0.33372 0.46405 0.89600
Cu	Cu	0.62249 0.36990 0.52777 0.89500
C 	C 	0.64663 0.27187 0.57333 0.29100
O 	O 	0.48625 0.15115 0.50952 -0.36400
C 	C 	0.62513 0.26986 0.39575 0.28300
O 	O 	0.69021 0.34144 0.50781 -0.64000
O 	O 	0.59734 0.20431 0.46239 -0.64200
O 	O 	0.67786 0.14338 0.50564 -0.37400
O 	O 	0.77239 0.23574 0.47497 -0.44400
O 	O 	0.60896 0.31036 0.56488 -0.38700
O 	O 	0.71586 0.46136 0.46758 -0.38800
C 	C 	0.71519 0.51460 0.48950 0.29400
C 	C 	0.44972 0.18819 0.49837 0.28100
O 	O 	0.50289 0.26993 0.49273 -0.39900
O 	O 	0.67311 0.48551 0.51349 -0.39700
O 	O 	0.65746 0.22519 0.55224 -0.36600
C 	C 	0.75373 0.18046 0.49448 0.28700
O 	O 	0.62891 0.32569 0.41809 -0.38000
O 	O 	0.62009 0.20004 0.40203 -0.42100
H 	H 	0.75695 0.38237 0.51567 0.16500
H 	H 	0.53303 0.16290 0.45124 0.17500
C 	C 	0.68868 0.28764 0.86726 -0.08600
C 	C 	0.76630 0.30222 0.85784 0.01500
C 	C 	0.76878 0.28911 0.82584 -0.06600
C 	C 	0.69369 0.26112 0.80299 0.02600
C 	C 	0.61493 0.24325 0.81241 -0.06600
C 	C 	0.61235 0.25622 0.84435 0.01300
C 	C 	0.69933 0.25584 0.76926 -0.00000
C 	C 	0.76347 0.33360 0.75809 -0.03800
C 	C 	0.76043 0.33165 0.72574 -0.03900
C 	C 	0.69312 0.25204 0.70429 -0.00100
C 	C 	0.63194 0.17323 0.71548 -0.03900
C 	C 	0.63514 0.17506 0.74783 -0.03900
C 	C 	0.67988 0.25374 0.67045 0.02600
C 	C 	0.74370 0.26450 0.65250 -0.06600
C 	C 	0.73234 0.26921 0.62063 0.01200
C 	C 	0.65753 0.26407 0.60661 -0.08500
C 	C 	0.59335 0.25241 0.62459 0.01400
C 	C 	0.60448 0.24721 0.65631 -0.06600
H 	H 	0.82567 0.32629 0.87522 0.03700
H 	H 	0.82962 0.30235 0.81882 0.04500
H 	H 	0.55653 0.22144 0.79497 0.04600
H 	H 	0.55162 0.24351 0.85128 0.02400
H 	H 	0.81344 0.39626 0.77441 0.03800
H 	H 	0.80808 0.39278 0.71732 0.03800
H 	H 	0.58013 0.11129 0.69910 0.03900
H 	H 	0.58603 0.11441 0.75620 0.03800
H 	H 	0.80215 0.26958 0.66324 0.04500
H 	H 	0.78226 0.27813 0.60702 0.03200
H 	H 	0.53465 0.24706 0.61395 0.03500
H 	H 	0.55491 0.23894 0.66999 0.04700
C 	C 	0.66809 0.35606 0.10977 -0.08800
C 	C 	0.74189 0.39675 0.13503 0.01100
C 	C 	0.72732 0.39570 0.16599 -0.06700
C 	C 	0.63900 0.35476 0.17212 0.02500
C 	C 	0.56599 0.31850 0.14702 -0.06600
C 	C 	0.58038 0.31900 0.11600 0.01000
C 	C 	0.62201 0.34313 0.20449 -0.00100
C 	C 	0.56355 0.25648 0.21116 -0.03900
C 	C 	0.55615 0.24460 0.24226 -0.03900
C 	C 	0.60765 0.31916 0.26703 -0.00100
C 	C 	0.66293 0.40606 0.26029 -0.03900
C 	C 	0.66990 0.41801 0.22914 -0.03900
C 	C 	0.61059 0.30573 0.29993 0.02600
C 	C 	0.64305 0.25905 0.30979 -0.06800
C 	C 	0.64695 0.24684 0.34091 0.01100
C 	C 	0.61857 0.28133 0.36265 -0.08900
C 	C 	0.58602 0.32816 0.35278 0.01400
C 	C 	0.58204 0.34024 0.32154 -0.06700
H 	H 	0.81024 0.42737 0.13068 0.03000
H 	H 	0.78426 0.42428 0.18517 0.04300
H 	H 	0.49773 0.28777 0.15151 0.04500
H 	H 	0.52282 0.28783 0.09684 0.03700
H 	H 	0.52614 0.19821 0.19234 0.03600
H 	H 	0.51258 0.17730 0.24719 0.03700
H 	H 	0.70271 0.46409 0.27922 0.03700
H 	H 	0.71437 0.48525 0.22424 0.03700
H 	H 	0.66601 0.23287 0.29336 0.04200
H 	H 	0.67327 0.21160 0.34822 0.02100
H 	H 	0.56341 0.35476 0.36918 0.03700
H 	H 	0.55664 0.37620 0.31413 0.04600
C 	C 	0.78840 0.75130 0.50306 -0.04800
C 	C 	0.86352 0.79451 0.48787 0.00000
C 	C 	0.88436 0.74378 0.47077 -0.04900
C 	C 	0.83405 0.65178 0.47042 0.00700
C 	C 	0.76186 0.60936 0.48698 -0.08400
C 	C 	0.73764 0.65916 0.50252 0.00700
H 	H 	0.77109 0.78951 0.51612 0.04700
H 	H 	0.94080 0.77600 0.45830 0.04500
H 	H 	0.85289 0.61407 0.45803 0.03400
H 	H 	0.68054 0.62685 0.51468 0.03500
C 	C 	0.93984 0.15430 0.48966 -0.05400
C 	C 	0.90920 0.08069 0.50453 0.00500
C 	C 	0.83434 0.04777 0.51969 -0.06200
C 	C 	0.78621 0.08332 0.51784 0.01000
C 	C 	0.81257 0.15244 0.50086 -0.09300
C 	C 	0.89205 0.19025 0.48793 0.00300
H 	H 	0.99820 0.18114 0.47823 0.04200
H 	H 	0.81157 0.99258 0.53202 0.05500
H 	H 	0.72688 0.05517 0.52879 0.03800
H 	H 	0.91516 0.24551 0.47561 0.02600
C 	C 	0.21440 0.04857 0.51858 -0.05800
C 	C 	0.17074 0.07547 0.50048 0.00400
C 	C 	0.21843 0.13831 0.48129 -0.04900
C 	C 	0.30851 0.17279 0.47977 0.00500
C 	C 	0.35211 0.14540 0.49773 -0.08500
C 	C 	0.30445 0.08317 0.51719 0.01000
H 	H 	0.17810 0.99998 0.53347 0.05800
H 	H 	0.18499 0.15857 0.46689 0.04600
H 	H 	0.34431 0.22065 0.46461 0.03400
H 	H 	0.33744 0.06247 0.53157 0.03800
C 	C 	0.81126 0.73752 0.99056 -0.04600
C 	C 	0.86310 0.78109 0.96789 0.00000
C 	C 	0.88482 0.73653 0.94749 -0.04700
C 	C 	0.85739 0.65064 0.95033 0.00300
C 	C 	0.80698 0.60764 0.97339 -0.08100
C 	C 	0.78348 0.65139 0.99335 0.00300
H 	H 	0.79521 0.77149 0.00676 0.04400
H 	H 	0.92512 0.76953 0.92994 0.04500
H 	H 	0.87413 0.61710 0.93425 0.03900
H 	H 	0.74383 0.61873 0.01108 0.03300
C 	C 	0.80019 0.02610 0.98773 -0.06300
C 	C 	0.86070 0.04298 0.96732 0.00600
C 	C 	0.88725 0.11049 0.94942 -0.05200
C 	C 	0.85885 0.16461 0.95352 0.00700
C 	C 	0.80302 0.15158 0.97547 -0.08900
C 	C 	0.77145 0.07994 0.99180 0.00700
H 	H 	0.77894 0.97426 0.00162 0.05200
H 	H 	0.93287 0.12336 0.93319 0.04400
H 	H 	0.88185 0.21765 0.94008 0.03900
H 	H 	0.72690 0.06756 0.00837 0.02300
C 	C 	0.19108 0.15651 0.96187 -0.04700
C 	C 	0.14824 0.08211 0.97685 0.00100
C 	C 	0.20075 0.06214 0.99363 -0.04700
C 	C 	0.29466 0.11436 0.99460 0.00800
C 	C 	0.33722 0.18749 0.97898 -0.08300
C 	C 	0.28508 0.20905 0.96298 0.00800
H 	H 	0.15135 0.17262 0.94883 0.04900
H 	H 	0.16869 0.00574 0.00572 0.04700
H 	H 	0.33403 0.09703 0.00706 0.03200
H 	H 	0.31723 0.26621 0.95127 0.03600
