data_crystal

_cell_length_a 18.50763
_cell_length_b 18.78954
_cell_length_c 34.93979
_cell_angle_alpha 95.41136
_cell_angle_beta  95.41134
_cell_angle_gamma 126.38163

_symmetry_space_group_name_	'P 1'
_symmetry_space_group_name_H-M	'P 1'

loop_
_symmetry_equiv_pos_as_xyz
  x,y,z

loop_
_atom_site_label
_atom_site_type_symbol
_atom_site_fract_x
_atom_site_fract_y
_atom_site_fract_z
_atom_site_charge
C 	C 	0.91738 0.02011 0.95997 0.10500
N 	N 	0.86997 0.93087 0.96113 -0.13200
C 	C 	0.91340 0.89247 0.96045 0.11700
N 	N 	0.00406 0.94369 0.95990 -0.12700
C 	C 	0.05146 0.03270 0.95956 0.11500
N 	N 	0.00793 0.07060 0.95901 -0.13300
C 	C 	0.93926 0.01618 0.50032 0.10000
N 	N 	0.88092 0.92476 0.49185 -0.13300
C 	C 	0.91333 0.87710 0.48531 0.11700
N 	N 	0.00326 0.92074 0.48467 -0.12600
C 	C 	0.06140 0.01188 0.49172 0.11400
N 	N 	0.02974 0.05980 0.50004 -0.13500
Cu	Cu	0.76885 0.36881 0.96085 0.92700
Cu	Cu	0.75726 0.30005 0.04457 0.87000
Cu	Cu	0.62297 0.32240 0.00967 0.89700
Cu	Cu	0.59704 0.35847 0.93014 0.89600
C 	C 	0.70610 0.33926 0.87818 0.29100
O 	O 	0.81897 0.49882 0.95926 -0.35900
C 	C 	0.67209 0.34465 0.09509 0.28500
O 	O 	0.62627 0.29269 0.95600 -0.63900
O 	O 	0.75693 0.38370 0.01620 -0.64000
O 	O 	0.83379 0.31373 0.96605 -0.36700
O 	O 	0.73432 0.21572 0.00154 -0.43600
O 	O 	0.66638 0.37680 0.88685 -0.38400
O 	O 	0.49174 0.25390 0.00118 -0.38000
C 	C 	0.44023 0.24667 0.96988 0.30100
C 	C 	0.77618 0.53096 0.97098 0.28900
O 	O 	0.69135 0.47523 0.97559 -0.39400
O 	O 	0.47555 0.30271 0.94514 -0.39000
O 	O 	0.75708 0.33530 0.90571 -0.35700
C 	C 	0.79668 0.23898 0.98002 0.30000
O 	O 	0.62215 0.34566 0.06572 -0.37300
O 	O 	0.74715 0.35407 0.09077 -0.41500
H 	H 	0.58781 0.22741 0.94514 0.16700
H 	H 	0.79493 0.44639 0.03088 0.17400
Cu	Cu	0.60902 0.18662 0.50753 0.92800
Cu	Cu	0.67425 0.18060 0.42373 0.87200
Cu	Cu	0.65681 0.32313 0.45440 0.89900
Cu	Cu	0.60420 0.34887 0.53034 0.89600
C 	C 	0.63276 0.25636 0.58852 0.28900
O 	O 	0.47487 0.12893 0.50684 -0.36400
C 	C 	0.62471 0.25491 0.36947 0.28900
O 	O 	0.67911 0.32515 0.50924 -0.64100
O 	O 	0.59486 0.19157 0.45130 -0.64100
O 	O 	0.67074 0.12859 0.50681 -0.37600
O 	O 	0.76585 0.21489 0.46693 -0.43900
O 	O 	0.59087 0.29041 0.57693 -0.38300
O 	O 	0.72249 0.45187 0.46166 -0.38200
C 	C 	0.70868 0.49905 0.48611 0.30100
C 	C 	0.43699 0.16359 0.49172 0.29100
O 	O 	0.48900 0.24607 0.48529 -0.39200
O 	O 	0.65032 0.46202 0.51022 -0.39300
O 	O 	0.64072 0.20534 0.56329 -0.35700
C 	C 	0.74803 0.16543 0.49397 0.29800
O 	O 	0.65782 0.32442 0.39787 -0.38200
O 	O 	0.61337 0.18168 0.37685 -0.41700
H 	H 	0.74437 0.36618 0.52198 0.16700
H 	H 	0.53087 0.15334 0.43699 0.17100
C 	C 	0.59467 0.23843 0.69248 -0.04200
C 	C 	0.68141 0.27036 0.71237 0.02000
C 	C 	0.74972 0.28995 0.69099 -0.05800
C 	C 	0.73375 0.28268 0.65024 0.02200
C 	C 	0.64840 0.25528 0.63062 -0.07900
C 	C 	0.57863 0.23097 0.65183 0.01100
C 	C 	0.70387 0.29239 0.75573 0.02000
C 	C 	0.67831 0.22370 0.77708 -0.05900
C 	C 	0.68316 0.23939 0.81765 0.02200
C 	C 	0.71410 0.32474 0.83706 -0.07900
C 	C 	0.74574 0.39497 0.81607 0.01200
C 	C 	0.74074 0.37927 0.77561 -0.04200
C 	C 	0.65325 0.16679 0.83883 0.06600
C 	C 	0.77089 0.45194 0.75445 0.08700
C 	C 	0.52246 0.21533 0.71375 0.08700
C 	C 	0.80609 0.30601 0.62900 0.07000
N 	N 	0.62930 0.10864 0.85581 -0.11900
N 	N 	0.79500 0.51009 0.73746 -0.12000
N 	N 	0.86396 0.32462 0.61195 -0.11600
N 	N 	0.46469 0.19687 0.73084 -0.12000
H 	H 	0.51217 0.20759 0.63670 0.04000
H 	H 	0.81618 0.31366 0.70624 0.05200
H 	H 	0.65126 0.15718 0.76189 0.05100
H 	H 	0.77192 0.46134 0.83113 0.04000
C 	C 	0.65616 0.25786 0.26426 -0.04300
C 	C 	0.61970 0.30148 0.25168 0.02100
C 	C 	0.57892 0.32410 0.27698 -0.06100
C 	C 	0.57668 0.30596 0.31510 0.02600
C 	C 	0.61721 0.26620 0.32830 -0.08500
C 	C 	0.65512 0.24088 0.30242 0.01000
C 	C 	0.62571 0.32508 0.21219 0.01900
C 	C 	0.55305 0.26491 0.18093 -0.06000
C 	C 	0.56491 0.27486 0.14223 0.02100
C 	C 	0.65067 0.34555 0.13470 -0.08200
C 	C 	0.72037 0.41045 0.16612 0.01100
C 	C 	0.70812 0.40083 0.20477 -0.04100
C 	C 	0.48999 0.21019 0.11047 0.06500
C 	C 	0.78150 0.46728 0.23666 0.08700
C 	C 	0.69556 0.23105 0.23822 0.08500
C 	C 	0.52963 0.32503 0.33983 0.06700
N 	N 	0.42994 0.15844 0.08502 -0.11300
N 	N 	0.84026 0.52047 0.26225 -0.11900
N 	N 	0.49181 0.34017 0.35962 -0.12000
N 	N 	0.72711 0.20965 0.21733 -0.12400
H 	H 	0.68564 0.20965 0.31229 0.02700
H 	H 	0.54916 0.35596 0.26704 0.05200
H 	H 	0.48872 0.20795 0.18667 0.05000
H 	H 	0.78531 0.46663 0.16045 0.03800
C 	C 	0.79953 0.71869 0.45173 -0.07600
C 	C 	0.85547 0.78073 0.48637 -0.02900
C 	C 	0.85989 0.74994 0.52132 0.07900
C 	C 	0.81156 0.65743 0.52043 -0.02900
C 	C 	0.75702 0.59527 0.48564 -0.10500
C 	C 	0.74833 0.62583 0.45117 0.12600
N 	N 	0.68934 0.56675 0.41794 -0.20200
H 	H 	0.79540 0.74267 0.42517 0.05700
H 	H 	0.81646 0.63366 0.54695 0.03900
N 	N 	0.90997 0.80873 0.55579 -0.19400
H 	H 	0.68626 0.58999 0.39227 0.09300
H 	H 	0.64318 0.49790 0.41765 0.10500
H 	H 	0.94286 0.87761 0.55798 0.09000
H 	H 	0.91459 0.78540 0.58122 0.08500
C 	C 	0.94223 0.14982 0.49634 -0.09400
C 	C 	0.90400 0.06792 0.50925 -0.02300
C 	C 	0.82631 0.03189 0.52710 0.06700
C 	C 	0.77668 0.06621 0.52339 -0.02700
C 	C 	0.81026 0.14315 0.50678 -0.11100
C 	C 	0.89935 0.19125 0.49800 0.12400
N 	N 	0.94613 0.27867 0.49400 -0.20700
H 	H 	0.00566 0.18185 0.48542 0.06600
H 	H 	0.71230 0.03315 0.53355 0.05100
N 	N 	0.80229 0.96830 0.54948 -0.18700
H 	H 	0.00904 0.31174 0.48487 0.09100
H 	H 	0.92486 0.31674 0.50350 0.09600
H 	H 	0.84697 0.95402 0.55881 0.09400
H 	H 	0.74175 0.93793 0.56047 0.09100
C 	C 	0.30248 0.09116 0.52403 -0.03200
C 	C 	0.33879 0.11836 0.49019 -0.10600
C 	C 	0.28411 0.11332 0.45721 0.11900
C 	C 	0.19572 0.08538 0.45951 -0.07500
C 	C 	0.15951 0.05809 0.49332 -0.03000
C 	C 	0.21369 0.06205 0.52611 0.08000
N 	N 	0.18139 0.03929 0.55983 -0.19500
H 	H 	0.34474 0.09596 0.54941 0.05000
H 	H 	0.15343 0.08083 0.43423 0.05500
N 	N 	0.31471 0.13191 0.42290 -0.20100
H 	H 	0.22091 0.04007 0.58354 0.08700
H 	H 	0.11806 0.02305 0.56325 0.09000
H 	H 	0.37544 0.14274 0.41880 0.08700
H 	H 	0.27546 0.13154 0.39920 0.08800
C 	C 	0.84172 0.76551 0.99617 -0.07100
C 	C 	0.86320 0.79571 0.96078 -0.03100
C 	C 	0.85523 0.73812 0.92867 0.08200
C 	C 	0.83287 0.65425 0.93347 -0.03300
C 	C 	0.81414 0.62505 0.96922 -0.10100
C 	C 	0.81887 0.68132 0.00100 0.11600
N 	N 	0.80487 0.65649 0.03652 -0.20100
H 	H 	0.84812 0.80983 0.02080 0.05500
H 	H 	0.82664 0.61010 0.90881 0.05000
N 	N 	0.86774 0.76252 0.89303 -0.19500
H 	H 	0.80589 0.69716 0.05948 0.08800
H 	H 	0.79614 0.59847 0.04213 0.08700
H 	H 	0.87705 0.82098 0.88772 0.09300
H 	H 	0.86486 0.72114 0.86974 0.08800
C 	C 	0.81988 0.14349 0.93716 -0.02900
C 	C 	0.83103 0.18568 0.97489 -0.10300
C 	C 	0.86520 0.16819 0.00778 0.11100
C 	C 	0.88299 0.10530 0.00231 -0.07400
C 	C 	0.87403 0.06477 0.96461 -0.03000
C 	C 	0.84064 0.08271 0.93166 0.08100
N 	N 	0.82749 0.04125 0.89482 -0.20100
H 	H 	0.79313 0.15640 0.91202 0.05400
H 	H 	0.90973 0.09237 0.02746 0.05000
N 	N 	0.88477 0.21428 0.04442 -0.19800
H 	H 	0.80478 0.05629 0.87058 0.08900
H 	H 	0.83737 0.99214 0.88992 0.10100
H 	H 	0.88403 0.26953 0.04899 0.04600
H 	H 	0.90597 0.19813 0.06870 0.07800
C 	C 	0.18616 0.07965 0.93020 -0.07300
C 	C 	0.15079 0.08887 0.96241 -0.02900
C 	C 	0.21073 0.14747 0.99778 0.08300
C 	C 	0.30530 0.19798 0.99968 -0.02600
C 	C 	0.34074 0.18896 0.96742 -0.10000
C 	C 	0.28063 0.12743 0.93264 0.11800
N 	N 	0.31288 0.11177 0.90207 -0.20100
H 	H 	0.13982 0.03330 0.90345 0.05400
H 	H 	0.35153 0.24467 0.02639 0.05500
N 	N 	0.17806 0.15454 0.03010 -0.19500
H 	H 	0.26818 0.06870 0.87602 0.08600
H 	H 	0.38162 0.13880 0.90437 0.07900
H 	H 	0.10818 0.11489 0.03040 0.09500
H 	H 	0.22307 0.19910 0.05583 0.08900
