data_crystal

_cell_length_a 30.61012
_cell_length_b 31.10994
_cell_length_c 26.50056
_cell_angle_alpha 95.53891
_cell_angle_beta  95.53297
_cell_angle_gamma 125.53693

_symmetry_space_group_name_	'P 1'
_symmetry_space_group_name_H-M	'P 1'

loop_
_symmetry_equiv_pos_as_xyz
  x,y,z

loop_
_atom_site_label
_atom_site_type_symbol
_atom_site_fract_x
_atom_site_fract_y
_atom_site_fract_z
_atom_site_charge
C 	C 	0.96849 0.02096 0.97367 0.11500
C 	C 	0.04433 0.02274 0.95973 0.12100
N 	N 	0.02065 0.04829 0.96528 -0.13700
N 	N 	0.00060 0.03017 0.42829 -0.13900
N 	N 	0.53843 0.20715 0.60527 -0.11800
N 	N 	0.55937 0.16406 0.12994 -0.11200
N 	N 	0.58125 0.18253 0.28510 -0.12100
C 	C 	0.83025 0.21213 0.41681 -0.07100
C 	C 	0.80340 0.16236 0.43272 0.04100
C 	C 	0.82687 0.13342 0.43197 -0.02500
C 	C 	0.84634 0.10904 0.43142 -0.01500
C 	C 	0.87061 0.08087 0.43195 0.02500
C 	C 	0.92309 0.10607 0.46072 -0.05200
C 	C 	0.94721 0.07930 0.46087 -0.01700
C 	C 	0.91902 0.02700 0.43209 -0.02100
C 	C 	0.84189 0.02833 0.40390 -0.05000
H 	H 	0.86705 0.22761 0.40105 0.05100
H 	H 	0.94535 0.14652 0.48281 0.04400
H 	H 	0.98788 0.09929 0.48320 0.03900
H 	H 	0.80116 0.00850 0.38174 0.04500
C 	C 	0.39314 0.16897 0.46532 -0.06800
C 	C 	0.30605 0.15554 0.43903 -0.02300
C 	C 	0.25729 0.12991 0.43610 -0.01400
C 	C 	0.19906 0.09940 0.43258 0.02700
C 	C 	0.17699 0.12183 0.45855 -0.05200
C 	C 	0.12051 0.09181 0.45606 -0.01600
C 	C 	0.08567 0.03902 0.42751 -0.02200
C 	C 	0.10794 0.01694 0.40098 -0.01800
C 	C 	0.16443 0.04705 0.40357 -0.05100
H 	H 	0.47151 0.18471 0.48570 0.03800
H 	H 	0.37179 0.13220 0.48071 0.05300
H 	H 	0.20358 0.16236 0.48099 0.04600
H 	H 	0.10397 0.10925 0.47701 0.04100
H 	H 	0.18125 0.02958 0.38319 0.04500
C 	C 	0.94228 0.04831 0.97864 -0.01300
C 	C 	0.88597 0.01984 0.96013 -0.02100
C 	C 	0.86098 0.04554 0.96519 -0.05100
C 	C 	0.89197 0.09984 0.98868 0.03200
C 	C 	0.94812 0.12841 0.00725 -0.05700
C 	C 	0.97326 0.10278 0.00228 -0.02700
C 	C 	0.86625 0.12642 0.99264 -0.01400
C 	C 	0.84384 0.14785 0.99553 -0.02400
C 	C 	0.81628 0.17269 0.99776 0.04900
C 	C 	0.73294 0.16473 0.00069 0.01100
C 	C 	0.76178 0.14273 0.00433 -0.07800
H 	H 	0.81757 0.02329 0.95058 0.04500
H 	H 	0.97232 0.17044 0.02545 0.04400
H 	H 	0.01661 0.12511 0.01718 0.04200
H 	H 	0.69036 0.14059 0.00440 0.03700
H 	H 	0.74131 0.10193 0.01097 0.05000
C 	C 	0.10134 0.05251 0.95208 -0.02300
C 	C 	0.14129 0.10467 0.98041 -0.01000
C 	C 	0.19645 0.13005 0.97816 -0.04500
C 	C 	0.21196 0.10356 0.94751 0.02500
C 	C 	0.17199 0.05261 0.91737 -0.05000
C 	C 	0.11687 0.02716 0.91956 -0.01800
C 	C 	0.26890 0.12666 0.95014 -0.01200
C 	C 	0.31652 0.14583 0.95220 -0.02100
H 	H 	0.12987 0.12473 0.00555 0.03300
H 	H 	0.22718 0.16963 0.00135 0.03900
H 	H 	0.18369 0.03212 0.89325 0.04700
H 	H 	0.38836 0.22354 0.90451 0.05200
N 	N 	0.52660 0.19799 0.75460 -0.11700
C 	C 	0.81051 0.24283 0.42253 0.01800
C 	C 	0.44970 0.19886 0.46831 0.01900
C 	C 	0.36428 0.18642 0.44235 0.04200
C 	C 	0.40614 0.20972 0.92941 -0.06800
C 	C 	0.75844 0.21689 0.99021 -0.08800
C 	C 	0.37339 0.16827 0.95576 0.04000
C 	C 	0.75559 0.14243 0.45257 -0.07200
C 	C 	0.46224 0.23422 0.93596 0.01800
C 	C 	0.57382 0.24098 0.63768 0.07700
C 	C 	0.56565 0.23417 0.74388 0.08400
C 	C 	0.61147 0.21757 0.26561 0.07300
C 	C 	0.59615 0.20432 0.15527 0.09000
H 	H 	0.73442 0.10380 0.46461 0.04800
C 	C 	0.39655 0.15021 0.98741 -0.06200
O 	O 	0.67991 0.21664 0.99627 -0.36500
H 	H 	0.37134 0.11793 0.00765 0.04500
C 	C 	0.76373 0.22393 0.44441 -0.09400
C 	C 	0.48601 0.21756 0.96920 -0.09100
C 	C 	0.84255 0.22550 0.98953 -0.07300
O 	O 	0.56750 0.22494 0.00041 -0.36600
C 	C 	0.45262 0.17467 0.99411 0.02500
C 	C 	0.39214 0.23394 0.42252 -0.07000
C 	C 	0.47782 0.24654 0.44833 -0.08600
C 	C 	0.73567 0.17289 0.45824 0.01500
H 	H 	0.47027 0.16131 0.01982 0.03700
H 	H 	0.60141 0.23813 0.90687 0.18000
C 	C 	0.86596 0.00141 0.40397 -0.02100
H 	H 	0.69900 0.15719 0.47425 0.02900
O 	O 	0.70946 0.24523 0.48519 -0.43900
H 	H 	0.37004 0.24770 0.40484 0.05000
C 	C 	0.72637 0.23777 0.98007 0.29000
C 	C 	0.02630 0.00642 0.42668 0.11900
C 	C 	0.54593 0.24737 0.98076 0.29200
C 	C 	0.81385 0.24763 0.98590 0.01600
H 	H 	0.88484 0.24903 0.98481 0.05000
H 	H 	0.62236 0.25923 0.41359 0.17000
C 	C 	0.74599 0.25859 0.45579 0.29000
C 	C 	0.64223 0.25481 0.18696 0.00400
C 	C 	0.44865 0.26394 0.42548 0.01800
Cu	Cu	0.64692 0.25589 0.00074 0.92700
C 	C 	0.64938 0.26151 0.24125 -0.00300
O 	O 	0.63905 0.26163 0.92737 -0.64000
Cu	Cu	0.69278 0.26292 0.89300 0.86800
H 	H 	0.48728 0.26660 0.91579 0.03600
O 	O 	0.66614 0.26386 0.07371 -0.35500
O 	O 	0.66107 0.26774 0.82991 -0.41200
C 	C 	0.94628 0.00052 0.42928 0.11500
H 	H 	0.83233 0.28173 0.41109 0.04000
H 	H 	0.08635 0.98731 0.89682 0.04400
N 	N 	0.94022 0.96808 0.97677 -0.13800
C 	C 	0.96379 0.94246 0.97121 0.12000
N 	N 	0.01577 0.96985 0.96262 -0.13800
N 	N 	0.99746 0.95276 0.42569 -0.14000
C 	C 	0.94317 0.92283 0.42662 0.12000
N 	N 	0.91755 0.94676 0.42858 -0.13900
Cu	Cu	0.67312 0.33992 0.93456 0.89900
Cu	Cu	0.64762 0.35543 0.03697 0.89400
C 	C 	0.66458 0.29625 0.10825 0.28900
C 	C 	0.66210 0.30971 0.82279 0.28400
O 	O 	0.69072 0.33965 0.00582 -0.64500
O 	O 	0.74209 0.27458 0.95133 -0.43700
O 	O 	0.63831 0.31654 0.09534 -0.38000
O 	O 	0.71186 0.41698 0.94413 -0.37900
C 	C 	0.71015 0.44739 0.98117 0.29900
O 	O 	0.57780 0.29805 0.97613 -0.39200
O 	O 	0.68007 0.42701 0.01697 -0.39700
O 	O 	0.65848 0.33811 0.86041 -0.37100
H 	H 	0.73025 0.36338 0.02094 0.16900
Cu	Cu	0.73176 0.33965 0.43481 0.92900
Cu	Cu	0.72418 0.29552 0.54321 0.86900
Cu	Cu	0.64570 0.31452 0.50039 0.89800
Cu	Cu	0.63217 0.34133 0.39784 0.89500
C 	C 	0.69212 0.32343 0.32686 0.28800
O 	O 	0.76560 0.41850 0.43498 -0.35700
C 	C 	0.67646 0.32554 0.61260 0.28400
O 	O 	0.64677 0.29802 0.42913 -0.64100
O 	O 	0.72538 0.34787 0.50806 -0.64100
O 	O 	0.76911 0.30440 0.43937 -0.37000
O 	O 	0.67146 0.34934 0.33949 -0.38000
O 	O 	0.56728 0.27670 0.48961 -0.37800
C 	C 	0.53746 0.27782 0.45094 0.29200
C 	C 	0.74278 0.44066 0.45232 0.28400
O 	O 	0.69168 0.40985 0.45824 -0.39200
O 	O 	0.56020 0.31163 0.41881 -0.39200
O 	O 	0.72382 0.32071 0.36182 -0.35400
O 	O 	0.64589 0.32671 0.57465 -0.37100
O 	O 	0.71997 0.32823 0.60548 -0.41300
H 	H 	0.74921 0.38506 0.52821 0.17900
C 	C 	0.66566 0.32800 0.66556 -0.06700
C 	C 	0.61818 0.28342 0.67827 -0.00400
C 	C 	0.61459 0.27953 0.73050 0.00200
C 	C 	0.65867 0.31997 0.76978 -0.06600
C 	C 	0.70246 0.36785 0.75710 -0.00400
C 	C 	0.70581 0.37195 0.70487 0.00200
C 	C 	0.74466 0.41221 0.79770 0.07700
C 	C 	0.75033 0.42125 0.69151 0.08400
N 	N 	0.78585 0.46058 0.68082 -0.11600
N 	N 	0.77830 0.44760 0.83012 -0.11700
C 	C 	0.69280 0.31141 0.27188 -0.06300
C 	C 	0.67896 0.29793 0.16352 -0.06400
C 	C 	0.72592 0.34546 0.19423 -0.00200
C 	C 	0.73282 0.35228 0.24849 0.00400
C 	C 	0.76648 0.38771 0.16995 0.07000
C 	C 	0.78024 0.40182 0.28026 0.08900
N 	N 	0.81803 0.44134 0.30564 -0.11300
N 	N 	0.79881 0.42141 0.15053 -0.12300
C 	C 	0.91261 0.86477 0.42633 -0.02300
C 	C 	0.92187 0.83374 0.39351 -0.01500
C 	C 	0.89936 0.78064 0.39825 -0.05200
C 	C 	0.86742 0.75810 0.43576 0.02700
C 	C 	0.85624 0.78820 0.46723 -0.05200
C 	C 	0.87866 0.84138 0.46246 -0.01600
C 	C 	0.84797 0.70484 0.44316 -0.01500
C 	C 	0.83226 0.66018 0.44845 -0.02200
C 	C 	0.81387 0.60669 0.45373 0.04000
C 	C 	0.77520 0.57846 0.48466 -0.06800
C 	C 	0.75405 0.52499 0.48642 0.01500
C 	C 	0.77121 0.49922 0.45691 -0.08600
C 	C 	0.81181 0.52848 0.42774 0.01600
C 	C 	0.83292 0.58195 0.42611 -0.06700
H 	H 	0.94749 0.85115 0.36510 0.03900
H 	H 	0.90769 0.75741 0.37342 0.04600
H 	H 	0.83120 0.77086 0.49606 0.04600
H 	H 	0.87123 0.86490 0.48803 0.04100
H 	H 	0.76074 0.59755 0.50658 0.05100
H 	H 	0.72351 0.50328 0.50983 0.03600
H 	H 	0.82566 0.50935 0.40492 0.04600
H 	H 	0.86318 0.60373 0.40246 0.05200
H 	H 	0.84385 0.96121 0.38139 0.04400
H 	H 	0.46975 0.30085 0.41035 0.03500
H 	H 	0.08153 0.97652 0.37834 0.04300
C 	C 	0.73908 0.50512 0.98008 -0.07200
C 	C 	0.71961 0.53293 0.00083 -0.00600
C 	C 	0.74716 0.58764 0.99988 -0.04400
C 	C 	0.79426 0.61498 0.97822 0.03300
C 	C 	0.81373 0.58743 0.95732 -0.06000
C 	C 	0.78629 0.53270 0.95824 0.01300
C 	C 	0.82290 0.67144 0.97789 -0.01700
C 	C 	0.84687 0.71873 0.97764 -0.01400
C 	C 	0.87583 0.77525 0.97745 0.02700
C 	C 	0.93188 0.81084 0.99793 -0.04500
C 	C 	0.96047 0.86556 0.99656 -0.01100
C 	C 	0.93313 0.88510 0.97458 -0.02400
C 	C 	0.87673 0.84938 0.95470 -0.01500
C 	C 	0.84823 0.79463 0.95614 -0.05100
H 	H 	0.68296 0.51213 0.01731 0.03900
H 	H 	0.73187 0.60875 0.01601 0.03900
H 	H 	0.85021 0.60841 0.94057 0.05200
H 	H 	0.80202 0.51192 0.94244 0.04200
H 	H 	0.95339 0.79610 0.01469 0.03900
H 	H 	0.00381 0.89275 0.01261 0.03700
H 	H 	0.85518 0.86384 0.93739 0.04100
H 	H 	0.80483 0.76728 0.94031 0.04700
H 	H 	0.86166 0.97798 0.94141 0.04300
H 	H 	0.83440 0.28828 0.97884 0.03200
