data_crystal

_cell_length_a 35.09297
_cell_length_b 35.82003
_cell_length_c 35.08332
_cell_angle_alpha 95.57524
_cell_angle_beta  95.57422
_cell_angle_gamma 125.39403

_symmetry_space_group_name_	'P 1'
_symmetry_space_group_name_H-M	'P 1'

loop_
_symmetry_equiv_pos_as_xyz
  x,y,z

loop_
_atom_site_label
_atom_site_type_symbol
_atom_site_fract_x
_atom_site_fract_y
_atom_site_fract_z
_atom_site_charge
C 	C 	0.98620 0.03066 0.99023 0.13300
N 	N 	0.03231 0.05524 0.98574 -0.14100
C 	C 	0.05290 0.03317 0.98032 0.13300
N 	N 	0.02742 0.98661 0.97942 -0.14100
C 	C 	0.98138 0.96203 0.98390 0.13300
N 	N 	0.96072 0.98403 0.98929 -0.14100
C 	C 	0.93928 0.98519 0.44019 0.13200
N 	N 	0.91361 0.93853 0.43939 -0.14000
C 	C 	0.93607 0.91791 0.44160 0.13300
N 	N 	0.98399 0.94389 0.44464 -0.14100
C 	C 	0.00958 0.99042 0.44546 0.13300
N 	N 	0.98725 0.01108 0.44324 -0.14000
Cu	Cu	0.66481 0.27737 0.99817 0.92800
Cu	Cu	0.70944 0.27797 0.91996 0.87100
Cu	Cu	0.69690 0.35117 0.94686 0.89700
Cu	Cu	0.66147 0.36268 0.01863 0.89500
C 	C 	0.67199 0.31307 0.07767 0.29100
O 	O 	0.59447 0.24860 0.99239 -0.36300
C 	C 	0.68834 0.31837 0.86338 0.29300
O 	O 	0.70250 0.34974 0.00141 -0.64000
O 	O 	0.66379 0.28243 0.94245 -0.64100
O 	O 	0.69450 0.24393 0.00066 -0.37100
O 	O 	0.75062 0.29097 0.96659 -0.44300
O 	O 	0.65042 0.33100 0.06455 -0.38400
O 	O 	0.73178 0.41828 0.95534 -0.38100
C 	C 	0.72441 0.44287 0.97989 0.30700
C 	C 	0.57619 0.26749 0.97558 0.30200
O 	O 	0.60416 0.31087 0.97098 -0.39200
O 	O 	0.68941 0.42281 0.99970 -0.39400
O 	O 	0.67572 0.28485 0.05384 -0.35600
C 	C 	0.73567 0.26099 0.99015 0.31000
O 	O 	0.70348 0.35385 0.89169 -0.38300
O 	O 	0.68354 0.28065 0.87086 -0.41900
H 	H 	0.73559 0.37008 0.01632 0.16400
H 	H 	0.63172 0.26341 0.92575 0.17300
Cu	Cu	0.71240 0.32314 0.44209 0.92700
Cu	Cu	0.72158 0.29801 0.52845 0.87100
Cu	Cu	0.64016 0.29816 0.49559 0.89800
Cu	Cu	0.61779 0.31319 0.41477 0.89600
C 	C 	0.68008 0.31388 0.36138 0.29500
O 	O 	0.73828 0.38968 0.43828 -0.37100
C 	C 	0.67934 0.32304 0.58048 0.29300
O 	O 	0.63870 0.28321 0.44136 -0.63900
O 	O 	0.71046 0.33406 0.49803 -0.64100
O 	O 	0.74898 0.29653 0.44528 -0.37400
O 	O 	0.70699 0.25039 0.48748 -0.44200
O 	O 	0.63905 0.30624 0.36537 -0.38100
O 	O 	0.57152 0.25966 0.48935 -0.38000
C 	C 	0.54332 0.26005 0.46191 0.30700
C 	C 	0.71502 0.40685 0.44640 0.30500
O 	O 	0.67171 0.37971 0.45312 -0.39000
O 	O 	0.56064 0.29118 0.43901 -0.39300
O 	O 	0.70203 0.30436 0.38700 -0.36400
C 	C 	0.73440 0.26004 0.46156 0.30900
O 	O 	0.64149 0.30258 0.55232 -0.38600
O 	O 	0.71912 0.33008 0.57371 -0.41600
H 	H 	0.62028 0.24933 0.43115 0.16600
H 	H 	0.72827 0.36728 0.51043 0.17400
C 	C 	0.65515 0.34228 0.76737 -0.07300
C 	C 	0.68003 0.33331 0.74374 0.01300
C 	C 	0.70876 0.32096 0.75985 -0.00700
C 	C 	0.71162 0.31687 0.79905 -0.00300
C 	C 	0.68590 0.32472 0.82256 -0.09400
C 	C 	0.65754 0.33764 0.80658 0.05800
C 	C 	0.67339 0.33378 0.70157 0.01300
S 	S 	0.74043 0.30945 0.73093 -0.04600
H 	H 	0.73375 0.30731 0.81129 0.02900
S 	S 	0.62293 0.34559 0.83461 -0.04900
H 	H 	0.63287 0.35158 0.75496 0.05400
C 	C 	0.63721 0.29277 0.67493 -0.00700
C 	C 	0.63752 0.29075 0.63495 -0.00400
C 	C 	0.67385 0.32920 0.62123 -0.09400
C 	C 	0.70760 0.37150 0.64759 0.05800
C 	C 	0.70713 0.37357 0.68761 -0.07300
S 	S 	0.59277 0.24302 0.69144 -0.04200
H 	H 	0.61083 0.25849 0.61468 0.03900
S 	S 	0.74991 0.42218 0.63084 -0.05500
H 	H 	0.73419 0.40557 0.70801 0.05400
H 	H 	0.57943 0.30371 0.83159 0.03500
H 	H 	0.60883 0.21722 0.69961 0.03300
H 	H 	0.73129 0.44579 0.62259 0.03700
H 	H 	0.71153 0.26355 0.71278 0.03100
C 	C 	0.73058 0.33424 0.18177 -0.07200
C 	C 	0.69161 0.31664 0.20068 0.01300
C 	C 	0.64603 0.29674 0.17889 -0.00500
C 	C 	0.64001 0.29523 0.13865 -0.00200
C 	C 	0.67902 0.31337 0.11975 -0.08800
C 	C 	0.72452 0.33258 0.14142 0.05300
C 	C 	0.69889 0.32025 0.24346 0.01300
S 	S 	0.59623 0.27347 0.20168 -0.03700
H 	H 	0.60491 0.27999 0.12199 0.04400
S 	S 	0.77429 0.35585 0.11860 -0.05200
H 	H 	0.76563 0.34946 0.19850 0.05200
C 	C 	0.69239 0.28308 0.26003 -0.00600
C 	C 	0.68976 0.28289 0.29959 -0.00100
C 	C 	0.69327 0.31935 0.32271 -0.08800
C 	C 	0.70367 0.35828 0.30685 0.05600
C 	C 	0.70666 0.35862 0.26739 -0.07200
S 	S 	0.68585 0.23593 0.23126 -0.03600
H 	H 	0.68278 0.25335 0.31192 0.04400
S 	S 	0.71260 0.40655 0.33604 -0.05800
H 	H 	0.71292 0.38780 0.25488 0.05200
H 	H 	0.79427 0.40183 0.11796 0.02900
H 	H 	0.72986 0.24595 0.23085 0.03700
H 	H 	0.75949 0.43715 0.35387 0.04300
H 	H 	0.57712 0.22787 0.20331 0.03800
C 	C 	0.77217 0.54317 0.44400 -0.01000
C 	C 	0.79945 0.57797 0.47747 -0.02900
C 	C 	0.81685 0.62409 0.47608 -0.04400
C 	C 	0.80696 0.63563 0.44118 0.01100
C 	C 	0.77967 0.60070 0.40770 -0.04400
C 	C 	0.76240 0.55465 0.40912 -0.03000
C 	C 	0.82616 0.68445 0.43945 0.00500
C 	C 	0.81318 0.70776 0.46311 -0.03800
C 	C 	0.83280 0.75456 0.46244 -0.04000
C 	C 	0.86539 0.77826 0.43809 0.01300
C 	C 	0.87762 0.75476 0.41389 -0.04000
C 	C 	0.85812 0.70804 0.41457 -0.03800
C 	C 	0.88893 0.82747 0.43990 0.00500
C 	C 	0.90937 0.86864 0.44063 -0.03900
C 	C 	0.75283 0.49540 0.44571 0.04700
C 	C 	0.73625 0.45518 0.44642 -0.11400
H 	H 	0.80707 0.56933 0.50456 0.03800
H 	H 	0.83817 0.65085 0.50201 0.04200
H 	H 	0.77181 0.60924 0.38064 0.04100
H 	H 	0.74124 0.52787 0.38315 0.03800
H 	H 	0.78824 0.68975 0.48218 0.04000
H 	H 	0.82320 0.77252 0.48125 0.04300
H 	H 	0.90287 0.77290 0.39505 0.04300
H 	H 	0.86838 0.69039 0.39622 0.04000
C 	C 	0.78087 0.17997 0.44071 -0.01100
C 	C 	0.75729 0.13689 0.45286 -0.03000
C 	C 	0.77509 0.11068 0.44985 -0.04500
C 	C 	0.81661 0.12739 0.43463 0.01100
C 	C 	0.83938 0.16990 0.42138 -0.04500
C 	C 	0.82156 0.19612 0.42447 -0.03000
C 	C 	0.83775 0.10178 0.43467 0.00500
C 	C 	0.81227 0.05622 0.41313 -0.03800
C 	C 	0.83190 0.03160 0.41409 -0.04000
C 	C 	0.87706 0.05236 0.43658 0.01300
C 	C 	0.90256 0.09784 0.45803 -0.04000
C 	C 	0.88299 0.12247 0.45712 -0.03800
C 	C 	0.89770 0.02738 0.43727 0.00500
C 	C 	0.91596 0.00742 0.43845 -0.03800
C 	C 	0.76508 0.20889 0.44732 0.04700
C 	C 	0.75116 0.23244 0.45316 -0.11900
H 	H 	0.72576 0.12416 0.46539 0.03700
H 	H 	0.75726 0.07795 0.46017 0.04100
H 	H 	0.87125 0.18294 0.40932 0.04200
H 	H 	0.83990 0.22933 0.41490 0.03900
H 	H 	0.77735 0.03996 0.39568 0.04000
H 	H 	0.81204 0.99648 0.39735 0.04300
H 	H 	0.93751 0.11413 0.47543 0.04300
H 	H 	0.90279 0.15748 0.47406 0.04000
C 	C 	0.40116 0.18507 0.46271 -0.00900
C 	C 	0.36836 0.15202 0.42971 -0.03000
C 	C 	0.31956 0.12840 0.42866 -0.04400
C 	C 	0.30327 0.13775 0.46062 0.01100
C 	C 	0.33615 0.17039 0.49387 -0.04400
C 	C 	0.38497 0.19398 0.49489 -0.02900
C 	C 	0.25186 0.11374 0.45908 0.00500
C 	C 	0.22574 0.12044 0.43135 -0.03800
C 	C 	0.17672 0.09663 0.42917 -0.04000
C 	C 	0.15356 0.06606 0.45470 0.01300
C 	C 	0.17967 0.05980 0.48275 -0.04000
C 	C 	0.22868 0.08356 0.48495 -0.03800
C 	C 	0.10276 0.03982 0.45123 0.00600
C 	C 	0.06024 0.01766 0.44861 -0.03900
C 	C 	0.45140 0.21139 0.46278 0.04700
C 	C 	0.49342 0.23329 0.46264 -0.10700
H 	H 	0.38066 0.14496 0.40474 0.03800
H 	H 	0.29442 0.10301 0.40298 0.04200
H 	H 	0.32391 0.17783 0.51868 0.04200
H 	H 	0.41016 0.21954 0.52048 0.04100
H 	H 	0.24339 0.14390 0.41143 0.04100
H 	H 	0.15674 0.10167 0.40745 0.04300
H 	H 	0.16195 0.03618 0.50256 0.04300
H 	H 	0.24853 0.07814 0.50643 0.04000
C 	C 	0.79291 0.58147 0.97923 -0.00800
C 	C 	0.84075 0.61420 0.99728 -0.03100
C 	C 	0.86332 0.66167 0.99750 -0.04500
C 	C 	0.83813 0.67667 0.97962 0.01100
C 	C 	0.79024 0.64382 0.96151 -0.04400
C 	C 	0.76772 0.59636 0.96133 -0.03000
C 	C 	0.86200 0.72670 0.97963 0.00500
C 	C 	0.90061 0.75100 0.96048 -0.03800
C 	C 	0.92372 0.79859 0.96100 -0.04000
C 	C 	0.90838 0.82218 0.98062 0.01300
C 	C 	0.86959 0.79793 0.99950 -0.04000
C 	C 	0.84644 0.75031 0.99902 -0.03800
C 	C 	0.93328 0.87151 0.98215 0.00500
C 	C 	0.95470 0.91281 0.98302 -0.03900
C 	C 	0.76938 0.53267 0.97961 0.04600
C 	C 	0.74923 0.49170 0.97971 -0.10600
H 	H 	0.86041 0.60292 0.01124 0.03900
H 	H 	0.90027 0.68679 0.01164 0.04200
H 	H 	0.77057 0.65504 0.94749 0.04200
H 	H 	0.73070 0.57122 0.94734 0.04000
H 	H 	0.91270 0.73302 0.94526 0.04000
H 	H 	0.95368 0.81714 0.94632 0.04300
H 	H 	0.85757 0.81598 0.01475 0.04400
H 	H 	0.81671 0.73186 0.01394 0.04100
C 	C 	0.92370 0.09680 0.00403 0.01500
C 	C 	0.92999 0.12796 0.97964 -0.04100
C 	C 	0.90752 0.14969 0.98316 -0.03800
C 	C 	0.87861 0.14042 0.01116 0.00600
C 	C 	0.87281 0.10963 0.03589 -0.03800
C 	C 	0.89529 0.08788 0.03231 -0.04000
C 	C 	0.85308 0.16164 0.01354 0.01100
C 	C 	0.87862 0.21035 0.02194 -0.04500
C 	C 	0.85446 0.23056 0.02031 -0.02900
C 	C 	0.80466 0.20225 0.01037 -0.01300
C 	C 	0.77901 0.15359 0.00345 -0.02900
C 	C 	0.80312 0.13333 0.00501 -0.04400
C 	C 	0.78026 0.22303 0.00379 0.05000
C 	C 	0.75986 0.24047 0.99829 -0.12300
C 	C 	0.94565 0.07332 0.99946 0.00400
C 	C 	0.96419 0.05385 0.99539 -0.03800
H 	H 	0.95193 0.13504 0.95774 0.04300
H 	H 	0.91204 0.17322 0.96381 0.03900
H 	H 	0.85070 0.10237 0.05768 0.04100
H 	H 	0.89035 0.06389 0.05132 0.04400
H 	H 	0.91717 0.23250 0.02891 0.04100
H 	H 	0.87452 0.26820 0.02581 0.03800
H 	H 	0.74049 0.13148 0.99582 0.03700
H 	H 	0.78307 0.09570 0.99855 0.04100
C 	C 	0.43311 0.20199 0.96304 -0.00900
C 	C 	0.40785 0.16928 0.98651 -0.03100
C 	C 	0.35997 0.15004 0.98624 -0.04400
C 	C 	0.33701 0.16341 0.96246 0.01000
C 	C 	0.36196 0.19521 0.93815 -0.04400
C 	C 	0.40992 0.21449 0.93848 -0.03100
C 	C 	0.28733 0.14513 0.96392 0.00600
C 	C 	0.27592 0.15665 0.99826 -0.04100
C 	C 	0.22840 0.13634 0.00079 -0.03700
C 	C 	0.19202 0.10442 0.96905 0.01100
C 	C 	0.20343 0.09398 0.93431 -0.03900
C 	C 	0.25097 0.11431 0.93173 -0.03900
C 	C 	0.14297 0.07979 0.97308 0.00600
C 	C 	0.10186 0.05908 0.97632 -0.04000
C 	C 	0.48355 0.22525 0.96644 0.04600
C 	C 	0.52575 0.24423 0.96982 -0.11100
H 	H 	0.42554 0.15941 0.00553 0.04100
H 	H 	0.34086 0.12520 0.00484 0.04300
H 	H 	0.34447 0.20560 0.91958 0.04100
H 	H 	0.42923 0.23977 0.92024 0.03900
H 	H 	0.30380 0.18070 0.02316 0.04200
H 	H 	0.21984 0.14467 0.02770 0.04300
H 	H 	0.17547 0.06939 0.90962 0.04300
H 	H 	0.25945 0.10531 0.90507 0.04000
