data_crystal

_cell_length_a 36.79019
_cell_length_b 32.66022
_cell_length_c 31.68958
_cell_angle_alpha 103.39423
_cell_angle_beta  115.58419
_cell_angle_gamma 112.96002

_symmetry_space_group_name_	'P 1'
_symmetry_space_group_name_H-M	'P 1'

loop_
_symmetry_equiv_pos_as_xyz
  x,y,z

loop_
_atom_site_label
_atom_site_type_symbol
_atom_site_fract_x
_atom_site_fract_y
_atom_site_fract_z
_atom_site_charge
C 	C 	0.63855 0.30324 0.96462 0.05300
C 	C 	0.65706 0.35090 0.96700 -0.08900
C 	C 	0.69427 0.37009 0.96013 0.05300
C 	C 	0.71335 0.34197 0.95166 -0.08900
C 	C 	0.69461 0.29423 0.94884 0.05300
C 	C 	0.65755 0.27507 0.95585 -0.08900
H 	H 	0.64165 0.37225 0.97261 0.05500
H 	H 	0.74163 0.35649 0.94551 0.05500
H 	H 	0.64257 0.23775 0.95293 0.05700
C 	C 	0.63686 0.30136 0.46304 0.05300
C 	C 	0.65625 0.34933 0.46621 -0.08900
C 	C 	0.69322 0.36793 0.45890 0.05300
C 	C 	0.71105 0.33882 0.44898 -0.08900
C 	C 	0.69152 0.29082 0.44552 0.05300
C 	C 	0.65467 0.27223 0.45292 -0.08900
H 	H 	0.64191 0.37154 0.47312 0.05500
H 	H 	0.73931 0.35300 0.44276 0.05500
H 	H 	0.63918 0.23480 0.44969 0.05600
C 	C 	0.46171 0.75249 0.96698 0.05200
C 	C 	0.44132 0.70423 0.96311 -0.08900
C 	C 	0.39915 0.68266 0.96150 0.05300
C 	C 	0.37757 0.70940 0.96396 -0.08800
C 	C 	0.39778 0.75748 0.96765 0.05200
C 	C 	0.43993 0.77910 0.96930 -0.08900
H 	H 	0.45791 0.68344 0.96091 0.05500
H 	H 	0.34480 0.69258 0.96242 0.05600
H 	H 	0.45541 0.81621 0.97181 0.05400
C 	C 	0.45958 0.75068 0.46313 0.05100
C 	C 	0.43839 0.77785 0.46606 -0.08900
C 	C 	0.39588 0.75633 0.46372 0.05200
C 	C 	0.37475 0.70781 0.45888 -0.08900
C 	C 	0.39574 0.68050 0.45583 0.05200
C 	C 	0.43825 0.70196 0.45804 -0.08900
H 	H 	0.45460 0.81531 0.46949 0.05400
H 	H 	0.34170 0.69108 0.45682 0.05600
H 	H 	0.45437 0.68073 0.45533 0.05500
Zn	Zn	0.11471 0.09843 0.95582 1.18800
Zn	Zn	0.03430 0.05062 0.83619 1.20100
O 	O 	0.02367 0.96375 0.75214 -0.47200
O 	O 	0.00881 0.02588 0.75812 -0.42200
O 	O 	0.02442 0.90560 0.82830 -0.49400
C 	C 	0.17272 0.07930 0.92896 0.32100
O 	O 	0.98690 0.98257 0.81896 -0.89400
C 	C 	0.11736 0.16128 0.90241 0.33500
O 	O 	0.17350 0.10241 0.96947 -0.46100
O 	O 	0.13139 0.04878 0.88133 -0.32900
O 	O 	0.04911 0.06182 0.90944 -0.77400
O 	O 	0.06894 0.97722 0.90714 -0.45700
O 	O 	0.08710 0.11886 0.85620 -0.45100
O 	O 	0.12921 0.16062 0.94774 -0.45900
Zn	Zn	0.90276 0.90472 0.84910 1.17300
Zn	Zn	0.98986 0.93424 0.94683 1.18100
Zn	Zn	0.00669 0.99300 0.88986 1.21900
C 	C 	0.90248 0.83216 0.89292 0.34000
C 	C 	0.88299 0.94666 0.91748 0.33700
O 	O 	0.94542 0.01249 0.87377 -0.46400
Zn	Zn	0.99939 0.03053 0.98405 1.19500
O 	O 	0.95017 0.86256 0.92674 -0.47200
O 	O 	0.87746 0.84096 0.85575 -0.46800
O 	O 	0.86810 0.92850 0.86757 -0.48500
O 	O 	0.92648 0.95980 0.95468 -0.48000
C 	C 	0.02179 0.99531 0.06071 0.28700
O 	O 	0.96396 0.92412 0.87082 -0.81100
C 	C 	0.94649 0.04773 0.90579 0.34000
O 	O 	0.01380 0.95552 0.02570 -0.42100
O 	O 	0.02786 0.03519 0.05408 -0.45000
O 	O 	0.97267 0.06465 0.95732 -0.50600
O 	O 	0.02679 0.00316 0.96043 -0.87700
Zn	Zn	0.99950 0.93647 0.79088 1.17300
C 	C 	0.01370 0.99254 0.73292 0.28000
C 	C 	0.06147 0.93462 0.87862 0.33400
H 	H 	0.06226 0.02082 0.98668 0.15900
H 	H 	0.95277 0.97171 0.79537 0.14600
Zn	Zn	0.11243 0.09814 0.45415 1.18800
Zn	Zn	0.03186 0.04873 0.33415 1.20000
O 	O 	0.02316 0.96245 0.25194 -0.47600
O 	O 	0.00640 0.02311 0.25601 -0.42500
O 	O 	0.02498 0.90546 0.32923 -0.49400
C 	C 	0.17179 0.07976 0.42929 0.32100
O 	O 	0.98537 0.98060 0.31782 -0.89300
C 	C 	0.11423 0.15989 0.39935 0.33400
O 	O 	0.17182 0.10293 0.46910 -0.46100
O 	O 	0.13075 0.04840 0.38151 -0.32700
O 	O 	0.04685 0.06064 0.40757 -0.77500
O 	O 	0.06858 0.97745 0.40738 -0.45800
O 	O 	0.08381 0.11722 0.35334 -0.45100
O 	O 	0.12623 0.15972 0.44493 -0.45900
Zn	Zn	0.90181 0.90280 0.34936 1.17300
Zn	Zn	0.99009 0.93450 0.44755 1.18100
Zn	Zn	0.00538 0.99191 0.38903 1.21800
C 	C 	0.90347 0.83258 0.39594 0.34000
C 	C 	0.88250 0.94567 0.41782 0.33700
O 	O 	0.94316 0.01004 0.37210 -0.46500
Zn	Zn	0.99832 0.03023 0.48325 1.19500
O 	O 	0.95122 0.86307 0.42878 -0.47200
O 	O 	0.87786 0.83970 0.35738 -0.46700
O 	O 	0.86652 0.92580 0.36756 -0.48300
O 	O 	0.92621 0.95907 0.45464 -0.48300
C 	C 	0.02266 0.99676 0.56143 0.29200
O 	O 	0.96333 0.92314 0.37102 -0.80900
C 	C 	0.94358 0.04500 0.40359 0.33900
O 	O 	0.01478 0.95689 0.52668 -0.42100
O 	O 	0.02730 0.03591 0.55379 -0.44800
O 	O 	0.97032 0.06299 0.45530 -0.50600
O 	O 	0.02603 0.00312 0.45996 -0.87700
Zn	Zn	0.99913 0.93520 0.29080 1.17300
C 	C 	0.01206 0.99014 0.23159 0.29100
C 	C 	0.06194 0.93514 0.37954 0.33400
H 	H 	0.06158 0.02129 0.48614 0.15800
H 	H 	0.95104 0.96903 0.29398 0.14600
C 	C 	0.99718 0.01742 0.65463 -0.02900
H 	H 	0.97918 0.03633 0.66073 0.03500
C 	C 	0.97401 0.97007 0.60291 -0.02800
H 	H 	0.93699 0.95000 0.56569 0.03200
C 	C 	0.04486 0.04277 0.65881 0.01400
H 	H 	0.06636 0.08268 0.66789 0.03400
C 	C 	0.02166 0.99539 0.60761 -0.06600
C 	C 	0.01623 0.99341 0.68740 -0.05300
C 	C 	0.06389 0.01870 0.69213 -0.00400
H 	H 	0.10089 0.03880 0.72937 0.03900
C 	C 	0.04069 0.97131 0.64027 -0.00100
H 	H 	0.05864 0.95239 0.63399 0.03400
C 	C 	0.99300 0.94599 0.63622 -0.04200
H 	H 	0.97150 0.90612 0.62724 0.02300
C 	C 	0.04928 0.98088 0.14720 -0.04000
H 	H 	0.07536 0.97161 0.14750 0.03900
C 	C 	0.00240 0.94552 0.14117 0.04400
H 	H 	0.98972 0.90700 0.13715 -0.00200
C 	C 	0.06161 0.02616 0.19285 0.01500
H 	H 	0.09779 0.05419 0.23156 0.03400
C 	C 	0.01478 0.99086 0.18615 -0.08900
C 	C 	0.02050 0.99361 0.10668 -0.04900
C 	C 	0.03283 0.03889 0.15171 0.00300
H 	H 	0.04550 0.07747 0.15593 0.03800
C 	C 	0.98599 0.00353 0.14553 -0.01200
H 	H 	0.95986 0.01279 0.14506 0.02800
C 	C 	0.97366 0.95829 0.09999 -0.06400
H 	H 	0.93746 0.93031 0.06129 0.04100
C 	C 	0.18844 0.29540 0.40631 -0.01200
C 	C 	0.20264 0.29836 0.37198 -0.02900
C 	C 	0.23034 0.34553 0.37699 -0.04500
C 	C 	0.24404 0.39005 0.41643 0.01100
C 	C 	0.22943 0.38692 0.45046 -0.04500
C 	C 	0.20176 0.33975 0.44542 -0.02900
C 	C 	0.27335 0.43991 0.42188 0.00300
C 	C 	0.25443 0.45071 0.38015 -0.03700
C 	C 	0.28101 0.49891 0.38651 -0.04300
C 	C 	0.32666 0.53663 0.43457 0.01600
C 	C 	0.34612 0.52558 0.47585 -0.04400
C 	C 	0.31958 0.47737 0.46954 -0.03800
C 	C 	0.35199 0.58749 0.44274 -0.01100
C 	C 	0.37265 0.62984 0.44886 -0.03100
C 	C 	0.16183 0.24711 0.40286 0.05200
C 	C 	0.13957 0.20703 0.40053 -0.11600
H 	H 	0.19257 0.26424 0.34173 0.03800
H 	H 	0.24143 0.34753 0.35052 0.04000
H 	H 	0.23950 0.42099 0.48076 0.04100
H 	H 	0.19096 0.33776 0.47213 0.03800
H 	H 	0.21879 0.42209 0.34323 0.03900
H 	H 	0.26572 0.50719 0.35443 0.04200
H 	H 	0.38140 0.55452 0.51311 0.04000
H 	H 	0.33467 0.46931 0.50185 0.03800
C 	C 	0.57976 0.81217 0.46253 0.01600
C 	C 	0.57509 0.79334 0.41473 -0.04500
C 	C 	0.61550 0.81519 0.41350 -0.03800
C 	C 	0.66091 0.85614 0.46012 0.00100
C 	C 	0.66558 0.87480 0.50805 -0.03900
C 	C 	0.62510 0.85287 0.50922 -0.04600
C 	C 	0.70362 0.87897 0.45880 0.01000
C 	C 	0.70367 0.90104 0.42568 -0.04800
C 	C 	0.74226 0.91872 0.42091 -0.03000
C 	C 	0.78105 0.91453 0.44923 -0.01700
C 	C 	0.78196 0.89425 0.48386 -0.03100
C 	C 	0.74337 0.87650 0.48863 -0.04800
C 	C 	0.81733 0.92636 0.43878 0.05000
C 	C 	0.84765 0.93629 0.42998 -0.12800
C 	C 	0.53770 0.79055 0.46329 -0.01300
C 	C 	0.50227 0.77219 0.46347 -0.03200
H 	H 	0.54015 0.76191 0.37849 0.04000
H 	H 	0.61158 0.80025 0.37640 0.03700
H 	H 	0.70045 0.90638 0.54425 0.03300
H 	H 	0.62898 0.86769 0.54632 0.03700
H 	H 	0.67343 0.90363 0.40292 0.03800
H 	H 	0.74138 0.93449 0.39420 0.03300
H 	H 	0.81189 0.89099 0.50599 0.03100
H 	H 	0.74376 0.85967 0.51441 0.03400
C 	C 	0.32808 0.83004 0.46385 0.01600
C 	C 	0.30388 0.83503 0.41904 -0.04400
C 	C 	0.27627 0.85528 0.41664 -0.03700
C 	C 	0.27271 0.87072 0.45911 0.00300
C 	C 	0.29825 0.86719 0.50468 -0.03800
C 	C 	0.32581 0.84688 0.50699 -0.04400
C 	C 	0.23962 0.88715 0.45422 0.01100
C 	C 	0.24676 0.92974 0.44697 -0.04700
C 	C 	0.21250 0.94205 0.43666 -0.02900
C 	C 	0.17096 0.91191 0.43356 -0.01700
C 	C 	0.16479 0.87061 0.44292 -0.02900
C 	C 	0.19898 0.85824 0.45321 -0.04600
C 	C 	0.13248 0.92016 0.41541 0.05400
C 	C 	0.10047 0.92738 0.40019 -0.13600
C 	C 	0.35238 0.80450 0.46400 -0.01200
C 	C 	0.37273 0.78311 0.46416 -0.03200
H 	H 	0.30554 0.82218 0.38557 0.04100
H 	H 	0.25664 0.85776 0.38125 0.03800
H 	H 	0.29600 0.87929 0.53781 0.03700
H 	H 	0.34456 0.84328 0.54184 0.04000
H 	H 	0.27823 0.95257 0.44816 0.03700
H 	H 	0.21761 0.97417 0.42966 0.03500
H 	H 	0.13280 0.84719 0.44066 0.03700
H 	H 	0.19316 0.82533 0.45881 0.04200
C 	C 	0.33360 0.54106 0.94633 0.01600
C 	C 	0.31736 0.49830 0.90259 -0.04300
C 	C 	0.29043 0.44970 0.89527 -0.03700
C 	C 	0.27956 0.44362 0.93166 0.00300
C 	C 	0.29687 0.48657 0.97610 -0.03500
C 	C 	0.32377 0.53510 0.98337 -0.04100
C 	C 	0.24912 0.39234 0.92260 0.01200
C 	C 	0.26582 0.36035 0.92414 -0.04600
C 	C 	0.23780 0.31257 0.91775 -0.02900
C 	C 	0.19293 0.29648 0.90976 -0.01200
C 	C 	0.17581 0.32800 0.90729 -0.02900
C 	C 	0.20378 0.37577 0.91365 -0.04500
C 	C 	0.16561 0.24867 0.90665 0.05300
C 	C 	0.14307 0.20857 0.90411 -0.11600
C 	C 	0.35726 0.59068 0.95119 -0.01100
C 	C 	0.37711 0.63255 0.95599 -0.03100
H 	H 	0.32480 0.50260 0.87378 0.04100
H 	H 	0.27733 0.41679 0.86090 0.03800
H 	H 	0.28905 0.48230 0.00467 0.03600
H 	H 	0.33624 0.56799 0.01730 0.03800
H 	H 	0.30075 0.37278 0.93102 0.04000
H 	H 	0.25127 0.28839 0.91971 0.03900
H 	H 	0.14113 0.31578 0.90105 0.03900
H 	H 	0.19043 0.40005 0.91203 0.04200
C 	C 	0.58071 0.81467 0.96458 0.01500
C 	C 	0.62011 0.81152 0.99354 -0.04400
C 	C 	0.65975 0.83178 0.99073 -0.03700
C 	C 	0.66018 0.85532 0.95890 0.00100
C 	C 	0.62103 0.85916 0.93066 -0.03800
C 	C 	0.58144 0.83887 0.93348 -0.04500
C 	C 	0.70032 0.87354 0.95290 0.01000
C 	C 	0.74793 0.91282 0.99722 -0.04700
C 	C 	0.78589 0.92978 0.99135 -0.03000
C 	C 	0.77645 0.90760 0.94118 -0.01700
C 	C 	0.72893 0.86856 0.89692 -0.02900
C 	C 	0.69102 0.85155 0.90274 -0.04700
C 	C 	0.81561 0.92343 0.93523 0.05100
C 	C 	0.84710 0.93529 0.92820 -0.12800
C 	C 	0.53916 0.79243 0.96604 -0.01200
C 	C 	0.50404 0.77405 0.96674 -0.03200
H 	H 	0.61985 0.79299 0.01779 0.03500
H 	H 	0.68971 0.82847 0.01255 0.03000
H 	H 	0.62110 0.87742 0.90615 0.03600
H 	H 	0.55119 0.84161 0.91114 0.04000
H 	H 	0.75547 0.93015 0.03608 0.03200
H 	H 	0.82258 0.95986 0.02579 0.02800
H 	H 	0.72141 0.85110 0.85808 0.03500
H 	H 	0.65447 0.82107 0.86835 0.04000
C 	C 	0.16758 0.90715 0.93108 -0.01700
C 	C 	0.15623 0.86008 0.92876 -0.02800
C 	C 	0.19037 0.84759 0.93969 -0.04500
C 	C 	0.23618 0.88216 0.95310 0.01000
C 	C 	0.24802 0.92989 0.95692 -0.04600
C 	C 	0.21378 0.94232 0.94591 -0.02900
C 	C 	0.27070 0.86733 0.96046 0.00600
C 	C 	0.28778 0.85417 0.00058 -0.04100
C 	C 	0.31646 0.83514 0.00407 -0.04700
C 	C 	0.32833 0.82923 0.96757 0.01900
C 	C 	0.31273 0.84400 0.92864 -0.04400
C 	C 	0.28398 0.86298 0.92506 -0.03800
C 	C 	0.35327 0.80449 0.96754 -0.01200
C 	C 	0.37417 0.78373 0.96787 -0.03100
C 	C 	0.13045 0.91737 0.91348 0.05400
C 	C 	0.09919 0.92568 0.89869 -0.13600
H 	H 	0.12055 0.83267 0.91720 0.03800
H 	H 	0.18084 0.81062 0.93652 0.04200
H 	H 	0.28338 0.95696 0.96756 0.03900
H 	H 	0.22280 0.97878 0.94774 0.03600
H 	H 	0.27801 0.85773 0.02833 0.03700
H 	H 	0.32852 0.82394 0.03438 0.04000
H 	H 	0.32186 0.83963 0.90036 0.04100
H 	H 	0.27098 0.87302 0.89393 0.03800
C 	C 	0.73715 0.20337 0.40375 0.01600
C 	C 	0.70603 0.16074 0.35298 -0.04300
C 	C 	0.72278 0.13299 0.33682 -0.03700
C 	C 	0.77080 0.14794 0.37133 0.00300
C 	C 	0.80160 0.19010 0.42249 -0.03700
C 	C 	0.78481 0.21771 0.43862 -0.04400
C 	C 	0.78891 0.11933 0.35447 0.01200
C 	C 	0.77465 0.07202 0.35267 -0.04600
C 	C 	0.80069 0.05085 0.35042 -0.02700
C 	C 	0.84119 0.07701 0.35025 -0.01800
C 	C 	0.85198 0.12138 0.34601 -0.02900
C 	C 	0.82598 0.14260 0.34827 -0.04700
C 	C 	0.87732 0.06547 0.36706 0.05500
C 	C 	0.90705 0.05508 0.38122 -0.13600
C 	C 	0.72106 0.23402 0.41885 -0.01100
C 	C 	0.70748 0.25962 0.43139 -0.03200
H 	H 	0.66910 0.14943 0.32586 0.04200
H 	H 	0.69864 0.10023 0.29744 0.04000
H 	H 	0.83857 0.20150 0.44962 0.03700
H 	H 	0.80902 0.25056 0.47796 0.03900
H 	H 	0.74548 0.05331 0.35647 0.04300
H 	H 	0.79162 0.01606 0.35285 0.04000
H 	H 	0.88274 0.14143 0.34498 0.03100
H 	H 	0.83657 0.17866 0.34850 0.03900
C 	C 	0.74443 0.50098 0.45387 0.01600
C 	C 	0.79401 0.53198 0.47634 -0.04500
C 	C 	0.81165 0.57467 0.46980 -0.03900
C 	C 	0.77976 0.58664 0.44074 0.00200
C 	C 	0.73031 0.55629 0.41940 -0.03900
C 	C 	0.71271 0.51357 0.42597 -0.04500
C 	C 	0.79794 0.62997 0.43128 0.01000
C 	C 	0.83273 0.67939 0.47447 -0.04800
C 	C 	0.85245 0.72009 0.46589 -0.03100
C 	C 	0.83753 0.71166 0.41412 -0.01600
C 	C 	0.80208 0.66249 0.37078 -0.03000
C 	C 	0.78231 0.62173 0.37931 -0.04700
C 	C 	0.85980 0.75329 0.40586 0.05100
C 	C 	0.87918 0.78899 0.40036 -0.12500
C 	C 	0.72564 0.45422 0.45578 -0.01300
C 	C 	0.71059 0.41523 0.45780 -0.03300
H 	H 	0.81872 0.52241 0.49790 0.03800
H 	H 	0.84988 0.59788 0.48642 0.03500
H 	H 	0.70549 0.56547 0.39725 0.03700
H 	H 	0.67432 0.48977 0.40852 0.04000
H 	H 	0.84486 0.68614 0.51469 0.03400
H 	H 	0.87973 0.75806 0.49955 0.03100
H 	H 	0.79030 0.65574 0.33063 0.03400
H 	H 	0.75553 0.58368 0.34572 0.03900
C 	C 	0.51999 0.23908 0.46855 0.01700
C 	C 	0.48453 0.18684 0.43581 -0.04300
C 	C 	0.44220 0.16513 0.43356 -0.03700
C 	C 	0.43511 0.19557 0.46413 0.00400
C 	C 	0.47135 0.24763 0.49814 -0.03800
C 	C 	0.51364 0.26931 0.50027 -0.04400
C 	C 	0.38852 0.17371 0.45782 0.01100
C 	C 	0.37372 0.13560 0.47171 -0.04400
C 	C 	0.32936 0.11485 0.46544 -0.02900
C 	C 	0.29968 0.13215 0.44533 -0.01000
C 	C 	0.31425 0.16986 0.43106 -0.02900
C 	C 	0.35848 0.19055 0.43721 -0.04500
C 	C 	0.25476 0.11215 0.44035 0.05000
C 	C 	0.21688 0.09654 0.43549 -0.10900
C 	C 	0.56163 0.26195 0.46752 -0.01100
C 	C 	0.59624 0.28037 0.46608 -0.03200
H 	H 	0.48932 0.16323 0.41133 0.04200
H 	H 	0.41442 0.12492 0.40717 0.04000
H 	H 	0.46634 0.27138 0.52214 0.03800
H 	H 	0.54103 0.30969 0.52586 0.04000
H 	H 	0.39663 0.12227 0.48753 0.04200
H 	H 	0.31822 0.08559 0.47644 0.04000
H 	H 	0.29139 0.18329 0.41536 0.03900
H 	H 	0.36939 0.21959 0.42590 0.04000
C 	C 	0.74026 0.20736 0.90572 0.01700
C 	C 	0.71695 0.17621 0.85141 -0.04300
C 	C 	0.73469 0.14944 0.83587 -0.03700
C 	C 	0.77585 0.15382 0.87461 0.00300
C 	C 	0.79851 0.18418 0.92897 -0.03700
C 	C 	0.78075 0.21087 0.94446 -0.04400
C 	C 	0.79596 0.12756 0.85856 0.01200
C 	C 	0.77751 0.07709 0.84802 -0.04600
C 	C 	0.80358 0.05598 0.84564 -0.02700
C 	C 	0.84829 0.08539 0.85412 -0.01800
C 	C 	0.86402 0.13390 0.85899 -0.02900
C 	C 	0.83802 0.15505 0.86142 -0.04700
C 	C 	0.88245 0.07119 0.87036 0.05500
C 	C 	0.91111 0.05938 0.88398 -0.13600
C 	C 	0.72432 0.23787 0.92154 -0.01100
C 	C 	0.71071 0.26329 0.93441 -0.03200
H 	H 	0.68558 0.17330 0.82126 0.04200
H 	H 	0.71686 0.12586 0.79384 0.04000
H 	H 	0.83015 0.18747 0.95912 0.03800
H 	H 	0.79888 0.23481 0.98651 0.04000
H 	H 	0.74459 0.05531 0.84488 0.04400
H 	H 	0.79079 0.01814 0.84108 0.04100
H 	H 	0.89822 0.15664 0.86484 0.03100
H 	H 	0.85207 0.19379 0.86865 0.03900
C 	C 	0.83449 0.70555 0.90240 -0.01600
C 	C 	0.79278 0.69190 0.90123 -0.03000
C 	C 	0.77259 0.65126 0.90974 -0.04800
C 	C 	0.79408 0.62413 0.91951 0.01000
C 	C 	0.83527 0.63724 0.91960 -0.04800
C 	C 	0.85540 0.67784 0.91109 -0.03000
C 	C 	0.77369 0.58216 0.92990 0.00100
C 	C 	0.72746 0.53783 0.88948 -0.03800
C 	C 	0.70987 0.49634 0.89780 -0.04400
C 	C 	0.73837 0.49894 0.94655 0.01500
C 	C 	0.78380 0.54384 0.98766 -0.04400
C 	C 	0.80143 0.58537 0.97940 -0.03700
C 	C 	0.72310 0.45412 0.95243 -0.01200
C 	C 	0.70980 0.41626 0.95672 -0.03300
C 	C 	0.85773 0.74996 0.89828 0.05100
C 	C 	0.87757 0.78707 0.89490 -0.12500
H 	H 	0.77646 0.71322 0.89458 0.03500
H 	H 	0.74068 0.64128 0.90941 0.03800
H 	H 	0.85182 0.61617 0.92658 0.03800
H 	H 	0.88765 0.68820 0.91203 0.03400
H 	H 	0.70574 0.53507 0.85120 0.03800
H 	H 	0.67469 0.46174 0.86587 0.04100
H 	H 	0.80598 0.54614 0.02549 0.03500
H 	H 	0.83697 0.61965 0.01102 0.03100
C 	C 	0.29914 0.12620 0.94239 -0.01100
C 	C 	0.30036 0.13073 0.90005 -0.02900
C 	C 	0.34413 0.15119 0.90516 -0.04400
C 	C 	0.38700 0.16724 0.95270 0.01100
C 	C 	0.38557 0.16178 0.99470 -0.04200
C 	C 	0.34171 0.14127 0.98952 -0.02700
C 	C 	0.43345 0.19073 0.95881 0.00400
C 	C 	0.44011 0.16253 0.92555 -0.03700
C 	C 	0.48283 0.18575 0.92876 -0.04300
C 	C 	0.51914 0.23727 0.96521 0.01600
C 	C 	0.51302 0.26528 0.99922 -0.04100
C 	C 	0.47028 0.24208 0.99606 -0.03500
C 	C 	0.56179 0.26169 0.96620 -0.01000
C 	C 	0.59713 0.28118 0.96618 -0.03200
C 	C 	0.25493 0.10924 0.93867 0.05100
C 	C 	0.21745 0.09494 0.93454 -0.10900
H 	H 	0.26756 0.11920 0.86352 0.04000
H 	H 	0.34490 0.15529 0.87254 0.04100
H 	H 	0.41844 0.17377 0.03142 0.03900
H 	H 	0.34100 0.13783 0.02240 0.03600
H 	H 	0.41196 0.12282 0.89682 0.04100
H 	H 	0.48742 0.16386 0.90245 0.04200
H 	H 	0.54101 0.30512 0.02755 0.03800
H 	H 	0.46541 0.26418 0.02182 0.03600
