data_crystal

_cell_length_a 20.29669
_cell_length_b 20.44345
_cell_length_c 35.17182
_cell_angle_alpha 95.41662
_cell_angle_beta  95.41737
_cell_angle_gamma 126.09167

_symmetry_space_group_name_	'P 1'
_symmetry_space_group_name_H-M	'P 1'

loop_
_symmetry_equiv_pos_as_xyz
  x,y,z

loop_
_atom_site_label
_atom_site_type_symbol
_atom_site_fract_x
_atom_site_fract_y
_atom_site_fract_z
_atom_site_charge
N 	N 	0.06939 0.10757 0.00142 -0.12800
C 	C 	0.10437 0.06767 0.99943 0.13500
N 	N 	0.05637 0.98476 0.99605 -0.12600
N 	N 	0.98648 0.92336 0.46362 -0.13100
C 	C 	0.02807 0.00398 0.46159 0.14000
N 	N 	0.98702 0.03731 0.45891 -0.13700
Cu	Cu	0.65540 0.24656 0.00954 0.92900
Cu	Cu	0.70387 0.23923 0.92376 0.87900
Cu	Cu	0.69454 0.37128 0.95669 0.90200
Cu	Cu	0.67204 0.40746 0.03814 0.90500
C 	C 	0.67252 0.29942 0.09068 0.31000
O 	O 	0.53633 0.20049 0.01352 -0.35100
C 	C 	0.65412 0.30711 0.87153 0.30600
O 	O 	0.72578 0.37440 0.01047 -0.63600
O 	O 	0.63515 0.25038 0.95393 -0.64000
O 	O 	0.70648 0.18768 0.00540 -0.35900
O 	O 	0.68263 0.36857 0.08692 -0.36100
O 	O 	0.75970 0.48978 0.96267 -0.36300
C 	C 	0.76040 0.53778 0.99081 0.31300
C 	C 	0.50650 0.24069 0.00515 0.31200
O 	O 	0.55572 0.31581 0.99885 -0.38400
O 	O 	0.70941 0.50729 0.01567 -0.37800
O 	O 	0.68946 0.26332 0.06442 -0.35600
C 	C 	0.77277 0.21782 0.98957 0.30900
O 	O 	0.67821 0.36837 0.89999 -0.35800
O 	O 	0.64524 0.24037 0.87852 -0.40500
H 	H 	0.57600 0.21690 0.94133 0.18100
Cu	Cu	0.73175 0.33058 0.45463 0.92900
Cu	Cu	0.72093 0.25843 0.53506 0.88100
Cu	Cu	0.60237 0.28865 0.50544 0.90100
Cu	Cu	0.57850 0.32923 0.42846 0.90200
C 	C 	0.67397 0.31283 0.37353 0.31000
C 	C 	0.65001 0.29996 0.58937 0.30500
O 	O 	0.60267 0.26423 0.45125 -0.63700
O 	O 	0.72304 0.34011 0.51015 -0.63700
O 	O 	0.63968 0.34819 0.38450 -0.37500
O 	O 	0.48350 0.23058 0.49836 -0.36900
C 	C 	0.43686 0.22884 0.46883 0.31500
C 	C 	0.74323 0.48228 0.46966 0.30300
O 	O 	0.66668 0.43194 0.47485 -0.38900
O 	O 	0.46914 0.27984 0.44416 -0.38000
O 	O 	0.71880 0.30404 0.39926 -0.34100
O 	O 	0.60371 0.30389 0.56188 -0.36400
O 	O 	0.71640 0.30653 0.58293 -0.39400
H 	H 	0.56604 0.20487 0.43950 0.18000
C 	C 	0.62359 0.24573 0.68939 -0.06900
C 	C 	0.61882 0.30610 0.70813 0.02600
C 	C 	0.61820 0.36104 0.68690 0.05900
C 	C 	0.62568 0.35695 0.64761 -0.00100
C 	C 	0.63298 0.29804 0.62925 -0.08600
C 	C 	0.62951 0.24067 0.65004 0.11700
C 	C 	0.62023 0.31476 0.75056 0.02900
N 	N 	0.61071 0.42142 0.70521 -0.01600
H 	H 	0.62717 0.40045 0.63160 0.06700
N 	N 	0.63131 0.17667 0.63113 -0.02600
H 	H 	0.62308 0.20280 0.70550 0.08300
C 	C 	0.55475 0.25073 0.76591 0.05600
C 	C 	0.56505 0.25066 0.80590 -0.00200
C 	C 	0.63944 0.31467 0.83086 -0.09000
C 	C 	0.70246 0.38170 0.81586 0.12000
C 	C 	0.69234 0.38151 0.77586 -0.07200
N 	N 	0.47846 0.18472 0.74081 -0.01600
H 	H 	0.51558 0.20011 0.81747 0.06200
O 	O 	0.68519 0.16646 0.64593 -0.10500
O 	O 	0.57543 0.12506 0.60071 -0.11600
O 	O 	0.66450 0.49865 0.70332 -0.09200
O 	O 	0.54746 0.39865 0.72177 -0.08000
O 	O 	0.44742 0.10864 0.74264 -0.09500
O 	O 	0.43810 0.20066 0.71742 -0.08100
C 	C 	0.66146 0.22112 0.27179 -0.07000
C 	C 	0.68263 0.28579 0.25214 0.02800
C 	C 	0.70682 0.36124 0.27306 0.05900
C 	C 	0.70576 0.36993 0.31290 -0.00200
C 	C 	0.68114 0.30419 0.33231 -0.08500
C 	C 	0.66034 0.22980 0.31177 0.11900
C 	C 	0.67169 0.27198 0.20923 0.02500
H 	H 	0.72376 0.42789 0.32875 0.06900
N 	N 	0.63559 0.16214 0.33106 -0.02300
H 	H 	0.64320 0.16315 0.25581 0.08400
C 	C 	0.73262 0.27705 0.19052 0.06200
C 	C 	0.72871 0.27885 0.15061 -0.00100
C 	C 	0.66483 0.27626 0.12935 -0.08200
C 	C 	0.60015 0.26383 0.14741 0.12000
C 	C 	0.60402 0.26196 0.18722 -0.06900
N 	N 	0.79966 0.28259 0.21210 -0.01700
H 	H 	0.77783 0.28684 0.13670 0.06900
N 	N 	0.53087 0.25405 0.12542 -0.02700
H 	H 	0.55563 0.25528 0.20131 0.08200
O 	O 	0.67579 0.13082 0.33072 -0.08400
O 	O 	0.56911 0.12778 0.34630 -0.10700
O 	O 	0.48467 0.19417 0.09570 -0.09500
O 	O 	0.51066 0.30147 0.13668 -0.09300
C 	C 	0.11583 0.05428 0.46325 -0.01500
C 	C 	0.18960 0.09512 0.46477 0.00600
C 	C 	0.27582 0.14182 0.46649 0.06900
C 	C 	0.34944 0.18143 0.46775 -0.09300
C 	C 	0.42020 0.20370 0.00397 -0.09000
C 	C 	0.34851 0.17586 0.00310 0.07100
C 	C 	0.26457 0.14341 0.00205 0.00600
C 	C 	0.19205 0.11230 0.00100 -0.01200
C 	C 	0.98608 0.06358 0.00021 0.13200
C 	C 	0.97371 0.94118 0.99473 0.14000
N 	N 	0.93849 0.98044 0.99691 -0.12900
C 	C 	0.90411 0.99008 0.45835 0.14900
N 	N 	0.86200 0.90876 0.46056 -0.13100
C 	C 	0.90370 0.87551 0.46305 0.14000
O 	O 	0.78886 0.26720 0.96481 -0.42800
H 	H 	0.78643 0.40770 0.01979 0.17600
O 	O 	0.78058 0.45205 0.45626 -0.34800
O 	O 	0.78668 0.27479 0.45613 -0.35300
O 	O 	0.69521 0.18290 0.49018 -0.42300
C 	C 	0.75019 0.20373 0.46787 0.31200
H 	H 	0.75967 0.39663 0.52577 0.18300
N 	N 	0.77857 0.44799 0.84083 -0.02200
H 	H 	0.74249 0.43127 0.76424 0.08500
O 	O 	0.82968 0.43522 0.85668 -0.11000
O 	O 	0.80017 0.52246 0.84485 -0.08300
N 	N 	0.73071 0.42864 0.25367 -0.01600
O 	O 	0.69308 0.46248 0.25596 -0.09200
O 	O 	0.79314 0.45922 0.23564 -0.08200
O 	O 	0.81022 0.22667 0.20279 -0.08900
O 	O 	0.85399 0.34686 0.23886 -0.08000
C 	C 	0.77754 0.56711 0.46934 -0.09400
C 	C 	0.80288 0.63717 0.46837 0.06500
C 	C 	0.83240 0.71907 0.46671 0.00600
C 	C 	0.86119 0.78978 0.46506 -0.01400
C 	C 	0.86266 0.02805 0.45775 -0.02200
C 	C 	0.83386 0.06570 0.45795 0.00900
C 	C 	0.80432 0.11367 0.45940 0.06600
C 	C 	0.78019 0.15543 0.46215 -0.09600
C 	C 	0.80502 0.62346 0.98965 -0.08900
C 	C 	0.84187 0.69583 0.98969 0.07100
C 	C 	0.88543 0.78087 0.99074 0.00700
C 	C 	0.92432 0.85393 0.99231 -0.01400
C 	C 	0.94714 0.10391 0.00056 -0.01400
C 	C 	0.90991 0.13311 0.00003 0.00100
C 	C 	0.86291 0.16372 0.99816 0.06600
C 	C 	0.82164 0.18843 0.99518 -0.10300
