data_crystal

_cell_length_a 20.99203
_cell_length_b 19.63816
_cell_length_c 49.50104
_cell_angle_alpha 90.60944
_cell_angle_beta  90.72337
_cell_angle_gamma 113.96556

_symmetry_space_group_name_	'P 1'
_symmetry_space_group_name_H-M	'P 1'

loop_
_symmetry_equiv_pos_as_xyz
  x,y,z

loop_
_atom_site_label
_atom_site_type_symbol
_atom_site_fract_x
_atom_site_fract_y
_atom_site_fract_z
_atom_site_charge
Ni	Ni	0.20888 0.67301 0.41112 1.10300
O 	O 	0.29468 0.70554 0.38751 -0.70900
Ni	Ni	0.36352 0.69228 0.41277 1.10500
O 	O 	0.15117 0.69298 0.38094 -0.34000
O 	O 	0.23160 0.81253 0.37737 -0.39200
O 	O 	0.18024 0.56688 0.39552 -0.32700
Ni	Ni	0.32980 0.81027 0.37799 1.07300
O 	O 	0.44202 0.71988 0.38542 -0.33500
H 	H 	0.28728 0.67403 0.37104 0.15700
C 	C 	0.17610 0.75617 0.36797 0.29500
C 	C 	0.45625 0.77846 0.36989 0.30500
C 	C 	0.22406 0.53435 0.39391 0.29200
O 	O 	0.43271 0.82961 0.37603 -0.36500
Ni	Ni	0.40869 0.75260 0.01573 1.10800
Ni	Ni	0.24793 0.70008 0.02183 1.11100
O 	O 	0.37972 0.58777 0.00428 -0.36000
O 	O 	0.46290 0.91448 0.04190 -0.37800
O 	O 	0.23057 0.53137 0.01934 -0.36400
O 	O 	0.15659 0.62031 0.00598 -0.32200
O 	O 	0.34011 0.77220 0.03896 -0.69600
O 	O 	0.49481 0.81588 0.03805 -0.32500
O 	O 	0.19161 0.73203 0.04881 -0.33500
O 	O 	0.25083 0.85444 0.03801 -0.37200
Ni	Ni	0.35674 0.87705 0.03913 1.07600
H 	H 	0.34514 0.75785 0.05772 0.15600
C 	C 	0.23952 0.55695 0.04433 0.32500
C 	C 	0.20591 0.80295 0.05318 0.30200
C 	C 	0.49453 0.87378 0.05179 0.31000
O 	O 	0.25608 0.62752 0.04954 -0.39300
C 	C 	0.94333 0.09370 0.19259 -0.04800
H 	H 	0.93482 0.09450 0.17038 0.05800
C 	C 	0.96289 0.09131 0.24567 -0.03300
H 	H 	0.97141 0.09081 0.26788 0.05600
C 	C 	0.97133 0.03674 0.20199 0.00600
C 	C 	0.99517 0.16737 0.20500 0.02700
C 	C 	0.87762 0.07493 0.20943 0.01000
C 	C 	0.98189 0.03588 0.22922 0.00200
C 	C 	0.00521 0.16627 0.23231 -0.01100
C 	C 	0.88711 0.07224 0.23677 0.00600
C 	C 	0.17336 0.41818 0.10854 0.00200
C 	C 	0.14971 0.44440 0.13109 -0.02100
C 	C 	0.12071 0.39730 0.15278 -0.04100
C 	C 	0.11537 0.32381 0.15205 0.02900
C 	C 	0.14126 0.29843 0.12990 -0.03800
C 	C 	0.17015 0.34550 0.10819 -0.01900
C 	C 	0.19776 0.46481 0.08529 0.06500
C 	C 	0.21723 0.50550 0.06622 -0.08200
C 	C 	0.07586 0.27189 0.17222 -0.00800
C 	C 	0.04054 0.22606 0.18798 -0.01100
H 	H 	0.15236 0.50068 0.13157 0.05000
H 	H 	0.10071 0.41732 0.16977 0.05200
H 	H 	0.13717 0.24162 0.12914 0.05600
H 	H 	0.18863 0.32492 0.09090 0.06300
C 	C 	0.60282 0.93867 0.12282 -0.00300
C 	C 	0.62091 0.88834 0.13747 -0.02000
C 	C 	0.66612 0.91343 0.15982 -0.04300
C 	C 	0.69367 0.98898 0.16744 0.03200
C 	C 	0.67085 0.03786 0.15415 -0.04200
C 	C 	0.62561 0.01278 0.13181 -0.01900
C 	C 	0.56535 0.91577 0.09760 0.06200
C 	C 	0.53385 0.89674 0.07647 -0.09100
C 	C 	0.75536 0.01876 0.18416 -0.01300
C 	C 	0.80976 0.04420 0.19656 0.00400
H 	H 	0.60231 0.83057 0.13090 0.05300
H 	H 	0.68305 0.87514 0.17016 0.05500
H 	H 	0.69146 0.09625 0.16008 0.05900
H 	H 	0.61067 0.05165 0.12084 0.05500
C 	C 	0.03586 0.92273 0.14723 0.04200
C 	C 	0.07763 0.88602 0.15539 -0.04800
C 	C 	0.10777 0.85662 0.13603 -0.02000
C 	C 	0.09625 0.86390 0.10847 -0.00200
C 	C 	0.05243 0.89820 0.10034 -0.01100
C 	C 	0.02227 0.92757 0.11970 -0.05200
C 	C 	0.01207 0.96096 0.16688 -0.03000
C 	C 	0.99314 0.99462 0.18306 0.01600
C 	C 	0.13352 0.84139 0.08865 0.06300
C 	C 	0.16599 0.82352 0.07227 -0.08200
H 	H 	0.08818 0.88193 0.17666 0.05000
H 	H 	0.14143 0.82990 0.14244 0.04300
H 	H 	0.04313 0.90377 0.07906 0.06800
H 	H 	0.98986 0.95575 0.11327 0.07100
C 	C 	0.62007 0.85457 0.31872 0.00800
C 	C 	0.68807 0.89112 0.32926 -0.01500
C 	C 	0.74223 0.93446 0.31250 -0.03500
C 	C 	0.72863 0.94158 0.28512 0.03400
C 	C 	0.66117 0.90298 0.27435 -0.04100
C 	C 	0.60700 0.85959 0.29111 -0.02400
C 	C 	0.56254 0.82206 0.33678 0.06400
C 	C 	0.51406 0.79909 0.35194 -0.05800
C 	C 	0.78382 0.98878 0.26811 -0.01200
C 	C 	0.83038 0.02760 0.25389 0.00700
H 	H 	0.69860 0.88787 0.35059 0.08200
H 	H 	0.79443 0.96348 0.32090 0.06600
H 	H 	0.65039 0.90756 0.25313 0.05000
H 	H 	0.55455 0.83184 0.28281 0.04400
C 	C 	0.15331 0.32584 0.27906 0.03500
C 	C 	0.18009 0.30090 0.30110 -0.03900
C 	C 	0.20926 0.34823 0.32338 -0.01500
C 	C 	0.21208 0.42072 0.32359 0.00300
C 	C 	0.19251 0.44811 0.30031 -0.01900
C 	C 	0.16299 0.40066 0.27810 -0.04200
C 	C 	0.10404 0.27222 0.26084 -0.01600
C 	C 	0.06011 0.22530 0.24702 0.01000
C 	C 	0.22095 0.46075 0.34880 0.06400
C 	C 	0.22429 0.49403 0.36969 -0.07200
H 	H 	0.17385 0.24339 0.30181 0.05900
H 	H 	0.22535 0.32698 0.34112 0.06800
H 	H 	0.19565 0.50457 0.30014 0.04500
H 	H 	0.14346 0.42074 0.26094 0.05200
C 	C 	0.02155 0.87664 0.26926 0.02100
C 	C 	0.08005 0.86230 0.26335 -0.03800
C 	C 	0.10427 0.82478 0.28191 -0.03000
C 	C 	0.07011 0.80168 0.30645 0.00900
C 	C 	0.00822 0.81038 0.31128 -0.04200
C 	C 	0.98393 0.84775 0.29269 -0.01600
C 	C 	0.00716 0.93060 0.25394 -0.02500
C 	C 	0.99576 0.97782 0.24214 0.01300
C 	C 	0.10469 0.78163 0.32819 0.05400
C 	C 	0.13600 0.76836 0.34646 -0.08600
H 	H 	0.10889 0.88364 0.24509 0.04600
H 	H 	0.15175 0.81746 0.27789 0.04200
H 	H 	0.98109 0.79191 0.33008 0.07700
H 	H 	0.93811 0.85788 0.29724 0.05500
F 	F 	0.54126 0.89660 0.41281 -0.43600
F 	F 	0.94970 0.35160 0.41518 -0.42400
F 	F 	0.04166 0.45470 0.40466 -0.42900
F 	F 	0.48650 0.42315 0.40796 -0.43200
C 	C 	0.63199 0.54086 0.00436 0.77500
H 	H 	0.55523 0.62162 0.01548 0.08700
F 	F 	0.63684 0.57262 0.02983 -0.43100
F 	F 	0.62140 0.46715 0.00761 -0.45400
O 	O 	0.34162 0.84603 0.41726 -0.39500
O 	O 	0.25826 0.52808 0.41555 -0.39300
C 	C 	0.00527 0.41255 0.42603 0.76800
H 	H 	0.42232 0.48977 0.42684 0.07700
O 	O 	0.28020 0.67003 0.43817 -0.69500
O 	O 	0.12445 0.63668 0.43541 -0.36000
O 	O 	0.42183 0.65347 0.43688 -0.29000
C 	C 	0.39572 0.85009 0.43180 0.28900
O 	O 	0.41619 0.79505 0.43138 -0.28100
C 	C 	0.51063 0.42040 0.43391 0.77700
F 	F 	0.58052 0.43388 0.43240 -0.44400
O 	O 	0.13717 0.52887 0.44484 -0.32800
C 	C 	0.09942 0.56905 0.44515 0.29700
C 	C 	0.55313 0.91479 0.43996 0.78000
F 	F 	0.62347 0.95932 0.44354 -0.42300
C 	C 	0.98019 0.45846 0.44451 -0.06900
F 	F 	0.04750 0.38672 0.44047 -0.43800
C 	C 	0.45332 0.50811 0.44529 0.05500
F 	F 	0.47415 0.34970 0.44375 -0.48600
Ni	Ni	0.24334 0.56787 0.45199 1.08400
H 	H 	0.28916 0.70782 0.45276 0.18800
C 	C 	0.39668 0.59539 0.45274 0.28400
C 	C 	0.43366 0.91743 0.44889 0.01000
C 	C 	0.50784 0.95412 0.44928 -0.08600
F 	F 	0.53862 0.85101 0.45474 -0.38800
C 	C 	0.91147 0.42640 0.45424 0.04000
C 	C 	0.02375 0.53354 0.45196 -0.01700
H 	H 	0.88106 0.36690 0.45194 0.09200
C 	C 	0.50108 0.47741 0.45248 -0.09300
C 	C 	0.53990 0.02764 0.45947 0.05300
C 	C 	0.39474 0.95102 0.46205 0.05400
H 	H 	0.59593 0.05804 0.45848 0.08500
H 	H 	0.33855 0.92155 0.46268 0.08400
F 	F 	0.82663 0.58122 0.45824 -0.40900
C 	C 	0.44503 0.56226 0.46179 0.01400
O 	O 	0.53762 0.19520 0.46694 -0.33700
O 	O 	0.34134 0.58394 0.46740 -0.32800
C 	C 	0.50042 0.06247 0.47115 0.01200
C 	C 	0.88218 0.47033 0.46742 0.02100
C 	C 	0.92127 0.54859 0.46914 -0.10600
C 	C 	0.99336 0.57785 0.46412 0.07500
H 	H 	0.02553 0.63583 0.46892 0.07500
F 	F 	0.92959 0.67397 0.46807 -0.42200
H 	H 	0.66350 0.31950 0.47638 0.19000
C 	C 	0.42750 0.02292 0.47362 -0.09100
F 	F 	0.38959 0.12136 0.47654 -0.44000
C 	C 	0.88618 0.60137 0.47425 0.78800
C 	C 	0.53712 0.49745 0.47766 0.01900
Ni	Ni	0.53857 0.29077 0.48318 1.12100
C 	C 	0.81954 0.43241 0.48437 0.28300
C 	C 	0.57166 0.45197 0.48921 0.28300
C 	C 	0.53653 0.13909 0.48180 0.29900
O 	O 	0.76914 0.45641 0.48520 -0.28000
C 	C 	0.38485 0.05671 0.48891 0.78100
C 	C 	0.48641 0.58782 0.48572 -0.08000
F 	F 	0.48670 0.70934 0.48819 -0.39400
O 	O 	0.63741 0.32254 0.49254 -0.69400
O 	O 	0.64027 0.47816 0.49079 -0.30000
F 	F 	0.31508 0.00864 0.48970 -0.43400
C 	C 	0.53082 0.55349 0.49373 0.05500
O 	O 	0.81431 0.37369 0.49796 -0.39100
O 	O 	0.57157 0.14999 0.50510 -0.33300
O 	O 	0.53341 0.38645 0.49910 -0.36200
F 	F 	0.86901 0.59986 0.50111 -0.43400
C 	C 	0.48065 0.64858 0.50350 0.77900
Ni	Ni	0.68799 0.42232 0.51265 1.10600
H 	H 	0.55859 0.56831 0.51297 0.08800
Ni	Ni	0.64295 0.25092 0.52021 1.10300
O 	O 	0.48451 0.23057 0.51526 -0.31600
F 	F 	0.40980 0.07292 0.51524 -0.43700
F 	F 	0.41688 0.62121 0.51607 -0.43600
F 	F 	0.53264 0.67326 0.52328 -0.42300
O 	O 	0.70692 0.35157 0.53705 -0.69800
O 	O 	0.78827 0.26123 0.53863 -0.39200
Ni	Ni	0.80583 0.37341 0.53879 1.07300
O 	O 	0.74251 0.51614 0.53498 -0.32700
C 	C 	0.50653 0.24207 0.54048 0.32100
O 	O 	0.83682 0.48635 0.54068 -0.37400
O 	O 	0.67382 0.19467 0.54863 -0.34700
O 	O 	0.57179 0.25782 0.54678 -0.38300
C 	C 	0.79607 0.51793 0.54969 0.32000
H 	H 	0.69169 0.35718 0.55548 0.15600
C 	C 	0.74042 0.21291 0.55377 0.29600
C 	C 	0.45618 0.21970 0.56159 -0.05300
C 	C 	0.76089 0.17382 0.57397 -0.09200
H 	H 	0.27516 0.15091 0.57481 0.07300
C 	C 	0.80947 0.55260 0.57591 -0.10000
H 	H 	0.81911 0.02982 0.58396 0.06700
C 	C 	0.41445 0.19941 0.57951 0.06900
C 	C 	0.78007 0.14300 0.59111 0.06000
C 	C 	0.29337 0.14829 0.59520 -0.01600
C 	C 	0.82727 0.05231 0.60442 -0.01600
C 	C 	0.36492 0.17364 0.60098 0.00900
C 	C 	0.82184 0.57978 0.59828 0.06200
C 	C 	0.80550 0.10860 0.61159 -0.00200
H 	H 	0.88099 0.98530 0.61745 0.06200
C 	C 	0.24501 0.11813 0.61566 -0.03700
H 	H 	0.18974 0.09777 0.61095 0.05900
C 	C 	0.86236 0.02720 0.62336 -0.04200
C 	C 	0.83891 0.61215 0.62495 -0.00700
H 	H 	0.76433 0.66211 0.62362 0.05700
C 	C 	0.38795 0.16992 0.62742 -0.02200
H 	H 	0.44319 0.18936 0.63204 0.05000
C 	C 	0.80741 0.65790 0.63470 -0.01800
H 	H 	0.91669 0.56867 0.63275 0.04300
C 	C 	0.81600 0.13715 0.63812 -0.02200
H 	H 	0.79909 0.18053 0.64382 0.04200
C 	C 	0.26797 0.11310 0.64199 0.03200
C 	C 	0.89317 0.60537 0.63984 -0.02000
C 	C 	0.87584 0.05834 0.64951 0.03500
C 	C 	0.85114 0.11206 0.65706 -0.04500
C 	C 	0.33956 0.13972 0.64789 -0.04000
H 	H 	0.03903 0.94938 0.66740 0.05100
C 	C 	0.92031 0.04026 0.66769 -0.01900
C 	C 	0.21789 0.07795 0.66263 -0.01400
C 	C 	0.83477 0.70247 0.65775 -0.04400
C 	C 	0.92069 0.65017 0.66282 -0.04500
H 	H 	0.81324 0.74162 0.66411 0.05500
H 	H 	0.86102 0.13603 0.67731 0.05000
H 	H 	0.35771 0.13617 0.66820 0.05100
C 	C 	0.89428 0.70213 0.67084 0.03400
H 	H 	0.96596 0.64861 0.67310 0.05500
C 	C 	0.95877 0.02574 0.68250 0.01000
C 	C 	0.17473 0.04761 0.67939 0.00200
C 	C 	0.93777 0.76620 0.68664 -0.01900
C 	C 	0.04571 0.96335 0.68939 -0.04000
C 	C 	0.97567 0.82344 0.69766 0.01200
C 	C 	0.00577 0.00837 0.69974 -0.00200
C 	C 	0.02165 0.89577 0.70805 -0.00000
C 	C 	0.12105 0.01017 0.69871 0.00600
C 	C 	0.01419 0.02552 0.72671 -0.00000
C 	C 	0.12926 0.02721 0.72574 0.00500
C 	C 	0.03001 0.91289 0.73512 0.00200
C 	C 	0.97776 0.06368 0.74044 0.00900
C 	C 	0.19224 0.08298 0.73735 0.00300
C 	C 	0.06190 0.99659 0.74198 -0.03900
C 	C 	0.94813 0.09508 0.75266 -0.01600
C 	C 	0.24251 0.12824 0.74891 -0.01600
H 	H 	0.37367 0.13706 0.75056 0.05100
H 	H 	0.81005 0.04889 0.75878 0.05200
C 	C 	0.99629 0.85869 0.75566 0.01100
H 	H 	0.06892 0.01062 0.76396 0.05300
C 	C 	0.91354 0.13171 0.76818 0.03000
C 	C 	0.84089 0.09855 0.77054 -0.04200
C 	C 	0.29964 0.17910 0.76496 0.03200
C 	C 	0.36247 0.17010 0.76595 -0.04500
C 	C 	0.96879 0.81576 0.77349 -0.01200
C 	C 	0.95300 0.19609 0.78337 -0.03100
C 	C 	0.80816 0.12767 0.78894 -0.02300
H 	H 	0.00920 0.22211 0.78159 0.05000
H 	H 	0.75217 0.10049 0.79125 0.04700
C 	C 	0.28670 0.22380 0.78454 -0.04100
H 	H 	0.23894 0.23250 0.78359 0.05700
H 	H 	0.83290 0.72535 0.77751 0.05300
C 	C 	0.40746 0.19703 0.78829 -0.02100
H 	H 	0.45346 0.18515 0.78990 0.03900
C 	C 	0.93649 0.76625 0.79534 0.03100
C 	C 	0.86441 0.72310 0.79471 -0.03900
C 	C 	0.92028 0.22521 0.80177 -0.02200
C 	C 	0.84800 0.19006 0.80502 0.00200
C 	C 	0.38966 0.23306 0.80961 -0.00500
C 	C 	0.33146 0.25034 0.80696 -0.01600
H 	H 	0.95133 0.27374 0.81403 0.06500
C 	C 	0.83279 0.67681 0.81631 -0.02100
C 	C 	0.97671 0.76340 0.81779 -0.02700
H 	H 	0.77717 0.64297 0.81553 0.05200
H 	H 	0.03238 0.79697 0.81852 0.05800
C 	C 	0.81560 0.21422 0.82625 0.06000
H 	H 	0.31828 0.27981 0.82309 0.06500
C 	C 	0.78843 0.23350 0.84430 -0.08100
C 	C 	0.42296 0.23950 0.83556 0.06500
C 	C 	0.87308 0.67354 0.83868 0.00600
C 	C 	0.94509 0.71708 0.83939 -0.01900
C 	C 	0.45072 0.24170 0.85713 -0.09900
H 	H 	0.97668 0.71453 0.85652 0.07700
C 	C 	0.75578 0.25552 0.86587 0.29700
C 	C 	0.84141 0.62127 0.85986 0.07000
O 	O 	0.78387 0.32486 0.87492 -0.33900
O 	O 	0.70688 0.20378 0.87961 -0.37700
Ni	Ni	0.60857 0.20387 0.88458 1.07500
H 	H 	0.64215 0.33548 0.87475 0.15800
C 	C 	0.48551 0.24219 0.88216 0.32100
C 	C 	0.81464 0.57548 0.87694 -0.07800
O 	O 	0.64564 0.31049 0.89162 -0.69700
O 	O 	0.74936 0.44925 0.88721 -0.39400
C 	C 	0.78236 0.51773 0.89615 0.32900
O 	O 	0.50655 0.18844 0.88704 -0.36900
Ni	Ni	0.74436 0.35774 0.90784 1.10900
O 	O 	0.49922 0.29774 0.89960 -0.32900
F 	F 	0.40418 0.53543 0.91344 -0.43000
Ni	Ni	0.59148 0.33485 0.92041 1.10700
O 	O 	0.84445 0.41408 0.92302 -0.31900
O 	O 	0.61376 0.18145 0.92429 -0.38200
O 	O 	0.79380 0.53298 0.92212 -0.36500
F 	F 	0.92545 0.33100 0.93226 -0.42800
F 	F 	0.41266 0.15322 0.93098 -0.43000
H 	H 	0.47915 0.47801 0.92905 0.08700
C 	C 	0.40437 0.56082 0.93966 0.77700
F 	F 	0.41203 0.63411 0.93843 -0.45000
O 	O 	0.68733 0.36709 0.93866 -0.69500
O 	O 	0.65115 0.49810 0.94166 -0.35100
C 	C 	0.56488 0.18009 0.94068 0.28700
C 	C 	0.86157 0.44317 0.94777 0.30600
O 	O 	0.55122 0.23972 0.94382 -0.28400
F 	F 	0.03056 0.70992 0.95066 -0.43000
F 	F 	0.13584 0.70684 0.95184 -0.44300
F 	F 	0.54010 0.88208 0.95358 -0.41200
C 	C 	0.49587 0.50972 0.94780 0.06200
F 	F 	0.34094 0.51822 0.95099 -0.49600
O 	O 	0.55536 0.38987 0.94778 -0.31300
Ni	Ni	0.73307 0.46961 0.95252 1.10800
H 	H 	0.68657 0.33176 0.95290 0.19700
C 	C 	0.58856 0.46247 0.95157 0.28600
O 	O 	0.20087 0.58359 0.96852 -0.33800
C 	C 	0.96690 0.55806 0.95729 0.06800
C 	C 	0.93571 0.48004 0.95557 0.00300
C 	C 	0.97591 0.43840 0.96061 -0.07600
C 	C 	0.04724 0.47637 0.96719 0.04300
C 	C 	0.03839 0.59595 0.96340 -0.10100
C 	C 	0.07164 0.68060 0.96414 0.78100
H 	H 	0.93532 0.58921 0.95365 0.08400
C 	C 	0.94301 0.35379 0.95886 0.77700
C 	C 	0.56376 0.06840 0.96409 0.04600
C 	C 	0.52711 0.11133 0.95644 0.01200
C 	C 	0.45335 0.07992 0.95833 -0.09500
C 	C 	0.41798 0.00321 0.96339 0.04300
C 	C 	0.57007 0.94379 0.97054 0.78100
H 	H 	0.62025 0.09395 0.96426 0.09800
H 	H 	0.36150 0.97780 0.96298 0.09900
C 	C 	0.41242 0.12829 0.95696 0.78200
F 	F 	0.63800 0.98248 0.96230 -0.42000
C 	C 	0.46282 0.55535 0.95665 -0.09300
O 	O 	0.81451 0.44651 0.96466 -0.35000
H 	H 	0.31353 0.72052 0.97865 0.20800
C 	C 	0.14873 0.59083 0.98128 0.29800
C 	C 	0.07789 0.55434 0.96964 0.02000
H 	H 	0.07868 0.44534 0.97129 0.09300
F 	F 	0.88359 0.32611 0.97426 -0.43100
F 	F 	0.98798 0.32340 0.96827 -0.42000
C 	C 	0.45448 0.95991 0.97096 0.01400
C 	C 	0.52856 0.99163 0.96923 -0.09200
F 	F 	0.34366 0.08940 0.96418 -0.42600
C 	C 	0.55122 0.50552 0.96277 0.01600
O 	O 	0.31670 0.69439 0.99527 -0.69200
O 	O 	0.46390 0.70265 0.99538 -0.29700
O 	O 	0.43874 0.83631 0.98720 -0.27400
Ni	Ni	0.28915 0.58838 0.98723 1.11900
C 	C 	0.44074 0.62940 0.99428 0.28500
C 	C 	0.41545 0.88932 0.98582 0.28600
F 	F 	0.08042 0.70587 0.99068 -0.43900
F 	F 	0.57258 0.92148 0.99676 -0.42700
F 	F 	0.44148 0.18852 0.97462 -0.41900
C 	C 	0.48299 0.59359 0.98183 0.01600
C 	C 	0.57281 0.54553 0.98760 -0.08900
O 	O 	0.35859 0.88168 0.99839 -0.37900
C 	C 	0.53916 0.59053 0.99659 0.06100
F 	F 	0.69444 0.57806 0.99148 -0.46300
