data_crystal

_cell_length_a 27.74274
_cell_length_b 28.24311
_cell_length_c 36.88906
_cell_angle_alpha 95.54222
_cell_angle_beta  95.54248
_cell_angle_gamma 125.56461

_symmetry_space_group_name_	'P 1'
_symmetry_space_group_name_H-M	'P 1'

loop_
_symmetry_equiv_pos_as_xyz
  x,y,z

loop_
_atom_site_label
_atom_site_type_symbol
_atom_site_fract_x
_atom_site_fract_y
_atom_site_fract_z
_atom_site_charge
C 	C 	0.97396 0.03236 0.00101 0.05700
C 	C 	0.03462 0.06334 0.99738 -0.09000
C 	C 	0.06089 0.03349 0.99460 0.05600
H 	H 	0.06096 0.11018 0.99628 0.05700
C 	C 	0.93343 0.99353 0.45454 0.04900
C 	C 	0.99564 0.02700 0.45503 -0.08000
C 	C 	0.02516 0.00040 0.45755 0.04500
H 	H 	0.02108 0.07378 0.45385 0.05300
Cu	Cu	0.64758 0.25417 0.00271 0.92800
Cu	Cu	0.70172 0.25902 0.92671 0.87200
Cu	Cu	0.68397 0.34875 0.95495 0.89800
Cu	Cu	0.64363 0.36187 0.02536 0.89500
C 	C 	0.65926 0.29763 0.07918 0.30400
O 	O 	0.55849 0.21737 0.99895 -0.36100
C 	C 	0.66976 0.30889 0.87462 0.30700
O 	O 	0.69485 0.34633 0.00666 -0.64000
O 	O 	0.64356 0.26164 0.94984 -0.64000
O 	O 	0.68681 0.21324 0.00269 -0.37300
O 	O 	0.75560 0.27601 0.97013 -0.44300
O 	O 	0.63078 0.31970 0.06795 -0.38500
O 	O 	0.72755 0.43395 0.96357 -0.38100
C 	C 	0.72083 0.46490 0.98901 0.31000
C 	C 	0.53511 0.24203 0.98430 0.30300
O 	O 	0.57059 0.29723 0.98013 -0.39400
O 	O 	0.67806 0.43907 0.00893 -0.39600
O 	O 	0.66372 0.26262 0.05562 -0.35900
C 	C 	0.73860 0.23687 0.99172 0.31200
O 	O 	0.68713 0.35272 0.90194 -0.38500
O 	O 	0.66639 0.26202 0.88086 -0.42000
H 	H 	0.73737 0.37242 0.01988 0.16400
H 	H 	0.60250 0.23693 0.93447 0.17400
Cu	Cu	0.72835 0.33406 0.45393 0.92800
Cu	Cu	0.72854 0.28659 0.53171 0.87200
Cu	Cu	0.63353 0.29847 0.50280 0.89800
Cu	Cu	0.61516 0.33216 0.43091 0.89500
C 	C 	0.68302 0.31995 0.37700 0.30600
O 	O 	0.76296 0.42087 0.45570 -0.36000
C 	C 	0.67751 0.31798 0.58339 0.30700
O 	O 	0.63458 0.28528 0.45099 -0.64000
O 	O 	0.72247 0.34064 0.50702 -0.64000
O 	O 	0.77119 0.29639 0.45471 -0.37000
O 	O 	0.70967 0.23121 0.48932 -0.44300
O 	O 	0.65715 0.34467 0.38780 -0.38500
O 	O 	0.54653 0.25297 0.49516 -0.38100
C 	C 	0.51287 0.25602 0.46904 0.30800
C 	C 	0.73628 0.44284 0.46933 0.30100
O 	O 	0.68083 0.40691 0.47464 -0.39400
O 	O 	0.53686 0.29684 0.44812 -0.39400
O 	O 	0.71812 0.31553 0.40106 -0.36000
C 	C 	0.74802 0.24640 0.46681 0.30800
O 	O 	0.63174 0.29863 0.55629 -0.38500
O 	O 	0.72609 0.32322 0.57691 -0.42100
H 	H 	0.60894 0.24305 0.43871 0.16500
H 	H 	0.74686 0.38157 0.52149 0.17400
C 	C 	0.65951 0.33297 0.69152 -0.00600
C 	C 	0.70935 0.37864 0.71826 -0.03500
C 	C 	0.70826 0.37727 0.75598 -0.03400
C 	C 	0.65733 0.33023 0.76712 -0.00600
C 	C 	0.60605 0.28662 0.74047 -0.03400
C 	C 	0.60713 0.28799 0.70272 -0.03400
C 	C 	0.66062 0.32261 0.80511 0.04500
C 	C 	0.66400 0.31678 0.83700 -0.10900
C 	C 	0.66509 0.32796 0.65317 0.04500
C 	C 	0.67016 0.32411 0.62113 -0.10900
H 	H 	0.74985 0.41380 0.70983 0.04000
H 	H 	0.74792 0.41140 0.77643 0.04000
H 	H 	0.56633 0.25033 0.74887 0.04000
H 	H 	0.56825 0.25274 0.68223 0.04100
C 	C 	0.69340 0.31003 0.26738 -0.00300
C 	C 	0.67879 0.25913 0.24447 -0.03400
C 	C 	0.67635 0.25678 0.20618 -0.03300
C 	C 	0.68850 0.30533 0.19076 -0.00400
C 	C 	0.70529 0.35693 0.21389 -0.03400
C 	C 	0.70773 0.35928 0.25207 -0.03400
C 	C 	0.67836 0.30049 0.15111 0.04500
C 	C 	0.67043 0.29852 0.11812 -0.10200
C 	C 	0.68937 0.31048 0.30603 0.04500
C 	C 	0.68672 0.31351 0.33852 -0.10100
H 	H 	0.66792 0.22096 0.25613 0.04100
H 	H 	0.66349 0.21676 0.18849 0.04300
H 	H 	0.71480 0.39464 0.20218 0.03900
H 	H 	0.71921 0.39883 0.26962 0.04200
C 	C 	0.80290 0.61511 0.46836 -0.01000
C 	C 	0.79229 0.62962 0.43468 -0.02800
C 	C 	0.83378 0.65891 0.50060 -0.02800
C 	C 	0.78089 0.55496 0.46987 0.04600
C 	C 	0.76184 0.50421 0.47017 -0.10900
H 	H 	0.76803 0.59589 0.40969 0.03900
H 	H 	0.84170 0.64795 0.52680 0.03800
C 	C 	0.81575 0.15146 0.45632 -0.01300
C 	C 	0.80366 0.11428 0.42324 -0.02600
C 	C 	0.82469 0.07958 0.42244 -0.04800
C 	C 	0.85776 0.08190 0.45473 0.02100
C 	C 	0.86972 0.11903 0.48774 -0.04800
C 	C 	0.84879 0.15369 0.48854 -0.02700
C 	C 	0.88264 0.04905 0.45359 -0.01300
C 	C 	0.90422 0.02227 0.45371 -0.02800
C 	C 	0.79143 0.18481 0.45794 0.04800
C 	C 	0.77213 0.21356 0.46088 -0.12000
H 	H 	0.77782 0.11201 0.39827 0.03900
H 	H 	0.81557 0.05127 0.39674 0.04400
H 	H 	0.89556 0.12136 0.51274 0.04300
H 	H 	0.85800 0.18202 0.51426 0.03300
C 	C 	0.33170 0.16086 0.46583 -0.01000
C 	C 	0.30341 0.18836 0.46065 -0.02700
C 	C 	0.24117 0.15628 0.45894 -0.04700
C 	C 	0.20701 0.09659 0.46242 0.02100
C 	C 	0.23532 0.06913 0.46770 -0.04700
C 	C 	0.29756 0.10121 0.46940 -0.02800
C 	C 	0.14296 0.06347 0.46058 -0.01300
C 	C 	0.08927 0.03510 0.45911 -0.02700
C 	C 	0.39561 0.19373 0.46711 0.04800
C 	C 	0.44917 0.22184 0.46811 -0.10800
H 	H 	0.32956 0.23448 0.45786 0.03900
H 	H 	0.21956 0.17779 0.45489 0.04300
H 	H 	0.20916 0.02299 0.47044 0.04300
H 	H 	0.31915 0.07968 0.47341 0.03800
C 	C 	0.81103 0.64235 0.99312 -0.01100
C 	C 	0.78094 0.66792 0.99867 -0.02400
C 	C 	0.87159 0.67786 0.98928 -0.02700
C 	C 	0.77982 0.57978 0.99154 0.04900
C 	C 	0.75322 0.52732 0.99027 -0.10800
H 	H 	0.73410 0.64068 0.00169 0.03800
H 	H 	0.89512 0.65837 0.98501 0.03800
C 	C 	0.83114 0.16620 0.00096 -0.01600
C 	C 	0.85676 0.16353 0.97061 -0.02600
C 	C 	0.88742 0.13804 0.97118 -0.04800
C 	C 	0.89260 0.11508 0.00211 0.02000
C 	C 	0.86768 0.11843 0.03270 -0.04800
C 	C 	0.83699 0.14396 0.03213 -0.02600
C 	C 	0.92157 0.08621 0.00187 -0.01100
C 	C 	0.94581 0.06203 0.00171 -0.03000
C 	C 	0.79787 0.19069 0.99960 0.05100
C 	C 	0.77052 0.21162 0.99695 -0.12300
H 	H 	0.85248 0.18072 0.94644 0.03300
H 	H 	0.90657 0.13563 0.94744 0.04200
H 	H 	0.87156 0.10078 0.05672 0.04400
H 	H 	0.81742 0.14599 0.05574 0.04000
C 	C 	0.35568 0.16452 0.97730 -0.01100
C 	C 	0.31468 0.10320 0.97496 -0.02700
C 	C 	0.25445 0.07780 0.97699 -0.04700
C 	C 	0.23497 0.11364 0.98142 0.02000
C 	C 	0.27556 0.17478 0.98275 -0.04700
C 	C 	0.33584 0.20020 0.98067 -0.02800
C 	C 	0.17402 0.08785 0.98614 -0.01100
C 	C 	0.12260 0.06434 0.98999 -0.03100
C 	C 	0.41882 0.19132 0.97926 0.04800
C 	C 	0.47168 0.21372 0.98090 -0.11100
H 	H 	0.32971 0.07538 0.97234 0.03900
H 	H 	0.22321 0.03045 0.97578 0.04300
H 	H 	0.26074 0.20270 0.98601 0.04300
H 	H 	0.36732 0.24767 0.98248 0.03800
C 	C 	0.02674 0.97298 0.99569 -0.09200
C 	C 	0.96625 0.94201 0.99926 0.05800
C 	C 	0.93984 0.97169 0.00208 -0.09100
H 	H 	0.04706 0.94986 0.99335 0.05600
H 	H 	0.89277 0.94755 0.00454 0.05700
C 	C 	0.99255 0.94022 0.45932 -0.08000
C 	C 	0.93038 0.90644 0.45877 0.04900
C 	C 	0.90062 0.93306 0.45639 -0.08400
H 	H 	0.01557 0.91971 0.46130 0.05300
H 	H 	0.85254 0.90710 0.45622 0.05600
C 	C 	0.81351 0.68790 0.43308 -0.04700
C 	C 	0.84543 0.73197 0.46516 0.02100
C 	C 	0.85502 0.71723 0.49900 -0.04700
C 	C 	0.87378 0.79317 0.46261 -0.01200
C 	C 	0.89774 0.84455 0.46083 -0.02800
H 	H 	0.80616 0.69896 0.40679 0.04400
H 	H 	0.87989 0.75109 0.52389 0.04300
C 	C 	0.81134 0.72881 0.00032 -0.05000
C 	C 	0.87189 0.76428 0.99644 0.02200
C 	C 	0.90196 0.73870 0.99093 -0.04700
C 	C 	0.90319 0.82680 0.99773 -0.01100
C 	C 	0.93097 0.87931 0.99865 -0.03000
H 	H 	0.78782 0.74831 0.00456 0.04400
H 	H 	0.94879 0.76592 0.98789 0.04300
