data_crystal

_cell_length_a 20.42328
_cell_length_b 21.50331
_cell_length_c 31.56807
_cell_angle_alpha 60.89522
_cell_angle_beta  118.83899
_cell_angle_gamma 133.27993

_symmetry_space_group_name_	'P 1'
_symmetry_space_group_name_H-M	'P 1'

loop_
_symmetry_equiv_pos_as_xyz
  x,y,z

loop_
_atom_site_label
_atom_site_type_symbol
_atom_site_fract_x
_atom_site_fract_y
_atom_site_fract_z
_atom_site_charge
C 	C 	0.02271 0.00377 0.26686 0.23900
Co	Co	0.01646 0.09765 0.59520 1.18400
Co	Co	0.01519 0.86101 0.13546 1.18500
O 	O 	0.01638 0.06763 0.23372 -0.33700
O 	O 	0.02209 0.95302 0.25297 -0.31100
O 	O 	0.02756 0.76627 0.09199 -0.37900
Co	Co	0.01032 0.86460 0.63083 1.18800
O 	O 	0.01656 0.76508 0.58958 -0.37200
C 	C 	0.02582 0.98663 0.31994 0.00100
O 	O 	0.01890 0.09760 0.03353 -0.42900
O 	O 	0.00318 0.00291 0.47443 -0.36500
O 	O 	0.03245 0.98977 0.61983 -0.55100
Co	Co	0.03814 0.00878 0.04467 1.17000
O 	O 	0.04107 0.92079 0.07794 -0.74100
O 	O 	0.05697 0.93289 0.57980 -0.73700
C 	C 	0.03130 0.01876 0.87844 -0.04100
C 	C 	0.03661 0.02153 0.83431 -0.03600
O 	O 	0.06373 0.12662 0.53917 -0.41000
C 	C 	0.05904 0.21100 0.13393 0.38100
Co	Co	0.06562 0.02713 0.54791 1.18200
O 	O 	0.05629 0.15014 0.69549 -0.38300
C 	C 	0.06914 0.04948 0.38460 -0.04500
F 	F 	0.07614 0.36568 0.06475 -0.36600
Co	Co	0.09696 0.89683 0.05168 1.20000
O 	O 	0.08043 0.17907 0.11978 -0.35700
H 	H 	0.07937 0.07795 0.89185 0.10900
H 	H 	0.08433 0.08416 0.81280 0.10100
C 	C 	0.08318 0.05854 0.34158 -0.00700
Co	Co	0.97569 0.06694 0.09188 1.19700
O 	O 	0.98343 0.86639 0.99304 -0.30000
O 	O 	0.97369 0.16767 0.13517 -0.33600
O 	O 	0.13364 0.85994 0.17623 -0.31900
Co	Co	0.10154 0.89628 0.55467 1.20700
C 	C 	0.11413 0.21673 0.66623 0.39400
O 	O 	0.99647 0.88105 0.49190 -0.32200
O 	O 	0.11629 0.20702 0.62786 -0.32800
O 	O 	0.11050 0.83790 0.67685 -0.31700
C 	C 	0.95650 0.95439 0.76208 0.30100
F 	F 	0.11586 0.36264 0.59289 -0.35400
F 	F 	0.18792 0.23626 0.22771 -0.38200
C 	C 	0.70817 0.29053 0.01908 0.24000
C 	C 	0.61260 0.24474 0.01158 -0.13700
C 	C 	0.57935 0.28426 0.01152 0.24000
C 	C 	0.64024 0.37069 0.01594 -0.13700
C 	C 	0.73543 0.41563 0.02571 0.22700
C 	C 	0.76978 0.37653 0.02615 -0.12600
H 	H 	0.56522 0.17671 0.00931 0.13900
H 	H 	0.61392 0.40019 0.01646 0.14100
H 	H 	0.84380 0.41053 0.03474 0.15800
C 	C 	0.72498 0.31069 0.50592 0.21700
C 	C 	0.78403 0.39029 0.52107 -0.11600
C 	C 	0.74578 0.42683 0.51979 0.22500
C 	C 	0.65020 0.38230 0.50595 -0.13200
C 	C 	0.59185 0.29995 0.49629 0.23000
C 	C 	0.62860 0.26834 0.49133 -0.12100
H 	H 	0.85789 0.42211 0.53456 0.16600
H 	H 	0.62084 0.40790 0.50768 0.14100
H 	H 	0.58210 0.20825 0.47898 0.15600
C 	C 	0.27671 0.63795 0.20569 0.22600
C 	C 	0.37314 0.68473 0.21587 -0.12300
C 	C 	0.41012 0.64864 0.21600 0.23400
C 	C 	0.35198 0.56357 0.20989 -0.12800
C 	C 	0.25616 0.51724 0.19778 0.22700
C 	C 	0.21783 0.55388 0.19608 -0.11500
H 	H 	0.41868 0.75151 0.21992 0.14500
H 	H 	0.38143 0.53638 0.21010 0.14200
H 	H 	0.14346 0.51932 0.18534 0.15300
C 	C 	0.29313 0.64190 0.72137 0.22900
C 	C 	0.38880 0.69956 0.72426 -0.12200
C 	C 	0.43238 0.67202 0.72203 0.23200
C 	C 	0.38337 0.58414 0.72350 -0.13000
C 	C 	0.28784 0.52714 0.71825 0.23000
C 	C 	0.24243 0.55520 0.71815 -0.11900
H 	H 	0.42695 0.76810 0.72285 0.14900
H 	H 	0.41770 0.56298 0.72232 0.14600
H 	H 	0.16781 0.51202 0.71252 0.14500
Co	Co	0.95065 0.91795 0.18219 1.20400
C 	C 	0.21579 0.09149 0.02771 0.42100
Co	Co	0.90109 0.03801 0.17608 1.20100
C 	C 	0.94202 0.71947 0.09439 0.42800
O 	O 	0.79276 0.00431 0.11490 -0.33100
O 	O 	0.94484 0.00430 0.14798 -0.74800
C 	C 	0.80858 0.06239 0.07230 0.38400
O 	O 	0.97453 0.83190 0.19445 -0.38800
C 	C 	0.77854 0.84239 0.20447 0.41500
O 	O 	0.96940 0.94854 0.10701 -0.53000
C 	C 	0.97679 0.92962 0.95885 0.28200
C 	C 	0.18790 0.87448 0.15547 0.39300
O 	O 	0.86518 0.07997 0.05175 -0.31600
O 	O 	0.98168 0.98471 0.97150 -0.27800
O 	O 	0.83003 0.91270 0.22072 -0.36400
O 	O 	0.81251 0.83097 0.18454 -0.34400
O 	O 	0.20406 0.93251 0.11309 -0.31500
O 	O 	0.16751 0.02439 0.00920 -0.41100
O 	O 	0.17963 0.09332 0.05183 -0.37800
O 	O 	0.91934 0.74358 0.11355 -0.33900
Co	Co	0.93941 0.92616 0.66976 1.20500
C 	C 	0.23932 0.09094 0.53368 0.42400
Co	Co	0.91830 0.06650 0.66597 1.17900
C 	C 	0.92989 0.72653 0.58496 0.42700
O 	O 	0.93469 0.16897 0.60342 -0.37000
O 	O 	0.96613 0.02846 0.64423 -0.75400
C 	C 	0.89807 0.15586 0.55907 0.41700
O 	O 	0.94522 0.82812 0.68029 -0.38600
C 	C 	0.75483 0.89148 0.64865 0.39600
C 	C 	0.99951 0.95055 0.45995 0.32300
C 	C 	0.17279 0.85483 0.66109 0.39300
O 	O 	0.90828 0.11026 0.54911 -0.34500
O 	O 	0.78705 0.97524 0.63300 -0.31500
O 	O 	0.79652 0.86492 0.64717 -0.33900
O 	O 	0.19912 0.91670 0.62074 -0.30900
O 	O 	0.89570 0.97020 0.73202 -0.34700
O 	O 	0.98845 0.93588 0.74492 -0.30700
O 	O 	0.18668 0.02249 0.51565 -0.40000
O 	O 	0.20612 0.10229 0.55412 -0.36100
O 	O 	0.90704 0.76103 0.59573 -0.34500
C 	C 	0.90742 0.86287 0.88811 0.00200
C 	C 	0.96595 0.93945 0.90560 0.03400
C 	C 	0.97728 0.94486 0.81664 0.02400
C 	C 	0.91430 0.86526 0.84484 0.01400
H 	H 	0.85807 0.80050 0.90889 0.12900
H 	H 	0.86713 0.80565 0.83197 0.12100
C 	C 	0.95456 0.90556 0.34247 0.03100
C 	C 	0.99733 0.96850 0.40689 0.02900
C 	C 	0.93964 0.89685 0.38498 -0.00000
H 	H 	0.90851 0.84981 0.32621 0.10800
H 	H 	0.13741 0.12224 0.32441 0.11900
H 	H 	0.11596 0.10488 0.40125 0.11300
H 	H 	0.88472 0.83337 0.40176 0.13200
C 	C 	0.19128 0.43813 0.65565 0.25600
C 	C 	0.23533 0.44356 0.70563 -0.14100
C 	C 	0.25040 0.37970 0.74034 0.25300
C 	C 	0.22339 0.31235 0.72520 0.29400
C 	C 	0.17518 0.30417 0.67586 -0.19500
C 	C 	0.16186 0.36910 0.64079 0.29200
F 	F 	0.17938 0.50121 0.62118 -0.33900
F 	F 	0.23887 0.25138 0.75930 -0.36600
F 	F 	0.29449 0.38495 0.78853 -0.34300
C 	C 	0.59651 0.73626 0.73571 0.25500
C 	C 	0.51927 0.73719 0.70539 -0.14000
C 	C 	0.51731 0.78327 0.65499 0.26100
C 	C 	0.59077 0.82633 0.63496 0.30900
C 	C 	0.66848 0.82647 0.66541 -0.19500
C 	C 	0.66983 0.77911 0.71553 0.29300
F 	F 	0.74307 0.77596 0.74489 -0.39200
F 	F 	0.59863 0.69072 0.78426 -0.35200
F 	F 	0.58609 0.86724 0.58572 -0.31600
F 	F 	0.44157 0.78189 0.62475 -0.33100
C 	C 	0.24297 0.69929 0.74357 0.26400
C 	C 	0.24387 0.67943 0.70744 -0.13300
C 	C 	0.21235 0.70951 0.65689 0.26200
C 	C 	0.18858 0.76561 0.64200 0.30400
C 	C 	0.18843 0.78711 0.67780 -0.18400
C 	C 	0.21382 0.75184 0.72876 0.30900
F 	F 	0.21529 0.77221 0.76386 -0.34400
F 	F 	0.27311 0.67027 0.79277 -0.34300
F 	F 	0.17149 0.80370 0.59270 -0.42100
F 	F 	0.21256 0.69052 0.62174 -0.33200
C 	C 	0.12129 0.36696 0.11332 0.29600
C 	C 	0.12838 0.29730 0.14610 -0.18900
C 	C 	0.17580 0.30021 0.19607 0.28900
C 	C 	0.20597 0.36584 0.21436 0.25100
C 	C 	0.19770 0.43491 0.18184 -0.13400
C 	C 	0.15558 0.43523 0.13106 0.25800
F 	F 	0.15008 0.50292 0.09861 -0.34700
F 	F 	0.24721 0.36464 0.26347 -0.35400
C 	C 	0.61357 0.77818 0.16349 0.30100
C 	C 	0.68144 0.77852 0.20698 -0.20300
C 	C 	0.65991 0.73757 0.25369 0.30300
C 	C 	0.57321 0.70112 0.25694 0.26000
C 	C 	0.50679 0.70423 0.21351 -0.14200
C 	C 	0.52740 0.74292 0.16674 0.25700
F 	F 	0.46254 0.74375 0.12436 -0.34400
F 	F 	0.63281 0.81600 0.11806 -0.36100
F 	F 	0.55291 0.66101 0.30225 -0.34200
F 	F 	0.72440 0.73596 0.29605 -0.36900
C 	C 	0.22189 0.73031 0.14350 0.26000
C 	C 	0.23865 0.68581 0.19303 -0.13100
C 	C 	0.23426 0.69940 0.23081 0.26600
C 	C 	0.21465 0.75846 0.21882 0.30900
C 	C 	0.20196 0.80616 0.16915 -0.18600
C 	C 	0.20682 0.79182 0.13168 0.29700
F 	F 	0.19757 0.83811 0.08356 -0.43000
F 	F 	0.22590 0.71790 0.10676 -0.34400
F 	F 	0.21182 0.77158 0.25566 -0.34500
F 	F 	0.25110 0.65722 0.27910 -0.34200
C 	C 	0.74953 0.13370 0.53149 0.29000
C 	C 	0.83755 0.18426 0.52351 -0.18500
C 	C 	0.87945 0.27450 0.49967 0.30900
C 	C 	0.84134 0.31540 0.49216 0.26200
C 	C 	0.76240 0.26680 0.50981 -0.12700
C 	C 	0.71648 0.17491 0.52944 0.25400
F 	F 	0.64345 0.12632 0.54942 -0.35200
F 	F 	0.70182 0.04499 0.54809 -0.35000
F 	F 	0.88187 0.40203 0.46844 -0.34200
F 	F 	0.96142 0.32418 0.48793 -0.32700
C 	C 	0.83317 0.50296 0.58792 0.25900
C 	C 	0.80357 0.50811 0.53658 -0.12900
C 	C 	0.80183 0.58034 0.50260 0.25500
C 	C 	0.82533 0.64398 0.51975 0.29800
C 	C 	0.86064 0.64200 0.57075 -0.19500
C 	C 	0.86043 0.56885 0.60488 0.30500
F 	F 	0.89313 0.56492 0.65447 -0.35400
F 	F 	0.83228 0.43238 0.62150 -0.35000
F 	F 	0.81985 0.71125 0.48635 -0.37500
F 	F 	0.77179 0.58586 0.45287 -0.34600
C 	C 	0.43174 0.25565 0.46882 0.25300
C 	C 	0.49768 0.23994 0.50362 -0.14000
C 	C 	0.48191 0.18337 0.55091 0.25800
C 	C 	0.40169 0.14376 0.56340 0.30100
C 	C 	0.33441 0.15713 0.52811 -0.21000
C 	C 	0.35104 0.21528 0.48124 0.30100
F 	F 	0.28681 0.22944 0.44691 -0.37600
F 	F 	0.44725 0.31205 0.42344 -0.34700
F 	F 	0.38687 0.08838 0.60905 -0.36700
F 	F 	0.54652 0.16989 0.58551 -0.34300
C 	C 	0.76959 0.20402 0.08194 0.27800
C 	C 	0.74421 0.24113 0.03183 -0.17700
C 	C 	0.74400 0.22322 0.99432 0.33300
C 	C 	0.76789 0.16724 0.00719 0.24800
C 	C 	0.79031 0.12758 0.05761 -0.16700
C 	C 	0.79074 0.14664 0.09487 0.28400
F 	F 	0.81036 0.10838 0.14383 -0.42900
F 	F 	0.76991 0.22073 0.11839 -0.34400
F 	F 	0.76590 0.14934 0.97069 -0.32100
F 	F 	0.71919 0.25862 0.94555 -0.34700
C 	C 	0.84555 0.49782 0.09232 0.25500
C 	C 	0.79787 0.49796 0.04203 -0.12800
C 	C 	0.78980 0.56753 0.01131 0.22700
C 	C 	0.82396 0.63292 0.03127 0.30100
C 	C 	0.87487 0.63489 0.08084 -0.20600
C 	C 	0.88412 0.56609 0.11152 0.31000
F 	F 	0.93408 0.56753 0.15945 -0.35500
F 	F 	0.85188 0.43003 0.12299 -0.34000
F 	F 	0.81111 0.69690 0.00172 -0.39300
F 	F 	0.74455 0.56913 0.96255 -0.33500
C 	C 	0.41829 0.23878 0.97316 0.28100
C 	C 	0.48417 0.23166 0.01542 -0.17000
C 	C 	0.46573 0.19225 0.06284 0.25800
C 	C 	0.38119 0.15809 0.06775 0.30200
C 	C 	0.31268 0.15938 0.02518 -0.23400
C 	C 	0.33348 0.20390 0.97809 0.32500
F 	F 	0.26876 0.20803 0.93670 -0.36800
F 	F 	0.43710 0.28064 0.92736 -0.33800
F 	F 	0.36349 0.11853 0.11371 -0.37300
F 	F 	0.53086 0.18901 0.10426 -0.35000
