data_crystal

_cell_length_a 20.48514
_cell_length_b 21.44899
_cell_length_c 31.53945
_cell_angle_alpha 60.85186
_cell_angle_beta  118.84461
_cell_angle_gamma 133.22467

_symmetry_space_group_name_	'P 1'
_symmetry_space_group_name_H-M	'P 1'

loop_
_symmetry_equiv_pos_as_xyz
  x,y,z

loop_
_atom_site_label
_atom_site_type_symbol
_atom_site_fract_x
_atom_site_fract_y
_atom_site_fract_z
_atom_site_charge
Co	Co	0.04041 0.01923 0.04295 1.16200
O 	O 	0.02022 0.10830 0.03103 -0.45900
O 	O 	0.04168 0.92961 0.07643 -0.74000
C 	C 	0.00689 0.01097 0.26018 0.23400
Co	Co	0.01440 0.09179 0.59071 1.17100
O 	O 	0.05700 0.92361 0.58248 -0.75200
C 	C 	0.03475 0.94873 0.85228 -0.00200
Br	Br	0.03644 0.60219 0.74816 -0.19600
Co	Co	0.01411 0.86984 0.13332 1.18000
O 	O 	0.01574 0.96615 0.24709 -0.33100
O 	O 	0.02782 0.77218 0.09156 -0.41300
O 	O 	0.03645 0.98569 0.62167 -0.56300
C 	C 	0.04831 0.98946 0.46126 0.32500
O 	O 	0.01626 0.00317 0.48153 -0.40000
C 	C 	0.02357 0.00319 0.31423 -0.10200
C 	C 	0.06334 0.07572 0.37260 -0.03300
C 	C 	0.01843 0.99369 0.40660 -0.01700
C 	C 	0.03962 0.94308 0.90022 0.00000
C 	C 	0.03781 0.21561 0.12668 0.29800
Br	Br	0.09841 0.55279 0.22943 -0.17700
Br	Br	0.04108 0.36790 0.03077 -0.21100
O 	O 	0.08143 0.12641 0.54316 -0.44600
C 	C 	0.06979 0.08039 0.32834 0.01400
H 	H 	0.08871 0.70218 0.19800 0.06500
Co	Co	0.08286 0.02517 0.55452 1.17500
O 	O 	0.06560 0.18660 0.11481 -0.38000
Co	Co	0.09088 0.87874 0.55590 1.17400
C 	C 	0.08244 0.22852 0.63517 0.29600
O 	O 	0.07460 0.77605 0.61871 -0.40800
C 	C 	0.10191 0.15569 0.38232 0.11700
H 	H 	0.10694 0.14445 0.30345 0.05600
O 	O 	0.11006 0.97429 0.48923 -0.37800
Co	Co	0.09595 0.90247 0.05103 1.17700
O 	O 	0.10918 0.20038 0.62192 -0.36600
O 	O 	0.09741 0.82768 0.67618 -0.36900
H 	H 	0.07509 0.93680 0.84852 0.06300
C 	C 	0.10106 0.30373 0.13663 -0.08300
C 	C 	0.09635 0.37329 0.09944 0.13700
C 	C 	0.09924 0.92187 0.94280 0.09300
C 	C 	0.11212 0.78854 0.66346 0.32200
C 	C 	0.13032 0.44666 0.11243 -0.06000
H 	H 	0.13058 0.50158 0.08327 0.08100
N 	N 	0.13269 0.21978 0.39009 -0.08300
H 	H 	0.13252 0.23745 0.72898 0.06800
Co	Co	0.99997 0.85449 0.62904 1.19300
O 	O 	0.99942 0.06551 0.72547 -0.39300
O 	O 	0.13430 0.87350 0.17514 -0.36400
C 	C 	0.98853 0.96018 0.90611 -0.01300
O 	O 	0.98689 0.99713 0.96957 -0.30700
C 	C 	0.98246 0.94161 0.95761 0.28300
C 	C 	0.98857 0.99269 0.75804 0.31300
O 	O 	0.99435 0.07110 0.22638 -0.36300
O 	O 	0.98304 0.87524 0.99213 -0.34600
Co	Co	0.96876 0.07413 0.08674 1.18900
O 	O 	0.95133 0.16819 0.12702 -0.37000
O 	O 	0.99501 0.19054 0.62743 -0.38000
C 	C 	0.18618 0.88119 0.15637 0.31100
O 	O 	0.20293 0.93399 0.11259 -0.37000
O 	O 	0.16940 0.03115 0.00994 -0.42000
O 	O 	0.18166 0.10215 0.05146 -0.40200
O 	O 	0.22439 0.96709 0.58798 -0.35600
O 	O 	0.22319 0.08824 0.56367 -0.35700
N 	N 	0.14705 0.90469 0.97677 -0.12500
C 	C 	0.18136 0.37062 0.71440 0.10300
C 	C 	0.15487 0.30057 0.70190 -0.02500
C 	C 	0.14916 0.30893 0.65342 -0.08400
C 	C 	0.17886 0.39143 0.61881 0.13900
Br	Br	0.18246 0.35416 0.78020 -0.18700
C 	C 	0.17758 0.76582 0.69698 -0.08800
C 	C 	0.14245 0.67678 0.72156 0.14200
C 	C 	0.18308 0.64119 0.72522 -0.05900
H 	H 	0.15317 0.57167 0.74238 0.09600
C 	C 	0.13932 0.30889 0.18659 -0.02500
C 	C 	0.16924 0.38011 0.19970 0.10100
Br	Br	0.21314 0.37990 0.26900 -0.18000
H 	H 	0.14040 0.25461 0.21574 0.06500
C 	C 	0.15520 0.73168 0.19419 -0.01800
C 	C 	0.21900 0.82432 0.18202 -0.08600
C 	C 	0.17633 0.67677 0.20038 0.09700
C 	C 	0.70411 0.29271 0.02238 0.15300
N 	N 	0.61279 0.24971 0.01680 -0.13200
C 	C 	0.58384 0.28965 0.01826 0.15400
N 	N 	0.64527 0.37272 0.02404 -0.13100
C 	C 	0.73629 0.41499 0.03167 0.15000
N 	N 	0.76626 0.37568 0.03018 -0.11900
C 	C 	0.75285 0.29443 0.53857 0.14700
N 	N 	0.67076 0.23223 0.55208 -0.13200
C 	C 	0.63817 0.25434 0.56691 0.15700
N 	N 	0.68902 0.33780 0.57016 -0.12700
C 	C 	0.76907 0.40128 0.55527 0.15300
N 	N 	0.80041 0.38042 0.53808 -0.11700
C 	C 	0.28204 0.66052 0.19148 0.14900
N 	N 	0.21464 0.58283 0.17668 -0.11700
C 	C 	0.23890 0.54013 0.17304 0.15100
N 	N 	0.32874 0.57692 0.18149 -0.13000
C 	C 	0.39528 0.65395 0.19516 0.15700
N 	N 	0.37222 0.69496 0.20103 -0.12600
C 	C 	0.29574 0.65355 0.70402 0.15100
N 	N 	0.23578 0.57159 0.69499 -0.12400
C 	C 	0.26914 0.53256 0.69696 0.15700
N 	N 	0.36085 0.57534 0.70729 -0.13000
C 	C 	0.41962 0.65973 0.71054 0.15500
N 	N 	0.38793 0.69742 0.71171 -0.11500
Co	Co	0.94613 0.92631 0.17791 1.19400
C 	C 	0.21825 0.09814 0.02885 0.33200
Co	Co	0.88171 0.03737 0.16740 1.16900
C 	C 	0.94286 0.72519 0.09445 0.33100
O 	O 	0.77824 0.00154 0.10473 -0.38600
O 	O 	0.93461 0.00933 0.14196 -0.75700
C 	C 	0.79528 0.06214 0.06289 0.30600
O 	O 	0.97508 0.84295 0.19224 -0.43400
C 	C 	0.76735 0.84187 0.19619 0.32700
O 	O 	0.96767 0.95761 0.10347 -0.54800
O 	O 	0.85709 0.08515 0.04397 -0.33700
O 	O 	0.81317 0.91136 0.21196 -0.38500
O 	O 	0.80829 0.83271 0.18002 -0.35800
O 	O 	0.92012 0.75061 0.11276 -0.36200
Co	Co	0.94620 0.92629 0.67184 1.19600
C 	C 	0.26471 0.05307 0.57289 0.27500
Co	Co	0.90534 0.05829 0.65783 1.17200
C 	C 	0.89764 0.73385 0.55882 0.31000
O 	O 	0.81784 0.04627 0.58828 -0.38400
O 	O 	0.96327 0.02481 0.64030 -0.75500
C 	C 	0.85186 0.10401 0.54887 0.31200
O 	O 	0.94614 0.82457 0.68217 -0.43100
C 	C 	0.76425 0.86465 0.66983 0.33000
O 	O 	0.90978 0.10768 0.53780 -0.35700
O 	O 	0.81125 0.92953 0.69000 -0.37600
O 	O 	0.80483 0.85939 0.65085 -0.37800
O 	O 	0.98542 0.93806 0.74601 -0.34100
O 	O 	0.95182 0.79772 0.52769 -0.36900
O 	O 	0.89141 0.75113 0.59186 -0.35800
C 	C 	0.98133 0.97296 0.80936 -0.04300
C 	C 	0.93487 0.98419 0.86314 -0.01300
C 	C 	0.93046 0.99027 0.81516 0.05300
H 	H 	0.89453 0.99616 0.86687 0.08200
C 	C 	0.87205 0.01275 0.77234 0.05400
N 	N 	0.82523 0.03097 0.73818 -0.11000
C 	C 	0.97158 0.91627 0.39256 -0.01800
C 	C 	0.97301 0.92050 0.34667 0.06300
H 	H 	0.93742 0.85261 0.41840 0.07000
C 	C 	0.92185 0.83952 0.33337 0.09100
N 	N 	0.88079 0.77456 0.32273 -0.09300
C 	C 	0.20524 0.46154 0.63124 -0.05500
C 	C 	0.20816 0.45230 0.67928 -0.01500
Br	Br	0.18442 0.40975 0.55438 -0.19700
H 	H 	0.22913 0.52515 0.60449 0.09500
C 	C 	0.57986 0.70861 0.73756 -0.05900
C 	C 	0.50953 0.71462 0.69984 -0.01300
C 	C 	0.51745 0.75317 0.64983 0.10700
C 	C 	0.59764 0.79011 0.63867 -0.01500
C 	C 	0.67124 0.79105 0.67701 -0.08900
C 	C 	0.65925 0.74434 0.72613 0.14500
Br	Br	0.75449 0.73511 0.77881 -0.20600
H 	H 	0.57180 0.67411 0.77563 0.08700
H 	H 	0.60559 0.82439 0.60057 0.08500
Br	Br	0.41830 0.75381 0.59611 -0.17200
C 	C 	0.26451 0.82195 0.68675 -0.01900
C 	C 	0.26050 0.69473 0.70546 -0.01000
C 	C 	0.30280 0.78697 0.68704 0.10000
Br	Br	0.40372 0.86518 0.65531 -0.16500
H 	H 	0.29594 0.89197 0.67151 0.07700
C 	C 	0.16949 0.45199 0.16243 -0.01200
C 	C 	0.51281 0.72301 0.15246 -0.06000
C 	C 	0.49085 0.69852 0.19639 -0.02000
C 	C 	0.55697 0.70537 0.24195 0.10200
C 	C 	0.64594 0.74205 0.24260 -0.01400
C 	C 	0.67013 0.77343 0.19795 -0.09000
C 	C 	0.60148 0.75901 0.15318 0.14100
Br	Br	0.62813 0.79076 0.09221 -0.19400
H 	H 	0.46069 0.71383 0.11765 0.08200
H 	H 	0.69799 0.75126 0.27742 0.07800
Br	Br	0.52718 0.66496 0.30363 -0.16600
C 	C 	0.30722 0.86073 0.18079 0.13700
C 	C 	0.32531 0.80729 0.18230 -0.06200
C 	C 	0.25931 0.71500 0.19048 -0.01100
H 	H 	0.39131 0.83795 0.17727 0.09000
Br	Br	0.40406 0.98421 0.17636 -0.15900
C 	C 	0.71952 0.19499 0.49963 -0.06100
C 	C 	0.78567 0.26797 0.52118 -0.01600
C 	C 	0.87962 0.30186 0.53433 0.10500
C 	C 	0.90321 0.25673 0.53070 -0.02400
C 	C 	0.83444 0.17246 0.52118 -0.08300
C 	C 	0.74307 0.14598 0.50088 0.13900
Br	Br	0.64836 0.03930 0.47834 -0.20200
H 	H 	0.64826 0.17209 0.48554 0.08300
H 	H 	0.97490 0.28346 0.53989 0.09000
Br	Br	0.97654 0.40588 0.55951 -0.17400
C 	C 	0.78661 0.54238 0.51184 -0.06000
C 	C 	0.81624 0.49336 0.55383 -0.01400
C 	C 	0.86530 0.52017 0.59889 0.10600
C 	C 	0.87998 0.59206 0.60228 -0.02100
C 	C 	0.85143 0.64183 0.56010 -0.08200
C 	C 	0.80200 0.61475 0.51505 0.13700
Br	Br	0.75230 0.67428 0.45782 -0.19000
H 	H 	0.74632 0.52086 0.47741 0.08400
H 	H 	0.91784 0.61191 0.63712 0.08600
Br	Br	0.91221 0.45855 0.65640 -0.16100
C 	C 	0.47756 0.20300 0.52455 -0.05900
C 	C 	0.54114 0.19521 0.56814 -0.02200
C 	C 	0.51493 0.14487 0.61394 0.10500
C 	C 	0.42579 0.10340 0.61578 -0.02300
C 	C 	0.36222 0.11167 0.57212 -0.07900
C 	C 	0.38897 0.16268 0.52641 0.13400
Br	Br	0.30550 0.17769 0.46593 -0.21300
H 	H 	0.49821 0.24324 0.48936 0.08000
H 	H 	0.40527 0.06323 0.65099 0.06500
Br	Br	0.59988 0.13164 0.67425 -0.18400
C 	C 	0.76619 0.13211 0.08960 -0.01900
C 	C 	0.77681 0.12652 0.05082 -0.07600
C 	C 	0.76698 0.17961 0.00224 0.10900
C 	C 	0.74774 0.23739 0.99358 -0.01100
C 	C 	0.73667 0.24150 0.03273 -0.03900
C 	C 	0.74592 0.18823 0.08075 0.10800
Br	Br	0.72617 0.18730 0.13478 -0.17300
H 	H 	0.77346 0.09215 0.12711 0.02600
H 	H 	0.73877 0.27694 0.95619 0.07900
Br	Br	0.77212 0.17001 0.94669 -0.15600
C 	C 	0.78270 0.56351 0.01629 -0.08000
C 	C 	0.80124 0.50035 0.04510 -0.00900
C 	C 	0.85992 0.50777 0.09329 0.10100
C 	C 	0.89646 0.57570 0.11230 -0.01000
C 	C 	0.87694 0.63807 0.08349 -0.09100
C 	C 	0.81569 0.62855 0.03633 0.13400
Br	Br	0.77366 0.70197 0.99939 -0.18000
H 	H 	0.73622 0.55756 0.97962 0.10100
H 	H 	0.94396 0.58269 0.14861 0.08000
Br	Br	0.89163 0.42639 0.13381 -0.15000
C 	C 	0.42134 0.23383 0.97725 -0.04900
C 	C 	0.48937 0.23942 0.02141 -0.03500
C 	C 	0.47159 0.21479 0.06712 0.10200
C 	C 	0.38417 0.17878 0.06860 -0.01200
C 	C 	0.31413 0.16729 0.02484 -0.11500
C 	C 	0.33505 0.20058 0.97862 0.15700
Br	Br	0.24520 0.19894 0.91701 -0.20700
H 	H 	0.43642 0.25786 0.94165 0.08000
H 	H 	0.36914 0.15463 0.10424 0.07100
Br	Br	0.56644 0.23129 0.12777 -0.16600
