data_crystal

_cell_length_a 13.73796
_cell_length_b 13.29983
_cell_length_c 58.11263
_cell_angle_alpha 90.20341
_cell_angle_beta  90.21608
_cell_angle_gamma 119.33892

_symmetry_space_group_name_	'P 1'
_symmetry_space_group_name_H-M	'P 1'

loop_
_symmetry_equiv_pos_as_xyz
  x,y,z

loop_
_atom_site_label
_atom_site_type_symbol
_atom_site_fract_x
_atom_site_fract_y
_atom_site_fract_z
_atom_site_charge
C 	C 	0.31257 0.48928 0.09730 0.31100
C 	C 	0.32630 0.44844 0.16494 0.29100
C 	C 	0.11264 0.63150 0.10692 0.31100
C 	C 	0.12485 0.61855 0.17386 0.28800
Ni	Ni	0.17617 0.49991 0.13653 1.11900
Ni	Ni	0.29408 0.77544 0.13948 1.11800
O 	O 	0.07887 0.56041 0.12418 -0.39600
O 	O 	0.38906 0.50840 0.11283 -0.37900
O 	O 	0.21515 0.47754 0.10349 -0.38600
O 	O 	0.15367 0.70412 0.15887 -0.38000
O 	O 	0.12484 0.52134 0.16791 -0.38400
O 	O 	0.42466 0.54201 0.16148 -0.37200
O 	O 	0.24825 0.40910 0.14874 -0.38500
O 	O 	0.20587 0.73137 0.10926 -0.39400
O 	O 	0.31134 0.64197 0.14106 -0.71100
H 	H 	0.31596 0.63793 0.15789 0.14300
C 	C 	0.00495 0.79210 0.25108 0.28900
C 	C 	0.15250 0.20085 0.31213 0.31200
C 	C 	0.15150 0.18130 0.24636 0.28700
Ni	Ni	0.13100 0.00759 0.28165 1.10600
O 	O 	0.08838 0.84787 0.26610 -0.36900
O 	O 	0.20490 0.17016 0.29724 -0.38100
O 	O 	0.04508 0.16309 0.31023 -0.39800
O 	O 	0.09541 0.93517 0.31404 -0.38000
O 	O 	0.94493 0.76892 0.30148 -0.38300
O 	O 	0.17497 0.09796 0.25114 -0.38100
O 	O 	0.09881 0.21463 0.26137 -0.37900
O 	O 	0.98632 0.98295 0.27635 -0.71200
C 	C 	0.32971 0.43517 0.20750 -0.04900
C 	C 	0.30696 0.37972 0.18601 -0.09400
C 	C 	0.24369 0.25798 0.18494 0.10900
C 	C 	0.18680 0.19632 0.20452 -0.04800
C 	C 	0.20412 0.25218 0.22585 -0.09000
C 	C 	0.28278 0.37156 0.22765 0.10700
N 	N 	0.31723 0.42412 0.24851 -0.20100
H 	H 	0.38256 0.52793 0.20855 0.04900
H 	H 	0.13242 0.10370 0.20335 0.04100
N 	N 	0.24038 0.19998 0.16537 -0.19900
H 	H 	0.36829 0.51356 0.24964 0.08100
H 	H 	0.30186 0.37627 0.26355 0.10100
H 	H 	0.29380 0.24213 0.15167 0.09900
H 	H 	0.18913 0.11056 0.16428 0.07900
C 	C 	0.98771 0.66292 0.19180 -0.04200
C 	C 	0.06182 0.61944 0.19438 -0.08700
C 	C 	0.09835 0.61180 0.21675 0.10100
C 	C 	0.08016 0.66991 0.23510 -0.04200
C 	C 	0.02142 0.73045 0.23154 -0.08800
C 	C 	0.97448 0.72676 0.20958 0.10800
N 	N 	0.92374 0.79043 0.20500 -0.19700
H 	H 	0.95234 0.66063 0.17495 0.05500
N 	N 	0.14590 0.54496 0.22095 -0.20200
H 	H 	0.88330 0.78147 0.18924 0.08700
H 	H 	0.14861 0.49068 0.20830 0.10100
N 	N 	0.25202 0.44875 0.31359 -0.20200
H 	H 	0.27962 0.53723 0.31427 0.07900
H 	H 	0.22833 0.40728 0.29764 0.09000
N 	N 	0.09718 0.65973 0.31647 -0.20300
H 	H 	0.13973 0.61271 0.31588 0.08200
H 	H 	0.06416 0.67115 0.30114 0.10400
H 	H 	0.16295 0.54130 0.00179 0.05500
C 	C 	0.07693 0.65128 0.06451 0.12600
C 	C 	0.06864 0.58217 0.08369 -0.11700
N 	N 	0.09366 0.76001 0.06741 -0.20400
H 	H 	0.09875 0.80987 0.05314 0.08500
H 	H 	0.09426 0.79306 0.08376 0.09300
H 	H 	0.20711 0.53293 0.96212 0.08100
C 	C 	0.39796 0.94125 0.07687 -0.01900
C 	C 	0.38880 0.97648 0.05466 0.06000
H 	H 	0.34081 0.93744 0.09008 0.04300
N 	N 	0.30979 0.00736 0.05013 -0.19800
H 	H 	0.26107 0.01217 0.06340 0.07300
H 	H 	0.29428 0.02460 0.03341 0.07900
C 	C 	0.43593 0.60876 0.03946 -0.10100
C 	C 	0.36845 0.58854 0.05883 0.13700
C 	C 	0.33976 0.49024 0.07254 -0.11500
C 	C 	0.35611 0.40152 0.06361 -0.01900
C 	C 	0.40519 0.41296 0.04181 0.05500
N 	N 	0.32492 0.65848 0.06313 -0.20500
H 	H 	0.32908 0.32298 0.07336 0.03700
H 	H 	0.32977 0.71783 0.05083 0.09300
H 	H 	0.28617 0.65459 0.07864 0.10900
Ni	Ni	0.44979 0.65284 0.13386 1.11100
H 	H 	0.36631 0.24028 0.03989 0.08200
C 	C 	0.46548 0.84411 0.10374 0.31500
O 	O 	0.39415 0.83701 0.16803 -0.37000
O 	O 	0.43627 0.87847 0.12227 -0.38500
H 	H 	0.11038 0.66659 0.25219 0.04900
H 	H 	0.17477 0.54160 0.23744 0.08400
O 	O 	0.47683 0.75138 0.10423 -0.38200
C 	C 	0.47581 0.90462 0.08183 -0.11700
N 	N 	0.39951 0.31892 0.03127 -0.19200
C 	C 	0.46231 0.98000 0.03731 0.01700
C 	C 	0.48717 0.82985 0.17087 0.28600
O 	O 	0.53289 0.80393 0.15339 -0.37100
C 	C 	0.55438 0.87604 0.19210 -0.08200
N 	N 	0.40365 0.74695 0.21682 -0.20000
H 	H 	0.34562 0.72437 0.20350 0.09400
H 	H 	0.37485 0.70912 0.23289 0.08200
C 	C 	0.45790 0.02063 0.01388 -0.02900
C 	C 	0.51102 0.13984 0.00879 0.06200
C 	C 	0.51648 0.17484 0.98587 -0.02800
N 	N 	0.55997 0.22082 0.02565 -0.19500
H 	H 	0.56193 0.26596 0.98179 0.04000
C 	C 	0.54450 0.94993 0.04257 -0.10900
C 	C 	0.55438 0.91583 0.06491 0.13500
H 	H 	0.60285 0.95611 0.02939 0.06100
N 	N 	0.64185 0.89913 0.07023 -0.20400
H 	H 	0.66263 0.89366 0.08731 0.09600
H 	H 	0.60459 0.30824 0.02152 0.08300
H 	H 	0.55547 0.19826 0.04295 0.08400
C 	C 	0.45430 0.52138 0.03061 0.00400
H 	H 	0.47021 0.69096 0.03072 0.06000
C 	C 	0.51393 0.82234 0.21366 0.10000
H 	H 	0.69488 0.89967 0.05733 0.08700
C 	C 	0.66804 0.95712 0.18986 -0.04700
C 	C 	0.58913 0.84681 0.23206 -0.03800
H 	H 	0.69874 0.99975 0.17349 0.05900
H 	H 	0.55768 0.80816 0.24870 0.05100
C 	C 	0.62533 0.53429 0.01244 -0.09500
H 	H 	0.64770 0.51433 0.02905 0.05400
H 	H 	0.74660 0.20797 0.02675 0.08400
H 	H 	0.58291 0.89239 0.31770 0.04900
C 	C 	0.70430 0.92005 0.22911 -0.09500
C 	C 	0.74447 0.97301 0.20748 0.12200
N 	N 	0.81477 0.29092 0.02853 -0.19200
H 	H 	0.79959 0.50462 0.01087 0.08700
C 	C 	0.86486 0.28823 0.98939 -0.02900
H 	H 	0.81845 0.33954 0.04298 0.08600
C 	C 	0.89215 0.33606 0.01160 0.05600
N 	N 	0.85589 0.03340 0.20308 -0.20600
H 	H 	0.88466 0.07832 0.18765 0.08100
C 	C 	0.78042 0.94735 0.24914 0.30500
O 	O 	0.75318 0.86860 0.26568 -0.38400
H 	H 	0.03696 0.28991 0.03974 0.08500
N 	N 	0.02481 0.31766 0.05576 -0.19100
H 	H 	0.01745 0.26746 0.07014 0.08100
O 	O 	0.81918 0.03639 0.29996 -0.39700
H 	H 	0.91425 0.02922 0.21399 0.08400
O 	O 	0.85828 0.05668 0.25259 -0.39800
C 	C 	0.99936 0.43258 0.01586 0.01600
C 	C 	0.04923 0.42566 0.97600 0.12200
C 	C 	0.02761 0.42079 0.05828 0.06500
Ni	Ni	0.86332 0.83641 0.28350 1.12100
C 	C 	0.03173 0.48666 0.03903 -0.01200
C 	C 	0.07886 0.47247 0.99826 -0.10800
O 	O 	0.90204 0.77265 0.25545 -0.37900
Ni	Ni	0.95884 0.10848 0.28034 1.11600
H 	H 	0.00869 0.40658 0.09486 0.03400
C 	C 	0.02836 0.46351 0.08024 -0.01800
H 	H 	0.93113 0.85532 0.21619 0.09100
H 	H 	0.98300 0.97758 0.25942 0.15200
C 	C 	0.05748 0.60227 0.04221 -0.09600
H 	H 	0.05971 0.65304 0.02746 0.05200
C 	C 	0.02052 0.82730 0.31732 0.31500
C 	C 	0.24773 0.39029 0.33306 0.10900
H 	H 	0.40253 0.79727 0.33496 0.08400
C 	C 	0.80250 0.96297 0.31671 0.32800
O 	O 	0.82800 0.88064 0.31407 -0.39400
C 	C 	0.21243 0.27091 0.33230 -0.09900
C 	C 	0.02918 0.76882 0.33786 -0.09700
C 	C 	0.08253 0.70090 0.33688 0.11100
C 	C 	0.62017 0.90771 0.33474 -0.03400
C 	C 	0.27633 0.44859 0.35428 -0.04400
H 	H 	0.30088 0.53949 0.35500 0.04200
C 	C 	0.12330 0.67821 0.35722 -0.04700
H 	H 	0.16771 0.62967 0.35651 0.04200
N 	N 	0.43807 0.81026 0.35139 -0.19900
C 	C 	0.55096 0.86625 0.35417 0.10100
C 	C 	0.73662 0.95930 0.33701 -0.10000
C 	C 	0.21409 0.21422 0.35244 -0.04400
H 	H 	0.18870 0.12310 0.35173 0.04800
H 	H 	0.38458 0.78011 0.36547 0.09000
H 	H 	0.95169 0.07102 0.34812 0.10200
C 	C 	0.26661 0.38907 0.37474 -0.09100
C 	C 	0.00725 0.80211 0.35925 -0.04200
H 	H 	0.96357 0.85141 0.35996 0.05300
C 	C 	0.78535 0.98207 0.35929 0.12400
N 	N 	0.89817 0.03838 0.36212 -0.21000
C 	C 	0.23921 0.27149 0.37379 0.10800
C 	C 	0.11205 0.72257 0.37830 -0.09200
C 	C 	0.04945 0.78097 0.37955 0.11100
C 	C 	0.59987 0.88115 0.37629 -0.08300
C 	C 	0.71628 0.94382 0.37872 -0.04700
C 	C 	0.27032 0.44624 0.39671 0.29000
C 	C 	0.17439 0.71695 0.39826 0.29300
C 	C 	0.53231 0.81750 0.39630 0.28600
H 	H 	0.93358 0.05175 0.37857 0.08200
O 	O 	0.18706 0.46682 0.40164 -0.38000
O 	O 	0.27610 0.80483 0.40219 -0.38800
H 	H 	0.33044 0.65970 0.40831 0.14800
N 	N 	0.23399 0.21239 0.39323 -0.20300
H 	H 	0.20889 0.12447 0.39238 0.08200
N 	N 	0.03192 0.81926 0.40004 -0.20200
O 	O 	0.52046 0.71395 0.40048 -0.37200
H 	H 	0.75355 0.95746 0.39572 0.04900
O 	O 	0.35019 0.46539 0.41198 -0.37600
O 	O 	0.11969 0.63792 0.41421 -0.38700
H 	H 	0.25722 0.25307 0.40923 0.10000
H 	H 	0.98798 0.86490 0.40067 0.08500
O 	O 	0.51127 0.87559 0.41246 -0.38000
Ni	Ni	0.36468 0.81426 0.43048 1.12000
Ni	Ni	0.18144 0.54701 0.43092 1.12100
O 	O 	0.23176 0.79305 0.44913 -0.39000
O 	O 	0.20373 0.42470 0.44727 -0.39000
O 	O 	0.33221 0.65992 0.42525 -0.71600
H 	H 	0.06018 0.80299 0.41553 0.10100
H 	H 	0.15509 0.23129 0.44455 0.10000
Ni	Ni	0.44488 0.62109 0.43002 1.11200
O 	O 	0.56527 0.76603 0.44794 -0.37700
H 	H 	0.71813 0.96165 0.43786 0.10900
N 	N 	0.77197 0.00301 0.45165 -0.22000
H 	H 	0.85549 0.06103 0.44799 0.08100
C 	C 	0.28241 0.44620 0.46255 0.31700
C 	C 	0.18051 0.71125 0.46452 0.31600
O 	O 	0.44402 0.82522 0.46051 -0.39400
O 	O 	0.38043 0.53960 0.46111 -0.38300
O 	O 	0.17276 0.60930 0.46186 -0.39500
H 	H 	0.04492 0.80356 0.46016 0.04200
H 	H 	0.90197 0.84641 0.47155 0.08600
N 	N 	0.18820 0.19620 0.45607 -0.20700
H 	H 	0.17785 0.11471 0.45218 0.07900
C 	C 	0.54231 0.83162 0.46135 0.31600
C 	C 	0.04228 0.76950 0.47721 -0.02500
N 	N 	0.89542 0.80837 0.48759 -0.19200
C 	C 	0.73450 0.98855 0.47369 0.14600
H 	H 	0.76382 0.55558 0.49614 0.08700
C 	C 	0.11536 0.72749 0.48289 -0.11600
C 	C 	0.96283 0.76371 0.49314 0.05800
C 	C 	0.26172 0.36353 0.48138 -0.11500
C 	C 	0.23041 0.24624 0.47686 0.12600
C 	C 	0.62333 0.90457 0.47924 -0.12000
H 	H 	0.89123 0.12440 0.48704 0.06000
H 	H 	0.83738 0.80766 0.49923 0.08900
C 	C 	0.24383 0.18066 0.49419 -0.10200
H 	H 	0.22491 0.09284 0.49053 0.05600
C 	C 	0.80589 0.06106 0.49114 -0.11500
H 	H 	0.64494 0.45169 0.51180 0.08200
N 	N 	0.72105 0.52868 0.51168 -0.19300
C 	C 	0.11575 0.68882 0.50551 0.13400
C 	C 	0.03377 0.67891 0.52107 -0.10700
C 	C 	0.95416 0.71099 0.51473 0.00800
N 	N 	0.19643 0.66446 0.51257 -0.20500
H 	H 	0.03338 0.64850 0.53836 0.05700
H 	H 	0.97693 0.84607 0.55105 0.05900
H 	H 	0.26620 0.68473 0.50243 0.10100
H 	H 	0.19284 0.63012 0.52890 0.08500
C 	C 	0.28473 0.22841 0.51595 0.00200
C 	C 	0.30496 0.34130 0.52114 0.05900
C 	C 	0.29166 0.40700 0.50384 -0.02000
C 	C 	0.32236 0.16728 0.53178 0.00100
H 	H 	0.31081 0.49483 0.50757 0.04400
H 	H 	0.50139 0.83129 0.50619 0.04400
C 	C 	0.43214 0.18798 0.53008 -0.09600
H 	H 	0.47960 0.22700 0.51463 0.05300
C 	C 	0.58605 0.89602 0.50193 -0.01900
N 	N 	0.59461 0.20229 0.54807 -0.20700
C 	C 	0.76650 0.05626 0.51355 -0.00400
C 	C 	0.65521 0.97264 0.51904 0.06700
H 	H 	0.63966 0.23773 0.53302 0.08500
H 	H 	0.83081 0.28442 0.51587 0.05400
C 	C 	0.85194 0.25235 0.53114 -0.09600
C 	C 	0.84089 0.14191 0.53094 -0.00100
H 	H 	0.86375 0.45201 0.53762 0.09000
H 	H 	0.62385 0.47246 0.55212 0.04200
C 	C 	0.87851 0.31607 0.55178 0.12100
N 	N 	0.88448 0.42079 0.55222 -0.20800
C 	C 	0.69924 0.55579 0.55168 -0.02800
C 	C 	0.76087 0.59317 0.53118 0.05900
C 	C 	0.86657 0.69469 0.53153 -0.00100
C 	C 	0.89819 0.76629 0.55100 -0.10000
N 	N 	0.34032 0.38829 0.54246 -0.19200
C 	C 	0.30979 0.08562 0.56974 -0.02200
C 	C 	0.25746 0.10632 0.55093 0.05600
N 	N 	0.14749 0.07468 0.55201 -0.19200
H 	H 	0.10271 0.03991 0.56712 0.07200
H 	H 	0.10524 0.08228 0.53773 0.08500
H 	H 	0.35725 0.47250 0.54595 0.08400
H 	H 	0.35054 0.34196 0.55580 0.09300
H 	H 	0.53150 0.90459 0.54432 0.08700
C 	C 	0.48501 0.17152 0.54921 0.12300
C 	C 	0.42618 0.13287 0.57010 -0.11100
N 	N 	0.61370 0.96642 0.54056 -0.18800
H 	H 	0.66124 0.02328 0.55365 0.08900
H 	H 	0.63483 0.18847 0.56192 0.09400
H 	H 	0.87067 0.96049 0.53385 0.09400
C 	C 	0.88167 0.10714 0.54989 0.06000
N 	N 	0.88436 0.00671 0.54921 -0.20300
C 	C 	0.89093 0.26646 0.57223 -0.10900
H 	H 	0.91559 0.47418 0.56667 0.09800
C 	C 	0.73651 0.54721 0.59271 0.29800
C 	C 	0.90975 0.17226 0.57038 -0.02200
H 	H 	0.90331 0.97581 0.56403 0.09000
C 	C 	0.74490 0.61551 0.57235 -0.11000
O 	O 	0.82430 0.53505 0.59757 -0.38300
C 	C 	0.83566 0.72877 0.57129 0.13100
N 	N 	0.87157 0.79538 0.59057 -0.20500
H 	H 	0.94810 0.87184 0.59084 0.08300
H 	H 	0.26257 0.04730 0.58525 0.03800
C 	C 	0.48495 0.18629 0.59166 0.29600
O 	O 	0.50405 0.12332 0.60706 -0.38700
O 	O 	0.49585 0.28823 0.59709 -0.39200
Ni	Ni	0.57045 0.37306 0.62597 1.12000
Ni	Ni	0.64785 0.18258 0.62618 1.11900
O 	O 	0.73633 0.18881 0.59811 -0.39000
O 	O 	0.68779 0.33881 0.62115 -0.71900
H 	H 	0.68839 0.33842 0.60421 0.14800
O 	O 	0.78630 0.20950 0.64433 -0.38200
H 	H 	0.76244 0.74514 0.64438 0.09600
O 	O 	0.65807 0.52614 0.60842 -0.38000
C 	C 	0.83678 0.27598 0.59329 0.29400
H 	H 	0.93046 0.14006 0.58569 0.04100
Ni	Ni	0.83550 0.45440 0.62675 1.11400
O 	O 	0.89595 0.35806 0.60879 -0.36800
O 	O 	0.80681 0.57476 0.64440 -0.37300
H 	H 	0.82290 0.77173 0.60541 0.09700
C 	C 	0.46697 0.15705 0.70146 -0.03900
C 	C 	0.41507 0.12859 0.67976 -0.09900
C 	C 	0.30002 0.04592 0.67807 0.11200
C 	C 	0.23747 0.00267 0.69832 -0.05900
H 	H 	0.14793 0.94579 0.69715 0.05600
N 	N 	0.24954 0.00657 0.65726 -0.20700
H 	H 	0.29527 0.02739 0.64204 0.09900
H 	H 	0.16360 0.94985 0.65622 0.08800
H 	H 	0.55582 0.21619 0.70273 0.04600
C 	C 	0.48476 0.17805 0.65913 0.31100
O 	O 	0.45768 0.23304 0.64369 -0.38700
O 	O 	0.57284 0.16534 0.65646 -0.40000
H 	H 	0.13744 0.16128 0.70386 0.10400
H 	H 	0.84024 0.88091 0.65894 0.08800
O 	O 	0.63093 0.44893 0.65676 -0.39400
H 	H 	0.74830 0.33882 0.69599 0.09900
N 	N 	0.80020 0.79084 0.65944 -0.20100
C 	C 	0.83113 0.28643 0.66103 0.31200
N 	N 	0.81062 0.34950 0.70764 -0.19900
C 	C 	0.78953 0.73547 0.67967 0.11200
H 	H 	0.86095 0.89213 0.69991 0.05900
C 	C 	0.72509 0.54550 0.65922 0.31000
O 	O 	0.84985 0.39184 0.65818 -0.38200
C 	C 	0.82024 0.79867 0.70035 -0.04200
C 	C 	0.88292 0.26261 0.68096 -0.09800
C 	C 	0.88120 0.30773 0.70303 0.11000
C 	C 	0.74357 0.61430 0.68034 -0.09800
H 	H 	0.95586 0.18220 0.66021 0.05000
C 	C 	0.95007 0.21182 0.67731 -0.02900
C 	C 	0.80242 0.74243 0.72156 -0.09400
C 	C 	0.71527 0.55763 0.70158 -0.03900
C 	C 	0.01313 0.20284 0.69540 0.09700
C 	C 	0.74677 0.62050 0.72223 0.10600
H 	H 	0.67188 0.46421 0.70205 0.04800
C 	C 	0.00464 0.24020 0.71773 -0.10700
H 	H 	0.08219 0.12320 0.67520 0.08100
N 	N 	0.08113 0.15748 0.69135 -0.20200
O 	O 	0.96919 0.84591 0.74383 -0.38000
C 	C 	0.28825 0.03831 0.72005 -0.09100
C 	C 	0.40520 0.11005 0.72156 0.10400
H 	H 	0.68472 0.47337 0.74289 0.08000
N 	N 	0.72637 0.56351 0.74257 -0.20200
H 	H 	0.81337 0.38736 0.72359 0.08400
C 	C 	0.94844 0.30298 0.72072 -0.02900
C 	C 	0.86255 0.81080 0.74182 0.31300
O 	O 	0.93402 0.07323 0.74096 -0.37600
C 	C 	0.01389 0.17851 0.73765 0.30200
C 	C 	0.21806 0.03182 0.73962 0.30200
Ni	Ni	0.05036 0.88662 0.77434 1.11600
O 	O 	0.19496 0.11546 0.74236 -0.40000
O 	O 	0.19257 0.95255 0.75557 -0.37700
N 	N 	0.45827 0.13595 0.74231 -0.20200
H 	H 	0.54405 0.19325 0.74346 0.08000
H 	H 	0.41574 0.09616 0.75736 0.09800
H 	H 	0.75257 0.60772 0.75820 0.09500
O 	O 	0.08681 0.23469 0.75411 -0.38000
H 	H 	0.68055 0.65413 0.79060 0.10100
O 	O 	0.81128 0.84180 0.75694 -0.37300
Ni	Ni	0.89104 0.00245 0.77332 1.11100
H 	H 	0.94502 0.33494 0.73773 0.04900
Ni	Ni	0.16071 0.16039 0.77277 1.12000
O 	O 	0.03197 0.01734 0.77924 -0.72900
H 	H 	0.59471 0.51518 0.80302 0.08500
N 	N 	0.65978 0.59998 0.80483 -0.20100
O 	O 	0.94229 0.16339 0.78931 -0.36100
O 	O 	0.90544 0.78554 0.79244 -0.37200
O 	O 	0.26364 0.11751 0.79067 -0.38300
H 	H 	0.45336 0.12078 0.80211 0.04900
H 	H 	0.03417 0.02065 0.79619 0.14600
O 	O 	0.83959 0.90981 0.80342 -0.36800
C 	C 	0.85839 0.82322 0.80794 0.28900
H 	H 	0.94708 0.36241 0.80497 0.04900
H 	H 	0.88443 0.48594 0.82146 0.09000
C 	C 	0.23223 0.03361 0.80630 0.27600
O 	O 	0.14668 0.92855 0.80254 -0.38100
O 	O 	0.12548 0.22690 0.80080 -0.37900
H 	H 	0.64098 0.18704 0.81485 0.08500
H 	H 	0.59551 0.48479 0.84364 0.05100
C 	C 	0.70808 0.64082 0.82574 0.10800
C 	C 	0.80281 0.75184 0.82812 -0.08700
C 	C 	0.96544 0.34480 0.82218 -0.02500
C 	C 	0.02400 0.21154 0.80496 0.27800
N 	N 	0.77892 0.52598 0.99498 -0.20700
C 	C 	0.50368 0.11384 0.83698 0.11200
C 	C 	0.42545 0.09613 0.81965 -0.04700
C 	C 	0.31158 0.04759 0.82487 -0.08400
N 	N 	0.61367 0.16112 0.83166 -0.20200
H 	H 	0.67232 0.16882 0.84404 0.10300
C 	C 	0.66117 0.57372 0.84545 -0.03900
H 	H 	0.89809 0.51804 0.85170 0.10600
N 	N 	0.90482 0.47101 0.83798 -0.19900
C 	C 	0.94523 0.39709 0.84124 0.10300
C 	C 	0.00837 0.26929 0.82524 -0.10500
C 	C 	0.27447 0.00621 0.84745 0.09500
H 	H 	0.10588 0.95949 0.84205 0.08800
C 	C 	0.46774 0.08560 0.85992 -0.09800
C 	C 	0.70390 0.61813 0.86738 -0.10100
C 	C 	0.78503 0.73563 0.86976 0.11100
C 	C 	0.83655 0.80056 0.85009 -0.04600
H 	H 	0.90260 0.88931 0.85191 0.04700
C 	C 	0.96484 0.37032 0.86368 -0.07900
C 	C 	0.03957 0.25288 0.84764 0.11000
N 	N 	0.07784 0.17733 0.85140 -0.20000
H 	H 	0.07536 0.12133 0.83852 0.08200
C 	C 	0.35331 0.02040 0.86442 -0.05300
N 	N 	0.16486 0.95867 0.85325 -0.19300
C 	C 	0.54071 0.15753 0.87857 0.31300
O 	O 	0.55234 0.26007 0.88146 -0.38300
C 	C 	0.69547 0.53719 0.88527 0.31800
O 	O 	0.79347 0.27033 0.88391 -0.39600
O 	O 	0.77521 0.51160 0.88707 -0.39900
C 	C 	0.89045 0.36393 0.88236 0.31100
C 	C 	0.02359 0.30977 0.86645 -0.06200
H 	H 	0.32590 0.99366 0.88192 0.05700
H 	H 	0.13832 0.92480 0.86969 0.08000
O 	O 	0.57535 0.11223 0.89451 -0.38100
Ni	Ni	0.55741 0.32647 0.91382 1.11200
O 	O 	0.60634 0.48593 0.89826 -0.37500
H 	H 	0.77359 0.74081 0.90569 0.09700
N 	N 	0.81561 0.78539 0.89094 -0.20400
H 	H 	0.87915 0.87095 0.89274 0.08700
O 	O 	0.92732 0.44210 0.89896 -0.38100
H 	H 	0.10480 0.16939 0.86779 0.07800
H 	H 	0.04337 0.29385 0.88368 0.04600
Ni	Ni	0.71618 0.20851 0.91375 1.12000
O 	O 	0.69587 0.33707 0.92087 -0.71400
Ni	Ni	0.82617 0.48267 0.91751 1.12000
H 	H 	0.36000 0.91927 0.93936 0.10100
H 	H 	0.31825 0.80679 0.96026 0.08200
H 	H 	0.40672 0.63559 0.97141 0.07900
O 	O 	0.47695 0.16287 0.92941 -0.37800
O 	O 	0.57319 0.41186 0.94440 -0.38000
H 	H 	0.56301 0.63307 0.95423 0.04500
H 	H 	0.69249 0.33206 0.93778 0.15300
O 	O 	0.75182 0.55975 0.93621 -0.37800
O 	O 	0.85940 0.27345 0.93314 -0.38300
N 	N 	0.36098 0.89470 0.95637 -0.20600
N 	N 	0.41533 0.59537 0.98609 -0.19300
C 	C 	0.52550 0.12947 0.94524 0.29900
O 	O 	0.61892 0.12684 0.94089 -0.38600
C 	C 	0.58054 0.60565 0.97054 -0.02200
C 	C 	0.66611 0.50559 0.95076 0.29200
C 	C 	0.88773 0.35377 0.94958 0.29800
O 	O 	0.89114 0.45348 0.94563 -0.39300
H 	H 	0.34783 0.55669 0.99729 0.08300
C 	C 	0.41238 0.97473 0.97329 0.13800
C 	C 	0.47507 0.09329 0.96799 -0.12500
C 	C 	0.50806 0.58481 0.98914 0.06100
C 	C 	0.65869 0.56680 0.97127 -0.10400
H 	H 	0.10694 0.42825 0.94256 0.09400
H 	H 	0.36061 0.84809 0.00032 0.04900
C 	C 	0.40495 0.93927 0.99625 -0.08100
C 	C 	0.68962 0.54311 0.99294 0.11900
H 	H 	0.78083 0.21922 0.98579 0.04200
H 	H 	0.83093 0.53825 0.98099 0.09900
C 	C 	0.93723 0.34333 0.97111 -0.10200
N 	N 	0.12639 0.46552 0.95897 -0.20400
C 	C 	0.52924 0.54583 0.01032 -0.00100
H 	H 	0.42109 0.32113 0.01400 0.08800
