data_crystal

_cell_length_a 19.68774
_cell_length_b 21.55881
_cell_length_c 30.52109
_cell_angle_alpha 60.90041
_cell_angle_beta  118.80288
_cell_angle_gamma 133.24766

_symmetry_space_group_name_	'P 1'
_symmetry_space_group_name_H-M	'P 1'

loop_
_symmetry_equiv_pos_as_xyz
  x,y,z

loop_
_atom_site_label
_atom_site_type_symbol
_atom_site_fract_x
_atom_site_fract_y
_atom_site_fract_z
_atom_site_charge
O 	O 	0.02866 0.91926 0.98215 -0.38300
Co	Co	0.02581 0.89029 0.12776 1.17800
C 	C 	0.02646 0.98638 0.94940 0.30300
O 	O 	0.02817 0.03625 0.96519 -0.38700
C 	C 	0.00160 0.30235 0.54874 -0.21700
H 	H 	0.00669 0.27525 0.59072 0.08000
Co	Co	0.03474 0.12037 0.09408 1.17400
C 	C 	0.04390 0.68765 0.56001 -0.20300
C 	C 	0.01254 0.13366 0.67350 0.29100
C 	C 	0.00518 0.49797 0.67669 -0.19000
H 	H 	0.07437 0.67122 0.54828 0.06500
O 	O 	0.03543 0.97616 0.24823 -0.36000
O 	O 	0.04245 0.79845 0.08266 -0.41300
O 	O 	0.06423 0.02955 0.49219 -0.37700
C 	C 	0.03235 0.99294 0.82434 0.03200
C 	C 	0.03420 0.98022 0.32821 -0.04300
H 	H 	0.02948 0.28485 0.53591 0.07800
H 	H 	0.04752 0.37514 0.54050 0.06900
H 	H 	0.08172 0.75956 0.54521 0.05100
C 	C 	0.07693 0.01191 0.42232 -0.11900
Co	Co	0.08224 0.05228 0.04214 1.17200
O 	O 	0.08273 0.15159 0.03504 -0.47900
O 	O 	0.07078 0.95734 0.07350 -0.74800
O 	O 	0.04654 0.10872 0.66174 -0.41500
O 	O 	0.05772 0.91337 0.59020 -0.75000
C 	C 	0.03877 0.61153 0.70381 -0.02500
H 	H 	0.06018 0.66873 0.60253 0.08000
C 	C 	0.06499 0.01741 0.86994 0.01800
H 	H 	0.08414 0.01542 0.80646 0.03000
H 	H 	0.01680 0.26064 0.79277 0.06300
H 	H 	0.04676 0.50493 0.65771 0.06500
C 	C 	0.10398 0.01438 0.47723 0.31000
O 	O 	0.08909 0.17749 0.19983 -0.39300
Co	Co	0.08779 0.01561 0.57107 1.17400
O 	O 	0.08423 0.10919 0.56901 -0.47900
O 	O 	0.10394 0.78085 0.63204 -0.41600
O 	O 	0.07976 0.80484 0.68646 -0.39600
C 	C 	0.06922 0.56508 0.70800 0.03400
H 	H 	0.06464 0.36423 0.07065 0.07400
C 	C 	0.05220 0.19243 0.74185 -0.02300
H 	H 	0.04388 0.18184 0.82906 0.07500
C 	C 	0.00361 0.98866 0.27099 0.29200
H 	H 	0.08520 0.41359 0.74961 0.04500
Co	Co	0.13180 0.93114 0.05012 1.17300
Co	Co	0.13206 0.89284 0.57359 1.17300
C 	C 	0.10445 0.76780 0.67858 0.30900
C 	C 	0.07892 0.20376 0.70174 -0.10200
C 	C 	0.07185 0.25009 0.80503 -0.18000
C 	C 	0.10598 0.69221 0.71772 -0.10700
C 	C 	0.09360 0.26530 0.75823 0.03900
C 	C 	0.12973 0.04100 0.35149 0.05200
O 	O 	0.13955 0.87926 0.17737 -0.38600
C 	C 	0.14171 0.39314 0.08031 -0.20400
H 	H 	0.15001 0.35681 0.06948 0.07400
H 	H 	0.14288 0.62055 0.11768 0.06100
H 	H 	0.13058 0.75806 0.26442 0.08400
C 	C 	0.15032 0.05639 0.39808 -0.01200
H 	H 	0.01536 0.34115 0.98250 0.07000
C 	C 	0.14220 0.24141 0.16616 0.29500
H 	H 	0.15188 0.51305 0.20584 0.04600
O 	O 	0.14880 0.22425 0.13201 -0.38700
O 	O 	0.16819 0.00091 0.51093 -0.42200
C 	C 	0.15068 0.28895 0.67958 0.09200
H 	H 	0.14984 0.27763 0.61258 0.06800
H 	H 	0.16814 0.72343 0.07391 0.06000
N 	N 	0.16551 0.07039 0.89174 -0.01300
H 	H 	0.13762 0.29487 0.82977 0.07300
C 	C 	0.15809 0.46064 0.74530 -0.07900
C 	C 	0.15303 0.35142 0.72966 -0.01300
C 	C 	0.16175 0.58680 0.73888 -0.01100
C 	C 	0.19640 0.88533 0.16138 0.29900
C 	C 	0.17842 0.36184 0.68924 -0.08500
C 	C 	0.18341 0.39236 0.13668 0.09000
H 	H 	0.17891 0.46181 0.05665 0.06500
C 	C 	0.19886 0.80864 0.17811 -0.11300
H 	H 	0.20189 0.82893 0.10213 0.01000
H 	H 	0.18422 0.49953 0.12629 0.04600
C 	C 	0.19457 0.69278 0.11294 -0.17100
C 	C 	0.20104 0.78870 0.14133 -0.00400
C 	C 	0.20102 0.30245 0.64767 -0.20100
C 	C 	0.20508 0.33176 0.17249 -0.09900
C 	C 	0.20685 0.55195 0.73794 0.03200
C 	C 	0.20610 0.43119 0.74762 0.03400
N 	N 	0.20671 0.08558 0.32909 -0.01600
C 	C 	0.19286 0.70812 0.75330 0.09500
C 	C 	0.20023 0.45283 0.15389 -0.08300
C 	C 	0.20398 0.75851 0.22992 0.10000
C 	C 	0.20222 0.71739 0.15451 0.02800
C 	C 	0.20295 0.77770 0.27087 -0.20700
O 	O 	0.20950 0.15248 0.88777 -0.12400
O 	O 	0.21464 0.03933 0.91064 -0.12900
C 	C 	0.99903 0.99214 0.89295 -0.02800
H 	H 	0.99694 0.12731 0.75918 0.04100
H 	H 	0.96675 0.43082 0.70163 0.06800
H 	H 	0.96785 0.59410 0.68082 0.04300
O 	O 	0.22822 0.94654 0.12043 -0.39200
O 	O 	0.22381 0.06058 0.01473 -0.41300
O 	O 	0.22890 0.12382 0.05915 -0.42000
Co	Co	0.97619 0.05232 0.59992 1.17200
O 	O 	0.92376 0.10972 0.65248 -0.41500
C 	C 	0.90014 0.92992 0.74778 0.29600
O 	O 	0.25363 0.97119 0.62104 -0.37900
O 	O 	0.23173 0.07021 0.61035 -0.39700
C 	C 	0.86819 0.91862 0.82412 0.09900
C 	C 	0.90169 0.94713 0.86789 -0.05100
H 	H 	0.85016 0.92643 0.88522 0.06100
N 	N 	0.76714 0.85946 0.80583 -0.01900
O 	O 	0.71770 0.89058 0.77394 -0.11600
C 	C 	0.98191 0.94924 0.39979 0.12900
C 	C 	0.96211 0.93132 0.35454 -0.04300
H 	H 	0.88853 0.88396 0.33750 0.06100
N 	N 	0.90459 0.90435 0.42195 -0.02300
O 	O 	0.21704 0.04063 0.31909 -0.12100
O 	O 	0.84582 0.81906 0.43225 -0.11500
H 	H 	0.22570 0.42734 0.66781 0.04700
H 	H 	0.23424 0.26679 0.67084 0.07900
H 	H 	0.25882 0.37299 0.63528 0.06800
H 	H 	0.94983 0.50645 0.64537 0.06900
C 	C 	0.25791 0.34350 0.22260 -0.02200
H 	H 	0.28072 0.30151 0.24933 0.05900
C 	C 	0.75035 0.35736 0.98850 0.06700
C 	C 	0.81302 0.43909 0.00116 -0.11900
C 	C 	0.77522 0.47919 0.99690 0.07200
C 	C 	0.67716 0.44019 0.97740 -0.09500
C 	C 	0.61489 0.35463 0.97225 0.04400
C 	C 	0.65134 0.31819 0.97101 -0.09200
H 	H 	0.88904 0.46855 0.01657 0.05600
H 	H 	0.64802 0.47000 0.97537 0.05700
H 	H 	0.60224 0.25364 0.96354 0.05700
C 	C 	0.72256 0.30987 0.49185 0.03500
C 	C 	0.76636 0.40005 0.48188 -0.08000
C 	C 	0.73518 0.42665 0.49803 0.03600
C 	C 	0.65918 0.36311 0.52245 -0.08300
C 	C 	0.60888 0.27447 0.52707 0.03800
C 	C 	0.64238 0.24711 0.51386 -0.08100
H 	H 	0.82695 0.44896 0.46405 0.05000
H 	H 	0.63887 0.38268 0.53810 0.05200
H 	H 	0.60819 0.17765 0.52208 0.04800
C 	C 	0.27432 0.63955 0.22386 0.03500
C 	C 	0.22941 0.55760 0.21643 -0.08200
C 	C 	0.28608 0.53660 0.21961 0.03600
C 	C 	0.38577 0.59704 0.23006 -0.08200
C 	C 	0.42930 0.67965 0.23407 0.03800
C 	C 	0.37468 0.69753 0.23584 -0.08100
H 	H 	0.42893 0.58358 0.22907 0.05200
H 	H 	0.40933 0.76189 0.23928 0.05500
C 	C 	0.30152 0.61132 0.73110 -0.07800
C 	C 	0.34899 0.57969 0.73643 0.03600
C 	C 	0.30523 0.48962 0.75295 -0.08000
H 	H 	0.33673 0.68149 0.72009 0.05200
H 	H 	0.34402 0.46573 0.75959 0.05100
Co	Co	0.96070 0.95148 0.17340 1.19100
C 	C 	0.27011 0.12519 0.03503 0.32500
Co	Co	0.94472 0.09075 0.17442 1.16400
C 	C 	0.95187 0.75786 0.07803 0.31300
O 	O 	0.95342 0.19064 0.10946 -0.42000
O 	O 	0.98114 0.05034 0.14452 -0.77200
C 	C 	0.91344 0.17866 0.06306 0.31100
O 	O 	0.96575 0.85440 0.18253 -0.46100
C 	C 	0.77184 0.91284 0.16435 0.30100
O 	O 	0.99886 0.99191 0.10007 -0.57000
O 	O 	0.92900 0.14153 0.04862 -0.40100
O 	O 	0.80619 0.99666 0.14512 -0.38800
O 	O 	0.81543 0.88206 0.16848 -0.38100
O 	O 	0.93507 0.99857 0.24417 -0.39300
O 	O 	0.92588 0.78109 0.09684 -0.39000
Co	Co	0.88341 0.87623 0.66436 1.17800
Co	Co	0.98101 0.83057 0.62919 1.18400
C 	C 	0.28486 0.05243 0.61089 0.28000
Co	Co	0.80435 0.98565 0.63971 1.17800
C 	C 	0.93207 0.74101 0.55290 0.29700
O 	O 	0.77675 0.04206 0.56251 -0.40100
O 	O 	0.88176 0.96425 0.62664 -0.74700
C 	C 	0.84629 0.11439 0.54021 0.30100
O 	O 	0.90678 0.78791 0.67891 -0.46500
C 	C 	0.67545 0.79496 0.65324 0.30700
O 	O 	0.95496 0.93362 0.60057 -0.55900
O 	O 	0.91453 0.11642 0.53922 -0.38600
O 	O 	0.68440 0.86763 0.62316 -0.38400
O 	O 	0.73553 0.78115 0.65883 -0.38400
O 	O 	0.82091 0.92280 0.71775 -0.38800
O 	O 	0.94213 0.91517 0.73366 -0.38600
O 	O 	0.99951 0.81639 0.52997 -0.37300
O 	O 	0.90150 0.73667 0.58623 -0.37100
C 	C 	0.93391 0.94298 0.80101 -0.09200
O 	O 	0.72278 0.77660 0.82947 -0.13000
H 	H 	0.22419 0.10067 0.41637 0.04800
O 	O 	0.27391 0.16913 0.32580 -0.12900
O 	O 	0.88365 0.94862 0.42367 -0.09900
C 	C 	0.51849 0.64538 0.74678 -0.08100
C 	C 	0.43367 0.63745 0.71446 -0.00700
C 	C 	0.42315 0.66670 0.66030 0.03100
C 	C 	0.50042 0.70999 0.63997 -0.01300
C 	C 	0.58715 0.72260 0.67258 -0.10900
C 	C 	0.59283 0.68297 0.72585 0.10900
C 	C 	0.67511 0.67640 0.75989 -0.20900
H 	H 	0.52444 0.61804 0.78801 0.05900
H 	H 	0.49453 0.73735 0.59874 0.04600
C 	C 	0.33035 0.65299 0.62397 -0.17500
H 	H 	0.66500 0.63708 0.79971 0.08000
H 	H 	0.74331 0.74274 0.76216 0.09200
H 	H 	0.68069 0.64377 0.74397 0.08200
H 	H 	0.32052 0.69595 0.62653 0.06500
H 	H 	0.26855 0.58333 0.63353 0.06300
H 	H 	0.32991 0.66921 0.58331 0.06200
C 	C 	0.21885 0.65369 0.76487 -0.08500
C 	C 	0.26289 0.78824 0.77443 -0.20700
H 	H 	0.28698 0.66781 0.79109 0.05300
H 	H 	0.30811 0.84558 0.74680 0.07800
H 	H 	0.31006 0.77812 0.81204 0.07300
H 	H 	0.22429 0.80262 0.78077 0.08300
C 	C 	0.24252 0.45662 0.20584 -0.01500
C 	C 	0.26751 0.39822 0.24091 0.03800
C 	C 	0.30736 0.39583 0.29764 -0.18000
H 	H 	0.27587 0.41005 0.31031 0.06700
H 	H 	0.38649 0.44492 0.30558 0.06400
H 	H 	0.29014 0.32980 0.32110 0.07200
C 	C 	0.68595 0.80896 0.23426 -0.01600
C 	C 	0.68317 0.85195 0.18182 -0.10900
C 	C 	0.59931 0.84561 0.14833 0.10100
C 	C 	0.52131 0.80002 0.16841 -0.08600
C 	C 	0.52188 0.75269 0.22012 -0.01000
C 	C 	0.60634 0.76055 0.25390 0.03600
C 	C 	0.61009 0.71370 0.31026 -0.18000
H 	H 	0.75083 0.81456 0.25993 0.04300
H 	H 	0.45664 0.79491 0.14278 0.05000
C 	C 	0.59205 0.88639 0.09117 -0.20500
H 	H 	0.68530 0.74363 0.33347 0.07500
H 	H 	0.57522 0.64362 0.31523 0.06400
H 	H 	0.57264 0.71777 0.32564 0.07200
H 	H 	0.62882 0.88018 0.07674 0.08100
H 	H 	0.62468 0.95673 0.08316 0.08400
H 	H 	0.51600 0.85335 0.06918 0.06900
C 	C 	0.21404 0.69174 0.24377 -0.08800
C 	C 	0.21935 0.67475 0.20679 -0.00900
H 	H 	0.22479 0.65754 0.28393 0.05100
H 	H 	0.26591 0.71483 0.11494 0.06300
H 	H 	0.25708 0.84875 0.27000 0.08500
H 	H 	0.22036 0.74089 0.31010 0.07100
C 	C 	0.74688 0.16593 0.47246 -0.01500
C 	C 	0.83570 0.18683 0.50702 -0.10700
C 	C 	0.89891 0.26714 0.52136 0.10100
C 	C 	0.86335 0.31130 0.51341 -0.08800
C 	C 	0.76845 0.28142 0.48622 -0.00900
C 	C 	0.71405 0.21465 0.46060 0.03000
C 	C 	0.61992 0.19266 0.42240 -0.17600
H 	H 	0.70034 0.10805 0.45786 0.04100
H 	H 	0.90811 0.36615 0.53050 0.05000
H 	H 	0.60789 0.16986 0.39195 0.06500
H 	H 	0.61900 0.25111 0.40297 0.06900
H 	H 	0.56024 0.13959 0.44239 0.06500
C 	C 	0.78738 0.62163 0.50894 -0.01500
C 	C 	0.88327 0.66185 0.53672 -0.09500
C 	C 	0.93675 0.63761 0.53883 0.09600
C 	C 	0.88865 0.56340 0.52227 -0.08400
C 	C 	0.79141 0.51981 0.49760 -0.01000
C 	C 	0.74421 0.55643 0.48534 0.03500
C 	C 	0.64800 0.52603 0.44773 -0.17700
H 	H 	0.74816 0.64460 0.50300 0.05100
H 	H 	0.92636 0.53750 0.53058 0.04800
H 	H 	0.64598 0.58324 0.42204 0.06600
H 	H 	0.59066 0.48073 0.46907 0.06200
H 	H 	0.63342 0.49220 0.42282 0.06500
C 	C 	0.52924 0.16674 0.59947 -0.08700
C 	C 	0.52207 0.21075 0.54716 -0.01400
C 	C 	0.44065 0.21120 0.51823 0.03400
C 	C 	0.37080 0.17218 0.54287 -0.01900
C 	C 	0.37497 0.12352 0.59422 -0.11000
C 	C 	0.45766 0.12536 0.62363 0.09400
C 	C 	0.46800 0.08012 0.68027 -0.20000
H 	H 	0.59270 0.16805 0.62193 0.04800
H 	H 	0.30887 0.17340 0.52084 0.03800
C 	C 	0.42930 0.25510 0.46134 -0.17800
H 	H 	0.54480 0.11103 0.70074 0.06500
H 	H 	0.43246 0.00988 0.68525 0.06800
H 	H 	0.43525 0.08484 0.69864 0.07300
H 	H 	0.44519 0.23567 0.44175 0.07200
H 	H 	0.47877 0.32746 0.45552 0.06300
H 	H 	0.35516 0.23633 0.44260 0.06700
C 	C 	0.84471 0.33071 0.97588 -0.07200
C 	C 	0.78489 0.30477 0.00310 -0.03700
C 	C 	0.75181 0.22465 0.04147 0.03400
C 	C 	0.77483 0.17047 0.04971 -0.02100
C 	C 	0.84658 0.20276 0.02906 -0.12300
C 	C 	0.87516 0.27957 0.98833 0.10100
C 	C 	0.94031 0.30876 0.95939 -0.20400
H 	H 	0.86800 0.39061 0.94537 0.04800
H 	H 	0.74894 0.10911 0.07899 0.02600
C 	C 	0.69608 0.19842 0.07547 -0.17700
H 	H 	0.93724 0.35581 0.92179 0.07000
H 	H 	0.91825 0.25144 0.95132 0.08100
H 	H 	0.61926 0.16719 0.05526 0.05900
H 	H 	0.72506 0.25642 0.08611 0.06000
H 	H 	0.70125 0.15062 0.11206 0.05500
C 	C 	0.88195 0.60334 0.09320 -0.02000
C 	C 	0.88215 0.67687 0.06010 -0.10300
C 	C 	0.84820 0.68366 0.00662 0.07500
C 	C 	0.83510 0.62905 0.98653 -0.05200
C 	C 	0.83373 0.55481 0.01912 -0.04400
C 	C 	0.85742 0.54186 0.07325 0.04400
C 	C 	0.85620 0.46268 0.10982 -0.18000
H 	H 	0.90725 0.59717 0.13448 0.04200
H 	H 	0.81392 0.63794 0.94506 0.04900
C 	C 	0.82034 0.74518 0.97080 -0.19500
H 	H 	0.87444 0.46145 0.15068 0.06300
H 	H 	0.90972 0.46387 0.10524 0.06300
H 	H 	0.78372 0.40137 0.10207 0.06300
H 	H 	0.85709 0.78655 0.93869 0.09000
H 	H 	0.83869 0.78854 0.99034 0.08500
H 	H 	0.74171 0.70637 0.95441 0.08000
C 	C 	0.36844 0.25681 0.97497 0.01400
C 	C 	0.36396 0.20308 0.02522 -0.13400
C 	C 	0.44606 0.20718 0.05934 0.11000
C 	C 	0.52483 0.25185 0.04027 -0.10400
C 	C 	0.52454 0.29625 0.98808 0.00400
C 	C 	0.44643 0.30035 0.95528 0.03100
C 	C 	0.44656 0.35177 0.89972 -0.17300
H 	H 	0.30753 0.25861 0.94992 0.04300
H 	H 	0.58810 0.25497 0.06645 0.04900
C 	C 	0.44702 0.15779 0.11521 -0.21300
H 	H 	0.37441 0.33630 0.87716 0.07400
H 	H 	0.46787 0.33560 0.88126 0.07200
H 	H 	0.49772 0.42322 0.89768 0.06400
H 	H 	0.41748 0.08962 0.11942 0.07600
H 	H 	0.40380 0.15609 0.12987 0.08200
H 	H 	0.52128 0.18996 0.13952 0.06800
