data_crystal

_cell_length_a 18.25333
_cell_length_b 17.40204
_cell_length_c 46.82731
_cell_angle_alpha 90.72963
_cell_angle_beta  91.04559
_cell_angle_gamma 110.61433

_symmetry_space_group_name_	'P 1'
_symmetry_space_group_name_H-M	'P 1'

loop_
_symmetry_equiv_pos_as_xyz
  x,y,z

loop_
_atom_site_label
_atom_site_type_symbol
_atom_site_fract_x
_atom_site_fract_y
_atom_site_fract_z
_atom_site_charge
C 	C 	0.53509 0.26955 0.68526 0.29600
O 	O 	0.10464 0.89183 0.74941 -0.69200
Ni	Ni	0.11990 0.00089 0.76875 1.09200
O 	O 	0.15538 0.78679 0.71076 -0.39600
Ni	Ni	0.20610 0.89157 0.73701 1.07000
O 	O 	0.20044 0.97796 0.70895 -0.41000
O 	O 	0.20635 0.00274 0.79733 -0.39100
O 	O 	0.03478 0.99611 0.73952 -0.69300
O 	O 	0.10490 0.09953 0.78942 -0.36300
H 	H 	0.07972 0.84557 0.76219 0.15500
H 	H 	0.04844 0.04659 0.72813 0.14800
C 	C 	0.22658 0.05578 0.71747 0.26400
C 	C 	0.08731 0.76706 0.69705 0.29600
C 	C 	0.27364 0.00023 0.78875 0.28100
C 	C 	0.03420 0.09479 0.79712 0.26500
O 	O 	0.20127 0.07836 0.74158 -0.36500
O 	O 	0.28261 0.98373 0.76179 -0.40000
Ni	Ni	0.32954 0.76840 0.39996 1.10400
O 	O 	0.30692 0.70276 0.36249 -0.70300
Ni	Ni	0.19885 0.70115 0.35215 1.09900
O 	O 	0.41619 0.72619 0.41267 -0.37300
O 	O 	0.33763 0.59219 0.40691 -0.41200
O 	O 	0.41288 0.86672 0.38160 -0.36200
Ni	Ni	0.30909 0.59122 0.36356 1.07000
O 	O 	0.33007 0.94575 0.41113 -0.39400
O 	O 	0.19631 0.52482 0.37419 -0.39800
O 	O 	0.16668 0.61528 0.31914 -0.37100
O 	O 	0.22919 0.78020 0.38690 -0.70100
O 	O 	0.34697 0.83971 0.43575 -0.35800
O 	O 	0.09985 0.72776 0.34389 -0.36000
O 	O 	0.16681 0.86614 0.34524 -0.41500
Ni	Ni	0.25115 0.89538 0.37816 1.06600
H 	H 	0.34245 0.73281 0.34748 0.15700
H 	H 	0.19004 0.76300 0.40210 0.16100
C 	C 	0.15501 0.55623 0.38997 0.28900
O 	O 	0.33549 0.90185 0.34925 -0.40900
C 	C 	0.39808 0.64894 0.41952 0.28000
C 	C 	0.20158 0.56166 0.31389 0.29800
C 	C 	0.40365 0.89775 0.35693 0.28300
C 	C 	0.10047 0.80323 0.34659 0.27700
C 	C 	0.33196 0.90840 0.43554 0.27300
O 	O 	0.13430 0.61608 0.38029 -0.37700
O 	O 	0.27517 0.57674 0.32184 -0.41800
Ni	Ni	0.36857 0.66690 0.14053 1.09900
O 	O 	0.27188 0.63991 0.11371 -0.69700
Ni	Ni	0.20265 0.68558 0.13706 1.09900
O 	O 	0.42320 0.60260 0.11726 -0.35700
O 	O 	0.31555 0.48942 0.10858 -0.39900
O 	O 	0.43087 0.76212 0.11492 -0.36800
Ni	Ni	0.21681 0.52164 0.10712 1.07200
O 	O 	0.46998 0.83557 0.16520 -0.40300
O 	O 	0.20905 0.50528 0.14988 -0.41400
O 	O 	0.10930 0.65558 0.10913 -0.36500
O 	O 	0.30131 0.71605 0.16267 -0.70100
O 	O 	0.46129 0.70176 0.16861 -0.37300
O 	O 	0.15270 0.75143 0.16221 -0.35900
O 	O 	0.25922 0.86817 0.16019 -0.39600
Ni	Ni	0.35804 0.83577 0.16278 1.06800
H 	H 	0.28436 0.66784 0.09528 0.16100
H 	H 	0.29121 0.69407 0.18218 0.16100
C 	C 	0.15094 0.51567 0.16305 0.29700
O 	O 	0.35885 0.84410 0.11945 -0.40500
C 	C 	0.38321 0.54044 0.10061 0.29100
C 	C 	0.09199 0.58822 0.09338 0.28600
C 	C 	0.40269 0.81527 0.10404 0.29000
C 	C 	0.19354 0.82557 0.17221 0.28100
C 	C 	0.49043 0.77852 0.17789 0.28400
O 	O 	0.14072 0.58700 0.16213 -0.36300
O 	O 	0.10671 0.52490 0.10356 -0.41200
O 	O 	0.04145 0.19572 0.25585 -0.37800
O 	O 	0.08818 0.06010 0.26098 -0.40200
O 	O 	0.00894 0.05202 0.22150 -0.36500
O 	O 	0.96496 0.03243 0.33530 -0.42100
Ni	Ni	0.02247 0.04829 0.29676 1.06400
O 	O 	0.04994 0.17145 0.30323 -0.40800
C 	C 	0.05588 0.22271 0.28237 0.28600
C 	C 	0.05821 0.02560 0.23591 0.25700
C 	C 	0.08927 0.44365 0.17500 -0.07200
C 	C 	0.05780 0.45149 0.20156 -0.02800
C 	C 	0.99875 0.38453 0.21319 0.04900
C 	C 	0.96979 0.30885 0.19793 -0.07700
C 	C 	0.05951 0.36761 0.15969 0.04300
S 	S 	0.96319 0.39585 0.24709 -0.05200
H 	H 	0.04547 0.35752 0.10497 0.04000
H 	H 	0.90026 0.42082 0.24397 0.03900
H 	H 	0.08014 0.50932 0.21341 0.05200
S 	S 	0.47135 0.75529 0.24290 -0.07400
H 	H 	0.46918 0.67797 0.24939 0.04000
C 	C 	0.15721 0.86833 0.19196 -0.07500
C 	C 	0.07600 0.85077 0.19059 -0.01600
C 	C 	0.04252 0.89876 0.20622 0.02900
C 	C 	0.09120 0.96893 0.22173 -0.06400
C 	C 	0.17160 0.98331 0.22453 -0.01300
C 	C 	0.20418 0.93146 0.21077 0.04200
S 	S 	0.93995 0.86583 0.20842 -0.03400
S 	S 	0.30181 0.94196 0.21912 -0.09400
H 	H 	0.35100 0.99659 0.20099 0.03100
H 	H 	0.91656 0.81840 0.23203 0.03000
H 	H 	0.03879 0.79991 0.17738 0.05800
H 	H 	0.20878 0.03431 0.23770 0.03900
H 	H 	0.44569 0.05191 0.33720 0.04400
C 	C 	0.08668 0.31183 0.28848 -0.08100
C 	C 	0.14515 0.36352 0.27125 -0.02400
C 	C 	0.17923 0.44745 0.27795 0.03800
C 	C 	0.15494 0.48006 0.30217 -0.08100
C 	C 	0.09159 0.43008 0.31769 -0.02100
C 	C 	0.05814 0.34611 0.31137 0.03100
S 	S 	0.24958 0.51159 0.25520 -0.04700
H 	H 	0.32285 0.51639 0.26431 0.03700
H 	H 	0.16489 0.33823 0.25290 0.05400
H 	H 	0.07047 0.45597 0.33555 0.05400
C 	C 	0.91133 0.88965 0.34363 -0.08900
C 	C 	0.92335 0.84635 0.31976 -0.04500
C 	C 	0.98362 0.81407 0.32050 0.03900
C 	C 	0.02606 0.81779 0.34625 -0.08800
C 	C 	0.00089 0.84380 0.37148 -0.03600
C 	C 	0.94223 0.87821 0.37029 0.04300
S 	S 	0.00974 0.77627 0.28868 -0.04800
S 	S 	0.91428 0.91532 0.40182 -0.02700
H 	H 	0.06274 0.83972 0.27461 0.02700
H 	H 	0.89421 0.84857 0.29958 0.02700
H 	H 	0.02992 0.84165 0.39171 0.02400
C 	C 	0.30765 0.94520 0.51313 -0.01300
C 	C 	0.37622 0.01313 0.51928 -0.00500
C 	C 	0.42275 0.05493 0.49689 -0.04400
C 	C 	0.40498 0.02556 0.46869 0.00300
C 	C 	0.33937 0.95394 0.46275 -0.05700
C 	C 	0.28923 0.91646 0.48490 -0.00600
C 	C 	0.37879 0.09601 0.56376 -0.04800
C 	C 	0.31728 0.12132 0.55208 0.09500
C 	C 	0.25711 0.90335 0.53576 0.08900
C 	C 	0.45644 0.06692 0.44621 0.08400
N 	N 	0.26800 0.14158 0.54270 -0.11700
N 	N 	0.49766 0.10002 0.42820 -0.11100
H 	H 	0.23807 0.86212 0.48031 0.03600
H 	H 	0.47444 0.10861 0.50159 0.05200
C 	C 	0.02260 0.43806 0.46143 0.01900
C 	C 	0.08398 0.51328 0.46523 -0.06100
C 	C 	0.13021 0.55028 0.44233 0.02600
C 	C 	0.11548 0.51173 0.41510 -0.08700
C 	C 	0.05679 0.43401 0.41155 0.01900
C 	C 	0.01029 0.39685 0.43463 -0.05100
C 	C 	0.19286 0.62774 0.44708 0.04500
N 	N 	0.24306 0.68972 0.45131 -0.14000
N 	N 	0.84235 0.47364 0.44314 -0.11500
H 	H 	0.09449 0.54406 0.48602 0.05400
H 	H 	0.04584 0.40369 0.39071 0.03500
C 	C 	0.51119 0.56427 0.52571 0.02100
C 	C 	0.48203 0.59242 0.49969 0.02100
C 	C 	0.53561 0.63847 0.47978 -0.05700
C 	C 	0.50911 0.65745 0.45345 0.02400
C 	C 	0.42808 0.62966 0.44690 -0.07800
C 	C 	0.37468 0.58410 0.46698 0.01100
C 	C 	0.40111 0.56661 0.49343 -0.04000
C 	C 	0.56550 0.70256 0.43291 0.07500
C 	C 	0.34480 0.52206 0.51408 0.09200
N 	N 	0.29970 0.48637 0.53063 -0.11300
H 	H 	0.48813 0.44275 0.50810 0.05300
H 	H 	0.31241 0.56231 0.46200 0.04400
C 	C 	0.30313 0.10958 0.70687 -0.06800
C 	C 	0.36520 0.07997 0.70686 -0.02200
C 	C 	0.44197 0.13267 0.70283 0.04900
C 	C 	0.45689 0.21579 0.69541 -0.07900
C 	C 	0.39396 0.24486 0.69453 -0.02000
C 	C 	0.31761 0.19259 0.70057 0.03500
S 	S 	0.51805 0.09416 0.70923 -0.09700
S 	S 	0.24052 0.23118 0.69911 -0.04100
H 	H 	0.20823 0.21966 0.67204 0.04000
H 	H 	0.52440 0.04752 0.68627 0.02900
H 	H 	0.35432 0.01614 0.71161 0.02500
H 	H 	0.40430 0.30809 0.68906 0.05200
C 	C 	0.96013 0.48221 0.03091 -0.04800
C 	C 	0.04553 0.64385 0.04960 0.03100
C 	C 	0.04193 0.57689 0.06718 -0.09400
C 	C 	0.99697 0.49666 0.05787 0.01900
C 	C 	0.92015 0.39859 0.02098 0.09100
C 	C 	0.09126 0.72739 0.05811 0.07900
N 	N 	0.12783 0.79438 0.06487 -0.10300
N 	N 	0.88811 0.33165 0.01301 -0.11600
H 	H 	0.99246 0.44504 0.07135 0.04000
C 	C 	0.54550 0.97068 0.05781 -0.03200
C 	C 	0.50748 0.95183 0.03079 0.04200
C 	C 	0.43701 0.88502 0.02758 -0.06100
C 	C 	0.40189 0.83977 0.05131 0.02900
C 	C 	0.43894 0.85994 0.07851 -0.07900
C 	C 	0.51132 0.92434 0.08146 0.01500
C 	C 	0.53668 0.00656 0.00641 -0.01600
C 	C 	0.59809 0.99952 0.99029 -0.01300
C 	C 	0.50248 0.06485 0.99901 -0.02400
C 	C 	0.44079 0.07489 0.01586 0.08500
C 	C 	0.32733 0.77396 0.04752 0.06100
N 	N 	0.39140 0.08287 0.02937 -0.11100
N 	N 	0.26761 0.72136 0.04410 -0.12700
H 	H 	0.54032 0.93924 0.10230 0.04400
H 	H 	0.40814 0.87016 0.00672 0.06400
H 	H 	0.62494 0.95522 0.99620 0.05000
C 	C 	0.41247 0.42074 0.96992 -0.04100
C 	C 	0.46064 0.49202 0.98488 0.02300
C 	C 	0.43631 0.39898 0.94373 0.01700
C 	C 	0.44476 0.50773 0.01491 0.02200
C 	C 	0.45407 0.45592 0.03632 -0.06000
C 	C 	0.43627 0.46737 0.06465 0.03100
C 	C 	0.41069 0.53250 0.07184 -0.09500
C 	C 	0.40502 0.58665 0.05073 0.00700
C 	C 	0.42081 0.57403 0.02226 -0.04200
C 	C 	0.44489 0.41240 0.08624 0.07900
C 	C 	0.33901 0.36925 0.98147 0.09200
N 	N 	0.45179 0.36835 0.10353 -0.10500
N 	N 	0.28017 0.32803 0.99075 -0.11600
H 	H 	0.40111 0.34208 0.93292 0.04800
H 	H 	0.47408 0.40597 0.03079 0.06000
H 	H 	0.38604 0.63721 0.05636 0.02400
S 	S 	0.05044 0.09953 0.86356 -0.03300
H 	H 	0.00003 0.01969 0.86369 0.03500
C 	C 	0.48819 0.12468 0.83494 -0.06700
C 	C 	0.44826 0.16987 0.82125 -0.02900
C 	C 	0.37685 0.12990 0.80687 0.04800
C 	C 	0.34449 0.04328 0.80612 -0.09400
C 	C 	0.38489 0.99792 0.81949 0.01300
C 	C 	0.45627 0.03806 0.83403 0.01000
S 	S 	0.32900 0.18908 0.78968 -0.02100
S 	S 	0.50380 0.97932 0.85170 -0.03500
H 	H 	0.48080 0.96925 0.87952 0.05000
H 	H 	0.35873 0.20825 0.76300 0.04500
H 	H 	0.47223 0.23644 0.82221 0.03300
H 	H 	0.36084 0.93137 0.81855 0.02600
Ni	Ni	0.62674 0.30006 0.89822 1.10200
O 	O 	0.65307 0.36412 0.86074 -0.69700
Ni	Ni	0.76132 0.36015 0.85509 1.09600
O 	O 	0.53668 0.33785 0.91000 -0.36000
O 	O 	0.55793 0.45402 0.88474 -0.39900
O 	O 	0.54445 0.20132 0.87768 -0.36700
Ni	Ni	0.66580 0.48068 0.86588 1.07000
O 	O 	0.62051 0.12212 0.90887 -0.39700
O 	O 	0.72154 0.48521 0.90435 -0.40400
O 	O 	0.79303 0.43675 0.82124 -0.38700
O 	O 	0.72789 0.28652 0.88932 -0.71200
O 	O 	0.60833 0.23147 0.93386 -0.36700
O 	O 	0.86084 0.33178 0.85151 -0.36500
O 	O 	0.78906 0.19439 0.84743 -0.41000
Ni	Ni	0.70561 0.17119 0.87936 1.06800
H 	H 	0.61715 0.33792 0.84449 0.15600
H 	H 	0.76552 0.30395 0.90570 0.16200
C 	C 	0.78833 0.47233 0.90650 0.26600
O 	O 	0.62508 0.16559 0.84788 -0.41500
C 	C 	0.54146 0.41485 0.90889 0.29600
C 	C 	0.79051 0.51105 0.82298 0.28500
C 	C 	0.55596 0.16826 0.85365 0.28600
C 	C 	0.85741 0.25523 0.84839 0.27400
C 	C 	0.61465 0.15813 0.93349 0.27800
O 	O 	0.82082 0.45444 0.88348 -0.36600
O 	O 	0.77003 0.53719 0.84695 -0.40700
Ni	Ni	0.62530 0.35239 0.63411 1.09900
O 	O 	0.70509 0.37201 0.60205 -0.69800
Ni	Ni	0.77704 0.31733 0.61717 1.10100
O 	O 	0.56501 0.41455 0.61262 -0.35700
O 	O 	0.67643 0.52492 0.60625 -0.40700
O 	O 	0.56448 0.25114 0.60981 -0.38600
Ni	Ni	0.76588 0.48526 0.59360 1.07000
O 	O 	0.59882 0.25791 0.69438 -0.41500
O 	O 	0.81390 0.51053 0.63382 -0.40800
O 	O 	0.84049 0.32654 0.58141 -0.37000
O 	O 	0.70775 0.31347 0.65145 -0.70000
O 	O 	0.53918 0.32217 0.66459 -0.37100
O 	O 	0.82723 0.23851 0.63377 -0.36700
O 	O 	0.70709 0.14390 0.64176 -0.41300
Ni	Ni	0.65465 0.20557 0.66790 1.07100
H 	H 	0.68004 0.34354 0.58407 0.16000
H 	H 	0.73727 0.35290 0.66663 0.15700
C 	C 	0.87131 0.48665 0.64202 0.29500
O 	O 	0.55220 0.15584 0.64433 -0.39600
C 	C 	0.60304 0.48253 0.59922 0.28100
C 	C 	0.85765 0.39264 0.56572 0.27800
C 	C 	0.54052 0.17464 0.61798 0.30400
C 	C 	0.78348 0.16501 0.64181 0.28000
O 	O 	0.87081 0.41266 0.63525 -0.36400
O 	O 	0.86036 0.46360 0.57726 -0.40200
Ni	Ni	0.03436 0.90087 0.71549 1.10300
O 	O 	0.06269 0.82460 0.68790 -0.37000
O 	O 	0.94326 0.80283 0.73047 -0.36600
O 	O 	0.87126 0.91109 0.71959 -0.40200
O 	O 	0.95921 0.91473 0.68509 -0.35700
O 	O 	0.97529 0.02443 0.79497 -0.40800
Ni	Ni	0.93111 0.96838 0.75575 1.07300
O 	O 	0.93054 0.86158 0.77303 -0.41100
C 	C 	0.92271 0.79617 0.75733 0.29100
C 	C 	0.89870 0.93256 0.69383 0.28400
Ni	Ni	0.94074 0.10189 0.24347 1.10600
O 	O 	0.87503 0.14820 0.26952 -0.69900
Ni	Ni	0.84153 0.05643 0.29735 1.09600
O 	O 	0.93048 0.16581 0.20841 -0.37100
O 	O 	0.84721 0.23236 0.21962 -0.39400
Ni	Ni	0.78049 0.15185 0.25002 1.07000
O 	O 	0.77663 0.04580 0.22999 -0.43100
O 	O 	0.75782 0.08851 0.31700 -0.39800
O 	O 	0.92318 0.02558 0.27576 -0.71400
O 	O 	0.83508 0.96864 0.32712 -0.36000
H 	H 	0.90448 0.20149 0.27897 0.16200
H 	H 	0.90242 0.96799 0.26860 0.16800
C 	C 	0.75046 0.97480 0.24322 0.28200
C 	C 	0.91637 0.23423 0.21123 0.29700
C 	C 	0.69214 0.08017 0.30329 0.30200
C 	C 	0.90129 0.96810 0.33849 0.29500
O 	O 	0.75726 0.97159 0.27152 -0.37000
O 	O 	0.69050 0.08441 0.27516 -0.41200
C 	C 	0.99962 0.30174 0.17111 -0.00900
S 	S 	0.09616 0.35308 0.12628 -0.08900
H 	H 	0.97713 0.24388 0.15926 0.05700
C 	C 	0.56250 0.80484 0.19548 -0.07500
C 	C 	0.63441 0.84181 0.18227 -0.01500
C 	C 	0.70008 0.89088 0.19827 0.03300
C 	C 	0.69357 0.90345 0.22782 -0.07100
C 	C 	0.62464 0.85664 0.24151 -0.02300
C 	C 	0.55895 0.80807 0.22543 0.03500
S 	S 	0.78973 0.93590 0.18108 -0.02300
H 	H 	0.79429 0.01065 0.17067 0.04200
H 	H 	0.63808 0.83624 0.15930 0.05600
H 	H 	0.62018 0.86274 0.26442 0.05500
C 	C 	0.47365 0.94151 0.34039 -0.05700
C 	C 	0.48884 0.02366 0.33306 -0.04000
C 	C 	0.56077 0.07043 0.32143 0.04800
C 	C 	0.61841 0.03504 0.31729 -0.09200
C 	C 	0.60258 0.95264 0.32401 0.00100
C 	C 	0.53040 0.90540 0.33502 0.03900
S 	S 	0.57879 0.17370 0.31306 -0.06700
S 	S 	0.51074 0.80029 0.34078 -0.07900
H 	H 	0.53346 0.79014 0.36808 0.05700
H 	H 	0.61214 0.22272 0.33638 0.04200
H 	H 	0.64601 0.92463 0.32000 0.05400
S 	S 	0.97998 0.28528 0.33205 -0.06100
H 	H 	0.00908 0.25702 0.35522 0.04100
H 	H 	0.96175 0.99536 0.40669 0.04400
C 	C 	0.40267 0.03799 0.54912 0.03800
C 	C 	0.45897 0.01047 0.56178 -0.08600
C 	C 	0.49812 0.04750 0.58715 0.03800
C 	C 	0.48151 0.11338 0.59970 -0.08800
C 	C 	0.41734 0.13226 0.58927 0.02400
C 	C 	0.55582 0.01832 0.59987 0.04800
N 	N 	0.60178 0.99437 0.60999 -0.09300
N 	N 	0.21665 0.86986 0.55390 -0.11100
H 	H 	0.47465 0.96281 0.55119 0.07700
H 	H 	0.40175 0.18014 0.59976 0.04600
C 	C 	0.89979 0.42334 0.48737 -0.04000
C 	C 	0.96940 0.40587 0.48538 0.02500
C 	C 	0.99738 0.37559 0.50921 -0.04900
C 	C 	0.96148 0.37080 0.53562 0.02300
C 	C 	0.89438 0.39290 0.53797 -0.07900
C 	C 	0.86276 0.41680 0.51362 0.00600
C 	C 	0.94976 0.31722 0.43060 0.09900
C 	C 	0.86787 0.45127 0.46282 0.09100
C 	C 	0.99687 0.34847 0.56052 0.09800
N 	N 	0.90122 0.25340 0.42736 -0.11700
N 	N 	0.02524 0.33064 0.58046 -0.11100
H 	H 	0.81016 0.43196 0.51525 0.01800
H 	H 	0.05060 0.36158 0.50765 0.04900
C 	C 	0.53867 0.61697 0.54972 -0.04300
C 	C 	0.50982 0.48337 0.52655 -0.06100
C 	C 	0.53632 0.45468 0.55094 0.02100
C 	C 	0.56561 0.50790 0.57482 -0.09300
C 	C 	0.56612 0.58868 0.57408 0.01100
C 	C 	0.53861 0.69995 0.54956 0.09200
C 	C 	0.53530 0.37126 0.55090 0.05800
N 	N 	0.61075 0.73869 0.41649 -0.10900
N 	N 	0.53421 0.30437 0.55066 -0.11300
N 	N 	0.53853 0.76642 0.54941 -0.11200
H 	H 	0.58856 0.62967 0.59239 0.04000
H 	H 	0.59795 0.65801 0.48457 0.05300
C 	C 	0.82014 0.10920 0.65355 -0.07800
C 	C 	0.80643 0.03288 0.63999 -0.03600
C 	C 	0.83422 0.97534 0.65243 0.05400
C 	C 	0.87616 0.99434 0.67868 -0.08100
C 	C 	0.89210 0.07168 0.69170 -0.03800
C 	C 	0.86389 0.12887 0.67945 0.03600
S 	S 	0.81387 0.87896 0.63544 -0.01900
S 	S 	0.88015 0.22309 0.69755 -0.09200
H 	H 	0.94782 0.28063 0.68826 0.05500
H 	H 	0.74468 0.82504 0.64511 0.04100
H 	H 	0.77304 0.01780 0.62002 0.05300
H 	H 	0.92475 0.08646 0.71184 -0.00500
C 	C 	0.05126 0.68392 0.68437 -0.06700
C 	C 	0.05335 0.67339 0.65473 -0.03100
C 	C 	0.99928 0.60450 0.64082 0.05600
C 	C 	0.94089 0.54637 0.65660 -0.08100
C 	C 	0.94445 0.55227 0.68654 -0.00600
C 	C 	0.00097 0.61968 0.70049 0.02600
S 	S 	0.00586 0.59167 0.60378 -0.04600
S 	S 	0.00993 0.62176 0.73794 -0.05400
H 	H 	0.06194 0.58494 0.74602 0.03600
H 	H 	0.04946 0.54317 0.59867 0.05300
H 	H 	0.09461 0.72079 0.64233 0.05700
H 	H 	0.90223 0.50569 0.69892 0.03600
C 	C 	0.96369 0.54880 0.01349 0.03400
C 	C 	0.00526 0.62926 0.02316 -0.06900
C 	C 	0.91965 0.53475 0.98585 0.01500
C 	C 	0.83776 0.50374 0.98589 -0.05300
C 	C 	0.79453 0.47826 0.96039 0.02200
C 	C 	0.83323 0.49147 0.93397 -0.07900
C 	C 	0.91543 0.52560 0.93389 0.00500
C 	C 	0.95877 0.54589 0.95968 -0.02900
C 	C 	0.71163 0.43270 0.96184 0.05800
C 	C 	0.04327 0.57694 0.95911 0.07800
N 	N 	0.64533 0.39610 0.96344 -0.11400
N 	N 	0.11097 0.60182 0.95867 -0.11200
H 	H 	0.00696 0.68056 0.00992 0.06000
H 	H 	0.80775 0.49506 0.00605 0.05700
H 	H 	0.94566 0.53632 0.91379 0.05000
C 	C 	0.62540 0.04987 0.96679 -0.00400
C 	C 	0.58956 0.10664 0.95887 -0.06400
C 	C 	0.52849 0.11390 0.97523 0.00100
C 	C 	0.69169 0.04475 0.95155 0.06300
C 	C 	0.61874 0.03854 0.06153 0.07800
N 	N 	0.74481 0.04065 0.93935 -0.13500
N 	N 	0.67740 0.09292 0.06448 -0.11200
H 	H 	0.50069 0.15735 0.96927 0.05600
C 	C 	0.52802 0.54499 0.97206 -0.05500
C 	C 	0.55045 0.52466 0.94541 0.02600
C 	C 	0.50714 0.44859 0.93200 -0.07900
C 	C 	0.41050 0.62814 0.00067 0.08900
C 	C 	0.61869 0.58154 0.93227 0.06600
N 	N 	0.40226 0.67155 0.98339 -0.11400
N 	N 	0.67330 0.62747 0.92180 -0.11900
H 	H 	0.56397 0.60106 0.98317 0.05700
C 	C 	0.92643 0.23942 0.83778 -0.07000
C 	C 	0.96088 0.19469 0.85462 -0.02000
C 	C 	0.00984 0.15766 0.84224 0.03200
C 	C 	0.02267 0.16344 0.81263 -0.08400
C 	C 	0.99862 0.21887 0.79696 -0.01100
C 	C 	0.94966 0.25611 0.80924 0.03100
S 	S 	0.91376 0.31874 0.78812 -0.02900
H 	H 	0.84498 0.27127 0.77476 0.02800
H 	H 	0.94615 0.18483 0.87693 0.03400
H 	H 	0.01130 0.22649 0.77442 0.02100
C 	C 	0.83404 0.57225 0.80245 -0.07500
C 	C 	0.79670 0.58084 0.77691 -0.03000
C 	C 	0.82762 0.65198 0.76087 0.03600
C 	C 	0.89636 0.71533 0.77065 -0.07900
C 	C 	0.93695 0.70344 0.79490 -0.02200
C 	C 	0.90696 0.63160 0.81048 0.04000
S 	S 	0.77806 0.66234 0.72936 -0.02800
S 	S 	0.96085 0.61671 0.84015 -0.02200
H 	H 	0.93784 0.64581 0.86443 0.05000
H 	H 	0.72634 0.70078 0.73572 0.03500
H 	H 	0.74157 0.53414 0.77028 0.03100
H 	H 	0.99139 0.75070 0.80186 0.03300
