data_crystal

_cell_length_a 20.59872
_cell_length_b 21.41455
_cell_length_c 35.81200
_cell_angle_alpha 60.78667
_cell_angle_beta  118.92067
_cell_angle_gamma 133.29238

_symmetry_space_group_name_	'P 1'
_symmetry_space_group_name_H-M	'P 1'

loop_
_symmetry_equiv_pos_as_xyz
  x,y,z

loop_
_atom_site_label
_atom_site_type_symbol
_atom_site_fract_x
_atom_site_fract_y
_atom_site_fract_z
_atom_site_charge
C 	C 	0.73605 0.28340 0.02855 0.24800
N 	N 	0.79000 0.36805 0.03224 -0.10200
C 	C 	0.76261 0.39037 0.04868 0.26600
N 	N 	0.68165 0.32926 0.06051 -0.12300
C 	C 	0.62576 0.24702 0.05464 0.26900
N 	N 	0.65314 0.22364 0.03913 -0.10800
C 	C 	0.70798 0.28337 0.52595 0.25700
N 	N 	0.61881 0.22913 0.52814 -0.10100
C 	C 	0.59086 0.24884 0.54563 0.27500
N 	N 	0.65087 0.32342 0.55980 -0.12200
C 	C 	0.73711 0.38198 0.55407 0.27000
N 	N 	0.76678 0.36173 0.53773 -0.09900
C 	C 	0.29819 0.64747 0.18380 0.26000
N 	N 	0.24284 0.56617 0.17534 -0.10200
C 	C 	0.28136 0.53287 0.17616 0.27300
N 	N 	0.37340 0.58074 0.18465 -0.12400
C 	C 	0.42777 0.66388 0.18905 0.27600
N 	N 	0.39065 0.69667 0.18969 -0.10100
C 	C 	0.25821 0.66331 0.65331 0.25800
N 	N 	0.34137 0.71974 0.64337 -0.10500
C 	C 	0.36702 0.69231 0.62946 0.27900
N 	N 	0.30870 0.60940 0.62406 -0.12300
C 	C 	0.22751 0.55097 0.63556 0.27100
N 	N 	0.20185 0.57740 0.65061 -0.09700
Co	Co	0.08226 0.02085 0.04795 1.18000
Co	Co	0.01955 0.08992 0.08174 1.19300
C 	C 	0.25996 0.04634 0.06603 0.37200
Co	Co	0.09005 0.87364 0.04838 1.18100
O 	O 	0.08734 0.12481 0.04049 -0.41600
C 	C 	0.77894 0.86870 0.15901 0.42300
C 	C 	0.10001 0.22912 0.12232 0.41700
C 	C 	0.11391 0.78630 0.14305 0.41700
O 	O 	0.11321 0.97117 0.99012 -0.32800
O 	O 	0.83269 0.93633 0.17599 -0.38500
O 	O 	0.81256 0.85146 0.14491 -0.35000
O 	O 	0.12157 0.19110 0.11480 -0.35100
O 	O 	0.07457 0.77152 0.10407 -0.37800
O 	O 	0.10520 0.83243 0.15255 -0.33500
O 	O 	0.04977 0.91629 0.06929 -0.74300
O 	O 	0.22322 0.96138 0.07684 -0.31900
O 	O 	0.22190 0.07443 0.06906 -0.35600
Co	Co	0.04794 0.02594 0.53740 1.18700
Co	Co	0.00013 0.09358 0.58075 1.19500
C 	C 	0.22244 0.08684 0.53248 0.42000
Co	Co	0.08072 0.89528 0.54076 1.19000
O 	O 	0.05386 0.12826 0.53290 -0.40400
C 	C 	0.73747 0.88456 0.62795 0.40800
C 	C 	0.09769 0.20889 0.64424 0.38700
C 	C 	0.15048 0.85416 0.63634 0.39800
O 	O 	0.77463 0.96979 0.61786 -0.33200
O 	O 	0.78729 0.85351 0.64489 -0.33400
O 	O 	0.04410 0.14376 0.67175 -0.36400
O 	O 	0.10751 0.19253 0.61626 -0.33300
O 	O 	0.17722 0.90851 0.59952 -0.34100
O 	O 	0.10119 0.85487 0.64995 -0.32400
O 	O 	0.02948 0.92657 0.56224 -0.73100
O 	O 	0.16979 0.02561 0.51117 -0.40000
O 	O 	0.18761 0.09034 0.55338 -0.37000
C 	C 	0.08612 0.00662 0.79556 -0.00500
C 	C 	0.11807 0.02859 0.83520 -0.01100
C 	C 	0.05591 0.00105 0.85593 0.02300
C 	C 	0.08765 0.02433 0.89532 -0.03000
H 	H 	0.13514 0.03264 0.77889 0.08900
H 	H 	0.19123 0.06862 0.84918 0.10000
H 	H 	0.16056 0.06228 0.91026 0.11500
C 	C 	0.14640 0.43419 0.59874 0.26900
C 	C 	0.17516 0.45709 0.63745 -0.12200
C 	C 	0.18227 0.39927 0.67834 0.26400
C 	C 	0.16642 0.32262 0.68066 0.29300
C 	C 	0.13950 0.30061 0.64196 -0.19300
C 	C 	0.13138 0.35795 0.60102 0.29800
F 	F 	0.10824 0.33958 0.56334 -0.35100
F 	F 	0.13888 0.48915 0.55886 -0.32200
F 	F 	0.17683 0.26926 0.72066 -0.36800
F 	F 	0.21100 0.42061 0.71608 -0.34200
C 	C 	0.52827 0.74837 0.66858 0.27200
C 	C 	0.46273 0.74495 0.62873 -0.12800
C 	C 	0.48561 0.77774 0.58890 0.27600
C 	C 	0.57426 0.81616 0.58886 0.31000
C 	C 	0.64060 0.82205 0.62863 -0.19200
C 	C 	0.61647 0.78580 0.66855 0.29900
F 	F 	0.68018 0.79112 0.70723 -0.37000
F 	F 	0.50573 0.71376 0.70740 -0.33700
F 	F 	0.59656 0.84984 0.55010 -0.33400
F 	F 	0.42172 0.77203 0.55028 -0.33100
C 	C 	0.11002 0.70295 0.65962 0.28900
C 	C 	0.17598 0.79182 0.66214 -0.18200
C 	C 	0.26905 0.82602 0.67566 0.30400
C 	C 	0.29555 0.77794 0.67876 0.26600
C 	C 	0.22924 0.69716 0.66589 -0.11400
C 	C 	0.13573 0.65713 0.65912 0.26500
F 	F 	0.06985 0.57549 0.65105 -0.34500
F 	F 	0.02081 0.66227 0.65583 -0.35500
F 	F 	0.38582 0.81144 0.69271 -0.32800
F 	F 	0.33422 0.90873 0.68248 -0.32000
C 	C 	0.19417 0.30838 0.18107 0.29000
C 	C 	0.17050 0.31259 0.13636 -0.19100
C 	C 	0.18398 0.39090 0.10505 0.31000
C 	C 	0.20755 0.45825 0.11748 0.26900
C 	C 	0.22498 0.45128 0.16197 -0.12200
C 	C 	0.21812 0.37569 0.19368 0.26300
F 	F 	0.23926 0.36954 0.23705 -0.35200
F 	F 	0.18994 0.23694 0.21230 -0.38300
F 	F 	0.21874 0.53277 0.08655 -0.33500
F 	F 	0.17062 0.40027 0.06216 -0.33100
C 	C 	0.58372 0.70251 0.21355 0.26400
C 	C 	0.52138 0.72288 0.18347 -0.12800
C 	C 	0.54033 0.78375 0.14282 0.27200
C 	C 	0.62038 0.82334 0.13228 0.29800
C 	C 	0.68383 0.80473 0.16281 -0.20300
C 	C 	0.66410 0.74263 0.20311 0.30100
F 	F 	0.72547 0.72488 0.23316 -0.37400
F 	F 	0.56530 0.64232 0.25260 -0.34400
F 	F 	0.63862 0.88325 0.09316 -0.34500
F 	F 	0.47919 0.80182 0.11279 -0.33000
C 	C 	0.17258 0.62911 0.19479 0.26800
C 	C 	0.25787 0.68509 0.18401 -0.11600
C 	C 	0.30571 0.77775 0.17408 0.26600
C 	C 	0.26483 0.81273 0.17101 0.29200
C 	C 	0.17331 0.75668 0.17397 -0.18000
C 	C 	0.13139 0.66501 0.19046 0.30200
F 	F 	0.04705 0.60992 0.19865 -0.32300
F 	F 	0.12924 0.54022 0.20921 -0.33600
F 	F 	0.31096 0.90177 0.16041 -0.34000
F 	F 	0.38982 0.83414 0.16538 -0.33500
C 	C 	0.73601 0.13098 0.52008 0.29200
C 	C 	0.82992 0.18843 0.52128 -0.18900
C 	C 	0.83045 0.31260 0.50615 0.26600
C 	C 	0.74276 0.25315 0.51494 -0.11600
C 	C 	0.69265 0.16253 0.51783 0.26200
F 	F 	0.60362 0.10444 0.52042 -0.34600
F 	F 	0.68981 0.04280 0.52689 -0.35200
C 	C 	0.80872 0.54227 0.52150 0.26800
C 	C 	0.79166 0.47146 0.55909 -0.11900
C 	C 	0.80065 0.48076 0.59794 0.27300
C 	C 	0.83422 0.62102 0.52275 0.29700
F 	F 	0.79663 0.53337 0.48315 -0.33800
F 	F 	0.78269 0.41235 0.63440 -0.32900
C 	C 	0.37742 0.13125 0.57804 0.30200
C 	C 	0.32103 0.14333 0.53698 -0.21100
C 	C 	0.35364 0.18794 0.49876 0.30200
C 	C 	0.43857 0.21398 0.50116 0.26300
C 	C 	0.49374 0.19937 0.54203 -0.12900
C 	C 	0.46283 0.15797 0.58049 0.26800
F 	F 	0.51682 0.14567 0.62038 -0.33200
F 	F 	0.34723 0.08922 0.61534 -0.35600
F 	F 	0.46923 0.25697 0.46391 -0.34300
F 	F 	0.30029 0.20151 0.45890 -0.37100
C 	C 	0.70674 0.17329 0.00342 0.23400
C 	C 	0.76929 0.25401 0.01597 -0.11100
C 	C 	0.86395 0.29802 0.02300 0.25800
C 	C 	0.83214 0.16650 0.02183 -0.19500
C 	C 	0.73806 0.12885 0.00737 0.31000
F 	F 	0.67656 0.04619 0.00060 -0.34700
F 	F 	0.61552 0.13623 0.98917 -0.30000
C 	C 	0.84797 0.50210 0.08937 0.26800
C 	C 	0.81396 0.48229 0.04897 -0.12100
C 	C 	0.80272 0.54094 0.00971 0.24300
C 	C 	0.82071 0.61602 0.01088 0.27200
F 	F 	0.80695 0.67070 0.97258 -0.34200
F 	F 	0.76853 0.52204 0.97045 -0.31900
C 	C 	0.42589 0.12453 0.10037 0.30900
C 	C 	0.35480 0.10913 0.06216 -0.18500
C 	C 	0.37283 0.13621 0.02182 0.26800
C 	C 	0.46030 0.17518 0.01996 0.24900
C 	C 	0.53111 0.18931 0.05829 -0.12500
C 	C 	0.51361 0.16407 0.09850 0.27000
F 	F 	0.58213 0.17898 0.13565 -0.33700
F 	F 	0.40910 0.09856 0.13958 -0.34100
F 	F 	0.47721 0.20208 0.98063 -0.31600
F 	F 	0.30466 0.12241 0.98457 -0.36600
C 	C 	0.82407 0.55882 0.59878 0.32000
O 	O 	0.83208 0.05023 0.08392 -0.34900
C 	C 	0.05589 0.99156 0.96481 0.32200
O 	O 	0.02859 0.01167 0.98157 -0.34500
C 	C 	0.01657 0.99882 0.22918 0.31000
O 	O 	0.02300 0.07083 0.20166 -0.35600
O 	O 	0.01565 0.94851 0.21636 -0.32600
O 	O 	0.00112 0.01743 0.47062 -0.34400
C 	C 	0.02483 0.99395 0.91690 0.00400
H 	H 	0.82585 0.88328 0.84339 0.10500
C 	C 	0.01561 0.97743 0.27582 0.00300
O 	O 	0.01407 0.19428 0.11580 -0.37300
C 	C 	0.03009 0.02406 0.33193 0.01900
C 	C 	0.04963 0.04515 0.29277 -0.03400
H 	H 	0.08867 0.11373 0.27484 0.11500
F 	F 	0.85268 0.68966 0.48641 -0.38500
C 	C 	0.86154 0.10765 0.04784 0.39600
F 	F 	0.87496 0.40133 0.49611 -0.32600
F 	F 	0.85890 0.44579 0.12765 -0.32900
C 	C 	0.87307 0.28008 0.50855 0.30300
C 	C 	0.84674 0.63141 0.56209 -0.19200
C 	C 	0.85394 0.63550 0.05134 -0.18900
F 	F 	0.83018 0.56577 0.63624 -0.33300
H 	H 	0.10055 0.15993 0.33019 0.10200
C 	C 	0.04222 0.07019 0.38697 -0.00500
C 	C 	0.06096 0.09121 0.34781 -0.01300
H 	H 	0.06955 0.12314 0.39935 0.09700
C 	C 	0.86556 0.57691 0.09063 0.29400
C 	C 	0.88606 0.15597 0.55242 0.42100
H 	H 	0.85605 0.88396 0.78444 0.11000
H 	H 	0.88143 0.92060 0.91304 0.09300
C 	C 	0.89465 0.25527 0.02419 0.29200
C 	C 	0.89832 0.72599 0.05171 0.38400
O 	O 	0.89609 0.73924 0.08402 -0.32100
O 	O 	0.90388 0.12103 0.54014 -0.33400
O 	O 	0.89089 0.96211 0.70488 -0.34600
O 	O 	0.89165 0.74874 0.58445 -0.33400
C 	C 	0.89895 0.92260 0.85764 -0.02500
F 	F 	0.92622 0.38027 0.03028 -0.34200
F 	F 	0.89546 0.59323 0.13006 -0.34500
Co	Co	0.90611 0.05962 0.64681 1.17900
O 	O 	0.92521 0.12064 0.03774 -0.33000
H 	H 	0.91889 0.84531 0.41192 0.11200
H 	H 	0.90776 0.79916 0.35670 0.10800
Co	Co	0.92388 0.06279 0.14416 1.18000
Co	Co	0.92524 0.92286 0.64665 1.20100
C 	C 	0.91276 0.72080 0.56908 0.42200
O 	O 	0.91961 0.16408 0.59265 -0.38600
C 	C 	0.92920 0.92391 0.79867 -0.02100
C 	C 	0.93065 0.94528 0.89693 0.01900
H 	H 	0.93775 0.83605 0.28717 0.09600
O 	O 	0.94294 0.02099 0.62143 -0.76700
O 	O 	0.93286 0.82612 0.65586 -0.39800
C 	C 	0.94732 0.86789 0.33909 -0.02800
O 	O 	0.99797 0.76248 0.56974 -0.37000
O 	O 	0.95133 0.79241 0.02399 -0.36900
O 	O 	0.99548 0.94933 0.70989 -0.33700
Co	Co	0.99999 0.84872 0.11255 1.19800
C 	C 	0.97826 0.93503 0.35503 0.06800
C 	C 	0.95836 0.91392 0.39409 -0.02700
C 	C 	0.96561 0.88895 0.29976 0.01500
Co	Co	0.98912 0.86123 0.60895 1.19600
C 	C 	0.99160 0.95550 0.77646 0.00200
O 	O 	0.97895 0.88704 0.48461 -0.33800
Co	Co	0.95218 0.92334 0.15224 1.19800
O 	O 	0.96561 0.02056 0.12397 -0.75300
O 	O 	0.95360 0.82218 0.16141 -0.39800
O 	O 	0.98967 0.96094 0.09061 -0.55100
O 	O 	0.96254 0.96352 0.58436 -0.54600
C 	C 	0.98783 0.96001 0.45692 0.30000
C 	C 	0.95773 0.95422 0.72890 0.29400
C 	C 	0.96110 0.94868 0.83751 0.06800
C 	C 	0.99188 0.98168 0.41085 0.00200
F 	F 	0.95972 0.33748 0.50279 -0.32200
F 	F 	0.98560 0.29792 0.03080 -0.34700
