data_crystal

_cell_length_a 27.74975
_cell_length_b 29.03087
_cell_length_c 39.44587
_cell_angle_alpha 60.97101
_cell_angle_beta  118.71939
_cell_angle_gamma 133.23096

_symmetry_space_group_name_	'P 1'
_symmetry_space_group_name_H-M	'P 1'

loop_
_symmetry_equiv_pos_as_xyz
  x,y,z

loop_
_atom_site_label
_atom_site_type_symbol
_atom_site_fract_x
_atom_site_fract_y
_atom_site_fract_z
_atom_site_charge
C 	C 	0.71173 0.30792 0.01722 0.19600
N 	N 	0.75302 0.37050 0.02042 -0.10200
C 	C 	0.72717 0.39406 0.02375 0.20400
N 	N 	0.66082 0.35516 0.02417 -0.12200
C 	C 	0.61907 0.29389 0.01961 0.19900
N 	N 	0.64449 0.26987 0.01642 -0.13900
C 	C 	0.74704 0.30515 0.54765 0.20000
N 	N 	0.68556 0.26394 0.55696 -0.11900
C 	C 	0.66396 0.28716 0.56488 0.20200
N 	N 	0.70350 0.35136 0.56320 -0.12900
C 	C 	0.76431 0.39290 0.55357 0.20100
N 	N 	0.78664 0.36989 0.54599 -0.11600
C 	C 	0.26710 0.64445 0.20486 0.20100
N 	N 	0.22236 0.58512 0.19602 -0.12700
C 	C 	0.24391 0.56484 0.18520 0.20100
N 	N 	0.30928 0.60392 0.18288 -0.12900
C 	C 	0.35484 0.66080 0.19401 0.21000
N 	N 	0.33376 0.68156 0.20467 -0.10400
C 	C 	0.29305 0.64758 0.71282 0.20300
N 	N 	0.24598 0.58459 0.70983 -0.11200
C 	C 	0.26440 0.55418 0.70664 0.20100
N 	N 	0.32976 0.58650 0.70698 -0.13700
C 	C 	0.37555 0.65060 0.70666 0.20700
N 	N 	0.35757 0.68108 0.71028 -0.11600
Co	Co	0.05595 0.01580 0.07677 1.17700
Co	Co	0.94674 0.93038 0.16708 1.19300
Co	Co	0.98856 0.05101 0.10221 1.17100
Co	Co	0.00535 0.89100 0.13780 1.19300
C 	C 	0.20160 0.05930 0.09874 0.29500
Co	Co	0.09558 0.92550 0.08845 1.18200
Co	Co	0.91199 0.02261 0.15907 1.16600
C 	C 	0.95210 0.80419 0.08597 0.34700
O 	O 	0.84260 0.00900 0.10507 -0.37900
O 	O 	0.94943 0.99789 0.14063 -0.72200
C 	C 	0.86286 0.05086 0.07179 0.33900
O 	O 	0.04096 0.08242 0.06419 -0.44000
O 	O 	0.95745 0.86161 0.17776 -0.43300
C 	C 	0.81402 0.87738 0.17576 0.36200
O 	O 	0.97858 0.96158 0.11207 -0.54900
C 	C 	0.03804 0.15108 0.13728 0.35900
C 	C 	0.05479 0.99406 0.00858 0.36100
C 	C 	0.10962 0.86621 0.17520 0.36100
O 	O 	0.91096 0.06234 0.06228 -0.37200
O 	O 	0.10643 0.99342 0.03396 -0.36100
O 	O 	0.02394 0.00354 0.01918 -0.38800
O 	O 	0.84952 0.92807 0.18960 -0.36700
O 	O 	0.84276 0.86995 0.16206 -0.36500
O 	O 	0.97299 0.12058 0.13171 -0.39000
O 	O 	0.05893 0.12713 0.13079 -0.39200
O 	O 	0.09068 0.85550 0.14096 -0.39000
O 	O 	0.08930 0.89291 0.17914 -0.37100
O 	O 	0.04601 0.94449 0.10051 -0.74200
C 	C 	0.99356 0.98698 0.23533 0.33200
O 	O 	0.98825 0.03483 0.21041 -0.38000
O 	O 	0.99861 0.95524 0.22285 -0.36100
O 	O 	0.18570 0.99984 0.11392 -0.31600
O 	O 	0.16207 0.07219 0.09621 -0.36100
O 	O 	0.99804 0.85462 0.06467 -0.36200
O 	O 	0.94576 0.80890 0.11562 -0.36200
Co	Co	0.06027 0.02196 0.57171 1.16800
Co	Co	0.96142 0.94045 0.66751 1.20600
Co	Co	0.99236 0.05502 0.59867 1.17900
Co	Co	0.02370 0.90451 0.63895 1.19600
C 	C 	0.19454 0.07286 0.56712 0.36000
Co	Co	0.09513 0.92849 0.58080 1.18200
Co	Co	0.90766 0.01851 0.65477 1.15700
C 	C 	0.96883 0.80133 0.60464 0.36700
O 	O 	0.83840 0.99771 0.60158 -0.31500
O 	O 	0.96191 0.00650 0.64073 -0.78400
C 	C 	0.85779 0.03737 0.56808 0.28800
O 	O 	0.04143 0.08588 0.55878 -0.44600
O 	O 	0.97899 0.87591 0.68039 -0.41600
C 	C 	0.82114 0.87518 0.66783 0.36300
O 	O 	0.03126 0.99361 0.62728 -0.53700
C 	C 	0.02434 0.15516 0.62633 0.36200
C 	C 	0.01677 0.96509 0.50460 0.29500
C 	C 	0.14746 0.90255 0.66770 0.34900
O 	O 	0.90238 0.04366 0.55871 -0.37800
O 	O 	0.01770 0.91533 0.53021 -0.38300
O 	O 	0.01211 0.99881 0.51542 -0.34600
O 	O 	0.84985 0.92130 0.68402 -0.38700
O 	O 	0.85668 0.87822 0.65276 -0.37300
O 	O 	0.95910 0.11649 0.62513 -0.41300
O 	O 	0.05059 0.13958 0.61684 -0.35200
O 	O 	0.16626 0.94261 0.63398 -0.34500
O 	O 	0.10213 0.89402 0.67798 -0.31800
O 	O 	0.05961 0.95533 0.59923 -0.73400
C 	C 	0.99002 0.99140 0.73399 0.33400
O 	O 	0.98322 0.03737 0.70648 -0.40900
O 	O 	0.99264 0.95434 0.72481 -0.34400
O 	O 	0.15888 0.02399 0.55139 -0.43400
O 	O 	0.16421 0.08411 0.57644 -0.37000
O 	O 	0.03315 0.83064 0.60841 -0.38100
O 	O 	0.95081 0.82672 0.61227 -0.36700
C 	C 	0.95454 0.93503 0.83380 -0.05700
C 	C 	0.00899 0.99053 0.84910 0.05400
C 	C 	0.06147 0.04311 0.82855 -0.02900
C 	C 	0.05733 0.04084 0.79231 -0.03500
C 	C 	0.00201 0.98593 0.77649 -0.03000
C 	C 	0.95120 0.93213 0.79806 0.04400
C 	C 	0.01584 0.98867 0.88976 0.06100
S 	S 	0.13278 0.11193 0.84784 0.01300
H 	H 	0.09644 0.08255 0.77595 0.07500
S 	S 	0.88306 0.86086 0.78075 0.04200
H 	H 	0.91521 0.89355 0.85006 0.07600
C 	C 	0.00007 0.02151 0.89517 -0.03000
C 	C 	0.00941 0.02038 0.93404 -0.01800
C 	C 	0.03294 0.98550 0.96774 -0.03100
C 	C 	0.04437 0.94923 0.96176 0.07600
C 	C 	0.03718 0.95244 0.92316 -0.06200
S 	S 	0.96842 0.06376 0.85380 0.00100
H 	H 	0.99989 0.04787 0.93789 0.06500
S 	S 	0.06605 0.89805 0.00199 -0.01400
H 	H 	0.04773 0.92593 0.91912 0.07800
H 	H 	0.90110 0.81989 0.79507 0.07400
H 	H 	0.89900 0.02174 0.84306 0.04800
H 	H 	0.00999 0.83443 0.00496 0.07700
H 	H 	0.12007 0.15693 0.83369 0.06500
C 	C 	0.06389 0.03695 0.32977 -0.10300
C 	C 	0.01451 0.98145 0.35152 0.06600
C 	C 	0.96515 0.92366 0.33784 -0.00500
C 	C 	0.96299 0.92354 0.30143 0.00100
C 	C 	0.01049 0.98010 0.27875 -0.02900
C 	C 	0.06381 0.03557 0.29460 0.03400
C 	C 	0.01796 0.98311 0.39014 0.01300
S 	S 	0.90641 0.85113 0.36606 0.04400
H 	H 	0.92259 0.88024 0.28998 0.08700
S 	S 	0.13197 0.10277 0.27138 0.03200
H 	H 	0.10342 0.08080 0.34070 0.07300
C 	C 	0.07139 0.98727 0.42371 0.00400
C 	C 	0.07445 0.98956 0.45947 0.00500
C 	C 	0.02246 0.98353 0.46346 -0.06700
C 	C 	0.96938 0.98038 0.42970 0.05500
C 	C 	0.96819 0.98154 0.39310 -0.04900
S 	S 	0.13234 0.98516 0.42232 0.03400
H 	H 	0.11511 0.99148 0.48517 0.05500
S 	S 	0.90308 0.97278 0.43297 0.03600
H 	H 	0.92757 0.97947 0.36727 0.07700
H 	H 	0.18175 0.09390 0.28646 0.04500
H 	H 	0.10827 0.92156 0.43169 0.05600
H 	H 	0.85237 0.90806 0.44427 0.05900
H 	H 	0.93448 0.81842 0.39306 0.06300
C 	C 	0.16508 0.44572 0.63898 -0.11500
C 	C 	0.15176 0.38675 0.66667 0.01000
C 	C 	0.16481 0.38044 0.70726 0.30600
C 	C 	0.19551 0.43423 0.72021 -0.07900
C 	C 	0.21242 0.49423 0.69271 -0.07300
C 	C 	0.19395 0.49876 0.65185 0.35900
C 	C 	0.12293 0.33141 0.65291 0.02200
F 	F 	0.14895 0.32267 0.73416 -0.42000
H 	H 	0.20927 0.43018 0.75180 0.11200
F 	F 	0.20909 0.55633 0.62488 -0.39900
H 	H 	0.15440 0.45086 0.60756 0.14800
C 	C 	0.06059 0.30619 0.62481 0.29000
C 	C 	0.03218 0.25254 0.61287 -0.04200
C 	C 	0.06422 0.22174 0.62989 -0.14500
C 	C 	0.12830 0.24888 0.65649 0.37800
C 	C 	0.15779 0.30391 0.66770 -0.13500
F 	F 	0.02616 0.33204 0.61031 -0.39600
H 	H 	0.98294 0.23222 0.59227 0.10400
F 	F 	0.16018 0.21997 0.67314 -0.42800
H 	H 	0.20684 0.32415 0.68861 0.13700
C 	C 	0.56113 0.75130 0.71003 -0.12600
C 	C 	0.55671 0.73924 0.67781 0.00600
C 	C 	0.49305 0.70404 0.65285 0.32700
C 	C 	0.43432 0.67997 0.66053 -0.08100
C 	C 	0.43821 0.68879 0.69401 -0.07200
C 	C 	0.50202 0.72592 0.71823 0.35400
C 	C 	0.61877 0.76322 0.67045 0.02200
F 	F 	0.48795 0.69147 0.62186 -0.38600
H 	H 	0.38527 0.65196 0.64142 0.13300
F 	F 	0.50662 0.73506 0.75060 -0.41100
H 	H 	0.61023 0.77931 0.72909 0.12400
C 	C 	0.64037 0.81058 0.63555 0.31400
C 	C 	0.70398 0.83990 0.63142 -0.05500
C 	C 	0.74781 0.82471 0.66290 -0.14000
C 	C 	0.72290 0.77191 0.69548 0.38000
C 	C 	0.65866 0.74149 0.69937 -0.14700
F 	F 	0.60169 0.83113 0.60685 -0.37100
H 	H 	0.72164 0.87864 0.60530 0.13300
F 	F 	0.76306 0.75358 0.72489 -0.43200
H 	H 	0.64117 0.70307 0.72565 0.12900
C 	C 	0.19958 0.71611 0.68697 -0.12600
C 	C 	0.23535 0.74853 0.71727 0.00900
C 	C 	0.28896 0.74606 0.74685 0.32800
C 	C 	0.30774 0.71302 0.74536 -0.07800
C 	C 	0.27244 0.68132 0.71474 -0.06900
C 	C 	0.21786 0.68257 0.68571 0.35700
C 	C 	0.21920 0.78840 0.71629 0.02400
F 	F 	0.32302 0.77591 0.77684 -0.38100
H 	H 	0.34955 0.71188 0.76806 0.13000
F 	F 	0.18381 0.65287 0.65563 -0.39500
H 	H 	0.15843 0.71804 0.66391 0.13200
C 	C 	0.26534 0.85672 0.70733 0.30900
C 	C 	0.24404 0.89486 0.69664 -0.05600
C 	C 	0.17608 0.86521 0.69372 -0.12300
C 	C 	0.13225 0.79705 0.70704 0.37400
C 	C 	0.15384 0.75887 0.71827 -0.13900
F 	F 	0.32919 0.88613 0.70605 -0.38400
H 	H 	0.27891 0.94746 0.68757 0.13900
F 	F 	0.06696 0.76747 0.70568 -0.40400
H 	H 	0.11841 0.70620 0.72613 0.13900
C 	C 	0.19987 0.40080 0.20907 -0.13100
C 	C 	0.16263 0.38600 0.17167 0.01000
C 	C 	0.14097 0.42447 0.14099 0.32300
C 	C 	0.16094 0.47990 0.14692 -0.07700
C 	C 	0.20157 0.49669 0.18367 -0.07400
C 	C 	0.21785 0.45486 0.21529 0.35300
C 	C 	0.14008 0.32600 0.16629 0.02500
F 	F 	0.10094 0.40840 0.10548 -0.38300
H 	H 	0.14776 0.51157 0.12234 0.12400
F 	F 	0.25599 0.46969 0.25126 -0.41500
H 	H 	0.21533 0.37059 0.23329 0.12300
C 	C 	0.15609 0.32869 0.13616 0.30500
C 	C 	0.12913 0.27073 0.12943 -0.04600
C 	C 	0.08651 0.20997 0.15287 -0.14600
C 	C 	0.07589 0.20824 0.18515 0.37600
C 	C 	0.10213 0.26569 0.19154 -0.15300
F 	F 	0.19634 0.38706 0.11293 -0.38400
H 	H 	0.13801 0.27304 0.10456 0.10700
F 	F 	0.03434 0.15044 0.20792 -0.45700
H 	H 	0.09047 0.26306 0.21527 0.12200
C 	C 	0.52987 0.78054 0.17492 -0.11300
C 	C 	0.55282 0.74112 0.19494 0.00900
C 	C 	0.51496 0.67963 0.21971 0.31200
C 	C 	0.45348 0.65677 0.22302 -0.07800
C 	C 	0.42762 0.69372 0.20038 -0.06700
C 	C 	0.46718 0.75673 0.17736 0.35700
C 	C 	0.61705 0.76472 0.19049 0.02700
F 	F 	0.53639 0.64094 0.23929 -0.40300
H 	H 	0.42366 0.60838 0.24128 0.13200
F 	F 	0.44331 0.79342 0.15572 -0.40100
H 	H 	0.55980 0.82893 0.15673 0.14400
C 	C 	0.62586 0.78295 0.15261 0.29700
C 	C 	0.68960 0.81282 0.14816 -0.04300
C 	C 	0.74464 0.82438 0.18145 -0.14000
C 	C 	0.73345 0.79906 0.21970 0.38400
C 	C 	0.67042 0.77071 0.22412 -0.13600
F 	F 	0.57342 0.77373 0.12005 -0.39000
H 	H 	0.69737 0.83114 0.11857 0.12100
F 	F 	0.78548 0.80698 0.25237 -0.43600
H 	H 	0.66378 0.75552 0.25355 0.14400
C 	C 	0.26239 0.72809 0.25204 -0.12400
C 	C 	0.20596 0.72844 0.22604 0.01300
C 	C 	0.16720 0.69747 0.19454 0.32000
C 	C 	0.18555 0.66764 0.18877 -0.07900
C 	C 	0.24329 0.66914 0.21397 -0.06700
C 	C 	0.28102 0.69860 0.24611 0.35700
C 	C 	0.19076 0.76590 0.22964 0.02100
F 	F 	0.11325 0.69837 0.16865 -0.40300
H 	H 	0.15619 0.64532 0.16387 0.12000
F 	F 	0.33577 0.69881 0.27154 -0.40300
H 	H 	0.29244 0.75150 0.27648 0.13400
C 	C 	0.12720 0.73453 0.23545 0.31100
C 	C 	0.10486 0.77125 0.22640 -0.04900
C 	C 	0.14449 0.83881 0.20975 -0.13300
C 	C 	0.21314 0.87065 0.21262 0.37800
C 	C 	0.23570 0.83426 0.22140 -0.14000
F 	F 	0.08514 0.66849 0.24683 -0.38700
H 	H 	0.05315 0.74622 0.22697 0.10600
F 	F 	0.25471 0.93664 0.20057 -0.41200
H 	H 	0.28623 0.85923 0.21886 0.13800
C 	C 	0.75766 0.10077 0.53442 -0.12000
C 	C 	0.80917 0.16815 0.52773 0.01400
C 	C 	0.87141 0.19203 0.52419 0.29200
C 	C 	0.88476 0.14846 0.53228 -0.06700
C 	C 	0.83587 0.08083 0.54370 -0.11800
C 	C 	0.77045 0.05741 0.54156 0.32000
C 	C 	0.80022 0.21255 0.52867 0.01200
F 	F 	0.92002 0.25724 0.51477 -0.40400
H 	H 	0.93483 0.16738 0.53270 0.09500
F 	F 	0.72080 0.99227 0.54952 -0.37100
H 	H 	0.70871 0.08177 0.53598 0.13100
C 	C 	0.74590 0.21617 0.50181 0.30900
C 	C 	0.73054 0.24906 0.50702 -0.07600
C 	C 	0.76986 0.27959 0.53866 -0.07100
C 	C 	0.82645 0.27913 0.56417 0.35400
C 	C 	0.84130 0.24547 0.55931 -0.11700
F 	F 	0.70694 0.18640 0.47131 -0.40300
H 	H 	0.68714 0.24958 0.48698 0.12900
F 	F 	0.86512 0.30858 0.59481 -0.40500
H 	H 	0.88316 0.24292 0.58027 0.14100
C 	C 	0.79397 0.55007 0.53066 -0.11600
C 	C 	0.84995 0.57674 0.56188 0.01000
C 	C 	0.88636 0.54954 0.58469 0.30800
C 	C 	0.86298 0.49269 0.57862 -0.07800
C 	C 	0.80362 0.46303 0.54954 -0.07100
C 	C 	0.77194 0.49449 0.52392 0.35300
C 	C 	0.86918 0.63200 0.57131 0.02100
F 	F 	0.94318 0.57707 0.61340 -0.40500
H 	H 	0.88850 0.46950 0.59820 0.12700
F 	F 	0.71616 0.46795 0.49451 -0.40500
H 	H 	0.76613 0.57112 0.51243 0.14300
C 	C 	0.88443 0.69041 0.54200 0.29000
C 	C 	0.90684 0.74370 0.55177 -0.05700
C 	C 	0.91763 0.74050 0.59125 -0.13800
C 	C 	0.89699 0.68054 0.61972 0.38400
C 	C 	0.87243 0.62640 0.60970 -0.13100
F 	F 	0.88101 0.69673 0.50462 -0.41700
H 	H 	0.92119 0.78926 0.52933 0.09400
F 	F 	0.90551 0.67604 0.65782 -0.40000
H 	H 	0.85819 0.58081 0.63213 0.14300
C 	C 	0.37518 0.13049 0.61100 -0.14000
C 	C 	0.40084 0.16797 0.57655 0.02400
C 	C 	0.36189 0.18404 0.54050 0.28400
C 	C 	0.29574 0.15801 0.53826 -0.04600
C 	C 	0.26855 0.11706 0.57214 -0.15200
C 	C 	0.30998 0.10656 0.60899 0.37500
C 	C 	0.46807 0.18974 0.57815 0.00400
F 	F 	0.38754 0.22358 0.50746 -0.40700
H 	H 	0.26445 0.16707 0.50977 0.09300
F 	F 	0.28569 0.07017 0.64248 -0.44300
H 	H 	0.40515 0.11871 0.63913 0.14000
C 	C 	0.52665 0.22842 0.60417 0.31000
C 	C 	0.59063 0.25393 0.60292 -0.07900
C 	C 	0.59720 0.24362 0.57450 -0.07400
C 	C 	0.53835 0.20131 0.55033 0.35200
C 	C 	0.47404 0.17390 0.55253 -0.11400
F 	F 	0.52189 0.24397 0.62927 -0.40800
H 	H 	0.63559 0.28518 0.62240 0.11500
F 	F 	0.54346 0.18982 0.52311 -0.41500
H 	H 	0.42897 0.14232 0.53327 0.12700
C 	C 	0.81634 0.24926 0.04682 -0.11900
C 	C 	0.78234 0.21442 0.01811 0.01300
C 	C 	0.72880 0.21519 0.98715 0.30600
C 	C 	0.70749 0.24793 0.98606 -0.08100
C 	C 	0.73986 0.28072 0.01563 -0.07200
C 	C 	0.79542 0.28245 0.04555 0.35400
C 	C 	0.79865 0.17229 0.02279 0.01600
F 	F 	0.69657 0.18314 0.95859 -0.40700
H 	H 	0.66509 0.24692 0.96260 0.11400
F 	F 	0.82707 0.31367 0.07446 -0.39500
H 	H 	0.85759 0.24885 0.07087 0.13700
C 	C 	0.86428 0.19944 0.02269 0.29700
C 	C 	0.88336 0.15887 0.03474 -0.05700
C 	C 	0.83718 0.09095 0.04716 -0.12800
C 	C 	0.76960 0.06373 0.04335 0.33000
C 	C 	0.75066 0.10426 0.03156 -0.12200
F 	F 	0.91042 0.26513 0.01264 -0.39500
H 	H 	0.93535 0.18049 0.03697 0.10400
F 	F 	0.72318 0.99803 0.05305 -0.37200
H 	H 	0.69950 0.08280 0.03094 0.12800
C 	C 	0.85849 0.54637 0.06121 -0.11300
C 	C 	0.82397 0.57518 0.04243 0.00700
C 	C 	0.76440 0.55016 0.01236 0.31100
C 	C 	0.73888 0.49615 0.00211 -0.08200
C 	C 	0.76880 0.46281 0.02398 -0.06700
C 	C 	0.83039 0.48965 0.05255 0.35400
C 	C 	0.85050 0.63197 0.05383 0.02300
F 	F 	0.72935 0.57617 0.99447 -0.40700
H 	H 	0.69227 0.47677 0.97930 0.13200
F 	F 	0.86094 0.45896 0.07345 -0.39100
H 	H 	0.90593 0.56675 0.08332 0.14600
C 	C 	0.86489 0.62930 0.09393 0.29500
C 	C 	0.89277 0.68433 0.10444 -0.04600
C 	C 	0.90440 0.74157 0.07491 -0.13600
C 	C 	0.88294 0.74148 0.03459 0.37400
C 	C 	0.85934 0.68832 0.02428 -0.13500
F 	F 	0.85253 0.57379 0.12266 -0.39500
H 	H 	0.90809 0.68338 0.13562 0.11200
F 	F 	0.88817 0.79442 0.00545 -0.43000
H 	H 	0.84819 0.69103 0.99328 0.13800
C 	C 	0.31490 0.16552 0.02901 -0.14600
C 	C 	0.37424 0.17110 0.05533 0.01500
C 	C 	0.38139 0.15372 0.09665 0.31100
C 	C 	0.32632 0.12312 0.11137 -0.06000
C 	C 	0.26477 0.11196 0.08497 -0.12600
C 	C 	0.26128 0.13805 0.04386 0.36200
C 	C 	0.42913 0.19612 0.03956 0.00600
F 	F 	0.44108 0.16525 0.12247 -0.39000
H 	H 	0.33027 0.10499 0.14325 0.11800
F 	F 	0.20403 0.13262 0.01812 -0.44600
H 	H 	0.30968 0.18098 0.99708 0.11600
C 	C 	0.45654 0.16162 0.05383 0.32000
C 	C 	0.51588 0.19096 0.04398 -0.08100
C 	C 	0.54669 0.25385 0.01881 -0.07700
C 	C 	0.51321 0.28368 0.99994 0.35000
C 	C 	0.45594 0.25588 0.01116 -0.13000
F 	F 	0.42691 0.10067 0.07810 -0.40300
H 	H 	0.53988 0.16642 0.05767 0.11600
F 	F 	0.53909 0.34195 0.97273 -0.42000
H 	H 	0.43384 0.28189 0.99883 0.12300
