data_crystal

_cell_length_a 27.54312
_cell_length_b 28.73113
_cell_length_c 30.80320
_cell_angle_alpha 61.10303
_cell_angle_beta  118.57137
_cell_angle_gamma 133.21885

_symmetry_space_group_name_	'P 1'
_symmetry_space_group_name_H-M	'P 1'

loop_
_symmetry_equiv_pos_as_xyz
  x,y,z

loop_
_atom_site_label
_atom_site_type_symbol
_atom_site_fract_x
_atom_site_fract_y
_atom_site_fract_z
_atom_site_charge
C 	C 	0.78182 0.32138 0.09328 0.14600
N 	N 	0.81765 0.38764 0.08435 -0.14000
C 	C 	0.79925 0.41177 0.09748 0.15300
N 	N 	0.74516 0.36987 0.11917 -0.13400
C 	C 	0.70891 0.30391 0.12776 0.15100
N 	N 	0.72704 0.27955 0.11462 -0.13700
C 	C 	0.72467 0.30223 0.54918 0.14600
N 	N 	0.66424 0.24538 0.56068 -0.14200
C 	C 	0.62789 0.24498 0.57892 0.15200
N 	N 	0.65184 0.30130 0.58562 -0.14100
C 	C 	0.70975 0.35912 0.57124 0.14800
N 	N 	0.74693 0.35966 0.55340 -0.12500
C 	C 	0.28189 0.67264 0.23083 0.14500
N 	N 	0.24318 0.60576 0.24411 -0.12700
C 	C 	0.26058 0.57436 0.23960 0.14700
N 	N 	0.31636 0.60971 0.22161 -0.13600
C 	C 	0.35405 0.67628 0.20680 0.14600
N 	N 	0.33712 0.70799 0.21168 -0.14500
C 	C 	0.26183 0.63709 0.74997 0.14700
N 	N 	0.22345 0.58026 0.73574 -0.13000
C 	C 	0.25482 0.56231 0.73071 0.15300
N 	N 	0.32395 0.60081 0.74007 -0.14400
C 	C 	0.36225 0.65793 0.75311 0.15000
N 	N 	0.33126 0.67633 0.75795 -0.14000
Co	Co	0.11780 0.02461 0.16047 1.18400
Co	Co	0.91429 0.97795 0.11320 1.19000
Co	Co	0.03017 0.03299 0.19762 1.17900
Co	Co	0.00626 0.97459 0.07553 1.17500
C 	C 	0.15312 0.93481 0.18884 0.32800
Co	Co	0.14944 0.01125 0.07992 1.16700
Co	Co	0.89624 0.01603 0.18696 1.17100
C 	C 	0.05055 0.01620 0.98134 0.32100
O 	O 	0.96774 0.11635 0.16668 -0.36900
O 	O 	0.95232 0.01286 0.16168 -0.75000
C 	C 	0.03267 0.14514 0.19166 0.29000
O 	O 	0.11507 0.03806 0.21787 -0.45400
O 	O 	0.91075 0.94414 0.06628 -0.45100
C 	C 	0.85268 0.04932 0.07441 0.33300
O 	O 	0.02647 0.02791 0.12461 -0.58400
C 	C 	0.97566 0.98005 0.28698 0.31100
C 	C 	0.25506 0.12179 0.12968 0.32200
C 	C 	0.01388 0.87206 0.08224 0.27100
O 	O 	0.06874 0.12507 0.19995 -0.36200
O 	O 	0.22465 0.10756 0.08527 -0.38100
O 	O 	0.21987 0.10616 0.15826 -0.36800
O 	O 	0.82991 0.01326 0.11604 -0.40200
O 	O 	0.88354 0.03863 0.06206 -0.37400
O 	O 	0.95595 0.01852 0.26081 -0.38900
O 	O 	0.99505 0.96762 0.26432 -0.36500
O 	O 	0.07433 0.91525 0.07056 -0.39300
O 	O 	0.99393 0.88643 0.10259 -0.38100
O 	O 	0.09082 0.01564 0.10132 -0.76300
C 	C 	0.80155 0.88188 0.17143 0.32100
O 	O 	0.83364 0.91445 0.20615 -0.39000
O 	O 	0.83614 0.88768 0.14826 -0.38200
O 	O 	0.19052 0.97986 0.15491 -0.40600
O 	O 	0.11278 0.93969 0.19520 -0.40700
O 	O 	0.11582 0.04581 0.00399 -0.37700
O 	O 	0.00865 0.00816 0.99857 -0.37700
Co	Co	0.06072 0.94371 0.66608 1.18600
Co	Co	0.90859 0.98017 0.61569 1.19100
Co	Co	0.03233 0.01399 0.70039 1.17600
Co	Co	0.94218 0.91699 0.57837 1.19600
C 	C 	0.03327 0.80925 0.70833 0.29400
Co	Co	0.01792 0.85691 0.59732 1.16400
Co	Co	0.93338 0.04450 0.69339 1.17500
C 	C 	0.99375 0.93807 0.49502 0.31900
O 	O 	0.03363 0.10599 0.73019 -0.41800
O 	O 	0.96169 0.01295 0.66670 -0.74200
C 	C 	0.08492 0.14208 0.70901 0.32900
O 	O 	0.09845 0.99531 0.71515 -0.45600
O 	O 	0.87773 0.93845 0.56161 -0.44800
C 	C 	0.90782 0.10016 0.58213 0.32300
O 	O 	0.00070 0.98613 0.62889 -0.59000
C 	C 	0.97536 0.96962 0.78876 0.32300
C 	C 	0.16245 0.96792 0.63072 0.33000
C 	C 	0.86781 0.77877 0.57951 0.33600
O 	O 	0.09736 0.11446 0.69556 -0.38900
O 	O 	0.12065 0.90424 0.63478 -0.40000
O 	O 	0.14909 0.99588 0.64284 -0.38900
O 	O 	0.94852 0.11536 0.62602 -0.37600
O 	O 	0.89555 0.05514 0.56806 -0.36500
O 	O 	0.92227 0.97014 0.75865 -0.38300
O 	O 	0.00729 0.96369 0.77223 -0.38900
O 	O 	0.91609 0.80418 0.55931 -0.38900
O 	O 	0.87279 0.81523 0.59779 -0.39000
O 	O 	0.00932 0.91375 0.61357 -0.77200
C 	C 	0.80145 0.92131 0.66471 0.33300
O 	O 	0.83052 0.98303 0.65985 -0.39400
O 	O 	0.82816 0.90637 0.65214 -0.38900
O 	O 	0.99317 0.79073 0.66551 -0.37400
O 	O 	0.04203 0.85498 0.71829 -0.38400
O 	O 	0.04021 0.92913 0.53053 -0.40100
O 	O 	0.95827 0.94573 0.50612 -0.35100
C 	C 	0.96959 0.94507 0.91912 0.00700
C 	C 	0.02803 0.00642 0.92983 -0.11400
C 	C 	0.07119 0.05349 0.89508 0.14100
C 	C 	0.05862 0.03694 0.85291 -0.07600
C 	C 	0.99947 0.97629 0.84152 -0.04900
C 	C 	0.95525 0.92983 0.87539 0.11300
Br	Br	0.87646 0.84433 0.86367 -0.20000
H 	H 	0.93634 0.90828 0.94556 0.07000
H 	H 	0.09263 0.07325 0.82704 0.07200
Br	Br	0.14249 0.14303 0.90078 -0.21300
C 	C 	0.92264 0.91422 0.36097 -0.03800
C 	C 	0.98249 0.95713 0.34291 -0.05900
C 	C 	0.04608 0.99358 0.37536 0.10700
C 	C 	0.04890 0.98935 0.42389 -0.05000
C 	C 	0.98857 0.94920 0.44077 -0.06100
C 	C 	0.92509 0.91140 0.40881 0.12100
Br	Br	0.84078 0.85728 0.42856 -0.21100
H 	H 	0.87336 0.88648 0.33620 0.06700
H 	H 	0.09818 0.01754 0.44843 0.06400
Br	Br	0.12954 0.05218 0.35306 -0.24100
C 	C 	0.13247 0.31139 0.65430 -0.11500
C 	C 	0.16599 0.33328 0.69902 0.01100
C 	C 	0.18824 0.29871 0.74433 0.11800
C 	C 	0.16941 0.23864 0.74605 -0.02500
C 	C 	0.12994 0.21359 0.70248 -0.13000
C 	C 	0.11724 0.25323 0.65560 0.19400
C 	C 	0.17622 0.39124 0.69875 -0.00600
O 	O 	0.22515 0.32172 0.78759 -0.25900
H 	H 	0.18128 0.20934 0.78210 0.06600
O 	O 	0.08474 0.23242 0.61168 -0.29800
H 	H 	0.11650 0.33836 0.61891 0.07000
C 	C 	0.21703 0.45372 0.66842 0.13000
C 	C 	0.23469 0.50947 0.67413 -0.06300
C 	C 	0.21467 0.50396 0.71160 -0.05900
C 	C 	0.16845 0.44102 0.73836 0.16600
C 	C 	0.14891 0.38486 0.73153 -0.09300
O 	O 	0.24430 0.46104 0.63628 -0.27500
H 	H 	0.26864 0.55771 0.65221 0.06600
O 	O 	0.14679 0.43446 0.77416 -0.27300
H 	H 	0.11526 0.33661 0.75358 0.08100
H 	H 	0.12198 0.25111 0.59738 0.15400
H 	H 	0.21220 0.46046 0.60243 0.14500
H 	H 	0.10384 0.43100 0.75549 0.15400
H 	H 	0.27382 0.35028 0.78637 0.15500
C 	C 	0.61744 0.79553 0.67337 -0.11100
C 	C 	0.62269 0.79897 0.71954 0.01100
C 	C 	0.68752 0.83394 0.75115 0.12600
C 	C 	0.74647 0.86824 0.73521 -0.02800
C 	C 	0.74146 0.86931 0.68723 -0.12000
C 	C 	0.67663 0.83057 0.65715 0.20000
C 	C 	0.56047 0.76839 0.73364 -0.00300
O 	O 	0.69339 0.83550 0.79733 -0.26000
H 	H 	0.79609 0.89745 0.75882 0.07400
O 	O 	0.67082 0.83076 0.61029 -0.28600
H 	H 	0.56750 0.76747 0.64931 0.07500
C 	C 	0.52327 0.79520 0.70672 0.13100
C 	C 	0.46153 0.76294 0.71790 -0.06100
C 	C 	0.43591 0.70325 0.75509 -0.05800
C 	C 	0.47640 0.67995 0.78510 0.16900
C 	C 	0.53830 0.71240 0.77417 -0.09400
O 	O 	0.54738 0.85306 0.66976 -0.27100
H 	H 	0.43136 0.78196 0.69529 0.06700
O 	O 	0.45497 0.62490 0.82471 -0.27300
H 	H 	0.56813 0.69300 0.79635 0.08500
H 	H 	0.67122 0.79370 0.61669 0.15900
H 	H 	0.52641 0.83985 0.63744 0.15000
H 	H 	0.43035 0.58760 0.81024 0.15900
H 	H 	0.69531 0.87426 0.79012 0.15600
C 	C 	0.14969 0.68694 0.71814 -0.10000
C 	C 	0.17080 0.70407 0.76280 -0.00600
C 	C 	0.22030 0.69711 0.80394 0.14100
C 	C 	0.24877 0.67380 0.79993 -0.06400
C 	C 	0.22826 0.65743 0.75498 -0.05500
C 	C 	0.17844 0.66409 0.71397 0.16400
C 	C 	0.14128 0.73000 0.76587 0.00800
O 	O 	0.23942 0.71115 0.84856 -0.27100
H 	H 	0.28688 0.66858 0.83175 0.07400
O 	O 	0.15779 0.64835 0.66979 -0.27900
H 	H 	0.11153 0.69212 0.68635 0.06800
C 	C 	0.17771 0.79824 0.75765 0.12300
C 	C 	0.14382 0.82373 0.74840 -0.03600
C 	C 	0.07269 0.78216 0.74327 -0.11300
C 	C 	0.03841 0.71347 0.75778 0.17100
C 	C 	0.07291 0.68764 0.76935 -0.10600
O 	O 	0.24562 0.84027 0.75667 -0.27100
H 	H 	0.17151 0.87653 0.73994 0.06300
O 	O 	0.97053 0.67160 0.75876 -0.26100
H 	H 	0.04523 0.63485 0.77772 0.07600
H 	H 	0.18913 0.68967 0.64804 0.15100
H 	H 	0.24607 0.85321 0.72054 0.15400
H 	H 	0.94504 0.66076 0.72506 0.16400
H 	H 	0.27991 0.75792 0.84519 0.16300
C 	C 	0.13455 0.32286 0.18937 -0.11400
C 	C 	0.12058 0.31620 0.23106 0.00700
C 	C 	0.08099 0.25332 0.26146 0.12600
C 	C 	0.05423 0.19748 0.24927 -0.03800
C 	C 	0.06723 0.20407 0.20709 -0.11100
C 	C 	0.10760 0.26699 0.17710 0.19700
C 	C 	0.14820 0.37532 0.24295 -0.00300
O 	O 	0.06639 0.24625 0.30195 -0.27400
H 	H 	0.02257 0.14897 0.27220 0.05800
O 	O 	0.12117 0.27397 0.13606 -0.28400
H 	H 	0.16579 0.37136 0.16623 0.07800
C 	C 	0.21094 0.40455 0.27832 0.13600
C 	C 	0.24394 0.46753 0.28183 -0.06100
C 	C 	0.21570 0.50242 0.24907 -0.05400
C 	C 	0.14994 0.47068 0.21709 0.16700
C 	C 	0.11623 0.40706 0.21440 -0.09700
O 	O 	0.24081 0.37226 0.30859 -0.27500
H 	H 	0.29383 0.49110 0.30747 0.07000
O 	O 	0.11979 0.50274 0.18699 -0.27900
H 	H 	0.06691 0.38387 0.18810 0.07200
H 	H 	0.08402 0.27405 0.10659 0.15200
H 	H 	0.27029 0.38587 0.28896 0.15600
H 	H 	0.13424 0.52549 0.15442 0.15000
H 	H 	0.10346 0.24654 0.33173 0.16100
C 	C 	0.46813 0.71332 0.14312 -0.09600
C 	C 	0.53241 0.76159 0.16649 -0.00400
C 	C 	0.53672 0.79027 0.19573 0.13200
C 	C 	0.47716 0.76605 0.20535 -0.06300
C 	C 	0.41323 0.71356 0.18568 -0.06000
C 	C 	0.40855 0.69007 0.15184 0.16600
C 	C 	0.59513 0.77941 0.16277 0.01100
O 	O 	0.59890 0.84246 0.21429 -0.27600
H 	H 	0.48113 0.78597 0.23006 0.06700
O 	O 	0.34590 0.64221 0.12915 -0.27900
H 	H 	0.46440 0.69261 0.11920 0.07700
C 	C 	0.63233 0.75662 0.20461 0.11700
C 	C 	0.69804 0.78358 0.20445 -0.02500
C 	C 	0.72687 0.83335 0.16279 -0.12500
C 	C 	0.68535 0.84820 0.11805 0.19300
C 	C 	0.62021 0.82245 0.11854 -0.11300
O 	O 	0.60456 0.70811 0.24558 -0.26600
H 	H 	0.72855 0.76952 0.23825 0.06400
O 	O 	0.71075 0.89257 0.07539 -0.29000
H 	H 	0.59048 0.83797 0.08531 0.07800
H 	H 	0.33073 0.66637 0.09667 0.15000
H 	H 	0.62108 0.73152 0.27029 0.14800
H 	H 	0.69824 0.86579 0.05536 0.15700
H 	H 	0.61555 0.82280 0.24924 0.14800
C 	C 	0.24006 0.85336 0.26072 -0.11900
C 	C 	0.19135 0.79670 0.24186 0.01100
C 	C 	0.12373 0.77738 0.21881 0.12100
C 	C 	0.10753 0.81854 0.20991 -0.03000
C 	C 	0.15927 0.88046 0.22103 -0.12900
C 	C 	0.22401 0.89499 0.25076 0.19900
C 	C 	0.21379 0.76429 0.23895 -0.00600
O 	O 	0.07404 0.71942 0.20365 -0.26900
H 	H 	0.05635 0.80505 0.19011 0.05400
O 	O 	0.27365 0.95294 0.26585 -0.29300
H 	H 	0.29164 0.86736 0.28013 0.07600
C 	C 	0.23125 0.78244 0.19440 0.13100
C 	C 	0.25478 0.75331 0.19231 -0.06500
C 	C 	0.26178 0.70647 0.23466 -0.05700
C 	C 	0.24589 0.68953 0.27969 0.16500
C 	C 	0.22153 0.71813 0.28152 -0.09500
O 	O 	0.22374 0.82751 0.15246 -0.28300
H 	H 	0.26658 0.76640 0.15747 0.06600
O 	O 	0.25343 0.64454 0.32171 -0.27400
H 	H 	0.20912 0.70472 0.31615 0.07600
H 	H 	0.26852 0.94247 0.29981 0.15600
H 	H 	0.26821 0.87092 0.15658 0.14700
H 	H 	0.30099 0.67078 0.34151 0.15000
H 	H 	0.07410 0.73124 0.16761 0.14800
C 	C 	0.85076 0.27960 0.56325 -0.09500
C 	C 	0.82050 0.25440 0.52082 -0.00500
C 	C 	0.76767 0.25850 0.48259 0.13700
C 	C 	0.74081 0.28120 0.48957 -0.06300
C 	C 	0.76680 0.30050 0.53433 -0.05200
C 	C 	0.82413 0.30262 0.57006 0.16600
C 	C 	0.83756 0.21568 0.52028 0.01300
O 	O 	0.73935 0.23652 0.43993 -0.27400
H 	H 	0.69718 0.28020 0.46153 0.07100
O 	O 	0.85254 0.32475 0.61269 -0.27200
H 	H 	0.89239 0.27784 0.59241 0.07200
C 	C 	0.90429 0.24569 0.51929 0.11800
C 	C 	0.92472 0.20661 0.53174 -0.02700
C 	C 	0.87952 0.13772 0.54667 -0.11700
C 	C 	0.81038 0.10803 0.54065 0.19100
C 	C 	0.78976 0.14698 0.52808 -0.10900
O 	O 	0.94980 0.31303 0.50684 -0.26200
H 	H 	0.97728 0.22996 0.53378 0.07700
O 	O 	0.76456 0.04072 0.55243 -0.28200
H 	H 	0.73769 0.12349 0.52751 0.08500
H 	H 	0.82813 0.28513 0.63895 0.15300
H 	H 	0.97597 0.32591 0.53979 0.15100
H 	H 	0.74426 0.02802 0.51998 0.16200
H 	H 	0.76645 0.27552 0.41472 0.16000
C 	C 	0.74415 0.62327 0.54135 -0.10900
C 	C 	0.76421 0.58540 0.58422 0.01100
C 	C 	0.79986 0.60423 0.63072 0.11500
C 	C 	0.82395 0.66536 0.63188 -0.03400
C 	C 	0.81320 0.70781 0.58677 -0.12400
C 	C 	0.76598 0.68288 0.54343 0.19800
C 	C 	0.75084 0.52824 0.57957 -0.00600
O 	O 	0.81447 0.56484 0.67424 -0.27500
H 	H 	0.85630 0.68221 0.66665 0.06700
O 	O 	0.74651 0.71975 0.50132 -0.26900
H 	H 	0.71391 0.60782 0.50591 0.09200
C 	C 	0.68362 0.47632 0.56243 0.13400
C 	C 	0.67175 0.42460 0.55513 -0.06300
C 	C 	0.72593 0.42123 0.56844 -0.05300
C 	C 	0.79336 0.47311 0.58574 0.16400
C 	C 	0.80571 0.52706 0.59013 -0.08900
O 	O 	0.62936 0.47617 0.55253 -0.27500
H 	H 	0.61977 0.38553 0.54095 0.07600
O 	O 	0.84714 0.47132 0.59840 -0.26700
H 	H 	0.85782 0.56753 0.60235 0.08200
H 	H 	0.70461 0.70615 0.50572 0.15700
H 	H 	0.61509 0.45297 0.58522 0.15000
H 	H 	0.85236 0.44919 0.63523 0.15900
H 	H 	0.77528 0.53562 0.69032 0.15300
C 	C 	0.43782 0.14594 0.54887 -0.10100
C 	C 	0.42528 0.10571 0.59734 -0.00700
C 	C 	0.47757 0.10197 0.63699 0.14100
C 	C 	0.54354 0.14311 0.62916 -0.06300
C 	C 	0.55741 0.18780 0.58195 -0.06200
C 	C 	0.50346 0.18634 0.54093 0.16800
C 	C 	0.35838 0.07002 0.60680 0.01700
O 	O 	0.46414 0.05788 0.68314 -0.27300
H 	H 	0.58466 0.14286 0.66056 0.06800
O 	O 	0.51615 0.22853 0.49414 -0.28000
H 	H 	0.39722 0.14768 0.51782 0.07600
C 	C 	0.35218 0.09051 0.63604 0.11400
C 	C 	0.28792 0.05774 0.64323 -0.02400
C 	C 	0.22921 0.00618 0.61972 -0.13800
C 	C 	0.23523 0.98842 0.58805 0.21000
C 	C 	0.29976 0.01916 0.58285 -0.12500
O 	O 	0.40898 0.14201 0.65808 -0.27400
H 	H 	0.28392 0.07207 0.66742 0.06200
O 	O 	0.17807 0.94071 0.56240 -0.30300
H 	H 	0.30411 0.00436 0.55926 0.08200
H 	H 	0.50964 0.20396 0.47543 0.15600
H 	H 	0.41319 0.18191 0.63234 0.15000
H 	H 	0.16431 0.96468 0.52876 0.15900
H 	H 	0.47601 0.08266 0.70467 0.16300
C 	C 	0.77982 0.14110 0.02298 -0.11600
C 	C 	0.83824 0.19885 0.03918 0.00800
C 	C 	0.90328 0.21468 0.05029 0.12200
C 	C 	0.90868 0.16875 0.05173 -0.03100
C 	C 	0.84949 0.10587 0.04484 -0.12300
C 	C 	0.78524 0.09453 0.02584 0.19900
C 	C 	0.83043 0.23575 0.05313 -0.00100
O 	O 	0.96123 0.27236 0.06399 -0.27000
H 	H 	0.95871 0.17936 0.06377 0.06700
O 	O 	0.72726 0.03622 0.01308 -0.28400
H 	H 	0.72971 0.12996 0.01195 0.07400
C 	C 	0.81269 0.27817 0.01523 0.12600
C 	C 	0.79932 0.30807 0.02876 -0.07200
C 	C 	0.80218 0.29481 0.07987 -0.05500
C 	C 	0.82185 0.25390 0.11786 0.16700
C 	C 	0.83568 0.22445 0.10439 -0.09400
O 	O 	0.80937 0.29124 0.96515 -0.26100
H 	H 	0.78509 0.34022 0.99937 0.07800
O 	O 	0.82599 0.24135 0.16805 -0.27600
H 	H 	0.84935 0.19187 0.13376 0.07800
H 	H 	0.70926 0.00661 0.04435 0.16400
H 	H 	0.76116 0.25768 0.95088 0.15200
H 	H 	0.87388 0.27616 0.18157 0.16300
H 	H 	0.97524 0.30467 0.03172 0.15700
C 	C 	0.94446 0.72949 0.03923 -0.10700
C 	C 	0.91365 0.67627 0.07883 0.01000
C 	C 	0.90786 0.68624 0.11611 0.12300
C 	C 	0.93632 0.74996 0.11506 -0.03800
C 	C 	0.97169 0.80409 0.07743 -0.09500
C 	C 	0.97358 0.79316 0.03837 0.19800
C 	C 	0.88673 0.60999 0.08072 -0.00100
O 	O 	0.87651 0.63418 0.15453 -0.26000
H 	H 	0.93322 0.75745 0.14465 0.06900
O 	O 	0.00260 0.84451 0.99877 -0.28200
H 	H 	0.94686 0.72165 0.00944 0.08900
C 	C 	0.82373 0.57255 0.04862 0.13200
C 	C 	0.79836 0.50964 0.05078 -0.05900
C 	C 	0.83478 0.48303 0.08558 -0.05800
C 	C 	0.89933 0.52169 0.11599 0.17100
C 	C 	0.92497 0.58489 0.11362 -0.09200
O 	O 	0.78693 0.59743 0.01507 -0.26900
H 	H 	0.74878 0.48025 0.02703 0.06700
O 	O 	0.93543 0.49628 0.15030 -0.26700
H 	H 	0.97409 0.61399 0.13786 0.08900
H 	H 	0.04996 0.85831 0.00816 0.14600
H 	H 	0.75683 0.58373 0.03417 0.15100
H 	H 	0.96494 0.50842 0.13151 0.16300
H 	H 	0.82758 0.61699 0.14142 0.15000
C 	C 	0.58465 0.24450 0.19373 -0.09400
C 	C 	0.52256 0.20894 0.16045 -0.00500
C 	C 	0.52152 0.19263 0.12350 0.13000
C 	C 	0.58315 0.21823 0.11633 -0.06300
C 	C 	0.64588 0.25979 0.14608 -0.05800
C 	C 	0.64619 0.26918 0.18712 0.16700
C 	C 	0.46025 0.19546 0.16031 0.01000
O 	O 	0.46067 0.15541 0.09212 -0.27700
H 	H 	0.58227 0.20941 0.08541 0.06700
O 	O 	0.70696 0.30626 0.21863 -0.27200
H 	H 	0.58554 0.25545 0.22331 0.08300
C 	C 	0.41991 0.14096 0.19525 0.12000
C 	C 	0.35546 0.12256 0.18942 -0.03300
C 	C 	0.32957 0.15616 0.14737 -0.12000
C 	C 	0.37260 0.21424 0.11534 0.20000
C 	C 	0.43798 0.23403 0.12223 -0.11000
O 	O 	0.44272 0.10490 0.23442 -0.26600
H 	H 	0.32347 0.07907 0.21525 0.07300
O 	O 	0.35040 0.25115 0.07685 -0.28100
H 	H 	0.46999 0.27754 0.09636 0.08300
H 	H 	0.71575 0.27443 0.24684 0.15800
H 	H 	0.42555 0.06983 0.22073 0.14900
H 	H 	0.33080 0.23526 0.04618 0.16700
H 	H 	0.44445 0.10915 0.10999 0.14500
