data_crystal

_cell_length_a 19.85165
_cell_length_b 17.89535
_cell_length_c 29.02181
_cell_angle_alpha 88.28350
_cell_angle_beta  88.43776
_cell_angle_gamma 107.44176

_symmetry_space_group_name_	'P 1'
_symmetry_space_group_name_H-M	'P 1'

loop_
_symmetry_equiv_pos_as_xyz
  x,y,z

loop_
_atom_site_label
_atom_site_type_symbol
_atom_site_fract_x
_atom_site_fract_y
_atom_site_fract_z
_atom_site_charge
Zn	Zn	0.58637 0.32956 0.88533 1.22400
Zn	Zn	0.69531 0.44268 0.95453 1.19800
C 	C 	0.78327 0.23152 0.83230 0.28200
Zn	Zn	0.74884 0.36909 0.87130 1.22200
Zn	Zn	0.62736 0.21184 0.82994 1.18900
H 	H 	0.68317 0.29923 0.94329 0.18400
C 	C 	0.74368 0.52981 0.85848 0.28500
O 	O 	0.52309 0.17886 0.82074 -0.46000
O 	O 	0.50198 0.29437 0.83954 -0.39300
O 	O 	0.67967 0.34349 0.92320 -0.79500
O 	O 	0.59674 0.43980 0.96946 -0.46700
O 	O 	0.53406 0.24146 0.92599 -0.45400
O 	O 	0.55690 0.42270 0.89627 -0.43300
O 	O 	0.60280 0.16821 0.90190 -0.42500
O 	O 	0.79650 0.49825 0.95664 -0.48000
H 	H 	0.64939 0.35596 0.80891 0.16700
O 	O 	0.83703 0.41324 0.91436 -0.39800
O 	O 	0.65438 0.32592 0.83715 -0.80500
O 	O 	0.71774 0.18735 0.84210 -0.45600
O 	O 	0.76813 0.47462 0.84220 -0.44100
O 	O 	0.80465 0.30636 0.84249 -0.43100
O 	O 	0.69439 0.51361 0.89184 -0.40700
C 	C 	0.47980 0.22236 0.82462 0.28100
C 	C 	0.55234 0.44685 0.93819 0.30600
C 	C 	0.54981 0.17580 0.92751 0.35400
C 	C 	0.84895 0.47693 0.93852 0.33800
Zn	Zn	0.65219 0.39047 0.55904 1.22300
Zn	Zn	0.53913 0.26269 0.49604 1.19800
C 	C 	0.68467 0.16723 0.64228 0.28300
Zn	Zn	0.57696 0.21838 0.59441 1.22200
Zn	Zn	0.72614 0.34313 0.63852 1.18900
H 	H 	0.65487 0.25215 0.52361 0.17300
C 	C 	0.44010 0.24171 0.58268 0.27700
O 	O 	0.78298 0.45565 0.63028 -0.46300
O 	O 	0.70283 0.49929 0.59033 -0.39100
O 	O 	0.61836 0.27356 0.53683 -0.79800
O 	O 	0.56369 0.37049 0.46761 -0.46800
O 	O 	0.74079 0.40629 0.52446 -0.44000
O 	O 	0.58721 0.44233 0.53232 -0.43900
O 	O 	0.77388 0.32197 0.57287 -0.42200
O 	O 	0.47668 0.15432 0.50138 -0.48000
H 	H 	0.60096 0.35395 0.63865 0.17100
O 	O 	0.53039 0.10996 0.56108 -0.40800
O 	O 	0.62921 0.33121 0.61778 -0.79500
O 	O 	0.72379 0.23391 0.65851 -0.46300
O 	O 	0.48171 0.22275 0.61255 -0.43600
O 	O 	0.61674 0.15515 0.63623 -0.43900
O 	O 	0.46787 0.29038 0.54724 -0.40400
C 	C 	0.76536 0.51285 0.60880 0.28700
C 	C 	0.56394 0.43313 0.49017 0.30900
C 	C 	0.78716 0.37146 0.53678 0.28800
C 	C 	0.48282 0.09719 0.52895 0.34500
Zn	Zn	0.94976 0.91288 0.70211 1.23300
Zn	Zn	0.06182 0.94283 0.78784 1.20500
C 	C 	0.14360 0.09202 0.61315 0.32500
Zn	Zn	0.08092 0.05829 0.70538 1.22300
Zn	Zn	0.98791 0.00707 0.60895 1.18200
H 	H 	0.08960 0.92050 0.70277 0.18200
C 	C 	0.99379 0.08117 0.78193 0.29500
O 	O 	0.88451 0.97001 0.60214 -0.42000
O 	O 	0.84918 0.90106 0.67174 -0.37000
O 	O 	0.05793 0.94500 0.71936 -0.76800
O 	O 	0.98103 0.84605 0.80532 -0.45700
O 	O 	0.95996 0.82479 0.66899 -0.45600
O 	O 	0.89902 0.87961 0.76167 -0.42600
O 	O 	0.98195 0.88281 0.59724 -0.38000
O 	O 	0.14133 0.03477 0.80648 -0.46800
H 	H 	0.95230 0.04876 0.68570 0.16700
O 	O 	0.18172 0.08463 0.73399 -0.42100
O 	O 	0.98394 0.01774 0.67667 -0.83400
O 	O 	0.09464 0.03554 0.59353 -0.44800
O 	O 	0.04553 0.11680 0.75207 -0.42700
O 	O 	0.12888 0.12240 0.65134 -0.45600
O 	O 	0.98820 0.01034 0.79890 -0.41900
C 	C 	0.83948 0.94854 0.63817 0.31100
C 	C 	0.91603 0.83068 0.79061 0.35000
C 	C 	0.95148 0.82113 0.62468 0.34300
C 	C 	0.19221 0.07778 0.77813 0.34200
Zn	Zn	0.31613 0.69032 0.38820 1.22400
Zn	Zn	0.20639 0.53977 0.44576 1.19800
C 	C 	0.11612 0.79001 0.34543 0.32400
Zn	Zn	0.15290 0.65002 0.38264 1.22400
Zn	Zn	0.27373 0.82053 0.34267 1.19300
H 	H 	0.21627 0.68316 0.45677 0.18300
C 	C 	0.16194 0.50309 0.34648 0.27800
O 	O 	0.37959 0.86360 0.33864 -0.45100
O 	O 	0.40252 0.74558 0.34194 -0.39400
O 	O 	0.22194 0.65228 0.43001 -0.79100
O 	O 	0.30356 0.53484 0.45616 -0.47100
O 	O 	0.35767 0.76979 0.43261 -0.44000
O 	O 	0.35276 0.60086 0.38908 -0.43900
O 	O 	0.27741 0.83433 0.41734 -0.41000
O 	O 	0.10487 0.48360 0.44450 -0.47200
H 	H 	0.25354 0.68272 0.31453 0.17200
O 	O 	0.06555 0.58902 0.42858 -0.39000
O 	O 	0.24762 0.70489 0.34468 -0.79700
O 	O 	0.17977 0.84123 0.34689 -0.43400
O 	O 	0.13109 0.55882 0.34294 -0.43000
O 	O 	0.09849 0.72528 0.37206 -0.42500
O 	O 	0.21526 0.51104 0.37396 -0.40900
C 	C 	0.42442 0.82219 0.33498 0.27800
C 	C 	0.35867 0.56458 0.42796 0.35300
C 	C 	0.32974 0.82563 0.44180 0.28700
C 	C 	0.05515 0.51790 0.44677 0.35200
Zn	Zn	0.21186 0.72938 0.07407 1.22200
Zn	Zn	0.33365 0.84800 0.14101 1.19200
C 	C 	0.38586 0.60832 0.02770 0.32700
Zn	Zn	0.37695 0.75303 0.06829 1.22400
Zn	Zn	0.25917 0.63583 0.99906 1.19300
H 	H 	0.30009 0.69819 0.13891 0.17200
C 	C 	0.38995 0.91385 0.04170 0.26800
O 	O 	0.18348 0.65309 0.96398 -0.46500
O 	O 	0.13071 0.70361 0.02221 -0.35800
O 	O 	0.30250 0.74132 0.11613 -0.78100
O 	O 	0.23899 0.85990 0.15347 -0.46700
O 	O 	0.16093 0.62689 0.10569 -0.43300
O 	O 	0.17863 0.82238 0.08757 -0.42000
O 	O 	0.17423 0.55629 0.04329 -0.38400
O 	O 	0.43882 0.89228 0.14215 -0.45500
H 	H 	0.28978 0.77834 0.00617 0.18000
O 	O 	0.46120 0.78392 0.11468 -0.40400
O 	O 	0.28661 0.73517 0.02906 -0.80000
O 	O 	0.31704 0.58193 0.03229 -0.47000
O 	O 	0.41735 0.85594 0.03780 -0.42800
O 	O 	0.42086 0.67484 0.04557 -0.42200
O 	O 	0.34042 0.91062 0.07375 -0.40100
C 	C 	0.12667 0.66255 0.98434 0.27100
C 	C 	0.19861 0.87246 0.12091 0.30100
C 	C 	0.14471 0.56046 0.08398 0.29500
C 	C 	0.48423 0.85614 0.12855 0.31100
Zn	Zn	0.97945 0.13837 0.22304 1.22200
Zn	Zn	0.85900 0.08401 0.31220 1.18900
C 	C 	0.77874 0.00353 0.13201 0.23700
Zn	Zn	0.83921 0.00285 0.22071 1.21100
Zn	Zn	0.93449 0.09020 0.12484 1.18900
H 	H 	0.84270 0.14416 0.23191 0.18200
C 	C 	0.91201 0.93907 0.29008 0.32700
O 	O 	0.03751 0.14221 0.11588 -0.43500
O 	O 	0.07943 0.14870 0.18892 -0.36000
O 	O 	0.87024 0.11048 0.24398 -0.78700
O 	O 	0.94415 0.16273 0.33619 -0.45500
O 	O 	0.98727 0.24527 0.20134 -0.45400
O 	O 	0.02230 0.14146 0.28275 -0.43900
O 	O 	0.92519 0.20814 0.13711 -0.40100
O 	O 	0.77092 0.99369 0.32475 -0.44300
H 	H 	0.96481 0.00863 0.18986 0.16100
O 	O 	0.73566 0.97422 0.25066 -0.39100
O 	O 	0.93713 0.04630 0.18856 -0.81100
O 	O 	0.82906 0.06223 0.11154 -0.42900
O 	O 	0.86495 0.92172 0.25794 -0.43000
O 	O 	0.79342 0.95997 0.16489 -0.40400
O 	O 	0.92279 0.00394 0.31266 -0.44100
C 	C 	0.08154 0.12729 0.14566 0.30700
C 	C 	0.00623 0.18590 0.31395 0.36300
C 	C 	0.97021 0.26241 0.16010 0.32800
C 	C 	0.72044 0.97105 0.29503 0.34600
C 	C 	0.08923 0.48990 0.10360 -0.02200
C 	C 	0.07706 0.47730 0.15145 -0.04200
C 	C 	0.03267 0.40524 0.16969 0.03300
C 	C 	0.00062 0.34414 0.14033 -0.13600
C 	C 	0.00852 0.35915 0.09215 0.21300
C 	C 	0.05257 0.43155 0.07412 -0.10000
H 	H 	0.02580 0.39577 0.20676 0.03600
H 	H 	0.05993 0.44120 0.03709 0.08300
H 	H 	0.10392 0.52194 0.17467 0.04800
O 	O 	0.97688 0.30184 0.06254 -0.30900
H 	H 	0.93076 0.31011 0.05609 0.14900
C 	C 	0.56047 0.90068 0.12284 -0.07400
C 	C 	0.60726 0.86900 0.09879 0.00500
C 	C 	0.67947 0.90978 0.09504 -0.01400
C 	C 	0.70609 0.98189 0.11602 -0.02600
C 	C 	0.65843 0.01783 0.13524 0.07100
C 	C 	0.58607 0.97679 0.13936 0.02900
H 	H 	0.71551 0.88226 0.07913 0.04800
H 	H 	0.55035 0.00353 0.15638 0.01700
H 	H 	0.58814 0.81204 0.08390 0.05400
O 	O 	0.68316 0.09008 0.15389 -0.28500
H 	H 	0.68310 0.12829 0.12843 0.14600
C 	C 	0.17108 0.94039 0.12392 -0.01300
C 	C 	0.10615 0.93814 0.10521 0.00400
C 	C 	0.07855 0.00078 0.11068 -0.04600
C 	C 	0.11550 0.06649 0.13501 -0.14300
C 	C 	0.18182 0.07009 0.15237 0.19900
C 	C 	0.20927 0.00717 0.14690 -0.12500
H 	H 	0.02720 0.99698 0.09740 0.02500
H 	H 	0.26020 0.01027 0.16066 0.05500
H 	H 	0.07612 0.88713 0.08744 0.04600
O 	O 	0.21922 0.13421 0.17552 -0.28800
H 	H 	0.24929 0.17063 0.15151 0.15000
C 	C 	0.50079 0.86292 0.32723 -0.01600
C 	C 	0.55121 0.82942 0.34441 -0.05000
C 	C 	0.62347 0.86754 0.33656 0.04700
C 	C 	0.64611 0.93929 0.31134 -0.16500
C 	C 	0.59577 0.97433 0.29558 0.24100
C 	C 	0.52351 0.93632 0.30369 -0.11700
H 	H 	0.66173 0.83997 0.34874 0.03300
H 	H 	0.48522 0.96337 0.29092 0.07600
H 	H 	0.53450 0.77374 0.36368 0.06100
O 	O 	0.61720 0.04634 0.27283 -0.34500
H 	H 	0.61757 0.03505 0.23961 0.15900
C 	C 	0.12675 0.42544 0.32816 -0.01500
C 	C 	0.16037 0.36653 0.32890 -0.05500
C 	C 	0.12152 0.28851 0.32227 0.05200
C 	C 	0.04874 0.26867 0.31535 -0.17900
C 	C 	0.01619 0.32839 0.31109 0.23000
C 	C 	0.05549 0.40639 0.31667 -0.11500
H 	H 	0.14743 0.24321 0.32433 0.03000
H 	H 	0.02944 0.45153 0.31438 0.08500
H 	H 	0.21591 0.38066 0.33623 0.05500
O 	O 	0.94508 0.31015 0.30406 -0.33300
H 	H 	0.94094 0.31440 0.27020 0.14500
C 	C 	0.95615 0.88795 0.29936 -0.05300
C 	C 	0.94608 0.84361 0.34100 -0.01800
C 	C 	0.99682 0.80866 0.35502 0.01600
C 	C 	0.05861 0.81828 0.32768 -0.12400
C 	C 	0.06690 0.85919 0.28461 0.18600
C 	C 	0.01579 0.89405 0.27070 -0.06700
H 	H 	0.98944 0.77687 0.38806 0.04800
H 	H 	0.02405 0.92848 0.23853 0.06100
H 	H 	0.90029 0.83881 0.36340 0.05000
O 	O 	0.12613 0.86784 0.25694 -0.29800
H 	H 	0.11356 0.82279 0.23640 0.14000
C 	C 	0.36210 0.88358 0.47609 -0.03300
C 	C 	0.32863 0.93840 0.48998 -0.01000
C 	C 	0.36641 0.00481 0.51263 0.00400
C 	C 	0.43804 0.01717 0.52156 -0.18500
C 	C 	0.46893 0.95753 0.51293 0.23400
C 	C 	0.43072 0.89060 0.49059 -0.10500
H 	H 	0.34165 0.04969 0.51994 0.03400
H 	H 	0.45606 0.84666 0.48207 0.08000
H 	H 	0.27457 0.93181 0.48108 0.05400
O 	O 	0.53726 0.96587 0.52462 -0.28700
H 	H 	0.56693 0.99106 0.49704 0.15200
C 	C 	0.85617 0.39294 0.51208 -0.03400
C 	C 	0.91810 0.40977 0.53704 -0.04100
C 	C 	0.98306 0.45069 0.51552 0.01900
C 	C 	0.98666 0.47525 0.46892 -0.16600
C 	C 	0.92546 0.45413 0.44309 0.20700
C 	C 	0.86052 0.41288 0.46465 -0.09900
H 	H 	0.03040 0.46498 0.53536 0.02100
H 	H 	0.81305 0.39909 0.44493 0.06800
H 	H 	0.91543 0.39494 0.57365 0.03500
O 	O 	0.92869 0.47533 0.39707 -0.29400
H 	H 	0.93634 0.43048 0.38075 0.15100
C 	C 	0.52914 0.48787 0.47041 -0.03400
C 	C 	0.50183 0.53384 0.49951 -0.04100
C 	C 	0.45053 0.56613 0.48383 0.03900
C 	C 	0.42610 0.55260 0.43906 -0.16400
C 	C 	0.46016 0.51566 0.40803 0.20600
C 	C 	0.51257 0.48462 0.42360 -0.10100
H 	H 	0.42642 0.59735 0.50740 0.02200
H 	H 	0.53689 0.45360 0.40003 0.07200
H 	H 	0.51667 0.54009 0.53516 0.05600
O 	O 	0.44051 0.50727 0.36304 -0.28500
H 	H 	0.40273 0.45632 0.36279 0.14900
C 	C 	0.71105 0.09890 0.64531 -0.03100
C 	C 	0.74686 0.08564 0.68427 -0.03800
C 	C 	0.78272 0.02940 0.68379 -0.01700
C 	C 	0.78411 0.98687 0.64411 -0.12300
C 	C 	0.74256 0.99477 0.60679 0.23000
C 	C 	0.70614 0.05079 0.60751 -0.13900
H 	H 	0.81382 0.02313 0.71293 0.01200
H 	H 	0.67693 0.05933 0.57780 0.07000
H 	H 	0.74921 0.12097 0.71421 0.03200
O 	O 	0.74088 0.95113 0.56853 -0.28800
H 	H 	0.70063 0.90292 0.57462 0.15800
C 	C 	0.36310 0.19923 0.58536 -0.02600
C 	C 	0.33854 0.12416 0.60706 -0.04800
C 	C 	0.26610 0.08425 0.61069 0.03400
C 	C 	0.21684 0.11937 0.59383 -0.15300
C 	C 	0.24140 0.19280 0.56984 0.20000
C 	C 	0.31435 0.23208 0.56526 -0.10400
H 	H 	0.24804 0.02795 0.62925 0.01100
H 	H 	0.33255 0.28895 0.54735 0.07200
H 	H 	0.37555 0.09661 0.62123 0.04900
O 	O 	0.19422 0.22691 0.55155 -0.30500
H 	H 	0.18432 0.26010 0.57604 0.14600
C 	C 	0.81796 0.59232 0.60426 -0.02200
C 	C 	0.88762 0.60354 0.61804 -0.04600
C 	C 	0.93539 0.67902 0.61851 0.03600
C 	C 	0.91434 0.74460 0.60563 -0.14500
C 	C 	0.84734 0.73282 0.58674 0.20100
C 	C 	0.79931 0.65686 0.58624 -0.09600
H 	H 	0.98729 0.68693 0.63206 0.02200
H 	H 	0.74713 0.64885 0.57315 0.08000
H 	H 	0.90435 0.55405 0.62967 0.04600
O 	O 	0.82817 0.79536 0.56951 -0.28500
H 	H 	0.79779 0.80716 0.59417 0.16300
C 	C 	0.05736 0.61741 0.96859 -0.03800
C 	C 	0.00213 0.65073 0.96684 -0.02700
C 	C 	0.93505 0.60549 0.95483 0.01400
C 	C 	0.92192 0.52556 0.94589 -0.14600
C 	C 	0.97787 0.49236 0.94711 0.17700
C 	C 	0.04558 0.53892 0.95722 -0.08200
H 	H 	0.89285 0.63218 0.95333 0.03000
H 	H 	0.08844 0.51308 0.95808 0.05900
H 	H 	0.01106 0.71161 0.97485 0.04300
O 	O 	0.96645 0.41446 0.93905 -0.28200
H 	H 	0.95486 0.38707 0.96979 0.13900
C 	C 	0.41791 0.98396 0.01126 0.04400
C 	C 	0.43139 0.97489 0.96435 -0.05500
C 	C 	0.47607 0.03701 0.93753 0.02400
C 	C 	0.50648 0.10960 0.95693 -0.19000
C 	C 	0.48977 0.12042 0.00331 0.24600
C 	C 	0.44583 0.05745 0.03035 -0.16000
H 	H 	0.48691 0.02875 0.90155 0.01500
H 	H 	0.43644 0.06478 0.06667 0.07500
H 	H 	0.40969 0.91846 0.94920 0.04000
O 	O 	0.51949 0.19100 0.02294 -0.31100
H 	H 	0.48481 0.22054 0.01916 0.16000
C 	C 	0.49865 0.48343 0.95032 -0.03200
C 	C 	0.44251 0.44284 0.98049 -0.06700
C 	C 	0.40521 0.48377 0.00548 0.05800
C 	C 	0.42355 0.56555 0.00018 -0.15000
C 	C 	0.47542 0.60547 0.96662 0.17100
C 	C 	0.51287 0.56418 0.94184 -0.09500
H 	H 	0.36368 0.45225 0.03012 0.03000
H 	H 	0.55581 0.59561 0.91808 0.07100
H 	H 	0.43087 0.38016 0.98679 0.04400
O 	O 	0.49096 0.68500 0.95906 -0.29300
H 	H 	0.45908 0.69177 0.93462 0.12400
C 	C 	0.83686 0.19301 0.81892 -0.04500
C 	C 	0.90303 0.23742 0.79976 -0.03000
C 	C 	0.95416 0.20100 0.78813 -0.00500
C 	C 	0.93962 0.11951 0.79509 -0.12700
C 	C 	0.87246 0.07473 0.81359 0.14700
C 	C 	0.82211 0.11169 0.82582 -0.08600
H 	H 	0.00515 0.23630 0.77387 0.05300
H 	H 	0.77141 0.07671 0.84071 0.06200
H 	H 	0.91496 0.30016 0.79381 0.04300
O 	O 	0.85603 0.99499 0.82015 -0.24500
H 	H 	0.82997 0.97295 0.79257 0.15800
C 	C 	0.40446 0.18747 0.81570 -0.02500
C 	C 	0.36938 0.10978 0.83059 -0.04900
C 	C 	0.29839 0.07557 0.82092 0.03300
C 	C 	0.26200 0.11828 0.79574 -0.15900
C 	C 	0.29641 0.19722 0.78226 0.20700
C 	C 	0.36720 0.23170 0.79270 -0.10400
H 	H 	0.27246 0.01490 0.83150 0.00500
H 	H 	0.39350 0.29221 0.78194 0.07300
H 	H 	0.39722 0.07575 0.84943 0.04200
O 	O 	0.26050 0.24111 0.75971 -0.29300
H 	H 	0.27048 0.23671 0.72638 0.15700
C 	C 	0.77455 0.61115 0.84072 -0.02800
C 	C 	0.80285 0.67063 0.87144 -0.04400
C 	C 	0.84699 0.74360 0.85488 0.04000
C 	C 	0.86175 0.75845 0.80736 -0.15400
C 	C 	0.82927 0.70072 0.77628 0.19700
C 	C 	0.78588 0.62732 0.79305 -0.09500
H 	H 	0.87113 0.78788 0.87906 0.03000
H 	H 	0.76325 0.58209 0.76905 0.06300
H 	H 	0.79361 0.65903 0.90829 0.04300
O 	O 	0.84099 0.71529 0.72961 -0.29600
H 	H 	0.88140 0.69576 0.72148 0.14800
