data_crystal

_cell_length_a 18.07613
_cell_length_b 18.65481
_cell_length_c 17.76847
_cell_angle_alpha 95.41529
_cell_angle_beta  95.41664
_cell_angle_gamma 126.43520

_symmetry_space_group_name_	'P 1'
_symmetry_space_group_name_H-M	'P 1'

loop_
_symmetry_equiv_pos_as_xyz
  x,y,z

loop_
_atom_site_label
_atom_site_type_symbol
_atom_site_fract_x
_atom_site_fract_y
_atom_site_fract_z
_atom_site_charge
N 	N 	0.04281 0.07982 0.95386 -0.01800
C 	C 	0.07447 0.03012 0.94181 0.10700
N 	N 	0.01352 0.93817 0.92991 0.04900
N 	N 	0.88893 0.94559 0.93528 -0.00200
C 	C 	0.89654 0.97665 0.44367 0.41200
N 	N 	0.85793 0.88868 0.44825 -0.09500
C 	C 	0.91458 0.86379 0.46203 0.13800
N 	N 	0.00851 0.92615 0.46943 0.02300
C 	C 	0.04617 0.01243 0.46174 0.17800
N 	N 	0.99039 0.03772 0.44925 -0.20800
Cu	Cu	0.65309 0.24100 0.04466 0.94100
Cu	Cu	0.77798 0.28434 0.91201 0.88200
Cu	Cu	0.67293 0.34707 0.91836 0.89600
Cu	Cu	0.63711 0.40257 0.06699 0.94500
C 	C 	0.66065 0.32176 0.19489 0.22700
O 	O 	0.51186 0.17771 0.02771 -0.27900
C 	C 	0.69076 0.28331 0.76780 0.20500
O 	O 	0.71291 0.37504 0.03050 -0.63100
O 	O 	0.65371 0.23380 0.93323 -0.64100
O 	O 	0.72102 0.18818 0.06284 -0.28700
O 	O 	0.83699 0.29864 0.01145 -0.38100
O 	O 	0.61375 0.34636 0.15994 -0.25500
O 	O 	0.68096 0.45414 0.90364 -0.31900
C 	C 	0.71255 0.52506 0.95711 0.29400
C 	C 	0.47196 0.21053 0.99446 0.27700
O 	O 	0.52352 0.29275 0.97869 -0.32900
O 	O 	0.70672 0.51800 0.02967 -0.28800
O 	O 	0.67692 0.27022 0.15570 -0.25600
C 	C 	0.80260 0.22641 0.04208 0.33200
O 	O 	0.65652 0.31935 0.80518 -0.29500
O 	O 	0.73054 0.25244 0.80434 -0.33400
H 	H 	0.78117 0.42191 0.04852 0.19700
H 	H 	0.59960 0.17848 0.89777 0.20800
Cu	Cu	0.74375 0.32260 0.41935 0.94000
Cu	Cu	0.68936 0.19550 0.54850 0.88500
Cu	Cu	0.62130 0.29356 0.53892 0.90000
Cu	Cu	0.59621 0.36295 0.40066 0.92500
C 	C 	0.67449 0.33400 0.27173 0.23600
O 	O 	0.82313 0.46190 0.44202 -0.26100
C 	C 	0.68042 0.27242 0.69107 0.20800
O 	O 	0.60494 0.27230 0.42724 -0.63300
O 	O 	0.74225 0.31692 0.52979 -0.63500
O 	O 	0.78469 0.24434 0.39822 -0.27600
O 	O 	0.66375 0.13576 0.44720 -0.38400
O 	O 	0.65758 0.38582 0.30927 -0.28200
O 	O 	0.49794 0.26027 0.54305 -0.30500
C 	C 	0.44440 0.25941 0.48654 0.29800
C 	C 	0.79408 0.50441 0.47665 0.27800
O 	O 	0.71047 0.45661 0.49404 -0.35600
O 	O 	0.48040 0.31890 0.44059 -0.30300
O 	O 	0.71977 0.30850 0.30873 -0.25400
C 	C 	0.73442 0.16166 0.41297 0.28800
O 	O 	0.63859 0.30030 0.65188 -0.28900
O 	O 	0.71616 0.23704 0.65621 -0.33500
H 	H 	0.55275 0.20942 0.40121 0.19700
H 	H 	0.79670 0.36851 0.56796 0.21200
C 	C 	0.89107 0.72355 0.40694 0.02700
C 	C 	0.87489 0.76819 0.46325 0.08700
C 	C 	0.84276 0.73017 0.52905 -0.09600
C 	C 	0.83069 0.64971 0.53815 0.07100
C 	C 	0.84460 0.60374 0.48071 0.01500
C 	C 	0.88466 0.64647 0.41836 -0.07300
C 	C 	0.92700 0.61513 0.36751 0.78000
H 	H 	0.91514 0.75285 0.35650 0.12700
H 	H 	0.80510 0.61960 0.58792 0.11900
C 	C 	0.81992 0.77442 0.58891 0.79400
F 	F 	0.98512 0.68052 0.32634 -0.39700
F 	F 	0.85675 0.53732 0.31553 -0.43000
F 	F 	0.98058 0.59857 0.41198 -0.40200
F 	F 	0.75496 0.78357 0.55405 -0.36000
F 	F 	0.90045 0.85915 0.62379 -0.33600
F 	F 	0.78237 0.72338 0.64539 -0.35900
C 	C 	0.79059 0.99745 0.36705 0.37500
C 	C 	0.83857 0.00829 0.43926 -0.25400
C 	C 	0.84823 0.06658 0.50306 0.02100
C 	C 	0.82204 0.12265 0.49110 -0.01900
C 	C 	0.77614 0.11374 0.41871 0.06800
C 	C 	0.75829 0.04926 0.35614 -0.23200
C 	C 	0.70155 0.03290 0.27910 0.67100
H 	H 	0.78151 0.95106 0.31886 0.06200
H 	H 	0.83492 0.17178 0.53882 0.07300
C 	C 	0.89093 0.07271 0.58344 0.67200
F 	F 	0.70142 0.97605 0.22295 -0.30900
F 	F 	0.73852 0.11421 0.25460 -0.38600
F 	F 	0.61001 0.99346 0.28674 -0.29400
F 	F 	0.85970 0.98761 0.59586 -0.26400
F 	F 	0.86635 0.10810 0.63904 -0.38800
C 	C 	0.20223 0.14145 0.53456 0.04400
C 	C 	0.14720 0.07825 0.46626 0.07100
C 	C 	0.18932 0.07744 0.40340 -0.08400
C 	C 	0.28716 0.13655 0.41224 0.06400
C 	C 	0.34250 0.19925 0.48077 0.00900
C 	C 	0.29968 0.20475 0.54159 -0.05200
C 	C 	0.35746 0.27546 0.61491 0.78100
H 	H 	0.16888 0.14074 0.58240 0.16300
H 	H 	0.32086 0.13359 0.36600 0.09900
C 	C 	0.13035 0.01119 0.32802 0.70500
F 	F 	0.30174 0.28365 0.65758 -0.35400
F 	F 	0.42319 0.35969 0.59774 -0.38400
F 	F 	0.40254 0.25049 0.65965 -0.39600
F 	F 	0.05803 0.01501 0.30334 -0.40000
F 	F 	0.09339 0.92409 0.33845 -0.29500
F 	F 	0.18266 0.03078 0.27045 -0.38700
C 	C 	0.81762 0.64679 0.88745 0.07300
C 	C 	0.74984 0.61296 0.93431 0.01600
C 	C 	0.72456 0.66716 0.96407 -0.06200
C 	C 	0.78182 0.75987 0.96114 0.04300
C 	C 	0.85454 0.79586 0.91890 0.09500
C 	C 	0.86547 0.73621 0.87478 -0.09200
H 	H 	0.83420 0.60397 0.86185 0.08000
H 	H 	0.77062 0.80430 0.99269 0.13200
C 	C 	0.63823 0.62763 0.00026 0.79200
F 	F 	0.89654 0.69331 0.75801 -0.40200
F 	F 	0.66073 0.62986 0.07744 -0.39900
F 	F 	0.56713 0.53909 0.96402 -0.39400
F 	F 	0.60465 0.67736 0.99391 -0.36600
C 	C 	0.91605 0.09057 0.97137 0.13700
C 	C 	0.83962 0.07665 0.92361 -0.13600
C 	C 	0.79565 0.11192 0.95307 0.07500
C 	C 	0.83452 0.17130 0.02429 -0.04000
C 	C 	0.91420 0.18963 0.07043 0.01000
H 	H 	0.73397 0.09752 0.91853 0.05100
C 	C 	0.80412 0.02396 0.84150 0.72000
F 	F 	0.89280 0.23911 0.18924 -0.37500
F 	F 	0.74327 0.93206 0.84173 -0.29800
F 	F 	0.87761 0.04209 0.80691 -0.38300
F 	F 	0.75699 0.04748 0.79730 -0.41300
C 	C 	0.22492 0.10219 0.02960 0.03600
C 	C 	0.17587 0.07571 0.95420 0.07700
C 	C 	0.22368 0.09216 0.89170 -0.08000
C 	C 	0.31922 0.12973 0.90621 0.06500
C 	C 	0.36912 0.15859 0.98186 0.01100
C 	C 	0.32200 0.14689 0.04462 -0.05800
C 	C 	0.37600 0.19037 0.12674 0.77500
H 	H 	0.18737 0.08972 0.07678 0.12300
H 	H 	0.35570 0.13887 0.85872 0.09800
C 	C 	0.17280 0.06801 0.80961 0.70700
F 	F 	0.31709 0.16957 0.17918 -0.39700
F 	F 	0.43479 0.28353 0.13314 -0.42900
F 	F 	0.42780 0.16038 0.14644 -0.42800
F 	F 	0.12155 0.10096 0.80492 -0.34300
F 	F 	0.11306 0.97486 0.78646 -0.24300
F 	F 	0.23460 0.10470 0.75913 -0.38100
F 	F 	0.01815 0.80527 0.84891 -0.30500
H 	H 	0.01407 0.16078 0.07881 0.20800
F 	F 	0.02388 0.25176 0.18962 -0.31400
C 	C 	0.92724 0.76649 0.81458 0.72700
F 	F 	0.92535 0.82836 0.77904 -0.33700
C 	C 	0.94983 0.03747 0.95048 0.00200
C 	C 	0.92027 0.89557 0.92466 0.13000
C 	C 	0.95409 0.14862 0.04343 -0.12200
C 	C 	0.95985 0.25672 0.14615 0.63000
F 	F 	0.00598 0.34380 0.13159 -0.30000
F 	F 	0.98741 0.12825 0.59211 -0.41000
