data_crystal

_cell_length_a 18.04507
_cell_length_b 19.45735
_cell_length_c 26.74472
_cell_angle_alpha 95.43926
_cell_angle_beta  95.44007
_cell_angle_gamma 126.42266

_symmetry_space_group_name_	'P 1'
_symmetry_space_group_name_H-M	'P 1'

loop_
_symmetry_equiv_pos_as_xyz
  x,y,z

loop_
_atom_site_label
_atom_site_type_symbol
_atom_site_fract_x
_atom_site_fract_y
_atom_site_fract_z
_atom_site_charge
C 	C 	0.92996 0.01599 0.98641 0.09900
N 	N 	0.02191 0.05673 0.98412 -0.11500
C 	C 	0.05366 0.00957 0.97453 0.13000
N 	N 	0.99366 0.92162 0.96739 -0.08700
C 	C 	0.90220 0.88050 0.97018 0.19800
N 	N 	0.87010 0.92757 0.97934 -0.05500
C 	C 	0.94472 0.02927 0.47368 0.09400
N 	N 	0.03770 0.07498 0.47238 -0.11500
C 	C 	0.07613 0.03293 0.46642 0.13100
N 	N 	0.02134 0.94507 0.46103 -0.04400
C 	C 	0.92827 0.89885 0.46150 0.18800
N 	N 	0.89033 0.94120 0.46845 -0.06600
Cu	Cu	0.63197 0.22680 0.00931 0.93100
Cu	Cu	0.72306 0.23322 0.90754 0.88400
Cu	Cu	0.67617 0.35289 0.93580 0.90600
Cu	Cu	0.60601 0.37228 0.02924 0.90600
C 	C 	0.63885 0.29476 0.11192 0.31100
O 	O 	0.49141 0.16056 0.00210 -0.36200
C 	C 	0.67233 0.29295 0.82786 0.31000
O 	O 	0.69416 0.35864 0.00830 -0.63700
O 	O 	0.62525 0.22882 0.93494 -0.63700
O 	O 	0.69943 0.17452 0.01664 -0.36300
O 	O 	0.80369 0.26344 0.96954 -0.39500
O 	O 	0.59160 0.32105 0.09227 -0.36700
O 	O 	0.73251 0.47559 0.94224 -0.33300
C 	C 	0.71041 0.51735 0.97143 0.33700
C 	C 	0.44759 0.18720 0.97908 0.33100
O 	O 	0.49644 0.26610 0.96924 -0.35300
O 	O 	0.64564 0.47734 0.99985 -0.37000
O 	O 	0.65561 0.24836 0.08268 -0.35000
C 	C 	0.77732 0.20584 0.99912 0.33500
O 	O 	0.67763 0.35094 0.86166 -0.34500
O 	O 	0.66866 0.22787 0.84152 -0.40500
H 	H 	0.75960 0.40300 0.02671 0.18600
H 	H 	0.56210 0.18637 0.91341 0.18700
Cu	Cu	0.65308 0.24466 0.51079 0.93300
Cu	Cu	0.75777 0.26855 0.41417 0.87600
Cu	Cu	0.68923 0.36533 0.43597 0.89900
Cu	Cu	0.64091 0.39864 0.53395 0.91000
C 	C 	0.66168 0.31051 0.61392 0.31300
O 	O 	0.51417 0.18723 0.50416 -0.35500
C 	C 	0.68195 0.30153 0.32883 0.31000
O 	O 	0.72077 0.37715 0.50892 -0.64100
O 	O 	0.64706 0.24507 0.43694 -0.64100
O 	O 	0.71203 0.18472 0.51596 -0.36000
O 	O 	0.82742 0.28162 0.47670 -0.41200
O 	O 	0.61891 0.34112 0.59477 -0.36200
O 	O 	0.74012 0.48605 0.43702 -0.37200
C 	C 	0.73336 0.53646 0.47002 0.34300
C 	C 	0.47408 0.21779 0.48154 0.32800
O 	O 	0.52624 0.29799 0.47336 -0.35500
O 	O 	0.70008 0.51275 0.51233 -0.33800
O 	O 	0.67984 0.26622 0.58401 -0.34800
C 	C 	0.79188 0.21626 0.50089 0.35700
O 	O 	0.67301 0.35166 0.36077 -0.35900
O 	O 	0.70492 0.25349 0.34523 -0.40200
H 	H 	0.78834 0.42034 0.52393 0.18200
H 	H 	0.58627 0.19913 0.41409 0.19600
C 	C 	0.66626 0.30583 0.66854 -0.09200
C 	C 	0.72270 0.38263 0.70541 -0.05100
C 	C 	0.72287 0.37941 0.75756 0.17800
C 	C 	0.66583 0.29859 0.77312 -0.09200
C 	C 	0.60811 0.22195 0.73601 -0.05300
C 	C 	0.60865 0.22525 0.68399 0.17900
H 	H 	0.76668 0.44493 0.69367 0.07500
O 	O 	0.78202 0.45478 0.79319 -0.26400
H 	H 	0.56307 0.15959 0.74753 0.07400
O 	O 	0.54978 0.14999 0.64820 -0.27100
H 	H 	0.58608 0.12760 0.64289 0.16300
H 	H 	0.74612 0.47767 0.79817 0.20200
C 	C 	0.65023 0.29682 0.16740 -0.09300
C 	C 	0.61033 0.21899 0.18575 -0.04900
C 	C 	0.61754 0.21962 0.23839 0.17500
C 	C 	0.66547 0.29888 0.27332 -0.09100
C 	C 	0.70378 0.37655 0.25488 -0.05200
C 	C 	0.69588 0.37571 0.20215 0.17700
H 	H 	0.57254 0.15769 0.15915 0.07800
O 	O 	0.57415 0.14240 0.25556 -0.27100
H 	H 	0.74139 0.43788 0.28143 0.08300
O 	O 	0.73628 0.45249 0.18475 -0.27600
H 	H 	0.68744 0.46138 0.18103 0.16700
H 	H 	0.61993 0.12965 0.25762 0.16000
C 	C 	0.79682 0.76216 0.48574 -0.10900
C 	C 	0.87007 0.80350 0.45816 -0.03900
C 	C 	0.89107 0.75423 0.42992 0.32300
C 	C 	0.84437 0.66651 0.43257 -0.06600
C 	C 	0.77478 0.62632 0.46256 -0.12400
C 	C 	0.74866 0.67393 0.48750 0.36600
F 	F 	0.67666 0.63482 0.51339 -0.41700
H 	H 	0.77849 0.79880 0.50679 0.13700
H 	H 	0.86374 0.63032 0.41208 0.10600
F 	F 	0.95678 0.79130 0.39995 -0.40400
C 	C 	0.96037 0.16124 0.51120 -0.16400
C 	C 	0.90383 0.07560 0.48313 -0.01400
C 	C 	0.80842 0.03473 0.46407 0.22800
C 	C 	0.77086 0.07933 0.47278 -0.04200
C 	C 	0.82819 0.16565 0.49932 -0.17100
C 	C 	0.92296 0.20626 0.51884 0.38000
F 	F 	0.97902 0.28960 0.54492 -0.43700
H 	H 	0.03340 0.19310 0.52695 0.13900
H 	H 	0.69791 0.04790 0.45701 0.06900
F 	F 	0.75298 0.95322 0.43544 -0.35500
C 	C 	0.22506 0.13819 0.43689 -0.11700
C 	C 	0.17823 0.08273 0.47114 -0.04600
C 	C 	0.22848 0.07148 0.50841 0.31300
C 	C 	0.32449 0.11471 0.51116 -0.07300
C 	C 	0.37169 0.16977 0.47670 -0.13000
C 	C 	0.32136 0.18127 0.43939 0.35700
F 	F 	0.36515 0.23265 0.40501 -0.42800
H 	H 	0.18659 0.14668 0.40776 0.11700
H 	H 	0.36256 0.10641 0.54068 0.10700
F 	F 	0.18433 0.01933 0.54241 -0.43100
C 	C 	0.76212 0.66397 0.01161 -0.06500
C 	C 	0.75308 0.60929 0.96916 -0.12400
C 	C 	0.78432 0.64282 0.92487 0.36500
C 	C 	0.82832 0.73086 0.92429 -0.11000
C 	C 	0.84035 0.78593 0.96743 -0.04900
C 	C 	0.80509 0.75167 0.01067 0.33300
F 	F 	0.81658 0.80433 0.05273 -0.38500
H 	H 	0.73782 0.63898 0.04584 0.10800
H 	H 	0.85484 0.75674 0.89063 0.12100
F 	F 	0.77149 0.59025 0.88235 -0.42900
C 	C 	0.77553 0.08085 0.01748 -0.04500
C 	C 	0.82287 0.16273 0.00307 -0.15800
C 	C 	0.90991 0.19944 0.98794 0.36600
C 	C 	0.94461 0.15172 0.98293 -0.16100
C 	C 	0.89479 0.06784 0.99464 -0.01500
C 	C 	0.81151 0.03396 0.01377 0.23400
F 	F 	0.76588 0.95622 0.02928 -0.33900
H 	H 	0.70990 0.05265 0.03070 0.08700
H 	H 	0.00985 0.17975 0.96929 0.13400
F 	F 	0.96085 0.28127 0.97784 -0.44000
C 	C 	0.29896 0.07755 0.00754 -0.04800
C 	C 	0.34489 0.13626 0.97455 -0.14800
C 	C 	0.29361 0.15130 0.94048 0.36200
C 	C 	0.19873 0.11078 0.94109 -0.13200
C 	C 	0.15378 0.05366 0.97482 -0.03300
C 	C 	0.20404 0.03653 0.00769 0.24700
F 	F 	0.16135 0.98166 0.04070 -0.34400
H 	H 	0.33741 0.06546 0.03411 0.09100
H 	H 	0.15990 0.12306 0.91495 0.11300
F 	F 	0.33538 0.20450 0.90657 -0.43400
