data_crystal

_cell_length_a 25.89701
_cell_length_b 26.30674
_cell_length_c 23.21065
_cell_angle_alpha 95.51569
_cell_angle_beta  95.51543
_cell_angle_gamma 125.78512

_symmetry_space_group_name_	'P 1'
_symmetry_space_group_name_H-M	'P 1'

loop_
_symmetry_equiv_pos_as_xyz
  x,y,z

loop_
_atom_site_label
_atom_site_type_symbol
_atom_site_fract_x
_atom_site_fract_y
_atom_site_fract_z
_atom_site_charge
C 	C 	0.06196 0.03478 0.02188 0.15400
N 	N 	0.03245 0.06357 0.02642 -0.12500
C 	C 	0.09470 0.03028 0.40749 -0.04700
C 	C 	0.12975 0.05357 0.36215 -0.02800
C 	C 	0.19723 0.08820 0.37348 0.09800
Br	Br	0.24384 0.12014 0.31054 -0.17200
C 	C 	0.12864 0.07040 0.01123 -0.04300
H 	H 	0.10026 0.06025 0.91789 0.08300
Br	Br	0.16789 0.08901 0.13755 -0.17000
C 	C 	0.23010 0.09977 0.43072 0.01800
C 	C 	0.19497 0.07581 0.47586 -0.06800
C 	C 	0.12761 0.04174 0.46472 0.13000
Br	Br	0.08179 0.01407 0.52885 -0.19000
C 	C 	0.24173 0.11604 0.04509 -0.07900
C 	C 	0.18025 0.09167 0.05735 0.13200
C 	C 	0.13986 0.07646 0.95350 -0.02000
C 	C 	0.20167 0.10178 0.94131 0.09300
Br	Br	0.21551 0.11008 0.86192 -0.17400
H 	H 	0.22023 0.08495 0.52000 0.09000
H 	H 	0.10457 0.04488 0.31811 0.08600
C 	C 	0.25272 0.12089 0.98720 0.03300
H 	H 	0.01299 0.14279 0.10484 0.09100
H 	H 	0.28119 0.13178 0.08066 0.09100
H 	H 	0.29624 0.05607 0.94454 0.09400
H 	H 	0.30425 0.05976 0.42048 0.09100
C 	C 	0.30142 0.13931 0.44429 0.02900
C 	C 	0.31838 0.14801 0.97548 0.02500
C 	C 	0.33265 0.11088 0.43546 -0.08000
C 	C 	0.33374 0.10716 0.95535 -0.07700
N 	N 	0.99797 0.02624 0.38600 -0.14600
C 	C 	0.97181 0.03105 0.03903 0.14300
C 	C 	0.90792 0.03425 0.38367 -0.04000
C 	C 	0.84467 0.00765 0.35376 0.11800
C 	C 	0.82070 0.04361 0.35771 -0.06400
H 	H 	0.77117 0.02211 0.33719 0.08800
C 	C 	0.93757 0.06028 0.03955 -0.02500
C 	C 	0.87642 0.02973 0.00316 0.11200
C 	C 	0.84394 0.05734 0.00552 -0.07300
H 	H 	0.79715 0.03387 0.97721 0.09500
C 	C 	0.86060 0.10735 0.38751 0.01700
C 	C 	0.94804 0.09855 0.41229 -0.03400
H 	H 	0.99708 0.12000 0.43433 0.08400
Br	Br	0.44117 0.10831 0.42732 -0.22500
C 	C 	0.87353 0.11733 0.04083 0.01800
C 	C 	0.96609 0.11915 0.07668 -0.04300
Br	Br	0.41474 0.07514 0.91536 -0.20100
C 	C 	0.92536 0.13543 0.41277 0.09600
C 	C 	0.83244 0.14202 0.39829 0.02900
H 	H 	0.83675 0.13699 0.49060 0.09400
H 	H 	0.80882 0.13407 0.11593 0.10100
C 	C 	0.39735 0.13202 0.94918 0.15100
Br	Br	0.83111 0.15291 0.27469 -0.18200
C 	C 	0.40034 0.14845 0.44395 0.14900
C 	C 	0.93465 0.14801 0.07712 0.10100
C 	C 	0.84381 0.15075 0.03396 0.02100
C 	C 	0.80980 0.15320 0.07639 -0.08100
C 	C 	0.82448 0.15462 0.45549 -0.08100
C 	C 	0.81771 0.16619 0.35300 0.08500
C 	C 	0.84627 0.17701 0.98339 0.08800
Br	Br	0.89694 0.17966 0.92683 -0.18500
C 	C 	0.77795 0.18126 0.06842 0.15400
C 	C 	0.80512 0.19338 0.46861 0.15600
Br	Br	0.74111 0.19277 0.13186 -0.18500
O 	O 	0.53975 0.19946 0.99280 -0.32800
C 	C 	0.44666 0.19834 0.96515 -0.09200
C 	C 	0.02406 0.99489 0.39512 0.18600
N 	N 	0.03028 0.97319 0.02847 -0.11400
Br	Br	0.04570 0.90197 0.12294 -0.16400
Br	Br	0.29727 0.24591 0.47857 -0.17400
N 	N 	0.94173 0.97053 0.04877 -0.12000
C 	C 	0.97052 0.94117 0.04273 0.15600
C 	C 	0.93362 0.99645 0.38455 0.17400
N 	N 	0.98527 0.93249 0.39932 -0.12900
C 	C 	0.92091 0.90208 0.39715 0.16400
N 	N 	0.89536 0.93459 0.39178 -0.12200
Cu	Cu	0.63680 0.24214 0.00657 0.92900
Cu	Cu	0.70858 0.25041 0.89539 0.88100
Cu	Cu	0.68404 0.34377 0.92847 0.90300
Cu	Cu	0.62719 0.35613 0.03162 0.90400
C 	C 	0.64136 0.29237 0.12385 0.28400
C 	C 	0.68190 0.30114 0.80442 0.28800
O 	O 	0.68648 0.34108 0.01098 -0.63900
O 	O 	0.64009 0.24996 0.92240 -0.63200
O 	O 	0.68206 0.20165 0.01546 -0.34400
O 	O 	0.76065 0.27287 0.96985 -0.41800
O 	O 	0.60961 0.31294 0.10097 -0.36000
O 	O 	0.73094 0.43560 0.94146 -0.36400
C 	C 	0.72110 0.46682 0.98144 0.31700
C 	C 	0.51556 0.22548 0.96686 0.30400
O 	O 	0.55525 0.28369 0.95749 -0.37700
O 	O 	0.66634 0.43717 0.00147 -0.36900
O 	O 	0.64689 0.25248 0.09098 -0.32800
C 	C 	0.74076 0.23037 0.00392 0.30400
O 	O 	0.69506 0.34788 0.84534 -0.36200
O 	O 	0.67682 0.25129 0.81841 -0.39400
H 	H 	0.73048 0.36988 0.03560 0.18100
H 	H 	0.59789 0.22271 0.89475 0.19200
Cu	Cu	0.73266 0.34116 0.42071 0.93200
Cu	Cu	0.74175 0.28885 0.54106 0.89500
Cu	Cu	0.63903 0.30324 0.50788 0.90200
Cu	Cu	0.60987 0.33953 0.39743 0.90300
C 	C 	0.67083 0.32232 0.30277 0.28700
O 	O 	0.76945 0.43473 0.42478 -0.33300
C 	C 	0.69290 0.31748 0.63267 0.28600
O 	O 	0.63310 0.28874 0.42400 -0.63600
O 	O 	0.73367 0.34854 0.50696 -0.63300
O 	O 	0.77926 0.30159 0.41420 -0.34600
O 	O 	0.71796 0.23112 0.47103 -0.40800
O 	O 	0.64776 0.35180 0.32467 -0.36300
O 	O 	0.54597 0.25421 0.50249 -0.35400
C 	C 	0.50731 0.25626 0.46292 0.31300
C 	C 	0.74250 0.45845 0.44989 0.30700
O 	O 	0.68592 0.41949 0.46439 -0.38100
O 	O 	0.53061 0.30260 0.43236 -0.37500
O 	O 	0.71404 0.32063 0.33598 -0.33600
C 	C 	0.75850 0.24902 0.43452 0.31000
O 	O 	0.64440 0.30577 0.59405 -0.35700
O 	O 	0.74455 0.32680 0.61627 -0.38500
H 	H 	0.60418 0.24324 0.40451 0.18400
H 	H 	0.76170 0.39252 0.53029 0.19500
C 	C 	0.68357 0.30946 0.74421 -0.02700
C 	C 	0.68678 0.31430 0.69330 -0.02400
C 	C 	0.65415 0.29982 0.18678 -0.01500
C 	C 	0.66295 0.30870 0.23987 -0.02000
C 	C 	0.76511 0.52382 0.44529 -0.09500
C 	C 	0.83081 0.57645 0.46402 0.15200
C 	C 	0.85122 0.63744 0.45637 -0.08000
C 	C 	0.80644 0.64667 0.43117 0.03100
C 	C 	0.74062 0.59441 0.41391 0.08300
C 	C 	0.72035 0.53342 0.42077 -0.00400
H 	H 	0.90186 0.67773 0.47022 0.09400
C 	C 	0.82922 0.71072 0.42088 0.01700
H 	H 	0.66975 0.49322 0.40631 0.05500
C 	C 	0.84215 0.72623 0.36532 -0.06500
C 	C 	0.86674 0.78758 0.35555 0.12700
C 	C 	0.87960 0.83442 0.40191 -0.02800
C 	C 	0.86344 0.81794 0.45656 -0.03300
C 	C 	0.83837 0.75637 0.46626 0.10000
H 	H 	0.83367 0.69075 0.32986 0.08900
H 	H 	0.87295 0.85372 0.49231 0.08700
Br	Br	0.67763 0.60547 0.38103 -0.17800
Br	Br	0.89268 0.56677 0.50282 -0.20100
Br	Br	0.88330 0.80696 0.27874 -0.18300
Br	Br	0.81780 0.73578 0.54190 -0.17200
C 	C 	0.78720 0.21507 0.42288 -0.09900
C 	C 	0.79421 0.20169 0.36530 -0.00300
H 	H 	0.78133 0.21873 0.33005 0.08000
Br	Br	0.98397 0.22458 0.44740 -0.17700
Br	Br	0.79262 0.92539 0.30269 -0.16700
Br	Br	0.81138 0.22230 0.55001 -0.27900
C 	C 	0.43727 0.21508 0.46213 -0.09300
C 	C 	0.33839 0.20557 0.46459 0.08500
C 	C 	0.40600 0.24305 0.47355 -0.00400
H 	H 	0.43426 0.29423 0.48805 0.07600
C 	C 	0.93352 0.87234 0.04348 -0.02200
C 	C 	0.96365 0.84742 0.06969 0.11900
C 	C 	0.93162 0.78145 0.06003 -0.06500
C 	C 	0.86845 0.73981 0.02705 0.01900
C 	C 	0.83598 0.76443 0.00606 0.10000
C 	C 	0.86894 0.83040 0.01334 -0.04800
H 	H 	0.95559 0.76247 0.07870 0.08500
C 	C 	0.83601 0.67047 0.01615 0.01600
H 	H 	0.84470 0.84903 0.99456 0.10500
C 	C 	0.81435 0.63696 0.06237 -0.07600
C 	C 	0.78044 0.57076 0.05223 0.13900
C 	C 	0.76521 0.53709 0.99460 -0.08100
C 	C 	0.78979 0.57103 0.94897 -0.01100
C 	C 	0.82619 0.63759 0.95979 0.10000
H 	H 	0.82411 0.66247 0.10632 0.09200
H 	H 	0.77984 0.54570 0.90490 0.08100
Br	Br	0.74638 0.70871 0.96812 -0.15800
Br	Br	0.75959 0.52792 0.11832 -0.23900
Br	Br	0.86280 0.68282 0.89740 -0.17200
C 	C 	0.77716 0.20407 0.01588 -0.11200
C 	C 	0.81214 0.20229 0.97405 0.00100
H 	H 	0.81264 0.22042 0.93395 0.04500
Br	Br	0.97676 0.23014 0.12614 -0.17600
Br	Br	0.83954 0.95404 0.94539 -0.16900
C 	C 	0.36675 0.21438 0.98786 0.09300
C 	C 	0.43048 0.23918 0.98306 -0.01000
H 	H 	0.46783 0.29027 0.99469 0.06100
Br	Br	0.34668 0.27199 0.01171 -0.19000
