data_crystal

_cell_length_a 15.74382
_cell_length_b 15.98193
_cell_length_c 26.64430
_cell_angle_alpha 95.42314
_cell_angle_beta  95.42492
_cell_angle_gamma 126.71369

_symmetry_space_group_name_	'P 1'
_symmetry_space_group_name_H-M	'P 1'

loop_
_symmetry_equiv_pos_as_xyz
  x,y,z

loop_
_atom_site_label
_atom_site_type_symbol
_atom_site_fract_x
_atom_site_fract_y
_atom_site_fract_z
_atom_site_charge
C 	C 	0.06393 0.11427 0.50114 -0.06000
H 	H 	0.07738 0.90866 0.50041 0.04700
C 	C 	0.04515 0.00723 0.94927 0.00000
H 	H 	0.03330 0.13409 0.94664 0.04700
H 	H 	0.03521 0.86771 0.95157 0.04500
C 	C 	0.04337 0.95104 0.50146 -0.06000
C 	C 	0.10861 0.05931 0.50024 0.01100
H 	H 	0.11386 0.19822 0.49961 0.04500
O 	O 	0.42852 0.20368 0.99895 -0.36900
C 	C 	0.36820 0.19399 0.95743 0.31100
O 	O 	0.40948 0.25860 0.92451 -0.39500
O 	O 	0.46145 0.13998 0.51159 -0.36000
C 	C 	0.42403 0.19029 0.49583 0.29500
O 	O 	0.49163 0.28863 0.49004 -0.40000
H 	H 	0.50656 0.08409 0.80100 0.06300
C 	C 	0.44161 0.14172 0.25888 -0.18900
H 	H 	0.36988 0.10281 0.22777 0.05900
H 	H 	0.42391 0.16840 0.29365 0.06600
H 	H 	0.45374 0.08220 0.26671 0.06500
C 	C 	0.31351 0.14749 0.49667 -0.10600
C 	C 	0.22113 0.11201 0.49807 0.03300
C 	C 	0.15902 0.07420 0.95177 0.04800
C 	C 	0.25471 0.12902 0.95438 -0.10800
H 	H 	0.49987 0.12584 0.66900 0.04700
C 	C 	0.48338 0.11018 0.76878 -0.19000
H 	H 	0.44441 0.14495 0.78262 0.05800
H 	H 	0.42359 0.03848 0.73873 0.06600
H 	H 	0.47981 0.17129 0.16248 0.03600
H 	H 	0.53173 0.16872 0.42000 0.17000
C 	C 	0.99120 0.90019 0.95105 -0.04400
C 	C 	0.99001 0.05043 0.94808 -0.04400
C 	C 	0.88043 0.98772 0.95067 0.00700
C 	C 	0.88189 0.83500 0.95347 0.00900
C 	C 	0.82499 0.87853 0.95364 -0.05200
H 	H 	0.74037 0.82911 0.95629 0.04700
C 	C 	0.95341 0.05868 0.50364 0.01200
C 	C 	0.88970 0.95004 0.50504 -0.05700
C 	C 	0.93454 0.89656 0.50341 0.01200
H 	H 	0.80466 0.90671 0.50635 0.04800
Cu	Cu	0.75327 0.33295 0.94493 0.92700
Cu	Cu	0.73587 0.24341 0.05281 0.85700
Cu	Cu	0.58263 0.27813 0.01006 0.88100
Cu	Cu	0.55197 0.32474 0.90556 0.89800
C 	C 	0.67682 0.30066 0.83678 0.28900
O 	O 	0.81321 0.49082 0.94628 -0.34800
C 	C 	0.65339 0.31112 0.12303 0.28700
O 	O 	0.58496 0.24581 0.93870 -0.62600
O 	O 	0.73927 0.34569 0.01763 -0.66000
O 	O 	0.81737 0.25345 0.94883 -0.35900
O 	O 	0.69674 0.13976 0.99520 -0.42500
O 	O 	0.63451 0.34847 0.84914 -0.38500
C 	C 	0.75962 0.52606 0.96097 0.29200
O 	O 	0.66035 0.45800 0.96706 -0.39000
O 	O 	0.74040 0.29855 0.87187 -0.36100
C 	C 	0.76559 0.16155 0.96493 0.29400
O 	O 	0.57837 0.28827 0.08460 -0.39200
O 	O 	0.73604 0.31359 0.11479 -0.42900
H 	H 	0.53875 0.16893 0.92385 0.16100
H 	H 	0.78607 0.41926 0.03763 0.16400
Cu	Cu	0.62026 0.20077 0.51265 0.92400
Cu	Cu	0.70898 0.21595 0.40448 0.86800
Cu	Cu	0.67649 0.36916 0.44778 0.89700
Cu	Cu	0.62692 0.39706 0.55151 0.89700
C 	C 	0.64919 0.27253 0.62091 0.28900
C 	C 	0.64314 0.30036 0.33475 0.28700
O 	O 	0.70881 0.36637 0.51897 -0.63700
O 	O 	0.60646 0.21442 0.43991 -0.64200
O 	O 	0.69484 0.13304 0.50808 -0.37000
O 	O 	0.81230 0.25060 0.46205 -0.44300
O 	O 	0.60277 0.31622 0.60832 -0.38500
O 	O 	0.75342 0.52112 0.45941 -0.38700
C 	C 	0.75524 0.57945 0.49872 0.31300
O 	O 	0.69137 0.53727 0.53228 -0.39800
O 	O 	0.65610 0.21399 0.58560 -0.36200
C 	C 	0.78744 0.18144 0.49188 0.30000
O 	O 	0.66723 0.37437 0.37338 -0.38200
O 	O 	0.63910 0.21798 0.34268 -0.42500
H 	H 	0.78671 0.41228 0.53415 0.16200
C 	C 	0.76956 0.34815 0.76211 -0.03300
C 	C 	0.67749 0.27656 0.78204 -0.08300
C 	C 	0.58152 0.19176 0.74823 0.07100
C 	C 	0.57552 0.18693 0.69495 -0.03200
C 	C 	0.66485 0.26406 0.67512 -0.08400
C 	C 	0.76422 0.34186 0.70873 0.07200
C 	C 	0.86264 0.42251 0.68808 -0.19200
H 	H 	0.84388 0.41200 0.78812 0.04900
H 	H 	0.93714 0.46612 0.71791 0.06800
H 	H 	0.85359 0.48090 0.67460 0.06000
H 	H 	0.87300 0.38245 0.65556 0.07100
C 	C 	0.54586 0.23760 0.19144 -0.04200
C 	C 	0.63820 0.32264 0.17649 -0.09400
C 	C 	0.72193 0.41118 0.21419 0.07300
C 	C 	0.71896 0.40635 0.26648 -0.04200
C 	C 	0.63181 0.31601 0.28141 -0.09100
C 	C 	0.54116 0.23454 0.24374 0.07100
H 	H 	0.78694 0.47069 0.29543 0.04100
C 	C 	0.81701 0.50859 0.19907 -0.18900
H 	H 	0.79061 0.52697 0.16446 0.06300
H 	H 	0.87630 0.49517 0.19098 0.06400
H 	H 	0.85763 0.57925 0.23029 0.06100
C 	C 	0.81590 0.69071 0.50043 -0.11000
C 	C 	0.86835 0.78459 0.50194 0.04100
C 	C 	0.90214 0.10975 0.50138 0.03400
C 	C 	0.85116 0.14402 0.49822 -0.11300
C 	C 	0.79946 0.63427 0.95871 -0.09700
C 	C 	0.83111 0.72423 0.95650 0.03600
C 	C 	0.82930 0.03959 0.95378 0.03600
C 	C 	0.79854 0.09379 0.95754 -0.10300
