data_crystal

_cell_length_a 26.57364
_cell_length_b 27.06888
_cell_length_c 34.97611
_cell_angle_alpha 95.50405
_cell_angle_beta  95.50003
_cell_angle_gamma 125.73590

_symmetry_space_group_name_	'P 1'
_symmetry_space_group_name_H-M	'P 1'

loop_
_symmetry_equiv_pos_as_xyz
  x,y,z

loop_
_atom_site_label
_atom_site_type_symbol
_atom_site_fract_x
_atom_site_fract_y
_atom_site_fract_z
_atom_site_charge
C 	C 	0.01233 0.95350 0.00156 -0.09200
C 	C 	0.05385 0.01595 0.99874 0.04800
C 	C 	0.03126 0.05136 0.99547 -0.09600
H 	H 	0.02978 0.92610 0.00366 0.05200
H 	H 	0.06357 0.10005 0.99403 0.05200
C 	C 	0.99262 0.93805 0.43806 -0.09900
C 	C 	0.02921 0.00156 0.43703 0.06100
C 	C 	0.00069 0.03190 0.43627 -0.10100
H 	H 	0.01402 0.91409 0.43703 0.05400
H 	H 	0.02811 0.08028 0.43363 0.05500
C 	C 	0.20854 0.12351 0.45377 0.02400
C 	C 	0.14141 0.08997 0.45710 -0.04200
C 	C 	0.09642 0.03496 0.43389 -0.06400
H 	H 	0.21042 0.04511 0.45701 0.03900
H 	H 	0.12836 0.11187 0.47740 0.03800
H 	H 	0.10948 0.01308 0.41358 0.04400
C 	C 	0.15178 0.07441 0.97276 -0.05200
C 	C 	0.12149 0.04443 0.00072 -0.05000
H 	H 	0.12867 0.08374 0.95037 0.04000
H 	H 	0.14518 0.03571 0.02317 0.04300
C 	C 	0.96704 0.02402 0.99437 0.05900
C 	C 	0.92526 0.96081 0.99613 -0.10200
C 	C 	0.94804 0.92587 0.00059 0.06200
H 	H 	0.87518 0.93881 0.99377 0.05300
C 	C 	0.93622 0.99914 0.43761 0.06400
C 	C 	0.90011 0.93586 0.43899 -0.10200
C 	C 	0.92818 0.90528 0.43974 0.06200
H 	H 	0.85013 0.91039 0.43950 0.05300
Cu	Cu	0.63067 0.23828 0.99932 0.92600
Cu	Cu	0.69120 0.24102 0.92120 0.86900
Cu	Cu	0.68239 0.34172 0.95152 0.89600
Cu	Cu	0.63627 0.35647 0.02379 0.89400
C 	C 	0.64215 0.28325 0.07986 0.28600
O 	O 	0.53901 0.20580 0.99287 -0.37100
C 	C 	0.66978 0.30203 0.86699 0.28700
O 	O 	0.68706 0.33543 0.00557 -0.63800
O 	O 	0.63274 0.24944 0.94423 -0.64200
O 	O 	0.66420 0.18891 0.99988 -0.38100
O 	O 	0.74232 0.25178 0.96767 -0.44600
O 	O 	0.61694 0.31056 0.06814 -0.38500
O 	O 	0.73449 0.43139 0.96266 -0.38900
C 	C 	0.72813 0.46481 0.98903 0.30500
C 	C 	0.51960 0.23534 0.97689 0.30300
O 	O 	0.56060 0.29353 0.97437 -0.40100
O 	O 	0.67980 0.43876 0.00750 -0.39800
O 	O 	0.64231 0.24346 0.05488 -0.36000
C 	C 	0.71879 0.20973 0.98991 0.30400
O 	O 	0.69192 0.34823 0.89656 -0.39000
O 	O 	0.66106 0.25026 0.87267 -0.42200
H 	H 	0.73055 0.35956 0.02085 0.16200
H 	H 	0.59092 0.22705 0.92702 0.17100
Cu	Cu	0.73721 0.34379 0.44921 0.92800
Cu	Cu	0.74657 0.29988 0.53236 0.86900
Cu	Cu	0.64142 0.30608 0.50324 0.89600
Cu	Cu	0.61642 0.33857 0.42736 0.89200
C 	C 	0.68180 0.32097 0.36864 0.28700
O 	O 	0.77165 0.43310 0.44976 -0.37100
C 	C 	0.69189 0.32956 0.58785 0.28700
O 	O 	0.63968 0.29164 0.44839 -0.64200
O 	O 	0.73447 0.35247 0.50568 -0.64200
O 	O 	0.78696 0.31030 0.44931 -0.38100
O 	O 	0.73027 0.24236 0.48842 -0.44600
O 	O 	0.65541 0.34752 0.37992 -0.38600
O 	O 	0.55041 0.25648 0.49689 -0.38900
C 	C 	0.51325 0.25977 0.47107 0.30800
C 	C 	0.74560 0.45696 0.46540 0.30400
O 	O 	0.68729 0.42054 0.47112 -0.39400
O 	O 	0.53651 0.30196 0.44842 -0.40000
O 	O 	0.72356 0.32227 0.39347 -0.36200
C 	C 	0.76910 0.26043 0.46356 0.31000
O 	O 	0.64239 0.30635 0.55980 -0.38900
O 	O 	0.74366 0.33786 0.58007 -0.42200
H 	H 	0.61317 0.24732 0.43586 0.16200
H 	H 	0.75937 0.39565 0.52020 0.17000
C 	C 	0.62750 0.26972 0.75677 -0.06400
C 	C 	0.66470 0.32981 0.74861 0.01800
C 	C 	0.69854 0.38104 0.77953 -0.06400
C 	C 	0.69805 0.37218 0.81828 0.01000
C 	C 	0.66348 0.31188 0.82646 -0.08900
C 	C 	0.62659 0.26080 0.79545 0.01000
C 	C 	0.67272 0.33870 0.70802 0.01700
H 	H 	0.72666 0.42766 0.77354 0.04300
H 	H 	0.72620 0.41212 0.84183 0.03700
H 	H 	0.59842 0.21409 0.80128 0.02900
H 	H 	0.60090 0.22984 0.73313 0.04200
C 	C 	0.73281 0.36845 0.69828 -0.06400
C 	C 	0.73950 0.36869 0.65914 0.00900
C 	C 	0.68600 0.33836 0.62921 -0.08800
C 	C 	0.62628 0.31201 0.63917 0.00900
C 	C 	0.61976 0.31229 0.67838 -0.06300
H 	H 	0.77411 0.38948 0.72096 0.04200
H 	H 	0.78610 0.39088 0.65209 0.03000
H 	H 	0.58464 0.28951 0.61657 0.03800
H 	H 	0.57329 0.29023 0.68564 0.04400
C 	C 	0.64008 0.23168 0.17666 -0.06300
C 	C 	0.66958 0.28775 0.20295 0.01900
C 	C 	0.69363 0.34276 0.18869 -0.06300
C 	C 	0.68635 0.34147 0.14844 0.01100
C 	C 	0.65524 0.28519 0.12205 -0.08500
C 	C 	0.63315 0.23041 0.13633 0.01500
C 	C 	0.67122 0.28834 0.24519 0.01900
H 	H 	0.71657 0.38627 0.20882 0.04500
H 	H 	0.70404 0.38408 0.13774 0.02000
H 	H 	0.60894 0.18664 0.11627 0.03800
H 	H 	0.62147 0.18900 0.18744 0.04500
C 	C 	0.61627 0.26657 0.26040 -0.06300
C 	C 	0.61930 0.27487 0.30084 0.01100
C 	C 	0.67728 0.30476 0.32642 -0.08400
C 	C 	0.73175 0.32383 0.31116 0.01500
C 	C 	0.72873 0.31583 0.27069 -0.06300
H 	H 	0.57162 0.24506 0.24089 0.04500
H 	H 	0.57685 0.25935 0.31228 0.02100
H 	H 	0.77680 0.34692 0.33058 0.03900
H 	H 	0.77135 0.33254 0.25916 0.04500
C 	C 	0.79157 0.61826 0.46480 0.00100
C 	C 	0.79242 0.63832 0.42924 -0.03600
C 	C 	0.83073 0.70154 0.42809 -0.04900
C 	C 	0.86691 0.74549 0.46284 0.02400
C 	C 	0.86593 0.72529 0.49844 -0.05000
C 	C 	0.82832 0.66194 0.49944 -0.03600
C 	C 	0.90816 0.81266 0.46200 -0.04200
C 	C 	0.88844 0.83777 0.43921 -0.06400
C 	C 	0.75314 0.55136 0.46541 0.01000
C 	C 	0.78104 0.52465 0.47459 -0.15200
H 	H 	0.76452 0.60485 0.40234 0.03700
H 	H 	0.83291 0.71626 0.40019 0.04000
H 	H 	0.89418 0.75868 0.52533 0.03900
H 	H 	0.82785 0.64681 0.52707 0.03700
H 	H 	0.95339 0.84238 0.48199 0.03800
H 	H 	0.84072 0.80900 0.42218 0.04400
H 	H 	0.70288 0.52276 0.45338 0.02700
H 	H 	0.83196 0.55313 0.48412 0.07400
C 	C 	0.82583 0.15942 0.46818 -0.00100
C 	C 	0.79441 0.09572 0.46669 -0.03600
C 	C 	0.82706 0.07008 0.46349 -0.05000
C 	C 	0.89159 0.10799 0.46166 0.02300
C 	C 	0.92323 0.17181 0.46363 -0.05000
C 	C 	0.89059 0.19748 0.46688 -0.03600
C 	C 	0.92727 0.08184 0.46061 -0.04200
C 	C 	0.90515 0.02986 0.43528 -0.06600
C 	C 	0.79215 0.18678 0.47498 0.00700
C 	C 	0.79709 0.22815 0.45409 -0.16000
H 	H 	0.74482 0.06618 0.46846 0.03400
H 	H 	0.80253 0.02103 0.46324 0.03900
H 	H 	0.97323 0.20161 0.46297 0.03800
H 	H 	0.91589 0.24706 0.46928 0.03400
H 	H 	0.97216 0.10550 0.48056 0.03700
H 	H 	0.86072 0.00682 0.41495 0.04500
H 	H 	0.76219 0.17202 0.49683 0.02300
H 	H 	0.82487 0.24070 0.43107 0.08000
C 	C 	0.24455 0.18660 0.45167 -0.05000
C 	C 	0.30849 0.21920 0.44956 -0.03600
C 	C 	0.33737 0.18936 0.45037 0.00200
C 	C 	0.30134 0.12610 0.45244 -0.03600
C 	C 	0.23739 0.09350 0.45454 -0.04900
C 	C 	0.40471 0.22402 0.44725 0.00700
C 	C 	0.44517 0.22238 0.47237 -0.14900
H 	H 	0.22290 0.21030 0.45142 0.03900
H 	H 	0.33571 0.26780 0.44760 0.03600
H 	H 	0.32276 0.10219 0.45225 0.03600
H 	H 	0.42194 0.25417 0.42586 0.03300
H 	H 	0.42797 0.19364 0.49450 0.07600
C 	C 	0.80332 0.63694 0.02023 0.00000
C 	C 	0.77502 0.66735 0.02007 -0.03500
C 	C 	0.81195 0.73158 0.02264 -0.05000
C 	C 	0.87760 0.76593 0.02543 0.02600
C 	C 	0.90612 0.73578 0.02693 -0.05100
C 	C 	0.86920 0.67157 0.02434 -0.03400
C 	C 	0.91711 0.83374 0.02800 -0.04500
C 	C 	0.90364 0.85915 0.00150 -0.05800
C 	C 	0.76397 0.56921 0.01814 0.01300
C 	C 	0.76950 0.53281 0.99268 -0.15600
H 	H 	0.72438 0.64119 0.01779 0.03600
H 	H 	0.78964 0.75465 0.02271 0.04100
H 	H 	0.95687 0.76207 0.02986 0.03900
H 	H 	0.89179 0.64883 0.02583 0.03600
H 	H 	0.96059 0.86264 0.04963 0.03900
H 	H 	0.85974 0.83057 0.98022 0.04000
H 	H 	0.72764 0.54872 0.03590 0.03200
H 	H 	0.80453 0.55344 0.97404 0.07700
C 	C 	0.82438 0.15700 0.99112 -0.00600
C 	C 	0.83021 0.12664 0.95902 -0.03400
C 	C 	0.85538 0.09424 0.96487 -0.05700
C 	C 	0.87658 0.09328 0.00299 0.03000
C 	C 	0.87066 0.12359 0.03512 -0.05400
C 	C 	0.84513 0.15574 0.02925 -0.02800
C 	C 	0.90168 0.05766 0.00949 -0.03900
C 	C 	0.94316 0.06084 0.98864 -0.06800
C 	C 	0.79891 0.19216 0.98449 0.00200
C 	C 	0.75084 0.18205 0.00112 -0.15000
H 	H 	0.81450 0.12752 0.92951 0.02800
H 	H 	0.85781 0.06940 0.93980 0.04000
H 	H 	0.88626 0.12262 0.06463 0.04100
H 	H 	0.84190 0.17997 0.05427 0.03700
H 	H 	0.88812 0.03062 0.03264 0.03900
H 	H 	0.96178 0.09289 0.96839 0.04300
H 	H 	0.81554 0.22203 0.96293 0.02400
H 	H 	0.73240 0.14993 0.02133 0.07800
C 	C 	0.34264 0.13834 0.97592 0.00300
C 	C 	0.29443 0.07508 0.97327 -0.03700
C 	C 	0.23191 0.05394 0.97131 -0.05100
C 	C 	0.21713 0.09604 0.97247 0.02600
C 	C 	0.26491 0.15899 0.97394 -0.05200
C 	C 	0.32755 0.18028 0.97621 -0.03600
C 	C 	0.40925 0.16105 0.98285 0.00200
C 	C 	0.45173 0.20514 0.96479 -0.15100
H 	H 	0.30554 0.04241 0.97326 0.03500
H 	H 	0.19506 0.00499 0.96943 0.03900
H 	H 	0.25382 0.19171 0.97456 0.03900
H 	H 	0.36446 0.22948 0.97933 0.03600
H 	H 	0.42372 0.14177 0.00325 0.04400
H 	H 	0.43686 0.22296 0.94344 0.07200
