data_crystal

_cell_length_a 18.80644
_cell_length_b 15.43838
_cell_length_c 41.75594
_cell_angle_alpha 90.87272
_cell_angle_beta  91.26776
_cell_angle_gamma 111.05247

_symmetry_space_group_name_	'P 1'
_symmetry_space_group_name_H-M	'P 1'

loop_
_symmetry_equiv_pos_as_xyz
  x,y,z

loop_
_atom_site_label
_atom_site_type_symbol
_atom_site_fract_x
_atom_site_fract_y
_atom_site_fract_z
_atom_site_charge
Ni	Ni	0.72277 0.30344 0.89233 1.10000
O 	O 	0.63799 0.24956 0.85782 -0.70300
Ni	Ni	0.54892 0.26288 0.88069 1.09800
O 	O 	0.80263 0.26432 0.86972 -0.35700
O 	O 	0.72559 0.12246 0.84987 -0.38300
O 	O 	0.76770 0.42436 0.86736 -0.36100
Ni	Ni	0.61256 0.11608 0.84952 1.07300
O 	O 	0.77512 0.49678 0.92565 -0.39900
O 	O 	0.60826 0.08823 0.89733 -0.40400
O 	O 	0.46901 0.20509 0.84542 -0.37900
O 	O 	0.63458 0.32039 0.91426 -0.70500
O 	O 	0.80135 0.36325 0.92807 -0.36700
O 	O 	0.47081 0.29767 0.90666 -0.35300
O 	O 	0.54830 0.44867 0.91344 -0.39900
Ni	Ni	0.65968 0.45521 0.91908 1.07200
H 	H 	0.64756 0.28445 0.83770 0.16500
H 	H 	0.62482 0.28912 0.93507 0.17400
C 	C 	0.55234 0.09288 0.91473 0.28300
O 	O 	0.66854 0.47499 0.87121 -0.41400
C 	C 	0.78590 0.19901 0.84722 0.28000
C 	C 	0.45495 0.11999 0.83456 0.28600
C 	C 	0.72836 0.47319 0.85625 0.28900
C 	C 	0.49093 0.37707 0.92268 0.28300
C 	C 	0.81091 0.44700 0.93940 0.28700
O 	O 	0.50988 0.13950 0.90481 -0.36200
O 	O 	0.49552 0.07139 0.84536 -0.38800
Ni	Ni	0.60942 0.33183 0.56843 1.10200
O 	O 	0.69395 0.34865 0.53634 -0.69700
Ni	Ni	0.76427 0.29898 0.56017 1.10200
O 	O 	0.56527 0.42050 0.54630 -0.35900
O 	O 	0.68345 0.52985 0.54456 -0.40100
O 	O 	0.53463 0.22638 0.53991 -0.36200
Ni	Ni	0.75082 0.47198 0.52053 1.08700
O 	O 	0.50681 0.14707 0.59748 -0.38800
O 	O 	0.84027 0.53377 0.55283 -0.37800
O 	O 	0.85806 0.33629 0.53104 -0.35900
O 	O 	0.67400 0.27066 0.59021 -0.70000
O 	O 	0.52726 0.30325 0.60163 -0.37500
O 	O 	0.81247 0.22725 0.58887 -0.35700
O 	O 	0.70516 0.09683 0.58420 -0.39600
Ni	Ni	0.61260 0.13851 0.59129 1.07000
H 	H 	0.67306 0.30717 0.51756 0.17400
H 	H 	0.68987 0.29717 0.61209 0.16100
C 	C 	0.86552 0.49139 0.57503 0.28600
O 	O 	0.59563 0.12291 0.54297 -0.40200
C 	C 	0.61081 0.50174 0.53680 0.28600
C 	C 	0.86861 0.39548 0.50724 0.28000
C 	C 	0.55102 0.15732 0.52743 0.28800
C 	C 	0.77399 0.14098 0.59671 0.27400
C 	C 	0.49239 0.21729 0.61110 0.27800
O 	O 	0.81870 0.41555 0.58759 -0.38500
O 	O 	0.81095 0.41287 0.49437 -0.38800
Ni	Ni	0.99961 0.93441 0.74905 1.08900
O 	O 	0.02132 0.84511 0.71808 -0.70200
Ni	Ni	0.07298 0.93002 0.68328 1.10100
O 	O 	0.94737 0.82750 0.77897 -0.36300
O 	O 	0.86098 0.75157 0.73943 -0.40700
O 	O 	0.09993 0.95945 0.77574 -0.35500
Ni	Ni	0.92528 0.75902 0.69902 1.06200
O 	O 	0.07802 0.14405 0.77214 -0.40500
O 	O 	0.88752 0.86108 0.68393 -0.40900
O 	O 	0.09437 0.83076 0.65635 -0.36700
O 	O 	0.04011 0.01953 0.71172 -0.66800
O 	O 	0.97006 0.01890 0.77888 -0.39300
O 	O 	0.14719 0.02948 0.65575 -0.35000
O 	O 	0.17502 0.16449 0.68439 -0.38600
Ni	Ni	0.11976 0.13435 0.72776 1.07300
H 	H 	0.05355 0.81301 0.72754 0.16400
H 	H 	0.99840 0.03592 0.70199 0.13300
C 	C 	0.91823 0.91306 0.65969 0.28700
O 	O 	0.18333 0.05876 0.74130 -0.42400
C 	C 	0.88899 0.75491 0.76870 0.27700
C 	C 	0.03683 0.75165 0.65032 0.30100
C 	C 	0.17026 0.00857 0.76710 0.28600
C 	C 	0.19793 0.10552 0.66849 0.27900
C 	C 	0.00459 0.10864 0.77821 0.32700
O 	O 	0.98661 0.92061 0.65084 -0.37200
O 	O 	0.96623 0.74643 0.65517 -0.41800
Ni	Ni	0.24575 0.67980 0.39385 1.10200
O 	O 	0.33342 0.74232 0.36415 -0.70600
Ni	Ni	0.42243 0.74707 0.39152 1.10400
O 	O 	0.16949 0.68422 0.35891 -0.36000
O 	O 	0.22787 0.84186 0.35500 -0.39100
O 	O 	0.24663 0.55922 0.37366 -0.39700
Ni	Ni	0.34532 0.86866 0.35373 1.07200
O 	O 	0.22917 0.59841 0.46700 -0.40200
O 	O 	0.35397 0.91466 0.40047 -0.39800
O 	O 	0.50199 0.79817 0.35795 -0.37100
O 	O 	0.33586 0.70144 0.42326 -0.70000
O 	O 	0.15684 0.60697 0.42231 -0.36700
O 	O 	0.50050 0.71888 0.42046 -0.35900
O 	O 	0.41593 0.57237 0.42577 -0.40700
Ni	Ni	0.32089 0.58615 0.44578 1.07800
H 	H 	0.33064 0.70498 0.34435 0.16600
H 	H 	0.33836 0.75057 0.43920 0.16800
C 	C 	0.41433 0.92440 0.41866 0.28700
O 	O 	0.25006 0.47660 0.41818 -0.38300
C 	C 	0.17409 0.76261 0.34553 0.27500
C 	C 	0.50692 0.87391 0.34231 0.27700
C 	C 	0.22537 0.48091 0.38879 0.30800
C 	C 	0.48318 0.63578 0.43220 0.28000
C 	C 	0.16257 0.57891 0.45186 0.30000
O 	O 	0.45897 0.87826 0.41192 -0.36400
O 	O 	0.46229 0.92155 0.34935 -0.38700
Ni	Ni	0.36422 0.68887 0.05958 1.09800
O 	O 	0.26613 0.66038 0.03217 -0.70100
Ni	Ni	0.21016 0.72672 0.05772 1.09900
O 	O 	0.40329 0.60301 0.03274 -0.35500
O 	O 	0.29177 0.48007 0.03366 -0.39300
O 	O 	0.42565 0.79034 0.02851 -0.35900
Ni	Ni	0.20233 0.52783 0.03089 1.07800
O 	O 	0.47619 0.87705 0.08486 -0.39300
O 	O 	0.20105 0.52197 0.07939 -0.41000
O 	O 	0.11677 0.69439 0.02772 -0.36000
O 	O 	0.30783 0.75473 0.08541 -0.69900
O 	O 	0.45934 0.72396 0.08878 -0.37200
O 	O 	0.17053 0.81389 0.08339 -0.35000
O 	O 	0.28224 0.93697 0.08663 -0.39200
Ni	Ni	0.37135 0.88789 0.08546 1.07200
H 	H 	0.27582 0.68507 0.01033 0.17000
H 	H 	0.29811 0.73062 0.10736 0.16000
C 	C 	0.15217 0.54755 0.09489 0.29300
O 	O 	0.36607 0.89359 0.03694 -0.40700
C 	C 	0.35677 0.52360 0.02036 0.28100
C 	C 	0.08317 0.60898 0.01637 0.28000
C 	C 	0.40748 0.86095 0.01904 0.28800
C 	C 	0.21569 0.88989 0.09830 0.27700
C 	C 	0.49284 0.81070 0.09887 0.28200
O 	O 	0.14542 0.62793 0.08913 -0.35700
O 	O 	0.09812 0.54029 0.02953 -0.39000
Ni	Ni	0.95212 0.02672 0.26814 1.09400
O 	O 	0.96723 0.13888 0.24015 -0.71800
Ni	Ni	0.91554 0.07581 0.19952 1.09600
O 	O 	0.00777 0.11083 0.30615 -0.34400
O 	O 	0.11175 0.17991 0.27557 -0.39600
O 	O 	0.85043 0.03746 0.28063 -0.38600
Ni	Ni	0.07297 0.20798 0.23109 1.07300
O 	O 	0.89065 0.79425 0.25576 -0.40300
O 	O 	0.09336 0.09647 0.21201 -0.40000
O 	O 	0.92467 0.19403 0.17591 -0.36500
O 	O 	0.91823 0.96501 0.22517 -0.69900
O 	O 	0.92917 0.91055 0.29485 -0.36800
O 	O 	0.83580 0.99474 0.16617 -0.36500
O 	O 	0.76026 0.91444 0.20602 -0.41400
Ni	Ni	0.82745 0.85458 0.23043 1.07300
H 	H 	0.94204 0.18035 0.24871 0.16000
H 	H 	0.95867 0.94354 0.21761 0.15000
C 	C 	0.06581 0.06079 0.18359 0.28300
O 	O 	0.78651 0.88259 0.27257 -0.38500
C 	C 	0.07434 0.17711 0.30217 0.27000
C 	C 	0.99190 0.26328 0.17616 0.22600
C 	C 	0.78649 0.96510 0.28023 0.30100
C 	C 	0.76997 0.93514 0.17557 0.26500
C 	C 	0.93054 0.83206 0.28237 0.28600
O 	O 	0.00239 0.06748 0.17197 -0.35500
O 	O 	0.05438 0.24956 0.18634 -0.37700
C 	C 	0.00290 0.34051 0.15429 -0.03100
C 	C 	0.00337 0.32209 0.12137 0.01400
C 	C 	0.05091 0.38934 0.10144 0.00800
C 	C 	0.09434 0.47883 0.11419 -0.06000
C 	C 	0.08364 0.50152 0.14591 -0.00200
C 	C 	0.03809 0.43273 0.16602 -0.00800
H 	H 	0.97350 0.25213 0.11195 0.03700
H 	H 	0.11352 0.57139 0.15538 0.04300
C 	C 	0.03093 0.45605 0.19911 0.07000
C 	C 	0.05723 0.36423 0.06845 0.08400
N 	N 	0.02522 0.47477 0.22564 -0.11900
N 	N 	0.06206 0.34320 0.04210 -0.12500
C 	C 	0.70208 0.90980 0.15407 -0.06200
C 	C 	0.63863 0.92922 0.16420 -0.01000
C 	C 	0.56877 0.89231 0.14736 0.00300
C 	C 	0.56213 0.83687 0.11952 -0.06500
C 	C 	0.62568 0.81798 0.10912 -0.00300
C 	C 	0.69561 0.85421 0.12623 -0.00100
H 	H 	0.64324 0.97127 0.18577 0.04500
H 	H 	0.62110 0.77665 0.08739 0.05500
C 	C 	0.76002 0.83306 0.11530 0.07800
C 	C 	0.50355 0.91014 0.15919 0.05400
N 	N 	0.81164 0.81613 0.10655 -0.11200
N 	N 	0.45131 0.92438 0.16866 -0.13200
C 	C 	0.18163 0.93818 0.12029 -0.06100
C 	C 	0.18244 0.92207 0.15321 -0.01400
C 	C 	0.14777 0.96476 0.17449 0.00400
C 	C 	0.11099 0.02362 0.16261 -0.06400
C 	C 	0.11277 0.04210 0.12974 -0.01100
C 	C 	0.14756 0.99959 0.10858 0.01400
H 	H 	0.20974 0.87586 0.16225 0.03400
H 	H 	0.08620 0.08893 0.12059 0.06000
C 	C 	0.14732 0.01855 0.07481 0.09400
C 	C 	0.15056 0.94807 0.20835 0.07800
N 	N 	0.14713 0.03374 0.04775 -0.09900
N 	N 	0.15312 0.93515 0.23550 -0.11600
C 	C 	0.57839 0.92216 0.32591 -0.05100
C 	C 	0.64696 0.95634 0.34404 -0.00600
C 	C 	0.71706 0.98144 0.32895 0.01600
C 	C 	0.71874 0.97203 0.29536 -0.06700
C 	C 	0.65048 0.94788 0.27709 -0.00900
C 	C 	0.58030 0.92266 0.29221 -0.00100
H 	H 	0.64559 0.95858 0.37000 0.06300
H 	H 	0.65173 0.94313 0.25117 0.04100
C 	C 	0.51054 0.89376 0.27299 0.06600
C 	C 	0.78679 0.01157 0.34823 0.09200
N 	N 	0.45466 0.87061 0.25758 -0.12000
N 	N 	0.84268 0.03568 0.36364 -0.09900
C 	C 	0.18359 0.39437 0.37087 -0.06700
C 	C 	0.22342 0.34001 0.35906 -0.00400
C 	C 	0.18695 0.26448 0.33815 0.00100
C 	C 	0.11002 0.24396 0.32857 -0.06000
C 	C 	0.06878 0.29387 0.34240 -0.01400
C 	C 	0.10510 0.36891 0.36348 0.01200
H 	H 	0.28323 0.35779 0.36561 0.04700
H 	H 	0.00900 0.27637 0.33583 0.05400
C 	C 	0.06134 0.41925 0.37743 0.08900
C 	C 	0.22816 0.20710 0.32730 0.09000
N 	N 	0.02585 0.45914 0.38851 -0.09300
N 	N 	0.26118 0.16113 0.31862 -0.11200
C 	C 	0.10569 0.76605 0.32885 -0.05900
C 	C 	0.04603 0.77328 0.34687 0.01800
C 	C 	0.98254 0.78306 0.33156 -0.00900
C 	C 	0.97948 0.78802 0.29787 -0.08500
C 	C 	0.03494 0.77004 0.27982 0.01500
C 	C 	0.09851 0.76000 0.29515 -0.00100
H 	H 	0.04965 0.77273 0.37284 0.05500
H 	H 	0.03101 0.76963 0.25385 0.04400
C 	C 	0.15662 0.74521 0.27617 0.07500
C 	C 	0.92077 0.78821 0.35052 0.09800
N 	N 	0.20316 0.73339 0.26095 -0.12100
N 	N 	0.87130 0.79239 0.36570 -0.10000
C 	C 	0.44066 0.99996 0.44317 -0.06100
C 	C 	0.51444 0.06742 0.44141 0.00700
C 	C 	0.55203 0.11614 0.46929 0.00500
C 	C 	0.51114 0.11014 0.49762 -0.06200
C 	C 	0.43320 0.05316 0.49795 0.00600
C 	C 	0.39872 0.99544 0.47109 0.00300
C 	C 	0.55139 0.08698 0.41086 0.09700
C 	C 	0.38943 0.05135 0.52628 0.09800
C 	C 	0.32159 0.92887 0.47269 0.08300
C 	C 	0.63372 0.16585 0.46943 0.08000
N 	N 	0.26006 0.87561 0.47400 -0.10700
N 	N 	0.69902 0.20482 0.46934 -0.11200
N 	N 	0.35450 0.04995 0.54887 -0.09700
N 	N 	0.58094 0.10292 0.38649 -0.10500
C 	C 	0.94639 0.44376 0.49490 -0.04400
C 	C 	0.96958 0.53848 0.48636 -0.03100
C 	C 	0.04285 0.58430 0.47467 0.04100
C 	C 	0.09204 0.53529 0.46963 -0.07600
C 	C 	0.07005 0.44167 0.47858 0.03800
C 	C 	0.99689 0.39540 0.49068 -0.02700
C 	C 	0.91738 0.58834 0.48846 0.07900
C 	C 	0.12211 0.39230 0.47478 0.08400
C 	C 	0.97211 0.29684 0.49681 0.10800
C 	C 	0.06737 0.68219 0.46742 0.09000
N 	N 	0.95241 0.21821 0.50167 -0.10200
N 	N 	0.08658 0.76015 0.46158 -0.09600
N 	N 	0.16347 0.35265 0.47182 -0.10200
N 	N 	0.87608 0.62857 0.48994 -0.13600
C 	C 	0.58618 0.54508 0.50966 -0.08200
C 	C 	0.55543 0.61461 0.51530 0.00900
C 	C 	0.52781 0.65189 0.48932 -0.00700
C 	C 	0.53128 0.61962 0.45780 -0.07200
C 	C 	0.56943 0.55794 0.45203 0.00400
C 	C 	0.59491 0.51844 0.47788 0.00500
C 	C 	0.55140 0.64685 0.54778 0.08500
C 	C 	0.58127 0.53395 0.41934 0.09200
C 	C 	0.62781 0.44840 0.47168 0.02600
C 	C 	0.49417 0.72169 0.49498 0.06000
N 	N 	0.65378 0.39257 0.46611 -0.13300
N 	N 	0.46733 0.77738 0.49944 -0.11800
N 	N 	0.59070 0.51485 0.39328 -0.10600
N 	N 	0.54821 0.67258 0.57370 -0.10700
C 	C 	0.81268 0.08700 0.61450 -0.06100
C 	C 	0.76763 0.00638 0.63000 -0.01200
C 	C 	0.80060 0.94745 0.64396 0.00500
C 	C 	0.88072 0.97274 0.64483 -0.07100
C 	C 	0.92614 0.05566 0.63073 -0.01500
C 	C 	0.89290 0.11107 0.61467 0.00500
H 	H 	0.70626 0.98784 0.63026 0.03400
H 	H 	0.98774 0.07619 0.63166 0.04700
C 	C 	0.94161 0.18964 0.59736 0.09900
C 	C 	0.75134 0.85911 0.65565 0.08600
N 	N 	0.98086 0.25248 0.58355 -0.10100
N 	N 	0.71175 0.78839 0.66496 -0.11100
C 	C 	0.41994 0.19592 0.62801 -0.05400
C 	C 	0.36430 0.22886 0.61594 -0.00500
C 	C 	0.29192 0.20088 0.62925 0.01100
C 	C 	0.27486 0.13990 0.65517 -0.05800
C 	C 	0.33098 0.10885 0.66780 -0.01200
C 	C 	0.40333 0.13650 0.65440 0.00300
H 	H 	0.37659 0.27401 0.59552 0.06000
H 	H 	0.31815 0.06264 0.68793 0.03700
C 	C 	0.46041 0.10449 0.66810 0.06600
C 	C 	0.23488 0.23314 0.61562 0.09700
N 	N 	0.50617 0.07885 0.67906 -0.12300
N 	N 	0.18915 0.25892 0.60472 -0.09900
C 	C 	0.94191 0.54203 0.59057 -0.03900
C 	C 	0.99067 0.62391 0.57671 -0.04500
C 	C 	0.04451 0.69252 0.59605 0.04900
C 	C 	0.04650 0.68016 0.62928 -0.08600
C 	C 	0.01764 0.58888 0.64014 0.02200
C 	C 	0.96215 0.51988 0.62146 -0.03200
H 	H 	0.98286 0.63714 0.55173 0.05900
H 	H 	0.02850 0.57537 0.66484 0.02200
C 	C 	0.92878 0.42759 0.63379 0.09000
C 	C 	0.08974 0.77980 0.58248 0.09300
N 	N 	0.90229 0.35385 0.64391 -0.11800
N 	N 	0.12602 0.84982 0.57160 -0.09000
C 	C 	0.01156 0.58589 0.99752 -0.03600
C 	C 	0.01367 0.59559 0.96404 0.01600
C 	C 	0.94771 0.55004 0.94492 -0.01200
C 	C 	0.87933 0.49617 0.95942 -0.06100
C 	C 	0.87563 0.49331 0.99306 0.00600
C 	C 	0.94162 0.53893 0.01213 -0.01800
C 	C 	0.08410 0.65092 0.94928 0.08400
C 	C 	0.80406 0.44326 0.00801 0.07100
C 	C 	0.93813 0.53625 0.04681 0.10000
C 	C 	0.95025 0.55763 0.91032 0.09900
N 	N 	0.93547 0.53408 0.07446 -0.11000
N 	N 	0.95216 0.56366 0.88273 -0.10400
N 	N 	0.74702 0.40342 0.02001 -0.10600
N 	N 	0.14028 0.69512 0.93750 -0.10200
C 	C 	0.52418 0.02646 0.94081 -0.06000
C 	C 	0.55078 0.05297 0.97254 0.00200
C 	C 	0.51099 0.00069 0.99825 0.00700
C 	C 	0.44867 0.91683 0.99208 -0.05700
C 	C 	0.42743 0.88524 0.96016 0.00300
C 	C 	0.46418 0.94082 0.93454 0.00800
C 	C 	0.62060 0.13195 0.97868 0.07800
C 	C 	0.36779 0.79581 0.95361 0.08300
C 	C 	0.44049 0.90963 0.90175 0.09300
C 	C 	0.53349 0.03407 0.03092 0.08700
N 	N 	0.42139 0.88435 0.87563 -0.10400
N 	N 	0.55176 0.06140 0.05691 -0.11200
N 	N 	0.32034 0.72445 0.94820 -0.11300
N 	N 	0.67651 0.19472 0.98359 -0.11400
C 	C 	0.44341 0.38995 0.94849 -0.06800
C 	C 	0.38066 0.41617 0.94105 0.01000
C 	C 	0.35059 0.45748 0.96495 0.00000
C 	C 	0.38430 0.47379 0.99609 -0.06200
C 	C 	0.44163 0.43851 0.00425 0.00500
C 	C 	0.46976 0.39443 0.98055 -0.00100
C 	C 	0.34784 0.40174 0.90877 0.09800
C 	C 	0.47122 0.44700 0.03699 0.09500
C 	C 	0.52576 0.35359 0.98908 0.05800
C 	C 	0.28514 0.48318 0.95758 0.06500
N 	N 	0.57032 0.32087 0.99599 -0.11700
N 	N 	0.23280 0.50347 0.95175 -0.12700
N 	N 	0.49482 0.45381 0.06312 -0.10700
N 	N 	0.32165 0.39016 0.88301 -0.10000
C 	C 	0.96425 0.16721 0.79102 -0.09800
C 	C 	0.89395 0.15802 0.77625 -0.00100
C 	C 	0.83506 0.16760 0.79429 -0.00000
C 	C 	0.84864 0.19535 0.82688 -0.05200
C 	C 	0.92263 0.21819 0.84034 -0.00500
C 	C 	0.98035 0.20420 0.82256 -0.00400
H 	H 	0.88233 0.13314 0.75153 0.02300
H 	H 	0.93448 0.24315 0.86502 0.05600
C 	C 	0.05513 0.22522 0.83720 0.12000
C 	C 	0.76013 0.14454 0.77951 0.06900
N 	N 	0.11508 0.24224 0.84893 -0.10100
N 	N 	0.70009 0.12589 0.76767 -0.12700
C 	C 	0.23631 0.00888 0.78706 -0.06400
C 	C 	0.30061 0.00352 0.77181 -0.00500
C 	C 	0.37207 0.03431 0.78778 0.00000
C 	C 	0.37929 0.06961 0.81947 -0.05500
C 	C 	0.31367 0.06481 0.83587 -0.00400
C 	C 	0.24229 0.03456 0.81990 0.00800
H 	H 	0.29582 0.98065 0.74689 0.03600
H 	H 	0.31869 0.08820 0.86075 0.06100
C 	C 	0.17619 0.03371 0.83706 0.10300
C 	C 	0.43806 0.03293 0.77104 0.07000
N 	N 	0.12321 0.03289 0.85082 -0.08900
N 	N 	0.49097 0.03183 0.75765 -0.11600
C 	C 	0.76307 0.54412 0.83247 -0.06300
C 	C 	0.77730 0.63775 0.84024 -0.00500
C 	C 	0.81891 0.70763 0.81975 0.00900
C 	C 	0.84735 0.68374 0.79128 -0.06500
C 	C 	0.83149 0.59012 0.78318 -0.01100
C 	C 	0.78921 0.52031 0.80347 0.00500
H 	H 	0.75722 0.65625 0.86255 0.04300
H 	H 	0.85187 0.57166 0.76092 0.02000
C 	C 	0.77086 0.42438 0.79386 0.06900
C 	C 	0.83047 0.80326 0.82773 0.09100
N 	N 	0.75612 0.34756 0.78607 -0.12600
N 	N 	0.83971 0.87985 0.83411 -0.10100
