data_crystal

_cell_length_a 19.81236
_cell_length_b 21.56220
_cell_length_c 35.47034
_cell_angle_alpha 60.76886
_cell_angle_beta  118.94300
_cell_angle_gamma 133.26092

_symmetry_space_group_name_	'P 1'
_symmetry_space_group_name_H-M	'P 1'

loop_
_symmetry_equiv_pos_as_xyz
  x,y,z

loop_
_atom_site_label
_atom_site_type_symbol
_atom_site_fract_x
_atom_site_fract_y
_atom_site_fract_z
_atom_site_charge
C 	C 	0.61943 0.31307 0.99946 0.16500
C 	C 	0.58906 0.27808 0.50940 0.15400
C 	C 	0.28715 0.62847 0.19802 0.15000
N 	N 	0.38392 0.68081 0.20713 -0.13000
C 	C 	0.43075 0.65425 0.20867 0.15600
N 	N 	0.38216 0.56982 0.20917 -0.12400
C 	C 	0.28582 0.51805 0.19818 0.14800
N 	N 	0.23766 0.54771 0.19190 -0.12300
C 	C 	0.23761 0.59699 0.69590 0.14400
N 	N 	0.18834 0.51429 0.69185 -0.11500
C 	C 	0.23605 0.48918 0.69214 0.15200
N 	N 	0.33173 0.54477 0.69841 -0.12600
C 	C 	0.37912 0.62907 0.69751 0.15200
N 	N 	0.33244 0.65512 0.69679 -0.13200
Co	Co	0.07385 0.03327 0.04296 1.17100
Co	Co	0.02601 0.09777 0.08984 1.17900
C 	C 	0.24801 0.10132 0.02398 0.33100
Co	Co	0.11019 0.90721 0.04297 1.18900
O 	O 	0.07748 0.13307 0.03943 -0.45300
C 	C 	0.11279 0.20508 0.15606 0.30200
C 	C 	0.19066 0.86527 0.13714 0.30000
O 	O 	0.05027 0.13529 0.18031 -0.38300
O 	O 	0.12423 0.19970 0.12347 -0.36900
O 	O 	0.21528 0.92671 0.10057 -0.35300
O 	O 	0.13144 0.85052 0.15367 -0.35500
O 	O 	0.06686 0.94006 0.06930 -0.74000
O 	O 	0.19250 0.03394 0.00713 -0.41300
O 	O 	0.21717 0.10881 0.04597 -0.38900
Co	Co	0.07599 0.02016 0.55137 1.17300
C 	C 	0.26282 0.04373 0.58064 0.27600
Co	Co	0.09487 0.88047 0.55302 1.17600
O 	O 	0.07973 0.12250 0.54323 -0.45400
C 	C 	0.07504 0.21334 0.62492 0.30900
C 	C 	0.08455 0.77016 0.64554 0.31600
O 	O 	0.13268 0.98589 0.49791 -0.36300
O 	O 	0.09937 0.17574 0.61865 -0.37800
O 	O 	0.06282 0.76964 0.60463 -0.40200
O 	O 	0.06814 0.81154 0.65424 -0.36600
O 	O 	0.03965 0.91548 0.57048 -0.74400
O 	O 	0.22570 0.95998 0.59020 -0.33900
O 	O 	0.21854 0.06869 0.58183 -0.38100
C 	C 	0.02699 0.06079 0.88780 -0.04700
C 	C 	0.03790 0.07884 0.84643 -0.01200
C 	C 	0.00241 0.01047 0.83058 -0.02700
C 	C 	0.01603 0.02876 0.78970 -0.04100
H 	H 	0.05855 0.11468 0.90021 0.07600
H 	H 	0.07560 0.14627 0.82717 0.07000
H 	H 	0.05463 0.09620 0.77055 0.06300
C 	C 	0.08594 0.97741 0.30623 0.00300
C 	C 	0.12180 0.99818 0.34692 0.00600
C 	C 	0.06376 0.98923 0.36416 0.04300
C 	C 	0.09998 0.01167 0.40458 -0.04000
H 	H 	0.13288 0.98835 0.29268 0.07300
H 	H 	0.19524 0.02282 0.36451 0.03300
H 	H 	0.17313 0.03565 0.42266 0.05700
C 	C 	0.17788 0.43039 0.62986 -0.04900
C 	C 	0.18502 0.41355 0.67474 -0.00500
C 	C 	0.17610 0.33599 0.70449 0.07500
C 	C 	0.15983 0.27678 0.68900 -0.01500
C 	C 	0.14600 0.29088 0.64357 -0.08000
C 	C 	0.16434 0.37226 0.61482 0.11400
N 	N 	0.16680 0.39508 0.56986 -0.02600
H 	H 	0.19045 0.49224 0.60733 0.08700
H 	H 	0.14901 0.21571 0.71174 0.06300
N 	N 	0.18412 0.31728 0.75060 -0.02000
O 	O 	0.13914 0.44356 0.53834 -0.08100
O 	O 	0.20173 0.37152 0.56085 -0.08200
O 	O 	0.13522 0.32235 0.76217 -0.08500
O 	O 	0.23636 0.29067 0.78099 -0.08700
C 	C 	0.48328 0.75750 0.64649 -0.05200
C 	C 	0.47312 0.69431 0.68721 -0.01200
C 	C 	0.54355 0.67902 0.71155 0.07800
H 	H 	0.42782 0.76748 0.62691 0.08200
N 	N 	0.53703 0.61790 0.75426 -0.01800
O 	O 	0.54909 0.55933 0.76353 -0.07900
C 	C 	0.24396 0.70202 0.71285 -0.05300
C 	C 	0.18854 0.62602 0.69778 -0.00800
C 	C 	0.08900 0.58410 0.68132 0.07900
C 	C 	0.04930 0.62282 0.67668 -0.01600
C 	C 	0.10869 0.70923 0.68111 -0.07800
C 	C 	0.20442 0.74385 0.70453 0.11500
N 	N 	0.26255 0.82270 0.71868 -0.02300
H 	H 	0.31835 0.73024 0.72974 0.08900
H 	H 	0.97359 0.59177 0.66251 0.07200
N 	N 	0.02934 0.50728 0.66551 -0.02100
O 	O 	0.35349 0.87693 0.72043 -0.05900
O 	O 	0.22610 0.83668 0.73328 -0.06700
O 	O 	0.97613 0.43054 0.68989 -0.06200
C 	C 	0.22351 0.36254 0.22037 -0.05300
C 	C 	0.23571 0.43699 0.18617 -0.01100
C 	C 	0.22293 0.44009 0.14259 0.07900
C 	C 	0.18956 0.36570 0.13321 -0.01300
C 	C 	0.17452 0.29010 0.16735 -0.07800
C 	C 	0.19809 0.29129 0.21165 0.11200
N 	N 	0.19694 0.22031 0.24793 -0.01900
H 	H 	0.23963 0.36217 0.25434 0.08400
H 	H 	0.17430 0.36654 0.09928 0.06600
N 	N 	0.24875 0.52001 0.10842 -0.01900
O 	O 	0.24090 0.19265 0.25076 -0.09800
O 	O 	0.15616 0.18641 0.27931 -0.10900
O 	O 	0.33752 0.58809 0.11175 -0.08400
O 	O 	0.18656 0.52046 0.07122 -0.07500
C 	C 	0.51540 0.77432 0.14975 -0.05100
C 	C 	0.51848 0.71988 0.19272 -0.01100
C 	C 	0.59479 0.71252 0.21437 0.07700
N 	N 	0.60143 0.66019 0.25901 -0.01900
H 	H 	0.45519 0.77788 0.13242 0.08700
O 	O 	0.61977 0.60548 0.26943 -0.08100
O 	O 	0.59418 0.67062 0.28972 -0.07900
C 	C 	0.22544 0.71173 0.13690 -0.04700
C 	C 	0.23833 0.66929 0.18191 -0.00800
C 	C 	0.22854 0.68611 0.21214 0.08400
C 	C 	0.21156 0.74914 0.19717 -0.00600
C 	C 	0.20790 0.79795 0.15264 -0.07200
C 	C 	0.21657 0.77938 0.12245 0.11400
N 	N 	0.22370 0.83303 0.07809 -0.03600
H 	H 	0.23288 0.69888 0.11363 0.08700
H 	H 	0.20315 0.76113 0.22041 0.07900
N 	N 	0.23676 0.64009 0.25810 -0.01800
O 	O 	0.30518 0.90752 0.07104 -0.08400
O 	O 	0.28841 0.68280 0.28883 -0.07500
O 	O 	0.18920 0.55501 0.26923 -0.07500
O 	O 	0.74338 0.40580 0.62593 -0.08200
O 	O 	0.86126 0.75225 0.42079 -0.09300
C 	C 	0.50122 0.15285 0.56638 -0.05300
C 	C 	0.50088 0.21121 0.52459 -0.01600
C 	C 	0.42403 0.21768 0.50251 0.07700
C 	C 	0.35024 0.16821 0.52320 -0.01500
C 	C 	0.35058 0.10980 0.56500 -0.08200
C 	C 	0.42766 0.10367 0.58714 0.11100
N 	N 	0.43297 0.04982 0.63140 -0.03700
H 	H 	0.56172 0.14974 0.58397 0.07900
H 	H 	0.29001 0.17173 0.50572 0.06000
N 	N 	0.42042 0.27391 0.45881 -0.01900
O 	O 	0.45051 0.99484 0.64118 -0.05400
O 	O 	0.42726 0.06038 0.66260 -0.07700
O 	O 	0.43008 0.26767 0.42731 -0.08800
O 	O 	0.40214 0.32787 0.44990 -0.08000
C 	C 	0.41867 0.16612 0.05485 -0.00700
C 	C 	0.34572 0.16732 0.01874 -0.09900
C 	C 	0.36232 0.21308 0.97565 0.12600
C 	C 	0.44969 0.25277 0.96892 -0.04300
C 	C 	0.52196 0.25002 0.00494 -0.03000
C 	C 	0.50588 0.20560 0.04810 0.08000
N 	N 	0.57925 0.20258 0.08535 -0.02000
H 	H 	0.40563 0.12982 0.08795 0.06500
H 	H 	0.46313 0.28968 0.93592 0.08300
N 	N 	0.29002 0.21877 0.93859 -0.02400
O 	O 	0.60984 0.23321 0.11834 -0.08900
O 	O 	0.24784 0.24322 0.94084 -0.08900
O 	O 	0.27040 0.20454 0.90171 -0.09000
O 	O 	0.52336 0.62338 0.78457 -0.07500
C 	C 	0.58420 0.81726 0.12732 0.12200
O 	O 	0.04217 0.99153 0.10818 -0.56000
C 	C 	0.07278 0.00485 0.46962 0.26600
C 	C 	0.97068 0.97828 0.72481 0.30500
C 	C 	0.97664 0.95973 0.77270 -0.02500
C 	C 	0.04069 0.00041 0.42239 -0.08800
O 	O 	0.55409 0.91986 0.07021 -0.06200
O 	O 	0.61134 0.16449 0.08752 -0.09000
O 	O 	0.15597 0.79963 0.04471 -0.12600
N 	N 	0.57501 0.86637 0.08202 -0.02200
O 	O 	0.58182 0.85363 0.05211 -0.05900
O 	O 	0.63523 0.04808 0.98826 -0.07700
N 	N 	0.66313 0.28592 0.99843 -0.12600
N 	N 	0.67067 0.39486 0.00360 -0.13400
N 	N 	0.63766 0.36213 0.50941 -0.12500
N 	N 	0.63122 0.25378 0.50452 -0.13600
C 	C 	0.62070 0.72410 0.69408 -0.00600
C 	C 	0.56149 0.80371 0.62946 0.11700
N 	N 	0.57024 0.86738 0.58753 -0.02600
O 	O 	0.55662 0.92449 0.57898 -0.07300
H 	H 	0.67427 0.20310 0.97062 0.08500
O 	O 	0.97044 0.92923 0.71148 -0.36100
Co	Co	0.02262 0.86990 0.11550 1.18700
O 	O 	0.58902 0.86658 0.55740 -0.06100
C 	C 	0.63236 0.78912 0.65410 -0.08600
C 	C 	0.66520 0.75742 0.19228 -0.01000
C 	C 	0.66167 0.81159 0.14923 -0.08400
O 	O 	0.70653 0.61474 0.92861 -0.08300
O 	O 	0.02948 0.77617 0.07494 -0.38700
O 	O 	0.69550 0.06201 0.45398 -0.08300
C 	C 	0.72252 0.31325 0.49998 0.14600
H 	H 	0.67605 0.71393 0.71355 0.06300
H 	H 	0.72570 0.75432 0.20964 0.06500
N 	N 	0.78572 0.43139 0.59718 -0.01800
N 	N 	0.72407 0.10322 0.98603 -0.02400
C 	C 	0.74831 0.23014 0.98788 -0.04700
O 	O 	0.81569 0.38919 0.60216 -0.06700
C 	C 	0.75907 0.34015 0.00262 0.14100
C 	C 	0.76645 0.44772 0.01059 0.15400
C 	C 	0.73015 0.42114 0.50743 0.15100
H 	H 	0.63592 0.19290 0.45604 0.08100
O 	O 	0.75573 0.08686 0.96991 -0.07700
N 	N 	0.66775 0.07965 0.47164 -0.02200
N 	N 	0.77275 0.60221 0.95056 -0.02200
Co	Co	0.97068 0.84073 0.60768 1.19000
C 	C 	0.74865 0.87806 0.13261 0.30900
C 	C 	0.70660 0.21153 0.47626 -0.05200
C 	C 	0.72861 0.85882 0.64701 0.32800
C 	C 	0.76666 0.28375 0.49499 -0.01300
C 	C 	0.73371 0.15818 0.48710 0.11500
C 	C 	0.78493 0.18466 0.99817 0.12200
C 	C 	0.82450 0.18087 0.51422 -0.07600
O 	O 	0.57896 0.02769 0.47351 -0.08500
N 	N 	0.81631 0.71810 0.45043 -0.02000
N 	N 	0.77299 0.39744 0.50201 -0.11700
O 	O 	0.77987 0.96091 0.11909 -0.35400
O 	O 	0.79609 0.85442 0.13293 -0.37000
C 	C 	0.86182 0.31249 0.51714 0.08300
C 	C 	0.89091 0.26249 0.52504 -0.01900
C 	C 	0.80585 0.30797 0.00172 -0.01200
O 	O 	0.80084 0.05222 0.57337 -0.37200
C 	C 	0.80723 0.59336 0.99765 0.09700
C 	C 	0.84194 0.11280 0.53985 0.30900
H 	H 	0.01692 0.33342 0.04143 0.05600
N 	N 	0.81144 0.42087 0.00995 -0.11700
O 	O 	0.78144 0.92497 0.66454 -0.38700
O 	O 	0.76672 0.84509 0.63270 -0.36900
H 	H 	0.83722 0.92427 0.34019 0.07400
C 	C 	0.80046 0.50660 0.56052 0.08000
C 	C 	0.82050 0.52668 0.02582 -0.01700
H 	H 	0.82073 0.70444 0.99352 0.07800
O 	O 	0.81120 0.60255 0.92929 -0.08300
O 	O 	0.99913 0.00738 0.97800 -0.37300
H 	H 	0.83868 0.58108 0.60030 0.06800
C 	C 	0.82798 0.65163 0.01567 -0.03300
O 	O 	0.76789 0.74378 0.44457 -0.08100
O 	O 	0.96749 0.46693 0.50585 -0.07000
C 	C 	0.78580 0.50568 0.51749 -0.00600
O 	O 	0.03633 0.02076 0.48396 -0.37600
N 	N 	0.92795 0.38999 0.53324 -0.01700
O 	O 	0.02265 0.51473 0.62539 -0.07600
O 	O 	0.97951 0.05110 0.69777 -0.40300
Co	Co	0.99840 0.08305 0.58039 1.18800
O 	O 	0.98578 0.18227 0.61402 -0.39700
O 	O 	0.99726 0.93160 0.21905 -0.35700
C 	C 	0.98043 0.97421 0.91400 0.00600
O 	O 	0.99587 0.88970 0.98977 -0.37100
C 	C 	0.99124 0.94625 0.28247 -0.04000
H 	H 	0.96367 0.28460 0.54210 0.08400
O 	O 	0.95621 0.38349 0.57576 -0.07500
C 	C 	0.82455 0.57957 0.56708 -0.01100
C 	C 	0.90498 0.34795 0.01857 0.07500
C 	C 	0.88001 0.21756 0.02210 -0.09400
C 	C 	0.85720 0.52137 0.07158 -0.04400
C 	C 	0.87965 0.58082 0.08941 0.11500
N 	N 	0.91841 0.57477 0.13624 -0.02300
H 	H 	0.86361 0.46808 0.09375 0.08700
O 	O 	0.88901 0.58375 0.15781 -0.08100
O 	O 	0.98285 0.55995 0.15736 -0.08000
Co	Co	0.94449 0.92155 0.15253 1.19400
Co	Co	0.91043 0.05036 0.15150 1.16600
C 	C 	0.94061 0.73456 0.07316 0.31900
O 	O 	0.92574 0.15608 0.09830 -0.40100
O 	O 	0.96708 0.02181 0.13075 -0.77000
C 	C 	0.90254 0.15548 0.05721 0.32300
O 	O 	0.95745 0.82875 0.16151 -0.44000
C 	C 	0.99325 0.95708 0.96265 0.30000
O 	O 	0.91821 0.11460 0.04779 -0.37500
C 	C 	0.95747 0.94109 0.23519 0.29700
O 	O 	0.88909 0.94968 0.20881 -0.39100
O 	O 	0.91651 0.76645 0.08429 -0.37300
Co	Co	0.91226 0.91121 0.64560 1.19300
Co	Co	0.88448 0.05133 0.63722 1.16900
C 	C 	0.88906 0.73743 0.54061 0.30300
O 	O 	0.93134 0.01007 0.61860 -0.76800
O 	O 	0.90726 0.80795 0.65247 -0.44000
O 	O 	0.96463 0.95494 0.58676 -0.55400
O 	O 	0.90777 0.12046 0.53256 -0.35500
O 	O 	0.95627 0.80714 0.51895 -0.36400
O 	O 	0.87364 0.74195 0.57204 -0.35800
C 	C 	0.95211 0.92303 0.85558 0.08200
C 	C 	0.93987 0.90495 0.89683 -0.04400
C 	C 	0.91577 0.85456 0.83949 -0.05800
C 	C 	0.92757 0.87280 0.79828 0.01500
H 	H 	0.90235 0.83762 0.91635 0.07300
H 	H 	0.87710 0.78701 0.85850 0.07800
H 	H 	0.89553 0.81895 0.78568 0.05300
C 	C 	0.96841 0.95686 0.34098 0.04100
C 	C 	0.93189 0.93372 0.30083 -0.01800
C 	C 	0.91057 0.94870 0.35789 -0.04900
C 	C 	0.94642 0.97021 0.39826 0.06400
H 	H 	0.85825 0.90844 0.28321 0.06400
H 	H 	0.89955 0.96004 0.41149 0.06000
C 	C 	0.83453 0.65190 0.53141 -0.07600
C 	C 	0.81587 0.64906 0.48819 0.11500
C 	C 	0.79616 0.57813 0.48196 -0.05200
H 	H 	0.78126 0.57632 0.44865 0.08600
C 	C 	0.94177 0.30446 0.02625 0.00500
N 	N 	0.96790 0.43014 0.02988 -0.01600
O 	O 	0.98973 0.43192 0.07049 -0.07800
O 	O 	0.00592 0.50322 0.99994 -0.06700
C 	C 	0.87066 0.65002 0.06095 -0.07300
