data_crystal

_cell_length_a 26.05090
_cell_length_b 26.32028
_cell_length_c 26.54620
_cell_angle_alpha 95.50019
_cell_angle_beta  95.49915
_cell_angle_gamma 125.83215

_symmetry_space_group_name_	'P 1'
_symmetry_space_group_name_H-M	'P 1'

loop_
_symmetry_equiv_pos_as_xyz
  x,y,z

loop_
_atom_site_label
_atom_site_type_symbol
_atom_site_fract_x
_atom_site_fract_y
_atom_site_fract_z
_atom_site_charge
C 	C 	0.96503 0.03006 0.98731 0.11100
N 	N 	0.92640 0.96533 0.97816 -0.13000
C 	C 	0.95267 0.93359 0.97860 0.11800
N 	N 	0.01761 0.96650 0.98846 -0.12500
C 	C 	0.05647 0.03126 0.99844 0.14700
N 	N 	0.03016 0.06314 0.99757 -0.13100
C 	C 	0.94812 0.00660 0.45503 0.11100
N 	N 	0.01193 0.04300 0.45315 -0.12900
C 	C 	0.04583 0.01939 0.46065 0.12200
N 	N 	0.01600 0.95934 0.47001 -0.12600
C 	C 	0.95264 0.92336 0.47343 0.11500
N 	N 	0.91859 0.94696 0.46568 -0.13400
Cu	Cu	0.64748 0.25866 0.00411 0.92000
Cu	Cu	0.64258 0.20482 0.88459 0.87800
Cu	Cu	0.65309 0.33341 0.92119 0.90700
Cu	Cu	0.64236 0.37558 0.02866 0.88900
C 	C 	0.67377 0.31959 0.10924 0.33100
O 	O 	0.55729 0.21465 0.01926 -0.34800
C 	C 	0.63383 0.27916 0.81523 0.31800
O 	O 	0.68598 0.35133 0.99314 -0.61600
O 	O 	0.61370 0.24292 0.92909 -0.62900
O 	O 	0.70608 0.23306 0.00256 -0.38500
O 	O 	0.64668 0.15596 0.93063 -0.42000
O 	O 	0.66918 0.36492 0.09775 -0.37300
O 	O 	0.69535 0.42225 0.91825 -0.35800
C 	C 	0.69545 0.46146 0.95323 0.29300
C 	C 	0.52352 0.23567 0.00761 0.27100
O 	O 	0.54980 0.28892 0.98991 -0.36200
O 	O 	0.65522 0.43934 0.98587 -0.37800
O 	O 	0.68643 0.28957 0.07575 -0.34700
C 	C 	0.69254 0.18322 0.97144 0.31700
O 	O 	0.62629 0.31493 0.84698 -0.35600
O 	O 	0.61376 0.22209 0.82315 -0.39300
H 	H 	0.73355 0.38236 0.00226 0.15300
H 	H 	0.56611 0.21682 0.92096 0.17600
Cu	Cu	0.74457 0.34366 0.43264 0.93100
Cu	Cu	0.72936 0.27693 0.53366 0.87200
Cu	Cu	0.64630 0.31362 0.50098 0.90000
Cu	Cu	0.62977 0.35134 0.40204 0.90100
C 	C 	0.69876 0.33493 0.32706 0.33200
O 	O 	0.78603 0.43829 0.43956 -0.34900
C 	C 	0.67817 0.31192 0.60943 0.32400
O 	O 	0.64485 0.29629 0.42857 -0.63900
O 	O 	0.73813 0.34693 0.50621 -0.64000
O 	O 	0.78719 0.30083 0.43115 -0.35900
O 	O 	0.71385 0.22423 0.47135 -0.43400
O 	O 	0.67722 0.36667 0.34388 -0.37300
O 	O 	0.55515 0.27474 0.49388 -0.36200
C 	C 	0.51866 0.27263 0.45429 0.29600
C 	C 	0.76103 0.46389 0.46182 0.28500
O 	O 	0.69995 0.42751 0.46574 -0.38800
O 	O 	0.54388 0.31227 0.42168 -0.38300
O 	O 	0.73451 0.32697 0.35903 -0.34300
C 	C 	0.75886 0.24421 0.44345 0.29700
O 	O 	0.65130 0.32747 0.57558 -0.35800
O 	O 	0.72500 0.30842 0.60011 -0.40100
H 	H 	0.61449 0.25072 0.41190 0.17700
H 	H 	0.76885 0.38918 0.52906 0.18400
C 	C 	0.60232 0.26037 0.67007 0.09700
C 	C 	0.66380 0.30978 0.66187 -0.11000
C 	C 	0.71277 0.35408 0.70427 0.10500
C 	C 	0.70275 0.34448 0.75472 0.09600
C 	C 	0.64249 0.29270 0.76284 -0.11100
C 	C 	0.59116 0.25306 0.72061 0.10600
Br	Br	0.50512 0.19106 0.73208 -0.19700
Br	Br	0.53415 0.20121 0.61209 -0.21600
Br	Br	0.77205 0.40101 0.81264 -0.24000
Br	Br	0.79225 0.42930 0.69318 -0.20900
C 	C 	0.74373 0.36511 0.19647 0.10400
C 	C 	0.68432 0.31666 0.16406 -0.10600
C 	C 	0.63336 0.26861 0.18508 0.09800
C 	C 	0.64033 0.27170 0.23876 0.10100
C 	C 	0.69742 0.32367 0.27145 -0.10900
C 	C 	0.74994 0.36933 0.25025 0.10500
Br	Br	0.82914 0.43935 0.29501 -0.19400
Br	Br	0.81636 0.42571 0.16707 -0.20600
Br	Br	0.57139 0.20538 0.26783 -0.23200
Br	Br	0.55337 0.19991 0.14059 -0.20700
C 	C 	0.81426 0.62859 0.51892 -0.07200
C 	C 	0.84812 0.66329 0.48202 0.01700
C 	C 	0.86132 0.63462 0.44290 -0.00400
C 	C 	0.83525 0.57003 0.43811 -0.00500
C 	C 	0.79763 0.53400 0.47301 -0.08600
C 	C 	0.79023 0.56458 0.51532 0.05300
C 	C 	0.86926 0.72949 0.48441 0.00200
S 	S 	0.91049 0.67910 0.39980 -0.01900
H 	H 	0.84268 0.54736 0.40633 0.06100
S 	S 	0.75489 0.52467 0.56560 -0.03000
H 	H 	0.80658 0.65141 0.55040 0.05600
C 	C 	0.83712 0.74366 0.44933 0.00900
C 	C 	0.86308 0.80732 0.44762 -0.03700
C 	C 	0.91990 0.85712 0.48165 -0.02300
C 	C 	0.94805 0.84256 0.52028 0.01700
C 	C 	0.92335 0.77897 0.52076 -0.05300
S 	S 	0.76442 0.68219 0.40756 -0.03800
H 	H 	0.84008 0.81812 0.41887 0.05000
S 	S 	0.01171 0.90297 0.56979 -0.00800
H 	H 	0.94653 0.76801 0.54918 0.05100
H 	H 	0.80121 0.53156 0.60127 0.05000
H 	H 	0.71376 0.66476 0.43181 0.04000
H 	H 	0.98693 0.91340 0.60936 0.03100
H 	H 	0.87301 0.67576 0.35779 0.04200
C 	C 	0.87848 0.08366 0.39510 -0.05800
C 	C 	0.85591 0.09668 0.43660 0.00300
C 	C 	0.85812 0.07449 0.48247 0.00800
C 	C 	0.88597 0.04264 0.48731 -0.03600
C 	C 	0.91151 0.03245 0.44673 -0.02700
C 	C 	0.90599 0.05148 0.39981 0.02900
C 	C 	0.83278 0.13605 0.43258 0.01800
S 	S 	0.82717 0.08728 0.53434 -0.04400
H 	H 	0.88933 0.02730 0.52317 0.04700
S 	S 	0.93173 0.03381 0.34634 -0.04700
H 	H 	0.87551 0.09945 0.35941 0.05300
C 	C 	0.87499 0.20266 0.45013 -0.00800
C 	C 	0.85091 0.23826 0.45074 -0.00300
C 	C 	0.78498 0.20811 0.43385 -0.09600
C 	C 	0.74362 0.14215 0.41297 0.05800
C 	C 	0.76765 0.10647 0.41280 -0.07400
S 	S 	0.95777 0.24173 0.47245 -0.03100
H 	H 	0.88307 0.28909 0.46609 0.03900
S 	S 	0.66237 0.10421 0.38541 -0.03000
H 	H 	0.73550 0.05552 0.39795 0.05500
H 	H 	0.88224 0.97479 0.31838 0.04400
H 	H 	0.96815 0.24153 0.52399 0.03400
H 	H 	0.62529 0.08149 0.42247 0.04000
H 	H 	0.87437 0.14513 0.56519 0.03400
C 	C 	0.22701 0.12799 0.50256 -0.05600
C 	C 	0.24670 0.12985 0.45502 0.00500
C 	C 	0.20017 0.09663 0.40917 0.00700
C 	C 	0.13457 0.06145 0.41142 -0.03200
C 	C 	0.11489 0.05893 0.45902 -0.02600
C 	C 	0.16143 0.09297 0.50479 0.03000
C 	C 	0.31617 0.16646 0.45370 0.02000
S 	S 	0.22350 0.09903 0.34883 -0.03300
H 	H 	0.09878 0.03563 0.37616 0.04900
S 	S 	0.13825 0.09272 0.56498 -0.02800
H 	H 	0.26279 0.15391 0.53781 0.05900
C 	C 	0.35324 0.23189 0.45148 -0.00600
C 	C 	0.41921 0.26594 0.45119 0.00300
C 	C 	0.44877 0.23535 0.45310 -0.08300
C 	C 	0.41137 0.16957 0.45448 0.06200
C 	C 	0.34548 0.13570 0.45517 -0.06900
S 	S 	0.31752 0.27157 0.44881 -0.02500
H 	H 	0.44772 0.31644 0.45003 0.04600
S 	S 	0.44575 0.12852 0.45311 -0.03300
H 	H 	0.31683 0.08522 0.45643 0.06000
H 	H 	0.13451 0.04588 0.58689 0.04200
H 	H 	0.29432 0.26584 0.39842 0.03700
H 	H 	0.44267 0.10724 0.40294 0.03900
H 	H 	0.23345 0.15063 0.33079 0.03800
C 	C 	0.83209 0.63356 0.95388 -0.06700
C 	C 	0.79893 0.66037 0.95045 0.01600
C 	C 	0.73119 0.62084 0.94404 -0.00200
C 	C 	0.69761 0.55544 0.94334 0.00200
C 	C 	0.73101 0.52899 0.94899 -0.08300
C 	C 	0.79866 0.56828 0.95367 0.06000
C 	C 	0.83590 0.73033 0.95768 0.02300
S 	S 	0.68813 0.65297 0.93819 -0.02300
H 	H 	0.64555 0.52523 0.93914 0.04900
S 	S 	0.84239 0.53709 0.96210 -0.03900
H 	H 	0.88421 0.66397 0.95855 0.06000
C 	C 	0.85813 0.76767 0.00749 -0.00900
C 	C 	0.89567 0.83413 0.01378 -0.05400
C 	C 	0.91096 0.86379 0.97083 -0.00700
C 	C 	0.88783 0.82648 0.92095 0.02700
C 	C 	0.85061 0.75997 0.91465 -0.05900
S 	S 	0.83940 0.73169 0.06218 -0.04500
H 	H 	0.91337 0.86287 0.05214 0.04900
S 	S 	0.90534 0.86249 0.86625 -0.03200
H 	H 	0.83328 0.73125 0.87632 0.05600
H 	H 	0.84932 0.51813 0.91497 0.06000
H 	H 	0.88471 0.72295 0.07873 0.03800
H 	H 	0.85793 0.86816 0.84907 0.03900
H 	H 	0.68432 0.67300 0.98633 0.04400
C 	C 	0.75370 0.08419 0.98311 -0.07200
C 	C 	0.81962 0.12993 0.98384 0.01700
C 	C 	0.84397 0.19359 0.98237 -0.00700
C 	C 	0.80216 0.21067 0.97957 0.00300
C 	C 	0.73596 0.16469 0.97774 -0.10100
C 	C 	0.71182 0.10124 0.98033 0.06000
C 	C 	0.86250 0.11034 0.98507 0.02200
S 	S 	0.92663 0.25225 0.98396 -0.01200
H 	H 	0.82094 0.25957 0.97788 0.03800
S 	S 	0.62992 0.04332 0.98199 -0.02300
H 	H 	0.73506 0.03533 0.98479 0.05700
C 	C 	0.89341 0.11164 0.03231 -0.00900
C 	C 	0.93023 0.08872 0.03255 -0.05500
C 	C 	0.93613 0.06405 0.98610 -0.00700
C 	C 	0.90744 0.06524 0.93888 0.02700
C 	C 	0.87073 0.08823 0.93861 -0.06100
S 	S 	0.88538 0.14071 0.09126 -0.03800
H 	H 	0.95255 0.08815 0.06892 0.04600
S 	S 	0.91695 0.03781 0.87990 -0.04600
H 	H 	0.84781 0.08815 0.90225 0.05100
H 	H 	0.59613 0.01353 0.93268 0.04100
H 	H 	0.83135 0.09204 0.10633 0.03700
H 	H 	0.86833 0.97390 0.86435 0.04400
H 	H 	0.95808 0.27830 0.03419 0.02800
C 	C 	0.34269 0.11320 0.98675 -0.05100
C 	C 	0.32665 0.14566 0.01864 0.00100
C 	C 	0.37594 0.20416 0.05120 -0.00300
C 	C 	0.44049 0.23117 0.04954 0.00300
C 	C 	0.45655 0.20061 0.01546 -0.09800
C 	C 	0.40733 0.14048 0.98479 0.07400
C 	C 	0.25827 0.11991 0.01543 -0.00700
S 	S 	0.35737 0.24514 0.09277 -0.03100
H 	H 	0.47832 0.27703 0.07365 0.03500
S 	S 	0.42575 0.10017 0.94227 -0.03200
H 	H 	0.30478 0.06772 0.96223 0.05700
C 	C 	0.22794 0.13304 0.97756 0.01600
C 	C 	0.16252 0.10625 0.97391 -0.00400
C 	C 	0.12697 0.06660 0.00784 -0.07000
C 	C 	0.15822 0.05620 0.04740 0.03900
C 	C 	0.22339 0.08220 0.05054 -0.06200
S 	S 	0.27127 0.18257 0.93436 -0.02400
H 	H 	0.13882 0.11484 0.94376 0.04600
S 	S 	0.11701 0.01289 0.09437 -0.04200
H 	H 	0.24709 0.07337 0.08046 0.05600
H 	H 	0.42914 0.11961 0.89584 0.03800
H 	H 	0.26961 0.14647 0.89254 0.04100
H 	H 	0.12238 0.05368 0.13437 0.04000
H 	H 	0.34919 0.28315 0.06677 0.03500
