data_crystal

_cell_length_a 27.66191
_cell_length_b 28.90669
_cell_length_c 39.16887
_cell_angle_alpha 60.87802
_cell_angle_beta  118.82181
_cell_angle_gamma 133.25512

_symmetry_space_group_name_	'P 1'
_symmetry_space_group_name_H-M	'P 1'

loop_
_symmetry_equiv_pos_as_xyz
  x,y,z

loop_
_atom_site_label
_atom_site_type_symbol
_atom_site_fract_x
_atom_site_fract_y
_atom_site_fract_z
_atom_site_charge
C 	C 	0.76986 0.33992 0.02565 0.05000
C 	C 	0.70536 0.29429 0.03470 -0.09500
C 	C 	0.68281 0.31290 0.04773 0.05100
C 	C 	0.72524 0.37668 0.05213 -0.09300
C 	C 	0.78473 0.42454 0.03773 0.05200
C 	C 	0.80865 0.40584 0.02584 -0.09500
H 	H 	0.67316 0.24463 0.03181 0.05500
H 	H 	0.70823 0.39077 0.06276 0.05600
H 	H 	0.85635 0.44217 0.01637 0.05300
C 	C 	0.69120 0.26868 0.53906 0.05200
C 	C 	0.62153 0.22216 0.53907 -0.09500
C 	C 	0.58908 0.23561 0.54758 0.05400
C 	C 	0.62581 0.29583 0.55543 -0.09400
C 	C 	0.69599 0.34110 0.55755 0.05400
C 	C 	0.72889 0.32757 0.54937 -0.09600
H 	H 	0.59303 0.17532 0.53311 0.05700
H 	H 	0.60054 0.30596 0.56216 0.05700
H 	H 	0.78336 0.36234 0.55124 0.05300
C 	C 	0.30491 0.66616 0.21279 0.05300
C 	C 	0.25993 0.60464 0.20413 -0.09400
C 	C 	0.28522 0.58073 0.19866 0.05400
C 	C 	0.35572 0.61558 0.20548 -0.09300
C 	C 	0.39974 0.68010 0.20909 0.05300
C 	C 	0.37433 0.70522 0.21329 -0.09500
H 	H 	0.20546 0.57689 0.20010 0.05800
H 	H 	0.37530 0.59584 0.20258 0.05800
H 	H 	0.40794 0.75513 0.21609 0.05700
C 	C 	0.24712 0.62211 0.71031 0.05300
C 	C 	0.31874 0.66432 0.71857 -0.09400
C 	C 	0.35517 0.64893 0.71626 0.05400
C 	C 	0.32007 0.59072 0.70633 -0.09300
C 	C 	0.24862 0.54918 0.69681 0.05300
C 	C 	0.21189 0.56523 0.69835 -0.09400
H 	H 	0.34595 0.70948 0.72620 0.05700
H 	H 	0.34836 0.57915 0.70426 0.05700
H 	H 	0.15655 0.53367 0.69052 0.05800
Co	Co	0.07904 0.02368 0.07380 1.18600
Co	Co	0.04238 0.09111 0.09684 1.19100
C 	C 	0.20671 0.05134 0.07494 0.31000
Co	Co	0.08990 0.90818 0.09092 1.16900
Co	Co	0.98362 0.09355 0.15010 1.16100
C 	C 	0.95063 0.79787 0.10436 0.28400
O 	O 	0.98600 0.15580 0.09321 -0.42800
C 	C 	0.95300 0.13337 0.06111 0.31500
O 	O 	0.07749 0.10118 0.05675 -0.46100
C 	C 	0.85388 0.96147 0.14338 0.30800
C 	C 	0.12421 0.20018 0.13918 0.30500
C 	C 	0.12890 0.88045 0.17973 0.30300
O 	O 	0.96078 0.09543 0.05807 -0.41400
O 	O 	0.88114 0.02456 0.13085 -0.40300
O 	O 	0.87780 0.93867 0.13835 -0.40200
O 	O 	0.08831 0.15742 0.16680 -0.36600
O 	O 	0.12039 0.18147 0.11232 -0.37700
O 	O 	0.15349 0.91716 0.14730 -0.39800
O 	O 	0.07753 0.87260 0.18285 -0.37300
O 	O 	0.06581 0.95198 0.10354 -0.75900
O 	O 	0.16579 0.99703 0.06322 -0.40800
O 	O 	0.18200 0.07247 0.08075 -0.39300
O 	O 	0.94057 0.83519 0.10591 -0.40500
Co	Co	0.01009 0.97588 0.57038 1.19800
Co	Co	0.99015 0.04843 0.60183 1.17200
C 	C 	0.12031 0.96967 0.58111 0.31500
Co	Co	0.97761 0.84811 0.56506 1.15700
Co	Co	0.93065 0.04478 0.65920 1.16000
C 	C 	0.86451 0.73579 0.60547 0.30500
O 	O 	0.92583 0.10738 0.60313 -0.41900
C 	C 	0.89878 0.09049 0.56936 0.31300
O 	O 	0.03687 0.06303 0.56680 -0.45600
C 	C 	0.80677 0.90716 0.66440 0.30700
C 	C 	0.07134 0.15126 0.64682 0.30800
C 	C 	0.05149 0.83194 0.65372 0.30600
O 	O 	0.92534 0.07501 0.55997 -0.40200
O 	O 	0.83001 0.96833 0.64398 -0.39800
O 	O 	0.83797 0.88144 0.67270 -0.38600
O 	O 	0.03434 0.11675 0.67320 -0.36400
O 	O 	0.07543 0.12195 0.63181 -0.38300
O 	O 	0.01464 0.80643 0.62224 -0.40200
O 	O 	0.04360 0.86828 0.65872 -0.39600
O 	O 	0.07463 0.93049 0.55656 -0.40200
O 	O 	0.10312 0.99008 0.59423 -0.40600
O 	O 	0.87325 0.76407 0.62823 -0.39000
C 	C 	0.06430 0.03111 0.79481 0.12800
C 	C 	0.06899 0.03157 0.83195 -0.08000
H 	H 	0.10711 0.07668 0.84181 0.08000
H 	H 	0.93172 0.87071 0.79575 0.06500
C 	C 	0.08635 0.98468 0.96424 -0.02600
C 	C 	0.08431 0.98431 0.92795 0.08300
H 	H 	0.12846 0.98896 0.98974 0.05800
Br	Br	0.92212 0.83351 0.87869 -0.24900
Br	Br	0.13003 0.10881 0.76430 -0.23700
Br	Br	0.15630 0.99095 0.92502 -0.23000
C 	C 	0.07072 0.05829 0.29063 0.14600
C 	C 	0.06560 0.05244 0.32663 -0.08800
H 	H 	0.09596 0.09588 0.33711 0.08400
H 	H 	0.95490 0.89754 0.28775 0.05500
C 	C 	0.05150 0.99217 0.45424 0.02000
C 	C 	0.06221 0.99732 0.42063 0.07100
H 	H 	0.91108 0.96634 0.35485 0.08500
H 	H 	0.09081 0.99936 0.48191 0.05700
Br	Br	0.92735 0.84872 0.36732 -0.24100
Br	Br	0.13579 0.14269 0.26262 -0.24800
Br	Br	0.85329 0.94297 0.41341 -0.23900
Br	Br	0.14559 0.01493 0.42528 -0.23000
C 	C 	0.21306 0.49244 0.68144 -0.03700
C 	C 	0.18507 0.42827 0.70687 0.08900
C 	C 	0.16951 0.37913 0.69573 -0.07900
C 	C 	0.18491 0.39372 0.66091 -0.01100
C 	C 	0.21156 0.45753 0.63511 0.07500
C 	C 	0.22132 0.50493 0.64451 -0.06500
N 	N 	0.17391 0.41370 0.74218 -0.19800
H 	H 	0.14707 0.32974 0.71481 0.05900
C 	C 	0.16984 0.34078 0.65092 0.00600
N 	N 	0.23073 0.47449 0.60239 -0.19500
H 	H 	0.24172 0.55379 0.62476 0.04900
C 	C 	0.11812 0.31763 0.61717 -0.09700
C 	C 	0.09572 0.26137 0.61056 0.12700
C 	C 	0.11861 0.22304 0.64068 -0.10800
C 	C 	0.17557 0.24986 0.67186 -0.01500
C 	C 	0.20247 0.30938 0.67681 0.06300
H 	H 	0.09524 0.34330 0.59610 0.06100
N 	N 	0.05231 0.24428 0.57537 -0.20200
H 	H 	0.19687 0.22295 0.69341 0.06100
N 	N 	0.25931 0.33604 0.70619 -0.19100
H 	H 	0.03282 0.27091 0.55388 0.09700
H 	H 	0.04102 0.20697 0.56815 0.09600
H 	H 	0.28137 0.31124 0.72622 0.09200
H 	H 	0.28375 0.38272 0.70833 0.08900
H 	H 	0.24776 0.52085 0.58267 0.08400
H 	H 	0.23216 0.44330 0.59722 0.08800
H 	H 	0.18382 0.44860 0.75112 0.08800
H 	H 	0.15430 0.36650 0.76103 0.08800
C 	C 	0.42960 0.69706 0.71975 -0.03700
C 	C 	0.47443 0.67999 0.74853 0.08800
C 	C 	0.53972 0.71620 0.74303 -0.08000
C 	C 	0.56213 0.77136 0.71074 -0.01300
C 	C 	0.52060 0.79343 0.68519 0.07600
C 	C 	0.45422 0.75550 0.68965 -0.06600
N 	N 	0.45502 0.62905 0.78135 -0.19800
H 	H 	0.57280 0.70098 0.76358 0.05500
C 	C 	0.62606 0.80197 0.70177 0.00700
N 	N 	0.54390 0.85050 0.65620 -0.19500
H 	H 	0.42058 0.76985 0.66846 0.04800
C 	C 	0.62219 0.78601 0.67154 -0.10000
C 	C 	0.68106 0.81842 0.65952 0.13100
C 	C 	0.74502 0.86667 0.67883 -0.11300
C 	C 	0.74926 0.88023 0.71040 -0.02200
C 	C 	0.69031 0.84875 0.72191 0.05800
H 	H 	0.57290 0.74944 0.65660 0.05800
N 	N 	0.67559 0.80370 0.62913 -0.20500
H 	H 	0.79854 0.91673 0.72540 0.04000
N 	N 	0.69566 0.86447 0.75175 -0.19200
H 	H 	0.62800 0.76820 0.61495 0.08600
H 	H 	0.71822 0.82708 0.61926 0.09500
H 	H 	0.74341 0.89911 0.76640 0.08800
H 	H 	0.65279 0.84276 0.76069 0.09000
H 	H 	0.51212 0.86538 0.63666 0.08300
H 	H 	0.59421 0.88158 0.65354 0.08800
H 	H 	0.40897 0.60469 0.78782 0.08700
H 	H 	0.48734 0.61508 0.80170 0.08500
C 	C 	0.20925 0.63934 0.71262 -0.03600
C 	C 	0.21930 0.64687 0.74915 0.08700
C 	C 	0.19835 0.67997 0.74854 -0.08000
C 	C 	0.16295 0.70112 0.71264 -0.01300
C 	C 	0.14715 0.68800 0.67674 0.07800
C 	C 	0.17130 0.65796 0.67703 -0.06600
N 	N 	0.24815 0.62172 0.78484 -0.19800
H 	H 	0.20877 0.68845 0.77618 0.05300
C 	C 	0.14440 0.73870 0.71264 0.00600
N 	N 	0.10942 0.70450 0.64193 -0.19600
H 	H 	0.16242 0.65104 0.64919 0.05000
C 	C 	0.18597 0.80737 0.69983 -0.09900
C 	C 	0.16048 0.84271 0.68840 0.12800
C 	C 	0.09155 0.80836 0.68710 -0.11300
C 	C 	0.05609 0.74235 0.70810 -0.01700
C 	C 	0.08110 0.70641 0.72002 0.05800
H 	H 	0.23670 0.83291 0.69706 0.05700
N 	N 	0.20212 0.90918 0.67887 -0.20600
H 	H 	0.00612 0.71750 0.71170 0.04800
N 	N 	0.04346 0.64108 0.73731 -0.17700
H 	H 	0.25273 0.93469 0.67873 0.08800
H 	H 	0.18507 0.93589 0.67293 0.10200
H 	H 	0.99569 0.61729 0.74131 0.06300
H 	H 	0.06156 0.61353 0.74748 0.09000
H 	H 	0.09906 0.69566 0.61548 0.08800
H 	H 	0.08890 0.72502 0.64085 0.09100
H 	H 	0.25829 0.59169 0.78668 0.08700
H 	H 	0.25792 0.62966 0.81150 0.08500
C 	C 	0.23872 0.52652 0.17877 -0.03700
C 	C 	0.24206 0.53850 0.14011 0.08900
C 	C 	0.22066 0.48732 0.12819 -0.08000
C 	C 	0.19011 0.42340 0.15264 -0.01300
C 	C 	0.17599 0.40975 0.18803 0.07900
C 	C 	0.20220 0.46186 0.20140 -0.06600
N 	N 	0.26709 0.59930 0.11480 -0.19800
H 	H 	0.22902 0.49743 0.10025 0.05300
C 	C 	0.18210 0.37356 0.14411 0.00600
N 	N 	0.13777 0.34702 0.20924 -0.19500
H 	H 	0.19676 0.45232 0.23021 0.05000
C 	C 	0.22361 0.35220 0.17032 -0.09800
C 	C 	0.21246 0.30013 0.16569 0.13800
C 	C 	0.15981 0.26996 0.13403 -0.11100
C 	C 	0.12734 0.29928 0.10391 -0.02500
C 	C 	0.13420 0.34774 0.10996 0.06000
H 	H 	0.26301 0.37461 0.19513 0.06200
N 	N 	0.25178 0.27874 0.19193 -0.20100
H 	H 	0.09077 0.27929 0.07789 0.05500
N 	N 	0.09242 0.36655 0.08419 -0.19200
H 	H 	0.28915 0.29960 0.21621 0.09600
H 	H 	0.24682 0.24250 0.18774 0.10300
H 	H 	0.05810 0.34787 0.05878 0.09100
H 	H 	0.09145 0.39762 0.08985 0.09100
H 	H 	0.12985 0.33740 0.23617 0.09100
H 	H 	0.11327 0.30730 0.19836 0.09600
H 	H 	0.27859 0.63700 0.12171 0.08800
H 	H 	0.27260 0.60867 0.08708 0.08400
C 	C 	0.78559 0.91569 0.15187 -0.11100
C 	C 	0.76987 0.86178 0.18612 0.12800
C 	C 	0.70618 0.82288 0.19482 -0.09800
C 	C 	0.66114 0.84060 0.17257 0.00700
C 	C 	0.67919 0.89726 0.14028 0.05700
C 	C 	0.73888 0.93144 0.12863 -0.01900
N 	N 	0.81630 0.84863 0.21157 -0.20100
H 	H 	0.69254 0.77978 0.21979 0.06000
C 	C 	0.59404 0.79799 0.18234 -0.01300
N 	N 	0.64023 0.91976 0.12093 -0.19100
H 	H 	0.75087 0.97281 0.10259 0.04500
C 	C 	0.59175 0.79327 0.21902 -0.07900
C 	C 	0.52891 0.75459 0.22876 0.08900
C 	C 	0.46740 0.72446 0.19980 -0.03600
C 	C 	0.47012 0.73157 0.16251 -0.06800
C 	C 	0.53247 0.76405 0.15470 0.07700
H 	H 	0.63900 0.81876 0.24036 0.05600
N 	N 	0.52815 0.74548 0.26606 -0.19800
H 	H 	0.42306 0.70851 0.14035 0.04800
N 	N 	0.53286 0.76149 0.12105 -0.19500
H 	H 	0.57385 0.76943 0.28674 0.08900
H 	H 	0.48272 0.71306 0.27544 0.08800
H 	H 	0.48731 0.73885 0.09991 0.08400
H 	H 	0.57762 0.77891 0.11649 0.09000
H 	H 	0.65228 0.95987 0.09597 0.08100
H 	H 	0.59983 0.89992 0.13157 0.08800
H 	H 	0.86673 0.88068 0.20904 0.08200
H 	H 	0.80308 0.80736 0.23581 0.09100
C 	C 	0.15366 0.84111 0.21093 -0.11200
C 	C 	0.22462 0.87122 0.22474 0.13100
C 	C 	0.24915 0.83579 0.23463 -0.10000
C 	C 	0.20340 0.77054 0.23192 0.00500
C 	C 	0.13288 0.73707 0.22659 0.06000
C 	C 	0.10852 0.77286 0.21636 -0.02400
N 	N 	0.26924 0.93477 0.22682 -0.20300
H 	H 	0.30362 0.86029 0.24158 0.05800
C 	C 	0.22785 0.74249 0.22677 -0.01200
N 	N 	0.08835 0.67146 0.22966 -0.19100
H 	H 	0.05397 0.74872 0.20845 0.05200
C 	C 	0.25768 0.71347 0.26089 -0.08000
C 	C 	0.28281 0.68774 0.25706 0.08800
C 	C 	0.27835 0.69179 0.21822 -0.03700
C 	C 	0.24834 0.72061 0.18413 -0.06600
C 	C 	0.22342 0.74649 0.18792 0.07800
H 	H 	0.26121 0.71072 0.29054 0.05300
N 	N 	0.31074 0.65906 0.29068 -0.19800
H 	H 	0.24494 0.72348 0.15448 0.04900
N 	N 	0.19595 0.77555 0.15422 -0.19500
H 	H 	0.31422 0.65675 0.31918 0.08500
H 	H 	0.32873 0.63836 0.28897 0.08800
H 	H 	0.19206 0.77734 0.12576 0.08500
H 	H 	0.17899 0.79733 0.15575 0.08600
H 	H 	0.03597 0.64750 0.22399 0.09000
H 	H 	0.10552 0.64340 0.23892 0.09000
H 	H 	0.25186 0.96104 0.22121 0.09500
H 	H 	0.32186 0.95785 0.23537 0.08700
C 	C 	0.72554 0.25349 0.53102 -0.03800
C 	C 	0.70801 0.24560 0.49280 0.08600
C 	C 	0.72994 0.21736 0.48848 -0.08200
C 	C 	0.77102 0.19931 0.52123 -0.01400
C 	C 	0.79416 0.21339 0.55833 0.07400
C 	C 	0.77020 0.23936 0.56302 -0.06800
N 	N 	0.67082 0.26555 0.46022 -0.19800
H 	H 	0.71422 0.20859 0.45973 0.05100
C 	C 	0.78631 0.16229 0.51723 0.00500
N 	N 	0.83914 0.20199 0.58950 -0.19600
H 	H 	0.78499 0.24702 0.59198 0.04500
C 	C 	0.84319 0.19681 0.50252 -0.10200
C 	C 	0.87393 0.16725 0.51197 0.12800
C 	C 	0.84968 0.10434 0.53842 -0.11700
C 	C 	0.78484 0.06563 0.54535 -0.02500
C 	C 	0.75282 0.09432 0.53510 0.05800
H 	H 	0.86594 0.24767 0.48595 0.05300
N 	N 	0.92711 0.19963 0.49628 -0.20700
H 	H 	0.76298 0.01520 0.56270 0.04200
N 	N 	0.69158 0.05721 0.54381 -0.19200
H 	H 	0.66850 0.00761 0.55860 0.08200
H 	H 	0.66535 0.07675 0.53482 0.08600
H 	H 	0.85419 0.21056 0.61714 0.07700
H 	H 	0.86129 0.18661 0.58630 0.08600
H 	H 	0.65854 0.29144 0.46174 0.08500
H 	H 	0.65602 0.25745 0.43245 0.08200
C 	C 	0.83538 0.66575 0.61876 -0.11800
C 	C 	0.76629 0.61967 0.60257 0.13500
C 	C 	0.74649 0.56211 0.59930 -0.10200
C 	C 	0.79486 0.55039 0.61189 0.00600
C 	C 	0.86221 0.59295 0.63230 0.05400
C 	C 	0.88071 0.64874 0.63706 -0.02800
N 	N 	0.71918 0.63103 0.58949 -0.20500
H 	H 	0.69413 0.52796 0.58524 0.05900
C 	C 	0.77659 0.49833 0.59939 -0.01300
N 	N 	0.90992 0.58204 0.64597 -0.19300
C 	C 	0.77470 0.51016 0.55968 -0.08000
C 	C 	0.75367 0.46084 0.54590 0.08700
C 	C 	0.73565 0.39899 0.57274 -0.03900
C 	C 	0.74290 0.38908 0.61326 -0.06700
C 	C 	0.76076 0.43723 0.62658 0.07200
H 	H 	0.78830 0.55754 0.53919 0.05400
N 	N 	0.74995 0.47289 0.50683 -0.19800
H 	H 	0.72999 0.34194 0.63389 0.04600
N 	N 	0.76183 0.42424 0.66523 -0.19600
H 	H 	0.76211 0.51832 0.48708 0.08600
H 	H 	0.73599 0.43791 0.49579 0.08600
H 	H 	0.75063 0.37916 0.68514 0.08000
H 	H 	0.77309 0.45824 0.67584 0.08600
H 	H 	0.89799 0.54096 0.64311 0.08300
H 	H 	0.73201 0.67174 0.59355 0.10000
H 	H 	0.66854 0.59791 0.57626 0.08800
C 	C 	0.19330 0.00109 0.58717 -0.12600
C 	C 	0.21349 0.96895 0.58496 0.14700
C 	C 	0.27844 0.00550 0.57906 -0.11400
C 	C 	0.32569 0.07192 0.57900 0.01400
C 	C 	0.30843 0.10244 0.58578 0.05400
C 	C 	0.24199 0.06684 0.58936 -0.01500
N 	N 	0.17180 0.90290 0.58995 -0.20500
H 	H 	0.29281 0.98180 0.57529 0.06800
C 	C 	0.39223 0.10944 0.57046 -0.01300
N 	N 	0.35512 0.16575 0.58869 -0.19000
H 	H 	0.22761 0.09112 0.59241 0.04600
C 	C 	0.40057 0.14582 0.53113 -0.07900
C 	C 	0.46338 0.18299 0.52201 0.09100
C 	C 	0.51878 0.18410 0.55297 -0.03900
C 	C 	0.50892 0.14395 0.59159 -0.06500
C 	C 	0.44643 0.10731 0.60089 0.07400
H 	H 	0.35818 0.14557 0.50763 0.06200
N 	N 	0.47024 0.21747 0.48359 -0.19800
H 	H 	0.55134 0.14424 0.61508 0.04600
N 	N 	0.43936 0.07158 0.63919 -0.19500
H 	H 	0.42965 0.21793 0.46108 0.09000
H 	H 	0.51509 0.24251 0.47546 0.08800
H 	H 	0.47961 0.07008 0.66134 0.08100
H 	H 	0.39440 0.04557 0.64752 0.08400
H 	H 	0.34147 0.18826 0.59286 0.08500
H 	H 	0.40564 0.19276 0.58776 0.08800
H 	H 	0.12826 0.87298 0.60074 0.09100
H 	H 	0.18562 0.88027 0.58607 0.09000
C 	C 	0.79821 0.31765 0.01829 -0.03900
C 	C 	0.77351 0.30143 0.98173 0.08600
C 	C 	0.79254 0.26958 0.97849 -0.08100
C 	C 	0.83616 0.25433 0.01091 -0.01500
C 	C 	0.86420 0.27427 0.04658 0.07200
C 	C 	0.84477 0.30567 0.04986 -0.06700
N 	N 	0.73211 0.31667 0.94964 -0.19800
H 	H 	0.77260 0.25585 0.95085 0.05000
C 	C 	0.85143 0.21653 0.00755 0.00400
N 	N 	0.90935 0.26315 0.07782 -0.19600
H 	H 	0.86445 0.31908 0.07758 0.04400
C 	C 	0.91122 0.25042 0.99603 -0.10200
C 	C 	0.93985 0.21855 0.00601 0.12600
C 	C 	0.90895 0.15272 0.02863 -0.12100
C 	C 	0.84206 0.11594 0.03182 -0.02100
C 	C 	0.81343 0.14757 0.02241 0.05600
H 	H 	0.93818 0.30254 0.98213 0.04900
H 	H 	0.81567 0.06400 0.04620 0.04400
N 	N 	0.75086 0.11198 0.02891 -0.19100
H 	H 	0.72413 0.06139 0.04114 0.07900
H 	H 	0.72738 0.13381 0.02086 0.08500
H 	H 	0.92970 0.27809 0.10395 0.07500
H 	H 	0.92526 0.24029 0.07646 0.08300
H 	H 	0.72042 0.34374 0.95026 0.08600
H 	H 	0.71264 0.30302 0.92313 0.08300
C 	C 	0.81654 0.49449 0.03080 -0.03900
C 	C 	0.77721 0.51907 0.00557 0.08900
C 	C 	0.79242 0.57139 0.01272 -0.08300
C 	C 	0.85073 0.60417 0.04156 -0.01000
C 	C 	0.89681 0.58698 0.06151 0.07200
C 	C 	0.87829 0.53098 0.05678 -0.06500
N 	N 	0.72368 0.49124 0.97530 -0.19700
H 	H 	0.75835 0.58597 0.99626 0.05600
C 	C 	0.85844 0.64997 0.05448 0.00100
N 	N 	0.95841 0.62373 0.08524 -0.19500
H 	H 	0.91027 0.51404 0.07482 0.04300
C 	C 	0.85258 0.63217 0.09338 -0.09600
C 	C 	0.87118 0.67840 0.10901 0.12200
C 	C 	0.89503 0.74277 0.08515 -0.10500
C 	C 	0.88598 0.75542 0.04391 -0.03100
C 	C 	0.87307 0.71170 0.02884 0.06400
H 	H 	0.83684 0.58341 0.11216 0.05500
N 	N 	0.86855 0.66157 0.14738 -0.20400
H 	H 	0.89716 0.80262 0.02452 0.06100
N 	N 	0.87823 0.73060 0.99072 -0.19300
H 	H 	0.85347 0.61465 0.16560 0.08100
H 	H 	0.87963 0.69448 0.15898 0.08900
H 	H 	0.88799 0.77581 0.97200 0.10600
H 	H 	0.87518 0.70205 0.97974 0.09900
H 	H 	0.99095 0.60932 0.10117 0.07600
H 	H 	0.97578 0.66829 0.08672 0.08200
H 	H 	0.71411 0.45518 0.96773 0.08700
H 	H 	0.69270 0.50740 0.95796 0.08500
C 	C 	0.61085 0.27016 0.04998 -0.03500
C 	C 	0.58545 0.21279 0.08144 0.08500
C 	C 	0.51935 0.17841 0.08513 -0.07900
C 	C 	0.48042 0.20283 0.05993 -0.01400
C 	C 	0.50758 0.26215 0.03006 0.07700
C 	C 	0.57022 0.29247 0.02359 -0.07000
N 	N 	0.62439 0.19116 0.10854 -0.19800
H 	H 	0.49857 0.13308 0.10811 0.05100
C 	C 	0.40996 0.16414 0.06371 0.00500
N 	N 	0.47452 0.29086 0.00817 -0.19600
H 	H 	0.58973 0.33644 0.99958 0.04900
C 	C 	0.40017 0.15700 0.09844 -0.10000
C 	C 	0.33409 0.12155 0.10266 0.12800
C 	C 	0.27736 0.09711 0.07018 -0.11200
C 	C 	0.28796 0.10777 0.03464 -0.02100
C 	C 	0.35284 0.13665 0.03224 0.06100
H 	H 	0.44398 0.17793 0.12258 0.05600
N 	N 	0.32557 0.10990 0.13816 -0.20500
H 	H 	0.24467 0.08957 0.00966 0.04900
N 	N 	0.35974 0.13644 0.00019 -0.19300
H 	H 	0.36790 0.12866 0.16173 0.08400
H 	H 	0.27721 0.08111 0.14313 0.09600
H 	H 	0.31775 0.11867 0.97626 0.09900
H 	H 	0.40570 0.15063 0.99960 0.09300
H 	H 	0.49341 0.33305 0.98495 0.08500
H 	H 	0.43189 0.27366 0.01520 0.09100
H 	H 	0.67490 0.21725 0.10809 0.08500
H 	H 	0.60462 0.14819 0.13117 0.08200
O 	O 	0.05264 0.00809 0.12686 -0.57600
O 	O 	0.02384 0.99336 0.01971 -0.36200
O 	O 	0.97458 0.03362 0.20788 -0.42700
O 	O 	0.01987 0.98344 0.21826 -0.37300
O 	O 	0.98301 0.98563 0.50814 -0.38100
O 	O 	0.93711 0.98826 0.71789 -0.39500
O 	O 	0.00281 0.96722 0.71766 -0.34700
O 	O 	0.87908 0.76871 0.57014 -0.38600
C 	C 	0.01191 0.97400 0.78037 -0.03300
C 	C 	0.02483 0.97403 0.85641 0.04000
C 	C 	0.02849 0.97599 0.89495 0.04200
C 	C 	0.03216 0.97470 0.96876 -0.07100
H 	H 	0.93312 0.96395 0.87320 0.07900
Br	Br	0.90006 0.95104 0.94044 -0.24800
C 	C 	0.02805 0.00282 0.27521 -0.08500
C 	C 	0.02076 0.99097 0.34882 0.04500
C 	C 	0.01079 0.98651 0.38473 0.05400
C 	C 	0.98863 0.97317 0.45322 -0.13900
Co	Co	0.01882 0.90632 0.13778 1.19600
C 	C 	0.02805 0.95824 0.00993 0.30400
O 	O 	0.02246 0.90479 0.03541 -0.38000
O 	O 	0.01273 0.81471 0.11536 -0.38600
H 	H 	0.94669 0.24721 0.47800 0.07700
C 	C 	0.93844 0.96525 0.41683 0.16600
N 	N 	0.99921 0.25234 0.99617 -0.23400
O 	O 	0.96687 0.89431 0.58623 -0.77300
H 	H 	0.02393 0.30195 0.98118 0.10600
H 	H 	0.02028 0.22903 0.00247 0.11400
C 	C 	0.97042 0.94667 0.49166 0.32400
O 	O 	0.96711 0.88904 0.17064 -0.48300
C 	C 	0.97784 0.91497 0.84415 0.07000
C 	C 	0.97128 0.91532 0.80616 -0.05500
Co	Co	0.97946 0.97242 0.15948 1.17400
C 	C 	0.01151 0.01146 0.23149 0.34200
Co	Co	0.93537 0.93144 0.66639 1.18300
O 	O 	0.93922 0.85650 0.68059 -0.47700
O 	O 	0.93756 0.88349 0.50761 -0.37900
C 	C 	0.98565 0.97991 0.73658 0.25900
C 	C 	0.98358 0.93450 0.33571 0.06100
C 	C 	0.98710 0.94069 0.29894 -0.03000
O 	O 	0.00945 0.05105 0.13744 -0.74400
Co	Co	0.95378 0.86048 0.63287 1.17700
O 	O 	0.94735 0.00294 0.63853 -0.77300
O 	O 	0.94544 0.94456 0.60769 -0.58000
C 	C 	0.97582 0.96949 0.89863 -0.10600
C 	C 	0.97674 0.96753 0.93553 0.12200
C 	C 	0.95003 0.97276 0.38269 -0.12200
H 	H 	0.94765 0.17682 0.50084 0.09200
H 	H 	0.93271 0.68251 0.65125 0.03600
H 	H 	0.96012 0.61514 0.65967 0.07700
