data_crystal

_cell_length_a 22.98440
_cell_length_b 22.99313
_cell_length_c 17.56039
_cell_angle_alpha 89.99410
_cell_angle_beta  89.99532
_cell_angle_gamma 90.09248

_symmetry_space_group_name_	'P 1'
_symmetry_space_group_name_H-M	'P 1'

loop_
_symmetry_equiv_pos_as_xyz
  x,y,z

loop_
_atom_site_label
_atom_site_type_symbol
_atom_site_fract_x
_atom_site_fract_y
_atom_site_fract_z
_atom_site_charge
C 	C 	0.71453 0.98519 0.29516 0.28500
C 	C 	0.69365 0.80252 0.54204 0.30400
C 	C 	0.77989 0.98089 0.47860 0.30800
C 	C 	0.61673 0.81497 0.35336 0.28000
C 	C 	0.86382 0.81698 0.43492 0.30700
C 	C 	0.79476 0.79524 0.24086 0.28900
Ni	Ni	0.68152 0.90726 0.43681 1.11600
Ni	Ni	0.74259 0.78487 0.39186 1.12200
Ni	Ni	0.80393 0.90327 0.34411 1.12300
O 	O 	0.68678 0.98022 0.36234 -0.34900
O 	O 	0.75274 0.94635 0.27097 -0.37100
O 	O 	0.83058 0.77661 0.40331 -0.37000
O 	O 	0.65986 0.84634 0.52266 -0.35100
O 	O 	0.74163 0.79325 0.50520 -0.38200
O 	O 	0.82724 0.83990 0.26606 -0.36300
O 	O 	0.74589 0.94046 0.50522 -0.36900
O 	O 	0.79937 0.97805 0.40807 -0.36300
O 	O 	0.75088 0.77374 0.28029 -0.37900
O 	O 	0.61491 0.86944 0.37692 -0.36000
O 	O 	0.65287 0.77605 0.38501 -0.35900
O 	O 	0.85106 0.87187 0.42900 -0.38100
O 	O 	0.73414 0.86571 0.37525 -0.71800
H 	H 	0.71310 0.86492 0.32641 0.16500
C 	C 	0.78228 0.52452 0.79520 0.28500
C 	C 	0.80313 0.70720 0.04204 0.30400
C 	C 	0.71689 0.52884 0.97863 0.27700
C 	C 	0.88008 0.69474 0.85338 0.28000
C 	C 	0.63298 0.69274 0.93490 0.31500
C 	C 	0.70205 0.71448 0.74086 0.28900
Ni	Ni	0.81527 0.60245 0.93684 1.11100
Ni	Ni	0.75422 0.72485 0.89185 1.11900
Ni	Ni	0.69288 0.60645 0.84413 1.12200
O 	O 	0.81002 0.52949 0.86239 -0.35200
O 	O 	0.74407 0.56336 0.77100 -0.37300
O 	O 	0.66622 0.73311 0.90329 -0.37600
O 	O 	0.83692 0.66338 0.02268 -0.34400
O 	O 	0.75516 0.71648 0.00520 -0.37400
O 	O 	0.66958 0.66982 0.76606 -0.36500
O 	O 	0.75087 0.56927 0.00524 -0.35000
O 	O 	0.69743 0.53168 0.90810 -0.35900
O 	O 	0.74593 0.73597 0.78028 -0.38100
O 	O 	0.88190 0.64027 0.87695 -0.36300
O 	O 	0.84394 0.73366 0.88502 -0.36400
O 	O 	0.64574 0.63785 0.92901 -0.38700
O 	O 	0.76266 0.64401 0.87526 -0.72000
H 	H 	0.78371 0.64479 0.82642 0.16600
C 	C 	0.18508 0.62734 0.65043 0.27800
C 	C 	0.02054 0.79577 0.53656 0.30400
C 	C 	0.19440 0.70516 0.46349 0.30500
C 	C 	0.01961 0.72869 0.71932 0.28800
C 	C 	0.18730 0.87478 0.57091 0.30900
C 	C 	0.21271 0.80319 0.76553 0.28700
Ni	Ni	0.09219 0.69562 0.57314 1.11600
Ni	Ni	0.10241 0.81698 0.66758 1.12300
Ni	Ni	0.21740 0.75305 0.61259 1.12200
O 	O 	0.12955 0.62803 0.63126 -0.36000
O 	O 	0.22393 0.66308 0.61758 -0.36000
O 	O 	0.13213 0.86596 0.58323 -0.38100
O 	O 	0.06017 0.76212 0.50770 -0.36900
O 	O 	0.02589 0.81515 0.60691 -0.36000
O 	O 	0.23268 0.76004 0.72351 -0.38000
O 	O 	0.15013 0.67247 0.48454 -0.35100
O 	O 	0.20572 0.75292 0.49978 -0.38300
O 	O 	0.16870 0.83744 0.74283 -0.36500
O 	O 	0.02131 0.70267 0.65074 -0.35100
O 	O 	0.05965 0.76638 0.74198 -0.37300
O 	O 	0.22731 0.84078 0.60166 -0.37200
O 	O 	0.13698 0.74659 0.63332 -0.71800
H 	H 	0.13865 0.72514 0.68183 0.16400
C 	C 	0.31173 0.88238 0.15043 0.27800
C 	C 	0.47625 0.71395 0.03653 0.29500
C 	C 	0.30241 0.80457 0.96348 0.30500
C 	C 	0.47720 0.78101 0.21929 0.28700
C 	C 	0.30951 0.63494 0.07089 0.30200
C 	C 	0.28410 0.70652 0.26553 0.28800
Ni	Ni	0.40461 0.81411 0.07313 1.11800
Ni	Ni	0.39439 0.69273 0.16756 1.12300
Ni	Ni	0.27941 0.75667 0.11259 1.12400
O 	O 	0.36726 0.88169 0.13125 -0.35700
O 	O 	0.27287 0.84664 0.11759 -0.35600
O 	O 	0.36468 0.64375 0.08323 -0.37700
O 	O 	0.43663 0.74762 0.00768 -0.36300
O 	O 	0.47091 0.69457 0.10689 -0.35700
O 	O 	0.26411 0.74966 0.22350 -0.37900
O 	O 	0.34668 0.83727 0.98453 -0.35900
O 	O 	0.29110 0.75681 0.99978 -0.39100
O 	O 	0.32810 0.67227 0.24282 -0.36300
O 	O 	0.47550 0.80704 0.15071 -0.35000
O 	O 	0.43716 0.74331 0.24196 -0.37200
O 	O 	0.26950 0.66893 0.10165 -0.36700
O 	O 	0.35982 0.76313 0.13331 -0.71700
H 	H 	0.35815 0.78457 0.18182 0.16400
C 	C 	0.21348 0.02479 0.45460 0.28500
C 	C 	0.19344 0.20715 0.20728 0.30300
C 	C 	0.27868 0.02865 0.27112 0.30800
C 	C 	0.11659 0.19531 0.39607 0.28000
C 	C 	0.36363 0.19236 0.31431 0.30700
C 	C 	0.29471 0.21464 0.50835 0.28800
Ni	Ni	0.18072 0.10263 0.31284 1.11600
Ni	Ni	0.24261 0.22494 0.35731 1.12200
Ni	Ni	0.30321 0.10644 0.40536 1.12300
O 	O 	0.18552 0.02980 0.38758 -0.34900
O 	O 	0.25177 0.06369 0.47867 -0.37300
O 	O 	0.33065 0.23292 0.34574 -0.37000
O 	O 	0.15941 0.16345 0.22680 -0.34900
O 	O 	0.24152 0.21633 0.24400 -0.38000
O 	O 	0.32695 0.16991 0.48317 -0.36500
O 	O 	0.24478 0.06901 0.24441 -0.36700
O 	O 	0.29815 0.03156 0.34165 -0.36300
O 	O 	0.25104 0.23631 0.46882 -0.38000
O 	O 	0.11439 0.14081 0.37266 -0.36000
O 	O 	0.15296 0.23405 0.36423 -0.35900
O 	O 	0.35041 0.13755 0.32027 -0.38100
O 	O 	0.23366 0.14415 0.37418 -0.71800
H 	H 	0.21265 0.14512 0.42305 0.16500
C 	C 	0.28332 0.48493 0.95456 0.29300
C 	C 	0.30337 0.30257 0.70726 0.30400
C 	C 	0.21813 0.48106 0.77109 0.30800
C 	C 	0.38021 0.31441 0.89608 0.27600
C 	C 	0.13317 0.31737 0.81430 0.30700
C 	C 	0.20210 0.29508 0.00836 0.31300
Ni	Ni	0.31609 0.40709 0.81282 1.11500
Ni	Ni	0.25419 0.28478 0.85731 1.12200
Ni	Ni	0.19359 0.40327 0.90535 1.12300
O 	O 	0.31128 0.47992 0.88754 -0.35200
O 	O 	0.24503 0.44603 0.97865 -0.37700
O 	O 	0.16615 0.27681 0.84574 -0.37200
O 	O 	0.33741 0.34627 0.72679 -0.35100
O 	O 	0.25530 0.29339 0.74399 -0.38200
O 	O 	0.16985 0.33981 0.98317 -0.37700
O 	O 	0.25203 0.44070 0.74438 -0.36800
O 	O 	0.19866 0.47815 0.84162 -0.36400
O 	O 	0.24576 0.27340 0.96882 -0.39300
O 	O 	0.38242 0.36891 0.87265 -0.36100
O 	O 	0.34385 0.27567 0.86424 -0.36000
O 	O 	0.14638 0.37218 0.82028 -0.38200
O 	O 	0.26315 0.36557 0.87417 -0.71800
H 	H 	0.28415 0.36460 0.92304 0.16400
C 	C 	0.81232 0.12751 0.59902 0.27800
C 	C 	0.97612 0.29698 0.71311 0.30300
C 	C 	0.80239 0.20540 0.78585 0.30700
C 	C 	0.97747 0.22979 0.53042 0.28800
C 	C 	0.80916 0.37495 0.67836 0.30900
C 	C 	0.78424 0.30325 0.48370 0.28800
Ni	Ni	0.90481 0.19645 0.67652 1.11500
Ni	Ni	0.89439 0.31771 0.58188 1.12300
Ni	Ni	0.77951 0.25304 0.63660 1.12200
O 	O 	0.86781 0.12859 0.61835 -0.36000
O 	O 	0.77328 0.16303 0.63169 -0.36000
O 	O 	0.86438 0.36662 0.66602 -0.38100
O 	O 	0.93641 0.26327 0.74189 -0.37100
O 	O 	0.97081 0.31641 0.64278 -0.36000
O 	O 	0.76445 0.25989 0.52563 -0.38000
O 	O 	0.84679 0.17297 0.76496 -0.35300
O 	O 	0.79098 0.25305 0.74945 -0.38500
O 	O 	0.82819 0.33772 0.50639 -0.36300
O 	O 	0.97581 0.20396 0.59913 -0.35100
O 	O 	0.93747 0.26737 0.50764 -0.37100
O 	O 	0.76933 0.34071 0.64744 -0.37200
O 	O 	0.85998 0.24710 0.61612 -0.71800
H 	H 	0.85848 0.22562 0.56763 0.16500
C 	C 	0.68447 0.38221 0.09904 0.28400
C 	C 	0.52070 0.21271 0.21315 0.30400
C 	C 	0.69441 0.30430 0.28585 0.30500
C 	C 	0.51932 0.27993 0.03045 0.30200
C 	C 	0.68766 0.13476 0.17834 0.30900
C 	C 	0.71256 0.20648 0.98371 0.25900
Ni	Ni	0.59199 0.31325 0.17654 1.11600
Ni	Ni	0.60241 0.19201 0.08190 1.12400
Ni	Ni	0.71729 0.25668 0.13659 1.12200
O 	O 	0.62898 0.38112 0.11838 -0.35900
O 	O 	0.72351 0.34669 0.13170 -0.35900
O 	O 	0.63243 0.14310 0.16604 -0.38000
O 	O 	0.56041 0.24641 0.24191 -0.36900
O 	O 	0.52599 0.19330 0.14281 -0.35800
O 	O 	0.73233 0.24985 0.02561 -0.36500
O 	O 	0.65000 0.33672 0.26498 -0.35100
O 	O 	0.70583 0.25665 0.24945 -0.38300
O 	O 	0.66861 0.17201 0.00640 -0.34900
O 	O 	0.52098 0.30575 0.09917 -0.35100
O 	O 	0.55933 0.24236 0.00767 -0.37100
O 	O 	0.72748 0.16901 0.14741 -0.37000
O 	O 	0.63682 0.26262 0.11613 -0.71900
H 	H 	0.63831 0.28411 0.06764 0.16600
C 	C 	0.77124 0.19420 0.85555 -0.04400
C 	C 	0.74296 0.19460 0.91365 -0.01900
C 	C 	0.72558 0.31551 0.35554 -0.03600
C 	C 	0.75386 0.31511 0.41363 -0.02400
C 	C 	0.42678 0.29532 0.94400 -0.02200
C 	C 	0.46847 0.28694 0.98408 -0.04600
C 	C 	0.07875 0.30312 0.77955 -0.03200
C 	C 	0.03193 0.29902 0.74927 -0.03400
C 	C 	0.41807 0.20661 0.27958 -0.03000
C 	C 	0.46488 0.21069 0.24931 -0.03300
C 	C 	0.07001 0.21440 0.44397 -0.02600
C 	C 	0.02832 0.22279 0.48404 -0.02700
C 	C 	0.18463 0.23831 0.13700 -0.02900
C 	C 	0.18736 0.26603 0.07852 -0.02900
C 	C 	0.31219 0.27142 0.63698 -0.03600
C 	C 	0.30944 0.24370 0.57851 -0.02500
C 	C 	0.28455 0.97547 0.22928 -0.03800
C 	C 	0.29252 0.93165 0.19324 -0.01900
C 	C 	0.29364 0.58336 0.03035 -0.01000
C 	C 	0.28778 0.53857 0.99566 -0.04700
C 	C 	0.20903 0.97115 0.49569 -0.02200
C 	C 	0.20317 0.92636 0.53038 -0.03500
C 	C 	0.24303 0.81517 0.83564 -0.02500
C 	C 	0.27128 0.81568 0.89376 -0.04000
C 	C 	0.25380 0.69455 0.33566 -0.02400
C 	C 	0.22555 0.69405 0.39379 -0.03600
C 	C 	0.20429 0.57806 0.69321 -0.02100
C 	C 	0.21226 0.53423 0.72924 -0.03900
C 	C 	0.57872 0.70730 0.96977 -0.05800
C 	C 	0.53199 0.71166 0.00019 -0.00700
C 	C 	0.92686 0.71361 0.80556 -0.02800
C 	C 	0.96866 0.72182 0.76557 -0.02900
C 	C 	0.78693 0.47099 0.75392 -0.02400
C 	C 	0.79301 0.42632 0.71906 -0.03600
C 	C 	0.70344 0.43167 0.05631 -0.02900
C 	C 	0.71121 0.47559 0.02037 -0.01500
C 	C 	0.56995 0.79610 0.30554 -0.02600
C 	C 	0.52815 0.78788 0.26555 -0.02700
C 	C 	0.91808 0.80243 0.46980 -0.03000
C 	C 	0.96481 0.79807 0.50022 -0.03400
C 	C 	0.80939 0.76613 0.17074 -0.02400
C 	C 	0.81204 0.73838 0.11230 -0.03200
C 	C 	0.68475 0.77135 0.61231 -0.03600
C 	C 	0.68741 0.74361 0.67076 -0.02500
C 	C 	0.78558 0.03414 0.52033 -0.03900
C 	C 	0.79336 0.07806 0.55629 -0.02100
C 	C 	0.70381 0.08339 0.21902 -0.03400
C 	C 	0.70989 0.03871 0.25387 -0.02200
