data_crystal

_cell_length_a 20.36939
_cell_length_b 21.29516
_cell_length_c 38.54027
_cell_angle_alpha 60.71372
_cell_angle_beta  119.01705
_cell_angle_gamma 133.29549

_symmetry_space_group_name_	'P 1'
_symmetry_space_group_name_H-M	'P 1'

loop_
_symmetry_equiv_pos_as_xyz
  x,y,z

loop_
_atom_site_label
_atom_site_type_symbol
_atom_site_fract_x
_atom_site_fract_y
_atom_site_fract_z
_atom_site_charge
H 	H 	0.18233 0.54003 0.15772 0.05800
H 	H 	0.15006 0.47809 0.69490 0.06700
Co	Co	0.03363 0.10740 0.07330 1.19000
Co	Co	0.10625 0.03946 0.04864 1.16400
Co	Co	0.10804 0.88809 0.04847 1.17700
C 	C 	0.28154 0.05827 0.06726 0.25500
O 	O 	0.03479 0.09649 0.17986 -0.36900
C 	C 	0.03468 0.02696 0.20568 0.23400
O 	O 	0.11190 0.14515 0.03966 -0.46900
C 	C 	0.11141 0.25061 0.10652 0.33200
C 	C 	0.12804 0.79903 0.13667 0.31800
O 	O 	0.03855 0.98015 0.19395 -0.31600
O 	O 	0.08954 0.78417 0.10037 -0.40400
O 	O 	0.11916 0.84642 0.14460 -0.36900
O 	O 	0.02437 0.21627 0.09910 -0.40800
O 	O 	0.13371 0.20724 0.10463 -0.39300
O 	O 	0.06805 0.93226 0.06707 -0.73700
O 	O 	0.24235 0.97259 0.07692 -0.35100
O 	O 	0.24575 0.08834 0.07063 -0.38700
Co	Co	0.04632 0.00958 0.54167 1.16000
Co	Co	0.06193 0.86527 0.54245 1.18000
C 	C 	0.21771 0.06038 0.53315 0.26900
O 	O 	0.05036 0.11251 0.53622 -0.46300
C 	C 	0.08532 0.18491 0.64140 0.31800
C 	C 	0.11345 0.80213 0.63231 0.31600
O 	O 	0.14891 0.86214 0.60005 -0.37700
O 	O 	0.05003 0.79233 0.64077 -0.34400
O 	O 	0.02381 0.11500 0.66330 -0.39700
O 	O 	0.09091 0.18021 0.60950 -0.36700
O 	O 	0.02763 0.90896 0.56500 -0.72900
O 	O 	0.16162 0.99325 0.51650 -0.35800
O 	O 	0.18605 0.07755 0.54776 -0.38800
C 	C 	0.11444 0.04889 0.87596 -0.15300
C 	C 	0.13468 0.06945 0.91075 0.05800
H 	H 	0.20632 0.10756 0.92730 0.02400
H 	H 	0.17064 0.07023 0.86665 0.06600
C 	C 	0.05793 0.02464 0.79265 -0.20200
C 	C 	0.03661 0.99730 0.75995 0.21800
H 	H 	0.11818 0.09129 0.79589 0.07400
H 	H 	0.08204 0.04190 0.73918 -0.03600
C 	C 	0.08731 0.04829 0.38377 -0.16600
C 	C 	0.07123 0.04247 0.41695 0.02000
C 	C 	0.03052 0.00090 0.32076 -0.11400
H 	H 	0.15782 0.09186 0.38050 0.07500
H 	H 	0.12930 0.08200 0.43858 0.02500
C 	C 	0.05084 0.01437 0.24958 -0.07500
C 	C 	0.10685 0.08980 0.26464 -0.01700
C 	C 	0.09434 0.08376 0.29897 -0.00700
H 	H 	0.15455 0.15458 0.24770 0.06000
H 	H 	0.13184 0.14408 0.30766 0.03200
C 	C 	0.13905 0.27184 0.64897 -0.11700
C 	C 	0.22775 0.35569 0.70019 -0.10600
C 	C 	0.19967 0.28757 0.68744 0.18700
H 	H 	0.27646 0.36872 0.72943 0.06900
O 	O 	0.23447 0.23865 0.71196 -0.29000
H 	H 	0.19687 0.19361 0.73269 0.14700
C 	C 	0.12157 0.61155 0.66236 -0.10900
C 	C 	0.08320 0.65518 0.65195 0.20700
C 	C 	0.14077 0.74105 0.65797 -0.11100
C 	C 	0.23159 0.77407 0.68199 -0.03200
H 	H 	0.07866 0.55007 0.65352 0.07700
C 	C 	0.18181 0.33317 0.12045 -0.12800
C 	C 	0.18060 0.40751 0.09541 -0.03200
C 	C 	0.20876 0.46958 0.11265 0.12800
C 	C 	0.22290 0.32789 0.16245 0.18900
H 	H 	0.15178 0.41394 0.06273 0.06400
O 	O 	0.23399 0.26121 0.18677 -0.29000
H 	H 	0.29661 0.28612 0.18665 0.15100
H 	H 	0.14518 0.52275 0.08437 0.15100
C 	C 	0.18558 0.76685 0.16682 -0.10800
C 	C 	0.14084 0.67451 0.18304 -0.03600
C 	C 	0.18346 0.63550 0.19167 0.12900
C 	C 	0.27928 0.82066 0.16618 0.18600
H 	H 	0.07046 0.63214 0.18629 0.06200
O 	O 	0.14274 0.54690 0.21112 -0.27300
O 	O 	0.33242 0.91070 0.16115 -0.27500
H 	H 	0.09148 0.51439 0.18968 0.14700
H 	H 	0.32051 0.10253 0.99846 0.05800
C 	C 	0.31172 0.64850 0.18520 0.06300
C 	C 	0.25576 0.57093 0.17111 -0.07400
C 	C 	0.29698 0.53689 0.17221 0.06500
C 	C 	0.26300 0.61889 0.68147 0.06200
C 	C 	0.21696 0.52732 0.68718 -0.08100
C 	C 	0.25603 0.50023 0.68087 0.06300
C 	C 	0.11041 0.32743 0.62287 -0.04200
C 	C 	0.13933 0.39623 0.63542 0.12900
C 	C 	0.19958 0.41167 0.67404 -0.02900
H 	H 	0.06312 0.31550 0.59330 0.06600
O 	O 	0.11001 0.44953 0.60955 -0.27800
H 	H 	0.15649 0.49870 0.59274 0.14800
C 	C 	0.21616 0.65033 0.68149 -0.01700
C 	C 	0.26824 0.72707 0.69524 0.12800
H 	H 	0.27471 0.83727 0.68937 0.07100
O 	O 	0.35211 0.75316 0.72316 -0.26500
C 	C 	0.24232 0.45985 0.15529 -0.02800
C 	C 	0.24800 0.38783 0.18004 -0.10600
O 	O 	0.20763 0.54201 0.08755 -0.26700
H 	H 	0.27714 0.38145 0.21272 0.06900
C 	C 	0.27037 0.68896 0.18250 -0.02100
C 	C 	0.31914 0.78224 0.17113 -0.10100
H 	H 	0.38688 0.82537 0.16494 0.06700
H 	H 	0.34776 0.93832 0.13429 0.16400
C 	C 	0.31020 0.12844 0.52518 -0.11400
C 	C 	0.31991 0.19042 0.48707 -0.04400
C 	C 	0.37839 0.11292 0.54835 0.18500
H 	H 	0.26783 0.20306 0.46906 0.05400
O 	O 	0.37182 0.05498 0.58639 -0.33900
H 	H 	0.33771 0.99633 0.58169 0.19800
C 	C 	0.37339 0.12005 0.05933 -0.10700
C 	C 	0.38164 0.12900 0.02288 -0.06700
C 	C 	0.39307 0.58279 0.18482 -0.08400
C 	C 	0.40912 0.69403 0.19702 -0.08200
C 	C 	0.34499 0.56222 0.67411 -0.09100
C 	C 	0.34850 0.68134 0.67015 -0.08200
H 	H 	0.37555 0.54085 0.66991 0.06000
C 	C 	0.08201 0.01385 0.97198 0.26600
O 	O 	0.13634 0.98870 0.99561 -0.34800
O 	O 	0.05607 0.03528 0.98737 -0.38100
O 	O 	0.00217 0.96396 0.59809 -0.53300
C 	C 	0.02183 0.99649 0.85490 0.13700
C 	C 	0.06288 0.03090 0.92740 -0.13500
C 	C 	0.01312 0.99552 0.35587 0.20000
H 	H 	0.37991 0.75186 0.66112 0.06300
C 	C 	0.39063 0.65248 0.66806 0.06700
C 	C 	0.39225 0.23071 0.47054 0.12500
O 	O 	0.39508 0.28375 0.43138 -0.28100
Co	Co	0.01444 0.86453 0.10558 1.19800
H 	H 	0.39992 0.80613 0.70749 0.15200
O 	O 	0.00163 0.97657 0.08243 -0.53800
Co	Co	0.99185 0.07645 0.57899 1.17100
O 	O 	0.98935 0.61303 0.63674 -0.29100
C 	C 	0.98248 0.97890 0.42474 -0.08000
H 	H 	0.98459 0.33676 0.51063 0.14500
C 	C 	0.99966 0.96724 0.82007 0.05700
H 	H 	0.42486 0.55926 0.18343 0.06200
H 	H 	0.46733 0.12680 0.98487 0.13700
C 	C 	0.91035 0.90922 0.70897 0.33900
O 	O 	0.93833 0.89118 0.69284 -0.38400
C 	C 	0.95230 0.91682 0.75152 -0.17600
H 	H 	0.97643 0.60909 0.60927 0.15500
H 	H 	0.42635 0.34355 0.43384 0.14800
C 	C 	0.45251 0.15251 0.09126 0.17700
C 	C 	0.46783 0.16928 0.01822 0.12400
O 	O 	0.44594 0.14778 0.12637 -0.28500
O 	O 	0.47522 0.18061 0.98172 -0.27200
O 	O 	0.85424 0.93252 0.68592 -0.40000
C 	C 	0.75621 0.31295 0.01483 0.06900
C 	C 	0.67716 0.24648 0.03130 -0.09600
C 	C 	0.63878 0.27020 0.04024 0.07100
C 	C 	0.68288 0.35911 0.03614 -0.09500
C 	C 	0.76453 0.42520 0.02263 0.08000
C 	C 	0.79891 0.40325 0.00969 -0.10500
H 	H 	0.64465 0.17672 0.03641 0.04900
H 	H 	0.65392 0.37709 0.04393 0.06800
H 	H 	0.85801 0.45563 0.99594 0.08400
C 	C 	0.68797 0.29020 0.49517 0.06000
C 	C 	0.74413 0.37232 0.50538 -0.08800
C 	C 	0.70263 0.40951 0.50065 0.06500
C 	C 	0.60681 0.36433 0.48683 -0.08300
C 	C 	0.55090 0.27786 0.48308 0.06200
C 	C 	0.59100 0.24587 0.48184 -0.08200
H 	H 	0.81825 0.40542 0.51773 0.05800
H 	H 	0.57520 0.39108 0.48535 0.06200
H 	H 	0.54659 0.18377 0.47330 0.05700
C 	C 	0.44891 0.66622 0.19198 0.06600
H 	H 	0.45398 0.75387 0.20754 0.06200
Co	Co	0.96240 0.94190 0.13814 1.19100
C 	C 	0.91114 0.74479 0.04717 0.31300
Co	Co	0.93377 0.08564 0.12648 1.15200
O 	O 	0.97322 0.03820 0.10951 -0.80100
O 	O 	0.96433 0.83891 0.14910 -0.46900
C 	C 	0.78841 0.88816 0.14560 0.33500
O 	O 	0.84207 0.96054 0.15802 -0.38800
O 	O 	0.82192 0.86874 0.13346 -0.38000
C 	C 	0.87360 0.12694 0.03631 0.31500
O 	O 	0.84177 0.07172 0.06981 -0.41300
O 	O 	0.93885 0.13705 0.02927 -0.39000
O 	O 	0.96899 0.81190 0.02332 -0.39500
O 	O 	0.91148 0.75447 0.07920 -0.38300
Co	Co	0.96363 0.83433 0.59987 1.17900
Co	Co	0.89358 0.89510 0.63083 1.19500
C 	C 	0.87837 0.70375 0.55610 0.33900
Co	Co	0.88642 0.03952 0.63511 1.14900
O 	O 	0.93261 0.00251 0.61548 -0.80300
O 	O 	0.88707 0.79164 0.63577 -0.46300
C 	C 	0.71628 0.87380 0.61064 0.32100
C 	C 	0.97471 0.94438 0.46722 0.29500
O 	O 	0.75473 0.95874 0.60287 -0.35800
O 	O 	0.75443 0.84713 0.60654 -0.38700
O 	O 	0.96631 0.86948 0.48861 -0.39900
O 	O 	0.97222 0.98616 0.48288 -0.37300
C 	C 	0.87765 0.14115 0.54856 0.31900
O 	O 	0.91053 0.14933 0.58589 -0.42300
O 	O 	0.88915 0.09721 0.53951 -0.40200
O 	O 	0.96393 0.73362 0.56407 -0.42900
O 	O 	0.85990 0.74434 0.56321 -0.39600
C 	C 	0.95044 0.96964 0.86805 -0.12400
C 	C 	0.97082 0.98537 0.90460 0.08800
H 	H 	0.87906 0.93389 0.85089 0.07400
H 	H 	0.91465 0.95698 0.91649 0.03800
C 	C 	0.89665 0.85714 0.77999 0.06700
C 	C 	0.92133 0.88131 0.81463 -0.08900
H 	H 	0.83186 0.79396 0.77421 0.02600
H 	H 	0.87832 0.83409 0.83657 0.06000
C 	C 	0.92233 0.93928 0.36107 -0.14000
C 	C 	0.90735 0.92996 0.39570 0.05500
H 	H 	0.83815 0.88112 0.40110 0.03200
H 	H 	0.86370 0.90116 0.33892 0.07600
C 	C 	0.98261 0.92362 0.30861 0.01900
C 	C 	0.99191 0.93053 0.27286 0.00700
H 	H 	0.93626 0.85865 0.32610 0.03100
H 	H 	0.94921 0.87146 0.26204 0.04900
C 	C 	0.62900 0.80838 0.62322 -0.12500
C 	C 	0.62959 0.76043 0.66422 -0.03700
C 	C 	0.55520 0.71641 0.68017 0.12900
C 	C 	0.47734 0.71668 0.65454 -0.02600
C 	C 	0.47619 0.76372 0.61336 -0.10300
C 	C 	0.55143 0.80907 0.59759 0.19500
H 	H 	0.68978 0.76073 0.68424 0.05600
O 	O 	0.55925 0.67451 0.72104 -0.27200
H 	H 	0.41565 0.76276 0.59327 0.07300
O 	O 	0.55050 0.85655 0.55746 -0.27700
H 	H 	0.52282 0.81430 0.54203 0.15500
H 	H 	0.53610 0.61402 0.72339 0.14600
C 	C 	0.54082 0.73146 0.18259 -0.02700
C 	C 	0.61067 0.71885 0.20775 -0.10500
C 	C 	0.68750 0.76184 0.19357 0.19300
C 	C 	0.69651 0.82027 0.15438 -0.12400
C 	C 	0.62633 0.83218 0.12913 -0.03400
C 	C 	0.54983 0.78970 0.14331 0.13000
H 	H 	0.60355 0.67292 0.23772 0.07000
O 	O 	0.75655 0.75089 0.21900 -0.29600
H 	H 	0.63345 0.87813 0.09915 0.06500
O 	O 	0.48094 0.80088 0.11781 -0.26900
H 	H 	0.49833 0.85203 0.12337 0.14700
H 	H 	0.73941 0.70000 0.21331 0.15200
C 	C 	0.72930 0.24664 0.50187 -0.02800
C 	C 	0.80941 0.29602 0.48823 -0.10200
C 	C 	0.85329 0.25748 0.49801 0.18300
C 	C 	0.81474 0.16764 0.51988 -0.11900
C 	C 	0.72717 0.11546 0.52739 -0.05000
C 	C 	0.68836 0.15534 0.52179 0.12700
H 	H 	0.83978 0.36509 0.47145 0.06700
O 	O 	0.93564 0.30874 0.48755 -0.29200
H 	H 	0.69462 0.04551 0.54251 0.06000
O 	O 	0.61697 0.10751 0.53972 -0.28800
H 	H 	0.56028 0.06901 0.52134 0.13700
C 	C 	0.80525 0.62475 0.53956 -0.12700
C 	C 	0.79544 0.63548 0.49877 -0.04100
C 	C 	0.77481 0.56944 0.48729 0.12500
C 	C 	0.75569 0.48824 0.51581 -0.03200
C 	C 	0.75770 0.47471 0.55575 -0.10400
C 	C 	0.77822 0.54097 0.56703 0.18800
H 	H 	0.81283 0.69866 0.47682 0.06100
O 	O 	0.76870 0.58259 0.44756 -0.27700
H 	H 	0.73857 0.41093 0.57745 0.07100
O 	O 	0.78037 0.52656 0.60625 -0.28100
H 	H 	0.71719 0.50229 0.60523 0.15300
H 	H 	0.83185 0.60986 0.44694 0.14200
C 	C 	0.46048 0.21505 0.49367 -0.02700
C 	C 	0.45284 0.15584 0.53259 -0.11200
H 	H 	0.50660 0.14554 0.55126 0.07300
C 	C 	0.79414 0.28678 0.00387 -0.04300
C 	C 	0.73235 0.21323 0.98656 -0.09400
C 	C 	0.76002 0.16314 0.99256 0.19200
C 	C 	0.85249 0.19243 0.01175 -0.13200
C 	C 	0.91834 0.27816 0.01840 -0.04300
C 	C 	0.88929 0.32198 0.01807 0.12800
H 	H 	0.66061 0.18972 0.97227 0.06800
O 	O 	0.69613 0.08441 0.98093 -0.28500
H 	H 	0.99142 0.30630 0.02835 0.05700
O 	O 	0.95288 0.39580 0.03358 -0.28800
H 	H 	0.95578 0.37261 0.06337 0.13600
H 	H 	0.66787 0.03852 0.00460 0.13400
C 	C 	0.86014 0.65568 0.04317 -0.11400
C 	C 	0.88805 0.60139 0.07360 -0.05100
C 	C 	0.87052 0.53439 0.06455 0.13600
C 	C 	0.81701 0.51546 0.02590 -0.05400
C 	C 	0.78865 0.56940 0.99550 -0.07300
C 	C 	0.80783 0.63765 0.00429 0.16200
H 	H 	0.92850 0.61473 0.10363 0.05900
O 	O 	0.89952 0.48266 0.09455 -0.28700
H 	H 	0.74644 0.55466 0.96579 0.06700
O 	O 	0.77966 0.68995 0.97415 -0.27300
H 	H 	0.71754 0.66063 0.97690 0.15500
H 	H 	0.96165 0.51254 0.09160 0.13700
C 	C 	0.54746 0.20362 0.04974 -0.03900
C 	C 	0.53896 0.19278 0.08667 -0.10500
H 	H 	0.60032 0.22020 0.11089 0.06600
H 	H 	0.43837 0.09211 0.14579 0.14600
