data_crystal

_cell_length_a 18.60877
_cell_length_b 18.88988
_cell_length_c 23.34277
_cell_angle_alpha 95.41433
_cell_angle_beta  95.41308
_cell_angle_gamma 126.40626

_symmetry_space_group_name_	'P 1'
_symmetry_space_group_name_H-M	'P 1'

loop_
_symmetry_equiv_pos_as_xyz
  x,y,z

loop_
_atom_site_label
_atom_site_type_symbol
_atom_site_fract_x
_atom_site_fract_y
_atom_site_fract_z
_atom_site_charge
C 	C 	0.95647 0.04259 0.01182 0.01300
C 	C 	0.92698 0.89773 0.99739 0.01500
C 	C 	0.08026 0.03302 0.00350 0.01600
C 	C 	0.04915 0.08473 0.01121 -0.06200
H 	H 	0.82407 0.91596 0.00458 0.04600
H 	H 	0.09646 0.15700 0.01637 0.04600
C 	C 	0.86255 0.90411 0.43286 -0.06500
C 	C 	0.91368 0.87150 0.43940 0.01400
C 	C 	0.05254 0.02172 0.44587 0.01700
C 	C 	0.00212 0.05428 0.43903 -0.06200
H 	H 	0.78923 0.85869 0.42831 0.04600
H 	H 	0.04792 0.90595 0.45131 0.04800
H 	H 	0.03698 0.12521 0.43995 0.04700
Cu	Cu	0.62655 0.21361 0.01725 0.92600
Cu	Cu	0.70769 0.22146 0.89721 0.86800
Cu	Cu	0.66497 0.34447 0.93426 0.89700
Cu	Cu	0.60666 0.36684 0.04518 0.89400
C 	C 	0.64194 0.28532 0.13588 0.28000
O 	O 	0.49024 0.14859 0.01252 -0.36100
C 	C 	0.65646 0.28517 0.80951 0.27900
O 	O 	0.68831 0.35017 0.01717 -0.63800
O 	O 	0.61495 0.21636 0.93210 -0.63800
O 	O 	0.69632 0.16357 0.02131 -0.37000
O 	O 	0.79194 0.25954 0.96655 -0.44300
O 	O 	0.59274 0.30949 0.11493 -0.38400
O 	O 	0.72164 0.47101 0.94206 -0.38300
C 	C 	0.71132 0.51729 0.98196 0.29200
C 	C 	0.44958 0.17973 0.98867 0.28400
O 	O 	0.49905 0.26027 0.97647 -0.39600
O 	O 	0.64799 0.47719 0.01417 -0.39700
O 	O 	0.65460 0.23535 0.10153 -0.35500
C 	C 	0.77309 0.20286 0.00161 0.28700
O 	O 	0.65821 0.34180 0.84877 -0.37600
O 	O 	0.65048 0.21627 0.82343 -0.42000
H 	H 	0.75277 0.39507 0.03655 0.16300
H 	H 	0.55283 0.17294 0.90857 0.17500
Cu	Cu	0.75274 0.34006 0.43220 0.92400
Cu	Cu	0.75073 0.26597 0.55426 0.86900
Cu	Cu	0.61887 0.29854 0.51535 0.89700
Cu	Cu	0.59186 0.35251 0.40338 0.89500
C 	C 	0.67742 0.32087 0.31322 0.28000
O 	O 	0.81450 0.47435 0.43548 -0.35700
C 	C 	0.68488 0.31552 0.64100 0.28100
O 	O 	0.61354 0.27584 0.43244 -0.63600
O 	O 	0.75025 0.35294 0.51738 -0.63800
O 	O 	0.80367 0.27041 0.42892 -0.36800
O 	O 	0.70893 0.17965 0.48632 -0.44300
O 	O 	0.65046 0.36735 0.33370 -0.38400
O 	O 	0.48939 0.23816 0.50731 -0.38100
C 	C 	0.44055 0.24453 0.46623 0.29000
C 	C 	0.77979 0.51209 0.45825 0.28000
O 	O 	0.69875 0.46121 0.47126 -0.39400
O 	O 	0.47950 0.30828 0.43487 -0.39600
O 	O 	0.73008 0.31095 0.34791 -0.35600
C 	C 	0.76409 0.19560 0.44993 0.28500
O 	O 	0.62101 0.30272 0.60088 -0.37700
O 	O 	0.75645 0.32502 0.62686 -0.42100
H 	H 	0.56962 0.21199 0.41339 0.16400
H 	H 	0.79247 0.41489 0.54006 0.17400
C 	C 	0.66262 0.29954 0.75028 -0.05100
C 	C 	0.67115 0.30868 0.70033 -0.05200
C 	C 	0.65973 0.29287 0.19822 -0.04400
C 	C 	0.67014 0.30327 0.25094 -0.04400
C 	C 	0.83567 0.74138 0.49075 -0.06300
C 	C 	0.86915 0.77575 0.44080 0.01700
C 	C 	0.87670 0.72440 0.39767 -0.06300
C 	C 	0.85269 0.64050 0.40495 0.00900
C 	C 	0.81987 0.60640 0.45516 -0.08700
C 	C 	0.81123 0.65728 0.49792 0.00800
H 	H 	0.83101 0.78085 0.52482 0.04300
H 	H 	0.90339 0.75057 0.35921 0.04400
H 	H 	0.85766 0.60126 0.37090 0.03700
H 	H 	0.78494 0.63139 0.53655 0.03000
C 	C 	0.80638 0.02605 0.47364 -0.06600
C 	C 	0.85561 0.03332 0.42969 0.01900
C 	C 	0.86862 0.08896 0.38918 -0.06400
C 	C 	0.83780 0.14101 0.39499 0.01300
C 	C 	0.79256 0.13708 0.44090 -0.09500
C 	C 	0.77493 0.07730 0.47919 0.00800
H 	H 	0.90561 0.09444 0.35456 0.04500
H 	H 	0.85009 0.18491 0.36425 0.03900
H 	H 	0.73921 0.07243 0.51445 0.01600
C 	C 	0.28573 0.17232 0.40919 0.01200
C 	C 	0.34128 0.18945 0.46188 -0.08800
C 	C 	0.30149 0.15371 0.51004 0.01300
C 	C 	0.20718 0.10060 0.50521 -0.06400
C 	C 	0.15194 0.08286 0.45231 0.02000
C 	C 	0.19155 0.11946 0.40452 -0.06400
H 	H 	0.31544 0.19894 0.37159 0.02600
H 	H 	0.34348 0.16721 0.55117 0.03900
H 	H 	0.17693 0.07264 0.54237 0.04500
C 	C 	0.82841 0.76184 0.03981 -0.06500
C 	C 	0.86382 0.79993 0.99137 0.02000
C 	C 	0.84575 0.74476 0.93885 -0.06400
C 	C 	0.79493 0.65229 0.93536 0.01300
C 	C 	0.76173 0.61425 0.98446 -0.08800
C 	C 	0.77774 0.66947 0.03646 0.01100
H 	H 	0.84235 0.80410 0.08057 0.04400
H 	H 	0.87260 0.77378 0.90114 0.04500
H 	H 	0.78174 0.61041 0.89464 0.03900
H 	H 	0.75262 0.64104 0.07468 0.02600
C 	C 	0.82104 0.12279 0.05357 0.01500
C 	C 	0.82855 0.17059 0.00897 -0.09900
C 	C 	0.88667 0.18452 0.96953 0.01000
C 	C 	0.93247 0.14692 0.97259 -0.06600
C 	C 	0.92148 0.09546 0.01530 0.01800
C 	C 	0.86760 0.08574 0.05686 -0.06500
H 	H 	0.77828 0.11319 0.08513 0.03900
H 	H 	0.89408 0.22198 0.93522 0.01300
H 	H 	0.97373 0.15488 0.94029 0.04000
C 	C 	0.22826 0.06608 0.04352 -0.06200
C 	C 	0.17677 0.07582 0.00169 0.01600
C 	C 	0.21356 0.11543 0.95390 -0.06100
C 	C 	0.30104 0.14508 0.94798 0.00900
C 	C 	0.35272 0.13555 0.98989 -0.08700
C 	C 	0.31556 0.09537 0.03752 0.00900
H 	H 	0.20013 0.03481 0.08032 0.04500
H 	H 	0.17380 0.12182 0.92082 0.04300
H 	H 	0.32903 0.17630 0.91114 0.03100
H 	H 	0.35515 0.08901 0.07075 0.03800
H 	H 	0.04282 0.89978 0.99055 0.04800
H 	H 	0.85966 0.04723 0.09060 0.04500
H 	H 	0.14921 0.10560 0.36344 0.04500
C 	C 	0.00841 0.93073 0.44595 -0.06200
C 	C 	0.01893 0.93974 0.99658 -0.06100
C 	C 	0.89573 0.94896 0.00500 -0.06600
H 	H 	0.79598 0.98375 0.50522 0.04100
C 	C 	0.90708 0.99607 0.43248 0.01400
