data_crystal

_cell_length_a 30.60588
_cell_length_b 31.23460
_cell_length_c 26.45066
_cell_angle_alpha 95.53562
_cell_angle_beta  95.52855
_cell_angle_gamma 125.54913

_symmetry_space_group_name_	'P 1'
_symmetry_space_group_name_H-M	'P 1'

loop_
_symmetry_equiv_pos_as_xyz
  x,y,z

loop_
_atom_site_label
_atom_site_type_symbol
_atom_site_fract_x
_atom_site_fract_y
_atom_site_fract_z
_atom_site_charge
C 	C 	0.97642 0.03032 0.00074 0.04000
C 	C 	0.05577 0.03216 0.99176 0.03800
C 	C 	0.03160 0.05879 0.99625 -0.08100
H 	H 	0.05548 0.10137 0.99587 0.05300
C 	C 	0.99653 0.03030 0.43196 -0.06700
C 	C 	0.02541 0.00856 0.43875 0.02400
H 	H 	0.01814 0.07202 0.42846 0.04800
C 	C 	0.91010 0.02226 0.42542 -0.00300
C 	C 	0.90925 0.04381 0.38144 -0.03300
C 	C 	0.88537 0.07067 0.37857 -0.04500
C 	C 	0.86210 0.07605 0.41957 0.02000
C 	C 	0.86165 0.05338 0.46292 -0.04500
C 	C 	0.88558 0.02658 0.46587 -0.03300
C 	C 	0.84045 0.10649 0.41808 -0.01300
C 	C 	0.82215 0.13182 0.41753 -0.02500
C 	C 	0.83423 0.21684 0.41598 -0.07100
H 	H 	0.92784 0.04048 0.34990 0.03800
H 	H 	0.88565 0.08788 0.34484 0.04400
H 	H 	0.84357 0.05723 0.49469 0.04200
H 	H 	0.88613 0.01023 0.50004 0.03800
H 	H 	0.87599 0.23576 0.41068 0.05100
C 	C 	0.30449 0.15637 0.44701 -0.02400
C 	C 	0.25601 0.13186 0.44569 -0.01300
C 	C 	0.19814 0.10238 0.44445 0.02000
C 	C 	0.17654 0.08264 0.48814 -0.04500
C 	C 	0.12018 0.05269 0.48654 -0.03400
C 	C 	0.08506 0.04224 0.44117 -0.00200
C 	C 	0.10684 0.06263 0.39766 -0.03400
C 	C 	0.16324 0.09260 0.39931 -0.04500
H 	H 	0.37991 0.18287 0.52922 0.05200
H 	H 	0.20332 0.09018 0.52321 0.04300
H 	H 	0.10376 0.03733 0.52040 0.03800
H 	H 	0.08004 0.05470 0.36244 0.03800
H 	H 	0.17970 0.10783 0.36542 0.04300
C 	C 	0.85054 0.23375 0.00928 -0.07100
C 	C 	0.82296 0.18054 0.01597 0.04300
C 	C 	0.76761 0.15053 0.01972 -0.07100
C 	C 	0.85007 0.15534 0.01432 -0.02500
C 	C 	0.87282 0.13427 0.01293 -0.01400
C 	C 	0.89930 0.10851 0.00985 0.02100
C 	C 	0.94206 0.12321 0.04944 -0.04800
C 	C 	0.96759 0.09795 0.04635 -0.02700
C 	C 	0.95044 0.05784 0.00360 -0.00900
C 	C 	0.90785 0.04347 0.96388 -0.03100
C 	C 	0.88238 0.06872 0.96703 -0.04700
H 	H 	0.95542 0.15405 0.08261 0.04500
H 	H 	0.00037 0.10923 0.07725 0.03500
H 	H 	0.89452 0.01273 0.93063 0.03800
H 	H 	0.84946 0.05730 0.93622 0.04200
C 	C 	0.11343 0.06170 0.98635 -0.00700
C 	C 	0.15190 0.06745 0.02539 -0.03100
C 	C 	0.20547 0.09086 0.01821 -0.04600
C 	C 	0.22092 0.10865 0.97201 0.02100
C 	C 	0.18294 0.10413 0.93346 -0.04600
C 	C 	0.12931 0.08073 0.94061 -0.03100
C 	C 	0.27544 0.13055 0.96388 -0.01300
C 	C 	0.32136 0.14873 0.95809 -0.02400
C 	C 	0.39772 0.14207 0.96256 -0.06800
H 	H 	0.14001 0.05299 0.06088 0.03800
H 	H 	0.23475 0.09454 0.04829 0.04400
H 	H 	0.19472 0.11807 0.89775 0.04300
H 	H 	0.09983 0.07635 0.91022 0.03800
H 	H 	0.37134 0.10173 0.97005 0.05200
C 	C 	0.80035 0.16218 0.41813 0.04200
H 	H 	0.46942 0.14419 0.97372 0.04000
Br	Br	0.56455 0.22236 0.75326 -0.25600
C 	C 	0.36245 0.18560 0.44899 0.04200
C 	C 	0.39680 0.19646 0.49503 -0.06800
C 	C 	0.76599 0.22512 0.00448 -0.09400
H 	H 	0.74616 0.10947 0.02536 0.05100
C 	C 	0.37661 0.17058 0.95269 0.04300
C 	C 	0.45342 0.16627 0.96483 0.01900
H 	H 	0.35818 0.19480 0.36915 0.05100
C 	C 	0.73919 0.17271 0.01411 0.01900
C 	C 	0.38457 0.20327 0.40494 -0.06800
C 	C 	0.74632 0.13799 0.42462 -0.07200
H 	H 	0.71975 0.09566 0.42591 0.05000
C 	C 	0.45316 0.22520 0.49718 0.01800
H 	H 	0.47937 0.23394 0.53319 0.04300
O 	O 	0.68588 0.22355 0.00264 -0.36800
C 	C 	0.41073 0.22232 0.94218 -0.06900
O 	O 	0.56925 0.22613 0.99090 -0.36100
C 	C 	0.48858 0.21954 0.95773 -0.08700
C 	C 	0.44091 0.23200 0.40696 0.01700
C 	C 	0.72687 0.16870 0.43107 0.01800
C 	C 	0.76146 0.22402 0.43130 -0.09500
H 	H 	0.39447 0.24433 0.93384 0.05000
H 	H 	0.68531 0.14972 0.43699 0.03200
C 	C 	0.47559 0.24335 0.45317 -0.08400
H 	H 	0.45756 0.24525 0.37259 0.03700
Br	Br	0.55932 0.23664 0.27004 -0.27800
H 	H 	0.69595 0.14846 0.01531 0.03800
O 	O 	0.70939 0.24380 0.47793 -0.43800
H 	H 	0.57588 0.24423 0.16174 0.06800
C 	C 	0.73445 0.24574 0.99064 0.29500
C 	C 	0.46645 0.24668 0.94441 0.01600
C 	C 	0.81486 0.24768 0.42239 0.01800
H 	H 	0.61494 0.24744 0.90430 0.18300
C 	C 	0.54856 0.24842 0.96932 0.28600
H 	H 	0.59624 0.25071 0.65245 0.06400
C 	C 	0.82226 0.25608 0.00371 0.01900
C 	C 	0.74351 0.25762 0.44574 0.29100
H 	H 	0.89352 0.25737 0.00692 0.05000
H 	H 	0.61908 0.26038 0.41007 0.17500
Cu	Cu	0.65035 0.26035 0.00045 0.93000
H 	H 	0.84198 0.29023 0.42230 0.03600
H 	H 	0.84380 0.29695 0.99755 0.03400
C 	C 	0.93991 0.99854 0.43069 0.02900
C 	C 	0.94554 0.97517 0.00086 -0.08000
C 	C 	0.96957 0.94845 0.99606 0.03800
C 	C 	0.02472 0.97705 0.99175 -0.08200
H 	H 	0.90282 0.95305 0.00409 0.05200
H 	H 	0.04333 0.95639 0.98802 0.05300
C 	C 	0.99760 0.95488 0.44409 -0.06800
C 	C 	0.94111 0.92298 0.44309 0.02900
C 	C 	0.91220 0.94477 0.43615 -0.07400
H 	H 	0.01988 0.93796 0.44903 0.04800
H 	H 	0.86851 0.92016 0.43536 0.05000
Cu	Cu	0.70626 0.26827 0.89861 0.87300
Cu	Cu	0.68776 0.34817 0.93633 0.89900
Cu	Cu	0.64445 0.35640 0.03077 0.89600
C 	C 	0.65486 0.29648 0.10612 0.30600
C 	C 	0.67964 0.31463 0.82524 0.30600
O 	O 	0.69305 0.34378 0.00801 -0.64000
O 	O 	0.65119 0.26936 0.92748 -0.64000
O 	O 	0.75203 0.28186 0.96104 -0.43600
O 	O 	0.62946 0.31647 0.08916 -0.38100
O 	O 	0.72705 0.42504 0.95011 -0.38000
C 	C 	0.71756 0.45194 0.98323 0.29300
O 	O 	0.58117 0.29895 0.96514 -0.39000
O 	O 	0.67733 0.42733 0.00943 -0.39100
O 	O 	0.66064 0.26572 0.07399 -0.34700
O 	O 	0.69580 0.35411 0.86370 -0.38400
O 	O 	0.67786 0.27271 0.83349 -0.40300
H 	H 	0.73076 0.36715 0.02842 0.17700
Cu	Cu	0.72824 0.33933 0.43146 0.92900
Cu	Cu	0.72746 0.29334 0.53811 0.87300
Cu	Cu	0.64322 0.30818 0.50064 0.89900
Cu	Cu	0.62842 0.34340 0.40262 0.90100
C 	C 	0.68284 0.32488 0.32576 0.30500
O 	O 	0.76295 0.41857 0.43582 -0.35900
C 	C 	0.68297 0.32217 0.61213 0.30600
O 	O 	0.64355 0.29823 0.42820 -0.63800
O 	O 	0.72347 0.34411 0.50569 -0.64000
O 	O 	0.76517 0.30357 0.43017 -0.36900
O 	O 	0.66439 0.35201 0.34154 -0.37100
O 	O 	0.56464 0.26925 0.49045 -0.37800
C 	C 	0.53520 0.27487 0.45557 0.29200
C 	C 	0.74110 0.44045 0.45615 0.28500
O 	O 	0.69058 0.40965 0.46368 -0.38800
O 	O 	0.55850 0.31356 0.42837 -0.38500
O 	O 	0.71825 0.32393 0.35752 -0.35600
O 	O 	0.64135 0.30522 0.57472 -0.38400
O 	O 	0.72629 0.32578 0.60228 -0.40300
H 	H 	0.74654 0.38085 0.52653 0.18200
C 	C 	0.71764 0.36808 0.75665 -0.03900
C 	C 	0.67411 0.32240 0.77165 -0.08800
C 	C 	0.62876 0.28140 0.73389 0.12300
C 	C 	0.63006 0.28365 0.68144 -0.04000
C 	C 	0.67621 0.32674 0.66629 -0.08800
C 	C 	0.71875 0.37053 0.70419 0.12300
Br	Br	0.77814 0.43428 0.68508 -0.25300
H 	H 	0.75174 0.40072 0.78565 0.06400
C 	C 	0.61662 0.26886 0.18521 -0.03400
C 	C 	0.66247 0.29582 0.16160 -0.08300
C 	C 	0.71528 0.32610 0.19207 0.12100
C 	C 	0.72175 0.33243 0.24604 -0.03300
C 	C 	0.67580 0.30869 0.26981 -0.08400
C 	C 	0.62305 0.27491 0.23907 0.12300
H 	H 	0.76249 0.35777 0.26950 0.07000
Br	Br	0.77900 0.36127 0.16084 -0.25600
C 	C 	0.77004 0.49903 0.46311 -0.08700
C 	C 	0.80920 0.52911 0.43291 0.01700
C 	C 	0.83082 0.58292 0.43407 -0.06900
C 	C 	0.81370 0.60717 0.46549 0.04200
C 	C 	0.77650 0.57803 0.49734 -0.06800
C 	C 	0.75483 0.52421 0.49630 0.01600
C 	C 	0.83254 0.66120 0.46333 -0.02400
C 	C 	0.84859 0.70646 0.46118 -0.01300
C 	C 	0.86811 0.76052 0.45812 0.02100
C 	C 	0.85358 0.77187 0.41212 -0.04500
C 	C 	0.87564 0.82485 0.40788 -0.03300
C 	C 	0.91244 0.86680 0.44963 -0.00400
C 	C 	0.92557 0.85515 0.49619 -0.03300
C 	C 	0.90350 0.80218 0.50038 -0.04500
H 	H 	0.82151 0.51040 0.40722 0.04100
H 	H 	0.85995 0.60537 0.40966 0.05200
H 	H 	0.76357 0.59672 0.52219 0.05100
H 	H 	0.72542 0.50184 0.52049 0.03700
H 	H 	0.82604 0.73982 0.37935 0.04300
H 	H 	0.86531 0.83343 0.37177 0.03900
H 	H 	0.95380 0.88724 0.52870 0.03900
H 	H 	0.91469 0.79368 0.53614 0.04400
C 	C 	0.93668 0.89023 0.99423 -0.00700
C 	C 	0.92680 0.85591 0.94916 -0.03100
C 	C 	0.89818 0.80099 0.94827 -0.04600
C 	C 	0.87923 0.78003 0.99237 0.02100
C 	C 	0.88822 0.81408 0.03717 -0.04600
C 	C 	0.91687 0.86906 0.03811 -0.03100
C 	C 	0.85166 0.72381 0.99194 -0.01300
C 	C 	0.82864 0.67663 0.99099 -0.02400
C 	C 	0.80136 0.62025 0.98930 0.04300
C 	C 	0.78213 0.59791 0.03274 -0.07000
C 	C 	0.75526 0.54304 0.03097 0.01800
C 	C 	0.74739 0.51009 0.98561 -0.08600
C 	C 	0.76713 0.53277 0.94223 0.01900
C 	C 	0.79398 0.58764 0.94414 -0.06900
H 	H 	0.94173 0.87189 0.91503 0.03900
H 	H 	0.89118 0.77483 0.91346 0.04400
H 	H 	0.87354 0.79808 0.07137 0.04300
H 	H 	0.92434 0.89527 0.07309 0.03800
H 	H 	0.78792 0.62300 0.06786 0.05000
H 	H 	0.74073 0.52621 0.06486 0.03100
H 	H 	0.76101 0.50783 0.90685 0.04300
H 	H 	0.80881 0.60472 0.91041 0.05300
H 	H 	0.49262 0.28726 0.93755 0.03500
