data_crystal

_cell_length_a 18.42027
_cell_length_b 17.74627
_cell_length_c 46.94286
_cell_angle_alpha 90.75702
_cell_angle_beta  91.02149
_cell_angle_gamma 110.93110

_symmetry_space_group_name_	'P 1'
_symmetry_space_group_name_H-M	'P 1'

loop_
_symmetry_equiv_pos_as_xyz
  x,y,z

loop_
_atom_site_label
_atom_site_type_symbol
_atom_site_fract_x
_atom_site_fract_y
_atom_site_fract_z
_atom_site_charge
O 	O 	0.09259 0.87148 0.75628 -0.69500
Ni	Ni	0.11213 0.97954 0.77562 1.09600
O 	O 	0.13789 0.76677 0.71707 -0.39700
Ni	Ni	0.19168 0.86950 0.74278 1.07000
O 	O 	0.18322 0.95314 0.71496 -0.43300
O 	O 	0.20019 0.98126 0.80299 -0.38600
O 	O 	0.02571 0.97589 0.74754 -0.72100
O 	O 	0.10069 0.07738 0.79649 -0.35300
H 	H 	0.06756 0.82633 0.76915 0.15200
H 	H 	0.03903 0.02564 0.73629 0.17700
C 	C 	0.21199 0.02991 0.72292 0.29100
C 	C 	0.06878 0.74848 0.70484 0.29700
C 	C 	0.26542 0.97730 0.79344 0.27900
C 	C 	0.03136 0.07212 0.80519 0.26400
O 	O 	0.19130 0.05390 0.74752 -0.35700
O 	O 	0.27091 0.96047 0.76634 -0.41800
Ni	Ni	0.35371 0.76402 0.40297 1.10000
O 	O 	0.33156 0.69224 0.36657 -0.69700
Ni	Ni	0.22558 0.69441 0.35547 1.09600
O 	O 	0.44038 0.73016 0.42005 -0.36500
O 	O 	0.41760 0.60740 0.39925 -0.40900
O 	O 	0.44007 0.85603 0.38374 -0.36400
Ni	Ni	0.31506 0.57923 0.37542 1.06600
O 	O 	0.35361 0.93945 0.41070 -0.41900
O 	O 	0.25370 0.58876 0.41019 -0.43100
O 	O 	0.19997 0.61173 0.32267 -0.38200
O 	O 	0.25461 0.77428 0.38909 -0.71000
O 	O 	0.36794 0.83830 0.43751 -0.38000
O 	O 	0.12778 0.72003 0.34566 -0.36000
O 	O 	0.19780 0.85494 0.34364 -0.41300
Ni	Ni	0.27716 0.88586 0.37791 1.06300
H 	H 	0.36990 0.71361 0.35145 0.16000
H 	H 	0.21591 0.75991 0.40430 0.15200
C 	C 	0.18300 0.59036 0.40736 0.28600
O 	O 	0.36335 0.88809 0.35092 -0.41800
C 	C 	0.43339 0.65433 0.42215 0.30100
C 	C 	0.19825 0.53835 0.32728 0.28400
C 	C 	0.43253 0.89317 0.36042 0.28200
C 	C 	0.13034 0.79496 0.34453 0.26700
C 	C 	0.35355 0.90566 0.43569 0.29600
O 	O 	0.15799 0.60701 0.38250 -0.36500
O 	O 	0.21495 0.51904 0.35291 -0.40900
Ni	Ni	0.34699 0.69764 0.13242 1.10000
O 	O 	0.24855 0.66027 0.10673 -0.69500
Ni	Ni	0.18057 0.70873 0.12724 1.10200
O 	O 	0.40040 0.64158 0.10595 -0.37600
O 	O 	0.29864 0.52277 0.10940 -0.40400
O 	O 	0.38009 0.79389 0.10618 -0.40500
Ni	Ni	0.19609 0.54454 0.10278 1.07500
O 	O 	0.39549 0.80291 0.19085 -0.41200
O 	O 	0.17849 0.53393 0.14536 -0.40600
O 	O 	0.09264 0.67876 0.09767 -0.37600
O 	O 	0.27259 0.73204 0.15518 -0.69800
O 	O 	0.13761 0.78834 0.14646 -0.37000
O 	O 	0.25564 0.88663 0.14199 -0.41300
Ni	Ni	0.32644 0.84489 0.16708 1.07500
H 	H 	0.25923 0.68349 0.08751 0.15400
H 	H 	0.25721 0.69779 0.17213 0.16400
C 	C 	0.11909 0.54696 0.15612 0.28700
O 	O 	0.41690 0.89534 0.13978 -0.39200
C 	C 	0.36307 0.56680 0.09705 0.29300
C 	C 	0.07417 0.61002 0.08319 0.28600
C 	C 	0.42446 0.86639 0.11454 0.31600
C 	C 	0.18155 0.86528 0.14761 0.26800
O 	O 	0.11004 0.61670 0.15230 -0.36200
O 	O 	0.08774 0.54798 0.09440 -0.40500
O 	O 	0.03840 0.22724 0.23993 -0.37100
O 	O 	0.09993 0.10999 0.23161 -0.39600
O 	O 	0.00863 0.10592 0.19703 -0.36500
Ni	Ni	0.04339 0.06852 0.26863 1.06500
O 	O 	0.05428 0.18047 0.28367 -0.41400
C 	C 	0.06134 0.24072 0.26671 0.28800
C 	C 	0.06772 0.08614 0.20594 0.27200
C 	C 	0.05506 0.47835 0.16792 -0.05700
C 	C 	0.03065 0.48373 0.19580 -0.02200
C 	C 	0.97578 0.41608 0.20831 0.01900
C 	C 	0.96031 0.34160 0.16345 0.00900
C 	C 	0.02031 0.40572 0.15189 -0.00700
H 	H 	0.05699 0.53918 0.20822 0.04800
C 	C 	0.05024 0.39333 0.12469 0.06600
N 	N 	0.07401 0.38234 0.10298 -0.15000
C 	C 	0.09846 0.03773 0.18720 -0.06200
C 	C 	0.04626 0.97184 0.17165 -0.03900
C 	C 	0.07273 0.91682 0.15754 0.01200
C 	C 	0.15212 0.92604 0.15984 -0.07200
C 	C 	0.20480 0.99483 0.17392 -0.03500
C 	C 	0.17871 0.05150 0.18691 0.00800
H 	H 	0.98471 0.96243 0.17106 0.05100
H 	H 	0.26629 0.00407 0.17492 0.03800
C 	C 	0.23497 0.12507 0.19891 0.08200
C 	C 	0.01873 0.85347 0.13988 0.07200
N 	N 	0.28004 0.18399 0.20851 -0.10800
C 	C 	0.15256 0.47269 0.30766 -0.06400
C 	C 	0.18597 0.45877 0.28246 -0.01800
C 	C 	0.15380 0.38457 0.26772 0.00500
C 	C 	0.08818 0.32356 0.27856 -0.07000
C 	C 	0.05074 0.34061 0.30216 -0.02100
C 	C 	0.08172 0.41530 0.31641 0.01000
H 	H 	0.23913 0.50394 0.27516 0.03300
H 	H 	0.99832 0.29501 0.30979 0.03700
C 	C 	0.04133 0.43220 0.34037 0.08700
C 	C 	0.19001 0.37058 0.24214 0.08300
N 	N 	0.00902 0.44573 0.35957 -0.10800
N 	N 	0.21893 0.35934 0.22164 -0.10300
C 	C 	0.02377 0.79578 0.31060 -0.01000
C 	C 	0.05850 0.81078 0.33813 -0.06100
C 	C 	0.03078 0.85173 0.35846 -0.03400
H 	H 	0.05408 0.85945 0.38014 0.01900
C 	C 	0.04554 0.74686 0.29004 0.08000
N 	N 	0.06297 0.70763 0.27357 -0.11400
C 	C 	0.35771 0.95304 0.46189 -0.13100
C 	C 	0.29383 0.92903 0.47988 -0.01900
C 	C 	0.30193 0.95617 0.50839 0.04600
H 	H 	0.23867 0.88582 0.47209 0.02100
N 	N 	0.23969 0.93037 0.52569 -0.19100
H 	H 	0.18607 0.89041 0.51789 0.08000
H 	H 	0.24348 0.95048 0.54685 0.08600
C 	C 	0.12598 0.55149 0.42930 -0.10300
C 	C 	0.08235 0.59266 0.44285 0.12000
C 	C 	0.04369 0.56206 0.46801 -0.09600
C 	C 	0.04357 0.48875 0.47878 0.00100
C 	C 	0.08154 0.44414 0.46391 0.05800
C 	C 	0.12241 0.47606 0.43929 -0.02000
N 	N 	0.07603 0.66034 0.43162 -0.20800
N 	N 	0.08007 0.37146 0.47338 -0.19200
H 	H 	0.15348 0.44313 0.42830 0.04000
N 	N 	0.11862 0.52682 0.53435 -0.19000
H 	H 	0.14614 0.54473 0.55427 0.08500
H 	H 	0.15251 0.54288 0.51626 0.08700
H 	H 	0.10881 0.33929 0.46234 0.08300
H 	H 	0.05036 0.34598 0.49165 0.08800
H 	H 	0.08939 0.67534 0.41049 0.08700
H 	H 	0.05051 0.69461 0.44323 0.07700
C 	C 	0.46225 0.62831 0.44854 -0.11100
C 	C 	0.49965 0.57107 0.44786 0.12900
C 	C 	0.50903 0.53415 0.47320 -0.10000
N 	N 	0.53279 0.55695 0.42370 -0.20400
H 	H 	0.53345 0.48688 0.47252 0.05600
N 	N 	0.38617 0.46228 0.53979 -0.19200
H 	H 	0.34610 0.42801 0.55438 0.08400
H 	H 	0.36470 0.47731 0.52082 0.08700
H 	H 	0.54532 0.59766 0.40703 0.10200
H 	H 	0.55417 0.50979 0.42269 0.08400
C 	C 	0.43774 0.17728 0.69429 -0.06200
C 	C 	0.37874 0.21006 0.69608 -0.01300
C 	C 	0.30384 0.16224 0.70469 0.00800
C 	C 	0.28712 0.08026 0.71093 -0.07000
C 	C 	0.34525 0.04708 0.70819 0.01200
C 	C 	0.42047 0.09499 0.70079 -0.00300
H 	H 	0.39121 0.27282 0.69097 0.04900
H 	H 	0.33254 0.98400 0.71287 0.01300
C 	C 	0.47946 0.05891 0.70032 0.07100
C 	C 	0.24419 0.19716 0.70625 0.08000
N 	N 	0.19639 0.22515 0.70749 -0.10800
C 	C 	0.02494 0.59775 0.05701 -0.12000
C 	C 	0.99628 0.65342 0.01276 0.06700
C 	C 	0.03124 0.66445 0.04008 -0.03500
H 	H 	0.06388 0.72500 0.04805 0.04600
H 	H 	0.07441 0.62335 0.96666 0.08300
H 	H 	0.02439 0.77705 0.00634 0.07800
C 	C 	0.55103 0.99683 0.04503 -0.02300
C 	C 	0.52894 0.88804 0.07867 0.12500
C 	C 	0.47999 0.91826 0.09439 -0.10400
C 	C 	0.47486 0.99273 0.08728 -0.04700
C 	C 	0.51089 0.03300 0.06286 0.08600
H 	H 	0.43985 0.01758 0.09999 0.05900
N 	N 	0.50623 0.10574 0.05653 -0.19600
H 	H 	0.47443 0.13084 0.06930 0.08700
H 	H 	0.53605 0.13920 0.03948 0.08900
C 	C 	0.38505 0.53738 0.07021 -0.12600
C 	C 	0.34490 0.47323 0.02335 0.05100
C 	C 	0.32635 0.49677 0.05005 -0.01700
N 	N 	0.28682 0.43339 0.00431 -0.19100
H 	H 	0.26595 0.48455 0.05499 -0.00100
H 	H 	0.44964 0.35399 0.01126 0.05900
H 	H 	0.22866 0.41906 0.00967 0.07800
H 	H 	0.29861 0.41711 0.98394 0.08800
C 	C 	0.33818 0.01868 0.80996 -0.05800
C 	C 	0.40044 0.07724 0.79665 -0.01200
C 	C 	0.46999 0.11794 0.81175 0.00300
C 	C 	0.47772 0.10043 0.84060 -0.06900
C 	C 	0.41565 0.04185 0.85393 -0.01100
C 	C 	0.34618 0.00064 0.83876 0.00900
H 	H 	0.39428 0.09190 0.77458 0.05500
H 	H 	0.42172 0.02791 0.87608 0.04500
C 	C 	0.28434 0.93859 0.85269 0.06000
N 	N 	0.23482 0.88889 0.86385 -0.12100
Ni	Ni	0.62980 0.27494 0.90062 1.09700
O 	O 	0.64589 0.33728 0.86372 -0.70300
Ni	Ni	0.74977 0.33470 0.85154 1.10000
O 	O 	0.54225 0.31295 0.91353 -0.38200
O 	O 	0.61602 0.44642 0.90960 -0.41200
O 	O 	0.54406 0.17646 0.88210 -0.37300
Ni	Ni	0.64821 0.44852 0.86715 1.06800
O 	O 	0.62748 0.10066 0.91026 -0.40900
O 	O 	0.72702 0.26245 0.88653 -0.70200
O 	O 	0.62045 0.20864 0.93612 -0.39100
O 	O 	0.77803 0.16993 0.84371 -0.40200
Ni	Ni	0.70290 0.14805 0.87782 1.06900
H 	H 	0.60576 0.30807 0.84920 0.15900
H 	H 	0.76894 0.28161 0.90131 0.15900
O 	O 	0.61557 0.13953 0.84928 -0.40700
C 	C 	0.55660 0.38896 0.92047 0.28800
C 	C 	0.54940 0.14428 0.85724 0.28300
C 	C 	0.62766 0.13742 0.93511 0.29400
O 	O 	0.68036 0.46969 0.82611 -0.41200
Ni	Ni	0.61653 0.32088 0.63694 1.10000
O 	O 	0.70654 0.35341 0.60894 -0.69500
Ni	Ni	0.77686 0.30148 0.62593 1.10200
O 	O 	0.55811 0.37716 0.61248 -0.36900
O 	O 	0.66324 0.49421 0.61380 -0.39800
O 	O 	0.57237 0.22140 0.61108 -0.40700
Ni	Ni	0.76344 0.46893 0.60693 1.07500
O 	O 	0.57789 0.21662 0.69464 -0.40300
O 	O 	0.69522 0.28367 0.65669 -0.69600
O 	O 	0.52180 0.27929 0.66332 -0.37800
O 	O 	0.70653 0.12428 0.64431 -0.40700
Ni	Ni	0.64233 0.17314 0.66946 1.07800
H 	H 	0.68908 0.33059 0.58958 0.15900
H 	H 	0.71733 0.31931 0.67350 0.16700
O 	O 	0.54668 0.11968 0.64300 -0.39200
C 	C 	0.59644 0.44838 0.60192 0.29200
C 	C 	0.52776 0.15099 0.62004 0.32300
C 	C 	0.51579 0.22779 0.68419 0.28800
O 	O 	0.44881 0.74518 0.15692 -0.37900
C 	C 	0.45659 0.79323 0.17964 0.29100
C 	C 	0.70889 0.05874 0.29666 0.28400
O 	O 	0.70180 0.07058 0.26925 -0.40300
C 	C 	0.68293 0.94305 0.21186 -0.05600
C 	C 	0.62492 0.97573 0.20756 -0.01600
C 	C 	0.55108 0.92767 0.19749 0.01000
C 	C 	0.53514 0.84552 0.19005 -0.07000
C 	C 	0.59442 0.81342 0.19309 -0.00700
C 	C 	0.66799 0.86155 0.20432 0.00000
H 	H 	0.63664 0.03863 0.21307 0.03800
H 	H 	0.58291 0.75080 0.18725 0.04500
C 	C 	0.72799 0.82741 0.20744 0.07900
C 	C 	0.49183 0.96328 0.19546 0.06500
N 	N 	0.77613 0.80010 0.20994 -0.11600
N 	N 	0.44470 0.99225 0.19401 -0.14600
C 	C 	0.63753 0.02961 0.31429 -0.06900
C 	C 	0.64456 0.01100 0.34296 -0.00200
C 	C 	0.57847 0.97092 0.35876 -0.00800
C 	C 	0.50354 0.94442 0.34534 -0.06100
C 	C 	0.49625 0.96790 0.31728 -0.02900
C 	C 	0.56206 0.01395 0.30231 0.01400
H 	H 	0.70169 0.02801 0.35310 0.05100
H 	H 	0.43909 0.95200 0.30725 0.04500
C 	C 	0.55087 0.05144 0.27630 0.07300
C 	C 	0.58836 0.96126 0.38894 0.09000
N 	N 	0.54159 0.08166 0.25555 -0.12100
N 	N 	0.59663 0.95363 0.41309 -0.11000
C 	C 	0.46530 0.09948 0.60083 -0.12400
C 	C 	0.41519 0.13194 0.58658 0.14100
C 	C 	0.37960 0.09708 0.56057 -0.10500
C 	C 	0.39027 0.02814 0.54955 0.01500
C 	C 	0.42857 0.98764 0.56646 0.03700
C 	C 	0.46644 0.02416 0.59199 0.00900
N 	N 	0.40164 0.19665 0.59771 -0.20500
H 	H 	0.34644 0.12557 0.54830 0.06000
C 	C 	0.37536 0.00851 0.51884 0.01100
N 	N 	0.43075 0.91494 0.55794 -0.18800
H 	H 	0.50118 0.99668 0.60388 0.03600
C 	C 	0.43712 0.03845 0.50014 -0.10400
C 	C 	0.42906 0.01133 0.47167 0.14900
H 	H 	0.49251 0.08096 0.50804 0.06100
N 	N 	0.49024 0.04042 0.45403 -0.20700
H 	H 	0.54356 0.08121 0.46176 0.09200
H 	H 	0.48502 0.02487 0.43239 0.11400
H 	H 	0.46157 0.88675 0.57001 0.08500
H 	H 	0.39981 0.88455 0.53982 0.08800
H 	H 	0.42123 0.21861 0.61826 0.10400
H 	H 	0.36799 0.22318 0.58637 0.09100
C 	C 	0.49479 0.56335 0.49964 0.00100
C 	C 	0.46606 0.62756 0.50056 0.06000
C 	C 	0.44674 0.65675 0.47496 -0.02400
C 	C 	0.51904 0.53262 0.52603 0.00000
N 	N 	0.45737 0.66167 0.52580 -0.19200
H 	H 	0.41972 0.70192 0.47562 0.04600
C 	C 	0.59835 0.54819 0.53101 -0.09300
C 	C 	0.62315 0.51225 0.55370 0.11500
C 	C 	0.56959 0.47238 0.57477 -0.11100
C 	C 	0.49008 0.45721 0.57007 -0.02100
C 	C 	0.46386 0.48385 0.54518 0.05800
H 	H 	0.64033 0.58345 0.51593 0.05700
N 	N 	0.69605 0.50984 0.55377 -0.19900
H 	H 	0.44848 0.42409 0.58564 0.04800
H 	H 	0.73752 0.54570 0.53991 0.07300
H 	H 	0.70911 0.46565 0.56489 -0.00200
H 	H 	0.43432 0.70762 0.52622 0.08400
H 	H 	0.47530 0.64481 0.54512 0.09100
C 	C 	0.86919 0.18839 0.70161 0.07100
N 	N 	0.87922 0.24937 0.71320 -0.11200
N 	N 	0.52645 0.02966 0.70005 -0.14300
N 	N 	0.73173 0.42344 0.94737 -0.19000
H 	H 	0.70040 0.41337 0.96616 0.08200
H 	H 	0.71070 0.38207 0.93048 0.01800
C 	C 	0.61052 0.08917 0.96105 -0.11300
C 	C 	0.53338 0.03874 0.96697 0.13200
C 	C 	0.51592 0.00734 0.99433 -0.09100
C 	C 	0.57341 0.02672 0.01597 0.01200
C 	C 	0.65108 0.07461 0.00981 0.05600
C 	C 	0.66895 0.10453 0.98223 -0.02500
N 	N 	0.47563 0.02143 0.94671 -0.20000
H 	H 	0.45685 0.96920 0.99900 0.05000
N 	N 	0.70825 0.09362 0.03032 -0.19100
H 	H 	0.72796 0.14298 0.97761 0.03100
C 	C 	0.56197 0.92621 0.05358 -0.08900
H 	H 	0.59538 0.90032 0.04047 0.05400
N 	N 	0.54497 0.82307 0.08774 -0.20200
H 	H 	0.57749 0.79819 0.07524 0.09100
H 	H 	0.52890 0.79946 0.10789 0.10500
H 	H 	0.76541 0.12891 0.02553 0.08500
H 	H 	0.69670 0.07420 0.05121 0.09200
H 	H 	0.48637 0.04323 0.92609 0.11000
H 	H 	0.41876 0.98503 0.95144 0.08000
C 	C 	0.46393 0.55390 0.06365 0.13700
C 	C 	0.48254 0.53415 0.03639 -0.10300
C 	C 	0.42381 0.49201 0.01653 0.00400
N 	N 	0.52148 0.58464 0.08378 -0.20500
H 	H 	0.54293 0.54750 0.03116 0.05900
C 	C 	0.44566 0.45944 0.99025 0.00100
C 	C 	0.46144 0.38810 0.99178 -0.09800
C 	C 	0.50074 0.36567 0.96989 0.12900
C 	C 	0.51494 0.40964 0.94423 -0.10900
C 	C 	0.49279 0.47726 0.94179 -0.02300
C 	C 	0.45959 0.50359 0.96478 0.05700
N 	N 	0.52974 0.30633 0.97450 -0.20100
H 	H 	0.50289 0.51051 0.92213 0.03100
N 	N 	0.44113 0.57094 0.96224 -0.19200
H 	H 	0.51108 0.26791 0.99171 0.08900
H 	H 	0.57754 0.30440 0.96349 0.09700
H 	H 	0.45272 0.60385 0.94349 0.08000
H 	H 	0.41411 0.59063 0.97859 0.08500
H 	H 	0.50903 0.58689 0.10531 0.10300
H 	H 	0.57978 0.60145 0.07826 0.08800
C 	C 	0.53227 0.17922 0.79770 0.06700
N 	N 	0.58213 0.22829 0.78643 -0.12100
C 	C 	0.78229 0.14849 0.64780 0.27300
O 	O 	0.04588 0.80541 0.69537 -0.37100
N 	N 	0.97543 0.80278 0.12572 -0.09700
C 	C 	0.04120 0.48257 0.53238 0.04500
N 	N 	0.99678 0.71882 0.99783 -0.18800
N 	N 	0.04210 0.60739 0.94761 -0.19800
H 	H 	0.07225 0.61786 0.92854 0.08300
C 	C 	0.97029 0.83204 0.30260 -0.01100
O 	O 	0.78928 0.47765 0.64947 -0.41000
N 	N 	0.80383 0.82260 0.63523 -0.10900
H 	H 	0.91021 0.06884 0.72121 0.00200
H 	H 	0.93286 0.28680 0.15077 0.05000
C 	C 	0.85667 0.11220 0.68714 -0.00500
H 	H 	0.01249 0.59479 0.47903 0.05300
H 	H 	0.94858 0.82615 0.28073 0.03100
C 	C 	0.75651 0.99410 0.22600 0.26600
N 	N 	0.15385 0.71369 0.63874 -0.11600
N 	N 	0.04294 0.21285 0.74706 -0.11000
C 	C 	0.97711 0.88752 0.35041 0.01600
H 	H 	0.96839 0.71268 0.97803 0.09100
C 	C 	0.02250 0.20457 0.77037 0.04800
C 	C 	0.95110 0.93195 0.37135 0.07400
N 	N 	0.93024 0.96757 0.38814 -0.11400
H 	H 	0.95695 0.63915 0.73423 0.04000
C 	C 	0.95334 0.88492 0.32159 -0.07200
O 	O 	0.99904 0.02348 0.30786 -0.39900
C 	C 	0.95785 0.42047 0.23797 0.07900
N 	N 	0.94353 0.42406 0.26174 -0.11400
C 	C 	0.97908 0.51939 0.04692 0.13700
N 	N 	0.95161 0.45719 0.06514 -0.20400
H 	H 	0.95007 0.46787 0.08701 0.11200
H 	H 	0.92363 0.39828 0.05729 0.08900
C 	C 	0.94140 0.34373 0.19214 -0.07000
O 	O 	0.76017 0.50871 0.88131 -0.39300
O 	O 	0.77400 0.41450 0.81849 -0.36100
O 	O 	0.84449 0.30548 0.84108 -0.35400
C 	C 	0.80221 0.47125 0.89317 0.29100
C 	C 	0.75049 0.47683 0.81764 0.29100
C 	C 	0.84437 0.23155 0.84321 0.27300
O 	O 	0.82435 0.42166 0.87788 -0.37300
O 	O 	0.85484 0.32788 0.59407 -0.37300
O 	O 	0.82561 0.22365 0.64275 -0.36100
C 	C 	0.84754 0.45884 0.65917 0.29100
C 	C 	0.87448 0.39917 0.58215 0.29200
O 	O 	0.85726 0.39272 0.65001 -0.36000
O 	O 	0.86800 0.46138 0.59634 -0.40800
Ni	Ni	0.02179 0.88232 0.72306 1.10200
O 	O 	0.92954 0.78717 0.73775 -0.36600
O 	O 	0.86207 0.89806 0.72855 -0.39600
O 	O 	0.94709 0.89862 0.69348 -0.35600
O 	O 	0.97303 0.00262 0.80370 -0.39400
Ni	Ni	0.92424 0.94961 0.76483 1.06900
O 	O 	0.92018 0.84221 0.78100 -0.41000
C 	C 	0.91038 0.77888 0.76461 0.28900
C 	C 	0.88932 0.91905 0.70278 0.28500
Ni	Ni	0.94160 0.13142 0.22672 1.11100
O 	O 	0.87924 0.15235 0.26017 -0.69500
Ni	Ni	0.85820 0.04669 0.27994 1.10100
O 	O 	0.91378 0.20236 0.19793 -0.36800
O 	O 	0.83889 0.25890 0.22176 -0.39200
Ni	Ni	0.78114 0.15761 0.24614 1.07200
O 	O 	0.78598 0.07026 0.21845 -0.42400
O 	O 	0.77347 0.05184 0.30669 -0.38400
O 	O 	0.93950 0.04220 0.25198 -0.69900
O 	O 	0.86948 0.95040 0.30118 -0.36000
H 	H 	0.90781 0.19922 0.27268 0.16300
H 	H 	0.92302 0.99031 0.24116 0.15800
C 	C 	0.89964 0.26638 0.20606 0.29900
C 	C 	0.93971 0.95513 0.30978 0.26500
O 	O 	0.77477 0.97200 0.25140 -0.36100
C 	C 	0.00284 0.45918 0.50553 -0.00700
C 	C 	0.92380 0.41085 0.50410 -0.08500
C 	C 	0.88130 0.38768 0.52903 0.11800
C 	C 	0.91894 0.41371 0.55586 -0.11500
C 	C 	0.99858 0.45984 0.55732 0.00700
H 	H 	0.89496 0.39236 0.48347 0.05800
N 	N 	0.80426 0.34178 0.52703 -0.20300
H 	H 	0.02728 0.47911 0.57794 0.03600
H 	H 	0.77687 0.32386 0.50709 0.08400
H 	H 	0.77091 0.32293 0.54511 0.07100
C 	C 	0.81754 0.09377 0.66039 -0.06800
C 	C 	0.80537 0.01894 0.64697 -0.00300
C 	C 	0.83022 0.96183 0.66028 0.00300
C 	C 	0.86712 0.97946 0.68740 -0.09000
C 	C 	0.88115 0.05503 0.70044 0.00300
H 	H 	0.77533 0.00469 0.62639 0.04600
C 	C 	0.81557 0.88453 0.64637 0.08600
C 	C 	0.91309 0.52187 0.67365 -0.06300
C 	C 	0.97938 0.56333 0.65810 -0.00200
C 	C 	0.03485 0.63485 0.66912 0.00100
C 	C 	0.02456 0.66453 0.69614 -0.07900
C 	C 	0.96283 0.61828 0.71290 0.00500
C 	C 	0.90663 0.54742 0.70170 0.00500
H 	H 	0.98583 0.54200 0.63687 0.05200
C 	C 	0.84279 0.50111 0.71908 0.08200
C 	C 	0.10092 0.67863 0.65226 0.08200
N 	N 	0.79160 0.46370 0.73293 -0.11200
C 	C 	0.95499 0.50785 0.01824 -0.10300
C 	C 	0.96116 0.57415 0.00121 0.00200
H 	H 	0.92507 0.44714 0.00984 0.05700
C 	C 	0.92114 0.55888 0.97292 -0.00200
C 	C 	0.84032 0.51946 0.97180 -0.09200
C 	C 	0.80266 0.48290 0.94641 0.11600
C 	C 	0.84266 0.50187 0.92057 -0.10500
C 	C 	0.92261 0.54713 0.92115 -0.02200
C 	C 	0.96324 0.57213 0.94728 0.06800
H 	H 	0.80820 0.50903 0.99141 0.05700
H 	H 	0.95377 0.56024 0.90137 0.05700
C 	C 	0.01837 0.14250 0.81757 -0.07600
C 	C 	0.00014 0.14081 0.84650 -0.01900
C 	C 	0.94757 0.17602 0.85593 0.00700
C 	C 	0.91552 0.21594 0.83643 -0.06300
C 	C 	0.94499 0.23021 0.80887 -0.01500
C 	C 	0.99696 0.19418 0.79944 0.01700
H 	H 	0.02021 0.10481 0.86097 0.04400
H 	H 	0.92346 0.26458 0.79421 0.05500
C 	C 	0.92439 0.16813 0.88530 0.05200
N 	N 	0.90575 0.16181 0.90883 -0.13400
C 	C 	0.87130 0.69772 0.77577 -0.07300
C 	C 	0.91215 0.66514 0.79434 -0.01000
C 	C 	0.87470 0.59003 0.80663 0.00100
C 	C 	0.79466 0.54787 0.80091 -0.05900
C 	C 	0.75481 0.57908 0.78130 -0.01100
C 	C 	0.79290 0.65324 0.76850 0.00600
H 	H 	0.97310 0.69846 0.79932 0.02700
H 	H 	0.69387 0.54596 0.77623 0.04900
C 	C 	0.75080 0.68385 0.74827 0.08100
C 	C 	0.91873 0.55722 0.82524 0.08600
N 	N 	0.71711 0.70839 0.73205 -0.10800
N 	N 	0.95434 0.53107 0.84006 -0.10500
