data_crystal

_cell_length_a 30.64310
_cell_length_b 31.17545
_cell_length_c 45.19768
_cell_angle_alpha 95.53945
_cell_angle_beta  95.53717
_cell_angle_gamma 125.76280

_symmetry_space_group_name_	'P 1'
_symmetry_space_group_name_H-M	'P 1'

loop_
_symmetry_equiv_pos_as_xyz
  x,y,z

loop_
_atom_site_label
_atom_site_type_symbol
_atom_site_fract_x
_atom_site_fract_y
_atom_site_fract_z
_atom_site_charge
C 	C 	0.05878 0.03292 0.99873 0.11900
N 	N 	0.03362 0.05714 0.99829 -0.14100
N 	N 	0.99621 0.02475 0.46258 -0.14000
C 	C 	0.08193 0.03404 0.46508 -0.02200
C 	C 	0.10325 0.00841 0.45265 -0.01700
C 	C 	0.15939 0.03768 0.45282 -0.05100
C 	C 	0.19467 0.09274 0.46535 0.02600
C 	C 	0.17353 0.11867 0.47737 -0.05200
C 	C 	0.11735 0.08947 0.47723 -0.01700
C 	C 	0.25267 0.12238 0.46625 -0.01500
C 	C 	0.30115 0.14673 0.46687 -0.02400
C 	C 	0.35899 0.17551 0.46753 0.04200
C 	C 	0.39450 0.19009 0.49478 -0.07100
C 	C 	0.45073 0.21832 0.49549 0.01700
C 	C 	0.43601 0.21708 0.44155 0.01600
C 	C 	0.37981 0.18887 0.44092 -0.07200
H 	H 	0.17546 0.01746 0.44335 0.04400
H 	H 	0.20061 0.16129 0.48705 0.04400
H 	H 	0.10155 0.10972 0.48703 0.04000
H 	H 	0.37862 0.17980 0.51544 0.04900
H 	H 	0.45162 0.22704 0.42080 0.02600
H 	H 	0.35251 0.17748 0.41974 0.04800
H 	H 	0.02298 0.13153 0.02497 0.03900
C 	C 	0.41625 0.22743 0.97240 -0.07100
C 	C 	0.38171 0.17575 0.97886 0.04100
C 	C 	0.40195 0.14635 0.98416 -0.07100
C 	C 	0.32686 0.15463 0.98253 -0.02500
C 	C 	0.28078 0.13611 0.98573 -0.01600
C 	C 	0.22597 0.11317 0.99032 0.02500
C 	C 	0.20490 0.07999 0.01176 -0.05200
C 	C 	0.15083 0.05537 0.01530 -0.01500
C 	C 	0.11733 0.06372 0.99736 -0.02500
C 	C 	0.13905 0.09837 0.97653 -0.01700
C 	C 	0.19324 0.12293 0.97298 -0.05300
H 	H 	0.40063 0.25010 0.96787 0.04800
H 	H 	0.37519 0.10602 0.98877 0.04800
H 	H 	0.23020 0.07269 0.02542 0.04400
H 	H 	0.13473 0.02924 0.03170 0.03800
H 	H 	0.11357 0.10504 0.96251 0.03900
H 	H 	0.20943 0.14885 0.95648 0.04400
C 	C 	0.97957 0.02850 0.99974 0.11800
Cu	Cu	0.65290 0.25784 0.99755 0.92800
Cu	Cu	0.69760 0.26204 0.93395 0.87000
Cu	Cu	0.68773 0.34640 0.96061 0.89700
Cu	Cu	0.65473 0.35750 0.01958 0.89400
C 	C 	0.66794 0.29535 0.06100 0.28800
O 	O 	0.57310 0.22665 0.99614 -0.36500
C 	C 	0.66944 0.31168 0.89437 0.28900
O 	O 	0.69852 0.34194 0.00229 -0.64100
O 	O 	0.64806 0.26671 0.95490 -0.64200
O 	O 	0.68508 0.21798 0.99487 -0.37700
O 	O 	0.74760 0.27426 0.96794 -0.44200
O 	O 	0.64379 0.31776 0.05361 -0.38400
O 	O 	0.73005 0.42402 0.96905 -0.38400
C 	C 	0.72530 0.45228 0.99050 0.29000
C 	C 	0.55277 0.25053 0.98544 0.28400
O 	O 	0.58602 0.30124 0.98302 -0.39400
O 	O 	0.68741 0.42876 0.00739 -0.39500
O 	O 	0.66921 0.26318 0.04035 -0.36200
C 	C 	0.73175 0.23863 0.98561 0.29000
O 	O 	0.68962 0.35172 0.91751 -0.39000
O 	O 	0.66504 0.26787 0.89787 -0.42000
H 	H 	0.73735 0.36424 0.01264 0.16300
H 	H 	0.61043 0.24584 0.94295 0.17200
Cu	Cu	0.72908 0.33558 0.46037 0.92700
Cu	Cu	0.72892 0.29751 0.52562 0.87000
Cu	Cu	0.64100 0.30391 0.49854 0.89700
Cu	Cu	0.62543 0.33053 0.43824 0.89300
C 	C 	0.68759 0.31560 0.39680 0.28800
O 	O 	0.75942 0.41348 0.45985 -0.36300
C 	C 	0.67950 0.32699 0.56489 0.28900
O 	O 	0.64361 0.29013 0.45681 -0.64100
O 	O 	0.72208 0.34362 0.50321 -0.64200
O 	O 	0.76975 0.30376 0.46371 -0.37400
O 	O 	0.71442 0.24559 0.49267 -0.44100
O 	O 	0.66426 0.33903 0.40367 -0.38500
O 	O 	0.56191 0.26118 0.49122 -0.38400
C 	C 	0.53141 0.26369 0.46971 0.29000
C 	C 	0.73470 0.43352 0.46990 0.28200
O 	O 	0.68356 0.40090 0.47317 -0.39300
O 	O 	0.55342 0.29852 0.45128 -0.39400
O 	O 	0.72166 0.31645 0.41763 -0.36300
C 	C 	0.74921 0.25899 0.47424 0.28800
O 	O 	0.63787 0.30563 0.54205 -0.39000
O 	O 	0.72437 0.33214 0.56108 -0.42000
H 	H 	0.62109 0.25148 0.44744 0.16300
H 	H 	0.74326 0.38122 0.51427 0.17200
C 	C 	0.65937 0.31941 0.86342 -0.09200
C 	C 	0.69128 0.37097 0.85611 0.01700
C 	C 	0.68716 0.37715 0.82594 -0.07300
C 	C 	0.65102 0.33198 0.80293 0.04400
C 	C 	0.61700 0.28093 0.81033 -0.07400
C 	C 	0.62106 0.27463 0.84045 0.01700
C 	C 	0.65271 0.33716 0.77167 -0.03200
C 	C 	0.65364 0.34084 0.74539 -0.00300
C 	C 	0.65563 0.34414 0.71456 -0.00300
C 	C 	0.65809 0.34611 0.68822 -0.03200
C 	C 	0.66193 0.34737 0.65676 0.04400
C 	C 	0.61549 0.31059 0.63425 -0.07300
C 	C 	0.62067 0.30588 0.60392 0.01700
C 	C 	0.67251 0.33778 0.59593 -0.09300
C 	C 	0.71847 0.37670 0.61838 0.01700
C 	C 	0.71317 0.38136 0.64867 -0.07400
H 	H 	0.72075 0.40596 0.87357 0.03400
H 	H 	0.71334 0.41681 0.82040 0.04900
H 	H 	0.58858 0.24588 0.79267 0.04800
H 	H 	0.59538 0.23479 0.84583 0.02800
H 	H 	0.57568 0.28437 0.64033 0.04900
H 	H 	0.58476 0.27593 0.58685 0.03400
H 	H 	0.75851 0.40235 0.61247 0.02800
H 	H 	0.74919 0.41022 0.66594 0.04800
C 	C 	0.68086 0.29533 0.09327 -0.08700
C 	C 	0.70197 0.34143 0.11507 0.01700
C 	C 	0.70791 0.33969 0.14588 -0.07200
C 	C 	0.69284 0.29191 0.15517 0.04500
C 	C 	0.67401 0.24648 0.13353 -0.07200
C 	C 	0.66813 0.24816 0.10265 0.02100
C 	C 	0.69251 0.28837 0.18669 -0.03100
C 	C 	0.69264 0.28655 0.21322 -0.00100
C 	C 	0.69186 0.28534 0.24431 -0.00100
C 	C 	0.69047 0.28516 0.27087 -0.03100
C 	C 	0.68802 0.28606 0.30256 0.04500
C 	C 	0.63944 0.27040 0.31222 -0.07300
C 	C 	0.63872 0.27786 0.34312 0.01700
C 	C 	0.68666 0.30108 0.36461 -0.08800
C 	C 	0.73469 0.31444 0.35490 0.02100
C 	C 	0.73535 0.30707 0.32395 -0.07200
H 	H 	0.71268 0.37828 0.10812 0.02100
H 	H 	0.72290 0.37509 0.16251 0.04900
H 	H 	0.66252 0.20946 0.14056 0.05100
H 	H 	0.65189 0.21230 0.08610 0.03900
H 	H 	0.60260 0.25382 0.29580 0.04900
H 	H 	0.60124 0.26671 0.35033 0.02100
H 	H 	0.77197 0.33233 0.37122 0.03900
H 	H 	0.77303 0.31911 0.31664 0.05100
C 	C 	0.84318 0.70230 0.47879 -0.01600
C 	C 	0.82593 0.65615 0.47853 -0.02500
C 	C 	0.80577 0.60107 0.47803 0.04000
C 	C 	0.76626 0.56964 0.49512 -0.07100
C 	C 	0.74467 0.51544 0.49345 0.01400
C 	C 	0.76232 0.49216 0.47454 -0.09100
C 	C 	0.80328 0.52432 0.45820 0.01600
C 	C 	0.82481 0.57853 0.45993 -0.07100
H 	H 	0.80000 0.73887 0.44381 0.04500
H 	H 	0.75175 0.58695 0.50940 0.04800
H 	H 	0.71371 0.49140 0.50653 0.03000
H 	H 	0.81731 0.50703 0.44351 0.03700
H 	H 	0.85566 0.60272 0.44682 0.04900
C 	C 	0.76740 0.22521 0.46683 -0.09700
C 	C 	0.82059 0.24867 0.46127 0.01600
C 	C 	0.83986 0.21767 0.45785 -0.07300
C 	C 	0.80609 0.16306 0.45984 0.04100
C 	C 	0.75236 0.13910 0.46421 -0.07300
C 	C 	0.73302 0.16996 0.46765 0.01600
C 	C 	0.82739 0.13224 0.45898 -0.02600
C 	C 	0.84488 0.10614 0.45828 -0.01600
C 	C 	0.86613 0.07527 0.45785 0.02500
C 	C 	0.84990 0.03674 0.47636 -0.05200
C 	C 	0.87333 0.00941 0.47753 -0.01800
C 	C 	0.91333 0.02057 0.46020 -0.02300
C 	C 	0.92834 0.05815 0.44104 -0.01700
C 	C 	0.90487 0.08540 0.43993 -0.05200
H 	H 	0.84757 0.29116 0.46053 0.03200
H 	H 	0.88138 0.23641 0.45429 0.04800
H 	H 	0.72586 0.09680 0.46551 0.04700
H 	H 	0.69162 0.15110 0.47142 0.02800
H 	H 	0.81985 0.02860 0.49024 0.04300
H 	H 	0.95856 0.06664 0.42724 0.04000
H 	H 	0.91738 0.11490 0.42544 0.04400
C 	C 	0.47187 0.23222 0.46888 -0.08900
H 	H 	0.47787 0.23003 0.51678 0.03600
C 	C 	0.75707 0.51096 0.99255 -0.09100
C 	C 	0.77157 0.53364 0.96652 0.01800
C 	C 	0.79866 0.58892 0.96827 -0.07100
C 	C 	0.81150 0.62187 0.99598 0.04000
C 	C 	0.79796 0.59955 0.02205 -0.07100
C 	C 	0.77089 0.54433 0.02038 0.01800
C 	C 	0.83841 0.67854 0.99768 -0.02400
C 	C 	0.86095 0.72606 0.99935 -0.01800
H 	H 	0.76092 0.50837 0.94487 0.03600
H 	H 	0.80923 0.60602 0.94803 0.04900
H 	H 	0.80814 0.62492 0.04358 0.04800
H 	H 	0.76048 0.52746 0.04068 0.02500
C 	C 	0.95217 0.05472 0.99937 -0.02500
C 	C 	0.89707 0.02556 0.98513 -0.01700
C 	C 	0.87069 0.04999 0.98537 -0.05300
C 	C 	0.89912 0.10369 0.99980 0.02600
C 	C 	0.95414 0.13302 0.01388 -0.05300
C 	C 	0.98063 0.10868 0.01369 -0.01500
C 	C 	0.87193 0.12880 0.99993 -0.01900
C 	C 	0.84920 0.14987 0.00005 -0.02300
C 	C 	0.82154 0.17452 0.99968 0.03800
C 	C 	0.84782 0.22645 0.99334 -0.07300
C 	C 	0.81915 0.24831 0.98991 0.01500
C 	C 	0.76377 0.21818 0.99265 -0.09900
C 	C 	0.73827 0.16697 0.00025 0.01800
C 	C 	0.76708 0.14526 0.00368 -0.07200
H 	H 	0.82819 0.02717 0.97433 0.04300
H 	H 	0.97634 0.17460 0.02505 0.04500
H 	H 	0.89012 0.24948 0.99047 0.04700
H 	H 	0.83972 0.28826 0.98465 0.02800
H 	H 	0.69573 0.14332 0.00261 0.03400
H 	H 	0.74664 0.10518 0.00877 0.04800
C 	C 	0.49293 0.22278 0.98006 -0.09100
C 	C 	0.47160 0.25085 0.97285 0.01400
C 	C 	0.45727 0.16961 0.98466 0.01600
H 	H 	0.49814 0.29137 0.96852 0.03100
H 	H 	0.47262 0.14684 0.98948 0.03500
C 	C 	0.86435 0.75767 0.47939 0.02600
C 	C 	0.83800 0.77055 0.45903 -0.05300
H 	H 	0.93350 0.78927 0.51514 0.04400
H 	H 	0.82204 0.77333 0.97220 0.04500
C 	C 	0.88839 0.78291 0.00147 0.02900
C 	C 	0.91318 0.79890 0.49915 -0.05300
C 	C 	0.02306 0.00254 0.46620 0.11700
C 	C 	0.86301 0.80156 0.98555 -0.05500
H 	H 	0.96089 0.80544 0.03133 0.04500
C 	C 	0.94122 0.81963 0.01879 -0.05400
C 	C 	0.86161 0.82448 0.45759 -0.01700
N 	N 	0.02979 0.98003 0.00046 -0.14100
N 	N 	0.99555 0.95117 0.47085 -0.14000
H 	H 	0.07636 0.96584 0.44286 0.04100
N 	N 	0.95074 0.97551 0.00146 -0.14100
C 	C 	0.97581 0.95123 0.00179 0.12100
C 	C 	0.94192 0.99565 0.46348 0.11800
N 	N 	0.91441 0.94399 0.46795 -0.14100
C 	C 	0.94131 0.92177 0.47170 0.11900
C 	C 	0.91189 0.86579 0.47643 -0.02400
C 	C 	0.93686 0.85274 0.49771 -0.01700
H 	H 	0.97528 0.88427 0.51265 0.03900
H 	H 	0.84190 0.83398 0.44109 0.04000
H 	H 	0.86146 0.98069 0.49247 0.04000
C 	C 	0.96918 0.87477 0.01963 -0.01400
C 	C 	0.94446 0.89359 0.00306 -0.02400
C 	C 	0.89089 0.85675 0.98636 -0.01600
H 	H 	0.01020 0.90282 0.03292 0.03800
H 	H 	0.87142 0.87072 0.97341 0.03800
H 	H 	0.87477 0.98410 0.97373 0.03900
