data_crystal

_cell_length_a 25.12495
_cell_length_b 25.88196
_cell_length_c 26.60764
_cell_angle_alpha 95.49466
_cell_angle_beta  95.49421
_cell_angle_gamma 125.78408

_symmetry_space_group_name_	'P 1'
_symmetry_space_group_name_H-M	'P 1'

loop_
_symmetry_equiv_pos_as_xyz
  x,y,z

loop_
_atom_site_label
_atom_site_type_symbol
_atom_site_fract_x
_atom_site_fract_y
_atom_site_fract_z
_atom_site_charge
C 	C 	0.06454 0.03039 0.00602 0.12200
C 	C 	0.13623 0.04176 0.46668 -0.04600
S 	S 	0.16830 0.02018 0.01116 0.00200
N 	N 	0.04519 0.06670 0.02443 -0.14000
C 	C 	0.25622 0.10738 0.50575 -0.05900
C 	C 	0.20032 0.10183 0.48230 0.02400
C 	C 	0.09502 0.04376 0.42890 -0.02000
H 	H 	0.25067 0.06731 0.52073 0.04600
C 	C 	0.22786 0.05977 0.97711 0.00200
C 	C 	0.28661 0.06446 0.98150 -0.05300
C 	C 	0.13551 0.06074 0.00560 -0.02100
H 	H 	0.29203 0.03299 0.00179 0.04400
S 	S 	0.13746 0.11910 0.41680 0.00400
C 	C 	0.33918 0.11316 0.96059 0.01400
C 	C 	0.22515 0.10830 0.96098 0.02300
C 	C 	0.17269 0.10853 0.97641 -0.04600
H 	H 	0.42010 0.10863 0.99361 0.04500
H 	H 	0.70498 0.10939 0.47012 0.03600
H 	H 	0.72919 0.12971 0.04756 0.04400
H 	H 	0.74155 0.03015 0.47297 0.04400
C 	C 	0.20829 0.15101 0.45757 0.00100
C 	C 	0.40573 0.13306 0.97150 -0.02200
H 	H 	0.16092 0.14039 0.96515 0.04600
C 	C 	0.74757 0.13635 0.45145 -0.02700
H 	H 	0.77683 0.06096 0.06583 0.04600
C 	C 	0.31953 0.16342 0.50463 0.00100
S 	S 	0.38801 0.16679 0.50901 0.02300
C 	C 	0.78498 0.06648 0.45849 -0.05600
C 	C 	0.33403 0.15835 0.93981 0.00200
C 	C 	0.27965 0.15991 0.94367 -0.05900
C 	C 	0.77815 0.16339 0.03855 -0.02500
C 	C 	0.79544 0.12414 0.44982 0.01200
H 	H 	0.02550 0.16608 0.02101 0.04600
C 	C 	0.82230 0.10054 0.05558 -0.05500
C 	C 	0.82475 0.14952 0.03483 0.01300
C 	C 	0.83163 0.05668 0.44585 0.00000
C 	C 	0.76288 0.18913 0.42845 -0.08200
C 	C 	0.45200 0.19360 0.95864 -0.07600
C 	C 	0.84822 0.16754 0.42628 -0.00200
C 	C 	0.27126 0.20236 0.45027 -0.05500
H 	H 	0.28083 0.20074 0.93549 0.04700
N 	N 	0.98468 0.01969 0.40996 -0.13800
C 	C 	0.97982 0.03780 0.02683 0.12300
C 	C 	0.87852 0.00468 0.40257 -0.01800
S 	S 	0.88361 0.04266 0.06498 0.00700
C 	C 	0.90641 0.06762 0.39324 -0.04700
C 	C 	0.88115 0.10528 0.06382 0.00000
C 	C 	0.95903 0.07618 0.04936 -0.02000
C 	C 	0.87980 0.09650 0.41754 0.02400
H 	H 	0.94652 0.09264 0.37192 0.05000
C 	C 	0.98358 0.13836 0.04018 -0.04600
C 	C 	0.93959 0.15470 0.04836 0.02300
C 	C 	0.88738 0.15187 0.40579 -0.05800
H 	H 	0.92078 0.18033 0.38064 0.04800
C 	C 	0.88293 0.19870 0.01965 0.00100
C 	C 	0.94186 0.20387 0.02794 -0.06000
H 	H 	0.12103 0.99859 0.48184 0.04700
C 	C 	0.02195 0.99822 0.41923 0.12100
N 	N 	0.01830 0.96551 0.98913 -0.14000
O 	O 	0.55134 0.21135 0.00366 -0.36200
C 	C 	0.52435 0.23491 0.97905 0.28200
O 	O 	0.56224 0.29502 0.97179 -0.38600
H 	H 	0.60550 0.23130 0.91736 0.17200
Cu	Cu	0.61044 0.34293 0.41781 0.89400
O 	O 	0.53671 0.25117 0.50523 -0.38000
C 	C 	0.50073 0.26138 0.47429 0.29000
O 	O 	0.52891 0.30956 0.44854 -0.39400
H 	H 	0.59535 0.24017 0.41996 0.16500
C 	C 	0.32730 0.20876 0.47475 0.01400
C 	C 	0.42910 0.22475 0.47460 -0.07800
C 	C 	0.38975 0.24423 0.45865 -0.01900
H 	H 	0.27612 0.23320 0.42342 0.04600
H 	H 	0.40380 0.27979 0.43420 0.04100
S 	S 	0.41068 0.22217 0.93731 0.01500
H 	H 	0.58190 0.22052 0.75534 0.03400
H 	H 	0.58212 0.22258 0.66285 0.03800
C 	C 	0.62438 0.26148 0.74326 -0.01100
C 	C 	0.62445 0.26275 0.69085 -0.01200
Cu	Cu	0.63168 0.29609 0.51146 0.89800
O 	O 	0.62716 0.28557 0.43864 -0.64100
Cu	Cu	0.65126 0.25500 0.01357 0.92600
Cu	Cu	0.71557 0.25420 0.91154 0.87100
Cu	Cu	0.69474 0.35406 0.94267 0.89800
Cu	Cu	0.64096 0.37076 0.03396 0.89300
C 	C 	0.65776 0.30808 0.11596 0.28000
C 	C 	0.68449 0.30550 0.83412 0.28200
O 	O 	0.70091 0.35471 0.01485 -0.64100
O 	O 	0.65037 0.25926 0.93957 -0.64000
O 	O 	0.69886 0.21450 0.02118 -0.37000
O 	O 	0.62504 0.32898 0.09572 -0.38200
O 	O 	0.67939 0.45305 0.00652 -0.39400
O 	O 	0.66482 0.26849 0.08728 -0.35900
O 	O 	0.70594 0.35588 0.87019 -0.38600
O 	O 	0.67790 0.25394 0.84575 -0.41700
C 	C 	0.67604 0.32796 0.33430 0.28300
C 	C 	0.68557 0.30947 0.62000 0.28200
O 	O 	0.65010 0.35562 0.35420 -0.38400
O 	O 	0.69132 0.42122 0.47697 -0.39100
O 	O 	0.63318 0.28988 0.58497 -0.38500
C 	C 	0.67997 0.31186 0.77988 -0.07000
C 	C 	0.68065 0.31387 0.67464 -0.06900
C 	C 	0.65988 0.26457 0.19557 -0.00800
C 	C 	0.67136 0.31599 0.17238 -0.06500
C 	C 	0.69010 0.37323 0.20324 -0.01200
C 	C 	0.67896 0.32532 0.27924 -0.06300
C 	C 	0.66383 0.26933 0.24888 -0.01200
H 	H 	0.64563 0.22017 0.17226 0.04700
H 	H 	0.65300 0.22876 0.26628 0.04000
H 	H 	0.69639 0.52739 0.46162 0.03600
H 	H 	0.69630 0.56825 0.00705 0.04000
C 	C 	0.72879 0.48087 0.98044 0.29100
Cu	Cu	0.72875 0.33253 0.43730 0.92900
O 	O 	0.72853 0.33790 0.51202 -0.64100
O 	O 	0.70493 0.21497 0.47984 -0.44100
O 	O 	0.71087 0.31493 0.36362 -0.35900
O 	O 	0.73770 0.31502 0.60692 -0.41800
C 	C 	0.73439 0.36498 0.76376 -0.01200
C 	C 	0.73497 0.36571 0.71132 -0.01200
C 	C 	0.69373 0.37783 0.25632 -0.01000
H 	H 	0.70040 0.41369 0.18592 0.02900
H 	H 	0.70713 0.42192 0.27959 0.04200
H 	H 	0.71736 0.63556 0.43671 0.04500
Cu	Cu	0.73393 0.27530 0.54123 0.87100
O 	O 	0.74214 0.44684 0.95147 -0.37900
C 	C 	0.75715 0.24055 0.00728 0.28200
H 	H 	0.74698 0.38488 0.03497 0.16400
C 	C 	0.75104 0.45711 0.46553 0.28400
C 	C 	0.74312 0.23037 0.44525 0.28800
H 	H 	0.75841 0.38226 0.53289 0.17400
C 	C 	0.74651 0.54992 0.45431 -0.02400
C 	C 	0.73643 0.58343 0.98597 -0.01800
H 	H 	0.72881 0.68620 0.00123 0.04400
O 	O 	0.77503 0.27930 0.97386 -0.43600
O 	O 	0.77498 0.42899 0.44366 -0.36100
H 	H 	0.77748 0.40427 0.79176 0.03800
H 	H 	0.77833 0.40570 0.69922 0.03500
C 	C 	0.76281 0.64637 0.42573 -0.05600
C 	C 	0.76416 0.55004 0.97842 -0.07700
O 	O 	0.76963 0.28613 0.43017 -0.37000
C 	C 	0.77984 0.60381 0.42933 0.01400
C 	C 	0.78348 0.52616 0.46557 -0.07700
C 	C 	0.76293 0.69060 0.97688 -0.05200
C 	C 	0.76676 0.63932 0.96311 0.01300
C 	C 	0.80162 0.22477 0.02765 -0.07600
C 	C 	0.80871 0.70528 0.41070 -0.00000
S 	S 	0.81078 0.77096 0.42206 0.00600
C 	C 	0.80767 0.74911 0.96086 -0.00100
C 	C 	0.81661 0.64831 0.93677 0.00200
S 	S 	0.82118 0.98671 0.43935 0.00300
S 	S 	0.82388 0.58941 0.94356 0.02400
S 	S 	0.82799 0.82075 0.98739 0.00700
S 	S 	0.83413 0.21814 0.40657 0.02300
C 	C 	0.84215 0.62168 0.42062 0.00000
S 	S 	0.85587 0.57300 0.44502 0.02400
C 	C 	0.86156 0.75992 0.93920 0.02500
C 	C 	0.86778 0.70973 0.92848 -0.05900
C 	C 	0.87386 0.72581 0.40769 0.02400
C 	C 	0.91736 0.97900 0.40624 0.12100
N 	N 	0.99166 0.93539 0.42318 -0.14100
N 	N 	0.93400 0.97279 0.01032 -0.13900
C 	C 	0.95299 0.93666 0.99104 0.12500
C 	C 	0.92431 0.89408 0.41851 0.12300
N 	N 	0.88714 0.91611 0.41070 -0.13700
C 	C 	0.89181 0.68443 0.41405 -0.05900
C 	C 	0.89233 0.82613 0.42282 -0.02000
C 	C 	0.92078 0.79386 0.41385 -0.04800
H 	H 	0.94310 0.70146 0.41634 0.04700
H 	H 	0.97342 0.81839 0.41356 0.04900
C 	C 	0.90242 0.86711 0.96993 -0.02000
C 	C 	0.91529 0.82657 0.94450 -0.04700
H 	H 	0.91206 0.71880 0.91638 0.04700
H 	H 	0.96361 0.84378 0.93550 0.05000
S 	S 	0.87790 0.25892 0.01322 0.00600
H 	H 	0.98683 0.24289 0.01672 0.04500
