data_crystal

_cell_length_a 27.92523
_cell_length_b 24.11297
_cell_length_c 48.02252
_cell_angle_alpha 90.49175
_cell_angle_beta  90.59465
_cell_angle_gamma 113.33324

_symmetry_space_group_name_	'P 1'
_symmetry_space_group_name_H-M	'P 1'

loop_
_symmetry_equiv_pos_as_xyz
  x,y,z

loop_
_atom_site_label
_atom_site_type_symbol
_atom_site_fract_x
_atom_site_fract_y
_atom_site_fract_z
_atom_site_charge
C 	C 	0.05248 0.99864 0.70813 -0.03400
H 	H 	0.05370 0.00106 0.68502 0.04600
C 	C 	0.04972 0.99267 0.76361 -0.04100
H 	H 	0.04869 0.99012 0.78673 0.05000
C 	C 	0.01787 0.93675 0.71976 0.00400
C 	C 	0.10542 0.01322 0.72254 0.00200
C 	C 	0.01655 0.93365 0.74817 0.00600
C 	C 	0.10407 0.01027 0.75100 0.00300
Ni	Ni	0.24373 0.69710 0.40485 1.10300
O 	O 	0.30859 0.72577 0.38054 -0.70500
Ni	Ni	0.35975 0.71076 0.40532 1.10200
O 	O 	0.20252 0.71926 0.37448 -0.35800
O 	O 	0.26357 0.81636 0.37332 -0.40200
O 	O 	0.22611 0.61570 0.38502 -0.38600
Ni	Ni	0.33640 0.81105 0.37202 1.06800
O 	O 	0.21519 0.64338 0.46803 -0.40300
O 	O 	0.34576 0.83726 0.41288 -0.40900
O 	O 	0.41825 0.73250 0.37723 -0.36700
O 	O 	0.29862 0.69470 0.43161 -0.70000
O 	O 	0.17666 0.66131 0.42804 -0.35400
O 	O 	0.39868 0.67429 0.43095 -0.34800
O 	O 	0.32542 0.58833 0.43637 -0.41100
Ni	Ni	0.27059 0.61869 0.45166 1.07600
H 	H 	0.30308 0.70151 0.36316 0.15700
H 	H 	0.30667 0.72838 0.44520 0.16700
C 	C 	0.38545 0.83707 0.42756 0.30800
O 	O 	0.21522 0.56207 0.42490 -0.39600
C 	C 	0.21998 0.77365 0.36375 0.29200
C 	C 	0.43240 0.78322 0.36305 0.29500
C 	C 	0.21891 0.56521 0.39777 0.31700
C 	C 	0.37567 0.61937 0.44075 0.29200
C 	C 	0.17331 0.63981 0.45367 0.31300
O 	O 	0.40112 0.79255 0.42492 -0.34600
O 	O 	0.41377 0.82458 0.36945 -0.39400
Ni	Ni	0.36351 0.72778 0.06848 1.10400
O 	O 	0.30159 0.69440 0.04139 -0.70500
Ni	Ni	0.24479 0.69813 0.06529 1.10500
O 	O 	0.40608 0.68679 0.04880 -0.36300
O 	O 	0.33667 0.59551 0.04905 -0.39700
O 	O 	0.39934 0.80231 0.04373 -0.36100
Ni	Ni	0.27887 0.61182 0.02725 1.07600
O 	O 	0.40717 0.85480 0.09660 -0.40500
O 	O 	0.22262 0.56039 0.05441 -0.38700
O 	O 	0.18035 0.64532 0.04206 -0.35600
O 	O 	0.30917 0.74463 0.08932 -0.70400
O 	O 	0.42182 0.76722 0.09677 -0.36800
O 	O 	0.19903 0.72422 0.09094 -0.35600
O 	O 	0.25189 0.82385 0.08504 -0.39700
Ni	Ni	0.32849 0.83116 0.09065 1.06800
H 	H 	0.30630 0.72192 0.02554 0.17500
H 	H 	0.30609 0.72847 0.10840 0.16000
C 	C 	0.22317 0.57145 0.08122 0.32500
O 	O 	0.33717 0.84049 0.04881 -0.40000
C 	C 	0.38646 0.62788 0.04462 0.29100
C 	C 	0.18106 0.63012 0.01550 0.31100
C 	C 	0.37990 0.84224 0.03716 0.31200
C 	C 	0.21122 0.78179 0.09671 0.29100
C 	C 	0.42903 0.82030 0.10798 0.29300
O 	O 	0.23596 0.62677 0.09062 -0.38900
O 	O 	0.22217 0.62402 0.00448 -0.40100
C 	C 	0.99031 0.17210 0.20872 0.01200
C 	C 	0.99853 0.25721 0.17968 -0.03900
C 	C 	0.05278 0.27453 0.17893 0.00900
C 	C 	0.07572 0.24063 0.19332 -0.03900
C 	C 	0.04457 0.18943 0.20804 -0.03900
C 	C 	0.08525 0.32672 0.16217 0.01200
C 	C 	0.12243 0.37847 0.17518 -0.04000
C 	C 	0.15214 0.42848 0.15927 -0.02700
C 	C 	0.14491 0.42694 0.13029 -0.00200
C 	C 	0.10821 0.37505 0.11727 -0.02500
C 	C 	0.07849 0.32512 0.13312 -0.03900
C 	C 	0.17405 0.47906 0.11390 0.05700
C 	C 	0.19724 0.52181 0.09943 -0.09300
H 	H 	0.98047 0.28314 0.16869 0.04600
H 	H 	0.11751 0.25344 0.19275 0.04300
H 	H 	0.06250 0.16299 0.21873 0.04100
H 	H 	0.12792 0.38017 0.19759 0.04300
H 	H 	0.18042 0.46843 0.16950 0.04400
H 	H 	0.10244 0.37351 0.09488 0.05200
H 	H 	0.05012 0.28528 0.12287 0.04800
C 	C 	0.95871 0.97986 0.19742 0.01900
C 	C 	0.00923 0.91911 0.16742 0.00600
C 	C 	0.02911 0.98245 0.16762 -0.03000
C 	C 	0.00384 0.01271 0.18251 -0.04800
C 	C 	0.03928 0.88751 0.15468 0.01300
C 	C 	0.06289 0.85799 0.17158 -0.04200
C 	C 	0.09514 0.83247 0.15978 -0.03000
C 	C 	0.10390 0.83625 0.13105 -0.00200
C 	C 	0.07921 0.86424 0.11405 -0.02600
C 	C 	0.04699 0.88983 0.12582 -0.04000
C 	C 	0.14103 0.81534 0.11929 0.05000
C 	C 	0.17278 0.79921 0.10919 -0.09200
H 	H 	0.06506 0.00818 0.15703 0.04000
H 	H 	0.02064 0.06161 0.18353 0.04400
H 	H 	0.05724 0.85611 0.19390 0.04200
H 	H 	0.11412 0.81090 0.17305 0.04000
H 	H 	0.08577 0.86724 0.09181 0.05300
H 	H 	0.02875 0.91233 0.11261 0.04900
C 	C 	0.99447 0.16069 0.27032 0.01400
C 	C 	0.03597 0.15458 0.28476 -0.04100
C 	C 	0.07026 0.20256 0.30095 -0.03700
C 	C 	0.06306 0.25679 0.30288 0.00700
C 	C 	0.02086 0.26239 0.28892 -0.03500
C 	C 	0.09934 0.30760 0.31966 0.01300
C 	C 	0.13090 0.36141 0.30669 -0.04200
C 	C 	0.16030 0.41231 0.32279 -0.02700
C 	C 	0.15834 0.40964 0.35190 -0.00500
C 	C 	0.12886 0.35509 0.36488 -0.02500
C 	C 	0.09946 0.30413 0.34880 -0.04000
C 	C 	0.18138 0.46417 0.36826 0.05600
C 	C 	0.19926 0.51021 0.38181 -0.10100
H 	H 	0.04207 0.11305 0.28312 0.04200
H 	H 	0.10260 0.19778 0.31180 0.04400
H 	H 	0.01474 0.30394 0.29056 0.04500
H 	H 	0.13143 0.36425 0.28418 0.04300
H 	H 	0.18320 0.45432 0.31264 0.04200
H 	H 	0.12732 0.35270 0.38739 0.05000
H 	H 	0.07540 0.26263 0.35896 0.04900
C 	C 	0.97085 0.97260 0.25820 0.01300
C 	C 	0.97181 0.88705 0.28399 -0.03900
C 	C 	0.02625 0.90920 0.28158 0.00900
C 	C 	0.05280 0.96304 0.26729 -0.04000
C 	C 	0.02522 0.99469 0.25572 -0.03600
C 	C 	0.05574 0.87793 0.29532 0.01100
C 	C 	0.08721 0.85664 0.27958 -0.04100
C 	C 	0.11863 0.83169 0.29292 -0.03000
C 	C 	0.11858 0.82768 0.32201 -0.00300
C 	C 	0.08601 0.84723 0.33767 -0.02700
C 	C 	0.05473 0.87234 0.32439 -0.03900
C 	C 	0.15423 0.80718 0.33596 0.04900
C 	C 	0.18426 0.79124 0.34829 -0.09600
H 	H 	0.09484 0.98074 0.26551 0.04200
H 	H 	0.04603 0.03638 0.24483 0.03900
H 	H 	0.08792 0.86032 0.25710 0.04100
H 	H 	0.14363 0.81648 0.28068 0.03800
H 	H 	0.08575 0.84415 0.36017 0.05300
H 	H 	0.03064 0.88872 0.33671 0.04800
C 	C 	0.47656 0.99598 0.47503 0.02900
H 	H 	0.49679 0.11081 0.46094 0.08200
C 	C 	0.42165 0.97323 0.47541 0.06000
C 	C 	0.39219 0.92082 0.46008 -0.00400
C 	C 	0.41704 0.89091 0.44436 -0.09200
C 	C 	0.47210 0.91434 0.44380 0.12600
N 	N 	0.39571 0.00348 0.49117 -0.01700
H 	H 	0.34996 0.90319 0.46055 0.06300
O 	O 	0.51229 0.90755 0.40161 -0.09400
O 	O 	0.36249 0.02109 0.47893 -0.09500
O 	O 	0.40258 0.00971 0.51803 -0.08600
C 	C 	0.01882 0.54855 0.48514 0.02900
C 	C 	0.05536 0.52174 0.48701 0.05700
C 	C 	0.10635 0.55301 0.47764 -0.00100
C 	C 	0.12143 0.61093 0.46641 -0.08800
C 	C 	0.08524 0.63842 0.46523 0.12400
C 	C 	0.03405 0.60684 0.47434 -0.07200
N 	N 	0.04064 0.46245 0.49812 -0.01600
H 	H 	0.13397 0.53168 0.47860 0.05300
N 	N 	0.10060 0.69881 0.45535 -0.02200
O 	O 	0.02558 0.57710 0.54711 -0.08700
O 	O 	0.07364 0.71039 0.43569 -0.09500
O 	O 	0.13932 0.74283 0.46730 -0.09400
O 	O 	0.04607 0.42002 0.48325 -0.09900
O 	O 	0.02516 0.45194 0.52372 -0.08700
C 	C 	0.42947 0.50275 0.45879 0.05800
C 	C 	0.39784 0.53000 0.44748 -0.00600
C 	C 	0.40737 0.59030 0.45413 -0.09100
C 	C 	0.44824 0.62307 0.47293 0.11800
N 	N 	0.41935 0.44129 0.45167 -0.01600
H 	H 	0.36655 0.50461 0.43305 0.06300
N 	N 	0.45639 0.68319 0.48153 -0.02100
C 	C 	0.48418 0.46724 0.51175 -0.07200
N 	N 	0.49578 0.40386 0.54853 -0.02100
H 	H 	0.44485 0.45648 0.51891 0.08100
O 	O 	0.41974 0.69322 0.49437 -0.11100
O 	O 	0.37345 0.39913 0.45578 -0.09700
O 	O 	0.45483 0.42807 0.43935 -0.08400
O 	O 	0.45278 0.35576 0.54614 -0.09000
H 	H 	0.06590 0.16309 0.71693 0.04600
C 	C 	0.40243 0.22832 0.62517 -0.05700
C 	C 	0.39336 0.18188 0.64441 0.02900
C 	C 	0.43287 0.16142 0.65035 -0.06100
C 	C 	0.48056 0.18607 0.63665 0.01200
C 	C 	0.34197 0.15344 0.65772 0.00100
C 	C 	0.29697 0.12281 0.64140 -0.02900
C 	C 	0.24852 0.09452 0.65407 -0.04300
C 	C 	0.24474 0.09660 0.68310 0.02700
C 	C 	0.28955 0.12740 0.69943 -0.04500
C 	C 	0.33801 0.15578 0.68680 -0.03100
C 	C 	0.19498 0.06673 0.69623 -0.02000
C 	C 	0.15387 0.04207 0.70777 -0.00100
H 	H 	0.37235 0.24484 0.62064 0.05700
H 	H 	0.42633 0.12576 0.66526 0.04900
H 	H 	0.51056 0.16950 0.64128 0.02100
H 	H 	0.29963 0.12048 0.61896 0.05000
H 	H 	0.21405 0.07080 0.64131 0.05100
H 	H 	0.28691 0.12920 0.72190 0.04500
H 	H 	0.37243 0.17945 0.69958 0.03900
C 	C 	0.04648 0.61257 0.99264 -0.07100
C 	C 	0.02846 0.55547 0.97976 0.02800
C 	C 	0.06331 0.52739 0.97485 0.05700
C 	C 	0.11499 0.55498 0.98447 -0.00100
C 	C 	0.13204 0.61005 0.99925 -0.08600
C 	C 	0.09826 0.64040 0.00211 0.12200
N 	N 	0.04604 0.47022 0.96063 -0.01600
H 	H 	0.14098 0.53186 0.98183 0.05900
N 	N 	0.11650 0.69948 0.01462 -0.02400
O 	O 	0.09002 0.71095 0.03434 -0.09200
O 	O 	0.15835 0.74249 0.00547 -0.09900
O 	O 	0.06912 0.46455 0.93805 -0.10100
C 	C 	0.47428 0.00565 0.99586 0.01900
C 	C 	0.46482 0.92841 0.03011 -0.00600
C 	C 	0.41258 0.89667 0.02179 -0.08900
C 	C 	0.39113 0.91956 0.00026 0.11600
C 	C 	0.42200 0.97414 0.98756 -0.06600
H 	H 	0.48135 0.91136 0.04683 0.07200
N 	N 	0.33847 0.88693 0.99080 -0.02200
H 	H 	0.40559 0.99142 0.97088 0.08100
O 	O 	0.30645 0.91399 0.98936 -0.09300
O 	O 	0.32363 0.83153 0.98176 -0.10100
C 	C 	0.47821 0.53765 0.01091 0.02500
H 	H 	0.45114 0.47370 0.96288 0.07900
C 	C 	0.48207 0.59340 0.00009 0.05800
C 	C 	0.45298 0.62328 0.01178 -0.00900
C 	C 	0.42014 0.59828 0.03430 -0.09200
C 	C 	0.41781 0.54360 0.04582 0.11800
C 	C 	0.44642 0.51329 0.03386 -0.07200
N 	N 	0.51492 0.61932 0.97690 -0.01600
H 	H 	0.45529 0.66555 0.00302 0.06400
N 	N 	0.38746 0.51948 0.07004 -0.02200
H 	H 	0.44405 0.47090 0.04249 0.08300
O 	O 	0.45392 0.37470 0.92754 -0.09600
O 	O 	0.39710 0.55126 0.09301 -0.09700
O 	O 	0.35284 0.46416 0.06972 -0.10100
O 	O 	0.49539 0.63254 0.95446 -0.09800
C 	C 	0.48983 0.23598 0.85766 -0.08100
C 	C 	0.45210 0.26018 0.86171 0.01900
C 	C 	0.40331 0.23357 0.84857 -0.06000
C 	C 	0.39182 0.18273 0.83125 0.03000
C 	C 	0.43000 0.15986 0.82635 -0.06400
C 	C 	0.47886 0.18648 0.83942 0.01500
C 	C 	0.33946 0.15260 0.81878 -0.00100
C 	C 	0.32217 0.18180 0.79832 -0.03100
C 	C 	0.27264 0.15285 0.78624 -0.04600
C 	C 	0.24013 0.09462 0.79457 0.02700
C 	C 	0.25709 0.06561 0.81521 -0.04400
C 	C 	0.30664 0.09454 0.82732 -0.02900
C 	C 	0.19098 0.06334 0.78056 -0.02000
C 	C 	0.15075 0.03832 0.76779 -0.00200
H 	H 	0.45997 0.29848 0.87563 0.06200
H 	H 	0.37408 0.25171 0.85229 0.05700
H 	H 	0.42158 0.12108 0.81266 0.04900
H 	H 	0.34730 0.22662 0.79161 0.04100
H 	H 	0.25983 0.17530 0.77013 0.04600
H 	H 	0.23218 0.02048 0.82165 0.05000
H 	H 	0.31963 0.07185 0.84324 0.04800
Ni	Ni	0.73176 0.35423 0.91050 1.10100
O 	O 	0.66524 0.32484 0.88663 -0.70400
Ni	Ni	0.61640 0.34296 0.91254 1.10100
O 	O 	0.77196 0.32262 0.88344 -0.35800
O 	O 	0.70809 0.22777 0.88037 -0.40200
O 	O 	0.76415 0.43206 0.88739 -0.35700
Ni	Ni	0.63706 0.23697 0.88105 1.06400
O 	O 	0.79019 0.47913 0.93840 -0.39600
O 	O 	0.63918 0.22279 0.92263 -0.41700
O 	O 	0.55305 0.31217 0.88667 -0.36900
O 	O 	0.68315 0.37259 0.93626 -0.70500
O 	O 	0.79508 0.38654 0.93628 -0.37000
O 	O 	0.57693 0.37518 0.93981 -0.34200
O 	O 	0.64099 0.47006 0.94273 -0.39500
Ni	Ni	0.71201 0.46103 0.94062 1.06900
H 	H 	0.66923 0.34640 0.86880 0.15500
H 	H 	0.67935 0.35172 0.95428 0.17400
C 	C 	0.60153 0.22284 0.93844 0.31700
O 	O 	0.70739 0.47425 0.89915 -0.41500
C 	C 	0.75206 0.26885 0.87149 0.28000
C 	C 	0.53900 0.25937 0.87393 0.28200
C 	C 	0.74218 0.47018 0.88218 0.29100
C 	C 	0.59733 0.42884 0.95185 0.30100
C 	C 	0.81319 0.44267 0.94560 0.30500
O 	O 	0.58277 0.26465 0.93541 -0.35000
O 	O 	0.55936 0.22087 0.88189 -0.40600
Ni	Ni	0.61368 0.33224 0.56142 1.10400
O 	O 	0.67985 0.35492 0.53851 -0.70200
Ni	Ni	0.73103 0.35399 0.56788 1.10300
O 	O 	0.57766 0.36851 0.53397 -0.34800
O 	O 	0.64850 0.45846 0.53420 -0.40900
O 	O 	0.57915 0.25115 0.54006 -0.34900
Ni	Ni	0.70768 0.43328 0.52052 1.07600
O 	O 	0.55901 0.21400 0.59408 -0.39700
O 	O 	0.75830 0.48976 0.54967 -0.39600
O 	O 	0.80151 0.39617 0.54812 -0.36300
O 	O 	0.66217 0.31849 0.58864 -0.70300
O 	O 	0.55037 0.30385 0.58637 -0.36100
O 	O 	0.76880 0.33223 0.60011 -0.36500
O 	O 	0.71251 0.23278 0.59739 -0.40300
Ni	Ni	0.63763 0.23245 0.59501 1.06700
H 	H 	0.67610 0.32322 0.52443 0.17600
H 	H 	0.66319 0.34026 0.60636 0.15800
C 	C 	0.75158 0.48444 0.57665 0.30200
O 	O 	0.63785 0.21269 0.55387 -0.41300
C 	C 	0.59911 0.42620 0.52786 0.29300
C 	C 	0.80814 0.41899 0.52266 0.31200
C 	C 	0.59980 0.21098 0.53728 0.31300
C 	C 	0.75311 0.27644 0.60912 0.29200
C 	C 	0.53763 0.25298 0.60036 0.27400
O 	O 	0.73985 0.43201 0.58859 -0.39200
O 	O 	0.76811 0.41477 0.50645 -0.39300
C 	C 	0.03220 0.04195 0.72257 -0.01000
C 	C 	0.03056 0.03873 0.75103 0.00500
C 	C 	0.91955 0.06054 0.20828 -0.03900
H 	H 	0.91671 0.06527 0.18538 0.04400
C 	C 	0.92581 0.04895 0.26327 -0.03900
H 	H 	0.92836 0.04427 0.28619 0.04400
C 	C 	0.93806 0.01134 0.21745 -0.01000
C 	C 	0.95709 0.11722 0.22373 -0.00700
C 	C 	0.86820 0.04469 0.22383 -0.00600
C 	C 	0.94165 0.00569 0.24571 -0.00800
C 	C 	0.96014 0.11137 0.25197 -0.00600
C 	C 	0.87110 0.03794 0.25203 -0.00600
C 	C 	0.96743 0.20609 0.19445 -0.04000
H 	H 	0.92557 0.19291 0.19482 0.04300
C 	C 	0.81798 0.02632 0.20886 0.01200
C 	C 	0.79704 0.97039 0.19490 -0.03600
C 	C 	0.74582 0.94818 0.18471 -0.03800
C 	C 	0.71532 0.98194 0.18833 0.01200
C 	C 	0.73689 0.03883 0.20147 -0.04100
C 	C 	0.78819 0.06109 0.21157 -0.03700
C 	C 	0.66119 0.95814 0.17793 0.01000
C 	C 	0.62419 0.90470 0.18883 -0.04000
C 	C 	0.57433 0.87848 0.17682 -0.02900
C 	C 	0.56118 0.90577 0.15403 -0.00300
C 	C 	0.59726 0.96066 0.14403 -0.02800
C 	C 	0.64715 0.98677 0.15593 -0.03500
C 	C 	0.51315 0.87458 0.13902 0.05000
C 	C 	0.47404 0.84916 0.12540 -0.09700
H 	H 	0.81984 0.94323 0.19284 0.04300
H 	H 	0.72962 0.90453 0.17424 0.04700
H 	H 	0.71369 0.06533 0.20419 0.04400
H 	H 	0.80423 0.10440 0.22234 0.04200
H 	H 	0.63451 0.88283 0.20613 0.04300
H 	H 	0.54647 0.83616 0.18473 0.04300
H 	H 	0.58721 0.98205 0.12645 0.05400
H 	H 	0.67540 0.02824 0.14751 0.04700
C 	C 	0.93706 0.91654 0.19579 -0.04100
C 	C 	0.96245 0.88624 0.18102 -0.03600
H 	H 	0.90182 0.89086 0.20697 0.04300
H 	H 	0.94653 0.83731 0.18071 0.04500
C 	C 	0.82402 0.00427 0.26835 0.01200
C 	C 	0.80218 0.94088 0.26749 -0.03600
C 	C 	0.75313 0.90887 0.27887 -0.03900
C 	C 	0.72555 0.94000 0.29120 0.01100
C 	C 	0.74811 0.00335 0.29283 -0.04000
C 	C 	0.79728 0.03534 0.28154 -0.03800
C 	C 	0.67262 0.90637 0.30190 0.01100
C 	C 	0.62926 0.91077 0.28862 -0.04000
C 	C 	0.57934 0.88103 0.29949 -0.03000
C 	C 	0.57245 0.84658 0.32364 0.00000
C 	C 	0.61556 0.84092 0.33651 -0.02600
C 	C 	0.66548 0.87063 0.32566 -0.03800
C 	C 	0.52213 0.82183 0.33667 0.05100
C 	C 	0.48067 0.80291 0.34825 -0.08300
H 	H 	0.82221 0.91656 0.25695 0.04000
H 	H 	0.73606 0.85998 0.27753 0.04400
H 	H 	0.72725 0.02777 0.30249 0.04600
H 	H 	0.81373 0.08427 0.28215 0.04300
H 	H 	0.63431 0.93768 0.27007 0.04300
H 	H 	0.54624 0.88570 0.28943 0.04000
H 	H 	0.61058 0.81454 0.35522 0.05700
H 	H 	0.69868 0.86673 0.33597 0.04900
C 	C 	0.98651 0.21438 0.27283 -0.04000
H 	H 	0.95407 0.21908 0.26205 0.04400
C 	C 	0.94426 0.91883 0.27243 -0.04000
H 	H 	0.90229 0.90156 0.27443 0.04100
H 	H 	0.95098 0.84550 0.29496 0.04500
C 	C 	0.51567 0.10780 0.48037 -0.07200
C 	C 	0.50843 0.05107 0.49095 0.02700
C 	C 	0.53459 0.04717 0.51560 0.05500
C 	C 	0.56671 0.09994 0.52978 0.00100
C 	C 	0.57281 0.15683 0.51972 -0.09100
C 	C 	0.54828 0.16072 0.49439 0.12400
N 	N 	0.52845 0.98957 0.52636 -0.01600
H 	H 	0.58538 0.09655 0.54922 0.05100
N 	N 	0.55755 0.21826 0.48247 -0.02200
C 	C 	0.50138 0.96636 0.45925 -0.07400
N 	N 	0.49838 0.88715 0.42650 -0.02300
H 	H 	0.54361 0.98421 0.45871 0.08300
O 	O 	0.51844 0.23186 0.47544 -0.08300
O 	O 	0.60488 0.25539 0.47697 -0.11300
O 	O 	0.56923 0.97738 0.53090 -0.09500
O 	O 	0.48256 0.95096 0.53338 -0.08500
O 	O 	0.51452 0.84789 0.43692 -0.06900
C 	C 	0.92927 0.46848 0.47822 -0.07100
C 	C 	0.96455 0.51583 0.49461 0.02400
C 	C 	0.94813 0.53162 0.52004 0.05800
C 	C 	0.89691 0.49967 0.52889 -0.00300
C 	C 	0.86176 0.45185 0.51270 -0.08800
C 	C 	0.87810 0.43609 0.48722 0.11900
N 	N 	0.98336 0.58015 0.53692 -0.01700
H 	H 	0.88445 0.51209 0.54843 0.06600
N 	N 	0.84339 0.38632 0.47078 -0.02300
H 	H 	0.94183 0.45612 0.45871 0.08100
H 	H 	0.00628 0.62794 0.47330 0.08200
O 	O 	0.82434 0.33230 0.48108 -0.09400
O 	O 	0.83429 0.39414 0.44480 -0.09800
O 	O 	0.97131 0.62527 0.54379 -0.10100
C 	C 	0.48013 0.59595 0.48400 -0.07100
C 	C 	0.47101 0.53602 0.47704 0.02600
C 	C 	0.50385 0.50760 0.48983 0.02800
H 	H 	0.51144 0.62118 0.49845 0.08200
C 	C 	0.55547 0.52285 0.48105 0.05700
C 	C 	0.58667 0.49710 0.49411 -0.00400
C 	C 	0.56679 0.45594 0.51578 -0.08900
C 	C 	0.51549 0.44191 0.52502 0.12400
N 	N 	0.57632 0.56444 0.45884 -0.01600
H 	H 	0.62604 0.50810 0.48696 0.04400
O 	O 	0.50178 0.72707 0.47845 -0.07500
O 	O 	0.51838 0.41996 0.57282 -0.10800
O 	O 	0.61909 0.61223 0.46277 -0.09900
O 	O 	0.55454 0.55248 0.43422 -0.08600
C 	C 	0.00656 0.07504 0.70678 0.02100
C 	C 	0.02806 0.13840 0.70725 -0.04000
C 	C 	0.99977 0.16993 0.69632 -0.03800
C 	C 	0.94991 0.13827 0.68471 0.00500
C 	C 	0.92927 0.07494 0.68329 -0.03400
C 	C 	0.95755 0.04345 0.69425 -0.04600
C 	C 	0.91905 0.17125 0.67434 0.01200
C 	C 	0.87233 0.16456 0.68733 -0.04300
C 	C 	0.84054 0.19129 0.67592 -0.03000
C 	C 	0.85539 0.22501 0.65154 -0.00500
C 	C 	0.90309 0.23384 0.63922 -0.02700
C 	C 	0.93486 0.20705 0.65058 -0.04000
C 	C 	0.81939 0.24490 0.63753 0.04800
C 	C 	0.78911 0.26010 0.62501 -0.09900
H 	H 	0.01610 0.21884 0.69737 0.04500
H 	H 	0.89102 0.05018 0.67407 0.04300
H 	H 	0.94063 0.99452 0.69387 0.04800
H 	H 	0.86017 0.13763 0.70591 0.04000
H 	H 	0.80377 0.18443 0.68559 0.03700
H 	H 	0.91484 0.25995 0.62038 0.05100
H 	H 	0.97103 0.21275 0.64052 0.04800
C 	C 	0.48916 0.23127 0.61674 -0.07300
C 	C 	0.45007 0.25297 0.61142 0.01600
H 	H 	0.45605 0.28789 0.59620 0.06600
C 	C 	0.76980 0.53952 0.59421 -0.08600
C 	C 	0.79037 0.53921 0.62101 0.02000
C 	C 	0.81293 0.59285 0.63642 -0.06400
C 	C 	0.81505 0.64732 0.62528 0.03300
C 	C 	0.79227 0.64729 0.59911 -0.06300
C 	C 	0.76966 0.59360 0.58364 0.02100
C 	C 	0.84532 0.70473 0.63985 -0.00000
C 	C 	0.89067 0.74660 0.62781 -0.02800
C 	C 	0.92405 0.79641 0.64332 -0.04300
C 	C 	0.91232 0.80463 0.67092 0.02700
C 	C 	0.86590 0.76445 0.68258 -0.04500
C 	C 	0.83237 0.71472 0.66707 -0.03100
C 	C 	0.94951 0.85165 0.68785 -0.02000
C 	C 	0.98077 0.89049 0.70224 -0.00300
H 	H 	0.79054 0.49783 0.62953 0.04200
H 	H 	0.83042 0.59246 0.65663 0.05100
H 	H 	0.79318 0.68908 0.59049 0.05500
H 	H 	0.75290 0.59424 0.56326 0.03900
H 	H 	0.90101 0.73927 0.60682 0.04900
H 	H 	0.95976 0.82759 0.63414 0.05100
H 	H 	0.85648 0.77083 0.70389 0.04400
H 	H 	0.79722 0.68290 0.67646 0.04100
C 	C 	0.97320 0.52561 0.97115 0.02600
H 	H 	0.02020 0.63529 0.99539 0.08100
C 	C 	0.93428 0.49803 0.99099 0.05800
C 	C 	0.88188 0.47062 0.98243 -0.00700
C 	C 	0.86813 0.47033 0.95430 -0.08900
C 	C 	0.90707 0.49780 0.93451 0.12500
C 	C 	0.95930 0.52554 0.94305 -0.07400
N 	N 	0.94784 0.49812 0.01984 -0.01600
H 	H 	0.85195 0.44949 0.99767 0.05100
N 	N 	0.89358 0.49761 0.90569 -0.02200
H 	H 	0.98915 0.54682 0.92779 0.08000
O 	O 	0.01001 0.42290 0.97137 -0.08800
O 	O 	0.89936 0.54795 0.89367 -0.10400
O 	O 	0.87988 0.44811 0.89094 -0.09100
O 	O 	0.92676 0.52064 0.03840 -0.10000
O 	O 	0.97847 0.47208 0.02772 -0.08800
C 	C 	0.51999 0.11800 0.99417 -0.07200
C 	C 	0.50710 0.06140 0.98120 0.02900
C 	C 	0.52634 0.05795 0.95452 0.05500
C 	C 	0.55805 0.11089 0.94108 0.00300
C 	C 	0.57114 0.16761 0.95400 -0.09200
C 	C 	0.55218 0.17110 0.98080 0.12400
N 	N 	0.51342 0.00068 0.94091 -0.01800
H 	H 	0.57200 0.10791 0.92036 0.04600
N 	N 	0.56629 0.22825 0.99474 -0.02200
H 	H 	0.50562 0.12073 0.01480 0.08100
C 	C 	0.49570 0.98262 0.01729 0.06400
N 	N 	0.54880 0.01436 0.02621 -0.01700
O 	O 	0.53022 0.24440 0.00424 -0.09200
O 	O 	0.61515 0.26233 0.99954 -0.11100
O 	O 	0.48962 0.98992 0.91680 -0.10100
O 	O 	0.52865 0.96095 0.95167 -0.08400
O 	O 	0.55955 0.03134 0.05212 -0.10400
O 	O 	0.58649 0.02210 0.00899 -0.08700
C 	C 	0.48701 0.47400 0.97188 -0.07200
C 	C 	0.50565 0.50344 0.99748 0.02700
C 	C 	0.55194 0.50308 0.00931 0.05900
C 	C 	0.58037 0.47586 0.99477 -0.00300
C 	C 	0.56319 0.44923 0.96847 -0.08500
C 	C 	0.51578 0.44759 0.95715 0.12600
N 	N 	0.57062 0.53114 0.03587 -0.01700
H 	H 	0.61662 0.47694 0.00361 0.04700
N 	N 	0.49786 0.42145 0.93018 -0.02100
O 	O 	0.52315 0.44742 0.90810 -0.09700
O 	O 	0.57717 0.49947 0.05622 -0.09700
O 	O 	0.58490 0.58914 0.03909 -0.08700
O 	O 	0.56484 0.63317 0.97886 -0.08600
C 	C 	0.78652 0.24870 0.85483 -0.08000
C 	C 	0.76486 0.19980 0.83607 0.01300
C 	C 	0.79687 0.17596 0.82271 -0.06400
C 	C 	0.85086 0.20092 0.82788 0.03000
C 	C 	0.87283 0.25120 0.84578 -0.06100
C 	C 	0.84088 0.27509 0.85917 0.01800
C 	C 	0.88413 0.17316 0.81529 -0.00100
C 	C 	0.91017 0.14653 0.83228 -0.02900
C 	C 	0.94078 0.11899 0.82030 -0.04500
C 	C 	0.94553 0.11794 0.79131 0.02700
C 	C 	0.91981 0.14480 0.77433 -0.04600
C 	C 	0.88918 0.17230 0.78627 -0.03100
C 	C 	0.97639 0.08901 0.77883 -0.02100
C 	C 	0.00155 0.06551 0.76709 -0.00300
H 	H 	0.72313 0.17959 0.83221 0.01900
H 	H 	0.77963 0.13738 0.80876 0.04800
H 	H 	0.91457 0.27118 0.84964 0.05700
H 	H 	0.85825 0.31291 0.87350 0.05800
H 	H 	0.90633 0.14677 0.85470 0.04600
H 	H 	0.96057 0.09832 0.83353 0.04900
H 	H 	0.92343 0.14422 0.75189 0.04500
H 	H 	0.86936 0.19286 0.77300 0.03900
H 	H 	0.50791 0.16806 0.83570 0.02000
C 	C 	0.76579 0.51800 0.86125 -0.07800
C 	C 	0.75226 0.56835 0.86039 0.01300
C 	C 	0.78091 0.61829 0.84422 -0.06000
C 	C 	0.82309 0.61835 0.82861 0.02900
C 	C 	0.83462 0.56677 0.82805 -0.05800
C 	C 	0.80590 0.51667 0.84411 0.02000
C 	C 	0.85724 0.67375 0.81433 0.00100
C 	C 	0.90907 0.70491 0.82346 -0.03000
C 	C 	0.94115 0.75814 0.81040 -0.04300
C 	C 	0.92168 0.78057 0.78811 0.02600
C 	C 	0.86998 0.74943 0.77888 -0.04400
C 	C 	0.83780 0.69623 0.79198 -0.03200
C 	C 	0.95505 0.83498 0.77439 -0.01800
C 	C 	0.98305 0.88015 0.76270 -0.00400
H 	H 	0.72073 0.56975 0.87293 0.04400
H 	H 	0.77131 0.65764 0.84451 0.05300
H 	H 	0.86657 0.56601 0.81567 0.05400
H 	H 	0.81599 0.47768 0.84387 0.05300
H 	H 	0.92437 0.68810 0.84078 0.05100
H 	H 	0.98110 0.78186 0.81760 0.05000
H 	H 	0.85473 0.76633 0.76157 0.04400
H 	H 	0.79788 0.67250 0.78476 0.04100
