data_crystal

_cell_length_a 21.89540
_cell_length_b 22.04165
_cell_length_c 49.63143
_cell_angle_alpha 89.89833
_cell_angle_beta  89.90028
_cell_angle_gamma 119.78737

_symmetry_space_group_name_	'P 1'
_symmetry_space_group_name_H-M	'P 1'

loop_
_symmetry_equiv_pos_as_xyz
  x,y,z

loop_
_atom_site_label
_atom_site_type_symbol
_atom_site_fract_x
_atom_site_fract_y
_atom_site_fract_z
_atom_site_charge
C 	C 	0.65871 0.46378 0.96959 0.26200
C 	C 	0.59878 0.17827 0.95173 0.28000
C 	C 	0.76684 0.37984 0.98911 0.27900
C 	C 	0.49509 0.26219 0.92827 0.34400
C 	C 	0.78065 0.32570 0.90738 0.36200
C 	C 	0.69360 0.42806 0.88240 0.35200
Ni	Ni	0.61480 0.31175 0.97115 1.11700
Ni	Ni	0.63185 0.28392 0.90830 1.13000
Ni	Ni	0.74853 0.42387 0.93581 1.12500
O 	O 	0.60668 0.40043 0.97574 -0.34600
O 	O 	0.72360 0.47563 0.96446 -0.35500
O 	O 	0.71705 0.27381 0.91197 -0.38100
O 	O 	0.63381 0.22912 0.96867 -0.36600
O 	O 	0.57793 0.19100 0.92862 -0.35200
O 	O 	0.71747 0.46183 0.90548 -0.36700
O 	O 	0.70264 0.36304 0.99666 -0.34800
O 	O 	0.78178 0.38046 0.96367 -0.37600
O 	O 	0.67620 0.36099 0.87960 -0.35100
O 	O 	0.51401 0.25313 0.95303 -0.35700
O 	O 	0.53944 0.28289 0.90755 -0.35600
O 	O 	0.79423 0.39094 0.90845 -0.35700
O 	O 	0.65524 0.34758 0.93732 -0.72200
H 	H 	0.62917 0.37145 0.93205 0.17700
C 	C 	0.79300 0.44193 0.52690 0.26400
C 	C 	0.55786 0.17231 0.55817 0.28400
C 	C 	0.59750 0.36835 0.51424 0.28000
C 	C 	0.74774 0.24749 0.57557 0.34300
C 	C 	0.55133 0.34423 0.59845 0.37000
C 	C 	0.74775 0.43515 0.61525 0.34700
Ni	Ni	0.67577 0.29462 0.53242 1.11600
Ni	Ni	0.64592 0.28712 0.59662 1.12800
Ni	Ni	0.67594 0.42354 0.56406 1.12500
O 	O 	0.77450 0.37568 0.52261 -0.34700
O 	O 	0.74522 0.46098 0.53221 -0.35600
O 	O 	0.55469 0.28700 0.59519 -0.37400
O 	O 	0.57251 0.22050 0.54005 -0.36100
O 	O 	0.59424 0.18832 0.58068 -0.35200
O 	O 	0.75302 0.46442 0.59133 -0.36300
O 	O 	0.63920 0.34473 0.50624 -0.34700
O 	O 	0.59147 0.37809 0.53975 -0.35900
O 	O 	0.69328 0.37232 0.62152 -0.36600
O 	O 	0.71444 0.23418 0.55176 -0.36100
O 	O 	0.73166 0.27599 0.59596 -0.35900
O 	O 	0.60690 0.40592 0.59417 -0.37900
O 	O 	0.68372 0.34156 0.56487 -0.71900
H 	H 	0.73447 0.36233 0.56835 0.17600
C 	C 	0.91887 0.06818 0.71660 0.32700
C 	C 	0.94946 0.87014 0.78520 0.37000
C 	C 	0.92601 0.06078 0.79421 0.36700
C 	C 	0.95436 0.87374 0.71399 0.34300
C 	C 	0.13096 0.08518 0.79183 0.36400
C 	C 	0.13908 0.10898 0.71480 0.34700
Ni	Ni	0.90408 0.95256 0.75261 1.12400
Ni	Ni	0.06407 0.97809 0.75003 1.13300
Ni	Ni	0.03982 0.10838 0.75459 1.12800
O 	O 	0.88367 0.99944 0.72016 -0.33300
O 	O 	0.95670 0.11075 0.73650 -0.33600
O 	O 	0.09984 0.01779 0.78685 -0.36100
O 	O 	0.92403 0.91251 0.78702 -0.34800
O 	O 	0.00135 0.88387 0.76839 -0.36400
O 	O 	0.09292 0.12975 0.71999 -0.37900
O 	O 	0.88106 0.01641 0.77673 -0.35300
O 	O 	0.99343 0.08532 0.79108 -0.35800
O 	O 	0.14412 0.06167 0.73021 -0.32800
O 	O 	0.90297 0.87237 0.72913 -0.33800
O 	O 	0.02114 0.92464 0.71565 -0.35300
O 	O 	0.12894 0.12855 0.77405 -0.34700
O 	O 	0.00025 0.01230 0.74597 -0.72300
H 	H 	0.99930 0.01473 0.72617 0.16700
C 	C 	0.23819 0.75015 0.42832 0.34300
C 	C 	0.40498 0.62809 0.47606 0.27900
C 	C 	0.43124 0.82898 0.43979 0.28500
C 	C 	0.20746 0.55139 0.46904 0.26200
C 	C 	0.43390 0.66592 0.38951 0.37200
C 	C 	0.23830 0.57200 0.37944 0.35000
Ni	Ni	0.32076 0.70067 0.46518 1.11600
Ni	Ni	0.31913 0.57925 0.42760 1.12700
Ni	Ni	0.33877 0.71857 0.40042 1.12900
O 	O 	0.27601 0.76104 0.45089 -0.36000
O 	O 	0.25169 0.72610 0.40589 -0.35100
O 	O 	0.38272 0.60235 0.39502 -0.37100
O 	O 	0.36375 0.64900 0.48699 -0.34500
O 	O 	0.40743 0.62293 0.44997 -0.35600
O 	O 	0.28902 0.63734 0.37377 -0.36400
O 	O 	0.42153 0.77866 0.45616 -0.36100
O 	O 	0.39113 0.81495 0.41835 -0.34800
O 	O 	0.23730 0.54070 0.40243 -0.36000
O 	O 	0.22523 0.61611 0.47596 -0.34600
O 	O 	0.25539 0.53513 0.46067 -0.35400
O 	O 	0.43065 0.72050 0.39784 -0.37400
O 	O 	0.30825 0.65920 0.43112 -0.71900
H 	H 	0.25687 0.63744 0.42916 0.17500
C 	C 	0.51097 0.76487 0.07474 0.34000
C 	C 	0.22064 0.63424 0.02819 0.27900
C 	C 	0.38501 0.83234 0.06958 0.28600
C 	C 	0.35511 0.57226 0.02937 0.26000
C 	C 	0.22688 0.65117 0.11526 0.37200
C 	C 	0.34176 0.56907 0.11973 0.33900
Ni	Ni	0.37762 0.71541 0.03892 1.11600
Ni	Ni	0.26484 0.58043 0.07344 1.12500
Ni	Ni	0.37682 0.71718 0.10421 1.13100
O 	O 	0.48167 0.77893 0.05364 -0.36100
O 	O 	0.47497 0.73504 0.09712 -0.35100
O 	O 	0.22091 0.59128 0.10769 -0.36800
O 	O 	0.28346 0.66263 0.01697 -0.34600
O 	O 	0.21314 0.62179 0.05403 -0.35500
O 	O 	0.35219 0.63147 0.12784 -0.33000
O 	O 	0.34620 0.78412 0.05229 -0.36200
O 	O 	0.41340 0.81667 0.08985 -0.34300
O 	O 	0.31412 0.54268 0.09589 -0.38300
O 	O 	0.39723 0.63939 0.02399 -0.34600
O 	O 	0.28958 0.54844 0.03823 -0.35700
O 	O 	0.28316 0.71045 0.10919 -0.36600
O 	O 	0.35184 0.66556 0.07157 -0.71800
H 	H 	0.38492 0.64751 0.07191 0.16900
C 	C 	0.04349 0.13631 0.27980 0.34300
C 	C 	0.08525 0.91688 0.22539 0.36500
C 	C 	0.09400 0.12377 0.21106 0.36800
C 	C 	0.04414 0.92328 0.29784 0.33100
C 	C 	0.89645 0.92374 0.19805 0.35100
C 	C 	0.83995 0.91306 0.26992 0.34500
Ni	Ni	0.09760 0.03934 0.25686 1.11600
Ni	Ni	0.95295 0.89337 0.24771 1.14000
Ni	Ni	0.95388 0.03586 0.23788 1.13100
O 	O 	0.09806 0.12926 0.27177 -0.35400
O 	O 	0.97771 0.09263 0.27212 -0.34100
O 	O 	0.88387 0.87928 0.21795 -0.34700
O 	O 	0.12256 0.96413 0.24355 -0.35000
O 	O 	0.02290 0.90588 0.21889 -0.35700
O 	O 	0.85589 0.96331 0.25154 -0.34800
O 	O 	0.11158 0.07713 0.21785 -0.36800
O 	O 	0.03852 0.12243 0.22199 -0.32800
O 	O 	0.88004 0.88449 0.27405 -0.35600
O 	O 	0.08347 0.99199 0.29435 -0.32700
O 	O 	0.01223 0.88074 0.27705 -0.33400
O 	O 	0.93927 0.99095 0.20153 -0.32900
O 	O 	0.99918 0.99086 0.25407 -0.71900
H 	H 	0.98645 0.99137 0.27309 0.17400
C 	C 	0.28091 0.44789 0.17847 -0.14200
C 	C 	0.28792 0.39305 0.16752 0.02300
C 	C 	0.33144 0.40570 0.14499 0.30100
C 	C 	0.35975 0.46976 0.13145 -0.05300
C 	C 	0.34297 0.52057 0.13989 -0.12800
C 	C 	0.30882 0.51179 0.16483 0.38000
C 	C 	0.24029 0.32081 0.17651 0.01800
F 	F 	0.34158 0.35409 0.13498 -0.40200
H 	H 	0.38898 0.47727 0.11292 0.10200
F 	F 	0.29700 0.56253 0.17456 -0.42000
H 	H 	0.24967 0.43936 0.19650 0.13900
C 	C 	0.26398 0.28751 0.19432 0.30600
C 	C 	0.21685 0.22093 0.20435 -0.04900
C 	C 	0.14563 0.18740 0.19678 -0.13500
C 	C 	0.12281 0.21958 0.17801 0.38600
C 	C 	0.17001 0.28598 0.16794 -0.14100
F 	F 	0.33209 0.32042 0.20249 -0.39400
H 	H 	0.23502 0.19666 0.21886 0.09700
F 	F 	0.05465 0.18700 0.16990 -0.40900
H 	H 	0.15171 0.31101 0.15383 0.12600
C 	C 	0.68003 0.77805 0.09421 -0.13100
C 	C 	0.71275 0.84494 0.10578 0.01700
C 	C 	0.68892 0.89154 0.09896 0.29300
C 	C 	0.62719 0.86808 0.08389 -0.05100
C 	C 	0.58800 0.79763 0.07623 -0.13400
C 	C 	0.61797 0.75454 0.07935 0.37400
C 	C 	0.76186 0.86095 0.12864 0.01300
F 	F 	0.72184 0.95754 0.10893 -0.40900
H 	H 	0.60594 0.90260 0.08079 0.09200
F 	F 	0.58289 0.68738 0.07060 -0.44600
H 	H 	0.69957 0.74252 0.09846 0.12700
C 	C 	0.73659 0.82673 0.15349 0.30300
C 	C 	0.78122 0.84583 0.17581 -0.05900
C 	C 	0.85158 0.89965 0.17368 -0.11900
C 	C 	0.87745 0.93268 0.14860 0.37300
C 	C 	0.83264 0.91336 0.12621 -0.12500
F 	F 	0.66808 0.77648 0.15621 -0.40300
H 	H 	0.76045 0.82017 0.19499 0.13800
F 	F 	0.94583 0.98325 0.14589 -0.40400
H 	H 	0.85271 0.93974 0.10710 0.13500
C 	C 	0.11115 0.71032 0.14526 -0.13500
C 	C 	0.13268 0.71633 0.17218 0.01200
C 	C 	0.16773 0.68127 0.18096 0.30800
C 	C 	0.18919 0.64838 0.16221 -0.05700
C 	C 	0.17720 0.65202 0.13465 -0.13600
C 	C 	0.13318 0.67797 0.12651 0.37800
C 	C 	0.12804 0.76732 0.18979 0.02500
F 	F 	0.18585 0.68388 0.20725 -0.39600
H 	H 	0.22131 0.62645 0.16876 0.13700
F 	F 	0.11803 0.67841 0.10002 -0.43600
H 	H 	0.08171 0.73508 0.13855 0.12500
C 	C 	0.17684 0.83893 0.18698 0.29500
C 	C 	0.16591 0.88832 0.20049 -0.04400
C 	C 	0.10623 0.86642 0.21676 -0.14400
C 	C 	0.06068 0.79464 0.22126 0.38100
C 	C 	0.07150 0.74533 0.20770 -0.14000
F 	F 	0.23305 0.86058 0.17026 -0.40500
H 	H 	0.20178 0.94355 0.19721 0.10700
F 	F 	0.00423 0.77282 0.23787 -0.44600
H 	H 	0.03451 0.69011 0.21036 0.13500
C 	C 	0.60961 0.73695 0.35733 -0.13500
C 	C 	0.59298 0.74629 0.33091 0.01800
C 	C 	0.52234 0.71405 0.32286 0.29500
C 	C 	0.46886 0.67831 0.34176 -0.04600
C 	C 	0.48566 0.67623 0.36888 -0.14700
C 	C 	0.55607 0.70226 0.37631 0.38300
C 	C 	0.64931 0.79282 0.31229 0.02100
F 	F 	0.50556 0.72098 0.29715 -0.39900
H 	H 	0.41446 0.65737 0.33581 0.10000
F 	F 	0.57279 0.69849 0.40235 -0.43400
H 	H 	0.66409 0.75946 0.36342 0.13100
C 	C 	0.69171 0.86418 0.31833 0.29400
C 	C 	0.75151 0.90590 0.30279 -0.05000
C 	C 	0.76882 0.87672 0.28109 -0.13200
C 	C 	0.72279 0.80716 0.27359 0.38100
C 	C 	0.66363 0.76522 0.28930 -0.13300
F 	F 	0.67628 0.89231 0.33980 -0.40800
H 	H 	0.78627 0.95984 0.30844 0.10700
F 	F 	0.73785 0.77917 0.25197 -0.42600
H 	H 	0.63036 0.71060 0.28420 0.14400
C 	C 	0.05270 0.30849 0.29500 -0.13800
C 	C 	0.10260 0.33391 0.31571 0.01700
C 	C 	0.12867 0.29187 0.32606 0.30400
C 	C 	0.10677 0.22585 0.31509 -0.05400
C 	C 	0.05843 0.20110 0.29379 -0.12700
C 	C 	0.03069 0.24240 0.28399 0.37600
C 	C 	0.12854 0.40490 0.32638 0.01700
F 	F 	0.17604 0.31551 0.34648 -0.40800
H 	H 	0.12829 0.19440 0.32283 0.11100
F 	F 	0.98494 0.21989 0.26304 -0.42400
H 	H 	0.03204 0.34049 0.28705 0.13100
C 	C 	0.19544 0.45925 0.31889 0.30700
C 	C 	0.22835 0.52044 0.33422 -0.04900
C 	C 	0.19501 0.52707 0.35732 -0.12800
C 	C 	0.12431 0.47703 0.36236 0.37900
C 	C 	0.09141 0.41582 0.34705 -0.13800
F 	F 	0.23057 0.45060 0.29804 -0.39800
H 	H 	0.28216 0.55967 0.32962 0.11000
F 	F 	0.08975 0.48482 0.38362 -0.43100
H 	H 	0.03879 0.37504 0.35236 0.12500
C 	C 	0.08406 0.76038 0.40425 -0.13000
C 	C 	0.11902 0.82871 0.39383 0.01500
C 	C 	0.18711 0.87592 0.40301 0.29100
C 	C 	0.22312 0.85216 0.41933 -0.05300
C 	C 	0.19230 0.78088 0.42581 -0.13400
C 	C 	0.12053 0.73655 0.42029 0.37500
C 	C 	0.09012 0.84658 0.37002 0.01200
F 	F 	0.22071 0.94312 0.39414 -0.41300
H 	H 	0.27770 0.88748 0.42425 0.09100
F 	F 	0.08848 0.66832 0.42786 -0.43700
H 	H 	0.03046 0.72426 0.39824 0.13000
C 	C 	0.08463 0.81355 0.34521 0.29800
C 	C 	0.06585 0.83625 0.32193 -0.05700
C 	C 	0.05311 0.89269 0.32306 -0.11800
C 	C 	0.05571 0.92384 0.34809 0.36900
C 	C 	0.07398 0.90070 0.37145 -0.12600
F 	F 	0.10057 0.76151 0.34343 -0.40600
H 	H 	0.06416 0.81186 0.30280 0.12500
F 	F 	0.04143 0.97702 0.34971 -0.42400
H 	H 	0.07728 0.92597 0.39053 0.13300
C 	C 	0.51390 0.01390 0.52689 0.07800
C 	C 	0.54750 0.98835 0.50997 -0.06800
C 	C 	0.52676 0.97527 0.48289 0.01600
C 	C 	0.47268 0.98479 0.47318 0.10100
C 	C 	0.43852 0.00956 0.49015 -0.09300
C 	C 	0.45945 0.02300 0.51723 0.02800
N 	N 	0.54772 0.05925 0.54700 -0.14800
C 	C 	0.51663 0.09876 0.54995 0.01800
C 	C 	0.46074 0.07673 0.53200 -0.04000
N 	N 	0.43971 0.94054 0.45269 -0.15000
C 	C 	0.47115 0.90143 0.44950 0.02000
C 	C 	0.52615 0.92228 0.46782 -0.03300
H 	H 	0.58951 0.98054 0.51750 0.07500
H 	H 	0.39648 0.01730 0.48261 0.07600
H 	H 	0.44119 0.11015 0.52455 0.07400
H 	H 	0.54547 0.88853 0.47510 0.07300
H 	H 	0.60008 0.07640 0.55213 0.10400
H 	H 	0.38759 0.92365 0.44727 0.10800
C 	C 	0.97195 0.51399 0.51883 0.10200
C 	C 	0.01937 0.49024 0.52439 -0.07300
C 	C 	0.04639 0.46976 0.50281 0.02900
C 	C 	0.02820 0.47455 0.47640 0.10300
C 	C 	0.98019 0.49762 0.47087 -0.07100
C 	C 	0.95363 0.51863 0.49244 0.03100
N 	N 	0.91865 0.50158 0.53558 -0.15200
C 	C 	0.86486 0.49506 0.52016 0.03100
C 	C 	0.88585 0.50771 0.49329 -0.03800
N 	N 	0.08217 0.48844 0.45977 -0.15200
C 	C 	0.13621 0.49596 0.47529 0.03100
C 	C 	0.11458 0.48186 0.50206 -0.03700
H 	H 	0.03396 0.48683 0.54495 0.09200
H 	H 	0.96553 0.50098 0.45032 0.09600
H 	H 	0.84952 0.48662 0.47654 0.06900
H 	H 	0.15045 0.50285 0.51895 0.07000
H 	H 	0.91147 0.47741 0.55439 0.14200
H 	H 	0.08923 0.51304 0.44105 0.14300
C 	C 	0.48645 0.42598 0.48966 0.09500
C 	C 	0.43524 0.43916 0.50098 -0.07600
C 	C 	0.45197 0.50895 0.50444 0.02500
C 	C 	0.51570 0.56361 0.49552 0.09400
C 	C 	0.56646 0.55058 0.48373 -0.07600
C 	C 	0.55052 0.48078 0.48085 0.02500
N 	N 	0.49421 0.37165 0.49745 -0.15100
C 	C 	0.56321 0.39151 0.49460 0.02100
C 	C 	0.59946 0.45880 0.48378 -0.04000
N 	N 	0.50848 0.61893 0.48877 -0.15100
C 	C 	0.44014 0.60004 0.49303 0.02100
C 	C 	0.40356 0.53189 0.50299 -0.03900
H 	H 	0.38507 0.39655 0.50773 0.08000
H 	H 	0.61655 0.59328 0.47697 0.07900
H 	H 	0.65512 0.49427 0.48695 0.06300
H 	H 	0.34754 0.49736 0.50027 0.06500
H 	H 	0.46064 0.33357 0.51121 0.12900
H 	H 	0.54116 0.65742 0.47497 0.12500
C 	C 	0.89076 0.23346 0.60909 -0.14600
C 	C 	0.85198 0.16488 0.61900 0.02200
C 	C 	0.78630 0.11893 0.60754 0.29900
C 	C 	0.75638 0.14388 0.58870 -0.05500
C 	C 	0.79073 0.21517 0.58191 -0.13800
C 	C 	0.86053 0.25836 0.59038 0.37400
C 	C 	0.87534 0.14445 0.64370 0.01200
F 	F 	0.74905 0.05168 0.61621 -0.40000
H 	H 	0.70329 0.10951 0.58172 0.09300
F 	F 	0.89611 0.32659 0.58279 -0.43500
H 	H 	0.94254 0.26867 0.61710 0.12700
C 	C 	0.89455 0.09246 0.64273 0.31200
C 	C 	0.91045 0.06901 0.66653 -0.05800
C 	C 	0.90781 0.09758 0.69151 -0.12400
C 	C 	0.89069 0.15115 0.69240 0.37400
C 	C 	0.87452 0.17439 0.66858 -0.13900
F 	F 	0.89700 0.06409 0.61878 -0.39800
H 	H 	0.92427 0.02818 0.66560 0.11200
F 	F 	0.88703 0.17879 0.71636 -0.41700
H 	H 	0.85970 0.21449 0.66953 0.12800
C 	C 	0.36247 0.26952 0.61523 -0.15200
C 	C 	0.36738 0.27919 0.64320 0.02300
C 	C 	0.43249 0.32574 0.65485 0.30100
C 	C 	0.49325 0.35630 0.63898 -0.04900
C 	C 	0.48940 0.33910 0.61163 -0.15100
C 	C 	0.42336 0.29964 0.59943 0.38000
C 	C 	0.30663 0.23489 0.66043 0.01200
F 	F 	0.43755 0.33718 0.68184 -0.38800
H 	H 	0.54402 0.38809 0.64842 0.10500
F 	F 	0.41884 0.28555 0.57266 -0.44200
H 	H 	0.31198 0.23550 0.60598 0.12400
C 	C 	0.27387 0.26458 0.67538 0.31300
C 	C 	0.21960 0.22336 0.69321 -0.05200
C 	C 	0.19665 0.15166 0.69597 -0.12500
C 	C 	0.22852 0.12159 0.68054 0.37700
C 	C 	0.28352 0.16321 0.66291 -0.13900
F 	F 	0.29520 0.33362 0.67282 -0.39500
H 	H 	0.19577 0.24729 0.70513 0.11300
F 	F 	0.20568 0.05209 0.68236 -0.42600
H 	H 	0.30864 0.13999 0.65133 0.12300
C 	C 	0.89687 0.59107 0.64701 -0.13700
C 	C 	0.86060 0.60436 0.66735 0.02600
C 	C 	0.79287 0.55168 0.67492 0.29600
C 	C 	0.75838 0.49014 0.65986 -0.04900
C 	C 	0.79127 0.48116 0.63711 -0.13400
C 	C 	0.86260 0.52927 0.63212 0.37700
C 	C 	0.88865 0.67613 0.67760 0.01800
F 	F 	0.75875 0.56221 0.69567 -0.38700
H 	H 	0.70406 0.45237 0.66445 0.11000
F 	F 	0.89668 0.51898 0.61129 -0.43000
H 	H 	0.95003 0.63047 0.64162 0.13600
C 	C 	0.94891 0.70682 0.69388 0.30200
C 	C 	0.97379 0.77417 0.70411 -0.05200
C 	C 	0.93816 0.81093 0.69842 -0.13100
C 	C 	0.87966 0.78130 0.68122 0.37800
C 	C 	0.85525 0.71434 0.67078 -0.13100
F 	F 	0.98208 0.67067 0.70041 -0.39700
H 	H 	0.01865 0.79638 0.71753 0.10600
F 	F 	0.84557 0.81683 0.67512 -0.41900
H 	H 	0.80969 0.69163 0.65770 0.13100
C 	C 	0.93467 0.43675 0.01483 0.09000
C 	C 	0.99897 0.44751 0.00423 -0.07600
C 	C 	0.05349 0.51649 0.00024 0.02200
C 	C 	0.04608 0.57274 0.00817 0.09500
C 	C 	0.98223 0.56222 0.01910 -0.07600
C 	C 	0.92672 0.49318 0.02229 0.02600
N 	N 	0.87225 0.38278 0.00724 -0.14900
C 	C 	0.82426 0.40444 0.00883 0.01500
C 	C 	0.85635 0.47274 0.01855 -0.03900
N 	N 	0.10916 0.62728 0.01485 -0.15000
C 	C 	0.15735 0.60641 0.01131 0.02200
C 	C 	0.12437 0.53767 0.00210 -0.03900
H 	H 	0.00539 0.40365 0.99842 0.07200
H 	H 	0.97601 0.60617 0.02494 0.07900
H 	H 	0.83769 0.50897 0.01419 0.06300
H 	H 	0.14440 0.50215 0.00555 0.06100
H 	H 	0.86723 0.34307 0.99434 0.10600
H 	H 	0.11566 0.66667 0.02823 0.12400
C 	C 	0.49620 0.99338 0.03905 0.10200
C 	C 	0.55634 0.02075 0.02257 -0.09200
C 	C 	0.54945 0.03295 0.99529 0.02800
C 	C 	0.48569 0.02158 0.98502 0.07800
C 	C 	0.42573 0.99514 0.00155 -0.06800
C 	C 	0.43226 0.98177 0.02876 0.01800
N 	N 	0.48519 0.94818 0.05924 -0.15000
C 	C 	0.41475 0.90593 0.06150 0.02200
C 	C 	0.38023 0.92641 0.04317 -0.03300
N 	N 	0.49681 0.06549 0.96432 -0.14700
C 	C 	0.56738 0.10602 0.96153 0.01900
C 	C 	0.60170 0.08653 0.98032 -0.03900
H 	H 	0.60635 0.03024 0.03054 0.07700
H 	H 	0.37578 0.98571 0.99354 0.07600
H 	H 	0.32813 0.89162 0.03531 0.07300
H 	H 	0.65417 0.12139 0.98784 0.07000
H 	H 	0.52182 0.93333 0.06495 0.11000
H 	H 	0.46085 0.08112 0.95841 0.10600
C 	C 	0.46955 0.50890 0.01966 0.10000
C 	C 	0.54114 0.53401 0.02480 -0.07000
C 	C 	0.58769 0.55320 0.00285 0.03100
C 	C 	0.56352 0.54783 0.97657 0.10000
C 	C 	0.49238 0.52581 0.97160 -0.07200
C 	C 	0.44561 0.50406 0.99348 0.03000
N 	N 	0.42784 0.51892 0.03683 -0.15100
C 	C 	0.37854 0.52316 0.02182 0.02500
C 	C 	0.38724 0.51250 0.99478 -0.03500
N 	N 	0.60160 0.53154 0.95985 -0.15200
C 	C 	0.64756 0.52257 0.97517 0.03000
C 	C 	0.64246 0.53907 0.00183 -0.03800
H 	H 	0.55996 0.53796 0.04525 0.09100
H 	H 	0.47348 0.52241 0.95120 0.09000
H 	H 	0.37046 0.53311 0.97830 0.07000
H 	H 	0.65740 0.51826 0.01881 0.06800
H 	H 	0.44465 0.54286 0.05564 0.11900
H 	H 	0.58260 0.50645 0.94136 0.13400
C 	C 	0.88442 0.29137 0.85696 -0.13300
C 	C 	0.87812 0.23000 0.86821 0.01500
C 	C 	0.85972 0.21465 0.89548 0.28900
C 	C 	0.83958 0.25561 0.91027 -0.05100
C 	C 	0.83391 0.30948 0.89755 -0.14600
C 	C 	0.86214 0.33104 0.87158 0.38100
C 	C 	0.88403 0.17890 0.85088 0.01800
F 	F 	0.85585 0.15691 0.90699 -0.41500
H 	H 	0.82087 0.24066 0.93078 0.09500
F 	F 	0.86133 0.38599 0.85957 -0.42200
H 	H 	0.90222 0.30569 0.83634 0.14100
C 	C 	0.83949 0.14992 0.82851 0.29400
C 	C 	0.84885 0.10557 0.81101 -0.04800
C 	C 	0.90192 0.08897 0.81598 -0.13900
C 	C 	0.94131 0.11219 0.83988 0.38100
C 	C 	0.93367 0.15840 0.85683 -0.13400
F 	F 	0.78810 0.16582 0.82348 -0.40500
H 	H 	0.81724 0.08697 0.79293 0.11800
F 	F 	0.98922 0.09229 0.84603 -0.41900
H 	H 	0.96710 0.17914 0.87438 0.14200
C 	C 	0.28587 0.19105 0.83772 -0.14000
C 	C 	0.25809 0.16051 0.86291 0.01300
C 	C 	0.18742 0.10721 0.86483 0.31700
C 	C 	0.14585 0.08313 0.84160 -0.04700
C 	C 	0.17405 0.11292 0.81636 -0.12600
C 	C 	0.24407 0.16763 0.81457 0.37700
C 	C 	0.30446 0.18200 0.88690 0.02200
F 	F 	0.15918 0.07852 0.88913 -0.38700
H 	H 	0.09172 0.04134 0.84322 0.14000
F 	F 	0.27236 0.19649 0.79029 -0.41400
H 	H 	0.34033 0.23202 0.83600 0.13000
C 	C 	0.32319 0.13551 0.89870 0.30100
C 	C 	0.38001 0.16056 0.91658 -0.05500
C 	C 	0.42003 0.23239 0.92202 -0.13600
C 	C 	0.39569 0.27703 0.91297 0.37500
C 	C 	0.33815 0.25191 0.89543 -0.14600
F 	F 	0.29018 0.06734 0.89119 -0.39800
H 	H 	0.39735 0.12531 0.92395 0.09500
F 	F 	0.43192 0.34615 0.91906 -0.43400
H 	H 	0.32266 0.28775 0.88714 0.12700
C 	C 	0.84768 0.72051 0.83341 -0.14500
C 	C 	0.81854 0.66333 0.81570 0.01900
C 	C 	0.83427 0.67431 0.78807 0.31000
C 	C 	0.87939 0.74171 0.77836 -0.04700
C 	C 	0.90782 0.79894 0.79602 -0.14400
C 	C 	0.89164 0.78812 0.82358 0.38300
C 	C 	0.77332 0.59197 0.82636 0.01900
F 	F 	0.80516 0.61982 0.77063 -0.37400
H 	H 	0.89085 0.74972 0.75699 0.10700
F 	F 	0.91879 0.84302 0.84085 -0.41300
H 	H 	0.83629 0.71244 0.85479 0.12600
C 	C 	0.79637 0.54280 0.82550 0.31500
C 	C 	0.76203 0.48168 0.84094 -0.05800
C 	C 	0.70647 0.47070 0.85811 -0.12500
C 	C 	0.67831 0.51559 0.85644 0.37500
C 	C 	0.71158 0.57597 0.84054 -0.14200
F 	F 	0.85523 0.55679 0.81146 -0.38100
H 	H 	0.78303 0.44637 0.84158 0.14100
F 	F 	0.62247 0.50388 0.87204 -0.42600
H 	H 	0.69198 0.61247 0.84058 0.12700
