data_crystal

_cell_length_a 18.01770
_cell_length_b 16.61916
_cell_length_c 49.76238
_cell_angle_alpha 90.73036
_cell_angle_beta  91.03459
_cell_angle_gamma 110.88753

_symmetry_space_group_name_	'P 1'
_symmetry_space_group_name_H-M	'P 1'

loop_
_symmetry_equiv_pos_as_xyz
  x,y,z

loop_
_atom_site_label
_atom_site_type_symbol
_atom_site_fract_x
_atom_site_fract_y
_atom_site_fract_z
_atom_site_charge
O 	O 	0.09935 0.88949 0.75644 -0.70100
Ni	Ni	0.11781 0.00546 0.77357 1.11000
O 	O 	0.15123 0.77765 0.72122 -0.29700
Ni	Ni	0.20291 0.88937 0.74498 1.09300
O 	O 	0.20024 0.97547 0.71637 -0.34300
O 	O 	0.20424 0.00774 0.80103 -0.33500
O 	O 	0.03441 0.00202 0.74504 -0.70500
O 	O 	0.10903 0.11395 0.79123 -0.28000
H 	H 	0.07351 0.84208 0.76883 0.16800
H 	H 	0.05153 0.05325 0.73352 0.20700
C 	C 	0.21451 0.05732 0.72281 0.28200
C 	C 	0.07923 0.75248 0.71026 0.28900
C 	C 	0.27205 0.00404 0.79309 0.30100
C 	C 	0.03910 0.11486 0.79808 0.25400
O 	O 	0.20259 0.08002 0.74766 -0.29800
O 	O 	0.28120 0.98768 0.76765 -0.35200
Ni	Ni	0.36052 0.76496 0.40832 1.10500
O 	O 	0.32294 0.67287 0.37876 -0.70700
Ni	Ni	0.21473 0.67539 0.37033 1.11800
O 	O 	0.44101 0.71682 0.42456 -0.35100
O 	O 	0.34699 0.58264 0.42798 -0.40300
O 	O 	0.44788 0.84419 0.38429 -0.33200
Ni	Ni	0.31261 0.55546 0.38761 1.09100
O 	O 	0.37738 0.95760 0.40467 -0.38300
O 	O 	0.19767 0.50222 0.39990 -0.34200
O 	O 	0.16545 0.56438 0.34748 -0.26500
O 	O 	0.26098 0.78024 0.39539 -0.70200
O 	O 	0.39201 0.86264 0.43577 -0.36400
O 	O 	0.11846 0.70867 0.36145 -0.28800
O 	O 	0.19783 0.84298 0.34820 -0.33900
Ni	Ni	0.28827 0.88997 0.37772 1.07700
H 	H 	0.35570 0.69041 0.36265 0.23400
H 	H 	0.22619 0.77837 0.41073 0.16300
C 	C 	0.16307 0.54620 0.41357 0.30800
O 	O 	0.36489 0.86548 0.35209 -0.35100
C 	C 	0.41504 0.64147 0.43611 0.28200
C 	C 	0.20143 0.51092 0.33991 0.30600
C 	C 	0.43583 0.86913 0.36010 0.30700
C 	C 	0.12650 0.78564 0.35276 0.26800
C 	C 	0.38195 0.93550 0.43006 0.26000
O 	O 	0.15663 0.61608 0.40366 -0.36500
O 	O 	0.27319 0.51851 0.34928 -0.35000
Ni	Ni	0.33840 0.65350 0.13398 1.11200
O 	O 	0.24542 0.63033 0.10653 -0.69300
Ni	Ni	0.19026 0.70666 0.12234 1.10200
O 	O 	0.37410 0.55677 0.11989 -0.32500
O 	O 	0.25420 0.45493 0.10926 -0.36700
O 	O 	0.41689 0.72936 0.10680 -0.36700
Ni	Ni	0.16873 0.51125 0.10586 1.07200
O 	O 	0.46289 0.82828 0.15073 -0.35200
O 	O 	0.16030 0.51490 0.14657 -0.36500
O 	O 	0.10012 0.68042 0.09455 -0.37200
O 	O 	0.28531 0.73285 0.14831 -0.69400
O 	O 	0.42928 0.68710 0.16181 -0.29800
O 	O 	0.15595 0.80107 0.13921 -0.32900
O 	O 	0.27656 0.90516 0.13343 -0.33300
Ni	Ni	0.36063 0.85101 0.14313 1.11900
H 	H 	0.26320 0.64831 0.08814 0.14900
H 	H 	0.27024 0.72155 0.16731 0.25200
C 	C 	0.11394 0.55064 0.15765 0.31700
O 	O 	0.36605 0.83569 0.10275 -0.39600
C 	C 	0.32840 0.49709 0.10324 0.28400
C 	C 	0.06392 0.60110 0.08559 0.30600
C 	C 	0.40225 0.78763 0.09230 0.29200
C 	C 	0.20635 0.87974 0.14408 0.30500
O 	O 	0.11246 0.62496 0.14901 -0.32000
O 	O 	0.06683 0.53612 0.09991 -0.40600
O 	O 	0.03640 0.22725 0.23988 -0.33300
O 	O 	0.09816 0.10090 0.22842 -0.33500
O 	O 	0.00685 0.10605 0.19661 -0.27100
O 	O 	0.99944 0.00091 0.29979 -0.32800
Ni	Ni	0.03881 0.04897 0.26230 1.08800
O 	O 	0.05308 0.16556 0.27913 -0.37100
C 	C 	0.06217 0.23411 0.26499 0.30100
C 	C 	0.06614 0.08158 0.20394 0.27300
C 	C 	0.97325 0.45481 0.16189 0.09100
C 	C 	0.04806 0.49679 0.17421 -0.01500
C 	C 	0.06134 0.47905 0.20120 -0.05500
C 	C 	0.00391 0.40954 0.21383 0.03100
C 	C 	0.93266 0.36070 0.20025 0.05500
C 	C 	0.91434 0.38809 0.17498 -0.09300
H 	H 	0.96241 0.47129 0.14157 0.08900
H 	H 	0.01657 0.39006 0.23356 0.09200
C 	C 	0.13782 0.53151 0.21612 0.78100
F 	F 	0.15470 0.61847 0.21220 -0.39500
F 	F 	0.19962 0.50915 0.20662 -0.38500
F 	F 	0.13224 0.51753 0.24350 -0.39200
C 	C 	0.09963 0.93936 0.14855 0.08000
C 	C 	0.17678 0.94464 0.15548 -0.01300
C 	C 	0.22206 0.00749 0.17477 -0.06000
C 	C 	0.18722 0.06166 0.18697 0.03600
C 	C 	0.10548 0.04487 0.18373 0.04700
C 	C 	0.06091 0.98287 0.16401 -0.13400
C 	C 	0.97165 0.95695 0.16112 0.80400
H 	H 	0.06789 0.89646 0.13221 0.08500
H 	H 	0.22243 0.11351 0.20044 0.12500
C 	C 	0.30692 0.01714 0.18244 0.77900
F 	F 	0.93860 0.88664 0.14384 -0.39500
F 	F 	0.95265 0.02459 0.15110 -0.38400
F 	F 	0.35623 0.05187 0.16131 -0.43200
F 	F 	0.31105 0.93795 0.18865 -0.44700
F 	F 	0.33477 0.07097 0.20474 -0.39500
F 	F 	0.40985 0.75569 0.31306 -0.40800
F 	F 	0.49691 0.73044 0.34186 -0.44900
C 	C 	0.20858 0.43372 0.29751 0.07000
C 	C 	0.16290 0.44519 0.31880 0.02800
C 	C 	0.08063 0.39459 0.31942 -0.06600
C 	C 	0.04582 0.33753 0.29791 0.04300
C 	C 	0.09300 0.31885 0.27857 0.00700
C 	C 	0.17426 0.37074 0.27726 -0.06100
C 	C 	0.22551 0.35526 0.25538 0.78300
H 	H 	0.27114 0.47301 0.29700 0.12300
H 	H 	0.98260 0.30144 0.29758 0.08700
C 	C 	0.03009 0.39864 0.34322 0.76200
F 	F 	0.29741 0.42305 0.25397 -0.37500
F 	F 	0.18704 0.34640 0.23062 -0.39200
F 	F 	0.24042 0.28084 0.26063 -0.41900
F 	F 	0.01097 0.47202 0.34194 -0.38600
F 	F 	0.07021 0.39900 0.36719 -0.43000
F 	F 	0.95995 0.32798 0.34329 -0.38800
C 	C 	0.96953 0.80132 0.30380 0.07300
C 	C 	0.94483 0.86040 0.31793 0.01400
C 	C 	0.96001 0.87114 0.34592 -0.06300
C 	C 	0.01899 0.84448 0.35740 0.02400
C 	C 	0.05598 0.79970 0.34175 0.02500
C 	C 	0.02672 0.77163 0.31532 -0.10300
C 	C 	0.05888 0.71376 0.29908 0.78300
H 	H 	0.95206 0.78753 0.28281 0.09400
H 	H 	0.03834 0.86154 0.37813 0.06700
F 	F 	0.02067 0.69142 0.27422 -0.40200
F 	F 	0.04792 0.63864 0.31275 -0.38800
F 	F 	0.13909 0.75569 0.29495 -0.40200
C 	C 	0.39986 0.00165 0.45127 -0.03800
C 	C 	0.34204 0.99708 0.47025 -0.02100
C 	C 	0.36431 0.03929 0.49517 -0.02700
H 	H 	0.28065 0.95631 0.46637 0.03900
H 	H 	0.31978 0.03213 0.51021 0.06600
C 	C 	0.04218 0.46124 0.48671 0.04100
H 	H 	0.91764 0.32044 0.50031 0.07500
C 	C 	0.11698 0.45524 0.48285 -0.05600
C 	C 	0.15471 0.47834 0.45830 0.02100
C 	C 	0.11837 0.50886 0.43761 -0.06400
C 	C 	0.04225 0.51177 0.44120 0.04200
C 	C 	0.00430 0.48792 0.46562 -0.08000
H 	H 	0.14638 0.43406 0.49899 0.06700
H 	H 	0.21319 0.47526 0.45569 0.04400
H 	H 	0.01315 0.53407 0.42523 0.07500
C 	C 	0.42659 0.59465 0.50962 -0.05500
C 	C 	0.39683 0.60714 0.48456 0.01900
C 	C 	0.44766 0.63279 0.46272 -0.07400
H 	H 	0.38668 0.57422 0.52628 0.06700
H 	H 	0.33419 0.59671 0.48208 0.03600
H 	H 	0.62335 0.71311 0.54625 0.06700
C 	C 	0.30833 0.20745 0.71615 0.06500
C 	C 	0.26498 0.12562 0.70495 0.04300
C 	C 	0.28434 0.10530 0.67893 -0.09600
C 	C 	0.35977 0.15232 0.66906 0.06700
C 	C 	0.41126 0.22465 0.68337 0.01400
C 	C 	0.38276 0.25699 0.70586 -0.05400
C 	C 	0.43214 0.34239 0.71928 0.78600
H 	H 	0.28730 0.22913 0.73409 0.14800
H 	H 	0.37941 0.13104 0.65072 0.08000
C 	C 	0.22504 0.03620 0.66131 0.79600
F 	F 	0.39245 0.36390 0.74015 -0.36800
F 	F 	0.14775 0.02392 0.66829 -0.43600
F 	F 	0.23830 0.95962 0.66382 -0.41300
F 	F 	0.23347 0.05988 0.63465 -0.41500
F 	F 	0.19639 0.68234 0.68378 -0.39800
C 	C 	0.94238 0.48913 0.02441 -0.07400
C 	C 	0.99606 0.65285 0.04903 0.08800
C 	C 	0.01118 0.58454 0.06149 -0.13500
C 	C 	0.98199 0.50200 0.04936 0.06300
H 	H 	0.01663 0.71650 0.05835 0.03600
H 	H 	0.99231 0.44843 0.05880 0.03800
H 	H 	0.92202 0.42575 0.01489 0.07100
C 	C 	0.55624 0.86493 0.03926 -0.06000
C 	C 	0.51232 0.88707 0.01896 0.03800
C 	C 	0.39266 0.82527 0.04459 0.02200
C 	C 	0.43745 0.80877 0.06573 -0.08400
C 	C 	0.51881 0.82541 0.06252 0.02600
H 	H 	0.55383 0.81214 0.07862 0.06300
H 	H 	0.61975 0.88130 0.03746 0.07100
C 	C 	0.60051 0.02883 0.00220 -0.02000
H 	H 	0.61338 0.05273 0.02276 0.06700
H 	H 	0.66238 0.15278 0.98544 0.05400
H 	H 	0.44803 0.29924 0.01282 0.06600
C 	C 	0.36169 0.47423 0.07854 -0.07400
C 	C 	0.31864 0.39911 0.06359 0.01400
C 	C 	0.34590 0.38262 0.03872 -0.05200
H 	H 	0.26354 0.35406 0.07102 0.05000
H 	H 	0.31150 0.32527 0.02719 0.06400
C 	C 	0.46994 0.15637 0.82163 0.06600
C 	C 	0.48380 0.10751 0.84245 -0.00900
C 	C 	0.42828 0.02398 0.84712 -0.04400
C 	C 	0.35769 0.99273 0.83135 0.01000
C 	C 	0.34347 0.04204 0.81061 0.03600
C 	C 	0.39911 0.12585 0.80611 -0.09500
C 	C 	0.38435 0.18186 0.78436 0.78500
H 	H 	0.31406 0.92955 0.83496 0.09400
C 	C 	0.44375 0.96866 0.86902 0.75200
F 	F 	0.43775 0.26577 0.78648 -0.39700
F 	F 	0.30882 0.18452 0.78637 -0.42100
F 	F 	0.39251 0.14862 0.75947 -0.42700
F 	F 	0.43817 0.00344 0.89395 -0.42500
F 	F 	0.51892 0.96519 0.86657 -0.44500
F 	F 	0.38955 0.88506 0.86752 -0.42700
F 	F 	0.99648 0.68691 0.84513 -0.42600
Ni	Ni	0.62737 0.27473 0.90537 1.09800
O 	O 	0.64325 0.35182 0.87277 -0.70300
Ni	Ni	0.75159 0.35761 0.86112 1.10900
O 	O 	0.53461 0.30632 0.91909 -0.36000
O 	O 	0.60537 0.45082 0.91924 -0.40200
O 	O 	0.54399 0.17360 0.88456 -0.32400
Ni	Ni	0.64059 0.46772 0.87920 1.08200
O 	O 	0.63101 0.09004 0.90751 -0.33000
O 	O 	0.75179 0.53256 0.89470 -0.33700
O 	O 	0.77374 0.44878 0.83200 -0.29900
O 	O 	0.73032 0.27196 0.89180 -0.70200
O 	O 	0.61788 0.19315 0.93629 -0.36300
O 	O 	0.85308 0.33753 0.85073 -0.29900
O 	O 	0.79174 0.19150 0.84814 -0.34100
Ni	Ni	0.71163 0.15426 0.87938 1.10400
H 	H 	0.60400 0.32330 0.85828 0.17300
H 	H 	0.77213 0.29014 0.90613 0.18800
C 	C 	0.79642 0.49216 0.90434 0.27900
O 	O 	0.62398 0.15098 0.85250 -0.36400
C 	C 	0.54595 0.38453 0.92805 0.28200
C 	C 	0.75100 0.51606 0.83297 0.30400
C 	C 	0.55364 0.14687 0.86036 0.30200
C 	C 	0.85726 0.26033 0.84935 0.29700
C 	C 	0.62731 0.11861 0.93230 0.28300
O 	O 	0.82303 0.44676 0.88807 -0.31600
O 	O 	0.67940 0.50786 0.84165 -0.36100
Ni	Ni	0.62100 0.36526 0.64224 1.11200
O 	O 	0.70535 0.38393 0.61311 -0.69400
Ni	Ni	0.76411 0.30827 0.62622 1.10400
O 	O 	0.57923 0.45619 0.62731 -0.31000
O 	O 	0.69959 0.55845 0.61947 -0.35500
O 	O 	0.54066 0.28169 0.61628 -0.36800
Ni	Ni	0.78254 0.50176 0.61143 1.07600
O 	O 	0.53815 0.20756 0.68553 -0.33600
O 	O 	0.80688 0.50277 0.65159 -0.35400
O 	O 	0.84070 0.32755 0.59536 -0.33000
O 	O 	0.68346 0.29394 0.65581 -0.70300
O 	O 	0.53335 0.33516 0.67006 -0.27500
O 	O 	0.80262 0.21467 0.64091 -0.29400
O 	O 	0.67707 0.11607 0.63892 -0.38100
Ni	Ni	0.61233 0.17397 0.66117 1.08700
H 	H 	0.68123 0.36381 0.59509 0.14800
H 	H 	0.71056 0.31893 0.67306 0.22300
C 	C 	0.85461 0.46545 0.66090 0.30700
O 	O 	0.53552 0.14970 0.62888 -0.37000
C 	C 	0.62434 0.51955 0.61276 0.28900
C 	C 	0.87566 0.40554 0.58613 0.28700
C 	C 	0.54131 0.20549 0.60988 0.27200
C 	C 	0.75358 0.13508 0.64324 0.29300
C 	C 	0.49678 0.25490 0.67760 0.29200
O 	O 	0.85517 0.39340 0.64968 -0.31600
O 	O 	0.87999 0.47356 0.60104 -0.38700
Ni	Ni	0.02802 0.89662 0.72427 1.10500
O 	O 	0.05177 0.80895 0.70022 -0.30100
O 	O 	0.93252 0.79929 0.73989 -0.31200
O 	O 	0.86525 0.92098 0.72632 -0.29600
O 	O 	0.95318 0.90993 0.69496 -0.29500
O 	O 	0.97589 0.04401 0.79610 -0.33400
Ni	Ni	0.93002 0.98318 0.75955 1.09900
O 	O 	0.92153 0.87199 0.77796 -0.37300
C 	C 	0.90811 0.79954 0.76467 0.30500
C 	C 	0.89267 0.93268 0.70159 0.28000
C 	C 	0.46786 0.76938 0.16745 0.29900
Ni	Ni	0.93719 0.12811 0.22540 1.12600
O 	O 	0.87293 0.14666 0.25730 -0.69000
Ni	Ni	0.85499 0.03576 0.27642 1.11500
O 	O 	0.91197 0.21051 0.20001 -0.28500
O 	O 	0.81976 0.25310 0.22047 -0.28900
Ni	Ni	0.76919 0.15016 0.24654 1.10100
O 	O 	0.75936 0.05123 0.22025 -0.34100
O 	O 	0.77768 0.04806 0.30417 -0.30400
O 	O 	0.93185 0.02796 0.24788 -0.68700
O 	O 	0.86519 0.93189 0.29612 -0.29300
H 	H 	0.90237 0.19680 0.26895 0.18600
H 	H 	0.91119 0.97334 0.23730 0.23300
C 	C 	0.73751 0.97122 0.22889 0.28200
C 	C 	0.88959 0.27202 0.20918 0.27600
C 	C 	0.70770 0.04892 0.29672 0.30900
C 	C 	0.93620 0.93159 0.30278 0.27200
O 	O 	0.76120 0.95426 0.25295 -0.33000
O 	O 	0.69322 0.06255 0.27140 -0.35300
C 	C 	0.83405 0.34281 0.16123 0.78600
F 	F 	0.82275 0.38800 0.13931 -0.41700
F 	F 	0.77394 0.33538 0.17901 -0.40000
F 	F 	0.82858 0.26157 0.15245 -0.40800
C 	C 	0.61022 0.80557 0.17796 0.07100
C 	C 	0.53419 0.79421 0.18709 0.01900
C 	C 	0.52571 0.82734 0.21267 -0.08100
C 	C 	0.59313 0.88555 0.22612 0.06200
C 	C 	0.66887 0.90442 0.21549 0.02500
C 	C 	0.67810 0.85940 0.19228 -0.09200
C 	C 	0.75979 0.86830 0.18303 0.79200
H 	H 	0.61618 0.77705 0.15879 0.09700
H 	H 	0.58655 0.91784 0.24449 0.09000
C 	C 	0.44436 0.80628 0.22460 0.77900
F 	F 	0.75696 0.81479 0.16117 -0.39200
F 	F 	0.80051 0.84671 0.20387 -0.40600
F 	F 	0.79963 0.95255 0.17577 -0.40100
F 	F 	0.39901 0.72022 0.22008 -0.38400
F 	F 	0.40647 0.85646 0.21284 -0.41300
F 	F 	0.45005 0.82197 0.25210 -0.38000
F 	F 	0.93870 0.93429 0.18595 -0.41600
C 	C 	0.59898 0.91521 0.30901 0.04700
C 	C 	0.63932 0.00377 0.31348 0.04200
C 	C 	0.61277 0.04844 0.33324 -0.09100
C 	C 	0.54552 0.00299 0.34818 0.08300
C 	C 	0.50487 0.91447 0.34359 -0.00600
C 	C 	0.53142 0.86990 0.32376 -0.06000
C 	C 	0.48953 0.77370 0.31900 0.77900
H 	H 	0.62053 0.88176 0.29396 0.10500
H 	H 	0.52462 0.03622 0.36348 0.08200
C 	C 	0.65589 0.14428 0.33827 0.78300
F 	F 	0.52136 0.74307 0.29780 -0.38800
F 	F 	0.65424 0.18839 0.31501 -0.42200
F 	F 	0.73406 0.15971 0.34588 -0.39900
F 	F 	0.62139 0.17625 0.35841 -0.41800
C 	C 	0.92143 0.92092 0.36282 0.76800
F 	F 	0.84476 0.90602 0.35348 -0.40800
F 	F 	0.96534 0.00803 0.36170 -0.40600
F 	F 	0.91760 0.89593 0.38935 -0.42000
C 	C 	0.45806 0.05696 0.54970 -0.03100
C 	C 	0.47013 0.11654 0.52898 0.02700
C 	C 	0.50806 0.20464 0.53470 -0.05300
C 	C 	0.53295 0.23323 0.56097 0.01400
C 	C 	0.51944 0.17395 0.58191 -0.06700
C 	C 	0.48257 0.08545 0.57605 0.02100
C 	C 	0.44461 0.08627 0.50123 0.02000
H 	H 	0.51801 0.25099 0.51880 0.05500
H 	H 	0.56220 0.30155 0.56508 0.02400
H 	H 	0.47193 0.03880 0.59187 0.07600
H 	H 	0.42969 0.98861 0.54536 0.05700
C 	C 	0.50135 0.09748 0.48131 -0.04000
C 	C 	0.47892 0.05553 0.45634 0.01400
H 	H 	0.56334 0.13495 0.48565 0.06400
H 	H 	0.52388 0.06004 0.44167 0.07400
C 	C 	0.93847 0.36780 0.51653 -0.02600
C 	C 	0.00475 0.44294 0.51310 0.01000
C 	C 	0.03130 0.50386 0.53422 -0.07600
C 	C 	0.99034 0.49098 0.55834 0.07200
C 	C 	0.92252 0.41683 0.56153 -0.07300
C 	C 	0.89763 0.35465 0.54064 0.02500
H 	H 	0.08259 0.56202 0.53173 0.07000
H 	H 	0.01101 0.53885 0.57442 0.04700
H 	H 	0.84546 0.29718 0.54283 0.05900
H 	H 	0.94622 0.49201 0.46838 0.08900
C 	C 	0.55874 0.63492 0.49144 -0.05200
C 	C 	0.50736 0.60689 0.51307 0.02900
C 	C 	0.52900 0.64828 0.46637 0.02100
C 	C 	0.53690 0.58527 0.53883 0.02500
H 	H 	0.56879 0.66871 0.44968 0.06400
H 	H 	0.62123 0.64460 0.49390 0.06400
C 	C 	0.50323 0.50180 0.54883 -0.05100
C 	C 	0.52987 0.48136 0.57342 0.01500
C 	C 	0.59135 0.54384 0.58814 -0.07300
C 	C 	0.62481 0.62758 0.57820 0.01800
C 	C 	0.59752 0.64825 0.55368 -0.04900
H 	H 	0.45670 0.45261 0.53746 0.06000
H 	H 	0.50390 0.41638 0.58074 0.05600
H 	H 	0.67195 0.67656 0.58941 0.06700
C 	C 	0.89710 0.02505 0.66235 0.06000
C 	C 	0.85146 0.96503 0.68070 0.01700
C 	C 	0.76818 0.94536 0.68088 -0.11500
C 	C 	0.73620 0.00088 0.66805 0.09300
C 	C 	0.78378 0.06713 0.65186 -0.00500
C 	C 	0.86222 0.07180 0.64637 -0.07300
C 	C 	0.90885 0.12530 0.62365 0.78000
H 	H 	0.96014 0.03704 0.66102 0.11600
H 	H 	0.67473 0.99356 0.67112 0.05400
C 	C 	0.71306 0.86601 0.69446 0.79200
F 	F 	0.96308 0.09088 0.61407 -0.40200
F 	F 	0.94992 0.20847 0.63289 -0.40400
F 	F 	0.85894 0.12694 0.60235 -0.43200
F 	F 	0.70400 0.88608 0.72094 -0.39800
F 	F 	0.74254 0.79977 0.69342 -0.37100
F 	F 	0.63902 0.83687 0.68171 -0.40700
F 	F 	0.44919 0.40726 0.70069 -0.38400
F 	F 	0.50234 0.33796 0.72961 -0.37500
C 	C 	0.96888 0.61478 0.71655 0.08500
C 	C 	0.03807 0.66112 0.70288 0.00500
C 	C 	0.05567 0.62660 0.67871 -0.10200
C 	C 	0.99684 0.55512 0.66625 0.10900
C 	C 	0.92276 0.51680 0.67809 0.00800
C 	C 	0.91150 0.54118 0.70456 -0.07200
C 	C 	0.83657 0.49205 0.71937 0.78300
H 	H 	0.95731 0.63952 0.73565 0.08200
H 	H 	0.00624 0.53334 0.64641 0.07100
C 	C 	0.13472 0.66926 0.66531 0.78700
F 	F 	0.84610 0.51004 0.74673 -0.41500
F 	F 	0.81777 0.40430 0.71559 -0.43000
F 	F 	0.77433 0.51451 0.70971 -0.39600
F 	F 	0.13848 0.74769 0.65517 -0.40000
F 	F 	0.14501 0.61881 0.64438 -0.41900
C 	C 	0.93160 0.55851 0.01132 0.05000
C 	C 	0.95665 0.63984 0.02403 -0.07900
C 	C 	0.89945 0.54734 0.98358 0.01600
H 	H 	0.94773 0.69355 0.01417 0.07900
C 	C 	0.94109 0.52562 0.96288 -0.03800
C 	C 	0.90901 0.51086 0.93676 0.01900
C 	C 	0.83484 0.51774 0.93108 -0.04900
C 	C 	0.79467 0.54272 0.95165 0.00500
C 	C 	0.82676 0.55719 0.97781 -0.04200
H 	H 	0.99796 0.51936 0.96711 0.06900
H 	H 	0.94147 0.49325 0.92103 0.09400
H 	H 	0.73778 0.54897 0.94754 0.05200
H 	H 	0.79453 0.57461 0.99366 0.06100
C 	C 	0.42991 0.86416 0.02130 -0.06200
C 	C 	0.55328 0.94237 0.99684 0.00100
H 	H 	0.39535 0.88014 0.00560 0.06600
H 	H 	0.32957 0.81136 0.04671 0.03100
C 	C 	0.62780 0.08564 0.98104 0.00300
C 	C 	0.60821 0.05647 0.95434 -0.02700
C 	C 	0.56475 0.96875 0.94897 -0.00400
C 	C 	0.53735 0.91207 0.97015 -0.02600
H 	H 	0.54947 0.94513 0.92847 0.10500
H 	H 	0.50134 0.84530 0.96583 0.06300
C 	C 	0.45990 0.48533 0.98191 -0.05200
C 	C 	0.44504 0.42376 0.00214 0.02600
C 	C 	0.45905 0.34706 0.99733 -0.04900
C 	C 	0.48915 0.33279 0.97276 0.01900
C 	C 	0.50617 0.39544 0.95277 -0.07000
C 	C 	0.49065 0.47140 0.95739 0.01900
C 	C 	0.41678 0.44057 0.02861 0.02600
H 	H 	0.50149 0.27422 0.96958 0.05600
H 	H 	0.50304 0.51996 0.94209 0.04600
H 	H 	0.44836 0.54429 0.98528 0.05600
C 	C 	0.46085 0.51448 0.04380 -0.05100
C 	C 	0.43340 0.53141 0.06856 0.01700
H 	H 	0.51610 0.55915 0.03632 0.06000
H 	H 	0.46705 0.58994 0.07968 0.06000
C 	C 	0.02155 0.17375 0.84195 0.02800
C 	C 	0.03413 0.18659 0.81435 0.04400
C 	C 	0.01223 0.25058 0.80172 -0.12800
C 	C 	0.95770 0.28052 0.81433 0.09900
C 	C 	0.93128 0.25248 0.84009 0.00500
C 	C 	0.97020 0.20713 0.85517 -0.06600
C 	C 	0.95199 0.18791 0.88451 0.78600
H 	H 	0.04359 0.12926 0.85218 0.09700
H 	H 	0.93150 0.32026 0.80342 0.10400
C 	C 	0.03738 0.27730 0.77336 0.77700
F 	F 	0.01193 0.16815 0.89737 -0.44200
F 	F 	0.88150 0.11864 0.88641 -0.47100
F 	F 	0.94507 0.25872 0.89765 -0.45500
F 	F 	0.98602 0.21917 0.75525 -0.44200
F 	F 	0.11388 0.27934 0.76943 -0.40500
F 	F 	0.03611 0.35865 0.76851 -0.40600
H 	H 	0.51397 0.21923 0.81788 0.07200
C 	C 	0.75028 0.60505 0.79323 0.06500
C 	C 	0.79204 0.58893 0.81535 0.02700
C 	C 	0.87459 0.63664 0.81883 -0.08800
C 	C 	0.91352 0.69787 0.79965 0.06900
C 	C 	0.87083 0.71767 0.77860 0.00200
C 	C 	0.78909 0.66857 0.77459 -0.06300
C 	C 	0.74270 0.68592 0.75106 0.78500
H 	H 	0.68760 0.56745 0.79047 0.11800
H 	H 	0.97664 0.73406 0.80192 0.06800
C 	C 	0.92032 0.62599 0.84364 0.78200
F 	F 	0.66690 0.62463 0.74857 -0.36800
F 	F 	0.78147 0.68473 0.72741 -0.36600
F 	F 	0.73632 0.76577 0.75467 -0.39200
F 	F 	0.92640 0.54541 0.84321 -0.41900
F 	F 	0.88165 0.63579 0.86647 -0.43900
