data_crystal

_cell_length_a 16.91950
_cell_length_b 17.79447
_cell_length_c 49.87142
_cell_angle_alpha 88.45975
_cell_angle_beta  88.51523
_cell_angle_gamma 108.08589

_symmetry_space_group_name_	'P 1'
_symmetry_space_group_name_H-M	'P 1'

loop_
_symmetry_equiv_pos_as_xyz
  x,y,z

loop_
_atom_site_label
_atom_site_type_symbol
_atom_site_fract_x
_atom_site_fract_y
_atom_site_fract_z
_atom_site_charge
Zn	Zn	0.74458 0.38927 0.90564 1.22600
Zn	Zn	0.57552 0.41482 0.88132 1.19700
C 	C 	0.72591 0.17098 0.84470 0.28300
Zn	Zn	0.62906 0.26932 0.86794 1.22300
Zn	Zn	0.82550 0.27275 0.88535 1.19600
H 	H 	0.70397 0.41214 0.85363 0.19100
C 	C 	0.52013 0.25398 0.91517 0.32000
O 	O 	0.90655 0.32719 0.91240 -0.45500
O 	O 	0.81840 0.37423 0.93781 -0.39900
O 	O 	0.67528 0.38480 0.87035 -0.78900
O 	O 	0.62319 0.50227 0.90673 -0.45900
O 	O 	0.84279 0.46753 0.88849 -0.44200
O 	O 	0.68521 0.43078 0.93274 -0.43600
O 	O 	0.86557 0.37963 0.85929 -0.39800
O 	O 	0.47558 0.34604 0.86387 -0.45500
H 	H 	0.69456 0.24433 0.91432 0.17400
O 	O 	0.54300 0.27841 0.83838 -0.39400
O 	O 	0.71589 0.27788 0.89792 -0.79900
O 	O 	0.79844 0.22084 0.85052 -0.43600
O 	O 	0.53573 0.21855 0.89372 -0.44100
O 	O 	0.65932 0.19482 0.84343 -0.41400
O 	O 	0.54329 0.33173 0.91587 -0.41100
C 	C 	0.88540 0.35207 0.93537 0.34200
C 	C 	0.66171 0.49367 0.92865 0.34200
C 	C 	0.87777 0.45286 0.86633 0.33300
C 	C 	0.47625 0.29891 0.84402 0.29900
Zn	Zn	0.50012 0.21180 0.63216 1.22500
Zn	Zn	0.47340 0.36971 0.65831 1.19600
C 	C 	0.74378 0.23567 0.68772 0.28200
Zn	Zn	0.63301 0.32482 0.66739 1.22400
Zn	Zn	0.63378 0.14106 0.64761 1.19600
H 	H 	0.48671 0.24964 0.68478 0.18800
C 	C 	0.63642 0.43039 0.62154 0.32300
O 	O 	0.57650 0.06442 0.62058 -0.46000
O 	O 	0.51013 0.14224 0.59913 -0.39700
O 	O 	0.51120 0.27759 0.66767 -0.78900
O 	O 	0.37866 0.32256 0.63415 -0.46200
O 	O 	0.42432 0.11739 0.65092 -0.44100
O 	O 	0.45062 0.26629 0.60595 -0.43700
O 	O 	0.52665 0.09364 0.67538 -0.39500
O 	O 	0.54593 0.46544 0.67513 -0.46000
H 	H 	0.64997 0.26509 0.61983 0.17300
O 	O 	0.62797 0.40605 0.69767 -0.38900
O 	O 	0.61929 0.24308 0.63690 -0.79800
O 	O 	0.69132 0.16682 0.68192 -0.43900
O 	O 	0.67918 0.41450 0.64140 -0.43900
O 	O 	0.71857 0.29874 0.68952 -0.40700
O 	O 	0.55454 0.40419 0.62235 -0.41400
C 	C 	0.54199 0.08363 0.59913 0.32500
C 	C 	0.38871 0.29441 0.61063 0.34600
C 	C 	0.44754 0.08398 0.67177 0.31700
C 	C 	0.60025 0.46674 0.69368 0.32000
Zn	Zn	0.04278 0.01167 0.76509 1.21600
Zn	Zn	0.88732 0.92339 0.72683 1.19700
C 	C 	0.99964 0.74406 0.80862 0.32000
Zn	Zn	0.91667 0.84599 0.77978 1.22800
Zn	Zn	0.10648 0.91658 0.80439 1.19100
H 	H 	0.00751 0.87300 0.73762 0.15200
C 	C 	0.80447 0.94105 0.78278 0.32000
O 	O 	0.19490 0.02115 0.80428 -0.46100
O 	O 	0.12043 0.10114 0.78883 -0.39400
O 	O 	0.97664 0.90327 0.74747 -0.75900
O 	O 	0.94570 0.03427 0.71325 -0.45100
O 	O 	0.14240 0.01633 0.74381 -0.44500
O 	O 	0.98956 0.09074 0.75313 -0.41300
O 	O 	0.15016 0.90229 0.76353 -0.41600
O 	O 	0.78698 0.82777 0.73074 -0.45000
H 	H 	0.98244 0.96791 0.81122 0.20900
O 	O 	0.84101 0.75129 0.75777 -0.39700
O 	O 	0.00314 0.94181 0.79654 -0.83800
O 	O 	0.07438 0.79722 0.80673 -0.47200
O 	O 	0.81929 0.87668 0.79174 -0.43700
O 	O 	0.93169 0.76255 0.80374 -0.43800
O 	O 	0.83777 0.97551 0.75973 -0.41200
C 	C 	0.18500 0.09171 0.80123 0.31600
C 	C 	0.96178 0.09540 0.72887 0.34100
C 	C 	0.17748 0.96065 0.74554 0.30200
C 	C 	0.78834 0.75770 0.73960 0.29700
Zn	Zn	0.15346 0.64846 0.40635 1.22300
Zn	Zn	0.33090 0.64358 0.37887 1.19800
C 	C 	0.15521 0.87831 0.34467 0.33400
Zn	Zn	0.26163 0.78224 0.36732 1.22500
Zn	Zn	0.06823 0.76664 0.39151 1.19100
H 	H 	0.20205 0.64005 0.35406 0.19000
C 	C 	0.37538 0.79911 0.41102 0.31900
O 	O 	0.98350 0.69153 0.41599 -0.40500
O 	O 	0.07411 0.64739 0.44010 -0.39100
O 	O 	0.22715 0.66646 0.37034 -0.79200
O 	O 	0.29031 0.54940 0.40477 -0.45900
O 	O 	0.05835 0.57824 0.38794 -0.43700
O 	O 	0.21306 0.60306 0.43201 -0.44300
O 	O 	0.04463 0.67818 0.36046 -0.39900
O 	O 	0.42679 0.72244 0.35971 -0.45300
H 	H 	0.19933 0.79069 0.41693 0.17800
O 	O 	0.35217 0.78703 0.33588 -0.38800
O 	O 	0.17844 0.76192 0.40054 -0.80200
O 	O 	0.09456 0.85266 0.36318 -0.46800
O 	O 	0.35352 0.83667 0.39069 -0.43200
O 	O 	0.21488 0.84493 0.34150 -0.41500
O 	O 	0.35262 0.72119 0.41267 -0.41600
C 	C 	0.00250 0.66080 0.43823 0.23500
C 	C 	0.24671 0.54744 0.42719 0.34200
C 	C 	0.03122 0.60207 0.36578 0.24400
C 	C 	0.42231 0.77160 0.34002 0.29700
Zn	Zn	0.33416 0.86696 0.15951 1.22200
Zn	Zn	0.17573 0.69543 0.15008 1.19300
C 	C 	0.51957 0.75322 0.10598 0.34500
Zn	Zn	0.35268 0.71823 0.13120 1.22400
Zn	Zn	0.51255 0.86740 0.14710 1.19700
H 	H 	0.26237 0.79615 0.11544 0.17200
C 	C 	0.28948 0.61065 0.17644 0.29200
O 	O 	0.52774 0.97668 0.15830 -0.45300
O 	O 	0.41084 0.95172 0.18535 -0.39500
O 	O 	0.27338 0.77774 0.13346 -0.79300
O 	O 	0.13829 0.75199 0.17919 -0.44900
O 	O 	0.36315 0.94672 0.12926 -0.43500
O 	O 	0.24093 0.86968 0.18372 -0.42000
O 	O 	0.46008 0.89668 0.11024 -0.41300
O 	O 	0.16418 0.59567 0.13074 -0.46800
H 	H 	0.40618 0.77513 0.18022 0.18400
O 	O 	0.27986 0.64253 0.10286 -0.39900
O 	O 	0.40444 0.79712 0.16188 -0.79000
O 	O 	0.55712 0.79320 0.12632 -0.46100
O 	O 	0.33998 0.62481 0.15515 -0.43400
O 	O 	0.44011 0.74160 0.10256 -0.43700
O 	O 	0.24371 0.65670 0.18125 -0.41300
C 	C 	0.48737 0.99541 0.17863 0.32000
C 	C 	0.16164 0.82933 0.18129 0.30400
C 	C 	0.41116 0.94140 0.10864 0.32100
C 	C 	0.20547 0.59247 0.10825 0.31700
Zn	Zn	0.86698 0.07795 0.25468 1.22400
Zn	Zn	0.03893 0.17013 0.21920 1.18400
C 	C 	0.92316 0.32765 0.30522 0.32400
Zn	Zn	0.00272 0.22831 0.27388 1.20900
Zn	Zn	0.80522 0.16145 0.29842 1.19500
H 	H 	0.92353 0.22839 0.23167 0.18500
C 	C 	0.09289 0.11332 0.27448 0.28600
O 	O 	0.71052 0.06168 0.29719 -0.46000
O 	O 	0.77668 0.98244 0.27624 -0.38400
O 	O 	0.94801 0.19052 0.24035 -0.77400
O 	O 	0.97244 0.07209 0.20200 -0.45000
O 	O 	0.77600 0.09285 0.23422 -0.44000
O 	O 	0.91228 0.99717 0.23934 -0.41000
O 	O 	0.76837 0.19540 0.25923 -0.40800
O 	O 	0.14547 0.25175 0.22676 -0.46300
H 	H 	0.91799 0.09514 0.30127 0.18500
O 	O 	0.09316 0.32717 0.25391 -0.40700
O 	O 	0.90419 0.13082 0.28788 -0.79300
O 	O 	0.84662 0.27965 0.30272 -0.45000
O 	O 	0.08844 0.17958 0.28457 -0.43700
O 	O 	0.98913 0.30533 0.29988 -0.42100
O 	O 	0.06778 0.09407 0.25013 -0.42200
C 	C 	0.71422 0.99093 0.29108 0.31800
C 	C 	0.94950 0.00375 0.21538 0.30000
C 	C 	0.73981 0.14558 0.24019 0.30200
C 	C 	0.14862 0.32132 0.23578 0.31600
C 	C 	0.27448 0.53688 0.19257 -0.05300
C 	C 	0.25729 0.46472 0.17978 -0.02500
C 	C 	0.22253 0.39356 0.19444 0.00500
C 	C 	0.20519 0.39372 0.22216 -0.10800
C 	C 	0.23255 0.46579 0.23556 0.08400
C 	C 	0.26493 0.53715 0.22060 -0.04500
H 	H 	0.20439 0.33862 0.18395 0.01700
H 	H 	0.28166 0.59276 0.23071 0.05800
H 	H 	0.26564 0.46388 0.15818 0.04600
I 	I 	0.23442 0.46851 0.27816 -0.12500
C 	C 	0.66165 0.14206 0.22758 -0.05700
C 	C 	0.58698 0.09302 0.23962 -0.02000
C 	C 	0.52252 0.05117 0.22357 0.00500
C 	C 	0.53153 0.06126 0.19551 -0.10100
C 	C 	0.59736 0.12511 0.18432 0.07800
C 	C 	0.66347 0.16400 0.20032 -0.03800
H 	H 	0.46958 0.00581 0.23276 0.04100
H 	H 	0.71862 0.20667 0.19119 0.04900
H 	H 	0.58269 0.08023 0.26106 0.04400
I 	I 	0.59684 0.16525 0.14385 -0.11000
C 	C 	0.98650 0.94294 0.20720 -0.02300
C 	C 	0.99832 0.93189 0.17982 0.01300
C 	C 	0.05407 0.89274 0.17152 -0.04100
C 	C 	0.09911 0.86505 0.19047 -0.09600
C 	C 	0.08362 0.87171 0.21805 0.08600
C 	C 	0.02551 0.90844 0.22626 -0.07800
H 	H 	0.06429 0.88621 0.15029 0.01500
H 	H 	0.01455 0.91433 0.24742 0.06600
H 	H 	0.96718 0.95681 0.16492 0.03800
I 	I 	0.15074 0.83175 0.24770 -0.08500
C 	C 	0.49934 0.81724 0.32479 -0.04900
C 	C 	0.49512 0.85637 0.30031 -0.02300
C 	C 	0.56752 0.90745 0.28776 0.01300
C 	C 	0.64465 0.92097 0.29973 -0.09800
C 	C 	0.65000 0.87700 0.32310 0.07600
C 	C 	0.57755 0.82540 0.33553 -0.04100
H 	H 	0.56323 0.93881 0.26924 0.03200
H 	H 	0.58190 0.79394 0.35406 0.06200
H 	H 	0.43569 0.84866 0.29128 0.05500
I 	I 	0.76633 0.89011 0.34072 -0.13500
C 	C 	0.93534 0.40463 0.31735 -0.11000
C 	C 	0.89523 0.40883 0.34193 0.02900
C 	C 	0.92106 0.47755 0.35658 -0.04500
C 	C 	0.98708 0.54282 0.34676 0.02300
C 	C 	0.02048 0.54184 0.32055 -0.04900
C 	C 	0.99529 0.47230 0.30618 0.09800
H 	H 	0.89330 0.47831 0.37636 0.06000
H 	H 	0.02401 0.47024 0.28665 0.00600
H 	H 	0.84762 0.35731 0.35048 0.02500
I 	I 	0.10841 0.64348 0.30195 -0.11300
C 	C 	0.11104 0.05351 0.29208 -0.04600
C 	C 	0.04952 0.98089 0.29747 -0.07200
C 	C 	0.06719 0.92135 0.31257 0.03000
C 	C 	0.14550 0.93482 0.32375 -0.10000
C 	C 	0.20812 0.00788 0.31822 0.07600
C 	C 	0.19057 0.06679 0.30228 -0.04300
H 	H 	0.01875 0.86545 0.31649 0.03000
H 	H 	0.23864 0.12263 0.29790 0.06000
H 	H 	0.98761 0.97060 0.29001 0.07500
I 	I 	0.32849 0.03204 0.33407 -0.12700
C 	C 	0.47608 0.90652 0.47858 -0.00900
C 	C 	0.51406 0.98818 0.48017 -0.02700
C 	C 	0.53748 0.02098 0.50502 -0.04000
C 	C 	0.52266 0.97224 0.52838 -0.00200
C 	C 	0.48804 0.89020 0.52660 -0.03600
C 	C 	0.46492 0.85738 0.50175 -0.03200
C 	C 	0.44313 0.87347 0.45371 0.05000
C 	C 	0.41326 0.84218 0.43363 -0.11100
C 	C 	0.53224 0.00733 0.55421 0.04700
C 	C 	0.53788 0.03985 0.57526 -0.11400
H 	H 	0.52337 0.02646 0.46232 0.03800
H 	H 	0.56430 0.08452 0.50625 0.04300
H 	H 	0.47641 0.85214 0.54456 0.04200
H 	H 	0.43608 0.79405 0.50062 0.04300
C 	C 	0.75534 0.53542 0.55177 -0.00900
C 	C 	0.72930 0.49880 0.52759 -0.02900
C 	C 	0.77368 0.52905 0.50358 -0.03900
C 	C 	0.84419 0.59610 0.50367 0.01300
C 	C 	0.86838 0.63440 0.52771 -0.03900
C 	C 	0.82406 0.60409 0.55172 -0.02700
C 	C 	0.71429 0.50008 0.57673 0.05200
C 	C 	0.67941 0.46907 0.59740 -0.11300
C 	C 	0.89700 0.62006 0.47988 0.02300
C 	C 	0.94365 0.63914 0.46048 -0.04600
H 	H 	0.67589 0.44593 0.52747 0.04100
H 	H 	0.75464 0.49909 0.48508 0.04600
H 	H 	0.92288 0.68626 0.52793 0.04800
H 	H 	0.84425 0.63296 0.57032 0.04200
C 	C 	0.28711 0.34843 0.54261 -0.00800
C 	C 	0.31696 0.32604 0.51858 -0.03400
C 	C 	0.30247 0.35813 0.49398 -0.03400
C 	C 	0.25769 0.41238 0.49330 -0.00900
C 	C 	0.22372 0.43118 0.51720 -0.03500
C 	C 	0.23859 0.39942 0.54181 -0.03500
C 	C 	0.31642 0.32832 0.56781 0.05400
C 	C 	0.34614 0.31254 0.58808 -0.11500
C 	C 	0.25445 0.45551 0.46873 0.05200
C 	C 	0.25162 0.49529 0.44905 -0.11800
H 	H 	0.35437 0.28643 0.51903 0.04200
H 	H 	0.32857 0.34298 0.47560 0.03900
H 	H 	0.18858 0.47277 0.51681 0.03900
H 	H 	0.21513 0.41688 0.56027 0.03700
C 	C 	0.81959 0.23503 0.70106 -0.04300
C 	C 	0.81473 0.21337 0.72844 -0.01400
C 	C 	0.86991 0.17655 0.73879 0.02000
C 	C 	0.92993 0.16108 0.72173 -0.10500
C 	C 	0.94400 0.19567 0.69561 0.10500
C 	C 	0.88843 0.23231 0.68532 -0.05700
H 	H 	0.86074 0.15325 0.75933 0.05300
H 	H 	0.89495 0.25280 0.66447 0.04600
H 	H 	0.76319 0.21759 0.74102 0.06000
I 	I 	0.04743 0.19191 0.67127 -0.17600
C 	C 	0.25222 0.96825 0.72894 -0.05900
C 	C 	0.24431 0.95047 0.70176 -0.01800
C 	C 	0.31036 0.98475 0.68340 0.00700
C 	C 	0.38451 0.03827 0.69198 -0.09900
C 	C 	0.39454 0.05167 0.71974 0.07400
C 	C 	0.32930 0.01386 0.73805 -0.03800
H 	H 	0.30249 0.97259 0.66229 0.03800
H 	H 	0.33593 0.02626 0.75918 0.05400
H 	H 	0.18518 0.91434 0.69459 0.02600
I 	I 	0.50128 0.13678 0.73469 -0.12500
C 	C 	0.73148 0.68547 0.72871 -0.05600
C 	C 	0.71480 0.68295 0.70133 -0.02100
C 	C 	0.67056 0.61167 0.69019 0.00800
C 	C 	0.64156 0.54205 0.70634 -0.09600
C 	C 	0.65419 0.54519 0.73420 0.07800
C 	C 	0.69999 0.61666 0.74518 -0.03600
H 	H 	0.66066 0.61009 0.66880 0.04000
H 	H 	0.71111 0.61867 0.76649 0.06000
H 	H 	0.73882 0.73562 0.68844 0.03200
I 	I 	0.60007 0.44515 0.76049 -0.12200
C 	C 	0.02445 0.38253 0.00185 -0.13800
C 	C 	0.98074 0.36575 0.02670 0.11200
C 	C 	0.01993 0.39739 0.05004 -0.17300
C 	C 	0.10309 0.44551 0.04862 0.05400
C 	C 	0.14868 0.45666 0.02416 -0.08600
C 	C 	0.10937 0.42536 0.00080 0.02800
C 	C 	0.97923 0.36865 0.97751 0.13200
C 	C 	0.93838 0.35984 0.95774 -0.14600
C 	C 	0.13740 0.49324 0.07088 0.01600
C 	C 	0.16729 0.53672 0.08858 -0.10700
H 	H 	0.91519 0.33204 0.02772 0.01000
H 	H 	0.98448 0.38782 0.06892 0.09600
H 	H 	0.21332 0.49313 0.02296 0.05500
H 	H 	0.14381 0.43803 0.98171 0.01900
C 	C 	0.43623 0.12944 0.98554 -0.00900
C 	C 	0.42118 0.04746 0.98763 -0.03300
C 	C 	0.40700 0.00845 0.01286 -0.04100
C 	C 	0.40793 0.05130 0.03610 -0.00300
C 	C 	0.41950 0.13272 0.03393 -0.03600
C 	C 	0.43355 0.17170 0.00870 -0.03200
C 	C 	0.46283 0.17131 0.96015 0.04800
C 	C 	0.48761 0.20794 0.93931 -0.11400
C 	C 	0.40602 0.01343 0.06209 0.04100
C 	C 	0.40697 0.98112 0.08358 -0.10300
H 	H 	0.42298 0.01435 0.96982 0.03700
H 	H 	0.39796 0.94545 0.01438 0.04200
H 	H 	0.42019 0.16623 0.05179 0.04400
H 	H 	0.44496 0.23509 0.00723 0.04300
C 	C 	0.66664 0.62927 0.99346 -0.00600
C 	C 	0.68375 0.59949 0.01820 -0.03100
C 	C 	0.66958 0.63381 0.04200 -0.03200
C 	C 	0.63842 0.69813 0.04115 -0.00700
C 	C 	0.62735 0.73154 0.01628 -0.03200
C 	C 	0.64117 0.69701 0.99248 -0.03300
C 	C 	0.66579 0.58501 0.96969 0.05600
C 	C 	0.66392 0.54500 0.95046 -0.11300
C 	C 	0.60306 0.71967 0.06515 0.05700
C 	C 	0.56806 0.73583 0.08445 -0.11500
H 	H 	0.70437 0.54761 0.01908 0.04600
H 	H 	0.67872 0.60785 0.06112 0.04300
H 	H 	0.60370 0.78157 0.01544 0.04200
H 	H 	0.62866 0.72088 0.97341 0.04000
C 	C 	0.72578 0.09818 0.83146 -0.05300
C 	C 	0.76951 0.05054 0.84269 -0.02500
C 	C 	0.78836 0.99329 0.82747 0.00800
C 	C 	0.76373 0.98308 0.80082 -0.10000
C 	C 	0.71123 0.02433 0.79061 0.07800
C 	C 	0.69350 0.08258 0.80584 -0.03800
H 	H 	0.82695 0.96062 0.83581 0.02600
H 	H 	0.65744 0.11756 0.79734 0.06900
H 	H 	0.79298 0.06096 0.86271 0.01900
I 	I 	0.65511 0.99755 0.75293 -0.10600
C 	C 	0.39810 0.26003 0.83057 -0.05100
C 	C 	0.40027 0.23247 0.80456 -0.02300
C 	C 	0.32763 0.18374 0.79371 0.01300
C 	C 	0.25238 0.16132 0.80885 -0.09900
C 	C 	0.24853 0.19477 0.83391 0.07800
C 	C 	0.32129 0.24404 0.84467 -0.04300
H 	H 	0.33067 0.15999 0.77407 0.03800
H 	H 	0.31860 0.26673 0.86450 0.06000
H 	H 	0.45863 0.24658 0.79309 0.05700
I 	I 	0.13456 0.16824 0.85657 -0.17300
C 	C 	0.99028 0.66440 0.81969 0.00000
C 	C 	0.01876 0.65497 0.84530 -0.12500
C 	C 	0.98707 0.58280 0.85968 0.11400
C 	C 	0.92687 0.51929 0.84852 -0.13500
C 	C 	0.90570 0.52606 0.82150 0.09600
C 	C 	0.93762 0.59864 0.80730 -0.06200
H 	H 	0.00568 0.57765 0.88010 -0.01000
H 	H 	0.91755 0.60517 0.78715 0.06700
H 	H 	0.06072 0.70510 0.85486 0.05000
I 	I 	0.82306 0.43002 0.80167 -0.11400
