data_crystal

_cell_length_a 31.24343
_cell_length_b 27.27872
_cell_length_c 40.28844
_cell_angle_alpha 103.91032
_cell_angle_beta  115.89083
_cell_angle_gamma 111.65187

_symmetry_space_group_name_	'P 1'
_symmetry_space_group_name_H-M	'P 1'

loop_
_symmetry_equiv_pos_as_xyz
  x,y,z

loop_
_atom_site_label
_atom_site_type_symbol
_atom_site_fract_x
_atom_site_fract_y
_atom_site_fract_z
_atom_site_charge
N 	N 	0.58425 0.22825 0.91195 -0.13800
C 	C 	0.56849 0.26484 0.92485 0.13800
N 	N 	0.59321 0.32182 0.93075 -0.13800
C 	C 	0.63374 0.34226 0.92398 0.13900
N 	N 	0.65012 0.30591 0.91194 -0.13700
C 	C 	0.62571 0.24899 0.90610 0.13900
C 	C 	0.45208 0.21130 0.95911 -0.01600
C 	C 	0.44979 0.24383 0.93669 -0.03400
C 	C 	0.48702 0.26008 0.92481 -0.01500
C 	C 	0.52743 0.24420 0.93510 -0.04000
C 	C 	0.52911 0.21069 0.95659 0.05900
C 	C 	0.49081 0.19380 0.96843 0.04700
H 	H 	0.41936 0.25693 0.92863 0.04600
H 	H 	0.48453 0.28538 0.90777 0.04700
N 	N 	0.57063 0.19910 0.97231 -0.11200
N 	N 	0.50037 0.16803 0.99382 -0.10900
C 	C 	0.72712 0.17587 0.91025 -0.01600
C 	C 	0.71017 0.19629 0.88120 0.04600
C 	C 	0.67177 0.21560 0.87659 0.05900
C 	C 	0.65140 0.21446 0.90143 -0.03900
C 	C 	0.66446 0.18819 0.92751 -0.01600
C 	C 	0.70198 0.16924 0.93192 -0.03400
N 	N 	0.73435 0.20743 0.86047 -0.10800
N 	N 	0.66380 0.24240 0.85178 -0.10900
C 	C 	0.72344 0.52588 0.94912 -0.01600
C 	C 	0.75283 0.49875 0.96403 -0.03500
C 	C 	0.72347 0.43932 0.95649 -0.01300
C 	C 	0.66397 0.40548 0.93377 -0.04000
C 	C 	0.63456 0.43258 0.91980 0.06000
C 	C 	0.66455 0.49323 0.92751 0.04700
H 	H 	0.79844 0.52321 0.98074 0.04600
H 	H 	0.74715 0.41947 0.96808 0.04500
N 	N 	0.57685 0.40256 0.89504 -0.11100
N 	N 	0.63182 0.51383 0.90939 -0.10600
S 	S 	0.55546 0.16843 0.99906 0.09600
S 	S 	0.70518 0.23956 0.83791 0.10100
S 	S 	0.56858 0.45456 0.88542 0.09900
H 	H 	0.64836 0.18576 0.94644 0.05000
H 	H 	0.71369 0.15219 0.95389 0.04700
N 	N 	0.62112 0.24772 0.43507 -0.13800
C 	C 	0.59348 0.27466 0.43902 0.13900
N 	N 	0.60557 0.32587 0.43592 -0.13700
C 	C 	0.64595 0.35062 0.42961 0.13900
N 	N 	0.67378 0.32378 0.42607 -0.13700
C 	C 	0.66141 0.27230 0.42871 0.13900
C 	C 	0.47591 0.20618 0.47029 -0.01500
C 	C 	0.46085 0.21904 0.43655 -0.03200
C 	C 	0.49933 0.24141 0.42643 -0.01400
C 	C 	0.55346 0.25077 0.44956 -0.04000
C 	C 	0.56830 0.23702 0.48262 0.06100
C 	C 	0.52919 0.21452 0.49302 0.04300
H 	H 	0.41959 0.21257 0.41846 0.04900
H 	H 	0.48685 0.25133 0.40052 0.04500
N 	N 	0.62103 0.24873 0.50895 -0.11100
N 	N 	0.54917 0.20716 0.52786 -0.11100
C 	C 	0.77926 0.21819 0.44342 -0.01600
C 	C 	0.75571 0.23011 0.41035 0.04700
C 	C 	0.71427 0.24520 0.40392 0.05900
C 	C 	0.69707 0.24817 0.43075 -0.03900
C 	C 	0.71893 0.23298 0.46264 -0.01400
C 	C 	0.75953 0.21815 0.46889 -0.03400
N 	N 	0.77360 0.23377 0.38509 -0.10700
N 	N 	0.69735 0.26106 0.37308 -0.11100
C 	C 	0.71761 0.52623 0.43937 -0.01500
C 	C 	0.70002 0.47564 0.40499 -0.03100
C 	C 	0.67301 0.41759 0.40030 -0.01500
C 	C 	0.66275 0.40876 0.42980 -0.04000
C 	C 	0.67644 0.45827 0.46239 0.06100
C 	C 	0.70394 0.51751 0.46711 0.04300
H 	H 	0.70935 0.48141 0.38276 0.05000
H 	H 	0.66192 0.37974 0.37447 0.04700
N 	N 	0.67241 0.45546 0.49437 -0.10900
N 	N 	0.72228 0.56377 0.50282 -0.11000
S 	S 	0.61379 0.22943 0.54249 0.09700
S 	S 	0.73568 0.25489 0.35678 0.09900
S 	S 	0.70265 0.52673 0.52520 0.10000
H 	H 	0.70600 0.23462 0.48363 0.04900
H 	H 	0.77645 0.20780 0.49415 0.04600
N 	N 	0.43678 0.79616 0.98968 -0.13600
C 	C 	0.45622 0.76189 0.97996 0.13800
N 	N 	0.43103 0.70417 0.97276 -0.13800
C 	C 	0.38608 0.68061 0.97474 0.13900
N 	N 	0.36602 0.71464 0.98347 -0.13600
C 	C 	0.39147 0.77253 0.99118 0.14000
C 	C 	0.59271 0.83191 0.96579 -0.01400
C 	C 	0.59062 0.79750 0.98679 -0.03000
C 	C 	0.54617 0.77487 0.99146 -0.01600
C 	C 	0.50300 0.78650 0.97546 -0.03800
C 	C 	0.50550 0.82171 0.95531 0.06100
C 	C 	0.55083 0.84482 0.95068 0.04400
H 	H 	0.62288 0.78731 0.99894 0.05000
H 	H 	0.54548 0.74830 0.00756 0.04900
N 	N 	0.46409 0.83235 0.93625 -0.11100
N 	N 	0.54737 0.87506 0.92807 -0.10900
C 	C 	0.30918 0.86693 0.00188 -0.01000
C 	C 	0.31607 0.83412 0.02341 0.04700
C 	C 	0.34521 0.80455 0.02126 0.06300
C 	C 	0.36678 0.80778 0.99730 -0.04000
C 	C 	0.36096 0.84232 0.97656 -0.01200
C 	C 	0.33240 0.87144 0.97876 -0.03700
N 	N 	0.29798 0.82968 0.04850 -0.10600
N 	N 	0.35156 0.77558 0.04466 -0.10800
C 	C 	0.30002 0.49834 0.95321 -0.01500
C 	C 	0.26959 0.52047 0.93148 -0.03400
C 	C 	0.29797 0.57938 0.93772 -0.01400
C 	C 	0.35750 0.61747 0.96569 -0.03900
C 	C 	0.38815 0.59518 0.98638 0.05900
C 	C 	0.35915 0.53522 0.98019 0.04600
H 	H 	0.22376 0.49257 0.91038 0.04500
H 	H 	0.27344 0.59555 0.92109 0.04500
N 	N 	0.44528 0.62964 0.01643 -0.11000
N 	N 	0.39223 0.51974 0.00489 -0.10600
S 	S 	0.48810 0.87007 0.91583 0.10500
S 	S 	0.32003 0.78930 0.06570 0.10700
S 	S 	0.45447 0.58210 0.03216 0.10100
H 	H 	0.37707 0.84532 0.95767 0.05000
H 	H 	0.32704 0.89612 0.96147 0.05000
N 	N 	0.45524 0.79888 0.49474 -0.13600
C 	C 	0.48023 0.76812 0.49163 0.13900
N 	N 	0.45858 0.71262 0.48866 -0.13600
C 	C 	0.41185 0.68779 0.48846 0.13900
N 	N 	0.38721 0.71883 0.49168 -0.13700
C 	C 	0.40913 0.77460 0.49528 0.14000
C 	C 	0.61798 0.84269 0.47932 -0.01400
C 	C 	0.57505 0.78090 0.45456 -0.03400
C 	C 	0.53092 0.75655 0.45930 -0.01400
C 	C 	0.52868 0.79337 0.48898 -0.03800
C 	C 	0.57196 0.85447 0.51438 0.06000
C 	C 	0.61680 0.87923 0.50946 0.04800
H 	H 	0.57557 0.75158 0.43142 0.04700
H 	H 	0.49796 0.70914 0.43929 0.04900
N 	N 	0.57429 0.89403 0.54430 -0.10800
N 	N 	0.65619 0.93948 0.53502 -0.10500
C 	C 	0.31935 0.86281 0.49717 -0.01500
C 	C 	0.32797 0.83345 0.52113 0.04800
C 	C 	0.35951 0.80599 0.52183 0.06100
C 	C 	0.38155 0.80768 0.49812 -0.03800
C 	C 	0.37363 0.83850 0.47468 -0.01300
C 	C 	0.34283 0.86570 0.47419 -0.03300
N 	N 	0.31037 0.83167 0.54668 -0.10600
N 	N 	0.36836 0.78147 0.54808 -0.11000
C 	C 	0.33150 0.50903 0.47404 -0.01500
C 	C 	0.34022 0.55779 0.50416 -0.03000
C 	C 	0.36809 0.61632 0.50970 -0.01500
C 	C 	0.38817 0.62761 0.48535 -0.03900
C 	C 	0.38148 0.57976 0.45640 0.06100
C 	C 	0.35317 0.52010 0.45086 0.04300
H 	H 	0.32440 0.55030 0.52281 0.05000
H 	H 	0.37340 0.65277 0.53266 0.05000
N 	N 	0.39634 0.58488 0.42960 -0.11100
N 	N 	0.34495 0.47577 0.41971 -0.11100
S 	S 	0.63176 0.95622 0.56163 0.11000
S 	S 	0.33576 0.79600 0.56778 0.10400
S 	S 	0.37348 0.51488 0.40186 0.09800
H 	H 	0.39006 0.84022 0.45594 0.04800
H 	H 	0.33623 0.88786 0.45514 0.04900
Zn	Zn	0.14203 0.12596 0.00223 1.18600
Zn	Zn	0.05156 0.08045 0.91048 1.19100
O 	O 	0.04437 0.97844 0.84675 -0.46000
O 	O 	0.02718 0.05338 0.85012 -0.44700
O 	O 	0.02963 0.89955 0.89933 -0.48800
C 	C 	0.19959 0.08802 0.97527 0.29400
O 	O 	0.99410 0.99948 0.89398 -0.86000
C 	C 	0.15178 0.20941 0.96702 0.30300
O 	O 	0.20655 0.12273 0.00852 -0.44400
O 	O 	0.14850 0.05104 0.94005 -0.34400
O 	O 	0.06589 0.08995 0.96699 -0.78500
O 	O 	0.08112 0.98186 0.96296 -0.43100
O 	O 	0.11493 0.16163 0.92913 -0.44000
O 	O 	0.16504 0.20404 0.00128 -0.45100
Zn	Zn	0.88635 0.90909 0.90967 1.17900
Zn	Zn	0.98044 0.93447 0.98755 1.19200
Zn	Zn	0.01202 0.00836 0.94822 1.21100
C 	C 	0.87285 0.81385 0.93584 0.31100
C 	C 	0.85967 0.95363 0.96318 0.30800
O 	O 	0.94287 0.03699 0.93392 -0.46700
Zn	Zn	0.99588 0.04934 0.01945 1.19900
O 	O 	0.92640 0.84986 0.96888 -0.43900
O 	O 	0.85075 0.82830 0.90645 -0.45500
O 	O 	0.84462 0.93632 0.92444 -0.45700
O 	O 	0.90925 0.96579 0.99244 -0.46600
C 	C 	0.02282 0.00462 0.07922 0.31000
O 	O 	0.95751 0.92720 0.92953 -0.78900
C 	C 	0.93985 0.07574 0.95831 0.30900
O 	O 	0.01086 0.95694 0.04959 -0.41900
O 	O 	0.02479 0.05100 0.07375 -0.47000
O 	O 	0.96607 0.09208 0.99850 -0.48000
O 	O 	0.02945 0.01648 0.00193 -0.90500
Zn	Zn	0.00852 0.94308 0.87224 1.18600
C 	C 	0.03505 0.01406 0.83168 0.30200
C 	C 	0.06997 0.92961 0.93977 0.30200
H 	H 	0.06990 0.03427 0.02394 0.16400
H 	H 	0.95488 0.98830 0.87448 0.15400
Zn	Zn	0.16442 0.12300 0.50906 1.18600
Zn	Zn	0.07379 0.08639 0.41951 1.19400
O 	O 	0.05608 0.98074 0.35037 -0.46200
O 	O 	0.04712 0.06151 0.35874 -0.44200
O 	O 	0.03842 0.89912 0.40056 -0.48900
C 	C 	0.21508 0.08035 0.47653 0.29600
O 	O 	0.01253 0.00700 0.40185 -0.89400
C 	C 	0.18181 0.21062 0.47761 0.30600
O 	O 	0.22436 0.11261 0.51174 -0.44500
O 	O 	0.16377 0.04894 0.44149 -0.34500
O 	O 	0.08936 0.09384 0.47600 -0.78200
O 	O 	0.09473 0.97974 0.46572 -0.43200
O 	O 	0.14048 0.16547 0.43897 -0.43700
O 	O 	0.19348 0.20289 0.51089 -0.45400
Zn	Zn	0.90449 0.92394 0.41959 1.17800
Zn	Zn	0.99542 0.93750 0.49276 1.19100
Zn	Zn	0.03131 0.01355 0.45578 1.21300
C 	C 	0.88200 0.82336 0.44042 0.31000
C 	C 	0.88547 0.97122 0.47796 0.30800
O 	O 	0.96927 0.05118 0.44698 -0.46900
Zn	Zn	0.02272 0.05769 0.53067 1.19600
O 	O 	0.93637 0.85381 0.47174 -0.43800
O 	O 	0.86249 0.84231 0.41343 -0.45700
O 	O 	0.86973 0.95761 0.43933 -0.45700
O 	O 	0.93405 0.97936 0.50519 -0.46400
C 	C 	0.04234 0.00614 0.58617 0.31100
O 	O 	0.97239 0.93386 0.43558 -0.78700
C 	C 	0.97107 0.09225 0.47384 0.31000
O 	O 	0.02418 0.95658 0.55428 -0.41700
O 	O 	0.05225 0.05606 0.58375 -0.47100
O 	O 	0.99821 0.10616 0.51363 -0.47900
O 	O 	0.04958 0.01891 0.50915 -0.90600
Zn	Zn	0.02046 0.94655 0.37629 1.18800
C 	C 	0.04986 0.01922 0.33746 0.30100
C 	C 	0.08061 0.92709 0.44038 0.30300
H 	H 	0.08940 0.03279 0.52980 0.16300
H 	H 	0.97438 0.99942 0.38382 0.17000
C 	C 	0.05090 0.00925 0.69459 0.05500
N 	N 	0.01080 0.95867 0.65647 -0.10800
C 	C 	0.00943 0.95554 0.62174 0.08900
C 	C 	0.04977 0.00500 0.62458 -0.13000
C 	C 	0.09304 0.05616 0.66391 0.04200
C 	C 	0.09393 0.05822 0.69912 -0.08300
H 	H 	0.97564 0.91551 0.59163 0.03800
H 	H 	0.12521 0.09461 0.66704 0.02300
H 	H 	0.12735 0.09781 0.72957 0.05300
C 	C 	0.03878 0.01363 0.79631 -0.13100
C 	C 	0.05016 0.06363 0.78959 0.04200
C 	C 	0.05467 0.06279 0.75656 -0.08100
C 	C 	0.04841 0.01206 0.73064 0.05500
N 	N 	0.03659 0.96355 0.73728 -0.10900
C 	C 	0.03190 0.96335 0.76929 0.09100
H 	H 	0.05578 0.10310 0.80996 0.03600
H 	H 	0.06232 0.10095 0.75084 0.05400
H 	H 	0.02240 0.92390 0.77353 0.01900
C 	C 	0.04832 0.01281 0.23022 0.05000
N 	N 	0.03205 0.04606 0.24651 -0.11700
C 	C 	0.03272 0.04909 0.28098 0.07200
C 	C 	0.05095 0.01804 0.30095 -0.12900
C 	C 	0.06917 0.98484 0.28519 0.05100
C 	C 	0.06793 0.98225 0.24980 -0.06700
H 	H 	0.01851 0.07510 0.29254 0.02900
H 	H 	0.08437 0.96124 0.30032 0.03300
H 	H 	0.08227 0.95687 0.23774 0.05400
C 	C 	0.03423 0.00601 0.11919 -0.12700
C 	C 	0.01184 0.95237 0.12079 0.05000
C 	C 	0.01756 0.95428 0.15746 -0.06800
C 	C 	0.04587 0.00998 0.19246 0.05100
N 	N 	0.06820 0.06171 0.19059 -0.11600
C 	C 	0.06349 0.06094 0.15523 0.07300
H 	H 	0.98856 0.90932 0.09336 0.04000
H 	H 	0.99879 0.91278 0.15832 0.05600
H 	H 	0.08179 0.10301 0.15495 0.02600
C 	C 	0.28478 0.38053 0.49445 0.09700
C 	C 	0.23350 0.33587 0.45518 0.08800
N 	N 	0.20106 0.28146 0.45036 -0.09000
C 	C 	0.21767 0.26987 0.48336 -0.03400
C 	C 	0.26927 0.31464 0.52260 0.04600
N 	N 	0.30169 0.36901 0.52731 -0.11300
N 	N 	0.31651 0.43541 0.49956 -0.11500
N 	N 	0.21612 0.34780 0.42252 -0.10300
H 	H 	0.28362 0.30616 0.54910 0.03800
C 	C 	0.29917 0.44755 0.46689 0.06400
C 	C 	0.24780 0.40281 0.42762 0.00200
H 	H 	0.23271 0.41220 0.40161 0.04800
C 	C 	0.74557 0.91167 0.46020 0.09000
C 	C 	0.75993 0.92081 0.50038 0.10000
N 	N 	0.71838 0.89880 0.50603 -0.10900
C 	C 	0.66283 0.86810 0.47305 0.06600
C 	C 	0.64864 0.86006 0.43305 -0.00000
N 	N 	0.69029 0.88184 0.42741 -0.10200
N 	N 	0.78690 0.93067 0.45405 -0.08800
N 	N 	0.81519 0.94998 0.53304 -0.10900
H 	H 	0.60474 0.83648 0.40664 0.04500
C 	C 	0.84226 0.95836 0.48646 -0.03300
C 	C 	0.85668 0.96920 0.52697 0.04700
H 	H 	0.90048 0.99173 0.55326 0.04200
C 	C 	0.19100 0.86611 0.46926 0.09800
C 	C 	0.21220 0.92754 0.48254 0.08700
N 	N 	0.17628 0.94683 0.47503 -0.09200
C 	C 	0.11972 0.90701 0.45405 -0.04700
C 	C 	0.09874 0.84573 0.44131 0.04500
N 	N 	0.13484 0.82654 0.44933 -0.11300
N 	N 	0.22635 0.84634 0.47482 -0.11200
N 	N 	0.26795 0.96676 0.50088 -0.10000
H 	H 	0.05386 0.81350 0.42453 0.02900
C 	C 	0.28212 0.88546 0.49282 0.06600
C 	C 	0.30334 0.94692 0.50622 0.00000
H 	H 	0.34763 0.97857 0.52065 0.05100
C 	C 	0.24378 0.37998 0.97973 0.09700
C 	C 	0.20925 0.32772 0.94072 0.08700
N 	N 	0.17957 0.27333 0.93716 -0.09000
C 	C 	0.18307 0.26898 0.97115 -0.03500
C 	C 	0.21745 0.32153 0.01012 0.04700
N 	N 	0.24710 0.37588 0.01358 -0.11100
N 	N 	0.27325 0.43437 0.98326 -0.11100
N 	N 	0.20570 0.33191 0.90680 -0.10500
H 	H 	0.22046 0.31916 0.03743 0.03600
C 	C 	0.26961 0.43871 0.94926 0.06500
C 	C 	0.23516 0.38639 0.91028 -0.00300
H 	H 	0.23181 0.38914 0.88297 0.04200
C 	C 	0.73350 0.90923 0.98507 0.09900
C 	C 	0.71877 0.88658 0.94392 0.09100
N 	N 	0.75995 0.90316 0.93752 -0.08800
C 	C 	0.81557 0.94117 0.97063 -0.03300
C 	C 	0.83020 0.96460 0.01179 0.04900
N 	N 	0.78884 0.94811 0.01815 -0.10900
N 	N 	0.69238 0.89123 0.99154 -0.11300
N 	N 	0.66358 0.84681 0.91087 -0.10200
H 	H 	0.87415 0.99524 0.03850 0.04000
C 	C 	0.63695 0.85152 0.95839 0.06500
C 	C 	0.62239 0.82870 0.91728 0.00400
H 	H 	0.57858 0.79656 0.89067 0.04900
C 	C 	0.18197 0.87156 0.97616 0.09800
C 	C 	0.20270 0.93250 0.98740 0.08500
N 	N 	0.16629 0.95125 0.97787 -0.09200
C 	C 	0.10976 0.91133 0.95698 -0.04700
C 	C 	0.08941 0.85079 0.94683 0.04400
N 	N 	0.12594 0.83214 0.95670 -0.11300
N 	N 	0.21740 0.85179 0.98239 -0.11100
N 	N 	0.25829 0.97138 0.00509 -0.10000
H 	H 	0.04458 0.81853 0.93023 0.02800
C 	C 	0.27283 0.89039 0.99922 0.06200
C 	C 	0.29379 0.95154 0.01123 0.00300
H 	H 	0.33782 0.98284 0.02480 0.05000
C 	C 	0.85633 0.14644 0.43380 0.09700
C 	C 	0.90808 0.18299 0.47393 0.08700
N 	N 	0.94602 0.16646 0.48528 -0.09000
C 	C 	0.93462 0.11487 0.45818 -0.04800
C 	C 	0.88390 0.07971 0.41737 0.04900
N 	N 	0.84566 0.09610 0.40609 -0.11600
N 	N 	0.81595 0.15959 0.42399 -0.11200
N 	N 	0.91814 0.23235 0.50210 -0.10400
H 	H 	0.87392 0.03836 0.39541 0.01100
C 	C 	0.82533 0.20803 0.45272 0.06500
C 	C 	0.87791 0.24578 0.49223 -0.00200
H 	H 	0.88620 0.28487 0.51518 0.04500
C 	C 	0.76986 0.65831 0.42364 0.09700
C 	C 	0.82630 0.69559 0.45941 0.08900
N 	N 	0.86170 0.74829 0.46406 -0.08800
C 	C 	0.84304 0.76553 0.43438 -0.03400
C 	C 	0.78634 0.72826 0.39868 0.04500
N 	N 	0.75099 0.67538 0.39404 -0.11300
N 	N 	0.73490 0.60478 0.41840 -0.11500
N 	N 	0.84539 0.67816 0.48874 -0.10200
H 	H 	0.77056 0.74115 0.37476 0.03800
C 	C 	0.75400 0.58709 0.44770 0.06500
C 	C 	0.81042 0.62458 0.48356 0.00300
H 	H 	0.82662 0.61049 0.50663 0.05000
C 	C 	0.34756 0.11425 0.46320 0.09600
C 	C 	0.35707 0.15449 0.49873 0.08900
N 	N 	0.31484 0.14080 0.50396 -0.09100
C 	C 	0.26319 0.08866 0.47493 -0.02800
C 	C 	0.25481 0.04699 0.44066 0.04500
N 	N 	0.29709 0.06078 0.43537 -0.11500
N 	N 	0.38731 0.13086 0.45536 -0.11600
N 	N 	0.40676 0.20885 0.52577 -0.10300
H 	H 	0.21442 0.00465 0.41779 0.03700
C 	C 	0.43652 0.18596 0.48187 0.06400
C 	C 	0.44676 0.22533 0.51810 0.00200
H 	H 	0.48564 0.26938 0.53936 0.04800
C 	C 	0.86496 0.15461 0.94978 0.08700
C 	C 	0.81439 0.11425 0.90923 0.09700
N 	N 	0.77083 0.12267 0.89648 -0.11300
C 	C 	0.77597 0.16999 0.92273 0.06500
C 	C 	0.82720 0.21132 0.96270 -0.00100
N 	N 	0.87061 0.20269 0.97549 -0.10400
N 	N 	0.90633 0.14310 0.96403 -0.09000
N 	N 	0.80819 0.06517 0.88403 -0.11600
H 	H 	0.83199 0.24947 0.98371 0.04500
C 	C 	0.89953 0.09288 0.93946 -0.04800
C 	C 	0.84986 0.05379 0.89824 0.04800
H 	H 	0.84349 0.01340 0.87830 0.01200
C 	C 	0.77177 0.64675 0.92263 0.09800
C 	C 	0.81814 0.69562 0.96258 0.08800
N 	N 	0.85030 0.74890 0.96610 -0.08900
C 	C 	0.83769 0.75565 0.93126 -0.03400
C 	C 	0.79089 0.70685 0.89132 0.04700
N 	N 	0.75900 0.65332 0.88783 -0.11200
N 	N 	0.74081 0.59287 0.91901 -0.11100
N 	N 	0.83095 0.68903 0.99738 -0.10400
H 	H 	0.78040 0.71129 0.86325 0.03500
C 	C 	0.75409 0.58589 0.95382 0.06500
C 	C 	0.79973 0.63518 0.99382 -0.00200
H 	H 	0.81066 0.63037 0.02180 0.04300
C 	C 	0.33303 0.12360 0.96295 0.09700
C 	C 	0.33700 0.16944 0.99157 0.08800
N 	N 	0.29521 0.15619 0.99726 -0.09100
C 	C 	0.24902 0.09909 0.97501 -0.02800
C 	C 	0.24624 0.05289 0.94770 0.04600
N 	N 	0.28832 0.06610 0.94221 -0.11300
N 	N 	0.37167 0.13776 0.95395 -0.11300
N 	N 	0.38023 0.22735 0.01080 -0.10200
H 	H 	0.21015 0.00707 0.93019 0.03900
C 	C 	0.41401 0.19602 0.97226 0.06400
C 	C 	0.41887 0.24155 0.00175 0.00000
H 	H 	0.45262 0.28802 0.01679 0.04600
