data_crystal

_cell_length_a 30.86493
_cell_length_b 30.97802
_cell_length_c 26.58001
_cell_angle_alpha 95.47857
_cell_angle_beta  95.47243
_cell_angle_gamma 125.57334

_symmetry_space_group_name_	'P 1'
_symmetry_space_group_name_H-M	'P 1'

loop_
_symmetry_equiv_pos_as_xyz
  x,y,z

loop_
_atom_site_label
_atom_site_type_symbol
_atom_site_fract_x
_atom_site_fract_y
_atom_site_fract_z
_atom_site_charge
C 	C 	0.06006 0.03405 0.97349 0.04700
C 	C 	0.03703 0.06159 0.98041 -0.08700
H 	H 	0.06047 0.10432 0.97906 0.05200
C 	C 	0.02950 0.00922 0.45167 0.03000
C 	C 	0.00325 0.03351 0.44456 -0.07500
H 	H 	0.02646 0.07566 0.44090 0.05000
C 	C 	0.08855 0.04079 0.45418 -0.00400
C 	C 	0.11101 0.06109 0.41111 -0.03600
C 	C 	0.16675 0.08921 0.41285 -0.04200
C 	C 	0.20044 0.09724 0.45769 0.00700
C 	C 	0.17805 0.07735 0.50092 -0.04200
C 	C 	0.12232 0.04926 0.49918 -0.03600
C 	C 	0.25911 0.12634 0.45932 0.00900
C 	C 	0.28296 0.09952 0.46520 -0.04400
C 	C 	0.29128 0.18086 0.45452 -0.04400
H 	H 	0.08522 0.05455 0.37614 0.03800
H 	H 	0.18369 0.10435 0.37927 0.04000
H 	H 	0.20381 0.08367 0.53580 0.03900
H 	H 	0.25842 0.05739 0.46882 0.04000
H 	H 	0.27327 0.20196 0.45021 0.04000
C 	C 	0.31120 0.18286 0.97115 -0.03500
C 	C 	0.25742 0.16137 0.97432 -0.04700
C 	C 	0.21545 0.10808 0.95029 0.01700
C 	C 	0.22732 0.07689 0.92183 -0.04600
C 	C 	0.28106 0.09829 0.91869 -0.03500
C 	C 	0.16084 0.08394 0.95815 -0.01400
C 	C 	0.11499 0.06221 0.96505 -0.03200
H 	H 	0.24855 0.18573 0.99638 0.03900
H 	H 	0.19505 0.03567 0.90309 0.04000
C 	C 	0.32329 0.15108 0.94400 -0.00400
H 	H 	0.28996 0.07357 0.89741 0.03600
H 	H 	0.10535 0.03391 0.53269 0.03700
H 	H 	0.34354 0.22367 0.99082 0.03500
H 	H 	0.96170 0.08417 0.50997 0.03700
C 	C 	0.98359 0.03382 0.98914 0.04100
C 	C 	0.94709 0.00356 0.44253 0.03000
O 	O 	0.57077 0.22419 0.98980 -0.36800
O 	O 	0.68552 0.21952 0.00282 -0.35900
C 	C 	0.73233 0.23939 0.98854 0.30200
O 	O 	0.71107 0.24055 0.47317 -0.44500
C 	C 	0.92000 0.02981 0.43655 -0.00300
C 	C 	0.88280 0.01432 0.39148 -0.03800
C 	C 	0.85957 0.04145 0.38461 -0.04100
C 	C 	0.87336 0.08422 0.42277 0.00600
C 	C 	0.90997 0.09915 0.46814 -0.04200
C 	C 	0.93320 0.07209 0.47497 -0.03700
C 	C 	0.84917 0.11314 0.41558 0.00900
C 	C 	0.88253 0.16883 0.41538 -0.04500
C 	C 	0.86037 0.19739 0.41425 -0.03100
C 	C 	0.80474 0.17047 0.41311 -0.01200
C 	C 	0.77101 0.11447 0.41108 -0.03100
C 	C 	0.79313 0.08587 0.41229 -0.04500
C 	C 	0.78336 0.20096 0.42003 0.04700
C 	C 	0.76530 0.22608 0.42780 -0.12200
H 	H 	0.83126 0.02955 0.34951 0.04000
H 	H 	0.92041 0.13172 0.49806 0.03800
H 	H 	0.92576 0.19015 0.41735 0.04000
H 	H 	0.72795 0.09337 0.41017 0.03700
H 	H 	0.76700 0.04289 0.41226 0.03900
C 	C 	0.33848 0.12695 0.46592 -0.03100
C 	C 	0.37043 0.18129 0.46078 -0.00900
C 	C 	0.34676 0.20822 0.45524 -0.03100
C 	C 	0.42730 0.20924 0.46018 0.04600
C 	C 	0.47493 0.23342 0.45925 -0.10800
H 	H 	0.35654 0.10588 0.47017 0.03700
C 	C 	0.95864 0.06221 0.99519 -0.02800
C 	C 	0.94673 0.08011 0.95315 -0.02300
C 	C 	0.91882 0.10276 0.95753 -0.06500
C 	C 	0.90267 0.10778 0.00401 0.02600
C 	C 	0.91582 0.09119 0.04647 -0.05400
C 	C 	0.94364 0.06841 0.04206 -0.01100
C 	C 	0.87022 0.12845 0.00754 0.01700
C 	C 	0.89295 0.17926 0.03738 -0.04500
C 	C 	0.86331 0.20034 0.03787 -0.02800
C 	C 	0.81075 0.17064 0.00871 -0.00700
C 	C 	0.78744 0.11919 0.98016 -0.04100
C 	C 	0.81705 0.09815 0.97956 -0.05600
C 	C 	0.78281 0.19493 0.00401 0.06800
C 	C 	0.75957 0.21521 0.99814 -0.14500
H 	H 	0.95811 0.07545 0.91682 0.03300
H 	H 	0.90911 0.11576 0.92464 0.04100
H 	H 	0.90365 0.09505 0.08254 0.04400
H 	H 	0.95283 0.05487 0.07477 0.03600
H 	H 	0.93389 0.20285 0.05927 0.04200
H 	H 	0.88165 0.24019 0.05996 0.03900
H 	H 	0.74685 0.09602 0.95750 0.03300
H 	H 	0.79902 0.05870 0.95674 0.03900
C 	C 	0.49116 0.21771 0.95530 -0.09100
C 	C 	0.45652 0.17139 0.97588 0.01200
C 	C 	0.40138 0.14869 0.97078 -0.06800
C 	C 	0.38022 0.17186 0.94493 0.02600
C 	C 	0.41413 0.21650 0.92228 -0.06800
C 	C 	0.46927 0.23919 0.92719 0.01000
H 	H 	0.47250 0.15392 0.99720 0.03500
H 	H 	0.37538 0.11396 0.98810 0.04400
H 	H 	0.39795 0.23417 0.90161 0.04500
H 	H 	0.61480 0.24253 0.90315 0.17100
H 	H 	0.59729 0.23792 0.74207 0.03300
H 	H 	0.59867 0.24151 0.64990 0.03800
H 	H 	0.88669 0.24065 0.41575 0.03700
H 	H 	0.61520 0.25148 0.40789 0.16300
H 	H 	0.49512 0.27413 0.91007 0.03100
Cu	Cu	0.65110 0.25765 0.99890 0.92100
Cu	Cu	0.70309 0.25928 0.89594 0.86900
O 	O 	0.65110 0.26430 0.92548 -0.64300
O 	O 	0.74941 0.27453 0.95779 -0.44700
C 	C 	0.55058 0.24639 0.96704 0.28200
O 	O 	0.66218 0.26586 0.07252 -0.35300
O 	O 	0.67407 0.26295 0.83122 -0.42000
Cu	Cu	0.72930 0.29055 0.53301 0.87000
Cu	Cu	0.64053 0.29951 0.49835 0.89700
O 	O 	0.63880 0.28968 0.42578 -0.64000
O 	O 	0.76187 0.30048 0.42310 -0.37400
O 	O 	0.56246 0.25807 0.49042 -0.38200
C 	C 	0.53157 0.26328 0.45757 0.30800
O 	O 	0.55247 0.30181 0.42985 -0.39600
C 	C 	0.74347 0.25519 0.43972 0.30900
O 	O 	0.64117 0.29616 0.57239 -0.38400
C 	C 	0.63173 0.27269 0.73065 -0.01200
C 	C 	0.63246 0.27482 0.67840 -0.01400
C 	C 	0.65699 0.29281 0.15825 -0.06200
C 	C 	0.61196 0.27669 0.18126 -0.01000
C 	C 	0.61700 0.28205 0.23467 -0.01200
C 	C 	0.66718 0.30381 0.26570 -0.06500
H 	H 	0.57341 0.26139 0.15784 0.04300
H 	H 	0.58231 0.27090 0.25206 0.02900
H 	H 	0.37126 0.25026 0.45128 0.03900
C 	C 	0.65382 0.29553 0.10323 0.28000
C 	C 	0.68018 0.30698 0.82168 0.28200
O 	O 	0.63066 0.31705 0.08458 -0.38100
O 	O 	0.58328 0.29677 0.96116 -0.39700
Cu	Cu	0.72258 0.33372 0.42621 0.92700
Cu	Cu	0.62065 0.33343 0.40170 0.89400
C 	C 	0.67455 0.31864 0.32186 0.28000
C 	C 	0.68376 0.31488 0.60859 0.28100
O 	O 	0.71031 0.31765 0.35239 -0.35700
O 	O 	0.72822 0.32294 0.59710 -0.41900
C 	C 	0.67635 0.31420 0.76794 -0.07100
C 	C 	0.67821 0.31807 0.66297 -0.07000
C 	C 	0.70625 0.31111 0.18888 -0.01400
C 	C 	0.71142 0.31672 0.24249 -0.00800
Cu	Cu	0.68928 0.34404 0.93184 0.89400
O 	O 	0.69428 0.34148 0.00370 -0.63300
O 	O 	0.69783 0.34797 0.85922 -0.38800
O 	O 	0.72031 0.33874 0.50074 -0.64000
O 	O 	0.65455 0.34377 0.33934 -0.38200
H 	H 	0.74111 0.32314 0.17141 0.03800
H 	H 	0.75031 0.33324 0.26595 0.04700
Cu	Cu	0.64689 0.35590 0.02519 0.89600
H 	H 	0.73168 0.36505 0.02392 0.16500
H 	H 	0.74238 0.37594 0.52099 0.17200
C 	C 	0.72035 0.35938 0.75265 -0.01300
C 	C 	0.72145 0.36112 0.70036 -0.01300
H 	H 	0.75487 0.39185 0.78114 0.03500
H 	H 	0.75667 0.39506 0.68890 0.03400
O 	O 	0.68233 0.40111 0.46153 -0.39300
C 	C 	0.02974 0.97888 0.97519 -0.08700
H 	H 	0.04758 0.95759 0.96978 0.05400
C 	C 	0.99949 0.95481 0.45654 -0.07400
H 	H 	0.01971 0.93588 0.46158 0.05000
C 	C 	0.95341 0.97851 0.99087 -0.08600
C 	C 	0.97649 0.95110 0.98381 0.05000
H 	H 	0.91201 0.95687 0.99723 0.05200
C 	C 	0.91714 0.94903 0.44741 -0.07500
C 	C 	0.94339 0.92469 0.45466 0.03100
H 	H 	0.87380 0.92588 0.44618 0.05000
O 	O 	0.72944 0.42182 0.94362 -0.38400
C 	C 	0.72105 0.45012 0.97627 0.27700
O 	O 	0.68018 0.42634 0.00138 -0.38200
O 	O 	0.75380 0.41287 0.43034 -0.36300
C 	C 	0.73176 0.43330 0.45286 0.30100
C 	C 	0.91232 0.86757 0.46022 -0.00400
C 	C 	0.87495 0.82655 0.41824 -0.03600
C 	C 	0.85082 0.77244 0.42129 -0.04200
C 	C 	0.86387 0.75895 0.46635 0.00700
C 	C 	0.89973 0.79985 0.50897 -0.04200
C 	C 	0.92380 0.85393 0.50594 -0.03600
C 	C 	0.84183 0.70232 0.46813 0.00900
C 	C 	0.87669 0.68709 0.47285 -0.04400
C 	C 	0.85557 0.63299 0.47236 -0.03100
C 	C 	0.79954 0.59385 0.46721 -0.01000
C 	C 	0.76476 0.60912 0.46329 -0.03100
C 	C 	0.78582 0.66317 0.46374 -0.04400
C 	C 	0.77735 0.53766 0.46336 0.04500
C 	C 	0.75747 0.49024 0.45918 -0.11200
H 	H 	0.86586 0.83669 0.38279 0.03800
H 	H 	0.82303 0.74111 0.38825 0.04000
H 	H 	0.90959 0.78978 0.54410 0.03900
H 	H 	0.95236 0.88532 0.53866 0.03700
H 	H 	0.92000 0.71702 0.47617 0.04000
H 	H 	0.88268 0.62147 0.47533 0.03800
H 	H 	0.72138 0.57904 0.45929 0.03700
H 	H 	0.75862 0.67457 0.46032 0.04000
H 	H 	0.87248 0.98182 0.36155 0.03900
C 	C 	0.75251 0.50899 0.97868 -0.09800
C 	C 	0.76040 0.54256 0.02351 0.02400
C 	C 	0.78809 0.59801 0.02517 -0.05600
C 	C 	0.80829 0.62049 0.98210 0.01600
C 	C 	0.80112 0.58718 0.93752 -0.06700
C 	C 	0.77338 0.53170 0.93578 0.01400
C 	C 	0.83666 0.67884 0.98359 -0.01300
C 	C 	0.81487 0.69698 0.95032 -0.03500
C 	C 	0.84203 0.75231 0.95146 -0.04300
C 	C 	0.89103 0.78981 0.98589 0.00300
C 	C 	0.91263 0.77181 0.01943 -0.03200
C 	C 	0.88554 0.71650 0.01830 -0.02400
C 	C 	0.92026 0.84664 0.98545 -0.01100
C 	C 	0.94542 0.89425 0.98486 -0.03500
H 	H 	0.74503 0.52570 0.05705 0.02600
H 	H 	0.79352 0.62345 0.05978 0.04600
H 	H 	0.81687 0.60427 0.90419 0.04500
H 	H 	0.76740 0.50631 0.90085 0.03700
H 	H 	0.77698 0.66822 0.92361 0.03700
H 	H 	0.82515 0.76597 0.92539 0.03900
H 	H 	0.95059 0.80060 0.04605 0.04200
H 	H 	0.90271 0.70288 0.04409 0.03800
