data_crystal

_cell_length_a 15.48364
_cell_length_b 18.67983
_cell_length_c 47.82100
_cell_angle_alpha 90.45389
_cell_angle_beta  90.44900
_cell_angle_gamma 119.36134

_symmetry_space_group_name_	'P 1'
_symmetry_space_group_name_H-M	'P 1'

loop_
_symmetry_equiv_pos_as_xyz
  x,y,z

loop_
_atom_site_label
_atom_site_type_symbol
_atom_site_fract_x
_atom_site_fract_y
_atom_site_fract_z
_atom_site_charge
C 	C 	0.63660 0.16932 0.94695 0.28400
C 	C 	0.62774 0.30932 0.97466 0.31200
C 	C 	0.55117 0.20014 0.85957 0.27500
C 	C 	0.36132 0.27986 0.94496 0.29800
C 	C 	0.28553 0.06504 0.90915 0.31100
Ni	Ni	0.40841 0.23513 0.89019 1.12000
Ni	Ni	0.44327 0.16903 0.94994 1.11900
O 	O 	0.53893 0.12395 0.94900 -0.38000
O 	O 	0.38288 0.30322 0.91861 -0.37800
O 	O 	0.50072 0.33681 0.86886 -0.39400
O 	O 	0.34313 0.06473 0.92967 -0.38100
O 	O 	0.65401 0.35412 0.95226 -0.38200
O 	O 	0.53368 0.25590 0.97889 -0.38400
O 	O 	0.28681 0.13322 0.90221 -0.39500
O 	O 	0.45473 0.17663 0.86250 -0.37300
O 	O 	0.34168 0.20597 0.95271 -0.38700
O 	O 	0.49894 0.22652 0.91607 -0.70600
H 	H 	0.50143 0.17880 0.90829 0.14600
C 	C 	0.63860 0.25063 0.72672 0.27800
C 	C 	0.61626 0.32865 0.61172 0.30000
C 	C 	0.62372 0.14916 0.63812 0.30600
C 	C 	0.39639 0.30418 0.64765 0.32000
C 	C 	0.32271 0.12309 0.69210 0.29600
Ni	Ni	0.46203 0.18475 0.64362 1.12100
Ni	Ni	0.48808 0.29123 0.70006 1.11600
O 	O 	0.58788 0.29169 0.72959 -0.37500
O 	O 	0.38097 0.23758 0.63448 -0.39600
O 	O 	0.65796 0.36907 0.63504 -0.38300
O 	O 	0.55559 0.24821 0.61172 -0.38100
O 	O 	0.38709 0.17685 0.71022 -0.39800
O 	O 	0.57334 0.40859 0.68898 -0.39500
O 	O 	0.35264 0.10380 0.66861 -0.38100
O 	O 	0.69433 0.22660 0.64261 -0.37300
O 	O 	0.53490 0.12161 0.64839 -0.39400
O 	O 	0.39061 0.30476 0.67517 -0.38500
O 	O 	0.54564 0.25261 0.67342 -0.70700
H 	H 	0.54009 0.20604 0.68415 0.14900
C 	C 	0.99632 0.97299 0.76396 0.30800
C 	C 	0.96330 0.91619 0.84110 0.29300
O 	O 	0.96183 0.02144 0.77202 -0.38000
O 	O 	0.90253 0.84181 0.83078 -0.39500
O 	O 	0.96319 0.98414 0.83208 -0.37800
O 	O 	0.98677 0.91393 0.78020 -0.41000
C 	C 	0.36731 0.85344 0.42222 0.30400
C 	C 	0.40116 0.56348 0.38412 0.30500
C 	C 	0.31697 0.68187 0.45788 0.34300
C 	C 	0.42417 0.76554 0.34273 0.28300
C 	C 	0.60850 0.70478 0.44003 0.29200
C 	C 	0.70762 0.88917 0.40429 0.31200
Ni	Ni	0.33125 0.68599 0.39653 1.11100
Ni	Ni	0.55958 0.73548 0.38052 1.11800
Ni	Ni	0.51698 0.80994 0.43756 1.11800
O 	O 	0.30523 0.78443 0.40804 -0.36800
O 	O 	0.46410 0.88167 0.42225 -0.38800
O 	O 	0.62896 0.70929 0.41269 -0.39300
O 	O 	0.32368 0.57429 0.38647 -0.36800
O 	O 	0.47690 0.61627 0.36991 -0.39500
O 	O 	0.66223 0.88861 0.42771 -0.39400
O 	O 	0.31044 0.63850 0.43601 -0.39200
O 	O 	0.38996 0.75723 0.46074 -0.39100
O 	O 	0.65711 0.85370 0.38169 -0.40800
O 	O 	0.34174 0.70871 0.35394 -0.37500
O 	O 	0.50748 0.76115 0.34435 -0.36400
O 	O 	0.54001 0.71962 0.44993 -0.39100
O 	O 	0.46871 0.75285 0.40215 -0.70800
H 	H 	0.47783 0.80011 0.39128 0.14700
C 	C 	0.46931 0.82737 0.22486 0.28300
C 	C 	0.38068 0.62506 0.12265 0.30300
C 	C 	0.36049 0.58802 0.21412 0.30300
C 	C 	0.49941 0.85676 0.13527 0.31300
C 	C 	0.60086 0.61982 0.17296 0.32500
C 	C 	0.73554 0.86189 0.18402 0.28800
Ni	Ni	0.37856 0.71798 0.17428 1.11000
Ni	Ni	0.58291 0.74648 0.14424 1.11900
Ni	Ni	0.56200 0.72420 0.21115 1.11900
O 	O 	0.38667 0.76555 0.21446 -0.37300
O 	O 	0.55046 0.82026 0.22831 -0.37700
O 	O 	0.65229 0.68901 0.16008 -0.39800
O 	O 	0.34644 0.67034 0.13389 -0.37600
O 	O 	0.47023 0.63740 0.12906 -0.38500
O 	O 	0.70539 0.79805 0.20083 -0.37900
O 	O 	0.32356 0.59974 0.19072 -0.37700
O 	O 	0.42893 0.65117 0.22806 -0.38600
O 	O 	0.70014 0.85306 0.15796 -0.38400
O 	O 	0.42950 0.83169 0.15457 -0.37700
O 	O 	0.52213 0.80477 0.12306 -0.38800
O 	O 	0.56122 0.62062 0.19715 -0.38500
O 	O 	0.51247 0.74398 0.17701 -0.70700
H 	H 	0.54209 0.80368 0.17946 0.14300
C 	C 	0.34760 0.04635 0.26216 0.29100
C 	C 	0.30196 0.26075 0.34331 0.31600
C 	C 	0.33512 0.02370 0.32663 0.30900
C 	C 	0.29305 0.28958 0.26613 0.29200
Ni	Ni	0.36221 0.18054 0.29924 1.11000
Ni	Ni	0.14421 0.16310 0.30211 1.11800
Ni	Ni	0.15863 0.99924 0.29597 1.11600
O 	O 	0.37804 0.12619 0.26320 -0.37900
O 	O 	0.25475 0.98999 0.26846 -0.38300
O 	O 	0.35156 0.22184 0.33883 -0.38000
O 	O 	0.24498 0.26357 0.32353 -0.40200
O 	O 	0.39906 0.09905 0.31920 -0.37900
O 	O 	0.24122 0.00145 0.32918 -0.38700
O 	O 	0.36655 0.28383 0.27922 -0.36900
O 	O 	0.19904 0.23172 0.26779 -0.39000
O 	O 	0.22459 0.11588 0.29257 -0.71200
H 	H 	0.22310 0.11834 0.27198 0.15800
C 	C 	0.32036 0.49981 0.25558 -0.03900
C 	C 	0.32107 0.50515 0.22632 -0.09100
C 	C 	0.30946 0.43728 0.21001 0.08300
C 	C 	0.30587 0.36876 0.22333 -0.03900
C 	C 	0.31493 0.36749 0.25255 -0.08600
C 	C 	0.32529 0.43509 0.26872 0.08000
C 	C 	0.33872 0.43805 0.30005 -0.20200
H 	H 	0.32427 0.54988 0.26819 0.05100
H 	H 	0.29412 0.31573 0.21097 0.04300
C 	C 	0.29437 0.43501 0.17881 -0.19900
H 	H 	0.37344 0.50222 0.30820 0.08000
H 	H 	0.38855 0.41382 0.30629 0.09100
H 	H 	0.26543 0.40252 0.31001 0.08400
H 	H 	0.35739 0.48860 0.16911 0.08900
H 	H 	0.22472 0.43605 0.17399 0.07900
H 	H 	0.28902 0.37876 0.16906 0.06800
C 	C 	0.81005 0.98807 0.21270 -0.05100
C 	C 	0.82286 0.93898 0.19272 -0.08500
C 	C 	0.91808 0.94826 0.18914 0.08000
C 	C 	0.93833 0.90603 0.16517 -0.19100
H 	H 	0.73935 0.98674 0.21392 0.04400
H 	H 	0.01896 0.93581 0.16090 0.06200
H 	H 	0.90049 0.90938 0.14580 0.07600
H 	H 	0.91118 0.84061 0.17030 0.08100
C 	C 	0.41694 0.92915 0.21236 -0.04100
C 	C 	0.47170 0.90666 0.23037 -0.09000
C 	C 	0.50975 0.95086 0.25579 0.07300
C 	C 	0.47945 0.00737 0.26445 -0.03800
C 	C 	0.41040 0.01809 0.24838 -0.08100
C 	C 	0.38715 0.98533 0.22107 0.06900
C 	C 	0.32255 0.00381 0.20208 -0.17500
H 	H 	0.38994 0.89757 0.19254 0.04700
H 	H 	0.50490 0.03911 0.28440 0.04600
C 	C 	0.58094 0.93766 0.27379 -0.19500
H 	H 	0.33242 0.99229 0.17981 0.06200
H 	H 	0.34213 0.06934 0.20417 0.07500
H 	H 	0.24350 0.96425 0.20753 0.06900
H 	H 	0.64807 0.95136 0.26170 0.07600
H 	H 	0.54525 0.87314 0.28095 0.08400
H 	H 	0.60515 0.97846 0.29260 0.06700
C 	C 	0.83634 0.01772 0.38509 -0.02000
C 	C 	0.81313 0.94819 0.40098 -0.10600
C 	C 	0.88189 0.91924 0.40207 0.08000
H 	H 	0.78834 0.04472 0.38604 0.04100
C 	C 	0.87084 0.85575 0.42298 -0.20200
H 	H 	0.82919 0.79357 0.41331 0.07700
H 	H 	0.83123 0.85914 0.44174 0.07600
H 	H 	0.94478 0.86625 0.42999 0.07100
C 	C 	0.28958 0.41317 0.39058 -0.04000
C 	C 	0.38569 0.47854 0.38631 -0.08800
C 	C 	0.46106 0.45978 0.37860 0.07800
C 	C 	0.43380 0.38133 0.36808 -0.03700
C 	C 	0.33382 0.32162 0.36614 -0.09800
C 	C 	0.26341 0.33406 0.38080 0.08200
C 	C 	0.15866 0.26548 0.38387 -0.19900
H 	H 	0.23354 0.42473 0.39963 0.05200
H 	H 	0.48956 0.36933 0.35904 0.04200
C 	C 	0.56942 0.52282 0.38029 -0.19900
H 	H 	0.12542 0.27409 0.40324 0.06900
H 	H 	0.15626 0.20522 0.38531 0.08400
H 	H 	0.11372 0.26500 0.36564 0.06700
H 	H 	0.58419 0.56841 0.39704 0.08100
H 	H 	0.59386 0.55431 0.35994 0.07400
H 	H 	0.61460 0.49305 0.38521 0.06700
C 	C 	0.47944 0.91430 0.34656 -0.04700
C 	C 	0.42556 0.83974 0.33176 -0.09400
C 	C 	0.35164 0.83114 0.31247 0.08000
C 	C 	0.31844 0.88881 0.31258 -0.03600
C 	C 	0.36738 0.96105 0.32885 -0.10300
C 	C 	0.45000 0.97470 0.34564 0.08100
C 	C 	0.50540 0.05206 0.36308 -0.19400
H 	H 	0.53978 0.92293 0.36035 0.04700
H 	H 	0.25560 0.87808 0.29955 0.03600
C 	C 	0.30472 0.75861 0.29260 -0.19800
H 	H 	0.55578 0.04677 0.37857 0.07500
H 	H 	0.45273 0.06466 0.37490 0.08400
H 	H 	0.55075 0.10464 0.34931 0.07600
H 	H 	0.24029 0.70681 0.30268 0.07900
H 	H 	0.35889 0.73870 0.28650 0.08500
H 	H 	0.27905 0.77485 0.27312 0.07700
C 	C 	0.63345 0.10158 0.61503 -0.10200
C 	C 	0.57504 0.01579 0.61595 0.04100
C 	C 	0.51560 0.97325 0.59288 -0.09300
C 	C 	0.52546 0.01486 0.56768 0.05000
C 	C 	0.60582 0.09499 0.56495 -0.07800
C 	C 	0.66034 0.13832 0.58872 0.02600
C 	C 	0.44681 0.97844 0.54558 -0.02400
C 	C 	0.41950 0.02846 0.53019 -0.01500
C 	C 	0.35862 0.99668 0.50638 -0.05700
C 	C 	0.32296 0.91458 0.49829 0.00300
C 	C 	0.33278 0.86159 0.51701 -0.04200
C 	C 	0.39936 0.89377 0.53953 -0.02700
C 	C 	0.31759 0.89482 0.46906 0.04400
C 	C 	0.33030 0.87638 0.44593 -0.10500
H 	H 	0.56172 0.98495 0.63585 0.02000
H 	H 	0.45716 0.91048 0.59534 0.05100
H 	H 	0.62137 0.12549 0.54496 0.04800
H 	H 	0.44882 0.09254 0.53588 0.03300
H 	H 	0.34730 0.03769 0.49285 0.04800
H 	H 	0.30049 0.79693 0.51181 0.05000
H 	H 	0.41792 0.85361 0.55117 0.03500
C 	C 	0.65445 0.37123 0.58508 -0.08800
C 	C 	0.65155 0.32697 0.56085 0.01500
C 	C 	0.99270 0.60581 0.49781 -0.02100
C 	C 	0.06364 0.58104 0.50238 -0.01900
C 	C 	0.03844 0.50934 0.51723 -0.03300
C 	C 	0.15728 0.62235 0.48859 0.05500
C 	C 	0.23303 0.65261 0.47565 -0.12700
H 	H 	0.60465 0.26091 0.55980 0.03400
H 	H 	0.01108 0.66028 0.48579 0.03300
H 	H 	0.09232 0.48890 0.52032 0.03900
C 	C 	0.65175 0.67061 0.45984 -0.09000
C 	C 	0.70140 0.71899 0.48353 0.01200
C 	C 	0.68138 0.68392 0.51015 -0.06400
C 	C 	0.61925 0.59883 0.51294 0.02600
C 	C 	0.59060 0.54893 0.48867 -0.06400
C 	C 	0.60620 0.58476 0.46218 0.01600
C 	C 	0.57288 0.56368 0.54043 0.00400
C 	C 	0.47149 0.50523 0.54166 -0.03900
C 	C 	0.42956 0.46738 0.56697 -0.03100
C 	C 	0.48756 0.48874 0.59149 -0.00700
C 	C 	0.58548 0.55366 0.59098 -0.03200
C 	C 	0.62892 0.58963 0.56547 -0.04000
C 	C 	0.45483 0.43204 0.61462 0.05100
C 	C 	0.42731 0.37770 0.63161 -0.10500
H 	H 	0.74173 0.78525 0.48194 0.02100
H 	H 	0.70782 0.72360 0.52848 0.04400
H 	H 	0.54942 0.48267 0.49034 0.04700
H 	H 	0.57129 0.54579 0.44409 0.02700
H 	H 	0.42553 0.48785 0.52293 0.04200
H 	H 	0.35314 0.41853 0.56720 0.04000
H 	H 	0.63007 0.57261 0.60999 0.03900
H 	H 	0.70672 0.63533 0.56512 0.03600
C 	C 	0.57128 0.10133 0.73230 -0.04600
C 	C 	0.59237 0.03991 0.74155 0.08400
C 	C 	0.54137 0.95681 0.72723 -0.19900
H 	H 	0.52547 0.09017 0.71376 0.04400
H 	H 	0.48554 0.95233 0.71154 0.06500
H 	H 	0.50120 0.90802 0.74278 0.07000
H 	H 	0.59634 0.94582 0.71598 0.08400
C 	C 	0.14674 0.08041 0.69995 -0.04300
C 	C 	0.22550 0.06400 0.70296 -0.09000
C 	C 	0.21787 0.00431 0.72216 0.09400
C 	C 	0.14104 0.97351 0.74149 -0.04800
C 	C 	0.06840 0.99792 0.74087 -0.09900
C 	C 	0.06598 0.04531 0.71820 0.08500
C 	C 	0.97868 0.05875 0.71324 -0.19700
H 	H 	0.15056 0.12360 0.68432 0.04500
H 	H 	0.13983 0.93259 0.75762 0.04500
C 	C 	0.29744 0.98022 0.72431 -0.21200
H 	H 	0.97530 0.07524 0.69114 0.07400
H 	H 	0.98542 0.10962 0.72690 0.08800
H 	H 	0.90793 0.00193 0.71747 0.08800
H 	H 	0.35755 0.02400 0.73852 0.08100
H 	H 	0.32841 0.97999 0.70347 0.08000
H 	H 	0.26714 0.91740 0.73285 0.06400
H 	H 	0.57656 0.46921 0.74191 0.03000
C 	C 	0.52904 0.58856 0.75108 -0.19700
H 	H 	0.49895 0.61976 0.73771 0.08000
H 	H 	0.54206 0.61418 0.77259 0.08400
H 	H 	0.47096 0.52293 0.75214 0.06600
C 	C 	0.32490 0.57106 0.09896 -0.08900
C 	C 	0.26090 0.48723 0.10362 0.01600
C 	C 	0.17455 0.44381 0.08726 -0.06700
C 	C 	0.15256 0.48399 0.06593 0.02700
C 	C 	0.22379 0.56444 0.05892 -0.06500
C 	C 	0.31056 0.60694 0.07498 0.01800
C 	C 	0.05309 0.44440 0.05213 -0.00200
C 	C 	0.04517 0.44777 0.02297 -0.04600
H 	H 	0.27418 0.45732 0.12107 0.02500
H 	H 	0.12298 0.38029 0.09193 0.04300
H 	H 	0.20938 0.59574 0.04207 0.04600
H 	H 	0.36144 0.67082 0.07055 0.03300
H 	H 	0.97113 0.40796 0.09079 0.04000
H 	H 	0.11080 0.47172 0.01020 0.03900
C 	C 	0.69898 0.14783 0.96450 -0.08700
C 	C 	0.65595 0.07010 0.97688 0.01400
C 	C 	0.68569 0.06226 0.00378 -0.06500
C 	C 	0.75982 0.13171 0.01783 0.02500
C 	C 	0.81988 0.20190 0.00239 -0.06600
C 	C 	0.78891 0.21053 0.97562 0.01100
C 	C 	0.75291 0.13858 0.04830 0.00500
C 	C 	0.80086 0.10978 0.06615 -0.04300
C 	C 	0.76159 0.08018 0.09250 -0.02900
C 	C 	0.67185 0.07577 0.10031 -0.01400
C 	C 	0.63604 0.11937 0.08489 -0.02900
C 	C 	0.67748 0.15179 0.05898 -0.04200
C 	C 	0.60339 0.00599 0.11613 0.06100
C 	C 	0.55062 0.94047 0.12657 -0.12400
H 	H 	0.59200 0.01850 0.96720 0.03800
H 	H 	0.64340 0.00526 0.01487 0.04900
H 	H 	0.88536 0.25202 0.01194 0.05000
H 	H 	0.86223 0.10284 0.05865 0.04000
H 	H 	0.79324 0.05061 0.10511 0.04100
H 	H 	0.56957 0.12011 0.09136 0.03800
H 	H 	0.64334 0.17826 0.04584 0.04500
C 	C 	0.36966 0.33874 0.96660 -0.08800
C 	C 	0.29121 0.31597 0.98533 0.01700
C 	C 	0.31018 0.34740 0.01269 -0.06500
C 	C 	0.40771 0.40188 0.02144 0.02600
C 	C 	0.48404 0.43182 0.00170 -0.05900
C 	C 	0.46420 0.40214 0.97418 0.01600
C 	C 	0.43069 0.42722 0.05117 0.00500
C 	C 	0.40034 0.36807 0.07242 -0.04000
C 	C 	0.43136 0.39256 0.10022 -0.03200
C 	C 	0.49504 0.47563 0.10661 -0.01000
C 	C 	0.52477 0.53410 0.08540 -0.02200
C 	C 	0.49038 0.51044 0.05810 -0.04200
C 	C 	0.52358 0.50448 0.13496 0.05500
C 	C 	0.55558 0.54784 0.15547 -0.12100
H 	H 	0.21706 0.26877 0.97940 0.02900
H 	H 	0.24983 0.32698 0.02734 0.04500
H 	H 	0.55944 0.47527 0.00799 0.05000
H 	H 	0.52467 0.42215 0.95959 0.04400
H 	H 	0.35419 0.30345 0.06735 0.03900
H 	H 	0.40638 0.34715 0.11656 0.03500
H 	H 	0.57323 0.59860 0.09027 0.03600
H 	H 	0.51201 0.55677 0.04214 0.04000
C 	C 	0.52836 0.07479 0.83203 0.07300
C 	C 	0.55595 0.01398 0.82760 -0.03300
H 	H 	0.51656 0.96621 0.81197 0.03500
C 	C 	0.44783 0.07462 0.81402 -0.19100
H 	H 	0.47100 0.13742 0.80639 0.07700
H 	H 	0.37877 0.05198 0.82617 0.07700
H 	H 	0.43152 0.03421 0.79528 0.06500
C 	C 	0.20714 0.95677 0.87335 -0.03800
C 	C 	0.20018 0.98775 0.89949 -0.10000
C 	C 	0.10528 0.96761 0.90935 0.08800
C 	C 	0.02541 0.93972 0.89027 -0.04500
C 	C 	0.03818 0.92519 0.86222 -0.08400
C 	C 	0.12720 0.92718 0.85421 0.07400
C 	C 	0.14137 0.90678 0.82465 -0.19300
H 	H 	0.27844 0.96590 0.86655 0.03800
H 	H 	0.95519 0.93327 0.89695 0.04400
C 	C 	0.09232 0.98759 0.93905 -0.20600
H 	H 	0.20591 0.89627 0.82322 0.06200
H 	H 	0.15477 0.95864 0.81086 0.07700
H 	H 	0.07520 0.84980 0.81709 0.06900
H 	H 	0.10729 0.05205 0.94052 0.08600
H 	H 	0.14393 0.97982 0.95335 0.07700
H 	H 	0.01561 0.94598 0.94612 0.06700
H 	H 	0.56539 0.70720 0.86989 0.08000
C 	C 	0.58170 0.13843 0.85189 -0.08800
C 	C 	0.56519 0.40616 0.88054 0.31600
Ni	Ni	0.63324 0.30508 0.91234 1.10800
O 	O 	0.67781 0.22152 0.92606 -0.38500
C 	C 	0.66487 0.45098 0.69696 0.31500
Ni	Ni	0.68591 0.31510 0.66877 1.11100
O 	O 	0.70151 0.26665 0.70595 -0.36600
H 	H 	0.71343 0.20314 0.58718 0.03400
C 	C 	0.61777 0.17998 0.74474 -0.08700
C 	C 	0.62373 0.59807 0.73893 0.08100
C 	C 	0.63093 0.52746 0.73327 -0.03600
C 	C 	0.69978 0.33235 0.99696 -0.11100
H 	H 	0.58419 0.54892 0.90041 0.04600
H 	H 	0.61707 0.68665 0.90056 0.06800
C 	C 	0.62503 0.69538 0.87758 -0.19500
O 	O 	0.61660 0.40613 0.90233 -0.37800
O 	O 	0.62056 0.27259 0.86965 -0.37500
C 	C 	0.71179 0.45728 0.58530 0.01600
H 	H 	0.71463 0.49240 0.60373 0.03400
C 	C 	0.69569 0.52822 0.71279 -0.09900
H 	H 	0.82841 0.26879 0.96508 0.02800
C 	C 	0.59854 0.55080 0.87819 -0.03400
C 	C 	0.61778 0.62104 0.86277 0.07400
O 	O 	0.72433 0.42031 0.69377 -0.37700
H 	H 	0.84827 0.11340 0.34393 0.06300
O 	O 	0.61191 0.73186 0.81427 -0.37800
O 	O 	0.66221 0.92682 0.76262 -0.38900
O 	O 	0.64249 0.76027 0.75375 -0.37500
O 	O 	0.61969 0.89151 0.82174 -0.37600
C 	C 	0.71620 0.36729 0.53892 -0.06700
H 	H 	0.71981 0.33190 0.52135 0.04500
C 	C 	0.66210 0.05819 0.76378 -0.09000
C 	C 	0.59705 0.48279 0.86494 -0.09800
C 	C 	0.66543 0.14298 0.86527 -0.04700
H 	H 	0.55623 0.36503 0.81696 0.08200
C 	C 	0.90639 0.04071 0.36375 0.07100
Ni	Ni	0.64879 0.83288 0.78852 1.10800
C 	C 	0.99098 0.98921 0.20992 -0.04100
C 	C 	0.88384 0.03137 0.23310 0.08700
C 	C 	0.95643 0.94488 0.38186 -0.04400
C 	C 	0.67217 0.19268 0.76977 0.07700
C 	C 	0.70024 0.67541 0.73012 -0.09400
C 	C 	0.77166 0.35674 0.01218 0.04400
C 	C 	0.63925 0.01860 0.84149 -0.08800
C 	C 	0.63074 0.62105 0.83351 -0.08600
H 	H 	0.69827 0.75004 0.87369 0.07400
C 	C 	0.76828 0.60443 0.70217 0.08000
H 	H 	0.79917 0.57846 0.66060 0.07400
H 	H 	0.71264 0.19562 0.87829 0.04700
C 	C 	0.61632 0.48552 0.83601 0.08500
C 	C 	0.62526 0.55155 0.82035 -0.04400
C 	C 	0.77425 0.49749 0.56317 -0.06600
C 	C 	0.66836 0.69719 0.81723 0.29200
C 	C 	0.70698 0.00468 0.77054 0.30000
C 	C 	0.71787 0.75302 0.74423 0.30400
C 	C 	0.68135 0.96676 0.83131 0.27800
H 	H 	0.84377 0.05517 0.27366 0.07500
H 	H 	0.81429 0.10289 0.24556 0.06700
C 	C 	0.90850 0.09791 0.34134 -0.19100
H 	H 	0.65304 0.29166 0.78640 0.07700
C 	C 	0.77184 0.67769 0.71157 -0.04300
C 	C 	0.68795 0.07940 0.86246 0.08300
C 	C 	0.62961 0.41921 0.82174 -0.19900
H 	H 	0.00594 0.91928 0.38160 0.04500
C 	C 	0.96977 0.02233 0.23369 -0.07900
H 	H 	0.06122 0.98978 0.20865 0.04400
C 	C 	0.96627 0.00280 0.36186 -0.07900
H 	H 	0.89801 0.06803 0.32056 0.07100
C 	C 	0.78245 0.45210 0.54095 0.02600
C 	C 	0.69722 0.13328 0.77853 -0.03800
H 	H 	0.63516 0.55141 0.79795 0.04800
C 	C 	0.87029 0.08688 0.25347 -0.19500
H 	H 	0.67404 0.40075 0.83514 0.08300
H 	H 	0.82334 0.56327 0.56459 0.04500
C 	C 	0.70996 0.27187 0.78610 -0.19700
H 	H 	0.66991 0.44113 0.80175 0.06800
H 	H 	0.80693 0.35517 0.06775 0.04000
O 	O 	0.73798 0.71126 0.79901 -0.39600
C 	C 	0.86670 0.38894 0.02625 -0.00900
H 	H 	0.77833 0.32036 0.77635 0.07500
C 	C 	0.83990 0.60792 0.68034 -0.19700
H 	H 	0.77157 0.86599 0.81871 0.14000
O 	O 	0.10802 0.10755 0.33887 -0.40600
C 	C 	0.87331 0.38207 0.05526 -0.03300
H 	H 	0.97990 0.15609 0.34198 0.05500
O 	O 	0.80061 0.04134 0.77886 -0.37600
O 	O 	0.80885 0.80849 0.75086 -0.39500
O 	O 	0.77712 0.99181 0.83538 -0.39000
O 	O 	0.78424 0.87995 0.79877 -0.70900
H 	H 	0.84385 0.58069 0.50570 0.04200
H 	H 	0.74578 0.14623 0.79656 0.04600
H 	H 	0.72698 0.26445 0.80815 0.07200
H 	H 	0.83009 0.73641 0.70438 0.04700
C 	C 	0.87298 0.48921 0.52419 0.00300
H 	H 	0.87937 0.57546 0.68783 0.07600
H 	H 	0.94820 0.42608 0.98772 0.03600
O 	O 	0.02283 0.07639 0.28115 -0.40000
C 	C 	0.02700 0.03198 0.26001 0.29300
H 	H 	0.94059 0.14559 0.25653 0.07500
C 	C 	0.76090 0.07563 0.88267 -0.19600
C 	C 	0.04507 0.02947 0.34081 0.30900
C 	C 	0.95294 0.42207 0.01022 -0.03000
O 	O 	0.04547 0.97597 0.32259 -0.38500
C 	C 	0.89754 0.55998 0.50865 -0.04500
H 	H 	0.89654 0.67221 0.67573 0.06600
H 	H 	0.83631 0.10696 0.87369 0.07800
H 	H 	0.76319 0.10676 0.90279 0.07700
H 	H 	0.73921 0.01101 0.88762 0.08500
Ni	Ni	0.85488 0.82255 0.79096 1.12000
H 	H 	0.92573 0.40949 0.54027 0.04000
Ni	Ni	0.86822 0.99547 0.80436 1.11400
C 	C 	0.96635 0.41065 0.06825 -0.03500
C 	C 	0.94348 0.46344 0.52802 -0.03800
O 	O 	0.06738 0.98432 0.26358 -0.38600
