data_crystal

_cell_length_a 18.26647
_cell_length_b 15.11158
_cell_length_c 43.78490
_cell_angle_alpha 90.85106
_cell_angle_beta  91.25499
_cell_angle_gamma 111.05017

_symmetry_space_group_name_	'P 1'
_symmetry_space_group_name_H-M	'P 1'

loop_
_symmetry_equiv_pos_as_xyz
  x,y,z

loop_
_atom_site_label
_atom_site_type_symbol
_atom_site_fract_x
_atom_site_fract_y
_atom_site_fract_z
_atom_site_charge
Ni	Ni	0.71343 0.31086 0.89590 1.09800
O 	O 	0.63326 0.25343 0.86063 -0.70300
Ni	Ni	0.53625 0.26272 0.87937 1.09600
O 	O 	0.80028 0.26938 0.87904 -0.36800
O 	O 	0.72926 0.13041 0.85430 -0.40200
O 	O 	0.76385 0.43383 0.87208 -0.37500
Ni	Ni	0.61143 0.11753 0.85310 1.06300
O 	O 	0.75730 0.50926 0.92733 -0.41500
O 	O 	0.60347 0.09113 0.89884 -0.41200
O 	O 	0.46017 0.19927 0.84420 -0.39300
O 	O 	0.61789 0.32529 0.91335 -0.70600
O 	O 	0.78638 0.37420 0.93197 -0.38200
O 	O 	0.44957 0.29291 0.90156 -0.36400
O 	O 	0.52454 0.44886 0.90724 -0.41100
Ni	Ni	0.63956 0.46206 0.91693 1.06500
H 	H 	0.64608 0.28963 0.84159 0.15100
H 	H 	0.60498 0.29401 0.93327 0.15900
C 	C 	0.54357 0.09498 0.91422 0.27900
O 	O 	0.65876 0.48126 0.87158 -0.42400
C 	C 	0.78956 0.21131 0.85535 0.28500
C 	C 	0.44853 0.11170 0.83535 0.29500
C 	C 	0.72545 0.48459 0.86033 0.29800
C 	C 	0.46573 0.37489 0.91585 0.28700
C 	C 	0.79487 0.46068 0.94148 0.29300
O 	O 	0.49801 0.13761 0.90274 -0.37500
O 	O 	0.49121 0.06584 0.84748 -0.41100
Ni	Ni	0.60693 0.34610 0.56797 1.09900
O 	O 	0.69729 0.35888 0.53919 -0.70000
Ni	Ni	0.76593 0.30795 0.56424 1.09700
O 	O 	0.56261 0.43137 0.54335 -0.36600
O 	O 	0.68363 0.54480 0.54138 -0.41500
O 	O 	0.53284 0.23341 0.54166 -0.36700
Ni	Ni	0.75930 0.48395 0.52415 1.07400
O 	O 	0.49813 0.16373 0.59803 -0.40300
O 	O 	0.84193 0.55002 0.55789 -0.39700
O 	O 	0.86342 0.33778 0.53737 -0.38200
O 	O 	0.67113 0.28592 0.59162 -0.70000
O 	O 	0.51924 0.32283 0.59829 -0.38300
O 	O 	0.81248 0.23550 0.59342 -0.37700
O 	O 	0.69973 0.10506 0.59135 -0.41200
Ni	Ni	0.60612 0.15156 0.59482 1.06500
H 	H 	0.67765 0.31641 0.52118 0.16000
H 	H 	0.68639 0.31659 0.61210 0.15100
C 	C 	0.87033 0.50646 0.57809 0.29300
O 	O 	0.59277 0.12628 0.54897 -0.41000
C 	C 	0.60980 0.51122 0.53230 0.28400
C 	C 	0.88279 0.40108 0.51536 0.28800
C 	C 	0.55246 0.16283 0.53152 0.28600
C 	C 	0.76997 0.15123 0.60334 0.28300
C 	C 	0.48554 0.23803 0.60990 0.28200
O 	O 	0.82349 0.42775 0.58997 -0.39500
O 	O 	0.82966 0.42898 0.50184 -0.42100
Ni	Ni	0.99112 0.95158 0.75234 1.08500
O 	O 	0.01723 0.86045 0.72385 -0.70300
Ni	Ni	0.06924 0.94670 0.69023 1.09600
O 	O 	0.93898 0.84510 0.78214 -0.37800
O 	O 	0.85478 0.75450 0.74509 -0.41500
O 	O 	0.09370 0.98062 0.77833 -0.37700
Ni	Ni	0.92016 0.76666 0.70606 1.06000
O 	O 	0.08064 0.15636 0.77685 -0.41700
O 	O 	0.87349 0.86377 0.69143 -0.41700
O 	O 	0.09146 0.84586 0.66425 -0.38400
O 	O 	0.03597 0.03814 0.71722 -0.67100
O 	O 	0.95910 0.04153 0.77876 -0.40700
O 	O 	0.14196 0.04949 0.66323 -0.36100
O 	O 	0.17650 0.18592 0.69203 -0.40000
Ni	Ni	0.12063 0.15121 0.73360 1.06900
H 	H 	0.05198 0.83067 0.73343 0.15500
H 	H 	0.99560 0.05853 0.70747 0.13600
C 	C 	0.90705 0.92538 0.67049 0.29000
O 	O 	0.18426 0.07031 0.74496 -0.42300
C 	C 	0.88590 0.76378 0.77281 0.28400
C 	C 	0.03312 0.76464 0.65812 0.31100
C 	C 	0.16566 0.01116 0.76767 0.29000
C 	C 	0.19653 0.12650 0.67479 0.28800
C 	C 	0.00534 0.12993 0.78309 0.33400
O 	O 	0.97681 0.93409 0.66089 -0.38400
O 	O 	0.96036 0.75656 0.66372 -0.42600
Ni	Ni	0.24724 0.68910 0.39745 1.09700
O 	O 	0.33518 0.76001 0.36878 -0.70300
Ni	Ni	0.42878 0.75332 0.39121 1.10200
O 	O 	0.16568 0.70712 0.36806 -0.38000
O 	O 	0.23033 0.86801 0.36644 -0.41400
O 	O 	0.24447 0.57415 0.37185 -0.40900
Ni	Ni	0.35038 0.89263 0.36326 1.06300
O 	O 	0.23469 0.57817 0.46241 -0.41900
O 	O 	0.36381 0.92588 0.40903 -0.41300
O 	O 	0.50780 0.81384 0.35872 -0.38100
O 	O 	0.34255 0.69817 0.42242 -0.69800
O 	O 	0.15697 0.60726 0.42444 -0.38200
O 	O 	0.51126 0.71435 0.41415 -0.36900
O 	O 	0.42271 0.56496 0.41661 -0.41800
Ni	Ni	0.32546 0.57161 0.43822 1.07300
H 	H 	0.32921 0.72752 0.34857 0.15400
H 	H 	0.34836 0.74280 0.43986 0.15800
C 	C 	0.42568 0.92657 0.42507 0.29200
O 	O 	0.24884 0.47164 0.40887 -0.40000
C 	C 	0.17404 0.78952 0.35622 0.28400
C 	C 	0.51174 0.89463 0.34637 0.28000
C 	C 	0.22179 0.48833 0.38231 0.31400
C 	C 	0.49166 0.62796 0.42433 0.28200
C 	C 	0.16491 0.56323 0.44972 0.29300
O 	O 	0.46998 0.88098 0.41495 -0.37900
O 	O 	0.47003 0.94395 0.35722 -0.40900
Ni	Ni	0.37302 0.68100 0.05283 1.10100
O 	O 	0.27240 0.66077 0.02766 -0.70300
Ni	Ni	0.21042 0.70428 0.05755 1.09800
O 	O 	0.40595 0.58696 0.02738 -0.37500
O 	O 	0.28402 0.47475 0.03111 -0.41600
O 	O 	0.43518 0.78749 0.02401 -0.37100
Ni	Ni	0.20804 0.53463 0.01236 1.07300
O 	O 	0.48656 0.87179 0.07808 -0.41100
O 	O 	0.12505 0.47921 0.04482 -0.39500
O 	O 	0.10054 0.65703 0.03628 -0.37000
O 	O 	0.31761 0.74290 0.07965 -0.70300
O 	O 	0.47192 0.71427 0.07959 -0.38500
O 	O 	0.17229 0.77524 0.09018 -0.37400
O 	O 	0.27625 0.91326 0.08296 -0.41600
Ni	Ni	0.37662 0.87873 0.07985 1.06400
H 	H 	0.28331 0.70363 0.01018 0.15900
H 	H 	0.31399 0.71818 0.10060 0.15400
C 	C 	0.13349 0.50150 0.07414 0.30800
O 	O 	0.36983 0.88806 0.03365 -0.41500
C 	C 	0.35607 0.50047 0.02134 0.27600
C 	C 	0.08375 0.61581 0.00869 0.27400
C 	C 	0.41326 0.85801 0.01581 0.28600
C 	C 	0.21462 0.86341 0.09862 0.27700
C 	C 	0.50636 0.80280 0.08977 0.28400
O 	O 	0.17954 0.58623 0.08405 -0.39900
O 	O 	0.13634 0.59439 0.99297 -0.40800
Ni	Ni	0.95027 0.02591 0.26451 1.09400
O 	O 	0.96880 0.12984 0.23316 -0.72000
Ni	Ni	0.91910 0.05156 0.19615 1.09600
O 	O 	0.00601 0.12297 0.29831 -0.36000
O 	O 	0.11508 0.18403 0.26938 -0.41400
O 	O 	0.84538 0.04238 0.27290 -0.39200
Ni	Ni	0.07854 0.19636 0.22459 1.06700
O 	O 	0.87933 0.78382 0.26259 -0.41100
O 	O 	0.10093 0.07708 0.21278 -0.41500
O 	O 	0.93127 0.16246 0.16830 -0.40300
O 	O 	0.91815 0.94854 0.22592 -0.70900
O 	O 	0.92447 0.91687 0.29412 -0.38700
O 	O 	0.84242 0.95724 0.16564 -0.38700
O 	O 	0.75526 0.89018 0.20299 -0.42200
Ni	Ni	0.82168 0.84104 0.23287 1.06800
H 	H 	0.94230 0.17474 0.23824 0.15200
H 	H 	0.95953 0.92299 0.22118 0.14300
C 	C 	0.07547 0.03243 0.18648 0.29600
O 	O 	0.77499 0.88337 0.26988 -0.39200
C 	C 	0.07431 0.18966 0.29339 0.28000
C 	C 	0.00128 0.23016 0.16571 0.30700
C 	C 	0.77860 0.97055 0.27519 0.30100
C 	C 	0.77140 0.90433 0.17382 0.27400
C 	C 	0.92632 0.83392 0.28525 0.28700
O 	O 	0.01005 0.03281 0.17350 -0.36500
O 	O 	0.06470 0.22288 0.17932 -0.41300
C 	C 	0.01859 0.38607 0.14363 -0.02200
C 	C 	0.01419 0.29215 0.13922 -0.10200
C 	C 	0.03997 0.26514 0.11159 0.11800
C 	C 	0.07927 0.33478 0.09081 -0.04800
C 	C 	0.08815 0.42995 0.09602 -0.09100
C 	C 	0.05206 0.45451 0.12152 0.10000
N 	N 	0.04600 0.54139 0.12420 -0.19800
H 	H 	0.99664 0.40624 0.16440 0.00800
H 	H 	0.10349 0.31481 0.07058 0.05000
N 	N 	0.02797 0.17258 0.10507 -0.19100
H 	H 	0.02465 0.56110 0.14412 0.08400
H 	H 	0.05588 0.58668 0.10574 0.10500
H 	H 	0.99384 0.11846 0.11890 0.09400
H 	H 	0.05032 0.15356 0.08529 0.08800
C 	C 	0.58406 0.89638 0.13383 -0.04500
C 	C 	0.57582 0.82854 0.11052 -0.10300
C 	C 	0.63598 0.79093 0.10654 0.11200
C 	C 	0.69829 0.81400 0.12819 -0.05300
C 	C 	0.70637 0.88237 0.15127 -0.09300
C 	C 	0.65139 0.92825 0.15287 0.09800
N 	N 	0.66489 0.00578 0.17144 -0.19500
H 	H 	0.53937 0.92748 0.13630 0.01900
H 	H 	0.74220 0.78149 0.12632 0.03800
N 	N 	0.63703 0.73816 0.08122 -0.20000
H 	H 	0.62205 0.03614 0.17371 0.07500
H 	H 	0.71950 0.03999 0.18230 0.07800
H 	H 	0.60327 0.73791 0.06167 0.10600
H 	H 	0.67760 0.70411 0.07983 0.08200
C 	C 	0.15097 0.04532 0.13977 -0.03800
C 	C 	0.12852 0.00178 0.16786 -0.09100
C 	C 	0.14147 0.91701 0.17416 0.09300
C 	C 	0.16933 0.87264 0.15111 -0.04900
C 	C 	0.18448 0.91166 0.12201 -0.09600
C 	C 	0.17376 0.99821 0.11607 0.09600
N 	N 	0.18006 0.03305 0.08738 -0.19100
H 	H 	0.14321 0.11187 0.13534 0.05200
H 	H 	0.17913 0.80744 0.15583 0.03600
N 	N 	0.12788 0.87820 0.20224 -0.20100
H 	H 	0.17723 0.09993 0.08365 0.08400
H 	H 	0.18160 0.99159 0.06831 0.09400
H 	H 	0.10982 0.91109 0.22016 0.08100
H 	H 	0.13798 0.81574 0.20664 0.07300
C 	C 	0.57188 0.93617 0.29588 -0.05200
C 	C 	0.58031 0.94374 0.32779 -0.08900
C 	C 	0.65640 0.98362 0.34153 0.10100
C 	C 	0.72259 0.00309 0.32329 -0.02900
C 	C 	0.71372 0.98452 0.29169 -0.10100
C 	C 	0.63820 0.95817 0.27764 0.10300
N 	N 	0.62921 0.95417 0.24673 -0.20200
H 	H 	0.51362 0.90965 0.28524 0.02700
H 	H 	0.78077 0.02717 0.33399 0.05100
N 	N 	0.66622 0.00191 0.37215 -0.19300
H 	H 	0.57324 0.93053 0.23633 0.07700
H 	H 	0.67778 0.97931 0.23290 0.08700
H 	H 	0.61839 0.99297 0.38599 0.10200
H 	H 	0.72247 0.02845 0.38229 0.08800
C 	C 	0.19475 0.32432 0.36210 -0.04300
C 	C 	0.17723 0.40757 0.36160 -0.09800
C 	C 	0.12215 0.41585 0.33948 0.11000
C 	C 	0.09184 0.34516 0.31674 -0.05000
C 	C 	0.11025 0.26310 0.31699 -0.09700
C 	C 	0.16105 0.25136 0.34015 0.11000
N 	N 	0.17786 0.17071 0.34142 -0.20000
H 	H 	0.23603 0.31706 0.37915 0.05200
H 	H 	0.05151 0.35268 0.29929 0.03100
N 	N 	0.09582 0.48925 0.34069 -0.20000
H 	H 	0.21582 0.16303 0.35852 0.08400
H 	H 	0.15306 0.11460 0.32572 0.09600
H 	H 	0.10352 0.53134 0.36039 0.10700
H 	H 	0.06091 0.49935 0.32283 0.08800
C 	C 	0.10416 0.77883 0.30670 -0.04900
C 	C 	0.10772 0.79676 0.33825 -0.10300
C 	C 	0.04197 0.80522 0.35279 0.13000
C 	C 	0.97592 0.80145 0.33504 -0.06400
C 	C 	0.97570 0.79338 0.30306 -0.11000
C 	C 	0.03742 0.77324 0.28909 0.11000
N 	N 	0.03189 0.74512 0.25922 -0.19400
H 	H 	0.15254 0.76624 0.29591 0.02700
H 	H 	0.92695 0.81222 0.34597 0.05600
N 	N 	0.04229 0.81844 0.38362 -0.19200
H 	H 	0.07684 0.72762 0.24955 0.07300
H 	H 	0.98128 0.73389 0.24591 0.06800
H 	H 	0.09132 0.82479 0.39742 0.09500
H 	H 	0.99311 0.82362 0.39414 0.07200
C 	C 	0.51914 0.11489 0.50220 -0.07100
C 	C 	0.43777 0.06674 0.49894 -0.02900
C 	C 	0.40598 0.00486 0.47389 0.05700
C 	C 	0.45577 0.99514 0.45086 -0.10000
C 	C 	0.53652 0.04779 0.45333 -0.00800
C 	C 	0.56863 0.10536 0.47909 0.03400
S 	S 	0.30524 0.93488 0.47299 -0.07300
S 	S 	0.67122 0.16277 0.48247 -0.07700
H 	H 	0.70298 0.10627 0.49789 0.03900
H 	H 	0.26434 0.98127 0.45751 0.04200
H 	H 	0.39965 0.07316 0.51680 0.05400
H 	H 	0.57486 0.04183 0.43552 0.04700
C 	C 	0.09396 0.50804 0.46666 -0.07700
C 	C 	0.09730 0.50948 0.49881 -0.02800
C 	C 	0.03015 0.46127 0.51524 0.04900
C 	C 	0.95727 0.41883 0.49961 -0.09200
C 	C 	0.95544 0.40938 0.46767 -0.04200
C 	C 	0.02358 0.45118 0.45119 0.05200
S 	S 	0.03961 0.44745 0.55475 -0.02900
S 	S 	0.02099 0.42495 0.41187 -0.01500
H 	H 	0.99338 0.48512 0.39632 0.02300
H 	H 	0.05302 0.36523 0.55979 0.04500
H 	H 	0.15217 0.54742 0.51105 0.04700
H 	H 	0.90046 0.37084 0.45557 0.04700
C 	C 	0.53475 0.60980 0.45071 -0.09600
C 	C 	0.55835 0.53142 0.44934 -0.02300
C 	C 	0.58296 0.49851 0.47583 0.02800
C 	C 	0.58643 0.54630 0.50407 -0.09600
C 	C 	0.56728 0.62801 0.50523 -0.02300
C 	C 	0.54024 0.65930 0.47887 0.02800
S 	S 	0.60719 0.39596 0.47341 -0.08300
S 	S 	0.50909 0.75677 0.48186 -0.08700
H 	H 	0.57010 0.83868 0.47574 0.05200
H 	H 	0.68558 0.42124 0.46802 -0.00200
H 	H 	0.55423 0.49339 0.42778 0.04200
H 	H 	0.57104 0.66557 0.52685 0.03900
C 	C 	0.81499 0.10612 0.65210 -0.04900
C 	C 	0.80919 0.09722 0.62019 -0.10100
C 	C 	0.83022 0.02676 0.60514 0.12000
C 	C 	0.85448 0.96459 0.62245 -0.05300
C 	C 	0.86226 0.97474 0.65435 -0.10200
C 	C 	0.84016 0.04457 0.66948 0.10000
N 	N 	0.84232 0.05252 0.70052 -0.20400
H 	H 	0.79750 0.15926 0.66353 0.02600
H 	H 	0.87116 0.91090 0.61094 0.05500
N 	N 	0.82888 0.01984 0.57408 -0.19600
H 	H 	0.82924 0.10700 0.71131 0.07000
H 	H 	0.85432 0.00340 0.71428 0.07300
H 	H 	0.81736 0.06976 0.56047 0.09500
H 	H 	0.84218 0.96570 0.56317 0.07900
C 	C 	0.35314 0.24480 0.61747 -0.04500
C 	C 	0.41584 0.22076 0.62882 -0.08500
C 	C 	0.40805 0.17162 0.65659 0.09500
C 	C 	0.33596 0.14238 0.67141 -0.04500
C 	C 	0.27234 0.16312 0.65940 -0.09200
C 	C 	0.28127 0.21633 0.63243 0.11500
N 	N 	0.22114 0.23949 0.62062 -0.20000
H 	H 	0.35935 0.28312 0.59635 0.05800
H 	H 	0.32944 0.10332 0.69237 0.04100
N 	N 	0.46973 0.15381 0.66940 -0.19700
H 	H 	0.22824 0.27827 0.60062 0.08900
H 	H 	0.16706 0.21985 0.63113 0.10500
H 	H 	0.52559 0.18090 0.66029 0.05000
H 	H 	0.46284 0.11506 0.68940 0.07300
C 	C 	0.04437 0.71807 0.60513 0.00200
C 	C 	0.04337 0.69626 0.63617 -0.11600
C 	C 	0.01436 0.59983 0.64395 0.12800
C 	C 	0.96239 0.53293 0.62346 -0.07900
C 	C 	0.94564 0.56156 0.59457 -0.07100
C 	C 	0.99599 0.65030 0.58391 0.06200
N 	N 	0.00097 0.66863 0.55358 -0.17100
H 	H 	0.07534 0.79014 0.59812 0.04700
H 	H 	0.93215 0.46085 0.63061 0.05500
N 	N 	0.02978 0.57321 0.67211 -0.20900
H 	H 	0.03547 0.73569 0.54607 0.08600
H 	H 	0.97562 0.61469 0.53721 0.07400
H 	H 	0.06807 0.62257 0.68756 0.07100
H 	H 	0.00521 0.50244 0.67848 0.08000
C 	C 	0.00517 0.59439 0.99486 -0.01100
C 	C 	0.99882 0.62509 0.96522 -0.09200
C 	C 	0.92962 0.58383 0.94773 0.06200
C 	C 	0.86453 0.51342 0.96046 -0.09500
C 	C 	0.86858 0.48867 0.99096 -0.00300
C 	C 	0.93845 0.52860 0.00826 -0.00600
S 	S 	0.92728 0.61610 0.90930 -0.03400
S 	S 	0.94243 0.49247 0.04611 -0.03800
H 	H 	0.92490 0.55311 0.06569 0.03100
H 	H 	0.90309 0.69190 0.90774 0.03700
H 	H 	0.04954 0.67694 0.95508 0.07100
H 	H 	0.81808 0.43602 0.00095 0.02600
C 	C 	0.44784 0.91301 0.98887 -0.07600
C 	C 	0.52739 0.97184 0.98998 -0.03000
C 	C 	0.56011 0.03065 0.96553 0.04100
C 	C 	0.51336 0.02852 0.93925 -0.06700
C 	C 	0.43467 0.96671 0.93774 -0.03200
C 	C 	0.40142 0.91038 0.96251 0.03800
S 	S 	0.65819 0.10964 0.96877 -0.06900
S 	S 	0.30148 0.83746 0.96026 -0.06400
H 	H 	0.29419 0.74952 0.94899 0.02700
H 	H 	0.70642 0.06696 0.95697 0.04400
H 	H 	0.56323 0.97391 0.01024 0.04500
H 	H 	0.39884 0.96376 0.91740 0.04900
C 	C 	0.37447 0.44281 0.99744 -0.08800
C 	C 	0.32546 0.41482 0.97115 -0.02400
C 	C 	0.35198 0.38386 0.94474 0.03700
C 	C 	0.42795 0.38034 0.94468 -0.08900
C 	C 	0.47300 0.39764 0.97198 -0.02900
C 	C 	0.44663 0.42869 0.99835 0.04100
S 	S 	0.29099 0.35376 0.91160 -0.04100
S 	S 	0.50436 0.44962 0.03231 -0.05600
H 	H 	0.48292 0.36824 0.04876 0.03300
H 	H 	0.30489 0.43278 0.89436 0.03500
H 	H 	0.26872 0.42265 0.97065 -0.00100
H 	H 	0.53026 0.39120 0.97228 0.00100
C 	C 	0.92384 0.22768 0.78913 -0.03300
C 	C 	0.97710 0.19080 0.80245 -0.13100
C 	C 	0.97968 0.18326 0.83458 0.10900
C 	C 	0.91979 0.19501 0.85194 -0.04500
C 	C 	0.85910 0.21705 0.83773 -0.08200
C 	C 	0.86368 0.23935 0.80639 0.08700
N 	N 	0.81026 0.27062 0.79267 -0.19800
H 	H 	0.92433 0.23828 0.76468 0.01700
H 	H 	0.91884 0.18337 0.87634 0.05100
N 	N 	0.03783 0.16147 0.84870 -0.19200
H 	H 	0.81361 0.28596 0.76943 0.06800
H 	H 	0.76587 0.28164 0.80499 0.06100
H 	H 	0.08495 0.15696 0.83653 0.10700
H 	H 	0.03783 0.15214 0.87231 0.09400
C 	C 	0.37033 0.02973 0.78941 -0.02400
C 	C 	0.37260 0.05616 0.82032 -0.10500
C 	C 	0.30142 0.04090 0.83540 0.12400
C 	C 	0.23076 0.01418 0.81821 -0.05500
C 	C 	0.23018 0.00066 0.78642 -0.07200
C 	C 	0.29897 0.99907 0.77250 0.07100
N 	N 	0.29662 0.96806 0.74307 -0.19300
H 	H 	0.42433 0.03605 0.77824 0.02600
H 	H 	0.17716 0.00989 0.82933 0.06400
N 	N 	0.30073 0.05257 0.86624 -0.20200
H 	H 	0.34811 0.97107 0.73243 0.07100
H 	H 	0.24329 0.93685 0.73098 0.06700
H 	H 	0.35118 0.06506 0.87986 0.11300
H 	H 	0.24848 0.04520 0.87706 0.09400
C 	C 	0.78979 0.52796 0.81083 -0.03900
C 	C 	0.76426 0.55679 0.83787 -0.09800
C 	C 	0.78198 0.65486 0.84416 0.10800
C 	C 	0.82103 0.72118 0.82239 -0.04500
C 	C 	0.84730 0.69232 0.79552 -0.09000
C 	C 	0.83352 0.59494 0.79006 0.09200
N 	N 	0.86434 0.56567 0.76558 -0.19500
H 	H 	0.77764 0.45320 0.80637 0.03500
H 	H 	0.83200 0.79584 0.82660 0.05300
N 	N 	0.76387 0.68606 0.87127 -0.19700
H 	H 	0.85142 0.49339 0.76115 0.06900
H 	H 	0.90427 0.61401 0.75161 0.03900
H 	H 	0.74457 0.64104 0.88957 0.07600
H 	H 	0.77365 0.75798 0.87492 0.08000
