data_crystal

_cell_length_a 26.40337
_cell_length_b 26.18863
_cell_length_c 31.78313
_cell_angle_alpha 95.50992
_cell_angle_beta  95.51127
_cell_angle_gamma 125.80203

_symmetry_space_group_name_	'P 1'
_symmetry_space_group_name_H-M	'P 1'

loop_
_symmetry_equiv_pos_as_xyz
  x,y,z

loop_
_atom_site_label
_atom_site_type_symbol
_atom_site_fract_x
_atom_site_fract_y
_atom_site_fract_z
_atom_site_charge
C 	C 	0.96475 0.02929 0.98966 0.12100
C 	C 	0.92826 0.96222 0.98217 -0.08700
C 	C 	0.95753 0.93210 0.97661 0.12400
C 	C 	0.02294 0.96896 0.97670 -0.08700
C 	C 	0.05965 0.03605 0.98407 0.12000
C 	C 	0.03064 0.06626 0.99118 -0.08800
H 	H 	0.87749 0.93364 0.98156 0.10300
H 	H 	0.04547 0.94559 0.97197 0.10300
H 	H 	0.05904 0.11815 0.99739 0.10300
C 	C 	0.94922 0.01212 0.46239 0.11900
C 	C 	0.91143 0.94556 0.46022 -0.08400
C 	C 	0.94010 0.91506 0.46703 0.12200
C 	C 	0.00655 0.95094 0.47481 -0.08700
C 	C 	0.04431 0.01713 0.47566 0.12000
C 	C 	0.01565 0.04787 0.47029 -0.08800
H 	H 	0.86003 0.91778 0.45377 0.10400
H 	H 	0.02874 0.92724 0.47935 0.10300
H 	H 	0.04490 0.09922 0.47146 0.10300
Cu	Cu	0.62857 0.23282 0.00401 0.93700
Cu	Cu	0.66997 0.22007 0.91172 0.88700
Cu	Cu	0.66692 0.32879 0.94414 0.90500
Cu	Cu	0.65103 0.36393 0.03085 0.91500
C 	C 	0.65482 0.28722 0.09324 0.31100
O 	O 	0.54092 0.20994 0.00626 -0.32700
C 	C 	0.64911 0.28329 0.85194 0.30400
O 	O 	0.69008 0.33176 0.00406 -0.63600
O 	O 	0.61772 0.23452 0.94195 -0.63700
O 	O 	0.65554 0.17588 0.00186 -0.32900
O 	O 	0.72711 0.23204 0.95948 -0.40700
O 	O 	0.63384 0.31958 0.08124 -0.34900
O 	O 	0.72011 0.42085 0.94829 -0.35500
C 	C 	0.72094 0.46230 0.97612 0.33500
C 	C 	0.52253 0.24196 0.98947 0.31900
O 	O 	0.56524 0.29967 0.98236 -0.36700
O 	O 	0.70144 0.44901 0.01308 -0.34700
O 	O 	0.65389 0.24628 0.06494 -0.33400
C 	C 	0.70658 0.19234 0.98658 0.32200
O 	O 	0.64957 0.32255 0.88167 -0.35000
O 	O 	0.63582 0.22836 0.85918 -0.38500
H 	H 	0.73624 0.35561 0.01478 0.19600
H 	H 	0.57325 0.20995 0.92646 0.20300
Cu	Cu	0.73406 0.33922 0.44489 0.93600
Cu	Cu	0.75094 0.30263 0.53847 0.88700
Cu	Cu	0.64164 0.30298 0.50671 0.90500
Cu	Cu	0.60313 0.31533 0.41954 0.91200
C 	C 	0.67481 0.30572 0.35621 0.29300
O 	O 	0.75577 0.42661 0.44074 -0.33200
C 	C 	0.69184 0.32809 0.59933 0.28700
O 	O 	0.63646 0.27743 0.44677 -0.63800
O 	O 	0.73473 0.35311 0.50718 -0.63600
O 	O 	0.79134 0.31316 0.44726 -0.33800
O 	O 	0.73825 0.24333 0.49158 -0.40800
O 	O 	0.64421 0.32880 0.36798 -0.35200
O 	O 	0.55065 0.24903 0.50397 -0.35900
C 	C 	0.50878 0.24808 0.47689 0.34000
C 	C 	0.72514 0.44609 0.45813 0.32300
O 	O 	0.66833 0.40382 0.46622 -0.36500
O 	O 	0.52015 0.26615 0.43932 -0.35400
O 	O 	0.71863 0.31083 0.38414 -0.33800
C 	C 	0.77652 0.26301 0.46373 0.33400
O 	O 	0.64974 0.32269 0.56929 -0.35400
O 	O 	0.74545 0.34030 0.59078 -0.38900
H 	H 	0.61284 0.23073 0.43679 0.19400
H 	H 	0.75894 0.39828 0.52189 0.20300
C 	C 	0.66580 0.31817 0.72980 0.02700
C 	C 	0.72692 0.35982 0.72087 -0.04300
C 	C 	0.73537 0.36537 0.67836 0.02100
C 	C 	0.65305 0.29579 0.80894 -0.07300
C 	C 	0.62114 0.28971 0.65362 0.01900
C 	C 	0.61284 0.28413 0.69619 -0.04100
C 	C 	0.65807 0.30618 0.77286 0.05800
C 	C 	0.68260 0.32913 0.64438 -0.06500
H 	H 	0.76806 0.38667 0.74675 0.06900
H 	H 	0.78296 0.39692 0.67181 0.06000
H 	H 	0.58000 0.26162 0.62776 0.06000
H 	H 	0.56540 0.25202 0.70288 0.07300
C 	C 	0.66714 0.27753 0.22068 0.03200
C 	C 	0.72571 0.31037 0.24890 -0.04100
C 	C 	0.72811 0.31632 0.29341 0.02700
C 	C 	0.66160 0.28325 0.13789 -0.06200
C 	C 	0.61311 0.25409 0.28150 0.02400
C 	C 	0.61078 0.24790 0.23706 -0.04000
C 	C 	0.66516 0.28030 0.17557 0.06100
C 	C 	0.67188 0.28983 0.30992 -0.06100
H 	H 	0.76948 0.33316 0.23646 0.07500
H 	H 	0.77378 0.34390 0.31500 0.06600
H 	H 	0.56938 0.23280 0.29386 0.05100
H 	H 	0.56529 0.22203 0.21541 0.07600
C 	C 	0.90053 0.84513 0.46530 -0.05100
C 	C 	0.87395 0.81958 0.50112 0.09300
C 	C 	0.83958 0.75337 0.50038 0.08100
C 	C 	0.83529 0.71332 0.46504 0.01000
C 	C 	0.86146 0.73881 0.42909 0.08000
C 	C 	0.89227 0.80429 0.42870 0.09300
C 	C 	0.80521 0.64492 0.46626 0.02400
C 	C 	0.84082 0.62715 0.48690 0.06600
C 	C 	0.81297 0.56207 0.48677 0.12800
C 	C 	0.75102 0.51433 0.46323 -0.11200
C 	C 	0.71564 0.53228 0.44214 0.13000
C 	C 	0.74176 0.59751 0.44546 0.06600
Br	Br	0.85659 0.68424 0.38100 -0.12400
Br	Br	0.88710 0.87572 0.55184 -0.12100
Br	Br	0.85892 0.53853 0.51999 -0.17700
Br	Br	0.69087 0.62217 0.42133 -0.11500
Br	Br	0.92250 0.83811 0.37791 -0.12200
Br	Br	0.79841 0.71731 0.54770 -0.11800
Br	Br	0.92836 0.69206 0.51437 -0.12200
Br	Br	0.63391 0.46813 0.40561 -0.17300
C 	C 	0.91924 0.04467 0.45670 -0.05100
C 	C 	0.91253 0.06120 0.41672 0.09200
C 	C 	0.88946 0.09749 0.41243 0.08100
C 	C 	0.87024 0.11463 0.44756 0.00800
C 	C 	0.87385 0.09517 0.48687 0.08100
C 	C 	0.89978 0.06160 0.49176 0.09200
C 	C 	0.84828 0.15496 0.44378 0.02300
C 	C 	0.89114 0.22168 0.45874 0.06500
C 	C 	0.86819 0.25830 0.46335 0.12400
C 	C 	0.80267 0.22856 0.45107 -0.11900
C 	C 	0.76117 0.16340 0.43124 0.13000
C 	C 	0.78355 0.12613 0.42869 0.06400
Br	Br	0.84333 0.11480 0.53398 -0.14000
Br	Br	0.93430 0.03338 0.36781 -0.12100
Br	Br	0.92583 0.34823 0.48887 -0.16300
Br	Br	0.72531 0.03523 0.40630 -0.12200
Br	Br	0.91077 0.04070 0.54685 -0.12700
Br	Br	0.88540 0.12497 0.35885 -0.11600
Br	Br	0.98097 0.26232 0.47401 -0.12300
Br	Br	0.67404 0.12577 0.40695 -0.16600
C 	C 	0.44399 0.21646 0.48549 -0.11300
C 	C 	0.40342 0.14948 0.48282 0.12800
C 	C 	0.33942 0.11863 0.48638 0.06500
C 	C 	0.31533 0.15429 0.49080 0.02300
C 	C 	0.35651 0.22152 0.49534 0.06700
C 	C 	0.42103 0.25265 0.49328 0.12500
C 	C 	0.24600 0.12068 0.48714 0.00900
C 	C 	0.20708 0.09860 0.44622 0.08000
C 	C 	0.14093 0.06421 0.44247 0.09300
C 	C 	0.11380 0.05367 0.47971 -0.05100
C 	C 	0.15283 0.07706 0.52068 0.09300
C 	C 	0.21885 0.10984 0.52438 0.08100
Br	Br	0.32393 0.27055 0.50307 -0.11800
Br	Br	0.43456 0.09965 0.47185 -0.16000
Br	Br	0.08712 0.03014 0.38632 -0.12000
Br	Br	0.27215 0.13939 0.58031 -0.12500
Br	Br	0.47822 0.34491 0.50126 -0.14700
Br	Br	0.28419 0.02730 0.48433 -0.12500
Br	Br	0.24468 0.11568 0.39538 -0.12300
Br	Br	0.11568 0.06441 0.57163 -0.12800
C 	C 	0.92030 0.86203 0.97328 -0.05600
C 	C 	0.89572 0.82171 0.93258 0.09400
C 	C 	0.86217 0.75511 0.92955 0.08200
C 	C 	0.85172 0.72867 0.96719 0.00500
C 	C 	0.87500 0.76891 0.00783 0.08400
C 	C 	0.91021 0.83561 0.01091 0.09700
C 	C 	0.81734 0.65871 0.96421 0.02400
C 	C 	0.75068 0.61821 0.96004 0.06700
C 	C 	0.71876 0.55293 0.96181 0.12500
C 	C 	0.75361 0.52852 0.96903 -0.11000
C 	C 	0.82011 0.56862 0.97194 0.12800
C 	C 	0.85172 0.63333 0.96853 0.06500
Br	Br	0.85841 0.73234 0.05923 -0.11700
Br	Br	0.90780 0.85790 0.88110 -0.12700
Br	Br	0.62721 0.49661 0.95403 -0.14600
Br	Br	0.94231 0.68773 0.97049 -0.12400
Br	Br	0.94601 0.89112 0.06667 -0.11500
Br	Br	0.83102 0.70000 0.87398 -0.12300
Br	Br	0.70348 0.65271 0.95300 -0.11800
Br	Br	0.86826 0.53585 0.98301 -0.15900
C 	C 	0.74204 0.16776 0.00058 -0.10600
C 	C 	0.80622 0.21112 0.02124 0.12700
C 	C 	0.84530 0.19099 0.02401 0.06500
C 	C 	0.81918 0.12648 0.00847 0.02600
C 	C 	0.75327 0.08150 0.99291 0.06100
C 	C 	0.71488 0.10231 0.98806 0.11900
C 	C 	0.86148 0.10703 0.00497 0.01400
C 	C 	0.88185 0.10499 0.96586 0.07500
C 	C 	0.91652 0.08035 0.96097 0.09500
C 	C 	0.93364 0.06073 0.99588 -0.05700
C 	C 	0.91698 0.06686 0.03587 0.09800
C 	C 	0.87946 0.08837 0.04010 0.07900
Br	Br	0.71619 0.99176 0.97717 -0.12000
Br	Br	0.84000 0.29767 0.04630 -0.16100
Br	Br	0.93839 0.07101 0.90601 -0.12700
Br	Br	0.85119 0.09068 0.09352 -0.11400
Br	Br	0.62608 0.04188 0.96201 -0.16200
Br	Br	0.93503 0.25212 0.04720 -0.11900
Br	Br	0.86174 0.13564 0.91897 -0.14100
Br	Br	0.94617 0.04635 0.08484 -0.12000
C 	C 	0.12893 0.07463 0.98534 -0.05500
C 	C 	0.15414 0.10084 0.94932 0.09400
C 	C 	0.21944 0.13333 0.94934 0.08100
C 	C 	0.25873 0.13586 0.98408 0.00600
C 	C 	0.23354 0.10981 0.02014 0.08300
C 	C 	0.16923 0.08130 0.02137 0.09600
C 	C 	0.32631 0.16501 0.98246 0.02000
C 	C 	0.34268 0.12853 0.96086 0.06600
C 	C 	0.40696 0.15552 0.96064 0.12800
C 	C 	0.45521 0.21717 0.98490 -0.11500
C 	C 	0.43865 0.25334 0.00701 0.13400
C 	C 	0.37433 0.22839 0.00390 0.07000
Br	Br	0.28681 0.11167 0.06723 -0.12500
Br	Br	0.09870 0.08968 0.89927 -0.12400
Br	Br	0.42879 0.10903 0.92585 -0.17400
Br	Br	0.35175 0.28082 0.02914 -0.11300
Br	Br	0.13633 0.05221 0.07261 -0.12400
Br	Br	0.25527 0.17448 0.90192 -0.11900
Br	Br	0.27702 0.04100 0.93260 -0.12400
Br	Br	0.50337 0.33436 0.04461 -0.17400
