data_crystal

_cell_length_a 26.15865
_cell_length_b 26.52549
_cell_length_c 35.38489
_cell_angle_alpha 95.47452
_cell_angle_beta  95.47394
_cell_angle_gamma 125.85526

_symmetry_space_group_name_	'P 1'
_symmetry_space_group_name_H-M	'P 1'

loop_
_symmetry_equiv_pos_as_xyz
  x,y,z

loop_
_atom_site_label
_atom_site_type_symbol
_atom_site_fract_x
_atom_site_fract_y
_atom_site_fract_z
_atom_site_charge
C 	C 	0.00406 0.04091 0.01363 0.28600
C 	C 	0.06750 0.07732 0.00720 -0.15400
C 	C 	0.10056 0.05071 0.00530 0.26900
C 	C 	0.06937 0.98706 0.00814 -0.16000
C 	C 	0.00643 0.95080 0.01511 0.28400
C 	C 	0.97469 0.97851 0.01919 -0.17700
H 	H 	0.09080 0.12586 0.00343 0.16900
H 	H 	0.09410 0.96584 0.00498 0.16500
H 	H 	0.92636 0.95085 0.02520 0.17300
C 	C 	0.88969 0.98449 0.45069 0.23900
C 	C 	0.95671 0.02089 0.45478 -0.12400
C 	C 	0.98762 0.99240 0.45924 0.23100
C 	C 	0.95157 0.92750 0.45976 -0.13100
C 	C 	0.88463 0.89085 0.45567 0.24600
C 	C 	0.85361 0.91935 0.45119 -0.12800
H 	H 	0.98467 0.07119 0.45448 0.15200
H 	H 	0.97551 0.90542 0.46304 0.15000
H 	H 	0.80180 0.89105 0.44797 0.15700
Cu	Cu	0.67084 0.24851 0.00223 0.93800
Cu	Cu	0.72200 0.25576 0.92023 0.90800
Cu	Cu	0.72134 0.35873 0.95879 0.91100
Cu	Cu	0.68494 0.37129 0.03489 0.92400
C 	C 	0.69275 0.28990 0.08439 0.33100
O 	O 	0.57888 0.21738 0.00151 -0.31500
C 	C 	0.69764 0.32366 0.87344 0.33600
O 	O 	0.73124 0.34813 0.01098 -0.64100
O 	O 	0.66709 0.26407 0.94864 -0.63100
O 	O 	0.70425 0.19770 0.99599 -0.31100
O 	O 	0.77878 0.26575 0.96285 -0.38200
O 	O 	0.67006 0.32219 0.07731 -0.34500
O 	O 	0.77852 0.45005 0.97248 -0.32100
C 	C 	0.77412 0.48370 0.00019 0.38200
C 	C 	0.55989 0.25107 0.99111 0.38700
O 	O 	0.60274 0.31023 0.98842 -0.34300
O 	O 	0.72724 0.45628 0.02014 -0.31900
O 	O 	0.68799 0.24966 0.05644 -0.31500
C 	C 	0.75837 0.22108 0.98346 0.38700
O 	O 	0.72399 0.36921 0.90426 -0.34200
O 	O 	0.68702 0.26902 0.87585 -0.38000
H 	H 	0.77636 0.37075 0.02408 0.19700
H 	H 	0.62349 0.24355 0.93365 0.20800
Cu	Cu	0.68868 0.32234 0.44189 0.94000
Cu	Cu	0.69854 0.27818 0.52416 0.90100
Cu	Cu	0.59131 0.28220 0.49555 0.91200
Cu	Cu	0.56254 0.31030 0.42001 0.92700
C 	C 	0.63387 0.30001 0.36173 0.33600
O 	O 	0.72033 0.41308 0.44196 -0.31500
C 	C 	0.64364 0.30863 0.57939 0.33700
O 	O 	0.58921 0.26539 0.44136 -0.63800
O 	O 	0.68596 0.33154 0.49770 -0.63100
O 	O 	0.73874 0.28736 0.44242 -0.31900
O 	O 	0.67917 0.21811 0.48075 -0.38800
O 	O 	0.60234 0.32181 0.37304 -0.34100
O 	O 	0.49875 0.22947 0.48974 -0.33300
C 	C 	0.45991 0.23365 0.46583 0.40400
C 	C 	0.69014 0.43421 0.45620 0.38600
O 	O 	0.63247 0.39394 0.46339 -0.34500
O 	O 	0.48073 0.27121 0.44008 -0.32200
O 	O 	0.67512 0.30022 0.38672 -0.33500
C 	C 	0.71767 0.23501 0.45568 0.39600
O 	O 	0.59354 0.28639 0.55185 -0.35000
O 	O 	0.69628 0.31746 0.57134 -0.38400
H 	H 	0.56338 0.21990 0.42962 0.21000
H 	H 	0.71071 0.37566 0.51194 0.21000
C 	C 	0.67676 0.33020 0.68853 0.03000
C 	C 	0.72610 0.37479 0.71963 -0.01800
C 	C 	0.72047 0.36384 0.75743 -0.01900
C 	C 	0.66503 0.30824 0.76457 0.03100
C 	C 	0.61484 0.26465 0.73360 -0.01900
C 	C 	0.62069 0.27532 0.69578 -0.01900
C 	C 	0.66290 0.29109 0.80331 0.02700
C 	C 	0.68798 0.33670 0.83715 -0.14100
C 	C 	0.68801 0.33696 0.64847 0.02700
C 	C 	0.63811 0.31758 0.61798 -0.14300
H 	H 	0.76978 0.41696 0.71440 0.08000
H 	H 	0.76031 0.39724 0.78089 0.07900
H 	H 	0.57213 0.22136 0.73870 0.08000
H 	H 	0.58284 0.23964 0.67205 0.07600
H 	H 	0.64085 0.24191 0.80524 0.07000
H 	H 	0.70197 0.38371 0.83513 0.12300
H 	H 	0.73596 0.35702 0.64285 0.06900
H 	H 	0.59302 0.30625 0.62438 0.11900
C 	C 	0.71278 0.32222 0.19263 0.03600
C 	C 	0.69249 0.35226 0.21438 -0.01700
C 	C 	0.68312 0.34269 0.25196 -0.01700
C 	C 	0.69240 0.30156 0.26807 0.03500
C 	C 	0.71479 0.27306 0.24688 -0.01600
C 	C 	0.72550 0.28373 0.20942 -0.01600
C 	C 	0.68222 0.29111 0.30797 0.03000
C 	C 	0.63262 0.28870 0.32215 -0.13400
C 	C 	0.72363 0.33447 0.15309 0.02900
C 	C 	0.70687 0.28636 0.12269 -0.13200
H 	H 	0.68425 0.38340 0.20217 0.08500
H 	H 	0.66944 0.36792 0.26872 0.08200
H 	H 	0.72413 0.24290 0.25944 0.08700
H 	H 	0.74475 0.26312 0.19392 0.08400
H 	H 	0.71476 0.28704 0.32653 0.08100
H 	H 	0.59624 0.28550 0.30208 0.11500
H 	H 	0.73614 0.37924 0.14651 0.06700
H 	H 	0.70446 0.24574 0.12878 0.12800
C 	C 	0.70072 0.58031 0.44512 0.23700
C 	C 	0.76628 0.62850 0.45895 0.00700
C 	C 	0.80669 0.61303 0.47279 0.23500
C 	C 	0.78177 0.54964 0.47239 0.31900
C 	C 	0.71623 0.50123 0.45807 -0.20300
C 	C 	0.67579 0.51698 0.44452 0.31900
C 	C 	0.79303 0.69498 0.45760 -0.00500
F 	F 	0.87019 0.65942 0.48628 -0.32600
F 	F 	0.61269 0.47074 0.42968 -0.37000
C 	C 	0.80436 0.73590 0.49097 0.25100
C 	C 	0.83139 0.79939 0.48988 0.29800
C 	C 	0.84719 0.82234 0.45541 -0.15900
C 	C 	0.83401 0.78090 0.42177 0.29500
C 	C 	0.80712 0.71749 0.42287 0.25000
F 	F 	0.78990 0.71428 0.52453 -0.32300
F 	F 	0.84889 0.80260 0.38827 -0.34200
F 	F 	0.84391 0.83908 0.52255 -0.33800
F 	F 	0.79568 0.67809 0.39036 -0.32800
F 	F 	0.66133 0.59489 0.43175 -0.32100
F 	F 	0.82116 0.53530 0.48619 -0.36500
C 	C 	0.81030 0.06194 0.47496 0.24900
C 	C 	0.80832 0.08450 0.44092 -0.00600
C 	C 	0.82965 0.07092 0.40930 0.25300
C 	C 	0.85416 0.03627 0.41200 0.29400
C 	C 	0.85755 0.01499 0.44638 -0.15400
C 	C 	0.83480 0.02731 0.47768 0.29400
C 	C 	0.78505 0.12338 0.43878 0.00700
F 	F 	0.82719 0.09187 0.37612 -0.32300
F 	F 	0.83802 0.00712 0.51106 -0.34200
C 	C 	0.82895 0.18975 0.44650 0.23300
C 	C 	0.80683 0.22670 0.44939 0.31500
C 	C 	0.74061 0.19746 0.44474 -0.21100
C 	C 	0.69673 0.13112 0.43472 0.31800
C 	C 	0.71889 0.09426 0.43179 0.23400
F 	F 	0.89305 0.21835 0.45266 -0.32700
F 	F 	0.63259 0.10235 0.42878 -0.36200
F 	F 	0.84979 0.29074 0.45878 -0.36400
F 	F 	0.67609 0.03016 0.42328 -0.32400
F 	F 	0.78949 0.07459 0.50563 -0.33300
F 	F 	0.87545 0.02407 0.38144 -0.33700
C 	C 	0.28824 0.10054 0.46900 0.23700
C 	C 	0.26074 0.13277 0.47075 0.00900
C 	C 	0.29959 0.19869 0.47340 0.23800
C 	C 	0.36515 0.23196 0.47303 0.32300
C 	C 	0.39238 0.19951 0.46998 -0.20100
C 	C 	0.35389 0.13381 0.46870 0.32100
C 	C 	0.19084 0.09721 0.46792 -0.00500
F 	F 	0.27353 0.23032 0.47577 -0.31900
F 	F 	0.37966 0.10194 0.46579 -0.36000
C 	C 	0.16348 0.08065 0.50106 0.25400
C 	C 	0.09714 0.04723 0.49835 0.29300
C 	C 	0.05777 0.03023 0.46247 -0.14400
C 	C 	0.08522 0.04718 0.42939 0.29600
C 	C 	0.15153 0.08053 0.43211 0.25400
F 	F 	0.20125 0.09699 0.53585 -0.32300
F 	F 	0.04746 0.03057 0.39455 -0.32900
F 	F 	0.07099 0.03122 0.53051 -0.33700
F 	F 	0.17766 0.09644 0.39993 -0.32000
F 	F 	0.25101 0.03680 0.46672 -0.32200
F 	F 	0.40229 0.29576 0.47558 -0.34800
C 	C 	0.88552 0.77270 0.98866 0.25200
C 	C 	0.91348 0.75332 0.01346 -0.00900
C 	C 	0.97039 0.79893 0.04010 0.25100
C 	C 	0.99911 0.86334 0.04188 0.29100
C 	C 	0.97256 0.88280 0.01598 -0.17900
C 	C 	0.91554 0.83709 0.98939 0.30300
C 	C 	0.88324 0.68528 0.01135 0.00100
F 	F 	0.99816 0.78076 0.06396 -0.32200
F 	F 	0.89009 0.85517 0.96364 -0.33700
C 	C 	0.87769 0.64893 0.97746 0.24000
C 	C 	0.84325 0.58335 0.97387 0.32000
C 	C 	0.81581 0.55364 0.00484 -0.19700
C 	C 	0.82542 0.59099 0.03975 0.31600
C 	C 	0.85758 0.65614 0.04261 0.23800
F 	F 	0.90460 0.67713 0.94763 -0.32500
F 	F 	0.80343 0.56408 0.07088 -0.36500
F 	F 	0.83502 0.54863 0.93994 -0.36000
F 	F 	0.86288 0.69089 0.07558 -0.31800
F 	F 	0.82949 0.72898 0.96360 -0.32000
F 	F 	0.05303 0.90695 0.06854 -0.33600
C 	C 	0.95178 0.14530 0.03496 0.25000
C 	C 	0.89582 0.11489 0.00674 -0.00700
C 	C 	0.87464 0.05933 0.98156 0.25200
C 	C 	0.91036 0.03571 0.98353 0.30700
C 	C 	0.96660 0.06627 0.01157 -0.17900
C 	C 	0.98669 0.12072 0.03762 0.29200
C 	C 	0.86207 0.14369 0.00156 -0.00000
F 	F 	0.81999 0.02894 0.95465 -0.32000
F 	F 	0.04000 0.14975 0.06547 -0.33800
C 	C 	0.86300 0.16864 0.96819 0.24100
C 	C 	0.82813 0.19255 0.96193 0.31400
C 	C 	0.79349 0.19378 0.98968 -0.19900
C 	C 	0.79355 0.16981 0.02350 0.31400
C 	C 	0.82719 0.14430 0.02920 0.23900
F 	F 	0.89730 0.16904 0.94157 -0.32600
F 	F 	0.76192 0.17213 0.05109 -0.36200
F 	F 	0.82690 0.21334 0.92848 -0.38400
F 	F 	0.82567 0.11990 0.06146 -0.32300
F 	F 	0.97287 0.19923 0.05932 -0.32500
F 	F 	0.89098 0.98369 0.95777 -0.33700
C 	C 	0.24922 0.12918 0.96095 0.24800
C 	C 	0.29626 0.14749 0.99311 0.00200
C 	C 	0.27965 0.13873 0.02976 0.24300
C 	C 	0.21616 0.11026 0.03405 0.30500
C 	C 	0.16863 0.08981 0.00170 -0.17200
C 	C 	0.18554 0.10030 0.96522 0.30600
C 	C 	0.36280 0.17520 0.98849 0.00900
F 	F 	0.32490 0.15668 0.06106 -0.32600
F 	F 	0.13992 0.08082 0.93379 -0.34300
C 	C 	0.41136 0.24001 0.00197 0.23400
C 	C 	0.47557 0.26510 0.00207 0.31300
C 	C 	0.49179 0.22561 0.98809 -0.19900
C 	C 	0.44278 0.16117 0.97303 0.31900
C 	C 	0.37858 0.13604 0.97342 0.23600
F 	F 	0.39639 0.27836 0.01606 -0.32300
F 	F 	0.45737 0.12291 0.95811 -0.36200
F 	F 	0.52220 0.32726 0.01722 -0.37300
F 	F 	0.33179 0.07334 0.95999 -0.32300
F 	F 	0.26510 0.13855 0.92553 -0.32100
F 	F 	0.20031 0.10077 0.06948 -0.33600
