data_crystal

_cell_length_a 30.80535
_cell_length_b 26.99587
_cell_length_c 40.12956
_cell_angle_alpha 103.73597
_cell_angle_beta  115.80956
_cell_angle_gamma 112.15644

_symmetry_space_group_name_	'P 1'
_symmetry_space_group_name_H-M	'P 1'

loop_
_symmetry_equiv_pos_as_xyz
  x,y,z

loop_
_atom_site_label
_atom_site_type_symbol
_atom_site_fract_x
_atom_site_fract_y
_atom_site_fract_z
_atom_site_charge
C 	C 	0.58592 0.26798 0.92739 0.02300
C 	C 	0.56215 0.21030 0.89556 -0.02100
C 	C 	0.59046 0.20227 0.87716 0.02100
C 	C 	0.63837 0.25397 0.88662 -0.02400
C 	C 	0.66498 0.31068 0.92059 0.02300
C 	C 	0.63913 0.31712 0.94138 -0.02300
C 	C 	0.56496 0.26488 0.95256 -0.06000
S 	S 	0.51798 0.15747 0.89984 -0.01400
C 	C 	0.58647 0.14696 0.85964 -0.06100
S 	S 	0.67412 0.23065 0.87361 -0.01200
C 	C 	0.70479 0.36685 0.92705 -0.06100
S 	S 	0.66312 0.39066 0.96521 -0.01200
C 	C 	0.52567 0.20470 0.94070 -0.00100
H 	H 	0.57934 0.30461 0.97918 0.04600
C 	C 	0.63073 0.15589 0.85458 -0.00000
H 	H 	0.55788 0.10449 0.85635 0.04400
C 	C 	0.70949 0.41666 0.95278 0.00200
H 	H 	0.72273 0.37001 0.90907 0.04600
C 	C 	0.78476 0.58838 0.95573 0.02500
C 	C 	0.81688 0.56241 0.96719 -0.04900
C 	C 	0.79285 0.50738 0.96762 -0.03700
C 	C 	0.73638 0.47772 0.95650 0.00700
C 	C 	0.70477 0.50465 0.94617 -0.03700
C 	C 	0.72905 0.56000 0.94602 -0.04900
H 	H 	0.86012 0.58437 0.97507 0.04300
H 	H 	0.81776 0.48723 0.97593 0.03800
H 	H 	0.66097 0.48200 0.93716 0.03900
H 	H 	0.70410 0.58002 0.93735 0.04200
C 	C 	0.38812 0.15092 0.95555 -0.01500
C 	C 	0.41205 0.20577 0.95455 -0.03000
C 	C 	0.45758 0.22401 0.95051 -0.04600
C 	C 	0.48037 0.18799 0.94808 0.01400
C 	C 	0.45769 0.13413 0.95053 -0.04700
C 	C 	0.41166 0.11559 0.95414 -0.03100
H 	H 	0.39443 0.23356 0.95590 0.03700
H 	H 	0.47403 0.26527 0.94815 0.04100
H 	H 	0.47516 0.10621 0.94904 0.03800
H 	H 	0.39352 0.07318 0.95493 0.03100
C 	C 	0.72898 0.07760 0.87288 0.01700
C 	C 	0.70690 0.08213 0.89675 -0.04800
C 	C 	0.66899 0.10157 0.88792 -0.04000
C 	C 	0.65250 0.11590 0.85486 0.00700
C 	C 	0.66909 0.10406 0.82795 -0.04000
C 	C 	0.70737 0.08515 0.83701 -0.04900
H 	H 	0.72234 0.07489 0.92393 0.03900
H 	H 	0.65595 0.10981 0.90865 0.03800
H 	H 	0.65574 0.11389 0.80187 0.03600
H 	H 	0.72318 0.08034 0.81782 0.03700
C 	C 	0.58231 0.27296 0.41527 0.02200
C 	C 	0.60801 0.24139 0.42811 -0.02400
C 	C 	0.66832 0.27205 0.45435 0.02200
C 	C 	0.70275 0.33315 0.46495 -0.02300
C 	C 	0.67724 0.36188 0.44723 0.02300
C 	C 	0.61704 0.33171 0.42252 -0.02400
C 	C 	0.52738 0.24915 0.40792 -0.06100
S 	S 	0.56370 0.18673 0.43111 -0.01400
C 	C 	0.69742 0.24144 0.45803 -0.05900
S 	S 	0.76631 0.34680 0.47671 -0.00900
C 	C 	0.70616 0.42596 0.46391 -0.06000
S 	S 	0.60075 0.38394 0.42250 -0.01200
C 	C 	0.51033 0.19848 0.41455 0.00100
H 	H 	0.50455 0.27189 0.40296 0.04700
C 	C 	0.75434 0.27885 0.47151 -0.00200
H 	H 	0.67527 0.19231 0.44482 0.04500
C 	C 	0.66844 0.44576 0.45264 0.00100
H 	H 	0.75266 0.45657 0.48283 0.04700
C 	C 	0.73903 0.60715 0.44452 0.02500
C 	C 	0.69979 0.55044 0.40764 -0.04900
C 	C 	0.67219 0.49753 0.40942 -0.03700
C 	C 	0.68367 0.50106 0.44813 0.00700
C 	C 	0.71940 0.55834 0.48426 -0.03800
C 	C 	0.74682 0.61127 0.48243 -0.04900
H 	H 	0.69297 0.54701 0.37811 0.04100
H 	H 	0.64467 0.45353 0.38131 0.03900
H 	H 	0.72833 0.56156 0.51423 0.03900
H 	H 	0.77646 0.65507 0.51093 0.04500
C 	C 	0.38390 0.13605 0.43965 0.02400
C 	C 	0.42366 0.19882 0.45817 -0.04800
C 	C 	0.46521 0.21943 0.45021 -0.03800
C 	C 	0.46700 0.17733 0.42337 0.00700
C 	C 	0.42818 0.11456 0.40576 -0.03800
C 	C 	0.38668 0.09400 0.41377 -0.05000
H 	H 	0.42171 0.23159 0.47815 0.04200
H 	H 	0.49592 0.26800 0.46486 0.03900
H 	H 	0.42966 0.08172 0.38541 0.03600
H 	H 	0.35603 0.04545 0.39928 0.03700
C 	C 	0.84246 0.20346 0.44554 -0.01500
C 	C 	0.78922 0.18839 0.41227 -0.03100
C 	C 	0.76082 0.21397 0.42056 -0.04800
C 	C 	0.78556 0.25490 0.46218 0.01500
C 	C 	0.83989 0.27208 0.49511 -0.04700
C 	C 	0.86815 0.24631 0.48690 -0.02900
H 	H 	0.76930 0.15585 0.38019 0.03200
H 	H 	0.71932 0.20142 0.39480 0.04000
H 	H 	0.85955 0.30423 0.52723 0.04100
H 	H 	0.90916 0.25813 0.51283 0.03700
C 	C 	0.46171 0.76354 0.99300 0.02100
C 	C 	0.46508 0.81822 0.00894 -0.02100
C 	C 	0.44951 0.82958 0.03656 0.02300
C 	C 	0.42503 0.78296 0.04507 -0.02200
C 	C 	0.41651 0.72595 0.02615 0.02200
C 	C 	0.43949 0.71832 0.00309 -0.02000
C 	C 	0.49918 0.76875 0.98051 -0.05800
S 	S 	0.51482 0.87169 0.00889 -0.00400
C 	C 	0.43319 0.87199 0.04190 -0.05800
S 	S 	0.38253 0.79361 0.05675 -0.00800
C 	C 	0.37219 0.66998 0.01682 -0.05800
S 	S 	0.40380 0.64359 0.97129 -0.01100
C 	C 	0.53119 0.82764 0.98678 0.00000
H 	H 	0.50644 0.73322 0.97130 0.04600
C 	C 	0.39556 0.85796 0.05396 0.00100
H 	H 	0.43964 0.90406 0.02987 0.04900
C 	C 	0.35989 0.61937 0.98581 0.00100
H 	H 	0.34948 0.66677 0.03138 0.04700
C 	C 	0.25701 0.43710 0.96032 0.02400
C 	C 	0.23371 0.47272 0.95546 -0.04900
C 	C 	0.26693 0.53170 0.96280 -0.03800
C 	C 	0.32372 0.55555 0.97498 0.00800
C 	C 	0.34664 0.51939 0.97898 -0.03700
C 	C 	0.31346 0.46046 0.97182 -0.04900
H 	H 	0.19020 0.45505 0.94663 0.04200
H 	H 	0.24874 0.55912 0.95945 0.03800
H 	H 	0.39056 0.53744 0.98870 0.03900
H 	H 	0.33186 0.43332 0.97583 0.04200
C 	C 	0.67800 0.89730 0.98254 0.02600
C 	C 	0.66455 0.85069 0.99343 -0.04800
C 	C 	0.61731 0.82850 0.99552 -0.03700
C 	C 	0.58202 0.85153 0.98555 0.00900
C 	C 	0.59554 0.89808 0.97457 -0.03500
C 	C 	0.64345 0.92106 0.97332 -0.04800
H 	H 	0.69079 0.83179 0.00035 0.04500
H 	H 	0.60855 0.79388 0.00522 0.03900
H 	H 	0.56857 0.91604 0.96656 0.04200
H 	H 	0.65331 0.95682 0.96467 0.04500
C 	C 	0.27448 0.91047 0.01798 0.01500
C 	C 	0.33237 0.95370 0.05227 -0.01800
C 	C 	0.37169 0.93617 0.06465 -0.04900
C 	C 	0.35326 0.87525 0.04298 0.01300
C 	C 	0.29510 0.83192 0.00898 -0.03700
C 	C 	0.25587 0.84944 0.99670 -0.04600
H 	H 	0.34706 0.00096 0.06878 0.01600
H 	H 	0.41656 0.97002 0.09071 0.04600
H 	H 	0.28057 0.78502 0.99147 0.04000
H 	H 	0.21123 0.81585 0.97013 0.04200
C 	C 	0.48972 0.77288 0.51366 0.02400
C 	C 	0.49315 0.82758 0.52973 -0.02400
C 	C 	0.46607 0.83293 0.54963 0.02500
C 	C 	0.43264 0.78185 0.55110 -0.02300
C 	C 	0.42261 0.72501 0.52992 0.02300
C 	C 	0.45122 0.72077 0.51120 -0.02300
C 	C 	0.53776 0.78128 0.51317 -0.06000
S 	S 	0.55541 0.88454 0.54403 -0.00400
C 	C 	0.45038 0.87609 0.55330 -0.06000
S 	S 	0.38452 0.79050 0.55552 -0.00800
C 	C 	0.40318 0.67633 0.53854 -0.05900
S 	S 	0.45378 0.65921 0.50703 -0.01000
C 	C 	0.57918 0.84280 0.52998 0.00200
H 	H 	0.54167 0.74423 0.50065 0.04700
C 	C 	0.40480 0.85859 0.55751 0.00200
H 	H 	0.46411 0.91203 0.54540 0.05000
C 	C 	0.41810 0.63526 0.52755 -0.00100
H 	H 	0.37962 0.67153 0.55248 0.04800
C 	C 	0.31297 0.45053 0.49629 -0.01500
C 	C 	0.35732 0.49519 0.53860 -0.03000
C 	C 	0.39288 0.55523 0.54868 -0.04700
C 	C 	0.38463 0.57099 0.51655 0.01500
C 	C 	0.34088 0.52609 0.47416 -0.04600
C 	C 	0.30518 0.46606 0.46407 -0.03000
H 	H 	0.36359 0.48359 0.56367 0.03500
H 	H 	0.42625 0.58970 0.58149 0.04000
H 	H 	0.33366 0.53799 0.44913 0.04300
H 	H 	0.27112 0.43183 0.43131 0.03800
C 	C 	0.70460 0.90054 0.50340 0.03000
C 	C 	0.70304 0.86436 0.52334 -0.04900
C 	C 	0.66230 0.84590 0.53225 -0.03600
C 	C 	0.62290 0.86365 0.52139 0.00800
C 	C 	0.62482 0.90031 0.50169 -0.03500
C 	C 	0.66572 0.91889 0.49294 -0.04900
H 	H 	0.73296 0.85000 0.53150 0.04700
H 	H 	0.66130 0.81776 0.54753 0.03900
H 	H 	0.59409 0.91353 0.49250 0.04200
H 	H 	0.66656 0.94667 0.47738 0.04600
C 	C 	0.28462 0.91099 0.51366 0.02500
C 	C 	0.27146 0.85466 0.48798 -0.04700
C 	C 	0.31107 0.83792 0.50202 -0.03700
C 	C 	0.36388 0.87704 0.54215 0.00900
C 	C 	0.37749 0.93383 0.56756 -0.03700
C 	C 	0.33790 0.95072 0.55340 -0.04800
H 	H 	0.23045 0.82380 0.45721 0.04300
H 	H 	0.30068 0.79451 0.48178 0.04100
H 	H 	0.41842 0.96456 0.59839 0.04200
H 	H 	0.34845 0.99441 0.57335 0.04400
Zn	Zn	0.13639 0.12696 0.99128 1.18200
Zn	Zn	0.03837 0.07115 0.90093 1.19000
O 	O 	0.03517 0.96863 0.83788 -0.43800
O 	O 	0.00932 0.03801 0.83932 -0.43400
O 	O 	0.04901 0.90906 0.90547 -0.49300
C 	C 	0.19107 0.08860 0.95984 0.32600
O 	O 	0.98919 0.98862 0.88987 -0.86700
C 	C 	0.13557 0.20505 0.95077 0.30600
O 	O 	0.20107 0.12507 0.99423 -0.46900
O 	O 	0.13797 0.05193 0.92550 -0.38500
O 	O 	0.05796 0.08699 0.95967 -0.78400
O 	O 	0.09012 0.99235 0.96648 -0.44800
O 	O 	0.09331 0.15503 0.91384 -0.45200
O 	O 	0.15443 0.20305 0.98659 -0.46200
Zn	Zn	0.88803 0.89017 0.90954 1.17700
Zn	Zn	0.99027 0.93729 0.99288 1.19100
Zn	Zn	0.01036 0.00416 0.94586 1.21000
C 	C 	0.89158 0.80899 0.94890 0.31000
C 	C 	0.85520 0.93913 0.95681 0.31100
O 	O 	0.93074 0.01921 0.92565 -0.46900
Zn	Zn	0.99066 0.04737 0.01481 1.19700
O 	O 	0.94636 0.85156 0.97999 -0.45300
O 	O 	0.86325 0.81410 0.91540 -0.46200
O 	O 	0.83768 0.90965 0.91781 -0.47500
O 	O 	0.90687 0.95701 0.98812 -0.47100
C 	C 	0.02384 0.01308 0.08071 0.26800
O 	O 	0.96384 0.92135 0.93258 -0.79000
C 	C 	0.92409 0.05774 0.94698 0.30500
O 	O 	0.02040 0.96757 0.05558 -0.40100
O 	O 	0.02059 0.05564 0.07117 -0.45500
O 	O 	0.95281 0.08127 0.98808 -0.49300
O 	O 	0.03065 0.01954 0.00147 -0.90000
Zn	Zn	0.01293 0.93951 0.87235 1.18800
C 	C 	0.02124 0.00208 0.82191 0.26300
C 	C 	0.08936 0.94557 0.94605 0.31300
H 	H 	0.07262 0.04355 0.02397 0.15900
H 	H 	0.94758 0.97083 0.86938 0.15300
Zn	Zn	0.15738 0.12589 0.50080 1.18400
Zn	Zn	0.06183 0.08252 0.41229 1.19400
O 	O 	0.04626 0.97694 0.34180 -0.43500
O 	O 	0.03144 0.05481 0.35052 -0.42700
O 	O 	0.05587 0.91017 0.40489 -0.49200
C 	C 	0.20176 0.08534 0.46049 0.30000
O 	O 	0.00609 0.00013 0.39740 -0.90000
C 	C 	0.16639 0.21241 0.46732 0.33800
O 	O 	0.21614 0.11708 0.49806 -0.46500
O 	O 	0.14769 0.05452 0.42776 -0.39400
O 	O 	0.08024 0.09351 0.47015 -0.78400
O 	O 	0.09925 0.98907 0.46893 -0.44800
O 	O 	0.12355 0.16542 0.42909 -0.45500
O 	O 	0.18251 0.20592 0.50141 -0.46800
Zn	Zn	0.89917 0.91032 0.41462 1.17700
Zn	Zn	0.99553 0.93839 0.49388 1.19100
Zn	Zn	0.02613 0.01097 0.45241 1.21200
C 	C 	0.88457 0.81934 0.44596 0.31000
C 	C 	0.87313 0.96028 0.46716 0.31400
O 	O 	0.95619 0.03972 0.43810 -0.48100
Zn	Zn	0.01234 0.05672 0.52423 1.19800
O 	O 	0.94069 0.85289 0.47599 -0.45300
O 	O 	0.86189 0.83119 0.41491 -0.46400
O 	O 	0.85817 0.94114 0.42832 -0.47400
O 	O 	0.92327 0.97313 0.49720 -0.46200
C 	C 	0.03554 0.01227 0.58464 0.27000
O 	O 	0.97165 0.92857 0.43504 -0.78900
C 	C 	0.96013 0.08555 0.46304 0.34400
O 	O 	0.02404 0.96326 0.55610 -0.39900
O 	O 	0.04130 0.05992 0.57902 -0.45400
O 	O 	0.98451 0.10129 0.50311 -0.49800
O 	O 	0.04508 0.02121 0.50701 -0.90300
Zn	Zn	0.02385 0.94692 0.37584 1.19100
C 	C 	0.03655 0.01478 0.32910 0.26500
C 	C 	0.09636 0.94273 0.44567 0.31300
H 	H 	0.08644 0.03986 0.52891 0.16100
H 	H 	0.96554 0.98677 0.37770 0.16800
C 	C 	0.03962 0.01138 0.68951 0.08000
N 	N 	0.03176 0.96298 0.66169 -0.06300
N 	N 	0.03273 0.96410 0.62897 -0.04900
C 	C 	0.04213 0.01388 0.62342 0.02000
N 	N 	0.05134 0.06276 0.65181 -0.06400
N 	N 	0.05003 0.06150 0.68435 -0.07700
C 	C 	0.02398 0.00321 0.78651 0.01800
N 	N 	0.02419 0.04780 0.77641 -0.06400
N 	N 	0.02946 0.05054 0.74554 -0.07700
C 	C 	0.03440 0.00859 0.72378 0.08000
N 	N 	0.03380 0.96375 0.73370 -0.06400
N 	N 	0.02898 0.96130 0.76479 -0.05400
C 	C 	0.03830 0.01822 0.22638 0.07900
N 	N 	0.04133 0.97503 0.23716 -0.06400
N 	N 	0.04041 0.97377 0.26984 -0.05400
C 	C 	0.03613 0.01545 0.29253 0.01700
N 	N 	0.03304 0.05863 0.28175 -0.06200
N 	N 	0.03411 0.06000 0.24912 -0.07700
C 	C 	0.03311 0.01741 0.12064 0.01800
N 	N 	0.03534 0.06299 0.14614 -0.06500
N 	N 	0.03795 0.06379 0.18029 -0.07800
C 	C 	0.03832 0.01897 0.18991 0.07900
N 	N 	0.03700 0.97386 0.16478 -0.06400
N 	N 	0.03424 0.97299 0.13054 -0.05000
C 	C 	0.27382 0.38793 0.48586 0.05800
C 	C 	0.29483 0.35099 0.49317 -0.09200
C 	C 	0.25895 0.29321 0.48601 0.05000
C 	C 	0.20159 0.27160 0.47155 -0.14700
C 	C 	0.17962 0.30825 0.46327 0.14900
C 	C 	0.21613 0.36624 0.47035 -0.12600
H 	H 	0.27595 0.26532 0.49216 0.02100
H 	H 	0.19998 0.39494 0.46465 0.06200
H 	H 	0.33925 0.36737 0.50487 0.05200
N 	N 	0.12427 0.28874 0.44941 -0.20800
H 	H 	0.09629 0.24644 0.44449 0.08000
H 	H 	0.10865 0.31626 0.44355 0.08200
C 	C 	0.82800 0.94804 0.47426 -0.07400
C 	C 	0.84181 0.98628 0.51265 0.01600
C 	C 	0.80085 0.97115 0.52144 -0.01800
C 	C 	0.74566 0.91736 0.49209 -0.03600
C 	C 	0.73092 0.87909 0.45278 0.07900
C 	C 	0.77231 0.89510 0.44415 -0.04100
H 	H 	0.81231 0.00076 0.55146 0.02500
H 	H 	0.76165 0.86531 0.41451 0.04400
H 	H 	0.88462 0.02735 0.53598 0.01900
N 	N 	0.67762 0.82682 0.42354 -0.19600
H 	H 	0.64562 0.81383 0.42870 0.08700
H 	H 	0.66755 0.79851 0.39493 0.08000
C 	C 	0.14541 0.93614 0.46358 -0.07900
C 	C 	0.16320 0.92858 0.49953 -0.00300
C 	C 	0.21059 0.92345 0.51707 -0.04000
C 	C 	0.24156 0.92726 0.49943 -0.03100
C 	C 	0.22635 0.93952 0.46501 0.08000
C 	C 	0.17697 0.94162 0.44639 -0.04000
H 	H 	0.22241 0.91490 0.54376 0.04000
H 	H 	0.16413 0.94935 0.41931 0.04900
H 	H 	0.13964 0.92551 0.51343 0.01800
N 	N 	0.25972 0.95092 0.45059 -0.19500
H 	H 	0.29913 0.95468 0.46600 0.09100
H 	H 	0.24767 0.95900 0.42476 0.09200
C 	C 	0.16406 0.26405 0.95187 -0.06600
C 	C 	0.19132 0.31892 0.98774 -0.00900
C 	C 	0.22101 0.37486 0.98997 -0.03800
C 	C 	0.22374 0.37701 0.95632 -0.03300
C 	C 	0.19516 0.32183 0.91945 0.08000
C 	C 	0.16585 0.26567 0.91772 -0.04800
H 	H 	0.24232 0.41681 0.01809 0.03900
H 	H 	0.14500 0.22338 0.88998 0.05800
H 	H 	0.18966 0.31828 0.01407 0.03500
N 	N 	0.19532 0.32239 0.88568 -0.19700
H 	H 	0.21485 0.36315 0.88531 0.08800
H 	H 	0.17482 0.28147 0.85892 0.08800
C 	C 	0.81257 0.93810 0.96510 -0.06700
C 	C 	0.75662 0.91648 0.93155 -0.00300
C 	C 	0.71363 0.90610 0.93793 -0.03600
C 	C 	0.72613 0.91848 0.97813 -0.03300
C 	C 	0.78387 0.94648 0.01304 0.08400
C 	C 	0.82651 0.95500 0.00607 -0.04600
H 	H 	0.66997 0.88639 0.91125 0.03900
H 	H 	0.87026 0.97436 0.03250 0.05700
H 	H 	0.74586 0.90581 0.90013 0.03900
N 	N 	0.79874 0.96623 0.05314 -0.19700
H 	H 	0.76936 0.96586 0.05969 0.09200
H 	H 	0.84093 0.98470 0.07852 0.09400
C 	C 	0.13995 0.94192 0.96639 -0.08300
C 	C 	0.15935 0.93986 0.00441 0.00100
C 	C 	0.20563 0.93307 0.02251 -0.04400
C 	C 	0.23363 0.92937 0.00314 -0.02300
C 	C 	0.21719 0.93653 0.96659 0.07600
C 	C 	0.16931 0.94106 0.94784 -0.03700
H 	H 	0.21859 0.92869 0.05089 0.04200
H 	H 	0.15565 0.94517 0.91931 0.04900
H 	H 	0.13750 0.94170 0.01931 0.01700
N 	N 	0.24788 0.94047 0.95004 -0.19400
H 	H 	0.28581 0.94123 0.96483 0.09000
H 	H 	0.23515 0.94527 0.92287 0.09000
C 	C 	0.86840 0.16996 0.43799 0.05700
C 	C 	0.83829 0.10668 0.42260 -0.09500
C 	C 	0.86728 0.07700 0.42553 0.04600
C 	C 	0.92681 0.11046 0.44460 -0.16400
C 	C 	0.95548 0.17253 0.45474 0.14700
C 	C 	0.92601 0.20210 0.45167 -0.12800
H 	H 	0.84443 0.02891 0.41618 0.01700
H 	H 	0.94853 0.25050 0.46159 0.06100
H 	H 	0.79335 0.08118 0.41097 0.04900
N 	N 	0.01123 0.20388 0.46783 -0.21000
H 	H 	0.03287 0.18195 0.46788 0.06500
H 	H 	0.03284 0.25028 0.47665 0.07900
C 	C 	0.84733 0.76426 0.44485 -0.06700
C 	C 	0.79176 0.74809 0.43268 -0.00500
C 	C 	0.75677 0.69680 0.43262 -0.03700
C 	C 	0.77669 0.66076 0.44448 -0.03200
C 	C 	0.83261 0.67637 0.45634 0.07900
C 	C 	0.86766 0.72850 0.45674 -0.04300
H 	H 	0.71411 0.68513 0.42349 0.03800
H 	H 	0.91045 0.74073 0.46583 0.05000
H 	H 	0.77594 0.77580 0.42382 0.03400
N 	N 	0.85265 0.64146 0.46703 -0.19600
H 	H 	0.82725 0.60152 0.46595 0.08800
H 	H 	0.89414 0.65381 0.47615 0.08300
C 	C 	0.24670 0.09169 0.45401 -0.07000
C 	C 	0.23750 0.08656 0.41557 -0.01000
C 	C 	0.28165 0.09809 0.41049 -0.03700
C 	C 	0.33559 0.11463 0.44361 -0.03500
C 	C 	0.34399 0.11558 0.48147 0.07400
C 	C 	0.29944 0.10478 0.48654 -0.04700
H 	H 	0.27460 0.09624 0.38118 0.04100
H 	H 	0.30576 0.10621 0.51561 0.04500
H 	H 	0.19667 0.07566 0.39003 0.04600
N 	N 	0.39403 0.12581 0.51257 -0.19600
H 	H 	0.42655 0.13057 0.50875 0.08300
H 	H 	0.40014 0.12731 0.54063 0.07700
C 	C 	0.87657 0.06522 0.92417 -0.07800
C 	C 	0.82248 0.01458 0.88855 -0.02000
C 	C 	0.77472 0.01922 0.87151 -0.06100
C 	C 	0.78072 0.07489 0.88919 -0.02600
C 	C 	0.83614 0.12736 0.92321 0.07300
C 	C 	0.88345 0.12167 0.94087 -0.04300
H 	H 	0.73272 0.97917 0.84503 0.05300
H 	H 	0.92555 0.16114 0.96783 0.04300
H 	H 	0.81694 0.97104 0.87495 0.03600
N 	N 	0.84421 0.18311 0.93876 -0.19500
H 	H 	0.81090 0.18981 0.92461 0.08800
H 	H 	0.88489 0.22109 0.96466 0.08100
C 	C 	0.86299 0.75233 0.95003 -0.06700
C 	C 	0.87404 0.75463 0.98832 -0.00500
C 	C 	0.84708 0.70111 0.98962 -0.03500
C 	C 	0.80899 0.64446 0.95272 -0.03200
C 	C 	0.79719 0.64173 0.91375 0.07700
C 	C 	0.82421 0.69600 0.91279 -0.04400
H 	H 	0.85634 0.70354 0.01950 0.04200
H 	H 	0.81569 0.69419 0.88316 0.04300
H 	H 	0.90336 0.79803 0.01713 0.04500
N 	N 	0.76059 0.58743 0.87742 -0.19600
H 	H 	0.74010 0.54621 0.87700 0.08600
H 	H 	0.75229 0.58601 0.84891 0.07900
C 	C 	0.33593 0.12855 0.95501 0.05600
C 	C 	0.28548 0.11794 0.92163 -0.09200
C 	C 	0.23778 0.10265 0.92279 0.04500
C 	C 	0.23952 0.09723 0.95721 -0.14800
C 	C 	0.28885 0.10329 0.98960 0.14700
C 	C 	0.33728 0.12026 0.98860 -0.12800
H 	H 	0.19990 0.09688 0.89743 0.02900
H 	H 	0.37587 0.12698 0.01390 0.06000
H 	H 	0.28373 0.12299 0.89516 0.05400
N 	N 	0.28928 0.09090 0.02064 -0.20700
H 	H 	0.25225 0.07241 0.01997 0.08800
H 	H 	0.32622 0.09661 0.04474 0.07900
