data_crystal

_cell_length_a 26.29042
_cell_length_b 26.43463
_cell_length_c 35.01576
_cell_angle_alpha 95.49641
_cell_angle_beta  95.49487
_cell_angle_gamma 125.82992

_symmetry_space_group_name_	'P 1'
_symmetry_space_group_name_H-M	'P 1'

loop_
_symmetry_equiv_pos_as_xyz
  x,y,z

loop_
_atom_site_label
_atom_site_type_symbol
_atom_site_fract_x
_atom_site_fract_y
_atom_site_fract_z
_atom_site_charge
C 	C 	0.95546 0.01643 0.99358 0.03200
C 	C 	0.91826 0.95097 0.99365 -0.07600
C 	C 	0.94454 0.91797 0.98881 0.03200
C 	C 	0.00804 0.95045 0.98370 -0.07500
C 	C 	0.04551 0.01585 0.98373 0.03300
C 	C 	0.01922 0.04887 0.98873 -0.07500
H 	H 	0.86901 0.92581 0.99738 0.05300
H 	H 	0.02839 0.92495 0.97993 0.05400
H 	H 	0.04819 0.09950 0.98885 0.05400
C 	C 	0.94819 0.01700 0.46110 0.03400
C 	C 	0.01339 0.05213 0.45948 -0.07500
C 	C 	0.04489 0.02409 0.46275 0.03500
C 	C 	0.01094 0.96057 0.46727 -0.07500
C 	C 	0.94563 0.92499 0.46845 0.03400
C 	C 	0.91417 0.95318 0.46526 -0.07600
H 	H 	0.03957 0.10124 0.45589 0.05400
H 	H 	0.03530 0.93888 0.46992 0.05400
H 	H 	0.86377 0.92590 0.46652 0.05400
Cu	Cu	0.62598 0.22658 0.00195 0.93000
Cu	Cu	0.68547 0.23365 0.92291 0.88000
Cu	Cu	0.65983 0.32484 0.95004 0.89900
Cu	Cu	0.62006 0.34058 0.02457 0.89800
C 	C 	0.63724 0.27331 0.08232 0.34200
O 	O 	0.53147 0.18571 0.99829 -0.35700
C 	C 	0.65649 0.28837 0.86660 0.33500
O 	O 	0.67473 0.32492 0.00475 -0.64000
O 	O 	0.62075 0.23251 0.94595 -0.63800
O 	O 	0.66799 0.18359 0.00269 -0.36000
O 	O 	0.74169 0.25192 0.96911 -0.42800
O 	O 	0.60689 0.29631 0.06992 -0.38700
O 	O 	0.70383 0.41573 0.95723 -0.37400
C 	C 	0.69781 0.44984 0.98398 0.29400
C 	C 	0.50544 0.21062 0.98247 0.28400
O 	O 	0.54217 0.26973 0.97752 -0.39000
O 	O 	0.65550 0.42309 0.00707 -0.38900
O 	O 	0.64436 0.23764 0.05774 -0.33900
C 	C 	0.72338 0.20969 0.99173 0.29800
O 	O 	0.65296 0.32462 0.89341 -0.37800
O 	O 	0.65045 0.23730 0.87390 -0.38800
H 	H 	0.72011 0.35414 0.01795 0.17800
H 	H 	0.57744 0.20408 0.92957 0.17800
Cu	Cu	0.74414 0.35143 0.45320 0.93000
Cu	Cu	0.74144 0.29924 0.53482 0.87600
Cu	Cu	0.64276 0.31369 0.50365 0.90000
Cu	Cu	0.62623 0.35129 0.42804 0.89900
C 	C 	0.69736 0.33613 0.37200 0.33800
O 	O 	0.78229 0.44448 0.45512 -0.35000
C 	C 	0.68532 0.33041 0.58886 0.33600
O 	O 	0.64489 0.29995 0.44932 -0.64000
O 	O 	0.73685 0.35814 0.50894 -0.64000
O 	O 	0.78922 0.31152 0.45462 -0.36600
O 	O 	0.72281 0.24043 0.49021 -0.43400
O 	O 	0.67144 0.36417 0.38300 -0.35800
O 	O 	0.55083 0.26545 0.49473 -0.36600
C 	C 	0.51615 0.27064 0.46775 0.28900
C 	C 	0.75513 0.46890 0.46968 0.28500
O 	O 	0.69571 0.43106 0.47444 -0.38600
O 	O 	0.54296 0.31432 0.44563 -0.38500
O 	O 	0.73425 0.33162 0.39761 -0.35700
C 	C 	0.76392 0.25734 0.46671 0.28900
O 	O 	0.63911 0.31396 0.55985 -0.35400
O 	O 	0.73748 0.33753 0.58226 -0.41700
H 	H 	0.61736 0.25477 0.43619 0.17000
H 	H 	0.76292 0.40188 0.52438 0.17700
C 	C 	0.61294 0.28752 0.67926 -0.14400
C 	C 	0.66611 0.33248 0.70859 0.01400
C 	C 	0.72296 0.38161 0.69826 0.28300
C 	C 	0.72789 0.38310 0.65891 -0.06000
C 	C 	0.67605 0.33567 0.62953 -0.14900
C 	C 	0.61773 0.28904 0.63987 0.36400
C 	C 	0.66487 0.32321 0.74948 0.01100
F 	F 	0.77418 0.42648 0.72640 -0.42700
H 	H 	0.77265 0.41998 0.65126 0.08500
F 	F 	0.56693 0.24301 0.61188 -0.44700
H 	H 	0.56876 0.24973 0.68700 0.11800
C 	C 	0.62832 0.33289 0.77146 0.28600
C 	C 	0.62586 0.32193 0.80983 -0.05700
C 	C 	0.65972 0.30099 0.82642 -0.14700
C 	C 	0.69680 0.29202 0.80445 0.36500
C 	C 	0.69909 0.30288 0.76617 -0.14200
F 	F 	0.59521 0.35284 0.75566 -0.42600
H 	H 	0.59710 0.32897 0.82645 0.09100
F 	F 	0.73140 0.27373 0.82042 -0.46000
H 	H 	0.72738 0.29531 0.74938 0.11500
C 	C 	0.71978 0.29957 0.18451 -0.14800
C 	C 	0.67189 0.28555 0.20588 0.01300
C 	C 	0.61132 0.26321 0.18621 0.29200
C 	C 	0.59951 0.25728 0.14567 -0.05900
C 	C 	0.64804 0.27349 0.12438 -0.14500
C 	C 	0.70786 0.29330 0.14385 0.36600
C 	C 	0.68682 0.29997 0.24892 0.01000
F 	F 	0.56453 0.24916 0.20658 -0.42400
H 	H 	0.55289 0.24097 0.13084 0.09100
F 	F 	0.75511 0.30876 0.12359 -0.44900
H 	H 	0.76661 0.31674 0.19950 0.11400
C 	C 	0.66665 0.25093 0.27021 0.29600
C 	C 	0.67283 0.26346 0.31082 -0.06100
C 	C 	0.69860 0.32482 0.33029 -0.14300
C 	C 	0.72155 0.37441 0.30918 0.37100
C 	C 	0.71572 0.36196 0.26867 -0.14800
F 	F 	0.63939 0.19090 0.25143 -0.42200
H 	H 	0.65567 0.22509 0.32695 0.08400
F 	F 	0.74867 0.43447 0.32787 -0.44400
H 	H 	0.73190 0.40012 0.25246 0.11100
C 	C 	0.84135 0.74627 0.44250 -0.03700
C 	C 	0.85856 0.73123 0.47641 0.00400
C 	C 	0.89954 0.77946 0.50902 -0.03700
C 	C 	0.92532 0.84260 0.50715 -0.03400
C 	C 	0.91031 0.85798 0.47265 -0.00200
C 	C 	0.86711 0.80942 0.44064 -0.03400
C 	C 	0.83610 0.66553 0.47706 0.02700
H 	H 	0.91273 0.76823 0.53541 0.04400
H 	H 	0.95845 0.87979 0.53207 0.04200
H 	H 	0.85520 0.82084 0.41391 0.04300
H 	H 	0.80914 0.70922 0.41733 0.04700
C 	C 	0.79416 0.63035 0.50179 -0.06100
C 	C 	0.77003 0.56688 0.50074 0.01300
C 	C 	0.78755 0.53799 0.47486 -0.08100
C 	C 	0.83156 0.57411 0.45125 0.01700
C 	C 	0.85561 0.63753 0.45232 -0.05900
H 	H 	0.77936 0.65180 0.52127 0.05100
H 	H 	0.73683 0.53987 0.51951 0.03800
H 	H 	0.84554 0.55255 0.43115 0.05700
H 	H 	0.88865 0.66463 0.43349 0.05500
C 	C 	0.90980 0.13159 0.48693 -0.03800
C 	C 	0.86296 0.11366 0.45462 0.00300
C 	C 	0.84206 0.06200 0.42521 -0.03700
C 	C 	0.86868 0.02926 0.42780 -0.03300
C 	C 	0.91632 0.04795 0.45982 -0.00200
C 	C 	0.93633 0.09887 0.48953 -0.03500
C 	C 	0.83518 0.14845 0.45200 0.02800
H 	H 	0.80569 0.04763 0.40025 0.04600
H 	H 	0.85306 0.99012 0.40466 0.04200
H 	H 	0.97290 0.11346 0.51443 0.04100
H 	H 	0.92566 0.17091 0.51000 0.04100
C 	C 	0.77092 0.11826 0.45470 -0.06400
C 	C 	0.74666 0.15321 0.45735 0.01600
C 	C 	0.78654 0.21881 0.45746 -0.09000
C 	C 	0.84992 0.24824 0.45256 0.01600
C 	C 	0.87413 0.21320 0.44990 -0.06400
H 	H 	0.74033 0.06816 0.45598 0.05100
H 	H 	0.69733 0.12964 0.46034 0.03600
H 	H 	0.88113 0.29867 0.45233 0.03900
H 	H 	0.92363 0.23674 0.44733 0.05100
C 	C 	0.35423 0.17218 0.49706 -0.05700
C 	C 	0.31450 0.16518 0.46398 0.02700
C 	C 	0.34084 0.19187 0.43191 -0.06000
C 	C 	0.40644 0.22557 0.43295 0.01300
C 	C 	0.44652 0.23340 0.46626 -0.07600
C 	C 	0.41990 0.20621 0.49827 0.01400
C 	C 	0.24533 0.13005 0.46299 0.00500
H 	H 	0.31051 0.18670 0.40624 0.05100
H 	H 	0.42605 0.24553 0.40786 0.03800
H 	H 	0.45007 0.21194 0.52422 0.06400
H 	H 	0.33422 0.15134 0.52185 0.05600
C 	C 	0.20138 0.07573 0.43421 -0.03800
C 	C 	0.13589 0.04177 0.43373 -0.03300
C 	C 	0.11382 0.06159 0.46217 -0.00200
C 	C 	0.15775 0.11622 0.49075 -0.03300
C 	C 	0.22321 0.15041 0.49108 -0.03700
H 	H 	0.21801 0.05959 0.41244 0.04500
H 	H 	0.10232 0.99984 0.41143 0.04200
H 	H 	0.14117 0.13177 0.51290 0.04200
H 	H 	0.25677 0.19255 0.51324 0.04600
C 	C 	0.82813 0.61924 0.97676 -0.06100
C 	C 	0.80008 0.64936 0.98605 0.02900
C 	C 	0.73820 0.61383 0.99430 -0.06200
C 	C 	0.70469 0.54867 0.99353 0.01800
C 	C 	0.73279 0.51843 0.98438 -0.08200
C 	C 	0.79462 0.55404 0.97586 0.01900
C 	C 	0.83577 0.71821 0.98752 0.00400
H 	H 	0.71620 0.63676 0.00149 0.05000
H 	H 	0.65679 0.52168 0.99977 0.03900
H 	H 	0.81696 0.53138 0.96897 0.03900
H 	H 	0.87589 0.64636 0.97028 0.05300
C 	C 	0.88993 0.76125 0.01669 -0.03800
C 	C 	0.92468 0.82654 0.01759 -0.03600
C 	C 	0.90568 0.84931 0.98922 -0.00000
C 	C 	0.85099 0.80627 0.96035 -0.03400
C 	C 	0.81612 0.74096 0.95954 -0.03600
H 	H 	0.90517 0.74408 0.03857 0.04400
H 	H 	0.96662 0.85942 0.04013 0.04200
H 	H 	0.83607 0.82339 0.93825 0.04300
H 	H 	0.77430 0.70802 0.93693 0.04700
C 	C 	0.89057 0.10734 0.97004 -0.03600
C 	C 	0.86573 0.10862 0.00356 0.00200
C 	C 	0.87264 0.08174 0.03446 -0.03600
C 	C 	0.90327 0.05293 0.03159 -0.03600
C 	C 	0.92711 0.05066 0.99776 0.00000
C 	C 	0.92112 0.07849 0.96715 -0.03600
C 	C 	0.83086 0.13645 0.00573 0.03000
H 	H 	0.85394 0.08280 0.06054 0.04600
H 	H 	0.90795 0.03186 0.05547 0.04300
H 	H 	0.93912 0.07676 0.94086 0.04200
H 	H 	0.88531 0.12781 0.94598 0.04300
C 	C 	0.86205 0.20086 0.00413 -0.06200
C 	C 	0.82748 0.22562 0.00163 0.01900
C 	C 	0.76126 0.18613 0.00061 -0.08600
C 	C 	0.73070 0.12243 0.00430 0.01900
C 	C 	0.76535 0.09769 0.00675 -0.06300
H 	H 	0.91281 0.23139 0.00392 0.05200
H 	H 	0.85190 0.27514 0.99959 0.04200
H 	H 	0.67974 0.09144 0.00373 0.04100
H 	H 	0.74091 0.04796 0.00821 0.05200
C 	C 	0.19147 0.06074 0.94279 -0.03700
C 	C 	0.24022 0.10169 0.97526 0.00400
C 	C 	0.22533 0.11851 0.00938 -0.03800
C 	C 	0.16189 0.09272 0.01152 -0.03500
C 	C 	0.11285 0.04987 0.97958 -0.00000
C 	C 	0.12800 0.03490 0.94494 -0.03500
C 	C 	0.30640 0.12482 0.97417 0.02700
H 	H 	0.26277 0.15063 0.03446 0.04500
H 	H 	0.15066 0.10456 0.03837 0.04300
H 	H 	0.09046 0.00205 0.92007 0.04300
H 	H 	0.20257 0.04778 0.91625 0.04400
C 	C 	0.33535 0.10570 0.99848 -0.06100
C 	C 	0.39957 0.13125 0.99973 0.01600
C 	C 	0.43558 0.17642 0.97675 -0.08500
C 	C 	0.40567 0.19331 0.95111 0.01300
C 	C 	0.34139 0.16767 0.94989 -0.06300
H 	H 	0.30841 0.07196 0.01694 0.05200
H 	H 	0.42182 0.11756 0.01956 0.04500
H 	H 	0.43252 0.22726 0.93274 0.03700
H 	H 	0.31919 0.18216 0.93071 0.05100
