data_crystal

_cell_length_a 18.78289
_cell_length_b 18.77979
_cell_length_c 35.14910
_cell_angle_alpha 95.42700
_cell_angle_beta  95.42780
_cell_angle_gamma 126.40410

_symmetry_space_group_name_	'P 1'
_symmetry_space_group_name_H-M	'P 1'

loop_
_symmetry_equiv_pos_as_xyz
  x,y,z

loop_
_atom_site_label
_atom_site_type_symbol
_atom_site_fract_x
_atom_site_fract_y
_atom_site_fract_z
_atom_site_charge
C 	C 	0.89529 0.96597 0.95835 0.13100
C 	C 	0.85030 0.87362 0.95864 -0.08200
C 	C 	0.89922 0.83884 0.96057 0.12000
C 	C 	0.99243 0.89632 0.96225 -0.08700
C 	C 	0.03702 0.98784 0.96186 0.12300
C 	C 	0.98862 0.02260 0.95975 -0.10300
H 	H 	0.77820 0.82950 0.95763 0.10800
H 	H 	0.03038 0.86985 0.96406 0.08600
H 	H 	0.02371 0.09387 0.95992 0.09000
C 	C 	0.98246 0.08667 0.50618 0.11900
C 	C 	0.92483 0.99255 0.50199 -0.08400
C 	C 	0.95943 0.94408 0.49921 0.13000
C 	C 	0.05143 0.98910 0.50030 -0.10300
C 	C 	0.11026 0.08317 0.50556 0.12000
C 	C 	0.07571 0.13234 0.50829 -0.09300
H 	H 	0.85312 0.95710 0.50057 0.10000
H 	H 	0.07755 0.95090 0.49772 0.09100
H 	H 	0.12071 0.20515 0.51187 0.10400
Cu	Cu	0.73494 0.30334 0.95549 0.93300
Cu	Cu	0.72907 0.23512 0.03846 0.88200
Cu	Cu	0.59644 0.26115 0.00696 0.90300
Cu	Cu	0.57254 0.30657 0.92951 0.91300
C 	C 	0.67195 0.28209 0.87409 0.31400
O 	O 	0.79250 0.43611 0.95531 -0.32100
C 	C 	0.65919 0.29017 0.09214 0.30900
O 	O 	0.59585 0.23442 0.95268 -0.63500
O 	O 	0.72765 0.31891 0.01120 -0.63700
O 	O 	0.79136 0.24000 0.95783 -0.32500
O 	O 	0.69536 0.14694 0.99496 -0.42700
O 	O 	0.63516 0.32117 0.88453 -0.34500
O 	O 	0.46753 0.19763 0.99926 -0.36700
C 	C 	0.41906 0.20008 0.97034 0.34200
C 	C 	0.75519 0.47268 0.96821 0.32900
O 	O 	0.67276 0.42061 0.97457 -0.38200
O 	O 	0.45715 0.25949 0.94730 -0.34700
O 	O 	0.71799 0.27042 0.90016 -0.31900
C 	C 	0.75249 0.16498 0.97178 0.33800
O 	O 	0.59453 0.26868 0.06352 -0.35700
O 	O 	0.73004 0.29618 0.08508 -0.39600
H 	H 	0.55485 0.16953 0.94085 0.19200
H 	H 	0.76725 0.38186 0.02567 0.19000
Cu	Cu	0.64677 0.24776 0.51145 0.93000
Cu	Cu	0.69769 0.24185 0.42503 0.89500
Cu	Cu	0.68575 0.38345 0.45841 0.90500
Cu	Cu	0.66279 0.42226 0.54077 0.91000
C 	C 	0.66882 0.30844 0.59305 0.31200
O 	O 	0.51665 0.19295 0.51571 -0.32700
C 	C 	0.63791 0.31143 0.37324 0.30600
O 	O 	0.72041 0.38751 0.51215 -0.63500
O 	O 	0.62291 0.25157 0.45574 -0.63600
O 	O 	0.70679 0.18809 0.50716 -0.35500
O 	O 	0.79177 0.27671 0.46594 -0.39000
O 	O 	0.68663 0.38674 0.58929 -0.35100
O 	O 	0.75497 0.51291 0.46462 -0.33900
C 	C 	0.75375 0.56352 0.49291 0.33800
C 	C 	0.48293 0.23619 0.50921 0.33500
O 	O 	0.53494 0.31850 0.50286 -0.38000
O 	O 	0.69625 0.52742 0.51674 -0.37300
O 	O 	0.68311 0.26542 0.56658 -0.34700
C 	C 	0.77731 0.22235 0.49013 0.32800
O 	O 	0.66934 0.38045 0.40160 -0.35000
O 	O 	0.63114 0.24000 0.38005 -0.37800
H 	H 	0.78638 0.42477 0.52123 0.18200
H 	H 	0.55846 0.21404 0.44339 0.19200
C 	C 	0.62899 0.18785 0.76757 -0.06400
C 	C 	0.68367 0.26752 0.75311 0.02900
C 	C 	0.74290 0.35049 0.77927 0.07200
C 	C 	0.74200 0.35367 0.81919 -0.00300
C 	C 	0.68287 0.27489 0.83336 -0.06600
C 	C 	0.62807 0.19114 0.80758 0.12500
C 	C 	0.66961 0.26570 0.71077 0.02900
N 	N 	0.80159 0.43217 0.76519 -0.01700
H 	H 	0.78570 0.41791 0.83910 0.10400
N 	N 	0.56979 0.10960 0.82173 -0.02400
H 	H 	0.58421 0.12379 0.74759 0.09300
C 	C 	0.70720 0.23859 0.68581 0.06900
C 	C 	0.70206 0.24767 0.64665 0.00100
C 	C 	0.66008 0.28415 0.63221 -0.07200
C 	C 	0.61708 0.30529 0.65673 0.13100
C 	C 	0.62248 0.29624 0.69577 -0.06600
N 	N 	0.75168 0.20295 0.70018 -0.01800
H 	H 	0.73404 0.22984 0.62799 0.08100
N 	N 	0.56899 0.33730 0.64222 -0.02600
H 	H 	0.59127 0.31460 0.71469 0.09200
O 	O 	0.57768 0.04537 0.81574 -0.06000
O 	O 	0.50418 0.09659 0.83769 -0.08500
O 	O 	0.80169 0.50073 0.77515 -0.06700
O 	O 	0.85817 0.43958 0.74409 -0.06500
O 	O 	0.50232 0.28873 0.61280 -0.06700
O 	O 	0.58796 0.41212 0.66008 -0.07700
O 	O 	0.72399 0.12311 0.68430 -0.06600
O 	O 	0.82401 0.25289 0.72701 -0.06000
C 	C 	0.54680 0.24508 0.26532 -0.06500
C 	C 	0.61812 0.31931 0.25231 0.02600
C 	C 	0.68683 0.39750 0.27950 0.07000
C 	C 	0.68786 0.39756 0.31944 -0.00200
C 	C 	0.62178 0.31967 0.33251 -0.07500
C 	C 	0.54800 0.24493 0.30528 0.12600
C 	C 	0.62661 0.31049 0.21099 0.03100
N 	N 	0.75778 0.47560 0.26672 -0.01800
H 	H 	0.74342 0.45620 0.34023 0.08600
N 	N 	0.47459 0.16863 0.31813 -0.02300
H 	H 	0.49199 0.18618 0.24441 0.09000
C 	C 	0.65417 0.25944 0.19673 0.06200
C 	C 	0.66356 0.25268 0.15781 0.00100
C 	C 	0.64708 0.29748 0.13287 -0.08600
C 	C 	0.61963 0.34884 0.14712 0.13000
C 	C 	0.60861 0.35423 0.18600 -0.06900
N 	N 	0.67314 0.21464 0.22182 -0.01700
H 	H 	0.68419 0.21276 0.14700 0.06100
N 	N 	0.60556 0.39774 0.12262 -0.02300
H 	H 	0.58792 0.39397 0.19696 0.09400
O 	O 	0.44469 0.08764 0.30282 -0.07600
O 	O 	0.43470 0.17983 0.34371 -0.08200
O 	O 	0.76874 0.55099 0.27442 -0.06500
O 	O 	0.81590 0.47339 0.25037 -0.07000
O 	O 	0.52857 0.38410 0.11726 -0.07200
O 	O 	0.67179 0.46075 0.10816 -0.08000
O 	O 	0.62801 0.12766 0.21350 -0.08100
O 	O 	0.73963 0.26134 0.25141 -0.07500
C 	C 	0.86141 0.78781 0.46132 -0.12300
C 	C 	0.90038 0.84646 0.49745 -0.05800
C 	C 	0.89119 0.81210 0.53186 0.31400
C 	C 	0.84461 0.71980 0.53015 -0.06900
C 	C 	0.80641 0.66089 0.49405 -0.13300
C 	C 	0.81428 0.69521 0.45953 0.36400
F 	F 	0.77494 0.63889 0.42438 -0.42400
H 	H 	0.86867 0.81416 0.43465 0.11500
H 	H 	0.83854 0.69394 0.55692 0.09700
F 	F 	0.92919 0.86857 0.56696 -0.41300
C 	C 	0.93691 0.16713 0.47141 -0.12600
C 	C 	0.94366 0.13598 0.50523 -0.05100
C 	C 	0.89979 0.13797 0.53516 0.30700
C 	C 	0.84652 0.16721 0.53046 -0.06500
C 	C 	0.83649 0.19469 0.49582 -0.13500
C 	C 	0.88318 0.19558 0.46645 0.35800
F 	F 	0.87348 0.22024 0.43241 -0.44800
H 	H 	0.96988 0.16522 0.44807 0.12100
H 	H 	0.81257 0.16779 0.55361 0.10700
F 	F 	0.90664 0.10907 0.56831 -0.41300
C 	C 	0.25259 0.11168 0.53600 -0.12500
C 	C 	0.20808 0.12933 0.50850 -0.05400
C 	C 	0.25299 0.17815 0.47999 0.30800
C 	C 	0.34134 0.20913 0.47914 -0.06700
C 	C 	0.38559 0.19092 0.50647 -0.13500
C 	C 	0.33997 0.14042 0.53445 0.36200
F 	F 	0.38047 0.11986 0.56038 -0.42600
H 	H 	0.21824 0.07316 0.55785 0.11900
H 	H 	0.37561 0.24760 0.45726 0.10100
F 	F 	0.21019 0.19330 0.45242 -0.42700
C 	C 	0.85352 0.68878 0.93022 -0.12700
C 	C 	0.85366 0.74232 0.96101 -0.05300
C 	C 	0.82398 0.70778 0.99468 0.31300
C 	C 	0.79540 0.62092 0.99762 -0.06600
C 	C 	0.79677 0.56799 0.96710 -0.13500
C 	C 	0.82566 0.60229 0.93326 0.36000
F 	F 	0.82431 0.55091 0.90287 -0.43400
H 	H 	0.87684 0.71505 0.90423 0.11200
H 	H 	0.77186 0.59460 0.02357 0.10300
F 	F 	0.82509 0.75921 0.02495 -0.40400
C 	C 	0.84258 0.04660 0.92864 -0.12400
C 	C 	0.84629 0.00509 0.95923 -0.05900
C 	C 	0.81534 0.01292 0.99302 0.30600
C 	C 	0.78415 0.06437 0.99678 -0.06400
C 	C 	0.78345 0.10874 0.96682 -0.14000
C 	C 	0.81128 0.09816 0.93235 0.36400
F 	F 	0.80761 0.13725 0.90242 -0.41900
H 	H 	0.86610 0.04074 0.90239 0.11100
H 	H 	0.76254 0.07154 0.02344 0.08000
F 	F 	0.81923 0.97396 0.02297 -0.40400
C 	C 	0.17005 0.05721 0.92983 -0.12400
C 	C 	0.13485 0.04737 0.96401 -0.06200
C 	C 	0.19308 0.08846 0.00032 0.31100
C 	C 	0.28597 0.13817 0.00239 -0.06900
C 	C 	0.32131 0.14721 0.96818 -0.13100
C 	C 	0.26288 0.10679 0.93183 0.35900
F 	F 	0.29594 0.11370 0.89852 -0.43700
H 	H 	0.12525 0.02495 0.90174 0.10800
H 	H 	0.33051 0.17002 0.03054 0.11000
F 	F 	0.15944 0.07912 0.03357 -0.41600
