data_crystal

_cell_length_a 18.68108
_cell_length_b 18.77850
_cell_length_c 23.08202
_cell_angle_alpha 95.47011
_cell_angle_beta  95.47053
_cell_angle_gamma 126.34105

_symmetry_space_group_name_	'P 1'
_symmetry_space_group_name_H-M	'P 1'

loop_
_symmetry_equiv_pos_as_xyz
  x,y,z

loop_
_atom_site_label
_atom_site_type_symbol
_atom_site_fract_x
_atom_site_fract_y
_atom_site_fract_z
_atom_site_charge
C 	C 	0.93689 0.02455 0.99921 0.11300
C 	C 	0.02732 0.06590 0.99392 -0.08300
C 	C 	0.05847 0.01395 0.98754 0.10800
H 	H 	0.07269 0.13755 0.99413 0.09500
C 	C 	0.07930 0.04699 0.47101 0.10800
C 	C 	0.02521 0.07529 0.47593 -0.08400
H 	H 	0.05655 0.14652 0.48741 0.09400
Cu	Cu	0.60345 0.19117 0.00917 0.93600
Cu	Cu	0.68497 0.20230 0.88794 0.89700
Cu	Cu	0.64357 0.32518 0.92703 0.90300
Cu	Cu	0.58645 0.34711 0.04019 0.91200
C 	C 	0.62560 0.26595 0.13024 0.29000
O 	O 	0.46828 0.12525 0.00486 -0.32300
C 	C 	0.63739 0.27057 0.80084 0.28500
O 	O 	0.66613 0.32893 0.01047 -0.63300
O 	O 	0.59171 0.19562 0.92320 -0.63500
O 	O 	0.66995 0.13815 0.01150 -0.33000
O 	O 	0.76729 0.23642 0.95813 -0.41600
O 	O 	0.57740 0.29219 0.11114 -0.34500
O 	O 	0.70256 0.45269 0.93660 -0.35700
C 	C 	0.69165 0.49807 0.97730 0.32900
C 	C 	0.42766 0.15796 0.98370 0.31800
O 	O 	0.47609 0.23940 0.97215 -0.37200
O 	O 	0.62592 0.45667 0.00759 -0.35200
O 	O 	0.63214 0.21153 0.09443 -0.32000
C 	C 	0.74628 0.17705 0.99188 0.33100
O 	O 	0.63469 0.32391 0.84080 -0.34100
O 	O 	0.63035 0.20018 0.81348 -0.37400
H 	H 	0.73044 0.37308 0.03014 0.18900
H 	H 	0.52994 0.15291 0.89906 0.20300
Cu	Cu	0.75114 0.33770 0.43027 0.93000
Cu	Cu	0.78073 0.29299 0.56212 0.90300
Cu	Cu	0.63969 0.33709 0.51901 0.92100
Cu	Cu	0.59670 0.36130 0.39697 0.91400
C 	C 	0.67250 0.31277 0.30934 0.29400
O 	O 	0.81853 0.47275 0.42821 -0.32400
C 	C 	0.67080 0.30728 0.63202 0.28400
O 	O 	0.61800 0.29021 0.43537 -0.63000
O 	O 	0.76008 0.36398 0.51716 -0.62500
O 	O 	0.77948 0.24833 0.42512 -0.33200
O 	O 	0.86296 0.29848 0.51828 -0.38800
O 	O 	0.65518 0.36813 0.32858 -0.34900
O 	O 	0.52732 0.32189 0.52038 -0.34000
C 	C 	0.46124 0.28578 0.47429 0.32700
C 	C 	0.78974 0.51842 0.44887 0.31300
O 	O 	0.70794 0.47539 0.46134 -0.37300
O 	O 	0.47847 0.30474 0.42144 -0.35600
O 	O 	0.72067 0.29895 0.34513 -0.32200
C 	C 	0.83109 0.24537 0.46648 0.32800
O 	O 	0.65989 0.35919 0.60474 -0.33300
O 	O 	0.67955 0.25093 0.60172 -0.38100
H 	H 	0.56959 0.22447 0.42389 0.18000
H 	H 	0.80875 0.42851 0.53355 0.17900
C 	C 	0.64607 0.28812 0.74176 -0.01200
C 	C 	0.65627 0.29926 0.69174 -0.01300
C 	C 	0.66145 0.28929 0.24648 -0.00600
C 	C 	0.64771 0.27556 0.19309 -0.00100
C 	C 	0.84391 0.61668 0.45061 -0.10600
Br	Br	0.83158 0.57491 0.32381 -0.15200
C 	C 	0.87648 0.08342 0.40434 0.07200
C 	C 	0.87589 0.04545 0.45418 -0.03500
C 	C 	0.84174 0.05846 0.50248 0.06700
C 	C 	0.81697 0.11624 0.50304 0.12000
C 	C 	0.83691 0.16948 0.45887 -0.11700
C 	C 	0.86400 0.15062 0.40823 0.12000
Br	Br	0.89068 0.22062 0.34654 -0.13200
Br	Br	0.89087 0.04061 0.33052 -0.12500
Br	Br	0.74711 0.11449 0.55994 -0.25100
C 	C 	0.23822 0.11511 0.51992 0.07000
C 	C 	0.17858 0.11445 0.47702 -0.03700
C 	C 	0.21443 0.17929 0.44025 0.06800
C 	C 	0.30782 0.24730 0.44987 0.12200
C 	C 	0.36694 0.23697 0.48361 -0.10800
C 	C 	0.33155 0.17016 0.51921 0.11800
Br	Br	0.40789 0.14799 0.56270 -0.17900
Br	Br	0.19356 0.04666 0.58214 -0.14200
Br	Br	0.35363 0.35831 0.42253 -0.15300
Br	Br	0.13850 0.16819 0.37182 -0.13500
Br	Br	0.64620 0.55157 0.86205 -0.14600
C 	C 	0.84785 0.15165 0.04835 0.12800
C 	C 	0.79523 0.13804 0.99449 -0.13000
C 	C 	0.79466 0.09251 0.94202 0.12000
C 	C 	0.85126 0.06649 0.94270 0.07000
C 	C 	0.89938 0.07485 0.99686 -0.04800
C 	C 	0.89865 0.11850 0.04971 0.07700
Br	Br	0.96614 0.13153 0.12382 -0.12700
Br	Br	0.85038 0.21569 0.11998 -0.14400
Br	Br	0.86340 0.01952 0.86935 -0.13400
Br	Br	0.71015 0.05807 0.87058 -0.25600
C 	C 	0.18446 0.06408 0.93243 0.07100
C 	C 	0.15467 0.05698 0.98685 -0.04800
C 	C 	0.21277 0.07701 0.03958 0.07700
C 	C 	0.29918 0.10053 0.03776 0.11900
C 	C 	0.33056 0.11111 0.98362 -0.12000
C 	C 	0.27221 0.09076 0.93077 0.11600
Br	Br	0.31172 0.09654 0.85596 -0.16700
Br	Br	0.10464 0.03680 0.86023 -0.13700
Br	Br	0.37304 0.11558 0.10922 -0.16300
Br	Br	0.17355 0.07236 0.11448 -0.13700
Br	Br	0.86323 0.63276 0.57828 -0.17800
C 	C 	0.86822 0.67457 0.50453 0.11700
C 	C 	0.85537 0.65008 0.39721 0.11200
C 	C 	0.74338 0.59561 0.98181 -0.12100
Br	Br	0.81394 0.60530 0.10244 -0.18200
C 	C 	0.73505 0.63106 0.93272 0.12100
C 	C 	0.80096 0.65376 0.03556 0.12300
C 	C 	0.88423 0.73863 0.39740 0.07100
C 	C 	0.78941 0.72466 0.93603 0.07100
C 	C 	0.93079 0.01265 0.46147 0.10500
C 	C 	0.89705 0.76302 0.50470 0.07300
C 	C 	0.85111 0.74726 0.03988 0.07900
Br	Br	0.78662 0.77348 0.86673 -0.13000
Br	Br	0.83208 0.99986 0.56866 -0.13000
C 	C 	0.99898 0.92107 0.98537 -0.07700
C 	C 	0.90960 0.88034 0.99190 0.11600
C 	C 	0.87898 0.93220 0.99984 -0.08900
H 	H 	0.02276 0.88079 0.97975 0.08900
H 	H 	0.80923 0.90020 0.00413 0.10600
C 	C 	0.88999 0.91992 0.45110 -0.07400
C 	C 	0.94453 0.89103 0.45219 0.11200
C 	C 	0.03857 0.95461 0.45823 -0.08100
H 	H 	0.81691 0.87095 0.44290 0.09800
H 	H 	0.08008 0.93224 0.45477 0.09700
C 	C 	0.90441 0.79497 0.45106 -0.03800
Br	Br	0.89493 0.78255 0.32403 -0.13400
Br	Br	0.92594 0.84046 0.57840 -0.12300
C 	C 	0.84767 0.78274 0.98960 -0.04900
Br	Br	0.92433 0.82709 0.11467 -0.12400
