data_crystal

_cell_length_a 18.55560
_cell_length_b 18.83880
_cell_length_c 35.26950
_cell_angle_alpha 95.42772
_cell_angle_beta  95.42847
_cell_angle_gamma 126.42281

_symmetry_space_group_name_	'P 1'
_symmetry_space_group_name_H-M	'P 1'

loop_
_symmetry_equiv_pos_as_xyz
  x,y,z

loop_
_atom_site_label
_atom_site_type_symbol
_atom_site_fract_x
_atom_site_fract_y
_atom_site_fract_z
_atom_site_charge
C 	C 	0.86037 0.95544 0.95931 0.11600
N 	N 	0.94940 0.00409 0.95606 -0.13400
C 	C 	0.99253 0.96603 0.95650 0.12100
N 	N 	0.94597 0.87825 0.95890 -0.13400
C 	C 	0.85672 0.82852 0.96174 0.12500
N 	N 	0.81385 0.86743 0.96260 -0.13400
C 	C 	0.00114 0.08009 0.49864 0.12000
N 	N 	0.94490 0.98925 0.49440 -0.13800
C 	C 	0.97922 0.94285 0.49133 0.12300
N 	N 	0.06967 0.98715 0.49272 -0.13900
C 	C 	0.12656 0.07784 0.49762 0.12300
N 	N 	0.09245 0.12479 0.50080 -0.13400
Cu	Cu	0.70873 0.30268 0.95602 0.92900
Cu	Cu	0.69657 0.22929 0.03753 0.87400
Cu	Cu	0.56171 0.25143 0.00419 0.89400
Cu	Cu	0.53674 0.29105 0.92590 0.89800
C 	C 	0.65352 0.28404 0.87410 0.29600
O 	O 	0.75853 0.43344 0.95614 -0.34600
C 	C 	0.61526 0.27477 0.08930 0.29100
O 	O 	0.56639 0.22522 0.95077 -0.63600
O 	O 	0.69563 0.31393 0.01080 -0.64500
O 	O 	0.77212 0.24573 0.96001 -0.35700
O 	O 	0.67146 0.14571 0.99404 -0.42400
O 	O 	0.60587 0.31275 0.88261 -0.37900
O 	O 	0.43043 0.18224 0.99514 -0.37000
C 	C 	0.37937 0.17735 0.96468 0.29800
C 	C 	0.71392 0.46358 0.96742 0.28800
O 	O 	0.62926 0.40646 0.97160 -0.38800
O 	O 	0.41509 0.23382 0.94041 -0.38600
O 	O 	0.69810 0.27270 0.90127 -0.35600
C 	C 	0.73284 0.16898 0.97229 0.29500
O 	O 	0.55789 0.26535 0.06012 -0.37200
O 	O 	0.68915 0.28329 0.08393 -0.40700
H 	H 	0.52883 0.16045 0.93937 0.17200
H 	H 	0.73295 0.37598 0.02590 0.18000
Cu	Cu	0.67901 0.26159 0.51560 0.92600
Cu	Cu	0.73595 0.25469 0.43082 0.87200
Cu	Cu	0.70669 0.38545 0.45850 0.89800
Cu	Cu	0.68693 0.43279 0.54014 0.90000
C 	C 	0.70149 0.33085 0.59602 0.29000
O 	O 	0.54642 0.20241 0.51891 -0.36300
C 	C 	0.66936 0.31270 0.37490 0.29100
O 	O 	0.74751 0.39882 0.51272 -0.63500
O 	O 	0.65281 0.25718 0.45917 -0.63900
O 	O 	0.74211 0.20440 0.51402 -0.36100
O 	O 	0.82907 0.29252 0.47330 -0.43200
O 	O 	0.71633 0.40635 0.59006 -0.37600
O 	O 	0.76896 0.51253 0.46050 -0.37500
C 	C 	0.77266 0.56544 0.48920 0.29700
C 	C 	0.50843 0.24161 0.51161 0.29100
O 	O 	0.55776 0.32289 0.50409 -0.38600
O 	O 	0.71532 0.53215 0.51336 -0.38600
O 	O 	0.71714 0.28649 0.57106 -0.35400
C 	C 	0.81377 0.23808 0.49736 0.29200
O 	O 	0.67476 0.37034 0.40192 -0.37100
O 	O 	0.66959 0.24629 0.38357 -0.40700
H 	H 	0.81468 0.43899 0.52099 0.17100
H 	H 	0.58778 0.21483 0.44644 0.18000
C 	C 	0.64558 0.20381 0.76989 -0.03700
C 	C 	0.68956 0.28499 0.75576 0.02200
C 	C 	0.73197 0.36688 0.78170 -0.03800
C 	C 	0.72537 0.36699 0.82117 0.02300
C 	C 	0.67437 0.28504 0.83461 -0.07400
C 	C 	0.63779 0.20380 0.80934 0.01900
C 	C 	0.68686 0.28412 0.71322 0.02100
C 	C 	0.78100 0.45082 0.76755 0.09900
C 	C 	0.59127 0.12030 0.82381 0.08000
C 	C 	0.61416 0.27470 0.69025 -0.03700
C 	C 	0.61983 0.29180 0.65215 0.01800
C 	C 	0.69559 0.31247 0.63601 -0.07200
C 	C 	0.76944 0.32437 0.65940 0.02300
C 	C 	0.76255 0.30489 0.69711 -0.03800
C 	C 	0.53441 0.24936 0.70619 0.09700
C 	C 	0.85656 0.36901 0.64701 0.08900
C 	C 	0.55254 0.29701 0.63108 0.07500
C 	C 	0.83439 0.30847 0.71976 0.10000
C 	C 	0.60750 0.12044 0.74375 0.09900
C 	C 	0.77149 0.45140 0.84806 0.08700
N 	N 	0.49923 0.30187 0.61444 -0.11500
N 	N 	0.47081 0.22913 0.71895 -0.11300
N 	N 	0.92639 0.40560 0.63732 -0.11100
N 	N 	0.89170 0.31130 0.73787 -0.11000
N 	N 	0.82008 0.51771 0.75620 -0.11100
N 	N 	0.80829 0.51872 0.86952 -0.10400
N 	N 	0.55421 0.05371 0.83540 -0.11100
N 	N 	0.57713 0.05394 0.72284 -0.11000
C 	C 	0.55471 0.29101 0.27477 -0.03800
C 	C 	0.62276 0.31133 0.25305 0.02200
C 	C 	0.70873 0.34006 0.27203 -0.03800
C 	C 	0.72507 0.34397 0.31229 0.02000
C 	C 	0.65520 0.31830 0.33364 -0.07700
C 	C 	0.57066 0.29384 0.31503 0.02300
C 	C 	0.60220 0.29693 0.20981 0.02200
C 	C 	0.77990 0.36437 0.24994 0.09800
C 	C 	0.49954 0.26973 0.33711 0.08400
C 	C 	0.62734 0.36965 0.19125 -0.03800
C 	C 	0.62541 0.36070 0.15089 0.02300
C 	C 	0.59796 0.27893 0.12919 -0.07700
C 	C 	0.56351 0.20362 0.14710 0.02100
C 	C 	0.56592 0.21267 0.18743 -0.03800
C 	C 	0.65689 0.45397 0.21381 0.09900
C 	C 	0.52673 0.11717 0.12405 0.06800
C 	C 	0.65290 0.43579 0.13182 0.08100
C 	C 	0.53325 0.13601 0.20610 0.09800
C 	C 	0.46814 0.26629 0.25558 0.09900
C 	C 	0.81388 0.37456 0.33184 0.06700
N 	N 	0.67476 0.49571 0.11660 -0.11300
N 	N 	0.68047 0.52124 0.23187 -0.11100
N 	N 	0.49740 0.04821 0.10564 -0.11700
N 	N 	0.50722 0.07491 0.22105 -0.11200
N 	N 	0.83658 0.38373 0.23227 -0.11200
N 	N 	0.88471 0.39896 0.34744 -0.11900
N 	N 	0.44284 0.25050 0.35476 -0.11100
N 	N 	0.39907 0.24657 0.24022 -0.11100
C 	C 	0.82719 0.66191 0.48929 -0.08600
C 	C 	0.81048 0.69222 0.45723 -0.00300
C 	C 	0.85722 0.78420 0.45809 0.01000
C 	C 	0.92107 0.84645 0.49138 -0.01400
C 	C 	0.93706 0.81599 0.52349 -0.05100
C 	C 	0.89128 0.72432 0.52250 0.05100
S 	S 	0.83647 0.82064 0.41713 -0.02600
S 	S 	0.91739 0.68864 0.56241 -0.05800
H 	H 	0.85974 0.67249 0.58770 0.03900
H 	H 	0.77033 0.83102 0.42117 0.04000
H 	H 	0.76051 0.64419 0.43180 0.05000
H 	H 	0.98701 0.86401 0.54894 0.05500
C 	C 	0.96229 0.12915 0.49898 -0.01000
C 	C 	0.94171 0.15018 0.53355 -0.05300
C 	C 	0.89376 0.18618 0.53365 0.05100
C 	C 	0.86437 0.19990 0.49853 -0.09200
C 	C 	0.88582 0.17931 0.46401 -0.00700
C 	C 	0.93473 0.14450 0.46411 0.00700
S 	S 	0.87584 0.21812 0.57814 -0.01200
S 	S 	0.95937 0.11856 0.42020 -0.02800
H 	H 	0.89194 0.03024 0.40379 0.03900
H 	H 	0.95535 0.29878 0.59641 0.04800
H 	H 	0.96260 0.13807 0.56040 0.05600
H 	H 	0.86361 0.18960 0.43692 0.01900
C 	C 	0.40805 0.18994 0.50533 -0.08400
C 	C 	0.36556 0.20767 0.47668 -0.00900
C 	C 	0.27505 0.17558 0.47511 0.01100
C 	C 	0.22554 0.12469 0.50239 -0.01300
C 	C 	0.26700 0.10484 0.53035 -0.04900
C 	C 	0.35662 0.13461 0.53125 0.04900
S 	S 	0.22393 0.19753 0.43815 -0.01900
S 	S 	0.40093 0.09756 0.56339 -0.02000
H 	H 	0.38255 0.01943 0.54524 0.04400
H 	H 	0.18063 0.12815 0.40697 0.04300
H 	H 	0.40360 0.24780 0.45590 0.04900
H 	H 	0.22810 0.06314 0.55056 0.05600
C 	C 	0.75043 0.55742 0.96643 -0.08000
C 	C 	0.71414 0.57575 0.93549 -0.00400
C 	C 	0.74319 0.66340 0.93495 0.01200
C 	C 	0.80863 0.73384 0.96591 -0.01300
C 	C 	0.84211 0.71463 0.99759 -0.03900
C 	C 	0.81405 0.62720 0.99783 0.05700
S 	S 	0.69916 0.68440 0.89479 -0.02000
S 	S 	0.85968 0.60632 0.03744 -0.05300
H 	H 	0.80468 0.58191 0.06452 0.04700
H 	H 	0.62490 0.67878 0.90215 0.04200
H 	H 	0.66365 0.52179 0.91166 0.03800
H 	H 	0.89277 0.76854 0.02140 0.04800
C 	C 	0.81869 0.00171 0.96422 -0.00500
C 	C 	0.85550 0.07042 0.99662 -0.04600
C 	C 	0.83166 0.12849 0.99852 0.06300
C 	C 	0.76903 0.11744 0.96796 -0.09100
C 	C 	0.73088 0.04784 0.93580 0.00200
C 	C 	0.75537 0.99003 0.93376 0.00300
S 	S 	0.88205 0.21589 0.03904 -0.10300
S 	S 	0.70711 0.90417 0.89280 -0.02200
H 	H 	0.76265 0.93511 0.86591 0.04300
H 	H 	0.96034 0.29119 0.03186 0.04600
H 	H 	0.90511 0.08050 0.01987 0.04800
H 	H 	0.68129 0.03789 0.91259 0.04700
C 	C 	0.09135 0.02177 0.95840 -0.01100
C 	C 	0.12576 0.00709 0.92741 -0.04900
C 	C 	0.21987 0.05649 0.92938 0.05200
C 	C 	0.28041 0.12178 0.96264 -0.08600
C 	C 	0.24593 0.13595 0.99375 0.00700
C 	C 	0.15188 0.08616 0.99189 0.01600
S 	S 	0.26095 0.03374 0.89067 -0.04700
S 	S 	0.11076 0.10332 0.03207 -0.03300
H 	H 	0.09654 0.16576 0.02737 0.03900
H 	H 	0.27493 0.08854 0.86471 0.04100
H 	H 	0.07919 0.95665 0.90189 0.05500
H 	H 	0.29242 0.18613 0.01935 0.04200
