data_crystal

_cell_length_a 27.12410
_cell_length_b 27.13346
_cell_length_c 29.10130
_cell_angle_alpha 90.00122
_cell_angle_beta  89.99836
_cell_angle_gamma 120.00063

_symmetry_space_group_name_	'P 1'
_symmetry_space_group_name_H-M	'P 1'

loop_
_symmetry_equiv_pos_as_xyz
  x,y,z

loop_
_atom_site_label
_atom_site_type_symbol
_atom_site_fract_x
_atom_site_fract_y
_atom_site_fract_z
_atom_site_charge
Zn	Zn	0.33233 0.15298 0.66762 1.19900
Zn	Zn	0.24138 0.02761 0.66896 1.21300
Zn	Zn	0.42304 0.11811 0.66741 1.21500
P 	P 	0.33084 0.07496 0.59883 0.29800
P 	P 	0.33341 0.07757 0.73765 0.29700
C 	C 	0.53387 0.14830 0.69786 0.27800
C 	C 	0.44687 0.23817 0.66751 0.29800
C 	C 	0.21789 0.12398 0.66704 0.29800
O 	O 	0.30853 0.11832 0.60600 -0.43100
O 	O 	0.35611 0.14317 0.72961 -0.43000
O 	O 	0.30004 0.02352 0.63426 -0.44200
O 	O 	0.36433 0.05619 0.70295 -0.44000
O 	O 	0.39885 0.10898 0.60392 -0.42200
O 	O 	0.26541 0.04384 0.73236 -0.42600
O 	O 	0.49690 0.12366 0.66443 -0.41700
O 	O 	0.14955 0.97114 0.59782 -0.24200
O 	O 	0.51654 0.15655 0.73777 -0.25000
O 	O 	0.45320 0.19933 0.68988 -0.42500
O 	O 	0.21149 0.07840 0.64533 -0.42900
O 	O 	0.39779 0.22403 0.64850 -0.43900
O 	O 	0.26692 0.15905 0.68607 -0.44000
C 	C 	0.13130 0.94643 0.63793 0.28400
O 	O 	0.16747 0.95957 0.67209 -0.40800
Zn	Zn	0.47391 0.01107 0.99910 1.19300
Zn	Zn	0.43750 0.10056 0.00342 1.21800
Zn	Zn	0.34871 0.91909 0.99785 1.21400
P 	P 	0.39772 0.01328 0.93082 0.29600
P 	P 	0.39472 0.00616 0.06957 0.27300
C 	C 	0.26981 0.80775 0.02780 0.28700
C 	C 	0.44604 0.89699 0.99823 0.27100
C 	C 	0.55835 0.12550 0.00200 0.32300
O 	O 	0.46360 0.03669 0.93810 -0.43400
O 	O 	0.43971 0.98622 0.06063 -0.41200
O 	O 	0.37605 0.04274 0.96676 -0.44400
O 	O 	0.34359 0.97620 0.03375 -0.42100
O 	O 	0.36482 0.94513 0.93487 -0.41400
O 	O 	0.42694 0.07435 0.06669 -0.41400
O 	O 	0.28141 0.84455 0.99434 -0.42400
O 	O 	0.47051 0.19172 0.93237 -0.24700
O 	O 	0.29644 0.82521 0.06731 -0.24600
O 	O 	0.40055 0.89000 0.02045 -0.40600
O 	O 	0.51907 0.13225 0.98079 -0.43800
O 	O 	0.48034 0.94620 0.97913 -0.42900
O 	O 	0.54486 0.07572 0.01908 -0.44600
C 	C 	0.46510 0.21029 0.97269 0.27100
O 	O 	0.44292 0.17434 0.00710 -0.40400
Zn	Zn	0.19290 0.87230 0.33419 1.20000
Zn	Zn	0.23102 0.99862 0.33283 1.21800
Zn	Zn	0.31730 0.90348 0.33867 1.21800
P 	P 	0.26658 0.94702 0.40546 0.30500
P 	P 	0.27575 0.94874 0.26687 0.30200
C 	C 	0.39879 0.87515 0.30811 0.27700
C 	C 	0.21922 0.78488 0.33435 0.29800
C 	C 	0.10948 0.90368 0.33072 0.30500
O 	O 	0.20090 0.90572 0.39612 -0.42700
O 	O 	0.22970 0.88364 0.27349 -0.43100
O 	O 	0.29035 0.99978 0.37096 -0.43100
O 	O 	0.32475 0.96758 0.30437 -0.43800
O 	O 	0.29863 0.91094 0.40135 -0.42200
O 	O 	0.24424 0.98537 0.26950 -0.40800
O 	O 	0.38394 0.89541 0.34320 -0.41300
O 	O 	0.19538 0.05502 0.40372 -0.25500
O 	O 	0.37587 0.87170 0.26760 -0.24100
O 	O 	0.26592 0.82373 0.31364 -0.42200
O 	O 	0.14834 0.94884 0.35311 -0.42100
O 	O 	0.18445 0.79969 0.35272 -0.43700
O 	O 	0.12331 0.86804 0.31276 -0.44000
C 	C 	0.20299 0.08045 0.36382 0.28000
O 	O 	0.22682 0.06774 0.32997 -0.42000
Zn	Zn	0.80670 0.67856 0.66619 1.20000
Zn	Zn	0.77173 0.76914 0.66678 1.21600
Zn	Zn	0.68144 0.58761 0.66511 1.21600
P 	P 	0.73099 0.67972 0.59641 0.30200
P 	P 	0.72890 0.67693 0.73542 0.30200
C 	C 	0.60036 0.47751 0.69611 0.28000
C 	C 	0.77797 0.56423 0.66654 0.29900
C 	C 	0.89186 0.79305 0.66641 0.29400
O 	O 	0.79665 0.70241 0.60431 -0.43000
O 	O 	0.77231 0.65472 0.72791 -0.43100
O 	O 	0.70967 0.71047 0.63131 -0.43700
O 	O 	0.67727 0.64607 0.70013 -0.43700
O 	O 	0.69729 0.61174 0.60166 -0.42100
O 	O 	0.76276 0.74493 0.73031 -0.42000
O 	O 	0.61340 0.51370 0.66199 -0.41500
O 	O 	0.80865 0.86160 0.59586 -0.24900
O 	O 	0.62523 0.49569 0.73618 -0.24800
O 	O 	0.73240 0.55768 0.68840 -0.42400
O 	O 	0.85295 0.79939 0.64415 -0.42300
O 	O 	0.81289 0.61329 0.64753 -0.44000
O 	O 	0.87780 0.74394 0.68527 -0.43900
C 	C 	0.80112 0.87946 0.63579 0.28600
O 	O 	0.77732 0.84300 0.66967 -0.41500
Zn	Zn	0.52532 0.53654 0.99943 1.19700
Zn	Zn	0.56058 0.66213 0.99860 1.21300
Zn	Zn	0.65038 0.57013 0.00000 1.21900
P 	P 	0.60192 0.61389 0.06871 0.30300
P 	P 	0.60247 0.61191 0.92975 0.30200
C 	C 	0.73051 0.53923 0.96956 0.27000
C 	C 	0.55326 0.45034 0.99987 0.28900
C 	C 	0.44035 0.56629 0.99979 0.27300
O 	O 	0.53616 0.57102 0.06121 -0.42700
O 	O 	0.55930 0.54630 0.93752 -0.43100
O 	O 	0.62303 0.66558 0.03347 -0.43200
O 	O 	0.65450 0.63265 0.96464 -0.44100
O 	O 	0.63541 0.57939 0.06349 -0.41900
O 	O 	0.56840 0.64581 0.93524 -0.42300
O 	O 	0.71834 0.56392 0.00305 -0.40500
O 	O 	0.52467 0.71893 0.06907 -0.24900
O 	O 	0.70475 0.53090 0.92972 -0.24700
O 	O 	0.59872 0.48886 0.97756 -0.42500
O 	O 	0.47949 0.61166 0.02180 -0.41000
O 	O 	0.51850 0.46494 0.01852 -0.42800
O 	O 	0.45429 0.53129 0.98063 -0.43700
C 	C 	0.53228 0.74403 0.02900 0.29000
O 	O 	0.55557 0.73069 0.99518 -0.42400
Zn	Zn	0.66814 0.81903 0.33197 1.20000
Zn	Zn	0.75879 0.78401 0.33122 1.21600
Zn	Zn	0.57683 0.69359 0.33261 1.21600
P 	P 	0.66904 0.74258 0.40137 0.30200
P 	P 	0.66651 0.74161 0.26247 0.30200
C 	C 	0.46564 0.61370 0.30223 0.27900
C 	C 	0.55372 0.79025 0.33247 0.29900
C 	C 	0.78274 0.90408 0.33242 0.29200
O 	O 	0.69165 0.80826 0.39379 -0.42900
O 	O 	0.64416 0.78488 0.27015 -0.42900
O 	O 	0.70005 0.72160 0.36638 -0.43700
O 	O 	0.63547 0.68974 0.29751 -0.43800
O 	O 	0.60103 0.70880 0.39606 -0.42100
O 	O 	0.73452 0.77560 0.26775 -0.42000
O 	O 	0.50262 0.62566 0.33560 -0.41400
O 	O 	0.85232 0.82184 0.40159 -0.24700
O 	O 	0.48310 0.63909 0.26226 -0.24700
O 	O 	0.54724 0.74511 0.30998 -0.42400
O 	O 	0.78882 0.86490 0.35446 -0.42200
O 	O 	0.60308 0.82546 0.35092 -0.43700
O 	O 	0.73381 0.89023 0.31325 -0.43500
C 	C 	0.86991 0.81485 0.36135 0.27400
O 	O 	0.83293 0.79009 0.32793 -0.41300
Zn	Zn	0.85798 0.20447 0.66590 1.20000
Zn	Zn	0.98318 0.23856 0.66669 1.21400
Zn	Zn	0.89315 0.32997 0.66563 1.21600
P 	P 	0.93567 0.28071 0.59664 0.30000
P 	P 	0.93399 0.28107 0.73572 0.30300
C 	C 	0.86391 0.41098 0.69668 0.27900
C 	C 	0.77286 0.23392 0.66645 0.29800
C 	C 	0.88656 0.11869 0.66528 0.29200
O 	O 	0.89225 0.21509 0.60409 -0.43100
O 	O 	0.86829 0.23823 0.72791 -0.43100
O 	O 	0.98733 0.30130 0.63187 -0.44100
O 	O 	0.95528 0.33322 0.70090 -0.43900
O 	O 	0.90180 0.31480 0.60202 -0.42100
O 	O 	0.96751 0.24665 0.73019 -0.42600
O 	O 	0.88781 0.39835 0.66286 -0.41600
O 	O 	0.03887 0.20136 0.59606 -0.24300
O 	O 	0.85633 0.38562 0.73662 -0.24900
O 	O 	0.81200 0.27921 0.68852 -0.42400
O 	O 	0.93211 0.15769 0.64338 -0.42600
O 	O 	0.78685 0.19903 0.64714 -0.44100
O 	O 	0.85166 0.13286 0.68433 -0.44000
C 	C 	0.06412 0.20902 0.63607 0.28000
O 	O 	0.05130 0.23285 0.66981 -0.41000
Zn	Zn	0.99922 0.48355 0.00021 1.19900
Zn	Zn	0.09016 0.44893 0.99920 1.21300
Zn	Zn	0.90846 0.35812 0.00123 1.21800
P 	P 	0.00095 0.40771 0.06969 0.31000
P 	P 	0.99773 0.40602 0.93071 0.29600
C 	C 	0.79746 0.27771 0.97115 0.27000
C 	C 	0.88473 0.45445 0.00012 0.32200
C 	C 	0.11372 0.56885 0.99969 0.27200
O 	O 	0.02332 0.47332 0.06196 -0.42300
O 	O 	0.97535 0.44926 0.93844 -0.43500
O 	O 	0.03164 0.38665 0.03449 -0.42900
O 	O 	0.96687 0.35418 0.96582 -0.44500
O 	O 	0.93292 0.37379 0.06467 -0.42700
O 	O 	0.06577 0.44003 0.93578 -0.41600
O 	O 	0.83443 0.29010 0.00459 -0.40700
O 	O 	0.18314 0.48674 0.06987 -0.24900
O 	O 	0.81495 0.30247 0.93096 -0.24700
O 	O 	0.87837 0.40902 0.97816 -0.43600
O 	O 	0.12004 0.52995 0.02197 -0.41000
O 	O 	0.93380 0.48945 0.01911 -0.44500
O 	O 	0.06443 0.55486 0.98117 -0.43200
C 	C 	0.20095 0.47943 0.02984 0.29000
O 	O 	0.16427 0.45504 0.99617 -0.42400
Zn	Zn	0.14212 0.34627 0.33404 1.20000
Zn	Zn	0.01736 0.25411 0.33288 1.21800
Zn	Zn	0.10580 0.43584 0.33398 1.21600
P 	P 	0.06382 0.34393 0.40299 0.30500
P 	P 	0.06586 0.34609 0.26399 0.30100
C 	C 	0.13373 0.54585 0.30313 0.28000
C 	C 	0.22645 0.46117 0.33351 0.29900
C 	C 	0.11514 0.23238 0.33436 0.29800
O 	O 	0.10760 0.32212 0.39578 -0.42900
O 	O 	0.13164 0.36950 0.27197 -0.42900
O 	O 	0.01229 0.31229 0.36772 -0.43400
O 	O 	0.04402 0.37648 0.29879 -0.43500
O 	O 	0.09735 0.41188 0.39748 -0.42000
O 	O 	0.03288 0.27814 0.26940 -0.41700
O 	O 	0.11020 0.50920 0.33691 -0.41300
O 	O 	0.96293 0.16027 0.40302 -0.25500
O 	O 	0.14187 0.52843 0.26322 -0.24700
O 	O 	0.18719 0.46699 0.31128 -0.42300
O 	O 	0.06925 0.22515 0.35616 -0.42000
O 	O 	0.21269 0.41248 0.35304 -0.43900
O 	O 	0.14974 0.28172 0.31559 -0.43800
C 	C 	0.93743 0.14287 0.36308 0.28000
O 	O 	0.94975 0.17975 0.32959 -0.42200
C 	C 	0.98235 0.34036 0.14635 -0.02800
C 	C 	0.01802 0.39335 0.12600 -0.00700
C 	C 	0.07058 0.43077 0.14646 -0.01800
C 	C 	0.08710 0.41513 0.18712 -0.01800
C 	C 	0.05106 0.36207 0.20743 -0.00700
C 	C 	0.99869 0.32488 0.18679 -0.02900
H 	H 	0.94221 0.31064 0.13041 0.05300
H 	H 	0.09873 0.47163 0.13085 0.06300
H 	H 	0.12753 0.44435 0.20287 0.06200
H 	H 	0.97002 0.28427 0.20255 0.05100
C 	C 	0.91210 0.32785 0.81295 -0.01600
C 	C 	0.94867 0.31171 0.79232 -0.03100
C 	C 	0.00117 0.32727 0.81288 -0.00500
C 	C 	0.01709 0.35851 0.85361 -0.00600
C 	C 	0.98088 0.37491 0.87430 -0.03100
C 	C 	0.92819 0.35943 0.85389 -0.01600
H 	H 	0.87157 0.31636 0.79725 0.06100
H 	H 	0.03023 0.31601 0.79687 0.05300
H 	H 	0.05734 0.36919 0.86948 0.05200
H 	H 	0.89964 0.37146 0.86976 0.06100
C 	C 	0.98401 0.34819 0.51996 -0.03900
C 	C 	0.96718 0.29533 0.54035 -0.01000
C 	C 	0.98302 0.25838 0.52002 -0.03900
C 	C 	0.01557 0.27443 0.47957 0.00500
C 	C 	0.03224 0.32742 0.45927 -0.03000
C 	C 	0.01619 0.36406 0.47969 0.00600
H 	H 	0.97301 0.37755 0.53576 0.05500
H 	H 	0.97056 0.21757 0.53561 0.06300
H 	H 	0.02740 0.24560 0.46397 0.05900
H 	H 	0.02780 0.40458 0.46391 0.05000
C 	C 	0.38604 0.53852 0.34859 -0.01000
C 	C 	0.40421 0.57586 0.31094 -0.05500
C 	C 	0.36350 0.57829 0.28255 -0.01100
C 	C 	0.30537 0.54260 0.29098 -0.00600
C 	C 	0.28728 0.50399 0.32783 -0.06400
C 	C 	0.32801 0.50312 0.35715 -0.00600
H 	H 	0.41683 0.53648 0.37103 0.05100
H 	H 	0.37681 0.60782 0.25400 0.05100
H 	H 	0.27455 0.54422 0.26829 0.05500
H 	H 	0.31470 0.47433 0.38621 0.05100
C 	C 	0.86619 0.98267 0.37345 0.00300
C 	C 	0.82558 0.96491 0.33805 -0.04000
C 	C 	0.82329 0.00589 0.31001 -0.05000
C 	C 	0.85941 0.06382 0.31842 0.00200
C 	C 	0.89882 0.08161 0.35462 -0.06100
C 	C 	0.90254 0.04069 0.38172 -0.02500
H 	H 	0.86899 0.95167 0.39508 0.05500
H 	H 	0.79297 0.99289 0.28204 0.07100
H 	H 	0.85637 0.09484 0.29699 0.04400
H 	H 	0.93367 0.05375 0.40909 0.04700
C 	C 	0.66984 0.66192 0.14521 -0.01600
C 	C 	0.61696 0.64545 0.12497 -0.02000
C 	C 	0.58037 0.66169 0.14543 -0.01600
C 	C 	0.59676 0.69415 0.18591 -0.01700
C 	C 	0.64974 0.71038 0.20609 -0.02000
C 	C 	0.68606 0.69405 0.18549 -0.01600
H 	H 	0.69894 0.65065 0.12929 0.05300
H 	H 	0.53959 0.64960 0.12992 0.06200
H 	H 	0.56818 0.70622 0.20166 0.06200
H 	H 	0.72658 0.70536 0.20117 0.05300
C 	C 	0.80864 0.53814 0.01406 -0.00600
C 	C 	0.76903 0.51644 0.97800 -0.06100
C 	C 	0.76502 0.47159 0.95101 -0.01500
C 	C 	0.80125 0.44976 0.95927 0.00100
C 	C 	0.84204 0.47267 0.99452 -0.08800
C 	C 	0.84466 0.51619 0.02244 0.00900
H 	H 	0.81193 0.57238 0.03539 0.05100
H 	H 	0.73374 0.45347 0.92376 0.05000
H 	H 	0.79821 0.41579 0.93772 0.05300
H 	H 	0.87515 0.53357 0.05030 0.04700
C 	C 	0.28091 0.48394 0.98398 -0.01500
C 	C 	0.26244 0.50312 0.02142 -0.05000
C 	C 	0.30289 0.54634 0.04988 -0.00700
C 	C 	0.36109 0.56882 0.04176 -0.01500
C 	C 	0.37948 0.54826 0.00514 -0.03600
C 	C 	0.33900 0.50661 0.97571 -0.02300
H 	H 	0.25029 0.45105 0.96148 0.05100
H 	H 	0.28933 0.56260 0.07824 0.05000
H 	H 	0.39173 0.60131 0.06451 0.05800
H 	H 	0.35255 0.49111 0.94682 0.05400
C 	C 	0.68273 0.60747 0.81231 -0.01700
C 	C 	0.69738 0.65981 0.79167 -0.02000
C 	C 	0.67970 0.69524 0.81191 -0.01600
C 	C 	0.64800 0.67889 0.85241 -0.01700
C 	C 	0.63327 0.62672 0.87321 -0.02000
C 	C 	0.65066 0.59092 0.85299 -0.01700
H 	H 	0.69579 0.57954 0.79680 0.06200
H 	H 	0.68975 0.73520 0.79585 0.05300
H 	H 	0.63579 0.70740 0.86808 0.05300
H 	H 	0.63976 0.55064 0.86885 0.06100
C 	C 	0.80350 0.95914 0.68050 0.01900
C 	C 	0.82405 0.94085 0.64388 -0.07200
C 	C 	0.86798 0.98141 0.61600 0.01800
C 	C 	0.89001 0.03954 0.62398 -0.03700
C 	C 	0.86826 0.05778 0.65985 -0.04900
C 	C 	0.82567 0.01718 0.68860 -0.03700
H 	H 	0.76998 0.92842 0.70250 0.04600
H 	H 	0.88522 0.96797 0.58826 0.04500
H 	H 	0.92321 0.07025 0.60174 0.05800
H 	H 	0.80918 0.03058 0.71691 0.05400
C 	C 	0.83904 0.52373 0.64346 -0.00700
C 	C 	0.79635 0.52170 0.67211 -0.06400
C 	C 	0.77465 0.48183 0.70807 -0.00700
C 	C 	0.79685 0.44591 0.71624 -0.01100
C 	C 	0.84089 0.44934 0.68847 -0.05600
C 	C 	0.86139 0.48805 0.65176 -0.01100
H 	H 	0.85549 0.55353 0.61509 0.05000
H 	H 	0.74138 0.47932 0.73023 0.05500
H 	H 	0.77965 0.41532 0.74403 0.05000
H 	H 	0.89500 0.49089 0.62984 0.04900
C 	C 	0.66405 0.65981 0.51927 -0.01600
C 	C 	0.71668 0.69618 0.53987 -0.02000
C 	C 	0.75380 0.74875 0.51930 -0.01700
C 	C 	0.73815 0.76463 0.47833 -0.01700
C 	C 	0.68537 0.72796 0.45785 -0.01900
C 	C 	0.64857 0.67551 0.47852 -0.01600
H 	H 	0.63457 0.61962 0.53526 0.05300
H 	H 	0.79443 0.77737 0.53506 0.06200
H 	H 	0.76712 0.80508 0.46250 0.06200
H 	H 	0.60822 0.64636 0.46260 0.05300
C 	C 	0.43513 0.81029 0.28509 -0.01100
C 	C 	0.43715 0.85189 0.31508 -0.05300
C 	C 	0.47476 0.86998 0.35254 -0.01000
C 	C 	0.51094 0.84787 0.35931 -0.00500
C 	C 	0.51043 0.80781 0.32843 -0.06300
C 	C 	0.47152 0.78831 0.29176 -0.00500
H 	H 	0.40536 0.79490 0.25666 0.05200
H 	H 	0.47646 0.90164 0.37617 0.05200
H 	H 	0.54001 0.86256 0.38821 0.05200
H 	H 	0.47023 0.75707 0.26787 0.05600
C 	C 	0.02999 0.90638 0.37214 0.01900
C 	C 	0.04857 0.88579 0.33566 -0.07500
C 	C 	0.00820 0.84376 0.30642 0.01900
C 	C 	0.95005 0.82051 0.31490 -0.03400
C 	C 	0.93143 0.83950 0.35239 -0.04200
C 	C 	0.97176 0.88332 0.38049 -0.03400
H 	H 	0.06052 0.93924 0.39471 0.05400
H 	H 	0.02187 0.82826 0.27760 0.04800
H 	H 	0.91952 0.78725 0.29261 0.05500
H 	H 	0.95807 0.89952 0.40881 0.05500
C 	C 	0.13462 0.11390 0.38300 -0.01000
C 	C 	0.17935 0.11831 0.35556 -0.05700
C 	C 	0.20016 0.15774 0.31936 -0.01000
C 	C 	0.17749 0.19323 0.31130 -0.00700
C 	C 	0.13411 0.19022 0.33967 -0.06200
C 	C 	0.11208 0.14958 0.37506 -0.00700
H 	H 	0.11717 0.08274 0.41038 0.04800
H 	H 	0.23427 0.16132 0.29768 0.05000
H 	H 	0.19422 0.22362 0.28335 0.05200
H 	H 	0.07826 0.14626 0.39697 0.05700
C 	C 	0.15472 0.68281 0.35479 -0.00600
C 	C 	0.19995 0.72380 0.32820 -0.06200
C 	C 	0.22422 0.70598 0.29400 -0.00700
C 	C 	0.20236 0.64797 0.28561 -0.01000
C 	C 	0.15614 0.60708 0.31142 -0.05500
C 	C 	0.13281 0.62486 0.34631 -0.00900
H 	H 	0.13614 0.69583 0.38179 0.05300
H 	H 	0.25943 0.73696 0.27345 0.05700
H 	H 	0.22163 0.63486 0.25925 0.05000
H 	H 	0.09742 0.59382 0.36668 0.05200
C 	C 	0.39362 0.01758 0.16428 -0.03300
C 	C 	0.36446 0.98456 0.12603 0.01000
C 	C 	0.30885 0.93844 0.13133 -0.02100
C 	C 	0.28202 0.92685 0.17424 -0.01200
C 	C 	0.31060 0.96118 0.21208 -0.00500
C 	C 	0.36670 0.00625 0.20704 -0.03200
H 	H 	0.43657 0.05305 0.16066 0.05600
H 	H 	0.28578 0.91258 0.10206 0.05500
H 	H 	0.23882 0.89185 0.17777 0.05900
H 	H 	0.38917 0.03311 0.23608 0.05100
C 	C 	0.19000 0.72847 0.98475 -0.01500
C 	C 	0.23115 0.74648 0.01962 -0.04900
C 	C 	0.23622 0.70576 0.04589 -0.00700
C 	C 	0.19937 0.64770 0.03830 -0.01500
C 	C 	0.15691 0.62970 0.00441 -0.03300
C 	C 	0.15336 0.67048 0.97701 -0.02400
H 	H 	0.18595 0.75935 0.96393 0.05100
H 	H 	0.26875 0.71902 0.07213 0.05000
H 	H 	0.20327 0.61686 0.05931 0.05900
H 	H 	0.12164 0.65729 0.95010 0.05600
C 	C 	0.63730 0.20788 0.96040 0.00200
C 	C 	0.61910 0.16870 0.99686 -0.09000
C 	C 	0.65972 0.16730 0.02595 0.00900
C 	C 	0.71777 0.20257 0.01741 -0.00700
C 	C 	0.73604 0.24028 0.98001 -0.06100
C 	C 	0.69545 0.24342 0.95200 -0.01500
H 	H 	0.60655 0.20992 0.93792 0.05200
H 	H 	0.64630 0.13806 0.05472 0.04500
H 	H 	0.74851 0.20006 0.03960 0.05000
H 	H 	0.70887 0.27335 0.92372 0.05000
C 	C 	0.47042 0.29119 0.01768 -0.00200
C 	C 	0.48918 0.27191 0.98050 -0.06300
C 	C 	0.53221 0.31172 0.95154 -0.01100
C 	C 	0.55493 0.37007 0.95891 -0.00600
C 	C 	0.53478 0.38929 0.99525 -0.07100
C 	C 	0.49328 0.34947 0.02516 0.00200
H 	H 	0.43768 0.26106 0.04055 0.05100
H 	H 	0.54813 0.29752 0.92336 0.05000
H 	H 	0.58729 0.40017 0.93579 0.05500
H 	H 	0.47807 0.36366 0.05383 0.05000
C 	C 	0.46276 0.77648 0.04607 -0.00500
C 	C 	0.50948 0.78248 0.02062 -0.05100
C 	C 	0.53300 0.82394 0.98601 -0.01300
C 	C 	0.51090 0.85985 0.97759 -0.02500
C 	C 	0.46530 0.85509 0.00397 -0.03200
C 	C 	0.44069 0.81246 0.03773 -0.01600
H 	H 	0.44328 0.74373 0.07211 0.04900
H 	H 	0.56872 0.82872 0.96587 0.05000
H 	H 	0.52969 0.89178 0.95087 0.05700
H 	H 	0.40504 0.80766 0.05799 0.06100
C 	C 	0.31268 0.01142 0.81531 -0.07000
C 	C 	0.34985 0.06343 0.79420 -0.00100
C 	C 	0.40336 0.09935 0.81392 -0.03200
C 	C 	0.41958 0.08291 0.85428 -0.00100
C 	C 	0.38227 0.03057 0.87507 -0.05000
C 	C 	0.32874 0.99517 0.85547 0.03800
H 	H 	0.27166 0.98290 0.80007 0.07700
H 	H 	0.43247 0.13960 0.79787 0.06500
H 	H 	0.46084 0.11089 0.86937 0.05800
H 	H 	0.29908 0.95527 0.87175 0.04200
C 	C 	0.63605 0.21579 0.71651 -0.01100
C 	C 	0.59518 0.17133 0.68922 -0.05700
C 	C 	0.61307 0.15032 0.65265 -0.01100
C 	C 	0.67104 0.17257 0.64404 -0.00700
C 	C 	0.71197 0.21565 0.67225 -0.06400
C 	C 	0.69411 0.23788 0.70803 -0.00700
H 	H 	0.62292 0.23339 0.74417 0.05000
H 	H 	0.58210 0.11640 0.63108 0.04900
H 	H 	0.68413 0.15571 0.61578 0.04900
H 	H 	0.72507 0.27150 0.72982 0.05500
C 	C 	0.13546 0.12022 0.62525 -0.00600
C 	C 	0.17528 0.14219 0.66123 -0.06500
C 	C 	0.17718 0.18496 0.68966 -0.00600
C 	C 	0.14140 0.20713 0.68112 -0.01100
C 	C 	0.10269 0.18632 0.64441 -0.05500
C 	C 	0.09942 0.14222 0.61685 -0.01200
H 	H 	0.13306 0.08688 0.60325 0.05300
H 	H 	0.20696 0.20162 0.71804 0.05000
H 	H 	0.14412 0.24080 0.70288 0.05100
H 	H 	0.06884 0.12481 0.58906 0.05100
C 	C 	0.05116 0.87029 0.68307 0.01300
C 	C 	0.06983 0.90826 0.64584 -0.06500
C 	C 	0.02955 0.91105 0.61718 0.01300
C 	C 	0.97133 0.87512 0.62494 -0.02800
C 	C 	0.95273 0.83590 0.66138 -0.05200
C 	C 	0.99302 0.83462 0.69095 -0.02800
H 	H 	0.08166 0.86798 0.70569 0.04900
H 	H 	0.04328 0.94109 0.58897 0.05000
H 	H 	0.94083 0.87704 0.60206 0.06000
H 	H 	0.97931 0.80534 0.71969 0.05400
C 	C 	0.52924 0.31758 0.70876 -0.00600
C 	C 	0.48965 0.29905 0.67259 -0.06400
C 	C 	0.48802 0.33939 0.64330 -0.00600
C 	C 	0.52375 0.39749 0.65121 -0.01000
C 	C 	0.56211 0.41608 0.68818 -0.05600
C 	C 	0.56522 0.37577 0.71655 -0.01100
H 	H 	0.53146 0.28706 0.73141 0.05500
H 	H 	0.45845 0.32574 0.61475 0.05100
H 	H 	0.52119 0.42802 0.62882 0.05100
H 	H 	0.59556 0.38945 0.74455 0.05000
C 	C 	0.34897 0.02446 0.52329 -0.04500
C 	C 	0.31383 0.04293 0.54283 -0.00700
C 	C 	0.26157 0.02822 0.52197 -0.04500
C 	C 	0.24494 0.99547 0.48163 0.01300
C 	C 	0.28057 0.97746 0.46206 -0.03200
C 	C 	0.33249 0.99200 0.48323 0.01300
H 	H 	0.38880 0.03447 0.53961 0.05600
H 	H 	0.23377 0.04174 0.53702 0.06500
H 	H 	0.20478 0.98460 0.46554 0.06000
H 	H 	0.36083 0.97923 0.46806 0.04900
