data_crystal

_cell_length_a 20.53893
_cell_length_b 21.42038
_cell_length_c 27.98788
_cell_angle_alpha 60.81757
_cell_angle_beta  118.86770
_cell_angle_gamma 133.24857

_symmetry_space_group_name_	'P 1'
_symmetry_space_group_name_H-M	'P 1'

loop_
_symmetry_equiv_pos_as_xyz
  x,y,z

loop_
_atom_site_label
_atom_site_type_symbol
_atom_site_fract_x
_atom_site_fract_y
_atom_site_fract_z
_atom_site_charge
N 	N 	0.64497 0.25668 0.00854 -0.12400
C 	C 	0.60671 0.28238 0.01619 0.16500
N 	N 	0.65947 0.36291 0.02545 -0.13100
N 	N 	0.63865 0.19732 0.57206 -0.13900
C 	C 	0.61333 0.21908 0.59501 0.15400
N 	N 	0.66885 0.30225 0.60066 -0.12000
C 	C 	0.29547 0.67321 0.21704 0.15100
N 	N 	0.25573 0.58751 0.22135 -0.13000
C 	C 	0.28706 0.57024 0.19917 0.15200
N 	N 	0.35454 0.63803 0.17131 -0.12400
C 	C 	0.40148 0.72166 0.17317 0.15400
N 	N 	0.36979 0.74004 0.19380 -0.11400
C 	C 	0.27091 0.63907 0.72839 0.15300
N 	N 	0.36281 0.68783 0.73297 -0.12500
C 	C 	0.39556 0.65800 0.72362 0.15900
N 	N 	0.33754 0.57895 0.71124 -0.13000
C 	C 	0.24626 0.53111 0.70456 0.15600
N 	N 	0.21192 0.56165 0.71194 -0.11200
Co	Co	0.08744 0.03729 0.05632 1.15400
Co	Co	0.03465 0.11029 0.10500 1.18700
C 	C 	0.27025 0.06671 0.08001 0.22600
Co	Co	0.10203 0.89456 0.05836 1.18100
O 	O 	0.09398 0.14181 0.04785 -0.45300
C 	C 	0.12175 0.22453 0.18641 0.30900
C 	C 	0.10642 0.79202 0.17805 0.32500
O 	O 	0.12682 0.99436 0.98510 -0.29500
O 	O 	0.06373 0.15465 0.21781 -0.35800
O 	O 	0.13202 0.21705 0.14563 -0.35000
O 	O 	0.07828 0.78675 0.12645 -0.38200
O 	O 	0.08346 0.82449 0.19216 -0.33600
O 	O 	0.06159 0.93515 0.08695 -0.71300
O 	O 	0.23171 0.98098 0.09886 -0.31000
O 	O 	0.22851 0.10088 0.07054 -0.36600
Co	Co	0.05624 0.01247 0.55331 1.15500
C 	C 	0.24402 0.05150 0.57854 0.23200
Co	Co	0.08081 0.87344 0.56092 1.19400
O 	O 	0.05114 0.11209 0.53951 -0.44100
C 	C 	0.06176 0.22156 0.64055 0.35500
C 	C 	0.11019 0.79328 0.68332 0.31600
O 	O 	0.09714 0.96469 0.48402 -0.33700
O 	O 	0.08654 0.18597 0.63125 -0.37200
O 	O 	0.07128 0.77635 0.63437 -0.37200
O 	O 	0.09510 0.83505 0.69475 -0.34300
O 	O 	0.03395 0.91194 0.58561 -0.71000
O 	O 	0.21172 0.96746 0.59486 -0.30700
O 	O 	0.19908 0.07703 0.57726 -0.37300
C 	C 	0.17266 0.45393 0.63138 -0.05400
C 	C 	0.18571 0.44807 0.68718 -0.00700
C 	C 	0.17098 0.37005 0.72855 0.10400
C 	C 	0.14628 0.30069 0.71436 -0.01400
C 	C 	0.12974 0.30519 0.65823 -0.09400
C 	C 	0.14794 0.38442 0.61730 0.14900
Br	Br	0.14006 0.39907 0.54183 -0.17900
H 	H 	0.18752 0.51492 0.59954 0.09500
H 	H 	0.13401 0.24072 0.74655 0.07700
Br	Br	0.18733 0.35822 0.80534 -0.16600
C 	C 	0.50585 0.74382 0.66570 -0.05500
C 	C 	0.49059 0.71564 0.71861 -0.01700
C 	C 	0.56149 0.72258 0.76709 0.10400
C 	C 	0.64675 0.75855 0.76222 -0.01200
C 	C 	0.66294 0.78958 0.70908 -0.08700
C 	C 	0.59043 0.77799 0.66102 0.14100
Br	Br	0.60559 0.80810 0.58860 -0.15100
H 	H 	0.45030 0.73526 0.62839 0.09100
Br	Br	0.54283 0.68238 0.84043 -0.16600
C 	C 	0.10980 0.66162 0.74084 -0.01100
C 	C 	0.16009 0.75437 0.72645 -0.07300
C 	C 	0.25448 0.80474 0.73080 0.13600
C 	C 	0.29082 0.76685 0.73239 -0.05500
C 	C 	0.23523 0.67567 0.73582 -0.00700
C 	C 	0.14671 0.62178 0.74572 0.10600
Br	Br	0.08005 0.49557 0.77302 -0.15000
H 	H 	0.03894 0.62067 0.74294 0.08400
H 	H 	0.36171 0.80870 0.73012 0.09600
Br	Br	0.33355 0.92635 0.73167 -0.14700
C 	C 	0.15310 0.41297 0.20033 -0.06900
C 	C 	0.24735 0.47818 0.20437 -0.00900
C 	C 	0.30127 0.45794 0.20578 0.10100
C 	C 	0.25846 0.37812 0.19511 -0.01200
C 	C 	0.16376 0.31300 0.19033 -0.08700
C 	C 	0.11177 0.32940 0.19643 0.17300
H 	H 	0.11150 0.42673 0.20072 0.09500
H 	H 	0.29996 0.36460 0.19429 0.07500
Br	Br	0.43312 0.53191 0.22998 -0.18000
C 	C 	0.65086 0.82432 0.20737 -0.00300
C 	C 	0.59289 0.85006 0.10606 0.16100
C 	C 	0.50991 0.81699 0.11250 -0.05600
C 	C 	0.49590 0.78520 0.16635 -0.00300
C 	C 	0.56789 0.79077 0.21392 0.10800
Br	Br	0.55201 0.74747 0.28862 -0.15600
H 	H 	0.45406 0.81066 0.07577 0.09300
Br	Br	0.60554 0.88320 0.03217 -0.17100
C 	C 	0.25214 0.80773 0.23294 -0.01700
C 	C 	0.15572 0.75236 0.22063 -0.08000
C 	C 	0.11098 0.66192 0.22845 0.16800
C 	C 	0.15786 0.63377 0.23121 -0.06700
C 	C 	0.25214 0.69410 0.23207 -0.00800
C 	C 	0.30094 0.77864 0.23971 0.10500
Br	Br	0.43226 0.85009 0.26633 -0.12300
H 	H 	0.28889 0.87518 0.23338 0.10100
H 	H 	0.12020 0.56606 0.23075 0.09400
Br	Br	0.61025 0.00610 0.48118 -0.21900
H 	H 	0.60400 0.13121 0.49436 0.07800
Br	Br	0.58414 0.40302 0.54156 -0.18600
Br	Br	0.02306 0.70426 0.54485 -0.21700
C 	C 	0.40529 0.13007 0.63038 -0.02700
C 	C 	0.34141 0.11637 0.57856 -0.06100
C 	C 	0.36916 0.13833 0.53237 0.12400
C 	C 	0.45401 0.15913 0.54027 -0.05300
C 	C 	0.51619 0.16742 0.59304 -0.02700
C 	C 	0.49112 0.15240 0.63838 0.11000
Br	Br	0.57311 0.16115 0.71170 -0.20100
H 	H 	0.38552 0.11653 0.66573 0.07600
H 	H 	0.47458 0.17562 0.50431 0.07900
Br	Br	0.29291 0.14291 0.45779 -0.22600
C 	C 	0.50977 0.16518 0.08415 -0.04100
C 	C 	0.51615 0.21676 0.02884 -0.05700
C 	C 	0.44202 0.22047 0.99084 0.15800
C 	C 	0.36347 0.17470 0.00882 -0.09400
C 	C 	0.35822 0.12512 0.06463 -0.05100
C 	C 	0.43261 0.12173 0.10266 0.11400
Br	Br	0.43423 0.06615 0.18120 -0.23300
H 	H 	0.56776 0.16400 0.11391 0.08200
H 	H 	0.30571 0.17628 0.97909 0.10000
Br	Br	0.44735 0.28833 0.91431 -0.18700
Br	Br	0.63692 0.09405 0.06735 -0.23300
O 	O 	0.03714 0.99306 0.13165 -0.50600
C 	C 	0.06369 0.00683 0.95165 0.21800
C 	C 	0.03322 0.97579 0.45061 0.27700
O 	O 	0.00094 0.99406 0.46984 -0.29700
C 	C 	0.03258 0.00295 0.89249 -0.03100
C 	C 	0.00044 0.96914 0.39194 0.08700
O 	O 	0.02784 0.01939 0.97249 -0.34800
C 	C 	0.01564 0.00023 0.84448 0.00400
C 	C 	0.66462 0.85557 0.15364 -0.10100
H 	H 	0.70221 0.76683 0.79955 0.07700
C 	C 	0.67633 0.15947 0.50559 -0.06400
C 	C 	0.71233 0.26165 0.54820 0.14200
H 	H 	0.70622 0.82930 0.24417 0.07300
C 	C 	0.73760 0.30704 0.01628 0.14900
C 	C 	0.71632 0.48058 0.56047 0.10400
H 	H 	0.71893 0.57646 0.56960 0.07900
C 	C 	0.73154 0.36820 0.56920 0.14900
C 	C 	0.70254 0.11435 0.50482 0.13700
C 	C 	0.73542 0.17917 0.02892 0.10900
H 	H 	0.73854 0.07809 0.03367 0.07600
C 	C 	0.74255 0.23650 0.52583 -0.02100
C 	C 	0.75125 0.41610 0.03091 0.15200
N 	N 	0.75441 0.34820 0.54287 -0.12100
C 	C 	0.75896 0.91558 0.14741 0.37700
C 	C 	0.75806 0.85638 0.70299 0.32700
C 	C 	0.75943 0.56265 0.56779 -0.01900
C 	C 	0.76951 0.46045 0.56083 -0.01500
C 	C 	0.77961 0.27175 0.01501 -0.03600
C 	C 	0.77309 0.14856 0.02320 -0.02900
Br	Br	0.02156 0.37969 0.98051 -0.13700
N 	N 	0.79147 0.38803 0.02715 -0.13200
O 	O 	0.79927 0.00106 0.13385 -0.43500
O 	O 	0.79734 0.88375 0.14834 -0.37300
O 	O 	0.79556 0.02963 0.59987 -0.39000
O 	O 	0.80866 0.92694 0.72098 -0.36800
O 	O 	0.79413 0.84154 0.68497 -0.35500
C 	C 	0.79575 0.14780 0.52242 -0.09100
C 	C 	0.80544 0.50456 0.03981 -0.04000
H 	H 	0.78241 0.45113 0.12291 0.08500
Br	Br	0.78674 0.57471 0.14621 -0.18400
C 	C 	0.80475 0.50925 0.08812 -0.05500
Br	Br	0.82916 0.57574 0.92623 -0.19800
C 	C 	0.82791 0.57833 0.99339 0.11700
C 	C 	0.82141 0.08574 0.55256 0.31600
C 	C 	0.83685 0.27715 0.53431 0.10300
C 	C 	0.84627 0.65377 0.99473 -0.00800
C 	C 	0.84950 0.66019 0.04377 -0.09600
C 	C 	0.82173 0.58453 0.08914 0.13800
Br	Br	0.98501 0.57716 0.23249 -0.22800
O 	O 	0.99604 0.07212 0.74680 -0.38200
Co	Co	0.98539 0.84475 0.64194 1.17100
C 	C 	0.94853 0.95802 0.28530 0.31600
Co	Co	0.98668 0.07868 0.59419 1.16900
O 	O 	0.97494 0.18259 0.63399 -0.42900
C 	C 	0.99798 0.00570 0.78501 0.18800
H 	H 	0.86258 0.70956 0.95824 0.07700
Co	Co	0.93666 0.93266 0.18118 1.19500
Co	Co	0.99475 0.86133 0.13449 1.16800
Co	Co	0.92828 0.08136 0.17793 1.17100
C 	C 	0.90603 0.75065 0.05166 0.30400
O 	O 	0.95767 0.18892 0.10890 -0.39000
O 	O 	0.97409 0.03894 0.15569 -0.80400
C 	C 	0.92468 0.17854 0.05841 0.31900
O 	O 	0.92592 0.82669 0.18713 -0.44100
O 	O 	0.93469 0.13207 0.04786 -0.39600
O 	O 	0.89295 0.97968 0.24970 -0.36500
O 	O 	0.97857 0.93583 0.26728 -0.35100
O 	O 	0.96617 0.81656 0.02056 -0.40400
O 	O 	0.89160 0.76575 0.08580 -0.35400
Co	Co	0.93430 0.92011 0.69098 1.19700
Co	Co	0.89178 0.05220 0.67505 1.16000
C 	C 	0.89391 0.71891 0.56831 0.29900
O 	O 	0.93882 0.01245 0.65117 -0.78500
O 	O 	0.94070 0.82080 0.70484 -0.44500
O 	O 	0.96778 0.95296 0.61128 -0.55400
O 	O 	0.88444 0.09940 0.53831 -0.37000
O 	O 	0.99928 0.95405 0.77119 -0.30200
O 	O 	0.94305 0.78634 0.53145 -0.38300
O 	O 	0.88826 0.73076 0.60904 -0.36500
C 	C 	0.97858 0.96215 0.34430 -0.08100
Br	Br	0.98673 0.23865 0.20421 -0.32400
C 	C 	0.86191 0.23472 0.52874 -0.02500
H 	H 	0.93378 0.26572 0.53525 0.08000
Br	Br	0.93298 0.38612 0.55745 -0.21900
C 	C 	0.85259 0.62928 0.56778 -0.08100
C 	C 	0.90270 0.61235 0.56021 0.11700
C 	C 	0.86211 0.52713 0.56005 -0.05600
H 	H 	0.90276 0.51321 0.55860 0.09100
C 	C 	0.86191 0.33019 0.99706 -0.03300
C 	C 	0.86403 0.20635 0.01815 -0.09500
C 	C 	0.90400 0.29775 0.99857 0.12300
H 	H 	0.89457 0.40070 0.98341 0.08100
