data_crystal

_cell_length_a 28.73468
_cell_length_b 26.61471
_cell_length_c 36.85935
_cell_angle_alpha 89.93683
_cell_angle_beta  89.92707
_cell_angle_gamma 90.87059

_symmetry_space_group_name_	'P 1'
_symmetry_space_group_name_H-M	'P 1'

loop_
_symmetry_equiv_pos_as_xyz
  x,y,z

loop_
_atom_site_label
_atom_site_type_symbol
_atom_site_fract_x
_atom_site_fract_y
_atom_site_fract_z
_atom_site_charge
Zn	Zn	0.52396 0.54712 0.97151 1.21900
C 	C 	0.57763 0.45873 0.96052 0.30500
O 	O 	0.56417 0.60273 0.95567 -0.47600
O 	O 	0.56154 0.46018 0.92703 -0.44700
O 	O 	0.60505 0.56016 0.91344 -0.49400
C 	C 	0.45758 0.50205 0.92498 0.32300
O 	O 	0.47955 0.49781 0.95565 -0.46900
O 	O 	0.47994 0.51930 0.89643 -0.49600
C 	C 	0.60279 0.59585 0.93776 0.31200
O 	O 	0.46257 0.60329 0.97061 -0.33700
Zn	Zn	0.54854 0.52453 0.89765 1.16500
O 	O 	0.57120 0.49672 0.98300 -0.43300
C 	C 	0.46510 0.60275 0.00565 0.26700
O 	O 	0.49701 0.57427 0.01936 -0.38000
Zn	Zn	0.24743 0.29367 0.93889 1.22200
C 	C 	0.27330 0.30500 0.01451 0.33600
O 	O 	0.17940 0.29255 0.93852 -0.47200
O 	O 	0.26685 0.35363 0.01143 -0.45000
O 	O 	0.16827 0.33091 0.99247 -0.48800
C 	C 	0.29183 0.38987 0.93121 0.31900
O 	O 	0.29836 0.34163 0.93550 -0.45700
O 	O 	0.25163 0.40936 0.93980 -0.50300
C 	C 	0.15680 0.29554 0.96931 0.30700
O 	O 	0.24987 0.28965 0.87483 -0.32600
Zn	Zn	0.21408 0.38279 0.97996 1.17100
O 	O 	0.25759 0.27380 0.98959 -0.44400
C 	C 	0.26350 0.24385 0.87965 0.29800
O 	O 	0.26558 0.22955 0.91314 -0.38900
C 	C 	0.49569 0.07964 0.27807 0.14400
C 	C 	0.46666 0.11117 0.25783 -0.11200
H 	H 	0.44296 0.13603 0.27165 0.07400
C 	C 	0.46844 0.11026 0.21976 0.07000
C 	C 	0.49878 0.07764 0.20208 -0.10100
C 	C 	0.52749 0.04608 0.22221 0.07400
C 	C 	0.52622 0.04734 0.26013 -0.11500
H 	H 	0.54859 0.02306 0.27578 0.07200
N 	N 	0.49384 0.07975 0.31709 -0.18200
C 	C 	0.47273 0.04017 0.33482 0.19800
C 	C 	0.47956 0.03337 0.37232 -0.08700
C 	C 	0.50594 0.06911 0.39175 0.06200
C 	C 	0.52415 0.11160 0.37370 -0.08100
C 	C 	0.51749 0.11645 0.33599 0.19700
C 	C 	0.46216 0.99034 0.39021 0.01400
C 	C 	0.47029 0.98338 0.42723 -0.05500
C 	C 	0.49412 0.02063 0.44760 0.01300
C 	C 	0.51463 0.06205 0.42916 -0.03000
C 	C 	0.54414 0.09622 0.44787 0.01600
C 	C 	0.54926 0.14817 0.39340 0.01000
C 	C 	0.55847 0.14104 0.43026 -0.05800
C 	C 	0.49965 0.01641 0.48580 0.01200
C 	C 	0.53285 0.04746 0.50360 -0.02900
C 	C 	0.55703 0.08566 0.48426 0.01500
O 	O 	0.53556 0.15541 0.31857 -0.20300
O 	O 	0.44697 0.00764 0.31646 -0.20800
H 	H 	0.56142 0.18241 0.38034 0.04300
H 	H 	0.57492 0.17136 0.44523 0.04600
H 	H 	0.44339 0.96143 0.37531 0.04100
H 	H 	0.46014 0.94788 0.43937 0.04500
C 	C 	0.59468 0.11095 0.50126 -0.05800
C 	C 	0.60359 0.10357 0.53814 0.01000
C 	C 	0.57623 0.06951 0.55847 -0.08100
C 	C 	0.54158 0.04061 0.54103 0.06100
C 	C 	0.47144 0.98350 0.50678 -0.05400
C 	C 	0.47997 0.97722 0.54380 0.01300
C 	C 	0.51526 0.00538 0.56108 -0.08400
C 	C 	0.58246 0.06437 0.59621 0.19700
N 	N 	0.55459 0.03187 0.61572 -0.18200
C 	C 	0.52329 0.00052 0.59860 0.19400
C 	C 	0.55427 0.03477 0.65471 0.14400
C 	C 	0.58921 0.01155 0.67516 -0.11400
C 	C 	0.58807 0.01403 0.71320 0.06600
C 	C 	0.55194 0.03924 0.73064 -0.09800
C 	C 	0.51700 0.06205 0.71031 0.07100
C 	C 	0.51836 0.06020 0.67241 -0.11400
O 	O 	0.61394 0.09230 0.61304 -0.20400
O 	O 	0.49971 0.96665 0.61756 -0.19900
H 	H 	0.61683 0.99167 0.66152 0.07800
H 	H 	0.49140 0.07801 0.65660 0.07200
H 	H 	0.61834 0.13464 0.48582 0.04600
H 	H 	0.63206 0.12416 0.55074 0.04300
H 	H 	0.44141 0.96472 0.49509 0.04500
H 	H 	0.45812 0.95137 0.55917 0.04300
H 	H 	0.55087 0.04081 0.76006 0.05500
H 	H 	0.49994 0.07672 0.17266 0.05800
Zn	Zn	0.79759 0.81333 0.98937 1.22100
C 	C 	0.75404 0.81584 0.05997 0.34000
O 	O 	0.86479 0.81349 0.99877 -0.46800
O 	O 	0.75888 0.76688 0.06219 -0.45000
O 	O 	0.86114 0.78431 0.05648 -0.48800
C 	C 	0.75350 0.71689 0.98298 0.31900
O 	O 	0.74665 0.76543 0.98356 -0.45600
O 	O 	0.78928 0.69800 0.00006 -0.50500
C 	C 	0.88017 0.81433 0.03229 0.30500
O 	O 	0.80969 0.80624 0.92604 -0.32700
Zn	Zn	0.81716 0.73145 0.04225 1.16900
O 	O 	0.77707 0.84210 0.03548 -0.44600
C 	C 	0.79662 0.85268 0.92464 0.29700
O 	O 	0.78743 0.87274 0.95574 -0.38700
Zn	Zn	0.22331 0.70988 0.04832 1.22000
C 	C 	0.19489 0.70269 0.12312 0.33800
O 	O 	0.20660 0.77727 0.03087 -0.46000
O 	O 	0.23523 0.72303 0.13204 -0.45000
O 	O 	0.20713 0.81098 0.08752 -0.49500
C 	C 	0.31580 0.69712 0.07392 0.31700
O 	O 	0.27498 0.67511 0.07068 -0.46000
O 	O 	0.31836 0.74518 0.08151 -0.50600
C 	C 	0.19396 0.81255 0.05348 0.30400
O 	O 	0.25891 0.69276 0.99179 -0.33400
Zn	Zn	0.26533 0.78040 0.10198 1.16800
O 	O 	0.18012 0.70422 0.08942 -0.44300
C 	C 	0.22249 0.66459 0.98608 0.30000
O 	O 	0.19217 0.66293 0.01202 -0.39400
C 	C 	0.95925 0.43486 0.35886 0.14600
C 	C 	0.92524 0.40696 0.33999 -0.11200
H 	H 	0.90561 0.37758 0.35384 0.07500
C 	C 	0.91778 0.41617 0.30303 0.07200
C 	C 	0.94368 0.45372 0.28519 -0.10000
C 	C 	0.97810 0.48096 0.30380 0.07600
C 	C 	0.98570 0.47181 0.34069 -0.11000
H 	H 	0.01269 0.49247 0.35512 0.06900
N 	N 	0.96841 0.42428 0.39637 -0.18500
C 	C 	0.99777 0.38603 0.40526 0.21000
C 	C 	0.01244 0.37973 0.44139 -0.09800
C 	C 	0.99722 0.41339 0.46804 0.07900
C 	C 	0.96417 0.44966 0.45898 -0.08900
C 	C 	0.94992 0.45449 0.42264 0.20200
C 	C 	0.04115 0.33979 0.45127 0.01800
C 	C 	0.05631 0.33478 0.48702 -0.06500
C 	C 	0.04627 0.37209 0.51311 0.02400
C 	C 	0.01437 0.41015 0.50394 -0.04600
C 	C 	0.99810 0.44374 0.53070 0.03000
C 	C 	0.94520 0.47977 0.48633 0.01700
C 	C 	0.96071 0.47557 0.52204 -0.06500
C 	C 	0.06548 0.37075 0.54867 0.01100
C 	C 	0.04923 0.40450 0.57535 -0.02500
C 	C 	0.01785 0.44291 0.56600 0.00800
O 	O 	0.91952 0.48897 0.41367 -0.20300
O 	O 	0.01334 0.35597 0.37971 -0.21000
H 	H 	0.91751 0.50562 0.48023 0.04200
H 	H 	0.94197 0.49521 0.54297 0.04800
H 	H 	0.05065 0.31157 0.43155 0.03900
H 	H 	0.07365 0.30061 0.49454 0.04700
C 	C 	0.00865 0.48092 0.59171 -0.06000
C 	C 	0.02364 0.47607 0.62751 0.01000
C 	C 	0.05106 0.43527 0.63779 -0.08100
C 	C 	0.06572 0.40093 0.61141 0.06000
C 	C 	0.10203 0.33800 0.55781 -0.05600
C 	C 	0.11636 0.33301 0.59380 0.00900
C 	C 	0.09739 0.36349 0.62094 -0.08000
C 	C 	0.06466 0.42850 0.67409 0.19800
N 	N 	0.09182 0.38862 0.68354 -0.18300
C 	C 	0.11014 0.35778 0.65758 0.19700
C 	C 	0.09788 0.37667 0.72123 0.14600
C 	C 	0.13107 0.40315 0.74193 -0.11100
C 	C 	0.13173 0.39764 0.77974 0.07300
C 	C 	0.10085 0.36368 0.79653 -0.09800
C 	C 	0.06640 0.33899 0.77620 0.07500
C 	C 	0.06596 0.34413 0.73843 -0.11500
O 	O 	0.04984 0.45950 0.69933 -0.20400
O 	O 	0.13869 0.32179 0.66711 -0.20200
H 	H 	0.15402 0.43036 0.72886 0.07500
H 	H 	0.03877 0.32587 0.72263 0.07200
H 	H 	0.99198 0.51536 0.58384 0.04800
H 	H 	0.01478 0.50485 0.64700 0.04200
H 	H 	0.12111 0.31827 0.53713 0.04500
H 	H 	0.14323 0.30635 0.60028 0.04300
H 	H 	0.10056 0.36045 0.82590 0.06000
H 	H 	0.93836 0.46029 0.25644 0.05900
Zn	Zn	0.73848 0.21357 0.01487 1.22300
C 	C 	0.76979 0.23863 0.94198 0.34100
O 	O 	0.70489 0.27589 0.00788 -0.44700
O 	O 	0.72581 0.24049 0.93228 -0.45500
O 	O 	0.64318 0.23457 0.98257 -0.50300
C 	C 	0.74065 0.11985 0.97986 0.31200
O 	O 	0.72805 0.14145 0.01020 -0.48000
O 	O 	0.71788 0.13077 0.95024 -0.48400
C 	C 	0.66231 0.27616 0.99529 0.31900
O 	O 	0.71200 0.20832 0.07580 -0.32600
Zn	Zn	0.67676 0.18862 0.95033 1.16900
O 	O 	0.78164 0.22184 0.97415 -0.44600
C 	C 	0.75444 0.22137 0.08390 0.29700
O 	O 	0.78191 0.22891 0.05662 -0.39200
Zn	Zn	0.00313 0.04036 0.00894 1.22200
C 	C 	0.08349 0.97817 0.02008 0.30800
O 	O 	0.96878 0.02795 0.05350 -0.48900
O 	O 	0.09899 0.01785 0.03756 -0.45900
O 	O 	0.02165 0.98861 0.08691 -0.48200
C 	C 	0.06431 0.12196 0.01996 0.31200
O 	O 	0.05184 0.08755 0.99627 -0.44500
O 	O 	0.05527 0.11542 0.05475 -0.49700
C 	C 	0.98021 0.98875 0.07236 0.31500
O 	O 	0.95380 0.10689 0.99650 -0.32200
Zn	Zn	0.06053 0.04921 0.07833 1.16800
O 	O 	0.04098 0.97796 0.00643 -0.42800
C 	C 	0.93096 0.07615 0.97565 0.26700
O 	O 	0.95012 0.03257 0.97172 -0.38100
C 	C 	0.80984 0.04952 0.98053 -0.00400
H 	H 	0.78919 0.01460 0.98555 0.03800
C 	C 	0.84798 0.07134 0.00598 -0.01700
H 	H 	0.85926 0.05427 0.03197 0.04100
C 	C 	0.84225 0.05951 0.94730 -0.01700
H 	H 	0.84875 0.03279 0.92481 0.04100
C 	C 	0.87948 0.08167 0.97290 -0.05300
C 	C 	0.78993 0.10260 0.97643 -0.08000
C 	C 	0.82132 0.11271 0.94318 -0.00300
H 	H 	0.81016 0.12997 0.91723 0.03500
C 	C 	0.85915 0.13445 0.96869 -0.01100
H 	H 	0.87945 0.16963 0.96367 0.04800
C 	C 	0.82764 0.12426 0.00182 -0.00700
H 	H 	0.82222 0.15076 0.02458 0.03300
C 	C 	0.90789 0.31787 0.87620 -0.02400
H 	H 	0.90224 0.34864 0.89598 0.03500
C 	C 	0.87743 0.27027 0.87246 -0.01000
C 	C 	0.83732 0.25961 0.89582 0.05100
C 	C 	0.90771 0.32359 0.83442 -0.03600
H 	H 	0.90274 0.35926 0.81937 0.04000
C 	C 	0.87662 0.27574 0.83098 -0.02500
H 	H 	0.84524 0.27186 0.81360 0.03400
C 	C 	0.95179 0.28510 0.87387 -0.03600
H 	H 	0.98311 0.28896 0.89133 0.03900
C 	C 	0.95109 0.29062 0.83239 0.01600
C 	C 	0.99232 0.30428 0.81104 0.00200
C 	C 	0.92071 0.24294 0.82857 -0.03600
H 	H 	0.92648 0.21223 0.80878 0.04000
C 	C 	0.92078 0.23725 0.87046 -0.02400
H 	H 	0.92567 0.20162 0.88560 0.03700
C 	C 	0.02625 0.31841 0.79455 -0.04100
C 	C 	0.80559 0.25061 0.91625 -0.12300
C 	C 	0.79417 0.33852 0.18740 -0.02500
H 	H 	0.77347 0.36514 0.17103 0.03700
C 	C 	0.79908 0.28213 0.17972 -0.00300
C 	C 	0.77961 0.25772 0.14746 0.04200
C 	C 	0.84721 0.34227 0.19384 -0.03600
H 	H 	0.87062 0.37248 0.18325 0.03700
C 	C 	0.85190 0.28566 0.18585 -0.02600
H 	H 	0.87879 0.26876 0.16819 0.03600
C 	C 	0.78631 0.32641 0.22812 -0.03600
H 	H 	0.75959 0.34347 0.24585 0.04000
C 	C 	0.83918 0.32980 0.23410 0.01800
C 	C 	0.86425 0.35844 0.26194 -0.00700
C 	C 	0.84415 0.27339 0.22648 -0.03600
H 	H 	0.86497 0.24688 0.24285 0.03900
C 	C 	0.79083 0.26939 0.21992 -0.02500
H 	H 	0.76737 0.23909 0.23028 0.03800
C 	C 	0.88746 0.38391 0.28218 -0.03400
C 	C 	0.76656 0.23991 0.11917 -0.09500
C 	C 	0.16279 0.92949 0.01946 -0.01500
H 	H 	0.18461 0.96072 0.00838 0.03300
C 	C 	0.15838 0.87623 0.00278 -0.01200
H 	H 	0.17694 0.86306 0.97821 0.03900
C 	C 	0.16757 0.90646 0.05767 -0.01400
H 	H 	0.19356 0.91841 0.07832 0.01700
C 	C 	0.16289 0.85370 0.04108 -0.07300
C 	C 	0.10960 0.93041 0.02451 -0.07300
C 	C 	0.11433 0.90744 0.06266 -0.01700
H 	H 	0.09602 0.92025 0.08745 0.02200
C 	C 	0.10976 0.85428 0.04607 -0.00800
H 	H 	0.08811 0.82300 0.05726 0.03200
C 	C 	0.10461 0.87774 0.00765 -0.01000
H 	H 	0.07838 0.86630 0.98706 0.03800
C 	C 	0.16559 0.57125 0.87491 -0.02200
H 	H 	0.13975 0.60185 0.87499 0.03600
C 	C 	0.20706 0.56697 0.90092 -0.00900
C 	C 	0.21520 0.60262 0.93054 0.04000
C 	C 	0.15442 0.51495 0.88113 -0.04300
H 	H 	0.11916 0.49853 0.88582 0.03400
C 	C 	0.19601 0.51104 0.90743 -0.01900
H 	H 	0.19510 0.49228 0.93435 0.00700
C 	C 	0.19791 0.55782 0.84280 -0.03800
H 	H 	0.19858 0.57667 0.81591 0.04100
C 	C 	0.18685 0.50191 0.84942 0.02100
C 	C 	0.17190 0.46500 0.82230 -0.00800
C 	C 	0.22837 0.49748 0.87535 -0.04100
H 	H 	0.25403 0.46675 0.87483 0.04700
C 	C 	0.23972 0.55413 0.86930 -0.02300
H 	H 	0.27502 0.57056 0.86485 0.03500
C 	C 	0.15565 0.43426 0.80181 -0.03100
C 	C 	0.21943 0.63129 0.95561 -0.10300
C 	C 	0.11645 0.57022 0.24098 -0.03700
H 	H 	0.13843 0.54624 0.25843 0.03900
C 	C 	0.06309 0.57247 0.24241 0.01700
C 	C 	0.03334 0.54157 0.26604 -0.00700
C 	C 	0.11866 0.62844 0.23930 -0.02400
H 	H 	0.14307 0.65293 0.25483 0.03400
C 	C 	0.06475 0.63016 0.24115 -0.03800
H 	H 	0.04424 0.65544 0.25873 0.03700
C 	C 	0.11388 0.56788 0.19905 -0.02400
H 	H 	0.13434 0.54251 0.18148 0.03300
C 	C 	0.11562 0.62557 0.19773 -0.00900
C 	C 	0.14442 0.65409 0.17196 0.04900
C 	C 	0.06226 0.62778 0.19918 -0.02500
H 	H 	0.04024 0.65171 0.18172 0.03200
C 	C 	0.06015 0.56969 0.20084 -0.03800
H 	H 	0.03579 0.54523 0.18522 0.03400
C 	C 	0.16767 0.67667 0.14998 -0.11800
C 	C 	0.00838 0.51471 0.28406 -0.04000
C 	C 	0.91656 0.93830 0.03564 -0.01100
H 	H 	0.90331 0.97053 0.01980 0.04200
C 	C 	0.88652 0.90535 0.06126 -0.01200
H 	H 	0.84879 0.91028 0.06647 0.04200
C 	C 	0.93857 0.89101 0.01913 -0.01200
H 	H 	0.94396 0.88420 0.98972 0.04600
C 	C 	0.90870 0.85836 0.04475 -0.07000
C 	C 	0.95532 0.94008 0.06458 -0.08200
C 	C 	0.97745 0.89300 0.04813 -0.00500
H 	H 	0.01496 0.88778 0.04291 0.03700
C 	C 	0.94720 0.85963 0.07375 -0.01300
H 	H 	0.95969 0.82670 0.08924 0.03100
C 	C 	0.92542 0.90753 0.09034 -0.00600
H 	H 	0.92019 0.91462 0.11973 0.03000
C 	C 	0.69253 0.89296 0.78635 -0.03600
H 	H 	0.68074 0.86273 0.76761 0.03900
C 	C 	0.68116 0.94896 0.78263 0.01800
C 	C 	0.65057 0.97097 0.75520 -0.01000
C 	C 	0.68104 0.89593 0.82734 -0.02600
H 	H 	0.66017 0.86777 0.84287 0.03600
C 	C 	0.66932 0.95213 0.82324 -0.03700
H 	H 	0.63833 0.97061 0.83493 0.03500
C 	C 	0.74399 0.90757 0.79447 -0.02500
H 	H 	0.77502 0.88903 0.78293 0.03800
C 	C 	0.73195 0.91086 0.83505 -0.00200
C 	C 	0.75797 0.88992 0.86564 0.04100
C 	C 	0.72054 0.96685 0.83129 -0.02600
H 	H 	0.73224 0.99711 0.85004 0.03600
C 	C 	0.73207 0.96402 0.79024 -0.03600
H 	H 	0.75281 0.99224 0.77469 0.04000
C 	C 	0.77695 0.87288 0.89201 -0.09400
C 	C 	0.62319 0.99002 0.73477 -0.02900
C 	C 	0.61394 0.89404 0.16830 -0.03700
H 	H 	0.59149 0.87042 0.18620 0.03800
C 	C 	0.61373 0.95173 0.16647 0.01500
C 	C 	0.58335 0.98450 0.18744 0.00100
C 	C 	0.66794 0.89588 0.16881 -0.02500
H 	H 	0.69047 0.87311 0.18668 0.03500
C 	C 	0.66716 0.95409 0.16735 -0.03500
H 	H 	0.68850 0.97986 0.18445 0.04100
C 	C 	0.61459 0.89227 0.12626 -0.02500
H 	H 	0.59324 0.86653 0.10913 0.03400
C 	C 	0.66802 0.89463 0.12714 -0.00800
C 	C 	0.69840 0.86431 0.10428 0.05100
C 	C 	0.66773 0.95231 0.12537 -0.02400
H 	H 	0.69013 0.97603 0.10749 0.03900
C 	C 	0.61389 0.95039 0.12481 -0.03600
H 	H 	0.59141 0.97315 0.10688 0.03700
C 	C 	0.72363 0.84112 0.08453 -0.11800
C 	C 	0.55808 0.01226 0.20376 -0.04300
C 	C 	0.08760 0.25078 0.00785 -0.01500
H 	H 	0.07028 0.28483 0.01835 0.03100
C 	C 	0.11036 0.20951 0.03131 -0.00600
H 	H 	0.11153 0.20884 0.06141 0.02600
C 	C 	0.06433 0.20970 0.98384 -0.00600
H 	H 	0.02743 0.20907 0.97492 0.03700
C 	C 	0.08751 0.16916 0.00713 -0.07800
C 	C 	0.13024 0.25064 0.98261 -0.06900
C 	C 	0.10735 0.21028 0.95843 -0.01100
H 	H 	0.10625 0.21095 0.92833 0.04100
C 	C 	0.13013 0.16916 0.98189 -0.00300
H 	H 	0.14756 0.13518 0.97137 0.03800
C 	C 	0.15327 0.20999 0.00591 -0.02100
H 	H 	0.19005 0.21013 0.01505 0.04200
C 	C 	0.39964 0.19473 0.80173 -0.02600
H 	H 	0.41463 0.22924 0.81429 0.03400
C 	C 	0.34963 0.17482 0.80715 -0.00200
C 	C 	0.31632 0.19913 0.83129 0.04200
C 	C 	0.39493 0.18504 0.76046 -0.03600
H 	H 	0.40671 0.21107 0.73863 0.03900
C 	C 	0.34430 0.16550 0.76622 -0.02500
H 	H 	0.31373 0.17589 0.74959 0.04000
C 	C 	0.41769 0.14082 0.80729 -0.03700
H 	H 	0.44821 0.13050 0.82401 0.03300
C 	C 	0.41252 0.13143 0.76636 0.01700
C 	C 	0.44873 0.10710 0.74495 -0.00800
C 	C 	0.36253 0.11143 0.77173 -0.03600
H 	H 	0.34764 0.07688 0.75916 0.04000
C 	C 	0.36726 0.12121 0.81301 -0.02600
H 	H 	0.35557 0.09514 0.83484 0.03600
C 	C 	0.47946 0.08679 0.72857 -0.03500
C 	C 	0.29097 0.21939 0.85262 -0.09500
C 	C 	0.38968 0.18137 0.11106 -0.03800
H 	H 	0.40950 0.15001 0.09900 0.03500
C 	C 	0.38892 0.19545 0.15149 0.01800
C 	C 	0.41570 0.16725 0.17835 -0.00900
C 	C 	0.39603 0.23758 0.10127 -0.02400
H 	H 	0.42067 0.25299 0.08071 0.03500
C 	C 	0.39565 0.25138 0.14211 -0.03700
H 	H 	0.42035 0.27773 0.15568 0.04000
C 	C 	0.33620 0.18677 0.10979 -0.02600
H 	H 	0.31157 0.16032 0.09623 0.03000
C 	C 	0.34285 0.24268 0.10035 -0.00900
C 	C 	0.31772 0.26719 0.07074 0.04800
C 	C 	0.34197 0.25693 0.14076 -0.02500
H 	H 	0.32208 0.28832 0.15269 0.03400
C 	C 	0.33574 0.20050 0.15063 -0.03900
H 	H 	0.31115 0.18500 0.17119 0.03400
C 	C 	0.29738 0.28546 0.04546 -0.11800
C 	C 	0.43900 0.14221 0.19845 -0.03500
C 	C 	0.36723 0.42173 0.89351 -0.01100
H 	H 	0.36259 0.39832 0.86883 0.03500
C 	C 	0.40818 0.41834 0.92059 -0.00500
H 	H 	0.43806 0.39258 0.91811 0.03300
C 	C 	0.37117 0.48012 0.89427 -0.01000
H 	H 	0.37049 0.50515 0.87017 0.03200
C 	C 	0.41159 0.47601 0.92138 -0.07600
C 	C 	0.33325 0.42337 0.92577 -0.07600
C 	C 	0.33626 0.48112 0.92656 -0.01400
H 	H 	0.30645 0.50686 0.92942 0.03300
C 	C 	0.37726 0.47760 0.95350 -0.00900
H 	H 	0.38158 0.50078 0.97835 0.03600
C 	C 	0.37382 0.41981 0.95270 -0.00700
H 	H 	0.37478 0.39500 0.97693 0.04100
C 	C 	0.42275 0.68363 0.03067 -0.01600
H 	H 	0.44776 0.71213 0.01985 0.03500
C 	C 	0.40863 0.67767 0.07107 -0.00700
H 	H 	0.42128 0.70168 0.09372 0.02900
C 	C 	0.37130 0.67766 0.01922 -0.00700
H 	H 	0.35356 0.70172 0.99905 0.04300
C 	C 	0.35753 0.67141 0.05925 -0.07800
C 	C 	0.42812 0.62637 0.02795 -0.05500
C 	C 	0.37687 0.62027 0.01640 -0.01400
H 	H 	0.36377 0.59648 0.99376 0.04100
C 	C 	0.36285 0.61408 0.05665 -0.00600
H 	H 	0.33776 0.58559 0.06737 0.03600
C 	C 	0.41465 0.61982 0.06807 -0.01800
H 	H 	0.43288 0.59579 0.08799 0.04000
C 	C 	0.60609 0.39105 0.01196 -0.01400
H 	H 	0.59489 0.41001 0.03725 0.03900
C 	C 	0.65688 0.37692 0.00233 -0.00600
H 	H 	0.68775 0.38354 0.01987 0.04000
C 	C 	0.58893 0.33859 0.99867 -0.00600
H 	H 	0.56374 0.31356 0.01306 0.03100
C 	C 	0.63925 0.32528 0.98884 -0.07700
C 	C 	0.60009 0.41170 0.97330 -0.06500
C 	C 	0.58257 0.35992 0.95996 -0.01400
H 	H 	0.55172 0.35309 0.94243 0.03400
C 	C 	0.63310 0.34616 0.95031 -0.01100
H 	H 	0.64424 0.32736 0.92493 0.02200
C 	C 	0.65041 0.39824 0.96357 -0.01200
H 	H 	0.67564 0.42316 0.94912 0.03100
C 	C 	0.68698 0.69262 0.93495 -0.01100
H 	H 	0.69275 0.72430 0.91575 0.03800
C 	C 	0.64195 0.68247 0.95696 -0.00700
H 	H 	0.61000 0.70535 0.95566 0.03800
C 	C 	0.68954 0.63600 0.92526 -0.01100
H 	H 	0.69677 0.62053 0.89790 0.03100
C 	C 	0.64496 0.62634 0.94748 -0.07600
C 	C 	0.71567 0.68283 0.96938 -0.07500
C 	C 	0.71894 0.62671 0.95990 -0.01000
H 	H 	0.75099 0.60401 0.96128 0.03200
C 	C 	0.67373 0.61656 0.98187 -0.01100
H 	H 	0.66791 0.58493 0.00110 0.03100
C 	C 	0.67104 0.67299 0.99144 -0.00700
H 	H 	0.66366 0.68843 0.01879 0.03300
