data_crystal

_cell_length_a 15.64372
_cell_length_b 15.87830
_cell_length_c 35.22962
_cell_angle_alpha 95.39957
_cell_angle_beta  95.40023
_cell_angle_gamma 126.72569

_symmetry_space_group_name_	'P 1'
_symmetry_space_group_name_H-M	'P 1'

loop_
_symmetry_equiv_pos_as_xyz
  x,y,z

loop_
_atom_site_label
_atom_site_type_symbol
_atom_site_fract_x
_atom_site_fract_y
_atom_site_fract_z
_atom_site_charge
N 	N 	0.04329 0.94030 0.49933 -0.11700
C 	C 	0.03647 0.01717 0.95869 0.10800
N 	N 	0.06494 0.10074 0.50158 -0.12500
C 	C 	0.10778 0.04670 0.50008 0.09500
C 	C 	0.15056 0.08412 0.96052 0.02600
N 	N 	0.98410 0.91350 0.96126 -0.12500
N 	N 	0.98350 0.06009 0.95915 -0.13300
C 	C 	0.87789 0.00009 0.96275 0.09300
N 	N 	0.82441 0.89473 0.96607 -0.11900
C 	C 	0.87883 0.85162 0.96492 0.11400
C 	C 	0.95703 0.04616 0.50291 0.08500
C 	C 	0.93688 0.88672 0.50024 0.10800
N 	N 	0.89375 0.93934 0.50223 -0.11800
Cu	Cu	0.75215 0.34884 0.96020 0.92400
Cu	Cu	0.73157 0.25750 0.04177 0.86600
Cu	Cu	0.57550 0.28880 0.00754 0.89200
Cu	Cu	0.55031 0.33957 0.92873 0.89900
C 	C 	0.68327 0.32225 0.87797 0.29600
O 	O 	0.81186 0.50772 0.96166 -0.34700
C 	C 	0.64157 0.32041 0.09325 0.29500
O 	O 	0.58244 0.25964 0.95391 -0.63300
O 	O 	0.73391 0.35927 0.01475 -0.64800
O 	O 	0.81717 0.26936 0.96381 -0.35900
O 	O 	0.69457 0.15373 0.99840 -0.43200
O 	O 	0.63740 0.36731 0.88703 -0.38600
O 	O 	0.42012 0.21198 0.99753 -0.37500
C 	C 	0.36144 0.20438 0.96597 0.30500
C 	C 	0.75650 0.54201 0.97221 0.28500
O 	O 	0.65593 0.47243 0.97596 -0.38900
O 	O 	0.40508 0.27110 0.94170 -0.39000
O 	O 	0.74321 0.31663 0.90512 -0.36200
C 	C 	0.76462 0.17644 0.97575 0.28900
O 	O 	0.56622 0.29452 0.06353 -0.38400
O 	O 	0.72735 0.32662 0.08801 -0.42300
H 	H 	0.53707 0.18263 0.94223 0.16200
H 	H 	0.77922 0.43308 0.02999 0.17000
Cu	Cu	0.62309 0.19084 0.51007 0.92400
Cu	Cu	0.70656 0.19647 0.42741 0.87000
Cu	Cu	0.67892 0.35623 0.45888 0.89800
Cu	Cu	0.62870 0.38820 0.53717 0.89900
C 	C 	0.64604 0.26167 0.59172 0.29900
O 	O 	0.46318 0.12890 0.50967 -0.36100
C 	C 	0.64251 0.28029 0.37373 0.29500
O 	O 	0.71126 0.35665 0.51317 -0.63700
O 	O 	0.60703 0.20036 0.45462 -0.64100
O 	O 	0.69922 0.12347 0.50769 -0.36700
O 	O 	0.81354 0.23669 0.47070 -0.43800
O 	O 	0.60627 0.31196 0.58182 -0.38600
O 	O 	0.75614 0.50906 0.46662 -0.37900
C 	C 	0.75618 0.56795 0.49572 0.30700
C 	C 	0.42471 0.17821 0.49706 0.29200
O 	O 	0.49198 0.27595 0.49145 -0.39600
O 	O 	0.68876 0.52549 0.52013 -0.39100
O 	O 	0.66114 0.20894 0.56537 -0.36600
C 	C 	0.79110 0.17049 0.49453 0.29600
O 	O 	0.67269 0.35895 0.40229 -0.38100
O 	O 	0.63326 0.19548 0.38087 -0.42200
H 	H 	0.78965 0.40333 0.52468 0.16600
H 	H 	0.53123 0.15429 0.44011 0.17200
C 	C 	0.69415 0.30772 0.83704 -0.10300
C 	C 	0.65539 0.20663 0.81627 0.12100
C 	C 	0.65657 0.19395 0.77627 -0.09500
C 	C 	0.69277 0.27921 0.75654 -0.00100
C 	C 	0.73390 0.38086 0.77752 0.06200
C 	C 	0.73590 0.39435 0.81766 -0.02300
N 	N 	0.61460 0.12099 0.83416 -0.20300
H 	H 	0.62588 0.11647 0.76020 0.05500
C 	C 	0.67828 0.25867 0.71347 0.00200
N 	N 	0.76997 0.46528 0.75929 -0.19200
H 	H 	0.76724 0.47209 0.83371 0.05000
C 	C 	0.57577 0.21149 0.69117 -0.09800
C 	C 	0.56148 0.20203 0.65061 0.13000
C 	C 	0.65283 0.24634 0.63235 -0.10800
C 	C 	0.75381 0.28672 0.65426 -0.02500
C 	C 	0.76707 0.29159 0.69470 0.05900
H 	H 	0.50697 0.18260 0.70544 0.05700
N 	N 	0.45986 0.14842 0.62934 -0.20400
H 	H 	0.82297 0.31727 0.64006 0.04100
N 	N 	0.86513 0.32911 0.71527 -0.19200
H 	H 	0.39350 0.12010 0.64310 0.08700
H 	H 	0.44494 0.12952 0.59907 0.10300
H 	H 	0.93099 0.35597 0.70136 0.08400
H 	H 	0.87631 0.32956 0.74500 0.09000
H 	H 	0.80048 0.53996 0.77508 0.08700
H 	H 	0.76765 0.45788 0.72940 0.09000
H 	H 	0.60901 0.12633 0.86344 0.08900
H 	H 	0.58674 0.04701 0.81858 0.08400
C 	C 	0.63612 0.29523 0.33293 -0.11100
C 	C 	0.57082 0.32249 0.31698 0.12700
C 	C 	0.56928 0.33743 0.27820 -0.09800
C 	C 	0.62555 0.31852 0.25447 0.00100
C 	C 	0.68959 0.28994 0.27029 0.05600
C 	C 	0.69525 0.28003 0.30946 -0.02300
N 	N 	0.50637 0.33022 0.33800 -0.20300
H 	H 	0.52038 0.35936 0.26600 0.05700
C 	C 	0.61428 0.32560 0.21273 0.00000
N 	N 	0.74543 0.27147 0.24807 -0.19200
H 	H 	0.74560 0.25970 0.32170 0.03000
C 	C 	0.69414 0.42053 0.20093 -0.09800
C 	C 	0.69886 0.42342 0.16135 0.12600
C 	C 	0.62258 0.32931 0.13324 -0.11200
C 	C 	0.53655 0.23767 0.14480 -0.02500
C 	C 	0.53173 0.23460 0.18436 0.05700
H 	H 	0.75515 0.49121 0.22265 0.05700
N 	N 	0.77606 0.51667 0.15055 -0.20300
H 	H 	0.47622 0.16659 0.12312 0.03600
N 	N 	0.44915 0.14361 0.19485 -0.19200
H 	H 	0.83433 0.58499 0.17150 0.08400
H 	H 	0.77657 0.52327 0.12134 0.08800
H 	H 	0.38998 0.07609 0.17375 0.07800
H 	H 	0.44162 0.13941 0.22387 0.08500
H 	H 	0.79251 0.25052 0.26006 0.07600
H 	H 	0.74261 0.27723 0.21879 0.08400
H 	H 	0.49549 0.30744 0.36503 0.09200
H 	H 	0.46192 0.35445 0.32648 0.08600
C 	C 	0.87011 0.77427 0.49830 0.02900
C 	C 	0.81732 0.67974 0.49683 -0.08600
C 	C 	0.90651 0.09832 0.50167 0.02400
C 	C 	0.85536 0.13299 0.49943 -0.09800
C 	C 	0.31381 0.13565 0.49800 -0.09100
C 	C 	0.22094 0.10030 0.49897 0.02300
C 	C 	0.79583 0.65067 0.97033 -0.07700
C 	C 	0.82748 0.74095 0.96820 0.02100
C 	C 	0.82717 0.05254 0.96622 0.02000
C 	C 	0.79693 0.10762 0.96968 -0.08900
C 	C 	0.24696 0.13914 0.96284 -0.08600
