data_crystal

_cell_length_a 16.97642
_cell_length_b 17.20231
_cell_length_c 45.36523
_cell_angle_alpha 90.20043
_cell_angle_beta  90.21349
_cell_angle_gamma 119.34403

_symmetry_space_group_name_	'P 1'
_symmetry_space_group_name_H-M	'P 1'

loop_
_symmetry_equiv_pos_as_xyz
  x,y,z

loop_
_atom_site_label
_atom_site_type_symbol
_atom_site_fract_x
_atom_site_fract_y
_atom_site_fract_z
_atom_site_charge
C 	C 	0.18172 0.12140 0.72842 0.31000
C 	C 	0.21293 0.10118 0.80601 0.29800
Ni	Ni	0.08857 0.15819 0.77427 1.11600
Ni	Ni	0.07025 0.96525 0.76852 1.08800
O 	O 	0.12200 0.14665 0.73317 -0.38800
O 	O 	0.15378 0.01502 0.80311 -0.36800
O 	O 	0.20306 0.16486 0.79229 -0.37700
O 	O 	0.17635 0.05134 0.74244 -0.35500
C 	C 	0.22486 0.53423 0.47322 0.28200
C 	C 	0.28355 0.80414 0.38610 0.31100
C 	C 	0.16188 0.49908 0.39303 0.31300
Ni	Ni	0.21907 0.66394 0.43100 1.12200
O 	O 	0.20001 0.59521 0.46940 -0.35000
O 	O 	0.24639 0.49858 0.45032 -0.32200
O 	O 	0.22898 0.71961 0.39020 -0.36600
O 	O 	0.13351 0.53710 0.41235 -0.34300
O 	O 	0.24705 0.53637 0.38645 -0.37900
O 	O 	0.28215 0.78806 0.45378 -0.30200
O 	O 	0.33407 0.67337 0.42837 -0.71400
H 	H 	0.35086 0.67903 0.44936 0.17600
C 	C 	0.29822 0.49323 0.17636 0.29100
C 	C 	0.15768 0.67027 0.10517 0.33500
C 	C 	0.21707 0.72328 0.18271 0.29400
Ni	Ni	0.20364 0.56812 0.14464 1.13200
O 	O 	0.16984 0.60122 0.10679 -0.32000
O 	O 	0.20880 0.46471 0.12217 -0.32500
O 	O 	0.30107 0.77646 0.17418 -0.38900
O 	O 	0.16477 0.64322 0.17005 -0.31700
O 	O 	0.25014 0.53348 0.17979 -0.38400
O 	O 	0.21155 0.74444 0.11964 -0.34400
C 	C 	0.07188 0.90133 0.25342 0.25400
C 	C 	0.05284 0.18458 0.32696 0.27700
C 	C 	0.05051 0.91273 0.33291 0.28500
C 	C 	0.10066 0.18577 0.24762 0.28800
Ni	Ni	0.10606 0.06338 0.29335 1.12400
O 	O 	0.12448 0.96151 0.27370 -0.37900
O 	O 	0.11978 0.17864 0.31449 -0.34700
O 	O 	0.06999 0.99595 0.33266 -0.39100
O 	O 	0.13811 0.13701 0.25526 -0.36500
O 	O 	0.03006 0.18201 0.26226 -0.38600
C 	C 	0.24270 0.32444 0.23589 -0.03200
C 	C 	0.15336 0.26199 0.22794 -0.08600
C 	C 	0.12004 0.26725 0.19990 0.13700
C 	C 	0.17433 0.33845 0.18127 -0.02400
C 	C 	0.26176 0.40435 0.18990 -0.03900
C 	C 	0.29771 0.39455 0.21685 0.12600
H 	H 	0.26964 0.31827 0.25693 0.06100
H 	H 	0.14624 0.34543 0.16065 0.09500
N 	N 	0.03614 0.20458 0.19068 -0.21500
C 	C 	0.10215 0.77593 0.24518 -0.03900
C 	C 	0.11058 0.85711 0.23548 -0.07700
C 	C 	0.14815 0.89056 0.20754 0.12300
C 	C 	0.17788 0.84274 0.19003 -0.02500
C 	C 	0.17364 0.76382 0.20031 -0.05700
C 	C 	0.13556 0.73002 0.22821 0.11900
H 	H 	0.20622 0.86801 0.16849 0.07600
N 	N 	0.15576 0.96829 0.19735 -0.22200
H 	H 	0.15800 0.62005 0.22736 0.10900
H 	H 	0.13564 0.00629 0.20999 0.14400
H 	H 	0.18291 0.99202 0.17653 0.12200
C 	C 	0.05793 0.25817 0.37496 -0.04100
C 	C 	0.07150 0.26522 0.34434 -0.06700
C 	C 	0.09140 0.34619 0.33021 0.10800
C 	C 	0.09583 0.41714 0.34695 -0.02800
C 	C 	0.09852 0.41531 0.37780 -0.08800
C 	C 	0.07130 0.33274 0.39186 0.13900
N 	N 	0.05889 0.32492 0.42150 -0.20000
H 	H 	0.03783 0.19503 0.38572 0.08800
H 	H 	0.11185 0.47919 0.33608 0.05800
N 	N 	0.11247 0.35849 0.30114 -0.20000
H 	H 	0.06143 0.37700 0.43410 0.14000
H 	H 	0.13535 0.32004 0.29030 0.11200
H 	H 	0.11692 0.41378 0.29014 0.09700
C 	C 	0.20893 0.89580 0.38865 -0.04200
C 	C 	0.24821 0.85629 0.37131 -0.07700
C 	C 	0.22858 0.84346 0.34090 0.11600
C 	C 	0.16077 0.85830 0.32916 -0.04200
C 	C 	0.11543 0.89046 0.34696 -0.09000
C 	C 	0.14066 0.91079 0.37699 0.13600
N 	N 	0.09698 0.94044 0.39502 -0.20100
H 	H 	0.22550 0.90726 0.41195 0.10400
H 	H 	0.14440 0.84625 0.30597 0.05900
H 	H 	0.11779 0.95758 0.41693 0.14700
C 	C 	0.32713 0.95686 0.49941 0.71500
F 	F 	0.36287 0.00277 0.47354 -0.35500
F 	F 	0.32411 0.01479 0.52006 -0.35900
F 	F 	0.23959 0.88948 0.49419 -0.41400
C 	C 	0.21707 0.57708 0.54573 0.03500
C 	C 	0.12226 0.53400 0.54759 0.11000
C 	C 	0.11358 0.43285 0.50821 0.09700
C 	C 	0.20500 0.49123 0.50217 0.01900
C 	C 	0.25757 0.54472 0.52574 -0.08700
H 	H 	0.07295 0.38058 0.49253 0.08500
C 	C 	0.34619 0.54924 0.53310 0.78500
H 	H 	0.25848 0.63584 0.55889 0.12300
C 	C 	0.14259 0.57781 0.61308 0.78100
F 	F 	0.32948 0.46859 0.54480 -0.36600
F 	F 	0.39756 0.56549 0.50796 -0.41800
F 	F 	0.22919 0.64907 0.61096 -0.42600
C 	C 	0.26562 0.14482 0.68134 -0.03500
C 	C 	0.26055 0.17718 0.70923 -0.07800
C 	C 	0.32615 0.26597 0.71733 0.11200
N 	N 	0.31810 0.30414 0.74259 -0.19300
H 	H 	0.21325 0.07923 0.67434 0.07600
H 	H 	0.37140 0.36496 0.74995 0.09800
H 	H 	0.25674 0.27893 0.75352 0.07700
C 	C 	0.06671 0.40959 0.02965 0.76100
C 	C 	0.02342 0.59917 0.04145 -0.13400
C 	C 	0.08018 0.67108 0.06005 0.12300
C 	C 	0.07559 0.65841 0.09059 -0.03400
C 	C 	0.02424 0.61366 0.00851 0.77300
H 	H 	0.13579 0.73064 0.05079 0.08600
F 	F 	0.03747 0.32167 0.03702 -0.41600
F 	F 	0.10349 0.46193 0.05450 -0.41200
F 	F 	0.13203 0.43507 0.00815 -0.35900
F 	F 	0.01626 0.67754 0.14552 -0.45600
F 	F 	0.04578 0.70081 0.00270 -0.42900
F 	F 	0.08793 0.59740 0.99535 -0.39000
H 	H 	0.19625 0.37189 0.04805 0.16000
F 	F 	0.22808 0.32914 0.99977 -0.36900
C 	C 	0.30045 0.12612 0.82023 -0.08300
C 	C 	0.30482 0.09597 0.84887 0.12900
N 	N 	0.22956 0.05364 0.86581 -0.19700
H 	H 	0.37618 0.19210 0.78134 0.06000
H 	H 	0.23294 0.02873 0.88648 0.13000
H 	H 	0.16821 0.04875 0.85935 0.11700
C 	C 	0.26198 0.47861 0.09938 0.33200
H 	H 	0.34506 0.67141 0.16220 0.16100
H 	H 	0.04280 0.26506 0.43204 0.15000
F 	F 	0.31924 0.29832 0.52882 -0.37000
F 	F 	0.32713 0.10554 0.01561 -0.38300
C 	C 	0.26178 0.39056 0.05701 0.09300
O 	O 	0.32575 0.66141 0.14140 -0.71300
C 	C 	0.07152 0.45277 0.53168 -0.14400
C 	C 	0.07941 0.59321 0.59313 -0.10600
F 	F 	0.11625 0.57027 0.64225 -0.44800
F 	F 	0.14276 0.49991 0.60554 -0.40800
F 	F 	0.36836 0.35106 0.99499 -0.38900
O 	O 	0.04462 0.17380 0.81370 -0.40400
C 	C 	0.07658 0.57982 0.56200 0.08100
C 	C 	0.27742 0.40731 0.08733 0.03100
F 	F 	0.25332 0.29536 0.13288 -0.43900
F 	F 	0.22155 0.62671 0.04681 -0.42300
Ni	Ni	0.33870 0.77547 0.13274 1.12700
C 	C 	0.38485 0.91829 0.51040 -0.04700
F 	F 	0.39448 0.61572 0.55358 -0.38000
F 	F 	0.39116 0.35745 0.57178 -0.39000
F 	F 	0.37139 0.19014 0.97508 -0.39000
C 	C 	0.37995 0.17266 0.80380 -0.03900
C 	C 	0.39487 0.14363 0.99482 0.76600
H 	H 	0.28214 0.10694 0.62681 0.14900
C 	C 	0.36338 0.82239 0.46692 0.28900
F 	F 	0.24876 0.60337 0.99995 -0.33700
C 	C 	0.50583 0.17094 0.93957 0.32100
C 	C 	0.55304 0.22019 0.86259 0.31000
Ni	Ni	0.57307 0.35341 0.90592 1.12200
O 	O 	0.48469 0.22203 0.92232 -0.31300
O 	O 	0.58982 0.18708 0.94296 -0.28500
O 	O 	0.63487 0.48401 0.88819 -0.34300
O 	O 	0.58346 0.30533 0.86545 -0.37600
O 	O 	0.57729 0.17909 0.88207 -0.35500
O 	O 	0.56992 0.41446 0.94455 -0.29900
C 	C 	0.49787 0.31697 0.65778 0.30800
C 	C 	0.56670 0.35083 0.57598 0.28900
Ni	Ni	0.59257 0.24547 0.62460 1.12700
O 	O 	0.65361 0.21574 0.59242 -0.36200
O 	O 	0.53622 0.39409 0.64349 -0.32700
O 	O 	0.52618 0.27943 0.59353 -0.32300
O 	O 	0.61233 0.43267 0.58701 -0.31200
O 	O 	0.53792 0.26925 0.65964 -0.38400
C 	C 	0.44621 0.67972 0.36642 0.31200
C 	C 	0.52125 0.67955 0.44038 0.31700
Ni	Ni	0.43132 0.78130 0.41313 1.13000
Ni	Ni	0.34117 0.56976 0.41802 1.13100
O 	O 	0.40916 0.72759 0.37326 -0.39600
O 	O 	0.36178 0.84462 0.39994 -0.34400
O 	O 	0.44081 0.61500 0.44738 -0.32800
O 	O 	0.53158 0.75019 0.42466 -0.31400
O 	O 	0.43702 0.83968 0.45192 -0.30200
O 	O 	0.43441 0.61403 0.38431 -0.36500
C 	C 	0.51261 0.80112 0.16113 0.28700
C 	C 	0.41649 0.75075 0.07743 0.31300
Ni	Ni	0.41008 0.63180 0.12657 1.12500
O 	O 	0.50358 0.72141 0.15596 -0.34900
O 	O 	0.47457 0.83568 0.14342 -0.35000
O 	O 	0.32245 0.55904 0.09370 -0.30500
O 	O 	0.46740 0.73089 0.09439 -0.30300
O 	O 	0.36176 0.77516 0.08917 -0.34400
O 	O 	0.36339 0.51976 0.15574 -0.31100
N 	N 	0.38447 0.45270 0.22474 -0.19600
H 	H 	0.40997 0.44709 0.24515 0.11100
H 	H 	0.42814 0.50209 0.21030 0.12900
C 	C 	0.58466 0.85954 0.18178 -0.07300
C 	C 	0.57217 0.84210 0.21233 0.11100
N 	N 	0.48804 0.80360 0.22416 -0.20000
H 	H 	0.43182 0.79156 0.21141 0.09800
H 	H 	0.47856 0.78798 0.24658 0.09200
C 	C 	0.53571 0.79516 0.32932 -0.04700
C 	C 	0.52246 0.71911 0.34494 -0.09700
H 	H 	0.47826 0.80465 0.32475 0.05300
H 	H 	0.51335 0.56251 0.34925 0.13200
H 	H 	0.58019 0.95777 0.31399 0.09900
N 	N 	0.27398 0.81565 0.32294 -0.19900
H 	H 	0.32865 0.80962 0.33078 0.10200
H 	H 	0.25684 0.80276 0.30060 0.09200
C 	C 	0.45875 0.96874 0.52934 -0.00200
C 	C 	0.51902 0.93759 0.53675 0.03200
C 	C 	0.49583 0.84856 0.52951 -0.07400
C 	C 	0.41501 0.79578 0.51384 0.06500
C 	C 	0.37322 0.83710 0.49890 0.00200
C 	C 	0.60835 0.00068 0.54981 0.22100
C 	C 	0.55747 0.81068 0.53740 0.78800
H 	H 	0.39588 0.72762 0.50815 0.09100
H 	H 	0.47325 0.03466 0.53651 0.14200
C 	C 	0.67258 0.07621 0.53392 -0.14100
C 	C 	0.62656 0.99134 0.57938 -0.09100
C 	C 	0.66656 0.08176 0.50072 0.83400
H 	H 	0.58195 0.93161 0.59144 0.14700
F 	F 	0.53819 0.73672 0.52028 -0.36900
F 	F 	0.60814 0.11346 0.49372 -0.40000
F 	F 	0.63608 0.99899 0.48768 -0.41300
C 	C 	0.64474 0.60608 0.48418 0.04600
C 	C 	0.59924 0.51869 0.47257 0.10800
C 	C 	0.56815 0.50555 0.44289 -0.10900
C 	C 	0.57905 0.58022 0.42689 0.07300
C 	C 	0.59490 0.65771 0.44212 0.00300
C 	C 	0.64447 0.67688 0.46860 -0.04200
C 	C 	0.57537 0.44231 0.49271 0.10300
C 	C 	0.50565 0.41289 0.43054 0.78800
H 	H 	0.55286 0.57050 0.40469 0.06800
C 	C 	0.63940 0.41517 0.50020 -0.07700
C 	C 	0.62527 0.36336 0.52576 0.08700
C 	C 	0.55058 0.34186 0.54391 0.01800
C 	C 	0.47773 0.34967 0.53225 -0.04900
C 	C 	0.49250 0.40477 0.50765 0.04600
C 	C 	0.38736 0.30647 0.54761 0.78500
H 	H 	0.44157 0.42196 0.50101 0.14700
F 	F 	0.41782 0.38742 0.43854 -0.43400
F 	F 	0.52733 0.35010 0.44071 -0.37700
F 	F 	0.51030 0.41306 0.40008 -0.42900
F 	F 	0.36605 0.22194 0.55695 -0.40100
C 	C 	0.40069 0.31557 0.69880 -0.03100
C 	C 	0.40734 0.28159 0.67138 -0.07200
C 	C 	0.33530 0.19840 0.66172 0.13600
H 	H 	0.45472 0.37984 0.70615 0.06300
N 	N 	0.33200 0.17049 0.63349 -0.20400
H 	H 	0.37468 0.21403 0.61754 0.16800
C 	C 	0.39946 0.99908 0.99512 -0.03300
C 	C 	0.41203 0.93323 0.98097 0.12900
C 	C 	0.41705 0.93319 0.94980 -0.17600
C 	C 	0.42631 0.00800 0.93420 0.14900
C 	C 	0.43437 0.08289 0.94945 -0.02800
C 	C 	0.40663 0.07236 0.97915 0.01700
C 	C 	0.42551 0.86834 0.99908 0.08900
C 	C 	0.41753 0.85630 0.93337 0.80200
H 	H 	0.44135 0.01367 0.91090 0.06700
H 	H 	0.38880 0.99571 0.01874 0.11700
C 	C 	0.50977 0.89249 0.01301 -0.09200
C 	C 	0.51246 0.84025 0.03652 0.08800
C 	C 	0.43358 0.76499 0.04546 0.04300
C 	C 	0.35918 0.72924 0.02582 -0.06600
C 	C 	0.35138 0.78520 0.00506 0.04200
H 	H 	0.57245 0.86504 0.05027 0.11200
C 	C 	0.28686 0.63360 0.02752 0.80800
H 	H 	0.28737 0.76457 0.99399 0.13600
F 	F 	0.47467 0.20229 0.00885 -0.36500
F 	F 	0.33922 0.77780 0.93936 -0.41400
F 	F 	0.49131 0.84817 0.94208 -0.39800
F 	F 	0.42205 0.86876 0.90316 -0.44900
F 	F 	0.32187 0.58074 0.03694 -0.37800
F 	F 	0.57761 0.04155 0.02566 -0.34500
C 	C 	0.54721 0.42345 0.03124 0.05000
C 	C 	0.50516 0.47562 0.03182 0.09800
C 	C 	0.54076 0.55330 0.01396 -0.09800
C 	C 	0.61889 0.44445 0.01192 -0.07300
C 	C 	0.42334 0.44627 0.05053 0.10000
C 	C 	0.52752 0.63177 0.02144 0.79400
H 	H 	0.52454 0.36690 0.04590 0.13800
C 	C 	0.33514 0.40988 0.03801 -0.06600
C 	C 	0.35261 0.40325 0.09858 -0.10700
C 	C 	0.43081 0.43848 0.08119 0.03800
C 	C 	0.31825 0.38897 0.00532 0.78300
C 	C 	0.34103 0.33844 0.12265 0.79000
H 	H 	0.49420 0.44978 0.09076 0.09400
F 	F 	0.49656 0.62700 0.04986 -0.43900
F 	F 	0.46732 0.63528 0.00167 -0.37100
F 	F 	0.36054 0.27457 0.11177 -0.40100
F 	F 	0.39948 0.38289 0.14574 -0.43900
F 	F 	0.34145 0.46619 0.98989 -0.35200
C 	C 	0.38888 0.11418 0.86056 -0.03500
C 	C 	0.46915 0.16846 0.84533 -0.08700
C 	C 	0.46414 0.19274 0.81594 0.11900
H 	H 	0.39230 0.09387 0.88281 0.07600
N 	N 	0.53992 0.23514 0.79929 -0.19900
H 	H 	0.60223 0.24515 0.80709 0.10700
H 	H 	0.53650 0.25568 0.77789 0.09600
H 	H 	0.02115 0.63141 0.62903 0.07300
H 	H 	0.58234 0.09495 0.70568 0.12900
C 	C 	0.59832 0.56103 0.99038 0.09000
N 	N 	0.13191 0.65464 0.23904 -0.19700
H 	H 	0.04010 0.94359 0.38788 0.12900
N 	N 	0.63478 0.94977 0.32066 -0.22000
H 	H 	0.61390 0.61107 0.97357 0.09900
C 	C 	0.59001 0.98259 0.00827 0.73500
F 	F 	0.54577 0.78571 0.56667 -0.38600
C 	C 	0.64414 0.47314 0.95844 0.29200
O 	O 	0.64101 0.18516 0.65337 -0.32100
C 	C 	0.62333 0.86686 0.32527 0.11800
C 	C 	0.59486 0.70115 0.34657 0.12900
H 	H 	0.67749 0.34933 0.53348 0.10600
F 	F 	0.59814 0.00751 0.97900 -0.34500
C 	C 	0.63285 0.50193 0.98809 0.03200
F 	F 	0.60911 0.71005 0.01923 -0.41500
H 	H 	0.01208 0.20932 0.16990 0.12800
H 	H 	0.64628 0.58307 0.83675 0.06200
F 	F 	0.67220 0.03951 0.64463 -0.43600
F 	F 	0.64721 0.87248 0.53276 -0.36400
H 	H 	0.60634 0.04873 0.73757 0.11600
H 	H 	0.67728 0.61807 0.50560 0.15200
F 	F 	0.65003 0.33153 0.99766 -0.41000
Ni	Ni	0.68266 0.24402 0.91147 1.13400
O 	O 	0.67335 0.34715 0.92095 -0.72600
H 	H 	0.65907 0.33864 0.94208 0.21600
Ni	Ni	0.66625 0.45719 0.62743 1.13100
N 	N 	0.57903 0.61645 0.35020 -0.20200
C 	C 	0.70094 0.06149 0.59361 0.00200
F 	F 	0.73644 0.96807 0.62218 -0.42200
F 	F 	0.69508 0.40460 0.45315 -0.36900
N 	N 	0.62974 0.09018 0.71916 -0.19700
H 	H 	0.64939 0.67620 0.79773 0.10100
H 	H 	0.06914 0.74813 0.26595 0.05300
H 	H 	0.10361 0.63037 0.25969 0.09700
C 	C 	0.72185 0.44070 0.48104 0.79400
H 	H 	0.04173 0.25386 0.70384 0.10100
C 	C 	0.01996 0.61979 0.60550 0.02300
O 	O 	0.69330 0.36258 0.62326 -0.72000
H 	H 	0.69378 0.00647 0.32753 0.16000
C 	C 	0.73243 0.04647 0.62305 0.79700
F 	F 	0.66975 0.82576 0.47169 -0.37400
F 	F 	0.67654 0.18142 0.99473 -0.36400
H 	H 	0.02323 0.03214 0.80239 0.17100
F 	F 	0.66682 0.21619 0.04188 -0.34700
F 	F 	0.66903 0.98353 0.01658 -0.38000
H 	H 	0.70517 0.36610 0.60198 0.17900
C 	C 	0.67270 0.90960 0.17084 -0.03600
C 	C 	0.64715 0.86321 0.23053 -0.04100
H 	H 	0.68238 0.92496 0.14752 0.08400
H 	H 	0.63729 0.84846 0.25390 0.05900
C 	C 	0.67817 0.40396 0.01629 0.78200
F 	F 	0.67377 0.37667 0.04517 -0.40500
O 	O 	0.01651 0.03397 0.78085 -0.71300
C 	C 	0.70789 0.77241 0.47750 0.78800
C 	C 	0.69787 0.22915 0.67510 0.30900
C 	C 	0.71640 0.63057 0.84156 -0.03300
N 	N 	0.71751 0.72153 0.80177 -0.19900
C 	C 	0.71874 0.52474 0.87842 0.31100
C 	C 	0.73050 0.21570 0.59639 0.31400
H 	H 	0.63277 0.60330 0.35208 0.12900
C 	C 	0.68306 0.76974 0.34023 -0.04000
C 	C 	0.69848 0.85324 0.32945 -0.08700
F 	F 	0.72849 0.77885 0.50726 -0.34600
O 	O 	0.71057 0.48277 0.66950 -0.37400
C 	C 	0.74061 0.14657 0.58073 0.00300
C 	C 	0.71929 0.13403 0.71260 0.14100
C 	C 	0.73915 0.14979 0.54986 0.11900
O 	O 	0.72414 0.51528 0.94455 -0.31900
C 	C 	0.72421 0.21369 0.02078 0.80300
C 	C 	0.02081 0.60178 0.54476 0.00800
C 	C 	0.73480 0.90470 0.21896 -0.07200
H 	H 	0.74713 0.78006 0.78965 0.09900
O 	O 	0.73375 0.31473 0.67573 -0.38000
H 	H 	0.02345 0.59942 0.52093 0.11500
H 	H 	0.01736 0.30335 0.67301 0.12500
F 	F 	0.77667 0.40957 0.49257 -0.36400
O 	O 	0.76113 0.30255 0.87708 -0.38200
C 	C 	0.74806 0.92982 0.18888 0.12100
C 	C 	0.75203 0.19263 0.68843 -0.05900
H 	H 	0.75539 0.07605 0.74873 0.05600
F 	F 	0.75069 0.13911 0.48915 -0.37100
H 	H 	0.75398 0.54103 0.75945 0.09500
C 	C 	0.75993 0.61509 0.86521 -0.08400
C 	C 	0.76344 0.70571 0.82340 0.11100
F 	F 	0.75604 0.15785 0.03023 -0.35700
H 	H 	0.73893 0.75636 0.34227 0.07200
O 	O 	0.76902 0.48844 0.88230 -0.38500
H 	H 	0.76218 0.47696 0.72957 0.10700
F 	F 	0.77280 0.53233 0.47866 -0.37900
N 	N 	0.77282 0.53823 0.73772 -0.19900
F 	F 	0.76649 0.46659 0.01031 -0.42200
H 	H 	0.77759 0.21337 0.53895 0.13200
C 	C 	0.78033 0.12103 0.73011 -0.02800
Ni	Ni	0.78686 0.45341 0.92272 1.13200
O 	O 	0.78772 0.27707 0.94064 -0.32100
O 	O 	0.78776 0.26219 0.61816 -0.29200
F 	F 	0.78701 0.80373 0.46166 -0.38900
O 	O 	0.79452 0.54915 0.61136 -0.31200
C 	C 	0.79108 0.91925 0.31882 0.31300
C 	C 	0.79700 0.52431 0.67539 0.30900
Ni	Ni	0.80298 0.38004 0.63888 1.12500
O 	O 	0.80234 0.98410 0.30069 -0.39400
C 	C 	0.80337 0.30389 0.01603 -0.05700
H 	H 	0.80265 0.35541 0.05950 0.12500
F 	F 	0.81052 0.55691 0.53745 -0.40800
C 	C 	0.81050 0.33482 0.96314 0.31500
O 	O 	0.81310 0.41244 0.96036 -0.28500
C 	C 	0.81204 0.93248 0.23938 0.25800
O 	O 	0.81162 0.87178 0.25803 -0.36400
C 	C 	0.81332 0.61342 0.72113 0.11700
O 	O 	0.99341 0.85689 0.31320 -0.33300
C 	C 	0.99319 0.59121 0.10186 -0.03600
H 	H 	0.99544 0.00865 0.25833 0.17800
F 	F 	0.98676 0.53511 0.14977 -0.44600
O 	O 	0.98643 0.00791 0.27980 -0.68900
O 	O 	0.98278 0.86731 0.25281 -0.34200
C 	C 	0.98748 0.41629 0.01817 -0.04600
H 	H 	0.98809 0.37413 0.97313 0.11400
O 	O 	0.99461 0.92181 0.73156 -0.38300
C 	C 	0.96425 0.51543 0.05458 0.15900
O 	O 	0.96913 0.12226 0.32261 -0.32600
H 	H 	0.99434 0.15021 0.20379 0.13900
F 	F 	0.94064 0.55839 0.99606 -0.39600
C 	C 	0.96837 0.59249 0.13366 0.79200
F 	F 	0.87510 0.69768 0.55467 -0.39100
C 	C 	0.94269 0.51471 0.08454 0.01400
H 	H 	0.89155 0.39634 0.79642 0.10100
C 	C 	0.84643 0.35915 0.88102 0.31000
O 	O 	0.87226 0.41775 0.90285 -0.34600
C 	C 	0.85767 0.53275 0.59923 0.29200
O 	O 	0.85048 0.50120 0.66167 -0.35000
O 	O 	0.85486 0.45536 0.60199 -0.30300
C 	C 	0.90941 0.84640 0.81059 0.28900
C 	C 	0.92989 0.13267 0.73796 0.32200
C 	C 	0.90943 0.86122 0.73280 0.32100
C 	C 	0.95955 0.15292 0.81802 0.33100
Ni	Ni	0.89101 0.98423 0.77707 1.09800
O 	O 	0.88494 0.90821 0.81275 -0.37900
O 	O 	0.97591 0.85459 0.79236 -0.35800
O 	O 	0.90298 0.04797 0.73793 -0.33900
O 	O 	0.99382 0.18618 0.75644 -0.36100
O 	O 	0.85624 0.86887 0.75217 -0.37700
O 	O 	0.89140 0.08882 0.80230 -0.34900
Ni	Ni	0.92282 0.07261 0.28187 1.13500
Ni	Ni	0.91303 0.88333 0.28586 1.11900
O 	O 	0.86736 0.01916 0.24291 -0.34200
O 	O 	0.85570 0.89962 0.32174 -0.38200
N 	N 	0.83211 0.96946 0.17688 -0.19800
H 	H 	0.84163 0.99072 0.15498 0.12300
H 	H 	0.88810 0.97643 0.18870 0.10800
F 	F 	0.81766 0.11550 0.63000 -0.41400
C 	C 	0.97449 0.38810 0.53943 0.81800
C 	C 	0.94420 0.60643 0.58912 0.04200
C 	C 	0.95616 0.61877 0.55856 -0.03800
C 	C 	0.89124 0.63550 0.54053 0.78500
F 	F 	0.91754 0.41077 0.52460 -0.39700
F 	F 	0.96096 0.38922 0.56945 -0.41400
F 	F 	0.95288 0.30210 0.53150 -0.39300
F 	F 	0.92582 0.66781 0.51289 -0.36800
C 	C 	0.84494 0.23522 0.68186 -0.00500
C 	C 	0.87283 0.16287 0.72315 -0.08400
C 	C 	0.90527 0.22031 0.69874 0.14600
N 	N 	0.99435 0.26178 0.69140 -0.16300
H 	H 	0.87142 0.28455 0.66457 0.05800
C 	C 	0.88357 0.68913 0.67543 -0.04000
C 	C 	0.83620 0.60985 0.69141 -0.08000
C 	C 	0.83462 0.69596 0.73388 -0.03400
C 	C 	0.87868 0.77500 0.71753 -0.09600
C 	C 	0.90169 0.77131 0.68777 0.13800
N 	N 	0.93711 0.84532 0.67057 -0.20000
H 	H 	0.90106 0.68620 0.65264 0.08200
H 	H 	0.81943 0.69896 0.75689 0.05900
H 	H 	0.95786 0.84291 0.64908 0.14000
H 	H 	0.93962 0.90428 0.67768 0.13700
C 	C 	0.84172 0.36278 0.03992 0.07200
C 	C 	0.93200 0.42925 0.03835 0.07800
C 	C 	0.94686 0.37101 0.99175 0.08800
C 	C 	0.85234 0.32253 0.98963 0.04200
H 	H 	0.89137 0.45424 0.09471 0.10900
F 	F 	0.87710 0.56483 0.13563 -0.41100
C 	C 	0.94476 0.29165 0.88086 -0.03800
C 	C 	0.91198 0.34121 0.86581 -0.07500
C 	C 	0.91167 0.34052 0.83471 0.12200
C 	C 	0.92363 0.27587 0.81953 -0.03200
C 	C 	0.94275 0.21650 0.83495 -0.09000
C 	C 	0.95790 0.22720 0.86581 0.14200
N 	N 	0.98167 0.17406 0.88123 -0.19900
H 	H 	0.94994 0.29574 0.90471 0.09100
H 	H 	0.91857 0.27214 0.79567 0.06200
N 	N 	0.89564 0.39921 0.81943 -0.19800
H 	H 	0.99339 0.18304 0.90395 0.14900
H 	H 	0.98748 0.12267 0.87100 0.13300
H 	H 	0.88988 0.44984 0.83030 0.11300
C 	C 	0.85144 0.67857 0.87163 0.12600
C 	C 	0.90081 0.74833 0.85185 -0.04100
C 	C 	0.85805 0.76335 0.82790 -0.07700
H 	H 	0.97173 0.79424 0.85617 0.06500
N 	N 	0.89142 0.67401 0.89709 -0.19700
H 	H 	0.85369 0.63131 0.91402 0.10400
H 	H 	0.96010 0.71757 0.90093 0.13000
