data_crystal

_cell_length_a 23.86542
_cell_length_b 19.86773
_cell_length_c 48.54345
_cell_angle_alpha 90.55036
_cell_angle_beta  91.19149
_cell_angle_gamma 110.71503

_symmetry_space_group_name_	'P 1'
_symmetry_space_group_name_H-M	'P 1'

loop_
_symmetry_equiv_pos_as_xyz
  x,y,z

loop_
_atom_site_label
_atom_site_type_symbol
_atom_site_fract_x
_atom_site_fract_y
_atom_site_fract_z
_atom_site_charge
Ni	Ni	0.04989 0.95103 0.76672 1.09900
O 	O 	0.04064 0.91766 0.72637 -0.70400
O 	O 	0.06664 0.98897 0.80664 -0.35200
H 	H 	0.05892 0.07178 0.74884 0.15300
C 	C 	0.03162 0.91945 0.66051 0.23900
C 	C 	0.07515 0.05678 0.81338 0.24400
N 	N 	0.04695 0.39199 0.51988 -0.02000
C 	C 	0.02836 0.87990 0.63463 0.04500
H 	H 	0.05793 0.87988 0.72299 0.16000
Ni	Ni	0.00740 0.10887 0.21342 1.06500
C 	C 	0.99775 0.96237 0.19773 0.27600
O 	O 	0.03051 0.91792 0.15505 -0.17600
H 	H 	0.06346 0.85943 0.11021 0.07900
C 	C 	0.06806 0.48210 0.47179 0.03400
C 	C 	0.07827 0.45541 0.44609 0.05400
O 	O 	0.06193 0.40665 0.54576 -0.09000
O 	O 	0.07301 0.35658 0.50543 -0.07900
C 	C 	0.00509 0.58008 0.96931 -0.08200
C 	C 	0.02101 0.61541 0.02561 -0.00400
H 	H 	0.02695 0.62815 0.04749 0.06800
C 	C 	0.04641 0.82125 0.63360 -0.05300
O 	O 	0.11626 0.11133 0.80127 -0.37500
O 	O 	0.08661 0.04491 0.74752 -0.70500
C 	C 	0.01951 0.16283 0.27261 0.23600
C 	C 	0.00029 0.31554 0.12483 -0.10300
Ni	Ni	0.08920 0.00903 0.70807 1.09700
O 	O 	0.08380 0.96565 0.66954 -0.35000
O 	O 	0.01880 0.01220 0.21696 -0.41800
C 	C 	0.03902 0.93540 0.18316 0.03200
O 	O 	0.03528 0.25434 0.31051 -0.18100
O 	O 	0.04375 0.13517 0.25335 -0.40200
C 	C 	0.05227 0.23166 0.09485 -0.09100
H 	H 	0.05099 0.37130 0.34346 0.08200
C 	C 	0.09693 0.87873 0.12666 -0.08600
O 	O 	0.12227 0.91810 0.76807 -0.36000
C 	C 	0.05879 0.34502 0.11525 0.01500
H 	H 	0.07211 0.19950 0.08316 0.07600
C 	C 	0.08677 0.91607 0.14950 0.12000
C 	C 	0.05797 0.22430 0.28931 0.04300
C 	C 	0.05167 0.94262 0.37232 -0.09400
C 	C 	0.04108 0.81939 0.38072 0.00500
C 	C 	0.13006 0.49307 0.43176 -0.00000
C 	C 	0.11169 0.54362 0.48362 -0.07400
H 	H 	0.13675 0.47362 0.41160 0.06300
H 	H 	0.10451 0.56335 0.50364 0.08700
C 	C 	0.06952 0.61294 0.01034 -0.08700
C 	C 	0.06237 0.60048 0.98165 0.11900
H 	H 	0.12587 0.77697 0.09617 0.06900
C 	C 	0.01656 0.78057 0.61202 -0.00200
Ni	Ni	0.16106 0.10198 0.76705 1.07300
C 	C 	0.08383 0.30496 0.09997 0.11600
H 	H 	0.06865 0.45644 0.11133 0.06900
C 	C 	0.08890 0.30359 0.32095 0.12000
C 	C 	0.09137 0.36550 0.33578 -0.08400
C 	C 	0.07574 0.89177 0.38162 0.12800
H 	H 	0.06817 0.72917 0.37234 0.06600
C 	C 	0.08734 0.41430 0.10922 -0.06100
C 	C 	0.09539 0.94350 0.19347 -0.05500
C 	C 	0.07910 0.78330 0.38064 -0.04700
H 	H 	0.08013 0.99841 0.37013 0.07800
O 	O 	0.15480 0.10267 0.69597 -0.34800
O 	O 	0.18600 0.02476 0.78529 -0.37500
C 	C 	0.17696 0.96280 0.77304 0.26600
C 	C 	0.12154 0.60584 0.02489 0.30600
N 	N 	0.11283 0.60507 0.96525 -0.03000
C 	C 	0.14950 0.86246 0.12677 0.02000
C 	C 	0.12552 0.93132 0.17209 0.00800
C 	C 	0.15704 0.80939 0.11184 -0.06000
C 	C 	0.17140 0.55777 0.44260 -0.08800
O 	O 	0.10905 0.55439 0.94735 -0.09600
O 	O 	0.14926 0.65351 0.04432 -0.37200
O 	O 	0.12791 0.54237 0.02412 -0.38800
H 	H 	0.10736 0.94209 0.21506 0.05300
C 	C 	0.11947 0.25183 0.28745 -0.05900
H 	H 	0.13044 0.50786 0.35965 0.06900
C 	C 	0.16335 0.58161 0.46917 0.12100
O 	O 	0.13052 0.34564 0.08375 -0.18300
C 	C 	0.13020 0.41409 0.09054 0.04400
C 	C 	0.13901 0.30169 0.30764 0.01200
C 	C 	0.13593 0.83486 0.38147 0.05000
O 	O 	0.16204 0.66086 0.96769 -0.10000
O 	O 	0.02487 0.05015 0.69566 -0.36200
O 	O 	0.21359 0.10168 0.73354 -0.41100
C 	C 	0.20610 0.12954 0.70989 0.24200
C 	C 	0.14690 0.42164 0.33848 0.01500
O 	O 	0.13710 0.90561 0.38219 -0.18600
O 	O 	0.15418 0.53821 0.07814 -0.35900
C 	C 	0.15492 0.49028 0.34432 -0.05500
H 	H 	0.14424 0.24855 0.26934 0.05100
C 	C 	0.22753 0.93858 0.76914 0.04600
O 	O 	0.18338 0.68002 0.10093 -0.35700
C 	C 	0.18540 0.87191 0.15025 0.11600
C 	C 	0.17230 0.90403 0.17397 -0.08300
H 	H 	0.06300 0.80046 0.65132 0.04300
C 	C 	0.16366 0.47739 0.07455 0.25800
C 	C 	0.19772 0.78839 0.12662 0.05000
O 	O 	0.24173 0.89492 0.78838 -0.17100
C 	C 	0.21804 0.60425 0.42473 0.30700
N 	N 	0.20721 0.64472 0.48143 -0.02400
O 	O 	0.21721 0.66893 0.41931 -0.36600
O 	O 	0.18689 0.75183 0.37792 -0.35800
C 	C 	0.18884 0.81790 0.37403 0.26100
C 	C 	0.21900 0.73164 0.11699 0.25600
H 	H 	0.19547 0.90425 0.19342 0.06700
O 	O 	0.26315 0.65029 0.48323 -0.09900
Ni	Ni	0.21443 0.63815 0.06837 1.09900
O 	O 	0.21840 0.82656 0.15137 -0.18600
C 	C 	0.19583 0.42133 0.32413 0.11800
C 	C 	0.19182 0.36245 0.30706 -0.08600
O 	O 	0.19073 0.69484 0.49215 -0.08800
Ni	Ni	0.20774 0.52768 0.01946 1.08400
O 	O 	0.19782 0.47030 0.05481 -0.38600
C 	C 	0.27392 0.97479 0.75230 -0.06500
O 	O 	0.24618 0.57334 0.40842 -0.40000
C 	C 	0.21146 0.53009 0.33532 0.04100
H 	H 	0.27812 0.02424 0.74192 0.05600
O 	O 	0.21972 0.63547 0.36193 -0.36100
C 	C 	0.25739 0.18532 0.69760 0.04300
O 	O 	0.05340 0.14310 0.84535 -0.18000
O 	O 	0.21881 0.44503 0.94324 -0.09900
O 	O 	0.25785 0.20169 0.66963 -0.17600
H 	H 	0.22725 0.36507 0.29305 0.06900
Ni	Ni	0.26069 0.72552 0.38658 1.10100
O 	O 	0.22410 0.85782 0.35531 -0.37600
C 	C 	0.24741 0.59778 0.34933 0.26400
O 	O 	0.26346 0.72167 0.13061 -0.37500
O 	O 	0.23926 0.48909 0.32120 -0.18700
C 	C 	0.30124 0.90920 0.78178 0.11400
H 	H 	0.02209 0.18199 0.68754 0.06300
O 	O 	0.25983 0.61726 0.03725 -0.70600
H 	H 	0.27210 0.65712 0.02401 0.17200
H 	H 	0.26733 0.57407 0.10130 0.16300
O 	O 	0.25985 0.56254 0.95490 -0.12300
C 	C 	0.32047 0.95617 0.76027 0.02800
N 	N 	0.26519 0.50014 0.95127 -0.02800
H 	H 	0.32800 0.87106 0.81963 0.08100
O 	O 	0.28175 0.61763 0.08992 -0.69600
O 	O 	0.27686 0.49095 0.01037 -0.38000
C 	C 	0.31228 0.21484 0.71116 -0.06600
H 	H 	0.29716 0.80221 0.01735 0.04600
C 	C 	0.34297 0.90126 0.80104 -0.07500
H 	H 	0.32510 0.19408 0.72989 0.05500
O 	O 	0.30368 0.60930 0.35526 -0.39600
C 	C 	0.31835 0.24306 0.66759 0.11700
N 	N 	0.03471 0.39197 0.43388 -0.01500
O 	O 	0.29294 0.84035 0.96279 -0.08500
C 	C 	0.04475 0.07231 0.83732 0.05000
Ni	Ni	0.33236 0.61923 0.39518 1.07500
H 	H 	0.29722 0.75304 0.33612 0.16400
H 	H 	0.32348 0.24708 0.62301 0.08200
O 	O 	0.31023 0.77843 0.35407 -0.69800
O 	O 	0.33473 0.76853 0.07980 -0.40600
O 	O 	0.32305 0.95932 0.97187 -0.07400
H 	H 	0.31715 0.44246 0.91439 0.08300
O 	O 	0.31454 0.25514 0.92444 -0.08600
Ni	Ni	0.31604 0.87969 0.35265 1.07300
O 	O 	0.33020 0.89086 0.39438 -0.40200
O 	O 	0.34057 0.72084 0.39713 -0.70600
Ni	Ni	0.33031 0.60398 0.05795 1.09900
Ni	Ni	0.33358 0.70198 0.11160 1.07400
C 	C 	0.35067 0.25156 0.69218 0.01900
N 	N 	0.32698 0.89682 0.97669 -0.01700
C 	C 	0.32274 0.49320 0.95433 0.11600
H 	H 	0.35410 0.74182 0.41575 0.16600
C 	C 	0.33061 0.53410 0.00375 0.29800
C 	C 	0.34798 0.25240 0.64243 -0.07900
C 	C 	0.34385 0.83714 0.01838 -0.00800
C 	C 	0.38055 0.00183 0.75872 -0.10100
C 	C 	0.36110 0.76440 0.05661 0.29100
C 	C 	0.34477 0.46306 0.93277 -0.06700
C 	C 	0.00833 0.45296 0.48416 0.01100
O 	O 	0.39644 0.05132 0.39000 -0.10500
H 	H 	0.39334 0.04758 0.74519 0.07300
C 	C 	0.36619 0.88950 0.99827 0.06100
C 	C 	0.35771 0.51722 0.97876 -0.08100
O 	O 	0.01657 0.33226 0.44744 -0.08200
O 	O 	0.36467 0.58093 0.02205 -0.35700
O 	O 	0.38063 0.71097 0.05199 -0.35500
C 	C 	0.38207 0.82788 0.03911 -0.08700
N 	N 	0.36433 0.30375 0.93337 -0.01700
C 	C 	0.40411 0.93982 0.79717 0.01000
O 	O 	0.01584 0.39282 0.40859 -0.10200
C 	C 	0.38110 0.89189 0.40570 0.29200
O 	O 	0.41623 0.07781 0.01017 -0.07900
O 	O 	0.37734 0.31030 0.95965 -0.08000
C 	C 	0.42252 0.99199 0.77734 0.13400
Ni	Ni	0.39195 0.77903 0.36636 1.09900
H 	H 	0.37444 0.84739 0.45815 0.05300
C 	C 	0.40951 0.26427 0.64323 0.01800
C 	C 	0.41235 0.26336 0.69274 -0.09000
O 	O 	0.39948 0.59196 0.08017 -0.36100
C 	C 	0.40015 0.90426 0.45624 -0.01000
C 	C 	0.40457 0.93674 0.43047 -0.07600
O 	O 	0.37450 0.87696 0.51584 -0.08200
C 	C 	0.40209 0.45901 0.93492 0.02500
H 	H 	0.43650 0.94426 0.83896 0.08200
C 	C 	0.40697 0.34539 0.91418 0.06000
O 	O 	0.41810 0.64064 0.38074 -0.39100
O 	O 	0.41815 0.86974 0.39156 -0.35200
O 	O 	0.40539 0.92821 0.34535 -0.36600
O 	O 	0.41546 0.69865 0.10236 -0.37500
N 	N 	0.44346 0.04443 0.40183 -0.02100
H 	H 	0.43695 0.26729 0.71206 0.07200
C 	C 	0.44545 0.95998 0.81773 -0.04800
C 	C 	0.43862 0.01045 0.42799 0.11900
H 	H 	0.41984 0.06675 0.51922 0.08600
C 	C 	0.42752 0.93295 0.99893 0.02800
C 	C 	0.44236 0.87448 0.04083 0.12600
C 	C 	0.41666 0.51765 0.98006 -0.00100
C 	C 	0.42232 0.42061 0.91334 0.02300
H 	H 	0.42542 0.25402 0.89850 0.07200
C 	C 	0.42602 0.63824 0.10002 0.25200
O 	O 	0.42914 0.18708 0.55392 -0.09200
O 	O 	0.43657 0.51115 0.46744 -0.09600
C 	C 	0.44125 0.27050 0.66755 0.12500
H 	H 	0.44010 0.28857 0.60188 0.08300
N 	N 	0.46983 0.08900 0.00136 -0.01600
O 	O 	0.46872 0.87364 0.08811 -0.09600
C 	C 	0.43481 0.31126 0.89660 -0.01100
C 	C 	0.43088 0.94427 0.47939 0.07100
C 	C 	0.44876 0.29634 0.62390 -0.05000
C 	C 	0.43904 0.48888 0.95824 0.06200
O 	O 	0.43943 0.83778 0.33490 -0.36200
C 	C 	0.43534 0.90031 0.32910 0.25000
N 	N 	0.42673 0.91003 0.50548 -0.01800
C 	C 	0.46475 0.92671 0.02074 -0.07200
H 	H 	0.44433 0.53750 0.99847 0.07400
O 	O 	0.47611 0.04732 0.78405 -0.19600
C 	C 	0.46319 0.69751 0.38928 0.30500
C 	C 	0.46927 0.05040 0.45106 -0.06600
C 	C 	0.45469 0.97684 0.97494 0.03500
N 	N 	0.48144 0.86739 0.06250 -0.02100
C 	C 	0.46019 0.45974 0.89288 -0.07400
O 	O 	0.48103 0.66658 0.50460 -0.08000
O 	O 	0.46687 0.76176 0.38123 -0.35000
O 	O 	0.49557 0.07262 0.39073 -0.07800
H 	H 	0.47718 0.75304 0.44077 0.05400
C 	C 	0.47783 0.05269 0.97694 0.05500
C 	C 	0.46627 0.01760 0.47669 0.01900
H 	H 	0.49570 0.10701 0.44902 0.08200
C 	C 	0.46837 0.08523 0.52032 -0.07500
N 	N 	0.46720 0.15695 0.56145 -0.02200
H 	H 	0.44476 0.88402 0.94920 0.08700
O 	O 	0.51588 0.13647 0.01383 -0.08800
H 	H 	0.46947 0.51703 0.89125 0.08200
C 	C 	0.48777 0.02400 0.80985 0.04800
O 	O 	0.47214 0.14236 0.58725 -0.09300
N 	N 	0.48198 0.48940 0.46785 -0.01500
O 	O 	0.47829 0.43076 0.45455 -0.09600
C 	C 	0.46234 0.94229 0.95076 -0.07300
C 	C 	0.47816 0.35174 0.87823 -0.09900
C 	C 	0.47842 0.63238 0.11441 0.05300
H 	H 	0.46928 0.86760 0.27738 0.05700
C 	C 	0.50096 0.71624 0.43756 -0.00800
O 	O 	0.50283 0.30335 0.66514 -0.20000
C 	C 	0.48711 0.42538 0.87486 0.11000
O 	O 	0.47989 0.62957 0.14314 -0.20500
C 	C 	0.47778 0.94731 0.30999 0.05500
C 	C 	0.50410 0.68987 0.41096 -0.09800
C 	C 	0.50467 0.31709 0.63683 0.05900
C 	C 	0.50952 0.09288 0.95496 0.00400
H 	H 	0.51169 0.96073 0.02153 0.08800
O 	O 	0.50723 0.25076 0.86587 -0.36200
C 	C 	0.48761 0.92321 0.28448 -0.06900
C 	C 	0.49942 0.06091 0.50069 0.03100
C 	C 	0.49971 0.13430 0.54111 0.12500
O 	O 	0.47469 0.90702 0.51779 -0.07100
N 	N 	0.51490 0.71258 0.48756 -0.01900
H 	H 	0.52744 0.15114 0.95654 0.05500
O 	O 	0.45611 0.90545 0.89028 -0.09400
N 	N 	0.49908 0.48923 0.95998 -0.01700
O 	O 	0.51330 0.44044 0.82791 -0.09100
C 	C 	0.52291 0.68962 0.46036 0.05900
O 	O 	0.52631 0.13990 0.83213 -0.35000
C 	C 	0.52810 0.07426 0.83006 0.24400
C 	C 	0.52127 0.32106 0.86693 0.29500
C 	C 	0.49446 0.98232 0.92897 0.13100
O 	O 	0.53129 0.85843 0.05660 -0.08700
N 	N 	0.52330 0.46519 0.85315 -0.02300
O 	O 	0.50871 0.42893 0.96186 -0.09900
O 	O 	0.53678 0.78057 0.49437 -0.07600
C 	C 	0.51858 0.05804 0.93113 -0.09500
O 	O 	0.52804 0.13009 0.89068 -0.36100
O 	O 	0.52212 0.01135 0.31912 -0.17000
C 	C 	0.53459 0.52760 0.48415 0.05700
H 	H 	0.53301 0.43350 0.50619 0.07000
C 	C 	0.53630 0.64349 0.40678 0.12400
O 	O 	0.53382 0.55301 0.37411 -0.09100
N 	N 	0.50261 0.94580 0.90469 -0.02300
C 	C 	0.55028 0.63808 0.45635 0.02500
N 	N 	0.54419 0.62069 0.37950 -0.02400
C 	C 	0.53431 0.65957 0.10299 -0.04800
O 	O 	0.55127 0.04751 0.85052 -0.37600
H 	H 	0.54265 0.68485 0.08304 0.07600
O 	O 	0.54390 0.55002 0.96187 -0.09400
C 	C 	0.55389 0.10064 0.90873 0.31000
C 	C 	0.55793 0.32270 0.62123 0.24800
C 	C 	0.54123 0.66070 0.14803 0.12500
C 	C 	0.53927 0.97164 0.27606 0.02700
C 	C 	0.55560 0.49097 0.50399 -0.00700
C 	C 	0.55950 0.61812 0.42951 -0.07300
H 	H 	0.53969 0.68504 0.19154 0.06800
C 	C 	0.56597 0.60145 0.48002 0.02700
O 	O 	0.56439 0.52774 0.85840 -0.09800
C 	C 	0.56251 0.08385 0.50254 0.05700
C 	C 	0.56294 0.16041 0.54202 -0.09400
O 	O 	0.56431 0.66795 0.36035 -0.08700
Ni	Ni	0.57361 0.20743 0.86291 1.10300
O 	O 	0.57088 0.26340 0.61786 -0.37400
C 	C 	0.55993 0.02304 0.29685 0.11000
O 	O 	0.57771 0.36266 0.86514 -0.39300
O 	O 	0.57917 0.37730 0.60435 -0.35700
C 	C 	0.56481 0.69794 0.17278 -0.08900
O 	O 	0.58264 0.27742 0.56283 -0.35800
H 	H 	0.56417 0.90725 0.24566 0.07200
H 	H 	0.58294 0.58095 0.42636 0.08300
C 	C 	0.57400 0.67754 0.12426 0.01600
C 	C 	0.57896 0.95559 0.25849 -0.09100
O 	O 	0.58336 0.98929 0.48004 -0.07000
O 	O 	0.55535 0.94433 0.89935 -0.11800
C 	C 	0.59671 0.21909 0.56129 0.30600
C 	C 	0.59390 0.13357 0.52316 -0.00400
N 	N 	0.59487 0.05804 0.48309 -0.01800
O 	O 	0.60255 0.42541 0.54802 -0.36600
C 	C 	0.60693 0.52767 0.52021 -0.09100
H 	H 	0.01949 0.67670 0.62390 0.06600
O 	O 	0.60804 0.10072 0.90490 -0.39500
C 	C 	0.61484 0.63915 0.49740 -0.07200
H 	H 	0.61469 0.24588 0.91224 0.16600
O 	O 	0.62643 0.26917 0.89429 -0.69900
C 	C 	0.62133 0.06389 0.29949 -0.07300
C 	C 	0.61866 0.75669 0.17191 0.01600
C 	C 	0.63452 0.60310 0.51797 0.11900
Ni	Ni	0.63551 0.37029 0.89833 1.08100
C 	C 	0.63552 0.48621 0.53679 0.29100
H 	H 	0.63769 0.69647 0.49491 0.08900
Ni	Ni	0.63743 0.09175 0.86633 1.07500
Ni	Ni	0.64087 0.37705 0.57614 1.10300
O 	O 	0.63790 0.21089 0.57788 -0.40600
C 	C 	0.62957 0.73446 0.12388 -0.07900
O 	O 	0.63806 0.10343 0.46951 -0.09200
H 	H 	0.63911 0.09770 0.31758 0.07900
H 	H 	0.64246 0.15259 0.52409 0.05600
O 	O 	0.65055 0.19112 0.85756 -0.70400
C 	C 	0.63953 0.99997 0.25982 0.13100
Ni	Ni	0.65535 0.25842 0.61601 1.07000
H 	H 	0.66344 0.20097 0.83829 0.16200
C 	C 	0.65171 0.77309 0.14845 0.12100
H 	H 	0.65459 0.74820 0.10511 0.08300
H 	H 	0.64848 0.76756 0.21452 0.05300
C 	C 	0.65638 0.78400 0.19330 -0.05600
C 	C 	0.65961 0.05475 0.27935 0.00400
O 	O 	0.67299 0.63914 0.56327 -0.09400
C 	C 	0.00437 0.13006 0.86213 0.10200
N 	N 	0.68165 0.64331 0.53687 -0.02100
O 	O 	0.69016 0.37726 0.93149 -0.39300
H 	H 	0.68861 0.32305 0.53916 0.16200
O 	O 	0.69429 0.50848 0.53928 -0.39500
O 	O 	0.68414 0.97688 0.25014 -0.18800
O 	O 	0.69719 0.35416 0.60208 -0.70200
O 	O 	0.70423 0.36849 0.55005 -0.70100
Ni	Ni	0.70641 0.26454 0.88493 1.10200
H 	H 	0.70948 0.39000 0.61742 0.16300
O 	O 	0.70905 0.42463 0.87603 -0.37500
O 	O 	0.71215 0.81265 0.15327 -0.17300
C 	C 	0.71181 0.81701 0.18205 0.04700
O 	O 	0.72251 0.11539 0.88452 -0.37100
O 	O 	0.72506 0.33353 0.85233 -0.37700
C 	C 	0.72508 0.39966 0.85361 0.27300
C 	C 	0.71858 0.06860 0.28342 -0.04500
O 	O 	0.73178 0.68763 0.52764 -0.09900
O 	O 	0.73330 0.31360 0.98571 -0.08700
O 	O 	0.73365 0.23464 0.61852 -0.39000
O 	O 	0.73078 0.49314 0.81889 -0.18200
Ni	Ni	0.74122 0.44585 0.52468 1.08200
C 	C 	0.73266 0.02223 0.26590 0.03900
H 	H 	0.74187 0.60576 0.78429 0.07500
H 	H 	0.00264 0.23836 0.86235 0.06700
C 	C 	0.74652 0.38188 0.92927 0.31500
H 	H 	0.74352 0.09166 0.30224 0.06600
H 	H 	0.74877 0.18387 0.66885 0.05000
C 	C 	0.75805 0.45125 0.83309 0.04600
O 	O 	0.75690 0.88133 0.22376 -0.39100
O 	O 	0.76323 0.34446 0.91038 -0.36500
Ni	Ni	0.76691 0.36123 0.57676 1.10100
C 	C 	0.76419 0.86245 0.19837 0.24100
C 	C 	0.77169 0.16453 0.87547 0.24300
O 	O 	0.77649 0.23278 0.87466 -0.35400
C 	C 	0.78177 0.55141 0.81287 0.12400
H 	H 	0.99627 0.09547 0.11344 0.07100
C 	C 	0.99467 0.20071 0.10561 0.02100
H 	H 	0.99259 0.00617 0.33769 0.06000
C 	C 	0.99139 0.91814 0.36335 0.02700
H 	H 	0.99896 0.56594 0.94755 0.09300
O 	O 	0.98709 0.88001 0.61380 -0.17500
O 	O 	0.98585 0.09068 0.17221 -0.38700
C 	C 	0.98130 0.81564 0.60048 0.13200
C 	C 	0.98415 0.79464 0.36768 -0.07300
C 	C 	0.96841 0.95304 0.34548 -0.05200
H 	H 	0.98099 0.34792 0.13673 0.07800
O 	O 	0.96519 0.12663 0.28112 -0.34000
C 	C 	0.96981 0.24114 0.12122 0.12900
H 	H 	0.96213 0.73829 0.36213 0.07400
C 	C 	0.95906 0.84560 0.35959 0.11500
C 	C 	0.97311 0.13344 0.11518 -0.05500
O 	O 	0.81698 0.51075 0.54564 -0.36300
O 	O 	0.83889 0.37579 0.55138 -0.36000
O 	O 	0.81329 0.33578 0.60861 -0.33500
C 	C 	0.82157 0.52146 0.57242 0.27000
C 	C 	0.83903 0.38865 0.52453 0.30700
C 	C 	0.78618 0.28340 0.62553 0.24200
O 	O 	0.80138 0.46728 0.58927 -0.36600
O 	O 	0.78976 0.38726 0.51123 -0.38600
O 	O 	0.99711 0.85059 0.77939 -0.33500
O 	O 	0.92126 0.84577 0.74887 -0.39400
Ni	Ni	0.95894 0.88759 0.71148 1.07000
O 	O 	0.94722 0.98184 0.72167 -0.38300
C 	C 	0.97640 0.04266 0.70962 0.25500
C 	C 	0.94664 0.81347 0.76612 0.24100
O 	O 	0.98118 0.91838 0.67178 -0.37100
Ni	Ni	0.91582 0.02884 0.26370 1.09800
O 	O 	0.92540 0.07208 0.22549 -0.70600
Ni	Ni	0.87964 0.98503 0.20261 1.10400
O 	O 	0.83964 0.05405 0.26523 -0.36800
O 	O 	0.86015 0.86175 0.29016 -0.37700
O 	O 	0.88337 0.03832 0.16668 -0.34600
O 	O 	0.88425 0.93971 0.23985 -0.70000
O 	O 	0.89872 0.98311 0.30163 -0.35700
O 	O 	0.81526 0.89403 0.18602 -0.34100
Ni	Ni	0.81193 0.87386 0.25651 1.07400
H 	H 	0.90680 0.10924 0.22376 0.16700
H 	H 	0.91473 0.91652 0.23972 0.15900
O 	O 	0.78317 0.94206 0.27892 -0.36400
C 	C 	0.93454 0.08962 0.16070 0.24200
C 	C 	0.78711 0.00522 0.26979 0.26200
C 	C 	0.89459 0.91602 0.30613 0.25200
O 	O 	0.94358 0.94822 0.18709 -0.34400
O 	O 	0.93030 0.20147 0.14068 -0.20200
C 	C 	0.93693 0.13492 0.13684 0.05600
O 	O 	0.91396 0.83039 0.33933 -0.18100
C 	C 	0.92256 0.90063 0.33136 0.05100
C 	C 	0.96135 0.47153 0.47298 -0.05700
C 	C 	0.99907 0.41041 0.50788 0.07600
C 	C 	0.94289 0.38723 0.52021 -0.00700
C 	C 	0.89610 0.40761 0.50952 -0.07700
C 	C 	0.90586 0.45044 0.48568 0.11700
H 	H 	0.93592 0.35395 0.53829 0.07700
N 	N 	0.86070 0.47572 0.47510 -0.02500
H 	H 	0.96857 0.50468 0.45484 0.08100
O 	O 	0.82980 0.44596 0.45300 -0.09800
O 	O 	0.85544 0.53361 0.48559 -0.12000
C 	C 	0.89057 0.26755 0.67556 0.11600
C 	C 	0.94450 0.25666 0.68132 -0.08100
C 	C 	0.94395 0.20328 0.70016 0.01200
C 	C 	0.89082 0.15580 0.70993 0.11800
C 	C 	0.83635 0.16358 0.70260 -0.08700
C 	C 	0.83797 0.22312 0.68689 0.01500
O 	O 	0.88198 0.30141 0.65175 -0.17500
C 	C 	0.81959 0.27154 0.64955 0.04800
C 	C 	0.79295 0.22522 0.67031 -0.06800
O 	O 	0.89373 0.08980 0.71751 -0.18800
C 	C 	0.95297 0.10167 0.71071 0.04100
C 	C 	0.98328 0.16892 0.70045 -0.05400
H 	H 	0.98437 0.28500 0.67000 0.07800
H 	H 	0.79414 0.12190 0.70722 0.06800
C 	C 	0.92989 0.77686 0.58466 -0.09100
C 	C 	0.91787 0.70336 0.57973 0.02800
C 	C 	0.94942 0.66721 0.59346 0.11300
C 	C 	0.99860 0.70514 0.61067 -0.06700
O 	O 	0.91759 0.59409 0.59635 -0.17500
C 	C 	0.86373 0.59008 0.58324 0.05200
C 	C 	0.86373 0.65476 0.57327 -0.05900
H 	H 	0.89833 0.80192 0.57815 0.08400
H 	H 	0.82433 0.66651 0.56707 0.07500
C 	C 	0.95515 0.57256 0.98538 0.03700
C 	C 	0.96367 0.59506 0.01327 0.06100
C 	C 	0.89488 0.52887 0.97448 0.02700
N 	N 	0.91369 0.59352 0.02945 -0.01600
C 	C 	0.86878 0.55316 0.95219 0.06000
C 	C 	0.81782 0.50539 0.93845 -0.00200
C 	C 	0.79266 0.43381 0.94680 -0.08800
C 	C 	0.81635 0.41085 0.97016 0.12400
C 	C 	0.86733 0.45849 0.98389 -0.07000
N 	N 	0.89506 0.62560 0.94291 -0.01700
H 	H 	0.79888 0.52337 0.92073 0.06300
N 	N 	0.78967 0.33861 0.97957 -0.02600
H 	H 	0.88684 0.43999 0.00128 0.08600
O 	O 	0.90603 0.56351 0.05346 -0.09200
O 	O 	0.87697 0.62422 0.02060 -0.07700
O 	O 	0.82258 0.29938 0.98361 -0.09000
O 	O 	0.90605 0.63789 0.91694 -0.09200
O 	O 	0.90514 0.67934 0.96017 -0.07600
C 	C 	0.88490 0.08792 0.87732 0.13100
C 	C 	0.90883 0.03543 0.86990 -0.09900
C 	C 	0.97020 0.05799 0.86438 0.03400
C 	C 	0.97894 0.18258 0.86732 -0.06300
C 	C 	0.92024 0.15991 0.87696 0.00600
O 	O 	0.82375 0.07508 0.87565 -0.19100
C 	C 	0.82596 0.14607 0.87355 0.04800
C 	C 	0.88304 0.19688 0.87443 -0.04800
C 	C 	0.99532 0.02128 0.84850 -0.06000
H 	H 	0.87997 0.97975 0.86684 0.08200
H 	H 	0.89527 0.25160 0.86727 0.06600
H 	H 	0.97146 0.96857 0.83938 0.06900
C 	C 	0.78288 0.60025 0.79204 -0.08600
C 	C 	0.83866 0.64045 0.78113 0.01500
C 	C 	0.89142 0.63590 0.79165 0.11600
C 	C 	0.88993 0.58593 0.81212 -0.08000
C 	C 	0.83411 0.54568 0.82281 0.01600
C 	C 	0.81991 0.48128 0.83454 -0.05200
O 	O 	0.94152 0.69727 0.78775 -0.17800
C 	C 	0.91346 0.73905 0.77421 0.04600
C 	C 	0.85239 0.70583 0.77010 -0.06500
H 	H 	0.93087 0.58085 0.82019 0.07800
H 	H 	0.84869 0.46595 0.84876 0.06600
H 	H 	0.82116 0.73361 0.76674 0.06100
