data_crystal

_cell_length_a 18.10128
_cell_length_b 16.76253
_cell_length_c 47.96827
_cell_angle_alpha 90.72797
_cell_angle_beta  90.99169
_cell_angle_gamma 110.88385

_symmetry_space_group_name_	'P 1'
_symmetry_space_group_name_H-M	'P 1'

loop_
_symmetry_equiv_pos_as_xyz
  x,y,z

loop_
_atom_site_label
_atom_site_type_symbol
_atom_site_fract_x
_atom_site_fract_y
_atom_site_fract_z
_atom_site_charge
O 	O 	0.09945 0.91794 0.76339 -0.69500
Ni	Ni	0.13056 0.02313 0.78820 1.09500
O 	O 	0.12390 0.82073 0.71546 -0.40500
Ni	Ni	0.19197 0.91922 0.74288 1.07300
O 	O 	0.18124 0.01993 0.72187 -0.43400
O 	O 	0.22601 0.00987 0.80808 -0.40000
O 	O 	0.03805 0.03600 0.76655 -0.71300
O 	O 	0.13420 0.12280 0.81447 -0.37200
H 	H 	0.07648 0.86434 0.77361 0.15300
H 	H 	0.05276 0.09269 0.75789 0.15600
C 	C 	0.20619 0.09756 0.73342 0.27100
C 	C 	0.05327 0.81156 0.70505 0.30100
C 	C 	0.28622 0.00623 0.79384 0.29700
C 	C 	0.06836 0.12183 0.82605 0.28100
O 	O 	0.20471 0.10811 0.76095 -0.37600
O 	O 	0.28237 0.00262 0.76637 -0.42700
Ni	Ni	0.35281 0.74815 0.40708 1.09800
O 	O 	0.32286 0.67178 0.37180 -0.69900
Ni	Ni	0.21212 0.67135 0.36491 1.09500
O 	O 	0.44932 0.71816 0.41698 -0.37400
O 	O 	0.41975 0.58173 0.40137 -0.40400
O 	O 	0.42838 0.84951 0.38578 -0.37200
Ni	Ni	0.31307 0.55237 0.37902 1.06300
O 	O 	0.35345 0.93260 0.41681 -0.40000
O 	O 	0.25350 0.54987 0.41502 -0.41800
O 	O 	0.18317 0.58913 0.33142 -0.39800
O 	O 	0.24665 0.75334 0.39838 -0.71300
O 	O 	0.37427 0.82527 0.44138 -0.38200
O 	O 	0.10791 0.69288 0.36013 -0.37500
O 	O 	0.17136 0.83739 0.35891 -0.41700
Ni	Ni	0.26288 0.87142 0.38883 1.06300
H 	H 	0.35747 0.69556 0.35591 0.15200
H 	H 	0.21154 0.73550 0.41446 0.15400
C 	C 	0.18393 0.55827 0.41485 0.26500
O 	O 	0.33865 0.87699 0.35732 -0.42200
C 	C 	0.44186 0.63917 0.42174 0.28100
C 	C 	0.19220 0.51503 0.33300 0.28600
C 	C 	0.41055 0.87814 0.36223 0.29700
C 	C 	0.10571 0.77046 0.36101 0.27500
C 	C 	0.36713 0.90080 0.44075 0.26700
O 	O 	0.15266 0.57405 0.39141 -0.36700
O 	O 	0.21054 0.48961 0.35715 -0.41200
Ni	Ni	0.36415 0.63128 0.13670 1.09900
O 	O 	0.27642 0.61808 0.10726 -0.70100
Ni	Ni	0.20418 0.66113 0.12876 1.09800
O 	O 	0.40616 0.54422 0.11880 -0.36900
O 	O 	0.28217 0.45057 0.11046 -0.41900
O 	O 	0.44228 0.72468 0.11305 -0.37500
Ni	Ni	0.21300 0.50799 0.09050 1.07200
O 	O 	0.47305 0.80117 0.16330 -0.41300
O 	O 	0.11724 0.46093 0.11595 -0.39800
O 	O 	0.10588 0.62296 0.10245 -0.37600
O 	O 	0.30006 0.69037 0.15550 -0.70500
O 	O 	0.45044 0.65738 0.16670 -0.38600
O 	O 	0.15512 0.72961 0.15331 -0.37000
O 	O 	0.26708 0.84905 0.15136 -0.41500
Ni	Ni	0.36407 0.81130 0.15738 1.06400
H 	H 	0.29716 0.65752 0.09175 0.15100
H 	H 	0.28553 0.66767 0.17439 0.15200
C 	C 	0.11652 0.47847 0.14274 0.29800
O 	O 	0.37922 0.82067 0.11552 -0.41600
C 	C 	0.35774 0.47787 0.10477 0.27200
C 	C 	0.10757 0.60343 0.07564 0.27800
C 	C 	0.42765 0.79028 0.10296 0.27800
C 	C 	0.19694 0.80834 0.16177 0.27400
C 	C 	0.48780 0.73719 0.17530 0.28100
O 	O 	0.15478 0.55592 0.15282 -0.39400
O 	O 	0.15566 0.56599 0.06620 -0.41600
O 	O 	0.03466 0.18010 0.24744 -0.38000
O 	O 	0.09038 0.04533 0.25052 -0.40900
O 	O 	0.00462 0.03230 0.21343 -0.37300
Ni	Ni	0.02632 0.02503 0.28630 1.06300
O 	O 	0.04399 0.15053 0.29336 -0.41700
C 	C 	0.05546 0.20565 0.27331 0.29600
C 	C 	0.05973 0.01031 0.22601 0.26000
C 	C 	0.98166 0.37071 0.14900 -0.04900
C 	C 	0.05759 0.41603 0.16027 -0.07800
C 	C 	0.07713 0.39900 0.18771 0.07100
C 	C 	0.94715 0.28704 0.19111 -0.10500
C 	C 	0.92656 0.30571 0.16410 0.08500
C 	C 	0.84684 0.25529 0.15104 -0.19600
H 	H 	0.96588 0.38517 0.12826 0.05000
C 	C 	0.15801 0.44612 0.20056 -0.18700
H 	H 	0.83902 0.27938 0.13013 0.06300
H 	H 	0.79915 0.26013 0.16444 0.07100
H 	H 	0.84044 0.18717 0.14854 0.07200
H 	H 	0.16429 0.51305 0.20564 0.06900
H 	H 	0.20491 0.44562 0.18600 0.06100
C 	C 	0.13497 0.83472 0.20489 -0.03800
C 	C 	0.15788 0.85753 0.17749 -0.09300
C 	C 	0.14789 0.93039 0.16599 0.07600
C 	C 	0.12047 0.98259 0.18278 -0.02200
C 	C 	0.09781 0.96011 0.21024 -0.07300
C 	C 	0.10373 0.88467 0.22127 0.05900
C 	C 	0.07681 0.85707 0.25037 -0.17900
H 	H 	0.14213 0.77841 0.21356 0.03200
H 	H 	0.11520 0.04001 0.17427 0.03600
C 	C 	0.16692 0.95329 0.13596 -0.19200
H 	H 	0.11689 0.90224 0.26593 0.04200
H 	H 	0.14496 0.89536 0.12223 0.07800
H 	H 	0.23184 0.98450 0.13386 0.07800
H 	H 	0.13833 0.99800 0.12848 0.07300
H 	H 	0.35518 0.85063 0.30328 0.06600
C 	C 	0.04785 0.34530 0.28667 -0.03100
C 	C 	0.09444 0.29700 0.27995 -0.10200
C 	C 	0.17697 0.33205 0.28465 0.07600
C 	C 	0.20984 0.40856 0.30016 -0.04600
C 	C 	0.16147 0.45141 0.31018 -0.09500
C 	C 	0.08067 0.42254 0.30183 0.07400
C 	C 	0.02892 0.47235 0.30957 -0.18600
H 	H 	0.98515 0.32050 0.28148 0.01400
H 	H 	0.27239 0.43240 0.30569 0.01800
C 	C 	0.22933 0.28514 0.27493 -0.19400
H 	H 	0.96714 0.44046 0.30166 0.05300
H 	H 	0.05231 0.53661 0.30028 0.07500
H 	H 	0.02725 0.47881 0.33260 0.08300
H 	H 	0.21172 0.25906 0.25343 0.07600
H 	H 	0.22427 0.23185 0.28918 0.06000
H 	H 	0.29227 0.32827 0.27457 0.05700
C 	C 	0.93337 0.79990 0.32372 -0.04400
C 	C 	0.92190 0.86046 0.34186 -0.10900
C 	C 	0.94935 0.86560 0.36975 0.08200
C 	C 	0.00517 0.82841 0.37686 -0.04800
C 	C 	0.02939 0.78195 0.35679 -0.08500
C 	C 	0.98808 0.76107 0.33086 0.06000
C 	C 	0.00436 0.70064 0.31043 -0.17600
H 	H 	0.90728 0.79094 0.30286 0.02400
H 	H 	0.03347 0.84033 0.39739 0.02400
H 	H 	0.96640 0.69035 0.29129 0.05200
H 	H 	0.99196 0.63771 0.32022 0.07100
H 	H 	0.06708 0.72661 0.30411 0.06400
C 	C 	0.36506 0.16244 0.53244 -0.04000
C 	C 	0.34544 0.11938 0.50660 -0.05400
C 	C 	0.38327 0.06343 0.49804 0.03000
C 	C 	0.39759 0.95885 0.46495 -0.02800
C 	C 	0.36097 0.01653 0.47284 -0.06400
H 	H 	0.33491 0.20486 0.53883 0.03400
H 	H 	0.30029 0.12899 0.49338 0.03300
H 	H 	0.31363 0.02269 0.45989 0.02700
C 	C 	0.06610 0.36224 0.49151 -0.04300
C 	C 	0.01705 0.34062 0.51467 -0.03800
C 	C 	0.04447 0.49711 0.48826 -0.00300
C 	C 	0.07933 0.43994 0.47800 0.01300
C 	C 	0.05533 0.57401 0.47435 0.01100
C 	C 	0.12603 0.46071 0.45414 -0.02300
C 	C 	0.13534 0.53654 0.43993 -0.06100
C 	C 	0.09871 0.59207 0.44980 -0.02700
H 	H 	0.09283 0.31796 0.48387 0.03500
H 	H 	0.00619 0.27974 0.52449 0.03600
H 	H 	0.15383 0.41750 0.44635 0.03900
H 	H 	0.10408 0.64924 0.43845 0.02300
C 	C 	0.60282 0.74042 0.50711 -0.04400
C 	C 	0.61776 0.72919 0.53522 -0.04500
C 	C 	0.50872 0.59432 0.50382 -0.00900
C 	C 	0.54857 0.67322 0.49128 0.01500
C 	C 	0.53196 0.68482 0.46332 -0.02500
C 	C 	0.47369 0.61934 0.44809 -0.06400
C 	C 	0.43665 0.53951 0.46022 -0.02800
H 	H 	0.63323 0.80154 0.49770 0.03800
H 	H 	0.66003 0.78152 0.54713 0.03600
H 	H 	0.56193 0.74583 0.45373 0.05100
C 	C 	0.34865 0.20835 0.67885 -0.04300
C 	C 	0.40305 0.27191 0.69578 -0.09000
C 	C 	0.37831 0.29595 0.72122 0.07900
C 	C 	0.30438 0.24594 0.73153 -0.04400
C 	C 	0.25712 0.17094 0.71711 -0.08700
C 	C 	0.27390 0.16017 0.68891 0.07400
C 	C 	0.21273 0.09967 0.66940 -0.19000
H 	H 	0.36542 0.19432 0.65829 0.05000
H 	H 	0.28695 0.26120 0.75183 0.04900
C 	C 	0.43226 0.37115 0.73817 -0.19300
H 	H 	0.21929 0.12512 0.64794 0.06700
H 	H 	0.15192 0.09127 0.67601 0.07300
H 	H 	0.22029 0.03679 0.66880 0.07100
H 	H 	0.45440 0.42825 0.72489 0.07700
H 	H 	0.48329 0.35642 0.74666 0.06400
H 	H 	0.40106 0.38724 0.75590 0.06100
C 	C 	0.99568 0.63947 0.72891 -0.19400
H 	H 	0.96366 0.57250 0.73509 0.06400
H 	H 	0.97887 0.68205 0.74338 0.06700
H 	H 	0.06008 0.65254 0.73131 0.06800
C 	C 	0.84003 0.48667 0.03641 -0.04600
C 	C 	0.91768 0.54581 0.03515 0.01900
C 	C 	0.96898 0.56201 0.05853 -0.03400
C 	C 	0.04877 0.61412 0.05621 -0.05200
C 	C 	0.07465 0.65953 0.03169 -0.03200
H 	H 	0.81710 0.45759 0.05601 0.03800
H 	H 	0.94879 0.52842 0.07774 0.04500
H 	H 	0.13592 0.70157 0.03027 0.03700
C 	C 	0.55602 0.96948 0.05924 0.05500
C 	C 	0.54680 0.92834 0.03288 -0.03500
C 	C 	0.56592 0.93595 0.98260 -0.01300
C 	C 	0.52459 0.84747 0.98008 -0.02700
C 	C 	0.49333 0.79980 0.00367 -0.05500
C 	C 	0.50297 0.84004 0.03005 0.02900
C 	C 	0.46686 0.79393 0.05345 -0.03500
C 	C 	0.47274 0.83599 0.07935 -0.05600
C 	C 	0.51884 0.92302 0.08236 -0.03900
H 	H 	0.51535 0.81578 0.95980 0.03200
H 	H 	0.46019 0.73194 0.00129 0.03900
H 	H 	0.43198 0.72633 0.05135 0.03000
H 	H 	0.52447 0.95469 0.10258 0.04100
C 	C 	0.45108 0.50829 0.03391 0.01300
C 	C 	0.41444 0.42624 0.02176 -0.01200
C 	C 	0.34243 0.26236 0.99764 -0.04300
C 	C 	0.32521 0.27854 0.02501 -0.04600
C 	C 	0.36140 0.36011 0.03730 0.01100
C 	C 	0.34504 0.37646 0.06486 -0.03700
C 	C 	0.38127 0.45830 0.07697 -0.08700
C 	C 	0.43464 0.52388 0.06147 -0.03400
H 	H 	0.31463 0.19885 0.98857 0.03700
H 	H 	0.28405 0.22743 0.03670 0.03300
H 	H 	0.30379 0.32602 0.07679 0.03400
H 	H 	0.46169 0.58746 0.07062 0.04400
C 	C 	0.49905 0.13400 0.81509 -0.05700
C 	C 	0.50897 0.08839 0.83817 -0.07900
C 	C 	0.44932 0.00997 0.84454 0.03100
C 	C 	0.37707 0.98326 0.82953 0.01200
C 	C 	0.36461 0.03262 0.80785 -0.12600
C 	C 	0.42644 0.10858 0.80040 0.09100
C 	C 	0.41411 0.16508 0.77791 -0.20200
H 	H 	0.54601 0.19288 0.80981 0.02500
H 	H 	0.33006 0.92466 0.83501 0.02500
C 	C 	0.46089 0.95682 0.86819 -0.16400
H 	H 	0.46442 0.22692 0.77726 0.06000
H 	H 	0.36010 0.17975 0.78196 0.08900
H 	H 	0.40870 0.13313 0.75717 0.08200
H 	H 	0.45016 0.98369 0.88834 0.08400
H 	H 	0.52199 0.95598 0.86844 0.07000
H 	H 	0.41953 0.88958 0.86603 0.05800
Ni	Ni	0.62245 0.26562 0.90321 1.09900
O 	O 	0.63443 0.33385 0.86696 -0.69800
Ni	Ni	0.74974 0.35627 0.86002 1.09400
O 	O 	0.51879 0.27743 0.91507 -0.36900
O 	O 	0.51781 0.39654 0.89323 -0.40300
O 	O 	0.55561 0.15411 0.88286 -0.37500
Ni	Ni	0.62446 0.44631 0.87266 1.06400
O 	O 	0.65262 0.09653 0.91226 -0.41800
O 	O 	0.68671 0.46284 0.90943 -0.42000
O 	O 	0.76240 0.43546 0.82709 -0.40100
O 	O 	0.73246 0.27821 0.89339 -0.71100
O 	O 	0.61923 0.19545 0.93765 -0.38300
O 	O 	0.86189 0.35475 0.85485 -0.37400
O 	O 	0.81537 0.20905 0.85254 -0.42400
Ni	Ni	0.73149 0.16435 0.88328 1.06100
H 	H 	0.60026 0.30161 0.85124 0.15300
H 	H 	0.77009 0.30352 0.90910 0.15300
C 	C 	0.76139 0.46950 0.91021 0.26300
O 	O 	0.64631 0.14078 0.85266 -0.42200
C 	C 	0.51031 0.35181 0.91603 0.28100
C 	C 	0.75243 0.50888 0.83013 0.29000
C 	C 	0.57308 0.13087 0.85843 0.28400
C 	C 	0.87501 0.28233 0.85489 0.27500
C 	C 	0.64079 0.12806 0.93661 0.28000
O 	O 	0.79686 0.45943 0.88724 -0.37200
O 	O 	0.72231 0.52629 0.85330 -0.41200
Ni	Ni	0.59458 0.39021 0.64559 1.09900
O 	O 	0.66577 0.38965 0.61262 -0.69500
Ni	Ni	0.74390 0.34360 0.62977 1.09700
O 	O 	0.54729 0.47338 0.62835 -0.36900
O 	O 	0.66934 0.55950 0.61637 -0.42500
O 	O 	0.50738 0.29030 0.62632 -0.38300
Ni	Ni	0.72165 0.49245 0.59232 1.07100
O 	O 	0.53018 0.25705 0.69866 -0.42100
O 	O 	0.82910 0.53717 0.61320 -0.40500
O 	O 	0.82681 0.36367 0.59859 -0.37000
O 	O 	0.66538 0.33301 0.66133 -0.69700
O 	O 	0.52148 0.37700 0.67837 -0.38600
O 	O 	0.79720 0.27213 0.65099 -0.37600
O 	O 	0.67715 0.16553 0.65488 -0.42700
Ni	Ni	0.60421 0.21884 0.67465 1.06600
H 	H 	0.63444 0.34680 0.59853 0.14700
H 	H 	0.69384 0.36753 0.67772 0.14700
C 	C 	0.83875 0.52899 0.64003 0.29500
O 	O 	0.52202 0.17092 0.64333 -0.39800
C 	C 	0.59230 0.53764 0.61384 0.27400
C 	C 	0.82244 0.39970 0.57438 0.28600
C 	C 	0.51484 0.21620 0.62207 0.26500
C 	C 	0.75397 0.19574 0.65968 0.28000
C 	C 	0.48728 0.30089 0.68916 0.29600
O 	O 	0.81440 0.45236 0.65084 -0.38800
O 	O 	0.75990 0.41829 0.56741 -0.42300
Ni	Ni	0.02026 0.94550 0.73750 1.10600
O 	O 	0.03092 0.87729 0.70338 -0.38000
O 	O 	0.92912 0.84301 0.75281 -0.37700
O 	O 	0.86545 0.97490 0.75377 -0.37800
O 	O 	0.93904 0.97699 0.71517 -0.35000
O 	O 	0.00509 0.05194 0.82478 -0.42100
Ni	Ni	0.94140 0.01117 0.78757 1.05800
O 	O 	0.93094 0.89025 0.79788 -0.40800
C 	C 	0.91909 0.82760 0.77965 0.28600
C 	C 	0.88716 0.00140 0.72825 0.23300
Ni	Ni	0.93472 0.07728 0.23658 1.09600
O 	O 	0.86749 0.11850 0.26360 -0.70500
Ni	Ni	0.84068 0.02146 0.29041 1.08800
O 	O 	0.91711 0.14034 0.20245 -0.38400
O 	O 	0.82987 0.20306 0.21542 -0.41400
Ni	Ni	0.76896 0.11499 0.24531 1.06300
O 	O 	0.76933 0.00661 0.22540 -0.44800
O 	O 	0.75335 0.04499 0.31153 -0.40500
O 	O 	0.92359 0.99643 0.26745 -0.69000
O 	O 	0.84308 0.93075 0.31856 -0.37000
O 	O 	0.97517 0.00306 0.32526 -0.44600
H 	H 	0.89581 0.17418 0.27299 0.15200
H 	H 	0.90465 0.93679 0.26020 0.15500
C 	C 	0.74724 0.93269 0.23843 0.29500
C 	C 	0.89850 0.20851 0.20510 0.30200
C 	C 	0.68780 0.04194 0.29849 0.29100
C 	C 	0.91180 0.93561 0.32957 0.30600
O 	O 	0.75636 0.93022 0.26593 -0.37200
O 	O 	0.68406 0.04032 0.27098 -0.42900
C 	C 	0.02066 0.33645 0.20315 -0.02800
H 	H 	0.03517 0.32389 0.22422 0.04600
H 	H 	0.16756 0.41600 0.22014 0.06600
C 	C 	0.56253 0.74868 0.21968 -0.04800
C 	C 	0.56314 0.75770 0.19075 -0.09000
C 	C 	0.63526 0.80168 0.17764 0.08500
C 	C 	0.70107 0.85124 0.19396 -0.04300
C 	C 	0.69593 0.85459 0.22308 -0.09300
C 	C 	0.63013 0.79355 0.23597 0.07900
C 	C 	0.63204 0.77408 0.26652 -0.19500
H 	H 	0.50863 0.70970 0.22963 0.03000
H 	H 	0.75410 0.89196 0.18393 0.04900
C 	C 	0.64042 0.80192 0.14630 -0.19900
H 	H 	0.58596 0.71158 0.27127 0.06100
H 	H 	0.62080 0.82399 0.27930 0.08600
H 	H 	0.69002 0.76992 0.27261 0.08200
H 	H 	0.61944 0.85151 0.13772 0.08500
H 	H 	0.60388 0.73858 0.13717 0.09000
H 	H 	0.70232 0.81575 0.13982 0.07200
H 	H 	0.07720 0.79221 0.25457 0.05600
H 	H 	0.01541 0.85512 0.25318 0.03500
C 	C 	0.54653 0.94661 0.30097 -0.01900
C 	C 	0.61241 0.01020 0.31364 -0.10700
C 	C 	0.60658 0.03904 0.34105 0.04200
C 	C 	0.53885 0.99668 0.35642 0.01600
C 	C 	0.47544 0.92887 0.34437 -0.10200
C 	C 	0.47814 0.90562 0.31612 0.06800
C 	C 	0.40977 0.83503 0.30234 -0.18500
H 	H 	0.54949 0.92689 0.27953 0.04300
H 	H 	0.53582 0.01585 0.37793 0.02300
C 	C 	0.67237 0.11371 0.35422 -0.17700
H 	H 	0.42080 0.82580 0.28003 0.05300
H 	H 	0.40027 0.77391 0.31299 0.04600
H 	H 	0.69745 0.16473 0.33882 0.05600
H 	H 	0.71969 0.09207 0.36239 0.07000
H 	H 	0.65049 0.14233 0.37180 0.05700
C 	C 	0.92757 0.91994 0.39095 -0.19900
H 	H 	0.86647 0.91842 0.38686 0.07900
H 	H 	0.96950 0.98690 0.39003 0.07500
H 	H 	0.92987 0.89604 0.41233 0.06600
C 	C 	0.44264 0.05232 0.51533 -0.03700
C 	C 	0.46184 0.09497 0.54141 -0.00400
C 	C 	0.42250 0.14975 0.55010 0.00800
C 	C 	0.51936 0.08156 0.55903 0.01600
C 	C 	0.55875 0.02751 0.55017 -0.06400
C 	C 	0.54005 0.98560 0.52421 -0.02600
C 	C 	0.48147 0.99693 0.50683 0.04000
C 	C 	0.45966 0.95158 0.48149 -0.03800
C 	C 	0.44024 0.19004 0.57650 -0.02800
C 	C 	0.49624 0.17495 0.59430 -0.06900
C 	C 	0.53615 0.12150 0.58540 -0.03700
H 	H 	0.60344 0.01734 0.56349 0.03600
H 	H 	0.57036 0.94332 0.51779 0.03800
H 	H 	0.48950 0.90891 0.47494 0.05600
H 	H 	0.40982 0.23182 0.58334 0.04400
H 	H 	0.58046 0.11141 0.59898 0.03400
C 	C 	0.98166 0.39705 0.52489 0.01000
C 	C 	0.99719 0.47657 0.51206 -0.01100
C 	C 	0.02209 0.63163 0.48506 -0.03800
C 	C 	0.97711 0.61236 0.50914 -0.04800
C 	C 	0.96331 0.53438 0.52245 0.01500
C 	C 	0.91296 0.51186 0.54517 -0.02200
C 	C 	0.89186 0.42999 0.55646 -0.06200
C 	C 	0.92843 0.37373 0.54703 -0.02200
H 	H 	0.03088 0.69132 0.47472 0.03200
H 	H 	0.95158 0.65735 0.51708 0.03500
H 	H 	0.88634 0.55606 0.55306 0.02400
H 	H 	0.91286 0.31091 0.55598 0.03900
C 	C 	0.57871 0.65060 0.54783 0.01000
C 	C 	0.52346 0.58313 0.53213 -0.01200
C 	C 	0.45355 0.52681 0.48811 0.01400
C 	C 	0.41420 0.44836 0.50076 -0.04300
C 	C 	0.42927 0.43707 0.52885 -0.04400
C 	C 	0.48383 0.50414 0.54465 0.01100
C 	C 	0.50124 0.49216 0.57250 -0.03400
C 	C 	0.55960 0.55771 0.58771 -0.08600
C 	C 	0.59610 0.63772 0.57564 -0.03600
H 	H 	0.37174 0.39610 0.48887 0.03500
H 	H 	0.39876 0.37601 0.53829 0.03700
H 	H 	0.47282 0.43037 0.58183 0.04400
H 	H 	0.64038 0.68851 0.58752 0.03500
H 	H 	0.39183 0.48898 0.44843 0.03400
C 	C 	0.83083 0.18277 0.70140 -0.02900
C 	C 	0.79035 0.14642 0.67655 -0.11400
C 	C 	0.77796 0.06037 0.66954 0.09600
C 	C 	0.80373 0.01124 0.68810 -0.08000
C 	C 	0.84523 0.04792 0.71277 -0.06600
C 	C 	0.85834 0.13417 0.71963 0.04400
C 	C 	0.90387 0.17540 0.74587 -0.17300
H 	H 	0.83984 0.24868 0.70677 0.03000
H 	H 	0.79409 0.94510 0.68285 0.07000
C 	C 	0.73715 0.02049 0.64241 -0.22700
H 	H 	0.90734 0.24257 0.74839 0.05300
H 	H 	0.96522 0.17571 0.74508 0.03300
H 	H 	0.87444 0.13998 0.76442 0.02600
H 	H 	0.75909 0.06513 0.62496 0.07600
H 	H 	0.67232 0.00394 0.64410 0.07600
H 	H 	0.74858 0.96125 0.63713 0.08500
C 	C 	0.92082 0.58770 0.68341 -0.03800
C 	C 	0.89599 0.60213 0.65651 -0.08900
C 	C 	0.92770 0.68576 0.64553 0.08000
C 	C 	0.98979 0.74865 0.65998 -0.03700
C 	C 	0.01039 0.73587 0.68740 -0.08500
C 	C 	0.97592 0.65459 0.69922 0.07200
H 	H 	0.89616 0.52486 0.69231 0.04700
H 	H 	0.01718 0.81088 0.65083 0.05200
C 	C 	0.89266 0.71081 0.61976 -0.19100
H 	H 	0.82706 0.68584 0.62035 0.06700
H 	H 	0.91305 0.68702 0.60076 0.07200
H 	H 	0.91131 0.78134 0.61829 0.06700
C 	C 	0.79246 0.46268 0.01219 -0.04300
C 	C 	0.82207 0.49742 0.98641 0.01300
C 	C 	0.89877 0.55959 0.98518 -0.00500
C 	C 	0.94629 0.58436 0.00959 -0.01800
C 	C 	0.02426 0.64361 0.00813 0.02500
C 	C 	0.05266 0.68111 0.98257 -0.04900
C 	C 	0.00551 0.65637 0.95830 -0.03500
C 	C 	0.92926 0.59419 0.95933 0.00700
C 	C 	0.88397 0.56455 0.93478 -0.02400
C 	C 	0.80840 0.50115 0.93593 -0.06500
C 	C 	0.77696 0.46894 0.96176 -0.03200
H 	H 	0.73320 0.41572 0.01340 0.03800
H 	H 	0.11209 0.72766 0.98134 0.04000
H 	H 	0.02893 0.68441 0.93862 0.03600
H 	H 	0.90734 0.59061 0.91484 0.04500
H 	H 	0.71821 0.42050 0.96256 0.03100
C 	C 	0.63207 0.10466 0.03842 -0.01700
C 	C 	0.60009 0.05725 0.06193 -0.08600
C 	C 	0.57862 0.97617 0.00918 0.03800
C 	C 	0.62011 0.06495 0.01191 -0.03200
C 	C 	0.64585 0.11349 0.98802 -0.00300
C 	C 	0.62871 0.07448 0.96142 -0.10000
C 	C 	0.59139 0.98530 0.95879 0.01400
H 	H 	0.66473 0.17264 0.04076 0.02800
H 	H 	0.60847 0.08914 0.08217 0.03900
H 	H 	0.67625 0.18207 0.99000 0.02900
H 	H 	0.57874 0.95508 0.93825 0.03600
C 	C 	0.52035 0.55789 0.99086 -0.04300
C 	C 	0.50351 0.57392 0.01828 -0.04600
C 	C 	0.43141 0.41007 0.99416 -0.00900
C 	C 	0.48528 0.47591 0.97876 0.01400
C 	C 	0.39607 0.32755 0.98220 0.01400
C 	C 	0.50576 0.45807 0.95191 -0.02900
C 	C 	0.47411 0.37473 0.94064 -0.06300
C 	C 	0.41702 0.31045 0.95536 -0.02300
H 	H 	0.56138 0.60906 0.97916 0.03800
H 	H 	0.53163 0.63732 0.02741 0.04000
H 	H 	0.54951 0.50764 0.94046 0.03300
H 	H 	0.39138 0.24652 0.94635 0.04800
C 	C 	0.99009 0.24855 0.87159 -0.05800
C 	C 	0.95558 0.28285 0.85079 -0.09100
C 	C 	0.98780 0.29392 0.82391 0.06700
C 	C 	0.04000 0.25225 0.81662 -0.04500
C 	C 	0.06037 0.20142 0.83612 -0.10300
C 	C 	0.04429 0.20950 0.86446 0.08500
C 	C 	0.07599 0.16659 0.88659 -0.19900
H 	H 	0.96941 0.24516 0.89278 0.02200
H 	H 	0.05717 0.25134 0.79510 0.02600
C 	C 	0.96170 0.34369 0.80242 -0.19800
H 	H 	0.08118 0.20009 0.90707 0.06400
H 	H 	0.13578 0.16763 0.88121 0.07600
H 	H 	0.03553 0.09932 0.88854 0.06700
H 	H 	0.96479 0.40614 0.81147 0.08000
H 	H 	0.89994 0.30711 0.79539 0.06600
H 	H 	0.00026 0.35676 0.78398 0.06400
C 	C 	0.87299 0.63700 0.82661 -0.03600
C 	C 	0.80290 0.58150 0.81406 -0.08700
C 	C 	0.77848 0.60039 0.78764 0.06500
C 	C 	0.82087 0.67905 0.77543 -0.03800
C 	C 	0.88709 0.73841 0.78933 -0.09400
C 	C 	0.91578 0.71500 0.81448 0.07000
C 	C 	0.98909 0.77460 0.82945 -0.19000
H 	H 	0.89267 0.62088 0.84655 0.05100
H 	H 	0.80002 0.69574 0.75581 0.04900
C 	C 	0.70532 0.53923 0.77312 -0.18800
H 	H 	0.01328 0.73952 0.84439 0.06300
H 	H 	0.97476 0.82422 0.84135 0.07600
H 	H 	0.03641 0.80524 0.81460 0.04700
H 	H 	0.65204 0.53784 0.78453 0.05200
H 	H 	0.70781 0.47399 0.77238 0.06000
H 	H 	0.69957 0.55819 0.75131 0.06000
