data_crystal

_cell_length_a 30.72046
_cell_length_b 31.21986
_cell_length_c 33.27961
_cell_angle_alpha 95.53312
_cell_angle_beta  95.53105
_cell_angle_gamma 125.53542

_symmetry_space_group_name_	'P 1'
_symmetry_space_group_name_H-M	'P 1'

loop_
_symmetry_equiv_pos_as_xyz
  x,y,z

loop_
_atom_site_label
_atom_site_type_symbol
_atom_site_fract_x
_atom_site_fract_y
_atom_site_fract_z
_atom_site_charge
C 	C 	0.02193 0.98469 0.97899 -0.09000
C 	C 	0.01923 0.98761 0.45291 0.02900
H 	H 	0.00847 0.91398 0.45904 0.05000
H 	H 	0.01722 0.05467 0.44673 0.05100
C 	C 	0.02937 0.06690 0.98675 -0.08700
H 	H 	0.04055 0.96416 0.97521 0.05600
C 	C 	0.05329 0.04030 0.98171 0.05200
H 	H 	0.05369 0.11001 0.98894 0.05400
C 	C 	0.97400 0.03779 0.98926 0.04200
C 	C 	0.96675 0.95557 0.98152 0.05400
C 	C 	0.94274 0.98204 0.98666 -0.08700
H 	H 	0.89993 0.95944 0.98853 0.05400
C 	C 	0.93763 0.98383 0.44907 0.04200
C 	C 	0.90714 0.92967 0.45263 -0.07900
C 	C 	0.93276 0.90448 0.45645 0.03200
C 	C 	0.98873 0.93350 0.45641 -0.07200
C 	C 	0.99357 0.01268 0.44914 -0.07400
H 	H 	0.86390 0.90737 0.45280 0.05200
Cu	Cu	0.65616 0.27629 0.01133 0.92800
Cu	Cu	0.69014 0.26472 0.92234 0.87200
Cu	Cu	0.68302 0.35381 0.95160 0.89700
Cu	Cu	0.65615 0.37677 0.03189 0.89400
C 	C 	0.68182 0.32944 0.09459 0.25200
O 	O 	0.57727 0.24505 0.01274 -0.36000
C 	C 	0.66098 0.30767 0.86320 0.25500
O 	O 	0.69853 0.35848 0.00953 -0.63900
O 	O 	0.64492 0.27544 0.95148 -0.64100
O 	O 	0.68924 0.23706 0.01149 -0.36800
O 	O 	0.74443 0.28403 0.96767 -0.44200
O 	O 	0.65390 0.34761 0.08311 -0.37600
O 	O 	0.72332 0.43065 0.95636 -0.37900
C 	C 	0.71710 0.46143 0.98150 0.28700
C 	C 	0.55407 0.26499 0.99556 0.28100
O 	O 	0.58438 0.31347 0.98745 -0.39200
O 	O 	0.68248 0.44175 0.00714 -0.39300
O 	O 	0.67821 0.29127 0.06994 -0.33600
C 	C 	0.73235 0.25324 0.99509 0.30400
O 	O 	0.68155 0.35066 0.89169 -0.36700
O 	O 	0.65276 0.26388 0.87282 -0.41100
H 	H 	0.73782 0.38253 0.02187 0.16400
H 	H 	0.60636 0.25297 0.93731 0.17200
Cu	Cu	0.72088 0.32088 0.44421 0.92700
Cu	Cu	0.72525 0.28279 0.53202 0.87100
Cu	Cu	0.63374 0.28552 0.49735 0.89800
Cu	Cu	0.61464 0.31268 0.41476 0.89600
C 	C 	0.69167 0.32197 0.36086 0.25800
O 	O 	0.75165 0.39883 0.44526 -0.36800
C 	C 	0.67359 0.30622 0.58696 0.25500
O 	O 	0.63592 0.27460 0.44012 -0.63700
O 	O 	0.71462 0.32724 0.50265 -0.64200
O 	O 	0.76168 0.28918 0.44569 -0.37300
O 	O 	0.70989 0.23149 0.48646 -0.44000
O 	O 	0.64440 0.31311 0.36351 -0.36400
O 	O 	0.55501 0.24155 0.48787 -0.37800
C 	C 	0.52463 0.24488 0.45938 0.30600
C 	C 	0.72474 0.41766 0.45533 0.30400
O 	O 	0.67414 0.38502 0.45999 -0.39000
O 	O 	0.54646 0.28326 0.43747 -0.39200
O 	O 	0.71252 0.30539 0.38597 -0.35600
C 	C 	0.74324 0.24509 0.46035 0.28700
O 	O 	0.63137 0.28344 0.55646 -0.36600
O 	O 	0.71996 0.31586 0.58059 -0.40900
H 	H 	0.61498 0.23639 0.42702 0.16600
H 	H 	0.73453 0.36453 0.51767 0.17300
C 	C 	0.64801 0.27923 0.68439 0.11400
C 	C 	0.61929 0.25360 0.71504 -0.08900
C 	C 	0.64533 0.27859 0.75605 0.00500
C 	C 	0.69244 0.32995 0.76618 0.11400
C 	C 	0.71838 0.35770 0.73531 -0.09000
C 	C 	0.69725 0.32903 0.69470 0.00600
O 	O 	0.62434 0.26458 0.64308 -0.19300
C 	C 	0.66517 0.31023 0.62941 0.04000
C 	C 	0.70726 0.35001 0.66060 -0.05900
O 	O 	0.70273 0.35484 0.80639 -0.19300
C 	C 	0.65762 0.31247 0.81975 0.03900
C 	C 	0.62166 0.26796 0.78904 -0.05900
H 	H 	0.57823 0.21681 0.70729 0.06300
H 	H 	0.75246 0.39981 0.74247 0.06300
H 	H 	0.74681 0.38355 0.65642 0.04900
H 	H 	0.59026 0.22818 0.79385 0.04900
C 	C 	0.73797 0.37993 0.27380 0.11800
C 	C 	0.73151 0.40063 0.24006 -0.09100
C 	C 	0.73742 0.38324 0.20188 0.01200
C 	C 	0.74062 0.34081 0.19578 0.11200
C 	C 	0.74280 0.31722 0.22902 -0.08500
C 	C 	0.74612 0.34080 0.26845 0.00700
O 	O 	0.71814 0.38196 0.30918 -0.19500
C 	C 	0.71522 0.34041 0.32441 0.04600
C 	C 	0.73146 0.31545 0.30046 -0.05400
O 	O 	0.72230 0.31343 0.15527 -0.18500
C 	C 	0.70711 0.34306 0.13808 0.04500
C 	C 	0.71596 0.38459 0.16543 -0.06600
H 	H 	0.71899 0.42667 0.24294 0.06400
H 	H 	0.73890 0.28024 0.22402 0.06600
H 	H 	0.71896 0.27508 0.30057 0.05600
H 	H 	0.69547 0.40315 0.16114 0.05100
C 	C 	0.90124 0.84772 0.46061 -0.00400
C 	C 	0.86362 0.80727 0.42692 -0.03500
C 	C 	0.83972 0.75350 0.42881 -0.04200
C 	C 	0.85324 0.73981 0.46445 0.00700
C 	C 	0.88921 0.78011 0.49872 -0.04200
C 	C 	0.91308 0.83384 0.49681 -0.03600
C 	C 	0.83170 0.68361 0.46523 0.00900
C 	C 	0.86729 0.66916 0.46907 -0.04400
C 	C 	0.84673 0.61563 0.46859 -0.03000
C 	C 	0.79054 0.57627 0.46428 -0.00900
C 	C 	0.75500 0.59070 0.46088 -0.03000
C 	C 	0.77548 0.64419 0.46134 -0.04400
C 	C 	0.76903 0.52077 0.46189 0.04700
C 	C 	0.74974 0.47393 0.45929 -0.11100
H 	H 	0.85426 0.81759 0.39883 0.03800
H 	H 	0.81181 0.72264 0.40226 0.04000
H 	H 	0.89940 0.76989 0.52652 0.04000
H 	H 	0.94188 0.86479 0.52306 0.03800
H 	H 	0.91074 0.69927 0.47197 0.04100
H 	H 	0.87444 0.60476 0.47117 0.03900
H 	H 	0.71149 0.56046 0.45754 0.03900
H 	H 	0.74772 0.65496 0.45853 0.04100
C 	C 	0.76236 0.21242 0.44951 -0.09500
C 	C 	0.81532 0.23684 0.44168 0.01400
C 	C 	0.83599 0.20717 0.43716 -0.06800
C 	C 	0.80386 0.15283 0.44032 0.02800
C 	C 	0.75008 0.12781 0.44613 -0.06900
C 	C 	0.72939 0.15740 0.45063 0.01400
C 	C 	0.82772 0.12319 0.44060 -0.00400
C 	C 	0.80566 0.07734 0.41058 -0.03400
C 	C 	0.82672 0.04789 0.41211 -0.04600
C 	C 	0.86987 0.06408 0.44365 0.01900
C 	C 	0.89211 0.10999 0.47350 -0.04600
C 	C 	0.87112 0.13943 0.47202 -0.03400
C 	C 	0.89218 0.03430 0.44503 -0.01400
C 	C 	0.91208 0.01053 0.44666 -0.02700
H 	H 	0.84113 0.27916 0.44054 0.03300
H 	H 	0.87738 0.22671 0.43223 0.04600
H 	H 	0.72484 0.08581 0.44834 0.04500
H 	H 	0.68814 0.13782 0.45590 0.02900
H 	H 	0.77217 0.06446 0.38620 0.03800
H 	H 	0.80948 0.01257 0.38882 0.04200
H 	H 	0.92559 0.12283 0.49789 0.04100
H 	H 	0.88816 0.17450 0.49551 0.03600
C 	C 	0.07826 0.01820 0.45376 -0.00200
C 	C 	0.09975 0.03854 0.41912 -0.03600
C 	C 	0.15556 0.06644 0.41961 -0.04200
C 	C 	0.19031 0.07423 0.45476 0.00700
C 	C 	0.16885 0.05411 0.48947 -0.04200
C 	C 	0.11305 0.02621 0.48897 -0.03600
C 	C 	0.24918 0.10370 0.45531 0.00900
C 	C 	0.27397 0.07781 0.45969 -0.04400
C 	C 	0.32989 0.10593 0.46052 -0.03000
C 	C 	0.36130 0.16002 0.45696 -0.00800
C 	C 	0.33661 0.18590 0.45251 -0.03000
C 	C 	0.28073 0.15786 0.45170 -0.04300
C 	C 	0.41889 0.18908 0.45791 0.04600
C 	C 	0.46715 0.21412 0.45864 -0.10500
H 	H 	0.07315 0.03235 0.39174 0.03800
H 	H 	0.17176 0.08174 0.39264 0.04000
H 	H 	0.19542 0.06022 0.51683 0.04000
H 	H 	0.09684 0.01081 0.51592 0.03800
H 	H 	0.24990 0.03596 0.46236 0.04000
H 	H 	0.34872 0.08567 0.46393 0.03900
H 	H 	0.36069 0.22773 0.44975 0.04000
H 	H 	0.26200 0.17823 0.44847 0.04100
C 	C 	0.74383 0.51760 0.97710 -0.08600
C 	C 	0.79682 0.54822 0.96872 0.01500
C 	C 	0.82334 0.60247 0.96716 -0.06700
C 	C 	0.79700 0.62644 0.97381 0.02900
C 	C 	0.74354 0.59550 0.98104 -0.06800
C 	C 	0.71707 0.54138 0.98270 0.01500
C 	C 	0.82606 0.68432 0.97481 -0.00600
C 	C 	0.83662 0.71825 0.01119 -0.03100
C 	C 	0.86349 0.77303 0.01206 -0.04200
C 	C 	0.88002 0.79425 0.97663 0.01500
C 	C 	0.86948 0.76047 0.94025 -0.04500
C 	C 	0.84254 0.70562 0.93932 -0.03400
C 	C 	0.90961 0.85097 0.97806 -0.01100
C 	C 	0.93513 0.89860 0.97954 -0.03200
H 	H 	0.81790 0.53035 0.96436 0.03200
H 	H 	0.86465 0.62609 0.96152 0.04700
H 	H 	0.72269 0.61355 0.98575 0.04600
H 	H 	0.67583 0.51797 0.98847 0.03200
H 	H 	0.82416 0.70218 0.03877 0.03800
H 	H 	0.87174 0.79900 0.04033 0.04200
H 	H 	0.88232 0.77668 0.91278 0.04200
H 	H 	0.83434 0.67970 0.91106 0.03900
C 	C 	0.94854 0.06552 0.99409 -0.01200
C 	C 	0.92962 0.06794 0.03036 -0.02900
C 	C 	0.90316 0.09205 0.03415 -0.04500
C 	C 	0.89532 0.11375 0.00165 0.01200
C 	C 	0.91504 0.11211 0.96566 -0.04800
C 	C 	0.94160 0.08814 0.96191 -0.03100
C 	C 	0.86465 0.13631 0.00461 0.01100
C 	C 	0.81274 0.10949 0.98029 -0.04600
C 	C 	0.78490 0.13235 0.98120 -0.03400
C 	C 	0.80877 0.18217 0.00638 -0.00800
C 	C 	0.86009 0.20847 0.03144 -0.03000
C 	C 	0.88795 0.18554 0.03062 -0.04400
C 	C 	0.78228 0.20791 0.00416 0.04600
C 	C 	0.75969 0.22893 0.00088 -0.11600
H 	H 	0.93502 0.05077 0.05543 0.03800
H 	H 	0.88810 0.09320 0.06206 0.04200
H 	H 	0.90930 0.12894 0.94047 0.04000
H 	H 	0.95610 0.08645 0.93380 0.03700
H 	H 	0.79432 0.07130 0.96032 0.04000
H 	H 	0.74523 0.11180 0.96176 0.03400
H 	H 	0.87881 0.24702 0.05096 0.04000
H 	H 	0.92797 0.20645 0.04959 0.04100
C 	C 	0.49434 0.23482 0.98842 -0.09200
C 	C 	0.46814 0.24599 0.95889 0.01200
C 	C 	0.41252 0.22211 0.95545 -0.06700
C 	C 	0.38256 0.18674 0.98137 0.02500
C 	C 	0.40815 0.17388 0.00974 -0.06400
C 	C 	0.46377 0.19774 0.01324 0.01600
C 	C 	0.32500 0.16486 0.97998 -0.00500
C 	C 	0.30904 0.17854 0.01411 -0.03200
C 	C 	0.25417 0.15629 0.01340 -0.04200
C 	C 	0.21495 0.12034 0.97858 0.01500
C 	C 	0.23093 0.10749 0.94414 -0.04500
C 	C 	0.28582 0.12973 0.94480 -0.03400
C 	C 	0.15806 0.09356 0.97936 -0.01100
C 	C 	0.11034 0.07002 0.98032 -0.03200
H 	H 	0.49101 0.27381 0.93907 0.03100
H 	H 	0.39296 0.23193 0.93322 0.04600
H 	H 	0.38514 0.14611 0.02955 0.04700
H 	H 	0.48335 0.18862 0.03608 0.03900
H 	H 	0.33909 0.20603 0.04127 0.03800
H 	H 	0.24207 0.16635 0.04015 0.04200
H 	H 	0.20078 0.07962 0.91714 0.04100
H 	H 	0.29779 0.11905 0.91827 0.03700
