data_crystal

_cell_length_a 20.52891
_cell_length_b 21.59616
_cell_length_c 31.56167
_cell_angle_alpha 61.14541
_cell_angle_beta  118.55041
_cell_angle_gamma 133.23744

_symmetry_space_group_name_	'P 1'
_symmetry_space_group_name_H-M	'P 1'

loop_
_symmetry_equiv_pos_as_xyz
  x,y,z

loop_
_atom_site_label
_atom_site_type_symbol
_atom_site_fract_x
_atom_site_fract_y
_atom_site_fract_z
_atom_site_charge
Co	Co	0.02016 0.86891 0.62864 1.18600
C 	C 	0.01810 0.92670 0.39810 0.01100
H 	H 	0.02468 0.37970 0.03731 0.09300
C 	C 	0.01399 0.93644 0.34916 0.00200
C 	C 	0.01520 0.97019 0.91231 -0.05100
C 	C 	0.04224 0.87041 0.43944 0.07100
C 	C 	0.00536 0.99464 0.76326 0.28700
O 	O 	0.00417 0.06063 0.72960 -0.39200
O 	O 	0.03499 0.91770 0.08234 -0.74400
C 	C 	0.05045 0.90420 0.34237 0.09100
N 	N 	0.06200 0.82549 0.47198 -0.13300
H 	H 	0.01494 0.65441 0.16922 0.05700
H 	H 	0.00019 0.57468 0.12797 0.09100
O 	O 	0.02071 0.00910 0.97760 -0.36700
O 	O 	0.03873 0.99105 0.61989 -0.57100
C 	C 	0.04258 0.99370 0.45703 0.29800
Co	Co	0.05756 0.01772 0.05207 1.17700
O 	O 	0.05965 0.12052 0.04047 -0.46800
O 	O 	0.05098 0.11731 0.53570 -0.46600
O 	O 	0.07029 0.94086 0.57971 -0.76000
C 	C 	0.06495 0.96355 0.85764 -0.00300
C 	C 	0.07042 0.95890 0.90577 -0.00000
C 	C 	0.01157 0.95220 0.96437 0.30100
Co	Co	0.07283 0.03035 0.54806 1.17800
N 	N 	0.07966 0.87841 0.33711 -0.11200
Co	Co	0.08726 0.87982 0.06386 1.17500
C 	C 	0.08234 0.22767 0.13805 0.32100
C 	C 	0.05366 0.21705 0.62995 0.32000
N 	N 	0.06886 0.59782 0.14407 -0.19500
O 	O 	0.10165 0.19090 0.12660 -0.39800
O 	O 	0.08410 0.83181 0.18382 -0.37900
O 	O 	0.08355 0.19366 0.61533 -0.38800
H 	H 	0.10053 0.67012 0.72769 0.04200
H 	H 	0.10427 0.54478 0.76790 0.08500
C 	C 	0.08663 0.68045 0.18372 -0.03400
H 	H 	0.00491 0.29148 0.02842 0.10400
H 	H 	0.08840 0.33185 0.54529 0.09700
O 	O 	0.00059 0.99380 0.47870 -0.36900
Co	Co	0.11517 0.91048 0.55062 1.18000
O 	O 	0.11608 0.81498 0.61345 -0.40400
O 	O 	0.11756 0.99983 0.48314 -0.39900
N 	N 	0.10345 0.38053 0.55546 -0.20400
H 	H 	0.09966 0.59308 0.12846 0.08400
C 	C 	0.11520 0.30271 0.64184 -0.11000
C 	C 	0.11944 0.64520 0.17854 0.07100
H 	H 	0.10589 0.43389 0.52743 0.08600
O 	O 	0.00176 0.94057 0.75050 -0.35300
C 	C 	0.00243 0.97662 0.81559 -0.04800
C 	C 	0.99973 0.97220 0.40671 -0.06900
C 	C 	0.12544 0.95671 0.85165 0.09100
C 	C 	0.13220 0.94128 0.94843 0.07900
O 	O 	0.99719 0.19834 0.12813 -0.41800
O 	O 	0.12773 0.85633 0.67233 -0.38400
O 	O 	0.99302 0.07259 0.22369 -0.40100
O 	O 	0.99137 0.74965 0.09149 -0.42000
Co	Co	0.99694 0.09121 0.08858 1.17500
O 	O 	0.99649 0.87820 0.99590 -0.39200
Co	Co	0.98388 0.85334 0.13161 1.17700
Co	Co	0.99534 0.08001 0.59014 1.17300
H 	H 	0.13359 0.50050 0.20567 0.05700
H 	H 	0.15644 0.55168 0.67583 0.05700
C 	C 	0.23645 0.06924 0.05795 0.31400
C 	C 	0.13636 0.82865 0.17245 0.29900
O 	O 	0.17255 0.88477 0.13376 -0.39100
C 	C 	0.98061 0.99936 0.25485 0.29000
O 	O 	0.18633 0.00740 0.03499 -0.41700
O 	O 	0.19749 0.07875 0.07532 -0.41000
C 	C 	0.26926 0.09287 0.55981 0.30200
C 	C 	0.15056 0.82583 0.65829 0.31300
O 	O 	0.96695 0.16767 0.63045 -0.41200
O 	O 	0.24352 0.01125 0.57697 -0.40300
O 	O 	0.21317 0.11359 0.54829 -0.38500
N 	N 	0.18156 0.92679 0.98214 -0.12400
N 	N 	0.17376 0.95127 0.84690 -0.11100
C 	C 	0.14078 0.30315 0.69168 -0.02700
C 	C 	0.12372 0.37720 0.60396 0.12900
C 	C 	0.18344 0.45064 0.66668 -0.01800
C 	C 	0.17087 0.37467 0.70425 0.06900
N 	N 	0.18859 0.37051 0.75257 -0.19300
H 	H 	0.13182 0.24526 0.72070 0.04800
H 	H 	0.18251 0.31562 0.78054 0.08600
H 	H 	0.20532 0.42030 0.76256 0.08600
C 	C 	0.19867 0.66156 0.72635 0.06700
C 	C 	0.16453 0.70625 0.71806 -0.02100
C 	C 	0.20855 0.79563 0.69356 -0.11000
C 	C 	0.29563 0.84288 0.68546 0.12600
N 	N 	0.34941 0.93184 0.67214 -0.20400
N 	N 	0.16254 0.57860 0.75549 -0.19300
H 	H 	0.41161 0.96708 0.66327 0.09100
H 	H 	0.19561 0.54944 0.76892 0.08600
C 	C 	0.17357 0.38751 0.12039 -0.01900
C 	C 	0.15508 0.30897 0.15559 -0.11600
C 	C 	0.17269 0.30401 0.20580 0.12700
C 	C 	0.18786 0.36848 0.21798 -0.08900
C 	C 	0.19563 0.44287 0.18139 -0.01600
H 	H 	0.16837 0.39512 0.08259 0.03700
H 	H 	0.20073 0.36402 0.25657 0.05600
N 	N 	0.17626 0.23810 0.24246 -0.20200
H 	H 	0.17453 0.19513 0.23462 0.10000
H 	H 	0.18471 0.23155 0.27943 0.09100
C 	C 	0.14876 0.75727 0.20067 -0.10400
N 	N 	0.32092 0.20504 0.46547 -0.20400
H 	H 	0.25750 0.18226 0.46659 0.10300
H 	H 	0.22992 0.17588 0.96962 0.09800
C 	C 	0.72041 0.30277 0.01736 0.04400
C 	C 	0.63304 0.24089 0.02860 -0.09400
C 	C 	0.59227 0.26897 0.03285 0.05300
C 	C 	0.63944 0.35702 0.02857 -0.09200
C 	C 	0.73053 0.41684 0.02512 0.04400
C 	C 	0.77049 0.39142 0.01704 -0.08900
H 	H 	0.59687 0.17165 0.03368 0.05500
H 	H 	0.60743 0.37794 0.03223 0.05700
H 	H 	0.83916 0.43985 0.01058 0.04800
C 	C 	0.74983 0.29393 0.54028 0.04100
C 	C 	0.81913 0.37682 0.55209 -0.08400
C 	C 	0.79397 0.41828 0.55840 0.04200
C 	C 	0.70236 0.37434 0.55662 -0.08400
C 	C 	0.63425 0.29464 0.54332 0.04300
C 	C 	0.65706 0.25900 0.53044 -0.08400
H 	H 	0.89086 0.40777 0.55692 0.05100
H 	H 	0.68371 0.40369 0.56434 0.05800
H 	H 	0.60296 0.19892 0.51787 0.05500
C 	C 	0.25181 0.63795 0.19970 0.04200
C 	C 	0.34268 0.69907 0.19349 -0.08700
C 	C 	0.38730 0.67089 0.19372 0.04500
C 	C 	0.34167 0.58278 0.19886 -0.08400
C 	C 	0.24816 0.52347 0.19740 0.04300
C 	C 	0.20409 0.54868 0.20192 -0.08500
H 	H 	0.37851 0.76821 0.18856 0.05600
H 	H 	0.37674 0.56202 0.19837 0.05700
C 	C 	0.29746 0.65704 0.70183 0.04200
C 	C 	0.22830 0.57908 0.68469 -0.08500
C 	C 	0.25311 0.53662 0.67944 0.04500
C 	C 	0.34548 0.57526 0.68702 -0.08500
C 	C 	0.41380 0.65497 0.70034 0.04500
C 	C 	0.39058 0.69345 0.71057 -0.08500
H 	H 	0.36423 0.54432 0.68093 0.05800
H 	H 	0.44467 0.75280 0.72381 0.05600
Co	Co	0.92318 0.92702 0.16793 1.18500
Co	Co	0.89926 0.06949 0.15688 1.17000
C 	C 	0.90563 0.71642 0.08417 0.30900
O 	O 	0.81256 0.06357 0.08739 -0.40000
O 	O 	0.94071 0.02464 0.13567 -0.76500
C 	C 	0.84732 0.12097 0.04820 0.30500
O 	O 	0.92548 0.82606 0.18136 -0.46600
C 	C 	0.74870 0.87713 0.17100 0.31800
O 	O 	0.96605 0.96157 0.10063 -0.58200
O 	O 	0.90642 0.12588 0.03736 -0.38800
O 	O 	0.80143 0.94473 0.18978 -0.39800
O 	O 	0.78339 0.86052 0.15530 -0.39300
O 	O 	0.97802 0.94730 0.24120 -0.37500
O 	O 	0.88421 0.74550 0.10048 -0.39300
Co	Co	0.95690 0.92463 0.67651 1.18200
Co	Co	0.89723 0.03622 0.66781 1.16900
C 	C 	0.93075 0.74935 0.56163 0.29800
O 	O 	0.79858 0.00703 0.60364 -0.40700
O 	O 	0.95974 0.01538 0.64475 -0.76400
C 	C 	0.81963 0.06434 0.56167 0.30300
O 	O 	0.96977 0.83314 0.68524 -0.46900
C 	C 	0.77403 0.84360 0.68395 0.32000
O 	O 	0.87834 0.07908 0.54460 -0.39400
O 	O 	0.81975 0.90641 0.70526 -0.39900
O 	O 	0.81524 0.84390 0.66221 -0.40700
O 	O 	0.97841 0.81543 0.52814 -0.39100
O 	O 	0.91956 0.76224 0.59456 -0.39000
C 	C 	0.95350 0.98428 0.87020 -0.01200
C 	C 	0.94575 0.98597 0.82237 -0.01200
C 	C 	0.89563 0.99463 0.87595 0.10200
C 	C 	0.87891 0.99703 0.78033 0.08600
N 	N 	0.82556 0.00620 0.74701 -0.15500
N 	N 	0.84942 0.00289 0.88051 -0.12800
C 	C 	0.95953 0.01224 0.36524 -0.01200
C 	C 	0.94265 0.01065 0.31622 -0.01300
C 	C 	0.97708 0.97945 0.30755 -0.06000
C 	C 	0.93622 0.05590 0.37243 0.07800
C 	C 	0.88727 0.03828 0.27524 0.07100
N 	N 	0.84304 0.06047 0.24264 -0.13900
N 	N 	0.91758 0.09082 0.37813 -0.11900
C 	C 	0.15518 0.44936 0.61669 -0.08800
H 	H 	0.16466 0.50749 0.58776 0.05600
C 	C 	0.65267 0.72084 0.72976 -0.01800
C 	C 	0.67631 0.77493 0.68376 -0.11700
C 	C 	0.61029 0.78368 0.64260 0.13100
C 	C 	0.52873 0.75151 0.64999 -0.09000
C 	C 	0.50799 0.70317 0.69693 -0.01600
C 	C 	0.56980 0.68617 0.73708 0.06700
N 	N 	0.55095 0.63834 0.78288 -0.19300
H 	H 	0.70245 0.71208 0.76111 0.04200
H 	H 	0.47916 0.76059 0.61862 0.05600
N 	N 	0.62507 0.82311 0.59596 -0.20200
H 	H 	0.59628 0.62489 0.81211 0.08500
H 	H 	0.49231 0.61556 0.79021 0.08800
H 	H 	0.68062 0.83967 0.58878 0.10300
H 	H 	0.57854 0.83400 0.56596 0.09000
C 	C 	0.32378 0.79739 0.68763 -0.08700
C 	C 	0.27329 0.70568 0.70594 -0.01400
H 	H 	0.38345 0.83325 0.67385 0.05400
H 	H 	0.33151 0.96655 0.67264 0.10200
C 	C 	0.18532 0.45075 0.13161 0.06400
N 	N 	0.18835 0.51978 0.09467 -0.19300
H 	H 	0.18555 0.52793 0.05854 0.08000
H 	H 	0.19005 0.56405 0.10109 0.08400
C 	C 	0.58271 0.80055 0.13494 -0.02200
C 	C 	0.65443 0.81101 0.17725 -0.11500
C 	C 	0.63791 0.77798 0.22481 0.13300
C 	C 	0.55304 0.74389 0.22879 -0.09000
C 	C 	0.48126 0.73370 0.18657 -0.01600
C 	C 	0.49648 0.76343 0.13901 0.06700
N 	N 	0.42866 0.75671 0.09722 -0.19300
H 	H 	0.59564 0.82629 0.09847 0.04400
H 	H 	0.54056 0.71915 0.26527 0.05600
N 	N 	0.70349 0.77868 0.26673 -0.20200
H 	H 	0.43947 0.77630 0.06239 0.08400
H 	H 	0.36554 0.73415 0.09872 0.08700
H 	H 	0.76411 0.79631 0.26504 0.09700
H 	H 	0.69271 0.75815 0.30174 0.08900
C 	C 	0.23609 0.77754 0.23012 0.12500
C 	C 	0.26371 0.72968 0.23445 -0.08700
C 	C 	0.20930 0.66845 0.20544 -0.01800
H 	H 	0.32985 0.74391 0.25804 0.05500
N 	N 	0.29371 0.84276 0.25407 -0.20300
H 	H 	0.27276 0.87586 0.25332 0.09800
H 	H 	0.35933 0.85942 0.27475 0.08900
C 	C 	0.71400 0.08926 0.55475 -0.03100
C 	C 	0.78691 0.12048 0.53862 -0.11100
C 	C 	0.84407 0.21184 0.51715 0.12500
C 	C 	0.83599 0.26965 0.52052 -0.08600
C 	C 	0.77240 0.23720 0.54519 -0.01800
C 	C 	0.71769 0.14619 0.56678 0.06400
N 	N 	0.67419 0.11420 0.60168 -0.19400
H 	H 	0.66443 0.01914 0.56693 0.04300
H 	H 	0.87626 0.33862 0.50223 0.05100
N 	N 	0.89842 0.24298 0.48882 -0.20400
H 	H 	0.62992 0.04666 0.61551 0.07900
H 	H 	0.68965 0.15604 0.61816 0.08400
H 	H 	0.88995 0.20078 0.47617 0.09900
H 	H 	0.94279 0.31037 0.47470 0.08200
C 	C 	0.91097 0.60759 0.60608 -0.02500
C 	C 	0.88994 0.65996 0.56200 -0.10700
C 	C 	0.85485 0.63850 0.51627 0.12900
C 	C 	0.84954 0.57088 0.51514 -0.08800
C 	C 	0.85858 0.51188 0.55931 -0.01800
C 	C 	0.89673 0.53437 0.60501 0.06600
N 	N 	0.91947 0.48582 0.64787 -0.19300
H 	H 	0.94215 0.62584 0.64096 0.04200
H 	H 	0.82386 0.55580 0.47988 0.05600
N 	N 	0.82367 0.68093 0.47365 -0.20100
H 	H 	0.94622 0.50142 0.68177 0.08000
H 	H 	0.91363 0.43402 0.64755 0.08400
H 	H 	0.81499 0.72273 0.47437 0.10100
H 	H 	0.80298 0.66870 0.43954 0.08800
C 	C 	0.47295 0.24395 0.50468 -0.09000
C 	C 	0.54039 0.24457 0.54778 -0.01800
C 	C 	0.52082 0.20708 0.59508 0.06400
C 	C 	0.43419 0.17042 0.59810 -0.02300
C 	C 	0.36438 0.16306 0.55508 -0.11000
C 	C 	0.38514 0.20422 0.50783 0.12500
H 	H 	0.48920 0.27543 0.46858 0.05400
H 	H 	0.41847 0.14027 0.63425 0.03800
N 	N 	0.58381 0.20363 0.63755 -0.19400
H 	H 	0.33546 0.23194 0.43068 0.08600
H 	H 	0.64625 0.22395 0.63663 0.08400
H 	H 	0.56935 0.17752 0.67228 0.08100
C 	C 	0.73403 0.15499 0.99447 -0.00900
C 	C 	0.82566 0.18545 0.01858 -0.12800
C 	C 	0.88810 0.26982 0.02755 0.12600
C 	C 	0.85432 0.30857 0.02766 -0.09000
C 	C 	0.76052 0.27360 0.00816 -0.03200
C 	C 	0.70340 0.20321 0.98515 0.07700
N 	N 	0.62246 0.18518 0.95224 -0.19500
H 	H 	0.68638 0.09355 0.98359 0.04200
H 	H 	0.90107 0.36533 0.04293 0.04900
N 	N 	0.97937 0.31592 0.03277 -0.21200
H 	H 	0.57887 0.13097 0.93718 0.08600
H 	H 	0.60533 0.22821 0.93876 0.09100
C 	C 	0.80630 0.49378 0.08975 -0.09200
C 	C 	0.78659 0.49948 0.03936 -0.02100
C 	C 	0.79075 0.57333 0.00316 0.06100
C 	C 	0.81245 0.63853 0.01807 -0.04400
C 	C 	0.83527 0.63377 0.06864 -0.10900
C 	C 	0.82273 0.55649 0.10401 0.12300
N 	N 	0.82849 0.54316 0.15201 -0.20500
H 	H 	0.80032 0.43602 0.11751 0.05200
H 	H 	0.82009 0.69709 0.99056 0.05900
N 	N 	0.77476 0.58234 0.95416 -0.18800
H 	H 	0.82298 0.48757 0.17869 0.08300
H 	H 	0.83596 0.58676 0.16287 0.09400
H 	H 	0.76428 0.53794 0.94235 0.09000
H 	H 	0.77534 0.63570 0.92740 0.08700
C 	C 	0.42914 0.20829 0.99894 -0.04500
C 	C 	0.49846 0.20739 0.04009 -0.04500
C 	C 	0.48383 0.17102 0.08860 0.07700
C 	C 	0.40094 0.13834 0.09479 -0.03300
C 	C 	0.33143 0.13826 0.05339 -0.10500
C 	C 	0.34900 0.18026 0.00544 0.09700
N 	N 	0.28740 0.19130 0.96534 -0.19100
H 	H 	0.44122 0.23813 0.96186 0.04800
H 	H 	0.38769 0.10651 0.13169 0.04300
N 	N 	0.54884 0.16687 0.12923 -0.19600
H 	H 	0.29819 0.21833 0.92953 0.08800
H 	H 	0.60878 0.18585 0.12572 0.08700
H 	H 	0.53872 0.14221 0.16498 0.08300
