data_crystal

_cell_length_a 26.92129
_cell_length_b 28.12811
_cell_length_c 38.34453
_cell_angle_alpha 60.91449
_cell_angle_beta  118.78526
_cell_angle_gamma 133.20856

_symmetry_space_group_name_	'P 1'
_symmetry_space_group_name_H-M	'P 1'

loop_
_symmetry_equiv_pos_as_xyz
  x,y,z

loop_
_atom_site_label
_atom_site_type_symbol
_atom_site_fract_x
_atom_site_fract_y
_atom_site_fract_z
_atom_site_charge
Co	Co	0.09455 0.01649 0.08276 1.18400
Co	Co	0.04978 0.08400 0.10114 1.19100
C 	C 	0.22546 0.04339 0.08454 0.28800
Co	Co	0.10297 0.89618 0.09973 1.17000
O 	O 	0.09301 0.09639 0.06370 -0.44900
C 	C 	0.11881 0.19600 0.13717 0.29800
C 	C 	0.13686 0.86132 0.19072 0.29500
O 	O 	0.12683 0.17460 0.11765 -0.37900
O 	O 	0.16511 0.89842 0.15867 -0.38300
O 	O 	0.09292 0.86457 0.19472 -0.36200
O 	O 	0.08217 0.94392 0.11378 -0.75400
O 	O 	0.18430 0.98703 0.07319 -0.35900
O 	O 	0.19937 0.06643 0.08828 -0.37600
Co	Co	0.02432 0.99959 0.57788 1.20300
C 	C 	0.17196 0.05096 0.59900 0.30100
Co	Co	0.06921 0.90409 0.60140 1.18400
O 	O 	0.01464 0.07374 0.56016 -0.45200
C 	C 	0.02599 0.14086 0.64660 0.33700
C 	C 	0.08600 0.86926 0.69047 0.29700
O 	O 	0.03654 0.11760 0.62990 -0.38700
O 	O 	0.12142 0.90749 0.66188 -0.37400
O 	O 	0.04199 0.87648 0.68992 -0.36300
O 	O 	0.00966 0.92479 0.60435 -0.74600
O 	O 	0.14766 0.00536 0.58231 -0.38800
O 	O 	0.12889 0.05008 0.60689 -0.40400
C 	C 	0.06608 0.01438 0.91227 -0.16700
C 	C 	0.07599 0.01148 0.95242 0.34500
F 	F 	0.13905 0.05851 0.97165 -0.45200
H 	H 	0.10855 0.05464 0.89668 0.12800
F 	F 	0.00088 0.06946 0.82462 -0.40700
C 	C 	0.08103 0.05285 0.33620 0.25200
C 	C 	0.08144 0.05885 0.29790 -0.04800
F 	F 	0.13249 0.10534 0.35416 -0.42800
H 	H 	0.12275 0.10552 0.28289 0.08100
C 	C 	0.07222 0.97033 0.46977 0.36200
C 	C 	0.07333 0.97758 0.43135 -0.13300
F 	F 	0.11821 0.96157 0.50375 -0.45000
H 	H 	0.11048 0.97563 0.42910 0.12200
C 	C 	0.12310 0.28937 0.68304 0.02000
C 	C 	0.11292 0.32351 0.64167 0.00200
C 	C 	0.09991 0.37055 0.62939 -0.05600
C 	C 	0.10170 0.38599 0.65987 0.03000
C 	C 	0.11518 0.44717 0.65465 -0.05500
S 	S 	0.07982 0.27419 0.61317 0.03700
C 	C 	0.07994 0.21027 0.65088 -0.07900
C 	C 	0.10532 0.22613 0.68824 -0.00900
H 	H 	0.08990 0.39509 0.59728 0.05400
H 	H 	0.12067 0.48471 0.62570 0.05300
H 	H 	0.09921 0.18891 0.71738 0.06000
C 	C 	0.10843 0.65143 0.74115 0.00700
C 	C 	0.06206 0.66500 0.73294 -0.05200
C 	C 	0.08908 0.72226 0.74255 0.02600
C 	C 	0.09890 0.82113 0.72455 -0.06500
C 	C 	0.05386 0.75279 0.72448 -0.01900
H 	H 	0.00775 0.63457 0.71719 0.05700
H 	H 	0.00079 0.72965 0.70571 0.05500
C 	C 	0.24360 0.33818 0.23040 -0.05400
C 	C 	0.23843 0.32100 0.19941 0.02400
S 	S 	0.22459 0.33170 0.12754 0.03700
C 	C 	0.18089 0.25257 0.15545 -0.07200
C 	C 	0.19187 0.25452 0.19451 -0.02100
H 	H 	0.21984 0.29994 0.25614 0.06400
H 	H 	0.16037 0.21107 0.21615 0.05100
C 	C 	0.15070 0.68091 0.22703 -0.05400
C 	C 	0.16311 0.72896 0.23886 0.02200
C 	C 	0.15469 0.81567 0.22285 -0.06800
C 	C 	0.12002 0.75140 0.21920 -0.02200
H 	H 	0.09894 0.64532 0.21135 0.05500
H 	H 	0.07075 0.72755 0.19721 0.05000
H 	H 	0.10775 0.51538 0.71468 0.06200
O 	O 	0.06709 0.00275 0.13587 -0.58400
C 	C 	0.03643 0.94830 0.01752 0.34100
O 	O 	0.01071 0.99461 0.52065 -0.36000
C 	C 	0.00185 0.96483 0.89252 0.08600
C 	C 	0.02185 0.95866 0.97324 -0.09300
C 	C 	0.02704 0.99319 0.35561 0.07000
C 	C 	0.02787 0.00537 0.27860 -0.14600
C 	C 	0.02633 0.98683 0.39596 0.02600
S 	S 	0.09431 0.60515 0.71771 0.00500
Co	Co	0.03285 0.89797 0.14775 1.20100
C 	C 	0.11200 0.35197 0.70112 0.00700
C 	C 	0.12610 0.30580 0.71354 -0.05100
C 	C 	0.20849 0.68484 0.23254 0.00400
S 	S 	0.20662 0.62622 0.23031 0.00300
C 	C 	0.01818 0.95760 0.51409 0.33800
C 	C 	0.02377 0.97205 0.47317 -0.10900
O 	O 	0.01128 0.90271 0.54145 -0.35600
H 	H 	0.13565 0.28101 0.74564 0.06400
O 	O 	0.03531 0.89496 0.04222 -0.37800
O 	O 	0.03014 0.97977 0.03020 -0.36300
C 	C 	0.13623 0.46064 0.69210 -0.00600
S 	S 	0.14007 0.39855 0.72993 0.01300
O 	O 	0.05670 0.17853 0.13213 -0.38500
O 	O 	0.03670 0.07377 0.20978 -0.38800
C 	C 	0.16148 0.76625 0.75792 0.00000
O 	O 	0.02089 0.80032 0.12269 -0.37800
S 	S 	0.18002 0.84112 0.74673 0.04900
C 	C 	0.15941 0.55063 0.70850 -0.07400
C 	C 	0.02251 0.01573 0.23570 0.32600
C 	C 	0.18130 0.69793 0.75368 0.02900
C 	C 	0.17831 0.63974 0.72408 -0.00300
C 	C 	0.23115 0.77536 0.25882 0.00100
C 	C 	0.18255 0.52952 0.69692 0.04400
H 	H 	0.24007 0.17238 0.54196 0.05000
O 	O 	0.01277 0.97038 0.22559 -0.32100
S 	S 	0.23705 0.84307 0.24944 0.04100
H 	H 	0.24003 0.54154 0.24066 0.06100
C 	C 	0.20315 0.61704 0.71230 0.04300
C 	C 	0.20865 0.75703 0.76108 -0.05300
O 	O 	0.01405 0.04352 0.14183 -0.75100
C 	C 	0.24606 0.10782 0.60376 -0.07000
H 	H 	0.02262 0.24724 0.05152 0.08200
C 	C 	0.22087 0.69066 0.74468 -0.05500
C 	C 	0.26255 0.37044 0.16395 -0.00000
S 	S 	0.27172 0.43556 0.25117 0.00900
C 	C 	0.27311 0.16272 0.57068 -0.01400
C 	C 	0.27756 0.40615 0.22583 0.00500
C 	C 	0.25023 0.57382 0.69046 -0.07700
C 	C 	0.27516 0.72901 0.25347 0.03000
H 	H 	0.26449 0.79660 0.76623 0.05400
C 	C 	0.27058 0.66173 0.70478 -0.07500
H 	H 	0.26816 0.55712 0.68186 0.05700
C 	C 	0.28823 0.77674 0.26576 -0.05600
H 	H 	0.27755 0.72320 0.75117 0.05000
C 	C 	0.28499 0.43574 0.15658 -0.05600
C 	C 	0.29063 0.65525 0.25491 -0.00400
C 	C 	0.29492 0.58062 0.24015 -0.07500
C 	C 	0.29406 0.45356 0.18863 0.02800
C 	C 	0.29165 0.50934 0.21715 -0.00600
C 	C 	0.29830 0.08986 0.08124 -0.07000
H 	H 	0.29188 0.47020 0.12656 0.05200
C 	C 	0.29476 0.63958 0.69501 0.04300
H 	H 	0.00758 0.33823 0.03714 0.08800
C 	C 	0.30206 0.51158 0.18363 -0.05700
H 	H 	0.30411 0.71347 0.70644 0.05700
S 	S 	0.30949 0.09804 0.63600 0.02700
H 	H 	0.31857 0.55492 0.15778 0.05100
C 	C 	0.32207 0.71319 0.26602 -0.05700
S 	S 	0.32455 0.15571 0.04078 0.07000
C 	C 	0.98920 0.01945 0.81741 0.23900
C 	C 	0.99160 0.96779 0.85019 0.00000
H 	H 	0.96809 0.05716 0.75191 0.07200
C 	C 	0.97186 0.01811 0.77703 -0.08400
O 	O 	0.97929 0.09920 0.66900 -0.42900
O 	O 	0.99750 0.80046 0.62181 -0.41700
C 	C 	0.98019 0.91679 0.84226 -0.13000
C 	C 	0.95613 0.96491 0.76892 -0.12200
C 	C 	0.96240 0.91525 0.80176 0.36200
H 	H 	0.98306 0.87731 0.86742 0.11100
O 	O 	0.94785 0.94661 0.71013 -0.37700
Co	Co	0.95779 0.04671 0.59503 1.16400
Co	Co	0.96092 0.87305 0.63948 1.17600
H 	H 	0.34079 0.81406 0.27971 0.05300
C 	C 	0.92342 0.95645 0.72669 0.35200
C 	C 	0.78908 0.34018 0.02214 0.03600
C 	C 	0.71882 0.28840 0.02532 -0.07500
C 	C 	0.68421 0.29827 0.03626 0.03800
C 	C 	0.72075 0.35800 0.04663 -0.07600
C 	C 	0.79091 0.40917 0.04456 0.03800
C 	C 	0.82497 0.40073 0.03189 -0.07500
H 	H 	0.69111 0.24071 0.01936 0.05100
H 	H 	0.69453 0.36474 0.05634 0.05600
H 	H 	0.87876 0.44122 0.02928 0.05300
C 	C 	0.66709 0.28734 0.50677 0.03700
C 	C 	0.60188 0.25281 0.51425 -0.07600
C 	C 	0.59201 0.28279 0.52838 0.04000
C 	C 	0.64664 0.34783 0.53432 -0.07700
C 	C 	0.71081 0.38361 0.52550 0.03800
C 	C 	0.72169 0.35289 0.51277 -0.07500
H 	H 	0.55859 0.20342 0.50834 0.05400
H 	H 	0.63896 0.37087 0.54537 0.05600
H 	H 	0.77215 0.38027 0.50714 0.05400
C 	C 	0.33004 0.64202 0.24841 0.04200
C 	C 	0.33014 0.57044 0.23005 0.04300
C 	C 	0.40176 0.61961 0.23094 -0.07800
C 	C 	0.43778 0.68009 0.24032 0.04200
C 	C 	0.40180 0.69168 0.24841 -0.07500
H 	H 	0.42900 0.61145 0.22336 0.05500
H 	H 	0.42936 0.73984 0.25367 0.05700
Co	Co	0.98746 0.96426 0.16615 1.18400
Co	Co	0.97459 0.07945 0.15119 1.14500
C 	C 	0.95842 0.78512 0.11324 0.27300
O 	O 	0.91448 0.08298 0.09170 -0.40300
C 	C 	0.94075 0.10952 0.06040 0.28600
O 	O 	0.97917 0.88016 0.18068 -0.47000
C 	C 	0.85233 0.93517 0.15205 0.31500
O 	O 	0.96565 0.08463 0.05751 -0.41000
O 	O 	0.88899 0.98328 0.17048 -0.38300
O 	O 	0.88403 0.92745 0.13992 -0.39800
O 	O 	0.95167 0.82619 0.11469 -0.40300
Co	Co	0.89109 0.91825 0.65501 1.19200
Co	Co	0.87513 0.02747 0.64678 1.15400
C 	C 	0.92924 0.76893 0.61247 0.30100
O 	O 	0.87917 0.09799 0.59125 -0.41500
O 	O 	0.90540 0.99292 0.62839 -0.75100
C 	C 	0.85876 0.08517 0.55627 0.30000
O 	O 	0.89635 0.84199 0.67042 -0.45300
C 	C 	0.74889 0.88785 0.64007 0.29700
O 	O 	0.93400 0.94765 0.60412 -0.58300
O 	O 	0.88934 0.06979 0.54944 -0.39800
O 	O 	0.77525 0.95223 0.62335 -0.37900
O 	O 	0.78448 0.86393 0.65057 -0.36700
O 	O 	0.87159 0.96208 0.70484 -0.39300
O 	O 	0.90240 0.79045 0.61704 -0.39200
C 	C 	0.94691 0.91326 0.91290 0.25300
C 	C 	0.95706 0.91008 0.95315 -0.08200
F 	F 	0.88388 0.86607 0.89377 -0.42300
H 	H 	0.91512 0.86898 0.96907 0.09200
F 	F 	0.94785 0.86374 0.79446 -0.44300
C 	C 	0.97452 0.93903 0.33692 -0.18500
C 	C 	0.97484 0.94501 0.29857 0.37000
F 	F 	0.92207 0.89322 0.28007 -0.45200
H 	H 	0.93308 0.89259 0.35193 0.12000
C 	C 	0.97888 0.99010 0.39914 0.27100
C 	C 	0.97776 0.98288 0.43764 -0.08800
F 	F 	0.93373 0.99992 0.36501 -0.42800
H 	H 	0.94014 0.98419 0.43991 0.09300
C 	C 	0.58085 0.76618 0.68109 0.00200
C 	C 	0.52250 0.70788 0.69712 -0.05400
C 	C 	0.46179 0.70499 0.68224 0.02900
C 	C 	0.45829 0.75631 0.64972 0.00400
C 	C 	0.51675 0.81457 0.63368 -0.05300
C 	C 	0.57759 0.81763 0.64882 0.02000
S 	S 	0.64718 0.77203 0.68200 0.04800
C 	C 	0.67533 0.84022 0.64280 -0.07000
C 	C 	0.63128 0.86004 0.62757 -0.01900
S 	S 	0.39348 0.75186 0.64980 0.00400
C 	C 	0.36695 0.68517 0.68986 -0.00500
C 	C 	0.40972 0.66420 0.70447 -0.05700
H 	H 	0.52519 0.66776 0.72148 0.05500
H 	H 	0.51430 0.85495 0.60951 0.05300
H 	H 	0.63807 0.90352 0.60249 0.05200
H 	H 	0.40352 0.62140 0.73003 0.05200
C 	C 	0.60911 0.82224 0.20097 0.00900
C 	C 	0.63848 0.86075 0.16683 -0.05300
C 	C 	0.67754 0.84825 0.16288 0.02300
C 	C 	0.68177 0.79479 0.19067 -0.00200
C 	C 	0.65326 0.75689 0.22512 -0.04900
C 	C 	0.61436 0.76945 0.22922 0.03000
S 	S 	0.53703 0.80502 0.20168 0.00300
C 	C 	0.51193 0.73350 0.23860 -0.00500
C 	C 	0.56026 0.71996 0.25081 -0.05500
S 	S 	0.75245 0.81056 0.18913 0.06400
C 	C 	0.77838 0.88252 0.15259 -0.07500
C 	C 	0.73174 0.89757 0.14135 -0.01300
H 	H 	0.63285 0.90040 0.14474 0.05400
H 	H 	0.65891 0.71723 0.24718 0.05500
H 	H 	0.55058 0.67164 0.26934 0.05000
H 	H 	0.74325 0.94686 0.12401 0.04800
H 	H 	0.37510 0.74058 0.28408 0.05000
C 	C 	0.71008 0.10830 0.49781 0.00500
C 	C 	0.66366 0.11084 0.50272 -0.06300
C 	C 	0.67341 0.17262 0.48752 0.02700
C 	C 	0.73034 0.23056 0.46971 0.00300
C 	C 	0.78289 0.22990 0.47118 -0.05600
C 	C 	0.77134 0.16750 0.48451 0.01300
S 	S 	0.72577 0.05104 0.52721 0.00500
C 	C 	0.80744 0.09614 0.52290 -0.07700
C 	C 	0.82616 0.16073 0.49870 -0.01700
S 	S 	0.74350 0.29735 0.47012 -0.01300
C 	C 	0.67669 0.25621 0.49055 -0.00200
C 	C 	0.64331 0.18690 0.49955 -0.06000
H 	H 	0.62408 0.06734 0.51991 0.04500
H 	H 	0.83257 0.27645 0.46453 0.04500
H 	H 	0.87996 0.20357 0.49732 0.03600
H 	H 	0.60594 0.14929 0.51876 0.04500
C 	C 	0.80890 0.61676 0.56392 0.00200
C 	C 	0.77982 0.59145 0.53013 -0.05900
C 	C 	0.79723 0.55293 0.53233 0.02800
C 	C 	0.84726 0.54546 0.56612 0.00300
C 	C 	0.87779 0.57254 0.59942 -0.05500
C 	C 	0.85964 0.61036 0.59728 0.01400
S 	S 	0.81777 0.68221 0.56247 0.03200
C 	C 	0.88235 0.70210 0.60476 -0.07800
C 	C 	0.90160 0.65876 0.62027 -0.01800
S 	S 	0.83203 0.47528 0.56984 -0.01500
C 	C 	0.76585 0.45403 0.52834 -0.00400
C 	C 	0.75197 0.50195 0.51081 -0.05900
H 	H 	0.74219 0.59846 0.50398 0.05200
H 	H 	0.91499 0.56517 0.62580 0.04200
H 	H 	0.94924 0.66748 0.64329 0.03400
H 	H 	0.70421 0.49394 0.48822 0.05000
C 	C 	0.37306 0.16382 0.61151 0.00300
C 	C 	0.43028 0.16866 0.61444 -0.05700
C 	C 	0.46520 0.21325 0.58240 0.02800
C 	C 	0.44049 0.24837 0.54765 0.00300
C 	C 	0.37702 0.23526 0.54192 -0.05100
C 	C 	0.34459 0.19428 0.57505 0.02000
S 	S 	0.47514 0.27552 0.51028 0.00400
C 	C 	0.52416 0.24654 0.53649 -0.00600
C 	C 	0.51289 0.21280 0.57639 -0.05800
H 	H 	0.44464 0.13635 0.63955 0.04800
H 	H 	0.35218 0.25359 0.51231 0.05600
H 	H 	0.54023 0.19134 0.60058 0.04700
C 	C 	0.86846 0.21430 0.98622 -0.01100
C 	C 	0.81686 0.22194 0.97714 -0.05100
C 	C 	0.83787 0.27850 0.98434 0.01800
C 	C 	0.90794 0.32305 0.00294 0.02200
C 	C 	0.95721 0.31016 0.01707 -0.11600
C 	C 	0.93750 0.25645 0.00714 0.04900
S 	S 	0.85291 0.14088 0.99704 0.02700
C 	C 	0.93225 0.15992 0.02582 -0.06400
C 	C 	0.97353 0.22625 0.02886 -0.08300
S 	S 	0.91002 0.36486 0.02351 -0.02700
C 	C 	0.82454 0.33220 0.00739 -0.00300
C 	C 	0.79072 0.28381 0.98655 -0.05500
H 	H 	0.76190 0.18319 0.96726 0.04500
H 	H 	0.73446 0.25097 0.97571 0.04500
C 	C 	0.82676 0.62955 0.06785 0.00400
C 	C 	0.81211 0.60090 0.03968 -0.06000
C 	C 	0.81300 0.54477 0.05547 0.03000
C 	C 	0.83260 0.52174 0.09768 0.00200
C 	C 	0.85814 0.55683 0.12530 -0.05600
C 	C 	0.85230 0.60984 0.11008 0.01500
S 	S 	0.85523 0.70822 0.05758 0.03200
C 	C 	0.89641 0.71914 0.10537 -0.07100
C 	C 	0.89110 0.66000 0.13116 -0.02200
S 	S 	0.84910 0.46993 0.10543 -0.01400
C 	C 	0.82841 0.47111 0.05618 -0.00400
C 	C 	0.81045 0.51657 0.03193 -0.06400
H 	H 	0.80335 0.62310 0.00698 0.05800
H 	H 	0.88373 0.54507 0.15695 0.04300
H 	H 	0.92368 0.65769 0.16197 0.03600
H 	H 	0.79028 0.52415 0.99897 0.05600
C 	C 	0.38827 0.15909 0.04037 -0.00000
C 	C 	0.44612 0.21673 0.02361 -0.05800
C 	C 	0.50706 0.22007 0.03899 0.03000
C 	C 	0.51146 0.17022 0.07220 0.00300
C 	C 	0.45359 0.11200 0.08870 -0.05600
C 	C 	0.39225 0.10831 0.07337 0.02000
C 	C 	0.34067 0.06844 0.09585 -0.02200
S 	S 	0.58101 0.17884 0.07559 -0.01200
C 	C 	0.60924 0.24670 0.03610 -0.00300
C 	C 	0.56193 0.26342 0.01863 -0.06300
H 	H 	0.44330 0.25667 0.99906 0.05700
H 	H 	0.45726 0.07299 0.11389 0.04600
H 	H 	0.33410 0.02550 0.12138 0.03600
H 	H 	0.56946 0.30753 0.99399 0.05300
