data_crystal

_cell_length_a 22.33126
_cell_length_b 24.84918
_cell_length_c 26.09176
_cell_angle_alpha 90.00021
_cell_angle_beta  90.02276
_cell_angle_gamma 92.64826

_symmetry_space_group_name_	'P 1'
_symmetry_space_group_name_H-M	'P 1'

loop_
_symmetry_equiv_pos_as_xyz
  x,y,z

loop_
_atom_site_label
_atom_site_type_symbol
_atom_site_fract_x
_atom_site_fract_y
_atom_site_fract_z
_atom_site_charge
C 	C 	0.02511 0.09817 0.92374 0.08900
N 	N 	0.98698 0.07073 0.95523 -0.16700
C 	C 	0.93661 0.09853 0.95688 0.09300
C 	C 	0.88767 0.08735 0.99458 -0.04600
C 	C 	0.87770 0.03229 0.01562 0.06100
C 	C 	0.84349 0.12841 0.00464 0.01100
C 	C 	0.84444 0.15645 0.05129 -0.04900
C 	C 	0.80151 0.19429 0.06123 -0.03500
C 	C 	0.75844 0.20534 0.02397 0.00100
C 	C 	0.79990 0.13886 0.96776 -0.03800
N 	N 	0.89839 0.98859 0.99234 -0.11200
C 	C 	0.83646 0.01766 0.05343 -0.06000
C 	C 	0.87162 0.94597 0.01615 0.06200
C 	C 	0.87708 0.89001 0.99794 -0.04500
C 	C 	0.82669 0.84983 0.00446 0.01000
C 	C 	0.72301 0.82105 0.98869 -0.02700
C 	C 	0.83583 0.80084 0.02938 -0.04800
C 	C 	0.78905 0.76166 0.03298 -0.03900
C 	C 	0.73267 0.77146 0.01220 0.00400
N 	N 	0.98239 0.90660 0.96833 -0.16800
C 	C 	0.01789 0.88542 0.93272 0.09500
C 	C 	0.98902 0.84102 0.90985 -0.05200
C 	C 	0.93302 0.83553 0.93240 -0.06200
C 	C 	0.08350 0.89487 0.93331 -0.07600
C 	C 	0.12180 0.85140 0.95018 0.05100
C 	C 	0.19918 0.78882 0.93212 -0.03400
C 	C 	0.19554 0.76978 0.98268 0.02000
C 	C 	0.15474 0.79148 0.01690 -0.04400
C 	C 	0.11780 0.83205 0.00065 -0.06600
N 	N 	0.07619 0.99157 0.91165 -0.12700
C 	C 	0.17026 0.02151 0.93057 -0.06400
C 	C 	0.11311 0.03571 0.91708 0.08500
C 	C 	0.09037 0.09042 0.92408 -0.07100
C 	C 	0.13247 0.13683 0.93388 0.03600
C 	C 	0.15073 0.17118 0.89365 -0.05400
C 	C 	0.19016 0.21538 0.90312 -0.03700
C 	C 	0.21312 0.22452 0.95262 0.01300
C 	C 	0.19570 0.18940 0.99261 -0.02400
C 	C 	0.15442 0.14653 0.98351 -0.04600
C 	C 	0.99923 0.14403 0.90541 -0.05200
C 	C 	0.94255 0.14425 0.92658 -0.06400
C 	C 	0.75801 0.17763 0.97712 -0.02800
C 	C 	0.83278 0.96209 0.05386 -0.05400
C 	C 	0.93122 0.87580 0.96887 0.09300
C 	C 	0.16830 0.96612 0.93322 -0.05900
C 	C 	0.11010 0.94911 0.92102 0.08700
C 	C 	0.16239 0.82947 0.91591 -0.05900
H 	H 	0.00067 0.04509 0.98430 0.09400
H 	H 	0.99785 0.93078 0.99880 0.09600
H 	H 	0.20369 0.24198 0.87189 0.03700
H 	H 	0.21516 0.19457 0.03037 0.02800
H 	H 	0.13412 0.16378 0.85515 0.04200
H 	H 	0.14069 0.11997 0.01472 0.03200
H 	H 	0.80124 0.21445 0.09800 0.03600
H 	H 	0.79872 0.11709 0.93176 0.04200
H 	H 	0.72472 0.18573 0.94824 0.04000
H 	H 	0.87778 0.14828 0.08008 0.04000
H 	H 	0.79673 0.72357 0.05150 0.03800
H 	H 	0.87936 0.79288 0.04531 0.03800
C 	C 	0.77004 0.85980 0.98420 -0.03700
H 	H 	0.67924 0.82933 0.97351 0.03700
H 	H 	0.23057 0.77214 0.90547 0.03800
H 	H 	0.16549 0.84401 0.87681 0.04400
H 	H 	0.08646 0.84876 0.02732 0.04200
H 	H 	0.15175 0.77700 0.05602 0.03600
H 	H 	0.02376 0.17955 0.89129 0.04200
H 	H 	0.91713 0.17996 0.93124 0.05100
H 	H 	0.80227 0.04299 0.06813 0.04300
H 	H 	0.79585 0.93768 0.06963 0.04200
H 	H 	0.01141 0.80876 0.89098 0.04300
H 	H 	0.90383 0.79955 0.93116 0.05100
H 	H 	0.20304 0.04744 0.95026 0.04700
H 	H 	0.19897 0.94324 0.95570 0.04700
H 	H 	0.76259 0.89745 0.96479 0.04300
C 	C 	0.97819 0.89273 0.47811 0.10100
N 	N 	0.02590 0.92553 0.48994 -0.17500
C 	C 	0.07485 0.89705 0.48168 0.10100
C 	C 	0.13458 0.91303 0.50310 -0.07700
C 	C 	0.15681 0.96987 0.50018 0.08900
C 	C 	0.17574 0.87145 0.51994 0.04100
C 	C 	0.15843 0.83481 0.55877 -0.05800
C 	C 	0.19582 0.79337 0.57215 -0.03200
C 	C 	0.25099 0.78876 0.54724 0.00800
C 	C 	0.23162 0.86753 0.49601 -0.05600
N 	N 	0.13758 0.00473 0.46493 -0.13100
C 	C 	0.19087 0.99598 0.53761 -0.06100
C 	C 	0.16069 0.05343 0.47957 0.08800
C 	C 	0.13895 0.10440 0.45906 -0.07700
C 	C 	0.17885 0.15347 0.45992 0.04000
C 	C 	0.26598 0.20412 0.42690 -0.03500
C 	C 	0.17453 0.19086 0.49983 -0.05700
C 	C 	0.21696 0.23383 0.50419 -0.03400
C 	C 	0.26336 0.24018 0.46813 0.01000
N 	N 	0.03037 0.07922 0.45373 -0.17500
C 	C 	0.98276 0.10038 0.43090 0.10700
C 	C 	0.00155 0.13975 0.39603 -0.07500
C 	C 	0.06346 0.14277 0.39813 -0.06100
C 	C 	0.92188 0.09610 0.45357 -0.07800
C 	C 	0.88456 0.14385 0.45589 0.04100
C 	C 	0.78957 0.18494 0.44098 -0.03400
C 	C 	0.81193 0.23266 0.46418 0.00800
C 	C 	0.87137 0.23642 0.48177 -0.03100
C 	C 	0.90721 0.19189 0.47846 -0.05800
N 	N 	0.91883 0.99611 0.45723 -0.12700
C 	C 	0.86003 0.98266 0.52669 -0.05900
C 	C 	0.89510 0.95912 0.49012 0.08700
C 	C 	0.91623 0.90385 0.49387 -0.07600
C 	C 	0.87262 0.85891 0.50540 0.04000
C 	C 	0.82580 0.84618 0.47105 -0.05600
C 	C 	0.78414 0.80408 0.48197 -0.03600
C 	C 	0.78919 0.77404 0.52717 0.00500
C 	C 	0.83548 0.78729 0.56199 -0.03600
C 	C 	0.87745 0.82928 0.55088 -0.05700
C 	C 	0.99654 0.84298 0.46200 -0.05900
C 	C 	0.05843 0.84575 0.46422 -0.07000
C 	C 	0.26920 0.82657 0.50983 -0.03500
C 	C 	0.19327 0.04974 0.52448 -0.06600
C 	C 	0.07950 0.10496 0.43401 0.09800
C 	C 	0.86156 0.03685 0.51533 -0.06600
C 	C 	0.89740 0.04339 0.47235 0.08700
C 	C 	0.82584 0.14085 0.43653 -0.05600
H 	H 	0.02452 0.95855 0.51467 0.09100
H 	H 	0.02892 0.06045 0.48960 0.09100
H 	H 	0.74802 0.79463 0.45525 0.03700
H 	H 	0.83901 0.76502 0.59747 0.03700
H 	H 	0.82173 0.86889 0.43587 0.04500
H 	H 	0.91334 0.83904 0.57773 0.04400
H 	H 	0.18151 0.76440 0.60120 0.03800
H 	H 	0.24540 0.89558 0.46601 0.04500
H 	H 	0.31176 0.82324 0.49042 0.03500
H 	H 	0.11562 0.83784 0.57781 0.04300
H 	H 	0.21504 0.26101 0.53654 0.03600
H 	H 	0.13964 0.18553 0.52847 0.04100
C 	C 	0.22403 0.16077 0.42295 -0.05600
H 	H 	0.30172 0.20864 0.39893 0.03800
H 	H 	0.74383 0.18179 0.42706 0.03600
H 	H 	0.80814 0.10419 0.41852 0.04400
H 	H 	0.95244 0.19463 0.49358 0.04400
H 	H 	0.88946 0.27352 0.49861 0.03600
H 	H 	0.96911 0.80590 0.46267 0.04500
H 	H 	0.08601 0.81113 0.46646 0.04800
H 	H 	0.19763 0.98071 0.57593 0.04500
H 	H 	0.20162 0.08245 0.55132 0.04500
H 	H 	0.97448 0.17185 0.38245 0.05100
H 	H 	0.09107 0.17768 0.38675 0.04500
H 	H 	0.85014 0.96584 0.56418 0.04600
H 	H 	0.85305 0.06831 0.54274 0.04700
H 	H 	0.22744 0.13220 0.39184 0.04400
Ni	Ni	0.44952 0.52993 0.05766 1.09600
O 	O 	0.50695 0.46799 0.06173 -0.70600
Ni	Ni	0.51426 0.44867 0.98787 1.10200
O 	O 	0.45201 0.53954 0.13580 -0.35700
O 	O 	0.42792 0.45019 0.14924 -0.39800
O 	O 	0.52664 0.57743 0.05177 -0.40000
Ni	Ni	0.47590 0.40449 0.09800 1.06500
O 	O 	0.37192 0.58416 0.96497 -0.41300
O 	O 	0.40084 0.39591 0.05331 -0.41400
O 	O 	0.57815 0.39385 0.99680 -0.37100
O 	O 	0.44698 0.50169 0.98576 -0.69800
O 	O 	0.39721 0.59607 0.05069 -0.37600
O 	O 	0.52753 0.44889 0.90990 -0.36200
O 	O 	0.53419 0.54067 0.90926 -0.40700
Ni	Ni	0.45305 0.56310 0.93925 1.07100
H 	H 	0.54668 0.47980 0.07562 0.15500
H 	H 	0.40765 0.48266 0.98017 0.15700
C 	C 	0.40318 0.37804 0.00601 0.26500
O 	O 	0.49359 0.62297 0.98243 -0.39600
C 	C 	0.44896 0.49726 0.16639 0.24600
C 	C 	0.57221 0.35682 0.03312 0.27200
C 	C 	0.53519 0.61448 0.01649 0.30000
C 	C 	0.53736 0.49452 0.88500 0.24600
C 	C 	0.36363 0.60684 0.01016 0.28600
O 	O 	0.45270 0.38500 0.97900 -0.35800
O 	O 	0.52009 0.34817 0.05694 -0.41500
Ni	Ni	0.49890 0.53682 0.56819 1.09700
O 	O 	0.56695 0.48780 0.55037 -0.70500
Ni	Ni	0.55439 0.47739 0.47432 1.09700
O 	O 	0.51607 0.53483 0.64568 -0.35200
O 	O 	0.51440 0.44326 0.64873 -0.39700
O 	O 	0.55732 0.60401 0.56815 -0.36500
Ni	Ni	0.55424 0.41656 0.58209 1.06300
O 	O 	0.46487 0.64273 0.51802 -0.41100
O 	O 	0.46890 0.40679 0.55467 -0.42300
O 	O 	0.62466 0.42931 0.46288 -0.37700
O 	O 	0.48500 0.52541 0.49204 -0.70100
O 	O 	0.42965 0.58576 0.58062 -0.38300
O 	O 	0.54023 0.47966 0.39639 -0.35100
O 	O 	0.52951 0.56999 0.39071 -0.39400
Ni	Ni	0.49585 0.59682 0.45971 1.06400
H 	H 	0.60728 0.50397 0.55816 0.15400
H 	H 	0.44490 0.50840 0.48490 0.15200
C 	C 	0.45845 0.39462 0.50670 0.30000
O 	O 	0.58229 0.60537 0.48352 -0.42300
C 	C 	0.52755 0.49012 0.67006 0.25000
C 	C 	0.63235 0.38832 0.49385 0.29000
C 	C 	0.59583 0.61626 0.53128 0.29900
C 	C 	0.51837 0.52125 0.37287 0.25100
C 	C 	0.42159 0.62628 0.54939 0.29500
O 	O 	0.49722 0.40955 0.47098 -0.37400
O 	O 	0.58853 0.37135 0.52465 -0.41800
C 	C 	0.53752 0.49199 0.72563 0.03700
N 	N 	0.54133 0.44551 0.75255 -0.07400
N 	N 	0.54408 0.44651 0.80353 -0.06700
C 	C 	0.54347 0.49404 0.82907 0.03000
N 	N 	0.54170 0.54069 0.80208 -0.07800
N 	N 	0.53876 0.53969 0.75105 -0.06700
C 	C 	0.49833 0.51507 0.31958 0.03700
N 	N 	0.49306 0.55910 0.28937 -0.07200
N 	N 	0.47589 0.55352 0.24067 -0.06700
C 	C 	0.46267 0.50382 0.22103 0.03400
N 	N 	0.46703 0.45984 0.25148 -0.07900
N 	N 	0.48463 0.46539 0.30008 -0.06900
C 	C 	0.28805 0.74241 0.55759 0.00300
C 	C 	0.27531 0.69281 0.53289 0.03500
C 	C 	0.31755 0.65264 0.53421 -0.02500
C 	C 	0.37249 0.66208 0.55928 -0.10800
C 	C 	0.38301 0.70977 0.58762 0.10500
C 	C 	0.34064 0.74983 0.58661 -0.09400
H 	H 	0.30873 0.61521 0.51362 0.02100
H 	H 	0.34977 0.78749 0.60673 0.05100
N 	N 	0.21976 0.68376 0.50552 -0.13700
N 	N 	0.43762 0.71794 0.61650 -0.13600
C 	C 	0.22886 0.69028 0.45029 -0.09000
H 	H 	0.24890 0.73100 0.44144 0.04800
H 	H 	0.18486 0.68601 0.43055 0.04400
H 	H 	0.25820 0.65900 0.43514 0.03700
C 	C 	0.42807 0.70244 0.67004 -0.09100
H 	H 	0.39471 0.72812 0.68848 0.04400
H 	H 	0.47110 0.70768 0.69119 0.05400
H 	H 	0.41266 0.65935 0.67280 0.06500
H 	H 	0.20102 0.64531 0.51359 0.07200
H 	H 	0.45359 0.75815 0.61425 0.07400
C 	C 	0.74345 0.73104 0.53933 -0.00000
C 	C 	0.75339 0.67636 0.52823 0.03800
C 	C 	0.70530 0.63806 0.53029 -0.01600
C 	C 	0.64732 0.65367 0.54188 -0.10300
C 	C 	0.63801 0.70753 0.55539 0.10400
C 	C 	0.68657 0.74554 0.55555 -0.09000
H 	H 	0.71264 0.59648 0.52047 0.03200
H 	H 	0.67909 0.78717 0.56505 0.05200
N 	N 	0.81204 0.65921 0.51450 -0.13800
N 	N 	0.57835 0.72434 0.56563 -0.13500
C 	C 	0.82150 0.66192 0.45906 -0.09200
H 	H 	0.78621 0.63726 0.43861 0.05100
H 	H 	0.86553 0.64539 0.44974 0.04600
H 	H 	0.82172 0.70415 0.44519 0.04900
C 	C 	0.55423 0.75184 0.52104 -0.08300
H 	H 	0.58000 0.79038 0.51348 0.04100
H 	H 	0.50686 0.76102 0.52848 0.05100
H 	H 	0.55520 0.72567 0.48650 0.04400
H 	H 	0.84630 0.68048 0.53427 0.07700
H 	H 	0.57835 0.74954 0.59778 0.07900
C 	C 	0.77197 0.27755 0.47249 0.00300
C 	C 	0.75060 0.28856 0.52195 0.03500
C 	C 	0.70662 0.32654 0.52846 -0.02100
C 	C 	0.68355 0.35356 0.48610 -0.10800
C 	C 	0.70605 0.34340 0.43659 0.10300
C 	C 	0.75081 0.30597 0.43028 -0.09400
H 	H 	0.68921 0.33391 0.56648 0.01800
H 	H 	0.76752 0.29766 0.39222 0.05100
N 	N 	0.77079 0.25834 0.56522 -0.13600
N 	N 	0.68203 0.36974 0.39248 -0.13400
C 	C 	0.80934 0.29209 0.59875 -0.09000
H 	H 	0.84672 0.31208 0.57673 0.04700
H 	H 	0.82909 0.26640 0.62853 0.04600
H 	H 	0.78313 0.32311 0.61820 0.03900
C 	C 	0.63757 0.33434 0.36642 -0.08800
H 	H 	0.65863 0.29807 0.35086 0.04200
H 	H 	0.61784 0.35650 0.33406 0.05500
H 	H 	0.60067 0.32184 0.39304 0.05800
H 	H 	0.73405 0.24190 0.58573 0.07200
H 	H 	0.71643 0.38181 0.36716 0.07600
C 	C 	0.31338 0.27994 0.47717 0.00300
C 	C 	0.30860 0.33428 0.46312 0.03600
C 	C 	0.35721 0.37131 0.47162 -0.01600
C 	C 	0.41007 0.35447 0.49433 -0.10700
C 	C 	0.41538 0.29937 0.50680 0.10300
C 	C 	0.36664 0.26289 0.49889 -0.08800
H 	H 	0.35351 0.41319 0.46092 0.02600
H 	H 	0.37062 0.22086 0.50891 0.05600
N 	N 	0.25489 0.35148 0.43880 -0.13600
N 	N 	0.47087 0.27956 0.52565 -0.14400
C 	C 	0.21903 0.38202 0.47450 -0.09000
H 	H 	0.20840 0.35802 0.50955 0.04800
H 	H 	0.17609 0.39139 0.45582 0.04400
H 	H 	0.24294 0.42061 0.48531 0.04000
C 	C 	0.51105 0.26733 0.48335 -0.09400
H 	H 	0.49088 0.23419 0.45946 0.04900
H 	H 	0.55414 0.25393 0.49903 0.05300
H 	H 	0.52060 0.30337 0.45900 0.06900
H 	H 	0.26569 0.37472 0.40634 0.07400
H 	H 	0.49184 0.30545 0.55238 0.07000
C 	C 	0.31787 0.64719 0.01455 -0.09400
C 	C 	0.33492 0.70169 0.02348 0.09700
C 	C 	0.29286 0.74143 0.01686 -0.10000
C 	C 	0.23483 0.72733 0.99968 0.00700
C 	C 	0.21677 0.67274 0.99362 0.05400
C 	C 	0.25839 0.63285 0.00131 -0.04900
H 	H 	0.30630 0.78347 0.02263 0.04900
H 	H 	0.24505 0.59089 0.99482 0.04800
N 	N 	0.39581 0.71684 0.03713 -0.14600
N 	N 	0.15657 0.65803 0.97751 -0.13400
C 	C 	0.42882 0.73920 0.99298 -0.06400
H 	H 	0.42555 0.71104 0.95986 0.04900
H 	H 	0.47690 0.74528 0.00328 0.04000
H 	H 	0.41154 0.77875 0.98169 0.04000
C 	C 	0.12004 0.63977 0.02124 -0.09800
H 	H 	0.13734 0.60237 0.03801 0.04200
H 	H 	0.07327 0.63101 0.00823 0.04300
H 	H 	0.11930 0.67167 0.05108 0.04800
H 	H 	0.39670 0.74465 0.06728 0.07400
H 	H 	0.15675 0.62807 0.94932 0.07500
C 	C 	0.68400 0.72940 0.01422 -0.00800
C 	C 	0.66976 0.69794 0.97071 0.04700
C 	C 	0.62265 0.65864 0.97296 -0.01100
C 	C 	0.58924 0.65080 0.01806 -0.12100
C 	C 	0.60522 0.68123 0.06251 0.10400
C 	C 	0.65213 0.72054 0.05990 -0.08900
H 	H 	0.61171 0.63449 0.93935 0.03900
H 	H 	0.66396 0.74414 0.09367 0.05600
N 	N 	0.70478 0.70474 0.92466 -0.13600
N 	N 	0.57615 0.67117 0.11107 -0.14700
C 	C 	0.67094 0.73126 0.88462 -0.09100
H 	H 	0.63267 0.70470 0.87120 0.04700
H 	H 	0.70092 0.74029 0.85150 0.04900
H 	H 	0.65406 0.76995 0.89871 0.05000
C 	C 	0.51836 0.69631 0.11451 -0.09200
H 	H 	0.52187 0.73872 0.10077 0.04800
H 	H 	0.50386 0.69667 0.15518 0.05600
H 	H 	0.48373 0.67307 0.09223 0.07100
H 	H 	0.71851 0.66740 0.91170 0.07800
H 	H 	0.57324 0.63033 0.12074 0.09700
C 	C 	0.61920 0.31703 0.03816 -0.10500
C 	C 	0.60537 0.26047 0.03893 0.09800
C 	C 	0.65190 0.22472 0.03852 -0.09100
C 	C 	0.71170 0.24375 0.03479 0.00300
C 	C 	0.72579 0.29948 0.03569 0.03600
C 	C 	0.67948 0.33579 0.03759 -0.02400
H 	H 	0.64124 0.18170 0.03852 0.05300
H 	H 	0.69047 0.37874 0.03696 0.03300
N 	N 	0.54454 0.23858 0.03855 -0.15000
N 	N 	0.78720 0.31923 0.03136 -0.13700
C 	C 	0.51804 0.23895 0.98730 -0.08200
H 	H 	0.51685 0.28052 0.97193 0.07300
H 	H 	0.47142 0.22152 0.98914 0.05000
H 	H 	0.54395 0.21390 0.96076 0.05000
C 	C 	0.80899 0.34210 0.07996 -0.09000
H 	H 	0.78612 0.37973 0.08912 0.04100
H 	H 	0.85784 0.35197 0.07684 0.04400
H 	H 	0.80191 0.31271 0.11175 0.04600
H 	H 	0.51745 0.25420 0.06700 0.08300
H 	H 	0.79150 0.34799 0.00213 0.07300
C 	C 	0.25919 0.26810 0.96162 -0.00800
C 	C 	0.24855 0.31032 0.99596 0.06500
C 	C 	0.29484 0.34881 0.00715 -0.06100
C 	C 	0.35187 0.34479 0.98518 -0.07000
C 	C 	0.36016 0.30593 0.94646 0.08700
C 	C 	0.31427 0.26697 0.93605 -0.08200
H 	H 	0.28654 0.38143 0.03339 0.04600
H 	H 	0.32159 0.23578 0.90798 0.04800
N 	N 	0.18944 0.31604 0.01674 -0.14500
N 	N 	0.41437 0.30708 0.91655 -0.13200
C 	C 	0.18861 0.30891 0.07246 -0.09100
H 	H 	0.21160 0.27206 0.08392 0.04500
H 	H 	0.14138 0.30452 0.08562 0.04400
H 	H 	0.21027 0.34453 0.09194 0.04200
C 	C 	0.40663 0.33717 0.86898 -0.08800
H 	H 	0.37161 0.31700 0.84441 0.04500
H 	H 	0.44958 0.33919 0.84750 0.06000
H 	H 	0.39437 0.37913 0.87741 0.05400
H 	H 	0.17382 0.35376 0.00696 0.07000
H 	H 	0.42688 0.26795 0.90824 0.07300
