data_crystal

_cell_length_a 26.11211
_cell_length_b 26.61437
_cell_length_c 26.47923
_cell_angle_alpha 95.49910
_cell_angle_beta  95.49881
_cell_angle_gamma 125.78646

_symmetry_space_group_name_	'P 1'
_symmetry_space_group_name_H-M	'P 1'

loop_
_symmetry_equiv_pos_as_xyz
  x,y,z

loop_
_atom_site_label
_atom_site_type_symbol
_atom_site_fract_x
_atom_site_fract_y
_atom_site_fract_z
_atom_site_charge
C 	C 	0.95826 0.02762 0.99711 0.04400
C 	C 	0.02249 0.06357 0.99063 -0.05800
C 	C 	0.05453 0.03593 0.98831 0.05300
C 	C 	0.02155 0.97186 0.99031 -0.04400
C 	C 	0.95844 0.93669 0.99942 0.04500
C 	C 	0.92687 0.96473 0.00281 -0.03800
H 	H 	0.04743 0.11275 0.98768 0.07700
H 	H 	0.04557 0.94990 0.98625 0.07700
H 	H 	0.87763 0.93738 0.00887 0.07700
C 	C 	0.94027 0.00012 0.42767 0.05800
C 	C 	0.00521 0.03155 0.42395 -0.06800
C 	C 	0.03418 0.00117 0.42902 0.07000
C 	C 	0.99712 0.93759 0.43336 -0.06900
C 	C 	0.93176 0.90502 0.43532 0.07300
C 	C 	0.90378 0.93687 0.43435 -0.05700
H 	H 	0.03389 0.08052 0.41960 0.08100
H 	H 	0.01937 0.91376 0.43617 0.08300
H 	H 	0.85417 0.91272 0.43880 0.08300
Cu	Cu	0.63765 0.24876 0.00786 0.93200
Cu	Cu	0.66715 0.22362 0.89248 0.88900
Cu	Cu	0.68253 0.34975 0.94121 0.91400
Cu	Cu	0.63966 0.36752 0.03867 0.90600
C 	C 	0.65601 0.29997 0.11502 0.28500
O 	O 	0.54351 0.21150 0.00533 -0.33200
C 	C 	0.67990 0.31648 0.83631 0.28700
O 	O 	0.69086 0.34669 0.01297 -0.63600
O 	O 	0.63070 0.25584 0.93352 -0.62900
O 	O 	0.68427 0.20989 0.01053 -0.33900
O 	O 	0.64383 0.15669 0.92731 -0.40000
O 	O 	0.62890 0.32685 0.10051 -0.36500
O 	O 	0.73482 0.44048 0.95279 -0.36700
C 	C 	0.72851 0.47393 0.98829 0.30100
C 	C 	0.51976 0.23921 0.98620 0.29500
O 	O 	0.55895 0.29695 0.97822 -0.37800
O 	O 	0.67708 0.44655 0.00995 -0.35400
O 	O 	0.65581 0.25938 0.08173 -0.34100
C 	C 	0.67680 0.16865 0.97304 0.30800
O 	O 	0.66624 0.34638 0.86789 -0.36100
O 	O 	0.70855 0.29295 0.85505 -0.40100
H 	H 	0.73593 0.37283 0.03178 0.17900
H 	H 	0.58595 0.23525 0.91605 0.17600
Cu	Cu	0.74287 0.34351 0.44105 0.93100
Cu	Cu	0.74024 0.28976 0.54794 0.89300
Cu	Cu	0.64148 0.30434 0.50961 0.90100
Cu	Cu	0.62197 0.34120 0.41020 0.90100
C 	C 	0.69208 0.32725 0.33445 0.28700
O 	O 	0.77940 0.43604 0.44391 -0.33700
C 	C 	0.68707 0.32158 0.62179 0.28800
O 	O 	0.64270 0.29103 0.43727 -0.63700
O 	O 	0.73637 0.34956 0.51529 -0.63400
O 	O 	0.78921 0.30403 0.44123 -0.35000
O 	O 	0.72146 0.23371 0.48755 -0.40900
O 	O 	0.66661 0.35525 0.35018 -0.37300
O 	O 	0.54866 0.25558 0.49904 -0.35700
C 	C 	0.51289 0.25796 0.46195 0.31300
C 	C 	0.75053 0.45871 0.46308 0.30400
O 	O 	0.69219 0.41940 0.47175 -0.38600
O 	O 	0.53877 0.30297 0.43426 -0.37900
O 	O 	0.73161 0.32450 0.36716 -0.34600
C 	C 	0.76580 0.25173 0.45942 0.30700
O 	O 	0.63933 0.30420 0.58424 -0.36800
O 	O 	0.73848 0.32726 0.61190 -0.39100
H 	H 	0.61524 0.24620 0.41988 0.18100
H 	H 	0.76265 0.39275 0.53615 0.19100
C 	C 	0.67830 0.32496 0.67583 -0.06500
C 	C 	0.62827 0.27057 0.69113 -0.01700
C 	C 	0.62696 0.26812 0.74362 0.03700
C 	C 	0.67572 0.32082 0.78133 -0.07000
C 	C 	0.72308 0.37671 0.76605 -0.01000
C 	C 	0.72460 0.37909 0.71354 0.03800
S 	S 	0.56460 0.19853 0.76166 -0.03700
S 	S 	0.78395 0.45025 0.69549 -0.00300
H 	H 	0.76109 0.48466 0.68874 0.05400
H 	H 	0.58329 0.16058 0.76780 0.03000
H 	H 	0.59198 0.22917 0.66223 0.05600
H 	H 	0.75966 0.41787 0.79503 0.05800
C 	C 	0.69083 0.31551 0.27881 -0.06300
C 	C 	0.63793 0.25865 0.24806 -0.02000
C 	C 	0.62750 0.25182 0.19415 0.04100
C 	C 	0.67085 0.30226 0.17059 -0.06000
C 	C 	0.72578 0.35771 0.20121 -0.01900
C 	C 	0.73607 0.36455 0.25511 0.04200
S 	S 	0.55830 0.18121 0.15685 0.00600
S 	S 	0.80454 0.43555 0.29261 0.00700
H 	H 	0.78950 0.47582 0.30614 0.05300
H 	H 	0.50950 0.18704 0.14905 0.05200
H 	H 	0.60325 0.22074 0.26618 0.04700
H 	H 	0.75959 0.39626 0.18316 0.05100
C 	C 	0.89305 0.83748 0.43856 -0.01700
C 	C 	0.87569 0.79204 0.39511 0.11100
C 	C 	0.85209 0.73069 0.40090 -0.06000
C 	C 	0.84369 0.71349 0.44956 0.01100
C 	C 	0.85758 0.75792 0.49253 0.10300
C 	C 	0.88247 0.81971 0.48690 -0.05200
H 	H 	0.84016 0.69629 0.36752 0.08500
C 	C 	0.81947 0.64857 0.45495 0.03100
H 	H 	0.89541 0.85439 0.52041 0.08300
C 	C 	0.86256 0.63683 0.47497 -0.08300
C 	C 	0.84062 0.57529 0.47890 0.14900
C 	C 	0.77517 0.52452 0.46109 -0.09800
C 	C 	0.73226 0.53658 0.44117 -0.00800
C 	C 	0.75392 0.59816 0.43861 0.08000
H 	H 	0.91300 0.67564 0.48802 0.09100
H 	H 	0.68189 0.49792 0.42745 0.05500
Br	Br	0.84284 0.73508 0.55908 -0.18700
Br	Br	0.88413 0.81313 0.32756 -0.18500
Br	Br	0.89994 0.56247 0.51173 -0.21200
Br	Br	0.69294 0.61260 0.41346 -0.18700
C 	C 	0.91307 0.03595 0.43039 -0.01300
C 	C 	0.85936 0.01802 0.39395 0.09900
C 	C 	0.83586 0.05382 0.39689 -0.05500
C 	C 	0.86827 0.11008 0.43332 0.01000
C 	C 	0.92405 0.12978 0.46770 0.10200
C 	C 	0.94454 0.09158 0.46743 -0.05700
H 	H 	0.79299 0.03842 0.37029 0.08600
C 	C 	0.84038 0.14505 0.43862 0.03200
H 	H 	0.98631 0.10617 0.49513 0.08200
C 	C 	0.81719 0.14760 0.48364 -0.08300
C 	C 	0.79851 0.18676 0.49289 0.15500
C 	C 	0.79462 0.21764 0.45364 -0.10100
C 	C 	0.81618 0.21369 0.40781 -0.00500
C 	C 	0.84050 0.17893 0.40072 0.08100
H 	H 	0.81777 0.12229 0.51315 0.09300
H 	H 	0.81435 0.23782 0.37777 0.07500
Br	Br	0.97472 0.21018 0.51364 -0.18800
Br	Br	0.82037 0.94791 0.33773 -0.17000
Br	Br	0.78843 0.20455 0.56184 -0.27900
Br	Br	0.87583 0.18036 0.34007 -0.18500
C 	C 	0.10435 0.03739 0.43421 -0.02000
C 	C 	0.14396 0.06128 0.48339 0.11100
C 	C 	0.21050 0.09531 0.48774 -0.06100
C 	C 	0.23815 0.10676 0.44343 0.01000
C 	C 	0.19857 0.08282 0.39423 0.10400
C 	C 	0.13190 0.04816 0.38985 -0.05100
H 	H 	0.24089 0.11383 0.52563 0.08600
C 	C 	0.30865 0.14566 0.44898 0.03100
H 	H 	0.10151 0.02980 0.35196 0.08600
C 	C 	0.33903 0.11638 0.44592 -0.08300
C 	C 	0.40586 0.15261 0.45053 0.14900
C 	C 	0.44293 0.21894 0.45923 -0.09500
C 	C 	0.41248 0.24813 0.46301 -0.00600
C 	C 	0.34567 0.21187 0.45776 0.08300
H 	H 	0.31057 0.06539 0.43915 0.08900
H 	H 	0.44078 0.29912 0.46976 0.07300
Br	Br	0.23485 0.09794 0.33274 -0.18400
Br	Br	0.10811 0.04920 0.54507 -0.20500
Br	Br	0.44507 0.11054 0.44201 -0.23000
Br	Br	0.30565 0.25355 0.46180 -0.18100
C 	C 	0.77082 0.54341 0.99456 -0.09600
C 	C 	0.77979 0.58180 0.04035 0.15500
C 	C 	0.80943 0.64592 0.04165 -0.07500
C 	C 	0.83534 0.67344 0.99948 0.01600
C 	C 	0.83412 0.63683 0.95662 0.09000
C 	C 	0.80009 0.57180 0.95353 -0.00900
H 	H 	0.81351 0.67471 0.07592 0.09100
C 	C 	0.86475 0.74080 0.00104 0.02400
H 	H 	0.79609 0.54334 0.91906 0.07600
C 	C 	0.92087 0.78649 0.03715 -0.06300
C 	C 	0.94933 0.85053 0.03936 0.10300
C 	C 	0.92419 0.86946 0.00261 0.00300
C 	C 	0.86694 0.82365 0.96750 -0.06300
C 	C 	0.83591 0.75961 0.96791 0.10300
H 	H 	0.94166 0.77213 0.06421 0.08500
H 	H 	0.84639 0.83787 0.94007 0.08100
Br	Br	0.88040 0.67509 0.90288 -0.19100
Br	Br	0.75927 0.54968 0.10322 -0.23500
Br	Br	0.01884 0.91080 0.09535 -0.16600
Br	Br	0.75294 0.69878 0.92472 -0.18200
C 	C 	0.71909 0.14935 0.97845 -0.10800
C 	C 	0.78516 0.19273 0.97803 0.15100
C 	C 	0.82494 0.17374 0.98283 -0.08700
C 	C 	0.79936 0.11152 0.98733 0.03600
C 	C 	0.73337 0.06816 0.98799 0.07300
C 	C 	0.69352 0.08723 0.98340 0.00000
H 	H 	0.87566 0.20710 0.98216 0.09100
C 	C 	0.84159 0.09168 0.98960 0.00000
H 	H 	0.64271 0.05375 0.98366 0.06700
C 	C 	0.87418 0.09745 0.03761 -0.05300
C 	C 	0.91450 0.07890 0.04039 0.11100
C 	C 	0.92243 0.05441 0.99478 -0.01900
C 	C 	0.89113 0.05018 0.94673 -0.05800
C 	C 	0.85082 0.06868 0.94393 0.10600
H 	H 	0.86789 0.11603 0.07277 0.08600
H 	H 	0.89714 0.03129 0.91157 0.07600
Br	Br	0.69687 0.98271 0.99463 -0.17000
Br	Br	0.82146 0.27751 0.96900 -0.27500
Br	Br	0.95831 0.08723 0.10672 -0.18000
Br	Br	0.80798 0.06133 0.87747 -0.20000
C 	C 	0.45096 0.21081 0.98282 -0.09500
C 	C 	0.40291 0.14601 0.96317 0.14900
C 	C 	0.33825 0.12024 0.96272 -0.08400
C 	C 	0.32076 0.15897 0.97949 0.03300
C 	C 	0.36846 0.22407 0.99670 0.07800
C 	C 	0.43312 0.24946 0.99902 -0.01600
H 	H 	0.30148 0.07019 0.94878 0.09100
C 	C 	0.25288 0.13057 0.98160 0.00200
H 	H 	0.46967 0.29941 0.01363 0.06600
C 	C 	0.23303 0.12309 0.02943 -0.05200
C 	C 	0.16901 0.09642 0.03232 0.11300
C 	C 	0.12361 0.07458 0.98683 -0.01900
C 	C 	0.14365 0.08339 0.93910 -0.05600
C 	C 	0.20815 0.11176 0.93633 0.10400
H 	H 	0.26757 0.13856 0.06444 0.08600
H 	H 	0.10889 0.06712 0.90405 0.07800
Br	Br	0.34607 0.27930 0.01634 -0.17900
Br	Br	0.42373 0.09294 0.93306 -0.22200
Br	Br	0.14452 0.09104 0.09881 -0.16800
Br	Br	0.23438 0.12506 0.87061 -0.19200
