data_crystal

_cell_length_a 15.61040
_cell_length_b 15.86840
_cell_length_c 26.70414
_cell_angle_alpha 95.39652
_cell_angle_beta  95.39408
_cell_angle_gamma 126.70882

_symmetry_space_group_name_	'P 1'
_symmetry_space_group_name_H-M	'P 1'

loop_
_symmetry_equiv_pos_as_xyz
  x,y,z

loop_
_atom_site_label
_atom_site_type_symbol
_atom_site_fract_x
_atom_site_fract_y
_atom_site_fract_z
_atom_site_charge
N 	N 	0.99419 0.90330 0.96243 -0.11500
N 	N 	0.99162 0.04842 0.95736 -0.12800
C 	C 	0.10259 0.05618 0.49889 0.12200
N 	N 	0.06007 0.11056 0.50106 -0.11700
C 	C 	0.88293 0.98488 0.95581 0.14500
N 	N 	0.82845 0.87820 0.95742 -0.11900
C 	C 	0.88539 0.83764 0.96040 0.13400
C 	C 	0.04706 0.00810 0.96106 0.13100
C 	C 	0.95191 0.05615 0.50244 0.11600
N 	N 	0.88807 0.94918 0.50120 -0.11400
C 	C 	0.93091 0.89620 0.49840 0.13100
N 	N 	0.03757 0.94957 0.49740 -0.11100
Cu	Cu	0.75112 0.32831 0.94428 0.93200
Cu	Cu	0.72316 0.22926 0.04979 0.88100
Cu	Cu	0.58656 0.28780 0.01051 0.90200
Cu	Cu	0.54659 0.31765 0.90233 0.91400
C 	C 	0.68191 0.30393 0.83615 0.40000
O 	O 	0.80835 0.48669 0.94604 -0.31400
C 	C 	0.64780 0.30375 0.12209 0.39000
O 	O 	0.58265 0.24373 0.93903 -0.62700
O 	O 	0.73961 0.34079 0.01709 -0.64500
O 	O 	0.81447 0.24720 0.94797 -0.33000
O 	O 	0.68662 0.12932 0.99093 -0.40700
O 	O 	0.63853 0.35081 0.84920 -0.36200
O 	O 	0.44027 0.24643 0.00180 -0.35800
C 	C 	0.36896 0.19939 0.95850 0.31600
C 	C 	0.75323 0.52173 0.96012 0.28600
O 	O 	0.65099 0.45288 0.96391 -0.37200
O 	O 	0.39710 0.23132 0.91513 -0.36300
O 	O 	0.73751 0.29225 0.87130 -0.33800
C 	C 	0.75982 0.15327 0.96274 0.29500
O 	O 	0.58946 0.30984 0.08523 -0.34700
O 	O 	0.72613 0.29827 0.11318 -0.39100
H 	H 	0.53535 0.16521 0.92709 0.18600
H 	H 	0.79214 0.41397 0.03771 0.19400
Cu	Cu	0.61904 0.20094 0.51354 0.93200
Cu	Cu	0.70268 0.21001 0.40433 0.88500
Cu	Cu	0.66929 0.36486 0.44598 0.90600
Cu	Cu	0.62642 0.39959 0.55042 0.91300
C 	C 	0.65620 0.28120 0.62121 0.39400
O 	O 	0.45972 0.14034 0.51410 -0.32600
C 	C 	0.63572 0.29249 0.33354 0.38800
O 	O 	0.70732 0.36715 0.51728 -0.63400
O 	O 	0.60074 0.20981 0.44038 -0.63700
O 	O 	0.69420 0.13299 0.50912 -0.33800
O 	O 	0.80942 0.24858 0.46130 -0.41400
O 	O 	0.60699 0.32283 0.60855 -0.36000
O 	O 	0.74499 0.51736 0.45525 -0.34800
C 	C 	0.74992 0.57815 0.49456 0.31200
C 	C 	0.42113 0.18970 0.49750 0.29500
O 	O 	0.48834 0.28788 0.49052 -0.38000
O 	O 	0.68793 0.53802 0.52912 -0.36300
O 	O 	0.65926 0.21842 0.58646 -0.33100
C 	C 	0.78655 0.18110 0.49208 0.30100
O 	O 	0.65283 0.36465 0.37122 -0.34500
O 	O 	0.62952 0.20900 0.34267 -0.38700
H 	H 	0.78644 0.41427 0.53126 0.19000
H 	H 	0.52473 0.16226 0.42130 0.19500
C 	C 	0.62339 0.19400 0.74911 0.27300
C 	C 	0.69488 0.29341 0.78250 -0.19600
C 	C 	0.76598 0.38573 0.76261 0.28100
C 	C 	0.75929 0.38017 0.70958 0.27200
C 	C 	0.68186 0.28216 0.67596 -0.19300
C 	C 	0.61693 0.18830 0.69598 0.28000
F 	F 	0.54281 0.09270 0.66394 -0.38000
F 	F 	0.55576 0.10385 0.76793 -0.39200
F 	F 	0.82457 0.47095 0.69076 -0.39600
F 	F 	0.83764 0.48186 0.79462 -0.38100
C 	C 	0.71420 0.39819 0.26484 0.27200
C 	C 	0.62649 0.30721 0.28003 -0.19600
C 	C 	0.53744 0.22340 0.24266 0.27600
C 	C 	0.54001 0.22686 0.19051 0.27100
C 	C 	0.63214 0.31345 0.17534 -0.19700
C 	C 	0.71732 0.40101 0.21269 0.27800
F 	F 	0.80539 0.48669 0.19848 -0.38600
F 	F 	0.79969 0.48089 0.30054 -0.38900
F 	F 	0.45588 0.14297 0.15476 -0.39700
F 	F 	0.45028 0.13675 0.25684 -0.38700
C 	C 	0.86399 0.78397 0.49647 0.04800
C 	C 	0.81104 0.68963 0.49519 -0.05300
C 	C 	0.90188 0.10875 0.50093 0.04200
C 	C 	0.85097 0.14371 0.49814 -0.06700
C 	C 	0.21616 0.10990 0.49831 0.04300
C 	C 	0.30957 0.14597 0.49781 -0.05700
C 	C 	0.79679 0.63255 0.96050 -0.04100
C 	C 	0.83184 0.72478 0.96045 0.04200
C 	C 	0.82863 0.03411 0.95591 0.02700
C 	C 	0.79551 0.08691 0.95759 -0.05400
C 	C 	0.16082 0.07532 0.96130 0.04800
C 	C 	0.25629 0.13198 0.96065 -0.05600
