data_crystal

_cell_length_a 17.71839
_cell_length_b 17.45174
_cell_length_c 48.50328
_cell_angle_alpha 90.74523
_cell_angle_beta  91.02965
_cell_angle_gamma 110.93993

_symmetry_space_group_name_	'P 1'
_symmetry_space_group_name_H-M	'P 1'

loop_
_symmetry_equiv_pos_as_xyz
  x,y,z

loop_
_atom_site_label
_atom_site_type_symbol
_atom_site_fract_x
_atom_site_fract_y
_atom_site_fract_z
_atom_site_charge
O 	O 	0.08811 0.88107 0.75846 -0.70200
Ni	Ni	0.11218 0.99502 0.77460 1.09300
O 	O 	0.13831 0.76719 0.72371 -0.41000
Ni	Ni	0.19110 0.87165 0.74883 1.06400
O 	O 	0.19530 0.95511 0.71935 -0.43100
O 	O 	0.19404 0.99322 0.80459 -0.39700
O 	O 	0.03359 0.99391 0.74333 -0.71000
O 	O 	0.10614 0.10216 0.79121 -0.37000
H 	H 	0.05848 0.83707 0.77108 0.15100
H 	H 	0.05798 0.04093 0.73114 0.15400
C 	C 	0.22671 0.03376 0.72611 0.28700
C 	C 	0.06509 0.74270 0.71247 0.30200
C 	C 	0.26211 0.98439 0.79792 0.29100
O 	O 	0.20582 0.06182 0.74932 -0.37000
O 	O 	0.27202 0.96311 0.77248 -0.42000
Ni	Ni	0.33253 0.76275 0.40262 1.09600
O 	O 	0.31443 0.69254 0.36754 -0.70100
Ni	Ni	0.20156 0.68433 0.35587 1.09700
O 	O 	0.42572 0.72969 0.41741 -0.38900
O 	O 	0.35156 0.59295 0.41357 -0.41700
O 	O 	0.41738 0.86048 0.38356 -0.37500
Ni	Ni	0.32217 0.58351 0.37143 1.06600
O 	O 	0.31638 0.93456 0.41106 -0.42200
O 	O 	0.20815 0.51556 0.38307 -0.40400
O 	O 	0.17801 0.59868 0.32427 -0.38500
O 	O 	0.22555 0.76443 0.38895 -0.70200
O 	O 	0.34354 0.83681 0.43612 -0.39500
O 	O 	0.09562 0.70159 0.34613 -0.37500
O 	O 	0.15817 0.84069 0.34567 -0.42100
Ni	Ni	0.23859 0.87653 0.37927 1.06400
H 	H 	0.35238 0.72257 0.35328 0.15300
H 	H 	0.18484 0.74477 0.40346 0.15000
C 	C 	0.16395 0.54968 0.39596 0.29400
O 	O 	0.32951 0.88618 0.35319 -0.42700
C 	C 	0.41149 0.65402 0.42514 0.28100
C 	C 	0.20809 0.53940 0.32375 0.30000
C 	C 	0.40343 0.90042 0.36230 0.29700
C 	C 	0.09166 0.77532 0.34606 0.28300
C 	C 	0.31944 0.89985 0.43494 0.28900
O 	O 	0.13479 0.59821 0.38278 -0.39100
O 	O 	0.28397 0.55421 0.33170 -0.42100
Ni	Ni	0.35898 0.65973 0.13258 1.09600
O 	O 	0.25043 0.63521 0.11161 -0.69300
Ni	Ni	0.19452 0.69078 0.13704 1.09700
O 	O 	0.39720 0.58474 0.10764 -0.36500
O 	O 	0.27842 0.47719 0.10589 -0.40500
O 	O 	0.41968 0.74785 0.10460 -0.37100
Ni	Ni	0.18272 0.51775 0.10851 1.07100
O 	O 	0.47769 0.82759 0.15268 -0.41400
O 	O 	0.18738 0.50555 0.14996 -0.42100
O 	O 	0.09013 0.66548 0.11443 -0.38500
O 	O 	0.30344 0.71749 0.15705 -0.70300
O 	O 	0.46426 0.69271 0.15520 -0.37800
O 	O 	0.16016 0.76518 0.16322 -0.37600
O 	O 	0.26946 0.87774 0.15316 -0.41800
Ni	Ni	0.36559 0.83586 0.15425 1.06100
H 	H 	0.25809 0.66116 0.09336 0.15400
H 	H 	0.29905 0.69841 0.17629 0.15400
C 	C 	0.13714 0.52500 0.16536 0.30000
O 	O 	0.35190 0.83371 0.11261 -0.42900
C 	C 	0.34481 0.52212 0.09407 0.29200
C 	C 	0.06239 0.59622 0.10025 0.30400
C 	C 	0.39740 0.80849 0.09684 0.30400
C 	C 	0.20158 0.84409 0.16610 0.28900
O 	O 	0.13395 0.59933 0.16440 -0.36700
O 	O 	0.07347 0.53105 0.10988 -0.42300
O 	O 	0.03186 0.20155 0.24906 -0.38100
O 	O 	0.08600 0.07272 0.24773 -0.41200
O 	O 	0.99972 0.06913 0.21129 -0.37500
Ni	Ni	0.01850 0.04184 0.28246 1.06600
O 	O 	0.03714 0.16043 0.29323 -0.42100
C 	C 	0.05346 0.21871 0.27507 0.29900
C 	C 	0.05721 0.04701 0.22245 0.28000
C 	C 	0.01452 0.39926 0.16002 -0.04400
C 	C 	0.06965 0.45817 0.17766 -0.09300
C 	C 	0.06104 0.45074 0.20660 0.10900
C 	C 	0.99857 0.38304 0.21721 -0.04200
C 	C 	0.95075 0.33351 0.17062 0.11400
H 	H 	0.02167 0.40391 0.13793 0.03600
N 	N 	0.11361 0.50648 0.22428 -0.20000
H 	H 	0.16147 0.55645 0.21714 0.08800
H 	H 	0.10705 0.50006 0.24560 0.08900
C 	C 	0.21250 0.96322 0.19626 -0.04900
C 	C 	0.16426 0.89823 0.17908 -0.10000
C 	C 	0.08278 0.88932 0.17329 0.11200
C 	C 	0.04853 0.93820 0.18788 -0.05200
C 	C 	0.09667 0.00255 0.20532 -0.09700
C 	C 	0.18076 0.01903 0.20775 0.10300
N 	N 	0.23173 0.09057 0.21937 -0.20000
H 	H 	0.27590 0.97262 0.19964 0.02700
H 	H 	0.98458 0.92727 0.18518 0.04300
N 	N 	0.03890 0.83793 0.15276 -0.19800
H 	H 	0.29273 0.09965 0.22289 0.07500
H 	H 	0.21311 0.14029 0.22267 0.09700
H 	H 	0.06675 0.81528 0.13755 0.10200
H 	H 	0.97710 0.82663 0.15027 0.08600
C 	C 	0.04665 0.33616 0.30221 -0.04500
C 	C 	0.09000 0.30466 0.28438 -0.10600
C 	C 	0.16905 0.35430 0.27687 0.10800
C 	C 	0.20473 0.43322 0.28872 -0.04900
C 	C 	0.16356 0.46251 0.30828 -0.09700
C 	C 	0.08236 0.41432 0.31440 0.10200
N 	N 	0.03871 0.44185 0.33219 -0.20200
H 	H 	0.98540 0.29850 0.30736 0.02600
H 	H 	0.26564 0.47108 0.28327 0.04500
N 	N 	0.21165 0.32615 0.25884 -0.20200
H 	H 	0.97812 0.40680 0.33555 0.07700
H 	H 	0.06413 0.49651 0.34339 0.10500
H 	H 	0.18808 0.26699 0.25025 0.09800
H 	H 	0.26979 0.36360 0.25335 0.08100
C 	C 	0.98044 0.81487 0.36339 -0.05300
C 	C 	0.01328 0.78467 0.34156 -0.10200
C 	C 	0.98001 0.78092 0.31463 0.10300
C 	C 	0.92522 0.82088 0.30941 -0.06000
H 	H 	0.00165 0.81247 0.38437 0.02200
H 	H 	0.90486 0.82449 0.28841 0.02600
N 	N 	0.00237 0.74177 0.29365 -0.20300
H 	H 	0.04022 0.70863 0.29715 0.09800
H 	H 	0.97983 0.74209 0.27360 0.07800
C 	C 	0.29236 0.11289 0.55011 -0.17100
C 	C 	0.31969 0.94517 0.46064 -0.11900
C 	C 	0.27184 0.90490 0.48281 0.09100
C 	C 	0.20383 0.82356 0.47830 -0.19700
H 	H 	0.25861 0.90485 0.52695 0.04900
H 	H 	0.23978 0.05661 0.54465 0.06300
H 	H 	0.30779 0.15331 0.53198 0.06000
H 	H 	0.27389 0.14559 0.56700 0.06000
H 	H 	0.22891 0.77396 0.47629 0.06100
H 	H 	0.16836 0.82449 0.45926 0.04600
H 	H 	0.16162 0.80946 0.49577 0.05900
C 	C 	0.06662 0.47950 0.47543 0.00700
H 	H 	0.08847 0.39371 0.51839 0.05000
C 	C 	0.13980 0.54656 0.47283 0.01800
C 	C 	0.17190 0.56770 0.44662 -0.01000
C 	C 	0.13359 0.52083 0.42327 -0.12200
C 	C 	0.06413 0.44970 0.42620 0.10900
C 	C 	0.18142 0.59807 0.49772 -0.16900
H 	H 	0.22566 0.62185 0.44427 0.00600
C 	C 	0.02193 0.39841 0.40137 -0.21200
H 	H 	0.24271 0.64124 0.49286 0.05500
H 	H 	0.18869 0.55831 0.51446 0.06200
H 	H 	0.14518 0.63418 0.50520 0.05700
H 	H 	0.99077 0.43232 0.38924 0.07700
C 	C 	0.50329 0.54436 0.47465 0.02200
C 	C 	0.47736 0.57042 0.45014 -0.01600
C 	C 	0.45222 0.63818 0.45027 -0.10700
C 	C 	0.52129 0.46612 0.47454 -0.16900
H 	H 	0.47368 0.53595 0.43107 0.02400
H 	H 	0.47858 0.42069 0.48805 0.06000
H 	H 	0.58406 0.47850 0.48214 0.05700
H 	H 	0.51504 0.43829 0.45350 0.05400
C 	C 	0.31304 0.17058 0.70893 -0.04900
C 	C 	0.29999 0.08676 0.71190 -0.08700
C 	C 	0.35934 0.05574 0.70255 0.10300
C 	C 	0.42639 0.10748 0.68870 -0.03800
C 	C 	0.44238 0.19197 0.68750 -0.09900
C 	C 	0.38521 0.22425 0.69778 0.10800
N 	N 	0.39986 0.30629 0.69780 -0.20100
H 	H 	0.26818 0.19468 0.71614 0.04600
H 	H 	0.47010 0.08281 0.68085 0.03100
N 	N 	0.35507 0.97819 0.70820 -0.19200
H 	H 	0.35628 0.32904 0.70475 0.08100
H 	H 	0.45529 0.34848 0.69188 0.09200
H 	H 	0.32573 0.94807 0.72551 0.05200
H 	H 	0.39097 0.95197 0.69758 0.07200
H 	H 	0.98029 0.65950 0.75298 0.08000
C 	C 	0.08582 0.62111 0.02390 0.01800
C 	C 	0.10024 0.63581 0.05234 -0.01800
C 	C 	0.03979 0.59687 0.07108 -0.13800
C 	C 	0.15372 0.65754 0.00419 -0.17100
H 	H 	0.15975 0.67438 0.05997 0.01100
H 	H 	0.21250 0.68830 0.01529 0.05500
H 	H 	0.14087 0.70370 0.99128 0.06000
H 	H 	0.16026 0.60856 0.99066 0.05900
C 	C 	0.47786 0.00668 0.97975 0.03300
C 	C 	0.49735 0.94417 0.02455 0.00900
C 	C 	0.38746 0.97297 0.98319 -0.17700
C 	C 	0.47274 0.85767 0.02422 0.02000
C 	C 	0.43861 0.81408 0.04786 -0.01400
C 	C 	0.43369 0.85602 0.07228 -0.11200
C 	C 	0.46527 0.94307 0.07319 0.10400
C 	C 	0.49327 0.98605 0.04897 -0.10100
H 	H 	0.41635 0.74753 0.04732 0.03600
C 	C 	0.47079 0.99061 0.09985 -0.20700
H 	H 	0.51370 0.05253 0.04925 0.05400
H 	H 	0.37190 0.99852 0.00245 0.06300
H 	H 	0.36518 0.90508 0.98426 0.06000
H 	H 	0.35509 0.98927 0.96571 0.05800
H 	H 	0.46680 0.74515 0.00269 0.05800
H 	H 	0.44673 0.81967 0.98148 0.05800
H 	H 	0.51317 0.05504 0.09827 0.06600
H 	H 	0.49388 0.96273 0.11695 0.06200
H 	H 	0.41038 0.99187 0.10490 0.07100
C 	C 	0.36695 0.28286 0.99887 -0.17200
C 	C 	0.36058 0.50225 0.06556 -0.10900
C 	C 	0.29962 0.48458 0.04454 0.08100
C 	C 	0.31411 0.45882 0.01832 -0.08800
C 	C 	0.21976 0.49432 0.04970 -0.18600
H 	H 	0.26671 0.44233 0.00249 0.04600
H 	H 	0.30869 0.28373 0.00665 0.06300
H 	H 	0.41021 0.29140 0.01649 0.06200
H 	H 	0.35511 0.22139 0.98926 0.06000
H 	H 	0.18637 0.49415 0.03009 0.05600
H 	H 	0.22953 0.55373 0.06035 0.00700
H 	H 	0.18130 0.44305 0.06229 0.01500
N 	N 	0.04530 0.13694 0.85568 -0.20000
H 	H 	0.08992 0.11525 0.84905 0.09600
H 	H 	0.02960 0.13073 0.87642 0.07700
C 	C 	0.39446 0.09726 0.80247 -0.04500
C 	C 	0.33582 0.02958 0.81437 -0.08500
C 	C 	0.35316 0.00023 0.83990 0.09800
C 	C 	0.42912 0.03963 0.85300 -0.03800
C 	C 	0.48778 0.10697 0.84089 -0.10100
C 	C 	0.47129 0.13400 0.81489 0.11000
H 	H 	0.38138 0.11911 0.78276 0.05900
H 	H 	0.44176 0.01914 0.87299 0.04600
N 	N 	0.29753 0.93483 0.85197 -0.20200
H 	H 	0.24024 0.90510 0.84303 0.07800
H 	H 	0.31115 0.91331 0.87073 0.07700
Ni	Ni	0.62813 0.29370 0.89769 1.09800
O 	O 	0.66992 0.39211 0.87265 -0.70600
Ni	Ni	0.77376 0.38324 0.86071 1.10000
O 	O 	0.52827 0.32238 0.90610 -0.37700
O 	O 	0.60754 0.45088 0.92180 -0.41400
O 	O 	0.57322 0.23324 0.86243 -0.40500
Ni	Ni	0.69340 0.49682 0.89145 1.06400
O 	O 	0.69288 0.14478 0.91921 -0.42000
O 	O 	0.77138 0.47640 0.91921 -0.42200
O 	O 	0.80207 0.47580 0.83338 -0.38200
O 	O 	0.73890 0.29523 0.89018 -0.70600
O 	O 	0.58307 0.18781 0.91982 -0.38900
O 	O 	0.86414 0.34719 0.84625 -0.37700
O 	O 	0.77782 0.21394 0.84177 -0.42100
Ni	Ni	0.72829 0.18268 0.88049 1.06800
H 	H 	0.63363 0.38763 0.85647 0.15500
H 	H 	0.77269 0.31271 0.90720 0.15300
C 	C 	0.84386 0.48045 0.91257 0.30200
O 	O 	0.61252 0.12196 0.86521 -0.40200
C 	C 	0.53548 0.39320 0.91796 0.28100
C 	C 	0.79324 0.54559 0.84028 0.28000
C 	C 	0.56042 0.15585 0.85722 0.31500
C 	C 	0.85044 0.27036 0.83925 0.27900
C 	C 	0.62711 0.14827 0.93110 0.29100
O 	O 	0.85897 0.46213 0.88744 -0.37400
O 	O 	0.78558 0.56335 0.86659 -0.41400
Ni	Ni	0.62212 0.33745 0.63016 1.09900
O 	O 	0.71503 0.37324 0.60289 -0.69900
Ni	Ni	0.78540 0.31459 0.61716 1.10000
O 	O 	0.56436 0.40279 0.60902 -0.37500
O 	O 	0.67687 0.51861 0.61273 -0.41100
O 	O 	0.57241 0.24210 0.60275 -0.40200
Ni	Ni	0.77768 0.49002 0.60282 1.06700
O 	O 	0.58661 0.23132 0.68559 -0.42700
O 	O 	0.80823 0.49353 0.64367 -0.41600
O 	O 	0.86463 0.34325 0.58588 -0.38900
O 	O 	0.70327 0.29559 0.64770 -0.70200
O 	O 	0.52401 0.29228 0.65567 -0.38000
O 	O 	0.83264 0.22987 0.63082 -0.38400
O 	O 	0.70735 0.13091 0.63336 -0.42500
Ni	Ni	0.64679 0.18356 0.65950 1.06700
H 	H 	0.69613 0.35370 0.58385 0.15300
H 	H 	0.72795 0.33049 0.66409 0.15500
C 	C 	0.86592 0.46825 0.65206 0.29800
O 	O 	0.54468 0.14073 0.63463 -0.40700
C 	C 	0.60557 0.47798 0.60117 0.28500
C 	C 	0.89016 0.41844 0.57621 0.28400
C 	C 	0.53804 0.16507 0.60948 0.31200
C 	C 	0.78664 0.15288 0.63460 0.27800
C 	C 	0.52152 0.24515 0.67718 0.30000
O 	O 	0.87226 0.40093 0.64155 -0.37900
O 	O 	0.88463 0.48040 0.59114 -0.41400
O 	O 	0.86622 0.93570 0.71910 -0.40900
C 	C 	0.90287 0.94215 0.69533 0.28600
C 	C 	0.49686 0.76910 0.16450 0.28600
Ni	Ni	0.83189 0.04199 0.28858 1.09800
O 	O 	0.82315 0.23460 0.22042 -0.40800
Ni	Ni	0.76056 0.14426 0.24824 1.06400
O 	O 	0.75599 0.04448 0.22476 -0.41900
O 	O 	0.74785 0.06507 0.31212 -0.39700
C 	C 	0.73686 0.97094 0.23573 0.26600
C 	C 	0.68219 0.07012 0.30059 0.29100
O 	O 	0.74244 0.96299 0.26286 -0.37000
O 	O 	0.67531 0.06928 0.27346 -0.41300
C 	C 	0.61746 0.84206 0.22971 -0.04700
C 	C 	0.68845 0.89812 0.21887 -0.08800
C 	C 	0.70501 0.89104 0.19074 0.09700
C 	C 	0.64372 0.83948 0.17300 -0.03900
C 	C 	0.56788 0.79280 0.18330 -0.09600
C 	C 	0.55735 0.78847 0.21211 0.09200
N 	N 	0.48860 0.73513 0.22289 -0.20300
H 	H 	0.60666 0.84357 0.25161 0.05600
H 	H 	0.65353 0.83920 0.15100 0.05100
N 	N 	0.77954 0.93244 0.18080 -0.19500
H 	H 	0.47967 0.73451 0.24415 0.07600
H 	H 	0.44479 0.69196 0.21040 0.07300
H 	H 	0.82815 0.96421 0.19404 0.07200
H 	H 	0.79052 0.92958 0.15978 0.08400
C 	C 	0.61496 0.04487 0.34618 -0.04700
C 	C 	0.60823 0.05035 0.31740 -0.09700
C 	C 	0.53004 0.02315 0.30481 0.10400
C 	C 	0.46423 0.97132 0.31937 -0.05000
C 	C 	0.47223 0.95957 0.34772 -0.10200
C 	C 	0.54635 0.00412 0.36167 0.11000
N 	N 	0.55076 0.01253 0.38962 -0.19900
H 	H 	0.67330 0.07286 0.35658 0.04900
H 	H 	0.40609 0.94298 0.30887 0.04400
N 	N 	0.51670 0.05282 0.28018 -0.19500
H 	H 	0.60669 0.03993 0.39981 0.08300
H 	H 	0.49866 0.99947 0.40119 0.10100
H 	H 	0.55761 0.10772 0.27287 0.07200
H 	H 	0.46086 0.02683 0.26982 0.07200
C 	C 	0.45025 0.01076 0.55205 -0.08900
C 	C 	0.38812 0.03627 0.54248 0.00200
C 	C 	0.36395 0.09064 0.55874 0.02400
C 	C 	0.41014 0.12792 0.58233 -0.01000
C 	C 	0.47820 0.10937 0.59014 -0.11100
C 	C 	0.49515 0.04645 0.57600 0.09300
C 	C 	0.35540 0.01293 0.51416 0.00600
H 	H 	0.39560 0.17437 0.59382 0.04100
C 	C 	0.56459 0.02160 0.58516 -0.20000
H 	H 	0.46641 0.96634 0.54002 0.04700
C 	C 	0.39594 0.05842 0.49149 0.02000
C 	C 	0.37798 0.02378 0.46483 -0.01000
C 	C 	0.29112 0.93847 0.50956 -0.09600
C 	C 	0.46319 0.14038 0.49588 -0.17000
H 	H 	0.41314 0.05559 0.44762 0.03500
H 	H 	0.56379 0.96514 0.57410 0.06100
H 	H 	0.56092 0.00868 0.60755 0.07400
H 	H 	0.62264 0.07176 0.58101 0.06700
H 	H 	0.47992 0.17343 0.47620 0.05600
H 	H 	0.51746 0.13119 0.50476 0.06200
H 	H 	0.44422 0.18008 0.51011 0.06100
C 	C 	0.92015 0.48372 0.53079 -0.01800
H 	H 	0.87208 0.50744 0.53404 0.01200
H 	H 	0.09070 0.36226 0.56611 0.06500
H 	H 	0.89811 0.57814 0.49218 0.05200
C 	C 	0.48658 0.65911 0.49944 -0.09400
C 	C 	0.50858 0.58965 0.49941 0.00200
C 	C 	0.45592 0.68237 0.47536 0.09700
C 	C 	0.53385 0.56281 0.52575 0.00600
C 	C 	0.42418 0.75166 0.47698 -0.20400
H 	H 	0.49089 0.69364 0.51853 0.04900
C 	C 	0.61632 0.58754 0.53359 0.01500
C 	C 	0.63857 0.55951 0.55833 -0.01400
C 	C 	0.57947 0.51085 0.57612 -0.12400
C 	C 	0.49656 0.49197 0.56926 0.10500
C 	C 	0.47464 0.51548 0.54362 -0.09900
C 	C 	0.68066 0.64445 0.51582 -0.16700
H 	H 	0.70208 0.57502 0.56363 -0.00600
C 	C 	0.43129 0.44763 0.58904 -0.20600
H 	H 	0.41128 0.49817 0.53777 0.05100
H 	H 	0.46318 0.80449 0.46511 0.09000
H 	H 	0.42346 0.77340 0.49857 0.06800
H 	H 	0.36107 0.73052 0.46881 0.07000
H 	H 	0.74197 0.66056 0.52538 0.05000
H 	H 	0.66917 0.70234 0.51282 0.06200
H 	H 	0.68056 0.61492 0.49542 0.05600
H 	H 	0.44902 0.47122 0.61048 0.08000
H 	H 	0.41973 0.38079 0.58796 0.08300
H 	H 	0.37381 0.45687 0.58390 0.06500
C 	C 	0.80636 0.95728 0.66010 -0.04900
C 	C 	0.88300 0.98844 0.67301 -0.10600
C 	C 	0.93492 0.06940 0.66760 0.09600
C 	C 	0.90430 0.12193 0.65341 -0.05000
C 	C 	0.82463 0.09282 0.64272 -0.10400
C 	C 	0.77939 0.00754 0.64321 0.10300
N 	N 	0.71482 0.97296 0.62583 -0.20400
H 	H 	0.76832 0.89366 0.66281 0.04700
H 	H 	0.94205 0.18585 0.65124 0.05200
H 	H 	0.67789 0.91143 0.62775 0.07800
H 	H 	0.70625 0.00415 0.60855 0.09200
C 	C 	0.92958 0.52085 0.67111 -0.09600
N 	N 	0.03398 0.54911 0.63715 -0.20200
H 	H 	0.00467 0.49297 0.62704 0.10600
C 	C 	0.93665 0.45570 0.94689 -0.01300
C 	C 	0.90990 0.51154 0.93305 -0.11400
H 	H 	0.92048 0.39353 0.93878 0.02200
C 	C 	0.91497 0.65728 0.92644 -0.20400
H 	H 	0.85110 0.65087 0.92959 0.06000
C 	C 	0.61392 0.03053 0.99749 -0.08500
C 	C 	0.53004 0.99208 0.99966 -0.00900
C 	C 	0.51068 0.05620 0.95717 -0.02200
C 	C 	0.59473 0.09584 0.95515 -0.10300
C 	C 	0.64666 0.08545 0.97618 0.08800
H 	H 	0.47065 0.06464 0.94129 0.04500
C 	C 	0.73639 0.13369 0.97649 -0.19500
H 	H 	0.65368 0.02022 0.01309 0.04900
C 	C 	0.48429 0.81191 0.99900 -0.16900
H 	H 	0.76624 0.10585 0.96151 0.06800
H 	H 	0.76414 0.13378 0.99722 0.06100
H 	H 	0.74856 0.19876 0.97130 0.06300
H 	H 	0.54883 0.83575 0.99323 0.06200
C 	C 	0.42612 0.48927 0.96345 -0.09000
C 	C 	0.40376 0.43056 0.98411 0.00200
C 	C 	0.40120 0.35013 0.97842 0.02600
C 	C 	0.43557 0.33420 0.95417 -0.01900
C 	C 	0.46980 0.39717 0.93541 -0.10100
C 	C 	0.45654 0.47191 0.93861 0.08900
C 	C 	0.38975 0.45564 0.01220 0.00000
H 	H 	0.44150 0.27500 0.95103 0.04400
C 	C 	0.48064 0.53576 0.91661 -0.19400
H 	H 	0.42328 0.54958 0.96719 0.04800
C 	C 	0.45260 0.47929 0.03248 0.02500
C 	C 	0.43693 0.50073 0.05921 -0.01400
C 	C 	0.53624 0.48189 0.02569 -0.17200
H 	H 	0.48408 0.51589 0.07510 0.04400
H 	H 	0.54459 0.57650 0.92010 0.05000
H 	H 	0.44195 0.57374 0.91704 0.06000
H 	H 	0.47345 0.50646 0.89577 0.05300
H 	H 	0.57985 0.50750 0.04315 0.06100
H 	H 	0.55895 0.52129 0.00762 0.06600
H 	H 	0.53484 0.41904 0.02090 0.06300
C 	C 	0.91760 0.24697 0.82960 -0.10400
C 	C 	0.94804 0.26557 0.80271 0.11000
N 	N 	0.92057 0.31146 0.78556 -0.20200
H 	H 	0.02447 0.24202 0.77211 0.03000
H 	H 	0.94301 0.32410 0.76569 0.07800
H 	H 	0.87718 0.33538 0.79173 0.09200
N 	N 	0.52970 0.19344 0.80136 -0.20000
H 	H 	0.51617 0.21538 0.78267 0.08200
H 	H 	0.58973 0.21546 0.80851 0.08100
C 	C 	0.81581 0.67243 0.77582 -0.04300
C 	C 	0.82046 0.61373 0.82086 -0.09500
C 	C 	0.78563 0.60693 0.79398 0.09400
N 	N 	0.72190 0.53905 0.78577 -0.19900
H 	H 	0.78905 0.66764 0.75528 0.05100
H 	H 	0.69855 0.53347 0.76560 0.07800
H 	H 	0.69313 0.49261 0.79947 0.07200
C 	C 	0.03491 0.10698 0.79603 0.27400
O 	O 	0.03792 0.79621 0.70149 -0.37500
O 	O 	0.83018 0.94629 0.31308 -0.37200
H 	H 	0.06454 0.44649 0.99754 0.05700
H 	H 	0.99397 0.37510 0.23934 0.04100
H 	H 	0.99496 0.87324 0.80798 0.05200
H 	H 	0.85160 0.49582 0.70608 0.03700
H 	H 	0.91686 0.51411 0.46585 0.06100
C 	C 	0.03098 0.42976 0.45234 -0.10200
C 	C 	0.00686 0.56853 0.66134 0.10300
H 	H 	0.08832 0.58813 0.62915 0.08200
C 	C 	0.93454 0.59358 0.94278 0.10100
N 	N 	0.94160 0.61210 0.74043 -0.19900
H 	H 	0.89035 0.56988 0.74920 0.08700
H 	H 	0.92430 0.64988 0.90412 0.07800
H 	H 	0.95468 0.72031 0.93295 0.06400
C 	C 	0.88358 0.68588 0.82914 -0.04300
H 	H 	0.91083 0.69052 0.84960 0.04700
H 	H 	0.85380 0.91438 0.37546 0.09000
O 	O 	0.96554 0.00958 0.32055 -0.41600
C 	C 	0.90698 0.86697 0.33040 -0.10400
C 	C 	0.92626 0.85531 0.35797 0.10400
H 	H 	0.06606 0.38415 0.38821 0.08400
H 	H 	0.97616 0.33905 0.40746 0.06700
C 	C 	0.96155 0.54859 0.06129 0.10600
C 	C 	0.89518 0.50774 0.08111 -0.20900
H 	H 	0.89345 0.55209 0.09750 0.08000
C 	C 	0.93850 0.43644 0.55116 -0.11400
H 	H 	0.11188 0.67815 0.66836 0.04700
C 	C 	0.00565 0.23354 0.79336 -0.06200
C 	C 	0.87793 0.74524 0.78433 -0.09800
C 	C 	0.91204 0.75220 0.81137 0.09200
N 	N 	0.97207 0.82220 0.82042 -0.19700
H 	H 	0.99671 0.82621 0.84037 0.07400
C 	C 	0.94508 0.32310 0.19944 -0.09600
Ni	Ni	0.02248 0.88940 0.72371 1.10100
O 	O 	0.91913 0.80924 0.74050 -0.37600
O 	O 	0.95501 0.90524 0.69124 -0.37000
O 	O 	0.96917 0.04176 0.79294 -0.41000
Ni	Ni	0.92636 0.99035 0.75447 1.06600
O 	O 	0.88813 0.88268 0.77480 -0.39800
C 	C 	0.90004 0.81658 0.76622 0.28700
Ni	Ni	0.92870 0.10725 0.23615 1.10200
O 	O 	0.86117 0.14149 0.26476 -0.70000
O 	O 	0.91363 0.17913 0.20529 -0.37600
O 	O 	0.91429 0.02083 0.26391 -0.70700
H 	H 	0.89107 0.19254 0.27532 0.15500
H 	H 	0.89363 0.96545 0.25512 0.15400
C 	C 	0.89493 0.24363 0.21083 0.30100
C 	C 	0.89930 0.94488 0.32294 0.28300
N 	N 	0.89511 0.28064 0.15302 -0.19900
H 	H 	0.90115 0.28709 0.13169 0.08000
H 	H 	0.84376 0.23483 0.16030 0.09600
N 	N 	0.89622 0.88650 0.37913 -0.20200
H 	H 	0.91309 0.88069 0.39953 0.07600
C 	C 	0.04175 0.41907 0.52198 -0.09700
C 	C 	0.02286 0.46583 0.50157 0.00100
C 	C 	0.96266 0.49973 0.50617 0.02200
C 	C 	0.00241 0.40691 0.54726 0.10100
C 	C 	0.94278 0.55186 0.48469 -0.16900
C 	C 	0.02932 0.36310 0.56987 -0.20700
H 	H 	0.97547 0.37750 0.45458 0.05200
H 	H 	0.98671 0.29867 0.57082 0.08500
H 	H 	0.03215 0.39459 0.59012 0.08000
H 	H 	0.99823 0.60379 0.47931 0.05900
N 	N 	0.01388 0.09700 0.67602 -0.20600
H 	H 	0.04103 0.05680 0.68323 0.07000
H 	H 	0.05042 0.15846 0.67362 0.07500
C 	C 	0.90879 0.53502 0.69795 -0.04200
C 	C 	0.05566 0.63761 0.67674 -0.03800
C 	C 	0.02983 0.65769 0.70203 -0.09800
C 	C 	0.95972 0.60204 0.71385 0.10600
C 	C 	0.97255 0.61449 0.96880 -0.09500
C 	C 	0.99016 0.55555 0.98430 0.00500
C 	C 	0.97830 0.47776 0.97233 0.02100
C 	C 	0.00816 0.57088 0.01412 0.00200
C 	C 	0.00408 0.41609 0.98754 -0.17100
H 	H 	0.98465 0.67530 0.97759 0.05000
C 	C 	0.94625 0.53622 0.03282 -0.09800
H 	H 	0.88641 0.49849 0.02515 0.05100
H 	H 	0.95945 0.38662 0.00353 0.05800
H 	H 	0.00841 0.36761 0.97326 0.05400
H 	H 	0.83491 0.48466 0.07050 0.06700
H 	H 	0.90600 0.45507 0.09073 0.07400
C 	C 	0.02849 0.17954 0.80976 -0.09200
C 	C 	0.01075 0.17538 0.83806 0.10200
C 	C 	0.95313 0.20684 0.84764 -0.04200
H 	H 	0.93457 0.19833 0.86892 0.01700
