data_crystal

_cell_length_a 17.82828
_cell_length_b 19.65198
_cell_length_c 26.39544
_cell_angle_alpha 95.42692
_cell_angle_beta  95.42609
_cell_angle_gamma 126.42365

_symmetry_space_group_name_	'P 1'
_symmetry_space_group_name_H-M	'P 1'

loop_
_symmetry_equiv_pos_as_xyz
  x,y,z

loop_
_atom_site_label
_atom_site_type_symbol
_atom_site_fract_x
_atom_site_fract_y
_atom_site_fract_z
_atom_site_charge
N 	N 	0.03445 0.94397 0.96540 -0.11400
C 	C 	0.09429 0.03000 0.96617 0.13800
N 	N 	0.06377 0.07833 0.97482 -0.11200
C 	C 	0.03420 0.00037 0.49013 0.16000
C 	C 	0.29128 0.09213 0.52793 -0.01400
C 	C 	0.32749 0.12902 0.48490 -0.08300
C 	C 	0.26605 0.12153 0.44303 0.11100
C 	C 	0.17107 0.08257 0.44623 -0.04900
C 	C 	0.13579 0.04814 0.48991 -0.01500
C 	C 	0.19587 0.05196 0.53069 0.07800
N 	N 	0.16054 0.01619 0.57535 -0.02600
H 	H 	0.33812 0.09780 0.56028 0.06800
H 	H 	0.12395 0.07686 0.41402 0.08100
N 	N 	0.29935 0.15152 0.39670 -0.02000
O 	O 	0.17210 0.96142 0.59057 -0.07100
O 	O 	0.12271 0.04278 0.60281 -0.08300
O 	O 	0.33790 0.12315 0.37163 -0.11400
O 	O 	0.28545 0.20274 0.37777 -0.08900
O 	O 	0.01643 0.10339 0.09702 -0.07200
C 	C 	0.34180 0.18197 0.93681 -0.01500
C 	C 	0.34009 0.08931 0.99253 0.11900
C 	C 	0.24323 0.04704 0.99130 -0.06900
C 	C 	0.19504 0.07194 0.96354 -0.00500
C 	C 	0.24397 0.13786 0.93462 0.07300
N 	N 	0.19433 0.15895 0.90209 -0.01800
H 	H 	0.37917 0.23342 0.91514 0.06600
H 	H 	0.20563 0.99524 0.01272 0.09300
O 	O 	0.22323 0.23797 0.90735 -0.08600
O 	O 	0.12423 0.10036 0.86501 -0.08600
N 	N 	0.38583 0.05996 0.01981 -0.02500
C 	C 	0.97361 0.04070 0.98233 0.12700
N 	N 	0.91417 0.95464 0.98187 -0.11000
C 	C 	0.94484 0.90636 0.97365 0.13900
C 	C 	0.90128 0.99841 0.49175 0.17400
N 	N 	0.99672 0.04311 0.49663 -0.14800
N 	N 	0.97643 0.91317 0.47908 -0.12100
C 	C 	0.88084 0.86842 0.47172 0.15200
N 	N 	0.84340 0.91125 0.47800 -0.13000
Cu	Cu	0.68624 0.26096 0.01026 0.93000
Cu	Cu	0.80532 0.30243 0.91523 0.89000
Cu	Cu	0.72829 0.39130 0.94099 0.89400
Cu	Cu	0.64839 0.39703 0.03373 0.89700
C 	C 	0.67410 0.31073 0.11365 0.29200
O 	O 	0.54312 0.19062 0.99754 -0.33100
C 	C 	0.72955 0.33998 0.83194 0.28800
O 	O 	0.74388 0.39145 0.01393 -0.64600
O 	O 	0.68928 0.27201 0.93658 -0.63500
O 	O 	0.75386 0.20855 0.01685 -0.35100
O 	O 	0.87046 0.30772 0.97804 -0.41400
O 	O 	0.62507 0.33509 0.09301 -0.37400
O 	O 	0.77671 0.51063 0.94931 -0.36600
C 	C 	0.75201 0.54858 0.97999 0.31400
C 	C 	0.49700 0.21611 0.97519 0.29300
O 	O 	0.54435 0.29635 0.96868 -0.38400
O 	O 	0.69326 0.50847 0.01216 -0.38400
O 	O 	0.70127 0.27361 0.08432 -0.35300
C 	C 	0.83242 0.23903 0.99903 0.31300
O 	O 	0.72991 0.39365 0.86654 -0.37000
O 	O 	0.75488 0.29263 0.84581 -0.38700
H 	H 	0.80886 0.43653 0.03381 0.16600
H 	H 	0.62996 0.22812 0.91135 0.18600
Cu	Cu	0.62367 0.23473 0.50803 0.92700
Cu	Cu	0.66839 0.19384 0.39652 0.89200
Cu	Cu	0.63730 0.34130 0.42736 0.91600
Cu	Cu	0.58860 0.37366 0.52708 0.90300
C 	C 	0.64656 0.31457 0.61185 0.29100
O 	O 	0.48304 0.16552 0.50995 -0.35300
C 	C 	0.66772 0.29939 0.33032 0.28900
O 	O 	0.67444 0.36056 0.50083 -0.63900
O 	O 	0.59671 0.22295 0.43156 -0.62800
O 	O 	0.71080 0.20139 0.51436 -0.35700
O 	O 	0.64741 0.11151 0.43609 -0.40500
O 	O 	0.59012 0.33264 0.59316 -0.37400
O 	O 	0.68433 0.45814 0.42578 -0.36900
C 	C 	0.67205 0.50491 0.45815 0.30500
C 	C 	0.43081 0.18491 0.48706 0.29700
O 	O 	0.47202 0.26006 0.47309 -0.37200
O 	O 	0.61996 0.47285 0.49428 -0.36200
O 	O 	0.66281 0.26834 0.58200 -0.35500
C 	C 	0.69758 0.13764 0.48282 0.30700
O 	O 	0.62023 0.32108 0.35264 -0.36500
O 	O 	0.72207 0.28739 0.35873 -0.40700
H 	H 	0.74233 0.40830 0.51454 0.17100
H 	H 	0.52852 0.17907 0.41650 0.17400
C 	C 	0.78154 0.36715 0.74749 -0.03100
C 	C 	0.70942 0.33919 0.77647 -0.07800
C 	C 	0.61728 0.30569 0.75163 0.09100
C 	C 	0.59821 0.29892 0.69782 -0.03300
C 	C 	0.66994 0.32550 0.66860 -0.07900
C 	C 	0.76309 0.36223 0.69384 0.08600
C 	C 	0.84261 0.39503 0.66382 -0.20000
H 	H 	0.85218 0.39275 0.76677 0.05300
H 	H 	0.52701 0.27157 0.67848 0.06100
C 	C 	0.53893 0.27617 0.78219 -0.20400
H 	H 	0.91309 0.43602 0.69003 0.08400
H 	H 	0.84176 0.43488 0.63695 0.07800
H 	H 	0.83486 0.33984 0.64134 0.09700
H 	H 	0.55637 0.33183 0.81000 0.09600
H 	H 	0.53012 0.22677 0.80382 0.08100
H 	H 	0.46981 0.24719 0.75664 0.08900
C 	C 	0.75635 0.34778 0.25797 -0.03100
C 	C 	0.66900 0.29848 0.27450 -0.09000
C 	C 	0.58361 0.24736 0.23750 0.08700
C 	C 	0.58682 0.25093 0.18486 -0.03400
C 	C 	0.67395 0.30215 0.16845 -0.07700
C 	C 	0.75953 0.34991 0.20510 0.08000
C 	C 	0.85404 0.40448 0.18819 -0.19800
H 	H 	0.82184 0.38559 0.28636 0.05700
H 	H 	0.52127 0.21434 0.15658 0.06900
C 	C 	0.48891 0.18991 0.25387 -0.20200
H 	H 	0.91420 0.43892 0.22166 0.08200
H 	H 	0.85837 0.45343 0.16795 0.07300
H 	H 	0.86253 0.36317 0.16160 0.08800
H 	H 	0.46991 0.22964 0.27220 0.10100
H 	H 	0.49158 0.15210 0.28174 0.07300
H 	H 	0.43166 0.14320 0.22023 0.09000
C 	C 	0.79557 0.64024 0.43001 -0.01400
C 	C 	0.71405 0.59440 0.45216 -0.08100
C 	C 	0.67831 0.63693 0.47229 0.11600
C 	C 	0.73225 0.72643 0.47751 -0.05500
C 	C 	0.81794 0.77331 0.45916 -0.01000
C 	C 	0.84566 0.72875 0.43176 0.07600
N 	N 	0.92242 0.77254 0.40418 -0.01700
H 	H 	0.82063 0.60737 0.41173 0.06900
H 	H 	0.70744 0.75941 0.49599 0.09200
N 	N 	0.58547 0.58912 0.48493 -0.02100
O 	O 	0.99206 0.76769 0.41251 -0.09100
O 	O 	0.91967 0.81266 0.36842 -0.08600
O 	O 	0.57393 0.60929 0.53037 -0.08400
O 	O 	0.51172 0.53036 0.44962 -0.08100
C 	C 	0.73573 0.05012 0.52295 -0.00900
C 	C 	0.76089 0.11424 0.49376 -0.08800
C 	C 	0.84045 0.14818 0.46971 0.10200
C 	C 	0.88932 0.11289 0.47163 -0.04600
C 	C 	0.86016 0.04456 0.49781 -0.03100
C 	C 	0.78563 0.01570 0.52564 0.06900
N 	N 	0.76079 0.95178 0.55678 -0.01300
H 	H 	0.67616 0.02565 0.54267 0.06200
H 	H 	0.94806 0.13679 0.45129 0.07400
N 	N 	0.87002 0.21689 0.44196 -0.03200
O 	O 	0.82497 0.96381 0.59263 -0.07600
O 	O 	0.67302 0.88374 0.55114 -0.08300
O 	O 	0.89249 0.28958 0.46548 -0.12400
O 	O 	0.87975 0.20852 0.39406 -0.11900
C 	C 	0.83844 0.75319 0.92940 -0.05600
C 	C 	0.88268 0.81405 0.97569 -0.00400
C 	C 	0.87758 0.78661 0.02351 0.07000
C 	C 	0.83181 0.69920 0.02453 -0.01700
C 	C 	0.79088 0.63866 0.97819 -0.07900
C 	C 	0.79173 0.66556 0.93036 0.11500
N 	N 	0.74446 0.60406 0.88277 -0.02100
H 	H 	0.84140 0.77404 0.89257 0.08100
H 	H 	0.83032 0.67879 0.06141 0.06100
N 	N 	0.92187 0.84778 0.07110 -0.02000
O 	O 	0.65408 0.54129 0.87576 -0.09400
O 	O 	0.79050 0.61388 0.84527 -0.09100
O 	O 	0.88928 0.88926 0.08544 -0.06700
O 	O 	0.99028 0.85741 0.10184 -0.09000
C 	C 	0.92486 0.12239 0.94415 -0.05400
C 	C 	0.93857 0.09210 0.98732 -0.00100
C 	C 	0.91738 0.11003 0.03464 0.06700
C 	C 	0.88230 0.15782 0.03806 -0.01000
C 	C 	0.86858 0.18815 0.99477 -0.08800
C 	C 	0.88812 0.16855 0.94724 0.10900
N 	N 	0.86513 0.19064 0.90130 -0.03700
H 	H 	0.94002 0.10780 0.90758 0.08300
H 	H 	0.86708 0.17237 0.07460 0.06700
N 	N 	0.93253 0.08088 0.07945 -0.02200
O 	O 	0.93233 0.24550 0.87835 -0.11900
O 	O 	0.77681 0.14914 0.87942 -0.14300
O 	O 	0.86450 0.03795 0.10516 -0.08600
C 	C 	0.39135 0.16003 0.96685 -0.08500
O 	O 	0.40712 0.07865 0.07014 -0.10000
O 	O 	0.39591 0.00638 0.99482 -0.08500
