data_crystal

_cell_length_a 35.07909
_cell_length_b 35.83307
_cell_length_c 35.18649
_cell_angle_alpha 95.49509
_cell_angle_beta  95.49158
_cell_angle_gamma 125.37332

_symmetry_space_group_name_	'P 1'
_symmetry_space_group_name_H-M	'P 1'

loop_
_symmetry_equiv_pos_as_xyz
  x,y,z

loop_
_atom_site_label
_atom_site_type_symbol
_atom_site_fract_x
_atom_site_fract_y
_atom_site_fract_z
_atom_site_charge
C 	C 	0.98193 0.02578 0.99007 0.13300
N 	N 	0.02941 0.05078 0.99039 -0.13900
C 	C 	0.05019 0.02867 0.98691 0.13400
N 	N 	0.02356 0.98168 0.98313 -0.13800
C 	C 	0.97616 0.95670 0.98279 0.13500
N 	N 	0.95529 0.97872 0.98628 -0.13800
C 	C 	0.94897 0.99355 0.44515 0.13700
N 	N 	0.99685 0.01992 0.44744 -0.14000
C 	C 	0.02014 0.00030 0.45106 0.13400
N 	N 	0.99558 0.95433 0.45241 -0.13900
C 	C 	0.94773 0.92787 0.45014 0.13400
N 	N 	0.92433 0.94745 0.44649 -0.14000
Cu	Cu	0.66619 0.27742 0.99730 0.92900
Cu	Cu	0.69680 0.27286 0.91302 0.86700
Cu	Cu	0.68206 0.34244 0.94076 0.89700
Cu	Cu	0.67208 0.36798 0.02164 0.89600
C 	C 	0.67683 0.31147 0.07719 0.29400
O 	O 	0.59817 0.25048 0.00198 -0.37000
C 	C 	0.66471 0.30743 0.85749 0.28300
O 	O 	0.70364 0.34881 0.99476 -0.63800
O 	O 	0.65301 0.27544 0.94105 -0.64200
O 	O 	0.69478 0.24313 0.99545 -0.37100
O 	O 	0.74367 0.28693 0.95545 -0.44100
O 	O 	0.68169 0.35002 0.07188 -0.37900
O 	O 	0.71561 0.40860 0.94220 -0.37700
C 	C 	0.71812 0.43775 0.97005 0.31000
C 	C 	0.57842 0.27075 0.99194 0.31000
O 	O 	0.60437 0.31299 0.98454 -0.39000
O 	O 	0.69132 0.42280 0.99683 -0.38900
O 	O 	0.68749 0.29061 0.05204 -0.36400
C 	C 	0.73276 0.25849 0.98008 0.31200
O 	O 	0.66146 0.33308 0.88477 -0.37100
O 	O 	0.66530 0.27236 0.86512 -0.41600
H 	H 	0.73869 0.36881 0.00296 0.16500
H 	H 	0.61917 0.25416 0.92807 0.17800
Cu	Cu	0.72150 0.33125 0.44098 0.92900
Cu	Cu	0.71714 0.29065 0.52117 0.86700
Cu	Cu	0.65031 0.30978 0.49414 0.89600
Cu	Cu	0.63224 0.33026 0.41733 0.89500
C 	C 	0.68363 0.31742 0.36055 0.29100
O 	O 	0.74855 0.39919 0.44148 -0.35500
C 	C 	0.68028 0.31960 0.57749 0.28400
O 	O 	0.64783 0.29405 0.43980 -0.64200
O 	O 	0.71909 0.33797 0.49684 -0.64200
O 	O 	0.75614 0.30259 0.44204 -0.36800
O 	O 	0.70597 0.24927 0.47630 -0.44100
O 	O 	0.66440 0.33827 0.37168 -0.38100
O 	O 	0.58233 0.27753 0.48992 -0.37900
C 	C 	0.55375 0.27562 0.46120 0.31000
C 	C 	0.72853 0.41741 0.45640 0.30100
O 	O 	0.68466 0.39008 0.46208 -0.39300
O 	O 	0.57024 0.30267 0.43501 -0.39200
O 	O 	0.71182 0.31454 0.38576 -0.35600
C 	C 	0.73801 0.26298 0.45411 0.31000
O 	O 	0.65636 0.32547 0.55028 -0.37200
O 	O 	0.71510 0.31706 0.57030 -0.41600
H 	H 	0.62670 0.26027 0.42882 0.16400
H 	H 	0.74066 0.36993 0.51238 0.17800
C 	C 	0.70944 0.34617 0.68717 -0.04200
C 	C 	0.66402 0.32571 0.69683 0.02000
C 	C 	0.62457 0.30757 0.66735 -0.05700
C 	C 	0.62927 0.30604 0.62821 0.02200
C 	C 	0.67464 0.32533 0.61842 -0.07900
C 	C 	0.71462 0.34684 0.64826 0.00800
C 	C 	0.65696 0.31992 0.73738 0.02000
C 	C 	0.67642 0.35937 0.76618 -0.05700
C 	C 	0.67830 0.35591 0.80556 0.02200
C 	C 	0.65781 0.31182 0.81630 -0.07900
C 	C 	0.63438 0.27185 0.78710 0.00800
C 	C 	0.63482 0.27575 0.74792 -0.04200
C 	C 	0.70354 0.39803 0.83455 0.07500
C 	C 	0.61403 0.23445 0.71883 0.08400
C 	C 	0.75069 0.36508 0.71693 0.08400
C 	C 	0.58706 0.28248 0.59847 0.07500
N 	N 	0.72382 0.43189 0.85765 -0.10500
N 	N 	0.59739 0.20138 0.69551 -0.12100
N 	N 	0.55316 0.26357 0.57473 -0.10600
N 	N 	0.78370 0.38021 0.74078 -0.12100
H 	H 	0.74970 0.36285 0.64108 0.03900
H 	H 	0.58977 0.29256 0.67482 0.05300
H 	H 	0.69253 0.39321 0.75800 0.05300
H 	H 	0.61722 0.23776 0.79498 0.04000
C 	C 	0.65044 0.25941 0.25567 -0.04100
C 	C 	0.68062 0.29783 0.23825 0.02200
C 	C 	0.71431 0.34184 0.26158 -0.05900
C 	C 	0.71692 0.34821 0.30186 0.02800
C 	C 	0.68531 0.31024 0.31910 -0.07800
C 	C 	0.65291 0.26584 0.29601 0.00800
C 	C 	0.67516 0.29311 0.19543 0.02100
C 	C 	0.63841 0.29213 0.17451 -0.05800
C 	C 	0.63692 0.29514 0.13508 0.02400
C 	C 	0.67304 0.30002 0.11644 -0.07800
C 	C 	0.70799 0.29786 0.13671 0.01200
C 	C 	0.70910 0.29426 0.17605 -0.04100
C 	C 	0.59799 0.29276 0.11384 0.06800
C 	C 	0.74544 0.29225 0.19644 0.09100
C 	C 	0.61676 0.21343 0.23236 0.08800
C 	C 	0.75181 0.39392 0.32531 0.07900
N 	N 	0.56681 0.29084 0.09681 -0.11600
N 	N 	0.77454 0.29063 0.21281 -0.11500
N 	N 	0.77973 0.43051 0.34412 -0.10700
N 	N 	0.58977 0.17660 0.21365 -0.11700
H 	H 	0.62899 0.23651 0.30934 0.03000
H 	H 	0.73788 0.37129 0.24823 0.05400
H 	H 	0.61163 0.29014 0.18920 0.05200
H 	H 	0.73522 0.30057 0.12224 0.04500
C 	C 	0.87846 0.78948 0.45260 0.01400
C 	C 	0.87199 0.75975 0.41964 -0.03900
C 	C 	0.85286 0.71327 0.42104 -0.03700
C 	C 	0.84002 0.69616 0.45545 0.00600
C 	C 	0.84578 0.72578 0.48825 -0.03700
C 	C 	0.86496 0.77231 0.48681 -0.03900
C 	C 	0.82071 0.64731 0.45711 0.01100
C 	C 	0.77790 0.61078 0.43267 -0.04300
C 	C 	0.76031 0.56453 0.43339 -0.02800
C 	C 	0.78532 0.55444 0.45855 -0.00700
C 	C 	0.82793 0.59082 0.48318 -0.02900
C 	C 	0.84561 0.63715 0.48247 -0.04300
C 	C 	0.76702 0.50666 0.45901 0.04800
C 	C 	0.75038 0.46619 0.45840 -0.10400
C 	C 	0.90215 0.83832 0.45213 0.00600
C 	C 	0.92204 0.87910 0.45123 -0.03800
H 	H 	0.88248 0.77283 0.39314 0.04400
H 	H 	0.84855 0.69070 0.39556 0.04200
H 	H 	0.83562 0.71282 0.51484 0.04100
H 	H 	0.86993 0.79510 0.51243 0.04400
H 	H 	0.75833 0.61824 0.41310 0.04300
H 	H 	0.72727 0.53657 0.41434 0.04100
H 	H 	0.84743 0.58328 0.50275 0.04100
H 	H 	0.87879 0.66510 0.50135 0.04300
C 	C 	0.79132 0.18855 0.43615 -0.01000
C 	C 	0.84014 0.21010 0.44727 -0.02900
C 	C 	0.85757 0.18351 0.44506 -0.04400
C 	C 	0.82625 0.13514 0.43168 0.01100
C 	C 	0.77753 0.11380 0.41968 -0.04400
C 	C 	0.76014 0.14044 0.42194 -0.02900
C 	C 	0.84429 0.10672 0.43151 0.00600
C 	C 	0.87820 0.11453 0.40882 -0.03700
C 	C 	0.89743 0.08959 0.41050 -0.03900
C 	C 	0.88287 0.05667 0.43483 0.01300
C 	C 	0.84826 0.04808 0.45688 -0.03900
C 	C 	0.82901 0.07302 0.45525 -0.03800
C 	C 	0.90535 0.03360 0.43872 0.00700
C 	C 	0.92458 0.01465 0.44159 -0.04000
C 	C 	0.77278 0.21514 0.44203 0.04900
C 	C 	0.75709 0.23725 0.44690 -0.11700
H 	H 	0.86445 0.24726 0.45833 0.03900
H 	H 	0.89523 0.20032 0.45442 0.04300
H 	H 	0.75311 0.07657 0.40904 0.04300
H 	H 	0.72236 0.12354 0.41328 0.04000
H 	H 	0.89002 0.14025 0.39023 0.04200
H 	H 	0.92412 0.09637 0.39332 0.04400
H 	H 	0.83682 0.02267 0.47575 0.04400
H 	H 	0.80291 0.06676 0.47293 0.04000
C 	C 	0.16399 0.07786 0.45795 0.01300
C 	C 	0.19117 0.07220 0.48534 -0.03900
C 	C 	0.24028 0.09728 0.48718 -0.03700
C 	C 	0.26251 0.12818 0.46160 0.00600
C 	C 	0.23528 0.13407 0.43438 -0.03700
C 	C 	0.18616 0.10897 0.43259 -0.03900
C 	C 	0.31416 0.15389 0.46296 0.01100
C 	C 	0.33342 0.12964 0.45442 -0.04300
C 	C 	0.38226 0.15408 0.45494 -0.02900
C 	C 	0.41209 0.20286 0.46397 -0.00700
C 	C 	0.39299 0.22712 0.47283 -0.02800
C 	C 	0.34418 0.20274 0.47234 -0.04300
C 	C 	0.46207 0.22812 0.46307 0.04900
C 	C 	0.50396 0.24961 0.46240 -0.10200
C 	C 	0.11321 0.05087 0.45528 0.00600
C 	C 	0.07073 0.02808 0.45334 -0.03800
H 	H 	0.17425 0.04821 0.50504 0.04400
H 	H 	0.26103 0.09266 0.50840 0.04200
H 	H 	0.25210 0.15775 0.41445 0.04100
H 	H 	0.16535 0.11348 0.41132 0.04400
H 	H 	0.31052 0.09194 0.44706 0.04300
H 	H 	0.39679 0.13511 0.44803 0.04000
H 	H 	0.41587 0.26485 0.47985 0.04200
H 	H 	0.32967 0.22175 0.47916 0.04300
C 	C 	0.89976 0.81585 0.97334 0.01500
C 	C 	0.87099 0.78591 0.93803 -0.03900
C 	C 	0.84791 0.73793 0.93456 -0.03800
C 	C 	0.85353 0.71968 0.96640 0.00800
C 	C 	0.88181 0.74967 0.00188 -0.03900
C 	C 	0.90486 0.79761 0.00531 -0.04100
C 	C 	0.82987 0.66922 0.96267 0.01100
C 	C 	0.78004 0.63811 0.95596 -0.04300
C 	C 	0.75769 0.59061 0.95515 -0.02800
C 	C 	0.78499 0.57395 0.96103 -0.00600
C 	C 	0.83471 0.60477 0.96664 -0.02900
C 	C 	0.85712 0.65228 0.96744 -0.04300
C 	C 	0.76212 0.52590 0.96394 0.05000
C 	C 	0.74238 0.48556 0.96630 -0.10200
C 	C 	0.92606 0.86545 0.97624 0.00700
C 	C 	0.94832 0.90707 0.97915 -0.03800
H 	H 	0.86696 0.79982 0.91318 0.04400
H 	H 	0.82607 0.71502 0.90707 0.04200
H 	H 	0.88602 0.73585 0.02672 0.04100
H 	H 	0.92707 0.82058 0.03269 0.04400
H 	H 	0.75872 0.65086 0.95220 0.04300
H 	H 	0.71921 0.56694 0.95074 0.04300
H 	H 	0.85602 0.59209 0.97110 0.04000
H 	H 	0.89561 0.67601 0.97231 0.04300
C 	C 	0.91884 0.09181 0.99861 0.01600
C 	C 	0.94601 0.13913 0.01549 -0.04200
C 	C 	0.92474 0.16219 0.01717 -0.03600
C 	C 	0.87614 0.13801 0.00194 0.00400
C 	C 	0.84888 0.09046 0.98551 -0.03500
C 	C 	0.87018 0.06745 0.98388 -0.04100
C 	C 	0.85416 0.16278 0.00187 0.00900
C 	C 	0.86928 0.19850 0.98034 -0.04200
C 	C 	0.84610 0.21962 0.97788 -0.03100
C 	C 	0.80767 0.20519 0.99688 -0.00800
C 	C 	0.79331 0.17038 0.01924 -0.03100
C 	C 	0.81650 0.14924 0.02176 -0.04300
C 	C 	0.78120 0.22403 0.99146 0.05000
C 	C 	0.75929 0.24005 0.98671 -0.11800
C 	C 	0.94110 0.06850 0.99566 0.00500
C 	C 	0.95978 0.04902 0.99320 -0.03700
H 	H 	0.98363 0.15813 0.02702 0.04400
H 	H 	0.94604 0.19884 0.03004 0.04100
H 	H 	0.81138 0.07154 0.97354 0.04000
H 	H 	0.84896 0.03084 0.97084 0.04400
H 	H 	0.89830 0.20917 0.96487 0.04200
H 	H 	0.85742 0.24656 0.96059 0.03800
H 	H 	0.76369 0.15914 0.03410 0.04300
H 	H 	0.80479 0.12193 0.03868 0.04300
C 	C 	0.19260 0.10012 0.98879 0.01500
C 	C 	0.21927 0.09319 0.01546 -0.04100
C 	C 	0.26746 0.11464 0.01497 -0.03900
C 	C 	0.28927 0.14316 0.98775 0.00800
C 	C 	0.26266 0.15057 0.96140 -0.03800
C 	C 	0.21444 0.12909 0.96193 -0.03900
C 	C 	0.33987 0.16510 0.98680 0.01100
C 	C 	0.35525 0.13737 0.97783 -0.04300
C 	C 	0.40348 0.15817 0.97803 -0.02800
C 	C 	0.43656 0.20675 0.98716 -0.00800
C 	C 	0.42120 0.23449 0.99576 -0.02600
C 	C 	0.37301 0.21375 0.99558 -0.04100
C 	C 	0.48637 0.22818 0.98846 0.05300
C 	C 	0.52828 0.24702 0.98977 -0.10700
C 	C 	0.14236 0.07565 0.98778 0.00600
C 	C 	0.10033 0.05483 0.98741 -0.03800
H 	H 	0.20258 0.07082 0.03630 0.04400
H 	H 	0.28782 0.10901 0.03562 0.04200
H 	H 	0.27922 0.17257 0.94031 0.04200
H 	H 	0.19399 0.13453 0.94119 0.04400
H 	H 	0.32988 0.09977 0.97084 0.04300
H 	H 	0.41512 0.13652 0.97130 0.04100
H 	H 	0.44662 0.27209 0.00284 0.04000
H 	H 	0.36148 0.23542 0.00263 0.04200
