data_crystal

_cell_length_a 17.11745
_cell_length_b 17.62339
_cell_length_c 36.95406
_cell_angle_alpha 60.52254
_cell_angle_beta  119.21628
_cell_angle_gamma 133.26006

_symmetry_space_group_name_	'P 1'
_symmetry_space_group_name_H-M	'P 1'

loop_
_symmetry_equiv_pos_as_xyz
  x,y,z

loop_
_atom_site_label
_atom_site_type_symbol
_atom_site_fract_x
_atom_site_fract_y
_atom_site_fract_z
_atom_site_charge
C 	C 	0.80177 0.38975 0.98363 0.00400
C 	C 	0.85238 0.50075 0.96935 -0.04900
C 	C 	0.80559 0.54213 0.96943 0.02500
C 	C 	0.70169 0.47168 0.97819 -0.05800
C 	C 	0.65758 0.36322 0.99688 0.02100
C 	C 	0.70430 0.32096 0.99767 -0.03600
H 	H 	0.93301 0.55521 0.96248 0.05600
H 	H 	0.66495 0.50397 0.97747 0.05500
H 	H 	0.66934 0.23609 0.01185 0.04200
C 	C 	0.63475 0.24793 0.49221 0.00500
C 	C 	0.52112 0.20091 0.48073 -0.04400
C 	C 	0.48401 0.24359 0.48681 0.00200
C 	C 	0.56000 0.34130 0.49772 -0.04500
C 	C 	0.67052 0.38054 0.51437 0.00600
C 	C 	0.70960 0.33683 0.51023 -0.04600
H 	H 	0.46163 0.12527 0.47152 0.05700
H 	H 	0.53082 0.37624 0.50065 0.05100
H 	H 	0.79587 0.36702 0.52346 0.05300
C 	C 	0.35706 0.65670 0.17791 0.00700
C 	C 	0.46434 0.71027 0.17510 -0.05200
C 	C 	0.49480 0.65253 0.17598 0.00500
C 	C 	0.42305 0.54059 0.18495 -0.05200
C 	C 	0.31323 0.48803 0.18321 0.01000
C 	C 	0.28186 0.54478 0.18238 -0.05300
H 	H 	0.51949 0.79746 0.16768 0.04000
H 	H 	0.44697 0.49626 0.18584 0.05200
H 	H 	0.19628 0.50430 0.18052 0.04800
C 	C 	0.21601 0.55501 0.68151 0.00600
C 	C 	0.32579 0.58743 0.69864 -0.05300
C 	C 	0.35509 0.53023 0.69821 0.00600
C 	C 	0.27187 0.42971 0.68900 -0.05100
C 	C 	0.16422 0.40016 0.66873 0.00100
C 	C 	0.13509 0.46169 0.66562 -0.05300
H 	H 	0.39025 0.66424 0.70701 0.04300
H 	H 	0.29423 0.38303 0.69084 0.05200
H 	H 	0.05215 0.44028 0.64924 0.04300
Co	Co	0.08986 0.90076 0.08439 1.15800
Co	Co	0.07265 0.15273 0.07064 1.17800
Co	Co	0.95923 0.92900 0.11446 1.17200
Co	Co	0.21861 0.13128 0.04670 1.18200
C 	C 	0.00510 0.81365 0.00782 0.22100
Co	Co	0.24562 0.98292 0.03031 1.13900
Co	Co	0.86047 0.05102 0.09876 1.18900
C 	C 	0.43353 0.16333 0.06907 0.31200
O 	O 	0.88112 0.96793 0.16290 -0.43100
O 	O 	0.95744 0.03823 0.08646 -0.71300
C 	C 	0.96948 0.96865 0.18716 0.34400
O 	O 	0.99952 0.83286 0.12572 -0.46100
O 	O 	0.21455 0.23572 0.05395 -0.46800
C 	C 	0.09308 0.22812 0.13290 0.28800
O 	O 	0.05386 0.01974 0.06385 -0.56700
C 	C 	0.71935 0.82169 0.10695 0.32400
C 	C 	0.23046 0.82884 0.11506 0.31500
C 	C 	0.22616 0.15627 0.96205 0.31300
O 	O 	0.02436 0.96776 0.17174 -0.46300
O 	O 	0.20646 0.83763 0.07447 -0.42100
O 	O 	0.20665 0.86879 0.12728 -0.40900
O 	O 	0.99180 0.20049 0.11278 -0.37300
O 	O 	0.13431 0.19585 0.12620 -0.40000
O 	O 	0.72863 0.90940 0.08138 -0.41800
O 	O 	0.79071 0.80628 0.11295 -0.38400
O 	O 	0.29238 0.12660 0.98382 -0.38700
O 	O 	0.20045 0.18072 0.98107 -0.38500
O 	O 	0.17278 0.00604 0.05201 -0.73800
C 	C 	0.91295 0.21732 0.01868 0.35200
O 	O 	0.83584 0.11967 0.03423 -0.38300
O 	O 	0.01116 0.24405 0.02428 -0.40600
O 	O 	0.09121 0.90230 0.99196 -0.39500
O 	O 	0.99242 0.79620 0.04484 -0.34700
O 	O 	0.38908 0.06332 0.07366 -0.36900
O 	O 	0.38363 0.18678 0.07603 -0.38100
Co	Co	0.95516 0.77184 0.61480 1.18800
Co	Co	0.88979 0.01473 0.56151 1.20300
Co	Co	0.84700 0.83994 0.63741 1.18000
Co	Co	0.98957 0.94486 0.53556 1.17400
C 	C 	0.87233 0.58496 0.59084 0.33300
Co	Co	0.04758 0.78995 0.54951 1.15700
Co	Co	0.72791 0.95308 0.60862 1.15400
C 	C 	0.19046 0.02728 0.51885 0.39500
O 	O 	0.80247 0.93165 0.67386 -0.41900
O 	O 	0.81026 0.92113 0.59711 -0.77200
C 	C 	0.90768 0.97050 0.68820 0.25900
O 	O 	0.90981 0.75478 0.66145 -0.46200
O 	O 	0.97940 0.06393 0.52375 -0.43400
C 	C 	0.95655 0.16117 0.60575 0.34100
O 	O 	0.88125 0.86607 0.57880 -0.58800
C 	C 	0.62262 0.72438 0.65155 0.31800
C 	C 	0.16398 0.78447 0.63869 0.30300
C 	C 	0.90032 0.82678 0.46968 0.31900
O 	O 	0.94789 0.94503 0.67657 -0.40000
O 	O 	0.18186 0.83993 0.60024 -0.40800
O 	O 	0.10485 0.78555 0.65206 -0.39400
O 	O 	0.85043 0.11861 0.59408 -0.39600
O 	O 	0.99408 0.12711 0.59752 -0.38200
O 	O 	0.60663 0.79166 0.61786 -0.39500
O 	O 	0.69908 0.71495 0.65793 -0.37600
O 	O 	0.90557 0.74931 0.50143 -0.38700
O 	O 	0.91171 0.90153 0.47700 -0.39000
O 	O 	0.98797 0.83505 0.56712 -0.75400
C 	C 	0.70362 0.04460 0.51720 0.37700
O 	O 	0.64948 0.95947 0.54512 -0.44300
O 	O 	0.78918 0.06530 0.51259 -0.36800
O 	O 	0.97467 0.64036 0.59089 -0.40000
O 	O 	0.84286 0.62024 0.60265 -0.38200
O 	O 	0.12983 0.93768 0.50813 -0.46900
O 	O 	0.15638 0.03923 0.53964 -0.39900
C 	C 	0.97692 0.02940 0.72234 -0.06200
C 	C 	0.95647 0.09185 0.72553 0.17000
C 	C 	0.01434 0.13396 0.76128 -0.16700
C 	C 	0.08692 0.11079 0.79499 0.03800
C 	C 	0.11207 0.05385 0.79116 0.04100
C 	C 	0.05836 0.01557 0.75442 0.02000
N 	N 	0.88147 0.11128 0.69479 -0.20400
H 	H 	0.99843 0.18084 0.76387 0.09900
C 	C 	0.12152 0.13159 0.83629 -0.02600
N 	N 	0.18641 0.03447 0.82275 -0.15600
H 	H 	0.07626 0.97033 0.75187 0.00100
C 	C 	0.04445 0.06377 0.86126 -0.04500
C 	C 	0.07250 0.08196 0.90008 0.10000
C 	C 	0.18242 0.16390 0.91588 -0.10100
C 	C 	0.25709 0.23680 0.88947 -0.02700
C 	C 	0.22680 0.22277 0.84924 0.07100
H 	H 	0.96181 0.99735 0.85013 0.02900
N 	N 	0.99387 0.02019 0.92214 -0.14100
H 	H 	0.34049 0.30169 0.90107 0.04700
N 	N 	0.29933 0.29593 0.82362 -0.19400
H 	H 	0.91408 0.95671 0.91118 0.06000
H 	H 	0.00992 0.03655 0.94950 0.08600
H 	H 	0.37745 0.36210 0.83378 0.08800
H 	H 	0.27847 0.28905 0.79318 0.09200
H 	H 	0.20329 0.99104 0.81990 0.04500
H 	H 	0.22907 0.06320 0.85012 0.09500
H 	H 	0.84949 0.09792 0.66476 0.09700
H 	H 	0.86087 0.14878 0.69968 0.09900
C 	C 	0.91343 0.84718 0.42842 -0.15200
C 	C 	0.85804 0.88300 0.38861 0.15300
C 	C 	0.88087 0.90911 0.35071 -0.13100
C 	C 	0.95235 0.89357 0.35182 0.06300
C 	C 	0.00610 0.85610 0.39150 -0.03800
C 	C 	0.98545 0.83256 0.42927 0.08200
N 	N 	0.77909 0.88702 0.38627 -0.20900
H 	H 	0.83901 0.93686 0.32011 0.06100
C 	C 	0.96356 0.90862 0.31116 -0.03800
N 	N 	0.07721 0.84200 0.39357 -0.17700
H 	H 	0.02657 0.80345 0.45965 -0.02000
C 	C 	0.05115 0.00780 0.29357 -0.06500
C 	C 	0.06624 0.02340 0.25577 0.15400
C 	C 	0.98764 0.94137 0.23366 -0.14500
C 	C 	0.90614 0.83944 0.25315 -0.01200
C 	C 	0.89227 0.82234 0.29151 0.07100
H 	H 	0.10901 0.07206 0.30983 0.06000
N 	N 	0.15708 0.11620 0.24129 -0.20900
H 	H 	0.84796 0.77539 0.23674 0.04500
N 	N 	0.80943 0.72380 0.30883 -0.19300
H 	H 	0.21202 0.17918 0.25635 0.09300
H 	H 	0.17713 0.12407 0.21654 0.11300
H 	H 	0.75685 0.66100 0.29385 0.08900
H 	H 	0.79621 0.70828 0.33719 0.09400
H 	H 	0.11566 0.81322 0.42309 0.07100
H 	H 	0.09595 0.86017 0.36616 0.07200
H 	H 	0.74850 0.85337 0.41278 0.09600
H 	H 	0.74255 0.91838 0.35698 0.08200
C 	C 	0.09025 0.31752 0.64552 0.05100
C 	C 	0.03172 0.24760 0.62685 -0.13700
C 	C 	0.53984 0.64597 0.67561 -0.10500
C 	C 	0.45984 0.58983 0.68956 0.04400
C 	C 	0.19295 0.63036 0.67131 0.03600
C 	C 	0.17842 0.69858 0.65958 -0.11000
C 	C 	0.23064 0.39043 0.16889 0.03700
C 	C 	0.16655 0.31391 0.15373 -0.09900
C 	C 	0.64575 0.75452 0.13473 -0.11800
C 	C 	0.58010 0.70706 0.15527 0.04500
C 	C 	0.31501 0.71864 0.16314 0.03800
C 	C 	0.27720 0.77000 0.14522 -0.11000
C 	C 	0.66970 0.18842 0.49601 0.06100
C 	C 	0.69096 0.12896 0.50271 -0.11600
C 	C 	0.79281 0.50800 0.56583 -0.11400
C 	C 	0.73692 0.44922 0.54262 0.05700
C 	C 	0.37851 0.17361 0.49626 0.07000
C 	C 	0.29285 0.11165 0.50677 -0.12300
C 	C 	0.85829 0.34728 0.99143 0.07700
C 	C 	0.89357 0.29739 0.00166 -0.12700
C 	C 	0.87673 0.64558 0.97736 0.01700
C 	C 	0.93472 0.72551 0.98927 -0.03900
C 	C 	0.57985 0.30087 0.02241 0.03700
C 	C 	0.51484 0.24415 0.04429 -0.10600
