data_crystal

_cell_length_a 40.27594
_cell_length_b 44.76247
_cell_length_c 22.66924
_cell_angle_alpha 89.95135
_cell_angle_beta  89.96656
_cell_angle_gamma 89.84480

_symmetry_space_group_name_	'P 1'
_symmetry_space_group_name_H-M	'P 1'

loop_
_symmetry_equiv_pos_as_xyz
  x,y,z

loop_
_atom_site_label
_atom_site_type_symbol
_atom_site_fract_x
_atom_site_fract_y
_atom_site_fract_z
_atom_site_charge
C 	C 	0.51359 0.52374 0.92611 0.02000
C 	C 	0.53167 0.49641 0.92848 0.01900
C 	C 	0.47875 0.52334 0.92313 -0.05000
C 	C 	0.46170 0.49600 0.92327 0.02100
C 	C 	0.51467 0.46905 0.92648 -0.04900
C 	C 	0.47979 0.46865 0.92427 0.01800
H 	H 	0.52851 0.44829 0.92454 0.06000
H 	H 	0.46507 0.54408 0.91858 0.06200
C 	C 	0.46207 0.44151 0.92072 -0.01000
C 	C 	0.42727 0.44091 0.92261 0.01500
C 	C 	0.41428 0.41302 0.94186 -0.04500
C 	C 	0.43916 0.39230 0.95630 0.00500
S 	S 	0.47590 0.40839 0.94410 0.02100
H 	H 	0.38804 0.40803 0.94424 0.06000
C 	C 	0.42671 0.49500 0.91965 -0.01400
C 	C 	0.40945 0.46783 0.92208 0.01800
C 	C 	0.37593 0.47102 0.94103 -0.04600
C 	C 	0.36770 0.50059 0.95506 0.00500
S 	S 	0.40105 0.52188 0.94276 0.03300
H 	H 	0.35833 0.45283 0.94276 0.05700
C 	C 	0.56599 0.55158 0.93017 0.01800
C 	C 	0.53138 0.55086 0.92414 -0.01100
S 	S 	0.51653 0.58421 0.94383 0.02600
C 	C 	0.55280 0.60076 0.95865 0.00500
C 	C 	0.57821 0.57988 0.94856 -0.04200
C 	C 	0.56673 0.49742 0.93020 -0.01100
C 	C 	0.58378 0.52471 0.93411 0.01700
C 	C 	0.61586 0.52191 0.95986 -0.04600
C 	C 	0.62311 0.49264 0.97753 0.00700
S 	S 	0.59095 0.47103 0.95977 0.02100
H 	H 	0.63281 0.54038 0.96588 0.06300
H 	H 	0.60433 0.58525 0.95142 0.06200
C 	C 	0.42789 0.29721 0.95445 0.03000
C 	C 	0.45001 0.31072 0.99396 -0.00400
C 	C 	0.45305 0.34180 0.99543 -0.02700
C 	C 	0.43438 0.35964 0.95672 0.03200
C 	C 	0.41242 0.34606 0.91678 -0.02700
C 	C 	0.40922 0.31498 0.91569 -0.00300
H 	H 	0.46498 0.29710 0.02327 0.08100
H 	H 	0.47012 0.35201 0.02629 0.06600
H 	H 	0.39837 0.35949 0.88578 0.06000
H 	H 	0.39249 0.30468 0.88437 0.07600
C 	C 	0.26908 0.53553 0.97291 0.02500
C 	C 	0.27794 0.50879 0.00115 0.00600
C 	C 	0.31006 0.49727 0.99492 -0.03200
C 	C 	0.33336 0.51206 0.95928 0.03500
C 	C 	0.32391 0.53812 0.92886 -0.02700
C 	C 	0.29193 0.54978 0.93573 -0.00000
H 	H 	0.26013 0.49724 0.02873 0.07800
H 	H 	0.31696 0.47711 0.01840 0.06800
H 	H 	0.34123 0.54928 0.89978 0.06300
H 	H 	0.28499 0.57006 0.91266 0.07400
C 	C 	0.72092 0.45925 0.01194 0.03200
C 	C 	0.71579 0.48009 0.96662 -0.00400
C 	C 	0.68390 0.49109 0.95532 -0.02500
C 	C 	0.65681 0.48112 0.98903 0.02900
C 	C 	0.66191 0.45980 0.03357 -0.02200
C 	C 	0.69381 0.44880 0.04476 -0.00300
H 	H 	0.73651 0.48776 0.94020 0.07400
H 	H 	0.68022 0.50705 0.91996 0.06100
H 	H 	0.64118 0.45186 0.05967 0.06400
H 	H 	0.69750 0.43228 0.07912 0.07900
C 	C 	0.56786 0.69565 0.96300 0.03100
C 	C 	0.59049 0.67641 0.99084 -0.00600
C 	C 	0.58542 0.64552 0.98976 -0.02700
C 	C 	0.55787 0.63353 0.96009 0.03300
C 	C 	0.53511 0.65295 0.93254 -0.02400
C 	C 	0.53981 0.68383 0.93496 -0.00200
H 	H 	0.61191 0.68540 0.01354 0.07900
H 	H 	0.60274 0.63096 0.01244 0.06500
H 	H 	0.51388 0.64421 0.90902 0.06500
H 	H 	0.52172 0.69859 0.91480 0.08100
Zn	Zn	0.40328 0.11043 0.96470 1.22400
C 	C 	0.43252 0.16894 0.95037 0.33300
O 	O 	0.41184 0.08845 0.89108 -0.42200
O 	O 	0.46074 0.15723 0.96813 -0.39800
O 	O 	0.45515 0.11755 0.86329 -0.43000
C 	C 	0.45152 0.10219 0.05567 0.33200
O 	O 	0.42379 0.11593 0.04188 -0.44600
O 	O 	0.47223 0.09383 0.01415 -0.49400
C 	C 	0.43162 0.09862 0.84971 0.32300
O 	O 	0.37827 0.06685 0.00329 -0.28100
Zn	Zn	0.47608 0.11567 0.94021 1.18400
O 	O 	0.40751 0.15167 0.93571 -0.39400
C 	C 	0.35059 0.08112 0.99530 0.28400
O 	O 	0.35315 0.10780 0.97392 -0.33400
C 	C 	0.49019 0.97854 0.50175 0.01800
C 	C 	0.47309 0.00632 0.49926 0.01500
C 	C 	0.51515 0.97207 0.46025 -0.05200
C 	C 	0.52314 0.99296 0.41616 0.01700
C 	C 	0.48156 0.02745 0.45594 -0.05100
C 	C 	0.50646 0.02098 0.41438 0.01600
H 	H 	0.46870 0.04872 0.45438 0.05900
H 	H 	0.52809 0.95084 0.46202 0.06100
C 	C 	0.51553 0.04194 0.37070 -0.01300
C 	C 	0.53814 0.03462 0.32587 0.01400
C 	C 	0.53429 0.05258 0.27435 -0.05200
C 	C 	0.50851 0.07351 0.27896 0.01100
S 	S 	0.49075 0.06884 0.34480 0.01800
H 	H 	0.54681 0.04812 0.23309 0.04900
C 	C 	0.54772 0.98673 0.37334 -0.01100
C 	C 	0.55408 0.00665 0.32677 0.01300
C 	C 	0.56751 0.99236 0.27581 -0.04800
C 	C 	0.57110 0.96142 0.28237 0.01100
S 	S 	0.55739 0.95253 0.34965 0.01900
H 	H 	0.57025 0.00331 0.23357 0.05200
C 	C 	0.45661 0.96403 0.58755 0.01600
C 	C 	0.48097 0.95749 0.54512 -0.01500
S 	S 	0.50654 0.93209 0.57429 0.02600
C 	C 	0.48706 0.92690 0.63839 0.01000
C 	C 	0.45975 0.94635 0.63959 -0.05400
C 	C 	0.44735 0.01197 0.54009 -0.01100
C 	C 	0.43990 0.99165 0.58541 0.01300
C 	C 	0.42475 0.00548 0.63536 -0.04900
C 	C 	0.42116 0.03645 0.62951 0.01500
S 	S 	0.43672 0.04590 0.56394 0.01300
H 	H 	0.42092 0.99422 0.67702 0.05800
H 	H 	0.44517 0.94991 0.67902 0.05300
Zn	Zn	0.58727 0.88389 0.95884 1.22500
C 	C 	0.56355 0.82352 0.96923 0.32900
O 	O 	0.56699 0.90176 0.88813 -0.44200
O 	O 	0.53704 0.83412 0.99606 -0.38200
O 	O 	0.52262 0.87050 0.88825 -0.48400
C 	C 	0.55468 0.89451 0.06816 0.34900
O 	O 	0.57925 0.88015 0.04302 -0.41400
O 	O 	0.52692 0.89882 0.03915 -0.48900
C 	C 	0.54133 0.89008 0.86106 0.32300
O 	O 	0.61176 0.93047 0.98058 -0.29700
Zn	Zn	0.51460 0.87386 0.97230 1.17800
O 	O 	0.58303 0.84145 0.93901 -0.40500
C 	C 	0.63916 0.91811 0.96288 0.30000
O 	O 	0.63674 0.89052 0.94639 -0.33100
Zn	Zn	0.08538 0.61520 0.03513 1.22500
C 	C 	0.05438 0.67322 0.05121 0.33300
O 	O 	0.07871 0.59292 0.10921 -0.46200
O 	O 	0.02607 0.66078 0.03649 -0.42200
O 	O 	0.03580 0.62151 0.14079 -0.44900
C 	C 	0.03528 0.60656 0.94768 0.34300
O 	O 	0.06331 0.62017 0.95932 -0.42500
O 	O 	0.01601 0.59747 0.99073 -0.50200
C 	C 	0.06059 0.60347 0.15257 0.33100
O 	O 	0.11150 0.57231 0.99506 -0.26500
Zn	Zn	0.01325 0.61883 0.06538 1.17900
O 	O 	0.08037 0.65651 0.06375 -0.37500
C 	C 	0.13872 0.58754 0.00044 0.29600
O 	O 	0.13532 0.61390 0.02306 -0.34600
C 	C 	0.98323 0.52740 0.58730 0.01300
C 	C 	0.96649 0.49951 0.58632 0.01800
C 	C 	0.00837 0.53334 0.54587 -0.04700
C 	C 	0.01713 0.51166 0.50373 0.01600
C 	C 	0.97488 0.47805 0.54356 -0.05500
C 	C 	0.00021 0.48386 0.50251 0.02000
H 	H 	0.96193 0.45688 0.54253 0.06000
H 	H 	0.02116 0.55459 0.54662 0.06000
C 	C 	0.00993 0.46216 0.46078 -0.01200
C 	C 	0.03434 0.46816 0.41822 0.01500
C 	C 	0.03153 0.44971 0.36722 -0.05500
C 	C 	0.00471 0.42992 0.36980 0.01400
S 	S 	0.98492 0.43601 0.43324 0.01500
H 	H 	0.04577 0.45307 0.32733 0.04800
C 	C 	0.04308 0.51674 0.46303 -0.01100
C 	C 	0.05098 0.49574 0.41916 0.01400
C 	C 	0.06649 0.50878 0.36880 -0.04700
C 	C 	0.06951 0.53988 0.37246 0.00900
S 	S 	0.05354 0.55030 0.43719 0.02800
H 	H 	0.07096 0.49682 0.32815 0.05000
C 	C 	0.95055 0.54231 0.67394 0.01300
C 	C 	0.97395 0.54884 0.62991 -0.01200
S 	S 	0.99895 0.57531 0.65625 0.01600
C 	C 	0.98029 0.58093 0.72104 0.00200
C 	C 	0.95387 0.56079 0.72478 -0.05200
C 	C 	0.94163 0.49381 0.62882 -0.01300
C 	C 	0.93475 0.51433 0.67412 0.01400
C 	C 	0.92163 0.50057 0.72591 -0.05300
C 	C 	0.91903 0.46948 0.72156 0.00300
S 	S 	0.93275 0.45990 0.65476 0.01300
H 	H 	0.91880 0.51206 0.76754 0.05000
H 	H 	0.94019 0.55732 0.76525 0.05000
Zn	Zn	0.91098 0.38703 0.04475 1.23000
C 	C 	0.94407 0.33074 0.02659 0.33600
O 	O 	0.92888 0.40474 0.11764 -0.44400
O 	O 	0.96814 0.34542 0.00031 -0.40700
O 	O 	0.97691 0.37801 0.11392 -0.48500
C 	C 	0.94209 0.40555 0.93812 0.33200
O 	O 	0.91965 0.38760 0.96030 -0.38500
O 	O 	0.96841 0.41238 0.96927 -0.49400
C 	C 	0.95556 0.39418 0.14378 0.32700
O 	O 	0.87869 0.43042 0.02856 -0.30000
Zn	Zn	0.98486 0.38607 0.03116 1.17700
O 	O 	0.92212 0.34500 0.05904 -0.38000
C 	C 	0.85374 0.41377 0.04344 0.28100
O 	O 	0.86097 0.38657 0.05805 -0.28600
C 	C 	0.00778 0.97503 0.09633 0.02400
C 	C 	0.02701 0.00163 0.09641 0.01900
C 	C 	0.97296 0.97678 0.09411 -0.05300
C 	C 	0.95718 0.00469 0.08868 0.02200
C 	C 	0.01115 0.02960 0.09338 -0.04600
C 	C 	0.97643 0.03127 0.08790 0.01800
H 	H 	0.02562 0.04990 0.09671 0.06600
H 	H 	0.95825 0.95666 0.09803 0.06400
C 	C 	0.95995 0.05906 0.08306 -0.01300
C 	C 	0.92559 0.06077 0.07337 0.01700
C 	C 	0.91544 0.08804 0.04645 -0.04500
C 	C 	0.94213 0.10697 0.03353 -0.00000
S 	S 	0.97687 0.09030 0.05668 0.04600
H 	H 	0.88978 0.09416 0.03884 0.05500
C 	C 	0.92225 0.00703 0.08499 -0.01300
C 	C 	0.90660 0.03458 0.07423 0.01700
C 	C 	0.87463 0.03167 0.04811 -0.04500
C 	C 	0.86611 0.00187 0.03714 0.00100
S 	S 	0.89708 0.98013 0.06081 0.03900
H 	H 	0.85871 0.05036 0.03709 0.05400
C 	C 	0.05901 0.94518 0.09876 0.01800
C 	C 	0.02425 0.94723 0.10017 -0.01400
S 	S 	0.00901 0.91479 0.07644 0.03500
C 	C 	0.04508 0.89708 0.06534 0.00500
C 	C 	0.07081 0.91669 0.08020 -0.04600
C 	C 	0.06194 0.99928 0.10065 -0.01200
C 	C 	0.07801 0.97138 0.09858 0.01700
C 	C 	0.11149 0.97312 0.07865 -0.04400
C 	C 	0.12084 0.00228 0.06382 0.00200
S 	S 	0.08873 0.02499 0.07667 0.04200
H 	H 	0.12768 0.95398 0.07348 0.05400
H 	H 	0.09674 0.91030 0.08014 0.05500
C 	C 	0.93952 0.20222 0.02415 0.02800
C 	C 	0.95704 0.18577 0.98166 0.00000
C 	C 	0.95708 0.15457 0.98378 -0.02800
C 	C 	0.93907 0.13959 0.02769 0.03700
C 	C 	0.92028 0.15608 0.06858 -0.02700
C 	C 	0.92032 0.18729 0.06649 0.00200
H 	H 	0.97132 0.19717 0.94801 0.07700
H 	H 	0.97150 0.14203 0.95186 0.06500
H 	H 	0.90640 0.14476 0.10285 0.06400
H 	H 	0.90620 0.19987 0.09875 0.07700
C 	C 	0.76784 0.96835 0.00973 0.03000
C 	C 	0.77264 0.99402 0.04406 -0.00000
C 	C 	0.80466 0.00514 0.05297 -0.02800
C 	C 	0.83208 0.99103 0.02640 0.03600
C 	C 	0.82706 0.96582 0.99075 -0.02800
C 	C 	0.79509 0.95459 0.98234 -0.00200
H 	H 	0.75162 0.00509 0.06446 0.07400
H 	H 	0.80816 0.02441 0.08113 0.06100
H 	H 	0.84795 0.95493 0.96954 0.06500
H 	H 	0.79148 0.93507 0.95486 0.07800
C 	C 	0.22043 0.03362 0.04073 0.02800
C 	C 	0.19421 0.04699 0.00971 0.00200
C 	C 	0.16180 0.03654 0.01692 -0.02400
C 	C 	0.15531 0.01256 0.05514 0.03400
C 	C 	0.18172 0.99888 0.08556 -0.02700
C 	C 	0.21420 0.00916 0.07774 0.00000
H 	H 	0.19894 0.06554 0.98019 0.07600
H 	H 	0.14176 0.04702 0.99261 0.06300
H 	H 	0.17710 0.98059 0.11573 0.06200
H 	H 	0.23444 0.99836 0.10100 0.07700
C 	C 	0.05444 0.80185 0.05330 0.03000
C 	C 	0.07841 0.82036 0.02742 0.00000
C 	C 	0.07533 0.85143 0.03132 -0.02500
C 	C 	0.04874 0.86422 0.06265 0.03300
C 	C 	0.02546 0.84553 0.09042 -0.02500
C 	C 	0.02826 0.81454 0.08553 -0.00200
H 	H 	0.09919 0.81070 0.00375 0.08400
H 	H 	0.09342 0.86554 0.00962 0.06300
H 	H 	0.00536 0.85494 0.11619 0.06400
H 	H 	0.01008 0.80034 0.10679 0.07400
C 	C 	0.96704 0.28166 0.05564 0.07800
C 	C 	0.94337 0.29797 0.02372 -0.02000
C 	C 	0.91892 0.28289 0.99038 -0.06500
C 	C 	0.91778 0.25149 0.99202 -0.00100
C 	C 	0.94130 0.23515 0.02434 0.09000
C 	C 	0.96634 0.25026 0.05638 -0.13800
C 	C 	0.99213 0.23294 0.09155 0.78900
H 	H 	0.98578 0.29358 0.08047 0.06700
H 	H 	0.89860 0.23963 0.96817 0.09400
C 	C 	0.89375 0.30024 0.95393 0.77100
F 	F 	0.01415 0.25172 0.12007 -0.43600
F 	F 	0.01020 0.21465 0.05425 -0.43800
F 	F 	0.97660 0.21560 0.13381 -0.44200
F 	F 	0.90987 0.32048 0.91778 -0.42400
F 	F 	0.87239 0.31550 0.99105 -0.40100
F 	F 	0.87508 0.28160 0.91838 -0.41800
C 	C 	0.93609 0.42031 0.88079 -0.08600
C 	C 	0.96257 0.42634 0.84183 0.11000
C 	C 	0.95628 0.44083 0.78804 -0.08300
C 	C 	0.92404 0.45013 0.77342 0.00700
C 	C 	0.89742 0.44364 0.81200 0.05400
C 	C 	0.90367 0.42886 0.86533 -0.00700
H 	H 	0.97673 0.44567 0.75846 0.06000
H 	H 	0.88328 0.42455 0.89530 0.10200
N 	N 	0.99586 0.41721 0.85652 -0.14300
N 	N 	0.86382 0.45188 0.79741 -0.12400
C 	C 	0.01623 0.44301 0.87258 -0.09100
H 	H 	0.02053 0.45768 0.83372 0.05500
H 	H 	0.04068 0.43504 0.88891 0.05600
H 	H 	0.00426 0.45613 0.90844 0.05600
C 	C 	0.84909 0.43029 0.75675 -0.10200
H 	H 	0.86248 0.43014 0.71385 0.07200
H 	H 	0.82281 0.43652 0.74847 0.08400
H 	H 	0.84949 0.40751 0.77634 0.10700
H 	H 	0.00663 0.40571 0.82112 0.09500
H 	H 	0.86228 0.47361 0.78066 0.09000
C 	C 	0.96312 0.40257 0.20519 -0.10400
C 	C 	0.95999 0.43250 0.22396 0.10900
C 	C 	0.97150 0.44075 0.28006 -0.08800
C 	C 	0.98739 0.41980 0.31640 0.00900
C 	C 	0.98945 0.38977 0.29871 0.04400
C 	C 	0.97692 0.38121 0.24342 -0.01100
H 	H 	0.96932 0.46376 0.29428 0.05500
H 	H 	0.97891 0.35810 0.22954 0.06000
N 	N 	0.94652 0.45481 0.18486 -0.13900
N 	N 	0.00495 0.36801 0.33660 -0.12900
C 	C 	0.97318 0.47103 0.15498 -0.08300
H 	H 	0.98912 0.48292 0.18732 0.04000
H 	H 	0.96217 0.48779 0.12458 0.04900
H 	H 	0.98863 0.45544 0.12834 0.03100
C 	C 	0.03915 0.36227 0.31791 -0.09800
H 	H 	0.03979 0.35218 0.27309 0.07000
H 	H 	0.05095 0.34641 0.34925 0.07700
H 	H 	0.05383 0.38327 0.31820 0.06600
H 	H 	0.93128 0.46969 0.20809 0.09300
H 	H 	0.99132 0.34813 0.33680 0.09700
C 	C 	0.07079 0.75344 0.09765 0.00100
C 	C 	0.05757 0.76904 0.04946 0.08600
C 	C 	0.04498 0.75317 0.00037 -0.13600
C 	C 	0.04581 0.72175 0.00093 0.07900
C 	C 	0.05733 0.70609 0.05053 -0.02100
C 	C 	0.06949 0.72207 0.10005 -0.06700
C 	C 	0.08166 0.70590 0.15494 0.77100
H 	H 	0.08117 0.76592 0.13416 0.09100
H 	H 	0.03699 0.70931 0.96310 0.07600
C 	C 	0.03079 0.76967 0.94741 0.79000
F 	F 	0.08605 0.72538 0.20168 -0.44000
F 	F 	0.11180 0.69233 0.14308 -0.44400
F 	F 	0.05889 0.68459 0.17254 -0.45500
F 	F 	0.05538 0.78655 0.92107 -0.44100
F 	F 	0.00521 0.78829 0.96512 -0.44000
F 	F 	0.01829 0.75022 0.90553 -0.43700
C 	C 	0.02492 0.60217 0.88631 -0.10400
C 	C 	0.03550 0.57685 0.85471 0.12500
C 	C 	0.02257 0.57131 0.79827 -0.08500
C 	C 	0.99864 0.59049 0.77384 0.01100
C 	C 	0.98920 0.61664 0.80461 0.04200
C 	C 	0.00243 0.62226 0.86062 0.00200
H 	H 	0.03005 0.55134 0.77464 0.06700
H 	H 	0.99465 0.64200 0.88469 0.05400
N 	N 	0.05902 0.55643 0.88054 -0.12900
N 	N 	0.96589 0.63756 0.77960 -0.12700
C 	C 	0.04214 0.53011 0.90428 -0.08800
H 	H 	0.02340 0.53677 0.93785 0.05800
H 	H 	0.06064 0.51538 0.92610 0.08700
H 	H 	0.02990 0.51722 0.86847 0.05100
C 	C 	0.98212 0.65707 0.73663 -0.10300
H 	H 	0.00302 0.66930 0.75753 0.09000
H 	H 	0.96392 0.67381 0.72031 0.08200
H 	H 	0.99145 0.64406 0.69828 0.07000
H 	H 	0.07671 0.54999 0.84916 0.14700
H 	H 	0.94538 0.62680 0.76108 0.09100
C 	C 	0.06310 0.58992 0.21180 -0.10900
C 	C 	0.09420 0.58600 0.24025 0.12100
C 	C 	0.09581 0.57005 0.29341 -0.08600
C 	C 	0.06691 0.55885 0.31961 0.01800
C 	C 	0.03582 0.56410 0.29305 0.03900
C 	C 	0.03409 0.57976 0.23952 -0.00500
H 	H 	0.11966 0.56645 0.31444 0.08000
H 	H 	0.01015 0.58340 0.21885 0.03100
N 	N 	0.12408 0.59928 0.21724 -0.13400
N 	N 	0.00587 0.55400 0.32137 -0.13100
C 	C 	0.12547 0.63123 0.23040 -0.11500
H 	H 	0.10446 0.64332 0.20946 0.13300
H 	H 	0.14903 0.64057 0.21297 0.11700
H 	H 	0.12492 0.63494 0.27887 0.09700
C 	C 	0.99219 0.52786 0.29135 -0.09600
H 	H 	0.98301 0.53391 0.24666 0.04600
H 	H 	0.97103 0.51908 0.31745 0.05700
H 	H 	0.01110 0.50982 0.28771 0.05300
H 	H 	0.12756 0.59501 0.17238 0.11000
H 	H 	0.98828 0.57123 0.32273 0.08800
C 	C 	0.68859 0.92341 0.02655 0.07300
C 	C 	0.67155 0.93173 0.97523 -0.01000
C 	C 	0.68538 0.95311 0.93646 -0.07300
C 	C 	0.71656 0.96549 0.94964 -0.00100
C 	C 	0.73407 0.95657 0.00013 0.08700
C 	C 	0.71993 0.93554 0.03949 -0.13900
C 	C 	0.73801 0.92638 0.09552 0.79000
H 	H 	0.67730 0.90745 0.05637 0.07400
H 	H 	0.72752 0.98189 0.92038 0.08900
C 	C 	0.66657 0.96315 0.88186 0.77200
F 	F 	0.72054 0.90512 0.12714 -0.44300
F 	F 	0.74229 0.95105 0.13135 -0.45400
F 	F 	0.76872 0.91444 0.08159 -0.43600
F 	F 	0.63764 0.97751 0.89864 -0.45800
F 	F 	0.65870 0.93865 0.84747 -0.44100
F 	F 	0.68501 0.98266 0.84768 -0.44000
C 	C 	0.50484 0.91790 0.69239 0.01300
C 	C 	0.51208 0.88764 0.70310 0.04700
C 	C 	0.52588 0.87902 0.75747 -0.00800
C 	C 	0.53215 0.90033 0.80141 -0.10400
C 	C 	0.52615 0.93100 0.78945 0.10600
C 	C 	0.51287 0.93946 0.73488 -0.08200
H 	H 	0.53082 0.85559 0.76606 0.06000
H 	H 	0.50805 0.96289 0.72607 0.06300
N 	N 	0.50466 0.86551 0.65905 -0.13100
N 	N 	0.53239 0.95373 0.83304 -0.13900
C 	C 	0.47315 0.85073 0.67214 -0.09700
H 	H 	0.47462 0.83825 0.71451 0.06700
H 	H 	0.46739 0.83463 0.63638 0.07400
H 	H 	0.45260 0.86735 0.67421 0.06700
C 	C 	0.56587 0.96595 0.82684 -0.11100
H 	H 	0.58503 0.94808 0.82929 0.12700
H 	H 	0.57050 0.98221 0.86284 0.10200
H 	H 	0.56825 0.97794 0.78411 0.08600
H 	H 	0.52386 0.84975 0.65633 0.10100
H 	H 	0.52748 0.94671 0.87616 0.07500
C 	C 	0.56875 0.94091 0.23163 0.01700
C 	C 	0.59440 0.93989 0.18949 0.04500
C 	C 	0.58987 0.92392 0.13683 -0.00400
C 	C 	0.55985 0.90912 0.12569 -0.09600
C 	C 	0.53463 0.90919 0.16880 0.12200
C 	C 	0.53935 0.92488 0.22179 -0.08700
H 	H 	0.60947 0.92366 0.10405 0.05900
H 	H 	0.51967 0.92531 0.25440 0.06400
N 	N 	0.62484 0.95586 0.19961 -0.12800
N 	N 	0.50460 0.89248 0.15947 -0.13600
C 	C 	0.65127 0.93537 0.21787 -0.10900
H 	H 	0.64403 0.92324 0.25870 0.09000
H 	H 	0.67408 0.94836 0.22750 0.10600
H 	H 	0.65708 0.91909 0.18226 0.10700
C 	C 	0.47646 0.91244 0.14809 -0.09300
H 	H 	0.47000 0.92549 0.18822 0.05700
H 	H 	0.45456 0.89890 0.13539 0.06200
H 	H 	0.48208 0.92798 0.11113 0.06100
H 	H 	0.63191 0.96752 0.16159 0.09600
H 	H 	0.49969 0.87889 0.19604 0.10600
C 	C 	0.27289 0.03399 0.98354 0.00100
C 	C 	0.25471 0.04442 0.03210 0.08500
C 	C 	0.26858 0.06621 0.07001 -0.13300
C 	C 	0.30048 0.07737 0.05781 0.06500
C 	C 	0.31821 0.06757 0.00827 0.00100
C 	C 	0.30438 0.04579 0.97041 -0.07900
C 	C 	0.32315 0.03514 0.91614 0.77400
H 	H 	0.26211 0.01704 0.95540 0.08700
H 	H 	0.31155 0.09391 0.08655 0.07700
C 	C 	0.24940 0.07756 0.12326 0.79000
F 	F 	0.30434 0.01583 0.88223 -0.44500
F 	F 	0.35171 0.02030 0.93329 -0.44500
F 	F 	0.33165 0.05930 0.88119 -0.45100
F 	F 	0.24301 0.05413 0.16137 -0.44400
F 	F 	0.21966 0.09010 0.10527 -0.43300
F 	F 	0.26692 0.09909 0.15400 -0.43000
C 	C 	0.42338 0.05637 0.68091 0.00900
C 	C 	0.39466 0.06391 0.71291 0.05900
C 	C 	0.39753 0.07928 0.76667 -0.01100
C 	C 	0.42891 0.08685 0.78903 -0.08000
C 	C 	0.45761 0.08052 0.75541 0.10400
C 	C 	0.45462 0.06523 0.70163 -0.08200
H 	H 	0.37536 0.08470 0.79162 0.09500
H 	H 	0.47679 0.05928 0.67708 0.06000
N 	N 	0.36250 0.05532 0.69126 -0.13200
N 	N 	0.48997 0.08833 0.77733 -0.14200
C 	C 	0.34650 0.08035 0.66093 -0.09700
H 	H 	0.34195 0.09920 0.69187 0.08100
H 	H 	0.32225 0.07293 0.64296 0.08100
H 	H 	0.36206 0.08808 0.62339 0.07500
C 	C 	0.50261 0.11488 0.74713 -0.10800
H 	H 	0.50671 0.11031 0.69946 0.07100
H 	H 	0.52668 0.12140 0.76711 0.07800
H 	H 	0.48507 0.13394 0.75230 0.11500
H 	H 	0.34749 0.04769 0.72584 0.12100
H 	H 	0.50651 0.07043 0.77226 0.07800
C 	C 	0.48980 0.08374 0.22703 0.01400
C 	C 	0.49950 0.10975 0.19688 0.04400
C 	C 	0.48468 0.11694 0.14260 -0.00700
C 	C 	0.46074 0.09806 0.11783 -0.11000
C 	C 	0.44946 0.07297 0.15010 0.11200
C 	C 	0.46426 0.06592 0.20425 -0.08500
H 	H 	0.49276 0.13660 0.11865 0.04600
H 	H 	0.45646 0.04607 0.22787 0.06700
N 	N 	0.52462 0.12885 0.22148 -0.13100
N 	N 	0.42312 0.05434 0.12819 -0.14200
C 	C 	0.55646 0.12441 0.19155 -0.09500
H 	H 	0.56432 0.10062 0.19411 0.06200
H 	H 	0.57571 0.13811 0.21366 0.07000
H 	H 	0.55490 0.13146 0.14457 0.05900
C 	C 	0.39061 0.06653 0.14433 -0.09800
H 	H 	0.38818 0.06794 0.19310 0.07900
H 	H 	0.37085 0.05147 0.12775 0.08400
H 	H 	0.38677 0.08903 0.12468 0.08100
H 	H 	0.51727 0.15125 0.21856 0.09600
H 	H 	0.42496 0.05064 0.08278 0.09900
C 	C 	0.40986 0.21611 0.99069 0.07600
C 	C 	0.42878 0.20156 0.94745 -0.01800
C 	C 	0.44480 0.21837 0.90293 -0.07000
C 	C 	0.44431 0.24973 0.90624 0.00200
C 	C 	0.42617 0.26433 0.95050 0.08400
C 	C 	0.40742 0.24746 0.99152 -0.13700
C 	C 	0.38592 0.26280 0.03754 0.79300
H 	H 	0.39748 0.20294 0.02424 0.07900
H 	H 	0.45831 0.26290 0.87479 0.08900
C 	C 	0.46288 0.20293 0.85260 0.77100
F 	F 	0.36520 0.24274 0.06585 -0.42700
F 	F 	0.36614 0.28434 0.01129 -0.43600
F 	F 	0.40592 0.27615 0.07941 -0.44100
F 	F 	0.44257 0.18162 0.82727 -0.44500
F 	F 	0.49131 0.18926 0.87374 -0.46700
F 	F 	0.47192 0.22293 0.80886 -0.44000
C 	C 	0.19570 0.57790 0.03709 0.07300
C 	C 	0.17178 0.57369 0.99291 -0.00700
C 	C 	0.18000 0.55707 0.94163 -0.07500
C 	C 	0.21148 0.54351 0.93768 0.00300
C 	C 	0.23558 0.54837 0.98116 0.08200
C 	C 	0.22797 0.56624 0.03089 -0.13300
C 	C 	0.25391 0.57227 0.07807 0.79000
H 	H 	0.18905 0.59030 0.07641 0.08100
H 	H 	0.21749 0.52940 0.90033 0.08800
C 	C 	0.15504 0.55268 0.89219 0.77300
F 	F 	0.24281 0.59289 0.11914 -0.43200
F 	F 	0.28249 0.58353 0.05265 -0.43700
F 	F 	0.26139 0.54602 0.10743 -0.44300
F 	F 	0.13941 0.57936 0.87844 -0.44400
F 	F 	0.13162 0.53192 0.90953 -0.45500
F 	F 	0.17025 0.54237 0.84131 -0.44300
C 	C 	0.80911 0.44971 0.06809 0.06600
C 	C 	0.81920 0.42419 0.03699 0.00200
C 	C 	0.79684 0.40999 0.99769 -0.07900
C 	C 	0.76432 0.42120 0.99225 0.00200
C 	C 	0.75446 0.44699 0.02261 0.08400
C 	C 	0.77680 0.46127 0.06157 -0.13400
C 	C 	0.76635 0.48898 0.09560 0.79000
H 	H 	0.82661 0.46058 0.09728 0.07800
H 	H 	0.74663 0.41009 0.96378 0.09000
C 	C 	0.80712 0.38243 0.96291 0.77600
F 	F 	0.79103 0.49868 0.13346 -0.43800
F 	F 	0.73843 0.48288 0.12900 -0.44000
F 	F 	0.75924 0.51190 0.05662 -0.44400
F 	F 	0.80953 0.35823 0.00060 -0.39300
F 	F 	0.83739 0.38697 0.93554 -0.43200
F 	F 	0.78423 0.37563 0.91942 -0.42800
C 	C 	0.57746 0.77647 0.91687 0.07900
C 	C 	0.57040 0.79111 0.97014 -0.02000
C 	C 	0.56832 0.77434 0.02310 -0.06700
C 	C 	0.56728 0.74301 0.01983 0.00600
C 	C 	0.57259 0.72835 0.96601 0.08300
C 	C 	0.58053 0.74519 0.91500 -0.13700
C 	C 	0.59083 0.73000 0.85798 0.79100
H 	H 	0.57981 0.78941 0.87665 0.08000
H 	H 	0.56200 0.72998 0.05905 0.09000
C 	C 	0.56653 0.78952 0.08290 0.77400
F 	F 	0.60734 0.74969 0.82114 -0.42800
F 	F 	0.56299 0.71965 0.82893 -0.44600
F 	F 	0.61204 0.70631 0.86925 -0.43600
F 	F 	0.53415 0.79804 0.09443 -0.44100
F 	F 	0.58684 0.81440 0.08442 -0.43100
F 	F 	0.57692 0.77036 0.12723 -0.42900
