data_crystal

_cell_length_a 16.59563
_cell_length_b 15.16346
_cell_length_c 37.87551
_cell_angle_alpha 89.87623
_cell_angle_beta  89.87867
_cell_angle_gamma 119.40114

_symmetry_space_group_name_	'P 1'
_symmetry_space_group_name_H-M	'P 1'

loop_
_symmetry_equiv_pos_as_xyz
  x,y,z

loop_
_atom_site_label
_atom_site_type_symbol
_atom_site_fract_x
_atom_site_fract_y
_atom_site_fract_z
_atom_site_charge
Ni	Ni	0.07988 0.94574 0.77775 1.11900
Ni	Ni	0.13251 0.17770 0.75746 1.13600
O 	O 	0.05119 0.20512 0.25502 -0.32500
C 	C 	0.09525 0.65376 0.48756 -0.06300
C 	C 	0.09021 0.63994 0.52456 0.11600
C 	C 	0.00755 0.62032 0.04465 -0.09700
C 	C 	0.24088 0.11799 0.80983 0.33800
C 	C 	0.22511 0.08025 0.72358 0.35000
O 	O 	0.16607 0.03236 0.81759 -0.36400
O 	O 	0.23698 0.19115 0.79112 -0.32400
O 	O 	0.20058 0.00500 0.74626 -0.36800
O 	O 	0.17230 0.11950 0.71816 -0.37100
C 	C 	0.15478 0.40050 0.40309 0.34300
C 	C 	0.25955 0.69821 0.35669 0.36000
C 	C 	0.16878 0.65025 0.46711 0.32100
O 	O 	0.15931 0.56208 0.45855 -0.37400
O 	O 	0.19290 0.48309 0.38456 -0.37900
O 	O 	0.18459 0.40131 0.43530 -0.33400
O 	O 	0.24828 0.71545 0.38961 -0.37800
O 	O 	0.24751 0.73403 0.46190 -0.35200
C 	C 	0.23648 0.65569 0.15658 0.35400
C 	C 	0.17605 0.42413 0.07697 0.35300
C 	C 	0.09141 0.64516 0.06420 0.32900
O 	O 	0.15266 0.73956 0.07148 -0.34500
O 	O 	0.19785 0.66415 0.12850 -0.38100
O 	O 	0.20829 0.48383 0.10384 -0.35500
O 	O 	0.19575 0.46229 0.04477 -0.35200
O 	O 	0.11865 0.57909 0.06296 -0.39100
C 	C 	0.04976 0.13142 0.17555 0.31000
C 	C 	0.10523 0.20027 0.27922 0.32400
C 	C 	0.06235 0.85382 0.20234 0.29800
C 	C 	0.07816 0.86940 0.28004 0.28100
Ni	Ni	0.11533 0.04837 0.23397 1.11800
O 	O 	0.10106 0.95116 0.19561 -0.33600
O 	O 	0.11839 0.14964 0.19745 -0.35400
O 	O 	0.13687 0.96484 0.27078 -0.34700
O 	O 	0.15577 0.15770 0.27148 -0.35900
C 	C 	0.16177 0.21040 0.12554 -0.08900
C 	C 	0.07218 0.17405 0.13907 -0.09000
C 	C 	0.00912 0.19224 0.11965 0.33800
C 	C 	0.04076 0.26014 0.09111 -0.09500
C 	C 	0.13563 0.31517 0.08352 -0.11000
C 	C 	0.19374 0.28117 0.09793 0.35100
H 	H 	0.20940 0.19125 0.13843 0.11700
C 	C 	0.26614 0.80463 0.19152 -0.09900
C 	C 	0.21966 0.69847 0.18893 -0.09000
C 	C 	0.12968 0.64606 0.20318 0.34000
C 	C 	0.07785 0.69623 0.20746 -0.08700
C 	C 	0.11894 0.80105 0.20080 -0.11600
C 	C 	0.21547 0.85605 0.19503 0.33300
F 	F 	0.26042 0.95862 0.19300 -0.43500
F 	F 	0.08699 0.54388 0.20669 -0.41400
C 	C 	0.03666 0.29656 0.35987 -0.10400
C 	C 	0.10446 0.30507 0.38377 -0.11900
C 	C 	0.14941 0.24887 0.37728 0.34200
C 	C 	0.14844 0.21223 0.34326 -0.08900
C 	C 	0.09606 0.22465 0.31651 -0.12200
C 	C 	0.03442 0.25996 0.32583 0.33500
H 	H 	0.19031 0.17725 0.33755 0.11400
C 	C 	0.21093 0.83664 0.28615 -0.10400
C 	C 	0.11815 0.80771 0.29395 -0.09000
C 	C 	0.06748 0.72489 0.31670 0.31400
C 	C 	0.11215 0.67964 0.33417 -0.06200
C 	C 	0.20739 0.71677 0.32927 -0.13100
C 	C 	0.25492 0.79061 0.30342 0.36300
H 	H 	0.25041 0.89842 0.26802 0.12700
H 	H 	0.07419 0.62021 0.35336 0.10200
N 	N 	0.15993 0.62890 0.54294 -0.02200
O 	O 	0.20707 0.69266 0.56770 -0.06500
O 	O 	0.16149 0.54420 0.54052 -0.10100
C 	C 	0.30979 0.11778 0.70241 -0.12300
C 	C 	0.01865 0.64536 0.00870 0.09600
N 	N 	0.07259 0.74875 0.99769 -0.01300
O 	O 	0.12015 0.77125 0.96848 -0.04600
O 	O 	0.06699 0.81940 0.01510 -0.03500
O 	O 	0.21606 0.00596 0.98076 -0.05600
F 	F 	0.29552 0.13520 0.88172 -0.43000
O 	O 	0.26174 0.86918 0.52487 -0.05800
O 	O 	0.40316 0.30918 0.37886 -0.05600
F 	F 	0.12401 0.32330 0.66744 -0.41600
C 	C 	0.30895 0.06493 0.67206 -0.09300
H 	H 	0.25319 0.98845 0.66784 0.12100
H 	H 	0.07002 0.35464 0.84182 0.12400
O 	O 	0.04588 0.04662 0.77386 -0.72900
H 	H 	0.04635 0.06473 0.79886 0.16200
O 	O 	0.07838 0.23614 0.79163 -0.37000
O 	O 	0.33817 0.18155 0.41817 -0.05100
O 	O 	0.25010 0.99087 0.03709 -0.05400
F 	F 	0.20199 0.23951 0.40272 -0.41600
C 	C 	0.33137 0.13056 0.82066 -0.10700
C 	C 	0.35480 0.13747 0.85652 0.34400
H 	H 	0.33909 0.84763 0.18554 0.14700
F 	F 	0.34613 0.82437 0.29735 -0.41300
F 	F 	0.38047 0.27229 0.73541 -0.43600
Ni	Ni	0.33453 0.56554 0.38135 1.12000
Ni	Ni	0.26363 0.53237 0.46306 1.12900
Ni	Ni	0.34628 0.75043 0.42676 1.13000
O 	O 	0.31673 0.66500 0.34836 -0.33700
O 	O 	0.32974 0.63811 0.50223 -0.34100
O 	O 	0.33736 0.62077 0.42590 -0.71900
Ni	Ni	0.34015 0.60378 0.10232 1.12400
Ni	Ni	0.27600 0.77277 0.09424 1.12800
Ni	Ni	0.22865 0.60991 0.03416 1.12500
O 	O 	0.30938 0.64306 0.15282 -0.31200
O 	O 	0.24958 0.74525 0.01269 -0.34600
O 	O 	0.30746 0.68026 0.07239 -0.71400
F 	F 	0.28551 0.33168 0.09052 -0.43000
N 	N 	0.34102 0.88450 0.51283 -0.01800
N 	N 	0.39401 0.27666 0.41123 -0.01200
C 	C 	0.37642 0.11269 0.64591 0.35700
C 	C 	0.38045 0.21870 0.70675 0.34300
F 	F 	0.37225 0.06158 0.61602 -0.43500
N 	N 	0.26766 0.99257 0.00353 -0.00500
O 	O 	0.22998 0.31221 0.00735 -0.06200
C 	C 	0.38939 0.12127 0.79563 -0.07900
H 	H 	0.36785 0.10310 0.76863 0.11600
C 	C 	0.38992 0.45973 0.43770 0.30600
C 	C 	0.39681 0.73509 0.49901 0.30300
O 	O 	0.35408 0.45190 0.40560 -0.31900
O 	O 	0.35551 0.48208 0.46589 -0.35000
H 	H 	0.39955 0.63723 0.43407 0.17100
C 	C 	0.31815 0.83803 0.02132 0.29700
O 	O 	0.33784 0.86736 0.05454 -0.35600
O 	O 	0.39712 0.83110 0.12476 -0.33700
H 	H 	0.36602 0.72689 0.06043 0.18000
C 	C 	0.42902 0.79925 0.53061 -0.05600
C 	C 	0.40371 0.87470 0.53617 0.11200
H 	H 	0.43562 0.01164 0.56313 0.10300
O 	O 	0.37186 0.93217 0.48299 -0.09300
C 	C 	0.45497 0.34142 0.43801 0.11400
C 	C 	0.44929 0.26571 0.68101 -0.07200
C 	C 	0.44799 0.21303 0.65050 -0.12400
C 	C 	0.35301 0.00004 0.99223 0.09000
H 	H 	0.33897 0.33415 0.94153 0.09300
N 	N 	0.31973 0.36100 0.00935 -0.01700
C 	C 	0.44165 0.15096 0.86623 -0.08800
H 	H 	0.46203 0.16412 0.89367 0.08800
C 	C 	0.45290 0.95175 0.56038 -0.00100
O 	O 	0.45271 0.80425 0.39034 -0.35100
O 	O 	0.42971 0.77841 0.46799 -0.36200
C 	C 	0.38527 0.57777 0.02294 0.29800
O 	O 	0.37926 0.54740 0.05694 -0.30800
O 	O 	0.34368 0.62722 0.01171 -0.37500
H 	H 	0.49355 0.23169 0.45585 0.07900
C 	C 	0.36632 0.91484 0.99391 -0.04300
H 	H 	0.41425 0.15877 0.97945 0.08000
C 	C 	0.37208 0.43906 0.98436 0.10400
C 	C 	0.37755 0.41302 0.94924 -0.02600
O 	O 	0.36143 0.32435 0.02847 -0.04300
C 	C 	0.47647 0.13654 0.80563 0.35400
H 	H 	0.02586 0.66849 0.44164 0.08200
C 	C 	0.50408 0.30760 0.45921 -0.01500
C 	C 	0.46719 0.43950 0.44315 -0.05400
H 	H 	0.04539 0.36593 0.61542 0.11800
O 	O 	0.47419 0.66740 0.37812 -0.33700
C 	C 	0.46965 0.81407 0.12163 0.33200
O 	O 	0.46298 0.73562 0.10447 -0.36800
F 	F 	0.45370 0.79003 0.19641 -0.42100
C 	C 	0.50053 0.80098 0.55083 -0.01900
H 	H 	0.50486 0.34230 0.68523 0.11000
C 	C 	0.42507 0.09388 0.98076 -0.01800
C 	C 	0.50811 0.16861 0.83999 -0.11500
C 	C 	0.04904 0.25413 0.64935 0.36400
C 	C 	0.53052 0.25315 0.62770 0.35700
C 	C 	0.50835 0.76548 0.38392 0.33300
C 	C 	0.53787 0.96719 0.57297 -0.04700
H 	H 	0.51707 0.74045 0.54825 0.08400
C 	C 	0.44774 0.92266 0.97999 -0.01200
C 	C 	0.42405 0.54086 0.99530 -0.06100
C 	C 	0.44984 0.48177 0.92755 -0.05800
O 	O 	0.50455 0.62963 0.87449 -0.05400
F 	F 	0.02533 0.48012 0.87154 -0.44400
C 	C 	0.51218 0.44669 0.91361 0.30400
C 	C 	0.55610 0.88560 0.57193 0.11500
H 	H 	0.45805 0.85736 0.98071 0.07200
F 	F 	0.53568 0.13786 0.78060 -0.41600
C 	C 	0.02099 0.65311 0.46976 -0.04100
O 	O 	0.05678 0.19624 0.71985 -0.32900
O 	O 	0.59785 0.34759 0.83776 -0.34600
O 	O 	0.56531 0.19450 0.62072 -0.36800
C 	C 	0.54938 0.86445 0.14549 -0.10900
C 	C 	0.53811 0.83159 0.18083 0.34900
C 	C 	0.56309 0.37003 0.48583 -0.06500
C 	C 	0.53967 0.50711 0.46458 -0.01300
C 	C 	0.48722 0.58488 0.93534 0.10100
O 	O 	0.52568 0.38577 0.93431 -0.38100
C 	C 	0.51064 0.10408 0.97107 -0.06000
C 	C 	0.48499 0.61305 0.97066 -0.02600
C 	C 	0.59702 0.26110 0.84338 0.32800
O 	O 	0.57887 0.32388 0.54504 -0.35700
O 	O 	0.57504 0.34994 0.61859 -0.36800
H 	H 	0.57371 0.93910 0.34550 0.13300
N 	N 	0.50920 0.65743 0.90725 -0.02300
C 	C 	0.52192 0.01742 0.97076 0.09600
O 	O 	0.57051 0.49606 0.88672 -0.33000
C 	C 	0.60154 0.32806 0.51187 0.31800
C 	C 	0.58068 0.47106 0.48851 0.11600
H 	H 	0.55310 0.58445 0.46700 0.09100
H 	H 	0.52022 0.69257 0.97764 0.07700
H 	H 	0.60358 0.32990 0.90180 0.16100
C 	C 	0.61474 0.07198 0.57298 0.31200
N 	N 	0.63094 0.88876 0.59175 -0.01400
C 	C 	0.58196 0.19986 0.95520 0.29900
O 	O 	0.52308 0.74787 0.91419 -0.06800
O 	O 	0.62452 0.13009 0.54578 -0.35700
C 	C 	0.61153 0.83197 0.19911 -0.07500
H 	H 	0.60147 0.80608 0.22630 0.11800
C 	C 	0.60450 0.83360 0.37261 -0.10500
O 	O 	0.64295 0.91795 0.62451 -0.03300
O 	O 	0.59247 0.51369 0.54886 -0.12300
H 	H 	0.01551 0.88269 0.88334 0.09800
C 	C 	0.62386 0.91385 0.34936 -0.08700
O 	O 	0.62574 0.19348 0.92699 -0.36100
C 	C 	0.63832 0.90828 0.13036 -0.07500
H 	H 	0.64861 0.93451 0.10322 0.11900
N 	N 	0.61030 0.02650 0.96321 -0.02900
O 	O 	0.61810 0.97115 0.93872 -0.05000
C 	C 	0.00872 0.61890 0.54234 -0.04700
O 	O 	0.67221 0.25884 0.85534 -0.34300
O 	O 	0.61272 0.28655 0.97310 -0.35600
N 	N 	0.63076 0.53332 0.51773 -0.02400
O 	O 	0.66651 0.38599 0.90542 -0.71200
O 	O 	0.67954 0.85060 0.57854 -0.03200
O 	O 	0.66886 0.31058 0.50263 -0.34100
Ni	Ni	0.68039 0.47335 0.86711 1.12100
Ni	Ni	0.65252 0.42641 0.95130 1.12700
O 	O 	0.66945 0.10848 0.60050 -0.33400
F 	F 	0.65742 0.73185 0.40236 -0.42400
H 	H 	0.67924 0.56716 0.66737 0.10900
Ni	Ni	0.67539 0.40980 0.58061 1.13300
C 	C 	0.67191 0.80424 0.37808 0.34700
H 	H 	0.00362 0.60373 0.57049 0.07800
H 	H 	0.00574 0.65321 0.21510 0.10900
H 	H 	0.68692 0.76118 0.91241 0.11900
C 	C 	0.01405 0.35933 0.82891 -0.14100
O 	O 	0.68884 0.57477 0.94076 -0.36300
Ni	Ni	0.70048 0.24388 0.62297 1.13100
O 	O 	0.68159 0.08490 0.98244 -0.06700
C 	C 	0.69848 0.86873 0.18302 -0.11200
C 	C 	0.70357 0.95459 0.32831 0.37100
O 	O 	0.70323 0.62097 0.51181 -0.05500
O 	O 	0.72772 0.36034 0.65747 -0.33900
F 	F 	0.71731 0.02605 0.30376 -0.42400
O 	O 	0.72684 0.32283 0.58135 -0.72000
C 	C 	0.71139 0.90681 0.14844 0.35700
F 	F 	0.74142 0.73891 0.70072 -0.41600
C 	C 	0.01571 0.28579 0.62099 -0.10800
C 	C 	0.74262 0.58973 0.68186 -0.08400
Ni	Ni	0.73158 0.31230 0.90439 1.12800
F 	F 	0.74495 0.87479 0.85577 -0.40800
Ni	Ni	0.74123 0.26896 0.53846 1.12100
C 	C 	0.75087 0.84377 0.35664 -0.07800
O 	O 	0.74697 0.35249 0.06458 -0.07200
C 	C 	0.75840 0.78765 0.90593 -0.08800
O 	O 	0.00797 0.86454 0.73394 -0.38900
C 	C 	0.76325 0.45919 0.65010 0.34000
C 	C 	0.76083 0.63286 0.92063 0.35500
O 	O 	0.76591 0.49297 0.61767 -0.37300
C 	C 	0.76465 0.91536 0.33049 -0.11200
O 	O 	0.76760 0.49366 0.54106 -0.33100
C 	C 	0.78272 0.68070 0.70075 0.35400
O 	O 	0.78149 0.59391 0.89394 -0.36100
O 	O 	0.78534 0.46932 0.83689 -0.34800
C 	C 	0.77947 0.89784 0.20572 0.35400
O 	O 	0.78450 0.48566 0.96217 -0.37600
C 	C 	0.78789 0.53225 0.67920 -0.10900
C 	C 	0.00620 0.12439 0.69732 0.33300
H 	H 	0.79155 0.37329 0.58630 0.16800
O 	O 	0.79539 0.51770 0.45811 -0.06300
C 	C 	0.79730 0.84840 0.87596 0.35100
F 	F 	0.79495 0.94315 0.13239 -0.38900
H 	H 	0.79903 0.81528 0.35926 0.12000
O 	O 	0.79799 0.96703 0.22939 -0.33200
O 	O 	0.79998 0.34694 0.95158 -0.34200
O 	O 	0.80104 0.27473 0.02888 -0.05900
C 	C 	0.80545 0.74328 0.92211 -0.11400
N 	N 	0.80665 0.35758 0.04119 -0.02300
C 	C 	0.00092 0.15197 0.66024 -0.12300
H 	H 	0.81068 0.37443 0.78404 0.12300
H 	H 	0.99926 0.00021 0.27182 0.13500
H 	H 	0.99381 0.28078 0.07847 0.13000
H 	H 	0.98976 0.58673 0.95581 0.10900
H 	H 	0.99510 0.33181 0.36585 0.13100
C 	C 	0.97576 0.56830 0.98363 -0.00400
O 	O 	0.98787 0.99389 0.24620 -0.67800
O 	O 	0.96515 0.09754 0.18777 -0.29200
F 	F 	0.97531 0.26284 0.30174 -0.40400
F 	F 	0.97653 0.69124 0.32327 -0.40000
O 	O 	0.98768 0.83612 0.28363 -0.31000
O 	O 	0.97328 0.80245 0.21019 -0.33300
F 	F 	0.91931 0.15044 0.12980 -0.38400
C 	C 	0.84839 0.45145 0.85092 0.36100
C 	C 	0.82303 0.43146 0.96909 0.33100
O 	O 	0.84420 0.43209 0.88445 -0.35600
C 	C 	0.84691 0.49512 0.53351 0.29300
C 	C 	0.86706 0.24599 0.59420 0.32500
O 	O 	0.85028 0.41076 0.52778 -0.34700
O 	O 	0.82460 0.21722 0.56299 -0.32500
O 	O 	0.83378 0.27725 0.62030 -0.34500
C 	C 	0.91785 0.81688 0.73338 0.37100
C 	C 	0.91979 0.90635 0.82884 0.32400
C 	C 	0.99181 0.21863 0.78852 0.33800
Ni	Ni	0.92064 0.00372 0.76081 1.13100
O 	O 	0.94746 0.03285 0.70895 -0.35100
O 	O 	0.87210 0.85289 0.75106 -0.32800
O 	O 	0.92836 0.14041 0.77002 -0.32100
O 	O 	0.96499 0.86594 0.81190 -0.33900
O 	O 	0.88784 0.95946 0.81162 -0.31100
C 	C 	0.83245 0.93640 0.30211 0.34800
Ni	Ni	0.93134 0.07518 0.24108 1.13200
Ni	Ni	0.90997 0.85071 0.24528 1.12500
O 	O 	0.88647 0.03241 0.29258 -0.32700
O 	O 	0.82047 0.85873 0.28157 -0.35100
O 	O 	0.82688 0.84875 0.20458 -0.33900
C 	C 	0.92791 0.59007 0.52301 -0.03900
C 	C 	0.93664 0.62077 0.48739 0.13100
N 	N 	0.85766 0.60772 0.46805 -0.02100
O 	O 	0.85487 0.68661 0.45608 -0.04300
C 	C 	0.93558 0.07989 0.63724 -0.07800
C 	C 	0.93528 0.21558 0.60359 -0.08400
C 	C 	0.90489 0.11210 0.60817 0.34600
F 	F 	0.83681 0.04286 0.58747 -0.41500
H 	H 	0.90408 0.99980 0.64318 0.13800
C 	C 	0.86879 0.56110 0.69869 0.34400
C 	C 	0.90860 0.65159 0.71794 -0.07400
C 	C 	0.86792 0.71415 0.71779 -0.12400
H 	H 	0.97253 0.67456 0.73207 0.10800
F 	F 	0.91199 0.50490 0.69726 -0.41100
C 	C 	0.90039 0.47458 0.99358 -0.06600
C 	C 	0.88011 0.45405 0.02987 0.09700
C 	C 	0.92837 0.53055 0.05485 0.01100
H 	H 	0.91402 0.51317 0.08271 0.08400
C 	C 	0.86818 0.37169 0.79646 -0.06100
C 	C 	0.90467 0.42280 0.82831 -0.14200
C 	C 	0.98316 0.42320 0.84268 0.39300
C 	C 	0.96977 0.29824 0.79964 -0.07200
C 	C 	0.90099 0.31036 0.78196 0.34100
F 	F 	0.86521 0.26195 0.75102 -0.39900
C 	C 	0.90234 0.79545 0.91915 0.35100
C 	C 	0.94322 0.85594 0.88922 -0.05500
C 	C 	0.88788 0.87392 0.86549 -0.11200
F 	F 	0.95314 0.76836 0.93987 -0.40700
