data_crystal

_cell_length_a 22.69631
_cell_length_b 22.51974
_cell_length_c 34.82585
_cell_angle_alpha 95.47637
_cell_angle_beta  95.47551
_cell_angle_gamma 125.99236

_symmetry_space_group_name_	'P 1'
_symmetry_space_group_name_H-M	'P 1'

loop_
_symmetry_equiv_pos_as_xyz
  x,y,z

loop_
_atom_site_label
_atom_site_type_symbol
_atom_site_fract_x
_atom_site_fract_y
_atom_site_fract_z
_atom_site_charge
C 	C 	0.94800 0.02076 0.98720 0.10000
N 	N 	0.90820 0.94887 0.99251 -0.13200
C 	C 	0.94158 0.91532 0.99720 0.11000
N 	N 	0.01533 0.95423 0.99695 -0.12600
C 	C 	0.05546 0.02646 0.99188 0.10900
N 	N 	0.02145 0.05929 0.98671 -0.12900
C 	C 	0.94938 0.01995 0.47379 0.09700
N 	N 	0.02418 0.06723 0.47671 -0.12900
C 	C 	0.06362 0.03976 0.47480 0.11100
N 	N 	0.02827 0.96503 0.46995 -0.12600
C 	C 	0.95379 0.91763 0.46742 0.10700
N 	N 	0.91423 0.94503 0.46947 -0.13100
Cu	Cu	0.61391 0.21209 0.00259 0.92900
Cu	Cu	0.66588 0.21405 0.91817 0.86600
Cu	Cu	0.64264 0.32179 0.94898 0.89500
Cu	Cu	0.62293 0.35471 0.02974 0.89300
C 	C 	0.64761 0.27400 0.08455 0.29100
O 	O 	0.50906 0.17312 0.00684 -0.36000
C 	C 	0.61472 0.27099 0.86389 0.28500
O 	O 	0.67447 0.32720 0.00315 -0.64400
O 	O 	0.59586 0.21370 0.94629 -0.64300
O 	O 	0.65351 0.15381 0.99794 -0.36700
O 	O 	0.73496 0.22950 0.96096 -0.43800
O 	O 	0.61411 0.30422 0.07543 -0.38200
O 	O 	0.69577 0.42852 0.95285 -0.38200
C 	C 	0.70995 0.47571 0.98440 0.28700
C 	C 	0.47899 0.20324 0.99215 0.28300
O 	O 	0.52146 0.27304 0.98726 -0.38800
O 	O 	0.66954 0.45264 0.01221 -0.39200
O 	O 	0.64871 0.22933 0.05767 -0.35800
C 	C 	0.71400 0.17957 0.98359 0.28700
O 	O 	0.61188 0.31133 0.89285 -0.37700
O 	O 	0.61958 0.21681 0.86996 -0.41200
H 	H 	0.72890 0.35952 0.01223 0.16200
H 	H 	0.54367 0.17999 0.93223 0.17900
Cu	Cu	0.75720 0.35569 0.45639 0.92900
Cu	Cu	0.73455 0.28128 0.53461 0.86600
Cu	Cu	0.63782 0.31655 0.50445 0.89400
Cu	Cu	0.61873 0.35052 0.42578 0.89900
C 	C 	0.70556 0.33299 0.37437 0.29100
O 	O 	0.79707 0.46408 0.45825 -0.35800
C 	C 	0.67625 0.32946 0.58975 0.28800
O 	O 	0.64093 0.29301 0.45038 -0.64000
O 	O 	0.74507 0.36135 0.51155 -0.64400
O 	O 	0.81355 0.31373 0.46060 -0.36900
O 	O 	0.72799 0.22134 0.48966 -0.43700
O 	O 	0.67808 0.36900 0.38376 -0.37800
O 	O 	0.53159 0.26583 0.49635 -0.38200
C 	C 	0.48928 0.25613 0.46389 0.28900
C 	C 	0.76262 0.48992 0.47222 0.27900
O 	O 	0.69219 0.44337 0.47412 -0.39400
O 	O 	0.51704 0.29837 0.43716 -0.38400
O 	O 	0.75086 0.33285 0.40098 -0.36100
C 	C 	0.78383 0.24854 0.47102 0.28700
O 	O 	0.63914 0.33571 0.56070 -0.37900
O 	O 	0.72682 0.31941 0.58398 -0.41300
H 	H 	0.60927 0.23899 0.43894 0.16500
H 	H 	0.77787 0.41138 0.52867 0.17900
C 	C 	0.64452 0.37064 0.77831 -0.04100
C 	C 	0.61595 0.31179 0.74630 0.02000
C 	C 	0.57716 0.23812 0.75268 -0.05900
C 	C 	0.57008 0.22318 0.79077 0.02300
C 	C 	0.60628 0.28302 0.82324 -0.08000
C 	C 	0.64053 0.35618 0.81660 0.00500
C 	C 	0.63244 0.32734 0.70666 0.02000
C 	C 	0.70578 0.36543 0.70081 -0.05900
C 	C 	0.72167 0.37260 0.66293 0.02300
C 	C 	0.66312 0.33732 0.63012 -0.08100
C 	C 	0.59031 0.30349 0.63618 0.00600
C 	C 	0.57488 0.29927 0.67427 -0.04100
C 	C 	0.79814 0.41883 0.65817 0.07300
C 	C 	0.49996 0.26612 0.67988 0.08800
C 	C 	0.67809 0.44596 0.77211 0.08800
C 	C 	0.52273 0.14650 0.79603 0.07500
N 	N 	0.85941 0.45591 0.65440 -0.11800
N 	N 	0.43995 0.23956 0.68440 -0.11600
N 	N 	0.48474 0.08505 0.80020 -0.11600
N 	N 	0.70500 0.50629 0.76711 -0.11600
H 	H 	0.66612 0.40215 0.84130 0.04300
H 	H 	0.55311 0.19246 0.72797 0.05100
H 	H 	0.75044 0.38894 0.72579 0.05100
H 	H 	0.54536 0.27849 0.61119 0.04200
C 	C 	0.72200 0.35225 0.19282 -0.04100
C 	C 	0.69613 0.28708 0.20834 0.02200
C 	C 	0.66106 0.21856 0.18278 -0.06100
C 	C 	0.64729 0.21354 0.14206 0.02600
C 	C 	0.67068 0.27847 0.12655 -0.08000
C 	C 	0.71008 0.34773 0.15212 0.00900
C 	C 	0.69720 0.28847 0.25105 0.02100
C 	C 	0.63162 0.26150 0.26527 -0.06000
C 	C 	0.63291 0.27115 0.30571 0.02400
C 	C 	0.70087 0.30988 0.33238 -0.08100
C 	C 	0.76560 0.33209 0.31822 0.01400
C 	C 	0.76390 0.32085 0.27771 -0.04100
C 	C 	0.56414 0.24022 0.31966 0.05600
C 	C 	0.83087 0.34351 0.26371 0.09000
C 	C 	0.75843 0.42357 0.21852 0.08900
C 	C 	0.60612 0.14111 0.11674 0.08000
N 	N 	0.50909 0.21546 0.33085 -0.12400
N 	N 	0.88451 0.36167 0.25246 -0.11800
N 	N 	0.57315 0.08307 0.09650 -0.10900
N 	N 	0.78760 0.48066 0.23913 -0.11700
H 	H 	0.72914 0.39784 0.14033 0.02800
H 	H 	0.64166 0.16853 0.19472 0.05200
H 	H 	0.57983 0.23439 0.24477 0.05300
H 	H 	0.81765 0.36017 0.33863 0.04500
C 	C 	0.91610 0.83672 0.46086 -0.00300
C 	C 	0.92611 0.80272 0.42887 -0.02800
C 	C 	0.89945 0.72819 0.42524 -0.03800
C 	C 	0.86269 0.68684 0.45371 0.00200
C 	C 	0.85116 0.72034 0.48562 0.03200
C 	C 	0.87756 0.79517 0.48889 -0.05300
C 	C 	0.81404 0.67875 0.51397 -0.06300
C 	C 	0.78758 0.60419 0.51035 0.00900
C 	C 	0.79847 0.57058 0.47857 -0.07500
C 	C 	0.83688 0.61231 0.45056 -0.01400
H 	H 	0.95584 0.83459 0.40715 0.04300
H 	H 	0.90811 0.70292 0.40051 0.04300
H 	H 	0.87019 0.82162 0.51372 0.05000
H 	H 	0.80511 0.70389 0.53864 0.04800
H 	H 	0.75787 0.57223 0.53205 0.03400
H 	H 	0.84458 0.58613 0.42575 0.04700
C 	C 	0.81648 0.20846 0.46433 -0.08400
C 	C 	0.87071 0.23282 0.44071 0.01300
C 	C 	0.90582 0.19887 0.43681 -0.06700
C 	C 	0.88704 0.13994 0.45634 0.03500
C 	C 	0.83093 0.11348 0.47909 -0.00500
C 	C 	0.79574 0.14770 0.48291 -0.01400
C 	C 	0.81173 0.05406 0.49835 -0.03400
C 	C 	0.84925 0.02240 0.49586 -0.04200
C 	C 	0.90643 0.04984 0.47416 0.00200
C 	C 	0.92449 0.10791 0.45394 -0.05900
H 	H 	0.88623 0.27855 0.42562 0.04200
H 	H 	0.94816 0.21899 0.41890 0.04800
H 	H 	0.75353 0.12812 0.50090 0.03100
H 	H 	0.76840 0.03295 0.51566 0.03500
H 	H 	0.83490 0.97758 0.51150 0.05100
H 	H 	0.96786 0.12837 0.43664 0.05100
C 	C 	0.14417 0.09048 0.47682 -0.00300
C 	C 	0.18925 0.15311 0.50723 -0.02800
C 	C 	0.26640 0.19777 0.51114 -0.03600
C 	C 	0.29918 0.18052 0.48446 0.00100
C 	C 	0.25383 0.11860 0.45318 0.03400
C 	C 	0.17653 0.07378 0.44960 -0.05300
C 	C 	0.28646 0.10226 0.42599 -0.06400
C 	C 	0.36351 0.14699 0.42979 0.01100
C 	C 	0.40872 0.20777 0.46109 -0.07500
C 	C 	0.37660 0.22442 0.48848 -0.00800
H 	H 	0.16456 0.16620 0.52836 0.04700
H 	H 	0.30060 0.24542 0.53506 0.04400
H 	H 	0.14157 0.02579 0.42586 0.05100
H 	H 	0.25220 0.05511 0.40181 0.04900
H 	H 	0.38817 0.13436 0.40841 0.03000
H 	H 	0.41173 0.27200 0.51242 0.04400
C 	C 	0.76249 0.55686 0.98494 -0.07300
C 	C 	0.82005 0.58391 0.96343 0.01000
C 	C 	0.86873 0.66024 0.96286 -0.06500
C 	C 	0.86061 0.71061 0.98383 0.03300
C 	C 	0.80375 0.68405 0.00612 -0.00100
C 	C 	0.75502 0.60732 0.00664 -0.01500
C 	C 	0.79556 0.73441 0.02706 -0.03900
C 	C 	0.84211 0.81023 0.02506 -0.02700
C 	C 	0.89757 0.83672 0.00220 -0.00900
C 	C 	0.90760 0.78701 0.98216 -0.05000
H 	H 	0.82715 0.54575 0.94714 0.03100
H 	H 	0.91246 0.68005 0.94590 0.04600
H 	H 	0.71074 0.58686 0.02329 0.04400
H 	H 	0.75260 0.71478 0.04454 0.04100
H 	H 	0.83464 0.84837 0.04104 0.04400
H 	H 	0.95033 0.80732 0.96444 0.04800
C 	C 	0.75599 0.14944 0.99108 -0.07900
C 	C 	0.74418 0.10895 0.02151 0.00800
C 	C 	0.78002 0.07606 0.02699 -0.06400
C 	C 	0.82845 0.08355 0.00229 0.03000
C 	C 	0.84206 0.12577 0.97228 0.00100
C 	C 	0.80580 0.15853 0.96682 -0.01600
C 	C 	0.89114 0.13396 0.94784 -0.03900
C 	C 	0.92593 0.09993 0.95288 -0.03200
C 	C 	0.91177 0.05703 0.98227 -0.00100
C 	C 	0.86320 0.04910 0.00704 -0.05700
H 	H 	0.70690 0.10261 0.04082 0.04700
H 	H 	0.76977 0.04444 0.05035 0.04800
H 	H 	0.81527 0.18981 0.94334 0.03000
H 	H 	0.90216 0.16641 0.92481 0.03600
H 	H 	0.96328 0.10620 0.93363 0.04200
H 	H 	0.85291 0.01664 0.03004 0.04900
C 	C 	0.13623 0.07019 0.99348 0.00400
C 	C 	0.18282 0.14728 0.00890 -0.03400
C 	C 	0.25910 0.18942 0.00993 -0.03600
C 	C 	0.29002 0.15501 0.99586 -0.00200
C 	C 	0.24361 0.07749 0.98033 0.04200
C 	C 	0.16681 0.03543 0.97908 -0.06500
C 	C 	0.27479 0.04297 0.96672 -0.07600
C 	C 	0.35156 0.08466 0.96944 0.01900
C 	C 	0.39794 0.16143 0.98539 -0.07900
C 	C 	0.36692 0.19675 0.99791 -0.00400
H 	H 	0.15994 0.17453 0.02039 0.04800
H 	H 	0.29420 0.24877 0.02199 0.04000
H 	H 	0.13098 0.97610 0.96678 0.06000
H 	H 	0.23975 0.98368 0.95453 0.05700
H 	H 	0.37510 0.05713 0.95948 0.03000
H 	H 	0.40275 0.25599 0.01042 0.03400
