data_crystal

_cell_length_a 26.70890
_cell_length_b 28.15266
_cell_length_c 40.30845
_cell_angle_alpha 60.93487
_cell_angle_beta  118.78103
_cell_angle_gamma 133.27134

_symmetry_space_group_name_	'P 1'
_symmetry_space_group_name_H-M	'P 1'

loop_
_symmetry_equiv_pos_as_xyz
  x,y,z

loop_
_atom_site_label
_atom_site_type_symbol
_atom_site_fract_x
_atom_site_fract_y
_atom_site_fract_z
_atom_site_charge
C 	C 	0.70845 0.31302 0.99641 0.11900
N 	N 	0.64445 0.26997 0.00535 -0.13800
C 	C 	0.62785 0.28882 0.02152 0.12400
N 	N 	0.67546 0.35024 0.02925 -0.14000
C 	C 	0.73948 0.39328 0.02065 0.12400
N 	N 	0.75583 0.37513 0.00375 -0.13700
C 	C 	0.74498 0.32034 0.51028 0.12400
N 	N 	0.67586 0.28196 0.51043 -0.13900
C 	C 	0.65173 0.30603 0.51644 0.12400
N 	N 	0.69670 0.36900 0.52190 -0.13900
C 	C 	0.76599 0.40739 0.52229 0.12400
N 	N 	0.79038 0.38292 0.51676 -0.13500
C 	C 	0.26487 0.64118 0.21050 0.12200
N 	N 	0.33419 0.67643 0.21209 -0.13800
C 	C 	0.35692 0.64859 0.20865 0.12400
N 	N 	0.31017 0.58517 0.20360 -0.13700
C 	C 	0.24057 0.55001 0.20120 0.12200
N 	N 	0.21773 0.57812 0.20447 -0.13900
C 	C 	0.29731 0.62376 0.72857 0.12300
N 	N 	0.36817 0.66095 0.73317 -0.13900
C 	C 	0.39530 0.63841 0.72842 0.12300
N 	N 	0.35139 0.57842 0.71916 -0.13900
C 	C 	0.28061 0.54118 0.71451 0.12300
N 	N 	0.25362 0.56361 0.71945 -0.13800
Co	Co	0.06640 0.01966 0.07606 1.18200
Co	Co	0.92619 0.94384 0.14357 1.18900
Co	Co	0.00513 0.07448 0.09120 1.17900
Co	Co	0.98065 0.88626 0.12450 1.19300
C 	C 	0.20311 0.03312 0.10866 0.28600
Co	Co	0.07742 0.90409 0.08694 1.16600
Co	Co	0.91423 0.05983 0.13129 1.16900
C 	C 	0.92292 0.79471 0.07500 0.29400
O 	O 	0.86220 0.06646 0.07301 -0.39000
O 	O 	0.94558 0.02070 0.11869 -0.76300
C 	C 	0.89664 0.10814 0.04476 0.29400
O 	O 	0.07247 0.10146 0.06503 -0.47100
O 	O 	0.92381 0.86321 0.15654 -0.46100
C 	C 	0.78871 0.91583 0.13218 0.30400
O 	O 	0.97297 0.97340 0.09682 -0.57000
C 	C 	0.06499 0.17535 0.12952 0.30300
C 	C 	0.06656 0.99784 0.00982 0.33200
C 	C 	0.06962 0.83755 0.16997 0.30400
O 	O 	0.95166 0.11488 0.04546 -0.36800
O 	O 	0.10684 0.97884 0.03631 -0.41000
O 	O 	0.04666 0.02108 0.01890 -0.39800
O 	O 	0.82683 0.96489 0.14903 -0.40200
O 	O 	0.81833 0.89621 0.12857 -0.38600
O 	O 	0.00058 0.15880 0.11662 -0.41300
O 	O 	0.07719 0.13809 0.12844 -0.40200
O 	O 	0.05412 0.82672 0.13708 -0.41000
O 	O 	0.05526 0.87364 0.17037 -0.39900
O 	O 	0.03404 0.93815 0.09349 -0.76900
C 	C 	0.96522 0.99447 0.21034 0.31300
O 	O 	0.97263 0.05111 0.18818 -0.38900
O 	O 	0.97335 0.96355 0.19885 -0.38600
O 	O 	0.17457 0.96852 0.11840 -0.38600
O 	O 	0.16973 0.05364 0.10726 -0.39400
O 	O 	0.97521 0.84404 0.05697 -0.38200
O 	O 	0.91224 0.80345 0.10017 -0.37100
Co	Co	0.05735 0.99965 0.57240 1.18700
Co	Co	0.94396 0.93670 0.65251 1.19000
Co	Co	0.00917 0.06081 0.59298 1.17900
Co	Co	0.99741 0.87773 0.63422 1.19400
C 	C 	0.19032 0.03122 0.57268 0.29700
Co	Co	0.07087 0.88411 0.58612 1.16300
Co	Co	0.93029 0.05312 0.63759 1.16900
C 	C 	0.92849 0.76645 0.60181 0.30400
O 	O 	0.93764 0.11952 0.58290 -0.39600
O 	O 	0.96907 0.01582 0.62982 -0.76400
C 	C 	0.91214 0.09935 0.55157 0.30200
O 	O 	0.05619 0.07894 0.55697 -0.47600
O 	O 	0.94246 0.85618 0.66683 -0.46100
C 	C 	0.80537 0.91490 0.63035 0.29600
O 	O 	0.02657 0.97989 0.62360 -0.58700
C 	C 	0.08703 0.16174 0.64121 0.29000
C 	C 	0.00168 0.93415 0.50896 0.26500
C 	C 	0.11350 0.85429 0.67288 0.29300
O 	O 	0.92435 0.06107 0.55186 -0.39100
O 	O 	0.99887 0.88026 0.53291 -0.37000
O 	O 	0.99723 0.96815 0.52018 -0.36700
O 	O 	0.82921 0.97849 0.61489 -0.38600
O 	O 	0.83623 0.89288 0.63050 -0.38900
O 	O 	0.03588 0.12286 0.65978 -0.39700
O 	O 	0.07734 0.15204 0.60871 -0.38300
O 	O 	0.13784 0.89151 0.64089 -0.39000
O 	O 	0.06225 0.84763 0.67714 -0.38100
O 	O 	0.04520 0.92639 0.60049 -0.77100
C 	C 	0.96136 0.97464 0.71775 0.32600
O 	O 	0.91637 0.98875 0.69277 -0.40400
O 	O 	0.97902 0.94988 0.70817 -0.38200
O 	O 	0.14842 0.97743 0.55934 -0.40200
O 	O 	0.16412 0.05147 0.57899 -0.39000
O 	O 	0.99328 0.78632 0.60994 -0.39900
O 	O 	0.91735 0.80381 0.60381 -0.39400
C 	C 	0.02640 0.99418 0.89930 -0.00700
C 	C 	0.07356 0.04871 0.87516 -0.04300
C 	C 	0.06451 0.04247 0.83989 -0.03400
C 	C 	0.00847 0.98157 0.82865 -0.02700
C 	C 	0.96147 0.92701 0.85286 -0.01500
C 	C 	0.97047 0.93326 0.88809 -0.02500
C 	C 	0.03918 0.99855 0.93722 0.05000
C 	C 	0.05082 0.99994 0.96978 -0.11200
C 	C 	0.99472 0.97736 0.79048 0.07100
C 	C 	0.98106 0.97501 0.75779 -0.11000
H 	H 	0.11740 0.09573 0.88378 0.04200
H 	H 	0.10063 0.08516 0.82117 0.03600
H 	H 	0.91757 0.88000 0.84423 0.04100
H 	H 	0.93426 0.89061 0.90676 0.04300
C 	C 	0.97819 0.96279 0.32353 0.02000
C 	C 	0.04153 0.00879 0.34507 -0.05200
C 	C 	0.04391 0.00691 0.38114 -0.05800
C 	C 	0.98293 0.95914 0.39588 0.02800
C 	C 	0.91960 0.91301 0.37440 -0.03800
C 	C 	0.91718 0.91495 0.33828 -0.03400
C 	C 	0.97394 0.96976 0.28446 0.04500
C 	C 	0.97026 0.97871 0.25108 -0.09300
C 	C 	0.98731 0.95291 0.43481 0.03100
C 	C 	0.99268 0.94592 0.46815 -0.06800
H 	H 	0.08872 0.04646 0.33372 0.04300
H 	H 	0.09330 0.04222 0.39774 0.04400
H 	H 	0.87242 0.87536 0.38577 0.04700
H 	H 	0.86778 0.87973 0.32164 0.04400
C 	C 	0.19785 0.36667 0.70666 0.00000
C 	C 	0.20131 0.31354 0.71754 -0.05500
C 	C 	0.20180 0.29983 0.68857 0.01600
C 	C 	0.20719 0.34363 0.65103 0.00100
C 	C 	0.20645 0.39845 0.64077 -0.05900
C 	C 	0.20303 0.41019 0.66941 0.02400
S 	S 	0.22093 0.40612 0.73692 0.00400
C 	C 	0.23343 0.47714 0.70395 -0.01900
C 	C 	0.22338 0.47275 0.66772 -0.04700
S 	S 	0.17165 0.29934 0.62014 0.02400
C 	C 	0.15055 0.22528 0.65201 -0.07300
C 	C 	0.17122 0.23384 0.68917 -0.02100
H 	H 	0.19866 0.28106 0.74676 0.04600
H 	H 	0.20805 0.43057 0.61145 0.04700
H 	H 	0.24022 0.51585 0.64305 0.04800
H 	H 	0.15303 0.19168 0.71410 0.04200
C 	C 	0.66976 0.77369 0.69549 0.00100
C 	C 	0.61113 0.71216 0.70969 -0.05600
C 	C 	0.57453 0.71375 0.72464 0.02500
C 	C 	0.59436 0.77569 0.72302 0.00200
C 	C 	0.64486 0.83636 0.70263 -0.05400
C 	C 	0.68357 0.83476 0.68953 0.01800
S 	S 	0.70592 0.78564 0.66567 0.03100
C 	C 	0.74078 0.86755 0.64486 -0.07500
C 	C 	0.72350 0.88752 0.66121 -0.01900
S 	S 	0.52654 0.76188 0.72770 0.00800
C 	C 	0.47213 0.67833 0.73409 -0.01900
C 	C 	0.50539 0.65879 0.73067 -0.04600
H 	H 	0.59279 0.66524 0.70759 0.05000
H 	H 	0.65103 0.88234 0.69536 0.04900
H 	H 	0.74149 0.93873 0.65414 0.03900
H 	H 	0.47804 0.60931 0.72762 0.05200
C 	C 	0.18668 0.67670 0.71778 -0.00100
C 	C 	0.13527 0.67493 0.72064 -0.05500
C 	C 	0.15611 0.73310 0.72532 0.01500
C 	C 	0.22795 0.78837 0.73082 0.00100
C 	C 	0.27945 0.78901 0.72885 -0.05900
C 	C 	0.25799 0.73139 0.72337 0.02500
S 	S 	0.18108 0.61025 0.72439 0.00600
C 	C 	0.26806 0.64844 0.73365 -0.01800
C 	C 	0.30420 0.71615 0.73171 -0.04800
S 	S 	0.23132 0.85642 0.71652 0.02800
C 	C 	0.14451 0.81983 0.70481 -0.07300
C 	C 	0.10936 0.75071 0.71121 -0.02300
H 	H 	0.08035 0.63172 0.71682 0.04400
H 	H 	0.33417 0.83273 0.73157 0.05000
H 	H 	0.36108 0.75270 0.73605 0.05200
H 	H 	0.05328 0.71730 0.69921 0.03900
C 	C 	0.14439 0.40882 0.15224 -0.00000
C 	C 	0.14232 0.39011 0.12490 -0.05400
C 	C 	0.15613 0.34280 0.13879 0.01500
C 	C 	0.17736 0.31982 0.17906 0.00200
C 	C 	0.18124 0.34009 0.20640 -0.05900
C 	C 	0.16690 0.38703 0.19238 0.02400
S 	S 	0.15845 0.48036 0.14443 0.00400
C 	C 	0.18948 0.48501 0.19091 -0.01900
C 	C 	0.19255 0.42986 0.21427 -0.04700
S 	S 	0.15641 0.24507 0.18655 0.02200
C 	C 	0.12389 0.24006 0.14005 -0.07600
C 	C 	0.12720 0.29865 0.11683 -0.01800
H 	H 	0.12708 0.40911 0.09388 0.04600
H 	H 	0.19604 0.32087 0.23744 0.04800
H 	H 	0.22232 0.42692 0.24436 0.04800
H 	H 	0.09811 0.30308 0.08665 0.04100
C 	C 	0.59997 0.83389 0.13446 0.00400
C 	C 	0.56139 0.83218 0.14979 -0.05800
C 	C 	0.52783 0.77580 0.17905 0.02600
C 	C 	0.53576 0.72429 0.19361 0.00000
C 	C 	0.57408 0.72571 0.17831 -0.05300
C 	C 	0.60943 0.78307 0.14981 0.01600
S 	S 	0.66892 0.90416 0.11612 0.02200
C 	C 	0.71148 0.87371 0.12500 -0.07400
C 	C 	0.67205 0.80538 0.14435 -0.01600
S 	S 	0.46908 0.65500 0.21433 0.01000
C 	C 	0.43123 0.68845 0.20828 -0.01900
C 	C 	0.46915 0.75589 0.18747 -0.04600
H 	H 	0.55686 0.87293 0.13892 0.04900
H 	H 	0.57906 0.68518 0.18948 0.04900
H 	H 	0.69354 0.77666 0.15979 0.04600
H 	H 	0.44922 0.78573 0.17388 0.05100
C 	C 	0.24307 0.74472 0.23497 0.00100
C 	C 	0.24519 0.79870 0.23026 -0.05500
C 	C 	0.18485 0.78473 0.23207 0.01700
C 	C 	0.12342 0.71826 0.23696 0.00200
C 	C 	0.11838 0.66589 0.23592 -0.05800
C 	C 	0.17963 0.67947 0.23579 0.02400
S 	S 	0.29471 0.75149 0.21862 0.00700
C 	C 	0.24067 0.67329 0.21282 -0.02000
C 	C 	0.17875 0.63854 0.22409 -0.04800
S 	S 	0.05585 0.72245 0.21947 0.01900
C 	C 	0.09967 0.80619 0.20619 -0.07400
C 	C 	0.17165 0.83387 0.21544 -0.02100
H 	H 	0.29029 0.85011 0.22266 0.04800
H 	H 	0.06762 0.61784 0.23250 0.04600
H 	H 	0.13416 0.58698 0.22272 0.04900
H 	H 	0.21052 0.88629 0.20363 0.04500
C 	C 	0.83129 0.27927 0.48126 0.00100
C 	C 	0.88265 0.27481 0.48448 -0.05200
C 	C 	0.86136 0.21230 0.48603 0.01700
C 	C 	0.79074 0.15562 0.48588 0.00200
C 	C 	0.74206 0.15839 0.48817 -0.05800
C 	C 	0.76264 0.22124 0.48513 0.02500
S 	S 	0.84867 0.33747 0.49490 0.01400
C 	C 	0.77108 0.29235 0.50540 -0.01900
C 	C 	0.72820 0.22897 0.49808 -0.04700
S 	S 	0.79051 0.08808 0.50669 0.02400
C 	C 	0.87693 0.12581 0.51549 -0.07300
C 	C 	0.90939 0.19554 0.50196 -0.01700
H 	H 	0.93803 0.31709 0.48854 0.05100
H 	H 	0.69198 0.11264 0.49510 0.04800
H 	H 	0.67590 0.18894 0.50378 0.05000
H 	H 	0.96607 0.23229 0.51023 0.04800
C 	C 	0.85794 0.54379 0.57369 0.00100
C 	C 	0.85971 0.55877 0.60282 -0.05300
C 	C 	0.84122 0.60173 0.59127 0.01700
C 	C 	0.81529 0.62342 0.55161 0.00000
C 	C 	0.81149 0.60652 0.52254 -0.05700
C 	C 	0.83105 0.56441 0.53421 0.02500
S 	S 	0.84939 0.47618 0.57945 0.01200
C 	C 	0.81533 0.47206 0.53271 -0.01800
C 	C 	0.80697 0.52420 0.51103 -0.04600
S 	S 	0.83207 0.69542 0.54580 0.03100
C 	C 	0.86916 0.70106 0.59231 -0.07600
C 	C 	0.86999 0.64442 0.61420 -0.01700
H 	H 	0.87855 0.54069 0.63336 0.04900
H 	H 	0.79316 0.62488 0.49196 0.04900
H 	H 	0.77444 0.52592 0.48159 0.04900
H 	H 	0.90232 0.64135 0.64361 0.04400
C 	C 	0.37170 0.17197 0.54452 0.00000
C 	C 	0.43871 0.23239 0.54068 -0.05700
C 	C 	0.49042 0.22914 0.54290 0.02500
C 	C 	0.47648 0.16661 0.55211 0.00100
C 	C 	0.40962 0.10630 0.55629 -0.05500
C 	C 	0.35806 0.10970 0.55392 0.01500
S 	S 	0.31171 0.15937 0.55693 0.02800
C 	C 	0.26587 0.07544 0.57367 -0.07700
C 	C 	0.29815 0.05522 0.56990 -0.01800
S 	S 	0.53348 0.17868 0.53732 0.00500
C 	C 	0.57842 0.26226 0.51982 -0.02000
C 	C 	0.54880 0.28331 0.52543 -0.04600
H 	H 	0.44923 0.28020 0.53437 0.04900
H 	H 	0.39875 0.05845 0.56224 0.04500
H 	H 	0.27859 0.00325 0.57789 0.03600
H 	H 	0.56749 0.33516 0.51651 0.05100
C 	C 	0.85643 0.23973 0.97743 -0.00000
C 	C 	0.86049 0.29309 0.97588 -0.05700
C 	C 	0.79705 0.28335 0.96771 0.02500
C 	C 	0.73191 0.22050 0.96317 0.00100
C 	C 	0.72910 0.16456 0.97112 -0.05500
C 	C 	0.79215 0.17503 0.97743 0.01800
S 	S 	0.92143 0.23077 0.00146 0.03200
C 	C 	0.87242 0.14700 0.01094 -0.07000
C 	C 	0.80111 0.12282 0.99650 -0.02300
S 	S 	0.67250 0.21629 0.97025 0.00800
C 	C 	0.72464 0.29353 0.97700 -0.01800
C 	C 	0.79314 0.32451 0.97571 -0.04700
H 	H 	0.91115 0.33896 0.98312 0.05000
H 	H 	0.68050 0.11420 0.97469 0.04700
H 	H 	0.75811 0.07034 0.00458 0.04600
H 	H 	0.83944 0.37004 0.98543 0.05300
C 	C 	0.80755 0.56610 0.01854 0.00300
C 	C 	0.83592 0.63409 0.00862 -0.05200
C 	C 	0.86022 0.66175 0.03874 0.01600
C 	C 	0.86124 0.62384 0.07747 0.00100
C 	C 	0.83294 0.55587 0.08733 -0.05600
C 	C 	0.80870 0.52831 0.05721 0.02600
S 	S 	0.79608 0.52733 0.99236 0.00700
C 	C 	0.78925 0.46012 0.02821 -0.01800
C 	C 	0.79850 0.46877 0.06286 -0.04500
S 	S 	0.87010 0.66145 0.10329 0.03100
C 	C 	0.87600 0.72819 0.06735 -0.07200
C 	C 	0.86873 0.72050 0.03291 -0.02000
H 	H 	0.83626 0.66333 0.97862 0.04800
H 	H 	0.83208 0.52641 0.11728 0.05000
H 	H 	0.79228 0.43091 0.09027 0.05000
H 	H 	0.87367 0.75786 0.00535 0.04700
C 	C 	0.48029 0.16775 0.07758 0.00100
C 	C 	0.42355 0.10863 0.09437 -0.05500
C 	C 	0.36849 0.10935 0.08948 0.01500
C 	C 	0.36808 0.16537 0.06623 0.00300
C 	C 	0.42472 0.22477 0.04969 -0.05800
C 	C 	0.47981 0.22424 0.05418 0.02600
S 	S 	0.53313 0.17108 0.06458 0.00500
C 	C 	0.55839 0.24348 0.03015 -0.01900
C 	C 	0.52450 0.26728 0.02795 -0.04600
S 	S 	0.30739 0.15760 0.07448 0.02200
C 	C 	0.27751 0.08217 0.10667 -0.07200
C 	C 	0.31757 0.06216 0.11220 -0.02300
H 	H 	0.42283 0.06431 0.11101 0.04500
H 	H 	0.42402 0.26818 0.03208 0.05000
H 	H 	0.53250 0.31421 0.00851 0.05000
H 	H 	0.30770 0.01398 0.13023 0.04100
