data_crystal

_cell_length_a 18.33532
_cell_length_b 18.61892
_cell_length_c 32.84611
_cell_angle_alpha 95.43687
_cell_angle_beta  95.43787
_cell_angle_gamma 126.40134

_symmetry_space_group_name_	'P 1'
_symmetry_space_group_name_H-M	'P 1'

loop_
_symmetry_equiv_pos_as_xyz
  x,y,z

loop_
_atom_site_label
_atom_site_type_symbol
_atom_site_fract_x
_atom_site_fract_y
_atom_site_fract_z
_atom_site_charge
C 	C 	0.90173 0.00376 0.96288 0.11700
N 	N 	0.84992 0.91180 0.95871 -0.13700
C 	C 	0.89006 0.87004 0.95325 0.12300
N 	N 	0.98176 0.92049 0.95279 -0.13200
C 	C 	0.03404 0.01245 0.95924 0.10700
N 	N 	0.99365 0.05370 0.96357 -0.13500
C 	C 	0.94229 0.02756 0.49004 0.11900
N 	N 	0.89532 0.93637 0.48008 -0.14000
C 	C 	0.93952 0.89903 0.48520 0.12800
N 	N 	0.03256 0.95367 0.49769 -0.14000
C 	C 	0.08102 0.04535 0.50503 0.11400
N 	N 	0.03549 0.08235 0.50331 -0.14400
Cu	Cu	0.76670 0.35667 0.96203 0.92900
Cu	Cu	0.76659 0.32058 0.05772 0.87000
Cu	Cu	0.61146 0.30566 0.00879 0.89400
Cu	Cu	0.57945 0.30872 0.91775 0.89500
C 	C 	0.71329 0.30665 0.87282 0.26000
O 	O 	0.79712 0.47668 0.95059 -0.35600
C 	C 	0.66238 0.35602 0.10119 0.25200
O 	O 	0.62297 0.26573 0.95503 -0.63600
O 	O 	0.74871 0.38184 0.01834 -0.64500
O 	O 	0.84472 0.31777 0.97748 -0.37200
O 	O 	0.75088 0.22748 0.01965 -0.44500
O 	O 	0.65901 0.33085 0.87548 -0.37100
O 	O 	0.47843 0.22513 0.99721 -0.38500
C 	C 	0.42489 0.21791 0.96462 0.30100
C 	C 	0.74399 0.50052 0.95824 0.28700
O 	O 	0.65715 0.43807 0.96039 -0.39600
O 	O 	0.45091 0.23129 0.92811 -0.39300
O 	O 	0.76289 0.31171 0.90636 -0.35300
C 	C 	0.81165 0.24730 0.99592 0.30100
O 	O 	0.60124 0.33004 0.06717 -0.37200
O 	O 	0.74573 0.38158 0.09917 -0.40100
H 	H 	0.59298 0.19986 0.94822 0.16800
H 	H 	0.77961 0.44673 0.02954 0.17100
Cu	Cu	0.60878 0.19266 0.51217 0.92700
Cu	Cu	0.61007 0.16342 0.41196 0.86900
Cu	Cu	0.64608 0.33176 0.45849 0.89700
Cu	Cu	0.67139 0.38680 0.55067 0.89400
C 	C 	0.69680 0.27245 0.59804 0.25700
O 	O 	0.49519 0.17065 0.53072 -0.36200
C 	C 	0.57136 0.26383 0.36817 0.24900
O 	O 	0.70127 0.33205 0.51143 -0.63800
O 	O 	0.56665 0.19760 0.45564 -0.64200
O 	O 	0.63935 0.10863 0.49627 -0.37500
O 	O 	0.71169 0.18047 0.44473 -0.44400
O 	O 	0.66830 0.32284 0.59666 -0.37800
O 	O 	0.73063 0.46173 0.46309 -0.38800
C 	C 	0.74522 0.52186 0.49413 0.30000
C 	C 	0.46989 0.22200 0.52302 0.28700
O 	O 	0.53055 0.30444 0.51616 -0.39800
O 	O 	0.74161 0.50669 0.53271 -0.39300
O 	O 	0.66910 0.20701 0.56658 -0.34300
C 	C 	0.70016 0.12937 0.47216 0.29400
O 	O 	0.60077 0.32803 0.40081 -0.37000
O 	O 	0.54182 0.18162 0.37261 -0.40000
H 	H 	0.76775 0.36008 0.51437 0.16700
H 	H 	0.49995 0.16866 0.44860 0.17100
C 	C 	0.72987 0.23145 0.69750 0.11300
C 	C 	0.68349 0.18865 0.72937 -0.08600
C 	C 	0.70024 0.24400 0.76654 0.00700
C 	C 	0.76483 0.33642 0.77355 0.11800
C 	C 	0.81342 0.37958 0.74251 -0.09100
C 	C 	0.79556 0.32500 0.70463 0.01400
O 	O 	0.69095 0.19248 0.65570 -0.18700
C 	C 	0.73636 0.27134 0.63869 0.04600
C 	C 	0.79932 0.35025 0.66750 -0.06400
O 	O 	0.79312 0.37760 0.81521 -0.18900
C 	C 	0.73861 0.29985 0.83254 0.04500
C 	C 	0.68555 0.21949 0.80369 -0.06200
H 	H 	0.63216 0.11556 0.72432 0.06300
H 	H 	0.86287 0.45290 0.74750 0.06500
H 	H 	0.82162 0.41707 0.66317 0.04700
H 	H 	0.62643 0.15493 0.80878 0.04300
C 	C 	0.66816 0.36511 0.20725 0.11500
C 	C 	0.69556 0.40044 0.25014 -0.09000
C 	C 	0.64582 0.34011 0.27662 0.00400
C 	C 	0.56608 0.25408 0.26167 0.11200
C 	C 	0.53258 0.22273 0.21863 -0.09000
C 	C 	0.58961 0.27844 0.19230 0.00200
O 	O 	0.70189 0.41820 0.17700 -0.19300
C 	C 	0.63603 0.35357 0.14207 0.03700
C 	C 	0.56550 0.27167 0.15163 -0.05900
O 	O 	0.51305 0.21354 0.29151 -0.19600
C 	C 	0.57010 0.28409 0.32613 0.03700
C 	C 	0.64685 0.36188 0.31672 -0.06000
H 	H 	0.75166 0.47149 0.26216 0.06300
H 	H 	0.46512 0.15903 0.20636 0.06000
H 	H 	0.51962 0.20804 0.12959 0.04200
H 	H 	0.70797 0.41592 0.33911 0.04800
C 	C 	0.86033 0.65667 0.46559 -0.02900
C 	C 	0.78728 0.61508 0.48756 -0.10300
C 	C 	0.75884 0.66497 0.50520 0.11800
C 	C 	0.81054 0.75802 0.50463 -0.07300
C 	C 	0.88512 0.80036 0.48363 -0.03300
C 	C 	0.90717 0.74808 0.46202 0.08100
N 	N 	0.97041 0.78401 0.43669 -0.19400
H 	H 	0.88054 0.61775 0.45108 0.04700
H 	H 	0.79203 0.79752 0.52025 0.05500
N 	N 	0.68059 0.62345 0.52153 -0.20100
H 	H 	0.98966 0.74635 0.42264 0.08500
H 	H 	0.99664 0.84696 0.42863 0.09400
H 	H 	0.63419 0.55278 0.51757 0.08500
H 	H 	0.66264 0.66164 0.53632 0.08400
C 	C 	0.80860 0.01793 0.50760 -0.08300
C 	C 	0.88988 0.06471 0.49105 -0.02900
C 	C 	0.91071 0.13612 0.47002 0.07500
C 	C 	0.85118 0.16033 0.46734 -0.03200
C 	C 	0.76483 0.10636 0.47951 -0.10900
C 	C 	0.74168 0.03126 0.49800 0.11900
N 	N 	0.65388 0.96748 0.50305 -0.19600
H 	H 	0.79285 0.96391 0.52409 0.06200
H 	H 	0.87015 0.21864 0.45366 0.04400
N 	N 	0.98502 0.17915 0.45093 -0.18800
H 	H 	0.63995 0.91879 0.52106 0.08800
H 	H 	0.59790 0.95816 0.48501 0.09500
H 	H 	0.02102 0.15318 0.44557 0.08500
H 	H 	0.00320 0.23590 0.43825 0.07500
C 	C 	0.23370 0.12081 0.54984 -0.07600
C 	C 	0.18250 0.10384 0.51083 -0.03100
C 	C 	0.22745 0.13138 0.47636 0.07500
C 	C 	0.32215 0.17225 0.48136 -0.03200
C 	C 	0.37234 0.18526 0.51990 -0.10600
C 	C 	0.32855 0.16205 0.55487 0.12000
N 	N 	0.37711 0.18011 0.59333 -0.20300
H 	H 	0.19928 0.10021 0.57623 0.05300
H 	H 	0.35637 0.19198 0.45486 0.03600
N 	N 	0.17997 0.11752 0.43830 -0.19600
H 	H 	0.34369 0.16063 0.61872 0.08700
H 	H 	0.44856 0.21582 0.59871 0.09800
H 	H 	0.10973 0.08779 0.43346 0.08500
H 	H 	0.21357 0.13720 0.41298 0.08200
C 	C 	0.80540 0.73552 0.98698 -0.06600
C 	C 	0.83641 0.77115 0.95124 -0.03500
C 	C 	0.83137 0.71554 0.91685 0.08400
C 	C 	0.80358 0.62834 0.92030 -0.03400
C 	C 	0.77681 0.59417 0.95678 -0.10000
C 	C 	0.77668 0.64784 0.99039 0.11700
N 	N 	0.75239 0.61720 0.02644 -0.20400
H 	H 	0.80862 0.77799 0.01320 0.04900
H 	H 	0.80100 0.58619 0.89414 0.05300
N 	N 	0.85167 0.74494 0.88026 -0.19500
H 	H 	0.75091 0.65665 0.05071 0.08500
H 	H 	0.73700 0.55532 0.03122 0.08200
H 	H 	0.86451 0.80590 0.87553 0.09300
H 	H 	0.85109 0.70496 0.85544 0.08900
C 	C 	0.87034 0.08703 0.01166 -0.07900
C 	C 	0.86075 0.05064 0.97045 -0.02700
C 	C 	0.83393 0.07855 0.93735 0.08000
C 	C 	0.82274 0.14652 0.94621 -0.03100
C 	C 	0.83679 0.18607 0.98750 -0.10000
C 	C 	0.86282 0.15738 0.02058 0.11000
N 	N 	0.88490 0.19992 0.06074 -0.19900
H 	H 	0.89127 0.06577 0.03696 0.05100
H 	H 	0.80092 0.16706 0.92089 0.05100
N 	N 	0.81840 0.04009 0.89709 -0.19900
H 	H 	0.89985 0.17568 0.08510 0.07800
H 	H 	0.89250 0.26010 0.06803 0.06000
H 	H 	0.82066 0.98574 0.88964 0.09600
H 	H 	0.80116 0.06274 0.87272 0.08600
C 	C 	0.17887 0.13847 0.94031 -0.07800
C 	C 	0.13486 0.06783 0.96286 -0.02800
C 	C 	0.18812 0.05270 0.98943 0.07400
C 	C 	0.28240 0.10091 0.98882 -0.02100
C 	C 	0.32647 0.17135 0.96609 -0.10600
C 	C 	0.27499 0.19391 0.94369 0.12100
N 	N 	0.31764 0.27074 0.92720 -0.20100
H 	H 	0.13853 0.15221 0.92112 0.05600
H 	H 	0.32196 0.08485 0.00686 0.04100
N 	N 	0.15035 0.99555 0.01690 -0.19200
H 	H 	0.27880 0.28382 0.90856 0.08500
H 	H 	0.38888 0.32123 0.93521 0.08600
H 	H 	0.08612 0.97204 0.02387 0.09200
H 	H 	0.18851 0.97998 0.03419 0.08400
