data_crystal

_cell_length_a 23.26805
_cell_length_b 23.50948
_cell_length_c 26.63342
_cell_angle_alpha 95.46935
_cell_angle_beta  95.47071
_cell_angle_gamma 125.93711

_symmetry_space_group_name_	'P 1'
_symmetry_space_group_name_H-M	'P 1'

loop_
_symmetry_equiv_pos_as_xyz
  x,y,z

loop_
_atom_site_label
_atom_site_type_symbol
_atom_site_fract_x
_atom_site_fract_y
_atom_site_fract_z
_atom_site_charge
C 	C 	0.04039 0.08112 0.99459 -0.08200
C 	C 	0.07218 0.04613 0.98725 0.03500
C 	C 	0.03089 0.97200 0.98456 -0.08100
H 	H 	0.07220 0.13849 0.99661 0.04900
H 	H 	0.05565 0.94506 0.97961 0.05200
C 	C 	0.03320 0.00338 0.45023 0.03200
H 	H 	0.02868 0.09079 0.44049 0.04800
H 	H 	0.02135 0.90718 0.45969 0.04700
C 	C 	0.25061 0.11999 0.45547 0.04000
C 	C 	0.28907 0.18870 0.44377 -0.07200
C 	C 	0.36342 0.22826 0.44518 0.01700
C 	C 	0.10984 0.04485 0.45204 -0.02100
C 	C 	0.36114 0.13036 0.47016 0.01700
C 	C 	0.28675 0.09092 0.46873 -0.07200
C 	C 	0.17402 0.07918 0.45362 -0.02400
C 	C 	0.39990 0.19925 0.45829 -0.09000
H 	H 	0.26141 0.21152 0.43361 0.04700
H 	H 	0.39268 0.28160 0.43646 0.03200
H 	H 	0.38844 0.10712 0.47998 0.02900
H 	H 	0.25722 0.03772 0.47777 0.04700
C 	C 	0.29432 0.14607 0.98235 -0.01600
C 	C 	0.27481 0.16231 0.02667 -0.02600
C 	C 	0.20246 0.13290 0.02736 -0.03100
C 	C 	0.43085 0.19827 0.98375 -0.11300
C 	C 	0.16925 0.07306 0.93874 -0.03900
C 	C 	0.24162 0.10245 0.93811 -0.03300
C 	C 	0.36833 0.17374 0.98256 0.04400
C 	C 	0.14918 0.08699 0.98373 -0.01000
H 	H 	0.31545 0.19665 0.06085 0.03800
H 	H 	0.18750 0.14383 0.06230 0.03900
H 	H 	0.12851 0.03781 0.90480 0.03700
H 	H 	0.25646 0.09034 0.90353 0.03600
C 	C 	0.99801 0.03494 0.44398 -0.07100
C 	C 	0.99396 0.93156 0.45505 -0.06800
C 	C 	0.96738 0.04175 0.99899 0.03600
C 	C 	0.95805 0.93269 0.98898 0.03700
C 	C 	0.92635 0.96764 0.99625 -0.08000
H 	H 	0.86983 0.93715 0.99943 0.04900
C 	C 	0.92342 0.99477 0.44266 0.04000
C 	C 	0.91930 0.89088 0.45374 0.02900
C 	C 	0.88382 0.92250 0.44739 -0.07600
H 	H 	0.82610 0.89127 0.44649 0.05100
Cu	Cu	0.63903 0.24201 0.00927 0.92900
Cu	Cu	0.69476 0.23740 0.90113 0.86900
Cu	Cu	0.68276 0.35238 0.93949 0.89500
Cu	Cu	0.64056 0.37574 0.03830 0.89600
C 	C 	0.66129 0.30206 0.11490 0.28000
O 	O 	0.53340 0.20030 0.00690 -0.35600
C 	C 	0.66055 0.29868 0.82828 0.28100
O 	O 	0.69809 0.35289 0.01157 -0.63600
O 	O 	0.63063 0.24703 0.93529 -0.64300
O 	O 	0.68400 0.19117 0.00937 -0.36500
O 	O 	0.76298 0.26119 0.95974 -0.44200
O 	O 	0.62792 0.32910 0.09936 -0.38100
O 	O 	0.73801 0.45536 0.94902 -0.38300
C 	C 	0.73211 0.49509 0.98347 0.30000
C 	C 	0.50614 0.23039 0.98664 0.29400
O 	O 	0.54937 0.29580 0.97850 -0.39600
O 	O 	0.68173 0.46646 0.01196 -0.38800
O 	O 	0.66205 0.25605 0.08279 -0.35700
C 	C 	0.74464 0.21747 0.99236 0.27300
O 	O 	0.68473 0.35356 0.86538 -0.38400
O 	O 	0.65001 0.23980 0.83844 -0.42000
H 	H 	0.74951 0.38386 0.02876 0.16400
H 	H 	0.58059 0.21792 0.91554 0.17200
Cu	Cu	0.73629 0.33425 0.43775 0.92700
Cu	Cu	0.73615 0.27502 0.54472 0.87000
Cu	Cu	0.62167 0.28827 0.50488 0.89700
Cu	Cu	0.60225 0.33349 0.40708 0.89400
C 	C 	0.68523 0.32314 0.33168 0.28200
O 	O 	0.77891 0.43956 0.44194 -0.36200
C 	C 	0.67240 0.30798 0.61638 0.28100
O 	O 	0.62402 0.27542 0.43315 -0.64000
O 	O 	0.72837 0.34002 0.51118 -0.64100
O 	O 	0.78631 0.28801 0.43763 -0.37100
O 	O 	0.71275 0.20859 0.48558 -0.44300
O 	O 	0.65389 0.35181 0.34778 -0.38300
O 	O 	0.51755 0.23330 0.49340 -0.38300
C 	C 	0.47824 0.24065 0.45928 0.29100
C 	C 	0.74715 0.46557 0.46143 0.30000
O 	O 	0.68075 0.42171 0.46876 -0.39500
O 	O 	0.50828 0.29052 0.43069 -0.39600
O 	O 	0.72441 0.31395 0.36436 -0.35900
C 	C 	0.75794 0.22704 0.45372 0.28700
O 	O 	0.61774 0.28401 0.57854 -0.38400
O 	O 	0.73209 0.31794 0.60731 -0.42000
H 	H 	0.59308 0.22492 0.41511 0.16400
H 	H 	0.75726 0.38909 0.53165 0.17300
C 	C 	0.60118 0.25393 0.68456 -0.01400
C 	C 	0.66204 0.31241 0.66989 -0.07000
C 	C 	0.71753 0.37075 0.70763 -0.01200
C 	C 	0.71437 0.36862 0.75967 -0.01400
C 	C 	0.65622 0.30764 0.77440 -0.07000
C 	C 	0.59854 0.25131 0.73661 -0.01300
H 	H 	0.55774 0.20882 0.65575 0.03600
H 	H 	0.76434 0.41657 0.69671 0.03400
H 	H 	0.75896 0.41270 0.78848 0.03700
H 	H 	0.55290 0.20440 0.74754 0.03400
C 	C 	0.72220 0.38119 0.25583 -0.00900
C 	C 	0.69244 0.31959 0.27747 -0.06200
C 	C 	0.66172 0.25348 0.24581 -0.01300
C 	C 	0.65599 0.24823 0.19244 -0.00800
C 	C 	0.68108 0.30919 0.17056 -0.06400
C 	C 	0.71662 0.37603 0.20266 -0.01300
H 	H 	0.74719 0.43269 0.28008 0.04100
H 	H 	0.63921 0.20571 0.26223 0.03500
H 	H 	0.62885 0.19636 0.16810 0.04500
H 	H 	0.73729 0.42358 0.18626 0.02800
C 	C 	0.82511 0.67311 0.46187 -0.00800
C 	C 	0.80864 0.69049 0.41646 -0.03300
C 	C 	0.83527 0.76119 0.41473 -0.04000
C 	C 	0.77759 0.53959 0.46290 -0.11100
C 	C 	0.89245 0.79685 0.50447 -0.04000
C 	C 	0.86584 0.72616 0.50614 -0.03300
C 	C 	0.80013 0.60077 0.46292 0.04300
C 	C 	0.87866 0.81498 0.45842 0.00000
H 	H 	0.77638 0.64957 0.38224 0.03800
H 	H 	0.82451 0.77460 0.37897 0.04000
H 	H 	0.92589 0.83797 0.53843 0.03900
H 	H 	0.87799 0.71298 0.54158 0.03800
C 	C 	0.83341 0.10038 0.43242 0.03800
C 	C 	0.76080 0.06756 0.43525 -0.07300
C 	C 	0.73493 0.10828 0.43890 0.01500
C 	C 	0.88848 0.02889 0.43820 -0.02300
C 	C 	0.85352 0.21444 0.43449 0.01500
C 	C 	0.87928 0.17355 0.43078 -0.07200
C 	C 	0.86229 0.06041 0.43508 -0.02300
C 	C 	0.78171 0.18240 0.44010 -0.09700
H 	H 	0.72481 0.01091 0.43598 0.04600
H 	H 	0.67906 0.08259 0.44228 0.02700
H 	H 	0.89019 0.27141 0.43517 0.03100
H 	H 	0.93540 0.19921 0.42819 0.04800
C 	C 	0.84179 0.70821 0.98443 -0.01600
C 	C 	0.85312 0.75285 0.02909 -0.02600
C 	C 	0.88981 0.82605 0.03026 -0.03100
C 	C 	0.77181 0.56995 0.98306 -0.11000
C 	C 	0.90316 0.81002 0.94182 -0.03800
C 	C 	0.86649 0.73683 0.94072 -0.03300
C 	C 	0.80409 0.63296 0.98338 0.04500
C 	C 	0.91533 0.85498 0.98672 -0.01000
H 	H 	0.83384 0.73093 0.06295 0.03800
H 	H 	0.89926 0.86041 0.06515 0.04000
H 	H 	0.92259 0.83192 0.90799 0.03800
H 	H 	0.85752 0.70248 0.90598 0.03900
C 	C 	0.86633 0.13602 0.01235 0.04200
C 	C 	0.90115 0.20742 0.00725 -0.07600
C 	C 	0.86227 0.23543 0.00383 0.02500
C 	C 	0.93367 0.07680 0.00470 -0.01200
C 	C 	0.75424 0.12159 0.01317 0.01400
C 	C 	0.79328 0.09371 0.01661 -0.07200
C 	C 	0.90367 0.10444 0.00875 -0.02600
C 	C 	0.78803 0.19198 0.00517 -0.09000
H 	H 	0.95781 0.24068 0.00448 0.05000
H 	H 	0.88938 0.29026 0.99870 0.02000
H 	H 	0.69715 0.08755 0.01457 0.03300
H 	H 	0.76615 0.03856 0.02095 0.04900
