data_crystal

_cell_length_a 18.52792
_cell_length_b 19.18084
_cell_length_c 41.26569
_cell_angle_alpha 88.43468
_cell_angle_beta  88.51153
_cell_angle_gamma 107.97403

_symmetry_space_group_name_	'P 1'
_symmetry_space_group_name_H-M	'P 1'

loop_
_symmetry_equiv_pos_as_xyz
  x,y,z

loop_
_atom_site_label
_atom_site_type_symbol
_atom_site_fract_x
_atom_site_fract_y
_atom_site_fract_z
_atom_site_charge
Zn	Zn	0.03218 0.98008 0.75326 1.21300
Zn	Zn	0.10193 0.92292 0.81220 1.18900
O 	O 	0.18036 0.02072 0.80364 -0.46000
O 	O 	0.11433 0.07552 0.76954 -0.40800
O 	O 	0.11343 0.95936 0.72716 -0.44800
O 	O 	0.14055 0.88842 0.76684 -0.41500
O 	O 	0.00899 0.94402 0.79817 -0.83000
O 	O 	0.06958 0.81261 0.82236 -0.46200
C 	C 	0.17571 0.07764 0.78563 0.32500
C 	C 	0.16164 0.93109 0.74075 0.29000
Zn	Zn	0.21540 0.65353 0.39397 1.22400
C 	C 	0.17535 0.83776 0.31753 0.27700
Zn	Zn	0.10909 0.73300 0.37159 1.19000
O 	O 	0.04749 0.67066 0.40869 -0.47300
O 	O 	0.14674 0.65250 0.43627 -0.40600
O 	O 	0.13619 0.56616 0.38049 -0.44000
O 	O 	0.09381 0.63421 0.34417 -0.41700
H 	H 	0.23249 0.78580 0.39999 0.17000
O 	O 	0.21680 0.75242 0.38180 -0.79800
O 	O 	0.11992 0.77862 0.32712 -0.45300
C 	C 	0.07521 0.65077 0.43538 0.33700
C 	C 	0.09131 0.57021 0.35705 0.29300
Zn	Zn	0.16549 0.72190 0.16813 1.19200
C 	C 	0.24316 0.60048 0.18155 0.32000
O 	O 	0.18064 0.77822 0.20842 -0.45000
O 	O 	0.11668 0.63923 0.13999 -0.47400
O 	O 	0.21213 0.64622 0.19508 -0.41500
C 	C 	0.20067 0.85027 0.20651 0.27700
C 	C 	0.14609 0.62469 0.11245 0.32800
Zn	Zn	0.04039 0.15331 0.20117 1.19000
C 	C 	0.09149 0.08363 0.26560 0.30800
O 	O 	0.12633 0.24443 0.20251 -0.46000
O 	O 	0.10935 0.27705 0.25452 -0.39200
O 	O 	0.07202 0.12782 0.28555 -0.44600
O 	O 	0.10034 0.09903 0.23409 -0.40500
C 	C 	0.13159 0.29536 0.22397 0.28100
C 	C 	0.17098 0.37335 0.21444 -0.04500
C 	C 	0.17305 0.42914 0.23612 -0.04200
C 	C 	0.19760 0.50281 0.22534 0.01500
C 	C 	0.21949 0.52199 0.19260 -0.12900
C 	C 	0.21829 0.46554 0.17067 0.12500
C 	C 	0.19816 0.39242 0.18235 -0.07700
H 	H 	0.19860 0.34982 0.16568 0.05200
H 	H 	0.15410 0.41552 0.26121 0.04900
N 	N 	0.23224 0.48040 0.13829 -0.20400
H 	H 	0.22774 0.52832 0.12740 0.10000
H 	H 	0.23958 0.44020 0.12311 0.08200
C 	C 	0.14138 0.88714 0.20665 -0.06900
C 	C 	0.15069 0.94938 0.18651 -0.03700
C 	C 	0.09233 0.98067 0.18399 0.00500
C 	C 	0.02368 0.95143 0.20223 -0.15000
C 	C 	0.01178 0.88515 0.22083 0.10800
C 	C 	0.07229 0.85572 0.22417 -0.07100
H 	H 	0.10172 0.02964 0.16868 0.01600
H 	H 	0.06435 0.80664 0.23931 0.05000
H 	H 	0.20303 0.97316 0.17232 0.02900
C 	C 	0.04321 0.50272 0.34325 -0.04600
C 	C 	0.15547 0.90208 0.30473 -0.05400
C 	C 	0.20604 0.95537 0.28398 -0.03900
C 	C 	0.18499 0.01463 0.27142 0.03000
C 	C 	0.11282 0.02069 0.27903 -0.10200
C 	C 	0.06088 0.96549 0.29899 0.08500
C 	C 	0.08428 0.90917 0.31304 -0.06400
H 	H 	0.22462 0.05557 0.25559 0.03700
H 	H 	0.04540 0.86877 0.32938 0.02200
C 	C 	0.02503 0.61998 0.46292 -0.16800
C 	C 	0.01917 0.51486 0.03983 -0.05100
C 	C 	0.06020 0.54871 0.06795 0.05300
C 	C 	0.01111 0.53851 0.98873 -0.07400
H 	H 	0.03286 0.57878 0.96817 0.03600
C 	C 	0.05921 0.50110 0.00869 -0.03400
H 	H 	0.12128 0.51121 0.00520 0.03500
C 	C 	0.09737 0.58145 0.08934 -0.13400
H 	H 	0.19869 0.54500 0.24242 0.02600
H 	H 	0.02559 0.53502 0.54965 0.00900
C 	C 	0.03968 0.49617 0.30952 -0.06300
H 	H 	0.06894 0.54275 0.29355 0.04800
H 	H 	0.26123 0.95070 0.27730 0.05400
H 	H 	0.21837 0.94050 0.67896 0.04000
O 	O 	0.38652 0.27131 0.64689 -0.46100
Zn	Zn	0.37396 0.65870 0.35420 1.19500
Zn	Zn	0.29227 0.77474 0.34103 1.22100
H 	H 	0.24437 0.64003 0.32906 0.18100
C 	C 	0.40504 0.80723 0.39091 0.32200
O 	O 	0.27131 0.66827 0.34724 -0.78700
O 	O 	0.35098 0.57906 0.38919 -0.46500
O 	O 	0.28777 0.63368 0.42353 -0.44200
O 	O 	0.36979 0.78062 0.30103 -0.41600
O 	O 	0.37607 0.83448 0.36668 -0.44800
O 	O 	0.24524 0.83461 0.31319 -0.42100
O 	O 	0.40025 0.73731 0.39273 -0.41200
C 	C 	0.32400 0.58583 0.41837 0.34500
Zn	Zn	0.33873 0.86341 0.16697 1.22000
C 	C 	0.43885 0.71166 0.09316 0.34200
Zn	Zn	0.30913 0.71356 0.13337 1.22500
H 	H 	0.24127 0.80231 0.12177 0.16700
O 	O 	0.43342 0.93503 0.19086 -0.40700
O 	O 	0.25586 0.78336 0.14232 -0.79400
O 	O 	0.36455 0.93065 0.12746 -0.44100
O 	O 	0.27255 0.88911 0.20045 -0.41900
O 	O 	0.42867 0.86210 0.10162 -0.41800
H 	H 	0.38529 0.75995 0.18858 0.18000
O 	O 	0.21905 0.65265 0.10462 -0.40700
O 	O 	0.38224 0.78137 0.16674 -0.78900
O 	O 	0.29912 0.62538 0.16009 -0.45000
O 	O 	0.37174 0.72100 0.09366 -0.43900
C 	C 	0.40066 0.91724 0.10154 0.31800
C 	C 	0.43029 0.92678 0.52159 -0.01500
H 	H 	0.38414 0.90121 0.53995 0.02700
H 	H 	0.47646 0.82840 0.50822 0.03900
C 	C 	0.42063 0.96343 0.48885 -0.05400
H 	H 	0.36622 0.96748 0.47964 0.03100
C 	C 	0.45156 0.88554 0.44210 0.03700
C 	C 	0.43177 0.85127 0.41817 -0.11500
C 	C 	0.41458 0.43471 0.50663 -0.03200
H 	H 	0.43755 0.40792 0.48713 0.03200
C 	C 	0.37543 0.49371 0.50139 -0.00600
C 	C 	0.36043 0.52357 0.47028 0.05100
C 	C 	0.35095 0.39514 0.53198 -0.03000
H 	H 	0.32181 0.33511 0.53401 0.02700
C 	C 	0.31167 0.45460 0.52625 -0.02900
H 	H 	0.25001 0.44400 0.52283 0.03500
C 	C 	0.39723 0.44159 0.55854 -0.01500
C 	C 	0.35810 0.50057 0.55324 -0.02600
H 	H 	0.33504 0.52738 0.57272 0.03500
C 	C 	0.34519 0.55036 0.44576 -0.11900
C 	C 	0.24214 0.95619 0.72961 -0.04100
C 	C 	0.26102 0.96426 0.69638 -0.05300
C 	C 	0.33339 0.00737 0.68538 0.03800
C 	C 	0.38655 0.04587 0.70739 -0.13600
C 	C 	0.37090 0.03098 0.74106 0.14800
C 	C 	0.29903 0.98444 0.75189 -0.09000
H 	H 	0.34568 0.01634 0.65953 0.02700
H 	H 	0.28620 0.97392 0.77765 0.05000
N 	N 	0.42330 0.06299 0.76301 -0.20500
H 	H 	0.40993 0.05494 0.78787 0.09100
H 	H 	0.45409 0.94240 0.98277 0.02600
C 	C 	0.40615 0.03783 0.96522 -0.03200
H 	H 	0.36400 0.01098 0.94717 0.03500
C 	C 	0.42041 0.99704 0.04698 0.02600
H 	H 	0.33198 0.07510 0.00500 0.03400
C 	C 	0.40896 0.96218 0.07241 -0.10800
H 	H 	0.37018 0.54941 0.99789 0.03600
H 	H 	0.42670 0.63542 0.94021 0.03600
C 	C 	0.38221 0.25074 0.78927 -0.04000
C 	C 	0.33230 0.23275 0.81645 -0.03200
C 	C 	0.26137 0.18012 0.81447 0.02400
C 	C 	0.23904 0.14630 0.78511 -0.13100
C 	C 	0.28435 0.17298 0.75647 0.13800
C 	C 	0.35628 0.22496 0.75894 -0.07000
H 	H 	0.22571 0.16223 0.83625 0.01900
H 	H 	0.39388 0.24155 0.73764 0.05100
H 	H 	0.35132 0.25423 0.83983 0.04900
N 	N 	0.25978 0.14860 0.72682 -0.20600
H 	H 	0.20816 0.10795 0.72414 0.10400
H 	H 	0.29196 0.17154 0.70582 0.10400
H 	H 	0.02309 0.46856 0.24818 0.06400
C 	C 	0.40690 0.41053 0.59020 0.05100
C 	C 	0.45583 0.00057 0.98445 -0.01600
H 	H 	0.02650 0.65752 0.85662 0.00900
C 	C 	0.48114 0.88722 0.50453 -0.03900
C 	C 	0.47166 0.92446 0.47216 0.00900
C 	C 	0.43097 0.57255 0.99013 -0.02900
C 	C 	0.46185 0.62003 0.95881 -0.02600
C 	C 	0.46271 0.68118 0.06504 -0.11700
O 	O 	0.50050 0.22832 0.79569 -0.47400
O 	O 	0.49483 0.34347 0.80429 -0.40200
C 	C 	0.46374 0.27685 0.79425 0.29200
Zn	Zn	0.44681 0.20712 0.63415 1.19400
C 	C 	0.44516 0.11343 0.69549 0.32800
O 	O 	0.46502 0.37512 0.66722 -0.42900
O 	O 	0.45512 0.11039 0.62244 -0.47100
O 	O 	0.51584 0.11448 0.69082 -0.44300
O 	O 	0.42387 0.16800 0.68412 -0.43300
C 	C 	0.41765 0.34250 0.64516 0.32700
O 	O 	0.45239 0.73253 0.32657 -0.46300
C 	C 	0.43948 0.78003 0.30570 0.32700
Zn	Zn	0.48027 0.82437 0.14253 1.19500
O 	O 	0.52400 0.92877 0.15327 -0.46800
O 	O 	0.48816 0.74107 0.11521 -0.46300
C 	C 	0.50178 0.96251 0.17715 0.31100
N 	N 	0.49155 0.04197 0.23856 -0.20100
H 	H 	0.43894 0.02974 0.22784 0.11100
H 	H 	0.49404 0.05434 0.26308 0.08700
C 	C 	0.50464 0.83919 0.29118 -0.13500
N 	N 	0.45724 0.93633 0.30925 -0.20500
H 	H 	0.40196 0.90923 0.30277 0.09600
C 	C 	0.50129 0.99185 0.52716 -0.04400
C 	C 	0.51339 0.02966 0.55779 0.07100
C 	C 	0.49183 0.02905 0.49478 0.01200
H 	H 	0.49638 0.08783 0.49108 0.02100
C 	C 	0.51853 0.06175 0.58270 -0.13300
C 	C 	0.46115 0.48066 0.53373 -0.02900
H 	H 	0.52276 0.49116 0.53724 0.03100
C 	C 	0.42174 0.54022 0.52793 -0.02900
H 	H 	0.45079 0.60027 0.52587 0.03600
C 	C 	0.41270 0.38163 0.61578 -0.16000
H 	H 	0.47813 0.09495 0.75562 0.07900
C 	C 	0.52649 0.06811 0.97701 -0.03100
C 	C 	0.47659 0.10480 0.95824 -0.00400
C 	C 	0.43879 0.03658 0.01537 0.00700
C 	C 	0.38877 0.07324 0.99663 -0.03200
C 	C 	0.51660 0.57540 0.95289 -0.01300
C 	C 	0.49263 0.62644 0.00934 -0.00500
C 	C 	0.47799 0.65600 0.04031 0.04900
C 	C 	0.52318 0.67430 0.97850 -0.02900
H 	H 	0.53856 0.73502 0.97666 0.03500
C 	C 	0.49871 0.14347 0.92658 0.04300
C 	C 	0.45956 0.14089 0.98913 -0.02900
H 	H 	0.55681 0.76452 0.26933 0.01700
C 	C 	0.55253 0.95293 0.51057 -0.01100
Zn	Zn	0.57576 0.36561 0.84142 1.22100
O 	O 	0.51467 0.27617 0.86597 -0.44400
O 	O 	0.53948 0.45033 0.85139 -0.42400
O 	O 	0.58765 0.20521 0.85046 -0.41600
C 	C 	0.58069 0.50753 0.86669 0.32400
C 	C 	0.53896 0.21949 0.87107 0.31900
Zn	Zn	0.55977 0.35161 0.67478 1.22100
O 	O 	0.55289 0.26901 0.64111 -0.78600
H 	H 	0.54268 0.25697 0.72097 0.16400
O 	O 	0.58326 0.13231 0.62580 -0.39400
O 	O 	0.57991 0.27474 0.70260 -0.79500
C 	C 	0.51894 0.10151 0.61157 0.32500
C 	C 	0.55439 0.03348 0.18745 -0.11200
C 	C 	0.55647 0.05384 0.22026 0.12600
H 	H 	0.61288 0.06201 0.14057 0.03900
C 	C 	0.56521 0.82024 0.27661 0.02100
C 	C 	0.51626 0.91286 0.29959 0.13700
H 	H 	0.46736 0.98691 0.32009 0.07900
H 	H 	0.60688 0.94896 0.51987 0.02800
C 	C 	0.54277 0.98950 0.47763 -0.06600
H 	H 	0.58875 0.01494 0.45918 0.05000
H 	H 	0.58329 0.06618 0.96869 0.04000
C 	C 	0.50921 0.10357 0.00834 -0.03100
H 	H 	0.55143 0.13044 0.02637 0.03800
H 	H 	0.46138 0.19909 0.99077 0.03200
C 	C 	0.51723 0.17686 0.90093 -0.11500
C 	C 	0.48606 0.52744 0.98371 -0.03000
H 	H 	0.47072 0.46672 0.98551 0.03000
C 	C 	0.53299 0.54866 0.92149 0.04700
C 	C 	0.54740 0.58180 0.00343 -0.03200
C 	C 	0.57821 0.62928 0.97213 -0.03000
C 	C 	0.55138 0.52866 0.89604 -0.15200
Zn	Zn	0.58941 0.19952 0.66683 1.22000
H 	H 	0.58314 0.28484 0.62058 0.17200
O 	O 	0.57239 0.42481 0.71352 -0.41300
C 	C 	0.61601 0.07069 0.16640 0.01300
Zn	Zn	0.61075 0.25008 0.80025 1.18400
H 	H 	0.58257 0.56646 0.02204 0.03200
H 	H 	0.63901 0.65248 0.96440 0.02800
C 	C 	0.58990 0.96234 0.29821 -0.09400
C 	C 	0.62659 0.09343 0.23291 -0.06700
H 	H 	0.63035 0.10453 0.25851 0.04900
C 	C 	0.63806 0.87136 0.27368 -0.04400
H 	H 	0.59898 0.01748 0.30641 0.06600
H 	H 	0.61386 0.53231 0.67285 0.10200
Zn	Zn	0.01081 0.19048 0.27269 1.21800
H 	H 	0.65263 0.35460 0.89497 0.17300
O 	O 	0.65320 0.53507 0.85956 -0.46300
H 	H 	0.67415 0.38785 0.79411 0.16400
O 	O 	0.65812 0.35229 0.81275 -0.79300
O 	O 	0.64996 0.41898 0.65095 -0.44500
C 	C 	0.63940 0.46087 0.72386 0.32100
C 	C 	0.65129 0.94192 0.28554 -0.03100
H 	H 	0.68435 0.85516 0.26318 0.04700
H 	H 	0.64824 0.07126 0.68585 0.08600
N 	N 	0.64674 0.58370 0.68007 -0.20300
H 	H 	0.66450 0.05957 0.83947 0.04500
C 	C 	0.00080 0.42870 0.29634 0.08000
O 	O 	0.66564 0.38069 0.87355 -0.78600
C 	C 	0.69216 0.11660 0.21260 -0.04900
C 	C 	0.68508 0.11090 0.17900 -0.02500
C 	C 	0.66702 0.55098 0.76720 0.03100
C 	C 	0.65390 0.53635 0.73442 -0.13100
C 	C 	0.66684 0.59551 0.71139 0.13200
H 	H 	0.65372 0.50635 0.78521 0.01600
H 	H 	0.66056 0.62723 0.66288 0.08300
O 	O 	0.70067 0.21512 0.79782 -0.47900
Zn	Zn	0.68469 0.32811 0.71555 1.18300
O 	O 	0.69794 0.20451 0.66761 -0.43500
H 	H 	0.67706 0.99599 0.67202 0.07700
O 	O 	0.69627 0.43378 0.72100 -0.47800
N 	N 	0.69189 0.04920 0.68055 -0.19000
C 	C 	0.70124 0.62272 0.77663 -0.02700
C 	C 	0.70145 0.66739 0.72108 -0.07500
C 	C 	0.71327 0.40266 0.64610 0.31600
H 	H 	0.70887 0.95534 0.82492 0.02200
Zn	Zn	0.72414 0.48618 0.87667 1.19500
H 	H 	0.73460 0.13221 0.16287 0.04000
H 	H 	0.71518 0.71245 0.70321 0.03700
H 	H 	0.71470 0.63276 0.80181 0.06400
C 	C 	0.72183 0.06992 0.82967 -0.03300
C 	C 	0.73576 0.20247 0.82346 0.31100
O 	O 	0.73084 0.35530 0.66566 -0.41100
O 	O 	0.73176 0.24724 0.71806 -0.47500
C 	C 	0.72848 0.99596 0.28435 0.26900
C 	C 	0.72173 0.68079 0.75337 -0.04900
Zn	Zn	0.73949 0.34724 0.84813 1.22000
C 	C 	0.73463 0.20327 0.69443 0.33300
O 	O 	0.74211 0.24347 0.84904 -0.42100
O 	O 	0.73841 0.05853 0.29933 -0.45100
C 	C 	0.74703 0.01079 0.82143 0.03400
C 	C 	0.76689 0.12767 0.22653 0.29600
H 	H 	0.76102 0.52173 0.53179 0.03500
C 	C 	0.00341 0.44331 0.36385 -0.06400
C 	C 	0.76251 0.43535 0.61854 -0.10900
O 	O 	0.76642 0.50348 0.82677 -0.42200
C 	C 	0.76856 0.14213 0.82327 -0.04500
H 	H 	0.00410 0.44867 0.38993 0.04700
C 	C 	0.76525 0.08526 0.68727 0.12100
O 	O 	0.00059 0.26009 0.30504 -0.47800
H 	H 	0.00717 0.37354 0.00021 0.00900
O 	O 	0.77209 0.81209 0.74509 -0.46000
C 	C 	0.77302 0.75294 0.76169 0.28900
C 	C 	0.99912 0.76846 0.82146 0.32100
H 	H 	0.99884 0.97986 0.81295 0.18700
H 	H 	0.96140 0.60492 0.02612 0.02600
C 	C 	0.97162 0.55256 0.02017 0.02300
N 	N 	0.99671 0.42318 0.26360 -0.17200
O 	O 	0.98748 0.04967 0.73023 -0.40900
H 	H 	0.97491 0.83433 0.73981 0.18100
N 	N 	0.98739 0.96362 0.30303 -0.18300
H 	H 	0.96412 0.99386 0.28757 0.06400
H 	H 	0.95091 0.92618 0.31966 0.07800
C 	C 	0.96499 0.37606 0.35099 0.05100
H 	H 	0.93769 0.32950 0.36725 0.01700
C 	C 	0.99709 0.42586 0.00631 0.00700
C 	C 	0.98431 0.59301 0.48629 0.10200
C 	C 	0.82576 0.48509 0.81750 0.31900
O 	O 	0.82538 0.48422 0.88988 -0.46700
O 	O 	0.81088 0.36116 0.88883 -0.38800
O 	O 	0.82606 0.41765 0.82310 -0.43500
C 	C 	0.83760 0.42512 0.90236 0.31600
Zn	Zn	0.86550 0.88372 0.72583 1.19400
Zn	Zn	0.91429 0.85325 0.79339 1.22600
C 	C 	0.83651 0.96248 0.79013 0.30200
O 	O 	0.95423 0.87249 0.74811 -0.78400
O 	O 	0.92062 0.96590 0.69553 -0.47800
O 	O 	0.82411 0.75677 0.78362 -0.39800
O 	O 	0.84369 0.90640 0.80741 -0.43900
O 	O 	0.94176 0.79350 0.82678 -0.45100
O 	O 	0.84669 0.96620 0.75834 -0.41600
C 	C 	0.94057 0.03278 0.70605 0.32500
Zn	Zn	0.88085 0.06505 0.24572 1.22600
C 	C 	0.94775 0.29282 0.30547 0.34200
Zn	Zn	0.82687 0.14859 0.29752 1.19700
H 	H 	0.94195 0.20592 0.22361 0.17300
O 	O 	0.78562 0.98161 0.26854 -0.39100
O 	O 	0.96303 0.16700 0.23114 -0.78500
O 	O 	0.98312 0.05478 0.18562 -0.45500
O 	O 	0.80808 0.08700 0.21718 -0.43900
O 	O 	0.92380 0.98741 0.23040 -0.44000
O 	O 	0.78990 0.17434 0.24969 -0.40800
H 	H 	0.91384 0.07642 0.30439 0.18000
O 	O 	0.90985 0.11018 0.28650 -0.80100
O 	O 	0.87701 0.25806 0.29813 -0.46100
C 	C 	0.97070 0.99621 0.20483 0.33400
N 	N 	0.94170 0.84676 0.23325 -0.19000
H 	H 	0.89298 0.85574 0.22434 0.09900
H 	H 	0.93486 0.80232 0.24955 0.08900
C 	C 	0.96661 0.36718 0.31742 -0.10900
H 	H 	0.96584 0.37443 0.25319 0.08300
C 	C 	0.96562 0.53187 0.54573 0.01400
C 	C 	0.93602 0.55917 0.51495 -0.03200
C 	C 	0.89760 0.46037 0.54596 -0.04200
H 	H 	0.90082 0.40410 0.55049 0.04500
C 	C 	0.86870 0.48815 0.51476 -0.01600
H 	H 	0.84873 0.45528 0.49316 0.03400
C 	C 	0.91794 0.56862 0.56667 -0.04200
H 	H 	0.93792 0.60148 0.58827 0.04100
C 	C 	0.85063 0.49760 0.56648 0.00400
C 	C 	0.80267 0.46327 0.59516 0.04100
C 	C 	0.82100 0.52489 0.53570 -0.03800
C 	C 	0.88905 0.59642 0.53547 -0.01700
H 	H 	0.88584 0.65270 0.53093 0.03200
C 	C 	0.89177 0.07923 0.69890 -0.05700
C 	C 	0.91316 0.15245 0.70812 -0.01900
C 	C 	0.86160 0.19237 0.70663 0.02100
C 	C 	0.78750 0.15946 0.69628 -0.12100
C 	C 	0.81885 0.04712 0.68709 -0.04100
H 	H 	0.87922 0.24902 0.71363 0.03400
H 	H 	0.80186 0.99058 0.67990 0.02000
H 	H 	0.96936 0.17817 0.71697 0.05300
C 	C 	0.90954 0.47760 0.01791 -0.04900
H 	H 	0.84749 0.46765 0.02137 0.03600
C 	C 	0.95774 0.44013 0.03807 -0.00800
H 	H 	0.93621 0.40016 0.05874 0.03400
C 	C 	0.94961 0.46389 0.98677 0.01300
C 	C 	0.91095 0.44201 0.95660 0.04600
C 	C 	0.87821 0.43080 0.93160 -0.11700
C 	C 	0.81896 0.02333 0.80644 -0.11300
C 	C 	0.86869 0.09635 0.80260 0.12500
C 	C 	0.84242 0.15508 0.81069 -0.06200
H 	H 	0.87882 0.21102 0.80616 0.05300
N 	N 	0.94157 0.11023 0.79156 -0.19600
H 	H 	0.96509 0.06806 0.78870 0.07400
H 	H 	0.97657 0.16414 0.78715 0.09700
C 	C 	0.98380 0.69152 0.81272 -0.07500
C 	C 	0.99254 0.63975 0.83564 0.02200
C 	C 	0.95094 0.56556 0.83327 -0.00300
C 	C 	0.89714 0.54377 0.80914 -0.11500
C 	C 	0.89959 0.59315 0.78281 0.12100
C 	C 	0.94332 0.66713 0.78478 -0.04900
H 	H 	0.95410 0.52672 0.85230 0.05200
H 	H 	0.94148 0.70639 0.76568 0.02400
N 	N 	0.85789 0.57041 0.75631 -0.20000
H 	H 	0.82767 0.51510 0.75385 0.09000
H 	H 	0.85684 0.60772 0.73752 0.08600
