data_crystal

_cell_length_a 27.82298
_cell_length_b 28.16109
_cell_length_c 34.85570
_cell_angle_alpha 95.47694
_cell_angle_beta  95.47002
_cell_angle_gamma 125.74974

_symmetry_space_group_name_	'P 1'
_symmetry_space_group_name_H-M	'P 1'

loop_
_symmetry_equiv_pos_as_xyz
  x,y,z

loop_
_atom_site_label
_atom_site_type_symbol
_atom_site_fract_x
_atom_site_fract_y
_atom_site_fract_z
_atom_site_charge
C 	C 	0.96944 0.02959 0.99323 0.05400
C 	C 	0.03029 0.06384 0.98958 -0.08700
C 	C 	0.05934 0.03684 0.98589 0.05400
C 	C 	0.02761 0.97582 0.98585 -0.08700
C 	C 	0.96697 0.94167 0.98955 0.05400
C 	C 	0.93784 0.96850 0.99324 -0.08700
H 	H 	0.05483 0.11113 0.98959 0.05700
H 	H 	0.05015 0.95497 0.98307 0.05800
H 	H 	0.89077 0.94197 0.99603 0.05600
C 	C 	0.93953 0.99924 0.45398 0.05300
C 	C 	0.90573 0.93884 0.45706 -0.08800
C 	C 	0.93413 0.91102 0.46010 0.05200
C 	C 	0.99600 0.94352 0.46005 -0.08700
C 	C 	0.02964 0.00366 0.45699 0.05200
C 	C 	0.00145 0.03151 0.45390 -0.08900
H 	H 	0.85783 0.91378 0.45718 0.05600
H 	H 	0.01794 0.92202 0.46244 0.05600
H 	H 	0.02763 0.07821 0.45164 0.05600
Cu	Cu	0.64121 0.24752 0.00088 0.92700
Cu	Cu	0.68088 0.24515 0.91526 0.87100
Cu	Cu	0.68314 0.34629 0.95297 0.89800
Cu	Cu	0.65539 0.36432 0.03191 0.89500
C 	C 	0.66646 0.29153 0.08368 0.28200
O 	O 	0.55585 0.21974 0.00241 -0.36500
C 	C 	0.65673 0.30702 0.86658 0.28300
O 	O 	0.69702 0.34085 0.00664 -0.64100
O 	O 	0.63345 0.25747 0.94576 -0.64100
O 	O 	0.67110 0.19836 0.99482 -0.37500
O 	O 	0.73758 0.25621 0.95695 -0.44200
O 	O 	0.64347 0.32025 0.07601 -0.38200
O 	O 	0.73509 0.43239 0.96378 -0.38400
C 	C 	0.73241 0.46627 0.99107 0.31200
C 	C 	0.53669 0.24960 0.99003 0.30300
O 	O 	0.57553 0.30527 0.98673 -0.39300
O 	O 	0.69518 0.44384 0.01616 -0.39700
O 	O 	0.66186 0.25283 0.05599 -0.35900
C 	C 	0.72036 0.21793 0.98067 0.30900
O 	O 	0.68321 0.35176 0.89682 -0.38500
O 	O 	0.64465 0.25522 0.87062 -0.41800
H 	H 	0.74006 0.36285 0.01864 0.16400
H 	H 	0.59159 0.23717 0.93183 0.17200
Cu	Cu	0.73518 0.33861 0.45263 0.92700
Cu	Cu	0.73583 0.29699 0.53751 0.87100
Cu	Cu	0.63508 0.29746 0.50044 0.89800
Cu	Cu	0.61837 0.32747 0.42220 0.89500
C 	C 	0.69233 0.31756 0.36982 0.28200
O 	O 	0.76517 0.42395 0.45212 -0.36300
C 	C 	0.67407 0.32099 0.58682 0.28300
O 	O 	0.64075 0.28475 0.44665 -0.64100
O 	O 	0.72492 0.34546 0.50779 -0.64100
O 	O 	0.78285 0.30649 0.45779 -0.37400
O 	O 	0.72297 0.24081 0.49522 -0.44300
O 	O 	0.66337 0.34018 0.37816 -0.38200
O 	O 	0.54791 0.24703 0.48948 -0.38300
C 	C 	0.51426 0.24953 0.46157 0.30900
C 	C 	0.73523 0.44338 0.46430 0.30100
O 	O 	0.67902 0.40529 0.46796 -0.39300
O 	O 	0.53802 0.28877 0.43810 -0.39500
O 	O 	0.72968 0.31923 0.39737 -0.35800
C 	C 	0.76165 0.25721 0.47150 0.30700
O 	O 	0.62912 0.29640 0.55652 -0.38400
O 	O 	0.72633 0.33271 0.58253 -0.41800
H 	H 	0.61793 0.24234 0.43418 0.16400
H 	H 	0.74597 0.38672 0.52209 0.17300
C 	C 	0.65011 0.31826 0.82676 -0.07500
C 	C 	0.59704 0.27648 0.79939 0.00400
C 	C 	0.59421 0.28163 0.75989 -0.05400
C 	C 	0.64624 0.32655 0.74681 0.00500
C 	C 	0.69722 0.37252 0.77519 0.00800
C 	C 	0.69894 0.36791 0.81499 -0.01900
C 	C 	0.74636 0.42188 0.76346 -0.04200
C 	C 	0.74715 0.42450 0.72379 -0.04100
C 	C 	0.70020 0.37653 0.69501 0.00700
C 	C 	0.64914 0.32671 0.70614 0.00500
C 	C 	0.60534 0.27650 0.67679 -0.05300
C 	C 	0.61146 0.27685 0.63749 0.00300
C 	C 	0.66230 0.32577 0.62676 -0.07500
C 	C 	0.70571 0.37610 0.65534 -0.01800
H 	H 	0.55788 0.23991 0.80872 0.03000
H 	H 	0.55117 0.25232 0.74021 0.04100
H 	H 	0.73922 0.40147 0.83648 0.04100
H 	H 	0.78447 0.45818 0.78518 0.03800
H 	H 	0.78576 0.46298 0.71536 0.03700
H 	H 	0.56875 0.23571 0.68425 0.04000
H 	H 	0.57825 0.23741 0.61560 0.03400
H 	H 	0.74510 0.41392 0.64695 0.03700
C 	C 	0.69698 0.30736 0.32875 -0.06700
C 	C 	0.64988 0.25467 0.30339 0.00100
C 	C 	0.64890 0.24840 0.26299 -0.05100
C 	C 	0.69604 0.29499 0.24733 0.00500
C 	C 	0.74284 0.34888 0.27313 0.00900
C 	C 	0.74416 0.35371 0.31375 -0.01400
C 	C 	0.78510 0.39879 0.25792 -0.04000
C 	C 	0.77914 0.39718 0.21756 -0.04100
C 	C 	0.73335 0.34440 0.19156 0.00900
C 	C 	0.69457 0.29162 0.20614 0.00600
C 	C 	0.65608 0.23707 0.17924 -0.05200
C 	C 	0.64905 0.23678 0.13893 0.00700
C 	C 	0.68185 0.29036 0.12491 -0.06900
C 	C 	0.72561 0.34374 0.15107 -0.02000
H 	H 	0.61256 0.21932 0.31482 0.02400
H 	H 	0.60944 0.20918 0.24405 0.04100
H 	H 	0.77996 0.39492 0.33347 0.04500
H 	H 	0.82111 0.43992 0.27754 0.04000
H 	H 	0.81033 0.43715 0.20647 0.03700
H 	H 	0.63342 0.19497 0.18912 0.04300
H 	H 	0.61716 0.19497 0.11866 0.04100
H 	H 	0.75275 0.38481 0.13998 0.02900
C 	C 	0.80109 0.61722 0.46887 -0.01100
C 	C 	0.77742 0.63120 0.43840 -0.02800
C 	C 	0.79999 0.69043 0.43809 -0.04700
C 	C 	0.84624 0.73594 0.46829 0.02000
C 	C 	0.86895 0.72181 0.49925 -0.04700
C 	C 	0.84641 0.66256 0.49954 -0.02800
C 	C 	0.77941 0.55645 0.46827 0.04600
C 	C 	0.76019 0.50514 0.46697 -0.11100
C 	C 	0.87446 0.79738 0.46558 -0.01200
C 	C 	0.90018 0.84905 0.46312 -0.03000
H 	H 	0.74214 0.59633 0.41469 0.03800
H 	H 	0.78235 0.70100 0.41399 0.04300
H 	H 	0.90487 0.75677 0.52263 0.04300
H 	H 	0.86471 0.65208 0.52330 0.03700
C 	C 	0.86554 0.08879 0.44841 0.02000
C 	C 	0.80598 0.06270 0.45309 -0.04800
C 	C 	0.78415 0.09663 0.45448 -0.02800
C 	C 	0.82181 0.15682 0.45122 -0.01300
C 	C 	0.88090 0.18249 0.44557 -0.02800
C 	C 	0.90270 0.14855 0.44414 -0.04700
C 	C 	0.88958 0.05531 0.44998 -0.01200
C 	C 	0.91125 0.02872 0.45166 -0.03100
C 	C 	0.80136 0.19325 0.45688 0.04700
C 	C 	0.78373 0.22307 0.46279 -0.11800
H 	H 	0.77694 0.01652 0.45633 0.04200
H 	H 	0.73843 0.07647 0.45890 0.03600
H 	H 	0.91031 0.22898 0.44307 0.03800
H 	H 	0.94876 0.16900 0.44042 0.04300
C 	C 	0.33368 0.15564 0.45959 -0.01100
C 	C 	0.31148 0.14521 0.49467 -0.02800
C 	C 	0.24982 0.11527 0.49410 -0.04700
C 	C 	0.21014 0.09569 0.45844 0.02000
C 	C 	0.23231 0.10604 0.42334 -0.04700
C 	C 	0.29398 0.13599 0.42392 -0.02800
C 	C 	0.39733 0.18795 0.46030 0.04700
C 	C 	0.45070 0.21563 0.46089 -0.10800
C 	C 	0.14657 0.06395 0.45779 -0.01200
C 	C 	0.09329 0.03686 0.45735 -0.03000
H 	H 	0.34195 0.16043 0.52237 0.03900
H 	H 	0.23294 0.10726 0.52133 0.04300
H 	H 	0.20185 0.09087 0.39565 0.04300
H 	H 	0.31088 0.14405 0.39669 0.03700
C 	C 	0.87879 0.76440 0.98986 0.02200
C 	C 	0.88407 0.74549 0.02473 -0.04900
C 	C 	0.85598 0.68503 0.02467 -0.02900
C 	C 	0.82257 0.64328 0.98973 -0.01000
C 	C 	0.81739 0.66220 0.95483 -0.02800
C 	C 	0.84549 0.72267 0.95489 -0.04700
C 	C 	0.90889 0.82674 0.98976 -0.01200
C 	C 	0.93483 0.87907 0.98968 -0.03000
C 	C 	0.79176 0.58087 0.98998 0.04800
C 	C 	0.76520 0.52855 0.99036 -0.10900
H 	H 	0.90995 0.77757 0.05184 0.04300
H 	H 	0.85998 0.67066 0.05178 0.03700
H 	H 	0.79144 0.63011 0.92774 0.03900
H 	H 	0.84142 0.73703 0.92780 0.04300
C 	C 	0.81517 0.15108 0.99925 -0.01000
C 	C 	0.87781 0.18855 0.00153 -0.03100
C 	C 	0.91018 0.16488 0.00230 -0.04600
C 	C 	0.88004 0.10366 0.00081 0.01600
C 	C 	0.81765 0.06644 0.99960 -0.04400
C 	C 	0.78528 0.09010 0.99880 -0.03000
C 	C 	0.78110 0.17430 0.99402 0.04700
C 	C 	0.75299 0.19398 0.98857 -0.11900
C 	C 	0.91254 0.07854 0.99859 -0.00900
C 	C 	0.93899 0.05677 0.99631 -0.03100
H 	H 	0.90123 0.23574 0.00186 0.03700
H 	H 	0.95844 0.19395 0.00336 0.04100
H 	H 	0.79408 0.01908 0.99856 0.04200
H 	H 	0.73686 0.06085 0.99701 0.03800
C 	C 	0.35894 0.18001 0.97919 -0.01000
C 	C 	0.31447 0.12839 0.95181 -0.02800
C 	C 	0.25355 0.10291 0.95109 -0.04800
C 	C 	0.23688 0.12896 0.97776 0.02200
C 	C 	0.28143 0.18155 0.00436 -0.04900
C 	C 	0.34234 0.20705 0.00506 -0.02900
C 	C 	0.42135 0.20370 0.98203 0.04700
C 	C 	0.47384 0.22409 0.98521 -0.11200
C 	C 	0.17437 0.09866 0.98029 -0.01200
C 	C 	0.12196 0.07160 0.98274 -0.03000
H 	H 	0.32698 0.10738 0.93162 0.03700
H 	H 	0.21934 0.06220 0.93046 0.04200
H 	H 	0.26889 0.20189 0.02509 0.04300
H 	H 	0.37652 0.24713 0.02620 0.03800
