data_crystal

_cell_length_a 18.84659
_cell_length_b 15.64523
_cell_length_c 42.37283
_cell_angle_alpha 90.91741
_cell_angle_beta  91.29800
_cell_angle_gamma 111.11166

_symmetry_space_group_name_	'P 1'
_symmetry_space_group_name_H-M	'P 1'

loop_
_symmetry_equiv_pos_as_xyz
  x,y,z

loop_
_atom_site_label
_atom_site_type_symbol
_atom_site_fract_x
_atom_site_fract_y
_atom_site_fract_z
_atom_site_charge
Ni	Ni	0.72429 0.32885 0.88809 1.10600
O 	O 	0.63651 0.24378 0.86038 -0.70500
Ni	Ni	0.54840 0.25610 0.88208 1.10900
O 	O 	0.80052 0.30261 0.85953 -0.33200
O 	O 	0.74375 0.14757 0.86612 -0.36700
O 	O 	0.71901 0.42733 0.85810 -0.38200
Ni	Ni	0.62582 0.11600 0.86069 1.08500
O 	O 	0.74039 0.45078 0.95421 -0.37700
O 	O 	0.61925 0.10786 0.90870 -0.38500
O 	O 	0.46889 0.18087 0.84989 -0.35900
O 	O 	0.63523 0.32456 0.91343 -0.69900
O 	O 	0.81189 0.42361 0.91407 -0.34800
O 	O 	0.46952 0.30066 0.90239 -0.32900
O 	O 	0.55353 0.44724 0.90270 -0.38700
Ni	Ni	0.65097 0.45031 0.92689 1.08800
H 	H 	0.63795 0.26476 0.83840 0.18500
H 	H 	0.63423 0.28802 0.93236 0.18700
C 	C 	0.55723 0.10421 0.92294 0.30600
O 	O 	0.72363 0.53585 0.89570 -0.37400
C 	C 	0.79593 0.21815 0.85298 0.31400
C 	C 	0.46128 0.09540 0.84273 0.32400
C 	C 	0.73593 0.51311 0.86687 0.34800
C 	C 	0.48766 0.38733 0.91068 0.29300
C 	C 	0.80644 0.45603 0.94269 0.31000
O 	O 	0.51334 0.14553 0.91118 -0.34300
O 	O 	0.50851 0.05752 0.85509 -0.37300
Ni	Ni	0.60885 0.32985 0.56682 1.10200
O 	O 	0.69586 0.35734 0.53571 -0.70000
Ni	Ni	0.76290 0.29747 0.55634 1.10600
O 	O 	0.55783 0.40708 0.54313 -0.33900
O 	O 	0.66718 0.53154 0.54317 -0.37800
O 	O 	0.54006 0.22218 0.53806 -0.34800
Ni	Ni	0.75638 0.48859 0.53369 1.08900
O 	O 	0.50903 0.14628 0.59472 -0.38100
O 	O 	0.77801 0.50003 0.58099 -0.39200
O 	O 	0.84321 0.32743 0.52232 -0.33000
O 	O 	0.67735 0.27261 0.58840 -0.69500
O 	O 	0.52508 0.29758 0.59925 -0.35100
O 	O 	0.81297 0.21519 0.57765 -0.32500
O 	O 	0.70453 0.09492 0.58655 -0.37200
Ni	Ni	0.61521 0.14093 0.59071 1.08200
H 	H 	0.67800 0.33068 0.51437 0.19000
H 	H 	0.69568 0.30117 0.60950 0.18400
C 	C 	0.83478 0.48000 0.59221 0.33100
O 	O 	0.60394 0.12393 0.54306 -0.38600
C 	C 	0.59863 0.48667 0.53176 0.29900
C 	C 	0.87190 0.41123 0.51141 0.29300
C 	C 	0.56145 0.15728 0.52620 0.30100
C 	C 	0.77483 0.14466 0.59460 0.32600
C 	C 	0.49320 0.21289 0.60880 0.32000
O 	O 	0.84005 0.40047 0.58476 -0.33600
O 	O 	0.86009 0.47934 0.52618 -0.37100
Ni	Ni	0.02027 0.96082 0.76364 1.10800
O 	O 	0.01397 0.86778 0.72860 -0.70900
Ni	Ni	0.07703 0.95072 0.69621 1.10600
O 	O 	0.95441 0.86056 0.79213 -0.32100
O 	O 	0.86001 0.80732 0.75374 -0.36200
O 	O 	0.11597 0.93870 0.77884 -0.36100
Ni	Ni	0.91208 0.80697 0.71074 1.08600
O 	O 	0.08540 0.19207 0.77108 -0.35700
O 	O 	0.89672 0.92570 0.69863 -0.37300
O 	O 	0.07701 0.84895 0.66566 -0.32600
O 	O 	0.06591 0.04354 0.72806 -0.70100
O 	O 	0.03599 0.05817 0.79838 -0.34100
O 	O 	0.16066 0.04908 0.67244 -0.33900
O 	O 	0.23195 0.10891 0.71758 -0.36500
Ni	Ni	0.15450 0.14586 0.74424 1.08900
H 	H 	0.03672 0.82251 0.73507 0.19200
H 	H 	0.02816 0.06910 0.72037 0.18400
C 	C 	0.93221 0.97454 0.67490 0.32200
O 	O 	0.18478 0.09116 0.78337 -0.36800
C 	C 	0.89065 0.79755 0.78118 0.31600
C 	C 	0.01203 0.77911 0.66078 0.30500
C 	C 	0.18122 0.00597 0.78412 0.34100
C 	C 	0.22636 0.09840 0.68644 0.30900
C 	C 	0.03622 0.13993 0.79137 0.31500
O 	O 	0.99809 0.97247 0.66621 -0.33600
O 	O 	0.94657 0.78898 0.66661 -0.36700
Ni	Ni	0.24129 0.70379 0.39815 1.10600
O 	O 	0.32471 0.74904 0.36541 -0.69800
Ni	Ni	0.41249 0.73177 0.38908 1.10400
O 	O 	0.16462 0.74794 0.37538 -0.33200
O 	O 	0.24588 0.88423 0.35781 -0.36200
O 	O 	0.18886 0.58363 0.37183 -0.34700
Ni	Ni	0.35582 0.88118 0.35802 1.08300
O 	O 	0.18116 0.51693 0.43252 -0.38800
O 	O 	0.36492 0.91290 0.40526 -0.38400
O 	O 	0.49194 0.78117 0.35542 -0.35300
O 	O 	0.32803 0.68447 0.42124 -0.70100
O 	O 	0.16403 0.65482 0.43263 -0.34200
O 	O 	0.48817 0.69267 0.41533 -0.32800
O 	O 	0.40361 0.54857 0.42165 -0.38500
Ni	Ni	0.29599 0.55176 0.42757 1.07700
H 	H 	0.31216 0.71246 0.34540 0.18200
H 	H 	0.34037 0.71937 0.44159 0.17900
C 	C 	0.42151 0.90783 0.42279 0.29800
O 	O 	0.28028 0.52291 0.38083 -0.39800
C 	C 	0.18251 0.81214 0.35424 0.32200
C 	C 	0.50717 0.86380 0.34426 0.32600
C 	C 	0.21794 0.52019 0.36607 0.33000
C 	C 	0.46515 0.61642 0.43105 0.29300
C 	C 	0.14653 0.57106 0.44321 0.30200
O 	O 	0.45897 0.85540 0.41371 -0.34800
O 	O 	0.47185 0.91709 0.35516 -0.37700
Ni	Ni	0.37067 0.68072 0.05312 1.10800
O 	O 	0.27382 0.66371 0.02691 -0.69700
Ni	Ni	0.21092 0.69391 0.05955 1.10700
O 	O 	0.40759 0.59981 0.02415 -0.33700
O 	O 	0.29002 0.48762 0.02280 -0.37900
O 	O 	0.43000 0.79100 0.02614 -0.34500
Ni	Ni	0.21383 0.54650 0.00686 1.09500
O 	O 	0.47553 0.86141 0.08298 -0.37200
O 	O 	0.13216 0.48107 0.03877 -0.37300
O 	O 	0.10543 0.64976 0.03701 -0.34400
O 	O 	0.31389 0.73033 0.08278 -0.70200
O 	O 	0.46525 0.71049 0.08135 -0.34900
O 	O 	0.17187 0.75046 0.09605 -0.33200
O 	O 	0.26668 0.88958 0.08957 -0.36700
Ni	Ni	0.36708 0.86236 0.08598 1.08900
H 	H 	0.28415 0.71039 0.01050 0.19000
H 	H 	0.31052 0.70204 0.10370 0.18200
C 	C 	0.13947 0.49277 0.06962 0.33800
O 	O 	0.36219 0.88100 0.03874 -0.38800
C 	C 	0.36053 0.51970 0.01333 0.29200
C 	C 	0.09237 0.62384 0.00680 0.30200
C 	C 	0.40738 0.85937 0.01974 0.30200
C 	C 	0.20714 0.83700 0.10497 0.31100
C 	C 	0.49774 0.79489 0.09315 0.31400
O 	O 	0.18229 0.57212 0.08265 -0.37300
O 	O 	0.14456 0.60875 0.98960 -0.36700
Ni	Ni	0.94525 0.03205 0.26151 1.10600
O 	O 	0.96046 0.12958 0.22802 -0.70300
Ni	Ni	0.91435 0.05047 0.19011 1.11100
O 	O 	0.99889 0.12991 0.29573 -0.31900
O 	O 	0.10252 0.18511 0.26488 -0.37500
O 	O 	0.83930 0.03695 0.27051 -0.35300
Ni	Ni	0.06696 0.19211 0.21856 1.07700
O 	O 	0.89221 0.79972 0.25945 -0.35300
O 	O 	0.08870 0.07495 0.20876 -0.38100
O 	O 	0.92437 0.15407 0.15990 -0.33500
O 	O 	0.91617 0.95498 0.22213 -0.69700
O 	O 	0.92711 0.92817 0.29232 -0.34300
O 	O 	0.84159 0.95465 0.15937 -0.32800
O 	O 	0.76010 0.88846 0.19877 -0.37600
Ni	Ni	0.82781 0.84570 0.22950 1.09300
H 	H 	0.93434 0.17287 0.23269 0.18800
H 	H 	0.95842 0.93347 0.21826 0.18600
C 	C 	0.06375 0.02859 0.18216 0.32300
O 	O 	0.78065 0.88084 0.26833 -0.36500
C 	C 	0.06405 0.19512 0.28935 0.29400
C 	C 	0.99227 0.21952 0.15698 0.32900
C 	C 	0.77835 0.96245 0.27420 0.33600
C 	C 	0.77409 0.90087 0.16842 0.31700
C 	C 	0.93460 0.85082 0.28325 0.31300
O 	O 	0.00401 0.03435 0.16731 -0.34500
O 	O 	0.05362 0.21342 0.17147 -0.38800
C 	C 	0.04151 0.43475 0.11124 0.10600
C 	C 	0.09175 0.41843 0.08969 -0.10500
C 	C 	0.09190 0.32877 0.08565 0.10500
C 	C 	0.04431 0.25759 0.10381 0.10800
C 	C 	0.00554 0.27778 0.12916 -0.09800
C 	C 	0.00056 0.36514 0.13175 0.09200
Br	Br	0.93962 0.38991 0.16400 -0.15400
Br	Br	0.02444 0.54903 0.11114 -0.14800
Br	Br	0.03483 0.13256 0.09510 -0.13500
Br	Br	0.16193 0.30473 0.05747 -0.17400
C 	C 	0.59054 0.89688 0.13309 0.10600
C 	C 	0.56994 0.82054 0.11192 -0.09800
C 	C 	0.62241 0.77568 0.10699 0.10900
C 	C 	0.68846 0.79944 0.12650 0.10300
C 	C 	0.70959 0.87880 0.14597 -0.09600
C 	C 	0.66452 0.93291 0.14590 0.11600
Br	Br	0.70808 0.06045 0.15849 -0.15300
Br	Br	0.51565 0.94363 0.14829 -0.18800
Br	Br	0.74963 0.72386 0.12640 -0.14700
Br	Br	0.61215 0.69511 0.07078 -0.14400
C 	C 	0.05714 0.89028 0.15039 0.11100
C 	C 	0.10132 0.96815 0.16871 -0.09700
C 	C 	0.18163 0.99569 0.16876 0.11400
C 	C 	0.21533 0.94549 0.15037 0.10700
C 	C 	0.17067 0.88002 0.12762 -0.09300
C 	C 	0.09109 0.85638 0.12673 0.11300
Br	Br	0.02989 0.79284 0.09048 -0.13000
Br	Br	0.95211 0.82484 0.15942 -0.17500
Br	Br	0.32058 0.96155 0.15812 -0.19400
Br	Br	0.24607 0.10447 0.19175 -0.15500
C 	C 	0.57527 0.91999 0.29428 0.10400
C 	C 	0.57850 0.90627 0.32694 -0.09700
C 	C 	0.64995 0.93194 0.34293 0.11000
C 	C 	0.71758 0.96496 0.32581 0.10800
C 	C 	0.71393 0.96791 0.29261 -0.09100
C 	C 	0.64290 0.95097 0.27717 0.10200
Br	Br	0.63820 0.96874 0.23260 -0.14900
Br	Br	0.47803 0.89324 0.27279 -0.18400
Br	Br	0.81524 0.00453 0.34769 -0.11900
Br	Br	0.65527 0.91976 0.38804 -0.13900
C 	C 	0.09573 0.39836 0.34534 0.10900
C 	C 	0.17625 0.43988 0.34515 -0.10700
C 	C 	0.21755 0.39604 0.32819 0.10500
C 	C 	0.18056 0.30665 0.31625 0.09700
C 	C 	0.10066 0.27168 0.31225 -0.09400
C 	C 	0.05827 0.32006 0.32607 0.09000
Br	Br	0.95049 0.28448 0.31694 -0.14600
Br	Br	0.03688 0.43982 0.37435 -0.15000
Br	Br	0.23851 0.22889 0.30944 -0.15200
Br	Br	0.32223 0.46134 0.31812 -0.18000
C 	C 	0.05730 0.83197 0.35088 0.10100
C 	C 	0.11934 0.82196 0.33546 -0.09400
C 	C 	0.11657 0.81089 0.30236 0.10500
C 	C 	0.05295 0.81332 0.28474 0.09100
C 	C 	0.98997 0.82076 0.30048 -0.08700
C 	C 	0.99024 0.82178 0.33366 0.11800
Br	Br	0.89804 0.80692 0.35544 -0.11800
Br	Br	0.06761 0.87094 0.39467 -0.12600
Br	Br	0.05388 0.81073 0.23925 -0.18700
Br	Br	0.20002 0.79314 0.28126 -0.19700
C 	C 	0.44589 0.06992 0.49342 -0.01800
C 	C 	0.52557 0.10887 0.49651 -0.06200
C 	C 	0.57032 0.08716 0.47383 0.10900
C 	C 	0.53559 0.02250 0.44971 -0.01800
C 	C 	0.45620 0.97853 0.44785 -0.06200
C 	C 	0.41093 0.00346 0.46962 0.10600
N 	N 	0.32992 0.95865 0.46858 -0.01900
H 	H 	0.41111 0.08715 0.51057 0.09500
H 	H 	0.57056 0.00656 0.43235 0.09800
N 	N 	0.65141 0.12998 0.47548 -0.02500
O 	O 	0.29971 0.87077 0.47265 -0.09800
O 	O 	0.28645 0.00682 0.46632 -0.06200
O 	O 	0.69324 0.08116 0.48105 -0.06100
O 	O 	0.68346 0.21579 0.46853 -0.09900
C 	C 	0.93986 0.49887 0.46635 -0.01300
C 	C 	0.93609 0.43517 0.48979 -0.04600
C 	C 	0.00142 0.41463 0.49732 0.09400
C 	C 	0.06979 0.46003 0.48216 -0.01700
C 	C 	0.07486 0.52866 0.46036 -0.06100
C 	C 	0.00918 0.54870 0.45276 0.10900
N 	N 	0.01385 0.62457 0.43352 -0.02400
H 	H 	0.89009 0.51564 0.46065 0.06900
H 	H 	0.11955 0.44338 0.48796 0.06400
N 	N 	0.99966 0.35103 0.52140 -0.01000
O 	O 	0.98966 0.61041 0.40423 -0.03900
O 	O 	0.03148 0.70574 0.44650 -0.05100
O 	O 	0.99772 0.26940 0.51372 -0.05200
O 	O 	0.00555 0.37687 0.55098 -0.07100
C 	C 	0.53758 0.52250 0.44947 -0.01900
C 	C 	0.51636 0.59876 0.45429 -0.06800
C 	C 	0.52833 0.64280 0.48425 0.09300
C 	C 	0.55417 0.60474 0.50970 -0.01600
C 	C 	0.56898 0.52386 0.50532 -0.08100
C 	C 	0.56287 0.48423 0.47489 0.09500
N 	N 	0.58240 0.40502 0.46973 -0.02900
H 	H 	0.53011 0.48965 0.42627 0.08200
H 	H 	0.56221 0.63774 0.53289 0.07800
N 	N 	0.51100 0.72382 0.48918 -0.02700
O 	O 	0.53231 0.32377 0.47403 -0.08700
O 	O 	0.64798 0.41372 0.45825 -0.11800
O 	O 	0.46148 0.72493 0.50992 -0.10100
O 	O 	0.54834 0.79824 0.47447 -0.06700
C 	C 	0.87224 0.98642 0.62273 0.10400
C 	C 	0.89202 0.01830 0.65427 -0.09600
C 	C 	0.87510 0.09392 0.66542 0.11100
C 	C 	0.82866 0.12698 0.64694 0.10800
C 	C 	0.81723 0.10335 0.61466 -0.10200
C 	C 	0.84040 0.03384 0.60235 0.11300
Br	Br	0.82831 0.00358 0.55774 -0.12400
Br	Br	0.88272 0.87443 0.60820 -0.13600
Br	Br	0.77117 0.19132 0.66688 -0.19300
Br	Br	0.92827 0.16494 0.70175 -0.17200
C 	C 	0.30413 0.07155 0.64256 0.10900
C 	C 	0.29667 0.12801 0.66758 -0.09000
C 	C 	0.35474 0.21487 0.67314 0.10700
C 	C 	0.42109 0.24090 0.65506 0.10500
C 	C 	0.42332 0.18836 0.62784 -0.09600
C 	C 	0.36034 0.10772 0.62032 0.10600
Br	Br	0.34411 0.05443 0.57822 -0.14900
Br	Br	0.24758 0.94166 0.64163 -0.14500
Br	Br	0.50966 0.34390 0.66900 -0.17300
Br	Br	0.34165 0.30095 0.70342 -0.19500
C 	C 	0.93152 0.53986 0.63680 0.09900
C 	C 	0.90138 0.55367 0.60725 -0.09500
C 	C 	0.93568 0.63914 0.59241 0.10800
C 	C 	0.99625 0.70859 0.60800 0.13600
C 	C 	0.00947 0.70205 0.64025 -0.11700
C 	C 	0.98601 0.61472 0.65326 0.11700
Br	Br	0.02162 0.60083 0.69510 -0.19300
Br	Br	0.89556 0.42126 0.65551 -0.14200
Br	Br	0.05570 0.81708 0.58639 -0.12200
Br	Br	0.89397 0.66744 0.55371 -0.20700
C 	C 	0.93387 0.57823 0.94652 -0.00300
C 	C 	0.87641 0.50702 0.96083 -0.06900
C 	C 	0.88627 0.48569 0.99242 0.11700
C 	C 	0.95511 0.53246 0.00872 -0.01700
C 	C 	0.01503 0.59796 0.99342 -0.06200
C 	C 	0.00297 0.62429 0.96273 0.09900
N 	N 	0.06110 0.69746 0.94791 -0.02000
H 	H 	0.92476 0.59797 0.92281 0.09000
H 	H 	0.96399 0.51280 0.03249 0.09500
N 	N 	0.82816 0.41323 0.00744 -0.02500
O 	O 	0.07920 0.68704 0.91904 -0.05600
O 	O 	0.09317 0.77603 0.96272 -0.06000
O 	O 	0.80790 0.32952 0.99640 -0.06500
O 	O 	0.80069 0.42961 0.03377 -0.05800
C 	C 	0.45979 0.95998 0.93958 -0.01500
C 	C 	0.52622 0.03540 0.94700 -0.06300
C 	C 	0.55400 0.05241 0.97848 0.11400
C 	C 	0.51385 0.99515 0.00227 -0.02500
C 	C 	0.44517 0.92269 0.99498 -0.05700
C 	C 	0.41676 0.90685 0.96356 0.11100
N 	N 	0.34196 0.84178 0.95621 -0.02400
H 	H 	0.43915 0.94597 0.91527 0.08900
H 	H 	0.53614 0.00695 0.02641 0.08200
N 	N 	0.62222 0.12851 0.98647 -0.02500
O 	O 	0.28409 0.84593 0.97146 -0.07800
O 	O 	0.33020 0.78885 0.93114 -0.06100
O 	O 	0.62138 0.18893 0.00776 -0.07200
O 	O 	0.68623 0.13374 0.97418 -0.07300
C 	C 	0.39236 0.39479 0.98783 -0.01500
C 	C 	0.38105 0.47812 0.98536 -0.07600
C 	C 	0.39698 0.52616 0.95696 0.09600
C 	C 	0.42881 0.49363 0.93212 -0.02000
C 	C 	0.44431 0.41302 0.93518 -0.07900
C 	C 	0.42486 0.36249 0.96311 0.09800
N 	N 	0.44250 0.28169 0.96723 -0.01900
H 	H 	0.37956 0.35733 0.00957 0.07800
H 	H 	0.44250 0.53188 0.91056 0.08200
N 	N 	0.38120 0.60841 0.95337 -0.01700
O 	O 	0.51249 0.28857 0.97288 -0.11600
O 	O 	0.38794 0.20204 0.96807 -0.05800
O 	O 	0.43533 0.68413 0.94619 -0.07600
O 	O 	0.31201 0.60662 0.95584 -0.14800
C 	C 	0.84155 0.14433 0.80930 0.10900
C 	C 	0.85846 0.20340 0.83601 -0.09200
C 	C 	0.93507 0.24748 0.84654 0.11100
C 	C 	0.99410 0.23430 0.82959 0.11700
C 	C 	0.97642 0.16973 0.80433 -0.09000
C 	C 	0.89954 0.12231 0.79505 0.11300
Br	Br	0.87266 0.02041 0.76545 -0.21100
Br	Br	0.73912 0.09554 0.79156 -0.19700
Br	Br	0.09891 0.30141 0.84189 -0.14900
Br	Br	0.95879 0.31807 0.88572 -0.13700
C 	C 	0.37751 0.00905 0.79782 0.10800
C 	C 	0.38664 0.03456 0.83007 -0.09700
C 	C 	0.32166 0.01886 0.84835 0.11200
C 	C 	0.24966 0.99393 0.83333 0.11000
C 	C 	0.24324 0.98680 0.80027 -0.10300
C 	C 	0.30506 0.98369 0.78295 0.10300
Br	Br	0.28985 0.94354 0.73932 -0.17900
Br	Br	0.46465 0.01460 0.77387 -0.17300
Br	Br	0.16031 0.97486 0.85770 -0.12900
Br	Br	0.33206 0.03938 0.89344 -0.13800
C 	C 	0.77767 0.71644 0.81354 0.10500
C 	C 	0.84853 0.72218 0.80165 -0.09900
C 	C 	0.88174 0.65885 0.81097 0.10100
C 	C 	0.84694 0.59373 0.83364 0.10900
C 	C 	0.77485 0.58565 0.84474 -0.10700
C 	C 	0.73963 0.64607 0.83420 0.10700
Br	Br	0.63831 0.63050 0.84717 -0.17300
Br	Br	0.73453 0.80730 0.80291 -0.13800
Br	Br	0.90066 0.52044 0.85105 -0.14300
Br	Br	0.97410 0.65977 0.79189 -0.16200
