data_crystal

_cell_length_a 30.60587
_cell_length_b 27.76712
_cell_length_c 39.67943
_cell_angle_alpha 103.92263
_cell_angle_beta  115.88136
_cell_angle_gamma 111.65342

_symmetry_space_group_name_	'P 1'
_symmetry_space_group_name_H-M	'P 1'

loop_
_symmetry_equiv_pos_as_xyz
  x,y,z

loop_
_atom_site_label
_atom_site_type_symbol
_atom_site_fract_x
_atom_site_fract_y
_atom_site_fract_z
_atom_site_charge
N 	N 	0.54757 0.20580 0.86914 -0.13700
C 	C 	0.52656 0.23902 0.87730 0.13900
N 	N 	0.54691 0.29233 0.87840 -0.13700
C 	C 	0.58736 0.31189 0.87055 0.14000
N 	N 	0.60750 0.27803 0.86177 -0.13700
C 	C 	0.58880 0.22571 0.86212 0.14000
C 	C 	0.39307 0.17131 0.89729 -0.01300
C 	C 	0.38979 0.19916 0.87166 -0.03300
C 	C 	0.43386 0.22201 0.86576 -0.01300
C 	C 	0.48220 0.21750 0.88533 -0.03800
C 	C 	0.48616 0.19077 0.91137 0.06100
C 	C 	0.44127 0.16748 0.91732 0.04900
H 	H 	0.35308 0.20315 0.85621 0.05000
H 	H 	0.42987 0.24254 0.84548 0.04900
N 	N 	0.53167 0.18536 0.93262 -0.10800
N 	N 	0.44907 0.14222 0.94324 -0.10400
C 	C 	0.67358 0.13087 0.86346 -0.01400
C 	C 	0.70574 0.19249 0.88237 0.04800
C 	C 	0.67752 0.22430 0.88060 0.06100
C 	C 	0.61742 0.19372 0.85944 -0.03900
C 	C 	0.58516 0.13143 0.83838 -0.01200
C 	C 	0.61295 0.10038 0.84045 -0.03400
N 	N 	0.76474 0.22602 0.90940 -0.10600
N 	N 	0.71322 0.28413 0.90626 -0.11100
C 	C 	0.66684 0.48791 0.88530 -0.01500
C 	C 	0.70004 0.46404 0.90021 -0.03000
C 	C 	0.67402 0.40697 0.89570 -0.01500
C 	C 	0.61405 0.37226 0.87616 -0.03800
C 	C 	0.58093 0.39612 0.86201 0.06100
C 	C 	0.60759 0.45450 0.86687 0.04300
H 	H 	0.74606 0.48939 0.91487 0.05100
H 	H 	0.70073 0.38986 0.90754 0.05100
N 	N 	0.52243 0.36587 0.84156 -0.11100
N 	N 	0.57139 0.47308 0.85082 -0.11000
S 	S 	0.51146 0.15164 0.95658 0.11100
S 	S 	0.77637 0.29198 0.92835 0.10000
S 	S 	0.50947 0.41490 0.83184 0.10000
H 	H 	0.53856 0.10690 0.82120 0.04800
H 	H 	0.58732 0.05258 0.82516 0.04900
N 	N 	0.63564 0.25140 0.41602 -0.13600
C 	C 	0.61184 0.28183 0.42330 0.13900
N 	N 	0.62585 0.33243 0.42038 -0.13600
C 	C 	0.66233 0.35172 0.40907 0.13900
N 	N 	0.68421 0.31992 0.40030 -0.13700
C 	C 	0.67250 0.27087 0.40505 0.13900
C 	C 	0.49441 0.22228 0.45865 -0.01400
C 	C 	0.48047 0.23783 0.42585 -0.03000
C 	C 	0.51882 0.25710 0.41435 -0.01400
C 	C 	0.57170 0.26061 0.43510 -0.03800
C 	C 	0.58531 0.24413 0.46716 0.06100
C 	C 	0.54636 0.22486 0.47902 0.04500
H 	H 	0.44023 0.23578 0.40953 0.05200
H 	H 	0.50721 0.26922 0.38922 0.04900
N 	N 	0.63713 0.25020 0.49146 -0.10900
N 	N 	0.56563 0.21460 0.51301 -0.10900
C 	C 	0.76612 0.18701 0.40146 -0.01500
C 	C 	0.79302 0.24787 0.41627 0.04400
C 	C 	0.76193 0.27588 0.41706 0.06100
C 	C 	0.70400 0.24225 0.40232 -0.03800
C 	C 	0.67669 0.18053 0.38586 -0.01400
C 	C 	0.70754 0.15331 0.38570 -0.03000
N 	N 	0.85117 0.28500 0.43708 -0.11000
N 	N 	0.79447 0.33621 0.43867 -0.11100
C 	C 	0.72998 0.52505 0.41781 -0.01500
C 	C 	0.76593 0.50368 0.43204 -0.03000
C 	C 	0.74372 0.44747 0.42938 -0.01600
C 	C 	0.68481 0.41097 0.41231 -0.03800
C 	C 	0.64881 0.43202 0.39835 0.06100
C 	C 	0.67163 0.48959 0.40135 0.04300
H 	H 	0.81129 0.53053 0.44508 0.05000
H 	H 	0.77265 0.43255 0.44092 0.05100
N 	N 	0.59123 0.40046 0.38116 -0.11000
N 	N 	0.63318 0.50616 0.38700 -0.11100
S 	S 	0.62940 0.23050 0.52516 0.10600
S 	S 	0.85853 0.34909 0.45433 0.09700
S 	S 	0.57421 0.44738 0.37162 0.10000
H 	H 	0.63174 0.15355 0.37374 0.04900
H 	H 	0.68608 0.10609 0.37420 0.05000
N 	N 	0.44343 0.80003 0.02294 -0.13700
C 	C 	0.46673 0.76953 0.01470 0.13800
N 	N 	0.44306 0.71257 0.00707 -0.13600
C 	C 	0.39631 0.68629 0.00765 0.13000
N 	N 	0.37249 0.71658 0.01488 -0.13700
C 	C 	0.39585 0.77338 0.02249 0.13500
C 	C 	0.61508 0.85158 0.01140 -0.02100
C 	C 	0.60728 0.80948 0.02588 -0.03500
C 	C 	0.55925 0.78333 0.02726 -0.01400
C 	C 	0.51731 0.79798 0.01364 -0.04500
C 	C 	0.52472 0.83972 0.99914 0.06600
C 	C 	0.57413 0.86698 0.99836 0.05300
H 	H 	0.63801 0.79628 0.03562 0.04400
H 	H 	0.55479 0.75155 0.03891 0.04800
N 	N 	0.48504 0.85429 0.98260 -0.11000
N 	N 	0.57579 0.90463 0.98158 -0.10500
C 	C 	0.28642 0.83960 0.01369 -0.02600
C 	C 	0.29919 0.81462 0.04040 0.04800
C 	C 	0.33915 0.79652 0.04614 0.05500
C 	C 	0.36531 0.80322 0.02468 -0.03100
C 	C 	0.35529 0.83242 0.00029 -0.03800
C 	C 	0.31623 0.85036 0.99485 -0.01000
N 	N 	0.27118 0.80048 0.05885 -0.11000
N 	N 	0.34458 0.76752 0.06956 -0.10900
C 	C 	0.31685 0.50932 0.99073 -0.00900
C 	C 	0.28302 0.52917 0.96918 -0.02800
C 	C 	0.30919 0.58595 0.97321 -0.01600
C 	C 	0.36990 0.62428 0.99885 -0.02300
C 	C 	0.40386 0.60376 0.01862 0.05300
C 	C 	0.37710 0.54570 0.01435 0.03800
H 	H 	0.23629 0.50133 0.95022 0.05400
H 	H 	0.28204 0.60051 0.95701 0.05100
N 	N 	0.46276 0.63830 0.04612 -0.11000
N 	N 	0.41380 0.53185 0.03801 -0.11100
S 	S 	0.51547 0.90025 0.96905 0.10200
S 	S 	0.29916 0.76716 0.08093 0.10200
S 	S 	0.47609 0.59315 0.06213 0.09600
H 	H 	0.37549 0.83869 0.98374 0.06000
H 	H 	0.30731 0.87028 0.97439 0.04700
N 	N 	0.49242 0.82260 0.53155 -0.13700
C 	C 	0.51538 0.79021 0.52654 0.13800
N 	N 	0.48847 0.73340 0.51878 -0.13700
C 	C 	0.43863 0.70903 0.51590 0.13900
N 	N 	0.41590 0.74163 0.52094 -0.13600
C 	C 	0.44292 0.79855 0.52907 0.13900
C 	C 	0.65728 0.86641 0.51628 -0.01600
C 	C 	0.61089 0.80700 0.48772 -0.03400
C 	C 	0.56588 0.78151 0.49227 -0.01500
C 	C 	0.56620 0.81481 0.52548 -0.03900
C 	C 	0.61346 0.87300 0.55509 0.05900
C 	C 	0.65927 0.89894 0.55041 0.04700
H 	H 	0.60911 0.78067 0.46152 0.04700
H 	H 	0.52992 0.73630 0.46910 0.04900
N 	N 	0.61739 0.90959 0.58771 -0.11000
N 	N 	0.70112 0.95721 0.57891 -0.10700
C 	C 	0.35440 0.88922 0.52892 -0.01800
C 	C 	0.35649 0.85561 0.55003 0.04900
C 	C 	0.38779 0.82736 0.55170 0.06000
C 	C 	0.41612 0.83256 0.53176 -0.03800
C 	C 	0.41520 0.86803 0.51160 -0.01400
C 	C 	0.38465 0.89599 0.51018 -0.03300
N 	N 	0.33102 0.84865 0.57093 -0.10700
N 	N 	0.38862 0.79698 0.57414 -0.11000
C 	C 	0.34608 0.52799 0.48916 -0.01400
C 	C 	0.35699 0.57431 0.52234 -0.03000
C 	C 	0.38803 0.63336 0.53140 -0.01400
C 	C 	0.40941 0.64757 0.50775 -0.03900
C 	C 	0.39974 0.60189 0.47528 0.06100
C 	C 	0.36792 0.54169 0.46598 0.04400
H 	H 	0.34098 0.56464 0.54098 0.05100
H 	H 	0.39530 0.66804 0.55684 0.04900
N 	N 	0.41565 0.61028 0.44893 -0.11100
N 	N 	0.35772 0.49999 0.43211 -0.10900
S 	S 	0.67745 0.97086 0.60758 0.09700
S 	S 	0.35001 0.80795 0.58963 0.10300
S 	S 	0.38912 0.54199 0.41678 0.10200
H 	H 	0.43669 0.87266 0.49587 0.04700
H 	H 	0.38321 0.92153 0.49338 0.04700
Zn	Zn	0.12055 0.11951 0.99095 1.18800
Zn	Zn	0.02764 0.06229 0.89715 1.20100
O 	O 	0.02668 0.95840 0.83775 -0.44000
O 	O 	0.00454 0.02862 0.83643 -0.41100
O 	O 	0.02675 0.89993 0.90428 -0.46700
C 	C 	0.17934 0.08693 0.96144 0.29600
O 	O 	0.97465 0.98359 0.88502 -0.88800
C 	C 	0.12405 0.19154 0.94783 0.30600
O 	O 	0.18735 0.12009 0.99606 -0.45100
O 	O 	0.12644 0.04585 0.92779 -0.34400
O 	O 	0.04204 0.07910 0.95550 -0.76100
O 	O 	0.07076 0.98469 0.96416 -0.44800
O 	O 	0.08681 0.14167 0.91111 -0.44200
O 	O 	0.13710 0.19171 0.98421 -0.43800
Zn	Zn	0.86720 0.89448 0.90240 1.17700
Zn	Zn	0.96534 0.93406 0.98636 1.18600
Zn	Zn	0.99232 0.99938 0.94093 1.20900
C 	C 	0.86279 0.81056 0.93786 0.31200
C 	C 	0.83256 0.93793 0.95069 0.31000
O 	O 	0.91479 0.01812 0.91852 -0.45800
Zn	Zn	0.96808 0.04100 0.00840 1.19500
O 	O 	0.91641 0.85111 0.97187 -0.44700
O 	O 	0.83800 0.81853 0.90475 -0.44600
O 	O 	0.81785 0.91561 0.91152 -0.47200
O 	O 	0.88414 0.95481 0.98247 -0.46800
C 	C 	0.00301 0.01000 0.07629 0.34100
O 	O 	0.94246 0.91986 0.92627 -0.80300
C 	C 	0.90492 0.05303 0.93904 0.30500
O 	O 	0.99535 0.96306 0.04975 -0.44900
O 	O 	0.99808 0.05023 0.06573 -0.47000
O 	O 	0.92961 0.07294 0.98013 -0.47500
O 	O 	0.00913 0.01371 0.99625 -0.86500
Zn	Zn	0.99649 0.93167 0.86946 1.18000
C 	C 	0.01972 0.99425 0.82246 0.28000
C 	C 	0.06692 0.93579 0.94525 0.30300
H 	H 	0.05070 0.03568 0.01987 0.16300
H 	H 	0.93360 0.96812 0.86353 0.14900
Zn	Zn	0.19124 0.14185 0.51876 1.18700
Zn	Zn	0.09199 0.10607 0.43144 1.19600
O 	O 	0.07174 0.00386 0.35834 -0.44800
O 	O 	0.05935 0.08121 0.36874 -0.41300
O 	O 	0.06695 0.92527 0.41227 -0.48400
C 	C 	0.23779 0.10328 0.47804 0.29500
O 	O 	0.03365 0.02683 0.41572 -0.85300
C 	C 	0.20181 0.22886 0.48789 0.30700
O 	O 	0.25073 0.13386 0.51558 -0.43700
O 	O 	0.18372 0.07156 0.44446 -0.33800
O 	O 	0.11439 0.11340 0.49000 -0.77300
O 	O 	0.12550 0.00541 0.47814 -0.44000
O 	O 	0.15597 0.18568 0.44911 -0.42900
O 	O 	0.21694 0.22051 0.52153 -0.45300
Zn	Zn	0.93293 0.93727 0.43943 1.17300
Zn	Zn	0.03567 0.95986 0.51287 1.19200
Zn	Zn	0.05856 0.03410 0.47153 1.21900
C 	C 	0.92592 0.84438 0.46653 0.30900
C 	C 	0.91819 0.98427 0.50154 0.30400
O 	O 	0.99163 0.06600 0.46541 -0.44800
Zn	Zn	0.05620 0.07531 0.55103 1.20500
O 	O 	0.98286 0.87624 0.49389 -0.46000
O 	O 	0.89906 0.85848 0.43806 -0.44700
O 	O 	0.89705 0.96691 0.46106 -0.46600
O 	O 	0.96959 0.99433 0.52755 -0.48500
C 	C 	0.08450 0.02703 0.60791 0.30000
O 	O 	0.00360 0.95426 0.45347 -0.78700
C 	C 	0.99031 0.10113 0.49363 0.28500
O 	O 	0.06921 0.97987 0.57615 -0.41400
O 	O 	0.09232 0.07553 0.60526 -0.44600
O 	O 	0.02448 0.11859 0.53436 -0.46400
O 	O 	0.08401 0.04089 0.52703 -0.89000
Zn	Zn	0.04288 0.96983 0.38818 1.18500
C 	C 	0.06072 0.03997 0.34531 0.28000
C 	C 	0.11070 0.95340 0.45257 0.29500
H 	H 	0.12589 0.05758 0.54666 0.16600
H 	H 	0.99365 0.01743 0.39871 0.14000
C 	C 	0.06471 0.01134 0.73895 0.11000
N 	N 	0.05230 0.96245 0.74398 -0.07400
N 	N 	0.03743 0.95674 0.77043 -0.05700
C 	C 	0.03354 0.99925 0.79196 0.03600
N 	N 	0.04578 0.04801 0.78682 -0.05000
N 	N 	0.06132 0.05406 0.76079 -0.06800
C 	C 	0.09065 0.02472 0.64616 0.04500
N 	N 	0.10884 0.07384 0.67940 -0.05800
N 	N 	0.10299 0.06994 0.71015 -0.07000
C 	C 	0.07895 0.01682 0.70866 0.10700
N 	N 	0.06326 0.96806 0.67652 -0.07300
N 	N 	0.06884 0.97192 0.64560 -0.06000
C 	C 	0.03635 0.02779 0.19371 0.10800
N 	N 	0.03165 0.98176 0.16721 -0.07400
N 	N 	0.02225 0.97670 0.13005 -0.05700
C 	C 	0.01756 0.01769 0.11845 0.03800
N 	N 	0.02297 0.06408 0.14518 -0.05200
N 	N 	0.03222 0.06906 0.18227 -0.06800
C 	C 	0.05522 0.03751 0.30623 0.04600
N 	N 	0.04885 0.07753 0.29404 -0.05400
N 	N 	0.04341 0.07480 0.25831 -0.06800
C 	C 	0.04410 0.03192 0.23375 0.10700
N 	N 	0.05062 0.99204 0.24602 -0.07500
N 	N 	0.05619 0.99485 0.28179 -0.06600
C 	C 	0.24907 0.35521 0.46705 0.09100
C 	C 	0.30424 0.39697 0.50541 0.09900
N 	N 	0.33546 0.45177 0.51137 -0.11500
C 	C 	0.31399 0.46666 0.48042 0.06600
C 	C 	0.25903 0.42472 0.44188 0.00400
N 	N 	0.22768 0.36977 0.43595 -0.09900
N 	N 	0.21688 0.30110 0.46178 -0.08600
N 	N 	0.32535 0.38283 0.53675 -0.11200
H 	H 	0.24100 0.43619 0.41721 0.05200
C 	C 	0.23764 0.28709 0.49348 -0.03000
C 	C 	0.29333 0.32876 0.53157 0.04700
H 	H 	0.31104 0.31815 0.55685 0.04000
C 	C 	0.79915 0.94005 0.53296 0.09800
C 	C 	0.78279 0.93872 0.49354 0.08800
N 	N 	0.82266 0.95636 0.48504 -0.08900
C 	C 	0.87842 0.97508 0.51423 -0.04000
C 	C 	0.89530 0.97896 0.55446 0.04400
N 	N 	0.85522 0.96104 0.56289 -0.11100
N 	N 	0.75833 0.91759 0.54005 -0.11100
N 	N 	0.72654 0.91648 0.46322 -0.10400
H 	H 	0.93960 0.99453 0.57839 0.03800
C 	C 	0.70165 0.89393 0.50924 0.06500
C 	C 	0.68567 0.89428 0.47034 -0.00200
H 	H 	0.64091 0.87645 0.44581 0.04400
C 	C 	0.24404 0.95244 0.50448 0.08400
C 	C 	0.22141 0.89158 0.48839 0.09900
N 	N 	0.25776 0.87225 0.49753 -0.11200
C 	C 	0.31600 0.91128 0.52191 0.07000
C 	C 	0.33864 0.97214 0.53824 -0.01400
N 	N 	0.30218 0.99154 0.52924 -0.10400
N 	N 	0.20759 0.97162 0.49373 -0.09800
N 	N 	0.16328 0.85238 0.46243 -0.11100
H 	H 	0.38488 0.00369 0.55766 0.05700
C 	C 	0.14927 0.93231 0.46700 -0.04800
C 	C 	0.12674 0.87152 0.45133 0.04600
H 	H 	0.08046 0.83974 0.43026 0.03600
C 	C 	0.21715 0.35042 0.95034 0.09900
C 	C 	0.22851 0.34911 0.98833 0.09500
N 	N 	0.19761 0.29772 0.98675 -0.09000
C 	C 	0.15558 0.24728 0.94863 -0.03000
C 	C 	0.14419 0.24877 0.91059 0.04700
N 	N 	0.17522 0.30032 0.91226 -0.10800
N 	N 	0.24739 0.40203 0.95187 -0.11300
N 	N 	0.26980 0.39941 0.02636 -0.10700
H 	H 	0.11104 0.20923 0.87995 0.05200
C 	C 	0.28884 0.45258 0.98997 0.07200
C 	C 	0.30001 0.45117 0.02794 -0.00500
H 	H 	0.33161 0.49128 0.05838 0.05000
C 	C 	0.69846 0.89599 0.96695 0.10700
C 	C 	0.75456 0.91683 0.00097 0.07600
N 	N 	0.79779 0.93262 0.99571 -0.08500
C 	C 	0.78733 0.92861 0.95773 -0.03600
C 	C 	0.73174 0.91055 0.92444 0.05100
N 	N 	0.68835 0.89416 0.92963 -0.11200
N 	N 	0.65433 0.87590 0.97108 -0.10800
N 	N 	0.76468 0.91871 0.03831 -0.10200
H 	H 	0.72290 0.90857 0.89441 0.04100
C 	C 	0.66411 0.87663 0.00822 0.06100
C 	C 	0.72069 0.89949 0.04275 -0.00200
H 	H 	0.72946 0.90151 0.07278 0.04200
C 	C 	0.20309 0.91040 0.00298 0.08800
C 	C 	0.14655 0.86201 0.96993 0.09800
N 	N 	0.10281 0.87087 0.95302 -0.09100
C 	C 	0.11301 0.92616 0.96803 -0.03400
C 	C 	0.16929 0.97427 0.00219 0.02500
N 	N 	0.21323 0.96543 0.01878 -0.11100
N 	N 	0.24757 0.90218 0.01756 -0.11300
N 	N 	0.13648 0.80710 0.95369 -0.10300
H 	H 	0.17833 0.01861 0.01449 0.03400
C 	C 	0.23760 0.84725 0.00079 0.06000
C 	C 	0.18086 0.79873 0.96858 0.01000
H 	H 	0.17240 0.75485 0.95488 0.04900
C 	C 	0.85661 0.13339 0.45292 0.10000
C 	C 	0.88008 0.12855 0.42965 0.08400
N 	N 	0.92264 0.11736 0.44285 -0.10100
C 	C 	0.94323 0.11164 0.47880 -0.03800
C 	C 	0.91886 0.11544 0.50152 0.05000
N 	N 	0.87606 0.12618 0.48809 -0.11000
N 	N 	0.81719 0.14877 0.44162 -0.11300
N 	N 	0.86211 0.13809 0.39542 -0.10800
H 	H 	0.93377 0.10964 0.52960 0.03600
C 	C 	0.80046 0.16014 0.40819 0.06500
C 	C 	0.82273 0.15379 0.38421 0.00100
H 	H 	0.81008 0.16305 0.35768 0.04600
C 	C 	0.83141 0.68453 0.46204 0.09800
C 	C 	0.81094 0.69105 0.42520 0.08700
N 	N 	0.84158 0.74311 0.42735 -0.09200
C 	C 	0.89237 0.78880 0.46484 -0.03400
C 	C 	0.91226 0.78240 0.50178 0.04600
N 	N 	0.88138 0.73040 0.49961 -0.11200
N 	N 	0.80274 0.63149 0.45938 -0.11600
N 	N 	0.76215 0.64439 0.38728 -0.10500
H 	H 	0.95193 0.81867 0.53203 0.04200
C 	C 	0.75444 0.58428 0.42129 0.06500
C 	C 	0.73359 0.59106 0.38454 0.00100
H 	H 	0.69610 0.55366 0.35380 0.04800
C 	C 	0.36507 0.13645 0.45495 0.10000
C 	C 	0.37777 0.17648 0.49238 0.09000
N 	N 	0.33719 0.16357 0.50043 -0.09000
C 	C 	0.28417 0.11223 0.47247 -0.02300
C 	C 	0.27246 0.07121 0.43593 0.04800
N 	N 	0.31306 0.08428 0.42783 -0.10800
N 	N 	0.40379 0.15138 0.44514 -0.11200
N 	N 	0.42929 0.22924 0.51902 -0.10200
H 	H 	0.23089 0.02976 0.41368 0.04800
C 	C 	0.45509 0.20461 0.47150 0.06600
C 	C 	0.46828 0.24404 0.50938 0.00300
H 	H 	0.50882 0.28662 0.53054 0.04900
C 	C 	0.77591 0.06147 0.90304 0.08900
C 	C 	0.77643 0.08537 0.87567 0.09800
N 	N 	0.74014 0.10388 0.86069 -0.11100
C 	C 	0.70294 0.09903 0.87171 0.06500
C 	C 	0.70032 0.07210 0.89714 0.00100
N 	N 	0.73710 0.05418 0.91251 -0.10000
N 	N 	0.81682 0.04981 0.92224 -0.08900
N 	N 	0.81623 0.09397 0.86705 -0.11400
H 	H 	0.67116 0.06819 0.90634 0.04900
C 	C 	0.85777 0.06004 0.91464 -0.04400
C 	C 	0.85662 0.08122 0.88571 0.04400
H 	H 	0.88880 0.08931 0.87922 0.01500
C 	C 	0.75301 0.65373 0.89379 0.08800
C 	C 	0.77112 0.64717 0.93062 0.09800
N 	N 	0.74160 0.59392 0.92743 -0.11500
C 	C 	0.69452 0.54674 0.88878 0.06500
C 	C 	0.67658 0.55338 0.85194 0.00200
N 	N 	0.70602 0.60684 0.85523 -0.10400
N 	N 	0.78329 0.70660 0.89684 -0.09100
N 	N 	0.81884 0.69376 0.96905 -0.11200
H 	H 	0.64027 0.51592 0.82083 0.04900
C 	C 	0.83140 0.75336 0.93526 -0.03600
C 	C 	0.84935 0.74675 0.97215 0.05400
H 	H 	0.88695 0.78363 0.00310 0.03800
C 	C 	0.31605 0.14384 0.94806 0.10100
C 	C 	0.25873 0.10185 0.91228 0.09400
N 	N 	0.21571 0.08227 0.91755 -0.08500
C 	C 	0.22741 0.10324 0.95718 -0.02900
C 	C 	0.28502 0.14415 0.99308 0.05700
N 	N 	0.32816 0.16369 0.98776 -0.10900
N 	N 	0.35874 0.16552 0.94263 -0.10900
N 	N 	0.24642 0.08272 0.87252 -0.09600
H 	H 	0.29529 0.16084 0.02490 0.03500
C 	C 	0.34642 0.14680 0.90275 0.06700
C 	C 	0.28914 0.10425 0.86703 0.00200
H 	H 	0.27877 0.08847 0.83516 0.05100
