data_crystal

_cell_length_a 17.49085
_cell_length_b 16.44917
_cell_length_c 50.90715
_cell_angle_alpha 90.74990
_cell_angle_beta  91.02294
_cell_angle_gamma 110.86973

_symmetry_space_group_name_	'P 1'
_symmetry_space_group_name_H-M	'P 1'

loop_
_symmetry_equiv_pos_as_xyz
  x,y,z

loop_
_atom_site_label
_atom_site_type_symbol
_atom_site_fract_x
_atom_site_fract_y
_atom_site_fract_z
_atom_site_charge
O 	O 	0.14338 0.78074 0.72212 -0.33400
C 	C 	0.06871 0.76191 0.71228 0.39700
Ni	Ni	0.35397 0.76546 0.40435 1.11100
O 	O 	0.33626 0.67596 0.37397 -0.69400
Ni	Ni	0.21891 0.65804 0.36419 1.11000
O 	O 	0.45535 0.74944 0.42066 -0.31000
O 	O 	0.44652 0.61470 0.40663 -0.36000
O 	O 	0.42995 0.86261 0.38168 -0.33600
Ni	Ni	0.33776 0.56191 0.38486 1.09200
O 	O 	0.33625 0.94587 0.40201 -0.34700
O 	O 	0.27137 0.56521 0.41713 -0.36700
O 	O 	0.20204 0.56497 0.33579 -0.32900
O 	O 	0.24171 0.75419 0.39202 -0.70600
O 	O 	0.36381 0.85762 0.43241 -0.31500
O 	O 	0.10592 0.66287 0.35516 -0.31300
O 	O 	0.16015 0.80830 0.34754 -0.36600
Ni	Ni	0.25012 0.86500 0.37642 1.09500
H 	H 	0.37252 0.69843 0.35897 0.20100
H 	H 	0.20240 0.73898 0.40651 0.19000
C 	C 	0.19504 0.56128 0.41510 0.32500
O 	O 	0.33628 0.86392 0.35005 -0.37500
C 	C 	0.45493 0.67149 0.42587 0.34100
C 	C 	0.21425 0.49277 0.34099 0.40100
C 	C 	0.41232 0.87810 0.35748 0.39800
C 	C 	0.09608 0.73734 0.35130 0.38300
C 	C 	0.34682 0.92748 0.42673 0.32500
O 	O 	0.16193 0.56631 0.39189 -0.33000
O 	O 	0.23657 0.47955 0.36497 -0.36400
Ni	Ni	0.35065 0.65067 0.12361 1.11200
O 	O 	0.24557 0.61663 0.10061 -0.69000
Ni	Ni	0.18424 0.68226 0.11872 1.11000
O 	O 	0.39700 0.57668 0.10060 -0.32200
O 	O 	0.28001 0.45768 0.10261 -0.33600
O 	O 	0.39392 0.74905 0.09748 -0.36400
Ni	Ni	0.17780 0.49361 0.09938 1.11400
O 	O 	0.41666 0.76700 0.17729 -0.35900
O 	O 	0.16530 0.48882 0.13920 -0.37200
O 	O 	0.09154 0.65618 0.09172 -0.33900
O 	O 	0.28007 0.69933 0.14457 -0.69600
O 	O 	0.46004 0.69466 0.14492 -0.31900
O 	O 	0.14638 0.77403 0.13622 -0.32800
O 	O 	0.27549 0.87297 0.13517 -0.38800
Ni	Ni	0.34772 0.81796 0.15558 1.10100
H 	H 	0.25728 0.63769 0.08246 0.18700
H 	H 	0.26150 0.66362 0.16033 0.21100
C 	C 	0.11452 0.51949 0.15077 0.39700
O 	O 	0.43855 0.85840 0.12853 -0.35300
C 	C 	0.34798 0.50170 0.09062 0.33500
C 	C 	0.06245 0.57830 0.08041 0.33600
C 	C 	0.43099 0.83146 0.10390 0.36800
C 	C 	0.19861 0.85278 0.14144 0.40600
O 	O 	0.10421 0.59030 0.14227 -0.32100
O 	O 	0.06849 0.50994 0.09255 -0.31700
O 	O 	0.04870 0.18929 0.24966 -0.31500
O 	O 	0.10659 0.05816 0.24007 -0.35500
O 	O 	0.02314 0.06950 0.20620 -0.31800
Ni	Ni	0.03332 0.00348 0.27075 1.09200
O 	O 	0.04938 0.12003 0.28821 -0.38000
C 	C 	0.06459 0.19177 0.27510 0.39300
C 	C 	0.08116 0.04300 0.21525 0.38600
C 	C 	0.08705 0.44546 0.19383 0.29100
C 	C 	0.05731 0.46523 0.16991 -0.17500
C 	C 	0.97384 0.42527 0.16309 0.28200
C 	C 	0.03529 0.38129 0.20978 0.29600
F 	F 	0.06515 0.36134 0.23259 -0.36100
F 	F 	0.16677 0.48636 0.20119 -0.35300
F 	F 	0.94377 0.44571 0.14035 -0.34500
C 	C 	0.16286 0.87885 0.18684 0.28100
C 	C 	0.17723 0.90687 0.16088 -0.21900
C 	C 	0.16764 0.98453 0.15346 0.33900
C 	C 	0.13975 0.03167 0.17159 0.26200
C 	C 	0.12145 0.00124 0.19727 -0.20800
C 	C 	0.13513 0.92578 0.20497 0.30300
F 	F 	0.11784 0.89573 0.22970 -0.39600
F 	F 	0.17429 0.80497 0.19434 -0.39100
F 	F 	0.13008 0.10651 0.16421 -0.34800
F 	F 	0.18336 0.01310 0.12853 -0.38500
C 	C 	0.09810 0.35720 0.32958 0.29300
C 	C 	0.17516 0.41738 0.32352 -0.18600
C 	C 	0.21147 0.40868 0.29979 0.28700
C 	C 	0.17265 0.33753 0.28284 0.30500
C 	C 	0.09692 0.27538 0.28945 -0.18600
C 	C 	0.05892 0.28689 0.31257 0.28600
F 	F 	0.06111 0.36713 0.35200 -0.35200
F 	F 	0.21011 0.32705 0.26059 -0.33600
F 	F 	0.28499 0.46819 0.29342 -0.35600
C 	C 	0.97761 0.78267 0.35911 0.26700
C 	C 	0.01483 0.73691 0.34359 -0.17200
C 	C 	0.98392 0.70986 0.31804 0.28000
C 	C 	0.92869 0.74373 0.30651 0.27700
F 	F 	0.00160 0.80265 0.38463 -0.37300
F 	F 	0.01423 0.65905 0.30347 -0.34700
C 	C 	0.32661 0.06267 0.48418 -0.10800
C 	C 	0.36705 0.99756 0.44647 -0.04500
C 	C 	0.30550 0.00797 0.46191 0.30900
F 	F 	0.22556 0.96146 0.45619 -0.39400
H 	H 	0.27900 0.06689 0.49686 0.13200
C 	C 	0.10634 0.45565 0.47868 -0.12900
C 	C 	0.05155 0.49789 0.48435 0.02400
C 	C 	0.04077 0.55777 0.46658 0.31300
C 	C 	0.08584 0.57642 0.44353 -0.05000
C 	C 	0.14244 0.53593 0.43818 -0.11800
C 	C 	0.15149 0.47426 0.45571 0.38500
F 	F 	0.98723 0.59837 0.47175 -0.38800
H 	H 	0.07800 0.62361 0.43011 0.11000
F 	F 	0.20345 0.43182 0.45035 -0.41200
H 	H 	0.11433 0.40876 0.49218 0.14300
H 	H 	0.09078 0.59503 0.52923 0.14300
H 	H 	0.43808 0.46378 0.53030 0.14400
C 	C 	0.52639 0.60407 0.45682 -0.04100
C 	C 	0.47527 0.65220 0.45273 -0.12800
C 	C 	0.44108 0.67947 0.47441 0.38200
C 	C 	0.45884 0.65976 0.49989 -0.13000
H 	H 	0.55293 0.58256 0.44027 0.12400
F 	F 	0.38896 0.72305 0.47074 -0.43500
H 	H 	0.43231 0.68109 0.51649 0.14100
C 	C 	0.41876 0.24091 0.71005 0.28600
C 	C 	0.40770 0.23138 0.68268 -0.17900
C 	C 	0.33009 0.18180 0.67196 0.29500
C 	C 	0.26777 0.13265 0.68834 0.27900
C 	C 	0.28226 0.13357 0.71558 -0.17000
F 	F 	0.49225 0.29185 0.72069 -0.35300
F 	F 	0.19453 0.08122 0.67765 -0.35300
F 	F 	0.31684 0.17697 0.64553 -0.34300
C 	C 	0.04427 0.63077 0.03608 -0.05400
C 	C 	0.01720 0.56664 0.05520 -0.11800
H 	H 	0.09728 0.68903 0.04006 0.11100
C 	C 	0.57573 0.91523 0.04840 -0.17200
C 	C 	0.55151 0.98270 0.03932 0.10800
C 	C 	0.49432 0.00679 0.05347 0.24100
C 	C 	0.45882 0.96079 0.07578 -0.00000
C 	C 	0.47958 0.89006 0.08392 -0.14500
C 	C 	0.53999 0.86905 0.07060 0.41600
F 	F 	0.47067 0.07230 0.04497 -0.37200
H 	H 	0.41259 0.97767 0.08602 0.11000
F 	F 	0.56229 0.80224 0.07875 -0.39500
C 	C 	0.31580 0.44659 0.01819 -0.13000
C 	C 	0.43906 0.47719 0.05697 -0.03600
C 	C 	0.36137 0.47593 0.06386 -0.13800
C 	C 	0.29945 0.45981 0.04436 0.37900
F 	F 	0.22454 0.46049 0.05060 -0.49400
H 	H 	0.26809 0.43532 0.00323 0.14800
Ni	Ni	0.60826 0.37159 0.63339 1.10900
O 	O 	0.69761 0.39509 0.60563 -0.69500
Ni	Ni	0.76200 0.32307 0.61934 1.10400
O 	O 	0.56096 0.46035 0.61883 -0.29500
O 	O 	0.68271 0.56840 0.61262 -0.36800
O 	O 	0.52559 0.28542 0.60765 -0.32200
Ni	Ni	0.77248 0.51688 0.60525 1.08600
O 	O 	0.48810 0.19455 0.65025 -0.35000
O 	O 	0.79356 0.51716 0.64472 -0.38600
O 	O 	0.84593 0.34981 0.59031 -0.33700
O 	O 	0.67235 0.29930 0.64680 -0.69800
O 	O 	0.52048 0.33815 0.66134 -0.31900
O 	O 	0.80848 0.23475 0.63492 -0.30800
O 	O 	0.68527 0.12479 0.63629 -0.34700
Ni	Ni	0.59635 0.17723 0.64403 1.10100
H 	H 	0.67526 0.37528 0.58771 0.16600
H 	H 	0.69395 0.31650 0.66495 0.20500
C 	C 	0.84469 0.48288 0.65436 0.40000
O 	O 	0.58232 0.18103 0.60445 -0.37200
C 	C 	0.60640 0.52666 0.60525 0.32700
C 	C 	0.87775 0.42955 0.58154 0.33100
C 	C 	0.54175 0.22593 0.59380 0.34000
C 	C 	0.76094 0.16119 0.64493 0.37400
C 	C 	0.47952 0.25533 0.66581 0.39000
O 	O 	0.84962 0.41157 0.64368 -0.32900
O 	O 	0.87727 0.49594 0.59628 -0.33100
C 	C 	0.47395 0.74299 0.16681 0.40100
Ni	Ni	0.84469 0.00387 0.27880 1.10200
Ni	Ni	0.77350 0.12606 0.24539 1.09200
O 	O 	0.77027 0.02809 0.21978 -0.39600
O 	O 	0.75816 0.01868 0.30272 -0.32700
C 	C 	0.74660 0.94646 0.22757 0.38500
C 	C 	0.69169 0.02708 0.29273 0.35500
O 	O 	0.75463 0.92870 0.25264 -0.30600
O 	O 	0.68560 0.03855 0.26726 -0.36300
C 	C 	0.62045 0.83815 0.16756 0.28700
C 	C 	0.55559 0.77309 0.17940 -0.18400
C 	C 	0.56434 0.75169 0.20554 0.29500
C 	C 	0.63214 0.80256 0.22079 0.29200
C 	C 	0.69123 0.87664 0.21002 -0.17500
C 	C 	0.68833 0.88964 0.18279 0.28300
F 	F 	0.74960 0.95411 0.17131 -0.35300
F 	F 	0.61490 0.85574 0.14176 -0.35000
F 	F 	0.63814 0.78227 0.24632 -0.33300
F 	F 	0.50438 0.68492 0.21668 -0.34100
C 	C 	0.54752 0.99359 0.34925 0.36000
C 	C 	0.47958 0.92277 0.33978 -0.21700
C 	C 	0.47886 0.89132 0.31397 0.30400
C 	C 	0.54691 0.92773 0.29816 0.26200
C 	C 	0.61629 0.99618 0.30805 -0.10500
C 	C 	0.61565 0.02979 0.33349 0.20200
F 	F 	0.68142 0.09710 0.34304 -0.34600
F 	F 	0.54757 0.02711 0.37377 -0.39100
F 	F 	0.54691 0.89387 0.27369 -0.33800
F 	F 	0.41372 0.82299 0.30458 -0.37000
C 	C 	0.40929 0.10626 0.49124 0.00300
C 	C 	0.47045 0.10184 0.47437 0.33500
C 	C 	0.44923 0.04769 0.45204 -0.09900
C 	C 	0.43165 0.14019 0.51825 0.02900
F 	F 	0.55066 0.14464 0.48075 -0.38500
H 	H 	0.49691 0.04113 0.43983 0.14800
C 	C 	0.47750 0.22871 0.52299 0.31100
C 	C 	0.51211 0.25717 0.54794 -0.03800
C 	C 	0.50029 0.19759 0.56829 -0.12500
C 	C 	0.45020 0.11025 0.56394 0.39500
C 	C 	0.41615 0.08175 0.53902 -0.14300
F 	F 	0.49075 0.28637 0.50322 -0.38200
H 	H 	0.55017 0.32486 0.55123 0.10100
F 	F 	0.43538 0.05284 0.58383 -0.40700
H 	H 	0.38019 0.01351 0.53557 0.13700
H 	H 	0.84151 0.33054 0.53695 0.11300
C 	C 	0.48686 0.51184 0.54161 -0.13000
C 	C 	0.52980 0.59304 0.53091 0.02000
C 	C 	0.59151 0.65571 0.54589 0.30500
C 	C 	0.61272 0.63582 0.57096 -0.05800
C 	C 	0.57281 0.55284 0.58125 -0.13200
C 	C 	0.50753 0.49188 0.56675 0.37000
C 	C 	0.51030 0.61229 0.50397 0.02600
F 	F 	0.63214 0.73526 0.53591 -0.38800
H 	H 	0.66161 0.68422 0.58212 0.11800
F 	F 	0.46538 0.41276 0.57671 -0.41200
C 	C 	0.54391 0.58421 0.48236 0.30800
F 	F 	0.59380 0.53810 0.48613 -0.38500
C 	C 	0.86118 0.01357 0.69475 -0.19900
C 	C 	0.77897 0.00621 0.69682 0.26800
C 	C 	0.74712 0.05569 0.68092 0.28200
C 	C 	0.79621 0.11107 0.66209 -0.18700
C 	C 	0.87796 0.11698 0.65957 0.28900
F 	F 	0.66865 0.05075 0.68406 -0.40100
F 	F 	0.72960 0.95056 0.71412 -0.34100
C 	C 	0.58039 0.02261 0.01384 -0.06100
H 	H 	0.62053 0.89698 0.03779 0.15400
C 	C 	0.63491 0.10903 0.01284 0.34600
F 	F 	0.66531 0.15513 0.03538 -0.38700
C 	C 	0.39376 0.44886 0.01129 0.02500
C 	C 	0.45515 0.46321 0.03084 0.30100
F 	F 	0.53030 0.46348 0.02449 -0.39300
H 	H 	0.48721 0.48987 0.07185 0.12800
O 	O 	0.04363 0.82438 0.70504 -0.32400
C 	C 	0.03616 0.53758 0.53085 -0.12300
O 	O 	0.83599 0.22988 0.22109 -0.33500
C 	C 	0.00419 0.61916 0.01162 0.31400
F 	F 	0.81960 0.50975 0.70818 -0.36200
O 	O 	0.84095 0.89331 0.29811 -0.29600
F 	F 	0.90689 0.72647 0.28073 -0.36600
F 	F 	0.92567 0.16802 0.64101 -0.34900
C 	C 	0.89618 0.38799 0.53544 -0.05300
C 	C 	0.91051 0.06930 0.67601 0.27900
C 	C 	0.92202 0.81581 0.34750 0.29200
C 	C 	0.89706 0.96711 0.71303 0.38900
F 	F 	0.00823 0.56094 0.63792 -0.33800
O 	O 	0.97897 0.95064 0.30549 -0.35800
F 	F 	0.98489 0.22822 0.31890 -0.39300
C 	C 	0.90784 0.80717 0.32020 -0.17800
F 	F 	0.89338 0.86867 0.36179 -0.34800
C 	C 	0.94857 0.49111 0.04973 0.38200
F 	F 	0.91978 0.42983 0.06829 -0.38100
C 	C 	0.89348 0.55478 0.69792 0.28800
C 	C 	0.91100 0.53644 0.67222 -0.18400
C 	C 	0.95410 0.33449 0.20155 -0.18700
O 	O 	0.95364 0.93787 0.70473 -0.30200
Ni	Ni	0.94745 0.09677 0.23184 1.10700
O 	O 	0.87450 0.11839 0.26043 -0.70200
O 	O 	0.93654 0.18531 0.20579 -0.32800
O 	O 	0.92919 0.99203 0.25355 -0.68300
H 	H 	0.90259 0.16826 0.27246 0.21300
H 	H 	0.90804 0.93813 0.24258 0.20200
C 	C 	0.91105 0.24815 0.21253 0.39700
C 	C 	0.90958 0.88422 0.30592 0.38200
C 	C 	0.92244 0.35993 0.17882 0.29800
F 	F 	0.84354 0.31692 0.17093 -0.35100
C 	C 	0.00687 0.48062 0.50920 0.02700
C 	C 	0.93699 0.40546 0.51161 0.30400
C 	C 	0.92472 0.44548 0.55709 -0.12000
C 	C 	0.99560 0.52014 0.55474 0.37300
F 	F 	0.90842 0.34962 0.49081 -0.38300
F 	F 	0.02604 0.57484 0.57568 -0.37400
F 	F 	0.99058 0.07879 0.67412 -0.35800
C 	C 	0.98911 0.58080 0.66231 0.27900
C 	C 	0.04549 0.64991 0.67680 0.30100
C 	C 	0.02460 0.67398 0.70144 -0.18300
C 	C 	0.95087 0.62223 0.71267 0.28700
F 	F 	0.11799 0.69730 0.66610 -0.34600
C 	C 	0.93659 0.54330 0.00604 0.01800
C 	C 	0.90860 0.47957 0.02518 -0.12700
H 	H 	0.85590 0.42117 0.02101 0.14000
O 	O 	0.20389 0.98269 0.72317 -0.35800
C 	C 	0.35615 0.19252 0.72650 0.28800
C 	C 	0.22696 0.06439 0.73184 0.35100
Ni	Ni	0.02830 0.91110 0.73154 1.12000
O 	O 	0.86755 0.94851 0.73690 -0.33900
F 	F 	0.93337 0.63985 0.73746 -0.38000
H 	H 	0.06167 0.06827 0.74485 0.20400
Ni	Ni	0.20306 0.88555 0.74790 1.09700
O 	O 	0.92641 0.81514 0.74572 -0.32400
F 	F 	0.36925 0.19894 0.75293 -0.33800
O 	O 	0.04199 0.01373 0.75484 -0.71400
O 	O 	0.21669 0.08296 0.75676 -0.31900
F 	F 	0.75520 0.68341 0.75389 -0.34200
O 	O 	0.10060 0.89071 0.76133 -0.69200
H 	H 	0.07255 0.84033 0.77239 0.22100
O 	O 	0.28834 0.97487 0.77157 -0.34700
Ni	Ni	0.93626 0.99702 0.77032 1.10100
C 	C 	0.90789 0.80849 0.77070 0.39700
F 	F 	0.43859 0.08556 0.77806 -0.34700
C 	C 	0.79539 0.66438 0.77461 0.30800
Ni	Ni	0.12744 0.00499 0.78114 1.10600
F 	F 	0.67995 0.53568 0.78197 -0.35600
F 	F 	0.04898 0.27201 0.78609 -0.37800
C 	C 	0.87347 0.72216 0.78252 -0.17400
O 	O 	0.91993 0.87809 0.78541 -0.36700
C 	C 	0.75709 0.58883 0.78887 0.28900
C 	C 	0.28159 0.98443 0.79706 0.41600
O 	O 	0.12549 0.11314 0.80172 -0.31500
C 	C 	0.43217 0.06479 0.80385 0.30200
C 	C 	0.91494 0.70102 0.80371 0.29000
O 	O 	0.21537 0.99382 0.80622 -0.31900
O 	O 	0.98773 0.04822 0.80671 -0.38100
C 	C 	0.05502 0.11717 0.80913 0.38500
F 	F 	0.95033 0.34610 0.81036 -0.35400
F 	F 	0.57203 0.15429 0.81091 -0.37700
C 	C 	0.79717 0.57017 0.81086 -0.17500
F 	F 	0.99047 0.75608 0.81151 -0.38700
C 	C 	0.03081 0.25570 0.81175 0.27600
C 	C 	0.35649 0.01167 0.81390 -0.22700
C 	C 	0.87735 0.62488 0.81759 0.29700
C 	C 	0.50070 0.09953 0.82060 0.26800
C 	C 	0.98008 0.29322 0.82412 0.28200
C 	C 	0.05259 0.19190 0.82465 -0.18400
O 	O 	0.76304 0.42791 0.82848 -0.32300
C 	C 	0.75170 0.50269 0.82918 0.40000
F 	F 	0.91715 0.60655 0.83854 -0.35100
C 	C 	0.35183 0.98948 0.84052 0.33300
C 	C 	0.49462 0.08147 0.84750 -0.18000
F 	F 	0.28052 0.93478 0.85023 -0.35300
O 	O 	0.72521 0.52802 0.85076 -0.36300
C 	C 	0.95288 0.26823 0.84960 -0.17800
H 	H 	0.59336 0.30192 0.85406 0.20200
C 	C 	0.04022 0.18211 0.85178 0.29100
C 	C 	0.42058 0.02409 0.85724 0.25800
Ni	Ni	0.74872 0.35476 0.86140 1.11000
O 	O 	0.86278 0.34733 0.85712 -0.31000
O 	O 	0.81075 0.19880 0.85874 -0.36700
O 	O 	0.63725 0.13399 0.86072 -0.36600
C 	C 	0.87414 0.27232 0.85794 0.37500
C 	C 	0.56249 0.12909 0.86575 0.38300
C 	C 	0.98934 0.21925 0.86419 0.27300
F 	F 	0.06783 0.12687 0.86520 -0.35700
O 	O 	0.63051 0.33792 0.86806 -0.69500
Ni	Ni	0.62421 0.45524 0.87076 1.09700
F 	F 	0.41516 0.00244 0.88297 -0.34500
O 	O 	0.54659 0.16049 0.88792 -0.33300
O 	O 	0.80137 0.46562 0.88449 -0.32900
O 	O 	0.51446 0.41379 0.89076 -0.33600
Ni	Ni	0.72739 0.16616 0.88914 1.09000
F 	F 	0.96901 0.20055 0.88960 -0.38800
O 	O 	0.73100 0.28510 0.89496 -0.70800
Ni	Ni	0.61867 0.27867 0.90402 1.10500
O 	O 	0.69085 0.47874 0.90515 -0.35100
H 	H 	0.77096 0.31396 0.90922 0.17300
C 	C 	0.76699 0.48130 0.90595 0.31200
O 	O 	0.51270 0.29597 0.91387 -0.34100
C 	C 	0.50498 0.37224 0.91307 0.34200
O 	O 	0.64753 0.10823 0.91833 -0.34000
H 	H 	0.90019 0.44212 0.91970 0.10800
C 	C 	0.81506 0.50440 0.93084 -0.12400
C 	C 	0.46220 0.39741 0.93454 -0.12200
F 	F 	0.55256 0.54598 0.93269 -0.40200
C 	C 	0.88090 0.47580 0.93519 -0.06300
F 	F 	0.54039 0.96873 0.94367 -0.36600
O 	O 	0.61598 0.21771 0.93860 -0.34900
C 	C 	0.63712 0.14843 0.94005 0.32300
C 	C 	0.49349 0.48233 0.94525 0.37800
H 	H 	0.37317 0.26782 0.93897 0.13300
C 	C 	0.79211 0.54974 0.95107 0.37800
F 	F 	0.73227 0.58294 0.94684 -0.38900
C 	C 	0.39941 0.33296 0.94742 -0.04600
C 	C 	0.92049 0.48829 0.95977 0.30600
C 	C 	0.62493 0.10205 0.96509 -0.09700
C 	C 	0.57293 0.01438 0.96612 0.32300
F 	F 	0.98302 0.45895 0.96388 -0.39600
C 	C 	0.37410 0.35078 0.97200 0.30700
C 	C 	0.46770 0.50034 0.96979 -0.12000
H 	H 	0.49457 0.56511 0.97845 0.14400
C 	C 	0.83184 0.56201 0.97564 -0.13000
C 	C 	0.89529 0.53040 0.98015 0.02100
F 	F 	0.31730 0.28628 0.98502 -0.38700
C 	C 	0.41048 0.43371 0.98372 0.01800
C 	C 	0.55097 0.97496 0.99040 -0.05100
H 	H 	0.50927 0.90805 0.99103 0.11800
C 	C 	0.65695 0.14855 0.98856 -0.07600
H 	H 	0.69737 0.21601 0.98799 0.11100
F 	F 	0.03144 0.68127 0.99321 -0.38300
H 	H 	0.81340 0.59624 0.99118 0.14700
