data_crystal

_cell_length_a 13.99611
_cell_length_b 13.56361
_cell_length_c 42.98591
_cell_angle_alpha 90.29008
_cell_angle_beta  90.29533
_cell_angle_gamma 119.34654

_symmetry_space_group_name_	'P 1'
_symmetry_space_group_name_H-M	'P 1'

loop_
_symmetry_equiv_pos_as_xyz
  x,y,z

loop_
_atom_site_label
_atom_site_type_symbol
_atom_site_fract_x
_atom_site_fract_y
_atom_site_fract_z
_atom_site_charge
C 	C 	0.46667 0.15949 0.95086 0.30700
C 	C 	0.74240 0.58389 0.88332 0.34200
C 	C 	0.48565 0.20161 0.86472 0.34300
C 	C 	0.69295 0.50510 0.97011 0.29900
C 	C 	0.85526 0.30942 0.87660 0.32900
C 	C 	0.85172 0.28485 0.95146 0.29300
Ni	Ni	0.56025 0.37651 0.91439 1.11200
Ni	Ni	0.82078 0.45878 0.92147 1.12000
Ni	Ni	0.64940 0.19274 0.90964 1.12200
O 	O 	0.44300 0.21844 0.93090 -0.37500
O 	O 	0.53690 0.12375 0.94386 -0.37100
O 	O 	0.90098 0.40494 0.89271 -0.38300
O 	O 	0.64752 0.54214 0.89753 -0.37700
O 	O 	0.79704 0.52876 0.88312 -0.38300
O 	O 	0.76796 0.19493 0.93813 -0.38100
O 	O 	0.53151 0.31109 0.86972 -0.37700
O 	O 	0.51827 0.13915 0.88000 -0.37600
O 	O 	0.84999 0.38020 0.95625 -0.39000
O 	O 	0.59231 0.45007 0.95840 -0.37000
O 	O 	0.77989 0.55064 0.95158 -0.37500
O 	O 	0.74843 0.25012 0.87310 -0.38400
O 	O 	0.67244 0.33916 0.92129 -0.70500
H 	H 	0.66426 0.32541 0.94382 0.14700
C 	C 	0.66285 0.12951 0.61333 0.30300
C 	C 	0.83356 0.53670 0.69523 0.33900
C 	C 	0.67894 0.14787 0.70053 0.33600
C 	C 	0.83031 0.50878 0.60919 0.30900
C 	C 	0.45406 0.30193 0.69572 0.33800
C 	C 	0.46908 0.30238 0.60946 0.28700
Ni	Ni	0.79477 0.33228 0.65663 1.11400
Ni	Ni	0.64155 0.45048 0.65411 1.12000
Ni	Ni	0.52817 0.17911 0.65697 1.12200
O 	O 	0.74331 0.17516 0.63438 -0.37000
O 	O 	0.56303 0.11245 0.61942 -0.37800
O 	O 	0.50257 0.39661 0.67963 -0.38300
O 	O 	0.88052 0.48943 0.67921 -0.37300
O 	O 	0.72672 0.49322 0.69456 -0.38200
O 	O 	0.43217 0.22289 0.63120 -0.38200
O 	O 	0.74129 0.25724 0.69908 -0.37700
O 	O 	0.58984 0.09680 0.68313 -0.37500
O 	O 	0.54756 0.40757 0.61557 -0.38100
O 	O 	0.84590 0.42234 0.61576 -0.37500
O 	O 	0.78339 0.54675 0.62942 -0.37600
O 	O 	0.49449 0.23298 0.69636 -0.38800
O 	O 	0.65703 0.31948 0.64864 -0.70900
H 	H 	0.65583 0.31562 0.62575 0.15000
C 	C 	0.92482 0.79563 0.82970 0.33500
C 	C 	0.87935 0.10458 0.74254 0.34300
C 	C 	0.89695 0.79202 0.73990 0.33900
C 	C 	0.89535 0.10921 0.83235 0.33500
C 	C 	0.20118 0.11765 0.73692 0.33900
C 	C 	0.23544 0.14533 0.82210 0.31800
Ni	Ni	0.84810 0.92211 0.78696 1.11400
Ni	Ni	0.07077 0.16468 0.78350 1.11700
Ni	Ni	0.08627 0.93772 0.78190 1.11200
O 	O 	0.84722 0.78532 0.80979 -0.36900
O 	O 	0.03012 0.84794 0.82169 -0.40000
O 	O 	0.20005 0.19243 0.75649 -0.38500
O 	O 	0.81621 0.03881 0.76465 -0.36700
O 	O 	0.98563 0.14392 0.74355 -0.38300
O 	O 	0.22522 0.06145 0.80322 -0.37600
O 	O 	0.85673 0.86020 0.74371 -0.38800
O 	O 	0.97046 0.79427 0.75966 -0.36900
O 	O 	0.16838 0.18857 0.82032 -0.39600
O 	O 	0.83856 0.99832 0.82764 -0.39000
O 	O 	0.95541 0.17941 0.80974 -0.36600
O 	O 	0.13225 0.00923 0.74004 -0.39700
O 	O 	0.00100 0.00725 0.79160 -0.71900
H 	H 	0.00812 0.00980 0.81444 0.15600
C 	C 	0.27873 0.46233 0.35947 0.31800
C 	C 	0.54440 0.85109 0.44398 0.30300
C 	C 	0.33787 0.49616 0.44696 0.32900
C 	C 	0.54584 0.86795 0.35859 0.31600
C 	C 	0.21228 0.72169 0.45717 0.30000
C 	C 	0.14323 0.72437 0.37540 0.33200
Ni	Ni	0.46393 0.66167 0.39747 1.11300
Ni	Ni	0.36184 0.83288 0.40380 1.12200
Ni	Ni	0.20474 0.56468 0.40877 1.12100
O 	O 	0.37707 0.50561 0.37342 -0.37000
O 	O 	0.20498 0.49273 0.36755 -0.38200
O 	O 	0.24333 0.79985 0.43554 -0.38600
O 	O 	0.57425 0.80926 0.42078 -0.38000
O 	O 	0.46912 0.88120 0.44002 -0.38200
O 	O 	0.11072 0.62867 0.39111 -0.39100
O 	O 	0.43325 0.58175 0.44008 -0.38600
O 	O 	0.25592 0.46069 0.42724 -0.38800
O 	O 	0.24814 0.79777 0.37091 -0.38800
O 	O 	0.51235 0.75823 0.35774 -0.37600
O 	O 	0.48641 0.90935 0.37182 -0.37000
O 	O 	0.21026 0.62520 0.45178 -0.39400
O 	O 	0.34340 0.68579 0.39719 -0.72200
H 	H 	0.33138 0.68268 0.37452 0.16200
C 	C 	0.24069 0.71279 0.21083 0.31600
C 	C 	0.23761 0.54529 0.08573 0.32600
C 	C 	0.16897 0.42184 0.18032 0.34400
C 	C 	0.29147 0.84176 0.10737 0.29600
C 	C 	0.51765 0.58980 0.13272 0.30400
C 	C 	0.59403 0.82623 0.16951 0.31900
Ni	Ni	0.18853 0.62146 0.14549 1.11500
Ni	Ni	0.43130 0.73614 0.11539 1.12100
Ni	Ni	0.38972 0.62413 0.18369 1.12000
O 	O 	0.20033 0.72019 0.18341 -0.37300
O 	O 	0.29194 0.65158 0.21479 -0.36700
O 	O 	0.45407 0.60306 0.11307 -0.39800
O 	O 	0.17944 0.51008 0.11109 -0.37900
O 	O 	0.31182 0.65243 0.08281 -0.38000
O 	O 	0.51425 0.78058 0.19006 -0.38600
O 	O 	0.12957 0.49105 0.17748 -0.38800
O 	O 	0.27454 0.45902 0.17723 -0.38400
O 	O 	0.57389 0.83745 0.13964 -0.38500
O 	O 	0.20398 0.74154 0.11241 -0.37000
O 	O 	0.39203 0.86090 0.11361 -0.37800
O 	O 	0.49909 0.58517 0.16299 -0.37900
O 	O 	0.34068 0.68227 0.15084 -0.71700
H 	H 	0.36120 0.75700 0.15986 0.16400
C 	C 	0.07250 0.80931 0.24769 0.31300
C 	C 	0.09876 0.21935 0.30954 0.33200
C 	C 	0.07683 0.89507 0.33001 0.35700
C 	C 	0.10846 0.17415 0.22268 0.31300
C 	C 	0.79014 0.91979 0.32033 0.34800
C 	C 	0.77732 0.86293 0.23055 0.32000
Ni	Ni	0.14158 0.04927 0.27561 1.10900
Ni	Ni	0.91741 0.06539 0.26805 1.11700
Ni	Ni	0.90207 0.82870 0.28252 1.12500
O 	O 	0.15214 0.90516 0.26058 -0.35600
O 	O 	0.96846 0.78465 0.24752 -0.38300
O 	O 	0.78492 0.97245 0.29517 -0.37700
O 	O 	0.16908 0.20688 0.29195 -0.37200
O 	O 	0.99359 0.14719 0.30768 -0.38900
O 	O 	0.77106 0.80524 0.25619 -0.38600
O 	O 	0.12663 0.00118 0.32173 -0.39700
O 	O 	0.01357 0.81547 0.31014 -0.39400
O 	O 	0.82805 0.97551 0.23090 -0.37400
O 	O 	0.15947 0.11801 0.23158 -0.38000
O 	O 	0.04003 0.18760 0.24165 -0.38000
O 	O 	0.85223 0.87255 0.32101 -0.39900
O 	O 	0.98999 0.97808 0.26808 -0.70800
H 	H 	0.98899 0.96401 0.24554 0.16300
C 	C 	0.14369 0.23735 0.19703 -0.10900
C 	C 	0.10147 0.31453 0.18843 -0.12300
H 	H 	0.20788 0.23614 0.18316 0.08500
H 	H 	0.01462 0.28607 0.19123 0.08200
C 	C 	0.69716 0.86234 0.17909 -0.11100
C 	C 	0.71721 0.80560 0.20574 -0.11500
H 	H 	0.76501 0.91549 0.16404 0.08200
H 	H 	0.67315 0.71365 0.20632 0.07800
C 	C 	0.20729 0.74561 0.23597 -0.10500
C 	C 	0.09589 0.73275 0.23552 -0.10800
H 	H 	0.24790 0.75423 0.25824 0.08700
H 	H 	0.03007 0.65720 0.22459 0.07800
C 	C 	0.64080 0.93889 0.34505 -0.09000
C 	C 	0.73043 0.91092 0.34542 -0.12800
H 	H 	0.66005 0.02522 0.34022 0.07100
H 	H 	0.74023 0.87025 0.36602 0.08300
C 	C 	0.13275 0.30723 0.32917 -0.12000
C 	C 	0.24973 0.37833 0.33855 -0.10600
H 	H 	0.07089 0.31978 0.34097 0.08600
H 	H 	0.31008 0.35516 0.33091 0.08200
C 	C 	0.09965 0.86795 0.35773 -0.12500
C 	C 	0.06770 0.74992 0.36536 -0.12200
H 	H 	0.15348 0.93502 0.37371 0.08400
H 	H 	0.98130 0.68700 0.36622 0.09000
C 	C 	0.67945 0.98266 0.53211 0.01200
C 	C 	0.61094 0.86571 0.52841 -0.05100
C 	C 	0.57707 0.81875 0.49864 0.00900
C 	C 	0.67772 0.07915 0.58562 -0.09400
C 	C 	0.69063 0.00300 0.47598 0.01200
C 	C 	0.72440 0.04997 0.50578 -0.05200
C 	C 	0.68250 0.03558 0.56156 0.04300
C 	C 	0.61145 0.88860 0.47243 -0.07700
H 	H 	0.57720 0.81254 0.54863 0.04900
H 	H 	0.51701 0.72994 0.49615 0.03900
H 	H 	0.71915 0.05741 0.45585 0.03600
H 	H 	0.77901 0.14017 0.50837 0.05000
C 	C 	0.02736 0.68983 0.53804 -0.03000
C 	C 	0.98685 0.69781 0.50881 -0.00800
C 	C 	0.05189 0.71935 0.48235 -0.01700
C 	C 	0.89351 0.58074 0.58423 -0.10300
C 	C 	0.20090 0.73336 0.51452 0.00100
C 	C 	0.13647 0.71349 0.54099 -0.03600
C 	C 	0.95246 0.63425 0.56316 0.06900
C 	C 	0.15723 0.73167 0.48499 -0.07000
H 	H 	0.90298 0.68065 0.50630 0.04000
H 	H 	0.01780 0.71901 0.45963 0.04100
H 	H 	0.28264 0.74413 0.51683 0.03700
H 	H 	0.16892 0.70877 0.56354 0.04200
C 	C 	0.33406 0.31966 0.52348 0.01200
C 	C 	0.28706 0.33103 0.55101 -0.05400
C 	C 	0.32240 0.31217 0.57971 0.01500
C 	C 	0.32975 0.42847 0.47328 -0.10600
C 	C 	0.44197 0.25746 0.55327 0.01000
C 	C 	0.40637 0.27601 0.52458 -0.05100
C 	C 	0.32836 0.37584 0.49589 0.04600
C 	C 	0.40497 0.28212 0.58090 -0.07700
H 	H 	0.22943 0.36266 0.55034 0.04700
H 	H 	0.29185 0.32937 0.60100 0.03600
H 	H 	0.50435 0.23215 0.55400 0.03300
H 	H 	0.44144 0.26477 0.50333 0.04900
C 	C 	0.71669 0.08665 0.71493 -0.10200
C 	C 	0.83655 0.13391 0.71895 -0.11800
H 	H 	0.66237 0.99685 0.71858 0.07300
H 	H 	0.89126 0.19297 0.70176 0.07300
C 	C 	0.35796 0.27195 0.70952 -0.11500
C 	C 	0.27900 0.15061 0.71518 -0.11600
H 	H 	0.33061 0.33400 0.71209 0.08500
H 	H 	0.28342 0.08663 0.70085 0.07400
C 	C 	0.89576 0.63324 0.71096 -0.11300
C 	C 	0.85272 0.71139 0.71791 -0.11400
H 	H 	0.98256 0.66218 0.71443 0.08800
H 	H 	0.78509 0.70549 0.70390 0.07700
C 	C 	0.10421 0.33893 0.01091 0.02200
C 	C 	0.00144 0.24411 0.01615 -0.08300
C 	C 	0.91844 0.21127 0.99375 0.03400
C 	C 	0.20074 0.47380 0.05880 -0.09900
C 	C 	0.04833 0.34867 0.95825 -0.00200
C 	C 	0.13095 0.38220 0.98078 -0.05400
C 	C 	0.16145 0.41166 0.03675 0.04200
C 	C 	0.93952 0.27245 0.96610 -0.07300
H 	H 	0.98180 0.20553 0.03892 0.06400
H 	H 	0.83546 0.14777 0.99940 0.03400
H 	H 	0.06655 0.39175 0.93611 0.03100
H 	H 	0.21215 0.45137 0.97593 0.04800
C 	C 	0.31395 0.05076 0.03363 0.01100
C 	C 	0.37751 0.10051 0.06038 -0.05100
C 	C 	0.36019 0.03594 0.08710 0.00600
C 	C 	0.40690 0.12311 0.97920 -0.09900
C 	C 	0.20231 0.87974 0.06241 0.01000
C 	C 	0.22026 0.94428 0.03566 -0.05200
C 	C 	0.36149 0.09169 0.00374 0.04400
C 	C 	0.27907 0.92157 0.08698 -0.07300
H 	H 	0.44729 0.18491 0.05942 0.04600
H 	H 	0.41611 0.07152 0.10670 0.03900
H 	H 	0.13541 0.79341 0.06268 0.04100
H 	H 	0.16766 0.90700 0.01547 0.04700
C 	C 	0.69713 0.54928 0.06447 0.01700
C 	C 	0.73959 0.65600 0.07866 -0.05500
C 	C 	0.69653 0.66736 0.10702 0.00900
C 	C 	0.70616 0.52808 0.00318 -0.09000
C 	C 	0.57968 0.46495 0.10915 0.01700
C 	C 	0.62442 0.45306 0.08117 -0.05500
C 	C 	0.70701 0.54031 0.03114 0.03900
C 	C 	0.60622 0.57317 0.12011 -0.08600
H 	H 	0.79930 0.73090 0.06666 0.05000
H 	H 	0.72266 0.75125 0.11630 0.03100
H 	H 	0.51421 0.39067 0.11993 0.03600
H 	H 	0.59540 0.36963 0.07123 0.04700
C 	C 	0.91869 0.27314 0.86332 -0.09600
C 	C 	0.87494 0.15066 0.85818 -0.12000
H 	H 	0.00651 0.32975 0.86172 0.06600
H 	H 	0.81936 0.09211 0.87531 0.07700
C 	C 	0.39822 0.14981 0.84582 -0.11900
C 	C 	0.32402 0.19751 0.84065 -0.10500
H 	H 	0.37050 0.06262 0.83889 0.09200
H 	H 	0.33791 0.27256 0.85362 0.07400
C 	C 	0.78074 0.68048 0.86744 -0.11700
C 	C 	0.89627 0.73999 0.85668 -0.11300
H 	H 	0.73000 0.72003 0.86442 0.08200
H 	H 	0.95945 0.73928 0.87137 0.08300
