data_crystal

_cell_length_a 28.83083
_cell_length_b 27.73398
_cell_length_c 30.51051
_cell_angle_alpha 89.93023
_cell_angle_beta  89.92718
_cell_angle_gamma 90.91368

_symmetry_space_group_name_	'P 1'
_symmetry_space_group_name_H-M	'P 1'

loop_
_symmetry_equiv_pos_as_xyz
  x,y,z

loop_
_atom_site_label
_atom_site_type_symbol
_atom_site_fract_x
_atom_site_fract_y
_atom_site_fract_z
_atom_site_charge
Zn	Zn	0.51285 0.50647 0.99407 1.21400
C 	C 	0.56359 0.59671 0.99157 0.30000
O 	O 	0.55566 0.46295 0.02338 -0.45100
O 	O 	0.54637 0.60326 0.03106 -0.43100
O 	O 	0.59947 0.51822 0.05948 -0.47500
C 	C 	0.44858 0.55450 0.04830 0.31600
O 	O 	0.46452 0.55116 0.00827 -0.43900
O 	O 	0.47519 0.54387 0.08178 -0.49500
C 	C 	0.59625 0.47812 0.03707 0.30200
O 	O 	0.45501 0.44677 0.00067 -0.30400
Zn	Zn	0.54297 0.55020 0.07818 1.17000
O 	O 	0.55717 0.55526 0.97104 -0.42500
C 	C 	0.46245 0.43801 0.95959 0.26200
O 	O 	0.49363 0.46543 0.94094 -0.36800
Zn	Zn	0.36408 0.15629 0.97948 1.21500
C 	C 	0.38189 0.16295 0.07200 0.31000
O 	O 	0.30966 0.12238 0.00495 -0.43400
O 	O 	0.34154 0.18300 0.07852 -0.44200
O 	O 	0.26830 0.19141 0.00915 -0.49700
C 	C 	0.38727 0.25767 0.97380 0.28200
O 	O 	0.37795 0.21839 0.95131 -0.45500
O 	O 	0.37455 0.26087 0.01495 -0.46300
C 	C 	0.27015 0.14426 0.01169 0.31900
O 	O 	0.34453 0.12767 0.90855 -0.31900
Zn	Zn	0.31627 0.23250 0.03432 1.17500
O 	O 	0.40124 0.16465 0.03304 -0.42500
C 	C 	0.37924 0.09897 0.91377 0.27300
O 	O 	0.40090 0.10322 0.95066 -0.38700
C 	C 	0.50180 0.00313 0.25895 0.14600
C 	C 	0.47535 0.03695 0.23609 -0.10800
H 	H 	0.45434 0.06229 0.25404 0.07500
C 	C 	0.47708 0.03875 0.19016 0.07200
C 	C 	0.50461 0.00607 0.16713 -0.09200
C 	C 	0.53148 0.97267 0.18994 0.07200
C 	C 	0.52949 0.97075 0.23580 -0.10800
H 	H 	0.55050 0.94522 0.25354 0.07500
N 	N 	0.50243 0.00321 0.30609 -0.18200
C 	C 	0.47659 0.96941 0.32862 0.19900
C 	C 	0.48024 0.96586 0.37455 -0.08100
C 	C 	0.50870 0.99889 0.39731 0.06200
C 	C 	0.53519 0.03308 0.37370 -0.07900
C 	C 	0.53111 0.03511 0.32772 0.19800
C 	C 	0.45789 0.92828 0.39754 0.01100
C 	C 	0.46297 0.92420 0.44285 -0.05800
C 	C 	0.48699 0.96034 0.46692 0.01700
C 	C 	0.51191 0.99666 0.44365 -0.02800
C 	C 	0.54176 0.02927 0.46612 0.01600
C 	C 	0.56706 0.06294 0.39595 0.01100
C 	C 	0.57171 0.05970 0.44136 -0.05600
C 	C 	0.48859 0.95957 0.51360 0.01600
C 	C 	0.51825 0.99242 0.53602 -0.02700
C 	C 	0.54277 0.02897 0.51275 0.01600
O 	O 	0.55546 0.06738 0.30531 -0.19100
O 	O 	0.44848 0.93989 0.30713 -0.20600
H 	H 	0.58963 0.08754 0.37798 0.04800
H 	H 	0.60027 0.07890 0.45662 0.04900
H 	H 	0.43812 0.90083 0.38016 0.04200
H 	H 	0.45043 0.89157 0.45847 0.04600
C 	C 	0.56581 0.06582 0.53672 -0.05600
C 	C 	0.57049 0.06229 0.58211 0.01100
C 	C 	0.54908 0.02415 0.60513 -0.07900
C 	C 	0.52170 0.99015 0.58234 0.06200
C 	C 	0.45954 0.92829 0.53849 -0.05600
C 	C 	0.46510 0.92446 0.58377 0.01100
C 	C 	0.49657 0.95487 0.60591 -0.07900
C 	C 	0.55267 0.02083 0.65109 0.19700
N 	N 	0.52880 0.98540 0.67350 -0.18100
C 	C 	0.50154 0.95225 0.65178 0.19800
C 	C 	0.53030 0.98468 0.72062 0.14900
C 	C 	0.56866 0.96536 0.74239 -0.10800
C 	C 	0.57097 0.96671 0.78829 0.07500
C 	C 	0.53451 0.98662 0.81237 -0.08900
C 	C 	0.49584 0.00529 0.79075 0.07400
C 	C 	0.49391 0.00455 0.74486 -0.11000
O 	O 	0.57867 0.05225 0.67273 -0.19600
O 	O 	0.47973 0.91793 0.67398 -0.19600
H 	H 	0.59675 0.95004 0.72364 0.07800
H 	H 	0.46447 0.01970 0.72797 0.07600
H 	H 	0.57794 0.09852 0.52087 0.04800
H 	H 	0.58946 0.09036 0.59946 0.04700
H 	H 	0.43093 0.90890 0.52354 0.04700
H 	H 	0.44335 0.89913 0.60179 0.04600
H 	H 	0.53641 0.98789 0.84786 0.06900
H 	H 	0.50625 0.00765 0.13164 0.06900
Zn	Zn	0.69869 0.86084 0.99568 1.21500
C 	C 	0.65244 0.86393 0.07983 0.31400
O 	O 	0.76578 0.87015 0.00677 -0.43900
O 	O 	0.66074 0.81776 0.08438 -0.44100
O 	O 	0.76002 0.84865 0.07862 -0.48500
C 	C 	0.66917 0.76228 0.99302 0.28800
O 	O 	0.65471 0.80684 0.99036 -0.45200
O 	O 	0.70657 0.75271 0.01562 -0.48100
C 	C 	0.78237 0.87097 0.04694 0.30100
O 	O 	0.71135 0.85183 0.91932 -0.32000
Zn	Zn	0.72433 0.79048 0.06665 1.17400
O 	O 	0.67451 0.88934 0.04978 -0.42400
C 	C 	0.69317 0.89427 0.91609 0.27400
O 	O 	0.68197 0.91390 0.95296 -0.38500
Zn	Zn	0.17949 0.64491 0.01023 1.22700
C 	C 	0.14464 0.63994 0.09843 0.31200
O 	O 	0.13246 0.69549 0.00968 -0.44200
O 	O 	0.15247 0.68658 0.10189 -0.44800
O 	O 	0.18513 0.75348 0.02888 -0.50300
C 	C 	0.26870 0.63853 0.05110 0.32700
O 	O 	0.24707 0.64068 0.01326 -0.45200
O 	O 	0.25286 0.66238 0.08490 -0.49100
C 	C 	0.14509 0.74106 0.01152 0.34000
O 	O 	0.18616 0.65251 0.93309 -0.32300
Zn	Zn	0.21265 0.71712 0.07673 1.17200
O 	O 	0.16449 0.61539 0.06698 -0.43200
C 	C 	0.16387 0.61146 0.93201 0.27500
O 	O 	0.15311 0.59341 0.96984 -0.38800
C 	C 	0.98232 0.49801 0.27072 0.15600
C 	C 	0.95220 0.46905 0.24558 -0.10100
H 	H 	0.92733 0.44527 0.26172 0.07400
C 	C 	0.95446 0.47075 0.19968 0.04400
C 	C 	0.98673 0.50165 0.17906 -0.06800
C 	C 	0.01666 0.53072 0.20413 0.05400
C 	C 	0.01460 0.52871 0.24995 -0.11900
H 	H 	0.03806 0.55078 0.26945 0.07400
N 	N 	0.98063 0.49579 0.31773 -0.17700
C 	C 	0.00491 0.46090 0.33930 0.19000
C 	C 	0.00779 0.46135 0.38536 -0.09100
C 	C 	0.98617 0.49827 0.40887 0.07100
C 	C 	0.95860 0.53153 0.38647 -0.08000
C 	C 	0.95632 0.52979 0.34041 0.20100
C 	C 	0.03085 0.42486 0.40811 0.01000
C 	C 	0.03420 0.42632 0.45370 -0.05400
C 	C 	0.01789 0.46654 0.47733 -0.00100
C 	C 	0.99130 0.50129 0.45494 -0.01200
C 	C 	0.96828 0.53788 0.47844 0.00900
C 	C 	0.93286 0.56508 0.41034 0.01100
C 	C 	0.93619 0.56698 0.45593 -0.05300
C 	C 	0.02561 0.47154 0.52316 0.02500
C 	C 	0.00262 0.50817 0.54664 -0.04400
C 	C 	0.97609 0.54295 0.52424 0.03500
O 	O 	0.93144 0.56152 0.31892 -0.19700
O 	O 	0.02649 0.42746 0.31676 -0.20500
H 	H 	0.90911 0.58888 0.39379 0.04600
H 	H 	0.91208 0.58925 0.47352 0.04700
H 	H 	0.04500 0.39440 0.39070 0.04300
H 	H 	0.04727 0.39501 0.47043 0.04500
C 	C 	0.95996 0.58328 0.54782 -0.06000
C 	C 	0.96345 0.58487 0.59340 0.01300
C 	C 	0.98636 0.54830 0.61619 -0.06900
C 	C 	0.00771 0.51118 0.59271 0.05400
C 	C 	0.05753 0.44230 0.54572 -0.06100
C 	C 	0.06066 0.44405 0.59132 0.01200
C 	C 	0.03499 0.47769 0.61515 -0.07900
C 	C 	0.98936 0.54884 0.66225 0.20700
N 	N 	0.01312 0.51360 0.68385 -0.18600
C 	C 	0.03707 0.47928 0.66122 0.19600
C 	C 	0.01133 0.51140 0.73085 0.13600
C 	C 	0.04530 0.53529 0.75593 -0.10600
C 	C 	0.04368 0.53275 0.80182 0.07700
C 	C 	0.00838 0.50575 0.82247 -0.10700
C 	C 	0.97546 0.48038 0.79737 0.08800
C 	C 	0.97642 0.48402 0.75160 -0.09800
O 	O 	0.96848 0.58279 0.68475 -0.19100
O 	O 	0.06131 0.44706 0.68275 -0.19600
H 	H 	0.07289 0.55553 0.73978 0.07900
H 	H 	0.95097 0.46453 0.73208 0.07700
H 	H 	0.94691 0.61458 0.53104 0.05000
H 	H 	0.94946 0.61543 0.61078 0.04800
H 	H 	0.08168 0.42003 0.52818 0.04800
H 	H 	0.08426 0.42012 0.60791 0.04500
H 	H 	0.00758 0.50300 0.85793 0.06700
H 	H 	0.98883 0.50272 0.14357 0.06500
Zn	Zn	0.84203 0.33096 0.99050 1.21800
C 	C 	0.85569 0.35915 0.90068 0.31100
O 	O 	0.79372 0.37928 0.98300 -0.45000
O 	O 	0.81142 0.35054 0.89347 -0.43200
O 	O 	0.73879 0.32432 0.96193 -0.49700
C 	C 	0.85142 0.23470 0.95807 0.30900
O 	O 	0.84676 0.26088 0.99362 -0.46700
O 	O 	0.83188 0.24796 0.92128 -0.48300
C 	C 	0.75001 0.36651 0.97858 0.34600
O 	O 	0.82792 0.33139 0.06713 -0.30900
Zn	Zn	0.77905 0.29075 0.92100 1.17500
O 	O 	0.87580 0.34109 0.93546 -0.43900
C 	C 	0.86681 0.35554 0.06930 0.29400
O 	O 	0.88738 0.36330 0.03223 -0.36500
Zn	Zn	0.01404 0.00641 0.02093 1.22200
C 	C 	0.05537 0.91234 0.01743 0.35400
O 	O 	0.96692 0.99891 0.06662 -0.45600
O 	O 	0.08163 0.92774 0.04989 -0.45500
O 	O 	0.99511 0.93333 0.10048 -0.48000
C 	C 	0.10264 0.03777 0.05081 0.33500
O 	O 	0.07900 0.02393 0.01630 -0.44100
O 	O 	0.08786 0.02654 0.09037 -0.49700
C 	C 	0.95979 0.95691 0.08500 0.33300
O 	O 	0.99911 0.08947 0.01989 -0.28300
Zn	Zn	0.05586 0.96511 0.10233 1.17000
O 	O 	0.02056 0.93834 0.00322 -0.43300
C 	C 	0.97631 0.08067 0.98412 0.25800
O 	O 	0.97669 0.03618 0.97106 -0.36900
C 	C 	0.88128 0.19247 0.95874 -0.06700
C 	C 	0.92685 0.19615 0.94299 -0.00500
C 	C 	0.95695 0.15750 0.94779 -0.00600
C 	C 	0.94168 0.11472 0.96816 -0.06400
C 	C 	0.89479 0.10986 0.98118 0.05100
C 	C 	0.86498 0.14894 0.97673 -0.02500
H 	H 	0.99281 0.16161 0.93758 0.04500
H 	H 	0.82940 0.14571 0.98800 0.04200
H 	H 	0.93944 0.22954 0.92843 0.04400
I 	I 	0.86835 0.04477 0.00910 -0.05500
C 	C 	0.88348 0.38700 0.86889 -0.06800
C 	C 	0.86822 0.43191 0.85406 0.00200
C 	C 	0.89782 0.46169 0.82929 -0.03300
C 	C 	0.94273 0.44662 0.81889 -0.02600
C 	C 	0.95710 0.40035 0.83163 0.05000
C 	C 	0.92753 0.37090 0.85673 -0.02100
H 	H 	0.88633 0.49702 0.81921 0.05000
H 	H 	0.93910 0.33581 0.86743 0.05900
H 	H 	0.83416 0.44454 0.86315 0.04900
I 	I 	0.02338 0.37425 0.81370 -0.12000
C 	C 	0.92366 0.43977 0.17294 0.02900
C 	C 	0.92973 0.38970 0.17243 -0.06300
C 	C 	0.90781 0.36142 0.14042 0.02700
C 	C 	0.87995 0.38302 0.10854 -0.09400
C 	C 	0.87104 0.43279 0.11111 0.09100
C 	C 	0.89266 0.46081 0.14348 -0.08200
H 	H 	0.91451 0.32312 0.13898 0.03900
H 	H 	0.88708 0.49935 0.14444 0.06700
H 	H 	0.95324 0.37306 0.19540 0.05800
I 	I 	0.82690 0.46706 0.06537 -0.09200
C 	C 	0.11326 0.77874 0.99706 -0.10600
C 	C 	0.06845 0.78066 0.01482 0.00500
C 	C 	0.04450 0.82415 0.01450 0.02800
C 	C 	0.06567 0.86591 0.99713 -0.14300
C 	C 	0.10658 0.86155 0.97236 0.08100
C 	C 	0.13057 0.81807 0.97279 -0.03000
H 	H 	0.01200 0.82663 0.03217 0.02400
H 	H 	0.16408 0.81593 0.95685 0.05000
H 	H 	0.05397 0.74988 0.03230 0.04100
I 	I 	0.13541 0.92177 0.93841 -0.12200
C 	C 	0.14079 0.59420 0.89203 -0.05400
C 	C 	0.14335 0.54544 0.88048 -0.00200
C 	C 	0.11373 0.52628 0.84854 -0.03300
C 	C 	0.08066 0.55549 0.82838 -0.02400
C 	C 	0.07983 0.60517 0.83810 0.04100
C 	C 	0.11029 0.62438 0.86954 -0.02500
H 	H 	0.11492 0.48815 0.84096 0.04900
H 	H 	0.10836 0.66217 0.87824 0.05800
H 	H 	0.16704 0.52196 0.89749 0.04200
I 	I 	0.03085 0.65126 0.80828 -0.10500
C 	C 	0.11449 0.61479 0.13025 -0.07600
C 	C 	0.12554 0.56824 0.14440 0.00600
C 	C 	0.09436 0.54182 0.17034 -0.04300
C 	C 	0.05169 0.56151 0.18223 -0.01600
C 	C 	0.04129 0.60906 0.16970 0.02600
C 	C 	0.07284 0.63558 0.14390 -0.01700
H 	H 	0.10274 0.50541 0.18014 0.04600
H 	H 	0.06425 0.67165 0.13327 0.04800
H 	H 	0.15795 0.55216 0.13459 0.04400
I 	I 	0.97774 0.64105 0.18814 -0.09700
C 	C 	0.82744 0.89411 0.05603 -0.05600
C 	C 	0.86679 0.88055 0.03237 -0.01700
C 	C 	0.91047 0.89897 0.04380 0.01100
C 	C 	0.91515 0.93197 0.07840 -0.10200
C 	C 	0.87565 0.94566 0.10226 0.08200
C 	C 	0.83203 0.92637 0.09119 -0.03500
H 	H 	0.94061 0.88842 0.02511 0.04700
H 	H 	0.80172 0.93654 0.10986 0.06200
H 	H 	0.86364 0.85510 0.00558 0.04700
I 	I 	0.88090 0.99515 0.15513 -0.10700
C 	C 	0.67222 0.91083 0.87489 -0.05200
C 	C 	0.64415 0.87915 0.85030 -0.00400
C 	C 	0.61373 0.89725 0.81886 -0.03200
C 	C 	0.61140 0.94710 0.81150 -0.02300
C 	C 	0.64327 0.97832 0.83262 0.04400
C 	C 	0.67321 0.96012 0.86452 -0.02500
H 	H 	0.58995 0.87283 0.80220 0.04900
H 	H 	0.69582 0.98459 0.88251 0.05700
H 	H 	0.64353 0.84091 0.85763 0.04800
I 	I 	0.64597 0.05313 0.81771 -0.10900
C 	C 	0.62320 0.88865 0.11191 -0.07300
C 	C 	0.57777 0.87218 0.12002 0.00300
C 	C 	0.54830 0.89897 0.14672 -0.03900
C 	C 	0.56420 0.94214 0.16587 -0.02100
C 	C 	0.61056 0.95748 0.15941 0.03800
C 	C 	0.63970 0.93084 0.13229 -0.01700
H 	H 	0.51281 0.88675 0.15176 0.04300
H 	H 	0.67507 0.94319 0.12670 0.05800
H 	H 	0.56482 0.83951 0.10455 0.03700
I 	I 	0.63738 0.02088 0.18985 -0.08300
C 	C 	0.22817 0.11621 0.02404 -0.07200
C 	C 	0.22431 0.06701 0.01380 0.01800
C 	C 	0.18382 0.04111 0.02424 -0.00300
C 	C 	0.14674 0.06405 0.04497 -0.09700
C 	C 	0.15080 0.11319 0.05608 0.07400
C 	C 	0.19154 0.13891 0.04590 -0.03100
H 	H 	0.18092 0.00331 0.01555 0.04900
H 	H 	0.19453 0.17668 0.05467 0.04500
H 	H 	0.25229 0.04899 0.99705 0.02600
I 	I 	0.09514 0.15022 0.08605 -0.11200
C 	C 	0.40085 0.07477 0.87644 -0.05300
C 	C 	0.42653 0.10188 0.84584 -0.00200
C 	C 	0.45552 0.07883 0.81600 -0.03300
C 	C 	0.45877 0.02840 0.81625 -0.02200
C 	C 	0.43001 0.00094 0.84455 0.04100
C 	C 	0.40171 0.02429 0.87497 -0.02500
H 	H 	0.47701 0.10024 0.79398 0.04900
H 	H 	0.38126 0.00321 0.89810 0.05100
H 	H 	0.42587 0.14093 0.84666 0.04400
I 	I 	0.42817 0.92441 0.84160 -0.10700
C 	C 	0.40426 0.13613 0.10751 -0.07100
C 	C 	0.38035 0.09817 0.12846 0.00200
C 	C 	0.40369 0.06787 0.15739 -0.03900
C 	C 	0.45102 0.07561 0.16600 -0.02100
C 	C 	0.47422 0.11586 0.14740 0.03800
C 	C 	0.45093 0.14547 0.11776 -0.01700
H 	H 	0.38543 0.03734 0.17189 0.04300
H 	H 	0.46926 0.17542 0.10234 0.05800
H 	H 	0.34420 0.09085 0.12090 0.03900
I 	I 	0.54398 0.13318 0.16410 -0.08400
C 	C 	0.40776 0.29992 0.95192 -0.06100
C 	C 	0.37954 0.33868 0.94073 -0.01700
C 	C 	0.39924 0.38452 0.93430 -0.00400
C 	C 	0.44702 0.39203 0.94046 -0.07300
C 	C 	0.47587 0.35155 0.94369 0.06900
C 	C 	0.45604 0.30564 0.95010 -0.03200
H 	H 	0.37677 0.41508 0.92980 0.03600
H 	H 	0.47810 0.27517 0.95656 0.05300
H 	H 	0.34214 0.33415 0.94047 0.02000
I 	I 	0.54914 0.35924 0.94330 -0.10600
C 	C 	0.40148 0.57194 0.05548 -0.05900
C 	C 	0.39487 0.61683 0.07526 -0.01800
C 	C 	0.35121 0.63793 0.07453 0.00900
C 	C 	0.31355 0.61407 0.05440 -0.10200
C 	C 	0.31947 0.56734 0.03716 0.08200
C 	C 	0.36360 0.54695 0.03709 -0.03500
H 	H 	0.34693 0.67347 0.08853 0.02100
H 	H 	0.36853 0.51184 0.02238 0.06100
H 	H 	0.42400 0.63634 0.08951 0.03100
I 	I 	0.26225 0.52518 0.01419 -0.10700
C 	C 	0.63821 0.45384 0.02190 -0.01500
C 	C 	0.67084 0.43709 0.05205 -0.03600
C 	C 	0.70805 0.40941 0.03764 0.05600
C 	C 	0.71342 0.39922 0.99286 -0.13700
C 	C 	0.68191 0.41813 0.96236 0.10500
C 	C 	0.64408 0.44459 0.97707 -0.07000
H 	H 	0.73199 0.39483 0.06137 0.03800
H 	H 	0.61932 0.45823 0.95361 0.07100
H 	H 	0.66658 0.44409 0.08674 0.04500
I 	I 	0.69173 0.40924 0.89383 -0.12300
C 	C 	0.64127 0.72224 0.97446 -0.05900
C 	C 	0.59276 0.72482 0.97333 -0.02200
C 	C 	0.56595 0.68250 0.97016 0.00300
C 	C 	0.58750 0.63739 0.96976 -0.09200
C 	C 	0.63574 0.63576 0.96253 0.06900
C 	C 	0.66246 0.67824 0.96502 -0.04200
H 	H 	0.52857 0.68443 0.97324 0.03600
H 	H 	0.69989 0.67656 0.96236 0.05400
H 	H 	0.57580 0.75894 0.97841 0.04600
I 	I 	0.66965 0.56976 0.95091 -0.10600
