data_crystal

_cell_length_a 19.94741
_cell_length_b 17.27889
_cell_length_c 27.85043
_cell_angle_alpha 88.27719
_cell_angle_beta  88.42330
_cell_angle_gamma 107.45376

_symmetry_space_group_name_	'P 1'
_symmetry_space_group_name_H-M	'P 1'

loop_
_symmetry_equiv_pos_as_xyz
  x,y,z

loop_
_atom_site_label
_atom_site_type_symbol
_atom_site_fract_x
_atom_site_fract_y
_atom_site_fract_z
_atom_site_charge
Zn	Zn	0.58612 0.35789 0.87366 1.22300
Zn	Zn	0.67131 0.47005 0.95908 1.19600
C 	C 	0.78975 0.25297 0.84135 0.29100
Zn	Zn	0.74291 0.37887 0.89194 1.22200
Zn	Zn	0.64233 0.24684 0.81545 1.19100
H 	H 	0.64658 0.31848 0.95369 0.17900
C 	C 	0.76295 0.55082 0.86899 0.28800
O 	O 	0.54118 0.21347 0.79835 -0.45900
O 	O 	0.52420 0.33538 0.81279 -0.41400
O 	O 	0.65594 0.36405 0.92956 -0.79700
O 	O 	0.57680 0.48581 0.95898 -0.45700
O 	O 	0.52575 0.25468 0.90292 -0.43900
O 	O 	0.55388 0.45253 0.88122 -0.44000
O 	O 	0.60915 0.19180 0.88733 -0.41100
O 	O 	0.76967 0.51132 0.97634 -0.46400
H 	H 	0.68129 0.40156 0.80965 0.16300
O 	O 	0.80197 0.40048 0.95549 -0.39500
O 	O 	0.67093 0.36013 0.83639 -0.79800
O 	O 	0.73023 0.21458 0.82133 -0.45000
O 	O 	0.79187 0.49138 0.86764 -0.43800
O 	O 	0.78968 0.29389 0.88067 -0.43200
O 	O 	0.70088 0.53925 0.89077 -0.41100
C 	C 	0.49988 0.26028 0.79970 0.29700
C 	C 	0.53359 0.47108 0.92331 0.29100
C 	C 	0.54982 0.19236 0.90937 0.27400
C 	C 	0.81253 0.46700 0.97979 0.24900
Zn	Zn	0.65150 0.39461 0.56692 1.22300
Zn	Zn	0.55218 0.25808 0.49543 1.19800
C 	C 	0.68105 0.17014 0.65746 0.29500
Zn	Zn	0.57720 0.21323 0.60038 1.22400
Zn	Zn	0.71401 0.34864 0.65562 1.18700
H 	H 	0.66390 0.25379 0.53218 0.17000
C 	C 	0.43903 0.22807 0.57858 0.29800
O 	O 	0.76965 0.46502 0.64855 -0.47100
O 	O 	0.69522 0.50873 0.60065 -0.39200
O 	O 	0.62476 0.27387 0.54318 -0.80000
O 	O 	0.57636 0.36982 0.46614 -0.47000
O 	O 	0.74448 0.41367 0.53749 -0.44200
O 	O 	0.58951 0.44550 0.53326 -0.43600
O 	O 	0.77256 0.32741 0.59154 -0.41900
O 	O 	0.49600 0.14344 0.49793 -0.48400
H 	H 	0.58783 0.35292 0.64627 0.17100
O 	O 	0.54466 0.10111 0.56379 -0.40600
O 	O 	0.62045 0.33153 0.62716 -0.79200
O 	O 	0.71012 0.23742 0.67977 -0.48000
O 	O 	0.47779 0.20879 0.61182 -0.42800
O 	O 	0.61436 0.15015 0.64699 -0.43400
O 	O 	0.46907 0.27872 0.54220 -0.40200
C 	C 	0.75411 0.52357 0.62423 0.29900
C 	C 	0.57053 0.43353 0.48847 0.29800
C 	C 	0.78891 0.37721 0.55319 0.27600
C 	C 	0.50562 0.08525 0.52579 0.39000
Zn	Zn	0.95854 0.93729 0.72204 1.22000
Zn	Zn	0.08054 0.98438 0.80591 1.19400
C 	C 	0.14509 0.11067 0.61858 0.28000
Zn	Zn	0.08712 0.08942 0.71453 1.23200
Zn	Zn	0.99164 0.01414 0.61876 1.18000
H 	H 	0.09813 0.94773 0.71813 0.18500
C 	C 	0.01284 0.12804 0.79709 0.35000
O 	O 	0.88828 0.96776 0.61501 -0.45200
O 	O 	0.85563 0.91991 0.69328 -0.38300
O 	O 	0.06782 0.97470 0.73539 -0.77000
O 	O 	0.00156 0.88791 0.83206 -0.39900
O 	O 	0.96566 0.83898 0.69425 -0.46500
O 	O 	0.91580 0.91439 0.78701 -0.43700
O 	O 	0.98770 0.88408 0.61643 -0.40900
O 	O 	0.16477 0.08093 0.81617 -0.45300
H 	H 	0.95903 0.07362 0.69601 0.17200
O 	O 	0.19056 0.12360 0.73740 -0.41500
O 	O 	0.98971 0.03996 0.68819 -0.83700
O 	O 	0.09889 0.04650 0.60071 -0.41100
O 	O 	0.05691 0.15826 0.76045 -0.43000
O 	O 	0.12609 0.14787 0.65429 -0.43600
O 	O 	0.00950 0.05729 0.81766 -0.39800
C 	C 	0.84499 0.95795 0.65324 0.28300
C 	C 	0.93652 0.86640 0.81695 0.24700
C 	C 	0.95510 0.82697 0.64883 0.30600
C 	C 	0.21014 0.11943 0.78156 0.30500
Zn	Zn	0.31308 0.66724 0.37857 1.22700
Zn	Zn	0.20593 0.52492 0.44943 1.20700
C 	C 	0.12197 0.78617 0.34396 0.28300
Zn	Zn	0.15156 0.63898 0.38408 1.22400
Zn	Zn	0.27580 0.80606 0.33259 1.18800
H 	H 	0.22736 0.67727 0.45569 0.19700
C 	C 	0.14639 0.47990 0.35013 0.30400
O 	O 	0.38093 0.84086 0.32010 -0.46600
O 	O 	0.39356 0.71334 0.32456 -0.40100
O 	O 	0.22626 0.64084 0.42878 -0.78300
O 	O 	0.30128 0.51198 0.45413 -0.44100
O 	O 	0.36755 0.74976 0.42005 -0.41900
O 	O 	0.34075 0.56905 0.37986 -0.45600
O 	O 	0.29409 0.82668 0.40906 -0.40700
O 	O 	0.10349 0.47396 0.45538 -0.45900
H 	H 	0.24064 0.65965 0.30679 0.17100
O 	O 	0.06990 0.58687 0.43812 -0.40100
O 	O 	0.24132 0.68593 0.33795 -0.79600
O 	O 	0.18691 0.83573 0.34434 -0.44600
O 	O 	0.11841 0.53989 0.34706 -0.43300
O 	O 	0.10186 0.72136 0.37340 -0.40800
O 	O 	0.20211 0.48662 0.37576 -0.41500
C 	C 	0.42051 0.79204 0.31603 0.28900
C 	C 	0.35217 0.53807 0.42116 0.39300
C 	C 	0.34749 0.81278 0.43065 0.27400
C 	C 	0.05764 0.51440 0.45925 0.43500
Zn	Zn	0.19984 0.72622 0.09281 1.22300
Zn	Zn	0.35317 0.85326 0.13671 1.19000
C 	C 	0.33714 0.62013 0.98257 0.38100
Zn	Zn	0.35230 0.74759 0.05313 1.22600
Zn	Zn	0.21460 0.68135 0.98515 1.20800
H 	H 	0.31052 0.69819 0.13646 0.17300
C 	C 	0.39505 0.91781 0.03024 0.35400
O 	O 	0.12015 0.68823 0.98319 -0.46500
O 	O 	0.09868 0.71053 0.06166 -0.39800
O 	O 	0.30398 0.74231 0.11536 -0.79000
O 	O 	0.27464 0.89538 0.15820 -0.46400
O 	O 	0.16767 0.60725 0.10842 -0.43400
O 	O 	0.17366 0.80050 0.13664 -0.43900
O 	O 	0.18170 0.56703 0.03153 -0.34800
O 	O 	0.45635 0.87306 0.12722 -0.46300
H 	H 	0.25487 0.81334 0.02234 0.17600
O 	O 	0.45386 0.76280 0.08230 -0.38000
O 	O 	0.25496 0.75819 0.03296 -0.80300
O 	O 	0.29575 0.65132 0.95780 -0.47100
O 	O 	0.39718 0.84700 0.01602 -0.42300
O 	O 	0.35754 0.64579 0.02544 -0.41600
O 	O 	0.35637 0.92273 0.06858 -0.43100
C 	C 	0.07877 0.67221 0.02175 0.38200
C 	C 	0.21166 0.87707 0.14013 0.29200
C 	C 	0.15069 0.55235 0.07510 0.31300
C 	C 	0.48898 0.83242 0.10068 0.31100
Zn	Zn	0.96076 0.12244 0.20123 1.21100
Zn	Zn	0.83763 0.05678 0.28979 1.18900
C 	C 	0.78353 0.95278 0.10478 0.28500
Zn	Zn	0.83884 0.96303 0.19843 1.22300
Zn	Zn	0.93277 0.06150 0.09813 1.18100
H 	H 	0.81873 0.10031 0.20308 0.17100
C 	C 	0.91702 0.92306 0.27731 0.29000
O 	O 	0.03532 0.11668 0.09071 -0.41600
O 	O 	0.06478 0.15315 0.16773 -0.35900
O 	O 	0.85090 0.07455 0.21895 -0.79500
O 	O 	0.91358 0.15241 0.31226 -0.44900
O 	O 	0.95148 0.22518 0.17655 -0.45000
O 	O 	0.00174 0.13281 0.26421 -0.37500
O 	O 	0.92715 0.18848 0.09990 -0.38800
O 	O 	0.75619 0.95694 0.30382 -0.46100
H 	H 	0.96804 0.99261 0.17128 0.16000
O 	O 	0.73378 0.91255 0.22756 -0.40200
O 	O 	0.93501 0.02471 0.16663 -0.81600
O 	O 	0.82577 0.02328 0.08680 -0.44500
O 	O 	0.87682 0.89422 0.24125 -0.44200
O 	O 	0.80516 0.91261 0.13852 -0.45700
O 	O 	0.91184 0.98725 0.29961 -0.41900
C 	C 	0.07587 0.11819 0.12770 0.27700
C 	C 	0.98013 0.17412 0.29696 0.19600
C 	C 	0.95899 0.24330 0.13052 0.22100
C 	C 	0.71159 0.92071 0.27148 0.29100
C 	C 	0.99748 0.38329 0.07342 -0.17900
H 	H 	0.95032 0.37104 0.05129 0.07800
C 	C 	0.07433 0.39793 0.05421 0.08800
H 	H 	0.09110 0.39839 0.01584 0.06400
C 	C 	0.02354 0.45526 0.10717 0.13400
H 	H 	0.99817 0.50340 0.11305 -0.03300
C 	C 	0.09983 0.46896 0.08823 -0.09900
C 	C 	0.00865 0.32500 0.11307 0.07100
C 	C 	0.03424 0.39618 0.14698 -0.07600
H 	H 	0.01740 0.39590 0.18532 0.06900
C 	C 	0.11081 0.41049 0.12793 0.02900
H 	H 	0.15743 0.42149 0.15059 0.03500
C 	C 	0.08491 0.33864 0.09418 -0.06200
H 	H 	0.11054 0.29065 0.08855 0.07200
C 	C 	0.66609 0.83464 0.09650 -0.01100
H 	H 	0.69046 0.78467 0.09733 0.03800
C 	C 	0.61887 0.85027 0.05642 0.00300
H 	H 	0.60371 0.81285 0.02449 0.06300
C 	C 	0.61423 0.84753 0.13532 -0.01100
H 	H 	0.59618 0.80668 0.16755 0.03800
C 	C 	0.56773 0.86325 0.09557 -0.05000
C 	C 	0.70631 0.92629 0.09581 -0.07400
C 	C 	0.65441 0.93908 0.13442 -0.01300
H 	H 	0.66849 0.97739 0.16605 0.02300
C 	C 	0.60765 0.95497 0.09436 -0.00000
H 	H 	0.58294 0.00464 0.09353 0.04300
C 	C 	0.66039 0.94244 0.05552 0.00400
H 	H 	0.67962 0.98208 0.02280 0.05500
C 	C 	0.19353 0.07029 0.12083 -0.00800
H 	H 	0.23281 0.12927 0.11004 0.03900
C 	C 	0.17546 0.99265 0.09115 -0.01300
H 	H 	0.20042 0.98648 0.05592 0.02900
C 	C 	0.19481 0.01834 0.16696 -0.00700
H 	H 	0.23551 0.03348 0.19445 0.03100
C 	C 	0.17608 0.94156 0.13721 -0.07000
C 	C 	0.11463 0.05666 0.13065 -0.07400
C 	C 	0.11539 0.00557 0.17666 -0.01800
H 	H 	0.09041 0.01249 0.21168 0.03300
C 	C 	0.09719 0.92816 0.14699 -0.01500
H 	H 	0.05770 0.86930 0.15764 0.04500
C 	C 	0.09603 0.97985 0.10092 -0.01600
H 	H 	0.05512 0.96428 0.07358 0.02000
C 	C 	0.54331 0.91311 0.31653 -0.01700
H 	H 	0.52397 0.95940 0.33434 0.02700
C 	C 	0.57841 0.92280 0.26549 -0.01900
H 	H 	0.58875 0.97748 0.24113 0.01900
C 	C 	0.60039 0.87728 0.33581 -0.01300
H 	H 	0.62871 0.89416 0.36952 0.03200
C 	C 	0.63457 0.88651 0.28489 -0.07100
C 	C 	0.49795 0.82712 0.30490 -0.06700
C 	C 	0.55402 0.79083 0.32441 -0.01000
H 	H 	0.54344 0.73613 0.34880 0.04400
C 	C 	0.58906 0.80051 0.27336 -0.00700
H 	H 	0.60833 0.75412 0.25562 0.03700
C 	C 	0.53206 0.83643 0.25413 -0.01400
H 	H 	0.50267 0.81957 0.22084 0.02100
C 	C 	0.10580 0.29128 0.29563 -0.02900
H 	H 	0.13767 0.26159 0.27371 0.04900
C 	C 	0.12007 0.31822 0.34795 0.00400
H 	H 	0.16461 0.31224 0.36926 0.03600
C 	C 	0.09193 0.37280 0.28224 -0.00900
H 	H 	0.11336 0.41185 0.24962 0.03600
C 	C 	0.10549 0.39844 0.33428 -0.08300
C 	C 	0.02745 0.25419 0.31013 -0.01200
C 	C 	0.01301 0.33441 0.29643 0.01800
H 	H 	0.96837 0.34021 0.27515 -0.01100
C 	C 	0.02715 0.36102 0.34861 0.05300
H 	H 	0.99499 0.39037 0.37045 -0.01300
C 	C 	0.04113 0.28000 0.36209 -0.03600
H 	H 	0.01984 0.24119 0.39484 0.05600
C 	C 	0.07426 0.87221 0.27882 0.00400
H 	H 	0.12134 0.88876 0.25402 0.02500
C 	C 	0.04486 0.93232 0.30626 0.01200
H 	H 	0.06667 0.99953 0.30355 0.04300
C 	C 	0.99864 0.82325 0.26586 -0.04300
H 	H 	0.98210 0.80017 0.22994 0.02400
C 	C 	0.96986 0.88293 0.29357 -0.09100
C 	C 	0.06626 0.81974 0.32540 -0.04000
C 	C 	0.99138 0.77006 0.31272 -0.04000
H 	H 	0.96979 0.70286 0.31559 0.02900
C 	C 	0.96187 0.83033 0.34015 -0.03300
H 	H 	0.91515 0.81320 0.36528 0.03500
C 	C 	0.03740 0.87936 0.35299 0.02300
H 	H 	0.05377 0.90236 0.38897 0.04400
C 	C 	0.39076 0.87334 0.46154 0.01600
C 	C 	0.46357 0.90341 0.45205 -0.07300
C 	C 	0.50415 0.96746 0.47796 0.07700
C 	C 	0.47227 0.00137 0.51367 -0.22500
C 	C 	0.40130 0.96436 0.52719 0.40100
C 	C 	0.36010 0.90179 0.50036 -0.17000
H 	H 	0.55931 0.99461 0.46790 0.00100
H 	H 	0.30442 0.87628 0.50930 0.10700
H 	H 	0.48807 0.87975 0.42310 0.05900
F 	F 	0.37165 0.99185 0.56479 -0.47200
C 	C 	0.85787 0.39456 0.52813 -0.00500
C 	C 	0.86345 0.41276 0.47838 -0.07900
C 	C 	0.92848 0.45405 0.45625 0.08200
C 	C 	0.98908 0.47451 0.48314 -0.26600
C 	C 	0.98458 0.45094 0.53216 0.34900
C 	C 	0.91907 0.41136 0.55461 -0.16100
H 	H 	0.93167 0.47047 0.41821 0.00100
H 	H 	0.91553 0.39776 0.59301 0.08700
H 	H 	0.81669 0.39873 0.45736 0.04500
F 	F 	0.04333 0.46874 0.55831 -0.43700
C 	C 	0.53380 0.48574 0.46528 -0.00100
C 	C 	0.51432 0.47379 0.41729 -0.07400
C 	C 	0.45826 0.49826 0.40075 0.07600
C 	C 	0.42270 0.53609 0.43180 -0.22900
C 	C 	0.45042 0.56100 0.47651 0.39600
C 	C 	0.50605 0.53595 0.49321 -0.16500
H 	H 	0.43926 0.48248 0.36518 0.02000
H 	H 	0.52399 0.55057 0.52914 0.11500
H 	H 	0.53892 0.44013 0.39407 0.05000
F 	F 	0.42049 0.60502 0.50492 -0.46300
C 	C 	0.69179 0.01871 0.64131 -0.01500
H 	H 	0.63813 0.98756 0.62928 0.05000
C 	C 	0.72690 0.99235 0.68550 -0.00100
H 	H 	0.70294 0.93854 0.70991 0.03900
C 	C 	0.76107 0.03286 0.61093 -0.01000
H 	H 	0.76508 0.01238 0.57384 0.02800
C 	C 	0.79550 0.00763 0.65509 -0.08100
C 	C 	0.71805 0.10721 0.65672 -0.06800
C 	C 	0.78638 0.12185 0.62633 -0.02500
H 	H 	0.81081 0.17558 0.60194 0.02800
C 	C 	0.82099 0.09622 0.67036 -0.01700
H 	H 	0.87394 0.13046 0.68196 0.00400
C 	C 	0.75214 0.08172 0.70081 -0.01300
H 	H 	0.74747 0.10204 0.73784 0.03600
C 	C 	0.25697 0.19267 0.55771 -0.01400
H 	H 	0.22902 0.21337 0.52840 0.03800
C 	C 	0.30760 0.14022 0.55107 0.00300
H 	H 	0.32179 0.11821 0.51632 0.05200
C 	C 	0.31054 0.24874 0.59072 -0.01000
H 	H 	0.32686 0.31613 0.58904 0.04500
C 	C 	0.35982 0.19617 0.58443 -0.05500
C 	C 	0.22172 0.13810 0.60184 -0.06100
C 	C 	0.27484 0.19429 0.63480 -0.01700
H 	H 	0.26316 0.21868 0.66937 0.05400
C 	C 	0.32419 0.14155 0.62836 0.00100
H 	H 	0.35154 0.11974 0.65755 0.05100
C 	C 	0.27102 0.08548 0.59545 -0.00000
H 	H 	0.25417 0.01810 0.59746 0.06800
C 	C 	0.89894 0.66915 0.66201 -0.00900
H 	H 	0.93680 0.66107 0.68878 0.03200
C 	C 	0.88429 0.62455 0.61442 -0.01400
H 	H 	0.90973 0.57939 0.60181 0.04200
C 	C 	0.81932 0.65221 0.67202 -0.01200
H 	H 	0.79070 0.63011 0.70691 0.02700
C 	C 	0.80468 0.60795 0.62465 -0.06400
C 	C 	0.90197 0.74934 0.63497 -0.07100
C 	C 	0.82226 0.73260 0.64498 -0.01400
H 	H 	0.79564 0.77650 0.65764 0.04500
C 	C 	0.80713 0.68753 0.59723 -0.00900
H 	H 	0.76874 0.69478 0.57066 0.04200
C 	C 	0.88774 0.70554 0.58725 -0.00900
H 	H 	0.91631 0.72761 0.55234 0.03400
C 	C 	0.87999 0.50146 0.00203 0.05000
C 	C 	0.88632 0.56029 0.03682 -0.07800
C 	C 	0.95221 0.61379 0.04575 0.01600
C 	C 	0.01201 0.60738 0.02072 -0.16700
C 	C 	0.00631 0.54183 0.99067 0.42900
C 	C 	0.94059 0.48920 0.98149 -0.25700
H 	H 	0.95624 0.66250 0.07016 0.01700
H 	H 	0.93656 0.44195 0.95604 0.11700
H 	H 	0.83978 0.56807 0.05443 0.04800
F 	F 	0.06439 0.53137 0.96869 -0.48300
C 	C 	0.51209 0.12479 0.94313 -0.01400
C 	C 	0.44621 0.12194 0.96400 -0.05200
C 	C 	0.40912 0.05589 0.99417 0.00400
C 	C 	0.43696 0.99163 0.00317 -0.16200
C 	C 	0.50336 0.99528 0.98304 0.35200
C 	C 	0.54083 0.06172 0.95363 -0.15700
H 	H 	0.35787 0.05357 0.00927 0.04200
H 	H 	0.59182 0.06339 0.93837 0.10200
H 	H 	0.42319 0.17009 0.95627 0.04900
F 	F 	0.53079 0.93329 0.99104 -0.47100
C 	C 	0.46711 0.48900 0.92864 -0.00600
C 	C 	0.45460 0.55026 0.89945 -0.06200
C 	C 	0.40586 0.58846 0.91482 0.07000
C 	C 	0.36969 0.56526 0.95935 -0.21000
C 	C 	0.37478 0.49618 0.98483 0.37700
C 	C 	0.42333 0.45792 0.96934 -0.15900
H 	H 	0.40044 0.64021 0.89411 0.02600
H 	H 	0.43076 0.40809 0.99092 0.09000
H 	H 	0.48682 0.57293 0.86709 0.06000
F 	F 	0.33605 0.46958 0.02623 -0.44400
C 	C 	0.88092 0.12897 0.79428 0.00000
H 	H 	0.86213 0.07356 0.77319 0.02000
C 	C 	0.87821 0.21486 0.77923 -0.02700
H 	H 	0.85620 0.23177 0.74572 0.02600
C 	C 	0.85420 0.13880 0.84566 -0.01400
H 	H 	0.81222 0.09236 0.86679 0.03900
C 	C 	0.85201 0.22432 0.83054 -0.06100
C 	C 	0.95695 0.16616 0.80960 -0.12700
C 	C 	0.93090 0.17568 0.86094 0.00600
H 	H 	0.95308 0.15927 0.89452 0.01600
C 	C 	0.92804 0.26185 0.84598 -0.02400
H 	H 	0.94691 0.31683 0.86743 0.03600
C 	C 	0.95504 0.25180 0.79442 -0.00100
H 	H 	0.99701 0.29805 0.77319 0.02200
C 	C 	0.34232 0.12390 0.76741 -0.01200
H 	H 	0.33172 0.06912 0.74555 0.03200
C 	C 	0.38225 0.13569 0.81478 -0.01200
H 	H 	0.40614 0.09173 0.83166 0.03900
C 	C 	0.38349 0.21146 0.74984 -0.01200
H 	H 	0.40840 0.23038 0.71351 0.03500
C 	C 	0.42255 0.22288 0.79693 -0.06600
C 	C 	0.28590 0.15596 0.79124 -0.07400
C 	C 	0.32644 0.24322 0.77362 -0.00600
H 	H 	0.30278 0.28741 0.75675 0.04200
C 	C 	0.36639 0.25512 0.82100 -0.00900
H 	H 	0.37712 0.30979 0.84297 0.04400
C 	C 	0.32477 0.16728 0.83858 -0.00900
H 	H 	0.30013 0.14885 0.87503 0.03500
C 	C 	0.83022 0.73261 0.79903 -0.01800
H 	H 	0.81649 0.75273 0.76338 0.03700
C 	C 	0.77985 0.70883 0.84411 -0.01000
H 	H 	0.72391 0.70781 0.84564 0.04000
C 	C 	0.85624 0.65792 0.80915 -0.01200
H 	H 	0.86338 0.61502 0.78200 0.02800
C 	C 	0.80657 0.63526 0.85401 -0.06500
C 	C 	0.88818 0.78346 0.83051 -0.06300
C 	C 	0.91469 0.70971 0.84039 -0.01600
H 	H 	0.97054 0.71035 0.83887 0.02300
C 	C 	0.86457 0.68621 0.88538 -0.01300
H 	H 	0.87854 0.66637 0.92105 0.03400
C 	C 	0.83854 0.76086 0.87534 -0.01400
H 	H 	0.83160 0.80378 0.90253 0.02700
