data_crystal

_cell_length_a 26.14860
_cell_length_b 26.44529
_cell_length_c 34.78094
_cell_angle_alpha 95.53604
_cell_angle_beta  95.53632
_cell_angle_gamma 125.68045

_symmetry_space_group_name_	'P 1'
_symmetry_space_group_name_H-M	'P 1'

loop_
_symmetry_equiv_pos_as_xyz
  x,y,z

loop_
_atom_site_label
_atom_site_type_symbol
_atom_site_fract_x
_atom_site_fract_y
_atom_site_fract_z
_atom_site_charge
C 	C 	0.96790 0.05138 0.00121 0.05900
C 	C 	0.03364 0.08348 0.00122 -0.08800
C 	C 	0.06024 0.05022 0.00091 0.05600
C 	C 	0.02107 0.98494 0.00091 -0.09100
C 	C 	0.95555 0.95284 0.00099 0.05700
C 	C 	0.92897 0.98600 0.00111 -0.08800
H 	H 	0.06384 0.13397 0.00124 0.06600
H 	H 	0.04137 0.95901 0.00025 0.06600
H 	H 	0.87804 0.96091 0.00060 0.06500
C 	C 	0.92584 0.96899 0.44667 0.01500
C 	C 	0.99132 0.00468 0.44497 -0.04300
C 	C 	0.02221 0.97571 0.44431 0.00700
C 	C 	0.98773 0.91100 0.44514 -0.05000
C 	C 	0.92269 0.87524 0.44777 0.02200
C 	C 	0.89155 0.90417 0.44820 -0.05800
H 	H 	0.01827 0.05497 0.44466 0.05100
H 	H 	0.01174 0.88866 0.44433 0.05200
H 	H 	0.84119 0.87663 0.45008 0.05600
Cu	Cu	0.63968 0.25976 0.99798 0.93200
Cu	Cu	0.67973 0.26295 0.91132 0.89000
Cu	Cu	0.66977 0.36124 0.94946 0.90400
Cu	Cu	0.64384 0.37731 0.03014 0.90800
C 	C 	0.66599 0.30454 0.08145 0.30800
O 	O 	0.54750 0.22243 0.00184 -0.33800
C 	C 	0.63936 0.31871 0.86264 0.30800
O 	O 	0.69124 0.35841 0.00307 -0.63300
O 	O 	0.62520 0.26781 0.94272 -0.63800
O 	O 	0.67935 0.21497 0.99064 -0.34600
O 	O 	0.74465 0.28134 0.95242 -0.41400
O 	O 	0.63788 0.33200 0.07434 -0.35800
O 	O 	0.71842 0.45248 0.95936 -0.36200
C 	C 	0.71699 0.48695 0.98881 0.28600
C 	C 	0.52129 0.24999 0.99092 0.27800
O 	O 	0.55798 0.30920 0.98637 -0.37700
O 	O 	0.67834 0.46071 0.01418 -0.36500
O 	O 	0.66668 0.26822 0.05291 -0.30400
C 	C 	0.73180 0.24080 0.97577 0.30100
O 	O 	0.66259 0.36548 0.89291 -0.35600
O 	O 	0.63478 0.26727 0.86677 -0.34000
H 	H 	0.73781 0.38525 0.01393 0.20800
H 	H 	0.57974 0.24230 0.92941 0.20800
Cu	Cu	0.72852 0.30854 0.44759 0.93200
Cu	Cu	0.73105 0.27243 0.53516 0.88300
Cu	Cu	0.62209 0.26801 0.49543 0.91000
Cu	Cu	0.60089 0.28961 0.41255 0.91400
C 	C 	0.69444 0.29815 0.36474 0.30700
O 	O 	0.76220 0.39901 0.44478 -0.31500
C 	C 	0.66478 0.30022 0.58231 0.30800
O 	O 	0.62788 0.25047 0.44190 -0.63400
O 	O 	0.71774 0.32016 0.50258 -0.63700
O 	O 	0.77907 0.27421 0.45444 -0.35100
O 	O 	0.71678 0.20999 0.49469 -0.42400
O 	O 	0.63672 0.28342 0.36554 -0.31900
O 	O 	0.52933 0.21308 0.48456 -0.35000
C 	C 	0.49375 0.21395 0.45534 0.29000
C 	C 	0.72696 0.41886 0.44923 0.30200
O 	O 	0.66735 0.37906 0.45322 -0.35500
O 	O 	0.51980 0.25660 0.43254 -0.36100
O 	O 	0.72306 0.28687 0.39237 -0.33900
C 	C 	0.75865 0.22516 0.47168 0.28600
O 	O 	0.61646 0.27102 0.55194 -0.32800
O 	O 	0.72084 0.31358 0.57844 -0.37800
H 	H 	0.60522 0.20483 0.43137 0.17800
H 	H 	0.73925 0.36479 0.51523 0.20000
C 	C 	0.57277 0.28327 0.75474 0.03800
C 	C 	0.62833 0.32948 0.74183 0.08800
C 	C 	0.68090 0.38210 0.76946 -0.10600
C 	C 	0.68178 0.38056 0.80983 0.07800
C 	C 	0.62969 0.32929 0.82256 0.00100
C 	C 	0.57232 0.28372 0.79517 -0.06600
C 	C 	0.63397 0.31844 0.70031 0.09400
C 	C 	0.73711 0.43819 0.75594 0.78800
H 	H 	0.72443 0.41706 0.83121 0.08000
C 	C 	0.51186 0.23338 0.80862 0.77800
H 	H 	0.53132 0.24488 0.73332 0.10500
C 	C 	0.65637 0.28290 0.68851 -0.11300
C 	C 	0.66493 0.27687 0.64950 0.07800
C 	C 	0.65217 0.30588 0.62239 -0.00700
C 	C 	0.62874 0.34053 0.63401 -0.06300
C 	C 	0.61722 0.34397 0.67257 0.03100
C 	C 	0.66832 0.24897 0.71692 0.78900
H 	H 	0.68146 0.24936 0.63997 0.06900
C 	C 	0.61460 0.37256 0.60529 0.77600
H 	H 	0.59676 0.36796 0.68145 0.11300
F 	F 	0.51373 0.18332 0.81399 -0.42300
F 	F 	0.45796 0.21083 0.78092 -0.42900
F 	F 	0.50612 0.25786 0.84357 -0.45100
F 	F 	0.71525 0.46105 0.73006 -0.42600
F 	F 	0.76969 0.41976 0.73734 -0.40800
F 	F 	0.77979 0.48732 0.78720 -0.43000
F 	F 	0.55995 0.32709 0.57781 -0.44400
F 	F 	0.66549 0.40720 0.58623 -0.44100
F 	F 	0.60474 0.41386 0.62428 -0.42000
F 	F 	0.69292 0.21963 0.70031 -0.43400
F 	F 	0.61132 0.20299 0.72746 -0.43200
F 	F 	0.71179 0.29157 0.75034 -0.41800
C 	C 	0.75309 0.32276 0.18160 0.02800
C 	C 	0.70306 0.29727 0.20289 0.09700
C 	C 	0.63997 0.27093 0.18362 -0.11500
C 	C 	0.62885 0.27207 0.14347 0.07600
C 	C 	0.67912 0.29899 0.12243 -0.00500
C 	C 	0.74184 0.32390 0.14136 -0.07200
C 	C 	0.71853 0.30517 0.24622 0.08700
C 	C 	0.58564 0.24694 0.20648 0.78900
H 	H 	0.58117 0.25346 0.12860 0.07900
C 	C 	0.79663 0.35160 0.11879 0.77700
H 	H 	0.80111 0.34310 0.19676 0.11700
C 	C 	0.71588 0.25774 0.26376 -0.10400
C 	C 	0.71264 0.25819 0.30397 0.08000
C 	C 	0.71665 0.30748 0.32690 0.00600
C 	C 	0.73183 0.36075 0.31074 -0.07100
C 	C 	0.73068 0.35821 0.27011 0.03800
C 	C 	0.71517 0.20628 0.23959 0.78900
H 	H 	0.70373 0.21877 0.31700 0.08300
C 	C 	0.74695 0.41919 0.33648 0.77700
H 	H 	0.73597 0.39594 0.25666 0.10300
F 	F 	0.78549 0.30427 0.09031 -0.43700
F 	F 	0.85486 0.37830 0.14316 -0.42600
F 	F 	0.80148 0.39841 0.10094 -0.45800
F 	F 	0.59515 0.29771 0.23038 -0.43600
F 	F 	0.58302 0.20596 0.22947 -0.41200
F 	F 	0.52671 0.21445 0.18159 -0.43400
F 	F 	0.77481 0.47051 0.31756 -0.43600
F 	F 	0.78947 0.43562 0.37054 -0.45100
F 	F 	0.69114 0.40699 0.34607 -0.45500
F 	F 	0.71857 0.16831 0.26284 -0.43400
F 	F 	0.76727 0.23358 0.22093 -0.43300
F 	F 	0.65943 0.16821 0.21159 -0.40500
C 	C 	0.88770 0.80762 0.45053 0.02300
C 	C 	0.83474 0.76090 0.42141 -0.04000
C 	C 	0.80692 0.69677 0.42066 -0.01800
C 	C 	0.83076 0.67821 0.44999 -0.00300
C 	C 	0.88619 0.72575 0.47824 0.04200
C 	C 	0.91235 0.78982 0.47944 -0.06300
C 	C 	0.91706 0.70909 0.50347 -0.04100
C 	C 	0.89454 0.64606 0.50033 -0.02200
C 	C 	0.83802 0.59794 0.47394 0.02200
C 	C 	0.80348 0.61332 0.45020 0.02700
C 	C 	0.74130 0.56380 0.42921 -0.03300
C 	C 	0.71737 0.50067 0.42842 0.03400
C 	C 	0.75387 0.48564 0.44937 -0.03100
C 	C 	0.81407 0.53424 0.47221 0.00200
H 	H 	0.81687 0.77439 0.39820 0.05500
H 	H 	0.77007 0.66248 0.39580 0.05700
H 	H 	0.95382 0.82609 0.50173 0.05800
H 	H 	0.95993 0.74540 0.52480 0.05900
H 	H 	0.92041 0.63446 0.51914 0.06000
H 	H 	0.70990 0.57362 0.41545 0.06400
H 	H 	0.66977 0.46322 0.41190 0.07300
H 	H 	0.84122 0.52249 0.48960 0.06100
C 	C 	0.89401 0.00026 0.44850 0.02500
C 	C 	0.86814 0.00227 0.48156 -0.04000
C 	C 	0.84385 0.03721 0.48533 -0.02100
C 	C 	0.84806 0.07344 0.45677 -0.00800
C 	C 	0.86839 0.06632 0.42166 0.04000
C 	C 	0.89242 0.03078 0.41807 -0.06500
C 	C 	0.86354 0.09388 0.39033 -0.04200
C 	C 	0.83888 0.12850 0.39350 -0.02600
C 	C 	0.82227 0.13946 0.42888 0.01400
C 	C 	0.82975 0.11459 0.46153 0.02000
C 	C 	0.82250 0.13440 0.49846 -0.05000
C 	C 	0.80002 0.17096 0.50158 0.01300
C 	C 	0.78715 0.19090 0.46848 -0.06900
C 	C 	0.79975 0.17646 0.43236 -0.00700
H 	H 	0.86700 0.97681 0.50448 0.05100
H 	H 	0.81953 0.03366 0.50949 0.04800
H 	H 	0.91024 0.02718 0.39181 0.05900
H 	H 	0.87796 0.08761 0.36315 0.06000
H 	H 	0.83402 0.14806 0.36861 0.06800
H 	H 	0.83707 0.12443 0.52508 0.05500
H 	H 	0.79350 0.18469 0.53001 0.03000
H 	H 	0.79155 0.19341 0.40700 0.06500
C 	C 	0.09142 0.01356 0.44446 0.02600
C 	C 	0.11325 0.00673 0.41055 -0.04200
C 	C 	0.17856 0.03686 0.41155 -0.02100
C 	C 	0.22361 0.07686 0.44640 -0.00700
C 	C 	0.20091 0.08056 0.48121 0.04000
C 	C 	0.13517 0.05047 0.47970 -0.06700
C 	C 	0.24364 0.11170 0.51739 -0.04200
C 	C 	0.30846 0.13863 0.51953 -0.02600
C 	C 	0.33255 0.13865 0.48521 0.02000
C 	C 	0.29077 0.11047 0.44806 0.01700
C 	C 	0.31743 0.11990 0.41364 -0.04300
C 	C 	0.38318 0.15089 0.41627 0.00800
C 	C 	0.42394 0.17559 0.45305 -0.05200
C 	C 	0.39855 0.16924 0.48748 -0.01100
H 	H 	0.07924 0.97603 0.38368 0.05100
H 	H 	0.19313 0.02561 0.38605 0.04800
H 	H 	0.11778 0.05381 0.50622 0.05900
H 	H 	0.22632 0.11376 0.54415 0.06000
H 	H 	0.34039 0.16097 0.54794 0.06800
H 	H 	0.28847 0.10703 0.38505 0.05600
H 	H 	0.40278 0.15743 0.38957 0.04900
H 	H 	0.43042 0.19041 0.51594 0.08300
C 	C 	0.91448 0.88404 0.99976 -0.00500
C 	C 	0.87394 0.84240 0.96460 -0.03200
C 	C 	0.83885 0.77697 0.96232 -0.02500
C 	C 	0.84602 0.75236 0.99504 -0.00900
C 	C 	0.88201 0.79435 0.03154 0.04000
C 	C 	0.91737 0.86005 0.03342 -0.04900
C 	C 	0.88118 0.77022 0.06583 -0.04200
C 	C 	0.84524 0.70496 0.06428 -0.02800
C 	C 	0.81292 0.66282 0.02807 0.02000
C 	C 	0.81571 0.68642 0.99282 0.01300
C 	C 	0.79203 0.64440 0.95641 -0.04400
C 	C 	0.75978 0.57951 0.95524 0.01400
C 	C 	0.75257 0.55563 0.99020 -0.06400
C 	C 	0.77975 0.59741 0.02655 -0.00500
H 	H 	0.86955 0.86081 0.93896 0.05100
H 	H 	0.80425 0.74594 0.93584 0.05100
H 	H 	0.94712 0.89247 0.06096 0.05300
H 	H 	0.90760 0.80210 0.09394 0.05500
H 	H 	0.84389 0.68717 0.09125 0.05500
H 	H 	0.80119 0.66183 0.92915 0.06200
H 	H 	0.74061 0.54776 0.92704 0.06300
H 	H 	0.77623 0.57916 0.05358 0.05400
C 	C 	0.93914 0.08552 0.99943 -0.00400
C 	C 	0.93977 0.11256 0.96661 -0.03200
C 	C 	0.90849 0.14076 0.96317 -0.02500
C 	C 	0.87784 0.14449 0.99350 -0.00700
C 	C 	0.87441 0.11414 0.02564 0.04200
C 	C 	0.90675 0.08662 0.02899 -0.04700
C 	C 	0.83621 0.10886 0.05299 -0.03600
C 	C 	0.79979 0.13148 0.04812 -0.02300
C 	C 	0.80400 0.16336 0.01724 0.02900
C 	C 	0.84630 0.17374 0.99118 0.01300
C 	C 	0.85785 0.21492 0.96465 -0.04200
C 	C 	0.82089 0.23701 0.95999 0.01200
C 	C 	0.77395 0.22107 0.98295 -0.06000
C 	C 	0.76712 0.18598 0.01247 0.00800
H 	H 	0.96264 0.10969 0.94299 0.05000
H 	H 	0.90491 0.15585 0.93590 0.04900
H 	H 	0.90520 0.06447 0.05398 0.05600
H 	H 	0.83314 0.08534 0.07746 0.06300
H 	H 	0.76873 0.12481 0.06875 0.07600
H 	H 	0.89709 0.23235 0.94896 0.05700
H 	H 	0.82906 0.26684 0.93852 0.05000
H 	H 	0.73343 0.17647 0.03175 0.08800
C 	C 	0.45235 0.21815 0.98994 -0.06300
C 	C 	0.41853 0.23142 0.96440 0.01100
C 	C 	0.35489 0.20649 0.96605 -0.04000
C 	C 	0.32300 0.16545 0.99245 0.01100
C 	C 	0.35845 0.15502 0.01967 0.02500
C 	C 	0.42207 0.17964 0.01736 -0.00700
C 	C 	0.33109 0.12276 0.05006 -0.02800
C 	C 	0.26936 0.10145 0.05412 -0.03800
C 	C 	0.23215 0.10816 0.02635 0.03900
C 	C 	0.25750 0.13752 0.99410 -0.00700
C 	C 	0.21592 0.13483 0.96336 -0.02600
C 	C 	0.15259 0.10903 0.96662 -0.03200
C 	C 	0.12883 0.08324 0.99961 -0.00500
C 	C 	0.16873 0.08320 0.02951 -0.04800
H 	H 	0.44216 0.26262 0.94390 0.06500
H 	H 	0.33232 0.22245 0.94857 0.05800
H 	H 	0.44890 0.17116 0.03805 0.06600
H 	H 	0.35838 0.11552 0.07127 0.06900
H 	H 	0.24979 0.07818 0.07848 0.05900
H 	H 	0.23078 0.14867 0.93595 0.05300
H 	H 	0.12118 0.10684 0.94268 0.04900
H 	H 	0.14976 0.06190 0.05461 0.05400
