data_crystal

_cell_length_a 30.85517
_cell_length_b 31.01069
_cell_length_c 31.74340
_cell_angle_alpha 95.49534
_cell_angle_beta  95.48073
_cell_angle_gamma 125.53452

_symmetry_space_group_name_	'P 1'
_symmetry_space_group_name_H-M	'P 1'

loop_
_symmetry_equiv_pos_as_xyz
  x,y,z

loop_
_atom_site_label
_atom_site_type_symbol
_atom_site_fract_x
_atom_site_fract_y
_atom_site_fract_z
_atom_site_charge
C 	C 	0.03266 0.05866 0.98629 -0.08300
C 	C 	0.05520 0.03075 0.98011 0.04500
C 	C 	0.02353 0.97500 0.97876 -0.08200
H 	H 	0.05730 0.10191 0.98758 0.05200
H 	H 	0.04117 0.95352 0.97432 0.05200
C 	C 	0.00152 0.95501 0.46117 -0.07400
C 	C 	0.03129 0.00907 0.45636 0.03100
C 	C 	0.00527 0.03376 0.45175 -0.07400
H 	H 	0.02165 0.93591 0.46478 0.05000
H 	H 	0.02826 0.07557 0.44791 0.05000
C 	C 	0.08992 0.03998 0.45660 -0.00400
C 	C 	0.10878 0.02455 0.42419 -0.03600
C 	C 	0.16443 0.05257 0.42532 -0.04200
C 	C 	0.12715 0.08392 0.48995 -0.03600
H 	H 	0.08031 0.99079 0.39824 0.03800
H 	H 	0.11295 0.09597 0.51520 0.03700
C 	C 	0.15810 0.08219 0.97294 -0.01300
C 	C 	0.11122 0.05936 0.97606 -0.03200
C 	C 	0.18282 0.11193 0.49108 -0.04200
H 	H 	0.17863 0.04040 0.40014 0.04000
C 	C 	0.20167 0.09623 0.45886 0.00700
H 	H 	0.19642 0.07375 0.90242 0.04000
H 	H 	0.21128 0.14555 0.51713 0.03900
C 	C 	0.21408 0.10835 0.96973 0.01100
C 	C 	0.97827 0.03072 0.99106 0.03600
C 	C 	0.96924 0.94691 0.98355 0.03500
C 	C 	0.94663 0.97480 0.98964 -0.08100
H 	H 	0.90450 0.95304 0.99296 0.04900
C 	C 	0.94957 0.00453 0.45204 0.02900
C 	C 	0.91982 0.95029 0.45672 -0.07500
C 	C 	0.94584 0.92555 0.46146 0.03000
H 	H 	0.87682 0.92768 0.45717 0.04900
Cu	Cu	0.64957 0.25646 0.99917 0.92500
Cu	Cu	0.69876 0.25914 0.91136 0.87000
Cu	Cu	0.68356 0.34212 0.94302 0.89500
Cu	Cu	0.64572 0.35452 0.02396 0.89600
C 	C 	0.65800 0.29568 0.08775 0.30200
O 	O 	0.56947 0.22262 0.99418 -0.36600
C 	C 	0.67278 0.30571 0.85007 0.30500
O 	O 	0.69203 0.34014 0.00319 -0.63700
O 	O 	0.64676 0.26278 0.93764 -0.64200
O 	O 	0.68450 0.21889 0.00022 -0.36600
O 	O 	0.74702 0.27466 0.96199 -0.44500
O 	O 	0.63369 0.31687 0.07412 -0.38400
O 	O 	0.72302 0.41967 0.95267 -0.38200
C 	C 	0.71603 0.44798 0.98121 0.29900
C 	C 	0.54807 0.24460 0.97678 0.28200
O 	O 	0.57980 0.29495 0.97174 -0.39400
O 	O 	0.67706 0.42462 0.00401 -0.38700
O 	O 	0.66331 0.26459 0.06068 -0.35800
C 	C 	0.73130 0.23993 0.98799 0.30600
O 	O 	0.68807 0.34565 0.88159 -0.38700
O 	O 	0.66792 0.26227 0.85781 -0.42200
H 	H 	0.73005 0.36384 0.01890 0.16500
H 	H 	0.60996 0.24049 0.91970 0.17200
Cu	Cu	0.72722 0.33670 0.44124 0.92800
Cu	Cu	0.73061 0.29431 0.53159 0.87100
Cu	Cu	0.64259 0.30262 0.49904 0.89700
Cu	Cu	0.62439 0.33384 0.41605 0.89400
C 	C 	0.68217 0.31975 0.35243 0.28600
O 	O 	0.75735 0.41526 0.44339 -0.36300
C 	C 	0.68334 0.32020 0.59237 0.28700
O 	O 	0.64297 0.29157 0.43872 -0.64000
O 	O 	0.72264 0.34223 0.50309 -0.64100
O 	O 	0.76755 0.30452 0.44149 -0.37500
O 	O 	0.71476 0.24429 0.48240 -0.44400
O 	O 	0.66026 0.34373 0.36499 -0.38300
O 	O 	0.56436 0.26042 0.49072 -0.38300
C 	C 	0.53367 0.26422 0.46168 0.30800
C 	C 	0.73388 0.43509 0.46051 0.30200
O 	O 	0.68382 0.40251 0.46634 -0.39300
O 	O 	0.55474 0.30157 0.43744 -0.39600
O 	O 	0.71755 0.32005 0.37975 -0.35900
C 	C 	0.74837 0.25914 0.45534 0.30900
O 	O 	0.64154 0.30128 0.56112 -0.38600
O 	O 	0.72781 0.32691 0.58428 -0.42000
H 	H 	0.62022 0.25323 0.42428 0.16300
H 	H 	0.74411 0.37945 0.51984 0.17200
C 	C 	0.67047 0.32648 0.72515 0.01100
C 	C 	0.71945 0.36513 0.71303 -0.05800
C 	C 	0.72289 0.36527 0.66943 0.00900
C 	C 	0.67026 0.31365 0.80636 -0.10700
C 	C 	0.62736 0.29021 0.64984 0.00900
C 	C 	0.62406 0.29005 0.69349 -0.05700
C 	C 	0.66962 0.31984 0.76943 0.03700
C 	C 	0.67730 0.32661 0.63761 -0.08600
H 	H 	0.75539 0.39376 0.73734 0.04400
H 	H 	0.76139 0.39428 0.66043 0.03000
H 	H 	0.59174 0.26040 0.62566 0.03700
H 	H 	0.58594 0.26026 0.70263 0.04400
C 	C 	0.67122 0.29248 0.21627 0.01500
C 	C 	0.62410 0.27084 0.23372 -0.05700
C 	C 	0.62742 0.27735 0.27836 0.01000
C 	C 	0.66466 0.29405 0.13279 -0.09700
C 	C 	0.72482 0.32455 0.28836 0.01500
C 	C 	0.72146 0.31828 0.24363 -0.05700
C 	C 	0.66853 0.29306 0.17079 0.03700
C 	C 	0.67793 0.30540 0.30591 -0.08100
H 	H 	0.58508 0.25055 0.21275 0.04700
H 	H 	0.59093 0.26192 0.29154 0.02200
H 	H 	0.76406 0.34625 0.30929 0.04100
H 	H 	0.75806 0.33495 0.23036 0.04700
C 	C 	0.91496 0.86873 0.46666 -0.00400
C 	C 	0.92789 0.85556 0.50463 -0.03600
C 	C 	0.90373 0.80164 0.50753 -0.04200
C 	C 	0.86638 0.76043 0.47251 0.00700
C 	C 	0.85192 0.77348 0.43513 -0.04200
C 	C 	0.87612 0.82743 0.43222 -0.03600
C 	C 	0.84431 0.70392 0.47419 0.00900
C 	C 	0.78848 0.66521 0.47182 -0.04400
C 	C 	0.76730 0.61118 0.47140 -0.03100
C 	C 	0.80178 0.59552 0.47334 -0.01000
C 	C 	0.85766 0.63425 0.47642 -0.03100
C 	C 	0.87890 0.68830 0.47687 -0.04400
C 	C 	0.77936 0.53933 0.46984 0.04500
C 	C 	0.75943 0.49194 0.46609 -0.11100
H 	H 	0.95758 0.88717 0.53149 0.03700
H 	H 	0.91471 0.79191 0.53668 0.03900
H 	H 	0.82299 0.74192 0.40797 0.04000
H 	H 	0.86591 0.83720 0.40278 0.03700
H 	H 	0.76150 0.67691 0.46995 0.04000
H 	H 	0.72404 0.58143 0.46901 0.03800
H 	H 	0.88454 0.62241 0.47787 0.03800
H 	H 	0.92206 0.71789 0.47864 0.04000
C 	C 	0.92277 0.03119 0.44839 -0.00300
C 	C 	0.93805 0.07435 0.48056 -0.03700
C 	C 	0.91496 0.10169 0.47605 -0.04200
C 	C 	0.87641 0.08618 0.43929 0.00600
C 	C 	0.86058 0.04256 0.40734 -0.04200
C 	C 	0.88367 0.01515 0.41189 -0.03600
C 	C 	0.85238 0.11540 0.43450 0.00900
C 	C 	0.79674 0.08877 0.43371 -0.04500
C 	C 	0.77492 0.11765 0.43338 -0.03100
C 	C 	0.80855 0.17328 0.43382 -0.01200
C 	C 	0.86374 0.19957 0.43302 -0.03100
C 	C 	0.88560 0.17073 0.43327 -0.04500
C 	C 	0.78759 0.20415 0.43956 0.04700
C 	C 	0.76986 0.22960 0.44586 -0.12100
H 	H 	0.96804 0.08687 0.50893 0.03700
H 	H 	0.92701 0.13494 0.50109 0.03800
H 	H 	0.83079 0.03023 0.37889 0.03900
H 	H 	0.87174 0.98198 0.38683 0.03800
H 	H 	0.77073 0.04607 0.43455 0.03900
H 	H 	0.73220 0.09704 0.43399 0.03600
H 	H 	0.88998 0.24256 0.43330 0.03700
H 	H 	0.92851 0.19155 0.43344 0.04000
C 	C 	0.26038 0.12556 0.46019 0.00900
C 	C 	0.29237 0.18016 0.45665 -0.04400
C 	C 	0.34795 0.20785 0.45756 -0.03100
C 	C 	0.37189 0.18115 0.46199 -0.00900
C 	C 	0.34007 0.12667 0.46567 -0.03100
C 	C 	0.28446 0.09893 0.46480 -0.04400
C 	C 	0.42896 0.20957 0.46221 0.04600
C 	C 	0.47678 0.23407 0.46213 -0.10900
H 	H 	0.27412 0.20100 0.45295 0.04000
H 	H 	0.37234 0.24997 0.45466 0.03900
H 	H 	0.35834 0.10580 0.46912 0.03700
H 	H 	0.26012 0.05683 0.46773 0.04000
C 	C 	0.93625 0.88829 0.98253 -0.01200
C 	C 	0.91735 0.86768 0.01953 -0.02800
C 	C 	0.88878 0.81243 0.01933 -0.03500
C 	C 	0.87887 0.77736 0.98212 -0.00000
C 	C 	0.89697 0.79786 0.94490 -0.04200
C 	C 	0.92554 0.85310 0.94510 -0.03500
C 	C 	0.85049 0.71938 0.98237 0.01000
C 	C 	0.87732 0.69568 0.97652 -0.04500
C 	C 	0.85034 0.64065 0.97658 -0.03100
C 	C 	0.79645 0.60902 0.98255 -0.00900
C 	C 	0.76963 0.63262 0.98853 -0.03100
C 	C 	0.79654 0.68764 0.98844 -0.04600
C 	C 	0.76850 0.55226 0.98218 0.04300
C 	C 	0.74478 0.50468 0.98178 -0.10700
H 	H 	0.92554 0.89458 0.04860 0.03800
H 	H 	0.87498 0.79696 0.04822 0.04000
H 	H 	0.88913 0.77102 0.91592 0.03900
H 	H 	0.93973 0.86863 0.91632 0.03700
H 	H 	0.91905 0.71991 0.97201 0.03900
H 	H 	0.87132 0.62265 0.97196 0.03700
H 	H 	0.72793 0.60837 0.99312 0.03700
H 	H 	0.77546 0.70554 0.99288 0.03900
C 	C 	0.95417 0.05984 0.99695 -0.01700
C 	C 	0.95022 0.08576 0.96452 -0.02800
C 	C 	0.92490 0.11099 0.96911 -0.05600
C 	C 	0.90327 0.11049 0.00617 0.01900
C 	C 	0.90793 0.08528 0.03890 -0.05000
C 	C 	0.93333 0.06011 0.03434 -0.02200
C 	C 	0.87416 0.13475 0.00996 0.00600
C 	C 	0.81832 0.10198 0.01025 -0.04300
C 	C 	0.78975 0.12418 0.00993 -0.02800
C 	C 	0.81681 0.17924 0.00939 -0.01600
C 	C 	0.87289 0.21236 0.01057 -0.02900
C 	C 	0.90150 0.19021 0.01087 -0.04400
C 	C 	0.78639 0.20069 0.00351 0.06000
C 	C 	0.76108 0.21861 0.99724 -0.13500
H 	H 	0.96600 0.08562 0.93549 0.03500
H 	H 	0.92133 0.13020 0.94361 0.04000
H 	H 	0.89159 0.08492 0.06771 0.04200
H 	H 	0.93647 0.04047 0.05966 0.03600
H 	H 	0.79686 0.05913 0.00960 0.04100
H 	H 	0.74640 0.09832 0.00901 0.03800
H 	H 	0.89409 0.25498 0.01019 0.03700
H 	H 	0.94468 0.21592 0.01100 0.04100
C 	C 	0.48867 0.21574 0.96922 -0.08900
C 	C 	0.45641 0.17327 0.99086 0.00700
C 	C 	0.40158 0.15098 0.98852 -0.07500
C 	C 	0.37835 0.17070 0.96445 0.03000
C 	C 	0.40973 0.21120 0.94109 -0.06900
C 	C 	0.46462 0.23357 0.94337 0.01100
C 	C 	0.32212 0.15105 0.96571 -0.01200
C 	C 	0.28158 0.11998 0.92880 -0.03300
C 	C 	0.22767 0.09862 0.93083 -0.04500
C 	C 	0.25474 0.14053 0.00631 -0.03900
C 	C 	0.30860 0.16184 0.00432 -0.02700
H 	H 	0.47415 0.15872 0.01064 0.04500
H 	H 	0.37742 0.11920 0.00620 0.05300
H 	H 	0.39193 0.22626 0.92204 0.04600
H 	H 	0.48866 0.26550 0.92578 0.03100
H 	H 	0.29167 0.11157 0.89882 0.03600
H 	H 	0.24453 0.14824 0.03647 0.04200
H 	H 	0.33972 0.18615 0.03289 0.03800
