data_crystal

_cell_length_a 35.11721
_cell_length_b 35.72803
_cell_length_c 26.54059
_cell_angle_alpha 95.54707
_cell_angle_beta  95.54482
_cell_angle_gamma 125.37110

_symmetry_space_group_name_	'P 1'
_symmetry_space_group_name_H-M	'P 1'

loop_
_symmetry_equiv_pos_as_xyz
  x,y,z

loop_
_atom_site_label
_atom_site_type_symbol
_atom_site_fract_x
_atom_site_fract_y
_atom_site_fract_z
_atom_site_charge
C 	C 	0.98153 0.02659 0.00082 0.11000
N 	N 	0.02763 0.05082 0.99505 -0.13100
C 	C 	0.04783 0.02826 0.98831 0.13300
N 	N 	0.00050 0.02142 0.42039 -0.14200
C 	C 	0.02309 0.00112 0.42570 0.13300
Cu	Cu	0.65648 0.26977 0.99549 0.92900
Cu	Cu	0.69731 0.26767 0.88961 0.87000
Cu	Cu	0.68624 0.34218 0.92553 0.89800
Cu	Cu	0.65279 0.35536 0.02144 0.88700
C 	C 	0.66788 0.30929 0.10013 0.28000
O 	O 	0.58626 0.24072 0.98998 -0.36000
C 	C 	0.67565 0.30773 0.81503 0.28200
O 	O 	0.69339 0.34210 0.99788 -0.62700
O 	O 	0.65326 0.27337 0.92129 -0.64000
O 	O 	0.68703 0.23702 0.99833 -0.36900
O 	O 	0.74061 0.28269 0.95008 -0.44000
O 	O 	0.64428 0.32531 0.08307 -0.38600
O 	O 	0.72095 0.40942 0.93540 -0.38000
C 	C 	0.71432 0.43436 0.96841 0.30800
C 	C 	0.56728 0.25905 0.96775 0.30200
O 	O 	0.59466 0.30211 0.96020 -0.38900
O 	O 	0.67922 0.41445 0.99440 -0.39100
O 	O 	0.66932 0.27888 0.06935 -0.36300
C 	C 	0.72746 0.25397 0.98268 0.30300
O 	O 	0.69128 0.34369 0.85208 -0.38400
O 	O 	0.66939 0.26942 0.82547 -0.41800
H 	H 	0.72672 0.36290 0.01672 0.15100
H 	H 	0.62075 0.25407 0.90032 0.17300
Cu	Cu	0.72646 0.33595 0.42416 0.92800
Cu	Cu	0.72658 0.29393 0.52910 0.87100
Cu	Cu	0.65097 0.30446 0.49181 0.89800
Cu	Cu	0.63921 0.33880 0.39674 0.89400
C 	C 	0.69185 0.33103 0.31909 0.28100
O 	O 	0.75551 0.40511 0.43124 -0.36300
C 	C 	0.68430 0.31418 0.60257 0.28200
O 	O 	0.65270 0.29880 0.41974 -0.64000
O 	O 	0.72121 0.33764 0.49787 -0.64000
O 	O 	0.75976 0.30574 0.42136 -0.37300
O 	O 	0.71202 0.25222 0.46819 -0.44400
O 	O 	0.67287 0.35134 0.33699 -0.38300
O 	O 	0.58247 0.26953 0.48034 -0.38200
C 	C 	0.55718 0.27546 0.44644 0.30700
C 	C 	0.73570 0.42282 0.45280 0.30100
O 	O 	0.69175 0.39493 0.45967 -0.39300
O 	O 	0.57749 0.31046 0.42112 -0.39500
O 	O 	0.71855 0.32475 0.35043 -0.35700
C 	C 	0.74193 0.26559 0.43633 0.30800
O 	O 	0.64806 0.29838 0.56485 -0.38500
O 	O 	0.72353 0.32032 0.59315 -0.41800
H 	H 	0.63209 0.26628 0.40017 0.16300
H 	H 	0.74025 0.36930 0.51945 0.17300
C 	C 	0.71177 0.35322 0.74646 -0.01300
C 	C 	0.67327 0.31361 0.76100 -0.06900
C 	C 	0.63541 0.27706 0.72293 -0.01200
C 	C 	0.63740 0.27882 0.67077 -0.01300
C 	C 	0.67761 0.31683 0.65630 -0.06900
C 	C 	0.71409 0.35466 0.69431 -0.01200
H 	H 	0.74104 0.38181 0.77552 0.03900
H 	H 	0.60523 0.24659 0.73374 0.03500
H 	H 	0.60885 0.24956 0.64172 0.03900
H 	H 	0.74500 0.38445 0.68353 0.03500
C 	C 	0.67012 0.27843 0.18007 -0.00700
C 	C 	0.68218 0.31642 0.15619 -0.06700
C 	C 	0.70313 0.36043 0.18664 -0.01300
C 	C 	0.70889 0.36577 0.24023 -0.01000
C 	C 	0.69384 0.32717 0.26397 -0.06200
C 	C 	0.67602 0.28385 0.23387 -0.01400
H 	H 	0.65421 0.24432 0.15700 0.04500
H 	H 	0.71344 0.39018 0.16866 0.02600
H 	H 	0.72363 0.39961 0.26326 0.04100
H 	H 	0.66476 0.25394 0.25191 0.03600
C 	C 	0.75765 0.47192 0.45743 -0.11100
C 	C 	0.89042 0.06292 0.40904 0.01200
C 	C 	0.91496 0.10846 0.43714 -0.04000
C 	C 	0.89512 0.13282 0.43405 -0.03800
C 	C 	0.85057 0.11182 0.40271 0.00500
C 	C 	0.82614 0.06627 0.37434 -0.03800
C 	C 	0.84603 0.04191 0.37753 -0.04000
C 	C 	0.82873 0.13684 0.40130 0.01000
C 	C 	0.85198 0.18002 0.38499 -0.04500
C 	C 	0.83344 0.20570 0.38815 -0.03000
C 	C 	0.79154 0.18833 0.40750 -0.01200
C 	C 	0.76747 0.14453 0.42218 -0.03100
C 	C 	0.78598 0.11888 0.41914 -0.04500
C 	C 	0.77519 0.21684 0.41622 0.04600
C 	C 	0.76031 0.23956 0.42418 -0.12100
C 	C 	0.91124 0.03812 0.41210 0.00600
C 	C 	0.92960 0.01829 0.41546 -0.04100
H 	H 	0.94934 0.12497 0.46148 0.04300
H 	H 	0.91410 0.16781 0.45639 0.03900
H 	H 	0.79176 0.04975 0.35000 0.03900
H 	H 	0.82693 0.00677 0.35556 0.04200
H 	H 	0.88479 0.19403 0.37075 0.04100
H 	H 	0.85219 0.23948 0.37661 0.03900
H 	H 	0.73502 0.13085 0.43713 0.03500
H 	H 	0.76777 0.08562 0.43185 0.04000
C 	C 	0.41418 0.20126 0.44094 -0.00900
C 	C 	0.39660 0.21972 0.47207 -0.03000
C 	C 	0.34762 0.19501 0.46995 -0.04400
C 	C 	0.31592 0.15165 0.43660 0.01100
C 	C 	0.33361 0.13321 0.40547 -0.04400
C 	C 	0.38261 0.15796 0.40766 -0.03100
C 	C 	0.26427 0.12546 0.43453 0.00500
C 	C 	0.24058 0.14423 0.41784 -0.03800
C 	C 	0.19159 0.11935 0.41593 -0.04000
C 	C 	0.16604 0.07560 0.43065 0.01300
C 	C 	0.18963 0.05680 0.44733 -0.04000
C 	C 	0.23859 0.08164 0.44929 -0.03800
C 	C 	0.11560 0.04989 0.42863 0.00600
C 	C 	0.07337 0.02791 0.42716 -0.03900
C 	C 	0.46459 0.22707 0.44269 0.04600
C 	C 	0.50686 0.24894 0.44442 -0.10800
H 	H 	0.42084 0.25320 0.49787 0.04000
H 	H 	0.33432 0.20943 0.49429 0.04200
H 	H 	0.30940 0.09983 0.37951 0.04100
H 	H 	0.39597 0.14352 0.38342 0.03700
H 	H 	0.26007 0.17796 0.40621 0.04000
H 	H 	0.17355 0.13407 0.40296 0.04300
H 	H 	0.17008 0.02300 0.45881 0.04300
H 	H 	0.25660 0.06695 0.46242 0.04000
C 	C 	0.80234 0.20130 0.01080 -0.01600
C 	C 	0.78715 0.16549 0.03921 -0.03200
C 	C 	0.81099 0.14499 0.04346 -0.04400
C 	C 	0.85012 0.16018 0.01921 -0.00000
C 	C 	0.86601 0.19689 0.99195 -0.03300
C 	C 	0.84220 0.21739 0.98781 -0.02300
C 	C 	0.87283 0.13603 0.01993 -0.00400
C 	C 	0.84664 0.08868 0.99695 -0.02800
C 	C 	0.86889 0.06656 0.99452 -0.02800
C 	C 	0.91744 0.09159 0.01498 0.00100
C 	C 	0.94351 0.13866 0.03872 -0.03900
C 	C 	0.92128 0.16083 0.04124 -0.03900
C 	C 	0.94068 0.06924 0.01041 0.00200
C 	C 	0.95961 0.05002 0.00628 -0.03900
C 	C 	0.77525 0.21940 0.00220 0.02500
C 	C 	0.75332 0.23523 0.99430 -0.09900
H 	H 	0.75641 0.15295 0.05717 0.03800
H 	H 	0.79865 0.11689 0.06489 0.03900
H 	H 	0.89611 0.20881 0.97302 0.04100
H 	H 	0.85415 0.24508 0.96581 0.03600
H 	H 	0.80928 0.06928 0.98019 0.04000
H 	H 	0.84851 0.03013 0.97621 0.04300
H 	H 	0.98103 0.15819 0.05476 0.04000
H 	H 	0.94176 0.19734 0.05923 0.03800
C 	C 	0.42463 0.19445 0.95234 -0.00900
C 	C 	0.39552 0.15116 0.96734 -0.02900
C 	C 	0.34768 0.13150 0.96765 -0.04400
C 	C 	0.32866 0.15505 0.95294 0.01400
C 	C 	0.35758 0.19787 0.93676 -0.04400
C 	C 	0.40544 0.21750 0.93645 -0.02900
C 	C 	0.27892 0.13555 0.95603 0.00200
C 	C 	0.24164 0.09246 0.92523 -0.03700
C 	C 	0.19466 0.07253 0.93055 -0.03800
C 	C 	0.18464 0.09552 0.96666 0.01000
C 	C 	0.22171 0.13907 0.99661 -0.02900
C 	C 	0.26874 0.15906 0.99132 -0.02700
C 	C 	0.13670 0.07306 0.97505 0.00900
C 	C 	0.09622 0.05340 0.98123 -0.03700
C 	C 	0.47487 0.21686 0.95711 0.04700
C 	C 	0.51693 0.23560 0.96112 -0.11000
H 	H 	0.41016 0.13320 0.97974 0.04100
H 	H 	0.32561 0.09841 0.98019 0.04300
H 	H 	0.34313 0.21614 0.92500 0.04300
H 	H 	0.42776 0.25099 0.92480 0.04000
H 	H 	0.24914 0.07419 0.89768 0.04000
H 	H 	0.16614 0.03887 0.90721 0.04400
H 	H 	0.21421 0.15704 0.02459 0.03200
H 	H 	0.29730 0.19234 0.01528 0.02900
C 	C 	0.73954 0.48337 0.96844 -0.10600
C 	C 	0.77484 0.51277 0.45953 0.04500
C 	C 	0.75979 0.52454 0.96906 0.04700
H 	H 	0.83691 0.56907 0.40277 0.03900
C 	C 	0.79570 0.56160 0.46155 -0.00900
H 	H 	0.75852 0.56510 0.52002 0.03900
C 	C 	0.78296 0.57358 0.96994 -0.00700
H 	H 	0.72034 0.56992 0.97832 0.04100
C 	C 	0.82651 0.58600 0.42807 -0.03100
C 	C 	0.78241 0.58378 0.49409 -0.03100
H 	H 	0.85092 0.58849 0.96203 0.04000
C 	C 	0.75756 0.59233 0.97548 -0.03000
C 	C 	0.95306 0.99623 0.41982 0.13400
N 	N 	0.02195 0.98159 0.98718 -0.13700
C 	C 	0.97592 0.95737 0.99284 0.13200
N 	N 	0.95565 0.97983 0.99959 -0.13000
N 	N 	0.99829 0.95566 0.43053 -0.14100
C 	C 	0.95089 0.93037 0.43002 0.13300
N 	N 	0.92818 0.95064 0.42472 -0.14000
C 	C 	0.79906 0.62985 0.49238 -0.04400
C 	C 	0.82909 0.65398 0.45804 0.01000
C 	C 	0.84318 0.63204 0.42632 -0.04400
C 	C 	0.84538 0.70200 0.45484 0.00500
C 	C 	0.87511 0.73850 0.49724 -0.03800
C 	C 	0.89326 0.78450 0.49298 -0.04000
C 	C 	0.88182 0.79430 0.44636 0.01300
C 	C 	0.85094 0.75772 0.40449 -0.04000
C 	C 	0.83274 0.71170 0.40870 -0.03800
C 	C 	0.90519 0.84211 0.44007 0.00500
C 	C 	0.92505 0.88230 0.43541 -0.03900
H 	H 	0.78809 0.64652 0.51714 0.04100
H 	H 	0.86673 0.65052 0.40005 0.04100
H 	H 	0.88497 0.73137 0.53305 0.04000
H 	H 	0.91713 0.81261 0.52551 0.04300
H 	H 	0.84189 0.76501 0.36835 0.04200
H 	H 	0.80944 0.68370 0.37592 0.03900
C 	C 	0.78022 0.64014 0.97765 -0.04100
C 	C 	0.82847 0.66951 0.97430 0.00800
C 	C 	0.85380 0.65062 0.96845 -0.04200
C 	C 	0.83107 0.60277 0.96627 -0.03000
C 	C 	0.85252 0.72001 0.97721 0.01700
C 	C 	0.85757 0.74761 0.02241 -0.05000
C 	C 	0.88111 0.79567 0.02545 -0.05200
C 	C 	0.89973 0.81638 0.98337 0.02600
C 	C 	0.89426 0.78880 0.93802 -0.04100
C 	C 	0.87072 0.74076 0.93492 -0.03900
C 	C 	0.92616 0.86617 0.98740 0.00400
C 	C 	0.94840 0.90781 0.99012 -0.03400
H 	H 	0.76034 0.65437 0.98193 0.04300
H 	H 	0.89109 0.67305 0.96595 0.04200
H 	H 	0.84365 0.73190 0.05527 0.03900
H 	H 	0.88528 0.81681 0.06066 0.04300
H 	H 	0.90859 0.80463 0.90535 0.04400
H 	H 	0.86673 0.71969 0.89976 0.04100
