data_crystal

_cell_length_a 17.67306
_cell_length_b 15.95122
_cell_length_c 37.52834
_cell_angle_alpha 90.96516
_cell_angle_beta  91.40746
_cell_angle_gamma 111.19657

_symmetry_space_group_name_	'P 1'
_symmetry_space_group_name_H-M	'P 1'

loop_
_symmetry_equiv_pos_as_xyz
  x,y,z

loop_
_atom_site_label
_atom_site_type_symbol
_atom_site_fract_x
_atom_site_fract_y
_atom_site_fract_z
_atom_site_charge
Ni	Ni	0.73819 0.33746 0.91435 1.10300
O 	O 	0.64216 0.26194 0.88206 -0.70000
Ni	Ni	0.54778 0.26120 0.91114 1.09800
O 	O 	0.82320 0.30108 0.88840 -0.36000
O 	O 	0.74614 0.15343 0.89321 -0.40400
O 	O 	0.76785 0.44333 0.87983 -0.36400
Ni	Ni	0.63333 0.13823 0.87082 1.07300
O 	O 	0.77818 0.53318 0.94282 -0.40000
O 	O 	0.57729 0.05978 0.91256 -0.39200
O 	O 	0.45214 0.16777 0.88261 -0.37400
O 	O 	0.64458 0.34703 0.94069 -0.70200
O 	O 	0.82561 0.41699 0.94855 -0.37300
O 	O 	0.46713 0.29154 0.94311 -0.36200
O 	O 	0.52861 0.44187 0.93331 -0.40300
Ni	Ni	0.65337 0.47229 0.93910 1.06800
H 	H 	0.64112 0.29280 0.85950 0.16000
H 	H 	0.64585 0.32814 0.96562 0.16100
C 	C 	0.53333 0.08105 0.93636 0.30300
O 	O 	0.65212 0.47279 0.88507 -0.41700
C 	C 	0.81188 0.21623 0.88212 0.28000
C 	C 	0.45789 0.10346 0.86104 0.28700
C 	C 	0.71721 0.48031 0.86768 0.29100
C 	C 	0.47384 0.37565 0.94953 0.27500
C 	C 	0.83015 0.49921 0.95713 0.28500
O 	O 	0.55005 0.16528 0.94603 -0.39500
O 	O 	0.52605 0.11427 0.84472 -0.41700
Ni	Ni	0.60941 0.31140 0.52973 1.09800
O 	O 	0.70100 0.33537 0.49401 -0.69900
Ni	Ni	0.78321 0.30047 0.52243 1.09800
O 	O 	0.54863 0.38061 0.50335 -0.37300
O 	O 	0.66292 0.50334 0.49574 -0.40900
O 	O 	0.53203 0.20258 0.49980 -0.36800
Ni	Ni	0.75323 0.45933 0.47818 1.07000
O 	O 	0.51621 0.13392 0.56848 -0.39800
O 	O 	0.82790 0.52766 0.52050 -0.38900
O 	O 	0.88547 0.34682 0.49193 -0.37400
O 	O 	0.68546 0.26337 0.55497 -0.69900
O 	O 	0.52390 0.28063 0.56767 -0.37700
O 	O 	0.84176 0.23804 0.55442 -0.36300
O 	O 	0.73339 0.10595 0.54900 -0.40200
Ni	Ni	0.62991 0.13379 0.55878 1.07100
H 	H 	0.68221 0.29440 0.47287 0.15400
H 	H 	0.70011 0.29190 0.57906 0.15600
C 	C 	0.86648 0.49337 0.54305 0.28900
O 	O 	0.60610 0.11263 0.50569 -0.41000
C 	C 	0.58585 0.45720 0.48813 0.28100
C 	C 	0.90249 0.41659 0.47077 0.29300
C 	C 	0.54719 0.13085 0.49018 0.29800
C 	C 	0.80438 0.15416 0.56360 0.27500
C 	C 	0.50152 0.20225 0.58339 0.27500
O 	O 	0.82960 0.41221 0.55480 -0.39600
O 	O 	0.84359 0.43313 0.45355 -0.41200
Ni	Ni	0.00388 0.93040 0.75726 1.09900
O 	O 	0.00642 0.84178 0.71794 -0.70800
Ni	Ni	0.07905 0.92595 0.68379 1.10000
O 	O 	0.92957 0.82832 0.78679 -0.35600
O 	O 	0.83757 0.77542 0.74006 -0.39900
O 	O 	0.10367 0.91093 0.77871 -0.38200
Ni	Ni	0.90191 0.78138 0.69362 1.06800
O 	O 	0.07035 0.15722 0.76812 -0.39400
O 	O 	0.88474 0.89768 0.68038 -0.40200
O 	O 	0.08649 0.82955 0.64930 -0.36700
O 	O 	0.05924 0.01429 0.71901 -0.70100
O 	O 	0.01143 0.02292 0.79684 -0.36200
O 	O 	0.17088 0.02391 0.65927 -0.36100
O 	O 	0.23663 0.08381 0.71244 -0.40500
Ni	Ni	0.14902 0.11505 0.74044 1.07300
H 	H 	0.03020 0.79782 0.72629 0.16500
H 	H 	0.02029 0.03956 0.70897 0.16400
C 	C 	0.92883 0.95078 0.65626 0.28400
O 	O 	0.17402 0.06113 0.78601 -0.38500
C 	C 	0.86587 0.76453 0.77185 0.27200
C 	C 	0.01846 0.76250 0.63973 0.27000
C 	C 	0.17070 0.97799 0.78786 0.28800
C 	C 	0.23508 0.07920 0.67721 0.26900
C 	C 	0.01559 0.10533 0.78992 0.28700
O 	O 	0.99882 0.94640 0.64770 -0.36600
O 	O 	0.94696 0.76982 0.64474 -0.39700
Ni	Ni	0.23466 0.67160 0.40972 1.10100
O 	O 	0.33464 0.74258 0.38177 -0.70500
Ni	Ni	0.42406 0.73473 0.41315 1.10100
O 	O 	0.16000 0.69280 0.37146 -0.36000
O 	O 	0.22726 0.84526 0.37626 -0.39800
O 	O 	0.23597 0.56527 0.37902 -0.38300
Ni	Ni	0.35155 0.86836 0.37535 1.07000
O 	O 	0.19800 0.56209 0.48509 -0.41200
O 	O 	0.35846 0.89969 0.42866 -0.40700
O 	O 	0.51572 0.79300 0.37929 -0.36900
O 	O 	0.32552 0.68185 0.44469 -0.70300
O 	O 	0.13269 0.59083 0.43514 -0.36600
O 	O 	0.50022 0.69492 0.44507 -0.37400
O 	O 	0.40842 0.55102 0.44444 -0.41400
Ni	Ni	0.30365 0.56281 0.46431 1.06900
H 	H 	0.33513 0.71361 0.35828 0.16600
H 	H 	0.32611 0.72474 0.46416 0.15500
C 	C 	0.42212 0.90545 0.44865 0.29400
O 	O 	0.23562 0.47484 0.42537 -0.39800
C 	C 	0.17062 0.77423 0.36087 0.27400
C 	C 	0.51928 0.86577 0.36178 0.27300
C 	C 	0.24062 0.49062 0.39115 0.29400
C 	C 	0.48112 0.61012 0.45309 0.27500
C 	C 	0.13111 0.54774 0.46526 0.29800
O 	O 	0.46457 0.85461 0.44195 -0.37100
O 	O 	0.47612 0.91472 0.37200 -0.39600
Ni	Ni	0.35869 0.67834 0.01336 1.09600
O 	O 	0.25373 0.65836 0.98477 -0.69800
Ni	Ni	0.18974 0.69980 0.01974 1.09600
O 	O 	0.39380 0.59248 0.98220 -0.37200
O 	O 	0.27078 0.47870 0.98647 -0.40000
O 	O 	0.42311 0.78025 0.97999 -0.36400
Ni	Ni	0.18899 0.53657 0.96806 1.07700
O 	O 	0.47415 0.85741 0.04736 -0.40500
O 	O 	0.10747 0.47629 0.00691 -0.38600
O 	O 	0.07631 0.65620 0.99481 -0.37100
O 	O 	0.30064 0.73475 0.04567 -0.70100
O 	O 	0.46154 0.70933 0.04421 -0.38100
O 	O 	0.15039 0.76813 0.05783 -0.36000
O 	O 	0.25764 0.89677 0.04783 -0.40900
Ni	Ni	0.36082 0.86396 0.04778 1.07000
H 	H 	0.26460 0.69841 0.96414 0.16100
H 	H 	0.29657 0.70946 0.06977 0.16200
C 	C 	0.10331 0.50883 0.03907 0.29600
O 	O 	0.35600 0.87332 0.99417 -0.41100
C 	C 	0.34660 0.50793 0.97633 0.27600
C 	C 	0.05563 0.60763 0.96459 0.30300
C 	C 	0.40786 0.85406 0.97460 0.29900
C 	C 	0.19405 0.85286 0.06640 0.27000
C 	C 	0.49162 0.78952 0.06013 0.27800
O 	O 	0.15559 0.58766 0.05010 -0.39600
O 	O 	0.10925 0.58687 0.94595 -0.40800
Ni	Ni	0.96962 0.06415 0.25474 1.09600
O 	O 	0.97044 0.15441 0.21733 -0.71800
Ni	Ni	0.91494 0.07366 0.17628 1.09600
O 	O 	0.02919 0.16791 0.28974 -0.35900
O 	O 	0.13589 0.21709 0.25244 -0.40200
O 	O 	0.85821 0.05868 0.27330 -0.37000
Ni	Ni	0.08096 0.22205 0.20290 1.06900
O 	O 	0.87487 0.85165 0.27232 -0.41200
O 	O 	0.10990 0.11365 0.18689 -0.39700
O 	O 	0.91137 0.17475 0.14421 -0.36800
O 	O 	0.93146 0.98127 0.21096 -0.69000
O 	O 	0.97580 0.97840 0.29253 -0.36500
O 	O 	0.83422 0.98314 0.14121 -0.36000
O 	O 	0.79527 0.85047 0.16962 -0.39800
Ni	Ni	0.84031 0.87102 0.22180 1.07100
H 	H 	0.94123 0.19423 0.22450 0.16400
H 	H 	0.97663 0.96264 0.20392 0.15100
C 	C 	0.07446 0.06380 0.15869 0.28800
O 	O 	0.77268 0.94332 0.23761 -0.41700
C 	C 	0.10319 0.22275 0.28321 0.27400
C 	C 	0.97919 0.24609 0.14119 0.26700
C 	C 	0.78900 0.98916 0.26813 0.28500
C 	C 	0.77641 0.90960 0.15117 0.28300
C 	C 	0.94946 0.89251 0.28503 0.28300
O 	O 	0.00629 0.06627 0.14546 -0.36100
O 	O 	0.05023 0.24258 0.15169 -0.38700
C 	C 	0.98038 0.31890 0.11718 -0.06400
C 	C 	0.95817 0.29824 0.08104 -0.00900
C 	C 	0.99046 0.36322 0.05517 0.00500
C 	C 	0.04914 0.44841 0.06551 -0.05900
C 	C 	0.06084 0.47270 0.10198 -0.01400
C 	C 	0.02525 0.40891 0.12772 0.00500
H 	H 	0.91941 0.23041 0.07285 0.05300
H 	H 	0.10018 0.54002 0.11043 0.05600
C 	C 	0.03869 0.43507 0.16506 0.05400
C 	C 	0.95964 0.34358 0.01877 0.07400
N 	N 	0.04947 0.45599 0.19498 -0.13000
N 	N 	0.93483 0.32765 0.98963 -0.09600
C 	C 	0.56064 0.80958 0.08540 -0.07200
C 	C 	0.63102 0.79664 0.07461 -0.00600
C 	C 	0.70216 0.82955 0.09587 0.00500
C 	C 	0.70273 0.87520 0.12846 -0.06300
C 	C 	0.63152 0.88477 0.13997 -0.01900
C 	C 	0.56041 0.85206 0.11866 0.00300
H 	H 	0.63114 0.76375 0.04908 0.04500
H 	H 	0.63158 0.91789 0.16548 0.03500
C 	C 	0.48717 0.86162 0.13115 0.04500
C 	C 	0.77467 0.81730 0.08388 0.08700
N 	N 	0.42848 0.86925 0.14113 -0.13700
N 	N 	0.83276 0.80752 0.07430 -0.11100
C 	C 	0.16131 0.90508 0.09036 -0.05900
C 	C 	0.17071 0.99346 0.08150 -0.02400
C 	C 	0.15046 0.04925 0.10553 0.01400
C 	C 	0.11682 0.01578 0.13833 -0.06300
C 	C 	0.10715 0.92749 0.14730 -0.01100
C 	C 	0.13049 0.87251 0.12383 -0.00200
H 	H 	0.19468 0.01915 0.05591 0.05600
H 	H 	0.07864 0.90041 0.17195 0.03000
C 	C 	0.12374 0.78362 0.13458 0.07800
C 	C 	0.16260 0.14051 0.09596 0.08200
N 	N 	0.11833 0.71246 0.14325 -0.11600
N 	N 	0.17223 0.21356 0.08829 -0.10900
C 	C 	0.58914 0.90745 0.33865 -0.05900
C 	C 	0.66829 0.92503 0.35216 -0.00900
C 	C 	0.73503 0.95833 0.33005 0.00300
C 	C 	0.72280 0.97384 0.29375 -0.06400
C 	C 	0.64387 0.96078 0.28078 -0.01100
C 	C 	0.57718 0.92770 0.30298 -0.00300
H 	H 	0.67791 0.91171 0.37983 0.05500
H 	H 	0.63405 0.97369 0.25308 0.04300
C 	C 	0.49649 0.91180 0.28856 0.05800
C 	C 	0.81539 0.97401 0.34473 0.08900
N 	N 	0.43183 0.89904 0.27702 -0.13200
N 	N 	0.87955 0.98646 0.35677 -0.09300
C 	C 	0.22604 0.41460 0.36554 -0.06700
C 	C 	0.17609 0.32754 0.37479 -0.00900
C 	C 	0.14201 0.26077 0.34824 0.00600
C 	C 	0.15390 0.28291 0.31197 -0.06200
C 	C 	0.21206 0.36600 0.30320 -0.01500
C 	C 	0.25033 0.43061 0.32995 0.00600
H 	H 	0.16189 0.31243 0.40245 0.05300
H 	H 	0.22606 0.38119 0.27551 0.03300
C 	C 	0.31548 0.51224 0.32085 0.07000
C 	C 	0.10082 0.16890 0.35847 0.09300
N 	N 	0.36772 0.57754 0.31354 -0.12800
N 	N 	0.06815 0.09529 0.36673 -0.09500
C 	C 	0.99867 0.84076 0.29700 -0.07900
C 	C 	0.97084 0.77936 0.32433 -0.00100
C 	C 	0.02582 0.75326 0.34465 0.00300
C 	C 	0.10926 0.78753 0.33686 -0.06100
C 	C 	0.13508 0.84071 0.30713 -0.01400
C 	C 	0.08070 0.86808 0.28735 0.00600
H 	H 	0.90762 0.75714 0.33147 0.04600
H 	H 	0.19865 0.86447 0.30042 0.02700
C 	C 	0.11118 0.93083 0.25916 0.04600
C 	C 	0.99671 0.69493 0.37433 0.09000
N 	N 	0.13634 0.98162 0.23683 -0.12400
N 	N 	0.97329 0.64812 0.39806 -0.10800
C 	C 	0.49020 0.06368 0.46553 -0.08200
C 	C 	0.45410 0.97836 0.47555 -0.08600
H 	H 	0.48143 0.08240 0.43846 0.06200
H 	H 	0.46178 0.96088 0.50292 0.05900
C 	C 	0.98541 0.45658 0.45711 -0.08400
C 	C 	0.05109 0.49198 0.47930 -0.08100
H 	H 	0.99183 0.46620 0.42858 0.08600
H 	H 	0.04537 0.48165 0.50781 0.07100
C 	C 	0.53803 0.49451 0.46523 -0.10400
C 	C 	0.54341 0.58010 0.46933 -0.09200
H 	H 	0.49023 0.44825 0.44802 0.07200
H 	H 	0.59226 0.62735 0.48577 0.07200
C 	C 	0.84685 0.10962 0.58589 -0.06700
C 	C 	0.86328 0.13587 0.62191 -0.01700
C 	C 	0.88618 0.08213 0.64576 0.00400
C 	C 	0.89303 0.00119 0.63340 -0.06900
C 	C 	0.87858 0.97631 0.59717 -0.00600
C 	C 	0.85707 0.03076 0.57330 0.00400
H 	H 	0.85553 0.19666 0.63160 0.03700
H 	H 	0.88630 0.91553 0.58741 0.05000
C 	C 	0.84724 0.00634 0.53575 0.08600
C 	C 	0.90358 0.11143 0.68264 0.06100
N 	N 	0.83938 0.98678 0.50567 -0.10500
N 	N 	0.91758 0.13583 0.71211 -0.12300
C 	C 	0.43914 0.18294 0.61077 -0.06400
C 	C 	0.37112 0.20727 0.60504 -0.00800
C 	C 	0.30649 0.17966 0.62836 0.00100
C 	C 	0.30937 0.12664 0.65772 -0.06400
C 	C 	0.38005 0.10841 0.66504 -0.01300
C 	C 	0.44482 0.13602 0.64169 0.00100
H 	H 	0.36734 0.24530 0.58180 0.05200
H 	H 	0.38339 0.06977 0.68813 0.05000
C 	C 	0.51695 0.11642 0.64976 0.05400
C 	C 	0.23713 0.20560 0.62188 0.07300
N 	N 	0.57476 0.10074 0.65621 -0.13600
N 	N 	0.18155 0.22632 0.61671 -0.11500
C 	C 	0.02110 0.69293 0.61433 -0.06100
C 	C 	0.02357 0.71130 0.57787 -0.01000
C 	C 	0.98134 0.64297 0.55289 0.00700
C 	C 	0.93586 0.55614 0.56482 -0.06600
C 	C 	0.94939 0.53450 0.60000 -0.01100
C 	C 	0.99257 0.60276 0.62472 -0.00500
H 	H 	0.05157 0.78005 0.56935 0.05200
H 	H 	0.92190 0.46590 0.60873 0.04800
C 	C 	0.00101 0.58084 0.66143 0.05400
C 	C 	0.98605 0.66205 0.51537 0.07900
N 	N 	0.00774 0.56333 0.69085 -0.12400
N 	N 	0.98990 0.67748 0.48530 -0.10900
C 	C 	0.97287 0.58325 0.94951 -0.08500
C 	C 	0.90895 0.56185 0.97070 -0.07500
H 	H 	0.96276 0.56735 0.92107 0.08400
H 	H 	0.91778 0.57752 0.99913 0.07100
C 	C 	0.45943 0.92250 0.95080 -0.09200
C 	C 	0.48185 0.01065 0.95950 -0.08100
H 	H 	0.48233 0.90091 0.92712 0.07400
H 	H 	0.46024 0.03132 0.98377 0.06900
C 	C 	0.40849 0.39442 0.96794 -0.08200
C 	C 	0.37540 0.45037 0.95354 -0.09200
H 	H 	0.39536 0.37261 0.99512 0.06500
H 	H 	0.38498 0.46724 0.92565 0.06400
C 	C 	0.96339 0.14265 0.80963 -0.06200
C 	C 	0.99866 0.21353 0.83454 -0.01300
C 	C 	0.95021 0.23779 0.85869 0.01100
C 	C 	0.86502 0.19197 0.85734 -0.07200
C 	C 	0.82974 0.12363 0.83138 -0.00400
C 	C 	0.87825 0.09865 0.80770 0.00500
H 	H 	0.06415 0.24705 0.83622 0.04700
H 	H 	0.76429 0.08976 0.82963 0.01100
C 	C 	0.84018 0.02709 0.78160 0.07200
C 	C 	0.98880 0.30664 0.88575 0.08600
N 	N 	0.80969 0.96973 0.76073 -0.11700
N 	N 	0.01975 0.36181 0.90740 -0.11700
C 	C 	0.23344 0.96073 0.80918 -0.06100
C 	C 	0.23482 0.97386 0.84625 -0.01500
C 	C 	0.30919 0.01042 0.86518 0.01300
C 	C 	0.38213 0.03386 0.84654 -0.07100
C 	C 	0.37930 0.00054 0.81139 -0.00300
C 	C 	0.30469 0.96289 0.79279 -0.00800
H 	H 	0.17870 0.96440 0.85963 0.05300
H 	H 	0.43502 0.00948 0.79780 0.04300
C 	C 	0.30213 0.93254 0.75616 0.06900
C 	C 	0.31006 0.02342 0.90338 0.08400
N 	N 	0.29995 0.90804 0.72682 -0.12300
N 	N 	0.31046 0.03382 0.93399 -0.10500
C 	C 	0.74431 0.54902 0.84026 -0.06800
C 	C 	0.74329 0.63523 0.84744 -0.00600
C 	C 	0.77969 0.70554 0.82442 0.00600
C 	C 	0.81695 0.68958 0.79357 -0.06400
C 	C 	0.81334 0.60217 0.78513 -0.01600
C 	C 	0.77762 0.53189 0.80839 0.00600
H 	H 	0.71681 0.64836 0.87171 0.03700
H 	H 	0.84068 0.58952 0.76104 0.02300
C 	C 	0.77517 0.44252 0.79932 0.07300
C 	C 	0.77919 0.79404 0.83286 0.08800
N 	N 	0.77324 0.37093 0.79211 -0.12300
N 	N 	0.77872 0.86482 0.83977 -0.11100
