data_crystal

_cell_length_a 26.17245
_cell_length_b 26.41337
_cell_length_c 43.12182
_cell_angle_alpha 95.49164
_cell_angle_beta  95.49065
_cell_angle_gamma 125.83359

_symmetry_space_group_name_	'P 1'
_symmetry_space_group_name_H-M	'P 1'

loop_
_symmetry_equiv_pos_as_xyz
  x,y,z

loop_
_atom_site_label
_atom_site_type_symbol
_atom_site_fract_x
_atom_site_fract_y
_atom_site_fract_z
_atom_site_charge
C 	C 	0.94233 0.00326 0.98505 0.13400
C 	C 	0.03385 0.00728 0.98171 0.13900
N 	N 	0.00569 0.03705 0.98365 -0.12400
N 	N 	0.01802 0.05385 0.47198 -0.14100
C 	C 	0.86366 0.08344 0.49461 -0.09800
C 	C 	0.86851 0.11528 0.46953 -0.00700
C 	C 	0.89778 0.11164 0.44458 0.13500
C 	C 	0.92428 0.07850 0.44550 -0.06700
C 	C 	0.92096 0.04802 0.47100 -0.05500
C 	C 	0.88991 0.05005 0.49549 0.16200
H 	H 	0.94801 0.07703 0.42654 0.06600
H 	H 	0.84075 0.08574 0.51379 0.06500
C 	C 	0.77948 0.12626 0.46482 0.11200
O 	O 	0.73556 0.06145 0.45620 -0.27200
H 	H 	0.70726 0.14176 0.46360 0.05300
H 	H 	0.72525 0.04582 0.47638 0.14300
C 	C 	0.35233 0.14700 0.48450 0.11700
C 	C 	0.25063 0.13651 0.47376 -0.00800
O 	O 	0.31928 0.08895 0.49362 -0.27200
C 	C 	0.22763 0.15656 0.49637 0.13100
C 	C 	0.16162 0.12108 0.49602 -0.06600
C 	C 	0.11825 0.06560 0.47320 -0.05600
C 	C 	0.14118 0.04627 0.45019 0.15500
C 	C 	0.20719 0.08164 0.45060 -0.09000
H 	H 	0.14423 0.13614 0.51382 0.06500
H 	H 	0.22466 0.06625 0.43301 0.07500
H 	H 	0.32190 0.09834 0.51679 0.15100
C 	C 	0.87982 0.09696 0.96695 -0.09700
C 	C 	0.84716 0.09036 0.99202 -0.00700
C 	C 	0.84828 0.05751 0.01558 0.13500
C 	C 	0.88016 0.02977 0.01337 -0.06700
C 	C 	0.91208 0.03558 0.98806 -0.05500
C 	C 	0.91214 0.06966 0.96487 0.16200
C 	C 	0.80953 0.11552 0.99276 0.01000
O 	O 	0.81674 0.05095 0.04027 -0.27600
O 	O 	0.94356 0.07614 0.94012 -0.27800
C 	C 	0.70618 0.09684 0.98389 0.19000
C 	C 	0.74230 0.07344 0.98565 -0.11300
O 	O 	0.64049 0.05510 0.97629 -0.28300
H 	H 	0.71807 0.02257 0.98081 0.07900
H 	H 	0.91128 0.03913 0.92312 0.14600
H 	H 	0.62994 0.04737 0.95281 0.13400
H 	H 	0.84875 0.08835 0.05714 0.15400
C 	C 	0.33174 0.11973 0.00991 -0.11900
C 	C 	0.23414 0.10370 0.98222 -0.00800
H 	H 	0.30357 0.08990 0.02609 0.07400
C 	C 	0.18828 0.04822 0.95971 0.14000
C 	C 	0.12285 0.01884 0.95858 -0.07600
C 	C 	0.10261 0.04357 0.98035 -0.04900
C 	C 	0.14865 0.09983 0.00254 0.16100
O 	O 	0.20733 0.02272 0.93875 -0.28800
Cu	Cu	0.61698 0.21834 0.00292 0.92900
Cu	Cu	0.65468 0.21658 0.93285 0.86800
Cu	Cu	0.64532 0.31620 0.96162 0.89700
Cu	Cu	0.63146 0.34262 0.02768 0.89700
C 	C 	0.65199 0.27046 0.06953 0.28900
O 	O 	0.52732 0.18825 0.00756 -0.34900
C 	C 	0.61893 0.27448 0.89210 0.28400
O 	O 	0.67305 0.31729 0.00467 -0.64100
O 	O 	0.60044 0.22287 0.95800 -0.64100
O 	O 	0.64934 0.16681 0.99701 -0.35900
O 	O 	0.71712 0.22984 0.96581 -0.44400
O 	O 	0.62410 0.29797 0.06372 -0.38100
C 	C 	0.50380 0.21757 0.99761 0.30200
O 	O 	0.54275 0.27668 0.99369 -0.39500
O 	O 	0.64721 0.22940 0.04710 -0.35600
C 	C 	0.70053 0.18816 0.98440 0.31100
O 	O 	0.62397 0.31327 0.91616 -0.37800
O 	O 	0.61251 0.22228 0.89616 -0.41800
H 	H 	0.72015 0.34312 0.01165 0.16700
H 	H 	0.55475 0.19673 0.94754 0.17700
Cu	Cu	0.75468 0.35725 0.46666 0.93000
Cu	Cu	0.75018 0.31174 0.53502 0.87100
Cu	Cu	0.64943 0.32020 0.50496 0.89700
Cu	Cu	0.63261 0.34774 0.44073 0.89600
C 	C 	0.71246 0.33646 0.39956 0.29000
C 	C 	0.68898 0.34415 0.57509 0.28800
O 	O 	0.65436 0.30182 0.46175 -0.64100
O 	O 	0.74438 0.36695 0.51112 -0.64200
O 	O 	0.80406 0.32205 0.47184 -0.35800
O 	O 	0.73691 0.25173 0.50098 -0.44300
O 	O 	0.68292 0.36198 0.40614 -0.38300
O 	O 	0.55689 0.26962 0.49641 -0.38700
C 	C 	0.52146 0.27410 0.47451 0.31300
O 	O 	0.54498 0.30529 0.45113 -0.38000
O 	O 	0.74826 0.33397 0.42221 -0.35400
C 	C 	0.77981 0.26910 0.48280 0.30800
O 	O 	0.64360 0.32539 0.55038 -0.38300
O 	O 	0.74238 0.35159 0.57160 -0.41800
H 	H 	0.62874 0.25596 0.45255 0.16800
H 	H 	0.76895 0.41133 0.52268 0.17700
C 	C 	0.61310 0.28607 0.85956 -0.08600
C 	C 	0.64638 0.34863 0.85404 0.01200
C 	C 	0.64892 0.36003 0.82300 -0.06400
C 	C 	0.61812 0.30905 0.79725 0.02700
C 	C 	0.58179 0.24647 0.80267 -0.06600
C 	C 	0.57919 0.23499 0.83366 0.01400
C 	C 	0.62919 0.32116 0.76501 0.00100
C 	C 	0.60283 0.34674 0.74871 -0.03700
C 	C 	0.61257 0.35703 0.71787 -0.03700
C 	C 	0.64897 0.34205 0.70323 0.00100
C 	C 	0.67572 0.31700 0.71968 -0.03800
C 	C 	0.66591 0.30664 0.75042 -0.03800
C 	C 	0.65767 0.35077 0.67037 0.02700
C 	C 	0.71947 0.39276 0.66392 -0.06600
C 	C 	0.72928 0.39332 0.63261 0.01400
C 	C 	0.67732 0.35176 0.60744 -0.08700
C 	C 	0.61491 0.31278 0.61384 0.01300
C 	C 	0.60519 0.31223 0.64518 -0.06500
H 	H 	0.67241 0.38848 0.87376 0.03700
H 	H 	0.55713 0.20679 0.78289 0.04700
H 	H 	0.55204 0.18644 0.83752 0.03400
H 	H 	0.70363 0.30502 0.70851 0.03900
H 	H 	0.68667 0.28715 0.76289 0.03900
H 	H 	0.76017 0.42342 0.68321 0.04800
H 	H 	0.77747 0.42474 0.62799 0.03300
H 	H 	0.57429 0.28084 0.59467 0.03800
H 	H 	0.55722 0.27996 0.64992 0.04900
C 	C 	0.67438 0.27358 0.10287 -0.08100
C 	C 	0.66358 0.21956 0.11298 0.01800
C 	C 	0.67788 0.22067 0.14527 -0.06300
C 	C 	0.70314 0.27575 0.16769 0.02800
C 	C 	0.71648 0.33050 0.15744 -0.06300
C 	C 	0.70234 0.32947 0.12522 0.01400
C 	C 	0.71078 0.27473 0.20196 0.00200
C 	C 	0.65682 0.23377 0.21516 -0.03600
C 	C 	0.66187 0.24002 0.24809 -0.03600
C 	C 	0.72082 0.28739 0.26808 0.00200
C 	C 	0.77556 0.32581 0.25490 -0.03600
C 	C 	0.77060 0.31940 0.22196 -0.03600
C 	C 	0.72345 0.30198 0.30231 0.02900
C 	C 	0.71464 0.25898 0.32188 -0.06300
C 	C 	0.71259 0.27096 0.35391 0.01600
C 	C 	0.71863 0.32566 0.36644 -0.08100
C 	C 	0.72881 0.36925 0.34696 0.01900
C 	C 	0.73127 0.35748 0.31507 -0.06400
H 	H 	0.64221 0.17614 0.09602 0.04800
H 	H 	0.66793 0.17831 0.15292 0.05200
H 	H 	0.61046 0.19897 0.19995 0.04300
H 	H 	0.61940 0.20996 0.25806 0.04200
H 	H 	0.70865 0.21603 0.31222 0.05100
H 	H 	0.70497 0.23713 0.36877 0.03600
C 	C 	0.84560 0.15483 0.47024 0.00900
O 	O 	0.90239 0.14218 0.41981 -0.27600
C 	C 	0.75829 0.16413 0.46757 -0.03200
C 	C 	0.80270 0.23056 0.47599 -0.12900
C 	C 	0.86891 0.25919 0.48069 0.18900
C 	C 	0.89004 0.22130 0.47761 -0.11200
O 	O 	0.91301 0.32407 0.48865 -0.28100
H 	H 	0.94104 0.24355 0.48164 0.07900
H 	H 	0.92202 0.33394 0.51217 0.13500
H 	H 	0.86291 0.11063 0.40381 0.15300
C 	C 	0.35450 0.23168 0.46533 -0.11500
C 	C 	0.32023 0.17230 0.47458 0.01000
C 	C 	0.41798 0.18040 0.48436 -0.03200
C 	C 	0.45240 0.23978 0.47496 -0.12300
C 	C 	0.42051 0.26595 0.46598 0.19300
H 	H 	0.44199 0.15984 0.49132 0.05700
O 	O 	0.45365 0.32479 0.45770 -0.28800
H 	H 	0.33000 0.25149 0.45783 0.07300
O 	O 	0.26973 0.20927 0.51961 -0.27800
H 	H 	0.46841 0.35530 0.47774 0.14800
H 	H 	0.27508 0.24521 0.51092 0.14600
H 	H 	0.87920 0.12233 0.94877 0.06500
C 	C 	0.84067 0.18149 0.99919 0.11200
C 	C 	0.80457 0.20492 0.99766 -0.03000
C 	C 	0.73738 0.16290 0.98958 -0.13100
O 	O 	0.90627 0.22306 0.00766 -0.27100
H 	H 	0.82887 0.25582 0.00236 0.05200
H 	H 	0.92192 0.23410 0.98752 0.14400
C 	C 	0.30283 0.13160 0.98554 0.00900
C 	C 	0.33942 0.16993 0.96446 0.12200
C 	C 	0.40481 0.19687 0.96815 -0.03600
C 	C 	0.43408 0.18564 0.99276 -0.12300
C 	C 	0.39720 0.14705 0.01383 0.19200
O 	O 	0.31189 0.18291 0.94092 -0.27000
H 	H 	0.43282 0.22670 0.95192 0.05700
O 	O 	0.42508 0.13634 0.03836 -0.28100
C 	C 	0.21413 0.12997 0.00315 -0.09400
O 	O 	0.12980 0.12495 0.02387 -0.27300
H 	H 	0.24937 0.17284 0.02048 0.07300
H 	H 	0.43994 0.17092 0.05645 0.15100
H 	H 	0.12660 0.10504 0.04267 0.14900
H 	H 	0.29665 0.14944 0.92216 0.15600
H 	H 	0.87996 0.00360 0.03130 0.06500
H 	H 	0.73609 0.37330 0.17454 0.04900
H 	H 	0.71183 0.37174 0.11768 0.02900
H 	H 	0.82141 0.36213 0.27017 0.04500
H 	H 	0.81272 0.35065 0.21201 0.04300
H 	H 	0.73457 0.41214 0.35650 0.03800
H 	H 	0.73814 0.39094 0.30013 0.05000
C 	C 	0.04929 0.02727 0.47388 0.13900
H 	H 	0.92467 0.05203 0.53656 0.14600
H 	H 	0.57449 0.35817 0.75982 0.04300
H 	H 	0.59175 0.37641 0.70536 0.04200
H 	H 	0.67676 0.40851 0.81901 0.04800
O 	O 	0.69703 0.43121 0.47758 -0.39600
O 	O 	0.78803 0.44831 0.46536 -0.34700
O 	O 	0.69532 0.40767 0.96658 -0.39000
O 	O 	0.67185 0.42700 0.01486 -0.38100
C 	C 	0.75732 0.47071 0.47482 0.30100
C 	C 	0.70004 0.44684 0.99020 0.31800
H 	H 	0.79776 0.52781 0.41398 0.14800
C 	C 	0.78759 0.53930 0.47819 -0.12300
H 	H 	0.74849 0.54290 0.51958 0.05400
O 	O 	0.83424 0.54535 0.43169 -0.27800
H 	H 	0.68066 0.49388 0.94132 0.05800
C 	C 	0.73412 0.51417 0.98797 -0.12500
C 	C 	0.95460 0.01888 0.47326 0.13400
O 	O 	0.88567 0.01992 0.52040 -0.27900
C 	C 	0.71784 0.53068 0.96076 -0.03000
C 	C 	0.77637 0.56924 0.50238 -0.03500
C 	C 	0.82377 0.57403 0.45588 0.19200
H 	H 	0.83397 0.54425 0.03561 0.14300
O 	O 	0.79883 0.54673 0.03987 -0.29100
C 	C 	0.78223 0.56222 0.01318 0.19400
H 	H 	0.08789 0.00668 0.40956 0.14300
H 	H 	0.20990 0.99245 0.94945 0.15700
H 	H 	0.08776 0.97594 0.94122 0.08200
N 	N 	0.90702 0.93958 0.98408 -0.14000
C 	C 	0.93489 0.90961 0.98173 0.14500
N 	N 	0.99843 0.94369 0.98092 -0.13400
N 	N 	0.01712 0.96562 0.47712 -0.12800
C 	C 	0.95369 0.93039 0.47841 0.14200
N 	N 	0.92244 0.95714 0.47658 -0.12100
C 	C 	0.83313 0.75112 0.46230 -0.09900
C 	C 	0.86268 0.73493 0.48381 -0.00600
C 	C 	0.91920 0.78315 0.50533 0.14000
C 	C 	0.94724 0.84707 0.50432 -0.06500
C 	C 	0.91920 0.86341 0.48193 -0.05200
C 	C 	0.86139 0.81505 0.46109 0.16400
C 	C 	0.83703 0.66770 0.48214 0.01000
O 	O 	0.94882 0.76791 0.52631 -0.27300
H 	H 	0.99153 0.88396 0.52055 0.07000
O 	O 	0.83297 0.83009 0.43924 -0.27500
H 	H 	0.78921 0.71408 0.44588 0.07000
C 	C 	0.80044 0.63303 0.50423 0.11700
C 	C 	0.84890 0.63812 0.45819 -0.11400
O 	O 	0.78904 0.66167 0.52795 -0.27600
H 	H 	0.87702 0.66466 0.44110 0.07800
H 	H 	0.85149 0.83157 0.42002 0.15100
H 	H 	0.74851 0.65459 0.51904 0.14700
H 	H 	0.93078 0.76533 0.54580 0.15700
O 	O 	0.09923 0.99229 0.42762 -0.26400
C 	C 	0.87283 0.73781 0.96187 -0.09800
C 	C 	0.82900 0.71028 0.98235 -0.00600
C 	C 	0.81770 0.74764 0.00155 0.13400
C 	C 	0.85191 0.81260 0.00101 -0.06500
C 	C 	0.89665 0.84050 0.98091 -0.05900
C 	C 	0.90580 0.80235 0.96066 0.16400
C 	C 	0.79613 0.64267 0.98418 0.01100
O 	O 	0.77459 0.72110 0.02153 -0.27400
H 	H 	0.84434 0.84144 0.01658 0.06900
O 	O 	0.94746 0.82822 0.93997 -0.28200
H 	H 	0.88137 0.70911 0.94688 0.06700
C 	C 	0.74861 0.59466 0.95879 0.11300
C 	C 	0.81288 0.62618 0.01124 -0.11200
O 	O 	0.73048 0.61017 0.93260 -0.27200
H 	H 	0.84979 0.66301 0.03075 0.08100
H 	H 	0.92124 0.82354 0.92016 0.14900
H 	H 	0.75774 0.61279 0.91740 0.14300
H 	H 	0.73288 0.70609 0.00890 0.15400
