data_crystal

_cell_length_a 22.44932
_cell_length_b 22.87326
_cell_length_c 31.32882
_cell_angle_alpha 95.48423
_cell_angle_beta  95.48528
_cell_angle_gamma 126.00726

_symmetry_space_group_name_	'P 1'
_symmetry_space_group_name_H-M	'P 1'

loop_
_symmetry_equiv_pos_as_xyz
  x,y,z

loop_
_atom_site_label
_atom_site_type_symbol
_atom_site_fract_x
_atom_site_fract_y
_atom_site_fract_z
_atom_site_charge
C 	C 	0.91477 0.01020 0.98337 0.02100
C 	C 	0.99258 0.05399 0.98441 -0.05000
C 	C 	0.02898 0.02095 0.98056 0.00600
C 	C 	0.98707 0.94412 0.97476 -0.05400
C 	C 	0.91003 0.90066 0.97464 0.01600
C 	C 	0.87408 0.93363 0.97942 -0.06800
H 	H 	0.02448 0.11322 0.98804 0.03900
H 	H 	0.01455 0.91825 0.97076 0.04100
H 	H 	0.81447 0.89976 0.97976 0.04800
C 	C 	0.96474 0.02248 0.46506 0.04200
C 	C 	0.92176 0.94730 0.46725 -0.08400
C 	C 	0.95563 0.91167 0.46914 0.03700
C 	C 	0.03322 0.95228 0.47085 -0.08800
C 	C 	0.07665 0.02780 0.47064 0.03600
C 	C 	0.04229 0.06247 0.46662 -0.08500
H 	H 	0.86223 0.91664 0.46727 0.04900
H 	H 	0.05974 0.92514 0.47220 0.05000
H 	H 	0.07585 0.12048 0.46495 0.05100
Cu	Cu	0.60489 0.22099 0.00636 0.92200
Cu	Cu	0.59964 0.17967 0.90088 0.87200
Cu	Cu	0.63680 0.33491 0.94969 0.90100
Cu	Cu	0.60777 0.35677 0.04088 0.89400
C 	C 	0.64819 0.28364 0.09873 0.30100
O 	O 	0.49842 0.17392 0.01610 -0.35900
C 	C 	0.61665 0.28862 0.85514 0.29200
O 	O 	0.66090 0.33388 0.00955 -0.64700
O 	O 	0.57615 0.22464 0.94472 -0.63400
O 	O 	0.66311 0.18087 0.99803 -0.36900
O 	O 	0.59191 0.10931 0.93191 -0.42600
O 	O 	0.61269 0.31294 0.09207 -0.38700
O 	O 	0.69580 0.44104 0.96026 -0.37900
C 	C 	0.69166 0.47957 0.99249 0.28700
C 	C 	0.46395 0.20304 0.00628 0.27100
O 	O 	0.50238 0.27010 0.99812 -0.37800
O 	O 	0.63955 0.44683 0.01665 -0.39900
O 	O 	0.64423 0.23777 0.06729 -0.36100
C 	C 	0.64405 0.12911 0.96518 0.28100
O 	O 	0.63030 0.33929 0.88706 -0.37700
O 	O 	0.57358 0.21883 0.85795 -0.41800
H 	H 	0.71550 0.36558 0.02123 0.15600
H 	H 	0.52216 0.20174 0.93661 0.16800
Cu	Cu	0.78525 0.36502 0.45660 0.92700
Cu	Cu	0.77489 0.30487 0.54859 0.86900
Cu	Cu	0.65752 0.31444 0.50715 0.89600
Cu	Cu	0.64300 0.35459 0.42022 0.89300
C 	C 	0.73416 0.33930 0.36444 0.28500
O 	O 	0.82442 0.47089 0.45765 -0.36100
C 	C 	0.69884 0.33562 0.60365 0.28600
O 	O 	0.66740 0.29958 0.44774 -0.64000
O 	O 	0.76903 0.37082 0.51749 -0.64100
O 	O 	0.84483 0.32653 0.46334 -0.37000
O 	O 	0.76392 0.24061 0.50029 -0.44200
O 	O 	0.70197 0.37109 0.37305 -0.38600
O 	O 	0.54910 0.25403 0.49317 -0.38300
C 	C 	0.50945 0.25538 0.45975 0.28700
C 	C 	0.78777 0.49519 0.47134 0.28200
O 	O 	0.71643 0.44857 0.47283 -0.39100
O 	O 	0.54151 0.30607 0.43520 -0.39500
O 	O 	0.78175 0.34334 0.39515 -0.35700
C 	C 	0.81767 0.26493 0.47770 0.28900
O 	O 	0.64678 0.31416 0.56912 -0.38700
O 	O 	0.76220 0.34608 0.59952 -0.42200
H 	H 	0.63847 0.24731 0.43347 0.16100
H 	H 	0.79642 0.42116 0.53470 0.17200
C 	C 	0.65438 0.33354 0.73339 0.01000
C 	C 	0.72776 0.38226 0.72636 -0.06000
C 	C 	0.74194 0.38624 0.68381 0.00800
C 	C 	0.63021 0.30707 0.81280 -0.11000
C 	C 	0.60871 0.29556 0.65506 0.00800
C 	C 	0.59470 0.29172 0.69767 -0.05800
C 	C 	0.64127 0.32028 0.77680 0.03300
C 	C 	0.68271 0.34107 0.64791 -0.08700
H 	H 	0.77413 0.41529 0.75382 0.04100
H 	H 	0.79912 0.42286 0.67880 0.03000
H 	H 	0.56235 0.26081 0.62776 0.03500
H 	H 	0.53772 0.25427 0.70286 0.04400
C 	C 	0.71154 0.29268 0.22709 0.01400
C 	C 	0.65801 0.23901 0.24826 -0.05700
C 	C 	0.66854 0.25153 0.29386 0.00700
C 	C 	0.67352 0.28574 0.14311 -0.09900
C 	C 	0.78923 0.36863 0.29749 0.01500
C 	C 	0.77850 0.35624 0.25184 -0.05800
C 	C 	0.69224 0.28842 0.18109 0.03500
C 	C 	0.73286 0.31765 0.31856 -0.08200
H 	H 	0.60636 0.18942 0.22940 0.04500
H 	H 	0.62489 0.21163 0.30986 0.01900
H 	H 	0.83930 0.41973 0.31630 0.03600
H 	H 	0.82048 0.39779 0.23576 0.04500
C 	C 	0.82364 0.57430 0.47914 -0.08200
C 	C 	0.88659 0.62218 0.51244 0.01400
C 	C 	0.92173 0.69785 0.51930 -0.07100
C 	C 	0.89516 0.72644 0.49219 0.03800
C 	C 	0.83185 0.67827 0.45849 -0.00800
C 	C 	0.79567 0.60223 0.45261 -0.00700
C 	C 	0.80699 0.70697 0.43033 -0.03300
C 	C 	0.84618 0.78303 0.43456 -0.04400
C 	C 	0.90960 0.83128 0.46771 0.00800
C 	C 	0.93251 0.80264 0.49736 -0.06800
H 	H 	0.90817 0.60073 0.53309 0.02300
H 	H 	0.97027 0.73427 0.54522 0.04500
H 	H 	0.74705 0.56501 0.42678 0.02900
H 	H 	0.75844 0.67049 0.40443 0.03400
H 	H 	0.82833 0.80454 0.41140 0.03800
H 	H 	0.98057 0.83973 0.52351 0.04600
C 	C 	0.92863 0.05947 0.46122 0.00200
C 	C 	0.86469 0.02873 0.42897 -0.03500
C 	C 	0.83076 0.06376 0.42510 -0.03800
C 	C 	0.86124 0.13071 0.45286 -0.00400
C 	C 	0.92664 0.16281 0.48463 0.03000
C 	C 	0.95919 0.12637 0.48919 -0.05700
C 	C 	0.95840 0.23080 0.51155 -0.06200
C 	C 	0.92449 0.26578 0.50771 0.00700
C 	C 	0.85814 0.23289 0.47731 -0.08800
C 	C 	0.82688 0.16573 0.44961 -0.00800
H 	H 	0.84146 0.97781 0.40678 0.03400
H 	H 	0.78103 0.03897 0.40036 0.03700
H 	H 	0.00812 0.14987 0.51438 0.03900
H 	H 	0.00898 0.25629 0.53571 0.03600
H 	H 	0.94870 0.31761 0.52922 0.01400
H 	H 	0.77554 0.14042 0.42611 0.03400
C 	C 	0.15854 0.07097 0.47588 0.00700
C 	C 	0.20269 0.09703 0.51776 -0.04400
C 	C 	0.28047 0.13706 0.52297 -0.03500
C 	C 	0.31485 0.15139 0.48628 -0.00700
C 	C 	0.27043 0.12497 0.44398 0.03600
C 	C 	0.19233 0.08482 0.43902 -0.06900
C 	C 	0.30479 0.13946 0.40731 -0.07000
C 	C 	0.38271 0.18078 0.41253 0.01000
C 	C 	0.42718 0.20790 0.45446 -0.08000
C 	C 	0.39304 0.19247 0.49129 -0.01000
H 	H 	0.17661 0.08615 0.54628 0.03900
H 	H 	0.31393 0.15698 0.55554 0.03600
H 	H 	0.15792 0.06432 0.40667 0.04700
H 	H 	0.27126 0.11915 0.37474 0.04400
H 	H 	0.40861 0.19194 0.38395 0.02500
H 	H 	0.42732 0.21375 0.52372 0.04300
C 	C 	0.86726 0.82054 0.97048 0.02000
C 	C 	0.84257 0.77597 0.92918 -0.04800
C 	C 	0.80405 0.70001 0.92520 -0.03400
C 	C 	0.78997 0.66796 0.96257 0.00100
C 	C 	0.81477 0.71281 0.00424 0.03000
C 	C 	0.85329 0.78898 0.00795 -0.07700
C 	C 	0.80064 0.68085 0.04160 -0.06700
C 	C 	0.76152 0.60488 0.03766 0.00100
C 	C 	0.73621 0.55994 0.99637 -0.07100
C 	C 	0.75100 0.59168 0.95885 -0.01400
H 	H 	0.85352 0.80029 0.90018 0.04100
H 	H 	0.78527 0.66620 0.89309 0.03700
H 	H 	0.87274 0.82372 0.03985 0.04700
H 	H 	0.81967 0.71477 0.07370 0.04200
H 	H 	0.75078 0.58084 0.06677 0.02400
H 	H 	0.73103 0.55701 0.92688 0.04600
C 	C 	0.87513 0.04390 0.98503 0.01900
C 	C 	0.89814 0.10091 0.01965 -0.05200
C 	C 	0.85731 0.12899 0.02291 -0.03900
C 	C 	0.79233 0.09959 0.99191 -0.00200
C 	C 	0.76895 0.04218 0.95710 0.03300
C 	C 	0.81123 0.01561 0.95337 -0.06500
C 	C 	0.70316 0.01148 0.92671 -0.06500
C 	C 	0.66127 0.03811 0.93037 0.00400
C 	C 	0.68508 0.09669 0.96415 -0.08600
C 	C 	0.75040 0.12681 0.99526 -0.00800
H 	H 	0.94698 0.12268 0.04442 0.04100
H 	H 	0.87577 0.17298 0.04979 0.03700
H 	H 	0.79387 0.97218 0.92632 0.04200
H 	H 	0.68433 0.96685 0.90017 0.03800
H 	H 	0.61059 0.01361 0.90656 0.02900
H 	H 	0.76898 0.17168 0.02157 0.03900
C 	C 	0.11113 0.06648 0.98297 0.02400
C 	C 	0.14455 0.11498 0.95384 -0.05000
C 	C 	0.22066 0.15168 0.95265 -0.03200
C 	C 	0.26399 0.13947 0.98017 -0.00400
C 	C 	0.23082 0.09127 0.00983 0.03400
C 	C 	0.15494 0.05618 0.01169 -0.08000
C 	C 	0.27365 0.07785 0.03671 -0.07100
C 	C 	0.34905 0.11247 0.03448 0.01000
C 	C 	0.38276 0.16144 0.00563 -0.08500
C 	C 	0.33991 0.17448 0.97826 -0.00800
H 	H 	0.11113 0.12293 0.93139 0.04000
H 	H 	0.24556 0.18867 0.92984 0.03500
H 	H 	0.12943 0.01944 0.03460 0.04700
H 	H 	0.24864 0.04069 0.05943 0.04400
H 	H 	0.38171 0.10247 0.05593 0.03700
H 	H 	0.36560 0.21174 0.95564 0.03700
