data_crystal

_cell_length_a 35.67461
_cell_length_b 29.96741
_cell_length_c 32.36285
_cell_angle_alpha 103.52570
_cell_angle_beta  115.68823
_cell_angle_gamma 112.68794

_symmetry_space_group_name_	'P 1'
_symmetry_space_group_name_H-M	'P 1'

loop_
_symmetry_equiv_pos_as_xyz
  x,y,z

loop_
_atom_site_label
_atom_site_type_symbol
_atom_site_fract_x
_atom_site_fract_y
_atom_site_fract_z
_atom_site_charge
Zn	Zn	0.00978 0.03500 0.01719 1.19200
Zn	Zn	0.00127 0.03082 0.51146 1.19600
Zn	Zn	0.04655 0.08054 0.88211 1.19400
O 	O 	0.04284 0.00151 0.79404 -0.48800
O 	O 	0.02043 0.06270 0.80690 -0.46000
O 	O 	0.05091 0.92769 0.86004 -0.51100
O 	O 	0.06495 0.08350 0.95221 -0.78700
Zn	Zn	0.02137 0.00609 0.92640 1.21200
C 	C 	0.03111 0.98684 0.08535 0.37900
O 	O 	0.02612 0.94841 0.04918 -0.46700
O 	O 	0.03390 0.03096 0.08197 -0.49700
O 	O 	0.03970 0.00930 0.99286 -0.88900
Zn	Zn	0.02145 0.96225 0.82913 1.18000
C 	C 	0.02865 0.03298 0.77938 0.32500
Zn	Zn	0.04093 0.07533 0.37801 1.19100
O 	O 	0.04047 0.99728 0.29246 -0.49100
O 	O 	0.01667 0.05745 0.30325 -0.46500
O 	O 	0.04575 0.92249 0.35785 -0.51200
O 	O 	0.05894 0.07850 0.44797 -0.79400
Zn	Zn	0.01502 0.00120 0.42222 1.21000
C 	C 	0.02318 0.98418 0.58122 0.37800
O 	O 	0.01829 0.94549 0.54539 -0.46300
O 	O 	0.02437 0.02727 0.57655 -0.49200
O 	O 	0.03210 0.00512 0.48859 -0.90100
Zn	Zn	0.01732 0.95749 0.32640 1.17800
C 	C 	0.02684 0.02893 0.27741 0.32400
C 	C 	0.02910 0.98035 0.62397 -0.22100
C 	C 	0.03096 0.01648 0.65999 0.03400
C 	C 	0.03277 0.00860 0.70409 -0.00300
C 	C 	0.02718 0.03986 0.73518 -0.16000
H 	H 	0.03800 0.97687 0.71076 0.02900
H 	H 	0.03007 0.94578 0.62824 0.08800
H 	H 	0.02092 0.07069 0.72755 0.07200
H 	H 	0.02956 0.05105 0.65618 0.02600
C 	C 	0.02826 0.03754 0.23496 -0.16100
C 	C 	0.03574 0.00749 0.20531 -0.00500
C 	C 	0.03696 0.01738 0.16311 0.03300
C 	C 	0.03543 0.98164 0.12712 -0.22100
H 	H 	0.03718 0.05302 0.16042 0.02500
H 	H 	0.02267 0.06878 0.22749 0.07100
H 	H 	0.03495 0.94611 0.13033 0.08700
H 	H 	0.04019 0.97526 0.21166 0.03000
H 	H 	0.11584 0.91642 0.85371 0.01900
Zn	Zn	0.13250 0.11559 0.98999 1.18200
C 	C 	0.13783 0.19615 0.94839 0.31700
O 	O 	0.14379 0.07184 0.90730 -0.34600
O 	O 	0.08792 0.99357 0.94205 -0.46500
O 	O 	0.09048 0.16068 0.90746 -0.46100
C 	C 	0.08674 0.95539 0.91037 0.32400
H 	H 	0.07599 0.02766 0.01928 0.15100
Zn	Zn	0.12649 0.11055 0.48627 1.18100
O 	O 	0.08149 0.98794 0.43957 -0.46500
O 	O 	0.08395 0.15550 0.40352 -0.46300
C 	C 	0.08080 0.94985 0.40839 0.31900
H 	H 	0.06826 0.02347 0.51558 0.16200
C 	C 	0.12455 0.94573 0.42879 -0.11400
H 	H 	0.11246 0.91333 0.35375 0.02000
C 	C 	0.14389 0.26925 0.92160 0.01800
H 	H 	0.10345 0.24569 0.89517 0.03000
C 	C 	0.13052 0.95133 0.92985 -0.12500
C 	C 	0.14073 0.93087 0.89513 0.03200
H 	H 	0.19095 0.91371 0.88672 0.04600
O 	O 	0.15739 0.18768 0.98861 -0.46200
C 	C 	0.13146 0.19097 0.44393 0.31700
O 	O 	0.13961 0.06563 0.40573 -0.34700
O 	O 	0.15230 0.18185 0.48331 -0.46400
C 	C 	0.15270 0.24821 0.40276 0.01800
C 	C 	0.16026 0.24474 0.44796 -0.10000
H 	H 	0.12524 0.21160 0.36467 0.02900
C 	C 	0.13625 0.92672 0.39509 0.02400
C 	C 	0.15677 0.96448 0.48256 0.02400
H 	H 	0.14844 0.97958 0.50909 0.01100
C 	C 	0.16766 0.24970 0.95236 -0.10000
C 	C 	0.17232 0.31962 0.92514 -0.07000
H 	H 	0.15360 0.33418 0.90112 0.04300
C 	C 	0.16412 0.97135 0.98365 0.05100
C 	C 	0.18370 0.93003 0.91391 -0.08100
C 	C 	0.18324 0.08756 0.95257 0.30100
O 	O 	0.18590 0.10683 0.99530 -0.45800
C 	C 	0.17814 0.08093 0.45154 0.30300
O 	O 	0.17988 0.10071 0.49355 -0.46200
C 	C 	0.17934 0.92610 0.41482 -0.07400
H 	H 	0.15695 0.98756 0.01096 -0.00100
H 	H 	0.18096 0.02784 0.37327 0.03200
H 	H 	0.18302 0.02984 0.87377 0.03200
C 	C 	0.18123 0.29880 0.40673 -0.07100
H 	H 	0.17524 0.30102 0.37166 0.04300
C 	C 	0.19638 0.29253 0.49711 0.01900
C 	C 	0.19985 0.96366 0.50221 -0.07500
H 	H 	0.18778 0.91098 0.38840 0.04400
H 	H 	0.22815 0.88205 0.00769 0.03500
C 	C 	0.21676 0.94921 0.96747 0.04500
H 	H 	0.21279 0.43584 0.48254 0.03400
H 	H 	0.20235 0.29055 0.53225 0.02400
H 	H 	0.22143 0.87540 0.50684 0.03400
C 	C 	0.21107 0.94408 0.46834 0.03200
C 	C 	0.22020 0.28111 0.98650 0.02600
H 	H 	0.22094 0.44106 0.98776 0.03600
C 	C 	0.20707 0.97033 0.00235 -0.10200
C 	C 	0.22003 0.05862 0.91020 0.01600
C 	C 	0.22611 0.08837 0.95577 -0.08000
C 	C 	0.21741 0.34640 0.45586 0.02800
H 	H 	0.22419 0.97766 0.54363 0.04300
C 	C 	0.22475 0.35106 0.95954 0.02500
C 	C 	0.21704 0.05407 0.41099 0.01700
C 	C 	0.22475 0.34311 0.50099 -0.07200
C 	C 	0.22117 0.08075 0.45618 -0.09000
H 	H 	0.23914 0.26629 0.00994 0.02000
C 	C 	0.25762 0.90348 0.00362 -0.05000
C 	C 	0.24044 0.44218 0.47458 -0.03800
C 	C 	0.25878 0.94230 0.98613 0.00500
C 	C 	0.24803 0.44720 0.97897 -0.03800
O 	O 	0.00259 0.00248 0.85965 -0.89800
C 	C 	0.24745 0.39975 0.46004 -0.00400
C 	C 	0.24853 0.33158 0.99019 -0.06100
H 	H 	0.23245 0.98526 0.04381 0.04800
C 	C 	0.25161 0.89790 0.50406 -0.03700
H 	H 	0.25688 0.04702 0.87494 0.04400
C 	C 	0.25343 0.93776 0.48789 -0.00500
C 	C 	0.25474 0.40463 0.96380 -0.00100
C 	C 	0.26188 0.06794 0.91094 -0.07000
H 	H 	0.25255 0.37970 0.53906 0.04400
H 	H 	0.26325 0.52533 0.48983 0.03700
H 	H 	0.27090 0.53047 0.99468 0.03800
H 	H 	0.25658 0.04514 0.37845 0.04300
C 	C 	0.27420 0.12319 0.00320 0.00600
C 	C 	0.25985 0.06336 0.41397 -0.06900
H 	H 	0.27944 0.14517 0.03903 0.02900
C 	C 	0.26898 0.49283 0.47867 -0.04400
H 	H 	0.27160 0.54123 0.40355 0.03600
C 	C 	0.27642 0.49790 0.98304 -0.04100
H 	H 	0.29030 0.85829 0.02450 0.03400
C 	C 	0.26785 0.11175 0.50512 0.01700
C 	C 	0.29286 0.89005 0.01317 -0.03800
H 	H 	0.27143 0.13090 0.54061 0.03100
H 	H 	0.28394 0.85215 0.52394 0.03700
H 	H 	0.27854 0.54553 0.90663 0.03700
C 	C 	0.28337 0.40842 0.44980 -0.03800
C 	C 	0.28705 0.88476 0.51378 -0.04400
C 	C 	0.29722 0.96994 0.98115 -0.04500
H 	H 	0.28912 0.37593 0.43870 0.03600
H 	H 	0.28898 0.35560 0.01697 0.03500
H 	H 	0.29870 0.00043 0.96821 0.04300
C 	C 	0.29281 0.96682 0.48464 -0.03700
H 	H 	0.29477 0.99804 0.47268 0.03900
C 	C 	0.29033 0.41335 0.95301 -0.03800
C 	C 	0.30486 0.50150 0.46840 0.00600
C 	C 	0.31100 0.56951 0.43549 -0.04400
H 	H 	0.29567 0.38071 0.94107 0.03700
C 	C 	0.31205 0.45916 0.45407 -0.04400
C 	C 	0.30712 0.09926 0.46211 0.02600
C 	C 	0.31015 0.10704 0.95720 0.03700
C 	C 	0.31066 0.12104 0.50801 -0.06900
H 	H 	0.31974 0.63252 0.41246 0.03500
C 	C 	0.31194 0.50657 0.97223 0.00400
C 	C 	0.31605 0.13252 0.00386 -0.08000
C 	C 	0.32975 0.91551 0.00554 -0.00600
C 	C 	0.32481 0.91157 0.50765 0.00600
C 	C 	0.31783 0.57413 0.93878 -0.04400
C 	C 	0.33264 0.95665 0.99088 -0.02900
C 	C 	0.32844 0.95385 0.49458 -0.04300
C 	C 	0.31890 0.46418 0.95734 -0.04100
H 	H 	0.33383 0.87235 0.43040 0.03600
C 	C 	0.33438 0.55465 0.47198 0.00600
H 	H 	0.32640 0.63662 0.91506 0.03700
C 	C 	0.33825 0.62121 0.44056 -0.03700
H 	H 	0.33961 0.46548 0.44600 0.03700
H 	H 	0.33710 0.87282 0.92786 0.03600
H 	H 	0.34329 0.04188 0.43486 0.03400
C 	C 	0.34126 0.55975 0.97574 0.01500
H 	H 	0.34689 0.14751 0.54559 0.04500
C 	C 	0.34494 0.62573 0.94358 -0.03900
C 	C 	0.35537 0.86993 0.46480 -0.04300
C 	C 	0.35253 0.12088 0.46323 -0.00300
C 	C 	0.35371 0.12745 0.95500 -0.00600
H 	H 	0.34666 0.04928 0.93150 0.03400
H 	H 	0.34615 0.47049 0.94879 0.03800
H 	H 	0.35317 0.16170 0.04008 0.04400
C 	C 	0.35695 0.89134 0.50947 0.00600
H 	H 	0.35785 0.97535 0.49045 0.03700
C 	C 	0.35941 0.87184 0.96295 -0.03700
H 	H 	0.36136 0.97708 0.98554 0.03500
C 	C 	0.36192 0.89518 0.00785 0.00100
C 	C 	0.36472 0.08495 0.44539 -0.03800
C 	C 	0.36641 0.09136 0.93877 -0.03500
H 	H 	0.36869 0.73615 0.49991 0.04900
H 	H 	0.37009 0.21005 0.97687 0.03800
O 	O 	0.99735 0.99721 0.35552 -0.86700
C 	C 	0.56961 0.23510 0.88749 0.03000
C 	C 	0.58973 0.28666 0.88929 -0.07600
C 	C 	0.62525 0.30386 0.87834 0.03100
C 	C 	0.64087 0.26964 0.86595 -0.07600
C 	C 	0.62120 0.21834 0.86458 0.03100
C 	C 	0.58514 0.20088 0.87477 -0.07600
H 	H 	0.57790 0.31327 0.89928 0.04900
H 	H 	0.66923 0.28353 0.85873 0.05100
H 	H 	0.56997 0.16128 0.87386 0.05000
C 	C 	0.57385 0.24250 0.40526 0.03100
C 	C 	0.58873 0.29276 0.40429 -0.07700
C 	C 	0.62403 0.31363 0.39362 0.03100
C 	C 	0.64451 0.28434 0.38412 -0.07700
C 	C 	0.63039 0.23465 0.38596 0.03100
C 	C 	0.59463 0.21344 0.39595 -0.07700
H 	H 	0.57307 0.31556 0.41198 0.04900
H 	H 	0.67222 0.30081 0.37643 0.05000
H 	H 	0.58383 0.17512 0.39765 0.05000
C 	C 	0.48962 0.79023 0.99617 0.03500
C 	C 	0.47239 0.82447 0.00239 -0.08300
C 	C 	0.43067 0.80644 0.00386 0.01900
C 	C 	0.40638 0.75429 0.99962 -0.05400
C 	C 	0.42312 0.71962 0.99292 0.02200
C 	C 	0.46498 0.73780 0.99152 -0.07200
H 	H 	0.49115 0.86482 0.00563 0.04700
H 	H 	0.37398 0.74031 0.00060 0.03700
H 	H 	0.47778 0.71094 0.98590 0.04900
C 	C 	0.48261 0.78532 0.49256 0.03100
C 	C 	0.46611 0.82003 0.50022 -0.07700
C 	C 	0.42500 0.80228 0.50275 0.03100
C 	C 	0.40066 0.74996 0.49819 -0.07700
C 	C 	0.41670 0.71486 0.49009 0.03000
C 	C 	0.45792 0.73274 0.48760 -0.07700
H 	H 	0.48490 0.86050 0.50370 0.04900
H 	H 	0.47015 0.70553 0.48088 0.04800
Zn	Zn	0.91296 0.90434 0.87550 1.17700
Zn	Zn	0.99994 0.93174 0.97280 1.19600
C 	C 	0.90738 0.81857 0.90929 0.31800
C 	C 	0.89022 0.94379 0.94267 0.31500
O 	O 	0.95612 0.02320 0.91220 -0.45900
O 	O 	0.95585 0.85182 0.94735 -0.45100
O 	O 	0.88592 0.82990 0.87206 -0.46400
O 	O 	0.87333 0.92279 0.89319 -0.47500
O 	O 	0.93370 0.95386 0.97765 -0.47500
O 	O 	0.97764 0.92873 0.90135 -0.78300
C 	C 	0.95402 0.05672 0.94456 0.32000
O 	O 	0.98209 0.07392 0.99485 -0.48400
H 	H 	0.96670 0.98800 0.83593 0.16100
Zn	Zn	0.90580 0.90013 0.37022 1.17700
Zn	Zn	0.99193 0.92785 0.46887 1.19500
C 	C 	0.89860 0.81560 0.40573 0.31800
C 	C 	0.88190 0.93970 0.43600 0.31900
O 	O 	0.95005 0.01900 0.40637 -0.46300
O 	O 	0.94702 0.84833 0.44397 -0.45300
O 	O 	0.87818 0.82603 0.36735 -0.46500
O 	O 	0.86573 0.91895 0.38675 -0.47700
O 	O 	0.92517 0.94975 0.47143 -0.48000
O 	O 	0.97065 0.92406 0.39728 -0.78200
C 	C 	0.94919 0.05483 0.43804 0.32200
O 	O 	0.97386 0.06971 0.48801 -0.48500
H 	H 	0.96145 0.98234 0.33115 0.14600
C 	C 	0.38554 0.59140 0.51293 -0.04400
C 	C 	0.41280 0.64325 0.51813 -0.03700
C 	C 	0.38910 0.65863 0.48233 -0.00500
H 	H 	0.45202 0.67182 0.55051 0.03500
H 	H 	0.40391 0.58020 0.54122 0.03800
C 	C 	0.70676 0.84571 0.46684 -0.03800
C 	C 	0.72985 0.89780 0.47039 -0.00400
C 	C 	0.71244 0.93157 0.47792 -0.03800
H 	H 	0.73007 0.97187 0.48077 0.03600
C 	C 	0.67231 0.91340 0.48194 -0.04300
C 	C 	0.64924 0.86128 0.47839 0.00600
C 	C 	0.66666 0.82755 0.47084 -0.04400
H 	H 	0.64891 0.78714 0.46774 0.03600
C 	C 	0.60655 0.84178 0.48202 0.00600
C 	C 	0.56179 0.83350 0.44415 -0.04300
C 	C 	0.52114 0.81444 0.44726 -0.03700
C 	C 	0.52491 0.80352 0.48828 -0.00500
C 	C 	0.56957 0.81151 0.52601 -0.03700
C 	C 	0.61024 0.83059 0.52291 -0.04300
C 	C 	0.77193 0.91661 0.46575 0.02800
C 	C 	0.76662 0.92455 0.42299 -0.07100
C 	C 	0.80381 0.93504 0.41474 0.02100
C 	C 	0.84655 0.93739 0.44907 -0.10200
C 	C 	0.85323 0.93299 0.49372 0.01800
C 	C 	0.81603 0.92252 0.50190 -0.06900
H 	H 	0.79874 0.93979 0.38090 0.02900
H 	H 	0.88636 0.93570 0.52112 0.03400
H 	H 	0.82083 0.91745 0.53555 0.04400
H 	H 	0.73300 0.92086 0.39527 0.04400
H 	H 	0.55845 0.84161 0.41223 0.03700
H 	H 	0.48674 0.80820 0.41785 0.03500
H 	H 	0.64467 0.83692 0.55236 0.03500
H 	H 	0.57289 0.80341 0.55793 0.03500
H 	H 	0.65919 0.93979 0.48790 0.03800
H 	H 	0.71971 0.81920 0.46065 0.03600
C 	C 	0.37954 0.84296 0.46351 -0.03700
C 	C 	0.40531 0.83695 0.50674 -0.00500
C 	C 	0.40888 0.86051 0.55227 -0.03700
C 	C 	0.38498 0.88783 0.55373 -0.04300
H 	H 	0.37680 0.82508 0.42828 0.03500
H 	H 	0.42911 0.85646 0.58601 0.03600
H 	H 	0.38691 0.90475 0.58861 0.03700
C 	C 	0.39228 0.59693 0.01698 -0.05200
C 	C 	0.41938 0.64868 0.02193 -0.04700
C 	C 	0.39566 0.66354 0.98558 0.00800
H 	H 	0.41068 0.58610 0.04563 0.03700
H 	H 	0.45850 0.67757 0.05450 0.03500
C 	C 	0.72249 0.93870 0.98659 -0.03700
C 	C 	0.74075 0.90555 0.98046 -0.00500
C 	C 	0.71836 0.85397 0.97806 -0.03700
H 	H 	0.73197 0.82792 0.97295 0.03700
C 	C 	0.67793 0.83558 0.98152 -0.04200
C 	C 	0.65946 0.86854 0.98735 0.00400
C 	C 	0.68201 0.92028 0.99006 -0.04200
H 	H 	0.66812 0.94611 0.99476 0.03800
C 	C 	0.61594 0.84840 0.98962 0.01500
C 	C 	0.61884 0.83766 0.03050 -0.05200
C 	C 	0.57736 0.81790 0.03225 -0.04500
C 	C 	0.53270 0.80881 0.99319 0.00300
C 	C 	0.52972 0.81924 0.95215 -0.03600
C 	C 	0.57116 0.83896 0.95038 -0.04500
C 	C 	0.78246 0.92405 0.97520 0.03500
C 	C 	0.82682 0.93030 0.01121 -0.07800
C 	C 	0.86336 0.93974 0.00213 0.00800
C 	C 	0.85573 0.94274 0.95670 -0.09400
C 	C 	0.81284 0.94028 0.92259 0.01800
C 	C 	0.77636 0.93092 0.93178 -0.07200
H 	H 	0.89669 0.94269 0.02942 0.03300
H 	H 	0.80723 0.94437 0.88833 0.03200
H 	H 	0.74262 0.92716 0.90424 0.04400
H 	H 	0.83228 0.92616 0.04541 0.04300
H 	H 	0.65326 0.84484 0.06098 0.03400
H 	H 	0.58007 0.81019 0.06420 0.03400
H 	H 	0.56844 0.84669 0.91844 0.03800
H 	H 	0.49533 0.81217 0.92173 0.03700
H 	H 	0.66061 0.79547 0.97913 0.03700
H 	H 	0.73958 0.97861 0.98857 0.03600
C 	C 	0.39092 0.89351 0.05302 -0.04400
C 	C 	0.41493 0.86616 0.05234 -0.03700
C 	C 	0.41051 0.84075 0.00669 -0.01000
C 	C 	0.38369 0.84485 0.96243 -0.03000
H 	H 	0.43595 0.86358 0.08684 0.03500
H 	H 	0.38032 0.82554 0.92710 0.03600
H 	H 	0.39356 0.91191 0.08806 0.03700
C 	C 	0.76047 0.07263 0.37506 -0.03600
C 	C 	0.79759 0.10033 0.36843 -0.00500
C 	C 	0.79978 0.14204 0.35498 -0.03600
H 	H 	0.82798 0.16322 0.34923 0.03700
C 	C 	0.76738 0.15852 0.35173 -0.04300
C 	C 	0.73258 0.13342 0.36194 0.00700
C 	C 	0.72807 0.08916 0.37184 -0.04300
H 	H 	0.70104 0.06928 0.37939 0.03800
C 	C 	0.70574 0.15799 0.36891 0.00700
C 	C 	0.73208 0.20929 0.41269 -0.04300
C 	C 	0.70718 0.23367 0.41880 -0.03600
C 	C 	0.65573 0.20703 0.38111 -0.00500
C 	C 	0.62912 0.15516 0.33782 -0.03600
C 	C 	0.65407 0.13067 0.33176 -0.04300
C 	C 	0.83798 0.09098 0.38255 0.03200
C 	C 	0.88615 0.13153 0.42839 -0.07300
C 	C 	0.92332 0.12072 0.44507 0.02600
C 	C 	0.91270 0.06925 0.41602 -0.11300
C 	C 	0.86519 0.02970 0.36866 0.02600
C 	C 	0.82784 0.04037 0.35224 -0.07700
H 	H 	0.96003 0.15183 0.48128 0.02700
H 	H 	0.85660 0.98996 0.34565 0.01200
H 	H 	0.79078 0.00893 0.31664 0.04400
H 	H 	0.89434 0.17085 0.45188 0.04800
H 	H 	0.77190 0.23037 0.44181 0.04000
H 	H 	0.72792 0.27353 0.45253 0.03800
H 	H 	0.63343 0.09090 0.29797 0.03800
H 	H 	0.58936 0.13428 0.30856 0.03600
H 	H 	0.77070 0.19233 0.34345 0.03900
H 	H 	0.75832 0.04012 0.38515 0.03700
C 	C 	0.75234 0.61553 0.42247 -0.03700
C 	C 	0.77759 0.61573 0.39911 -0.00300
C 	C 	0.77299 0.56698 0.37390 -0.03700
H 	H 	0.79212 0.56665 0.35552 0.03600
C 	C 	0.74369 0.51853 0.37235 -0.04300
C 	C 	0.71852 0.51833 0.39581 0.00600
C 	C 	0.72288 0.56700 0.42079 -0.04400
H 	H 	0.70359 0.56724 0.43898 0.03600
C 	C 	0.68890 0.46752 0.39553 0.00600
C 	C 	0.64867 0.41916 0.34785 -0.04400
C 	C 	0.62506 0.36921 0.34735 -0.03700
C 	C 	0.64135 0.36729 0.39449 -0.00500
C 	C 	0.67955 0.41618 0.44226 -0.03600
C 	C 	0.70331 0.46613 0.44279 -0.04300
C 	C 	0.80865 0.66690 0.40082 0.02800
C 	C 	0.78676 0.69195 0.37705 -0.07100
C 	C 	0.81605 0.74016 0.37828 0.01800
C 	C 	0.86758 0.76375 0.40317 -0.09800
C 	C 	0.88946 0.73857 0.42693 0.02000
C 	C 	0.86012 0.69039 0.42576 -0.07000
H 	H 	0.79879 0.75953 0.36043 0.02900
H 	H 	0.92909 0.75613 0.44611 0.03400
H 	H 	0.87737 0.67138 0.44432 0.04600
H 	H 	0.74704 0.67402 0.35757 0.04400
H 	H 	0.63679 0.41996 0.31118 0.03700
H 	H 	0.59545 0.33166 0.31029 0.03600
H 	H 	0.73414 0.50328 0.47981 0.03800
H 	H 	0.69231 0.41506 0.47885 0.03700
H 	H 	0.74083 0.48126 0.35328 0.03800
H 	H 	0.75573 0.65300 0.44211 0.03500
C 	C 	0.38082 0.17667 0.47709 -0.03700
C 	C 	0.40365 0.10424 0.43954 -0.04300
C 	C 	0.43055 0.15956 0.45136 0.00600
C 	C 	0.41955 0.19589 0.47110 -0.04300
H 	H 	0.44006 0.23863 0.48033 0.03800
C 	C 	0.46807 0.17873 0.44014 0.00700
C 	C 	0.45372 0.15448 0.38868 -0.04300
C 	C 	0.48828 0.17537 0.37730 -0.03700
C 	C 	0.53737 0.22084 0.41720 -0.00500
C 	C 	0.55192 0.24475 0.46872 -0.03600
C 	C 	0.51746 0.22369 0.48020 -0.04300
H 	H 	0.41560 0.12005 0.35741 0.03700
H 	H 	0.47685 0.15651 0.33746 0.03600
H 	H 	0.52897 0.24259 0.52007 0.03800
H 	H 	0.58991 0.27959 0.49983 0.03700
H 	H 	0.41225 0.07601 0.42486 0.03700
H 	H 	0.37158 0.20469 0.49073 0.03700
C 	C 	0.79636 0.12847 0.85459 -0.03500
C 	C 	0.78897 0.08190 0.86121 -0.00400
C 	C 	0.74490 0.04754 0.85538 -0.03600
H 	H 	0.73856 0.01107 0.85974 0.03600
C 	C 	0.71036 0.06195 0.84696 -0.04300
C 	C 	0.71961 0.11074 0.84422 0.00700
C 	C 	0.76181 0.14285 0.84613 -0.04200
H 	H 	0.76908 0.18039 0.84368 0.04000
C 	C 	0.68907 0.13192 0.84632 0.00700
C 	C 	0.68965 0.14760 0.89109 -0.04200
C 	C 	0.66592 0.17404 0.89619 -0.03500
C 	C 	0.64126 0.18494 0.85650 -0.00400
C 	C 	0.63897 0.16730 0.81077 -0.03600
C 	C 	0.66288 0.14097 0.80575 -0.04300
C 	C 	0.83020 0.07371 0.88156 0.03100
C 	C 	0.85299 0.07869 0.93168 -0.07200
C 	C 	0.89390 0.07419 0.95254 0.02500
C 	C 	0.91242 0.06433 0.92336 -0.10800
C 	C 	0.88944 0.05910 0.87302 0.02100
C 	C 	0.84852 0.06387 0.85225 -0.07500
H 	H 	0.91058 0.07729 0.99100 0.03300
H 	H 	0.90333 0.05156 0.85010 0.01200
H 	H 	0.83120 0.06014 0.81354 0.04400
H 	H 	0.83916 0.08641 0.95463 0.04900
H 	H 	0.70989 0.14090 0.92267 0.04000
H 	H 	0.66797 0.18756 0.93166 0.03800
H 	H 	0.66199 0.12872 0.77090 0.03900
H 	H 	0.61962 0.17508 0.77970 0.03700
H 	H 	0.67752 0.03648 0.84478 0.03800
H 	H 	0.83010 0.15505 0.85868 0.03800
C 	C 	0.75981 0.51715 0.87198 -0.04200
C 	C 	0.73132 0.51353 0.89183 0.00700
C 	C 	0.73262 0.56032 0.91543 -0.04300
H 	H 	0.71074 0.55795 0.93083 0.03700
C 	C 	0.76202 0.61025 0.91897 -0.03700
C 	C 	0.79024 0.61374 0.89878 -0.00300
C 	C 	0.78904 0.56698 0.87533 -0.03700
H 	H 	0.81051 0.56919 0.85944 0.03700
C 	C 	0.82031 0.66607 0.90134 0.02800
C 	C 	0.79695 0.68945 0.87644 -0.07000
C 	C 	0.82530 0.73891 0.87872 0.01800
C 	C 	0.87739 0.76544 0.90573 -0.09700
C 	C 	0.90074 0.74186 0.93052 0.02000
C 	C 	0.87231 0.69245 0.92836 -0.06900
C 	C 	0.70042 0.46080 0.88816 0.00700
C 	C 	0.66258 0.41337 0.83907 -0.04300
C 	C 	0.63633 0.36241 0.83577 -0.03600
C 	C 	0.64751 0.35849 0.88149 -0.00400
C 	C 	0.68390 0.40625 0.93048 -0.03600
C 	C 	0.71032 0.45721 0.93383 -0.04300
H 	H 	0.60818 0.32575 0.79778 0.03700
H 	H 	0.69281 0.40357 0.96599 0.03800
H 	H 	0.73936 0.49360 0.97190 0.03900
H 	H 	0.65422 0.41583 0.80357 0.03800
H 	H 	0.75680 0.66928 0.85531 0.04500
H 	H 	0.80683 0.75691 0.85998 0.03000
H 	H 	0.89071 0.67476 0.94780 0.04700
H 	H 	0.94080 0.76163 0.95132 0.03600
H 	H 	0.76285 0.64617 0.93734 0.03600
H 	H 	0.75934 0.48136 0.85403 0.03900
C 	C 	0.40383 0.10917 0.93061 -0.04500
C 	C 	0.42872 0.16318 0.93853 0.01100
C 	C 	0.41707 0.19971 0.95635 -0.04400
H 	H 	0.43603 0.24144 0.96254 0.03900
C 	C 	0.37980 0.18196 0.96459 -0.03400
C 	C 	0.46522 0.18071 0.92579 0.00100
C 	C 	0.51471 0.22617 0.96451 -0.02800
C 	C 	0.54858 0.24452 0.95180 -0.04200
C 	C 	0.53328 0.21747 0.90033 -0.00100
C 	C 	0.48387 0.17194 0.86166 -0.03900
C 	C 	0.44996 0.15368 0.87430 -0.04000
H 	H 	0.58678 0.27942 0.98199 0.04000
H 	H 	0.47179 0.15073 0.82185 0.03700
H 	H 	0.41172 0.11890 0.84403 0.03700
H 	H 	0.52687 0.24729 0.00436 0.02600
H 	H 	0.41292 0.08082 0.91736 0.03900
