data_crystal

_cell_length_a 26.19389
_cell_length_b 26.46791
_cell_length_c 26.42552
_cell_angle_alpha 95.52011
_cell_angle_beta  95.52072
_cell_angle_gamma 125.84545

_symmetry_space_group_name_	'P 1'
_symmetry_space_group_name_H-M	'P 1'

loop_
_symmetry_equiv_pos_as_xyz
  x,y,z

loop_
_atom_site_label
_atom_site_type_symbol
_atom_site_fract_x
_atom_site_fract_y
_atom_site_fract_z
_atom_site_charge
C 	C 	0.97109 0.03125 0.00593 0.04400
C 	C 	0.93532 0.96746 0.01139 -0.06900
C 	C 	0.96192 0.93456 0.00736 0.03300
C 	C 	0.02542 0.96620 0.00025 -0.04900
C 	C 	0.06151 0.02992 0.99475 0.03000
C 	C 	0.03404 0.06225 0.99697 -0.07300
H 	H 	0.88621 0.94294 0.01706 0.05900
H 	H 	0.04609 0.94077 0.99752 0.05300
H 	H 	0.06124 0.11101 0.99133 0.06000
C 	C 	0.93487 0.99940 0.44436 0.04300
C 	C 	0.99864 0.03538 0.43729 -0.07800
C 	C 	0.03478 0.01236 0.44462 0.04400
C 	C 	0.00625 0.95235 0.45786 -0.06800
C 	C 	0.94164 0.91509 0.46301 0.04100
C 	C 	0.90619 0.93901 0.45670 -0.07300
H 	H 	0.02052 0.08180 0.42721 0.06300
H 	H 	0.03407 0.93446 0.46371 0.06200
H 	H 	0.85652 0.91077 0.46137 0.06000
Cu	Cu	0.64069 0.23996 0.99858 0.92800
Cu	Cu	0.71038 0.26515 0.89857 0.87100
Cu	Cu	0.67190 0.34249 0.93587 0.89600
Cu	Cu	0.62797 0.34824 0.03494 0.90000
C 	C 	0.64776 0.27819 0.10598 0.28600
O 	O 	0.54483 0.19492 0.99109 -0.35600
C 	C 	0.66761 0.31105 0.82395 0.28800
O 	O 	0.68597 0.33823 0.00752 -0.63500
O 	O 	0.63827 0.25176 0.92602 -0.64300
O 	O 	0.68742 0.20186 0.99703 -0.36500
O 	O 	0.76390 0.28050 0.96087 -0.43500
O 	O 	0.61479 0.29921 0.09146 -0.37400
O 	O 	0.71130 0.43243 0.94890 -0.37200
C 	C 	0.70576 0.46337 0.98764 0.28300
C 	C 	0.51736 0.21953 0.97211 0.28400
O 	O 	0.55274 0.28013 0.96971 -0.38500
O 	O 	0.66330 0.43343 0.01764 -0.37100
O 	O 	0.65594 0.24484 0.07188 -0.34300
C 	C 	0.74554 0.23442 0.98667 0.29700
O 	O 	0.66535 0.34617 0.86164 -0.36700
O 	O 	0.67553 0.26763 0.83286 -0.40900
H 	H 	0.73118 0.36802 0.02580 0.17300
H 	H 	0.59625 0.22248 0.90225 0.18600
Cu	Cu	0.73731 0.33877 0.43349 0.93000
Cu	Cu	0.72792 0.28178 0.53980 0.87500
Cu	Cu	0.63286 0.30101 0.49715 0.90000
Cu	Cu	0.62220 0.34398 0.39832 0.89900
C 	C 	0.69013 0.32216 0.32605 0.28600
O 	O 	0.77984 0.43275 0.43840 -0.35000
C 	C 	0.67067 0.31349 0.61001 0.28800
O 	O 	0.63751 0.28996 0.42580 -0.64000
O 	O 	0.72712 0.34337 0.50665 -0.64000
O 	O 	0.77997 0.29661 0.43561 -0.36500
O 	O 	0.70996 0.22403 0.48006 -0.42900
O 	O 	0.66779 0.35415 0.33935 -0.37100
O 	O 	0.54097 0.25478 0.48253 -0.37100
C 	C 	0.50953 0.26772 0.45092 0.29500
C 	C 	0.75297 0.45852 0.45554 0.28500
O 	O 	0.69276 0.42208 0.46067 -0.38500
O 	O 	0.53856 0.31028 0.42099 -0.38200
O 	O 	0.73004 0.32129 0.35994 -0.34600
C 	C 	0.75194 0.24116 0.44957 0.29300
O 	O 	0.62569 0.29820 0.57072 -0.36900
O 	O 	0.72248 0.31866 0.60267 -0.40800
H 	H 	0.60927 0.24523 0.40732 0.17700
H 	H 	0.75351 0.38660 0.52804 0.18000
C 	C 	0.65954 0.31830 0.66350 -0.06300
C 	C 	0.60897 0.26420 0.67973 0.00300
C 	C 	0.60698 0.26485 0.73289 0.00400
C 	C 	0.65741 0.31796 0.76982 -0.06200
C 	C 	0.70346 0.37442 0.75339 0.00000
C 	C 	0.70399 0.37476 0.70008 0.00300
C 	C 	0.56104 0.20691 0.64210 0.09000
C 	C 	0.75135 0.43142 0.79128 0.08600
C 	C 	0.75037 0.43288 0.68283 0.08500
C 	C 	0.55330 0.21092 0.74970 0.09000
N 	N 	0.78735 0.47924 0.66901 -0.11200
N 	N 	0.51049 0.16793 0.76317 -0.10900
N 	N 	0.78956 0.47690 0.82152 -0.10900
N 	N 	0.52280 0.16118 0.61210 -0.10900
C 	C 	0.68130 0.29902 0.27038 -0.06000
C 	C 	0.73401 0.32781 0.24464 0.00700
C 	C 	0.72326 0.31651 0.19002 0.00000
C 	C 	0.66004 0.27703 0.16141 -0.05700
C 	C 	0.60817 0.24187 0.18704 0.00600
C 	C 	0.61880 0.25297 0.24158 0.00100
C 	C 	0.79898 0.36964 0.27417 0.10300
C 	C 	0.54397 0.19452 0.15728 0.09700
C 	C 	0.56547 0.21755 0.26815 0.07400
C 	C 	0.77704 0.34636 0.16328 0.08700
N 	N 	0.52296 0.18935 0.28939 -0.11900
N 	N 	0.81990 0.37009 0.14188 -0.11100
N 	N 	0.49276 0.15676 0.13353 -0.10600
N 	N 	0.85088 0.40294 0.29767 -0.09800
C 	C 	0.83283 0.73588 0.43606 -0.01900
C 	C 	0.85993 0.72279 0.47672 0.00700
C 	C 	0.90906 0.77268 0.51604 -0.03600
C 	C 	0.93297 0.83549 0.51399 -0.01500
C 	C 	0.90972 0.84896 0.47085 -0.00100
C 	C 	0.85852 0.79878 0.43286 -0.03300
C 	C 	0.84005 0.65749 0.47636 0.02800
C 	C 	0.85508 0.63017 0.43820 -0.05900
C 	C 	0.82824 0.56557 0.43146 0.02700
C 	C 	0.78873 0.52831 0.46547 -0.08100
C 	C 	0.77782 0.55707 0.50617 0.01100
C 	C 	0.80232 0.62104 0.51126 -0.04100
C 	C 	0.83797 0.53729 0.38752 0.08500
C 	C 	0.78684 0.64832 0.55135 0.09500
C 	C 	0.77872 0.68494 0.39743 0.08700
C 	C 	0.98037 0.88565 0.55664 0.08400
N 	N 	0.84578 0.51477 0.35223 -0.09700
N 	N 	0.77447 0.67022 0.58346 -0.10900
N 	N 	0.01835 0.92586 0.59079 -0.10400
N 	N 	0.73539 0.64410 0.36650 -0.11000
H 	H 	0.83960 0.80885 0.40021 0.05000
H 	H 	0.92894 0.76258 0.54799 0.05300
H 	H 	0.88502 0.65857 0.41190 0.05900
H 	H 	0.74843 0.52903 0.53287 0.04300
C 	C 	0.85142 0.06457 0.38817 -0.01900
C 	C 	0.84345 0.09019 0.43336 0.00600
C 	C 	0.86101 0.08157 0.48177 -0.03700
C 	C 	0.88909 0.05018 0.48571 -0.01600
C 	C 	0.89891 0.02623 0.44064 -0.00300
C 	C 	0.87890 0.03257 0.39203 -0.03400
C 	C 	0.82009 0.12919 0.43078 0.02900
C 	C 	0.75397 0.09943 0.42123 -0.06200
C 	C 	0.73094 0.13568 0.42396 0.02900
C 	C 	0.77456 0.20253 0.43761 -0.08800
C 	C 	0.84071 0.23228 0.44413 0.01200
C 	C 	0.86363 0.19600 0.44070 -0.04300
C 	C 	0.66269 0.10407 0.41142 0.07700
C 	C 	0.93193 0.22761 0.44806 0.09400
C 	C 	0.83277 0.07210 0.33786 0.08800
C 	C 	0.90940 0.04436 0.53622 0.08300
N 	N 	0.60801 0.07874 0.40135 -0.10700
N 	N 	0.98662 0.25287 0.45394 -0.11200
N 	N 	0.92570 0.03966 0.57665 -0.10800
N 	N 	0.81782 0.07817 0.29757 -0.10700
H 	H 	0.88612 0.01385 0.35734 0.05000
H 	H 	0.85436 0.10084 0.51649 0.04900
H 	H 	0.72048 0.04802 0.41222 0.05800
H 	H 	0.87440 0.28366 0.45360 0.04100
C 	C 	0.21055 0.15236 0.47157 -0.01900
C 	C 	0.23639 0.12865 0.44141 0.00800
C 	C 	0.19533 0.06797 0.41013 -0.03500
C 	C 	0.12907 0.03111 0.40852 -0.01600
C 	C 	0.10383 0.05296 0.44159 -0.00100
C 	C 	0.14492 0.11379 0.47269 -0.03300
C 	C 	0.30672 0.16608 0.44390 0.02900
C 	C 	0.34675 0.18076 0.49082 -0.05800
C 	C 	0.41332 0.21756 0.49455 0.03000
C 	C 	0.44007 0.23477 0.44956 -0.07700
C 	C 	0.39989 0.21977 0.40253 0.01300
C 	C 	0.33379 0.18709 0.39980 -0.04100
C 	C 	0.45375 0.24180 0.54515 0.08800
C 	C 	0.29431 0.17649 0.35195 0.09500
C 	C 	0.25085 0.21661 0.50069 0.08800
C 	C 	0.08722 0.97221 0.37151 0.08600
N 	N 	0.48598 0.26133 0.58575 -0.09700
N 	N 	0.26267 0.16798 0.31363 -0.10800
N 	N 	0.05368 0.92503 0.34187 -0.10800
N 	N 	0.28316 0.26807 0.52400 -0.10700
H 	H 	0.12568 0.13113 0.49767 0.05200
H 	H 	0.21498 0.04983 0.38655 0.05400
H 	H 	0.32610 0.16524 0.52492 0.06000
H 	H 	0.42013 0.23365 0.36801 0.04300
C 	C 	0.87680 0.77700 0.05144 -0.01800
C 	C 	0.84879 0.73414 0.00367 0.01400
C 	C 	0.85624 0.75717 0.95726 -0.04400
C 	C 	0.89230 0.82249 0.95805 -0.02300
C 	C 	0.92144 0.86546 0.00580 0.00900
C 	C 	0.91306 0.84242 0.05225 -0.03600
C 	C 	0.81252 0.66500 0.00178 0.03200
C 	C 	0.74550 0.62698 0.99552 -0.06600
C 	C 	0.70994 0.56101 0.99080 0.02700
C 	C 	0.74185 0.53270 0.99305 -0.07100
C 	C 	0.80892 0.57087 0.99947 -0.00700
C 	C 	0.84437 0.63675 0.00383 -0.02800
C 	C 	0.64074 0.52263 0.98160 0.08000
C 	C 	0.91338 0.67505 0.01014 0.09400
C 	C 	0.86883 0.75420 0.09970 0.08900
C 	C 	0.89926 0.84517 0.90973 0.08400
N 	N 	0.58532 0.49190 0.97422 -0.10600
N 	N 	0.96867 0.70580 0.01521 -0.10800
N 	N 	0.90490 0.86341 0.87108 -0.11000
N 	N 	0.86242 0.73587 0.13834 -0.10800
H 	H 	0.93518 0.87545 0.08897 0.05300
H 	H 	0.83434 0.72415 0.92053 0.05400
H 	H 	0.72101 0.64872 0.99354 0.05700
H 	H 	0.83351 0.54920 0.00107 0.04700
C 	C 	0.85697 0.07002 0.96600 -0.02300
C 	C 	0.88044 0.12385 0.00391 0.01000
C 	C 	0.93278 0.14628 0.04326 -0.03600
C 	C 	0.96229 0.11603 0.04479 -0.01800
C 	C 	0.94064 0.06396 0.00550 0.00800
C 	C 	0.88797 0.04130 0.96637 -0.04300
C 	C 	0.85085 0.15747 0.00233 0.04100
C 	C 	0.81406 0.15285 0.03937 -0.06800
C 	C 	0.78251 0.18107 0.03664 0.04500
C 	C 	0.78526 0.21177 0.99489 -0.10100
C 	C 	0.82472 0.21893 0.95937 0.01900
C 	C 	0.85837 0.19309 0.96350 -0.05500
C 	C 	0.75052 0.18122 0.07820 0.08500
C 	C 	0.90063 0.20340 0.92779 0.09300
C 	C 	0.80057 0.04347 0.92708 0.08600
C 	C 	0.01296 0.13715 0.08780 0.08900
N 	N 	0.72499 0.18137 0.11155 -0.09400
N 	N 	0.93448 0.21160 0.89919 -0.11600
N 	N 	0.05345 0.15411 0.12239 -0.10300
N 	N 	0.75539 0.02225 0.89591 -0.11200
H 	H 	0.87067 0.00076 0.93653 0.05100
H 	H 	0.95024 0.18705 0.07289 0.05300
H 	H 	0.81013 0.12740 0.07038 0.06100
H 	H 	0.82846 0.24381 0.92797 0.02200
C 	C 	0.19812 0.06367 0.92995 -0.01600
C 	C 	0.25181 0.10973 0.96876 -0.00300
C 	C 	0.24304 0.13361 0.01415 -0.02700
C 	C 	0.18120 0.10901 0.02268 -0.01100
C 	C 	0.12734 0.06181 0.98440 -0.00300
C 	C 	0.13634 0.04062 0.93768 -0.03600
C 	C 	0.31708 0.13028 0.96386 0.03100
C 	C 	0.34985 0.17141 0.92993 -0.06000
C 	C 	0.41383 0.19629 0.92864 0.02600
C 	C 	0.44660 0.18266 0.96371 -0.07800
C 	C 	0.41232 0.13801 0.99501 0.00400
C 	C 	0.34777 0.11143 0.99490 -0.04800
C 	C 	0.44447 0.23334 0.88983 0.08000
C 	C 	0.31341 0.06515 0.02702 0.10700
C 	C 	0.20586 0.03844 0.88281 0.08600
C 	C 	0.17340 0.13009 0.07183 0.08900
N 	N 	0.46902 0.26298 0.85872 -0.10300
N 	N 	0.28585 0.02808 0.05275 -0.10800
N 	N 	0.16734 0.14700 0.11130 -0.10100
N 	N 	0.21211 0.01824 0.84505 -0.10700
H 	H 	0.09502 0.00461 0.90808 0.05300
H 	H 	0.28438 0.16956 0.04377 0.05200
H 	H 	0.32559 0.18420 0.90468 0.05900
H 	H 	0.43646 0.12552 0.02073 0.06300
