data_crystal

_cell_length_a 18.71271
_cell_length_b 18.89429
_cell_length_c 26.32067
_cell_angle_alpha 95.42495
_cell_angle_beta  95.42580
_cell_angle_gamma 126.41544

_symmetry_space_group_name_	'P 1'
_symmetry_space_group_name_H-M	'P 1'

loop_
_symmetry_equiv_pos_as_xyz
  x,y,z

loop_
_atom_site_label
_atom_site_type_symbol
_atom_site_fract_x
_atom_site_fract_y
_atom_site_fract_z
_atom_site_charge
C 	C 	0.93487 0.01797 0.98735 0.03900
C 	C 	0.87526 0.92469 0.98212 -0.08300
C 	C 	0.90772 0.87455 0.97919 0.04000
C 	C 	0.99932 0.91675 0.97896 -0.08100
C 	C 	0.05950 0.00979 0.98333 0.03600
C 	C 	0.02745 0.06089 0.98781 -0.08700
H 	H 	0.80390 0.89138 0.98163 0.05500
H 	H 	0.02413 0.87745 0.97648 0.05400
H 	H 	0.07396 0.13307 0.99180 0.05200
C 	C 	0.94105 0.03021 0.47551 0.03900
C 	C 	0.89277 0.93736 0.47356 -0.08300
C 	C 	0.93942 0.90011 0.47562 0.04200
C 	C 	0.03286 0.95490 0.47734 -0.08300
C 	C 	0.08059 0.04688 0.47880 0.04000
C 	C 	0.03544 0.08505 0.48107 -0.08300
H 	H 	0.81987 0.89458 0.46994 0.05300
H 	H 	0.06802 0.92550 0.47621 0.05400
H 	H 	0.07302 0.15674 0.48367 0.05700
Cu	Cu	0.61250 0.19964 0.00880 0.92500
Cu	Cu	0.65543 0.17061 0.89114 0.87300
Cu	Cu	0.63663 0.32470 0.93495 0.90900
Cu	Cu	0.58998 0.35173 0.03701 0.89500
C 	C 	0.64031 0.27797 0.11602 0.30100
O 	O 	0.47702 0.12975 0.00904 -0.35600
C 	C 	0.63913 0.28048 0.83025 0.30800
O 	O 	0.66761 0.33437 0.00799 -0.63900
O 	O 	0.59050 0.19789 0.93278 -0.63300
O 	O 	0.69821 0.16758 0.01371 -0.35900
O 	O 	0.65191 0.09097 0.93048 -0.42300
O 	O 	0.59115 0.30404 0.10127 -0.39100
O 	O 	0.69017 0.44937 0.93918 -0.38100
C 	C 	0.68197 0.49643 0.97516 0.29700
C 	C 	0.43276 0.15980 0.99211 0.28600
O 	O 	0.47713 0.23990 0.98063 -0.39700
O 	O 	0.62313 0.45781 0.00628 -0.39300
O 	O 	0.64516 0.22378 0.08345 -0.35100
C 	C 	0.70584 0.12310 0.97575 0.29100
O 	O 	0.60446 0.30719 0.86048 -0.38100
O 	O 	0.69394 0.26455 0.85089 -0.42800
H 	H 	0.73270 0.38057 0.02276 0.16000
H 	H 	0.52534 0.15641 0.91721 0.15700
Cu	Cu	0.76596 0.35743 0.44573 0.92100
Cu	Cu	0.77930 0.30210 0.56152 0.87700
Cu	Cu	0.63621 0.33759 0.51561 0.90900
Cu	Cu	0.60547 0.36862 0.40775 0.89900
C 	C 	0.70073 0.33703 0.33685 0.30800
O 	O 	0.82696 0.49162 0.44766 -0.35800
C 	C 	0.65577 0.30451 0.61578 0.29900
O 	O 	0.62804 0.29919 0.44261 -0.63200
O 	O 	0.76112 0.37351 0.52092 -0.63000
O 	O 	0.80648 0.27836 0.44225 -0.36100
O 	O 	0.86880 0.31420 0.52806 -0.42200
O 	O 	0.67374 0.38485 0.35113 -0.38900
O 	O 	0.51866 0.31233 0.50998 -0.37600
C 	C 	0.45882 0.27469 0.46640 0.29600
C 	C 	0.78978 0.52978 0.46331 0.28300
O 	O 	0.70494 0.48007 0.46912 -0.39900
O 	O 	0.48253 0.30588 0.42336 -0.39500
O 	O 	0.74881 0.32693 0.37106 -0.36100
C 	C 	0.84420 0.26591 0.48182 0.29300
O 	O 	0.64524 0.35508 0.59035 -0.38000
O 	O 	0.67203 0.25289 0.59145 -0.42200
H 	H 	0.58372 0.23364 0.43025 0.15500
H 	H 	0.80538 0.43732 0.53774 0.15300
C 	C 	0.63164 0.28569 0.77479 -0.11500
C 	C 	0.58907 0.20774 0.73727 -0.06300
C 	C 	0.59073 0.21276 0.68461 0.16300
C 	C 	0.63820 0.29682 0.66929 -0.11100
C 	C 	0.67649 0.37438 0.70655 -0.06500
C 	C 	0.67291 0.36901 0.75917 0.17000
H 	H 	0.55565 0.14322 0.74899 0.03700
O 	O 	0.54797 0.13566 0.64834 -0.29000
H 	H 	0.71209 0.43921 0.69508 0.05700
O 	O 	0.71452 0.44582 0.79551 -0.28700
H 	H 	0.66749 0.45421 0.79866 0.15100
H 	H 	0.48581 0.11646 0.63734 0.14000
C 	C 	0.66784 0.28828 0.17208 -0.10100
C 	C 	0.73920 0.37302 0.20094 -0.06500
C 	C 	0.75591 0.38752 0.25534 0.17200
C 	C 	0.69966 0.31732 0.28126 -0.10700
C 	C 	0.63255 0.23107 0.25241 -0.06200
C 	C 	0.61604 0.21640 0.19794 0.16700
H 	H 	0.77997 0.42841 0.18126 0.04900
O 	O 	0.82415 0.47148 0.28311 -0.29300
H 	H 	0.59003 0.17634 0.27214 0.05100
O 	O 	0.54825 0.13226 0.17012 -0.28000
H 	H 	0.49286 0.12864 0.16665 0.14300
H 	H 	0.87804 0.47270 0.28904 0.14900
C 	C 	0.86223 0.68063 0.51487 -0.02700
C 	C 	0.83794 0.62698 0.46626 -0.10700
C 	C 	0.84108 0.66212 0.42053 0.12100
C 	C 	0.86466 0.74854 0.42436 -0.08900
C 	C 	0.89048 0.80270 0.47293 -0.01800
C 	C 	0.88788 0.76795 0.51869 0.06600
N 	N 	0.90899 0.81760 0.56630 -0.19400
H 	H 	0.85815 0.65328 0.54984 0.03500
H 	H 	0.86790 0.77565 0.38937 0.05300
N 	N 	0.82275 0.61387 0.37296 -0.20800
H 	H 	0.90922 0.79250 0.59998 0.08100
H 	H 	0.92302 0.88043 0.57030 0.08600
H 	H 	0.81502 0.55419 0.36903 0.11700
H 	H 	0.82070 0.63829 0.33928 0.09200
C 	C 	0.85373 0.07792 0.51032 -0.08500
C 	C 	0.89323 0.07039 0.46955 -0.01900
C 	C 	0.90166 0.11578 0.42794 0.06600
C 	C 	0.88453 0.17902 0.43211 -0.02500
C 	C 	0.85121 0.19140 0.47488 -0.11000
C 	C 	0.82783 0.13427 0.51174 0.11100
N 	N 	0.77660 0.12966 0.54652 -0.19900
H 	H 	0.84339 0.04021 0.54109 0.04900
H 	H 	0.89754 0.21875 0.40215 0.04900
N 	N 	0.92528 0.09822 0.38391 -0.19300
H 	H 	0.76550 0.09280 0.57603 0.07700
H 	H 	0.74058 0.15529 0.54164 0.03300
H 	H 	0.92803 0.04458 0.37734 0.08300
H 	H 	0.93618 0.13515 0.35446 0.08300
C 	C 	0.23964 0.10795 0.51117 -0.08900
C 	C 	0.17668 0.10209 0.47394 -0.01800
C 	C 	0.20578 0.14752 0.43178 0.06500
C 	C 	0.29839 0.20689 0.43148 -0.02700
C 	C 	0.36148 0.21172 0.46818 -0.10800
C 	C 	0.33049 0.15621 0.50603 0.12200
N 	N 	0.38544 0.14390 0.53467 -0.19800
H 	H 	0.21692 0.07068 0.54249 0.05100
H 	H 	0.32102 0.24703 0.40144 0.04600
N 	N 	0.14521 0.13145 0.39056 -0.19300
H 	H 	0.36483 0.11007 0.56575 0.08200
H 	H 	0.44411 0.15891 0.52305 0.07800
H 	H 	0.07709 0.07648 0.38483 0.08400
H 	H 	0.16716 0.16994 0.36150 0.08000
C 	C 	0.78552 0.65195 0.02365 -0.02200
C 	C 	0.73158 0.59275 0.97665 -0.11600
C 	C 	0.73043 0.62669 0.93112 0.13200
C 	C 	0.79031 0.71910 0.93250 -0.09100
C 	C 	0.84632 0.77810 0.97919 -0.02000
C 	C 	0.84216 0.74460 0.02558 0.06900
N 	N 	0.89203 0.80090 0.07198 -0.19400
H 	H 	0.78457 0.62570 0.05871 0.03200
H 	H 	0.79191 0.74540 0.89738 0.05400
N 	N 	0.66977 0.57152 0.88679 -0.20200
H 	H 	0.88958 0.77528 0.10581 0.08100
H 	H 	0.93221 0.87035 0.07524 0.08700
H 	H 	0.61620 0.50483 0.88649 0.09800
H 	H 	0.67262 0.59652 0.85266 0.08500
C 	C 	0.89194 0.10631 0.94971 -0.08400
C 	C 	0.89921 0.06989 0.99211 -0.02400
C 	C 	0.85485 0.06624 0.03364 0.07100
C 	C 	0.79285 0.08543 0.02818 -0.02200
C 	C 	0.77932 0.11402 0.98349 -0.11300
C 	C 	0.83515 0.13200 0.94609 0.11100
N 	N 	0.83735 0.17698 0.90814 -0.19900
H 	H 	0.92891 0.11280 0.91888 0.04900
H 	H 	0.75418 0.07674 0.05841 0.05000
N 	N 	0.87106 0.04370 0.07851 -0.19400
H 	H 	0.87399 0.18470 0.87876 0.07500
H 	H 	0.80902 0.21069 0.90978 0.03400
H 	H 	0.92156 0.03563 0.08505 0.08500
H 	H 	0.83552 0.03755 0.10825 0.08400
C 	C 	0.27736 0.07640 0.94241 -0.02600
C 	C 	0.33476 0.10806 0.99079 -0.11400
C 	C 	0.30160 0.10927 0.03685 0.12300
C 	C 	0.21335 0.08323 0.03338 -0.08500
C 	C 	0.15668 0.05338 0.98497 -0.02200
C 	C 	0.18914 0.05045 0.93895 0.06500
N 	N 	0.13662 0.02437 0.89139 -0.19300
H 	H 	0.30299 0.07625 0.90715 0.03400
H 	H 	0.18766 0.08338 0.06862 0.05100
N 	N 	0.35394 0.13519 0.08444 -0.20700
H 	H 	0.16017 0.02020 0.85761 0.07900
H 	H 	0.07314 0.01036 0.88738 0.08400
H 	H 	0.41712 0.14869 0.08852 0.10100
H 	H 	0.33019 0.13903 0.11819 0.08200
