data_crystal

_cell_length_a 43.81928
_cell_length_b 41.97146
_cell_length_c 22.91470
_cell_angle_alpha 89.95044
_cell_angle_beta  89.95159
_cell_angle_gamma 89.84179

_symmetry_space_group_name_	'P 1'
_symmetry_space_group_name_H-M	'P 1'

loop_
_symmetry_equiv_pos_as_xyz
  x,y,z

loop_
_atom_site_label
_atom_site_type_symbol
_atom_site_fract_x
_atom_site_fract_y
_atom_site_fract_z
_atom_site_charge
C 	C 	0.51556 0.52347 0.94199 0.01100
C 	C 	0.53234 0.49464 0.94900 0.01100
C 	C 	0.48350 0.52300 0.94396 -0.05400
C 	C 	0.46805 0.49425 0.95434 0.01100
C 	C 	0.51682 0.46568 0.95659 -0.05400
C 	C 	0.48482 0.46533 0.96007 0.01100
H 	H 	0.52951 0.44351 0.95807 0.05000
H 	H 	0.47066 0.54464 0.93578 0.05000
C 	C 	0.46860 0.43656 0.96716 -0.01300
C 	C 	0.43694 0.43630 0.97511 0.00900
C 	C 	0.42612 0.40815 0.00277 -0.05300
C 	C 	0.44960 0.38687 0.01743 -0.00200
S 	S 	0.48259 0.40301 0.99565 -0.01100
H 	H 	0.40218 0.40260 0.00817 0.04300
C 	C 	0.43584 0.49315 0.95708 -0.01300
C 	C 	0.42044 0.46480 0.97054 0.00600
C 	C 	0.39098 0.46990 0.99495 -0.05100
C 	C 	0.38393 0.50222 0.00187 -0.00400
S 	S 	0.41337 0.52346 0.97679 -0.01000
H 	H 	0.37514 0.45096 0.00521 0.04100
C 	C 	0.56370 0.55306 0.93464 0.00700
C 	C 	0.53169 0.55205 0.93177 -0.01300
S 	S 	0.51853 0.58860 0.94631 -0.01100
C 	C 	0.55216 0.60643 0.95582 -0.00100
C 	C 	0.57527 0.58393 0.94727 -0.05300
C 	C 	0.56453 0.49567 0.94642 -0.01300
C 	C 	0.58019 0.52473 0.94229 0.00700
C 	C 	0.61052 0.52319 0.96416 -0.05300
C 	C 	0.61794 0.49323 0.98686 -0.00100
S 	S 	0.58787 0.46935 0.97820 -0.01100
H 	H 	0.62655 0.54273 0.96203 0.04200
H 	H 	0.59931 0.58966 0.94910 0.04200
C 	C 	0.43273 0.28667 0.02672 -0.00400
C 	C 	0.42310 0.30676 0.07209 -0.03500
C 	C 	0.42904 0.33946 0.06942 -0.04500
C 	C 	0.44480 0.35225 0.02156 0.01300
C 	C 	0.45466 0.33207 0.97643 -0.04300
C 	C 	0.44874 0.29943 0.97914 -0.03500
H 	H 	0.41064 0.29712 0.10893 0.03700
H 	H 	0.42121 0.35487 0.10429 0.04000
H 	H 	0.46638 0.34175 0.93877 0.04100
H 	H 	0.45627 0.28408 0.94393 0.03600
C 	C 	0.29168 0.53545 0.01020 -0.00300
C 	C 	0.30460 0.51920 0.05774 -0.03500
C 	C 	0.33485 0.50863 0.05511 -0.04500
C 	C 	0.35250 0.51444 0.00516 0.01300
C 	C 	0.33964 0.53088 0.95774 -0.04300
C 	C 	0.30937 0.54136 0.96029 -0.03400
H 	H 	0.29116 0.51462 0.09653 0.03700
H 	H 	0.34456 0.49587 0.09182 0.04000
H 	H 	0.35291 0.53504 0.91857 0.04100
H 	H 	0.29952 0.55366 0.92319 0.03800
C 	C 	0.71047 0.46298 0.00982 -0.00400
C 	C 	0.69965 0.49032 0.03828 -0.03500
C 	C 	0.66926 0.49979 0.03161 -0.04600
C 	C 	0.64946 0.48205 0.99626 0.01500
C 	C 	0.66024 0.45442 0.96833 -0.04400
C 	C 	0.69061 0.44490 0.97528 -0.03400
H 	H 	0.71485 0.50437 0.06515 0.03700
H 	H 	0.66115 0.52105 0.05357 0.03900
H 	H 	0.64534 0.44075 0.94026 0.04200
H 	H 	0.69885 0.42381 0.95297 0.03800
C 	C 	0.56413 0.70752 0.95638 -0.00400
C 	C 	0.57985 0.68841 0.99668 -0.03400
C 	C 	0.57632 0.65534 0.99573 -0.04400
C 	C 	0.55689 0.64112 0.95474 0.01300
C 	C 	0.54182 0.66019 0.91336 -0.04300
C 	C 	0.54544 0.69327 0.91421 -0.03500
H 	H 	0.59436 0.69924 0.02933 0.03700
H 	H 	0.58822 0.64080 0.02756 0.03900
H 	H 	0.52728 0.64943 0.88069 0.04100
H 	H 	0.53328 0.70787 0.88285 0.03700
Zn	Zn	0.37709 0.09512 0.98615 1.22000
C 	C 	0.41102 0.15169 0.01707 0.31900
O 	O 	0.39317 0.08162 0.90957 -0.46600
O 	O 	0.43142 0.13246 0.04033 -0.45200
O 	O 	0.43848 0.10719 0.92007 -0.50000
C 	C 	0.40545 0.06630 0.08543 0.33100
O 	O 	0.38471 0.08705 0.06902 -0.45700
O 	O 	0.42822 0.05946 0.05047 -0.51800
C 	C 	0.41794 0.09394 0.88656 0.32200
O 	O 	0.34525 0.04982 0.98738 -0.34000
Zn	Zn	0.44517 0.09137 0.99827 1.17000
O 	O 	0.38913 0.14010 0.98414 -0.44000
C 	C 	0.32332 0.06979 0.97656 0.28000
O 	O 	0.33131 0.09934 0.97223 -0.38600
C 	C 	0.46633 0.99794 0.44719 0.00700
C 	C 	0.49161 0.97668 0.44735 0.00800
C 	C 	0.46497 0.02289 0.48806 -0.05700
C 	C 	0.48849 0.02673 0.52916 0.00800
C 	C 	0.51498 0.98044 0.48864 -0.05600
C 	C 	0.51352 0.00521 0.52971 0.00800
H 	H 	0.53423 0.96418 0.48884 0.04800
H 	H 	0.44582 0.03925 0.48777 0.04700
C 	C 	0.53674 0.00917 0.57165 -0.01500
C 	C 	0.53527 0.03350 0.61368 0.00400
C 	C 	0.55203 0.02602 0.66534 -0.05500
C 	C 	0.56459 0.99527 0.66538 -0.00300
S 	S 	0.55607 0.97899 0.60123 -0.01400
H 	H 	0.55123 0.04038 0.70446 0.03800
C 	C 	0.48789 0.05193 0.56983 -0.01500
C 	C 	0.51060 0.05510 0.61267 0.00400
C 	C 	0.50037 0.07236 0.66264 -0.05700
C 	C 	0.46966 0.08152 0.65963 -0.00300
S 	S 	0.45602 0.06825 0.59635 -0.01600
H 	H 	0.51348 0.07459 0.70235 0.03800
C 	C 	0.44579 0.97064 0.36106 0.00400
C 	C 	0.44307 0.99380 0.40520 -0.01300
S 	S 	0.42227 0.02371 0.37800 -0.02000
C 	C 	0.41597 0.00896 0.31168 -0.00100
C 	C 	0.43018 0.97919 0.30874 -0.05600
C 	C 	0.49257 0.95177 0.40613 -0.01400
C 	C 	0.47019 0.94882 0.36269 0.00400
C 	C 	0.48061 0.93151 0.31300 -0.05600
C 	C 	0.51137 0.92282 0.31634 -0.00100
S 	S 	0.52466 0.93554 0.38027 -0.01600
H 	H 	0.46754 0.92892 0.27330 0.04000
H 	H 	0.43288 0.96663 0.26790 0.04000
Zn	Zn	0.59663 0.90312 0.98676 1.22100
C 	C 	0.56330 0.84424 0.97045 0.32100
O 	O 	0.58782 0.93181 0.92043 -0.46100
O 	O 	0.53863 0.85806 0.99096 -0.45700
O 	O 	0.54515 0.90481 0.89479 -0.49200
C 	C 	0.55601 0.90916 0.08478 0.33100
O 	O 	0.58086 0.89517 0.06526 -0.45600
O 	O 	0.53702 0.92291 0.04830 -0.51600
C 	C 	0.56630 0.92568 0.88231 0.31800
O 	O 	0.62729 0.94353 0.02862 -0.32700
Zn	Zn	0.52795 0.90460 0.97253 1.17100
O 	O 	0.58631 0.86155 0.95176 -0.43800
C 	C 	0.65011 0.92574 0.01266 0.27900
O 	O 	0.64291 0.89957 0.98633 -0.38800
Zn	Zn	0.11065 0.59778 0.01495 1.21900
C 	C 	0.07427 0.65295 0.04284 0.31800
O 	O 	0.10239 0.58986 0.09823 -0.45300
O 	O 	0.05502 0.63284 0.06693 -0.45200
O 	O 	0.06009 0.56070 0.07911 -0.51800
C 	C 	0.07169 0.59572 0.91364 0.32600
O 	O 	0.09600 0.58355 0.93868 -0.47400
O 	O 	0.04913 0.60656 0.94554 -0.50500
C 	C 	0.08262 0.56812 0.11412 0.33000
O 	O 	0.14335 0.55304 0.01215 -0.34100
Zn	Zn	0.04290 0.59146 0.02438 1.16800
O 	O 	0.09693 0.64224 0.01062 -0.44500
C 	C 	0.16530 0.57372 0.01144 0.27900
O 	O 	0.15686 0.60331 0.01246 -0.39000
C 	C 	0.00288 0.52857 0.55653 0.00600
C 	C 	0.97756 0.50752 0.55797 0.00600
C 	C 	0.02611 0.52411 0.51500 -0.05800
C 	C 	0.02431 0.49901 0.47464 0.00600
C 	C 	0.97549 0.48273 0.51693 -0.05800
C 	C 	0.99872 0.47832 0.47533 0.00700
H 	H 	0.95606 0.46683 0.51766 0.04700
H 	H 	0.04551 0.54004 0.51414 0.04700
C 	C 	0.99757 0.45304 0.43487 -0.01500
C 	C 	0.02012 0.44909 0.39197 0.00400
C 	C 	0.00980 0.43113 0.34311 -0.05700
C 	C 	0.97912 0.42222 0.34697 -0.00200
S 	S 	0.96550 0.43677 0.40952 -0.01800
H 	H 	0.02301 0.42781 0.30371 0.03700
C 	C 	0.04757 0.49405 0.43287 -0.01500
C 	C 	0.04491 0.47028 0.38990 0.00300
C 	C 	0.06102 0.47777 0.33749 -0.05600
C 	C 	0.07505 0.50765 0.33879 -0.00200
S 	S 	0.06838 0.52339 0.40425 -0.01600
H 	H 	0.05844 0.46458 0.29732 0.03900
C 	C 	0.98244 0.55688 0.64180 0.00400
C 	C 	0.00420 0.55377 0.59716 -0.01500
S 	S 	0.03646 0.57030 0.62092 -0.01800
C 	C 	0.02409 0.58325 0.68547 -0.00200
C 	C 	0.99341 0.57459 0.69049 -0.05600
C 	C 	0.95506 0.51159 0.60159 -0.01400
C 	C 	0.95847 0.53475 0.64556 0.00400
C 	C 	0.94423 0.52600 0.69923 -0.05600
C 	C 	0.93026 0.49619 0.69730 -0.00100
S 	S 	0.93520 0.48152 0.63047 -0.02000
H 	H 	0.94779 0.53849 0.73987 0.03900
H 	H 	0.98087 0.57737 0.73081 0.04000
Zn	Zn	0.89156 0.40383 0.01702 1.22000
C 	C 	0.92568 0.34780 0.98287 0.32300
O 	O 	0.90574 0.41604 0.09533 -0.46500
O 	O 	0.94743 0.36672 0.96399 -0.45200
O 	O 	0.95127 0.39052 0.08660 -0.50000
C 	C 	0.92168 0.43445 0.92087 0.33100
O 	O 	0.90047 0.41382 0.93520 -0.45800
O 	O 	0.94444 0.43988 0.95657 -0.51900
C 	C 	0.93036 0.40393 0.11930 0.32200
O 	O 	0.85888 0.44863 0.01791 -0.34300
Zn	Zn	0.95967 0.40718 0.00938 1.16800
O 	O 	0.90403 0.35895 0.01697 -0.44300
C 	C 	0.83715 0.42806 0.02499 0.28200
O 	O 	0.84569 0.39856 0.02719 -0.38800
C 	C 	0.00225 0.97218 0.04831 0.01000
C 	C 	0.01938 0.00066 0.04062 0.01000
C 	C 	0.97021 0.97361 0.05137 -0.05400
C 	C 	0.95505 0.00299 0.04508 0.00900
C 	C 	0.00426 0.03009 0.03585 -0.05500
C 	C 	0.97223 0.03140 0.03700 0.01100
H 	H 	0.01733 0.05191 0.03322 0.04900
H 	H 	0.95726 0.95222 0.06044 0.04900
C 	C 	0.95654 0.06075 0.03270 -0.01500
C 	C 	0.92461 0.06213 0.03076 0.00700
C 	C 	0.91325 0.09029 0.00374 -0.05500
C 	C 	0.93650 0.11033 0.98334 -0.00100
S 	S 	0.96989 0.09336 0.99992 -0.00900
H 	H 	0.88928 0.09641 0.00132 0.04200
C 	C 	0.92291 0.00529 0.04898 -0.01300
C 	C 	0.90767 0.03425 0.03905 0.00700
C 	C 	0.87669 0.03037 0.02210 -0.05400
C 	C 	0.86824 0.99835 0.01736 -0.00100
S 	S 	0.89841 0.97583 0.03510 -0.01200
H 	H 	0.86094 0.04995 0.01552 0.04200
C 	C 	0.04994 0.94128 0.04811 0.00700
C 	C 	0.01814 0.94303 0.05494 -0.01300
S 	S 	0.00391 0.90705 0.04021 -0.01200
C 	C 	0.03682 0.88848 0.02548 -0.00200
C 	C 	0.06051 0.91040 0.03235 -0.05300
C 	C 	0.05157 0.99875 0.04012 -0.01300
C 	C 	0.06674 0.96933 0.04077 0.00700
C 	C 	0.09682 0.97075 0.01748 -0.05400
C 	C 	0.10459 0.00117 0.99733 -0.00000
S 	S 	0.07490 0.02536 0.00965 -0.01200
H 	H 	0.11269 0.95095 0.01804 0.04200
H 	H 	0.08438 0.90407 0.02821 0.04200
C 	C 	0.92955 0.21160 0.96650 -0.00300
C 	C 	0.94479 0.19366 0.92376 -0.03500
C 	C 	0.94651 0.16049 0.92875 -0.04400
C 	C 	0.93288 0.14499 0.97632 0.01400
C 	C 	0.91739 0.16293 0.01879 -0.04500
C 	C 	0.91572 0.19606 0.01387 -0.03600
H 	H 	0.95546 0.20543 0.88694 0.03700
H 	H 	0.95861 0.14687 0.89588 0.04100
H 	H 	0.90721 0.15128 0.05622 0.04000
H 	H 	0.90412 0.20973 0.04733 0.03800
C 	C 	0.77514 0.96752 0.02185 -0.00200
C 	C 	0.78513 0.98849 0.97815 -0.03500
C 	C 	0.81557 0.99833 0.97660 -0.04300
C 	C 	0.83633 0.98727 0.01866 0.01200
C 	C 	0.82628 0.96640 0.06260 -0.04300
C 	C 	0.79582 0.95652 0.06408 -0.03600
H 	H 	0.76936 0.99698 0.94520 0.03700
H 	H 	0.82307 0.01447 0.94258 0.03900
H 	H 	0.84189 0.95818 0.09602 0.04100
H 	H 	0.78828 0.94045 0.09814 0.03800
C 	C 	0.19733 0.03220 0.98589 -0.00200
C 	C 	0.18575 0.01045 0.94511 -0.03600
C 	C 	0.15537 0.00050 0.94872 -0.04500
C 	C 	0.13630 0.01236 0.99288 0.01400
C 	C 	0.14789 0.03418 0.03361 -0.04400
C 	C 	0.17826 0.04410 0.03004 -0.03600
H 	H 	0.20035 0.00103 0.91104 0.03700
H 	H 	0.14668 0.98352 0.91730 0.04000
H 	H 	0.13351 0.04311 0.06847 0.04100
H 	H 	0.18703 0.06085 0.06177 0.03800
C 	C 	0.05211 0.78809 0.03985 -0.00500
C 	C 	0.06125 0.80461 0.98952 -0.03400
C 	C 	0.05592 0.83735 0.98471 -0.04400
C 	C 	0.04115 0.85381 0.02987 0.01300
C 	C 	0.03187 0.83731 0.08014 -0.04400
C 	C 	0.03733 0.80457 0.08510 -0.03500
H 	H 	0.07249 0.79206 0.95417 0.03600
H 	H 	0.06330 0.84993 0.94590 0.04000
H 	H 	0.02087 0.84990 0.11569 0.04100
H 	H 	0.03032 0.79208 0.12426 0.03700
C 	C 	0.95513 0.29740 0.96917 0.02200
C 	C 	0.92696 0.31343 0.97018 -0.09900
C 	C 	0.89982 0.29602 0.96444 0.02400
C 	C 	0.90075 0.26281 0.96063 -0.07000
C 	C 	0.92881 0.24668 0.96274 0.03000
C 	C 	0.95604 0.26415 0.96564 -0.07200
H 	H 	0.97624 0.31056 0.97345 0.02000
H 	H 	0.87797 0.30817 0.96417 0.03300
H 	H 	0.87963 0.24955 0.95750 0.04700
H 	H 	0.97783 0.25191 0.96708 0.04500
C 	C 	0.92692 0.47607 0.74978 0.01300
C 	C 	0.95175 0.45797 0.77251 -0.00200
C 	C 	0.94858 0.44304 0.82709 0.00100
C 	C 	0.92251 0.44798 0.86139 -0.12000
C 	C 	0.89870 0.46771 0.84031 0.08500
C 	C 	0.90028 0.47954 0.78305 -0.09000
H 	H 	0.96728 0.42896 0.84442 0.01900
H 	H 	0.88181 0.49424 0.76646 0.05100
C 	C 	0.98273 0.45663 0.74234 -0.09400
C 	C 	0.87479 0.48122 0.88122 -0.13300
C 	C 	0.99120 0.42286 0.72172 -0.02200
H 	H 	0.98842 0.40539 0.75776 0.02600
H 	H 	0.01570 0.42260 0.70914 0.02200
C 	C 	0.88765 0.50999 0.91451 -0.00500
H 	H 	0.89606 0.52805 0.88284 0.02200
H 	H 	0.90719 0.50235 0.94216 0.02400
H 	H 	0.98519 0.47355 0.70558 0.05000
H 	H 	0.86664 0.46276 0.91194 0.07200
C 	C 	0.97251 0.41202 0.66921 -0.15800
C 	C 	0.86368 0.52567 0.95349 -0.17000
H 	H 	0.97768 0.42717 0.63073 0.06100
H 	H 	0.97865 0.38705 0.65824 0.05600
H 	H 	0.94772 0.41298 0.67909 0.06500
H 	H 	0.00023 0.46423 0.77452 0.03700
H 	H 	0.84314 0.53228 0.92775 0.05900
H 	H 	0.87331 0.54762 0.97313 0.05300
H 	H 	0.85704 0.50939 0.98942 0.07200
H 	H 	0.85439 0.48884 0.85584 0.05500
C 	C 	0.96001 0.41868 0.29455 0.00900
C 	C 	0.94948 0.38836 0.27687 0.00300
C 	C 	0.93791 0.38441 0.22020 -0.00300
C 	C 	0.93693 0.41010 0.18115 -0.11400
C 	C 	0.94543 0.44089 0.20028 0.06400
C 	C 	0.95612 0.44499 0.25746 -0.08300
H 	H 	0.93048 0.36106 0.20593 0.03500
H 	H 	0.96310 0.46845 0.27205 0.04700
C 	C 	0.95040 0.35996 0.31788 -0.09400
C 	C 	0.94320 0.46958 0.16016 -0.10300
C 	C 	0.97520 0.33567 0.30099 -0.02400
H 	H 	0.97205 0.32785 0.25505 0.03000
H 	H 	0.97265 0.31429 0.32920 0.02700
C 	C 	0.91141 0.48495 0.16370 -0.02800
H 	H 	0.90836 0.49609 0.20733 0.03000
H 	H 	0.89336 0.46665 0.15823 0.04900
H 	H 	0.95336 0.36716 0.36416 0.04900
H 	H 	0.94869 0.46288 0.11442 0.01800
C 	C 	0.00748 0.34865 0.30863 -0.15600
C 	C 	0.90717 0.51040 0.11671 -0.15100
H 	H 	0.01086 0.35745 0.35387 0.06000
H 	H 	0.02428 0.32934 0.30019 0.05400
H 	H 	0.01183 0.36822 0.27712 0.05900
H 	H 	0.92792 0.34779 0.31605 0.04600
H 	H 	0.92469 0.52931 0.12133 0.04300
H 	H 	0.88422 0.52144 0.12121 0.05400
H 	H 	0.90894 0.49960 0.07256 0.05100
H 	H 	0.96059 0.48759 0.17274 0.03600
C 	C 	0.03894 0.69942 0.05253 0.02000
C 	C 	0.06883 0.68755 0.04740 -0.10000
C 	C 	0.09333 0.70892 0.04273 0.02200
C 	C 	0.08792 0.74175 0.04169 -0.07100
C 	C 	0.05796 0.75355 0.04503 0.03000
C 	C 	0.03354 0.73226 0.05120 -0.07300
H 	H 	0.01981 0.68322 0.05587 0.01700
H 	H 	0.11652 0.70010 0.03940 0.03400
H 	H 	0.10696 0.75802 0.03762 0.04600
H 	H 	0.01033 0.74113 0.05375 0.04400
C 	C 	0.06740 0.59223 0.85044 -0.12200
C 	C 	0.06378 0.61926 0.81428 0.08400
C 	C 	0.05249 0.61541 0.75738 -0.09100
C 	C 	0.04414 0.58522 0.73693 0.01300
C 	C 	0.05065 0.55785 0.77133 -0.00400
C 	C 	0.06288 0.56175 0.82741 -0.00300
H 	H 	0.04877 0.63614 0.72999 0.05000
H 	H 	0.06726 0.54100 0.85442 0.02300
C 	C 	0.07261 0.65224 0.83545 -0.12600
C 	C 	0.04533 0.52436 0.74851 -0.09100
C 	C 	0.10738 0.65655 0.83875 -0.01100
H 	H 	0.11772 0.63797 0.86716 0.03500
H 	H 	0.11222 0.68004 0.85904 0.02900
C 	C 	0.07327 0.51203 0.71497 -0.02600
H 	H 	0.09256 0.50847 0.74580 0.03000
H 	H 	0.08053 0.52963 0.68155 0.03500
H 	H 	0.06280 0.67097 0.80657 0.05200
H 	H 	0.02469 0.52305 0.72078 0.05000
C 	C 	0.12253 0.65554 0.77866 -0.16100
C 	C 	0.06639 0.48048 0.68461 -0.15700
H 	H 	0.11204 0.67349 0.74914 0.05800
H 	H 	0.14720 0.66100 0.78317 0.05800
H 	H 	0.12030 0.63148 0.75901 0.06400
H 	H 	0.06261 0.65672 0.87924 0.06500
H 	H 	0.05993 0.46211 0.71725 0.05200
H 	H 	0.08700 0.47214 0.66083 0.05600
H 	H 	0.04750 0.48353 0.65272 0.06000
H 	H 	0.04076 0.50800 0.78572 0.03700
C 	C 	0.08243 0.55601 0.17464 -0.11900
C 	C 	0.10790 0.53976 0.19892 0.08600
C 	C 	0.10568 0.52699 0.25546 -0.09000
C 	C 	0.07791 0.52736 0.28571 0.01400
C 	C 	0.05224 0.54302 0.26084 -0.00400
C 	C 	0.05533 0.55844 0.20688 0.00100
H 	H 	0.12516 0.51474 0.27429 0.05100
H 	H 	0.03604 0.57132 0.18873 0.01800
C 	C 	0.13644 0.53286 0.16344 -0.13000
C 	C 	0.02141 0.54377 0.29119 -0.09200
C 	C 	0.13742 0.49831 0.14124 -0.00800
H 	H 	0.13690 0.48150 0.17875 0.02400
H 	H 	0.15938 0.49450 0.11790 0.02600
C 	C 	0.01750 0.57435 0.32721 -0.02500
H 	H 	0.01482 0.59502 0.29725 0.02800
H 	H 	0.03797 0.57866 0.35460 0.03600
H 	H 	0.13956 0.54943 0.12647 0.07100
H 	H 	0.01771 0.52244 0.31877 0.05100
C 	C 	0.11126 0.49043 0.09963 -0.16100
C 	C 	0.98955 0.57246 0.36691 -0.15800
H 	H 	0.11043 0.50769 0.06297 0.06500
H 	H 	0.11476 0.46620 0.08137 0.05100
H 	H 	0.08908 0.49073 0.12313 0.05800
H 	H 	0.15669 0.53667 0.19177 0.05600
H 	H 	0.96859 0.56854 0.34065 0.05500
H 	H 	0.98702 0.59512 0.39140 0.05700
H 	H 	0.99219 0.55268 0.39881 0.06300
H 	H 	0.00299 0.54287 0.25783 0.03800
C 	C 	0.68897 0.96835 0.02940 0.01000
C 	C 	0.68214 0.93621 0.01835 -0.07800
C 	C 	0.70608 0.91423 0.01076 0.01100
C 	C 	0.73641 0.92438 0.01285 -0.06400
C 	C 	0.74316 0.95658 0.02262 0.02600
C 	C 	0.71934 0.97847 0.03142 -0.06500
H 	H 	0.67080 0.98558 0.03546 0.03700
H 	H 	0.70120 0.88931 0.00287 0.04000
H 	H 	0.75466 0.90730 0.00611 0.04600
H 	H 	0.72435 0.00336 0.03935 0.04400
C 	C 	0.56541 0.94307 0.82638 -0.11100
C 	C 	0.53854 0.95889 0.80733 0.07500
C 	C 	0.53825 0.97352 0.75237 -0.08500
C 	C 	0.56502 0.97592 0.71914 0.01200
C 	C 	0.59208 0.96103 0.73877 0.00100
C 	C 	0.59194 0.94447 0.79211 -0.00100
H 	H 	0.51748 0.98484 0.73690 0.05000
H 	H 	0.61267 0.93298 0.80733 0.03800
C 	C 	0.51136 0.96387 0.84761 -0.11800
C 	C 	0.62170 0.96428 0.70519 -0.09300
C 	C 	0.51710 0.99002 0.89321 -0.02300
H 	H 	0.53706 0.98367 0.92078 0.00900
H 	H 	0.49684 0.99150 0.92231 -0.00100
C 	C 	0.63807 0.99528 0.72159 -0.02500
H 	H 	0.64325 0.99526 0.76910 0.03200
H 	H 	0.62314 0.01609 0.71200 0.03200
H 	H 	0.49077 0.97037 0.82180 0.04300
H 	H 	0.61742 0.96356 0.65743 0.05000
C 	C 	0.52227 0.02280 0.86568 -0.15500
C 	C 	0.66785 0.99903 0.68772 -0.15700
H 	H 	0.50377 0.02869 0.83436 0.05100
H 	H 	0.52252 0.04123 0.90040 0.03600
H 	H 	0.54456 0.02346 0.84262 0.05900
H 	H 	0.50499 0.94148 0.87003 0.01300
H 	H 	0.68357 0.97890 0.69741 0.05700
H 	H 	0.67913 0.02160 0.70068 0.05500
H 	H 	0.66327 0.99984 0.64006 0.05700
H 	H 	0.63689 0.94367 0.71498 0.04700
C 	C 	0.55080 0.91219 0.14803 -0.11800
C 	C 	0.54488 0.88517 0.18350 0.08500
C 	C 	0.53710 0.88964 0.24240 -0.08900
C 	C 	0.53063 0.92012 0.26383 0.01400
C 	C 	0.53722 0.94717 0.22885 -0.00200
C 	C 	0.54852 0.94278 0.17211 0.00100
H 	H 	0.53295 0.86906 0.26992 0.05100
H 	H 	0.55403 0.96337 0.14551 0.03000
C 	C 	0.54335 0.85175 0.15817 -0.13000
C 	C 	0.53276 0.98084 0.25155 -0.09100
C 	C 	0.51054 0.83879 0.15682 -0.01200
H 	H 	0.50111 0.83750 0.20180 0.02600
H 	H 	0.51108 0.81408 0.13948 0.02400
C 	C 	0.56131 0.99264 0.28352 -0.02600
H 	H 	0.58024 0.99566 0.25167 0.03100
H 	H 	0.56873 0.97498 0.31676 0.03600
H 	H 	0.55338 0.84990 0.11392 0.07000
H 	H 	0.51251 0.98267 0.28034 0.05000
C 	C 	0.48915 0.85879 0.11881 -0.15500
C 	C 	0.55531 0.02444 0.31384 -0.15600
H 	H 	0.49834 0.86100 0.07392 0.04100
H 	H 	0.46650 0.84706 0.11646 0.04900
H 	H 	0.48595 0.88292 0.13774 0.05400
H 	H 	0.55733 0.83570 0.18610 0.05500
H 	H 	0.54855 0.04282 0.28139 0.05200
H 	H 	0.57639 0.03246 0.33624 0.05600
H 	H 	0.53690 0.02187 0.34691 0.05900
H 	H 	0.52796 0.99718 0.21440 0.03900
C 	C 	0.28029 0.04217 0.02610 0.01200
C 	C 	0.29112 0.06025 0.97893 -0.08300
C 	C 	0.27100 0.06946 0.93438 0.01400
C 	C 	0.24038 0.06017 0.93647 -0.06600
C 	C 	0.22963 0.04183 0.98338 0.02700
C 	C 	0.24970 0.03290 0.02820 -0.06800
H 	H 	0.29539 0.03581 0.06161 0.02600
H 	H 	0.27912 0.08358 0.89797 0.03300
H 	H 	0.22500 0.06732 0.90181 0.04600
H 	H 	0.24157 0.01886 0.06471 0.04400
C 	C 	0.45052 0.08368 0.71237 0.01000
C 	C 	0.43874 0.11330 0.73148 0.00300
C 	C 	0.42577 0.11562 0.78738 -0.00300
C 	C 	0.42476 0.08906 0.82442 -0.11400
C 	C 	0.43458 0.05897 0.80370 0.06600
C 	C 	0.44680 0.05649 0.74728 -0.08400
H 	H 	0.41751 0.13848 0.80292 0.03400
H 	H 	0.45478 0.03356 0.73151 0.04800
C 	C 	0.44018 0.14278 0.69319 -0.09400
C 	C 	0.43191 0.02928 0.84112 -0.10600
C 	C 	0.46452 0.16654 0.71385 -0.02400
H 	H 	0.46056 0.17300 0.76030 0.03000
H 	H 	0.46229 0.18872 0.68765 0.02600
C 	C 	0.40032 0.01403 0.83446 -0.02600
H 	H 	0.39755 0.00520 0.78904 0.03100
H 	H 	0.38208 0.03188 0.84296 0.04800
H 	H 	0.44397 0.13689 0.64650 0.04900
H 	H 	0.43662 0.03476 0.88769 0.02400
C 	C 	0.49701 0.15380 0.70680 -0.15500
C 	C 	0.39622 0.98619 0.87667 -0.15200
H 	H 	0.50120 0.14639 0.66095 0.05900
H 	H 	0.51353 0.17281 0.71817 0.05400
H 	H 	0.50095 0.13329 0.73650 0.05900
H 	H 	0.41760 0.15491 0.69477 0.04500
H 	H 	0.41399 0.96774 0.86891 0.04600
H 	H 	0.37343 0.97530 0.86996 0.05500
H 	H 	0.39773 0.99463 0.92253 0.05200
H 	H 	0.44952 0.01160 0.82786 0.03900
C 	C 	0.41193 0.02916 0.25956 0.01300
C 	C 	0.43683 0.04582 0.23398 -0.00100
C 	C 	0.43315 0.05971 0.17867 0.00200
C 	C 	0.40638 0.05506 0.14642 -0.12000
C 	C 	0.38201 0.03753 0.17110 0.08600
C 	C 	0.38434 0.02679 0.22900 -0.09000
H 	H 	0.45198 0.07262 0.15914 0.01700
H 	H 	0.36562 0.01352 0.24812 0.05100
C 	C 	0.46825 0.04698 0.26236 -0.09400
C 	C 	0.35623 0.02500 0.13359 -0.13100
C 	C 	0.47731 0.08085 0.28104 -0.02200
H 	H 	0.47405 0.09792 0.24446 0.02500
H 	H 	0.50200 0.08089 0.29207 0.02200
C 	C 	0.36587 0.99384 0.10349 -0.00500
H 	H 	0.37429 0.97659 0.13670 0.02400
H 	H 	0.38473 0.99862 0.07223 0.02700
H 	H 	0.47107 0.03051 0.29968 0.05100
H 	H 	0.34900 0.04288 0.10082 0.07200
C 	C 	0.45956 0.09257 0.33423 -0.15800
C 	C 	0.33946 0.97849 0.07053 -0.16900
H 	H 	0.46514 0.07772 0.37292 0.06100
H 	H 	0.46611 0.11754 0.34394 0.05600
H 	H 	0.43461 0.09193 0.32587 0.06500
H 	H 	0.48521 0.03867 0.22958 0.03800
H 	H 	0.31975 0.97446 0.10013 0.05900
H 	H 	0.34694 0.95514 0.05272 0.05500
H 	H 	0.33223 0.99376 0.03353 0.07400
H 	H 	0.33584 0.02053 0.16135 0.05400
C 	C 	0.40539 0.23992 0.98546 -0.06900
C 	C 	0.42504 0.25252 0.02775 0.02800
C 	C 	0.43857 0.23221 0.06899 -0.07100
C 	C 	0.43328 0.19938 0.06673 0.01700
C 	C 	0.41445 0.18657 0.02303 -0.09800
C 	C 	0.40010 0.20715 0.98305 0.02000
H 	H 	0.39464 0.25549 0.95376 0.04700
H 	H 	0.45365 0.24178 0.10203 0.04500
H 	H 	0.44410 0.18391 0.09848 0.02900
H 	H 	0.38545 0.19772 0.94921 0.03800
C 	C 	0.22086 0.58700 0.00694 0.01100
C 	C 	0.19773 0.56405 0.01226 -0.08200
C 	C 	0.20567 0.53172 0.01797 0.01000
C 	C 	0.23632 0.52246 0.01771 -0.06600
C 	C 	0.25937 0.54538 0.01195 0.02600
C 	C 	0.25153 0.57769 0.00684 -0.06600
H 	H 	0.21513 0.61201 0.00257 0.03900
H 	H 	0.18813 0.51374 0.02234 0.03400
H 	H 	0.24216 0.49744 0.02151 0.04400
H 	H 	0.26918 0.59557 0.00265 0.04500
C 	C 	0.75177 0.42755 0.04713 -0.06600
C 	C 	0.74289 0.45412 0.01406 0.02600
C 	C 	0.76499 0.47215 0.98469 -0.06700
C 	C 	0.79577 0.46366 0.98825 0.01400
C 	C 	0.80476 0.43720 0.02169 -0.08500
C 	C 	0.78259 0.41912 0.05098 0.01400
H 	H 	0.73481 0.41350 0.06993 0.04600
H 	H 	0.75826 0.49255 0.95866 0.04400
H 	H 	0.81250 0.47721 0.96402 0.02800
H 	H 	0.78925 0.39865 0.07690 0.03700
C 	C 	0.54970 0.75776 0.00686 -0.07200
C 	C 	0.56527 0.74244 0.96136 0.03000
C 	C 	0.58117 0.76055 0.91985 -0.07000
C 	C 	0.58116 0.79383 0.92346 0.02100
C 	C 	0.56504 0.80921 0.96839 -0.10000
C 	C 	0.54952 0.79096 0.01031 0.01900
H 	H 	0.53741 0.74393 0.03913 0.04600
H 	H 	0.59330 0.74886 0.88460 0.04700
H 	H 	0.59313 0.80762 0.89071 0.03600
H 	H 	0.53716 0.80251 0.04534 0.02700
