data_crystal

_cell_length_a 32.11439
_cell_length_b 29.07312
_cell_length_c 32.54238
_cell_angle_alpha 92.67379
_cell_angle_beta  85.32206
_cell_angle_gamma 124.33999

_symmetry_space_group_name_	'P 1'
_symmetry_space_group_name_H-M	'P 1'

loop_
_symmetry_equiv_pos_as_xyz
  x,y,z

loop_
_atom_site_label
_atom_site_type_symbol
_atom_site_fract_x
_atom_site_fract_y
_atom_site_fract_z
_atom_site_charge
C 	C 	0.92874 0.84086 0.95545 0.00000
C 	C 	0.96369 0.86158 0.92109 -0.02400
C 	C 	0.99543 0.91894 0.91395 -0.06500
C 	C 	0.99258 0.95614 0.94099 0.07900
C 	C 	0.95743 0.93530 0.97549 -0.06800
C 	C 	0.92578 0.87795 0.98264 -0.02200
N 	N 	0.02507 0.01516 0.93252 -0.14300
C 	C 	0.94768 0.09526 0.93509 0.00100
C 	C 	0.97154 0.09716 0.96999 -0.02100
C 	C 	0.99740 0.07135 0.96934 -0.06600
C 	C 	0.99954 0.04320 0.93365 0.08200
C 	C 	0.97593 0.04173 0.89877 -0.06600
C 	C 	0.95018 0.06766 0.89943 -0.02200
C 	C 	0.16943 0.10185 0.98217 -0.00000
C 	C 	0.16427 0.11387 0.94239 -0.02100
C 	C 	0.11662 0.08570 0.92658 -0.06600
C 	C 	0.07360 0.04535 0.95032 0.08200
C 	C 	0.07862 0.03450 0.99077 -0.07000
C 	C 	0.12636 0.06249 0.00645 -0.01900
C 	C 	0.86401 0.16939 0.94131 0.04500
C 	C 	0.83944 0.11208 0.93396 -0.03400
C 	C 	0.86685 0.08795 0.93152 -0.02900
C 	C 	0.91909 0.12104 0.93622 0.01400
C 	C 	0.94379 0.17858 0.94279 -0.02900
C 	C 	0.91632 0.20265 0.94533 -0.03600
C 	C 	0.83235 0.66508 0.97700 0.04400
C 	C 	0.81137 0.69496 0.96988 -0.03700
C 	C 	0.84283 0.75241 0.96297 -0.02900
C 	C 	0.89549 0.78034 0.96310 0.01300
C 	C 	0.91641 0.75038 0.97029 -0.02900
C 	C 	0.88495 0.69295 0.97710 -0.03400
C 	C 	0.31735 0.18158 0.02586 0.04600
C 	C 	0.30432 0.14778 0.99061 -0.03900
C 	C 	0.25592 0.12139 0.97660 -0.02800
C 	C 	0.22014 0.12873 0.99765 0.01300
C 	C 	0.23300 0.16210 0.03322 -0.02800
C 	C 	0.28143 0.18830 0.04735 -0.03400
H 	H 	0.96612 0.83323 0.89984 0.04300
H 	H 	0.02220 0.93459 0.88729 0.05400
H 	H 	0.95505 0.96344 0.99690 0.05300
H 	H 	0.89915 0.86235 0.00941 0.04800
H 	H 	0.96947 0.11802 0.99777 0.04800
H 	H 	0.01468 0.07213 0.99677 0.05300
H 	H 	0.97745 0.02025 0.87120 0.05600
H 	H 	0.93203 0.06618 0.87228 0.04300
H 	H 	0.19726 0.14462 0.92356 0.04700
H 	H 	0.11309 0.09472 0.89563 0.05700
H 	H 	0.04578 0.00505 0.01016 0.05500
H 	H 	0.12994 0.05318 0.03731 0.04300
H 	H 	0.79904 0.08616 0.93079 0.06100
H 	H 	0.84744 0.04349 0.92651 0.04900
H 	H 	0.98415 0.20451 0.94618 0.04900
H 	H 	0.93554 0.24698 0.95092 0.05900
H 	H 	0.77078 0.67367 0.96964 0.05900
H 	H 	0.82635 0.77516 0.95728 0.04800
H 	H 	0.95699 0.77161 0.97063 0.04900
H 	H 	0.90141 0.67009 0.98249 0.06000
H 	H 	0.33183 0.14226 0.97395 0.06000
H 	H 	0.24621 0.09535 0.94933 0.04800
H 	H 	0.20566 0.16806 0.04967 0.04900
H 	H 	0.29119 0.21422 0.07469 0.06300
C 	C 	0.90335 0.82032 0.52842 0.00100
C 	C 	0.92377 0.85773 0.49509 -0.02100
C 	C 	0.94674 0.91472 0.50219 -0.06800
C 	C 	0.95260 0.93535 0.54278 0.08300
C 	C 	0.93177 0.89807 0.57592 -0.06600
C 	C 	0.90647 0.84085 0.56885 -0.02000
N 	N 	0.97887 0.99427 0.55087 -0.14300
C 	C 	0.92083 0.07874 0.50166 0.00200
C 	C 	0.89618 0.04399 0.53620 -0.02200
C 	C 	0.91504 0.01569 0.55171 -0.06300
C 	C 	0.95844 0.02130 0.53274 0.08200
C 	C 	0.98204 0.05432 0.49704 -0.06500
C 	C 	0.96347 0.08323 0.48180 -0.02200
C 	C 	0.13792 0.08072 0.55788 0.00100
C 	C 	0.11442 0.04417 0.52494 -0.02200
C 	C 	0.06254 0.01712 0.52151 -0.06600
C 	C 	0.03325 0.02541 0.55164 0.08100
C 	C 	0.05707 0.06298 0.58394 -0.06500
C 	C 	0.10913 0.09063 0.58704 -0.02200
C 	C 	0.85854 0.16537 0.46269 0.04700
C 	C 	0.86513 0.13132 0.43476 -0.04000
C 	C 	0.88701 0.10441 0.44699 -0.02800
C 	C 	0.90273 0.11161 0.48718 0.01300
C 	C 	0.89800 0.14746 0.51451 -0.02800
C 	C 	0.87552 0.17370 0.50248 -0.03300
C 	C 	0.82444 0.64328 0.51227 0.04300
C 	C 	0.81871 0.67490 0.48481 -0.03000
C 	C 	0.84430 0.73254 0.49001 -0.02800
C 	C 	0.87843 0.75965 0.52110 0.01400
C 	C 	0.88726 0.72837 0.54630 -0.02900
C 	C 	0.85964 0.67041 0.54247 -0.03900
C 	C 	0.29588 0.15517 0.56855 0.04600
C 	C 	0.26096 0.12489 0.60161 -0.04000
C 	C 	0.20948 0.10120 0.59837 -0.02900
C 	C 	0.19255 0.10796 0.56210 0.01300
C 	C 	0.22765 0.13896 0.52927 -0.02800
C 	C 	0.27899 0.16193 0.53232 -0.03300
H 	H 	0.92201 0.84274 0.46376 0.04200
H 	H 	0.96082 0.94288 0.47626 0.05200
H 	H 	0.93496 0.91356 0.60722 0.05600
H 	H 	0.88935 0.81247 0.59479 0.04400
H 	H 	0.86273 0.03947 0.55133 0.04500
H 	H 	0.89634 0.98989 0.57889 0.05600
H 	H 	0.01458 0.05765 0.48120 0.05200
H 	H 	0.98253 0.10955 0.45489 0.04600
H 	H 	0.13633 0.03649 0.50210 0.04300
H 	H 	0.04549 0.99047 0.49530 0.05100
H 	H 	0.03499 0.07008 0.60701 0.05700
H 	H 	0.12702 0.11940 0.61225 0.04500
H 	H 	0.85212 0.12460 0.40398 0.05900
H 	H 	0.89050 0.07686 0.42563 0.04800
H 	H 	0.91057 0.15385 0.54543 0.05000
H 	H 	0.87027 0.19955 0.52438 0.06600
H 	H 	0.79295 0.65455 0.46046 0.06500
H 	H 	0.83686 0.75589 0.47042 0.05000
H 	H 	0.91484 0.74884 0.56935 0.04600
H 	H 	0.86510 0.64654 0.56333 0.05700
H 	H 	0.27366 0.11931 0.62964 0.05700
H 	H 	0.18271 0.07700 0.62377 0.04600
H 	H 	0.21507 0.14479 0.50127 0.04900
H 	H 	0.30566 0.18490 0.50653 0.06400
Co	Co	0.71732 0.32484 0.99260 1.18600
O 	O 	0.77104 0.31968 0.95566 -0.35500
Co	Co	0.61694 0.32893 0.02010 1.18700
O 	O 	0.65095 0.29950 0.96792 -0.45700
O 	O 	0.67990 0.40262 0.02908 -0.42100
O 	O 	0.71001 0.24686 0.98568 -0.34000
C 	C 	0.71816 0.42814 0.00104 0.36500
O 	O 	0.61625 0.34191 0.95587 -0.34700
C 	C 	0.52452 0.27759 0.05017 0.31900
C 	C 	0.68375 0.31747 0.07190 0.31400
O 	O 	0.56014 0.32899 0.05663 -0.36300
O 	O 	0.54128 0.25471 0.02543 -0.32500
O 	O 	0.72838 0.33190 0.05727 -0.35000
O 	O 	0.65167 0.29618 0.04359 -0.45300
O 	O 	0.74228 0.40503 0.98604 -0.51900
C 	C 	0.74993 0.26712 0.96094 0.32000
C 	C 	0.64396 0.32493 0.94052 0.31900
H 	H 	0.77563 0.42880 0.96924 0.19300
Co	Co	0.69918 0.30201 0.48757 1.19000
O 	O 	0.75235 0.30059 0.44669 -0.36200
Co	Co	0.59746 0.29888 0.52351 1.18700
O 	O 	0.62850 0.26890 0.46894 -0.45200
O 	O 	0.65725 0.37687 0.52980 -0.41400
O 	O 	0.69859 0.22797 0.48097 -0.31900
C 	C 	0.70013 0.40268 0.50619 0.36400
O 	O 	0.58831 0.30646 0.46013 -0.35200
C 	C 	0.50790 0.24368 0.56010 0.31300
C 	C 	0.67524 0.29937 0.56871 0.31000
O 	O 	0.54254 0.29584 0.56488 -0.36400
O 	O 	0.52401 0.22197 0.53337 -0.31400
O 	O 	0.71917 0.31692 0.55041 -0.33800
O 	O 	0.63944 0.27304 0.54363 -0.45200
O 	O 	0.71064 0.37575 0.47772 -0.52500
C 	C 	0.73610 0.24947 0.45358 0.31400
C 	C 	0.61586 0.29038 0.44272 0.31100
H 	H 	0.73103 0.39579 0.45137 0.19200
C 	C 	0.66077 0.30186 0.81064 0.11800
C 	C 	0.67922 0.28331 0.83854 -0.08500
C 	C 	0.67328 0.29020 0.88096 0.04700
C 	C 	0.64909 0.31619 0.89584 -0.09700
C 	C 	0.63126 0.33551 0.86776 0.05300
C 	C 	0.63723 0.32859 0.82542 -0.08500
H 	H 	0.69819 0.26356 0.82732 0.08900
H 	H 	0.68764 0.27554 0.90216 0.03700
H 	H 	0.61330 0.35647 0.87869 0.05500
H 	H 	0.62416 0.34460 0.80409 0.07900
N 	N 	0.66866 0.29645 0.76767 -0.08000
N 	N 	0.63779 0.29031 0.74334 -0.08100
C 	C 	0.66574 0.29449 0.61393 -0.10000
C 	C 	0.61601 0.26324 0.63180 0.03900
C 	C 	0.60709 0.26099 0.67467 -0.08600
C 	C 	0.64759 0.28959 0.70011 0.11500
C 	C 	0.69739 0.32093 0.68230 -0.08600
C 	C 	0.70638 0.32319 0.63946 0.04300
H 	H 	0.58425 0.24107 0.61254 0.03900
H 	H 	0.56862 0.23742 0.68816 0.07700
H 	H 	0.72900 0.34438 0.70159 0.07800
H 	H 	0.74489 0.34807 0.62613 0.05100
C 	C 	0.63850 0.28953 0.20085 0.11500
C 	C 	0.60200 0.26935 0.17187 -0.08600
C 	C 	0.61658 0.27790 0.12973 0.04200
C 	C 	0.66801 0.30709 0.11624 -0.10300
C 	C 	0.70461 0.32788 0.14538 0.04400
C 	C 	0.68998 0.31931 0.18744 -0.08700
H 	H 	0.56232 0.24717 0.18202 0.08200
H 	H 	0.58791 0.26198 0.10768 0.04200
H 	H 	0.74443 0.35126 0.13550 0.04500
H 	H 	0.71863 0.33650 0.20961 0.07500
N 	N 	0.62339 0.28302 0.24353 -0.08100
N 	N 	0.64862 0.27947 0.26885 -0.08100
C 	C 	0.62118 0.28441 0.39769 -0.10700
C 	C 	0.64251 0.25606 0.38110 0.03900
C 	C 	0.65029 0.25337 0.33839 -0.08700
C 	C 	0.63661 0.27858 0.31185 0.11400
C 	C 	0.61506 0.30676 0.32838 -0.08800
C 	C 	0.60722 0.30945 0.37105 0.04200
H 	H 	0.65350 0.23656 0.40123 0.03900
H 	H 	0.66749 0.23220 0.32590 0.07900
H 	H 	0.60541 0.32755 0.30824 0.07500
H 	H 	0.59123 0.33194 0.38338 0.04300
C 	C 	0.79249 0.58163 0.51026 -0.00600
C 	C 	0.73937 0.55196 0.51538 0.13400
C 	C 	0.70982 0.49388 0.51244 -0.01600
C 	C 	0.73257 0.46437 0.50728 -0.13200
C 	C 	0.78578 0.49389 0.50487 0.20000
C 	C 	0.81535 0.55223 0.50488 -0.09800
H 	H 	0.66899 0.47155 0.51505 0.07500
H 	H 	0.85619 0.57474 0.50190 0.08600
Cl	Cl	0.70935 0.58655 0.52843 -0.31000
Cl	Cl	0.81594 0.45869 0.50545 -0.33500
C 	C 	0.82934 0.18768 0.45184 -0.00900
C 	C 	0.85171 0.24555 0.45096 0.14100
C 	C 	0.82139 0.26582 0.44894 -0.02800
C 	C 	0.76880 0.22870 0.44715 -0.10000
C 	C 	0.74733 0.17108 0.44367 0.19700
C 	C 	0.77749 0.15082 0.44653 -0.09200
H 	H 	0.83853 0.31033 0.45021 0.08700
H 	H 	0.76033 0.10629 0.44585 0.08700
Cl	Cl	0.91764 0.29306 0.45237 -0.30400
Cl	Cl	0.68280 0.12384 0.43514 -0.30100
C 	C 	0.34995 0.17813 0.57125 -0.01000
C 	C 	0.38614 0.23609 0.57191 0.14100
C 	C 	0.43764 0.25721 0.56972 -0.03000
C 	C 	0.45356 0.22092 0.56749 -0.10000
C 	C 	0.41713 0.16292 0.57011 0.19600
C 	C 	0.36565 0.14185 0.57134 -0.09300
H 	H 	0.46526 0.30189 0.56894 0.08400
H 	H 	0.33782 0.09720 0.57203 0.08600
Cl	Cl	0.36745 0.28273 0.57600 -0.30800
Cl	Cl	0.43524 0.11629 0.57368 -0.30000
C 	C 	0.79931 0.60440 0.98363 -0.00700
C 	C 	0.78758 0.58207 0.02364 0.13500
C 	C 	0.75953 0.52433 0.02914 -0.01500
C 	C 	0.74294 0.48848 0.99496 -0.13600
C 	C 	0.75285 0.51080 0.95507 0.20100
C 	C 	0.78108 0.56856 0.94960 -0.09900
H 	H 	0.75164 0.50738 0.05993 0.07400
H 	H 	0.78941 0.58564 0.91880 0.08600
Cl	Cl	0.80807 0.62604 0.06711 -0.31000
Cl	Cl	0.72962 0.46697 0.91174 -0.34200
C 	C 	0.77855 0.24150 0.95557 -0.10500
C 	C 	0.80258 0.24285 0.91701 0.19900
C 	C 	0.83056 0.21931 0.91265 -0.09500
C 	C 	0.83461 0.19417 0.94643 -0.00900
C 	C 	0.81041 0.19260 0.98491 0.14000
C 	C 	0.78244 0.21607 0.98930 -0.02700
H 	H 	0.84893 0.22029 0.88292 0.08600
H 	H 	0.76425 0.21516 0.01910 0.08200
Cl	Cl	0.79647 0.27212 0.87358 -0.32000
Cl	Cl	0.81534 0.16185 0.02801 -0.30700
C 	C 	0.47097 0.25781 0.05267 -0.10300
C 	C 	0.43354 0.20373 0.06706 0.19900
C 	C 	0.38275 0.18029 0.06059 -0.09400
C 	C 	0.36893 0.21044 0.03981 -0.00900
C 	C 	0.40590 0.26603 0.02823 0.14100
C 	C 	0.45665 0.28958 0.03493 -0.02600
H 	H 	0.35423 0.13788 0.07036 0.08700
H 	H 	0.48524 0.33155 0.02431 0.07900
Cl	Cl	0.44994 0.16462 0.09272 -0.31300
Cl	Cl	0.38947 0.30563 0.00331 -0.30800
