data_crystal

_cell_length_a 36.92383
_cell_length_b 42.11453
_cell_length_c 22.44456
_cell_angle_alpha 89.81826
_cell_angle_beta  89.99987
_cell_angle_gamma 89.99988

_symmetry_space_group_name_	'P 1'
_symmetry_space_group_name_H-M	'P 1'

loop_
_symmetry_equiv_pos_as_xyz
  x,y,z

loop_
_atom_site_label
_atom_site_type_symbol
_atom_site_fract_x
_atom_site_fract_y
_atom_site_fract_z
_atom_site_charge
C 	C 	0.48579 0.56937 0.89011 0.10000
N 	N 	0.46593 0.54368 0.90461 -0.17300
C 	C 	0.43412 0.54665 0.87579 0.10000
C 	C 	0.40131 0.52875 0.89361 -0.07700
C 	C 	0.40387 0.49445 0.90681 0.09200
C 	C 	0.36562 0.54461 0.89580 0.04100
C 	C 	0.35961 0.56965 0.93569 -0.05700
C 	C 	0.32492 0.58259 0.94178 -0.03200
C 	C 	0.29607 0.57054 0.90805 0.01000
C 	C 	0.33694 0.53321 0.86088 -0.05500
N 	N 	0.43101 0.47612 0.88627 -0.12700
C 	C 	0.38588 0.47978 0.95337 -0.07300
C 	C 	0.42969 0.44926 0.91901 0.07600
C 	C 	0.46016 0.42657 0.92176 -0.06000
C 	C 	0.45423 0.39407 0.94481 0.00900
C 	C 	0.42311 0.34343 0.93929 -0.06900
C 	C 	0.47457 0.38282 0.99329 0.01300
C 	C 	0.46922 0.35195 0.01463 -0.10900
C 	C 	0.44365 0.33208 0.98741 0.08100
N 	N 	0.51351 0.46210 0.91864 -0.17200
C 	C 	0.54874 0.45820 0.90498 0.09900
C 	C 	0.55396 0.42954 0.87598 -0.06300
C 	C 	0.52031 0.41534 0.87231 -0.06100
C 	C 	0.57793 0.47690 0.93364 -0.07000
C 	C 	0.61427 0.46295 0.94279 0.03800
C 	C 	0.67866 0.46277 0.92138 -0.03000
C 	C 	0.68288 0.43518 0.95582 0.00100
C 	C 	0.65277 0.42177 0.98454 -0.01300
C 	C 	0.61863 0.43583 0.97862 -0.04300
N 	N 	0.55139 0.52946 0.91012 -0.12800
C 	C 	0.56186 0.55435 0.99712 -0.04800
C 	C 	0.54558 0.55610 0.94174 0.08200
C 	C 	0.51759 0.57961 0.92547 -0.07300
C 	C 	0.52299 0.61356 0.94042 0.04100
C 	C 	0.55647 0.62823 0.92916 -0.05400
C 	C 	0.56153 0.66027 0.94272 -0.03200
C 	C 	0.53300 0.67813 0.96667 0.00800
C 	C 	0.49945 0.66357 0.97759 -0.02800
C 	C 	0.49469 0.63127 0.96567 -0.05700
C 	C 	0.46674 0.58887 0.85137 -0.06400
C 	C 	0.43362 0.57436 0.84230 -0.06400
C 	C 	0.30230 0.54608 0.86709 -0.03500
C 	C 	0.40247 0.45078 0.96126 -0.03500
C 	C 	0.49615 0.43605 0.89901 0.09700
C 	C 	0.57910 0.52535 0.99922 -0.04700
C 	C 	0.57238 0.51101 0.94504 0.08200
C 	C 	0.64451 0.47653 0.91473 -0.05500
H 	H 	0.46966 0.53023 0.94336 0.09200
H 	H 	0.50403 0.47667 0.95289 0.09300
H 	H 	0.58747 0.67136 0.93388 0.03900
H 	H 	0.47696 0.67735 0.99450 0.03900
H 	H 	0.57846 0.61487 0.90942 0.04500
H 	H 	0.46887 0.62014 0.97517 0.04400
H 	H 	0.32032 0.60154 0.97341 0.04000
H 	H 	0.34140 0.51403 0.82968 0.04600
H 	H 	0.28017 0.53678 0.84066 0.03800
H 	H 	0.38160 0.57860 0.96283 0.04400
H 	H 	0.48515 0.34337 0.05189 0.05400
H 	H 	0.49451 0.39797 0.01432 0.01400
C 	C 	0.42838 0.37430 0.91806 -0.02800
H 	H 	0.40342 0.32818 0.91787 0.05100
H 	H 	0.70180 0.47327 0.89911 0.03400
H 	H 	0.64143 0.49749 0.88705 0.04500
H 	H 	0.59549 0.42535 0.00090 0.02700
H 	H 	0.65573 0.40029 0.01075 0.02100
H 	H 	0.47193 0.61391 0.84446 0.04700
H 	H 	0.40938 0.58660 0.82780 0.04700
H 	H 	0.37087 0.49215 0.98763 0.05100
H 	H 	0.40221 0.43746 0.00260 0.02500
H 	H 	0.57944 0.41694 0.87309 0.04800
H 	H 	0.51602 0.39007 0.86720 0.04800
H 	H 	0.55328 0.56759 0.03591 0.02900
H 	H 	0.58579 0.51277 0.03990 0.02900
H 	H 	0.41266 0.38276 0.88048 0.03900
Co	Co	0.40548 0.14100 0.02757 1.17400
Co	Co	0.42443 0.06839 0.02873 1.08700
O 	O 	0.39122 0.18753 0.03212 -0.37800
O 	O 	0.44644 0.18058 0.05595 -0.32800
O 	O 	0.36206 0.11829 0.99917 -0.39800
O 	O 	0.41861 0.08402 0.94566 -0.46100
C 	C 	0.34954 0.09306 0.02712 0.30500
C 	C 	0.42067 0.20096 0.04952 0.30100
O 	O 	0.37169 0.07348 0.05474 -0.44300
O 	O 	0.43617 0.13548 0.95851 -0.43200
C 	C 	0.43527 0.10957 0.92616 0.32200
O 	O 	0.40337 0.12827 0.10983 -0.43900
O 	O 	0.44841 0.09335 0.09204 -0.49400
C 	C 	0.42851 0.10920 0.13010 0.33500
C 	C 	0.52328 0.03155 0.57757 0.00900
C 	C 	0.53990 0.00110 0.57874 0.00900
C 	C 	0.49864 0.03924 0.53201 -0.05500
C 	C 	0.48943 0.01655 0.48885 0.00900
C 	C 	0.53190 0.97887 0.53396 -0.05500
C 	C 	0.50638 0.98623 0.48953 0.01000
H 	H 	0.54494 0.95584 0.53430 0.04900
H 	H 	0.48621 0.06252 0.53080 0.04900
C 	C 	0.49543 0.96335 0.44731 -0.01500
C 	C 	0.47001 0.97052 0.40279 0.00800
C 	C 	0.47229 0.94996 0.35268 -0.06200
C 	C 	0.49949 0.92703 0.35850 0.01200
S 	S 	0.52100 0.93343 0.42278 -0.01600
H 	H 	0.45769 0.95376 0.31150 0.03900
C 	C 	0.46207 0.02263 0.44635 -0.01400
C 	C 	0.45327 0.00045 0.40221 0.00200
C 	C 	0.43648 0.01440 0.35131 -0.04600
C 	C 	0.43245 0.04735 0.35608 -0.02100
S 	S 	0.45073 0.05851 0.42076 -0.00700
H 	H 	0.43166 0.00182 0.31014 0.03400
C 	C 	0.55295 0.04470 0.67225 0.00300
C 	C 	0.53145 0.05343 0.62321 -0.01300
S 	S 	0.50352 0.08209 0.64585 -0.00800
C 	C 	0.51809 0.08548 0.71594 -0.01800
C 	C 	0.54551 0.06294 0.72431 -0.04600
C 	C 	0.56417 0.99375 0.62548 -0.01400
C 	C 	0.56973 0.01473 0.67309 0.00800
C 	C 	0.58215 0.99926 0.72588 -0.06100
C 	C 	0.58551 0.96633 0.71968 0.01300
S 	S 	0.57256 0.95716 0.65062 -0.01600
H 	H 	0.58431 0.01086 0.76863 0.04400
H 	H 	0.55616 0.05727 0.76793 0.03800
Co	Co	0.59373 0.86677 0.03486 1.17400
Co	Co	0.50998 0.87299 0.02019 1.08200
O 	O 	0.64850 0.86161 0.03554 -0.39100
O 	O 	0.63300 0.91018 0.02524 -0.33600
O 	O 	0.57339 0.82378 0.04506 -0.41700
O 	O 	0.52308 0.86247 0.10382 -0.46700
C 	C 	0.54945 0.81229 0.00738 0.27300
C 	C 	0.65945 0.89030 0.02774 0.31700
O 	O 	0.52529 0.83103 0.98234 -0.42000
O 	O 	0.57890 0.88522 0.10993 -0.43500
C 	C 	0.54712 0.87902 0.13357 0.28900
O 	O 	0.58455 0.87130 0.95103 -0.43000
O 	O 	0.53696 0.90363 0.96962 -0.47500
C 	C 	0.56231 0.89357 0.93325 0.30200
Co	Co	0.08280 0.63524 0.92144 1.18200
Co	Co	0.99845 0.62943 0.92907 1.09000
O 	O 	0.13746 0.64061 0.92588 -0.38200
O 	O 	0.12188 0.59201 0.93484 -0.31500
O 	O 	0.06268 0.67806 0.90870 -0.42000
O 	O 	0.01455 0.63905 0.84649 -0.46100
C 	C 	0.03818 0.68985 0.94500 0.31400
C 	C 	0.14834 0.61196 0.93467 0.30600
O 	O 	0.01262 0.67159 0.96742 -0.43400
O 	O 	0.07051 0.61632 0.84563 -0.43000
C 	C 	0.03923 0.62179 0.81972 0.29000
O 	O 	0.07079 0.63112 0.00434 -0.44600
O 	O 	0.02370 0.59889 0.98228 -0.46400
C 	C 	0.04803 0.60892 0.02054 0.28600
C 	C 	0.99868 0.51115 0.46476 0.00400
C 	C 	0.98205 0.48070 0.46480 0.01100
C 	C 	0.02404 0.51899 0.42040 -0.05000
C 	C 	0.03173 0.49734 0.37448 0.00600
C 	C 	0.99111 0.45853 0.42067 -0.06100
C 	C 	0.01510 0.46692 0.37461 0.01400
H 	H 	0.97893 0.43513 0.42135 0.05000
H 	H 	0.03709 0.54202 0.42084 0.04800
C 	C 	0.02219 0.44587 0.32721 -0.01200
C 	C 	0.04349 0.45513 0.27820 0.00700
C 	C 	0.03491 0.43806 0.22519 -0.06100
C 	C 	0.00598 0.41686 0.23217 0.02100
S 	S 	0.99261 0.41893 0.30284 -0.02300
H 	H 	0.04566 0.44404 0.18180 0.04500
C 	C 	0.05508 0.50558 0.32707 -0.01300
C 	C 	0.06003 0.48527 0.27810 0.00500
C 	C 	0.07031 0.50178 0.22509 -0.06000
C 	C 	0.07203 0.53473 0.23226 0.01200
S 	S 	0.06145 0.54267 0.30280 -0.01800
H 	H 	0.07173 0.49078 0.18172 0.04400
C 	C 	0.96265 0.52584 0.55249 0.00600
C 	C 	0.98767 0.53365 0.50767 -0.01800
S 	S 	0.01330 0.56337 0.53291 -0.00900
C 	C 	0.99267 0.56857 0.59833 0.00500
C 	C 	0.96543 0.54564 0.60360 -0.06000
C 	C 	0.95498 0.47406 0.50745 -0.01500
C 	C 	0.94607 0.49585 0.55217 0.00200
C 	C 	0.92935 0.48143 0.60259 -0.04700
C 	C 	0.92559 0.44847 0.59693 -0.02000
S 	S 	0.94400 0.43790 0.53210 -0.00700
H 	H 	0.92410 0.49371 0.64394 0.03500
H 	H 	0.95144 0.54110 0.64508 0.03800
Co	Co	0.89435 0.35621 0.92864 1.18500
Co	Co	0.89660 0.43196 0.92529 1.09400
O 	O 	0.89129 0.30808 0.92842 -0.37700
O 	O 	0.94586 0.32396 0.93860 -0.31100
O 	O 	0.84362 0.37076 0.92166 -0.40400
O 	O 	0.93567 0.41215 0.97320 -0.46300
C 	C 	0.83111 0.39513 0.95205 0.31200
C 	C 	0.92460 0.29980 0.93431 0.30300
O 	O 	0.85355 0.41627 0.97413 -0.43500
O 	O 	0.90417 0.37003 0.00898 -0.43400
C 	C 	0.92747 0.39305 0.01744 0.28700
O 	O 	0.90990 0.36500 0.84788 -0.42900
O 	O 	0.88255 0.41350 0.84784 -0.47300
C 	C 	0.90268 0.39215 0.82141 0.32200
C 	C 	0.99338 0.93237 0.08458 0.09400
N 	N 	0.97491 0.95897 0.07091 -0.17300
C 	C 	0.94265 0.95672 0.09854 0.09900
C 	C 	0.91090 0.97589 0.08024 -0.07800
C 	C 	0.91513 0.01033 0.06945 0.09100
C 	C 	0.87485 0.96094 0.07381 0.03500
C 	C 	0.86976 0.93601 0.03330 -0.05100
C 	C 	0.83541 0.92260 0.02588 -0.05900
C 	C 	0.80600 0.93379 0.05936 0.00400
C 	C 	0.84535 0.97229 0.10688 -0.05500
N 	N 	0.94338 0.02705 0.09090 -0.13100
C 	C 	0.89844 0.02636 0.02309 -0.07900
C 	C 	0.94407 0.05419 0.05898 0.08900
C 	C 	0.97568 0.07573 0.05824 -0.07600
C 	C 	0.97133 0.10885 0.03751 0.01100
C 	C 	0.94067 0.15966 0.04389 -0.07100
C 	C 	0.99156 0.12010 0.98891 -0.02800
C 	C 	0.98601 0.15092 0.96740 -0.05900
C 	C 	0.95995 0.17053 0.99401 0.04100
N 	N 	0.02735 0.03826 0.06161 -0.17300
C 	C 	0.06253 0.04070 0.07680 0.09700
C 	C 	0.06870 0.06879 0.10718 -0.06400
C 	C 	0.03569 0.08418 0.11017 -0.06400
C 	C 	0.09124 0.02093 0.04929 -0.07500
C 	C 	0.12875 0.03297 0.04383 0.04100
C 	C 	0.19265 0.02824 0.06753 -0.03600
C 	C 	0.19993 0.05588 0.03460 0.01700
C 	C 	0.17157 0.07169 0.00525 -0.05500
C 	C 	0.13614 0.06012 0.00945 -0.07100
N 	N 	0.06148 0.96923 0.06857 -0.12400
C 	C 	0.07102 0.94570 0.97997 -0.04600
C 	C 	0.05432 0.94354 0.03497 0.07000
C 	C 	0.02458 0.92127 0.04880 -0.07500
C 	C 	0.02719 0.88766 0.02984 0.05200
C 	C 	0.05936 0.87057 0.03920 -0.05900
C 	C 	0.06166 0.83873 0.02238 -0.04900
C 	C 	0.03163 0.82350 0.99703 0.02000
C 	C 	0.99944 0.84051 0.98777 -0.00600
C 	C 	0.99746 0.87263 0.00297 -0.10500
C 	C 	0.97296 0.91302 0.12166 -0.06400
C 	C 	0.94045 0.92858 0.13051 -0.06500
C 	C 	0.81102 0.95891 0.09940 -0.03800
C 	C 	0.91701 0.05450 0.01639 -0.07800
C 	C 	0.01094 0.06469 0.08171 0.10000
C 	C 	0.08995 0.97390 0.98022 -0.04600
C 	C 	0.08373 0.98740 0.03530 0.07000
C 	C 	0.15720 0.01699 0.07252 -0.05600
H 	H 	0.97969 0.97278 0.03293 0.08700
H 	H 	0.01767 0.02441 0.02646 0.08800
H 	H 	0.08658 0.82574 0.02990 0.03700
H 	H 	0.97581 0.82875 0.96970 0.03100
H 	H 	0.08244 0.88186 0.06011 0.04300
H 	H 	0.97265 0.88567 0.99483 0.06500
H 	H 	0.83163 0.90357 0.99412 0.05300
H 	H 	0.84900 0.99157 0.13817 0.04400
H 	H 	0.78832 0.96803 0.12470 0.03700
H 	H 	0.89232 0.92727 0.00720 0.03500
H 	H 	0.00155 0.15940 0.92963 0.04600
H 	H 	0.01124 0.10486 0.96745 0.04300
C 	C 	0.94616 0.12887 0.06531 -0.03900
H 	H 	0.92107 0.17492 0.06548 0.04200
H 	H 	0.21443 0.01569 0.08978 0.03700
H 	H 	0.15180 0.99596 0.09898 0.04500
H 	H 	0.11441 0.07238 0.98651 0.05700
H 	H 	0.17696 0.09300 0.97958 0.05300
H 	H 	0.97681 0.88769 0.12710 0.04400
H 	H 	0.91547 0.91700 0.14345 0.04500
H 	H 	0.88290 0.01509 0.98813 0.06100
H 	H 	0.91781 0.06825 0.97556 0.05900
H 	H 	0.09471 0.08039 0.11166 0.04600
H 	H 	0.03251 0.10951 0.11629 0.04600
H 	H 	0.06188 0.93372 0.94010 0.04700
H 	H 	0.09761 0.98699 0.94059 0.04500
H 	H 	0.93075 0.12050 0.10332 0.03900
C 	C 	0.95354 0.20288 0.97090 -0.01700
C 	C 	0.92208 0.21007 0.93749 0.04800
C 	C 	0.91360 0.24176 0.92472 -0.02100
C 	C 	0.93607 0.26650 0.94438 -0.09500
C 	C 	0.96849 0.25917 0.97502 0.09500
C 	C 	0.97725 0.22732 0.98709 -0.06400
H 	H 	0.88928 0.24713 0.89958 0.05400
H 	H 	0.00189 0.22173 0.01122 0.03500
N 	N 	0.89872 0.18533 0.91552 -0.13800
N 	N 	0.99220 0.28411 0.99489 -0.12800
C 	C 	0.91259 0.17210 0.85983 -0.09100
H 	H 	0.91540 0.19105 0.82553 0.05100
H 	H 	0.89318 0.15417 0.84280 0.04800
H 	H 	0.93915 0.16030 0.86688 0.04800
C 	C 	0.98919 0.28852 0.05935 -0.11000
H 	H 	0.96051 0.29257 0.07240 0.05500
H 	H 	0.00522 0.30966 0.07254 0.05300
H 	H 	0.00003 0.26756 0.08374 0.04700
H 	H 	0.89410 0.16752 0.94717 0.08200
H 	H 	0.01900 0.27899 0.98317 0.08500
C 	C 	0.92401 0.42710 0.64863 0.06000
C 	C 	0.89278 0.40910 0.65915 -0.09500
C 	C 	0.88773 0.39418 0.71419 0.05100
C 	C 	0.91373 0.39736 0.75935 -0.15100
C 	C 	0.94714 0.41235 0.74639 0.13700
C 	C 	0.95190 0.42741 0.69102 -0.12700
H 	H 	0.86254 0.38187 0.72311 0.02000
H 	H 	0.97670 0.44032 0.68180 0.06000
H 	H 	0.87154 0.40810 0.62590 0.05200
N 	N 	0.97435 0.41286 0.78723 -0.21300
H 	H 	0.97226 0.40046 0.82745 0.07900
H 	H 	0.99846 0.42495 0.77817 0.07900
C 	C 	0.94290 0.39864 0.07678 -0.07100
C 	C 	0.95749 0.37343 0.10975 -0.00400
C 	C 	0.97650 0.37937 0.16240 -0.04000
C 	C 	0.98024 0.41052 0.18343 -0.03000
C 	C 	0.96216 0.43569 0.15346 0.07300
C 	C 	0.94468 0.42961 0.09919 -0.04500
H 	H 	0.98936 0.35986 0.18581 0.03700
H 	H 	0.93212 0.44894 0.07474 0.01800
H 	H 	0.95518 0.34937 0.09355 0.03500
N 	N 	0.96091 0.46540 0.17702 -0.19500
H 	H 	0.96971 0.46995 0.22032 0.08600
H 	H 	0.94906 0.48404 0.15314 0.07100
C 	C 	0.03333 0.78927 0.98339 0.01900
C 	C 	0.03348 0.77868 0.92394 0.03500
C 	C 	0.03624 0.74604 0.91192 -0.01700
C 	C 	0.03842 0.72398 0.95869 -0.09700
C 	C 	0.04009 0.73484 0.01831 0.08900
C 	C 	0.03662 0.76729 0.03013 -0.10600
H 	H 	0.03645 0.73788 0.86617 0.04100
H 	H 	0.03740 0.77553 0.07583 0.05700
N 	N 	0.03288 0.80131 0.87575 -0.13400
N 	N 	0.04737 0.71336 0.06698 -0.14800
C 	C 	0.99856 0.80002 0.84320 -0.09300
H 	H 	0.99636 0.77758 0.81747 0.04200
H 	H 	0.99731 0.82023 0.81141 0.04600
H 	H 	0.97515 0.80203 0.87409 0.04700
C 	C 	0.08595 0.70565 0.07070 -0.08700
H 	H 	0.09537 0.69339 0.02976 0.04800
H 	H 	0.09061 0.68961 0.10930 0.04900
H 	H 	0.10216 0.72757 0.07762 0.04600
H 	H 	0.05460 0.79720 0.84681 0.07700
H 	H 	0.03140 0.69291 0.06545 0.08500
C 	C 	0.03229 0.60953 0.75944 -0.07200
C 	C 	0.01305 0.62796 0.71807 -0.01000
C 	C 	0.00240 0.61494 0.66368 -0.03700
C 	C 	0.01045 0.58325 0.65014 -0.02500
C 	C 	0.03182 0.56503 0.69025 0.07500
C 	C 	0.04253 0.57846 0.74475 -0.05100
H 	H 	0.98653 0.62915 0.63296 0.03400
H 	H 	0.05792 0.56437 0.77638 0.04700
H 	H 	0.00565 0.65220 0.72859 0.03600
N 	N 	0.04196 0.53481 0.67693 -0.19600
H 	H 	0.03615 0.52465 0.63570 0.09000
H 	H 	0.05676 0.52132 0.70761 0.08100
C 	C 	0.05286 0.59233 0.07808 -0.07200
C 	C 	0.08640 0.59315 0.10746 -0.00400
C 	C 	0.09178 0.57550 0.15950 -0.04200
C 	C 	0.06375 0.55689 0.18311 -0.02500
C 	C 	0.02906 0.55745 0.15565 0.07100
C 	C 	0.02413 0.57495 0.10288 -0.04200
H 	H 	0.11819 0.57551 0.18054 0.03600
H 	H 	0.99785 0.57510 0.08131 0.02500
H 	H 	0.10866 0.60679 0.08916 0.03700
N 	N 	0.00046 0.54160 0.17982 -0.19300
H 	H 	0.00233 0.53012 0.22093 0.08700
H 	H 	0.97537 0.54154 0.15827 0.06900
C 	C 	0.69749 0.90011 0.03421 -0.14100
C 	C 	0.71330 0.92091 0.99246 0.15000
C 	C 	0.74925 0.93098 0.00028 -0.14400
C 	C 	0.76940 0.92065 0.04961 0.01600
C 	C 	0.75382 0.89891 0.09054 0.02500
C 	C 	0.71796 0.88892 0.08253 0.00200
H 	H 	0.76139 0.94705 0.96817 0.07400
H 	H 	0.70593 0.87261 0.11432 0.04200
N 	N 	0.69329 0.93058 0.94043 -0.14800
N 	N 	0.77425 0.88657 0.14017 -0.13600
C 	C 	0.68097 0.96348 0.94574 -0.09100
H 	H 	0.66484 0.96674 0.98709 0.06700
H 	H 	0.66334 0.96937 0.90719 0.05100
H 	H 	0.70436 0.98012 0.94573 0.04600
C 	C 	0.79598 0.85913 0.12247 -0.09000
H 	H 	0.77837 0.84015 0.10394 0.04700
H 	H 	0.81003 0.84936 0.16223 0.04400
H 	H 	0.81677 0.86595 0.08906 0.04400
H 	H 	0.70914 0.92785 0.90212 0.07400
H 	H 	0.79021 0.90392 0.16058 0.07700
C 	C 	0.56849 0.90995 0.87606 -0.07100
C 	C 	0.53904 0.92163 0.84331 -0.00600
C 	C 	0.54480 0.93874 0.79081 -0.04200
C 	C 	0.58011 0.94455 0.77038 -0.02600
C 	C 	0.61002 0.93195 0.80218 0.07600
C 	C 	0.60389 0.91471 0.85499 -0.04400
H 	H 	0.52178 0.94827 0.76673 0.03800
H 	H 	0.62669 0.90552 0.88012 0.05800
H 	H 	0.51161 0.91770 0.85882 0.01900
N 	N 	0.64450 0.93628 0.78237 -0.19600
H 	H 	0.64988 0.94805 0.74233 0.08600
H 	H 	0.66640 0.92729 0.80659 0.08200
C 	C 	0.53931 0.88870 0.19538 -0.07300
C 	C 	0.55337 0.91724 0.21766 -0.01100
C 	C 	0.54205 0.92865 0.27299 -0.04000
C 	C 	0.51663 0.91163 0.30689 -0.02800
C 	C 	0.50434 0.88170 0.28666 0.07300
C 	C 	0.51564 0.87057 0.23069 -0.05000
H 	H 	0.55185 0.95143 0.28843 0.03900
H 	H 	0.50571 0.84797 0.21447 0.04500
H 	H 	0.57194 0.93126 0.19104 0.03500
N 	N 	0.48174 0.86363 0.32057 -0.19600
H 	H 	0.47439 0.87048 0.36358 0.08400
H 	H 	0.47203 0.84195 0.30463 0.07700
C 	C 	0.31049 0.08662 0.02759 -0.12400
C 	C 	0.29250 0.07773 0.97492 0.11500
C 	C 	0.25589 0.06865 0.97725 -0.07400
C 	C 	0.23723 0.06849 0.03169 -0.01800
C 	C 	0.25483 0.07883 0.08384 0.03800
C 	C 	0.29152 0.08751 0.08161 -0.01600
H 	H 	0.24228 0.06104 0.93695 0.05000
H 	H 	0.30527 0.09478 0.12202 0.03700
N 	N 	0.31172 0.07742 0.91911 -0.14300
N 	N 	0.23525 0.08048 0.13921 -0.13600
C 	C 	0.32393 0.04528 0.90483 -0.08500
H 	H 	0.34211 0.03605 0.94037 0.03900
H 	H 	0.33947 0.04584 0.86250 0.04300
H 	H 	0.30047 0.02899 0.89913 0.04100
C 	C 	0.22233 0.11280 0.14976 -0.09100
H 	H 	0.24544 0.12957 0.15425 0.04600
H 	H 	0.20641 0.11327 0.19171 0.04600
H 	H 	0.20431 0.12067 0.11286 0.05000
H 	H 	0.29538 0.08635 0.88482 0.07800
H 	H 	0.25149 0.07282 0.17469 0.07200
C 	C 	0.49476 0.09631 0.76523 0.06100
C 	C 	0.51007 0.11300 0.81288 -0.09500
C 	C 	0.48965 0.11927 0.86385 0.04400
C 	C 	0.45356 0.10903 0.86778 -0.15300
C 	C 	0.43689 0.09493 0.81753 0.15100
C 	C 	0.45803 0.08761 0.76736 -0.13000
H 	H 	0.50242 0.13077 0.90152 0.02300
H 	H 	0.44593 0.07496 0.73040 0.06300
H 	H 	0.53826 0.12011 0.81130 0.05200
N 	N 	0.40061 0.08937 0.81647 -0.21000
H 	H 	0.38354 0.09845 0.84936 0.10300
H 	H 	0.38883 0.07747 0.78056 0.08300
C 	C 	0.43084 0.06826 0.30362 0.06100
C 	C 	0.39781 0.07295 0.27432 -0.09800
C 	C 	0.39678 0.08892 0.21973 0.04500
C 	C 	0.42887 0.10011 0.19349 -0.16000
C 	C 	0.46190 0.09775 0.22532 0.15000
C 	C 	0.46272 0.08120 0.27978 -0.13200
H 	H 	0.37127 0.09100 0.19616 0.02300
H 	H 	0.48821 0.07797 0.30301 0.06300
H 	H 	0.37306 0.06323 0.29281 0.05100
N 	N 	0.49260 0.11171 0.20437 -0.21000
H 	H 	0.49207 0.12661 0.16710 0.09400
H 	H 	0.51715 0.10887 0.22695 0.08200
C 	C 	0.42780 0.23493 0.03858 -0.08800
C 	C 	0.40137 0.25790 0.05231 0.08600
C 	C 	0.40721 0.28983 0.03670 -0.06500
C 	C 	0.43923 0.29898 0.00783 -0.06100
C 	C 	0.46612 0.27621 0.99567 0.09200
C 	C 	0.46041 0.24433 0.01160 -0.05600
H 	H 	0.38666 0.30743 0.04658 0.04100
H 	H 	0.48092 0.22678 0.00123 0.04900
N 	N 	0.36858 0.24873 0.08246 -0.13700
N 	N 	0.49905 0.28548 0.96600 -0.14200
C 	C 	0.37135 0.25513 0.14633 -0.09100
H 	H 	0.39464 0.24203 0.16599 0.05400
H 	H 	0.34629 0.24684 0.16885 0.04800
H 	H 	0.37447 0.28100 0.15469 0.04400
C 	C 	0.49696 0.27854 0.90227 -0.09000
H 	H 	0.49446 0.25255 0.89456 0.05100
H 	H 	0.52204 0.28705 0.88011 0.04900
H 	H 	0.47360 0.29110 0.88165 0.05300
H 	H 	0.34625 0.26064 0.06429 0.07600
H 	H 	0.52136 0.27398 0.98508 0.08000
C 	C 	0.18665 0.60223 0.93054 -0.10200
C 	C 	0.19894 0.57466 0.96011 0.10500
C 	C 	0.23500 0.56478 0.95310 -0.09000
C 	C 	0.25899 0.58237 0.91769 0.00400
C 	C 	0.24712 0.61042 0.88963 0.03800
C 	C 	0.21102 0.62033 0.89646 -0.01800
H 	H 	0.24428 0.54332 0.97513 0.05500
H 	H 	0.20186 0.64176 0.87425 0.04600
N 	N 	0.17474 0.55685 0.99781 -0.13100
N 	N 	0.27185 0.62878 0.85387 -0.13600
C 	C 	0.18041 0.56495 0.06045 -0.10200
H 	H 	0.20813 0.55820 0.07514 0.04100
H 	H 	0.16053 0.55183 0.08828 0.04800
H 	H 	0.17611 0.59079 0.06766 0.04900
C 	C 	0.26649 0.62223 0.79051 -0.09100
H 	H 	0.27020 0.59651 0.78123 0.05200
H 	H 	0.28691 0.63558 0.76418 0.04700
H 	H 	0.23905 0.62985 0.77582 0.04700
H 	H 	0.17827 0.53244 0.99135 0.08200
H 	H 	0.26861 0.65305 0.86230 0.07500
C 	C 	0.71862 0.41970 0.95945 0.02400
C 	C 	0.74087 0.42424 0.00958 0.01800
C 	C 	0.77727 0.41454 0.00781 -0.03600
C 	C 	0.79167 0.40062 0.95621 -0.09400
C 	C 	0.76884 0.39494 0.90687 0.10200
C 	C 	0.73222 0.40381 0.90951 -0.09700
H 	H 	0.79458 0.41873 0.04600 0.03900
H 	H 	0.71487 0.39990 0.87126 0.05300
N 	N 	0.72690 0.44026 0.06125 -0.13600
N 	N 	0.78332 0.38157 0.85293 -0.13600
C 	C 	0.71998 0.41770 0.10962 -0.09100
H 	H 	0.70135 0.39857 0.09469 0.04700
H 	H 	0.70688 0.43033 0.14721 0.04400
H 	H 	0.74571 0.40705 0.12595 0.04400
C 	C 	0.78971 0.40639 0.80836 -0.08600
H 	H 	0.76381 0.41767 0.79445 0.04000
H 	H 	0.80250 0.39568 0.76847 0.05000
H 	H 	0.80840 0.42478 0.82610 0.04800
H 	H 	0.74497 0.45788 0.07525 0.06800
H 	H 	0.76574 0.36432 0.83600 0.08000
C 	C 	0.53777 0.71245 0.97742 0.01700
C 	C 	0.53891 0.72442 0.03592 0.02400
C 	C 	0.54421 0.75708 0.04518 -0.04200
C 	C 	0.54789 0.77785 0.99662 -0.07300
C 	C 	0.54876 0.76548 0.93799 0.09400
C 	C 	0.54284 0.73303 0.92890 -0.08800
H 	H 	0.54506 0.76629 0.09020 0.04500
H 	H 	0.54294 0.72369 0.88395 0.05600
N 	N 	0.53666 0.70303 0.08596 -0.13800
N 	N 	0.55749 0.78532 0.88755 -0.14700
C 	C 	0.50265 0.70722 0.11853 -0.09000
H 	H 	0.50241 0.73028 0.14249 0.04100
H 	H 	0.49987 0.68786 0.15188 0.04200
H 	H 	0.47903 0.70602 0.08794 0.04100
C 	C 	0.59642 0.79160 0.88416 -0.08900
H 	H 	0.60577 0.80553 0.92320 0.05800
H 	H 	0.60226 0.80554 0.84320 0.05100
H 	H 	0.61180 0.76895 0.88165 0.05100
H 	H 	0.55877 0.70647 0.11441 0.07300
H 	H 	0.54244 0.80631 0.88666 0.08900
