data_crystal

_cell_length_a 26.25876
_cell_length_b 26.41432
_cell_length_c 26.18082
_cell_angle_alpha 95.49958
_cell_angle_beta  95.49998
_cell_angle_gamma 125.76986

_symmetry_space_group_name_	'P 1'
_symmetry_space_group_name_H-M	'P 1'

loop_
_symmetry_equiv_pos_as_xyz
  x,y,z

loop_
_atom_site_label
_atom_site_type_symbol
_atom_site_fract_x
_atom_site_fract_y
_atom_site_fract_z
_atom_site_charge
C 	C 	0.95845 0.02390 0.98887 0.02900
C 	C 	0.05249 0.02651 0.98694 0.03000
C 	C 	0.02389 0.05780 0.98742 -0.07800
C 	C 	0.95197 0.01635 0.45668 0.02500
C 	C 	0.01744 0.05348 0.45501 -0.07200
C 	C 	0.04914 0.02555 0.45276 0.02500
H 	H 	0.04376 0.10410 0.45594 0.04900
C 	C 	0.76090 0.07487 0.39283 -0.03500
C 	C 	0.78694 0.04149 0.39047 -0.05000
C 	C 	0.84233 0.06293 0.42575 0.03000
C 	C 	0.91985 0.04703 0.46203 0.01100
C 	C 	0.86762 0.02846 0.42403 -0.06500
H 	H 	0.71698 0.05651 0.36633 0.04100
C 	C 	0.11804 0.06485 0.45211 0.01300
C 	C 	0.14005 0.08642 0.40654 -0.04600
C 	C 	0.20522 0.12195 0.40514 -0.02800
H 	H 	0.22129 0.14238 0.37099 0.03700
C 	C 	0.89508 0.11109 0.94120 -0.02900
C 	C 	0.92759 0.08417 0.94465 -0.04400
C 	C 	0.92766 0.05612 0.98741 -0.00600
C 	C 	0.89422 0.05441 0.02672 -0.05000
H 	H 	0.89112 0.12707 0.90556 0.03300
H 	H 	0.95100 0.08318 0.91307 0.03900
C 	C 	0.20155 0.06581 0.94073 -0.03000
C 	C 	0.13736 0.03831 0.94182 -0.04100
C 	C 	0.12040 0.06092 0.98247 -0.00600
H 	H 	0.29950 0.05947 0.93595 0.04300
H 	H 	0.21330 0.05020 0.90717 0.03600
C 	C 	0.94429 0.09782 0.50342 -0.04700
H 	H 	0.89305 0.03134 0.05919 0.04700
C 	C 	0.86059 0.08057 0.02331 0.04400
H 	H 	0.81837 0.04761 0.09104 0.04400
H 	H 	0.05214 0.10802 0.98597 0.04700
C 	C 	0.87218 0.11883 0.46392 -0.01400
H 	H 	0.98236 0.11028 0.53440 0.04100
C 	C 	0.16166 0.08105 0.49721 -0.06700
C 	C 	0.82157 0.07262 0.05958 -0.05100
C 	C 	0.86385 0.11251 0.98181 -0.02600
C 	C 	0.33434 0.10790 0.95647 -0.05600
H 	H 	0.41308 0.11006 0.93652 0.02900
H 	H 	0.10663 0.07620 0.37226 0.04300
H 	H 	0.14455 0.06609 0.53295 0.04800
C 	C 	0.78470 0.09475 0.05446 -0.03300
H 	H 	0.75320 0.08620 0.08183 0.04300
C 	C 	0.24991 0.11559 0.98136 -0.02500
C 	C 	0.16824 0.11426 0.02019 -0.04900
C 	C 	0.79234 0.13265 0.42795 0.00200
C 	C 	0.24921 0.13420 0.44908 -0.01300
N 	N 	0.54841 0.12158 0.13449 -0.10800
C 	C 	0.78934 0.12888 0.01504 0.01400
C 	C 	0.22730 0.11708 0.49640 0.03300
C 	C 	0.92031 0.13309 0.50484 -0.02900
C 	C 	0.83195 0.14135 0.98030 0.00200
C 	C 	0.39920 0.13575 0.95832 0.00900
H 	H 	0.15514 0.13298 0.05071 0.04700
H 	H 	0.25478 0.12559 0.57906 0.04400
C 	C 	0.27126 0.13761 0.54262 -0.05000
H 	H 	0.71922 0.14123 0.03648 0.05100
C 	C 	0.31540 0.14125 0.98399 0.00300
H 	H 	0.30535 0.14748 0.36332 0.04400
H 	H 	0.10064 0.99917 0.91103 0.03800
C 	C 	0.92165 0.95851 0.98923 -0.07900
C 	C 	0.95022 0.92728 0.98913 0.03000
C 	C 	0.01582 0.96164 0.98904 -0.07700
H 	H 	0.87071 0.93180 0.98850 0.04700
H 	H 	0.03809 0.93766 0.98968 0.05000
C 	C 	0.01531 0.96020 0.45137 -0.07200
C 	C 	0.94942 0.92227 0.45128 0.02500
C 	C 	0.91781 0.95052 0.45443 -0.07200
H 	H 	0.04011 0.93878 0.44995 0.05100
H 	H 	0.86710 0.92153 0.45516 0.04900
Cu	Cu	0.63040 0.23284 0.99764 0.92100
Cu	Cu	0.67439 0.24177 0.88417 0.86800
Cu	Cu	0.65729 0.33462 0.93442 0.89500
Cu	Cu	0.63706 0.35208 0.04259 0.89900
C 	C 	0.66056 0.27969 0.10777 0.28800
O 	O 	0.53867 0.19722 0.00287 -0.33600
C 	C 	0.63949 0.30201 0.82024 0.28200
O 	O 	0.68275 0.33230 0.00483 -0.63000
O 	O 	0.61618 0.24162 0.92456 -0.64300
O 	O 	0.66881 0.18687 0.98705 -0.37600
O 	O 	0.73628 0.25683 0.93952 -0.44300
O 	O 	0.62954 0.30411 0.09917 -0.37900
O 	O 	0.70401 0.42595 0.94617 -0.37700
C 	C 	0.70909 0.46210 0.98796 0.27400
C 	C 	0.51403 0.22641 0.98902 0.26600
O 	O 	0.55179 0.28606 0.98395 -0.39800
O 	O 	0.67474 0.43744 0.02452 -0.37700
O 	O 	0.65768 0.24042 0.07035 -0.34800
C 	C 	0.72137 0.21312 0.96764 0.28900
O 	O 	0.63760 0.33517 0.86023 -0.37000
O 	O 	0.63369 0.24963 0.82441 -0.41400
H 	H 	0.72952 0.35942 0.01767 0.17300
H 	H 	0.57112 0.21465 0.90608 0.17700
Cu	Cu	0.74838 0.34917 0.43698 0.92900
Cu	Cu	0.73803 0.30091 0.54857 0.86700
Cu	Cu	0.64433 0.31695 0.49938 0.89800
Cu	Cu	0.62698 0.34005 0.39285 0.89500
C 	C 	0.70310 0.32202 0.32681 0.28800
O 	O 	0.78188 0.43982 0.43278 -0.35500
C 	C 	0.67473 0.33264 0.61302 0.28300
O 	O 	0.64815 0.29451 0.42894 -0.64200
O 	O 	0.73826 0.36032 0.51001 -0.64100
O 	O 	0.79810 0.31481 0.44724 -0.36600
O 	O 	0.72817 0.24285 0.49240 -0.43700
O 	O 	0.67623 0.35051 0.33614 -0.38100
O 	O 	0.55240 0.26811 0.48715 -0.38000
C 	C 	0.51614 0.26759 0.44812 0.29000
C 	C 	0.75185 0.46312 0.44770 0.27800
O 	O 	0.69193 0.42439 0.45268 -0.39100
O 	O 	0.54013 0.29981 0.41030 -0.39000
O 	O 	0.74211 0.32421 0.36425 -0.35300
C 	C 	0.77332 0.26164 0.46485 0.28800
O 	O 	0.64325 0.33664 0.57304 -0.37300
O 	O 	0.72703 0.33724 0.60948 -0.41300
H 	H 	0.62183 0.24828 0.41514 0.17100
H 	H 	0.76425 0.40460 0.52955 0.17900
C 	C 	0.65730 0.33371 0.66489 -0.06800
C 	C 	0.70211 0.38366 0.70677 0.00200
C 	C 	0.69358 0.37600 0.75855 -0.00500
C 	C 	0.63934 0.31902 0.76813 -0.06800
C 	C 	0.58960 0.27419 0.72603 0.00100
C 	C 	0.59893 0.28099 0.67427 -0.00400
C 	C 	0.75682 0.44270 0.69651 0.08200
C 	C 	0.52913 0.22115 0.73606 0.08300
C 	C 	0.54972 0.23259 0.63087 0.07300
C 	C 	0.74180 0.42540 0.80188 0.07500
N 	N 	0.51045 0.19391 0.59628 -0.11800
N 	N 	0.78035 0.46485 0.83642 -0.12000
N 	N 	0.48088 0.17883 0.74408 -0.11800
N 	N 	0.80047 0.48981 0.68831 -0.11900
C 	C 	0.68341 0.28258 0.16237 -0.06400
C 	C 	0.73901 0.34003 0.19127 -0.00300
C 	C 	0.74931 0.35115 0.24629 0.00500
C 	C 	0.70430 0.30433 0.27210 -0.06300
C 	C 	0.65447 0.24344 0.24337 -0.00300
C 	C 	0.64381 0.23252 0.18831 0.00500
C 	C 	0.78442 0.38831 0.16430 0.07100
C 	C 	0.61320 0.19274 0.27044 0.07300
C 	C 	0.59076 0.17082 0.15839 0.09200
C 	C 	0.80472 0.41147 0.27630 0.08900
N 	N 	0.84889 0.45960 0.30028 -0.11100
N 	N 	0.58030 0.15232 0.29210 -0.12100
N 	N 	0.82061 0.42681 0.14273 -0.12000
C 	C 	0.91360 0.85277 0.44688 0.01200
C 	C 	0.91700 0.81778 0.40542 -0.04600
C 	C 	0.89153 0.75419 0.40469 -0.02800
C 	C 	0.85792 0.72285 0.44391 -0.01300
C 	C 	0.85550 0.75865 0.48634 0.03200
C 	C 	0.88233 0.82302 0.48702 -0.06700
C 	C 	0.82910 0.73075 0.52880 -0.05100
C 	C 	0.80646 0.66834 0.53037 -0.03400
C 	C 	0.80680 0.63147 0.48836 0.00500
C 	C 	0.82978 0.65739 0.44359 0.01300
C 	C 	0.82190 0.61677 0.39919 -0.05400
C 	C 	0.79943 0.55455 0.40179 0.00500
C 	C 	0.78015 0.53018 0.44711 -0.07200
C 	C 	0.78277 0.56820 0.49000 -0.01700
H 	H 	0.94219 0.84083 0.37482 0.04200
H 	H 	0.90171 0.73117 0.37552 0.03800
H 	H 	0.88101 0.85052 0.51971 0.04700
H 	H 	0.82749 0.75806 0.56140 0.04200
H 	H 	0.78785 0.64833 0.56424 0.04000
H 	H 	0.82922 0.63147 0.36184 0.04500
H 	H 	0.79435 0.52427 0.36757 0.04300
H 	H 	0.76575 0.54849 0.52441 0.03900
C 	C 	0.80195 0.22794 0.46010 -0.08100
C 	C 	0.86248 0.25477 0.48931 0.00500
C 	C 	0.88713 0.22009 0.48973 -0.05800
C 	C 	0.85045 0.15700 0.46170 0.01400
C 	C 	0.76735 0.16739 0.42875 -0.01000
H 	H 	0.89035 0.30249 0.51211 0.02200
H 	H 	0.93557 0.24343 0.50989 0.04300
H 	H 	0.72134 0.14756 0.40486 0.04000
H 	H 	0.76317 0.99810 0.36183 0.04100
H 	H 	0.93732 0.16939 0.53879 0.03400
H 	H 	0.84731 0.98788 0.39294 0.04600
C 	C 	0.33664 0.17499 0.54246 -0.03300
C 	C 	0.35908 0.18904 0.49550 0.00600
C 	C 	0.31528 0.16607 0.44789 0.01400
C 	C 	0.33801 0.17197 0.40038 -0.05500
C 	C 	0.40346 0.20592 0.40071 0.00600
C 	C 	0.44715 0.23252 0.44808 -0.07100
C 	C 	0.42480 0.22389 0.49540 -0.01400
H 	H 	0.36994 0.19170 0.57884 0.04500
H 	H 	0.42003 0.20996 0.36392 0.03500
H 	H 	0.45844 0.24391 0.53209 0.05500
C 	C 	0.91098 0.85794 0.98658 -0.00600
C 	C 	0.91018 0.81908 0.94559 -0.04300
C 	C 	0.87669 0.75404 0.94466 -0.03000
C 	C 	0.84484 0.72710 0.98586 -0.02400
C 	C 	0.84020 0.76520 0.02419 0.04300
C 	C 	0.87494 0.83078 0.02528 -0.04900
C 	C 	0.79960 0.73710 0.06001 -0.05100
C 	C 	0.76337 0.67164 0.05795 -0.03400
C 	C 	0.77049 0.63383 0.02250 0.01600
C 	C 	0.81421 0.66200 0.98819 0.00100
C 	C 	0.82920 0.62565 0.95972 -0.05300
C 	C 	0.79537 0.56086 0.96028 0.00700
C 	C 	0.74718 0.53144 0.99006 -0.08400
C 	C 	0.73579 0.56838 0.02204 -0.00100
H 	H 	0.93523 0.83932 0.91412 0.03900
H 	H 	0.87312 0.72463 0.91071 0.03800
H 	H 	0.87397 0.86060 0.05609 0.04600
H 	H 	0.79497 0.76583 0.08881 0.04300
H 	H 	0.73076 0.65049 0.08490 0.03900
H 	H 	0.86904 0.64775 0.93945 0.04400
H 	H 	0.80761 0.53375 0.93831 0.04300
H 	H 	0.70017 0.54638 0.04657 0.04300
C 	C 	0.76113 0.19040 0.97386 -0.09900
C 	C 	0.80780 0.20756 0.94295 0.00600
C 	C 	0.84394 0.18459 0.94692 -0.06000
C 	C 	0.75304 0.15220 0.01078 0.00400
H 	H 	0.81658 0.23930 0.91598 0.02300
H 	H 	0.88306 0.20304 0.92596 0.04000
C 	C 	0.44593 0.19629 0.98831 -0.08700
C 	C 	0.36286 0.19990 0.01787 0.01400
C 	C 	0.42775 0.22800 0.01843 0.00500
C 	C 	0.34504 0.22862 0.05222 -0.03200
C 	C 	0.28074 0.19925 0.05398 -0.05200
C 	C 	0.23296 0.14294 0.01891 0.04400
H 	H 	0.46413 0.27385 0.04319 0.03100
H 	H 	0.38123 0.27306 0.07869 0.03800
H 	H 	0.26803 0.22106 0.08208 0.04400
