data_crystal

_cell_length_a 36.98884
_cell_length_b 37.16589
_cell_length_c 30.02002
_cell_angle_alpha 89.50604
_cell_angle_beta  90.00000
_cell_angle_gamma 90.00003

_symmetry_space_group_name_	'P 1'
_symmetry_space_group_name_H-M	'P 1'

loop_
_symmetry_equiv_pos_as_xyz
  x,y,z

loop_
_atom_site_label
_atom_site_type_symbol
_atom_site_fract_x
_atom_site_fract_y
_atom_site_fract_z
_atom_site_charge
C 	C 	0.46986 0.57294 0.88936 0.09900
N 	N 	0.45847 0.54011 0.90249 -0.17200
C 	C 	0.42336 0.53781 0.89095 0.09900
C 	C 	0.39849 0.51107 0.91124 -0.07700
C 	C 	0.41023 0.47332 0.91686 0.08700
C 	C 	0.36099 0.52124 0.92281 0.04100
C 	C 	0.35451 0.54816 0.95432 -0.06000
C 	C 	0.31903 0.55748 0.96549 -0.03200
C 	C 	0.28985 0.53980 0.94540 0.00200
C 	C 	0.33176 0.50355 0.90282 -0.05700
N 	N 	0.43784 0.45900 0.89367 -0.12900
C 	C 	0.40110 0.45188 0.95301 -0.06400
C 	C 	0.44567 0.42779 0.91470 0.08700
C 	C 	0.47876 0.40683 0.90562 -0.07700
C 	C 	0.47931 0.36784 0.91578 0.04100
C 	C 	0.44974 0.30969 0.91243 -0.03100
C 	C 	0.50435 0.35381 0.94646 -0.06100
C 	C 	0.50163 0.31798 0.96069 -0.03300
C 	C 	0.47343 0.29627 0.94501 -0.00600
N 	N 	0.52295 0.45668 0.89832 -0.17300
C 	C 	0.55702 0.45954 0.88286 0.09900
C 	C 	0.56639 0.42915 0.85906 -0.06400
C 	C 	0.53658 0.40673 0.86032 -0.06400
C 	C 	0.58331 0.48573 0.90096 -0.07600
C 	C 	0.62165 0.47549 0.90773 0.04000
C 	C 	0.68545 0.48809 0.89697 -0.03500
C 	C 	0.69443 0.45800 0.92323 -0.00300
C 	C 	0.66688 0.43703 0.94240 -0.03600
C 	C 	0.63061 0.44581 0.93480 -0.06000
N 	N 	0.54269 0.53821 0.88967 -0.12900
C 	C 	0.56081 0.57264 0.94696 -0.06300
C 	C 	0.53644 0.56869 0.91242 0.08700
C 	C 	0.50289 0.58988 0.90757 -0.07500
C 	C 	0.50365 0.62879 0.91663 0.03300
C 	C 	0.51421 0.65306 0.88309 -0.05100
C 	C 	0.51768 0.68963 0.89253 -0.04000
C 	C 	0.51145 0.70202 0.93585 0.02400
C 	C 	0.49999 0.67789 0.96914 -0.07200
C 	C 	0.49590 0.64139 0.95947 -0.04200
C 	C 	0.44190 0.59182 0.86915 -0.06400
C 	C 	0.41218 0.56931 0.87010 -0.06400
C 	C 	0.29634 0.51273 0.91416 -0.03400
C 	C 	0.42386 0.42261 0.95161 -0.06400
C 	C 	0.51044 0.42457 0.88478 0.09900
C 	C 	0.58352 0.54335 0.94500 -0.06500
C 	C 	0.57180 0.52314 0.90934 0.08700
C 	C 	0.64926 0.49645 0.88866 -0.05800
H 	H 	0.47040 0.52508 0.92815 0.09000
H 	H 	0.51310 0.47049 0.92597 0.09000
H 	H 	0.52569 0.70826 0.86639 0.03800
H 	H 	0.49482 0.68732 0.00258 0.06600
H 	H 	0.52001 0.64353 0.84984 0.04300
H 	H 	0.48756 0.62278 0.98548 0.03400
H 	H 	0.31422 0.57843 0.98965 0.03300
H 	H 	0.33651 0.48278 0.87840 0.04500
H 	H 	0.27392 0.49904 0.89842 0.03600
H 	H 	0.37692 0.56182 0.97011 0.04100
H 	H 	0.52069 0.30745 0.98490 0.03000
H 	H 	0.52523 0.37090 0.96016 0.04000
C 	C 	0.45263 0.34535 0.89791 -0.05900
H 	H 	0.42840 0.29279 0.89943 0.03600
H 	H 	0.70656 0.50484 0.88278 0.03300
H 	H 	0.64265 0.51943 0.86776 0.04400
H 	H 	0.60950 0.42974 0.95016 0.04000
H 	H 	0.67358 0.41408 0.96330 0.03200
H 	H 	0.44039 0.62083 0.86629 0.04600
H 	H 	0.38444 0.57841 0.86782 0.04700
H 	H 	0.38777 0.46136 0.98279 0.04200
H 	H 	0.43074 0.40593 0.98011 0.04100
H 	H 	0.59377 0.42024 0.85284 0.04600
H 	H 	0.53762 0.37792 0.85550 0.04600
H 	H 	0.55603 0.58829 0.97662 0.04200
H 	H 	0.59893 0.53291 0.97291 0.04200
H 	H 	0.43352 0.35582 0.87371 0.04600
Co	Co	0.40923 0.08818 0.98929 1.17100
Co	Co	0.41241 0.00474 0.98911 1.06900
O 	O 	0.40508 0.14251 0.99300 -0.39200
O 	O 	0.45954 0.12511 0.00115 -0.29100
O 	O 	0.35982 0.07083 0.97746 -0.44400
O 	O 	0.40194 0.02289 0.92778 -0.47200
C 	C 	0.34493 0.04563 0.00239 0.33800
C 	C 	0.43792 0.15231 0.99993 0.28800
O 	O 	0.36428 0.01853 0.01762 -0.43400
O 	O 	0.43159 0.07642 0.93312 -0.44600
C 	C 	0.42044 0.04921 0.90927 0.29400
O 	O 	0.41190 0.07453 0.05093 -0.42400
O 	O 	0.44642 0.02667 0.03232 -0.48400
C 	C 	0.43431 0.04893 0.06265 0.30600
S 	S 	0.52021 0.95736 0.43555 -0.00600
C 	C 	0.52371 0.97833 0.38476 -0.01700
C 	C 	0.50084 0.00873 0.38177 -0.01400
S 	S 	0.47724 0.01500 0.43028 -0.00700
C 	C 	0.48946 0.98096 0.46430 -0.00800
C 	C 	0.48869 0.98283 0.51314 -0.00700
S 	S 	0.46322 0.01176 0.54219 -0.00700
C 	C 	0.48447 0.01643 0.59255 -0.01600
C 	C 	0.51667 0.99589 0.59464 -0.01400
S 	S 	0.52403 0.97302 0.54614 -0.00700
C 	C 	0.44239 0.04219 0.71981 0.02200
C 	C 	0.43475 0.00858 0.70112 -0.04800
C 	C 	0.44590 0.00101 0.65776 -0.04100
C 	C 	0.46454 0.02710 0.63273 0.01700
C 	C 	0.46863 0.06192 0.64965 -0.04200
C 	C 	0.45694 0.06966 0.69286 -0.04700
H 	H 	0.42204 0.98768 0.72103 0.03700
H 	H 	0.44204 0.97423 0.64460 0.04000
H 	H 	0.48244 0.08242 0.63023 0.03900
H 	H 	0.46150 0.09619 0.70642 0.04100
C 	C 	0.55105 0.96708 0.72550 0.02200
C 	C 	0.55862 0.00153 0.70857 -0.04700
C 	C 	0.54954 0.01037 0.66461 -0.04100
C 	C 	0.53329 0.98464 0.63717 0.01700
C 	C 	0.52860 0.94930 0.65304 -0.04200
C 	C 	0.53772 0.94048 0.69698 -0.04700
H 	H 	0.56989 0.02193 0.73006 0.03800
H 	H 	0.55360 0.03763 0.65253 0.03900
H 	H 	0.51610 0.92920 0.63214 0.04000
H 	H 	0.53246 0.91360 0.70960 0.04100
C 	C 	0.55092 0.93973 0.25694 -0.01600
C 	C 	0.52058 0.92571 0.27915 -0.02900
C 	C 	0.51347 0.93549 0.32310 -0.04900
C 	C 	0.53665 0.95931 0.34513 0.02400
C 	C 	0.56880 0.97042 0.32446 -0.05000
C 	C 	0.57583 0.96085 0.28038 -0.02700
H 	H 	0.50141 0.90899 0.26155 0.03300
H 	H 	0.48867 0.92660 0.33894 0.04200
H 	H 	0.58706 0.98850 0.34145 0.04200
H 	H 	0.59979 0.97112 0.26386 0.03700
C 	C 	0.47064 0.03461 0.24867 0.02300
C 	C 	0.50451 0.04523 0.26485 -0.04600
C 	C 	0.51308 0.04015 0.30982 -0.03900
C 	C 	0.48829 0.02333 0.33862 0.01700
C 	C 	0.45363 0.01462 0.32293 -0.04100
C 	C 	0.44472 0.02062 0.27822 -0.04700
H 	H 	0.52450 0.05657 0.24239 0.04100
H 	H 	0.53973 0.04740 0.32172 0.04000
H 	H 	0.43428 0.00154 0.34478 0.04000
H 	H 	0.41824 0.01298 0.26612 0.04100
Co	Co	0.59301 0.90475 0.98838 1.17000
Co	Co	0.51196 0.92627 0.98461 1.07500
O 	O 	0.64584 0.88979 0.98696 -0.39600
O 	O 	0.63975 0.94626 0.97717 -0.32900
O 	O 	0.56528 0.86033 0.00015 -0.39900
O 	O 	0.52478 0.91260 0.04694 -0.46200
C 	C 	0.53730 0.85138 0.97552 0.29200
C 	C 	0.66219 0.91979 0.97945 0.32000
O 	O 	0.51703 0.87645 0.95701 -0.43600
O 	O 	0.58408 0.92930 0.04375 -0.43300
C 	C 	0.55429 0.92409 0.06659 0.32500
O 	O 	0.58220 0.91004 0.92619 -0.43500
O 	O 	0.54283 0.95441 0.94305 -0.49000
C 	C 	0.56265 0.93758 0.91353 0.30800
Co	Co	0.07311 0.59510 0.97246 1.17300
Co	Co	0.98911 0.58379 0.97710 1.06900
O 	O 	0.12700 0.60566 0.97416 -0.39400
O 	O 	0.11632 0.54952 0.98132 -0.32600
O 	O 	0.04934 0.64211 0.96334 -0.41800
O 	O 	0.00478 0.59660 0.91555 -0.47200
C 	C 	0.02489 0.65381 0.99156 0.25300
C 	C 	0.14076 0.57423 0.98030 0.30200
O 	O 	0.99960 0.63204 0.00670 -0.40900
O 	O 	0.06159 0.57290 0.91624 -0.44400
C 	C 	0.03104 0.57938 0.89539 0.32200
O 	O 	0.06230 0.58922 0.03461 -0.42900
O 	O 	0.01674 0.55121 0.01713 -0.48000
C 	C 	0.03890 0.56467 0.04682 0.30900
S 	S 	0.99404 0.54855 0.52570 -0.00800
C 	C 	0.99966 0.52563 0.57498 -0.01700
C 	C 	0.97829 0.49417 0.57659 -0.01600
S 	S 	0.95367 0.48906 0.52878 -0.00600
C 	C 	0.96361 0.52486 0.49645 -0.00800
C 	C 	0.96244 0.52425 0.44756 -0.00800
S 	S 	0.93706 0.49526 0.41840 -0.00600
C 	C 	0.95912 0.48936 0.36887 -0.01700
C 	C 	0.99145 0.50959 0.36682 -0.01500
S 	S 	0.99832 0.53319 0.41490 -0.00800
C 	C 	0.92374 0.46224 0.23965 -0.01600
C 	C 	0.91047 0.49355 0.25975 -0.02900
C 	C 	0.91889 0.50086 0.30412 -0.04900
C 	C 	0.94036 0.47678 0.32876 0.02400
C 	C 	0.94990 0.44359 0.31029 -0.05000
C 	C 	0.94186 0.43643 0.26575 -0.02800
H 	H 	0.89580 0.51334 0.24017 0.03200
H 	H 	0.91104 0.52641 0.31831 0.04200
H 	H 	0.96596 0.42457 0.32936 0.04100
H 	H 	0.95138 0.41172 0.25088 0.03500
C 	C 	0.02376 0.53577 0.23461 0.02200
C 	C 	0.03064 0.50131 0.25198 -0.04500
C 	C 	0.02357 0.49371 0.29682 -0.03900
C 	C 	0.00838 0.52015 0.32418 0.01800
C 	C 	0.00388 0.55529 0.30752 -0.04000
C 	C 	0.01206 0.56318 0.26303 -0.04700
H 	H 	0.04036 0.48016 0.23045 0.03900
H 	H 	0.02789 0.46671 0.30963 0.04000
H 	H 	0.99229 0.57598 0.32832 0.03900
H 	H 	0.00741 0.59006 0.25004 0.04100
C 	C 	0.02243 0.56068 0.70555 -0.01500
C 	C 	0.99564 0.57824 0.68047 -0.02900
C 	C 	0.99083 0.56983 0.63557 -0.05100
C 	C 	0.01243 0.54340 0.61566 0.02700
C 	C 	0.04111 0.52809 0.63980 -0.04900
C 	C 	0.04593 0.53648 0.68470 -0.02700
H 	H 	0.97767 0.59734 0.69619 0.03400
H 	H 	0.96860 0.58184 0.61723 0.04200
H 	H 	0.05801 0.50776 0.62469 0.04200
H 	H 	0.06689 0.52301 0.70375 0.03500
C 	C 	0.95710 0.45907 0.70900 -0.01600
C 	C 	0.98416 0.44215 0.68396 -0.02800
C 	C 	0.98915 0.45143 0.63915 -0.05100
C 	C 	0.96710 0.47759 0.61904 0.02500
C 	C 	0.93871 0.49294 0.64336 -0.04900
C 	C 	0.93402 0.48408 0.68830 -0.02800
H 	H 	0.00179 0.42242 0.69945 0.03600
H 	H 	0.01124 0.43957 0.62068 0.04300
H 	H 	0.92172 0.51338 0.62818 0.04200
H 	H 	0.91309 0.49735 0.70732 0.03200
Co	Co	0.91204 0.40579 0.97654 1.17500
Co	Co	0.91318 0.48857 0.96073 1.07300
O 	O 	0.90936 0.35144 0.98268 -0.39000
O 	O 	0.96360 0.36926 0.97338 -0.32900
O 	O 	0.86187 0.42277 0.98410 -0.42600
O 	O 	0.90195 0.47801 0.02445 -0.46400
C 	C 	0.84677 0.44500 0.95528 0.32000
C 	C 	0.94257 0.34188 0.97857 0.31700
O 	O 	0.86631 0.46921 0.93408 -0.44800
O 	O 	0.93284 0.42510 0.03025 -0.43400
C 	C 	0.92048 0.45465 0.04833 0.32400
O 	O 	0.91574 0.41195 0.91320 -0.44200
O 	O 	0.94872 0.46239 0.92368 -0.50000
C 	C 	0.93774 0.43650 0.89742 0.33600
C 	C 	0.98222 0.92648 0.10897 0.10000
N 	N 	0.97120 0.95899 0.09422 -0.17300
C 	C 	0.93538 0.96072 0.10191 0.10100
C 	C 	0.91152 0.98642 0.07805 -0.07800
C 	C 	0.92196 0.02467 0.07398 0.08900
C 	C 	0.87586 0.97464 0.06151 0.05000
C 	C 	0.87358 0.94895 0.02767 -0.07500
C 	C 	0.83979 0.93757 0.01241 0.00800
C 	C 	0.80811 0.95142 0.03138 -0.02000
C 	C 	0.84417 0.98908 0.07974 -0.06400
N 	N 	0.94753 0.03984 0.09971 -0.12900
C 	C 	0.91401 0.04615 0.03744 -0.06100
C 	C 	0.95523 0.07159 0.07987 0.08900
C 	C 	0.98730 0.09330 0.09147 -0.07700
C 	C 	0.98765 0.13220 0.08080 0.04300
C 	C 	0.95778 0.19026 0.08328 -0.02400
C 	C 	0.01261 0.14607 0.04994 -0.05800
C 	C 	0.00960 0.18170 0.03499 -0.02300
C 	C 	0.98154 0.20357 0.05071 -0.00200
N 	N 	0.03133 0.04403 0.10497 -0.17300
C 	C 	0.06445 0.04192 0.12344 0.10000
C 	C 	0.07229 0.07324 0.14624 -0.06300
C 	C 	0.04250 0.09534 0.14136 -0.06400
C 	C 	0.09232 0.01662 0.10732 -0.07500
C 	C 	0.12861 0.03002 0.09521 0.03900
C 	C 	0.19359 0.02742 0.10524 -0.03900
C 	C 	0.19845 0.04588 0.06475 0.01900
C 	C 	0.16825 0.05828 0.04089 -0.03400
C 	C 	0.13340 0.05042 0.05615 -0.05300
N 	N 	0.05237 0.96343 0.11714 -0.12900
C 	C 	0.08121 0.92423 0.07272 -0.06100
C 	C 	0.05084 0.93060 0.09841 0.08900
C 	C 	0.01669 0.91006 0.09460 -0.07700
C 	C 	0.01723 0.87278 0.07793 0.04700
C 	C 	0.02038 0.84380 0.10788 -0.06000
C 	C 	0.02115 0.80854 0.09208 -0.03100
C 	C 	0.01966 0.80205 0.04612 0.00400
C 	C 	0.01726 0.83114 0.01613 0.00300
C 	C 	0.01533 0.86633 0.03204 -0.06900
C 	C 	0.95332 0.90721 0.12628 -0.06400
C 	C 	0.92336 0.92913 0.12184 -0.06400
C 	C 	0.81043 0.97763 0.06459 -0.02000
C 	C 	0.93538 0.07629 0.04122 -0.06100
C 	C 	0.01789 0.07649 0.11576 0.10100
C 	C 	0.10253 0.95442 0.07623 -0.06200
C 	C 	0.08414 0.97772 0.10393 0.08900
C 	C 	0.15878 0.01942 0.12036 -0.05400
H 	H 	0.98457 0.97394 0.06959 0.09300
H 	H 	0.02333 0.02945 0.07703 0.09300
H 	H 	0.02316 0.78628 0.11549 0.03700
H 	H 	0.01728 0.82652 0.98058 0.01200
H 	H 	0.02200 0.84860 0.14336 0.04500
H 	H 	0.01313 0.88862 0.00871 0.05000
H 	H 	0.83820 0.91783 0.98614 0.00600
H 	H 	0.84572 0.00901 0.10580 0.04900
H 	H 	0.78606 0.98887 0.07887 0.03800
H 	H 	0.89795 0.93785 0.01323 0.05200
H 	H 	0.02822 0.19188 0.01004 0.04000
H 	H 	0.03353 0.12891 0.03643 0.04600
C 	C 	0.96083 0.15471 0.09829 -0.05700
H 	H 	0.93616 0.20707 0.09576 0.04000
H 	H 	0.21680 0.01793 0.12398 0.03900
H 	H 	0.15526 0.00394 0.15080 0.04400
H 	H 	0.11018 0.05896 0.03675 0.04500
H 	H 	0.17179 0.07281 0.00976 0.04400
H 	H 	0.95216 0.87820 0.12925 0.04700
H 	H 	0.89576 0.91947 0.12101 0.04700
H 	H 	0.90286 0.03647 0.00642 0.04900
H 	H 	0.94323 0.09347 0.01356 0.05100
H 	H 	0.09930 0.08274 0.15354 0.04700
H 	H 	0.04317 0.12432 0.14456 0.04800
H 	H 	0.08244 0.90562 0.04523 0.04800
H 	H 	0.12255 0.96252 0.05181 0.05000
H 	H 	0.94166 0.14431 0.12247 0.04800
C 	C 	0.97447 0.23880 0.02956 0.04400
C 	C 	0.95100 0.24135 0.99278 -0.00100
C 	C 	0.94159 0.27531 0.97554 0.00400
C 	C 	0.95564 0.30667 0.99446 -0.14400
C 	C 	0.97969 0.30411 0.03084 0.14200
C 	C 	0.98913 0.27007 0.04804 -0.11500
H 	H 	0.92291 0.27725 0.94779 0.03300
H 	H 	0.00714 0.26808 0.07644 0.06000
N 	N 	0.93573 0.20928 0.97391 -0.13500
N 	N 	0.99377 0.33621 0.05104 -0.14000
C 	C 	0.95455 0.19968 0.93284 -0.09100
H 	H 	0.95054 0.22070 0.90672 0.04400
H 	H 	0.94354 0.17388 0.92032 0.04100
H 	H 	0.98393 0.19591 0.93916 0.04300
C 	C 	0.97244 0.34597 0.09018 -0.09000
H 	H 	0.94366 0.35037 0.08089 0.06500
H 	H 	0.98301 0.37149 0.10404 0.05700
H 	H 	0.97428 0.32472 0.11640 0.04600
H 	H 	0.90808 0.21277 0.96781 0.07100
H 	H 	0.02095 0.33275 0.05978 0.08200
C 	C 	0.95325 0.45105 0.75702 0.05800
C 	C 	0.92016 0.43868 0.77387 -0.09600
C 	C 	0.91577 0.43285 0.81950 0.04700
C 	C 	0.94458 0.43876 0.84902 -0.15900
C 	C 	0.97881 0.44921 0.83187 0.15200
C 	C 	0.98247 0.45641 0.78603 -0.13200
H 	H 	0.88957 0.42461 0.83212 0.02600
H 	H 	0.00814 0.46583 0.77292 0.06500
H 	H 	0.89761 0.43410 0.75160 0.05200
N 	N 	0.00831 0.45125 0.85878 -0.20900
H 	H 	0.00798 0.44068 0.89110 0.09600
H 	H 	0.03271 0.46148 0.84651 0.08700
C 	C 	0.92302 0.45889 0.19069 0.05700
C 	C 	0.89011 0.46068 0.16768 -0.09400
C 	C 	0.88963 0.46046 0.12118 0.04600
C 	C 	0.92204 0.45854 0.09702 -0.15200
C 	C 	0.95550 0.45766 0.12005 0.14700
C 	C 	0.95559 0.45686 0.16684 -0.12500
H 	H 	0.86393 0.46115 0.10384 0.02700
H 	H 	0.98108 0.45642 0.18467 0.06200
H 	H 	0.86487 0.46230 0.18586 0.05200
N 	N 	0.98743 0.45911 0.09762 -0.20800
H 	H 	0.98832 0.46319 0.06319 0.08800
H 	H 	0.01194 0.45786 0.11490 0.08900
C 	C 	0.02174 0.76478 0.02946 -0.00800
C 	C 	0.99171 0.74883 0.00855 0.07900
C 	C 	0.99325 0.71249 0.99609 -0.09300
C 	C 	0.02442 0.69201 0.00425 -0.03800
C 	C 	0.05421 0.70786 0.02639 0.08200
C 	C 	0.05299 0.74436 0.03745 -0.07000
H 	H 	0.96994 0.70010 0.98061 0.04000
H 	H 	0.07591 0.75649 0.05410 0.05500
N 	N 	0.95878 0.76898 0.00274 -0.13200
N 	N 	0.08466 0.68658 0.04086 -0.14100
C 	C 	0.95173 0.77652 0.95559 -0.10700
H 	H 	0.97574 0.78885 0.93926 0.04500
H 	H 	0.92895 0.79584 0.95278 0.04000
H 	H 	0.94412 0.75151 0.93782 0.03900
C 	C 	0.07715 0.66856 0.08340 -0.09300
H 	H 	0.07308 0.68879 0.10998 0.05100
H 	H 	0.10058 0.65145 0.09287 0.05600
H 	H 	0.05280 0.65114 0.08115 0.06200
H 	H 	0.93704 0.75496 0.01694 0.07700
H 	H 	0.09329 0.66841 0.01674 0.09000
C 	C 	0.02419 0.56561 0.75412 0.05700
C 	C 	0.05400 0.58283 0.77316 -0.09300
C 	C 	0.05623 0.58671 0.81928 0.04800
C 	C 	0.02879 0.57316 0.84705 -0.14500
C 	C 	0.99903 0.55471 0.82803 0.13700
C 	C 	0.99664 0.55186 0.78146 -0.12600
H 	H 	0.07916 0.60068 0.83348 0.02400
H 	H 	0.97385 0.53807 0.76659 0.06200
H 	H 	0.07541 0.59339 0.75217 0.05200
N 	N 	0.97349 0.53873 0.85413 -0.20300
H 	H 	0.97677 0.53635 0.88856 0.03100
H 	H 	0.95075 0.52680 0.83977 0.06800
C 	C 	0.03486 0.55514 0.09420 -0.08000
C 	C 	0.06542 0.55257 0.12165 0.00100
C 	C 	0.06152 0.54611 0.16729 -0.04300
C 	C 	0.02701 0.54263 0.18623 -0.02900
C 	C 	0.99593 0.54519 0.15859 0.07000
C 	C 	0.00028 0.55094 0.11261 -0.03700
H 	H 	0.08538 0.54405 0.18810 0.03900
H 	H 	0.97664 0.55301 0.09136 0.01900
H 	H 	0.09225 0.55563 0.10762 0.03800
N 	N 	0.96206 0.54239 0.17592 -0.19500
H 	H 	0.95778 0.53807 0.20985 0.08800
H 	H 	0.93941 0.54407 0.15517 0.07800
C 	C 	0.77241 0.93961 0.01530 0.04700
C 	C 	0.75154 0.91445 0.03994 0.01600
C 	C 	0.71584 0.90748 0.02714 0.03100
C 	C 	0.70065 0.92516 0.99014 -0.14700
C 	C 	0.72187 0.94906 0.96456 0.12100
C 	C 	0.75783 0.95579 0.97699 -0.13500
H 	H 	0.69969 0.88877 0.04661 0.04400
H 	H 	0.77410 0.97434 0.95744 0.05600
N 	N 	0.76632 0.89572 0.07801 -0.13300
N 	N 	0.70707 0.96574 0.92513 -0.14500
C 	C 	0.78646 0.86377 0.06445 -0.09200
H 	H 	0.76872 0.84525 0.04546 0.05500
H 	H 	0.79618 0.84920 0.09459 0.04800
H 	H 	0.81029 0.87124 0.04387 0.05100
C 	C 	0.69927 0.00382 0.93266 -0.08900
H 	H 	0.68136 0.00717 0.96208 0.06000
H 	H 	0.68507 0.01507 0.90310 0.04800
H 	H 	0.72467 0.01929 0.93762 0.04000
H 	H 	0.78207 0.91241 0.09808 0.07800
H 	H 	0.72493 0.96291 0.89834 0.07300
C 	C 	0.55976 0.94700 0.86601 -0.07800
C 	C 	0.59053 0.94653 0.83878 0.00000
C 	C 	0.58746 0.95325 0.79307 -0.04100
C 	C 	0.55351 0.95996 0.77390 -0.03000
C 	C 	0.52223 0.96039 0.80133 0.07300
C 	C 	0.52582 0.95446 0.84735 -0.04100
H 	H 	0.61148 0.95300 0.77243 0.03900
H 	H 	0.50201 0.95466 0.86843 0.01600
H 	H 	0.61688 0.94098 0.85304 0.03900
N 	N 	0.48882 0.96602 0.78369 -0.19500
H 	H 	0.48514 0.97032 0.74967 0.08900
H 	H 	0.46600 0.96633 0.80421 0.07600
C 	C 	0.55458 0.93536 0.20834 0.05800
C 	C 	0.55495 0.96574 0.18031 -0.09000
C 	C 	0.55510 0.96175 0.13414 0.04700
C 	C 	0.55509 0.92737 0.11531 -0.15100
C 	C 	0.55573 0.89648 0.14342 0.15300
C 	C 	0.55528 0.90085 0.18987 -0.12900
H 	H 	0.55461 0.98546 0.11289 0.01900
H 	H 	0.55535 0.87739 0.21160 0.06300
H 	H 	0.55390 0.99249 0.19435 0.05400
N 	N 	0.55717 0.86277 0.12616 -0.21000
H 	H 	0.55908 0.85856 0.09193 0.10400
H 	H 	0.55704 0.84022 0.14720 0.08700
C 	C 	0.30674 0.04851 0.01488 -0.07400
C 	C 	0.29582 0.07319 0.04752 0.09100
C 	C 	0.25984 0.07308 0.06255 -0.07600
C 	C 	0.23485 0.04862 0.04508 -0.01700
C 	C 	0.24555 0.02471 0.01141 0.09000
C 	C 	0.28151 0.02483 0.99643 -0.08400
H 	H 	0.25162 0.09146 0.08850 0.04900
H 	H 	0.28990 0.00603 0.97102 0.03700
N 	N 	0.32179 0.09734 0.06680 -0.14000
N 	N 	0.21981 0.99997 0.99282 -0.16700
C 	C 	0.31831 0.13342 0.04744 -0.09600
H 	H 	0.32164 0.13261 0.01065 0.06900
H 	H 	0.33987 0.15094 0.06109 0.06000
H 	H 	0.29163 0.14540 0.05583 0.05000
C 	C 	0.22376 0.96419 0.01294 -0.04000
H 	H 	0.25064 0.95249 0.00492 0.03800
H 	H 	0.20251 0.94618 0.99955 0.01700
H 	H 	0.22029 0.96543 0.04967 0.04200
H 	H 	0.31869 0.09823 0.10144 0.07900
H 	H 	0.22284 0.99861 0.95820 0.06900
C 	C 	0.42614 0.04969 0.86088 -0.07500
C 	C 	0.39668 0.04640 0.83192 -0.00700
C 	C 	0.40214 0.04588 0.78591 -0.04100
C 	C 	0.43724 0.04770 0.76821 -0.03300
C 	C 	0.46723 0.05134 0.79754 0.07700
C 	C 	0.46115 0.05312 0.84367 -0.05100
H 	H 	0.37910 0.04313 0.76391 0.03700
H 	H 	0.48386 0.05587 0.86623 0.04000
H 	H 	0.36948 0.04424 0.84508 0.03400
N 	N 	0.50176 0.05181 0.78191 -0.19600
H 	H 	0.50758 0.04794 0.74836 0.08800
H 	H 	0.52349 0.05474 0.80384 0.08200
C 	C 	0.44581 0.04517 0.10950 -0.07300
C 	C 	0.44705 0.07547 0.13699 -0.00000
C 	C 	0.45543 0.07173 0.18213 -0.03900
C 	C 	0.46250 0.03767 0.20058 -0.03100
C 	C 	0.46182 0.00690 0.17287 0.07400
C 	C 	0.45371 0.01106 0.12736 -0.04400
H 	H 	0.45614 0.09538 0.20298 0.04100
H 	H 	0.45281 0.98761 0.10614 0.02500
H 	H 	0.44142 0.10198 0.12340 0.04300
N 	N 	0.46870 0.97348 0.18965 -0.19600
H 	H 	0.47534 0.96945 0.22307 0.08900
H 	H 	0.46809 0.95102 0.16893 0.08000
C 	C 	0.46791 0.25984 0.96358 0.02200
C 	C 	0.44233 0.25356 0.99790 -0.02200
C 	C 	0.43375 0.21821 0.01038 0.05700
C 	C 	0.45040 0.18901 0.98948 -0.14400
C 	C 	0.47658 0.19521 0.95610 0.11600
C 	C 	0.48548 0.23066 0.94376 -0.10700
H 	H 	0.41368 0.21346 0.03609 0.03200
H 	H 	0.50508 0.23541 0.91751 0.05500
N 	N 	0.42461 0.28292 0.02013 -0.10800
N 	N 	0.49315 0.16540 0.93356 -0.14100
C 	C 	0.44606 0.29551 0.05784 -0.09300
H 	H 	0.45034 0.27332 0.08234 0.05500
H 	H 	0.43126 0.31745 0.07485 0.05200
H 	H 	0.47261 0.30616 0.04660 0.05800
C 	C 	0.47488 0.15836 0.89128 -0.09000
H 	H 	0.44573 0.15258 0.89690 0.05900
H 	H 	0.48719 0.13436 0.87556 0.05300
H 	H 	0.47780 0.18164 0.86802 0.04500
H 	H 	0.41800 0.30409 0.99847 0.06200
H 	H 	0.52067 0.17033 0.92817 0.07500
C 	C 	0.17942 0.56636 0.97319 -0.10600
C 	C 	0.19583 0.53661 0.99452 0.09200
C 	C 	0.23225 0.52854 0.98583 -0.12100
C 	C 	0.25243 0.55004 0.95641 0.01200
C 	C 	0.23639 0.58032 0.93606 0.03200
C 	C 	0.20001 0.58848 0.94477 -0.01700
H 	H 	0.24475 0.50543 0.00185 0.07600
H 	H 	0.18765 0.61163 0.92869 0.04200
N 	N 	0.17550 0.51484 0.02552 -0.12800
N 	N 	0.25719 0.60274 0.90630 -0.13500
C 	C 	0.18208 0.52638 0.07128 -0.08900
H 	H 	0.21098 0.52263 0.08048 0.04900
H 	H 	0.16525 0.50999 0.09437 0.05000
H 	H 	0.17433 0.55507 0.07539 0.05800
C 	C 	0.24921 0.59415 0.85986 -0.09100
H 	H 	0.25492 0.56532 0.85318 0.05100
H 	H 	0.26679 0.61062 0.83771 0.04600
H 	H 	0.22052 0.60028 0.85170 0.04600
H 	H 	0.18200 0.48760 0.02202 0.08400
H 	H 	0.25203 0.62996 0.91234 0.07200
C 	C 	0.73274 0.44983 0.93288 0.00900
C 	C 	0.75606 0.43677 0.89923 0.03100
C 	C 	0.79331 0.43492 0.90720 -0.01000
C 	C 	0.80746 0.44434 0.94878 -0.11500
C 	C 	0.78409 0.45492 0.98326 0.09400
C 	C 	0.74681 0.45780 0.97505 -0.12100
H 	H 	0.81127 0.42596 0.88099 0.04000
H 	H 	0.72896 0.46713 0.00116 0.07500
N 	N 	0.74213 0.42441 0.85724 -0.13700
N 	N 	0.79841 0.46326 0.02656 -0.13200
C 	C 	0.72796 0.38777 0.86119 -0.09100
H 	H 	0.74924 0.36914 0.87372 0.05000
H 	H 	0.71933 0.37840 0.82783 0.04600
H 	H 	0.70418 0.38679 0.88377 0.04700
C 	C 	0.80292 0.50212 0.03153 -0.08300
H 	H 	0.82132 0.51300 0.00540 0.04000
H 	H 	0.81526 0.50767 0.06448 0.04300
H 	H 	0.77638 0.51612 0.02970 0.04400
H 	H 	0.72287 0.44192 0.84368 0.07700
H 	H 	0.78158 0.45302 0.05167 0.08100
C 	C 	0.53024 0.81302 0.96612 -0.10300
C 	C 	0.49464 0.80029 0.95962 0.09600
C 	C 	0.48882 0.76377 0.95022 -0.08900
C 	C 	0.51805 0.74004 0.94668 -0.00600
C 	C 	0.55348 0.75252 0.95373 0.03800
C 	C 	0.55938 0.78889 0.96372 -0.02300
H 	H 	0.46149 0.75390 0.94576 0.04700
H 	H 	0.58671 0.79835 0.96930 0.03900
N 	N 	0.46429 0.82416 0.96468 -0.14900
N 	N 	0.58339 0.72777 0.95254 -0.13700
C 	C 	0.44814 0.83292 0.92141 -0.08900
H 	H 	0.46881 0.84405 0.89817 0.04900
H 	H 	0.42693 0.85369 0.92600 0.02100
H 	H 	0.43539 0.80876 0.90649 0.03900
C 	C 	0.60508 0.73313 0.91225 -0.09100
H 	H 	0.58796 0.73135 0.88193 0.04900
H 	H 	0.62592 0.71170 0.91047 0.04400
H 	H 	0.61901 0.75964 0.91282 0.04500
H 	H 	0.44495 0.81259 0.98586 0.06200
H 	H 	0.59949 0.73069 0.98095 0.07100
