data_crystal

_cell_length_a 18.49130
_cell_length_b 18.87634
_cell_length_c 26.60408
_cell_angle_alpha 95.42469
_cell_angle_beta  95.42323
_cell_angle_gamma 126.41112

_symmetry_space_group_name_	'P 1'
_symmetry_space_group_name_H-M	'P 1'

loop_
_symmetry_equiv_pos_as_xyz
  x,y,z

loop_
_atom_site_label
_atom_site_type_symbol
_atom_site_fract_x
_atom_site_fract_y
_atom_site_fract_z
_atom_site_charge
C 	C 	0.93773 0.02770 0.00359 0.11900
N 	N 	0.88050 0.93768 0.00131 -0.11800
C 	C 	0.91299 0.88953 0.99754 0.12400
N 	N 	0.00262 0.93121 0.99655 -0.12200
C 	C 	0.06021 0.02099 0.99903 0.13100
N 	N 	0.02777 0.06945 0.00218 -0.10800
C 	C 	0.91718 0.00536 0.45069 0.11900
N 	N 	0.86894 0.91607 0.45190 -0.12200
C 	C 	0.91346 0.87872 0.45455 0.13000
N 	N 	0.00521 0.93073 0.45719 -0.12100
C 	C 	0.05287 0.01920 0.45639 0.14200
N 	N 	0.00894 0.05632 0.45282 -0.12500
Cu	Cu	0.61028 0.20361 0.01078 0.93200
Cu	Cu	0.69039 0.21438 0.90482 0.87300
Cu	Cu	0.64644 0.33537 0.93914 0.89800
Cu	Cu	0.59538 0.35977 0.03955 0.90700
C 	C 	0.63678 0.27874 0.11607 0.30200
O 	O 	0.47420 0.14099 0.00861 -0.34600
C 	C 	0.63528 0.27822 0.82896 0.29800
O 	O 	0.67417 0.34099 0.01168 -0.62900
O 	O 	0.59665 0.20733 0.93639 -0.64100
O 	O 	0.67680 0.15005 0.01141 -0.33800
O 	O 	0.77513 0.24825 0.96503 -0.43200
O 	O 	0.58611 0.30323 0.10055 -0.36600
O 	O 	0.70332 0.46217 0.94616 -0.36600
C 	C 	0.70007 0.50981 0.98432 0.30500
C 	C 	0.43382 0.17340 0.98888 0.29800
O 	O 	0.48390 0.25503 0.97968 -0.39400
O 	O 	0.63796 0.47113 0.01358 -0.37000
O 	O 	0.64162 0.22383 0.08449 -0.34700
C 	C 	0.75458 0.18973 0.99478 0.28000
O 	O 	0.63149 0.33026 0.86396 -0.35600
O 	O 	0.63301 0.21055 0.84025 -0.41100
H 	H 	0.73979 0.38497 0.02753 0.18400
H 	H 	0.53394 0.16386 0.91594 0.18400
Cu	Cu	0.76539 0.35262 0.44103 0.92700
Cu	Cu	0.79714 0.31145 0.56042 0.88600
Cu	Cu	0.61909 0.28410 0.50810 0.90400
Cu	Cu	0.59384 0.35092 0.41295 0.90300
C 	C 	0.69147 0.33302 0.33501 0.30100
O 	O 	0.82147 0.48580 0.44542 -0.35200
C 	C 	0.67597 0.30909 0.61998 0.29900
O 	O 	0.62399 0.27960 0.43668 -0.64100
O 	O 	0.75623 0.36052 0.51542 -0.63400
O 	O 	0.81379 0.28069 0.43478 -0.34400
O 	O 	0.87077 0.30416 0.51922 -0.41000
O 	O 	0.65252 0.36920 0.35112 -0.37300
O 	O 	0.48740 0.21045 0.49453 -0.36900
C 	C 	0.43981 0.22613 0.46390 0.31200
C 	C 	0.77985 0.51791 0.46297 0.30200
O 	O 	0.69757 0.46267 0.47273 -0.38400
O 	O 	0.48077 0.29843 0.44285 -0.38300
O 	O 	0.74887 0.33056 0.36720 -0.34100
C 	C 	0.83531 0.25353 0.47338 0.29600
O 	O 	0.60975 0.26217 0.57912 -0.36600
O 	O 	0.76195 0.35010 0.61578 -0.40500
H 	H 	0.58621 0.21771 0.41660 0.17700
H 	H 	0.78379 0.42252 0.53217 0.17500
C 	C 	0.70533 0.38079 0.71060 -0.02600
C 	C 	0.65269 0.30373 0.67186 -0.07800
C 	C 	0.58477 0.22045 0.68440 0.09500
C 	C 	0.57423 0.21442 0.73564 -0.02600
C 	C 	0.63233 0.29005 0.77491 -0.07500
C 	C 	0.69600 0.37434 0.76203 0.09200
N 	N 	0.75444 0.45282 0.80127 -0.01900
H 	H 	0.75629 0.44530 0.70111 0.06400
H 	H 	0.52373 0.14978 0.74516 0.06600
N 	N 	0.53005 0.14090 0.64573 -0.01900
O 	O 	0.82069 0.46360 0.83194 -0.12000
O 	O 	0.74613 0.51675 0.80358 -0.09800
O 	O 	0.56491 0.10275 0.62837 -0.11300
O 	O 	0.44348 0.10252 0.63110 -0.09600
C 	C 	0.63423 0.22078 0.19663 -0.02300
C 	C 	0.66815 0.29416 0.17174 -0.07000
C 	C 	0.72040 0.38153 0.20123 0.09200
C 	C 	0.73145 0.39385 0.25495 -0.02100
C 	C 	0.69207 0.31997 0.27966 -0.07100
C 	C 	0.64616 0.23330 0.25048 0.09500
N 	N 	0.60806 0.15741 0.27520 -0.02500
H 	H 	0.59521 0.15358 0.17417 0.07400
H 	H 	0.76925 0.46089 0.27745 0.06800
N 	N 	0.76089 0.45782 0.17660 -0.02400
O 	O 	0.52068 0.09236 0.26399 -0.10100
O 	O 	0.66155 0.15011 0.30583 -0.09300
O 	O 	0.74948 0.51845 0.18904 -0.10500
O 	O 	0.81272 0.46881 0.14355 -0.11400
C 	C 	0.81622 0.61158 0.46138 -0.11400
C 	C 	0.83658 0.64371 0.41532 -0.04400
C 	C 	0.85977 0.72820 0.41119 0.14000
C 	C 	0.86312 0.78182 0.45342 -0.03300
C 	C 	0.84007 0.74854 0.49896 -0.09100
C 	C 	0.81645 0.66382 0.50306 0.18300
H 	H 	0.83301 0.60261 0.38235 0.06700
O 	O 	0.87898 0.75829 0.36573 -0.26700
H 	H 	0.84426 0.78992 0.53202 0.07500
O 	O 	0.79748 0.63391 0.54858 -0.28900
H 	H 	0.73097 0.60290 0.54636 0.15700
H 	H 	0.94541 0.78883 0.36787 0.15500
C 	C 	0.83992 0.17758 0.46294 -0.11400
C 	C 	0.86570 0.16252 0.41754 -0.03700
C 	C 	0.88197 0.09872 0.41072 0.13900
C 	C 	0.87166 0.04856 0.44927 -0.03100
C 	C 	0.83730 0.05746 0.49226 -0.09100
C 	C 	0.82205 0.12201 0.49946 0.18200
H 	H 	0.87664 0.20255 0.38834 0.07500
O 	O 	0.90868 0.08594 0.36651 -0.26800
H 	H 	0.82743 0.01803 0.52166 0.07200
O 	O 	0.78811 0.12947 0.54166 -0.31400
H 	H 	0.84241 0.17062 0.56947 0.13900
H 	H 	0.97623 0.13115 0.37313 0.14900
C 	C 	0.15173 0.07440 0.45891 -0.04000
C 	C 	0.18779 0.10501 0.41502 -0.08700
C 	C 	0.28178 0.15381 0.41616 0.18500
C 	C 	0.34052 0.17273 0.46176 -0.10900
C 	C 	0.30412 0.14220 0.50575 -0.04100
C 	C 	0.21001 0.09256 0.50431 0.14600
H 	H 	0.14272 0.08974 0.37973 0.07800
O 	O 	0.31553 0.17911 0.37208 -0.28800
H 	H 	0.34887 0.15754 0.54121 0.08000
O 	O 	0.17538 0.06429 0.54777 -0.27000
H 	H 	0.16163 0.00464 0.54638 0.15900
H 	H 	0.32732 0.23758 0.37150 0.15600
C 	C 	0.75362 0.60704 0.98772 -0.11800
C 	C 	0.75415 0.64221 0.94349 -0.03900
C 	C 	0.80328 0.73477 0.94684 0.14500
C 	C 	0.85169 0.79261 0.99470 -0.04700
C 	C 	0.85049 0.75746 0.03893 -0.07700
C 	C 	0.80139 0.66501 0.03569 0.19300
H 	H 	0.71629 0.59782 0.90657 0.07900
O 	O 	0.80330 0.76858 0.90339 -0.27200
H 	H 	0.88924 0.80205 0.07571 0.07700
O 	O 	0.80395 0.63174 0.07896 -0.28300
H 	H 	0.75292 0.62178 0.09484 0.16400
H 	H 	0.85593 0.77953 0.88896 0.15600
C 	C 	0.90104 0.07890 0.00508 -0.02300
C 	C 	0.85135 0.07351 0.04326 -0.09000
C 	C 	0.80650 0.11275 0.04153 0.18000
C 	C 	0.80904 0.15579 0.00043 -0.09300
C 	C 	0.86205 0.16423 0.96346 -0.06200
C 	C 	0.90740 0.12566 0.96552 0.12900
H 	H 	0.84679 0.03815 0.07409 0.07700
O 	O 	0.75924 0.10771 0.07955 -0.26900
H 	H 	0.86592 0.19836 0.93211 0.04800
O 	O 	0.95700 0.13284 0.92841 -0.27800
H 	H 	0.91307 0.07993 0.90074 0.14600
H 	H 	0.80411 0.16222 0.10609 0.15900
C 	C 	0.15730 0.06504 0.99803 -0.04600
C 	C 	0.19302 0.10090 0.95501 -0.08800
C 	C 	0.28195 0.13238 0.95046 0.18500
C 	C 	0.33604 0.12826 0.98933 -0.12300
C 	C 	0.29987 0.09180 0.03222 -0.03400
C 	C 	0.21091 0.06008 0.03661 0.15400
H 	H 	0.15114 0.10260 0.92449 0.08000
O 	O 	0.31460 0.16394 0.90713 -0.28500
H 	H 	0.34158 0.09018 0.06288 0.07100
O 	O 	0.17745 0.02687 0.07946 -0.27800
H 	H 	0.14930 0.96215 0.07129 0.17200
H 	H 	0.34111 0.22830 0.91416 0.15800
