data_crystal

_cell_length_a 48.80845
_cell_length_b 46.98826
_cell_length_c 25.58983
_cell_angle_alpha 89.97207
_cell_angle_beta  89.95619
_cell_angle_gamma 87.33645

_symmetry_space_group_name_	'P 1'
_symmetry_space_group_name_H-M	'P 1'

loop_
_symmetry_equiv_pos_as_xyz
  x,y,z

loop_
_atom_site_label
_atom_site_type_symbol
_atom_site_fract_x
_atom_site_fract_y
_atom_site_fract_z
_atom_site_charge
C 	C 	0.46034 0.53998 0.04231 -0.03700
C 	C 	0.48492 0.55388 0.04527 -0.03600
C 	C 	0.46040 0.51023 0.03531 0.01100
C 	C 	0.48567 0.49421 0.03465 -0.00500
C 	C 	0.51065 0.50834 0.03693 -0.00400
C 	C 	0.51028 0.53842 0.04143 0.00800
C 	C 	0.48601 0.46409 0.03140 0.01000
C 	C 	0.51136 0.44851 0.02944 -0.03800
C 	C 	0.53594 0.49239 0.03455 0.00900
C 	C 	0.53538 0.55242 0.04250 -0.00500
C 	C 	0.56025 0.53646 0.03984 -0.04500
C 	C 	0.56080 0.50676 0.03561 -0.00600
C 	C 	0.43559 0.49608 0.02966 -0.00700
C 	C 	0.43606 0.46629 0.02816 -0.04400
C 	C 	0.46088 0.45017 0.02953 -0.00700
C 	C 	0.53607 0.58383 0.04511 0.01200
C 	C 	0.53268 0.60016 0.99947 -0.03300
C 	C 	0.53690 0.62941 0.00048 -0.03100
C 	C 	0.54483 0.64250 0.04708 -0.00500
C 	C 	0.54745 0.62626 0.09305 -0.02100
C 	C 	0.54306 0.59707 0.09205 -0.04200
C 	C 	0.58762 0.49114 0.03085 0.01700
C 	C 	0.60303 0.48439 0.07573 -0.04600
C 	C 	0.62977 0.47270 0.07109 -0.01700
C 	C 	0.59871 0.48517 0.98131 -0.04300
C 	C 	0.62544 0.47345 0.97658 -0.01400
C 	C 	0.64134 0.46777 0.02145 -0.01400
C 	C 	0.40912 0.51210 0.02175 0.01800
C 	C 	0.38833 0.51071 0.05941 -0.04700
C 	C 	0.36202 0.52224 0.04875 -0.01400
C 	C 	0.35640 0.53552 0.00059 -0.01900
C 	C 	0.37751 0.53810 0.96390 -0.01100
C 	C 	0.40372 0.52619 0.97424 -0.04400
C 	C 	0.46008 0.41872 0.02861 0.01700
C 	C 	0.45302 0.40481 0.98238 -0.04300
C 	C 	0.44786 0.37579 0.98314 -0.01300
C 	C 	0.44989 0.36039 0.03010 -0.01400
C 	C 	0.45822 0.37401 0.07586 -0.01700
C 	C 	0.46311 0.40312 0.07518 -0.04600
C 	C 	0.53595 0.46244 0.03117 -0.03700
H 	H 	0.52739 0.59008 0.96302 0.04800
H 	H 	0.53481 0.64168 0.96474 0.05700
H 	H 	0.55318 0.63618 0.12940 0.05200
H 	H 	0.54573 0.58460 0.12746 0.04900
H 	H 	0.37335 0.54835 0.92663 0.04900
H 	H 	0.41964 0.52728 0.94487 0.05000
H 	H 	0.34588 0.52034 0.07746 0.04900
H 	H 	0.39235 0.49993 0.09624 0.05000
H 	H 	0.45069 0.41669 0.94623 0.05100
H 	H 	0.44177 0.36542 0.94746 0.05100
H 	H 	0.46851 0.41371 0.11108 0.05000
H 	H 	0.45991 0.36233 0.11231 0.05000
H 	H 	0.59451 0.48881 0.11414 0.05000
H 	H 	0.64166 0.46799 0.10602 0.05000
H 	H 	0.58687 0.49028 0.94647 0.05000
H 	H 	0.63410 0.46977 0.93805 0.05100
H 	H 	0.44124 0.55246 0.04626 0.04700
H 	H 	0.48408 0.57673 0.05093 0.04700
H 	H 	0.57940 0.54730 0.04040 0.05100
H 	H 	0.55502 0.44975 0.02991 0.04700
H 	H 	0.51219 0.42553 0.02613 0.04700
H 	H 	0.41692 0.45554 0.02501 0.05000
Zn	Zn	0.36634 0.11570 0.04001 1.22100
C 	C 	0.31845 0.08714 0.00346 0.28400
O 	O 	0.37319 0.10173 0.11195 -0.43800
O 	O 	0.33560 0.06663 0.98731 -0.41800
O 	O 	0.34950 0.06177 0.10006 -0.48500
C 	C 	0.39681 0.08474 0.96183 0.31500
O 	O 	0.37823 0.10542 0.96933 -0.42900
O 	O 	0.39841 0.06295 0.99394 -0.49700
C 	C 	0.36070 0.07993 0.13146 0.30400
O 	O 	0.40620 0.14248 0.04544 -0.29800
Zn	Zn	0.36715 0.05150 0.03455 1.17400
O 	O 	0.32722 0.10757 0.03341 -0.40700
C 	C 	0.38911 0.16441 0.04871 0.25500
O 	O 	0.36340 0.15890 0.04710 -0.35300
C 	C 	0.46514 0.01361 0.51367 0.01300
C 	C 	0.48541 0.99089 0.51449 0.01700
C 	C 	0.46694 0.03647 0.54870 -0.05200
C 	C 	0.48847 0.03669 0.58515 0.01300
C 	C 	0.50689 0.99108 0.55101 -0.05400
C 	C 	0.50843 0.01373 0.58663 0.01600
H 	H 	0.52228 0.97371 0.55182 0.05600
H 	H 	0.45169 0.05396 0.54767 0.05500
C 	C 	0.52973 0.01421 0.62385 -0.01500
C 	C 	0.53091 0.03628 0.66071 0.01300
C 	C 	0.54532 0.02776 0.70708 -0.04800
C 	C 	0.55432 0.99900 0.70725 -0.00100
S 	S 	0.54463 0.98508 0.65074 0.01700
H 	H 	0.54587 0.04077 0.74186 0.05100
C 	C 	0.49079 0.05956 0.62036 -0.01100
C 	C 	0.51135 0.05926 0.65872 0.00900
C 	C 	0.50421 0.07684 0.70258 -0.04000
C 	C 	0.47773 0.08971 0.69962 -0.00400
S 	S 	0.46424 0.07948 0.64311 0.00800
H 	H 	0.51657 0.07774 0.73752 0.05400
C 	C 	0.44226 0.99068 0.44052 0.00900
C 	C 	0.44312 0.01232 0.47815 -0.01200
S 	S 	0.42448 0.04039 0.45579 0.00900
C 	C 	0.41336 0.02589 0.40065 -0.00200
C 	C 	0.42543 0.99835 0.39677 -0.04400
C 	C 	0.48307 0.96804 0.47913 -0.01700
C 	C 	0.46254 0.96846 0.44072 0.01200
C 	C 	0.46952 0.95100 0.39668 -0.04700
C 	C 	0.49550 0.93713 0.40095 -0.00600
S 	S 	0.50933 0.94746 0.45710 0.02400
H 	H 	0.45790 0.95136 0.36072 0.04600
H 	H 	0.42456 0.98580 0.36144 0.05000
Zn	Zn	0.60731 0.89492 0.06161 1.22100
C 	C 	0.65311 0.93190 0.06311 0.29200
O 	O 	0.58624 0.90215 0.12673 -0.44000
O 	O 	0.63635 0.95221 0.04469 -0.42700
O 	O 	0.60355 0.94538 0.14135 -0.48300
C 	C 	0.59013 0.92909 0.97413 0.32000
O 	O 	0.60768 0.90883 0.98964 -0.43800
O 	O 	0.57751 0.94562 0.00865 -0.49400
C 	C 	0.59150 0.92296 0.15889 0.30500
O 	O 	0.57356 0.86369 0.03399 -0.29500
Zn	Zn	0.59654 0.95819 0.07057 1.17500
O 	O 	0.64334 0.90851 0.08273 -0.41100
C 	C 	0.59167 0.84353 0.04520 0.25300
O 	O 	0.61483 0.85182 0.06292 -0.35300
Zn	Zn	0.11391 0.60544 0.94415 1.22300
C 	C 	0.07350 0.65194 0.95468 0.29400
O 	O 	0.10966 0.58025 0.00495 -0.44400
O 	O 	0.05561 0.63540 0.93338 -0.42800
O 	O 	0.06603 0.59585 0.02314 -0.48600
C 	C 	0.08326 0.59162 0.85338 0.31800
O 	O 	0.10055 0.60938 0.87260 -0.43600
O 	O 	0.06792 0.57703 0.88472 -0.49600
C 	C 	0.08940 0.58375 0.03840 0.30700
O 	O 	0.14767 0.57261 0.91111 -0.29200
Zn	Zn	0.05463 0.59269 0.95086 1.17400
O 	O 	0.09706 0.64108 0.97223 -0.41100
C 	C 	0.16503 0.59117 0.92547 0.25500
O 	O 	0.15439 0.61408 0.94683 -0.35100
C 	C 	0.03598 0.44178 0.38468 0.01500
C 	C 	0.05963 0.45825 0.38827 0.01600
C 	C 	0.01820 0.44001 0.42769 -0.05300
C 	C 	0.02343 0.45500 0.47383 0.01500
C 	C 	0.06492 0.47321 0.43448 -0.05300
C 	C 	0.04685 0.47197 0.47706 0.01500
H 	H 	0.08354 0.48474 0.43801 0.05500
H 	H 	0.00105 0.42620 0.42592 0.05500
C 	C 	0.05215 0.48598 0.52469 -0.01300
C 	C 	0.03329 0.48619 0.56588 0.01100
C 	C 	0.03577 0.50937 0.60077 -0.04400
C 	C 	0.05651 0.52743 0.58648 -0.00100
S 	S 	0.07121 0.51436 0.53178 0.01000
H 	H 	0.02430 0.51176 0.63685 0.05200
C 	C 	0.00668 0.45263 0.51862 -0.01300
C 	C 	0.01051 0.46938 0.56283 0.01100
C 	C 	0.98694 0.47249 0.59514 -0.04400
C 	C 	0.96456 0.45816 0.57583 -0.00100
S 	S 	0.97442 0.44224 0.51976 0.00900
H 	H 	0.98692 0.48257 0.63317 0.05200
C 	C 	0.04929 0.42768 0.29543 0.01200
C 	C 	0.03154 0.42623 0.33849 -0.01400
S 	S 	0.00066 0.41899 0.31556 0.01600
C 	C 	0.00857 0.41574 0.25240 -0.00100
C 	C 	0.03636 0.42139 0.24709 -0.04700
C 	C 	0.07821 0.45799 0.34600 -0.01500
C 	C 	0.07301 0.44342 0.29950 0.01100
C 	C 	0.08755 0.45402 0.25582 -0.04400
C 	C 	0.10337 0.47720 0.26811 -0.00600
S 	S 	0.09863 0.48436 0.33142 0.02000
H 	H 	0.08416 0.44744 0.21596 0.04900
H 	H 	0.04569 0.42460 0.20935 0.05000
Zn	Zn	0.88508 0.40201 0.92327 1.22100
C 	C 	0.83723 0.43688 0.95117 0.29200
O 	O 	0.89782 0.41497 0.85459 -0.44100
O 	O 	0.85392 0.45549 0.97006 -0.42200
O 	O 	0.87729 0.45913 0.86232 -0.48500
C 	C 	0.91054 0.42606 0.01212 0.30800
O 	O 	0.89137 0.40923 0.99706 -0.44300
O 	O 	0.91622 0.44824 0.98365 -0.48400
C 	C 	0.88845 0.43883 0.83301 0.30600
O 	O 	0.92359 0.36988 0.92802 -0.30000
Zn	Zn	0.89007 0.46468 0.93330 1.17300
O 	O 	0.84664 0.41625 0.92038 -0.41100
C 	C 	0.90627 0.35034 0.91904 0.25500
O 	O 	0.88099 0.35938 0.91326 -0.35200
C 	C 	0.93715 0.01535 0.03589 -0.03700
C 	C 	0.95031 0.04086 0.02982 -0.03800
C 	C 	0.95208 0.98899 0.03290 0.00900
C 	C 	0.98090 0.98863 0.02604 -0.00400
C 	C 	0.99433 0.01456 0.02095 -0.00500
C 	C 	0.97883 0.04078 0.02121 0.00900
C 	C 	0.99628 0.96238 0.02394 0.00900
C 	C 	0.02507 0.96240 0.01952 -0.03700
C 	C 	0.02324 0.01423 0.01558 0.00900
C 	C 	0.99229 0.06651 0.01351 -0.00600
C 	C 	0.02086 0.06601 0.00878 -0.04400
C 	C 	0.03645 0.04031 0.01041 -0.00700
C 	C 	0.93877 0.96290 0.03691 -0.00500
C 	C 	0.95415 0.93707 0.03418 -0.04500
C 	C 	0.98255 0.93654 0.02658 -0.00600
C 	C 	0.97675 0.09409 0.00846 0.01500
C 	C 	0.96442 0.10179 0.96071 -0.03900
C 	C 	0.95324 0.12943 0.95333 -0.02100
C 	C 	0.95457 0.14965 0.99353 -0.00400
C 	C 	0.96581 0.14151 0.04208 -0.02400
C 	C 	0.97684 0.11384 0.04949 -0.04300
C 	C 	0.06664 0.04119 0.00757 0.01800
C 	C 	0.08176 0.04614 0.05297 -0.04700
C 	C 	0.10979 0.05078 0.04963 -0.01400
C 	C 	0.07991 0.04005 0.95893 -0.04400
C 	C 	0.10798 0.04456 0.95554 -0.01100
C 	C 	0.12295 0.05050 0.00079 -0.02000
C 	C 	0.90860 0.96217 0.04132 0.01300
C 	C 	0.89647 0.95624 0.08958 -0.04200
C 	C 	0.86812 0.95341 0.09303 -0.02200
C 	C 	0.85167 0.95654 0.04820 -0.00500
C 	C 	0.86383 0.96278 0.00001 -0.03100
C 	C 	0.89218 0.96544 0.99657 -0.03300
C 	C 	0.99724 0.90885 0.01713 0.01500
C 	C 	0.00192 0.89940 0.96582 -0.04000
C 	C 	0.01373 0.87222 0.95664 -0.02100
C 	C 	0.02090 0.85422 0.99876 -0.00500
C 	C 	0.01696 0.86405 0.05017 -0.02400
C 	C 	0.00509 0.89125 0.05929 -0.04400
C 	C 	0.03835 0.98795 0.01543 -0.03800
H 	H 	0.96423 0.08662 0.92886 0.04900
H 	H 	0.94457 0.13543 0.91573 0.05200
H 	H 	0.96655 0.15681 0.07366 0.05200
H 	H 	0.98621 0.10799 0.08658 0.04900
H 	H 	0.85139 0.96509 0.96508 0.05700
H 	H 	0.90144 0.96979 0.95908 0.04800
H 	H 	0.85897 0.94886 0.13052 0.05100
H 	H 	0.90904 0.95357 0.12427 0.04800
H 	H 	0.99600 0.91296 0.93308 0.04900
H 	H 	0.01700 0.86502 0.91681 0.05200
H 	H 	0.00156 0.89845 0.09904 0.04800
H 	H 	0.02233 0.85035 0.08301 0.05100
H 	H 	0.07165 0.04703 0.09068 0.05000
H 	H 	0.12119 0.05491 0.08491 0.04900
H 	H 	0.06834 0.03631 0.92367 0.05000
H 	H 	0.11790 0.04426 0.91764 0.05000
H 	H 	0.91528 0.01625 0.04317 0.04700
H 	H 	0.93820 0.06069 0.03252 0.04700
H 	H 	0.03107 0.08586 0.00364 0.05100
H 	H 	0.06047 0.98712 0.01198 0.04700
H 	H 	0.03736 0.94263 0.01968 0.04700
H 	H 	0.94379 0.91716 0.03631 0.05000
C 	C 	0.93353 0.23479 0.96009 0.10000
N 	N 	0.95653 0.22772 0.98785 -0.06700
N 	N 	0.96291 0.20059 0.99944 -0.07700
C 	C 	0.94653 0.17972 0.98342 0.11200
N 	N 	0.92347 0.18677 0.95577 -0.07800
N 	N 	0.91698 0.21395 0.94447 -0.06700
C 	C 	0.91384 0.32008 0.92627 0.05900
N 	N 	0.89505 0.30008 0.91862 -0.05300
N 	N 	0.90146 0.27272 0.92858 -0.06600
C 	C 	0.92677 0.26468 0.94685 0.10400
N 	N 	0.94561 0.28466 0.95400 -0.06700
N 	N 	0.93926 0.31196 0.94373 -0.05500
C 	C 	0.91741 0.43026 0.69996 0.09000
C 	C 	0.91262 0.45777 0.67944 0.09600
N 	N 	0.92591 0.46550 0.63541 -0.11300
C 	C 	0.94388 0.44691 0.61094 0.05500
C 	C 	0.94701 0.41874 0.62934 0.00400
N 	N 	0.93385 0.41105 0.67368 -0.10000
N 	N 	0.90797 0.42403 0.74840 -0.08500
N 	N 	0.89717 0.47738 0.70680 -0.11300
H 	H 	0.96130 0.40367 0.61058 0.04700
C 	C 	0.89385 0.44419 0.77726 -0.03600
C 	C 	0.88748 0.47109 0.75508 0.04200
H 	H 	0.87574 0.48722 0.77682 0.03600
C 	C 	0.95729 0.40780 0.14768 0.10000
C 	C 	0.95499 0.43561 0.12742 0.08800
N 	N 	0.93945 0.44113 0.08429 -0.09300
C 	C 	0.92585 0.42001 0.06067 -0.03200
C 	C 	0.92778 0.39228 0.08154 0.05000
N 	N 	0.94353 0.38674 0.12455 -0.10800
N 	N 	0.97404 0.40195 0.18907 -0.11000
N 	N 	0.96901 0.45661 0.15010 -0.10600
H 	H 	0.91734 0.37514 0.06300 0.04900
C 	C 	0.98855 0.42286 0.21115 0.05600
C 	C 	0.98566 0.45082 0.19170 0.00100
H 	H 	0.99699 0.46770 0.20905 0.04400
C 	C 	0.05430 0.73896 0.96795 0.10200
N 	N 	0.07638 0.72705 0.99344 -0.06700
N 	N 	0.08276 0.69927 0.98871 -0.05200
C 	C 	0.06710 0.68263 0.95866 0.04300
N 	N 	0.04510 0.69455 0.93309 -0.05800
N 	N 	0.03884 0.72234 0.93751 -0.07000
C 	C 	0.03072 0.82459 0.98900 0.11400
N 	N 	0.01905 0.80913 0.95091 -0.07900
N 	N 	0.02691 0.78189 0.94369 -0.06900
C 	C 	0.04675 0.76935 0.97421 0.10100
N 	N 	0.05869 0.78490 0.01188 -0.07100
N 	N 	0.05074 0.81213 0.01927 -0.08100
C 	C 	0.08986 0.56426 0.71882 0.09200
C 	C 	0.06588 0.57637 0.69593 0.09800
N 	N 	0.05698 0.56614 0.64967 -0.11300
C 	C 	0.07090 0.54415 0.62532 0.05600
C 	C 	0.09591 0.53348 0.64644 0.00400
N 	N 	0.10480 0.54365 0.69290 -0.10000
N 	N 	0.09624 0.57097 0.76887 -0.08700
N 	N 	0.05008 0.59581 0.72300 -0.11100
H 	H 	0.10722 0.51589 0.62781 0.04700
C 	C 	0.07965 0.58939 0.79688 -0.03300
C 	C 	0.05654 0.60262 0.77297 0.04700
H 	H 	0.04320 0.61735 0.79479 0.03100
C 	C 	0.11229 0.53442 0.14414 0.09000
C 	C 	0.09154 0.53933 0.18159 0.09700
N 	N 	0.09014 0.52177 0.22358 -0.11300
C 	C 	0.10861 0.49939 0.22962 0.05600
C 	C 	0.12989 0.49515 0.19316 0.00200
N 	N 	0.13132 0.51275 0.15113 -0.10000
N 	N 	0.11192 0.54991 0.09933 -0.08600
N 	N 	0.07179 0.56017 0.17346 -0.11200
H 	H 	0.14460 0.47731 0.19723 0.04800
C 	C 	0.09151 0.57003 0.09008 -0.03700
C 	C 	0.07141 0.57571 0.12859 0.04400
H 	H 	0.05532 0.59200 0.12243 0.04000
C 	C 	0.73749 0.94225 0.05780 0.10200
N 	N 	0.71986 0.96149 0.03449 -0.07000
N 	N 	0.69293 0.95812 0.03619 -0.05800
C 	C 	0.68283 0.93533 0.06103 0.04200
N 	N 	0.70043 0.91600 0.08426 -0.05300
N 	N 	0.72740 0.91943 0.08274 -0.06800
C 	C 	0.82183 0.95311 0.05157 0.11000
N 	N 	0.81171 0.93205 0.08129 -0.07800
N 	N 	0.78478 0.92854 0.08329 -0.06800
C 	C 	0.76720 0.94605 0.05574 0.09800
N 	N 	0.77732 0.96718 0.02626 -0.06900
N 	N 	0.80424 0.97062 0.02409 -0.07900
C 	C 	0.55858 0.95659 0.85207 0.08900
C 	C 	0.58111 0.95520 0.81777 0.09900
N 	N 	0.57907 0.96811 0.77027 -0.11100
C 	C 	0.55529 0.98218 0.75562 0.05600
C 	C 	0.53241 0.98234 0.78902 0.00200
N 	N 	0.53458 0.96972 0.83671 -0.10300
N 	N 	0.56152 0.94652 0.90154 -0.08900
N 	N 	0.60529 0.94258 0.83365 -0.10800
H 	H 	0.51323 0.99309 0.77755 0.04600
C 	C 	0.58598 0.93477 0.91821 -0.03500
C 	C 	0.60813 0.93214 0.88308 0.04900
H 	H 	0.62780 0.92301 0.89574 0.04900
C 	C 	0.55241 0.93218 0.30494 0.09700
C 	C 	0.54116 0.91551 0.26551 0.08800
N 	N 	0.55486 0.91144 0.21970 -0.08900
C 	C 	0.57926 0.92364 0.21138 -0.03800
C 	C 	0.59088 0.93953 0.25155 0.04500
N 	N 	0.57721 0.94349 0.29750 -0.11100
N 	N 	0.53773 0.93821 0.34898 -0.11300
N 	N 	0.51591 0.90509 0.27217 -0.10200
H 	H 	0.61040 0.94913 0.24581 0.04300
C 	C 	0.51209 0.92842 0.35513 0.05600
C 	C 	0.50116 0.91116 0.31624 0.00100
H 	H 	0.48095 0.90291 0.32083 0.04400
C 	C 	0.20527 0.07063 0.99042 0.10100
N 	N 	0.18787 0.08563 0.02267 -0.07000
N 	N 	0.16161 0.07922 0.02589 -0.08100
C 	C 	0.15198 0.05766 0.99688 0.12100
N 	N 	0.16931 0.04283 0.96422 -0.08000
N 	N 	0.19562 0.04916 0.96118 -0.06900
C 	C 	0.28892 0.08504 0.99436 0.05100
N 	N 	0.27955 0.06302 0.96619 -0.06000
N 	N 	0.25274 0.05895 0.96350 -0.07000
C 	C 	0.23455 0.07668 0.98915 0.10500
N 	N 	0.24388 0.09910 0.01625 -0.07000
N 	N 	0.27068 0.10323 0.01879 -0.05400
C 	C 	0.42669 0.10002 0.83217 0.09200
C 	C 	0.45231 0.08525 0.83566 0.09900
N 	N 	0.46881 0.08314 0.79308 -0.11600
C 	C 	0.46080 0.09503 0.74671 0.05600
C 	C 	0.43555 0.11064 0.74368 0.00400
N 	N 	0.41895 0.11272 0.78644 -0.09900
N 	N 	0.40934 0.10040 0.87378 -0.08400
N 	N 	0.45985 0.07199 0.88084 -0.11300
H 	H 	0.42904 0.12072 0.70742 0.04800
C 	C 	0.41658 0.08639 0.91870 -0.03300
C 	C 	0.44255 0.07230 0.92246 0.04800
H 	H 	0.44884 0.06150 0.95817 0.03700
C 	C 	0.37378 0.05095 0.28516 0.09700
C 	C 	0.39196 0.06955 0.26190 0.08800
N 	N 	0.38643 0.08029 0.21356 -0.09000
C 	C 	0.36351 0.07306 0.18728 -0.03800
C 	C 	0.34472 0.05558 0.21175 0.04400
N 	N 	0.35030 0.04479 0.26009 -0.11200
N 	N 	0.38066 0.03785 0.33091 -0.11300
N 	N 	0.41591 0.07493 0.28615 -0.10300
H 	H 	0.32619 0.04994 0.19175 0.04300
C 	C 	0.40489 0.04278 0.35475 0.05500
C 	C 	0.42272 0.06196 0.33219 0.00200
H 	H 	0.44222 0.06584 0.35036 0.04500
C 	C 	0.42465 0.27679 0.03837 0.09900
N 	N 	0.40874 0.29729 0.01425 -0.06800
N 	N 	0.41700 0.32386 0.01097 -0.07800
C 	C 	0.44132 0.33076 0.03212 0.11300
N 	N 	0.45723 0.31028 0.05637 -0.07900
N 	N 	0.44909 0.28362 0.05918 -0.06800
C 	C 	0.39829 0.19370 0.04748 0.06000
N 	N 	0.42511 0.19894 0.05518 -0.05600
N 	N 	0.43350 0.22553 0.05292 -0.06800
C 	C 	0.41535 0.24755 0.04234 0.10300
N 	N 	0.38853 0.24228 0.03465 -0.06700
N 	N 	0.38010 0.21575 0.03745 -0.05400
C 	C 	0.27617 0.56018 0.95939 0.10000
N 	N 	0.28273 0.53279 0.97303 -0.06700
N 	N 	0.30831 0.52503 0.98682 -0.07700
C 	C 	0.32809 0.54437 0.98685 0.11800
N 	N 	0.32163 0.57172 0.97279 -0.07800
N 	N 	0.29595 0.57958 0.95965 -0.06700
C 	C 	0.19444 0.58376 0.92892 0.06200
N 	N 	0.21227 0.60372 0.94304 -0.05300
N 	N 	0.23864 0.59637 0.95105 -0.06600
C 	C 	0.24783 0.56880 0.94574 0.10400
N 	N 	0.23008 0.54895 0.93080 -0.06600
N 	N 	0.20380 0.55636 0.92225 -0.05400
C 	C 	0.72482 0.44777 0.00095 0.09100
N 	N 	0.71605 0.46476 0.04105 -0.06800
N 	N 	0.68935 0.47031 0.04871 -0.07900
C 	C 	0.67062 0.45907 0.01643 0.11100
N 	N 	0.67937 0.44158 0.97697 -0.07600
N 	N 	0.70610 0.43596 0.96940 -0.06500
C 	C 	0.80812 0.43892 0.96528 0.04600
N 	N 	0.78989 0.42273 0.94029 -0.05200
N 	N 	0.76330 0.42523 0.95221 -0.06800
C 	C 	0.75425 0.44381 0.98974 0.11000
N 	N 	0.77254 0.45972 0.01515 -0.07200
N 	N 	0.79909 0.45735 0.00300 -0.06000
C 	C 	0.57218 0.75804 0.04423 0.10300
N 	N 	0.55470 0.77820 0.02304 -0.06800
N 	N 	0.56106 0.80549 0.02294 -0.05600
C 	C 	0.58515 0.81337 0.04371 0.06000
N 	N 	0.60274 0.79319 0.06450 -0.05400
N 	N 	0.59632 0.76592 0.06486 -0.06700
C 	C 	0.55159 0.67279 0.04722 0.11100
N 	N 	0.57383 0.68131 0.07384 -0.07800
N 	N 	0.58043 0.70852 0.07281 -0.06800
C 	C 	0.56492 0.72801 0.04528 0.09900
N 	N 	0.54260 0.71952 0.01886 -0.06800
N 	N 	0.53608 0.69228 0.01966 -0.07900
