data_crystal

_cell_length_a 30.74268
_cell_length_b 30.96516
_cell_length_c 26.54601
_cell_angle_alpha 95.53345
_cell_angle_beta  95.52672
_cell_angle_gamma 125.55983

_symmetry_space_group_name_	'P 1'
_symmetry_space_group_name_H-M	'P 1'

loop_
_symmetry_equiv_pos_as_xyz
  x,y,z

loop_
_atom_site_label
_atom_site_type_symbol
_atom_site_fract_x
_atom_site_fract_y
_atom_site_fract_z
_atom_site_charge
N 	N 	0.03313 0.05846 0.98815 -0.14000
C 	C 	0.05662 0.03252 0.98461 0.11600
N 	N 	0.99934 0.02964 0.43743 -0.14000
C 	C 	0.02551 0.00670 0.44414 0.11400
C 	C 	0.08409 0.03762 0.44269 -0.01800
C 	C 	0.10491 0.01128 0.42172 -0.02700
C 	C 	0.16075 0.03990 0.42257 -0.04400
C 	C 	0.19633 0.09514 0.44428 0.01300
C 	C 	0.17555 0.12173 0.46463 -0.04600
C 	C 	0.11968 0.09312 0.46383 -0.02000
C 	C 	0.25536 0.12499 0.44613 0.00900
C 	C 	0.29127 0.14717 0.49376 -0.04000
C 	C 	0.33168 0.15802 0.40201 -0.03000
C 	C 	0.27580 0.13051 0.40025 -0.04000
H 	H 	0.17644 0.01908 0.40672 0.04400
H 	H 	0.20272 0.16445 0.48124 0.04500
H 	H 	0.10422 0.11387 0.48041 0.04300
H 	H 	0.27584 0.14285 0.52938 0.04400
H 	H 	0.24841 0.11361 0.36331 0.04400
C 	C 	0.11459 0.06255 0.98129 -0.02800
C 	C 	0.14745 0.05230 0.00994 -0.00900
C 	C 	0.20081 0.07614 0.00282 -0.03700
C 	C 	0.22185 0.11037 0.96690 0.00500
C 	C 	0.18961 0.12192 0.93929 -0.04600
C 	C 	0.13618 0.09818 0.94654 -0.01800
C 	C 	0.27756 0.13386 0.95819 0.01100
C 	C 	0.31765 0.19000 0.97037 -0.04300
C 	C 	0.29161 0.09993 0.94094 -0.04400
H 	H 	0.22570 0.06770 0.02494 0.04700
H 	H 	0.20562 0.14855 0.91167 0.04300
H 	H 	0.11115 0.10627 0.92411 0.04100
H 	H 	0.30723 0.21653 0.98365 0.04300
H 	H 	0.26085 0.05656 0.93097 0.04200
H 	H 	0.13141 0.02538 0.03732 0.04300
C 	C 	0.97975 0.03044 0.99181 0.12300
C 	C 	0.94545 0.00110 0.43883 0.12700
O 	O 	0.56760 0.22259 0.98728 -0.36300
O 	O 	0.68359 0.21895 0.99983 -0.36500
C 	C 	0.73141 0.24035 0.98682 0.28500
H 	H 	0.61223 0.24163 0.90056 0.17500
O 	O 	0.70825 0.24036 0.47090 -0.43400
H 	H 	0.61489 0.25374 0.40534 0.17700
H 	H 	0.59467 0.23813 0.74050 0.08600
F 	F 	0.58706 0.23249 0.64086 -0.44700
C 	C 	0.76202 0.22319 0.42466 -0.09100
C 	C 	0.83791 0.22018 0.41391 -0.06500
C 	C 	0.80561 0.16487 0.41591 0.02800
C 	C 	0.75066 0.13825 0.41942 -0.06600
C 	C 	0.72894 0.16722 0.42368 0.01500
C 	C 	0.83036 0.13592 0.41866 -0.00100
C 	C 	0.81162 0.09106 0.38050 -0.03400
C 	C 	0.83354 0.06230 0.38447 -0.04100
C 	C 	0.87422 0.07816 0.42659 0.01500
C 	C 	0.89306 0.12301 0.46460 -0.04100
C 	C 	0.87121 0.15177 0.46070 -0.03400
C 	C 	0.89775 0.04938 0.43027 0.00400
C 	C 	0.91869 0.02651 0.43394 -0.03800
H 	H 	0.72526 0.09549 0.42057 0.04900
H 	H 	0.68680 0.14644 0.42769 0.03500
H 	H 	0.78008 0.07846 0.34792 0.04200
H 	H 	0.81894 0.02781 0.35480 0.04500
H 	H 	0.92461 0.13560 0.49719 0.04300
H 	H 	0.88564 0.18604 0.49057 0.03800
C 	C 	0.34716 0.17471 0.49545 -0.02900
C 	C 	0.36746 0.18019 0.44959 -0.00200
C 	C 	0.42513 0.20982 0.45129 0.05100
C 	C 	0.47339 0.23510 0.45224 -0.09100
H 	H 	0.37463 0.19186 0.53238 0.04900
H 	H 	0.34715 0.16229 0.36640 0.04600
C 	C 	0.76266 0.21938 0.00048 -0.08200
C 	C 	0.81918 0.25173 0.00235 0.02700
C 	C 	0.84763 0.22944 0.00699 -0.06700
C 	C 	0.81992 0.17468 0.01003 0.02900
C 	C 	0.76405 0.14310 0.01119 -0.06300
C 	C 	0.73552 0.16535 0.00651 0.01500
C 	C 	0.84836 0.14941 0.00769 0.00600
C 	C 	0.83275 0.10931 0.96533 -0.04000
C 	C 	0.86074 0.08653 0.96214 -0.05600
C 	C 	0.90454 0.10369 0.00118 0.03900
C 	C 	0.92022 0.14370 0.04357 -0.04700
C 	C 	0.89224 0.16656 0.04682 -0.03100
C 	C 	0.93239 0.07914 0.99832 -0.01300
C 	C 	0.95467 0.05756 0.99548 -0.03100
H 	H 	0.84083 0.29376 0.99881 0.02900
H 	H 	0.89086 0.25427 0.00653 0.05200
H 	H 	0.74244 0.10094 0.01421 0.05100
H 	H 	0.69203 0.13999 0.00553 0.04100
H 	H 	0.79922 0.09612 0.93473 0.03700
H 	H 	0.84832 0.05552 0.92933 0.04600
H 	H 	0.95394 0.15702 0.07400 0.04900
H 	H 	0.90463 0.19752 0.07964 0.04400
C 	C 	0.37167 0.21186 0.96717 -0.02800
C 	C 	0.38597 0.17776 0.95182 -0.00800
C 	C 	0.34570 0.12184 0.93792 -0.02800
C 	C 	0.44243 0.19983 0.95444 0.04900
C 	C 	0.49016 0.21957 0.95828 -0.10900
H 	H 	0.35643 0.09525 0.92585 0.04100
C 	C 	0.54750 0.24510 0.96498 0.30300
H 	H 	0.57126 0.25331 0.15637 0.09500
F 	F 	0.57240 0.25989 0.25540 -0.45900
C 	C 	0.81621 0.24922 0.41817 0.01500
H 	H 	0.88022 0.24096 0.41054 0.05000
H 	H 	0.40262 0.25516 0.97788 0.04000
Cu	Cu	0.64836 0.25637 0.99650 0.92700
Cu	Cu	0.70213 0.26078 0.89427 0.87500
C 	C 	0.74182 0.25509 0.43836 0.28900
O 	O 	0.74844 0.27592 0.95642 -0.43300
C 	C 	0.65184 0.29386 0.10126 0.33700
O 	O 	0.64854 0.26379 0.92327 -0.64100
O 	O 	0.58028 0.29548 0.95945 -0.39500
O 	O 	0.65939 0.26374 0.07009 -0.33800
O 	O 	0.67310 0.26433 0.82934 -0.41700
Cu	Cu	0.72619 0.28988 0.53119 0.87500
O 	O 	0.63875 0.29195 0.42336 -0.63700
O 	O 	0.56112 0.26118 0.48697 -0.36200
C 	C 	0.53074 0.26594 0.45270 0.30800
C 	C 	0.62933 0.27479 0.67648 0.33400
C 	C 	0.62889 0.27305 0.72889 -0.09100
C 	C 	0.66845 0.30465 0.26422 -0.12800
C 	C 	0.61679 0.27826 0.23335 0.33500
C 	C 	0.61101 0.27216 0.17977 -0.08800
C 	C 	0.65666 0.29201 0.15648 -0.12600
H 	H 	0.84214 0.29228 0.41854 0.03700
O 	O 	0.76167 0.30107 0.42257 -0.36700
O 	O 	0.63916 0.29908 0.57001 -0.35500
C 	C 	0.67785 0.30778 0.81992 0.33100
O 	O 	0.62759 0.31460 0.08309 -0.38100
Cu	Cu	0.63954 0.30181 0.49588 0.90000
C 	C 	0.67605 0.32046 0.32028 0.33300
C 	C 	0.68080 0.31514 0.60658 0.33000
O 	O 	0.55248 0.30487 0.42549 -0.38000
O 	O 	0.71192 0.31975 0.35125 -0.36000
O 	O 	0.72503 0.32200 0.59545 -0.41700
C 	C 	0.67486 0.31844 0.66090 -0.13100
C 	C 	0.67360 0.31499 0.76614 -0.13200
C 	C 	0.71357 0.32124 0.24077 -0.08600
C 	C 	0.70769 0.31488 0.18701 0.33500
Cu	Cu	0.68576 0.34340 0.93043 0.89800
O 	O 	0.69144 0.34042 0.00225 -0.63300
Cu	Cu	0.72308 0.33530 0.42511 0.92900
Cu	Cu	0.62160 0.33637 0.39872 0.90500
O 	O 	0.71960 0.33981 0.49944 -0.63900
O 	O 	0.65665 0.34648 0.33710 -0.36000
F 	F 	0.75201 0.33339 0.16484 -0.44800
O 	O 	0.69336 0.34793 0.85764 -0.35900
Cu	Cu	0.64350 0.35411 0.02422 0.90100
H 	H 	0.75355 0.34120 0.26418 0.09800
H 	H 	0.72907 0.36414 0.02240 0.18100
C 	C 	0.71799 0.36202 0.69824 -0.09200
C 	C 	0.71734 0.36047 0.75067 0.33500
H 	H 	0.07786 0.96863 0.40480 0.04900
N 	N 	0.02652 0.97862 0.98443 -0.13800
N 	N 	0.99764 0.95522 0.45250 -0.13700
C 	C 	0.97322 0.95066 0.98775 0.13400
N 	N 	0.94981 0.97654 0.99149 -0.13600
C 	C 	0.94373 0.92646 0.45386 0.12100
N 	N 	0.91754 0.94942 0.44692 -0.13600
O 	O 	0.72531 0.42110 0.94282 -0.36600
C 	C 	0.71563 0.44891 0.97464 0.28100
O 	O 	0.67623 0.42497 0.00160 -0.37800
O 	O 	0.75533 0.41482 0.42976 -0.35800
C 	C 	0.73309 0.43551 0.45164 0.30200
O 	O 	0.68310 0.40353 0.45944 -0.38900
H 	H 	0.74217 0.37688 0.52018 0.17500
F 	F 	0.76070 0.40162 0.78627 -0.44800
H 	H 	0.75295 0.39619 0.68661 0.08800
C 	C 	0.91401 0.87052 0.46277 -0.02000
C 	C 	0.93810 0.85767 0.50023 -0.01800
C 	C 	0.91433 0.80374 0.50355 -0.04700
C 	C 	0.86626 0.76209 0.46945 0.01500
C 	C 	0.84072 0.77493 0.43361 -0.04700
C 	C 	0.86445 0.82897 0.43035 -0.01800
C 	C 	0.84454 0.70518 0.46924 0.00900
C 	C 	0.79285 0.66892 0.48092 -0.04100
C 	C 	0.77206 0.61483 0.47990 -0.02900
C 	C 	0.80280 0.59666 0.46721 -0.00600
C 	C 	0.85465 0.63292 0.45603 -0.02900
C 	C 	0.87548 0.68701 0.45703 -0.04100
C 	C 	0.77984 0.54021 0.46283 0.04900
C 	C 	0.75942 0.49262 0.45830 -0.10500
H 	H 	0.97594 0.88945 0.52596 0.04300
H 	H 	0.93390 0.79425 0.53187 0.04500
H 	H 	0.80341 0.74305 0.40729 0.04600
H 	H 	0.84545 0.83837 0.40133 0.04400
H 	H 	0.76877 0.68260 0.49064 0.04400
H 	H 	0.73187 0.58697 0.48846 0.04300
H 	H 	0.87855 0.61913 0.44599 0.04400
H 	H 	0.91539 0.71466 0.44784 0.04400
C 	C 	0.74482 0.50724 0.97519 -0.07800
C 	C 	0.71926 0.53202 0.98496 0.01400
C 	C 	0.74715 0.58741 0.98625 -0.06500
C 	C 	0.80080 0.61860 0.97772 0.03100
C 	C 	0.82633 0.59393 0.96765 -0.06300
C 	C 	0.79847 0.53849 0.96637 0.01700
C 	C 	0.83040 0.67715 0.97985 -0.00900
C 	C 	0.87659 0.71402 0.01823 -0.02500
C 	C 	0.90435 0.76957 0.02054 -0.03000
C 	C 	0.88610 0.78858 0.98456 0.00500
C 	C 	0.83988 0.75186 0.94631 -0.03800
C 	C 	0.81208 0.69628 0.94394 -0.03200
C 	C 	0.91591 0.84573 0.98583 0.00800
C 	C 	0.94159 0.89363 0.98680 -0.04000
H 	H 	0.67770 0.50835 0.99128 0.03600
H 	H 	0.72717 0.60617 0.99409 0.04800
H 	H 	0.86773 0.61772 0.96090 0.05100
H 	H 	0.81878 0.51998 0.95907 0.04300
H 	H 	0.89083 0.69962 0.04630 0.04300
H 	H 	0.94014 0.79778 0.05015 0.04600
H 	H 	0.82568 0.76631 0.91826 0.04500
H 	H 	0.77649 0.66810 0.91415 0.04300
