data_crystal

_cell_length_a 18.64922
_cell_length_b 18.70852
_cell_length_c 43.40378
_cell_angle_alpha 95.42712
_cell_angle_beta  95.42688
_cell_angle_gamma 126.39973

_symmetry_space_group_name_	'P 1'
_symmetry_space_group_name_H-M	'P 1'

loop_
_symmetry_equiv_pos_as_xyz
  x,y,z

loop_
_atom_site_label
_atom_site_type_symbol
_atom_site_fract_x
_atom_site_fract_y
_atom_site_fract_z
_atom_site_charge
C 	C 	0.91336 0.01388 0.97066 0.09300
N 	N 	0.00352 0.06831 0.97028 -0.12100
C 	C 	0.05038 0.03409 0.97072 0.10800
N 	N 	0.00698 0.94515 0.97103 -0.11300
C 	C 	0.91678 0.89004 0.97109 0.11200
N 	N 	0.86970 0.92442 0.97115 -0.11800
C 	C 	0.94698 0.02255 0.50239 0.09200
N 	N 	0.03680 0.06655 0.50203 -0.12000
C 	C 	0.07185 0.02019 0.50228 0.10900
N 	N 	0.01696 0.93022 0.50221 -0.11200
C 	C 	0.92749 0.88631 0.50217 0.11200
N 	N 	0.89258 0.93251 0.50249 -0.11800
Cu	Cu	0.75507 0.35417 0.96708 0.92800
Cu	Cu	0.73999 0.28310 0.03391 0.86900
Cu	Cu	0.61434 0.31615 0.00724 0.89700
Cu	Cu	0.59052 0.35348 0.94313 0.89900
C 	C 	0.69406 0.32817 0.90065 0.29100
O 	O 	0.81036 0.48635 0.96609 -0.35600
C 	C 	0.67000 0.34315 0.07648 0.28700
O 	O 	0.61439 0.28361 0.96378 -0.63800
O 	O 	0.74559 0.37083 0.01177 -0.64200
O 	O 	0.81376 0.29312 0.97093 -0.36300
O 	O 	0.71156 0.19617 0.99887 -0.43600
O 	O 	0.65804 0.36911 0.90804 -0.38200
O 	O 	0.48488 0.25437 0.00088 -0.38200
C 	C 	0.43462 0.24859 0.97573 0.29600
C 	C 	0.77152 0.52202 0.97623 0.28100
O 	O 	0.68710 0.46879 0.97998 -0.38800
O 	O 	0.47093 0.30234 0.95514 -0.38300
O 	O 	0.74075 0.31901 0.92259 -0.35500
C 	C 	0.77203 0.21616 0.98117 0.28600
O 	O 	0.61446 0.33617 0.05277 -0.37500
O 	O 	0.73872 0.34292 0.07174 -0.41700
H 	H 	0.57347 0.21787 0.95512 0.16900
H 	H 	0.78642 0.43377 0.02370 0.18000
Cu	Cu	0.61006 0.18517 0.50534 0.92700
Cu	Cu	0.67646 0.19281 0.43774 0.87000
Cu	Cu	0.64774 0.32344 0.46391 0.89800
Cu	Cu	0.61020 0.34973 0.52806 0.89800
C 	C 	0.64380 0.25426 0.57151 0.29000
O 	O 	0.47772 0.12937 0.50679 -0.35800
C 	C 	0.62083 0.26449 0.39485 0.28700
O 	O 	0.68015 0.32521 0.50762 -0.63700
O 	O 	0.59175 0.19227 0.46039 -0.64000
O 	O 	0.67099 0.12632 0.50202 -0.36600
O 	O 	0.76565 0.22378 0.47241 -0.43700
O 	O 	0.60021 0.28770 0.56422 -0.38100
O 	O 	0.71029 0.45268 0.46977 -0.37800
C 	C 	0.71430 0.50255 0.49457 0.29300
C 	C 	0.44094 0.16693 0.49647 0.28300
O 	O 	0.49333 0.25043 0.49203 -0.38800
O 	O 	0.65754 0.46597 0.51426 -0.38400
O 	O 	0.64629 0.20134 0.54992 -0.35500
C 	C 	0.74679 0.16574 0.49096 0.29100
O 	O 	0.62992 0.32236 0.41808 -0.37500
O 	O 	0.61504 0.19323 0.40023 -0.41600
H 	H 	0.74609 0.36623 0.51628 0.16900
H 	H 	0.52810 0.15167 0.44891 0.18000
C 	C 	0.70229 0.31420 0.86762 -0.07900
C 	C 	0.67528 0.22980 0.85265 0.01800
C 	C 	0.67855 0.21537 0.82072 -0.06200
C 	C 	0.70894 0.28535 0.80356 0.02900
C 	C 	0.73738 0.37015 0.81872 -0.06300
C 	C 	0.73405 0.38450 0.85057 0.01800
C 	C 	0.70697 0.26887 0.76941 0.00200
C 	C 	0.78745 0.31987 0.75748 -0.03600
C 	C 	0.78429 0.31324 0.72493 -0.03700
C 	C 	0.70063 0.25552 0.70402 0.00200
C 	C 	0.62057 0.20151 0.71593 -0.03600
C 	C 	0.62374 0.20815 0.74848 -0.03600
C 	C 	0.69593 0.25766 0.66997 0.02800
C 	C 	0.65986 0.17893 0.64796 -0.06200
C 	C 	0.64665 0.17872 0.61564 0.02100
C 	C 	0.66932 0.25729 0.60510 -0.07900
C 	C 	0.70874 0.33689 0.62712 0.01500
C 	C 	0.72197 0.33707 0.65938 -0.06200
H 	H 	0.65006 0.17492 0.86554 0.03700
H 	H 	0.65657 0.14969 0.80925 0.05000
H 	H 	0.76069 0.42450 0.80568 0.05100
H 	H 	0.75566 0.45012 0.86196 0.03900
H 	H 	0.85213 0.36634 0.77344 0.04300
H 	H 	0.84655 0.35459 0.71598 0.04300
H 	H 	0.55565 0.15670 0.70001 0.04300
H 	H 	0.56125 0.16844 0.75744 0.04300
H 	H 	0.64021 0.11746 0.65589 0.05000
H 	H 	0.61604 0.11678 0.59891 0.04500
H 	H 	0.72725 0.39810 0.61926 0.03100
H 	H 	0.75008 0.39826 0.67618 0.05000
C 	C 	0.65710 0.35535 0.10916 -0.08300
C 	C 	0.73017 0.39544 0.13450 0.01400
C 	C 	0.71557 0.39504 0.16551 -0.06500
C 	C 	0.62796 0.35539 0.17161 0.02700
C 	C 	0.55579 0.31998 0.14642 -0.06300
C 	C 	0.57021 0.31983 0.11534 0.01300
C 	C 	0.61064 0.34371 0.20401 0.00200
C 	C 	0.55114 0.25654 0.21058 -0.03700
C 	C 	0.54441 0.24420 0.24174 -0.03700
C 	C 	0.59762 0.31880 0.26667 0.00100
C 	C 	0.65355 0.40635 0.26006 -0.03700
C 	C 	0.65984 0.41879 0.22885 -0.03700
C 	C 	0.60235 0.30443 0.29948 0.02800
C 	C 	0.63423 0.25637 0.30834 -0.06600
C 	C 	0.63966 0.24305 0.33934 0.01300
C 	C 	0.61340 0.27782 0.36196 -0.08500
C 	C 	0.58158 0.32620 0.35312 0.01700
C 	C 	0.57609 0.33941 0.32198 -0.06400
H 	H 	0.79794 0.42498 0.13018 0.03500
H 	H 	0.77188 0.42297 0.18476 0.04700
H 	H 	0.48809 0.29029 0.15086 0.05000
H 	H 	0.51326 0.28925 0.09610 0.04100
H 	H 	0.51264 0.19812 0.19162 0.04000
H 	H 	0.50026 0.17642 0.24657 0.04100
H 	H 	0.69456 0.46444 0.27911 0.04300
H 	H 	0.70504 0.48646 0.22404 0.04300
H 	H 	0.65550 0.22989 0.29122 0.04600
H 	H 	0.66541 0.20665 0.34586 0.02500
H 	H 	0.56058 0.35300 0.37022 0.04300
H 	H 	0.55124 0.37652 0.31536 0.05200
C 	C 	0.76934 0.60077 0.49653 -0.07800
C 	C 	0.75533 0.63543 0.47134 0.00900
C 	C 	0.80424 0.72884 0.47338 -0.02800
C 	C 	0.86826 0.78836 0.50085 0.00300
C 	C 	0.88194 0.75367 0.52607 -0.04400
C 	C 	0.83291 0.66033 0.52408 0.02000
H 	H 	0.70582 0.58959 0.45025 0.04500
H 	H 	0.93187 0.79957 0.54708 0.05700
C 	C 	0.84991 0.62620 0.55007 0.06500
C 	C 	0.78969 0.76320 0.44696 0.09500
N 	N 	0.86347 0.59881 0.57086 -0.12000
N 	N 	0.77810 0.79081 0.42583 -0.10900
C 	C 	0.80224 0.13339 0.49458 -0.08800
C 	C 	0.82823 0.11257 0.46789 0.00700
C 	C 	0.88028 0.08130 0.47051 -0.03400
C 	C 	0.90682 0.07038 0.50009 0.00600
C 	C 	0.88322 0.09362 0.52695 -0.05000
C 	C 	0.83166 0.12561 0.52441 0.02400
H 	H 	0.80669 0.11941 0.44497 0.01500
H 	H 	0.90377 0.08538 0.54975 0.05100
C 	C 	0.81152 0.15251 0.55261 0.07600
C 	C 	0.90431 0.05842 0.44256 0.08500
N 	N 	0.79559 0.17411 0.57524 -0.10800
N 	N 	0.92358 0.04003 0.42020 -0.12000
C 	C 	0.16893 0.06654 0.50222 0.00300
C 	C 	0.20260 0.09511 0.47474 -0.04500
C 	C 	0.28959 0.12301 0.47183 0.01900
C 	C 	0.34449 0.12402 0.49691 -0.07900
C 	C 	0.31091 0.09598 0.52445 0.00300
C 	C 	0.22401 0.06807 0.52734 -0.02800
H 	H 	0.15979 0.09245 0.45518 0.05800
H 	H 	0.35357 0.09850 0.54404 0.04500
C 	C 	0.19212 0.04207 0.55633 0.09000
C 	C 	0.32091 0.14771 0.44266 0.07200
N 	N 	0.16649 0.02120 0.57954 -0.11400
N 	N 	0.34607 0.16751 0.41930 -0.11400
C 	C 	0.81396 0.61820 0.97597 -0.07500
C 	C 	0.84250 0.65236 0.94856 0.00100
C 	C 	0.87003 0.73895 0.94583 -0.02600
C 	C 	0.87067 0.79316 0.97097 0.00000
C 	C 	0.84145 0.75883 0.99829 -0.03800
C 	C 	0.81386 0.67211 0.00104 0.01300
H 	H 	0.84068 0.61041 0.92896 0.04400
H 	H 	0.84330 0.80088 0.01786 0.05600
C 	C 	0.78833 0.64007 0.03004 0.07400
C 	C 	0.89653 0.77140 0.91696 0.09000
N 	N 	0.76786 0.61433 0.05326 -0.11300
N 	N 	0.91782 0.79748 0.89385 -0.11300
C 	C 	0.80291 0.15923 0.97726 -0.08100
C 	C 	0.80622 0.11787 0.00222 -0.00500
C 	C 	0.83652 0.06499 0.99954 -0.01900
C 	C 	0.86420 0.05304 0.97165 -0.00100
C 	C 	0.85785 0.09145 0.94627 -0.04600
C 	C 	0.82718 0.14411 0.94882 0.01900
H 	H 	0.78691 0.12837 0.02403 0.02100
H 	H 	0.87884 0.08204 0.92474 0.05000
C 	C 	0.82011 0.18129 0.92204 0.07900
C 	C 	0.84178 0.02568 0.02595 0.06100
N 	N 	0.81477 0.21105 0.90052 -0.10600
N 	N 	0.84604 0.99417 0.04708 -0.09700
C 	C 	0.33623 0.19463 0.97406 -0.07900
C 	C 	0.30259 0.21055 0.99924 0.01100
C 	C 	0.20905 0.16041 0.99799 -0.02700
C 	C 	0.14833 0.09335 0.97131 0.00300
C 	C 	0.18196 0.07799 0.94603 -0.04500
C 	C 	0.27547 0.12820 0.94724 0.02000
H 	H 	0.34935 0.26212 0.01978 0.04300
H 	H 	0.13516 0.02595 0.92560 0.05600
C 	C 	0.30856 0.10933 0.92130 0.06600
C 	C 	0.17587 0.17670 0.02447 0.09200
N 	N 	0.33509 0.09424 0.90053 -0.12000
N 	N 	0.14922 0.18968 0.04566 -0.11100
