data_crystal

_cell_length_a 27.17692
_cell_length_b 28.95387
_cell_length_c 30.72018
_cell_angle_alpha 61.11708
_cell_angle_beta  118.53448
_cell_angle_gamma 133.24752

_symmetry_space_group_name_	'P 1'
_symmetry_space_group_name_H-M	'P 1'

loop_
_symmetry_equiv_pos_as_xyz
  x,y,z

loop_
_atom_site_label
_atom_site_type_symbol
_atom_site_fract_x
_atom_site_fract_y
_atom_site_fract_z
_atom_site_charge
C 	C 	0.74867 0.32256 0.04250 0.20100
N 	N 	0.67910 0.28888 0.03489 -0.13700
C 	C 	0.65463 0.30940 0.04559 0.20800
N 	N 	0.69957 0.36301 0.06435 -0.11000
C 	C 	0.76889 0.39630 0.07284 0.20800
N 	N 	0.79379 0.37652 0.06156 -0.11200
C 	C 	0.77347 0.33675 0.53798 0.20600
N 	N 	0.71580 0.29489 0.55691 -0.11300
C 	C 	0.69213 0.31868 0.56443 0.20800
N 	N 	0.72585 0.38404 0.55281 -0.12600
C 	C 	0.78358 0.42602 0.53431 0.20600
N 	N 	0.80790 0.40247 0.52717 -0.12500
C 	C 	0.26026 0.63427 0.27184 0.20200
N 	N 	0.21124 0.57687 0.25699 -0.13000
C 	C 	0.23099 0.54959 0.24929 0.20300
N 	N 	0.29913 0.57939 0.25645 -0.13000
C 	C 	0.34811 0.63692 0.27022 0.20600
N 	N 	0.32878 0.66453 0.27798 -0.09700
C 	C 	0.26252 0.64720 0.74760 0.20300
N 	N 	0.22410 0.58100 0.75737 -0.11900
C 	C 	0.24419 0.55402 0.74970 0.20400
N 	N 	0.30216 0.59303 0.73215 -0.12200
C 	C 	0.34022 0.65888 0.72181 0.20500
N 	N 	0.32084 0.68613 0.72996 -0.11700
Co	Co	0.08450 0.98217 0.16519 1.19100
Co	Co	0.89006 0.95717 0.12170 1.19200
Co	Co	0.02137 0.02576 0.19537 1.19500
Co	Co	0.95669 0.92460 0.08550 1.19000
C 	C 	0.09950 0.87062 0.21465 0.35200
Co	Co	0.06984 0.90689 0.10196 1.18700
Co	Co	0.89163 0.01337 0.19211 1.18300
C 	C 	0.01340 0.96110 0.99770 0.30600
O 	O 	0.95703 0.11025 0.15836 -0.38400
O 	O 	0.93840 0.99917 0.16678 -0.76500
C 	C 	0.02521 0.14448 0.17543 0.34000
O 	O 	0.10653 0.03163 0.20922 -0.42000
O 	O 	0.87170 0.91819 0.07135 -0.43500
C 	C 	0.82690 0.02688 0.08153 0.37300
O 	O 	0.99795 0.99388 0.12918 -0.57100
C 	C 	0.98538 0.99274 0.28973 0.31500
C 	C 	0.19759 0.03700 0.12091 0.36700
C 	C 	0.92083 0.79777 0.09719 0.35900
O 	O 	0.06077 0.12258 0.18527 -0.33500
O 	O 	0.17278 0.97586 0.13119 -0.34800
O 	O 	0.17239 0.05250 0.13493 -0.36100
O 	O 	0.81285 0.99782 0.12654 -0.39400
O 	O 	0.86122 0.01875 0.07035 -0.37100
O 	O 	0.96489 0.03037 0.26088 -0.36000
O 	O 	0.00228 0.97561 0.26893 -0.35900
O 	O 	0.96979 0.83383 0.07284 -0.38900
O 	O 	0.91247 0.82553 0.11406 -0.37300
O 	O 	0.03719 0.94495 0.11653 -0.75300
C 	C 	0.79170 0.87195 0.19391 0.34800
O 	O 	0.83362 0.91393 0.22271 -0.35300
O 	O 	0.81468 0.87305 0.16336 -0.36200
O 	O 	0.06213 0.84674 0.17410 -0.34800
O 	O 	0.09259 0.90746 0.22204 -0.35700
O 	O 	0.07112 0.96984 0.03068 -0.33100
O 	O 	0.96598 0.95148 0.01089 -0.35400
Co	Co	0.11258 0.99868 0.67371 1.19300
Co	Co	0.91225 0.96772 0.61926 1.19200
Co	Co	0.03348 0.02683 0.70191 1.19100
Co	Co	0.99369 0.94345 0.58980 1.18900
C 	C 	0.15507 0.91163 0.72285 0.35900
Co	Co	0.12465 0.94541 0.61012 1.17700
Co	Co	0.89906 0.01429 0.68910 1.17900
C 	C 	0.04261 0.97232 0.50287 0.31400
O 	O 	0.97202 0.11321 0.66573 -0.37400
O 	O 	0.95309 0.00443 0.66703 -0.75000
C 	C 	0.03786 0.14157 0.69035 0.34800
O 	O 	0.12090 0.03381 0.72210 -0.42600
O 	O 	0.90439 0.93269 0.57107 -0.42900
C 	C 	0.85430 0.04306 0.57608 0.37300
O 	O 	0.02309 0.00633 0.63421 -0.56200
C 	C 	0.98168 0.98263 0.79130 0.30900
C 	C 	0.23494 0.08093 0.62302 0.34700
C 	C 	0.98231 0.82335 0.61065 0.35700
O 	O 	0.07373 0.12165 0.69728 -0.35700
O 	O 	0.19364 0.04562 0.58896 -0.36500
O 	O 	0.21137 0.07374 0.65693 -0.33400
O 	O 	0.83151 0.00979 0.61790 -0.36300
O 	O 	0.88781 0.03227 0.56677 -0.35500
O 	O 	0.96049 0.01984 0.76288 -0.38000
O 	O 	0.00149 0.96817 0.77063 -0.36700
O 	O 	0.04810 0.84728 0.63239 -0.35400
O 	O 	0.95376 0.84496 0.61288 -0.36200
O 	O 	0.07541 0.96915 0.62253 -0.75800
C 	C 	0.79818 0.87868 0.67769 0.35000
O 	O 	0.83448 0.91369 0.71125 -0.37100
O 	O 	0.82928 0.88126 0.65297 -0.35300
O 	O 	0.18457 0.94608 0.68425 -0.38100
O 	O 	0.11314 0.91911 0.72404 -0.35900
O 	O 	0.06780 0.93875 0.53516 -0.37900
O 	O 	0.01651 0.98587 0.51840 -0.36700
C 	C 	0.05426 0.02279 0.87031 -0.01700
C 	C 	0.99742 0.97003 0.84755 -0.07500
C 	C 	0.94544 0.91422 0.87456 0.13100
C 	C 	0.94908 0.91298 0.92240 -0.02800
C 	C 	0.00413 0.96727 0.94377 -0.06500
C 	C 	0.05666 0.02266 0.91708 0.14100
Br	Br	0.12871 0.10099 0.94139 -0.12600
H 	H 	0.09407 0.06627 0.84968 0.07900
H 	H 	0.90955 0.86936 0.94321 0.08700
Br	Br	0.86820 0.83979 0.84617 -0.15400
C 	C 	0.96086 0.95248 0.41814 -0.02400
C 	C 	0.02922 0.98151 0.44732 -0.07300
C 	C 	0.08241 0.00845 0.42584 0.14000
C 	C 	0.06647 0.00561 0.37589 -0.01500
C 	C 	0.99804 0.97756 0.34625 -0.06200
C 	C 	0.94496 0.95017 0.36822 0.13400
Br	Br	0.85009 0.90939 0.33092 -0.16600
H 	H 	0.91938 0.92998 0.43470 0.08100
H 	H 	0.10801 0.02845 0.35926 0.09400
Br	Br	0.17772 0.05324 0.46271 -0.16800
C 	C 	0.11427 0.31240 0.68324 -0.14400
C 	C 	0.11851 0.30582 0.73307 0.02300
C 	C 	0.10135 0.24643 0.76970 0.30700
C 	C 	0.07974 0.19412 0.75640 -0.05400
C 	C 	0.07371 0.20016 0.70626 -0.14100
C 	C 	0.09148 0.25965 0.66977 0.38700
C 	C 	0.14276 0.36183 0.74702 0.01300
F 	F 	0.10409 0.23896 0.81779 -0.39000
H 	H 	0.06505 0.14803 0.78456 0.09500
F 	F 	0.08528 0.26589 0.62102 -0.41000
H 	H 	0.12814 0.35825 0.65488 0.14200
C 	C 	0.20625 0.39212 0.78214 0.32400
C 	C 	0.23522 0.45183 0.78829 -0.07900
C 	C 	0.20229 0.48285 0.75829 -0.07200
C 	C 	0.13572 0.44958 0.72690 0.36100
C 	C 	0.10605 0.38920 0.72135 -0.12700
F 	F 	0.24207 0.36597 0.80770 -0.38800
H 	H 	0.28600 0.47655 0.81339 0.12100
F 	F 	0.10232 0.47813 0.69861 -0.40000
H 	H 	0.05617 0.36530 0.69516 0.13700
C 	C 	0.61241 0.81472 0.63215 -0.13900
C 	C 	0.59059 0.77385 0.67809 0.02000
C 	C 	0.63192 0.75526 0.71959 0.31100
C 	C 	0.69789 0.78338 0.71702 -0.04800
C 	C 	0.72294 0.83007 0.67303 -0.13200
C 	C 	0.67803 0.84203 0.62939 0.37600
C 	C 	0.52613 0.75291 0.68347 0.01100
F 	F 	0.60938 0.71215 0.76310 -0.38800
H 	H 	0.73139 0.77234 0.75044 0.12300
F 	F 	0.70022 0.88449 0.58566 -0.41000
H 	H 	0.57982 0.82750 0.59931 0.13800
C 	C 	0.52873 0.77209 0.71921 0.32300
C 	C 	0.46721 0.74554 0.72875 -0.07800
C 	C 	0.40279 0.70013 0.70241 -0.06900
C 	C 	0.40031 0.68576 0.66339 0.35800
C 	C 	0.46173 0.71161 0.65433 -0.12700
F 	F 	0.59082 0.81490 0.74571 -0.39900
H 	H 	0.46976 0.75773 0.75837 0.12100
F 	F 	0.33825 0.64453 0.63573 -0.40300
H 	H 	0.45924 0.69797 0.62573 0.13200
C 	C 	0.21840 0.75739 0.72417 -0.11600
C 	C 	0.20171 0.73586 0.77022 0.00900
C 	C 	0.20295 0.68379 0.80833 0.32200
C 	C 	0.22189 0.65424 0.80063 -0.07500
C 	C 	0.24013 0.67681 0.75494 -0.06700
C 	C 	0.23754 0.72813 0.71649 0.35800
C 	C 	0.18637 0.77038 0.77907 0.02900
F 	F 	0.18681 0.66245 0.85300 -0.38900
H 	H 	0.22351 0.61460 0.83047 0.12300
F 	F 	0.25278 0.74916 0.67148 -0.40300
H 	H 	0.21715 0.79730 0.69447 0.12300
C 	C 	0.24104 0.83043 0.79257 0.30000
C 	C 	0.22835 0.87412 0.78348 -0.04900
C 	C 	0.16142 0.85863 0.75969 -0.13300
C 	C 	0.10540 0.79388 0.75605 0.37900
C 	C 	0.11791 0.75031 0.76431 -0.13500
F 	F 	0.30717 0.84894 0.80994 -0.39200
H 	H 	0.27176 0.92287 0.78917 0.12600
F 	F 	0.03937 0.77539 0.73931 -0.39300
H 	H 	0.07492 0.70284 0.75596 0.15000
C 	C 	0.15421 0.44096 0.16950 -0.11500
C 	C 	0.12538 0.37983 0.20450 0.01500
C 	C 	0.11784 0.37368 0.24965 0.30900
C 	C 	0.14501 0.42934 0.26173 -0.07500
C 	C 	0.17934 0.49126 0.22871 -0.07500
C 	C 	0.17966 0.49611 0.18105 0.35800
C 	C 	0.10523 0.32295 0.19448 0.02000
F 	F 	0.08621 0.31424 0.28248 -0.40400
H 	H 	0.14345 0.42485 0.29825 0.11900
F 	F 	0.21024 0.55541 0.14780 -0.40000
H 	H 	0.15917 0.44617 0.13415 0.15000
C 	C 	0.05714 0.30259 0.14948 0.29800
C 	C 	0.03762 0.24848 0.14049 -0.05600
C 	C 	0.06304 0.21194 0.17737 -0.13000
C 	C 	0.11376 0.23415 0.22121 0.37600
C 	C 	0.13525 0.28983 0.22943 -0.12800
F 	F 	0.02741 0.33377 0.11533 -0.39500
H 	H 	0.99952 0.23257 0.10612 0.12000
F 	F 	0.13927 0.19979 0.25722 -0.42000
H 	H 	0.17396 0.30631 0.26353 0.14200
C 	C 	0.65767 0.74835 0.26993 -0.13100
C 	C 	0.60121 0.74847 0.23352 0.02600
C 	C 	0.60303 0.77570 0.18154 0.29600
C 	C 	0.66391 0.80931 0.16709 -0.05100
C 	C 	0.72290 0.81534 0.20432 -0.13100
C 	C 	0.71736 0.77976 0.25506 0.38600
C 	C 	0.54182 0.72289 0.25008 0.01000
F 	F 	0.54686 0.77181 0.14534 -0.39100
H 	H 	0.66691 0.83492 0.12753 0.11600
F 	F 	0.77201 0.78005 0.29069 -0.40300
H 	H 	0.65629 0.72601 0.30995 0.15100
C 	C 	0.50465 0.65849 0.27929 0.31100
C 	C 	0.44599 0.63333 0.29193 -0.07700
C 	C 	0.42140 0.67079 0.27315 -0.06700
C 	C 	0.46135 0.73671 0.24708 0.36000
C 	C 	0.52178 0.76279 0.23618 -0.11200
F 	F 	0.52334 0.61926 0.29327 -0.40100
H 	H 	0.41661 0.58295 0.31324 0.12000
F 	F 	0.43949 0.77430 0.22958 -0.39900
H 	H 	0.55169 0.81335 0.21538 0.14100
C 	C 	0.23038 0.83969 0.27158 -0.13600
C 	C 	0.18632 0.77116 0.28644 0.01900
C 	C 	0.12207 0.74025 0.29466 0.31600
C 	C 	0.09805 0.77679 0.28055 -0.04500
C 	C 	0.13693 0.84373 0.25653 -0.12200
C 	C 	0.20618 0.87603 0.25761 0.37100
C 	C 	0.20233 0.73216 0.28509 0.01400
F 	F 	0.08075 0.67439 0.31254 -0.38800
H 	H 	0.04599 0.75179 0.28285 0.13800
F 	F 	0.24694 0.94174 0.23881 -0.42100
H 	H 	0.28138 0.86441 0.26730 0.13500
C 	C 	0.16401 0.69947 0.24595 0.32100
C 	C 	0.18209 0.66646 0.24242 -0.07800
C 	C 	0.23891 0.66601 0.27769 -0.06400
C 	C 	0.27653 0.69777 0.31744 0.35700
C 	C 	0.25837 0.73084 0.32092 -0.12300
F 	F 	0.11033 0.70113 0.21053 -0.40200
H 	H 	0.15289 0.64252 0.21151 0.12600
F 	F 	0.33018 0.69613 0.35291 -0.40400
H 	H 	0.28812 0.75575 0.35128 0.13400
C 	C 	0.77721 0.13397 0.51241 -0.13600
C 	C 	0.83718 0.19668 0.51848 0.02700
C 	C 	0.90267 0.21134 0.53029 0.29800
C 	C 	0.90807 0.16166 0.54181 -0.04900
C 	C 	0.84829 0.09698 0.54260 -0.13800
C 	C 	0.78271 0.08436 0.52418 0.38500
C 	C 	0.83150 0.24262 0.52100 0.01200
F 	F 	0.96113 0.27261 0.53387 -0.38500
H 	H 	0.95895 0.17235 0.55460 0.12200
F 	F 	0.72428 0.02262 0.52225 -0.39400
H 	H 	0.72637 0.12254 0.50199 0.14700
C 	C 	0.79588 0.26674 0.47822 0.31400
C 	C 	0.78004 0.30067 0.48324 -0.07300
C 	C 	0.79973 0.31080 0.53091 -0.07100
C 	C 	0.83843 0.28972 0.57301 0.35300
C 	C 	0.85431 0.25586 0.56805 -0.11800
F 	F 	0.77482 0.25558 0.43223 -0.39100
H 	H 	0.75055 0.31720 0.45049 0.12900
F 	F 	0.85858 0.30006 0.61916 -0.41300
H 	H 	0.88197 0.23764 0.60124 0.12800
C 	C 	0.81183 0.58233 0.50517 -0.11600
C 	C 	0.87381 0.61244 0.54128 0.01200
C 	C 	0.91387 0.58856 0.56548 0.31100
C 	C 	0.88810 0.53079 0.55786 -0.07700
C 	C 	0.82225 0.49658 0.52621 -0.07300
C 	C 	0.78656 0.52508 0.49714 0.35700
C 	C 	0.89298 0.66440 0.55747 0.02300
F 	F 	0.97598 0.61945 0.59832 -0.40100
H 	H 	0.91685 0.51005 0.57958 0.12900
F 	F 	0.72448 0.49427 0.46425 -0.39900
H 	H 	0.78148 0.60138 0.48526 0.14600
C 	C 	0.90879 0.72450 0.52271 0.29400
C 	C 	0.93067 0.77464 0.53917 -0.05400
C 	C 	0.93852 0.76574 0.59062 -0.13900
C 	C 	0.91808 0.70422 0.62448 0.38700
C 	C 	0.89521 0.65370 0.60791 -0.13500
F 	F 	0.90552 0.73514 0.47356 -0.40100
H 	H 	0.94512 0.82161 0.51253 0.09200
F 	F 	0.92263 0.69407 0.67383 -0.39200
H 	H 	0.88074 0.60670 0.63453 0.14100
C 	C 	0.50565 0.19451 0.57387 -0.11300
C 	C 	0.50710 0.21278 0.60954 0.00900
C 	C 	0.57104 0.25810 0.63623 0.31400
C 	C 	0.63259 0.28824 0.62472 -0.07400
C 	C 	0.63074 0.27423 0.58587 -0.07100
C 	C 	0.56721 0.22529 0.56187 0.35900
C 	C 	0.44159 0.18788 0.61617 0.02600
F 	F 	0.57327 0.27526 0.67153 -0.39900
H 	H 	0.68154 0.32504 0.64415 0.12100
F 	F 	0.56457 0.21052 0.52471 -0.40400
H 	H 	0.45655 0.15836 0.55398 0.13700
C 	C 	0.39761 0.20364 0.57533 0.29600
C 	C 	0.33174 0.17343 0.57952 -0.04600
C 	C 	0.30944 0.12760 0.62455 -0.13500
C 	C 	0.35589 0.11648 0.66697 0.37800
C 	C 	0.42151 0.14609 0.66259 -0.13300
F 	F 	0.41783 0.24650 0.53102 -0.39400
H 	H 	0.29658 0.18294 0.54681 0.11400
F 	F 	0.33545 0.07313 0.71112 -0.42100
H 	H 	0.45573 0.13471 0.69464 0.14700
C 	C 	0.74401 0.11159 0.02598 -0.14200
C 	C 	0.80292 0.17691 0.02097 0.03200
C 	C 	0.86541 0.19247 0.02286 0.28600
C 	C 	0.87096 0.14239 0.03591 -0.04600
C 	C 	0.81428 0.07665 0.04749 -0.14900
C 	C 	0.74949 0.06168 0.03874 0.39100
C 	C 	0.80137 0.22687 0.02127 0.00700
F 	F 	0.92162 0.25580 0.01467 -0.39400
H 	H 	0.92078 0.15464 0.04112 0.09800
F 	F 	0.69319 0.99839 0.04701 -0.41900
H 	H 	0.69499 0.09919 0.02309 0.14500
C 	C 	0.75705 0.24288 0.98144 0.31700
C 	C 	0.74381 0.27852 0.98697 -0.07300
C 	C 	0.77472 0.29853 0.03229 -0.07700
C 	C 	0.82322 0.28687 0.07047 0.35800
C 	C 	0.83646 0.25123 0.06490 -0.11200
F 	F 	0.72452 0.22151 0.93832 -0.39400
H 	H 	0.70742 0.28841 0.95683 0.12200
F 	F 	0.85415 0.30637 0.11433 -0.39900
H 	H 	0.87125 0.23963 0.09566 0.14200
C 	C 	0.82327 0.50039 0.14652 -0.12200
C 	C 	0.85193 0.56112 0.11119 0.01200
C 	C 	0.87209 0.56992 0.07171 0.33000
C 	C 	0.85382 0.51600 0.06320 -0.07500
C 	C 	0.81607 0.45341 0.09432 -0.06300
C 	C 	0.80674 0.44698 0.13871 0.36100
C 	C 	0.85484 0.61329 0.11270 0.02800
F 	F 	0.90577 0.62988 0.03995 -0.39000
H 	H 	0.86369 0.52201 0.02991 0.12800
F 	F 	0.77480 0.38737 0.17132 -0.39700
H 	H 	0.81022 0.49365 0.17838 0.13600
C 	C 	0.82056 0.63906 0.07023 0.30800
C 	C 	0.83338 0.69569 0.06828 -0.04400
C 	C 	0.87990 0.72649 0.10880 -0.14100
C 	C 	0.90403 0.69408 0.15453 0.38800
C 	C 	0.89337 0.63875 0.15600 -0.14400
F 	F 	0.77743 0.61099 0.02999 -0.38400
H 	H 	0.81205 0.71880 0.03349 0.10700
F 	F 	0.94245 0.71918 0.19620 -0.42500
H 	H 	0.91715 0.61726 0.19000 0.14700
C 	C 	0.48240 0.26769 0.02714 -0.11600
C 	C 	0.45031 0.20406 0.05821 0.01300
C 	C 	0.48164 0.17214 0.07920 0.31500
C 	C 	0.54625 0.20492 0.07109 -0.07400
C 	C 	0.58033 0.26996 0.04245 -0.07200
C 	C 	0.54707 0.30052 0.01909 0.35500
C 	C 	0.38275 0.16984 0.06734 0.02700
F 	F 	0.45028 0.11000 0.10858 -0.39500
H 	H 	0.57143 0.18093 0.08926 0.12300
F 	F 	0.57858 0.36283 0.98999 -0.39700
H 	H 	0.45763 0.29195 0.00976 0.14000
C 	C 	0.37892 0.18223 0.10416 0.30100
C 	C 	0.31638 0.14176 0.11895 -0.03700
C 	C 	0.25781 0.08834 0.09748 -0.13300
C 	C 	0.26101 0.07873 0.05839 0.38900
C 	C 	0.32292 0.11985 0.04306 -0.13300
F 	F 	0.43646 0.23142 0.12729 -0.39000
H 	H 	0.31455 0.14980 0.14896 0.11800
F 	F 	0.20521 0.02711 0.03743 -0.43300
H 	H 	0.32536 0.11073 0.01407 0.13700
