data_crystal

_cell_length_a 20.42068
_cell_length_b 20.87748
_cell_length_c 48.04320
_cell_angle_alpha 60.64741
_cell_angle_beta  119.13590
_cell_angle_gamma 133.33203

_symmetry_space_group_name_	'P 1'
_symmetry_space_group_name_H-M	'P 1'

loop_
_symmetry_equiv_pos_as_xyz
  x,y,z

loop_
_atom_site_label
_atom_site_type_symbol
_atom_site_fract_x
_atom_site_fract_y
_atom_site_fract_z
_atom_site_charge
Co	Co	0.00898 0.08053 0.06288 1.19000
Co	Co	0.07974 0.01601 0.03941 1.18000
Co	Co	0.10039 0.87069 0.04264 1.17600
O 	O 	0.02413 0.06175 0.15306 -0.38700
C 	C 	0.01763 0.98698 0.17249 0.30200
O 	O 	0.07720 0.11919 0.03182 -0.45600
C 	C 	0.09819 0.22387 0.09380 0.33200
C 	C 	0.11362 0.77722 0.11316 0.32100
O 	O 	0.01332 0.93615 0.16137 -0.36600
O 	O 	0.08128 0.76434 0.08401 -0.40800
O 	O 	0.09781 0.82132 0.11859 -0.37700
O 	O 	0.01278 0.19058 0.08961 -0.41300
O 	O 	0.11571 0.18078 0.08868 -0.39100
O 	O 	0.04855 0.90863 0.05525 -0.75100
O 	O 	0.22950 0.96095 0.06701 -0.38300
O 	O 	0.22160 0.07525 0.05762 -0.38000
Co	Co	0.03425 0.10958 0.56256 1.19000
Co	Co	0.06580 0.01919 0.53361 1.18000
Co	Co	0.03730 0.84838 0.53038 1.17400
C 	C 	0.22323 0.01141 0.54778 0.29400
O 	O 	0.09696 0.13674 0.53198 -0.45500
C 	C 	0.14508 0.22450 0.61173 0.32000
C 	C 	0.05133 0.75600 0.60104 0.32500
O 	O 	0.00945 0.74055 0.57179 -0.40800
O 	O 	0.05036 0.80944 0.60775 -0.38400
O 	O 	0.08640 0.16305 0.63066 -0.40300
O 	O 	0.14999 0.20102 0.59189 -0.37800
O 	O 	0.01191 0.90600 0.54598 -0.74600
O 	O 	0.17442 0.92263 0.55417 -0.36900
O 	O 	0.19828 0.04979 0.55212 -0.37900
C 	C 	0.13705 0.05971 0.90423 -0.07000
C 	C 	0.14383 0.06569 0.93344 0.02700
C 	C 	0.04097 0.98845 0.79586 0.04000
C 	C 	0.11585 0.06647 0.80819 -0.06600
C 	C 	0.11473 0.07724 0.83457 -0.02000
C 	C 	0.03708 0.98283 0.76476 0.04300
C 	C 	0.01758 0.97241 0.70401 -0.03400
H 	H 	0.19955 0.08842 0.89890 0.05100
H 	H 	0.21158 0.10004 0.94970 0.02800
H 	H 	0.17487 0.11946 0.79722 0.04800
H 	H 	0.16989 0.14074 0.84189 0.03800
C 	C 	0.07001 0.07840 0.38661 -0.10200
C 	C 	0.07131 0.08075 0.41569 0.04200
C 	C 	0.08372 0.98431 0.32377 -0.04600
C 	C 	0.07936 0.99375 0.34978 -0.00300
C 	C 	0.02168 0.96724 0.26585 0.04900
C 	C 	0.02752 0.96707 0.20807 -0.04300
C 	C 	0.10584 0.03378 0.22552 -0.00400
C 	C 	0.10274 0.03434 0.25401 -0.07500
H 	H 	0.12494 0.13683 0.37398 0.05700
H 	H 	0.12798 0.14052 0.42529 0.02600
H 	H 	0.14050 0.98535 0.32672 0.05300
H 	H 	0.13275 0.00181 0.37242 0.02400
H 	H 	0.16731 0.08846 0.21592 0.05000
H 	H 	0.16221 0.08891 0.26610 0.04900
C 	C 	0.20702 0.45946 0.57852 -0.08400
C 	C 	0.19195 0.38174 0.57976 0.19200
C 	C 	0.19744 0.32082 0.61024 -0.12200
H 	H 	0.20200 0.50566 0.55495 0.08200
O 	O 	0.16679 0.36298 0.55107 -0.28100
H 	H 	0.22585 0.39226 0.54665 0.15700
C 	C 	0.26093 0.76656 0.63066 -0.09400
C 	C 	0.20746 0.78917 0.62845 0.18700
C 	C 	0.11079 0.72517 0.62367 -0.12500
C 	C 	0.07241 0.63370 0.62955 -0.02900
C 	C 	0.17248 0.30737 0.10535 -0.12100
C 	C 	0.17788 0.38643 0.08485 -0.04000
C 	C 	0.20316 0.44897 0.09829 0.14100
H 	H 	0.15481 0.39552 0.05843 0.06500
O 	O 	0.20508 0.52437 0.07778 -0.26800
H 	H 	0.14262 0.50633 0.07400 0.15200
C 	C 	0.16362 0.73802 0.13949 -0.11000
C 	C 	0.11542 0.64336 0.14744 -0.04400
C 	C 	0.15932 0.60599 0.15347 0.14000
H 	H 	0.04157 0.59932 0.14559 0.06800
O 	O 	0.10956 0.51368 0.15959 -0.27200
H 	H 	0.11818 0.49119 0.18381 0.14900
C 	C 	0.07146 0.99455 0.97936 0.33700
O 	O 	0.12880 0.97324 0.00004 -0.40900
O 	O 	0.03717 0.01164 0.99016 -0.39700
C 	C 	0.02901 0.98903 0.46994 0.34300
O 	O 	0.07307 0.95181 0.48829 -0.40800
C 	C 	0.06379 0.01913 0.94355 -0.11600
C 	C 	0.05012 0.01361 0.88283 0.02900
C 	C 	0.04375 0.00622 0.85164 -0.01500
C 	C 	0.07316 0.06167 0.73937 -0.06900
C 	C 	0.06713 0.05681 0.71003 -0.01600
H 	H 	0.10284 0.12657 0.74170 0.04700
H 	H 	0.09347 0.11827 0.69073 0.04100
C 	C 	0.01492 0.97340 0.29414 0.01800
C 	C 	0.12556 0.61004 0.63232 0.13300
C 	C 	0.20879 0.29987 0.13939 0.18300
O 	O 	0.21265 0.22761 0.15968 -0.28700
H 	H 	0.23692 0.13085 0.47676 0.14700
H 	H 	0.24361 0.16978 0.98830 0.14500
C 	C 	0.23142 0.43710 0.13259 -0.04000
O 	O 	0.01818 0.02363 0.48305 -0.39400
O 	O 	0.08557 0.52080 0.63658 -0.27000
C 	C 	0.23498 0.36266 0.15297 -0.09000
C 	C 	0.26348 0.04755 0.05720 0.29300
C 	C 	0.22805 0.34408 0.63931 -0.04100
H 	H 	0.23493 0.29894 0.66296 0.06000
C 	C 	0.26073 0.79267 0.14544 0.18000
O 	O 	0.27925 0.16558 0.49389 -0.28900
N 	N 	0.24410 0.54676 0.14534 -0.12800
N 	N 	0.22560 0.57990 0.61779 -0.12800
C 	C 	0.23086 0.47889 0.60759 -0.03800
C 	C 	0.24208 0.42106 0.63808 0.13900
H 	H 	0.21294 0.41123 0.67246 0.14800
C 	C 	0.21846 0.67869 0.62948 -0.03600
H 	H 	0.26161 0.35545 0.17931 0.06800
H 	H 	0.27474 0.24833 0.16136 0.15200
C 	C 	0.25342 0.66385 0.15244 -0.03900
C 	C 	0.28542 0.51530 0.14593 0.14400
H 	H 	0.09794 0.49585 0.66073 0.14700
C 	C 	0.29741 0.62940 0.15173 0.13900
C 	C 	0.26778 0.66284 0.62129 0.13800
C 	C 	0.26659 0.56968 0.60633 0.14600
O 	O 	0.27073 0.44178 0.66678 -0.27500
C 	C 	0.30524 0.75628 0.15111 -0.09000
O 	O 	0.29840 0.20719 0.00389 -0.28300
C 	C 	0.00431 0.00343 0.43374 -0.12600
O 	O 	0.24852 0.87637 0.62750 -0.27900
C 	C 	0.00014 0.99947 0.37472 0.07600
C 	C 	0.00586 0.99182 0.34665 -0.00600
H 	H 	0.26576 0.87657 0.65066 0.15500
H 	H 	0.00957 0.40352 0.48750 0.15600
O 	O 	0.00375 0.38265 0.51021 -0.27200
H 	H 	0.99896 0.58223 0.62850 0.04600
O 	O 	0.99915 0.94764 0.65470 -0.37900
O 	O 	0.31212 0.88215 0.14487 -0.28000
H 	H 	0.33426 0.81856 0.63164 0.07700
C 	C 	0.98530 0.89380 0.72983 -0.00500
C 	C 	0.99665 0.89914 0.76027 -0.06300
H 	H 	0.97220 0.83802 0.77990 0.05000
C 	C 	0.94892 0.89623 0.22128 -0.00600
O 	O 	0.91775 0.98947 0.65151 -0.39400
C 	C 	0.97322 0.96475 0.66927 0.28100
H 	H 	0.94720 0.82802 0.72587 0.04300
H 	H 	0.32355 0.91656 0.12254 0.16000
C 	C 	0.68783 0.27952 0.99525 0.13900
N 	N 	0.59833 0.22540 0.99714 -0.13200
C 	C 	0.56358 0.25999 0.99877 0.14400
N 	N 	0.61597 0.34981 0.99594 -0.14200
C 	C 	0.70679 0.40291 0.99676 0.14500
N 	N 	0.74317 0.36805 0.99631 -0.14000
C 	C 	0.70807 0.28222 0.51167 0.13600
N 	N 	0.61911 0.21451 0.51488 -0.13400
C 	C 	0.57632 0.22816 0.52369 0.14700
N 	N 	0.62183 0.30860 0.52935 -0.14100
C 	C 	0.70840 0.37734 0.52495 0.14200
N 	N 	0.75186 0.36472 0.51597 -0.13600
N 	N 	0.37857 0.56611 0.15271 -0.14000
C 	C 	0.43081 0.65233 0.15462 0.14500
N 	N 	0.39079 0.68369 0.15495 -0.13800
N 	N 	0.35299 0.73357 0.61484 -0.14200
C 	C 	0.39291 0.72306 0.60313 0.14800
N 	N 	0.34839 0.64200 0.59810 -0.13500
Co	Co	0.99161 0.83582 0.08529 1.18400
Co	Co	0.93881 0.90821 0.11413 1.18400
C 	C 	0.90245 0.71791 0.03825 0.30900
Co	Co	0.92205 0.05696 0.11115 1.16600
O 	O 	0.95440 0.00943 0.09369 -0.76900
O 	O 	0.93416 0.80191 0.11938 -0.45900
O 	O 	0.97574 0.94787 0.06783 -0.57700
C 	C 	0.77110 0.85858 0.12255 0.33100
O 	O 	0.83001 0.92808 0.13549 -0.40800
O 	O 	0.79951 0.83790 0.11077 -0.38200
C 	C 	0.85188 0.10215 0.03900 0.30900
O 	O 	0.82540 0.04645 0.06678 -0.39900
O 	O 	0.91500 0.11466 0.03107 -0.36800
O 	O 	0.96454 0.78724 0.02067 -0.39800
O 	O 	0.89618 0.72548 0.06299 -0.36600
Co	Co	0.95577 0.84048 0.57627 1.18400
Co	Co	0.92766 0.93097 0.60638 1.18800
C 	C 	0.84030 0.71740 0.52885 0.31000
Co	Co	0.94745 0.09459 0.60941 1.16600
O 	O 	0.96729 0.04058 0.58982 -0.77100
O 	O 	0.90479 0.81571 0.61037 -0.46000
O 	O 	0.96873 0.96888 0.56147 -0.57600
C 	C 	0.76057 0.92762 0.59421 0.33100
O 	O 	0.81111 0.01709 0.58558 -0.41200
O 	O 	0.79237 0.88138 0.60123 -0.36800
C 	C 	0.94014 0.19701 0.53917 0.33300
O 	O 	0.97563 0.20606 0.56926 -0.39900
O 	O 	0.95619 0.15980 0.52990 -0.38400
O 	O 	0.89833 0.78262 0.50964 -0.40100
O 	O 	0.84182 0.73352 0.55298 -0.36500
C 	C 	0.97670 0.97549 0.92185 0.03300
C 	C 	0.96996 0.97440 0.89134 -0.06200
C 	C 	0.97046 0.92636 0.84023 -0.01500
C 	C 	0.96760 0.91877 0.81198 -0.06000
H 	H 	0.91411 0.93917 0.92908 0.03400
H 	H 	0.90250 0.94177 0.87476 0.05300
H 	H 	0.91596 0.86991 0.85321 0.04000
H 	H 	0.90816 0.85896 0.80266 0.04900
C 	C 	0.92973 0.92788 0.42008 0.04500
C 	C 	0.92788 0.92570 0.39087 -0.09500
C 	C 	0.93667 0.98022 0.31716 -0.03500
C 	C 	0.94135 0.97146 0.29104 -0.04900
C 	C 	0.94586 0.89637 0.24993 -0.06600
H 	H 	0.87707 0.86784 0.43346 0.02700
H 	H 	0.87257 0.86497 0.38173 0.05900
H 	H 	0.87958 0.97851 0.31436 0.04400
H 	H 	0.88827 0.96409 0.26832 0.04600
H 	H 	0.88360 0.84284 0.25912 0.05200
H 	H 	0.88790 0.84432 0.20823 0.05300
C 	C 	0.49007 0.79248 0.60179 -0.04200
C 	C 	0.55784 0.79002 0.63009 -0.08800
C 	C 	0.64557 0.83157 0.62758 0.18600
C 	C 	0.66659 0.87762 0.59662 -0.11800
C 	C 	0.60117 0.88590 0.56861 -0.03800
C 	C 	0.51303 0.84349 0.57110 0.14000
H 	H 	0.54053 0.75088 0.65383 0.07400
O 	O 	0.70983 0.82489 0.65531 -0.28200
H 	H 	0.61822 0.92415 0.54483 0.06400
O 	O 	0.44733 0.84651 0.54321 -0.27100
H 	H 	0.45390 0.90080 0.54049 0.14900
H 	H 	0.74286 0.87689 0.66419 0.15300
C 	C 	0.67727 0.79456 0.12751 -0.12100
C 	C 	0.61514 0.81779 0.10773 -0.04100
C 	C 	0.53980 0.77977 0.11849 0.14200
C 	C 	0.52398 0.71523 0.14885 -0.04200
C 	C 	0.58634 0.69222 0.16862 -0.09000
C 	C 	0.66088 0.72937 0.15764 0.18900
H 	H 	0.62801 0.86903 0.08468 0.06100
O 	O 	0.47848 0.80160 0.09839 -0.27000
H 	H 	0.57406 0.64159 0.19181 0.07000
O 	O 	0.72105 0.70599 0.17734 -0.29500
H 	H 	0.69622 0.65346 0.17071 0.15600
H 	H 	0.50227 0.85446 0.10452 0.14800
H 	H 	0.37928 0.80073 0.15332 0.07400
C 	C 	0.87745 0.22361 0.51670 -0.12000
C 	C 	0.78173 0.15606 0.51260 -0.04300
C 	C 	0.72309 0.17510 0.50833 0.13700
C 	C 	0.76040 0.26415 0.50662 -0.03600
C 	C 	0.85292 0.33458 0.50405 -0.09000
C 	C 	0.91133 0.31445 0.50913 0.18000
H 	H 	0.75402 0.08668 0.51614 0.05800
O 	O 	0.62998 0.10711 0.50558 -0.27400
H 	H 	0.88118 0.40442 0.50002 0.07700
H 	H 	0.62269 0.07391 0.52850 0.14400
C 	C 	0.74967 0.46730 0.52630 -0.04300
C 	C 	0.76689 0.47918 0.55607 -0.08800
C 	C 	0.78379 0.55580 0.55671 0.18500
C 	C 	0.78712 0.62337 0.52748 -0.11400
C 	C 	0.76337 0.60802 0.49747 -0.04800
C 	C 	0.74671 0.53160 0.49688 0.14100
H 	H 	0.76369 0.42713 0.57861 0.07300
O 	O 	0.79340 0.56267 0.58564 -0.27900
H 	H 	0.76313 0.65828 0.47468 0.06200
O 	O 	0.72725 0.51968 0.46743 -0.27900
H 	H 	0.65894 0.48543 0.45928 0.15000
H 	H 	0.85935 0.58888 0.59732 0.15000
C 	C 	0.47908 0.15934 0.52487 -0.04900
C 	C 	0.41720 0.18270 0.50447 -0.08300
C 	C 	0.33623 0.13822 0.51305 0.17500
C 	C 	0.31432 0.06684 0.54147 -0.09900
C 	C 	0.37258 0.03861 0.56048 -0.06900
C 	C 	0.45449 0.08429 0.55215 0.15000
H 	H 	0.43541 0.24002 0.48318 0.06900
H 	H 	0.35456 0.98151 0.58181 0.09200
O 	O 	0.51399 0.06017 0.57221 -0.28200
H 	H 	0.49563 0.01473 0.56321 0.14000
C 	C 	0.81077 0.15220 0.01655 -0.11200
C 	C 	0.71410 0.10374 0.00686 -0.04300
C 	C 	0.67256 0.14647 0.99684 0.13800
C 	C 	0.72846 0.23888 0.99701 -0.03600
C 	C 	0.82488 0.29001 0.00196 -0.09200
C 	C 	0.86597 0.24697 0.01169 0.18100
H 	H 	0.67087 0.03156 0.00883 0.05800
O 	O 	0.57801 0.09882 0.98584 -0.27200
H 	H 	0.86865 0.36233 0.99975 0.07400
O 	O 	0.96028 0.29737 0.01734 -0.28400
H 	H 	0.98501 0.30660 0.03964 0.15100
H 	H 	0.55389 0.06279 0.00596 0.14600
C 	C 	0.83867 0.63036 0.02978 -0.11000
C 	C 	0.79040 0.62768 0.99686 -0.04400
C 	C 	0.75612 0.55821 0.98489 0.14300
C 	C 	0.76741 0.48872 0.00605 -0.04300
C 	C 	0.81375 0.49011 0.03916 -0.08800
C 	C 	0.84842 0.55989 0.05113 0.18100
H 	H 	0.78373 0.68234 0.98007 0.06200
O 	O 	0.71185 0.55855 0.95235 -0.27800
H 	H 	0.81954 0.43493 0.05598 0.07200
O 	O 	0.89255 0.55946 0.08366 -0.28400
H 	H 	0.95725 0.58720 0.08520 0.15400
H 	H 	0.64585 0.52580 0.95110 0.15300
C 	C 	0.34886 0.11344 0.04554 -0.11200
C 	C 	0.41471 0.09543 0.05950 -0.04600
C 	C 	0.47947 0.13639 0.04267 0.14000
C 	C 	0.48180 0.19950 0.01208 -0.04400
C 	C 	0.41859 0.22064 0.99879 -0.08900
C 	C 	0.35393 0.17970 0.01576 0.18100
H 	H 	0.41332 0.04669 0.08295 0.05500
O 	O 	0.54429 0.11900 0.05713 -0.27800
H 	H 	0.42228 0.27186 0.97590 0.07000
H 	H 	0.51537 0.06525 0.05020 0.14100
