data_crystal

_cell_length_a 35.17471
_cell_length_b 36.34606
_cell_length_c 28.38957
_cell_angle_alpha 90.59008
_cell_angle_beta  89.32152
_cell_angle_gamma 119.98303

_symmetry_space_group_name_	'P 1'
_symmetry_space_group_name_H-M	'P 1'

loop_
_symmetry_equiv_pos_as_xyz
  x,y,z

loop_
_atom_site_label
_atom_site_type_symbol
_atom_site_fract_x
_atom_site_fract_y
_atom_site_fract_z
_atom_site_charge
C 	C 	0.09153 0.32615 0.46304 -0.09500
C 	C 	0.05288 0.30220 0.47042 0.03600
C 	C 	0.00796 0.27402 0.48093 0.02900
C 	C 	0.09153 0.32615 0.96304 -0.09500
C 	C 	0.05288 0.30220 0.97042 0.03900
C 	C 	0.00796 0.27402 0.98093 0.02600
C 	C 	0.07316 0.79983 0.46531 0.03600
C 	C 	0.03004 0.76852 0.47728 0.02800
C 	C 	0.07316 0.79983 0.96531 0.03700
C 	C 	0.03004 0.76852 0.97728 0.03000
O 	O 	0.17460 0.72123 0.95263 -0.42200
O 	O 	0.16500 0.85666 0.89476 -0.40500
H 	H 	0.17564 0.79617 0.95550 0.15800
C 	C 	0.15435 0.85407 0.93946 0.30600
O 	O 	0.18464 0.87318 0.97153 -0.36900
O 	O 	0.17460 0.72123 0.45263 -0.42300
O 	O 	0.16500 0.85666 0.39476 -0.40500
H 	H 	0.17564 0.79617 0.45550 0.15700
C 	C 	0.15435 0.85407 0.43946 0.30700
O 	O 	0.18464 0.87318 0.47153 -0.37000
O 	O 	0.16488 0.36473 0.99110 -0.36600
H 	H 	0.17068 0.44041 0.97139 0.16000
O 	O 	0.15276 0.36540 0.91229 -0.41000
C 	C 	0.13786 0.35430 0.95537 0.30300
O 	O 	0.16488 0.36473 0.49110 -0.36700
H 	H 	0.17068 0.44041 0.47139 0.16000
O 	O 	0.15276 0.36540 0.41229 -0.41000
C 	C 	0.13786 0.35430 0.45537 0.30300
C 	C 	0.11011 0.82537 0.45386 -0.10600
C 	C 	0.11011 0.82537 0.95386 -0.10500
Ni	Ni	0.22907 0.80709 0.89079 1.10200
O 	O 	0.25503 0.87067 0.90371 -0.70500
Ni	Ni	0.24162 0.87042 0.97195 1.10300
O 	O 	0.24760 0.81891 0.82175 -0.36500
O 	O 	0.21238 0.85686 0.81290 -0.40600
Ni	Ni	0.22712 0.89743 0.87071 1.06800
O 	O 	0.27485 0.93409 0.98114 -0.37700
O 	O 	0.20758 0.80711 0.95655 -0.70400
O 	O 	0.20736 0.74339 0.87961 -0.36800
O 	O 	0.23445 0.86172 0.04296 -0.38200
O 	O 	0.26116 0.81608 0.03995 -0.42300
Ni	Ni	0.21699 0.76850 0.99542 1.07200
C 	C 	0.23894 0.84388 0.79647 0.29100
C 	C 	0.26975 0.95897 0.95158 0.29100
C 	C 	0.24970 0.84002 0.06418 0.29700
C 	C 	0.18736 0.71335 0.91177 0.31300
O 	O 	0.23728 0.94289 0.92056 -0.39900
Ni	Ni	0.22907 0.80709 0.39079 1.10200
O 	O 	0.25503 0.87067 0.40371 -0.70500
Ni	Ni	0.24162 0.87042 0.47195 1.10200
O 	O 	0.24760 0.81891 0.32175 -0.36500
O 	O 	0.21238 0.85686 0.31290 -0.40700
Ni	Ni	0.22712 0.89743 0.37071 1.06800
O 	O 	0.27485 0.93409 0.48114 -0.37900
O 	O 	0.20758 0.80711 0.45655 -0.70400
O 	O 	0.20736 0.74339 0.37961 -0.36800
O 	O 	0.23445 0.86172 0.54296 -0.37900
O 	O 	0.26116 0.81608 0.53995 -0.42000
Ni	Ni	0.21699 0.76850 0.49542 1.07100
C 	C 	0.23894 0.84388 0.29647 0.29100
C 	C 	0.26975 0.95897 0.45158 0.29200
C 	C 	0.24970 0.84003 0.56417 0.29700
C 	C 	0.18736 0.71335 0.41177 0.31300
O 	O 	0.23728 0.94289 0.42056 -0.40000
Ni	Ni	0.22655 0.41810 0.99422 1.10400
O 	O 	0.20295 0.45666 0.97502 -0.70600
Ni	Ni	0.23101 0.47580 0.91172 1.10100
O 	O 	0.21688 0.42276 0.06438 -0.38100
O 	O 	0.25579 0.49512 0.06100 -0.42000
Ni	Ni	0.21921 0.50730 0.01300 1.06800
O 	O 	0.21722 0.33828 0.94118 -0.40100
O 	O 	0.21983 0.52550 0.89890 -0.37000
O 	O 	0.24588 0.42970 0.92715 -0.70500
O 	O 	0.25007 0.37867 0.00708 -0.38100
O 	O 	0.25354 0.47925 0.84447 -0.36800
O 	O 	0.20693 0.40810 0.83314 -0.40700
Ni	Ni	0.21358 0.37730 0.89150 1.06800
C 	C 	0.23776 0.45976 0.08551 0.29300
C 	C 	0.19681 0.53688 0.92676 0.30900
C 	C 	0.23806 0.44526 0.81746 0.29000
C 	C 	0.24771 0.35166 0.97439 0.29800
O 	O 	0.18256 0.51984 0.96874 -0.41800
Ni	Ni	0.22655 0.41810 0.49422 1.10200
O 	O 	0.20295 0.45666 0.47502 -0.70800
Ni	Ni	0.23101 0.47580 0.41172 1.10100
O 	O 	0.21688 0.42276 0.56438 -0.37900
O 	O 	0.25579 0.49512 0.56100 -0.41800
Ni	Ni	0.21921 0.50730 0.51300 1.07000
O 	O 	0.21722 0.33828 0.44118 -0.40000
O 	O 	0.21983 0.52550 0.39890 -0.37100
O 	O 	0.24588 0.42970 0.42715 -0.70500
O 	O 	0.25007 0.37867 0.50708 -0.37500
O 	O 	0.25354 0.47925 0.34447 -0.36800
O 	O 	0.20693 0.40810 0.33314 -0.40700
Ni	Ni	0.21358 0.37730 0.39150 1.06800
C 	C 	0.23776 0.45976 0.58551 0.29300
C 	C 	0.19681 0.53688 0.42676 0.30900
C 	C 	0.23806 0.44526 0.31746 0.28900
C 	C 	0.24771 0.35166 0.47439 0.29200
O 	O 	0.18256 0.51984 0.46873 -0.41900
C 	C 	0.24345 0.45130 0.76790 -0.09300
C 	C 	0.24583 0.45594 0.72605 0.03400
C 	C 	0.24582 0.45990 0.67707 0.03800
C 	C 	0.24338 0.46124 0.63514 -0.10100
C 	C 	0.24345 0.45130 0.26790 -0.09300
C 	C 	0.24583 0.45594 0.22605 0.03300
C 	C 	0.24582 0.45990 0.17707 0.03800
C 	C 	0.24338 0.46124 0.13514 -0.10200
C 	C 	0.19216 0.57240 0.41402 -0.09300
C 	C 	0.18911 0.60344 0.40732 0.03600
C 	C 	0.18681 0.64090 0.40423 0.03900
C 	C 	0.18620 0.67369 0.40557 -0.09700
C 	C 	0.18620 0.67369 0.90557 -0.09600
C 	C 	0.18681 0.64090 0.90423 0.03900
C 	C 	0.18911 0.60344 0.90732 0.03700
C 	C 	0.19216 0.57240 0.91402 -0.09200
C 	C 	0.24592 0.84483 0.74706 -0.09500
C 	C 	0.25007 0.84441 0.70522 0.03300
C 	C 	0.25250 0.84296 0.65616 0.03900
C 	C 	0.25236 0.84147 0.61405 -0.10700
C 	C 	0.25236 0.84147 0.11405 -0.10800
C 	C 	0.25250 0.84296 0.15616 0.03900
C 	C 	0.25007 0.84441 0.20521 0.03200
C 	C 	0.24593 0.84483 0.24706 -0.09500
C 	C 	0.27103 0.32937 0.48202 -0.09700
C 	C 	0.27103 0.32936 0.98202 -0.10100
O 	O 	0.29090 0.81844 0.90586 -0.38300
H 	H 	0.28717 0.88686 0.89841 0.15800
O 	O 	0.26777 0.76714 0.96162 -0.39700
C 	C 	0.29954 0.80021 0.94044 0.31100
O 	O 	0.29090 0.81844 0.40586 -0.38300
H 	H 	0.28717 0.88686 0.39841 0.15700
O 	O 	0.26777 0.76714 0.46162 -0.39800
C 	C 	0.29954 0.80021 0.44044 0.31000
O 	O 	0.27523 0.55522 0.98185 -0.39300
H 	H 	0.27778 0.44019 0.92469 0.15900
C 	C 	0.30525 0.54980 0.96016 0.31700
O 	O 	0.29412 0.51685 0.93265 -0.39000
O 	O 	0.27523 0.55522 0.48185 -0.39500
H 	H 	0.27778 0.44019 0.42469 0.15900
C 	C 	0.30525 0.54980 0.46016 0.31700
O 	O 	0.29412 0.51685 0.43265 -0.39100
C 	C 	0.28956 0.00291 0.46366 -0.09000
C 	C 	0.30688 0.03923 0.47665 0.03200
C 	C 	0.32785 0.08110 0.49393 0.03900
C 	C 	0.34373 0.28337 0.51441 -0.09000
C 	C 	0.31976 0.29656 0.50359 0.03300
C 	C 	0.29270 0.31321 0.49114 0.03500
C 	C 	0.32785 0.08110 0.99393 0.04900
C 	C 	0.30688 0.03923 0.97665 0.02900
C 	C 	0.28956 0.00291 0.96366 -0.08600
C 	C 	0.29270 0.31321 0.99114 0.04400
C 	C 	0.31976 0.29656 0.00359 0.02400
C 	C 	0.34373 0.28337 0.01442 -0.08600
O 	O 	0.38067 0.19084 0.99789 -0.36700
O 	O 	0.35802 0.23496 0.05507 -0.40000
O 	O 	0.37752 0.16611 0.07208 -0.41000
C 	C 	0.36923 0.15921 0.02698 0.30400
C 	C 	0.37274 0.26795 0.02620 0.28900
O 	O 	0.38067 0.19084 0.49789 -0.37100
O 	O 	0.35802 0.23496 0.55507 -0.40000
O 	O 	0.37752 0.16611 0.57208 -0.41000
C 	C 	0.36923 0.15921 0.52698 0.30600
C 	C 	0.37274 0.26795 0.52620 0.29500
C 	C 	0.35000 0.58442 0.45900 -0.09000
C 	C 	0.35000 0.58442 0.95900 -0.08900
C 	C 	0.34353 0.80826 0.44547 -0.09400
C 	C 	0.34353 0.80826 0.94547 -0.09300
C 	C 	0.34641 0.11671 0.50930 -0.10300
C 	C 	0.34641 0.11671 0.00930 -0.11100
O 	O 	0.40666 0.27810 0.99806 -0.37600
O 	O 	0.42084 0.20629 0.15780 -0.40700
Ni	Ni	0.39512 0.22352 0.10198 1.06700
O 	O 	0.40666 0.27810 0.49806 -0.38200
O 	O 	0.42084 0.20629 0.65780 -0.40600
Ni	Ni	0.39512 0.22352 0.60198 1.06700
C 	C 	0.38734 0.61383 0.45805 0.03800
C 	C 	0.38734 0.61383 0.95805 0.03800
C 	C 	0.37978 0.81324 0.45019 0.03900
C 	C 	0.37978 0.81324 0.95019 0.04000
Ni	Ni	0.44011 0.24618 0.00088 1.09800
O 	O 	0.44194 0.24427 0.92899 -0.37500
O 	O 	0.45177 0.25356 0.06974 -0.70500
H 	H 	0.45114 0.18154 0.00831 0.15300
Ni	Ni	0.44010 0.24618 0.50088 1.10000
O 	O 	0.44194 0.24427 0.42899 -0.37700
O 	O 	0.45177 0.25356 0.56974 -0.70400
H 	H 	0.45114 0.18154 0.50831 0.15400
C 	C 	0.43076 0.64899 0.45778 0.03900
C 	C 	0.43076 0.64899 0.95778 0.04100
C 	C 	0.42093 0.81625 0.45645 0.03600
C 	C 	0.42093 0.81625 0.95645 0.03600
O 	O 	0.47175 0.21245 0.01033 -0.70400
H 	H 	0.46703 0.28411 0.07820 0.15600
C 	C 	0.47898 0.25714 0.90614 0.29800
C 	C 	0.46070 0.23102 0.17413 0.29100
O 	O 	0.47175 0.21245 0.51033 -0.70200
H 	H 	0.46703 0.28411 0.57820 0.15700
C 	C 	0.47898 0.25714 0.40614 0.29800
C 	C 	0.46070 0.23102 0.67413 0.29100
C 	C 	0.46721 0.67980 0.45915 -0.09400
C 	C 	0.46721 0.67980 0.95915 -0.09500
C 	C 	0.45445 0.81571 0.46253 -0.09000
C 	C 	0.45445 0.81571 0.96253 -0.08900
C 	C 	0.47857 0.25497 0.85603 -0.10900
C 	C 	0.47595 0.25128 0.81399 0.03800
C 	C 	0.47106 0.24519 0.76514 0.03100
C 	C 	0.46623 0.23899 0.72351 -0.09600
C 	C 	0.46623 0.23899 0.22351 -0.09600
C 	C 	0.47106 0.24519 0.26514 0.03100
C 	C 	0.47595 0.25128 0.31399 0.03700
C 	C 	0.47857 0.25497 0.35603 -0.11000
Ni	Ni	0.49093 0.22711 0.07772 1.10000
O 	O 	0.49528 0.23879 0.14857 -0.36300
Ni	Ni	0.49093 0.22711 0.57772 1.10000
O 	O 	0.49528 0.23879 0.64857 -0.36200
O 	O 	0.48526 0.77812 0.99669 -0.40900
C 	C 	0.49167 0.81064 0.97072 0.29900
O 	O 	0.48526 0.77812 0.49669 -0.41100
C 	C 	0.49167 0.81064 0.47072 0.29900
O 	O 	0.51545 0.26836 0.92897 -0.41800
Ni	Ni	0.52201 0.22485 0.96993 1.07300
O 	O 	0.51545 0.26836 0.42897 -0.42000
Ni	Ni	0.52201 0.22485 0.46993 1.07000
O 	O 	0.52211 0.74746 0.93155 -0.36400
O 	O 	0.52477 0.82787 0.94067 -0.37700
O 	O 	0.52747 0.72732 0.00513 -0.42800
C 	C 	0.50949 0.71772 0.96375 0.31700
O 	O 	0.52211 0.74746 0.43155 -0.36400
O 	O 	0.52477 0.82787 0.44067 -0.37800
O 	O 	0.52747 0.72732 0.50513 -0.42300
C 	C 	0.50949 0.71772 0.46375 0.31200
O 	O 	0.53411 0.20455 0.08465 -0.36800
O 	O 	0.54192 0.28784 0.06905 -0.38100
O 	O 	0.53210 0.18349 0.00743 -0.42100
O 	O 	0.53411 0.20455 0.58465 -0.36800
O 	O 	0.54192 0.28784 0.56905 -0.38000
O 	O 	0.53210 0.18349 0.50743 -0.41900
Ni	Ni	0.52986 0.77670 0.04103 1.06500
Ni	Ni	0.52986 0.77670 0.54103 1.06600
C 	C 	0.55126 0.19393 0.04891 0.31400
C 	C 	0.55126 0.19393 0.54891 0.31300
O 	O 	0.55973 0.76133 0.09335 -0.41100
O 	O 	0.55973 0.76133 0.59335 -0.41100
O 	O 	0.57246 0.27378 0.00551 -0.39700
C 	C 	0.56732 0.30085 0.03162 0.30400
O 	O 	0.57246 0.27378 0.50551 -0.39500
C 	C 	0.56732 0.30085 0.53162 0.30400
Ni	Ni	0.57160 0.81045 0.93940 1.09900
O 	O 	0.57095 0.81066 0.86706 -0.36100
Ni	Ni	0.57160 0.81045 0.43940 1.09800
O 	O 	0.57095 0.81066 0.36706 -0.36100
O 	O 	0.58465 0.81791 0.00913 -0.70300
O 	O 	0.58465 0.81791 0.50913 -0.70100
H 	H 	0.59482 0.84742 0.01968 0.15300
C 	C 	0.59749 0.78915 0.11097 0.30000
H 	H 	0.59482 0.84742 0.51968 0.15400
C 	C 	0.59749 0.78915 0.61097 0.30000
C 	C 	0.59953 0.34487 0.52830 -0.09400
C 	C 	0.59300 0.19640 0.55443 -0.09300
C 	C 	0.59953 0.34487 0.02830 -0.09600
C 	C 	0.59300 0.19640 0.05443 -0.09400
H 	H 	0.60874 0.76397 0.93347 0.15600
C 	C 	0.60657 0.82206 0.84193 0.29900
H 	H 	0.60874 0.76397 0.43347 0.15500
C 	C 	0.60657 0.82206 0.34193 0.29900
C 	C 	0.60045 0.79641 0.66044 -0.10300
C 	C 	0.60134 0.80201 0.70215 0.03600
C 	C 	0.60179 0.80840 0.75087 0.03500
C 	C 	0.60297 0.81424 0.79256 -0.10000
C 	C 	0.60297 0.81424 0.29256 -0.10100
C 	C 	0.60179 0.80840 0.25088 0.03500
C 	C 	0.60134 0.80201 0.20215 0.03600
C 	C 	0.60045 0.79641 0.16044 -0.10300
O 	O 	0.61921 0.79361 0.94373 -0.69800
O 	O 	0.61921 0.79361 0.44373 -0.70000
C 	C 	0.62726 0.38167 0.52511 0.03900
C 	C 	0.62726 0.38167 0.02511 0.03900
Ni	Ni	0.63212 0.80089 0.01361 1.09700
O 	O 	0.63345 0.80268 0.08588 -0.36300
Ni	Ni	0.63212 0.80089 0.51361 1.09800
O 	O 	0.63345 0.80268 0.58588 -0.36300
C 	C 	0.62910 0.20040 0.55654 0.04000
C 	C 	0.62910 0.20040 0.05654 0.04000
O 	O 	0.64487 0.84940 0.85883 -0.40700
O 	O 	0.64487 0.84940 0.35883 -0.40700
C 	C 	0.66060 0.42430 0.52060 0.03400
C 	C 	0.66060 0.42430 0.02060 0.03200
Ni	Ni	0.85786 0.64665 0.96559 1.09600
O 	O 	0.87360 0.60513 0.99703 -0.70300
Ni	Ni	0.81757 0.56487 0.02969 1.09200
O 	O 	0.92181 0.69363 0.95712 -0.37000
O 	O 	0.93658 0.68876 0.03441 -0.41500
O 	O 	0.86089 0.62608 0.89659 -0.35900
Ni	Ni	0.91999 0.62573 0.04448 1.06700
O 	O 	0.76686 0.63292 0.91599 -0.40600
O 	O 	0.89498 0.62435 0.11176 -0.38100
O 	O 	0.83869 0.52950 0.06488 -0.38100
O 	O 	0.80051 0.60308 0.99340 -0.69900
O 	O 	0.83654 0.68443 0.93724 -0.37000
O 	O 	0.75339 0.52115 0.04367 -0.37200
O 	O 	0.73821 0.51534 0.96497 -0.40600
Ni	Ni	0.75711 0.57683 0.94304 1.06600
H 	H 	0.87961 0.58919 0.97239 0.15100
H 	H 	0.79037 0.61736 0.01598 0.14500
C 	C 	0.85338 0.60586 0.12527 0.29700
O 	O 	0.79150 0.56993 0.88793 -0.39100
C 	C 	0.94917 0.70677 0.99271 0.29300
C 	C 	0.87607 0.53077 0.05456 0.29200
C 	C 	0.82676 0.60200 0.86914 0.29100
C 	C 	0.72605 0.50220 0.00865 0.27800
C 	C 	0.79404 0.67074 0.93430 0.28500
O 	O 	0.82199 0.59612 0.09361 -0.37600
O 	O 	0.91391 0.56725 0.05316 -0.40700
Ni	Ni	0.85786 0.64665 0.46560 1.09600
O 	O 	0.87360 0.60513 0.49703 -0.70500
Ni	Ni	0.81757 0.56487 0.52970 1.09400
O 	O 	0.92181 0.69363 0.45712 -0.36900
O 	O 	0.93658 0.68876 0.53441 -0.41000
O 	O 	0.86089 0.62608 0.39659 -0.36000
Ni	Ni	0.91999 0.62574 0.54448 1.06800
O 	O 	0.76686 0.63292 0.41599 -0.40600
O 	O 	0.89498 0.62435 0.61176 -0.38000
O 	O 	0.83869 0.52950 0.56488 -0.38000
O 	O 	0.80051 0.60308 0.49340 -0.70400
O 	O 	0.83654 0.68443 0.43724 -0.37000
O 	O 	0.75339 0.52115 0.54367 -0.37200
O 	O 	0.73821 0.51534 0.46497 -0.41100
Ni	Ni	0.75711 0.57683 0.44304 1.06600
H 	H 	0.87961 0.58919 0.47239 0.15000
H 	H 	0.79037 0.61736 0.51598 0.14900
C 	C 	0.85338 0.60586 0.62527 0.29700
O 	O 	0.79150 0.56993 0.38793 -0.39100
C 	C 	0.94917 0.70677 0.49271 0.28800
C 	C 	0.87607 0.53077 0.55456 0.29300
C 	C 	0.82676 0.60200 0.36914 0.29100
C 	C 	0.72606 0.50220 0.50865 0.28300
C 	C 	0.79404 0.67074 0.43430 0.28500
O 	O 	0.82199 0.59612 0.59361 -0.37500
O 	O 	0.91391 0.56725 0.55316 -0.40600
Ni	Ni	0.67426 0.83392 0.91153 1.06800
O 	O 	0.67811 0.88533 0.94535 -0.41400
O 	O 	0.67785 0.78210 0.01328 -0.37900
C 	C 	0.68989 0.89409 0.98925 0.31400
C 	C 	0.70665 0.79416 0.97870 0.30400
O 	O 	0.68252 0.86362 0.01897 -0.37000
O 	O 	0.71721 0.82905 0.95514 -0.40700
Ni	Ni	0.67426 0.83392 0.41153 1.06700
O 	O 	0.67811 0.88533 0.44535 -0.41300
O 	O 	0.67785 0.78210 0.51328 -0.37400
C 	C 	0.68989 0.89409 0.48925 0.30400
C 	C 	0.70665 0.79416 0.47870 0.29900
O 	O 	0.68252 0.86362 0.51897 -0.36500
O 	O 	0.71721 0.82905 0.45514 -0.40700
Ni	Ni	0.83219 0.18855 0.98487 1.09900
O 	O 	0.85523 0.25258 0.99215 -0.70200
Ni	Ni	0.84886 0.25747 0.06228 1.09600
O 	O 	0.83544 0.19063 0.91290 -0.36300
O 	O 	0.79893 0.22702 0.90655 -0.40900
O 	O 	0.89509 0.19804 0.98073 -0.36100
Ni	Ni	0.81515 0.26849 0.96296 1.06700
O 	O 	0.85136 0.12501 0.04047 -0.40000
O 	O 	0.76262 0.21995 0.99585 -0.41700
O 	O 	0.87083 0.32124 0.06424 -0.37700
O 	O 	0.82620 0.19352 0.05500 -0.70400
O 	O 	0.80720 0.12446 0.98186 -0.36700
O 	O 	0.84889 0.25676 0.13440 -0.36300
O 	O 	0.88280 0.21778 0.13971 -0.40600
Ni	Ni	0.86273 0.17365 0.08563 1.06800
H 	H 	0.88590 0.27067 0.98122 0.15400
H 	H 	0.79514 0.17602 0.06496 0.15300
C 	C 	0.75329 0.22362 0.03957 0.30000
O 	O 	0.92095 0.21595 0.05535 -0.39500
C 	C 	0.82580 0.21539 0.88889 0.30100
C 	C 	0.85394 0.33760 0.03576 0.29500
C 	C 	0.92643 0.22258 0.00999 0.28000
C 	C 	0.85735 0.23089 0.15796 0.29800
C 	C 	0.81534 0.10453 0.01517 0.28600
O 	O 	0.78500 0.24585 0.06960 -0.36400
O 	O 	0.81873 0.31233 0.01108 -0.40900
Ni	Ni	0.83219 0.18855 0.48487 1.09900
O 	O 	0.85523 0.25258 0.49215 -0.70400
Ni	Ni	0.84886 0.25747 0.56227 1.09700
O 	O 	0.83544 0.19063 0.41290 -0.36300
O 	O 	0.79893 0.22702 0.40654 -0.40900
O 	O 	0.89509 0.19804 0.48074 -0.36600
Ni	Ni	0.81515 0.26849 0.46296 1.06600
O 	O 	0.85136 0.12501 0.54047 -0.40000
O 	O 	0.76262 0.21995 0.49585 -0.42200
O 	O 	0.87083 0.32124 0.56424 -0.37600
O 	O 	0.82620 0.19352 0.55500 -0.70200
O 	O 	0.80720 0.12446 0.48186 -0.37100
O 	O 	0.84889 0.25676 0.63440 -0.36300
O 	O 	0.88280 0.21778 0.63971 -0.40500
Ni	Ni	0.86273 0.17365 0.58563 1.06800
H 	H 	0.88590 0.27067 0.48122 0.15300
H 	H 	0.79514 0.17602 0.56496 0.15300
C 	C 	0.75329 0.22362 0.53957 0.30500
O 	O 	0.92095 0.21595 0.55535 -0.39600
C 	C 	0.82580 0.21539 0.38889 0.30100
C 	C 	0.85394 0.33760 0.53576 0.29500
C 	C 	0.92643 0.22258 0.50999 0.29100
C 	C 	0.85735 0.23089 0.65796 0.29800
C 	C 	0.81534 0.10453 0.51517 0.29200
O 	O 	0.78500 0.24585 0.56960 -0.36500
O 	O 	0.81873 0.31233 0.51108 -0.40700
C 	C 	0.97023 0.25021 0.49236 -0.08800
C 	C 	0.97023 0.25021 0.99236 -0.08000
C 	C 	0.85052 0.22792 0.70740 -0.09900
C 	C 	0.84510 0.22504 0.74913 0.03700
C 	C 	0.83882 0.22149 0.79784 0.03800
C 	C 	0.83316 0.21853 0.83954 -0.10000
C 	C 	0.83316 0.21854 0.33953 -0.10100
C 	C 	0.83882 0.22149 0.29784 0.03800
C 	C 	0.84510 0.22504 0.24913 0.03700
C 	C 	0.85052 0.22792 0.20740 -0.10000
C 	C 	0.71788 0.93798 0.50250 -0.09000
C 	C 	0.74147 0.97564 0.50959 0.03400
C 	C 	0.76863 0.02033 0.51421 0.03600
C 	C 	0.79079 0.05868 0.51572 -0.09400
C 	C 	0.71787 0.93798 0.00250 -0.09900
C 	C 	0.74147 0.97564 0.00959 0.03800
C 	C 	0.76863 0.02033 0.01421 0.03200
C 	C 	0.79079 0.05868 0.01572 -0.09200
C 	C 	0.86444 0.38095 0.54274 -0.09100
C 	C 	0.87059 0.41661 0.54717 0.03400
C 	C 	0.87501 0.45746 0.55094 0.03400
C 	C 	0.87664 0.49144 0.55311 -0.09100
C 	C 	0.72890 0.77083 0.46880 -0.10600
C 	C 	0.74598 0.74982 0.46011 0.03500
C 	C 	0.76428 0.72369 0.45009 0.02900
C 	C 	0.77856 0.70017 0.44222 -0.09600
C 	C 	0.87664 0.49144 0.05311 -0.09200
C 	C 	0.87501 0.45746 0.05094 0.03400
C 	C 	0.87059 0.41661 0.04717 0.03400
C 	C 	0.86444 0.38095 0.04274 -0.09200
C 	C 	0.72890 0.77083 0.96880 -0.10700
C 	C 	0.74598 0.74982 0.96011 0.03700
C 	C 	0.76428 0.72369 0.95009 0.02900
C 	C 	0.77856 0.70017 0.94222 -0.09500
C 	C 	0.84369 0.60427 0.67715 -0.06800
C 	C 	0.83923 0.60385 0.72079 0.03200
C 	C 	0.83564 0.60371 0.77271 0.03100
C 	C 	0.83248 0.60336 0.81649 -0.06800
C 	C 	0.84369 0.60427 0.17715 -0.06800
C 	C 	0.83923 0.60385 0.22079 0.03200
C 	C 	0.83564 0.60371 0.27271 0.03100
C 	C 	0.83248 0.60336 0.31649 -0.06900
C 	C 	0.99315 0.74075 0.48564 -0.09600
C 	C 	0.99315 0.74075 0.98564 -0.09700
C 	C 	0.69000 0.46025 0.51579 -0.09100
C 	C 	0.67221 0.20698 0.55540 0.03700
C 	C 	0.70934 0.21396 0.55061 -0.09300
C 	C 	0.69000 0.46025 0.01579 -0.09100
C 	C 	0.67221 0.20698 0.05540 0.03600
C 	C 	0.70934 0.21396 0.05061 -0.09200
