data_crystal

_cell_length_a 35.60367
_cell_length_b 37.08631
_cell_length_c 30.08533
_cell_angle_alpha 89.50818
_cell_angle_beta  89.99995
_cell_angle_gamma 89.99982

_symmetry_space_group_name_	'P 1'
_symmetry_space_group_name_H-M	'P 1'

loop_
_symmetry_equiv_pos_as_xyz
  x,y,z

loop_
_atom_site_label
_atom_site_type_symbol
_atom_site_fract_x
_atom_site_fract_y
_atom_site_fract_z
_atom_site_charge
C 	C 	0.47938 0.57914 0.86405 0.10700
N 	N 	0.46694 0.54624 0.87619 -0.17300
C 	C 	0.43155 0.54346 0.86088 0.11100
C 	C 	0.40438 0.51749 0.88000 -0.07100
C 	C 	0.41479 0.47902 0.88449 0.09500
C 	C 	0.36757 0.53011 0.89647 0.05400
C 	C 	0.36582 0.55494 0.93134 -0.04500
C 	C 	0.33107 0.56482 0.94914 0.00600
C 	C 	0.29782 0.55035 0.93174 0.02000
C 	C 	0.33430 0.51588 0.87886 -0.04400
N 	N 	0.44524 0.46499 0.86434 -0.12100
C 	C 	0.40283 0.45703 0.91910 -0.05300
C 	C 	0.45207 0.43353 0.88558 0.09500
C 	C 	0.48797 0.41382 0.88132 -0.06900
C 	C 	0.48980 0.37527 0.89407 0.05300
C 	C 	0.46442 0.31472 0.88936 0.00400
C 	C 	0.51434 0.36377 0.92782 -0.04300
C 	C 	0.51363 0.32793 0.94261 0.00300
C 	C 	0.48857 0.30331 0.92352 0.02600
N 	N 	0.53329 0.46451 0.87823 -0.17300
C 	C 	0.56965 0.46770 0.86643 0.11100
C 	C 	0.58129 0.43745 0.84350 -0.05100
C 	C 	0.55051 0.41483 0.84137 -0.05000
C 	C 	0.59548 0.49360 0.88787 -0.06900
C 	C 	0.63433 0.48288 0.89927 0.05400
C 	C 	0.70146 0.49306 0.89324 0.00500
C 	C 	0.70799 0.46615 0.92533 0.02500
C 	C 	0.67756 0.44761 0.94439 0.00500
C 	C 	0.64084 0.45582 0.93123 -0.04300
N 	N 	0.55532 0.54678 0.87190 -0.12200
C 	C 	0.56798 0.57984 0.93255 -0.05100
C 	C 	0.54643 0.57681 0.89452 0.09800
C 	C 	0.51114 0.59691 0.88686 -0.06900
C 	C 	0.50805 0.63484 0.90132 0.05400
C 	C 	0.53541 0.66006 0.88843 -0.04100
C 	C 	0.53295 0.69570 0.90271 0.00400
C 	C 	0.50310 0.70645 0.92994 0.02300
C 	C 	0.47532 0.68146 0.94218 0.00600
C 	C 	0.47808 0.64563 0.92848 -0.04200
C 	C 	0.45187 0.59754 0.84044 -0.05100
C 	C 	0.42124 0.57473 0.83850 -0.05500
C 	C 	0.29957 0.52586 0.89654 0.00500
C 	C 	0.42673 0.42787 0.91976 -0.05300
C 	C 	0.52154 0.43234 0.86313 0.11100
C 	C 	0.59172 0.55053 0.93292 -0.05000
C 	C 	0.58337 0.53116 0.89514 0.09500
C 	C 	0.66480 0.50124 0.88006 -0.04000
H 	H 	0.47734 0.53164 0.90340 0.09900
H 	H 	0.52110 0.47798 0.90498 0.09800
H 	H 	0.55416 0.71502 0.89251 0.07400
H 	H 	0.45180 0.68974 0.96253 0.08100
H 	H 	0.55850 0.65206 0.86723 0.06800
H 	H 	0.45691 0.62631 0.93880 0.06400
H 	H 	0.32997 0.58342 0.97668 0.07600
H 	H 	0.33541 0.49672 0.85191 0.06800
H 	H 	0.27404 0.51422 0.88330 0.07400
H 	H 	0.39139 0.56599 0.94522 0.06100
H 	H 	0.53213 0.31940 0.96928 0.07600
H 	H 	0.53334 0.38276 0.94322 0.06200
C 	C 	0.46524 0.35047 0.87447 -0.04000
H 	H 	0.44464 0.29599 0.87488 0.08100
H 	H 	0.72478 0.50784 0.87882 0.07700
H 	H 	0.66002 0.52217 0.85536 0.06900
H 	H 	0.61745 0.44164 0.94640 0.06300
H 	H 	0.68236 0.42707 0.96958 0.07800
H 	H 	0.45027 0.62657 0.83696 0.06800
H 	H 	0.39257 0.58368 0.83366 0.08000
H 	H 	0.38703 0.46622 0.94759 0.06400
H 	H 	0.43199 0.41113 0.94877 0.06500
H 	H 	0.61014 0.42861 0.84049 0.08600
H 	H 	0.55222 0.38598 0.83662 0.08400
H 	H 	0.55975 0.59459 0.96189 0.08000
H 	H 	0.60462 0.53931 0.96255 0.06700
H 	H 	0.44627 0.35910 0.84830 0.06900
Co	Co	0.41617 0.09771 0.97335 1.18400
Co	Co	0.41648 0.01439 0.97735 1.09000
O 	O 	0.41591 0.15241 0.97603 -0.30900
O 	O 	0.47163 0.13148 0.97767 -0.30000
O 	O 	0.36303 0.08337 0.96746 -0.35700
O 	O 	0.40174 0.03031 0.91636 -0.40800
C 	C 	0.34826 0.05767 0.99233 0.30800
C 	C 	0.45103 0.16000 0.97925 0.31100
O 	O 	0.36946 0.03204 0.00940 -0.39100
O 	O 	0.43402 0.08343 0.91546 -0.41800
C 	C 	0.41961 0.05585 0.89443 0.29400
O 	O 	0.42283 0.08546 0.03497 -0.40700
O 	O 	0.45587 0.03596 0.01552 -0.47800
C 	C 	0.44652 0.05984 0.04551 0.33800
S 	S 	0.43439 0.00996 0.52531 0.03200
C 	C 	0.45937 0.01530 0.57346 -0.01200
C 	C 	0.49387 0.99639 0.57218 -0.01700
S 	S 	0.49940 0.97424 0.52288 0.02200
C 	C 	0.46020 0.98244 0.49344 -0.00800
C 	C 	0.45932 0.98318 0.44477 -0.00900
S 	S 	0.48260 0.95306 0.41375 0.02600
C 	C 	0.49531 0.97541 0.36614 -0.01900
C 	C 	0.48325 0.01166 0.36641 -0.01100
S 	S 	0.46011 0.02164 0.41473 0.02800
C 	C 	0.51596 0.94226 0.23450 -0.01000
C 	C 	0.48016 0.93736 0.25303 -0.02200
C 	C 	0.47421 0.94399 0.29812 -0.04400
C 	C 	0.50382 0.95636 0.32472 0.03300
C 	C 	0.54020 0.95829 0.30704 -0.04400
C 	C 	0.54624 0.95146 0.26200 -0.01900
H 	H 	0.45665 0.93002 0.23211 0.04500
H 	H 	0.44602 0.94228 0.31155 0.05500
H 	H 	0.56328 0.96760 0.32741 0.05700
H 	H 	0.57412 0.95471 0.24810 0.05500
C 	C 	0.46946 0.04714 0.23378 -0.00800
C 	C 	0.50460 0.05052 0.25442 -0.02200
C 	C 	0.50828 0.04362 0.29996 -0.04100
C 	C 	0.47710 0.03218 0.32491 0.03200
C 	C 	0.44142 0.03198 0.30506 -0.04100
C 	C 	0.43763 0.03930 0.25963 -0.01800
H 	H 	0.52931 0.05691 0.23487 0.04700
H 	H 	0.53589 0.04423 0.31507 0.05600
H 	H 	0.41710 0.02342 0.32403 0.05900
H 	H 	0.41022 0.03744 0.24418 0.05900
C 	C 	0.42580 0.04229 0.70419 0.02800
C 	C 	0.42243 0.00659 0.68965 -0.03100
C 	C 	0.42928 0.99826 0.64522 -0.04400
C 	C 	0.44101 0.02531 0.61544 0.03100
C 	C 	0.44085 0.06142 0.62892 -0.03700
C 	C 	0.43239 0.06998 0.67302 -0.03700
H 	H 	0.41591 0.98516 0.71310 0.05300
H 	H 	0.42803 0.97043 0.63465 0.05600
H 	H 	0.44906 0.08260 0.60588 0.05800
H 	H 	0.43344 0.09781 0.68359 0.06300
C 	C 	0.53162 0.96872 0.70149 -0.01200
C 	C 	0.53903 0.00326 0.68431 -0.01800
C 	C 	0.53017 0.01154 0.64013 -0.04000
C 	C 	0.51401 0.98526 0.61285 0.02800
C 	C 	0.51051 0.94971 0.62874 -0.04300
C 	C 	0.51905 0.94154 0.67302 -0.02000
H 	H 	0.54974 0.02416 0.70581 0.05200
H 	H 	0.53347 0.03895 0.62801 0.05700
H 	H 	0.49834 0.92911 0.60789 0.05700
H 	H 	0.51373 0.91464 0.68589 0.05800
Co	Co	0.56482 0.91585 0.96459 1.18200
Co	Co	0.47932 0.93058 0.97049 1.09500
O 	O 	0.62072 0.90747 0.95611 -0.34600
O 	O 	0.60993 0.95806 0.98653 -0.27500
O 	O 	0.54003 0.87195 0.94271 -0.38500
O 	O 	0.50849 0.95394 0.01882 -0.48400
C 	C 	0.51110 0.85767 0.96350 0.32500
C 	C 	0.63523 0.93664 0.97122 0.32600
O 	O 	0.48865 0.87786 0.98743 -0.39600
O 	O 	0.55286 0.91066 0.02651 -0.42100
C 	C 	0.53062 0.93450 0.04442 0.34000
O 	O 	0.55296 0.94759 0.91560 -0.42400
O 	O 	0.49254 0.92844 0.90633 -0.41100
C 	C 	0.52402 0.94140 0.88980 0.33000
Co	Co	0.07703 0.58184 0.00897 1.18800
Co	Co	0.99328 0.56162 0.99948 1.08100
O 	O 	0.13240 0.59356 0.01695 -0.33000
O 	O 	0.12460 0.54349 0.98386 -0.28500
O 	O 	0.04900 0.62271 0.03394 -0.37000
O 	O 	0.02430 0.54253 0.94996 -0.48600
C 	C 	0.01938 0.63609 0.01358 0.33200
C 	C 	0.14853 0.56582 0.00012 0.33900
O 	O 	0.99893 0.61576 0.98738 -0.40200
O 	O 	0.06493 0.58932 0.94726 -0.42300
C 	C 	0.04570 0.56447 0.92675 0.31200
O 	O 	0.06933 0.54746 0.05656 -0.40600
O 	O 	0.00696 0.56046 0.06342 -0.42400
C 	C 	0.03763 0.54497 0.07877 0.31800
S 	S 	0.96118 0.49127 0.44560 0.02800
C 	C 	0.98350 0.48042 0.39714 -0.01700
C 	C 	0.02165 0.49106 0.39768 -0.01200
S 	S 	0.03317 0.51118 0.44694 0.02500
C 	C 	0.99344 0.51203 0.47705 -0.00800
C 	C 	0.99294 0.51108 0.52571 -0.00700
S 	S 	0.02089 0.53691 0.55715 0.02600
C 	C 	0.02801 0.51319 0.60549 -0.01400
C 	C 	0.00955 0.47946 0.60479 -0.01200
S 	S 	0.98614 0.47320 0.55566 0.02300
C 	C 	0.04857 0.54831 0.73700 0.03000
C 	C 	0.01441 0.55675 0.71618 -0.04200
C 	C 	0.00902 0.54868 0.67137 -0.03300
C 	C 	0.03742 0.53130 0.64733 0.02400
C 	C 	0.07233 0.52479 0.66745 -0.03400
C 	C 	0.07784 0.53312 0.71222 -0.04100
H 	H 	0.99164 0.56846 0.73510 0.05100
H 	H 	0.98192 0.55369 0.65615 0.05100
H 	H 	0.09440 0.51133 0.64916 0.05500
H 	H 	0.10437 0.52667 0.72801 0.06100
C 	C 	0.98418 0.44535 0.73594 -0.01100
C 	C 	0.01964 0.43789 0.71785 -0.02000
C 	C 	0.02669 0.44491 0.67290 -0.04000
C 	C 	0.99871 0.46043 0.64603 0.02900
C 	C 	0.96241 0.46508 0.66326 -0.04200
C 	C 	0.95518 0.45759 0.70806 -0.01900
H 	H 	0.04218 0.42823 0.73901 0.04800
H 	H 	0.05471 0.44089 0.65980 0.05500
H 	H 	0.94053 0.47692 0.64281 0.05700
H 	H 	0.92751 0.46278 0.72153 0.05700
C 	C 	0.94664 0.46799 0.26466 -0.00600
C 	C 	0.94382 0.50181 0.28495 -0.02300
C 	C 	0.95152 0.50530 0.33026 -0.04100
C 	C 	0.96275 0.47512 0.35540 0.03200
C 	C 	0.96208 0.44086 0.33608 -0.04200
C 	C 	0.95422 0.43730 0.29080 -0.02100
H 	H 	0.93744 0.52560 0.26524 0.05200
H 	H 	0.95167 0.53185 0.34500 0.05700
H 	H 	0.97034 0.41736 0.35535 0.05900
H 	H 	0.95564 0.41094 0.27564 0.05800
C 	C 	0.05263 0.51165 0.26518 -0.00500
C 	C 	0.05479 0.47627 0.28200 -0.02100
C 	C 	0.05060 0.46977 0.32757 -0.04000
C 	C 	0.04259 0.49838 0.35628 0.03100
C 	C 	0.04533 0.53396 0.34030 -0.04100
C 	C 	0.05049 0.54057 0.29491 -0.02000
H 	H 	0.05742 0.45371 0.25959 0.04800
H 	H 	0.04975 0.44223 0.33984 0.05800
H 	H 	0.04013 0.55637 0.36232 0.05800
H 	H 	0.05038 0.56808 0.28253 0.05900
Co	Co	0.92593 0.40850 0.00113 1.18900
Co	Co	0.93502 0.49147 0.98745 1.08100
O 	O 	0.91862 0.35420 0.00389 -0.30300
O 	O 	0.97661 0.36817 0.99913 -0.30700
O 	O 	0.87517 0.42924 0.00651 -0.35300
O 	O 	0.92073 0.48042 0.05000 -0.42300
C 	C 	0.86256 0.45350 0.97806 0.31800
C 	C 	0.95242 0.34235 0.00069 0.31700
O 	O 	0.88573 0.47613 0.95827 -0.39700
O 	O 	0.94639 0.42433 0.05723 -0.42000
C 	C 	0.93819 0.45594 0.07412 0.31700
O 	O 	0.93266 0.41591 0.93831 -0.41300
O 	O 	0.97116 0.46295 0.95207 -0.49100
C 	C 	0.95864 0.43836 0.92471 0.34100
C 	C 	0.96889 0.91668 0.10152 0.10500
N 	N 	0.95695 0.94988 0.08976 -0.17300
C 	C 	0.92140 0.95280 0.10457 0.11300
C 	C 	0.89476 0.97968 0.08617 -0.07600
C 	C 	0.90552 0.01814 0.08349 0.10100
C 	C 	0.85708 0.96835 0.07117 0.06000
C 	C 	0.85337 0.94500 0.03500 -0.05100
C 	C 	0.81774 0.93678 0.01838 0.01900
C 	C 	0.78559 0.95141 0.03827 0.01500
C 	C 	0.82491 0.98269 0.09130 -0.05100
N 	N 	0.93534 0.03169 0.10530 -0.12200
C 	C 	0.89356 0.04147 0.05029 -0.05400
C 	C 	0.94180 0.06426 0.08653 0.09600
C 	C 	0.97755 0.08394 0.09235 -0.07000
C 	C 	0.97955 0.12285 0.08122 0.05200
C 	C 	0.95462 0.18342 0.08851 0.00300
C 	C 	0.00450 0.13522 0.04836 -0.04000
C 	C 	0.00423 0.17151 0.03531 0.00400
C 	C 	0.97925 0.19573 0.05531 0.02900
N 	N 	0.02245 0.03289 0.09331 -0.17300
C 	C 	0.05868 0.02895 0.10521 0.11200
C 	C 	0.07053 0.05841 0.12955 -0.05000
C 	C 	0.04002 0.08131 0.13238 -0.05000
C 	C 	0.08444 0.00410 0.08190 -0.06700
C 	C 	0.12239 0.01628 0.06851 0.06100
C 	C 	0.19007 0.00890 0.07090 0.01900
C 	C 	0.19438 0.03862 0.04222 0.01800
C 	C 	0.16254 0.05687 0.02625 0.01000
C 	C 	0.12666 0.04580 0.03945 -0.04600
N 	N 	0.04482 0.95023 0.09649 -0.12200
C 	C 	0.05868 0.91780 0.03568 -0.05000
C 	C 	0.03664 0.92027 0.07336 0.09800
C 	C 	0.00184 0.89930 0.08054 -0.06700
C 	C 	0.00110 0.86043 0.06948 0.05600
C 	C 	0.02900 0.83727 0.08621 -0.04000
C 	C 	0.02926 0.80091 0.07443 0.00600
C 	C 	0.00168 0.78739 0.04577 0.02300
C 	C 	0.97312 0.81024 0.03007 0.00800
C 	C 	0.97313 0.84676 0.04135 -0.04200
C 	C 	0.94090 0.89823 0.12423 -0.05000
C 	C 	0.91049 0.92131 0.12609 -0.05500
C 	C 	0.78931 0.97439 0.07478 0.01100
C 	C 	0.91684 0.07104 0.05222 -0.05100
C 	C 	0.01101 0.06474 0.10967 0.11200
C 	C 	0.08199 0.94743 0.03603 -0.04900
C 	C 	0.07294 0.96641 0.07392 0.09200
C 	C 	0.15425 0.99794 0.08426 -0.05300
H 	H 	0.96796 0.96486 0.06321 0.09800
H 	H 	0.01024 0.02033 0.06589 0.10100
H 	H 	0.05101 0.78328 0.08732 0.07600
H 	H 	0.95129 0.79983 0.00863 0.08300
H 	H 	0.05050 0.84747 0.10825 0.06900
H 	H 	0.95151 0.86442 0.02820 0.06600
H 	H 	0.81511 0.91934 0.98984 0.06800
H 	H 	0.82754 0.00072 0.11928 0.07300
H 	H 	0.76463 0.98611 0.08999 0.07400
H 	H 	0.87809 0.93389 0.01920 0.06600
H 	H 	0.02306 0.18072 0.00931 0.07900
H 	H 	0.02352 0.11660 0.03232 0.06300
C 	C 	0.95493 0.14718 0.10161 -0.03900
H 	H 	0.93489 0.20184 0.10369 0.08200
H 	H 	0.21449 0.99427 0.08273 0.07200
H 	H 	0.15122 0.97512 0.10670 0.07200
H 	H 	0.10220 0.05998 0.02691 0.06400
H 	H 	0.16562 0.07953 0.00358 0.07700
H 	H 	0.93907 0.86919 0.12741 0.06800
H 	H 	0.88168 0.91264 0.13049 0.08100
H 	H 	0.87822 0.03340 0.02094 0.06800
H 	H 	0.92219 0.08916 0.02453 0.06700
H 	H 	0.09947 0.06686 0.13310 0.08700
H 	H 	0.04205 0.10999 0.13833 0.08500
H 	H 	0.05106 0.90308 0.00609 0.08200
H 	H 	0.09508 0.95903 0.00674 0.06700
H 	H 	0.93562 0.13787 0.12707 0.07000
C 	C 	0.98600 0.29768 0.04796 0.07100
C 	C 	0.96272 0.30477 0.01130 0.00000
C 	C 	0.94838 0.27583 0.98603 -0.09200
C 	C 	0.95422 0.24027 0.00103 0.02800
C 	C 	0.97639 0.23320 0.03860 0.07900
C 	C 	0.99396 0.26199 0.06116 -0.13100
C 	C 	0.01980 0.25482 0.10041 0.79200
H 	H 	0.99713 0.32004 0.06682 0.08200
H 	H 	0.94104 0.21799 0.98394 0.08100
C 	C 	0.92567 0.28276 0.94408 0.77900
F 	F 	0.03895 0.28562 0.11284 -0.42900
F 	F 	0.04618 0.22896 0.08956 -0.43300
F 	F 	0.99892 0.24276 0.13631 -0.44100
F 	F 	0.94298 0.30870 0.91785 -0.44300
F 	F 	0.89011 0.29448 0.95542 -0.41700
F 	F 	0.92222 0.25183 0.91896 -0.42800
C 	C 	0.97836 0.44329 0.78448 0.07200
C 	C 	0.96834 0.47431 0.80797 -0.09400
C 	C 	0.96364 0.47278 0.85399 0.06300
C 	C 	0.96870 0.44018 0.87723 -0.15100
C 	C 	0.98020 0.40898 0.85390 0.18300
C 	C 	0.98416 0.41070 0.80743 -0.12500
H 	H 	0.95531 0.49688 0.87156 0.00600
H 	H 	0.99236 0.38682 0.78927 0.08700
H 	H 	0.96455 0.49975 0.79056 0.06100
N 	N 	0.98866 0.37785 0.87592 -0.20400
H 	H 	0.99026 0.37685 0.91053 0.13900
H 	H 	0.99557 0.35459 0.85833 0.14000
C 	C 	0.94486 0.46518 0.21578 0.06300
C 	C 	0.91289 0.47699 0.19277 -0.07200
C 	C 	0.91147 0.47504 0.14648 0.05300
C 	C 	0.94207 0.46135 0.12246 -0.12700
C 	C 	0.97514 0.45081 0.14545 0.15500
C 	C 	0.97581 0.45194 0.19211 -0.11800
H 	H 	0.88614 0.48340 0.12929 0.09000
H 	H 	0.00086 0.44359 0.20988 0.07200
H 	H 	0.88894 0.48736 0.21083 0.08000
N 	N 	0.00658 0.44085 0.12301 -0.20300
H 	H 	0.00920 0.44533 0.08885 0.09600
H 	H 	0.02987 0.43073 0.14020 0.10900
C 	C 	0.98489 0.72376 0.06229 -0.00000
C 	C 	0.00200 0.74885 0.03365 0.09700
C 	C 	0.02180 0.73680 0.99572 -0.14300
C 	C 	0.02586 0.69952 0.98878 0.07100
C 	C 	0.01019 0.67448 0.01857 -0.01200
C 	C 	0.98839 0.68651 0.05483 -0.06900
C 	C 	0.97035 0.65965 0.08670 0.77300
H 	H 	0.96976 0.73337 0.09111 0.09300
H 	H 	0.04214 0.68984 0.96088 0.07600
C 	C 	0.03953 0.76359 0.96350 0.79300
F 	F 	0.94657 0.67641 0.11650 -0.43200
F 	F 	0.99800 0.64179 0.11051 -0.44200
F 	F 	0.94947 0.63477 0.06323 -0.45800
F 	F 	0.06718 0.78299 0.98498 -0.44100
F 	F 	0.01250 0.78711 0.94747 -0.44400
F 	F 	0.05573 0.74659 0.92747 -0.43200
C 	C 	0.04908 0.56041 0.87827 -0.05900
C 	C 	0.04801 0.52606 0.85925 -0.00400
C 	C 	0.05011 0.52227 0.81320 -0.02700
C 	C 	0.05258 0.55278 0.78546 -0.03200
C 	C 	0.05545 0.58748 0.80453 0.09900
C 	C 	0.05333 0.59099 0.85094 -0.04300
H 	H 	0.04879 0.49558 0.79889 0.04600
H 	H 	0.05468 0.61754 0.86568 0.07700
H 	H 	0.04541 0.50225 0.88014 0.05200
N 	N 	0.06071 0.61731 0.77863 -0.19600
H 	H 	0.06495 0.61536 0.74440 0.11000
H 	H 	0.06178 0.64289 0.79290 0.11900
C 	C 	0.04774 0.51812 0.21691 0.06400
C 	C 	0.01711 0.53844 0.20148 -0.07500
C 	C 	0.01257 0.54523 0.15614 0.05500
C 	C 	0.03823 0.53123 0.12526 -0.12900
C 	C 	0.06679 0.50735 0.14036 0.17000
C 	C 	0.07258 0.50267 0.18628 -0.11800
H 	H 	0.98966 0.56232 0.14514 0.07600
H 	H 	0.09555 0.48593 0.19805 0.08700
H 	H 	0.99700 0.54939 0.22476 0.06700
N 	N 	0.08670 0.48704 0.11124 -0.20200
H 	H 	0.07757 0.48364 0.07857 0.12300
H 	H 	0.10951 0.47162 0.12225 0.14100
C 	C 	0.68761 0.91475 0.01840 0.09100
C 	C 	0.67467 0.93865 0.98544 -0.02700
C 	C 	0.69915 0.96492 0.96726 -0.06200
C 	C 	0.73555 0.96841 0.98483 -0.01200
C 	C 	0.74821 0.94513 0.01859 0.10200
C 	C 	0.72453 0.91729 0.03473 -0.14200
C 	C 	0.73817 0.89110 0.07033 0.79400
H 	H 	0.66858 0.89465 0.03185 0.08100
H 	H 	0.75398 0.98960 0.97281 0.09200
C 	C 	0.68610 0.98990 0.93010 0.76500
F 	F 	0.71239 0.86386 0.07834 -0.42500
F 	F 	0.74404 0.90936 0.10961 -0.44200
F 	F 	0.77145 0.87523 0.05711 -0.43700
F 	F 	0.65948 0.01352 0.94635 -0.42400
F 	F 	0.67046 0.97004 0.89605 -0.43400
F 	F 	0.71551 0.00984 0.91248 -0.42500
C 	C 	0.53101 0.96271 0.74988 0.07300
C 	C 	0.50051 0.97505 0.77480 -0.08500
C 	C 	0.49881 0.96846 0.82042 0.06300
C 	C 	0.52696 0.94820 0.84161 -0.12400
C 	C 	0.55714 0.93411 0.81613 0.18700
C 	C 	0.55948 0.94265 0.77057 -0.11900
H 	H 	0.47535 0.97887 0.83936 0.02300
H 	H 	0.58266 0.93245 0.75095 0.08700
H 	H 	0.47774 0.98921 0.75858 0.06100
N 	N 	0.58266 0.91109 0.83451 -0.20000
H 	H 	0.57849 0.89958 0.86587 0.12700
H 	H 	0.60590 0.90259 0.81614 0.12900
C 	C 	0.52115 0.94031 0.18601 0.06600
C 	C 	0.51488 0.90782 0.16389 -0.08400
C 	C 	0.51840 0.90620 0.11777 0.05800
C 	C 	0.52801 0.93711 0.09307 -0.14800
C 	C 	0.53493 0.97004 0.11531 0.16200
C 	C 	0.53135 0.97127 0.16179 -0.12500
H 	H 	0.51321 0.88091 0.10106 0.04600
H 	H 	0.53630 0.99637 0.17907 0.06900
H 	H 	0.50711 0.88379 0.18246 0.07600
N 	N 	0.54555 0.00022 0.09253 -0.20500
H 	H 	0.55173 0.99955 0.05865 0.12000
H 	H 	0.54877 0.02471 0.10905 0.10700
C 	C 	0.29488 0.07191 0.04174 0.07400
C 	C 	0.30773 0.05771 0.00150 0.00300
C 	C 	0.28216 0.04121 0.97198 -0.08000
C 	C 	0.24460 0.03642 0.98528 -0.00300
C 	C 	0.23217 0.04904 0.02652 0.09600
C 	C 	0.25686 0.06892 0.05389 -0.13400
C 	C 	0.24324 0.08537 0.09703 0.79100
H 	H 	0.31474 0.08460 0.06398 0.08600
H 	H 	0.22519 0.02191 0.96423 0.09100
C 	C 	0.29516 0.02780 0.92699 0.77600
F 	F 	0.26877 0.11011 0.11335 -0.42000
F 	F 	0.23827 0.05847 0.12858 -0.44200
F 	F 	0.20954 0.10318 0.09036 -0.43100
F 	F 	0.32092 0.00025 0.93279 -0.46600
F 	F 	0.31179 0.05572 0.90344 -0.44100
F 	F 	0.26560 0.01484 0.90185 -0.43500
C 	C 	0.42073 0.05510 0.84556 -0.03700
C 	C 	0.38882 0.04500 0.82145 -0.00500
C 	C 	0.39017 0.04311 0.77516 -0.01300
C 	C 	0.42376 0.05027 0.75229 -0.03100
C 	C 	0.45609 0.06114 0.77655 0.09700
C 	C 	0.45391 0.06411 0.82302 -0.05200
H 	H 	0.36533 0.03493 0.75703 0.06500
H 	H 	0.47854 0.07205 0.84176 0.07100
H 	H 	0.36292 0.03846 0.83860 0.11000
N 	N 	0.48952 0.06725 0.75585 -0.19700
H 	H 	0.49311 0.06274 0.72199 0.09800
H 	H 	0.51292 0.07551 0.77409 0.11300
C 	C 	0.46633 0.04972 0.18492 0.06800
C 	C 	0.45286 0.02034 0.16062 -0.08600
C 	C 	0.44912 0.02291 0.11450 0.06100
C 	C 	0.45841 0.05502 0.09209 -0.14800
C 	C 	0.47434 0.08396 0.11613 0.18100
C 	C 	0.47737 0.08132 0.16262 -0.12400
H 	H 	0.43768 0.00033 0.09632 0.01100
H 	H 	0.48859 0.10374 0.18133 0.08800
H 	H 	0.44521 0.99549 0.17753 0.05700
N 	N 	0.48772 0.11373 0.09473 -0.20500
H 	H 	0.49014 0.11458 0.06019 0.13800
H 	H 	0.49778 0.13567 0.11276 0.14200
C 	C 	0.48918 0.20153 0.93261 0.07600
C 	C 	0.46588 0.19629 0.96970 -0.01100
C 	C 	0.45521 0.22614 0.99583 -0.07800
C 	C 	0.46364 0.26114 0.98063 0.00700
C 	C 	0.48509 0.26649 0.94206 0.08600
C 	C 	0.50018 0.23645 0.91948 -0.13400
C 	C 	0.52625 0.24156 0.88001 0.79100
H 	H 	0.49774 0.17846 0.91319 0.08200
H 	H 	0.45266 0.28434 0.99805 0.08900
C 	C 	0.43343 0.22089 0.03878 0.78100
F 	F 	0.54478 0.20987 0.86980 -0.42700
F 	F 	0.55316 0.26735 0.88923 -0.43300
F 	F 	0.50569 0.25244 0.84330 -0.44100
F 	F 	0.44842 0.19269 0.06342 -0.43800
F 	F 	0.39628 0.21343 0.02910 -0.41400
F 	F 	0.43475 0.25150 0.06477 -0.42500
C 	C 	0.24979 0.53691 0.98915 -0.02300
C 	C 	0.26139 0.55825 0.95300 0.09800
C 	C 	0.23723 0.58525 0.93569 -0.14300
C 	C 	0.20049 0.58810 0.95256 0.08800
C 	C 	0.18837 0.56559 0.98737 -0.03700
C 	C 	0.21368 0.54096 0.00735 -0.04300
C 	C 	0.20161 0.51779 0.04668 0.76400
H 	H 	0.26865 0.51651 0.00228 0.10200
H 	H 	0.18085 0.60703 0.93777 0.07700
C 	C 	0.24993 0.60983 0.89796 0.79400
F 	F 	0.23189 0.50046 0.06631 -0.42800
F 	F 	0.17634 0.49198 0.03259 -0.43300
F 	F 	0.18471 0.53896 0.07862 -0.43000
F 	F 	0.25352 0.59007 0.85943 -0.44400
F 	F 	0.28417 0.62531 0.90820 -0.43800
F 	F 	0.22454 0.63745 0.89019 -0.42800
C 	C 	0.75916 0.47731 0.97938 0.00500
C 	C 	0.74657 0.45933 0.94137 0.08500
C 	C 	0.77152 0.43704 0.91737 -0.13200
C 	C 	0.80957 0.43570 0.92988 0.07500
C 	C 	0.82237 0.45453 0.96710 -0.01200
C 	C 	0.79691 0.47485 0.99286 -0.07800
C 	C 	0.81017 0.49441 0.03416 0.78000
H 	H 	0.73960 0.49386 0.99778 0.09000
H 	H 	0.82943 0.42028 0.91045 0.08600
C 	C 	0.75799 0.41583 0.87748 0.79100
F 	F 	0.78104 0.51207 0.05531 -0.42900
F 	F 	0.83708 0.51971 0.02259 -0.45700
F 	F 	0.82557 0.46994 0.06394 -0.43600
F 	F 	0.75037 0.43925 0.84263 -0.44100
F 	F 	0.72576 0.39684 0.88819 -0.43100
F 	F 	0.78468 0.39125 0.86350 -0.41900
C 	C 	0.51915 0.79474 0.98929 0.07000
C 	C 	0.50325 0.81905 0.95879 -0.01900
C 	C 	0.48300 0.80609 0.92176 -0.07100
C 	C 	0.48188 0.76879 0.91397 0.00200
C 	C 	0.49969 0.74454 0.94307 0.08900
C 	C 	0.51720 0.75735 0.98213 -0.14100
C 	C 	0.53521 0.73134 0.01506 0.80200
H 	H 	0.53417 0.80510 0.01778 0.08300
H 	H 	0.46835 0.75857 0.88437 0.09200
C 	C 	0.46454 0.83208 0.88916 0.77400
F 	F 	0.54749 0.74875 0.05291 -0.42700
F 	F 	0.56575 0.71476 0.99551 -0.44200
F 	F 	0.50950 0.70535 0.02801 -0.43800
F 	F 	0.49193 0.85047 0.86553 -0.44500
F 	F 	0.44252 0.85657 0.91178 -0.46500
F 	F 	0.44170 0.81428 0.85925 -0.43400
