data_crystal

_cell_length_a 12.78074
_cell_length_b 8.93431
_cell_length_c 29.82932
_cell_angle_alpha 91.08758
_cell_angle_beta  91.01860
_cell_angle_gamma 111.48305

_symmetry_space_group_name_	'P 1'
_symmetry_space_group_name_H-M	'P 1'

loop_
_symmetry_equiv_pos_as_xyz
  x,y,z

loop_
_atom_site_label
_atom_site_type_symbol
_atom_site_fract_x
_atom_site_fract_y
_atom_site_fract_z
_atom_site_charge
O 	O 	0.43118 0.40550 0.93434 -0.38000
O 	O 	0.46251 0.25075 0.85283 -0.36800
O 	O 	0.46713 0.10291 0.93933 -0.40200
O 	O 	0.49415 0.02155 0.83437 -0.38600
C 	C 	0.46085 0.52514 0.96384 0.28300
C 	C 	0.42675 0.10373 0.83591 0.23400
C 	C 	0.52403 0.01353 0.95216 0.36900
O 	O 	0.55626 0.53692 0.60356 -0.37000
O 	O 	0.45312 0.17669 0.58940 -0.36600
O 	O 	0.36876 0.07678 0.66083 -0.42400
O 	O 	0.43881 0.34129 0.67608 -0.35300
O 	O 	0.48646 0.94394 0.60478 -0.45400
C 	C 	0.46228 0.03864 0.57585 0.33700
C 	C 	0.36197 0.19931 0.68317 0.19900
O 	O 	0.10915 0.86833 0.75502 -0.77000
Ni	Ni	0.10834 0.06929 0.77695 1.11500
O 	O 	0.10114 0.66444 0.67645 -0.36700
Ni	Ni	0.21858 0.85529 0.71733 1.05000
O 	O 	0.17929 0.03015 0.68645 -0.38400
O 	O 	0.23630 0.08751 0.82084 -0.32400
O 	O 	0.98825 0.04412 0.72535 -0.50600
O 	O 	0.03722 0.19367 0.81434 -0.60500
H 	H 	0.10490 0.79874 0.78091 0.15200
H 	H 	0.01954 0.08517 0.69613 0.13100
C 	C 	0.24735 0.17476 0.69749 0.20200
C 	C 	0.32381 0.05009 0.80688 0.18600
O 	O 	0.22939 0.23274 0.73676 -0.33400
O 	O 	0.33532 0.01627 0.76299 -0.38100
Ni	Ni	0.43768 0.74074 0.41479 1.09800
O 	O 	0.34499 0.52011 0.38723 -0.69900
Ni	Ni	0.20048 0.54689 0.37142 1.09700
O 	O 	0.56087 0.66750 0.43898 -0.37600
O 	O 	0.43020 0.46455 0.47562 -0.39900
O 	O 	0.51612 0.79252 0.35484 -0.36200
Ni	Ni	0.32225 0.33150 0.42353 1.07500
O 	O 	0.41040 0.10717 0.41759 -0.47700
O 	O 	0.18822 0.31404 0.46300 -0.38600
O 	O 	0.11657 0.31714 0.34750 -0.27100
O 	O 	0.29376 0.76806 0.39961 -0.70300
O 	O 	0.52378 0.96912 0.43783 -0.41200
O 	O 	0.07819 0.62948 0.34607 -0.38800
O 	O 	0.22922 0.81337 0.31264 -0.47100
Ni	Ni	0.32640 0.96167 0.36433 1.05000
H 	H 	0.37917 0.50418 0.35889 0.14400
H 	H 	0.25949 0.78372 0.42797 0.14400
C 	C 	0.10246 0.35195 0.45006 0.26900
O 	O 	0.47363 0.00470 0.33055 -0.36000
C 	C 	0.53610 0.55838 0.46985 0.27400
C 	C 	0.16894 0.21379 0.34216 -0.22400
C 	C 	0.54710 0.93451 0.33687 0.20500
C 	C 	0.11500 0.74903 0.31615 0.37100
C 	C 	0.46758 0.06157 0.44859 0.31300
O 	O 	0.11993 0.48915 0.43063 -0.39900
O 	O 	0.21846 0.17200 0.37676 -0.35600
Ni	Ni	0.39851 0.68039 0.13332 1.09500
O 	O 	0.26573 0.68884 0.09425 -0.69200
Ni	Ni	0.22845 0.85976 0.12708 1.09200
O 	O 	0.41553 0.49813 0.09514 -0.36800
O 	O 	0.22855 0.35063 0.08956 -0.39900
O 	O 	0.49446 0.85058 0.08903 -0.34300
Ni	Ni	0.13269 0.49395 0.08596 1.06800
O 	O 	0.11141 0.48634 0.15290 -0.38900
O 	O 	0.11199 0.87413 0.08114 -0.37900
O 	O 	0.34709 0.83087 0.17075 -0.71200
O 	O 	0.53966 0.69083 0.17139 -0.35400
O 	O 	0.23788 0.07658 0.15540 -0.63500
O 	O 	0.39348 0.15977 0.20899 -0.80600
Ni	Ni	0.47931 0.03362 0.17759 1.07600
H 	H 	0.28936 0.72789 0.06393 0.14400
H 	H 	0.31663 0.78457 0.19979 0.14200
C 	C 	0.05915 0.57101 0.17214 0.17100
O 	O 	0.45492 0.07373 0.11159 -0.38000
C 	C 	0.32867 0.39897 0.07199 0.29400
C 	C 	0.04056 0.74299 0.06086 0.23600
C 	C 	0.47493 0.98337 0.07929 0.18000
C 	C 	0.27523 0.11219 0.20347 2.05700
O 	O 	0.09714 0.72964 0.16831 -0.41800
O 	O 	0.01767 0.60112 0.07894 -0.41400
O 	O 	0.02649 0.45564 0.24218 -0.37600
O 	O 	0.14757 0.20164 0.26758 -1.51700
O 	O 	0.22276 0.09324 0.22222 -2.27100
O 	O 	0.16642 0.29470 0.22278 -0.59600
O 	O 	0.05712 0.76115 0.28444 -0.77900
Ni	Ni	0.11378 0.90212 0.24030 1.19900
O 	O 	0.09635 0.98700 0.29983 -1.72000
C 	C 	0.14564 0.11680 0.30037 1.40800
C 	C 	0.04703 0.88231 0.30821 1.45500
C 	C 	0.20385 0.19588 0.24442 1.84300
C 	C 	0.45076 0.99326 0.52774 -0.17400
C 	C 	0.46041 0.10262 0.49611 -0.08000
H 	H 	0.46234 0.22128 0.50539 0.06000
C 	C 	0.99253 0.27128 0.47030 -0.06100
H 	H 	0.05444 0.21043 0.53067 0.04600
H 	H 	0.60913 0.78789 0.53382 0.06700
C 	C 	0.52045 0.96433 0.99954 -0.21300
C 	C 	0.48143 0.03592 0.03214 0.01200
H 	H 	0.55689 0.87635 0.00835 0.09600
H 	H 	0.45418 0.13410 0.02406 0.03800
C 	C 	0.33789 0.38680 0.02333 -0.12500
C 	C 	0.38505 0.52142 0.00025 -0.09200
H 	H 	0.32357 0.26990 0.00773 0.07500
H 	H 	0.38971 0.63540 0.01498 0.04500
Ni	Ni	0.48674 0.98555 0.67212 1.05200
H 	H 	0.44306 0.87179 0.51790 0.05900
O 	O 	0.58035 0.96034 0.92263 -0.52200
C 	C 	0.64605 0.64116 0.58565 0.28800
O 	O 	0.59837 0.95387 0.15915 -0.44200
C 	C 	0.98452 0.22864 0.51351 -0.04400
C 	C 	0.61832 0.57464 0.50623 -0.07800
C 	C 	0.63330 0.68500 0.53937 -0.12300
H 	H 	0.64625 0.47505 0.51138 0.00400
H 	H 	0.98336 0.87775 0.01061 0.06500
Ni	Ni	0.54982 0.32118 0.91246 1.09900
O 	O 	0.63753 0.52990 0.88167 -0.70300
Ni	Ni	0.77836 0.49561 0.86601 1.09800
O 	O 	0.56761 0.62036 0.96872 -0.40600
Ni	Ni	0.66696 0.73129 0.91512 1.06900
O 	O 	0.80912 0.75634 0.95216 -0.39100
O 	O 	0.85717 0.71464 0.83842 -0.26200
O 	O 	0.69078 0.28741 0.89781 -0.70200
O 	O 	0.89386 0.40089 0.84113 -0.34800
O 	O 	0.73731 0.20237 0.81080 -0.44100
Ni	Ni	0.65027 0.08034 0.86591 1.07000
H 	H 	0.59823 0.53564 0.85324 0.14300
H 	H 	0.73023 0.28279 0.92631 0.15200
C 	C 	0.84705 0.63977 0.95782 0.29200
C 	C 	0.80453 0.81738 0.83243 -0.18400
C 	C 	0.85130 0.27199 0.81261 0.30300
O 	O 	0.87565 0.57268 0.92305 -0.38000
O 	O 	0.76316 0.87213 0.86686 -0.37900
Ni	Ni	0.56731 0.33948 0.63419 1.09800
O 	O 	0.68439 0.31651 0.59077 -0.69400
Ni	Ni	0.73447 0.15417 0.61908 1.10700
O 	O 	0.74604 0.64724 0.59963 -0.40400
Ni	Ni	0.80836 0.49252 0.56756 1.08000
O 	O 	0.93880 0.50475 0.61120 -0.37400
O 	O 	0.85535 0.14364 0.57481 -0.34400
O 	O 	0.62115 0.18083 0.66514 -0.69200
O 	O 	0.73884 0.94805 0.64687 -0.75000
O 	O 	0.57346 0.84357 0.69241 -0.89900
H 	H 	0.64501 0.26447 0.56269 0.15500
H 	H 	0.65718 0.22547 0.69459 0.12900
C 	C 	0.92946 0.44928 0.65219 0.27600
C 	C 	0.89112 0.23857 0.54009 0.29100
C 	C 	0.69380 0.90292 0.69263 2.53900
O 	O 	0.86055 0.30213 0.66130 -0.42600
O 	O 	0.83932 0.33320 0.52645 -0.40800
Ni	Ni	0.95755 0.80160 0.72808 1.17000
O 	O 	0.95121 0.57565 0.72342 -0.29800
O 	O 	0.82548 0.81937 0.75806 -1.55400
O 	O 	0.74069 0.91798 0.71361 -2.75800
O 	O 	0.80512 0.72635 0.71239 -0.65600
O 	O 	0.90689 0.26186 0.77819 -0.71300
Ni	Ni	0.84872 0.11533 0.73298 1.22400
O 	O 	0.87362 0.03850 0.79172 -1.58500
C 	C 	0.00263 0.55104 0.68814 0.08800
C 	C 	0.82660 0.90810 0.79123 1.27900
C 	C 	0.92157 0.14470 0.80162 1.43300
C 	C 	0.76551 0.82207 0.73471 2.09300
C 	C 	0.61322 0.83625 0.17958 0.20900
Ni	Ni	0.01581 0.22783 0.23764 1.15400
O 	O 	0.86683 0.16884 0.26384 -0.72100
Ni	Ni	0.86328 0.96566 0.28278 1.11400
O 	O 	0.87521 0.39459 0.19331 -0.37200
Ni	Ni	0.75661 0.19269 0.22702 1.06600
O 	O 	0.79232 0.02053 0.19153 -0.36100
O 	O 	0.73776 0.95137 0.32529 -0.32900
O 	O 	0.97933 0.98408 0.23248 -0.55300
O 	O 	0.93215 0.83768 0.31932 -0.56800
H 	H 	0.87550 0.23824 0.29102 0.17400
H 	H 	0.94580 0.94357 0.20256 0.16600
C 	C 	0.72655 0.87235 0.19871 0.16600
C 	C 	0.97985 0.49320 0.20711 0.25100
C 	C 	0.65019 0.98803 0.31035 0.15900
O 	O 	0.74245 0.81042 0.23744 -0.32600
O 	O 	0.63975 0.02373 0.26685 -0.36600
H 	H 	0.91860 0.27512 0.45251 0.08000
C 	C 	0.89678 0.62736 0.00156 -0.11100
C 	C 	0.96970 0.75872 0.02313 -0.04000
H 	H 	0.88533 0.50813 0.01328 0.06500
