data_crystal

_cell_length_a 20.42054
_cell_length_b 20.48826
_cell_length_c 26.83730
_cell_angle_alpha 95.45534
_cell_angle_beta  95.45714
_cell_angle_gamma 126.14154

_symmetry_space_group_name_	'P 1'
_symmetry_space_group_name_H-M	'P 1'

loop_
_symmetry_equiv_pos_as_xyz
  x,y,z

loop_
_atom_site_label
_atom_site_type_symbol
_atom_site_fract_x
_atom_site_fract_y
_atom_site_fract_z
_atom_site_charge
C 	C 	0.96469 0.05404 0.00147 0.05500
C 	C 	0.08434 0.05636 0.99575 0.04300
C 	C 	0.99521 0.03662 0.45654 -0.06800
C 	C 	0.86868 0.02698 0.44458 -0.01500
C 	C 	0.12368 0.04963 0.46846 -0.01100
C 	C 	0.84040 0.06488 0.44395 -0.02800
C 	C 	0.03530 0.00029 0.46158 0.03200
C 	C 	0.92623 0.09472 0.00323 -0.01400
C 	C 	0.04947 0.09837 0.00026 -0.08200
H 	H 	0.03119 0.10285 0.45986 0.05000
S 	S 	0.53707 0.12504 0.14196 -0.02800
H 	H 	0.57114 0.08587 0.13033 0.04400
C 	C 	0.81108 0.11285 0.44554 0.05900
C 	C 	0.28310 0.13259 0.47599 0.06300
C 	C 	0.19738 0.08853 0.47290 -0.02900
C 	C 	0.88920 0.12381 0.00341 -0.02900
C 	C 	0.17087 0.09958 0.99459 -0.01800
C 	C 	0.24209 0.12927 0.99338 -0.02600
C 	C 	0.84243 0.15426 0.00160 0.07200
C 	C 	0.78737 0.15476 0.44947 -0.11900
C 	C 	0.32450 0.15991 0.99201 0.05700
H 	H 	0.56718 0.15955 0.25084 0.04600
C 	C 	0.90870 0.98765 0.44729 0.04000
C 	C 	0.03474 0.97106 0.99228 -0.08800
C 	C 	0.95076 0.92726 0.99338 0.05400
C 	C 	0.91573 0.96855 0.99820 -0.09100
H 	H 	0.08760 0.16448 0.00249 0.05700
H 	H 	0.06164 0.93868 0.98870 0.05700
H 	H 	0.85032 0.93419 0.99888 0.05800
C 	C 	0.86221 0.90153 0.44276 -0.07500
C 	C 	0.90313 0.86545 0.44760 0.04000
C 	C 	0.98936 0.91514 0.45719 -0.06700
H 	H 	0.79532 0.86329 0.43579 0.05500
H 	H 	0.02081 0.88729 0.46081 0.05100
Cu	Cu	0.63221 0.23413 0.00895 0.92800
Cu	Cu	0.69195 0.22920 0.90042 0.87300
Cu	Cu	0.67217 0.35759 0.93842 0.89700
Cu	Cu	0.63504 0.38708 0.04021 0.89800
C 	C 	0.65502 0.29719 0.11516 0.29000
O 	O 	0.51167 0.18623 0.00956 -0.35600
C 	C 	0.65750 0.30159 0.82885 0.28500
O 	O 	0.69845 0.36119 0.01001 -0.63500
O 	O 	0.61777 0.23744 0.93536 -0.64000
O 	O 	0.68558 0.17748 0.00753 -0.36700
O 	O 	0.77250 0.25952 0.95754 -0.44300
O 	O 	0.62182 0.33329 0.10090 -0.38000
O 	O 	0.73169 0.47548 0.94612 -0.38100
C 	C 	0.73157 0.52248 0.98332 0.30700
C 	C 	0.47998 0.22117 0.99090 0.29800
O 	O 	0.52902 0.29589 0.98208 -0.39700
O 	O 	0.67934 0.49118 0.01498 -0.38800
O 	O 	0.66376 0.25255 0.08154 -0.35900
C 	C 	0.75429 0.20965 0.98972 0.30900
O 	O 	0.66161 0.35492 0.86367 -0.37200
O 	O 	0.63987 0.23198 0.83909 -0.41300
H 	H 	0.75818 0.39769 0.02484 0.16700
H 	H 	0.55986 0.20147 0.91677 0.17500
Cu	Cu	0.72351 0.31699 0.43237 0.92500
Cu	Cu	0.75509 0.28435 0.54672 0.87300
Cu	Cu	0.61014 0.28121 0.51048 0.89800
Cu	Cu	0.55996 0.30080 0.40456 0.89800
C 	C 	0.65320 0.29056 0.32749 0.28800
O 	O 	0.76936 0.43461 0.42522 -0.36700
C 	C 	0.69163 0.32937 0.61976 0.28200
O 	O 	0.59797 0.24975 0.43845 -0.63500
O 	O 	0.73002 0.34255 0.50660 -0.64000
O 	O 	0.78203 0.26495 0.43361 -0.36900
O 	O 	0.71787 0.19380 0.49501 -0.44100
O 	O 	0.58563 0.28057 0.33716 -0.38100
O 	O 	0.49202 0.21693 0.50806 -0.37800
C 	C 	0.44150 0.21687 0.47346 0.31000
C 	C 	0.73074 0.46559 0.43720 0.30600
O 	O 	0.65894 0.41938 0.45057 -0.39000
O 	O 	0.46980 0.27048 0.44273 -0.39400
O 	O 	0.69626 0.27846 0.36007 -0.36000
C 	C 	0.75878 0.20393 0.45810 0.30800
O 	O 	0.62215 0.29235 0.58606 -0.37700
O 	O 	0.75953 0.34807 0.60504 -0.41600
H 	H 	0.56397 0.18949 0.42649 0.16600
H 	H 	0.76284 0.40208 0.52079 0.17500
C 	C 	0.67370 0.32043 0.77769 -0.08100
C 	C 	0.62536 0.33502 0.74728 -0.01900
C 	C 	0.63389 0.34336 0.69643 0.03500
C 	C 	0.68917 0.33362 0.67513 -0.07500
C 	C 	0.74072 0.32398 0.70677 -0.03000
C 	C 	0.73431 0.31887 0.75783 0.04200
S 	S 	0.58028 0.37237 0.66165 -0.03000
S 	S 	0.80450 0.31321 0.79699 -0.09900
H 	H 	0.87205 0.39112 0.81953 0.03600
H 	H 	0.62810 0.45648 0.66865 0.03600
H 	H 	0.58081 0.33938 0.76301 0.04700
H 	H 	0.78517 0.31906 0.69141 0.03700
C 	C 	0.66501 0.29165 0.16941 -0.07200
C 	C 	0.72249 0.36384 0.20555 -0.02200
C 	C 	0.72257 0.36328 0.25775 0.03300
C 	C 	0.66493 0.28966 0.27418 -0.06900
C 	C 	0.61098 0.21646 0.23825 -0.02000
C 	C 	0.61015 0.21707 0.18604 0.03900
S 	S 	0.79319 0.45567 0.30198 -0.04000
H 	H 	0.86309 0.46242 0.31775 0.04300
H 	H 	0.76523 0.42110 0.19296 0.03600
C 	C 	0.85793 0.77756 0.44315 -0.01300
C 	C 	0.82719 0.70543 0.44052 -0.02700
C 	C 	0.79544 0.62213 0.43851 0.06000
C 	C 	0.76800 0.55112 0.43757 -0.11500
C 	C 	0.35587 0.17040 0.47631 -0.11300
C 	C 	0.90082 0.83974 0.98977 -0.01900
C 	C 	0.86103 0.76658 0.98703 -0.02400
C 	C 	0.81599 0.68129 0.98453 0.06000
C 	C 	0.77775 0.60859 0.98333 -0.11200
C 	C 	0.80168 0.17920 0.99777 -0.13300
C 	C 	0.39496 0.18614 0.99117 -0.11300
