data_crystal

_cell_length_a 26.04348
_cell_length_b 26.35959
_cell_length_c 26.57229
_cell_angle_alpha 95.48368
_cell_angle_beta  95.48268
_cell_angle_gamma 125.82536

_symmetry_space_group_name_	'P 1'
_symmetry_space_group_name_H-M	'P 1'

loop_
_symmetry_equiv_pos_as_xyz
  x,y,z

loop_
_atom_site_label
_atom_site_type_symbol
_atom_site_fract_x
_atom_site_fract_y
_atom_site_fract_z
_atom_site_charge
C 	C 	0.98726 0.04614 0.02060 0.00200
C 	C 	0.95144 0.97976 0.01522 0.05300
C 	C 	0.98156 0.95024 0.00850 0.02900
C 	C 	0.04707 0.98696 0.00525 0.06200
C 	C 	0.08285 0.05322 0.00990 0.01700
C 	C 	0.05283 0.08271 0.01742 0.03800
H 	H 	0.90023 0.95114 0.01575 0.12700
H 	H 	0.06987 0.96394 0.99831 0.13100
H 	H 	0.08020 0.13383 0.02016 0.11500
C 	C 	0.92341 0.98831 0.42702 0.23500
C 	C 	0.88356 0.92190 0.42308 -0.08600
C 	C 	0.91094 0.88974 0.42966 0.15200
C 	C 	0.97813 0.92382 0.43826 -0.11800
C 	C 	0.01785 0.98965 0.43952 0.27200
C 	C 	0.99055 0.02205 0.43509 -0.21800
H 	H 	0.83158 0.89552 0.41580 0.16900
H 	H 	0.99942 0.89919 0.44391 0.15600
H 	H 	0.02142 0.07333 0.43787 0.18300
Cu	Cu	0.64652 0.24882 0.00303 0.94400
Cu	Cu	0.70498 0.24436 0.90013 0.90900
Cu	Cu	0.70094 0.35186 0.93752 0.92000
Cu	Cu	0.66233 0.37584 0.03493 0.92200
C 	C 	0.65746 0.29516 0.10852 0.30700
O 	O 	0.55521 0.22259 0.99571 -0.27900
C 	C 	0.68267 0.30516 0.82678 0.30900
O 	O 	0.70885 0.34832 0.00949 -0.63700
O 	O 	0.64801 0.25738 0.93029 -0.63100
O 	O 	0.67657 0.19473 0.00387 -0.31700
O 	O 	0.75780 0.25585 0.96122 -0.34400
O 	O 	0.63588 0.32624 0.09186 -0.33500
O 	O 	0.75450 0.44384 0.94916 -0.32500
C 	C 	0.74333 0.47957 0.97690 0.32100
C 	C 	0.53877 0.25533 0.97419 0.29300
O 	O 	0.58382 0.31428 0.96998 -0.32700
O 	O 	0.71678 0.46296 0.01813 -0.30600
O 	O 	0.66027 0.25600 0.07617 -0.30400
C 	C 	0.73335 0.21590 0.99314 0.32000
O 	O 	0.70774 0.35456 0.86443 -0.33200
O 	O 	0.67406 0.25245 0.83551 -0.35000
H 	H 	0.75374 0.37145 0.02812 0.22300
H 	H 	0.60517 0.23493 0.90806 0.24100
Cu	Cu	0.72494 0.33134 0.43120 0.94500
Cu	Cu	0.74147 0.28705 0.53938 0.91300
Cu	Cu	0.62690 0.28240 0.50234 0.91600
Cu	Cu	0.59349 0.31120 0.40337 0.91900
C 	C 	0.66891 0.31038 0.32589 0.30400
O 	O 	0.74930 0.42042 0.43360 -0.28000
C 	C 	0.68100 0.30935 0.61323 0.30900
O 	O 	0.62532 0.26903 0.42993 -0.63700
O 	O 	0.72216 0.33701 0.50540 -0.63100
O 	O 	0.78106 0.30298 0.42978 -0.26900
O 	O 	0.72703 0.23045 0.48068 -0.38600
O 	O 	0.63738 0.33162 0.34264 -0.34000
O 	O 	0.53420 0.22591 0.49434 -0.32800
C 	C 	0.49399 0.23215 0.46664 0.31300
C 	C 	0.71712 0.43771 0.45539 0.29300
O 	O 	0.65934 0.39388 0.46368 -0.32800
O 	O 	0.50866 0.26091 0.42644 -0.30700
O 	O 	0.71156 0.31111 0.35782 -0.31400
C 	C 	0.76546 0.25150 0.44710 0.29900
O 	O 	0.62926 0.28165 0.57669 -0.33200
O 	O 	0.73552 0.32213 0.60280 -0.34700
H 	H 	0.60175 0.22386 0.41336 0.19600
H 	H 	0.74454 0.38065 0.52510 0.24900
C 	C 	0.62093 0.26461 0.68381 -0.01200
C 	C 	0.67443 0.31565 0.66755 -0.04900
C 	C 	0.72513 0.36881 0.70441 0.13000
C 	C 	0.72535 0.36692 0.75698 -0.01300
C 	C 	0.67482 0.31300 0.77308 -0.05000
C 	C 	0.62061 0.26327 0.73638 0.12800
N 	N 	0.56530 0.21123 0.75241 -0.02300
H 	H 	0.58055 0.22481 0.65563 0.10700
H 	H 	0.76591 0.40650 0.78518 0.11000
N 	N 	0.77642 0.42468 0.68856 -0.02300
O 	O 	0.53784 0.22222 0.78569 0.00300
O 	O 	0.54035 0.15286 0.73167 -0.01200
O 	O 	0.76343 0.45209 0.65690 0.01400
O 	O 	0.83611 0.45012 0.70796 -0.00400
C 	C 	0.60708 0.26033 0.23660 -0.01400
C 	C 	0.66699 0.29956 0.27010 -0.05500
C 	C 	0.72420 0.33219 0.24973 0.13200
C 	C 	0.72058 0.32647 0.19629 -0.01800
C 	C 	0.66056 0.29019 0.16308 -0.04600
C 	C 	0.60354 0.25544 0.18325 0.12500
N 	N 	0.54185 0.21623 0.14964 -0.02400
H 	H 	0.56307 0.23439 0.25204 0.09000
H 	H 	0.76450 0.35297 0.18079 0.11200
N 	N 	0.78582 0.37395 0.28311 -0.02300
O 	O 	0.52851 0.17063 0.11401 -0.02500
O 	O 	0.49783 0.22391 0.15644 -0.02500
O 	O 	0.82768 0.36199 0.28299 0.01100
O 	O 	0.80211 0.42674 0.31016 -0.01600
C 	C 	0.82207 0.61808 0.47968 0.03800
C 	C 	0.78163 0.62851 0.45164 0.10400
C 	C 	0.71788 0.57610 0.42798 -0.09400
C 	C 	0.69759 0.51398 0.43029 0.08600
C 	C 	0.73818 0.50361 0.45817 0.01400
C 	C 	0.79965 0.55622 0.48566 -0.05000
C 	C 	0.80812 0.69416 0.44438 0.08700
C 	C 	0.67319 0.58571 0.39665 0.79000
H 	H 	0.65078 0.47338 0.40910 0.09500
C 	C 	0.84164 0.54671 0.52085 0.77800
H 	H 	0.87117 0.65834 0.49666 0.13700
C 	C 	0.81540 0.73913 0.48404 -0.07200
C 	C 	0.84765 0.80276 0.47772 0.05300
C 	C 	0.86954 0.82120 0.43189 0.05800
C 	C 	0.85689 0.77497 0.39058 -0.07700
C 	C 	0.82936 0.71258 0.39835 0.05500
C 	C 	0.79385 0.72090 0.53471 0.78500
H 	H 	0.85772 0.83862 0.50911 0.13700
C 	C 	0.87646 0.79274 0.33939 0.78500
H 	H 	0.82491 0.67825 0.36875 0.12800
F 	F 	0.80545 0.50367 0.55155 -0.41700
F 	F 	0.89161 0.60320 0.55302 -0.36600
F 	F 	0.86777 0.52403 0.49165 -0.39500
F 	F 	0.69132 0.59879 0.34958 -0.39000
F 	F 	0.67557 0.63553 0.42211 -0.35800
F 	F 	0.60980 0.53176 0.38800 -0.36900
F 	F 	0.84400 0.73925 0.30078 -0.36100
F 	F 	0.94191 0.82290 0.34362 -0.36700
F 	F 	0.86222 0.83284 0.32484 -0.36700
F 	F 	0.79098 0.76609 0.56252 -0.35100
F 	F 	0.83715 0.71610 0.56399 -0.37800
F 	F 	0.73314 0.66330 0.52631 -0.35700
C 	C 	0.84691 0.07106 0.45717 0.04100
C 	C 	0.84747 0.09443 0.41183 0.09200
C 	C 	0.87206 0.08204 0.37090 -0.08300
C 	C 	0.89509 0.04571 0.37636 0.07300
C 	C 	0.89498 0.02279 0.42190 -0.00000
C 	C 	0.87210 0.03677 0.46333 -0.06400
C 	C 	0.82627 0.13564 0.40936 0.10400
C 	C 	0.87894 0.11185 0.32336 0.78700
H 	H 	0.91477 0.03648 0.34568 0.13000
C 	C 	0.87379 0.01464 0.51386 0.75100
H 	H 	0.82783 0.08082 0.48805 0.12700
C 	C 	0.75991 0.10903 0.39907 -0.10200
C 	C 	0.74132 0.14906 0.40802 0.08100
C 	C 	0.78747 0.21466 0.42657 0.00300
C 	C 	0.85400 0.24192 0.43277 -0.05700
C 	C 	0.87258 0.20179 0.42410 0.03200
C 	C 	0.70851 0.03740 0.38409 0.79000
H 	H 	0.69059 0.12875 0.40318 0.09300
C 	C 	0.90514 0.31346 0.44910 0.77900
H 	H 	0.92317 0.22152 0.43107 0.13800
F 	F 	0.82952 0.94914 0.50657 -0.36500
F 	F 	0.85879 0.04134 0.55163 -0.37900
F 	F 	0.93469 0.03201 0.53171 -0.41100
F 	F 	0.92916 0.17621 0.33593 -0.38700
F 	F 	0.82286 0.10392 0.30442 -0.37000
F 	F 	0.89183 0.08445 0.28433 -0.35400
F 	F 	0.89798 0.33489 0.49559 -0.41600
F 	F 	0.89924 0.34404 0.41201 -0.37800
F 	F 	0.96688 0.33005 0.45511 -0.37400
F 	F 	0.64960 0.02274 0.36302 -0.38700
F 	F 	0.70147 0.01017 0.42731 -0.40000
F 	F 	0.72503 0.01066 0.34788 -0.37100
C 	C 	0.18879 0.07430 0.41544 0.03600
C 	C 	0.22302 0.09094 0.46557 0.09900
C 	C 	0.19010 0.07612 0.50760 -0.09300
C 	C 	0.12298 0.04395 0.49811 0.08100
C 	C 	0.08850 0.02515 0.44776 -0.01700
C 	C 	0.12142 0.04000 0.40580 -0.04500
C 	C 	0.29383 0.12592 0.47358 0.09600
C 	C 	0.22676 0.09817 0.56269 0.79000
H 	H 	0.09726 0.03359 0.52989 0.11200
C 	C 	0.08512 0.02133 0.35101 0.74800
H 	H 	0.21498 0.08802 0.38396 0.13800
C 	C 	0.32124 0.09367 0.46317 -0.08600
C 	C 	0.38765 0.12955 0.46272 0.07700
C 	C 	0.42702 0.19623 0.47471 0.01000
C 	C 	0.40067 0.22798 0.49013 -0.05300
C 	C 	0.33368 0.19258 0.48694 0.04200
C 	C 	0.27919 0.02153 0.44781 0.74000
H 	H 	0.40845 0.10576 0.45108 0.09700
C 	C 	0.44336 0.29979 0.50759 0.77800
H 	H 	0.31213 0.21684 0.49383 0.14000
F 	F 	0.12478 0.03428 0.31535 -0.34900
F 	F 	0.06010 0.05492 0.34555 -0.38000
F 	F 	0.03530 0.95679 0.33980 -0.31800
F 	F 	0.26074 0.16341 0.57647 -0.38100
F 	F 	0.26937 0.08295 0.56753 -0.37300
F 	F 	0.18549 0.06969 0.59689 -0.36700
F 	F 	0.41200 0.31919 0.53312 -0.36100
F 	F 	0.46034 0.32887 0.46525 -0.39200
F 	F 	0.49864 0.31983 0.54100 -0.40100
F 	F 	0.31573 0.99910 0.45173 -0.34200
F 	F 	0.24739 0.00339 0.39740 -0.38900
F 	F 	0.23431 0.99301 0.47934 -0.33300
C 	C 	0.90367 0.78171 0.03121 0.04600
C 	C 	0.87545 0.74701 0.98075 0.09600
C 	C 	0.87904 0.77868 0.93951 -0.07400
C 	C 	0.91237 0.84511 0.94989 0.04600
C 	C 	0.94307 0.88010 0.00006 0.08300
C 	C 	0.93799 0.84824 0.04141 -0.07700
C 	C 	0.84108 0.67712 0.97186 0.10600
C 	C 	0.84459 0.74154 0.88501 0.78500
H 	H 	0.91496 0.86999 0.91891 0.12000
C 	C 	0.97100 0.88527 0.09604 0.77200
H 	H 	0.89946 0.75663 0.06241 0.13700
C 	C 	0.87546 0.65078 0.97188 -0.09700
C 	C 	0.84216 0.58541 0.97227 0.08700
C 	C 	0.77520 0.54575 0.96954 0.00900
C 	C 	0.74013 0.57098 0.96372 -0.04900
C 	C 	0.77395 0.63712 0.96805 0.04000
C 	C 	0.94826 0.69289 0.97614 0.79600
H 	H 	0.86860 0.56565 0.97662 0.10800
C 	C 	0.66700 0.52812 0.95517 0.78300
H 	H 	0.74822 0.65779 0.96918 0.14500
F 	F 	0.03706 0.92321 0.09929 -0.32400
F 	F 	0.95566 0.84529 0.13133 -0.34800
F 	F 	0.95222 0.92327 0.10961 -0.34000
F 	F 	0.77876 0.70757 0.88204 -0.37700
F 	F 	0.85879 0.69969 0.87129 -0.36600
F 	F 	0.86280 0.78155 0.84951 -0.36300
F 	F 	0.64729 0.51346 0.00155 -0.39900
F 	F 	0.64162 0.47238 0.92094 -0.40300
F 	F 	0.64228 0.55775 0.93488 -0.35500
F 	F 	0.96970 0.65718 0.96253 -0.37500
F 	F 	0.97752 0.72501 0.02633 -0.39400
F 	F 	0.96730 0.73665 0.94386 -0.37200
C 	C 	0.89840 0.10783 0.07159 0.06000
C 	C 	0.88273 0.12487 0.02750 0.07800
C 	C 	0.90775 0.12295 0.98288 -0.06700
C 	C 	0.94168 0.09671 0.98147 0.03900
C 	C 	0.95479 0.07686 0.02481 0.08700
C 	C 	0.93624 0.08583 0.07134 -0.09000
C 	C 	0.84093 0.14578 0.02875 0.10000
C 	C 	0.90044 0.15098 0.93771 0.78200
H 	H 	0.95784 0.09138 0.94661 0.11200
C 	C 	0.95323 0.06851 0.11986 0.77400
H 	H 	0.88022 0.11092 0.10589 0.13800
C 	C 	0.77339 0.10206 0.01143 -0.08700
C 	C 	0.73760 0.12567 0.00222 0.07100
C 	C 	0.76756 0.19127 0.01382 0.00300
C 	C 	0.83237 0.23323 0.04020 -0.05300
C 	C 	0.86929 0.21040 0.04548 0.04100
C 	C 	0.73971 0.03070 0.00269 0.75400
H 	H 	0.68715 0.09348 0.98412 0.11100
C 	C 	0.86313 0.30270 0.06081 0.77800
H 	H 	0.92055 0.24317 0.06102 0.13300
F 	F 	0.91228 0.00322 0.11629 -0.36400
F 	F 	0.94695 0.09678 0.16311 -0.35300
F 	F 	0.01632 0.08882 0.12665 -0.34100
F 	F 	0.92912 0.21495 0.95392 -0.39600
F 	F 	0.83593 0.11979 0.91768 -0.38500
F 	F 	0.92935 0.14559 0.89855 -0.38200
F 	F 	0.91557 0.32831 0.09994 -0.38300
F 	F 	0.81952 0.30908 0.08063 -0.43300
F 	F 	0.88390 0.33700 0.02159 -0.40000
F 	F 	0.67335 0.99646 0.99064 -0.33500
F 	F 	0.75436 0.01433 0.04684 -0.39000
F 	F 	0.75964 0.01307 0.96265 -0.37100
C 	C 	0.35664 0.14346 0.94918 0.04100
C 	C 	0.34258 0.18284 0.97269 0.10000
C 	C 	0.39264 0.24863 0.99058 -0.08700
C 	C 	0.45668 0.27204 0.98903 0.09100
C 	C 	0.47087 0.23209 0.96689 0.01400
C 	C 	0.41985 0.16854 0.94292 -0.05300
C 	C 	0.27642 0.15359 0.98246 0.09500
C 	C 	0.37897 0.29284 0.01560 0.77800
H 	H 	0.49586 0.32075 0.00709 0.09600
C 	C 	0.43241 0.12686 0.91168 0.78000
H 	H 	0.31828 0.09306 0.93620 0.13500
C 	C 	0.22553 0.13587 0.94257 -0.07600
C 	C 	0.16249 0.10307 0.95255 0.04300
C 	C 	0.15025 0.09103 0.00194 0.08300
C 	C 	0.20178 0.11251 0.04255 -0.08800
C 	C 	0.26393 0.14092 0.03170 0.04600
C 	C 	0.23721 0.14747 0.88846 0.78500
H 	H 	0.12250 0.08578 0.92169 0.11500
C 	C 	0.19014 0.10220 0.09680 0.78600
H 	H 	0.30287 0.15311 0.06148 0.12600
F 	F 	0.37706 0.07713 0.87791 -0.37000
F 	F 	0.45274 0.10161 0.94433 -0.40300
F 	F 	0.47899 0.16179 0.88280 -0.42300
F 	F 	0.37097 0.28393 0.06549 -0.39000
F 	F 	0.32390 0.28113 0.98849 -0.35600
F 	F 	0.42934 0.35603 0.01699 -0.36300
F 	F 	0.15824 0.03841 0.09866 -0.36900
F 	F 	0.15334 0.12119 0.11135 -0.35700
F 	F 	0.24746 0.13693 0.13217 -0.36700
F 	F 	0.18600 0.14087 0.85921 -0.36500
F 	F 	0.24470 0.10388 0.86447 -0.38200
F 	F 	0.29191 0.20843 0.88974 -0.35800
