data_crystal

_cell_length_a 16.52575
_cell_length_b 17.66299
_cell_length_c 30.61004
_cell_angle_alpha 60.77069
_cell_angle_beta  118.94136
_cell_angle_gamma 133.26938

_symmetry_space_group_name_	'P 1'
_symmetry_space_group_name_H-M	'P 1'

loop_
_symmetry_equiv_pos_as_xyz
  x,y,z

loop_
_atom_site_label
_atom_site_type_symbol
_atom_site_fract_x
_atom_site_fract_y
_atom_site_fract_z
_atom_site_charge
C 	C 	0.21110 0.59966 0.19923 0.13600
N 	N 	0.14256 0.50420 0.18721 -0.13100
C 	C 	0.18736 0.47170 0.17887 0.12900
N 	N 	0.30179 0.53499 0.18293 -0.13300
C 	C 	0.37089 0.63019 0.19548 0.13100
N 	N 	0.32554 0.66151 0.20418 -0.13500
C 	C 	0.31850 0.67028 0.67866 0.13300
N 	N 	0.24499 0.56850 0.67324 -0.13100
C 	C 	0.28499 0.51394 0.68369 0.13000
N 	N 	0.39940 0.56172 0.69933 -0.13400
C 	C 	0.47291 0.66226 0.70671 0.13000
N 	N 	0.43188 0.71520 0.69741 -0.13400
Co	Co	0.06046 0.01477 0.04097 1.17500
C 	C 	0.29024 0.10575 0.04185 0.34900
Co	Co	0.12278 0.86526 0.05419 1.17800
O 	O 	0.04949 0.13234 0.02644 -0.44600
C 	C 	0.05184 0.24621 0.12202 0.37400
C 	C 	0.01473 0.94434 0.95204 0.33200
C 	C 	0.19303 0.81686 0.16721 0.30900
O 	O 	0.00663 0.85735 0.98446 -0.36000
O 	O 	0.00960 0.00228 0.96534 -0.37500
O 	O 	0.08247 0.20400 0.11308 -0.39700
O 	O 	0.23341 0.87696 0.12578 -0.37500
O 	O 	0.13508 0.83007 0.17760 -0.36000
O 	O 	0.04261 0.89745 0.07246 -0.71500
O 	O 	0.24247 0.02657 0.02300 -0.43500
O 	O 	0.23476 0.09764 0.06516 -0.42500
O 	O 	0.00803 0.70127 0.08274 -0.36400
Co	Co	0.09092 0.04362 0.52797 1.18000
Co	Co	0.01782 0.12259 0.57198 1.20100
Co	Co	0.06570 0.87161 0.62259 1.20400
C 	C 	0.28493 0.11958 0.49472 0.34600
Co	Co	0.13617 0.88266 0.53625 1.18900
O 	O 	0.06978 0.15529 0.51290 -0.44000
O 	O 	0.07999 0.01998 0.60523 -0.59700
C 	C 	0.11451 0.29288 0.61764 0.31400
C 	C 	0.27005 0.87604 0.64351 0.31300
O 	O 	0.00867 0.24186 0.61900 -0.37100
O 	O 	0.13533 0.26633 0.59274 -0.37700
O 	O 	0.28045 0.92840 0.59555 -0.37200
O 	O 	0.21097 0.87232 0.66326 -0.36200
O 	O 	0.10084 0.94108 0.56524 -0.72400
C 	C 	0.04758 0.02597 0.75290 0.26200
O 	O 	0.04259 0.10606 0.71983 -0.37700
O 	O 	0.05633 0.97195 0.73870 -0.28800
O 	O 	0.21572 0.02691 0.48349 -0.42600
O 	O 	0.25341 0.14354 0.51564 -0.39100
O 	O 	0.05477 0.73103 0.58454 -0.37500
C 	C 	0.11361 0.08843 0.82855 -0.01100
C 	C 	0.05177 0.00213 0.80730 -0.10000
C 	C 	0.01406 0.96831 0.89817 0.03500
C 	C 	0.09325 0.07267 0.87279 0.05200
Br	Br	0.17077 0.19593 0.89595 -0.21800
H 	H 	0.17369 0.16911 0.80909 0.06400
C 	C 	0.03284 0.04934 0.31801 -0.02900
C 	C 	0.02210 0.03786 0.36392 0.11600
Br	Br	0.09961 0.16492 0.38381 -0.23200
H 	H 	0.08882 0.12894 0.29623 0.07400
C 	C 	0.20503 0.40765 0.67319 -0.01500
C 	C 	0.20643 0.39361 0.63434 -0.11900
H 	H 	0.13586 0.34404 0.69300 0.05600
H 	H 	0.27637 0.45681 0.61495 0.08600
C 	C 	0.28032 0.73937 0.65121 -0.01100
C 	C 	0.30973 0.80771 0.67284 -0.12100
H 	H 	0.22869 0.73572 0.61205 0.04700
H 	H 	0.35543 0.80726 0.71298 0.09200
C 	C 	0.13909 0.34347 0.14224 -0.13700
C 	C 	0.11058 0.36708 0.16602 -0.00200
H 	H 	0.22520 0.39652 0.13680 0.09100
H 	H 	0.02527 0.31087 0.17292 0.06100
C 	C 	0.49476 0.70048 0.19946 -0.01500
H 	H 	0.48203 0.65745 0.14184 0.08600
C 	C 	0.22324 0.74249 0.20430 -0.11400
C 	C 	0.15867 0.64394 0.19732 -0.02300
H 	H 	0.31082 0.77656 0.22696 0.09200
H 	H 	0.06739 0.60441 0.18083 0.06700
C 	C 	0.47996 0.28005 0.50392 -0.01000
C 	C 	0.38872 0.19531 0.48044 -0.14900
H 	H 	0.46418 0.30933 0.52085 0.05800
H 	H 	0.40466 0.17733 0.45737 0.09200
C 	C 	0.39572 0.20232 0.03289 -0.17600
C 	C 	0.43497 0.23021 0.99220 0.01600
H 	H 	0.44714 0.25680 0.05746 0.09300
H 	H 	0.37559 0.18612 0.96242 0.06200
C 	C 	0.53685 0.71180 0.16682 -0.11600
C 	C 	0.55737 0.29167 0.99718 0.13300
H 	H 	0.55117 0.75295 0.22552 0.06800
O 	O 	0.01294 0.83617 0.68158 -0.41900
H 	H 	0.58339 0.70094 0.64957 0.08700
C 	C 	0.59793 0.31984 0.51281 0.12200
C 	C 	0.59623 0.72113 0.71555 -0.01300
N 	N 	0.59539 0.24602 0.99507 -0.12700
C 	C 	0.70875 0.29268 0.00790 0.09900
N 	N 	0.78451 0.39224 0.01623 -0.13800
C 	C 	0.74765 0.44038 0.01700 0.11400
N 	N 	0.63355 0.38894 0.00855 -0.14300
C 	C 	0.72507 0.28315 0.52980 0.11800
N 	N 	0.81294 0.37297 0.54793 -0.14100
C 	C 	0.79290 0.43512 0.54900 0.11600
N 	N 	0.68551 0.40835 0.53120 -0.13700
N 	N 	0.61819 0.25833 0.51138 -0.13800
Co	Co	0.88612 0.88889 0.15819 1.19100
Co	Co	0.96099 0.08411 0.07376 1.15300
Co	Co	0.98942 0.82111 0.12616 1.16700
Co	Co	0.82501 0.04337 0.14113 1.15100
C 	C 	0.90048 0.65568 0.07885 0.29300
O 	O 	0.71793 0.02532 0.06923 -0.41900
O 	O 	0.88898 0.99809 0.12122 -0.72800
C 	C 	0.75954 0.09797 0.02860 0.32300
O 	O 	0.91530 0.78066 0.17818 -0.46000
C 	C 	0.65619 0.80119 0.16258 0.32600
O 	O 	0.93672 0.93239 0.08813 -0.57900
O 	O 	0.83995 0.11310 0.01854 -0.40300
O 	O 	0.70955 0.88705 0.17741 -0.37900
O 	O 	0.71124 0.78786 0.15022 -0.37900
O 	O 	0.94310 0.20476 0.11060 -0.45200
C 	C 	0.95019 0.97958 0.24250 0.36200
O 	O 	0.94317 0.05925 0.21051 -0.45800
O 	O 	0.97161 0.93612 0.22789 -0.38100
O 	O 	0.87633 0.68036 0.10309 -0.39800
Co	Co	0.98399 0.94244 0.66492 1.18600
Co	Co	0.90984 0.07930 0.65576 1.14100
C 	C 	0.95251 0.68147 0.58869 0.30900
O 	O 	0.78271 0.04596 0.58997 -0.42200
O 	O 	0.98300 0.05068 0.63062 -0.80600
C 	C 	0.80860 0.11290 0.54607 0.31300
C 	C 	0.75703 0.83859 0.67546 0.33100
C 	C 	0.97005 0.91647 0.44894 0.30400
O 	O 	0.87010 0.11797 0.52737 -0.41000
O 	O 	0.98464 0.84134 0.48149 -0.40000
O 	O 	0.96813 0.97207 0.46564 -0.36400
O 	O 	0.80907 0.91902 0.69444 -0.38100
O 	O 	0.80928 0.84157 0.65257 -0.40000
O 	O 	0.93174 0.73114 0.59835 -0.41600
C 	C 	0.97290 0.89781 0.83278 0.14900
C 	C 	0.95256 0.88201 0.87698 -0.11700
H 	H 	0.89164 0.80140 0.89613 0.08600
Br	Br	0.89307 0.77488 0.80878 -0.25400
C 	C 	0.96514 0.96029 0.29778 -0.09400
C 	C 	0.89052 0.85768 0.32588 0.12600
C 	C 	0.88389 0.84547 0.37317 -0.04000
C 	C 	0.95124 0.93478 0.39322 -0.07600
H 	H 	0.82875 0.76580 0.39518 0.07300
Br	Br	0.79505 0.73316 0.30004 -0.24500
C 	C 	0.63892 0.74517 0.67927 -0.12000
H 	H 	0.65274 0.76267 0.74631 0.06800
C 	C 	0.73658 0.19651 0.54663 -0.02200
C 	C 	0.78909 0.19684 0.52360 -0.14100
H 	H 	0.69915 0.12958 0.57834 0.03400
H 	H 	0.82288 0.26142 0.49061 0.07900
C 	C 	0.88776 0.53116 0.56961 -0.00800
C 	C 	0.86796 0.58280 0.58028 -0.16400
H 	H 	0.97477 0.56175 0.57473 0.03800
H 	H 	0.78166 0.54588 0.58019 0.09600
C 	C 	0.74576 0.22378 0.03094 0.00400
C 	C 	0.73838 0.17996 0.00254 -0.17000
H 	H 	0.76883 0.19977 0.07267 0.01600
H 	H 	0.71942 0.20614 0.96076 0.10000
C 	C 	0.83263 0.54518 0.03001 -0.00700
C 	C 	0.81548 0.56976 0.05865 -0.16100
H 	H 	0.91496 0.59801 0.02051 0.03400
H 	H 	0.73067 0.52024 0.06498 0.09300
