data_crystal

_cell_length_a 19.00663
_cell_length_b 15.06577
_cell_length_c 41.46104
_cell_angle_alpha 89.68413
_cell_angle_beta  89.68683
_cell_angle_gamma 119.43703

_symmetry_space_group_name_	'P 1'
_symmetry_space_group_name_H-M	'P 1'

loop_
_symmetry_equiv_pos_as_xyz
  x,y,z

loop_
_atom_site_label
_atom_site_type_symbol
_atom_site_fract_x
_atom_site_fract_y
_atom_site_fract_z
_atom_site_charge
C 	C 	0.76601 0.62951 0.95178 0.30900
C 	C 	0.71770 0.20549 0.97241 0.32900
C 	C 	0.90944 0.54797 0.93966 0.36300
C 	C 	0.57999 0.30177 0.98993 0.30700
C 	C 	0.74693 0.31879 0.86910 0.33300
C 	C 	0.58044 0.38011 0.88738 0.31200
Ni	Ni	0.75900 0.42901 0.97806 1.12000
Ni	Ni	0.63515 0.26110 0.92555 1.12600
Ni	Ni	0.75652 0.48977 0.90301 1.12400
O 	O 	0.78535 0.58488 0.97566 -0.33000
O 	O 	0.72185 0.57585 0.92766 -0.38000
O 	O 	0.67299 0.25723 0.87983 -0.36700
O 	O 	0.74381 0.28488 0.99175 -0.33400
O 	O 	0.71394 0.21910 0.94156 -0.36800
O 	O 	0.65522 0.42946 0.87565 -0.38200
O 	O 	0.87022 0.46673 0.95792 -0.36600
O 	O 	0.87006 0.57995 0.92118 -0.37600
O 	O 	0.55729 0.30148 0.90729 -0.36000
O 	O 	0.64840 0.37863 0.00075 -0.33600
O 	O 	0.57977 0.23165 0.97028 -0.34700
O 	O 	0.79566 0.39991 0.88511 -0.38200
O 	O 	0.70525 0.39820 0.93809 -0.70900
H 	H 	0.66233 0.41412 0.94353 0.15900
C 	C 	0.75559 0.17477 0.54040 0.28700
C 	C 	0.57473 0.39295 0.50145 0.33500
C 	C 	0.82081 0.43047 0.50973 0.34700
C 	C 	0.49068 0.10591 0.52949 0.32700
C 	C 	0.69750 0.47638 0.59946 0.33500
C 	C 	0.60457 0.22283 0.62308 0.31900
Ni	Ni	0.65439 0.26012 0.50545 1.12300
Ni	Ni	0.56342 0.30089 0.56593 1.12800
Ni	Ni	0.74381 0.33795 0.57454 1.12300
O 	O 	0.73404 0.19993 0.51254 -0.33300
O 	O 	0.74418 0.20616 0.56861 -0.36900
O 	O 	0.61872 0.41540 0.59844 -0.36600
O 	O 	0.57884 0.31529 0.48865 -0.33600
O 	O 	0.58307 0.40920 0.53261 -0.35400
O 	O 	0.68384 0.28590 0.61821 -0.37200
O 	O 	0.74910 0.40607 0.49934 -0.35300
O 	O 	0.82990 0.39746 0.53820 -0.36700
O 	O 	0.55092 0.20121 0.60018 -0.37800
O 	O 	0.55056 0.11877 0.51003 -0.35300
O 	O 	0.48194 0.18504 0.53782 -0.34900
O 	O 	0.74309 0.46892 0.57733 -0.37500
O 	O 	0.64822 0.27950 0.54970 -0.71300
H 	H 	0.62739 0.20831 0.55640 0.16800
C 	C 	0.21744 0.24163 0.77208 0.28500
C 	C 	0.96906 0.82401 0.73690 0.27400
C 	C 	0.22129 0.08864 0.70577 0.31000
C 	C 	0.98881 0.98170 0.81088 0.29300
C 	C 	0.98004 0.05909 0.67111 0.29600
C 	C 	0.97630 0.21128 0.74036 0.26300
Ni	Ni	0.11536 0.01106 0.76184 1.11300
Ni	Ni	0.94866 0.00267 0.74090 1.11000
Ni	Ni	0.11476 0.18414 0.71360 1.12400
O 	O 	0.21775 0.15385 0.76914 -0.37000
O 	O 	0.18436 0.27366 0.74987 -0.36600
O 	O 	0.93114 0.04186 0.69595 -0.38300
O 	O 	0.02641 0.85717 0.75860 -0.33000
O 	O 	0.95631 0.88788 0.72008 -0.37700
O 	O 	0.03387 0.23647 0.71787 -0.34600
O 	O 	0.16078 0.00520 0.71733 -0.37700
O 	O 	0.21387 0.17048 0.70164 -0.36200
O 	O 	0.94576 0.12497 0.75711 -0.39100
O 	O 	0.06638 0.01148 0.80641 -0.36900
O 	O 	0.93616 0.94121 0.78672 -0.37600
O 	O 	0.05813 0.09767 0.67532 -0.35200
O 	O 	0.06218 0.07817 0.74514 -0.70800
H 	H 	0.06519 0.11934 0.76398 0.16100
C 	C 	0.21506 0.47169 0.38570 0.28900
C 	C 	0.32919 0.74572 0.49800 0.33900
C 	C 	0.11317 0.59185 0.43833 0.34400
C 	C 	0.42734 0.61066 0.45321 0.31300
C 	C 	0.31037 0.88993 0.40885 0.31800
C 	C 	0.41954 0.78424 0.36347 0.30900
Ni	Ni	0.25482 0.56572 0.45365 1.11900
Ni	Ni	0.40164 0.78972 0.43345 1.12600
Ni	Ni	0.24630 0.68356 0.38949 1.12400
O 	O 	0.19167 0.45957 0.41672 -0.33700
O 	O 	0.23217 0.55567 0.36918 -0.36700
O 	O 	0.38300 0.90034 0.41284 -0.36000
O 	O 	0.30777 0.64863 0.49565 -0.34200
O 	O 	0.34287 0.80160 0.47215 -0.37200
O 	O 	0.34539 0.77321 0.36084 -0.37600
O 	O 	0.16395 0.60150 0.46090 -0.35600
O 	O 	0.13260 0.59316 0.40778 -0.35200
O 	O 	0.45117 0.78299 0.39174 -0.37500
O 	O 	0.35067 0.53752 0.45278 -0.34900
O 	O 	0.44710 0.70830 0.45803 -0.33900
O 	O 	0.24732 0.80006 0.41207 -0.37800
O 	O 	0.30928 0.66551 0.42157 -0.71700
H 	H 	0.33506 0.63355 0.40910 0.16600
C 	C 	0.37518 0.45578 0.01162 0.33400
C 	C 	0.14142 0.57511 0.06430 0.35100
C 	C 	0.17134 0.38977 0.98770 0.29600
C 	C 	0.35135 0.64469 0.09336 0.28700
C 	C 	0.23101 0.69686 0.97046 0.33300
C 	C 	0.45118 0.80871 0.99879 0.32200
Ni	Ni	0.24352 0.48093 0.04845 1.11800
Ni	Ni	0.29850 0.71693 0.03534 1.13000
Ni	Ni	0.32386 0.59023 0.97923 1.12700
O 	O 	0.30422 0.41089 0.02711 -0.36500
O 	O 	0.39927 0.53915 0.99350 -0.35600
O 	O 	0.28054 0.76225 0.99163 -0.35300
O 	O 	0.17037 0.51875 0.07571 -0.37000
O 	O 	0.17674 0.63634 0.03985 -0.36900
O 	O 	0.41561 0.74061 0.97500 -0.33900
O 	O 	0.15981 0.43390 0.01231 -0.36800
O 	O 	0.24093 0.43818 0.97194 -0.33900
O 	O 	0.41792 0.79483 0.02781 -0.36600
O 	O 	0.32559 0.54856 0.08525 -0.35100
O 	O 	0.31376 0.69434 0.08308 -0.36000
O 	O 	0.23987 0.61972 0.96124 -0.36200
O 	O 	0.30595 0.60023 0.02419 -0.71500
H 	H 	0.36013 0.61901 0.03222 0.16900
C 	C 	0.83983 0.03720 0.25770 0.27700
C 	C 	0.01910 0.08755 0.13445 0.32500
C 	C 	0.78955 0.90292 0.18720 0.32900
C 	C 	0.09905 0.25431 0.21335 0.30900
C 	C 	0.97938 0.83118 0.19002 0.27100
C 	C 	0.07807 0.00314 0.26669 0.28900
Ni	Ni	0.93294 0.11108 0.19252 1.10400
Ni	Ni	0.07675 0.05188 0.19727 1.12400
Ni	Ni	0.91120 0.91531 0.23607 1.12000
O 	O 	0.85514 0.09566 0.23142 -0.36700
O 	O 	0.88883 0.00264 0.26654 -0.39000
O 	O 	0.05020 0.90537 0.19873 -0.35100
O 	O 	0.00045 0.14942 0.14977 -0.35500
O 	O 	0.04148 0.02993 0.15035 -0.37600
O 	O 	0.00430 0.92251 0.26299 -0.34400
O 	O 	0.84667 0.97923 0.17089 -0.37800
O 	O 	0.80181 0.87946 0.21654 -0.37900
O 	O 	0.11846 0.06589 0.24240 -0.37400
O 	O 	0.02769 0.24725 0.20913 -0.34600
O 	O 	0.12276 0.20573 0.19336 -0.36600
O 	O 	0.91327 0.81602 0.20478 -0.37500
O 	O 	0.97787 0.03863 0.21322 -0.72800
H 	H 	0.99882 0.08138 0.23242 0.14100
C 	C 	0.05604 0.13367 0.03701 -0.00100
C 	C 	0.00758 0.16309 0.01961 0.00200
C 	C 	0.04134 0.23215 0.99374 -0.00700
C 	C 	0.02963 0.09711 0.09989 -0.09100
C 	C 	0.16388 0.22409 0.99792 -0.00400
C 	C 	0.13114 0.15538 0.02391 -0.03100
C 	C 	0.04025 0.11005 0.07105 0.06100
C 	C 	0.12476 0.27747 0.98750 -0.05800
H 	H 	0.94722 0.14150 0.02812 0.03500
H 	H 	0.00687 0.26415 0.98293 0.06700
H 	H 	0.22473 0.24768 0.98984 0.07200
H 	H 	0.16731 0.12748 0.03571 0.06400
C 	C 	0.56315 0.77982 0.15055 0.01700
C 	C 	0.54617 0.84101 0.13005 -0.04200
C 	C 	0.47385 0.79834 0.11298 0.01400
C 	C 	0.70900 0.85609 0.17514 -0.09700
C 	C 	0.43320 0.63444 0.13841 0.02000
C 	C 	0.50562 0.67724 0.15540 -0.04300
C 	C 	0.64199 0.82019 0.16435 0.05700
C 	C 	0.41826 0.69396 0.11621 -0.06500
H 	H 	0.59022 0.92077 0.12645 0.06500
H 	H 	0.46292 0.84524 0.09608 0.05900
H 	H 	0.38999 0.55425 0.14166 0.05600
H 	H 	0.51800 0.62987 0.17155 0.05900
C 	C 	0.99961 0.63518 0.12274 -0.07100
C 	C 	0.00298 0.61810 0.15581 0.04500
C 	C 	0.99172 0.67876 0.17823 -0.04500
C 	C 	0.08537 0.58925 0.08341 -0.11400
C 	C 	0.96201 0.76334 0.13481 -0.01300
C 	C 	0.97401 0.70327 0.11238 -0.00700
C 	C 	0.04299 0.60663 0.10075 0.12400
C 	C 	0.97533 0.75499 0.16759 -0.04400
H 	H 	0.02110 0.56394 0.16402 0.04100
H 	H 	0.99979 0.67006 0.20368 0.05100
H 	H 	0.94687 0.82022 0.12656 0.05400
H 	H 	0.96981 0.71555 0.08685 0.06000
C 	C 	0.59969 0.89721 0.29695 0.00200
C 	C 	0.63728 0.99907 0.28636 -0.00700
C 	C 	0.71628 0.04574 0.27393 -0.02800
C 	C 	0.47412 0.82269 0.33653 -0.08800
C 	C 	0.72001 0.88871 0.28266 0.00600
C 	C 	0.64069 0.84173 0.29424 -0.03700
C 	C 	0.52835 0.85708 0.31696 0.05600
C 	C 	0.75858 0.99120 0.27257 -0.04100
H 	H 	0.60640 0.04301 0.28871 0.03800
H 	H 	0.74489 0.12446 0.26588 0.05300
H 	H 	0.75127 0.84504 0.28125 0.03600
H 	H 	0.61233 0.76324 0.30257 0.05500
C 	C 	0.17203 0.29232 0.30675 0.01300
C 	C 	0.25230 0.35683 0.31519 -0.04100
C 	C 	0.26999 0.40350 0.34526 0.01600
C 	C 	0.12974 0.27173 0.24554 -0.10600
C 	C 	0.12964 0.30347 0.36116 0.01400
C 	C 	0.11155 0.25850 0.33064 -0.04100
C 	C 	0.15018 0.28079 0.27330 0.06000
C 	C 	0.20719 0.38496 0.36708 -0.05600
H 	H 	0.29994 0.38019 0.29722 0.05600
H 	H 	0.32984 0.46708 0.34911 0.05600
H 	H 	0.08133 0.28406 0.37849 0.07100
H 	H 	0.04954 0.20428 0.32478 0.06400
C 	C 	0.21962 0.01417 0.34245 0.03500
C 	C 	0.19571 0.00669 0.37483 -0.06700
C 	C 	0.23717 0.98508 0.39874 0.04700
C 	C 	0.12393 0.00668 0.29476 -0.07400
C 	C 	0.33210 0.99049 0.35862 0.03700
C 	C 	0.29093 0.01253 0.33469 -0.07100
C 	C 	0.16649 0.01090 0.31700 0.03500
C 	C 	0.30056 0.96665 0.39017 -0.08000
H 	H 	0.14246 0.01169 0.38129 0.07100
H 	H 	0.21450 0.97179 0.42333 0.06900
H 	H 	0.38318 0.98112 0.35184 0.04800
H 	H 	0.31170 0.02201 0.30987 0.05900
C 	C 	0.34890 0.95926 0.53634 0.13300
C 	C 	0.43280 0.00179 0.54140 -0.13500
C 	C 	0.46213 0.93543 0.55054 0.12300
C 	C 	0.41501 0.83036 0.54427 0.09400
C 	C 	0.34002 0.79471 0.52944 -0.09600
C 	C 	0.30138 0.85259 0.53388 0.09700
Br	Br	0.18585 0.78621 0.53509 -0.13700
Br	Br	0.30062 0.04453 0.53076 -0.17000
Br	Br	0.45569 0.73837 0.55247 -0.16100
Br	Br	0.56100 0.98648 0.57402 -0.20100
C 	C 	0.94760 0.58168 0.48925 0.08300
C 	C 	0.88978 0.47769 0.48684 -0.10700
C 	C 	0.89561 0.42055 0.46105 0.10800
C 	C 	0.96784 0.45954 0.44309 0.08000
C 	C 	0.02927 0.56074 0.44771 -0.08500
C 	C 	0.01420 0.62451 0.46782 0.13000
Br	Br	0.07851 0.76996 0.46281 -0.14700
Br	Br	0.93495 0.66522 0.52121 -0.16100
Br	Br	0.98295 0.37354 0.41283 -0.20700
Br	Br	0.80228 0.29741 0.44719 -0.22300
C 	C 	0.55558 0.62326 0.47678 0.10700
C 	C 	0.49008 0.57775 0.45517 -0.09400
C 	C 	0.47234 0.48375 0.44141 0.10700
C 	C 	0.49704 0.42030 0.45673 0.10200
C 	C 	0.55635 0.46084 0.48095 -0.09600
C 	C 	0.59130 0.56589 0.48834 0.10300
Br	Br	0.69125 0.63262 0.51188 -0.15100
Br	Br	0.60446 0.76622 0.48671 -0.16200
Br	Br	0.44211 0.27673 0.44689 -0.16700
Br	Br	0.41856 0.44496 0.40080 -0.20900
C 	C 	0.89209 0.06905 0.58200 -0.00900
C 	C 	0.93225 0.15967 0.56389 -0.03000
C 	C 	0.88881 0.18582 0.54224 -0.00200
C 	C 	0.95057 0.05825 0.63905 -0.09100
C 	C 	0.76952 0.02391 0.55229 -0.02800
C 	C 	0.81247 0.99736 0.57407 0.01000
C 	C 	0.92478 0.06110 0.61266 0.05500
C 	C 	0.80464 0.12399 0.54011 -0.03800
H 	H 	0.99497 0.21384 0.56865 0.04900
H 	H 	0.91823 0.26078 0.53102 0.05300
H 	H 	0.70609 0.97142 0.54837 0.09200
H 	H 	0.78178 0.92473 0.58668 0.06100
C 	C 	0.46130 0.13487 0.70017 0.02200
C 	C 	0.44764 0.20954 0.71418 -0.05400
C 	C 	0.36892 0.19370 0.71686 0.02000
C 	C 	0.57275 0.19532 0.65506 -0.08800
C 	C 	0.31638 0.01995 0.69884 0.00600
C 	C 	0.39543 0.03642 0.69622 -0.06200
C 	C 	0.52830 0.16805 0.67815 0.04500
C 	C 	0.30323 0.10088 0.70699 -0.08100
H 	H 	0.49816 0.28429 0.71917 0.05300
H 	H 	0.35934 0.25478 0.72542 0.04500
H 	H 	0.26600 0.94612 0.69289 0.06000
H 	H 	0.40531 0.97613 0.68709 0.07400
C 	C 	0.81692 0.58100 0.68395 0.00600
C 	C 	0.89923 0.61013 0.68277 -0.03100
C 	C 	0.95148 0.67613 0.70605 -0.02400
C 	C 	0.73375 0.51535 0.63012 -0.10200
C 	C 	0.83767 0.66796 0.73480 0.00200
C 	C 	0.78524 0.60310 0.71135 -0.04200
C 	C 	0.76931 0.54478 0.65519 0.05800
C 	C 	0.92158 0.71561 0.72963 -0.06000
H 	H 	0.92374 0.58895 0.66243 0.04800
H 	H 	0.01608 0.70752 0.70299 0.07400
H 	H 	0.81354 0.69289 0.75431 0.03500
H 	H 	0.72107 0.57673 0.71330 0.05000
C 	C 	0.13538 0.67139 0.92608 0.09300
C 	C 	0.16308 0.70733 0.95734 -0.08400
C 	C 	0.11121 0.72047 0.97862 0.08500
C 	C 	0.02744 0.66727 0.97328 0.16100
C 	C 	0.99730 0.61390 0.94413 -0.17600
C 	C 	0.05195 0.62207 0.91964 0.14500
Br	Br	0.01246 0.56079 0.87819 -0.17900
Br	Br	0.21195 0.69127 0.89235 -0.17100
Br	Br	0.95492 0.66375 0.00648 -0.23800
Br	Br	0.15516 0.82179 0.01186 -0.16800
C 	C 	0.58943 0.91839 0.97256 0.11500
C 	C 	0.52428 0.90984 0.99178 -0.10500
C 	C 	0.53499 0.99667 0.00890 0.12900
C 	C 	0.61163 0.08282 0.01031 0.09500
C 	C 	0.66821 0.10015 0.98589 -0.10800
C 	C 	0.65967 0.01525 0.96825 0.08600
Br	Br	0.74627 0.02994 0.94038 -0.20500
Br	Br	0.58623 0.79892 0.95436 -0.18100
Br	Br	0.64466 0.16045 0.04922 -0.17300
Br	Br	0.44387 0.00559 0.02558 -0.19600
C 	C 	0.44466 0.27860 0.97905 0.09100
C 	C 	0.50307 0.29135 0.00173 -0.08000
C 	C 	0.50156 0.33357 0.03180 0.10500
C 	C 	0.46071 0.38958 0.03497 0.10400
C 	C 	0.41847 0.39837 0.00848 -0.10500
C 	C 	0.40980 0.34153 0.98039 0.10400
Br	Br	0.35952 0.35896 0.94260 -0.21100
Br	Br	0.40226 0.16434 0.95043 -0.17800
Br	Br	0.46679 0.45926 0.07464 -0.19700
Br	Br	0.55479 0.31416 0.06823 -0.15300
C 	C 	0.83920 0.32064 0.78102 0.00600
C 	C 	0.80288 0.24444 0.75788 -0.04300
C 	C 	0.85117 0.22109 0.73814 0.00400
C 	C 	0.76939 0.30982 0.83693 -0.09700
C 	C 	0.97120 0.36126 0.76050 -0.02900
C 	C 	0.92296 0.38647 0.77961 -0.03300
C 	C 	0.79722 0.31242 0.81064 0.05700
C 	C 	0.93509 0.27097 0.74282 -0.05600
H 	H 	0.73778 0.19653 0.75753 0.05100
H 	H 	0.82290 0.15508 0.72267 0.04100
H 	H 	0.03633 0.40422 0.76276 0.07200
H 	H 	0.95130 0.44963 0.79618 0.05600
C 	C 	0.39947 0.39105 0.83912 0.02700
C 	C 	0.41260 0.42870 0.80739 -0.05200
C 	C 	0.34859 0.39042 0.78564 0.01900
C 	C 	0.51907 0.39134 0.87112 -0.07400
C 	C 	0.25641 0.28948 0.82849 0.01900
C 	C 	0.32034 0.32721 0.85017 -0.04900
C 	C 	0.46554 0.39503 0.85691 0.05500
C 	C 	0.27164 0.31420 0.79565 -0.07300
H 	H 	0.47337 0.48027 0.79882 0.05500
H 	H 	0.36052 0.41223 0.76041 0.04000
H 	H 	0.19656 0.23271 0.83661 0.04200
H 	H 	0.30934 0.29847 0.87470 0.07900
C 	C 	0.89321 0.89670 0.90678 0.07100
C 	C 	0.84500 0.90395 0.88242 -0.07800
C 	C 	0.87687 0.93725 0.85132 0.04800
C 	C 	0.81734 0.73571 0.94472 -0.06300
C 	C 	0.00906 0.97607 0.87056 0.12700
C 	C 	0.97654 0.94061 0.90140 -0.14700
C 	C 	0.85494 0.81564 0.93038 0.03500
C 	C 	0.95810 0.96725 0.84471 -0.12900
H 	H 	0.78087 0.87372 0.88664 0.08100
H 	H 	0.83756 0.93534 0.83219 0.03800
H 	H 	0.07297 0.00470 0.86643 0.01900
H 	H 	0.01504 0.93867 0.92026 0.11000
