data_crystal

_cell_length_a 18.51814
_cell_length_b 18.86488
_cell_length_c 33.77935
_cell_angle_alpha 95.45303
_cell_angle_beta  95.45391
_cell_angle_gamma 126.44971

_symmetry_space_group_name_	'P 1'
_symmetry_space_group_name_H-M	'P 1'

loop_
_symmetry_equiv_pos_as_xyz
  x,y,z

loop_
_atom_site_label
_atom_site_type_symbol
_atom_site_fract_x
_atom_site_fract_y
_atom_site_fract_z
_atom_site_charge
C 	C 	0.89396 0.96733 0.95885 0.14600
N 	N 	0.98625 0.01677 0.96293 -0.14400
C 	C 	0.02713 0.97646 0.96505 0.16200
N 	N 	0.97596 0.88675 0.96322 -0.14500
C 	C 	0.88394 0.83645 0.95892 0.14400
N 	N 	0.84232 0.87666 0.95710 -0.14000
C 	C 	0.96488 0.06893 0.50395 0.12700
N 	N 	0.05677 0.11347 0.50847 -0.12800
C 	C 	0.09073 0.06660 0.50459 0.13900
N 	N 	0.03319 0.97572 0.49701 -0.13000
C 	C 	0.94155 0.93103 0.49205 0.13600
N 	N 	0.90751 0.97783 0.49484 -0.13400
Cu	Cu	0.72867 0.30618 0.94981 0.92300
Cu	Cu	0.78684 0.28419 0.04424 0.88000
Cu	Cu	0.59923 0.24743 0.01071 0.90100
Cu	Cu	0.55059 0.29729 0.93317 0.90000
C 	C 	0.65502 0.30026 0.86961 0.26400
O 	O 	0.78440 0.43861 0.94993 -0.35700
C 	C 	0.67925 0.29168 0.09694 0.26100
O 	O 	0.58982 0.23393 0.95327 -0.63900
O 	O 	0.73408 0.32428 0.00952 -0.63500
O 	O 	0.77565 0.23295 0.94304 -0.35400
O 	O 	0.85126 0.27123 0.00779 -0.41300
O 	O 	0.57988 0.28678 0.87842 -0.37100
O 	O 	0.46799 0.17401 0.00674 -0.36900
C 	C 	0.41598 0.18462 0.98264 0.30700
C 	C 	0.74216 0.47167 0.96143 0.30000
O 	O 	0.66382 0.41979 0.97297 -0.38700
O 	O 	0.45213 0.25560 0.96541 -0.39400
O 	O 	0.69821 0.27709 0.89172 -0.35100
C 	C 	0.80835 0.21411 0.97330 0.29300
O 	O 	0.60719 0.23514 0.06793 -0.37900
O 	O 	0.76240 0.33041 0.08978 -0.40600
H 	H 	0.55138 0.17018 0.93961 0.16200
H 	H 	0.76196 0.38753 0.02076 0.16800
Cu	Cu	0.64056 0.25010 0.51612 0.92800
Cu	Cu	0.69840 0.23129 0.42903 0.87300
Cu	Cu	0.67403 0.37048 0.45408 0.89900
Cu	Cu	0.63305 0.41117 0.53316 0.89800
C 	C 	0.66736 0.33124 0.59831 0.26400
O 	O 	0.50670 0.19234 0.51746 -0.36200
C 	C 	0.63949 0.28836 0.36782 0.26100
O 	O 	0.70657 0.38532 0.51168 -0.63800
O 	O 	0.61834 0.24231 0.45675 -0.63800
O 	O 	0.70477 0.19429 0.51827 -0.35900
O 	O 	0.79228 0.27466 0.47397 -0.44200
O 	O 	0.62499 0.36308 0.58411 -0.37600
O 	O 	0.73415 0.49718 0.45562 -0.37100
C 	C 	0.72954 0.54990 0.48223 0.31200
C 	C 	0.46595 0.22273 0.50012 0.30100
O 	O 	0.51552 0.30148 0.48972 -0.38300
O 	O 	0.67349 0.51731 0.50827 -0.39300
O 	O 	0.67935 0.28125 0.57396 -0.35400
C 	C 	0.77731 0.22559 0.50166 0.30500
O 	O 	0.66385 0.35876 0.39439 -0.37000
O 	O 	0.63082 0.21949 0.37954 -0.41200
H 	H 	0.77286 0.42911 0.52293 0.17000
H 	H 	0.55338 0.19992 0.44311 0.17600
C 	C 	0.63652 0.33835 0.69884 0.08100
C 	C 	0.64211 0.37869 0.73724 -0.08200
C 	C 	0.63145 0.33250 0.76901 0.01600
C 	C 	0.63135 0.25868 0.76436 0.07800
C 	C 	0.63892 0.22593 0.72707 -0.07900
C 	C 	0.63293 0.26252 0.69371 0.01200
N 	N 	0.66792 0.38256 0.66830 -0.15200
C 	C 	0.68081 0.33344 0.64226 0.00600
C 	C 	0.66394 0.26033 0.65828 -0.04200
N 	N 	0.65863 0.24899 0.80045 -0.15100
C 	C 	0.67294 0.31451 0.82856 0.01400
C 	C 	0.66082 0.37021 0.80963 -0.04400
H 	H 	0.65832 0.44464 0.74248 0.05900
H 	H 	0.65268 0.17749 0.72457 0.05800
H 	H 	0.65111 0.20114 0.64118 0.05700
H 	H 	0.65029 0.41611 0.82440 0.05700
H 	H 	0.66200 0.43194 0.66137 0.08900
H 	H 	0.64568 0.18945 0.80645 0.09400
C 	C 	0.64510 0.23987 0.19365 0.07500
C 	C 	0.59393 0.19305 0.22249 -0.08100
C 	C 	0.63122 0.23534 0.26327 0.01000
C 	C 	0.70637 0.32484 0.27415 0.07400
C 	C 	0.75002 0.37538 0.24469 -0.08100
C 	C 	0.72263 0.32853 0.20474 0.01000
N 	N 	0.60982 0.22098 0.15410 -0.15100
C 	C 	0.66640 0.29624 0.13918 0.00300
C 	C 	0.73505 0.36568 0.17039 -0.04500
N 	N 	0.70710 0.36024 0.31079 -0.15200
C 	C 	0.63466 0.29251 0.32448 0.00200
C 	C 	0.58332 0.21487 0.29456 -0.04400
H 	H 	0.52669 0.12898 0.21348 0.05600
H 	H 	0.79969 0.44780 0.25217 0.05400
H 	H 	0.79804 0.42715 0.16652 0.04800
H 	H 	0.53323 0.14751 0.29954 0.04800
H 	H 	0.56419 0.15619 0.13680 0.09000
H 	H 	0.76495 0.41896 0.32916 0.08400
C 	C 	0.87954 0.83176 0.48385 -0.04000
C 	C 	0.90743 0.78463 0.46469 -0.09200
C 	C 	0.85722 0.69199 0.46251 0.18200
C 	C 	0.77665 0.64490 0.47874 -0.11400
C 	C 	0.74484 0.69095 0.49482 -0.04500
C 	C 	0.79624 0.78385 0.49798 0.13900
H 	H 	0.96980 0.82032 0.45252 0.07200
O 	O 	0.88992 0.64879 0.44667 -0.28900
H 	H 	0.68139 0.65509 0.50613 0.06500
O 	O 	0.76784 0.82815 0.51725 -0.27400
H 	H 	0.72674 0.82735 0.49579 0.14900
H 	H 	0.86449 0.63076 0.41721 0.15300
C 	C 	0.92701 0.11877 0.50961 -0.03600
C 	C 	0.85185 0.08455 0.52908 -0.09600
C 	C 	0.80596 0.12263 0.52929 0.18200
C 	C 	0.83489 0.19568 0.50953 -0.12500
C 	C 	0.91523 0.23481 0.49338 -0.04700
C 	C 	0.95999 0.19566 0.49256 0.12700
H 	H 	0.82760 0.02696 0.54334 0.07800
O 	O 	0.73121 0.08627 0.54755 -0.28300
H 	H 	0.94098 0.29357 0.47986 0.05500
O 	O 	0.03498 0.23185 0.47445 -0.26800
H 	H 	0.01031 0.20137 0.44562 0.14300
H 	H 	0.75588 0.11906 0.57602 0.15600
C 	C 	0.18865 0.11346 0.50546 -0.04100
C 	C 	0.22665 0.15284 0.47261 -0.08800
C 	C 	0.31535 0.18367 0.46940 0.17900
C 	C 	0.36815 0.17809 0.50003 -0.11700
C 	C 	0.32999 0.13877 0.53297 -0.04500
C 	C 	0.24077 0.10681 0.53581 0.14000
H 	H 	0.18620 0.15669 0.44878 0.07100
O 	O 	0.35061 0.21983 0.43645 -0.28500
H 	H 	0.37018 0.13483 0.55688 0.06600
O 	O 	0.20374 0.06700 0.56777 -0.27400
H 	H 	0.21878 0.11639 0.58893 0.15000
H 	H 	0.33416 0.16861 0.41609 0.14400
C 	C 	0.78133 0.56656 0.96096 -0.11800
C 	C 	0.77741 0.61626 0.99329 -0.04800
C 	C 	0.80105 0.70137 0.99094 0.13700
C 	C 	0.83050 0.73855 0.95634 -0.04400
C 	C 	0.83130 0.68757 0.92343 -0.09000
C 	C 	0.80761 0.60237 0.92571 0.17800
H 	H 	0.75555 0.58867 0.02026 0.05900
O 	O 	0.80074 0.75035 0.02356 -0.27700
H 	H 	0.85418 0.71570 0.89667 0.07100
O 	O 	0.80655 0.55290 0.89284 -0.29500
H 	H 	0.86905 0.56978 0.89639 0.15500
H 	H 	0.73881 0.73485 0.01893 0.14800
C 	C 	0.85093 0.01306 0.95714 -0.04400
C 	C 	0.81241 0.01982 0.98974 -0.09600
C 	C 	0.79521 0.08312 0.99437 0.17600
C 	C 	0.81497 0.13933 0.96576 -0.11800
C 	C 	0.84688 0.12770 0.93152 -0.04100
C 	C 	0.86470 0.06484 0.92709 0.13800
H 	H 	0.80026 0.97941 0.01270 0.07400
O 	O 	0.75800 0.08908 0.02658 -0.32100
H 	H 	0.86115 0.16956 0.90904 0.06600
O 	O 	0.90026 0.05764 0.89447 -0.27500
H 	H 	0.84650 0.01031 0.87339 0.14800
H 	H 	0.81080 0.13150 0.04900 0.13000
C 	C 	0.12687 0.02979 0.96963 -0.04800
C 	C 	0.18368 0.10505 0.00089 -0.08500
C 	C 	0.27870 0.15383 0.00657 0.18800
C 	C 	0.31732 0.12675 0.98114 -0.11800
C 	C 	0.26060 0.05102 0.95024 -0.04600
C 	C 	0.16571 0.00249 0.94436 0.14000
H 	H 	0.15418 0.12545 0.02092 0.07300
O 	O 	0.33370 0.22720 0.03732 -0.28600
H 	H 	0.29026 0.03114 0.93004 0.04700
O 	O 	0.11127 0.93120 0.91262 -0.27200
H 	H 	0.09894 0.87848 0.92326 0.15100
H 	H 	0.34648 0.27880 0.02541 0.15400
