data_crystal

_cell_length_a 26.88348
_cell_length_b 27.99073
_cell_length_c 32.03960
_cell_angle_alpha 60.99196
_cell_angle_beta  118.73141
_cell_angle_gamma 133.22591

_symmetry_space_group_name_	'P 1'
_symmetry_space_group_name_H-M	'P 1'

loop_
_symmetry_equiv_pos_as_xyz
  x,y,z

loop_
_atom_site_label
_atom_site_type_symbol
_atom_site_fract_x
_atom_site_fract_y
_atom_site_fract_z
_atom_site_charge
N 	N 	0.67094 0.24863 0.05150 -0.14000
C 	C 	0.66326 0.26826 0.07808 0.12600
C 	C 	0.67207 0.29337 0.57559 0.12500
N 	N 	0.67893 0.27166 0.55016 -0.13800
C 	C 	0.27753 0.63845 0.26354 0.12100
N 	N 	0.23763 0.57298 0.26221 -0.13700
C 	C 	0.25847 0.55400 0.24562 0.12200
N 	N 	0.31846 0.60081 0.22933 -0.14000
C 	C 	0.35813 0.66634 0.23013 0.12300
N 	N 	0.33816 0.68495 0.24786 -0.13900
C 	C 	0.29419 0.66711 0.76459 0.12100
N 	N 	0.36280 0.70918 0.76302 -0.13900
C 	C 	0.39134 0.68638 0.75931 0.12300
N 	N 	0.35113 0.62153 0.75684 -0.14000
C 	C 	0.28213 0.57971 0.75708 0.12200
N 	N 	0.25354 0.60257 0.76081 -0.13800
Co	Co	0.08931 0.96813 0.16014 1.18000
Co	Co	0.02697 0.01722 0.18498 1.17900
C 	C 	0.10307 0.85358 0.20722 0.29500
Co	Co	0.08035 0.89615 0.09803 1.16100
O 	O 	0.99974 0.10576 0.19676 -0.36800
C 	C 	0.05519 0.14489 0.17880 0.26800
O 	O 	0.10736 0.01185 0.20563 -0.45900
C 	C 	0.20726 0.03096 0.11850 0.32100
O 	O 	0.08113 0.11925 0.17746 -0.38100
O 	O 	0.18491 0.96987 0.12377 -0.41600
O 	O 	0.18514 0.04061 0.14061 -0.38200
O 	O 	0.99364 0.95982 0.25036 -0.38900
O 	O 	0.04658 0.93617 0.11093 -0.77800
O 	O 	0.07670 0.83283 0.16768 -0.39800
O 	O 	0.08247 0.88270 0.21072 -0.40200
O 	O 	0.07884 0.96012 0.02906 -0.38600
Co	Co	0.09692 0.99379 0.65491 1.17800
Co	Co	0.03253 0.04313 0.67711 1.17900
C 	C 	0.11068 0.87875 0.70418 0.29400
Co	Co	0.09033 0.92085 0.59507 1.16100
O 	O 	0.98764 0.14745 0.63822 -0.36300
C 	C 	0.05419 0.17395 0.66165 0.26200
O 	O 	0.11419 0.03918 0.69878 -0.46100
C 	C 	0.21602 0.05621 0.61484 0.32200
O 	O 	0.08384 0.14412 0.67372 -0.37400
O 	O 	0.19432 0.99498 0.62130 -0.41700
O 	O 	0.19287 0.06648 0.63554 -0.38300
O 	O 	0.99681 0.98404 0.74109 -0.41400
O 	O 	0.05505 0.96089 0.60623 -0.77800
O 	O 	0.08488 0.85789 0.66481 -0.39900
O 	O 	0.09077 0.90914 0.70681 -0.40200
O 	O 	0.08935 0.98373 0.52552 -0.39200
C 	C 	0.16559 0.42946 0.69802 0.00100
C 	C 	0.10739 0.37402 0.67758 -0.05700
C 	C 	0.11181 0.32184 0.68864 0.01500
C 	C 	0.17008 0.32291 0.72247 -0.00000
C 	C 	0.22839 0.37847 0.74281 -0.05700
C 	C 	0.22410 0.43083 0.73156 0.02400
S 	S 	0.16424 0.48306 0.70584 0.00100
C 	C 	0.23781 0.51126 0.75047 -0.01900
C 	C 	0.26545 0.47750 0.76065 -0.04600
S 	S 	0.17142 0.26923 0.71472 0.02600
C 	C 	0.09839 0.24173 0.66957 -0.06600
C 	C 	0.07085 0.27564 0.65925 -0.02900
H 	H 	0.06170 0.37276 0.65259 0.04200
H 	H 	0.27410 0.37977 0.76776 0.04900
H 	H 	0.31393 0.48708 0.78730 0.04900
H 	H 	0.02302 0.26695 0.63198 0.03700
C 	C 	0.55870 0.75516 0.74282 0.02400
C 	C 	0.55649 0.80851 0.70627 0.00100
S 	S 	0.48982 0.80096 0.70662 0.00300
C 	C 	0.46382 0.73319 0.75399 -0.02000
C 	C 	0.50647 0.71247 0.76975 -0.04600
H 	H 	0.57991 0.87988 0.63654 0.04500
H 	H 	0.49376 0.66368 0.79410 0.04900
C 	C 	0.19332 0.69834 0.79431 -0.00100
C 	C 	0.13932 0.70102 0.78663 -0.05400
C 	C 	0.15749 0.76177 0.78619 0.01100
C 	C 	0.22801 0.81871 0.79151 0.00500
C 	C 	0.28036 0.81844 0.79220 -0.06200
C 	C 	0.26260 0.75715 0.79443 0.02500
S 	S 	0.18249 0.64429 0.77636 0.00100
C 	C 	0.26366 0.69214 0.76894 -0.01900
C 	C 	0.30267 0.75322 0.78096 -0.04900
S 	S 	0.22819 0.88648 0.76642 0.00800
C 	C 	0.14162 0.84825 0.74971 -0.07400
C 	C 	0.10912 0.77830 0.76336 -0.01700
H 	H 	0.08481 0.65906 0.77768 0.04200
H 	H 	0.33159 0.86524 0.78733 0.04700
H 	H 	0.35642 0.79438 0.77777 0.05000
H 	H 	0.05380 0.74234 0.74916 0.04000
C 	C 	0.13688 0.37963 0.21452 0.00100
C 	C 	0.09333 0.34112 0.17971 -0.05600
C 	C 	0.11527 0.31142 0.17444 0.01600
C 	C 	0.18182 0.32526 0.20042 0.00000
C 	C 	0.22575 0.36463 0.23476 -0.05700
C 	C 	0.20339 0.39368 0.24032 0.02500
S 	S 	0.13689 0.43960 0.21351 0.00100
C 	C 	0.21826 0.48252 0.24777 -0.01800
C 	C 	0.24955 0.45183 0.25898 -0.04700
S 	S 	0.17970 0.26259 0.20411 0.02900
C 	C 	0.09757 0.21828 0.17122 -0.06900
C 	C 	0.06795 0.25144 0.15777 -0.02500
H 	H 	0.04282 0.33207 0.15906 0.04300
H 	H 	0.27610 0.37342 0.25567 0.05000
H 	H 	0.30538 0.47556 0.27366 0.05100
H 	H 	0.01208 0.22788 0.14375 0.03300
C 	C 	0.52906 0.73789 0.15575 -0.05800
C 	C 	0.50515 0.74812 0.17895 0.02400
C 	C 	0.55045 0.77972 0.21800 0.00000
S 	S 	0.50192 0.76132 0.24877 0.00600
C 	C 	0.42312 0.71675 0.21270 -0.02000
C 	C 	0.43325 0.71234 0.17590 -0.04700
H 	H 	0.49524 0.71572 0.12441 0.04900
H 	H 	0.39093 0.67743 0.15262 0.05000
C 	C 	0.22333 0.79609 0.29320 0.00500
C 	C 	0.27469 0.79414 0.29424 -0.06100
C 	C 	0.25681 0.73108 0.30071 0.02500
C 	C 	0.18803 0.67251 0.30318 -0.00100
C 	C 	0.13440 0.67638 0.29432 -0.05400
C 	C 	0.15306 0.73878 0.29069 0.01100
S 	S 	0.22303 0.86372 0.26597 0.00900
C 	C 	0.13654 0.82493 0.25207 -0.07500
C 	C 	0.10441 0.75495 0.26790 -0.01600
S 	S 	0.17618 0.61362 0.29072 0.00300
C 	C 	0.25744 0.65790 0.28492 -0.01800
C 	C 	0.29607 0.72308 0.29016 -0.04900
H 	H 	0.32527 0.84038 0.28732 0.04700
H 	H 	0.07980 0.63356 0.28755 0.04300
H 	H 	0.04864 0.71806 0.25564 0.04000
H 	H 	0.34681 0.76476 0.28130 0.05000
C 	C 	0.51318 0.25141 0.59474 0.00100
C 	C 	0.46628 0.23326 0.61648 -0.05200
C 	C 	0.39478 0.19777 0.59289 0.01500
C 	C 	0.37157 0.17708 0.55096 0.00200
C 	C 	0.41762 0.18595 0.53436 -0.05700
C 	C 	0.48947 0.22553 0.55587 0.02700
S 	S 	0.59445 0.27404 0.62267 0.01300
C 	C 	0.60402 0.25485 0.58604 -0.01900
C 	C 	0.54051 0.22777 0.55064 -0.04600
S 	S 	0.28649 0.11426 0.54470 0.03300
C 	C 	0.27494 0.11419 0.59159 -0.08100
C 	C 	0.34025 0.16216 0.61591 -0.01200
H 	H 	0.48425 0.24389 0.65131 0.04900
H 	H 	0.39804 0.16043 0.50750 0.05100
H 	H 	0.53260 0.21339 0.52092 0.05200
H 	H 	0.34982 0.16422 0.65213 0.04500
C 	C 	0.50522 0.22288 0.10080 0.00100
C 	C 	0.45863 0.20409 0.12319 -0.05100
C 	C 	0.38738 0.17088 0.09890 0.01500
C 	C 	0.36395 0.15270 0.05564 0.00300
C 	C 	0.40945 0.16208 0.03804 -0.05700
C 	C 	0.48124 0.19977 0.06028 0.02700
S 	S 	0.58589 0.24384 0.12831 0.01400
C 	C 	0.59522 0.22783 0.08929 -0.01900
C 	C 	0.53177 0.20281 0.05347 -0.04600
S 	S 	0.27834 0.09146 0.04808 0.03400
C 	C 	0.26698 0.08926 0.09612 -0.08100
C 	C 	0.33266 0.13500 0.12182 -0.01200
H 	H 	0.47659 0.21266 0.15886 0.05000
H 	H 	0.38946 0.13848 0.00974 0.05100
H 	H 	0.52385 0.19103 0.02225 0.05200
H 	H 	0.34208 0.13509 0.15868 0.04600
C 	C 	0.73067 0.29053 0.03540 0.12200
N 	N 	0.71552 0.32964 0.08866 -0.13800
C 	C 	0.77413 0.37248 0.07130 0.12700
N 	N 	0.78156 0.35295 0.04455 -0.13400
C 	C 	0.73858 0.31173 0.53443 0.12400
N 	N 	0.79049 0.37452 0.54293 -0.13700
C 	C 	0.78391 0.39612 0.56864 0.12600
N 	N 	0.72519 0.35504 0.58554 -0.13800
Co	Co	0.90017 0.95858 0.10840 1.18400
Co	Co	0.96482 0.91411 0.08169 1.19500
Co	Co	0.90280 0.02681 0.16772 1.17400
C 	C 	0.01953 0.94965 0.99805 0.25700
O 	O 	0.94988 0.00523 0.14931 -0.74000
O 	O 	0.87885 0.90823 0.06675 -0.46400
C 	C 	0.86713 0.06322 0.05832 0.29900
O 	O 	0.00800 0.98948 0.12044 -0.60400
C 	C 	0.96200 0.96795 0.26506 0.31800
C 	C 	0.92829 0.78267 0.09363 0.30700
O 	O 	0.90555 0.08786 0.09753 -0.38700
O 	O 	0.86140 0.01420 0.05457 -0.36400
O 	O 	0.90432 0.96309 0.23692 -0.39900
O 	O 	0.97895 0.81859 0.07156 -0.39100
O 	O 	0.92167 0.81240 0.11020 -0.39300
C 	C 	0.78673 0.88609 0.15563 0.30400
O 	O 	0.80189 0.94632 0.14312 -0.41100
O 	O 	0.82712 0.87930 0.15042 -0.39800
O 	O 	0.97323 0.94177 0.01057 -0.34900
Co	Co	0.90576 0.98111 0.60141 1.18100
Co	Co	0.97345 0.93889 0.57573 1.19300
Co	Co	0.90822 0.04839 0.66280 1.17200
C 	C 	0.02977 0.97210 0.49428 0.27100
O 	O 	0.95417 0.02752 0.64248 -0.74300
O 	O 	0.88706 0.93321 0.55904 -0.46600
C 	C 	0.85707 0.06971 0.55394 0.30500
O 	O 	0.01457 0.01375 0.61403 -0.58600
C 	C 	0.98289 0.00488 0.76045 0.37400
C 	C 	0.93804 0.80717 0.58923 0.30700
O 	O 	0.83888 0.04572 0.59481 -0.40200
O 	O 	0.87994 0.04560 0.54683 -0.37300
O 	O 	0.97171 0.05122 0.73352 -0.40200
O 	O 	0.98965 0.84294 0.56817 -0.39200
O 	O 	0.93000 0.83705 0.60448 -0.39400
C 	C 	0.79715 0.90408 0.65821 0.29300
O 	O 	0.83399 0.94583 0.68631 -0.39400
O 	O 	0.82891 0.89898 0.64097 -0.39200
O 	O 	0.98436 0.96719 0.50535 -0.35500
C 	C 	0.99081 0.98563 0.81260 -0.14200
C 	C 	0.99670 0.97407 0.85566 0.09700
C 	C 	0.00349 0.96421 0.90533 -0.02600
C 	C 	0.01000 0.95740 0.94749 -0.06900
C 	C 	0.98071 0.96675 0.31570 -0.11000
C 	C 	0.99364 0.96773 0.35711 0.07900
C 	C 	0.00668 0.96995 0.40479 -0.01400
C 	C 	0.01711 0.97162 0.44536 -0.07700
C 	C 	0.62411 0.76941 0.70142 -0.00100
C 	C 	0.59484 0.73650 0.74169 -0.05600
C 	C 	0.58392 0.84015 0.66536 -0.05600
C 	C 	0.62077 0.82213 0.66431 0.01800
S 	S 	0.69545 0.78214 0.70391 0.03500
C 	C 	0.72258 0.85110 0.65748 -0.07400
C 	C 	0.67550 0.86741 0.63922 -0.02400
H 	H 	0.59916 0.69707 0.77076 0.04900
H 	H 	0.68757 0.91629 0.61551 0.03600
C 	C 	0.59757 0.75591 0.17489 0.00200
C 	C 	0.61832 0.79643 0.23786 -0.05500
C 	C 	0.64274 0.78697 0.21440 0.01700
S 	S 	0.64697 0.78031 0.14184 0.02600
C 	C 	0.72592 0.82700 0.17677 -0.07300
C 	C 	0.71482 0.82642 0.21569 -0.01900
H 	H 	0.65219 0.81911 0.26894 0.04800
H 	H 	0.75609 0.86211 0.23852 0.04500
C 	C 	0.84253 0.21880 0.48169 0.00300
C 	C 	0.85720 0.27463 0.48679 -0.05600
C 	C 	0.80058 0.27207 0.48159 0.02700
C 	C 	0.73160 0.21336 0.47407 0.00100
C 	C 	0.71834 0.15434 0.47648 -0.05200
C 	C 	0.77448 0.15796 0.47914 0.01700
S 	S 	0.89875 0.19945 0.50673 0.03600
C 	C 	0.84116 0.11579 0.51312 -0.07400
C 	C 	0.77374 0.10018 0.49662 -0.01500
S 	S 	0.68238 0.21445 0.49047 0.01200
C 	C 	0.74416 0.28966 0.50443 -0.01800
C 	C 	0.80781 0.31513 0.49884 -0.04600
H 	H 	0.91087 0.31660 0.49761 0.05300
H 	H 	0.66727 0.10634 0.47949 0.05000
H 	H 	0.72748 0.04914 0.50495 0.04600
H 	H 	0.85823 0.35741 0.51291 0.05400
C 	C 	0.85937 0.58049 0.54966 0.00200
C 	C 	0.84321 0.62661 0.52905 -0.05200
C 	C 	0.84384 0.64822 0.56081 0.01800
C 	C 	0.85492 0.61985 0.61160 0.00100
C 	C 	0.86932 0.57235 0.63209 -0.05500
C 	C 	0.86855 0.55079 0.60021 0.02700
S 	S 	0.83229 0.52762 0.52116 0.01500
C 	C 	0.83365 0.46718 0.57052 -0.01800
C 	C 	0.85422 0.48708 0.61208 -0.04400
S 	S 	0.88684 0.67570 0.63947 0.03500
C 	C 	0.88450 0.73539 0.58968 -0.07500
C 	C 	0.85916 0.71244 0.54849 -0.01700
H 	H 	0.83353 0.64729 0.48973 0.05100
H 	H 	0.87919 0.55172 0.67141 0.05200
H 	H 	0.84737 0.45243 0.64797 0.05200
H 	H 	0.86432 0.74577 0.51205 0.04700
C 	C 	0.74914 0.12474 0.98309 -0.00100
C 	C 	0.70323 0.12963 0.98722 -0.05900
C 	C 	0.72535 0.19401 0.98212 0.03000
C 	C 	0.79301 0.25128 0.97511 0.00000
C 	C 	0.84217 0.24483 0.97856 -0.05100
C 	C 	0.81921 0.18087 0.98164 0.01300
S 	S 	0.74708 0.05588 0.00859 0.03900
C 	C 	0.83184 0.09266 0.01686 -0.07200
C 	C 	0.86559 0.16282 0.00054 -0.01000
S 	S 	0.81369 0.31213 0.99133 0.00900
C 	C 	0.73804 0.27063 0.00488 -0.00600
C 	C 	0.69436 0.20474 0.99912 -0.06200
H 	H 	0.65413 0.08458 0.99741 0.05000
H 	H 	0.89731 0.28696 0.98222 0.05100
H 	H 	0.92216 0.19905 0.00975 0.05000
H 	H 	0.64709 0.16409 0.01283 0.05900
C 	C 	0.84825 0.55616 0.05347 -0.00100
C 	C 	0.83251 0.60259 0.03269 -0.04400
C 	C 	0.83251 0.62394 0.06428 0.01500
C 	C 	0.84232 0.59482 0.11503 0.00200
C 	C 	0.85586 0.54666 0.13562 -0.05600
C 	C 	0.85596 0.52560 0.10389 0.02900
S 	S 	0.82246 0.50420 0.02472 0.01800
C 	C 	0.82273 0.44314 0.07391 -0.01800
C 	C 	0.84161 0.46195 0.11554 -0.04400
S 	S 	0.87453 0.65056 0.14313 0.03600
C 	C 	0.87395 0.71113 0.09351 -0.07600
C 	C 	0.84888 0.68856 0.05220 -0.01500
H 	H 	0.82391 0.62392 0.99342 0.04400
H 	H 	0.86471 0.52540 0.17488 0.05200
H 	H 	0.83381 0.42673 0.15116 0.05300
H 	H 	0.85499 0.72229 0.01594 0.04800
