data_crystal

_cell_length_a 27.46510
_cell_length_b 28.98349
_cell_length_c 43.92492
_cell_angle_alpha 60.91385
_cell_angle_beta  118.80420
_cell_angle_gamma 133.35189

_symmetry_space_group_name_	'P 1'
_symmetry_space_group_name_H-M	'P 1'

loop_
_symmetry_equiv_pos_as_xyz
  x,y,z

loop_
_atom_site_label
_atom_site_type_symbol
_atom_site_fract_x
_atom_site_fract_y
_atom_site_fract_z
_atom_site_charge
Co	Co	0.00512 0.05916 0.08741 1.18200
O 	O 	0.00408 0.95619 0.19723 -0.36100
Co	Co	0.01027 0.89559 0.62043 1.18900
O 	O 	0.01200 0.07021 0.54961 -0.47200
O 	O 	0.00863 0.91527 0.52072 -0.38200
C 	C 	0.00879 0.98566 0.71412 0.33500
O 	O 	0.00209 0.03303 0.69306 -0.43400
O 	O 	0.01217 0.95511 0.70100 -0.37700
C 	C 	0.00008 0.94186 0.85446 -0.07900
C 	C 	0.00757 0.95230 0.81964 0.11000
H 	H 	0.00471 0.02618 0.83836 0.00400
C 	C 	0.00812 0.97286 0.24804 -0.03300
C 	C 	0.01340 0.96520 0.31617 0.11400
C 	C 	0.01599 0.96068 0.35224 -0.08900
C 	C 	0.00329 0.97836 0.45964 -0.08300
H 	H 	0.03350 0.93323 0.37583 0.06500
O 	O 	0.01814 0.71253 0.63512 -0.28900
Co	Co	0.04847 0.00796 0.05849 1.16100
O 	O 	0.04344 0.08074 0.04891 -0.47100
O 	O 	0.02854 0.98612 0.11005 -0.55200
O 	O 	0.04197 0.93830 0.08255 -0.74400
Co	Co	0.03326 0.00932 0.55878 1.16300
O 	O 	0.03640 0.94481 0.58155 -0.74100
O 	O 	0.04066 0.83671 0.59205 -0.39300
C 	C 	0.02366 0.01701 0.94152 -0.03300
C 	C 	0.03030 0.02609 0.90888 -0.10200
C 	C 	0.01920 0.97127 0.75325 -0.05200
C 	C 	0.03996 0.02549 0.29066 -0.12000
C 	C 	0.03743 0.02927 0.25688 -0.02200
H 	H 	0.06439 0.75780 0.17868 0.06000
Co	Co	0.06559 0.90295 0.06390 1.17200
O 	O 	0.03570 0.11381 0.15191 -0.39500
C 	C 	0.03642 0.14426 0.62348 0.32500
O 	O 	0.05233 0.12058 0.61345 -0.39600
C 	C 	0.06399 0.02349 0.76979 -0.01200
C 	C 	0.05827 0.01410 0.80275 -0.12300
H 	H 	0.05750 0.05817 0.95339 0.03600
C 	C 	0.06015 0.99612 0.45297 0.05500
C 	C 	0.05698 0.99852 0.41943 -0.01300
H 	H 	0.06194 0.06931 0.29679 0.05800
H 	H 	0.05511 0.07549 0.23692 0.03900
H 	H 	0.02461 0.23424 0.08508 0.05700
H 	H 	0.07106 0.65867 0.18408 0.16600
Co	Co	0.00987 0.89165 0.11946 1.18900
O 	O 	0.08850 0.87986 0.15232 -0.37100
C 	C 	0.07055 0.16018 0.12687 0.32200
O 	O 	0.07545 0.14670 0.10382 -0.38100
Co	Co	0.08920 0.93514 0.56543 1.17800
H 	H 	0.06773 0.07453 0.89545 0.05000
H 	H 	0.07728 0.15599 0.69023 0.05600
H 	H 	0.06089 0.23345 0.70399 0.14000
H 	H 	0.06932 0.26300 0.56198 0.15100
O 	O 	0.07343 0.79175 0.69054 -0.29300
O 	O 	0.05925 0.33931 0.09171 -0.26400
H 	H 	0.08120 0.30442 0.19223 0.15100
O 	O 	0.09660 0.67630 0.20559 -0.26900
C 	C 	0.00208 0.96198 0.49709 0.29800
H 	H 	0.07672 0.37851 0.61464 0.07000
H 	H 	0.07228 0.46649 0.62808 0.14900
H 	H 	0.10105 0.07211 0.75627 0.03900
H 	H 	0.09277 0.05502 0.81488 0.05700
H 	H 	0.10628 0.00641 0.47412 -0.01300
H 	H 	0.10148 0.01268 0.41480 0.00400
C 	C 	0.09521 0.20205 0.67021 -0.03600
C 	C 	0.08946 0.20507 0.63585 -0.12400
H 	H 	0.08801 0.79855 0.71437 0.16100
C 	C 	0.07242 0.25758 0.10454 -0.03400
C 	C 	0.11733 0.78120 0.18024 -0.03000
C 	C 	0.12999 0.88437 0.14177 0.31900
O 	O 	0.10566 0.91417 0.65289 -0.37100
O 	O 	0.10934 0.48578 0.61755 -0.27600
C 	C 	0.11429 0.25536 0.67728 0.11900
C 	C 	0.11529 0.26590 0.61057 0.19500
O 	O 	0.10823 0.24784 0.70890 -0.28000
O 	O 	0.11408 0.27101 0.57751 -0.28400
H 	H 	0.11114 0.71812 0.70761 0.07800
H 	H 	0.10304 0.59733 0.63775 0.15100
C 	C 	0.09624 0.31393 0.11064 0.11400
C 	C 	0.10695 0.22836 0.12554 -0.12900
H 	H 	0.07825 0.37141 0.07022 0.15000
O 	O 	0.12675 0.99475 0.03344 -0.36400
C 	C 	0.12007 0.39966 0.63634 -0.09900
H 	H 	0.12845 0.71342 0.63938 0.08000
C 	C 	0.13169 0.81339 0.68470 0.19800
O 	O 	0.13004 0.32052 0.20074 -0.27800
C 	C 	0.14039 0.74283 0.19347 0.12700
O 	O 	0.14375 0.91922 0.10978 -0.36900
O 	O 	0.14403 0.03293 0.53864 -0.43800
O 	O 	0.13917 0.07500 0.56863 -0.41300
C 	C 	0.14135 0.45613 0.64128 0.16300
C 	C 	0.13699 0.31549 0.65146 0.01000
C 	C 	0.14011 0.32115 0.61868 -0.11300
O 	O 	0.00528 0.80728 0.09190 -0.41100
O 	O 	0.14405 0.64144 0.63020 -0.27600
O 	O 	0.15118 0.06303 0.05858 -0.38800
C 	C 	0.14750 0.91840 0.64300 0.31900
C 	C 	0.14579 0.76883 0.69479 -0.10400
C 	C 	0.15639 0.37216 0.65849 -0.00600
C 	C 	0.15515 0.34144 0.13786 0.01000
C 	C 	0.16057 0.84881 0.16611 -0.11700
O 	O 	0.16033 0.71722 0.13816 -0.27600
C 	C 	0.99793 0.98294 0.85947 0.01300
C 	C 	0.99032 0.97253 0.89424 0.07200
C 	C 	0.74041 0.31783 0.01726 0.14300
N 	N 	0.78261 0.37337 0.02895 -0.13500
C 	C 	0.75465 0.39386 0.03334 0.14300
N 	N 	0.68540 0.35928 0.02582 -0.14700
C 	C 	0.64367 0.30158 0.01711 0.14800
N 	N 	0.67107 0.28097 0.01256 -0.13100
C 	C 	0.69746 0.31143 0.50461 0.14300
N 	N 	0.75035 0.37257 0.51030 -0.13100
C 	C 	0.73700 0.41014 0.50996 0.15000
N 	N 	0.67104 0.38671 0.50358 -0.14000
C 	C 	0.61922 0.32315 0.50297 0.14800
N 	N 	0.63205 0.28588 0.50238 -0.13600
C 	C 	0.29765 0.63303 0.20547 0.15000
N 	N 	0.36678 0.66444 0.21368 -0.13300
C 	C 	0.39195 0.64113 0.20957 0.14600
N 	N 	0.34780 0.58551 0.19818 -0.14600
C 	C 	0.27899 0.55430 0.18970 0.14900
N 	N 	0.25379 0.57793 0.19337 -0.13900
C 	C 	0.25801 0.63754 0.67887 0.14800
N 	N 	0.32563 0.67544 0.67892 -0.14100
C 	C 	0.34864 0.65380 0.67148 0.15200
N 	N 	0.30387 0.59536 0.66312 -0.13400
C 	C 	0.23808 0.55471 0.66621 0.15400
N 	N 	0.21452 0.57595 0.67376 -0.13700
Co	Co	0.95997 0.93917 0.14591 1.19900
C 	C 	0.17163 0.04610 0.04667 0.26800
Co	Co	0.93329 0.03838 0.13846 1.15200
C 	C 	0.94290 0.77934 0.09257 0.32400
O 	O 	0.92718 0.10047 0.08879 -0.42200
O 	O 	0.97288 0.01187 0.12444 -0.79100
C 	C 	0.90025 0.08355 0.05887 0.32300
O 	O 	0.96808 0.86804 0.15676 -0.45800
C 	C 	0.82000 0.89994 0.13664 0.32000
C 	C 	0.98339 0.94124 0.99835 0.27200
O 	O 	0.91700 0.05438 0.05447 -0.40400
O 	O 	0.98309 0.89020 0.02079 -0.38300
O 	O 	0.98637 0.97873 0.00957 -0.34700
O 	O 	0.83552 0.95931 0.12270 -0.36900
O 	O 	0.85327 0.88537 0.13324 -0.38500
C 	C 	0.98380 0.97266 0.20976 0.30100
O 	O 	0.93401 0.97917 0.19009 -0.37200
O 	O 	0.93002 0.81092 0.09782 -0.39000
Co	Co	0.95040 0.92605 0.65204 1.18800
Co	Co	0.97421 0.04094 0.59052 1.16600
C 	C 	0.17360 0.07918 0.55336 0.33500
Co	Co	0.91684 0.01497 0.65129 1.15000
C 	C 	0.97563 0.79650 0.59324 0.32700
O 	O 	0.83675 0.99459 0.60671 -0.32600
O 	O 	0.94687 0.99043 0.62912 -0.72700
C 	C 	0.84917 0.03668 0.57567 0.25800
O 	O 	0.96759 0.86295 0.65991 -0.45300
C 	C 	0.82285 0.86923 0.66911 0.32400
O 	O 	0.96791 0.95382 0.59832 -0.56000
O 	O 	0.89194 0.04954 0.56150 -0.37700
O 	O 	0.99714 0.99584 0.50664 -0.34700
O 	O 	0.86176 0.92058 0.68176 -0.39600
O 	O 	0.84829 0.86074 0.65494 -0.37600
O 	O 	0.97257 0.11241 0.62370 -0.41800
O 	O 	0.16412 0.95648 0.61203 -0.36600
O 	O 	0.95090 0.81047 0.60434 -0.38000
C 	C 	0.97660 0.95430 0.95982 -0.02900
C 	C 	0.94021 0.91053 0.91139 -0.06500
C 	C 	0.93354 0.90148 0.94398 0.00800
C 	C 	0.96635 0.89908 0.80450 -0.08400
C 	C 	0.97201 0.90853 0.77146 0.02400
H 	H 	0.90660 0.86930 0.89963 0.05200
H 	H 	0.89645 0.85291 0.95751 0.04000
H 	H 	0.99334 0.89862 0.87555 0.05600
H 	H 	0.92846 0.85073 0.81774 0.05900
H 	H 	0.93686 0.86782 0.75908 0.03500
C 	C 	0.98558 0.91344 0.27435 0.02600
C 	C 	0.98860 0.90973 0.30829 -0.08200
C 	C 	0.99338 0.98660 0.35595 0.03900
C 	C 	0.99663 0.98270 0.39206 0.01300
C 	C 	0.94080 0.96778 0.39816 -0.04900
C 	C 	0.94394 0.96519 0.43187 0.02000
H 	H 	0.96243 0.86941 0.26795 0.04300
H 	H 	0.96985 0.86330 0.32807 0.06100
H 	H 	0.96982 0.00861 0.33225 -0.00900
H 	H 	0.89453 0.95704 0.37706 0.05800
H 	H 	0.89952 0.95096 0.43663 0.04400
C 	C 	0.21137 0.39899 0.68719 0.14100
C 	C 	0.23002 0.45310 0.69315 -0.06600
C 	C 	0.19865 0.48480 0.66885 -0.05700
O 	O 	0.25078 0.37617 0.70744 -0.26900
H 	H 	0.27357 0.47433 0.71479 0.07600
H 	H 	0.15924 0.36767 0.59896 0.08100
H 	H 	0.23401 0.34679 0.72975 0.15900
C 	C 	0.63067 0.76952 0.64650 -0.11100
C 	C 	0.62084 0.76020 0.67811 0.01200
C 	C 	0.67553 0.77438 0.70873 0.12000
C 	C 	0.74031 0.80129 0.70691 -0.02700
C 	C 	0.75228 0.81823 0.67412 -0.12300
C 	C 	0.69643 0.79947 0.64423 0.20100
C 	C 	0.55359 0.73631 0.67902 -0.00200
O 	O 	0.66606 0.76305 0.74028 -0.27400
H 	H 	0.78273 0.81389 0.73034 0.05900
O 	O 	0.70641 0.81229 0.61248 -0.28300
H 	H 	0.58796 0.75593 0.62329 0.07900
C 	C 	0.52821 0.77415 0.65751 0.13100
C 	C 	0.46280 0.74935 0.65736 -0.05900
C 	C 	0.42274 0.68715 0.67864 -0.06100
C 	C 	0.45072 0.65202 0.70234 0.17000
C 	C 	0.51503 0.67583 0.70177 -0.09500
O 	O 	0.56775 0.83570 0.63723 -0.26400
H 	H 	0.44217 0.77728 0.63961 0.07200
O 	O 	0.41348 0.59262 0.72472 -0.28200
H 	H 	0.53474 0.64699 0.71884 0.08300
H 	H 	0.71608 0.85593 0.59890 0.16500
H 	H 	0.55405 0.82971 0.61330 0.15400
H 	H 	0.42618 0.60281 0.74708 0.15200
H 	H 	0.67675 0.80404 0.73933 0.15500
C 	C 	0.16695 0.70680 0.66046 -0.10100
C 	C 	0.20623 0.73898 0.68819 -0.00400
C 	C 	0.25568 0.72963 0.71558 0.13900
C 	C 	0.26840 0.69162 0.71395 -0.06400
C 	C 	0.23260 0.66328 0.68485 -0.05800
C 	C 	0.17977 0.66889 0.65876 0.16400
C 	C 	0.20142 0.78859 0.68592 0.01200
O 	O 	0.29179 0.75772 0.74391 -0.27300
H 	H 	0.30810 0.68638 0.73459 0.06900
C 	C 	0.24816 0.85513 0.67106 0.12100
C 	C 	0.23550 0.90006 0.66215 -0.03200
C 	C 	0.17421 0.87853 0.66595 -0.11400
O 	O 	0.30543 0.87614 0.66446 -0.26800
H 	H 	0.27070 0.95082 0.64962 0.08000
H 	H 	0.29080 0.87259 0.63972 0.15400
H 	H 	0.33408 0.80069 0.73676 0.16500
C 	C 	0.20911 0.45896 0.12660 -0.09800
C 	C 	0.17537 0.39507 0.14796 -0.00400
C 	C 	0.16514 0.38318 0.18022 0.13500
C 	C 	0.19417 0.43573 0.19244 -0.06300
C 	C 	0.23300 0.50007 0.17251 -0.05900
C 	C 	0.23803 0.51147 0.13878 0.16700
H 	H 	0.18954 0.42662 0.21827 0.06700
O 	O 	0.27194 0.57403 0.11792 -0.27900
H 	H 	0.21524 0.46816 0.10120 0.07200
C 	C 	0.16891 0.25893 0.15075 0.19800
C 	C 	0.19282 0.31533 0.15685 -0.11400
O 	O 	0.20357 0.23123 0.17117 -0.29100
H 	H 	0.23922 0.33736 0.17728 0.08000
H 	H 	0.32015 0.58945 0.12420 0.15500
H 	H 	0.23661 0.25105 0.15757 0.15200
C 	C 	0.56555 0.78047 0.18810 -0.09600
C 	C 	0.58944 0.74543 0.19523 -0.00500
C 	C 	0.55581 0.67960 0.21455 0.13500
C 	C 	0.49560 0.64802 0.22396 -0.06400
C 	C 	0.46614 0.68045 0.21222 -0.05700
C 	C 	0.50332 0.74804 0.19576 0.16600
C 	C 	0.64590 0.77619 0.17986 0.01100
O 	O 	0.58079 0.64566 0.22355 -0.27700
H 	H 	0.46888 0.59673 0.23798 0.06800
O 	O 	0.47801 0.78199 0.18616 -0.27600
H 	H 	0.59316 0.83206 0.17472 0.07400
C 	C 	0.63759 0.79592 0.14244 0.11500
C 	C 	0.69376 0.83174 0.12809 -0.02400
C 	C 	0.75806 0.84741 0.15084 -0.12500
C 	C 	0.76450 0.82212 0.18810 0.19500
C 	C 	0.70892 0.78785 0.20253 -0.11100
O 	O 	0.57445 0.77952 0.11994 -0.26900
H 	H 	0.68805 0.84968 0.09931 0.06600
O 	O 	0.82645 0.83474 0.21057 -0.29300
H 	H 	0.71528 0.77166 0.23134 0.08600
H 	H 	0.45046 0.77945 0.16117 0.15500
H 	H 	0.57454 0.81740 0.11366 0.15100
H 	H 	0.82530 0.79786 0.21351 0.15200
H 	H 	0.55814 0.62603 0.20317 0.15200
C 	C 	0.25367 0.84088 0.18389 -0.11600
C 	C 	0.20783 0.77247 0.19359 0.01100
C 	C 	0.23021 0.87914 0.17000 0.20200
C 	C 	0.22676 0.73242 0.19787 -0.00300
O 	O 	0.27549 0.94606 0.16075 -0.27400
H 	H 	0.30647 0.86417 0.18523 0.08300
C 	C 	0.20391 0.70781 0.16925 0.13400
C 	C 	0.22536 0.67338 0.17246 -0.06200
C 	C 	0.27104 0.66454 0.20378 -0.05500
C 	C 	0.29365 0.68884 0.23255 0.16800
C 	C 	0.27107 0.72230 0.22956 -0.09500
H 	H 	0.20798 0.65513 0.15014 0.07300
O 	O 	0.33589 0.67808 0.26396 -0.27700
H 	H 	0.28868 0.74104 0.25170 0.08000
H 	H 	0.27802 0.95719 0.13611 0.17900
H 	H 	0.19079 0.75918 0.12279 0.15000
H 	H 	0.38338 0.71732 0.26163 0.16100
C 	C 	0.78971 0.25950 0.50143 -0.09700
C 	C 	0.74713 0.19156 0.51491 -0.00700
C 	C 	0.68369 0.16236 0.52023 0.13300
C 	C 	0.66678 0.20150 0.51584 -0.06800
C 	C 	0.71183 0.27006 0.50493 -0.05500
C 	C 	0.77169 0.29866 0.49568 0.16100
C 	C 	0.77451 0.15314 0.52989 0.01000
O 	O 	0.64017 0.09572 0.53201 -0.27900
H 	H 	0.61961 0.17847 0.52202 0.07200
O 	O 	0.81326 0.36481 0.48171 -0.27700
H 	H 	0.83804 0.28229 0.49659 0.06900
C 	C 	0.78397 0.13916 0.50741 0.11400
C 	C 	0.80882 0.10150 0.52236 -0.03800
C 	C 	0.82458 0.07791 0.55971 -0.11200
C 	C 	0.81615 0.09333 0.58206 0.19100
C 	C 	0.79104 0.13034 0.56705 -0.11300
O 	O 	0.76655 0.15998 0.47090 -0.27600
H 	H 	0.81485 0.09000 0.50490 0.05800
O 	O 	0.83113 0.07114 0.61862 -0.32500
H 	H 	0.78447 0.14147 0.58447 0.07800
H 	H 	0.79501 0.37103 0.45538 0.15100
H 	H 	0.80931 0.20311 0.46439 0.14500
H 	H 	0.87785 0.10836 0.62727 0.13700
H 	H 	0.60952 0.07940 0.50996 0.14800
C 	C 	0.93650 0.64436 0.59380 -0.12100
C 	C 	0.87907 0.62515 0.56493 0.01100
C 	C 	0.84595 0.65554 0.54966 0.12300
C 	C 	0.87403 0.70834 0.56147 -0.03100
C 	C 	0.93436 0.73032 0.58877 -0.12200
C 	C 	0.96280 0.69528 0.60640 0.19900
C 	C 	0.85212 0.57125 0.55187 -0.00400
O 	O 	0.78534 0.63260 0.52403 -0.26700
H 	H 	0.85067 0.73392 0.54831 0.06100
H 	H 	0.96096 0.61987 0.60647 0.07400
C 	C 	0.85240 0.58251 0.51691 0.13500
C 	C 	0.82099 0.52975 0.50398 -0.06300
C 	C 	0.79165 0.46619 0.52620 -0.05800
C 	C 	0.79964 0.45666 0.56247 0.16500
C 	C 	0.82828 0.50873 0.57495 -0.09900
O 	O 	0.88114 0.64452 0.49501 -0.28000
H 	H 	0.81624 0.53776 0.47618 0.06800
O 	O 	0.77327 0.39507 0.58484 -0.28300
H 	H 	0.83038 0.50013 0.60235 0.07300
H 	H 	0.99799 0.68529 0.65639 0.15600
H 	H 	0.92999 0.66313 0.49954 0.15100
H 	H 	0.81140 0.39065 0.59581 0.15100
H 	H 	0.79871 0.66017 0.50075 0.16100
C 	C 	0.43084 0.21627 0.50341 -0.09600
C 	C 	0.43492 0.23846 0.52734 -0.01000
C 	C 	0.49937 0.28735 0.54355 0.13800
C 	C 	0.55919 0.31280 0.53640 -0.06600
C 	C 	0.55536 0.29192 0.51184 -0.05600
C 	C 	0.49067 0.24356 0.49517 0.16100
C 	C 	0.37190 0.20853 0.53652 0.01300
O 	O 	0.50411 0.30927 0.56707 -0.27700
H 	H 	0.60877 0.34918 0.54988 0.07800
O 	O 	0.48578 0.22250 0.47114 -0.28400
H 	H 	0.38128 0.17802 0.49114 0.06300
C 	C 	0.32078 0.21665 0.51050 0.11000
C 	C 	0.25755 0.18102 0.51820 -0.02400
C 	C 	0.24457 0.13632 0.55146 -0.13700
C 	C 	0.29882 0.13491 0.57885 0.19600
C 	C 	0.36180 0.16990 0.57114 -0.11600
O 	O 	0.33245 0.25917 0.47760 -0.26800
H 	H 	0.21667 0.18407 0.49731 0.05100
O 	O 	0.28822 0.09452 0.61225 -0.30000
H 	H 	0.40186 0.16514 0.59169 0.08100
H 	H 	0.48045 0.25150 0.44742 0.14900
H 	H 	0.31451 0.23235 0.46199 0.14100
H 	H 	0.30102 0.12162 0.62601 0.15400
H 	H 	0.50109 0.34649 0.55213 0.15700
C 	C 	0.75915 0.23937 0.97922 -0.09700
C 	C 	0.80740 0.22959 0.00747 -0.00300
C 	C 	0.83936 0.25550 0.03723 0.12800
C 	C 	0.82075 0.28842 0.03922 -0.06400
C 	C 	0.76961 0.29501 0.01187 -0.05300
C 	C 	0.74063 0.27241 0.98114 0.16000
C 	C 	0.81982 0.18712 0.00752 0.00700
O 	O 	0.88845 0.24831 0.06451 -0.26800
H 	H 	0.84399 0.30629 0.06275 0.06800
O 	O 	0.69247 0.28057 0.95351 -0.27600
H 	H 	0.73481 0.22012 0.95610 0.07600
C 	C 	0.77501 0.11868 0.01934 0.11300
C 	C 	0.79602 0.08002 0.02861 -0.03400
C 	C 	0.86324 0.10977 0.02848 -0.12700
C 	C 	0.90226 0.17616 0.01037 0.19500
C 	C 	0.88115 0.21502 0.00057 -0.10600
O 	O 	0.71208 0.08979 0.02334 -0.27500
H 	H 	0.76360 0.02807 0.04046 0.04500
O 	O 	0.96349 0.20418 0.00468 -0.28900
H 	H 	0.91438 0.26727 0.98965 0.07500
H 	H 	0.71919 0.32331 0.93716 0.15200
H 	H 	0.72038 0.08849 0.04828 0.13800
H 	H 	0.99920 0.22159 0.02593 0.15200
H 	H 	0.86275 0.20645 0.08162 0.13900
C 	C 	0.82088 0.63193 0.05728 -0.11800
C 	C 	0.84743 0.59635 0.08289 0.00900
C 	C 	0.88969 0.61271 0.11607 0.12300
C 	C 	0.90890 0.66702 0.12218 -0.03000
C 	C 	0.89199 0.70897 0.09430 -0.12200
C 	C 	0.84350 0.68848 0.06277 0.19300
C 	C 	0.83440 0.54486 0.07398 -0.00500
O 	O 	0.91771 0.57982 0.14111 -0.26900
H 	H 	0.94425 0.68115 0.14710 0.05600
O 	O 	0.82125 0.72563 0.03643 -0.28400
H 	H 	0.78571 0.61787 0.03232 0.07500
C 	C 	0.79672 0.47913 0.09306 0.13700
C 	C 	0.78177 0.43063 0.08321 -0.06400
C 	C 	0.79760 0.44585 0.05209 -0.05600
C 	C 	0.83822 0.51186 0.03405 0.16300
C 	C 	0.85748 0.56120 0.04541 -0.09600
O 	O 	0.77242 0.46186 0.12053 -0.27900
H 	H 	0.75148 0.37999 0.09765 0.06500
O 	O 	0.85751 0.52816 0.00476 -0.27400
H 	H 	0.88805 0.61188 0.03112 0.07200
H 	H 	0.85328 0.75590 0.02027 0.15400
H 	H 	0.72641 0.45303 0.10911 0.14900
H 	H 	0.82057 0.52873 0.98383 0.14600
H 	H 	0.88798 0.54749 0.15850 0.16100
C 	C 	0.45610 0.22472 0.99785 -0.10400
C 	C 	0.44585 0.19443 0.03277 -0.00100
C 	C 	0.49882 0.19355 0.06185 0.13100
C 	C 	0.56135 0.22289 0.05591 -0.06500
C 	C 	0.57282 0.25575 0.02125 -0.05700
C 	C 	0.51970 0.25612 0.99208 0.16200
C 	C 	0.37733 0.15729 0.03848 -0.00100
O 	O 	0.48911 0.16318 0.09607 -0.28100
H 	H 	0.60238 0.22307 0.07854 0.06200
O 	O 	0.52977 0.28695 0.95793 -0.28000
H 	H 	0.41487 0.22406 0.97523 0.06700
C 	C 	0.35187 0.18970 0.03371 0.12000
C 	C 	0.28593 0.15326 0.03863 -0.04300
C 	C 	0.24495 0.08461 0.04777 -0.10100
C 	C 	0.27178 0.05262 0.05357 0.13800
C 	C 	0.33757 0.08900 0.04903 -0.09600
O 	O 	0.39178 0.25676 0.02503 -0.27100
H 	H 	0.26595 0.17836 0.03416 0.06300
O 	O 	0.23383 0.98563 0.06402 -0.26300
H 	H 	0.35741 0.06393 0.05324 0.06500
H 	H 	0.54710 0.33233 0.95396 0.15000
H 	H 	0.37988 0.26987 0.99848 0.14100
H 	H 	0.21132 0.97110 0.04165 0.14600
H 	H 	0.50431 0.19747 0.10527 0.15200
