data_crystal

_cell_length_a 20.79827
_cell_length_b 21.52373
_cell_length_c 22.03960
_cell_angle_alpha 61.00360
_cell_angle_beta  118.65960
_cell_angle_gamma 133.17956

_symmetry_space_group_name_	'P 1'
_symmetry_space_group_name_H-M	'P 1'

loop_
_symmetry_equiv_pos_as_xyz
  x,y,z

loop_
_atom_site_label
_atom_site_type_symbol
_atom_site_fract_x
_atom_site_fract_y
_atom_site_fract_z
_atom_site_charge
C 	C 	0.29358 0.65663 0.29162 0.02100
C 	C 	0.23621 0.57080 0.28127 -0.06800
C 	C 	0.27423 0.53408 0.28459 0.02100
C 	C 	0.36759 0.58373 0.29461 -0.06900
C 	C 	0.42347 0.67061 0.29808 0.02200
C 	C 	0.38813 0.70514 0.30192 -0.06700
H 	H 	0.16324 0.53402 0.26911 0.05000
H 	H 	0.39609 0.55669 0.29398 0.05200
H 	H 	0.43389 0.76996 0.31149 0.05100
C 	C 	0.29632 0.67691 0.76924 0.02400
C 	C 	0.23235 0.58896 0.76129 -0.06600
C 	C 	0.25823 0.55389 0.74426 0.02400
C 	C 	0.34389 0.60737 0.73167 -0.06700
C 	C 	0.40755 0.69140 0.74289 0.02400
C 	C 	0.38570 0.72444 0.76527 -0.06600
H 	H 	0.16414 0.54930 0.76733 0.05200
H 	H 	0.36261 0.58173 0.71611 0.05300
H 	H 	0.43725 0.78887 0.77640 0.05400
Co	Co	0.11442 0.96390 0.18269 1.19600
Co	Co	0.06197 0.03832 0.24130 1.17800
C 	C 	0.11792 0.80738 0.22403 0.28900
Co	Co	0.08038 0.88116 0.06917 1.17200
O 	O 	0.01400 0.17749 0.20432 -0.38300
C 	C 	0.10114 0.21248 0.22836 0.29000
O 	O 	0.15624 0.02381 0.25614 -0.48900
C 	C 	0.26098 0.03974 0.11824 0.26400
O 	O 	0.13515 0.17190 0.23866 -0.37600
O 	O 	0.21737 0.95971 0.11478 -0.37900
O 	O 	0.22817 0.05834 0.14029 -0.39900
O 	O 	0.03329 0.96677 0.34238 -0.34800
O 	O 	0.04808 0.92711 0.10756 -0.74500
O 	O 	0.06429 0.78582 0.16317 -0.38700
O 	O 	0.11962 0.85544 0.24743 -0.37600
O 	O 	0.08727 0.97843 0.97797 -0.34200
Co	Co	0.11560 0.97424 0.67748 1.19600
Co	Co	0.06266 0.05290 0.73165 1.17600
C 	C 	0.15320 0.83435 0.74869 0.29500
Co	Co	0.06163 0.84491 0.59823 1.17400
O 	O 	0.05297 0.15535 0.78504 -0.40100
C 	C 	0.11547 0.21349 0.74875 0.30000
O 	O 	0.16455 0.05538 0.73521 -0.49000
C 	C 	0.22492 0.03506 0.58409 0.25300
O 	O 	0.12674 0.18775 0.71283 -0.38900
O 	O 	0.19774 0.95301 0.60624 -0.37100
O 	O 	0.19349 0.05882 0.60227 -0.41000
O 	O 	0.05239 0.99888 0.83941 -0.29000
O 	O 	0.03166 0.90268 0.62496 -0.73600
O 	O 	0.07991 0.78903 0.70500 -0.38200
O 	O 	0.17521 0.90701 0.75267 -0.36000
O 	O 	0.02835 0.88987 0.48737 -0.35800
C 	C 	0.22239 0.40593 0.81024 -0.05800
C 	C 	0.20205 0.45923 0.74755 0.01800
C 	C 	0.15871 0.43319 0.68329 -0.05700
C 	C 	0.14144 0.35842 0.68126 0.01300
C 	C 	0.16522 0.30720 0.74375 -0.08400
C 	C 	0.20813 0.33330 0.80778 0.01400
H 	H 	0.25646 0.42506 0.86015 0.05000
H 	H 	0.14334 0.47382 0.63408 0.04900
H 	H 	0.10631 0.33851 0.63162 0.04400
H 	H 	0.22528 0.29376 0.85686 0.03500
C 	C 	0.49611 0.74603 0.72793 0.02200
C 	C 	0.50229 0.77259 0.65783 -0.06200
H 	H 	0.44276 0.75818 0.61425 0.05000
C 	C 	0.21377 0.68191 0.82037 -0.05600
C 	C 	0.26926 0.72320 0.77471 0.01700
C 	C 	0.30649 0.81244 0.73861 -0.05600
C 	C 	0.28578 0.85786 0.74609 0.00400
C 	C 	0.21854 0.81251 0.78166 -0.07800
C 	C 	0.18915 0.72660 0.82424 0.01400
H 	H 	0.18830 0.61507 0.85176 0.05000
H 	H 	0.35007 0.84632 0.70352 0.05000
H 	H 	0.31381 0.92572 0.71669 0.04900
H 	H 	0.14003 0.69132 0.85471 0.04000
C 	C 	0.16195 0.36936 0.18610 0.01400
C 	C 	0.16138 0.29964 0.24235 -0.08200
C 	C 	0.19133 0.30536 0.31284 0.00900
C 	C 	0.21755 0.37779 0.32687 -0.05900
C 	C 	0.21709 0.44703 0.27056 0.01700
C 	C 	0.18789 0.44161 0.20008 -0.06000
H 	H 	0.13800 0.36552 0.13137 0.03200
H 	H 	0.18979 0.25152 0.35688 0.03600
H 	H 	0.24200 0.38192 0.38157 0.04600
H 	H 	0.18933 0.49540 0.15605 0.04600
C 	C 	0.52825 0.77717 0.21688 -0.06000
C 	C 	0.51487 0.72822 0.28625 0.02000
H 	H 	0.47604 0.78383 0.17505 0.04800
C 	C 	0.17493 0.64728 0.30966 -0.05800
C 	C 	0.25483 0.69832 0.28682 0.01700
C 	C 	0.29814 0.78972 0.25918 -0.05500
C 	C 	0.26149 0.82837 0.25350 0.00500
C 	C 	0.17548 0.77585 0.26637 -0.07900
C 	C 	0.13439 0.68547 0.29781 0.01400
H 	H 	0.14287 0.57789 0.33483 0.04700
H 	H 	0.35823 0.83066 0.23944 0.04800
H 	H 	0.29619 0.89865 0.23241 0.04600
H 	H 	0.06854 0.64385 0.30920 0.03600
C 	C 	0.46615 0.22075 0.56916 -0.06100
C 	C 	0.46836 0.21225 0.51091 0.01600
C 	C 	0.38821 0.14936 0.47346 -0.06100
C 	C 	0.30697 0.09453 0.49489 0.00400
C 	C 	0.30518 0.10284 0.55347 -0.07800
C 	C 	0.38489 0.16708 0.58971 0.00700
H 	H 	0.52769 0.26888 0.59866 0.04300
H 	H 	0.38878 0.14281 0.42802 0.04400
H 	H 	0.24582 0.04463 0.46679 0.02300
H 	H 	0.38469 0.17312 0.63565 0.03000
C 	C 	0.51363 0.16914 0.17359 -0.06500
C 	C 	0.53378 0.19007 0.11110 0.01500
C 	C 	0.46424 0.16737 0.04954 -0.06400
C 	C 	0.37548 0.12440 0.05034 0.00600
C 	C 	0.35518 0.10306 0.11280 -0.08500
C 	C 	0.42471 0.12623 0.17430 0.00900
H 	H 	0.47943 0.18490 0.00061 0.04000
H 	H 	0.32189 0.10551 0.00290 0.02100
H 	H 	0.40931 0.10818 0.22329 0.02600
C 	C 	0.01233 0.97171 0.93637 0.27500
O 	O 	0.01477 0.99564 0.14291 -0.55100
C 	C 	0.02825 0.99830 0.37758 0.26300
O 	O 	0.01683 0.06043 0.34311 -0.40400
C 	C 	0.02655 0.95890 0.45402 0.20300
O 	O 	0.02015 0.99200 0.48697 -0.34800
H 	H 	0.56714 0.18749 0.22114 0.04200
C 	C 	0.74319 0.28776 0.06384 0.01300
C 	C 	0.79182 0.37717 0.06125 -0.06700
C 	C 	0.75996 0.40095 0.08448 0.01400
C 	C 	0.68018 0.33650 0.10867 -0.06600
C 	C 	0.62850 0.24987 0.10596 0.01700
C 	C 	0.66181 0.22453 0.08714 -0.06700
H 	H 	0.85260 0.42736 0.04079 0.03900
H 	H 	0.65428 0.35537 0.12406 0.04900
H 	H 	0.62339 0.15594 0.08922 0.04100
C 	C 	0.69436 0.29718 0.50440 0.01700
C 	C 	0.59882 0.24186 0.49424 -0.06500
C 	C 	0.55406 0.27326 0.48735 0.02000
C 	C 	0.60022 0.36333 0.47451 -0.06600
C 	C 	0.69487 0.41847 0.49123 0.01800
C 	C 	0.74309 0.38579 0.50591 -0.06500
H 	H 	0.55974 0.17394 0.49426 0.04200
H 	H 	0.56330 0.38810 0.46283 0.05000
H 	H 	0.81647 0.42725 0.52050 0.04200
Co	Co	0.88518 0.96686 0.13713 1.19400
Co	Co	0.94608 0.90917 0.06956 1.17000
Co	Co	0.91935 0.05102 0.24848 1.15200
O 	O 	0.95979 0.01989 0.20307 -0.80100
O 	O 	0.84503 0.90998 0.06220 -0.47200
C 	C 	0.83257 0.08453 0.09583 0.29800
C 	C 	0.88535 0.74296 0.05810 0.30000
O 	O 	0.81685 0.04486 0.15950 -0.42900
O 	O 	0.86166 0.06289 0.07280 -0.41000
O 	O 	0.94709 0.79713 0.02137 -0.42800
O 	O 	0.87843 0.77359 0.09255 -0.40400
C 	C 	0.76702 0.86691 0.24335 0.29800
O 	O 	0.83162 0.91848 0.28730 -0.38500
O 	O 	0.78564 0.86132 0.19675 -0.38600
O 	O 	0.95689 0.96005 0.96228 -0.36000
Co	Co	0.90034 0.00458 0.61456 1.15900
Co	Co	0.95019 0.91660 0.56700 1.16800
Co	Co	0.92168 0.07044 0.73563 1.14900
O 	O 	0.95958 0.03272 0.69383 -0.78900
O 	O 	0.87563 0.96203 0.53517 -0.45900
C 	C 	0.88640 0.15321 0.58278 0.28300
O 	O 	0.98950 0.95763 0.66479 -0.56800
C 	C 	0.99424 0.98207 0.86595 0.13300
C 	C 	0.86386 0.73552 0.55082 0.28900
O 	O 	0.93738 0.17042 0.64518 -0.41000
O 	O 	0.89017 0.11198 0.55559 -0.39600
O 	O 	0.91770 0.97203 0.82465 -0.33000
O 	O 	0.93221 0.73573 0.59810 -0.40400
O 	O 	0.84832 0.78924 0.54541 -0.37900
C 	C 	0.75104 0.91165 0.68321 0.30600
O 	O 	0.78722 0.98896 0.68751 -0.38600
O 	O 	0.77945 0.90420 0.64660 -0.37700
C 	C 	0.57257 0.76226 0.78423 -0.06000
C 	C 	0.58526 0.81815 0.64384 0.02300
C 	C 	0.66294 0.83932 0.69960 -0.09000
C 	C 	0.65575 0.80851 0.77011 0.01500
H 	H 	0.56754 0.73938 0.83876 0.05200
H 	H 	0.59038 0.84201 0.58919 0.03700
H 	H 	0.71563 0.82452 0.81353 0.03600
C 	C 	0.58165 0.71765 0.33929 -0.06100
C 	C 	0.66093 0.75560 0.32317 0.01800
C 	C 	0.67491 0.80559 0.25402 -0.08700
C 	C 	0.60740 0.81477 0.20067 0.01500
H 	H 	0.57103 0.67810 0.39256 0.05000
H 	H 	0.71317 0.74914 0.36510 0.03700
H 	H 	0.61809 0.85449 0.14743 0.03600
C 	C 	0.82206 0.31056 0.49515 -0.06300
C 	C 	0.74266 0.25931 0.51896 0.01500
C 	C 	0.70511 0.16951 0.55291 -0.06100
C 	C 	0.74332 0.13140 0.55997 -0.00200
C 	C 	0.82672 0.18362 0.54246 -0.08600
C 	C 	0.86503 0.27353 0.50860 0.00800
H 	H 	0.85145 0.37901 0.46729 0.03900
H 	H 	0.64735 0.12915 0.57544 0.03700
H 	H 	0.71165 0.06205 0.58491 0.02500
H 	H 	0.92981 0.31564 0.49527 0.02200
C 	C 	0.72157 0.50054 0.56097 -0.06000
C 	C 	0.74083 0.50319 0.50623 0.01500
C 	C 	0.78060 0.58301 0.45514 -0.05900
C 	C 	0.80568 0.65978 0.46140 0.00000
C 	C 	0.79287 0.65828 0.51958 -0.08100
C 	C 	0.74317 0.57630 0.56526 0.01300
H 	H 	0.68708 0.43889 0.59903 0.04400
H 	H 	0.79156 0.58574 0.41030 0.04200
H 	H 	0.84219 0.72185 0.42446 0.03000
H 	H 	0.73037 0.57292 0.60936 0.03400
C 	C 	0.86758 0.28675 0.07171 -0.06500
C 	C 	0.77728 0.25898 0.04367 0.01900
C 	C 	0.71537 0.19040 0.00840 -0.08000
C 	C 	0.73815 0.13889 0.01483 -0.00200
C 	C 	0.82433 0.15819 0.05345 -0.09200
C 	C 	0.89162 0.23870 0.07334 0.00300
H 	H 	0.91785 0.34197 0.09604 0.03700
H 	H 	0.64721 0.17216 0.98143 0.05600
H 	H 	0.68625 0.07948 0.99576 0.03400
H 	H 	0.96101 0.26017 0.09574 0.02800
C 	C 	0.77327 0.53893 0.01175 -0.08100
C 	C 	0.80266 0.49385 0.07595 0.02000
C 	C 	0.84808 0.52602 0.13715 -0.06500
C 	C 	0.86316 0.60169 0.13413 0.01000
C 	C 	0.83598 0.64811 0.06933 -0.08900
C 	C 	0.78787 0.61411 0.00889 -0.00400
H 	H 	0.73552 0.51349 0.96467 0.06300
H 	H 	0.86859 0.49046 0.18772 0.04000
H 	H 	0.90012 0.62663 0.18139 0.03200
H 	H 	0.76672 0.64924 0.95836 0.04800
