data_crystal

_cell_length_a 19.49528
_cell_length_b 17.42328
_cell_length_c 32.27131
_cell_angle_alpha 88.29777
_cell_angle_beta  88.43719
_cell_angle_gamma 107.44116

_symmetry_space_group_name_	'P 1'
_symmetry_space_group_name_H-M	'P 1'

loop_
_symmetry_equiv_pos_as_xyz
  x,y,z

loop_
_atom_site_label
_atom_site_type_symbol
_atom_site_fract_x
_atom_site_fract_y
_atom_site_fract_z
_atom_site_charge
Zn	Zn	0.57818 0.33119 0.88835 1.22200
Zn	Zn	0.68429 0.46693 0.94406 1.19800
C 	C 	0.78779 0.23850 0.84483 0.29400
Zn	Zn	0.74627 0.37591 0.88076 1.22100
Zn	Zn	0.62768 0.20724 0.84438 1.19000
H 	H 	0.67506 0.31823 0.94714 0.18500
C 	C 	0.73146 0.53161 0.85415 0.30800
O 	O 	0.52094 0.16655 0.83757 -0.46000
O 	O 	0.49649 0.28656 0.84533 -0.40000
O 	O 	0.67148 0.35745 0.92511 -0.79100
O 	O 	0.58362 0.46094 0.95609 -0.46400
O 	O 	0.52757 0.24025 0.92616 -0.43200
O 	O 	0.53950 0.42375 0.89250 -0.42200
O 	O 	0.60828 0.17340 0.91078 -0.40600
O 	O 	0.78578 0.53043 0.94096 -0.46000
H 	H 	0.64906 0.35331 0.82129 0.17000
O 	O 	0.83182 0.43033 0.92152 -0.39300
O 	O 	0.65263 0.32538 0.84795 -0.79700
O 	O 	0.72303 0.18652 0.85151 -0.44900
O 	O 	0.76750 0.47934 0.84872 -0.44100
O 	O 	0.80676 0.30750 0.86389 -0.42900
O 	O 	0.67778 0.51639 0.88191 -0.42000
C 	C 	0.47718 0.21137 0.83381 0.30500
C 	C 	0.53813 0.46144 0.92709 0.29900
C 	C 	0.55162 0.17850 0.93243 0.27800
C 	C 	0.83879 0.49889 0.93975 0.28200
Zn	Zn	0.64692 0.40378 0.55040 1.22200
Zn	Zn	0.52161 0.31214 0.48589 1.19900
C 	C 	0.69256 0.14548 0.58439 0.29200
Zn	Zn	0.58500 0.21593 0.54863 1.22500
Zn	Zn	0.74385 0.32305 0.59019 1.18900
H 	H 	0.64620 0.30103 0.48737 0.17800
C 	C 	0.44232 0.23047 0.56870 0.30600
O 	O 	0.79710 0.43851 0.59967 -0.46500
O 	O 	0.70083 0.48783 0.59470 -0.40100
O 	O 	0.61199 0.30751 0.50922 -0.79700
O 	O 	0.53746 0.43019 0.48525 -0.46000
O 	O 	0.72969 0.45285 0.51253 -0.43200
O 	O 	0.57139 0.45745 0.55177 -0.43200
O 	O 	0.77290 0.34663 0.52389 -0.41400
O 	O 	0.46262 0.20281 0.47344 -0.48300
H 	H 	0.61547 0.31375 0.61399 0.16900
O 	O 	0.53472 0.13389 0.50203 -0.38600
O 	O 	0.63962 0.31039 0.58702 -0.79300
O 	O 	0.74714 0.21195 0.57975 -0.45900
O 	O 	0.49103 0.19503 0.57854 -0.42700
O 	O 	0.63540 0.13528 0.56171 -0.41300
O 	O 	0.46039 0.29745 0.54521 -0.41200
C 	C 	0.76929 0.49877 0.60230 0.30300
C 	C 	0.53782 0.47083 0.51886 0.29700
C 	C 	0.77644 0.41467 0.50375 0.27100
C 	C 	0.48033 0.13623 0.47904 0.38100
Zn	Zn	0.93972 0.91327 0.71002 1.22300
Zn	Zn	0.04983 0.94216 0.78923 1.19300
C 	C 	0.15129 0.08300 0.63079 0.29800
Zn	Zn	0.07922 0.05583 0.71253 1.22500
Zn	Zn	0.99267 0.99418 0.62421 1.18700
H 	H 	0.07927 0.91056 0.71427 0.17700
C 	C 	0.99499 0.09506 0.78070 0.28900
O 	O 	0.88947 0.94528 0.61367 -0.46200
O 	O 	0.84081 0.90634 0.68002 -0.38900
O 	O 	0.04876 0.93980 0.72763 -0.78900
O 	O 	0.96202 0.84966 0.80508 -0.46000
O 	O 	0.94137 0.81298 0.68600 -0.45500
O 	O 	0.88563 0.89130 0.76332 -0.44200
O 	O 	0.99705 0.86872 0.62492 -0.40900
O 	O 	0.13501 0.03172 0.80602 -0.45200
H 	H 	0.95237 0.05319 0.68753 0.17100
O 	O 	0.17984 0.07919 0.74086 -0.41100
O 	O 	0.98289 0.01755 0.68347 -0.80800
O 	O 	0.10166 0.02678 0.61200 -0.43700
O 	O 	0.04460 0.12437 0.75098 -0.42600
O 	O 	0.13474 0.11631 0.66410 -0.44600
O 	O 	0.98187 0.02071 0.79564 -0.40700
C 	C 	0.83685 0.93604 0.64204 0.29300
C 	C 	0.89720 0.83957 0.79079 0.32000
C 	C 	0.95182 0.80804 0.64627 0.31600
C 	C 	0.18906 0.07157 0.78072 0.30900
Zn	Zn	0.31998 0.68054 0.38761 1.22800
Zn	Zn	0.17851 0.57091 0.44236 1.19800
C 	C 	0.15188 0.76316 0.30095 0.31400
Zn	Zn	0.16584 0.63005 0.35387 1.22400
Zn	Zn	0.30935 0.77644 0.31069 1.18800
H 	H 	0.19949 0.71685 0.41596 0.19000
C 	C 	0.18345 0.47027 0.36474 0.30300
O 	O 	0.41568 0.81292 0.31847 -0.47000
O 	O 	0.42383 0.70473 0.35858 -0.36900
O 	O 	0.21184 0.66950 0.40567 -0.79200
O 	O 	0.26381 0.57909 0.47664 -0.47300
O 	O 	0.35381 0.78522 0.41228 -0.41500
O 	O 	0.34202 0.59645 0.42081 -0.43000
O 	O 	0.29617 0.84225 0.36583 -0.41200
O 	O 	0.07945 0.51099 0.42891 -0.48500
H 	H 	0.28982 0.62544 0.31805 0.17400
O 	O 	0.05923 0.60064 0.38133 -0.39100
O 	O 	0.27426 0.66472 0.33452 -0.80000
O 	O 	0.22040 0.80236 0.29191 -0.45900
O 	O 	0.15276 0.51606 0.34362 -0.44300
O 	O 	0.13095 0.68494 0.30899 -0.44500
O 	O 	0.21476 0.49414 0.39983 -0.41000
C 	C 	0.45443 0.77087 0.33581 0.31000
C 	C 	0.32914 0.58934 0.46114 0.39000
C 	C 	0.33543 0.84741 0.39875 0.27500
C 	C 	0.03523 0.54319 0.41023 0.39200
Zn	Zn	0.21038 0.73736 0.08022 1.22000
Zn	Zn	0.34411 0.85387 0.13329 1.19300
C 	C 	0.37488 0.59533 0.02735 0.33900
Zn	Zn	0.37361 0.74333 0.06700 1.22300
Zn	Zn	0.22934 0.59659 0.03324 1.20200
H 	H 	0.30302 0.70031 0.13518 0.17300
C 	C 	0.39879 0.91152 0.04191 0.36600
O 	O 	0.12678 0.58237 0.02816 -0.47400
O 	O 	0.12342 0.71124 0.03798 -0.37400
O 	O 	0.30606 0.74316 0.11374 -0.78700
O 	O 	0.25236 0.87585 0.14589 -0.48800
O 	O 	0.14748 0.65100 0.11851 -0.41700
O 	O 	0.19585 0.84596 0.08467 -0.42800
O 	O 	0.20802 0.56473 0.09890 -0.40600
O 	O 	0.45021 0.89159 0.13264 -0.47400
H 	H 	0.27405 0.74436 0.01141 0.17000
O 	O 	0.46864 0.78197 0.10249 -0.40000
O 	O 	0.27415 0.71374 0.03774 -0.79100
O 	O 	0.31058 0.55473 0.04184 -0.42600
O 	O 	0.40960 0.84281 0.03298 -0.43400
O 	O 	0.41337 0.65808 0.04700 -0.43000
O 	O 	0.35178 0.91465 0.07166 -0.43000
C 	C 	0.09934 0.64128 0.02009 0.35300
C 	C 	0.21252 0.89216 0.11691 0.33400
C 	C 	0.15426 0.57832 0.11944 0.30300
C 	C 	0.49386 0.85542 0.11601 0.32300
Zn	Zn	0.99633 0.13752 0.22908 1.22300
Zn	Zn	0.88421 0.06880 0.31089 1.19500
C 	C 	0.78832 0.00166 0.14539 0.32900
Zn	Zn	0.85587 0.99706 0.22522 1.22200
Zn	Zn	0.94304 0.10479 0.14056 1.19200
H 	H 	0.85696 0.13760 0.24374 0.17700
C 	C 	0.94193 0.92957 0.27876 0.30800
O 	O 	0.04576 0.16407 0.12972 -0.44100
O 	O 	0.09558 0.16190 0.19300 -0.37400
O 	O 	0.88668 0.10237 0.25107 -0.78600
O 	O 	0.97309 0.15137 0.32976 -0.46700
O 	O 	0.99685 0.24794 0.21831 -0.45200
O 	O 	0.04859 0.12910 0.27908 -0.43400
O 	O 	0.93144 0.22091 0.16040 -0.40800
O 	O 	0.79949 0.97045 0.32336 -0.45700
H 	H 	0.98188 0.01281 0.19074 0.17500
O 	O 	0.75527 0.95911 0.25812 -0.41600
O 	O 	0.95252 0.04991 0.19386 -0.80600
O 	O 	0.83471 0.07191 0.13326 -0.45700
O 	O 	0.88947 0.91264 0.25253 -0.44100
O 	O 	0.80208 0.95749 0.17592 -0.45800
O 	O 	0.95193 0.99106 0.30293 -0.41500
C 	C 	0.09471 0.14748 0.15286 0.28600
C 	C 	0.03837 0.16604 0.31266 0.33400
C 	C 	0.97751 0.27241 0.18314 0.30700
C 	C 	0.74682 0.94078 0.29804 0.31100
C 	C 	0.05864 0.41044 0.19440 0.04600
C 	C 	0.10161 0.48399 0.17924 0.02800
C 	C 	0.09658 0.50986 0.13822 -0.07300
C 	C 	0.04627 0.45929 0.11270 -0.01200
H 	H 	0.04227 0.47748 0.08074 0.05600
C 	C 	0.00285 0.38346 0.12806 0.01600
H 	H 	0.96638 0.34393 0.10765 0.02700
C 	C 	0.00906 0.35806 0.16919 -0.08600
C 	C 	0.03627 0.44373 0.23280 -0.07200
H 	H 	0.13325 0.55223 0.23460 0.04300
H 	H 	0.05660 0.42201 0.26130 0.05600
H 	H 	0.05447 0.56992 0.20800 0.06400
H 	H 	0.97825 0.43996 0.23436 0.04500
C 	C 	0.08535 0.52735 0.21569 -0.08400
C 	C 	0.62099 0.85137 0.11392 0.03500
C 	C 	0.69298 0.88802 0.11848 0.05400
C 	C 	0.71970 0.97115 0.12479 -0.12400
C 	C 	0.67206 0.01758 0.12364 0.03200
H 	H 	0.69121 0.08148 0.12892 0.02800
C 	C 	0.59845 0.98030 0.11885 -0.02600
H 	H 	0.56188 0.01643 0.11886 0.05800
C 	C 	0.57214 0.89623 0.11510 -0.06400
C 	C 	0.63315 0.80820 0.07643 -0.08200
H 	H 	0.73980 0.89386 0.05556 0.05300
H 	H 	0.61285 0.82855 0.04750 0.08400
H 	H 	0.74496 0.80725 0.09018 0.05100
H 	H 	0.61733 0.74188 0.08223 0.05700
C 	C 	0.71495 0.85011 0.08157 -0.09100
C 	C 	0.11918 0.96194 0.10718 0.06000
C 	C 	0.09157 0.02373 0.11549 -0.00800
C 	C 	0.13068 0.09001 0.13773 -0.08500
C 	C 	0.19870 0.09215 0.15169 -0.01600
H 	H 	0.22880 0.14143 0.16989 0.04400
C 	C 	0.22722 0.02935 0.14294 0.01800
H 	H 	0.27957 0.03119 0.15410 0.02200
C 	C 	0.18744 0.96355 0.12052 -0.12100
C 	C 	0.10151 0.96144 0.06244 -0.10200
H 	H 	0.01073 0.01490 0.06932 0.01600
H 	H 	0.05974 0.90522 0.05455 0.06800
H 	H 	0.10100 0.08949 0.05563 0.05200
H 	H 	0.14973 0.98039 0.04094 0.06100
C 	C 	0.07011 0.03174 0.07190 -0.06600
C 	C 	0.57204 0.85973 0.35854 0.05900
C 	C 	0.64320 0.90006 0.34990 0.04000
C 	C 	0.67843 0.88378 0.31409 -0.09000
C 	C 	0.64279 0.81791 0.29052 -0.00100
H 	H 	0.66999 0.80197 0.26390 0.04200
C 	C 	0.57001 0.77681 0.29935 -0.00400
H 	H 	0.54151 0.72950 0.27953 0.02800
C 	C 	0.53314 0.80134 0.33181 -0.08500
C 	C 	0.55303 0.93465 0.36758 -0.08600
H 	H 	0.66295 0.00842 0.38531 0.05500
H 	H 	0.53669 0.93667 0.40071 0.06600
H 	H 	0.64227 0.02098 0.32943 0.04900
H 	H 	0.51697 0.95006 0.34477 0.05300
C 	C 	0.63403 0.98063 0.35770 -0.10700
C 	C 	0.11241 0.24769 0.36760 0.04300
C 	C 	0.15129 0.32194 0.38030 0.03700
C 	C 	0.17442 0.38782 0.35149 -0.08900
C 	C 	0.17180 0.37249 0.30893 -0.00400
H 	H 	0.19353 0.42125 0.28610 0.03100
C 	C 	0.13256 0.29642 0.29589 -0.00400
H 	H 	0.12505 0.28693 0.26309 0.03900
C 	C 	0.09640 0.23605 0.32549 -0.10000
C 	C 	0.05691 0.23477 0.40214 -0.08500
H 	H 	0.12723 0.31595 0.44682 0.04500
H 	H 	0.05760 0.18464 0.42409 0.04800
H 	H 	0.07099 0.36344 0.41455 0.06100
H 	H 	0.00277 0.23497 0.39232 0.05800
C 	C 	0.10142 0.31895 0.41677 -0.09000
C 	C 	0.06726 0.92438 0.27359 0.05700
C 	C 	0.11762 0.88535 0.27979 0.03600
C 	C 	0.09679 0.80332 0.29198 -0.09100
C 	C 	0.02302 0.76210 0.29911 0.00800
H 	H 	0.00560 0.69958 0.30993 0.05800
C 	C 	0.97154 0.80221 0.29250 -0.00500
H 	H 	0.91501 0.77066 0.29859 0.04600
C 	C 	0.99354 0.88351 0.27910 -0.10500
C 	C 	0.10063 0.96194 0.23286 -0.11000
H 	H 	0.21257 0.95919 0.24466 0.04200
H 	H 	0.12299 0.02844 0.23390 0.06600
H 	H 	0.15566 0.87050 0.21686 0.05600
H 	H 	0.06697 0.93934 0.20593 0.04800
C 	C 	0.15802 0.91748 0.23986 -0.07400
C 	C 	0.36074 0.92356 0.42010 0.00900
C 	C 	0.38760 0.99647 0.39700 -0.08700
C 	C 	0.42640 0.06608 0.41637 0.08000
C 	C 	0.43877 0.06326 0.45896 -0.21400
C 	C 	0.40887 0.99135 0.48247 0.38400
C 	C 	0.36973 0.92195 0.46314 -0.16400
H 	H 	0.44835 0.12171 0.39810 0.00500
H 	H 	0.34819 0.86622 0.48140 0.10900
H 	H 	0.38141 0.99843 0.36376 0.04800
F 	F 	0.41745 0.98883 0.52405 -0.46000
C 	C 	0.83300 0.44820 0.47136 0.00400
C 	C 	0.86254 0.39717 0.44899 -0.08200
C 	C 	0.92456 0.42955 0.42384 0.07400
C 	C 	0.95833 0.51302 0.42154 -0.23400
C 	C 	0.92418 0.56438 0.44009 0.38800
C 	C 	0.86173 0.53203 0.46500 -0.17300
H 	H 	0.94928 0.38948 0.40849 0.00800
H 	H 	0.83827 0.57210 0.48131 0.11000
H 	H 	0.83912 0.33243 0.45229 0.04900
F 	F 	0.95500 0.64539 0.43706 -0.47300
C 	C 	0.49292 0.52391 0.52099 0.00200
C 	C 	0.42196 0.49216 0.53671 -0.07400
C 	C 	0.36778 0.51938 0.52005 0.07600
C 	C 	0.38509 0.57972 0.48838 -0.22100
C 	C 	0.45760 0.62182 0.47889 0.39600
C 	C 	0.51153 0.59395 0.49538 -0.16200
H 	H 	0.31210 0.48890 0.52911 0.01700
H 	H 	0.56698 0.62151 0.48480 0.10600
H 	H 	0.40760 0.44012 0.55805 0.05800
F 	F 	0.47543 0.68591 0.45144 -0.45800
C 	C 	0.75446 0.01511 0.65871 0.05500
C 	C 	0.72206 0.06983 0.64406 0.00100
C 	C 	0.70703 0.07367 0.60191 -0.08100
C 	C 	0.72002 0.01663 0.57545 0.00700
H 	H 	0.70831 0.01843 0.54287 0.04700
C 	C 	0.75337 0.96111 0.59044 -0.01300
H 	H 	0.76748 0.92070 0.56924 0.04200
C 	C 	0.77505 0.96357 0.63171 -0.10800
C 	C 	0.70003 0.98445 0.69343 -0.10700
H 	H 	0.66777 0.09682 0.69897 0.02200
H 	H 	0.72323 0.99772 0.72439 0.04800
H 	H 	0.60927 0.01911 0.66549 0.05000
H 	H 	0.66582 0.92129 0.69003 0.06100
C 	C 	0.66386 0.04744 0.67727 -0.06800
C 	C 	0.23948 0.15813 0.57524 0.03000
C 	C 	0.30883 0.19858 0.56185 0.04000
C 	C 	0.36762 0.19673 0.58585 -0.08400
C 	C 	0.35418 0.15582 0.62484 0.00400
H 	H 	0.39836 0.15511 0.64434 0.04000
C 	C 	0.28339 0.11435 0.63842 -0.00500
H 	H 	0.27354 0.08358 0.66866 0.04000
C 	C 	0.22549 0.11310 0.61306 -0.08300
C 	C 	0.21974 0.12096 0.53446 -0.08100
H 	H 	0.30194 0.21443 0.49512 0.04900
H 	H 	0.17907 0.14364 0.51888 0.04300
H 	H 	0.33014 0.12464 0.51224 0.07600
H 	H 	0.20833 0.05437 0.53552 0.06300
C 	C 	0.29849 0.16651 0.51931 -0.09000
C 	C 	0.93618 0.66901 0.62351 0.03900
C 	C 	0.89115 0.59362 0.61619 0.03100
C 	C 	0.81702 0.58051 0.61100 -0.08700
C 	C 	0.78950 0.64623 0.61353 -0.00800
H 	H 	0.73265 0.63793 0.61018 0.04800
C 	C 	0.83574 0.72334 0.62051 -0.00600
H 	H 	0.81353 0.77288 0.62364 0.04300
C 	C 	0.90973 0.73545 0.62562 -0.09600
C 	C 	0.99105 0.66413 0.59134 -0.10100
H 	H 	0.96280 0.52952 0.59210 0.04000
H 	H 	0.04239 0.66281 0.60506 0.05600
H 	H 	0.91752 0.57477 0.55158 0.05800
H 	H 	0.99672 0.70736 0.56445 0.06200
C 	C 	0.94002 0.57865 0.58304 -0.07700
C 	C 	0.90649 0.54148 0.95873 -0.00900
C 	C 	0.97256 0.54744 0.93869 -0.07000
C 	C 	0.03665 0.58936 0.95668 0.06500
C 	C 	0.03523 0.62416 0.99530 -0.18200
C 	C 	0.96906 0.62258 0.01402 0.35200
C 	C 	0.90495 0.58128 0.99583 -0.13600
H 	H 	0.08759 0.59088 0.94181 0.00500
H 	H 	0.85399 0.57842 0.01111 0.07800
H 	H 	0.97435 0.51929 0.90936 0.05500
F 	F 	0.96678 0.65622 0.05125 -0.45800
C 	C 	0.51481 0.11473 0.96388 -0.00500
C 	C 	0.44362 0.10625 0.97766 -0.05800
C 	C 	0.40646 0.04169 0.00453 0.06000
C 	C 	0.44016 0.98534 0.01814 -0.21400
C 	C 	0.51261 0.99633 0.00616 0.36400
C 	C 	0.54949 0.06042 0.97908 -0.14500
H 	H 	0.35090 0.03427 0.01372 0.02500
H 	H 	0.60488 0.06742 0.96971 0.10500
H 	H 	0.41648 0.14851 0.96684 0.05900
F 	F 	0.54705 0.94427 0.02042 -0.46900
C 	C 	0.48306 0.50037 0.93498 -0.00300
C 	C 	0.50515 0.58331 0.94132 -0.06500
C 	C 	0.46816 0.61518 0.97044 0.05900
C 	C 	0.40755 0.56448 0.99235 -0.20900
C 	C 	0.37861 0.48424 0.98043 0.37900
C 	C 	0.41588 0.45309 0.95112 -0.15900
H 	H 	0.48839 0.67837 0.97720 0.02700
H 	H 	0.39670 0.38963 0.94472 0.10300
H 	H 	0.55546 0.62126 0.92723 0.04800
F 	F 	0.31702 0.43521 0.99889 -0.46200
C 	C 	0.85991 0.20936 0.78550 0.01900
C 	C 	0.91197 0.17849 0.77004 0.03400
C 	C 	0.95202 0.14501 0.79690 -0.08400
C 	C 	0.94298 0.15067 0.83997 -0.00400
H 	H 	0.97462 0.12719 0.86117 0.03800
C 	C 	0.89006 0.18272 0.85573 -0.00000
H 	H 	0.88196 0.18490 0.88897 0.04100
C 	C 	0.84560 0.20826 0.82847 -0.08400
C 	C 	0.80516 0.16620 0.75599 -0.08300
H 	H 	0.88285 0.15356 0.70611 0.02800
H 	H 	0.79074 0.20804 0.73359 0.02000
H 	H 	0.85058 0.06482 0.74381 0.04600
H 	H 	0.75880 0.11920 0.77125 0.03800
C 	C 	0.86432 0.13116 0.73834 -0.08900
C 	C 	0.29286 0.06594 0.82293 0.02000
C 	C 	0.36300 0.09762 0.83377 0.04700
C 	C 	0.40399 0.17519 0.81934 -0.09500
C 	C 	0.37343 0.21884 0.79203 -0.00400
H 	H 	0.40468 0.27796 0.77983 0.03600
C 	C 	0.30192 0.18634 0.78078 -0.00600
H 	H 	0.27880 0.22022 0.75954 0.04300
C 	C 	0.26041 0.11030 0.79711 -0.08600
C 	C 	0.26649 0.03952 0.86647 -0.06600
H 	H 	0.37073 0.02902 0.88995 0.05600
H 	H 	0.24626 0.97289 0.87077 0.02800
H 	H 	0.35426 0.12834 0.89861 0.06000
H 	H 	0.23067 0.07258 0.87961 0.05500
C 	C 	0.34625 0.07545 0.87876 -0.09300
C 	C 	0.79504 0.62145 0.79495 0.04000
C 	C 	0.83492 0.69605 0.77953 0.03500
C 	C 	0.83990 0.76513 0.80205 -0.09800
C 	C 	0.80263 0.75721 0.84054 0.00000
H 	H 	0.80769 0.80949 0.85895 0.03500
C 	C 	0.76159 0.68090 0.85625 -0.00400
H 	H 	0.73533 0.67496 0.88671 0.03500
C 	C 	0.75843 0.61211 0.83369 -0.09000
C 	C 	0.75695 0.59890 0.75558 -0.08300
H 	H 	0.76918 0.72377 0.73051 0.06000
H 	H 	0.69839 0.59227 0.75818 0.04900
H 	H 	0.84187 0.68004 0.71314 0.06100
H 	H 	0.77113 0.54882 0.74054 0.04100
C 	C 	0.80245 0.68359 0.73793 -0.09300
