data_crystal

_cell_length_a 18.64616
_cell_length_b 18.79124
_cell_length_c 34.52706
_cell_angle_alpha 95.43103
_cell_angle_beta  95.43167
_cell_angle_gamma 126.40156

_symmetry_space_group_name_	'P 1'
_symmetry_space_group_name_H-M	'P 1'

loop_
_symmetry_equiv_pos_as_xyz
  x,y,z

loop_
_atom_site_label
_atom_site_type_symbol
_atom_site_fract_x
_atom_site_fract_y
_atom_site_fract_z
_atom_site_charge
C 	C 	0.89497 0.99638 0.96721 0.07300
C 	C 	0.84853 0.90413 0.96769 -0.07000
C 	C 	0.89563 0.86708 0.96718 0.06400
C 	C 	0.98859 0.92240 0.96642 -0.05800
C 	C 	0.03410 0.01359 0.96495 0.05300
C 	C 	0.98742 0.05048 0.96543 -0.06800
H 	H 	0.77678 0.86183 0.96872 0.07700
H 	H 	0.02518 0.89416 0.96638 0.07000
H 	H 	0.02326 0.12155 0.96499 0.07000
C 	C 	0.95441 0.03563 0.48931 0.06600
C 	C 	0.04865 0.08484 0.49214 -0.07600
C 	C 	0.08858 0.04093 0.49479 0.06300
C 	C 	0.03434 0.94835 0.49483 -0.07100
C 	C 	0.94051 0.89942 0.49217 0.06900
C 	C 	0.90033 0.94259 0.48812 -0.06700
H 	H 	0.09058 0.15672 0.49265 0.07200
H 	H 	0.06534 0.91470 0.49746 0.07200
H 	H 	0.82738 0.90432 0.48519 0.07600
Cu	Cu	0.74628 0.33840 0.96035 0.93000
Cu	Cu	0.73185 0.28367 0.04825 0.88400
Cu	Cu	0.59411 0.29139 0.00478 0.90000
Cu	Cu	0.57333 0.31735 0.92170 0.90200
C 	C 	0.68681 0.29314 0.87583 0.29400
O 	O 	0.79246 0.46569 0.95459 -0.34000
C 	C 	0.64079 0.33131 0.09279 0.28900
O 	O 	0.60392 0.25831 0.95246 -0.63900
O 	O 	0.72830 0.35861 0.01471 -0.64000
O 	O 	0.81275 0.28721 0.97167 -0.36000
O 	O 	0.71231 0.19420 0.00849 -0.42100
O 	O 	0.64690 0.33164 0.88049 -0.35900
O 	O 	0.46373 0.21764 0.99250 -0.36700
C 	C 	0.41549 0.22282 0.96398 0.31600
C 	C 	0.74658 0.49615 0.96311 0.30100
O 	O 	0.66098 0.43955 0.96583 -0.38300
O 	O 	0.44835 0.25804 0.93274 -0.38100
O 	O 	0.74086 0.29949 0.90594 -0.35300
C 	C 	0.77498 0.21459 0.98754 0.31100
O 	O 	0.58347 0.31192 0.06047 -0.35900
O 	O 	0.71762 0.34375 0.09091 -0.40300
H 	H 	0.56835 0.19267 0.94291 0.17200
H 	H 	0.76251 0.42233 0.02775 0.18100
Cu	Cu	0.62699 0.20536 0.50712 0.93000
Cu	Cu	0.69346 0.22782 0.42161 0.88800
Cu	Cu	0.64716 0.34168 0.45944 0.90600
Cu	Cu	0.64477 0.37694 0.54584 0.90400
C 	C 	0.67109 0.26680 0.59133 0.29600
O 	O 	0.49916 0.16114 0.51282 -0.35100
C 	C 	0.63280 0.30481 0.37368 0.28800
O 	O 	0.69909 0.34522 0.51204 -0.63200
O 	O 	0.60492 0.21526 0.45160 -0.63800
O 	O 	0.67950 0.14005 0.49740 -0.35700
O 	O 	0.77811 0.24358 0.46323 -0.41500
O 	O 	0.62675 0.30019 0.58541 -0.37600
O 	O 	0.67823 0.46176 0.46869 -0.35300
C 	C 	0.72927 0.52326 0.50102 0.30800
C 	C 	0.46638 0.20419 0.50249 0.29800
O 	O 	0.52167 0.29074 0.50168 -0.38200
O 	O 	0.71913 0.50145 0.53633 -0.38200
O 	O 	0.66988 0.21586 0.56188 -0.35600
C 	C 	0.75373 0.17780 0.48238 0.31200
O 	O 	0.61369 0.33752 0.40314 -0.34700
O 	O 	0.63455 0.23620 0.37579 -0.39000
H 	H 	0.76623 0.38405 0.51787 0.17000
H 	H 	0.54123 0.17113 0.43749 0.19200
C 	C 	0.75318 0.33864 0.70184 -0.06900
C 	C 	0.71545 0.25519 0.71319 0.01800
C 	C 	0.67736 0.17806 0.68396 -0.00400
C 	C 	0.66907 0.18351 0.64376 0.00500
C 	C 	0.69993 0.26576 0.63246 -0.08600
C 	C 	0.74735 0.34459 0.66173 0.06000
C 	C 	0.70633 0.24766 0.75508 0.01900
S 	S 	0.64020 0.07470 0.69732 -0.01400
H 	H 	0.63529 0.12311 0.62138 0.05400
S 	S 	0.80121 0.45119 0.64851 -0.05200
H 	H 	0.78506 0.39864 0.72425 0.06300
C 	C 	0.78358 0.28972 0.78518 -0.00400
C 	C 	0.77592 0.29947 0.82499 0.00700
C 	C 	0.69128 0.26569 0.83514 -0.08000
C 	C 	0.61275 0.21477 0.80520 0.06000
C 	C 	0.62087 0.20763 0.76540 -0.06600
S 	S 	0.88994 0.33027 0.77336 -0.00700
H 	H 	0.83625 0.33620 0.84793 0.05800
S 	S 	0.50390 0.15761 0.81723 -0.04900
H 	H 	0.56089 0.17278 0.74237 0.06300
H 	H 	0.88790 0.48504 0.64442 0.04600
H 	H 	0.93422 0.41748 0.76816 0.04400
H 	H 	0.47364 0.07339 0.82276 0.04400
H 	H 	0.71123 0.07036 0.70205 0.05100
C 	C 	0.55036 0.27002 0.18690 -0.06600
C 	C 	0.60936 0.35343 0.21279 0.01600
C 	C 	0.66694 0.43186 0.19734 -0.00400
C 	C 	0.67225 0.42484 0.15712 0.00300
C 	C 	0.61892 0.34035 0.13193 -0.07900
C 	C 	0.55423 0.26325 0.14653 0.05500
C 	C 	0.62126 0.35570 0.25605 0.01700
S 	S 	0.73301 0.53886 0.22813 -0.01500
H 	H 	0.72006 0.48471 0.14571 0.04700
S 	S 	0.48075 0.15723 0.11497 -0.02500
H 	H 	0.50442 0.20977 0.19850 0.05800
C 	C 	0.55276 0.33772 0.27721 -0.00400
C 	C 	0.55909 0.32565 0.31653 0.00400
C 	C 	0.63387 0.33257 0.33508 -0.07700
C 	C 	0.70558 0.35765 0.31485 0.06000
C 	C 	0.69833 0.36778 0.27541 -0.06700
S 	S 	0.45926 0.33054 0.25490 -0.01100
H 	H 	0.50466 0.30827 0.33224 0.06000
S 	S 	0.80545 0.37794 0.33881 -0.05200
H 	H 	0.75197 0.38342 0.25947 0.06100
H 	H 	0.52185 0.11638 0.11358 0.03300
H 	H 	0.39180 0.24365 0.23608 0.04400
H 	H 	0.86679 0.46714 0.35594 0.05600
H 	H 	0.68355 0.57093 0.22921 0.04800
C 	C 	0.87894 0.74252 0.46443 -0.08000
C 	C 	0.88450 0.80293 0.49405 -0.00600
C 	C 	0.84035 0.77156 0.52626 0.08600
C 	C 	0.78782 0.67990 0.52755 -0.01400
C 	C 	0.78286 0.61929 0.49816 -0.09500
C 	C 	0.83088 0.65160 0.46691 0.14500
Br	Br	0.83935 0.57540 0.42952 -0.26300
H 	H 	0.91447 0.76686 0.44005 0.07600
H 	H 	0.75190 0.65595 0.55184 0.06900
Br	Br	0.85588 0.85344 0.57015 -0.19100
C 	C 	0.87137 0.07933 0.45099 -0.08200
C 	C 	0.91177 0.08109 0.48778 -0.00600
C 	C 	0.89992 0.11456 0.52289 0.08600
C 	C 	0.84677 0.14456 0.52087 -0.01100
C 	C 	0.80539 0.14169 0.48406 -0.10400
C 	C 	0.81757 0.10846 0.44893 0.14600
Br	Br	0.75632 0.09640 0.39795 -0.29400
H 	H 	0.87911 0.05223 0.42395 0.07700
H 	H 	0.83813 0.17062 0.54795 0.06500
Br	Br	0.95491 0.11872 0.57381 -0.19200
C 	C 	0.22475 0.11215 0.46340 -0.07900
C 	C 	0.18733 0.09150 0.49777 -0.00800
C 	C 	0.24211 0.10803 0.53363 0.08600
C 	C 	0.33223 0.14132 0.53445 -0.01800
C 	C 	0.36925 0.16062 0.49997 -0.09500
C 	C 	0.31543 0.14691 0.46438 0.14000
Br	Br	0.36378 0.17262 0.41655 -0.25000
H 	H 	0.18271 0.09904 0.43569 0.07400
H 	H 	0.37414 0.15405 0.56213 0.06600
Br	Br	0.19529 0.08709 0.58192 -0.20300
C 	C 	0.79992 0.64473 0.99960 -0.01100
C 	C 	0.78699 0.59172 0.96425 -0.09800
C 	C 	0.80276 0.62750 0.92924 0.14200
C 	C 	0.83221 0.71573 0.93002 -0.07900
C 	C 	0.84751 0.76962 0.96556 -0.00200
C 	C 	0.83073 0.73355 0.00048 0.08200
Br	Br	0.85160 0.80521 0.04983 -0.22300
H 	H 	0.78618 0.61698 0.02645 0.05600
H 	H 	0.84580 0.74341 0.90314 0.08800
Br	Br	0.78362 0.55679 0.87990 -0.22200
C 	C 	0.85155 0.07349 0.00988 -0.08100
C 	C 	0.84937 0.03858 0.97170 -0.01000
C 	C 	0.82081 0.06025 0.93859 0.08700
C 	C 	0.79809 0.11903 0.94402 -0.01500
C 	C 	0.80341 0.15644 0.98231 -0.10000
C 	C 	0.83040 0.13336 0.01541 0.14300
Br	Br	0.84652 0.18878 0.06846 -0.28300
H 	H 	0.87471 0.05803 0.03545 0.08200
H 	H 	0.77596 0.13528 0.91845 0.06600
Br	Br	0.81377 0.01114 0.88580 -0.21300
C 	C 	0.19406 0.13262 0.99784 -0.07900
C 	C 	0.13145 0.07108 0.96378 -0.00400
C 	C 	0.16224 0.06404 0.92900 0.08100
C 	C 	0.25525 0.11531 0.92914 -0.01400
C 	C 	0.31816 0.17488 0.96360 -0.09800
C 	C 	0.28712 0.18530 0.99781 0.14400
Br	Br	0.37015 0.27450 0.04397 -0.22400
H 	H 	0.17031 0.13955 0.02438 0.07600
H 	H 	0.27869 0.10786 0.90260 0.06300
Br	Br	0.07818 0.98588 0.88085 -0.20500
