data_crystal

_cell_length_a 25.79646
_cell_length_b 25.89460
_cell_length_c 26.47090
_cell_angle_alpha 95.51599
_cell_angle_beta  95.51674
_cell_angle_gamma 125.80060

_symmetry_space_group_name_	'P 1'
_symmetry_space_group_name_H-M	'P 1'

loop_
_symmetry_equiv_pos_as_xyz
  x,y,z

loop_
_atom_site_label
_atom_site_type_symbol
_atom_site_fract_x
_atom_site_fract_y
_atom_site_fract_z
_atom_site_charge
C 	C 	0.10072 0.06995 0.99261 0.03300
H 	H 	0.19022 0.04487 0.03399 0.04900
C 	C 	0.07217 0.01328 0.44475 -0.00100
C 	C 	0.07815 0.10747 0.00001 -0.07000
C 	C 	0.11561 0.01966 0.48552 -0.05500
C 	C 	0.17023 0.10194 0.99141 -0.00100
C 	C 	0.20558 0.07944 0.00834 -0.06200
H 	H 	0.31153 0.07882 0.03959 0.05100
C 	C 	0.17961 0.07759 0.49100 0.02600
S 	S 	0.11275 0.07907 0.41772 -0.01100
H 	H 	0.23107 0.05188 0.53927 0.05100
C 	C 	0.31916 0.11460 0.01693 -0.05700
C 	C 	0.26669 0.11197 0.99256 0.02900
H 	H 	0.11216 0.15991 0.00619 0.05400
C 	C 	0.23519 0.08587 0.51596 -0.05700
H 	H 	0.69333 0.08912 0.49147 0.03700
C 	C 	0.18508 0.11705 0.45565 0.00500
C 	C 	0.72796 0.10989 0.46581 -0.02800
S 	S 	0.21330 0.15900 0.95666 -0.00700
C 	C 	0.27734 0.15777 0.96197 0.00500
C 	C 	0.29576 0.13620 0.50637 0.00100
S 	S 	0.36194 0.13840 0.51441 0.03700
H 	H 	0.74320 0.02432 0.50750 0.04800
C 	C 	0.72938 0.14889 0.43169 -0.08000
C 	C 	0.24433 0.16068 0.44063 -0.05600
C 	C 	0.01199 0.07759 0.00016 0.02900
C 	C 	0.38198 0.16724 0.01364 -0.00300
S 	S 	0.44781 0.16921 0.02205 0.04400
C 	C 	0.30018 0.17095 0.46717 0.01700
S 	S 	0.00730 0.17674 0.97415 -0.01100
C 	C 	0.77824 0.05435 0.48433 -0.05800
C 	C 	0.39792 0.18318 0.47001 -0.07700
H 	H 	0.24621 0.18249 0.40724 0.04800
O 	O 	0.66991 0.17646 0.47707 -0.43700
C 	C 	0.77813 0.10265 0.46465 0.01600
C 	C 	0.05689 0.00214 0.98604 -0.06200
C 	C 	0.70531 0.18753 0.44142 0.28900
H 	H 	0.55711 0.19092 0.41461 0.16800
S 	S 	0.79194 0.17259 0.40120 0.03600
C 	C 	0.35822 0.19829 0.44731 -0.01800
H 	H 	0.56864 0.20843 0.66701 0.09000
H 	H 	0.63318 0.20691 0.24145 0.09400
H 	H 	0.91499 0.06624 0.05500 0.04900
H 	H 	0.99169 0.04851 0.44089 0.05800
C 	C 	0.98872 0.11768 0.00703 0.00000
C 	C 	0.82294 0.04395 0.47065 0.00800
C 	C 	0.85840 0.07240 0.43188 0.02400
C 	C 	0.88054 0.03861 0.40906 -0.05400
H 	H 	0.90986 0.05428 0.37932 0.04700
C 	C 	0.93524 0.10132 0.02976 -0.06000
C 	C 	0.85526 0.11792 0.40986 -0.05500
C 	C 	0.91421 0.13969 0.01947 0.02600
C 	C 	0.81905 0.13636 0.43024 -0.00400
H 	H 	0.87785 0.13620 0.37701 0.04900
C 	C 	0.96825 0.00969 0.99311 -0.05900
C 	C 	0.87599 0.14752 0.04877 -0.05700
H 	H 	0.84662 0.11261 0.07222 0.05100
C 	C 	0.94979 0.18380 0.98750 0.00500
C 	C 	0.87879 0.20316 0.04829 -0.00400
S 	S 	0.81956 0.20852 0.05919 0.04800
H 	H 	0.10205 0.98367 0.50960 0.04400
C 	C 	0.00085 0.97077 0.44031 0.03300
H 	H 	0.07411 0.97294 0.98038 0.04600
Cu	Cu	0.68249 0.41209 0.03912 0.89600
O 	O 	0.59541 0.24967 0.01966 -0.34800
O 	O 	0.67791 0.28931 0.94401 -0.64000
O 	O 	0.69142 0.39199 0.10939 -0.38600
C 	C 	0.56395 0.27053 0.99951 0.28500
O 	O 	0.59624 0.32821 0.98727 -0.38300
H 	H 	0.63189 0.25905 0.92607 0.18700
Cu	Cu	0.59663 0.25705 0.50298 0.90000
Cu	Cu	0.56449 0.28748 0.40095 0.90100
O 	O 	0.58718 0.23787 0.42949 -0.63600
O 	O 	0.50406 0.21139 0.50019 -0.37200
C 	C 	0.46727 0.21845 0.46784 0.29000
O 	O 	0.49333 0.26434 0.43985 -0.38800
O 	O 	0.60478 0.26076 0.57858 -0.38600
C 	C 	0.61904 0.26025 0.74461 0.33600
C 	C 	0.61113 0.25291 0.69075 -0.09100
F 	F 	0.57277 0.21216 0.76649 -0.44900
F 	F 	0.65212 0.22262 0.14715 -0.44000
H 	H 	0.36938 0.22561 0.41635 0.04300
C 	C 	0.34034 0.21012 0.95853 -0.05500
C 	C 	0.39266 0.21300 0.98343 0.02000
C 	C 	0.49245 0.22847 0.98926 -0.07300
C 	C 	0.45529 0.24845 0.97037 -0.02200
H 	H 	0.34823 0.24640 0.93636 0.05000
H 	H 	0.47256 0.28669 0.94811 0.04800
Cu	Cu	0.69138 0.29573 0.01981 0.93200
Cu	Cu	0.73625 0.28011 0.91084 0.87600
Cu	Cu	0.71752 0.38188 0.93964 0.90000
C 	C 	0.69265 0.34422 0.12199 0.32800
C 	C 	0.69050 0.31843 0.83138 0.33400
O 	O 	0.73588 0.39281 0.01326 -0.64000
O 	O 	0.73917 0.25717 0.02629 -0.34900
O 	O 	0.70643 0.48383 0.00072 -0.39000
O 	O 	0.71469 0.31897 0.09336 -0.33500
O 	O 	0.71544 0.37279 0.86435 -0.38700
O 	O 	0.68918 0.27050 0.84605 -0.39400
C 	C 	0.63784 0.28298 0.32227 0.33900
C 	C 	0.65907 0.28666 0.61231 0.33600
O 	O 	0.58422 0.27483 0.33155 -0.37000
O 	O 	0.64768 0.37549 0.45134 -0.38100
O 	O 	0.66466 0.26208 0.35047 -0.36300
C 	C 	0.67562 0.31615 0.77578 -0.13200
C 	C 	0.65999 0.30095 0.66766 -0.13200
C 	C 	0.65041 0.25445 0.23406 -0.08300
C 	C 	0.65763 0.30034 0.27276 -0.13100
C 	C 	0.68391 0.33004 0.17466 -0.12100
C 	C 	0.66286 0.26886 0.18501 0.33300
C 	C 	0.69320 0.37659 0.21421 -0.09500
C 	C 	0.72179 0.36653 0.75268 -0.09200
C 	C 	0.71425 0.35885 0.69883 0.33600
C 	C 	0.67944 0.36156 0.26275 0.33700
H 	H 	0.67620 0.49557 0.47419 0.04700
C 	C 	0.75214 0.50981 0.97230 0.29000
Cu	Cu	0.68572 0.28454 0.42424 0.93000
O 	O 	0.69042 0.29891 0.49998 -0.64000
H 	H 	0.71034 0.42423 0.20717 0.09200
H 	H 	0.74320 0.60731 0.02180 0.04200
Cu	Cu	0.70066 0.24257 0.53492 0.87500
O 	O 	0.70845 0.28978 0.59860 -0.39700
C 	C 	0.70516 0.40892 0.43846 0.30200
F 	F 	0.68638 0.40623 0.29991 -0.46100
H 	H 	0.70344 0.61184 0.47020 0.05000
C 	C 	0.71347 0.51141 0.45091 -0.01600
H 	H 	0.71953 0.34498 0.51748 0.18600
O 	O 	0.73052 0.37982 0.42360 -0.35200
O 	O 	0.72588 0.23807 0.41941 -0.36100
O 	O 	0.76076 0.47348 0.94113 -0.37200
C 	C 	0.73431 0.61664 0.44313 -0.05500
C 	C 	0.73877 0.56636 0.42729 0.02300
C 	C 	0.74077 0.47888 0.44017 -0.07400
H 	H 	0.76515 0.41026 0.77640 0.09100
F 	F 	0.76081 0.40668 0.67695 -0.45000
C 	C 	0.76972 0.61759 0.99030 -0.01800
H 	H 	0.78270 0.42426 0.02882 0.16900
C 	C 	0.77442 0.67489 0.42570 0.00600
H 	H 	0.78287 0.72893 0.02693 0.04700
C 	C 	0.78582 0.57838 0.96851 -0.07700
C 	C 	0.79217 0.27996 0.00700 0.28600
C 	C 	0.78472 0.57600 0.39736 0.00300
C 	C 	0.79464 0.67380 0.96839 0.01600
S 	S 	0.79468 0.74606 0.45405 -0.00800
S 	S 	0.79482 0.51876 0.40209 0.07400
O 	O 	0.80301 0.31234 0.96921 -0.43300
C 	C 	0.80365 0.72960 0.99310 -0.05500
C 	C 	0.96589 0.99660 0.43715 -0.07800
H 	H 	0.98205 0.27423 0.96352 0.04700
C 	C 	0.95298 0.23959 0.98725 -0.05800
H 	H 	0.99482 0.88440 0.44273 0.05100
H 	H 	0.90877 0.31454 0.97563 0.04000
C 	C 	0.86108 0.98299 0.42958 -0.00800
S 	S 	0.81779 0.97758 0.47483 -0.01200
C 	C 	0.99074 0.97190 0.98667 0.02400
H 	H 	0.91681 0.98632 0.99159 0.04800
C 	C 	0.89775 0.95569 0.43081 0.03900
C 	C 	0.96770 0.90416 0.43916 -0.07400
C 	C 	0.89966 0.86309 0.43367 0.03800
C 	C 	0.86474 0.88894 0.42869 -0.07500
H 	H 	0.81207 0.85733 0.42310 0.05600
C 	C 	0.83143 0.63727 0.38684 -0.05400
C 	C 	0.82453 0.68649 0.39993 0.02700
C 	C 	0.86537 0.79328 0.43394 -0.00400
C 	C 	0.87525 0.75330 0.40373 -0.05900
H 	H 	0.87326 0.64714 0.37157 0.05100
H 	H 	0.91767 0.77140 0.38616 0.04700
C 	C 	0.84462 0.78743 0.97536 0.00500
C 	C 	0.82833 0.67713 0.92857 0.00100
C 	C 	0.87652 0.73678 0.91639 -0.05800
C 	C 	0.88325 0.79207 0.93928 0.02800
S 	S 	0.88138 0.86105 0.01045 -0.01400
C 	C 	0.94533 0.90070 0.98106 0.00100
C 	C 	0.93955 0.85627 0.94189 -0.06200
S 	S 	0.82848 0.61260 0.92252 0.03600
H 	H 	0.91008 0.74065 0.89254 0.05000
H 	H 	0.97550 0.86904 0.91777 0.04800
C 	C 	0.91491 0.24764 0.01664 0.01700
C 	C 	0.83925 0.26889 0.02757 -0.07700
C 	C 	0.89285 0.28487 0.00508 -0.02500
