data_crystal

_cell_length_a 20.44512
_cell_length_b 21.23690
_cell_length_c 48.04858
_cell_angle_alpha 60.59151
_cell_angle_beta  119.15902
_cell_angle_gamma 133.30988

_symmetry_space_group_name_	'P 1'
_symmetry_space_group_name_H-M	'P 1'

loop_
_symmetry_equiv_pos_as_xyz
  x,y,z

loop_
_atom_site_label
_atom_site_type_symbol
_atom_site_fract_x
_atom_site_fract_y
_atom_site_fract_z
_atom_site_charge
Co	Co	0.07009 0.01504 0.03380 1.16100
Co	Co	0.09095 0.87545 0.03333 1.16500
O 	O 	0.05389 0.07284 0.15689 -0.39600
C 	C 	0.06182 0.00778 0.17756 0.21800
O 	O 	0.06190 0.11140 0.02833 -0.47500
C 	C 	0.15475 0.81365 0.10526 0.31100
O 	O 	0.06183 0.95995 0.16701 -0.36000
O 	O 	0.10847 0.79024 0.07749 -0.41300
O 	O 	0.14247 0.85697 0.11248 -0.39200
O 	O 	0.00497 0.17623 0.09242 -0.42300
O 	O 	0.11287 0.18649 0.08416 -0.39400
O 	O 	0.05333 0.91459 0.05214 -0.75900
Co	Co	0.03354 0.02906 0.52238 1.17000
Co	Co	0.09919 0.92523 0.52358 1.16900
O 	O 	0.00361 0.07136 0.64557 -0.39900
C 	C 	0.01316 0.00837 0.66758 0.21000
O 	O 	0.00801 0.11321 0.51581 -0.47800
O 	O 	0.01870 0.96179 0.65862 -0.35600
O 	O 	0.14903 0.90093 0.60607 -0.37600
O 	O 	0.05652 0.18871 0.57140 -0.39400
O 	O 	0.04088 0.94180 0.54305 -0.75400
C 	C 	0.05752 0.96421 0.72985 -0.03100
C 	C 	0.06559 0.00973 0.81376 -0.08300
C 	C 	0.07394 0.99088 0.21308 0.01400
C 	C 	0.13872 0.06375 0.22760 -0.04900
C 	C 	0.12812 0.05909 0.25548 -0.04300
C 	C 	0.05303 0.98119 0.26949 -0.01800
C 	C 	0.02248 0.04326 0.29137 -0.06000
C 	C 	0.00563 0.04302 0.31655 -0.07500
C 	C 	0.04133 0.05464 0.38633 -0.11300
H 	H 	0.17650 0.11715 0.26546 0.04300
H 	H 	0.02564 0.09201 0.26801 0.04100
H 	H 	0.09872 0.11581 0.37554 0.06000
H 	H 	0.07920 0.10739 0.42446 0.04900
N 	N 	0.07401 0.37632 0.49928 -0.11200
C 	C 	0.10454 0.72350 0.63521 0.07000
C 	C 	0.21010 0.77970 0.12963 -0.08500
C 	C 	0.16394 0.68647 0.14238 0.03500
C 	C 	0.07235 0.63085 0.14740 0.04000
C 	C 	0.09025 0.22088 0.09159 0.30500
C 	C 	0.01441 0.96678 0.97212 0.22700
O 	O 	0.08144 0.95774 0.98701 -0.38200
C 	C 	0.02856 0.21810 0.57895 0.27300
C 	C 	0.05308 0.95418 0.76038 -0.06600
C 	C 	0.05968 0.01239 0.84113 -0.07700
C 	C 	0.01467 0.04413 0.88383 -0.09100
C 	C 	0.01792 0.04643 0.91330 -0.05000
H 	H 	0.10003 0.94406 0.78273 0.05200
H 	H 	0.10933 0.96397 0.72901 0.05300
H 	H 	0.05215 0.10623 0.86657 0.04900
H 	H 	0.06151 0.11016 0.91903 0.04400
H 	H 	0.19362 0.12620 0.21592 0.05200
H 	H 	0.16470 0.57416 0.15520 0.05600
Co	Co	0.01962 0.88054 0.58098 1.17500
C 	C 	0.02973 0.05014 0.41400 -0.03000
C 	C 	0.08890 0.37943 0.52527 0.07200
N 	N 	0.04563 0.69256 0.64600 -0.11500
O 	O 	0.04255 0.79375 0.55052 -0.42700
C 	C 	0.03452 0.98040 0.29629 0.04100
C 	C 	0.10742 0.38329 0.55769 0.01500
C 	C 	0.09139 0.30821 0.58461 -0.07000
H 	H 	0.14959 0.63436 0.63267 0.05200
H 	H 	0.12220 0.05631 0.85655 0.04600
C 	C 	0.20284 0.64626 0.14711 -0.04900
H 	H 	0.13204 0.05387 0.80784 0.04600
H 	H 	0.09384 0.25583 0.63631 0.03800
C 	C 	0.14162 0.46277 0.56228 -0.03900
C 	C 	0.10923 0.31414 0.61572 -0.00200
O 	O 	0.16416 0.05742 0.49648 -0.42300
H 	H 	0.13996 0.23616 0.15223 0.03800
C 	C 	0.14037 0.39243 0.61999 -0.02200
H 	H 	0.15805 0.52147 0.54181 0.05400
C 	C 	0.16080 0.30397 0.10295 -0.07900
C 	C 	0.16629 0.29958 0.13411 0.00100
C 	C 	0.02939 0.91726 0.32673 -0.05100
H 	H 	0.03902 0.86874 0.33100 0.04600
C 	C 	0.16213 0.46921 0.59367 -0.00300
C 	C 	0.15350 0.39466 0.65196 0.08800
C 	C 	0.01258 0.91704 0.35191 -0.02500
C 	C 	0.17794 0.76195 0.62175 0.01800
O 	O 	0.21107 0.08871 0.03736 -0.39200
O 	O 	0.17391 0.11897 0.52703 -0.41000
N 	N 	0.16406 0.39655 0.67756 -0.11400
C 	C 	0.19710 0.38735 0.07992 0.02000
C 	C 	0.20502 0.39700 0.04960 0.08000
N 	N 	0.21182 0.40496 0.02533 -0.10500
H 	H 	0.00945 0.86831 0.37527 0.03500
C 	C 	0.19764 0.37437 0.14108 -0.02600
Co	Co	0.02231 0.85158 0.08826 1.17600
N 	N 	0.19699 0.35929 0.19808 -0.11800
C 	C 	0.19901 0.90987 0.59246 0.29200
C 	C 	0.19727 0.36599 0.17273 0.08400
C 	C 	0.19431 0.70588 0.62287 -0.04400
N 	N 	0.22046 0.95277 0.98314 -0.10500
Co	Co	0.00908 0.07471 0.06462 1.17000
C 	C 	0.00048 0.97987 0.34699 -0.00800
O 	O 	0.21104 0.96215 0.56305 -0.38700
C 	C 	0.21208 0.12181 0.51060 0.31200
C 	C 	0.00387 0.91036 0.22890 -0.09900
N 	N 	0.21583 0.60475 0.60322 -0.13400
C 	C 	0.22946 0.46274 0.08698 -0.04100
C 	C 	0.99288 0.90568 0.25676 0.04500
C 	C 	0.99750 0.97817 0.70055 0.00700
O 	O 	0.22549 0.98220 0.04537 -0.36100
C 	C 	0.98891 0.95866 0.76175 0.03900
H 	H 	0.98881 0.61245 0.59197 0.05100
C 	C 	0.98555 0.95209 0.79367 0.05400
H 	H 	0.99595 0.09151 0.31227 0.07000
O 	O 	0.99477 0.98945 0.98678 -0.32400
N 	N 	0.99547 0.29151 0.00122 -0.09600
C 	C 	0.97330 0.95884 0.84839 0.04800
O 	O 	0.98115 0.89171 0.48651 -0.37500
C 	C 	0.97335 0.96671 0.93681 0.01700
C 	C 	0.98174 0.97894 0.37376 0.10000
C 	C 	0.95947 0.96963 0.42975 -0.03100
O 	O 	0.94390 0.16703 0.58194 -0.38300
C 	C 	0.96664 0.96191 0.87749 0.06200
Co	Co	0.96092 0.07318 0.55417 1.19100
C 	C 	0.93199 0.97990 0.70237 -0.00200
C 	C 	0.92810 0.97070 0.73251 -0.04600
H 	H 	0.88695 0.99315 0.68010 0.03200
H 	H 	0.87916 0.97546 0.73296 0.05400
C 	C 	0.23522 0.85523 0.60855 -0.07400
C 	C 	0.70971 0.26553 0.02066 0.12200
N 	N 	0.62223 0.24291 0.00577 -0.13500
C 	C 	0.59660 0.28581 0.00710 0.12100
N 	N 	0.66089 0.35582 0.02104 -0.13400
C 	C 	0.74832 0.37976 0.03562 0.12300
N 	N 	0.77286 0.33391 0.03586 -0.13200
C 	C 	0.69060 0.27253 0.52088 0.12000
N 	N 	0.60206 0.23553 0.51874 -0.13900
C 	C 	0.58439 0.27484 0.52669 0.12300
N 	N 	0.65413 0.35299 0.53535 -0.13400
C 	C 	0.74148 0.39451 0.53494 0.12300
N 	N 	0.76072 0.35332 0.52862 -0.12900
C 	C 	0.32250 0.65411 0.14017 0.11900
N 	N 	0.41464 0.69207 0.14940 -0.13100
C 	C 	0.44618 0.65658 0.14677 0.12400
N 	N 	0.38561 0.57918 0.13758 -0.13500
C 	C 	0.29385 0.53987 0.12863 0.12200
N 	N 	0.26150 0.57730 0.12969 -0.13400
C 	C 	0.28655 0.68245 0.61331 0.11900
N 	N 	0.37527 0.70960 0.62235 -0.13000
C 	C 	0.39423 0.66413 0.61894 0.12600
N 	N 	0.32455 0.58869 0.60836 -0.13500
C 	C 	0.23566 0.55767 0.60105 0.12200
Co	Co	0.97878 0.91973 0.12214 1.19500
C 	C 	0.91740 0.71048 0.05085 0.29200
Co	Co	0.93647 0.04584 0.11978 1.17400
C 	C 	0.24733 0.06364 0.03179 0.26700
O 	O 	0.97418 0.00879 0.10009 -0.75300
O 	O 	0.99164 0.82613 0.12858 -0.44000
O 	O 	0.99409 0.95184 0.07230 -0.55400
C 	C 	0.81175 0.84708 0.13879 0.30800
O 	O 	0.86552 0.91856 0.14953 -0.38800
O 	O 	0.84240 0.83428 0.12490 -0.37700
C 	C 	0.83877 0.06744 0.05017 0.28600
O 	O 	0.82546 0.01509 0.07970 -0.39600
O 	O 	0.89530 0.08237 0.03759 -0.35900
O 	O 	0.95235 0.77344 0.02524 -0.37400
O 	O 	0.92041 0.72999 0.07423 -0.35400
Co	Co	0.94488 0.92374 0.61308 1.19400
C 	C 	0.95922 0.73892 0.55554 0.33100
Co	Co	0.88336 0.03639 0.60946 1.16800
O 	O 	0.92989 0.00686 0.59026 -0.75800
O 	O 	0.97848 0.84463 0.62055 -0.43700
O 	O 	0.96181 0.95837 0.56315 -0.55300
C 	C 	0.76917 0.83796 0.62720 0.30900
C 	C 	0.96944 0.95391 0.46493 0.30700
O 	O 	0.81780 0.90715 0.63867 -0.39300
O 	O 	0.80827 0.82756 0.61620 -0.37300
O 	O 	0.97370 0.00662 0.47449 -0.36800
C 	C 	0.78438 0.05368 0.54022 0.29000
O 	O 	0.77143 0.00130 0.56975 -0.39200
O 	O 	0.83966 0.06758 0.52752 -0.36600
O 	O 	0.93324 0.76025 0.56810 -0.36800
C 	C 	0.89356 0.90045 0.82850 -0.03500
C 	C 	0.89989 0.89592 0.80179 -0.04000
C 	C 	0.91604 0.88504 0.92847 -0.01100
C 	C 	0.91442 0.88240 0.89946 -0.04700
H 	H 	0.82643 0.85908 0.83350 0.04800
H 	H 	0.83764 0.85041 0.78684 0.04900
H 	H 	0.88020 0.82291 0.94606 0.05000
H 	H 	0.87594 0.81834 0.89492 0.05200
C 	C 	0.89565 0.89632 0.41554 0.01500
C 	C 	0.90680 0.90086 0.38781 -0.07100
H 	H 	0.93539 0.84461 0.26753 0.03800
H 	H 	0.95374 0.85348 0.21823 0.09000
H 	H 	0.84065 0.83393 0.42716 0.04700
H 	H 	0.85884 0.84266 0.37794 0.06200
C 	C 	0.67025 0.77267 0.62657 -0.08000
C 	C 	0.64276 0.74213 0.65495 0.00900
C 	C 	0.55332 0.70855 0.65268 -0.02500
C 	C 	0.48974 0.70303 0.62187 0.00100
C 	C 	0.51462 0.72598 0.59405 -0.03700
C 	C 	0.60419 0.76021 0.59626 0.02400
H 	H 	0.69297 0.74989 0.67846 0.04500
H 	H 	0.46428 0.71801 0.57056 0.06200
C 	C 	0.62898 0.78624 0.56698 0.09200
C 	C 	0.52751 0.68030 0.68203 0.09400
N 	N 	0.64883 0.80719 0.54352 -0.10200
N 	N 	0.50680 0.65766 0.70554 -0.11000
C 	C 	0.26858 0.74215 0.61155 -0.00000
C 	C 	0.31576 0.89157 0.60142 0.00300
C 	C 	0.32972 0.83627 0.60076 -0.02500
H 	H 	0.36269 0.96343 0.59284 0.05300
C 	C 	0.40284 0.87679 0.58661 0.09600
N 	N 	0.46148 0.90945 0.57528 -0.10800
C 	C 	0.23073 0.45710 0.11765 -0.00300
H 	H 	0.25879 0.52707 0.06936 0.05600
C 	C 	0.71431 0.78619 0.13934 -0.07900
C 	C 	0.65296 0.80305 0.11235 0.00600
C 	C 	0.56839 0.76785 0.11556 -0.02100
C 	C 	0.54241 0.71126 0.14570 0.00000
C 	C 	0.60204 0.69122 0.17231 -0.04100
C 	C 	0.68737 0.72760 0.16918 0.02400
H 	H 	0.67303 0.84703 0.08920 0.05100
H 	H 	0.58053 0.64480 0.19509 0.05500
C 	C 	0.74565 0.70228 0.19631 0.07700
C 	C 	0.50774 0.78900 0.08764 0.09700
N 	N 	0.79200 0.68157 0.21807 -0.10700
N 	N 	0.45918 0.80591 0.06530 -0.10700
C 	C 	0.30254 0.83254 0.12861 0.01000
C 	C 	0.34114 0.79328 0.13223 -0.02700
C 	C 	0.28895 0.69863 0.14008 0.00400
H 	H 	0.34038 0.90465 0.12064 0.04900
C 	C 	0.43151 0.85091 0.12584 0.10400
N 	N 	0.99889 0.58633 0.15135 -0.07900
N 	N 	0.50400 0.89740 0.12076 -0.10200
C 	C 	0.71021 0.21943 0.51832 -0.00600
C 	C 	0.64181 0.12672 0.52146 -0.03300
C 	C 	0.66151 0.07272 0.52370 -0.01200
C 	C 	0.75120 0.11014 0.52407 -0.06800
C 	C 	0.81551 0.20352 0.51644 0.00200
C 	C 	0.79588 0.25858 0.51357 -0.02000
H 	H 	0.57373 0.09606 0.52298 0.05100
H 	H 	0.88274 0.23314 0.51449 0.05500
C 	C 	0.86239 0.35430 0.50456 0.10200
C 	C 	0.58909 0.97865 0.52558 0.12100
N 	N 	0.91593 0.43096 0.49736 -0.10400
N 	N 	0.53099 0.90334 0.52702 -0.11000
C 	C 	0.89982 0.64801 0.55145 -0.08000
C 	C 	0.92991 0.59287 0.57116 0.01600
C 	C 	0.88606 0.51395 0.56355 -0.02500
C 	C 	0.81036 0.48885 0.53619 0.00300
C 	C 	0.78514 0.54750 0.51513 -0.04000
C 	C 	0.82675 0.62469 0.52330 0.02300
H 	H 	0.72791 0.52924 0.49366 0.05500
C 	C 	0.79311 0.67905 0.50286 0.08000
C 	C 	0.91965 0.45955 0.58380 0.10200
N 	N 	0.76600 0.72245 0.48652 -0.10400
N 	N 	0.94671 0.41608 0.60000 -0.10400
C 	C 	0.48928 0.23786 0.52284 -0.00500
C 	C 	0.43767 0.25511 0.49146 -0.04500
C 	C 	0.35020 0.22890 0.48748 0.02300
C 	C 	0.31246 0.18211 0.51501 -0.08900
C 	C 	0.36786 0.17293 0.54663 0.00900
C 	C 	0.45506 0.19837 0.55066 -0.02800
H 	H 	0.46630 0.29015 0.47021 0.05200
H 	H 	0.34005 0.13944 0.56797 0.04200
C 	C 	0.50755 0.18067 0.58332 0.08800
C 	C 	0.29942 0.25035 0.45508 0.07200
N 	N 	0.54957 0.16643 0.60946 -0.11400
N 	N 	0.25901 0.26782 0.42910 -0.11400
C 	C 	0.73445 0.21228 0.02211 -0.00600
C 	C 	0.81727 0.25626 0.01448 -0.03600
C 	C 	0.84642 0.20770 0.01878 0.01600
C 	C 	0.79383 0.11416 0.03191 -0.06300
C 	C 	0.70596 0.06959 0.03572 -0.03100
C 	C 	0.67697 0.11780 0.03177 -0.01400
H 	H 	0.85947 0.32837 0.00548 0.06200
H 	H 	0.66329 0.99738 0.04444 0.07200
C 	C 	0.59081 0.06982 0.03959 0.08500
C 	C 	0.92929 0.25422 0.00913 0.09200
N 	N 	0.52176 0.03134 0.04583 -0.11200
C 	C 	0.81438 0.45352 0.05209 0.00000
C 	C 	0.78165 0.45878 0.07017 -0.03600
C 	C 	0.81605 0.54207 0.07109 0.02300
C 	C 	0.88972 0.62066 0.05622 -0.06900
C 	C 	0.93399 0.61333 0.04405 0.01200
C 	C 	0.89628 0.53031 0.04170 -0.02400
H 	H 	0.72225 0.39865 0.08024 0.05600
H 	H 	0.99529 0.67285 0.03496 0.03600
C 	C 	0.93964 0.52532 0.02720 0.09900
C 	C 	0.77167 0.54596 0.08555 0.09300
N 	N 	0.97442 0.52133 0.01559 -0.10600
N 	N 	0.73597 0.54889 0.09714 -0.10100
C 	C 	0.32409 0.13077 0.01489 -0.07700
C 	C 	0.38395 0.21981 0.01669 0.00500
C 	C 	0.46833 0.27832 0.00775 -0.02800
C 	C 	0.49672 0.24493 0.99998 0.00200
C 	C 	0.42990 0.16163 0.99231 -0.04600
C 	C 	0.34340 0.10467 0.99939 0.02900
H 	H 	0.36586 0.24317 0.02554 0.04800
H 	H 	0.44672 0.13923 0.98242 0.05900
C 	C 	0.27491 0.02028 0.99039 0.03800
C 	C 	0.52153 0.37273 0.00428 0.09500
N 	N 	0.56409 0.44834 0.00153 -0.11000
