data_crystal

_cell_length_a 18.51933
_cell_length_b 18.80966
_cell_length_c 35.67637
_cell_angle_alpha 95.41886
_cell_angle_beta  95.41948
_cell_angle_gamma 126.41809

_symmetry_space_group_name_	'P 1'
_symmetry_space_group_name_H-M	'P 1'

loop_
_symmetry_equiv_pos_as_xyz
  x,y,z

loop_
_atom_site_label
_atom_site_type_symbol
_atom_site_fract_x
_atom_site_fract_y
_atom_site_fract_z
_atom_site_charge
C 	C 	0.88484 0.97142 0.96467 0.13100
N 	N 	0.83920 0.88198 0.96489 -0.13300
C 	C 	0.88415 0.84529 0.96264 0.12300
N 	N 	0.97395 0.89798 0.96041 -0.14100
C 	C 	0.01934 0.98692 0.96059 0.14200
N 	N 	0.97467 0.02343 0.96241 -0.14400
C 	C 	0.96922 0.05956 0.49802 0.11000
N 	N 	0.92005 0.97022 0.49812 -0.13000
C 	C 	0.96223 0.93117 0.50029 0.11700
N 	N 	0.05418 0.98206 0.50322 -0.12600
C 	C 	0.10360 0.07108 0.50220 0.11800
N 	N 	0.06098 0.10997 0.49946 -0.12700
Cu	Cu	0.73851 0.31889 0.96106 0.92900
Cu	Cu	0.72613 0.25961 0.04523 0.87100
Cu	Cu	0.58632 0.26930 0.00532 0.89700
Cu	Cu	0.56578 0.30199 0.92585 0.89900
C 	C 	0.68219 0.28373 0.87890 0.33400
O 	O 	0.78809 0.44809 0.95761 -0.35100
C 	C 	0.63957 0.31058 0.09049 0.32800
O 	O 	0.59539 0.24013 0.95382 -0.63800
O 	O 	0.72128 0.33580 0.01408 -0.64400
O 	O 	0.80196 0.26312 0.96971 -0.36300
O 	O 	0.70197 0.16947 0.00563 -0.43800
O 	O 	0.63640 0.31626 0.88435 -0.38600
O 	O 	0.45478 0.19664 0.99410 -0.37700
C 	C 	0.40521 0.19432 0.96415 0.29500
C 	C 	0.74195 0.47859 0.96580 0.28200
O 	O 	0.65646 0.42212 0.96926 -0.38900
O 	O 	0.44277 0.24715 0.93890 -0.38400
O 	O 	0.73270 0.28438 0.90792 -0.36400
C 	C 	0.76181 0.18835 0.98363 0.29100
O 	O 	0.57607 0.28152 0.05986 -0.39300
O 	O 	0.71539 0.32020 0.08771 -0.42600
H 	H 	0.55919 0.17489 0.94361 0.17200
H 	H 	0.75603 0.39914 0.02722 0.17500
Cu	Cu	0.63507 0.22373 0.50917 0.93000
Cu	Cu	0.68539 0.22786 0.42345 0.87300
Cu	Cu	0.68367 0.37080 0.46379 0.89800
Cu	Cu	0.67284 0.40400 0.54615 0.89900
C 	C 	0.68220 0.28261 0.59114 0.33400
O 	O 	0.51060 0.18901 0.51602 -0.35300
C 	C 	0.63751 0.31672 0.37867 0.32600
O 	O 	0.72258 0.36410 0.51462 -0.63700
O 	O 	0.61358 0.23807 0.45621 -0.64400
O 	O 	0.67990 0.15158 0.49832 -0.36400
O 	O 	0.77599 0.24605 0.46159 -0.43600
O 	O 	0.65236 0.33052 0.58651 -0.39100
O 	O 	0.75914 0.50045 0.47293 -0.38200
C 	C 	0.76352 0.55287 0.50194 0.29300
C 	C 	0.48432 0.23781 0.50680 0.28000
O 	O 	0.54540 0.32295 0.50499 -0.39000
O 	O 	0.74762 0.52841 0.53560 -0.38300
O 	O 	0.67568 0.22985 0.56167 -0.36600
C 	C 	0.75398 0.18632 0.48343 0.29100
O 	O 	0.65862 0.37577 0.40935 -0.38700
O 	O 	0.62403 0.24046 0.38175 -0.42300
H 	H 	0.78919 0.39612 0.52200 0.17200
H 	H 	0.54881 0.20505 0.44407 0.18400
C 	C 	0.66643 0.26887 0.77189 0.01100
C 	C 	0.60314 0.20549 0.73934 -0.03700
C 	C 	0.62180 0.22163 0.70269 -0.03500
C 	C 	0.70343 0.30207 0.69830 0.00900
C 	C 	0.76851 0.36349 0.73088 -0.03600
C 	C 	0.75041 0.34672 0.76753 -0.03600
C 	C 	0.71382 0.32898 0.66046 0.01600
C 	C 	0.70069 0.27139 0.62809 -0.16400
C 	C 	0.63893 0.26063 0.80968 0.01600
C 	C 	0.69389 0.26733 0.84177 -0.16000
H 	H 	0.53809 0.14527 0.74239 0.04500
H 	H 	0.57073 0.17393 0.67775 0.04800
H 	H 	0.83162 0.42583 0.72782 0.04400
H 	H 	0.79961 0.39642 0.79247 0.05200
H 	H 	0.72930 0.39357 0.65773 0.03400
H 	H 	0.70265 0.21579 0.63175 0.09500
H 	H 	0.57562 0.25054 0.81248 0.03700
H 	H 	0.74783 0.26157 0.83778 0.09600
C 	C 	0.65596 0.33842 0.19803 0.00600
C 	C 	0.71788 0.40109 0.23102 -0.03800
C 	C 	0.69837 0.38299 0.26740 -0.03800
C 	C 	0.61640 0.30188 0.27115 0.00700
C 	C 	0.55289 0.24090 0.23815 -0.03900
C 	C 	0.57253 0.25882 0.20178 -0.03700
C 	C 	0.60314 0.27407 0.30889 0.01100
C 	C 	0.62757 0.33529 0.34229 -0.16800
C 	C 	0.68449 0.35042 0.16029 0.01200
C 	C 	0.62202 0.32438 0.12668 -0.17100
H 	H 	0.78262 0.46242 0.22851 0.04100
H 	H 	0.74884 0.43003 0.29259 0.04100
H 	H 	0.48975 0.17793 0.24067 0.04200
H 	H 	0.52477 0.20892 0.17664 0.04200
H 	H 	0.57425 0.20472 0.31047 0.03700
H 	H 	0.64340 0.40018 0.33993 0.08800
H 	H 	0.75494 0.37869 0.15882 0.03500
H 	H 	0.55635 0.30957 0.12882 0.08800
C 	C 	0.80941 0.64848 0.49968 -0.07400
C 	C 	0.87541 0.68931 0.47636 0.00400
C 	C 	0.92267 0.78049 0.47497 -0.02300
C 	C 	0.90798 0.83338 0.49883 -0.00200
C 	C 	0.84012 0.79225 0.52122 -0.04200
C 	C 	0.78913 0.69987 0.52101 0.01800
H 	H 	0.88989 0.64995 0.45918 0.04600
H 	H 	0.82670 0.83219 0.53870 0.05600
C 	C 	0.71352 0.65783 0.54119 0.07600
C 	C 	0.98217 0.81785 0.44743 0.08400
N 	N 	0.65295 0.62424 0.55736 -0.11400
N 	N 	0.02959 0.84742 0.42529 -0.10700
C 	C 	0.80747 0.15216 0.48788 -0.08400
C 	C 	0.81110 0.10718 0.45532 0.00500
C 	C 	0.86794 0.08114 0.45790 -0.02700
C 	C 	0.92170 0.09978 0.49347 0.00100
C 	C 	0.91951 0.14628 0.52592 -0.04500
C 	C 	0.86274 0.17260 0.52333 0.02300
H 	H 	0.77007 0.09306 0.42788 0.01900
H 	H 	0.96062 0.16036 0.55333 0.05500
C 	C 	0.86297 0.22195 0.55698 0.07500
C 	C 	0.87099 0.03549 0.42388 0.08100
N 	N 	0.86342 0.26157 0.58398 -0.11000
N 	N 	0.87349 0.99891 0.39665 -0.10900
C 	C 	0.20141 0.12259 0.50013 0.00200
C 	C 	0.22788 0.08788 0.47275 -0.04300
C 	C 	0.32006 0.12529 0.47440 0.02000
C 	C 	0.38731 0.20014 0.50311 -0.07500
C 	C 	0.36148 0.23839 0.52908 0.00700
C 	C 	0.26894 0.19959 0.52799 -0.02700
H 	H 	0.17629 0.03016 0.45070 0.06100
H 	H 	0.41328 0.29680 0.55085 0.03600
C 	C 	0.24389 0.23735 0.55633 0.09300
C 	C 	0.34484 0.08632 0.44650 0.06900
N 	N 	0.22378 0.26759 0.57903 -0.11200
N 	N 	0.36430 0.05478 0.42409 -0.12100
C 	C 	0.78095 0.57348 0.96519 -0.07700
C 	C 	0.77976 0.62415 0.99633 0.00700
C 	C 	0.80718 0.71113 0.99486 -0.02200
C 	C 	0.83592 0.74816 0.96182 -0.00400
C 	C 	0.83443 0.69640 0.93026 -0.04200
C 	C 	0.80750 0.60972 0.93177 0.01600
H 	H 	0.75724 0.59572 0.02171 0.03300
H 	H 	0.85668 0.72472 0.90483 0.05100
C 	C 	0.80589 0.55798 0.89861 0.07700
C 	C 	0.80722 0.76243 0.02766 0.08600
N 	N 	0.80467 0.51667 0.87203 -0.10800
N 	N 	0.80721 0.80348 0.05395 -0.10800
C 	C 	0.83936 0.01386 0.96961 -0.00200
C 	C 	0.80636 0.03058 0.93722 -0.04200
C 	C 	0.78173 0.08821 0.94130 0.02000
C 	C 	0.79086 0.13037 0.97823 -0.07700
C 	C 	0.82085 0.11107 0.01060 -0.00000
C 	C 	0.84490 0.05312 0.00649 -0.02900
H 	H 	0.80215 0.00060 0.90880 0.05000
H 	H 	0.82600 0.14169 0.03906 0.02000
C 	C 	0.87705 0.03573 0.04030 0.09000
C 	C 	0.74513 0.10173 0.90752 0.07700
N 	N 	0.90286 0.02187 0.06739 -0.11000
N 	N 	0.71569 0.11219 0.88035 -0.10900
C 	C 	0.11781 0.04430 0.96066 -0.00900
C 	C 	0.14975 0.02883 0.92918 -0.04400
C 	C 	0.24362 0.07778 0.92987 0.02000
C 	C 	0.30638 0.14298 0.96245 -0.07700
C 	C 	0.27440 0.15914 0.99376 0.01100
C 	C 	0.18058 0.11027 0.99305 -0.01900
H 	H 	0.10140 0.97780 0.90433 0.05700
H 	H 	0.32270 0.20973 0.01873 0.04100
C 	C 	0.14927 0.12657 0.02606 0.08700
C 	C 	0.27495 0.05879 0.89755 0.06800
N 	N 	0.12420 0.13964 0.05248 -0.10800
N 	N 	0.30005 0.04360 0.87167 -0.11800
