data_crystal

_cell_length_a 20.73402
_cell_length_b 18.61472
_cell_length_c 47.47109
_cell_angle_alpha 89.74779
_cell_angle_beta  89.75278
_cell_angle_gamma 119.43079

_symmetry_space_group_name_	'P 1'
_symmetry_space_group_name_H-M	'P 1'

loop_
_symmetry_equiv_pos_as_xyz
  x,y,z

loop_
_atom_site_label
_atom_site_type_symbol
_atom_site_fract_x
_atom_site_fract_y
_atom_site_fract_z
_atom_site_charge
C 	C 	0.01523 0.45328 0.84818 -0.12400
H 	H 	0.02772 0.79307 0.92996 0.08500
C 	C 	0.02986 0.93780 0.85326 -0.06500
Br	Br	0.02170 0.72870 0.74652 -0.23600
C 	C 	0.01203 0.17106 0.34009 -0.10600
O 	O 	0.02856 0.88159 0.78170 -0.33200
C 	C 	0.03024 0.22633 0.78938 -0.08500
C 	C 	0.03127 0.15972 0.77331 0.30100
Br	Br	0.02653 0.55337 0.89596 -0.21300
Br	Br	0.03035 0.31192 0.05672 -0.16800
C 	C 	0.01478 0.92875 0.26818 0.26800
C 	C 	0.01037 0.77271 0.18550 0.15000
H 	H 	0.02794 0.63249 0.11752 0.08800
C 	C 	0.03937 0.51486 0.46047 -0.09300
O 	O 	0.03104 0.18608 0.19475 -0.35200
C 	C 	0.03035 0.71565 0.17572 -0.09600
C 	C 	0.03203 0.88996 0.29192 -0.07100
C 	C 	0.03960 0.92259 0.31911 0.13300
C 	C 	0.03493 0.17552 0.26103 0.29500
C 	C 	0.01021 0.91288 0.88140 0.09700
C 	C 	0.00644 0.34708 0.81470 -0.01100
O 	O 	0.00451 0.12257 0.71128 -0.37100
C 	C 	0.00427 0.91192 0.80215 0.26800
C 	C 	0.04002 0.91964 0.19170 0.31100
H 	H 	0.04136 0.07793 0.13155 0.08200
C 	C 	0.04863 0.36572 0.78980 0.10100
O 	O 	0.05055 0.01871 0.74849 -0.70800
Br	Br	0.05087 0.99351 0.91068 -0.19900
C 	C 	0.99338 0.15988 0.31166 0.18800
H 	H 	0.05637 0.98092 0.63629 0.05200
C 	C 	0.06003 0.30524 0.77715 -0.01000
H 	H 	0.99529 0.65062 0.18042 0.10800
Br	Br	0.98292 0.97334 0.33047 -0.21500
C 	C 	0.65130 0.31071 0.87277 0.30900
C 	C 	0.81043 0.58397 0.94949 0.32500
C 	C 	0.85351 0.45863 0.87968 0.34100
C 	C 	0.61232 0.45989 0.94923 0.32000
C 	C 	0.85376 0.40196 0.96739 0.33700
C 	C 	0.64235 0.22218 0.95985 0.31500
Ni	Ni	0.72498 0.47151 0.90327 1.11900
Ni	Ni	0.71584 0.40812 0.96829 1.12700
Ni	Ni	0.76005 0.32494 0.91836 1.12600
O 	O 	0.64465 0.37533 0.88039 -0.35600
O 	O 	0.71109 0.30454 0.87930 -0.35900
O 	O 	0.81695 0.43327 0.97978 -0.36300
O 	O 	0.81595 0.55809 0.92461 -0.37100
O 	O 	0.75848 0.53420 0.96741 -0.35900
O 	O 	0.67299 0.22467 0.93493 -0.35600
O 	O 	0.79773 0.46985 0.87317 -0.36500
O 	O 	0.85299 0.42361 0.90364 -0.37300
O 	O 	0.67210 0.28532 0.97787 -0.35100
O 	O 	0.65032 0.49670 0.92584 -0.35700
O 	O 	0.61654 0.39835 0.96113 -0.36900
O 	O 	0.81911 0.33322 0.95302 -0.36500
O 	O 	0.71720 0.39008 0.92890 -0.71900
H 	H 	0.66458 0.34885 0.92665 0.16700
C 	C 	0.75416 0.41141 0.59368 0.30000
C 	C 	0.46444 0.23326 0.54028 0.32200
C 	C 	0.60653 0.20068 0.60615 0.33200
C 	C 	0.60576 0.45250 0.52550 0.30900
C 	C 	0.58819 0.13521 0.51875 0.30500
C 	C 	0.77308 0.35701 0.50444 0.29700
Ni	Ni	0.59541 0.33725 0.57555 1.11800
Ni	Ni	0.60859 0.30114 0.50912 1.12500
Ni	Ni	0.69740 0.25987 0.55577 1.12600
O 	O 	0.69938 0.42708 0.58816 -0.36000
O 	O 	0.74718 0.33690 0.58934 -0.35300
O 	O 	0.56342 0.17853 0.50545 -0.35300
O 	O 	0.49711 0.23562 0.56405 -0.36700
O 	O 	0.50330 0.27823 0.51847 -0.35500
O 	O 	0.78097 0.33212 0.52982 -0.36400
O 	O 	0.60293 0.26868 0.60940 -0.35700
O 	O 	0.61494 0.17920 0.58091 -0.37200
O 	O 	0.70746 0.32342 0.49146 -0.35100
O 	O 	0.57448 0.41702 0.55009 -0.35500
O 	O 	0.63834 0.42224 0.50903 -0.36700
O 	O 	0.65752 0.17003 0.52678 -0.36000
O 	O 	0.64623 0.31717 0.54642 -0.72000
H 	H 	0.68883 0.37284 0.54363 0.15900
C 	C 	0.22023 0.10358 0.75451 0.31300
C 	C 	0.93013 0.82300 0.73124 0.33400
C 	C 	0.12907 0.01896 0.68571 0.35900
C 	C 	0.93845 0.05870 0.70663 0.37000
Ni	Ni	0.08375 0.94261 0.74394 1.11300
Ni	Ni	0.94881 0.97797 0.75716 1.11900
Ni	Ni	0.09340 0.11455 0.72525 1.12900
O 	O 	0.17804 0.02760 0.76420 -0.35100
O 	O 	0.19879 0.13407 0.73316 -0.34200
O 	O 	0.92023 0.98659 0.71769 -0.40800
O 	O 	0.99424 0.86903 0.71944 -0.36100
O 	O 	0.90623 0.85355 0.75106 -0.35400
O 	O 	0.09288 0.17759 0.75917 -0.36100
O 	O 	0.14623 0.98471 0.70660 -0.37500
O 	O 	0.08546 0.05009 0.69013 -0.36900
O 	O 	0.96632 0.09294 0.76749 -0.34100
O 	O 	0.97203 0.95676 0.79650 -0.34800
H 	H 	0.07284 0.04282 0.76677 0.17200
C 	C 	0.20554 0.42493 0.43508 0.31500
C 	C 	0.33689 0.75534 0.49068 0.33800
C 	C 	0.11629 0.54837 0.45285 0.33600
C 	C 	0.42203 0.62706 0.47474 0.30100
C 	C 	0.26571 0.75189 0.40344 0.33200
C 	C 	0.38265 0.66519 0.37981 0.32300
Ni	Ni	0.25952 0.57463 0.47589 1.11900
Ni	Ni	0.37583 0.72575 0.43564 1.12300
Ni	Ni	0.23059 0.57967 0.40882 1.12900
O 	O 	0.20009 0.45234 0.46055 -0.34700
O 	O 	0.23685 0.47574 0.41341 -0.35600
O 	O 	0.33648 0.77372 0.40608 -0.38000
O 	O 	0.31303 0.68099 0.50104 -0.35100
O 	O 	0.32768 0.76366 0.46416 -0.38000
O 	O 	0.30899 0.62574 0.37737 -0.35600
O 	O 	0.16704 0.58969 0.47175 -0.35600
O 	O 	0.13295 0.51875 0.43062 -0.37000
O 	O 	0.41569 0.68647 0.40450 -0.37500
O 	O 	0.35480 0.56783 0.48202 -0.35000
O 	O 	0.43486 0.70181 0.46606 -0.35700
O 	O 	0.21360 0.67608 0.40865 -0.37200
O 	O 	0.29719 0.61661 0.43955 -0.71700
H 	H 	0.32526 0.58783 0.43558 0.17300
C 	C 	0.49503 0.67147 0.02626 0.32100
C 	C 	0.23343 0.61456 0.09487 0.32600
C 	C 	0.30541 0.50483 0.03432 0.31500
C 	C 	0.41385 0.81415 0.09132 0.30500
C 	C 	0.20610 0.62138 0.00417 0.32100
C 	C 	0.39554 0.84295 0.00508 0.28800
Ni	Ni	0.38360 0.64686 0.07337 1.12000
Ni	Ni	0.29129 0.73571 0.04935 1.12400
Ni	Ni	0.36264 0.66622 0.00472 1.12300
O 	O 	0.47934 0.65796 0.05357 -0.34500
O 	O 	0.47163 0.71312 0.01113 -0.38000
O 	O 	0.22556 0.69352 0.01536 -0.36500
O 	O 	0.29866 0.62477 0.10207 -0.35400
O 	O 	0.22191 0.62878 0.06892 -0.37600
O 	O 	0.37724 0.77621 0.98947 -0.35400
O 	O 	0.32410 0.52637 0.06054 -0.36100
O 	O 	0.34810 0.55143 0.01347 -0.36100
O 	O 	0.35673 0.83995 0.02780 -0.36500
O 	O 	0.43986 0.76192 0.09149 -0.35700
O 	O 	0.34285 0.78867 0.08639 -0.35300
O 	O 	0.25615 0.60546 0.99379 -0.37500
O 	O 	0.35759 0.69441 0.04287 -0.71000
H 	H 	0.40393 0.74755 0.04270 0.14400
C 	C 	0.80516 0.94932 0.24700 0.28600
C 	C 	0.07299 0.16814 0.17885 0.32700
C 	C 	0.85122 0.96685 0.17239 0.31500
Ni	Ni	0.93398 0.09406 0.21302 1.12100
Ni	Ni	0.07299 0.06557 0.22710 1.12800
Ni	Ni	0.91188 0.90970 0.21909 1.12700
O 	O 	0.82591 0.01330 0.22912 -0.31300
O 	O 	0.84051 0.90624 0.24856 -0.36000
O 	O 	0.08493 0.97236 0.21047 -0.37700
O 	O 	0.09344 0.11542 0.18766 -0.36200
O 	O 	0.96912 0.88039 0.24804 -0.33400
O 	O 	0.91270 0.03529 0.17495 -0.35800
O 	O 	0.83635 0.90668 0.19041 -0.34100
O 	O 	0.05812 0.00945 0.26448 -0.34000
O 	O 	0.97239 0.16282 0.24935 -0.32300
O 	O 	0.08716 0.17188 0.24561 -0.35300
O 	O 	0.97540 0.91321 0.18691 -0.36200
O 	O 	0.96853 0.02456 0.22663 -0.70500
H 	H 	0.95791 0.02429 0.24689 0.17600
C 	C 	0.25094 0.41828 0.02936 -0.08900
C 	C 	0.27049 0.35854 0.03715 0.15300
C 	C 	0.22502 0.29574 0.05611 -0.07900
C 	C 	0.15773 0.28926 0.06510 0.03100
C 	C 	0.12951 0.33322 0.05018 0.08600
C 	C 	0.17605 0.39665 0.03159 -0.01100
H 	H 	0.24500 0.25763 0.06580 0.09600
C 	C 	0.12971 0.25744 0.09381 0.02600
H 	H 	0.15743 0.43694 0.02271 0.07000
C 	C 	0.14738 0.31345 0.11606 -0.07700
C 	C 	0.12815 0.28512 0.14387 0.14800
C 	C 	0.09036 0.19973 0.14963 -0.09100
C 	C 	0.07116 0.14371 0.12729 -0.00600
C 	C 	0.09054 0.17216 0.09947 0.08700
H 	H 	0.17773 0.37922 0.11179 0.09000
Br	Br	0.36605 0.37330 0.02738 -0.19100
Br	Br	0.15795 0.36420 0.17372 -0.18900
Br	Br	0.06236 0.09373 0.06952 -0.16600
C 	C 	0.78992 0.97061 0.15818 -0.11600
C 	C 	0.73704 0.90397 0.14243 0.15900
C 	C 	0.67759 0.90866 0.13048 -0.07200
C 	C 	0.67070 0.97956 0.13400 0.00100
C 	C 	0.72518 0.04733 0.14864 0.11200
C 	C 	0.78449 0.04286 0.16055 0.02900
H 	H 	0.63585 0.85659 0.11890 0.08900
C 	C 	0.60249 0.97836 0.12492 0.04100
H 	H 	0.82530 0.09476 0.17246 0.04400
C 	C 	0.54099 0.94455 0.14310 -0.08800
C 	C 	0.46971 0.90462 0.13185 0.15500
C 	C 	0.46121 0.89641 0.10249 -0.09200
C 	C 	0.52053 0.95134 0.08540 -0.00600
C 	C 	0.59226 0.99001 0.09634 0.06200
H 	H 	0.54856 0.94134 0.16555 0.10200
H 	H 	0.51284 0.95268 0.06287 0.05800
Br	Br	0.71846 0.14586 0.15322 -0.15700
Br	Br	0.74608 0.80744 0.13621 -0.18300
Br	Br	0.38635 0.84634 0.15647 -0.17400
Br	Br	0.67543 0.05021 0.07163 -0.14300
C 	C 	0.18104 0.60943 0.11705 -0.09200
C 	C 	0.11030 0.59635 0.10956 0.14700
C 	C 	0.07838 0.63495 0.12489 -0.08000
C 	C 	0.11384 0.68048 0.14889 0.02100
C 	C 	0.17393 0.67506 0.16013 0.09500
C 	C 	0.20807 0.64021 0.14402 -0.00100
C 	C 	0.09476 0.74183 0.15960 0.03300
H 	H 	0.25841 0.64275 0.15151 0.08900
C 	C 	0.05690 0.85779 0.17993 -0.09400
C 	C 	0.12106 0.88380 0.16359 -0.00400
C 	C 	0.13915 0.82614 0.15278 0.08600
H 	H 	0.15620 0.94877 0.15882 0.06900
Br	Br	0.21035 0.71617 0.19704 -0.15900
Br	Br	0.05624 0.52489 0.07907 -0.18900
Br	Br	0.91880 0.73243 0.20595 -0.22000
Br	Br	0.22222 0.86304 0.12752 -0.19000
C 	C 	0.42814 0.70109 0.35442 -0.08800
C 	C 	0.46230 0.66137 0.34086 0.15100
C 	C 	0.51708 0.70385 0.32037 -0.07500
C 	C 	0.53954 0.78661 0.31393 0.02600
C 	C 	0.50182 0.82430 0.32615 0.08700
C 	C 	0.44612 0.78125 0.34617 -0.00800
H 	H 	0.54498 0.67403 0.31057 0.09400
C 	C 	0.60804 0.83598 0.29735 0.02500
H 	H 	0.41964 0.81182 0.35646 0.06800
C 	C 	0.60368 0.85351 0.26890 -0.07400
C 	C 	0.66819 0.89651 0.25255 0.14800
C 	C 	0.73815 0.92156 0.26471 -0.07100
C 	C 	0.74188 0.90399 0.29328 -0.01200
C 	C 	0.67771 0.86372 0.30973 0.09100
H 	H 	0.55004 0.83259 0.25934 0.09600
H 	H 	0.79460 0.91829 0.30242 0.08900
Br	Br	0.52873 0.93626 0.31709 -0.18200
Br	Br	0.43728 0.55069 0.35095 -0.17100
Br	Br	0.65848 0.91445 0.21340 -0.21100
Br	Br	0.68637 0.84618 0.34912 -0.18400
C 	C 	0.15537 0.33874 0.42829 -0.08600
C 	C 	0.18560 0.29268 0.41646 0.15100
C 	C 	0.15532 0.24870 0.39164 -0.07100
C 	C 	0.09620 0.25262 0.37877 0.02200
C 	C 	0.05673 0.28323 0.39437 0.07600
C 	C 	0.08347 0.31889 0.42061 -0.01000
H 	H 	0.18199 0.21872 0.38104 0.09600
C 	C 	0.08155 0.23370 0.34845 0.04100
H 	H 	0.05535 0.34597 0.43200 0.07500
C 	C 	0.04906 0.20030 0.29091 -0.10200
C 	C 	0.11987 0.26119 0.29920 0.00300
C 	C 	0.13519 0.28098 0.32774 0.07600
H 	H 	0.97057 0.13459 0.35584 0.12400
H 	H 	0.16227 0.29506 0.28346 0.08000
Br	Br	0.97479 0.29018 0.37852 -0.16800
Br	Br	0.27534 0.30168 0.43095 -0.18200
Br	Br	0.89063 0.09819 0.30225 -0.18200
Br	Br	0.22687 0.37652 0.33768 -0.17400
C 	C 	0.08493 0.91300 0.33873 -0.07800
C 	C 	0.11633 0.86311 0.33254 0.02100
C 	C 	0.09747 0.81830 0.30712 0.09400
C 	C 	0.05787 0.83436 0.28649 -0.01600
H 	H 	0.09453 0.94299 0.35901 0.07900
C 	C 	0.16414 0.85346 0.35368 0.02600
H 	H 	0.04932 0.80569 0.26601 0.08500
C 	C 	0.13569 0.82295 0.38063 -0.08500
C 	C 	0.17692 0.80481 0.39969 0.15200
C 	C 	0.24381 0.80925 0.39091 -0.09500
C 	C 	0.27670 0.85003 0.36551 -0.00600
C 	C 	0.23793 0.87448 0.34722 0.08800
H 	H 	0.08111 0.81212 0.38661 0.08600
H 	H 	0.33055 0.85919 0.35933 0.07300
Br	Br	0.12127 0.73207 0.30085 -0.17500
Br	Br	0.14028 0.77174 0.43745 -0.19800
Br	Br	0.28716 0.93845 0.31423 -0.17800
C 	C 	0.54299 0.04683 0.51910 -0.00300
C 	C 	0.49894 0.97410 0.51756 0.00600
C 	C 	0.44260 0.89205 0.51269 0.08500
C 	C 	0.39328 0.82617 0.50499 -0.09700
C 	C 	0.97500 0.48300 0.46756 0.08800
C 	C 	0.90075 0.44190 0.47751 0.04400
C 	C 	0.83992 0.40419 0.48821 -0.05200
C 	C 	0.58533 0.50951 0.51325 -0.06600
C 	C 	0.56125 0.55123 0.50310 0.05700
C 	C 	0.52385 0.59123 0.49176 0.05400
C 	C 	0.48280 0.61504 0.48307 -0.06000
C 	C 	0.87923 0.07288 0.69547 -0.10200
C 	C 	0.88827 0.11499 0.66975 0.15900
C 	C 	0.83220 0.13020 0.66020 -0.08000
C 	C 	0.76644 0.10256 0.67582 0.03100
C 	C 	0.75685 0.05926 0.70125 0.08500
C 	C 	0.81332 0.04520 0.71106 0.00600
H 	H 	0.83921 0.16232 0.64035 0.09700
C 	C 	0.70666 0.11587 0.66459 0.03000
H 	H 	0.80612 0.01312 0.73093 0.06600
C 	C 	0.65721 0.06053 0.64492 -0.08000
C 	C 	0.61335 0.08254 0.62867 0.15000
C 	C 	0.62290 0.16284 0.63067 -0.09500
C 	C 	0.66382 0.21282 0.65329 -0.00100
C 	C 	0.70482 0.18886 0.67053 0.09200
H 	H 	0.65445 0.00150 0.64166 0.09600
H 	H 	0.66777 0.27250 0.65636 0.08100
Br	Br	0.66700 0.01872 0.72285 -0.15500
Br	Br	0.97444 0.14751 0.64651 -0.17300
Br	Br	0.53955 0.00177 0.60448 -0.18100
Br	Br	0.75847 0.25672 0.70180 -0.15600
C 	C 	0.38341 0.19525 0.54054 -0.08900
C 	C 	0.34077 0.10884 0.53931 0.15000
C 	C 	0.27994 0.06694 0.55752 -0.07700
C 	C 	0.25962 0.11171 0.57572 0.02800
C 	C 	0.29082 0.19736 0.57142 0.08600
C 	C 	0.35226 0.23884 0.55346 -0.01000
H 	H 	0.25254 0.00029 0.55913 0.09800
C 	C 	0.22441 0.07467 0.60309 0.03100
H 	H 	0.38139 0.30567 0.55261 0.07100
C 	C 	0.26950 0.08519 0.62635 -0.08400
C 	C 	0.23887 0.06258 0.65340 0.16000
C 	C 	0.16147 0.02623 0.65730 -0.10700
C 	C 	0.11590 0.00974 0.63359 0.03600
C 	C 	0.14706 0.03442 0.60660 0.07900
H 	H 	0.32907 0.11478 0.62357 0.09200
Br	Br	0.25561 0.25936 0.59230 -0.18400
Br	Br	0.36852 0.04750 0.51464 -0.18300
Br	Br	0.30475 0.08837 0.68464 -0.19000
Br	Br	0.08336 0.01548 0.57501 -0.16100
C 	C 	0.89206 0.73399 0.72582 -0.09100
C 	C 	0.93407 0.69310 0.72441 0.16800
C 	C 	0.91510 0.62967 0.70509 -0.08400
C 	C 	0.85227 0.60385 0.68837 0.03000
C 	C 	0.80121 0.63081 0.69494 0.09100
C 	C 	0.82193 0.69710 0.71336 -0.00000
H 	H 	0.95191 0.60465 0.70169 0.09700
C 	C 	0.84702 0.56109 0.66165 0.02600
H 	H 	0.78660 0.72436 0.71592 0.07400
C 	C 	0.84184 0.48302 0.66199 -0.08100
C 	C 	0.83061 0.43983 0.63679 0.15100
C 	C 	0.81350 0.46943 0.61223 -0.08500
C 	C 	0.83325 0.55308 0.61088 -0.00900
C 	C 	0.85106 0.59958 0.63553 0.09100
H 	H 	0.84852 0.45716 0.68152 0.09900
H 	H 	0.82846 0.57973 0.59120 0.07400
Br	Br	0.70519 0.58067 0.67792 -0.18400
Br	Br	0.85559 0.35357 0.63477 -0.19900
Br	Br	0.88317 0.71540 0.63300 -0.18900
C 	C 	0.13086 0.56937 0.99613 -0.05700
C 	C 	0.06820 0.52448 0.98887 0.05400
C 	C 	0.99452 0.47417 0.98038 0.09700
C 	C 	0.93051 0.43653 0.97375 -0.06500
C 	C 	0.44788 0.92296 0.99410 -0.04800
C 	C 	0.49157 0.99199 0.98630 0.01400
C 	C 	0.54295 0.07353 0.97782 0.10400
C 	C 	0.58761 0.14244 0.97023 -0.06600
C 	C 	0.52304 0.62538 0.01178 -0.07800
C 	C 	0.54295 0.58594 0.99791 0.06600
C 	C 	0.56460 0.54027 0.98065 0.05900
C 	C 	0.58443 0.50245 0.96587 -0.07300
C 	C 	0.90469 0.46308 0.85745 -0.11400
C 	C 	0.97799 0.48450 0.86423 0.18300
C 	C 	0.98017 0.40253 0.82509 0.06900
C 	C 	0.91238 0.39357 0.81558 0.06900
C 	C 	0.87552 0.42519 0.83157 0.01000
H 	H 	0.06932 0.46412 0.85467 0.10100
H 	H 	0.82083 0.41285 0.82533 0.07200
C 	C 	0.98218 0.27076 0.82819 -0.05500
C 	C 	0.99431 0.21051 0.81574 0.15000
H 	H 	0.95181 0.25738 0.84792 0.08400
H 	H 	0.08946 0.31849 0.75720 0.08000
Br	Br	0.86593 0.33126 0.78237 -0.16000
Br	Br	0.96379 0.10838 0.83546 -0.17700
Br	Br	0.08851 0.47234 0.77222 -0.18000
C 	C 	0.60293 0.25903 0.85035 -0.08700
C 	C 	0.52945 0.19971 0.85684 0.14800
C 	C 	0.47501 0.17522 0.83617 -0.07700
C 	C 	0.49359 0.20930 0.80898 0.02700
C 	C 	0.56834 0.26131 0.80167 0.08900
C 	C 	0.62287 0.28485 0.82230 -0.00400
H 	H 	0.41777 0.13242 0.84155 0.09300
C 	C 	0.43412 0.19439 0.78908 0.02700
H 	H 	0.67988 0.32879 0.81704 0.07400
C 	C 	0.39965 0.24304 0.79053 -0.07700
C 	C 	0.33213 0.21801 0.77696 0.14500
C 	C 	0.29911 0.14403 0.76167 -0.07800
C 	C 	0.33730 0.09981 0.75813 -0.00300
C 	C 	0.40444 0.12464 0.77173 0.09000
H 	H 	0.42330 0.29789 0.80344 0.09000
H 	H 	0.31219 0.04281 0.74635 0.08900
Br	Br	0.59651 0.30383 0.76402 -0.16500
Br	Br	0.50179 0.15614 0.89438 -0.19800
Br	Br	0.28330 0.28219 0.78133 -0.20000
Br	Br	0.45256 0.05954 0.76778 -0.15400
C 	C 	0.99819 0.88083 0.83126 -0.03800
C 	C 	0.94924 0.79717 0.83781 0.13600
C 	C 	0.93135 0.77209 0.86594 -0.07000
C 	C 	0.95935 0.82995 0.88774 0.02800
H 	H 	0.89308 0.70788 0.87081 0.08200
C 	C 	0.93263 0.80287 0.91693 0.02700
H 	H 	0.06718 0.00225 0.84841 0.10800
C 	C 	0.96989 0.77341 0.93397 -0.06200
C 	C 	0.92974 0.71058 0.95373 0.14700
C 	C 	0.85204 0.67308 0.95429 -0.09000
C 	C 	0.82039 0.71956 0.94417 -0.01400
C 	C 	0.85992 0.78313 0.92453 0.08500
H 	H 	0.76183 0.69739 0.94747 0.07000
Br	Br	0.90068 0.71737 0.80871 -0.17800
Br	Br	0.97886 0.66377 0.97473 -0.18100
Br	Br	0.81151 0.83502 0.90590 -0.18800
