data_crystal

_cell_length_a 16.97805
_cell_length_b 15.68091
_cell_length_c 43.08262
_cell_angle_alpha 89.54702
_cell_angle_beta  82.54733
_cell_angle_gamma 105.85433

_symmetry_space_group_name_	'P 1'
_symmetry_space_group_name_H-M	'P 1'

loop_
_symmetry_equiv_pos_as_xyz
  x,y,z

loop_
_atom_site_label
_atom_site_type_symbol
_atom_site_fract_x
_atom_site_fract_y
_atom_site_fract_z
_atom_site_charge
Zn	Zn	0.71694 0.30360 0.96333 1.20500
Zn	Zn	0.59585 0.22991 0.91602 1.22300
P 	P 	0.59373 0.39188 0.94780 0.31700
C 	C 	0.52423 0.17650 0.86181 0.28000
C 	C 	0.60723 0.12909 0.97241 0.36500
O 	O 	0.60935 0.32582 0.97273 -0.44400
O 	O 	0.59358 0.35160 0.91401 -0.43400
O 	O 	0.70292 0.21613 0.90049 -0.42700
O 	O 	0.66170 0.48556 0.94736 -0.40500
O 	O 	0.52084 0.15369 0.89147 -0.41200
O 	O 	0.58407 0.24417 0.84885 -0.26000
O 	O 	0.55810 0.16297 0.95777 -0.44800
O 	O 	0.68460 0.17514 0.97333 -0.45000
Zn	Zn	0.68569 0.21808 0.54261 1.20500
Zn	Zn	0.53960 0.11185 0.58933 1.21400
Zn	Zn	0.68112 0.37676 0.58176 1.22000
P 	P 	0.70318 0.20934 0.60654 0.31300
P 	P 	0.53566 0.27319 0.55584 0.31500
C 	C 	0.62127 0.03609 0.53374 0.38700
O 	O 	0.71979 0.15930 0.57596 -0.44200
O 	O 	0.61240 0.28247 0.52975 -0.44900
O 	O 	0.60598 0.19319 0.61586 -0.44500
O 	O 	0.56442 0.31640 0.58732 -0.44600
O 	O 	0.74783 0.31208 0.59921 -0.42100
O 	O 	0.48714 0.17079 0.56173 -0.40800
O 	O 	0.35217 0.02775 0.58071 -0.22900
O 	O 	0.67972 0.39471 0.64768 -0.25500
O 	O 	0.59405 0.02856 0.56430 -0.44300
O 	O 	0.64924 0.11444 0.51899 -0.46200
C 	C 	0.37076 0.02773 0.60938 0.27500
O 	O 	0.44592 0.02708 0.61357 -0.40900
Zn	Zn	0.08525 0.04421 0.78692 1.21600
P 	P 	0.11102 0.05491 0.71793 0.30800
O 	O 	0.06967 0.95112 0.72359 -0.44200
O 	O 	0.15124 0.09814 0.74773 -0.41300
O 	O 	0.22896 0.96629 0.78280 -0.25500
C 	C 	0.23213 0.02182 0.80555 0.29200
O 	O 	0.16921 0.05408 0.81390 -0.41800
Zn	Zn	0.43782 0.51153 0.37073 1.20300
Zn	Zn	0.27377 0.42718 0.41599 1.22000
Zn	Zn	0.46493 0.65773 0.42021 1.22100
P 	P 	0.43539 0.46632 0.43591 0.31500
P 	P 	0.31893 0.61190 0.38958 0.30700
C 	C 	0.44975 0.72703 0.47915 0.33000
C 	C 	0.58284 0.66344 0.36279 0.30000
C 	C 	0.32018 0.35164 0.35664 0.30000
O 	O 	0.49689 0.48832 0.40413 -0.44600
O 	O 	0.34350 0.55127 0.36300 -0.44800
O 	O 	0.35742 0.38476 0.43198 -0.42900
O 	O 	0.39685 0.69334 0.39380 -0.43000
O 	O 	0.40575 0.55068 0.44605 -0.42900
O 	O 	0.28345 0.55430 0.42157 -0.40900
O 	O 	0.50156 0.73467 0.45304 -0.42700
O 	O 	0.15881 0.47570 0.46775 -0.23900
O 	O 	0.37118 0.68586 0.47922 -0.24700
O 	O 	0.57403 0.66258 0.39381 -0.42500
O 	O 	0.26698 0.38831 0.37227 -0.43400
O 	O 	0.52883 0.60607 0.34827 -0.44000
O 	O 	0.39981 0.39392 0.35235 -0.42900
C 	C 	0.11888 0.41006 0.45204 0.29300
O 	O 	0.16007 0.37011 0.43198 -0.42300
Zn	Zn	0.36593 0.50509 0.11858 1.20100
Zn	Zn	0.21333 0.52852 0.08841 1.21800
Zn	Zn	0.45381 0.70151 0.08755 1.22200
P 	P 	0.30010 0.65818 0.13136 0.30700
P 	P 	0.37304 0.55396 0.05150 0.31500
C 	C 	0.60717 0.82723 0.06184 0.33100
C 	C 	0.53152 0.60170 0.12482 0.29600
C 	C 	0.21343 0.36527 0.12447 0.28800
O 	O 	0.29548 0.56269 0.14538 -0.44500
O 	O 	0.41712 0.50945 0.07479 -0.43500
O 	O 	0.25935 0.65010 0.09971 -0.43000
O 	O 	0.37777 0.65445 0.05890 -0.44900
O 	O 	0.39373 0.71874 0.12677 -0.42200
O 	O 	0.27959 0.49553 0.05288 -0.41300
O 	O 	0.53082 0.81656 0.07536 -0.43200
O 	O 	0.16291 0.63396 0.04260 -0.25900
O 	O 	0.64854 0.77197 0.06896 -0.24700
O 	O 	0.53015 0.62975 0.09609 -0.42500
O 	O 	0.18146 0.43325 0.12337 -0.43900
O 	O 	0.46676 0.54180 0.13963 -0.42900
O 	O 	0.29454 0.38047 0.12258 -0.42900
C 	C 	0.10179 0.56248 0.05116 0.29800
O 	O 	0.10841 0.50792 0.07331 -0.42600
Zn	Zn	0.02810 0.99952 0.24585 1.19400
Zn	Zn	0.04381 0.87508 0.29596 1.21300
P 	P 	0.10277 0.85107 0.23121 0.30500
C 	C 	0.00759 0.03659 0.18493 0.32200
C 	C 	0.11779 0.07354 0.29318 0.30200
O 	O 	0.10736 0.94855 0.21940 -0.45100
O 	O 	0.01221 0.78796 0.22980 -0.43600
O 	O 	0.13063 0.85545 0.26550 -0.41800
O 	O 	0.99588 0.68822 0.32676 -0.25200
O 	O 	0.00963 0.95460 0.17868 -0.42500
O 	O 	0.06650 0.00412 0.30959 -0.42500
O 	O 	0.98466 0.05440 0.21379 -0.44100
O 	O 	0.11336 0.08351 0.26348 -0.44100
C 	C 	0.05233 0.74483 0.34011 0.28900
O 	O 	0.06452 0.83017 0.33486 -0.42300
C 	C 	0.05310 0.11160 0.16244 -0.07800
C 	C 	0.02081 0.18438 0.15862 0.03300
C 	C 	0.07293 0.26547 0.14514 -0.02700
H 	H 	0.04803 0.32178 0.14340 0.05100
C 	C 	0.15700 0.27461 0.13449 -0.06800
C 	C 	0.18609 0.19776 0.13434 0.01700
C 	C 	0.13464 0.11775 0.14920 -0.01500
H 	H 	0.15871 0.06075 0.15082 0.05100
C 	C 	0.26674 0.19765 0.11667 0.02600
C 	C 	0.27937 0.20714 0.08381 -0.04300
C 	C 	0.35427 0.20263 0.06703 -0.01400
C 	C 	0.41640 0.18774 0.08292 -0.03500
C 	C 	0.40388 0.17764 0.11562 -0.01600
C 	C 	0.32930 0.18267 0.13252 -0.04600
H 	H 	0.23115 0.21771 0.07133 0.04700
H 	H 	0.36399 0.21018 0.04172 0.04000
H 	H 	0.31992 0.17451 0.15785 0.04600
H 	H 	0.45180 0.16541 0.12785 0.03500
H 	H 	0.47402 0.18341 0.06988 0.04400
C 	C 	0.60376 0.64192 0.14072 -0.07500
C 	C 	0.60111 0.70944 0.16211 0.01800
C 	C 	0.75429 0.68309 0.13748 0.02200
C 	C 	0.68040 0.62785 0.12921 -0.01100
H 	H 	0.68285 0.57662 0.11264 0.04700
C 	C 	0.97298 0.72974 0.09635 -0.02400
C 	C 	0.89179 0.73470 0.10404 -0.04000
C 	C 	0.52172 0.72336 0.17644 0.01200
C 	C 	0.46631 0.65817 0.19725 -0.04300
C 	C 	0.39834 0.67707 0.21482 -0.01500
C 	C 	0.38750 0.76204 0.21279 -0.03500
C 	C 	0.44199 0.82690 0.19205 -0.01200
C 	C 	0.50818 0.80742 0.17351 -0.04500
H 	H 	0.33714 0.77788 0.22738 0.04300
H 	H 	0.43367 0.89274 0.19068 0.03100
H 	H 	0.55048 0.85838 0.15760 0.04500
H 	H 	0.87433 0.79117 0.09550 0.05000
H 	H 	0.01781 0.78173 0.08167 0.04100
C 	C 	0.16890 0.80157 0.20569 -0.03700
C 	C 	0.16649 0.71137 0.21069 0.01100
C 	C 	0.20350 0.66804 0.18727 -0.03700
H 	H 	0.20111 0.59898 0.19125 0.05400
C 	C 	0.24402 0.71305 0.15907 -0.03400
C 	C 	0.24711 0.80327 0.15406 0.01300
C 	C 	0.21098 0.84722 0.17766 -0.03900
H 	H 	0.21242 0.91595 0.17355 0.05100
C 	C 	0.28336 0.85087 0.12358 0.02100
C 	C 	0.23574 0.84287 0.09890 -0.04000
C 	C 	0.26947 0.88940 0.07027 -0.01600
C 	C 	0.35036 0.94484 0.06631 -0.03800
C 	C 	0.39760 0.95395 0.09097 -0.02000
C 	C 	0.36406 0.90771 0.11966 -0.04800
C 	C 	0.12293 0.65994 0.23980 0.02800
C 	C 	0.04216 0.60495 0.24021 -0.04500
C 	C 	0.00627 0.54274 0.26503 -0.00900
C 	C 	0.05145 0.53343 0.28910 -0.03000
C 	C 	0.13206 0.58735 0.28871 -0.01400
C 	C 	0.16731 0.65168 0.26448 -0.04700
H 	H 	0.94417 0.50017 0.26520 0.02800
H 	H 	0.02417 0.48404 0.30797 0.04300
H 	H 	0.16747 0.57875 0.30705 0.03900
H 	H 	0.22988 0.69289 0.26436 0.04500
H 	H 	0.00844 0.60847 0.22077 0.04900
H 	H 	0.17284 0.80067 0.10191 0.04900
H 	H 	0.23283 0.88268 0.05120 0.03900
H 	H 	0.40069 0.91588 0.13872 0.04700
H 	H 	0.46008 0.99717 0.08792 0.03500
H 	H 	0.37634 0.98099 0.04416 0.03600
C 	C 	0.66116 0.71549 0.34410 -0.07700
C 	C 	0.69733 0.80668 0.34874 0.02800
C 	C 	0.69590 0.67806 0.24455 -0.05100
C 	C 	0.74607 0.56673 0.21609 -0.03800
C 	C 	0.81271 0.58239 0.23316 -0.01300
C 	C 	0.66855 0.84987 0.37667 0.01700
C 	C 	0.59017 0.86496 0.37998 -0.06000
C 	C 	0.56482 0.90995 0.40556 -0.01900
C 	C 	0.61756 0.94026 0.42790 -0.03500
C 	C 	0.69546 0.92478 0.42487 -0.01800
C 	C 	0.72098 0.87955 0.39935 -0.04500
H 	H 	0.50413 0.92096 0.40814 0.03500
H 	H 	0.59787 0.97526 0.44765 0.04300
H 	H 	0.73613 0.94797 0.44225 0.03100
H 	H 	0.78152 0.86807 0.39709 0.04500
H 	H 	0.54864 0.84057 0.36307 0.04600
H 	H 	0.63441 0.59960 0.20943 0.03700
H 	H 	0.85728 0.54461 0.22886 0.02900
H 	H 	0.73819 0.51565 0.19914 0.03800
C 	C 	0.17435 0.14480 0.30890 -0.07000
C 	C 	0.20916 0.23129 0.29448 0.02200
C 	C 	0.26963 0.29340 0.30801 -0.01300
H 	H 	0.29542 0.35943 0.29702 0.04200
C 	C 	0.28799 0.27597 0.33765 -0.07400
C 	C 	0.25403 0.19047 0.35213 0.02100
C 	C 	0.19880 0.12487 0.33743 -0.02000
H 	H 	0.17415 0.05885 0.34844 0.05200
C 	C 	0.27269 0.17087 0.38351 0.01200
C 	C 	0.21629 0.17275 0.41020 -0.05400
C 	C 	0.23727 0.16272 0.44008 -0.01600
C 	C 	0.31431 0.15039 0.44343 -0.03100
C 	C 	0.37037 0.14767 0.41689 -0.01400
C 	C 	0.34974 0.15794 0.38696 -0.04400
C 	C 	0.17669 0.26151 0.26747 0.02800
C 	C 	0.22475 0.27587 0.23783 -0.04500
C 	C 	0.10337 0.28757 0.27220 -0.04700
H 	H 	0.02328 0.35005 0.25145 0.03300
H 	H 	0.06637 0.27780 0.29508 0.05000
H 	H 	0.28178 0.25669 0.23400 0.04800
H 	H 	0.15711 0.18389 0.40777 0.05300
H 	H 	0.19413 0.16529 0.46065 0.04000
H 	H 	0.39396 0.15720 0.36650 0.04900
H 	H 	0.43002 0.13825 0.41952 0.04100
H 	H 	0.33067 0.14322 0.46658 0.05000
C 	C 	0.24083 0.65474 0.37584 -0.02300
C 	C 	0.26035 0.71482 0.34944 0.00300
C 	C 	0.19855 0.74718 0.33935 -0.01300
H 	H 	0.21385 0.79430 0.31942 0.04000
C 	C 	0.11618 0.71431 0.35315 -0.07600
C 	C 	0.09581 0.65122 0.37850 0.02700
C 	C 	0.15852 0.62315 0.39007 -0.04100
H 	H 	0.14283 0.57544 0.40977 0.05600
C 	C 	0.00924 0.61376 0.39299 0.03200
C 	C 	0.97082 0.66362 0.41367 -0.06100
C 	C 	0.96591 0.52703 0.38687 -0.05200
C 	C 	0.34352 0.73970 0.33080 0.03200
C 	C 	0.36658 0.68105 0.30928 -0.05100
C 	C 	0.44406 0.70592 0.29087 -0.01400
C 	C 	0.49650 0.79125 0.29233 -0.03800
C 	C 	0.47185 0.85159 0.31241 -0.01900
C 	C 	0.39616 0.82555 0.33202 -0.05000
H 	H 	0.46313 0.65932 0.27527 0.03300
H 	H 	0.55610 0.81074 0.27782 0.04100
H 	H 	0.51220 0.91795 0.31329 0.03200
H 	H 	0.37815 0.87216 0.34795 0.04700
H 	H 	0.32474 0.61624 0.30696 0.05300
H 	H 	0.00403 0.73037 0.41871 0.05500
H 	H 	0.99535 0.48777 0.37117 0.04700
C 	C 	0.47695 0.75552 0.50596 -0.16900
C 	C 	0.56045 0.81542 0.50611 0.00300
C 	C 	0.57327 0.87683 0.52756 0.02400
C 	C 	0.63029 0.96509 0.51855 -0.21000
H 	H 	0.53015 0.86805 0.54913 0.03900
H 	H 	0.43377 0.74245 0.52757 0.09000
H 	H 	0.66949 0.97475 0.49603 0.09200
H 	H 	0.60695 0.82023 0.48577 0.04600
C 	C 	0.02837 0.38005 0.45717 -0.11800
C 	C 	0.98356 0.43508 0.46750 -0.01600
H 	H 	0.99762 0.31204 0.45228 0.07000
C 	C 	0.49104 0.43931 0.46543 -0.09200
C 	C 	0.45411 0.41587 0.49485 0.00000
C 	C 	0.50246 0.39656 0.51881 -0.00700
C 	C 	0.46958 0.32934 0.54008 -0.09000
H 	H 	0.56867 0.42825 0.51600 0.04500
H 	H 	0.55645 0.44480 0.45932 0.06900
H 	H 	0.40314 0.29958 0.54402 0.07000
H 	H 	0.38818 0.40772 0.50086 0.04700
C 	C 	0.74776 0.16393 0.63663 -0.02200
C 	C 	0.75197 0.03360 0.66700 0.04600
C 	C 	0.71487 0.07373 0.64594 -0.04800
H 	H 	0.66148 0.03421 0.63624 0.04500
C 	C 	0.72045 0.93739 0.67467 -0.00900
C 	C 	0.74106 0.87698 0.65343 -0.03500
C 	C 	0.72220 0.78708 0.66248 -0.02200
C 	C 	0.68273 0.75729 0.69269 -0.03100
C 	C 	0.66018 0.81682 0.71363 -0.02500
C 	C 	0.67841 0.90661 0.70462 -0.03900
H 	H 	0.77313 0.89998 0.63021 0.04100
H 	H 	0.73882 0.74070 0.64619 0.04200
H 	H 	0.66211 0.95257 0.72115 0.03700
H 	H 	0.62942 0.79355 0.73698 0.03700
H 	H 	0.66996 0.68830 0.69995 0.03900
C 	C 	0.19032 0.06578 0.68463 -0.02100
C 	C 	0.16931 0.04603 0.65434 -0.01100
C 	C 	0.22670 0.02508 0.63136 -0.00500
H 	H 	0.20827 0.00494 0.60876 0.05000
C 	C 	0.30922 0.03779 0.63626 -0.07500
C 	C 	0.33238 0.06768 0.66570 0.03400
C 	C 	0.27148 0.07458 0.69010 -0.04000
H 	H 	0.28811 0.08864 0.71333 0.06200
C 	C 	0.41941 0.10397 0.67024 0.00400
C 	C 	0.46277 0.04791 0.68105 -0.02600
C 	C 	0.53998 0.08402 0.69068 -0.03000
C 	C 	0.57289 0.17613 0.69058 -0.02300
C 	C 	0.52870 0.23203 0.68071 -0.01500
C 	C 	0.45318 0.19628 0.66983 -0.04400
C 	C 	0.09349 0.06023 0.64482 0.04900
C 	C 	0.03401 0.98870 0.63480 -0.09000
H 	H 	0.03707 0.92160 0.63873 0.06000
H 	H 	0.43627 0.97660 0.68225 0.04100
H 	H 	0.57397 0.04059 0.69837 0.03900
H 	H 	0.41919 0.24018 0.66231 0.04600
H 	H 	0.55268 0.30298 0.68158 0.05600
H 	H 	0.63296 0.20422 0.69777 0.04300
C 	C 	0.68145 0.48528 0.70308 0.02100
C 	C 	0.60192 0.49596 0.70320 -0.04600
C 	C 	0.53567 0.44425 0.72405 -0.02000
C 	C 	0.54812 0.38035 0.74423 -0.03800
C 	C 	0.62625 0.36647 0.74308 -0.02200
C 	C 	0.69326 0.41998 0.72307 -0.04400
C 	C 	0.04468 0.71729 0.63522 -0.03900
C 	C 	0.11628 0.76597 0.61622 -0.01900
C 	C 	0.11036 0.81668 0.59024 -0.04000
C 	C 	0.03286 0.81947 0.58335 -0.01100
C 	C 	0.96110 0.77242 0.60265 -0.05600
H 	H 	0.17634 0.76386 0.62150 0.04000
H 	H 	0.16587 0.85416 0.57554 0.04700
H 	H 	0.02844 0.85928 0.56336 0.03400
H 	H 	0.90136 0.77610 0.59743 0.04400
H 	H 	0.04978 0.67610 0.65475 0.04800
H 	H 	0.59153 0.54424 0.68726 0.04400
H 	H 	0.47465 0.45348 0.72448 0.03500
H 	H 	0.75436 0.41152 0.72334 0.04100
H 	H 	0.63499 0.31477 0.75791 0.03500
H 	H 	0.49730 0.34158 0.76074 0.04000
C 	C 	0.03071 0.53807 0.03367 -0.13100
H 	H 	0.99299 0.46956 0.03553 0.07500
C 	C 	0.57573 0.05178 0.98877 -0.19600
C 	C 	0.62820 0.01015 0.00518 0.03600
C 	C 	0.59345 0.94702 0.02778 -0.01300
C 	C 	0.64316 0.89504 0.04110 -0.17200
H 	H 	0.52711 0.93042 0.03518 0.04300
H 	H 	0.51020 0.01821 0.98978 0.09600
H 	H 	0.70808 0.90681 0.03177 0.08400
H 	H 	0.69470 0.02848 0.99803 0.04000
C 	C 	0.42708 0.55799 0.01283 -0.08900
C 	C 	0.42016 0.48439 0.99682 0.00100
C 	C 	0.48447 0.48160 0.97063 -0.00400
C 	C 	0.49299 0.40378 0.96077 -0.08600
H 	H 	0.53271 0.54218 0.96291 0.05600
H 	H 	0.47414 0.61867 0.00431 0.06000
H 	H 	0.44213 0.34403 0.96626 0.05900
H 	H 	0.37301 0.42368 0.00535 0.04700
H 	H 	0.75103 0.23996 0.83876 0.06300
C 	C 	0.70637 0.12730 0.75080 -0.02900
C 	C 	0.71038 0.07107 0.77545 -0.01200
C 	C 	0.77100 0.09858 0.79508 -0.04300
H 	H 	0.77008 0.05715 0.81543 0.05500
H 	H 	0.66610 0.00641 0.77950 0.03600
H 	H 	0.65834 0.10666 0.73615 0.03700
C 	C 	0.31091 0.06023 0.81756 -0.07200
C 	C 	0.35085 0.15188 0.81305 0.02400
C 	C 	0.42216 0.18874 0.82679 -0.02400
H 	H 	0.45131 0.25965 0.82408 0.04600
C 	C 	0.45512 0.13486 0.84451 -0.06700
C 	C 	0.41927 0.04203 0.84673 0.02600
C 	C 	0.34652 0.00543 0.83364 -0.00900
H 	H 	0.31775 0.93444 0.83596 0.03700
C 	C 	0.46003 0.98266 0.86117 0.01600
C 	C 	0.53726 0.97579 0.84707 -0.05700
C 	C 	0.57880 0.92500 0.86188 -0.01400
C 	C 	0.54321 0.88036 0.89068 -0.03800
C 	C 	0.46589 0.88627 0.90467 -0.01800
C 	C 	0.42417 0.93715 0.88995 -0.04300
C 	C 	0.32009 0.20898 0.79299 0.01500
C 	C 	0.26411 0.25437 0.80622 -0.04700
C 	C 	0.23235 0.30529 0.78699 -0.02100
C 	C 	0.25748 0.31239 0.75462 -0.03300
C 	C 	0.31416 0.26830 0.74142 -0.01400
C 	C 	0.34490 0.21597 0.76049 -0.04600
H 	H 	0.18809 0.33902 0.79715 0.03700
H 	H 	0.23284 0.35183 0.73977 0.04400
H 	H 	0.33366 0.27401 0.71638 0.03600
H 	H 	0.38816 0.18124 0.75008 0.04700
H 	H 	0.24411 0.24877 0.83126 0.04900
H 	H 	0.56561 0.01123 0.82501 0.05300
H 	H 	0.63879 0.92066 0.85113 0.03200
H 	H 	0.36487 0.94250 0.90113 0.04400
H 	H 	0.43854 0.85189 0.92701 0.03600
H 	H 	0.57557 0.84132 0.90218 0.04300
C 	C 	0.82229 0.45479 0.80768 -0.01800
C 	C 	0.73920 0.41041 0.80680 -0.03000
C 	C 	0.67819 0.45399 0.81473 -0.01000
H 	H 	0.10217 0.05754 0.87870 0.04000
H 	H 	0.01998 0.15950 0.89781 0.04800
H 	H 	0.86954 0.42132 0.80126 0.03700
H 	H 	0.61390 0.41959 0.81394 0.04500
H 	H 	0.72211 0.34238 0.79990 0.04600
Zn	Zn	0.76440 0.48016 0.92301 1.21700
P 	P 	0.77566 0.30665 0.89875 0.30200
C 	C 	0.82739 0.45631 0.98307 0.34400
O 	O 	0.81191 0.31491 0.93090 -0.43300
O 	O 	0.74398 0.39088 0.89190 -0.43900
O 	O 	0.68687 0.60354 0.89408 -0.24500
O 	O 	0.84745 0.47583 0.95254 -0.44500
O 	O 	0.76922 0.38390 0.99332 -0.45000
C 	C 	0.76751 0.63676 0.88987 0.27800
O 	O 	0.81344 0.59900 0.90449 -0.41600
C 	C 	0.71028 0.47407 0.63404 0.27800
C 	C 	0.79269 0.38780 0.52241 0.35000
O 	O 	0.70934 0.48381 0.60379 -0.42100
O 	O 	0.73695 0.42164 0.53818 -0.44400
O 	O 	0.79019 0.30385 0.52718 -0.45400
Zn	Zn	0.96006 0.08341 0.74962 1.19500
Zn	Zn	0.95766 0.91869 0.71478 1.21600
P 	P 	0.92390 0.91400 0.78352 0.29300
C 	C 	0.92680 0.74356 0.69633 0.28400
C 	C 	0.86209 0.04450 0.70141 0.31600
C 	C 	0.00188 0.19174 0.79856 0.31000
O 	O 	0.90925 0.00851 0.78821 -0.43400
O 	O 	0.88442 0.87535 0.75296 -0.42300
O 	O 	0.93002 0.82422 0.68713 -0.42600
O 	O 	0.95389 0.73000 0.72262 -0.25500
O 	O 	0.91739 0.00435 0.68985 -0.43000
O 	O 	0.02529 0.12651 0.81088 -0.42000
O 	O 	0.86074 0.06948 0.73027 -0.44800
O 	O 	0.00051 0.19639 0.76831 -0.44500
Zn	Zn	0.94733 0.84682 0.20832 1.21400
P 	P 	0.88444 0.87324 0.27447 0.30000
C 	C 	0.82724 0.81184 0.16734 0.28300
O 	O 	0.86447 0.87348 0.23906 -0.42400
O 	O 	0.88004 0.77816 0.17936 -0.41700
O 	O 	0.83399 0.89699 0.16932 -0.25500
C 	C 	0.93203 0.17580 0.16830 0.01200
C 	C 	0.90737 0.22705 0.19226 -0.03900
C 	C 	0.82334 0.21675 0.20201 -0.01900
C 	C 	0.76369 0.15543 0.18792 -0.03300
C 	C 	0.78795 0.10468 0.16391 -0.01300
C 	C 	0.87190 0.11510 0.15394 -0.03500
H 	H 	0.80446 0.25616 0.22054 0.03400
H 	H 	0.69868 0.14728 0.19560 0.04000
H 	H 	0.74170 0.05715 0.15305 0.04400
H 	H 	0.89025 0.07564 0.13529 0.05600
H 	H 	0.95315 0.27435 0.20337 0.04100
C 	C 	0.67486 0.76453 0.17020 -0.02000
H 	H 	0.67253 0.81574 0.18680 0.04600
C 	C 	0.75131 0.75248 0.15793 -0.06600
C 	C 	0.83449 0.66915 0.12416 0.02200
C 	C 	0.85736 0.59514 0.13430 -0.04400
C 	C 	0.93866 0.59062 0.12662 -0.01700
C 	C 	0.99685 0.65890 0.10828 -0.04000
H 	H 	0.35551 0.62667 0.23074 0.03300
H 	H 	0.47730 0.59403 0.20049 0.04900
H 	H 	0.81278 0.54226 0.14861 0.04200
H 	H 	0.95686 0.53485 0.13528 0.03300
H 	H 	0.06050 0.65721 0.10352 0.04400
C 	C 	0.76304 0.85681 0.32658 -0.04400
H 	H 	0.79377 0.92509 0.33084 0.05100
C 	C 	0.78857 0.81850 0.29905 -0.02500
C 	C 	0.74879 0.72872 0.29419 0.00400
C 	C 	0.69220 0.67675 0.31798 -0.00600
H 	H 	0.66635 0.60659 0.31468 0.04600
C 	C 	0.75936 0.68965 0.26338 0.03000
C 	C 	0.81866 0.64233 0.25719 -0.06400
H 	H 	0.64910 0.71314 0.24931 0.04700
H 	H 	0.86585 0.64748 0.27229 0.06900
H 	H 	0.23875 0.33044 0.19081 0.04000
H 	H 	0.11057 0.37890 0.19962 0.04400
C 	C 	0.88944 0.62710 0.42792 -0.01000
C 	C 	0.84629 0.54084 0.42164 -0.04000
C 	C 	0.88451 0.49084 0.40115 -0.01200
H 	H 	0.85990 0.66555 0.44390 0.03400
H 	H 	0.85126 0.42384 0.39650 0.03500
H 	H 	0.78346 0.51252 0.43282 0.04600
C 	C 	0.89390 0.39999 0.47664 0.03000
C 	C 	0.85271 0.44000 0.49979 -0.18100
H 	H 	0.86299 0.33406 0.46963 0.03300
H 	H 	0.87012 0.51179 0.50101 0.08700
H 	H 	0.01379 0.50413 0.47129 0.05400
C 	C 	0.81988 0.21407 0.64856 -0.00400
C 	C 	0.85263 0.17489 0.67125 -0.00400
H 	H 	0.90647 0.21368 0.68093 0.03500
C 	C 	0.82083 0.08483 0.67983 -0.08900
C 	C 	0.86623 0.30436 0.63601 0.03900
C 	C 	0.87616 0.37566 0.65601 -0.04800
C 	C 	0.96471 0.39996 0.59562 -0.01100
C 	C 	0.91212 0.31656 0.60590 -0.04700
H 	H 	0.01707 0.53434 0.60804 0.05100
H 	H 	0.99854 0.40965 0.57219 0.03800
H 	H 	0.90663 0.26158 0.59050 0.05400
H 	H 	0.84296 0.36652 0.67955 0.04700
C 	C 	0.96677 0.09066 0.61444 -0.06100
C 	C 	0.02542 0.16207 0.62472 0.00900
H 	H 	0.92527 0.94875 0.61177 0.01800
H 	H 	0.91775 0.10241 0.60276 0.05300
H 	H 	0.02280 0.22916 0.62056 0.03400
C 	C 	0.87837 0.66855 0.68071 -0.07500
C 	C 	0.89027 0.66549 0.64774 0.02200
C 	C 	0.83179 0.60512 0.63282 -0.02600
H 	H 	0.84199 0.60171 0.60755 0.05000
C 	C 	0.76361 0.54479 0.65036 -0.06600
C 	C 	0.75340 0.54609 0.68354 0.01500
C 	C 	0.81147 0.60730 0.69835 -0.02100
H 	H 	0.80226 0.61012 0.72368 0.04600
C 	C 	0.87617 0.50348 0.00426 -0.17100
C 	C 	0.94881 0.57053 0.99428 0.01200
H 	H 	0.05323 0.66575 0.01230 0.04100
H 	H 	0.86029 0.48314 0.02898 0.09000
C 	C 	0.84844 0.29597 0.86582 -0.02600
C 	C 	0.93449 0.31897 0.86670 0.00100
C 	C 	0.98552 0.28733 0.84378 -0.01600
C 	C 	0.95164 0.23798 0.81917 -0.08900
C 	C 	0.86685 0.22526 0.81672 0.03700
C 	C 	0.81662 0.25369 0.84012 -0.04400
C 	C 	0.82847 0.18271 0.78999 -0.00300
C 	C 	0.82759 0.23620 0.76379 -0.04500
C 	C 	0.76574 0.20911 0.74460 -0.01700
C 	C 	0.97269 0.38525 0.88836 0.01600
C 	C 	0.97978 0.47545 0.88259 -0.06200
C 	C 	0.05441 0.51276 0.92709 -0.03000
C 	C 	0.00489 0.35903 0.91408 -0.02200
H 	H 	0.08695 0.56210 0.94181 0.04300
H 	H 	0.07021 0.40250 0.95329 0.04100
H 	H 	0.99754 0.28951 0.91929 0.03700
H 	H 	0.87120 0.30135 0.75963 0.04400
H 	H 	0.76353 0.25174 0.72507 0.03300
C 	C 	0.87281 0.83502 0.81569 -0.02500
C 	C 	0.87461 0.85782 0.84739 0.00200
C 	C 	0.83934 0.79229 0.87145 -0.01200
H 	H 	0.83921 0.81008 0.89574 0.04000
C 	C 	0.80636 0.70386 0.86437 -0.07400
C 	C 	0.80753 0.68050 0.83284 0.03000
C 	C 	0.83855 0.74632 0.80882 -0.03900
H 	H 	0.83949 0.72753 0.78464 0.06400
C 	C 	0.78350 0.58655 0.82468 0.01300
C 	C 	0.84448 0.54250 0.81678 -0.04400
C 	C 	0.70025 0.54224 0.82335 -0.04000
C 	C 	0.91771 0.94751 0.85596 0.00300
C 	C 	0.03793 0.04323 0.87523 0.00800
C 	C 	0.90845 0.08225 0.88169 -0.01600
C 	C 	0.87169 0.00626 0.86643 -0.01500
H 	H 	0.87223 0.12611 0.89053 0.04800
H 	H 	0.80666 0.99095 0.86399 0.03400
H 	H 	0.90899 0.57655 0.81740 0.04600
H 	H 	0.65287 0.57614 0.82898 0.05400
C 	C 	0.68758 0.61421 0.22186 -0.01400
H 	H 	0.95429 0.49623 0.86300 0.04400
C 	C 	0.99152 0.10073 0.88605 -0.04700
C 	C 	0.20055 0.31760 0.21340 -0.01600
C 	C 	0.93214 0.45755 0.64619 -0.01100
C 	C 	0.08846 0.14704 0.63995 -0.05300
H 	H 	0.03690 0.92105 0.85273 0.04800
H 	H 	0.13494 0.20292 0.64707 0.05500
C 	C 	0.01415 0.59782 0.01472 0.00800
C 	C 	0.00125 0.96677 0.86019 -0.06700
O 	O 	0.93241 0.97202 0.28061 -0.43300
C 	C 	0.97093 0.00400 0.61956 0.03300
C 	C 	0.04550 0.42279 0.93343 -0.01800
O 	O 	0.94224 0.81249 0.28083 -0.44600
H 	H 	0.94277 0.51088 0.66224 0.03600
C 	C 	0.12827 0.34486 0.21837 -0.03600
H 	H 	0.02628 0.60853 0.89741 0.03900
H 	H 	0.95781 0.60371 0.97135 0.03600
C 	C 	0.07927 0.32901 0.24765 -0.01600
C 	C 	0.02063 0.53898 0.90194 -0.00600
O 	O 	0.02066 0.92346 0.78086 -0.42300
H 	H 	0.05113 0.30114 0.84511 0.04300
O 	O 	0.04330 0.10273 0.71182 -0.43500
C 	C 	0.96659 0.72092 0.62872 0.01000
C 	C 	0.97508 0.47028 0.61581 -0.04900
