data_crystal

_cell_length_a 33.65022
_cell_length_b 33.97027
_cell_length_c 26.48372
_cell_angle_alpha 95.44477
_cell_angle_beta  95.44008
_cell_angle_gamma 125.39525

_symmetry_space_group_name_	'P 1'
_symmetry_space_group_name_H-M	'P 1'

loop_
_symmetry_equiv_pos_as_xyz
  x,y,z

loop_
_atom_site_label
_atom_site_type_symbol
_atom_site_fract_x
_atom_site_fract_y
_atom_site_fract_z
_atom_site_charge
C 	C 	0.05106 0.02997 0.96040 0.12000
N 	N 	0.03029 0.05396 0.96788 -0.14000
C 	C 	0.02308 0.00338 0.43524 0.12000
C 	C 	0.07687 0.03343 0.43546 -0.02100
C 	C 	0.14851 0.04093 0.41118 -0.04900
C 	C 	0.09731 0.01318 0.40930 -0.01900
H 	H 	0.16393 0.02481 0.39126 0.04300
C 	C 	0.11752 0.03285 0.92213 -0.01800
H 	H 	0.17846 0.03719 0.89653 0.04400
C 	C 	0.10289 0.05695 0.95249 -0.02300
C 	C 	0.10817 0.08198 0.46293 -0.01900
C 	C 	0.17977 0.08919 0.43916 0.01400
H 	H 	0.09294 0.09797 0.48351 0.04000
C 	C 	0.20323 0.10490 0.94545 0.01600
C 	C 	0.13852 0.10590 0.97760 -0.01500
C 	C 	0.16744 0.05665 0.91881 -0.04900
N 	N 	0.99881 0.02430 0.43427 -0.14100
H 	H 	0.99453 0.10149 0.92806 0.04000
C 	C 	0.98283 0.02914 0.97603 0.11800
C 	C 	0.92318 0.01964 0.43332 -0.02200
C 	C 	0.92802 0.04266 0.01963 -0.02000
C 	C 	0.96028 0.05514 0.98419 -0.02000
C 	C 	0.85182 0.01753 0.40083 -0.04900
H 	H 	0.87962 0.05548 0.05267 0.04400
C 	C 	0.90490 0.06577 0.02571 -0.05300
C 	C 	0.94643 0.06724 0.46135 -0.01900
C 	C 	0.92256 0.08985 0.45902 -0.04900
C 	C 	0.87527 0.06518 0.42862 0.01400
C 	C 	0.85028 0.08922 0.42616 0.00500
C 	C 	0.83487 0.09889 0.47007 -0.04100
C 	C 	0.84352 0.10422 0.38054 -0.04000
H 	H 	0.98294 0.08666 0.48501 0.03900
H 	H 	0.85539 0.09697 0.34647 0.04100
H 	H 	0.71380 0.10689 0.43227 0.04600
C 	C 	0.91371 0.10144 0.99636 0.02000
C 	C 	0.96986 0.09162 0.95563 -0.01900
H 	H 	0.84118 0.08629 0.92452 0.03900
H 	H 	0.83988 0.08737 0.50542 0.04000
H 	H 	0.92077 0.01501 0.04235 0.03900
C 	C 	0.15940 0.10971 0.46479 -0.04900
C 	C 	0.23388 0.11793 0.44224 0.00500
H 	H 	0.23046 0.11969 0.36062 0.04000
H 	H 	0.25042 0.12355 0.86356 0.04000
H 	H 	0.24964 0.12243 0.52450 0.04100
H 	H 	0.12782 0.12500 0.00105 0.03800
C 	C 	0.25640 0.12810 0.94626 0.00400
H 	H 	0.40414 0.12973 0.98204 0.05100
C 	C 	0.18845 0.12977 0.97400 -0.05000
C 	C 	0.27478 0.13417 0.89998 -0.03900
C 	C 	0.25428 0.13034 0.39746 -0.04000
C 	C 	0.26509 0.13200 0.48977 -0.04000
H 	H 	0.27449 0.13736 0.02909 0.03800
C 	C 	0.28838 0.14217 0.99320 -0.03600
H 	H 	0.39320 0.13978 0.47384 0.04800
H 	H 	0.09031 0.99543 0.90173 0.04000
N 	N 	0.02423 0.98112 0.96111 -0.14100
C 	C 	0.54714 0.27629 0.45622 0.29000
C 	C 	0.30546 0.15639 0.40014 -0.03700
C 	C 	0.33665 0.17026 0.44762 -0.00000
C 	C 	0.31628 0.15808 0.49245 -0.03600
C 	C 	0.39060 0.19761 0.45040 0.02800
C 	C 	0.41831 0.24485 0.43838 -0.06600
C 	C 	0.46938 0.27062 0.44044 0.01500
C 	C 	0.49327 0.24933 0.45455 -0.08500
C 	C 	0.46546 0.20206 0.46677 0.01500
C 	C 	0.41437 0.17635 0.46470 -0.06500
H 	H 	0.18327 0.14703 0.48632 0.04300
H 	H 	0.07355 0.97596 0.38751 0.04000
H 	H 	0.32086 0.16559 0.36533 0.03900
H 	H 	0.34011 0.16882 0.52931 0.04200
H 	H 	0.40030 0.26165 0.42759 0.04700
H 	H 	0.49038 0.30724 0.43145 0.03500
H 	H 	0.48328 0.18503 0.47731 0.03400
C 	C 	0.51120 0.23199 0.96071 -0.08100
C 	C 	0.49123 0.25376 0.93692 0.01200
C 	C 	0.44041 0.23176 0.93107 -0.06200
C 	C 	0.40895 0.18756 0.94837 0.02700
C 	C 	0.42832 0.16433 0.96939 -0.06100
C 	C 	0.47916 0.18639 0.97557 0.01500
C 	C 	0.35642 0.16724 0.94754 0.00100
C 	C 	0.33818 0.16180 0.99385 -0.03400
C 	C 	0.32458 0.15357 0.90061 -0.03700
H 	H 	0.51517 0.28830 0.92412 0.03800
H 	H 	0.42571 0.24975 0.91435 0.04800
H 	H 	0.49371 0.16864 0.99318 0.04900
H 	H 	0.36258 0.17269 0.03032 0.04000
H 	H 	0.33834 0.15769 0.86466 0.04100
H 	H 	0.21577 0.16722 0.99428 0.04400
C 	C 	0.85008 0.11167 0.95918 -0.03700
C 	C 	0.94659 0.11458 0.96163 -0.05100
C 	C 	0.56561 0.25868 0.97379 0.28400
H 	H 	0.73923 0.12201 0.01213 0.04800
C 	C 	0.88688 0.12344 0.00031 -0.00100
H 	H 	0.79663 0.12363 0.93057 0.03700
H 	H 	0.81522 0.99816 0.37738 0.04300
N 	N 	0.99768 0.95469 0.43618 -0.14100
C 	C 	0.81346 0.12391 0.46860 -0.03700
C 	C 	0.94927 0.99665 0.43424 0.11800
C 	C 	0.82473 0.13265 0.96269 -0.03500
H 	H 	0.94089 0.12662 0.48067 0.04300
C 	C 	0.82218 0.12936 0.37909 -0.03600
H 	H 	0.80218 0.13168 0.50288 0.03700
C 	C 	0.87561 0.99478 0.40325 -0.01900
H 	H 	0.95367 0.14219 0.93890 0.04300
C 	C 	0.89794 0.15615 0.04514 -0.03900
H 	H 	0.92628 0.16540 0.07709 0.04000
H 	H 	0.81745 0.14115 0.34384 0.04100
H 	H 	0.85739 0.95820 0.38117 0.04000
N 	N 	0.95608 0.98017 0.97634 -0.14100
C 	C 	0.97670 0.95608 0.96885 0.12000
N 	N 	0.92398 0.94786 0.43523 -0.14100
C 	C 	0.94819 0.92684 0.43616 0.11800
Cu	Cu	0.65736 0.26765 0.00237 0.92900
Cu	Cu	0.70490 0.27243 0.89855 0.87300
Cu	Cu	0.69016 0.34732 0.93699 0.89900
Cu	Cu	0.65458 0.35753 0.03329 0.89500
C 	C 	0.66491 0.30271 0.10830 0.30300
O 	O 	0.58419 0.23791 0.99526 -0.35000
C 	C 	0.67945 0.31464 0.82575 0.30700
O 	O 	0.69707 0.34426 0.00872 -0.64200
O 	O 	0.65635 0.27494 0.92918 -0.64000
O 	O 	0.68836 0.23239 0.00326 -0.37000
O 	O 	0.74740 0.28447 0.95973 -0.43900
O 	O 	0.64214 0.32168 0.09224 -0.37600
O 	O 	0.72658 0.41799 0.94953 -0.38100
C 	C 	0.71905 0.44380 0.98252 0.29300
O 	O 	0.59532 0.30497 0.96928 -0.38800
O 	O 	0.68469 0.42257 0.01157 -0.39500
O 	O 	0.66857 0.27343 0.07581 -0.34800
C 	C 	0.73168 0.25150 0.98959 0.29500
O 	O 	0.69520 0.35145 0.86381 -0.38400
O 	O 	0.67782 0.27612 0.83410 -0.40400
H 	H 	0.73171 0.36543 0.02787 0.16500
H 	H 	0.62304 0.25497 0.90700 0.18300
Cu	Cu	0.72158 0.33107 0.43291 0.93000
Cu	Cu	0.71850 0.28746 0.53900 0.87300
Cu	Cu	0.64394 0.30365 0.50114 0.89800
Cu	Cu	0.63296 0.33745 0.40359 0.89500
C 	C 	0.68437 0.32206 0.32693 0.30300
O 	O 	0.75445 0.40403 0.43761 -0.35100
C 	C 	0.67910 0.31613 0.61238 0.30600
O 	O 	0.64489 0.29465 0.42897 -0.64100
O 	O 	0.71653 0.33514 0.50678 -0.64100
O 	O 	0.75415 0.29722 0.43184 -0.36600
O 	O 	0.70227 0.24228 0.47882 -0.44000
O 	O 	0.66656 0.34598 0.34296 -0.37600
O 	O 	0.57283 0.26944 0.49048 -0.37900
C 	C 	0.73520 0.42479 0.45796 0.28400
O 	O 	0.68916 0.39719 0.46512 -0.38800
O 	O 	0.56929 0.31141 0.42860 -0.39300
O 	O 	0.71324 0.31744 0.35931 -0.34800
C 	C 	0.73374 0.25483 0.44713 0.28900
O 	O 	0.64149 0.30068 0.57497 -0.38400
O 	O 	0.71758 0.31742 0.60303 -0.40400
H 	H 	0.62231 0.26005 0.41069 0.16500
H 	H 	0.73781 0.36871 0.52776 0.18300
C 	C 	0.71247 0.36213 0.75573 -0.03900
C 	C 	0.67322 0.32108 0.77215 -0.08800
C 	C 	0.63135 0.28324 0.73557 0.12300
C 	C 	0.63169 0.28392 0.68287 -0.04000
C 	C 	0.67345 0.32232 0.66636 -0.08800
C 	C 	0.71266 0.36299 0.70303 0.12300
Br	Br	0.76648 0.42009 0.68185 -0.25500
H 	H 	0.74396 0.39232 0.78381 0.06400
H 	H 	0.60051 0.25339 0.65479 0.06400
Br	Br	0.57336 0.23052 0.75692 -0.25600
C 	C 	0.64161 0.27074 0.23989 -0.04200
C 	C 	0.68371 0.31311 0.27150 -0.08300
C 	C 	0.72211 0.34942 0.24905 0.12700
C 	C 	0.71693 0.34419 0.19531 -0.04200
C 	C 	0.67360 0.30313 0.16370 -0.08300
C 	C 	0.63632 0.26563 0.18614 0.12700
Br	Br	0.57689 0.20832 0.14400 -0.23700
H 	H 	0.61214 0.24257 0.25707 0.05300
H 	H 	0.74584 0.37294 0.17813 0.05200
Br	Br	0.78075 0.40758 0.29117 -0.24000
C 	C 	0.92101 0.87397 0.43712 -0.02200
C 	C 	0.88567 0.85184 0.46911 -0.01900
C 	C 	0.86327 0.80275 0.47345 -0.04900
C 	C 	0.87584 0.77538 0.44567 0.01400
C 	C 	0.91021 0.79713 0.41275 -0.04900
C 	C 	0.93266 0.84615 0.40847 -0.01900
C 	C 	0.85395 0.72430 0.45181 0.00500
C 	C 	0.86550 0.71444 0.49911 -0.03900
C 	C 	0.84809 0.66648 0.50370 -0.03700
C 	C 	0.81903 0.62807 0.46101 0.00100
C 	C 	0.80657 0.63779 0.41406 -0.03700
C 	C 	0.82397 0.68570 0.40948 -0.04000
C 	C 	0.80220 0.57779 0.46511 0.02600
C 	C 	0.76834 0.55167 0.49727 -0.06200
C 	C 	0.74846 0.50232 0.49710 0.01200
C 	C 	0.76209 0.47858 0.46453 -0.08200
C 	C 	0.79797 0.50558 0.43437 0.01300
C 	C 	0.81785 0.55492 0.43464 -0.06100
H 	H 	0.87648 0.87294 0.49155 0.04000
H 	H 	0.83653 0.78614 0.49873 0.04300
H 	H 	0.92003 0.77623 0.39104 0.04300
H 	H 	0.95948 0.86266 0.38324 0.03900
H 	H 	0.88873 0.74404 0.53197 0.04100
H 	H 	0.85778 0.65931 0.54013 0.04100
H 	H 	0.78371 0.60827 0.38105 0.04100
H 	H 	0.81467 0.69293 0.37290 0.04000
H 	H 	0.75643 0.56919 0.52133 0.04800
H 	H 	0.72158 0.48225 0.52134 0.03800
H 	H 	0.80911 0.48795 0.40927 0.05400
H 	H 	0.84453 0.57504 0.41023 0.05100
C 	C 	0.80732 0.13952 0.42321 -0.00100
C 	C 	0.78637 0.16749 0.42241 0.02700
C 	C 	0.81638 0.21724 0.41818 -0.06600
C 	C 	0.79841 0.24534 0.42368 0.01500
C 	C 	0.75025 0.22390 0.43362 -0.09300
C 	C 	0.71943 0.17347 0.43514 0.01300
C 	C 	0.73746 0.14546 0.42967 -0.06700
H 	H 	0.85413 0.23450 0.41228 0.04800
H 	H 	0.82254 0.28411 0.42211 0.03800
H 	H 	0.68186 0.15619 0.44168 0.03000
C 	C 	0.94762 0.90283 0.96903 -0.02500
C 	C 	0.95703 0.87361 0.93912 -0.01600
C 	C 	0.93088 0.82360 0.94074 -0.05100
C 	C 	0.89481 0.80217 0.97196 0.02000
C 	C 	0.88483 0.83109 0.00129 -0.05800
C 	C 	0.91115 0.88121 0.99994 -0.01000
C 	C 	0.86804 0.74958 0.97446 0.00600
C 	C 	0.83980 0.71383 0.92949 -0.03900
C 	C 	0.81592 0.66413 0.93153 -0.03700
C 	C 	0.81988 0.64978 0.97857 0.00200
C 	C 	0.84769 0.68542 0.02363 -0.03900
C 	C 	0.87178 0.73515 0.02158 -0.04200
C 	C 	0.79482 0.59744 0.98066 0.03000
C 	C 	0.81276 0.57251 0.95940 -0.06500
C 	C 	0.78846 0.52258 0.96054 0.01500
C 	C 	0.74569 0.49700 0.98269 -0.08300
C 	C 	0.72809 0.52231 0.00437 0.01200
C 	C 	0.75262 0.57227 0.00339 -0.06800
H 	H 	0.98459 0.88962 0.91462 0.04000
H 	H 	0.93889 0.80157 0.91801 0.04400
H 	H 	0.85685 0.81479 0.02530 0.04400
H 	H 	0.90368 0.90330 0.02344 0.03600
H 	H 	0.83648 0.72458 0.89299 0.04100
H 	H 	0.79430 0.63678 0.89661 0.04200
H 	H 	0.85089 0.67459 0.06011 0.04000
H 	H 	0.89372 0.76249 0.05645 0.04000
H 	H 	0.84553 0.59182 0.94202 0.04900
H 	H 	0.80293 0.50387 0.94426 0.03800
H 	H 	0.69514 0.50323 0.02146 0.03500
H 	H 	0.73856 0.59133 0.01988 0.04700
C 	C 	0.75944 0.23126 0.00173 -0.09800
C 	C 	0.73400 0.18164 0.00628 0.01600
C 	C 	0.75944 0.16068 0.01027 -0.06800
C 	C 	0.81053 0.18915 0.01005 0.02800
C 	C 	0.83643 0.23929 0.00828 -0.06900
C 	C 	0.81103 0.26028 0.00416 0.01600
C 	C 	0.83602 0.16566 0.00733 -0.00400
C 	C 	0.87267 0.17729 0.04859 -0.03700
H 	H 	0.69426 0.15885 0.00475 0.03600
H 	H 	0.87597 0.26164 0.00850 0.04600
H 	H 	0.83126 0.29881 0.00166 0.02900
H 	H 	0.88163 0.20276 0.08318 0.04000
