data_crystal

_cell_length_a 36.36810
_cell_length_b 37.62800
_cell_length_c 49.06381
_cell_angle_alpha 60.91787
_cell_angle_beta  118.80097
_cell_angle_gamma 133.11203

_symmetry_space_group_name_	'P 1'
_symmetry_space_group_name_H-M	'P 1'

loop_
_symmetry_equiv_pos_as_xyz
  x,y,z

loop_
_atom_site_label
_atom_site_type_symbol
_atom_site_fract_x
_atom_site_fract_y
_atom_site_fract_z
_atom_site_charge
C 	C 	0.68865 0.31372 0.99521 0.13200
N 	N 	0.72176 0.36242 0.99697 -0.13900
C 	C 	0.70331 0.38458 0.99603 0.13400
N 	N 	0.65207 0.35824 0.99292 -0.14200
C 	C 	0.61983 0.30868 0.99411 0.13400
N 	N 	0.63799 0.28624 0.99506 -0.14000
C 	C 	0.69236 0.31789 0.49597 0.13100
N 	N 	0.64416 0.28560 0.50150 -0.14100
C 	C 	0.62309 0.30340 0.50292 0.13400
N 	N 	0.64993 0.35330 0.49850 -0.14100
C 	C 	0.69901 0.38535 0.49480 0.13300
N 	N 	0.72049 0.36769 0.49358 -0.14000
C 	C 	0.29127 0.62708 0.24466 0.13200
N 	N 	0.34367 0.65605 0.24969 -0.13900
C 	C 	0.36632 0.63912 0.24910 0.13500
N 	N 	0.33664 0.59353 0.24343 -0.14100
C 	C 	0.28439 0.56532 0.23720 0.13400
N 	N 	0.26146 0.58208 0.23771 -0.13900
C 	C 	0.29364 0.62927 0.74534 0.13200
N 	N 	0.34600 0.65822 0.75027 -0.14000
C 	C 	0.36853 0.64176 0.74898 0.13500
N 	N 	0.33878 0.59655 0.74274 -0.14100
C 	C 	0.28653 0.56816 0.73686 0.13400
N 	N 	0.26371 0.58454 0.73800 -0.13900
Co	Co	0.03838 0.00219 0.08704 1.18000
Co	Co	0.95506 0.94185 0.15796 1.18900
Co	Co	0.99771 0.03746 0.10910 1.17600
Co	Co	0.00141 0.90950 0.13878 1.18800
C 	C 	0.14387 0.04204 0.09102 0.32800
Co	Co	0.06849 0.93153 0.09889 1.17200
Co	Co	0.94468 0.02194 0.15571 1.15900
C 	C 	0.97099 0.83134 0.11466 0.31900
O 	O 	0.94598 0.07598 0.11351 -0.41600
O 	O 	0.96438 0.99736 0.13821 -0.75300
C 	C 	0.92753 0.06823 0.08503 0.32200
O 	O 	0.03212 0.05703 0.07690 -0.46600
O 	O 	0.96047 0.88662 0.16790 -0.46500
C 	C 	0.85246 0.91817 0.15274 0.31200
O 	O 	0.98032 0.96413 0.11487 -0.57700
C 	C 	0.05303 0.10780 0.15100 0.31400
C 	C 	0.01675 0.96388 0.03383 0.31100
C 	C 	0.09845 0.91215 0.16916 0.31600
O 	O 	0.94291 0.05163 0.07750 -0.39400
O 	O 	0.01513 0.92448 0.05535 -0.38800
O 	O 	0.01686 0.99410 0.04087 -0.36400
O 	O 	0.86992 0.96562 0.13897 -0.38500
O 	O 	0.87675 0.90045 0.15663 -0.37600
O 	O 	0.02272 0.07438 0.17124 -0.39600
O 	O 	0.05881 0.09379 0.13398 -0.39200
O 	O 	0.11742 0.94136 0.14354 -0.38900
O 	O 	0.06572 0.91248 0.17391 -0.38500
O 	O 	0.03067 0.94744 0.10770 -0.75500
C 	C 	0.98205 0.96797 0.21608 0.31800
O 	O 	0.94368 0.97205 0.20034 -0.40400
O 	O 	0.99954 0.96220 0.20155 -0.39300
O 	O 	0.11980 0.00579 0.07798 -0.42200
O 	O 	0.11818 0.04350 0.10182 -0.40700
O 	O 	0.02087 0.85546 0.11952 -0.40400
O 	O 	0.95326 0.84596 0.12186 -0.38900
Co	Co	0.03964 0.00459 0.58656 1.18200
Co	Co	0.95547 0.94373 0.65703 1.19200
Co	Co	0.00158 0.04093 0.60991 1.18600
Co	Co	0.99823 0.90957 0.63606 1.18400
C 	C 	0.14341 0.03936 0.59180 0.32800
Co	Co	0.06337 0.93057 0.59521 1.17200
Co	Co	0.94817 0.02508 0.65643 1.16100
C 	C 	0.96338 0.83219 0.60884 0.31900
O 	O 	0.95160 0.08086 0.61491 -0.41400
O 	O 	0.96700 0.00031 0.63837 -0.77800
C 	C 	0.93401 0.07462 0.58605 0.32300
O 	O 	0.03703 0.06112 0.57815 -0.46500
O 	O 	0.95827 0.88730 0.66562 -0.46400
C 	C 	0.85426 0.92267 0.65156 0.31300
O 	O 	0.98106 0.96694 0.61383 -0.57500
C 	C 	0.05726 0.10932 0.65317 0.31500
C 	C 	0.01591 0.96916 0.53098 0.33000
C 	C 	0.09188 0.90690 0.66578 0.31500
O 	O 	0.94885 0.05777 0.57826 -0.39300
O 	O 	0.01124 0.92793 0.55139 -0.39200
O 	O 	0.01929 0.00034 0.53939 -0.39000
O 	O 	0.87308 0.97053 0.63852 -0.38400
O 	O 	0.87723 0.90402 0.65485 -0.37500
O 	O 	0.02636 0.07577 0.67304 -0.39500
O 	O 	0.06304 0.09549 0.63605 -0.39200
O 	O 	0.11150 0.93608 0.64039 -0.38900
O 	O 	0.06105 0.90928 0.67092 -0.38500
O 	O 	0.02820 0.94801 0.60533 -0.75200
C 	C 	0.98228 0.96759 0.71618 0.31700
O 	O 	0.94509 0.97341 0.70042 -0.40300
O 	O 	0.99910 0.96132 0.70148 -0.39100
O 	O 	0.11757 0.00511 0.57650 -0.42200
O 	O 	0.11892 0.04177 0.60296 -0.40600
O 	O 	0.01285 0.85432 0.61393 -0.40400
O 	O 	0.94755 0.84724 0.61741 -0.38700
C 	C 	0.02833 0.96704 0.81028 0.01800
C 	C 	0.99484 0.92460 0.83032 -0.03700
C 	C 	0.99725 0.92855 0.85817 -0.04900
C 	C 	0.03343 0.97495 0.86632 0.03400
C 	C 	0.06962 0.01643 0.84765 -0.06000
C 	C 	0.06717 0.01241 0.81978 -0.04800
C 	C 	0.03182 0.98060 0.89351 0.00400
C 	C 	0.98734 0.97183 0.89319 -0.04100
C 	C 	0.98448 0.97390 0.91982 -0.03400
C 	C 	0.02605 0.98483 0.94690 -0.00300
C 	C 	0.07124 0.99554 0.94671 -0.01600
C 	C 	0.07414 0.99343 0.92014 -0.02200
C 	C 	0.01994 0.97834 0.97637 0.05100
C 	C 	0.01746 0.97337 0.00183 -0.09700
C 	C 	0.01479 0.96725 0.77728 0.04600
C 	C 	0.00272 0.96658 0.74979 -0.09200
H 	H 	0.96488 0.88928 0.82333 0.04300
H 	H 	0.96991 0.89597 0.87282 0.04400
H 	H 	0.09830 0.05223 0.85399 0.04200
H 	H 	0.09342 0.04538 0.80458 0.04200
H 	H 	0.95471 0.96259 0.87257 0.04300
H 	H 	0.94939 0.96554 0.91973 0.04300
H 	H 	0.10353 0.00393 0.96756 0.02500
H 	H 	0.10874 0.00057 0.92059 0.02600
C 	C 	0.03212 0.99499 0.44519 0.00000
C 	C 	0.07041 0.99238 0.44779 -0.03300
C 	C 	0.07469 0.99262 0.42083 -0.03300
C 	C 	0.04078 0.99562 0.39099 -0.00600
C 	C 	0.00341 0.99976 0.38817 -0.00500
C 	C 	0.99907 0.99936 0.41522 -0.03000
C 	C 	0.04328 0.99288 0.36289 0.03500
C 	C 	0.02966 0.94822 0.36216 -0.04600
C 	C 	0.02652 0.94385 0.33420 -0.03000
C 	C 	0.03687 0.98402 0.30680 0.01200
C 	C 	0.05392 0.02973 0.30831 -0.04600
C 	C 	0.05694 0.03410 0.33619 -0.06200
C 	C 	0.01921 0.97526 0.27583 0.04700
C 	C 	0.00499 0.97111 0.24898 -0.09400
C 	C 	0.02348 0.98768 0.47390 0.05400
C 	C 	0.01906 0.98103 0.49918 -0.10200
H 	H 	0.09607 0.98892 0.47087 0.04300
H 	H 	0.10388 0.98980 0.42322 0.04300
H 	H 	0.97711 0.00222 0.36522 0.01700
H 	H 	0.96926 0.00123 0.41298 0.02600
H 	H 	0.01967 0.91635 0.38279 0.04500
H 	H 	0.01336 0.90839 0.33332 0.04400
H 	H 	0.06217 0.06106 0.28732 0.04100
H 	H 	0.06839 0.06902 0.33669 0.04300
C 	C 	0.13921 0.25294 0.65714 -0.00800
C 	C 	0.18185 0.27223 0.68256 -0.02900
C 	C 	0.19766 0.31322 0.68980 -0.04400
C 	C 	0.17095 0.33524 0.67157 0.01100
C 	C 	0.13087 0.31834 0.64464 -0.04300
C 	C 	0.11520 0.27744 0.63740 -0.02900
C 	C 	0.18291 0.37388 0.68174 0.00600
C 	C 	0.17713 0.36256 0.71186 -0.03700
C 	C 	0.19094 0.39985 0.72216 -0.03900
C 	C 	0.21054 0.44865 0.70244 0.01300
C 	C 	0.21408 0.45938 0.67178 -0.03900
C 	C 	0.20038 0.42217 0.66147 -0.03700
C 	C 	0.23496 0.48923 0.71547 0.00600
C 	C 	0.25596 0.52438 0.72538 -0.03800
C 	C 	0.11324 0.20287 0.65576 0.04900
C 	C 	0.09008 0.16105 0.65375 -0.10700
H 	H 	0.20088 0.25377 0.69783 0.04100
H 	H 	0.22945 0.32674 0.71021 0.04300
H 	H 	0.11049 0.33553 0.63012 0.04300
H 	H 	0.08239 0.26298 0.61758 0.04100
H 	H 	0.16279 0.32513 0.72746 0.04000
H 	H 	0.18815 0.39123 0.74591 0.04300
H 	H 	0.22930 0.49705 0.65641 0.04400
H 	H 	0.20452 0.43119 0.63807 0.04100
C 	C 	0.73085 0.83828 0.68970 -0.00700
C 	C 	0.74154 0.83991 0.72077 -0.02900
C 	C 	0.70142 0.81930 0.73321 -0.04300
C 	C 	0.65036 0.79692 0.71462 0.01200
C 	C 	0.63946 0.79353 0.68401 -0.04300
C 	C 	0.67963 0.81421 0.67160 -0.02800
C 	C 	0.60843 0.77793 0.72685 0.00600
C 	C 	0.59345 0.73645 0.75331 -0.03700
C 	C 	0.54878 0.71373 0.76185 -0.03900
C 	C 	0.51877 0.73221 0.74389 0.01300
C 	C 	0.53605 0.77604 0.71911 -0.03800
C 	C 	0.58074 0.79885 0.71058 -0.03700
C 	C 	0.46623 0.70115 0.74643 0.00700
C 	C 	0.42222 0.67520 0.74852 -0.03800
C 	C 	0.77286 0.86647 0.67515 0.05000
C 	C 	0.80924 0.89063 0.66394 -0.10400
H 	H 	0.78110 0.85845 0.73492 0.04100
H 	H 	0.71014 0.82171 0.75696 0.04300
H 	H 	0.60001 0.77562 0.66968 0.04400
H 	H 	0.67107 0.81275 0.64758 0.04200
H 	H 	0.61507 0.72051 0.76633 0.04100
H 	H 	0.53592 0.68010 0.78124 0.04400
H 	H 	0.51333 0.79084 0.70530 0.04500
H 	H 	0.59270 0.83156 0.69056 0.04300
C 	C 	0.23114 0.68824 0.74403 0.01400
C 	C 	0.20151 0.66550 0.76557 -0.03900
C 	C 	0.18300 0.68856 0.76502 -0.03700
C 	C 	0.19419 0.73456 0.74298 0.00600
C 	C 	0.22376 0.75711 0.72141 -0.03700
C 	C 	0.24216 0.73405 0.72197 -0.03900
C 	C 	0.17346 0.75838 0.74152 0.01100
C 	C 	0.11993 0.73551 0.73116 -0.04300
C 	C 	0.10114 0.76284 0.72247 -0.02900
C 	C 	0.13575 0.81327 0.72387 -0.00700
C 	C 	0.18865 0.83434 0.73740 -0.02800
C 	C 	0.20749 0.80704 0.74616 -0.04300
C 	C 	0.11945 0.84592 0.70463 0.05100
C 	C 	0.10609 0.87347 0.68858 -0.10500
C 	C 	0.25186 0.66562 0.74519 0.00600
C 	C 	0.26994 0.64797 0.74537 -0.03700
H 	H 	0.19298 0.63017 0.78278 0.04400
H 	H 	0.16010 0.67076 0.78170 0.04200
H 	H 	0.23216 0.79233 0.70408 0.04200
H 	H 	0.26510 0.75189 0.70530 0.04500
H 	H 	0.09320 0.69767 0.72799 0.04300
H 	H 	0.06008 0.74596 0.71245 0.04300
H 	H 	0.21566 0.87305 0.73901 0.04400
H 	H 	0.24880 0.82468 0.75485 0.04400
C 	C 	0.21103 0.44784 0.20174 0.01300
C 	C 	0.18026 0.39731 0.21754 -0.04000
C 	C 	0.16664 0.35969 0.20767 -0.03700
C 	C 	0.18388 0.37248 0.18197 0.00600
C 	C 	0.21290 0.42292 0.16538 -0.03700
C 	C 	0.22633 0.46043 0.17520 -0.03900
C 	C 	0.17238 0.33313 0.17286 0.01100
C 	C 	0.18955 0.30309 0.19522 -0.04400
C 	C 	0.17354 0.26210 0.18790 -0.02900
C 	C 	0.14014 0.25075 0.15824 -0.00800
C 	C 	0.12642 0.28314 0.13496 -0.02900
C 	C 	0.14231 0.32409 0.14227 -0.04300
C 	C 	0.11097 0.20109 0.15472 0.04900
C 	C 	0.08679 0.15940 0.15205 -0.10600
C 	C 	0.23349 0.48696 0.21546 0.00600
C 	C 	0.25405 0.52176 0.22557 -0.03800
H 	H 	0.16832 0.38724 0.23809 0.04300
H 	H 	0.14351 0.32076 0.22033 0.04000
H 	H 	0.22610 0.43317 0.14539 0.04100
H 	H 	0.25023 0.49944 0.16290 0.04500
H 	H 	0.21386 0.31050 0.21862 0.04200
H 	H 	0.18466 0.23750 0.20597 0.04000
H 	H 	0.10089 0.27487 0.11190 0.04100
H 	H 	0.12955 0.34756 0.12464 0.04300
C 	C 	0.51648 0.72445 0.24572 0.01300
C 	C 	0.53831 0.69862 0.25782 -0.03900
C 	C 	0.58293 0.72084 0.24947 -0.03700
C 	C 	0.60604 0.76909 0.22904 0.00600
C 	C 	0.58635 0.79629 0.21881 -0.03700
C 	C 	0.54171 0.77403 0.22720 -0.03900
C 	C 	0.64797 0.78939 0.21627 0.01100
C 	C 	0.63742 0.78923 0.18478 -0.04300
C 	C 	0.67761 0.81051 0.17211 -0.02900
C 	C 	0.72852 0.83211 0.19084 -0.00700
C 	C 	0.73879 0.83076 0.22267 -0.02900
C 	C 	0.69861 0.80940 0.23536 -0.04300
C 	C 	0.77085 0.86098 0.17638 0.05000
C 	C 	0.80736 0.88555 0.16518 -0.10400
C 	C 	0.46406 0.69707 0.24705 0.00700
C 	C 	0.42007 0.67223 0.24882 -0.03800
H 	H 	0.51918 0.66034 0.27229 0.04400
H 	H 	0.59826 0.69981 0.25777 0.04200
H 	H 	0.60448 0.83391 0.20341 0.04300
H 	H 	0.52530 0.79439 0.21792 0.04500
H 	H 	0.59826 0.77328 0.17000 0.04400
H 	H 	0.66937 0.81145 0.14749 0.04200
H 	H 	0.77809 0.84748 0.23727 0.04200
H 	H 	0.70699 0.80927 0.25979 0.04300
C 	C 	0.13448 0.81201 0.22326 -0.00700
C 	C 	0.09780 0.76302 0.21896 -0.02900
C 	C 	0.11359 0.73340 0.22696 -0.04300
C 	C 	0.16621 0.75254 0.23941 0.01100
C 	C 	0.20210 0.79972 0.24651 -0.04200
C 	C 	0.18622 0.82928 0.23853 -0.02800
C 	C 	0.18451 0.72630 0.24113 0.00600
C 	C 	0.17826 0.71981 0.21294 -0.03700
C 	C 	0.19824 0.69774 0.21415 -0.03900
C 	C 	0.22468 0.68202 0.24350 0.01400
C 	C 	0.23034 0.68776 0.27178 -0.03900
C 	C 	0.21035 0.70986 0.27060 -0.03700
C 	C 	0.24801 0.66214 0.24434 0.00600
C 	C 	0.26731 0.64559 0.24462 -0.03600
C 	C 	0.12178 0.84753 0.20560 0.05200
C 	C 	0.11051 0.87676 0.19067 -0.10800
H 	H 	0.05761 0.74911 0.20748 0.04300
H 	H 	0.08537 0.69661 0.22199 0.04300
H 	H 	0.24270 0.81461 0.25655 0.04400
H 	H 	0.21479 0.86688 0.24227 0.04400
H 	H 	0.15871 0.73266 0.19004 0.04200
H 	H 	0.19380 0.69354 0.19220 0.04500
H 	H 	0.25074 0.67570 0.29457 0.04500
H 	H 	0.21534 0.71462 0.29250 0.04200
C 	C 	0.85773 0.13818 0.52266 -0.01000
C 	C 	0.80457 0.10967 0.52005 -0.03000
C 	C 	0.78149 0.13360 0.50994 -0.04500
C 	C 	0.81147 0.18621 0.50224 0.01000
C 	C 	0.86320 0.21460 0.50135 -0.04400
C 	C 	0.88622 0.19061 0.51143 -0.02900
C 	C 	0.79152 0.21095 0.50040 0.00500
C 	C 	0.78256 0.20397 0.52800 -0.03800
C 	C 	0.76417 0.22763 0.52657 -0.04000
C 	C 	0.75461 0.25849 0.49758 0.01300
C 	C 	0.76395 0.26596 0.47000 -0.04000
C 	C 	0.78249 0.24233 0.47142 -0.03800
C 	C 	0.73314 0.28070 0.49598 0.00500
C 	C 	0.71518 0.29857 0.49561 -0.03800
C 	C 	0.88477 0.11544 0.54379 0.04900
C 	C 	0.90704 0.09606 0.56151 -0.11200
H 	H 	0.78198 0.06909 0.52815 0.03700
H 	H 	0.74118 0.11129 0.51000 0.04000
H 	H 	0.88646 0.25525 0.49486 0.04200
H 	H 	0.92715 0.21297 0.51284 0.03900
H 	H 	0.78994 0.18026 0.55055 0.03900
H 	H 	0.75704 0.22168 0.54797 0.04200
H 	H 	0.75656 0.28970 0.44748 0.04300
H 	H 	0.78955 0.24817 0.45003 0.04000
C 	C 	0.77359 0.52076 0.50869 0.01300
C 	C 	0.82607 0.55088 0.52352 -0.04000
C 	C 	0.84425 0.58945 0.53474 -0.03800
C 	C 	0.80992 0.59793 0.53126 0.00600
C 	C 	0.75802 0.56938 0.51495 -0.03700
C 	C 	0.74000 0.53107 0.50363 -0.03900
C 	C 	0.82775 0.63505 0.54594 0.01100
C 	C 	0.84779 0.62981 0.57920 -0.04400
C 	C 	0.86786 0.66670 0.59283 -0.02900
C 	C 	0.86803 0.70905 0.57335 -0.00900
C 	C 	0.84522 0.71283 0.54041 -0.02900
C 	C 	0.82523 0.67601 0.52672 -0.04300
C 	C 	0.89988 0.75225 0.58587 0.05100
C 	C 	0.92670 0.78811 0.59670 -0.10800
C 	C 	0.75229 0.47464 0.50357 0.00600
C 	C 	0.73052 0.43508 0.49870 -0.03900
H 	H 	0.85232 0.54324 0.52749 0.04300
H 	H 	0.88463 0.61187 0.54682 0.04000
H 	H 	0.73130 0.57583 0.51194 0.04100
H 	H 	0.69936 0.50794 0.49217 0.04400
H 	H 	0.84884 0.59773 0.59436 0.04200
H 	H 	0.88529 0.66341 0.61833 0.04000
H 	H 	0.84510 0.74541 0.52518 0.04200
H 	H 	0.80917 0.68005 0.50108 0.04200
C 	C 	0.49866 0.21635 0.54065 0.01200
C 	C 	0.50627 0.20293 0.57405 -0.04000
C 	C 	0.46876 0.18600 0.58731 -0.03800
C 	C 	0.42317 0.18195 0.56723 0.00500
C 	C 	0.41430 0.19255 0.53389 -0.03800
C 	C 	0.45199 0.20978 0.52067 -0.04000
C 	C 	0.38438 0.16599 0.58106 0.01100
C 	C 	0.36084 0.11893 0.60260 -0.04500
C 	C 	0.31770 0.09985 0.61109 -0.02900
C 	C 	0.29721 0.12722 0.59764 -0.01100
C 	C 	0.32403 0.17642 0.57893 -0.02800
C 	C 	0.36752 0.19579 0.57060 -0.04400
C 	C 	0.24353 0.10059 0.59573 0.05300
C 	C 	0.19827 0.07479 0.59511 -0.11500
C 	C 	0.54187 0.24540 0.52701 0.00600
C 	C 	0.57804 0.26974 0.51555 -0.04000
H 	H 	0.54222 0.20780 0.58967 0.04200
H 	H 	0.47566 0.17722 0.61310 0.03900
H 	H 	0.37863 0.18827 0.51822 0.04000
H 	H 	0.44579 0.21999 0.49484 0.04200
H 	H 	0.37417 0.09601 0.61135 0.03900
H 	H 	0.29770 0.06208 0.62605 0.03700
H 	H 	0.30901 0.19823 0.56886 0.04000
H 	H 	0.38650 0.23289 0.55477 0.04300
C 	C 	0.74465 0.24919 0.99560 0.01300
C 	C 	0.71751 0.21833 0.97490 -0.04000
C 	C 	0.73677 0.19557 0.97602 -0.03800
C 	C 	0.78331 0.20360 0.99786 0.00500
C 	C 	0.81069 0.23505 0.01825 -0.03800
C 	C 	0.79144 0.25777 0.01708 -0.04000
C 	C 	0.80184 0.17670 0.00091 0.01000
C 	C 	0.77234 0.12412 0.01142 -0.04400
C 	C 	0.79466 0.09941 0.02168 -0.03000
C 	C 	0.84671 0.12714 0.02180 -0.01000
C 	C 	0.87428 0.17900 0.00801 -0.03000
C 	C 	0.85196 0.20375 0.99762 -0.04400
C 	C 	0.87479 0.10545 0.04289 0.04900
C 	C 	0.89845 0.08746 0.06050 -0.11200
C 	C 	0.72423 0.27159 0.99514 0.00400
C 	C 	0.70774 0.29064 0.99509 -0.03800
H 	H 	0.68138 0.21164 0.95815 0.04300
H 	H 	0.71533 0.17141 0.96017 0.03900
H 	H 	0.84639 0.24117 0.03539 0.04000
H 	H 	0.81267 0.28163 0.03311 0.04300
H 	H 	0.73328 0.10272 0.01353 0.04000
H 	H 	0.77273 0.05920 0.03182 0.03700
H 	H 	0.91426 0.20068 0.00750 0.03900
H 	H 	0.87463 0.24423 0.98874 0.04100
C 	C 	0.88025 0.70334 0.08543 -0.00900
C 	C 	0.86111 0.70560 0.05250 -0.02900
C 	C 	0.84136 0.66617 0.04151 -0.04400
C 	C 	0.84070 0.62424 0.06342 0.01100
C 	C 	0.85777 0.62107 0.09646 -0.04400
C 	C 	0.87731 0.66042 0.10741 -0.02900
C 	C 	0.82161 0.58338 0.05185 0.00600
C 	C 	0.84591 0.59313 0.03138 -0.03800
C 	C 	0.82727 0.55427 0.02023 -0.04000
C 	C 	0.78450 0.50557 0.02961 0.01300
C 	C 	0.76091 0.49574 0.05047 -0.03900
C 	C 	0.77924 0.53446 0.06146 -0.03800
C 	C 	0.76147 0.46635 0.01583 0.00600
C 	C 	0.73797 0.43032 0.00606 -0.03900
C 	C 	0.91074 0.74792 0.09609 0.05100
C 	C 	0.93622 0.78539 0.10487 -0.10900
H 	H 	0.86326 0.73866 0.03536 0.04100
H 	H 	0.82729 0.66853 0.01599 0.04200
H 	H 	0.85694 0.58863 0.11359 0.04200
H 	H 	0.89208 0.65841 0.13290 0.04000
H 	H 	0.87898 0.63072 0.02405 0.04000
H 	H 	0.84557 0.56221 0.00400 0.04300
H 	H 	0.72763 0.45820 0.05767 0.04400
H 	H 	0.76018 0.52656 0.07717 0.04100
C 	C 	0.29057 0.15196 0.07854 -0.01100
C 	C 	0.32892 0.14415 0.09913 -0.02900
C 	C 	0.37116 0.16582 0.08835 -0.04500
C 	C 	0.37548 0.19585 0.05699 0.01100
C 	C 	0.34017 0.20809 0.03774 -0.04400
C 	C 	0.29813 0.18658 0.04864 -0.02800
C 	C 	0.41498 0.21206 0.04370 0.00500
C 	C 	0.41594 0.17626 0.04228 -0.03800
C 	C 	0.45368 0.19178 0.02986 -0.04100
C 	C 	0.49036 0.24305 0.01864 0.01300
C 	C 	0.48854 0.27866 0.01931 -0.04000
C 	C 	0.45116 0.26327 0.03187 -0.03800
C 	C 	0.53325 0.25989 0.00963 0.00500
C 	C 	0.57122 0.27909 0.00184 -0.04000
C 	C 	0.23903 0.11497 0.08375 0.05300
C 	C 	0.19599 0.08378 0.08833 -0.11400
H 	H 	0.32393 0.11817 0.12254 0.03800
H 	H 	0.39922 0.15753 0.10384 0.04100
H 	H 	0.34383 0.23222 0.01375 0.04200
H 	H 	0.26916 0.19356 0.03276 0.04000
H 	H 	0.38767 0.13655 0.05092 0.03900
H 	H 	0.45492 0.16404 0.02952 0.04100
H 	H 	0.51694 0.31839 0.01077 0.04400
H 	H 	0.45067 0.29116 0.03275 0.04100
