data_crystal

_cell_length_a 18.06179
_cell_length_b 17.45704
_cell_length_c 49.14480
_cell_angle_alpha 89.59072
_cell_angle_beta  89.58934
_cell_angle_gamma 119.40048

_symmetry_space_group_name_	'P 1'
_symmetry_space_group_name_H-M	'P 1'

loop_
_symmetry_equiv_pos_as_xyz
  x,y,z

loop_
_atom_site_label
_atom_site_type_symbol
_atom_site_fract_x
_atom_site_fract_y
_atom_site_fract_z
_atom_site_charge
O 	O 	0.11905 0.14337 0.21962 -0.36100
C 	C 	0.07105 0.09244 0.15847 0.32400
O 	O 	0.12304 0.90112 0.71038 -0.37300
C 	C 	0.13534 0.53692 0.94801 -0.02500
O 	O 	0.03280 0.00287 0.72688 -0.70400
H 	H 	0.12533 0.92847 0.86783 0.04900
O 	O 	0.14323 0.98525 0.76104 -0.36500
H 	H 	0.03625 0.01821 0.74621 0.15000
C 	C 	0.15317 0.18758 0.74721 0.30300
C 	C 	0.12346 0.11148 0.67084 0.32500
Ni	Ni	0.14556 0.02629 0.72094 1.11400
Ni	Ni	0.99890 0.08336 0.71409 1.11100
O 	O 	0.19248 0.15869 0.73076 -0.36600
O 	O 	0.07342 0.16905 0.74295 -0.36600
O 	O 	0.14750 0.05609 0.67979 -0.36900
O 	O 	0.09791 0.15142 0.68793 -0.37000
C 	C 	0.22015 0.60011 0.37642 0.29700
C 	C 	0.38396 0.53288 0.39063 0.33400
C 	C 	0.40385 0.88028 0.41656 0.29300
C 	C 	0.38062 0.59417 0.47685 0.29800
C 	C 	0.17437 0.62569 0.45736 0.28200
Ni	Ni	0.40207 0.71533 0.39215 1.11300
Ni	Ni	0.36530 0.74262 0.45640 1.12000
Ni	Ni	0.26948 0.54931 0.42951 1.12000
O 	O 	0.29041 0.67553 0.37104 -0.36500
O 	O 	0.22196 0.53578 0.39076 -0.37000
O 	O 	0.39892 0.67516 0.48154 -0.38100
O 	O 	0.50259 0.73510 0.41622 -0.38800
O 	O 	0.49333 0.82296 0.44849 -0.37400
O 	O 	0.16978 0.55597 0.44507 -0.37600
O 	O 	0.39501 0.60133 0.37634 -0.37400
O 	O 	0.36223 0.52524 0.41630 -0.39000
O 	O 	0.24323 0.68111 0.47125 -0.37200
O 	O 	0.42776 0.84665 0.39631 -0.36900
O 	O 	0.34623 0.82888 0.43458 -0.38900
O 	O 	0.30558 0.53738 0.46736 -0.37600
O 	O 	0.33440 0.67304 0.42415 -0.70900
H 	H 	0.28815 0.68434 0.41895 0.14600
C 	C 	0.46823 0.66224 0.02968 0.29400
C 	C 	0.12695 0.64582 0.03347 0.32300
C 	C 	0.28153 0.51980 0.00185 0.31700
C 	C 	0.33486 0.82212 0.06388 0.29900
C 	C 	0.24901 0.69214 0.95485 0.29200
C 	C 	0.45746 0.90323 0.99018 0.27200
Ni	Ni	0.29161 0.64393 0.04335 1.11300
Ni	Ni	0.27623 0.78875 0.00554 1.11900
Ni	Ni	0.39545 0.70914 0.98450 1.11900
O 	O 	0.40005 0.62782 0.04603 -0.37000
O 	O 	0.48276 0.72639 0.01247 -0.38900
O 	O 	0.25835 0.76548 0.96535 -0.37600
O 	O 	0.17598 0.63891 0.05165 -0.37100
O 	O 	0.15798 0.68396 0.00996 -0.38300
O 	O 	0.45792 0.84063 0.97474 -0.36900
O 	O 	0.23602 0.54790 0.01450 -0.38700
O 	O 	0.35230 0.57600 0.98890 -0.37400
O 	O 	0.38507 0.90036 0.99734 -0.37400
O 	O 	0.33917 0.74991 0.06933 -0.36500
O 	O 	0.28000 0.82242 0.04585 -0.37000
O 	O 	0.31355 0.67768 0.95380 -0.37900
O 	O 	0.33399 0.72514 0.01395 -0.70800
H 	H 	0.38381 0.77217 0.02296 0.14500
C 	C 	0.13893 0.09244 0.23452 0.30300
Ni	Ni	0.02908 0.94797 0.19770 1.12600
O 	O 	0.10315 0.05470 0.17392 -0.37400
O 	O 	0.97144 0.83178 0.21876 -0.38400
O 	O 	0.11571 0.01051 0.22728 -0.36900
C 	C 	0.22784 0.28579 0.03540 -0.00600
C 	C 	0.28411 0.28522 0.05483 -0.03100
C 	C 	0.25268 0.23136 0.07800 -0.03300
C 	C 	0.16493 0.17736 0.08174 -0.00100
C 	C 	0.10983 0.16899 0.06061 -0.03200
C 	C 	0.14141 0.22254 0.03733 -0.03000
C 	C 	0.25227 0.36506 0.01982 0.05000
C 	C 	0.26862 0.43474 0.00964 -0.11100
C 	C 	0.13115 0.14415 0.10856 0.05200
C 	C 	0.10354 0.11959 0.13128 -0.09600
H 	H 	0.35110 0.33241 0.05337 0.03900
H 	H 	0.29604 0.23657 0.09394 0.04600
H 	H 	0.09748 0.22076 0.02211 0.04600
C 	C 	0.90349 0.61377 0.06384 0.00300
C 	C 	0.87299 0.56425 0.08797 -0.03700
C 	C 	0.83441 0.58997 0.10798 -0.02900
C 	C 	0.82655 0.66516 0.10379 -0.00600
C 	C 	0.87957 0.67702 0.05761 -0.03900
C 	C 	0.97773 0.61970 0.05077 0.02100
C 	C 	0.04418 0.62952 0.04182 -0.07600
H 	H 	0.88762 0.51232 0.09250 0.04300
H 	H 	0.81984 0.55776 0.12777 0.04300
C 	C 	0.27937 0.20612 0.30185 0.00000
C 	C 	0.23811 0.18455 0.32729 -0.03200
C 	C 	0.27180 0.24317 0.34889 -0.02900
C 	C 	0.34676 0.32358 0.34508 -0.00500
C 	C 	0.39298 0.34015 0.32064 -0.02900
C 	C 	0.35924 0.28159 0.29904 -0.03300
C 	C 	0.23261 0.16235 0.27792 0.04900
C 	C 	0.19110 0.12886 0.25797 -0.09500
C 	C 	0.36433 0.39553 0.36290 0.05600
C 	C 	0.37535 0.45750 0.37643 -0.10900
H 	H 	0.17699 0.12554 0.32980 0.04700
H 	H 	0.23631 0.22905 0.36787 0.04500
H 	H 	0.45178 0.40146 0.31766 0.04400
H 	H 	0.39238 0.29804 0.27958 0.04600
C 	C 	0.02167 0.58451 0.33396 0.01100
C 	C 	0.98485 0.63365 0.34368 -0.04700
C 	C 	0.95332 0.65644 0.29742 0.00000
C 	C 	0.98056 0.59855 0.28811 -0.04700
C 	C 	0.01441 0.56238 0.30637 -0.01800
C 	C 	0.08535 0.57910 0.34998 0.04600
C 	C 	0.14421 0.58335 0.36258 -0.09200
C 	C 	0.94129 0.71212 0.27827 0.04400
H 	H 	0.98065 0.58608 0.26654 0.04600
H 	H 	0.04126 0.52311 0.29871 0.04600
C 	C 	0.45656 0.97457 0.42281 -0.06100
H 	H 	0.56552 0.99354 0.39887 0.04600
C 	C 	0.03565 0.60417 0.44135 0.01800
C 	C 	0.09322 0.62407 0.46279 -0.07200
C 	C 	0.06318 0.61535 0.48967 0.02200
H 	H 	0.05833 0.61426 0.42044 0.03500
H 	H 	0.10696 0.63359 0.50647 0.04200
C 	C 	0.41200 0.50446 0.50952 -0.00500
C 	C 	0.43757 0.56385 0.48752 -0.06100
C 	C 	0.52252 0.60565 0.47861 -0.00700
H 	H 	0.34737 0.47457 0.51725 0.04400
H 	H 	0.54355 0.65385 0.46222 0.04700
C 	C 	0.25001 0.22991 0.54014 -0.00600
C 	C 	0.19107 0.14154 0.54582 -0.03000
C 	C 	0.14937 0.11753 0.57112 -0.03200
C 	C 	0.16510 0.18212 0.59051 -0.00000
C 	C 	0.21282 0.27106 0.58305 -0.03300
C 	C 	0.25455 0.29493 0.55777 -0.03000
C 	C 	0.32247 0.24952 0.52309 0.05000
C 	C 	0.38774 0.26341 0.51201 -0.11200
C 	C 	0.14751 0.15767 0.61886 0.05200
C 	C 	0.13583 0.13702 0.64263 -0.09500
H 	H 	0.18463 0.09073 0.53193 0.04400
H 	H 	0.11025 0.04853 0.57639 0.04700
H 	H 	0.22311 0.32163 0.59759 0.04600
H 	H 	0.29747 0.36362 0.55323 0.04000
C 	C 	0.16695 0.62720 0.94314 -0.04500
C 	C 	0.11705 0.65463 0.92885 -0.02700
H 	H 	0.17463 0.51418 0.95779 0.05500
H 	H 	0.14196 0.72344 0.92366 0.05300
C 	C 	0.53708 0.98746 0.99404 -0.05000
C 	C 	0.59330 0.02956 0.97210 -0.01600
H 	H 	0.58938 0.99352 0.95381 0.05100
C 	C 	0.59060 0.65184 0.00991 -0.00900
C 	C 	0.51593 0.61423 0.02594 -0.06600
H 	H 	0.62298 0.72148 0.00501 0.04200
C 	C 	0.39229 0.41852 0.79574 -0.03200
C 	C 	0.30639 0.36550 0.80293 0.00000
C 	C 	0.28137 0.35766 0.83032 -0.03200
C 	C 	0.24837 0.30551 0.78332 0.04800
C 	C 	0.20286 0.25261 0.76691 -0.09300
H 	H 	0.41211 0.42648 0.77456 0.04600
H 	H 	0.21494 0.31825 0.83606 0.04700
C 	C 	0.82870 0.61335 0.94010 0.30600
C 	C 	0.66460 0.26140 0.98966 0.29500
C 	C 	0.90735 0.46106 0.94053 0.31600
C 	C 	0.60304 0.45100 0.98988 0.27800
C 	C 	0.66093 0.24757 0.90939 0.32600
C 	C 	0.58990 0.42562 0.89873 0.30700
Ni	Ni	0.76999 0.45524 0.97819 1.11200
Ni	Ni	0.59049 0.32286 0.94832 1.12200
Ni	Ni	0.75655 0.44005 0.91179 1.12100
O 	O 	0.80932 0.58576 0.96592 -0.37100
O 	O 	0.84049 0.56557 0.92166 -0.39000
O 	O 	0.61288 0.23177 0.93123 -0.38900
O 	O 	0.74314 0.32730 0.98881 -0.36500
O 	O 	0.60126 0.27571 0.98486 -0.37500
O 	O 	0.67393 0.47547 0.89664 -0.38400
O 	O 	0.88932 0.48085 0.96452 -0.37100
O 	O 	0.84656 0.40974 0.92381 -0.38900
O 	O 	0.55373 0.34920 0.91216 -0.37900
O 	O 	0.66504 0.44126 0.00062 -0.36500
O 	O 	0.55680 0.40081 0.96953 -0.37000
O 	O 	0.68785 0.32088 0.89539 -0.39100
O 	O 	0.70378 0.41921 0.94641 -0.71500
H 	H 	0.68861 0.46608 0.94535 0.14300
C 	C 	0.78361 0.37342 0.55964 0.30000
C 	C 	0.46918 0.27608 0.50362 0.31900
C 	C 	0.61077 0.14591 0.54247 0.33100
C 	C 	0.60870 0.48415 0.51924 0.29300
C 	C 	0.62602 0.22364 0.45733 0.30100
C 	C 	0.83498 0.45733 0.47883 0.27000
Ni	Ni	0.60442 0.31655 0.54309 1.11300
Ni	Ni	0.64475 0.38678 0.47911 1.12000
Ni	Ni	0.73337 0.28197 0.50549 1.12000
O 	O 	0.71652 0.38357 0.56456 -0.36700
O 	O 	0.77756 0.30718 0.54468 -0.37400
O 	O 	0.60729 0.28635 0.45365 -0.38200
O 	O 	0.50288 0.23983 0.51868 -0.38800
O 	O 	0.51721 0.34125 0.48666 -0.37300
O 	O 	0.83650 0.39074 0.49162 -0.37700
O 	O 	0.60575 0.20461 0.55766 -0.37400
O 	O 	0.63538 0.16386 0.51705 -0.39000
O 	O 	0.76730 0.44568 0.46466 -0.37100
O 	O 	0.58464 0.42625 0.53975 -0.37000
O 	O 	0.66689 0.49129 0.50158 -0.39000
O 	O 	0.70056 0.24176 0.46695 -0.38200
O 	O 	0.67246 0.34361 0.51123 -0.70900
H 	H 	0.72003 0.40031 0.51686 0.14700
O 	O 	0.85239 0.88417 0.70569 -0.38300
C 	C 	0.53914 0.80472 0.43134 0.31700
C 	C 	0.88762 0.03885 0.26109 0.29800
C 	C 	0.81775 0.04036 0.18754 0.32000
Ni	Ni	0.84304 0.90613 0.21652 1.12100
O 	O 	0.95806 0.10590 0.25091 -0.37200
O 	O 	0.82656 0.98244 0.24492 -0.37000
O 	O 	0.87715 0.10294 0.20206 -0.37200
O 	O 	0.81260 0.96296 0.18566 -0.38200
C 	C 	0.49904 0.01840 0.11196 -0.00300
C 	C 	0.48574 0.00604 0.14018 -0.03200
C 	C 	0.55499 0.03127 0.15746 -0.03100
C 	C 	0.63766 0.07007 0.14657 -0.00300
C 	C 	0.65140 0.09510 0.11904 -0.03200
C 	C 	0.58211 0.06982 0.10178 -0.03200
C 	C 	0.43478 0.95678 0.09414 0.04800
C 	C 	0.38560 0.89853 0.07978 -0.09800
C 	C 	0.70347 0.06523 0.16163 0.05000
C 	C 	0.75668 0.05615 0.17369 -0.10300
H 	H 	0.42174 0.96883 0.14842 0.04700
H 	H 	0.54381 0.01402 0.17890 0.04400
H 	H 	0.71529 0.12752 0.11055 0.04300
H 	H 	0.59323 0.08210 0.08011 0.04000
C 	C 	0.75737 0.97930 0.39358 -0.00200
C 	C 	0.81006 0.94605 0.38481 -0.03500
C 	C 	0.84963 0.97003 0.35918 -0.02900
C 	C 	0.83813 0.02884 0.34257 -0.00800
C 	C 	0.79626 0.07189 0.35307 -0.03100
C 	C 	0.75672 0.04782 0.37868 -0.03800
C 	C 	0.68590 0.92514 0.41105 0.04700
C 	C 	0.62094 0.87334 0.42249 -0.11200
C 	C 	0.85684 0.03411 0.31386 0.04500
C 	C 	0.87072 0.03658 0.28974 -0.09900
H 	H 	0.81325 0.89496 0.39654 0.04200
H 	H 	0.88419 0.93837 0.35154 0.04000
H 	H 	0.78934 0.11958 0.34069 0.04300
H 	H 	0.71871 0.07628 0.38564 0.04000
C 	C 	0.48270 0.09388 0.45327 -0.00400
C 	C 	0.56923 0.13673 0.44613 -0.06600
C 	C 	0.59854 0.10081 0.42619 -0.00300
C 	C 	0.54212 0.02085 0.41418 -0.01100
C 	C 	0.42659 0.01354 0.44160 -0.01300
H 	H 	0.45903 0.12255 0.46809 0.04700
H 	H 	0.66465 0.13515 0.41982 0.04100
H 	H 	0.36036 0.98008 0.44789 0.04700
C 	C 	0.58079 0.58605 0.49087 -0.01000
C 	C 	0.55448 0.52280 0.51189 -0.06500
C 	C 	0.47051 0.48503 0.52196 -0.00500
H 	H 	0.64584 0.61797 0.48341 0.04300
H 	H 	0.44987 0.43870 0.53884 0.04300
C 	C 	0.69618 0.89306 0.62469 -0.00500
C 	C 	0.72437 0.90199 0.59759 -0.03100
C 	C 	0.68969 0.93223 0.57764 -0.03200
C 	C 	0.62656 0.95328 0.58474 -0.00100
C 	C 	0.59020 0.93218 0.61093 -0.03200
C 	C 	0.62503 0.90215 0.63089 -0.03100
C 	C 	0.75220 0.89848 0.64621 0.05300
C 	C 	0.80290 0.91072 0.66381 -0.10600
C 	C 	0.61548 0.01525 0.56819 0.05000
C 	C 	0.61090 0.07235 0.55564 -0.10700
H 	H 	0.77802 0.89298 0.59243 0.04300
H 	H 	0.71685 0.94625 0.55727 0.04400
H 	H 	0.53987 0.94615 0.61646 0.04500
C 	C 	0.85892 0.42465 0.57503 -0.10000
C 	C 	0.64995 0.12054 0.97289 -0.00300
C 	C 	0.64660 0.17036 0.99476 -0.06800
C 	C 	0.60031 0.12613 0.01822 -0.00300
C 	C 	0.54661 0.03491 0.01798 -0.01800
H 	H 	0.69093 0.15314 0.95552 0.04500
H 	H 	0.59944 0.16322 0.03568 0.03800
H 	H 	0.50644 0.00252 0.03553 0.04100
C 	C 	0.50727 0.47144 0.02175 -0.00700
C 	C 	0.57632 0.50768 0.00356 -0.05900
C 	C 	0.62028 0.59855 0.99862 -0.01500
C 	C 	0.47801 0.52475 0.03332 -0.00500
H 	H 	0.47530 0.40176 0.02647 0.04200
H 	H 	0.67576 0.62749 0.98534 0.04000
H 	H 	0.42299 0.49547 0.04675 0.04400
C 	C 	0.69189 0.06361 0.86905 -0.00800
C 	C 	0.64523 0.02969 0.84524 -0.02900
C 	C 	0.67878 0.00276 0.82406 -0.03800
C 	C 	0.75851 0.00869 0.82681 0.00100
C 	C 	0.80026 0.03257 0.85179 -0.03800
C 	C 	0.76674 0.05965 0.87295 -0.03100
C 	C 	0.67640 0.12236 0.88525 0.05300
C 	C 	0.66733 0.17709 0.89716 -0.10900
C 	C 	0.80153 0.00032 0.80334 0.03800
C 	C 	0.83818 0.99379 0.78375 -0.09400
H 	H 	0.58640 0.03088 0.84228 0.04500
H 	H 	0.64508 0.98208 0.80501 0.04800
H 	H 	0.86095 0.03503 0.85428 0.03900
H 	H 	0.80239 0.08412 0.89153 0.03900
C 	C 	0.42943 0.43748 0.84349 -0.00100
C 	C 	0.45374 0.45445 0.81600 -0.03200
C 	C 	0.34280 0.39397 0.85057 -0.03100
C 	C 	0.49032 0.44327 0.86329 0.04800
C 	C 	0.53819 0.44002 0.87963 -0.09400
H 	H 	0.52047 0.48946 0.81029 0.04400
H 	H 	0.32326 0.38199 0.87179 0.04600
C 	C 	0.93922 0.84918 0.90348 -0.03100
C 	C 	0.92418 0.89135 0.85751 -0.06300
C 	C 	0.89065 0.86242 0.88375 -0.01600
C 	C 	0.89665 0.77519 0.92191 0.05200
C 	C 	0.86304 0.70458 0.93333 -0.10700
H 	H 	0.88373 0.89340 0.84166 0.05100
H 	H 	0.82408 0.84057 0.88771 0.03800
O 	O 	0.83184 0.81343 0.18971 -0.38100
C 	C 	0.07480 0.68641 0.61638 -0.03200
C 	C 	0.06118 0.66635 0.64427 -0.00800
C 	C 	0.02092 0.57820 0.65291 -0.00900
H 	H 	0.10802 0.75435 0.60947 0.04600
H 	H 	0.01220 0.56188 0.67444 0.04400
C 	C 	0.07420 0.91638 0.77117 0.30000
H 	H 	0.02446 0.40851 0.94874 0.03700
C 	C 	0.92878 0.81776 0.24215 0.30400
O 	O 	0.95431 0.89808 0.16532 -0.39700
C 	C 	0.83338 0.71875 0.12678 0.05400
C 	C 	0.84849 0.76794 0.14560 -0.10400
C 	C 	0.87702 0.83098 0.16704 0.33000
H 	H 	0.92860 0.71328 0.33287 0.04100
H 	H 	0.83098 0.75812 0.07369 0.04300
C 	C 	0.86747 0.93446 0.68393 0.33300
C 	C 	0.88168 0.98339 0.76092 0.30600
Ni	Ni	0.94404 0.88389 0.72916 1.11700
O 	O 	0.98686 0.84904 0.69588 -0.40200
O 	O 	0.89216 0.91336 0.76069 -0.38900
O 	O 	0.01739 0.85665 0.75474 -0.36500
Ni	Ni	0.99366 0.11032 0.21041 1.10800
O 	O 	0.01934 0.11750 0.16885 -0.36500
O 	O 	0.86840 0.83970 0.24525 -0.38200
O 	O 	0.96052 0.99004 0.21403 -0.71700
H 	H 	0.97557 0.98816 0.23312 0.14900
H 	H 	0.04198 0.12563 0.06301 0.04800
C 	C 	0.97554 0.57216 0.49503 -0.04000
C 	C 	0.91773 0.53663 0.47356 -0.04200
C 	C 	0.94799 0.55991 0.44670 -0.03600
H 	H 	0.95281 0.55808 0.51593 0.04200
H 	H 	0.90413 0.53609 0.42989 0.05000
H 	H 	0.60134 0.89331 0.65165 0.04500
C 	C 	0.91893 0.47172 0.58879 0.04600
C 	C 	0.99692 0.50588 0.93164 -0.12000
C 	C 	0.05054 0.47649 0.94229 0.03500
H 	H 	0.99452 0.61594 0.91201 0.02400
C 	C 	0.02643 0.88262 0.89846 -0.00300
C 	C 	0.06004 0.91119 0.87221 -0.05000
C 	C 	0.00723 0.90981 0.85125 0.02700
C 	C 	0.03338 0.91374 0.82317 0.04300
C 	C 	0.84075 0.70256 0.07760 -0.02800
H 	H 	0.94559 0.44349 0.64084 0.04500
C 	C 	0.05886 0.84775 0.69527 0.34400
C 	C 	0.98561 0.53203 0.60615 -0.01700
C 	C 	0.05319 0.91490 0.79956 -0.09300
H 	H 	0.06573 0.87628 0.91389 0.03900
H 	H 	0.89922 0.71297 0.03845 0.04400
C 	C 	0.93445 0.76018 0.26198 -0.09600
O 	O 	0.93575 0.01199 0.68189 -0.40300
H 	H 	0.98863 0.64972 0.36507 0.04100
C 	C 	0.95125 0.67009 0.32541 -0.03100
O 	O 	0.89317 0.03198 0.73857 -0.38700
C 	C 	0.03717 0.61923 0.59733 -0.01300
C 	C 	0.98324 0.51104 0.63385 -0.05100
C 	C 	0.06754 0.73259 0.66286 0.06000
C 	C 	0.06664 0.78625 0.67795 -0.10600
H 	H 	0.04154 0.63591 0.57587 0.04200
C 	C 	0.03329 0.59341 0.92219 0.04900
