data_crystal

_cell_length_a 18.45135
_cell_length_b 16.27055
_cell_length_c 42.32232
_cell_angle_alpha 90.81188
_cell_angle_beta  91.16193
_cell_angle_gamma 110.90205

_symmetry_space_group_name_	'P 1'
_symmetry_space_group_name_H-M	'P 1'

loop_
_symmetry_equiv_pos_as_xyz
  x,y,z

loop_
_atom_site_label
_atom_site_type_symbol
_atom_site_fract_x
_atom_site_fract_y
_atom_site_fract_z
_atom_site_charge
Ni	Ni	0.56726 0.22906 0.90594 1.10200
O 	O 	0.59636 0.34025 0.87983 -0.70100
Ni	Ni	0.69344 0.34019 0.85984 1.10400
O 	O 	0.47289 0.25220 0.92343 -0.36000
O 	O 	0.54972 0.38857 0.94207 -0.39900
O 	O 	0.50367 0.17166 0.86662 -0.39400
Ni	Ni	0.62086 0.44758 0.90504 1.07200
O 	O 	0.63335 0.06540 0.91492 -0.41400
O 	O 	0.70216 0.42045 0.93150 -0.41000
O 	O 	0.70962 0.44733 0.83287 -0.36300
O 	O 	0.67051 0.23623 0.88965 -0.70000
O 	O 	0.53252 0.11099 0.92900 -0.37300
O 	O 	0.77975 0.31377 0.83639 -0.34900
O 	O 	0.70381 0.16923 0.82850 -0.39700
Ni	Ni	0.65960 0.12023 0.87194 1.07300
H 	H 	0.55655 0.33726 0.86337 0.16800
H 	H 	0.70862 0.25057 0.90755 0.16200
C 	C 	0.77030 0.43056 0.92071 0.31200
O 	O 	0.54724 0.06080 0.85427 -0.38600
C 	C 	0.48132 0.32534 0.93935 0.29200
C 	C 	0.70779 0.52127 0.84557 0.27900
C 	C 	0.48981 0.09016 0.85801 0.30600
C 	C 	0.77179 0.23342 0.82706 0.27200
C 	C 	0.56707 0.05200 0.92909 0.30400
O 	O 	0.77968 0.41897 0.89049 -0.35900
O 	O 	0.70340 0.52961 0.87667 -0.39800
Ni	Ni	0.64277 0.40583 0.60093 1.10100
O 	O 	0.72922 0.43580 0.56849 -0.70000
Ni	Ni	0.78901 0.36063 0.58259 1.09900
O 	O 	0.59780 0.49354 0.58200 -0.35400
O 	O 	0.71470 0.60595 0.58405 -0.40000
O 	O 	0.57780 0.31639 0.56725 -0.37200
Ni	Ni	0.79966 0.55819 0.57040 1.07100
O 	O 	0.58304 0.26201 0.65827 -0.39600
O 	O 	0.82488 0.55078 0.61702 -0.40600
O 	O 	0.86522 0.38941 0.54649 -0.36600
O 	O 	0.71072 0.34212 0.61788 -0.70100
O 	O 	0.55199 0.36833 0.63163 -0.35900
O 	O 	0.82614 0.26179 0.59699 -0.36300
O 	O 	0.70271 0.16219 0.59716 -0.40200
Ni	Ni	0.64657 0.22062 0.62746 1.07500
H 	H 	0.70858 0.41894 0.54663 0.15800
H 	H 	0.73699 0.37233 0.63766 0.16600
C 	C 	0.87525 0.51551 0.62590 0.29100
O 	O 	0.55728 0.19236 0.59514 -0.38900
C 	C 	0.64357 0.57095 0.57263 0.30500
C 	C 	0.89622 0.47182 0.53752 0.29300
C 	C 	0.56336 0.23147 0.56802 0.29900
C 	C 	0.77806 0.18005 0.59949 0.27100
C 	C 	0.53144 0.29652 0.64881 0.29200
O 	O 	0.87746 0.44445 0.61137 -0.35600
O 	O 	0.89693 0.53675 0.55675 -0.40000
Ni	Ni	0.11406 0.04892 0.74792 1.10000
O 	O 	0.03947 0.02686 0.71024 -0.70700
Ni	Ni	0.94738 0.92844 0.72572 1.10500
O 	O 	0.19760 0.14595 0.72432 -0.35300
O 	O 	0.19304 0.04666 0.68472 -0.38300
O 	O 	0.06169 0.13503 0.76305 -0.36300
Ni	Ni	0.07523 0.98842 0.67200 1.08000
O 	O 	0.12141 0.95389 0.81828 -0.37900
O 	O 	0.08095 0.87608 0.69114 -0.39900
O 	O 	0.87439 0.92895 0.68925 -0.34900
O 	O 	0.03096 0.93468 0.75962 -0.69600
O 	O 	0.18363 0.07424 0.78800 -0.36000
O 	O 	0.85540 0.84333 0.74968 -0.34900
O 	O 	0.89496 0.91847 0.79632 -0.40400
Ni	Ni	0.01155 0.94256 0.80481 1.08500
H 	H 	0.02660 0.07960 0.70595 0.18300
H 	H 	0.05122 0.88669 0.75613 0.16800
C 	C 	0.01852 0.80708 0.69529 0.29000
O 	O 	0.03420 0.07359 0.81114 -0.38300
C 	C 	0.22487 0.12619 0.69774 0.27400
C 	C 	0.90474 0.94946 0.66109 0.27500
C 	C 	0.02009 0.12070 0.78866 0.27900
C 	C 	0.85240 0.84680 0.78064 0.28500
C 	C 	0.18579 0.01137 0.80703 0.28000
O 	O 	0.95456 0.81664 0.70468 -0.35600
O 	O 	0.96512 0.92808 0.65279 -0.38400
Ni	Ni	0.39920 0.79341 0.41641 1.10100
O 	O 	0.35134 0.67236 0.39499 -0.70400
Ni	Ni	0.25898 0.68389 0.37292 1.10400
O 	O 	0.48572 0.75890 0.43704 -0.36100
O 	O 	0.39452 0.64163 0.45951 -0.40200
O 	O 	0.45903 0.82545 0.37578 -0.39000
Ni	Ni	0.31623 0.57523 0.42361 1.07300
O 	O 	0.35799 0.97928 0.42253 -0.40300
O 	O 	0.24312 0.62438 0.44564 -0.41100
O 	O 	0.22697 0.56742 0.34880 -0.35900
O 	O 	0.29774 0.79717 0.40027 -0.70300
O 	O 	0.45141 0.91928 0.43386 -0.37700
O 	O 	0.18120 0.71874 0.34598 -0.35000
O 	O 	0.26806 0.85689 0.33764 -0.39600
Ni	Ni	0.32061 0.91179 0.38073 1.07400
H 	H 	0.38615 0.66125 0.37934 0.17000
H 	H 	0.26364 0.79297 0.41840 0.16100
C 	C 	0.17564 0.61522 0.43308 0.31300
O 	O 	0.43206 0.94944 0.36406 -0.37900
C 	C 	0.46765 0.68935 0.45501 0.29000
C 	C 	0.22754 0.49607 0.36318 0.27700
C 	C 	0.47552 0.90040 0.36126 0.30100
C 	C 	0.19630 0.79944 0.33634 0.27300
C 	C 	0.41316 0.97110 0.44141 0.30700
O 	O 	0.16786 0.62551 0.40263 -0.35700
O 	O 	0.22908 0.49359 0.39455 -0.39700
Ni	Ni	0.33914 0.61750 0.08394 1.10400
O 	O 	0.24849 0.59436 0.05234 -0.70100
Ni	Ni	0.18371 0.65265 0.07433 1.10200
O 	O 	0.37368 0.51811 0.06753 -0.36000
O 	O 	0.24992 0.42200 0.06775 -0.41400
O 	O 	0.41324 0.70140 0.05225 -0.36100
Ni	Ni	0.18287 0.47417 0.04094 1.07600
O 	O 	0.45279 0.79846 0.10688 -0.39100
O 	O 	0.09448 0.44386 0.07263 -0.38800
O 	O 	0.08266 0.60647 0.04681 -0.36200
O 	O 	0.28192 0.68944 0.10278 -0.69900
O 	O 	0.42765 0.65220 0.11626 -0.36500
O 	O 	0.14327 0.73751 0.09856 -0.35100
O 	O 	0.25478 0.85357 0.08975 -0.39100
Ni	Ni	0.34739 0.81250 0.09937 1.07700
H 	H 	0.26680 0.62580 0.03254 0.16300
H 	H 	0.27050 0.67444 0.12516 0.17400
C 	C 	0.10118 0.47568 0.10173 0.29600
O 	O 	0.35239 0.80092 0.05192 -0.41300
C 	C 	0.32233 0.44022 0.06007 0.30600
C 	C 	0.07410 0.55958 0.02009 0.31300
C 	C 	0.39984 0.76779 0.03914 0.30700
C 	C 	0.18790 0.82062 0.10377 0.27500
C 	C 	0.46453 0.73592 0.12377 0.28200
O 	O 	0.13613 0.56032 0.10772 -0.37500
O 	O 	0.12600 0.52643 0.01096 -0.41400
Ni	Ni	0.85792 0.96881 0.24239 1.10200
O 	O 	0.93804 0.99503 0.20831 -0.70100
Ni	Ni	0.02511 0.09360 0.22902 1.10400
O 	O 	0.78324 0.87015 0.21456 -0.35600
O 	O 	0.78948 0.96878 0.17564 -0.38500
O 	O 	0.91273 0.88748 0.25955 -0.36500
Ni	Ni	0.90822 0.03099 0.16818 1.07900
O 	O 	0.83078 0.05726 0.31173 -0.39200
O 	O 	0.90111 0.14477 0.18601 -0.40200
O 	O 	0.10480 0.09521 0.19642 -0.35000
O 	O 	0.93503 0.08466 0.25844 -0.69900
O 	O 	0.78081 0.93519 0.27845 -0.36300
O 	O 	0.11165 0.17727 0.25822 -0.34800
O 	O 	0.06224 0.10168 0.30227 -0.40800
Ni	Ni	0.94454 0.07616 0.30450 1.08000
H 	H 	0.95305 0.94339 0.20435 0.17800
H 	H 	0.91309 0.13027 0.25328 0.17200
C 	C 	0.96431 0.21344 0.19125 0.29500
O 	O 	0.92501 0.94591 0.30909 -0.38200
C 	C 	0.75807 0.88906 0.18726 0.27400
C 	C 	0.07894 0.07181 0.16700 0.27400
C 	C 	0.94714 0.90185 0.28762 0.28600
C 	C 	0.10701 0.17382 0.28913 0.28700
C 	C 	0.77089 0.99075 0.29958 0.29000
O 	O 	0.02090 0.20677 0.20917 -0.35500
O 	O 	0.02112 0.09376 0.15540 -0.38500
C 	C 	0.05515 0.41894 0.12706 -0.05800
C 	C 	0.98007 0.35630 0.12020 0.00400
C 	C 	0.94289 0.29270 0.14279 0.00100
C 	C 	0.97900 0.29543 0.17285 -0.06200
C 	C 	0.04280 0.37147 0.18179 0.01100
C 	C 	0.08550 0.42789 0.15843 0.00300
C 	C 	0.93941 0.36032 0.09090 0.09900
C 	C 	0.06348 0.39225 0.21495 0.10300
C 	C 	0.16233 0.49075 0.16629 0.09300
C 	C 	0.86598 0.22900 0.13578 0.08300
N 	N 	0.22367 0.54074 0.17265 -0.11700
N 	N 	0.80455 0.17825 0.13011 -0.11000
N 	N 	0.07999 0.40880 0.24142 -0.09800
N 	N 	0.90695 0.36357 0.06753 -0.10400
C 	C 	0.68040 0.83328 0.17543 -0.05400
C 	C 	0.61411 0.84435 0.18800 0.00700
C 	C 	0.54145 0.80534 0.17243 0.00200
C 	C 	0.53594 0.75960 0.14347 -0.05800
C 	C 	0.60095 0.74255 0.13230 0.01000
C 	C 	0.67260 0.77714 0.14896 0.00100
C 	C 	0.62132 0.89883 0.21617 0.09300
C 	C 	0.59478 0.69230 0.10313 0.10400
C 	C 	0.73805 0.75450 0.13909 0.08700
C 	C 	0.47224 0.81142 0.18630 0.07600
N 	N 	0.79016 0.73614 0.13123 -0.10200
N 	N 	0.41701 0.81609 0.19741 -0.10700
N 	N 	0.58983 0.65224 0.07985 -0.09700
N 	N 	0.62689 0.94248 0.23857 -0.10900
C 	C 	0.15756 0.88152 0.12079 -0.06100
C 	C 	0.20734 0.94651 0.14175 0.00700
C 	C 	0.18485 0.01521 0.15321 0.00500
C 	C 	0.10752 0.01095 0.14862 -0.07000
C 	C 	0.05591 0.94287 0.12884 0.00200
C 	C 	0.08243 0.88151 0.11366 0.00700
C 	C 	0.28124 0.94180 0.15200 0.06700
C 	C 	0.97561 0.93506 0.12413 0.05300
C 	C 	0.03323 0.82066 0.08992 0.09900
C 	C 	0.24226 0.09215 0.16838 0.10300
N 	N 	0.99393 0.77219 0.07099 -0.09600
N 	N 	0.28813 0.15350 0.18047 -0.09600
N 	N 	0.91153 0.92853 0.12013 -0.15900
N 	N 	0.34024 0.93816 0.16016 -0.13000
C 	C 	0.54393 0.92843 0.34035 -0.05600
C 	C 	0.59698 0.01641 0.34103 0.00200
C 	C 	0.66820 0.03785 0.32528 -0.00300
C 	C 	0.69236 0.96977 0.31359 -0.04700
C 	C 	0.63979 0.88150 0.31432 0.00400
C 	C 	0.56302 0.86381 0.32354 0.00800
C 	C 	0.57987 0.08427 0.35852 0.09900
C 	C 	0.66596 0.80866 0.30850 0.10800
C 	C 	0.50339 0.77976 0.31517 0.09200
C 	C 	0.71416 0.12930 0.31989 0.09600
N 	N 	0.45579 0.71269 0.30849 -0.11300
N 	N 	0.75071 0.20234 0.31560 -0.10200
N 	N 	0.68672 0.75041 0.30389 -0.09400
N 	N 	0.56632 0.13850 0.37250 -0.10500
C 	C 	0.19689 0.41200 0.34537 -0.05600
C 	C 	0.24736 0.36995 0.33507 -0.00500
C 	C 	0.21784 0.29140 0.31673 0.01300
C 	C 	0.13814 0.25595 0.30828 -0.08000
C 	C 	0.08807 0.29914 0.31831 0.00600
C 	C 	0.11705 0.37522 0.33770 0.00500
C 	C 	0.32954 0.40776 0.34320 0.07100
C 	C 	0.00744 0.26773 0.30776 0.02700
C 	C 	0.06455 0.41584 0.34992 0.10400
C 	C 	0.26930 0.24704 0.30658 0.08900
N 	N 	0.02278 0.44827 0.35967 -0.09600
N 	N 	0.31032 0.21160 0.29847 -0.10200
N 	N 	0.94289 0.24436 0.29965 -0.13800
N 	N 	0.39511 0.43800 0.34970 -0.11800
C 	C 	0.13180 0.82421 0.32316 -0.06700
C 	C 	0.13456 0.85509 0.29206 0.00500
C 	C 	0.07000 0.87078 0.27863 0.00100
C 	C 	0.00331 0.85857 0.29672 -0.06500
C 	C 	0.99805 0.81957 0.32657 0.01000
C 	C 	0.06339 0.80704 0.34047 -0.00200
C 	C 	0.20310 0.86892 0.27353 0.09700
C 	C 	0.92463 0.78972 0.34252 0.10100
C 	C 	0.06104 0.77913 0.37297 0.07900
C 	C 	0.07086 0.89357 0.24570 0.07300
N 	N 	0.05919 0.75687 0.39889 -0.11200
N 	N 	0.07314 0.91092 0.21925 -0.12600
N 	N 	0.86602 0.76590 0.35524 -0.10000
N 	N 	0.25771 0.87995 0.25873 -0.09800
C 	C 	0.44133 0.03085 0.46794 -0.08900
C 	C 	0.46749 0.07906 0.49056 0.04500
C 	C 	0.50012 0.13354 0.51734 0.04100
C 	C 	0.52886 0.17876 0.54038 -0.08200
C 	C 	0.10826 0.58017 0.45190 -0.08600
C 	C 	0.05505 0.55007 0.46942 0.04600
C 	C 	0.99648 0.51678 0.49169 0.04300
C 	C 	0.94925 0.49262 0.51203 -0.08300
C 	C 	0.52333 0.68214 0.47763 -0.08300
C 	C 	0.56092 0.66709 0.49875 0.03500
C 	C 	0.59535 0.64040 0.52462 0.04600
C 	C 	0.61908 0.61131 0.54683 -0.10800
C 	C 	0.87287 0.99920 0.63911 -0.06400
C 	C 	0.79268 0.96846 0.63122 0.01100
C 	C 	0.76065 0.02330 0.61477 -0.01300
C 	C 	0.80971 0.10837 0.60575 -0.06000
C 	C 	0.89077 0.12896 0.60766 0.00300
C 	C 	0.92180 0.08055 0.62747 -0.00200
C 	C 	0.74347 0.88037 0.63960 0.09700
C 	C 	0.94163 0.19469 0.58742 0.10200
C 	C 	0.00146 0.11976 0.63889 0.05300
C 	C 	0.67960 0.98894 0.60472 0.09200
N 	N 	0.06493 0.15202 0.64815 -0.14400
N 	N 	0.61486 0.96126 0.59670 -0.10700
N 	N 	0.98230 0.24712 0.57126 -0.09800
N 	N 	0.70421 0.81006 0.64628 -0.09600
C 	C 	0.45224 0.26352 0.66195 -0.05700
C 	C 	0.38661 0.23776 0.64128 0.00500
C 	C 	0.31179 0.19616 0.65312 0.00200
C 	C 	0.30129 0.18534 0.68606 -0.05100
C 	C 	0.36648 0.22043 0.70705 0.00400
C 	C 	0.44192 0.25791 0.69494 0.00500
C 	C 	0.39578 0.25384 0.60770 0.09900
C 	C 	0.35639 0.21851 0.74095 0.10000
C 	C 	0.50852 0.29273 0.71648 0.09700
C 	C 	0.24609 0.16116 0.63116 0.08200
N 	N 	0.56162 0.32049 0.73367 -0.10400
N 	N 	0.19438 0.13300 0.61332 -0.12100
N 	N 	0.34871 0.21747 0.76803 -0.10000
N 	N 	0.40246 0.26670 0.58090 -0.09800
C 	C 	0.01503 0.71882 0.68401 -0.06500
C 	C 	0.96499 0.64333 0.69880 0.01200
C 	C 	0.92395 0.56752 0.68039 0.00400
C 	C 	0.93873 0.56549 0.64802 -0.05800
C 	C 	0.00555 0.62981 0.63621 -0.00200
C 	C 	0.04273 0.70839 0.65387 0.00500
C 	C 	0.95908 0.64218 0.73277 0.09200
C 	C 	0.03634 0.61455 0.60641 0.09600
C 	C 	0.10832 0.77768 0.64108 0.08300
C 	C 	0.86492 0.49334 0.69434 0.08600
N 	N 	0.16071 0.83296 0.63082 -0.11200
N 	N 	0.81777 0.43407 0.70546 -0.11200
N 	N 	0.06147 0.60255 0.58268 -0.09800
N 	N 	0.95424 0.63990 0.75995 -0.10300
C 	C 	0.00658 0.54289 0.00042 -0.08300
C 	C 	0.95200 0.52216 0.98223 0.04800
C 	C 	0.88984 0.49241 0.96018 0.04900
C 	C 	0.83629 0.46444 0.94160 -0.08700
C 	C 	0.53940 0.98000 0.95035 -0.07700
C 	C 	0.51328 0.92243 0.96912 0.04000
C 	C 	0.47863 0.85999 0.99234 0.04400
C 	C 	0.44497 0.81306 0.01324 -0.08900
C 	C 	0.42641 0.32430 0.96287 -0.08000
C 	C 	0.39015 0.33523 0.98482 0.03200
C 	C 	0.35850 0.36079 0.01158 0.04700
C 	C 	0.33892 0.39237 0.03427 -0.12000
C 	C 	0.84027 0.21512 0.81536 -0.06700
C 	C 	0.83883 0.17993 0.78461 0.00400
C 	C 	0.90240 0.15854 0.77412 -0.00200
C 	C 	0.96671 0.16968 0.79478 -0.06100
C 	C 	0.97170 0.21421 0.82412 0.00300
C 	C 	0.90782 0.23458 0.83480 -0.00200
C 	C 	0.77257 0.16721 0.76349 0.09500
C 	C 	0.04312 0.24062 0.84299 0.10000
C 	C 	0.91073 0.27295 0.86618 0.07700
C 	C 	0.90255 0.12905 0.74174 0.06800
N 	N 	0.91301 0.30358 0.89120 -0.11100
N 	N 	0.90118 0.10629 0.71566 -0.13100
N 	N 	0.10013 0.26168 0.85805 -0.10300
N 	N 	0.71974 0.15710 0.74665 -0.10600
C 	C 	0.41151 0.03873 0.84497 -0.06600
C 	C 	0.34801 0.01858 0.86516 0.00700
C 	C 	0.27472 0.01316 0.85309 0.00500
C 	C 	0.26188 0.01379 0.82008 -0.05400
C 	C 	0.32195 0.01594 0.79954 0.00200
C 	C 	0.39764 0.03230 0.81193 0.00900
C 	C 	0.35836 0.00467 0.89843 0.08500
C 	C 	0.30542 0.99859 0.76595 0.08000
C 	C 	0.46152 0.04614 0.79076 0.09300
C 	C 	0.21437 0.01219 0.87469 0.10000
N 	N 	0.51253 0.05730 0.77386 -0.10100
N 	N 	0.16628 0.01147 0.89194 -0.10900
N 	N 	0.29223 0.98461 0.73915 -0.11200
N 	N 	0.36588 0.99315 0.92502 -0.09700
C 	C 	0.81478 0.76452 0.79791 -0.07900
C 	C 	0.73307 0.72438 0.79743 0.01300
C 	C 	0.69759 0.64332 0.81247 -0.00500
C 	C 	0.74382 0.60264 0.82797 -0.05400
C 	C 	0.82521 0.64252 0.82833 0.00500
C 	C 	0.86066 0.72320 0.81346 0.00900
C 	C 	0.68565 0.76682 0.78175 0.09000
C 	C 	0.87282 0.60001 0.84398 0.10700
C 	C 	0.94443 0.76074 0.81289 0.02700
C 	C 	0.61375 0.60174 0.81190 0.07600
N 	N 	0.01145 0.78815 0.81261 -0.15200
N 	N 	0.54684 0.56851 0.81146 -0.11400
N 	N 	0.91089 0.56627 0.85640 -0.09400
N 	N 	0.64783 0.80071 0.76923 -0.10000
