data_crystal

_cell_length_a 18.62442
_cell_length_b 19.00990
_cell_length_c 35.03331
_cell_angle_alpha 95.44187
_cell_angle_beta  95.44221
_cell_angle_gamma 126.41688

_symmetry_space_group_name_	'P 1'
_symmetry_space_group_name_H-M	'P 1'

loop_
_symmetry_equiv_pos_as_xyz
  x,y,z

loop_
_atom_site_label
_atom_site_type_symbol
_atom_site_fract_x
_atom_site_fract_y
_atom_site_fract_z
_atom_site_charge
C 	C 	0.87889 0.95755 0.95915 0.03400
C 	C 	0.83090 0.86636 0.96049 -0.06100
C 	C 	0.87727 0.82880 0.96191 0.04000
C 	C 	0.97098 0.88268 0.96287 -0.06400
C 	C 	0.01816 0.97265 0.96080 0.03600
C 	C 	0.97191 0.00959 0.95819 -0.05900
H 	H 	0.75879 0.82550 0.96091 0.06100
H 	H 	0.00705 0.85427 0.96477 0.06100
H 	H 	0.00893 0.07963 0.95697 0.06100
C 	C 	0.98280 0.08381 0.50393 0.04200
C 	C 	0.92596 0.99160 0.50240 -0.06900
C 	C 	0.96184 0.94452 0.50091 0.04200
C 	C 	0.05450 0.98949 0.50129 -0.07000
C 	C 	0.11236 0.08203 0.50463 0.04300
C 	C 	0.07653 0.12946 0.50589 -0.06600
H 	H 	0.85375 0.95639 0.50146 0.06100
H 	H 	0.08196 0.95268 0.49979 0.06100
H 	H 	0.12088 0.20095 0.50760 0.06100
Cu	Cu	0.73027 0.30390 0.95387 0.92900
Cu	Cu	0.73195 0.24764 0.03937 0.87800
Cu	Cu	0.58830 0.25700 0.00491 0.89500
Cu	Cu	0.55682 0.29076 0.92516 0.90000
C 	C 	0.65968 0.26620 0.87140 0.29700
O 	O 	0.78034 0.43236 0.95079 -0.34900
C 	C 	0.65494 0.29797 0.09079 0.29300
O 	O 	0.58904 0.22841 0.95097 -0.63600
O 	O 	0.72223 0.32268 0.00942 -0.64400
O 	O 	0.79304 0.24702 0.95877 -0.35500
O 	O 	0.69972 0.15735 0.99763 -0.42300
O 	O 	0.61727 0.30052 0.87960 -0.37400
O 	O 	0.45743 0.18551 0.99690 -0.36700
C 	C 	0.40565 0.18468 0.96805 0.29600
C 	C 	0.73786 0.46458 0.96191 0.28600
O 	O 	0.65478 0.41045 0.96803 -0.38100
O 	O 	0.44066 0.24146 0.94393 -0.38100
O 	O 	0.71472 0.26767 0.89885 -0.35200
C 	C 	0.75645 0.17463 0.97401 0.28900
O 	O 	0.58664 0.26752 0.06171 -0.37300
O 	O 	0.72959 0.30968 0.08443 -0.40700
H 	H 	0.55137 0.16384 0.94022 0.17300
H 	H 	0.75848 0.38562 0.02275 0.18200
Cu	Cu	0.65645 0.25532 0.51063 0.92900
Cu	Cu	0.70823 0.25235 0.42385 0.88000
Cu	Cu	0.69674 0.39192 0.45891 0.90100
Cu	Cu	0.67152 0.42670 0.54201 0.90100
C 	C 	0.67746 0.31300 0.59263 0.29000
O 	O 	0.52567 0.19793 0.51436 -0.36000
C 	C 	0.64858 0.32388 0.37334 0.29400
O 	O 	0.72966 0.39358 0.51257 -0.63600
O 	O 	0.63296 0.26130 0.45502 -0.63900
O 	O 	0.71505 0.19566 0.50553 -0.36200
O 	O 	0.80234 0.28419 0.46479 -0.42800
O 	O 	0.70113 0.39273 0.58967 -0.37100
O 	O 	0.76675 0.51975 0.46655 -0.37200
C 	C 	0.76123 0.56728 0.49440 0.29500
C 	C 	0.49044 0.24001 0.51026 0.28800
O 	O 	0.54102 0.32248 0.50506 -0.38000
O 	O 	0.70119 0.52888 0.51727 -0.38100
O 	O 	0.69069 0.26957 0.56596 -0.35100
C 	C 	0.78630 0.22952 0.48875 0.29400
O 	O 	0.68321 0.39207 0.40223 -0.37400
O 	O 	0.64184 0.25282 0.37911 -0.40700
H 	H 	0.79612 0.43017 0.52190 0.17400
H 	H 	0.56800 0.22477 0.44259 0.18200
C 	C 	0.62627 0.29690 0.69526 -0.06900
C 	C 	0.66311 0.25543 0.70857 0.01600
C 	C 	0.69631 0.22471 0.68261 -0.00200
C 	C 	0.69761 0.24080 0.64438 -0.00000
C 	C 	0.66494 0.28656 0.63148 -0.07600
C 	C 	0.62527 0.31117 0.65683 0.06100
C 	C 	0.66907 0.24725 0.75015 0.01600
S 	S 	0.73713 0.16677 0.69773 -0.01300
H 	H 	0.72568 0.21922 0.62496 0.06100
S 	S 	0.57109 0.35671 0.64066 -0.04600
H 	H 	0.59843 0.31832 0.71495 0.06000
C 	C 	0.74811 0.31336 0.77785 -0.00300
C 	C 	0.74678 0.31399 0.81777 0.00600
C 	C 	0.66658 0.25079 0.83041 -0.07800
C 	C 	0.58955 0.18125 0.80276 0.05500
C 	C 	0.59132 0.17958 0.76282 -0.06600
S 	S 	0.84753 0.39827 0.76297 -0.01900
H 	H 	0.80664 0.36676 0.83900 0.05300
S 	S 	0.49008 0.09698 0.81780 -0.03500
H 	H 	0.53098 0.12772 0.74157 0.06100
H 	H 	0.47878 0.29279 0.63276 0.04700
H 	H 	0.84361 0.46688 0.75869 0.04600
H 	H 	0.43521 0.12227 0.82041 0.04300
H 	H 	0.82810 0.22632 0.71314 0.04600
C 	C 	0.54627 0.26771 0.26653 -0.06800
C 	C 	0.62213 0.33364 0.25225 0.01500
C 	C 	0.70049 0.40515 0.27875 -0.00500
C 	C 	0.70529 0.40545 0.31890 -0.00100
C 	C 	0.63312 0.33429 0.33288 -0.08500
C 	C 	0.55149 0.26737 0.30666 0.05700
C 	C 	0.62436 0.31973 0.21021 0.01500
S 	S 	0.79489 0.49189 0.26188 -0.02400
H 	H 	0.76727 0.45841 0.33906 0.04500
S 	S 	0.45554 0.18313 0.32368 -0.02500
H 	H 	0.48489 0.21410 0.24626 0.05900
C 	C 	0.64979 0.26741 0.19554 -0.00600
C 	C 	0.65752 0.25951 0.15634 -0.00100
C 	C 	0.64146 0.30432 0.13146 -0.08700
C 	C 	0.61567 0.35655 0.14607 0.05800
C 	C 	0.60594 0.36281 0.18520 -0.06800
S 	S 	0.67465 0.21348 0.22627 -0.03000
H 	H 	0.67694 0.21902 0.14521 0.03500
S 	S 	0.60125 0.41890 0.11661 -0.01900
H 	H 	0.58688 0.40350 0.19651 0.06000
H 	H 	0.45763 0.11248 0.32470 0.04300
H 	H 	0.76409 0.27112 0.24434 0.03800
H 	H 	0.68132 0.50306 0.12196 0.04700
H 	H 	0.84913 0.46793 0.25407 0.03700
C 	C 	0.90267 0.84763 0.49986 0.00900
C 	C 	0.90567 0.81479 0.53389 -0.03700
C 	C 	0.86367 0.72356 0.53156 0.01900
C 	C 	0.81175 0.66375 0.49578 -0.07900
C 	C 	0.80343 0.69600 0.46220 0.02100
C 	C 	0.85057 0.78813 0.46409 -0.03700
C 	C 	0.95120 0.87497 0.57138 0.09700
C 	C 	0.74479 0.63439 0.42605 0.08800
C 	C 	0.84626 0.82190 0.42920 0.09500
C 	C 	0.87588 0.69143 0.56569 0.07100
N 	N 	0.84284 0.84885 0.40136 -0.10600
N 	N 	0.88560 0.66578 0.59290 -0.11400
N 	N 	0.69806 0.58528 0.39720 -0.10200
N 	N 	0.98737 0.92294 0.60129 -0.10400
C 	C 	0.84119 0.19689 0.49260 -0.08500
C 	C 	0.84783 0.15500 0.45905 0.02100
C 	C 	0.90114 0.12513 0.46260 -0.03800
C 	C 	0.94245 0.13097 0.49984 0.01100
C 	C 	0.93735 0.17417 0.53331 -0.03800
C 	C 	0.88808 0.20857 0.52963 0.02300
C 	C 	0.79712 0.13963 0.42110 0.05300
C 	C 	0.98213 0.18249 0.57151 0.09600
C 	C 	0.88743 0.25774 0.56371 0.08300
C 	C 	0.91348 0.08815 0.42793 0.09800
N 	N 	0.88708 0.29710 0.59090 -0.10600
N 	N 	0.92344 0.05872 0.40030 -0.10300
N 	N 	0.01790 0.18905 0.60197 -0.10700
N 	N 	0.75667 0.12731 0.39082 -0.13600
C 	C 	0.21105 0.12889 0.50692 0.00900
C 	C 	0.25049 0.15908 0.47392 -0.03700
C 	C 	0.34093 0.19114 0.47402 0.02000
C 	C 	0.39152 0.19159 0.50689 -0.08100
C 	C 	0.34976 0.15559 0.53862 0.01500
C 	C 	0.26235 0.13069 0.53988 -0.03700
C 	C 	0.19754 0.15585 0.43968 0.09500
C 	C 	0.39481 0.14011 0.56895 0.07800
C 	C 	0.22563 0.10835 0.57529 0.09400
C 	C 	0.38103 0.22094 0.43987 0.07700
N 	N 	0.19644 0.09067 0.60358 -0.10400
N 	N 	0.41310 0.24481 0.41267 -0.11400
N 	N 	0.43047 0.12726 0.59305 -0.10800
N 	N 	0.15523 0.15324 0.41238 -0.10600
C 	C 	0.77790 0.55938 0.96210 -0.07800
C 	C 	0.79828 0.61567 0.99738 0.02500
C 	C 	0.82204 0.70135 0.99696 -0.02900
C 	C 	0.82804 0.73206 0.96140 0.00800
C 	C 	0.80504 0.67483 0.92606 -0.03600
C 	C 	0.78218 0.58954 0.92644 0.01600
C 	C 	0.79700 0.58624 0.03419 0.06400
C 	C 	0.80626 0.70443 0.88928 0.09700
C 	C 	0.76354 0.53314 0.89013 0.08000
C 	C 	0.84168 0.75852 0.03317 0.08400
N 	N 	0.74890 0.48852 0.86108 -0.10500
N 	N 	0.85740 0.80424 0.06204 -0.10600
N 	N 	0.80729 0.72818 0.85999 -0.10400
N 	N 	0.79608 0.56271 0.06354 -0.11600
C 	C 	0.83474 0.00167 0.96300 0.02200
C 	C 	0.79813 0.01373 0.92930 -0.03800
C 	C 	0.77477 0.07236 0.93263 0.02000
C 	C 	0.78937 0.12010 0.96967 -0.07300
C 	C 	0.82608 0.10780 0.00330 0.01200
C 	C 	0.84458 0.04570 0.00008 -0.04600
C 	C 	0.78489 0.96611 0.89124 0.09500
C 	C 	0.84764 0.16122 0.04109 0.05200
C 	C 	0.87449 0.02746 0.03495 0.09700
C 	C 	0.73480 0.08261 0.89808 0.08600
N 	N 	0.89826 0.01277 0.06275 -0.10500
N 	N 	0.70288 0.09075 0.87050 -0.10200
N 	N 	0.86487 0.20382 0.07125 -0.13600
N 	N 	0.77438 0.92805 0.86088 -0.10600
C 	C 	0.30668 0.12941 0.96663 -0.07800
C 	C 	0.24652 0.06756 0.93237 0.01800
C 	C 	0.15211 0.01951 0.92980 -0.03400
C 	C 	0.11741 0.02907 0.96232 0.01100
C 	C 	0.17741 0.08926 0.99694 -0.03000
C 	C 	0.27196 0.14102 0.99877 0.02900
C 	C 	0.28177 0.05164 0.90020 0.07300
C 	C 	0.14173 0.09696 0.03084 0.08600
C 	C 	0.33342 0.20763 0.03333 0.07800
C 	C 	0.09053 0.96054 0.89364 0.09300
N 	N 	0.38234 0.26072 0.06092 -0.10300
N 	N 	0.04131 0.91347 0.86482 -0.10500
N 	N 	0.11329 0.10310 0.05788 -0.10400
N 	N 	0.30985 0.03885 0.87454 -0.11700
