data_crystal

_cell_length_a 30.84889
_cell_length_b 31.00035
_cell_length_c 30.77453
_cell_angle_alpha 95.54797
_cell_angle_beta  95.52274
_cell_angle_gamma 125.53525

_symmetry_space_group_name_	'P 1'
_symmetry_space_group_name_H-M	'P 1'

loop_
_symmetry_equiv_pos_as_xyz
  x,y,z

loop_
_atom_site_label
_atom_site_type_symbol
_atom_site_fract_x
_atom_site_fract_y
_atom_site_fract_z
_atom_site_charge
C 	C 	0.03032 0.97617 0.98825 -0.08900
C 	C 	0.06088 0.03145 0.98719 0.04000
C 	C 	0.03687 0.05832 0.99075 -0.09100
H 	H 	0.04878 0.95530 0.98530 0.05200
H 	H 	0.06042 0.10108 0.98990 0.05200
C 	C 	0.99513 0.02850 0.44328 -0.07100
C 	C 	0.02146 0.00423 0.44918 0.02500
H 	H 	0.01782 0.06984 0.43807 0.04800
H 	H 	0.01247 0.93206 0.46064 0.04800
C 	C 	0.07991 0.03481 0.44841 -0.00200
C 	C 	0.09919 0.05191 0.40940 -0.03700
C 	C 	0.11636 0.04605 0.48647 -0.03700
H 	H 	0.07133 0.04325 0.37981 0.03700
H 	H 	0.10188 0.03323 0.51680 0.03700
C 	C 	0.11812 0.06109 0.98264 -0.01200
C 	C 	0.15642 0.06824 0.01690 -0.03000
C 	C 	0.13365 0.07825 0.94267 -0.03400
H 	H 	0.14481 0.05529 0.04793 0.03800
H 	H 	0.10430 0.07281 0.91601 0.03600
C 	C 	0.15443 0.07969 0.40838 -0.04200
C 	C 	0.19081 0.09060 0.44637 0.00600
C 	C 	0.17156 0.07382 0.48546 -0.04200
H 	H 	0.16890 0.09240 0.37803 0.03900
H 	H 	0.19940 0.08239 0.51503 0.03900
C 	C 	0.20942 0.09091 0.01080 -0.03900
C 	C 	0.18671 0.10092 0.93654 -0.04300
H 	H 	0.19813 0.11316 0.90528 0.03900
C 	C 	0.22456 0.10658 0.97035 0.00300
H 	H 	0.23856 0.09575 0.03729 0.04000
C 	C 	0.99225 0.95102 0.45647 -0.07000
C 	C 	0.98250 0.02991 0.99559 0.05700
C 	C 	0.95212 0.97466 0.99669 -0.09600
C 	C 	0.97604 0.94781 0.99296 0.05500
H 	H 	0.91000 0.95263 0.00028 0.06100
C 	C 	0.93976 0.99980 0.44487 0.03000
C 	C 	0.93693 0.92214 0.45822 0.02900
C 	C 	0.91066 0.94654 0.45233 -0.07500
H 	H 	0.86791 0.92433 0.45373 0.04900
Cu	Cu	0.64970 0.25209 0.99649 0.92600
Cu	Cu	0.70100 0.25903 0.90640 0.87000
Cu	Cu	0.68812 0.34269 0.94329 0.89600
Cu	Cu	0.64699 0.35045 0.02599 0.89500
C 	C 	0.65858 0.28889 0.08840 0.28100
O 	O 	0.56965 0.21918 0.99011 -0.36600
C 	C 	0.67941 0.31170 0.84685 0.28400
O 	O 	0.69352 0.33650 0.00441 -0.63800
O 	O 	0.64939 0.26269 0.93407 -0.64100
O 	O 	0.68378 0.21370 0.99570 -0.37600
O 	O 	0.74804 0.27173 0.95851 -0.44400
O 	O 	0.63335 0.30963 0.07557 -0.38100
O 	O 	0.72893 0.42035 0.95694 -0.38300
C 	C 	0.71958 0.44730 0.98566 0.28300
C 	C 	0.54980 0.24287 0.97303 0.30200
O 	O 	0.58246 0.29388 0.97011 -0.39600
O 	O 	0.67995 0.42235 0.00843 -0.39100
O 	O 	0.66114 0.25621 0.05962 -0.35700
C 	C 	0.73128 0.23555 0.98411 0.29000
O 	O 	0.69657 0.35063 0.88113 -0.38800
O 	O 	0.67206 0.26640 0.85239 -0.41900
H 	H 	0.73108 0.35909 0.02161 0.16300
H 	H 	0.61301 0.24196 0.91495 0.17200
Cu	Cu	0.72100 0.33719 0.43966 0.92800
Cu	Cu	0.71579 0.28253 0.52731 0.87100
Cu	Cu	0.62966 0.29365 0.49301 0.89700
Cu	Cu	0.62071 0.33802 0.41299 0.89400
C 	C 	0.68834 0.33803 0.34905 0.28300
O 	O 	0.75240 0.41673 0.44896 -0.36300
C 	C 	0.66147 0.29926 0.58861 0.28400
O 	O 	0.63623 0.29170 0.43180 -0.64100
O 	O 	0.71032 0.33414 0.50203 -0.64100
O 	O 	0.76134 0.30489 0.43769 -0.37200
O 	O 	0.70430 0.23866 0.47373 -0.44400
O 	O 	0.66338 0.35798 0.36397 -0.38400
O 	O 	0.55141 0.25153 0.47950 -0.38300
C 	C 	0.52359 0.26028 0.45113 0.30700
C 	C 	0.72751 0.43464 0.46712 0.30000
O 	O 	0.67647 0.40052 0.47018 -0.39300
O 	O 	0.54774 0.30150 0.43015 -0.39500
O 	O 	0.71661 0.32881 0.37650 -0.35900
C 	C 	0.74125 0.25764 0.44872 0.30800
O 	O 	0.62194 0.28208 0.55469 -0.38600
O 	O 	0.70751 0.30821 0.58239 -0.41900
H 	H 	0.61428 0.25496 0.41342 0.16400
H 	H 	0.73034 0.36966 0.52211 0.17200
C 	C 	0.65047 0.29918 0.63405 -0.07500
C 	C 	0.60333 0.25372 0.64373 0.00400
C 	C 	0.59736 0.24893 0.68784 -0.05900
C 	C 	0.63837 0.28975 0.72272 0.01200
C 	C 	0.68414 0.33724 0.71305 0.01200
C 	C 	0.68997 0.34169 0.66868 -0.02000
C 	C 	0.72461 0.37853 0.74793 -0.05900
C 	C 	0.72133 0.37141 0.79196 0.00400
C 	C 	0.67774 0.32283 0.80157 -0.07600
C 	C 	0.63544 0.28274 0.76702 -0.02000
H 	H 	0.57241 0.22097 0.61713 0.03400
H 	H 	0.56158 0.21280 0.69485 0.04100
H 	H 	0.72595 0.37724 0.66114 0.03700
H 	H 	0.75937 0.41555 0.74094 0.04100
H 	H 	0.75386 0.40277 0.81850 0.03300
H 	H 	0.60127 0.24560 0.77452 0.03700
C 	C 	0.69661 0.33990 0.30289 -0.06800
C 	C 	0.71712 0.38787 0.28671 0.00700
C 	C 	0.71843 0.38844 0.24156 -0.05700
C 	C 	0.69872 0.34087 0.21196 0.01400
C 	C 	0.68033 0.29298 0.22832 0.01500
C 	C 	0.67991 0.29289 0.27396 -0.02200
C 	C 	0.66031 0.24533 0.19854 -0.05700
C 	C 	0.65584 0.24455 0.15272 0.00800
C 	C 	0.67158 0.29146 0.13630 -0.07000
C 	C 	0.69476 0.33994 0.16606 -0.02100
H 	H 	0.73103 0.42453 0.30908 0.03800
H 	H 	0.73342 0.42557 0.22945 0.04100
H 	H 	0.66456 0.25597 0.28659 0.03800
H 	H 	0.64678 0.20854 0.21071 0.04400
H 	H 	0.63826 0.20702 0.12998 0.04200
H 	H 	0.70782 0.37638 0.15337 0.03000
C 	C 	0.90659 0.86615 0.46597 -0.00300
C 	C 	0.86618 0.82315 0.43206 -0.03600
C 	C 	0.84213 0.76984 0.43732 -0.04200
C 	C 	0.85826 0.75911 0.47658 0.00700
C 	C 	0.89728 0.80210 0.51111 -0.04200
C 	C 	0.92132 0.85539 0.50584 -0.03700
C 	C 	0.83642 0.70309 0.48054 0.00900
C 	C 	0.87103 0.68751 0.48412 -0.04400
C 	C 	0.84987 0.63367 0.48498 -0.03100
C 	C 	0.79402 0.59509 0.48232 -0.00900
C 	C 	0.75957 0.61080 0.47983 -0.03100
C 	C 	0.78068 0.66463 0.47896 -0.04400
C 	C 	0.77150 0.53878 0.47858 0.04400
C 	C 	0.75195 0.49139 0.47418 -0.11100
H 	H 	0.85457 0.83104 0.40115 0.03800
H 	H 	0.81198 0.73693 0.41049 0.03900
H 	H 	0.90963 0.79423 0.54170 0.03900
H 	H 	0.95225 0.88832 0.53232 0.03700
H 	H 	0.91411 0.71687 0.48532 0.04000
H 	H 	0.87674 0.62182 0.48683 0.03800
H 	H 	0.71634 0.58119 0.47774 0.03700
H 	H 	0.75368 0.67629 0.47648 0.04000
C 	C 	0.91275 0.02621 0.44004 -0.00400
C 	C 	0.90815 0.04275 0.40003 -0.03600
C 	C 	0.88691 0.07201 0.39672 -0.04200
C 	C 	0.87022 0.08505 0.43341 0.00600
C 	C 	0.87363 0.06742 0.47307 -0.04200
C 	C 	0.89478 0.03810 0.47636 -0.03600
C 	C 	0.85074 0.11856 0.43081 0.00900
C 	C 	0.88080 0.17049 0.45698 -0.04500
C 	C 	0.86069 0.20092 0.45678 -0.03100
C 	C 	0.81041 0.17970 0.43042 -0.01300
C 	C 	0.78106 0.12848 0.40325 -0.03000
C 	C 	0.80120 0.09802 0.40337 -0.04500
C 	C 	0.78650 0.20800 0.43483 0.04600
C 	C 	0.76613 0.23113 0.44014 -0.12200
H 	H 	0.92178 0.03364 0.37178 0.03700
H 	H 	0.88429 0.08531 0.36593 0.04000
H 	H 	0.86048 0.07698 0.50147 0.03800
H 	H 	0.89823 0.02558 0.50739 0.03700
H 	H 	0.91931 0.18688 0.47798 0.03900
H 	H 	0.88359 0.24044 0.47791 0.03400
H 	H 	0.74210 0.11174 0.38285 0.03700
H 	H 	0.77779 0.05807 0.38291 0.04000
C 	C 	0.24903 0.11955 0.44524 0.00900
C 	C 	0.27411 0.09413 0.45197 -0.04400
C 	C 	0.32963 0.12211 0.45215 -0.03100
C 	C 	0.36038 0.17559 0.44556 -0.00900
C 	C 	0.33533 0.20087 0.43839 -0.03100
C 	C 	0.27982 0.17296 0.43823 -0.04400
C 	C 	0.41788 0.20498 0.44720 0.04500
C 	C 	0.46610 0.22997 0.44884 -0.10800
H 	H 	0.25063 0.05283 0.45719 0.03900
H 	H 	0.34873 0.10231 0.45767 0.03800
H 	H 	0.35888 0.24222 0.43328 0.03800
H 	H 	0.26087 0.19296 0.43311 0.04000
C 	C 	0.74923 0.50596 0.98797 -0.08100
C 	C 	0.72454 0.53101 0.99857 -0.00200
C 	C 	0.75238 0.58643 0.00020 -0.05200
C 	C 	0.80510 0.61736 0.99123 0.01900
C 	C 	0.82995 0.59253 0.98083 -0.06300
C 	C 	0.80218 0.53709 0.97923 0.00900
C 	C 	0.83412 0.67568 0.99238 -0.00400
C 	C 	0.88180 0.71310 0.02378 -0.03200
C 	C 	0.90950 0.76840 0.02464 -0.04000
C 	C 	0.88968 0.78660 0.99418 0.01200
C 	C 	0.84189 0.74932 0.96300 -0.04400
C 	C 	0.81416 0.69401 0.96208 -0.03600
C 	C 	0.91939 0.84340 0.99396 -0.01000
C 	C 	0.94482 0.89099 0.99360 -0.03400
H 	H 	0.68359 0.50749 0.00506 0.03900
H 	H 	0.73296 0.60533 0.00837 0.04300
H 	H 	0.87066 0.61614 0.97382 0.04400
H 	H 	0.82190 0.51841 0.97139 0.03100
H 	H 	0.89735 0.69933 0.04745 0.03800
H 	H 	0.94648 0.79704 0.04880 0.04100
H 	H 	0.82643 0.76314 0.93928 0.04000
H 	H 	0.77742 0.66540 0.93767 0.03800
C 	C 	0.76352 0.21590 0.99619 -0.10400
C 	C 	0.82022 0.25037 0.00062 0.02500
C 	C 	0.85027 0.23003 0.00578 -0.07200
C 	C 	0.82396 0.17505 0.00652 0.02700
C 	C 	0.76763 0.14111 0.00435 -0.06500
C 	C 	0.73753 0.16146 0.99933 0.01100
C 	C 	0.85470 0.15228 0.00616 0.00100
C 	C 	0.85724 0.12724 0.04095 -0.03500
C 	C 	0.88477 0.10396 0.03966 -0.04400
C 	C 	0.90995 0.10564 0.00363 0.01800
C 	C 	0.90799 0.13116 0.96913 -0.04900
C 	C 	0.88044 0.15437 0.97035 -0.04000
C 	C 	0.93613 0.07953 0.00124 -0.00400
C 	C 	0.95758 0.05722 0.99881 -0.04100
H 	H 	0.84088 0.29268 0.99912 0.02200
H 	H 	0.89385 0.25672 0.00813 0.04700
H 	H 	0.74697 0.09863 0.00510 0.04500
H 	H 	0.69385 0.13446 0.99614 0.03100
H 	H 	0.83768 0.12558 0.06881 0.03900
H 	H 	0.88614 0.08428 0.06645 0.04100
H 	H 	0.92730 0.13253 0.94115 0.04000
H 	H 	0.87850 0.17339 0.94323 0.03500
C 	C 	0.27970 0.12788 0.96320 0.01000
C 	C 	0.31562 0.18173 0.95827 -0.04500
C 	C 	0.36946 0.20333 0.95573 -0.03100
C 	C 	0.38766 0.17124 0.95805 -0.01100
C 	C 	0.35131 0.11691 0.96129 -0.03100
C 	C 	0.29746 0.09524 0.96379 -0.04500
C 	C 	0.44454 0.19539 0.96161 0.04500
C 	C 	0.49246 0.21647 0.96601 -0.11400
H 	H 	0.30223 0.20718 0.95762 0.03900
H 	H 	0.39736 0.24538 0.95319 0.03700
H 	H 	0.36507 0.09183 0.96302 0.03800
H 	H 	0.26985 0.05346 0.96714 0.03900
