data_crystal

_cell_length_a 18.43045
_cell_length_b 17.02619
_cell_length_c 46.50519
_cell_angle_alpha 90.74507
_cell_angle_beta  91.03146
_cell_angle_gamma 110.79885

_symmetry_space_group_name_	'P 1'
_symmetry_space_group_name_H-M	'P 1'

loop_
_symmetry_equiv_pos_as_xyz
  x,y,z

loop_
_atom_site_label
_atom_site_type_symbol
_atom_site_fract_x
_atom_site_fract_y
_atom_site_fract_z
_atom_site_charge
O 	O 	0.13686 0.92480 0.75963 -0.68600
Ni	Ni	0.16519 0.04045 0.77792 1.10300
O 	O 	0.16225 0.80473 0.71953 -0.35700
Ni	Ni	0.22798 0.91652 0.74121 1.09500
O 	O 	0.20932 0.99963 0.71353 -0.38200
O 	O 	0.26092 0.04351 0.80145 -0.36000
O 	O 	0.07228 0.03636 0.75300 -0.71300
O 	O 	0.16284 0.14693 0.79886 -0.33000
H 	H 	0.11441 0.87915 0.77331 0.19500
H 	H 	0.08404 0.08661 0.74091 0.19400
C 	C 	0.24135 0.08068 0.71955 0.28900
C 	C 	0.09545 0.79114 0.70598 0.34000
C 	C 	0.31870 0.02912 0.78907 0.32500
C 	C 	0.09736 0.14451 0.81056 0.31100
O 	O 	0.23528 0.11011 0.74578 -0.33100
O 	O 	0.31520 0.01226 0.76127 -0.39000
Ni	Ni	0.31191 0.75057 0.39713 1.09800
O 	O 	0.28973 0.69149 0.35799 -0.70500
Ni	Ni	0.18219 0.69061 0.34870 1.10700
O 	O 	0.39994 0.70811 0.40680 -0.37200
O 	O 	0.32653 0.57017 0.39877 -0.41200
O 	O 	0.39236 0.85664 0.38004 -0.34700
Ni	Ni	0.29367 0.57796 0.35601 1.07800
O 	O 	0.30868 0.92634 0.41426 -0.37900
O 	O 	0.18343 0.50578 0.36722 -0.38500
O 	O 	0.15347 0.61295 0.31269 -0.33200
O 	O 	0.21053 0.76150 0.38608 -0.70000
O 	O 	0.32803 0.81418 0.43527 -0.37100
O 	O 	0.08222 0.71617 0.34270 -0.32700
O 	O 	0.14438 0.85783 0.34865 -0.38300
Ni	Ni	0.22878 0.88071 0.38126 1.08200
H 	H 	0.32596 0.72583 0.34375 0.18200
H 	H 	0.17225 0.73819 0.40127 0.16700
C 	C 	0.14106 0.53485 0.38349 0.29300
O 	O 	0.31115 0.89741 0.35091 -0.38200
C 	C 	0.38339 0.62872 0.41279 0.29400
C 	C 	0.18357 0.55447 0.30730 0.32400
C 	C 	0.38025 0.89498 0.35699 0.31600
C 	C 	0.08005 0.79121 0.34836 0.31000
C 	C 	0.31189 0.88345 0.43756 0.29000
O 	O 	0.11789 0.59469 0.37416 -0.36900
O 	O 	0.25663 0.56694 0.31443 -0.37900
Ni	Ni	0.34760 0.65124 0.13474 1.10800
O 	O 	0.25236 0.63875 0.10892 -0.70000
Ni	Ni	0.18616 0.67122 0.13666 1.10200
O 	O 	0.38587 0.57236 0.11046 -0.34600
O 	O 	0.26371 0.47561 0.10681 -0.39800
O 	O 	0.41445 0.74998 0.11049 -0.35800
Ni	Ni	0.18951 0.53202 0.09066 1.07700
O 	O 	0.45467 0.81665 0.16327 -0.38200
O 	O 	0.10173 0.47695 0.11875 -0.37900
O 	O 	0.08434 0.63491 0.11275 -0.35000
O 	O 	0.28789 0.70105 0.15978 -0.70400
O 	O 	0.44124 0.67658 0.16173 -0.34400
O 	O 	0.14283 0.72786 0.16756 -0.33600
O 	O 	0.24393 0.85155 0.16164 -0.37900
Ni	Ni	0.34470 0.82160 0.16209 1.08400
H 	H 	0.26557 0.68133 0.09377 0.15000
H 	H 	0.28086 0.67587 0.17908 0.19200
C 	C 	0.10631 0.48818 0.14681 0.34100
O 	O 	0.34832 0.83843 0.11875 -0.40900
C 	C 	0.33609 0.50328 0.09852 0.29400
C 	C 	0.08286 0.62793 0.08435 0.29200
C 	C 	0.39322 0.81252 0.10255 0.29900
C 	C 	0.18015 0.80719 0.17500 0.31300
C 	C 	0.47399 0.75335 0.17296 0.32100
O 	O 	0.14847 0.56092 0.15875 -0.36300
O 	O 	0.12283 0.58820 0.07074 -0.40600
O 	O 	0.01413 0.17714 0.25489 -0.34500
O 	O 	0.06659 0.04362 0.26483 -0.36600
O 	O 	0.99137 0.02662 0.22353 -0.34200
Ni	Ni	0.99597 0.03209 0.29930 1.07200
O 	O 	0.01455 0.15740 0.30334 -0.37800
C 	C 	0.02844 0.20768 0.28131 0.32500
C 	C 	0.04186 0.00607 0.23940 0.31000
C 	C 	0.97449 0.40701 0.16455 0.09200
C 	C 	0.05462 0.42149 0.16470 -0.09000
C 	C 	0.08232 0.36199 0.17659 0.09800
C 	C 	0.02995 0.28403 0.18539 0.11400
Br	Br	0.06695 0.19176 0.18820 -0.14200
Br	Br	0.19267 0.38544 0.17920 -0.16600
C 	C 	0.06250 0.83378 0.19281 0.11700
C 	C 	0.14340 0.85099 0.19442 -0.09700
C 	C 	0.18997 0.91366 0.21393 0.10500
C 	C 	0.15831 0.96735 0.22798 0.11900
C 	C 	0.07706 0.94783 0.22708 -0.08600
C 	C 	0.02936 0.87538 0.21181 0.11100
Br	Br	0.99853 0.76417 0.16216 -0.15200
Br	Br	0.22716 0.07044 0.24579 -0.16200
Br	Br	0.29505 0.92210 0.22307 -0.20700
Br	Br	0.36447 0.83175 0.29255 -0.19100
C 	C 	0.02818 0.34527 0.30080 0.10500
C 	C 	0.06678 0.29916 0.28608 -0.10700
C 	C 	0.13885 0.34218 0.27343 0.10300
C 	C 	0.17188 0.43039 0.27582 0.10000
C 	C 	0.13566 0.47490 0.29247 -0.09700
C 	C 	0.05869 0.43333 0.30086 0.10300
Br	Br	0.99041 0.49517 0.30654 -0.16800
Br	Br	0.26221 0.49083 0.25420 -0.14600
Br	Br	0.19642 0.28013 0.25587 -0.13500
C 	C 	0.95527 0.78648 0.32470 0.08500
C 	C 	0.00452 0.80262 0.34935 -0.09400
C 	C 	0.98337 0.83544 0.37451 0.08200
C 	C 	0.89096 0.81265 0.32455 0.08200
Br	Br	0.97965 0.73662 0.29047 -0.15700
Br	Br	0.03981 0.84022 0.41019 -0.26400
N 	N 	0.30934 0.03597 0.57212 -0.19400
C 	C 	0.32872 0.91217 0.51802 -0.10500
C 	C 	0.29691 0.87721 0.49114 0.13500
C 	C 	0.32093 0.92519 0.46612 -0.08100
H 	H 	0.31585 0.87354 0.53695 0.07700
N 	N 	0.24210 0.79869 0.48951 -0.20100
H 	H 	0.22700 0.76228 0.50789 0.09100
H 	H 	0.21105 0.77499 0.47037 0.08500
H 	H 	0.28462 0.05368 0.58997 0.10900
H 	H 	0.27273 0.00641 0.55476 0.09700
C 	C 	0.03904 0.44277 0.46301 0.02200
N 	N 	0.08591 0.57800 0.50564 -0.19400
C 	C 	0.99164 0.44830 0.43981 -0.12600
C 	C 	0.02184 0.46581 0.41222 0.17000
C 	C 	0.10229 0.48581 0.40840 -0.11400
C 	C 	0.14777 0.47148 0.43081 -0.02700
C 	C 	0.11641 0.44858 0.45809 0.05900
N 	N 	0.97321 0.46022 0.38937 -0.21000
H 	H 	0.20825 0.48120 0.42741 0.05000
N 	N 	0.16116 0.43439 0.47952 -0.19200
H 	H 	0.99220 0.46039 0.36838 0.13800
H 	H 	0.21928 0.44264 0.47606 0.09100
H 	H 	0.13829 0.41305 0.49954 0.09900
H 	H 	0.11246 0.58784 0.48572 0.08800
H 	H 	0.39763 0.48673 0.53846 0.06400
C 	C 	0.37717 0.62297 0.46655 0.12900
C 	C 	0.40965 0.60784 0.44064 -0.10400
C 	C 	0.46701 0.57168 0.44145 -0.02000
C 	C 	0.49479 0.55337 0.46788 0.06500
H 	H 	0.48919 0.55649 0.42152 0.04700
N 	N 	0.54443 0.51031 0.46824 -0.19100
H 	H 	0.28280 0.64587 0.44713 0.06200
H 	H 	0.56538 0.49506 0.44902 0.09400
H 	H 	0.55976 0.48811 0.48737 0.08900
H 	H 	0.38658 0.43898 0.58712 0.10700
C 	C 	0.40086 0.27280 0.69407 0.11400
C 	C 	0.45853 0.23710 0.68974 -0.09900
C 	C 	0.43794 0.14917 0.69146 0.11600
C 	C 	0.35988 0.09838 0.69166 0.07900
C 	C 	0.30511 0.13233 0.70125 -0.07800
C 	C 	0.32433 0.22027 0.70056 0.10300
Br	Br	0.24530 0.26778 0.70686 -0.13800
Br	Br	0.42811 0.39308 0.69405 -0.15100
Br	Br	0.32840 0.98627 0.67544 -0.17200
Br	Br	0.51353 0.09933 0.70125 -0.21100
Br	Br	0.13748 0.78648 0.64018 -0.15100
C 	C 	0.02806 0.65433 0.06750 -0.08100
C 	C 	0.05616 0.71297 0.04548 0.12300
C 	C 	0.01122 0.70507 0.02024 -0.07600
N 	N 	0.12766 0.77393 0.04795 -0.20000
H 	H 	0.03552 0.74393 0.00199 0.06500
H 	H 	0.16073 0.78266 0.06701 0.08600
H 	H 	0.14976 0.81498 0.03110 0.09600
C 	C 	0.42554 0.85807 0.07641 -0.10200
C 	C 	0.49245 0.93213 0.07785 0.13300
C 	C 	0.52824 0.96735 0.05232 -0.05900
C 	C 	0.49945 0.92906 0.02554 -0.00900
C 	C 	0.43373 0.85379 0.02420 0.06800
C 	C 	0.39532 0.82140 0.04959 -0.02400
N 	N 	0.52263 0.96962 0.10358 -0.18600
H 	H 	0.57848 0.02507 0.05327 0.04200
N 	N 	0.40753 0.81234 0.99872 -0.19300
H 	H 	0.34304 0.76587 0.04854 0.02700
C 	C 	0.49871 0.01400 0.98152 0.04400
H 	H 	0.50793 0.08843 0.94375 0.06400
N 	N 	0.42795 0.01655 0.98822 -0.20100
H 	H 	0.40029 0.04627 0.97467 0.09500
H 	H 	0.40084 0.99186 0.00727 0.10800
H 	H 	0.35731 0.75858 0.99780 0.08800
H 	H 	0.43792 0.83134 0.97979 0.10300
H 	H 	0.49629 0.94667 0.12293 0.11000
H 	H 	0.57293 0.02332 0.10441 0.09000
C 	C 	0.35438 0.47423 0.07051 -0.12000
C 	C 	0.37566 0.52925 0.04697 0.12000
C 	C 	0.40167 0.42108 0.01889 0.00200
C 	C 	0.37454 0.36376 0.04150 0.06300
C 	C 	0.35222 0.39143 0.06735 -0.01900
N 	N 	0.36915 0.28229 0.03845 -0.19200
H 	H 	0.33367 0.34860 0.08506 0.05500
H 	H 	0.29051 0.38028 0.98107 0.09400
H 	H 	0.35095 0.24097 0.05550 0.09300
H 	H 	0.38072 0.25856 0.01894 0.09300
H 	H 	0.34047 0.62366 0.06467 0.05700
Br	Br	0.13909 0.19059 0.87768 -0.18400
C 	C 	0.40952 0.00794 0.82600 0.08600
C 	C 	0.39499 0.05675 0.80397 -0.10000
C 	C 	0.45492 0.12989 0.79521 0.10900
C 	C 	0.52941 0.15238 0.80790 0.09800
C 	C 	0.54106 0.11006 0.83229 -0.10300
C 	C 	0.48239 0.03505 0.84037 0.09600
Br	Br	0.50245 0.96936 0.87091 -0.15200
Br	Br	0.32950 0.90453 0.83656 -0.16300
Br	Br	0.61595 0.23854 0.79117 -0.19400
Br	Br	0.43281 0.20455 0.76854 -0.15200
Ni	Ni	0.65876 0.27865 0.90113 1.10100
O 	O 	0.67232 0.35160 0.86522 -0.69800
Ni	Ni	0.78457 0.36922 0.85768 1.10500
O 	O 	0.55946 0.29261 0.91492 -0.36300
O 	O 	0.56290 0.41516 0.89533 -0.38600
O 	O 	0.58910 0.17432 0.87829 -0.36400
Ni	Ni	0.66741 0.46293 0.87389 1.07700
O 	O 	0.67643 0.10345 0.90664 -0.39000
O 	O 	0.72907 0.46683 0.91094 -0.43100
O 	O 	0.80038 0.45284 0.82533 -0.34700
O 	O 	0.76487 0.28720 0.89059 -0.71100
O 	O 	0.65445 0.20445 0.93509 -0.38800
O 	O 	0.89206 0.36222 0.85120 -0.33700
O 	O 	0.84190 0.21877 0.84693 -0.39300
Ni	Ni	0.75842 0.17445 0.87847 1.07200
H 	H 	0.63752 0.32362 0.84882 0.18600
H 	H 	0.80153 0.30811 0.90712 0.16200
C 	C 	0.80380 0.48007 0.91073 0.28800
O 	O 	0.67638 0.15929 0.84671 -0.38700
C 	C 	0.55424 0.36684 0.91782 0.30000
C 	C 	0.79196 0.52534 0.82991 0.33300
C 	C 	0.60531 0.15319 0.85266 0.32200
C 	C 	0.90230 0.28958 0.84933 0.31900
C 	C 	0.65742 0.12870 0.93173 0.29900
O 	O 	0.83656 0.46670 0.88699 -0.35200
O 	O 	0.76484 0.54094 0.85456 -0.39300
Ni	Ni	0.63486 0.36757 0.62857 1.10400
O 	O 	0.72328 0.39108 0.60012 -0.70000
Ni	Ni	0.79379 0.34162 0.62005 1.10200
O 	O 	0.57851 0.42473 0.60252 -0.36400
O 	O 	0.68574 0.54488 0.60221 -0.39100
O 	O 	0.58557 0.26084 0.60394 -0.39000
Ni	Ni	0.77976 0.50865 0.59291 1.07600
O 	O 	0.59840 0.28008 0.69079 -0.36300
O 	O 	0.81574 0.53626 0.63475 -0.38900
O 	O 	0.86913 0.35542 0.58749 -0.35700
O 	O 	0.71416 0.33508 0.65092 -0.69800
O 	O 	0.54099 0.33339 0.65564 -0.35300
O 	O 	0.84125 0.26543 0.64121 -0.34500
O 	O 	0.72141 0.16569 0.64456 -0.39600
Ni	Ni	0.66060 0.22561 0.66784 1.10200
H 	H 	0.70492 0.36101 0.58152 0.15300
H 	H 	0.73732 0.37755 0.66640 0.18800
C 	C 	0.87334 0.51719 0.64546 0.33400
O 	O 	0.56557 0.17114 0.64125 -0.37200
C 	C 	0.61446 0.50107 0.59310 0.28800
C 	C 	0.88460 0.42140 0.57086 0.27700
C 	C 	0.56381 0.18428 0.61362 0.30400
C 	C 	0.79690 0.18924 0.64821 0.31700
C 	C 	0.53609 0.28896 0.67926 0.33000
O 	O 	0.87785 0.44272 0.64057 -0.34600
O 	O 	0.88048 0.49259 0.58128 -0.38400
O 	O 	0.97004 0.83958 0.74671 -0.35300
O 	O 	0.90537 0.96639 0.73915 -0.36400
O 	O 	0.97818 0.95077 0.70161 -0.33100
Ni	Ni	0.97714 0.01708 0.77387 1.06800
O 	O 	0.96990 0.90402 0.79013 -0.38100
C 	C 	0.95377 0.83553 0.77418 0.32800
C 	C 	0.92785 0.98164 0.71219 0.33500
O 	O 	0.84779 0.12036 0.26669 -0.70400
Ni	Ni	0.81183 0.02702 0.29491 1.10100
O 	O 	0.83486 0.20828 0.21615 -0.36600
Ni	Ni	0.75926 0.12116 0.24367 1.08300
O 	O 	0.76049 0.01173 0.22537 -0.41900
O 	O 	0.72011 0.05160 0.31161 -0.36600
O 	O 	0.80555 0.93935 0.32580 -0.32300
H 	H 	0.87488 0.17558 0.27608 0.18700
C 	C 	0.73219 0.93935 0.23901 0.32800
C 	C 	0.66057 0.05033 0.29522 0.33400
O 	O 	0.73599 0.93708 0.26758 -0.33200
O 	O 	0.66595 0.05151 0.26695 -0.39100
Br	Br	0.81255 0.29996 0.16469 -0.18600
C 	C 	0.61835 0.81608 0.17577 0.11100
C 	C 	0.54760 0.77399 0.18925 -0.09700
C 	C 	0.54676 0.76368 0.21913 0.10400
C 	C 	0.61387 0.80594 0.23595 0.11300
C 	C 	0.68001 0.86360 0.22276 -0.08900
C 	C 	0.68530 0.85915 0.19261 0.10400
Br	Br	0.78445 0.90771 0.17470 -0.14300
Br	Br	0.62250 0.81719 0.13437 -0.16600
Br	Br	0.61690 0.77700 0.27584 -0.13400
Br	Br	0.45232 0.69548 0.23713 -0.16600
C 	C 	0.50764 0.01285 0.35193 0.07800
C 	C 	0.44705 0.94371 0.33955 -0.07200
C 	C 	0.45029 0.92134 0.31047 0.09100
C 	C 	0.51629 0.96392 0.29440 0.14200
C 	C 	0.58209 0.02505 0.30817 -0.13000
C 	C 	0.57455 0.05432 0.33609 0.11600
Br	Br	0.65257 0.15546 0.35156 -0.18400
Br	Br	0.49799 0.05236 0.39025 -0.19600
Br	Br	0.51104 0.94529 0.25320 -0.16600
Br	Br	0.89429 0.91592 0.40672 -0.17200
C 	C 	0.51509 0.11577 0.59460 -0.09500
C 	C 	0.54840 0.08533 0.57189 0.12200
C 	C 	0.50102 0.04077 0.54880 -0.07900
C 	C 	0.42152 0.02794 0.54780 -0.03000
C 	C 	0.38700 0.05139 0.57183 0.08000
C 	C 	0.43425 0.09356 0.59535 -0.01900
N 	N 	0.62587 0.09968 0.57196 -0.20300
H 	H 	0.52668 0.01948 0.53089 0.05800
C 	C 	0.37706 0.99678 0.52059 0.05600
H 	H 	0.40865 0.11465 0.61333 0.06600
C 	C 	0.36391 0.01152 0.46894 -0.03700
C 	C 	0.39041 0.04829 0.49614 0.04200
H 	H 	0.37923 0.04960 0.44993 0.06400
N 	N 	0.42906 0.13266 0.49864 -0.18800
H 	H 	0.44135 0.16979 0.48036 0.09300
H 	H 	0.44453 0.16259 0.51875 0.09200
H 	H 	0.66192 0.12921 0.58946 0.09000
H 	H 	0.65055 0.07935 0.55465 0.09200
C 	C 	0.92753 0.42371 0.54415 -0.08900
C 	C 	0.90439 0.35522 0.52413 0.12300
N 	N 	0.83840 0.28749 0.52771 -0.19900
H 	H 	0.10254 0.62803 0.52056 0.09600
H 	H 	0.79719 0.28853 0.54265 0.08000
H 	H 	0.82484 0.23504 0.51391 0.09400
C 	C 	0.57473 0.53812 0.57228 -0.11000
C 	C 	0.49295 0.50553 0.56858 0.14200
C 	C 	0.45949 0.51771 0.54251 -0.09900
C 	C 	0.50513 0.57176 0.52199 0.00400
C 	C 	0.58445 0.61777 0.52845 0.06500
C 	C 	0.61934 0.59791 0.55298 -0.02600
N 	N 	0.44651 0.46770 0.59054 -0.20200
C 	C 	0.46948 0.57885 0.49381 0.00300
N 	N 	0.62708 0.68067 0.51126 -0.19200
H 	H 	0.68150 0.62739 0.55662 0.03700
C 	C 	0.41016 0.61235 0.49291 -0.09400
H 	H 	0.38877 0.62891 0.51280 0.06400
N 	N 	0.31282 0.64460 0.46626 -0.19700
H 	H 	0.28957 0.65589 0.48553 0.08900
H 	H 	0.68640 0.71168 0.51549 0.09800
H 	H 	0.60121 0.70201 0.49442 0.10400
H 	H 	0.46849 0.47300 0.61162 0.12700
C 	C 	0.79145 0.08766 0.68722 0.11100
C 	C 	0.83042 0.13455 0.66376 -0.11300
C 	C 	0.90103 0.12780 0.65521 0.11200
C 	C 	0.93589 0.08247 0.67213 0.09500
C 	C 	0.89186 0.02776 0.69333 -0.12300
C 	C 	0.81606 0.02545 0.69854 0.08500
Br	Br	0.74247 0.93207 0.71773 -0.11900
Br	Br	0.71689 0.12029 0.70791 -0.26000
Br	Br	0.94707 0.17442 0.61945 -0.17900
C 	C 	0.94597 0.57805 0.69128 0.10200
C 	C 	0.93739 0.58224 0.66119 -0.09900
C 	C 	0.99144 0.64813 0.64610 0.10200
Br	Br	0.87345 0.48751 0.71208 -0.16700
Br	Br	0.97424 0.66456 0.60606 -0.22500
C 	C 	0.91045 0.60566 0.98836 0.00800
N 	N 	0.82844 0.54377 0.04108 -0.19400
C 	C 	0.92780 0.53639 0.97841 -0.09500
C 	C 	0.90138 0.50015 0.95120 0.12700
C 	C 	0.85305 0.53105 0.93437 -0.09800
C 	C 	0.84081 0.60433 0.94340 -0.01600
C 	C 	0.86843 0.64160 0.97042 0.06300
N 	N 	0.92361 0.43690 0.94125 -0.20700
H 	H 	0.80626 0.62993 0.92995 0.04900
N 	N 	0.85285 0.71039 0.97921 -0.19100
H 	H 	0.95378 0.40986 0.95476 0.09500
H 	H 	0.91703 0.41879 0.91959 0.10500
H 	H 	0.82159 0.73633 0.96577 0.09400
H 	H 	0.87122 0.73863 0.99941 0.09800
H 	H 	0.80394 0.50823 0.05894 0.10100
H 	H 	0.79280 0.54030 0.02302 0.09200
C 	C 	0.53584 0.97139 0.99904 0.02500
C 	C 	0.61022 0.97295 0.99217 -0.07000
C 	C 	0.65012 0.02033 0.96905 0.10200
C 	C 	0.61353 0.06448 0.95202 -0.09300
C 	C 	0.53658 0.05645 0.95737 -0.01500
H 	H 	0.63805 0.93926 0.00538 0.06300
N 	N 	0.72355 0.02398 0.96364 -0.21200
H 	H 	0.75037 0.99201 0.97659 0.10900
H 	H 	0.75444 0.05772 0.94646 0.08000
C 	C 	0.40154 0.50289 0.02180 -0.09300
N 	N 	0.36955 0.60645 0.04815 -0.20000
H 	H 	0.42124 0.54617 0.00425 0.06200
C 	C 	0.43704 0.39899 0.99318 0.00300
C 	C 	0.51298 0.39932 0.99557 -0.09200
C 	C 	0.55336 0.39181 0.97106 0.12500
C 	C 	0.51694 0.38447 0.94353 -0.10500
C 	C 	0.44084 0.38395 0.94113 -0.01700
C 	C 	0.39976 0.38914 0.96578 0.06600
H 	H 	0.54142 0.40730 0.01660 0.06300
N 	N 	0.62732 0.39286 0.97407 -0.20100
H 	H 	0.41249 0.37643 0.92010 0.06200
N 	N 	0.32430 0.38298 0.96307 -0.19200
H 	H 	0.65378 0.39902 0.99447 0.08900
H 	H 	0.65941 0.38780 0.95637 0.08000
H 	H 	0.29780 0.37796 0.94272 0.10600
H 	H 	0.38992 0.64834 0.03138 0.08900
C 	C 	0.00072 0.29833 0.81219 0.12600
C 	C 	0.97888 0.28873 0.84118 -0.12800
C 	C 	0.02351 0.26243 0.86108 0.11400
Br	Br	0.95150 0.35157 0.78587 -0.15300
Br	Br	0.00550 0.26700 0.90164 -0.24300
C 	C 	0.80352 0.62124 0.78885 0.10400
C 	C 	0.83773 0.59736 0.81283 -0.09800
C 	C 	0.91288 0.64793 0.82246 0.11300
C 	C 	0.94986 0.72708 0.81049 0.10100
C 	C 	0.91454 0.75285 0.78707 -0.10000
C 	C 	0.84176 0.69901 0.77592 0.10700
Br	Br	0.79244 0.73365 0.74407 -0.14000
Br	Br	0.70442 0.54711 0.77370 -0.17000
Br	Br	0.96628 0.60735 0.85143 -0.15500
O 	O 	0.07436 0.85404 0.69893 -0.34300
C 	C 	0.89620 0.20026 0.20394 0.32800
C 	C 	0.87093 0.94341 0.33886 0.33900
C 	C 	0.94787 0.35955 0.49934 -0.09700
C 	C 	0.02952 0.50372 0.51200 0.08300
H 	H 	0.93127 0.30661 0.48428 0.06500
C 	C 	0.90395 0.59594 0.04193 0.07800
H 	H 	0.96277 0.51120 0.99181 0.06100
H 	H 	0.88362 0.94158 0.26961 0.21400
Br	Br	0.04821 0.80044 0.82660 -0.18700
Ni	Ni	0.05912 0.93526 0.72876 1.11900
O 	O 	0.90003 0.00078 0.27634 -0.73200
C 	C 	0.05638 0.26570 0.80236 0.08100
Br	Br	0.04582 0.10553 0.66888 -0.17800
Br	Br	0.08310 0.27227 0.76242 -0.18000
C 	C 	0.93854 0.64064 0.01735 -0.01200
Br	Br	0.81181 0.77332 0.29493 -0.16300
H 	H 	0.91446 0.44961 0.39243 0.11400
C 	C 	0.00764 0.43434 0.49239 0.00200
O 	O 	0.93236 0.01209 0.33664 -0.41800
C 	C 	0.94942 0.27084 0.18686 -0.11100
C 	C 	0.92155 0.86578 0.37327 0.10900
C 	C 	0.88375 0.86590 0.34678 -0.11800
C 	C 	0.94944 0.60307 0.06703 -0.03300
H 	H 	0.92595 0.56255 0.08497 0.07500
C 	C 	0.99134 0.49621 0.53821 -0.04900
H 	H 	0.01002 0.54808 0.55370 0.08300
C 	C 	0.00544 0.64242 0.70628 0.11600
Br	Br	0.01701 0.63856 0.74743 -0.15700
O 	O 	0.03807 0.07321 0.81123 -0.39200
Ni	Ni	0.91824 0.07484 0.24286 1.10900
O 	O 	0.90689 0.12849 0.20468 -0.34600
C 	C 	0.92158 0.33016 0.17418 0.11100
Br	Br	0.93727 0.49310 0.15136 -0.16100
Br	Br	0.91948 0.82942 0.21850 -0.16300
Br	Br	0.93905 0.28921 0.32362 -0.24000
H 	H 	0.93110 0.43893 0.44324 0.07200
C 	C 	0.05447 0.70722 0.66098 0.12000
C 	C 	0.05640 0.71004 0.69113 -0.10300
C 	C 	0.07933 0.23031 0.85108 0.09900
C 	C 	0.08741 0.22144 0.82133 -0.09500
