data_crystal

_cell_length_a 27.60800
_cell_length_b 28.78052
_cell_length_c 39.27473
_cell_angle_alpha 60.84631
_cell_angle_beta  118.86348
_cell_angle_gamma 133.17707

_symmetry_space_group_name_	'P 1'
_symmetry_space_group_name_H-M	'P 1'

loop_
_symmetry_equiv_pos_as_xyz
  x,y,z

loop_
_atom_site_label
_atom_site_type_symbol
_atom_site_fract_x
_atom_site_fract_y
_atom_site_fract_z
_atom_site_charge
C 	C 	0.73998 0.32866 0.02163 0.12400
N 	N 	0.77839 0.38664 0.03134 -0.14500
C 	C 	0.74704 0.40559 0.03421 0.12700
N 	N 	0.67806 0.36625 0.02771 -0.14200
C 	C 	0.64091 0.30536 0.02298 0.12900
N 	N 	0.67165 0.28697 0.01918 -0.14400
C 	C 	0.72355 0.28353 0.53846 0.12400
N 	N 	0.66686 0.23561 0.55361 -0.14400
C 	C 	0.64011 0.25189 0.56352 0.12700
N 	N 	0.66931 0.31597 0.55765 -0.14300
C 	C 	0.72570 0.36406 0.54253 0.12600
N 	N 	0.75345 0.34797 0.53323 -0.14300
C 	C 	0.30458 0.68402 0.18242 0.12700
N 	N 	0.37255 0.71506 0.18897 -0.14300
C 	C 	0.39434 0.68677 0.18631 0.12700
N 	N 	0.34768 0.62906 0.17528 -0.14500
C 	C 	0.28006 0.60147 0.16485 0.12900
N 	N 	0.25829 0.62862 0.16873 -0.14400
C 	C 	0.28373 0.61629 0.73928 0.12700
N 	N 	0.24414 0.55326 0.73681 -0.14500
C 	C 	0.27154 0.53082 0.73359 0.12800
N 	N 	0.33886 0.57103 0.73419 -0.14200
C 	C 	0.37643 0.63565 0.73206 0.12900
N 	N 	0.34951 0.65785 0.73599 -0.14300
Co	Co	0.04804 0.01857 0.06162 1.18000
Co	Co	0.02569 0.08740 0.09449 1.18200
C 	C 	0.17050 0.05497 0.04909 0.30100
Co	Co	0.06777 0.91042 0.07479 1.17100
O 	O 	0.03293 0.08683 0.04569 -0.47300
C 	C 	0.87651 0.97059 0.16206 0.32500
C 	C 	0.11204 0.21923 0.11305 0.30700
C 	C 	0.13297 0.89796 0.16186 0.30600
O 	O 	0.98603 0.89400 0.02552 -0.38100
O 	O 	0.10528 0.19185 0.15014 -0.37600
O 	O 	0.10230 0.18714 0.09254 -0.38600
O 	O 	0.14547 0.93116 0.12582 -0.39600
O 	O 	0.08607 0.88795 0.17183 -0.37900
O 	O 	0.04785 0.95280 0.09249 -0.75700
C 	C 	0.04069 0.02380 0.23950 0.29400
O 	O 	0.12944 0.99926 0.03893 -0.39500
O 	O 	0.14652 0.07654 0.05519 -0.39600
Co	Co	0.04507 0.99066 0.57768 1.19100
Co	Co	0.99481 0.04357 0.60294 1.17700
C 	C 	0.17581 0.02270 0.58063 0.29600
Co	Co	0.05949 0.88070 0.58697 1.17000
O 	O 	0.04102 0.06553 0.56454 -0.46900
C 	C 	0.79736 0.89183 0.64367 0.30600
C 	C 	0.05930 0.14385 0.64797 0.30800
C 	C 	0.09286 0.83978 0.67551 0.30600
O 	O 	0.99333 0.88277 0.53147 -0.38700
O 	O 	0.81924 0.95369 0.63119 -0.39000
O 	O 	0.01914 0.09738 0.67322 -0.37000
O 	O 	0.06532 0.12998 0.62298 -0.38000
O 	O 	0.12034 0.88052 0.64425 -0.39500
O 	O 	0.05025 0.84013 0.68220 -0.38000
O 	O 	0.03172 0.91741 0.60386 -0.75600
C 	C 	0.95376 0.95139 0.73428 0.31600
O 	O 	0.13682 0.97440 0.56336 -0.39400
O 	O 	0.14921 0.04148 0.58694 -0.39400
C 	C 	0.01403 0.01299 0.82147 -0.08300
C 	C 	0.98173 0.95401 0.84998 0.04000
C 	C 	0.95041 0.89400 0.84280 0.04800
C 	C 	0.01574 0.01265 0.78644 0.10500
C 	C 	0.98075 0.95555 0.88727 0.00600
N 	N 	0.92315 0.83374 0.87296 -0.01500
N 	N 	0.05877 0.07335 0.76135 -0.02300
H 	H 	0.03929 0.05938 0.82689 0.08100
C 	C 	0.04195 0.99663 0.91205 0.09000
C 	C 	0.03949 0.00094 0.94522 -0.05000
N 	N 	0.10692 0.03113 0.90503 -0.03200
H 	H 	0.08648 0.03381 0.96337 0.06300
O 	O 	0.10392 0.08084 0.75259 -0.10500
O 	O 	0.96220 0.82807 0.90833 -0.10100
O 	O 	0.80898 0.81584 0.93964 -0.10900
O 	O 	0.15177 0.09380 0.90304 -0.11600
O 	O 	0.12356 0.99885 0.90439 -0.08700
C 	C 	0.01381 0.97925 0.35390 0.03800
C 	C 	0.02265 0.94107 0.34786 0.05100
C 	C 	0.02940 0.95441 0.31012 0.01200
C 	C 	0.01001 0.96886 0.39384 0.04100
N 	N 	0.02421 0.88848 0.37969 -0.01300
H 	H 	0.03811 0.92623 0.30599 0.06000
C 	C 	0.06649 0.01312 0.41814 0.04300
C 	C 	0.06024 0.00669 0.45392 -0.01800
N 	N 	0.13029 0.06485 0.40655 -0.01500
H 	H 	0.10471 0.03887 0.47336 0.05300
O 	O 	0.98203 0.82945 0.37432 -0.11400
O 	O 	0.07078 0.90040 0.41300 -0.09400
O 	O 	0.15951 0.12533 0.40450 -0.10900
O 	O 	0.16162 0.05101 0.40100 -0.10000
C 	C 	0.10313 0.21212 0.65046 -0.10700
C 	C 	0.07783 0.25035 0.62822 0.12600
C 	C 	0.10178 0.30016 0.64282 -0.09700
C 	C 	0.15848 0.31963 0.67542 0.00700
C 	C 	0.19103 0.28797 0.69383 0.06500
C 	C 	0.16137 0.23277 0.68208 -0.01100
N 	N 	0.03199 0.24050 0.59236 -0.20500
H 	H 	0.07813 0.32569 0.62779 0.05800
C 	C 	0.18326 0.37331 0.68976 -0.00600
N 	N 	0.25073 0.31059 0.72226 -0.19100
H 	H 	0.18250 0.20485 0.69829 0.05500
C 	C 	0.17882 0.35937 0.72821 -0.08500
C 	C 	0.20203 0.40941 0.74252 0.10200
C 	C 	0.22654 0.47330 0.71707 -0.05100
C 	C 	0.22198 0.48442 0.67704 -0.05000
C 	C 	0.20639 0.43705 0.66418 0.07100
H 	H 	0.15867 0.30992 0.74728 0.06300
N 	N 	0.20037 0.39576 0.78046 -0.20000
H 	H 	0.23739 0.53251 0.65698 0.04500
N 	N 	0.21687 0.45392 0.62818 -0.19400
H 	H 	0.18378 0.34882 0.79946 0.09000
H 	H 	0.21388 0.43107 0.79110 0.09400
H 	H 	0.23096 0.50015 0.60876 0.08300
H 	H 	0.21530 0.42317 0.62017 0.08900
H 	H 	0.27269 0.28521 0.73686 0.09200
H 	H 	0.27750 0.35497 0.72883 0.09100
C 	C 	0.43544 0.68254 0.71390 -0.04900
C 	C 	0.42738 0.68249 0.67554 0.10300
C 	C 	0.48441 0.70946 0.66412 -0.08500
C 	C 	0.55034 0.74511 0.68763 -0.00800
C 	C 	0.55899 0.75458 0.72298 0.07500
C 	C 	0.50117 0.72021 0.73687 -0.05300
N 	N 	0.36527 0.65822 0.64928 -0.19900
H 	H 	0.47768 0.70449 0.63620 0.05400
C 	C 	0.60958 0.77440 0.67385 0.00600
N 	N 	0.62202 0.79689 0.74321 -0.19400
H 	H 	0.50741 0.72251 0.76560 0.05200
C 	C 	0.61853 0.81857 0.63604 -0.10200
C 	C 	0.67448 0.84792 0.62242 0.13700
C 	C 	0.72714 0.84059 0.64914 -0.11400
C 	C 	0.71581 0.79244 0.68547 -0.02100
C 	C 	0.65565 0.75690 0.69727 0.06000
H 	H 	0.58117 0.82905 0.61689 0.05900
N 	N 	0.67655 0.88125 0.58345 -0.20400
H 	H 	0.75474 0.78425 0.70520 0.04200
N 	N 	0.64236 0.70629 0.73069 -0.19100
H 	H 	0.63916 0.88926 0.56418 0.08700
H 	H 	0.71286 0.89582 0.57145 0.10300
H 	H 	0.67815 0.69583 0.74872 0.09000
H 	H 	0.59528 0.67498 0.73801 0.09200
H 	H 	0.62808 0.80121 0.77016 0.09200
H 	H 	0.66492 0.82817 0.73148 0.09400
H 	H 	0.32439 0.64724 0.65455 0.08800
H 	H 	0.35861 0.65434 0.62200 0.08300
C 	C 	0.25219 0.64265 0.73804 -0.04900
C 	C 	0.23661 0.68249 0.70210 0.10100
C 	C 	0.21313 0.71237 0.70282 -0.08300
C 	C 	0.20255 0.70132 0.73832 -0.00800
C 	C 	0.21619 0.65993 0.77405 0.07100
C 	C 	0.24101 0.63096 0.77352 -0.05300
N 	N 	0.24287 0.69125 0.66675 -0.19800
H 	H 	0.20178 0.74347 0.67542 0.05400
C 	C 	0.17437 0.73135 0.73697 0.00400
N 	N 	0.20653 0.64853 0.80893 -0.19500
H 	H 	0.25264 0.60010 0.80093 0.04800
C 	C 	0.10330 0.69720 0.72693 -0.09900
C 	C 	0.07433 0.73086 0.71180 0.12700
C 	C 	0.11764 0.79995 0.70629 -0.11100
C 	C 	0.18828 0.83190 0.72224 -0.01900
C 	C 	0.21716 0.79810 0.73758 0.05800
H 	H 	0.07047 0.64514 0.72848 0.05800
N 	N 	0.00518 0.69703 0.70133 -0.19800
H 	H 	0.22129 0.88425 0.71994 0.04400
N 	N 	0.28593 0.83026 0.75189 -0.19200
H 	H 	0.97363 0.64673 0.70318 0.08300
H 	H 	0.98208 0.71952 0.69290 0.09300
H 	H 	0.31759 0.88030 0.75077 0.08400
H 	H 	0.30831 0.80546 0.76540 0.09000
H 	H 	0.21645 0.61766 0.83511 0.08500
H 	H 	0.18965 0.67045 0.81056 0.08900
H 	H 	0.25493 0.66568 0.66447 0.09000
H 	H 	0.23331 0.72241 0.64063 0.08600
C 	C 	0.14301 0.28994 0.09738 -0.11200
C 	C 	0.10050 0.31099 0.07201 0.12800
C 	C 	0.11750 0.36770 0.07472 -0.10000
C 	C 	0.17920 0.40634 0.09978 0.00500
C 	C 	0.22781 0.39231 0.11856 0.06100
C 	C 	0.20896 0.33363 0.11746 -0.01600
N 	N 	0.04282 0.27620 0.04573 -0.20300
H 	H 	0.08177 0.38050 0.05842 0.05800
C 	C 	0.18765 0.45368 0.11141 -0.00700
N 	N 	0.29178 0.43409 0.13839 -0.19100
H 	H 	0.24355 0.31947 0.13493 0.04700
C 	C 	0.17629 0.43519 0.14858 -0.08400
C 	C 	0.19842 0.48253 0.16484 0.10300
C 	C 	0.23244 0.54921 0.14347 -0.05200
C 	C 	0.23481 0.56596 0.10398 -0.05200
C 	C 	0.21351 0.51889 0.08783 0.07000
H 	H 	0.15321 0.38440 0.16572 0.06000
N 	N 	0.18818 0.46396 0.20124 -0.20000
H 	H 	0.25839 0.61685 0.08699 0.04900
N 	N 	0.21994 0.53703 0.05031 -0.19400
H 	H 	0.16513 0.41488 0.21756 0.09100
H 	H 	0.20099 0.49762 0.21307 0.09400
H 	H 	0.24053 0.58569 0.03349 0.08500
H 	H 	0.20368 0.50304 0.03722 0.08800
H 	H 	0.32657 0.42223 0.15346 0.08700
H 	H 	0.30832 0.47965 0.13783 0.09000
C 	C 	0.46777 0.72301 0.18919 -0.04900
C 	C 	0.52037 0.77143 0.21151 0.10300
C 	C 	0.58690 0.81470 0.20569 -0.08400
C 	C 	0.60374 0.80408 0.18294 -0.00900
C 	C 	0.55336 0.74904 0.16605 0.07400
C 	C 	0.48529 0.71142 0.16735 -0.05500
N 	N 	0.50870 0.77314 0.24065 -0.19800
H 	H 	0.62632 0.85484 0.22041 0.05900
C 	C 	0.67448 0.85013 0.17760 0.00800
N 	N 	0.57010 0.73171 0.14898 -0.19400
H 	H 	0.44593 0.67282 0.15142 0.05200
C 	C 	0.72723 0.85136 0.21084 -0.10000
C 	C 	0.79307 0.88767 0.20611 0.14000
C 	C 	0.80631 0.92390 0.16736 -0.11500
C 	C 	0.75297 0.92050 0.13402 -0.01900
C 	C 	0.68835 0.88775 0.13904 0.05900
H 	H 	0.71646 0.82225 0.24031 0.06300
N 	N 	0.84263 0.88576 0.23858 -0.20300
H 	H 	0.76252 0.94581 0.10420 0.04600
N 	N 	0.64038 0.89346 0.10704 -0.19100
H 	H 	0.83356 0.86182 0.26734 0.09700
H 	H 	0.65038 0.91972 0.07848 0.08800
H 	H 	0.59416 0.87469 0.11047 0.09100
H 	H 	0.53203 0.69301 0.13479 0.08500
H 	H 	0.62094 0.75395 0.15143 0.09100
H 	H 	0.46584 0.73286 0.25250 0.09400
H 	H 	0.54603 0.81211 0.25461 0.09000
C 	C 	0.16717 0.86579 0.19014 -0.11400
C 	C 	0.23780 0.90086 0.19476 0.13100
C 	C 	0.26334 0.86723 0.20241 -0.10000
C 	C 	0.21951 0.79909 0.20683 0.00500
C 	C 	0.15247 0.76298 0.21042 0.05800
C 	C 	0.12682 0.79691 0.20214 -0.02200
N 	N 	0.28062 0.96692 0.19060 -0.20400
H 	H 	0.31613 0.89453 0.20235 0.05900
C 	C 	0.23985 0.76833 0.20045 -0.00900
N 	N 	0.11205 0.69617 0.22050 -0.19100
H 	H 	0.07356 0.76970 0.20117 0.04700
C 	C 	0.27707 0.74552 0.23315 -0.08500
C 	C 	0.29656 0.71548 0.22822 0.10000
C 	C 	0.28107 0.71106 0.18939 -0.04900
C 	C 	0.24374 0.73374 0.15673 -0.05300
C 	C 	0.22302 0.76253 0.16176 0.07400
H 	H 	0.28962 0.74984 0.26270 0.05500
N 	N 	0.32825 0.68944 0.26094 -0.19900
H 	H 	0.23155 0.72983 0.12711 0.05200
N 	N 	0.18760 0.78495 0.12936 -0.19400
H 	H 	0.34175 0.69515 0.28920 0.08600
H 	H 	0.33726 0.66107 0.25903 0.09000
H 	H 	0.17513 0.78003 0.10104 0.08700
H 	H 	0.17246 0.80778 0.13175 0.08700
H 	H 	0.06201 0.66985 0.22210 0.08300
H 	H 	0.13066 0.66982 0.22817 0.08900
H 	H 	0.26330 0.99227 0.18696 0.09900
H 	H 	0.33229 0.99321 0.19229 0.08800
C 	C 	0.75366 0.26525 0.52906 -0.04800
C 	C 	0.73299 0.25678 0.49053 0.09800
C 	C 	0.75247 0.22743 0.48469 -0.08500
C 	C 	0.79177 0.20622 0.51662 -0.00900
C 	C 	0.81604 0.21858 0.55447 0.07200
C 	C 	0.79654 0.24788 0.56026 -0.05400
N 	N 	0.69421 0.27622 0.45919 -0.19900
H 	H 	0.73532 0.21939 0.45551 0.05200
C 	C 	0.80384 0.16760 0.51092 0.00400
H 	H 	0.81317 0.25535 0.58955 0.04700
C 	C 	0.86445 0.20010 0.50080 -0.10000
C 	C 	0.76173 0.09804 0.52263 0.05700
H 	H 	0.89456 0.25295 0.48890 0.05600
N 	N 	0.69817 0.06427 0.52702 -0.19100
H 	H 	0.66842 0.01307 0.53717 0.07800
H 	H 	0.67700 0.08829 0.51933 0.08700
H 	H 	0.68097 0.30024 0.46213 0.09200
H 	H 	0.67795 0.26852 0.43109 0.08500
C 	C 	0.83432 0.64273 0.60757 0.12700
C 	C 	0.80925 0.59008 0.59503 -0.09500
C 	C 	0.81400 0.60070 0.55754 0.00200
N 	N 	0.83108 0.63188 0.64443 -0.20500
H 	H 	0.78857 0.54135 0.61511 0.05700
C 	C 	0.79734 0.54659 0.54779 -0.00600
C 	C 	0.73421 0.51073 0.52232 -0.08600
C 	C 	0.71464 0.45606 0.51508 0.10300
C 	C 	0.75624 0.43349 0.53641 -0.05000
C 	C 	0.82150 0.47202 0.55953 -0.05300
C 	C 	0.84298 0.52911 0.56498 0.07100
H 	H 	0.70041 0.52562 0.50791 0.05800
N 	N 	0.65595 0.42535 0.48767 -0.19900
H 	H 	0.85434 0.45591 0.57493 0.04900
N 	N 	0.90706 0.56654 0.58676 -0.19400
H 	H 	0.62392 0.44043 0.47317 0.08800
H 	H 	0.64322 0.38829 0.47921 0.09300
H 	H 	0.93964 0.55225 0.60028 0.08400
H 	H 	0.92590 0.61102 0.58950 0.08900
H 	H 	0.84614 0.66948 0.65356 0.09200
H 	H 	0.81147 0.58501 0.66389 0.08500
C 	C 	0.57736 0.20050 0.57869 -0.05100
C 	C 	0.57250 0.20404 0.61150 0.10100
C 	C 	0.50794 0.17225 0.61616 -0.08600
C 	C 	0.44844 0.13247 0.59072 -0.00800
C 	C 	0.45364 0.12078 0.56193 0.07200
C 	C 	0.51822 0.15595 0.55567 -0.05400
N 	N 	0.62959 0.23746 0.63866 -0.19900
H 	H 	0.50397 0.17890 0.63939 0.05400
C 	C 	0.38164 0.10936 0.59145 0.00200
N 	N 	0.39703 0.07630 0.54017 -0.19400
H 	H 	0.52207 0.15098 0.53158 0.05000
C 	C 	0.35093 0.14018 0.56044 -0.09500
C 	C 	0.28515 0.11624 0.55815 0.13100
C 	C 	0.25028 0.06138 0.58802 -0.10400
C 	C 	0.28366 0.03463 0.62101 -0.04600
C 	C 	0.34826 0.05672 0.62251 0.06400
H 	H 	0.37755 0.18179 0.53737 0.06200
N 	N 	0.25542 0.14544 0.52694 -0.20300
H 	H 	0.25726 0.99334 0.64424 0.05900
N 	N 	0.37670 0.02581 0.65303 -0.20100
H 	H 	0.28064 0.18459 0.50431 0.09600
H 	H 	0.20780 0.13059 0.52524 0.09900
H 	H 	0.35179 0.98735 0.67593 0.09300
H 	H 	0.42293 0.03861 0.65402 0.08600
H 	H 	0.40102 0.06964 0.51799 0.08800
H 	H 	0.34902 0.04626 0.54605 0.09200
H 	H 	0.67762 0.25588 0.63820 0.09100
H 	H 	0.62593 0.24241 0.66182 0.08400
C 	C 	0.81378 0.18328 0.02608 0.00400
C 	C 	0.79181 0.12657 0.05815 0.06000
C 	C 	0.81836 0.09099 0.07244 -0.02500
C 	C 	0.80775 0.23471 0.01951 -0.01000
N 	N 	0.74704 0.10731 0.07603 -0.19200
H 	H 	0.81035 0.05433 0.10069 0.03800
C 	C 	0.75860 0.24148 0.98684 -0.08500
C 	C 	0.74248 0.28026 0.98420 0.10000
C 	C 	0.77259 0.30871 0.01625 -0.05000
C 	C 	0.82661 0.30743 0.04678 -0.05500
C 	C 	0.84587 0.27217 0.04803 0.07300
H 	H 	0.73193 0.21560 0.96384 0.05200
N 	N 	0.69898 0.29078 0.95071 -0.19900
H 	H 	0.85198 0.33173 0.07041 0.05000
N 	N 	0.90067 0.27436 0.07655 -0.19500
H 	H 	0.67447 0.26727 0.92797 0.08400
H 	H 	0.69195 0.32499 0.94603 0.09200
H 	H 	0.73297 0.06672 0.10068 0.08400
H 	H 	0.72363 0.13065 0.06459 0.08900
C 	C 	0.83976 0.70593 0.07043 0.13700
C 	C 	0.81591 0.64985 0.06237 -0.10000
C 	C 	0.84101 0.61228 0.08948 0.00700
N 	N 	0.81703 0.74324 0.04319 -0.20500
H 	H 	0.77976 0.63688 0.03436 0.06500
C 	C 	0.82234 0.55897 0.07761 -0.00800
C 	C 	0.84527 0.57542 0.04567 -0.08400
C 	C 	0.82644 0.52613 0.03266 0.10300
C 	C 	0.78684 0.45944 0.05340 -0.05000
C 	C 	0.77075 0.44419 0.08802 -0.05200
C 	C 	0.78261 0.49223 0.09813 0.07200
N 	N 	0.84595 0.54319 0.00018 -0.20000
H 	H 	0.74241 0.39341 0.10470 0.04700
N 	N 	0.75418 0.47377 0.12665 -0.19400
H 	H 	0.83468 0.50819 0.99047 0.09700
H 	H 	0.72723 0.42472 0.14272 0.08300
H 	H 	0.75566 0.50704 0.13186 0.09000
H 	H 	0.83199 0.78358 0.04918 0.11300
H 	H 	0.78212 0.73075 0.01620 0.10800
C 	C 	0.24312 0.09618 0.04977 -0.11200
C 	C 	0.27077 0.15201 0.01801 0.13500
C 	C 	0.33532 0.18083 0.01479 -0.09900
C 	C 	0.37015 0.15209 0.04084 0.00600
C 	C 	0.34182 0.09571 0.07209 0.05800
C 	C 	0.28089 0.07114 0.07772 -0.02600
N 	N 	0.23538 0.17744 0.99021 -0.20300
H 	H 	0.35782 0.22487 0.99138 0.06300
C 	C 	0.43912 0.18497 0.03753 -0.00800
N 	N 	0.37145 0.06356 0.09576 -0.19200
H 	H 	0.25990 0.02874 0.10214 0.04200
C 	C 	0.49552 0.21315 0.06845 -0.08500
C 	C 	0.56142 0.24440 0.06647 0.10100
C 	C 	0.57214 0.25579 0.03061 -0.05000
C 	C 	0.51594 0.22636 0.00001 -0.05400
C 	C 	0.44909 0.18895 0.00374 0.07200
H 	H 	0.48773 0.20859 0.09479 0.05400
N 	N 	0.61396 0.26171 0.09936 -0.19900
H 	H 	0.52416 0.23332 0.97304 0.04900
N 	N 	0.39506 0.15646 0.97524 -0.19500
H 	H 	0.60660 0.25683 0.12496 0.08200
H 	H 	0.66119 0.27609 0.10071 0.09000
H 	H 	0.40294 0.16160 0.94976 0.09000
H 	H 	0.34510 0.12384 0.97880 0.09700
H 	H 	0.35163 0.02352 0.11977 0.07800
H 	H 	0.41198 0.07564 0.08938 0.08600
H 	H 	0.18721 0.15724 0.99152 0.10100
H 	H 	0.25605 0.21818 0.96668 0.09300
Co	Co	0.99258 0.98080 0.16466 1.18600
Co	Co	0.01569 0.91053 0.13332 1.18800
Co	Co	0.01329 0.10705 0.16367 1.17700
C 	C 	0.94327 0.79399 0.10576 0.31300
O 	O 	0.96445 0.13798 0.10782 -0.41200
O 	O 	0.02483 0.06058 0.14327 -0.76200
C 	C 	0.92061 0.10356 0.08067 0.30800
O 	O 	0.97476 0.89568 0.17205 -0.46900
O 	O 	0.04852 0.01264 0.12160 -0.58200
C 	C 	0.98196 0.94289 0.00020 0.30200
O 	O 	0.93072 0.06983 0.07436 -0.41400
O 	O 	0.97828 0.97595 0.01240 -0.37300
O 	O 	0.92126 0.02040 0.17930 -0.40400
O 	O 	0.89577 0.95609 0.14597 -0.41300
O 	O 	0.06854 0.08468 0.21870 -0.36400
O 	O 	0.02505 0.97961 0.22607 -0.36600
O 	O 	0.00511 0.81745 0.10786 -0.40500
O 	O 	0.93319 0.82970 0.10967 -0.40200
Co	Co	0.93435 0.91914 0.66362 1.18600
Co	Co	0.98487 0.86661 0.63863 1.18300
Co	Co	0.91716 0.02699 0.65359 1.16100
C 	C 	0.92038 0.76393 0.59972 0.31200
O 	O 	0.92026 0.09291 0.59825 -0.42000
O 	O 	0.95631 0.99596 0.64163 -0.75200
C 	C 	0.89569 0.07621 0.56498 0.31300
O 	O 	0.93253 0.84176 0.67423 -0.46800
O 	O 	0.01171 0.96470 0.63074 -0.57200
C 	C 	0.99918 0.93749 0.50859 0.30700
O 	O 	0.91203 0.04501 0.56180 -0.40800
O 	O 	0.99359 0.96863 0.52123 -0.37600
O 	O 	0.82999 0.87497 0.64168 -0.39800
O 	O 	0.90842 0.96354 0.71040 -0.39800
O 	O 	0.96982 0.92844 0.72234 -0.37600
O 	O 	0.98310 0.78363 0.60818 -0.41300
O 	O 	0.90836 0.79651 0.60548 -0.40000
C 	C 	0.94638 0.89349 0.80577 -0.00300
C 	C 	0.97709 0.95258 0.77688 -0.08200
H 	H 	0.91786 0.84704 0.79916 0.05500
C 	C 	0.97818 0.95832 0.95744 -0.07000
C 	C 	0.91670 0.91819 0.93239 0.10800
C 	C 	0.91816 0.91858 0.89685 -0.06000
N 	N 	0.85287 0.87608 0.94323 -0.02300
H 	H 	0.87067 0.88928 0.87709 0.07700
O 	O 	0.05836 0.12342 0.75118 -0.11400
O 	O 	0.86057 0.78322 0.86428 -0.11100
O 	O 	0.83680 0.89915 0.95424 -0.10300
C 	C 	0.00833 0.02775 0.32178 -0.08200
C 	C 	0.02674 0.00512 0.27826 -0.10700
C 	C 	0.01379 0.04045 0.28411 0.12100
N 	N 	0.00440 0.08821 0.25162 -0.03000
H 	H 	0.99970 0.05592 0.32601 0.07200
C 	C 	0.99833 0.95640 0.46598 -0.08200
C 	C 	0.94051 0.91496 0.44032 0.11600
C 	C 	0.94708 0.92068 0.40480 -0.08000
N 	N 	0.87470 0.86838 0.44961 -0.02400
H 	H 	0.90269 0.88889 0.38516 0.07700
O 	O 	0.05658 0.14963 0.24575 -0.12200
O 	O 	0.94296 0.07287 0.23401 -0.13100
O 	O 	0.85488 0.88518 0.46294 -0.09900
O 	O 	0.83209 0.81157 0.44103 -0.11600
H 	H 	0.02279 0.21221 0.57774 0.10200
H 	H 	0.00952 0.26547 0.57727 0.08800
H 	H 	0.03247 0.23734 0.04081 0.09400
H 	H 	0.00965 0.29001 0.02841 0.08900
H 	H 	0.88934 0.90527 0.23544 0.10100
N 	N 	0.85753 0.20205 0.58540 -0.19600
C 	C 	0.88936 0.16514 0.50955 0.12800
C 	C 	0.85501 0.09830 0.53057 -0.11800
C 	C 	0.78724 0.06375 0.53122 -0.02300
N 	N 	0.94828 0.19671 0.50007 -0.20700
H 	H 	0.75781 0.01115 0.54362 0.03800
H 	H 	0.97536 0.24688 0.48606 0.08400
H 	H 	0.96670 0.17113 0.50580 0.09100
H 	H 	0.87452 0.21069 0.61331 0.08100
H 	H 	0.87419 0.18144 0.58204 0.08900
C 	C 	0.86440 0.70676 0.58212 -0.10800
C 	C 	0.83695 0.66337 0.53036 0.06800
C 	C 	0.85881 0.71497 0.54243 -0.02600
N 	N 	0.84122 0.67520 0.49352 -0.19300
H 	H 	0.87863 0.76347 0.52221 0.06800
H 	H 	0.86034 0.72217 0.47423 0.10600
H 	H 	0.82676 0.63848 0.48384 0.09500
C 	C 	0.86441 0.11003 0.05422 -0.11600
C 	C 	0.87243 0.15638 0.01664 0.12600
C 	C 	0.84957 0.19489 0.00364 -0.10200
N 	N 	0.90382 0.16551 0.99369 -0.20700
H 	H 	0.86218 0.23545 0.97717 0.05400
H 	H 	0.92701 0.30009 0.09839 0.08600
H 	H 	0.91945 0.25307 0.07627 0.09100
H 	H 	0.91760 0.13498 0.00164 0.09300
H 	H 	0.91253 0.20193 0.96682 0.08300
C 	C 	0.88885 0.72400 0.10627 -0.11700
C 	C 	0.88464 0.62678 0.12722 0.05600
C 	C 	0.90248 0.67892 0.13643 -0.01700
N 	N 	0.91207 0.59321 0.15377 -0.19100
H 	H 	0.93650 0.69056 0.16509 0.03900
H 	H 	0.87659 0.62661 0.03032 0.06100
H 	H 	0.87389 0.59242 0.98457 0.09400
H 	H 	0.94093 0.60183 0.18232 0.08000
H 	H 	0.90802 0.56079 0.14581 0.08800
