data_crystal

_cell_length_a 31.91755
_cell_length_b 31.91180
_cell_length_c 33.31747
_cell_angle_alpha 91.39952
_cell_angle_beta  89.99877
_cell_angle_gamma 89.72169

_symmetry_space_group_name_	'P 1'
_symmetry_space_group_name_H-M	'P 1'

loop_
_symmetry_equiv_pos_as_xyz
  x,y,z

loop_
_atom_site_label
_atom_site_type_symbol
_atom_site_fract_x
_atom_site_fract_y
_atom_site_fract_z
_atom_site_charge
C 	C 	0.96745 0.20675 0.27552 0.30700
C 	C 	0.96224 0.19846 0.09623 0.32900
C 	C 	0.03130 0.14334 0.19965 0.32800
C 	C 	0.89392 0.26055 0.16788 0.30500
C 	C 	0.07674 0.25614 0.14550 0.33100
C 	C 	0.00939 0.32652 0.21391 0.30700
Ni	Ni	0.95056 0.18765 0.18527 1.11400
Ni	Ni	0.98512 0.27234 0.14498 1.12200
Ni	Ni	0.03340 0.23482 0.21937 1.12300
O 	O 	0.95615 0.17834 0.24753 -0.36600
O 	O 	0.99654 0.23545 0.26876 -0.37800
O 	O 	0.04705 0.28399 0.13929 -0.38400
O 	O 	0.93636 0.18567 0.12397 -0.36800
O 	O 	0.99303 0.22376 0.10563 -0.38700
O 	O 	0.03961 0.29855 0.22085 -0.37800
O 	O 	0.00138 0.14855 0.17333 -0.37500
O 	O 	0.03813 0.17195 0.22787 -0.37800
O 	O 	0.98229 0.32132 0.18392 -0.38400
O 	O 	0.89872 0.22702 0.19034 -0.37000
O 	O 	0.92115 0.26934 0.13898 -0.37500
O 	O 	0.07183 0.22699 0.17213 -0.38900
O 	O 	0.98311 0.23634 0.18930 -0.72000
H 	H 	0.96559 0.25348 0.20774 0.15900
C 	C 	0.96628 0.20581 0.77606 0.30600
C 	C 	0.96280 0.20065 0.59674 0.32800
C 	C 	0.03124 0.14406 0.69998 0.32700
C 	C 	0.89313 0.26074 0.66888 0.30400
C 	C 	0.07609 0.25822 0.64765 0.32900
C 	C 	0.00800 0.32708 0.71687 0.30700
Ni	Ni	0.95043 0.18809 0.68544 1.11400
Ni	Ni	0.98444 0.27393 0.64699 1.12200
Ni	Ni	0.03255 0.23536 0.72098 1.12300
O 	O 	0.95555 0.17773 0.74756 -0.36600
O 	O 	0.99529 0.23479 0.77007 -0.37800
O 	O 	0.04631 0.28613 0.64201 -0.38400
O 	O 	0.93678 0.18714 0.62403 -0.36900
O 	O 	0.99313 0.22628 0.60673 -0.38700
O 	O 	0.03830 0.29912 0.72357 -0.37800
O 	O 	0.00171 0.14966 0.67336 -0.37600
O 	O 	0.03777 0.17234 0.72858 -0.37800
O 	O 	0.98095 0.32211 0.68681 -0.38400
O 	O 	0.89817 0.22686 0.69080 -0.37000
O 	O 	0.92053 0.27049 0.64042 -0.37500
O 	O 	0.07142 0.22868 0.67394 -0.38900
O 	O 	0.98247 0.23700 0.69058 -0.72100
H 	H 	0.96465 0.25363 0.70917 0.15900
C 	C 	0.15521 0.70833 0.22082 0.30600
C 	C 	0.16056 0.70379 0.39992 0.32700
C 	C 	0.09289 0.64546 0.29552 0.32700
C 	C 	0.22729 0.76573 0.32998 0.30400
C 	C 	0.04467 0.75818 0.35243 0.32900
C 	C 	0.11053 0.82813 0.28510 0.30600
Ni	Ni	0.17264 0.69144 0.31054 1.11400
Ni	Ni	0.13572 0.77641 0.35315 1.12200
Ni	Ni	0.08844 0.73625 0.27776 1.12200
O 	O 	0.16729 0.68067 0.24801 -0.36500
O 	O 	0.12520 0.73651 0.22834 -0.37800
O 	O 	0.07345 0.78690 0.35912 -0.38300
O 	O 	0.18691 0.69116 0.37180 -0.36900
O 	O 	0.12926 0.72869 0.39145 -0.38600
O 	O 	0.08065 0.79981 0.27802 -0.37800
O 	O 	0.12319 0.65136 0.32151 -0.37600
O 	O 	0.08562 0.67310 0.26776 -0.37900
O 	O 	0.13712 0.82469 0.31558 -0.38200
O 	O 	0.22329 0.73175 0.30646 -0.37000
O 	O 	0.19976 0.77473 0.35907 -0.37500
O 	O 	0.05018 0.72874 0.32476 -0.39000
O 	O 	0.13864 0.73936 0.30791 -0.72000
H 	H 	0.15567 0.75642 0.28991 0.15900
C 	C 	0.15490 0.70730 0.72072 0.30600
C 	C 	0.16149 0.70448 0.89978 0.32700
C 	C 	0.09220 0.64588 0.79641 0.32700
C 	C 	0.22868 0.76442 0.82884 0.30500
C 	C 	0.04618 0.75958 0.85281 0.32900
C 	C 	0.11187 0.82835 0.78423 0.30600
Ni	Ni	0.17266 0.69091 0.81043 1.11400
Ni	Ni	0.13733 0.77685 0.85238 1.12200
Ni	Ni	0.08882 0.73653 0.77782 1.12200
O 	O 	0.16662 0.67962 0.74803 -0.36600
O 	O 	0.12512 0.73576 0.72807 -0.37800
O 	O 	0.07526 0.78816 0.85868 -0.38400
O 	O 	0.18741 0.69110 0.87160 -0.36900
O 	O 	0.13049 0.72973 0.89127 -0.38600
O 	O 	0.08174 0.80018 0.77748 -0.37800
O 	O 	0.12269 0.65174 0.82220 -0.37600
O 	O 	0.08506 0.67332 0.76844 -0.37800
O 	O 	0.13902 0.82462 0.81422 -0.38300
O 	O 	0.22381 0.73042 0.80553 -0.37000
O 	O 	0.20140 0.77436 0.85790 -0.37500
O 	O 	0.05086 0.72996 0.82518 -0.39000
O 	O 	0.13935 0.73928 0.80751 -0.72000
H 	H 	0.15646 0.75590 0.78920 0.15900
C 	C 	0.65283 0.90941 0.53182 0.30500
C 	C 	0.66112 0.91320 0.35286 0.32700
C 	C 	0.59231 0.97314 0.45552 0.32700
C 	C 	0.72659 0.85059 0.42373 0.30500
C 	C 	0.54413 0.86074 0.39884 0.32900
C 	C 	0.60793 0.79027 0.46738 0.30600
Ni	Ni	0.67199 0.92566 0.44234 1.11400
Ni	Ni	0.63511 0.84114 0.39959 1.12200
Ni	Ni	0.58677 0.88267 0.47390 1.12200
O 	O 	0.66556 0.93681 0.50476 -0.36500
O 	O 	0.62245 0.88201 0.52402 -0.37800
O 	O 	0.57289 0.83161 0.39263 -0.38300
O 	O 	0.68724 0.92530 0.38128 -0.36900
O 	O 	0.62960 0.88871 0.36092 -0.38600
O 	O 	0.57830 0.81929 0.47385 -0.37800
O 	O 	0.62321 0.96666 0.43027 -0.37600
O 	O 	0.58438 0.94593 0.48343 -0.37900
O 	O 	0.63536 0.79313 0.43754 -0.38200
O 	O 	0.72212 0.88442 0.44742 -0.37000
O 	O 	0.69927 0.84165 0.39450 -0.37500
O 	O 	0.54964 0.89053 0.42611 -0.39000
O 	O 	0.63754 0.87839 0.44469 -0.72000
H 	H 	0.65406 0.86113 0.46307 0.15900
C 	C 	0.65448 0.90971 0.03258 0.30500
C 	C 	0.66080 0.90943 0.85341 0.32700
C 	C 	0.59161 0.97022 0.95600 0.32600
C 	C 	0.72844 0.85030 0.92538 0.30500
C 	C 	0.54589 0.85561 0.90141 0.32900
C 	C 	0.61174 0.78781 0.97101 0.30700
Ni	Ni	0.67212 0.92440 0.94257 1.11400
Ni	Ni	0.63715 0.83795 0.90207 1.12200
Ni	Ni	0.58846 0.87991 0.97596 1.12200
O 	O 	0.66606 0.93683 0.00482 -0.36400
O 	O 	0.62474 0.88136 0.02573 -0.37600
O 	O 	0.57513 0.82683 0.89596 -0.38400
O 	O 	0.68679 0.92298 0.88136 -0.36900
O 	O 	0.63006 0.88428 0.86225 -0.38600
O 	O 	0.58159 0.81635 0.97736 -0.37900
O 	O 	0.62195 0.96355 0.93016 -0.37600
O 	O 	0.58442 0.94328 0.98434 -0.37900
O 	O 	0.63904 0.79095 0.94109 -0.38300
O 	O 	0.72343 0.88473 0.94812 -0.37100
O 	O 	0.70121 0.84000 0.89647 -0.37500
O 	O 	0.55050 0.88579 0.92845 -0.39000
O 	O 	0.63901 0.87632 0.94630 -0.72100
H 	H 	0.65618 0.85995 0.96491 0.15900
C 	C 	0.46561 0.41080 0.97641 0.30300
C 	C 	0.46169 0.41653 0.15571 0.32800
C 	C 	0.52958 0.47299 0.05284 0.32700
C 	C 	0.39330 0.35545 0.08346 0.30400
C 	C 	0.57612 0.35924 0.10504 0.32900
C 	C 	0.50892 0.29005 0.03593 0.30800
Ni	Ni	0.44921 0.42860 0.06694 1.11400
Ni	Ni	0.48466 0.34317 0.10579 1.12200
Ni	Ni	0.53221 0.38180 0.03171 1.12300
O 	O 	0.45435 0.43887 0.00482 -0.36400
O 	O 	0.49507 0.38203 0.98254 -0.37900
O 	O 	0.54670 0.33131 0.11093 -0.38400
O 	O 	0.43542 0.42958 0.12831 -0.36900
O 	O 	0.49245 0.39102 0.14594 -0.38600
O 	O 	0.53889 0.31807 0.02926 -0.37800
O 	O 	0.49971 0.46757 0.07912 -0.37600
O 	O 	0.53637 0.44483 0.02413 -0.37800
O 	O 	0.48197 0.29481 0.06615 -0.38300
O 	O 	0.39762 0.38941 0.06157 -0.36900
O 	O 	0.42070 0.34623 0.11215 -0.37500
O 	O 	0.57090 0.38879 0.07880 -0.39000
O 	O 	0.48215 0.37994 0.06206 -0.72000
H 	H 	0.46465 0.36312 0.04347 0.15900
C 	C 	0.46567 0.41240 0.47672 0.30600
C 	C 	0.46051 0.41841 0.65602 0.32800
C 	C 	0.52868 0.47474 0.55307 0.32700
C 	C 	0.39233 0.35733 0.58371 0.30400
C 	C 	0.57515 0.36058 0.60605 0.32900
C 	C 	0.50792 0.29174 0.53668 0.30700
Ni	Ni	0.44850 0.43026 0.56717 1.11400
Ni	Ni	0.48358 0.34491 0.60642 1.12200
Ni	Ni	0.53171 0.38333 0.53257 1.12200
O 	O 	0.45404 0.44042 0.50505 -0.36600
O 	O 	0.49491 0.38350 0.48318 -0.37800
O 	O 	0.54555 0.33283 0.61190 -0.38400
O 	O 	0.43438 0.43145 0.62849 -0.36900
O 	O 	0.49131 0.39291 0.64638 -0.38600
O 	O 	0.53814 0.31957 0.53029 -0.37800
O 	O 	0.49920 0.46881 0.57961 -0.37600
O 	O 	0.53620 0.44633 0.52476 -0.37800
O 	O 	0.48095 0.29649 0.56687 -0.38300
O 	O 	0.39689 0.39113 0.56164 -0.37000
O 	O 	0.41961 0.34815 0.61252 -0.37500
O 	O 	0.57006 0.39025 0.57992 -0.38900
O 	O 	0.48138 0.38155 0.56255 -0.72000
H 	H 	0.46397 0.36473 0.54389 0.15900
C 	C 	0.43643 0.43541 0.77547 -0.00400
C 	C 	0.41301 0.40481 0.79482 -0.03100
C 	C 	0.41326 0.40309 0.83673 -0.03400
C 	C 	0.43690 0.43199 0.85941 -0.00100
C 	C 	0.45737 0.46471 0.84020 -0.03300
C 	C 	0.45716 0.46640 0.79829 -0.03100
C 	C 	0.44574 0.42421 0.90094 0.04600
C 	C 	0.45358 0.41829 0.93573 -0.09400
C 	C 	0.44481 0.43082 0.73313 0.05300
C 	C 	0.45137 0.42632 0.69766 -0.10500
H 	H 	0.39649 0.38100 0.77739 0.04400
H 	H 	0.39694 0.37798 0.85137 0.04400
H 	H 	0.47532 0.48748 0.85756 0.04500
H 	H 	0.47495 0.49045 0.78357 0.04400
C 	C 	0.43928 0.43369 0.35924 -0.00100
C 	C 	0.46359 0.46323 0.33939 -0.03300
C 	C 	0.46348 0.46414 0.29746 -0.03100
C 	C 	0.43904 0.43558 0.27521 -0.00400
C 	C 	0.41212 0.40841 0.29516 -0.03100
C 	C 	0.41228 0.40744 0.33713 -0.03300
C 	C 	0.44653 0.42960 0.23285 0.05200
C 	C 	0.45284 0.42462 0.19738 -0.10500
C 	C 	0.44709 0.42585 0.40095 0.04600
C 	C 	0.45430 0.41999 0.43589 -0.09400
H 	H 	0.48422 0.48395 0.35629 0.04500
H 	H 	0.48405 0.48555 0.28227 0.04500
H 	H 	0.39275 0.38653 0.27818 0.04400
H 	H 	0.39307 0.38480 0.35227 0.04400
C 	C 	0.54396 0.08867 0.96813 0.00000
C 	C 	0.56438 0.12160 0.94923 -0.03500
C 	C 	0.55391 0.16318 0.95918 -0.02900
C 	C 	0.52297 0.17197 0.98807 -0.00900
C 	C 	0.50075 0.13903 0.00508 -0.02400
C 	C 	0.51123 0.09745 0.99514 -0.04000
C 	C 	0.51792 0.21401 0.00407 0.05200
C 	C 	0.51332 0.24905 0.01778 -0.09600
C 	C 	0.56000 0.04656 0.96367 0.04900
C 	C 	0.57373 0.01145 0.95969 -0.10100
H 	H 	0.58951 0.11505 0.92808 0.04500
H 	H 	0.57104 0.18847 0.94568 0.04300
H 	H 	0.47659 0.14557 0.02725 0.04300
H 	H 	0.49508 0.07216 0.00966 0.04800
C 	C 	0.59740 0.67245 0.01919 -0.00300
C 	C 	0.61977 0.63831 0.00262 -0.03000
C 	C 	0.60937 0.59743 0.01297 -0.03000
C 	C 	0.57655 0.59056 0.03995 -0.00400
C 	C 	0.55591 0.62481 0.05836 -0.03200
C 	C 	0.56631 0.66568 0.04801 -0.03200
C 	C 	0.56065 0.54883 0.04482 0.05200
C 	C 	0.54713 0.51401 0.04908 -0.10200
C 	C 	0.60262 0.71352 0.00297 0.05200
C 	C 	0.60729 0.74775 0.98913 -0.09800
H 	H 	0.64404 0.64330 0.98051 0.04200
H 	H 	0.62568 0.57113 0.99881 0.04200
H 	H 	0.53070 0.61975 0.07946 0.04400
H 	H 	0.54906 0.69193 0.06117 0.04400
C 	C 	0.68185 0.92881 0.73453 -0.00400
C 	C 	0.70775 0.90095 0.71263 -0.03100
C 	C 	0.70707 0.90061 0.67062 -0.03300
C 	C 	0.68052 0.92813 0.65040 -0.00100
C 	C 	0.65715 0.95814 0.67232 -0.03300
C 	C 	0.65780 0.95846 0.71430 -0.03100
C 	C 	0.67219 0.92132 0.60825 0.04600
C 	C 	0.66463 0.91625 0.57301 -0.09400
C 	C 	0.67499 0.92269 0.77672 0.05200
C 	C 	0.66922 0.91759 0.81203 -0.10400
H 	H 	0.72677 0.87819 0.72805 0.04400
H 	H 	0.72554 0.87757 0.65390 0.04400
H 	H 	0.63683 0.97980 0.65691 0.04500
H 	H 	0.63798 0.98034 0.73100 0.04400
C 	C 	0.68315 0.93194 0.15044 -0.00100
C 	C 	0.71041 0.90541 0.17101 -0.03300
C 	C 	0.71099 0.90626 0.21303 -0.03100
C 	C 	0.68426 0.93362 0.23457 -0.00400
C 	C 	0.65973 0.96259 0.21395 -0.03100
C 	C 	0.65919 0.96177 0.17197 -0.03300
C 	C 	0.67671 0.92717 0.27658 0.05200
C 	C 	0.67036 0.92179 0.31175 -0.10400
C 	C 	0.67449 0.92390 0.10854 0.04600
C 	C 	0.66663 0.91781 0.07349 -0.09300
H 	H 	0.72942 0.88258 0.15458 0.04400
H 	H 	0.73045 0.88409 0.22874 0.04400
H 	H 	0.63933 0.98416 0.23038 0.04400
H 	H 	0.63840 0.98275 0.15628 0.04500
C 	C 	0.54314 0.09089 0.46793 -0.00400
C 	C 	0.51248 0.09915 0.49720 -0.03100
C 	C 	0.50157 0.14052 0.50743 -0.03300
C 	C 	0.52131 0.17381 0.48844 -0.00100
C 	C 	0.54994 0.16549 0.45733 -0.03300
C 	C 	0.56084 0.12409 0.44708 -0.03100
C 	C 	0.51651 0.21584 0.50448 0.04700
C 	C 	0.51210 0.25082 0.51834 -0.09400
C 	C 	0.56015 0.04923 0.46302 0.05200
C 	C 	0.57426 0.01428 0.45904 -0.10200
H 	H 	0.49841 0.07363 0.51323 0.04400
H 	H 	0.47916 0.14670 0.53131 0.04500
H 	H 	0.56509 0.19106 0.44228 0.04400
H 	H 	0.58431 0.11794 0.42415 0.04400
C 	C 	0.56959 0.59421 0.53829 -0.00400
C 	C 	0.54136 0.62719 0.54607 -0.03100
C 	C 	0.55141 0.66793 0.53513 -0.03300
C 	C 	0.58975 0.67590 0.51637 -0.00100
C 	C 	0.61888 0.64331 0.51042 -0.03300
C 	C 	0.60881 0.60251 0.52137 -0.03100
C 	C 	0.59713 0.71625 0.49936 0.04600
C 	C 	0.60272 0.75023 0.48533 -0.09400
C 	C 	0.55650 0.55161 0.54367 0.05200
C 	C 	0.54460 0.51629 0.54848 -0.10300
H 	H 	0.51105 0.62104 0.55930 0.04400
H 	H 	0.52880 0.69300 0.53997 0.04500
H 	H 	0.64868 0.64927 0.49611 0.04400
H 	H 	0.63089 0.57721 0.51545 0.04400
C 	C 	0.42900 0.83550 0.85569 -0.00400
C 	C 	0.42120 0.80109 0.82987 -0.03100
C 	C 	0.37998 0.78981 0.82059 -0.03300
C 	C 	0.34641 0.81288 0.83710 -0.00100
C 	C 	0.35427 0.84878 0.86093 -0.03300
C 	C 	0.39550 0.86007 0.87020 -0.03200
C 	C 	0.30449 0.79669 0.83394 0.04600
C 	C 	0.26958 0.78271 0.83101 -0.09400
C 	C 	0.47058 0.84255 0.87107 0.05200
C 	C 	0.50524 0.84880 0.88419 -0.10300
H 	H 	0.44695 0.78211 0.81830 0.04400
H 	H 	0.37414 0.76216 0.80192 0.04500
H 	H 	0.32849 0.86694 0.87359 0.04400
H 	H 	0.40130 0.88691 0.88995 0.04400
C 	C 	0.92928 0.77879 0.89927 -0.00400
C 	C 	0.92111 0.81286 0.92549 -0.03200
C 	C 	0.87975 0.82406 0.93479 -0.03300
C 	C 	0.84644 0.80125 0.91788 -0.00100
C 	C 	0.85469 0.76558 0.89375 -0.03300
C 	C 	0.89605 0.75437 0.88446 -0.03200
C 	C 	0.80443 0.81764 0.92078 0.04600
C 	C 	0.76943 0.83178 0.92349 -0.09400
C 	C 	0.97090 0.77211 0.88367 0.05100
C 	C 	0.00557 0.76613 0.87033 -0.10200
H 	H 	0.94665 0.83169 0.93733 0.04400
H 	H 	0.87362 0.85150 0.95372 0.04400
H 	H 	0.82911 0.74760 0.88080 0.04400
H 	H 	0.90214 0.72776 0.86443 0.04400
C 	C 	0.18442 0.68791 0.60264 -0.00100
C 	C 	0.20558 0.71908 0.58191 -0.03300
C 	C 	0.20580 0.71834 0.53993 -0.03100
C 	C 	0.18483 0.68642 0.51852 -0.00400
C 	C 	0.16669 0.65338 0.53924 -0.03100
C 	C 	0.16652 0.65411 0.58125 -0.03300
C 	C 	0.17635 0.69109 0.47642 0.05200
C 	C 	0.16971 0.69581 0.44119 -0.10400
C 	C 	0.17493 0.69436 0.64459 0.04600
C 	C 	0.16700 0.69979 0.67971 -0.09400
H 	H 	0.21987 0.74510 0.59822 0.04400
H 	H 	0.22032 0.74376 0.52412 0.04300
H 	H 	0.15084 0.62832 0.52290 0.04400
H 	H 	0.15049 0.62961 0.59707 0.04500
C 	C 	0.18332 0.68777 0.10258 -0.00100
C 	C 	0.16030 0.65736 0.08114 -0.03200
C 	C 	0.16080 0.65643 0.03916 -0.03200
C 	C 	0.18436 0.68587 0.01845 -0.00100
C 	C 	0.21009 0.71402 0.03990 -0.03300
C 	C 	0.20954 0.71498 0.08191 -0.03300
C 	C 	0.17688 0.69169 0.97633 0.04900
C 	C 	0.17059 0.69653 0.94107 -0.10300
C 	C 	0.17486 0.69534 0.14459 0.04700
C 	C 	0.16716 0.70099 0.17974 -0.09400
H 	H 	0.14029 0.63590 0.09691 0.04500
H 	H 	0.14114 0.63431 0.02281 0.04500
H 	H 	0.22878 0.73659 0.02410 0.04500
H 	H 	0.22780 0.73829 0.09827 0.04400
C 	C 	0.42593 0.84182 0.35583 -0.00400
C 	C 	0.39232 0.86255 0.37491 -0.03100
C 	C 	0.35114 0.85064 0.36620 -0.03300
C 	C 	0.34342 0.81794 0.33837 -0.00100
C 	C 	0.37691 0.79902 0.31747 -0.03300
C 	C 	0.41810 0.81093 0.32619 -0.03100
C 	C 	0.30211 0.80024 0.33513 0.04600
C 	C 	0.26765 0.78519 0.33221 -0.09400
C 	C 	0.46799 0.84852 0.37014 0.05200
C 	C 	0.50301 0.85449 0.38248 -0.10300
H 	H 	0.39812 0.88669 0.39765 0.04400
H 	H 	0.32540 0.86562 0.38228 0.04400
H 	H 	0.37117 0.77391 0.29570 0.04500
H 	H 	0.44390 0.79497 0.31108 0.04400
C 	C 	0.92656 0.77675 0.39636 -0.00300
C 	C 	0.89319 0.75516 0.37812 -0.03200
C 	C 	0.85185 0.76658 0.38726 -0.03300
C 	C 	0.84374 0.79964 0.41468 -0.00100
C 	C 	0.87708 0.81947 0.43474 -0.03300
C 	C 	0.91842 0.80806 0.42559 -0.03100
C 	C 	0.80206 0.81681 0.41818 0.04600
C 	C 	0.76729 0.83145 0.42134 -0.09400
C 	C 	0.96860 0.77024 0.38169 0.05100
C 	C 	0.00359 0.76442 0.36907 -0.10200
H 	H 	0.89924 0.73070 0.35570 0.04400
H 	H 	0.82625 0.75091 0.37181 0.04400
H 	H 	0.87105 0.84488 0.45617 0.04500
H 	H 	0.94405 0.82468 0.44005 0.04400
C 	C 	0.27583 0.30589 0.58939 -0.00100
C 	C 	0.26867 0.27102 0.61318 -0.03300
C 	C 	0.22766 0.25850 0.62132 -0.03100
C 	C 	0.19368 0.28081 0.60570 -0.00400
C 	C 	0.20090 0.31415 0.58000 -0.03100
C 	C 	0.24191 0.32666 0.57186 -0.03300
C 	C 	0.15191 0.27274 0.61978 0.05200
C 	C 	0.11708 0.26570 0.63179 -0.10300
C 	C 	0.31722 0.32340 0.58704 0.04600
C 	C 	0.35176 0.33829 0.58489 -0.09400
H 	H 	0.29474 0.25462 0.62664 0.04400
H 	H 	0.22233 0.23252 0.64100 0.04400
H 	H 	0.17479 0.33138 0.56759 0.04400
H 	H 	0.24721 0.35349 0.55323 0.04500
C 	C 	0.77509 0.30973 0.66308 -0.00100
C 	C 	0.76750 0.34869 0.64587 -0.03300
C 	C 	0.72638 0.36147 0.63794 -0.03200
C 	C 	0.69274 0.33530 0.64717 -0.00400
C 	C 	0.70025 0.29736 0.66629 -0.03100
C 	C 	0.74133 0.28461 0.67423 -0.03300
C 	C 	0.65126 0.34498 0.63303 0.05200
C 	C 	0.61637 0.35269 0.62136 -0.10300
C 	C 	0.81719 0.29352 0.66529 0.04600
C 	C 	0.85214 0.27926 0.66743 -0.09400
H 	H 	0.79343 0.36840 0.63738 0.04400
H 	H 	0.72082 0.39096 0.62334 0.04400
H 	H 	0.67440 0.27706 0.67369 0.04500
H 	H 	0.74694 0.25454 0.68774 0.04500
C 	C 	0.09840 0.94437 0.73691 -0.00100
C 	C 	0.07060 0.95109 0.70511 -0.03300
C 	C 	0.06040 0.99198 0.69425 -0.03200
C 	C 	0.07795 0.02627 0.71518 -0.00300
C 	C 	0.10757 0.01948 0.74541 -0.03100
C 	C 	0.11778 0.97862 0.75625 -0.03400
C 	C 	0.06183 0.06788 0.70915 0.05200
C 	C 	0.04849 0.10281 0.70428 -0.10200
C 	C 	0.10323 0.90302 0.75274 0.04600
C 	C 	0.10762 0.86862 0.76639 -0.09300
H 	H 	0.05569 0.92477 0.68983 0.04400
H 	H 	0.03766 0.99696 0.67067 0.04400
H 	H 	0.12146 0.04583 0.76157 0.04400
H 	H 	0.13951 0.97368 0.78069 0.04500
C 	C 	0.04330 0.52848 0.78349 -0.00400
C 	C 	0.01192 0.52016 0.75501 -0.03100
C 	C 	0.00116 0.47873 0.74516 -0.03300
C 	C 	0.02174 0.44549 0.76373 -0.00100
C 	C 	0.05124 0.45389 0.79400 -0.03300
C 	C 	0.06200 0.49532 0.80386 -0.03100
C 	C 	0.01672 0.40334 0.74810 0.04700
C 	C 	0.01218 0.36823 0.73467 -0.09400
C 	C 	0.05984 0.57021 0.78822 0.05200
C 	C 	0.07394 0.60502 0.79242 -0.10200
H 	H 	0.99709 0.54563 0.73935 0.04300
H 	H 	0.97811 0.47249 0.72191 0.04400
H 	H 	0.06709 0.42837 0.80870 0.04400
H 	H 	0.08606 0.50152 0.82614 0.04400
C 	C 	0.93666 0.18263 0.97700 -0.00800
C 	C 	0.91615 0.21544 0.95767 -0.03000
C 	C 	0.91627 0.21690 0.91576 -0.03400
C 	C 	0.93684 0.18554 0.89303 -0.00000
C 	C 	0.95417 0.15089 0.91223 -0.03400
C 	C 	0.95411 0.14946 0.95417 -0.03000
C 	C 	0.94632 0.19241 0.85147 0.04600
C 	C 	0.95424 0.19820 0.81668 -0.09400
C 	C 	0.94564 0.18655 0.01926 0.05600
C 	C 	0.95264 0.19080 0.05467 -0.10600
H 	H 	0.90214 0.24097 0.97510 0.04200
H 	H 	0.90240 0.24357 0.90113 0.04400
H 	H 	0.96970 0.12623 0.89484 0.04500
H 	H 	0.96958 0.12372 0.96888 0.04300
C 	C 	0.94020 0.18699 0.39308 -0.00100
C 	C 	0.91643 0.21609 0.41567 -0.03300
C 	C 	0.91626 0.21459 0.45759 -0.03100
C 	C 	0.93989 0.18400 0.47705 -0.00400
C 	C 	0.96093 0.15293 0.45434 -0.03100
C 	C 	0.96108 0.15441 0.41242 -0.03300
C 	C 	0.94788 0.18849 0.51946 0.05200
C 	C 	0.95411 0.19290 0.55499 -0.10500
C 	C 	0.94852 0.19428 0.35136 0.04600
C 	C 	0.95595 0.19978 0.31642 -0.09400
H 	H 	0.89986 0.24113 0.40093 0.04400
H 	H 	0.89955 0.23848 0.47494 0.04400
H 	H 	0.97894 0.12892 0.46914 0.04400
H 	H 	0.97917 0.13152 0.39513 0.04500
C 	C 	0.19477 0.27818 0.10437 -0.00400
C 	C 	0.20222 0.31090 0.07802 -0.03100
C 	C 	0.24328 0.32347 0.07020 -0.03300
C 	C 	0.27704 0.30336 0.08870 -0.00100
C 	C 	0.26969 0.26904 0.11316 -0.03300
C 	C 	0.22863 0.25647 0.12097 -0.03100
C 	C 	0.31837 0.32107 0.08656 0.04600
C 	C 	0.35284 0.33614 0.08457 -0.09300
C 	C 	0.15284 0.27029 0.11813 0.05300
C 	C 	0.11788 0.26339 0.12988 -0.10300
H 	H 	0.17622 0.32766 0.06485 0.04500
H 	H 	0.24873 0.34985 0.05105 0.04500
H 	H 	0.29564 0.25314 0.12735 0.04400
H 	H 	0.22313 0.23095 0.14116 0.04400
C 	C 	0.77688 0.31187 0.16192 -0.00100
C 	C 	0.76917 0.34647 0.13783 -0.03300
C 	C 	0.72797 0.35890 0.12990 -0.03100
C 	C 	0.69434 0.33678 0.14602 -0.00400
C 	C 	0.70210 0.30369 0.17195 -0.03100
C 	C 	0.74330 0.29126 0.17988 -0.03300
C 	C 	0.65235 0.34480 0.13229 0.05300
C 	C 	0.61733 0.35181 0.12058 -0.10300
C 	C 	0.81850 0.29449 0.16429 0.04600
C 	C 	0.85320 0.27965 0.16649 -0.09400
H 	H 	0.79497 0.36272 0.12403 0.04400
H 	H 	0.72222 0.38468 0.11002 0.04400
H 	H 	0.67627 0.28660 0.18473 0.04400
H 	H 	0.74903 0.26464 0.19874 0.04500
C 	C 	0.07783 0.02552 0.21462 -0.00300
C 	C 	0.10935 0.01846 0.24298 -0.03100
C 	C 	0.11926 0.97755 0.25389 -0.03400
C 	C 	0.09768 0.94354 0.23648 -0.00100
C 	C 	0.06797 0.95047 0.20635 -0.03300
C 	C 	0.05807 0.99138 0.19544 -0.03200
C 	C 	0.10232 0.90246 0.25288 0.04600
C 	C 	0.10651 0.86822 0.26690 -0.09400
C 	C 	0.06211 0.06733 0.20902 0.05200
C 	C 	0.04874 0.10223 0.20414 -0.10200
H 	H 	0.12497 0.04468 0.25776 0.04400
H 	H 	0.14249 0.97243 0.27701 0.04500
H 	H 	0.05137 0.92432 0.19254 0.04500
H 	H 	0.03386 0.99658 0.17328 0.04400
C 	C 	0.04418 0.52829 0.28001 -0.00300
C 	C 	0.05816 0.49528 0.30366 -0.03200
C 	C 	0.04747 0.45394 0.29333 -0.03300
C 	C 	0.02276 0.44550 0.25933 -0.00100
C 	C 	0.00680 0.47871 0.23709 -0.03200
C 	C 	0.01749 0.52001 0.24741 -0.03200
C 	C 	0.01803 0.40305 0.24446 0.04700
C 	C 	0.01362 0.36781 0.23136 -0.09400
C 	C 	0.06109 0.56969 0.28617 0.05200
C 	C 	0.07504 0.60447 0.29104 -0.10200
H 	H 	0.07858 0.50146 0.32909 0.04400
H 	H 	0.05971 0.42844 0.31083 0.04400
H 	H 	0.98747 0.47244 0.21090 0.04400
H 	H 	0.00636 0.54539 0.22912 0.04400
