data_crystal

_cell_length_a 16.16789
_cell_length_b 15.72873
_cell_length_c 38.00514
_cell_angle_alpha 90.89908
_cell_angle_beta  90.97847
_cell_angle_gamma 112.95207

_symmetry_space_group_name_	'P 1'
_symmetry_space_group_name_H-M	'P 1'

loop_
_symmetry_equiv_pos_as_xyz
  x,y,z

loop_
_atom_site_label
_atom_site_type_symbol
_atom_site_fract_x
_atom_site_fract_y
_atom_site_fract_z
_atom_site_charge
Ni	Ni	0.80585 0.36548 0.90049 1.09600
O 	O 	0.67744 0.29750 0.88192 -0.70900
Ni	Ni	0.60930 0.35077 0.91289 1.09700
O 	O 	0.85385 0.29135 0.86755 -0.37100
O 	O 	0.75743 0.15475 0.88877 -0.41200
O 	O 	0.83659 0.46206 0.86078 -0.37000
Ni	Ni	0.63303 0.16493 0.89130 1.06200
O 	O 	0.91666 0.56727 0.92564 -0.42200
O 	O 	0.65444 0.18127 0.94458 -0.41500
O 	O 	0.48755 0.28165 0.88877 -0.37600
O 	O 	0.73666 0.41258 0.93503 -0.69400
O 	O 	0.93163 0.43119 0.92153 -0.38200
O 	O 	0.55254 0.42774 0.93988 -0.36300
O 	O 	0.66959 0.56621 0.94559 -0.40400
Ni	Ni	0.78726 0.54899 0.93435 1.06800
H 	H 	0.67001 0.30911 0.85677 0.15500
H 	H 	0.74059 0.39049 0.95900 0.15300
C 	C 	0.59897 0.20125 0.96450 0.30600
O 	O 	0.75942 0.54578 0.88213 -0.42300
C 	C 	0.81917 0.20052 0.86633 0.27600
C 	C 	0.46199 0.19301 0.88076 0.28200
C 	C 	0.81504 0.53504 0.85955 0.29200
C 	C 	0.60001 0.50105 0.95911 0.29500
C 	C 	0.94991 0.50986 0.93817 0.31700
O 	O 	0.56542 0.26085 0.95417 -0.36800
O 	O 	0.50096 0.14350 0.89652 -0.40800
Ni	Ni	0.63724 0.19230 0.64592 1.10200
O 	O 	0.72718 0.31824 0.66399 -0.70200
Ni	Ni	0.70813 0.40386 0.62973 1.09800
O 	O 	0.70321 0.11864 0.66941 -0.37500
O 	O 	0.82939 0.21185 0.64269 -0.41900
O 	O 	0.55942 0.17766 0.69015 -0.37100
Ni	Ni	0.85525 0.34191 0.66381 1.07100
O 	O 	0.43101 0.13059 0.62534 -0.41300
O 	O 	0.91069 0.40812 0.61815 -0.39400
O 	O 	0.81631 0.52346 0.64367 -0.38000
O 	O 	0.60710 0.28024 0.61514 -0.69300
O 	O 	0.54012 0.07349 0.62677 -0.37700
O 	O 	0.66060 0.47632 0.59630 -0.36900
O 	O 	0.51980 0.41305 0.61872 -0.41300
Ni	Ni	0.48473 0.27136 0.62279 1.06900
H 	H 	0.71066 0.33242 0.68768 0.15800
H 	H 	0.61259 0.26499 0.59015 0.15500
C 	C 	0.86588 0.41164 0.58943 0.32400
O 	O 	0.50404 0.28564 0.67567 -0.41800
C 	C 	0.78826 0.13995 0.66215 0.27500
C 	C 	0.86767 0.53494 0.67249 0.29300
C 	C 	0.49892 0.21412 0.69402 0.29200
C 	C 	0.57475 0.46124 0.59451 0.29200
C 	C 	0.47054 0.08029 0.61062 0.30700
O 	O 	0.77803 0.38012 0.58887 -0.39700
O 	O 	0.88015 0.46533 0.68761 -0.41700
C 	C 	0.07125 0.97152 0.73662 -0.03700
H 	H 	0.08053 0.97650 0.70769 0.04100
C 	C 	0.04940 0.95906 0.80609 -0.04000
H 	H 	0.04084 0.95393 0.83505 0.04200
C 	C 	0.00561 0.01176 0.75114 -0.01400
C 	C 	0.03428 0.87293 0.75048 -0.01300
C 	C 	0.15728 0.02050 0.75892 -0.00900
C 	C 	0.99502 0.00611 0.78688 -0.00600
C 	C 	0.02245 0.86607 0.78611 -0.01100
C 	C 	0.14586 0.01400 0.79448 -0.00800
Ni	Ni	0.28515 0.67655 0.42177 1.09900
O 	O 	0.36069 0.81119 0.43642 -0.69500
Ni	Ni	0.32044 0.87964 0.39997 1.10100
O 	O 	0.34008 0.62812 0.46175 -0.36800
O 	O 	0.48308 0.71377 0.44486 -0.41200
O 	O 	0.19228 0.68429 0.45627 -0.39700
Ni	Ni	0.49039 0.84628 0.43449 1.06700
O 	O 	0.13473 0.57914 0.35919 -0.42200
O 	O 	0.48422 0.81714 0.38191 -0.41900
O 	O 	0.39187 0.00958 0.41902 -0.37600
O 	O 	0.25697 0.74580 0.38285 -0.70200
O 	O 	0.20150 0.54268 0.40794 -0.37900
O 	O 	0.24514 0.92850 0.36852 -0.38000
O 	O 	0.11765 0.82136 0.39031 -0.41700
Ni	Ni	0.12632 0.69749 0.37604 1.07100
H 	H 	0.34476 0.82588 0.46015 0.15700
H 	H 	0.28459 0.73524 0.36104 0.15900
C 	C 	0.47993 0.87748 0.35936 0.29400
O 	O 	0.06537 0.63459 0.42126 -0.39800
C 	C 	0.42734 0.66045 0.46781 0.29100
C 	C 	0.46559 0.02222 0.43721 0.31100
C 	C 	0.10601 0.63598 0.45167 0.32200
C 	C 	0.15728 0.89474 0.37133 0.27400
C 	C 	0.14360 0.51811 0.38076 0.29700
O 	O 	0.41313 0.90594 0.36025 -0.37100
O 	O 	0.51884 0.98257 0.42588 -0.41700
Ni	Ni	0.35815 0.76182 0.13276 1.09800
O 	O 	0.23458 0.66792 0.11585 -0.69600
Ni	Ni	0.15287 0.70129 0.14764 1.10100
O 	O 	0.42318 0.71183 0.09729 -0.36800
O 	O 	0.35137 0.56358 0.11547 -0.41200
O 	O 	0.34384 0.84583 0.09462 -0.39800
Ni	Ni	0.21572 0.53839 0.12105 1.06700
O 	O 	0.42577 0.92765 0.19388 -0.42100
O 	O 	0.23206 0.55162 0.17441 -0.41700
O 	O 	0.03416 0.61190 0.12639 -0.37800
O 	O 	0.27692 0.78309 0.16763 -0.70300
O 	O 	0.47924 0.86380 0.14847 -0.38100
O 	O 	0.08694 0.77042 0.17384 -0.37800
O 	O 	0.18351 0.90571 0.15194 -0.41800
Ni	Ni	0.30777 0.91618 0.17141 1.07100
H 	H 	0.22193 0.67862 0.09110 0.15600
H 	H 	0.28740 0.76028 0.19073 0.15800
C 	C 	0.16557 0.55089 0.19389 0.29200
O 	O 	0.37292 0.97852 0.12686 -0.39800
C 	C 	0.40153 0.62265 0.09259 0.29100
C 	C 	0.03378 0.53700 0.11048 0.30700
C 	C 	0.38087 0.93597 0.09785 0.32500
C 	C 	0.11075 0.85959 0.16947 0.27400
C 	C 	0.49275 0.92034 0.17628 0.29800
O 	O 	0.13173 0.61432 0.18993 -0.37200
O 	O 	0.07939 0.49206 0.12467 -0.41400
C 	C 	0.91804 0.13098 0.24118 -0.03400
H 	H 	0.92632 0.14494 0.21259 0.04200
C 	C 	0.89764 0.09805 0.30977 -0.03400
H 	H 	0.88891 0.08459 0.33838 0.04200
C 	C 	0.95253 0.05905 0.25470 -0.01300
C 	C 	0.96608 0.21518 0.26557 -0.01100
C 	C 	0.82066 0.09422 0.25339 -0.01200
C 	C 	0.94317 0.04287 0.29006 -0.01300
C 	C 	0.95540 0.19804 0.30075 -0.01100
C 	C 	0.80996 0.07694 0.28861 -0.01200
C 	C 	0.03510 0.45617 0.23041 0.01500
C 	C 	0.12076 0.47197 0.21735 -0.08700
C 	C 	0.15875 0.40668 0.22356 0.00900
C 	C 	0.10958 0.32451 0.24060 -0.06700
C 	C 	0.02227 0.30684 0.25173 0.03200
C 	C 	0.98613 0.37386 0.24737 -0.06400
H 	H 	0.00502 0.50597 0.22633 0.04000
H 	H 	0.22539 0.41844 0.21451 0.03000
H 	H 	0.13899 0.27418 0.24478 0.04100
H 	H 	0.91912 0.36119 0.25627 0.04700
C 	C 	0.72408 0.96921 0.21250 -0.07300
C 	C 	0.74539 0.05686 0.22798 0.04100
C 	C 	0.68971 0.10468 0.22192 -0.07200
C 	C 	0.60932 0.06211 0.20279 0.02600
C 	C 	0.58442 0.97150 0.18958 -0.09400
C 	C 	0.64375 0.92659 0.19328 0.02300
H 	H 	0.76758 0.93240 0.21685 0.05000
H 	H 	0.70681 0.17313 0.23337 0.04800
H 	H 	0.56469 0.09806 0.19938 0.02600
H 	H 	0.62545 0.85691 0.18291 0.03200
C 	C 	0.95148 0.91060 0.22988 -0.07200
C 	C 	0.98840 0.00750 0.23076 0.03600
C 	C 	0.05997 0.05538 0.20903 -0.07300
C 	C 	0.09757 0.00706 0.18791 0.01100
C 	C 	0.06391 0.91002 0.18837 -0.09800
C 	C 	0.98912 0.86202 0.20887 0.01600
H 	H 	0.89441 0.87300 0.24584 0.04500
H 	H 	0.08761 0.13010 0.20897 0.04300
H 	H 	0.15405 0.04522 0.17179 0.02400
H 	H 	0.96100 0.78726 0.20898 0.03800
C 	C 	0.61395 0.87991 0.32655 0.01300
C 	C 	0.55767 0.92475 0.33670 -0.09300
C 	C 	0.58205 0.01843 0.32884 0.02100
C 	C 	0.66357 0.06753 0.31260 -0.06900
C 	C 	0.72109 0.02343 0.30375 0.03700
C 	C 	0.69523 0.92907 0.31014 -0.07100
H 	H 	0.59566 0.80751 0.33198 0.03000
H 	H 	0.53968 0.05419 0.33653 0.04200
H 	H 	0.68273 0.14023 0.30751 0.04700
H 	H 	0.73840 0.89401 0.30270 0.04500
C 	C 	0.00238 0.38313 0.37048 0.01700
C 	C 	0.09659 0.42072 0.37151 -0.08800
C 	C 	0.14313 0.37375 0.35452 0.02100
C 	C 	0.09632 0.29697 0.33282 -0.06600
C 	C 	0.00301 0.26720 0.32819 0.03500
C 	C 	0.95566 0.30675 0.34865 -0.06700
H 	H 	0.96583 0.41782 0.38427 0.02900
H 	H 	0.21590 0.40127 0.35576 0.02900
H 	H 	0.13291 0.26397 0.31812 0.04700
H 	H 	0.88311 0.28162 0.34613 0.04700
C 	C 	0.00817 0.89106 0.35080 0.00900
C 	C 	0.10255 0.93364 0.35077 -0.09700
C 	C 	0.14418 0.01142 0.33005 0.01700
C 	C 	0.09215 0.04563 0.30954 -0.07000
C 	C 	0.99810 0.00242 0.30945 0.03700
C 	C 	0.95639 0.92551 0.33028 -0.07300
H 	H 	0.97486 0.83117 0.36664 0.02500
H 	H 	0.21672 0.04545 0.32982 0.03800
H 	H 	0.12484 0.10619 0.29394 0.04500
H 	H 	0.88377 0.89266 0.33070 0.04300
C 	C 	0.46356 0.06771 0.57336 -0.14300
C 	C 	0.46255 0.06003 0.54192 0.02500
C 	C 	0.46454 0.05129 0.50524 0.02600
C 	C 	0.46627 0.04093 0.47399 -0.14400
C 	C 	0.05337 0.58825 0.48108 -0.09100
C 	C 	0.00914 0.54700 0.50549 0.03700
C 	C 	0.95765 0.49831 0.53421 0.04000
C 	C 	0.91485 0.45771 0.55902 -0.09100
C 	C 	0.46154 0.62084 0.49525 -0.09800
C 	C 	0.48808 0.58609 0.51850 0.03200
C 	C 	0.51778 0.54388 0.54560 0.03400
C 	C 	0.54320 0.50667 0.56832 -0.10300
C 	C 	0.98971 0.11064 0.70323 -0.07300
C 	C 	0.94909 0.04165 0.72750 0.03900
C 	C 	0.85492 0.99915 0.72838 -0.08000
C 	C 	0.80192 0.02885 0.70628 0.02500
C 	C 	0.84275 0.10060 0.68280 -0.10200
C 	C 	0.93707 0.13956 0.68083 0.00800
H 	H 	0.06229 0.14270 0.70201 0.04400
H 	H 	0.82291 0.94350 0.74627 0.04700
H 	H 	0.72943 0.99670 0.70767 0.03300
H 	H 	0.96979 0.19372 0.66246 0.01900
C 	C 	0.36954 0.21427 0.72940 0.00900
C 	C 	0.41673 0.16487 0.71428 -0.09000
C 	C 	0.37880 0.06771 0.71443 0.01400
C 	C 	0.29379 0.02076 0.72858 -0.06200
C 	C 	0.24620 0.07031 0.74300 0.03000
C 	C 	0.28471 0.16720 0.74361 -0.06600
H 	H 	0.39783 0.28907 0.72962 0.03000
H 	H 	0.41369 0.02847 0.70258 0.04400
H 	H 	0.26500 0.94594 0.72830 0.04400
H 	H 	0.24885 0.20608 0.75500 0.04400
C 	C 	0.00296 0.65319 0.70151 0.02100
C 	C 	0.91573 0.62808 0.68727 -0.08800
C 	C 	0.87144 0.68854 0.69086 0.01900
C 	C 	0.91186 0.77074 0.71042 -0.06900
C 	C 	0.99662 0.79271 0.72643 0.03800
C 	C 	0.04315 0.73522 0.72109 -0.07000
H 	H 	0.03847 0.60779 0.69825 0.02900
H 	H 	0.80426 0.66998 0.67982 0.03100
H 	H 	0.87600 0.81556 0.71427 0.04900
H 	H 	0.10930 0.75279 0.73301 0.04600
C 	C 	0.97196 0.51541 0.97477 -0.14500
C 	C 	0.98641 0.51802 0.00589 0.02800
C 	C 	0.00107 0.52108 0.04240 0.02400
C 	C 	0.01436 0.52605 0.07363 -0.13900
C 	C 	0.42931 0.99004 0.06884 -0.09800
C 	C 	0.47095 0.03708 0.04508 0.04500
C 	C 	0.51921 0.09367 0.01739 0.03200
C 	C 	0.55795 0.14260 0.99356 -0.08800
C 	C 	0.55803 0.52452 0.98859 -0.09300
C 	C 	0.52229 0.54422 0.01319 0.03100
C 	C 	0.48011 0.56849 0.04162 0.03400
C 	C 	0.44409 0.59144 0.06534 -0.10100
C 	C 	0.93568 0.19934 0.82376 0.01000
C 	C 	0.86338 0.15062 0.84535 -0.08500
C 	C 	0.83361 0.05393 0.84695 0.00800
C 	C 	0.87644 0.00708 0.82776 -0.06300
C 	C 	0.94851 0.05585 0.80639 0.02800
C 	C 	0.97834 0.15219 0.80460 -0.06400
H 	H 	0.95921 0.27367 0.82194 0.04000
H 	H 	0.77764 0.01503 0.86318 0.02800
H 	H 	0.85354 0.93281 0.82953 0.04100
H 	H 	0.03489 0.19057 0.78851 0.04300
C 	C 	0.28264 0.01318 0.82456 -0.06300
C 	C 	0.22082 0.05449 0.81990 0.03400
C 	C 	0.23565 0.13929 0.83665 -0.06800
C 	C 	0.31399 0.18454 0.85688 0.01900
C 	C 	0.37776 0.14476 0.86056 -0.09000
C 	C 	0.36109 0.05832 0.84457 0.01400
H 	H 	0.27126 0.94751 0.81164 0.04300
H 	H 	0.18777 0.17135 0.83313 0.04900
H 	H 	0.32524 0.25051 0.86947 0.04200
H 	H 	0.40978 0.02698 0.84710 0.01600
C 	C 	0.82380 0.66873 0.82265 0.01200
C 	C 	0.86546 0.61259 0.83652 -0.08800
C 	C 	0.95820 0.63781 0.83215 0.01700
C 	C 	0.00916 0.72010 0.81549 -0.06800
C 	C 	0.96789 0.77745 0.80274 0.03400
C 	C 	0.87474 0.75046 0.80566 -0.06700
H 	H 	0.75231 0.64984 0.82549 0.03100
H 	H 	0.99145 0.59561 0.84283 0.04300
H 	H 	0.08084 0.73974 0.81290 0.04700
H 	H 	0.84184 0.79284 0.79487 0.04400
