data_crystal

_cell_length_a 16.36621
_cell_length_b 15.97659
_cell_length_c 34.67353
_cell_angle_alpha 90.94398
_cell_angle_beta  91.04412
_cell_angle_gamma 113.32301

_symmetry_space_group_name_	'P 1'
_symmetry_space_group_name_H-M	'P 1'

loop_
_symmetry_equiv_pos_as_xyz
  x,y,z

loop_
_atom_site_label
_atom_site_type_symbol
_atom_site_fract_x
_atom_site_fract_y
_atom_site_fract_z
_atom_site_charge
Ni	Ni	0.80492 0.36850 0.88868 1.10500
O 	O 	0.67741 0.30340 0.86864 -0.70200
Ni	Ni	0.60719 0.33218 0.90946 1.10500
O 	O 	0.85436 0.29398 0.85479 -0.36600
O 	O 	0.75125 0.16242 0.87743 -0.39700
O 	O 	0.83216 0.46230 0.84506 -0.36400
Ni	Ni	0.63239 0.17128 0.86102 1.07800
O 	O 	0.90317 0.57100 0.91945 -0.34300
O 	O 	0.56722 0.10795 0.91005 -0.33800
O 	O 	0.48003 0.24932 0.89071 -0.33700
O 	O 	0.73599 0.40784 0.92767 -0.69300
O 	O 	0.92893 0.44220 0.91016 -0.34500
O 	O 	0.55617 0.38831 0.95155 -0.30600
O 	O 	0.64199 0.53340 0.93386 -0.37300
Ni	Ni	0.77046 0.53974 0.92604 1.09300
H 	H 	0.66929 0.33115 0.84432 0.16200
H 	H 	0.74741 0.39068 0.95390 0.20200
C 	C 	0.56059 0.14860 0.94255 0.31100
O 	O 	0.74988 0.53780 0.86815 -0.40500
C 	C 	0.82341 0.20489 0.85770 0.27600
C 	C 	0.46022 0.18879 0.86158 0.32100
C 	C 	0.81008 0.53329 0.84480 0.30000
C 	C 	0.58643 0.47707 0.95795 0.29300
C 	C 	0.94142 0.51620 0.93065 0.30300
O 	O 	0.60705 0.23643 0.94820 -0.34600
O 	O 	0.52185 0.18118 0.83958 -0.41700
Ni	Ni	0.63563 0.19973 0.62418 1.12600
O 	O 	0.72241 0.32578 0.64361 -0.69300
Ni	Ni	0.70472 0.40767 0.60450 1.10300
O 	O 	0.70184 0.13045 0.65114 -0.33900
O 	O 	0.82673 0.22377 0.62193 -0.34000
O 	O 	0.55452 0.18365 0.67147 -0.36700
Ni	Ni	0.84937 0.35097 0.64560 1.07800
O 	O 	0.43265 0.13304 0.59610 -0.36900
O 	O 	0.90852 0.41654 0.59626 -0.34700
O 	O 	0.80902 0.52816 0.61969 -0.37100
O 	O 	0.60674 0.28365 0.58870 -0.68300
O 	O 	0.54183 0.08062 0.60337 -0.28900
O 	O 	0.65652 0.47555 0.56677 -0.33000
O 	O 	0.51865 0.41205 0.59257 -0.36000
Ni	Ni	0.48427 0.27223 0.59490 1.10800
H 	H 	0.70398 0.34030 0.66903 0.15700
H 	H 	0.61431 0.26798 0.56163 0.22300
C 	C 	0.86737 0.42001 0.56379 0.32300
O 	O 	0.49486 0.28416 0.65320 -0.40200
C 	C 	0.78553 0.15136 0.64243 0.28400
C 	C 	0.86268 0.54152 0.65043 0.30400
C 	C 	0.49070 0.21451 0.67356 0.29500
C 	C 	0.57179 0.46169 0.56615 0.29500
C 	C 	0.47682 0.08593 0.58231 0.27500
O 	O 	0.77994 0.38740 0.56129 -0.32600
O 	O 	0.86870 0.47328 0.66979 -0.41300
C 	C 	0.06679 0.97633 0.71730 0.01100
H 	H 	0.07845 0.98416 0.68582 0.05900
C 	C 	0.03858 0.95730 0.79274 -0.03400
H 	H 	0.02737 0.94946 0.82425 0.07200
C 	C 	0.99607 0.00850 0.73257 -0.05000
C 	C 	0.03462 0.87819 0.73131 -0.02800
C 	C 	0.14885 0.02794 0.74324 -0.03900
C 	C 	0.98238 0.99968 0.77142 0.04800
C 	C 	0.01926 0.86800 0.77007 -0.00400
C 	C 	0.13366 0.01833 0.78195 -0.02300
Ni	Ni	0.29048 0.66834 0.41719 1.10300
O 	O 	0.35835 0.80465 0.42940 -0.69200
Ni	Ni	0.31772 0.86000 0.38526 1.11500
O 	O 	0.34786 0.63561 0.46423 -0.33500
O 	O 	0.48707 0.71815 0.44232 -0.34600
O 	O 	0.19037 0.67202 0.45137 -0.32700
Ni	Ni	0.48747 0.84516 0.42869 1.10300
O 	O 	0.15072 0.55358 0.34880 -0.41500
O 	O 	0.48778 0.80893 0.37217 -0.39500
O 	O 	0.38040 0.99218 0.40287 -0.26200
O 	O 	0.26252 0.72491 0.37046 -0.69800
O 	O 	0.21632 0.53219 0.40533 -0.36100
O 	O 	0.24133 0.89496 0.34676 -0.35700
O 	O 	0.11565 0.78910 0.37134 -0.36500
Ni	Ni	0.13404 0.66981 0.36018 1.07600
H 	H 	0.34014 0.82273 0.45420 0.21500
H 	H 	0.29356 0.71266 0.34820 0.16100
C 	C 	0.48274 0.86331 0.34534 0.28300
O 	O 	0.06951 0.61360 0.40976 -0.35800
C 	C 	0.43488 0.66432 0.46812 0.29800
C 	C 	0.45615 0.01583 0.42237 0.22000
C 	C 	0.10579 0.61996 0.44447 0.30900
C 	C 	0.15458 0.86131 0.35034 0.29600
C 	C 	0.15763 0.50038 0.37628 0.29100
O 	O 	0.41343 0.88588 0.34333 -0.35700
O 	O 	0.51108 0.97613 0.41380 -0.34000
Ni	Ni	0.36799 0.75069 0.11299 1.10500
O 	O 	0.24193 0.66576 0.09448 -0.69400
Ni	Ni	0.16654 0.70235 0.13124 1.10400
O 	O 	0.42701 0.69664 0.07345 -0.30000
O 	O 	0.34707 0.55107 0.09221 -0.37600
O 	O 	0.36375 0.83936 0.07159 -0.33700
Ni	Ni	0.21550 0.53585 0.09861 1.09100
O 	O 	0.44124 0.91203 0.17994 -0.40300
O 	O 	0.23601 0.54648 0.15689 -0.40500
O 	O 	0.04501 0.61935 0.10975 -0.34700
O 	O 	0.29196 0.77770 0.15156 -0.70200
O 	O 	0.49124 0.84275 0.13185 -0.33000
O 	O 	0.10931 0.77544 0.16166 -0.36500
O 	O 	0.20606 0.90686 0.13606 -0.38400
Ni	Ni	0.32778 0.90976 0.15574 1.08100
H 	H 	0.23073 0.67928 0.06764 0.20700
H 	H 	0.30148 0.75472 0.17687 0.16200
C 	C 	0.17328 0.54794 0.17946 0.29200
O 	O 	0.39304 0.97055 0.10667 -0.32600
C 	C 	0.40045 0.60801 0.06768 0.29000
C 	C 	0.03884 0.54534 0.09078 0.31500
C 	C 	0.40544 0.92825 0.07578 0.30800
C 	C 	0.13356 0.86294 0.15537 0.26200
C 	C 	0.50615 0.90577 0.15969 0.30800
O 	O 	0.14410 0.61395 0.17692 -0.36500
O 	O 	0.08144 0.49648 0.10422 -0.35100
C 	C 	0.93018 0.13071 0.22571 -0.05000
H 	H 	0.94090 0.14800 0.19477 0.07300
C 	C 	0.90421 0.08943 0.29995 -0.02700
H 	H 	0.89329 0.07241 0.33091 0.06000
C 	C 	0.96171 0.05734 0.23929 0.01400
C 	C 	0.97671 0.21061 0.25422 0.00800
C 	C 	0.83285 0.09365 0.23784 0.00600
C 	C 	0.94944 0.03687 0.27752 -0.04900
C 	C 	0.96325 0.18915 0.29233 0.00000
C 	C 	0.81917 0.07203 0.27600 -0.00800
C 	C 	0.16889 0.40882 0.21353 0.00700
C 	C 	0.12849 0.46972 0.20501 -0.06900
C 	C 	0.04084 0.44906 0.21673 0.00500
C 	C 	0.99279 0.36637 0.23460 -0.02500
C 	C 	0.03175 0.30365 0.24101 0.01100
C 	C 	0.12047 0.32598 0.23111 -0.04800
H 	H 	0.23687 0.42425 0.20546 0.04600
H 	H 	0.00857 0.49507 0.21060 0.06100
H 	H 	0.92435 0.34982 0.24227 0.05800
H 	H 	0.15140 0.27835 0.23626 0.04500
C 	C 	0.66329 0.92753 0.17093 0.01400
C 	C 	0.59742 0.96281 0.17160 0.00200
C 	C 	0.61709 0.05011 0.18761 0.00300
C 	C 	0.69927 0.09820 0.20567 -0.01700
C 	C 	0.76083 0.05806 0.20897 0.00300
C 	C 	0.74500 0.97522 0.18962 -0.00100
H 	H 	0.64935 0.86095 0.15798 0.07300
H 	H 	0.56729 0.07895 0.18737 0.07300
H 	H 	0.71256 0.16360 0.21968 0.06200
H 	H 	0.79351 0.94495 0.19137 0.05500
C 	C 	0.12018 0.00918 0.17375 -0.03600
C 	C 	0.08331 0.91321 0.17230 -0.02400
C 	C 	0.00076 0.86559 0.18915 -0.03000
C 	C 	0.95845 0.91305 0.20914 0.00300
C 	C 	0.99813 0.00853 0.21255 -0.01100
C 	C 	0.07755 0.05648 0.19372 -0.03500
H 	H 	0.18313 0.04712 0.16048 0.04900
H 	H 	0.97028 0.79179 0.18752 0.07500
H 	H 	0.89636 0.87549 0.22317 0.04200
H 	H 	0.10818 0.13022 0.19589 0.04600
C 	C 	0.61942 0.87129 0.31125 -0.00700
C 	C 	0.56278 0.91381 0.32261 -0.03500
C 	C 	0.58890 0.00773 0.31676 -0.02600
C 	C 	0.67209 0.05901 0.30133 -0.03300
C 	C 	0.72942 0.01682 0.29096 -0.00400
C 	C 	0.70214 0.92251 0.29538 -0.01300
H 	H 	0.60014 0.79895 0.31534 0.05300
H 	H 	0.54647 0.04177 0.32560 0.06300
H 	H 	0.69238 0.13170 0.29792 0.05300
H 	H 	0.74519 0.88899 0.28680 0.04600
C 	C 	0.01702 0.36612 0.37134 0.00400
C 	C 	0.11022 0.40272 0.37066 -0.05700
C 	C 	0.15329 0.35350 0.35225 0.02500
C 	C 	0.10422 0.27846 0.32852 -0.03900
C 	C 	0.01215 0.25226 0.32378 0.01500
C 	C 	0.96789 0.29143 0.34745 -0.01700
H 	H 	0.98309 0.40168 0.38695 0.06600
H 	H 	0.22532 0.37934 0.35286 0.05700
H 	H 	0.13832 0.24520 0.31168 0.05300
H 	H 	0.89610 0.26823 0.34531 0.06000
C 	C 	0.14479 0.99323 0.31623 0.11100
C 	C 	0.10189 0.90835 0.33335 -0.09000
C 	C 	0.00835 0.86772 0.33338 0.02800
C 	C 	0.95858 0.91082 0.31587 -0.06300
C 	C 	0.00171 0.99409 0.29791 0.10100
C 	C 	0.09489 0.03577 0.29861 -0.14400
H 	H 	0.21676 0.02594 0.31628 0.02500
H 	H 	0.97421 0.80235 0.34651 0.06300
H 	H 	0.88656 0.87867 0.31561 0.06600
H 	H 	0.12857 0.10018 0.28468 0.07100
C 	C 	0.39587 0.06197 0.51946 0.05800
C 	C 	0.47249 0.06702 0.54016 -0.01100
C 	C 	0.54924 0.07339 0.51934 -0.09800
C 	C 	0.55010 0.08778 0.47957 0.03900
C 	C 	0.47016 0.06826 0.45911 0.02500
C 	C 	0.39701 0.07091 0.47931 -0.10200
C 	C 	0.32326 0.08931 0.45897 0.78900
H 	H 	0.33704 0.05655 0.53491 0.09200
H 	H 	0.61025 0.10054 0.46377 0.10100
C 	C 	0.62546 0.05528 0.53789 0.76500
F 	F 	0.29081 0.13830 0.48307 -0.39200
F 	F 	0.25416 0.00757 0.44865 -0.44200
F 	F 	0.35419 0.14005 0.42637 -0.40800
F 	F 	0.59299 0.97986 0.56097 -0.37100
F 	F 	0.68016 0.13098 0.55943 -0.47400
F 	F 	0.67686 0.03713 0.51032 -0.40300
C 	C 	0.94619 0.56339 0.52841 0.06500
C 	C 	0.92137 0.46877 0.53075 0.00500
C 	C 	0.95845 0.42420 0.50511 -0.07600
C 	C 	0.02321 0.47619 0.47890 0.03700
C 	C 	0.04815 0.57081 0.47654 0.01400
C 	C 	0.00877 0.61501 0.50130 -0.09700
C 	C 	0.03369 0.71698 0.49901 0.77800
H 	H 	0.91800 0.59702 0.54832 0.08700
H 	H 	0.05351 0.44289 0.45988 0.08100
C 	C 	0.93073 0.32170 0.50626 0.77800
F 	F 	0.98871 0.74752 0.52548 -0.41200
F 	F 	0.01296 0.73773 0.46251 -0.42200
F 	F 	0.12401 0.76321 0.50646 -0.41800
F 	F 	0.83885 0.27823 0.50496 -0.40600
F 	F 	0.96333 0.29983 0.53998 -0.41800
F 	F 	0.96288 0.28916 0.47531 -0.42100
C 	C 	0.44860 0.52103 0.48517 0.06000
C 	C 	0.47121 0.61388 0.49330 0.01000
C 	C 	0.52847 0.65752 0.52510 -0.09300
C 	C 	0.56351 0.60695 0.54786 0.06300
C 	C 	0.53985 0.51384 0.54000 0.00500
C 	C 	0.48369 0.47060 0.50787 -0.09300
C 	C 	0.45964 0.37026 0.49834 0.77900
H 	H 	0.40387 0.48842 0.46094 0.08700
H 	H 	0.60824 0.63942 0.57211 0.08500
C 	C 	0.55262 0.75784 0.53458 0.78400
F 	F 	0.41444 0.34407 0.46314 -0.40400
F 	F 	0.40595 0.31765 0.52659 -0.47600
F 	F 	0.53600 0.35306 0.49655 -0.45500
F 	F 	0.47617 0.77460 0.53727 -0.43200
F 	F 	0.60454 0.81023 0.50582 -0.42600
F 	F 	0.59978 0.78464 0.56932 -0.40600
C 	C 	0.93150 0.14475 0.65962 -0.01200
C 	C 	0.83812 0.10708 0.66200 -0.03300
C 	C 	0.79657 0.03117 0.68507 -0.06300
C 	C 	0.84806 0.99674 0.70708 0.02700
C 	C 	0.94140 0.03862 0.70654 -0.00700
C 	C 	0.98269 0.11101 0.68199 -0.02200
H 	H 	0.96464 0.20196 0.64128 0.06800
H 	H 	0.72470 0.99974 0.68645 0.10300
H 	H 	0.81559 0.93865 0.72508 0.03800
H 	H 	0.05465 0.14282 0.68103 0.04500
C 	C 	0.36822 0.07036 0.69467 0.03500
C 	C 	0.41023 0.16615 0.69654 -0.08800
C 	C 	0.36746 0.21596 0.71518 0.02300
C 	C 	0.28274 0.17094 0.73050 -0.07000
C 	C 	0.23967 0.07557 0.72747 0.05300
C 	C 	0.28320 0.02538 0.70989 -0.10000
H 	H 	0.39969 0.03090 0.68011 0.05000
H 	H 	0.39887 0.28972 0.71698 0.04100
H 	H 	0.25018 0.21035 0.74428 0.05500
H 	H 	0.25106 0.95169 0.70775 0.08800
C 	C 	0.87563 0.69867 0.66470 0.04400
C 	C 	0.91432 0.63454 0.66440 -0.09100
C 	C 	0.99936 0.65724 0.68110 0.06100
C 	C 	0.04195 0.74040 0.70079 -0.09000
C 	C 	0.99961 0.80089 0.70395 0.07200
C 	C 	0.91824 0.78171 0.68447 -0.06900
H 	H 	0.81051 0.68222 0.65140 0.05300
H 	H 	0.03088 0.60907 0.68000 0.03100
H 	H 	0.10579 0.75597 0.71520 0.06800
H 	H 	0.88581 0.82894 0.68648 0.07200
C 	C 	0.05290 0.61180 0.02645 0.07100
C 	C 	0.01277 0.53644 0.04993 -0.04100
C 	C 	0.95016 0.45357 0.03388 -0.06200
C 	C 	0.93343 0.44629 0.99394 0.04000
C 	C 	0.97319 0.52198 0.97059 -0.00400
C 	C 	0.03769 0.60379 0.98649 -0.10100
C 	C 	0.08905 0.68333 0.96119 0.78700
H 	H 	0.09678 0.67659 0.03943 0.04900
H 	H 	0.88728 0.38249 0.98099 0.05900
C 	C 	0.90139 0.37291 0.05910 0.77700
F 	F 	0.16625 0.74287 0.97986 -0.41000
F 	F 	0.03669 0.73054 0.95215 -0.43100
F 	F 	0.11335 0.65269 0.92749 -0.41100
F 	F 	0.87010 0.40112 0.09152 -0.40400
F 	F 	0.95872 0.33293 0.07040 -0.43000
F 	F 	0.82895 0.30766 0.03961 -0.40900
C 	C 	0.57215 0.10052 0.00989 0.07000
C 	C 	0.51961 0.09137 0.97646 0.01700
C 	C 	0.42905 0.02829 0.97567 -0.10200
C 	C 	0.39486 0.97317 0.00784 0.08800
C 	C 	0.44709 0.98316 0.04143 0.04600
C 	C 	0.53747 0.04659 0.04231 -0.10400
C 	C 	0.59799 0.05459 0.07692 0.77000
H 	H 	0.64076 0.14922 0.01044 0.11500
H 	H 	0.32656 0.92369 0.00713 0.11800
C 	C 	0.36770 0.02239 0.94162 0.75100
F 	F 	0.68448 0.11572 0.07129 -0.40100
F 	F 	0.60014 0.97058 0.08373 -0.42600
F 	F 	0.56685 0.08478 0.10871 -0.45100
F 	F 	0.39608 0.99090 0.90937 -0.41900
F 	F 	0.36795 0.10754 0.93521 -0.44500
F 	F 	0.28070 0.96344 0.94788 -0.38600
C 	C 	0.48671 0.55588 0.97318 0.06000
C 	C 	0.54171 0.51314 0.98637 0.00200
C 	C 	0.55132 0.50247 0.02645 -0.08900
C 	C 	0.50207 0.53133 0.05249 0.05400
C 	C 	0.44677 0.57373 0.03929 0.01200
C 	C 	0.43726 0.58453 0.99921 -0.10000
C 	C 	0.37559 0.62773 0.98416 0.78300
H 	H 	0.48144 0.56540 0.94251 0.08400
H 	H 	0.50738 0.52182 0.08316 0.08500
C 	C 	0.61265 0.45884 0.04143 0.78200
F 	F 	0.36332 0.61719 0.94448 -0.42000
F 	F 	0.41157 0.71997 0.99343 -0.41600
F 	F 	0.29285 0.58758 0.00045 -0.45900
F 	F 	0.69535 0.49865 0.02508 -0.45800
F 	F 	0.57625 0.36662 0.03212 -0.41900
F 	F 	0.62505 0.46930 0.08111 -0.42200
C 	C 	0.94342 0.19746 0.81585 0.00800
C 	C 	0.86562 0.15210 0.83649 -0.07800
C 	C 	0.82642 0.05619 0.83550 0.01800
C 	C 	0.86398 0.00662 0.81383 -0.08200
C 	C 	0.94047 0.05218 0.79276 0.00300
C 	C 	0.98058 0.14767 0.79414 -0.04100
H 	H 	0.97507 0.27122 0.81654 0.05600
H 	H 	0.76667 0.02001 0.85130 0.03900
H 	H 	0.83352 0.93281 0.81337 0.07400
H 	H 	0.04093 0.18327 0.77859 0.03900
C 	C 	0.34281 0.04787 0.83485 0.06500
C 	C 	0.36753 0.13631 0.85046 -0.05400
C 	C 	0.30675 0.17817 0.84962 0.04400
C 	C 	0.22556 0.13559 0.82972 -0.06300
C 	C 	0.20534 0.05129 0.81091 0.05800
C 	C 	0.26122 0.00494 0.81570 -0.08900
H 	H 	0.38922 0.01481 0.83556 0.06000
H 	H 	0.32478 0.24597 0.86208 0.05900
H 	H 	0.18108 0.17058 0.82676 0.06100
H 	H 	0.24440 0.93858 0.80194 0.09500
C 	C 	0.82078 0.66921 0.80685 0.02400
C 	C 	0.86152 0.61335 0.82159 -0.08300
C 	C 	0.95369 0.63943 0.81761 0.04300
C 	C 	0.00483 0.72187 0.80036 -0.07000
C 	C 	0.96436 0.77854 0.78657 0.05400
C 	C 	0.87195 0.75122 0.78928 -0.06500
H 	H 	0.74978 0.64973 0.80940 0.04300
H 	H 	0.98624 0.59753 0.82909 0.07000
H 	H 	0.07605 0.74220 0.79820 0.07600
H 	H 	0.83988 0.79373 0.77800 0.05400
