data_crystal

_cell_length_a 18.59644
_cell_length_b 18.74925
_cell_length_c 34.85823
_cell_angle_alpha 95.42738
_cell_angle_beta  95.42799
_cell_angle_gamma 126.40274

_symmetry_space_group_name_	'P 1'
_symmetry_space_group_name_H-M	'P 1'

loop_
_symmetry_equiv_pos_as_xyz
  x,y,z

loop_
_atom_site_label
_atom_site_type_symbol
_atom_site_fract_x
_atom_site_fract_y
_atom_site_fract_z
_atom_site_charge
C 	C 	0.91568 0.00503 0.97385 0.07700
N 	N 	0.87060 0.91727 0.97796 -0.11700
C 	C 	0.91471 0.87952 0.97798 0.10400
N 	N 	0.00307 0.92949 0.97387 -0.10300
C 	C 	0.04708 0.01601 0.96887 0.10800
N 	N 	0.00302 0.05318 0.96843 -0.11100
C 	C 	0.95103 0.03280 0.49512 0.08400
N 	N 	0.89815 0.94362 0.49658 -0.11600
C 	C 	0.93347 0.89789 0.49475 0.10400
N 	N 	0.02187 0.94138 0.49194 -0.10600
C 	C 	0.07501 0.03033 0.49027 0.10500
N 	N 	0.03980 0.07646 0.49207 -0.11400
Cu	Cu	0.75273 0.34243 0.95917 0.92900
Cu	Cu	0.70268 0.23968 0.03375 0.86200
Cu	Cu	0.60996 0.30692 0.00629 0.88900
Cu	Cu	0.58320 0.33417 0.92413 0.90500
C 	C 	0.70097 0.32335 0.87615 0.29200
O 	O 	0.80224 0.47488 0.96205 -0.34800
C 	C 	0.65638 0.32163 0.09137 0.29200
O 	O 	0.61073 0.26982 0.95222 -0.63400
O 	O 	0.73615 0.34688 0.01394 -0.65100
O 	O 	0.81222 0.28204 0.96377 -0.36000
O 	O 	0.69406 0.16996 0.98788 -0.43100
O 	O 	0.66360 0.36282 0.88497 -0.37700
O 	O 	0.48899 0.27638 0.99863 -0.36900
C 	C 	0.42978 0.23837 0.96530 0.29300
C 	C 	0.75550 0.50416 0.97186 0.27500
O 	O 	0.66847 0.44617 0.97268 -0.38500
O 	O 	0.45582 0.25906 0.93160 -0.38300
O 	O 	0.74895 0.31676 0.90393 -0.35500
C 	C 	0.76619 0.20040 0.97210 0.29800
O 	O 	0.61516 0.33411 0.06264 -0.37800
O 	O 	0.69824 0.28558 0.08439 -0.41700
H 	H 	0.57125 0.20369 0.94287 0.16300
H 	H 	0.78045 0.40521 0.03224 0.17600
Cu	Cu	0.61761 0.19927 0.50502 0.92800
Cu	Cu	0.69394 0.22184 0.42285 0.86700
Cu	Cu	0.65014 0.33679 0.45521 0.89700
Cu	Cu	0.62417 0.36598 0.53637 0.90300
C 	C 	0.64660 0.25921 0.58800 0.29500
O 	O 	0.48573 0.14735 0.50684 -0.35700
C 	C 	0.62938 0.28998 0.37009 0.28500
O 	O 	0.69031 0.33950 0.50887 -0.63900
O 	O 	0.60039 0.20808 0.44945 -0.64200
O 	O 	0.67623 0.13874 0.49941 -0.36400
O 	O 	0.77728 0.24399 0.46682 -0.43800
O 	O 	0.60812 0.29794 0.57962 -0.37200
O 	O 	0.70764 0.46446 0.46138 -0.38300
C 	C 	0.72367 0.51819 0.49380 0.29500
C 	C 	0.45176 0.18823 0.49502 0.28600
O 	O 	0.50648 0.27253 0.49092 -0.39300
O 	O 	0.67967 0.48652 0.52288 -0.38000
O 	O 	0.65419 0.21252 0.56016 -0.35600
C 	C 	0.75401 0.18022 0.48706 0.29100
O 	O 	0.61496 0.32817 0.39915 -0.37100
O 	O 	0.63880 0.22666 0.37483 -0.41700
H 	H 	0.75708 0.38001 0.51804 0.16800
H 	H 	0.53760 0.16555 0.43413 0.17800
C 	C 	0.68896 0.21572 0.77559 -0.07000
C 	C 	0.70780 0.28245 0.75391 0.01400
C 	C 	0.73265 0.36563 0.77330 -0.00400
C 	C 	0.73592 0.38016 0.81373 -0.00200
C 	C 	0.71180 0.31152 0.83510 -0.08400
C 	C 	0.69023 0.22947 0.81598 0.05000
C 	C 	0.69108 0.26102 0.71052 0.01400
S 	S 	0.75625 0.45079 0.74701 -0.02300
H 	H 	0.75446 0.44405 0.82841 0.05200
S 	S 	0.66042 0.14193 0.84171 -0.03100
H 	H 	0.67023 0.15186 0.76078 0.05400
C 	C 	0.76399 0.29610 0.69011 -0.00300
C 	C 	0.74817 0.29081 0.64944 -0.00300
C 	C 	0.65991 0.24906 0.62888 -0.08200
C 	C 	0.58600 0.20579 0.64877 0.05800
C 	C 	0.60205 0.21269 0.68946 -0.06900
S 	S 	0.87512 0.34757 0.71517 -0.03400
H 	H 	0.80485 0.32174 0.63405 0.04200
S 	S 	0.47312 0.14168 0.62296 -0.02000
H 	H 	0.54552 0.18285 0.70494 0.05600
H 	H 	0.56877 0.08915 0.84142 0.03600
H 	H 	0.88832 0.28331 0.71687 0.04000
H 	H 	0.44190 0.05477 0.61048 0.04300
H 	H 	0.84697 0.50506 0.74535 0.04000
C 	C 	0.71599 0.38167 0.20191 -0.07500
C 	C 	0.63047 0.34694 0.21116 0.01500
C 	C 	0.55835 0.32123 0.18127 -0.00500
C 	C 	0.56891 0.31850 0.14199 -0.00300
C 	C 	0.65215 0.34474 0.13243 -0.09000
C 	C 	0.72780 0.38295 0.16286 0.05900
C 	C 	0.61538 0.33023 0.25140 0.01200
S 	S 	0.45499 0.29249 0.19268 -0.02100
H 	H 	0.51153 0.29295 0.11886 0.04800
S 	S 	0.83814 0.43703 0.15266 -0.05700
H 	H 	0.77294 0.40606 0.22507 0.05200
C 	C 	0.57165 0.24262 0.25964 -0.00500
C 	C 	0.56960 0.22982 0.29852 -0.00500
C 	C 	0.61562 0.30398 0.32971 -0.08600
C 	C 	0.65729 0.39160 0.32142 0.05000
C 	C 	0.65531 0.40374 0.28235 -0.06900
S 	S 	0.52460 0.14914 0.22176 -0.04100
H 	H 	0.53573 0.16224 0.30459 0.04300
S 	S 	0.71690 0.48720 0.35935 -0.02800
H 	H 	0.68874 0.47110 0.27608 0.05600
H 	H 	0.87709 0.52597 0.15232 0.03800
H 	H 	0.59100 0.14151 0.21427 0.03500
H 	H 	0.80526 0.51813 0.36896 0.03200
H 	H 	0.39618 0.20147 0.19175 0.04000
C 	C 	0.77756 0.61543 0.49421 -0.07800
C 	C 	0.75688 0.64603 0.46293 0.00800
C 	C 	0.80582 0.73848 0.46327 -0.02800
C 	C 	0.87604 0.80114 0.49530 0.00400
C 	C 	0.89655 0.77059 0.52659 -0.04600
C 	C 	0.84808 0.67821 0.52616 0.02000
H 	H 	0.70237 0.59777 0.43841 0.04800
H 	H 	0.95134 0.81894 0.55101 0.05300
C 	C 	0.87311 0.64834 0.55797 0.06700
C 	C 	0.78511 0.76853 0.43023 0.09700
N 	N 	0.89316 0.62440 0.58343 -0.11900
N 	N 	0.76861 0.79270 0.40379 -0.10800
C 	C 	0.91026 0.08018 0.49418 0.00700
C 	C 	0.88046 0.09418 0.52758 -0.05200
C 	C 	0.82979 0.12728 0.52583 0.02400
C 	C 	0.80774 0.14578 0.49009 -0.08900
C 	C 	0.83954 0.13373 0.45695 0.00700
C 	C 	0.89049 0.10111 0.45882 -0.03500
H 	H 	0.89571 0.07811 0.55483 0.05000
H 	H 	0.82330 0.14844 0.42949 0.01500
C 	C 	0.91989 0.08667 0.42395 0.08600
C 	C 	0.80257 0.14378 0.56101 0.07600
N 	N 	0.94344 0.07505 0.39605 -0.11900
N 	N 	0.78086 0.15690 0.58924 -0.10700
C 	C 	0.17188 0.07731 0.48879 0.01300
C 	C 	0.23782 0.14668 0.51992 -0.04900
C 	C 	0.32906 0.18118 0.52300 0.02700
C 	C 	0.35519 0.14662 0.49436 -0.08300
C 	C 	0.28965 0.07865 0.46274 0.01600
C 	C 	0.19840 0.04450 0.45955 -0.05200
H 	H 	0.21757 0.17166 0.54252 0.05900
H 	H 	0.30999 0.05362 0.44020 0.02900
C 	C 	0.13265 0.97727 0.42577 0.12700
C 	C 	0.39524 0.25107 0.55600 0.06500
N 	N 	0.07993 0.92340 0.39874 -0.10600
N 	N 	0.44801 0.30710 0.58245 -0.11700
C 	C 	0.86581 0.78303 0.98007 0.01000
C 	C 	0.79291 0.71735 0.94990 -0.04200
C 	C 	0.75803 0.62656 0.94635 0.01800
C 	C 	0.79528 0.60036 0.97376 -0.05900
C 	C 	0.86633 0.66555 0.00465 -0.01100
C 	C 	0.90122 0.75643 0.00816 -0.02500
H 	H 	0.76589 0.73747 0.92813 0.05600
H 	H 	0.89373 0.64545 0.02623 0.03600
C 	C 	0.97242 0.82181 0.04099 0.06100
C 	C 	0.68616 0.56128 0.91369 0.06900
N 	N 	0.02947 0.87422 0.06728 -0.08500
N 	N 	0.62857 0.50916 0.88750 -0.12300
C 	C 	0.87176 0.04983 0.97685 0.03200
C 	C 	0.78938 0.01293 0.95167 -0.08900
C 	C 	0.75505 0.06226 0.94919 0.04700
C 	C 	0.80491 0.15066 0.97128 -0.10500
C 	C 	0.88626 0.18670 0.99696 0.03600
C 	C 	0.91835 0.13591 0.00079 -0.06000
H 	H 	0.75293 0.94669 0.93340 0.07800
H 	H 	0.92282 0.25306 0.01515 0.01200
C 	C 	0.99683 0.17088 0.03060 0.06300
C 	C 	0.66861 0.02153 0.92404 0.04400
N 	N 	0.05962 0.19893 0.05452 -0.09700
N 	N 	0.59919 0.98866 0.90396 -0.09000
C 	C 	0.33197 0.18230 0.96633 -0.08400
C 	C 	0.27270 0.09910 0.94045 0.01400
C 	C 	0.17938 0.04421 0.94081 -0.05100
C 	C 	0.14480 0.07225 0.96772 0.01100
C 	C 	0.20399 0.15574 0.99339 -0.03900
C 	C 	0.29699 0.21132 0.99258 0.03500
H 	H 	0.29937 0.07714 0.91999 0.03100
H 	H 	0.17742 0.17758 0.01394 0.05700
C 	C 	0.35532 0.29930 0.01773 0.07300
C 	C 	0.11934 0.96062 0.91271 0.12500
N 	N 	0.40197 0.36972 0.03789 -0.10200
N 	N 	0.07123 0.89367 0.89021 -0.10700
