data_crystal

_cell_length_a 39.47720
_cell_length_b 39.92962
_cell_length_c 22.98785
_cell_angle_alpha 89.95645
_cell_angle_beta  89.94318
_cell_angle_gamma 89.99901

_symmetry_space_group_name_	'P 1'
_symmetry_space_group_name_H-M	'P 1'

loop_
_symmetry_equiv_pos_as_xyz
  x,y,z

loop_
_atom_site_label
_atom_site_type_symbol
_atom_site_fract_x
_atom_site_fract_y
_atom_site_fract_z
_atom_site_charge
C 	C 	0.54873 0.45621 0.06780 0.10500
N 	N 	0.51613 0.45909 0.05136 -0.17100
C 	C 	0.50062 0.43052 0.06760 0.10500
C 	C 	0.46763 0.41975 0.04313 -0.06400
C 	C 	0.44024 0.44448 0.03438 0.08800
C 	C 	0.46065 0.38382 0.03321 0.03500
C 	C 	0.47816 0.36626 0.98972 -0.03200
C 	C 	0.47090 0.33247 0.97951 -0.02200
C 	C 	0.44605 0.31610 0.01265 0.04200
C 	C 	0.43602 0.36733 0.06665 -0.03500
N 	N 	0.43965 0.47455 0.06103 -0.12000
C 	C 	0.41711 0.44317 0.98933 -0.04300
C 	C 	0.41542 0.49221 0.03333 0.08700
C 	C 	0.41038 0.52858 0.04190 -0.06600
C 	C 	0.37714 0.54363 0.02830 0.03800
C 	C 	0.31972 0.55735 0.05746 -0.02600
C 	C 	0.37004 0.55457 0.97164 -0.03400
C 	C 	0.33756 0.56592 0.95746 -0.01300
C 	C 	0.31227 0.56742 0.00037 0.03400
N 	N 	0.46991 0.54673 0.05661 -0.17200
C 	C 	0.48495 0.57417 0.07884 0.10900
C 	C 	0.46146 0.59384 0.10785 -0.05200
C 	C 	0.43070 0.57762 0.10275 -0.05100
C 	C 	0.51856 0.58619 0.05885 -0.07100
C 	C 	0.52612 0.62247 0.05670 0.04700
C 	C 	0.56004 0.66985 0.08801 -0.02500
C 	C 	0.54192 0.69091 0.05039 0.05000
C 	C 	0.51587 0.67764 0.01589 -0.03500
C 	C 	0.50806 0.64351 0.01892 -0.04700
N 	N 	0.54668 0.53092 0.06986 -0.12100
C 	C 	0.58437 0.53429 0.99630 -0.02800
C 	C 	0.57059 0.51436 0.03944 0.08200
C 	C 	0.57592 0.47785 0.04414 -0.06400
C 	C 	0.60967 0.46372 0.03112 0.03700
C 	C 	0.63787 0.47370 0.06388 -0.03900
C 	C 	0.67021 0.46245 0.04890 -0.01900
C 	C 	0.67461 0.44113 0.00106 0.02500
C 	C 	0.64636 0.43052 0.96903 -0.01300
C 	C 	0.61394 0.44172 0.98414 -0.03600
C 	C 	0.55422 0.42566 0.09478 -0.05300
C 	C 	0.52342 0.40921 0.09468 -0.05200
C 	C 	0.42882 0.33358 0.05653 -0.02400
C 	C 	0.40114 0.47382 0.98865 -0.04300
C 	C 	0.43690 0.54874 0.07105 0.10700
C 	C 	0.56843 0.56485 0.00081 -0.07700
C 	C 	0.54583 0.56189 0.04651 0.10200
C 	C 	0.55207 0.63580 0.09136 -0.03700
H 	H 	0.50773 0.47467 0.01777 0.09800
H 	H 	0.47922 0.53314 0.02119 0.09800
H 	H 	0.69192 0.47069 0.07388 0.07000
H 	H 	0.64957 0.41402 0.93205 0.07000
H 	H 	0.63475 0.49054 0.10043 0.06600
H 	H 	0.59227 0.43384 0.95871 0.05900
H 	H 	0.48440 0.31910 0.94569 0.07000
H 	H 	0.42247 0.38069 0.10045 0.06500
H 	H 	0.40973 0.32105 0.08252 0.07600
H 	H 	0.49722 0.37882 0.96371 0.05800
H 	H 	0.33194 0.57320 0.91309 0.07500
H 	H 	0.38940 0.55342 0.93826 0.06000
C 	C 	0.35191 0.54513 0.07118 -0.03900
H 	H 	0.30038 0.55837 0.09086 0.07200
H 	H 	0.58034 0.67985 0.11449 0.07500
H 	H 	0.56614 0.61975 0.12068 0.06700
H 	H 	0.48812 0.63340 0.99176 0.06700
H 	H 	0.50186 0.69372 0.98653 0.07900
H 	H 	0.57856 0.41336 0.09847 0.07000
H 	H 	0.52050 0.38234 0.09843 0.06500
H 	H 	0.41882 0.42646 0.95238 0.06900
H 	H 	0.38856 0.48440 0.95108 0.06300
H 	H 	0.46430 0.62031 0.11676 0.07300
H 	H 	0.40633 0.58983 0.10665 0.06900
H 	H 	0.59656 0.52503 0.95729 0.06000
H 	H 	0.56629 0.58284 0.96575 0.07500
H 	H 	0.35719 0.53663 0.11500 0.06400
Zn	Zn	0.38265 0.11862 0.00727 1.22900
C 	C 	0.32141 0.07933 0.02227 0.34100
O 	O 	0.41243 0.10602 0.07243 -0.39200
O 	O 	0.33696 0.05527 0.99396 -0.35300
O 	O 	0.38577 0.05698 0.09207 -0.43500
C 	C 	0.39147 0.07939 0.90432 0.33500
O 	O 	0.37488 0.10472 0.92698 -0.38300
O 	O 	0.40662 0.05765 0.93826 -0.44900
C 	C 	0.40434 0.08226 0.10937 0.33300
O 	O 	0.42631 0.15363 0.97106 -0.26300
Zn	Zn	0.38658 0.04333 0.01122 1.19400
O 	O 	0.33839 0.10570 0.04025 -0.38100
C 	C 	0.40759 0.17799 0.99016 0.31700
O 	O 	0.37933 0.16927 0.01430 -0.32700
C 	C 	0.50341 0.03458 0.46423 0.04000
C 	C 	0.53027 0.01106 0.46822 0.04300
C 	C 	0.47746 0.03450 0.50613 -0.03700
C 	C 	0.47767 0.01083 0.55135 0.04300
C 	C 	0.53085 0.98778 0.51414 -0.04600
C 	C 	0.50456 0.98731 0.55542 0.03900
H 	H 	0.55145 0.96996 0.51742 0.08100
H 	H 	0.45707 0.05259 0.50326 0.07700
C 	C 	0.50368 0.96303 0.60001 -0.01700
C 	C 	0.47799 0.96280 0.64219 0.04000
C 	C 	0.48762 0.94587 0.69422 -0.02300
C 	C 	0.52111 0.93422 0.69337 0.02600
S 	S 	0.53777 0.94512 0.62938 0.12600
H 	H 	0.47241 0.94567 0.73336 0.08200
C 	C 	0.45116 0.00954 0.59255 -0.01000
C 	C 	0.45194 0.98678 0.63929 0.03200
C 	C 	0.43325 0.99810 0.68864 -0.01000
C 	C 	0.41877 0.02970 0.68055 -0.00200
S 	S 	0.42890 0.04288 0.61406 0.12300
H 	H 	0.43408 0.98608 0.73076 0.07800
C 	C 	0.52779 0.05642 0.37339 0.03500
C 	C 	0.50307 0.05755 0.41754 -0.00600
S 	S 	0.46769 0.07283 0.38804 0.10600
C 	C 	0.48203 0.07957 0.32097 -0.00000
C 	C 	0.51601 0.06975 0.31944 -0.00700
C 	C 	0.55603 0.01149 0.42562 -0.01300
C 	C 	0.55461 0.03332 0.37773 0.04000
C 	C 	0.57341 0.02143 0.32890 -0.01500
C 	C 	0.58822 0.99000 0.33789 0.02700
S 	S 	0.57799 0.97785 0.40501 0.11200
H 	H 	0.57247 0.03294 0.28636 0.09500
H 	H 	0.53056 0.06934 0.27960 0.08800
Zn	Zn	0.60891 0.88786 0.01626 1.22900
C 	C 	0.67179 0.92436 0.01575 0.34300
O 	O 	0.61294 0.90230 0.09770 -0.39500
O 	O 	0.65583 0.95023 0.03796 -0.41600
O 	O 	0.58409 0.95071 0.08141 -0.41300
C 	C 	0.59136 0.92489 0.91235 0.32800
O 	O 	0.58299 0.89995 0.94671 -0.40700
O 	O 	0.61186 0.94827 0.93105 -0.40200
C 	C 	0.59629 0.92833 0.11757 0.33700
O 	O 	0.56216 0.85375 0.04183 -0.24600
Zn	Zn	0.60808 0.96340 0.01073 1.20600
O 	O 	0.65473 0.90026 0.99004 -0.39200
C 	C 	0.58302 0.82900 0.03449 0.30100
O 	O 	0.61364 0.83716 0.02021 -0.32500
Zn	Zn	0.11322 0.62884 0.94727 1.23400
C 	C 	0.06900 0.68683 0.94447 0.35000
O 	O 	0.09768 0.60294 0.01517 -0.39300
O 	O 	0.04779 0.66817 0.91473 -0.40800
O 	O 	0.04574 0.62663 0.02150 -0.43900
C 	C 	0.08166 0.61048 0.84063 0.33800
O 	O 	0.10387 0.63089 0.86397 -0.39400
O 	O 	0.05844 0.59630 0.87325 -0.45700
C 	C 	0.07196 0.61285 0.04692 0.32700
O 	O 	0.15238 0.58577 0.92618 -0.20800
Zn	Zn	0.03803 0.61954 0.93902 1.19000
O 	O 	0.09589 0.67338 0.96884 -0.38700
C 	C 	0.17485 0.60604 0.94747 0.31300
O 	O 	0.16352 0.63495 0.96387 -0.31100
C 	C 	0.00768 0.46897 0.39144 0.03300
C 	C 	0.03333 0.49403 0.39153 0.04400
C 	C 	0.99310 0.45844 0.44415 -0.03400
C 	C 	0.00316 0.47322 0.49680 0.02800
C 	C 	0.04334 0.50892 0.44422 -0.04500
C 	C 	0.02816 0.49898 0.49678 0.04100
H 	H 	0.06377 0.52703 0.44460 0.07600
H 	H 	0.97507 0.43799 0.44435 0.07600
C 	C 	0.03862 0.51265 0.55068 -0.01800
C 	C 	0.02253 0.50369 0.60281 0.03400
C 	C 	0.02518 0.52846 0.64685 -0.02600
C 	C 	0.04282 0.55698 0.62865 0.02300
S 	S 	0.05531 0.55075 0.55997 0.10800
H 	H 	0.01605 0.52511 0.69088 0.08100
C 	C 	0.99034 0.46189 0.55071 -0.00300
C 	C 	0.99866 0.47786 0.60284 0.04100
C 	C 	0.97545 0.47124 0.64859 -0.00400
C 	C 	0.94887 0.45028 0.63142 -0.00200
S 	S 	0.95429 0.44076 0.56112 0.12200
H 	H 	0.97896 0.47959 0.69295 0.08200
C 	C 	0.01262 0.46473 0.28520 0.03000
C 	C 	0.99830 0.45404 0.33813 -0.01200
S 	S 	0.95950 0.43934 0.32365 0.11800
C 	C 	0.95947 0.44644 0.25226 0.02100
C 	C 	0.99086 0.45966 0.23668 -0.00900
C 	C 	0.04956 0.50217 0.33861 -0.01500
C 	C 	0.03926 0.48797 0.28567 0.03700
C 	C 	0.04903 0.50728 0.23644 -0.00900
C 	C 	0.06557 0.53699 0.25129 -0.00300
S 	S 	0.06790 0.53894 0.32372 0.11400
H 	H 	0.04143 0.50158 0.19235 0.08300
H 	H 	0.99783 0.46504 0.19212 0.08700
Zn	Zn	0.87295 0.37155 0.94481 1.22900
C 	C 	0.81437 0.41435 0.95300 0.35900
O 	O 	0.89399 0.38171 0.86907 -0.42300
O 	O 	0.83489 0.43732 0.97393 -0.40600
O 	O 	0.87204 0.43400 0.86110 -0.41100
C 	C 	0.89814 0.40747 0.04306 0.34100
O 	O 	0.87555 0.38549 0.02616 -0.40300
O 	O 	0.91005 0.42940 0.00584 -0.46300
C 	C 	0.88536 0.40744 0.83673 0.33300
O 	O 	0.91890 0.33579 0.96484 -0.21800
Zn	Zn	0.88282 0.44525 0.94085 1.19000
O 	O 	0.82657 0.38687 0.92943 -0.39500
C 	C 	0.89790 0.31161 0.95420 0.30900
O 	O 	0.86728 0.32078 0.94162 -0.34000
C 	C 	0.99154 0.93023 0.10161 0.11100
N 	N 	0.97242 0.95771 0.09309 -0.17200
C 	C 	0.94220 0.95152 0.11813 0.10800
C 	C 	0.91130 0.97079 0.10356 -0.06900
C 	C 	0.91255 0.00781 0.10030 0.10100
C 	C 	0.87874 0.95336 0.09423 0.04300
C 	C 	0.87364 0.93449 0.04353 -0.03700
C 	C 	0.84104 0.92375 0.02869 -0.03200
C 	C 	0.81343 0.93189 0.06445 0.04400
C 	C 	0.85151 0.95930 0.13206 -0.03600
N 	N 	0.93987 0.02576 0.11658 -0.12200
C 	C 	0.89070 0.02689 0.06692 -0.05100
C 	C 	0.93501 0.05663 0.09427 0.09900
C 	C 	0.96244 0.08180 0.08999 -0.07300
C 	C 	0.95481 0.11568 0.06796 0.05600
C 	C 	0.93419 0.17202 0.08494 -0.01200
C 	C 	0.95689 0.12241 0.00822 -0.06500
C 	C 	0.94681 0.15359 0.98667 -0.00400
C 	C 	0.93510 0.17842 0.02491 0.03300
N 	N 	0.01418 0.04670 0.09134 -0.17200
C 	C 	0.04718 0.05260 0.10232 0.10700
C 	C 	0.05117 0.08357 0.12863 -0.05200
C 	C 	0.01908 0.09700 0.13392 -0.05500
C 	C 	0.07493 0.03370 0.07362 -0.06800
C 	C 	0.10930 0.04814 0.06983 0.04700
C 	C 	0.16417 0.05797 0.11408 -0.02900
C 	C 	0.17767 0.06643 0.05951 0.04900
C 	C 	0.15644 0.06710 0.01056 -0.02800
C 	C 	0.12224 0.05852 0.01593 -0.04500
N 	N 	0.04950 0.97742 0.08834 -0.12300
C 	C 	0.06596 0.95250 0.00500 -0.05900
C 	C 	0.04745 0.94942 0.05583 0.10000
C 	C 	0.02206 0.92295 0.06636 -0.07700
C 	C 	0.02856 0.88866 0.04517 0.05800
C 	C 	0.05597 0.87030 0.06723 -0.05000
C 	C 	0.06237 0.83797 0.04685 -0.00800
C 	C 	0.04166 0.82392 0.00374 0.01500
C 	C 	0.01428 0.84233 0.98158 0.00200
C 	C 	0.00772 0.87459 0.00230 -0.07200
C 	C 	0.97349 0.90624 0.13229 -0.05400
C 	C 	0.94191 0.91986 0.14284 -0.05200
C 	C 	0.81896 0.94862 0.11721 -0.02600
C 	C 	0.90507 0.05819 0.06307 -0.04700
C 	C 	0.99698 0.07364 0.11056 0.11400
C 	C 	0.08052 0.98380 0.00665 -0.05700
C 	C 	0.07007 0.99812 0.05835 0.09400
C 	C 	0.13021 0.04851 0.11909 -0.03900
H 	H 	0.97608 0.97464 0.05895 0.09800
H 	H 	0.00546 0.03069 0.05867 0.09900
H 	H 	0.08331 0.82376 0.06470 0.07200
H 	H 	0.99800 0.83155 0.94860 0.06200
H 	H 	0.07214 0.88100 0.10042 0.07000
H 	H 	0.98654 0.88867 0.98501 0.07000
H 	H 	0.83703 0.91048 0.98819 0.07800
H 	H 	0.85532 0.97350 0.17166 0.06900
H 	H 	0.79781 0.95466 0.14538 0.07900
H 	H 	0.89461 0.92953 0.01434 0.05500
H 	H 	0.94792 0.15841 0.94032 0.06400
H 	H 	0.96560 0.10325 0.97840 0.07000
C 	C 	0.94350 0.14058 0.10628 -0.04600
H 	H 	0.92585 0.19127 0.11490 0.08000
H 	H 	0.18030 0.05752 0.15218 0.07100
H 	H 	0.12036 0.04067 0.16095 0.06500
H 	H 	0.10611 0.05882 0.97784 0.06800
H 	H 	0.16664 0.07340 0.96817 0.08700
H 	H 	0.97883 0.87964 0.13180 0.06600
H 	H 	0.91933 0.90532 0.15161 0.06600
H 	H 	0.87274 0.01687 0.03591 0.07600
H 	H 	0.89975 0.07598 0.02873 0.06900
H 	H 	0.07418 0.09829 0.12778 0.06800
H 	H 	0.01388 0.12351 0.13792 0.06700
H 	H 	0.06126 0.93844 0.96556 0.07500
H 	H 	0.08880 0.99760 0.96869 0.06800
H 	H 	0.94188 0.13553 0.15251 0.07000
C 	C 	0.92468 0.21144 0.00224 -0.00200
C 	C 	0.89089 0.22241 0.00740 0.14400
C 	C 	0.88214 0.25487 0.99015 -0.01100
C 	C 	0.90665 0.27634 0.96625 -0.06100
C 	C 	0.93988 0.26438 0.95703 0.20400
C 	C 	0.94885 0.23233 0.97612 -0.07100
H 	H 	0.85637 0.26356 0.99617 0.10500
H 	H 	0.97465 0.22362 0.97053 0.10100
Cl	Cl	0.85910 0.19546 0.03401 -0.27300
Cl	Cl	0.96999 0.28835 0.91855 -0.22100
C 	C 	0.89516 0.43761 0.68223 0.00200
C 	C 	0.92925 0.42956 0.67250 0.10700
C 	C 	0.94552 0.40624 0.70968 -0.14100
C 	C 	0.92999 0.39766 0.76260 0.08100
C 	C 	0.89734 0.40928 0.77587 -0.02100
C 	C 	0.87840 0.42614 0.73245 -0.06100
C 	C 	0.84092 0.43323 0.74013 0.77500
H 	H 	0.88219 0.45419 0.65223 0.10400
H 	H 	0.94395 0.38336 0.79471 0.09000
C 	C 	0.98005 0.39181 0.69494 0.79600
F 	F 	0.82502 0.43534 0.68659 -0.41300
F 	F 	0.83676 0.46335 0.76889 -0.41500
F 	F 	0.82526 0.40798 0.77146 -0.41700
F 	F 	0.00511 0.41413 0.71095 -0.43900
F 	F 	0.98262 0.38521 0.63608 -0.43300
F 	F 	0.98539 0.36195 0.72422 -0.41300
C 	C 	0.89420 0.43955 0.13468 0.08300
C 	C 	0.90614 0.41117 0.10529 -0.02200
C 	C 	0.92987 0.38980 0.13278 -0.06200
C 	C 	0.94512 0.40023 0.18503 0.00100
C 	C 	0.93601 0.43075 0.21073 0.10200
C 	C 	0.90837 0.44913 0.18821 -0.13300
C 	C 	0.89603 0.48060 0.21846 0.79100
H 	H 	0.87524 0.45521 0.11411 0.07100
H 	H 	0.96565 0.38578 0.20373 0.09700
C 	C 	0.94050 0.35708 0.10477 0.77100
F 	F 	0.86504 0.49099 0.19684 -0.42000
F 	F 	0.91932 0.50606 0.21033 -0.39700
F 	F 	0.89219 0.47472 0.27740 -0.42000
F 	F 	0.95924 0.36368 0.05522 -0.42900
F 	F 	0.91216 0.33855 0.09022 -0.43500
F 	F 	0.96007 0.33784 0.14195 -0.42600
C 	C 	0.06063 0.72201 0.95618 -0.10500
C 	C 	0.03181 0.73040 0.98934 0.23100
C 	C 	0.02533 0.76387 0.00321 -0.11600
C 	C 	0.04740 0.78918 0.98448 0.02900
C 	C 	0.07572 0.78090 0.95003 0.13500
C 	C 	0.08235 0.74737 0.93646 -0.00400
H 	H 	0.00350 0.77016 0.02967 0.10300
H 	H 	0.10443 0.74104 0.91064 0.09000
Cl	Cl	0.00441 0.69912 0.01606 -0.30600
Cl	Cl	0.10282 0.81234 0.92303 -0.26900
C 	C 	0.05447 0.62079 0.74562 0.08200
C 	C 	0.08067 0.60564 0.77722 -0.02000
C 	C 	0.10079 0.58071 0.75042 -0.06200
C 	C 	0.09009 0.56692 0.69720 0.00300
C 	C 	0.06081 0.57896 0.66970 0.10100
C 	C 	0.04500 0.60825 0.69087 -0.13700
C 	C 	0.01573 0.62401 0.65821 0.79200
H 	H 	0.03992 0.64076 0.76553 0.07100
H 	H 	0.10293 0.54523 0.67940 0.09900
C 	C 	0.13212 0.56719 0.78033 0.77300
F 	F 	0.01012 0.65659 0.67640 -0.42200
F 	F 	0.98664 0.60550 0.66778 -0.43100
F 	F 	0.02257 0.62478 0.59918 -0.42200
F 	F 	0.12265 0.54753 0.82715 -0.42500
F 	F 	0.15201 0.59341 0.79970 -0.42700
F 	F 	0.15155 0.54797 0.74289 -0.41900
C 	C 	0.03821 0.59531 0.13318 0.08500
C 	C 	0.06991 0.60330 0.10912 -0.01600
C 	C 	0.09946 0.59872 0.14332 -0.06100
C 	C 	0.09752 0.57859 0.19344 0.00400
C 	C 	0.06615 0.56671 0.21317 0.10700
C 	C 	0.03605 0.57889 0.18706 -0.14300
C 	C 	0.00157 0.57327 0.21461 0.79300
H 	H 	0.01527 0.60074 0.10905 0.07900
H 	H 	0.12052 0.57090 0.21546 0.09800
C 	C 	0.13300 0.61467 0.12678 0.77300
F 	F 	0.97969 0.59900 0.19981 -0.40700
F 	F 	0.00375 0.57245 0.27462 -0.42500
F 	F 	0.98803 0.54344 0.19493 -0.42400
F 	F 	0.12805 0.64511 0.09920 -0.43500
F 	F 	0.15075 0.59342 0.09036 -0.43000
F 	F 	0.15238 0.62054 0.17589 -0.42100
C 	C 	0.70886 0.92249 0.01989 -0.11000
C 	C 	0.72447 0.89812 0.05518 0.21300
C 	C 	0.75923 0.90019 0.06677 -0.09100
C 	C 	0.77852 0.92655 0.04374 0.00500
C 	C 	0.76319 0.94996 0.00620 0.12800
C 	C 	0.72853 0.94776 0.99436 0.00600
H 	H 	0.77097 0.88205 0.09547 0.10300
H 	H 	0.71665 0.96643 0.96686 0.08400
Cl	Cl	0.70044 0.86608 0.08807 -0.27500
Cl	Cl	0.78681 0.98319 0.97613 -0.27500
C 	C 	0.57475 0.90067 0.81731 0.08400
C 	C 	0.57487 0.92829 0.85506 -0.01500
C 	C 	0.55769 0.95811 0.83892 -0.05700
C 	C 	0.54350 0.96047 0.78310 -0.00200
C 	C 	0.54166 0.93231 0.74684 0.10400
C 	C 	0.55729 0.90199 0.76397 -0.13100
C 	C 	0.55557 0.87120 0.72534 0.79300
H 	H 	0.58792 0.87802 0.83004 0.09200
H 	H 	0.53258 0.98392 0.76851 0.12100
C 	C 	0.55429 0.98743 0.88073 0.76400
F 	F 	0.57022 0.84353 0.75150 -0.41400
F 	F 	0.57251 0.87740 0.67377 -0.42400
F 	F 	0.52214 0.86348 0.71331 -0.42200
F 	F 	0.58471 0.00448 0.88377 -0.44100
F 	F 	0.54526 0.97635 0.93566 -0.47600
F 	F 	0.52953 0.00966 0.86253 -0.40600
C 	C 	0.56277 0.95187 0.26509 0.00800
C 	C 	0.59197 0.96588 0.28989 0.10600
C 	C 	0.62382 0.96065 0.26333 -0.13500
C 	C 	0.62517 0.94579 0.20792 0.08300
C 	C 	0.59543 0.93501 0.18039 -0.01800
C 	C 	0.56437 0.93555 0.21104 -0.05100
C 	C 	0.53246 0.92097 0.18449 0.77500
H 	H 	0.53853 0.95535 0.28646 0.12600
H 	H 	0.64902 0.94442 0.18464 0.08200
C 	C 	0.65600 0.97329 0.29180 0.79200
F 	F 	0.50803 0.91512 0.22655 -0.39600
F 	F 	0.53949 0.89079 0.15751 -0.42500
F 	F 	0.51949 0.94314 0.14400 -0.40000
F 	F 	0.65647 0.96438 0.34998 -0.42300
F 	F 	0.65742 0.00779 0.28721 -0.42900
F 	F 	0.68458 0.95987 0.26576 -0.42600
C 	C 	0.21466 0.07055 0.05252 0.00000
C 	C 	0.22861 0.10131 0.03426 0.14900
C 	C 	0.26356 0.10402 0.02486 -0.00900
C 	C 	0.28490 0.07649 0.03478 -0.07900
C 	C 	0.27109 0.04629 0.05609 0.21100
C 	C 	0.23609 0.04329 0.06368 -0.08400
H 	H 	0.27409 0.12750 0.00955 0.10400
H 	H 	0.22553 0.01977 0.07873 0.09800
Cl	Cl	0.20280 0.13688 0.02479 -0.26700
Cl	Cl	0.29741 0.01272 0.07698 -0.28400
C 	C 	0.42935 0.07922 0.81890 0.08500
C 	C 	0.39633 0.07717 0.84096 -0.01700
C 	C 	0.36954 0.06700 0.80409 -0.06400
C 	C 	0.37724 0.05427 0.74856 0.00100
C 	C 	0.41086 0.05245 0.72924 0.10500
C 	C 	0.43695 0.06750 0.76271 -0.13600
C 	C 	0.47272 0.07115 0.73887 0.79600
H 	H 	0.44943 0.08829 0.84687 0.09300
H 	H 	0.35736 0.04374 0.72174 0.10200
C 	C 	0.33309 0.06752 0.82522 0.77200
F 	F 	0.49317 0.08941 0.77608 -0.41000
F 	F 	0.47197 0.08783 0.68618 -0.43600
F 	F 	0.48736 0.04001 0.73139 -0.44200
F 	F 	0.32510 0.09889 0.84669 -0.42000
F 	F 	0.32884 0.04393 0.86868 -0.43800
F 	F 	0.31057 0.06036 0.78081 -0.42200
C 	C 	0.44249 0.10805 0.25381 0.00300
C 	C 	0.45965 0.07868 0.26955 0.10200
C 	C 	0.45517 0.04908 0.23593 -0.13800
C 	C 	0.43751 0.05118 0.18305 0.08700
C 	C 	0.42103 0.08080 0.16667 -0.01800
C 	C 	0.42162 0.10888 0.20430 -0.05700
C 	C 	0.40092 0.14006 0.19122 0.77100
H 	H 	0.44554 0.13035 0.28017 0.10000
H 	H 	0.43693 0.02979 0.15403 0.07600
C 	C 	0.47028 0.01559 0.25419 0.79500
F 	F 	0.39658 0.15938 0.24067 -0.42100
F 	F 	0.36906 0.13154 0.17098 -0.43000
F 	F 	0.41740 0.15915 0.14975 -0.42200
F 	F 	0.46701 0.01043 0.31337 -0.44500
F 	F 	0.50413 0.01447 0.23893 -0.44800
F 	F 	0.45394 0.98932 0.22670 -0.40600
C 	C 	0.41949 0.21290 0.99095 -0.06000
C 	C 	0.44948 0.22177 0.02043 0.19500
C 	C 	0.45864 0.25552 0.02538 -0.07600
C 	C 	0.43802 0.28060 0.00155 -0.01200
C 	C 	0.40862 0.27168 0.97058 0.16000
C 	C 	0.39941 0.23797 0.96568 -0.02800
H 	H 	0.48132 0.26231 0.04915 0.09700
H 	H 	0.37643 0.23126 0.94271 0.10100
Cl	Cl	0.47485 0.19109 0.05418 -0.23000
Cl	Cl	0.38304 0.30256 0.93795 -0.27200
C 	C 	0.27732 0.57719 0.98477 0.00600
C 	C 	0.26976 0.61015 0.96713 0.15300
C 	C 	0.23637 0.61897 0.95357 -0.02000
C 	C 	0.21008 0.59550 0.95913 -0.05000
C 	C 	0.21759 0.56271 0.97847 0.20600
C 	C 	0.25116 0.55360 0.98972 -0.07100
H 	H 	0.23079 0.64429 0.93947 0.10800
H 	H 	0.25682 0.52832 0.00392 0.09300
Cl	Cl	0.30157 0.64106 0.96440 -0.26600
Cl	Cl	0.18521 0.53355 0.99359 -0.21000
C 	C 	0.70902 0.43153 0.98265 0.02400
C 	C 	0.72489 0.40306 0.00638 0.12300
C 	C 	0.75905 0.39670 0.99420 0.01000
C 	C 	0.77758 0.41870 0.95883 -0.10100
C 	C 	0.76123 0.44621 0.93277 0.21400
C 	C 	0.72709 0.45251 0.94481 -0.09500
H 	H 	0.77144 0.37524 0.01375 0.08000
H 	H 	0.71478 0.47416 0.92577 0.10300
Cl	Cl	0.70249 0.37565 0.05252 -0.27200
Cl	Cl	0.78315 0.47279 0.88447 -0.23600
C 	C 	0.55114 0.72662 0.04546 -0.01300
C 	C 	0.54280 0.74940 0.08998 0.15400
C 	C 	0.55323 0.78282 0.08586 -0.02500
C 	C 	0.57180 0.79386 0.03745 -0.07400
C 	C 	0.57908 0.77130 0.99191 0.20300
C 	C 	0.56902 0.73780 0.99643 -0.07200
H 	H 	0.54706 0.80018 0.12053 0.11800
H 	H 	0.57502 0.72044 0.96168 0.09800
Cl	Cl	0.51884 0.73650 0.15067 -0.26300
Cl	Cl	0.59906 0.78500 0.92755 -0.24400
