data_crystal

_cell_length_a 39.53890
_cell_length_b 38.47135
_cell_length_c 22.85828
_cell_angle_alpha 89.96469
_cell_angle_beta  89.94362
_cell_angle_gamma 87.40324

_symmetry_space_group_name_	'P 1'
_symmetry_space_group_name_H-M	'P 1'

loop_
_symmetry_equiv_pos_as_xyz
  x,y,z

loop_
_atom_site_label
_atom_site_type_symbol
_atom_site_fract_x
_atom_site_fract_y
_atom_site_fract_z
_atom_site_charge
C 	C 	0.45239 0.55150 0.97045 -0.03900
C 	C 	0.48372 0.56673 0.96867 -0.03900
C 	C 	0.44958 0.51612 0.95607 0.00900
C 	C 	0.47924 0.49547 0.94353 -0.00500
C 	C 	0.51106 0.51090 0.94184 -0.00500
C 	C 	0.51323 0.54691 0.95329 0.00900
C 	C 	0.47719 0.45931 0.93345 0.00800
C 	C 	0.50654 0.43959 0.91698 -0.03800
C 	C 	0.54070 0.49021 0.92926 0.00800
C 	C 	0.54512 0.56219 0.95051 -0.00800
C 	C 	0.57438 0.54130 0.94037 -0.04400
C 	C 	0.57267 0.50541 0.93133 -0.00500
C 	C 	0.41770 0.50068 0.95519 -0.00800
C 	C 	0.41610 0.46473 0.94686 -0.04400
C 	C 	0.44556 0.44375 0.93873 -0.00500
C 	C 	0.54848 0.60006 0.95818 0.02300
C 	C 	0.54008 0.62299 0.91214 -0.04200
C 	C 	0.54774 0.65805 0.91610 -0.03600
C 	C 	0.56451 0.67023 0.96560 0.02400
C 	C 	0.57193 0.64756 0.01239 -0.04500
C 	C 	0.56389 0.61262 0.00874 -0.04900
C 	C 	0.60473 0.48391 0.92938 0.01200
C 	C 	0.61234 0.45989 0.97428 -0.03300
C 	C 	0.64521 0.44543 0.98031 -0.02800
C 	C 	0.62997 0.49195 0.88895 -0.04000
C 	C 	0.66319 0.47887 0.89679 -0.03200
C 	C 	0.67112 0.45602 0.94319 0.01200
C 	C 	0.38570 0.52162 0.96323 0.02300
C 	C 	0.36466 0.51500 0.01104 -0.04900
C 	C 	0.33229 0.53095 0.01443 -0.04500
C 	C 	0.32093 0.55421 0.97065 0.02400
C 	C 	0.34276 0.56258 0.92481 -0.03500
C 	C 	0.37468 0.54562 0.92022 -0.04100
C 	C 	0.44313 0.40549 0.94171 0.01200
C 	C 	0.42497 0.38814 0.89876 -0.04000
C 	C 	0.41686 0.35348 0.90714 -0.03400
C 	C 	0.42728 0.33574 0.95812 0.01400
C 	C 	0.44670 0.35259 0.99987 -0.02800
C 	C 	0.45453 0.38735 0.99177 -0.03200
C 	C 	0.53781 0.45495 0.91419 -0.03800
H 	H 	0.52827 0.61349 0.87287 0.04400
H 	H 	0.54143 0.67554 0.88018 0.04600
H 	H 	0.58445 0.65688 0.05109 0.04500
H 	H 	0.57048 0.59509 0.04447 0.04200
H 	H 	0.33450 0.58121 0.89164 0.04700
H 	H 	0.39070 0.55083 0.88304 0.04400
H 	H 	0.31580 0.52476 0.05048 0.04400
H 	H 	0.37302 0.49667 0.04460 0.04200
H 	H 	0.41604 0.40192 0.86000 0.04400
H 	H 	0.40189 0.34064 0.87465 0.04700
H 	H 	0.46843 0.40055 0.02530 0.03500
H 	H 	0.45494 0.33903 0.03927 0.03700
H 	H 	0.59315 0.45359 0.00594 0.03500
H 	H 	0.65099 0.42758 0.01598 0.03700
H 	H 	0.62431 0.51020 0.85381 0.04400
H 	H 	0.68301 0.48759 0.86828 0.04700
H 	H 	0.43044 0.56726 0.98414 0.04400
H 	H 	0.48494 0.59390 0.98035 0.04400
H 	H 	0.59885 0.55298 0.94079 0.04800
H 	H 	0.55968 0.43937 0.89952 0.04600
H 	H 	0.50515 0.41246 0.90505 0.04600
H 	H 	0.39175 0.45283 0.94842 0.04800
Zn	Zn	0.35408 0.13794 0.99426 1.22300
C 	C 	0.29229 0.10066 0.99967 0.33900
O 	O 	0.35223 0.12711 0.07812 -0.44600
O 	O 	0.30985 0.07596 0.02724 -0.46100
O 	O 	0.38236 0.07584 0.06544 -0.51700
C 	C 	0.36720 0.09578 0.89247 0.32400
O 	O 	0.37888 0.12011 0.92601 -0.47800
O 	O 	0.35039 0.07079 0.91615 -0.49500
C 	C 	0.37068 0.10098 0.09976 0.33000
O 	O 	0.40128 0.17212 0.01078 -0.33300
Zn	Zn	0.35707 0.05974 0.99832 1.17400
O 	O 	0.30790 0.12541 0.97221 -0.43400
C 	C 	0.38038 0.19854 0.00178 0.26800
O 	O 	0.34957 0.19090 0.98988 -0.36400
C 	C 	0.51117 0.01152 0.55209 0.00900
C 	C 	0.48730 0.04031 0.55127 0.00900
C 	C 	0.51722 0.99186 0.50113 -0.05700
C 	C 	0.50100 0.00159 0.44867 0.01000
C 	C 	0.47093 0.04999 0.49881 -0.05500
C 	C 	0.47792 0.03111 0.44733 0.00900
H 	H 	0.45430 0.07316 0.49741 0.04900
H 	H 	0.53491 0.96954 0.50206 0.04800
C 	C 	0.46510 0.04274 0.39272 -0.01300
C 	C 	0.47276 0.02449 0.34106 0.00600
C 	C 	0.44863 0.03084 0.29614 -0.05500
C 	C 	0.42173 0.05336 0.31339 -0.00300
S 	S 	0.42874 0.06575 0.38224 -0.01300
H 	H 	0.45037 0.01897 0.25323 0.03900
C 	C 	0.50723 0.98276 0.39644 -0.01300
C 	C 	0.49470 0.99515 0.34271 0.00500
C 	C 	0.51416 0.98319 0.29408 -0.05500
C 	C 	0.54218 0.96175 0.31011 -0.00200
S 	S 	0.54165 0.95725 0.38276 -0.01700
H 	H 	0.50860 0.99064 0.24928 0.03900
C 	C 	0.52192 0.02219 0.65600 0.00500
C 	C 	0.52929 0.00401 0.60404 -0.01300
S 	S 	0.54594 0.96481 0.62218 -0.01900
C 	C 	0.54419 0.96925 0.69457 -0.00300
C 	C 	0.53090 0.00275 0.70709 -0.05600
C 	C 	0.48205 0.06001 0.60278 -0.01300
C 	C 	0.49868 0.05087 0.65520 0.00600
C 	C 	0.48144 0.06412 0.70569 -0.05300
C 	C 	0.45083 0.08211 0.69259 -0.00100
S 	S 	0.44582 0.08147 0.62018 -0.01300
H 	H 	0.48948 0.05843 0.74999 0.04100
H 	H 	0.52903 0.01308 0.75105 0.04000
Zn	Zn	0.62382 0.87452 0.99810 1.22500
C 	C 	0.68134 0.91832 0.99991 0.35200
O 	O 	0.59983 0.88175 0.07311 -0.45500
O 	O 	0.66120 0.94375 0.98002 -0.45600
O 	O 	0.61973 0.93556 0.08700 -0.50100
C 	C 	0.60264 0.91753 0.90103 0.33300
O 	O 	0.62379 0.89226 0.91792 -0.45000
O 	O 	0.58826 0.93858 0.93955 -0.51000
C 	C 	0.60301 0.90926 0.10620 0.32300
O 	O 	0.58052 0.83824 0.96777 -0.31800
Zn	Zn	0.61218 0.95244 0.00875 1.17100
O 	O 	0.66875 0.88978 0.02096 -0.44000
C 	C 	0.60225 0.81281 0.97882 0.28600
O 	O 	0.63169 0.82173 0.99671 -0.37000
Zn	Zn	0.11915 0.62283 0.00898 1.21900
C 	C 	0.07103 0.68120 0.00707 0.32400
O 	O 	0.11196 0.59967 0.08451 -0.46700
O 	O 	0.04968 0.65969 0.98439 -0.43500
O 	O 	0.05732 0.61931 0.09567 -0.49800
C 	C 	0.08375 0.59711 0.91080 0.33200
O 	O 	0.10408 0.62104 0.92794 -0.45200
O 	O 	0.06326 0.58334 0.94843 -0.50900
C 	C 	0.08582 0.60699 0.11850 0.32200
O 	O 	0.15868 0.57732 0.98519 -0.33000
Zn	Zn	0.04565 0.60959 0.01526 1.16800
O 	O 	0.10026 0.66936 0.02811 -0.44100
C 	C 	0.18133 0.59989 0.99547 0.29900
O 	O 	0.16972 0.63082 0.00920 -0.38300
C 	C 	0.00620 0.46082 0.46476 0.00700
C 	C 	0.03162 0.48599 0.46361 0.01100
C 	C 	0.99640 0.44638 0.51840 -0.05300
C 	C 	0.01318 0.45503 0.57031 0.00800
C 	C 	0.04703 0.49600 0.51589 -0.05600
C 	C 	0.03888 0.47987 0.56887 0.01000
H 	H 	0.06722 0.51411 0.51461 0.04900
H 	H 	0.97780 0.42655 0.51911 0.04900
C 	C 	0.05861 0.48449 0.61954 -0.01400
C 	C 	0.05239 0.46682 0.67166 0.00600
C 	C 	0.06666 0.48259 0.72155 -0.05500
C 	C 	0.08370 0.51264 0.70792 -0.00200
S 	S 	0.07947 0.51996 0.63608 -0.01300
H 	H 	0.06185 0.47468 0.76609 0.04100
C 	C 	0.00818 0.43638 0.62276 -0.01300
C 	C 	0.02667 0.44301 0.67357 0.00600
C 	C 	0.01077 0.43181 0.72562 -0.05600
C 	C 	0.98024 0.41609 0.71482 -0.00000
S 	S 	0.97228 0.41826 0.64293 -0.01300
H 	H 	0.01849 0.43921 0.76901 0.04000
C 	C 	0.00591 0.46027 0.35726 0.00300
C 	C 	0.99461 0.44773 0.41091 -0.01200
S 	S 	0.95816 0.42841 0.39937 -0.01400
C 	C 	0.95751 0.43234 0.32632 -0.00200
C 	C 	0.98509 0.45155 0.30946 -0.05500
C 	C 	0.04356 0.49742 0.40883 -0.01500
C 	C 	0.02932 0.48639 0.35632 0.00500
C 	C 	0.03335 0.50996 0.30927 -0.05500
C 	C 	0.05072 0.53930 0.32536 -0.00200
S 	S 	0.06064 0.53570 0.39624 -0.01300
H 	H 	0.02397 0.50594 0.26549 0.03700
H 	H 	0.98818 0.46135 0.26549 0.03800
Zn	Zn	0.87080 0.39053 0.02664 1.21800
C 	C 	0.81259 0.43456 0.99779 0.33900
O 	O 	0.90300 0.39540 0.96200 -0.46500
O 	O 	0.82870 0.46108 0.01867 -0.45400
O 	O 	0.88505 0.44920 0.93151 -0.49800
C 	C 	0.87830 0.43417 0.12581 0.33200
O 	O 	0.85935 0.41075 0.10260 -0.45600
O 	O 	0.89480 0.45500 0.09166 -0.51500
C 	C 	0.89829 0.41814 0.91959 0.32300
O 	O 	0.91152 0.35470 0.07621 -0.32900
Zn	Zn	0.88046 0.46551 0.01162 1.16600
O 	O 	0.82912 0.40500 0.98591 -0.44500
C 	C 	0.89346 0.32924 0.05932 0.28800
O 	O 	0.86651 0.33809 0.02979 -0.38500
C 	C 	0.92494 0.01752 0.03415 -0.04500
C 	C 	0.93929 0.04961 0.04214 -0.03500
C 	C 	0.94515 0.98807 0.01751 0.01700
C 	C 	0.98055 0.99097 0.01125 -0.02600
C 	C 	0.99503 0.02370 0.01813 0.00700
C 	C 	0.97420 0.05331 0.03291 0.00000
C 	C 	0.00149 0.96114 0.99838 0.02800
C 	C 	0.03637 0.96476 0.98891 -0.05000
C 	C 	0.03031 0.02679 0.01011 -0.01200
C 	C 	0.98881 0.08606 0.03872 -0.00400
C 	C 	0.02374 0.08876 0.03167 -0.05400
C 	C 	0.04456 0.05966 0.01735 0.00300
C 	C 	0.93076 0.95549 0.00807 -0.02200
C 	C 	0.95178 0.92597 0.99737 -0.02800
C 	C 	0.98697 0.92826 0.99434 -0.01800
C 	C 	0.96775 0.11817 0.04893 0.01300
C 	C 	0.94964 0.13385 0.00245 -0.04700
C 	C 	0.93428 0.16700 0.00923 -0.04600
C 	C 	0.93719 0.18485 0.06234 0.02100
C 	C 	0.95402 0.16857 0.10962 -0.03800
C 	C 	0.96913 0.13526 0.10302 -0.04000
C 	C 	0.08122 0.06422 0.00977 -0.00500
C 	C 	0.10365 0.05618 0.05583 -0.03100
C 	C 	0.13786 0.06338 0.05065 -0.05300
C 	C 	0.09322 0.07958 0.95854 -0.02300
C 	C 	0.12739 0.08704 0.95355 -0.04400
C 	C 	0.14983 0.07888 0.99954 0.03000
C 	C 	0.89370 0.95184 0.00852 0.00900
C 	C 	0.87832 0.93514 0.05549 -0.04200
C 	C 	0.84368 0.92943 0.05408 -0.03400
C 	C 	0.82410 0.94068 0.00596 0.00700
C 	C 	0.83945 0.95741 0.95900 -0.02800
C 	C 	0.87416 0.96288 0.96020 -0.03400
C 	C 	0.00822 0.89570 0.99174 0.02700
C 	C 	0.00755 0.87460 0.94175 -0.04500
C 	C 	0.02186 0.84074 0.94331 -0.03300
C 	C 	0.03734 0.82790 0.99462 0.02100
C 	C 	0.03977 0.84969 0.04345 -0.04300
C 	C 	0.02517 0.88343 0.04210 -0.05200
C 	C 	0.05057 0.99712 0.99459 -0.02000
H 	H 	0.94845 0.12080 0.96056 0.05100
H 	H 	0.92126 0.17940 0.97254 0.05400
H 	H 	0.95637 0.18220 0.15079 0.04500
H 	H 	0.98301 0.12328 0.13917 0.04200
H 	H 	0.82449 0.96611 0.92164 0.04200
H 	H 	0.88591 0.97551 0.92353 0.04300
H 	H 	0.83201 0.91639 0.09042 0.04500
H 	H 	0.89329 0.92631 0.09276 0.04200
H 	H 	0.99463 0.88393 0.90262 0.04500
H 	H 	0.01990 0.82408 0.90538 0.04600
H 	H 	0.02584 0.89956 0.08088 0.04300
H 	H 	0.05179 0.83999 0.08318 0.04400
H 	H 	0.09451 0.04464 0.09574 0.03900
H 	H 	0.15506 0.05699 0.08634 0.04600
H 	H 	0.07599 0.08617 0.92301 0.04000
H 	H 	0.13644 0.09903 0.91397 0.04800
H 	H 	0.89808 0.01561 0.04197 0.04800
H 	H 	0.92311 0.07151 0.05606 0.04500
H 	H 	0.03477 0.11393 0.03647 0.04500
H 	H 	0.07740 0.99897 0.98647 0.04500
H 	H 	0.05258 0.94262 0.97614 0.05000
H 	H 	0.94071 0.90084 0.99242 0.04300
C 	C 	0.92676 0.22199 0.06573 0.00400
C 	C 	0.89494 0.23280 0.08857 0.02500
C 	C 	0.88472 0.26810 0.08769 -0.01100
C 	C 	0.90588 0.29276 0.06380 -0.08700
C 	C 	0.93788 0.28186 0.04118 0.07600
C 	C 	0.94824 0.24667 0.04309 -0.07500
H 	H 	0.86010 0.27635 0.10494 0.05000
H 	H 	0.97270 0.23831 0.02532 0.05600
I 	I 	0.86151 0.19632 0.12327 -0.11800
I 	I 	0.97000 0.31704 0.99900 -0.11900
C 	C 	0.91430 0.41118 0.86175 -0.11400
C 	C 	0.90240 0.42818 0.81013 0.08100
C 	C 	0.92402 0.42922 0.76125 -0.08700
C 	C 	0.95485 0.40963 0.76057 0.01000
C 	C 	0.96288 0.38677 0.80754 0.00400
C 	C 	0.94321 0.38872 0.85859 -0.00900
H 	H 	0.91648 0.44474 0.72347 0.05200
H 	H 	0.95064 0.37291 0.89602 0.05100
C 	C 	0.86535 0.43949 0.80268 -0.12600
C 	C 	0.99090 0.35867 0.80244 -0.09500
C 	C 	0.84526 0.41149 0.77200 -0.00900
H 	H 	0.85729 0.40430 0.72945 0.03000
H 	H 	0.81938 0.42256 0.76255 0.02900
C 	C 	0.02111 0.36626 0.84191 -0.02300
H 	H 	0.01293 0.36726 0.88844 0.03600
H 	H 	0.03124 0.39181 0.83048 0.03000
H 	H 	0.85255 0.44657 0.84433 0.06800
H 	H 	0.99960 0.35529 0.75646 0.05200
C 	C 	0.84211 0.37880 0.80936 -0.16600
C 	C 	0.04949 0.33827 0.83563 -0.15900
H 	H 	0.83269 0.38566 0.85385 0.07300
H 	H 	0.82395 0.36146 0.78850 0.06700
H 	H 	0.86696 0.36432 0.81293 0.07200
H 	H 	0.86366 0.46350 0.77552 0.05200
H 	H 	0.04030 0.31241 0.84804 0.06400
H 	H 	0.07080 0.34440 0.86491 0.06100
H 	H 	0.05894 0.33727 0.78985 0.06000
H 	H 	0.98058 0.33341 0.81569 0.05300
C 	C 	0.92684 0.43009 0.29024 0.01100
C 	C 	0.91994 0.39873 0.26117 0.00500
C 	C 	0.89931 0.39990 0.21117 -0.00400
C 	C 	0.88707 0.43191 0.18847 -0.11100
C 	C 	0.88942 0.46230 0.22274 0.07700
C 	C 	0.90920 0.46101 0.27378 -0.08600
H 	H 	0.89483 0.37610 0.18765 0.04600
H 	H 	0.91249 0.48458 0.29875 0.05100
C 	C 	0.93490 0.36391 0.28217 -0.09300
C 	C 	0.86833 0.49513 0.20887 -0.11700
C 	C 	0.96205 0.34834 0.24033 -0.02600
H 	H 	0.95142 0.34558 0.19565 0.04300
H 	H 	0.96977 0.32179 0.25596 0.03200
C 	C 	0.83454 0.49543 0.24190 -0.01800
H 	H 	0.83927 0.49370 0.28979 0.03200
H 	H 	0.82015 0.47256 0.22863 0.04400
H 	H 	0.94547 0.36543 0.32703 0.05100
H 	H 	0.86341 0.49786 0.16127 0.04700
C 	C 	0.99354 0.36986 0.23721 -0.15200
C 	C 	0.81308 0.52859 0.22940 -0.16000
H 	H 	0.00415 0.37363 0.28162 0.06000
H 	H 	0.01310 0.35601 0.20994 0.05800
H 	H 	0.98736 0.39556 0.21679 0.06200
H 	H 	0.91413 0.34545 0.28516 0.05000
H 	H 	0.82634 0.55177 0.24464 0.05600
H 	H 	0.78856 0.52762 0.25295 0.06300
H 	H 	0.80789 0.53113 0.18181 0.06300
H 	H 	0.88251 0.51822 0.22192 0.04500
C 	C 	0.04699 0.79060 0.99970 0.02300
C 	C 	0.07706 0.77672 0.97412 0.01600
C 	C 	0.08484 0.74091 0.97721 0.01500
C 	C 	0.06297 0.71882 0.00602 -0.11700
C 	C 	0.03351 0.73292 0.03344 0.09600
C 	C 	0.02553 0.76862 0.02962 -0.09500
H 	H 	0.10778 0.73021 0.95684 0.04800
H 	H 	0.00264 0.77936 0.05009 0.06200
I 	I 	0.11154 0.80927 0.93183 -0.11000
I 	I 	0.00170 0.70147 0.08409 -0.17700
C 	C 	0.08773 0.58184 0.85222 -0.11300
C 	C 	0.06265 0.58761 0.80870 0.08200
C 	C 	0.06366 0.56687 0.75809 -0.08600
C 	C 	0.08876 0.54026 0.75116 0.01300
C 	C 	0.11558 0.53695 0.79190 0.00300
C 	C 	0.11503 0.55819 0.84177 -0.00200
H 	H 	0.04410 0.57055 0.72518 0.05300
H 	H 	0.13519 0.55525 0.87377 0.04200
C 	C 	0.03577 0.61694 0.81404 -0.12400
C 	C 	0.14559 0.51179 0.78140 -0.09400
C 	C 	0.99979 0.60369 0.81991 -0.01800
H 	H 	0.99415 0.58609 0.78301 0.02800
H 	H 	0.98142 0.62638 0.81732 0.02700
C 	C 	0.17058 0.52723 0.73825 -0.02200
H 	H 	0.18014 0.55169 0.75658 0.03700
H 	H 	0.15762 0.53346 0.69613 0.03500
H 	H 	0.04076 0.63486 0.85080 0.06100
H 	H 	0.13705 0.48652 0.76471 0.05100
C 	C 	0.99418 0.58487 0.87770 -0.14400
C 	C 	0.20063 0.50191 0.72627 -0.16100
H 	H 	0.99911 0.60228 0.91518 0.01700
H 	H 	0.96749 0.57717 0.88030 0.04000
H 	H 	0.01089 0.56095 0.88061 0.05500
H 	H 	0.03668 0.63312 0.77380 0.05600
H 	H 	0.21422 0.49526 0.76756 0.06900
H 	H 	0.21850 0.51410 0.69581 0.06400
H 	H 	0.19188 0.47770 0.70588 0.06200
H 	H 	0.15886 0.50586 0.82339 0.05100
C 	C 	0.08622 0.59448 0.17959 -0.12000
C 	C 	0.06824 0.61301 0.22414 0.08600
C 	C 	0.05907 0.59528 0.27512 -0.09100
C 	C 	0.06937 0.56028 0.28326 0.01200
C 	C 	0.09331 0.54442 0.24437 0.00100
C 	C 	0.10107 0.56151 0.19214 -0.00700
H 	H 	0.04315 0.60845 0.30762 0.05200
H 	H 	0.11764 0.54856 0.16035 0.03900
C 	C 	0.06225 0.65222 0.22108 -0.13100
C 	C 	0.11179 0.51014 0.25915 -0.09600
C 	C 	0.09099 0.67143 0.25028 -0.00500
H 	H 	0.09585 0.66099 0.29501 0.02900
H 	H 	0.08284 0.69933 0.25480 0.02800
C 	C 	0.10062 0.48058 0.21937 -0.02200
H 	H 	0.10969 0.48491 0.17401 0.02700
H 	H 	0.07260 0.47997 0.21809 0.02700
H 	H 	0.05876 0.66183 0.17570 0.07800
H 	H 	0.10819 0.50309 0.30580 0.05300
C 	C 	0.12382 0.66909 0.21476 -0.16800
C 	C 	0.11485 0.44523 0.24052 -0.15900
H 	H 	0.11913 0.67757 0.16889 0.07500
H 	H 	0.14245 0.68631 0.23457 0.06600
H 	H 	0.13496 0.64208 0.21498 0.07500
H 	H 	0.03819 0.65962 0.24408 0.05700
H 	H 	0.14295 0.44485 0.24181 0.06000
H 	H 	0.10699 0.42460 0.21010 0.05600
H 	H 	0.10499 0.43950 0.28486 0.06000
H 	H 	0.13944 0.51315 0.25336 0.05000
C 	C 	0.71794 0.92306 0.00262 -0.12900
C 	C 	0.74089 0.90086 0.97157 0.09900
C 	C 	0.77557 0.90676 0.97319 -0.07500
C 	C 	0.78752 0.93495 0.00474 0.00400
C 	C 	0.76450 0.95751 0.03480 0.01700
C 	C 	0.72992 0.95135 0.03384 0.00400
H 	H 	0.79321 0.88961 0.94946 0.06000
H 	H 	0.71227 0.96875 0.05708 0.03300
I 	I 	0.72386 0.85966 0.91889 -0.12400
I 	I 	0.78109 0.00170 0.08047 -0.12700
C 	C 	0.56609 0.94888 0.73514 0.01200
C 	C 	0.55503 0.91772 0.76000 0.00200
C 	C 	0.56981 0.90537 0.81227 -0.00300
C 	C 	0.59581 0.92323 0.83871 -0.11300
C 	C 	0.61035 0.95105 0.80873 0.07300
C 	C 	0.59536 0.96357 0.75679 -0.08500
H 	H 	0.56008 0.88271 0.83366 0.03700
H 	H 	0.60524 0.98604 0.73509 0.05000
C 	C 	0.52860 0.89666 0.72995 -0.09300
C 	C 	0.64186 0.96745 0.83176 -0.11400
C 	C 	0.54421 0.87279 0.68225 -0.02200
H 	H 	0.55935 0.88805 0.65128 0.03400
H 	H 	0.52335 0.86155 0.65695 0.02900
C 	C 	0.67349 0.94364 0.82126 -0.01700
H 	H 	0.67625 0.93816 0.77369 0.03300
H 	H 	0.67096 0.91850 0.84444 0.05200
H 	H 	0.51511 0.88080 0.76249 0.04600
H 	H 	0.63899 0.97328 0.87913 0.04000
C 	C 	0.56654 0.84291 0.70733 -0.15900
C 	C 	0.70549 0.96029 0.84298 -0.16300
H 	H 	0.55241 0.82819 0.74048 0.06300
H 	H 	0.57450 0.82483 0.67153 0.06000
H 	H 	0.58966 0.85295 0.72760 0.06800
H 	H 	0.50874 0.91405 0.70974 0.04500
H 	H 	0.70970 0.98463 0.81839 0.06100
H 	H 	0.72768 0.94200 0.83622 0.06700
H 	H 	0.70342 0.96634 0.89037 0.07400
H 	H 	0.64533 0.99288 0.80983 0.04700
C 	C 	0.58862 0.91056 0.16570 -0.11500
C 	C 	0.55328 0.90822 0.17562 0.08400
C 	C 	0.53967 0.91899 0.22966 -0.08800
C 	C 	0.55936 0.93675 0.26976 0.01300
C 	C 	0.59491 0.93610 0.26239 0.00000
C 	C 	0.60928 0.92134 0.21150 -0.00100
H 	H 	0.51275 0.91715 0.23758 0.05200
H 	H 	0.63651 0.92097 0.20544 0.03900
C 	C 	0.52914 0.89725 0.12809 -0.13300
C 	C 	0.61790 0.95031 0.30877 -0.09300
C 	C 	0.50869 0.92836 0.10165 -0.01400
H 	H 	0.49556 0.94378 0.13674 0.02300
H 	H 	0.48886 0.91825 0.07261 0.02300
C 	C 	0.62755 0.92219 0.35416 -0.02500
H 	H 	0.64275 0.90075 0.33269 0.03400
H 	H 	0.60442 0.91108 0.37278 0.03600
H 	H 	0.54155 0.88176 0.09286 0.07800
H 	H 	0.60599 0.97365 0.33032 0.05000
C 	C 	0.53051 0.95219 0.06563 -0.15000
C 	C 	0.64824 0.93685 0.40402 -0.15800
H 	H 	0.54449 0.93706 0.03127 0.01300
H 	H 	0.51406 0.97253 0.04406 0.03700
H 	H 	0.54873 0.96529 0.09418 0.02500
H 	H 	0.51089 0.87951 0.14802 0.06100
H 	H 	0.67185 0.94769 0.38683 0.06000
H 	H 	0.65517 0.91577 0.43558 0.05900
H 	H 	0.63320 0.95760 0.42744 0.06000
H 	H 	0.64141 0.95932 0.28795 0.04700
C 	C 	0.18595 0.08623 0.99403 0.01400
C 	C 	0.20870 0.06232 0.96629 0.02100
C 	C 	0.24331 0.06835 0.96566 -0.00200
C 	C 	0.25559 0.09784 0.99305 -0.09800
C 	C 	0.23274 0.12233 0.01921 0.08000
C 	C 	0.19803 0.11647 0.01935 -0.08500
H 	H 	0.26083 0.04957 0.94520 0.03500
H 	H 	0.18053 0.13501 0.04041 0.06000
I 	I 	0.19171 0.01618 0.92711 -0.12200
I 	I 	0.25003 0.16732 0.06172 -0.11300
C 	C 	0.37968 0.09203 0.83179 -0.12000
C 	C 	0.38652 0.12154 0.79738 0.08900
C 	C 	0.40889 0.11767 0.74983 -0.08900
C 	C 	0.42209 0.08466 0.73369 0.01400
C 	C 	0.40948 0.05470 0.76074 -0.00100
C 	C 	0.38894 0.05873 0.81056 -0.00500
H 	H 	0.41613 0.14040 0.72556 0.05500
H 	H 	0.38097 0.03589 0.83369 0.02400
C 	C 	0.36691 0.15605 0.80584 -0.12600
C 	C 	0.41598 0.01860 0.73521 -0.09600
C 	C 	0.33521 0.15895 0.76702 -0.00900
H 	H 	0.34196 0.15277 0.72082 0.02900
H 	H 	0.32490 0.18630 0.76824 0.03000
C 	C 	0.43959 0.99597 0.77445 -0.02100
H 	H 	0.42663 0.99049 0.81641 0.02100
H 	H 	0.46291 0.00971 0.78478 0.02800
H 	H 	0.35953 0.16103 0.85193 0.06500
H 	H 	0.42644 0.01964 0.69020 0.05400
C 	C 	0.30750 0.13525 0.78747 -0.16600
C 	C 	0.44969 0.96142 0.74512 -0.16100
H 	H 	0.30170 0.13963 0.83454 0.07400
H 	H 	0.28409 0.14104 0.76181 0.06400
H 	H 	0.31537 0.10750 0.78046 0.07000
H 	H 	0.38351 0.17756 0.79400 0.05800
H 	H 	0.42689 0.94658 0.73550 0.05700
H 	H 	0.46645 0.94568 0.77489 0.05600
H 	H 	0.46359 0.96598 0.70375 0.06200
H 	H 	0.39136 0.00593 0.73115 0.04700
C 	C 	0.37626 0.09824 0.16314 -0.11500
C 	C 	0.40330 0.11495 0.19022 0.08600
C 	C 	0.41523 0.10291 0.24477 -0.08900
C 	C 	0.40122 0.07402 0.27130 0.01500
C 	C 	0.37132 0.06074 0.24822 -0.00200
C 	C 	0.35879 0.07339 0.19449 -0.00100
H 	H 	0.43697 0.11446 0.26454 0.05400
H 	H 	0.33670 0.06222 0.17522 0.02800
C 	C 	0.41979 0.14546 0.16150 -0.13000
C 	C 	0.35236 0.03346 0.28104 -0.09100
C 	C 	0.45593 0.13621 0.13994 -0.00800
H 	H 	0.47209 0.12689 0.17704 0.02500
H 	H 	0.46695 0.16022 0.12261 0.03100
C 	C 	0.33153 0.05009 0.33120 -0.02600
H 	H 	0.31286 0.06979 0.31326 0.03600
H 	H 	0.34846 0.06341 0.36192 0.03600
H 	H 	0.40437 0.15669 0.12505 0.07500
H 	H 	0.37030 0.01290 0.29839 0.04700
C 	C 	0.45717 0.10874 0.09164 -0.16100
C 	C 	0.31256 0.02288 0.36520 -0.15700
H 	H 	0.44073 0.11718 0.05446 0.06400
H 	H 	0.48355 0.10500 0.07534 0.05200
H 	H 	0.44903 0.08343 0.10876 0.06200
H 	H 	0.42114 0.16668 0.19430 0.06000
H 	H 	0.29485 0.00959 0.33591 0.05800
H 	H 	0.29773 0.03577 0.40100 0.05800
H 	H 	0.33071 0.00328 0.38474 0.05900
H 	H 	0.33510 0.02013 0.25084 0.04200
C 	C 	0.41578 0.30044 0.96980 0.01600
C 	C 	0.43171 0.27115 0.94283 0.02600
C 	C 	0.41993 0.23798 0.95363 -0.01600
C 	C 	0.39253 0.23365 0.99165 -0.06500
C 	C 	0.37712 0.26288 0.01973 0.07000
C 	C 	0.38862 0.29610 0.00826 -0.08200
H 	H 	0.43199 0.21555 0.93221 0.05300
H 	H 	0.37660 0.31857 0.02963 0.05900
I 	I 	0.47411 0.27608 0.88675 -0.11800
I 	I 	0.33806 0.25755 0.08263 -0.10700
C 	C 	0.28594 0.56924 0.97252 0.01500
C 	C 	0.26141 0.55844 0.93251 0.02500
C 	C 	0.22769 0.57040 0.93864 -0.00900
C 	C 	0.21765 0.59159 0.98609 -0.07900
C 	C 	0.24217 0.60215 0.02650 0.07700
C 	C 	0.27623 0.59178 0.01835 -0.08400
H 	H 	0.20897 0.56219 0.90754 0.04900
H 	H 	0.29499 0.59984 0.04948 0.05900
I 	I 	0.27372 0.52165 0.86553 -0.12900
I 	I 	0.22847 0.62991 0.10413 -0.11600
C 	C 	0.77605 0.43834 0.98560 -0.09900
C 	C 	0.75343 0.45361 0.02692 0.08500
C 	C 	0.71931 0.45935 0.01241 -0.09100
C 	C 	0.70688 0.44783 0.95865 0.02200
C 	C 	0.72897 0.42989 0.91941 0.01800
C 	C 	0.76352 0.42610 0.93237 -0.00000
H 	H 	0.70228 0.47242 0.04332 0.06000
H 	H 	0.78061 0.41340 0.90117 0.04400
I 	I 	0.76886 0.46442 0.11385 -0.13300
I 	I 	0.71063 0.40582 0.84279 -0.11900
C 	C 	0.57429 0.70673 0.96856 0.01400
C 	C 	0.60308 0.71770 0.93854 0.02600
C 	C 	0.61210 0.75240 0.94252 -0.01100
C 	C 	0.59295 0.77622 0.97686 -0.07400
C 	C 	0.56488 0.76488 0.00865 0.07500
C 	C 	0.55542 0.73041 0.00353 -0.08300
H 	H 	0.63398 0.76087 0.91875 0.05400
H 	H 	0.53372 0.72182 0.02770 0.05900
I 	I 	0.63409 0.68224 0.88859 -0.11600
I 	I 	0.53824 0.79801 0.06902 -0.12600
