data_crystal

_cell_length_a 16.70433
_cell_length_b 15.84829
_cell_length_c 36.96000
_cell_angle_alpha 89.87620
_cell_angle_beta  89.87878
_cell_angle_gamma 119.40273

_symmetry_space_group_name_	'P 1'
_symmetry_space_group_name_H-M	'P 1'

loop_
_symmetry_equiv_pos_as_xyz
  x,y,z

loop_
_atom_site_label
_atom_site_type_symbol
_atom_site_fract_x
_atom_site_fract_y
_atom_site_fract_z
_atom_site_charge
Ni	Ni	0.09458 0.95107 0.74174 1.11500
Ni	Ni	0.07336 0.14217 0.72702 1.13300
H 	H 	0.03879 0.03718 0.77156 0.16100
O 	O 	0.03385 0.83973 0.23842 -0.38000
F 	F 	0.02859 0.63559 0.13344 -0.42500
C 	C 	0.02858 0.37609 0.47311 -0.04000
C 	C 	0.02206 0.37653 0.51089 0.02900
H 	H 	0.07989 0.38575 0.52711 0.07500
C 	C 	0.00085 0.41351 0.94963 0.04200
C 	C 	0.01991 0.36795 0.02117 0.02200
C 	C 	0.03001 0.33544 0.05644 0.10400
N 	N 	0.03790 0.30860 0.08463 -0.07600
O 	O 	0.18446 0.04604 0.77934 -0.34100
O 	O 	0.19665 0.18818 0.75427 -0.32200
O 	O 	0.19652 0.03322 0.70328 -0.35000
O 	O 	0.12628 0.11472 0.68278 -0.35100
C 	C 	0.11424 0.45055 0.45777 0.29800
C 	C 	0.17522 0.51507 0.02067 0.28400
O 	O 	0.17183 0.59649 0.02489 -0.35100
C 	C 	0.08964 0.19344 0.21652 0.33200
C 	C 	0.07232 0.19809 0.29620 0.32900
C 	C 	0.08923 0.90129 0.21445 0.34800
C 	C 	0.04417 0.88901 0.32162 0.34300
Ni	Ni	0.11194 0.05212 0.26550 1.13500
O 	O 	0.14177 0.99189 0.22350 -0.33800
O 	O 	0.14400 0.16220 0.22959 -0.34800
O 	O 	0.11455 0.95595 0.30205 -0.34300
O 	O 	0.10562 0.13957 0.30396 -0.34800
C 	C 	0.13384 0.29282 0.20066 -0.10600
C 	C 	0.08438 0.32469 0.17905 0.36500
C 	C 	0.13118 0.41315 0.16041 -0.08300
H 	H 	0.09338 0.43551 0.14269 0.11800
C 	C 	0.06968 0.73255 0.13914 0.34600
C 	C 	0.04867 0.76747 0.17028 -0.06800
C 	C 	0.09763 0.86687 0.17825 -0.12100
C 	C 	0.13424 0.30499 0.29659 -0.11700
C 	C 	0.09990 0.36980 0.29150 0.35000
C 	C 	0.15737 0.46915 0.29772 -0.09100
H 	H 	0.12840 0.51712 0.29720 0.11700
C 	C 	0.02592 0.75705 0.36410 -0.06300
C 	C 	0.06534 0.85647 0.35629 -0.10200
C 	C 	0.06368 0.72505 0.39115 0.33900
F 	F 	0.03118 0.62862 0.39578 -0.43000
C 	C 	0.09759 0.43552 0.00159 -0.04700
C 	C 	0.08831 0.44723 0.96458 -0.01000
H 	H 	0.14891 0.49335 0.94857 0.06200
C 	C 	0.20007 0.10709 0.68557 0.35300
C 	C 	0.14130 0.79646 0.11640 -0.12200
F 	F 	0.11291 0.84039 0.83453 -0.43200
O 	O 	0.13157 0.54029 0.46272 -0.35100
C 	C 	0.14266 0.79207 0.40984 -0.11300
O 	O 	0.02693 0.01668 0.74613 -0.70800
F 	F 	0.01347 0.34419 0.76991 -0.40200
C 	C 	0.13330 0.92351 0.37952 0.33800
F 	F 	0.22662 0.22682 0.62386 -0.42500
C 	C 	0.21758 0.14127 0.77984 0.31000
C 	C 	0.21300 0.76447 0.41821 0.33400
C 	C 	0.26270 0.55104 0.34736 0.33700
Ni	Ni	0.26126 0.64912 0.47340 1.11800
Ni	Ni	0.29884 0.51256 0.41997 1.12800
O 	O 	0.23525 0.75876 0.45262 -0.35600
O 	O 	0.26332 0.76253 0.39086 -0.36300
O 	O 	0.32509 0.64626 0.35029 -0.31300
O 	O 	0.22656 0.49462 0.37574 -0.37400
O 	O 	0.18085 0.42951 0.44999 -0.35300
O 	O 	0.28558 0.62431 0.42638 -0.71700
H 	H 	0.22696 0.60627 0.41425 0.18700
C 	C 	0.19906 0.76264 0.09929 0.34600
C 	C 	0.27841 0.53859 0.13362 0.33200
Ni	Ni	0.28831 0.73059 0.03072 1.11800
O 	O 	0.25467 0.51384 0.02277 -0.36000
O 	O 	0.27793 0.50249 0.10117 -0.36600
O 	O 	0.34029 0.62968 0.14215 -0.34300
O 	O 	0.22500 0.78723 0.06490 -0.36400
O 	O 	0.23996 0.72873 0.12094 -0.36400
O 	O 	0.31624 0.67443 0.06987 -0.71900
H 	H 	0.25377 0.62945 0.07861 0.16900
C 	C 	0.22834 0.35580 0.20640 -0.08600
C 	C 	0.22720 0.46955 0.16277 -0.11000
C 	C 	0.27457 0.44356 0.18763 0.35200
H 	H 	0.26693 0.33500 0.22431 0.11600
C 	C 	0.17692 0.89646 0.12060 -0.08100
C 	C 	0.15612 0.93201 0.15168 0.33800
F 	F 	0.19495 0.02916 0.15642 -0.41000
H 	H 	0.22845 0.94663 0.10188 0.10000
C 	C 	0.22924 0.34341 0.30118 -0.08800
C 	C 	0.24492 0.50152 0.31247 -0.08400
C 	C 	0.28544 0.44271 0.30713 0.34800
H 	H 	0.25916 0.29632 0.30138 0.10700
C 	C 	0.17002 0.89096 0.40682 -0.08000
H 	H 	0.22563 0.94320 0.42325 0.10500
F 	F 	0.16652 0.01999 0.37470 -0.41500
H 	H 	0.27533 0.33110 0.49122 0.05800
C 	C 	0.29016 0.19148 0.67616 -0.12400
C 	C 	0.29984 0.24846 0.64544 0.34900
C 	C 	0.30438 0.15246 0.83610 -0.08500
C 	C 	0.29650 0.19725 0.80429 -0.10300
H 	H 	0.24527 0.08788 0.84650 0.12300
O 	O 	0.27699 0.54666 0.50396 -0.35600
H 	H 	0.05976 0.72243 0.89010 0.10400
F 	F 	0.01115 0.33695 0.28183 -0.41200
C 	C 	0.34102 0.52436 0.49605 0.30800
Ni	Ni	0.36532 0.73134 0.39678 1.12700
O 	O 	0.37834 0.54350 0.46397 -0.37300
Ni	Ni	0.36723 0.74962 0.11202 1.12600
Ni	Ni	0.35774 0.58449 0.06041 1.12500
O 	O 	0.39826 0.88455 0.09337 -0.35800
O 	O 	0.34130 0.68795 0.98767 -0.35800
F 	F 	0.36687 0.49964 0.19149 -0.41600
F 	F 	0.37481 0.47631 0.31571 -0.39400
H 	H 	0.34869 0.01081 0.53219 0.08000
C 	C 	0.33405 0.36892 0.50894 0.00200
C 	C 	0.36259 0.23185 0.50408 0.11600
N 	N 	0.33942 0.15418 0.49404 -0.09400
C 	C 	0.38691 0.32446 0.63579 -0.08000
C 	C 	0.36552 0.22047 0.69942 -0.06100
H 	H 	0.39500 0.36218 0.61058 0.09700
H 	H 	0.35873 0.18061 0.72411 0.11000
H 	H 	0.33704 0.99831 0.03090 0.04200
C 	C 	0.39010 0.16288 0.99425 0.11900
N 	N 	0.34289 0.18347 0.97808 -0.08200
H 	H 	0.34986 0.51824 0.95132 0.05600
N 	N 	0.41400 0.35705 0.91563 -0.08800
C 	C 	0.37278 0.28349 0.79237 0.34500
C 	C 	0.38933 0.18771 0.85350 0.35100
F 	F 	0.39526 0.14377 0.88416 -0.42100
F 	F 	0.36473 0.33478 0.76454 -0.41600
C 	C 	0.35978 0.46322 0.52029 -0.05900
C 	C 	0.39053 0.32865 0.51641 0.01400
O 	O 	0.00180 0.13267 0.21070 -0.30800
O 	O 	0.39927 0.73651 0.47988 -0.37500
C 	C 	0.44335 0.43803 0.92264 0.09300
C 	C 	0.41684 0.68242 0.99049 0.30900
O 	O 	0.41272 0.85739 0.03388 -0.35900
C 	C 	0.41018 0.04843 0.03303 0.01400
C 	C 	0.42128 0.57039 0.94582 -0.00000
C 	C 	0.42925 0.50726 0.54619 0.01600
N 	N 	0.40021 0.03638 0.43971 -0.08000
C 	C 	0.40573 0.99884 0.46573 0.08000
C 	C 	0.38965 0.97490 0.53154 -0.03100
C 	C 	0.41428 0.95302 0.49811 0.00800
C 	C 	0.43494 0.82446 0.46875 0.30900
O 	O 	0.41467 0.56098 0.38855 -0.33100
O 	O 	0.41784 0.84017 0.43522 -0.35300
C 	C 	0.43048 0.91757 0.06071 0.29900
O 	O 	0.44580 0.67273 0.02225 -0.36600
O 	O 	0.46753 0.62848 0.09404 -0.36200
C 	C 	0.44575 0.59565 0.56356 0.10300
N 	N 	0.45898 0.66649 0.57755 -0.09300
C 	C 	0.46478 0.33771 0.65489 -0.11500
C 	C 	0.45078 0.29982 0.69018 0.35500
C 	C 	0.44897 0.13712 0.01443 0.00700
C 	C 	0.45810 0.31699 0.80906 -0.07800
C 	C 	0.46717 0.26927 0.83970 -0.10500
O 	O 	0.01953 0.17988 0.76842 -0.32400
C 	C 	0.03913 0.81984 0.85579 0.34600
H 	H 	0.01730 0.69327 0.69467 0.11900
F 	F 	0.46087 0.66136 0.31328 -0.40300
C 	C 	0.43649 0.97363 0.56297 -0.08500
C 	C 	0.47249 0.38317 0.53633 -0.05600
C 	C 	0.48669 0.46857 0.55354 -0.00800
C 	C 	0.46625 0.02102 0.05222 -0.04800
C 	C 	0.45788 0.66568 0.95825 -0.06200
C 	C 	0.47973 0.53899 0.93148 0.00600
C 	C 	0.47540 0.06164 0.58561 0.33100
O 	O 	0.48777 0.13796 0.56957 -0.38100
C 	C 	0.48389 0.65065 0.38954 0.35100
O 	O 	0.47430 0.71643 0.40663 -0.38700
O 	O 	0.49695 0.78428 0.10068 -0.36400
C 	C 	0.45985 0.89860 0.49707 -0.07400
C 	C 	0.47770 0.91529 0.56294 0.01400
C 	C 	0.48824 0.87546 0.59653 0.10000
N 	N 	0.49603 0.84368 0.62368 -0.07900
H 	H 	0.51708 0.38160 0.79862 0.12400
C 	C 	0.49601 0.88454 0.52979 -0.01100
C 	C 	0.52435 0.71986 0.10232 0.35600
F 	F 	0.52397 0.32431 0.71210 -0.43100
O 	O 	0.52414 0.24497 0.62835 -0.37700
C 	C 	0.02028 0.75911 0.88582 -0.07000
C 	C 	0.53633 0.33206 0.63391 0.33500
O 	O 	0.01341 0.85697 0.78308 -0.31600
O 	O 	0.53315 0.07424 0.61151 -0.35500
O 	O 	0.53785 0.27884 0.52295 -0.34300
H 	H 	0.52915 0.84036 0.52979 0.06300
C 	C 	0.55376 0.31624 0.86054 0.33000
H 	H 	0.54390 0.50612 0.57196 0.06000
C 	C 	0.54829 0.35948 0.53689 0.30100
C 	C 	0.54493 0.19939 0.01505 -0.04600
C 	C 	0.54785 0.73481 0.94803 0.02100
H 	H 	0.55454 0.62892 0.15871 0.13600
C 	C 	0.54605 0.70391 0.32759 0.35500
C 	C 	0.56026 0.08840 0.05654 0.01600
O 	O 	0.00863 0.85238 0.70346 -0.35500
C 	C 	0.56011 0.68373 0.36341 -0.11400
O 	O 	0.57394 0.25106 0.95280 -0.35300
C 	C 	0.57445 0.60490 0.92818 -0.04200
C 	C 	0.99370 0.44141 0.91311 0.08000
N 	N 	0.98952 0.46490 0.88384 -0.09000
H 	H 	0.99065 0.17677 0.62485 0.12200
O 	O 	0.96065 0.83513 0.30746 -0.36100
H 	H 	0.97044 0.70428 0.34760 0.10500
C 	C 	0.94884 0.34940 0.45298 0.00500
C 	C 	0.94635 0.32756 0.41496 0.11200
N 	N 	0.94451 0.31017 0.38448 -0.07800
O 	O 	0.98427 0.16217 0.28818 -0.32200
O 	O 	0.98061 0.98585 0.26344 -0.72000
H 	H 	0.97041 0.98520 0.28975 0.15200
F 	F 	0.99195 0.26974 0.17540 -0.42600
H 	H 	0.99780 0.71676 0.18904 0.09900
C 	C 	0.88760 0.63462 0.91997 0.34100
C 	C 	0.78763 0.34800 0.85165 0.36500
C 	C 	0.64080 0.56959 0.92941 0.29000
C 	C 	0.83978 0.37213 0.96447 0.30400
C 	C 	0.59029 0.27585 0.98725 0.28800
Ni	Ni	0.73340 0.49419 0.87752 1.11800
Ni	Ni	0.73949 0.48125 0.96590 1.12700
Ni	Ni	0.67643 0.29082 0.91713 1.13300
O 	O 	0.60050 0.41212 0.85981 -0.36600
O 	O 	0.59104 0.26299 0.87261 -0.31000
O 	O 	0.84424 0.45513 0.97229 -0.37100
O 	O 	0.86620 0.56583 0.89640 -0.37800
O 	O 	0.83552 0.61717 0.94886 -0.33400
O 	O 	0.76502 0.41273 0.84121 -0.35700
O 	O 	0.78701 0.32802 0.88577 -0.37700
O 	O 	0.65159 0.36562 0.99758 -0.35700
O 	O 	0.70192 0.59323 0.90277 -0.33700
O 	O 	0.64854 0.52981 0.96004 -0.34900
O 	O 	0.75986 0.29458 0.95768 -0.36700
O 	O 	0.69619 0.41826 0.91996 -0.71600
H 	H 	0.63147 0.40245 0.92182 0.16400
C 	C 	0.79602 0.37167 0.52246 0.28500
C 	C 	0.72125 0.13116 0.58784 0.31300
C 	C 	0.77472 0.41070 0.65455 0.35800
Ni	Ni	0.60918 0.21117 0.54252 1.11500
Ni	Ni	0.62430 0.21273 0.62914 1.13100
Ni	Ni	0.70466 0.41728 0.58446 1.12400
O 	O 	0.71693 0.30360 0.50989 -0.36000
O 	O 	0.80059 0.43983 0.54504 -0.34000
O 	O 	0.79811 0.43353 0.62086 -0.37600
O 	O 	0.63073 0.42852 0.54408 -0.37400
O 	O 	0.70488 0.32458 0.66356 -0.35000
O 	O 	0.66468 0.11918 0.55943 -0.34500
O 	O 	0.71879 0.17340 0.61869 -0.35400
O 	O 	0.61138 0.41204 0.62234 -0.37000
O 	O 	0.66592 0.28313 0.58371 -0.71600
H 	H 	0.72781 0.29126 0.58145 0.16900
C 	C 	0.92370 0.78812 0.71213 0.33600
C 	C 	0.97228 0.88100 0.80871 0.30200
C 	C 	0.91196 0.03946 0.67806 0.34200
C 	C 	0.92986 0.13734 0.77464 0.31300
Ni	Ni	0.89617 0.94116 0.74769 1.12400
O 	O 	0.88135 0.95489 0.69435 -0.34100
O 	O 	0.88033 0.80768 0.73758 -0.33400
O 	O 	0.87172 0.05165 0.76042 -0.35900
O 	O 	0.91276 0.91121 0.79999 -0.36500
O 	O 	0.96559 0.12114 0.69546 -0.36000
C 	C 	0.78487 0.87344 0.29618 0.34000
C 	C 	0.83180 0.88528 0.19548 0.35300
Ni	Ni	0.91266 0.04833 0.25173 1.12500
Ni	Ni	0.92623 0.84945 0.25637 1.12900
O 	O 	0.81613 0.96758 0.29177 -0.34200
O 	O 	0.79989 0.82377 0.27126 -0.34800
O 	O 	0.82024 0.94920 0.21438 -0.35000
O 	O 	0.89496 0.86205 0.20427 -0.36500
C 	C 	0.76691 0.87622 0.13413 -0.08000
C 	C 	0.76495 0.83044 0.16689 -0.12200
C 	C 	0.69013 0.73843 0.17461 0.35100
C 	C 	0.61438 0.69683 0.15128 -0.08600
C 	C 	0.61283 0.74682 0.12010 -0.11600
C 	C 	0.69171 0.83404 0.11058 0.34600
F 	F 	0.69377 0.88008 0.07929 -0.42400
H 	H 	0.82497 0.94638 0.12760 0.10800
F 	F 	0.68802 0.69236 0.20591 -0.42400
C 	C 	0.65037 0.72647 0.37672 -0.07900
C 	C 	0.61908 0.77265 0.30705 -0.08000
C 	C 	0.70811 0.81896 0.32100 -0.11200
C 	C 	0.72413 0.79383 0.35561 0.34100
F 	F 	0.81099 0.83434 0.36875 -0.43300
H 	H 	0.66272 0.71185 0.40419 0.10400
H 	H 	0.60672 0.78818 0.27969 0.12100
C 	C 	0.87986 0.38187 0.50544 -0.04700
C 	C 	0.87669 0.35764 0.46858 0.00700
C 	C 	0.95356 0.39092 0.52679 0.01300
H 	H 	0.81793 0.34480 0.45222 0.07000
C 	C 	0.96229 0.41995 0.56424 0.12300
N 	N 	0.96997 0.44323 0.59425 -0.06500
C 	C 	0.73739 0.98983 0.60408 -0.09700
C 	C 	0.77689 0.08214 0.58826 -0.09900
C 	C 	0.87248 0.14088 0.59144 0.34800
C 	C 	0.91920 0.12480 0.61982 -0.08600
C 	C 	0.87191 0.04385 0.64257 -0.09300
C 	C 	0.78261 0.97193 0.63260 0.33300
F 	F 	0.73807 0.88756 0.65140 -0.41400
H 	H 	0.66822 0.93616 0.59725 0.10400
F 	F 	0.91777 0.21955 0.56997 -0.44800
C 	C 	0.75276 0.52595 0.69218 -0.09000
C 	C 	0.81055 0.49024 0.68082 -0.11800
C 	C 	0.90627 0.54994 0.68377 0.35100
C 	C 	0.94341 0.64764 0.69322 -0.10200
C 	C 	0.88517 0.68613 0.70050 -0.11100
C 	C 	0.78935 0.62389 0.70076 0.34700
F 	F 	0.73150 0.65908 0.70792 -0.41300
H 	H 	0.67893 0.48020 0.69084 0.13700
F 	F 	0.96339 0.51508 0.67481 -0.41900
C 	C 	0.92179 0.36242 0.97159 -0.06600
C 	C 	0.93191 0.33131 0.00604 -0.00900
H 	H 	0.87148 0.28629 0.02229 0.06200
C 	C 	0.59921 0.17729 0.03794 -0.00400
H 	H 	0.67265 0.22648 0.03951 0.06100
C 	C 	0.61752 0.06618 0.07938 0.11500
N 	N 	0.66343 0.04858 0.09776 -0.06800
C 	C 	0.60585 0.70408 0.93268 -0.00600
H 	H 	0.67702 0.75623 0.92718 0.09700
C 	C 	0.58312 0.83614 0.95594 0.11200
N 	N 	0.61131 0.91732 0.96233 -0.08800
C 	C 	0.89524 0.34584 0.80557 -0.06600
C 	C 	0.81292 0.29600 0.82519 -0.13100
C 	C 	0.76669 0.19432 0.82612 0.35300
C 	C 	0.80612 0.14341 0.81030 -0.09300
C 	C 	0.89106 0.19310 0.79237 -0.09800
C 	C 	0.93431 0.29484 0.78912 0.32700
H 	H 	0.93105 0.42426 0.80440 0.10600
H 	H 	0.77105 0.06513 0.81239 0.11200
F 	F 	0.68559 0.14500 0.84413 -0.43800
C 	C 	0.94235 0.73500 0.90706 -0.14000
C 	C 	0.89967 0.79214 0.90382 0.34600
C 	C 	0.91426 0.84829 0.87266 -0.09500
C 	C 	0.97833 0.85434 0.84666 -0.12400
H 	H 	0.87296 0.88272 0.86800 0.10400
F 	F 	0.83849 0.78662 0.92915 -0.43600
