data_crystal

_cell_length_a 30.37423
_cell_length_b 27.28269
_cell_length_c 33.57370
_cell_angle_alpha 89.92603
_cell_angle_beta  89.92004
_cell_angle_gamma 90.85405

_symmetry_space_group_name_	'P 1'
_symmetry_space_group_name_H-M	'P 1'

loop_
_symmetry_equiv_pos_as_xyz
  x,y,z

loop_
_atom_site_label
_atom_site_type_symbol
_atom_site_fract_x
_atom_site_fract_y
_atom_site_fract_z
_atom_site_charge
Zn	Zn	0.49233 0.50096 0.98728 1.22400
C 	C 	0.55306 0.42122 0.99503 0.33000
O 	O 	0.51978 0.54115 0.94580 -0.47100
O 	O 	0.53010 0.40090 0.96611 -0.45100
O 	O 	0.56388 0.48469 0.91841 -0.48200
C 	C 	0.43101 0.42988 0.95878 0.31000
O 	O 	0.45136 0.44621 0.99064 -0.44300
O 	O 	0.44884 0.43641 0.92338 -0.49400
C 	C 	0.55843 0.52918 0.93203 0.29800
O 	O 	0.43011 0.55091 0.98439 -0.32000
Zn	Zn	0.51303 0.43968 0.91598 1.17000
O 	O 	0.54487 0.46637 0.00645 -0.44600
C 	C 	0.44431 0.56946 0.01756 0.29400
O 	O 	0.48054 0.55123 0.03103 -0.38500
Zn	Zn	0.25331 0.20409 0.00101 1.21700
C 	C 	0.28627 0.20961 0.08151 0.33900
O 	O 	0.18935 0.19298 0.00599 -0.46400
O 	O 	0.27601 0.25625 0.08150 -0.45000
O 	O 	0.18328 0.22478 0.06820 -0.48600
C 	C 	0.28480 0.30307 0.99467 0.36700
O 	O 	0.29645 0.25714 0.99720 -0.45600
O 	O 	0.24697 0.31672 0.00962 -0.51800
C 	C 	0.17017 0.19332 0.04105 0.29200
O 	O 	0.24692 0.20957 0.93100 -0.31400
Zn	Zn	0.21982 0.28147 0.05429 1.16900
O 	O 	0.27134 0.18005 0.05356 -0.44300
C 	C 	0.26460 0.16658 0.93062 0.29600
O 	O 	0.27352 0.14853 0.96530 -0.37800
C 	C 	0.53364 0.99241 0.34867 0.13700
C 	C 	0.50588 0.02379 0.32757 -0.10400
H 	H 	0.48424 0.04808 0.34366 0.07500
C 	C 	0.50568 0.02321 0.28588 0.08100
C 	C 	0.53333 0.99146 0.26523 -0.10900
C 	C 	0.56094 0.95989 0.28615 0.07400
C 	C 	0.56127 0.96044 0.32791 -0.11100
H 	H 	0.58244 0.93590 0.34423 0.07500
N 	N 	0.53279 0.99205 0.39148 -0.18200
C 	C 	0.50582 0.95911 0.41101 0.18900
C 	C 	0.50189 0.96069 0.45278 -0.05900
C 	C 	0.52609 0.99611 0.47421 0.02500
C 	C 	0.55417 0.02902 0.45387 -0.05200
C 	C 	0.55741 0.02612 0.41209 0.19600
C 	C 	0.47388 0.92771 0.47332 -0.01200
C 	C 	0.47010 0.93013 0.51479 -0.01400
C 	C 	0.49429 0.96554 0.53642 -0.05500
C 	C 	0.52218 0.99864 0.51606 0.02100
C 	C 	0.54624 0.03418 0.53748 -0.04900
C 	C 	0.57824 0.06455 0.47548 -0.01100
C 	C 	0.57424 0.06717 0.51694 -0.01400
C 	C 	0.49145 0.96805 0.57823 0.18200
N 	N 	0.51588 0.00229 0.59883 -0.17500
C 	C 	0.54226 0.03578 0.57925 0.18900
C 	C 	0.51570 0.00132 0.64165 0.16100
C 	C 	0.48171 0.02384 0.66295 -0.11900
C 	C 	0.48115 0.02172 0.70468 0.08800
C 	C 	0.51465 0.99749 0.72503 -0.11500
C 	C 	0.54854 0.97504 0.70385 0.08200
C 	C 	0.54908 0.97690 0.66219 -0.12900
O 	O 	0.58389 0.05653 0.39265 -0.19600
O 	O 	0.48305 0.92628 0.39052 -0.20100
O 	O 	0.46575 0.93688 0.59773 -0.19900
O 	O 	0.56431 0.06926 0.59969 -0.19700
H 	H 	0.57510 0.95921 0.64568 0.07700
H 	H 	0.45581 0.04249 0.64705 0.07900
H 	H 	0.60000 0.09026 0.46030 0.05300
H 	H 	0.59306 0.09479 0.53296 0.05300
H 	H 	0.45497 0.90017 0.45729 0.05100
H 	H 	0.44839 0.90437 0.52998 0.05100
H 	H 	0.51413 0.99575 0.75733 0.06200
H 	H 	0.53291 0.99082 0.23291 0.06000
Zn	Zn	0.75679 0.73769 0.98534 1.22300
C 	C 	0.73202 0.73787 0.06864 0.34000
O 	O 	0.82117 0.73345 0.98475 -0.45400
O 	O 	0.73358 0.68976 0.06789 -0.45200
O 	O 	0.82811 0.70066 0.04643 -0.48600
C 	C 	0.70753 0.64754 0.98189 0.35200
O 	O 	0.70492 0.69535 0.98465 -0.44300
O 	O 	0.74333 0.62545 0.99383 -0.50300
C 	C 	0.84298 0.72985 0.01825 0.29000
O 	O 	0.75570 0.73339 0.91503 -0.32200
Zn	Zn	0.78087 0.65321 0.03581 1.16700
O 	O 	0.74880 0.76412 0.03929 -0.44400
C 	C 	0.74729 0.77982 0.91653 0.29900
O 	O 	0.74473 0.79819 0.95194 -0.37700
Zn	Zn	0.26561 0.77552 0.00198 1.21900
C 	C 	0.24673 0.79692 0.08435 0.34000
O 	O 	0.26977 0.83841 0.97443 -0.47000
O 	O 	0.28823 0.80945 0.08991 -0.44900
O 	O 	0.27926 0.88709 0.02793 -0.48900
C 	C 	0.34651 0.74194 0.03395 0.30700
O 	O 	0.30437 0.73194 0.03008 -0.45500
O 	O 	0.36115 0.78740 0.03045 -0.50000
C 	C 	0.25936 0.87795 0.99405 0.30900
O 	O 	0.28530 0.73507 0.94235 -0.31800
Zn	Zn	0.32580 0.84384 0.04650 1.16900
O 	O 	0.23020 0.79488 0.04823 -0.44800
C 	C 	0.24418 0.72161 0.94124 0.29700
O 	O 	0.22002 0.73713 0.97018 -0.38300
C 	C 	0.01192 0.53333 0.64647 0.13600
C 	C 	0.04411 0.55778 0.66925 -0.11100
H 	H 	0.06924 0.57996 0.65458 0.07400
C 	C 	0.04382 0.55332 0.71082 0.07500
C 	C 	0.01120 0.52482 0.72962 -0.11000
C 	C 	0.97901 0.50046 0.70700 0.08400
C 	C 	0.97938 0.50459 0.66541 -0.10200
H 	H 	0.95462 0.48558 0.64777 0.07600
N 	N 	0.01249 0.53737 0.60379 -0.18300
C 	C 	0.03974 0.50789 0.58206 0.18800
C 	C 	0.04076 0.51130 0.54023 -0.05800
C 	C 	0.01334 0.54491 0.52100 0.02200
C 	C 	0.98554 0.57477 0.54363 -0.05000
C 	C 	0.98571 0.57058 0.58543 0.19700
C 	C 	0.06870 0.48162 0.51742 -0.01300
C 	C 	0.06916 0.48544 0.47588 -0.01300
C 	C 	0.04162 0.51892 0.45645 -0.05900
C 	C 	0.01368 0.54863 0.47906 0.02300
C 	C 	0.98605 0.58201 0.45981 -0.05000
C 	C 	0.95801 0.60826 0.52420 -0.01200
C 	C 	0.95824 0.61183 0.48263 -0.01200
C 	C 	0.04147 0.52312 0.41465 0.18800
N 	N 	0.01403 0.55560 0.39624 -0.18300
C 	C 	0.98663 0.58493 0.41794 0.19700
C 	C 	0.01373 0.55863 0.35351 0.13500
C 	C 	0.04008 0.59385 0.33395 -0.11200
C 	C 	0.04046 0.59606 0.29225 0.07300
C 	C 	0.01454 0.56312 0.27015 -0.11100
C 	C 	0.98838 0.52781 0.28959 0.08200
C 	C 	0.98781 0.52567 0.33127 -0.10300
O 	O 	0.96011 0.59872 0.60704 -0.19600
O 	O 	0.06494 0.47611 0.60045 -0.19900
O 	O 	0.06778 0.49574 0.39309 -0.20100
O 	O 	0.96061 0.61581 0.39948 -0.19700
H 	H 	0.96770 0.49826 0.34643 0.07500
H 	H 	0.06039 0.61900 0.35117 0.07300
H 	H 	0.93635 0.63155 0.54116 0.05300
H 	H 	0.93675 0.63780 0.46831 0.05300
H 	H 	0.09012 0.45557 0.53174 0.05100
H 	H 	0.09091 0.46224 0.45892 0.05100
H 	H 	0.01514 0.56459 0.23785 0.05900
H 	H 	0.01095 0.52149 0.76184 0.06300
Zn	Zn	0.79084 0.26922 0.00221 1.22100
C 	C 	0.78639 0.29050 0.91822 0.33700
O 	O 	0.74139 0.31450 0.00065 -0.45700
O 	O 	0.74465 0.27731 0.91926 -0.45000
O 	O 	0.69063 0.25332 0.99282 -0.49100
C 	C 	0.80287 0.17077 0.97496 0.36900
O 	O 	0.80180 0.19920 0.00642 -0.47800
O 	O 	0.77520 0.17739 0.94561 -0.49900
C 	C 	0.70043 0.29879 0.00255 0.33600
O 	O 	0.78871 0.27085 0.07267 -0.31800
Zn	Zn	0.72351 0.21768 0.95239 1.17200
O 	O 	0.81275 0.27944 0.94778 -0.43100
C 	C 	0.82412 0.29773 0.06955 0.29900
O 	O 	0.83728 0.30697 0.03366 -0.38200
Zn	Zn	0.00024 0.97930 0.01871 1.21500
C 	C 	0.08465 0.93553 0.00579 0.31900
O 	O 	0.98129 0.91090 0.01237 -0.43700
O 	O 	0.07142 0.90386 0.03298 -0.45100
O 	O 	0.98673 0.89501 0.07870 -0.50300
C 	C 	0.05442 0.02980 0.07431 0.36100
O 	O 	0.01410 0.02578 0.06086 -0.47200
O 	O 	0.07433 0.99060 0.08725 -0.49700
C 	C 	0.97162 0.88322 0.04324 0.34700
O 	O 	0.92619 0.00083 0.02747 -0.31800
Zn	Zn	0.04445 0.92686 0.08595 1.16900
O 	O 	0.06010 0.97329 0.99671 -0.42400
C 	C 	0.92934 0.02044 0.99236 0.27100
O 	O 	0.96739 0.01627 0.97522 -0.35700
C 	C 	0.89742 0.05688 0.97916 -0.00200
C 	C 	0.85226 0.04537 0.98035 -0.05200
C 	C 	0.82124 0.08246 0.97691 0.05200
C 	C 	0.83513 0.13140 0.97275 -0.16700
C 	C 	0.88029 0.14273 0.96910 0.21700
C 	C 	0.91130 0.10542 0.97216 -0.10500
H 	H 	0.78647 0.07338 0.97913 0.01800
H 	H 	0.94612 0.11463 0.97120 0.09400
H 	H 	0.84124 0.00794 0.98553 0.06000
O 	O 	0.89425 0.19046 0.96451 -0.29000
H 	H 	0.89535 0.19599 0.93531 0.15700
C 	C 	0.83814 0.36386 0.82281 -0.01200
C 	C 	0.86645 0.33976 0.79654 -0.02400
C 	C 	0.89111 0.36673 0.76870 -0.04500
C 	C 	0.88756 0.41785 0.76706 0.02100
C 	C 	0.85700 0.44148 0.79144 -0.04500
C 	C 	0.83235 0.41453 0.81928 -0.02500
C 	C 	0.91949 0.44644 0.74504 -0.00100
C 	C 	0.94603 0.47081 0.72673 -0.03200
C 	C 	0.81941 0.33784 0.85622 0.05600
C 	C 	0.80370 0.31611 0.88422 -0.11400
H 	H 	0.87077 0.30050 0.79882 0.04200
H 	H 	0.91443 0.34815 0.74972 0.04900
H 	H 	0.85381 0.48096 0.79013 0.04700
H 	H 	0.81021 0.43335 0.83923 0.03900
C 	C 	0.91927 0.42974 0.22145 0.01900
C 	C 	0.87612 0.43971 0.20951 -0.04500
C 	C 	0.85539 0.41023 0.18089 -0.02900
C 	C 	0.87773 0.37068 0.16411 -0.00500
C 	C 	0.92009 0.35934 0.17743 -0.02800
C 	C 	0.94082 0.38882 0.20605 -0.04400
C 	C 	0.85881 0.34452 0.13095 0.04600
C 	C 	0.84283 0.32272 0.10319 -0.09100
C 	C 	0.94304 0.46425 0.24600 -0.00300
C 	C 	0.96326 0.49290 0.26654 -0.03400
H 	H 	0.85918 0.47117 0.22141 0.04400
H 	H 	0.82252 0.41903 0.17090 0.04000
H 	H 	0.93747 0.32864 0.16476 0.04300
H 	H 	0.97412 0.38077 0.21527 0.04600
C 	C 	0.21719 0.90203 0.98518 -0.02900
C 	C 	0.18408 0.87626 0.96431 -0.03900
C 	C 	0.14034 0.89100 0.96689 0.03000
C 	C 	0.12939 0.93199 0.98973 -0.12300
C 	C 	0.16324 0.96212 0.00528 0.16900
C 	C 	0.20705 0.94686 0.00326 -0.09800
H 	H 	0.11460 0.86839 0.95373 0.03500
H 	H 	0.23263 0.96841 0.01775 0.06800
H 	H 	0.19163 0.84271 0.94866 0.05100
O 	O 	0.15320 0.00392 0.02581 -0.28100
H 	H 	0.15353 0.03046 0.00559 0.15100
C 	C 	0.13505 0.62188 0.78132 0.02000
C 	C 	0.13021 0.67147 0.79092 -0.04400
C 	C 	0.15573 0.69259 0.82116 -0.02800
C 	C 	0.18622 0.66421 0.84190 -0.00500
C 	C 	0.19282 0.61536 0.83080 -0.02800
C 	C 	0.16728 0.59423 0.80053 -0.04400
C 	C 	0.20744 0.68374 0.87688 0.04700
C 	C 	0.22486 0.70077 0.90607 -0.09200
C 	C 	0.10336 0.59796 0.75582 -0.00400
C 	C 	0.07680 0.57797 0.73447 -0.03300
H 	H 	0.10550 0.69313 0.77608 0.04600
H 	H 	0.15069 0.73050 0.82939 0.04300
H 	H 	0.21658 0.59330 0.84649 0.04300
H 	H 	0.17139 0.55592 0.79312 0.04600
C 	C 	0.12028 0.69177 0.23133 0.02000
C 	C 	0.10169 0.72719 0.20646 -0.05100
C 	C 	0.12818 0.75308 0.17931 -0.02700
C 	C 	0.17335 0.74365 0.17697 -0.01600
C 	C 	0.19234 0.71046 0.20355 -0.02600
C 	C 	0.16586 0.68458 0.23068 -0.04800
C 	C 	0.19901 0.76331 0.14444 0.05200
C 	C 	0.22083 0.77954 0.11733 -0.12100
C 	C 	0.09219 0.65856 0.25339 -0.00800
C 	C 	0.06870 0.63073 0.27188 -0.03500
H 	H 	0.06650 0.73320 0.20697 0.03800
H 	H 	0.11330 0.77897 0.15906 0.02400
H 	H 	0.22730 0.70324 0.20212 0.04000
H 	H 	0.18051 0.65748 0.25000 0.04600
C 	C 	0.87963 0.76427 0.02653 -0.05500
C 	C 	0.88152 0.78920 0.06305 -0.03200
C 	C 	0.91241 0.82703 0.06890 0.02400
C 	C 	0.94200 0.84013 0.03837 -0.14400
C 	C 	0.94188 0.81305 0.00258 0.16800
C 	C 	0.91030 0.77585 0.99658 -0.06000
H 	H 	0.91239 0.84714 0.09670 0.03100
H 	H 	0.90946 0.75629 0.96851 0.06800
H 	H 	0.85790 0.78063 0.08636 0.04800
O 	O 	0.97209 0.82339 0.97321 -0.26400
H 	H 	0.99766 0.80241 0.97916 0.15100
C 	C 	0.69237 0.85018 0.82211 -0.00400
C 	C 	0.69744 0.90104 0.81769 -0.02900
C 	C 	0.67179 0.92613 0.79001 -0.04400
C 	C 	0.64097 0.90043 0.76669 0.01800
C 	C 	0.63791 0.84923 0.76938 -0.04300
C 	C 	0.66355 0.82415 0.79704 -0.02800
C 	C 	0.60886 0.92683 0.74405 -0.00300
C 	C 	0.58192 0.94880 0.72505 -0.03800
C 	C 	0.71247 0.82570 0.85526 0.04800
C 	C 	0.72913 0.80480 0.88292 -0.08900
H 	H 	0.71993 0.92137 0.83676 0.04100
H 	H 	0.67458 0.96570 0.78789 0.04200
H 	H 	0.61438 0.82908 0.75123 0.04600
H 	H 	0.65971 0.78477 0.80007 0.04400
C 	C 	0.67657 0.80836 0.16289 -0.01200
C 	C 	0.63508 0.79369 0.17727 -0.02600
C 	C 	0.61384 0.82184 0.20607 -0.04600
C 	C 	0.63398 0.86479 0.22058 0.02000
C 	C 	0.67640 0.87810 0.20764 -0.04600
C 	C 	0.69765 0.84995 0.17884 -0.02600
C 	C 	0.60900 0.89824 0.24447 -0.00600
C 	C 	0.58772 0.92593 0.26446 -0.03400
C 	C 	0.69596 0.78305 0.12975 0.05500
C 	C 	0.71242 0.76207 0.10201 -0.11600
H 	H 	0.61871 0.76138 0.16529 0.04000
H 	H 	0.58109 0.81124 0.21601 0.04500
H 	H 	0.69225 0.91117 0.21880 0.04500
H 	H 	0.72988 0.86130 0.16808 0.04000
C 	C 	0.13754 0.15494 0.05138 -0.02400
C 	C 	0.14154 0.12863 0.08710 -0.04700
C 	C 	0.11299 0.08922 0.09537 0.04800
C 	C 	0.07990 0.07582 0.06816 -0.16000
C 	C 	0.07476 0.10362 0.03294 0.21400
C 	C 	0.10361 0.14291 0.02474 -0.12000
H 	H 	0.11722 0.06841 0.12257 0.02700
H 	H 	0.09992 0.16358 0.99739 0.08600
H 	H 	0.16761 0.13777 0.10792 0.05200
O 	O 	0.04174 0.09241 0.00649 -0.31600
H 	H 	0.05537 0.07082 0.98635 0.16400
C 	C 	0.38329 0.08099 0.77193 0.01800
C 	C 	0.35289 0.04950 0.79082 -0.04200
C 	C 	0.32518 0.06745 0.82058 -0.02800
C 	C 	0.32773 0.11696 0.83153 -0.00300
C 	C 	0.35631 0.14900 0.81102 -0.02900
C 	C 	0.38402 0.13106 0.78127 -0.04300
C 	C 	0.30468 0.13375 0.86635 0.04600
C 	C 	0.28564 0.14844 0.89542 -0.08800
C 	C 	0.41750 0.06091 0.74739 -0.00100
C 	C 	0.44593 0.04356 0.72691 -0.03600
H 	H 	0.35197 0.01079 0.78363 0.04800
H 	H 	0.30294 0.04251 0.83608 0.04500
H 	H 	0.35824 0.18742 0.81912 0.04300
H 	H 	0.40728 0.15569 0.76669 0.04400
C 	C 	0.36590 0.15476 0.16785 -0.01300
C 	C 	0.34838 0.12259 0.19655 -0.02600
C 	C 	0.37633 0.09906 0.22327 -0.04700
C 	C 	0.42190 0.10762 0.22138 0.02000
C 	C 	0.43920 0.14141 0.19381 -0.04600
C 	C 	0.41125 0.16494 0.16709 -0.02600
C 	C 	0.45112 0.07817 0.24469 -0.00400
C 	C 	0.47585 0.05366 0.26411 -0.03300
C 	C 	0.33786 0.17443 0.13746 0.05500
C 	C 	0.31428 0.19084 0.11206 -0.11700
H 	H 	0.31330 0.11479 0.19745 0.03900
H 	H 	0.36271 0.07311 0.24460 0.04600
H 	H 	0.47439 0.14832 0.19227 0.04700
H 	H 	0.42499 0.19001 0.14514 0.04100
C 	C 	0.38903 0.40252 0.96306 -0.04700
C 	C 	0.36014 0.41390 0.99429 0.00100
C 	C 	0.32428 0.38299 0.00293 -0.00100
C 	C 	0.31698 0.34022 0.98057 -0.13500
C 	C 	0.34408 0.33060 0.94744 0.19400
C 	C 	0.37982 0.36193 0.93866 -0.08600
H 	H 	0.30338 0.39111 0.02818 0.02600
H 	H 	0.40132 0.35346 0.91391 0.05900
H 	H 	0.36626 0.44590 0.01266 0.03600
O 	O 	0.33521 0.29119 0.92322 -0.28800
H 	H 	0.35359 0.26428 0.93358 0.15600
C 	C 	0.37755 0.70144 0.03912 -0.04300
C 	C 	0.41863 0.70281 0.01992 -0.02900
C 	C 	0.44334 0.66012 0.01678 0.01000
C 	C 	0.42702 0.61576 0.03252 -0.12600
C 	C 	0.38803 0.61549 0.05510 0.19000
C 	C 	0.36372 0.65843 0.05879 -0.08800
H 	H 	0.47364 0.66077 0.99969 0.04500
H 	H 	0.33296 0.65759 0.07519 0.07400
H 	H 	0.43016 0.73605 0.00535 0.04200
O 	O 	0.37302 0.57297 0.07267 -0.29200
H 	H 	0.35339 0.55724 0.05268 0.14900
C 	C 	0.59206 0.39610 0.00986 -0.07700
C 	C 	0.63400 0.41439 0.99984 0.00500
C 	C 	0.67019 0.38333 0.00007 -0.01400
C 	C 	0.66480 0.33377 0.01081 -0.13600
C 	C 	0.62374 0.31719 0.02570 0.18100
C 	C 	0.58757 0.34844 0.02513 -0.07800
H 	H 	0.70181 0.39710 0.98967 0.05300
H 	H 	0.55548 0.33466 0.03435 0.06300
H 	H 	0.63795 0.45156 0.98887 0.03700
O 	O 	0.61907 0.27091 0.04134 -0.28500
H 	H 	0.60714 0.25045 0.01934 0.13800
C 	C 	0.59697 0.56167 0.94002 -0.03500
C 	C 	0.64007 0.54432 0.93568 -0.04200
C 	C 	0.67604 0.57257 0.94893 0.03300
C 	C 	0.66942 0.61845 0.96684 -0.15200
C 	C 	0.62618 0.63621 0.97056 0.20100
C 	C 	0.59050 0.60846 0.95626 -0.09800
H 	H 	0.70903 0.55863 0.94545 0.02900
H 	H 	0.55754 0.62271 0.95918 0.07800
H 	H 	0.64575 0.50856 0.92284 0.04800
O 	O 	0.61861 0.68043 0.98857 -0.27100
H 	H 	0.61426 0.67269 0.01720 0.14000
