data_crystal

_cell_length_a 16.18613
_cell_length_b 16.75442
_cell_length_c 60.79857
_cell_angle_alpha 90.03092
_cell_angle_beta  90.01592
_cell_angle_gamma 119.85419

_symmetry_space_group_name_	'P 1'
_symmetry_space_group_name_H-M	'P 1'

loop_
_symmetry_equiv_pos_as_xyz
  x,y,z

loop_
_atom_site_label
_atom_site_type_symbol
_atom_site_fract_x
_atom_site_fract_y
_atom_site_fract_z
_atom_site_charge
O 	O 	0.05109 0.18221 0.74645 -0.32200
O 	O 	0.07424 0.85870 0.77468 -0.34900
O 	O 	0.02149 0.13119 0.79142 -0.34000
O 	O 	0.01014 0.01398 0.23351 -0.69500
Br	Br	0.02454 0.79599 0.64267 -0.17200
C 	C 	0.17757 0.64094 0.49032 0.31000
C 	C 	0.45911 0.87314 0.47692 0.30100
C 	C 	0.10086 0.61020 0.43361 0.28700
C 	C 	0.42058 0.59316 0.47823 0.30800
C 	C 	0.35440 0.56311 0.41651 0.30200
Ni	Ni	0.27574 0.77074 0.45261 1.11600
Ni	Ni	0.24506 0.56440 0.45527 1.12600
O 	O 	0.37195 0.87222 0.43027 -0.34800
O 	O 	0.34426 0.53522 0.46708 -0.37600
O 	O 	0.17001 0.69346 0.47537 -0.36500
O 	O 	0.22731 0.59975 0.48624 -0.36700
O 	O 	0.36701 0.82287 0.47911 -0.37400
O 	O 	0.26794 0.52724 0.42540 -0.36000
O 	O 	0.16707 0.69756 0.43009 -0.35400
O 	O 	0.11835 0.55327 0.44553 -0.33700
O 	O 	0.31860 0.68881 0.44593 -0.72100
H 	H 	0.30434 0.68196 0.43005 0.17300
C 	C 	0.22852 0.80175 0.66059 0.30000
C 	C 	0.26480 0.50385 0.61425 0.32000
C 	C 	0.07706 0.54437 0.66337 0.36700
C 	C 	0.31072 0.51559 0.68495 0.32600
Ni	Ni	0.21710 0.64884 0.62879 1.11900
Ni	Ni	0.39915 0.63327 0.64585 1.12900
Ni	Ni	0.27250 0.66668 0.68060 1.12500
O 	O 	0.17992 0.73987 0.64472 -0.33400
O 	O 	0.28342 0.78960 0.67486 -0.37200
O 	O 	0.39045 0.56370 0.67387 -0.35100
O 	O 	0.23448 0.55930 0.60744 -0.33600
O 	O 	0.29693 0.51153 0.63418 -0.37000
O 	O 	0.40838 0.72439 0.69327 -0.36800
O 	O 	0.11494 0.53513 0.64532 -0.36900
O 	O 	0.12848 0.61302 0.67681 -0.35500
O 	O 	0.32318 0.74981 0.60987 -0.35200
O 	O 	0.24383 0.53755 0.68448 -0.38100
O 	O 	0.30944 0.67297 0.65066 -0.71400
H 	H 	0.35079 0.73990 0.64905 0.16200
C 	C 	0.12512 0.19308 0.73511 0.32100
C 	C 	0.11530 0.17934 0.79430 0.28700
C 	C 	0.10925 0.93624 0.72469 0.31100
C 	C 	0.13657 0.91558 0.78959 0.26300
Ni	Ni	0.15978 0.06737 0.76100 1.12900
O 	O 	0.17138 0.97867 0.74054 -0.36900
O 	O 	0.14423 0.12634 0.73377 -0.36900
O 	O 	0.18268 0.00624 0.78677 -0.35100
O 	O 	0.17626 0.17712 0.77970 -0.36100
O 	O 	0.02747 0.00117 0.76653 -0.67300
C 	C 	0.24547 0.49256 0.85191 0.30100
C 	C 	0.22441 0.45987 0.91212 0.30200
C 	C 	0.27307 0.76287 0.85609 0.30900
C 	C 	0.28458 0.77732 0.91639 0.31000
Ni	Ni	0.40149 0.57737 0.88403 1.11600
Ni	Ni	0.21692 0.60678 0.88606 1.12600
Ni	Ni	0.42699 0.78021 0.88640 1.12300
O 	O 	0.23121 0.67307 0.85770 -0.37900
O 	O 	0.33710 0.54923 0.85359 -0.37300
O 	O 	0.18655 0.49525 0.86659 -0.35000
O 	O 	0.37444 0.79872 0.91423 -0.37700
O 	O 	0.21270 0.70672 0.90545 -0.34700
O 	O 	0.28350 0.46078 0.89691 -0.36400
O 	O 	0.19162 0.51892 0.91168 -0.34200
O 	O 	0.34247 0.81689 0.86963 -0.37100
O 	O 	0.34844 0.65194 0.89067 -0.72000
H 	H 	0.34610 0.64853 0.90684 0.16800
C 	C 	0.17630 0.10036 0.26420 0.29600
C 	C 	0.19840 0.11793 0.19992 0.30100
Ni	Ni	0.08320 0.95674 0.22868 1.11000
Ni	Ni	0.07176 0.14423 0.23054 1.12700
O 	O 	0.19289 0.05728 0.24800 -0.33000
O 	O 	0.13577 0.15133 0.25998 -0.35800
O 	O 	0.14439 0.02813 0.19993 -0.35000
O 	O 	0.19574 0.16619 0.21665 -0.37000
O 	O 	0.01201 0.87808 0.25555 -0.33900
C 	C 	0.18923 0.97481 0.97322 0.27400
C 	C 	0.08750 0.12730 0.96074 0.33500
C 	C 	0.12454 0.00934 0.04704 0.32700
Ni	Ni	0.13510 0.08930 0.00391 1.13700
O 	O 	0.10139 0.90609 0.97210 -0.33100
O 	O 	0.20961 0.05848 0.98053 -0.31200
O 	O 	0.17388 0.03722 0.02855 -0.35200
O 	O 	0.06706 0.04517 0.95367 -0.31300
O 	O 	0.08339 0.14118 0.98159 -0.34600
O 	O 	0.03293 0.98902 0.04821 -0.37200
O 	O 	0.09001 0.14939 0.02650 -0.36600
O 	O 	0.02770 0.96992 0.00125 -0.70800
H 	H 	0.05506 0.93174 0.00596 0.18700
C 	C 	0.29942 0.05658 0.31243 -0.03400
C 	C 	0.32258 0.13431 0.32533 -0.06700
C 	C 	0.27109 0.18050 0.32177 0.12300
C 	C 	0.22286 0.16886 0.30187 -0.03300
C 	C 	0.21511 0.10251 0.28663 -0.07500
C 	C 	0.24617 0.04011 0.29305 0.15400
Br	Br	0.21126 0.92862 0.27713 -0.25100
H 	H 	0.33073 0.01415 0.31624 0.09600
H 	H 	0.18956 0.20993 0.29857 0.08300
Br	Br	0.24788 0.24200 0.34523 -0.17500
C 	C 	0.33973 0.05858 0.07619 0.02000
C 	C 	0.36391 0.14690 0.08377 -0.09300
C 	C 	0.28922 0.16670 0.08758 0.14100
C 	C 	0.19771 0.10675 0.07944 -0.05200
C 	C 	0.18053 0.02888 0.06733 -0.02300
C 	C 	0.24698 0.99826 0.06883 0.05500
Br	Br	0.21522 0.87854 0.05832 -0.17800
H 	H 	0.39330 0.03793 0.07525 0.07500
H 	H 	0.14323 0.12626 0.08040 0.09000
Br	Br	0.30690 0.26988 0.10504 -0.22200
C 	C 	0.34274 0.15228 0.14857 0.00700
C 	C 	0.42469 0.23727 0.15282 -0.05700
C 	C 	0.42901 0.28673 0.17182 0.00000
C 	C 	0.35372 0.24943 0.18692 -0.00400
C 	C 	0.27330 0.16249 0.18304 -0.05300
C 	C 	0.26720 0.11573 0.16342 -0.00200
H 	H 	0.33795 0.11403 0.13379 0.05700
H 	H 	0.35918 0.28693 0.20188 0.05600
H 	H 	0.20462 0.05004 0.15987 0.06600
Br	Br	0.43124 0.70914 0.96594 -0.20900
C 	C 	0.06504 0.21744 0.93138 0.04200
C 	C 	0.12654 0.20719 0.94589 -0.09400
C 	C 	0.21636 0.28409 0.95061 0.14200
C 	C 	0.24132 0.37033 0.94192 -0.03900
C 	C 	0.18129 0.38045 0.92702 -0.05500
C 	C 	0.09194 0.30347 0.92193 0.11200
Br	Br	0.00624 0.31414 0.90193 -0.18100
H 	H 	0.31089 0.42865 0.94556 0.08200
Br	Br	0.30702 0.27260 0.96873 -0.22200
C 	C 	0.25616 0.97453 0.93734 -0.07000
C 	C 	0.25888 0.96397 0.96018 -0.04900
C 	C 	0.28638 0.90181 0.96799 0.12100
C 	C 	0.28372 0.83427 0.95392 -0.02300
C 	C 	0.26446 0.83475 0.93141 -0.07200
C 	C 	0.25321 0.90733 0.92302 0.13900
Br	Br	0.22851 0.91334 0.89240 -0.21900
H 	H 	0.24160 0.02665 0.93093 0.10900
H 	H 	0.29778 0.78216 0.96044 0.09200
Br	Br	0.31450 0.90029 0.99854 -0.17700
C 	C 	0.10965 0.79043 0.81601 -0.00800
C 	C 	0.17121 0.87694 0.80683 -0.04000
C 	C 	0.26603 0.92708 0.81431 -0.01000
C 	C 	0.29895 0.89063 0.83059 0.00500
C 	C 	0.23765 0.80362 0.83957 -0.05500
C 	C 	0.14255 0.75402 0.83229 0.00700
H 	H 	0.03611 0.75162 0.81067 0.06100
H 	H 	0.31467 0.99373 0.80731 0.05100
H 	H 	0.37245 0.92949 0.83594 0.04900
H 	H 	0.09396 0.68738 0.83930 0.05700
C 	C 	0.08998 0.25790 0.82644 -0.00100
C 	C 	0.15239 0.25384 0.81095 -0.04100
C 	C 	0.24638 0.32736 0.80956 -0.00100
C 	C 	0.27535 0.40640 0.82228 -0.00100
C 	C 	0.21179 0.41188 0.83717 -0.05500
C 	C 	0.11907 0.33676 0.83924 0.00300
H 	H 	0.29602 0.32508 0.79799 0.05900
H 	H 	0.34731 0.46342 0.82051 0.05200
H 	H 	0.06946 0.33911 0.85079 0.07300
C 	C 	0.22750 0.27781 0.70327 -0.03000
C 	C 	0.18660 0.28019 0.72349 -0.07400
C 	C 	0.21221 0.36632 0.73312 0.12700
C 	C 	0.27191 0.44715 0.72172 -0.02800
C 	C 	0.29979 0.44338 0.70013 -0.08000
C 	C 	0.28532 0.35927 0.69180 0.13400
Br	Br	0.34338 0.35453 0.66477 -0.18100
H 	H 	0.21310 0.21257 0.69629 0.09400
H 	H 	0.28793 0.51287 0.72872 0.06800
Br	Br	0.16429 0.37656 0.76124 -0.20800
C 	C 	0.07624 0.87663 0.68593 -0.02800
C 	C 	0.14236 0.93419 0.70189 -0.06800
C 	C 	0.24020 0.98065 0.69633 0.11600
C 	C 	0.27060 0.94992 0.67825 -0.02600
C 	C 	0.20412 0.87360 0.66601 -0.07100
C 	C 	0.10802 0.85004 0.66734 0.14000
H 	H 	0.34612 0.97885 0.67518 0.07900
Br	Br	0.33010 0.09328 0.71056 -0.18800
C 	C 	0.38248 0.38463 0.38632 0.13700
C 	C 	0.34776 0.42448 0.40102 -0.02800
H 	H 	0.31449 0.38887 0.41618 0.07900
Br	Br	0.37566 0.27133 0.39519 -0.21700
C 	C 	0.00100 0.57707 0.42637 0.00400
H 	H 	0.03528 0.69310 0.40511 0.11700
C 	C 	0.32883 0.32880 0.60110 0.12900
C 	C 	0.26518 0.35897 0.60711 -0.02700
C 	C 	0.27719 0.44246 0.59881 -0.07900
H 	H 	0.21398 0.32365 0.62011 0.09000
Br	Br	0.31554 0.21873 0.61423 -0.16200
Br	Br	0.52482 0.80037 0.56401 -0.21300
H 	H 	0.43000 0.43794 0.47099 0.05800
C 	C 	0.45956 0.99942 0.49837 -0.05000
H 	H 	0.46552 0.10990 0.51728 0.02600
H 	H 	0.38466 0.97104 0.49461 0.05700
C 	C 	0.11683 0.61629 0.51019 -0.05400
C 	C 	0.10402 0.54284 0.52361 -0.00300
H 	H 	0.14804 0.51152 0.52141 0.06800
H 	H 	0.02992 0.99910 0.78270 0.14600
O 	O 	0.02390 0.14161 0.19993 -0.35200
H 	H 	0.03818 0.27727 0.17704 0.08300
H 	H 	0.01807 0.20078 0.82821 0.06900
C 	C 	0.36569 0.51385 0.39775 -0.06800
H 	H 	0.00231 0.00959 0.24961 0.17400
Br	Br	0.05559 0.69266 0.01547 -0.12900
C 	C 	0.46934 0.47564 0.48544 -0.00400
C 	C 	0.44359 0.87256 0.41910 0.31000
Ni	Ni	0.45173 0.73187 0.44556 1.12300
O 	O 	0.45387 0.79930 0.41821 -0.37200
O 	O 	0.43242 0.61970 0.42802 -0.36600
O 	O 	0.46029 0.68169 0.47478 -0.38500
C 	C 	0.41106 0.76360 0.61021 0.30400
C 	C 	0.49100 0.75860 0.68229 0.30900
O 	O 	0.47308 0.62323 0.91373 -0.35600
C 	C 	0.46632 0.21855 0.08647 0.30600
C 	C 	0.42087 0.18612 0.33401 0.31600
O 	O 	0.43836 0.22196 0.35393 -0.33200
H 	H 	0.49174 0.35244 0.17527 0.05500
C 	C 	0.33413 0.47989 0.58000 0.12600
C 	C 	0.52118 0.88476 0.58472 0.13400
C 	C 	0.47189 0.55772 0.49149 -0.05900
O 	O 	0.42877 0.69621 0.61550 -0.34900
C 	C 	0.40203 0.38066 0.58589 -0.07500
O 	O 	0.48019 0.76808 0.85724 -0.38000
C 	C 	0.50572 0.07896 0.51099 0.05800
H 	H 	0.57025 0.99486 0.56113 0.07000
O 	O 	0.49412 0.74869 0.66083 -0.37200
O 	O 	0.48950 0.30637 0.08795 -0.33600
C 	C 	0.43019 0.43217 0.36678 -0.06200
C 	C 	0.50981 0.95738 0.49024 -0.02800
C 	C 	0.39895 0.45122 0.57407 -0.03300
Br	Br	0.32048 0.56547 0.56163 -0.19900
O 	O 	0.50354 0.85653 0.46098 -0.37200
C 	C 	0.50762 0.26977 0.13814 0.30700
C 	C 	0.40363 0.55786 0.37751 0.12700
H 	H 	0.51623 0.87461 0.37920 0.09700
C 	C 	0.54885 0.97445 0.57804 -0.06200
C 	C 	0.48920 0.85697 0.60635 -0.07700
H 	H 	0.51162 0.37641 0.49368 0.05400
O 	O 	0.01872 0.88323 0.72957 -0.35300
O 	O 	0.47765 0.28787 0.58122 -0.35600
C 	C 	0.52003 0.71222 0.91868 0.30300
O 	O 	0.53051 0.67144 0.86966 -0.37000
O 	O 	0.53336 0.19513 0.08455 -0.36500
O 	O 	0.49024 0.21282 0.32011 -0.37000
C 	C 	0.51129 0.95498 0.40647 -0.09400
C 	C 	0.51700 0.44151 0.49809 0.00000
H 	H 	0.01559 0.75082 0.17863 0.08200
C 	C 	0.43443 0.51610 0.36192 -0.02900
C 	C 	0.06199 0.65885 0.51422 0.03400
O 	O 	0.53345 0.77512 0.90351 -0.36800
O 	O 	0.52347 0.20791 0.12865 -0.37200
C 	C 	0.48772 0.37077 0.58422 0.30700
O 	O 	0.52714 0.35788 0.53976 -0.38300
C 	C 	0.53878 0.73550 0.85600 0.30500
C 	C 	0.54522 0.94273 0.38617 -0.07000
C 	C 	0.52643 0.60749 0.50978 -0.00400
H 	H 	0.52976 0.67137 0.51453 0.06400
O 	O 	0.49506 0.38948 0.33494 -0.34100
Br	Br	0.41033 0.67231 0.37052 -0.21100
H 	H 	0.44868 0.48553 0.56077 0.06900
H 	H 	0.07396 0.71849 0.50479 0.05000
O 	O 	0.52938 0.14404 0.56992 -0.35900
C 	C 	0.50029 0.41137 0.35656 0.30600
H 	H 	0.46838 0.55236 0.34690 0.07700
Br	Br	0.51046 0.06859 0.44288 -0.21000
C 	C 	0.58099 0.79822 0.69478 -0.07700
Ni	Ni	0.54622 0.26500 0.55677 1.12300
O 	O 	0.56256 0.35831 0.13453 -0.36900
C 	C 	0.55510 0.04393 0.41593 0.15300
C 	C 	0.54849 0.03772 0.59309 -0.05000
C 	C 	0.03002 0.50563 0.53897 0.04300
C 	C 	0.50339 0.92412 0.62204 -0.05600
C 	C 	0.56202 0.75528 0.95826 0.12000
H 	H 	0.55210 0.89249 0.71286 0.07100
C 	C 	0.56741 0.48867 0.51702 -0.06400
O 	O 	0.55728 0.40091 0.37005 -0.36500
H 	H 	0.48282 0.90403 0.63899 0.06600
Ni	Ni	0.57324 0.29100 0.36789 1.13000
C 	C 	0.52903 0.01337 0.61539 0.14800
C 	C 	0.57437 0.57330 0.52242 -0.00300
C 	C 	0.58724 0.74144 0.93702 -0.07100
O 	O 	0.58301 0.17996 0.36162 -0.37600
C 	C 	0.57923 0.13168 0.58585 0.30900
Br	Br	0.59185 0.45997 0.02872 -0.18600
C 	C 	0.60267 0.11741 0.51596 -0.09600
Ni	Ni	0.58514 0.35067 0.31701 1.11400
C 	C 	0.59342 0.44020 0.53336 0.30500
O 	O 	0.57344 0.44706 0.58493 -0.36600
C 	C 	0.60224 0.86843 0.71009 -0.03100
Br	Br	0.52665 0.09749 0.63651 -0.17500
C 	C 	0.60716 0.99584 0.49506 -0.05200
O 	O 	0.61722 0.25635 0.53048 -0.38300
Br	Br	0.61901 0.66606 0.67196 -0.22300
Ni	Ni	0.61055 0.41269 0.10342 1.11800
H 	H 	0.61235 0.60999 0.53709 0.04600
H 	H 	0.01753 0.44579 0.54841 0.04900
H 	H 	0.61421 0.81518 0.99028 0.07400
C 	C 	0.61528 0.01839 0.37463 0.16500
C 	C 	0.61954 0.77675 0.84058 -0.06600
H 	H 	0.62395 0.65093 0.83587 0.04400
C 	C 	0.62843 0.11817 0.40462 -0.03700
C 	C 	0.00178 0.13447 0.02710 0.41500
Ni	Ni	0.63257 0.22845 0.10839 1.12300
C 	C 	0.63321 0.80128 0.97421 -0.02300
H 	H 	0.63611 0.91296 0.84225 0.04000
H 	H 	0.63207 0.15825 0.26209 0.07600
H 	H 	0.63664 0.31862 0.58766 0.17500
H 	H 	0.00086 0.85191 0.68805 0.09700
C 	C 	0.64688 0.76721 0.69130 0.12900
H 	H 	0.64660 0.96373 0.48903 0.05800
C 	C 	0.64860 0.19811 0.53046 0.32000
C 	C 	0.64860 0.10756 0.38276 -0.08800
O 	O 	0.64889 0.35464 0.34314 -0.71700
Br	Br	0.98423 0.29362 0.00271 -0.22000
H 	H 	0.95809 0.35660 0.66312 0.06300
C 	C 	0.97287 0.49136 0.66547 -0.13300
H 	H 	0.99491 0.15947 0.92806 0.03200
Br	Br	0.92539 0.45023 0.46365 -0.22600
C 	C 	0.92790 0.39937 0.65866 -0.01000
Br	Br	0.80154 0.24526 0.63196 -0.20800
C 	C 	0.98176 0.62411 0.40985 -0.11400
C 	C 	0.79323 0.42180 0.61146 0.29900
C 	C 	0.87333 0.48352 0.55087 0.30900
Ni	Ni	0.75413 0.30085 0.57096 1.11800
Ni	Ni	0.70167 0.46460 0.57438 1.12200
O 	O 	0.83176 0.39419 0.59608 -0.35800
O 	O 	0.74263 0.46160 0.60591 -0.35600
O 	O 	0.70139 0.19848 0.54683 -0.36900
O 	O 	0.82778 0.39548 0.54671 -0.37400
O 	O 	0.84258 0.51785 0.56626 -0.37100
O 	O 	0.66500 0.19693 0.59190 -0.34500
O 	O 	0.67801 0.48305 0.54275 -0.38300
O 	O 	0.66070 0.33665 0.57253 -0.71800
C 	C 	0.84510 0.89352 0.79343 0.27600
C 	C 	0.83926 0.90991 0.73203 0.31800
Ni	Ni	0.95640 0.06071 0.76285 1.10600
Ni	Ni	0.96778 0.87282 0.76026 1.09700
O 	O 	0.84092 0.95297 0.77953 -0.36300
O 	O 	0.89665 0.85345 0.78897 -0.39100
O 	O 	0.90084 0.99804 0.73295 -0.38500
O 	O 	0.84447 0.85264 0.74602 -0.37500
C 	C 	0.75465 0.50770 0.06803 0.29600
C 	C 	0.77647 0.54440 0.13196 0.30200
C 	C 	0.80003 0.28478 0.13575 0.31600
C 	C 	0.80401 0.27033 0.07845 0.30300
Ni	Ni	0.81873 0.42631 0.10331 1.12000
O 	O 	0.66484 0.47783 0.07351 -0.33600
O 	O 	0.81909 0.52550 0.08364 -0.37300
O 	O 	0.70896 0.25625 0.13594 -0.38600
O 	O 	0.82932 0.35856 0.07744 -0.38600
O 	O 	0.71240 0.53709 0.11756 -0.36200
O 	O 	0.81042 0.48769 0.13135 -0.37800
O 	O 	0.72428 0.20785 0.08874 -0.35200
O 	O 	0.85735 0.35030 0.12220 -0.38100
O 	O 	0.68316 0.35343 0.10021 -0.71300
H 	H 	0.67728 0.34367 0.08415 0.16200
C 	C 	0.92753 0.83798 0.19632 0.29800
C 	C 	0.91923 0.82027 0.25576 0.27600
C 	C 	0.93290 0.10632 0.19525 0.26700
C 	C 	0.88350 0.09850 0.25301 0.30500
Ni	Ni	0.87965 0.94930 0.22624 1.10200
O 	O 	0.86636 0.04268 0.20785 -0.35200
O 	O 	0.98970 0.84054 0.21061 -0.38100
O 	O 	0.89694 0.89730 0.19747 -0.39500
O 	O 	0.96684 0.16119 0.24441 -0.38400
O 	O 	0.85247 0.00834 0.25216 -0.34900
O 	O 	0.85719 0.83393 0.24384 -0.35200
C 	C 	0.69429 0.25889 0.29987 0.32000
C 	C 	0.78194 0.50497 0.31027 0.30800
C 	C 	0.65957 0.17849 0.36726 0.33300
C 	C 	0.77173 0.42876 0.38453 0.30800
Ni	Ni	0.76296 0.34904 0.34130 1.13500
O 	O 	0.74351 0.25193 0.36403 -0.35700
O 	O 	0.65972 0.31281 0.29407 -0.35200
O 	O 	0.69820 0.24294 0.32051 -0.36000
O 	O 	0.68919 0.35141 0.38866 -0.36600
O 	O 	0.81527 0.44239 0.36528 -0.35700
O 	O 	0.69250 0.48392 0.31296 -0.36800
O 	O 	0.81329 0.44756 0.31635 -0.33200
H 	H 	0.67587 0.41964 0.34738 0.18200
C 	C 	0.80528 0.89941 0.98395 0.32200
C 	C 	0.90427 0.76330 0.00643 0.29200
Ni	Ni	0.98712 0.92605 0.97288 1.11200
Ni	Ni	0.93269 0.94010 0.02320 1.10500
O 	O 	0.93193 0.05770 0.01942 -0.40500
O 	O 	0.88327 0.96095 0.97509 -0.37900
O 	O 	0.80880 0.87605 0.00452 -0.36300
O 	O 	0.89794 0.79226 0.98627 -0.33900
O 	O 	0.92304 0.81628 0.02403 -0.37900
C 	C 	0.80395 0.57036 0.27305 -0.03300
C 	C 	0.83830 0.57913 0.29464 -0.07000
C 	C 	0.90541 0.66645 0.30248 0.12800
C 	C 	0.92507 0.74501 0.29038 -0.03600
C 	C 	0.88433 0.73694 0.26947 -0.06700
C 	C 	0.82638 0.64848 0.26044 0.12400
Br	Br	0.77970 0.63195 0.23077 -0.22500
H 	H 	0.75490 0.50268 0.26655 0.07100
H 	H 	0.97469 0.81244 0.29692 0.07500
Br	Br	0.97601 0.67906 0.32877 -0.19300
C 	C 	0.70188 0.17163 0.26727 -0.02500
C 	C 	0.74962 0.23469 0.28437 -0.08000
C 	C 	0.84053 0.25001 0.29094 0.13400
C 	C 	0.87655 0.19615 0.28241 -0.03300
C 	C 	0.82922 0.13300 0.26556 -0.06600
C 	C 	0.74190 0.12185 0.25762 0.12600
Br	Br	0.67632 0.03960 0.23371 -0.20700
H 	H 	0.94489 0.20719 0.28815 0.07500
Br	Br	0.91691 0.34260 0.31211 -0.26400
C 	C 	0.76623 0.60968 0.01208 -0.03800
C 	C 	0.86541 0.66492 0.01045 -0.06100
C 	C 	0.92247 0.63755 0.02194 0.08900
C 	C 	0.88414 0.57755 0.03984 -0.02000
C 	C 	0.78724 0.53997 0.04515 -0.07800
C 	C 	0.72628 0.54609 0.02932 0.12900
H 	H 	0.72045 0.62253 0.00141 0.08100
H 	H 	0.93044 0.56437 0.05023 0.06300
C 	C 	0.89042 0.27329 0.04425 -0.04400
C 	C 	0.86033 0.23884 0.06561 -0.06600
C 	C 	0.89365 0.18344 0.07527 0.11500
C 	C 	0.95461 0.16240 0.06346 -0.01200
C 	C 	0.97747 0.18997 0.04151 -0.14200
C 	C 	0.94837 0.24885 0.03221 0.14800
H 	H 	0.86768 0.31807 0.03687 0.08100
H 	H 	0.97728 0.11739 0.07075 0.05400
Br	Br	0.85343 0.13119 0.10394 -0.22900
C 	C 	0.77648 0.14691 0.15642 0.01900
C 	C 	0.83706 0.23857 0.15004 -0.06900
C 	C 	0.93227 0.28457 0.15714 0.02400
C 	C 	0.96549 0.24009 0.17109 -0.05400
C 	C 	0.90376 0.14903 0.17792 -0.02800
C 	C 	0.81000 0.10211 0.16995 -0.01100
H 	H 	0.70355 0.10978 0.15061 0.05100
H 	H 	0.97994 0.35511 0.15225 0.04000
H 	H 	0.76227 0.03127 0.17462 0.06900
C 	C 	0.76207 0.66205 0.15466 0.00200
C 	C 	0.81591 0.62138 0.14802 -0.06700
C 	C 	0.90767 0.65436 0.15676 0.01300
C 	C 	0.94470 0.72625 0.17209 -0.04800
C 	C 	0.89051 0.76619 0.17895 -0.04300
C 	C 	0.79918 0.73407 0.17002 -0.00900
H 	H 	0.69101 0.63711 0.14819 0.04800
H 	H 	0.95065 0.62468 0.15161 0.03700
H 	H 	0.75609 0.76347 0.17529 0.04900
C 	C 	0.68046 0.76415 0.93259 -0.03800
C 	C 	0.72921 0.83313 0.96901 -0.09400
C 	C 	0.75183 0.81059 0.94802 0.14200
Br	Br	0.87848 0.84245 0.93916 -0.35800
H 	H 	0.69868 0.74956 0.91648 0.07700
C 	C 	0.73290 0.76233 0.81713 -0.00900
C 	C 	0.77390 0.85543 0.81120 -0.05700
C 	C 	0.73932 0.90963 0.82064 -0.01100
C 	C 	0.66227 0.87041 0.83516 -0.00200
C 	C 	0.65610 0.72322 0.83174 -0.00200
H 	H 	0.75849 0.71951 0.80994 0.04700
H 	H 	0.77121 0.98186 0.81646 0.03900
C 	C 	0.73287 0.80747 0.70287 -0.03300
C 	C 	0.75378 0.87708 0.71825 -0.08200
C 	C 	0.68791 0.90775 0.72189 0.11800
Br	Br	0.71139 0.00034 0.74352 -0.21600
H 	H 	0.78271 0.78291 0.70026 0.07000
C 	C 	0.92482 0.49282 0.43431 0.08300
C 	C 	0.84140 0.44576 0.42178 -0.01200
C 	C 	0.82899 0.48709 0.40301 -0.09100
C 	C 	0.89308 0.58105 0.39925 0.15700
Br	Br	0.85777 0.65149 0.38069 -0.20800
H 	H 	0.78787 0.37642 0.42630 0.07200
Br	Br	0.65554 0.00005 0.34633 -0.17300
H 	H 	0.65894 0.18674 0.41155 0.07100
C 	C 	0.92165 0.53804 0.66320 0.14600
C 	C 	0.85274 0.51084 0.64654 -0.04600
C 	C 	0.82801 0.43043 0.63438 -0.06200
C 	C 	0.85689 0.36904 0.64253 0.11600
H 	H 	0.82127 0.55305 0.64268 0.08700
Br	Br	0.93231 0.62478 0.68503 -0.23500
C 	C 	0.65339 0.07544 0.50803 0.05500
H 	H 	0.72826 0.10433 0.51189 0.04200
C 	C 	0.96747 0.54071 0.54085 -0.09000
C 	C 	0.98713 0.62067 0.52938 -0.02800
H 	H 	0.94079 0.64971 0.53111 0.04900
