data_crystal

_cell_length_a 48.41509
_cell_length_b 47.61515
_cell_length_c 22.70119
_cell_angle_alpha 89.96544
_cell_angle_beta  89.95135
_cell_angle_gamma 87.23597

_symmetry_space_group_name_	'P 1'
_symmetry_space_group_name_H-M	'P 1'

loop_
_symmetry_equiv_pos_as_xyz
  x,y,z

loop_
_atom_site_label
_atom_site_type_symbol
_atom_site_fract_x
_atom_site_fract_y
_atom_site_fract_z
_atom_site_charge
C 	C 	0.45776 0.54045 0.99854 -0.03900
C 	C 	0.48211 0.55489 0.99573 -0.03800
C 	C 	0.45807 0.51122 0.98842 0.01300
C 	C 	0.48352 0.49639 0.97668 -0.00400
C 	C 	0.50831 0.51098 0.97486 -0.00300
C 	C 	0.50755 0.54048 0.98343 0.01100
C 	C 	0.48425 0.46695 0.96700 0.01100
C 	C 	0.50963 0.45270 0.95338 -0.03700
C 	C 	0.53384 0.49602 0.96490 0.01000
C 	C 	0.53245 0.55491 0.98053 -0.00600
C 	C 	0.55767 0.53976 0.97294 -0.04300
C 	C 	0.55869 0.51048 0.96685 -0.00600
C 	C 	0.43339 0.49642 0.99032 -0.01100
C 	C 	0.43436 0.46731 0.98160 -0.04100
C 	C 	0.45943 0.45241 0.97048 -0.00700
C 	C 	0.53258 0.58589 0.98524 0.01900
C 	C 	0.52676 0.60269 0.93558 -0.04500
C 	C 	0.53119 0.63150 0.93711 -0.01600
C 	C 	0.54172 0.64370 0.98822 -0.01000
C 	C 	0.54648 0.62705 0.03863 -0.01300
C 	C 	0.54190 0.59829 0.03714 -0.04300
C 	C 	0.58598 0.49518 0.96732 0.02000
C 	C 	0.59460 0.47990 0.01745 -0.04300
C 	C 	0.62187 0.46911 0.02187 -0.01300
C 	C 	0.60454 0.49864 0.92070 -0.04500
C 	C 	0.63190 0.48816 0.92544 -0.01500
C 	C 	0.64083 0.47391 0.97661 -0.01000
C 	C 	0.40631 0.51102 0.00157 0.02900
C 	C 	0.39359 0.50853 0.05670 -0.04700
C 	C 	0.36651 0.51924 0.06527 -0.01400
C 	C 	0.35202 0.53267 0.01885 -0.00600
C 	C 	0.36517 0.53615 0.96438 -0.01700
C 	C 	0.39215 0.52517 0.95564 -0.04900
C 	C 	0.45929 0.42148 0.96407 0.02000
C 	C 	0.44765 0.40976 0.91371 -0.04500
C 	C 	0.44332 0.38096 0.91147 -0.01500
C 	C 	0.45079 0.36358 0.95941 -0.01000
C 	C 	0.46354 0.37512 0.00876 -0.01300
C 	C 	0.46758 0.40399 0.01125 -0.04300
C 	C 	0.53408 0.46703 0.95239 -0.03600
H 	H 	0.51960 0.59327 0.89529 0.05200
H 	H 	0.52738 0.64411 0.89795 0.05400
H 	H 	0.55417 0.63629 0.07864 0.05400
H 	H 	0.54638 0.58547 0.07573 0.05300
H 	H 	0.35416 0.54648 0.92824 0.05400
H 	H 	0.40185 0.52713 0.91290 0.05300
H 	H 	0.35663 0.51668 0.10766 0.05400
H 	H 	0.40443 0.49767 0.09240 0.05400
H 	H 	0.44119 0.42311 0.87709 0.05300
H 	H 	0.43377 0.37222 0.87287 0.05500
H 	H 	0.47647 0.41288 0.05041 0.05200
H 	H 	0.46943 0.36190 0.04598 0.05400
H 	H 	0.58041 0.47716 0.05369 0.05200
H 	H 	0.62856 0.45807 0.06150 0.05400
H 	H 	0.59800 0.51029 0.88172 0.05200
H 	H 	0.64632 0.49170 0.88998 0.05400
H 	H 	0.43868 0.55216 0.00902 0.05200
H 	H 	0.48109 0.57730 0.00402 0.05200
H 	H 	0.57675 0.55082 0.97289 0.05200
H 	H 	0.55315 0.45552 0.94092 0.04900
H 	H 	0.51055 0.43050 0.94295 0.04900
H 	H 	0.41540 0.45610 0.98382 0.05200
Zn	Zn	0.38343 0.11577 0.97839 1.22400
C 	C 	0.33580 0.08173 0.96452 0.29400
O 	O 	0.39949 0.10617 0.05634 -0.41400
O 	O 	0.35288 0.06217 0.94243 -0.42000
O 	O 	0.38130 0.06312 0.05890 -0.48100
C 	C 	0.40581 0.08467 0.87936 0.35900
O 	O 	0.38752 0.10440 0.89566 -0.42800
O 	O 	0.41468 0.06549 0.91712 -0.49100
C 	C 	0.39457 0.08295 0.08498 0.33700
O 	O 	0.42052 0.14537 0.96228 -0.25800
Zn	Zn	0.39106 0.05242 0.97931 1.17900
O 	O 	0.34545 0.10378 0.99111 -0.40400
C 	C 	0.40229 0.16583 0.97087 0.25500
O 	O 	0.37742 0.15849 0.98201 -0.34100
C 	C 	0.51109 0.99193 0.53351 0.02000
C 	C 	0.48885 0.01269 0.53300 0.02200
C 	C 	0.52174 0.98105 0.48019 -0.04700
C 	C 	0.51090 0.99108 0.42633 0.01800
C 	C 	0.47840 0.02317 0.47914 -0.05000
C 	C 	0.48948 0.01272 0.42578 0.02400
H 	H 	0.46185 0.03929 0.47875 0.06400
H 	H 	0.53828 0.96492 0.48060 0.06200
C 	C 	0.48074 0.02407 0.37089 -0.01900
C 	C 	0.49050 0.01256 0.31767 0.02000
C 	C 	0.47290 0.01900 0.26917 -0.05300
C 	C 	0.44911 0.03519 0.28496 0.03200
S 	S 	0.45066 0.04157 0.35737 0.04800
H 	H 	0.47716 0.01195 0.22459 0.06000
C 	C 	0.51991 0.97933 0.37204 -0.00800
C 	C 	0.51038 0.99039 0.31823 0.02000
C 	C 	0.52820 0.98353 0.27025 -0.03900
C 	C 	0.55185 0.96747 0.28720 0.02200
S 	S 	0.55009 0.96175 0.35975 0.03600
H 	H 	0.52422 0.99025 0.22535 0.05800
C 	C 	0.51120 0.99323 0.64158 0.02100
C 	C 	0.52274 0.98372 0.58835 -0.00900
S 	S 	0.54204 0.95443 0.60207 0.04400
C 	C 	0.53671 0.95308 0.67494 0.02200
C 	C 	0.51917 0.97618 0.69046 -0.04000
C 	C 	0.47697 0.02128 0.58743 -0.00900
C 	C 	0.48830 0.01213 0.64112 0.02200
C 	C 	0.48011 0.02947 0.68937 -0.04000
C 	C 	0.46263 0.05244 0.67292 0.02200
S 	S 	0.45759 0.05065 0.60000 0.04600
H 	H 	0.48619 0.02518 0.73449 0.06000
H 	H 	0.51292 0.98077 0.73537 0.05900
Zn	Zn	0.61588 0.88936 0.97991 1.22300
C 	C 	0.66414 0.92247 0.96498 0.29600
O 	O 	0.59989 0.90000 0.05737 -0.44500
O 	O 	0.64731 0.94234 0.94329 -0.41800
O 	O 	0.61992 0.94206 0.06063 -0.46200
C 	C 	0.59394 0.92066 0.88122 0.35800
O 	O 	0.61183 0.90047 0.89711 -0.42800
O 	O 	0.58538 0.93976 0.91945 -0.49700
C 	C 	0.60743 0.92190 0.08756 0.34400
O 	O 	0.57828 0.86036 0.96437 -0.27000
Zn	Zn	0.60945 0.95248 0.98117 1.17800
O 	O 	0.65418 0.90061 0.99182 -0.40000
C 	C 	0.59607 0.83966 0.97428 0.25600
O 	O 	0.62103 0.84663 0.98566 -0.34300
Zn	Zn	0.10260 0.60117 0.04792 1.22400
C 	C 	0.06514 0.64944 0.03244 0.29900
O 	O 	0.09562 0.58475 0.12598 -0.44800
O 	O 	0.04612 0.63239 0.01547 -0.39900
O 	O 	0.05227 0.60469 0.13308 -0.46500
C 	C 	0.07285 0.57839 0.95186 0.35800
O 	O 	0.09078 0.59695 0.96635 -0.43200
O 	O 	0.05541 0.56954 0.99114 -0.49700
C 	C 	0.07394 0.59222 0.15813 0.34600
O 	O 	0.13544 0.56387 0.02956 -0.29000
Zn	Zn	0.04158 0.59378 0.05451 1.17900
O 	O 	0.08722 0.63958 0.06073 -0.40100
C 	C 	0.15361 0.58267 0.03740 0.25600
O 	O 	0.14380 0.60776 0.04945 -0.34400
C 	C 	0.99608 0.51395 0.60414 0.02100
C 	C 	0.97508 0.49398 0.60241 0.02000
C 	C 	0.00549 0.52581 0.55153 -0.05000
C 	C 	0.99460 0.51756 0.49718 0.02100
C 	C 	0.96356 0.48646 0.54827 -0.04900
C 	C 	0.97336 0.49784 0.49560 0.02000
H 	H 	0.94650 0.47256 0.54729 0.06200
H 	H 	0.02049 0.54195 0.55300 0.06100
C 	C 	0.96192 0.49089 0.44056 -0.00900
C 	C 	0.97319 0.50034 0.38775 0.02200
C 	C 	0.96733 0.48322 0.33856 -0.04100
C 	C 	0.95192 0.46015 0.35348 0.02300
S 	S 	0.94555 0.46159 0.42579 0.04400
H 	H 	0.97254 0.48839 0.29360 0.05800
C 	C 	0.00356 0.52923 0.44356 -0.01300
C 	C 	0.99419 0.51948 0.38922 0.01800
C 	C 	0.01271 0.52396 0.34199 -0.04800
C 	C 	0.03676 0.53662 0.35982 0.03400
S 	S 	0.03441 0.54265 0.43224 0.02900
H 	H 	0.00818 0.51943 0.29639 0.05900
C 	C 	0.99831 0.50899 0.71155 0.01700
C 	C 	0.00614 0.52229 0.65960 -0.01400
S 	S 	0.03656 0.53633 0.67193 0.02800
C 	C 	0.04059 0.52642 0.74233 0.03500
C 	C 	0.01753 0.51146 0.75821 -0.04700
C 	C 	0.96533 0.48314 0.65612 -0.01300
C 	C 	0.97783 0.48931 0.70979 0.01700
C 	C 	0.97348 0.46909 0.75437 -0.04600
C 	C 	0.95795 0.44683 0.73502 0.03500
S 	S 	0.94982 0.45280 0.66427 0.02600
H 	H 	0.97970 0.47156 0.79979 0.06300
H 	H 	0.01385 0.50444 0.80277 0.06300
Zn	Zn	0.88567 0.39064 0.04772 1.22500
C 	C 	0.83775 0.42933 0.04477 0.29800
O 	O 	0.90538 0.39555 0.97256 -0.44900
O 	O 	0.85372 0.44866 0.06512 -0.41900
O 	O 	0.88632 0.43924 0.95547 -0.46700
C 	C 	0.90352 0.42407 0.14375 0.35800
O 	O 	0.88603 0.40524 0.12817 -0.43100
O 	O 	0.91404 0.44045 0.10404 -0.49600
C 	C 	0.89900 0.41618 0.93585 0.34600
O 	O 	0.92128 0.35805 0.07757 -0.26600
Zn	Zn	0.89339 0.45237 0.03437 1.17800
O 	O 	0.84863 0.40534 0.02487 -0.40100
C 	C 	0.90331 0.33924 0.06797 0.25500
O 	O 	0.87939 0.34870 0.04935 -0.34300
C 	C 	0.94971 0.01162 0.99190 -0.03600
C 	C 	0.96339 0.03651 0.99874 -0.03800
C 	C 	0.96469 0.98597 0.98186 0.01100
C 	C 	0.99395 0.98558 0.97930 -0.00400
C 	C 	0.00782 0.01095 0.98514 -0.00100
C 	C 	0.99246 0.03656 0.99515 0.00700
C 	C 	0.00936 0.95984 0.97137 0.01100
C 	C 	0.03840 0.95990 0.96711 -0.03700
C 	C 	0.03707 0.01064 0.98145 0.00800
C 	C 	0.00653 0.06176 0.00166 0.00100
C 	C 	0.03536 0.06132 0.99720 -0.05100
C 	C 	0.05074 0.03616 0.98721 -0.00300
C 	C 	0.95100 0.96053 0.97498 -0.00600
C 	C 	0.96644 0.93517 0.96809 -0.04300
C 	C 	0.99535 0.93448 0.96754 -0.00600
C 	C 	0.99144 0.08876 0.01422 0.02200
C 	C 	0.98029 0.10514 0.96790 -0.04700
C 	C 	0.96746 0.13148 0.97944 -0.01800
C 	C 	0.96599 0.14177 0.03738 -0.00500
C 	C 	0.97685 0.12516 0.08379 -0.01600
C 	C 	0.98949 0.09875 0.07222 -0.04400
C 	C 	0.08119 0.03695 0.98343 0.01800
C 	C 	0.09692 0.03872 0.03502 -0.04200
C 	C 	0.12525 0.04297 0.03161 -0.01300
C 	C 	0.09411 0.03874 0.92833 -0.04400
C 	C 	0.12249 0.04281 0.92483 -0.01600
C 	C 	0.13812 0.04542 0.97649 -0.01000
C 	C 	0.92048 0.96000 0.97515 0.01900
C 	C 	0.90656 0.95215 0.02632 -0.04200
C 	C 	0.87804 0.94873 0.02499 -0.01300
C 	C 	0.86319 0.95309 0.97235 -0.01000
C 	C 	0.87709 0.96161 0.92148 -0.01600
C 	C 	0.90562 0.96496 0.92288 -0.04500
C 	C 	0.01060 0.90688 0.96653 0.02000
C 	C 	0.01252 0.89137 0.91410 -0.04500
C 	C 	0.02353 0.86370 0.91470 -0.01500
C 	C 	0.03265 0.85130 0.96783 -0.01000
C 	C 	0.03186 0.86732 0.01980 -0.01300
C 	C 	0.02078 0.89496 0.01915 -0.04300
C 	C 	0.05206 0.98490 0.97239 -0.03500
H 	H 	0.98179 0.09756 0.92296 0.05300
H 	H 	0.95928 0.14417 0.94325 0.05500
H 	H 	0.97562 0.13279 0.12871 0.05500
H 	H 	0.99807 0.08617 0.10820 0.05300
H 	H 	0.86592 0.96499 0.88055 0.05400
H 	H 	0.91626 0.97092 0.88311 0.05200
H 	H 	0.86753 0.94256 0.06476 0.05500
H 	H 	0.91791 0.94826 0.06685 0.05300
H 	H 	0.00482 0.90052 0.87323 0.05200
H 	H 	0.02444 0.85171 0.87413 0.05400
H 	H 	0.01938 0.90685 0.05982 0.05300
H 	H 	0.03884 0.85803 0.06108 0.05500
H 	H 	0.08707 0.03739 0.07774 0.05200
H 	H 	0.13714 0.04456 0.07177 0.05500
H 	H 	0.08207 0.03752 0.88828 0.05200
H 	H 	0.13216 0.04469 0.88205 0.05500
H 	H 	0.92738 0.01241 0.99501 0.04900
H 	H 	0.95118 0.05575 0.00689 0.05200
H 	H 	0.04596 0.08077 0.00186 0.05700
H 	H 	0.07439 0.98407 0.96945 0.04900
H 	H 	0.05057 0.94060 0.95924 0.04900
H 	H 	0.95584 0.91568 0.96415 0.05300
C 	C 	0.92601 0.25380 0.06916 0.10800
N 	N 	0.94289 0.27264 0.09322 -0.06000
N 	N 	0.93541 0.29993 0.09378 -0.04500
C 	C 	0.91076 0.30911 0.07065 0.07100
N 	N 	0.89364 0.29023 0.04761 -0.04900
N 	N 	0.90121 0.26296 0.04667 -0.06200
C 	C 	0.95440 0.17035 0.04904 0.11600
N 	N 	0.93102 0.18003 0.02121 -0.07500
N 	N 	0.92150 0.20650 0.02895 -0.06300
C 	C 	0.93519 0.22407 0.06442 0.10400
N 	N 	0.95837 0.21428 0.09282 -0.06300
N 	N 	0.96780 0.18777 0.08537 -0.07400
C 	C 	0.94073 0.43100 0.77559 0.00300
C 	C 	0.95340 0.41319 0.81819 0.13500
C 	C 	0.93866 0.40583 0.86845 -0.02500
C 	C 	0.91120 0.41596 0.87628 -0.11800
C 	C 	0.89738 0.43005 0.82942 0.20400
C 	C 	0.91227 0.43788 0.77967 -0.10000
H 	H 	0.94912 0.39377 0.90303 0.08100
H 	H 	0.90203 0.45060 0.74583 0.09000
Cl	Cl	0.98821 0.40122 0.81054 -0.29200
Cl	Cl	0.86146 0.43786 0.83231 -0.30100
C 	C 	0.93406 0.44643 0.31102 0.00800
C 	C 	0.91049 0.46101 0.28784 0.13300
C 	C 	0.89866 0.45180 0.23552 -0.01900
C 	C 	0.91017 0.42814 0.20611 -0.11800
C 	C 	0.93171 0.41184 0.23284 0.20700
C 	C 	0.94351 0.42101 0.28526 -0.09900
H 	H 	0.88154 0.46398 0.21593 0.06600
H 	H 	0.96115 0.40929 0.30389 0.09500
Cl	Cl	0.89649 0.49168 0.32213 -0.30900
Cl	Cl	0.94522 0.38080 0.19936 -0.29700
C 	C 	0.05574 0.73496 0.99431 0.10700
N 	N 	0.07671 0.72512 0.02951 -0.06000
N 	N 	0.07980 0.69775 0.04150 -0.04600
C 	C 	0.06188 0.67950 0.01900 0.05800
N 	N 	0.04100 0.68932 0.98361 -0.04700
N 	N 	0.03799 0.71666 0.97138 -0.06200
C 	C 	0.04072 0.82110 0.96998 0.11400
N 	N 	0.02619 0.80241 0.93900 -0.07600
N 	N 	0.03149 0.77488 0.94562 -0.06400
C 	C 	0.05151 0.76524 0.98335 0.10200
N 	N 	0.06651 0.78391 0.01328 -0.06200
N 	N 	0.06115 0.81145 0.00678 -0.07400
C 	C 	0.07142 0.56825 0.89103 -0.11800
C 	C 	0.05583 0.58370 0.84872 0.20300
C 	C 	0.04816 0.57075 0.79629 -0.09800
C 	C 	0.05598 0.54241 0.78579 0.00400
C 	C 	0.07417 0.52809 0.82512 0.13600
C 	C 	0.08170 0.54099 0.87767 -0.01700
H 	H 	0.03460 0.58212 0.76565 0.08900
H 	H 	0.09440 0.52931 0.90944 0.07600
Cl	Cl	0.04430 0.61873 0.86253 -0.31200
Cl	Cl	0.08641 0.49336 0.81050 -0.28900
C 	C 	0.07141 0.58083 0.21828 -0.11900
C 	C 	0.05602 0.59587 0.26170 0.20300
C 	C 	0.04681 0.58186 0.31172 -0.09900
C 	C 	0.05334 0.55305 0.31932 0.00200
C 	C 	0.07179 0.53910 0.28001 0.13500
C 	C 	0.08077 0.55300 0.22973 -0.02600
H 	H 	0.03340 0.59300 0.34303 0.09000
H 	H 	0.09359 0.54157 0.19779 0.07900
Cl	Cl	0.04843 0.63226 0.25436 -0.30000
Cl	Cl	0.08252 0.50366 0.29157 -0.29700
C 	C 	0.74907 0.93344 0.96272 0.10700
N 	N 	0.73156 0.95127 0.93243 -0.06500
N 	N 	0.70449 0.94739 0.93215 -0.05300
C 	C 	0.69415 0.92549 0.96192 0.05100
N 	N 	0.71168 0.90745 0.99165 -0.04600
N 	N 	0.73876 0.91137 0.99206 -0.06200
C 	C 	0.83334 0.94808 0.97015 0.11400
N 	N 	0.82296 0.92652 0.00103 -0.07300
N 	N 	0.79608 0.92175 0.99842 -0.06500
C 	C 	0.77881 0.93838 0.96484 0.10200
N 	N 	0.78919 0.95993 0.93398 -0.06500
N 	N 	0.81607 0.96468 0.93651 -0.07600
C 	C 	0.55688 0.94011 0.71640 0.00800
C 	C 	0.57963 0.95505 0.73564 0.13300
C 	C 	0.59375 0.94667 0.78692 -0.01800
C 	C 	0.58532 0.92354 0.81942 -0.11700
C 	C 	0.56467 0.90681 0.79655 0.20600
C 	C 	0.55056 0.91515 0.74514 -0.09900
H 	H 	0.61021 0.95915 0.80345 0.06500
H 	H 	0.53357 0.90314 0.72958 0.09400
Cl	Cl	0.58963 0.98528 0.69791 -0.30800
Cl	Cl	0.55517 0.87627 0.83366 -0.29900
C 	C 	0.56841 0.94953 0.24633 0.00500
C 	C 	0.55577 0.92957 0.21084 0.13400
C 	C 	0.56966 0.91852 0.16135 -0.02500
C 	C 	0.59636 0.92682 0.14758 -0.11800
C 	C 	0.61041 0.94342 0.18820 0.20300
C 	C 	0.59622 0.95507 0.23683 -0.10100
H 	H 	0.55916 0.90456 0.13211 0.08100
H 	H 	0.60653 0.96924 0.26594 0.09100
Cl	Cl	0.52256 0.91830 0.22780 -0.30200
Cl	Cl	0.64589 0.94907 0.17974 -0.29900
C 	C 	0.25118 0.06911 0.96314 0.10700
N 	N 	0.26873 0.05281 0.92950 -0.06600
N 	N 	0.29570 0.05725 0.92899 -0.05400
C 	C 	0.30587 0.07825 0.96173 0.04800
N 	N 	0.28827 0.09483 0.99468 -0.04800
N 	N 	0.26131 0.09029 0.99547 -0.06400
C 	C 	0.16763 0.05161 0.97293 0.11400
N 	N 	0.17833 0.07066 0.00998 -0.07300
N 	N 	0.20494 0.07646 0.00645 -0.06200
C 	C 	0.22164 0.06332 0.96591 0.10000
N 	N 	0.21095 0.04427 0.92886 -0.06500
N 	N 	0.18431 0.03857 0.93218 -0.07600
C 	C 	0.41422 0.08210 0.81737 -0.11700
C 	C 	0.43505 0.09868 0.79469 0.20700
C 	C 	0.44900 0.09045 0.74298 -0.09900
C 	C 	0.44237 0.06571 0.71385 0.00800
C 	C 	0.41939 0.05102 0.73285 0.13300
C 	C 	0.40541 0.05932 0.78439 -0.01800
H 	H 	0.46617 0.10229 0.72761 0.09400
H 	H 	0.38879 0.04698 0.80076 0.06600
Cl	Cl	0.44501 0.12884 0.83246 -0.29600
Cl	Cl	0.40903 0.02109 0.69469 -0.30400
C 	C 	0.40688 0.07752 0.14370 -0.11500
C 	C 	0.43505 0.08221 0.15449 0.19700
C 	C 	0.44801 0.07067 0.20459 -0.09800
C 	C 	0.43357 0.05354 0.24301 0.00200
C 	C 	0.40499 0.05093 0.23514 0.13700
C 	C 	0.39173 0.06315 0.18598 -0.02200
H 	H 	0.46982 0.07360 0.21171 0.08800
H 	H 	0.36993 0.06015 0.17896 0.08200
Cl	Cl	0.45509 0.10047 0.10360 -0.31200
Cl	Cl	0.38587 0.03089 0.28446 -0.29600
C 	C 	0.43045 0.27935 0.96260 0.10400
N 	N 	0.41133 0.29969 0.94641 -0.06400
N 	N 	0.41796 0.32652 0.94458 -0.07500
C 	C 	0.44383 0.33380 0.95936 0.11600
N 	N 	0.46294 0.31348 0.97569 -0.07500
N 	N 	0.45638 0.28661 0.97696 -0.06400
C 	C 	0.40958 0.19537 0.96900 0.07400
N 	N 	0.43652 0.20205 0.96818 -0.04400
N 	N 	0.44319 0.22888 0.96644 -0.06000
C 	C 	0.42309 0.24976 0.96485 0.10900
N 	N 	0.39614 0.24307 0.96538 -0.06200
N 	N 	0.38947 0.21624 0.96771 -0.05000
C 	C 	0.26799 0.55520 0.03258 0.10400
N 	N 	0.28591 0.57395 0.01190 -0.06400
N 	N 	0.31284 0.56691 0.00823 -0.07400
C 	C 	0.32261 0.54105 0.02583 0.11600
N 	N 	0.30474 0.52245 0.04726 -0.07400
N 	N 	0.27780 0.52938 0.05035 -0.06300
C 	C 	0.18334 0.57557 0.03601 0.06600
N 	N 	0.19278 0.54829 0.03760 -0.05000
N 	N 	0.21985 0.54180 0.03695 -0.06200
C 	C 	0.23822 0.56241 0.03404 0.10800
N 	N 	0.22877 0.58971 0.03210 -0.06200
N 	N 	0.20170 0.59620 0.03343 -0.04900
C 	C 	0.72428 0.45400 0.00801 0.10500
N 	N 	0.70539 0.43400 0.01375 -0.06400
N 	N 	0.67874 0.44023 0.00293 -0.07400
C 	C 	0.67034 0.46650 0.98516 0.11400
N 	N 	0.68928 0.48638 0.97877 -0.07600
N 	N 	0.71586 0.48025 0.99026 -0.06600
C 	C 	0.80793 0.43548 0.03963 0.05200
N 	N 	0.79755 0.46243 0.04222 -0.05400
N 	N 	0.77075 0.46831 0.03273 -0.06500
C 	C 	0.75352 0.44736 0.02096 0.10800
N 	N 	0.76380 0.42034 0.01948 -0.06200
N 	N 	0.79068 0.41450 0.02830 -0.04600
C 	C 	0.57275 0.75652 0.98050 0.10800
N 	N 	0.59853 0.76314 0.99752 -0.06300
N 	N 	0.60608 0.78967 0.99500 -0.05000
C 	C 	0.58802 0.81035 0.97569 0.07100
N 	N 	0.56226 0.80374 0.95865 -0.04600
N 	N 	0.55476 0.77719 0.96084 -0.06100
C 	C 	0.54933 0.67333 0.98786 0.11400
N 	N 	0.53289 0.69328 0.96063 -0.07500
N 	N 	0.54027 0.71988 0.95864 -0.06300
C 	C 	0.56439 0.72726 0.98344 0.10100
N 	N 	0.58080 0.70732 0.01075 -0.06200
N 	N 	0.57335 0.68076 0.01302 -0.07400
