data_crystal

_cell_length_a 24.21206
_cell_length_b 22.71899
_cell_length_c 32.85473
_cell_angle_alpha 90.00000
_cell_angle_beta  90.00000
_cell_angle_gamma 113.84017

_symmetry_space_group_name_	'P 1'
_symmetry_space_group_name_H-M	'P 1'

loop_
_symmetry_equiv_pos_as_xyz
  x,y,z

loop_
_atom_site_label
_atom_site_type_symbol
_atom_site_fract_x
_atom_site_fract_y
_atom_site_fract_z
_atom_site_charge
Zn	Zn	0.94182 0.92980 0.97215 1.22000
Zn	Zn	0.05711 0.99860 0.90334 1.19300
C 	C 	0.02412 0.13000 0.05292 0.35500
Zn	Zn	0.04961 0.06327 0.98228 1.23100
Zn	Zn	0.95643 0.98973 0.05749 1.19300
H 	H 	0.97515 0.03617 0.92554 0.19300
C 	C 	0.13849 0.00985 0.97873 0.35700
O 	O 	0.87772 0.91363 0.06327 -0.43400
O 	O 	0.89516 0.85342 0.01312 -0.40500
O 	O 	0.99651 0.01237 0.93896 -0.78600
O 	O 	0.01788 0.90464 0.89005 -0.41900
O 	O 	0.87092 0.95280 0.97100 -0.42300
O 	O 	0.93883 0.86156 0.93431 -0.42000
O 	O 	0.91266 0.03409 0.01709 -0.40600
O 	O 	0.13051 0.08158 0.89956 -0.44000
H 	H 	0.02671 0.94949 0.02145 0.20400
O 	O 	0.09574 0.13979 0.94131 -0.38100
O 	O 	0.00353 0.97469 0.01298 -0.78800
O 	O 	0.01205 0.07833 0.07542 -0.41500
O 	O 	0.12706 0.05772 0.99306 -0.43700
O 	O 	0.03157 0.12834 0.01327 -0.41500
O 	O 	0.10186 0.96957 0.95216 -0.42400
C 	C 	0.86197 0.85886 0.04333 0.34300
C 	C 	0.98670 0.85959 0.91633 0.27600
C 	C 	0.86860 0.00125 0.99196 0.36100
C 	C 	0.13612 0.13709 0.91542 0.28800
Zn	Zn	0.04831 0.56477 0.01986 1.23100
Zn	Zn	0.95617 0.48845 0.94454 1.19400
C 	C 	0.99564 0.36147 0.08482 0.23200
Zn	Zn	0.94496 0.42759 0.02952 1.22200
Zn	Zn	0.05921 0.50097 0.09835 1.20000
H 	H 	0.03047 0.45262 0.97986 0.20100
C 	C 	0.86519 0.49081 0.00960 0.34100
O 	O 	0.13006 0.58556 0.10251 -0.45800
O 	O 	0.09272 0.64163 0.06101 -0.36200
O 	O 	0.00555 0.47571 0.98871 -0.77300
O 	O 	0.00761 0.57861 0.92715 -0.43600
O 	O 	0.12785 0.56377 0.00897 -0.40400
O 	O 	0.02684 0.62762 0.98969 -0.40000
O 	O 	0.10549 0.47518 0.04892 -0.42700
O 	O 	0.87915 0.40995 0.93919 -0.46300
H 	H 	0.97378 0.53283 0.07680 0.19200
O 	O 	0.90046 0.35067 0.98812 -0.38700
O 	O 	0.99681 0.51107 0.06311 -0.79900
O 	O 	0.02372 0.40702 0.11153 -0.40800
O 	O 	0.87131 0.44529 0.03163 -0.41700
O 	O 	0.94658 0.35961 0.06647 -0.40100
O 	O 	0.90943 0.52763 0.98587 -0.43300
C 	C 	0.13476 0.64026 0.08590 0.34700
C 	C 	0.01892 0.62964 0.95013 0.36300
C 	C 	0.14143 0.51704 0.02276 0.33700
C 	C 	0.86635 0.35479 0.95807 0.34800
Zn	Zn	0.44988 0.93475 0.01450 1.22300
Zn	Zn	0.54477 0.00980 0.93948 1.20200
C 	C 	0.50551 0.14002 0.08115 0.33900
Zn	Zn	0.55379 0.07129 0.02450 1.22700
Zn	Zn	0.44037 0.99983 0.09315 1.19400
H 	H 	0.47016 0.04632 0.97363 0.18400
C 	C 	0.63541 0.01039 0.00485 0.30700
O 	O 	0.36777 0.91681 0.09690 -0.44700
O 	O 	0.40318 0.85851 0.05574 -0.38500
O 	O 	0.49458 0.02300 0.98308 -0.77800
O 	O 	0.49377 0.91922 0.92253 -0.46800
O 	O 	0.37160 0.93875 0.00284 -0.41700
O 	O 	0.47047 0.87047 0.98516 -0.42500
O 	O 	0.39692 0.02757 0.04304 -0.37800
O 	O 	0.62202 0.08839 0.93429 -0.44400
H 	H 	0.52435 0.96588 0.07171 0.17900
O 	O 	0.59888 0.14713 0.98267 -0.39700
O 	O 	0.50164 0.98795 0.05799 -0.79800
O 	O 	0.47843 0.09341 0.10744 -0.42100
O 	O 	0.62737 0.05373 0.02797 -0.42600
O 	O 	0.55229 0.14085 0.06017 -0.43000
O 	O 	0.59119 0.97195 0.98172 -0.43400
C 	C 	0.36176 0.86143 0.08065 0.28800
C 	C 	0.48104 0.86836 0.94596 0.37100
C 	C 	0.35921 0.98566 0.01775 0.26900
C 	C 	0.63509 0.14279 0.95416 0.29000
Zn	Zn	0.55763 0.56817 0.97066 1.22300
Zn	Zn	0.44211 0.49938 0.90191 1.19600
C 	C 	0.47466 0.37099 0.05356 0.31100
Zn	Zn	0.44701 0.43673 0.98275 1.22400
Zn	Zn	0.54392 0.51094 0.05695 1.19700
H 	H 	0.52134 0.45933 0.92609 0.17600
C 	C 	0.36120 0.49420 0.97714 0.29900
O 	O 	0.62342 0.58559 0.06129 -0.45400
O 	O 	0.60595 0.64543 0.01087 -0.39700
O 	O 	0.50092 0.48472 0.93873 -0.78600
O 	O 	0.48338 0.59266 0.88753 -0.43800
O 	O 	0.62764 0.54368 0.96892 -0.42900
O 	O 	0.56115 0.63637 0.93256 -0.42500
O 	O 	0.58681 0.46551 0.01710 -0.41800
O 	O 	0.36767 0.41768 0.89769 -0.43500
H 	H 	0.47441 0.55190 0.02057 0.17900
O 	O 	0.39692 0.35930 0.94310 -0.40400
O 	O 	0.49655 0.52551 0.01234 -0.79200
O 	O 	0.48822 0.42330 0.07561 -0.45900
O 	O 	0.37169 0.44693 0.99350 -0.43000
O 	O 	0.46254 0.37054 0.01443 -0.42400
O 	O 	0.39822 0.53182 0.94966 -0.41600
C 	C 	0.63849 0.64040 0.04163 0.29200
C 	C 	0.51354 0.63783 0.91397 0.28600
C 	C 	0.63187 0.49925 0.99297 0.28600
C 	C 	0.35763 0.36312 0.91667 0.34000
C 	C 	0.48683 0.81103 0.92954 -0.14600
C 	C 	0.43687 0.75112 0.92927 0.21000
C 	C 	0.44538 0.69480 0.92131 -0.09000
C 	C 	0.50366 0.69761 0.91477 -0.02600
C 	C 	0.55289 0.75760 0.91299 -0.03600
C 	C 	0.54439 0.81406 0.91995 0.04000
H 	H 	0.40700 0.64871 0.92190 0.08600
H 	H 	0.58308 0.85994 0.91999 0.03000
Cl	Cl	0.36367 0.74579 0.93993 -0.30700
H 	H 	0.59796 0.76039 0.90728 0.06300
C 	C 	0.49676 0.20058 0.08485 -0.13100
C 	C 	0.43822 0.20021 0.08417 0.19900
C 	C 	0.43107 0.25733 0.07641 -0.07700
C 	C 	0.48171 0.31522 0.07113 -0.03800
C 	C 	0.53968 0.31676 0.07643 -0.03200
C 	C 	0.54724 0.25976 0.08314 0.03300
H 	H 	0.38611 0.25633 0.07340 0.08100
H 	H 	0.59245 0.26126 0.08522 0.04700
Cl	Cl	0.37355 0.12919 0.09309 -0.33700
H 	H 	0.57906 0.36162 0.07303 0.04800
C 	C 	0.80786 0.30060 0.95032 -0.13700
C 	C 	0.80362 0.23695 0.94718 0.20800
C 	C 	0.74677 0.18544 0.94583 -0.08300
C 	C 	0.69399 0.19682 0.94787 -0.02700
C 	C 	0.69837 0.26026 0.94893 -0.03800
C 	C 	0.75492 0.31182 0.94989 0.03500
H 	H 	0.74371 0.13653 0.94473 0.09200
H 	H 	0.75754 0.36046 0.95210 0.03500
Cl	Cl	0.86895 0.22096 0.94452 -0.32100
H 	H 	0.65790 0.26959 0.95019 0.05100
C 	C 	0.19295 0.69672 0.08834 -0.12900
C 	C 	0.19518 0.75882 0.09546 0.21100
C 	C 	0.25067 0.81227 0.09422 -0.08300
C 	C 	0.30427 0.80442 0.08584 -0.02100
C 	C 	0.30203 0.74237 0.07977 -0.03300
C 	C 	0.24678 0.68891 0.08106 0.04100
H 	H 	0.25185 0.85998 0.09889 0.09200
H 	H 	0.24561 0.64144 0.07531 0.03900
Cl	Cl	0.12916 0.77040 0.10686 -0.29800
H 	H 	0.34298 0.73554 0.07351 0.06100
C 	C 	0.80549 0.49343 0.00604 -0.14000
C 	C 	0.76877 0.48692 0.04051 0.20600
C 	C 	0.71100 0.48615 0.03580 -0.08700
C 	C 	0.69006 0.49362 0.99708 -0.03100
C 	C 	0.72692 0.50093 0.96296 -0.04000
C 	C 	0.78418 0.50067 0.96737 0.03200
H 	H 	0.68326 0.48207 0.06244 0.07300
H 	H 	0.81179 0.50533 0.94061 0.02100
Cl	Cl	0.79593 0.48442 0.08995 -0.34000
H 	H 	0.71122 0.50679 0.93297 0.04600
C 	C 	0.19869 0.51338 0.01085 -0.13400
C 	C 	0.22310 0.53130 0.97142 0.21700
C 	C 	0.27852 0.52929 0.96164 -0.06800
C 	C 	0.30799 0.50545 0.98978 -0.02300
C 	C 	0.28385 0.48790 0.02889 -0.03500
C 	C 	0.22987 0.49236 0.03946 0.03300
H 	H 	0.29688 0.54272 0.93130 0.09800
H 	H 	0.21213 0.47930 0.06997 0.02800
Cl	Cl	0.18250 0.55037 0.93279 -0.30200
H 	H 	0.30680 0.47057 0.05111 0.04700
C 	C 	0.80544 0.80347 0.05382 -0.13400
C 	C 	0.75035 0.81076 0.05752 0.20900
C 	C 	0.69556 0.75660 0.05599 -0.08500
C 	C 	0.69502 0.69504 0.05178 -0.02900
C 	C 	0.74957 0.68729 0.05216 -0.03400
C 	C 	0.80451 0.74122 0.05311 0.03400
H 	H 	0.65337 0.76258 0.05686 0.08100
H 	H 	0.84639 0.73474 0.05121 0.04100
Cl	Cl	0.74875 0.88704 0.06303 -0.33900
H 	H 	0.74952 0.63973 0.04940 0.05800
C 	C 	0.30059 0.30627 0.90950 -0.13500
C 	C 	0.24431 0.31156 0.90987 0.20800
C 	C 	0.19059 0.25600 0.90939 -0.08600
C 	C 	0.19204 0.19498 0.90855 -0.02400
C 	C 	0.24777 0.18983 0.90568 -0.03900
C 	C 	0.30168 0.24510 0.90636 0.03200
H 	H 	0.14765 0.26033 0.91079 0.09400
H 	H 	0.34440 0.24027 0.90555 0.03200
Cl	Cl	0.23990 0.38689 0.91280 -0.32300
H 	H 	0.24948 0.14293 0.90465 0.05300
C 	C 	0.81259 0.01282 0.99204 -0.09600
C 	C 	0.77146 0.99293 0.95923 0.19700
C 	C 	0.71314 0.99059 0.96401 -0.09600
C 	C 	0.69625 0.01093 0.00057 -0.00800
C 	C 	0.73894 0.03611 0.03167 -0.01800
C 	C 	0.79678 0.03747 0.02734 0.04500
H 	H 	0.68162 0.97484 0.93883 0.07400
H 	H 	0.82817 0.05437 0.05241 0.07100
Cl	Cl	0.79390 0.97709 0.91089 -0.33900
H 	H 	0.72698 0.05336 0.05963 0.06700
C 	C 	0.19429 0.00351 0.99061 -0.11300
C 	C 	0.19344 0.94347 0.00242 0.18500
C 	C 	0.24783 0.93727 0.00943 -0.06600
C 	C 	0.30293 0.99112 0.00651 -0.04500
C 	C 	0.30354 0.05119 0.99612 -0.00200
C 	C 	0.24953 0.05733 0.98812 0.02500
H 	H 	0.24712 0.89109 0.01849 0.09800
H 	H 	0.25063 0.10384 0.97955 0.04100
Cl	Cl	0.12476 0.87729 0.01206 -0.30600
H 	H 	0.34592 0.09313 0.99418 0.05100
C 	C 	0.01221 0.68594 0.93291 -0.10100
C 	C 	0.06258 0.74507 0.92922 0.20100
C 	C 	0.05414 0.80127 0.92068 -0.04300
C 	C 	0.99562 0.79922 0.91727 -0.05600
C 	C 	0.94571 0.73972 0.91875 -0.01600
C 	C 	0.95406 0.68331 0.92617 -0.00100
H 	H 	0.09295 0.84690 0.91865 0.08800
H 	H 	0.91504 0.63795 0.92879 0.03400
Cl	Cl	0.13630 0.74973 0.93667 -0.28200
H 	H 	0.90036 0.73734 0.91525 0.05400
C 	C 	0.02408 0.18916 0.07134 -0.11900
C 	C 	0.97326 0.18787 0.09311 0.20200
C 	C 	0.96505 0.24491 0.09886 -0.11300
C 	C 	0.00827 0.30352 0.08453 0.03500
C 	C 	0.06170 0.30563 0.06689 -0.06000
C 	C 	0.06947 0.24873 0.06016 0.04900
H 	H 	0.92461 0.24344 0.11383 0.09900
H 	H 	0.10936 0.25061 0.04426 0.03800
Cl	Cl	0.91942 0.11552 0.11310 -0.35100
H 	H 	0.09595 0.35097 0.05657 0.06200
