data_crystal

_cell_length_a 20.91740
_cell_length_b 17.48813
_cell_length_c 56.43293
_cell_angle_alpha 90.68837
_cell_angle_beta  91.51663
_cell_angle_gamma 111.11641

_symmetry_space_group_name_	'P 1'
_symmetry_space_group_name_H-M	'P 1'

loop_
_symmetry_equiv_pos_as_xyz
  x,y,z

loop_
_atom_site_label
_atom_site_type_symbol
_atom_site_fract_x
_atom_site_fract_y
_atom_site_fract_z
_atom_site_charge
Ni	Ni	0.05801 0.93643 0.68294 1.10000
O 	O 	0.07562 0.99281 0.75375 -0.37600
O 	O 	0.09781 0.18246 0.73415 -0.39500
O 	O 	0.06209 0.83571 0.66471 -0.37700
O 	O 	0.04750 0.03467 0.69994 -0.69500
O 	O 	0.11039 0.00974 0.65647 -0.36100
Ni	Ni	0.13324 0.12412 0.70837 1.07600
H 	H 	0.04916 0.87120 0.72259 0.15800
C 	C 	0.14110 0.03657 0.75188 0.30200
C 	C 	0.04812 0.14898 0.74932 0.30900
O 	O 	0.16923 0.62187 0.43967 -0.38400
C 	C 	0.15801 0.55369 0.45135 0.30600
O 	O 	0.11930 0.68527 0.98824 -0.36700
C 	C 	0.10462 0.66745 0.96523 0.29600
O 	O 	0.14902 0.65328 0.95121 -0.41500
O 	O 	0.02480 0.10968 0.25409 -0.35800
O 	O 	0.10152 0.19317 0.22905 -0.39900
Ni	Ni	0.04339 0.21818 0.20178 1.07800
O 	O 	0.09779 0.17456 0.17894 -0.37800
C 	C 	0.07406 0.10190 0.16843 0.27500
C 	C 	0.07861 0.17571 0.25053 0.28200
C 	C 	0.09980 0.35507 0.05031 -0.03300
C 	C 	0.04818 0.36923 0.06327 0.01000
C 	C 	0.01991 0.42584 0.05505 -0.03200
C 	C 	0.04664 0.47338 0.03532 0.01500
C 	C 	0.10257 0.46468 0.02364 -0.07400
C 	C 	0.02872 0.33187 0.08679 0.04600
C 	C 	0.07307 0.36319 0.10651 -0.06600
C 	C 	0.05513 0.33144 0.12910 0.04500
C 	C 	0.99107 0.26718 0.13221 -0.08900
C 	C 	0.10327 0.36493 0.14876 0.07900
C 	C 	0.01833 0.53355 0.02785 0.10100
N 	N 	0.14201 0.39192 0.16445 -0.11200
N 	N 	0.99540 0.58170 0.02200 -0.11700
H 	H 	0.97898 0.43532 0.06463 0.04000
H 	H 	0.12186 0.41253 0.10424 0.06100
C 	C 	0.14153 0.94124 0.14984 -0.04100
C 	C 	0.17444 0.97579 0.12900 0.02900
C 	C 	0.18955 0.05924 0.12495 -0.06300
C 	C 	0.16425 0.10562 0.13981 0.03400
C 	C 	0.12355 0.06810 0.15903 -0.08000
C 	C 	0.11710 0.98799 0.16495 0.01400
C 	C 	0.18428 0.92326 0.10978 0.02400
C 	C 	0.13077 0.88704 0.09303 -0.05900
C 	C 	0.14250 0.85055 0.07219 0.03000
C 	C 	0.08726 0.81757 0.05473 0.08600
C 	C 	0.13064 0.85719 0.15542 0.09200
C 	C 	0.17739 0.19037 0.13449 0.08700
N 	N 	0.04281 0.79117 0.04081 -0.10400
N 	N 	0.18827 0.25826 0.13010 -0.10400
N 	N 	0.12194 0.78983 0.15987 -0.11300
H 	H 	0.08909 0.96030 0.18045 0.01700
H 	H 	0.21752 0.08678 0.10941 0.05800
H 	H 	0.08069 0.89040 0.09579 0.06400
C 	C 	0.17884 0.29862 0.31439 0.02200
C 	C 	0.16944 0.34465 0.29534 -0.05600
C 	C 	0.14039 0.30582 0.27374 0.02600
C 	C 	0.12113 0.22004 0.27110 -0.07700
C 	C 	0.13635 0.17529 0.28947 0.01700
C 	C 	0.19290 0.33662 0.33841 0.02300
C 	C 	0.15207 0.37801 0.37449 0.01700
C 	C 	0.13841 0.33375 0.35299 -0.04100
C 	C 	0.06824 0.28682 0.34573 0.09600
N 	N 	0.01207 0.24919 0.33990 -0.10800
H 	H 	0.18139 0.41004 0.29777 0.05500
H 	H 	0.10998 0.37743 0.38542 0.04300
C 	C 	0.02259 0.71439 0.32125 0.03500
C 	C 	0.08883 0.72392 0.31424 -0.05900
C 	C 	0.12132 0.70663 0.35491 -0.08200
C 	C 	0.05362 0.69080 0.36160 0.01400
C 	C 	0.00410 0.69406 0.34484 -0.03000
H 	H 	0.10272 0.73784 0.29597 0.06100
H 	H 	0.04004 0.67838 0.37995 0.05000
C 	C 	0.04395 0.45334 0.43835 -0.02200
C 	C 	0.08653 0.50231 0.45662 -0.09800
C 	C 	0.06083 0.50018 0.47970 0.13500
H 	H 	0.06387 0.45431 0.42076 0.05500
N 	N 	0.09951 0.54988 0.49753 -0.20200
H 	H 	0.14743 0.59433 0.49451 0.10200
H 	H 	0.08063 0.54639 0.51461 0.09900
N 	N 	0.04943 0.88073 0.61365 -0.09200
H 	H 	0.19541 0.97001 0.62898 0.04800
C 	C 	0.05554 0.70977 0.63047 0.00800
N 	N 	0.13729 0.69093 0.57837 -0.11200
H 	H 	0.10757 0.75070 0.63481 0.05100
C 	C 	0.01768 0.62204 0.93204 -0.03300
C 	C 	0.03486 0.65459 0.95522 -0.08000
H 	H 	0.05778 0.62661 0.91974 0.05400
H 	H 	0.04325 0.76459 0.98892 0.11700
C 	C 	0.04704 0.19418 0.77128 -0.07700
C 	C 	0.05453 0.15964 0.79298 0.01200
H 	H 	0.07620 0.11185 0.79349 0.04700
C 	C 	0.23070 0.19403 0.77151 0.06000
N 	N 	0.22851 0.25469 0.76427 -0.11100
O 	O 	0.19097 0.09274 0.68283 -0.39500
O 	O 	0.16723 0.05752 0.73113 -0.41000
C 	C 	0.16924 0.06996 0.66077 0.27900
Ni	Ni	0.23630 0.65129 0.41283 1.09700
O 	O 	0.30626 0.67276 0.38647 -0.70300
Ni	Ni	0.39048 0.67475 0.40491 1.09800
O 	O 	0.16072 0.66290 0.39085 -0.36300
O 	O 	0.22953 0.78114 0.37459 -0.39700
O 	O 	0.19613 0.53047 0.40268 -0.38400
Ni	Ni	0.32826 0.78054 0.37229 1.07200
O 	O 	0.20923 0.53948 0.46241 -0.40800
O 	O 	0.34999 0.84044 0.40440 -0.41400
O 	O 	0.45382 0.69462 0.37691 -0.37000
O 	O 	0.32107 0.65519 0.43137 -0.70200
O 	O 	0.46529 0.65850 0.42642 -0.36000
O 	O 	0.39238 0.53631 0.43919 -0.39800
Ni	Ni	0.30151 0.55064 0.44813 1.06800
H 	H 	0.29280 0.62877 0.37409 0.15700
H 	H 	0.33494 0.70174 0.44294 0.15200
C 	C 	0.40777 0.85177 0.41605 0.29300
O 	O 	0.25842 0.46616 0.42158 -0.38400
C 	C 	0.17493 0.71376 0.37316 0.28400
C 	C 	0.23181 0.48274 0.40194 0.27600
C 	C 	0.45232 0.59613 0.44060 0.28500
O 	O 	0.43775 0.79736 0.41457 -0.36800
O 	O 	0.43014 0.80803 0.36622 -0.41000
Ni	Ni	0.35327 0.68752 0.99441 1.10200
O 	O 	0.26709 0.68946 0.97744 -0.70700
Ni	Ni	0.21537 0.71137 0.00436 1.10000
O 	O 	0.37606 0.62119 0.96806 -0.37800
O 	O 	0.26967 0.52090 0.96863 -0.41700
O 	O 	0.41369 0.79274 0.97773 -0.36600
Ni	Ni	0.20766 0.58873 0.96130 1.07200
O 	O 	0.45856 0.82574 0.02576 -0.40500
O 	O 	0.13566 0.52586 0.98552 -0.38800
O 	O 	0.30861 0.72697 0.02030 -0.70000
O 	O 	0.43790 0.69262 0.01350 -0.38000
O 	O 	0.18491 0.75563 0.03422 -0.35900
O 	O 	0.28071 0.87224 0.03434 -0.40400
Ni	Ni	0.36535 0.83895 0.02899 1.06800
H 	H 	0.27836 0.73564 0.96638 0.16500
H 	H 	0.30398 0.69185 0.03426 0.15800
C 	C 	0.14560 0.53102 0.00871 0.30300
O 	O 	0.36710 0.87753 0.99525 -0.41400
C 	C 	0.33438 0.54637 0.96255 0.28100
C 	C 	0.41073 0.86627 0.98075 0.30100
C 	C 	0.22598 0.82374 0.04494 0.27700
C 	C 	0.47022 0.75615 0.02765 0.28400
O 	O 	0.18669 0.59859 0.01916 -0.39600
C 	C 	0.12659 0.40272 0.03053 0.00600
C 	C 	0.12669 0.29331 0.05754 0.09100
N 	N 	0.14821 0.24383 0.06337 -0.11200
H 	H 	0.16881 0.39481 0.02135 0.03400
C 	C 	0.20853 0.84940 0.06815 -0.08500
C 	C 	0.26060 0.88038 0.08577 0.01100
C 	C 	0.24885 0.91740 0.10650 -0.04200
C 	C 	0.30357 0.95036 0.12416 0.09000
N 	N 	0.34738 0.97677 0.13832 -0.11300
H 	H 	0.31088 0.87761 0.08302 0.00900
C 	C 	0.16520 0.21419 0.31107 -0.03800
C 	C 	0.26074 0.38004 0.34617 -0.05900
C 	C 	0.27445 0.42406 0.36778 0.02000
C 	C 	0.21967 0.42548 0.38161 -0.08200
C 	C 	0.34469 0.46863 0.37544 0.04900
C 	C 	0.17849 0.16661 0.33002 0.09500
N 	N 	0.40100 0.50417 0.38158 -0.11800
N 	N 	0.18912 0.12854 0.34523 -0.11200
H 	H 	0.12354 0.10968 0.28722 0.04800
H 	H 	0.30270 0.38083 0.33515 0.05500
C 	C 	0.13800 0.71942 0.33087 0.02600
C 	C 	0.20537 0.72742 0.32311 0.04400
N 	N 	0.25932 0.73382 0.31691 -0.14000
C 	C 	0.41209 0.95782 0.44632 -0.04700
C 	C 	0.44448 0.93148 0.42823 -0.09300
N 	N 	0.41536 0.05311 0.47744 -0.20300
H 	H 	0.35899 0.92262 0.44993 0.04600
H 	H 	0.36430 0.01872 0.48093 0.09500
C 	C 	0.56332 0.57549 0.43877 -0.03600
C 	C 	0.51004 0.58092 0.45246 -0.08300
H 	H 	0.56741 0.59546 0.42057 0.06300
C 	C 	0.27420 0.05533 0.60858 -0.03400
C 	C 	0.31598 0.13812 0.60572 0.02000
C 	C 	0.30805 0.19897 0.62049 -0.05600
C 	C 	0.25963 0.17778 0.63833 0.02400
C 	C 	0.21893 0.09462 0.64157 -0.07400
C 	C 	0.22630 0.03401 0.62650 0.01700
C 	C 	0.36990 0.16117 0.58781 0.02300
C 	C 	0.35433 0.18111 0.56491 -0.06000
C 	C 	0.40244 0.19523 0.54707 0.02900
C 	C 	0.46709 0.18985 0.55223 -0.08400
C 	C 	0.48312 0.17174 0.57526 0.00600
C 	C 	0.43511 0.15781 0.59308 -0.04000
C 	C 	0.38435 0.21286 0.52342 0.07800
C 	C 	0.45276 0.13906 0.61666 0.09000
C 	C 	0.28062 0.99179 0.59330 0.08900
C 	C 	0.25097 0.24180 0.65282 0.06200
N 	N 	0.36988 0.22700 0.50448 -0.10700
N 	N 	0.46683 0.12401 0.63556 -0.11300
N 	N 	0.24404 0.29309 0.66443 -0.12300
N 	N 	0.28579 0.94091 0.58106 -0.11300
H 	H 	0.33983 0.26275 0.61817 0.05400
H 	H 	0.30419 0.18377 0.56086 0.05600
C 	C 	0.46205 0.93751 0.96947 -0.08500
C 	C 	0.49533 0.01334 0.98195 0.11000
N 	N 	0.48724 0.02136 0.00558 -0.19300
H 	H 	0.50683 0.07910 0.01398 0.08400
H 	H 	0.46760 0.97049 0.01621 0.06300
C 	C 	0.42788 0.39976 0.95888 -0.03800
C 	C 	0.36273 0.48850 0.95212 -0.09400
C 	C 	0.37952 0.43234 0.96656 0.11100
N 	N 	0.35092 0.41123 0.98802 -0.20100
H 	H 	0.44321 0.35958 0.97032 0.05400
H 	H 	0.36549 0.37194 0.99890 0.09000
H 	H 	0.31272 0.43150 0.99385 0.09700
C 	C 	0.24031 0.97337 0.79943 -0.04500
C 	C 	0.28739 0.05014 0.80740 0.02800
C 	C 	0.28319 0.12227 0.79822 -0.05900
C 	C 	0.23386 0.11862 0.78066 0.02700
C 	C 	0.18791 0.04185 0.77214 -0.08200
C 	C 	0.19064 0.96959 0.78189 0.01600
C 	C 	0.34159 0.05628 0.82533 0.02100
C 	C 	0.40771 0.06753 0.81785 -0.05800
C 	C 	0.46402 0.09788 0.83376 0.02200
C 	C 	0.45387 0.11650 0.85739 -0.08100
C 	C 	0.38709 0.09665 0.86543 0.01600
C 	C 	0.33090 0.06659 0.84951 -0.04000
C 	C 	0.26259 0.04969 0.85788 0.09500
C 	C 	0.24302 0.89838 0.80904 0.09400
N 	N 	0.20783 0.03615 0.86455 -0.10900
N 	N 	0.24521 0.83833 0.81675 -0.11600
H 	H 	0.15533 0.91048 0.77533 0.04100
H 	H 	0.31888 0.18134 0.80467 0.05600
H 	H 	0.41567 0.05737 0.79933 0.05600
H 	H 	0.37916 0.10776 0.88388 0.04800
O 	O 	0.01241 0.07485 0.15859 -0.36700
C 	C 	0.12737 0.35382 0.25483 0.05700
C 	C 	0.44832 0.02802 0.46026 0.11200
H 	H 	0.43882 0.10852 0.48673 0.11800
C 	C 	0.09418 0.68089 0.59175 0.09200
O 	O 	0.00134 0.26614 0.17539 -0.38300
C 	C 	0.38813 0.50292 0.92917 -0.04000
C 	C 	0.04035 0.66836 0.60844 -0.01900
H 	H 	0.37331 0.54368 0.91779 0.03900
N 	N 	0.11693 0.39224 0.23969 -0.12600
C 	C 	0.48010 0.92847 0.94614 -0.04000
H 	H 	0.45676 0.86990 0.93684 0.05300
H 	H 	0.66344 0.55373 0.41674 0.08900
H 	H 	0.52569 0.92515 0.90388 0.08800
Ni	Ni	0.58517 0.29683 0.90719 1.10100
O 	O 	0.51199 0.23242 0.88275 -0.37500
O 	O 	0.51065 0.33086 0.92229 -0.36400
O 	O 	0.57581 0.43986 0.94567 -0.40600
C 	C 	0.58843 0.14685 0.93270 0.30400
C 	C 	0.51209 0.16335 0.87308 0.28700
C 	C 	0.52063 0.40285 0.93225 0.29700
O 	O 	0.55386 0.19512 0.92833 -0.36700
O 	O 	0.55059 0.12491 0.88238 -0.40300
O 	O 	0.58972 0.37122 0.48162 -0.37000
O 	O 	0.55876 0.20046 0.47809 -0.37000
O 	O 	0.52562 0.13312 0.52487 -0.40900
O 	O 	0.54110 0.26964 0.52240 -0.37200
C 	C 	0.63005 0.44748 0.47851 0.28300
C 	C 	0.56333 0.12812 0.47450 0.30200
C 	C 	0.51716 0.19945 0.53356 0.27700
C 	C 	0.46029 0.75462 0.36212 0.28500
C 	C 	0.58457 0.70457 0.07185 -0.04100
C 	C 	0.59584 0.82287 0.03751 0.02700
C 	C 	0.53282 0.75781 0.04030 -0.08200
C 	C 	0.52913 0.69584 0.05631 0.00700
C 	C 	0.57967 0.64154 0.08876 0.08800
C 	C 	0.60489 0.87922 0.01826 0.08100
N 	N 	0.53901 0.83904 0.11250 -0.12000
N 	N 	0.61216 0.92432 0.00284 -0.10700
N 	N 	0.57577 0.59108 0.10232 -0.11600
H 	H 	0.48206 0.64295 0.05742 0.03300
C 	C 	0.56026 0.81162 0.30617 -0.03800
C 	C 	0.58684 0.80750 0.35513 0.02700
C 	C 	0.51847 0.77864 0.34603 -0.07700
C 	C 	0.50573 0.78090 0.32157 0.00600
C 	C 	0.54583 0.81263 0.28103 0.09100
N 	N 	0.53435 0.81347 0.26088 -0.11200
H 	H 	0.45329 0.75948 0.31456 0.03000
C 	C 	0.51283 0.97983 0.42273 0.11400
C 	C 	0.54962 0.04814 0.43719 -0.04100
C 	C 	0.51884 0.07106 0.45636 -0.09700
H 	H 	0.60303 0.08261 0.43380 0.04400
N 	N 	0.54283 0.96217 0.40340 -0.20000
H 	H 	0.51435 0.92011 0.39041 0.11300
H 	H 	0.59460 0.99470 0.40042 0.09300
C 	C 	0.55134 0.52159 0.48557 -0.03400
C 	C 	0.59946 0.50740 0.47103 -0.08800
C 	C 	0.60832 0.53891 0.44786 0.10400
C 	C 	0.50692 0.55897 0.47655 0.10100
N 	N 	0.46148 0.57359 0.49106 -0.19700
H 	H 	0.54647 0.50033 0.50364 0.05100
N 	N 	0.65857 0.53240 0.43407 -0.19500
H 	H 	0.45771 0.55452 0.50862 0.08500
H 	H 	0.43145 0.60671 0.48533 0.05700
H 	H 	0.69426 0.50812 0.44055 0.05300
H 	H 	0.53290 0.16793 0.57926 0.01700
C 	C 	0.53950 0.08058 0.96985 -0.03500
C 	C 	0.55597 0.07201 0.94633 -0.09200
C 	C 	0.52901 0.99383 0.93482 0.11300
H 	H 	0.56123 0.13995 0.97883 0.04500
N 	N 	0.55013 0.98082 0.91306 -0.19300
H 	H 	0.59397 0.02270 0.90587 0.06700
C 	C 	0.45953 0.42239 0.93715 -0.08700
C 	C 	0.43681 0.47060 0.92155 0.10400
N 	N 	0.46227 0.48726 0.89948 -0.20000
H 	H 	0.49654 0.46161 0.89301 0.08900
H 	H 	0.44656 0.52485 0.88831 0.08900
C 	C 	0.53222 0.11335 0.82547 0.05400
N 	N 	0.58687 0.12577 0.81884 -0.12400
Ni	Ni	0.62196 0.29211 0.50078 1.10000
O 	O 	0.66374 0.28882 0.88935 -0.71000
Ni	Ni	0.65505 0.17422 0.88721 1.07000
O 	O 	0.64729 0.15977 0.92292 -0.41600
O 	O 	0.66535 0.35784 0.93049 -0.70000
H 	H 	0.66370 0.31099 0.87335 0.16600
H 	H 	0.66442 0.32975 0.94568 0.16500
O 	O 	0.65424 0.48044 0.89960 -0.42700
O 	O 	0.69514 0.47260 0.48530 -0.40900
O 	O 	0.67346 0.23760 0.52048 -0.69800
Ni	Ni	0.61905 0.12120 0.52196 1.06900
H 	H 	0.68173 0.26203 0.53671 0.15900
O 	O 	0.60858 0.10696 0.48631 -0.41800
C 	C 	0.64302 0.77703 0.07182 0.02000
C 	C 	0.65063 0.83231 0.05340 -0.06100
C 	C 	0.59413 0.83833 0.11270 0.09200
C 	C 	0.62849 0.84118 0.31529 0.02100
C 	C 	0.64132 0.83860 0.33973 -0.05800
C 	C 	0.60150 0.80709 0.38029 0.08000
N 	N 	0.61319 0.80673 0.40044 -0.10300
N 	N 	0.60878 0.61899 0.77733 -0.11400
Ni	Ni	0.74407 0.35857 0.91065 1.09800
O 	O 	0.76006 0.19875 0.89133 -0.40400
O 	O 	0.75133 0.45739 0.88970 -0.37100
Ni	Ni	0.67605 0.47344 0.93481 1.06800
C 	C 	0.69905 0.47943 0.88364 0.27300
O 	O 	0.70575 0.30664 0.48077 -0.70100
Ni	Ni	0.76073 0.41843 0.47174 1.07000
O 	O 	0.70358 0.08635 0.51943 -0.40800
H 	H 	0.69245 0.27066 0.46641 0.15700
C 	C 	0.68657 0.80482 0.09346 0.02200
C 	C 	0.70705 0.87159 0.13233 0.01300
C 	C 	0.66297 0.83740 0.11291 -0.04100
H 	H 	0.69741 0.88571 0.05251 0.05500
H 	H 	0.68906 0.89754 0.14715 0.04500
C 	C 	0.68697 0.87259 0.29921 0.02400
C 	C 	0.70852 0.95423 0.29193 -0.05900
C 	C 	0.71849 0.82001 0.29014 -0.03900
C 	C 	0.69907 0.73667 0.29803 0.09200
N 	N 	0.68351 0.66992 0.30436 -0.11300
H 	H 	0.69377 0.86084 0.34674 0.05500
H 	H 	0.68493 0.99507 0.29914 0.05600
C 	C 	0.72208 0.87991 0.61562 0.09000
N 	N 	0.66606 0.87752 0.61551 -0.11800
H 	H 	0.77748 0.16120 0.84420 0.02100
C 	C 	0.70928 0.65123 0.84222 -0.04000
C 	C 	0.72696 0.49944 0.84036 0.02200
C 	C 	0.70196 0.52374 0.86114 -0.08000
C 	C 	0.69006 0.59796 0.86136 0.00900
C 	C 	0.66708 0.65459 0.78007 0.09100
C 	C 	0.69959 0.72886 0.84330 0.09100
C 	C 	0.73622 0.42161 0.83870 0.06300
N 	N 	0.74416 0.35961 0.83708 -0.12500
N 	N 	0.69184 0.79108 0.84414 -0.11600
H 	H 	0.66944 0.61639 0.87694 0.03800
C 	C 	0.01664 0.76063 0.66674 0.30200
C 	C 	0.73942 0.62956 0.82242 0.02100
C 	C 	0.73981 0.69899 0.78351 -0.04100
Ni	Ni	0.76300 0.26561 0.50266 1.09900
C 	C 	0.75398 0.80617 0.09381 -0.05900
O 	O 	0.81409 0.33753 0.88941 -0.36500
O 	O 	0.77872 0.53467 0.93023 -0.40800
O 	O 	0.82100 0.43154 0.93262 -0.38900
C 	C 	0.80676 0.26306 0.88216 0.28800
O 	O 	0.83091 0.47167 0.49909 -0.39600
O 	O 	0.79903 0.20082 0.52635 -0.35600
C 	C 	0.76126 0.12477 0.53141 0.27500
O 	O 	0.79668 0.36570 0.52497 -0.39500
O 	O 	0.79933 0.89921 0.17403 -0.40800
C 	C 	0.79847 0.84145 0.11318 0.02300
C 	C 	0.77502 0.87523 0.13243 -0.08400
H 	H 	0.77204 0.78111 0.07883 0.05300
C 	C 	0.75858 0.98246 0.27476 0.03700
C 	C 	0.78771 0.92849 0.26481 -0.07900
C 	C 	0.76810 0.84794 0.27290 0.01000
C 	C 	0.77778 0.06577 0.26686 0.07700
H 	H 	0.79001 0.80616 0.26522 0.03200
C 	C 	0.78887 0.07765 0.54746 -0.07600
C 	C 	0.78653 0.99973 0.54001 0.00400
C 	C 	0.81761 0.85132 0.63496 0.01500
C 	C 	0.79199 0.88294 0.61574 -0.04400
C 	C 	0.79401 0.86562 0.54833 0.09000
N 	N 	0.78953 0.80061 0.54204 -0.11300
H 	H 	0.77250 0.97949 0.52172 0.04400
H 	H 	0.78579 0.82826 0.65006 0.04500
C 	C 	0.83183 0.19722 0.84623 0.01600
N 	N 	0.82916 0.08996 0.79306 -0.11000
C 	C 	0.74484 0.55216 0.82116 -0.05800
C 	C 	0.77438 0.69127 0.80463 0.02200
C 	C 	0.77629 0.74992 0.76558 0.00900
H 	H 	0.76627 0.53458 0.80563 0.05200
H 	H 	0.74949 0.75582 0.74938 0.04500
C 	C 	0.85023 0.13503 0.80903 0.09500
C 	C 	0.83958 0.43778 0.51908 0.30500
C 	C 	0.82776 0.50802 0.93694 0.29600
O 	O 	0.83068 0.37893 0.45689 -0.41700
O 	O 	0.80490 0.91542 0.22350 -0.39900
N 	N 	0.79315 0.13252 0.26053 -0.11100
C 	C 	0.79961 0.94676 0.55620 -0.03800
C 	C 	0.81669 0.97235 0.58005 0.01500
C 	C 	0.82159 0.05132 0.58733 -0.05200
C 	C 	0.80749 0.10391 0.57123 0.01700
C 	C 	0.80990 0.18352 0.57944 0.07000
N 	N 	0.81178 0.24726 0.58601 -0.11300
H 	H 	0.86409 0.59742 0.52873 0.04500
C 	C 	0.85633 0.25120 0.86576 -0.08600
O 	O 	0.85631 0.30226 0.48611 -0.37300
C 	C 	0.87600 0.35985 0.46990 0.29100
O 	O 	0.86895 0.81942 0.72671 -0.40600
C 	C 	0.88559 0.84385 0.74890 0.27700
Ni	Ni	0.85810 0.87288 0.20057 1.07100
C 	C 	0.83087 0.95098 0.24382 0.29900
C 	C 	0.82114 0.91592 0.15245 0.28000
C 	C 	0.86781 0.84224 0.11328 0.06600
C 	C 	0.83535 0.91972 0.59711 0.02500
C 	C 	0.88646 0.85747 0.63582 -0.08500
H 	H 	0.83610 0.07158 0.60560 0.05300
C 	C 	0.88692 0.48998 0.53760 -0.08800
C 	C 	0.89013 0.57082 0.54119 0.01400
N 	N 	0.83813 0.61991 0.67085 -0.12700
H 	H 	0.86954 0.56235 0.61477 0.05300
H 	H 	0.87307 0.60839 0.97543 0.04000
H 	H 	0.88276 0.52653 0.89582 0.11600
C 	C 	0.87667 0.19133 0.82895 -0.04600
C 	C 	0.84473 0.73606 0.80778 -0.06200
C 	C 	0.88156 0.78575 0.78978 0.02700
C 	C 	0.84729 0.79293 0.76842 -0.08700
H 	H 	0.87134 0.72984 0.82399 0.05500
C 	C 	0.00316 0.70209 0.64641 -0.06400
O 	O 	0.88925 0.80859 0.67536 -0.38900
O 	O 	0.87462 0.98200 0.14862 -0.36500
C 	C 	0.90055 0.91487 0.59642 -0.05800
C 	C 	0.88180 0.63163 0.65761 0.06900
C 	C 	0.92654 0.69907 0.56471 0.09500
N 	N 	0.92882 0.76574 0.56723 -0.11500
C 	C 	0.89724 0.56838 0.94163 -0.09000
C 	C 	0.92737 0.29710 0.86852 0.03700
O 	O 	0.90147 0.82424 0.22642 -0.41400
N 	N 	0.87898 0.66372 0.35770 -0.11400
O 	O 	0.93274 0.91619 0.75384 -0.36200
C 	C 	0.92117 0.86063 0.65906 0.30000
O 	O 	0.88585 0.01821 0.24444 -0.37700
N 	N 	0.88170 0.20769 0.05354 -0.11900
H 	H 	0.89063 0.30519 0.42835 0.09700
C 	C 	0.92366 0.61592 0.56142 -0.04600
C 	C 	0.91354 0.61125 0.96346 -0.04400
C 	C 	0.94695 0.24032 0.83107 0.03200
C 	C 	0.95519 0.34641 0.88971 0.07200
C 	C 	0.97716 0.73827 0.30477 0.01000
H 	H 	0.95689 0.35302 0.40801 0.08800
C 	C 	0.92398 0.45747 0.55324 0.02800
Ni	Ni	0.93515 0.78535 0.70592 1.07000
H 	H 	0.89696 0.18849 0.11439 0.04800
N 	N 	0.92335 0.84294 0.11336 -0.11600
C 	C 	0.92601 0.88294 0.61548 0.03400
C 	C 	0.92140 0.60376 0.61915 -0.04600
C 	C 	0.93187 0.38050 0.54782 0.07200
N 	N 	0.93341 0.55093 0.90226 -0.19800
C 	C 	0.97203 0.29222 0.85098 -0.08100
C 	C 	0.91871 0.23476 0.06966 0.09300
N 	N 	0.93495 0.99218 0.29792 -0.10000
Ni	Ni	0.92460 0.06178 0.17579 1.09400
O 	O 	0.91916 0.15702 0.15636 -0.37800
H 	H 	0.92499 0.13914 0.21358 0.16100
C 	C 	0.93445 0.86291 0.24605 0.29000
C 	C 	0.93420 0.81380 0.26720 -0.08200
H 	H 	0.91887 0.70198 0.24719 0.04200
H 	H 	0.97345 0.44719 0.50156 0.05700
H 	H 	0.93284 0.93990 0.58155 0.06000
C 	C 	0.93612 0.64582 0.64103 0.00600
N 	N 	0.93861 0.31905 0.54349 -0.10000
C 	C 	0.94912 0.57980 0.92498 0.10800
N 	N 	0.97752 0.38585 0.90668 -0.11300
H 	H 	0.97293 0.32697 0.79090 0.05400
C 	C 	0.95500 0.82577 0.79294 0.05600
C 	C 	0.94024 0.92945 0.29437 0.07400
O 	O 	0.97012 0.92940 0.66528 -0.40200
O 	O 	0.93861 0.97178 0.19582 -0.70100
C 	C 	0.93249 0.73313 0.26435 0.00900
C 	C 	0.95008 0.40102 0.46559 -0.07900
C 	C 	0.95335 0.57953 0.57849 0.02700
C 	C 	0.95595 0.50186 0.57381 -0.06400
C 	C 	0.99437 0.23733 0.81240 0.00600
O 	O 	0.99229 0.08650 0.74301 -0.39300
C 	C 	0.93464 0.67720 0.35199 0.07700
C 	C 	0.94707 0.85118 0.29004 0.02400
C 	C 	0.94623 0.23712 0.11235 0.02000
H 	H 	0.97230 0.55626 0.89042 0.09200
H 	H 	0.95699 0.71787 0.99852 0.09900
C 	C 	0.99620 0.28068 0.79152 -0.06800
N 	N 	0.03552 0.10837 0.85299 -0.10500
N 	N 	0.93800 0.35040 0.42507 -0.19600
Ni	Ni	0.99892 0.98314 0.72892 1.09400
C 	C 	0.95365 0.69510 0.28310 -0.03800
O 	O 	0.96066 0.12134 0.20679 -0.71000
C 	C 	0.99333 0.44805 0.48402 -0.06500
C 	C 	0.97250 0.61689 0.60250 0.00200
C 	C 	0.98202 0.65952 0.96960 0.10700
C 	C 	0.02805 0.18064 0.81355 -0.02100
C 	C 	0.03221 0.14052 0.83544 0.09600
C 	C 	0.96494 0.26860 0.08976 -0.06100
C 	C 	0.96893 0.81346 0.30864 -0.05300
C 	C 	0.95343 0.61302 0.27974 0.08600
C 	C 	0.99446 0.88141 0.61462 0.06300
O 	O 	0.99181 0.73374 0.68755 -0.42200
Ni	Ni	0.97421 0.03105 0.22681 1.09100
H 	H 	0.97477 0.95485 0.18909 0.14700
H 	H 	0.98129 0.47517 0.58649 0.05500
C 	C 	0.02227 0.25921 0.77091 0.04400
H 	H 	0.02637 0.32836 0.85289 0.06700
C 	C 	0.01990 0.30099 0.74917 0.07900
N 	N 	0.01379 0.85777 0.79554 -0.09500
C 	C 	0.97285 0.22600 0.15549 0.28200
N 	N 	0.99580 0.71657 0.98742 -0.20000
N 	N 	0.01800 0.33446 0.73175 -0.10700
O 	O 	0.01479 0.88574 0.71314 -0.69200
H 	H 	0.01776 0.05699 0.69060 0.16800
H 	H 	0.98395 0.84508 0.32570 0.05400
O 	O 	0.98374 0.93573 0.24509 -0.38500
N 	N 	0.95330 0.54725 0.27707 -0.11600
C 	C 	0.97636 0.40145 0.44269 0.09200
