data_crystal

_cell_length_a 38.50559
_cell_length_b 38.33526
_cell_length_c 20.21736
_cell_angle_alpha 90.34552
_cell_angle_beta  90.34578
_cell_angle_gamma 120.00394

_symmetry_space_group_name_	'P 1'
_symmetry_space_group_name_H-M	'P 1'

loop_
_symmetry_equiv_pos_as_xyz
  x,y,z

loop_
_atom_site_label
_atom_site_type_symbol
_atom_site_fract_x
_atom_site_fract_y
_atom_site_fract_z
_atom_site_charge
C 	C 	0.06562 0.31833 0.10619 -0.07700
C 	C 	0.06075 0.34236 0.05805 0.15200
C 	C 	0.02753 0.32489 0.01515 -0.07600
C 	C 	0.03705 0.27702 0.10936 -0.00600
H 	H 	0.02367 0.34338 0.97881 0.09100
H 	H 	0.04074 0.25804 0.14489 0.07800
C 	C 	0.02886 0.29915 0.51152 -0.07900
C 	C 	0.06578 0.31673 0.47941 0.15400
C 	C 	0.06695 0.31315 0.41009 -0.08100
C 	C 	0.03107 0.29109 0.37404 -0.01200
H 	H 	0.02804 0.30197 0.56479 0.09500
H 	H 	0.03185 0.28808 0.32079 0.07300
C 	C 	0.06501 0.71221 0.44564 0.15600
C 	C 	0.03076 0.69621 0.48503 -0.07800
C 	C 	0.01043 0.71762 0.49488 0.02700
C 	C 	0.02569 0.75619 0.46748 0.09000
C 	C 	0.05877 0.77131 0.42570 -0.00000
H 	H 	0.01982 0.66706 0.50773 0.09300
H 	H 	0.00210 0.70532 0.62635 0.09200
Br	Br	0.00219 0.78890 0.48759 -0.17400
C 	C 	0.02874 0.71849 0.13522 0.15100
C 	C 	0.06703 0.74392 0.10913 -0.09000
C 	C 	0.03790 0.73395 0.99892 0.08200
Br	Br	0.02130 0.70873 0.22846 -0.17000
Br	Br	0.04476 0.74704 0.90662 -0.16300
C 	C 	0.00407 0.25981 0.06618 0.08700
H 	H 	0.06962 0.80043 0.40292 0.06900
C 	C 	0.07146 0.75096 0.04092 0.00300
Br	Br	0.07333 0.43345 0.20018 -0.17900
Br	Br	0.07577 0.64892 0.26331 -0.16300
C 	C 	0.07811 0.74918 0.41352 -0.08800
H 	H 	0.08415 0.57668 0.28295 0.09300
C 	C 	0.99959 0.70839 0.02492 0.03600
H 	H 	0.09417 0.51952 0.19426 0.09300
Br	Br	0.09382 0.68354 0.43758 -0.17800
O 	O 	0.09773 0.31515 0.20718 -0.37400
Br	Br	0.09819 0.39900 0.04985 -0.17600
C 	C 	0.10070 0.33530 0.15208 0.31200
H 	H 	0.10097 0.77023 0.02068 0.08100
C 	C 	0.10530 0.33275 0.37490 0.30800
C 	C 	0.10238 0.76407 0.15259 0.33400
O 	O 	0.10487 0.77357 0.30618 -0.36600
C 	C 	0.11108 0.76450 0.36592 0.33600
O 	O 	0.11778 0.30967 0.34603 -0.34900
Br	Br	0.11417 0.34386 0.53160 -0.17500
O 	O 	0.11343 0.80039 0.17524 -0.35600
C 	C 	0.11556 0.48250 0.23804 0.15000
C 	C 	0.11406 0.51806 0.23088 -0.07500
C 	C 	0.11327 0.60030 0.26695 -0.07800
C 	C 	0.12024 0.63957 0.25926 0.15300
O 	O 	0.12980 0.37202 0.38406 -0.34400
O 	O 	0.12720 0.75006 0.15493 -0.35600
O 	O 	0.13625 0.36363 0.12987 -0.34200
H 	H 	0.13832 0.37528 0.26792 0.16100
C 	C 	0.13829 0.55171 0.27103 0.02500
Ni	Ni	0.14578 0.32053 0.25624 1.12600
Br	Br	0.15017 0.27118 0.46961 -0.17500
C 	C 	0.14439 0.48215 0.28095 -0.07600
C 	C 	0.14381 0.59150 0.25391 0.02800
Ni	Ni	0.14533 0.82367 0.26064 1.12800
O 	O 	0.14770 0.77630 0.38736 -0.36100
O 	O 	0.15373 0.43522 0.21266 -0.33700
Br	Br	0.15120 0.86627 0.01202 -0.18500
C 	C 	0.15823 0.45262 0.27196 0.30500
Br	Br	0.15847 0.30947 0.01022 -0.18700
C 	C 	0.16039 0.54800 0.32342 0.09500
O 	O 	0.16003 0.72754 0.29682 -0.34900
O 	O 	0.16853 0.31764 0.16795 -0.36200
O 	O 	0.16433 0.37630 0.26516 -0.72300
C 	C 	0.16394 0.51359 0.32759 -0.00600
C 	C 	0.15888 0.67077 0.24272 -0.09000
C 	C 	0.16892 0.71320 0.24433 0.32800
O 	O 	0.17031 0.85344 0.34752 -0.35600
Ni	Ni	0.18730 0.40201 0.34577 1.12100
Ni	Ni	0.18312 0.40569 0.18573 1.13000
O 	O 	0.18354 0.45242 0.31698 -0.35000
H 	H 	0.18322 0.51210 0.36534 0.08600
C 	C 	0.18068 0.62172 0.22891 0.08900
O 	O 	0.18681 0.83474 0.11960 -0.34700
O 	O 	0.18134 0.87231 0.20542 -0.34800
O 	O 	0.18378 0.80708 0.25049 -0.72000
O 	O 	0.19454 0.35781 0.39262 -0.34400
O 	O 	0.19574 0.32505 0.29873 -0.37400
Br	Br	0.18691 0.59019 0.38834 -0.17200
C 	C 	0.18847 0.66135 0.22532 -0.00500
Ni	Ni	0.18853 0.78743 0.16813 1.11900
C 	C 	0.19599 0.86996 0.14720 0.30800
Ni	Ni	0.19369 0.78570 0.32815 1.12900
O 	O 	0.19189 0.73750 0.19809 -0.36400
C 	C 	0.20482 0.33425 0.36146 0.32800
C 	C 	0.20425 0.34496 0.14721 0.32900
C 	C 	0.20548 0.28978 0.45064 0.15200
C 	C 	0.20168 0.90898 0.04502 0.15100
H 	H 	0.21112 0.25504 0.52878 0.09200
C 	C 	0.20822 0.31430 0.03990 0.15800
H 	H 	0.21355 0.28464 0.95304 0.09400
H 	H 	0.21045 0.94592 0.96011 0.09300
Br	Br	0.20343 0.94207 0.31014 -0.20100
C 	C 	0.20792 0.86626 0.36759 0.30400
H 	H 	0.20830 0.83370 0.25028 0.16100
O 	O 	0.21862 0.38340 0.16047 -0.37400
C 	C 	0.22607 0.27528 0.48815 -0.07900
C 	C 	0.21683 0.90656 0.10746 -0.08300
C 	C 	0.22494 0.31637 0.39818 -0.09400
C 	C 	0.22577 0.33293 0.10097 -0.09500
C 	C 	0.22758 0.29983 0.99920 -0.08800
C 	C 	0.22221 0.94408 0.00800 -0.07700
H 	H 	0.21773 0.68492 0.20971 0.07800
Br	Br	0.22056 0.60931 0.19899 -0.16600
O 	O 	0.22357 0.84213 0.36549 -0.35600
O 	O 	0.23301 0.45551 0.22105 -0.35000
H 	H 	0.23233 0.03181 0.03163 0.09700
C 	C 	0.22646 0.93815 0.39223 0.14800
Br	Br	0.24517 0.10478 0.96159 -0.19000
C 	C 	0.22859 0.90344 0.40848 -0.07900
H 	H 	0.23617 0.98049 0.60859 0.09500
O 	O 	0.24566 0.42816 0.31154 -0.36600
Br	Br	0.23964 0.21647 0.06814 -0.16800
C 	C 	0.24350 0.97162 0.43478 -0.07500
H 	H 	0.24123 0.99793 0.42269 0.09700
O 	O 	0.24427 0.78969 0.28749 -0.35200
C 	C 	0.25686 0.97748 0.03363 0.03000
C 	C 	0.25171 0.93988 0.13286 -0.00600
C 	C 	0.25779 0.03998 0.99984 -0.08200
C 	C 	0.24978 0.90388 0.46568 -0.00600
Br	Br	0.25445 0.03822 0.71873 -0.19800
O 	O 	0.25011 0.81924 0.18528 -0.35900
C 	C 	0.25843 0.45480 0.26406 0.32400
H 	H 	0.26382 0.21602 0.45554 0.09300
C 	C 	0.26578 0.28652 0.47322 0.02700
C 	C 	0.26436 0.32687 0.38220 -0.00300
C 	C 	0.26450 0.30401 0.01855 0.03500
C 	C 	0.26366 0.33894 0.11873 -0.00100
H 	H 	0.25179 0.87755 0.47856 0.08600
C 	C 	0.26327 0.00755 0.59417 -0.07600
H 	H 	0.26322 0.93827 0.18112 0.07900
C 	C 	0.27211 0.07410 0.96032 0.15500
C 	C 	0.26444 0.97185 0.49182 0.02800
Br	Br	0.26666 0.54207 0.27129 -0.17800
C 	C 	0.26670 0.81508 0.24039 0.30700
C 	C 	0.28107 0.23238 0.49895 -0.07900
H 	H 	0.27927 0.34699 0.34142 0.07300
C 	C 	0.28312 0.32465 0.07777 0.08500
C 	C 	0.28182 0.28397 0.97924 0.02200
H 	H 	0.27760 0.35394 0.16506 0.07200
C 	C 	0.27283 0.24454 0.99427 0.09100
C 	C 	0.27153 0.97541 0.09657 0.09200
C 	C 	0.27525 0.01554 0.99691 0.02600
C 	C 	0.26801 0.93799 0.50683 0.08800
C 	C 	0.27908 0.04187 0.63487 0.14800
C 	C 	0.28676 0.27070 0.51345 0.02700
C 	C 	0.28481 0.31197 0.41936 0.08700
H 	H 	0.28172 0.19525 0.96766 0.09100
C 	C 	0.28256 0.00776 0.53548 0.02600
C 	C 	0.28801 0.22522 0.95498 -0.00800
Br	Br	0.28448 0.16039 0.52280 -0.18900
O 	O 	0.30027 0.11432 0.81735 -0.34300
O 	O 	0.30430 0.12740 0.67379 -0.34500
O 	O 	0.30244 0.18612 0.84013 -0.35700
C 	C 	0.29610 0.21440 0.54162 0.15100
C 	C 	0.30898 0.29181 0.57008 0.08900
Br	Br	0.31769 0.34451 0.59116 -0.16500
C 	C 	0.30588 0.30361 0.92463 -0.07500
C 	C 	0.30498 0.08464 0.91865 -0.08300
Br	Br	0.29826 0.93801 0.58271 -0.16500
C 	C 	0.30011 0.48853 0.26621 -0.09200
C 	C 	0.30804 0.02596 0.95503 0.09000
Ni	Ni	0.31012 0.16037 0.75720 1.12900
C 	C 	0.31167 0.24457 0.89990 -0.08500
H 	H 	0.31263 0.33388 0.91269 0.09400
C 	C 	0.30851 0.52885 0.26445 0.15200
C 	C 	0.31376 0.07753 0.61533 -0.07500
C 	C 	0.31927 0.11930 0.87483 0.30600
O 	O 	0.31613 0.20773 0.70603 -0.37300
C 	C 	0.31770 0.23523 0.59902 -0.09200
C 	C 	0.32449 0.27409 0.61235 -0.00600
C 	C 	0.32080 0.28411 0.88487 0.15000
Br	Br	0.31800 0.02111 0.13434 -0.16300
C 	C 	0.32300 0.06068 0.91660 -0.00700
C 	C 	0.31810 0.04270 0.51741 0.09000
C 	C 	0.30986 0.82820 0.23977 -0.08400
H 	H 	0.30966 0.81354 0.13630 0.07700
C 	C 	0.32718 0.22344 0.85932 0.32500
H 	H 	0.32568 0.44968 0.27182 0.07500
C 	C 	0.32966 0.11513 0.65470 0.30700
Br	Br	0.31547 0.85840 0.37417 -0.19600
C 	C 	0.33167 0.21604 0.64661 0.33100
O 	O 	0.34466 0.15575 0.89925 -0.34800
H 	H 	0.34151 0.29038 0.65593 0.08700
Br	Br	0.33870 0.32681 0.39611 -0.16300
Br	Br	0.33465 0.33278 0.10410 -0.16300
Br	Br	0.35224 0.31138 0.80899 -0.18100
Br	Br	0.33204 0.99262 0.94846 -0.16600
C 	C 	0.33322 0.07745 0.55678 -0.00300
C 	C 	0.33301 0.84110 0.29855 0.14900
C 	C 	0.32660 0.82214 0.18233 -0.00700
C 	C 	0.33190 0.48052 0.26935 -0.00500
H 	H 	0.34815 0.06861 0.88419 0.07100
Br	Br	0.34676 0.04332 0.43961 -0.16200
C 	C 	0.34820 0.56024 0.26178 -0.08000
O 	O 	0.35574 0.20309 0.62663 -0.36100
O 	O 	0.36608 0.23841 0.85591 -0.34400
O 	O 	0.36565 0.17884 0.76616 -0.72100
H 	H 	0.36453 0.15268 0.76935 0.16100
H 	H 	0.35999 0.10457 0.54150 0.08800
H 	H 	0.35449 0.59111 0.25948 0.09800
O 	O 	0.36919 0.13998 0.65581 -0.35600
C 	C 	0.36397 0.82443 0.18508 0.08700
C 	C 	0.37173 0.51220 0.26890 0.08800
C 	C 	0.37004 0.84255 0.30155 -0.07700
C 	C 	0.37991 0.55223 0.26374 0.02800
H 	H 	0.37940 0.76078 0.26467 0.09300
Ni	Ni	0.39172 0.20220 0.84647 1.12000
Ni	Ni	0.39479 0.19763 0.68659 1.12800
C 	C 	0.38482 0.83254 0.24576 0.02900
H 	H 	0.38679 0.85035 0.34776 0.09700
Br	Br	0.38541 0.81479 0.10603 -0.17000
O 	O 	0.41711 0.25625 0.71245 -0.37100
O 	O 	0.42285 0.17132 0.83322 -0.36000
C 	C 	0.41020 0.78503 0.26113 -0.07700
C 	C 	0.42150 0.58625 0.26268 0.03100
H 	H 	0.42211 0.59978 0.36646 0.09600
Br	Br	0.41445 0.50030 0.27606 -0.15900
Br	Br	0.42141 0.56734 0.12324 -0.16700
C 	C 	0.41845 0.82475 0.25337 0.02500
Br	Br	0.42787 0.72068 0.26304 -0.18400
C 	C 	0.44290 0.27348 0.76133 0.33100
C 	C 	0.44157 0.17308 0.77716 0.30500
O 	O 	0.44336 0.25205 0.81147 -0.35000
O 	O 	0.44320 0.19701 0.72828 -0.35300
C 	C 	0.43765 0.60998 0.31988 -0.07800
C 	C 	0.44125 0.77618 0.26097 0.15200
C 	C 	0.44200 0.59938 0.20242 0.08900
Br	Br	0.45003 0.13539 0.63844 -0.20000
Br	Br	0.45885 0.33011 0.88838 -0.18300
H 	H 	0.48066 0.16522 0.88299 0.07900
C 	C 	0.47057 0.15835 0.77712 -0.08400
C 	C 	0.45845 0.85624 0.24904 0.09100
C 	C 	0.48222 0.14802 0.71736 0.14900
C 	C 	0.49038 0.15920 0.83627 -0.00900
C 	C 	0.47582 0.31527 0.75419 -0.09200
C 	C 	0.47169 0.64829 0.31627 0.15800
C 	C 	0.47688 0.63707 0.19909 0.00000
Br	Br	0.47086 0.91104 0.23923 -0.15900
C 	C 	0.48945 0.34219 0.80861 0.15400
H 	H 	0.48493 0.30744 0.65105 0.07100
C 	C 	0.48135 0.80760 0.25537 -0.08100
Br	Br	0.48861 0.68193 0.39425 -0.20800
C 	C 	0.49587 0.32750 0.69366 -0.00300
C 	C 	0.48970 0.84755 0.25032 -0.01000
C 	C 	0.49097 0.66247 0.25497 -0.08700
H 	H 	0.49201 0.64740 0.15222 0.07800
C 	C 	0.52415 0.15454 0.83497 0.08600
C 	C 	0.51408 0.79867 0.24823 0.30500
O 	O 	0.51843 0.77630 0.29432 -0.34300
O 	O 	0.51837 0.72578 0.19827 -0.35000
C 	C 	0.51689 0.14489 0.71590 -0.07700
Br	Br	0.55040 0.15571 0.91667 -0.17400
C 	C 	0.52514 0.37910 0.80393 -0.07900
C 	C 	0.52200 0.70504 0.24668 0.33200
C 	C 	0.53892 0.14983 0.77407 0.02800
H 	H 	0.52725 0.13958 0.66922 0.09700
Br	Br	0.54372 0.07025 0.74982 -0.16700
C 	C 	0.53104 0.36475 0.68866 0.08500
H 	H 	0.52045 0.87178 0.24601 0.08200
O 	O 	0.53129 0.80446 0.18945 -0.34900
H 	H 	0.53653 0.39902 0.84667 0.09500
C 	C 	0.54669 0.38997 0.74475 0.02900
O 	O 	0.55162 0.72254 0.28953 -0.35900
Br	Br	0.55044 0.47399 0.72652 -0.16100
Br	Br	0.55783 0.38040 0.60519 -0.17200
C 	C 	0.58016 0.15676 0.76960 0.02700
Ni	Ni	0.56609 0.77929 0.16310 1.12000
Ni	Ni	0.57106 0.77927 0.32331 1.13000
C 	C 	0.58732 0.12466 0.75763 0.08700
C 	C 	0.63434 0.76564 0.13415 0.33000
C 	C 	0.63265 0.86596 0.13336 0.31000
C 	C 	0.64002 0.76648 0.34292 0.33400
C 	C 	0.63254 0.86272 0.35757 0.30700
Ni	Ni	0.65156 0.82534 0.24115 1.12900
O 	O 	0.65303 0.77866 0.28284 -0.35900
O 	O 	0.59530 0.74776 0.14026 -0.35700
O 	O 	0.65704 0.80352 0.15222 -0.36600
O 	O 	0.59381 0.83519 0.36101 -0.36100
O 	O 	0.65910 0.85469 0.32930 -0.34700
O 	O 	0.60777 0.82932 0.10874 -0.35300
O 	O 	0.65369 0.87126 0.18877 -0.35600
O 	O 	0.61544 0.77620 0.37165 -0.36000
O 	O 	0.59510 0.80229 0.24157 -0.72200
H 	H 	0.59344 0.82709 0.24359 0.16300
C 	C 	0.86425 0.65453 0.64322 0.30400
C 	C 	0.70739 0.52471 0.73792 0.32900
C 	C 	0.75785 0.64301 0.63962 0.32900
C 	C 	0.80987 0.53300 0.74038 0.30600
C 	C 	0.75344 0.63757 0.85106 0.33100
C 	C 	0.85603 0.64448 0.86452 0.30700
Ni	Ni	0.78142 0.58042 0.66144 1.11800
Ni	Ni	0.77745 0.57693 0.82152 1.12900
Ni	Ni	0.81579 0.66202 0.75046 1.13000
O 	O 	0.82948 0.62891 0.61408 -0.35900
O 	O 	0.86547 0.67427 0.69845 -0.34400
O 	O 	0.76649 0.61457 0.87596 -0.36900
O 	O 	0.73127 0.52679 0.69005 -0.34800
O 	O 	0.72056 0.55160 0.78593 -0.36700
O 	O 	0.84432 0.66909 0.83906 -0.34800
O 	O 	0.74413 0.60408 0.64314 -0.36100
O 	O 	0.79389 0.66866 0.66242 -0.35400
O 	O 	0.83260 0.60457 0.86240 -0.35900
O 	O 	0.81353 0.55147 0.68317 -0.35700
O 	O 	0.78309 0.53005 0.78475 -0.34000
O 	O 	0.76513 0.65382 0.79252 -0.35600
O 	O 	0.79978 0.60669 0.74344 -0.72100
H 	H 	0.82641 0.60901 0.74553 0.16200
C 	C 	0.70041 0.17887 0.75868 0.30500
C 	C 	0.86019 0.21368 0.84772 0.33100
C 	C 	0.80151 0.27313 0.74589 0.33000
C 	C 	0.75984 0.11382 0.85735 0.30600
C 	C 	0.85209 0.21124 0.63614 0.33100
C 	C 	0.75026 0.11440 0.63376 0.30700
Ni	Ni	0.77736 0.19996 0.82999 1.11900
Ni	Ni	0.81258 0.15379 0.74276 1.12800
Ni	Ni	0.77142 0.19745 0.66991 1.13000
O 	O 	0.71604 0.17398 0.81420 -0.35400
O 	O 	0.72345 0.20013 0.70835 -0.34200
O 	O 	0.85676 0.20086 0.69586 -0.36700
O 	O 	0.83921 0.23185 0.84151 -0.36800
O 	O 	0.84510 0.17609 0.82796 -0.34700
O 	O 	0.73731 0.14074 0.63552 -0.36200
O 	O 	0.78021 0.25273 0.79687 -0.34800
O 	O 	0.80969 0.25517 0.69813 -0.35300
O 	O 	0.78649 0.12368 0.65675 -0.35900
O 	O 	0.77292 0.15063 0.88237 -0.34600
O 	O 	0.77276 0.10805 0.79962 -0.35900
O 	O 	0.81614 0.20105 0.61316 -0.34900
O 	O 	0.77835 0.17591 0.74971 -0.72200
H 	H 	0.75217 0.15091 0.75126 0.15800
C 	C 	0.65919 0.17156 0.76088 -0.08300
C 	C 	0.65191 0.20344 0.77435 0.15300
C 	C 	0.61258 0.19603 0.77703 -0.07700
C 	C 	0.62680 0.13225 0.75285 -0.00900
H 	H 	0.60715 0.22076 0.78648 0.09200
H 	H 	0.63228 0.10754 0.74365 0.06900
Br	Br	0.69512 0.25680 0.79377 -0.18200
C 	C 	0.66641 0.49028 0.74039 -0.09200
C 	C 	0.65958 0.45086 0.74870 0.15100
C 	C 	0.62037 0.41848 0.75094 -0.07800
C 	C 	0.58772 0.42485 0.74425 0.02600
C 	C 	0.59445 0.46422 0.73644 0.08800
C 	C 	0.63374 0.49676 0.73491 -0.00500
H 	H 	0.61520 0.38821 0.75745 0.09100
H 	H 	0.63888 0.52703 0.72864 0.08600
Br	Br	0.70331 0.44060 0.75884 -0.19300
C 	C 	0.82641 0.50540 0.74570 -0.07900
C 	C 	0.82343 0.48485 0.80508 0.15400
C 	C 	0.82553 0.44946 0.80322 -0.07300
C 	C 	0.83533 0.43696 0.74434 0.02900
C 	C 	0.84552 0.46162 0.68823 0.08600
C 	C 	0.84033 0.49524 0.68863 -0.00800
H 	H 	0.81964 0.43173 0.84761 0.09900
C 	C 	0.83001 0.39601 0.73951 0.03100
H 	H 	0.84600 0.51267 0.64396 0.08000
C 	C 	0.79950 0.36705 0.69859 -0.07500
C 	C 	0.79202 0.32743 0.69673 0.16100
C 	C 	0.81326 0.31575 0.73956 -0.08600
C 	C 	0.84434 0.34476 0.77944 -0.00100
C 	C 	0.85348 0.38501 0.77837 0.08500
H 	H 	0.78160 0.37539 0.66810 0.09900
H 	H 	0.86148 0.33608 0.81117 0.07400
Br	Br	0.86676 0.44999 0.61086 -0.17200
Br	Br	0.82231 0.50735 0.88970 -0.19500
Br	Br	0.75325 0.28998 0.63446 -0.18700
Br	Br	0.89896 0.42466 0.82810 -0.17300
C 	C 	0.99905 0.28386 0.01926 0.03300
C 	C 	0.96362 0.26645 0.97502 0.02600
C 	C 	0.96576 0.25180 0.91236 -0.07700
C 	C 	0.93227 0.23473 0.87004 0.15400
C 	C 	0.89608 0.23201 0.89072 -0.08900
C 	C 	0.89415 0.24699 0.95328 0.00100
C 	C 	0.92771 0.26431 0.99526 0.08700
H 	H 	0.99351 0.25377 0.89648 0.09500
H 	H 	0.86640 0.24490 0.96951 0.07200
Br	Br	0.96611 0.20323 0.07198 -0.16000
Br	Br	0.93725 0.21713 0.78327 -0.19700
Br	Br	0.92395 0.28478 0.08023 -0.16300
C 	C 	0.88604 0.22696 0.59041 -0.08400
C 	C 	0.90025 0.26456 0.55982 0.15200
C 	C 	0.93437 0.28011 0.52015 -0.07600
C 	C 	0.95448 0.25847 0.51066 0.02900
C 	C 	0.93955 0.22037 0.53957 0.09000
C 	C 	0.90550 0.20482 0.57923 0.00300
H 	H 	0.94580 0.30945 0.49789 0.09500
C 	C 	0.99300 0.27739 0.47542 0.02900
H 	H 	0.89434 0.17563 0.60193 0.07700
C 	C 	0.99414 0.27331 0.40633 0.09100
Br	Br	0.96557 0.18934 0.52597 -0.16400
Br	Br	0.87477 0.29606 0.57411 -0.17900
Br	Br	0.94561 0.24342 0.35542 -0.16200
C 	C 	0.97265 0.69904 0.53232 0.02800
C 	C 	0.97375 0.69573 0.60122 -0.07600
C 	C 	0.93835 0.67949 0.63774 0.14900
C 	C 	0.90157 0.66841 0.60544 -0.08400
C 	C 	0.90046 0.67061 0.53615 -0.00800
C 	C 	0.93556 0.68480 0.49952 0.09000
H 	H 	0.87229 0.66134 0.51066 0.08000
Br	Br	0.94056 0.66929 0.73014 -0.20200
Br	Br	0.93215 0.68364 0.40461 -0.16500
C 	C 	0.89311 0.66173 0.90511 -0.07600
C 	C 	0.90457 0.69546 0.94732 0.15000
C 	C 	0.94017 0.71116 0.98416 -0.07800
C 	C 	0.96351 0.69255 0.98244 0.02400
C 	C 	0.95137 0.65805 0.94266 0.09500
C 	C 	0.91664 0.64316 0.90363 -0.00500
H 	H 	0.94909 0.73724 0.01590 0.09600
H 	H 	0.90777 0.61691 0.87236 0.08700
C 	C 	0.99530 0.70049 0.09293 -0.07900
H 	H 	0.96581 0.68105 0.11313 0.09600
Br	Br	0.98136 0.63036 0.94207 -0.16300
Br	Br	0.87048 0.71805 0.96155 -0.18500
C 	C 	0.64752 0.89948 0.39823 -0.08100
C 	C 	0.67361 0.90672 0.45238 0.15000
C 	C 	0.68767 0.94203 0.49011 -0.07700
C 	C 	0.67532 0.96988 0.47529 0.02800
C 	C 	0.64838 0.96211 0.42239 0.09000
C 	C 	0.63445 0.92689 0.38442 -0.01000
H 	H 	0.70809 0.94776 0.53123 0.09400
C 	C 	0.69223 0.00793 0.51346 0.02600
H 	H 	0.61342 0.92081 0.34416 0.08100
C 	C 	0.72678 0.04200 0.49074 -0.07700
C 	C 	0.74516 0.07744 0.52868 0.15100
C 	C 	0.72907 0.07886 0.59041 -0.08500
C 	C 	0.69377 0.04524 0.61219 -0.00800
C 	C 	0.67531 0.00978 0.57406 0.08700
H 	H 	0.73961 0.04078 0.44380 0.09400
H 	H 	0.68110 0.04637 0.65935 0.06800
Br	Br	0.63013 0.99912 0.40162 -0.16300
Br	Br	0.68848 0.86774 0.47813 -0.17200
Br	Br	0.79197 0.12373 0.49501 -0.17900
Br	Br	0.62725 0.96412 0.60564 -0.16600
C 	C 	0.64498 0.90081 0.09011 -0.08900
C 	C 	0.64077 0.93368 0.11048 0.15300
C 	C 	0.65690 0.96855 0.07214 -0.08100
C 	C 	0.67700 0.97080 0.01329 0.03600
C 	C 	0.67997 0.93739 0.99181 0.08100
C 	C 	0.66382 0.90255 0.03008 -0.00000
H 	H 	0.65415 0.99404 0.08841 0.09700
C 	C 	0.69692 0.00897 0.97653 0.02100
H 	H 	0.66695 0.87723 0.01407 0.07600
C 	C 	0.73664 0.03785 0.99251 -0.07900
C 	C 	0.75725 0.07268 0.95468 0.15100
C 	C 	0.73786 0.07900 0.90060 -0.08600
C 	C 	0.69781 0.05061 0.88564 -0.00900
C 	C 	0.67720 0.01577 0.92353 0.08900
H 	H 	0.75184 0.03275 0.03340 0.09500
H 	H 	0.68279 0.05542 0.84415 0.06700
Br	Br	0.70682 0.93916 0.91110 -0.17100
Br	Br	0.61224 0.93110 0.18951 -0.21100
Br	Br	0.81243 0.11031 0.97576 -0.17700
Br	Br	0.62242 0.97749 0.90158 -0.16600
C 	C 	0.65171 0.74587 0.09477 -0.09500
C 	C 	0.64406 0.70693 0.11070 0.15400
C 	C 	0.65841 0.68743 0.06984 -0.08000
C 	C 	0.68126 0.70683 0.01406 0.03500
C 	C 	0.68937 0.74595 0.99865 0.07900
C 	C 	0.67455 0.76524 0.03892 0.00200
H 	H 	0.65261 0.65754 0.08230 0.09600
C 	C 	0.69856 0.68697 0.97431 0.02300
H 	H 	0.68040 0.79514 0.02635 0.07600
C 	C 	0.67892 0.66589 0.91624 -0.07400
C 	C 	0.69599 0.64850 0.87644 0.15400
C 	C 	0.73310 0.65234 0.89472 -0.08700
C 	C 	0.75172 0.67181 0.95430 -0.00500
C 	C 	0.73491 0.68949 0.99371 0.08900
H 	H 	0.65052 0.66323 0.90187 0.09400
H 	H 	0.77964 0.67377 0.96950 0.08900
Br	Br	0.72103 0.77365 0.92321 -0.16700
Br	Br	0.61625 0.68092 0.19016 -0.18400
Br	Br	0.66710 0.61766 0.79961 -0.18100
Br	Br	0.76256 0.71786 0.07303 -0.16200
C 	C 	0.65632 0.74531 0.38126 -0.08400
C 	C 	0.69802 0.76245 0.39126 0.15700
C 	C 	0.71266 0.74274 0.43084 -0.07800
C 	C 	0.68615 0.70664 0.46219 0.02900
C 	C 	0.64451 0.68962 0.45255 0.09100
C 	C 	0.62983 0.70880 0.41171 -0.00100
H 	H 	0.74471 0.75612 0.43880 0.09500
C 	C 	0.70217 0.68847 0.50864 0.02900
H 	H 	0.59775 0.69560 0.40443 0.08300
C 	C 	0.71281 0.70404 0.57313 -0.07900
C 	C 	0.73047 0.68909 0.61676 0.15400
C 	C 	0.73716 0.65773 0.59607 -0.08900
C 	C 	0.72570 0.64160 0.53185 -0.00300
C 	C 	0.70872 0.65712 0.48793 0.08800
H 	H 	0.70777 0.72817 0.58915 0.09600
H 	H 	0.73102 0.61772 0.51543 0.07100
Br	Br	0.60723 0.64082 0.49614 -0.15900
Br	Br	0.73536 0.81422 0.35588 -0.18700
Br	Br	0.74474 0.71179 0.70433 -0.18200
Br	Br	0.69558 0.63583 0.39936 -0.16600
