data_crystal

_cell_length_a 27.78343
_cell_length_b 28.25414
_cell_length_c 35.48700
_cell_angle_alpha 95.49937
_cell_angle_beta  95.50221
_cell_angle_gamma 125.68387

_symmetry_space_group_name_	'P 1'
_symmetry_space_group_name_H-M	'P 1'

loop_
_symmetry_equiv_pos_as_xyz
  x,y,z

loop_
_atom_site_label
_atom_site_type_symbol
_atom_site_fract_x
_atom_site_fract_y
_atom_site_fract_z
_atom_site_charge
C 	C 	0.97888 0.03232 0.00003 0.05200
C 	C 	0.94447 0.97118 0.99979 -0.08300
C 	C 	0.97127 0.94194 0.99715 0.05500
C 	C 	0.03240 0.97377 0.99492 -0.08900
C 	C 	0.06687 0.03478 0.99515 0.05400
C 	C 	0.04018 0.06418 0.99775 -0.08700
H 	H 	0.89698 0.94644 0.00133 0.05400
H 	H 	0.05309 0.95103 0.99282 0.05600
H 	H 	0.06679 0.11143 0.99777 0.05500
C 	C 	0.92436 0.99406 0.44991 0.04800
C 	C 	0.98656 0.02738 0.45040 -0.08000
C 	C 	0.01566 0.00040 0.45274 0.04500
C 	C 	0.98264 0.94004 0.45425 -0.08000
C 	C 	0.92052 0.90643 0.45369 0.04900
C 	C 	0.89116 0.93339 0.45151 -0.08500
H 	H 	0.01233 0.07430 0.44943 0.05300
H 	H 	0.00535 0.91927 0.45612 0.05300
H 	H 	0.84310 0.90755 0.45134 0.05500
Cu	Cu	0.65302 0.25131 0.00357 0.92800
Cu	Cu	0.69544 0.25496 0.92039 0.87000
Cu	Cu	0.68694 0.34823 0.95649 0.89700
Cu	Cu	0.66341 0.36512 0.03545 0.89400
C 	C 	0.68135 0.29531 0.08515 0.32700
O 	O 	0.56709 0.22072 0.00628 -0.36600
C 	C 	0.66812 0.31358 0.87141 0.32500
O 	O 	0.70589 0.34431 0.00890 -0.64200
O 	O 	0.64285 0.26043 0.94945 -0.64100
O 	O 	0.68537 0.20474 0.99675 -0.37500
O 	O 	0.75237 0.26665 0.96153 -0.44400
O 	O 	0.65624 0.32242 0.07873 -0.39300
O 	O 	0.73492 0.43386 0.96641 -0.38600
C 	C 	0.73200 0.46679 0.99375 0.31400
C 	C 	0.54551 0.24889 0.99495 0.30500
O 	O 	0.58238 0.30473 0.99196 -0.39400
O 	O 	0.69984 0.44445 0.02091 -0.39700
O 	O 	0.67587 0.25687 0.05742 -0.37000
C 	C 	0.73569 0.22709 0.98367 0.31000
O 	O 	0.67865 0.35257 0.90119 -0.39100
O 	O 	0.65854 0.26312 0.87599 -0.43000
H 	H 	0.74959 0.36783 0.01954 0.16400
H 	H 	0.60063 0.23748 0.93554 0.17400
Cu	Cu	0.71855 0.33373 0.44689 0.92700
Cu	Cu	0.72102 0.28851 0.52882 0.87000
Cu	Cu	0.62366 0.29640 0.49805 0.89800
Cu	Cu	0.60352 0.32942 0.42366 0.89500
C 	C 	0.66770 0.31354 0.36709 0.32400
O 	O 	0.75229 0.42019 0.44828 -0.36100
C 	C 	0.66731 0.31728 0.58199 0.32800
O 	O 	0.62462 0.28366 0.44431 -0.64000
O 	O 	0.71292 0.34074 0.50229 -0.63900
O 	O 	0.76228 0.29700 0.44776 -0.37200
O 	O 	0.70267 0.23286 0.48511 -0.44400
O 	O 	0.64260 0.33913 0.37799 -0.39600
O 	O 	0.53657 0.24876 0.49015 -0.38200
C 	C 	0.50263 0.25281 0.46401 0.30900
C 	C 	0.72521 0.44174 0.46221 0.30200
O 	O 	0.67003 0.40555 0.46817 -0.39300
O 	O 	0.52639 0.29454 0.44293 -0.39700
O 	O 	0.70812 0.31543 0.39168 -0.36600
C 	C 	0.74073 0.24802 0.46149 0.30700
O 	O 	0.62166 0.29670 0.55347 -0.39700
O 	O 	0.71711 0.32471 0.57554 -0.42900
H 	H 	0.59940 0.24139 0.43160 0.16400
H 	H 	0.73639 0.38179 0.51704 0.17300
C 	C 	0.68707 0.32887 0.69004 0.00400
C 	C 	0.72821 0.37012 0.72309 -0.04100
C 	C 	0.71646 0.35767 0.75975 -0.04000
C 	C 	0.66342 0.30364 0.76367 0.00400
C 	C 	0.62195 0.26280 0.73062 -0.04100
C 	C 	0.63366 0.27523 0.69401 -0.03900
C 	C 	0.65486 0.28621 0.80181 0.00900
C 	C 	0.66574 0.32590 0.83432 -0.17200
C 	C 	0.70291 0.33928 0.65154 0.01000
C 	C 	0.65928 0.32449 0.61984 -0.17300
H 	H 	0.76985 0.41130 0.72038 0.03700
H 	H 	0.74956 0.38902 0.78502 0.03800
H 	H 	0.58132 0.22070 0.73330 0.03700
H 	H 	0.60221 0.24230 0.66876 0.03900
H 	H 	0.63874 0.24131 0.80420 0.03200
H 	H 	0.67505 0.36816 0.83085 0.08500
H 	H 	0.74884 0.35790 0.64797 0.03200
H 	H 	0.61635 0.31426 0.62468 0.08600
C 	C 	0.71509 0.33263 0.19379 0.00700
C 	C 	0.69296 0.35529 0.21770 -0.03800
C 	C 	0.69237 0.34824 0.25607 -0.03900
C 	C 	0.71261 0.31705 0.27085 0.00800
C 	C 	0.73721 0.29655 0.24748 -0.04000
C 	C 	0.73893 0.30470 0.20916 -0.03700
C 	C 	0.70998 0.30775 0.31123 0.01200
C 	C 	0.66117 0.29649 0.32768 -0.16500
C 	C 	0.71526 0.34089 0.15319 0.01200
C 	C 	0.70031 0.29579 0.12317 -0.16700
H 	H 	0.67612 0.37841 0.20651 0.03800
H 	H 	0.67646 0.36731 0.27436 0.04300
H 	H 	0.75484 0.27423 0.25893 0.04000
H 	H 	0.75948 0.29009 0.19175 0.03900
H 	H 	0.74793 0.31331 0.32865 0.04300
H 	H 	0.62124 0.28517 0.30887 0.07700
H 	H 	0.71941 0.37967 0.14627 0.02800
H 	H 	0.70324 0.26056 0.12937 0.08700
C 	C 	0.83527 0.73186 0.46047 0.02100
C 	C 	0.79584 0.68672 0.42856 -0.04700
C 	C 	0.77421 0.62816 0.42969 -0.02800
C 	C 	0.79194 0.61446 0.46274 -0.01100
C 	C 	0.83041 0.65938 0.49494 -0.02800
C 	C 	0.85204 0.71796 0.49380 -0.04700
C 	C 	0.76997 0.55413 0.46366 0.04600
C 	C 	0.75077 0.50322 0.46350 -0.11100
C 	C 	0.86346 0.79300 0.45760 -0.01300
C 	C 	0.88757 0.84445 0.45579 -0.02800
H 	H 	0.78290 0.69712 0.40262 0.04300
H 	H 	0.74414 0.59359 0.40478 0.03800
H 	H 	0.84396 0.64908 0.52069 0.03700
H 	H 	0.88274 0.75265 0.51853 0.04300
C 	C 	0.80604 0.15109 0.45113 -0.01400
C 	C 	0.81943 0.13598 0.41693 -0.02700
C 	C 	0.84038 0.10129 0.41608 -0.04800
C 	C 	0.84788 0.08150 0.44940 0.02100
C 	C 	0.83396 0.09621 0.48345 -0.04900
C 	C 	0.81311 0.13089 0.48432 -0.02800
C 	C 	0.87381 0.04969 0.44941 -0.01300
C 	C 	0.89550 0.02307 0.44940 -0.02800
C 	C 	0.78375 0.18621 0.45223 0.04700
C 	C 	0.76490 0.21531 0.45524 -0.12100
H 	H 	0.81379 0.15114 0.39110 0.03900
H 	H 	0.85130 0.09033 0.38968 0.04300
H 	H 	0.83992 0.08138 0.50937 0.04200
H 	H 	0.80260 0.14217 0.51081 0.03200
C 	C 	0.32199 0.15868 0.46199 -0.01100
C 	C 	0.29509 0.18783 0.45938 -0.02800
C 	C 	0.23292 0.15627 0.45755 -0.04800
C 	C 	0.19743 0.09546 0.45831 0.02100
C 	C 	0.22437 0.06636 0.46109 -0.04800
C 	C 	0.28655 0.09793 0.46293 -0.02800
C 	C 	0.13344 0.06287 0.45624 -0.01400
C 	C 	0.07977 0.03489 0.45454 -0.02700
C 	C 	0.38570 0.19093 0.46290 0.04800
C 	C 	0.43913 0.21871 0.46364 -0.11000
H 	H 	0.32226 0.23481 0.45862 0.03900
H 	H 	0.21238 0.17905 0.45545 0.04300
H 	H 	0.19717 0.01935 0.46175 0.04200
H 	H 	0.30706 0.07512 0.46491 0.03700
C 	C 	0.87608 0.76364 0.99301 0.02200
C 	C 	0.89881 0.73491 0.97687 -0.04700
C 	C 	0.86916 0.67434 0.97630 -0.02800
C 	C 	0.81668 0.64227 0.99188 -0.00900
C 	C 	0.79354 0.67084 0.00764 -0.02900
C 	C 	0.82321 0.73145 0.00821 -0.04900
C 	C 	0.78717 0.58035 0.99233 0.04800
C 	C 	0.76218 0.52847 0.99283 -0.11000
C 	C 	0.90808 0.82643 0.99492 -0.01200
C 	C 	0.93602 0.87905 0.99604 -0.02900
H 	H 	0.93967 0.75956 0.96506 0.04300
H 	H 	0.88724 0.65251 0.96402 0.03800
H 	H 	0.75289 0.64625 0.01968 0.03800
H 	H 	0.80537 0.75339 0.02071 0.04300
C 	C 	0.89690 0.11411 0.00288 0.01800
C 	C 	0.84739 0.09238 0.02138 -0.04600
C 	C 	0.81577 0.11681 0.01961 -0.03100
C 	C 	0.83357 0.16305 0.99933 -0.01100
C 	C 	0.88405 0.18581 0.98170 -0.03000
C 	C 	0.91564 0.16139 0.98347 -0.04500
C 	C 	0.79816 0.18487 0.99465 0.04800
C 	C 	0.76938 0.20400 0.99024 -0.12000
C 	C 	0.92627 0.08576 0.00197 -0.01200
C 	C 	0.95071 0.06185 0.00131 -0.03000
H 	H 	0.83275 0.05594 0.03654 0.04200
H 	H 	0.77689 0.09910 0.03340 0.03900
H 	H 	0.89813 0.22164 0.96603 0.03600
H 	H 	0.95396 0.17851 0.96917 0.04200
C 	C 	0.36575 0.17072 0.98655 -0.01100
C 	C 	0.32569 0.10973 0.98608 -0.02800
C 	C 	0.26490 0.08348 0.98672 -0.04700
C 	C 	0.24385 0.11810 0.98784 0.02000
C 	C 	0.28362 0.17890 0.98752 -0.04700
C 	C 	0.34450 0.20519 0.98687 -0.02800
C 	C 	0.18185 0.09130 0.99041 -0.01200
C 	C 	0.12958 0.06682 0.99254 -0.03000
C 	C 	0.42916 0.19842 0.98911 0.04800
C 	C 	0.48218 0.22126 0.99124 -0.11200
H 	H 	0.34180 0.08283 0.98585 0.03900
H 	H 	0.23434 0.03640 0.98684 0.04200
H 	H 	0.26761 0.20590 0.98824 0.04200
H 	H 	0.37523 0.25240 0.98722 0.03800
