data_crystal

_cell_length_a 9.93811
_cell_length_b 8.33484
_cell_length_c 96.35168
_cell_angle_alpha 90.41835
_cell_angle_beta  91.71889
_cell_angle_gamma 111.02075

_symmetry_space_group_name_	'P 1'
_symmetry_space_group_name_H-M	'P 1'

loop_
_symmetry_equiv_pos_as_xyz
  x,y,z

loop_
_atom_site_label
_atom_site_type_symbol
_atom_site_fract_x
_atom_site_fract_y
_atom_site_fract_z
_atom_site_charge
H 	H 	0.40436 0.95376 0.13055 0.02600
O 	O 	0.07381 0.17577 0.22312 -0.37600
C 	C 	0.38128 0.04239 0.15108 0.07100
C 	C 	0.91529 0.31974 0.32020 -0.03000
Ni	Ni	0.17279 0.32644 0.19166 1.06200
C 	C 	0.39738 0.05954 0.13672 -0.05300
C 	C 	0.09695 0.48735 0.12146 0.03800
C 	C 	0.08120 0.10401 0.44371 0.04300
C 	C 	0.30902 0.14517 0.17306 0.35100
C 	C 	0.83165 0.30213 0.34409 -0.08000
C 	C 	0.12280 0.51982 0.14656 0.00700
C 	C 	0.94364 0.35946 0.33475 0.06100
C 	C 	0.37130 0.17869 0.15916 -0.12300
C 	C 	0.10659 0.56061 0.10790 -0.03500
C 	C 	0.20158 0.29660 0.22314 0.27400
O 	O 	0.33473 0.27149 0.18217 -0.40500
C 	C 	0.13072 0.59281 0.13342 -0.07100
H 	H 	0.76995 0.31022 0.36522 0.04500
C 	C 	0.11177 0.61170 0.09619 -0.00700
H 	H 	0.15439 0.60282 0.15570 0.03600
O 	O 	0.27296 0.33464 0.21145 -0.40100
C 	C 	0.85578 0.35857 0.35795 0.04100
C 	C 	0.10007 0.12248 0.43145 -0.09000
C 	C 	0.39939 0.21066 0.13032 0.04400
C 	C 	0.07802 0.47859 0.33919 -0.09200
C 	C 	0.11474 0.66092 0.08221 -0.00700
H 	H 	0.27186 0.42657 0.06006 0.05200
H 	H 	0.22814 0.57046 0.24006 0.02500
H 	H 	0.16419 0.52653 0.33194 0.05200
C 	C 	0.28025 0.34366 0.23657 -0.08300
C 	C 	0.40193 0.22307 0.11541 -0.02200
C 	C 	0.26005 0.47191 0.24483 0.01700
C 	C 	0.11483 0.69567 0.07010 -0.03800
H 	H 	0.16156 0.73063 0.13257 0.04400
C 	C 	0.39282 0.33722 0.15291 0.03600
C 	C 	0.40408 0.23619 0.10295 0.00100
H 	H 	0.35186 0.12749 0.23656 0.03100
H 	H 	0.28722 0.46479 0.03462 0.02700
C 	C 	0.98977 0.47990 0.36233 -0.11900
C 	C 	0.33305 0.22531 0.24284 0.02000
C 	C 	0.34209 0.37911 0.05428 -0.08400
C 	C 	0.39985 0.35056 0.13847 -0.07400
H 	H 	0.06590 0.46657 0.04914 0.04100
C 	C 	0.27167 0.46638 0.25934 -0.06800
C 	C 	0.10036 0.54051 0.35286 0.03300
C 	C 	0.40885 0.25503 0.08839 0.00600
H 	H 	0.24866 0.56083 0.26566 0.04700
C 	C 	0.11393 0.73077 0.05551 0.03600
C 	C 	0.12310 0.15558 0.41698 0.30800
C 	C 	0.08655 0.59656 0.04575 -0.07900
H 	H 	0.14791 0.99930 0.05861 0.04400
H 	H 	0.08287 0.06339 0.33465 0.05900
C 	C 	0.35097 0.40118 0.03990 0.03600
C 	C 	0.41512 0.27350 0.07599 -0.03200
C 	C 	0.13101 0.89616 0.05109 -0.07100
H 	H 	0.39163 0.44589 0.15907 0.02300
C 	C 	0.34684 0.22113 0.25731 -0.06900
C 	C 	0.31123 0.33780 0.26561 0.04500
H 	H 	0.07855 0.03380 0.36014 0.05100
O 	O 	0.01336 0.41783 0.38622 -0.34700
O 	O 	0.07750 0.26866 0.41104 -0.36000
C 	C 	0.42486 0.29724 0.06120 0.05500
C 	C 	0.30960 0.32062 0.28051 -0.02600
C 	C 	0.07875 0.62792 0.03158 0.00300
C 	C 	0.18051 0.12626 0.34090 -0.06600
O 	O 	0.20956 0.09550 0.41039 -0.36400
H 	H 	0.05742 0.52276 0.02416 0.02700
C 	C 	0.12173 0.92776 0.03693 -0.00100
C 	C 	0.17811 0.10919 0.35534 0.01100
H 	H 	0.38054 0.12357 0.26206 0.05700
C 	C 	0.30918 0.30304 0.29294 0.00400
C 	C 	0.01821 0.53360 0.37696 0.29900
O 	O 	0.18391 0.20979 0.38469 -0.35400
C 	C 	0.09561 0.79366 0.02706 -0.09900
H 	H 	0.20397 0.63453 0.35611 -0.03800
C 	C 	0.30820 0.27844 0.30746 0.00300
H 	H 	0.13269 0.05570 0.03367 0.04500
O 	O 	0.32841 0.31098 0.00972 -0.36300
C 	C 	0.30752 0.25574 0.31983 -0.02600
H 	H 	0.40246 0.46839 0.13362 0.05400
C 	C 	0.30742 0.22869 0.33461 0.04500
C 	C 	0.08885 0.82810 0.01207 0.27300
C 	C 	0.30338 0.19232 0.36358 -0.10300
C 	C 	0.44379 0.34313 0.03239 -0.12000
C 	C 	0.29663 0.19450 0.37887 0.25700
C 	C 	0.51981 0.24227 0.05377 -0.08400
C 	C 	0.43338 0.30840 0.34276 -0.07100
C 	C 	0.43176 0.28939 0.35718 0.01300
C 	C 	0.44935 0.36022 0.01717 0.30000
Ni	Ni	0.19963 0.42359 0.39639 1.09900
C 	C 	0.52993 0.26590 0.03944 0.03200
H 	H 	0.53196 0.38746 0.33798 0.05200
O 	O 	0.08774 0.69624 0.38009 -0.39400
H 	H 	0.58755 0.18390 0.05911 0.05600
H 	H 	0.52861 0.35613 0.36341 0.02200
O 	O 	0.40930 0.19949 0.38657 -0.39400
Ni	Ni	0.41972 0.24293 0.40752 1.08400
H 	H 	0.60621 0.22659 0.03385 -0.03400
H 	H 	0.33230 0.52117 0.37316 0.15800
O 	O 	0.56866 0.37355 0.01105 -0.39200
H 	H 	0.37778 0.96716 0.01607 0.15300
O 	O 	0.33697 0.57833 0.38227 -0.69400
O 	O 	0.39374 0.46701 0.40593 -0.69700
O 	O 	0.41355 0.00374 0.00673 -0.69100
H 	H 	0.40027 0.52180 0.41520 0.15900
Ni	Ni	0.31055 0.80015 0.37947 1.07300
O 	O 	0.31796 0.85306 0.40028 -0.42200
O 	O 	0.64197 0.35080 0.40665 -0.37800
Ni	Ni	0.61898 0.15640 0.00810 1.07700
Ni	Ni	0.53152 0.62405 0.39201 1.09800
C 	C 	0.42702 0.85642 0.40841 0.26800
C 	C 	0.70922 0.50774 0.41136 0.30500
O 	O 	0.54172 0.83921 0.40321 -0.37200
O 	O 	0.52139 0.94406 0.37680 -0.40400
O 	O 	0.52535 0.70870 0.00644 -0.36400
O 	O 	0.65687 0.77609 0.37734 -0.37300
C 	C 	0.42446 0.89001 0.42299 -0.15000
O 	O 	0.71357 0.63589 0.40338 -0.35600
C 	C 	0.60639 0.87901 0.37048 0.28800
H 	H 	0.40650 0.91515 0.35212 -0.01600
O 	O 	0.70543 0.96961 0.00764 -0.38800
C 	C 	0.63827 0.81864 0.01306 0.29800
C 	C 	0.72305 0.53631 0.42613 -0.12200
C 	C 	0.41979 0.91376 0.43529 0.01800
H 	H 	0.51648 0.91780 0.03451 -0.00800
C 	C 	0.49641 0.89699 0.34716 0.01500
C 	C 	0.61182 0.88231 0.35519 -0.12000
C 	C 	0.66117 0.79382 0.02785 -0.10900
C 	C 	0.72646 0.55239 0.43859 0.02600
C 	C 	0.58807 0.85256 0.03774 0.01700
C 	C 	0.41314 0.93749 0.44973 -0.00700
H 	H 	0.40489 0.89371 0.32660 0.04200
C 	C 	0.49496 0.88364 0.33268 -0.08600
C 	C 	0.72626 0.85578 0.34854 0.02100
H 	H 	0.79039 0.63853 0.02437 0.04100
C 	C 	0.74247 0.69494 0.03204 0.04100
C 	C 	0.60214 0.81998 0.05180 -0.07600
H 	H 	0.54420 0.86447 0.05936 0.04900
H 	H 	0.81561 0.84356 0.35459 0.02900
C 	C 	0.72380 0.56183 0.45321 0.02600
C 	C 	0.60865 0.85576 0.32610 0.04200
C 	C 	0.68661 0.72500 0.05601 0.05400
C 	C 	0.75388 0.65912 0.04609 -0.07300
C 	C 	0.72473 0.84301 0.33405 -0.08400
C 	C 	0.69902 0.68917 0.07046 -0.02700
H 	H 	0.80815 0.57283 0.04916 0.06200
C 	C 	0.60488 0.83688 0.31121 -0.03600
H 	H 	0.81317 0.82176 0.32902 0.04500
C 	C 	0.70702 0.66086 0.08262 0.00600
H 	H 	0.66901 0.81625 0.12832 0.04600
C 	C 	0.60212 0.82101 0.29874 -0.01100
C 	C 	0.71322 0.63068 0.09695 0.00500
C 	C 	0.71626 0.60876 0.10927 -0.02500
C 	C 	0.69467 0.71097 0.13273 -0.07300
C 	C 	0.59968 0.80157 0.28416 0.00100
H 	H 	0.62090 0.51424 0.25791 0.06000
H 	H 	0.69809 0.80114 0.15370 0.01400
C 	C 	0.71859 0.58908 0.12406 0.04900
C 	C 	0.59901 0.78445 0.27172 -0.05400
C 	C 	0.70837 0.70051 0.14711 0.02000
C 	C 	0.61709 0.61654 0.25123 -0.08800
C 	C 	0.60069 0.76340 0.25688 0.07400
H 	H 	0.64532 0.48935 0.23267 0.02700
C 	C 	0.63286 0.60353 0.23694 0.03700
C 	C 	0.74635 0.44994 0.12987 -0.06500
C 	C 	0.75164 0.57193 0.15291 -0.08800
C 	C 	0.59358 0.89349 0.24810 -0.15100
H 	H 	0.75879 0.35104 0.12323 0.06200
H 	H 	0.57597 0.00492 0.25233 0.09300
C 	C 	0.76003 0.43970 0.14430 0.02600
C 	C 	0.64788 0.74470 0.22849 -0.11500
O 	O 	0.76337 0.57198 0.17788 -0.40300
O 	O 	0.70429 0.63189 0.20712 -0.40000
C 	C 	0.61880 0.88535 0.23396 0.04900
C 	C 	0.83327 0.60965 0.16613 0.28200
C 	C 	0.72798 0.76410 0.21561 0.30600
H 	H 	0.78549 0.33460 0.14873 0.03800
H 	H 	0.62413 0.99266 0.22743 0.00400
Ni	Ni	0.86578 0.57925 0.19745 1.07000
O 	O 	0.96258 0.72713 0.16612 -0.37600
O 	O 	0.95508 0.54600 0.21610 -0.42600
O 	O 	0.81757 0.91568 0.21237 -0.40900
H 	H 	0.87653 0.30049 0.23329 0.04900
C 	C 	0.94342 0.56322 0.24113 -0.09800
C 	C 	0.89762 0.38339 0.24242 0.02500
C 	C 	0.96507 0.66754 0.25312 0.02500
H 	H 	0.99623 0.80565 0.25235 0.03600
C 	C 	0.94409 0.59436 0.26616 -0.07700
C 	C 	0.88104 0.31073 0.25562 -0.07100
C 	C 	0.96786 0.64421 0.22738 0.31800
H 	H 	0.00526 0.09682 0.13641 0.04100
H 	H 	0.96093 0.67655 0.27531 0.05000
H 	H 	0.85335 0.17342 0.25662 0.06800
C 	C 	0.90372 0.41662 0.26748 0.04900
Ni	Ni	0.00710 0.93925 0.17848 1.07300
O 	O 	0.99986 0.08965 0.16202 -0.33800
O 	O 	0.02277 0.80110 0.19526 -0.72500
H 	H 	0.92604 0.12411 0.19372 0.17200
C 	C 	0.89375 0.34735 0.28114 -0.02400
H 	H 	0.11515 0.78111 0.19532 0.14000
H 	H 	0.02664 0.22686 0.11344 0.04900
O 	O 	0.01840 0.10408 0.19383 -0.70800
C 	C 	0.03973 0.23532 0.13572 0.00700
O 	O 	0.03455 0.81370 0.22712 -0.42900
Ni	Ni	0.03251 0.96537 0.21061 1.07900
C 	C 	0.89182 0.31423 0.29326 0.00700
C 	C 	0.06266 0.25974 0.16162 0.25500
C 	C 	0.05226 0.30895 0.12266 -0.07200
H 	H 	0.37097 0.92126 0.15582 -0.00300
C 	C 	0.05665 0.09139 0.45805 0.06600
O 	O 	0.08152 0.35893 0.17300 -0.43100
C 	C 	0.07435 0.33997 0.14781 -0.08200
C 	C 	0.89976 0.30499 0.30779 0.01100
H 	H 	0.72525 0.21814 0.34053 0.07000
O 	O 	0.22160 0.99090 0.17598 -0.44600
C 	C 	0.03076 0.08592 0.47020 -0.11900
C 	C 	0.71846 0.56177 0.46569 -0.12700
C 	C 	0.40815 0.95562 0.46210 -0.09800
C 	C 	0.99141 0.08283 0.48440 0.38100
H 	H 	0.69605 0.16562 0.47790 0.16800
O 	O 	0.88413 0.94979 0.48860 -0.43300
O 	O 	0.02965 0.22853 0.49152 -0.40300
C 	C 	0.71106 0.55188 0.48053 0.30000
C 	C 	0.40480 0.97644 0.47686 0.20700
O 	O 	0.82969 0.57751 0.48793 -0.39900
Ni	Ni	0.91012 0.38180 0.49024 1.06700
O 	O 	0.71856 0.19659 0.48785 -0.68200
O 	O 	0.38228 0.84320 0.48482 -0.40500
O 	O 	0.41021 0.12414 0.48211 -0.31100
O 	O 	0.58639 0.46980 0.48600 -0.35700
Ni	Ni	0.72304 0.99191 0.49882 1.06600
Ni	Ni	0.55804 0.25336 0.49747 1.09900
O 	O 	0.89671 0.40265 0.51132 -0.40800
O 	O 	0.69677 0.77702 0.51034 -0.37800
O 	O 	0.87113 0.12268 0.51413 -0.33900
O 	O 	0.45344 0.66541 0.50740 -0.40000
O 	O 	0.56273 0.04850 0.50838 -0.66000
Ni	Ni	0.37225 0.86134 0.50584 1.04200
C 	C 	0.57019 0.68506 0.51496 0.28900
C 	C 	0.87653 0.27064 0.51942 0.27000
O 	O 	0.25069 0.01232 0.50498 -0.35700
O 	O 	0.39558 0.29251 0.50774 -0.36500
H 	H 	0.58498 0.07931 0.51834 0.16000
H 	H 	0.62760 0.42342 0.52708 0.00200
H 	H 	0.96633 0.57230 0.53441 0.02800
C 	C 	0.55759 0.63905 0.52958 -0.12500
C 	C 	0.28938 0.15831 0.51209 0.30500
H 	H 	0.48158 0.84197 0.53535 -0.03800
C 	C 	0.87856 0.29375 0.53468 -0.08600
C 	C 	0.59458 0.50113 0.53432 0.04400
C 	C 	0.51209 0.73663 0.53897 0.01900
C 	C 	0.92857 0.45948 0.54080 0.01100
H 	H 	0.79272 0.02086 0.53867 0.05800
H 	H 	0.23914 0.41805 0.52555 0.02700
C 	C 	0.24045 0.15940 0.52638 -0.11700
C 	C 	0.83079 0.14928 0.54320 0.01300
H 	H 	0.22964 0.90046 0.53065 -0.07800
C 	C 	0.22994 0.30972 0.53209 0.04100
C 	C 	0.58718 0.46224 0.54843 -0.08800
C 	C 	0.51035 0.70208 0.55310 -0.09400
C 	C 	0.22292 0.01786 0.53493 0.09400
C 	C 	0.93158 0.47979 0.55526 -0.07200
H 	H 	0.61098 0.35212 0.55200 0.06000
H 	H 	0.97111 0.60786 0.55988 0.04300
H 	H 	0.47960 0.78179 0.56036 0.03400
C 	C 	0.54953 0.56618 0.55789 0.05300
C 	C 	0.83334 0.17008 0.55762 -0.06300
C 	C 	0.21344 0.32308 0.54638 -0.06900
C 	C 	0.88409 0.33511 0.56368 0.04300
H 	H 	0.21184 0.44223 0.55079 0.04800
C 	C 	0.20502 0.03093 0.54917 -0.00600
H 	H 	0.79720 0.05768 0.56408 0.07100
C 	C 	0.20410 0.18509 0.55498 0.03000
H 	H 	0.19608 0.92283 0.55575 -0.01800
C 	C 	0.55941 0.54140 0.57254 -0.03900
C 	C 	0.89177 0.35554 0.57858 -0.02200
C 	C 	0.20011 0.20377 0.56984 -0.01100
C 	C 	0.56850 0.53223 0.58496 -0.00000
C 	C 	0.89759 0.37071 0.59106 0.00400
C 	C 	0.19667 0.21516 0.58231 0.00300
C 	C 	0.58032 0.53561 0.59954 -0.00300
C 	C 	0.90778 0.38748 0.60568 0.01400
C 	C 	0.19194 0.22208 0.59694 0.00300
C 	C 	0.59193 0.55034 0.61198 -0.03300
C 	C 	0.92018 0.40249 0.61815 -0.03100
C 	C 	0.18572 0.22053 0.60943 -0.01300
C 	C 	0.60771 0.58082 0.62671 0.04700
H 	H 	0.64541 0.85177 0.62509 0.03300
H 	H 	0.03078 0.94253 0.62337 -0.01300
H 	H 	0.56609 0.31554 0.63175 0.06100
H 	H 	0.10819 0.67287 0.63215 0.04300
C 	C 	0.93964 0.42310 0.63302 0.08200
C 	C 	0.63716 0.74714 0.63202 -0.08200
C 	C 	0.17452 0.20763 0.62430 0.02800
C 	C 	0.59338 0.44557 0.63577 -0.07300
H 	H 	0.78292 0.17313 0.63725 0.06800
C 	C 	0.09202 0.05105 0.63005 -0.01000
C 	C 	0.04227 0.57307 0.63881 -0.09900
C 	C 	0.86015 0.29108 0.64169 -0.07200
H 	H 	0.30489 0.47360 0.62866 0.04900
C 	C 	0.24857 0.34907 0.63303 -0.07000
C 	C 	0.66135 0.78018 0.64627 0.02400
C 	C 	0.61545 0.47850 0.65007 0.02600
C 	C 	0.08893 0.03298 0.64443 0.08800
H 	H 	0.02345 0.91181 0.64867 -0.01900
C 	C 	0.06195 0.59383 0.65321 -0.00900
H 	H 	0.69121 0.91056 0.65024 0.00100
C 	C 	0.87593 0.31414 0.65615 0.01900
H 	H 	0.60716 0.37412 0.65702 0.03100
C 	C 	0.65805 0.64766 0.65526 -0.10000
H 	H 	0.14306 0.70974 0.65751 0.03900
C 	C 	0.24787 0.33043 0.64750 0.03200
C 	C 	0.17024 0.17075 0.65326 -0.12700
C 	C 	0.97283 0.46917 0.66199 -0.06700
H 	H 	0.80859 0.21484 0.66273 0.03000
H 	H 	0.30718 0.43979 0.65415 0.03300
C 	C 	0.73486 0.69151 0.66870 0.29700
O 	O 	0.87170 0.79224 0.66897 -0.39000
C 	C 	0.17321 0.14525 0.66844 0.37000
C 	C 	0.96540 0.51305 0.67682 0.29100
O 	O 	0.16979 0.99659 0.67303 -0.45500
O 	O 	0.66350 0.64716 0.68014 -0.42100
O 	O 	0.06519 0.65107 0.68225 -0.44500
O 	O 	0.84640 0.43148 0.68361 -0.42800
O 	O 	0.20690 0.27786 0.67711 -0.40900
H 	H 	0.87389 0.06997 0.68241 0.17400
Ni	Ni	0.01221 0.85985 0.68593 1.07000
O 	O 	0.93970 0.05765 0.68989 -0.64700
Ni	Ni	0.73787 0.54173 0.69629 1.07400
O 	O 	0.88985 0.76023 0.70188 -0.70900
Ni	Ni	0.09164 0.28101 0.69491 1.06900
O 	O 	0.58888 0.58549 0.70914 -0.40900
H 	H 	0.95096 0.73950 0.70944 0.15900
Ni	Ni	0.82928 0.96332 0.70675 1.06800
O 	O 	0.18957 0.15418 0.70725 -0.39500
O 	O 	0.78825 0.17700 0.71197 -0.40200
C 	C 	0.62636 0.66601 0.72126 0.28800
O 	O 	0.02043 0.36953 0.71221 -0.44700
C 	C 	0.13519 0.08885 0.71922 0.23300
C 	C 	0.89297 0.30655 0.71792 0.31500
O 	O 	0.69690 0.83267 0.72188 -0.40400
O 	O 	0.99553 0.03870 0.72135 -0.31500
H 	H 	0.19675 0.35368 0.73742 0.03600
C 	C 	0.55722 0.58248 0.73384 -0.09800
H 	H 	0.47649 0.78258 0.73907 0.02100
H 	H 	0.00181 0.61784 0.73134 -0.02400
C 	C 	0.22971 0.12014 0.73159 -0.01200
H 	H 	0.61263 0.35599 0.73169 0.02800
C 	C 	0.22639 0.24767 0.74103 0.00400
C 	C 	0.50275 0.67518 0.74288 0.02100
C 	C 	0.58461 0.43910 0.73880 0.02000
C 	C 	0.88608 0.34397 0.73287 -0.11200
H 	H 	0.27556 0.88726 0.72923 0.02200
C 	C 	0.95925 0.51117 0.73827 0.05900
C 	C 	0.27323 0.98720 0.73637 -0.05500
H 	H 	0.77295 0.07920 0.73822 0.06200
C 	C 	0.24216 0.22696 0.75526 -0.07600
C 	C 	0.83210 0.20762 0.74210 0.03100
H 	H 	0.22785 0.31903 0.76252 0.05000
C 	C 	0.58414 0.40941 0.75310 -0.06900
C 	C 	0.50166 0.64548 0.75710 -0.08000
C 	C 	0.98255 0.53970 0.75266 -0.05000
C 	C 	0.29606 0.97100 0.75061 -0.12600
H 	H 	0.60857 0.30123 0.75698 0.06000
H 	H 	0.47192 0.72794 0.76416 0.04000
H 	H 	0.03884 0.66880 0.75672 0.01800
C 	C 	0.54974 0.51869 0.76230 0.04600
C 	C 	0.27790 0.08913 0.76008 0.10200
C 	C 	0.86026 0.23530 0.75639 -0.07000
H 	H 	0.31897 0.86119 0.75432 0.04700
C 	C 	0.93575 0.40107 0.76171 0.05000
H 	H 	0.82219 0.12771 0.76333 0.06800
C 	C 	0.29672 0.07009 0.77474 -0.03900
C 	C 	0.57649 0.51354 0.77698 -0.03200
C 	C 	0.96583 0.42743 0.77648 -0.04000
C 	C 	0.31159 0.05838 0.78709 0.01800
C 	C 	0.59986 0.52578 0.78934 -0.00100
C 	C 	0.98798 0.44146 0.78891 0.04700
C 	C 	0.32826 0.04967 0.80161 0.00300
C 	C 	0.62814 0.55781 0.80369 -0.00100
C 	C 	0.01016 0.44974 0.80352 -0.05500
C 	C 	0.34198 0.04642 0.81404 -0.02200
C 	C 	0.65309 0.59769 0.81578 -0.03300
C 	C 	0.02545 0.45096 0.81601 -0.01100
C 	C 	0.35789 0.04766 0.82892 0.04900
H 	H 	0.15829 0.08779 0.83233 0.05200
H 	H 	0.87009 0.19723 0.83241 0.05200
H 	H 	0.56100 0.00753 0.82892 0.06100
C 	C 	0.68466 0.64614 0.83019 0.04200
H 	H 	0.91499 0.75744 0.82774 0.05200
C 	C 	0.25454 0.07658 0.83712 -0.07300
H 	H 	0.46101 0.55345 0.83575 0.05000
C 	C 	0.03934 0.44610 0.83095 0.00600
C 	C 	0.48112 0.03122 0.83521 -0.07100
C 	C 	0.94737 0.30559 0.83809 -0.04700
C 	C 	0.82730 0.73639 0.83475 -0.07800
C 	C 	0.57175 0.62190 0.83926 -0.07900
H 	H 	0.21484 0.69068 0.83293 0.04000
C 	C 	0.27746 0.09710 0.85150 0.02700
C 	C 	0.14070 0.58410 0.83840 -0.07000
C 	C 	0.50442 0.05215 0.84959 0.02200
H 	H 	0.19930 0.12553 0.85770 0.04500
C 	C 	0.95239 0.30595 0.85260 0.03100
C 	C 	0.85711 0.80237 0.84832 0.01300
C 	C 	0.40433 0.08942 0.85778 -0.09800
H 	H 	0.87836 0.19799 0.85796 -0.00800
C 	C 	0.60123 0.68846 0.85282 0.00300
H 	H 	0.60378 0.04874 0.85426 0.01100
H 	H 	0.96786 0.86986 0.85180 0.03400
H 	H 	0.51322 0.66671 0.85980 0.02200
C 	C 	0.14489 0.58589 0.85295 0.01900
C 	C 	0.74432 0.77908 0.85744 -0.11300
C 	C 	0.04845 0.44835 0.86015 -0.12100
C 	C 	0.44337 0.14924 0.87225 0.29800
H 	H 	0.22154 0.69490 0.85860 0.03700
H 	H 	0.73467 0.48796 0.87060 0.16000
O 	O 	0.41134 0.27905 0.87690 -0.36800
O 	O 	0.52927 0.09211 0.87977 -0.38500
C 	C 	0.77717 0.82794 0.87223 0.26200
C 	C 	0.03835 0.45972 0.87541 0.27200
Ni	Ni	0.74532 0.22671 0.88177 1.07400
O 	O 	0.73591 0.45833 0.88050 -0.69700
O 	O 	0.96867 0.31994 0.88216 -0.35800
O 	O 	0.89683 0.82418 0.87812 -0.37000
O 	O 	0.68010 0.85578 0.87983 -0.45200
O 	O 	0.05799 0.60955 0.88127 -0.36000
Ni	Ni	0.55594 0.45663 0.88975 1.09800
Ni	Ni	0.89433 0.64066 0.89232 1.10400
O 	O 	0.38573 0.49252 0.89907 -0.35400
O 	O 	0.53586 0.26705 0.90399 -0.36200
O 	O 	0.75123 0.22873 0.90303 -0.44000
O 	O 	0.71355 0.63418 0.90203 -0.69300
O 	O 	0.47868 0.78252 0.90221 -0.38900
Ni	Ni	0.70117 0.86644 0.90095 1.06400
C 	C 	0.40437 0.62944 0.90675 0.30400
C 	C 	0.64685 0.24469 0.91025 0.28800
O 	O 	0.91662 0.00335 0.90111 -0.35100
O 	O 	0.04049 0.82585 0.90471 -0.36600
H 	H 	0.71498 0.59887 0.91180 0.15500
C 	C 	0.00676 0.95678 0.90883 0.24400
C 	C 	0.35360 0.61027 0.92059 -0.10400
C 	C 	0.64185 0.20814 0.92480 -0.11100
C 	C 	0.02648 0.00688 0.92326 -0.08100
C 	C 	0.31672 0.59178 0.93242 0.02900
C 	C 	0.63658 0.17809 0.93704 0.03300
C 	C 	0.03540 0.04154 0.93551 0.00600
C 	C 	0.28075 0.57043 0.94647 0.03800
C 	C 	0.03999 0.07112 0.95000 0.03300
C 	C 	0.62831 0.14316 0.95138 0.03200
C 	C 	0.04184 0.08475 0.96248 -0.13600
C 	C 	0.25638 0.55533 0.95864 -0.13000
C 	C 	0.61857 0.11279 0.96361 -0.09700
C 	C 	0.04457 0.08478 0.97738 0.28900
H 	H 	0.30611 0.94211 0.97406 0.15200
O 	O 	0.10977 0.53157 0.97800 -0.40100
C 	C 	0.23510 0.54410 0.97326 0.31700
O 	O 	0.97972 0.93782 0.98339 -0.36600
O 	O 	0.15442 0.19909 0.98405 -0.35800
Ni	Ni	0.06406 0.75030 0.98201 1.06500
O 	O 	0.26978 0.90470 0.98339 -0.69700
C 	C 	0.60272 0.07475 0.97811 0.30200
O 	O 	0.34784 0.58646 0.98178 -0.36500
O 	O 	0.56785 0.91509 0.98208 -0.37200
O 	O 	0.63426 0.20083 0.98731 -0.40000
Ni	Ni	0.28583 0.10950 0.99576 1.10000
Ni	Ni	0.39665 0.79898 0.99453 1.09800
O 	O 	0.05546 0.70168 0.00285 -0.41100
O 	O 	0.11523 0.98572 0.00796 -0.37700
