data_crystal

_cell_length_a 17.43955
_cell_length_b 13.02898
_cell_length_c 36.34555
_cell_angle_alpha 89.87741
_cell_angle_beta  89.88028
_cell_angle_gamma 119.44031

_symmetry_space_group_name_	'P 1'
_symmetry_space_group_name_H-M	'P 1'

loop_
_symmetry_equiv_pos_as_xyz
  x,y,z

loop_
_atom_site_label
_atom_site_type_symbol
_atom_site_fract_x
_atom_site_fract_y
_atom_site_fract_z
_atom_site_charge
Ni	Ni	0.12396 0.97097 0.75847 1.10000
Ni	Ni	0.15582 0.22821 0.72597 1.11600
O 	O 	0.07995 0.07105 0.74380 -0.69000
H 	H 	0.07531 0.09787 0.76850 0.14600
C 	C 	0.14267 0.64167 0.56773 -0.04700
H 	H 	0.14524 0.76866 0.62393 0.09000
H 	H 	0.19630 0.38615 0.59235 0.04500
C 	C 	0.04377 0.57923 0.02745 -0.09600
C 	C 	0.03030 0.51059 0.96430 -0.03200
H 	H 	0.05586 0.52506 0.93641 0.04500
S 	S 	0.11565 0.98290 0.86883 -0.07600
H 	H 	0.15544 0.09876 0.87924 0.06100
C 	C 	0.97786 0.00001 0.17769 0.32900
C 	C 	0.99184 0.71738 0.23117 0.28600
C 	C 	0.97212 0.83457 0.32585 0.27000
Ni	Ni	0.01882 0.94968 0.25285 1.11700
C 	C 	0.98660 0.01117 0.13690 -0.10000
C 	C 	0.96617 0.10034 0.08136 -0.03800
C 	C 	0.99106 0.82542 0.36547 -0.06100
H 	H 	0.97344 0.05261 0.39198 0.02900
C 	C 	0.13228 0.57324 0.53597 -0.10500
H 	H 	0.20114 0.67149 0.58448 0.04900
C 	C 	0.07271 0.60072 0.99061 0.09400
O 	O 	0.09347 0.28919 0.75999 -0.37800
O 	O 	0.01632 0.95078 0.19644 -0.39500
O 	O 	0.02224 0.93583 0.30802 -0.37600
C 	C 	0.03738 0.65419 0.21675 -0.05200
C 	C 	0.99007 0.53206 0.21028 -0.04500
C 	C 	0.01802 0.23807 0.30056 -0.04200
C 	C 	0.01955 0.30367 0.36325 0.06400
H 	H 	0.00495 0.22793 0.42992 0.05100
C 	C 	0.01313 0.70439 0.41037 0.05200
S 	S 	0.14864 0.39491 0.62098 -0.04500
C 	C 	0.03430 0.47249 0.19804 0.05800
C 	C 	0.08416 0.80643 0.42555 -0.07700
C 	C 	0.04547 0.92620 0.38668 0.01300
H 	H 	0.19398 0.90220 0.17485 0.03100
C 	C 	0.26822 0.19165 0.78458 0.28900
C 	C 	0.26063 0.12537 0.70045 0.29500
O 	O 	0.19785 0.09798 0.79610 -0.37800
O 	O 	0.26048 0.26685 0.76177 -0.37100
O 	O 	0.23746 0.03794 0.72443 -0.35700
O 	O 	0.20251 0.15505 0.68993 -0.37900
C 	C 	0.16756 0.80658 0.43212 0.28700
C 	C 	0.45406 0.73292 0.48164 0.30300
C 	C 	0.21115 0.58871 0.51655 0.30100
C 	C 	0.15330 0.48199 0.38662 0.30000
Ni	Ni	0.31776 0.81174 0.47507 1.11000
Ni	Ni	0.28955 0.55439 0.44761 1.12100
Ni	Ni	0.27879 0.73493 0.38941 1.12100
O 	O 	0.19480 0.80324 0.46636 -0.36000
O 	O 	0.22165 0.83215 0.40376 -0.37200
O 	O 	0.44319 0.82598 0.47724 -0.37400
O 	O 	0.38544 0.62773 0.48570 -0.37600
O 	O 	0.16168 0.58865 0.38528 -0.38900
O 	O 	0.36136 0.95359 0.43997 -0.38400
O 	O 	0.18977 0.44850 0.41303 -0.37600
O 	O 	0.28182 0.69259 0.51822 -0.38000
O 	O 	0.20429 0.51114 0.49106 -0.37300
O 	O 	0.27942 0.69144 0.43938 -0.71200
H 	H 	0.21583 0.65175 0.44458 0.15200
C 	C 	0.16334 0.51162 0.15982 0.31400
C 	C 	0.11207 0.26338 0.06969 0.30500
C 	C 	0.10671 0.58169 0.05433 0.32000
C 	C 	0.35510 0.76234 0.03127 0.27600
Ni	Ni	0.26207 0.42587 0.11317 1.11400
Ni	Ni	0.26376 0.67325 0.10108 1.11700
Ni	Ni	0.22036 0.49753 0.03441 1.12200
O 	O 	0.30839 0.35969 0.07002 -0.36500
O 	O 	0.17280 0.68076 0.06678 -0.38100
O 	O 	0.21824 0.46993 0.16161 -0.36300
O 	O 	0.15666 0.55820 0.12943 -0.38700
O 	O 	0.28351 0.67159 0.01585 -0.36900
O 	O 	0.13235 0.32112 0.10026 -0.37500
O 	O 	0.15477 0.31626 0.03941 -0.36600
O 	O 	0.35798 0.78331 0.06699 -0.38800
O 	O 	0.35411 0.69122 0.14200 -0.37000
O 	O 	0.11382 0.48867 0.05568 -0.40000
O 	O 	0.27679 0.54728 0.08088 -0.71000
H 	H 	0.34011 0.58709 0.07476 0.16500
O 	O 	0.03674 0.80931 0.25203 -0.37900
O 	O 	0.03219 0.11357 0.25514 -0.35600
C 	C 	0.05824 0.00993 0.11961 0.03400
C 	C 	0.08903 0.06780 0.08575 0.01000
C 	C 	0.05327 0.13577 0.07156 -0.05700
S 	S 	0.17957 0.06882 0.06447 -0.00600
H 	H 	0.15058 0.97734 0.04005 0.01800
H 	H 	0.09337 0.97176 0.13342 0.01800
C 	C 	0.12653 0.53476 0.19302 -0.08400
C 	C 	0.17363 0.64833 0.20740 -0.02400
C 	C 	0.13072 0.71329 0.21381 0.03500
S 	S 	0.19280 0.86829 0.21066 -0.05900
H 	H 	0.24495 0.69416 0.20592 0.04300
C 	C 	0.10463 0.39937 0.35728 -0.08700
C 	C 	0.14375 0.41765 0.32255 -0.01200
C 	C 	0.10205 0.33719 0.29435 0.02500
S 	S 	0.15591 0.36264 0.25150 -0.00300
H 	H 	0.21014 0.31428 0.25161 0.04100
H 	H 	0.20802 0.49358 0.31768 0.04800
C 	C 	0.08979 0.91527 0.41743 -0.01000
S 	S 	0.04948 0.06119 0.37822 0.01400
H 	H 	0.13703 0.99365 0.43190 0.03800
H 	H 	0.53598 0.80708 0.54696 0.04500
H 	H 	0.60728 0.77644 0.59820 0.08200
C 	C 	0.35562 0.20707 0.69123 -0.07500
C 	C 	0.38055 0.32227 0.67909 -0.02100
C 	C 	0.46641 0.39849 0.66665 0.04200
C 	C 	0.42129 0.17343 0.69407 0.04000
S 	S 	0.49368 0.54100 0.65205 -0.04700
S 	S 	0.39473 0.02822 0.70552 -0.02500
H 	H 	0.40842 0.02098 0.74227 0.04200
H 	H 	0.46637 0.53565 0.61644 0.04300
H 	H 	0.33278 0.35265 0.67904 0.03100
N 	N 	0.14330 0.70496 0.98080 -0.19800
H 	H 	0.17271 0.77373 0.99974 0.09800
H 	H 	0.16739 0.71950 0.95383 0.08500
C 	C 	0.40362 0.92820 0.98624 -0.08500
H 	H 	0.33506 0.90086 0.98106 0.05200
H 	H 	0.38075 0.07798 0.94663 0.09400
C 	C 	0.39504 0.34808 0.98686 0.11700
N 	N 	0.32120 0.24249 0.98231 -0.20200
H 	H 	0.42375 0.37389 0.92886 0.04700
H 	H 	0.30197 0.20567 0.95614 0.08800
H 	H 	0.28384 0.19504 0.00494 0.10400
C 	C 	0.43749 0.29384 0.77995 0.03800
C 	C 	0.35590 0.19832 0.79171 -0.07000
C 	C 	0.35663 0.10179 0.80949 -0.03300
C 	C 	0.43639 0.10703 0.81938 0.05400
S 	S 	0.44658 0.42829 0.76532 -0.03700
S 	S 	0.43461 0.99113 0.84490 -0.07800
H 	H 	0.43752 0.91133 0.82126 0.03500
H 	H 	0.45795 0.49772 0.79534 0.03700
H 	H 	0.29523 0.02384 0.81659 0.04700
N 	N 	0.09644 0.75398 0.60470 -0.20000
O 	O 	0.32152 0.48004 0.01991 -0.39300
H 	H 	0.03613 0.62562 0.85213 0.04700
H 	H 	0.07829 0.46767 0.78454 0.04300
O 	O 	0.32826 0.64448 0.36410 -0.40400
N 	N 	0.44644 0.10891 0.95388 -0.20300
C 	C 	0.08175 0.68085 0.57576 0.11300
C 	C 	0.44390 0.41174 0.95607 -0.04300
N 	N 	0.62028 0.71927 0.58266 -0.20000
H 	H 	0.49356 0.34148 0.46120 0.09000
O 	O 	0.38525 0.58423 0.41052 -0.38900
C 	C 	0.58143 0.26065 0.84138 0.29200
C 	C 	0.59675 0.48924 0.94395 0.30600
O 	O 	0.58436 0.35280 0.85727 -0.38500
O 	O 	0.63634 0.54641 0.91279 -0.36900
C 	C 	0.59727 0.40129 0.63683 0.29300
O 	O 	0.58590 0.32629 0.61100 -0.38800
O 	O 	0.60179 0.22680 0.55001 -0.37200
C 	C 	0.41728 0.96879 0.41401 0.29300
C 	C 	0.39245 0.63249 0.37779 0.30700
O 	O 	0.40146 0.88067 0.39188 -0.38900
C 	C 	0.34856 0.41797 0.03898 0.30100
C 	C 	0.41082 0.64849 0.14095 0.28300
O 	O 	0.38538 0.53875 0.13153 -0.37600
C 	C 	0.50405 0.69430 0.19642 0.03400
C 	C 	0.49794 0.71207 0.15842 -0.07100
S 	S 	0.42175 0.68246 0.22701 -0.02700
H 	H 	0.44625 0.79072 0.24192 0.03600
C 	C 	0.47129 0.66742 0.35503 -0.08300
S 	S 	0.45161 0.44544 0.36596 -0.03400
H 	H 	0.48162 0.44226 0.40052 0.03600
C 	C 	0.59537 0.08308 0.46987 -0.03900
C 	C 	0.57741 0.16726 0.48601 -0.10100
C 	C 	0.53580 0.21656 0.46427 0.11100
C 	C 	0.50916 0.17464 0.42825 -0.04300
C 	C 	0.50576 0.06908 0.41784 -0.08700
H 	H 	0.47381 0.20796 0.41212 0.05300
N 	N 	0.52015 0.30161 0.47795 -0.20200
H 	H 	0.53040 0.32496 0.50569 0.10800
C 	C 	0.63885 0.64985 0.52307 -0.08400
C 	C 	0.60877 0.71271 0.54564 0.10300
C 	C 	0.56317 0.76531 0.52953 -0.04000
C 	C 	0.54071 0.74836 0.49230 -0.09800
C 	C 	0.58225 0.70314 0.46927 0.10700
H 	H 	0.63329 0.66016 0.59674 0.09700
C 	C 	0.52943 0.36072 0.66629 -0.07800
C 	C 	0.50873 0.25422 0.68423 -0.02700
H 	H 	0.55837 0.22724 0.68593 0.03800
C 	C 	0.42490 0.85622 0.00782 -0.06100
C 	C 	0.51494 0.89429 0.01509 0.06700
C 	C 	0.55979 0.07845 0.98134 -0.10200
C 	C 	0.46984 0.03946 0.97340 0.14400
H 	H 	0.49262 0.19529 0.94675 0.09400
H 	H 	0.49236 0.73633 0.04013 0.08600
C 	C 	0.52905 0.50532 0.96105 -0.09700
C 	C 	0.50154 0.49657 0.02672 -0.04200
C 	C 	0.41645 0.40240 0.02175 -0.09500
C 	C 	0.51655 0.20841 0.81145 -0.07700
C 	C 	0.51537 0.28844 0.78559 -0.02300
H 	H 	0.57745 0.36194 0.77662 0.04200
O 	O 	0.62575 0.43105 0.96372 -0.39800
O 	O 	0.08182 0.23800 0.68437 -0.37500
C 	C 	0.50636 0.59162 0.34947 0.03700
H 	H 	0.06448 0.80362 0.60684 0.10800
C 	C 	0.55075 0.55990 0.99591 0.11400
C 	C 	0.56831 0.04557 0.43378 0.13500
C 	C 	0.63065 0.17506 0.95908 0.28900
Ni	Ni	0.69990 0.49185 0.87368 1.11300
O 	O 	0.64506 0.23074 0.84661 -0.36200
O 	O 	0.63913 0.15170 0.92433 -0.38000
O 	O 	0.69327 0.27347 0.97552 -0.37300
O 	O 	0.69752 0.38325 0.90826 -0.71100
H 	H 	0.63426 0.33101 0.91292 0.17200
C 	C 	0.63346 0.23491 0.51656 0.32200
C 	C 	0.69085 0.59665 0.53850 0.29200
Ni	Ni	0.67898 0.28888 0.59636 1.11900
O 	O 	0.71683 0.29341 0.51065 -0.39500
O 	O 	0.69307 0.50897 0.52042 -0.36700
O 	O 	0.74880 0.65457 0.56462 -0.37500
O 	O 	0.65531 0.51470 0.63227 -0.38600
C 	C 	0.57330 0.67854 0.20982 -0.02000
C 	C 	0.57012 0.73448 0.13587 -0.03100
H 	H 	0.57542 0.66049 0.23876 0.05500
H 	H 	0.56743 0.75111 0.10680 0.03600
C 	C 	0.62868 0.74691 0.31511 -0.07900
C 	C 	0.58452 0.63154 0.32944 -0.02600
C 	C 	0.51176 0.77897 0.33833 -0.03100
C 	C 	0.59245 0.82167 0.32030 0.04000
H 	H 	0.61049 0.57231 0.32461 0.04600
H 	H 	0.48197 0.83457 0.34056 0.04500
N 	N 	0.60231 0.98802 0.41475 -0.21300
H 	H 	0.63674 0.05523 0.48410 0.06400
H 	H 	0.58481 0.96467 0.38739 0.09100
H 	H 	0.65040 0.97258 0.42648 0.08200
C 	C 	0.62737 0.64922 0.48484 -0.04700
N 	N 	0.58066 0.71382 0.43225 -0.20200
H 	H 	0.65558 0.60969 0.46702 0.05100
H 	H 	0.61181 0.68111 0.41512 0.08800
H 	H 	0.55270 0.76061 0.42045 0.09700
C 	C 	0.03597 0.29575 0.61407 0.06800
H 	H 	0.69846 0.42812 0.73369 0.04300
C 	C 	0.58102 0.00609 0.00269 0.00100
H 	H 	0.64962 0.03365 0.00798 0.04300
N 	N 	0.53845 0.82354 0.03376 -0.19200
H 	H 	0.60412 0.85424 0.04100 0.07600
H 	H 	0.52164 0.53459 0.05391 0.04500
N 	N 	0.62629 0.66364 0.00054 -0.20100
H 	H 	0.66499 0.70996 0.97796 0.10000
H 	H 	0.77523 0.04508 0.74530 0.03800
H 	H 	0.75193 0.25610 0.78700 0.05300
S 	S 	0.72339 0.82390 0.90684 -0.04900
H 	H 	0.73325 0.91738 0.92754 0.03300
H 	H 	0.01084 0.42402 0.58759 0.06300
H 	H 	0.64663 0.69916 0.02679 0.08300
O 	O 	0.04986 0.83120 0.72411 -0.38200
H 	H 	0.02067 0.61522 0.71485 0.05200
S 	S 	0.77831 0.65702 0.76796 -0.04800
H 	H 	0.80807 0.67075 0.80343 0.04100
O 	O 	0.73401 0.31673 0.64814 -0.38000
Ni	Ni	0.74143 0.44425 0.95572 1.12200
Ni	Ni	0.73168 0.27263 0.89166 1.11900
O 	O 	0.78826 0.62288 0.94820 -0.37200
O 	O 	0.75980 0.45781 0.82834 -0.37200
Ni	Ni	0.79040 0.46097 0.52914 1.11100
Ni	Ni	0.77577 0.57580 0.60731 1.11900
O 	O 	0.75631 0.22515 0.57584 -0.36600
O 	O 	0.75946 0.44264 0.57930 -0.71000
C 	C 	0.70974 0.78526 0.29337 0.28800
C 	C 	0.64002 0.68734 0.18603 -0.08400
C 	C 	0.63419 0.70728 0.14832 0.04000
S 	S 	0.65035 0.97133 0.30715 -0.07600
C 	C 	0.76901 0.46960 0.72972 -0.02700
S 	S 	0.80511 0.08358 0.78017 -0.04200
C 	C 	0.82716 0.84793 0.89273 0.02600
H 	H 	0.81971 0.91368 0.83903 0.04300
S 	S 	0.02167 0.62322 0.81501 -0.03500
O 	O 	0.72084 0.84792 0.26266 -0.37800
C 	C 	0.83207 0.67765 0.91823 0.30800
O 	O 	0.82343 0.61702 0.88896 -0.37900
C 	C 	0.77461 0.41940 0.66647 0.28500
C 	C 	0.72638 0.71279 0.20141 0.30700
O 	O 	0.73037 0.65281 0.23004 -0.37100
S 	S 	0.69709 0.67944 0.11597 -0.05000
C 	C 	0.82332 0.30199 0.78713 -0.03300
C 	C 	0.82603 0.43791 0.83344 0.30900
H 	H 	0.81260 0.44728 0.58998 0.14500
O 	O 	0.76052 0.73896 0.30174 -0.38700
S 	S 	0.78296 0.01836 0.56178 0.00400
C 	C 	0.80325 0.42180 0.70434 -0.06800
C 	C 	0.82341 0.58640 0.74150 0.05000
C 	C 	0.86075 0.89864 0.85815 -0.02600
C 	C 	0.05461 0.53113 0.51601 0.11500
O 	O 	0.81791 0.52141 0.64940 -0.38800
H 	H 	0.70698 0.03614 0.33468 0.05600
C 	C 	0.87342 0.80582 0.91394 -0.07700
C 	C 	0.86718 0.23872 0.78029 0.04700
O 	O 	0.85948 0.47868 0.94006 -0.40200
O 	O 	0.83558 0.40228 0.86538 -0.38600
O 	O 	0.82450 0.29139 0.93010 -0.37700
C 	C 	0.84103 0.28984 0.56685 0.27100
O 	O 	0.87635 0.63855 0.53427 -0.38700
O 	O 	0.79404 0.81358 0.19334 -0.39600
H 	H 	0.76577 0.94534 0.10833 0.01800
H 	H 	0.81275 0.99173 0.53028 0.02100
H 	H 	0.82073 0.28177 0.04552 0.09000
H 	H 	0.81840 0.22211 0.00074 0.10600
C 	C 	0.86874 0.41439 0.80236 -0.07400
C 	C 	0.02828 0.15023 0.66278 0.32000
H 	H 	0.78225 0.76971 0.11478 0.04200
O 	O 	0.87027 0.38711 0.54562 -0.35600
N 	N 	0.84553 0.29378 0.01870 -0.20200
Ni	Ni	0.83664 0.94552 0.23156 1.10600
S 	S 	0.83116 0.02202 0.13115 -0.02900
C 	C 	0.87260 0.12782 0.58642 0.02200
C 	C 	0.87969 0.39702 0.94320 0.32300
O 	O 	0.90819 0.66553 0.59390 -0.36800
O 	O 	0.92474 0.95983 0.78367 -0.38500
Ni	Ni	0.83688 0.71271 0.26544 1.11800
H 	H 	0.96247 0.39592 0.48278 0.09000
H 	H 	0.88884 0.00174 0.61936 0.05000
C 	C 	0.93488 0.66980 0.55968 0.30000
O 	O 	0.92038 0.83192 0.71915 -0.38300
C 	C 	0.91385 0.64533 0.73141 -0.07300
C 	C 	0.89349 0.45898 0.70818 0.04000
C 	C 	0.94561 0.92221 0.84772 -0.07800
O 	O 	0.89406 0.08782 0.26720 -0.35700
C 	C 	0.90305 0.24896 0.57961 -0.05200
H 	H 	0.88941 0.90530 0.28170 0.14900
O 	O 	0.95949 0.15911 0.73481 -0.39100
C 	C 	0.91681 0.09382 0.61186 -0.00900
C 	C 	0.91524 0.39802 0.00819 0.10800
C 	C 	0.96493 0.86492 0.90951 -0.04000
O 	O 	0.89416 0.87834 0.25696 -0.71900
H 	H 	0.91649 0.63542 0.36727 0.05200
Ni	Ni	0.95940 0.00498 0.72951 1.12400
H 	H 	0.92950 0.47891 0.06131 0.04900
C 	C 	0.96061 0.29857 0.77803 -0.09000
C 	C 	0.96981 0.93242 0.80790 0.26900
H 	H 	0.91065 0.15079 0.33924 0.05500
C 	C 	0.96176 0.47603 0.80020 0.02300
H 	H 	0.04808 0.37216 0.50059 0.10800
N 	N 	0.02153 0.42804 0.49722 -0.19200
C 	C 	0.96383 0.77613 0.72709 0.30000
O 	O 	0.92238 0.73449 0.30726 -0.37000
H 	H 	0.91926 0.48389 0.21401 0.05500
O 	O 	0.90527 0.67042 0.22884 -0.37800
C 	C 	0.95022 0.57629 0.71884 -0.02100
C 	C 	0.94512 0.41627 0.97138 -0.11600
H 	H 	0.95505 0.57014 0.49896 0.01900
O 	O 	0.93732 0.04695 0.19531 -0.36900
O 	O 	0.02060 0.88865 0.79669 -0.36600
H 	H 	0.93052 0.13580 0.06647 0.04900
H 	H 	0.95414 0.31336 0.14925 0.04800
O 	O 	0.98786 0.04068 0.67548 -0.37900
S 	S 	0.93786 0.37823 0.68762 -0.01600
C 	C 	0.95653 0.49056 0.03374 -0.05300
C 	C 	0.00139 0.91796 0.87543 0.05500
H 	H 	0.00531 0.85130 0.92942 0.04900
S 	S 	0.97323 0.32281 0.18606 -0.03000
C 	C 	0.97953 0.14016 0.27420 0.26800
C 	C 	0.93424 0.04511 0.11555 0.05400
C 	C 	0.96642 0.71444 0.38058 -0.03900
C 	C 	0.97552 0.22575 0.33446 -0.05600
S 	S 	0.99195 0.56399 0.42371 -0.06500
C 	C 	0.00663 0.58990 0.51875 -0.02900
S 	S 	0.96933 0.27687 0.40698 -0.06600
C 	C 	0.00574 0.24106 0.75920 0.30700
C 	C 	0.01122 0.65220 0.55110 -0.10400
C 	C 	0.98674 0.33148 0.59227 -0.05900
H 	H 	0.97846 0.43649 0.65595 0.03800
C 	C 	0.00725 0.41878 0.78726 -0.00200
H 	H 	0.99060 0.50547 0.39234 0.05100
C 	C 	0.99605 0.17883 0.62795 -0.09500
