data_crystal

_cell_length_a 15.39795
_cell_length_b 19.22910
_cell_length_c 49.33987
_cell_angle_alpha 90.42529
_cell_angle_beta  90.43324
_cell_angle_gamma 119.44862

_symmetry_space_group_name_	'P 1'
_symmetry_space_group_name_H-M	'P 1'

loop_
_symmetry_equiv_pos_as_xyz
  x,y,z

loop_
_atom_site_label
_atom_site_type_symbol
_atom_site_fract_x
_atom_site_fract_y
_atom_site_fract_z
_atom_site_charge
C 	C 	0.61477 0.31070 0.97917 0.28900
C 	C 	0.45717 0.21266 0.86804 0.40900
C 	C 	0.43672 0.11161 0.94565 0.34200
C 	C 	0.63109 0.42943 0.89630 0.39100
Ni	Ni	0.50065 0.27463 0.92454 1.12100
Ni	Ni	0.65693 0.21315 0.93960 1.12800
O 	O 	0.52678 0.28385 0.96661 -0.36000
O 	O 	0.45208 0.26386 0.88467 -0.33400
O 	O 	0.54206 0.21326 0.86447 -0.31700
O 	O 	0.41897 0.15109 0.92693 -0.34200
O 	O 	0.52427 0.14317 0.95787 -0.36400
O 	O 	0.57489 0.39719 0.91793 -0.34500
O 	O 	0.63792 0.38405 0.87683 -0.33900
O 	O 	0.62144 0.12525 0.91202 -0.34300
O 	O 	0.62131 0.27685 0.91808 -0.71900
C 	C 	0.46263 0.30478 0.67334 0.29900
C 	C 	0.38439 0.08355 0.69369 0.40700
Ni	Ni	0.51121 0.18808 0.64993 1.12600
Ni	Ni	0.54843 0.24157 0.71304 1.14100
O 	O 	0.59833 0.17279 0.73123 -0.30000
O 	O 	0.42501 0.23436 0.66137 -0.35600
O 	O 	0.59070 0.28646 0.62703 -0.38200
O 	O 	0.40865 0.15007 0.70737 -0.34800
O 	O 	0.41667 0.08545 0.66869 -0.33300
O 	O 	0.58012 0.13125 0.63250 -0.34900
O 	O 	0.51062 0.31887 0.69674 -0.32100
O 	O 	0.60133 0.22542 0.67992 -0.71900
H 	H 	0.59372 0.17239 0.68340 0.17100
C 	C 	0.05163 0.91173 0.75603 0.41400
C 	C 	0.07595 0.96977 0.82723 0.38500
O 	O 	0.05062 0.97047 0.76973 -0.33100
O 	O 	0.06174 0.89736 0.82053 -0.29700
O 	O 	0.00608 0.98974 0.82325 -0.31900
O 	O 	0.00077 0.83747 0.76413 -0.32200
C 	C 	0.44114 0.69292 0.47878 0.30800
C 	C 	0.55704 0.78332 0.36624 0.40300
C 	C 	0.60937 0.88969 0.44407 0.34600
C 	C 	0.38945 0.56775 0.39597 0.38500
C 	C 	0.35931 0.85836 0.39256 0.42100
C 	C 	0.18991 0.65195 0.42575 0.30200
Ni	Ni	0.53475 0.72442 0.42229 1.12300
Ni	Ni	0.34691 0.70183 0.38477 1.13800
Ni	Ni	0.38680 0.78949 0.44257 1.13000
O 	O 	0.52462 0.71928 0.46469 -0.35500
O 	O 	0.37332 0.71472 0.47309 -0.36300
O 	O 	0.30244 0.78413 0.38433 -0.35100
O 	O 	0.56665 0.73187 0.38139 -0.33400
O 	O 	0.47080 0.78189 0.36454 -0.31200
O 	O 	0.23786 0.72753 0.43431 -0.34500
O 	O 	0.61865 0.84803 0.42432 -0.34500
O 	O 	0.52650 0.86074 0.45798 -0.36200
O 	O 	0.21709 0.62898 0.40334 -0.31300
O 	O 	0.45637 0.60117 0.41592 -0.33400
O 	O 	0.37859 0.61211 0.37714 -0.33200
O 	O 	0.41049 0.87460 0.41546 -0.34200
O 	O 	0.41305 0.72346 0.41914 -0.71700
H 	H 	0.37063 0.67168 0.42773 0.15500
C 	C 	0.32875 0.79344 0.23101 0.38000
C 	C 	0.32110 0.67701 0.12093 0.31500
C 	C 	0.30690 0.58242 0.21312 0.40100
C 	C 	0.31099 0.82325 0.13967 0.28700
C 	C 	0.56390 0.69585 0.16947 0.31600
C 	C 	0.62231 0.90914 0.19507 0.41100
Ni	Ni	0.27008 0.69405 0.17912 1.12100
Ni	Ni	0.49190 0.80323 0.15119 1.12700
Ni	Ni	0.47556 0.74542 0.21298 1.13900
O 	O 	0.25909 0.72633 0.21923 -0.32000
O 	O 	0.42181 0.80689 0.23447 -0.30500
O 	O 	0.59074 0.76617 0.15909 -0.35200
O 	O 	0.25095 0.65079 0.13933 -0.35300
O 	O 	0.41461 0.70407 0.12790 -0.37900
O 	O 	0.60890 0.84314 0.20681 -0.35400
O 	O 	0.26188 0.58710 0.19112 -0.33200
O 	O 	0.35929 0.64613 0.22813 -0.33800
O 	O 	0.58263 0.90679 0.17090 -0.33500
O 	O 	0.26572 0.79121 0.16265 -0.34200
O 	O 	0.40879 0.85214 0.13676 -0.35000
O 	O 	0.51867 0.67555 0.19304 -0.31800
O 	O 	0.41002 0.75915 0.18190 -0.71900
H 	H 	0.41313 0.81000 0.18682 0.17400
C 	C 	0.22756 0.03671 0.25953 0.39000
C 	C 	0.24162 0.26963 0.34285 0.39700
C 	C 	0.23307 0.04145 0.33095 0.41100
C 	C 	0.23612 0.29823 0.26711 0.38400
Ni	Ni	0.28224 0.18462 0.29701 1.13300
O 	O 	0.29951 0.10428 0.27081 -0.29800
O 	O 	0.13347 0.02016 0.25917 -0.32400
O 	O 	0.30402 0.27733 0.32349 -0.31000
O 	O 	0.14747 0.21440 0.34085 -0.32500
O 	O 	0.27390 0.11939 0.33108 -0.33200
O 	O 	0.16680 0.99718 0.31229 -0.31500
O 	O 	0.29121 0.26238 0.26654 -0.30900
O 	O 	0.18196 0.29274 0.28868 -0.33000
O 	O 	0.14284 0.13451 0.29225 -0.72100
H 	H 	0.14023 0.14088 0.27252 0.17600
C 	C 	0.35491 0.42813 0.24652 0.28400
C 	C 	0.25792 0.36285 0.24789 -0.17600
C 	C 	0.17900 0.36651 0.23472 0.27800
C 	C 	0.19566 0.43689 0.22202 0.29000
C 	C 	0.29152 0.50428 0.22242 -0.19000
C 	C 	0.37161 0.49859 0.23399 0.28300
F 	F 	0.46511 0.56241 0.23401 -0.37500
F 	F 	0.43207 0.42520 0.25891 -0.35500
F 	F 	0.11768 0.44089 0.21066 -0.36500
C 	C 	0.69760 0.01670 0.22935 0.29000
C 	C 	0.70682 0.98406 0.20471 -0.18200
C 	C 	0.80252 0.00406 0.19561 0.28900
F 	F 	0.60656 0.00196 0.23779 -0.33600
F 	F 	0.81368 0.97800 0.17092 -0.37900
C 	C 	0.35943 0.93358 0.22825 0.29500
C 	C 	0.30403 0.85610 0.23869 -0.17500
C 	C 	0.21976 0.83688 0.25439 0.29500
C 	C 	0.19215 0.89479 0.26007 0.29300
C 	C 	0.25102 0.97371 0.25101 -0.16300
C 	C 	0.33470 0.99269 0.23501 0.29700
F 	F 	0.39002 0.06758 0.22522 -0.35400
F 	F 	0.43321 0.95026 0.21028 -0.36900
F 	F 	0.10860 0.87429 0.27457 -0.36900
F 	F 	0.16426 0.76189 0.26410 -0.35100
C 	C 	0.67702 0.92866 0.36129 0.29200
C 	C 	0.64641 0.84898 0.35397 -0.18100
C 	C 	0.70951 0.83170 0.33842 0.28800
F 	F 	0.61620 0.94636 0.37606 -0.36400
F 	F 	0.67963 0.75531 0.33057 -0.35000
C 	C 	0.24424 0.43569 0.38438 0.27800
C 	C 	0.34649 0.48181 0.39038 -0.18800
C 	C 	0.40941 0.44935 0.38586 0.28800
C 	C 	0.37244 0.37532 0.37264 0.28600
C 	C 	0.27268 0.33385 0.36349 -0.17800
C 	C 	0.20736 0.36218 0.37089 0.28100
F 	F 	0.10959 0.32126 0.36343 -0.36900
F 	F 	0.18158 0.46443 0.39015 -0.38200
F 	F 	0.43464 0.34565 0.36759 -0.35700
F 	F 	0.50780 0.49195 0.39255 -0.36500
C 	C 	0.37271 0.93486 0.35119 0.29500
C 	C 	0.34951 0.92146 0.37879 -0.18200
C 	C 	0.29745 0.95568 0.39128 0.28800
C 	C 	0.26193 0.99736 0.37577 0.28900
C 	C 	0.27842 0.00503 0.34776 -0.18300
C 	C 	0.33713 0.97634 0.33572 0.29400
F 	F 	0.35835 0.98760 0.30893 -0.36500
F 	F 	0.42578 0.90431 0.33909 -0.34800
F 	F 	0.20803 0.02737 0.38774 -0.36600
F 	F 	0.27575 0.94408 0.41805 -0.38100
C 	C 	0.67541 0.12782 0.58398 0.01700
C 	C 	0.72464 0.12903 0.56028 -0.05700
C 	C 	0.84195 0.06466 0.48611 0.01000
C 	C 	0.87367 0.03701 0.50821 -0.01800
C 	C 	0.88769 0.07423 0.53357 -0.03100
C 	C 	0.76719 0.00656 0.46816 0.08000
C 	C 	0.69756 0.95465 0.45577 -0.07400
H 	H 	0.59856 0.11470 0.58270 0.05100
H 	H 	0.68435 0.11427 0.54110 0.06100
H 	H 	0.87310 0.98053 0.50671 0.05800
H 	H 	0.89747 0.04602 0.55137 0.06000
C 	C 	0.02592 0.55476 0.45188 0.08200
C 	C 	0.09940 0.59709 0.43904 -0.05000
H 	H 	0.58677 0.35362 0.58151 0.04400
C 	C 	0.44768 0.36721 0.66086 -0.05500
C 	C 	0.52817 0.44519 0.65902 0.02800
C 	C 	0.52386 0.49847 0.64067 -0.04800
C 	C 	0.43882 0.47413 0.62418 0.03600
C 	C 	0.35449 0.39935 0.62824 -0.04900
C 	C 	0.35885 0.34610 0.64653 0.02500
C 	C 	0.44399 0.52020 0.59995 0.01300
C 	C 	0.37664 0.54888 0.59639 -0.03000
C 	C 	0.37406 0.58431 0.57196 -0.02200
C 	C 	0.43868 0.59115 0.55101 0.00400
C 	C 	0.50724 0.56403 0.55476 -0.02400
C 	C 	0.50988 0.52862 0.57911 -0.03200
C 	C 	0.43535 0.62628 0.52569 0.05900
C 	C 	0.43585 0.65612 0.50429 -0.07900
H 	H 	0.59651 0.46267 0.67037 0.06200
H 	H 	0.58863 0.55684 0.63810 0.07300
H 	H 	0.28780 0.38057 0.61597 0.06300
H 	H 	0.29516 0.28680 0.64842 0.07100
H 	H 	0.32533 0.54248 0.61234 0.06700
H 	H 	0.32132 0.60571 0.56924 0.06000
H 	H 	0.55774 0.56953 0.53868 0.05400
H 	H 	0.56134 0.50584 0.58154 0.05000
F 	F 	0.56088 0.02227 0.70810 -0.36300
C 	C 	0.20218 0.99332 0.69313 0.28200
C 	C 	0.29687 0.01079 0.70291 -0.17000
C 	C 	0.30412 0.97686 0.72735 0.28600
C 	C 	0.22074 0.93761 0.74386 0.29700
C 	C 	0.12968 0.93166 0.73593 -0.17800
C 	C 	0.11900 0.95524 0.70986 0.29500
F 	F 	0.02967 0.94584 0.70143 -0.36100
F 	F 	0.19305 0.02185 0.66881 -0.37500
F 	F 	0.23054 0.91155 0.76860 -0.35300
F 	F 	0.39439 0.99052 0.73664 -0.33400
C 	C 	0.06835 0.43424 0.96609 -0.02000
C 	C 	0.09176 0.51451 0.96711 0.01500
C 	C 	0.14541 0.56411 0.99095 0.02300
C 	C 	0.09384 0.58504 0.00973 -0.04100
C 	C 	0.13562 0.61508 0.03528 -0.02300
C 	C 	0.22966 0.62537 0.04213 -0.00500
C 	C 	0.28420 0.60962 0.02281 -0.01900
C 	C 	0.24225 0.57914 0.99725 -0.03800
C 	C 	0.26551 0.64460 0.06965 0.05800
C 	C 	0.29240 0.65946 0.09297 -0.09600
H 	H 	0.10264 0.41217 0.98036 0.05700
H 	H 	0.09322 0.62740 0.05009 0.04300
H 	H 	0.35742 0.61815 0.02791 0.05400
H 	H 	0.28302 0.56381 0.98281 0.06600
C 	C 	0.25601 0.83955 0.11857 -0.06300
C 	C 	0.29773 0.91573 0.10725 0.02400
C 	C 	0.26012 0.92670 0.08281 -0.05100
C 	C 	0.18113 0.86135 0.06935 0.03100
C 	C 	0.13315 0.78690 0.08202 -0.05200
C 	C 	0.17012 0.77615 0.10668 0.01400
C 	C 	0.16280 0.86777 0.04038 0.01000
C 	C 	0.19827 0.83413 0.02107 -0.03100
C 	C 	0.22536 0.86807 0.99542 -0.02100
C 	C 	0.21734 0.93568 0.98918 0.01400
C 	C 	0.16363 0.95854 0.00645 -0.02100
C 	C 	0.13647 0.92467 0.03212 -0.03000
C 	C 	0.28859 0.99387 0.97121 0.07300
C 	C 	0.35403 0.04608 0.95836 -0.06700
H 	H 	0.36254 0.96553 0.11663 0.06700
H 	H 	0.29679 0.98478 0.07338 0.06200
H 	H 	0.07063 0.73653 0.07210 0.05400
H 	H 	0.13601 0.71739 0.11560 0.04700
H 	H 	0.21556 0.78807 0.02690 0.04900
H 	H 	0.26284 0.84756 0.98167 0.06700
H 	H 	0.15296 0.00853 0.00128 0.06200
H 	H 	0.10483 0.94862 0.04650 0.06100
C 	C 	0.62864 0.34827 0.00628 -0.06900
C 	C 	0.72488 0.39906 0.01679 0.01900
C 	C 	0.73714 0.43659 0.04209 -0.05600
C 	C 	0.65331 0.42418 0.05697 0.03400
C 	C 	0.55737 0.37206 0.04670 -0.05700
C 	C 	0.54509 0.33402 0.02164 0.02000
C 	C 	0.66527 0.47121 0.08198 0.00900
C 	C 	0.61275 0.43282 0.10544 -0.02600
C 	C 	0.60292 0.47736 0.12657 -0.02100
C 	C 	0.64722 0.56053 0.12461 0.01400
C 	C 	0.70773 0.59941 0.10245 -0.02700
C 	C 	0.71644 0.55498 0.08116 -0.03100
C 	C 	0.61779 0.60440 0.14260 0.06700
C 	C 	0.59278 0.64418 0.15596 -0.05400
H 	H 	0.81160 0.47642 0.04986 0.05300
H 	H 	0.49215 0.36249 0.05786 0.06000
H 	H 	0.47044 0.29383 0.01409 0.05100
H 	H 	0.57506 0.36828 0.10664 0.06200
H 	H 	0.55709 0.44688 0.14380 0.07600
H 	H 	0.74330 0.66383 0.10097 0.05900
H 	H 	0.75809 0.58546 0.06334 0.04900
F 	F 	0.59372 0.10088 0.83380 -0.35400
C 	C 	0.30673 0.17075 0.83898 0.29400
C 	C 	0.36543 0.14990 0.85515 -0.18600
C 	C 	0.33052 0.06942 0.86148 0.29400
C 	C 	0.23540 0.01067 0.85283 0.28800
C 	C 	0.17551 0.03168 0.83705 -0.16800
C 	C 	0.21291 0.11198 0.82964 0.28300
F 	F 	0.15910 0.13284 0.81299 -0.35800
F 	F 	0.34078 0.24821 0.83228 -0.34200
F 	F 	0.20054 0.93377 0.86037 -0.35000
F 	F 	0.38743 0.04850 0.87683 -0.36800
F 	F 	0.49435 0.47210 0.87369 -0.35500
C 	C 	0.04920 0.54278 0.94793 -0.01000
H 	H 	0.06918 0.60524 0.94798 0.07600
H 	H 	0.01908 0.57373 0.00508 0.05500
O 	O 	0.68217 0.29131 0.97058 -0.36800
C 	C 	0.66296 0.13896 0.88799 0.41600
Ni	Ni	0.67293 0.29515 0.88231 1.13600
H 	H 	0.66661 0.32961 0.92618 0.15700
C 	C 	0.68239 0.31017 0.61910 0.29400
C 	C 	0.67751 0.15588 0.63343 0.28800
C 	C 	0.77957 0.05478 0.24696 0.29200
F 	F 	0.76780 0.07886 0.27194 -0.34800
C 	C 	0.80400 0.89276 0.33124 0.28500
C 	C 	0.77233 0.98981 0.35448 0.29100
F 	F 	0.86288 0.87506 0.31558 -0.38200
C 	C 	0.72593 0.14604 0.60907 -0.06900
C 	C 	0.65272 0.35408 0.57378 0.02000
H 	H 	0.64195 0.40013 0.53497 0.06100
H 	H 	0.79004 0.41060 0.00521 0.04400
C 	C 	0.63921 0.06284 0.84516 0.29500
F 	F 	0.64201 0.00774 0.80198 -0.35800
C 	C 	0.65960 0.51211 0.88963 -0.19500
C 	C 	0.59246 0.52798 0.87528 0.29400
C 	C 	0.68395 0.38043 0.54736 -0.05900
C 	C 	0.66498 0.07372 0.87284 -0.18500
C 	C 	0.83721 0.97197 0.33990 -0.18200
F 	F 	0.80258 0.06593 0.36274 -0.35200
C 	C 	0.70906 0.33159 0.59044 -0.07900
F 	F 	0.56131 0.61452 0.84766 -0.35100
C 	C 	0.88436 0.04090 0.21341 0.28600
O 	O 	0.67421 0.33605 0.72787 -0.33400
C 	C 	0.82493 0.14777 0.56124 0.02900
C 	C 	0.87200 0.13985 0.53639 0.00800
C 	C 	0.85230 0.14120 0.48769 -0.02300
C 	C 	0.64255 0.03761 0.72320 0.29500
O 	O 	0.71648 0.21238 0.87923 -0.35200
C 	C 	0.68794 0.18140 0.72601 0.37900
O 	O 	0.72977 0.18335 0.65624 -0.35100
C 	C 	0.87125 0.06151 0.23975 -0.17200
F 	F 	0.59779 0.90009 0.72015 -0.35400
C 	C 	0.66391 0.01541 0.82893 0.29400
C 	C 	0.62733 0.59951 0.86120 0.27800
H 	H 	0.83473 0.16607 0.47023 0.07000
Ni	Ni	0.74111 0.28353 0.67569 1.11900
O 	O 	0.75517 0.33059 0.63699 -0.35500
C 	C 	0.82620 0.16372 0.61012 0.01700
C 	C 	0.86866 0.17948 0.51294 -0.03100
C 	C 	0.66335 0.97570 0.72848 0.29900
C 	C 	0.70863 0.11592 0.73226 -0.17200
C 	C 	0.72528 0.39949 0.71326 0.39500
C 	C 	0.77111 0.38375 0.53733 0.03300
C 	C 	0.87540 0.16459 0.58627 -0.05700
O 	O 	0.75826 0.24719 0.71447 -0.32400
C 	C 	0.75902 0.57246 0.89285 0.28300
O 	O 	0.76315 0.39321 0.69030 -0.33600
C 	C 	0.79469 0.33316 0.58004 0.01900
C 	C 	0.70857 0.03158 0.88457 0.29000
H 	H 	0.86639 0.17778 0.62928 0.05700
F 	F 	0.82163 0.56145 0.90945 -0.41000
O 	O 	0.80145 0.27377 0.92771 -0.35300
O 	O 	0.80953 0.36974 0.89803 -0.33800
C 	C 	0.81321 0.42291 0.51128 0.01000
H 	H 	0.80829 0.31880 0.49270 0.05200
C 	C 	0.79868 0.13265 0.74504 0.29000
C 	C 	0.71379 0.97788 0.84029 -0.17700
O 	O 	0.70038 0.85876 0.82042 -0.31700
C 	C 	0.82675 0.54876 0.71718 0.28100
C 	C 	0.73797 0.47753 0.72241 -0.19300
C 	C 	0.73054 0.65409 0.86039 -0.16100
O 	O 	0.71161 0.70415 0.81708 -0.29400
C 	C 	0.82475 0.35811 0.55361 -0.06100
H 	H 	0.82832 0.53653 0.52357 0.05300
C 	C 	0.75255 0.99208 0.74179 -0.18300
F 	F 	0.73287 0.04085 0.91137 -0.38500
O 	O 	0.69817 0.86540 0.76336 -0.30600
C 	C 	0.84138 0.62153 0.72787 0.28000
H 	H 	0.86453 0.23392 0.51470 0.04400
C 	C 	0.73282 0.98370 0.86830 0.27900
C 	C 	0.79476 0.64342 0.87833 0.27000
Ni	Ni	0.72435 0.79366 0.79043 1.13400
O 	O 	0.74648 0.73438 0.75802 -0.32800
C 	C 	0.83642 0.38248 0.49125 -0.02700
H 	H 	0.83918 0.31648 0.59265 0.04100
F 	F 	0.08533 0.30291 0.23522 -0.36400
C 	C 	0.66190 0.48088 0.73708 0.27800
Ni	Ni	0.07398 0.18829 0.30480 1.14400
F 	F 	0.57562 0.41307 0.74241 -0.37600
C 	C 	0.82160 0.07156 0.74927 0.29600
C 	C 	0.75241 0.93803 0.82258 0.38400
C 	C 	0.76724 0.62388 0.74362 -0.19000
C 	C 	0.77180 0.71265 0.83800 0.36600
Ni	Ni	0.06637 0.02229 0.29380 1.15100
C 	C 	0.67604 0.55385 0.74719 0.28500
C 	C 	0.76918 0.92576 0.75036 0.40400
C 	C 	0.84623 0.34868 0.91900 0.28000
C 	C 	0.79317 0.69325 0.76128 0.41300
C 	C 	0.84668 0.50479 0.50846 -0.02900
F 	F 	0.60360 0.55560 0.76222 -0.35800
O 	O 	0.82028 0.98251 0.80430 -0.31600
F 	F 	0.77896 0.94602 0.87955 -0.37600
H 	H 	0.89221 0.36062 0.54613 0.05200
O 	O 	0.84161 0.69976 0.78397 -0.35200
C 	C 	0.93802 0.03619 0.33266 0.39900
F 	F 	0.86400 0.20820 0.75349 -0.35600
O 	O 	0.86017 0.93786 0.75191 -0.33800
F 	F 	0.97466 0.05195 0.20566 -0.37200
C 	C 	0.94829 0.08130 0.26052 0.38900
H 	H 	0.85742 0.86501 0.81858 0.17300
C 	C 	0.90145 0.42517 0.47034 -0.01900
O 	O 	0.86125 0.85628 0.79904 -0.72800
O 	O 	0.87052 0.75807 0.83625 -0.31300
O 	O 	0.94922 0.10396 0.32325 -0.30900
O 	O 	0.94836 0.02093 0.27390 -0.32800
C 	C 	0.91057 0.54718 0.48736 -0.02000
F 	F 	0.90091 0.54702 0.70301 -0.37200
H 	H 	0.97362 0.31825 0.94860 0.06900
H 	H 	0.92392 0.39427 0.45598 0.07300
C 	C 	0.94280 0.40724 0.93137 -0.03600
F 	F 	0.91012 0.08945 0.76115 -0.39800
F 	F 	0.89172 0.70079 0.88135 -0.36600
H 	H 	0.95237 0.17788 0.58727 0.06000
C 	C 	0.94174 0.50816 0.46899 0.00500
F 	F 	0.92956 0.68922 0.72402 -0.37100
H 	H 	0.94033 0.61118 0.48624 0.06000
Ni	Ni	0.92995 0.96372 0.78820 1.14600
C 	C 	0.99441 0.38085 0.94824 -0.00900
Ni	Ni	0.94100 0.80617 0.80105 1.13300
H 	H 	0.94137 0.51134 0.91570 0.10900
O 	O 	0.99552 0.15595 0.27000 -0.31600
C 	C 	0.97570 0.48937 0.92989 -0.01100
O 	O 	0.01000 0.01934 0.33024 -0.33600
