data_crystal

_cell_length_a 15.63266
_cell_length_b 15.96871
_cell_length_c 35.04208
_cell_angle_alpha 95.38519
_cell_angle_beta  95.38625
_cell_angle_gamma 126.69439

_symmetry_space_group_name_	'P 1'
_symmetry_space_group_name_H-M	'P 1'

loop_
_symmetry_equiv_pos_as_xyz
  x,y,z

loop_
_atom_site_label
_atom_site_type_symbol
_atom_site_fract_x
_atom_site_fract_y
_atom_site_fract_z
_atom_site_charge
C 	C 	0.01628 0.91023 0.97151 -0.04900
C 	C 	0.06995 0.01752 0.97031 0.00700
C 	C 	0.01310 0.05927 0.96853 -0.05300
H 	H 	0.06151 0.87871 0.97259 0.04700
H 	H 	0.05608 0.14300 0.96759 0.05100
C 	C 	0.04286 0.10477 0.49874 -0.04800
C 	C 	0.08616 0.04853 0.49679 0.00300
C 	C 	0.01907 0.93943 0.49608 -0.04500
H 	H 	0.09442 0.18950 0.49883 0.04500
H 	H 	0.05232 0.89613 0.49443 0.04700
C 	C 	0.90172 0.99463 0.96854 0.01100
C 	C 	0.84600 0.88495 0.96971 -0.05500
C 	C 	0.90465 0.84290 0.97096 0.00900
H 	H 	0.75955 0.83383 0.96973 0.04700
C 	C 	0.93177 0.04980 0.50030 -0.00100
C 	C 	0.90963 0.88563 0.49756 0.00000
C 	C 	0.86595 0.94039 0.49996 -0.04700
H 	H 	0.78038 0.89765 0.50093 0.04700
Cu	Cu	0.77454 0.33841 0.96002 0.92300
Cu	Cu	0.73846 0.23823 0.04005 0.86500
Cu	Cu	0.60774 0.29944 0.00864 0.89400
Cu	Cu	0.56932 0.32458 0.92534 0.90100
C 	C 	0.70425 0.30571 0.87730 0.29000
O 	O 	0.83040 0.49500 0.96060 -0.35100
C 	C 	0.66641 0.31969 0.09415 0.28200
O 	O 	0.60572 0.25342 0.95473 -0.63100
O 	O 	0.76006 0.35091 0.01502 -0.64900
O 	O 	0.83805 0.25865 0.96443 -0.36300
O 	O 	0.70641 0.13980 0.99561 -0.43700
O 	O 	0.66244 0.35465 0.88566 -0.38600
O 	O 	0.46230 0.25973 0.00079 -0.38900
C 	C 	0.39132 0.20920 0.96780 0.31600
C 	C 	0.77382 0.52894 0.97024 0.28500
O 	O 	0.67098 0.46001 0.97207 -0.39400
O 	O 	0.41935 0.23734 0.93433 -0.39400
O 	O 	0.76504 0.30236 0.90486 -0.36100
C 	C 	0.78170 0.16460 0.97509 0.29600
O 	O 	0.60939 0.32473 0.06517 -0.37800
O 	O 	0.74047 0.30705 0.08812 -0.42200
H 	H 	0.55917 0.17525 0.94621 0.16000
H 	H 	0.81233 0.42335 0.03095 0.17100
Cu	Cu	0.60247 0.19591 0.50918 0.92600
Cu	Cu	0.69222 0.21163 0.42724 0.86800
Cu	Cu	0.64986 0.35795 0.45809 0.89800
Cu	Cu	0.60622 0.39037 0.53728 0.89800
C 	C 	0.62836 0.26703 0.59110 0.28900
O 	O 	0.44329 0.13445 0.50888 -0.36000
C 	C 	0.62004 0.28905 0.37261 0.28400
O 	O 	0.68923 0.36066 0.51237 -0.63800
O 	O 	0.58550 0.20504 0.45354 -0.64200
O 	O 	0.67724 0.12873 0.50608 -0.37100
O 	O 	0.79547 0.24731 0.47139 -0.44300
O 	O 	0.58144 0.31017 0.58076 -0.38600
O 	O 	0.72186 0.50880 0.46492 -0.38800
C 	C 	0.72884 0.56945 0.49532 0.31700
C 	C 	0.40411 0.18226 0.49553 0.29900
O 	O 	0.47083 0.28045 0.49072 -0.40300
O 	O 	0.67028 0.53006 0.52261 -0.39800
O 	O 	0.64193 0.21333 0.56464 -0.36200
C 	C 	0.77049 0.17772 0.49391 0.30500
O 	O 	0.62944 0.35621 0.40127 -0.37800
O 	O 	0.62087 0.20975 0.37956 -0.42100
H 	H 	0.76823 0.40847 0.52301 0.16400
H 	H 	0.51028 0.15629 0.43844 0.17400
C 	C 	0.74668 0.26165 0.68944 -0.06100
C 	C 	0.67305 0.25208 0.71227 0.01900
C 	C 	0.58257 0.24285 0.69481 -0.06100
C 	C 	0.56679 0.24522 0.65514 0.01200
C 	C 	0.64155 0.25721 0.63238 -0.08200
C 	C 	0.73080 0.26387 0.64960 0.01000
C 	C 	0.69316 0.25713 0.75486 0.02000
H 	H 	0.52539 0.23565 0.71216 0.04600
H 	H 	0.49669 0.23835 0.64213 0.03700
H 	H 	0.78898 0.27298 0.63238 0.03500
H 	H 	0.81664 0.26850 0.70260 0.04600
C 	C 	0.61459 0.17335 0.77180 -0.06100
C 	C 	0.62248 0.18645 0.81237 0.01000
C 	C 	0.70935 0.28299 0.83631 -0.08300
C 	C 	0.79187 0.36394 0.81959 0.01800
C 	C 	0.78383 0.35111 0.77902 -0.06200
H 	H 	0.54501 0.09992 0.75348 0.04600
H 	H 	0.55859 0.12331 0.82502 0.02200
H 	H 	0.85945 0.43872 0.83787 0.03500
H 	H 	0.84527 0.41610 0.76631 0.04600
C 	C 	0.53495 0.29114 0.18216 -0.06300
C 	C 	0.62451 0.33955 0.21271 0.01800
C 	C 	0.72912 0.39195 0.20411 -0.06400
C 	C 	0.74348 0.39093 0.16532 0.01000
C 	C 	0.65331 0.33717 0.13466 -0.08500
C 	C 	0.54932 0.29013 0.14328 0.00800
C 	C 	0.60797 0.32618 0.25328 0.01700
H 	H 	0.79889 0.43007 0.22743 0.04200
H 	H 	0.82441 0.42933 0.15910 0.03000
H 	H 	0.47914 0.24894 0.11994 0.03300
H 	H 	0.45396 0.25151 0.18847 0.04400
C 	C 	0.66153 0.41560 0.28335 -0.06200
C 	C 	0.66024 0.40328 0.32240 0.00800
C 	C 	0.60552 0.30137 0.33172 -0.08600
C 	C 	0.54642 0.21174 0.30150 0.01000
C 	C 	0.54784 0.22411 0.26252 -0.06300
H 	H 	0.70712 0.49473 0.27654 0.04400
H 	H 	0.70556 0.47312 0.34536 0.03500
H 	H 	0.50193 0.13255 0.30822 0.03000
H 	H 	0.50563 0.15449 0.23957 0.04200
C 	C 	0.84249 0.77383 0.49651 0.04700
C 	C 	0.78957 0.68017 0.49576 -0.11300
C 	C 	0.83302 0.13884 0.49785 -0.11800
C 	C 	0.88232 0.10262 0.49957 0.04100
C 	C 	0.29263 0.13779 0.49550 -0.10800
C 	C 	0.19936 0.10120 0.49596 0.04000
C 	C 	0.85226 0.73074 0.97105 0.03200
C 	C 	0.81755 0.63915 0.97091 -0.09500
C 	C 	0.84828 0.04455 0.96933 0.03100
C 	C 	0.81602 0.09767 0.97101 -0.10600
C 	C 	0.18371 0.08483 0.97008 0.04500
C 	C 	0.27889 0.14161 0.96940 -0.11200
