data_crystal

_cell_length_a 20.98348
_cell_length_b 21.69355
_cell_length_c 39.71155
_cell_angle_alpha 60.30857
_cell_angle_beta  119.46011
_cell_angle_gamma 133.36508

_symmetry_space_group_name_	'P 1'
_symmetry_space_group_name_H-M	'P 1'

loop_
_symmetry_equiv_pos_as_xyz
  x,y,z

loop_
_atom_site_label
_atom_site_type_symbol
_atom_site_fract_x
_atom_site_fract_y
_atom_site_fract_z
_atom_site_charge
Co	Co	0.00276 0.85467 0.60166 1.18600
O 	O 	0.00855 0.89277 0.99445 -0.36800
O 	O 	0.00181 0.93857 0.20007 -0.34600
Br	Br	0.00124 0.33385 0.01506 -0.16000
Co	Co	0.01459 0.09572 0.07484 1.18300
C 	C 	0.01524 0.96422 0.97015 0.31500
Co	Co	0.01709 0.86672 0.10615 1.18500
O 	O 	0.01564 0.01247 0.98215 -0.37100
O 	O 	0.01797 0.76721 0.06995 -0.39900
C 	C 	0.99657 0.97409 0.24870 -0.04600
C 	C 	0.02529 0.99120 0.92938 -0.04700
C 	C 	0.03178 0.98001 0.86276 0.04100
C 	C 	0.03543 0.97097 0.82849 0.04100
O 	O 	0.99184 0.75813 0.55636 -0.37500
C 	C 	0.03572 0.94928 0.32121 -0.04900
C 	C 	0.94036 0.99244 0.24516 0.05300
H 	H 	0.07346 0.93334 0.35053 0.07500
H 	H 	0.90805 0.01540 0.21601 0.00900
C 	C 	0.93126 0.98847 0.27897 -0.01800
H 	H 	0.88842 0.00383 0.27528 0.04600
Br	Br	0.83206 0.71993 0.97282 -0.15100
C 	C 	0.04380 0.95179 0.28711 0.01400
H 	H 	0.08923 0.93975 0.29057 0.06500
O 	O 	0.97706 0.15566 0.62018 -0.37800
Co	Co	0.97698 0.06240 0.57903 1.18300
Br	Br	0.82856 0.55437 0.64100 -0.12400
O 	O 	0.06563 0.93635 0.06666 -0.73600
O 	O 	0.02506 0.91801 0.55631 -0.74500
C 	C 	0.97993 0.96863 0.31712 0.03300
C 	C 	0.73509 0.28815 0.03646 0.17400
N 	N 	0.64909 0.23348 0.04116 -0.11700
C 	C 	0.61543 0.26478 0.04512 0.18500
N 	N 	0.66897 0.34829 0.04727 -0.12600
C 	C 	0.75533 0.40232 0.04463 0.18200
N 	N 	0.78800 0.37363 0.03771 -0.11200
C 	C 	0.69868 0.25092 0.54629 0.18100
N 	N 	0.75913 0.33184 0.55377 -0.11600
C 	C 	0.72851 0.37201 0.55245 0.18600
N 	N 	0.63886 0.33120 0.54439 -0.12400
C 	C 	0.57905 0.24850 0.54016 0.18600
N 	N 	0.60869 0.20899 0.54022 -0.11500
C 	C 	0.29967 0.66825 0.15029 0.17600
N 	N 	0.24254 0.59896 0.13342 -0.11500
C 	C 	0.27705 0.57007 0.12800 0.18300
N 	N 	0.36727 0.61464 0.13606 -0.12300
C 	C 	0.42392 0.67773 0.15587 0.18100
N 	N 	0.39003 0.70433 0.16332 -0.11400
C 	C 	0.28444 0.66871 0.63343 0.18000
N 	N 	0.37422 0.70670 0.64132 -0.11400
C 	C 	0.40081 0.66701 0.63888 0.18800
N 	N 	0.33844 0.58761 0.63079 -0.12400
C 	C 	0.24938 0.54844 0.62327 0.18500
N 	N 	0.22168 0.58932 0.62400 -0.11600
Co	Co	0.95249 0.92959 0.13944 1.19700
Co	Co	0.07467 0.03178 0.04103 1.17600
C 	C 	0.93379 0.73156 0.06628 0.34800
Co	Co	0.10671 0.89904 0.04586 1.17800
Co	Co	0.93613 0.07062 0.13746 1.17700
C 	C 	0.24968 0.09158 0.03742 0.34300
O 	O 	0.03718 0.07374 0.18666 -0.38700
O 	O 	0.97385 0.03095 0.11640 -0.75600
C 	C 	0.02095 0.99918 0.21197 0.30700
O 	O 	0.95483 0.83073 0.14600 -0.41200
O 	O 	0.06274 0.12560 0.03121 -0.43700
C 	C 	0.10259 0.23932 0.11109 0.34000
O 	O 	0.03550 0.99031 0.09681 -0.55800
C 	C 	0.78636 0.88167 0.14549 0.33600
C 	C 	0.17204 0.84835 0.13179 0.31900
O 	O 	0.19918 0.90937 0.09967 -0.36500
O 	O 	0.11094 0.83283 0.14352 -0.33200
O 	O 	0.02029 0.20167 0.11111 -0.39100
O 	O 	0.11836 0.20545 0.09847 -0.35400
O 	O 	0.84588 0.94262 0.16490 -0.37500
O 	O 	0.81396 0.86827 0.12759 -0.35200
C 	C 	0.86173 0.11355 0.05140 0.32800
O 	O 	0.83841 0.05968 0.08510 -0.37200
O 	O 	0.91086 0.11536 0.03818 -0.34700
O 	O 	0.91488 0.76701 0.07610 -0.35700
O 	O 	0.19891 0.02812 0.01993 -0.41300
O 	O 	0.21279 0.10756 0.04820 -0.36400
Co	Co	0.94563 0.90360 0.64593 1.19000
Co	Co	0.03752 0.01461 0.53630 1.17600
C 	C 	0.91404 0.71173 0.56449 0.33800
Co	Co	0.06107 0.89013 0.52765 1.18200
Co	Co	0.90430 0.02304 0.64830 1.16900
C 	C 	0.20074 0.07850 0.52145 0.33200
O 	O 	0.01493 0.04117 0.69447 -0.39400
O 	O 	0.94119 0.99201 0.62155 -0.72000
C 	C 	0.02018 0.97535 0.71761 0.31200
O 	O 	0.96834 0.82082 0.65122 -0.41600
O 	O 	0.02946 0.10564 0.53385 -0.43600
C 	C 	0.05869 0.20074 0.61633 0.32800
O 	O 	0.96488 0.94491 0.58486 -0.54600
C 	C 	0.77493 0.82950 0.66116 0.33800
C 	C 	0.16021 0.85720 0.61028 0.31700
C 	C 	0.95435 0.94845 0.46039 0.31500
O 	O 	0.02248 0.93355 0.70270 -0.36200
O 	O 	0.17109 0.90922 0.57461 -0.35900
O 	O 	0.11926 0.85379 0.62919 -0.34300
O 	O 	0.07867 0.16725 0.60584 -0.36900
O 	O 	0.82690 0.89318 0.67866 -0.37500
O 	O 	0.81083 0.81524 0.64865 -0.35100
O 	O 	0.94907 0.87735 0.48427 -0.35900
O 	O 	0.97815 0.00738 0.47519 -0.36300
C 	C 	0.81542 0.06064 0.56437 0.31800
O 	O 	0.79948 0.00229 0.59855 -0.38200
O 	O 	0.87074 0.07901 0.54776 -0.33800
O 	O 	0.90091 0.74066 0.58148 -0.34600
O 	O 	0.13894 0.02205 0.49960 -0.40100
O 	O 	0.17473 0.08435 0.54338 -0.37400
C 	C 	0.96600 0.89497 0.81401 -0.03200
C 	C 	0.11065 0.03714 0.81146 -0.06400
C 	C 	0.11398 0.02929 0.77936 0.00800
C 	C 	0.03923 0.95919 0.76145 -0.05400
C 	C 	0.96835 0.88907 0.78085 0.03000
H 	H 	0.16558 0.09577 0.82229 0.07600
H 	H 	0.17162 0.08173 0.76623 0.07000
H 	H 	0.91246 0.83227 0.76885 0.06800
H 	H 	0.90970 0.84109 0.82792 0.07600
C 	C 	0.95133 0.95577 0.86458 -0.03000
C 	C 	0.94796 0.96052 0.89788 0.04000
C 	C 	0.10658 0.02065 0.92592 -0.00500
C 	C 	0.10946 0.01362 0.89352 -0.06100
H 	H 	0.89107 0.93174 0.84075 0.07400
H 	H 	0.88418 0.93607 0.90005 0.06800
H 	H 	0.16606 0.04195 0.95001 0.06500
H 	H 	0.17172 0.03153 0.89319 0.06900
C 	C 	0.97173 0.96796 0.35277 0.07100
C 	C 	0.04415 0.03366 0.37356 -0.08100
C 	C 	0.03442 0.03562 0.40566 -0.01500
C 	C 	0.95289 0.97054 0.41809 -0.02700
C 	C 	0.87878 0.90888 0.39534 0.02300
C 	C 	0.88825 0.90721 0.36316 -0.04800
H 	H 	0.10802 0.08300 0.36505 0.07400
H 	H 	0.09182 0.08499 0.42210 0.06600
H 	H 	0.81518 0.85873 0.40409 0.07100
H 	H 	0.83090 0.85782 0.34668 0.07800
C 	C 	0.16502 0.44144 0.58391 0.08400
C 	C 	0.18495 0.45713 0.61956 -0.04100
C 	C 	0.17158 0.38936 0.65477 0.08200
C 	C 	0.14668 0.30993 0.65520 0.11400
C 	C 	0.12395 0.29306 0.61942 -0.10200
C 	C 	0.14014 0.36168 0.58443 0.11600
Br	Br	0.14070 0.35103 0.53929 -0.13900
Br	Br	0.17287 0.52981 0.53454 -0.11900
Br	Br	0.15337 0.22858 0.70526 -0.18700
Br	Br	0.19415 0.40795 0.70335 -0.13100
C 	C 	0.64269 0.74166 0.68930 0.11900
C 	C 	0.67586 0.77221 0.65680 -0.10600
C 	C 	0.61620 0.76269 0.61868 0.12200
C 	C 	0.52649 0.72981 0.61267 0.08700
C 	C 	0.49730 0.71021 0.64427 -0.03800
C 	C 	0.55548 0.71537 0.68271 0.08300
Br	Br	0.51442 0.68280 0.72677 -0.12800
Br	Br	0.71344 0.72823 0.74306 -0.16400
Br	Br	0.44332 0.71113 0.56112 -0.11000
Br	Br	0.65717 0.79598 0.57440 -0.14900
C 	C 	0.28767 0.85691 0.62103 0.11500
C 	C 	0.20780 0.81400 0.63111 -0.09300
C 	C 	0.16072 0.72295 0.64878 0.10800
C 	C 	0.18669 0.67510 0.65074 0.08300
C 	C 	0.25568 0.71749 0.63229 -0.03600
C 	C 	0.30304 0.80893 0.61565 0.08200
Br	Br	0.37494 0.86599 0.57919 -0.10800
Br	Br	0.37635 0.98112 0.61508 -0.11900
Br	Br	0.13137 0.55429 0.68043 -0.12400
Br	Br	0.06840 0.66590 0.67412 -0.14900
C 	C 	0.21461 0.47554 0.08665 0.08800
C 	C 	0.21975 0.48201 0.12174 -0.03600
C 	C 	0.20348 0.41061 0.15569 0.08600
C 	C 	0.18802 0.33686 0.15508 0.11400
C 	C 	0.17381 0.32731 0.11899 -0.10200
C 	C 	0.19969 0.40135 0.08667 0.12400
Br	Br	0.22866 0.40617 0.04600 -0.13000
Br	Br	0.23124 0.56974 0.03914 -0.12600
Br	Br	0.19742 0.25450 0.20418 -0.16900
Br	Br	0.21054 0.41717 0.20420 -0.13700
C 	C 	0.55517 0.68168 0.16649 0.08600
C 	C 	0.52309 0.72225 0.16588 -0.04000
C 	C 	0.58322 0.81126 0.16464 0.08800
C 	C 	0.65807 0.86421 0.14889 0.11600
C 	C 	0.68970 0.82610 0.14636 -0.09800
C 	C 	0.63790 0.73351 0.15617 0.11300
Br	Br	0.68044 0.67697 0.15714 -0.14100
Br	Br	0.49346 0.55670 0.18748 -0.13100
Br	Br	0.71466 0.98818 0.13043 -0.16600
Br	Br	0.57985 0.85489 0.19531 -0.12600
C 	C 	0.15408 0.70455 0.16108 0.10700
C 	C 	0.21100 0.79671 0.15424 -0.09300
C 	C 	0.30022 0.84050 0.15410 0.10900
C 	C 	0.32108 0.80283 0.14450 0.08200
C 	C 	0.26586 0.71100 0.15079 -0.03800
C 	C 	0.18275 0.66101 0.16085 0.08200
Br	Br	0.11049 0.53492 0.17606 -0.12600
Br	Br	0.04646 0.63777 0.17786 -0.14000
Br	Br	0.40812 0.87801 0.11292 -0.13100
Br	Br	0.39410 0.94922 0.16904 -0.10400
C 	C 	0.81962 0.19806 0.52821 0.10800
C 	C 	0.77133 0.10665 0.54543 -0.09300
C 	C 	0.69353 0.06508 0.55667 0.09000
C 	C 	0.68343 0.11335 0.56484 0.08600
C 	C 	0.73009 0.20433 0.54814 -0.04100
C 	C 	0.79688 0.24667 0.52832 0.08400
Br	Br	0.85384 0.36844 0.49984 -0.11900
Br	Br	0.90311 0.25325 0.49810 -0.12900
Br	Br	0.61915 0.05717 0.60447 -0.15300
Br	Br	0.59845 0.94378 0.55827 -0.09900
C 	C 	0.81173 0.47434 0.59372 0.08700
C 	C 	0.79086 0.46184 0.55704 -0.04000
C 	C 	0.80079 0.53018 0.52234 0.08400
C 	C 	0.82202 0.60632 0.52353 0.11500
C 	C 	0.84723 0.62069 0.56038 -0.10200
C 	C 	0.83327 0.55096 0.59481 0.12000
Br	Br	0.80951 0.38577 0.64228 -0.11700
Br	Br	0.80872 0.68717 0.47461 -0.17400
Br	Br	0.78040 0.51711 0.47263 -0.13100
C 	C 	0.32366 0.09932 0.50924 0.10300
C 	C 	0.29850 0.12075 0.52729 -0.10400
C 	C 	0.36828 0.18251 0.55084 0.11600
C 	C 	0.45741 0.21077 0.56032 0.08700
C 	C 	0.48236 0.20070 0.53715 -0.04100
C 	C 	0.41445 0.15005 0.50916 0.09100
Br	Br	0.44374 0.15487 0.46847 -0.14600
Br	Br	0.24123 0.99168 0.49256 -0.17900
Br	Br	0.54090 0.25261 0.60786 -0.12800
Br	Br	0.34759 0.24082 0.56425 -0.15200
C 	C 	0.70781 0.17886 0.01337 0.07500
C 	C 	0.76963 0.25429 0.02882 -0.03100
C 	C 	0.86354 0.29373 0.03814 0.08000
C 	C 	0.89118 0.25827 0.03105 0.11700
C 	C 	0.83062 0.17136 0.02816 -0.10300
C 	C 	0.73760 0.13321 0.01699 0.12200
Br	Br	0.65125 0.01880 0.00683 -0.16000
Br	Br	0.58939 0.14812 0.98067 -0.12100
Br	Br	0.95419 0.38576 0.06583 -0.13600
C 	C 	0.82378 0.56177 0.01703 0.07700
C 	C 	0.81314 0.49092 0.05072 -0.03600
C 	C 	0.82758 0.49764 0.08782 0.08400
C 	C 	0.84258 0.56976 0.09004 0.12100
C 	C 	0.86332 0.64394 0.05781 -0.10400
C 	C 	0.84418 0.63609 0.02021 0.10800
Br	Br	0.80711 0.55563 0.96626 -0.12300
Br	Br	0.81839 0.56090 0.13364 -0.12300
Br	Br	0.82519 0.40721 0.13538 -0.11100
C 	C 	0.37607 0.19338 0.00419 0.11100
C 	C 	0.34722 0.15265 0.03935 -0.11300
C 	C 	0.40907 0.15351 0.07648 0.11800
C 	C 	0.49345 0.17940 0.07868 0.08200
C 	C 	0.51901 0.21173 0.04338 -0.04100
C 	C 	0.45962 0.21841 0.00604 0.07400
Br	Br	0.49560 0.26772 0.95743 -0.12400
Br	Br	0.30712 0.22614 0.95450 -0.15700
Br	Br	0.57661 0.17579 0.12980 -0.12200
Br	Br	0.38307 0.13130 0.12311 -0.15500
