data_crystal

_cell_length_a 45.97173
_cell_length_b 44.83324
_cell_length_c 33.24680
_cell_angle_alpha 89.95494
_cell_angle_beta  89.95244
_cell_angle_gamma 90.52992

_symmetry_space_group_name_	'P 1'
_symmetry_space_group_name_H-M	'P 1'

loop_
_symmetry_equiv_pos_as_xyz
  x,y,z

loop_
_atom_site_label
_atom_site_type_symbol
_atom_site_fract_x
_atom_site_fract_y
_atom_site_fract_z
_atom_site_charge
Zn	Zn	0.49697 0.49998 0.00470 1.22300
C 	C 	0.53104 0.55433 0.00768 0.31800
O 	O 	0.51867 0.47101 0.03635 -0.47800
O 	O 	0.51884 0.55906 0.04289 -0.45100
O 	O 	0.54694 0.50334 0.07110 -0.49000
C 	C 	0.45524 0.53196 0.04956 0.32200
O 	O 	0.46735 0.52942 0.01402 -0.45600
O 	O 	0.46954 0.52380 0.08195 -0.50300
C 	C 	0.54401 0.47816 0.05154 0.31500
O 	O 	0.45859 0.46525 0.99977 -0.32600
Zn	Zn	0.51214 0.52585 0.08476 1.16900
O 	O 	0.52852 0.52811 0.99001 -0.43800
C 	C 	0.46781 0.46048 0.96350 0.27400
O 	O 	0.48985 0.47683 0.95258 -0.38300
Zn	Zn	0.36122 0.15324 0.98787 1.22100
C 	C 	0.38117 0.15480 0.07042 0.34000
O 	O 	0.31926 0.14347 0.98876 -0.46100
O 	O 	0.37225 0.18247 0.07296 -0.45000
O 	O 	0.31318 0.15809 0.05366 -0.49300
C 	C 	0.37487 0.21561 0.98701 0.31900
O 	O 	0.38612 0.18879 0.98730 -0.45300
O 	O 	0.34905 0.21999 0.00266 -0.50800
C 	C 	0.30429 0.14261 0.02247 0.31000
O 	O 	0.35991 0.15720 0.91673 -0.32500
Zn	Zn	0.33388 0.19554 0.04632 1.17100
O 	O 	0.37226 0.13759 0.04090 -0.43800
C 	C 	0.37321 0.13180 0.91728 0.29800
O 	O 	0.37871 0.12115 0.95255 -0.38400
C 	C 	0.52655 0.99819 0.63661 0.14500
C 	C 	0.54646 0.98063 0.65784 -0.11200
H 	H 	0.56183 0.96699 0.64154 0.07500
C 	C 	0.54645 0.98078 0.70000 0.07300
C 	C 	0.52648 0.99840 0.72091 -0.09800
C 	C 	0.50654 0.01590 0.69978 0.07300
C 	C 	0.50661 0.01585 0.65764 -0.11200
H 	H 	0.49124 0.02939 0.64118 0.07400
N 	N 	0.52651 0.99804 0.59336 -0.17900
C 	C 	0.50746 0.97962 0.57324 0.19000
C 	C 	0.50668 0.97960 0.53090 -0.06000
C 	C 	0.52579 0.99843 0.50950 0.03100
C 	C 	0.54533 0.01698 0.53050 -0.06000
C 	C 	0.54534 0.01651 0.57285 0.19100
C 	C 	0.48708 0.96112 0.50971 -0.01300
C 	C 	0.48657 0.96147 0.46765 -0.01300
C 	C 	0.50570 0.98027 0.44606 -0.06000
C 	C 	0.52534 0.99871 0.46704 0.03100
C 	C 	0.54454 0.01743 0.44565 -0.06000
C 	C 	0.56450 0.03573 0.50890 -0.01300
C 	C 	0.56412 0.03594 0.46683 -0.01300
C 	C 	0.50555 0.98089 0.40371 0.19000
N 	N 	0.52457 0.99915 0.38319 -0.17900
C 	C 	0.54387 0.01730 0.40329 0.19000
C 	C 	0.52445 0.99907 0.33994 0.14500
C 	C 	0.54024 0.97750 0.31882 -0.11200
C 	C 	0.54004 0.97734 0.27668 0.07200
C 	C 	0.52417 0.99883 0.25563 -0.09800
C 	C 	0.50843 0.02043 0.27664 0.07300
C 	C 	0.50852 0.02052 0.31880 -0.11200
O 	O 	0.56340 0.03399 0.59292 -0.20000
O 	O 	0.48981 0.96188 0.59367 -0.20000
O 	O 	0.48706 0.96388 0.38366 -0.20100
O 	O 	0.56193 0.03459 0.38285 -0.20000
H 	H 	0.49629 0.03715 0.33517 0.07400
H 	H 	0.55256 0.96096 0.33521 0.07400
H 	H 	0.57973 0.05016 0.52458 0.05000
H 	H 	0.57907 0.05053 0.45084 0.05000
H 	H 	0.47218 0.94648 0.52570 0.05000
H 	H 	0.47130 0.94708 0.45197 0.05000
H 	H 	0.52406 0.99873 0.22299 0.06200
H 	H 	0.52643 0.99846 0.75355 0.06200
Zn	Zn	0.68747 0.84168 0.99068 1.22000
C 	C 	0.66712 0.84055 0.07306 0.34000
O 	O 	0.72972 0.85006 0.99224 -0.46200
O 	O 	0.67510 0.81256 0.07554 -0.44900
O 	O 	0.73503 0.83444 0.05690 -0.49300
C 	C 	0.67062 0.77990 0.99054 0.31900
O 	O 	0.66092 0.80737 0.98991 -0.45300
O 	O 	0.69661 0.77453 0.00491 -0.50900
C 	C 	0.74431 0.85030 0.02624 0.31300
O 	O 	0.68913 0.83779 0.91957 -0.32400
Zn	Zn	0.71292 0.79798 0.04870 1.17100
O 	O 	0.67669 0.85756 0.04364 -0.43800
C 	C 	0.67678 0.86370 0.91997 0.29700
O 	O 	0.67146 0.87453 0.95519 -0.38500
Zn	Zn	0.15815 0.65101 0.99328 1.22100
C 	C 	0.14146 0.65329 0.07669 0.33800
O 	O 	0.13076 0.68440 0.99342 -0.44700
O 	O 	0.14868 0.68168 0.07702 -0.45100
O 	O 	0.16651 0.71871 0.00473 -0.50700
C 	C 	0.21642 0.64490 0.02379 0.31600
O 	O 	0.20015 0.64451 0.99130 -0.46800
O 	O 	0.20901 0.66136 0.05466 -0.49400
C 	C 	0.13998 0.71219 0.99293 0.32000
O 	O 	0.15898 0.65239 0.92204 -0.32400
Zn	Zn	0.18556 0.69665 0.04757 1.17100
O 	O 	0.15062 0.63582 0.04773 -0.44000
C 	C 	0.14337 0.62820 0.92446 0.29700
O 	O 	0.13720 0.61925 0.96045 -0.38500
C 	C 	0.98790 0.49829 0.64011 0.14700
C 	C 	0.00804 0.51531 0.66220 -0.11300
H 	H 	0.02393 0.52909 0.64659 0.07500
C 	C 	0.00765 0.51439 0.70432 0.07200
C 	C 	0.98706 0.49656 0.72435 -0.09800
C 	C 	0.96690 0.47958 0.70233 0.07300
C 	C 	0.96735 0.48042 0.66023 -0.11200
H 	H 	0.95184 0.46724 0.64308 0.07400
N 	N 	0.98841 0.49905 0.59690 -0.17900
C 	C 	0.00672 0.48040 0.57642 0.19000
C 	C 	0.00715 0.48043 0.53408 -0.06100
C 	C 	0.98859 0.49968 0.51307 0.03100
C 	C 	0.97002 0.51870 0.53446 -0.06000
C 	C 	0.97034 0.51815 0.57679 0.19100
C 	C 	0.02576 0.46147 0.51250 -0.01300
C 	C 	0.02581 0.46174 0.47044 -0.01300
C 	C 	0.00722 0.48096 0.44924 -0.06100
C 	C 	0.98858 0.49990 0.47062 0.03200
C 	C 	0.96993 0.51906 0.44962 -0.06000
C 	C 	0.95142 0.53789 0.51326 -0.01300
C 	C 	0.95135 0.53805 0.47119 -0.01300
C 	C 	0.00701 0.48160 0.40691 0.19000
N 	N 	0.98872 0.50049 0.38680 -0.17900
C 	C 	0.97023 0.51895 0.40728 0.19100
C 	C 	0.98918 0.50120 0.34359 0.14700
C 	C 	0.00653 0.52233 0.32342 -0.11300
C 	C 	0.00712 0.52291 0.28131 0.07200
C 	C 	0.99042 0.50235 0.25934 -0.09800
C 	C 	0.97313 0.48118 0.27941 0.07300
C 	C 	0.97245 0.48063 0.32153 -0.11200
O 	O 	0.95318 0.53603 0.59723 -0.20000
O 	O 	0.02388 0.46230 0.59649 -0.20000
O 	O 	0.02454 0.46410 0.38648 -0.20000
O 	O 	0.95270 0.53667 0.38719 -0.20100
H 	H 	0.95908 0.46430 0.33718 0.07500
H 	H 	0.01952 0.53813 0.34052 0.07400
H 	H 	0.93695 0.55270 0.52924 0.05000
H 	H 	0.93684 0.55299 0.45550 0.05000
H 	H 	0.04023 0.44649 0.52819 0.05000
H 	H 	0.04031 0.44697 0.45446 0.05000
H 	H 	0.99096 0.50275 0.22671 0.06200
H 	H 	0.98676 0.49585 0.75698 0.06200
Zn	Zn	0.83022 0.33788 0.98869 1.22100
C 	C 	0.82949 0.34820 0.90314 0.34100
O 	O 	0.79031 0.34193 0.00901 -0.46200
O 	O 	0.82079 0.32053 0.89755 -0.44900
O 	O 	0.76870 0.33405 0.94845 -0.49100
C 	C 	0.84723 0.27892 0.96644 0.32200
O 	O 	0.85583 0.30687 0.96872 -0.45600
O 	O 	0.81941 0.27251 0.96311 -0.50800
C 	C 	0.76816 0.34558 0.98469 0.31200
O 	O 	0.84595 0.32505 0.05430 -0.32400
Zn	Zn	0.79242 0.29947 0.93674 1.17000
O 	O 	0.82692 0.36080 0.93859 -0.44100
C 	C 	0.85729 0.35164 0.05459 0.29700
O 	O 	0.85333 0.36738 0.02253 -0.38400
Zn	Zn	0.01360 0.00808 0.04099 1.22000
C 	C 	0.03645 0.94942 0.02745 0.31400
O 	O 	0.98106 0.00039 0.07812 -0.46900
O 	O 	0.05253 0.95454 0.05948 -0.44900
O 	O 	0.99757 0.95736 0.10539 -0.49600
C 	C 	0.06909 0.02171 0.07513 0.32300
O 	O 	0.05510 0.01678 0.04139 -0.45400
O 	O 	0.05837 0.01155 0.10913 -0.50800
C 	C 	0.97594 0.97365 0.09264 0.31700
O 	O 	0.00682 0.05968 0.04910 -0.32900
Zn	Zn	0.03638 0.97416 0.11087 1.16900
O 	O 	0.01615 0.96831 0.01663 -0.43500
C 	C 	0.99500 0.05875 0.01370 0.27800
O 	O 	0.99414 0.03265 0.99693 -0.38600
C 	C 	0.87143 0.17200 0.96119 -0.04000
C 	C 	0.88018 0.20166 0.96730 0.00300
C 	C 	0.90945 0.20835 0.97702 0.01200
C 	C 	0.92899 0.18464 0.98481 -0.00400
C 	C 	0.89145 0.14893 0.96418 -0.03800
C 	C 	0.92073 0.15502 0.97442 0.00300
C 	C 	0.85992 0.22476 0.96378 -0.01100
C 	C 	0.86883 0.25465 0.96823 -0.08600
C 	C 	0.91870 0.23846 0.97748 -0.05700
C 	C 	0.95492 0.18944 0.00673 -0.03100
C 	C 	0.96675 0.13697 0.00174 0.01400
C 	C 	0.94117 0.13165 0.97918 0.00300
C 	C 	0.93693 0.10333 0.96138 -0.05000
C 	C 	0.95523 0.07971 0.97131 0.00200
C 	C 	0.97868 0.08429 0.99765 -0.06700
C 	C 	0.98517 0.11320 0.01123 -0.01800
C 	C 	0.89844 0.26133 0.97406 0.01300
H 	H 	0.90588 0.28430 0.97555 0.04200
H 	H 	0.94157 0.24426 0.97877 0.04400
H 	H 	0.83730 0.21948 0.95753 0.03500
H 	H 	0.84894 0.16674 0.95416 0.03600
H 	H 	0.88360 0.12623 0.96124 0.03800
H 	H 	0.95988 0.21101 0.01966 0.03900
H 	H 	0.92017 0.09973 0.93905 0.04200
H 	H 	0.95087 0.05776 0.95900 0.04200
H 	H 	0.00420 0.11707 0.02988 0.04600
C 	C 	0.97338 0.16579 0.01528 -0.04400
H 	H 	0.99282 0.16989 0.03293 0.04100
C 	C 	0.87267 0.39393 0.81508 -0.01200
C 	C 	0.86690 0.42421 0.80873 -0.02500
C 	C 	0.88470 0.44111 0.78309 -0.04600
C 	C 	0.90834 0.42779 0.76372 0.02100
C 	C 	0.91349 0.39727 0.76896 -0.04600
C 	C 	0.89570 0.38037 0.79459 -0.02600
C 	C 	0.85675 0.37753 0.84527 0.05600
C 	C 	0.84397 0.36401 0.87130 -0.11600
C 	C 	0.92862 0.44587 0.74118 -0.00500
C 	C 	0.94592 0.46116 0.72308 -0.03200
H 	H 	0.84912 0.43484 0.82443 0.04100
H 	H 	0.88054 0.46468 0.77911 0.04600
H 	H 	0.93170 0.38681 0.75400 0.04600
H 	H 	0.90027 0.35696 0.79931 0.04000
C 	C 	0.89657 0.38908 0.15246 -0.00600
C 	C 	0.92591 0.38340 0.16058 -0.02800
C 	C 	0.94069 0.40011 0.18976 -0.04400
C 	C 	0.92618 0.42256 0.21091 0.02000
C 	C 	0.89652 0.42735 0.20400 -0.04400
C 	C 	0.88174 0.41064 0.17484 -0.02800
C 	C 	0.88255 0.37501 0.11863 0.04600
C 	C 	0.87096 0.36394 0.08969 -0.09400
C 	C 	0.94238 0.44267 0.23634 -0.00500
C 	C 	0.95622 0.45999 0.25657 -0.03200
H 	H 	0.93750 0.36671 0.14348 0.04200
H 	H 	0.96361 0.39623 0.19499 0.04500
H 	H 	0.88514 0.44462 0.22030 0.04500
H 	H 	0.85903 0.41509 0.16881 0.04100
C 	C 	0.03080 0.84080 0.02312 -0.04500
C 	C 	0.04086 0.86768 0.00665 0.01000
C 	C 	0.06333 0.86758 0.97762 0.00500
C 	C 	0.07903 0.84087 0.97072 0.00100
C 	C 	0.04387 0.81393 0.01286 -0.03300
C 	C 	0.06803 0.81346 0.98651 -0.00400
C 	C 	0.02979 0.89491 0.02040 -0.01600
C 	C 	0.04058 0.92183 0.00480 -0.07800
C 	C 	0.07020 0.89446 0.95738 -0.05400
C 	C 	0.10725 0.84167 0.95373 -0.03800
C 	C 	0.11296 0.78877 0.96616 0.00400
C 	C 	0.08400 0.78682 0.98022 0.01000
C 	C 	0.07199 0.75835 0.98850 -0.05800
C 	C 	0.09004 0.73348 0.99061 0.01100
C 	C 	0.11987 0.73641 0.98245 -0.08700
C 	C 	0.13087 0.76361 0.96777 -0.01200
C 	C 	0.05948 0.92152 0.97176 0.00900
H 	H 	0.06664 0.94228 0.95811 0.03300
H 	H 	0.08330 0.89449 0.93034 0.04300
H 	H 	0.01411 0.89522 0.04482 0.03400
H 	H 	0.01321 0.84075 0.04486 0.03800
H 	H 	0.03661 0.79393 0.02814 0.03600
H 	H 	0.11724 0.86254 0.94472 0.03700
H 	H 	0.04880 0.75526 0.99234 0.04400
H 	H 	0.08092 0.71212 0.99958 0.04100
H 	H 	0.15355 0.76543 0.95895 0.03800
C 	C 	0.12405 0.81599 0.95211 -0.04200
H 	H 	0.14611 0.81746 0.94065 0.03700
C 	C 	0.06566 0.56212 0.77208 0.02000
C 	C 	0.05901 0.59120 0.78424 -0.04400
C 	C 	0.07655 0.60582 0.81252 -0.02800
C 	C 	0.10080 0.59142 0.82875 -0.00500
C 	C 	0.10808 0.56279 0.81543 -0.02800
C 	C 	0.09054 0.54816 0.78715 -0.04400
C 	C 	0.04559 0.54565 0.74714 -0.00500
C 	C 	0.02846 0.53157 0.72715 -0.03200
C 	C 	0.11650 0.60480 0.86168 0.04600
C 	C 	0.12909 0.61566 0.88997 -0.09300
H 	H 	0.03984 0.60215 0.77265 0.04500
H 	H 	0.07081 0.62798 0.82261 0.04200
H 	H 	0.12683 0.55153 0.82779 0.04100
H 	H 	0.09585 0.52570 0.77782 0.04500
C 	C 	0.05801 0.58202 0.21894 0.02100
C 	C 	0.08838 0.57972 0.22014 -0.04600
C 	C 	0.10558 0.59658 0.19371 -0.02600
C 	C 	0.09247 0.61579 0.16597 -0.01300
C 	C 	0.06217 0.61899 0.16589 -0.02600
C 	C 	0.04497 0.60213 0.19233 -0.04600
C 	C 	0.04020 0.56174 0.24204 -0.00600
C 	C 	0.02519 0.54427 0.26046 -0.03300
C 	C 	0.10978 0.62990 0.13514 0.05500
C 	C 	0.12425 0.64098 0.10873 -0.11600
H 	H 	0.09861 0.56427 0.24070 0.04500
H 	H 	0.12900 0.59405 0.19401 0.03900
H 	H 	0.05189 0.63385 0.14459 0.03900
H 	H 	0.02150 0.60408 0.19130 0.04400
C 	C 	0.84064 0.86508 0.08731 -0.04100
C 	C 	0.81938 0.87447 0.06008 0.00300
C 	C 	0.82333 0.90140 0.03842 0.01100
C 	C 	0.84990 0.91766 0.04270 -0.00100
C 	C 	0.86519 0.88268 0.09466 -0.03700
C 	C 	0.86931 0.90998 0.07418 0.00000
C 	C 	0.79392 0.85742 0.05481 -0.01000
C 	C 	0.77162 0.86762 0.02972 -0.08800
C 	C 	0.80012 0.91218 0.01477 -0.05800
C 	C 	0.85873 0.93923 0.01408 -0.03400
C 	C 	0.90257 0.94977 0.05241 0.00600
C 	C 	0.89417 0.92828 0.08144 0.01000
C 	C 	0.91031 0.92614 0.11743 -0.05800
C 	C 	0.93660 0.94171 0.12154 0.01200
C 	C 	0.94641 0.96077 0.09088 -0.08700
C 	C 	0.92887 0.96562 0.05702 -0.00900
C 	C 	0.77479 0.89505 0.00986 0.01600
H 	H 	0.75720 0.90364 0.99166 0.03600
H 	H 	0.80087 0.93437 0.00202 0.04600
H 	H 	0.79133 0.83637 0.07060 0.02500
H 	H 	0.83804 0.84409 0.10317 0.03400
H 	H 	0.88178 0.87407 0.11445 0.03600
H 	H 	0.84647 0.94256 0.98674 0.03700
H 	H 	0.90219 0.91333 0.14270 0.04200
H 	H 	0.94935 0.93897 0.14867 0.02400
H 	H 	0.93608 0.98100 0.03376 0.04100
C 	C 	0.88489 0.95487 0.01884 -0.03900
H 	H 	0.89149 0.97095 0.99616 0.03900
C 	C 	0.60325 0.93097 0.76577 0.02000
C 	C 	0.62876 0.94421 0.78080 -0.04400
C 	C 	0.64571 0.92905 0.80899 -0.02800
C 	C 	0.63722 0.90058 0.82227 -0.00500
C 	C 	0.61240 0.88683 0.80593 -0.02800
C 	C 	0.59545 0.90199 0.77774 -0.04400
C 	C 	0.58366 0.94817 0.74139 -0.00500
C 	C 	0.56689 0.96287 0.72198 -0.03200
C 	C 	0.65200 0.88698 0.85570 0.04600
C 	C 	0.66372 0.87607 0.88456 -0.09300
H 	H 	0.63498 0.96658 0.77162 0.04500
H 	H 	0.66489 0.93981 0.82142 0.04100
H 	H 	0.60572 0.86481 0.81598 0.04200
H 	H 	0.57581 0.89158 0.76618 0.04500
C 	C 	0.58597 0.91608 0.21230 0.02100
C 	C 	0.57190 0.89958 0.18213 -0.04600
C 	C 	0.58806 0.88167 0.15610 -0.02600
C 	C 	0.61836 0.88017 0.16015 -0.01200
C 	C 	0.63229 0.89581 0.19126 -0.02600
C 	C 	0.61613 0.91373 0.21728 -0.04600
C 	C 	0.56984 0.93720 0.23589 -0.00600
C 	C 	0.55631 0.95530 0.25489 -0.03200
C 	C 	0.63537 0.86513 0.13009 0.05500
C 	C 	0.64977 0.85339 0.10435 -0.11500
H 	H 	0.54857 0.90122 0.17816 0.04500
H 	H 	0.57712 0.86963 0.13215 0.04000
H 	H 	0.65571 0.89475 0.19460 0.03900
H 	H 	0.62715 0.92636 0.24060 0.04500
C 	C 	0.22550 0.09618 0.10185 -0.04300
C 	C 	0.23679 0.10497 0.06448 0.00500
C 	C 	0.22007 0.10087 0.02918 0.00900
C 	C 	0.19093 0.09023 0.03252 -0.00100
C 	C 	0.19815 0.08260 0.10448 -0.03600
C 	C 	0.18124 0.07795 0.06959 -0.00100
C 	C 	0.26466 0.11792 0.06202 -0.01500
C 	C 	0.27643 0.12597 0.02453 -0.08400
C 	C 	0.23324 0.10624 0.99144 -0.05800
C 	C 	0.17063 0.09437 0.00123 -0.03500
C 	C 	0.13366 0.06761 0.03938 0.00500
C 	C 	0.15347 0.06377 0.07149 0.01000
C 	C 	0.14577 0.04448 0.10346 -0.05900
C 	C 	0.11799 0.03163 0.10518 0.01100
C 	C 	0.09778 0.03683 0.07441 -0.08700
C 	C 	0.10567 0.05491 0.04161 -0.00800
C 	C 	0.26096 0.11923 0.98926 0.00500
H 	H 	0.27030 0.12421 0.96007 0.04000
H 	H 	0.22265 0.09944 0.96385 0.04400
H 	H 	0.27712 0.12181 0.08924 0.04200
H 	H 	0.23798 0.09988 0.12908 0.03700
H 	H 	0.18950 0.07750 0.13398 0.03600
H 	H 	0.17617 0.10755 0.97502 0.03600
H 	H 	0.16162 0.03802 0.12577 0.04100
H 	H 	0.11256 0.01677 0.12982 0.02200
H 	H 	0.09023 0.05869 0.01752 0.04600
C 	C 	0.14224 0.08348 0.00497 -0.03900
H 	H 	0.12692 0.08714 0.98073 0.03800
C 	C 	0.41417 0.09586 0.82008 -0.00500
C 	C 	0.40561 0.06770 0.80585 -0.02800
C 	C 	0.42302 0.05262 0.77812 -0.04400
C 	C 	0.44906 0.06564 0.76451 0.02000
C 	C 	0.45697 0.09435 0.77738 -0.04400
C 	C 	0.43956 0.10943 0.80511 -0.02800
C 	C 	0.39888 0.10919 0.85326 0.04600
C 	C 	0.38675 0.11982 0.88197 -0.09300
C 	C 	0.46896 0.04846 0.74059 -0.00500
C 	C 	0.48594 0.03378 0.72150 -0.03200
H 	H 	0.38599 0.05707 0.81723 0.04200
H 	H 	0.41670 0.03047 0.76821 0.04500
H 	H 	0.47703 0.10461 0.76690 0.04500
H 	H 	0.44631 0.13122 0.81591 0.04200
C 	C 	0.42972 0.11628 0.15865 -0.01200
C 	C 	0.46010 0.11542 0.15529 -0.02500
C 	C 	0.47628 0.09788 0.18177 -0.04600
C 	C 	0.46215 0.08112 0.21171 0.02100
C 	C 	0.43188 0.08286 0.21601 -0.04600
C 	C 	0.41570 0.10041 0.18954 -0.02600
C 	C 	0.41279 0.13093 0.12814 0.05500
C 	C 	0.39847 0.14235 0.10206 -0.11600
C 	C 	0.47837 0.06025 0.23560 -0.00600
C 	C 	0.49200 0.04232 0.25478 -0.03200
H 	H 	0.47110 0.12764 0.13152 0.04000
H 	H 	0.49969 0.09670 0.17831 0.04500
H 	H 	0.42081 0.07003 0.23914 0.04500
H 	H 	0.39222 0.10098 0.19236 0.03800
C 	C 	0.37724 0.31837 0.93556 -0.04100
C 	C 	0.39211 0.29279 0.94748 0.00500
C 	C 	0.42276 0.29341 0.95073 0.00900
C 	C 	0.43786 0.32124 0.94781 -0.00200
C 	C 	0.39223 0.34500 0.92848 -0.03700
C 	C 	0.42268 0.34687 0.93406 0.00200
C 	C 	0.37656 0.26671 0.95736 -0.01200
C 	C 	0.39133 0.24106 0.96982 -0.08500
C 	C 	0.43746 0.26629 0.95733 -0.05600
C 	C 	0.46634 0.32477 0.96330 -0.03400
C 	C 	0.46519 0.37795 0.95012 0.01200
C 	C 	0.43766 0.37477 0.93167 0.00600
C 	C 	0.42529 0.39994 0.91289 -0.05000
C 	C 	0.43674 0.42842 0.92032 0.00200
C 	C 	0.46171 0.43183 0.94399 -0.06200
C 	C 	0.47713 0.40655 0.95610 -0.01800
C 	C 	0.42182 0.24054 0.96795 0.01100
H 	H 	0.43346 0.22033 0.97516 0.04100
H 	H 	0.46071 0.26475 0.95304 0.04400
H 	H 	0.35297 0.26659 0.95629 0.03800
H 	H 	0.35376 0.31785 0.93257 0.03700
H 	H 	0.37967 0.36462 0.92175 0.03800
H 	H 	0.47742 0.30636 0.97738 0.03700
H 	H 	0.40725 0.39759 0.89226 0.04200
H 	H 	0.42560 0.44785 0.90888 0.03300
H 	H 	0.49723 0.40925 0.97289 0.04200
C 	C 	0.47963 0.35282 0.96463 -0.04300
H 	H 	0.50095 0.35513 0.97825 0.03900
C 	C 	0.31494 0.62971 0.07745 -0.04200
C 	C 	0.29275 0.62126 0.05084 0.00400
C 	C 	0.29662 0.59659 0.02494 0.00900
C 	C 	0.32409 0.58232 0.02365 0.00200
C 	C 	0.34065 0.61352 0.07941 -0.03600
C 	C 	0.34497 0.58875 0.05397 -0.00100
C 	C 	0.26660 0.63715 0.05001 -0.01100
C 	C 	0.24371 0.62786 0.02495 -0.08800
C 	C 	0.27267 0.58607 0.00226 -0.05500
C 	C 	0.33220 0.56440 0.99065 -0.03800
C 	C 	0.37888 0.55449 0.02168 0.00700
C 	C 	0.37122 0.57225 0.05511 0.01000
C 	C 	0.38948 0.57236 0.08927 -0.05900
C 	C 	0.41665 0.55868 0.08775 0.01100
C 	C 	0.42546 0.54361 0.05291 -0.08700
C 	C 	0.40612 0.54066 0.02050 -0.00600
C 	C 	0.24670 0.60200 0.00167 0.01500
H 	H 	0.22864 0.59380 0.98377 0.03700
H 	H 	0.27355 0.56494 0.98664 0.04300
H 	H 	0.26412 0.65676 0.06876 0.02900
H 	H 	0.31227 0.64892 0.09683 0.03400
H 	H 	0.35783 0.62154 0.09889 0.03600
H 	H 	0.31838 0.56247 0.96447 0.03900
H 	H 	0.38237 0.58202 0.11737 0.04100
H 	H 	0.43093 0.56001 0.11360 0.02300
H 	H 	0.41232 0.52773 0.99433 0.04400
C 	C 	0.35940 0.55091 0.98965 -0.04100
H 	H 	0.36537 0.53768 0.96370 0.04000
C 	C 	0.64381 0.44492 0.08114 -0.04100
C 	C 	0.61843 0.44273 0.05794 0.00200
C 	C 	0.61731 0.42290 0.02485 0.01200
C 	C 	0.64126 0.40393 0.01729 0.00100
C 	C 	0.66852 0.42875 0.07067 -0.03600
C 	C 	0.66806 0.40954 0.03703 -0.00100
C 	C 	0.59426 0.46053 0.06703 -0.00900
C 	C 	0.56957 0.45974 0.04223 -0.09000
C 	C 	0.59322 0.42386 0.99866 -0.06200
C 	C 	0.63829 0.37821 0.99317 -0.03900
C 	C 	0.69005 0.36904 0.99845 0.00000
C 	C 	0.69326 0.39385 0.02449 0.01300
C 	C 	0.72157 0.40359 0.03501 -0.05800
C 	C 	0.74584 0.38742 0.02269 0.01700
C 	C 	0.74246 0.36209 0.99838 -0.08900
C 	C 	0.71459 0.35299 0.98626 -0.00900
C 	C 	0.56942 0.44169 0.00775 0.01700
H 	H 	0.55105 0.44199 0.98735 0.03200
H 	H 	0.59339 0.41204 0.97032 0.04500
H 	H 	0.59473 0.47500 0.09317 0.03400
H 	H 	0.64455 0.45942 0.10720 0.03600
H 	H 	0.68730 0.42993 0.09019 0.03800
H 	H 	0.61711 0.37062 0.98312 0.03700
H 	H 	0.72503 0.42441 0.05077 0.04500
H 	H 	0.76740 0.39515 0.03107 0.03700
H 	H 	0.71201 0.33357 0.96708 0.02600
C 	C 	0.66245 0.36091 0.98414 -0.03900
H 	H 	0.65973 0.34128 0.96545 0.03400
C 	C 	0.65330 0.67196 0.97456 -0.04200
C 	C 	0.64276 0.70113 0.97389 0.00400
C 	C 	0.61267 0.70618 0.96913 0.00900
C 	C 	0.59290 0.68158 0.97100 -0.00100
C 	C 	0.63426 0.64766 0.97178 -0.03700
C 	C 	0.60390 0.65203 0.96925 -0.00000
C 	C 	0.66194 0.72540 0.97896 -0.01400
C 	C 	0.65142 0.75473 0.97847 -0.08500
C 	C 	0.60309 0.73566 0.96275 -0.05600
C 	C 	0.56315 0.68584 0.97987 -0.03600
C 	C 	0.55485 0.63237 0.98172 0.00700
C 	C 	0.58408 0.62744 0.97055 0.00800
C 	C 	0.59282 0.59802 0.96163 -0.05600
C 	C 	0.57461 0.57386 0.97126 0.00800
C 	C 	0.54706 0.57882 0.98789 -0.08200
C 	C 	0.53656 0.60801 0.99064 -0.01500
C 	C 	0.62220 0.75973 0.96843 0.01100
H 	H 	0.61419 0.78225 0.96518 0.04300
H 	H 	0.58130 0.74001 0.95218 0.04400
H 	H 	0.68487 0.72141 0.98417 0.03600
H 	H 	0.67640 0.66800 0.97794 0.03500
H 	H 	0.64314 0.62554 0.97475 0.03700
H 	H 	0.55475 0.70787 0.98557 0.03700
H 	H 	0.61322 0.59379 0.94655 0.04300
H 	H 	0.58232 0.55131 0.96697 0.03800
H 	H 	0.51462 0.61178 0.00144 0.04300
C 	C 	0.54454 0.66148 0.98550 -0.04300
H 	H 	0.52207 0.66533 0.99377 0.03800
