data_crystal

_cell_length_a 22.71987
_cell_length_b 22.91208
_cell_length_c 26.66658
_cell_angle_alpha 90.00157
_cell_angle_beta  90.00632
_cell_angle_gamma 92.71782

_symmetry_space_group_name_	'P 1'
_symmetry_space_group_name_H-M	'P 1'

loop_
_symmetry_equiv_pos_as_xyz
  x,y,z

loop_
_atom_site_label
_atom_site_type_symbol
_atom_site_fract_x
_atom_site_fract_y
_atom_site_fract_z
_atom_site_charge
C 	C 	0.89914 0.97501 0.99629 -0.04000
C 	C 	0.90270 0.03476 0.98576 -0.04400
C 	C 	0.95043 0.94275 0.99794 0.00800
C 	C 	0.00584 0.97150 0.98854 -0.00700
C 	C 	0.00954 0.03232 0.97902 -0.00800
C 	C 	0.95777 0.06418 0.97748 0.00700
C 	C 	0.05761 0.93950 0.98830 0.00900
C 	C 	0.11134 0.96769 0.97343 -0.04200
C 	C 	0.06518 0.06125 0.97138 0.00700
C 	C 	0.96227 0.12516 0.96819 -0.01100
C 	C 	0.01787 0.15394 0.96423 -0.04600
C 	C 	0.06929 0.12286 0.96761 -0.01100
C 	C 	0.94753 0.88223 0.00914 -0.01100
C 	C 	0.99946 0.85202 0.01299 -0.04600
C 	C 	0.05437 0.87972 0.00237 -0.01200
C 	C 	0.90935 0.15975 0.96375 0.01400
C 	C 	0.88365 0.16827 0.91664 -0.04600
C 	C 	0.83490 0.20295 0.91221 -0.04100
C 	C 	0.81201 0.22974 0.95478 0.00500
C 	C 	0.83706 0.22028 0.00199 -0.04200
C 	C 	0.88590 0.18585 0.00640 -0.04800
C 	C 	0.12659 0.15565 0.97295 0.01400
C 	C 	0.15439 0.15935 0.01992 -0.04700
C 	C 	0.20757 0.19191 0.02548 -0.04200
C 	C 	0.15235 0.18477 0.93159 -0.04700
C 	C 	0.20556 0.21737 0.93718 -0.04000
C 	C 	0.23354 0.22070 0.98408 0.00400
C 	C 	0.89045 0.84911 0.01447 0.01000
C 	C 	0.86718 0.83702 0.06229 -0.04600
C 	C 	0.81569 0.80156 0.06748 -0.04100
C 	C 	0.78703 0.77826 0.02486 0.00200
C 	C 	0.81036 0.79035 0.97706 -0.03900
C 	C 	0.86174 0.82583 0.97188 -0.04400
C 	C 	0.10794 0.84541 0.00616 0.01100
C 	C 	0.11287 0.79489 0.97699 -0.04400
C 	C 	0.16260 0.76169 0.98124 -0.04000
C 	C 	0.20880 0.77968 0.01349 0.00300
C 	C 	0.20460 0.83110 0.04163 -0.04100
C 	C 	0.15316 0.86214 0.03989 -0.04600
C 	C 	0.11541 0.02806 0.96646 -0.04100
H 	H 	0.90156 0.14821 0.88355 0.03900
H 	H 	0.81527 0.20941 0.87572 0.03600
H 	H 	0.81891 0.23998 0.03516 0.03500
H 	H 	0.90552 0.17940 0.04289 0.03800
H 	H 	0.78870 0.77216 0.94400 0.03600
H 	H 	0.87972 0.83459 0.93487 0.03900
H 	H 	0.79827 0.79196 0.10454 0.03500
H 	H 	0.88938 0.85446 0.09538 0.03800
H 	H 	0.07808 0.78132 0.95112 0.03800
H 	H 	0.16564 0.72236 0.95902 0.03500
H 	H 	0.14921 0.90025 0.06347 0.03900
H 	H 	0.24072 0.84631 0.06553 0.03500
H 	H 	0.13454 0.13733 0.05212 0.03900
H 	H 	0.22847 0.19499 0.06197 0.03600
H 	H 	0.13102 0.18235 0.89527 0.03800
H 	H 	0.22503 0.24005 0.90514 0.03700
H 	H 	0.85624 0.95411 0.00349 0.03700
H 	H 	0.86239 0.05807 0.98470 0.04000
H 	H 	0.02112 0.20106 0.95983 0.04100
H 	H 	0.15749 0.04866 0.95592 0.03900
H 	H 	0.14993 0.94301 0.96648 0.04100
H 	H 	0.99699 0.80616 0.02332 0.04000
C 	C 	0.10022 0.03034 0.52195 -0.04200
C 	C 	0.09433 0.96965 0.52539 -0.04100
C 	C 	0.05042 0.06374 0.51455 0.00700
C 	C 	0.99393 0.03505 0.51106 -0.00800
C 	C 	0.98799 0.97339 0.51485 -0.00700
C 	C 	0.03868 0.94041 0.52036 0.00600
C 	C 	0.94345 0.06788 0.50364 0.00700
C 	C 	0.88736 0.03877 0.50188 -0.04200
C 	C 	0.93139 0.94474 0.51275 0.00600
C 	C 	0.03263 0.87862 0.52114 -0.01000
C 	C 	0.97656 0.85082 0.52070 -0.04700
C 	C 	0.92605 0.88302 0.51672 -0.01000
C 	C 	0.05598 0.12544 0.51050 -0.01000
C 	C 	0.00594 0.15741 0.50202 -0.04700
C 	C 	0.95002 0.12938 0.49830 -0.01000
C 	C 	0.08452 0.84234 0.51894 0.01200
C 	C 	0.11765 0.83993 0.47466 -0.04600
C 	C 	0.16549 0.80402 0.47197 -0.04000
C 	C 	0.17929 0.76876 0.51291 0.00200
C 	C 	0.14594 0.77088 0.55706 -0.04000
C 	C 	0.09872 0.80756 0.56007 -0.04600
C 	C 	0.86809 0.85105 0.51537 0.01200
C 	C 	0.83497 0.84370 0.55951 -0.04600
C 	C 	0.78422 0.80672 0.55990 -0.04000
C 	C 	0.84959 0.82191 0.47146 -0.04600
C 	C 	0.79917 0.78457 0.47197 -0.04000
C 	C 	0.76697 0.77600 0.51643 0.00200
C 	C 	0.11397 0.15724 0.51470 0.01200
C 	C 	0.13783 0.17075 0.56207 -0.04600
C 	C 	0.19211 0.20187 0.56600 -0.04100
C 	C 	0.22284 0.21975 0.52259 0.00300
C 	C 	0.19862 0.20679 0.47524 -0.04100
C 	C 	0.14457 0.17533 0.47132 -0.04500
C 	C 	0.89865 0.16512 0.48931 0.01200
C 	C 	0.87632 0.17107 0.44061 -0.04600
C 	C 	0.82717 0.20429 0.43231 -0.04100
C 	C 	0.80088 0.23270 0.47253 0.00300
C 	C 	0.82301 0.22636 0.52123 -0.04100
C 	C 	0.87194 0.19300 0.52955 -0.04600
C 	C 	0.88145 0.97812 0.50632 -0.04100
H 	H 	0.10654 0.86620 0.44255 0.03900
H 	H 	0.19168 0.80333 0.43804 0.03500
H 	H 	0.15687 0.74435 0.58906 0.03500
H 	H 	0.07306 0.80889 0.59426 0.03800
H 	H 	0.22167 0.22117 0.44155 0.03700
H 	H 	0.12628 0.16533 0.43462 0.03900
H 	H 	0.21010 0.21240 0.60270 0.03500
H 	H 	0.11429 0.15720 0.59576 0.03900
H 	H 	0.89670 0.14955 0.40936 0.03900
H 	H 	0.80983 0.20835 0.39470 0.03600
H 	H 	0.88890 0.18848 0.56725 0.03800
H 	H 	0.80241 0.24755 0.55256 0.03500
H 	H 	0.84909 0.86589 0.59363 0.03900
H 	H 	0.75868 0.80147 0.59404 0.03500
H 	H 	0.87505 0.82719 0.43727 0.03900
H 	H 	0.78546 0.76181 0.43800 0.03700
H 	H 	0.14383 0.05114 0.52507 0.03900
H 	H 	0.13333 0.94556 0.53246 0.04000
H 	H 	0.97222 0.80347 0.52226 0.04100
H 	H 	0.83774 0.95730 0.50444 0.04000
H 	H 	0.84794 0.06293 0.49723 0.04000
H 	H 	0.01055 0.20458 0.49841 0.04100
Ni	Ni	0.48022 0.54065 0.04154 1.09900
O 	O 	0.54332 0.48220 0.02759 -0.70700
Ni	Ni	0.52538 0.46116 0.95614 1.09800
O 	O 	0.48331 0.53161 0.11809 -0.38000
O 	O 	0.47352 0.43235 0.11138 -0.42000
O 	O 	0.54362 0.60816 0.04760 -0.37000
Ni	Ni	0.54356 0.41006 0.06628 1.07100
O 	O 	0.46290 0.65648 0.98617 -0.40200
O 	O 	0.49121 0.35259 0.02507 -0.40600
O 	O 	0.57469 0.38843 0.94805 -0.38200
O 	O 	0.47193 0.52924 0.96744 -0.70200
O 	O 	0.41824 0.60093 0.04801 -0.38300
O 	O 	0.50810 0.46130 0.88060 -0.36700
O 	O 	0.53497 0.55860 0.87388 -0.40900
Ni	Ni	0.49788 0.60152 0.93433 1.06700
H 	H 	0.58318 0.50129 0.02892 0.15500
H 	H 	0.43036 0.51905 0.95875 0.15400
C 	C 	0.44496 0.36832 0.00007 0.30100
O 	O 	0.57842 0.60389 0.96753 -0.42000
C 	C 	0.47780 0.47978 0.13921 0.29000
C 	C 	0.61612 0.37256 0.97974 0.29400
C 	C 	0.58558 0.61945 0.01444 0.29200
C 	C 	0.51131 0.51007 0.85421 0.25600
C 	C 	0.41558 0.64198 0.01343 0.27600
O 	O 	0.45002 0.41011 0.96664 -0.39200
O 	O 	0.61580 0.38689 0.02792 -0.42300
Ni	Ni	0.46126 0.54344 0.53844 1.09900
O 	O 	0.52778 0.48778 0.52696 -0.70400
Ni	Ni	0.50696 0.45628 0.45867 1.09800
O 	O 	0.46977 0.54562 0.61515 -0.37800
O 	O 	0.46819 0.44621 0.61848 -0.42700
O 	O 	0.51986 0.61509 0.53496 -0.37700
Ni	Ni	0.53579 0.42157 0.57198 1.06800
O 	O 	0.43079 0.64934 0.47257 -0.41500
O 	O 	0.48310 0.35684 0.53963 -0.40600
O 	O 	0.56073 0.38628 0.45431 -0.38200
O 	O 	0.44926 0.52153 0.46640 -0.70300
O 	O 	0.39564 0.60011 0.54232 -0.38300
O 	O 	0.48543 0.44556 0.38433 -0.36700
O 	O 	0.50475 0.54261 0.36789 -0.40700
Ni	Ni	0.46734 0.59011 0.42540 1.06400
H 	H 	0.56633 0.50959 0.52484 0.15200
H 	H 	0.40796 0.50751 0.46072 0.15300
C 	C 	0.43440 0.36738 0.51571 0.29900
O 	O 	0.54985 0.60337 0.45401 -0.42000
C 	C 	0.47202 0.49708 0.64123 0.29100
C 	C 	0.60355 0.37496 0.48629 0.29500
C 	C 	0.55902 0.62438 0.49914 0.29500
C 	C 	0.48418 0.49048 0.35347 0.25800
C 	C 	0.38743 0.63601 0.50453 0.28000
O 	O 	0.43581 0.40223 0.47676 -0.39000
O 	O 	0.60644 0.39771 0.53194 -0.42500
C 	C 	0.50180 0.50693 0.79968 -0.04100
C 	C 	0.45324 0.47434 0.78030 -0.04200
C 	C 	0.44409 0.47109 0.72857 0.01700
C 	C 	0.48375 0.49981 0.69547 -0.13200
C 	C 	0.53428 0.53100 0.71475 0.11700
C 	C 	0.54183 0.53568 0.76691 -0.07500
H 	H 	0.40579 0.44656 0.71415 0.02700
H 	H 	0.58005 0.55992 0.78188 0.05300
H 	H 	0.42214 0.45202 0.80539 0.04100
N 	N 	0.57665 0.55434 0.68363 -0.20200
H 	H 	0.57649 0.54528 0.64527 0.06900
H 	H 	0.61227 0.57951 0.69815 0.07800
C 	C 	0.47662 0.47945 0.29963 -0.04000
C 	C 	0.43463 0.50930 0.27264 -0.03800
C 	C 	0.43350 0.50663 0.22036 0.01700
C 	C 	0.47527 0.47517 0.19426 -0.11800
C 	C 	0.51731 0.44383 0.22150 0.11100
C 	C 	0.51622 0.44491 0.27420 -0.06400
H 	H 	0.40117 0.53056 0.19995 0.02800
H 	H 	0.54866 0.42179 0.29528 0.05400
H 	H 	0.40367 0.53578 0.29217 0.02000
N 	N 	0.56028 0.41514 0.19758 -0.19400
H 	H 	0.56696 0.41899 0.15901 0.02100
H 	H 	0.58951 0.39051 0.21803 0.07300
C 	C 	0.33557 0.67170 0.50524 -0.10600
C 	C 	0.33507 0.72423 0.53320 0.07100
C 	C 	0.28299 0.75450 0.53605 -0.08400
C 	C 	0.23194 0.73374 0.51118 0.01100
C 	C 	0.23212 0.68077 0.48390 -0.01000
C 	C 	0.28416 0.65033 0.48116 -0.01000
H 	H 	0.28246 0.79494 0.55716 0.04800
H 	H 	0.28427 0.60911 0.46114 0.01200
C 	C 	0.39011 0.75017 0.55842 -0.08500
C 	C 	0.17607 0.65368 0.46123 -0.05200
C 	C 	0.41544 0.80271 0.52898 -0.12800
H 	H 	0.42474 0.71810 0.56318 0.06400
H 	H 	0.37876 0.76480 0.59683 0.04400
H 	H 	0.42483 0.79003 0.48969 0.05400
H 	H 	0.45696 0.81951 0.54690 0.04700
H 	H 	0.38399 0.83838 0.52874 0.04900
C 	C 	0.14163 0.61664 0.49983 -0.14300
H 	H 	0.18692 0.62538 0.42896 0.03000
H 	H 	0.14753 0.68739 0.44593 0.03700
H 	H 	0.16880 0.58104 0.51390 0.05300
H 	H 	0.10125 0.59672 0.48214 0.04900
H 	H 	0.12833 0.64398 0.53190 0.05700
C 	C 	0.71322 0.73729 0.51657 0.01100
C 	C 	0.71585 0.67654 0.52557 -0.01000
C 	C 	0.66420 0.64058 0.52179 -0.00300
C 	C 	0.61067 0.66408 0.50825 -0.10400
C 	C 	0.60790 0.72499 0.50045 0.07000
C 	C 	0.65932 0.76095 0.50462 -0.08400
H 	H 	0.66592 0.59403 0.52870 0.01800
H 	H 	0.65759 0.80745 0.49752 0.04800
C 	C 	0.77279 0.64979 0.54113 -0.05200
C 	C 	0.55096 0.75199 0.48569 -0.09100
C 	C 	0.77894 0.64900 0.59811 -0.14200
H 	H 	0.81185 0.67337 0.52443 0.03800
H 	H 	0.77352 0.60414 0.52704 0.03200
H 	H 	0.77981 0.69409 0.61340 0.05600
H 	H 	0.82073 0.62886 0.60850 0.04900
H 	H 	0.74168 0.62292 0.61525 0.05100
C 	C 	0.54387 0.75378 0.42880 -0.12100
H 	H 	0.55043 0.79739 0.50035 0.04100
H 	H 	0.51255 0.72793 0.50276 0.06200
H 	H 	0.58090 0.78008 0.41157 0.04900
H 	H 	0.50198 0.77422 0.41921 0.04100
H 	H 	0.54258 0.70902 0.41282 0.03800
C 	C 	0.65001 0.33653 0.47054 -0.10000
C 	C 	0.64313 0.27530 0.47705 0.06100
C 	C 	0.69256 0.24108 0.47309 -0.08100
C 	C 	0.74859 0.26724 0.46417 0.00900
C 	C 	0.75446 0.32764 0.45310 -0.00900
C 	C 	0.70492 0.36176 0.45652 -0.00500
H 	H 	0.68785 0.19430 0.47922 0.04600
H 	H 	0.70977 0.40858 0.45058 0.02600
C 	C 	0.58321 0.24582 0.48737 -0.07700
C 	C 	0.81364 0.35683 0.43983 -0.05300
C 	C 	0.54921 0.23423 0.43875 -0.13400
H 	H 	0.55683 0.27245 0.51294 0.05100
H 	H 	0.58829 0.20346 0.50689 0.03800
H 	H 	0.54132 0.27583 0.41907 0.07200
H 	H 	0.50592 0.21194 0.44736 0.05200
H 	H 	0.57414 0.20562 0.41363 0.05300
C 	C 	0.84409 0.38325 0.48614 -0.14200
H 	H 	0.80732 0.39226 0.41212 0.03300
H 	H 	0.84302 0.32588 0.42152 0.03800
H 	H 	0.81640 0.41639 0.50360 0.05200
H 	H 	0.88688 0.40494 0.47509 0.05000
H 	H 	0.85272 0.34883 0.51411 0.05600
C 	C 	0.38140 0.32907 0.52416 -0.09900
C 	C 	0.32648 0.35269 0.53560 0.05800
C 	C 	0.27541 0.31574 0.53659 -0.07800
C 	C 	0.27828 0.25588 0.52665 0.00900
C 	C 	0.33363 0.23170 0.51819 -0.00800
C 	C 	0.38480 0.26861 0.51747 -0.00200
H 	H 	0.23308 0.33389 0.54415 0.04700
H 	H 	0.42722 0.25036 0.51054 0.03400
C 	C 	0.32138 0.41726 0.54638 -0.07200
C 	C 	0.33918 0.16635 0.51272 -0.05200
C 	C 	0.29628 0.44883 0.50130 -0.14000
H 	H 	0.36429 0.43890 0.55714 0.02400
H 	H 	0.29161 0.42260 0.57898 0.04000
H 	H 	0.32209 0.44029 0.46694 0.05200
H 	H 	0.29798 0.49664 0.50845 0.04100
H 	H 	0.24964 0.43394 0.49492 0.05200
C 	C 	0.34380 0.13715 0.56391 -0.14300
H 	H 	0.37918 0.15726 0.49055 0.03300
H 	H 	0.30142 0.14586 0.49172 0.03800
H 	H 	0.38292 0.15552 0.58456 0.05400
H 	H 	0.34859 0.08951 0.55883 0.05000
H 	H 	0.30357 0.14363 0.58647 0.05600
C 	C 	0.26333 0.74687 0.01477 0.00400
C 	C 	0.28052 0.71703 0.05852 -0.00600
C 	C 	0.33278 0.68676 0.05800 -0.01000
C 	C 	0.36463 0.68014 0.01332 -0.09300
C 	C 	0.34445 0.70622 0.96853 0.04800
C 	C 	0.29653 0.74256 0.97073 -0.07200
H 	H 	0.34721 0.66597 0.09209 0.04400
H 	H 	0.28303 0.76510 0.93716 0.04500
C 	C 	0.24043 0.71119 0.10391 -0.05300
C 	C 	0.37113 0.69363 0.91775 -0.05900
C 	C 	0.19354 0.66197 0.09660 -0.14200
H 	H 	0.21887 0.75242 0.11232 0.03800
H 	H 	0.26658 0.70145 0.13790 0.03400
H 	H 	0.16470 0.67141 0.06427 0.05600
H 	H 	0.16577 0.65771 0.13079 0.05000
H 	H 	0.21458 0.61984 0.09006 0.05400
C 	C 	0.41639 0.74179 0.90250 -0.14900
H 	H 	0.33570 0.69122 0.88892 0.03100
H 	H 	0.39101 0.65035 0.91648 -0.01000
H 	H 	0.39453 0.78371 0.89721 0.05500
H 	H 	0.43734 0.72987 0.86654 0.03700
H 	H 	0.45129 0.74802 0.93139 0.05600
C 	C 	0.63485 0.66062 0.02735 -0.09500
C 	C 	0.69075 0.64046 0.04017 0.05800
C 	C 	0.73994 0.67998 0.04061 -0.07800
C 	C 	0.73367 0.73937 0.03022 0.00800
C 	C 	0.67690 0.76026 0.02162 -0.00700
C 	C 	0.62793 0.72053 0.02049 -0.00700
H 	H 	0.78335 0.66428 0.04819 0.04600
H 	H 	0.58452 0.73610 0.01266 0.03400
C 	C 	0.69859 0.57705 0.05345 -0.07600
C 	C 	0.66753 0.82499 0.01599 -0.05700
C 	C 	0.71366 0.54130 0.00725 -0.14200
H 	H 	0.65841 0.55757 0.07177 0.03200
H 	H 	0.73474 0.57391 0.08130 0.03800
H 	H 	0.67786 0.54212 0.97898 0.05100
H 	H 	0.71929 0.49519 0.01838 0.04600
H 	H 	0.75543 0.55880 0.99011 0.05500
C 	C 	0.66004 0.85372 0.06707 -0.14100
H 	H 	0.62741 0.83168 0.99320 0.03500
H 	H 	0.70451 0.84770 0.99556 0.04000
H 	H 	0.62148 0.83319 0.08707 0.05700
H 	H 	0.65262 0.90089 0.06189 0.05000
H 	H 	0.70015 0.84952 0.09032 0.05600
C 	C 	0.66251 0.33547 0.96162 -0.10000
C 	C 	0.65484 0.27386 0.96315 0.06200
C 	C 	0.70394 0.23962 0.95706 -0.08100
C 	C 	0.76031 0.26596 0.95038 0.00800
C 	C 	0.76704 0.32728 0.94427 -0.00800
C 	C 	0.71790 0.36150 0.95017 -0.00600
H 	H 	0.69859 0.19240 0.95930 0.04700
H 	H 	0.72334 0.40873 0.94796 0.02500
C 	C 	0.59430 0.24407 0.96953 -0.07700
C 	C 	0.82662 0.35706 0.93331 -0.05400
C 	C 	0.56260 0.23780 0.91922 -0.13400
H 	H 	0.56689 0.26827 0.99613 0.05300
H 	H 	0.59822 0.19982 0.98598 0.03800
H 	H 	0.55480 0.28141 0.90304 0.07200
H 	H 	0.51939 0.21394 0.92460 0.05100
H 	H 	0.58910 0.21271 0.89247 0.05300
C 	C 	0.85607 0.38009 0.98130 -0.14000
H 	H 	0.82098 0.39440 0.90739 0.03300
H 	H 	0.85636 0.32736 0.91387 0.03900
H 	H 	0.82830 0.41242 0.99981 0.05200
H 	H 	0.89937 0.40193 0.97202 0.05000
H 	H 	0.86350 0.34378 0.00775 0.05400
C 	C 	0.39131 0.32971 0.00003 -0.10300
C 	C 	0.33585 0.35123 0.01277 0.06200
C 	C 	0.28487 0.31467 0.00756 -0.08200
C 	C 	0.28841 0.25711 0.99044 0.01200
C 	C 	0.34404 0.23505 0.97913 -0.01100
C 	C 	0.39507 0.27148 0.98473 0.00200
H 	H 	0.24220 0.33124 0.01658 0.04700
H 	H 	0.43778 0.25470 0.97630 0.03400
C 	C 	0.33013 0.41321 0.03148 -0.07700
C 	C 	0.34998 0.17212 0.96315 -0.04900
C 	C 	0.31076 0.45320 0.98939 -0.13400
H 	H 	0.37182 0.43149 0.04814 0.03100
H 	H 	0.29681 0.41340 0.06202 0.04000
H 	H 	0.34106 0.45133 0.95683 0.05300
H 	H 	0.31099 0.49896 0.00316 0.04000
H 	H 	0.26541 0.44000 0.97692 0.05200
C 	C 	0.35781 0.13268 0.00854 -0.14800
H 	H 	0.38890 0.16884 0.93819 0.03200
H 	H 	0.31140 0.15559 0.94091 0.03800
H 	H 	0.39801 0.14695 0.02982 0.05400
H 	H 	0.36257 0.08702 0.99576 0.05300
H 	H 	0.31895 0.13363 0.03369 0.05700
