data_crystal

_cell_length_a 24.19653
_cell_length_b 21.51952
_cell_length_c 48.36343
_cell_angle_alpha 90.56611
_cell_angle_beta  91.25022
_cell_angle_gamma 110.69863

_symmetry_space_group_name_	'P 1'
_symmetry_space_group_name_H-M	'P 1'

loop_
_symmetry_equiv_pos_as_xyz
  x,y,z

loop_
_atom_site_label
_atom_site_type_symbol
_atom_site_fract_x
_atom_site_fract_y
_atom_site_fract_z
_atom_site_charge
Ni	Ni	0.00273 0.93410 0.74491 1.09800
O 	O 	0.01686 0.86943 0.71703 -0.70400
Ni	Ni	0.06438 0.93291 0.68918 1.10100
O 	O 	0.02938 0.09797 0.74664 -0.40600
O 	O 	0.03821 0.99442 0.71382 -0.70400
H 	H 	0.04017 0.84427 0.72526 0.16000
H 	H 	0.00665 0.00672 0.70477 0.15500
C 	C 	0.03934 0.80721 0.65970 0.23600
Ni	Ni	0.02919 0.17112 0.22860 1.06600
C 	C 	0.03809 0.06685 0.19056 0.24800
C 	C 	0.02584 0.15408 0.29016 0.23500
O 	O 	0.01321 0.19700 0.18931 -0.39200
C 	C 	0.01035 0.35764 0.15207 -0.00700
H 	H 	0.00257 0.33058 0.19474 0.02900
O 	O 	0.05421 0.00467 0.14974 -0.18800
H 	H 	0.04545 0.90174 0.11438 0.06700
O 	O 	0.03002 0.26144 0.31085 -0.20900
C 	C 	0.00411 0.84106 0.33166 -0.00700
C 	C 	0.02514 0.74932 0.31133 -0.10000
H 	H 	0.02031 0.71471 0.29424 0.06700
C 	C 	0.06113 0.48382 0.50137 -0.04900
C 	C 	0.05285 0.56473 0.46811 -0.00500
C 	C 	0.03373 0.68297 0.61113 0.01600
O 	O 	0.03901 0.69226 0.65897 -0.21200
C 	C 	0.05210 0.75322 0.64588 0.05000
C 	C 	0.05021 0.74815 0.61739 -0.05800
H 	H 	0.04215 0.78415 0.60388 0.06200
C 	C 	0.00731 0.56678 0.97164 -0.01300
C 	C 	0.02935 0.59505 0.01888 -0.03000
H 	H 	0.02313 0.58680 0.04085 0.05300
H 	H 	0.02858 0.30280 0.08799 0.07000
C 	C 	0.04639 0.20536 0.31190 0.04600
O 	O 	0.08255 0.86434 0.66524 -0.35700
O 	O 	0.05840 0.15808 0.26826 -0.40000
O 	O 	0.05734 0.09754 0.21439 -0.40300
C 	C 	0.03701 0.33434 0.10635 -0.09600
C 	C 	0.06102 0.41554 0.15439 -0.08100
C 	C 	0.07673 0.91059 0.13164 -0.08800
C 	C 	0.07378 0.03596 0.17541 0.04200
H 	H 	0.06464 0.39705 0.31326 0.06300
C 	C 	0.05371 0.85622 0.34957 -0.08200
C 	C 	0.08779 0.53960 0.48508 0.01600
S 	S 	0.09542 0.60939 0.44374 0.03400
O 	O 	0.08009 0.93591 0.76385 -0.37700
H 	H 	0.07001 0.44697 0.17280 0.06100
C 	C 	0.09163 0.96882 0.14781 0.11500
C 	C 	0.06822 0.75777 0.33238 0.01500
H 	H 	0.06993 0.90262 0.36127 0.06400
H 	H 	0.08727 0.46521 0.51519 0.04500
S 	S 	0.07882 0.61173 0.97355 0.02100
C 	C 	0.08503 0.62741 0.00767 -0.07000
C 	C 	0.02624 0.65012 0.63592 0.11000
C 	C 	0.07807 0.30654 0.32516 0.11800
Ni	Ni	0.09617 0.07599 0.72913 1.07100
H 	H 	0.09975 0.81702 0.09933 0.05500
C 	C 	0.09593 0.37512 0.32080 -0.09200
C 	C 	0.08438 0.81188 0.35029 0.11100
C 	C 	0.08873 0.39040 0.10935 0.01600
C 	C 	0.10134 0.86293 0.13908 0.00700
O 	O 	0.12821 0.00956 0.67022 -0.35300
O 	O 	0.11630 0.04863 0.76719 -0.37700
C 	C 	0.12198 0.99137 0.77183 0.26900
C 	C 	0.09976 0.43153 0.13230 0.11000
H 	H 	0.10825 0.41550 0.06682 0.05700
C 	C 	0.11206 0.82096 0.12115 -0.05500
C 	C 	0.11985 0.02142 0.18757 -0.06500
C 	C 	0.09857 0.21546 0.32652 -0.05900
C 	C 	0.11513 0.73868 0.33065 -0.05900
H 	H 	0.12227 0.70735 0.31448 0.05200
O 	O 	0.14260 0.65259 0.05031 -0.37400
C 	C 	0.14025 0.63833 0.02341 0.28900
C 	C 	0.11921 0.42641 0.08861 -0.05900
C 	C 	0.13140 0.97953 0.16977 0.01300
H 	H 	0.12987 0.02437 0.20960 0.05200
C 	C 	0.11826 0.27932 0.33500 0.01000
H 	H 	0.14904 0.50826 0.33468 0.05800
C 	C 	0.15907 0.60163 0.45406 -0.07600
C 	C 	0.14771 0.56038 0.47717 -0.01800
O 	O 	0.13849 0.49574 0.12790 -0.18600
C 	C 	0.14890 0.48895 0.09988 0.04100
C 	C 	0.14306 0.87495 0.16030 0.12000
C 	C 	0.15594 0.41376 0.32485 0.00700
H 	H 	0.12684 0.18674 0.32327 0.05300
O 	O 	0.14175 0.82993 0.36104 -0.19000
O 	O 	0.16735 0.05764 0.71204 -0.40600
C 	C 	0.17215 0.05183 0.68507 0.23500
C 	C 	0.15671 0.93232 0.17702 -0.09400
C 	C 	0.15857 0.78181 0.34765 0.04300
C 	C 	0.16690 0.98922 0.79209 0.04600
O 	O 	0.17728 0.54006 0.05594 -0.39000
C 	C 	0.16038 0.80881 0.13190 0.04900
C 	C 	0.17657 0.47842 0.33212 -0.05500
H 	H 	0.17838 0.53793 0.48504 0.04200
O 	O 	0.17721 0.02913 0.81596 -0.18400
O 	O 	0.17506 0.72555 0.10305 -0.35500
C 	C 	0.17976 0.54674 0.08300 0.27100
O 	O 	0.18468 0.62850 0.01083 -0.41400
C 	C 	0.17809 0.31829 0.33949 -0.09000
O 	O 	0.19993 0.61950 0.40865 -0.37400
O 	O 	0.18236 0.84162 0.15710 -0.20800
C 	C 	0.20754 0.60867 0.43515 0.28600
C 	C 	0.19758 0.78580 0.11414 0.24100
O 	O 	0.20150 0.60574 0.09492 -0.37100
H 	H 	0.18810 0.94129 0.19424 0.06300
C 	C 	0.19582 0.38678 0.33512 0.11700
O 	O 	0.20544 0.70540 0.36114 -0.36100
C 	C 	0.21097 0.76778 0.35691 0.24000
C 	C 	0.21574 0.97562 0.78374 -0.06000
Ni	Ni	0.21934 0.69272 0.07398 1.09900
H 	H 	0.22210 0.96257 0.76263 0.04900
H 	H 	0.20947 0.29642 0.34699 0.06500
C 	C 	0.22891 0.48896 0.34669 0.04100
C 	C 	0.23047 0.08204 0.67272 0.04300
C 	C 	0.23730 0.04297 0.81982 0.11600
Ni	Ni	0.24278 0.59384 0.03013 1.07100
O 	O 	0.24513 0.05731 0.64816 -0.18500
O 	O 	0.24454 0.83054 0.10353 -0.39200
O 	O 	0.24410 0.43226 0.34915 -0.19300
O 	O 	0.25531 0.59758 0.44443 -0.40900
C 	C 	0.25295 0.54480 0.36631 0.27100
O 	O 	0.25624 0.53215 0.39261 -0.37700
H 	H 	0.25630 0.13028 0.84620 0.06700
O 	O 	0.25600 0.81692 0.36819 -0.38700
O 	O 	0.00120 0.93370 0.65991 -0.35200
O 	O 	0.25902 0.60488 0.35827 -0.38300
C 	C 	0.26025 0.00959 0.80134 0.01100
Ni	Ni	0.26557 0.68162 0.38512 1.09900
H 	H 	0.27450 0.16355 0.70228 0.04600
C 	C 	0.27395 0.10334 0.83195 -0.08500
O 	O 	0.27815 0.68056 0.04819 -0.70300
C 	C 	0.27768 0.12874 0.68660 -0.06100
C 	C 	0.00019 0.45045 0.49785 -0.01100
C 	C 	0.00013 0.65293 0.58735 -0.10400
C 	C 	0.99928 0.31650 0.12888 0.13200
H 	H 	0.99755 0.93781 0.32801 0.05900
C 	C 	0.98685 0.31871 0.17347 -0.04600
O 	O 	0.99557 0.00291 0.77309 -0.34900
C 	C 	0.99595 0.06286 0.76659 0.25900
C 	C 	0.99140 0.79059 0.31200 0.13200
C 	C 	0.98211 0.88578 0.32184 -0.04500
Ni	Ni	0.69962 0.31253 0.88303 1.09900
O 	O 	0.62444 0.26883 0.85956 -0.70700
Ni	Ni	0.56583 0.29069 0.88222 1.10100
O 	O 	0.74748 0.28124 0.85527 -0.35000
O 	O 	0.68604 0.17268 0.85913 -0.40000
O 	O 	0.70992 0.39469 0.85959 -0.38000
Ni	Ni	0.59957 0.17297 0.85640 1.06600
O 	O 	0.72996 0.38712 0.94480 -0.41100
O 	O 	0.59637 0.15810 0.89814 -0.41300
O 	O 	0.49700 0.25443 0.85488 -0.37200
O 	O 	0.63802 0.32028 0.90830 -0.70600
O 	O 	0.77493 0.36379 0.90604 -0.37100
O 	O 	0.52071 0.33818 0.90446 -0.37700
O 	O 	0.59981 0.43550 0.90450 -0.41100
Ni	Ni	0.66573 0.40981 0.92427 1.07100
H 	H 	0.62673 0.28862 0.84103 0.15900
H 	H 	0.63365 0.28868 0.92351 0.15700
C 	C 	0.55563 0.16739 0.91335 0.29000
O 	O 	0.72710 0.46389 0.89718 -0.37500
C 	C 	0.73265 0.21789 0.84829 0.24000
C 	C 	0.48370 0.19432 0.84374 0.24500
C 	C 	0.72097 0.45425 0.87035 0.26700
C 	C 	0.54346 0.40285 0.90891 0.26900
C 	C 	0.77608 0.37975 0.93273 0.28900
O 	O 	0.52775 0.20672 0.90512 -0.37100
O 	O 	0.50980 0.15308 0.85296 -0.38500
Ni	Ni	0.63247 0.31952 0.57522 1.09900
O 	O 	0.69920 0.33525 0.54798 -0.70100
Ni	Ni	0.76123 0.31692 0.57126 1.09800
O 	O 	0.58640 0.36439 0.55152 -0.37000
O 	O 	0.66848 0.45709 0.54693 -0.41000
O 	O 	0.58504 0.23203 0.55446 -0.37300
Ni	Ni	0.73119 0.42207 0.53086 1.07100
O 	O 	0.56741 0.18935 0.60571 -0.39600
O 	O 	0.79468 0.48270 0.55790 -0.37600
O 	O 	0.83156 0.34510 0.54491 -0.37700
O 	O 	0.69149 0.29428 0.59755 -0.70200
O 	O 	0.56840 0.29659 0.60387 -0.36800
O 	O 	0.80951 0.28282 0.59881 -0.35900
O 	O 	0.73485 0.18249 0.60262 -0.38700
Ni	Ni	0.65508 0.19889 0.60384 1.06700
H 	H 	0.68713 0.30191 0.53272 0.15300
H 	H 	0.70174 0.31993 0.61521 0.15900
C 	C 	0.82282 0.46165 0.57701 0.26700
O 	O 	0.64620 0.17417 0.56290 -0.41200
C 	C 	0.61170 0.42484 0.54228 0.27400
C 	C 	0.83696 0.38411 0.52321 0.29300
C 	C 	0.60814 0.18800 0.54672 0.28700
C 	C 	0.78597 0.22574 0.61141 0.24300
C 	C 	0.54599 0.23570 0.61337 0.25200
O 	O 	0.79511 0.40773 0.59069 -0.38500
O 	O 	0.79027 0.39156 0.51099 -0.41800
O 	O 	0.95583 0.85739 0.76965 -0.35100
O 	O 	0.89512 0.80152 0.73357 -0.38600
Ni	Ni	0.94563 0.80937 0.69849 1.07200
O 	O 	0.91849 0.88397 0.68503 -0.40300
C 	C 	0.94640 0.92610 0.66606 0.25700
C 	C 	0.91688 0.80228 0.75887 0.24100
O 	O 	0.98350 0.80247 0.66173 -0.38100
O 	O 	0.33264 0.73721 0.36106 -0.70700
Ni	Ni	0.40155 0.72386 0.38002 1.10200
Ni	Ni	0.34531 0.83131 0.36248 1.06600
O 	O 	0.35528 0.83851 0.40458 -0.41100
O 	O 	0.46260 0.77323 0.35213 -0.35600
O 	O 	0.33589 0.68097 0.40727 -0.70300
O 	O 	0.45938 0.68387 0.39765 -0.36800
O 	O 	0.38727 0.58106 0.39609 -0.41100
Ni	Ni	0.31992 0.59043 0.41968 1.07100
H 	H 	0.32819 0.72052 0.34168 0.16100
H 	H 	0.34000 0.70950 0.42390 0.15500
C 	C 	0.40293 0.83651 0.41739 0.28800
C 	C 	0.46437 0.83234 0.34383 0.24200
C 	C 	0.44249 0.61932 0.40143 0.27000
O 	O 	0.43529 0.80570 0.40606 -0.37100
O 	O 	0.43532 0.86495 0.35731 -0.39400
Ni	Ni	0.35041 0.69999 0.07417 1.10100
O 	O 	0.39055 0.64983 0.05014 -0.37200
O 	O 	0.30515 0.55999 0.04815 -0.41400
O 	O 	0.39321 0.78561 0.05295 -0.36800
O 	O 	0.41543 0.83215 0.10510 -0.38100
O 	O 	0.29531 0.72580 0.09788 -0.70400
O 	O 	0.42000 0.72739 0.10157 -0.37000
Ni	Ni	0.32771 0.82171 0.10316 1.06900
H 	H 	0.28533 0.71436 0.03369 0.15600
H 	H 	0.29093 0.70328 0.11589 0.16200
O 	O 	0.33036 0.84100 0.06196 -0.41400
C 	C 	0.36109 0.58820 0.04196 0.27200
C 	C 	0.36858 0.82896 0.04586 0.28800
C 	C 	0.43639 0.78642 0.11403 0.24400
Ni	Ni	0.94252 0.03626 0.26123 1.09700
O 	O 	0.94875 0.11303 0.23546 -0.70500
Ni	Ni	0.91538 0.06336 0.20034 1.09900
O 	O 	0.97799 0.10143 0.29369 -0.34600
O 	O 	0.85938 0.03585 0.26955 -0.36500
O 	O 	0.90919 0.87118 0.25320 -0.38400
O 	O 	0.91445 0.14338 0.17846 -0.35700
O 	O 	0.92412 0.98940 0.22432 -0.70100
O 	O 	0.92947 0.95595 0.28618 -0.36200
O 	O 	0.86353 0.99911 0.17048 -0.35600
O 	O 	0.80198 0.93572 0.20278 -0.40100
Ni	Ni	0.85823 0.90582 0.22809 1.07300
H 	H 	0.92452 0.13907 0.24153 0.16300
H 	H 	0.95876 0.97819 0.21909 0.15700
O 	O 	0.81793 0.92447 0.26203 -0.38200
C 	C 	0.96169 0.19854 0.17987 0.24900
C 	C 	0.81229 0.98204 0.26615 0.26600
C 	C 	0.81370 0.95191 0.17680 0.24100
C 	C 	0.93284 0.89880 0.27742 0.25300
O 	O 	0.98906 0.06804 0.17885 -0.34200
O 	O 	0.96674 0.25046 0.13415 -0.18100
C 	C 	0.96259 0.25471 0.16283 0.04200
C 	C 	0.68301 0.86241 0.14087 0.12100
C 	C 	0.63209 0.80515 0.14145 -0.09000
C 	C 	0.57760 0.81299 0.14525 0.01100
C 	C 	0.57309 0.87502 0.14675 0.11600
C 	C 	0.62390 0.93220 0.14563 -0.08600
C 	C 	0.67835 0.92445 0.14156 0.00900
O 	O 	0.73799 0.86228 0.14962 -0.20300
C 	C 	0.76551 0.92984 0.15615 0.04900
C 	C 	0.73047 0.96722 0.15113 -0.05100
O 	O 	0.51765 0.87551 0.13913 -0.19500
C 	C 	0.49005 0.80844 0.13180 0.04400
C 	C 	0.52529 0.77061 0.13558 -0.06000
H 	H 	0.63516 0.75620 0.14024 0.06500
H 	H 	0.62082 0.98114 0.14690 0.06600
H 	H 	0.73604 0.01376 0.16174 0.05000
H 	H 	0.51928 0.72446 0.12457 0.06200
C 	C 	0.56473 0.90081 0.29050 0.11700
C 	C 	0.60199 0.89609 0.26944 -0.08800
C 	C 	0.65713 0.94734 0.26748 0.01200
C 	C 	0.67863 0.99518 0.28815 0.11600
C 	C 	0.64284 0.99698 0.31038 -0.08200
C 	C 	0.58407 0.95246 0.30968 0.00700
O 	O 	0.51798 0.84599 0.29926 -0.20000
C 	C 	0.51164 0.86979 0.32551 0.04800
C 	C 	0.55045 0.93288 0.33191 -0.05800
O 	O 	0.74009 0.02209 0.29017 -0.18600
C 	C 	0.75307 0.98526 0.26896 0.04200
C 	C 	0.70410 0.94070 0.25543 -0.05900
H 	H 	0.59001 0.85219 0.25618 0.06600
H 	H 	0.66108 0.02902 0.32825 0.06500
H 	H 	0.56219 0.95344 0.35267 0.05900
H 	H 	0.70362 0.89674 0.24413 0.05500
O 	O 	0.96023 0.79983 0.28886 -0.19200
C 	C 	0.95601 0.86075 0.29653 0.04400
C 	C 	0.44700 0.96839 0.47744 0.00200
C 	C 	0.45711 0.03407 0.48570 -0.05800
C 	C 	0.51540 0.07547 0.49198 0.01600
C 	C 	0.56233 0.05252 0.48808 -0.00300
C 	C 	0.55224 0.98681 0.47994 -0.05100
C 	C 	0.49400 0.94548 0.47351 0.01500
S 	S 	0.39055 0.92289 0.45728 0.02300
C 	C 	0.42148 0.87108 0.44417 -0.08000
C 	C 	0.47958 0.89043 0.45489 -0.02000
S 	S 	0.61925 0.09880 0.50778 0.02200
C 	C 	0.58857 0.15124 0.52051 -0.08100
C 	C 	0.53019 0.13135 0.51016 -0.02000
H 	H 	0.42071 0.05181 0.48789 0.04700
H 	H 	0.58868 0.96915 0.47771 0.04800
H 	H 	0.51258 0.87297 0.44632 0.05000
H 	H 	0.49740 0.14911 0.51878 0.04800
C 	C 	0.99190 0.53115 0.46468 -0.04800
C 	C 	0.96565 0.47421 0.48023 0.02400
S 	S 	0.95632 0.40129 0.52090 0.04300
C 	C 	0.89241 0.40453 0.50816 -0.07300
C 	C 	0.90471 0.44829 0.48595 -0.01900
H 	H 	0.96572 0.54916 0.45061 0.04800
H 	H 	0.87268 0.46720 0.47680 0.04000
C 	C 	0.51247 0.47401 0.48853 -0.00400
C 	C 	0.48480 0.46378 0.46236 -0.06000
C 	C 	0.50377 0.51531 0.44334 0.01500
C 	C 	0.55236 0.57326 0.44992 -0.00300
C 	C 	0.58145 0.58236 0.47585 -0.05800
C 	C 	0.56229 0.53061 0.49477 0.01500
S 	S 	0.51429 0.41382 0.50926 0.02300
C 	C 	0.57559 0.45697 0.52759 -0.07500
C 	C 	0.59830 0.52112 0.51670 -0.02800
S 	S 	0.54564 0.63439 0.43099 0.02700
C 	C 	0.48439 0.59005 0.41279 -0.07500
C 	C 	0.46611 0.52448 0.42218 -0.03000
H 	H 	0.44783 0.41860 0.45742 0.04400
H 	H 	0.61824 0.62760 0.48092 0.04700
H 	H 	0.64239 0.55578 0.52161 0.04100
H 	H 	0.42266 0.48817 0.41741 0.03700
C 	C 	0.90644 0.05093 0.63356 0.11300
C 	C 	0.92197 0.11735 0.62565 -0.08700
C 	C 	0.88808 0.15393 0.63538 0.00500
C 	C 	0.83973 0.12520 0.65163 0.12000
C 	C 	0.82484 0.05901 0.65970 -0.09300
C 	C 	0.85719 0.02197 0.64906 0.00900
O 	O 	0.94686 0.01830 0.63464 -0.18900
C 	C 	0.91691 0.96722 0.65246 0.04000
C 	C 	0.86359 0.96918 0.66118 -0.05900
O 	O 	0.79760 0.15511 0.64962 -0.20700
C 	C 	0.82339 0.20217 0.62959 0.04500
C 	C 	0.87784 0.20255 0.62131 -0.05400
H 	H 	0.95965 0.14007 0.61279 0.06600
H 	H 	0.78702 0.03603 0.67245 0.06300
H 	H 	0.84238 0.94745 0.68006 0.05400
H 	H 	0.89653 0.22004 0.60144 0.05900
C 	C 	0.41002 0.20438 0.64681 0.11700
C 	C 	0.37609 0.19329 0.67067 -0.09000
C 	C 	0.32487 0.13615 0.67121 0.01000
C 	C 	0.30538 0.09441 0.64848 0.11400
C 	C 	0.33908 0.10544 0.62460 -0.08700
C 	C 	0.39070 0.16214 0.62410 0.01000
O 	O 	0.47056 0.24040 0.64745 -0.19800
C 	C 	0.48551 0.21360 0.62354 0.04800
C 	C 	0.43846 0.16755 0.60942 -0.05500
H 	H 	0.39042 0.22630 0.68855 0.06400
H 	H 	0.32481 0.07216 0.60680 0.06700
H 	H 	0.44170 0.13120 0.59448 0.05800
C 	C 	0.96415 0.58570 0.58830 0.12800
C 	C 	0.98755 0.58390 0.63724 -0.08100
C 	C 	0.95999 0.55140 0.61263 0.00300
O 	O 	0.91627 0.55807 0.57007 -0.19200
C 	C 	0.88261 0.50494 0.58598 0.04000
C 	C 	0.90812 0.50021 0.61125 -0.05100
H 	H 	0.99814 0.68219 0.56951 0.07600
H 	H 	0.97570 0.56045 0.65705 0.06200
H 	H 	0.88409 0.47495 0.62896 0.05600
C 	C 	0.98108 0.51821 0.95118 -0.04300
C 	C 	0.92985 0.46516 0.95766 0.01300
C 	C 	0.90816 0.45905 0.98457 0.00500
C 	C 	0.93414 0.50770 0.00500 -0.06100
C 	C 	0.98577 0.56043 0.99863 0.03300
S 	S 	0.83700 0.41241 0.98278 0.02100
C 	C 	0.83157 0.39515 0.94876 -0.07100
C 	C 	0.88693 0.42876 0.93749 -0.01700
H 	H 	0.99911 0.52246 0.93068 0.04800
H 	H 	0.91614 0.50331 0.02551 0.05100
H 	H 	0.89319 0.43601 0.91548 0.05400
C 	C 	0.47476 0.06632 0.97662 0.00100
C 	C 	0.42200 0.02854 0.98901 -0.05700
C 	C 	0.41131 0.96094 0.99313 0.02000
C 	C 	0.45052 0.93154 0.98311 -0.00300
C 	C 	0.50335 0.96933 0.97080 -0.04900
C 	C 	0.51409 0.03696 0.96667 0.01200
S 	S 	0.48444 0.13504 0.95898 0.02600
C 	C 	0.54024 0.13258 0.93964 -0.08100
C 	C 	0.55118 0.07434 0.94586 -0.01800
S 	S 	0.44045 0.86239 0.00049 0.02900
C 	C 	0.38466 0.86481 0.01984 -0.08000
C 	C 	0.37403 0.92335 0.01385 -0.02100
H 	H 	0.39123 0.05135 0.99594 0.04700
H 	H 	0.53408 0.94648 0.96384 0.04600
H 	H 	0.57791 0.05486 0.93318 0.04200
H 	H 	0.34721 0.94268 0.02653 0.04500
C 	C 	0.47016 0.52386 0.93863 0.00000
C 	C 	0.47171 0.57181 0.95871 -0.05700
C 	C 	0.42585 0.55587 0.97758 0.01300
C 	C 	0.38174 0.49258 0.97700 -0.00100
C 	C 	0.38552 0.44165 0.95983 -0.05700
C 	C 	0.42931 0.45842 0.93985 0.01600
S 	S 	0.52912 0.52128 0.92240 0.01300
C 	C 	0.50436 0.43981 0.91493 -0.07100
C 	C 	0.44861 0.41104 0.92651 -0.02400
S 	S 	0.34873 0.48139 0.00722 -0.00300
C 	C 	0.38692 0.55578 0.02174 -0.07600
C 	C 	0.42849 0.59178 0.00259 -0.02800
H 	H 	0.50896 0.61814 0.96061 0.04700
H 	H 	0.35752 0.39044 0.96282 0.04600
H 	H 	0.42716 0.35793 0.92886 0.04800
H 	H 	0.45826 0.64243 0.00621 0.04900
C 	C 	0.91759 0.11344 0.81785 0.11700
C 	C 	0.86891 0.10144 0.83489 -0.08800
C 	C 	0.84522 0.15180 0.83788 0.01100
C 	C 	0.86306 0.20755 0.82183 0.11700
C 	C 	0.90794 0.21656 0.80274 -0.08800
C 	C 	0.93775 0.17112 0.80284 0.01000
O 	O 	0.93400 0.06233 0.80740 -0.18400
C 	C 	0.96477 0.09442 0.78445 0.04400
C 	C 	0.96738 0.15908 0.78154 -0.05700
O 	O 	0.82195 0.23907 0.81963 -0.19000
C 	C 	0.77740 0.19601 0.83560 0.04300
C 	C 	0.79020 0.14263 0.84559 -0.06200
H 	H 	0.84809 0.05325 0.84402 0.06800
H 	H 	0.91737 0.25549 0.78761 0.06600
H 	H 	0.97617 0.18651 0.76247 0.05300
H 	H 	0.76716 0.11004 0.86184 0.05600
C 	C 	0.35587 0.09638 0.80591 0.11900
C 	C 	0.31999 0.03538 0.79406 -0.09100
C 	C 	0.33201 0.13113 0.82297 0.00800
O 	O 	0.41702 0.11552 0.80848 -0.20300
C 	C 	0.42712 0.16590 0.82855 0.04700
C 	C 	0.37676 0.17515 0.83741 -0.05500
H 	H 	0.33782 0.00896 0.77966 0.06400
H 	H 	0.37270 0.19635 0.85736 0.06100
C 	C 	0.84357 0.64737 0.78987 0.11900
C 	C 	0.79675 0.58623 0.79068 -0.08900
C 	C 	0.76544 0.56958 0.81525 0.01100
C 	C 	0.78168 0.61015 0.83856 0.11600
C 	C 	0.82856 0.67130 0.83769 -0.08500
C 	C 	0.86048 0.68731 0.81329 0.01000
O 	O 	0.86179 0.68081 0.76537 -0.20600
C 	C 	0.89068 0.74464 0.77648 0.04400
C 	C 	0.89026 0.74915 0.80493 -0.05500
O 	O 	0.76432 0.57681 0.86313 -0.18700
C 	C 	0.73769 0.51227 0.85235 0.04200
C 	C 	0.73795 0.50738 0.82387 -0.05900
H 	H 	0.78401 0.55380 0.77257 0.06400
H 	H 	0.84143 0.70371 0.85580 0.06800
H 	H 	0.89599 0.79421 0.81670 0.06400
H 	H 	0.73459 0.46277 0.81228 0.05800
