data_crystal

_cell_length_a 20.26668
_cell_length_b 20.63948
_cell_length_c 34.99199
_cell_angle_alpha 95.45312
_cell_angle_beta  95.45357
_cell_angle_gamma 126.12564

_symmetry_space_group_name_	'P 1'
_symmetry_space_group_name_H-M	'P 1'

loop_
_symmetry_equiv_pos_as_xyz
  x,y,z

loop_
_atom_site_label
_atom_site_type_symbol
_atom_site_fract_x
_atom_site_fract_y
_atom_site_fract_z
_atom_site_charge
C 	C 	0.04753 0.08997 0.99896 -0.09100
C 	C 	0.08355 0.04913 0.99670 0.05200
C 	C 	0.03562 0.96563 0.99734 -0.09300
H 	H 	0.08447 0.15469 0.99821 0.05700
H 	H 	0.06349 0.93411 0.99550 0.05800
C 	C 	0.98997 0.91939 0.46075 -0.07000
C 	C 	0.03391 0.00246 0.45997 0.03500
C 	C 	0.99257 0.03775 0.45849 -0.07100
H 	H 	0.02249 0.89240 0.46183 0.05200
H 	H 	0.02716 0.10246 0.45802 0.05200
Cu	Cu	0.63389 0.22979 0.00652 0.92800
Cu	Cu	0.70030 0.23604 0.92381 0.87100
Cu	Cu	0.68449 0.36247 0.95797 0.89800
Cu	Cu	0.63608 0.37970 0.03453 0.89700
C 	C 	0.64755 0.28019 0.08845 0.28400
O 	O 	0.51221 0.18186 0.00485 -0.36100
C 	C 	0.65921 0.31050 0.87218 0.28300
O 	O 	0.70252 0.35695 0.01204 -0.63900
O 	O 	0.62525 0.24195 0.95119 -0.64100
O 	O 	0.68642 0.17292 0.00347 -0.37000
O 	O 	0.61551 0.31775 0.07825 -0.38200
C 	C 	0.48205 0.21860 0.99137 0.30200
O 	O 	0.53298 0.29463 0.98723 -0.39700
O 	O 	0.68517 0.48756 0.01897 -0.39200
O 	O 	0.65948 0.23963 0.06201 -0.35800
O 	O 	0.68651 0.37029 0.90198 -0.38100
O 	O 	0.64900 0.24297 0.87745 -0.41700
H 	H 	0.56786 0.20951 0.93600 0.17300
Cu	Cu	0.74260 0.33416 0.45496 0.92500
Cu	Cu	0.74338 0.27944 0.54025 0.87100
Cu	Cu	0.61006 0.28767 0.50515 0.89800
Cu	Cu	0.58407 0.32415 0.42621 0.89600
C 	C 	0.67692 0.30024 0.37286 0.28200
C 	C 	0.66922 0.32324 0.59107 0.28200
O 	O 	0.61277 0.26491 0.45108 -0.63800
O 	O 	0.73297 0.34800 0.51046 -0.64000
O 	O 	0.64233 0.33622 0.38147 -0.38100
O 	O 	0.49010 0.22302 0.49631 -0.38300
C 	C 	0.44357 0.22351 0.46741 0.31400
C 	C 	0.74821 0.48144 0.46534 0.30100
O 	O 	0.67192 0.43081 0.47085 -0.39400
O 	O 	0.47624 0.27657 0.44378 -0.39600
O 	O 	0.73050 0.30409 0.39957 -0.35700
O 	O 	0.60616 0.29187 0.56169 -0.38200
O 	O 	0.73840 0.33447 0.58550 -0.41700
H 	H 	0.57860 0.20602 0.43957 0.16400
C 	C 	0.65254 0.32464 0.83201 -0.07300
C 	C 	0.65062 0.33862 0.75239 0.00500
C 	C 	0.58064 0.27086 0.76413 0.00700
C 	C 	0.58171 0.26516 0.80388 -0.01700
C 	C 	0.51242 0.20701 0.73594 -0.04100
C 	C 	0.51472 0.20667 0.69626 -0.04200
C 	C 	0.58373 0.27197 0.68388 0.00800
C 	C 	0.64991 0.34104 0.71167 0.00500
C 	C 	0.65704 0.33339 0.63141 -0.07300
C 	C 	0.58794 0.26849 0.64395 -0.01900
H 	H 	0.52866 0.21273 0.81273 0.03700
H 	H 	0.45849 0.15571 0.74484 0.03700
H 	H 	0.46278 0.15499 0.67502 0.03800
H 	H 	0.53921 0.21401 0.62288 0.04000
C 	C 	0.67272 0.27531 0.33136 -0.06800
C 	C 	0.59507 0.21899 0.30682 0.00200
C 	C 	0.58887 0.20677 0.26629 -0.05100
C 	C 	0.66029 0.25487 0.24964 0.00600
C 	C 	0.73942 0.30380 0.27449 0.01000
C 	C 	0.74519 0.31466 0.31531 -0.01400
C 	C 	0.72893 0.29444 0.19300 0.01000
C 	C 	0.65501 0.25529 0.20875 0.00600
C 	C 	0.57931 0.22465 0.18408 -0.05100
C 	C 	0.57677 0.22898 0.14445 0.00500
C 	C 	0.64947 0.26591 0.12880 -0.06600
C 	C 	0.72513 0.29699 0.15283 -0.01900
H 	H 	0.53922 0.18513 0.31918 0.02300
H 	H 	0.52931 0.15819 0.24828 0.04200
H 	H 	0.52351 0.20242 0.19570 0.04300
H 	H 	0.51840 0.20615 0.12610 0.04000
C 	C 	0.35601 0.17634 0.46632 -0.11500
C 	C 	0.28229 0.13734 0.46502 0.06300
C 	C 	0.19598 0.09169 0.46323 -0.03000
C 	C 	0.12211 0.05182 0.46167 -0.01300
C 	C 	0.16982 0.09215 0.99410 -0.02100
C 	C 	0.24143 0.12306 0.99226 -0.02600
C 	C 	0.32474 0.15575 0.99081 0.05800
C 	C 	0.39613 0.18336 0.99045 -0.11600
C 	C 	0.96324 0.04648 0.00188 0.05600
C 	C 	0.95192 0.92249 0.00018 0.06000
C 	C 	0.91569 0.96278 0.00261 -0.08900
H 	H 	0.85044 0.92896 0.00453 0.05900
C 	C 	0.90696 0.99019 0.45834 0.04100
C 	C 	0.86236 0.90621 0.45940 -0.07700
C 	C 	0.90450 0.87094 0.46052 0.04100
H 	H 	0.79622 0.86911 0.45958 0.05400
O 	O 	0.77816 0.25938 0.96774 -0.44300
O 	O 	0.74733 0.47985 0.96839 -0.38300
C 	C 	0.74020 0.52256 0.99597 0.31200
C 	C 	0.75677 0.20619 0.99074 0.30800
H 	H 	0.76166 0.39146 0.02512 0.16600
O 	O 	0.78787 0.45281 0.45356 -0.35800
O 	O 	0.80021 0.28153 0.45937 -0.37000
O 	O 	0.71586 0.19750 0.49824 -0.44200
C 	C 	0.76675 0.21416 0.47386 0.30600
H 	H 	0.76540 0.40539 0.52422 0.17300
C 	C 	0.72137 0.39203 0.82068 0.00300
C 	C 	0.72162 0.39832 0.78126 -0.05300
C 	C 	0.71326 0.41020 0.69796 -0.05300
C 	C 	0.71817 0.40506 0.65832 0.00400
H 	H 	0.77694 0.43735 0.84223 0.03300
H 	H 	0.77886 0.44658 0.77341 0.04100
H 	H 	0.75646 0.46864 0.71727 0.04200
H 	H 	0.76947 0.45709 0.64848 0.03100
C 	C 	0.81169 0.34210 0.25834 -0.03900
C 	C 	0.80631 0.33535 0.21790 -0.04000
H 	H 	0.80557 0.35608 0.33440 0.04800
H 	H 	0.87234 0.37738 0.27717 0.04200
H 	H 	0.86291 0.36502 0.20600 0.04000
H 	H 	0.78158 0.32683 0.14076 0.03800
C 	C 	0.78144 0.56521 0.46486 -0.11200
C 	C 	0.80550 0.63433 0.46409 0.05800
C 	C 	0.83356 0.71524 0.46291 -0.02600
C 	C 	0.86163 0.78534 0.46181 -0.01500
C 	C 	0.86691 0.02957 0.45899 -0.01500
C 	C 	0.84027 0.06888 0.46027 -0.02800
C 	C 	0.81398 0.11923 0.46298 0.05800
C 	C 	0.79294 0.16317 0.46682 -0.11900
C 	C 	0.90302 0.83636 0.99965 -0.02300
C 	C 	0.86429 0.76425 0.99894 -0.02200
C 	C 	0.82079 0.68004 0.99790 0.06000
C 	C 	0.78414 0.60810 0.99697 -0.11200
C 	C 	0.80316 0.17460 0.99636 -0.12200
C 	C 	0.84249 0.14812 0.99940 0.05600
C 	C 	0.88758 0.11593 0.00135 -0.02300
C 	C 	0.92391 0.08615 0.00199 -0.02000
