data_crystal

_cell_length_a 20.36667
_cell_length_b 20.52933
_cell_length_c 26.66628
_cell_angle_alpha 95.45131
_cell_angle_beta  95.45235
_cell_angle_gamma 126.12553

_symmetry_space_group_name_	'P 1'
_symmetry_space_group_name_H-M	'P 1'

loop_
_symmetry_equiv_pos_as_xyz
  x,y,z

loop_
_atom_site_label
_atom_site_type_symbol
_atom_site_fract_x
_atom_site_fract_y
_atom_site_fract_z
_atom_site_charge
C 	C 	0.94366 0.03425 0.00036 0.05000
C 	C 	0.06303 0.03584 0.99416 0.04000
C 	C 	0.02807 0.07781 0.99776 -0.08400
C 	C 	0.05428 0.01886 0.45657 0.03500
C 	C 	0.01283 0.05379 0.45146 -0.07100
H 	H 	0.04775 0.11926 0.45221 0.05400
C 	C 	0.88554 0.04302 0.44371 -0.01300
C 	C 	0.85710 0.08072 0.44337 -0.03200
C 	C 	0.21642 0.10863 0.46555 -0.02900
C 	C 	0.14262 0.06886 0.46180 -0.01200
C 	C 	0.90510 0.07478 0.00103 -0.02100
C 	C 	0.14916 0.07843 0.99155 -0.01600
C 	C 	0.82803 0.12880 0.44523 0.05900
C 	C 	0.86829 0.10410 0.00045 -0.01900
C 	C 	0.30241 0.15378 0.46875 0.06300
C 	C 	0.22028 0.10814 0.98944 -0.02800
H 	H 	0.47520 0.09722 0.17913 0.08700
C 	C 	0.80460 0.17087 0.44938 -0.12300
C 	C 	0.82196 0.13500 0.99798 0.05000
H 	H 	0.06585 0.14332 0.99817 0.05600
N 	N 	0.52072 0.14251 0.16155 -0.20000
H 	H 	0.51087 0.13215 0.12155 0.10500
C 	C 	0.30276 0.13917 0.98740 0.05800
C 	C 	0.92644 0.00460 0.44591 0.03100
O 	O 	0.66421 0.15719 0.00233 -0.36700
C 	C 	0.78154 0.16027 0.99382 -0.12100
O 	O 	0.49000 0.16535 0.00434 -0.36000
H 	H 	0.55488 0.17512 0.26219 0.04000
C 	C 	0.37342 0.16579 0.98637 -0.11600
C 	C 	0.89507 0.94951 0.99938 -0.08900
C 	C 	0.93018 0.90819 0.99544 0.04400
C 	C 	0.01390 0.95129 0.99305 -0.07300
H 	H 	0.82982 0.91568 0.00095 0.06300
H 	H 	0.04086 0.91890 0.99008 0.05600
C 	C 	0.88135 0.91957 0.44514 -0.06900
C 	C 	0.92363 0.88482 0.44991 0.03500
C 	C 	0.00980 0.93476 0.45567 -0.06700
H 	H 	0.81455 0.88121 0.44120 0.05400
H 	H 	0.04235 0.90799 0.45942 0.05500
Cu	Cu	0.61117 0.21391 0.00500 0.92700
Cu	Cu	0.67658 0.21679 0.89686 0.87000
Cu	Cu	0.65305 0.34154 0.93724 0.89700
Cu	Cu	0.61259 0.36527 0.03954 0.89700
C 	C 	0.63521 0.27516 0.11224 0.29200
C 	C 	0.64550 0.29422 0.82709 0.28900
O 	O 	0.67756 0.34150 0.00884 -0.63500
O 	O 	0.59956 0.22145 0.93148 -0.64000
O 	O 	0.75464 0.24319 0.95495 -0.44400
O 	O 	0.59788 0.30761 0.09864 -0.38300
O 	O 	0.71207 0.45918 0.94724 -0.38300
C 	C 	0.71120 0.50444 0.98542 0.30900
C 	C 	0.45871 0.20108 0.98635 0.30000
O 	O 	0.50830 0.27668 0.97925 -0.39800
O 	O 	0.65859 0.47150 0.01701 -0.38900
O 	O 	0.64015 0.22790 0.07805 -0.36100
C 	C 	0.73433 0.19090 0.98580 0.30500
O 	O 	0.64377 0.34268 0.86257 -0.37300
O 	O 	0.62797 0.22383 0.83518 -0.41600
H 	H 	0.73721 0.37771 0.02432 0.16500
H 	H 	0.54206 0.18578 0.91188 0.17400
Cu	Cu	0.74870 0.33951 0.43618 0.92500
Cu	Cu	0.76738 0.29256 0.54862 0.87200
Cu	Cu	0.62899 0.29875 0.51092 0.89700
Cu	Cu	0.59305 0.33568 0.40888 0.89700
C 	C 	0.67570 0.30955 0.33031 0.29200
O 	O 	0.79605 0.45900 0.43356 -0.36500
C 	C 	0.70231 0.33672 0.62170 0.28900
O 	O 	0.62196 0.27419 0.43826 -0.63700
O 	O 	0.74994 0.35791 0.51069 -0.64000
O 	O 	0.80483 0.28510 0.43699 -0.37100
O 	O 	0.73135 0.20659 0.49360 -0.44300
O 	O 	0.64152 0.34448 0.34558 -0.38300
O 	O 	0.51035 0.23754 0.50513 -0.38000
C 	C 	0.46217 0.23943 0.46941 0.31100
C 	C 	0.76192 0.49136 0.45289 0.30400
O 	O 	0.68863 0.44354 0.46453 -0.39400
O 	O 	0.49291 0.29448 0.43943 -0.39500
O 	O 	0.72531 0.30496 0.36306 -0.36300
C 	C 	0.77613 0.21998 0.45826 0.30800
O 	O 	0.63466 0.30202 0.58635 -0.38300
O 	O 	0.77050 0.35254 0.60881 -0.42000
H 	H 	0.58546 0.21482 0.42325 0.16400
H 	H 	0.78418 0.41637 0.52755 0.17400
C 	C 	0.62139 0.33302 0.74530 -0.04300
C 	C 	0.66927 0.32000 0.77795 -0.09200
C 	C 	0.73644 0.32583 0.76177 0.09600
C 	C 	0.74771 0.33368 0.71105 -0.04400
C 	C 	0.69680 0.34178 0.67708 -0.09600
C 	C 	0.63750 0.34823 0.69579 0.11000
N 	N 	0.59995 0.37380 0.66803 -0.19700
H 	H 	0.57234 0.33239 0.75854 0.05100
H 	H 	0.79583 0.33253 0.69788 0.04000
N 	N 	0.79103 0.32516 0.79495 -0.19700
H 	H 	0.55231 0.37292 0.68043 0.08800
H 	H 	0.62244 0.40139 0.63661 0.09500
H 	H 	0.78991 0.32849 0.83414 0.05100
H 	H 	0.83820 0.32562 0.78211 0.07400
C 	C 	0.60284 0.22188 0.24421 -0.04600
C 	C 	0.67400 0.29343 0.27494 -0.08900
C 	C 	0.73759 0.35380 0.25156 0.11200
C 	C 	0.72615 0.34348 0.19777 -0.04600
C 	C 	0.65240 0.27474 0.16713 -0.08900
C 	C 	0.59120 0.21185 0.19043 0.11300
H 	H 	0.77353 0.39084 0.17980 0.03900
N 	N 	0.80884 0.42241 0.28037 -0.20000
H 	H 	0.81996 0.43168 0.32035 0.10400
H 	H 	0.85475 0.46719 0.26274 0.08700
C 	C 	0.88002 0.79817 0.44944 -0.01300
C 	C 	0.85096 0.72721 0.44974 -0.02800
C 	C 	0.82156 0.64540 0.45064 0.05900
C 	C 	0.79635 0.57562 0.45165 -0.11600
C 	C 	0.37562 0.19238 0.47002 -0.11400
C 	C 	0.75705 0.59061 0.98663 -0.11300
C 	C 	0.79522 0.66321 0.98830 0.06100
C 	C 	0.84033 0.74826 0.99073 -0.02700
C 	C 	0.88021 0.82113 0.99294 -0.01700
