data_crystal

_cell_length_a 20.08666
_cell_length_b 21.11201
_cell_length_c 48.04755
_cell_angle_alpha 60.68269
_cell_angle_beta  119.03889
_cell_angle_gamma 133.38600

_symmetry_space_group_name_	'P 1'
_symmetry_space_group_name_H-M	'P 1'

loop_
_symmetry_equiv_pos_as_xyz
  x,y,z

loop_
_atom_site_label
_atom_site_type_symbol
_atom_site_fract_x
_atom_site_fract_y
_atom_site_fract_z
_atom_site_charge
Co	Co	0.00535 0.08122 0.06393 1.19200
Co	Co	0.07860 0.02521 0.03696 1.17500
Co	Co	0.10048 0.88446 0.03742 1.18700
O 	O 	0.08052 0.12659 0.03343 -0.41200
C 	C 	0.09158 0.18939 0.11218 0.40300
C 	C 	0.10515 0.78332 0.10751 0.41900
O 	O 	0.07864 0.77580 0.07789 -0.36800
O 	O 	0.08807 0.82612 0.11287 -0.35100
O 	O 	0.03139 0.12213 0.13070 -0.39800
O 	O 	0.10893 0.17472 0.09319 -0.35300
O 	O 	0.04482 0.91825 0.05061 -0.72800
Co	Co	0.04001 0.02503 0.52435 1.16500
Co	Co	0.12449 0.93678 0.52504 1.19400
O 	O 	0.02804 0.07178 0.64995 -0.33500
C 	C 	0.04715 0.01510 0.67239 0.16500
C 	C 	0.02617 0.20585 0.58158 0.42400
O 	O 	0.05264 0.96800 0.66350 -0.28000
O 	O 	0.18614 0.92184 0.60694 -0.31200
O 	O 	0.05533 0.18026 0.57226 -0.35900
O 	O 	0.06149 0.94617 0.54575 -0.71900
O 	O 	0.17764 0.06772 0.49624 -0.42600
O 	O 	0.18035 0.12723 0.52564 -0.37800
C 	C 	0.12347 0.04291 0.84597 -0.06300
C 	C 	0.12542 0.03633 0.81861 -0.08900
C 	C 	0.04030 0.97874 0.76760 0.02400
C 	C 	0.10586 0.97647 0.76509 -0.01000
C 	C 	0.10488 0.98198 0.73434 -0.00100
C 	C 	0.03752 0.98837 0.70607 0.03700
H 	H 	0.18888 0.08815 0.86066 0.06800
H 	H 	0.19167 0.07938 0.81181 0.06800
H 	H 	0.15797 0.97151 0.78668 0.08200
H 	H 	0.15799 0.98405 0.73248 0.09100
C 	C 	0.06632 0.98658 0.43239 0.04800
C 	C 	0.06527 0.98611 0.40318 -0.02200
C 	C 	0.07351 0.03110 0.33408 -0.08000
C 	C 	0.07655 0.01899 0.30859 -0.06700
C 	C 	0.04982 0.02077 0.24019 -0.08000
C 	C 	0.04652 0.01255 0.21219 -0.04300
H 	H 	0.12274 0.99018 0.45373 0.06100
H 	H 	0.12117 0.98999 0.40253 0.09300
H 	H 	0.13723 0.08390 0.34623 0.07200
H 	H 	0.14317 0.06077 0.30225 0.07200
H 	H 	0.09071 0.08721 0.24340 0.08600
H 	H 	0.08491 0.07266 0.19445 0.10000
C 	C 	0.11980 0.37306 0.55985 0.30800
F 	F 	0.11034 0.36447 0.53169 -0.34800
C 	C 	0.21027 0.78366 0.62124 0.29200
F 	F 	0.14259 0.75385 0.63363 -0.36400
F 	F 	0.16531 0.63403 0.63862 -0.35400
C 	C 	0.15884 0.61748 0.15809 0.25600
C 	C 	0.16264 0.75194 0.13332 -0.19200
C 	C 	0.11701 0.65970 0.14903 0.30600
F 	F 	0.02909 0.60966 0.15308 -0.34800
F 	F 	0.11579 0.52932 0.17433 -0.36500
H 	H 	0.15035 0.50470 0.13699 0.16100
H 	H 	0.15634 0.58917 0.59099 0.14500
C 	C 	0.06959 0.00838 0.97585 0.27100
O 	O 	0.12960 0.98904 0.99555 -0.30700
O 	O 	0.03817 0.02759 0.98719 -0.34200
C 	C 	0.03884 0.00899 0.94079 -0.12900
C 	C 	0.08695 0.29735 0.58619 -0.20600
C 	C 	0.15343 0.27875 0.11837 -0.20200
C 	C 	0.13839 0.34427 0.09537 0.29100
F 	F 	0.09218 0.33812 0.06377 -0.36000
C 	C 	0.16111 0.45784 0.56231 0.25600
Co	Co	0.04809 0.88693 0.58466 1.20300
O 	O 	0.08027 0.80795 0.55375 -0.36700
C 	C 	0.03442 0.99850 0.88321 0.12800
C 	C 	0.08978 0.08261 0.88984 -0.13600
C 	C 	0.09285 0.08762 0.91867 0.07300
C 	C 	0.03725 0.99154 0.85412 0.05800
C 	C 	0.04169 0.97605 0.79969 0.09500
H 	H 	0.13218 0.14385 0.87319 0.09600
H 	H 	0.14123 0.15204 0.92468 0.08100
F 	F 	0.15601 0.47900 0.08248 -0.35300
F 	F 	0.19723 0.53129 0.53740 -0.34000
C 	C 	0.09252 0.30702 0.61441 0.29200
C 	C 	0.16733 0.41411 0.10522 0.25600
C 	C 	0.17037 0.46775 0.59122 -0.13500
C 	C 	0.13115 0.39093 0.61641 0.24800
F 	F 	0.05906 0.23437 0.63985 -0.40500
C 	C 	0.22034 0.72174 0.62310 0.25700
C 	C 	0.20215 0.28697 0.15082 0.29100
O 	O 	0.01258 0.84977 0.62591 -0.39300
F 	F 	0.13787 0.39891 0.64420 -0.36200
O 	O 	0.23088 0.97212 0.06281 -0.27300
O 	O 	0.22201 0.08206 0.05592 -0.35100
C 	C 	0.22591 0.53906 0.14580 -0.12200
C 	C 	0.22763 0.60836 0.60012 -0.11500
C 	C 	0.22222 0.13306 0.50945 0.41600
C 	C 	0.21058 0.41848 0.13829 -0.13900
F 	F 	0.22373 0.22848 0.17281 -0.39200
C 	C 	0.22424 0.35206 0.16119 0.24400
C 	C 	0.99673 0.94386 0.26293 0.08100
C 	C 	0.23691 0.93418 0.59219 0.39800
O 	O 	0.99900 0.09770 0.51769 -0.42500
C 	C 	0.99423 0.95311 0.29151 0.06500
C 	C 	0.98544 0.92822 0.20517 0.01400
O 	O 	0.99820 0.89004 0.49105 -0.34200
C 	C 	0.98953 0.97368 0.34455 0.08100
O 	O 	0.98174 0.91785 0.15565 -0.33500
O 	O 	0.24302 0.98466 0.56223 -0.32200
O 	O 	0.94284 0.14907 0.58786 -0.39100
C 	C 	0.93804 0.85085 0.22906 0.01800
C 	C 	0.94444 0.85849 0.25793 -0.03600
H 	H 	0.90646 0.79815 0.27581 0.08200
Co	Co	0.96136 0.05876 0.55861 1.17600
C 	C 	0.97696 0.92628 0.93246 0.11000
C 	C 	0.97660 0.92057 0.90449 -0.08700
H 	H 	0.93467 0.86517 0.94910 0.07800
H 	H 	0.93377 0.85507 0.90009 0.10000
C 	C 	0.26764 0.87532 0.60548 -0.18800
O 	O 	0.97792 0.99749 0.47716 -0.30500
H 	H 	0.89121 0.78505 0.22430 0.09400
O 	O 	0.87880 0.93543 0.15311 -0.33900
C 	C 	0.94580 0.92440 0.17029 0.30200
F 	F 	0.26565 0.35487 0.19324 -0.37400
C 	C 	0.68979 0.29251 0.98906 0.21600
C 	C 	0.59165 0.24676 0.98190 -0.12700
C 	C 	0.55686 0.27776 0.98740 0.22500
C 	C 	0.61559 0.36649 0.98925 -0.14000
C 	C 	0.71289 0.41548 0.99496 0.22700
C 	C 	0.75081 0.37760 0.99594 -0.12300
H 	H 	0.54320 0.18263 0.97567 0.14200
H 	H 	0.58719 0.39297 0.99104 0.14000
H 	H 	0.82645 0.41222 0.00322 0.15800
C 	C 	0.70533 0.25984 0.53399 0.22100
C 	C 	0.78414 0.33760 0.54582 -0.12300
C 	C 	0.77183 0.39344 0.54767 0.22400
C 	C 	0.68150 0.37026 0.53880 -0.13400
C 	C 	0.60336 0.29297 0.52757 0.23100
C 	C 	0.61534 0.23971 0.52386 -0.12700
H 	H 	0.85403 0.35426 0.55359 0.14400
H 	H 	0.67204 0.41290 0.54056 0.13500
H 	H 	0.55443 0.18095 0.51426 0.14600
C 	C 	0.28391 0.62052 0.15522 0.21700
C 	C 	0.38217 0.66480 0.16537 -0.12600
C 	C 	0.42193 0.63914 0.15970 0.22600
C 	C 	0.36554 0.55414 0.15461 -0.13700
C 	C 	0.26758 0.50445 0.14682 0.22100
H 	H 	0.42792 0.72501 0.17400 0.15300
H 	H 	0.39749 0.53143 0.15262 0.13700
C 	C 	0.30217 0.68685 0.61211 0.21700
C 	C 	0.39404 0.70993 0.62408 -0.12100
C 	C 	0.41283 0.66044 0.62150 0.23100
C 	C 	0.33907 0.58237 0.61034 -0.13100
C 	C 	0.24670 0.55565 0.59968 0.22200
H 	H 	0.45159 0.76914 0.63373 0.15900
H 	H 	0.35374 0.54241 0.60965 0.13400
Co	Co	0.98211 0.84178 0.07924 1.19800
Co	Co	0.91409 0.89890 0.10785 1.20900
C 	C 	0.89973 0.73171 0.03142 0.40100
Co	Co	0.89314 0.03579 0.11007 1.16100
C 	C 	0.26455 0.05726 0.05385 0.33000
O 	O 	0.93662 0.00186 0.09105 -0.79100
O 	O 	0.91456 0.79865 0.11196 -0.40700
O 	O 	0.96716 0.95245 0.06359 -0.52900
C 	C 	0.72676 0.85698 0.10005 0.39600
O 	O 	0.76077 0.94252 0.08782 -0.29300
O 	O 	0.76941 0.82636 0.10219 -0.32500
C 	C 	0.87913 0.13732 0.03934 0.42000
O 	O 	0.90623 0.14236 0.06950 -0.37400
O 	O 	0.91128 0.11362 0.03073 -0.35400
O 	O 	0.96339 0.80266 0.01435 -0.37400
O 	O 	0.88778 0.73678 0.05523 -0.33100
Co	Co	0.97098 0.92198 0.61942 1.19300
C 	C 	0.99778 0.74689 0.56114 0.40900
Co	Co	0.89729 0.02195 0.61844 1.15000
O 	O 	0.94389 0.99719 0.59681 -0.70200
O 	O 	0.97594 0.95208 0.56790 -0.53200
C 	C 	0.79806 0.82400 0.64021 0.41300
C 	C 	0.98086 0.94799 0.46852 0.29500
O 	O 	0.84645 0.89520 0.65061 -0.37100
O 	O 	0.83692 0.81757 0.62710 -0.34200
C 	C 	0.77740 0.02129 0.55226 0.31600
O 	O 	0.77481 0.97249 0.58269 -0.27200
O 	O 	0.82897 0.03705 0.53670 -0.31800
O 	O 	0.96820 0.76435 0.57410 -0.33300
C 	C 	0.95650 0.92134 0.80899 -0.03800
C 	C 	0.95382 0.93101 0.83524 -0.01400
C 	C 	0.97039 0.98721 0.70917 0.01300
C 	C 	0.97265 0.98377 0.73936 -0.01400
H 	H 	0.89154 0.87332 0.79514 0.08400
H 	H 	0.88659 0.89180 0.84068 0.07700
H 	H 	0.91946 0.99443 0.68765 0.07000
H 	H 	0.92283 0.98727 0.74059 0.08500
C 	C 	0.99122 0.97444 0.43507 -0.04600
C 	C 	0.99092 0.97707 0.37540 0.03100
C 	C 	0.91790 0.96999 0.37729 -0.02900
C 	C 	0.91759 0.96767 0.40714 0.03300
C 	C 	0.90902 0.89842 0.30090 -0.01900
C 	C 	0.90712 0.90743 0.32763 -0.02900
H 	H 	0.86086 0.96486 0.35597 0.08100
H 	H 	0.85869 0.95744 0.40873 0.07700
H 	H 	0.84429 0.84887 0.28760 0.07500
H 	H 	0.84192 0.86199 0.33540 0.07600
C 	C 	0.54332 0.72082 0.60082 0.26600
C 	C 	0.51043 0.69518 0.62710 -0.13900
C 	C 	0.56880 0.69720 0.65888 0.25400
C 	C 	0.66142 0.73010 0.66399 0.29800
C 	C 	0.69626 0.76136 0.63732 -0.20800
C 	C 	0.63511 0.75176 0.60607 0.30300
F 	F 	0.66708 0.77932 0.58024 -0.36800
F 	F 	0.48687 0.71794 0.57001 -0.33800
F 	F 	0.71903 0.73603 0.69458 -0.37700
F 	F 	0.53610 0.66838 0.68471 -0.36600
C 	C 	0.28710 0.75065 0.60894 -0.13200
C 	C 	0.34654 0.84273 0.59443 0.25400
C 	C 	0.34050 0.90481 0.59453 0.29700
F 	F 	0.40153 0.99370 0.58168 -0.32800
F 	F 	0.40933 0.87202 0.57966 -0.33000
C 	C 	0.50234 0.75973 0.11491 0.26500
C 	C 	0.50811 0.70827 0.14749 -0.14100
C 	C 	0.58556 0.70441 0.16411 0.25100
C 	C 	0.65367 0.74733 0.14776 0.29000
C 	C 	0.64637 0.79687 0.11490 -0.19700
C 	C 	0.56992 0.80210 0.09855 0.30400
F 	F 	0.56013 0.84686 0.06647 -0.31400
F 	F 	0.42632 0.76175 0.09819 -0.32900
F 	F 	0.72719 0.74145 0.16392 -0.39200
F 	F 	0.59186 0.65480 0.19557 -0.37200
C 	C 	0.24431 0.66647 0.14989 -0.12800
C 	C 	0.29286 0.76046 0.13671 0.25700
C 	C 	0.25596 0.80305 0.13182 0.29500
F 	F 	0.30599 0.89380 0.12089 -0.33300
F 	F 	0.37179 0.80950 0.12631 -0.33300
C 	C 	0.78063 0.22594 0.51917 0.26100
C 	C 	0.71560 0.19586 0.53443 -0.15000
C 	C 	0.65861 0.10392 0.54961 0.26700
C 	C 	0.66856 0.04370 0.55036 0.22200
C 	C 	0.74146 0.07546 0.53878 -0.16200
C 	C 	0.79409 0.16627 0.52153 0.27500
F 	F 	0.86152 0.19783 0.50853 -0.36700
F 	F 	0.83161 0.31311 0.50243 -0.35700
F 	F 	0.61161 0.95496 0.56456 -0.30100
F 	F 	0.59615 0.07347 0.56484 -0.36700
C 	C 	0.86742 0.49479 0.58444 0.25700
C 	C 	0.85303 0.48091 0.55561 -0.14100
C 	C 	0.89458 0.55550 0.53024 0.25200
C 	C 	0.93836 0.64167 0.53160 0.29200
C 	C 	0.94490 0.65475 0.55911 -0.20100
C 	C 	0.91254 0.58134 0.58610 0.30700
F 	F 	0.92486 0.59372 0.61387 -0.34300
F 	F 	0.83117 0.42342 0.60983 -0.34900
F 	F 	0.97228 0.71244 0.50575 -0.38900
F 	F 	0.88436 0.54339 0.50277 -0.35600
C 	C 	0.47564 0.23505 0.54909 0.25900
C 	C 	0.50854 0.26420 0.52225 -0.14500
C 	C 	0.45231 0.26949 0.49034 0.24900
C 	C 	0.36054 0.23808 0.48556 0.29500
C 	C 	0.32402 0.19961 0.51274 -0.21600
C 	C 	0.38430 0.20462 0.54426 0.29900
F 	F 	0.35155 0.17228 0.57059 -0.38900
F 	F 	0.53109 0.23301 0.57999 -0.35400
F 	F 	0.30450 0.23858 0.45473 -0.38400
F 	F 	0.48581 0.30294 0.46407 -0.37000
C 	C 	0.68546 0.15395 0.01154 0.24900
C 	C 	0.72798 0.24542 0.99447 -0.12800
C 	C 	0.81022 0.29268 0.98446 0.25000
C 	C 	0.85614 0.25308 0.99561 0.31000
C 	C 	0.81682 0.16419 0.01490 -0.20600
C 	C 	0.72614 0.11253 0.01910 0.29100
F 	F 	0.68242 0.02385 0.03433 -0.37300
F 	F 	0.60917 0.10706 0.02311 -0.35200
F 	F 	0.94151 0.30285 0.98948 -0.35000
F 	F 	0.84667 0.37718 0.96467 -0.36400
C 	C 	0.76824 0.57233 0.98037 0.25200
C 	C 	0.77397 0.50157 0.00365 -0.14600
C 	C 	0.81497 0.50408 0.03688 0.25700
C 	C 	0.84788 0.57556 0.04671 0.29200
C 	C 	0.84035 0.64535 0.02341 -0.20200
C 	C 	0.79749 0.64159 0.99036 0.29200
F 	F 	0.78609 0.70653 0.96777 -0.38100
F 	F 	0.72848 0.57068 0.94819 -0.36800
F 	F 	0.89017 0.57868 0.07871 -0.35800
F 	F 	0.81932 0.43531 0.05981 -0.35600
C 	C 	0.42248 0.11982 0.05326 0.28600
C 	C 	0.34543 0.12385 0.03882 -0.18800
C 	C 	0.33646 0.17632 0.00665 0.27200
C 	C 	0.39991 0.21854 0.98832 0.25200
C 	C 	0.47613 0.21309 0.00262 -0.15200
C 	C 	0.48707 0.16361 0.03528 0.26200
F 	F 	0.56403 0.16309 0.05026 -0.34200
F 	F 	0.43437 0.07273 0.08483 -0.34500
F 	F 	0.38976 0.26794 0.95708 -0.38100
F 	F 	0.26504 0.18476 0.99293 -0.40000
