data_crystal

_cell_length_a 25.87850
_cell_length_b 26.61167
_cell_length_c 26.56279
_cell_angle_alpha 95.49175
_cell_angle_beta  95.49199
_cell_angle_gamma 125.78631

_symmetry_space_group_name_	'P 1'
_symmetry_space_group_name_H-M	'P 1'

loop_
_symmetry_equiv_pos_as_xyz
  x,y,z

loop_
_atom_site_label
_atom_site_type_symbol
_atom_site_fract_x
_atom_site_fract_y
_atom_site_fract_z
_atom_site_charge
O 	O 	0.26723 0.01830 0.97295 -0.07000
C 	C 	0.11850 0.02076 0.41173 -0.02500
O 	O 	0.75311 0.01570 0.03205 -0.06700
C 	C 	0.86194 0.02105 0.47458 -0.02600
C 	C 	0.89732 0.02159 0.43755 -0.02400
H 	H 	0.87737 0.00137 0.90955 0.07900
O 	O 	0.73687 0.00034 0.90336 -0.07400
O 	O 	0.75259 0.00558 0.51977 -0.07800
N 	N 	0.99579 0.02717 0.44749 -0.12100
C 	C 	0.02633 0.99977 0.45134 0.16500
N 	N 	0.03612 0.06680 0.99545 -0.11800
C 	C 	0.06564 0.03826 0.99944 0.15000
N 	N 	0.02939 0.97477 0.99551 -0.12300
C 	C 	0.53874 0.24860 0.01567 0.30200
O 	O 	0.54147 0.25076 0.49068 -0.35400
C 	C 	0.50434 0.25083 0.45289 0.31300
O 	O 	0.52916 0.29032 0.42043 -0.37300
N 	N 	0.52968 0.15866 0.61164 -0.09100
N 	N 	0.51877 0.15304 0.76134 -0.10600
N 	N 	0.54498 0.16837 0.27034 -0.09300
N 	N 	0.54038 0.16871 0.11872 -0.08700
C 	C 	0.20765 0.12345 0.49140 -0.05500
C 	C 	0.22983 0.10758 0.45110 0.02000
C 	C 	0.18489 0.05621 0.41083 0.07800
C 	C 	0.09630 0.03690 0.45180 -0.02300
C 	C 	0.14115 0.08848 0.49192 0.10400
C 	C 	0.30021 0.14446 0.45156 0.03200
N 	N 	0.20654 0.04037 0.36868 -0.01800
H 	H 	0.08403 0.98130 0.38069 0.08900
N 	N 	0.11939 0.10478 0.53371 -0.02200
H 	H 	0.24215 0.16265 0.52258 0.08800
C 	C 	0.33569 0.20711 0.44346 0.06300
C 	C 	0.40243 0.24155 0.44446 0.00100
C 	C 	0.43404 0.21363 0.45217 -0.08400
C 	C 	0.39822 0.15046 0.45927 0.12700
C 	C 	0.33183 0.11673 0.45997 -0.07000
N 	N 	0.30395 0.23574 0.43377 -0.01700
H 	H 	0.42966 0.29005 0.43898 0.07300
N 	N 	0.42852 0.11970 0.46388 -0.02300
H 	H 	0.30448 0.06837 0.46582 0.09200
O 	O 	0.13615 0.16169 0.54499 -0.06600
O 	O 	0.08687 0.06417 0.56277 -0.07500
O 	O 	0.19018 0.98364 0.35711 -0.07200
O 	O 	0.23865 0.08124 0.33969 -0.06500
O 	O 	0.45519 0.11409 0.42678 -0.08600
O 	O 	0.42416 0.09228 0.50292 -0.07600
O 	O 	0.32376 0.28807 0.46315 -0.07500
O 	O 	0.25826 0.21188 0.39356 -0.06500
O 	O 	0.02983 0.87644 0.07918 -0.06400
N 	N 	0.00063 0.13327 0.06619 -0.01900
O 	O 	0.04906 0.19295 0.07677 -0.06800
C 	C 	0.38567 0.21305 0.05407 -0.07000
C 	C 	0.33841 0.15610 0.02021 0.04100
C 	C 	0.35740 0.12619 0.98854 0.05400
C 	C 	0.42350 0.15502 0.98957 -0.00700
C 	C 	0.47071 0.21336 0.02185 -0.07700
C 	C 	0.45165 0.24155 0.05540 0.12300
C 	C 	0.26921 0.12926 0.01664 0.02500
N 	N 	0.30971 0.06722 0.95457 -0.01600
H 	H 	0.43801 0.13291 0.96411 0.06300
N 	N 	0.49931 0.29944 0.09064 -0.02800
H 	H 	0.37115 0.23546 0.07918 0.09300
C 	C 	0.23577 0.09957 0.05582 0.08200
C 	C 	0.16985 0.07323 0.05122 -0.03100
C 	C 	0.13670 0.07564 0.00765 -0.00300
C 	C 	0.17066 0.10715 0.96928 0.09300
C 	C 	0.23682 0.13423 0.97419 -0.06100
N 	N 	0.26842 0.09537 0.10001 -0.01900
H 	H 	0.14387 0.04904 0.08081 0.09300
N 	N 	0.13770 0.11005 0.92452 -0.02000
H 	H 	0.26270 0.15788 0.94439 0.08600
O 	O 	0.54206 0.30304 0.12403 -0.10300
O 	O 	0.49739 0.34728 0.09152 -0.08600
O 	O 	0.31123 0.06146 0.90566 -0.08300
O 	O 	0.15572 0.16445 0.91453 -0.07400
O 	O 	0.09342 0.05873 0.89160 -0.07400
O 	O 	0.26919 0.11800 0.14593 -0.07000
O 	O 	0.29315 0.06487 0.09455 -0.06400
O 	O 	0.91777 0.99972 0.33047 -0.06900
C 	C 	0.97030 0.03157 0.98787 0.15600
C 	C 	0.96382 0.93966 0.98782 0.15600
N 	N 	0.93435 0.96804 0.98379 -0.13300
C 	C 	0.93042 0.99193 0.44368 0.15700
N 	N 	0.99153 0.93709 0.45133 -0.13000
C 	C 	0.92624 0.90163 0.44762 0.15700
N 	N 	0.89562 0.92912 0.44411 -0.13000
Cu	Cu	0.66102 0.26717 0.00731 0.93000
Cu	Cu	0.66313 0.22578 0.88780 0.89500
Cu	Cu	0.66331 0.34611 0.93016 0.91400
Cu	Cu	0.66123 0.38551 0.04044 0.90900
C 	C 	0.68804 0.32129 0.11409 0.29000
O 	O 	0.57018 0.22420 0.02232 -0.34700
C 	C 	0.65813 0.30633 0.82686 0.28600
O 	O 	0.70170 0.36116 0.00028 -0.63300
O 	O 	0.62853 0.25687 0.93334 -0.63000
O 	O 	0.71469 0.23557 0.00231 -0.34300
O 	O 	0.65543 0.16677 0.92657 -0.39300
O 	O 	0.68979 0.37067 0.10633 -0.35300
O 	O 	0.70389 0.43374 0.92857 -0.35800
C 	C 	0.70808 0.47317 0.96579 0.29600
O 	O 	0.56666 0.30299 0.00073 -0.36600
O 	O 	0.67434 0.45274 0.00300 -0.34900
O 	O 	0.69960 0.29230 0.07888 -0.34400
C 	C 	0.69812 0.18662 0.96864 0.30200
O 	O 	0.63496 0.32781 0.85660 -0.35800
O 	O 	0.69503 0.29196 0.84754 -0.39600
H 	H 	0.74966 0.39111 0.00734 0.18100
H 	H 	0.58056 0.22886 0.92472 0.16900
Cu	Cu	0.73915 0.33852 0.43646 0.93300
Cu	Cu	0.73564 0.28710 0.54399 0.88200
Cu	Cu	0.63514 0.30030 0.50186 0.90400
Cu	Cu	0.61537 0.33067 0.39990 0.90400
C 	C 	0.69288 0.32070 0.32866 0.29100
O 	O 	0.77323 0.42965 0.43730 -0.33700
C 	C 	0.67463 0.31427 0.61403 0.28800
O 	O 	0.63776 0.28342 0.43063 -0.63800
O 	O 	0.73082 0.34550 0.50949 -0.63700
O 	O 	0.78843 0.30252 0.44054 -0.35300
O 	O 	0.72043 0.22979 0.48581 -0.41000
O 	O 	0.66335 0.34564 0.34176 -0.36600
C 	C 	0.74229 0.45113 0.45452 0.30500
O 	O 	0.68241 0.41118 0.46085 -0.38200
O 	O 	0.73064 0.31790 0.36359 -0.34100
C 	C 	0.76301 0.24823 0.45545 0.30900
O 	O 	0.63332 0.30863 0.57613 -0.35700
O 	O 	0.72859 0.32287 0.60621 -0.39400
H 	H 	0.61129 0.23814 0.41480 0.19200
H 	H 	0.75678 0.38895 0.52973 0.19600
C 	C 	0.65475 0.31133 0.77198 -0.06000
C 	C 	0.60904 0.25724 0.73411 0.00500
C 	C 	0.61267 0.25933 0.68165 0.00600
C 	C 	0.66231 0.31547 0.66714 -0.05700
C 	C 	0.70412 0.37106 0.70462 0.00900
C 	C 	0.70040 0.36898 0.75711 0.01100
C 	C 	0.55882 0.19927 0.74924 0.07900
C 	C 	0.75074 0.43027 0.68913 0.10300
C 	C 	0.74403 0.42585 0.79584 0.10500
C 	C 	0.56650 0.20333 0.64271 0.09200
N 	N 	0.77880 0.47121 0.82675 -0.09200
N 	N 	0.78793 0.47750 0.67673 -0.08800
C 	C 	0.69779 0.31216 0.27404 -0.05300
C 	C 	0.75367 0.35913 0.25663 0.01000
C 	C 	0.75248 0.35888 0.20343 0.00900
C 	C 	0.69499 0.31260 0.16780 -0.04900
C 	C 	0.64188 0.26171 0.18491 0.00700
C 	C 	0.64336 0.26150 0.23812 0.00800
C 	C 	0.81142 0.40897 0.29349 0.10700
C 	C 	0.58552 0.21010 0.14797 0.10400
C 	C 	0.58862 0.20969 0.25601 0.09400
C 	C 	0.81014 0.40636 0.18531 0.10600
N 	N 	0.85614 0.44423 0.17082 -0.09500
N 	N 	0.85747 0.44873 0.32292 -0.09000
C 	C 	0.86839 0.73390 0.40906 -0.05700
C 	C 	0.83464 0.70634 0.44840 0.01900
C 	C 	0.82590 0.74168 0.48488 0.07600
C 	C 	0.85314 0.80488 0.48268 -0.02800
C 	C 	0.88862 0.83296 0.44424 -0.02700
C 	C 	0.89457 0.79663 0.40632 0.10300
C 	C 	0.80901 0.64054 0.45133 0.03300
N 	N 	0.79003 0.71377 0.52448 -0.01900
H 	H 	0.84799 0.83251 0.51162 0.07900
N 	N 	0.92726 0.82342 0.36497 -0.02200
H 	H 	0.87408 0.70646 0.38041 0.08800
C 	C 	0.75709 0.59008 0.41362 0.05900
C 	C 	0.73691 0.52859 0.41437 0.00300
C 	C 	0.76731 0.51663 0.45286 -0.08900
C 	C 	0.81870 0.56686 0.49095 0.12700
C 	C 	0.83934 0.62858 0.48998 -0.07000
N 	N 	0.72463 0.60116 0.37453 -0.01700
H 	H 	0.69692 0.48988 0.38532 0.05500
N 	N 	0.84914 0.55529 0.53127 -0.02900
H 	H 	0.87943 0.66730 0.51895 0.09000
O 	O 	0.97339 0.81981 0.35511 -0.07800
O 	O 	0.90887 0.84878 0.33567 -0.06900
O 	O 	0.81637 0.74021 0.57257 -0.07600
O 	O 	0.72975 0.66426 0.51237 -0.07000
O 	O 	0.88210 0.53433 0.52053 -0.08800
O 	O 	0.84829 0.57048 0.57904 -0.07900
O 	O 	0.71913 0.58145 0.32621 -0.08200
O 	O 	0.69700 0.62728 0.38729 -0.07100
C 	C 	0.76271 0.10709 0.42096 -0.07200
C 	C 	0.82879 0.13453 0.43549 0.03200
C 	C 	0.87401 0.20059 0.45054 0.06100
C 	C 	0.85235 0.23812 0.45307 -0.00200
C 	C 	0.78586 0.21029 0.44167 -0.09100
C 	C 	0.74102 0.14461 0.42364 0.12700
C 	C 	0.85034 0.09382 0.43545 0.02000
N 	N 	0.94182 0.22957 0.46452 -0.01700
H 	H 	0.88705 0.28863 0.46646 0.06600
N 	N 	0.67349 0.11597 0.40763 -0.02400
H 	H 	0.72811 0.05654 0.40781 0.09100
C 	C 	0.83883 0.05733 0.47400 0.07600
C 	C 	0.90629 0.05585 0.39766 0.10500
C 	C 	0.88302 0.09198 0.39700 -0.05600
N 	N 	0.80487 0.05803 0.51323 -0.01800
H 	H 	0.85463 0.99450 0.50511 0.07800
N 	N 	0.93861 0.05368 0.35757 -0.02100
H 	H 	0.89052 0.11876 0.36662 0.08900
O 	O 	0.63015 0.06640 0.42489 -0.07600
O 	O 	0.65519 0.13720 0.37353 -0.08600
O 	O 	0.98275 0.27231 0.44029 -0.07600
O 	O 	0.96310 0.21676 0.50391 -0.07300
O 	O 	0.98659 0.10578 0.34625 -0.06600
O 	O 	0.82878 0.11030 0.54482 -0.07900
C 	C 	0.90087 0.77720 0.01243 -0.04700
C 	C 	0.85331 0.73899 0.96810 0.01100
C 	C 	0.84125 0.76681 0.93065 0.07700
C 	C 	0.87665 0.83248 0.93810 -0.02600
C 	C 	0.92466 0.87075 0.98221 -0.03500
C 	C 	0.93637 0.84287 0.01984 0.11200
C 	C 	0.81425 0.66980 0.96231 0.03500
N 	N 	0.79335 0.72849 0.88488 -0.01900
H 	H 	0.86780 0.85383 0.90898 0.07900
N 	N 	0.98319 0.88103 0.06619 -0.02400
H 	H 	0.90950 0.75579 0.04161 0.08700
C 	C 	0.84244 0.63857 0.95311 0.06000
C 	C 	0.80651 0.57376 0.95281 -0.00200
C 	C 	0.74249 0.53967 0.96106 -0.08400
C 	C 	0.71309 0.57028 0.96722 0.12700
C 	C 	0.74951 0.63534 0.96872 -0.07400
N 	N 	0.90779 0.67272 0.94464 -0.01600
H 	H 	0.82878 0.55010 0.94694 0.06600
N 	N 	0.64586 0.53516 0.97051 -0.02700
H 	H 	0.72739 0.65912 0.97473 0.09100
O 	O 	0.97674 0.91727 0.09704 -0.06900
O 	O 	0.74705 0.73378 0.87264 -0.07600
O 	O 	0.79846 0.69145 0.85370 -0.06800
O 	O 	0.60203 0.48927 0.93322 -0.07500
O 	O 	0.62823 0.55219 0.00882 -0.06700
O 	O 	0.94967 0.66978 0.97269 -0.08400
O 	O 	0.92438 0.70362 0.90690 -0.07000
C 	C 	0.82397 0.16344 0.94028 -0.06700
C 	C 	0.82010 0.12695 0.97654 0.02400
C 	C 	0.77622 0.11039 0.01064 0.06900
C 	C 	0.73688 0.13065 0.00809 0.01200
C 	C 	0.73996 0.16610 0.97116 -0.09600
C 	C 	0.78421 0.18309 0.93739 0.12000
C 	C 	0.86121 0.10515 0.97791 0.01200
N 	N 	0.77100 0.07247 0.04749 -0.01700
H 	H 	0.70320 0.11788 0.03431 0.06900
N 	N 	0.78953 0.22110 0.90059 -0.03300
H 	H 	0.85803 0.17668 0.91433 0.08900
C 	C 	0.84886 0.05859 0.93791 0.07500
C 	C 	0.88756 0.03774 0.94012 -0.02600
C 	C 	0.93749 0.06157 0.98256 -0.03300
C 	C 	0.95070 0.10908 0.02212 0.10900
C 	C 	0.91308 0.13122 0.01919 -0.04800
N 	N 	0.79616 0.03143 0.89548 -0.01900
H 	H 	0.92309 0.16750 0.04975 0.08700
O 	O 	0.78020 0.20030 0.85179 -0.10200
O 	O 	0.80882 0.27836 0.91614 -0.13000
O 	O 	0.77964 0.09301 0.09624 -0.07700
O 	O 	0.99488 0.09681 0.09804 -0.06700
O 	O 	0.80705 0.03386 0.84866 -0.07800
