data_crystal

_cell_length_a 26.22149
_cell_length_b 24.70113
_cell_length_c 45.12789
_cell_angle_alpha 95.50889
_cell_angle_beta  95.50804
_cell_angle_gamma 125.74157

_symmetry_space_group_name_	'P 1'
_symmetry_space_group_name_H-M	'P 1'

loop_
_symmetry_equiv_pos_as_xyz
  x,y,z

loop_
_atom_site_label
_atom_site_type_symbol
_atom_site_fract_x
_atom_site_fract_y
_atom_site_fract_z
_atom_site_charge
C 	C 	0.99053 0.04670 0.01494 0.10900
N 	N 	0.05379 0.07937 0.01450 -0.13300
C 	C 	0.07628 0.04309 0.00778 0.11800
N 	N 	0.02087 0.06901 0.46766 -0.13100
Cu	Cu	0.62180 0.20877 0.99385 0.92800
Cu	Cu	0.67863 0.21569 0.93142 0.87000
Cu	Cu	0.66218 0.31975 0.95631 0.89800
Cu	Cu	0.61831 0.33194 0.01414 0.89400
C 	C 	0.63770 0.25833 0.05677 0.28700
O 	O 	0.52749 0.16611 0.99106 -0.36200
C 	C 	0.64466 0.27557 0.89050 0.28900
O 	O 	0.67233 0.31467 0.99827 -0.63900
O 	O 	0.61818 0.21962 0.95106 -0.64100
O 	O 	0.66287 0.16196 0.99268 -0.37300
O 	O 	0.73704 0.23411 0.96633 -0.43800
O 	O 	0.60680 0.28347 0.04873 -0.38400
O 	O 	0.70916 0.41744 0.96443 -0.38000
C 	C 	0.70212 0.45168 0.98589 0.28800
C 	C 	0.50274 0.19505 0.98005 0.28300
O 	O 	0.54055 0.25866 0.97706 -0.38900
O 	O 	0.65455 0.42051 0.00088 -0.39100
O 	O 	0.63865 0.21607 0.03690 -0.36100
C 	C 	0.71917 0.19105 0.98498 0.28700
O 	O 	0.66753 0.32638 0.91338 -0.38900
O 	O 	0.64128 0.22140 0.89448 -0.41800
H 	H 	0.71728 0.34391 0.00924 0.16200
H 	H 	0.57460 0.19225 0.93860 0.17300
Cu	Cu	0.72978 0.34956 0.45946 0.92700
Cu	Cu	0.72472 0.29198 0.52257 0.87100
Cu	Cu	0.62266 0.30104 0.49580 0.89700
Cu	Cu	0.60881 0.34352 0.43711 0.89400
C 	C 	0.68810 0.33586 0.39595 0.28900
O 	O 	0.76476 0.44859 0.46203 -0.35900
C 	C 	0.66264 0.32169 0.56217 0.28900
O 	O 	0.62971 0.29071 0.45409 -0.64000
O 	O 	0.71771 0.35297 0.50201 -0.64100
O 	O 	0.77674 0.30858 0.46151 -0.37200
O 	O 	0.70911 0.23044 0.48814 -0.43800
O 	O 	0.65876 0.36255 0.40377 -0.38600
O 	O 	0.53022 0.24560 0.48688 -0.37800
C 	C 	0.49596 0.24784 0.46423 0.28800
C 	C 	0.73394 0.47132 0.47228 0.28000
O 	O 	0.67348 0.42835 0.47414 -0.38800
O 	O 	0.52262 0.29744 0.44854 -0.39200
O 	O 	0.72471 0.33191 0.41654 -0.36100
C 	C 	0.75100 0.24988 0.47023 0.28400
O 	O 	0.61531 0.29634 0.53882 -0.38700
O 	O 	0.71625 0.33058 0.55867 -0.42000
H 	H 	0.60462 0.24295 0.44338 0.16400
H 	H 	0.74115 0.39918 0.51426 0.17300
C 	C 	0.65161 0.33016 0.59316 -0.09100
C 	C 	0.70338 0.37866 0.61653 0.01800
C 	C 	0.69517 0.37933 0.64668 -0.07300
C 	C 	0.63521 0.33171 0.65370 0.04500
C 	C 	0.58259 0.28598 0.63033 -0.07300
C 	C 	0.59066 0.28526 0.60013 0.01700
C 	C 	0.62930 0.32512 0.68478 -0.03100
C 	C 	0.62514 0.32025 0.71090 -0.00200
C 	C 	0.62172 0.31378 0.74151 -0.00200
C 	C 	0.62007 0.30776 0.76766 -0.03100
C 	C 	0.61968 0.30014 0.79889 0.04500
C 	C 	0.65922 0.35738 0.82205 -0.07200
C 	C 	0.66552 0.34959 0.85217 0.01700
C 	C 	0.63241 0.28428 0.85932 -0.09100
C 	C 	0.59059 0.22714 0.83617 0.01700
C 	C 	0.58440 0.23510 0.80607 -0.07300
H 	H 	0.75035 0.41451 0.61142 0.02900
H 	H 	0.73592 0.41535 0.66463 0.04900
H 	H 	0.53595 0.24937 0.63558 0.05000
H 	H 	0.55016 0.24788 0.58233 0.03600
H 	H 	0.68649 0.40784 0.81666 0.05000
H 	H 	0.69773 0.39419 0.86975 0.03700
H 	H 	0.56377 0.17655 0.84140 0.02900
H 	H 	0.55342 0.19062 0.78828 0.04900
C 	C 	0.69322 0.32683 0.36388 -0.08600
C 	C 	0.69566 0.37095 0.34560 0.01900
C 	C 	0.69735 0.36059 0.31486 -0.07200
C 	C 	0.69663 0.30617 0.30207 0.04500
C 	C 	0.69557 0.26280 0.32033 -0.07100
C 	C 	0.69405 0.27319 0.35120 0.01700
C 	C 	0.69447 0.29366 0.26999 -0.03000
C 	C 	0.69267 0.28577 0.24304 -0.00100
C 	C 	0.68968 0.27889 0.21139 -0.00000
C 	C 	0.68637 0.27492 0.18435 -0.03000
C 	C 	0.68147 0.27237 0.15212 0.04600
C 	C 	0.69875 0.33025 0.14041 -0.07200
C 	C 	0.68652 0.32612 0.10915 0.01800
C 	C 	0.65705 0.26405 0.08930 -0.08800
C 	C 	0.64221 0.20670 0.10099 0.02200
C 	C 	0.65420 0.21086 0.13234 -0.07200
H 	H 	0.69618 0.41323 0.35520 0.03600
H 	H 	0.69853 0.39452 0.30090 0.05100
H 	H 	0.69514 0.22067 0.31058 0.05100
H 	H 	0.69230 0.23889 0.36507 0.03300
H 	H 	0.72010 0.37805 0.15557 0.05000
H 	H 	0.69885 0.37086 0.10036 0.02000
H 	H 	0.61948 0.15848 0.08592 0.03900
H 	H 	0.64079 0.16590 0.14123 0.05100
C 	C 	0.90016 0.71912 0.51207 -0.05500
C 	C 	0.83908 0.65673 0.50451 0.01400
C 	C 	0.78438 0.65487 0.49848 0.00300
C 	C 	0.78961 0.71410 0.49640 -0.06000
S 	S 	0.72461 0.57791 0.47925 0.01400
C 	C 	0.76471 0.54455 0.47824 -0.07400
C 	C 	0.82774 0.59408 0.49353 -0.02200
H 	H 	0.94287 0.72133 0.51404 0.04500
H 	H 	0.74870 0.71151 0.48658 0.04700
H 	H 	0.86415 0.58593 0.49609 0.04000
C 	C 	0.88824 0.12602 0.44109 -0.00100
C 	C 	0.89232 0.18555 0.44522 -0.05500
C 	C 	0.84365 0.18313 0.45703 0.01200
C 	C 	0.79529 0.12434 0.46628 0.00200
C 	C 	0.79073 0.06472 0.46205 -0.06300
C 	C 	0.83963 0.06700 0.45051 0.02700
S 	S 	0.95061 0.12423 0.44130 0.00200
C 	C 	0.91808 0.04847 0.45140 -0.01500
C 	C 	0.85636 0.02323 0.45631 -0.05900
S 	S 	0.73512 0.12867 0.46907 0.00600
C 	C 	0.76819 0.20529 0.45969 -0.07700
C 	C 	0.82916 0.22960 0.45381 -0.02400
H 	H 	0.93119 0.23150 0.43893 0.04600
H 	H 	0.75232 0.01925 0.46885 0.04500
H 	H 	0.86190 0.27885 0.44793 0.04400
C 	C 	0.31664 0.12949 0.47304 0.00000
C 	C 	0.27101 0.10488 0.49177 -0.05800
C 	C 	0.22854 0.12195 0.48934 0.02500
C 	C 	0.23512 0.16655 0.47027 0.00000
C 	C 	0.28061 0.19103 0.45147 -0.05400
C 	C 	0.32324 0.17412 0.45393 0.01500
S 	S 	0.38640 0.14213 0.48102 0.02300
C 	C 	0.42580 0.20052 0.45957 -0.07700
C 	C 	0.38478 0.21415 0.44624 -0.02100
S 	S 	0.16570 0.15490 0.46276 0.00900
C 	C 	0.12664 0.09700 0.48448 -0.01800
C 	C 	0.16739 0.08265 0.49743 -0.04800
H 	H 	0.26750 0.07205 0.50704 0.04700
H 	H 	0.28418 0.22399 0.43626 0.04700
H 	H 	0.40118 0.25747 0.43539 0.04300
C 	C 	0.80918 0.64725 0.01658 0.00000
C 	C 	0.83711 0.63438 0.99451 0.01500
S 	S 	0.73805 0.57518 0.01630 0.01600
C 	C 	0.74043 0.52577 0.98923 -0.07200
C 	C 	0.79888 0.56567 0.97949 -0.02300
H 	H 	0.81279 0.54641 0.96193 0.04400
C 	C 	0.80098 0.10565 0.00611 -0.00200
C 	C 	0.81992 0.07253 0.02209 -0.05800
C 	C 	0.88433 0.09767 0.02559 0.02400
C 	C 	0.92893 0.15769 0.01553 0.00100
C 	C 	0.90983 0.19077 0.99954 -0.05600
C 	C 	0.84539 0.16535 0.99593 0.01300
S 	S 	0.73723 0.10345 0.00940 0.02100
C 	C 	0.76249 0.17613 0.99759 -0.07900
C 	C 	0.82327 0.20450 0.99049 -0.02500
S 	S 	0.99138 0.15824 0.01105 -0.00100
C 	C 	0.96658 0.08597 0.02309 -0.01700
C 	C 	0.90544 0.05715 0.02986 -0.04900
H 	H 	0.78541 0.02730 0.03042 0.04600
H 	H 	0.94418 0.23573 0.99100 0.04400
H 	H 	0.85092 0.25201 0.98244 0.03800
C 	C 	0.33996 0.16351 0.98039 0.00300
C 	C 	0.28164 0.15279 0.97144 -0.06000
C 	C 	0.23075 0.10865 0.98549 0.02600
C 	C 	0.23726 0.07258 0.00579 -0.00000
C 	C 	0.29547 0.08309 0.01457 -0.05400
C 	C 	0.34621 0.12711 0.00052 0.01300
S 	S 	0.39784 0.19174 0.96039 0.01600
C 	C 	0.43377 0.16095 0.97677 -0.07700
C 	C 	0.39919 0.12602 0.99874 -0.02000
S 	S 	0.18096 0.04661 0.02653 0.00700
C 	C 	0.14500 0.07739 0.01033 -0.01800
C 	C 	0.17820 0.11050 0.98766 -0.04800
H 	H 	0.27686 0.17987 0.95522 0.04800
H 	H 	0.30041 0.05631 0.03092 0.04700
H 	H 	0.41325 0.10331 0.01371 0.04600
H 	H 	0.16385 0.13306 0.97275 0.04800
C 	C 	0.88643 0.68789 0.98286 -0.05500
H 	H 	0.90422 0.67823 0.96390 0.04600
C 	C 	0.85028 0.77661 0.50563 0.02500
C 	C 	0.82507 0.71212 0.02515 -0.05900
H 	H 	0.79616 0.71970 0.03798 0.04700
C 	C 	0.90426 0.77860 0.51488 0.00000
C 	C 	0.90880 0.75390 0.99506 0.00100
C 	C 	0.87672 0.76599 0.01471 0.02400
C 	C 	0.86593 0.83845 0.49797 -0.04800
H 	H 	0.83079 0.84355 0.48690 0.04900
S 	S 	0.94864 0.82005 0.97810 0.00600
S 	S 	0.96901 0.85448 0.51249 0.00300
C 	C 	0.88875 0.83001 0.01520 -0.04800
C 	C 	0.05651 0.05114 0.48072 0.11800
C 	C 	0.93216 0.88833 0.50165 -0.01800
H 	H 	0.87040 0.84920 0.03006 0.04900
C 	C 	0.92921 0.86711 0.99537 -0.01700
H 	H 	0.87423 0.00544 0.03353 0.04700
C 	C 	0.95632 0.02839 0.46542 0.10900
H 	H 	0.15115 0.03982 0.50863 0.05000
C 	C 	0.96285 0.95083 0.48890 0.11700
C 	C 	0.97230 0.94153 0.00126 0.11800
N 	N 	0.92730 0.96912 0.47598 -0.13500
H 	H 	0.82891 0.98101 0.46781 0.05600
N 	N 	0.02742 0.99222 0.49143 -0.13000
N 	N 	0.03539 0.97438 0.00086 -0.12800
N 	N 	0.94992 0.97766 0.00859 -0.13500
