data_crystal

_cell_length_a 20.25052
_cell_length_b 20.65449
_cell_length_c 26.56147
_cell_angle_alpha 95.46175
_cell_angle_beta  95.46335
_cell_angle_gamma 126.12584

_symmetry_space_group_name_	'P 1'
_symmetry_space_group_name_H-M	'P 1'

loop_
_symmetry_equiv_pos_as_xyz
  x,y,z

loop_
_atom_site_label
_atom_site_type_symbol
_atom_site_fract_x
_atom_site_fract_y
_atom_site_fract_z
_atom_site_charge
C 	C 	0.96420 0.04446 0.00164 0.07300
C 	C 	0.08377 0.04591 0.99423 0.05900
C 	C 	0.03519 0.00588 0.44566 0.03400
C 	C 	0.99310 0.04038 0.44308 -0.06200
C 	C 	0.86666 0.03111 0.44320 -0.00600
C 	C 	0.12354 0.05583 0.44811 -0.00400
C 	C 	0.04835 0.08730 0.99746 -0.10000
C 	C 	0.83952 0.06999 0.44441 -0.02100
C 	C 	0.19756 0.09630 0.45042 -0.02100
C 	C 	0.92552 0.08476 0.00210 -0.02000
C 	C 	0.16995 0.08835 0.99055 -0.01600
H 	H 	0.02719 0.10486 0.44200 0.05500
O 	O 	0.47947 0.11732 0.73198 -0.10800
C 	C 	0.81266 0.11988 0.44747 0.06600
C 	C 	0.88980 0.11518 0.00153 0.00000
C 	C 	0.24150 0.11901 0.98795 -0.01600
O 	O 	0.51488 0.13788 0.29782 -0.11800
C 	C 	0.28409 0.14268 0.45316 0.07100
C 	C 	0.84540 0.14812 0.99932 0.04900
H 	H 	0.08568 0.15197 0.99643 0.06300
C 	C 	0.32484 0.15170 0.98588 0.06300
C 	C 	0.91614 0.96082 0.00268 -0.07900
C 	C 	0.95176 0.91996 0.99925 0.05200
C 	C 	0.03535 0.96247 0.99516 -0.08900
H 	H 	0.85098 0.92750 0.00547 0.06500
H 	H 	0.06276 0.93053 0.99254 0.06300
C 	C 	0.90741 0.99240 0.44289 0.04000
C 	C 	0.86348 0.90872 0.44492 -0.07200
C 	C 	0.90636 0.87421 0.44699 0.04300
C 	C 	0.99190 0.92312 0.44728 -0.06300
H 	H 	0.79728 0.87130 0.44519 0.05900
H 	H 	0.02501 0.89673 0.44920 0.05600
Cu	Cu	0.63547 0.22845 0.00781 0.93200
Cu	Cu	0.70585 0.23772 0.90023 0.87500
Cu	Cu	0.68502 0.36071 0.94371 0.89900
Cu	Cu	0.63485 0.37705 0.04393 0.90300
C 	C 	0.65110 0.28172 0.11540 0.30600
O 	O 	0.51316 0.17917 0.00464 -0.34600
C 	C 	0.66172 0.30894 0.83096 0.30300
O 	O 	0.70281 0.35558 0.01504 -0.63400
O 	O 	0.62784 0.24067 0.93489 -0.64300
O 	O 	0.68931 0.17284 0.00458 -0.35300
O 	O 	0.78247 0.26114 0.95895 -0.43400
O 	O 	0.61498 0.31522 0.10134 -0.37200
O 	O 	0.74640 0.47784 0.95715 -0.37500
C 	C 	0.73888 0.52017 0.99350 0.30700
C 	C 	0.48243 0.21524 0.98654 0.29800
O 	O 	0.53295 0.29127 0.98110 -0.39100
O 	O 	0.68344 0.48478 0.02352 -0.37600
O 	O 	0.65997 0.23802 0.08099 -0.34400
C 	C 	0.76051 0.20719 0.98871 0.30200
O 	O 	0.68678 0.36823 0.86997 -0.37500
O 	O 	0.65514 0.24327 0.83824 -0.40000
H 	H 	0.76191 0.39074 0.03251 0.18200
H 	H 	0.57073 0.20732 0.91427 0.18500
Cu	Cu	0.74352 0.33723 0.43958 0.92800
Cu	Cu	0.74112 0.27627 0.54976 0.87600
Cu	Cu	0.61183 0.29132 0.50641 0.90100
Cu	Cu	0.58687 0.33173 0.40387 0.90400
C 	C 	0.67780 0.30790 0.33208 0.30300
O 	O 	0.79088 0.45689 0.43974 -0.35100
C 	C 	0.67049 0.32120 0.61928 0.30200
O 	O 	0.61374 0.26984 0.43481 -0.63600
O 	O 	0.73439 0.34904 0.51298 -0.63900
O 	O 	0.79906 0.28231 0.44328 -0.36100
O 	O 	0.71234 0.19631 0.49269 -0.43500
O 	O 	0.64545 0.34556 0.34493 -0.36800
O 	O 	0.49195 0.22880 0.49528 -0.37400
C 	C 	0.44581 0.22991 0.45726 0.31700
C 	C 	0.75225 0.48618 0.45627 0.30400
O 	O 	0.67603 0.43596 0.46383 -0.38800
O 	O 	0.47901 0.28419 0.42699 -0.38200
O 	O 	0.73067 0.30919 0.36629 -0.35000
C 	C 	0.76410 0.21378 0.46107 0.31000
O 	O 	0.60841 0.29482 0.58092 -0.37400
O 	O 	0.73817 0.32986 0.61095 -0.39900
H 	H 	0.57845 0.21118 0.41897 0.17900
H 	H 	0.76822 0.40595 0.53214 0.18600
C 	C 	0.72027 0.39169 0.76314 -0.02900
C 	C 	0.65334 0.32193 0.77779 -0.07600
C 	C 	0.58446 0.25938 0.73987 0.09500
C 	C 	0.58747 0.26309 0.68759 -0.02900
C 	C 	0.65846 0.32878 0.67285 -0.07600
C 	C 	0.72310 0.39559 0.71086 0.09500
N 	N 	0.79217 0.46700 0.69649 -0.02000
H 	H 	0.77192 0.44140 0.79227 0.06500
H 	H 	0.53614 0.21303 0.65848 0.06600
N 	N 	0.51192 0.19140 0.75431 -0.02000
O 	O 	0.77926 0.50318 0.66376 -0.10400
O 	O 	0.86791 0.49817 0.71802 -0.10700
O 	O 	0.47598 0.20371 0.78798 -0.10600
C 	C 	0.58795 0.22657 0.19074 -0.02100
C 	C 	0.65971 0.27399 0.16967 -0.07100
C 	C 	0.73867 0.32108 0.20201 0.09400
C 	C 	0.74463 0.32543 0.25550 -0.02200
C 	C 	0.67236 0.28408 0.27691 -0.07000
C 	C 	0.59385 0.23096 0.24413 0.09200
N 	N 	0.51977 0.18295 0.26511 -0.02400
H 	H 	0.52726 0.18806 0.16572 0.06900
H 	H 	0.80528 0.36514 0.28048 0.07100
N 	N 	0.81281 0.36693 0.18095 -0.02100
O 	O 	0.45592 0.18160 0.24986 -0.11000
O 	O 	0.82850 0.42660 0.15843 -0.11600
O 	O 	0.86801 0.35369 0.18827 -0.09500
C 	C 	0.86418 0.78894 0.44935 -0.00700
C 	C 	0.83668 0.71917 0.45137 -0.01700
C 	C 	0.80916 0.63862 0.45357 0.06500
C 	C 	0.78540 0.56976 0.45510 -0.10100
C 	C 	0.79108 0.16340 0.45213 -0.11000
C 	C 	0.35801 0.18225 0.45528 -0.10200
C 	C 	0.78272 0.60569 0.99504 -0.10200
C 	C 	0.81947 0.67761 0.99634 0.06600
C 	C 	0.86327 0.76180 0.99773 -0.01800
C 	C 	0.90235 0.83389 0.99864 -0.01300
C 	C 	0.80656 0.17516 0.99567 -0.10500
C 	C 	0.39633 0.17952 0.98533 -0.10400
