data_crystal

_cell_length_a 20.67753
_cell_length_b 21.56758
_cell_length_c 31.16787
_cell_angle_alpha 60.70913
_cell_angle_beta  119.00444
_cell_angle_gamma 133.28055

_symmetry_space_group_name_	'P 1'
_symmetry_space_group_name_H-M	'P 1'

loop_
_symmetry_equiv_pos_as_xyz
  x,y,z

loop_
_atom_site_label
_atom_site_type_symbol
_atom_site_fract_x
_atom_site_fract_y
_atom_site_fract_z
_atom_site_charge
C 	C 	0.27913 0.62704 0.21380 0.02700
C 	C 	0.22860 0.53975 0.21047 -0.06200
C 	C 	0.26521 0.51858 0.19591 0.02500
H 	H 	0.16301 0.48843 0.22011 0.05400
C 	C 	0.26558 0.67353 0.68734 0.02700
C 	C 	0.24601 0.56338 0.66760 0.02700
C 	C 	0.21424 0.58522 0.68567 -0.06400
H 	H 	0.15182 0.53431 0.69894 0.05800
Co	Co	0.06938 0.00363 0.06253 1.14800
C 	C 	0.25522 0.04587 0.07983 0.19400
Co	Co	0.09586 0.86963 0.06533 1.18600
O 	O 	0.05942 0.09887 0.05096 -0.46300
C 	C 	0.08139 0.20114 0.14931 0.36600
C 	C 	0.12146 0.78064 0.17440 0.30000
O 	O 	0.11094 0.96404 0.99772 -0.35000
O 	O 	0.10206 0.16663 0.13708 -0.39300
O 	O 	0.08711 0.77019 0.12882 -0.38900
O 	O 	0.10519 0.81941 0.18634 -0.35600
O 	O 	0.04894 0.90393 0.09012 -0.70600
C 	C 	0.02004 0.97896 0.27639 0.35600
O 	O 	0.22545 0.96290 0.09657 -0.31900
O 	O 	0.21193 0.07130 0.08029 -0.38900
Co	Co	0.06356 0.03376 0.55038 1.16500
C 	C 	0.24126 0.09176 0.55069 0.31000
Co	Co	0.10065 0.89978 0.56505 1.18900
O 	O 	0.06334 0.13587 0.53779 -0.45800
C 	C 	0.11280 0.23297 0.65942 0.29000
C 	C 	0.15963 0.85874 0.67515 0.28600
O 	O 	0.06003 0.17032 0.69151 -0.35500
O 	O 	0.11840 0.21428 0.62654 -0.37300
O 	O 	0.19118 0.91469 0.63439 -0.36700
O 	O 	0.10341 0.85601 0.68695 -0.34600
O 	O 	0.04697 0.93594 0.58339 -0.69400
O 	O 	0.19138 0.02684 0.52991 -0.44800
O 	O 	0.20383 0.10065 0.56957 -0.41700
N 	N 	0.03556 0.13348 0.78926 0.01600
O 	O 	0.11818 0.20554 0.79156 -0.11300
O 	O 	0.04809 0.81845 0.96635 -0.08100
C 	C 	0.10098 0.01200 0.36205 0.03000
C 	C 	0.09635 0.01966 0.40285 -0.11000
H 	H 	0.15914 0.05923 0.42793 0.07100
N 	N 	0.18835 0.05603 0.35490 -0.01800
O 	O 	0.21604 0.12164 0.31586 -0.12100
O 	O 	0.24370 0.03602 0.38988 -0.13200
C 	C 	0.14607 0.44535 0.62251 -0.05100
C 	C 	0.19870 0.47163 0.66826 0.02100
C 	C 	0.23134 0.42361 0.70874 -0.05100
C 	C 	0.21462 0.35279 0.70302 0.02000
C 	C 	0.16008 0.32503 0.65785 -0.07300
C 	C 	0.12827 0.37357 0.61707 0.01600
H 	H 	0.12270 0.48314 0.59033 0.05700
H 	H 	0.27441 0.44447 0.74374 0.05400
H 	H 	0.24129 0.31726 0.73453 0.04500
H 	H 	0.08711 0.35405 0.58165 0.05200
C 	C 	0.29497 0.77202 0.72666 -0.05200
C 	C 	0.23187 0.70093 0.70356 0.01900
C 	C 	0.13860 0.66574 0.68945 -0.04900
C 	C 	0.11167 0.70760 0.69303 0.00800
C 	C 	0.17776 0.79101 0.70353 -0.06900
C 	C 	0.26873 0.81876 0.72485 0.01500
H 	H 	0.08745 0.60858 0.67395 0.05600
H 	H 	0.03980 0.67830 0.68397 0.05600
H 	H 	0.32043 0.88013 0.73628 0.04900
C 	C 	0.14414 0.35780 0.12113 0.03200
C 	C 	0.14954 0.28928 0.15867 -0.10100
C 	C 	0.19135 0.29630 0.20905 0.02200
C 	C 	0.22036 0.36693 0.22222 -0.06000
C 	C 	0.21023 0.43288 0.18496 0.02400
C 	C 	0.17195 0.42774 0.13430 -0.06100
H 	H 	0.11172 0.35337 0.08208 0.04000
H 	H 	0.19563 0.24393 0.23856 0.04700
H 	H 	0.25302 0.37160 0.26122 0.05300
C 	C 	0.29184 0.73437 0.23716 -0.05200
C 	C 	0.23683 0.65467 0.22314 0.02100
C 	C 	0.14105 0.60576 0.21385 -0.05100
C 	C 	0.10282 0.64025 0.21361 0.01700
C 	C 	0.15731 0.72917 0.21341 -0.07000
C 	C 	0.25237 0.77278 0.23052 0.01200
H 	H 	0.09558 0.54380 0.20397 0.05300
H 	H 	0.02905 0.60303 0.20423 0.05100
H 	H 	0.29621 0.83925 0.23442 0.04900
C 	C 	0.35510 0.21768 0.50040 0.02300
C 	C 	0.33635 0.15864 0.54743 -0.09900
H 	H 	0.30522 0.22970 0.47181 0.03200
C 	C 	0.34497 0.16253 0.01490 -0.06000
C 	C 	0.34256 0.11159 0.06501 -0.04200
H 	H 	0.28785 0.16593 0.99024 0.05700
C 	C 	0.32872 0.62807 0.65297 -0.06700
C 	C 	0.04539 0.97261 0.96889 0.28800
O 	O 	0.01271 0.98783 0.98747 -0.30900
O 	O 	0.02186 0.04799 0.24444 -0.42200
O 	O 	0.01359 0.92597 0.26094 -0.33100
O 	O 	0.01448 0.76930 0.59843 -0.35800
C 	C 	0.02426 0.04485 0.87612 -0.09100
C 	C 	0.01313 0.97012 0.91465 0.05600
C 	C 	0.01972 0.05441 0.82678 0.00700
H 	H 	0.04058 0.09781 0.88475 0.07200
C 	C 	0.02009 0.95869 0.32968 0.04600
H 	H 	0.16676 0.47973 0.10482 0.05700
O 	O 	0.01917 0.01733 0.47611 -0.41300
C 	C 	0.01171 0.97355 0.41275 0.05100
C 	C 	0.35412 0.58034 0.18966 -0.06600
Co	Co	0.01015 0.10888 0.59055 1.19900
H 	H 	0.35410 0.61073 0.64043 0.05600
C 	C 	0.00994 0.95874 0.46443 0.35600
O 	O 	0.00237 0.97056 0.74155 -0.27600
C 	C 	0.00233 0.98757 0.81491 0.13700
H 	H 	0.36476 0.76754 0.25211 0.05300
O 	O 	0.00236 0.88820 0.49853 -0.36000
C 	C 	0.35000 0.73687 0.67312 -0.06500
Co	Co	0.99846 0.87158 0.63418 1.15800
C 	C 	0.99543 0.90322 0.90270 0.05100
C 	C 	0.36892 0.68930 0.20567 -0.06400
C 	C 	0.99145 0.91299 0.85348 -0.12000
Co	Co	0.99820 0.83278 0.13965 1.16100
Co	Co	0.99785 0.06202 0.10253 1.13800
O 	O 	0.99644 0.16235 0.14642 -0.46500
H 	H 	0.38729 0.09727 0.62017 0.01600
C 	C 	0.96918 0.98438 0.76078 0.16400
H 	H 	0.97541 0.86011 0.84492 0.07600
C 	C 	0.71272 0.27502 0.02011 0.02800
C 	C 	0.61718 0.22460 0.01129 -0.07900
C 	C 	0.57763 0.25809 0.01085 0.03300
C 	C 	0.63212 0.34595 0.01133 -0.07500
C 	C 	0.72711 0.39186 0.02757 0.02400
C 	C 	0.76781 0.35783 0.02991 -0.07400
H 	H 	0.57494 0.15677 0.01001 0.04100
H 	H 	0.60041 0.37392 0.00657 0.05100
H 	H 	0.84135 0.39250 0.04250 0.04200
C 	C 	0.71746 0.30850 0.51615 0.01700
C 	C 	0.62258 0.26152 0.50919 -0.06700
C 	C 	0.58997 0.29377 0.51711 0.02100
C 	C 	0.64958 0.37661 0.52621 -0.06700
C 	C 	0.74335 0.42348 0.53433 0.02200
C 	C 	0.77829 0.38956 0.52991 -0.06800
H 	H 	0.57453 0.19964 0.49857 0.04500
H 	H 	0.62330 0.40207 0.53081 0.05400
H 	H 	0.85152 0.42470 0.53806 0.04000
C 	C 	0.40693 0.66415 0.19594 0.02500
H 	H 	0.38316 0.56247 0.18056 0.05400
H 	H 	0.40853 0.75703 0.20587 0.05700
C 	C 	0.38317 0.71252 0.65885 0.02800
H 	H 	0.39027 0.80473 0.67357 0.05800
Co	Co	0.94568 0.89965 0.18710 1.17500
Co	Co	0.91468 0.03179 0.18264 1.13600
C 	C 	0.90857 0.71375 0.07112 0.29000
O 	O 	0.81442 0.01002 0.11700 -0.42800
O 	O 	0.95518 0.99443 0.15539 -0.71500
C 	C 	0.83708 0.06980 0.07495 0.28300
O 	O 	0.94911 0.80141 0.19598 -0.47700
C 	C 	0.77635 0.83969 0.20209 0.31100
O 	O 	0.97972 0.93888 0.11457 -0.57800
O 	O 	0.89658 0.08612 0.05756 -0.40300
O 	O 	0.83227 0.90594 0.22254 -0.39900
O 	O 	0.80679 0.82567 0.18151 -0.38700
O 	O 	0.95871 0.78231 0.03867 -0.40000
O 	O 	0.90111 0.72334 0.10761 -0.39000
Co	Co	0.93336 0.94233 0.66932 1.19200
Co	Co	0.92188 0.08791 0.66386 1.14300
C 	C 	0.92820 0.73080 0.59212 0.23800
O 	O 	0.93744 0.18909 0.59982 -0.43600
O 	O 	0.95563 0.04196 0.63846 -0.83800
C 	C 	0.89941 0.17564 0.55479 0.30000
O 	O 	0.93636 0.84125 0.68332 -0.47500
C 	C 	0.75002 0.91314 0.64690 0.29200
O 	O 	0.97592 0.97759 0.60124 -0.57200
O 	O 	0.91289 0.13524 0.54239 -0.41800
O 	O 	0.78969 0.99878 0.63179 -0.34900
O 	O 	0.79520 0.87848 0.66351 -0.36900
O 	O 	0.90434 0.99422 0.73184 -0.33500
O 	O 	0.90297 0.76050 0.60508 -0.38000
N 	N 	0.98012 0.82444 0.94027 -0.04400
O 	O 	0.96681 0.13747 0.76019 -0.20800
O 	O 	0.89685 0.75393 0.94096 -0.10400
C 	C 	0.93593 0.90940 0.34118 -0.09200
C 	C 	0.93092 0.91997 0.38051 0.04500
N 	N 	0.84338 0.88054 0.38534 -0.01800
H 	H 	0.87337 0.86634 0.31777 0.07100
O 	O 	0.78839 0.89820 0.34717 -0.10400
O 	O 	0.81524 0.82103 0.42598 -0.11500
C 	C 	0.54310 0.76075 0.69932 -0.05600
C 	C 	0.47925 0.77101 0.65670 0.02100
C 	C 	0.50306 0.82324 0.60997 -0.05500
C 	C 	0.59003 0.86488 0.60588 0.01900
C 	C 	0.65391 0.85460 0.64853 -0.07600
C 	C 	0.62971 0.80169 0.69515 0.01600
H 	H 	0.52462 0.71908 0.73539 0.05300
H 	H 	0.45353 0.82994 0.57661 0.06000
H 	H 	0.60826 0.90610 0.56974 0.05000
H 	H 	0.67906 0.79468 0.72852 0.04200
H 	H 	0.36553 0.79467 0.74301 0.05400
C 	C 	0.53048 0.75538 0.15181 -0.05700
C 	C 	0.50463 0.72217 0.19670 0.02400
C 	C 	0.56730 0.72221 0.24331 -0.05700
C 	C 	0.65317 0.75153 0.24525 0.02200
C 	C 	0.67895 0.78423 0.20047 -0.08900
C 	C 	0.61685 0.78545 0.15373 0.02300
H 	H 	0.48218 0.75444 0.11558 0.05600
H 	H 	0.54772 0.69539 0.27824 0.05600
H 	H 	0.70110 0.75174 0.28156 0.03800
H 	H 	0.63669 0.81276 0.11881 0.04700
C 	C 	0.71007 0.17834 0.52923 -0.06700
C 	C 	0.75306 0.26975 0.51248 0.01800
C 	C 	0.83106 0.32390 0.49341 -0.06700
C 	C 	0.87199 0.28876 0.49761 0.01300
C 	C 	0.83530 0.19928 0.52074 -0.10000
C 	C 	0.74832 0.14332 0.53026 0.00800
H 	H 	0.64986 0.13473 0.54394 0.03400
H 	H 	0.86206 0.39351 0.47717 0.04000
H 	H 	0.93724 0.33276 0.48785 0.01500
H 	H 	0.71629 0.07343 0.54531 0.01300
C 	C 	0.84897 0.57082 0.61399 -0.00200
C 	C 	0.86181 0.64764 0.57693 -0.06600
C 	C 	0.84168 0.65137 0.52611 -0.00500
C 	C 	0.81505 0.58209 0.51291 -0.05300
C 	C 	0.80369 0.50592 0.55001 0.00900
C 	C 	0.82204 0.50128 0.60080 -0.06000
H 	H 	0.86515 0.56706 0.65349 0.02300
H 	H 	0.85314 0.71072 0.49719 0.04900
H 	H 	0.79901 0.58593 0.47341 0.04600
H 	H 	0.81123 0.44200 0.62977 0.03800
C 	C 	0.40118 0.14312 0.58380 0.01400
C 	C 	0.48021 0.18043 0.57187 -0.06700
C 	C 	0.49708 0.23649 0.52406 0.02000
C 	C 	0.43426 0.25527 0.48847 -0.06200
H 	H 	0.52980 0.16790 0.60031 0.03800
H 	H 	0.44799 0.30078 0.45202 0.05200
C 	C 	0.79889 0.21192 0.08187 -0.05700
C 	C 	0.75519 0.23271 0.03188 -0.01600
C 	C 	0.74679 0.20771 0.99430 -0.01400
C 	C 	0.78014 0.16007 0.00733 -0.04300
C 	C 	0.82073 0.13634 0.05803 -0.08000
C 	C 	0.82996 0.16316 0.09501 0.00500
H 	H 	0.80482 0.22994 0.11119 0.03300
H 	H 	0.71299 0.22344 0.95542 0.03300
H 	H 	0.77080 0.13863 0.97852 0.04400
H 	H 	0.85586 0.14123 0.13463 -0.00400
C 	C 	0.86722 0.54335 0.03650 -0.06300
C 	C 	0.78216 0.46947 0.04766 0.01700
C 	C 	0.74660 0.47197 0.07527 -0.06300
C 	C 	0.78958 0.55091 0.08528 0.01300
C 	C 	0.87123 0.62626 0.07063 -0.08900
C 	C 	0.91320 0.61984 0.04997 0.01900
H 	H 	0.89649 0.54263 0.01600 0.04200
H 	H 	0.68406 0.41369 0.08732 0.04400
H 	H 	0.75805 0.55384 0.10299 0.03500
H 	H 	0.97978 0.67576 0.04211 0.01900
C 	C 	0.48919 0.14794 0.07680 -0.04100
C 	C 	0.49107 0.19759 0.02647 -0.02600
C 	C 	0.41874 0.20506 0.99564 0.00100
C 	C 	0.41619 0.10642 0.09613 -0.02300
H 	H 	0.54600 0.14403 0.10146 0.03200
H 	H 	0.42055 0.24512 0.95711 0.03600
H 	H 	0.41497 0.06704 0.13484 0.02600
