data_crystal

_cell_length_a 16.63012
_cell_length_b 16.87551
_cell_length_c 47.21310
_cell_angle_alpha 90.19726
_cell_angle_beta  90.20198
_cell_angle_gamma 119.38323

_symmetry_space_group_name_	'P 1'
_symmetry_space_group_name_H-M	'P 1'

loop_
_symmetry_equiv_pos_as_xyz
  x,y,z

loop_
_atom_site_label
_atom_site_type_symbol
_atom_site_fract_x
_atom_site_fract_y
_atom_site_fract_z
_atom_site_charge
C 	C 	0.49765 0.15538 0.93353 0.27500
C 	C 	0.56707 0.22873 0.86066 0.40300
Ni	Ni	0.57812 0.34888 0.90623 1.12100
O 	O 	0.48217 0.21159 0.91711 -0.32900
O 	O 	0.58062 0.16389 0.93669 -0.35300
O 	O 	0.64722 0.48527 0.89330 -0.33600
O 	O 	0.60038 0.31417 0.86659 -0.33200
O 	O 	0.58392 0.17782 0.87823 -0.32200
O 	O 	0.57213 0.40168 0.94499 -0.34800
C 	C 	0.49641 0.31659 0.66585 0.41100
C 	C 	0.55801 0.34861 0.58616 0.28800
Ni	Ni	0.57484 0.23032 0.63115 1.12700
O 	O 	0.63454 0.19942 0.59974 -0.37900
O 	O 	0.53732 0.39286 0.65125 -0.32500
O 	O 	0.51222 0.27483 0.60243 -0.34300
O 	O 	0.61546 0.15883 0.65809 -0.34500
O 	O 	0.61089 0.43007 0.59731 -0.35500
O 	O 	0.52854 0.26019 0.66584 -0.36400
C 	C 	0.17469 0.10131 0.72763 0.40900
C 	C 	0.22217 0.10524 0.80288 0.38100
Ni	Ni	0.08532 0.14765 0.77109 1.13500
Ni	Ni	0.07576 0.95464 0.77052 1.11600
O 	O 	0.11062 0.12317 0.73184 -0.34800
O 	O 	0.16499 0.01623 0.80207 -0.30700
O 	O 	0.20827 0.16363 0.78698 -0.31000
O 	O 	0.05020 0.17422 0.80910 -0.35300
O 	O 	0.17669 0.03731 0.74318 -0.31400
C 	C 	0.20733 0.52018 0.46079 0.28600
C 	C 	0.29476 0.81717 0.38468 0.42400
C 	C 	0.17473 0.51473 0.38103 0.41600
C 	C 	0.34517 0.81821 0.46367 0.28500
C 	C 	0.47419 0.69990 0.36952 0.41700
C 	C 	0.51387 0.67625 0.44457 0.29600
Ni	Ni	0.21503 0.66401 0.42315 1.13200
Ni	Ni	0.43681 0.78862 0.41491 1.12800
Ni	Ni	0.34419 0.57295 0.41244 1.12900
O 	O 	0.18248 0.58302 0.45807 -0.35200
O 	O 	0.23480 0.49051 0.43845 -0.32000
O 	O 	0.43685 0.74984 0.37524 -0.35700
O 	O 	0.24467 0.72948 0.38501 -0.34000
O 	O 	0.37120 0.85689 0.39991 -0.34200
O 	O 	0.43208 0.60264 0.44431 -0.37600
O 	O 	0.13791 0.54060 0.40109 -0.32400
O 	O 	0.26382 0.55485 0.37851 -0.35700
O 	O 	0.53153 0.75164 0.42995 -0.33000
O 	O 	0.26827 0.78503 0.44781 -0.31500
O 	O 	0.42554 0.83566 0.45281 -0.36100
O 	O 	0.45366 0.62778 0.38523 -0.34200
O 	O 	0.33320 0.67469 0.42477 -0.71100
H 	H 	0.34287 0.67405 0.44534 0.16200
C 	C 	0.51979 0.80614 0.15793 0.39100
C 	C 	0.27414 0.48307 0.09429 0.30600
C 	C 	0.44143 0.77736 0.07803 0.32000
C 	C 	0.31305 0.49558 0.16925 0.40400
C 	C 	0.16192 0.66720 0.10050 0.30700
C 	C 	0.21573 0.71522 0.17721 0.41100
Ni	Ni	0.42268 0.63965 0.12181 1.12100
Ni	Ni	0.21050 0.56618 0.13845 1.13100
Ni	Ni	0.34229 0.77892 0.12969 1.12900
O 	O 	0.51511 0.72794 0.15109 -0.34100
O 	O 	0.48035 0.84303 0.14171 -0.33800
O 	O 	0.18177 0.60194 0.10154 -0.38400
O 	O 	0.33520 0.56647 0.08935 -0.37800
O 	O 	0.22128 0.46573 0.11662 -0.32200
O 	O 	0.29988 0.77548 0.16923 -0.35700
O 	O 	0.48741 0.74728 0.09317 -0.34300
O 	O 	0.36958 0.77894 0.08832 -0.37900
O 	O 	0.16481 0.63764 0.16274 -0.34500
O 	O 	0.37732 0.52384 0.14874 -0.34300
O 	O 	0.25621 0.52855 0.17207 -0.35000
O 	O 	0.21161 0.74240 0.11548 -0.33100
O 	O 	0.33396 0.66443 0.13721 -0.72300
H 	H 	0.35210 0.67271 0.15735 0.19800
C 	C 	0.08564 0.90520 0.24687 0.38200
C 	C 	0.07442 0.19549 0.31757 0.41500
C 	C 	0.07300 0.92928 0.32437 0.38700
C 	C 	0.11559 0.19704 0.24023 0.40400
Ni	Ni	0.12627 0.07518 0.28362 1.14400
O 	O 	0.14216 0.96849 0.26547 -0.30400
O 	O 	0.14090 0.19393 0.30296 -0.31000
O 	O 	0.09407 0.01397 0.32255 -0.30200
O 	O 	0.01698 0.87025 0.30537 -0.32400
O 	O 	0.15247 0.14545 0.24636 -0.32700
O 	O 	0.04656 0.19510 0.25553 -0.31000
O 	O 	0.00249 0.01757 0.27202 -0.71100
H 	H 	0.00824 0.01600 0.25128 0.19800
C 	C 	0.30699 0.42025 0.21424 0.29200
C 	C 	0.28969 0.41249 0.18497 -0.18900
C 	C 	0.21955 0.32938 0.17396 0.28000
C 	C 	0.15806 0.26180 0.19218 0.28300
C 	C 	0.16896 0.27433 0.22156 -0.17300
C 	C 	0.24620 0.35212 0.23250 0.29600
F 	F 	0.26338 0.36073 0.26080 -0.33700
F 	F 	0.37767 0.49781 0.22519 -0.33600
F 	F 	0.08807 0.18368 0.18125 -0.34700
F 	F 	0.20511 0.31780 0.14562 -0.38600
C 	C 	0.58672 0.86048 0.18014 -0.18800
C 	C 	0.57412 0.82262 0.20734 0.29300
F 	F 	0.48858 0.75854 0.21566 -0.33800
C 	C 	0.19862 0.76809 0.22466 0.29200
C 	C 	0.16893 0.74765 0.19637 -0.18900
C 	C 	0.11297 0.78032 0.18479 0.28300
C 	C 	0.09061 0.83636 0.20085 0.27700
C 	C 	0.12173 0.85844 0.22897 -0.17700
C 	C 	0.17470 0.82280 0.24097 0.28800
F 	F 	0.20116 0.83938 0.26857 -0.33400
F 	F 	0.25302 0.73714 0.23607 -0.32900
F 	F 	0.03909 0.86999 0.18901 -0.36800
F 	F 	0.08553 0.76283 0.15729 -0.38400
C 	C 	0.55769 0.74052 0.35188 -0.19200
C 	C 	0.55668 0.78408 0.32660 0.29600
F 	F 	0.47502 0.76352 0.31408 -0.31900
C 	C 	0.07708 0.27046 0.36331 0.28500
C 	C 	0.09257 0.27682 0.33398 -0.18800
C 	C 	0.11170 0.35726 0.31991 0.29100
C 	C 	0.12395 0.43330 0.33537 0.29200
C 	C 	0.11910 0.43023 0.36507 -0.19200
C 	C 	0.08925 0.34665 0.37876 0.27900
F 	F 	0.07901 0.34110 0.40732 -0.38000
F 	F 	0.05208 0.19101 0.37692 -0.35600
F 	F 	0.14787 0.51239 0.32168 -0.33800
F 	F 	0.11761 0.36152 0.29124 -0.34400
C 	C 	0.16303 0.84672 0.38418 0.28500
C 	C 	0.25163 0.86945 0.37431 -0.19800
C 	C 	0.28437 0.92034 0.34947 0.29900
C 	C 	0.22607 0.94035 0.33322 0.29000
C 	C 	0.13366 0.90732 0.34134 -0.17800
C 	C 	0.10353 0.86346 0.36739 0.28500
F 	F 	0.01657 0.83687 0.37644 -0.35300
F 	F 	0.13232 0.80210 0.40908 -0.40400
F 	F 	0.25935 0.99188 0.30965 -0.37600
F 	F 	0.37080 0.94572 0.34018 -0.35000
C 	C 	0.52506 0.95635 0.59009 -0.06000
C 	C 	0.54160 0.95933 0.56071 -0.02300
C 	C 	0.63251 0.01267 0.55086 0.01300
C 	C 	0.59673 0.01439 0.60831 0.06100
C 	C 	0.46371 0.91799 0.54007 0.06000
C 	C 	0.44450 0.97466 0.52294 -0.12700
C 	C 	0.38394 0.93797 0.49977 0.07200
C 	C 	0.34502 0.84480 0.49324 -0.08000
C 	C 	0.34757 0.78694 0.51399 0.02100
C 	C 	0.41119 0.82283 0.53643 -0.04800
C 	C 	0.36923 0.99747 0.48119 0.04300
C 	C 	0.42599 0.76214 0.55446 0.10800
C 	C 	0.43332 0.90148 0.60130 0.10400
N 	N 	0.35742 0.04515 0.46628 -0.03100
N 	N 	0.43793 0.71372 0.56898 -0.09400
N 	N 	0.35984 0.85757 0.61029 -0.09900
H 	H 	0.58216 0.01529 0.63059 0.09500
H 	H 	0.64801 0.00995 0.52870 0.07300
H 	H 	0.47992 0.04745 0.52683 0.11100
H 	H 	0.31103 0.71443 0.51020 0.03600
C 	C 	0.08702 0.49753 0.53124 0.03200
C 	C 	0.18411 0.53960 0.53227 -0.04600
C 	C 	0.23099 0.51848 0.51155 0.01900
C 	C 	0.18250 0.46975 0.48738 -0.04700
C 	C 	0.08892 0.40732 0.49091 0.02000
C 	C 	0.03937 0.42254 0.51233 -0.03000
C 	C 	0.32994 0.56021 0.51270 0.08900
N 	N 	0.40944 0.59378 0.51371 -0.10300
N 	N 	0.07283 0.65355 0.64472 -0.07300
H 	H 	0.12750 0.56569 0.58538 0.06700
H 	H 	0.22304 0.59181 0.54790 0.05900
H 	H 	0.05210 0.35721 0.47447 0.09100
C 	C 	0.60907 0.53235 0.46066 -0.02200
C 	C 	0.60259 0.53579 0.49032 0.02400
C 	C 	0.61058 0.61499 0.50294 -0.03900
C 	C 	0.60769 0.68200 0.48598 0.02200
C 	C 	0.58984 0.66594 0.45677 -0.03200
C 	C 	0.60696 0.60014 0.44401 0.01800
C 	C 	0.57758 0.45402 0.50797 0.03100
C 	C 	0.64598 0.43360 0.51661 -0.04900
C 	C 	0.62836 0.37277 0.53897 0.02600
C 	C 	0.54757 0.34282 0.55514 -0.06400
C 	C 	0.47339 0.34858 0.54308 0.02000
C 	C 	0.48763 0.40228 0.51889 -0.03100
C 	C 	0.40944 0.39695 0.50389 0.11800
C 	C 	0.61185 0.45693 0.44709 0.12000
N 	N 	0.34661 0.39179 0.49166 -0.09200
N 	N 	0.61408 0.39645 0.43624 -0.07700
H 	H 	0.60164 0.59174 0.42121 0.10300
H 	H 	0.61332 0.62179 0.52582 0.07000
H 	H 	0.40728 0.31790 0.55372 0.07200
C 	C 	0.25086 0.20197 0.68605 0.28500
C 	C 	0.25836 0.16585 0.71213 -0.19300
C 	C 	0.34541 0.20055 0.72506 0.29700
C 	C 	0.42316 0.27098 0.71234 0.29000
C 	C 	0.41802 0.29607 0.68435 -0.18300
C 	C 	0.33067 0.26634 0.67206 0.27900
F 	F 	0.32370 0.29316 0.64552 -0.37400
F 	F 	0.16695 0.17160 0.67364 -0.35600
F 	F 	0.50660 0.30456 0.72537 -0.32600
F 	F 	0.35559 0.16252 0.74908 -0.35300
C 	C 	0.00812 0.59320 0.04126 -0.03800
C 	C 	0.07144 0.64492 0.08850 -0.05500
C 	C 	0.06842 0.66351 0.05968 0.01700
N 	N 	0.05686 0.36498 0.94933 -0.06200
H 	H 	0.11986 0.72817 0.05110 0.05300
H 	H 	0.05504 0.47175 0.01258 0.06300
C 	C 	0.40889 0.92398 0.95168 0.02400
C 	C 	0.40299 0.93429 0.98115 -0.06000
C 	C 	0.38610 0.00346 0.99110 0.04100
C 	C 	0.39193 0.07076 0.97242 -0.01800
C 	C 	0.41987 0.07117 0.94432 0.03400
C 	C 	0.41002 0.98950 0.93327 -0.07000
C 	C 	0.42869 0.88345 0.00163 0.07100
C 	C 	0.51116 0.93022 0.01728 -0.12600
C 	C 	0.52814 0.88804 0.04034 0.05900
C 	C 	0.46179 0.79904 0.04792 -0.08400
C 	C 	0.39079 0.74702 0.02852 0.03300
C 	C 	0.36973 0.78997 0.00666 -0.05500
C 	C 	0.60972 0.93900 0.05756 0.08200
C 	C 	0.28438 0.73948 0.99103 0.11100
C 	C 	0.42280 0.85194 0.94041 0.09800
C 	C 	0.37791 0.14356 0.98279 0.11900
N 	N 	0.21604 0.69897 0.97851 -0.09900
N 	N 	0.36659 0.20193 0.99110 -0.09900
N 	N 	0.43398 0.79425 0.93138 -0.08000
H 	H 	0.42169 0.98499 0.91095 0.11200
H 	H 	0.37449 0.00813 0.01348 0.05700
H 	H 	0.55962 0.00063 0.01242 0.11400
H 	H 	0.34326 0.67614 0.03315 0.05000
C 	C 	0.57578 0.53152 0.02249 -0.03300
C 	C 	0.52618 0.44707 0.03626 0.02800
C 	C 	0.54731 0.37834 0.03045 -0.04600
C 	C 	0.60226 0.38557 0.00726 0.02600
C 	C 	0.63399 0.54038 0.99980 0.01800
C 	C 	0.44133 0.42426 0.05232 0.02300
C 	C 	0.36164 0.41053 0.03778 -0.04300
C 	C 	0.28504 0.40016 0.05309 0.02400
C 	C 	0.29226 0.41273 0.08258 -0.04100
C 	C 	0.35901 0.39904 0.09663 0.00600
C 	C 	0.43732 0.41135 0.08189 -0.02900
C 	C 	0.20145 0.38146 0.03847 0.10700
C 	C 	0.51420 0.41479 0.09727 0.11000
C 	C 	0.56479 0.60799 0.03085 0.10600
C 	C 	0.60618 0.30586 0.99845 0.07500
N 	N 	0.13413 0.36574 0.02668 -0.09600
N 	N 	0.60714 0.24044 0.99175 -0.11100
N 	N 	0.55602 0.66928 0.03758 -0.10100
H 	H 	0.51295 0.31502 0.04211 0.07200
H 	H 	0.36010 0.40982 0.01481 0.07000
H 	H 	0.35663 0.39165 0.11939 0.09700
C 	C 	0.47759 0.24182 0.82037 0.29100
C 	C 	0.48742 0.18666 0.84088 -0.18200
C 	C 	0.41088 0.10223 0.84728 0.29100
C 	C 	0.32334 0.07975 0.83693 0.27600
C 	C 	0.31219 0.13770 0.81772 -0.16000
C 	C 	0.39017 0.22007 0.81001 0.29800
F 	F 	0.38148 0.27989 0.79286 -0.34100
F 	F 	0.55247 0.31976 0.81179 -0.31400
F 	F 	0.24900 0.00213 0.84597 -0.34800
F 	F 	0.42082 0.04221 0.86384 -0.37200
C 	C 	0.64815 0.45448 0.95951 0.28200
H 	H 	0.65807 0.32048 0.94042 0.16700
F 	F 	0.63733 0.79697 0.24935 -0.33500
C 	C 	0.03774 0.53549 0.54871 0.01800
C 	C 	0.06721 0.56581 0.57666 -0.04100
C 	C 	0.04738 0.62623 0.62205 0.10700
N 	N 	0.57583 0.41758 0.10959 -0.08200
C 	C 	0.65030 0.84275 0.22471 0.28900
H 	H 	0.03059 0.02871 0.80195 0.19100
C 	C 	0.67510 0.92881 0.17223 0.29700
F 	F 	0.68848 0.96731 0.14624 -0.38000
F 	F 	0.63538 0.90108 0.29271 -0.34000
C 	C 	0.63941 0.46439 0.99015 -0.06200
O 	O 	0.01852 0.02343 0.78139 -0.70700
C 	C 	0.61166 0.76125 0.49906 0.10400
N 	N 	0.61478 0.82481 0.50953 -0.10400
C 	C 	0.64285 0.76168 0.36423 0.28400
F 	F 	0.64575 0.72048 0.38847 -0.39000
C 	C 	0.63890 0.85383 0.31543 0.29800
Ni	Ni	0.66782 0.44687 0.63546 1.14300
Ni	Ni	0.68380 0.23095 0.90953 1.13400
O 	O 	0.67645 0.33546 0.92057 -0.71400
C 	C 	0.69885 0.35228 0.54800 0.07500
H 	H 	0.71347 0.46747 0.50680 0.06600
C 	C 	0.69884 0.17825 0.60529 0.30100
O 	O 	0.68499 0.34435 0.63027 -0.71200
C 	C 	0.67780 0.08601 0.59690 -0.02300
H 	H 	0.69778 0.35009 0.60987 0.16800
H 	H 	0.66640 0.60293 0.98774 0.07000
C 	C 	0.73090 0.52447 0.88264 0.42400
C 	C 	0.67331 0.19702 0.67966 0.41200
O 	O 	0.71105 0.45912 0.67565 -0.33700
C 	C 	0.70173 0.07374 0.56942 0.01400
C 	C 	0.70671 0.14486 0.69642 -0.18900
F 	F 	0.67620 0.19825 0.73993 -0.33000
N 	N 	0.67510 0.97983 0.07137 -0.06600
C 	C 	0.01547 0.59209 0.59380 0.01800
O 	O 	0.72960 0.50164 0.94653 -0.32900
O 	O 	0.77219 0.29695 0.87887 -0.36500
O 	O 	0.72273 0.28467 0.68071 -0.34200
C 	C 	0.73963 0.90764 0.21623 -0.15100
C 	C 	0.75125 0.95206 0.19009 0.24100
C 	C 	0.72399 0.87624 0.32821 -0.18700
C 	C 	0.72506 0.83042 0.35295 0.27700
N 	N 	0.75500 0.33565 0.55560 -0.09700
C 	C 	0.72371 0.16480 0.72554 0.29200
F 	F 	0.73150 0.07585 0.65547 -0.38600
F 	F 	0.75064 0.63167 0.66126 -0.41400
N 	N 	0.71015 0.34475 0.06925 -0.09400
H 	H 	0.73449 0.21969 0.01404 0.06200
C 	C 	0.76503 0.60719 0.86568 -0.19300
F 	F 	0.71555 0.51874 0.82304 -0.32600
O 	O 	0.78520 0.49052 0.88702 -0.35300
O 	O 	0.78254 0.25349 0.94028 -0.31300
O 	O 	0.76612 0.22621 0.62426 -0.30700
C 	C 	0.79585 0.12528 0.56002 0.12900
C 	C 	0.75297 0.10508 0.68252 0.28300
F 	F 	0.78619 0.78091 0.69329 -0.36500
C 	C 	0.76385 0.34619 0.05343 0.10300
C 	C 	0.76688 0.60042 0.83609 0.29500
F 	F 	0.81714 0.69956 0.90753 -0.38400
Ni	Ni	0.79403 0.44158 0.92494 1.13200
C 	C 	0.80707 0.31138 0.96244 0.29000
Ni	Ni	0.79334 0.35026 0.64511 1.12400
O 	O 	0.80058 0.52937 0.61953 -0.31700
C 	C 	0.79493 0.15771 0.73928 0.28900
C 	C 	0.80189 0.27958 0.01275 0.00900
C 	C 	0.81819 0.69213 0.87890 0.28300
O 	O 	0.80900 0.39033 0.96082 -0.37500
C 	C 	0.79889 0.50169 0.68079 0.42000
C 	C 	0.81173 0.93413 0.31331 0.40500
F 	F 	0.80610 0.85368 0.36637 -0.35100
C 	C 	0.80449 0.65139 0.68479 0.28800
C 	C 	0.81892 0.93785 0.23610 0.34800
O 	O 	0.81850 0.99622 0.29503 -0.34300
O 	O 	0.82146 0.87715 0.25405 -0.31400
F 	F 	0.83681 0.01518 0.18148 -0.31400
F 	F 	0.81104 0.17828 0.76728 -0.34200
C 	C 	0.82483 0.09924 0.69606 0.28500
C 	C 	0.82236 0.72752 0.70117 0.29000
C 	C 	0.83067 0.34787 0.03364 -0.02200
C 	C 	0.82455 0.67675 0.81999 0.29200
C 	C 	0.85191 0.29859 0.98755 -0.04000
C 	C 	0.85879 0.34854 0.88492 0.42000
C 	C 	0.85138 0.50248 0.60418 0.27400
O 	O 	0.85629 0.42872 0.61060 -0.34900
H 	H 	0.84218 0.55466 0.54869 0.05000
C 	C 	0.84791 0.12764 0.72430 -0.18000
C 	C 	0.83980 0.59405 0.69301 -0.19300
F 	F 	0.82356 0.66952 0.79135 -0.34600
O 	O 	0.85108 0.47406 0.66803 -0.32800
O 	O 	0.85584 0.84315 0.75965 -0.32500
N 	N 	0.87164 0.16623 0.55261 -0.07900
N 	N 	0.86341 0.31097 0.51556 -0.09300
F 	F 	0.87136 0.06444 0.68178 -0.34100
C 	C 	0.87611 0.76857 0.86282 0.28200
O 	O 	0.88309 0.40589 0.90650 -0.34700
O 	O 	0.87627 0.02651 0.23857 -0.29500
O 	O 	0.87665 0.91235 0.31483 -0.35300
C 	C 	0.88084 0.76096 0.83332 -0.17500
Ni	Ni	0.88953 0.96588 0.78084 1.10800
O 	O 	0.88667 0.01869 0.74199 -0.31800
O 	O 	0.89195 0.07727 0.80300 -0.30000
C 	C 	0.87911 0.74988 0.72516 -0.18100
F 	F 	0.91174 0.22791 0.91085 -0.38300
O 	O 	0.89745 0.90152 0.81681 -0.34700
H 	H 	0.90226 0.42549 0.09035 0.07700
C 	C 	0.90588 0.55929 0.55636 0.00400
C 	C 	0.89953 0.61833 0.71641 0.30000
C 	C 	0.00814 0.36089 0.96739 0.12100
C 	C 	0.91052 0.10408 0.73967 0.40900
C 	C 	0.90827 0.83681 0.73988 0.42400
C 	C 	0.92199 0.42241 0.03265 0.02300
C 	C 	0.92768 0.24863 0.88299 0.27800
C 	C 	0.92431 0.32461 0.87216 -0.19100
F 	F 	0.92778 0.85012 0.87591 -0.36400
C 	C 	0.92471 0.56699 0.58556 -0.03900
F 	F 	0.93335 0.11172 0.87499 -0.35500
Ni	Ni	0.92901 0.89175 0.27970 1.12800
C 	C 	0.92037 0.69676 0.73216 0.30100
C 	C 	0.92932 0.84361 0.81611 0.39200
C 	C 	0.93632 0.18799 0.86456 0.28300
Ni	Ni	0.93824 0.08409 0.27515 1.14100
C 	C 	0.94416 0.49240 0.08138 -0.05000
C 	C 	0.94175 0.36121 0.51455 0.12600
N 	N 	0.94129 0.55163 0.48326 -0.08700
F 	F 	0.93525 0.56468 0.72440 -0.34400
C 	C 	0.94784 0.35621 0.98997 0.03300
C 	C 	0.94696 0.20562 0.83544 -0.17700
C 	C 	0.94909 0.34893 0.84382 0.29400
C 	C 	0.95414 0.50377 0.05186 0.03700
C 	C 	0.95117 0.54868 0.50743 0.10300
F 	F 	0.95309 0.42567 0.83340 -0.34100
C 	C 	0.95865 0.28890 0.82539 0.29800
N 	N 	0.96113 0.55089 0.15338 -0.05900
C 	C 	0.96375 0.14623 0.81642 0.41500
C 	C 	0.96345 0.54501 0.53760 -0.01900
C 	C 	0.97640 0.55837 0.12935 0.11600
F 	F 	0.97826 0.31116 0.79769 -0.34000
C 	C 	0.98266 0.42040 0.01219 -0.03300
O 	O 	0.98028 0.16597 0.75477 -0.30800
F 	F 	0.98103 0.72149 0.75411 -0.36200
C 	C 	0.00063 0.61327 0.01199 0.09800
O 	O 	0.98737 0.84651 0.79587 -0.30100
O 	O 	0.98936 0.13132 0.31409 -0.34300
O 	O 	0.99263 0.90213 0.73668 -0.36800
C 	C 	0.99452 0.56715 0.09936 0.03400
N 	N 	0.99436 0.62917 0.98852 -0.08800
O 	O 	0.99492 0.87162 0.24732 -0.34000
