data_crystal

_cell_length_a 21.13442
_cell_length_b 19.68873
_cell_length_c 43.38114
_cell_angle_alpha 90.68950
_cell_angle_beta  90.79295
_cell_angle_gamma 113.81196

_symmetry_space_group_name_	'P 1'
_symmetry_space_group_name_H-M	'P 1'

loop_
_symmetry_equiv_pos_as_xyz
  x,y,z

loop_
_atom_site_label
_atom_site_type_symbol
_atom_site_fract_x
_atom_site_fract_y
_atom_site_fract_z
_atom_site_charge
C 	C 	0.04656 0.99874 0.69249 -0.03900
H 	H 	0.04111 0.00046 0.66702 0.04500
C 	C 	0.05876 0.99435 0.75351 -0.03600
H 	H 	0.06433 0.99336 0.77901 0.04300
C 	C 	0.12110 0.02204 0.70461 -0.00800
C 	C 	0.12699 0.01929 0.73601 -0.01100
Ni	Ni	0.20944 0.67415 0.41630 1.09800
O 	O 	0.15696 0.70714 0.38372 -0.36700
O 	O 	0.23784 0.82612 0.38747 -0.41200
O 	O 	0.18247 0.57536 0.39237 -0.37000
O 	O 	0.13472 0.51955 0.44554 -0.40800
O 	O 	0.12170 0.62890 0.44143 -0.38900
Ni	Ni	0.23873 0.55350 0.45553 1.06500
O 	O 	0.25860 0.53020 0.41189 -0.42500
C 	C 	0.18474 0.77480 0.37295 0.27100
C 	C 	0.22559 0.54285 0.38815 0.26000
C 	C 	0.09806 0.55954 0.45037 0.28600
Ni	Ni	0.23650 0.69395 0.03262 1.09800
Ni	Ni	0.28919 0.58578 0.99673 1.06700
O 	O 	0.22862 0.52575 0.03211 -0.39900
O 	O 	0.14862 0.61331 0.01302 -0.38100
O 	O 	0.17554 0.72725 0.06027 -0.37100
O 	O 	0.23625 0.84555 0.04475 -0.41500
C 	C 	0.22464 0.55091 0.05993 0.29600
C 	C 	0.14583 0.57376 0.98765 0.29800
C 	C 	0.18626 0.79794 0.06100 0.26300
O 	O 	0.24064 0.62167 0.06536 -0.39700
O 	O 	0.20219 0.57678 0.97370 -0.42400
C 	C 	0.01691 0.41001 0.11933 -0.02900
C 	C 	0.08654 0.42714 0.11274 0.00400
C 	C 	0.12097 0.38720 0.12699 0.00600
C 	C 	0.08556 0.33073 0.14793 -0.03600
C 	C 	0.01531 0.31306 0.15401 0.05100
C 	C 	0.12016 0.29127 0.16242 0.04500
C 	C 	0.18971 0.30817 0.15572 -0.05900
C 	C 	0.22454 0.36343 0.13454 -0.03400
C 	C 	0.19047 0.40300 0.12000 0.00600
C 	C 	0.22473 0.45757 0.09829 -0.02100
C 	C 	0.19041 0.49729 0.08410 -0.06600
C 	C 	0.12184 0.48288 0.09172 -0.02000
C 	C 	0.01401 0.21585 0.18855 0.04500
C 	C 	0.08443 0.23465 0.18306 -0.08600
H 	H 	0.21674 0.27812 0.16669 0.04100
H 	H 	0.27799 0.37528 0.12943 0.03500
H 	H 	0.27769 0.46889 0.09234 0.03600
H 	H 	0.09561 0.51383 0.08074 0.04300
H 	H 	0.11079 0.20425 0.19435 0.05100
C 	C 	0.12504 0.00359 0.09127 -0.03500
C 	C 	0.09879 0.03748 0.11313 -0.05400
C 	C 	0.06019 0.99655 0.13775 0.03700
C 	C 	0.04702 0.92069 0.14017 -0.03200
C 	C 	0.07533 0.88716 0.11870 0.00100
C 	C 	0.11438 0.92880 0.09416 0.00500
C 	C 	0.06593 0.81253 0.12216 0.00600
C 	C 	0.02516 0.77089 0.14619 -0.03300
C 	C 	0.00611 0.87864 0.16420 0.04500
C 	C 	0.03473 0.03058 0.15993 -0.07700
C 	C 	0.14455 0.89620 0.07353 -0.03100
C 	C 	0.14049 0.82406 0.07838 -0.06600
C 	C 	0.09923 0.78135 0.10213 -0.02700
H 	H 	0.15486 0.03594 0.07241 0.03500
H 	H 	0.10858 0.09565 0.11093 0.04200
H 	H 	0.01710 0.71336 0.14893 0.03600
H 	H 	0.04601 0.08918 0.15840 0.05000
H 	H 	0.17396 0.92816 0.05446 0.04000
H 	H 	0.09491 0.72520 0.10561 0.04600
C 	C 	0.07374 0.41837 0.26845 -0.05600
C 	C 	0.11540 0.47769 0.28756 -0.03400
C 	C 	0.15962 0.46755 0.30976 0.00900
C 	C 	0.16680 0.39943 0.31082 0.00300
C 	C 	0.12646 0.34051 0.29095 -0.03200
C 	C 	0.07718 0.34891 0.27086 0.04500
C 	C 	0.13158 0.27142 0.29282 0.04500
C 	C 	0.17909 0.26280 0.31369 -0.05800
C 	C 	0.21750 0.32069 0.33420 -0.03500
C 	C 	0.20949 0.38811 0.33369 0.00700
C 	C 	0.23789 0.44123 0.35743 -0.02400
C 	C 	0.22253 0.50435 0.35855 -0.06500
C 	C 	0.19069 0.52129 0.33290 -0.02500
C 	C 	0.03468 0.21821 0.25659 0.04300
C 	C 	0.08670 0.21098 0.27497 -0.08600
H 	H 	0.11076 0.53041 0.28611 0.03700
H 	H 	0.18441 0.21039 0.31484 0.04200
H 	H 	0.25163 0.31217 0.35114 0.03300
H 	H 	0.26679 0.43053 0.37623 0.04000
H 	H 	0.18387 0.57304 0.33264 0.03800
H 	H 	0.09100 0.15796 0.27593 0.05200
C 	C 	0.05944 0.89780 0.28706 -0.03300
C 	C 	0.08913 0.86034 0.30588 0.00500
C 	C 	0.04758 0.80649 0.32657 0.00800
C 	C 	0.16090 0.87915 0.30506 0.00300
C 	C 	0.20202 0.93313 0.28458 -0.03300
C 	C 	0.17256 0.97056 0.26594 -0.06300
C 	C 	0.10161 0.95424 0.26750 0.04600
C 	C 	0.07272 0.99516 0.25055 -0.08900
C 	C 	0.00208 0.97943 0.25273 0.04400
C 	C 	0.07855 0.77430 0.34727 -0.01800
C 	C 	0.15058 0.79648 0.34765 -0.07000
C 	C 	0.19113 0.84642 0.32574 -0.02200
H 	H 	0.25710 0.94725 0.28353 0.02800
H 	H 	0.20517 0.01309 0.25067 0.04200
H 	H 	0.10517 0.04003 0.23614 0.05300
H 	H 	0.04728 0.73500 0.36401 0.04900
H 	H 	0.24659 0.86198 0.32568 0.01000
C 	C 	0.02285 0.52075 0.45745 -0.08600
N 	N 	0.02202 0.62455 0.48761 -0.19500
H 	H 	0.01174 0.41913 0.43388 0.05700
H 	H 	0.07504 0.64393 0.49232 0.08200
H 	H 	0.04619 0.29264 0.66473 0.04000
H 	H 	0.05969 0.18826 0.69007 0.04600
C 	C 	0.29205 0.06662 0.66441 0.03900
C 	C 	0.24283 0.15284 0.64696 0.04100
C 	C 	0.18627 0.11894 0.66637 -0.08200
C 	C 	0.18189 0.05852 0.68452 0.03600
C 	C 	0.23463 0.03217 0.68333 -0.07500
H 	H 	0.20628 0.23281 0.62888 0.03900
H 	H 	0.14579 0.13940 0.66736 0.04900
H 	H 	0.23081 0.98498 0.69701 0.04700
C 	C 	0.06393 0.55094 0.94385 -0.04200
C 	C 	0.07817 0.53095 0.97311 -0.09900
C 	C 	0.02482 0.47700 0.98978 0.11000
H 	H 	0.10558 0.59010 0.93059 0.04200
N 	N 	0.03911 0.44880 0.01615 -0.19900
H 	H 	0.08994 0.45999 0.02295 0.10000
C 	C 	0.26227 0.98716 0.81989 -0.06800
C 	C 	0.28213 0.11194 0.80351 -0.03600
C 	C 	0.25320 0.03452 0.79800 0.04800
C 	C 	0.27062 0.15951 0.78222 0.04400
C 	C 	0.21195 0.00530 0.77167 -0.08500
C 	C 	0.19320 0.05158 0.75282 0.04100
C 	C 	0.22580 0.12895 0.75691 -0.08300
H 	H 	0.23952 0.92754 0.81598 0.04000
H 	H 	0.29254 0.27369 0.77124 0.04000
H 	H 	0.18881 0.94575 0.76746 0.04500
H 	H 	0.21201 0.16466 0.74185 0.05100
H 	H 	0.07519 0.79372 0.82669 0.03800
H 	H 	0.07158 0.86341 0.78084 0.04600
C 	C 	0.24663 0.21212 0.62825 -0.05600
H 	H 	0.03229 0.79859 0.70057 0.05300
C 	C 	0.01963 0.76297 0.82460 -0.05000
C 	C 	0.02988 0.28708 0.25466 -0.08100
C 	C 	0.29589 0.12671 0.64600 -0.02900
H 	H 	0.06697 0.18840 0.76253 0.04800
C 	C 	0.02689 0.04703 0.74211 -0.00800
H 	H 	0.05258 0.29560 0.78579 0.03900
H 	H 	0.34320 0.99546 0.67763 0.03700
C 	C 	0.30103 0.23668 0.78750 -0.05800
O 	O 	0.29773 0.71551 0.39127 -0.70800
Ni	Ni	0.33496 0.82326 0.38844 1.06400
O 	O 	0.33595 0.83663 0.43509 -0.42500
O 	O 	0.27681 0.65954 0.44605 -0.69600
O 	O 	0.33407 0.56285 0.47314 -0.41100
H 	H 	0.29252 0.69187 0.37058 0.15200
H 	H 	0.28391 0.69086 0.46488 0.15500
O 	O 	0.30963 0.69032 0.00462 -0.70200
O 	O 	0.32530 0.76752 0.05373 -0.70300
H 	H 	0.30719 0.71463 0.98505 0.15300
H 	H 	0.32900 0.75180 0.07502 0.15400
H 	H 	0.30688 0.84031 0.49594 0.07900
H 	H 	0.31139 0.92346 0.51504 0.08200
C 	C 	0.34538 0.04127 0.66344 -0.05100
C 	C 	0.35233 0.15996 0.62623 0.00100
C 	C 	0.35494 0.21836 0.60704 0.00900
C 	C 	0.30217 0.24448 0.60836 -0.03600
H 	H 	0.30383 0.28957 0.59385 0.03400
C 	C 	0.29948 0.01647 0.84723 -0.02700
C 	C 	0.32962 0.09358 0.85257 0.00100
C 	C 	0.32113 0.14150 0.83058 0.00400
C 	C 	0.34256 0.26639 0.81383 -0.03600
C 	C 	0.35308 0.21913 0.83541 0.00400
H 	H 	0.30591 0.97928 0.86401 0.02900
C 	C 	0.02044 0.04918 0.71078 -0.01100
N 	N 	0.33431 0.89686 0.50086 -0.19800
C 	C 	0.01569 0.15250 0.77006 -0.07400
H 	H 	0.36662 0.32608 0.81739 0.03300
C 	C 	0.01598 0.83282 0.77910 -0.07700
C 	C 	0.40168 0.07468 0.64403 -0.03800
O 	O 	0.49481 0.28995 0.91537 -0.37800
C 	C 	0.47575 0.22731 0.89913 0.26700
O 	O 	0.50657 0.18140 0.90373 -0.41200
O 	O 	0.53550 0.17245 0.47855 -0.42100
O 	O 	0.53255 0.37224 0.50390 -0.41800
Ni	Ni	0.53536 0.27175 0.49114 1.07000
O 	O 	0.48585 0.22343 0.53060 -0.39500
C 	C 	0.51022 0.24307 0.55884 0.29600
Ni	Ni	0.36250 0.69130 0.41829 1.09900
O 	O 	0.44449 0.73081 0.38909 -0.37200
O 	O 	0.41724 0.64300 0.44250 -0.36800
C 	C 	0.38692 0.83423 0.45183 0.30000
C 	C 	0.46528 0.79900 0.37832 0.26700
C 	C 	0.39013 0.57921 0.45671 0.29600
O 	O 	0.41158 0.78423 0.44572 -0.37400
O 	O 	0.43817 0.84463 0.38887 -0.41200
Ni	Ni	0.39786 0.75361 0.02897 1.09900
O 	O 	0.45880 0.70756 0.00798 -0.37800
O 	O 	0.37920 0.59145 0.01856 -0.41900
O 	O 	0.42715 0.83615 0.99604 -0.38400
O 	O 	0.44085 0.91216 0.07027 -0.41600
O 	O 	0.47938 0.82125 0.05515 -0.39100
Ni	Ni	0.33925 0.87090 0.05571 1.07000
O 	O 	0.36105 0.89610 0.01107 -0.41300
C 	C 	0.43989 0.63494 0.00797 0.27800
C 	C 	0.41829 0.89839 0.99934 0.29300
C 	C 	0.49159 0.89106 0.06280 0.28400
C 	C 	0.53168 0.83162 0.36189 -0.05800
H 	H 	0.51278 0.73350 0.33390 0.03900
C 	C 	0.50041 0.93564 0.46364 -0.04800
C 	C 	0.42986 0.90002 0.47025 -0.09700
C 	C 	0.39965 0.93429 0.49065 0.10100
C 	C 	0.43819 0.00753 0.50079 -0.03900
C 	C 	0.50665 0.04564 0.49157 -0.09800
C 	C 	0.53917 0.00847 0.47405 0.10900
H 	H 	0.52419 0.90817 0.44885 0.05900
H 	H 	0.41447 0.03543 0.51540 0.04800
C 	C 	0.42964 0.47810 0.44854 -0.04400
C 	C 	0.43680 0.54295 0.46463 -0.09500
C 	C 	0.49213 0.57593 0.48628 0.11500
C 	C 	0.53900 0.54285 0.49138 -0.04600
C 	C 	0.52993 0.47614 0.47631 -0.08800
C 	C 	0.47629 0.44485 0.45385 0.09500
N 	N 	0.46998 0.38359 0.43703 -0.19800
H 	H 	0.38831 0.45404 0.43144 0.03600
N 	N 	0.49946 0.63802 0.50277 -0.20000
H 	H 	0.42899 0.35936 0.42118 0.07300
H 	H 	0.50692 0.36105 0.43873 0.04800
H 	H 	0.46295 0.66111 0.50122 0.10200
C 	C 	0.40525 0.13363 0.62516 0.01000
C 	C 	0.45998 0.16503 0.60455 -0.02100
C 	C 	0.46123 0.22125 0.58454 -0.06100
C 	C 	0.40926 0.24853 0.58617 -0.02400
H 	H 	0.44211 0.05411 0.64346 0.03800
H 	H 	0.49980 0.14362 0.60310 0.04700
H 	H 	0.41017 0.29173 0.57066 0.03800
C 	C 	0.43258 0.01042 0.96957 -0.04300
C 	C 	0.46409 0.96764 0.98356 -0.10300
C 	C 	0.46799 0.08789 0.96739 0.10500
N 	N 	0.43129 0.12961 0.96191 -0.19800
H 	H 	0.37779 0.98475 0.96373 0.04600
H 	H 	0.37937 0.10424 0.95482 0.08700
H 	H 	0.45109 0.18583 0.96790 0.11000
C 	C 	0.53681 0.55771 0.95467 -0.04400
C 	C 	0.54652 0.52034 0.00727 0.09900
C 	C 	0.51065 0.56264 0.01764 -0.03900
C 	C 	0.48716 0.60186 0.99684 -0.10100
C 	C 	0.50085 0.59989 0.96501 0.09600
N 	N 	0.47861 0.63702 0.94418 -0.20200
H 	H 	0.54705 0.55589 0.93031 0.04400
H 	H 	0.50006 0.56408 0.04197 0.04400
H 	H 	0.48884 0.63496 0.92076 0.07800
H 	H 	0.45098 0.66809 0.95087 0.07500
C 	C 	0.39808 0.24834 0.86081 -0.02900
C 	C 	0.41117 0.20033 0.88111 -0.06800
C 	C 	0.37179 0.12350 0.87857 -0.02400
H 	H 	0.42688 0.30790 0.86344 0.03500
H 	H 	0.37925 0.08677 0.89532 0.04100
H 	H 	0.03759 0.42595 0.25233 0.04300
H 	H 	0.02434 0.58015 0.89065 0.08200
C 	C 	0.55851 0.51680 0.97536 -0.09400
H 	H 	0.55983 0.48630 0.05154 0.08000
C 	C 	0.54056 0.12157 0.97294 -0.09900
N 	N 	0.56983 0.48417 0.02809 -0.19900
O 	O 	0.56670 0.40008 0.96349 -0.37900
C 	C 	0.58410 0.19351 0.95839 0.30000
C 	C 	0.59627 0.47336 0.96341 0.27100
O 	O 	0.57110 0.25314 0.96276 -0.37400
O 	O 	0.57708 0.26918 0.56483 -0.39300
O 	O 	0.57262 0.14655 0.52582 -0.38200
C 	C 	0.56691 0.43254 0.48838 0.27600
C 	C 	0.54159 0.12494 0.49852 0.30100
C 	C 	0.56197 0.93834 0.07393 -0.06400
H 	H 	0.53805 0.02876 0.09104 0.04000
C 	C 	0.57666 0.90626 0.36782 -0.02500
C 	C 	0.54706 0.79110 0.33838 -0.02800
H 	H 	0.56601 0.93702 0.38649 0.04200
H 	H 	0.58031 0.56686 0.50849 0.04900
H 	H 	0.54135 0.66284 0.51813 0.08600
C 	C 	0.53649 0.00131 0.98995 0.10600
C 	C 	0.57354 0.07807 0.98507 -0.04800
N 	N 	0.57144 0.96024 0.99935 -0.20600
H 	H 	0.54914 0.90248 0.99799 0.10200
H 	H 	0.59902 0.45477 0.02141 0.07700
Ni	Ni	0.59408 0.33913 0.93145 1.09900
Ni	Ni	0.60648 0.20356 0.89258 1.06500
O 	O 	0.62835 0.19401 0.93761 -0.41700
H 	H 	0.62443 0.32904 0.87613 0.15200
O 	O 	0.63459 0.30707 0.49962 -0.70300
O 	O 	0.63482 0.45796 0.48671 -0.37500
C 	C 	0.61300 0.90978 0.07329 -0.02300
C 	C 	0.57273 0.00066 0.09287 -0.02100
H 	H 	0.59614 0.10694 0.13617 0.03300
H 	H 	0.60973 0.86792 0.05610 0.04700
C 	C 	0.60533 0.82602 0.31989 0.00700
H 	H 	0.58834 0.72809 0.29198 0.03500
N 	N 	0.60715 0.04267 0.46680 -0.20000
H 	H 	0.63012 0.01544 0.45299 0.08400
H 	H 	0.63820 0.09580 0.47529 0.08000
H 	H 	0.62906 0.10306 0.98915 0.04600
H 	H 	0.62353 0.98622 0.00612 0.08700
H 	H 	0.01478 0.70110 0.86565 0.03600
O 	O 	0.63709 0.31062 0.89539 -0.70300
O 	O 	0.65337 0.50751 0.94791 -0.41600
Ni	Ni	0.64562 0.25116 0.53616 1.09800
H 	H 	0.65749 0.29557 0.48177 0.15700
C 	C 	0.62698 0.07472 0.13886 -0.03500
C 	C 	0.62239 0.02007 0.11678 0.00700
C 	C 	0.64807 0.90193 0.32494 0.00400
C 	C 	0.63399 0.94186 0.34914 0.00300
C 	C 	0.62048 0.78648 0.29597 -0.03500
H 	H 	0.66628 0.04860 0.37256 0.03300
Ni	Ni	0.68836 0.41435 0.51454 1.10000
O 	O 	0.68252 0.21008 0.57220 -0.37100
C 	C 	0.66359 0.97930 0.12029 0.00200
C 	C 	0.66074 0.92587 0.09774 0.00800
C 	C 	0.67647 0.01753 0.35391 -0.03200
O 	O 	0.70395 0.20669 0.88275 -0.41200
O 	O 	0.69588 0.38167 0.94467 -0.70600
H 	H 	0.70379 0.35154 0.96118 0.15800
O 	O 	0.71256 0.35762 0.54737 -0.69900
H 	H 	0.70239 0.37291 0.56789 0.15300
C 	C 	0.67027 0.08673 0.16488 -0.05900
H 	H 	0.67350 0.12918 0.18172 0.04000
H 	H 	0.69864 0.84297 0.08447 0.03700
C 	C 	0.67702 0.82230 0.27692 -0.05800
H 	H 	0.70099 0.01091 0.64467 0.03700
H 	H 	0.69598 0.10447 0.60871 0.04500
H 	H 	0.72020 0.00660 0.81716 0.03400
H 	H 	0.70547 0.11336 0.84003 0.02900
C 	C 	0.01317 0.91975 0.73811 -0.01100
Ni	Ni	0.73953 0.36638 0.90610 1.09900
O 	O 	0.76625 0.32512 0.86715 -0.37600
O 	O 	0.73413 0.45252 0.88148 -0.39600
Ni	Ni	0.74130 0.48684 0.95595 1.06900
C 	C 	0.74641 0.25298 0.86311 0.26500
O 	O 	0.74761 0.51696 0.53196 -0.37700
C 	C 	0.74966 0.22961 0.57507 0.27100
O 	O 	0.76224 0.43406 0.48049 -0.36600
C 	C 	0.70453 0.98899 0.14701 -0.03700
C 	C 	0.70875 0.04366 0.16922 0.04700
C 	C 	0.74167 0.94430 0.15153 0.04700
C 	C 	0.73968 0.89220 0.12876 -0.05900
C 	C 	0.70026 0.88386 0.10176 -0.03400
C 	C 	0.73170 0.05379 0.33434 -0.06000
C 	C 	0.74564 0.01473 0.30991 0.04700
C 	C 	0.70431 0.93827 0.30544 -0.03600
C 	C 	0.71877 0.89832 0.28134 0.04500
H 	H 	0.76343 0.11236 0.33814 0.04100
H 	H 	0.68782 0.79101 0.25854 0.04100
C 	C 	0.75424 0.04711 0.65031 -0.03600
C 	C 	0.74756 0.14194 0.61633 -0.01700
H 	H 	0.77013 0.96569 0.67829 0.03700
H 	H 	0.77266 0.64386 0.55673 0.04700
C 	C 	0.77229 0.04291 0.81087 -0.03800
C 	C 	0.75762 0.14925 0.83357 -0.02600
C 	C 	0.76609 0.65474 0.79271 -0.03600
H 	H 	0.71071 0.62319 0.79035 0.03500
H 	H 	0.71444 0.55270 0.83663 0.03700
H 	H 	0.02485 0.68260 0.67607 0.04200
C 	C 	0.75412 0.05697 0.19459 -0.08600
C 	C 	0.77964 0.21183 0.60288 -0.07500
H 	H 	0.77195 0.75255 0.58435 0.03600
C 	C 	0.76974 0.58531 0.83873 -0.02200
H 	H 	0.76991 0.72287 0.75370 0.04000
C 	C 	0.77163 0.52257 0.88863 0.29600
H 	H 	0.76909 0.85857 0.13183 0.04200
H 	H 	0.76190 0.10274 0.21050 0.05100
C 	C 	0.78415 0.11855 0.63799 0.00600
C 	C 	0.78503 0.22499 0.84201 -0.06100
H 	H 	0.79316 0.95374 0.79097 0.03800
O 	O 	0.79074 0.26639 0.55299 -0.41400
C 	C 	0.79353 0.02140 0.66937 -0.05300
C 	C 	0.79815 0.11933 0.81779 0.01000
O 	O 	0.78765 0.54449 0.91754 -0.39700
C 	C 	0.78367 0.95561 0.17783 -0.09000
C 	C 	0.77440 0.93504 0.26179 -0.08700
C 	C 	0.80626 0.52666 0.54639 0.26800
C 	C 	0.79980 0.71137 0.77182 -0.05500
C 	C 	0.00727 0.92200 0.70666 -0.01300
Ni	Ni	0.81012 0.37678 0.54549 1.06600
O 	O 	0.80507 0.35422 0.49953 -0.42000
C 	C 	0.79538 0.01667 0.19747 0.04600
H 	H 	0.78699 0.90409 0.24380 0.05000
C 	C 	0.81074 0.64118 0.57314 -0.02100
C 	C 	0.81377 0.01286 0.79607 -0.05100
C 	C 	0.80359 0.63999 0.81685 0.00800
C 	C 	0.80984 0.40653 0.48040 0.29700
C 	C 	0.80004 0.05129 0.28977 -0.08700
C 	C 	0.81064 0.74987 0.60038 -0.03300
C 	C 	0.80718 0.57505 0.86404 -0.06200
H 	H 	0.81741 0.84662 0.62608 0.04200
H 	H 	0.81385 0.92273 0.18105 0.05100
O 	O 	0.82935 0.47171 0.96467 -0.41800
O 	O 	0.84207 0.42870 0.91602 -0.39000
O 	O 	0.84195 0.48784 0.53789 -0.41200
C 	C 	0.81378 0.01197 0.26541 0.04300
H 	H 	0.83144 0.11022 0.29292 0.05100
H 	H 	0.82426 0.31599 0.43936 0.08800
C 	C 	0.85312 0.16568 0.64607 0.00500
C 	C 	0.84552 0.26132 0.61339 -0.01900
C 	C 	0.83521 0.69376 0.59723 0.00400
C 	C 	0.83633 0.80314 0.62409 -0.05900
C 	C 	0.83532 0.58500 0.57024 -0.07500
C 	C 	0.86595 0.16603 0.80945 -0.00000
C 	C 	0.85178 0.27201 0.83269 -0.02500
C 	C 	0.00501 0.15469 0.68607 -0.07900
C 	C 	0.86341 0.06645 0.67593 0.04000
H 	H 	0.86891 0.31648 0.60385 0.00200
H 	H 	0.87284 0.33062 0.83889 0.05000
C 	C 	0.86828 0.46068 0.94300 0.29900
C 	C 	0.86281 0.05172 0.21306 -0.01400
C 	C 	0.87168 0.75293 0.77439 0.03900
H 	H 	0.87566 0.82759 0.73751 0.04900
C 	C 	0.88144 0.05893 0.78781 0.03900
C 	C 	0.87571 0.68165 0.81958 0.00100
C 	C 	0.87175 0.05127 0.24437 -0.01400
C 	C 	0.87800 0.44907 0.46615 -0.09800
C 	C 	0.88324 0.23791 0.63425 0.00200
C 	C 	0.87852 0.61869 0.86713 -0.02400
N 	N 	0.87821 0.34155 0.43900 -0.20000
H 	H 	0.88179 0.98430 0.70272 0.04500
C 	C 	0.88503 0.58184 0.59137 -0.02400
H 	H 	0.88697 0.55438 0.48504 0.06300
C 	C 	0.88512 0.69044 0.61842 0.00500
C 	C 	0.88698 0.80099 0.64487 0.04600
C 	C 	0.89240 0.24277 0.81647 0.01200
C 	C 	0.89308 0.13916 0.66454 -0.03000
H 	H 	0.89156 0.81146 0.30961 0.04300
H 	H 	0.90259 0.97043 0.76690 0.04800
H 	H 	0.89965 0.90213 0.66868 0.05000
H 	H 	0.90331 0.53784 0.58935 0.01600
C 	C 	0.90472 0.03883 0.69264 -0.07700
C 	C 	0.90753 0.13588 0.79436 -0.02600
C 	C 	0.90554 0.81170 0.75425 -0.07900
H 	H 	0.90464 0.31303 0.42840 0.08300
H 	H 	0.90648 0.61408 0.88754 0.04500
H 	H 	0.90508 0.91000 0.27291 0.05200
C 	C 	0.91005 0.63429 0.61542 0.00100
C 	C 	0.90995 0.73677 0.79790 -0.02800
C 	C 	0.91086 0.74393 0.64227 -0.03500
C 	C 	0.91335 0.66978 0.84446 0.01000
C 	C 	0.91433 0.52428 0.47444 -0.04300
C 	C 	0.91331 0.41151 0.45059 0.10500
C 	C 	0.91592 0.85671 0.66741 -0.08800
H 	H 	0.91491 0.41298 0.99219 0.04300
H 	H 	0.92085 0.07581 0.16896 0.04100
C 	C 	0.92285 0.02931 0.77256 -0.07500
H 	H 	0.92519 0.24010 0.17826 0.05100
C 	C 	0.92915 0.07626 0.19435 -0.03300
H 	H 	0.92758 0.34022 0.14434 0.04200
H 	H 	0.93825 0.51054 0.89082 0.10500
C 	C 	0.94110 0.47653 0.95060 -0.09500
C 	C 	0.00079 0.25917 0.79241 -0.04900
H 	H 	0.94259 0.87940 0.20272 0.05100
H 	H 	0.94368 0.74634 0.34281 0.03900
C 	C 	0.94750 0.07753 0.25521 -0.03200
C 	C 	0.94658 0.82527 0.30845 -0.05700
C 	C 	0.95226 0.28407 0.64192 -0.03400
H 	H 	0.95530 0.07838 0.28063 0.03900
C 	C 	0.95646 0.45154 0.97869 -0.04700
C 	C 	0.95972 0.92190 0.27144 -0.08900
C 	C 	0.95987 0.63144 0.63654 -0.03400
C 	C 	0.95976 0.28901 0.80778 -0.03900
H 	H 	0.99911 0.41204 0.02929 0.08400
H 	H 	0.98996 0.44028 0.10847 0.03300
C 	C 	0.99487 0.80357 0.16692 -0.06100
C 	C 	0.99357 0.98897 0.18378 0.03200
C 	C 	0.98811 0.88104 0.28873 0.04400
C 	C 	0.98145 0.35314 0.13973 -0.06500
H 	H 	0.99530 0.65414 0.49706 0.08600
C 	C 	0.97737 0.91239 0.18529 -0.08300
H 	H 	0.96356 0.77075 0.18532 0.04200
C 	C 	0.97616 0.78823 0.32727 -0.03600
C 	C 	0.98699 0.55838 0.47273 0.09900
C 	C 	0.98528 0.44768 0.44633 -0.05300
C 	C 	0.96313 0.02518 0.20567 -0.01000
C 	C 	0.97485 0.15210 0.20831 -0.01600
C 	C 	0.97305 0.02643 0.23702 -0.01600
C 	C 	0.98438 0.15310 0.23963 -0.01500
C 	C 	0.97959 0.25495 0.17400 -0.09200
H 	H 	0.98865 0.29201 0.24098 0.05100
C 	C 	0.99240 0.25716 0.65976 -0.06000
C 	C 	0.96366 0.18419 0.67049 0.04100
C 	C 	0.97603 0.08137 0.69615 0.03600
H 	H 	0.97548 0.34007 0.63329 0.02700
C 	C 	0.98582 0.68497 0.66016 -0.06200
C 	C 	0.96218 0.74185 0.66295 0.04600
C 	C 	0.96875 0.85628 0.68719 0.04100
C 	C 	0.99093 0.79821 0.68536 -0.08600
H 	H 	0.97894 0.58810 0.63452 0.02900
C 	C 	0.99607 0.52278 0.93194 0.10500
N 	N 	0.98442 0.54024 0.90277 -0.20400
C 	C 	0.97512 0.18267 0.78571 0.03600
C 	C 	0.98912 0.07623 0.76302 0.03500
H 	H 	0.98049 0.34808 0.81298 0.03700
C 	C 	0.98532 0.71030 0.84673 -0.04100
C 	C 	0.98223 0.77715 0.80034 0.03500
C 	C 	0.97788 0.85168 0.75652 0.03300
