data_crystal

_cell_length_a 26.24934
_cell_length_b 26.26772
_cell_length_c 35.11228
_cell_angle_alpha 95.48664
_cell_angle_beta  95.48436
_cell_angle_gamma 125.81797

_symmetry_space_group_name_	'P 1'
_symmetry_space_group_name_H-M	'P 1'

loop_
_symmetry_equiv_pos_as_xyz
  x,y,z

loop_
_atom_site_label
_atom_site_type_symbol
_atom_site_fract_x
_atom_site_fract_y
_atom_site_fract_z
_atom_site_charge
C 	C 	0.96591 0.03967 0.98225 0.11100
N 	N 	0.92585 0.97483 0.97647 -0.13800
C 	C 	0.94960 0.94081 0.97462 0.11500
N 	N 	0.01356 0.97177 0.97816 -0.13600
C 	C 	0.05409 0.03658 0.98412 0.11800
N 	N 	0.03017 0.07065 0.98633 -0.13600
C 	C 	0.94271 0.99383 0.46474 0.11700
N 	N 	0.00694 0.02986 0.46624 -0.13600
C 	C 	0.03894 0.00459 0.47289 0.12000
N 	N 	0.00644 0.94310 0.47804 -0.13400
C 	C 	0.94234 0.90690 0.47670 0.11600
N 	N 	0.91039 0.93225 0.46998 -0.13800
Cu	Cu	0.64042 0.25349 0.00498 0.93100
Cu	Cu	0.68352 0.25175 0.92070 0.87500
Cu	Cu	0.66617 0.34808 0.95171 0.89800
Cu	Cu	0.64055 0.37118 0.02998 0.89700
C 	C 	0.66199 0.30343 0.08616 0.30600
O 	O 	0.54788 0.21560 0.00772 -0.34700
C 	C 	0.64122 0.29999 0.86668 0.30700
O 	O 	0.68970 0.35182 0.00583 -0.64100
O 	O 	0.62565 0.25522 0.94899 -0.64100
O 	O 	0.68166 0.20951 0.00195 -0.36000
O 	O 	0.74737 0.27381 0.96325 -0.43500
O 	O 	0.63317 0.32917 0.07598 -0.37600
O 	O 	0.71143 0.43936 0.95743 -0.38100
C 	C 	0.70696 0.47575 0.98346 0.29400
C 	C 	0.52070 0.24049 0.99330 0.28300
O 	O 	0.55645 0.29904 0.98669 -0.39000
O 	O 	0.67448 0.45351 0.01188 -0.38800
O 	O 	0.66812 0.26862 0.05997 -0.34600
C 	C 	0.73419 0.23445 0.98751 0.28800
O 	O 	0.65516 0.34582 0.89498 -0.37900
O 	O 	0.63886 0.25044 0.87406 -0.39700
H 	H 	0.73627 0.38086 0.01632 0.16900
H 	H 	0.58047 0.22682 0.93534 0.18400
Cu	Cu	0.73558 0.32775 0.45277 0.93000
Cu	Cu	0.73432 0.27271 0.53295 0.87400
Cu	Cu	0.63557 0.28910 0.50433 0.90000
Cu	Cu	0.61781 0.32900 0.43011 0.89700
C 	C 	0.68830 0.31594 0.37258 0.30400
O 	O 	0.77384 0.42168 0.45604 -0.35000
C 	C 	0.68090 0.30508 0.58856 0.30800
O 	O 	0.63637 0.27637 0.44981 -0.64000
O 	O 	0.72950 0.33296 0.50853 -0.64000
O 	O 	0.78065 0.28740 0.45239 -0.36100
O 	O 	0.71486 0.21464 0.48758 -0.43700
O 	O 	0.66272 0.34391 0.38486 -0.37500
O 	O 	0.54370 0.24194 0.49650 -0.37500
C 	C 	0.50863 0.24893 0.47110 0.29400
C 	C 	0.74725 0.44604 0.47187 0.28200
O 	O 	0.68791 0.40784 0.47691 -0.38400
O 	O 	0.53419 0.29065 0.44755 -0.38600
O 	O 	0.72447 0.30920 0.39720 -0.34500
C 	C 	0.75570 0.23248 0.46386 0.28900
O 	O 	0.63297 0.28625 0.56022 -0.37000
O 	O 	0.73211 0.31070 0.58118 -0.41100
H 	H 	0.60835 0.23110 0.43637 0.16800
H 	H 	0.75617 0.37670 0.52433 0.18100
C 	C 	0.59082 0.25708 0.75733 -0.07200
C 	C 	0.64013 0.31371 0.74684 0.02400
C 	C 	0.68236 0.36901 0.77572 0.05700
C 	C 	0.67845 0.36556 0.81502 -0.00600
C 	C 	0.63336 0.30713 0.82581 -0.09100
C 	C 	0.58688 0.25357 0.79665 0.11900
C 	C 	0.65174 0.31280 0.70649 0.02700
N 	N 	0.73084 0.42815 0.76537 -0.01700
H 	H 	0.71314 0.40741 0.83725 0.05900
N 	N 	0.53569 0.19567 0.80690 -0.02200
H 	H 	0.55667 0.21519 0.73500 0.07900
C 	C 	0.67984 0.28389 0.69340 0.05400
C 	C 	0.68978 0.28238 0.65500 -0.00300
C 	C 	0.67264 0.31009 0.62942 -0.09300
C 	C 	0.64562 0.34018 0.64274 0.12000
C 	C 	0.63468 0.34071 0.68108 -0.07300
N 	N 	0.69803 0.25565 0.71906 -0.01600
H 	H 	0.71042 0.25910 0.64495 0.05000
N 	N 	0.63071 0.37155 0.61778 -0.02200
H 	H 	0.61373 0.36362 0.69124 0.08100
O 	O 	0.52219 0.14109 0.79155 -0.10100
O 	O 	0.50039 0.19714 0.82992 -0.10700
O 	O 	0.73115 0.47774 0.77318 -0.10400
O 	O 	0.77762 0.43391 0.75119 -0.09400
O 	O 	0.57313 0.35579 0.61132 -0.10400
O 	O 	0.67566 0.41875 0.60365 -0.10900
O 	O 	0.67365 0.19545 0.71006 -0.10800
O 	O 	0.74208 0.29101 0.75003 -0.09900
C 	C 	0.74473 0.32738 0.27621 -0.07300
C 	C 	0.68708 0.29809 0.24994 0.02600
C 	C 	0.62933 0.26992 0.26397 0.05500
C 	C 	0.63008 0.27295 0.30407 -0.00500
C 	C 	0.68809 0.30543 0.33053 -0.08900
C 	C 	0.74581 0.33253 0.31644 0.12300
C 	C 	0.68787 0.30086 0.20808 0.02600
N 	N 	0.57002 0.23989 0.23764 -0.01600
H 	H 	0.58563 0.25192 0.31474 0.04800
N 	N 	0.80585 0.36830 0.34284 -0.02100
H 	H 	0.78918 0.34886 0.26550 0.08100
C 	C 	0.71246 0.35893 0.19509 0.05500
C 	C 	0.70685 0.35962 0.15511 -0.00400
C 	C 	0.67527 0.30265 0.12780 -0.08900
C 	C 	0.65188 0.24470 0.14083 0.12300
C 	C 	0.65971 0.24447 0.18085 -0.07200
N 	N 	0.74139 0.41698 0.22242 -0.01600
H 	H 	0.72516 0.40427 0.14528 0.05000
N 	N 	0.61695 0.18554 0.11367 -0.02100
H 	H 	0.64101 0.19980 0.19076 0.08100
O 	O 	0.84180 0.34928 0.34318 -0.09700
O 	O 	0.82713 0.42280 0.36393 -0.09300
O 	O 	0.52385 0.17984 0.23596 -0.10400
O 	O 	0.56045 0.27370 0.21764 -0.09300
O 	O 	0.63913 0.15246 0.11069 -0.09700
O 	O 	0.56044 0.16206 0.09452 -0.09300
O 	O 	0.80051 0.46512 0.22348 -0.10500
O 	O 	0.70726 0.42344 0.24406 -0.09300
C 	C 	0.78984 0.60885 0.50841 -0.05900
C 	C 	0.82919 0.64453 0.48273 0.02500
C 	C 	0.84548 0.61624 0.45545 -0.05800
C 	C 	0.82112 0.55214 0.45309 0.01300
C 	C 	0.77989 0.51560 0.47789 -0.08000
C 	C 	0.76524 0.54462 0.50601 0.01200
C 	C 	0.85320 0.71143 0.48421 0.01000
H 	H 	0.87637 0.64372 0.43576 0.05400
H 	H 	0.83269 0.53040 0.43118 0.05300
H 	H 	0.73408 0.51721 0.52561 0.04400
H 	H 	0.77765 0.63059 0.52986 0.05300
C 	C 	0.82525 0.72703 0.45613 -0.04300
C 	C 	0.85225 0.79109 0.45500 -0.01900
C 	C 	0.90768 0.83998 0.48177 -0.01800
C 	C 	0.93387 0.82415 0.51091 -0.01900
C 	C 	0.90668 0.76014 0.51213 -0.04400
H 	H 	0.78362 0.68960 0.43462 0.04800
H 	H 	0.83158 0.80268 0.43240 0.04500
H 	H 	0.97623 0.86149 0.53201 0.04200
H 	H 	0.92823 0.74845 0.53409 0.04700
C 	C 	0.83798 0.04624 0.47877 -0.04300
C 	C 	0.85270 0.08575 0.45099 0.00800
C 	C 	0.89411 0.09181 0.42619 -0.04300
C 	C 	0.92219 0.06038 0.42999 -0.02000
C 	C 	0.90863 0.02209 0.45838 -0.01900
C 	C 	0.86554 0.01429 0.48229 -0.02200
C 	C 	0.82710 0.12305 0.44917 0.02600
H 	H 	0.90519 0.12150 0.40432 0.04600
H 	H 	0.95488 0.06623 0.41109 0.04100
H 	H 	0.85489 0.98505 0.50438 0.04500
H 	H 	0.80629 0.04140 0.49819 0.04300
C 	C 	0.76097 0.09210 0.44475 -0.06400
C 	C 	0.73731 0.12788 0.44754 0.01700
C 	C 	0.77948 0.19493 0.45440 -0.09000
C 	C 	0.84529 0.22576 0.45660 0.01600
C 	C 	0.86905 0.19001 0.45425 -0.06300
H 	H 	0.72806 0.04042 0.44007 0.05000
H 	H 	0.68634 0.10353 0.44527 0.03300
H 	H 	0.87832 0.27747 0.46185 0.03700
H 	H 	0.92017 0.21444 0.45761 0.05000
C 	C 	0.21077 0.06265 0.49425 -0.04200
C 	C 	0.24078 0.11443 0.47473 0.00900
C 	C 	0.20481 0.13134 0.45553 -0.04200
C 	C 	0.13913 0.09600 0.45519 -0.01900
C 	C 	0.10884 0.04368 0.47442 -0.01700
C 	C 	0.14532 0.02776 0.49434 -0.02100
C 	C 	0.30965 0.15016 0.47382 0.02700
H 	H 	0.22766 0.17158 0.44064 0.04600
H 	H 	0.11176 0.10879 0.43956 0.04500
H 	H 	0.12298 0.98823 0.50982 0.04800
H 	H 	0.23809 0.04913 0.50909 0.04600
C 	C 	0.35456 0.17781 0.50873 -0.06000
C 	C 	0.41950 0.20956 0.50786 0.01800
C 	C 	0.44021 0.21460 0.47206 -0.08200
C 	C 	0.39541 0.18762 0.43717 0.01600
C 	C 	0.33039 0.15522 0.43803 -0.06200
H 	H 	0.33912 0.17464 0.53651 0.05300
H 	H 	0.45377 0.23089 0.53498 0.05000
H 	H 	0.41089 0.19110 0.40939 0.03200
H 	H 	0.29608 0.13358 0.41092 0.05100
C 	C 	0.81447 0.77543 0.98708 -0.04400
C 	C 	0.83226 0.73875 0.97020 0.00900
C 	C 	0.88578 0.76773 0.95212 -0.04300
C 	C 	0.92255 0.83326 0.95213 -0.02000
C 	C 	0.90650 0.87063 0.97056 -0.01800
C 	C 	0.85146 0.84110 0.98735 -0.02000
C 	C 	0.79729 0.67096 0.97350 0.02700
H 	H 	0.89973 0.73974 0.93885 0.04600
H 	H 	0.96414 0.85516 0.93840 0.04400
H 	H 	0.83838 0.86924 0.00160 0.04500
H 	H 	0.77277 0.75330 0.00073 0.04600
C 	C 	0.79435 0.65398 0.01036 -0.06300
C 	C 	0.76437 0.59018 0.01360 0.01700
C 	C 	0.73736 0.54278 0.98000 -0.08500
C 	C 	0.73974 0.55971 0.94311 0.01800
C 	C 	0.76941 0.62349 0.93988 -0.06200
H 	H 	0.81618 0.69036 0.03648 0.05000
H 	H 	0.76311 0.57776 0.04222 0.03400
H 	H 	0.71839 0.52345 0.91695 0.04400
H 	H 	0.77111 0.63611 0.91130 0.05400
C 	C 	0.87359 0.22655 0.99030 -0.06400
C 	C 	0.84576 0.16447 0.99717 0.02600
C 	C 	0.78363 0.12823 0.00529 -0.06200
C 	C 	0.74823 0.15240 0.00425 0.01600
C 	C 	0.77464 0.21306 0.99500 -0.08900
C 	C 	0.83830 0.25084 0.98932 0.01400
C 	C 	0.87902 0.13514 0.99210 0.00500
H 	H 	0.76206 0.08053 0.01116 0.05200
H 	H 	0.69950 0.12295 0.00914 0.04600
H 	H 	0.85988 0.29833 0.98309 0.03400
H 	H 	0.92176 0.25515 0.98440 0.04900
C 	C 	0.85335 0.08292 0.96184 -0.04200
C 	C 	0.88332 0.05349 0.95768 -0.02200
C 	C 	0.93934 0.07595 0.98374 -0.01500
C 	C 	0.96631 0.12962 0.01323 -0.02900
C 	C 	0.93619 0.15908 0.01741 -0.03900
H 	H 	0.80985 0.06481 0.94175 0.04400
H 	H 	0.86252 0.01264 0.93451 0.04400
H 	H 	0.00944 0.14733 0.03357 0.05100
H 	H 	0.95665 0.19972 0.04068 0.04400
C 	C 	0.36061 0.15906 0.02411 -0.05900
C 	C 	0.32317 0.15655 0.99154 0.02600
C 	C 	0.35043 0.17967 0.95892 -0.06000
C 	C 	0.41467 0.20576 0.95911 0.01400
C 	C 	0.45188 0.20794 0.99162 -0.08100
C 	C 	0.42443 0.18402 0.02398 0.01600
C 	C 	0.25472 0.12709 0.99097 0.01000
H 	H 	0.32182 0.17720 0.93341 0.05200
H 	H 	0.43550 0.22428 0.93403 0.03800
H 	H 	0.45302 0.18633 0.04945 0.05100
H 	H 	0.34028 0.14180 0.04956 0.05400
C 	C 	0.21429 0.06540 0.99908 -0.04200
C 	C 	0.14960 0.03711 0.99832 -0.02100
C 	C 	0.12392 0.06949 0.98847 -0.01600
C 	C 	0.16460 0.13167 0.98079 -0.02000
C 	C 	0.22976 0.16044 0.98226 -0.04200
H 	H 	0.23294 0.03915 0.00573 0.04800
H 	H 	0.11928 0.98966 0.00503 0.04900
H 	H 	0.14573 0.15734 0.97310 0.04600
H 	H 	0.26071 0.20842 0.97642 0.04600
