data_crystal

_cell_length_a 26.23496
_cell_length_b 26.45000
_cell_length_c 39.36808
_cell_angle_alpha 95.51165
_cell_angle_beta  95.50870
_cell_angle_gamma 125.67668

_symmetry_space_group_name_	'P 1'
_symmetry_space_group_name_H-M	'P 1'

loop_
_symmetry_equiv_pos_as_xyz
  x,y,z

loop_
_atom_site_label
_atom_site_type_symbol
_atom_site_fract_x
_atom_site_fract_y
_atom_site_fract_z
_atom_site_charge
C 	C 	0.98627 0.03138 0.99453 0.03800
C 	C 	0.05016 0.06637 0.99019 -0.08500
C 	C 	0.08025 0.03676 0.98724 0.03400
H 	H 	0.07609 0.11615 0.98877 0.04900
C 	C 	0.97666 0.03127 0.46127 -0.06300
C 	C 	0.00963 0.00477 0.46531 0.01800
H 	H 	0.00215 0.08027 0.45819 0.04400
Cu	Cu	0.65601 0.24186 0.00409 0.92700
Cu	Cu	0.70793 0.24580 0.93098 0.86900
Cu	Cu	0.70123 0.34792 0.96243 0.89700
Cu	Cu	0.66380 0.36265 0.03006 0.89400
C 	C 	0.67418 0.28604 0.07693 0.28800
O 	O 	0.56360 0.20891 0.00225 -0.36300
C 	C 	0.68153 0.30919 0.88612 0.28900
O 	O 	0.71264 0.34127 0.01008 -0.64000
O 	O 	0.65171 0.25366 0.95527 -0.64200
O 	O 	0.69193 0.19310 0.00074 -0.37500
O 	O 	0.76553 0.25921 0.97001 -0.44300
O 	O 	0.64750 0.31387 0.06845 -0.38600
O 	O 	0.75355 0.43935 0.97274 -0.38600
C 	C 	0.74647 0.47368 0.99572 0.29100
C 	C 	0.54269 0.23974 0.99028 0.28100
O 	O 	0.58382 0.29923 0.98771 -0.39600
O 	O 	0.70584 0.44804 0.01725 -0.39700
O 	O 	0.67385 0.24678 0.05325 -0.36200
C 	C 	0.74643 0.21699 0.99015 0.28700
O 	O 	0.70459 0.35551 0.91308 -0.38900
O 	O 	0.67173 0.25536 0.88995 -0.42200
H 	H 	0.75779 0.36599 0.02195 0.16400
H 	H 	0.60807 0.23073 0.94151 0.17100
Cu	Cu	0.70853 0.33151 0.45709 0.92700
Cu	Cu	0.70745 0.27920 0.52976 0.87000
Cu	Cu	0.60722 0.29292 0.50219 0.89700
Cu	Cu	0.59199 0.33441 0.43615 0.89300
C 	C 	0.66415 0.32207 0.38521 0.28900
O 	O 	0.74817 0.42500 0.45980 -0.36400
C 	C 	0.65231 0.31238 0.57755 0.28900
O 	O 	0.60950 0.28147 0.45377 -0.64100
O 	O 	0.70140 0.33720 0.50672 -0.64100
O 	O 	0.75247 0.29011 0.45733 -0.37300
O 	O 	0.68749 0.22014 0.48989 -0.44300
O 	O 	0.63713 0.34864 0.39590 -0.38800
O 	O 	0.51528 0.24571 0.49423 -0.38300
C 	C 	0.48142 0.25336 0.47110 0.28900
C 	C 	0.72171 0.44999 0.47315 0.28200
O 	O 	0.66245 0.41271 0.47772 -0.39400
O 	O 	0.50903 0.29814 0.45219 -0.39700
O 	O 	0.69812 0.31321 0.40750 -0.36300
C 	C 	0.72769 0.23638 0.46845 0.28700
O 	O 	0.60346 0.28898 0.55186 -0.39000
O 	O 	0.70401 0.31795 0.57207 -0.42100
H 	H 	0.58156 0.23676 0.44147 0.16300
H 	H 	0.72729 0.38078 0.52050 0.17100
C 	C 	0.67572 0.32143 0.85071 -0.09400
C 	C 	0.72216 0.38068 0.84288 0.01800
C 	C 	0.72213 0.38950 0.80842 -0.07800
C 	C 	0.67509 0.33961 0.78154 0.04500
C 	C 	0.62692 0.28122 0.78951 -0.07800
C 	C 	0.62726 0.27218 0.82393 0.01800
C 	C 	0.68136 0.34604 0.74504 -0.05400
C 	C 	0.63279 0.33365 0.72164 -0.05400
C 	C 	0.63605 0.33213 0.68422 0.04500
C 	C 	0.58324 0.28257 0.65941 -0.07700
C 	C 	0.58751 0.27767 0.62426 0.01800
C 	C 	0.64469 0.32241 0.61361 -0.09400
C 	C 	0.69632 0.37399 0.63816 0.01800
C 	C 	0.69176 0.37933 0.67324 -0.07700
H 	H 	0.75982 0.41909 0.86329 0.03100
H 	H 	0.75962 0.43463 0.80252 0.04600
H 	H 	0.59066 0.24217 0.76892 0.04600
H 	H 	0.59078 0.22645 0.82968 0.02600
H 	H 	0.72599 0.36054 0.73722 0.04000
H 	H 	0.58821 0.31893 0.72966 0.04100
H 	H 	0.53953 0.24675 0.66748 0.04500
H 	H 	0.54717 0.23788 0.60552 0.03100
H 	H 	0.74020 0.40953 0.63012 0.02500
H 	H 	0.73172 0.41965 0.69189 0.04600
C 	C 	0.68974 0.28666 0.11404 -0.09000
C 	C 	0.67190 0.23063 0.12547 0.02200
C 	C 	0.67780 0.22945 0.16108 -0.07600
C 	C 	0.70116 0.28403 0.18540 0.04700
C 	C 	0.72274 0.34092 0.17403 -0.07700
C 	C 	0.71696 0.34219 0.13854 0.01800
C 	C 	0.69925 0.28082 0.22253 -0.05400
C 	C 	0.66370 0.29325 0.23851 -0.05300
C 	C 	0.67059 0.30319 0.27675 0.04500
C 	C 	0.67820 0.35644 0.29439 -0.07700
C 	C 	0.67793 0.36341 0.32995 0.01900
C 	C 	0.66945 0.31683 0.34830 -0.08800
C 	C 	0.66343 0.26419 0.33090 0.01700
C 	C 	0.66358 0.25715 0.29517 -0.07500
H 	H 	0.65121 0.18751 0.10686 0.03700
H 	H 	0.66196 0.18557 0.16967 0.04800
H 	H 	0.74229 0.38370 0.19268 0.04700
H 	H 	0.73209 0.38598 0.13005 0.01900
H 	H 	0.72814 0.27000 0.23696 0.04300
H 	H 	0.63456 0.30335 0.22358 0.04300
H 	H 	0.68357 0.39214 0.28041 0.04600
H 	H 	0.68377 0.40481 0.34320 0.03200
H 	H 	0.65687 0.22794 0.34478 0.03000
H 	H 	0.65660 0.21526 0.28172 0.04700
C 	C 	0.80904 0.72637 0.44702 -0.03900
C 	C 	0.82584 0.71182 0.47754 -0.00100
C 	C 	0.86622 0.76028 0.50650 -0.03900
C 	C 	0.80334 0.64632 0.47864 0.02500
H 	H 	0.87916 0.74947 0.53023 0.03700
H 	H 	0.77734 0.68915 0.42465 0.03700
C 	C 	0.76105 0.61173 0.50060 -0.06700
C 	C 	0.73671 0.54839 0.50004 0.01000
C 	C 	0.75436 0.51900 0.47743 -0.09000
C 	C 	0.79876 0.55456 0.45650 0.01200
C 	C 	0.82301 0.61785 0.45708 -0.06700
H 	H 	0.74609 0.63352 0.51759 0.04400
H 	H 	0.70325 0.52185 0.51670 0.02900
H 	H 	0.81291 0.53267 0.43895 0.03700
H 	H 	0.85631 0.64448 0.44036 0.04500
C 	C 	0.84760 0.08032 0.42667 -0.03800
C 	C 	0.82181 0.08801 0.45461 -0.00200
C 	C 	0.82247 0.06219 0.48404 -0.03900
C 	C 	0.84985 0.03008 0.48583 -0.04000
C 	C 	0.87684 0.02350 0.45820 0.00000
C 	C 	0.87495 0.04813 0.42844 -0.04000
C 	C 	0.79564 0.12454 0.45352 0.02600
H 	H 	0.80276 0.06796 0.50577 0.03500
H 	H 	0.89539 0.04305 0.40691 0.03800
H 	H 	0.84692 0.09967 0.40374 0.03800
C 	C 	0.83592 0.18955 0.45275 -0.06900
C 	C 	0.81284 0.22567 0.45568 0.01200
C 	C 	0.74931 0.19707 0.45959 -0.09700
C 	C 	0.70826 0.13140 0.45856 0.01300
C 	C 	0.73134 0.09536 0.45557 -0.07000
H 	H 	0.88558 0.21246 0.45098 0.04500
H 	H 	0.84500 0.27620 0.45632 0.03100
H 	H 	0.65885 0.10853 0.46090 0.02700
H 	H 	0.69963 0.04503 0.45564 0.04400
C 	C 	0.16765 0.05956 0.44065 -0.03900
C 	C 	0.21071 0.11305 0.46676 -0.00200
C 	C 	0.18756 0.13193 0.49186 -0.03900
C 	C 	0.12184 0.09711 0.49111 -0.04000
C 	C 	0.07877 0.04322 0.46519 0.00100
C 	C 	0.10194 0.02484 0.43983 -0.04000
C 	C 	0.28001 0.14902 0.46795 0.02600
H 	H 	0.22050 0.17317 0.51212 0.03700
H 	H 	0.10442 0.11152 0.51087 0.03700
H 	H 	0.18511 0.04490 0.42104 0.03700
C 	C 	0.31082 0.12121 0.47532 -0.06800
C 	C 	0.37657 0.15528 0.47640 0.01400
C 	C 	0.41208 0.21747 0.47004 -0.08900
C 	C 	0.38110 0.24523 0.46267 0.01400
C 	C 	0.31539 0.21114 0.46167 -0.06800
H 	H 	0.28383 0.07325 0.48026 0.04400
H 	H 	0.39977 0.13317 0.48190 0.02900
H 	H 	0.40796 0.29336 0.45803 0.03200
H 	H 	0.29194 0.23295 0.45594 0.04400
C 	C 	0.87577 0.64170 0.98753 -0.06800
C 	C 	0.84736 0.67173 0.99525 0.02500
C 	C 	0.78595 0.63676 0.00323 -0.06700
C 	C 	0.75307 0.57215 0.00346 0.01600
C 	C 	0.78134 0.54189 0.99565 -0.09100
C 	C 	0.84287 0.57701 0.98767 0.01500
C 	C 	0.88176 0.73971 0.99487 -0.00000
H 	H 	0.76372 0.65967 0.00924 0.04500
H 	H 	0.70541 0.54550 0.00937 0.03000
H 	H 	0.86538 0.55433 0.98183 0.03000
H 	H 	0.92322 0.66845 0.98132 0.04500
H 	H 	0.81858 0.72521 0.94927 0.03800
C 	C 	0.88427 0.20669 0.00208 -0.06700
C 	C 	0.85263 0.14247 0.00375 0.02400
C 	C 	0.78712 0.10446 0.00474 -0.06800
C 	C 	0.75286 0.12965 0.00220 0.01400
C 	C 	0.78385 0.19307 0.99855 -0.09700
C 	C 	0.85011 0.23193 0.99958 0.01200
C 	C 	0.88684 0.11392 0.00158 0.00200
H 	H 	0.76245 0.05499 0.00649 0.04500
H 	H 	0.70188 0.09923 0.00170 0.03100
H 	H 	0.87485 0.28127 0.99751 0.02700
H 	H 	0.93494 0.23654 0.00160 0.04400
C 	C 	0.86848 0.06720 0.97288 -0.04300
C 	C 	0.90174 0.04115 0.97028 -0.03500
C 	C 	0.95368 0.06159 0.99635 -0.00900
C 	C 	0.97245 0.10870 0.02493 -0.03000
C 	C 	0.93913 0.13478 0.02754 -0.04300
H 	H 	0.82865 0.05134 0.95251 0.03600
H 	H 	0.01232 0.12456 0.04526 0.03300
H 	H 	0.95376 0.17096 0.04975 0.03900
C 	C 	0.38760 0.22142 0.97776 -0.06700
C 	C 	0.34331 0.15706 0.97871 0.02500
C 	C 	0.36383 0.11874 0.98086 -0.06700
C 	C 	0.42860 0.14512 0.98332 0.01300
C 	C 	0.47350 0.21021 0.98379 -0.09000
C 	C 	0.45231 0.24789 0.98018 0.01000
C 	C 	0.27611 0.13054 0.97935 -0.00100
H 	H 	0.32980 0.06884 0.98137 0.04400
H 	H 	0.44388 0.11515 0.98543 0.03300
H 	H 	0.48610 0.29800 0.98013 0.02900
H 	H 	0.37202 0.25119 0.97574 0.04400
C 	C 	0.26011 0.15009 0.00826 -0.03900
C 	C 	0.19606 0.12154 0.01010 -0.03600
C 	C 	0.14752 0.07327 0.98304 -0.00700
C 	C 	0.16365 0.05555 0.95351 -0.03700
C 	C 	0.22770 0.08396 0.95172 -0.04000
H 	H 	0.29725 0.18624 0.02965 0.03800
H 	H 	0.18409 0.13550 0.03301 0.03600
H 	H 	0.12648 0.01862 0.93238 0.03600
H 	H 	0.23966 0.06908 0.92914 0.03700
C 	C 	0.98272 0.93730 0.99321 0.03900
H 	H 	0.06961 0.94935 0.98648 0.05000
H 	H 	0.90355 0.93997 0.99980 0.05100
C 	C 	0.97676 0.94161 0.46960 -0.06400
C 	C 	0.91102 0.90475 0.46969 0.02500
C 	C 	0.87801 0.93127 0.46552 -0.07100
H 	H 	0.00225 0.92112 0.47279 0.04400
H 	H 	0.82715 0.90281 0.46554 0.04700
C 	C 	0.89159 0.82312 0.50450 -0.03900
C 	C 	0.87676 0.83797 0.47352 -0.00100
C 	C 	0.83438 0.78920 0.44503 -0.03900
H 	H 	0.92411 0.86045 0.52667 0.03800
H 	H 	0.82265 0.80018 0.42102 0.03800
C 	C 	0.93581 0.78469 0.02042 -0.04100
C 	C 	0.96831 0.84927 0.02016 -0.03000
C 	C 	0.94712 0.86931 0.99424 -0.00800
C 	C 	0.89289 0.82427 0.96875 -0.03600
C 	C 	0.86028 0.75971 0.96910 -0.04100
H 	H 	0.95247 0.76960 0.04052 0.03900
H 	H 	0.00998 0.88374 0.04001 0.03300
H 	H 	0.87641 0.83931 0.94853 0.03600
H 	H 	0.85132 0.01150 0.50897 0.03700
H 	H 	0.88702 0.00489 0.94809 0.03500
C 	C 	0.91086 0.99470 0.46142 0.02300
C 	C 	0.95279 0.96695 0.99622 -0.08200
C 	C 	0.04641 0.97227 0.98876 -0.08400
H 	H 	0.06903 0.98350 0.41962 0.03600
