data_crystal

_cell_length_a 30.21115
_cell_length_b 30.47119
_cell_length_c 26.43857
_cell_angle_alpha 95.49128
_cell_angle_beta  95.48615
_cell_angle_gamma 125.61989

_symmetry_space_group_name_	'P 1'
_symmetry_space_group_name_H-M	'P 1'

loop_
_symmetry_equiv_pos_as_xyz
  x,y,z

loop_
_atom_site_label
_atom_site_type_symbol
_atom_site_fract_x
_atom_site_fract_y
_atom_site_fract_z
_atom_site_charge
C 	C 	0.95642 0.00813 0.45064 0.03000
H 	H 	0.89428 0.00732 0.51874 0.03400
H 	H 	0.09855 0.00858 0.38522 0.03400
C 	C 	0.04271 0.01811 0.45445 0.03100
H 	H 	0.88080 0.01204 0.89655 0.03500
H 	H 	0.10835 0.00749 0.01111 0.03500
C 	C 	0.95891 0.01604 0.96089 0.03100
C 	C 	0.03509 0.01168 0.94832 0.03100
C 	C 	0.89736 0.03012 0.48854 -0.03200
C 	C 	0.92647 0.03297 0.44914 -0.00700
C 	C 	0.12660 0.03253 0.98216 -0.03100
C 	C 	0.01385 0.04109 0.45193 -0.07700
C 	C 	0.89621 0.04077 0.93264 -0.03200
C 	C 	0.12562 0.04156 0.41810 -0.03100
C 	C 	0.09440 0.03959 0.94692 -0.00800
C 	C 	0.01477 0.04250 0.95713 -0.07700
C 	C 	0.93748 0.04837 0.96998 -0.00700
H 	H 	0.20616 0.05014 0.00623 0.04000
C 	C 	0.92347 0.95868 0.95609 -0.07600
C 	C 	0.94364 0.92780 0.94718 0.03200
C 	C 	0.99925 0.95427 0.94278 -0.07500
H 	H 	0.88046 0.93821 0.95964 0.05000
H 	H 	0.01484 0.93035 0.93596 0.05000
H 	H 	0.04238 0.08689 0.96143 0.04900
C 	C 	0.92803 0.95201 0.45247 -0.07500
C 	C 	0.95700 0.92901 0.45546 0.03200
C 	C 	0.01419 0.96208 0.45581 -0.07600
H 	H 	0.88378 0.92652 0.45198 0.04900
H 	H 	0.03656 0.94433 0.45763 0.05000
H 	H 	0.03605 0.08458 0.45137 0.04900
Cu	Cu	0.63914 0.25025 0.00407 0.92700
Cu	Cu	0.67688 0.24569 0.89252 0.86600
Cu	Cu	0.66234 0.33071 0.93130 0.89600
Cu	Cu	0.64096 0.35370 0.03487 0.89400
C 	C 	0.66496 0.30093 0.11030 0.28800
O 	O 	0.55940 0.21921 0.00743 -0.36600
C 	C 	0.64920 0.29347 0.82039 0.28300
O 	O 	0.68279 0.33496 0.00347 -0.64000
O 	O 	0.62686 0.25075 0.92919 -0.63900
O 	O 	0.67140 0.20889 0.00152 -0.37500
O 	O 	0.72990 0.26138 0.94979 -0.44400
O 	O 	0.63681 0.31998 0.09693 -0.38200
O 	O 	0.70242 0.40936 0.93672 -0.38500
C 	C 	0.70427 0.44252 0.97441 0.29200
C 	C 	0.53599 0.24058 0.98754 0.28400
O 	O 	0.56708 0.29088 0.97855 -0.39300
O 	O 	0.67076 0.42323 0.00822 -0.39400
O 	O 	0.66274 0.26387 0.07751 -0.36000
C 	C 	0.71587 0.22658 0.98145 0.29200
O 	O 	0.64665 0.32504 0.85611 -0.37600
O 	O 	0.64250 0.24841 0.82958 -0.42000
H 	H 	0.72318 0.35958 0.01721 0.16300
H 	H 	0.58776 0.22640 0.91095 0.17300
Cu	Cu	0.73895 0.34230 0.43651 0.92700
Cu	Cu	0.72260 0.28511 0.53862 0.86700
Cu	Cu	0.64851 0.31218 0.49972 0.89600
Cu	Cu	0.64196 0.35058 0.40186 0.89400
C 	C 	0.70402 0.33638 0.32970 0.28800
O 	O 	0.77585 0.42432 0.44421 -0.36300
C 	C 	0.67371 0.31220 0.61074 0.28600
O 	O 	0.65268 0.30145 0.42812 -0.64000
O 	O 	0.72885 0.34391 0.50936 -0.64100
O 	O 	0.77422 0.30357 0.43701 -0.37300
O 	O 	0.70895 0.23890 0.47674 -0.44300
O 	O 	0.68512 0.36401 0.34519 -0.38500
O 	O 	0.56938 0.27600 0.48658 -0.38600
C 	C 	0.54180 0.28219 0.44957 0.29300
C 	C 	0.75316 0.44612 0.46468 0.28300
O 	O 	0.70039 0.41445 0.46751 -0.39600
O 	O 	0.56752 0.31901 0.41980 -0.39600
O 	O 	0.73425 0.32980 0.36303 -0.36000
C 	C 	0.74841 0.25481 0.44981 0.29000
O 	O 	0.64489 0.31723 0.57385 -0.37800
O 	O 	0.71713 0.31391 0.60311 -0.42100
H 	H 	0.62738 0.26283 0.40951 0.16500
H 	H 	0.75330 0.38030 0.53256 0.17400
C 	C 	0.65068 0.30395 0.76713 -0.07900
C 	C 	0.60733 0.26349 0.72691 -0.02300
C 	C 	0.61272 0.26768 0.67521 0.03500
C 	C 	0.66212 0.31271 0.66352 -0.07900
C 	C 	0.70368 0.35510 0.70369 -0.02300
C 	C 	0.69824 0.35102 0.75534 0.03400
S 	S 	0.55839 0.21512 0.62562 -0.06800
S 	S 	0.75243 0.40387 0.80484 -0.07100
H 	H 	0.74378 0.44274 0.81678 0.04400
H 	H 	0.52394 0.22873 0.61005 0.04500
H 	H 	0.57018 0.22782 0.73584 0.04200
H 	H 	0.74120 0.39037 0.69477 0.04100
C 	C 	0.68590 0.30962 0.16568 -0.07600
C 	C 	0.66282 0.26451 0.19097 -0.02100
C 	C 	0.67197 0.27277 0.24513 0.03400
C 	C 	0.70452 0.32661 0.27428 -0.07500
C 	C 	0.73186 0.37152 0.24900 -0.02200
C 	C 	0.72293 0.36331 0.19494 0.03800
S 	S 	0.64073 0.21547 0.27591 -0.06200
S 	S 	0.75824 0.42051 0.16429 -0.07800
H 	H 	0.80707 0.43043 0.15565 0.03500
H 	H 	0.67692 0.20288 0.28707 0.04200
H 	H 	0.63547 0.22307 0.16858 0.04900
H 	H 	0.75855 0.41298 0.27141 0.04700
C 	C 	0.78463 0.50643 0.47802 -0.09300
C 	C 	0.76773 0.52951 0.51259 0.01600
C 	C 	0.79145 0.58556 0.51904 -0.07700
C 	C 	0.83215 0.61909 0.49095 0.04600
C 	C 	0.85179 0.59685 0.45904 -0.07600
C 	C 	0.82791 0.54073 0.45237 0.01700
C 	C 	0.85458 0.67767 0.49579 -0.05700
C 	C 	0.86095 0.70096 0.45368 -0.04600
C 	C 	0.88144 0.75903 0.45786 0.02700
C 	C 	0.92503 0.80006 0.49787 -0.05200
C 	C 	0.94732 0.85525 0.49871 -0.03100
C 	C 	0.92774 0.87033 0.45866 -0.00800
C 	C 	0.88366 0.82938 0.41917 -0.03100
C 	C 	0.86061 0.77403 0.41882 -0.05300
H 	H 	0.73535 0.50382 0.53361 0.03000
H 	H 	0.77718 0.60263 0.54491 0.04700
H 	H 	0.88499 0.62285 0.43893 0.04800
H 	H 	0.84190 0.52371 0.42608 0.03500
H 	H 	0.86173 0.70060 0.53357 0.04200
H 	H 	0.84828 0.67619 0.41543 0.04000
H 	H 	0.94279 0.78944 0.52740 0.04100
H 	H 	0.98111 0.88649 0.52956 0.03600
H 	H 	0.86837 0.84052 0.38794 0.03600
H 	H 	0.82729 0.74285 0.38761 0.04000
C 	C 	0.87378 0.05827 0.49008 -0.05300
C 	C 	0.87904 0.08959 0.45232 0.02600
C 	C 	0.90756 0.09186 0.41243 -0.05100
C 	C 	0.93051 0.06310 0.41051 -0.03200
C 	C 	0.85951 0.12421 0.45803 -0.04500
C 	C 	0.83249 0.12810 0.41725 -0.05800
C 	C 	0.80959 0.15947 0.42447 0.04800
C 	C 	0.82119 0.19907 0.39414 -0.07900
C 	C 	0.80074 0.22983 0.40183 0.02100
C 	C 	0.76807 0.22082 0.43968 -0.10200
C 	C 	0.75501 0.17978 0.46876 0.01700
C 	C 	0.77539 0.14914 0.46100 -0.08000
H 	H 	0.85229 0.05659 0.52124 0.03800
H 	H 	0.91336 0.11710 0.38384 0.04000
H 	H 	0.95270 0.06541 0.37979 0.03600
H 	H 	0.86432 0.14413 0.49667 0.03800
H 	H 	0.82767 0.10862 0.37844 0.04300
H 	H 	0.84666 0.20658 0.36513 0.04800
H 	H 	0.81034 0.26057 0.37842 0.03700
H 	H 	0.72961 0.17201 0.49786 0.01400
H 	H 	0.76477 0.11750 0.48354 0.04500
C 	C 	0.10318 0.05294 0.45685 -0.00800
C 	C 	0.13864 0.09561 0.49936 -0.03100
C 	C 	0.19610 0.12616 0.50345 -0.05300
C 	C 	0.21860 0.11463 0.46489 0.02700
C 	C 	0.18304 0.07193 0.42227 -0.05200
C 	C 	0.27934 0.14501 0.47110 -0.04600
C 	C 	0.30549 0.16423 0.43140 -0.05800
C 	C 	0.36627 0.19517 0.43782 0.04800
C 	C 	0.39292 0.17447 0.46039 -0.07800
C 	C 	0.45019 0.20304 0.46461 0.01900
C 	C 	0.48137 0.25238 0.44586 -0.09200
C 	C 	0.45449 0.27278 0.42297 0.01900
C 	C 	0.39723 0.24411 0.41873 -0.07800
H 	H 	0.12168 0.10441 0.52967 0.03600
H 	H 	0.22315 0.15861 0.53672 0.04000
H 	H 	0.19987 0.06164 0.39291 0.04100
H 	H 	0.30320 0.15412 0.50913 0.04000
H 	H 	0.28233 0.15986 0.39477 0.04200
H 	H 	0.36918 0.13589 0.47400 0.04700
H 	H 	0.47014 0.18642 0.48177 0.02900
H 	H 	0.47792 0.31092 0.40862 0.03200
H 	H 	0.37694 0.26009 0.40079 0.04700
C 	C 	0.73772 0.50190 0.97369 -0.09200
C 	C 	0.75920 0.53994 0.02015 0.01800
C 	C 	0.78950 0.59614 0.01953 -0.07800
C 	C 	0.79829 0.61489 0.97251 0.04800
C 	C 	0.77804 0.57702 0.92610 -0.07700
C 	C 	0.74756 0.52077 0.92665 0.02000
C 	C 	0.83097 0.67448 0.97251 -0.05600
C 	C 	0.81286 0.69449 0.94006 -0.04600
C 	C 	0.84472 0.75425 0.94168 0.02700
C 	C 	0.85925 0.77535 0.89629 -0.05300
C 	C 	0.89072 0.83204 0.89785 -0.03100
C 	C 	0.90719 0.86794 0.94472 -0.00800
C 	C 	0.89107 0.84672 0.98979 -0.03000
C 	C 	0.85980 0.79009 0.98828 -0.05200
H 	H 	0.75259 0.52599 0.05676 0.02500
H 	H 	0.80582 0.62511 0.05561 0.04600
H 	H 	0.78607 0.59115 0.88968 0.04700
H 	H 	0.73107 0.49192 0.89051 0.03400
H 	H 	0.86849 0.70254 0.00150 0.04200
H 	H 	0.77540 0.66665 0.91098 0.04000
H 	H 	0.84702 0.74793 0.86001 0.04000
H 	H 	0.90276 0.84810 0.86281 0.03600
H 	H 	0.90341 0.87417 0.02609 0.03500
H 	H 	0.84750 0.77408 0.02329 0.04000
C 	C 	0.95767 0.08625 0.01629 -0.03200
C 	C 	0.93641 0.11599 0.02534 -0.05300
C 	C 	0.89439 0.10765 0.98845 0.02700
C 	C 	0.87495 0.07047 0.94166 -0.05200
C 	C 	0.87306 0.14020 0.99777 -0.04500
C 	C 	0.81832 0.11612 0.98833 -0.05800
C 	C 	0.79678 0.14896 0.99312 0.04700
C 	C 	0.82056 0.19703 0.97213 -0.08000
C 	C 	0.79573 0.22393 0.97081 0.01600
C 	C 	0.74610 0.20245 0.98938 -0.10100
C 	C 	0.72343 0.15546 0.01201 0.01900
C 	C 	0.74852 0.12876 0.01359 -0.08000
H 	H 	0.98957 0.09242 0.04533 0.03600
H 	H 	0.95227 0.14517 0.06118 0.04000
H 	H 	0.84379 0.06497 0.91216 0.03900
H 	H 	0.90224 0.18387 0.01382 0.03900
H 	H 	0.78900 0.07162 0.97765 0.04200
H 	H 	0.85723 0.21254 0.95529 0.04500
H 	H 	0.81432 0.26062 0.95404 0.02400
H 	H 	0.68554 0.13863 0.02702 0.03500
H 	H 	0.72976 0.09167 0.02976 0.04700
C 	C 	0.47553 0.21114 0.98215 -0.09300
C 	C 	0.44613 0.17342 0.01429 0.01800
C 	C 	0.39011 0.14987 0.01313 -0.07800
C 	C 	0.36263 0.16309 0.97940 0.04700
C 	C 	0.39154 0.19974 0.94630 -0.07600
C 	C 	0.44768 0.22349 0.94752 0.01600
C 	C 	0.30497 0.14193 0.98206 -0.05700
C 	C 	0.26520 0.11575 0.93937 -0.04600
C 	C 	0.20661 0.09033 0.94280 0.02700
C 	C 	0.17433 0.09711 0.90737 -0.05300
C 	C 	0.11849 0.07200 0.90951 -0.03100
C 	C 	0.18221 0.05722 0.97976 -0.05200
H 	H 	0.46704 0.16363 0.04133 0.03600
H 	H 	0.36819 0.12183 0.03897 0.04700
H 	H 	0.37091 0.21081 0.92055 0.04700
H 	H 	0.46969 0.25211 0.92217 0.03000
H 	H 	0.29425 0.14455 0.01977 0.04200
H 	H 	0.27602 0.11389 0.90156 0.04000
H 	H 	0.19252 0.12189 0.87825 0.04000
H 	H 	0.09385 0.07728 0.88183 0.03500
