data_crystal

_cell_length_a 18.40301
_cell_length_b 15.50016
_cell_length_c 41.72215
_cell_angle_alpha 90.88717
_cell_angle_beta  91.27468
_cell_angle_gamma 111.09575

_symmetry_space_group_name_	'P 1'
_symmetry_space_group_name_H-M	'P 1'

loop_
_symmetry_equiv_pos_as_xyz
  x,y,z

loop_
_atom_site_label
_atom_site_type_symbol
_atom_site_fract_x
_atom_site_fract_y
_atom_site_fract_z
_atom_site_charge
Ni	Ni	0.71497 0.34067 0.88662 1.09800
O 	O 	0.62631 0.26897 0.85487 -0.70700
Ni	Ni	0.53412 0.27465 0.87740 1.10000
O 	O 	0.79581 0.32088 0.85734 -0.36700
O 	O 	0.73090 0.16373 0.85361 -0.40400
O 	O 	0.72208 0.45209 0.85960 -0.38700
Ni	Ni	0.61114 0.13918 0.84840 1.06300
O 	O 	0.72721 0.44477 0.95678 -0.42500
O 	O 	0.60193 0.11124 0.89621 -0.41500
O 	O 	0.45495 0.21217 0.84192 -0.38600
O 	O 	0.62061 0.33084 0.91166 -0.70100
O 	O 	0.80441 0.42246 0.91687 -0.37900
O 	O 	0.45201 0.31187 0.90066 -0.37300
O 	O 	0.53874 0.45838 0.90659 -0.42200
Ni	Ni	0.63543 0.45181 0.93097 1.07100
H 	H 	0.63076 0.29937 0.83393 0.15800
H 	H 	0.61612 0.28724 0.92919 0.15100
C 	C 	0.54035 0.10869 0.91201 0.28800
O 	O 	0.70928 0.54285 0.90091 -0.40800
C 	C 	0.78743 0.23953 0.84451 0.27200
C 	C 	0.44255 0.12615 0.83247 0.28500
C 	C 	0.71165 0.52693 0.87008 0.29700
C 	C 	0.47028 0.39642 0.91229 0.28400
C 	C 	0.79624 0.46202 0.94436 0.29900
O 	O 	0.49536 0.15211 0.90140 -0.37700
O 	O 	0.49089 0.08331 0.84140 -0.40200
Ni	Ni	0.60340 0.31266 0.56991 1.10100
O 	O 	0.68757 0.34148 0.53623 -0.69800
Ni	Ni	0.75882 0.28162 0.55419 1.09900
O 	O 	0.56270 0.41447 0.55657 -0.37700
O 	O 	0.68639 0.51644 0.55925 -0.41400
O 	O 	0.52468 0.22223 0.53736 -0.37200
Ni	Ni	0.74784 0.46982 0.52680 1.07400
O 	O 	0.49509 0.11902 0.59010 -0.40800
O 	O 	0.84657 0.51250 0.55636 -0.39300
O 	O 	0.85282 0.33089 0.52427 -0.37800
O 	O 	0.66788 0.24124 0.58535 -0.69900
O 	O 	0.52113 0.27180 0.60380 -0.38400
O 	O 	0.80884 0.19798 0.57593 -0.36300
O 	O 	0.69625 0.07144 0.57111 -0.40600
Ni	Ni	0.60211 0.11087 0.58105 1.06500
H 	H 	0.66513 0.30948 0.51571 0.15500
H 	H 	0.68537 0.25837 0.60795 0.15600
C 	C 	0.86440 0.46506 0.57920 0.30600
O 	O 	0.58626 0.11848 0.53301 -0.41600
C 	C 	0.61242 0.49885 0.55274 0.28400
C 	C 	0.86018 0.39413 0.50211 0.29400
C 	C 	0.53852 0.15621 0.52121 0.29000
C 	C 	0.76593 0.11378 0.58439 0.27300
C 	C 	0.48192 0.18311 0.60811 0.28200
O 	O 	0.81462 0.38413 0.58716 -0.39700
O 	O 	0.80107 0.41852 0.49391 -0.42400
Ni	Ni	0.97758 0.94674 0.75125 1.09400
O 	O 	0.99599 0.84559 0.72543 -0.71600
Ni	Ni	0.05226 0.91632 0.68832 1.09500
O 	O 	0.91937 0.85236 0.78432 -0.37600
O 	O 	0.82850 0.77294 0.74616 -0.41400
O 	O 	0.07975 0.97511 0.77874 -0.38300
Ni	Ni	0.89603 0.75855 0.70836 1.06500
O 	O 	0.07277 0.15132 0.77018 -0.40500
O 	O 	0.86253 0.85638 0.68665 -0.41800
O 	O 	0.06983 0.80643 0.66678 -0.37500
O 	O 	0.02296 0.01750 0.71160 -0.68700
O 	O 	0.95105 0.04436 0.77550 -0.38300
O 	O 	0.13127 0.00223 0.65806 -0.35800
O 	O 	0.16178 0.14562 0.68120 -0.39700
Ni	Ni	0.10941 0.12967 0.72557 1.06900
H 	H 	0.02672 0.81472 0.73723 0.16000
H 	H 	0.98313 0.03484 0.69997 0.15400
C 	C 	0.89658 0.89889 0.66114 0.29700
O 	O 	0.16851 0.04976 0.74107 -0.42600
C 	C 	0.85298 0.78624 0.77636 0.27900
C 	C 	0.00943 0.72768 0.66336 0.27800
C 	C 	0.15133 0.00266 0.76751 0.29000
C 	C 	0.18382 0.08243 0.66738 0.28400
C 	C 	0.99856 0.13034 0.77693 0.28300
O 	O 	0.96640 0.90169 0.65408 -0.37300
O 	O 	0.93791 0.72716 0.66666 -0.40100
Ni	Ni	0.26048 0.65837 0.38901 1.09800
O 	O 	0.35985 0.72215 0.36462 -0.70500
Ni	Ni	0.44139 0.73449 0.39845 1.10100
O 	O 	0.19458 0.65641 0.34875 -0.37700
O 	O 	0.25091 0.81353 0.34403 -0.40600
O 	O 	0.27055 0.53883 0.37260 -0.40300
Ni	Ni	0.37100 0.84540 0.35097 1.06600
O 	O 	0.22004 0.57768 0.46174 -0.42500
O 	O 	0.36005 0.89309 0.39599 -0.41400
O 	O 	0.53454 0.78828 0.37029 -0.38100
O 	O 	0.34175 0.68458 0.42402 -0.70200
O 	O 	0.16087 0.58517 0.41283 -0.38700
O 	O 	0.51169 0.71429 0.43416 -0.37700
O 	O 	0.42966 0.56517 0.43686 -0.41700
Ni	Ni	0.32260 0.57115 0.44800 1.07100
H 	H 	0.36549 0.68414 0.34623 0.15900
H 	H 	0.33685 0.73273 0.43867 0.15300
C 	C 	0.41424 0.90756 0.41854 0.29000
O 	O 	0.26537 0.45875 0.41835 -0.40100
C 	C 	0.20067 0.73245 0.33362 0.27800
C 	C 	0.53868 0.85607 0.35076 0.27900
C 	C 	0.24471 0.46170 0.38815 0.30900
C 	C 	0.49346 0.63244 0.44676 0.28100
C 	C 	0.15758 0.55448 0.44253 0.29800
O 	O 	0.46517 0.86609 0.41707 -0.37300
O 	O 	0.49091 0.90270 0.35379 -0.40200
Ni	Ni	0.37776 0.70439 0.05739 1.10100
O 	O 	0.27628 0.68032 0.03125 -0.69900
Ni	Ni	0.21408 0.72248 0.06251 1.09800
O 	O 	0.41351 0.61473 0.03089 -0.37200
O 	O 	0.29376 0.50300 0.03379 -0.41700
O 	O 	0.43756 0.80752 0.02679 -0.37300
Ni	Ni	0.21341 0.55603 0.01584 1.07400
O 	O 	0.48758 0.89354 0.08387 -0.40500
O 	O 	0.13582 0.50217 0.05151 -0.40400
O 	O 	0.10387 0.67243 0.04104 -0.37800
O 	O 	0.32141 0.76416 0.08520 -0.70200
O 	O 	0.47718 0.74135 0.08494 -0.37800
O 	O 	0.17595 0.79337 0.09619 -0.36900
O 	O 	0.27630 0.92804 0.08614 -0.41300
Ni	Ni	0.37736 0.89718 0.08454 1.06600
H 	H 	0.28575 0.72133 0.01270 0.15300
H 	H 	0.31896 0.74161 0.10737 0.15800
C 	C 	0.14821 0.52470 0.08215 0.30000
O 	O 	0.37049 0.90336 0.03597 -0.42000
C 	C 	0.36394 0.53232 0.02221 0.28100
C 	C 	0.08573 0.62757 0.01289 0.28600
C 	C 	0.41369 0.87376 0.01747 0.28800
C 	C 	0.21591 0.88133 0.10319 0.27500
C 	C 	0.50775 0.82717 0.09653 0.28000
O 	O 	0.18627 0.61079 0.09180 -0.39400
O 	O 	0.13832 0.60914 0.99594 -0.41600
Ni	Ni	0.98435 0.01533 0.26439 1.10000
O 	O 	0.98928 0.13568 0.24342 -0.70700
Ni	Ni	0.93382 0.08768 0.20173 1.10000
O 	O 	0.04623 0.08480 0.30420 -0.36500
O 	O 	0.14218 0.17212 0.27199 -0.41200
O 	O 	0.88212 0.01428 0.28336 -0.38300
Ni	Ni	0.09192 0.22802 0.23660 1.06900
O 	O 	0.92470 0.79033 0.24058 -0.40700
O 	O 	0.13417 0.16388 0.20195 -0.39200
O 	O 	0.93643 0.21061 0.18424 -0.38100
O 	O 	0.94398 0.97068 0.22011 -0.70500
O 	O 	0.96978 0.89071 0.28431 -0.37800
O 	O 	0.85270 0.01590 0.16689 -0.36600
O 	O 	0.78043 0.91764 0.20427 -0.41900
Ni	Ni	0.85455 0.85574 0.22289 1.07100
H 	H 	0.95859 0.16526 0.25561 0.15600
H 	H 	0.98500 0.95566 0.20901 0.14500
C 	C 	0.09085 0.10018 0.18123 0.27400
O 	O 	0.81683 0.86419 0.26803 -0.39200
C 	C 	0.11208 0.15458 0.30062 0.27800
C 	C 	0.00491 0.27837 0.18149 0.29500
C 	C 	0.81723 0.94177 0.28104 0.29300
C 	C 	0.78791 0.94924 0.17494 0.26200
C 	C 	0.96937 0.81843 0.26697 0.28300
O 	O 	0.02245 0.09959 0.17162 -0.38500
O 	O 	0.05480 0.30800 0.20634 -0.40900
C 	C 	0.02202 0.33142 0.15195 -0.07300
C 	C 	0.06082 0.30307 0.12778 -0.02800
C 	C 	0.10353 0.36581 0.10525 0.03800
C 	C 	0.10399 0.45712 0.10571 -0.08100
C 	C 	0.05923 0.48292 0.12812 -0.02400
C 	C 	0.01851 0.42068 0.15123 0.04100
S 	S 	0.16096 0.33113 0.07840 -0.04900
S 	S 	0.96410 0.45557 0.17939 -0.05000
H 	H 	0.01061 0.49480 0.20579 0.04000
H 	H 	0.11823 0.29556 0.05079 0.03500
H 	H 	0.06278 0.23409 0.12799 0.05100
H 	H 	0.05654 0.55165 0.12771 0.04800
C 	C 	0.71839 0.92369 0.15363 -0.07400
C 	C 	0.65012 0.93149 0.16536 -0.02700
C 	C 	0.58017 0.89629 0.14747 0.03700
C 	C 	0.57825 0.85393 0.11720 -0.08100
C 	C 	0.64647 0.84631 0.10534 -0.01800
C 	C 	0.71651 0.88093 0.12337 0.02700
S 	S 	0.49472 0.90306 0.16367 -0.09600
S 	S 	0.80072 0.86826 0.10817 -0.04800
H 	H 	0.80556 0.78690 0.11842 0.02300
H 	H 	0.48579 0.98291 0.15410 0.01400
H 	H 	0.65119 0.96337 0.18877 0.04300
H 	H 	0.64528 0.81461 0.08189 0.04800
C 	C 	0.18043 0.93333 0.12319 -0.08000
C 	C 	0.19262 0.93734 0.15657 -0.02400
C 	C 	0.16746 0.99557 0.17578 0.01000
C 	C 	0.12819 0.04910 0.16148 -0.06600
C 	C 	0.11657 0.04520 0.12802 -0.02000
C 	C 	0.14166 0.98715 0.10894 0.03400
S 	S 	0.18641 0.00164 0.21750 -0.03400
S 	S 	0.12285 0.98112 0.06721 -0.05300
H 	H 	0.18407 0.04580 0.05269 0.04500
H 	H 	0.11835 0.95986 0.23305 -0.00100
H 	H 	0.22329 0.89677 0.16754 0.02800
H 	H 	0.08672 0.08635 0.11687 0.05000
C 	C 	0.74938 0.94080 0.29921 -0.07800
C 	C 	0.67822 0.92442 0.28268 -0.03000
C 	C 	0.60903 0.90287 0.29945 0.03700
C 	C 	0.61096 0.89805 0.33314 -0.07600
C 	C 	0.68295 0.92219 0.34976 -0.02200
C 	C 	0.75196 0.94243 0.33302 0.03800
S 	S 	0.52016 0.87786 0.27787 -0.09200
S 	S 	0.84035 0.96423 0.35466 -0.03700
H 	H 	0.87640 0.05759 0.36009 0.04500
H 	H 	0.48848 0.78488 0.27086 0.02800
H 	H 	0.67625 0.92461 0.25669 0.04100
H 	H 	0.68483 0.92092 0.37574 0.05000
C 	C 	0.14363 0.22289 0.32694 -0.08700
C 	C 	0.09624 0.26707 0.33992 -0.03000
C 	C 	0.12795 0.34320 0.36095 0.03400
C 	C 	0.20783 0.37452 0.36980 -0.08300
C 	C 	0.25415 0.32650 0.35848 -0.02100
C 	C 	0.22253 0.25098 0.33706 0.03500
S 	S 	0.06731 0.39982 0.37534 -0.04300
S 	S 	0.28182 0.19130 0.32356 -0.04400
H 	H 	0.31655 0.22976 0.29588 0.03600
H 	H 	0.06912 0.46930 0.35510 0.04700
H 	H 	0.03523 0.24462 0.33254 0.03600
H 	H 	0.31528 0.34947 0.36567 0.04100
C 	C 	0.13460 0.73119 0.31300 -0.07500
C 	C 	0.06090 0.70879 0.32626 -0.02300
C 	C 	0.00110 0.72537 0.30928 0.04200
C 	C 	0.01502 0.76446 0.27875 -0.07700
C 	C 	0.08447 0.77289 0.26365 -0.02900
C 	C 	0.14532 0.75907 0.28093 0.03700
S 	S 	0.90983 0.69993 0.32684 -0.04300
S 	S 	0.23473 0.77857 0.26244 -0.08100
H 	H 	0.28222 0.86915 0.26742 0.02400
H 	H 	0.90900 0.77621 0.34365 0.04800
H 	H 	0.05133 0.68292 0.35041 0.04600
H 	H 	0.09316 0.79640 0.23922 0.03600
C 	C 	0.49164 0.06785 0.43655 -0.02400
C 	C 	0.42909 0.98533 0.44154 -0.09300
C 	C 	0.38975 0.97328 0.47079 0.06100
C 	C 	0.42154 0.03701 0.49629 -0.02500
C 	C 	0.49051 0.11322 0.49252 -0.08900
C 	C 	0.52163 0.13309 0.46173 0.07400
C 	C 	0.58981 0.22059 0.45609 -0.19000
H 	H 	0.51961 0.07904 0.41358 0.04700
H 	H 	0.39575 0.02371 0.51968 0.04300
C 	C 	0.31822 0.88897 0.47598 -0.18700
H 	H 	0.59650 0.23517 0.43011 0.06700
H 	H 	0.64421 0.21379 0.46568 0.06200
H 	H 	0.58099 0.28048 0.46802 0.05800
H 	H 	0.33599 0.83141 0.48408 0.05100
H 	H 	0.28162 0.86747 0.45366 0.06200
H 	H 	0.28159 0.90342 0.49460 0.06300
C 	C 	0.98468 0.38402 0.48345 -0.04400
C 	C 	0.93474 0.43431 0.48522 -0.08400
C 	C 	0.95829 0.52423 0.47202 0.07000
C 	C 	0.03018 0.56032 0.45716 -0.02900
C 	C 	0.08066 0.51126 0.45650 -0.09500
C 	C 	0.05765 0.42198 0.46938 0.08200
C 	C 	0.10994 0.36627 0.46770 -0.19800
H 	H 	0.96676 0.31516 0.49309 0.05300
H 	H 	0.04795 0.62833 0.44681 0.04100
C 	C 	0.90840 0.58309 0.47403 -0.18300
H 	H 	0.08202 0.29636 0.47768 0.07200
H 	H 	0.16494 0.40206 0.48168 0.06400
H 	H 	0.12341 0.35703 0.44237 0.08200
H 	H 	0.88997 0.58730 0.49895 0.05000
H 	H 	0.85672 0.55444 0.45755 0.06300
H 	H 	0.94082 0.65530 0.46690 0.06200
C 	C 	0.48887 0.59955 0.50458 -0.04100
C 	C 	0.53236 0.62232 0.47672 -0.10100
C 	C 	0.60960 0.62447 0.47697 0.07300
C 	C 	0.63864 0.59247 0.50379 -0.03500
C 	C 	0.59130 0.55856 0.53015 -0.11100
C 	C 	0.51861 0.56958 0.53166 0.08200
C 	C 	0.47089 0.54523 0.56135 -0.19700
H 	H 	0.43068 0.60192 0.50476 -0.00300
H 	H 	0.69611 0.58813 0.50324 -0.02200
C 	C 	0.65933 0.65494 0.44802 -0.19500
H 	H 	0.43027 0.58353 0.56269 0.06000
H 	H 	0.50906 0.56391 0.58332 0.07400
H 	H 	0.43624 0.46992 0.56096 0.08100
H 	H 	0.66250 0.72512 0.44118 0.08400
H 	H 	0.63399 0.60557 0.42761 0.07000
H 	H 	0.71986 0.65801 0.45282 0.05900
C 	C 	0.80136 0.06065 0.60386 -0.06500
C 	C 	0.81334 0.98397 0.59006 -0.04000
C 	C 	0.84224 0.92869 0.60877 0.04700
C 	C 	0.85917 0.95010 0.64170 -0.10000
C 	C 	0.84553 0.02558 0.65562 -0.00900
C 	C 	0.81789 0.08172 0.63681 0.02100
S 	S 	0.85416 0.83094 0.59100 -0.03900
S 	S 	0.80347 0.17763 0.65485 -0.06200
H 	H 	0.72831 0.15160 0.66480 0.01500
H 	H 	0.92876 0.85473 0.58055 0.04600
H 	H 	0.79965 0.96699 0.56479 0.04700
H 	H 	0.85769 0.04156 0.68101 0.02400
C 	C 	0.40614 0.15767 0.62359 -0.07400
C 	C 	0.33788 0.13202 0.60435 -0.02100
C 	C 	0.26519 0.11126 0.61824 0.03800
C 	C 	0.26012 0.11318 0.65196 -0.07200
C 	C 	0.32861 0.14131 0.67118 -0.03100
C 	C 	0.40149 0.16310 0.65719 0.03600
S 	S 	0.18188 0.08892 0.59311 -0.02000
S 	S 	0.48603 0.19460 0.68203 -0.07200
H 	H 	0.50066 0.11678 0.68990 0.02500
H 	H 	0.17098 0.17028 0.58737 0.03700
H 	H 	0.34154 0.13006 0.57845 0.05000
H 	H 	0.32512 0.14481 0.69705 0.03700
C 	C 	0.93301 0.51288 0.60072 -0.07600
C 	C 	0.93014 0.49210 0.63341 -0.02400
C 	C 	0.97482 0.55951 0.65586 0.03400
C 	C 	0.01743 0.64933 0.64561 -0.07600
C 	C 	0.03614 0.66071 0.61319 -0.02000
C 	C 	0.99433 0.59200 0.59054 0.03800
S 	S 	0.96864 0.53522 0.69695 -0.10200
S 	S 	0.02191 0.60303 0.55030 -0.04100
H 	H 	0.07261 0.55805 0.54504 0.03800
H 	H 	0.02784 0.50594 0.70595 0.03800
H 	H 	0.88940 0.42692 0.64155 0.04800
H 	H 	0.07639 0.72645 0.60524 0.04900
C 	C 	0.99662 0.63238 0.96842 -0.04900
C 	C 	0.00631 0.60216 0.99916 -0.07500
C 	C 	0.94254 0.53456 0.01360 0.06300
C 	C 	0.87348 0.49053 0.99549 -0.02600
C 	C 	0.86640 0.51528 0.96373 -0.10000
C 	C 	0.92676 0.59024 0.95068 0.08700
C 	C 	0.91749 0.62482 0.91782 -0.20400
H 	H 	0.04481 0.68622 0.95777 0.04500
H 	H 	0.82609 0.43489 0.00580 0.03800
C 	C 	0.94951 0.50390 0.04731 -0.19500
H 	H 	0.91999 0.57430 0.89913 0.08900
H 	H 	0.96416 0.69239 0.91337 0.06900
H 	H 	0.86105 0.63509 0.91563 0.08300
H 	H 	0.97733 0.56431 0.06378 0.08700
H 	H 	0.98405 0.45823 0.04745 0.08200
H 	H 	0.89134 0.46459 0.05689 0.06800
C 	C 	0.43425 0.97950 0.93560 -0.04700
C 	C 	0.51178 0.04130 0.93755 -0.08300
C 	C 	0.55882 0.04278 0.96496 0.07800
C 	C 	0.52641 0.98439 0.99041 -0.04300
C 	C 	0.44767 0.92658 0.98913 -0.08800
C 	C 	0.40141 0.92303 0.96137 0.07200
C 	C 	0.31773 0.85762 0.95876 -0.19100
H 	H 	0.39911 0.97642 0.91410 0.04800
H 	H 	0.56193 0.98577 0.01165 0.04500
C 	C 	0.64287 0.10711 0.96744 -0.19200
H 	H 	0.28865 0.86635 0.93607 0.06300
H 	H 	0.28427 0.87052 0.97891 0.06500
H 	H 	0.31542 0.78514 0.95924 0.05600
H 	H 	0.64702 0.17974 0.96449 0.05500
H 	H 	0.67681 0.08832 0.94870 0.07700
H 	H 	0.67011 0.10314 0.99114 0.06900
C 	C 	0.39920 0.48921 0.93554 -0.03200
C 	C 	0.42501 0.41492 0.93836 -0.10300
C 	C 	0.42097 0.37147 0.96825 0.05800
C 	C 	0.39740 0.40842 0.99533 -0.03200
C 	C 	0.37811 0.48761 0.99292 -0.10100
C 	C 	0.37544 0.52584 0.96257 0.05500
C 	C 	0.35013 0.60771 0.95907 -0.16900
H 	H 	0.40117 0.52139 0.91252 0.04000
H 	H 	0.39665 0.37739 0.01850 0.03600
C 	C 	0.44454 0.28821 0.97165 -0.18400
H 	H 	0.34308 0.62270 0.93347 0.05700
H 	H 	0.39430 0.67020 0.97062 0.06700
H 	H 	0.29309 0.59358 0.97034 -0.00900
H 	H 	0.50664 0.30639 0.96558 0.03200
H 	H 	0.40744 0.23090 0.95551 0.08300
H 	H 	0.43765 0.26249 0.99652 0.06300
C 	C 	0.85456 0.23020 0.82812 -0.07300
C 	C 	0.86513 0.25165 0.79564 -0.02900
C 	C 	0.92494 0.23599 0.77908 0.03500
C 	C 	0.97332 0.19630 0.79490 -0.08000
C 	C 	0.97060 0.18958 0.82841 -0.02200
C 	C 	0.91032 0.20401 0.84501 0.04100
S 	S 	0.93460 0.25882 0.73790 -0.09000
S 	S 	0.90394 0.18615 0.88659 -0.04400
H 	H 	0.85896 0.09581 0.89187 0.04100
H 	H 	0.98696 0.34659 0.73401 0.03200
H 	H 	0.82549 0.27774 0.78300 0.03200
H 	H 	0.01000 0.16308 0.84103 0.05100
C 	C 	0.36372 0.06944 0.81980 -0.07800
C 	C 	0.35495 0.02352 0.78996 -0.01000
C 	C 	0.28124 0.98642 0.77459 0.01200
C 	C 	0.21662 0.00015 0.78832 -0.06100
C 	C 	0.22360 0.03451 0.81998 -0.03000
C 	C 	0.29656 0.06785 0.83599 0.04200
S 	S 	0.26991 0.92093 0.73873 -0.07200
S 	S 	0.30268 0.10504 0.87640 -0.02100
H 	H 	0.29060 0.03107 0.89586 0.03700
H 	H 	0.28143 0.97738 0.71295 0.03200
H 	H 	0.40553 0.01901 0.77827 0.03000
H 	H 	0.17332 0.04049 0.83149 0.05500
C 	C 	0.72684 0.60419 0.84798 -0.08500
C 	C 	0.77852 0.69273 0.85745 -0.02200
C 	C 	0.81399 0.75813 0.83438 0.03400
C 	C 	0.80103 0.73223 0.80142 -0.07600
C 	C 	0.74043 0.64914 0.79241 -0.03400
C 	C 	0.70184 0.58653 0.81562 0.04500
S 	S 	0.86448 0.87385 0.84700 -0.03700
S 	S 	0.62141 0.48715 0.80402 -0.08100
H 	H 	0.55439 0.50601 0.80604 0.03600
H 	H 	0.94135 0.88734 0.85301 0.04300
H 	H 	0.79207 0.71032 0.88266 0.04200
H 	H 	0.72483 0.63188 0.76730 0.03800
