data_crystal

_cell_length_a 20.68814
_cell_length_b 21.47456
_cell_length_c 31.78496
_cell_angle_alpha 60.94012
_cell_angle_beta  118.75616
_cell_angle_gamma 133.33136

_symmetry_space_group_name_	'P 1'
_symmetry_space_group_name_H-M	'P 1'

loop_
_symmetry_equiv_pos_as_xyz
  x,y,z

loop_
_atom_site_label
_atom_site_type_symbol
_atom_site_fract_x
_atom_site_fract_y
_atom_site_fract_z
_atom_site_charge
Co	Co	0.03210 0.11190 0.09785 1.19000
O 	O 	0.01372 0.00332 0.98124 -0.29400
C 	C 	0.01410 0.96838 0.91629 -0.01300
O 	O 	0.00133 0.36710 0.51985 -0.06000
O 	O 	0.01802 0.65491 0.22251 -0.06800
O 	O 	0.00804 0.95921 0.62725 -0.57600
Co	Co	0.01123 0.87086 0.13412 1.18800
O 	O 	0.01507 0.06075 0.15648 -0.71100
O 	O 	0.01312 0.76278 0.09664 -0.36700
C 	C 	0.01820 0.90629 0.36700 0.01300
O 	O 	0.05474 0.12304 0.03760 -0.43400
O 	O 	0.02902 0.08614 0.54262 -0.40400
O 	O 	0.03229 0.89552 0.59194 -0.74200
C 	C 	0.02528 0.90153 0.41524 0.03300
N 	N 	0.01293 0.60103 0.71019 -0.00000
O 	O 	0.02958 0.44404 0.10088 -0.06700
O 	O 	0.05229 0.00480 0.12585 -0.52800
O 	O 	0.06639 0.93821 0.08731 -0.77200
Co	Co	0.04063 0.98984 0.55754 1.17500
C 	C 	0.06461 0.95313 0.90871 -0.00800
C 	C 	0.05211 0.95157 0.86098 0.03600
C 	C 	0.05515 0.87342 0.36151 0.11400
N 	N 	0.04365 0.64116 0.19962 -0.01100
O 	O 	0.04670 0.06435 0.25622 -0.30600
C 	C 	0.01535 0.95256 0.96890 0.24600
Co	Co	0.07354 0.03157 0.05277 1.19600
Co	Co	0.07416 0.85226 0.56996 1.18300
C 	C 	0.06541 0.21016 0.63853 0.34700
C 	C 	0.07890 0.87346 0.45772 0.08600
H 	H 	0.08572 0.36479 0.08236 0.07400
O 	O 	0.00908 0.88224 0.00122 -0.36000
O 	O 	0.08280 0.17950 0.62061 -0.35100
O 	O 	0.08106 0.80404 0.69025 -0.33600
N 	N 	0.08466 0.84715 0.35717 -0.08900
H 	H 	0.08718 0.56646 0.68109 0.09100
C 	C 	0.99978 0.97992 0.27482 0.21100
O 	O 	0.99848 0.05120 0.73483 -0.33700
O 	O 	0.98608 0.62791 0.72298 -0.10300
Co	Co	0.98309 0.83008 0.64130 1.17400
O 	O 	0.96461 0.51712 0.71396 -0.09900
O 	O 	0.98523 0.72172 0.60300 -0.40400
O 	O 	0.97479 0.24928 0.51628 -0.10200
O 	O 	0.98138 0.17173 0.63774 -0.40900
O 	O 	0.98299 0.96408 0.48563 -0.37600
Co	Co	0.98199 0.06257 0.59632 1.18100
C 	C 	0.98806 0.97935 0.76775 0.25400
Co	Co	0.10711 0.89345 0.06591 1.16900
C 	C 	0.15463 0.27058 0.14283 0.31300
C 	C 	0.16393 0.84534 0.17325 0.30100
O 	O 	0.13254 0.21565 0.18474 -0.35700
O 	O 	0.13628 0.24257 0.10654 -0.35200
O 	O 	0.19586 0.90492 0.13388 -0.38400
O 	O 	0.09936 0.83195 0.18405 -0.34300
O 	O 	0.19952 0.02032 0.03080 -0.36700
O 	O 	0.21258 0.11038 0.05779 -0.36200
C 	C 	0.13694 0.80862 0.67714 0.30400
O 	O 	0.97269 0.83936 0.50667 -0.37700
O 	O 	0.16691 0.86516 0.63679 -0.38000
O 	O 	0.16439 0.97937 0.53411 -0.42900
O 	O 	0.17971 0.06572 0.56542 -0.35800
C 	C 	0.12801 0.93658 0.95010 0.09200
C 	C 	0.10544 0.93743 0.85427 0.10500
N 	N 	0.14802 0.92616 0.84893 -0.09200
N 	N 	0.17849 0.92273 0.98275 -0.12200
N 	N 	0.12166 0.85085 0.49149 -0.12200
C 	C 	0.15886 0.37214 0.60658 -0.00200
C 	C 	0.13515 0.29942 0.64744 -0.08000
C 	C 	0.15025 0.31063 0.69235 0.11700
C 	C 	0.17372 0.38874 0.69352 -0.05000
H 	H 	0.15158 0.36553 0.57257 0.08800
H 	H 	0.18544 0.39677 0.72822 0.08600
N 	N 	0.14258 0.24288 0.73700 -0.02500
O 	O 	0.18617 0.21037 0.75016 -0.06600
O 	O 	0.09786 0.21854 0.76636 -0.07300
C 	C 	0.16377 0.74746 0.70668 -0.06800
C 	C 	0.10256 0.66025 0.70070 0.11000
C 	C 	0.13515 0.62737 0.69289 -0.05000
C 	C 	0.14701 0.39676 0.11004 -0.01400
C 	C 	0.19974 0.36412 0.13705 -0.07900
C 	C 	0.16914 0.46627 0.12126 0.08100
N 	N 	0.11212 0.49554 0.09489 -0.01900
O 	O 	0.14190 0.57283 0.06408 -0.07400
C 	C 	0.17473 0.67023 0.19037 -0.05200
C 	C 	0.19448 0.78702 0.20235 -0.07200
C 	C 	0.13705 0.70079 0.19570 0.11000
H 	H 	0.12995 0.60894 0.17944 0.09600
O 	O 	0.98924 0.56568 0.18841 -0.10200
C 	C 	0.73130 0.30844 0.02460 0.14800
N 	N 	0.63907 0.26048 0.01684 -0.13000
C 	C 	0.60215 0.29458 0.01591 0.15900
N 	N 	0.65674 0.37777 0.02062 -0.12800
C 	C 	0.74851 0.42437 0.03158 0.14900
N 	N 	0.78678 0.38984 0.03390 -0.11700
C 	C 	0.69944 0.26162 0.53253 0.14700
N 	N 	0.75671 0.34509 0.53975 -0.12800
C 	C 	0.72159 0.37663 0.54443 0.14900
N 	N 	0.63115 0.32658 0.54055 -0.12800
C 	C 	0.57579 0.24333 0.53595 0.15600
N 	N 	0.61006 0.20997 0.53330 -0.11700
C 	C 	0.30993 0.69370 0.18681 0.14500
N 	N 	0.25753 0.61229 0.17819 -0.12400
C 	C 	0.29027 0.59561 0.15946 0.15200
N 	N 	0.37384 0.65928 0.14972 -0.13500
C 	C 	0.43009 0.73526 0.16368 0.14900
N 	N 	0.39732 0.75456 0.18038 -0.11700
C 	C 	0.26464 0.64782 0.68474 0.14500
N 	N 	0.35038 0.70826 0.67657 -0.12300
C 	C 	0.38168 0.68851 0.65935 0.15400
N 	N 	0.32612 0.61021 0.64801 -0.12400
C 	C 	0.24185 0.54822 0.65712 0.15000
N 	N 	0.21058 0.56637 0.67592 -0.12900
Co	Co	0.96604 0.95140 0.17643 1.15900
C 	C 	0.25033 0.08901 0.04859 0.31900
Co	Co	0.99821 0.11627 0.18621 1.16400
C 	C 	0.92794 0.73122 0.08774 0.29000
O 	O 	0.96121 0.18542 0.11852 -0.40800
C 	C 	0.90638 0.15408 0.07916 0.31200
O 	O 	0.94170 0.84029 0.17820 -0.45700
C 	C 	0.80878 0.93860 0.16905 0.27500
O 	O 	0.91395 0.10826 0.06699 -0.37000
O 	O 	0.86214 0.00707 0.18866 -0.34700
O 	O 	0.84015 0.92705 0.14769 -0.39100
O 	O 	0.98401 0.92784 0.25413 -0.35300
O 	O 	0.90843 0.77120 0.09600 -0.37400
Co	Co	0.92706 0.90379 0.68096 1.17400
C 	C 	0.21609 0.04671 0.55325 0.37200
Co	Co	0.89687 0.04053 0.67195 1.18400
C 	C 	0.89999 0.68694 0.59673 0.31800
O 	O 	0.80027 0.02673 0.60646 -0.37100
O 	O 	0.94460 0.00271 0.64989 -0.73100
C 	C 	0.82714 0.07807 0.56499 0.30000
O 	O 	0.92693 0.80160 0.69207 -0.44600
C 	C 	0.75319 0.84885 0.68289 0.32500
C 	C 	0.98022 0.90988 0.47371 0.29300
O 	O 	0.87088 0.06994 0.55018 -0.35200
O 	O 	0.80684 0.91151 0.70596 -0.40300
O 	O 	0.78760 0.83852 0.66311 -0.39700
O 	O 	0.97350 0.91842 0.75494 -0.34700
O 	O 	0.87969 0.72322 0.60798 -0.37200
C 	C 	0.99001 0.96584 0.81990 -0.06800
C 	C 	0.94012 0.98199 0.82722 0.03000
C 	C 	0.95119 0.98184 0.87518 -0.01300
C 	C 	0.87797 0.99987 0.78550 0.04300
C 	C 	0.89527 0.99267 0.88205 0.07000
N 	N 	0.85053 0.00127 0.88747 -0.05300
N 	N 	0.82844 0.01459 0.75246 -0.07900
C 	C 	0.98245 0.92630 0.42181 -0.08000
C 	C 	0.93489 0.95753 0.37928 0.02500
C 	C 	0.93984 0.97462 0.33130 -0.04900
C 	C 	0.97897 0.94621 0.32450 -0.04400
C 	C 	0.87889 0.97037 0.38427 0.09300
C 	C 	0.91216 0.02846 0.29000 0.13200
N 	N 	0.89039 0.07227 0.25774 -0.11800
N 	N 	0.83406 0.98059 0.38816 -0.09500
C 	C 	0.18960 0.45902 0.65126 -0.01000
C 	C 	0.18168 0.45020 0.60736 0.08500
N 	N 	0.19732 0.52085 0.56349 -0.01600
O 	O 	0.24915 0.54604 0.53830 -0.06400
O 	O 	0.15660 0.55739 0.54755 -0.06800
C 	C 	0.53557 0.73692 0.71174 -0.05600
C 	C 	0.47963 0.74087 0.66418 -0.00800
C 	C 	0.51201 0.77303 0.62275 0.07400
C 	C 	0.59879 0.79844 0.62956 -0.00800
C 	C 	0.65463 0.79439 0.67722 -0.09200
C 	C 	0.62119 0.76025 0.71861 0.12200
N 	N 	0.67519 0.75069 0.76781 -0.02300
H 	H 	0.50985 0.70980 0.74373 0.09100
H 	H 	0.62499 0.82664 0.59758 0.06300
N 	N 	0.45673 0.77995 0.57366 -0.01800
O 	O 	0.68516 0.77846 0.80035 -0.07700
O 	O 	0.71190 0.71165 0.78053 -0.07700
O 	O 	0.41885 0.81827 0.56013 -0.08000
O 	O 	0.44761 0.75147 0.54183 -0.07500
C 	C 	0.25729 0.78455 0.72355 -0.01200
C 	C 	0.22961 0.67224 0.70165 -0.01000
C 	C 	0.29046 0.74610 0.72245 0.08000
N 	N 	0.38463 0.77989 0.74411 -0.01700
H 	H 	0.30479 0.84574 0.73500 0.07800
O 	O 	0.44829 0.86373 0.73122 -0.08700
O 	O 	0.40657 0.72786 0.77902 -0.08000
C 	C 	0.27919 0.40662 0.17291 0.11900
C 	C 	0.29775 0.47180 0.18617 -0.05200
C 	C 	0.24577 0.50504 0.15922 -0.01200
H 	H 	0.35792 0.50233 0.21478 0.08700
N 	N 	0.33878 0.38009 0.19794 -0.02300
O 	O 	0.36349 0.36913 0.17284 -0.07000
O 	O 	0.36988 0.36870 0.24569 -0.06800
C 	C 	0.55249 0.79517 0.12879 -0.04500
C 	C 	0.52829 0.79132 0.16500 -0.01000
C 	C 	0.59623 0.82216 0.20742 0.08200
C 	C 	0.68777 0.86618 0.20972 -0.01300
C 	C 	0.71193 0.87352 0.17228 -0.06900
C 	C 	0.64224 0.82866 0.13475 0.12300
N 	N 	0.65986 0.80765 0.10679 -0.01900
H 	H 	0.50007 0.76604 0.09785 0.08600
H 	H 	0.73996 0.89248 0.24148 0.06600
N 	N 	0.57212 0.80159 0.25008 -0.01700
O 	O 	0.69140 0.76097 0.12968 -0.08700
O 	O 	0.62938 0.82116 0.05898 -0.07900
O 	O 	0.52025 0.71948 0.27277 -0.07300
O 	O 	0.61611 0.86362 0.27159 -0.07200
C 	C 	0.27004 0.71799 0.20023 -0.00700
C 	C 	0.32665 0.79224 0.21996 0.08100
C 	C 	0.28881 0.82750 0.21964 -0.01100
H 	H 	0.33358 0.88926 0.23014 0.07600
N 	N 	0.42019 0.82707 0.24416 -0.01700
O 	O 	0.48414 0.90835 0.22714 -0.07700
O 	O 	0.44055 0.78243 0.28714 -0.06200
C 	C 	0.82840 0.26792 0.53506 -0.05000
C 	C 	0.73413 0.22523 0.52516 -0.01000
C 	C 	0.67248 0.14438 0.51070 0.08600
C 	C 	0.70464 0.09937 0.51703 -0.01200
C 	C 	0.79839 0.13765 0.53271 -0.06500
C 	C 	0.86013 0.22803 0.53349 0.10200
N 	N 	0.95022 0.28213 0.52575 -0.03300
H 	H 	0.87689 0.33277 0.54238 0.08000
H 	H 	0.65617 0.03290 0.51184 0.08700
N 	N 	0.57874 0.11043 0.48707 -0.01900
O 	O 	0.55782 0.15528 0.44442 -0.05900
O 	O 	0.51436 0.03128 0.50586 -0.05400
C 	C 	0.78850 0.53493 0.52139 -0.05000
C 	C 	0.78085 0.46066 0.55875 -0.01500
C 	C 	0.79593 0.45704 0.60800 0.08100
C 	C 	0.81450 0.52513 0.61869 -0.01000
C 	C 	0.82893 0.60203 0.58203 -0.07500
C 	C 	0.80701 0.60281 0.53234 0.10700
N 	N 	0.80017 0.67071 0.49275 -0.02100
H 	H 	0.77137 0.53599 0.48312 0.08200
H 	H 	0.82429 0.52083 0.65641 0.08500
N 	N 	0.78788 0.38193 0.64701 -0.01700
O 	O 	0.82176 0.69790 0.45186 -0.09100
O 	O 	0.76601 0.70072 0.49617 -0.08200
O 	O 	0.83214 0.35466 0.65257 -0.08400
O 	O 	0.73882 0.34268 0.67800 -0.07300
C 	C 	0.46074 0.13772 0.58565 -0.05100
C 	C 	0.48122 0.18720 0.53906 -0.00500
C 	C 	0.41757 0.19987 0.49867 0.08100
C 	C 	0.33393 0.16219 0.50525 0.00600
C 	C 	0.31214 0.11016 0.55149 -0.09500
C 	C 	0.37754 0.10099 0.59239 0.12800
N 	N 	0.35923 0.05358 0.64079 -0.02500
H 	H 	0.51149 0.13152 0.61725 0.09200
H 	H 	0.28350 0.16891 0.47363 0.07600
N 	N 	0.43803 0.25152 0.45089 -0.01900
O 	O 	0.38364 0.00126 0.66982 -0.06200
O 	O 	0.32640 0.06920 0.65756 -0.06900
O 	O 	0.46205 0.23245 0.43035 -0.06000
O 	O 	0.42758 0.31437 0.42674 -0.07300
C 	C 	0.72430 0.17447 0.04815 -0.04900
C 	C 	0.77056 0.26626 0.02930 -0.00400
C 	C 	0.84892 0.31482 0.01187 0.07400
C 	C 	0.88733 0.27330 0.02101 -0.01000
C 	C 	0.84606 0.18300 0.04524 -0.07300
C 	C 	0.75882 0.13239 0.05324 0.11600
N 	N 	0.70476 0.03813 0.06643 0.01000
H 	H 	0.66048 0.13521 0.05824 0.09300
H 	H 	0.95128 0.31220 0.01116 0.06000
N 	N 	0.88576 0.40350 0.98208 -0.01300
O 	O 	0.64612 0.99250 0.09293 -0.12600
O 	O 	0.70451 0.99811 0.04604 -0.10700
O 	O 	0.97372 0.46348 0.98970 -0.07600
O 	O 	0.83241 0.42146 0.94350 -0.07200
C 	C 	0.83440 0.56880 0.10698 -0.01100
C 	C 	0.85562 0.64821 0.07121 -0.06800
C 	C 	0.83732 0.65110 0.02165 0.10200
C 	C 	0.81780 0.58282 0.01063 -0.05900
C 	C 	0.80446 0.50612 0.04740 -0.00800
C 	C 	0.81263 0.49931 0.09599 0.08300
N 	N 	0.79553 0.42042 0.13392 -0.01800
H 	H 	0.84189 0.56345 0.14452 0.08300
H 	H 	0.80464 0.58591 0.97252 0.09500
N 	N 	0.83381 0.72087 0.98217 -0.01700
O 	O 	0.83923 0.39008 0.14324 -0.07400
O 	O 	0.73949 0.38124 0.16071 -0.07300
O 	O 	0.85629 0.74749 0.94171 -0.08600
O 	O 	0.80108 0.75279 0.98504 -0.07800
C 	C 	0.48874 0.17463 0.06691 -0.04000
C 	C 	0.50835 0.23638 0.02165 -0.02700
C 	C 	0.44668 0.25762 0.98816 0.10800
C 	C 	0.36664 0.21715 0.00044 -0.03300
C 	C 	0.34600 0.15369 0.04519 -0.06800
C 	C 	0.40941 0.13517 0.07942 0.11200
N 	N 	0.39279 0.07528 0.12683 -0.02300
H 	H 	0.53780 0.16093 0.09366 0.08700
H 	H 	0.31750 0.23070 0.97365 0.08700
N 	N 	0.46489 0.31988 0.94143 -0.02100
O 	O 	0.40631 0.01543 0.14410 -0.06400
O 	O 	0.37073 0.08477 0.15426 -0.06800
O 	O 	0.48477 0.31086 0.91257 -0.06700
O 	O 	0.45710 0.38300 0.92664 -0.07200
