data_crystal

_cell_length_a 35.30116
_cell_length_b 35.79788
_cell_length_c 36.83579
_cell_angle_alpha 95.53481
_cell_angle_beta  95.54008
_cell_angle_gamma 125.37849

_symmetry_space_group_name_	'P 1'
_symmetry_space_group_name_H-M	'P 1'

loop_
_symmetry_equiv_pos_as_xyz
  x,y,z

loop_
_atom_site_label
_atom_site_type_symbol
_atom_site_fract_x
_atom_site_fract_y
_atom_site_fract_z
_atom_site_charge
C 	C 	0.98126 0.02815 0.00279 0.05500
C 	C 	0.02878 0.05317 0.99886 -0.08900
C 	C 	0.04981 0.03009 0.99470 0.05400
C 	C 	0.02344 0.98215 0.99460 -0.08700
C 	C 	0.97602 0.95712 0.99845 0.05200
C 	C 	0.95490 0.98010 0.00261 -0.08600
H 	H 	0.04914 0.09029 0.99880 0.05600
H 	H 	0.03971 0.96428 0.99125 0.05500
H 	H 	0.91807 0.96066 0.00542 0.05600
C 	C 	0.95269 0.99859 0.44734 0.05300
C 	C 	0.92707 0.95129 0.45003 -0.08800
C 	C 	0.95031 0.93023 0.45306 0.05300
C 	C 	0.99900 0.95641 0.45338 -0.08800
C 	C 	0.02458 0.00358 0.45075 0.05300
C 	C 	0.00145 0.02467 0.44768 -0.08900
H 	H 	0.88938 0.93108 0.44988 0.05600
H 	H 	0.01698 0.94013 0.45580 0.05600
H 	H 	0.02132 0.06128 0.44575 0.05600
Cu	Cu	0.65584 0.26883 0.99853 0.92800
Cu	Cu	0.69483 0.26957 0.92104 0.87100
Cu	Cu	0.68369 0.34258 0.95005 0.89700
Cu	Cu	0.65470 0.35486 0.02176 0.89500
C 	C 	0.66796 0.30429 0.07551 0.30400
O 	O 	0.58647 0.24088 0.99648 -0.36300
C 	C 	0.67019 0.30982 0.86942 0.30700
O 	O 	0.69347 0.34130 0.00185 -0.64000
O 	O 	0.65112 0.27387 0.94550 -0.64100
O 	O 	0.68525 0.23521 0.99761 -0.37400
O 	O 	0.73845 0.28249 0.96347 -0.44300
O 	O 	0.64637 0.32280 0.06506 -0.38400
O 	O 	0.71863 0.40978 0.95822 -0.38100
C 	C 	0.71418 0.43486 0.98375 0.30600
C 	C 	0.56783 0.26025 0.98214 0.30200
O 	O 	0.59529 0.30371 0.97781 -0.39300
O 	O 	0.68144 0.41529 0.00450 -0.39200
O 	O 	0.67028 0.27618 0.05140 -0.35900
C 	C 	0.72543 0.25278 0.98610 0.30900
O 	O 	0.68500 0.34484 0.89672 -0.38600
O 	O 	0.66621 0.27221 0.87571 -0.42100
H 	H 	0.72705 0.36145 0.01448 0.16400
H 	H 	0.61855 0.25479 0.93082 0.17300
Cu	Cu	0.72600 0.33692 0.45062 0.92800
Cu	Cu	0.72522 0.29782 0.52779 0.87100
Cu	Cu	0.64949 0.30588 0.49787 0.89700
Cu	Cu	0.63665 0.33439 0.42634 0.89500
C 	C 	0.69146 0.32591 0.37343 0.30500
O 	O 	0.75213 0.40495 0.45323 -0.36200
C 	C 	0.68181 0.31943 0.57868 0.30700
O 	O 	0.65217 0.29742 0.44627 -0.64100
O 	O 	0.71957 0.34023 0.50340 -0.64100
O 	O 	0.76175 0.30953 0.45186 -0.37200
O 	O 	0.71375 0.25589 0.48522 -0.44300
O 	O 	0.67078 0.34525 0.38377 -0.38500
O 	O 	0.58114 0.26925 0.48884 -0.38100
C 	C 	0.55515 0.27276 0.46311 0.30800
C 	C 	0.73064 0.42156 0.46708 0.30200
O 	O 	0.68657 0.39285 0.47098 -0.39300
O 	O 	0.57436 0.30528 0.44249 -0.39400
O 	O 	0.71991 0.32383 0.39781 -0.36000
C 	C 	0.74455 0.26982 0.46311 0.30900
O 	O 	0.64633 0.30375 0.55100 -0.38600
O 	O 	0.72072 0.32460 0.57298 -0.42100
H 	H 	0.63282 0.26445 0.43340 0.16400
H 	H 	0.73780 0.37213 0.51832 0.17300
C 	C 	0.66088 0.32649 0.76166 -0.00600
C 	C 	0.69997 0.36492 0.75093 -0.03500
C 	C 	0.70157 0.36626 0.71325 -0.03500
C 	C 	0.66409 0.32918 0.68615 -0.00600
C 	C 	0.62366 0.29225 0.69688 -0.03500
C 	C 	0.62206 0.29090 0.73457 -0.03500
C 	C 	0.66981 0.32599 0.64804 0.04400
C 	C 	0.67480 0.32350 0.61618 -0.10900
C 	C 	0.66336 0.32060 0.79975 0.04400
C 	C 	0.66582 0.31603 0.83171 -0.11000
H 	H 	0.72997 0.39275 0.77170 0.04000
H 	H 	0.73280 0.39511 0.70519 0.03900
H 	H 	0.59437 0.26362 0.67610 0.04000
H 	H 	0.59154 0.26124 0.74264 0.03900
C 	C 	0.69145 0.30535 0.18638 -0.00400
C 	C 	0.66117 0.26514 0.20069 -0.03400
C 	C 	0.66394 0.26765 0.23910 -0.03400
C 	C 	0.69700 0.31036 0.26331 -0.00300
C 	C 	0.72894 0.34997 0.24905 -0.03400
C 	C 	0.72616 0.34747 0.21066 -0.03400
C 	C 	0.69476 0.31477 0.30219 0.04400
C 	C 	0.69347 0.31920 0.33481 -0.10100
C 	C 	0.68349 0.30466 0.14715 0.04400
C 	C 	0.67699 0.30428 0.11433 -0.10100
H 	H 	0.63442 0.23238 0.18210 0.04300
H 	H 	0.63931 0.23680 0.24993 0.04000
H 	H 	0.75478 0.38306 0.26760 0.04300
H 	H 	0.74986 0.37865 0.19981 0.03900
C 	C 	0.78676 0.55932 0.47444 -0.00900
C 	C 	0.75638 0.57095 0.46296 -0.03000
C 	C 	0.77470 0.61734 0.46170 -0.04400
C 	C 	0.82356 0.65241 0.47193 0.01100
C 	C 	0.85379 0.64088 0.48441 -0.04400
C 	C 	0.83541 0.59445 0.48562 -0.03000
C 	C 	0.84332 0.70073 0.46772 0.00400
C 	C 	0.83169 0.72634 0.48879 -0.03700
C 	C 	0.85102 0.77236 0.48506 -0.04300
C 	C 	0.88199 0.79297 0.46023 0.01700
C 	C 	0.89303 0.76719 0.43878 -0.04300
C 	C 	0.87377 0.72123 0.44248 -0.03700
C 	C 	0.90474 0.84136 0.45831 -0.01100
C 	C 	0.92450 0.88176 0.45592 -0.03100
C 	C 	0.76827 0.51109 0.47256 0.04600
C 	C 	0.75174 0.47042 0.47068 -0.11000
H 	H 	0.71871 0.54396 0.45432 0.03800
H 	H 	0.75109 0.62588 0.45203 0.04100
H 	H 	0.89152 0.66776 0.49262 0.04100
H 	H 	0.85909 0.58573 0.49463 0.03900
H 	H 	0.80811 0.71077 0.50828 0.03900
H 	H 	0.84239 0.79212 0.50179 0.04100
H 	H 	0.91698 0.78292 0.41956 0.04100
H 	H 	0.88259 0.70160 0.42584 0.04000
C 	C 	0.88850 0.06364 0.44157 0.01700
C 	C 	0.86856 0.06790 0.47135 -0.04400
C 	C 	0.85039 0.09375 0.47102 -0.03700
C 	C 	0.85210 0.11555 0.44088 0.00300
C 	C 	0.87104 0.11031 0.41066 -0.03700
C 	C 	0.88922 0.08444 0.41103 -0.04300
C 	C 	0.83571 0.14527 0.44167 0.01100
C 	C 	0.85906 0.18611 0.46864 -0.04600
C 	C 	0.84191 0.21285 0.47086 -0.03000
C 	C 	0.80135 0.19900 0.44615 -0.01200
C 	C 	0.77873 0.15893 0.41852 -0.02900
C 	C 	0.79587 0.13215 0.41625 -0.04500
C 	C 	0.78089 0.22377 0.45112 0.04700
C 	C 	0.76443 0.24506 0.45584 -0.12000
C 	C 	0.91074 0.04031 0.44339 -0.01100
C 	C 	0.92931 0.02076 0.44502 -0.03100
H 	H 	0.86779 0.05183 0.49501 0.04100
H 	H 	0.83551 0.09730 0.49435 0.03800
H 	H 	0.87245 0.12695 0.38726 0.03900
H 	H 	0.90456 0.08127 0.38789 0.04200
H 	H 	0.89009 0.19676 0.48817 0.04000
H 	H 	0.85962 0.24380 0.49227 0.03400
H 	H 	0.74735 0.14801 0.39931 0.03900
H 	H 	0.77771 0.10077 0.39524 0.04100
C 	C 	0.41325 0.19969 0.46063 -0.00900
C 	C 	0.39580 0.22207 0.47765 -0.03000
C 	C 	0.34718 0.19799 0.47636 -0.04400
C 	C 	0.31570 0.15134 0.45799 0.01100
C 	C 	0.33325 0.12895 0.44102 -0.04400
C 	C 	0.38190 0.15307 0.44235 -0.03000
C 	C 	0.26442 0.12589 0.45671 0.00400
C 	C 	0.23978 0.14060 0.43847 -0.03700
C 	C 	0.19115 0.11642 0.43730 -0.04300
C 	C 	0.16691 0.07743 0.45433 0.01700
C 	C 	0.19145 0.06275 0.47260 -0.04300
C 	C 	0.24006 0.08689 0.47382 -0.03700
C 	C 	0.11675 0.05211 0.45273 -0.01100
C 	C 	0.07475 0.03041 0.45172 -0.03100
C 	C 	0.46324 0.22487 0.46136 0.04600
C 	C 	0.50519 0.24639 0.46221 -0.10700
H 	H 	0.41986 0.25813 0.49182 0.04000
H 	H 	0.33399 0.21550 0.48970 0.04100
H 	H 	0.30921 0.09297 0.42670 0.04100
H 	H 	0.39515 0.13558 0.42907 0.03700
H 	H 	0.25827 0.17059 0.42510 0.03900
H 	H 	0.17236 0.12792 0.42308 0.04100
H 	H 	0.17290 0.03262 0.48583 0.04100
H 	H 	0.25881 0.07540 0.48811 0.03900
C 	C 	0.90298 0.81687 0.99425 0.01500
C 	C 	0.92477 0.79593 0.98407 -0.04300
C 	C 	0.90130 0.74806 0.98238 -0.03700
C 	C 	0.85584 0.72081 0.99091 0.00300
C 	C 	0.83402 0.74182 0.00105 -0.03600
C 	C 	0.85755 0.78974 0.00271 -0.04200
C 	C 	0.83120 0.67034 0.98928 0.00900
C 	C 	0.85002 0.65434 0.01319 -0.04300
C 	C 	0.82683 0.60648 0.01145 -0.02900
C 	C 	0.78472 0.57435 0.98584 -0.01100
C 	C 	0.76594 0.59023 0.96184 -0.02900
C 	C 	0.78911 0.63809 0.96354 -0.04400
C 	C 	0.76004 0.52512 0.98496 0.04600
C 	C 	0.73940 0.48390 0.98424 -0.10700
C 	C 	0.92743 0.86623 0.99608 -0.01100
C 	C 	0.94892 0.90763 0.99733 -0.03100
H 	H 	0.95989 0.81673 0.97746 0.04100
H 	H 	0.91834 0.73212 0.97437 0.03900
H 	H 	0.79898 0.72108 0.00779 0.03900
H 	H 	0.84051 0.80573 0.01062 0.04100
H 	H 	0.88246 0.67897 0.03318 0.04100
H 	H 	0.84146 0.59442 0.03015 0.03700
H 	H 	0.73335 0.56556 0.94200 0.04000
H 	H 	0.77447 0.65012 0.94482 0.04100
C 	C 	0.91713 0.09304 0.01101 0.01600
C 	C 	0.86787 0.06661 0.00053 -0.04200
C 	C 	0.84553 0.08852 0.00140 -0.03600
C 	C 	0.87237 0.13708 0.01281 0.00300
C 	C 	0.92164 0.16340 0.02398 -0.03700
C 	C 	0.94394 0.14142 0.02305 -0.04300
C 	C 	0.84916 0.16056 0.01123 0.01200
C 	C 	0.81428 0.14978 0.03249 -0.04500
C 	C 	0.79016 0.16981 0.02911 -0.03000
C 	C 	0.80082 0.20074 0.00453 -0.00800
C 	C 	0.83635 0.21233 0.98392 -0.03300
C 	C 	0.86042 0.19230 0.98722 -0.04700
C 	C 	0.77372 0.21875 0.99895 0.04500
C 	C 	0.75161 0.23435 0.99370 -0.11900
C 	C 	0.94025 0.07066 0.00835 -0.01000
C 	C 	0.95916 0.05149 0.00598 -0.03100
H 	H 	0.84693 0.02918 0.99126 0.03900
H 	H 	0.80751 0.06792 0.99260 0.03700
H 	H 	0.94264 0.20086 0.03299 0.03900
H 	H 	0.98204 0.16205 0.03131 0.04100
H 	H 	0.80552 0.12553 0.05126 0.04100
H 	H 	0.76279 0.16076 0.04519 0.04100
H 	H 	0.84477 0.23625 0.96488 0.03500
H 	H 	0.88719 0.20077 0.97063 0.04000
C 	C 	0.42602 0.19567 0.97259 -0.00900
C 	C 	0.39928 0.15739 0.98991 -0.03200
C 	C 	0.35163 0.13769 0.98993 -0.04600
C 	C 	0.33040 0.15615 0.97258 0.01100
C 	C 	0.35701 0.19401 0.95470 -0.04500
C 	C 	0.40470 0.21370 0.95471 -0.03100
C 	C 	0.28055 0.13628 0.97368 0.00400
C 	C 	0.24462 0.08981 0.95676 -0.03700
C 	C 	0.19772 0.06993 0.96000 -0.04300
C 	C 	0.18640 0.09635 0.98014 0.01700
C 	C 	0.22204 0.14310 0.99633 -0.04500
C 	C 	0.26902 0.16305 0.99310 -0.03900
C 	C 	0.13864 0.07463 0.98581 -0.01100
C 	C 	0.09826 0.05522 0.98995 -0.03100
C 	C 	0.47599 0.21834 0.97536 0.04600
C 	C 	0.51780 0.23706 0.97784 -0.11100
H 	H 	0.41558 0.14337 0.00387 0.04200
H 	H 	0.33139 0.10850 0.00383 0.04300
H 	H 	0.34084 0.20831 0.94105 0.04100
H 	H 	0.42519 0.24334 0.94130 0.03800
H 	H 	0.25315 0.06896 0.94153 0.03900
H 	H 	0.17030 0.03379 0.94736 0.04100
H 	H 	0.21352 0.16374 0.01190 0.04300
H 	H 	0.29652 0.19895 0.00627 0.04100
