data_crystal

_cell_length_a 24.76846
_cell_length_b 25.55102
_cell_length_c 38.90864
_cell_angle_alpha 60.87376
_cell_angle_beta  118.83384
_cell_angle_gamma 133.18147

_symmetry_space_group_name_	'P 1'
_symmetry_space_group_name_H-M	'P 1'

loop_
_symmetry_equiv_pos_as_xyz
  x,y,z

loop_
_atom_site_label
_atom_site_type_symbol
_atom_site_fract_x
_atom_site_fract_y
_atom_site_fract_z
_atom_site_charge
C 	C 	0.71493 0.26219 0.04541 0.11900
N 	N 	0.75618 0.33217 0.04887 -0.13700
C 	C 	0.72569 0.35074 0.05817 0.12200
N 	N 	0.65388 0.29984 0.06357 -0.13500
C 	C 	0.61166 0.23041 0.05959 0.12200
N 	N 	0.64224 0.21137 0.05057 -0.13700
C 	C 	0.73028 0.32614 0.52072 0.12000
N 	N 	0.65445 0.28168 0.51914 -0.13000
C 	C 	0.62199 0.30861 0.51877 0.12500
N 	N 	0.66509 0.38054 0.51876 -0.13500
C 	C 	0.74065 0.42511 0.52093 0.12500
N 	N 	0.77350 0.39799 0.52191 -0.13300
C 	C 	0.27226 0.63057 0.19087 0.12100
N 	N 	0.34811 0.67828 0.19184 -0.13300
C 	C 	0.38096 0.65931 0.18480 0.12300
N 	N 	0.33803 0.59274 0.17687 -0.13500
C 	C 	0.26255 0.54467 0.17576 0.12300
N 	N 	0.22955 0.56374 0.18268 -0.13500
C 	C 	0.29773 0.69174 0.66347 0.12300
N 	N 	0.36887 0.72714 0.66036 -0.13300
C 	C 	0.38376 0.69342 0.65158 0.12600
N 	N 	0.32783 0.62425 0.64603 -0.13500
C 	C 	0.25770 0.58693 0.65081 0.12300
N 	N 	0.24208 0.62080 0.65920 -0.13200
Co	Co	0.05084 0.98595 0.07223 1.19100
Co	Co	0.94776 0.91003 0.16816 1.19000
Co	Co	0.00643 0.04912 0.10434 1.18500
Co	Co	0.98794 0.84641 0.13436 1.18800
C 	C 	0.19759 0.00853 0.08548 0.28500
Co	Co	0.05509 0.85915 0.07479 1.18400
Co	Co	0.93956 0.03132 0.16759 1.16700
C 	C 	0.89900 0.73193 0.08549 0.28400
O 	O 	0.93772 0.10863 0.11401 -0.40800
O 	O 	0.96241 0.99245 0.14339 -0.74900
C 	C 	0.90348 0.09270 0.07884 0.29500
O 	O 	0.05587 0.07405 0.06416 -0.44900
O 	O 	0.94892 0.82497 0.17838 -0.45300
C 	C 	0.79899 0.87829 0.16435 0.29300
O 	O 	0.97363 0.93791 0.11063 -0.56900
C 	C 	0.09317 0.15840 0.15508 0.31100
C 	C 	0.01765 0.95217 0.99650 0.31800
C 	C 	0.08908 0.80160 0.16309 0.29700
O 	O 	0.92466 0.06995 0.06675 -0.37400
O 	O 	0.06476 0.93380 0.01843 -0.36100
O 	O 	0.00287 0.97611 0.01210 -0.35500
O 	O 	0.82778 0.94920 0.14837 -0.39000
O 	O 	0.83596 0.85137 0.17205 -0.37000
O 	O 	0.05481 0.10922 0.18338 -0.33700
O 	O 	0.09887 0.13752 0.13229 -0.36400
O 	O 	0.05179 0.78171 0.12908 -0.39900
O 	O 	0.08071 0.84115 0.17013 -0.37900
O 	O 	0.02335 0.89828 0.09270 -0.75600
C 	C 	0.00109 0.95562 0.24193 0.30200
O 	O 	0.94386 0.96044 0.22432 -0.38500
O 	O 	0.02036 0.94249 0.22228 -0.34300
O 	O 	0.16792 0.93748 0.09622 -0.37900
O 	O 	0.16685 0.03167 0.08961 -0.38300
O 	O 	0.93894 0.78447 0.05782 -0.30900
O 	O 	0.90196 0.74798 0.11464 -0.36200
Co	Co	0.06643 0.04967 0.55104 1.18600
Co	Co	0.94665 0.94665 0.64547 1.19500
Co	Co	0.99725 0.08867 0.58290 1.18400
Co	Co	0.01263 0.90726 0.61303 1.18700
C 	C 	0.21282 0.09995 0.54465 0.30000
Co	Co	0.09170 0.93807 0.55246 1.17800
Co	Co	0.89967 0.04136 0.64000 1.17600
C 	C 	0.94473 0.79651 0.57114 0.30600
O 	O 	0.82887 0.03204 0.58332 -0.39100
O 	O 	0.95615 0.02686 0.62307 -0.76100
C 	C 	0.85600 0.08704 0.55263 0.29500
O 	O 	0.05468 0.12672 0.54290 -0.44700
O 	O 	0.95924 0.87033 0.65443 -0.44500
C 	C 	0.78990 0.88214 0.64050 0.31000
O 	O 	0.02983 0.01049 0.60721 -0.57900
C 	C 	0.04347 0.19467 0.62171 0.30500
C 	C 	0.01261 0.99492 0.47805 0.31800
C 	C 	0.14193 0.89203 0.64018 0.29200
O 	O 	0.90845 0.10025 0.54165 -0.36700
O 	O 	0.00876 0.93450 0.50040 -0.34600
O 	O 	0.00893 0.02986 0.49257 -0.34600
O 	O 	0.82426 0.92890 0.66160 -0.33500
O 	O 	0.82962 0.88489 0.62559 -0.38200
O 	O 	0.97022 0.15585 0.61836 -0.39500
O 	O 	0.06921 0.17554 0.61028 -0.37900
O 	O 	0.16762 0.94259 0.60773 -0.38400
O 	O 	0.09267 0.88330 0.65146 -0.36400
O 	O 	0.05803 0.96941 0.57493 -0.75300
C 	C 	0.97629 0.98826 0.71939 0.30800
O 	O 	0.97629 0.04640 0.69526 -0.36800
O 	O 	0.97825 0.94997 0.70624 -0.33000
O 	O 	0.16902 0.04664 0.52639 -0.38300
O 	O 	0.18281 0.11426 0.55631 -0.38000
O 	O 	0.01592 0.82625 0.57574 -0.39900
O 	O 	0.92792 0.82625 0.58073 -0.37900
C 	C 	0.97385 0.91010 0.90372 0.03800
C 	C 	0.00095 0.97938 0.87620 0.09400
C 	C 	0.01700 0.03711 0.88524 -0.10700
C 	C 	0.01734 0.02690 0.92459 0.06600
C 	C 	0.99170 0.95727 0.95233 0.01000
C 	C 	0.96004 0.89675 0.93903 -0.08200
C 	C 	0.99843 0.98569 0.83538 0.10400
C 	C 	0.02538 0.10518 0.85227 0.79100
H 	H 	0.03890 0.07309 0.93385 0.08400
C 	C 	0.91307 0.81813 0.96269 0.77700
H 	H 	0.95863 0.86507 0.89625 0.10700
C 	C 	0.06301 0.01009 0.82649 -0.11300
C 	C 	0.05505 0.00702 0.78878 0.06600
C 	C 	0.98268 0.97074 0.76301 0.00900
C 	C 	0.91788 0.93420 0.77635 -0.08500
C 	C 	0.92690 0.95064 0.80906 0.03200
C 	C 	0.13706 0.03071 0.85853 0.78700
H 	H 	0.10490 0.03311 0.77939 0.07900
C 	C 	0.83956 0.87527 0.75739 0.77600
H 	H 	0.87702 0.92929 0.81651 0.10700
F 	F 	0.96090 0.79825 0.99166 -0.47800
F 	F 	0.86176 0.77000 0.93755 -0.44000
F 	F 	0.87172 0.81156 0.98075 -0.45100
F 	F 	0.95726 0.08423 0.82348 -0.44200
F 	F 	0.08187 0.13987 0.83384 -0.40800
F 	F 	0.04398 0.15595 0.86754 -0.43100
F 	F 	0.79824 0.81957 0.78658 -0.43800
F 	F 	0.84423 0.84336 0.73959 -0.46000
F 	F 	0.80140 0.90626 0.72891 -0.46100
F 	F 	0.19454 0.05924 0.84282 -0.43400
F 	F 	0.12593 0.96830 0.88934 -0.43600
F 	F 	0.16121 0.08342 0.87447 -0.40900
C 	C 	0.09086 0.05186 0.31837 0.02500
C 	C 	0.05087 0.99308 0.34834 0.10600
C 	C 	0.01615 0.91960 0.34917 -0.12100
C 	C 	0.00888 0.90622 0.31543 0.07600
C 	C 	0.04299 0.96548 0.28359 0.00200
C 	C 	0.09516 0.03781 0.28942 -0.08500
C 	C 	0.04246 0.00852 0.37730 0.07500
C 	C 	0.98368 0.85518 0.38457 0.79200
H 	H 	0.97177 0.84997 0.31245 0.07400
C 	C 	0.16259 0.09687 0.27019 0.78300
H 	H 	0.12027 0.10841 0.31817 0.11100
C 	C 	0.10624 0.04978 0.40605 -0.11600
C 	C 	0.09475 0.06450 0.43149 0.06200
C 	C 	0.02147 0.02338 0.43635 -0.01600
C 	C 	0.95831 0.98786 0.40578 -0.06400
C 	C 	0.96968 0.98207 0.37589 0.03800
C 	C 	0.18588 0.07696 0.41057 0.78600
H 	H 	0.14323 0.10147 0.45088 0.07100
C 	C 	0.87838 0.95030 0.40705 0.77800
H 	H 	0.92153 0.95409 0.35263 0.10500
F 	F 	0.22859 0.11207 0.30008 -0.40500
F 	F 	0.16644 0.16096 0.25113 -0.44500
F 	F 	0.15870 0.07497 0.24233 -0.44600
F 	F 	0.91070 0.82997 0.37960 -0.44100
F 	F 	0.02845 0.87599 0.42080 -0.42800
F 	F 	0.98067 0.79743 0.38689 -0.43800
F 	F 	0.82989 0.94379 0.36896 -0.43300
F 	F 	0.87809 0.99096 0.42074 -0.43500
F 	F 	0.85125 0.88037 0.43283 -0.42300
F 	F 	0.23122 0.09001 0.44851 -0.44300
F 	F 	0.21939 0.14242 0.38187 -0.43200
F 	F 	0.18401 0.02508 0.40623 -0.41100
C 	C 	0.20142 0.50829 0.64993 0.00200
C 	C 	0.12741 0.48225 0.62561 -0.02200
C 	C 	0.08117 0.41483 0.61543 -0.03000
C 	C 	0.10912 0.37351 0.62902 0.00700
C 	C 	0.18211 0.39778 0.65508 0.04300
C 	C 	0.22669 0.46365 0.66656 -0.04500
C 	C 	0.21081 0.35740 0.66803 -0.05400
C 	C 	0.16710 0.29306 0.65535 0.02300
C 	C 	0.09406 0.26802 0.62995 -0.06900
C 	C 	0.06554 0.30891 0.61642 -0.00400
H 	H 	0.10711 0.51588 0.61293 0.05300
H 	H 	0.02466 0.39602 0.59595 0.04900
H 	H 	0.28311 0.48273 0.68634 0.06500
H 	H 	0.26696 0.37583 0.68790 0.06700
H 	H 	0.18918 0.26155 0.66624 0.05100
H 	H 	0.00933 0.29005 0.59643 0.05000
C 	C 	0.46234 0.72550 0.65545 -0.00400
C 	C 	0.50892 0.71905 0.69409 -0.01100
C 	C 	0.57865 0.73645 0.69855 -0.03200
C 	C 	0.60358 0.76261 0.66429 0.02900
C 	C 	0.55775 0.77084 0.62523 0.03100
C 	C 	0.48654 0.75101 0.62099 -0.04200
C 	C 	0.58516 0.80133 0.59105 -0.04900
C 	C 	0.66013 0.82978 0.59581 0.01000
C 	C 	0.70731 0.82620 0.63471 -0.04900
C 	C 	0.67598 0.78557 0.66853 -0.00700
H 	H 	0.48983 0.69816 0.72077 0.06100
H 	H 	0.61378 0.73062 0.72864 0.09100
H 	H 	0.44998 0.75505 0.59113 0.05800
H 	H 	0.55003 0.80664 0.56088 0.06000
H 	H 	0.68322 0.85956 0.56937 0.05300
H 	H 	0.71076 0.77841 0.69844 0.11500
C 	C 	0.15983 0.83785 0.66057 -0.06900
C 	C 	0.10069 0.76292 0.66037 0.01600
C 	C 	0.11606 0.71649 0.66422 -0.05700
C 	C 	0.19105 0.74417 0.66931 0.03800
C 	C 	0.25146 0.81694 0.67428 0.00700
C 	C 	0.23554 0.86328 0.67018 -0.00700
C 	C 	0.32660 0.84395 0.68082 -0.03100
C 	C 	0.34159 0.80127 0.67961 -0.02200
C 	C 	0.28145 0.73116 0.67110 0.00300
C 	C 	0.20615 0.70152 0.66750 -0.04700
H 	H 	0.04217 0.74211 0.65413 0.04500
H 	H 	0.06935 0.66001 0.66167 0.05700
H 	H 	0.28151 0.92061 0.67140 0.05000
H 	H 	0.37352 0.89887 0.68589 0.05200
H 	H 	0.40010 0.82367 0.68430 0.05900
H 	H 	0.15946 0.64682 0.66205 0.06100
C 	C 	0.13083 0.23750 0.14965 -0.05300
C 	C 	0.20569 0.29184 0.14454 0.03100
C 	C 	0.24517 0.36426 0.14640 -0.05100
C 	C 	0.21025 0.38278 0.15375 0.04300
C 	C 	0.13417 0.32898 0.15751 0.01100
C 	C 	0.09452 0.25696 0.15488 0.00400
C 	C 	0.09934 0.34704 0.16521 -0.03000
C 	C 	0.14049 0.41739 0.17046 -0.02200
C 	C 	0.21699 0.47110 0.16772 0.00100
C 	C 	0.25120 0.45382 0.15848 -0.04600
H 	H 	0.23424 0.27756 0.14051 0.05900
H 	H 	0.30341 0.40535 0.14309 0.06100
H 	H 	0.03638 0.21527 0.15843 0.03900
H 	H 	0.04066 0.30617 0.16780 0.04900
H 	H 	0.11295 0.42965 0.17712 0.05200
H 	H 	0.30972 0.49504 0.15558 0.06000
C 	C 	0.72112 0.82689 0.17128 -0.06500
C 	C 	0.68855 0.75117 0.18952 0.01700
C 	C 	0.61684 0.70388 0.19795 -0.05500
C 	C 	0.57679 0.73167 0.18831 0.04000
C 	C 	0.60920 0.80763 0.17018 0.00700
C 	C 	0.68084 0.85477 0.16151 -0.01000
C 	C 	0.56921 0.83546 0.16058 -0.03200
C 	C 	0.49629 0.78770 0.16754 -0.02200
C 	C 	0.46254 0.71159 0.18424 0.00100
C 	C 	0.50401 0.68414 0.19576 -0.04600
H 	H 	0.71883 0.72888 0.19746 0.05300
H 	H 	0.59244 0.64562 0.21191 0.06200
H 	H 	0.70529 0.91304 0.14735 0.04700
H 	H 	0.59394 0.89387 0.14699 0.04700
H 	H 	0.46502 0.80952 0.15857 0.05100
H 	H 	0.47875 0.62560 0.20941 0.06300
C 	C 	0.23597 0.65126 0.19860 0.00100
C 	C 	0.16519 0.59612 0.20926 -0.02400
C 	C 	0.12777 0.61532 0.21333 -0.03300
C 	C 	0.16022 0.68998 0.20663 0.00700
C 	C 	0.23314 0.74560 0.19827 0.03600
C 	C 	0.27100 0.72615 0.19436 -0.04800
C 	C 	0.26520 0.82026 0.19155 -0.05600
C 	C 	0.22147 0.83966 0.18828 0.01400
C 	C 	0.14492 0.78485 0.19075 -0.06600
C 	C 	0.11799 0.71007 0.20479 -0.00700
H 	H 	0.13856 0.53825 0.21398 0.05200
H 	H 	0.07243 0.57208 0.22054 0.04900
H 	H 	0.32597 0.76915 0.18668 0.05800
H 	H 	0.32230 0.86352 0.18662 0.05700
H 	H 	0.24437 0.89761 0.17925 0.05100
H 	H 	0.06011 0.66739 0.20874 0.04600
C 	C 	0.84499 0.14533 0.53942 -0.07700
C 	C 	0.83318 0.18210 0.49846 0.01800
C 	C 	0.81120 0.22826 0.48613 -0.06000
C 	C 	0.80263 0.23926 0.51489 0.03800
C 	C 	0.81854 0.20549 0.55620 0.00100
C 	C 	0.83642 0.15672 0.56796 0.00100
C 	C 	0.81373 0.21867 0.58533 -0.03400
C 	C 	0.78917 0.26176 0.57351 -0.02500
C 	C 	0.76809 0.29163 0.53243 0.00100
C 	C 	0.77616 0.28167 0.50293 -0.04900
H 	H 	0.83831 0.17311 0.47603 0.04900
H 	H 	0.80011 0.25456 0.45432 0.06000
H 	H 	0.84116 0.12562 0.59924 0.02000
H 	H 	0.82781 0.19442 0.61722 0.05300
H 	H 	0.78391 0.26981 0.59634 0.05200
H 	H 	0.76055 0.30525 0.47111 0.06100
C 	C 	0.78755 0.49991 0.52675 -0.00300
C 	C 	0.83890 0.56167 0.50236 -0.01100
C 	C 	0.87359 0.63336 0.50296 -0.03300
C 	C 	0.85779 0.64401 0.52830 0.02300
C 	C 	0.80725 0.58217 0.55343 0.03300
C 	C 	0.77263 0.51040 0.55270 -0.04300
C 	C 	0.79269 0.59295 0.57934 -0.05300
C 	C 	0.83188 0.66459 0.58215 0.01500
C 	C 	0.88518 0.72608 0.55875 -0.05600
C 	C 	0.89431 0.71570 0.53003 -0.00200
H 	H 	0.85014 0.55424 0.48198 0.06500
H 	H 	0.91260 0.68055 0.48367 0.09400
H 	H 	0.73327 0.46273 0.57177 0.05600
H 	H 	0.75304 0.54585 0.59831 0.05600
H 	H 	0.82405 0.67184 0.60422 0.04800
H 	H 	0.93423 0.76333 0.51123 0.08100
C 	C 	0.54301 0.25818 0.52391 0.00600
C 	C 	0.50915 0.18223 0.54201 -0.01800
C 	C 	0.43966 0.13697 0.55247 -0.02200
C 	C 	0.40325 0.16707 0.54513 0.01600
C 	C 	0.43623 0.24298 0.52646 0.04800
C 	C 	0.50512 0.28787 0.51522 -0.04300
C 	C 	0.39976 0.27303 0.51918 -0.05200
C 	C 	0.32922 0.22723 0.52865 0.02500
C 	C 	0.29457 0.15108 0.54555 -0.06300
C 	C 	0.33325 0.12177 0.55526 0.00600
H 	H 	0.53751 0.15851 0.54901 0.05700
H 	H 	0.41453 0.07862 0.56661 0.05400
H 	H 	0.52997 0.34606 0.50045 0.06600
H 	H 	0.42511 0.33148 0.50534 0.06300
H 	H 	0.29984 0.25033 0.52097 0.04800
H 	H 	0.30683 0.06299 0.56872 0.04800
C 	C 	0.75011 0.24129 0.03699 -0.00100
C 	C 	0.81991 0.29656 0.02523 -0.02400
C 	C 	0.85902 0.27743 0.02296 -0.03500
C 	C 	0.82888 0.20280 0.03213 0.00700
C 	C 	0.75596 0.14691 0.04056 0.03100
C 	C 	0.71668 0.16626 0.04297 -0.04900
C 	C 	0.72564 0.07228 0.04913 -0.05400
C 	C 	0.77095 0.05345 0.05410 -0.00200
C 	C 	0.84737 0.10886 0.05151 -0.06500
C 	C 	0.87331 0.18326 0.03636 -0.00900
H 	H 	0.84491 0.35454 0.01873 0.05400
H 	H 	0.91399 0.32081 0.01533 0.05000
H 	H 	0.66205 0.12315 0.05103 0.05600
H 	H 	0.66865 0.02874 0.05421 0.04900
H 	H 	0.74927 0.99569 0.06436 0.05000
H 	H 	0.93139 0.22625 0.03277 0.04800
C 	C 	0.85418 0.65359 0.08543 -0.03700
C 	C 	0.83713 0.59749 0.12137 0.00100
C 	C 	0.80963 0.52668 0.12355 -0.04800
C 	C 	0.80063 0.51169 0.09013 0.02400
C 	C 	0.81660 0.56749 0.05383 0.03400
C 	C 	0.83970 0.63682 0.05111 -0.02600
C 	C 	0.81070 0.55373 0.02092 -0.04400
C 	C 	0.78702 0.48432 0.02364 -0.01500
C 	C 	0.76742 0.42742 0.05891 -0.00600
C 	C 	0.77551 0.44158 0.09243 -0.04200
H 	H 	0.84754 0.60926 0.14804 0.05000
H 	H 	0.79717 0.48415 0.15152 0.05200
H 	H 	0.84860 0.67834 0.02271 0.12500
H 	H 	0.82397 0.59662 0.99312 0.09400
H 	H 	0.78057 0.47373 0.99763 0.06200
H 	H 	0.76047 0.39762 0.11975 0.05200
C 	C 	0.53180 0.17721 0.06358 -0.00200
C 	C 	0.47653 0.12220 0.04181 -0.01900
C 	C 	0.39936 0.07955 0.04080 -0.03300
C 	C 	0.37652 0.09190 0.06125 0.01400
C 	C 	0.43184 0.14619 0.08373 0.03500
C 	C 	0.50923 0.18733 0.08556 -0.04600
C 	C 	0.40901 0.15918 0.10379 -0.05500
C 	C 	0.33185 0.11726 0.10238 0.01500
C 	C 	0.27671 0.06174 0.08101 -0.06100
C 	C 	0.29913 0.05023 0.05978 -0.01000
H 	H 	0.49297 0.11381 0.02472 0.05600
H 	H 	0.35733 0.03769 0.02364 0.06400
H 	H 	0.55177 0.22844 0.10326 0.05800
H 	H 	0.45105 0.20118 0.12087 0.05800
H 	H 	0.31528 0.12622 0.11907 0.05100
H 	H 	0.25648 0.00763 0.04305 0.05800
