data_crystal

_cell_length_a 14.23965
_cell_length_b 17.87896
_cell_length_c 47.37158
_cell_angle_alpha 90.35580
_cell_angle_beta  90.35328
_cell_angle_gamma 119.31358

_symmetry_space_group_name_	'P 1'
_symmetry_space_group_name_H-M	'P 1'

loop_
_symmetry_equiv_pos_as_xyz
  x,y,z

loop_
_atom_site_label
_atom_site_type_symbol
_atom_site_fract_x
_atom_site_fract_y
_atom_site_fract_z
_atom_site_charge
C 	C 	0.00577 0.94067 0.72006 0.37200
C 	C 	0.13555 0.07334 0.78758 0.32500
Ni	Ni	0.97866 0.88756 0.77884 1.13100
O 	O 	0.02262 0.01619 0.72886 -0.36100
O 	O 	0.12083 0.99908 0.77717 -0.35700
O 	O 	0.07276 0.10542 0.77991 -0.34000
O 	O 	0.96243 0.87434 0.73677 -0.38000
C 	C 	0.34236 0.55612 0.48800 0.30800
C 	C 	0.30546 0.49746 0.39229 0.33000
C 	C 	0.33864 0.82634 0.42111 0.37000
C 	C 	0.12950 0.63047 0.44239 0.31700
Ni	Ni	0.30823 0.66412 0.39997 1.12800
Ni	Ni	0.34854 0.71350 0.46553 1.12500
O 	O 	0.38615 0.53388 0.46723 -0.35700
O 	O 	0.37351 0.63786 0.49323 -0.37200
O 	O 	0.37850 0.79139 0.40412 -0.36700
O 	O 	0.43614 0.68197 0.37587 -0.36100
O 	O 	0.19101 0.63125 0.46351 -0.38500
O 	O 	0.16314 0.64489 0.41553 -0.35800
O 	O 	0.40703 0.53576 0.40182 -0.36400
O 	O 	0.24710 0.53709 0.39230 -0.33500
O 	O 	0.31748 0.80163 0.44748 -0.37900
O 	O 	0.35977 0.64840 0.43499 -0.71300
H 	H 	0.29921 0.59099 0.43887 0.16400
C 	C 	0.46278 0.79771 0.21344 0.33000
C 	C 	0.27126 0.55300 0.12092 0.33500
C 	C 	0.35382 0.55155 0.20953 0.36500
C 	C 	0.39175 0.79470 0.11979 0.31700
Ni	Ni	0.32460 0.66859 0.16981 1.11900
Ni	Ni	0.50097 0.69127 0.12347 1.12400
Ni	Ni	0.55812 0.69237 0.18871 1.13100
O 	O 	0.38026 0.77462 0.19584 -0.35100
O 	O 	0.50269 0.74514 0.21889 -0.33600
O 	O 	0.49953 0.58460 0.13487 -0.39300
O 	O 	0.27194 0.55442 0.14830 -0.37600
O 	O 	0.34890 0.61657 0.10712 -0.37200
O 	O 	0.31054 0.60129 0.20680 -0.35400
O 	O 	0.44559 0.57119 0.19766 -0.36600
O 	O 	0.30977 0.73282 0.13398 -0.35400
O 	O 	0.48094 0.79167 0.11449 -0.37200
O 	O 	0.46899 0.70615 0.16120 -0.71600
H 	H 	0.49788 0.76866 0.16185 0.18100
C 	C 	0.31333 0.98202 0.26706 0.32500
C 	C 	0.15588 0.19242 0.32376 0.35100
C 	C 	0.20261 0.97316 0.33889 0.34200
C 	C 	0.22297 0.22187 0.25367 0.32800
Ni	Ni	0.27123 0.11219 0.29618 1.12800
O 	O 	0.33829 0.06405 0.26737 -0.35000
O 	O 	0.22422 0.92126 0.27914 -0.33600
O 	O 	0.19984 0.14438 0.32826 -0.35600
O 	O 	0.09262 0.17866 0.30164 -0.36900
O 	O 	0.28346 0.02802 0.32373 -0.34800
O 	O 	0.10554 0.92936 0.32751 -0.33600
O 	O 	0.29357 0.21715 0.27130 -0.33400
O 	O 	0.13071 0.15367 0.24649 -0.32400
O 	O 	0.13795 0.03753 0.27984 -0.72100
H 	H 	0.16233 0.04229 0.26020 0.16700
C 	C 	0.23834 0.39498 0.20559 -0.07600
C 	C 	0.29374 0.46802 0.22285 -0.12900
C 	C 	0.31664 0.45878 0.25104 0.35500
C 	C 	0.29311 0.37822 0.26107 -0.09100
C 	C 	0.24587 0.30617 0.24307 -0.10400
C 	C 	0.21553 0.31446 0.21548 0.34100
F 	F 	0.16902 0.24540 0.19781 -0.40400
H 	H 	0.22008 0.40159 0.18380 0.10500
H 	H 	0.31291 0.37199 0.28272 0.12400
F 	F 	0.36819 0.52881 0.26814 -0.42600
C 	C 	0.45448 0.85256 0.26068 -0.08600
C 	C 	0.48748 0.87008 0.23254 -0.10600
C 	C 	0.50002 0.94630 0.22058 0.34300
C 	C 	0.45103 0.98937 0.23320 -0.09100
C 	C 	0.39628 0.95958 0.25869 -0.10900
C 	C 	0.40820 0.89696 0.27377 0.34600
F 	F 	0.36848 0.87525 0.30025 -0.42300
H 	H 	0.45224 0.79793 0.27110 0.12300
H 	H 	0.44840 0.04115 0.22212 0.11100
F 	F 	0.54376 0.97013 0.19458 -0.43400
C 	C 	0.11866 0.28806 0.35462 -0.07500
C 	C 	0.19297 0.27121 0.34067 -0.13300
C 	C 	0.30380 0.32774 0.34410 0.34700
C 	C 	0.33999 0.40059 0.36123 -0.08900
C 	C 	0.26608 0.41763 0.37543 -0.11000
C 	C 	0.15484 0.36049 0.37219 0.33900
F 	F 	0.08208 0.37417 0.38643 -0.42400
H 	H 	0.03305 0.24419 0.35233 0.10600
H 	H 	0.42569 0.44457 0.36312 0.11300
F 	F 	0.37655 0.31261 0.33047 -0.45000
C 	C 	0.18582 0.83930 0.40163 -0.08300
C 	C 	0.29548 0.87843 0.40902 -0.13500
C 	C 	0.36626 0.96013 0.39880 0.35800
C 	C 	0.33097 0.99674 0.37832 -0.08900
C 	C 	0.22598 0.95002 0.36698 -0.10700
C 	C 	0.15100 0.87431 0.38040 0.34200
F 	F 	0.04588 0.83298 0.37223 -0.42700
H 	H 	0.12904 0.77875 0.41087 0.09900
H 	H 	0.38756 0.05860 0.36976 0.11900
F 	F 	0.47120 0.00117 0.40715 -0.41500
C 	C 	0.94531 0.61135 0.46045 0.07100
C 	C 	0.02604 0.61982 0.44949 -0.09000
C 	C 	0.26955 0.49253 0.50708 -0.08800
H 	H 	0.11631 0.26914 0.52541 0.05200
C 	C 	0.14938 0.91980 0.69897 -0.08000
C 	C 	0.06439 0.93750 0.69519 -0.12500
C 	C 	0.06056 0.97899 0.67051 0.35200
C 	C 	0.15181 0.01963 0.65361 -0.08900
C 	C 	0.24661 0.01915 0.66160 -0.12500
C 	C 	0.24109 0.96114 0.68225 0.35000
H 	H 	0.15014 0.88296 0.71696 0.11000
H 	H 	0.15290 0.05995 0.63648 0.10000
F 	F 	0.97412 0.98958 0.66503 -0.43200
C 	C 	0.97452 0.40199 0.08657 0.00700
C 	C 	0.08274 0.45272 0.09712 0.06000
C 	C 	0.17135 0.49789 0.10687 -0.09700
H 	H 	0.00983 0.31952 0.06049 0.05300
C 	C 	0.38449 0.90812 0.08712 0.06100
C 	C 	0.37586 0.85470 0.10371 -0.07900
C 	C 	0.35559 0.26462 0.82502 -0.08400
C 	C 	0.37295 0.22556 0.84863 -0.12300
C 	C 	0.32607 0.13565 0.84924 0.35000
C 	C 	0.25377 0.08560 0.82798 -0.08900
C 	C 	0.22903 0.12484 0.80581 -0.11300
C 	C 	0.28461 0.21454 0.80363 0.34700
F 	F 	0.26786 0.25318 0.78107 -0.42200
H 	H 	0.39490 0.33385 0.82356 0.10900
H 	H 	0.21357 0.01629 0.82937 0.11800
F 	F 	0.34991 0.09682 0.87047 -0.42300
Ni	Ni	0.47304 0.62221 0.43602 1.11800
O 	O 	0.50749 0.79840 0.46356 -0.35700
C 	C 	0.59082 0.59339 0.14298 0.32900
C 	C 	0.11269 0.29960 0.54491 -0.03100
C 	C 	0.20962 0.44258 0.52416 0.05700
H 	H 	0.09146 0.19373 0.57049 0.05100
C 	C 	0.40094 0.96395 0.06387 0.00500
H 	H 	0.47064 0.07989 0.08926 0.05900
H 	H 	0.34145 0.86183 0.03274 0.05500
C 	C 	0.43825 0.27875 0.87264 0.34300
O 	O 	0.63544 0.64018 0.16591 -0.33200
C 	C 	0.13846 0.38591 0.54523 0.00300
C 	C 	0.09803 0.25674 0.57049 -0.03000
F 	F 	0.32886 0.95287 0.68830 -0.41500
C 	C 	0.39012 0.93029 0.03650 -0.02700
O 	O 	0.42199 0.24505 0.89796 -0.33900
C 	C 	0.35079 0.09449 0.65547 0.34700
C 	C 	0.46266 0.05285 0.06827 -0.02700
O 	O 	0.36679 0.12787 0.62966 -0.38100
C 	C 	0.65710 0.59165 0.12045 -0.07300
C 	C 	0.53743 0.72994 0.38393 0.35300
O 	O 	0.66977 0.80744 0.17636 -0.37200
O 	O 	0.56985 0.72006 0.40893 -0.34000
C 	C 	0.11661 0.30263 0.59593 0.00600
C 	C 	0.12300 0.42113 0.57017 -0.02700
O 	O 	0.49280 0.36216 0.86980 -0.38600
C 	C 	0.19150 0.29897 0.61548 0.06900
O 	O 	0.48872 0.40734 0.92687 -0.37100
C 	C 	0.26000 0.29249 0.62841 -0.09000
C 	C 	0.52307 0.10597 0.04619 -0.02700
H 	H 	0.57211 0.17435 0.04989 0.04900
O 	O 	0.41553 0.13591 0.67706 -0.36900
C 	C 	0.10906 0.37786 0.59567 -0.02600
H 	H 	0.73786 0.86588 0.56526 0.05800
H 	H 	0.53429 0.42810 0.01789 0.05800
H 	H 	0.56818 0.44022 0.06908 0.05100
C 	C 	0.62043 0.49306 0.05567 -0.03200
C 	C 	0.68805 0.58750 0.09705 0.05800
H 	H 	0.76246 0.97668 0.60033 0.07100
C 	C 	0.70013 0.57009 0.06776 0.00200
C 	C 	0.57965 0.77951 0.47312 0.33500
C 	C 	0.57142 0.48530 0.92700 0.31600
Ni	Ni	0.51473 0.30766 0.93172 1.12400
C 	C 	0.35313 0.28987 0.63841 0.33100
Ni	Ni	0.49814 0.23535 0.61521 1.12500
O 	O 	0.43214 0.31009 0.62081 -0.39200
O 	O 	0.35372 0.25857 0.66349 -0.36300
O 	O 	0.56671 0.70218 0.46924 -0.35600
C 	C 	0.71776 0.81803 0.15187 0.33500
O 	O 	0.66598 0.76967 0.12906 -0.35500
C 	C 	0.61937 0.78389 0.36318 -0.11200
H 	H 	0.55348 0.69008 0.32930 0.12100
F 	F 	0.70467 0.89753 0.39736 -0.41500
H 	H 	0.13502 0.48585 0.57038 0.05400
H 	H 	0.11184 0.41014 0.61535 0.06300
C 	C 	0.51955 0.07070 0.01944 0.00200
C 	C 	0.45041 0.98314 0.01449 -0.02500
C 	C 	0.61501 0.52469 0.95424 -0.06000
C 	C 	0.60044 0.48646 0.02660 -0.02900
C 	C 	0.66428 0.55488 0.00886 0.01000
O 	O 	0.54438 0.20873 0.93528 -0.35300
O 	O 	0.63268 0.51293 0.90430 -0.33600
O 	O 	0.57001 0.34483 0.97225 -0.38200
Ni	Ni	0.48648 0.26366 0.68162 1.12700
O 	O 	0.58146 0.17249 0.60784 -0.36200
H 	H 	0.85149 0.99363 0.15078 0.10800
C 	C 	0.61953 0.75146 0.33611 -0.08100
C 	C 	0.70527 0.86394 0.37161 0.35200
C 	C 	0.77332 0.93222 0.55883 -0.02600
C 	C 	0.65937 0.83765 0.49272 -0.08200
C 	C 	0.56872 0.12601 0.99589 0.05500
H 	H 	0.44334 0.95595 0.99355 0.06000
C 	C 	0.76756 0.63776 0.04994 -0.02800
C 	C 	0.74998 0.62996 0.02049 -0.02600
C 	C 	0.64331 0.54487 0.97862 0.07600
H 	H 	0.82920 0.69793 0.05892 0.06100
H 	H 	0.80117 0.68281 0.00696 0.06800
Ni	Ni	0.65070 0.42973 0.87833 1.12400
C 	C 	0.83561 0.86750 0.15258 -0.11700
C 	C 	0.78688 0.99504 0.57871 -0.02200
C 	C 	0.71838 0.89021 0.50976 0.06300
C 	C 	0.60624 0.16810 0.97508 -0.08800
O 	O 	0.64766 0.36340 0.91069 -0.70200
H 	H 	0.63314 0.30980 0.90127 0.16000
O 	O 	0.60988 0.32816 0.59065 -0.37600
H 	H 	0.57943 0.21981 0.65358 0.15900
C 	C 	0.88101 0.95421 0.16043 -0.08100
O 	O 	0.57272 0.27116 0.65016 -0.71800
C 	C 	0.62765 0.21563 0.94957 0.30300
H 	H 	0.59059 0.56785 0.68745 0.10800
H 	H 	0.51102 0.09223 0.72174 0.12500
C 	C 	0.67040 0.37339 0.98034 0.31800
C 	C 	0.78880 0.95292 0.53012 0.00500
F 	F 	0.86493 0.74688 0.15007 -0.43500
O 	O 	0.69071 0.35030 0.85624 -0.35200
C 	C 	0.68834 0.20988 0.60948 0.30700
O 	O 	0.60149 0.26443 0.70818 -0.33900
C 	C 	0.70703 0.79668 0.31813 0.35000
C 	C 	0.88960 0.82388 0.16175 0.34000
F 	F 	0.50889 0.95298 0.74014 -0.39600
F 	F 	0.63531 0.70543 0.71715 -0.41200
C 	C 	0.73909 0.16624 0.59662 -0.07800
H 	H 	0.70706 0.27061 0.81166 0.12200
C 	C 	0.79280 0.90890 0.35374 -0.07600
C 	C 	0.77391 0.12578 0.58445 0.05900
C 	C 	0.81584 0.07807 0.56972 0.00300
C 	C 	0.69499 0.35808 0.00822 -0.10900
O 	O 	0.74916 0.42823 0.96507 -0.36900
O 	O 	0.54881 0.39274 0.68503 -0.36900
C 	C 	0.94395 0.98338 0.18515 0.34400
C 	C 	0.58974 0.09713 0.72339 -0.07100
C 	C 	0.65637 0.40999 0.59698 0.32700
F 	F 	0.97341 0.06283 0.19555 -0.40400
F 	F 	0.70543 0.76484 0.29193 -0.42000
F 	F 	0.71679 0.15015 0.78281 -0.42700
C 	C 	0.63704 0.57556 0.70652 -0.07800
O 	O 	0.72845 0.26788 0.94137 -0.33100
C 	C 	0.74299 0.23844 0.82308 -0.08600
F 	F 	0.79045 0.67289 0.92397 -0.43600
C 	C 	0.59855 0.02597 0.73258 0.37800
H 	H 	0.85960 0.96958 0.36079 0.11500
C 	C 	0.79542 0.87486 0.32717 -0.11100
C 	C 	0.66506 0.64657 0.72436 0.34400
C 	C 	0.76596 0.33104 0.86543 0.31300
C 	C 	0.67306 0.24106 0.70016 0.32600
C 	C 	0.75463 0.17361 0.80953 0.35600
C 	C 	0.64860 0.44480 0.69305 0.34900
O 	O 	0.69986 0.43701 0.62213 -0.36100
C 	C 	0.68784 0.46937 0.57408 -0.09000
C 	C 	0.73292 0.35160 0.03017 0.05600
C 	C 	0.84208 0.03955 0.52248 -0.02900
F 	F 	0.05106 0.77911 0.83087 -0.43300
Ni	Ni	0.78389 0.39415 0.92671 1.11600
O 	O 	0.74868 0.29260 0.61631 -0.35300
O 	O 	0.80897 0.51094 0.87561 -0.38600
C 	C 	0.77781 0.26174 0.85114 -0.10200
C 	C 	0.68250 0.17342 0.71558 -0.09400
Ni	Ni	0.71927 0.35556 0.65002 1.11900
H 	H 	0.79135 0.78049 0.88630 0.10400
O 	O 	0.67251 0.92380 0.76819 -0.30900
C 	C 	0.95131 0.85111 0.18674 -0.08600
C 	C 	0.85420 0.10220 0.54223 -0.02800
C 	C 	0.67207 0.51644 0.71277 -0.12000
C 	C 	0.96875 0.92735 0.20016 -0.10800
C 	C 	0.71365 0.51145 0.55285 0.05800
O 	O 	0.72786 0.43261 0.68445 -0.33100
H 	H 	0.74439 0.41474 0.08279 0.04900
H 	H 	0.86060 0.05702 0.50053 0.06400
O 	O 	0.74458 0.28378 0.68027 -0.31900
O 	O 	0.70786 0.77498 0.76943 -0.32000
C 	C 	0.69984 0.03023 0.73319 -0.12000
C 	C 	0.80296 0.13189 0.82375 -0.10900
C 	C 	0.84869 0.69476 0.89995 0.34300
O 	O 	0.78433 0.98995 0.81983 -0.34900
Ni	Ni	0.75254 0.88086 0.79619 1.11900
O 	O 	0.83325 0.37493 0.88669 -0.31900
C 	C 	0.86078 0.56128 0.89650 0.35500
C 	C 	0.82251 0.21764 0.86574 0.33900
Ni	Ni	0.07903 0.91721 0.28495 1.12600
O 	O 	0.79717 0.82282 0.82924 -0.34800
C 	C 	0.71414 0.95828 0.74371 0.37100
H 	H 	0.85413 0.67871 0.54324 0.05400
C 	C 	0.84451 0.75478 0.88169 -0.08800
C 	C 	0.72714 0.65823 0.74896 -0.11000
H 	H 	0.88114 0.16716 0.53530 0.05400
O 	O 	0.86215 0.52810 0.92090 -0.34500
C 	C 	0.73917 0.55472 0.52611 0.00300
C 	C 	0.83533 0.15346 0.85201 -0.08200
C 	C 	0.78633 0.34126 0.05432 -0.00600
C 	C 	0.82250 0.06776 0.80869 0.32300
F 	F 	0.85186 0.23581 0.89332 -0.43700
C 	C 	0.76704 0.73752 0.76645 0.33900
C 	C 	0.78362 0.17844 0.71787 0.35700
H 	H 	0.62886 0.44255 0.50189 0.05400
C 	C 	0.82562 0.63844 0.52448 -0.02800
C 	C 	0.80046 0.39170 0.07840 -0.02300
H 	H 	0.97815 0.81023 0.19658 0.10900
C 	C 	0.89034 0.92174 0.30892 0.35000
C 	C 	0.73190 0.52700 0.73762 0.34800
C 	C 	0.69922 0.50577 0.50122 -0.02700
C 	C 	0.90908 0.65456 0.89261 -0.12500
C 	C 	0.79145 0.10642 0.72496 -0.05700
H 	H 	0.87133 0.12114 0.86331 0.10200
O 	O 	0.95006 0.97861 0.24620 -0.33100
C 	C 	0.75870 0.59713 0.75564 -0.08800
O 	O 	0.85484 0.08369 0.78191 -0.33800
C 	C 	0.90839 0.78044 0.85742 -0.11300
C 	C 	0.99388 0.94093 0.23085 0.33200
O 	O 	0.80148 0.95819 0.73621 -0.36400
C 	C 	0.89607 0.83546 0.83596 0.32600
O 	O 	0.92229 0.87895 0.29255 -0.33700
O 	O 	0.93733 0.00573 0.30780 -0.37000
H 	H 	0.84220 0.26444 0.03235 0.05200
O 	O 	0.85643 0.76495 0.78117 -0.36500
C 	C 	0.88455 0.66593 0.49951 -0.02600
C 	C 	0.75881 0.53310 0.47635 -0.02800
F 	F 	0.87485 0.25329 0.71268 -0.41200
C 	C 	0.85562 0.30733 0.05006 -0.02600
O 	O 	0.04104 0.90099 0.24333 -0.37100
F 	F 	0.76364 0.46901 0.74439 -0.41700
H 	H 	0.87020 0.11106 0.72525 0.06200
C 	C 	0.89549 0.42318 0.09432 -0.02700
O 	O 	0.89680 0.94431 0.78384 -0.71400
H 	H 	0.73444 0.49036 0.45817 0.05900
H 	H 	0.95831 0.72709 0.49933 0.05400
H 	H 	0.91106 0.46894 0.11126 0.05900
C 	C 	0.85845 0.60873 0.47659 0.00400
C 	C 	0.98679 0.69189 0.87158 -0.08300
H 	H 	0.93021 0.97814 0.80113 0.16200
H 	H 	0.80504 0.60441 0.77469 0.11400
C 	C 	0.98462 0.75253 0.85345 0.34000
Ni	Ni	0.03205 0.07255 0.27569 1.12900
Ni	Ni	0.93515 0.03571 0.75833 1.12500
O 	O 	0.98186 0.88728 0.82127 -0.34600
H 	H 	0.03921 0.66556 0.86682 0.11200
C 	C 	0.95112 0.33917 0.06579 -0.02500
