data_crystal

_cell_length_a 26.15068
_cell_length_b 26.26008
_cell_length_c 31.69793
_cell_angle_alpha 95.44230
_cell_angle_beta  95.44551
_cell_angle_gamma 125.87640

_symmetry_space_group_name_	'P 1'
_symmetry_space_group_name_H-M	'P 1'

loop_
_symmetry_equiv_pos_as_xyz
  x,y,z

loop_
_atom_site_label
_atom_site_type_symbol
_atom_site_fract_x
_atom_site_fract_y
_atom_site_fract_z
_atom_site_charge
C 	C 	0.97065 0.03150 0.99352 0.10400
N 	N 	0.03397 0.06428 0.99099 -0.13300
C 	C 	0.05981 0.03234 0.98509 0.11100
N 	N 	0.02240 0.96790 0.98222 -0.13400
C 	C 	0.95925 0.93502 0.98432 0.10600
N 	N 	0.93344 0.96685 0.98983 -0.13700
C 	C 	0.93975 0.00060 0.45246 0.10500
N 	N 	0.90622 0.93635 0.45043 -0.13700
C 	C 	0.93792 0.90987 0.45314 0.10500
N 	N 	0.00289 0.94762 0.45795 -0.13500
C 	C 	0.03651 0.01169 0.46034 0.11100
N 	N 	0.00488 0.03810 0.45769 -0.13500
Cu	Cu	0.63960 0.23978 0.00613 0.92500
Cu	Cu	0.67982 0.23788 0.91152 0.86900
Cu	Cu	0.67296 0.34036 0.95038 0.89700
Cu	Cu	0.65186 0.36406 0.03898 0.89400
C 	C 	0.66869 0.29009 0.09684 0.28800
O 	O 	0.54814 0.20794 0.00953 -0.36100
C 	C 	0.64571 0.29576 0.85530 0.28600
O 	O 	0.69552 0.33953 0.00960 -0.64000
O 	O 	0.62628 0.24606 0.94496 -0.64100
O 	O 	0.67675 0.19170 0.99990 -0.37000
O 	O 	0.74353 0.25616 0.95729 -0.44000
O 	O 	0.64138 0.31797 0.08779 -0.38500
O 	O 	0.72362 0.43250 0.95906 -0.38500
C 	C 	0.71970 0.46942 0.98784 0.28700
C 	C 	0.52560 0.23851 0.99629 0.27600
O 	O 	0.56540 0.29794 0.99106 -0.39200
O 	O 	0.69384 0.44972 0.02232 -0.39600
O 	O 	0.66574 0.24944 0.06686 -0.36200
C 	C 	0.72922 0.21572 0.98353 0.27700
O 	O 	0.66308 0.34174 0.88784 -0.38300
O 	O 	0.63666 0.24243 0.86186 -0.42200
H 	H 	0.74229 0.36533 0.02069 0.16500
H 	H 	0.58085 0.22076 0.93028 0.17300
Cu	Cu	0.73500 0.33447 0.44958 0.92700
Cu	Cu	0.73235 0.28808 0.54222 0.86700
Cu	Cu	0.63705 0.30726 0.50671 0.89600
Cu	Cu	0.61646 0.33323 0.41967 0.89400
C 	C 	0.68716 0.31349 0.35910 0.30500
O 	O 	0.77342 0.42742 0.44752 -0.36100
C 	C 	0.67695 0.32304 0.60048 0.30000
O 	O 	0.63553 0.28420 0.44704 -0.64100
O 	O 	0.73056 0.34736 0.51127 -0.64100
O 	O 	0.77978 0.29380 0.45358 -0.37100
O 	O 	0.71296 0.22612 0.49474 -0.44100
O 	O 	0.66058 0.34170 0.36970 -0.38700
O 	O 	0.54505 0.26188 0.49946 -0.38300
C 	C 	0.50836 0.26221 0.46792 0.28300
C 	C 	0.74672 0.45374 0.46178 0.27300
O 	O 	0.68739 0.41708 0.46821 -0.39200
O 	O 	0.53285 0.29844 0.43849 -0.39300
O 	O 	0.72281 0.30884 0.38854 -0.36300
C 	C 	0.75428 0.24073 0.46903 0.28000
O 	O 	0.63918 0.32248 0.56922 -0.38000
O 	O 	0.72894 0.32889 0.59383 -0.42200
H 	H 	0.60677 0.23767 0.43533 0.16400
H 	H 	0.75892 0.39227 0.52690 0.17400
C 	C 	0.64431 0.31896 0.72392 0.01100
C 	C 	0.68612 0.37240 0.75691 -0.05800
C 	C 	0.68356 0.36589 0.80014 0.00800
C 	C 	0.66471 0.32381 0.64368 -0.10700
C 	C 	0.59483 0.25322 0.77743 0.01000
C 	C 	0.59730 0.25989 0.73427 -0.05900
C 	C 	0.65503 0.32257 0.68017 0.03500
C 	C 	0.63949 0.30567 0.81061 -0.08600
H 	H 	0.72231 0.41836 0.74916 0.04500
H 	H 	0.71797 0.40689 0.82539 0.03400
H 	H 	0.55969 0.20680 0.78505 0.03100
H 	H 	0.56436 0.21849 0.70893 0.04300
C 	C 	0.69900 0.29514 0.23187 0.01400
C 	C 	0.65951 0.23605 0.20344 -0.05800
C 	C 	0.65346 0.23387 0.15880 0.01500
C 	C 	0.69182 0.30402 0.31466 -0.09900
C 	C 	0.72905 0.34959 0.17096 0.01000
C 	C 	0.73546 0.35168 0.21550 -0.05700
C 	C 	0.69538 0.29866 0.27703 0.03700
C 	C 	0.68643 0.29087 0.14244 -0.08200
H 	H 	0.63144 0.19206 0.21583 0.04600
H 	H 	0.62055 0.18821 0.13708 0.03800
H 	H 	0.75513 0.39383 0.15865 0.02100
H 	H 	0.76651 0.39752 0.23726 0.04600
C 	C 	0.76716 0.64990 0.51133 -0.03900
C 	C 	0.79070 0.71269 0.50807 -0.05100
C 	C 	0.83282 0.74445 0.47965 0.03300
C 	C 	0.85103 0.71262 0.45411 -0.02200
C 	C 	0.82755 0.64953 0.45753 -0.00300
C 	C 	0.78540 0.61804 0.48620 0.01200
C 	C 	0.84620 0.61796 0.43223 0.01200
C 	C 	0.88806 0.64959 0.40367 -0.03800
C 	C 	0.91143 0.71224 0.40032 -0.05100
C 	C 	0.89336 0.74413 0.42555 0.03300
C 	C 	0.91835 0.80764 0.42334 -0.06100
C 	C 	0.90225 0.84028 0.44991 0.00600
C 	C 	0.85826 0.80817 0.47723 -0.06100
C 	C 	0.76138 0.55483 0.48898 -0.02800
C 	C 	0.77869 0.52269 0.46302 -0.06200
C 	C 	0.82201 0.55484 0.43528 -0.02700
H 	H 	0.73471 0.62609 0.53341 0.03800
H 	H 	0.77636 0.73665 0.52781 0.04100
H 	H 	0.90255 0.62570 0.38401 0.03800
H 	H 	0.94388 0.73605 0.37824 0.04100
H 	H 	0.95176 0.83235 0.40192 0.05000
H 	H 	0.84590 0.83346 0.49772 0.04900
H 	H 	0.72858 0.53033 0.51078 0.04300
H 	H 	0.83527 0.53011 0.41513 0.04900
C 	C 	0.93090 0.17255 0.41230 -0.05100
C 	C 	0.90516 0.20659 0.41479 -0.03800
C 	C 	0.85186 0.18511 0.43473 0.01000
C 	C 	0.82335 0.12813 0.45141 -0.00200
C 	C 	0.84946 0.09399 0.44906 -0.02300
C 	C 	0.90381 0.11668 0.42984 0.03300
C 	C 	0.82208 0.03801 0.46686 0.03300
C 	C 	0.76776 0.01562 0.48579 -0.05100
C 	C 	0.74165 0.04933 0.48790 -0.03900
C 	C 	0.76966 0.10603 0.47127 0.00900
C 	C 	0.74554 0.14161 0.47521 -0.02800
C 	C 	0.77548 0.19992 0.46025 -0.06900
C 	C 	0.82773 0.22071 0.43912 -0.02500
C 	C 	0.93136 0.08415 0.42930 -0.06100
C 	C 	0.90578 0.02979 0.44856 0.00600
C 	C 	0.85033 0.00607 0.46649 -0.06100
H 	H 	0.97242 0.19012 0.39719 0.04100
H 	H 	0.92712 0.25001 0.40157 0.03800
H 	H 	0.74605 0.97241 0.49926 0.04000
H 	H 	0.70008 0.03171 0.50297 0.03400
H 	H 	0.70436 0.12462 0.49063 0.03700
H 	H 	0.85040 0.26508 0.42698 0.04900
H 	H 	0.97327 0.10165 0.41460 0.04900
H 	H 	0.83045 0.96408 0.48125 0.05000
C 	C 	0.30302 0.23005 0.42679 -0.03700
C 	C 	0.23695 0.19530 0.42606 -0.05100
C 	C 	0.20523 0.14203 0.44640 0.03400
C 	C 	0.24036 0.12399 0.46802 -0.02200
C 	C 	0.30682 0.15882 0.46860 -0.00100
C 	C 	0.33819 0.21190 0.44778 0.01100
C 	C 	0.34175 0.14018 0.48967 0.01100
C 	C 	0.31016 0.08736 0.51044 -0.03700
C 	C 	0.24420 0.05289 0.50997 -0.05100
C 	C 	0.20892 0.07067 0.48862 0.03400
C 	C 	0.14250 0.03526 0.48712 -0.06000
C 	C 	0.10706 0.05216 0.46468 0.00600
C 	C 	0.13871 0.10604 0.44482 -0.06000
C 	C 	0.40421 0.24593 0.44797 -0.02500
C 	C 	0.43907 0.22702 0.46852 -0.06100
C 	C 	0.40767 0.17423 0.48943 -0.02400
H 	H 	0.32674 0.27090 0.41081 0.03800
H 	H 	0.21044 0.20968 0.40949 0.04200
H 	H 	0.33662 0.07280 0.52684 0.03700
H 	H 	0.22049 0.01210 0.52601 0.04200
H 	H 	0.11828 0.99437 0.50308 0.05200
H 	H 	0.11139 0.11900 0.42740 0.05100
H 	H 	0.42846 0.28712 0.43230 0.04400
H 	H 	0.43435 0.15932 0.50504 0.04200
C 	C 	0.78342 0.73824 0.02712 -0.05100
C 	C 	0.74980 0.67286 0.02756 -0.03800
C 	C 	0.76562 0.63707 0.00444 0.00900
C 	C 	0.81482 0.66699 0.98007 0.00100
C 	C 	0.84847 0.73274 0.97948 -0.02100
C 	C 	0.83315 0.76862 0.00345 0.03100
C 	C 	0.89817 0.76281 0.95550 0.03300
C 	C 	0.91324 0.72679 0.93179 -0.05100
C 	C 	0.87998 0.66154 0.93251 -0.03700
C 	C 	0.83109 0.63143 0.95685 0.01000
C 	C 	0.79906 0.56651 0.95881 -0.02400
C 	C 	0.75084 0.53682 0.98381 -0.05900
C 	C 	0.73350 0.57201 0.00594 -0.02700
C 	C 	0.86850 0.83460 0.00412 -0.06400
C 	C 	0.91903 0.86494 0.98102 0.00900
C 	C 	0.93290 0.82868 0.95611 -0.06100
H 	H 	0.77104 0.76530 0.04545 0.04100
H 	H 	0.71184 0.65021 0.04621 0.03700
H 	H 	0.95114 0.74942 0.91309 0.04000
H 	H 	0.89258 0.63455 0.91436 0.03600
H 	H 	0.81244 0.53949 0.94162 0.04500
H 	H 	0.69542 0.54889 0.02449 0.04200
H 	H 	0.85779 0.86254 0.02335 0.05000
H 	H 	0.97104 0.85186 0.93759 0.04900
C 	C 	0.92474 0.23359 0.96778 -0.03500
C 	C 	0.95857 0.20753 0.96876 -0.06200
C 	C 	0.93478 0.15119 0.98512 0.04300
C 	C 	0.87735 0.12176 0.00164 -0.02900
C 	C 	0.84298 0.14770 0.00028 -0.00300
C 	C 	0.86647 0.20343 0.98290 0.01000
C 	C 	0.78430 0.11694 0.01530 0.01100
C 	C 	0.76157 0.06174 0.03292 -0.03800
C 	C 	0.79599 0.03631 0.03461 -0.05200
C 	C 	0.85342 0.06554 0.01847 0.03600
C 	C 	0.88619 0.03822 0.01789 -0.06700
C 	C 	0.94173 0.06560 0.99946 0.01400
C 	C 	0.96672 0.12295 0.98405 -0.07300
C 	C 	0.83062 0.22736 0.97972 -0.02900
C 	C 	0.77047 0.19503 0.99262 -0.06400
C 	C 	0.74825 0.14074 0.01143 -0.03000
H 	H 	0.94345 0.27674 0.95466 0.03300
H 	H 	0.00293 0.23085 0.95637 0.04700
H 	H 	0.71687 0.03805 0.04491 0.03800
H 	H 	0.77745 0.99333 0.04792 0.04100
H 	H 	0.86782 0.99501 0.03093 0.05100
H 	H 	0.00970 0.14442 0.97007 0.05800
H 	H 	0.84876 0.27022 0.96629 0.03900
H 	H 	0.70239 0.11617 0.02197 0.04800
C 	C 	0.35247 0.24944 0.03198 -0.03600
C 	C 	0.28704 0.22115 0.02975 -0.05100
C 	C 	0.24034 0.15921 0.00584 0.03200
C 	C 	0.25967 0.12585 0.98350 -0.02100
C 	C 	0.32553 0.15402 0.98619 0.00300
C 	C 	0.37206 0.21601 0.01053 0.00800
C 	C 	0.34481 0.11984 0.96494 0.01000
C 	C 	0.29815 0.05842 0.94035 -0.03700
C 	C 	0.23278 0.03076 0.93730 -0.05000
C 	C 	0.21319 0.06394 0.95909 0.03400
C 	C 	0.14773 0.03529 0.95761 -0.06000
C 	C 	0.12823 0.06706 0.98152 0.00900
C 	C 	0.17462 0.12962 0.00482 -0.06400
C 	C 	0.43756 0.24359 0.01342 -0.02400
C 	C 	0.45682 0.20927 0.99277 -0.06000
C 	C 	0.41048 0.14745 0.96868 -0.02300
H 	H 	0.38788 0.29719 0.05066 0.03600
H 	H 	0.27276 0.24733 0.04685 0.04200
H 	H 	0.31243 0.03193 0.92368 0.03700
H 	H 	0.19737 0.98320 0.91834 0.04100
H 	H 	0.11196 0.98771 0.93870 0.05100
H 	H 	0.15976 0.15433 0.02314 0.05200
H 	H 	0.47353 0.29126 0.03214 0.03300
H 	H 	0.42555 0.12127 0.95259 0.03600
