data_crystal

_cell_length_a 20.34798
_cell_length_b 21.38998
_cell_length_c 38.96023
_cell_angle_alpha 60.97396
_cell_angle_beta  118.79866
_cell_angle_gamma 133.29795

_symmetry_space_group_name_	'P 1'
_symmetry_space_group_name_H-M	'P 1'

loop_
_symmetry_equiv_pos_as_xyz
  x,y,z

loop_
_atom_site_label
_atom_site_type_symbol
_atom_site_fract_x
_atom_site_fract_y
_atom_site_fract_z
_atom_site_charge
Co	Co	0.01264 0.09232 0.07602 1.19500
Co	Co	0.08400 0.02899 0.04740 1.17300
Co	Co	0.10782 0.88929 0.05123 1.19300
C 	C 	0.26918 0.06012 0.07216 0.24100
O 	O 	0.08255 0.13007 0.03836 -0.40100
C 	C 	0.10795 0.21185 0.13150 0.31200
C 	C 	0.10491 0.78624 0.13669 0.31000
O 	O 	0.08247 0.78147 0.10016 -0.36700
O 	O 	0.08490 0.82611 0.14343 -0.29900
O 	O 	0.05315 0.14774 0.15634 -0.35600
O 	O 	0.11912 0.19427 0.10696 -0.31600
O 	O 	0.05186 0.92390 0.06621 -0.71400
O 	O 	0.23546 0.97586 0.08309 -0.24600
O 	O 	0.22500 0.08507 0.07244 -0.33100
Co	Co	0.00746 0.08274 0.58107 1.20000
Co	Co	0.08718 0.03112 0.54886 1.17300
Co	Co	0.11544 0.89597 0.54952 1.18800
C 	C 	0.27411 0.07156 0.56665 0.24000
O 	O 	0.08678 0.12952 0.54525 -0.37300
C 	C 	0.07943 0.18340 0.64154 0.29100
C 	C 	0.12840 0.80152 0.63675 0.32100
O 	O 	0.10402 0.79434 0.60043 -0.32600
O 	O 	0.10240 0.83572 0.64391 -0.29700
O 	O 	0.01338 0.11502 0.66102 -0.33900
O 	O 	0.10232 0.17164 0.61921 -0.28600
O 	O 	0.05824 0.92655 0.56662 -0.71300
O 	O 	0.24417 0.98864 0.57821 -0.24700
O 	O 	0.23004 0.09365 0.56939 -0.30700
C 	C 	0.01373 0.97910 0.82033 0.09500
C 	C 	0.02924 0.92540 0.81897 0.32500
C 	C 	0.00914 0.91332 0.78162 -0.02300
F 	F 	0.06138 0.88329 0.85368 -0.34000
H 	H 	0.01818 0.86948 0.78107 0.14300
C 	C 	0.12228 0.04453 0.88059 0.24500
C 	C 	0.13859 0.06016 0.91589 0.00300
F 	F 	0.19533 0.08188 0.86706 -0.34700
H 	H 	0.20932 0.09825 0.93294 0.13800
C 	C 	0.01475 0.97715 0.24899 -0.01100
C 	C 	0.10677 0.08635 0.40627 0.44400
C 	C 	0.10714 0.07781 0.37285 -0.20700
F 	F 	0.17249 0.16477 0.41699 -0.37500
H 	H 	0.16231 0.13289 0.35709 0.21300
C 	C 	0.19500 0.42512 0.66162 0.07800
C 	C 	0.16301 0.34598 0.69270 -0.08800
C 	C 	0.13541 0.26904 0.68771 0.07200
C 	C 	0.14096 0.26975 0.65278 0.02700
H 	H 	0.10708 0.20761 0.71057 0.11100
C 	C 	0.15396 0.34193 0.73033 0.79000
F 	F 	0.08750 0.35413 0.71959 -0.35400
F 	F 	0.23786 0.40686 0.74920 -0.35900
F 	F 	0.12713 0.26099 0.75801 -0.39800
C 	C 	0.24619 0.67282 0.68168 0.07700
C 	C 	0.16175 0.62508 0.69236 -0.07100
C 	C 	0.12810 0.67176 0.68520 0.09000
C 	C 	0.17930 0.76423 0.66965 0.03800
C 	C 	0.27333 0.81091 0.67139 -0.08200
H 	H 	0.05909 0.63542 0.68849 0.14400
C 	C 	0.23342 0.40329 0.17310 0.04200
C 	C 	0.19511 0.44854 0.14294 0.08300
C 	C 	0.11914 0.35024 0.10064 0.06500
C 	C 	0.15657 0.30445 0.13108 0.01300
C 	C 	0.22026 0.33604 0.16624 -0.06700
C 	C 	0.27371 0.29779 0.19682 0.78200
H 	H 	0.07438 0.32903 0.07284 0.11900
F 	F 	0.29308 0.27315 0.17792 -0.39500
F 	F 	0.22191 0.22455 0.22431 -0.41100
C 	C 	0.08572 0.64462 0.17288 0.07900
C 	C 	0.14081 0.73577 0.17005 0.02000
C 	C 	0.23771 0.78035 0.18446 -0.05900
C 	C 	0.22153 0.66045 0.17922 0.08200
C 	C 	0.12640 0.60498 0.17981 -0.08900
C 	C 	0.07185 0.50503 0.19292 0.79000
H 	H 	0.01084 0.60637 0.16640 0.11400
F 	F 	0.12928 0.47995 0.22135 -0.38500
F 	F 	0.03000 0.47134 0.15984 -0.35000
F 	F 	0.27723 0.91812 0.17867 -0.35900
F 	F 	0.02582 0.30538 0.50315 -0.37900
F 	F 	0.01532 0.35225 0.99563 -0.37800
N 	N 	0.20847 0.55574 0.15952 -0.06300
N 	N 	0.22091 0.54656 0.67351 -0.06500
C 	C 	0.18636 0.35181 0.62521 -0.05000
C 	C 	0.13455 0.41961 0.10686 -0.08500
C 	C 	0.08165 0.01060 0.97454 0.32200
O 	O 	0.14052 0.99237 0.00031 -0.32700
O 	O 	0.04534 0.02665 0.98701 -0.32300
C 	C 	0.06999 0.00728 0.47364 0.30100
O 	O 	0.13370 0.99392 0.49658 -0.31500
O 	O 	0.04308 0.02997 0.48788 -0.34000
C 	C 	0.03109 0.99031 0.85948 0.12500
C 	C 	0.06409 0.02102 0.93101 -0.17300
C 	C 	0.03360 0.99258 0.32212 0.07000
C 	C 	0.04420 0.06078 0.28685 0.28400
C 	C 	0.03878 0.05459 0.25135 -0.09700
C 	C 	0.03669 0.99858 0.35984 0.13400
H 	H 	0.04182 0.10574 0.22430 0.14000
C 	C 	0.19983 0.42470 0.62678 0.04900
C 	C 	0.23618 0.36666 0.60003 0.78500
F 	F 	0.17345 0.32934 0.56743 -0.37200
C 	C 	0.09056 0.46586 0.07396 0.78700
F 	F 	0.05885 0.48277 0.09054 -0.37000
F 	F 	0.01554 0.41436 0.04707 -0.39700
F 	F 	0.04934 0.35781 0.54930 -0.41800
F 	F 	0.02249 0.62445 0.60859 -0.43000
F 	F 	0.27007 0.82256 0.23957 -0.35900
C 	C 	0.25599 0.51242 0.67119 0.18800
F 	F 	0.05335 0.13057 0.28605 -0.37000
C 	C 	0.04257 0.01293 0.43004 -0.18900
H 	H 	0.22575 0.48534 0.60323 0.12700
C 	C 	0.10867 0.52687 0.71202 0.79300
F 	F 	0.05546 0.47998 0.68274 -0.35400
F 	F 	0.04998 0.50155 0.73191 -0.35900
C 	C 	0.24159 0.53948 0.14389 0.18800
F 	F 	0.16926 0.50562 0.74028 -0.35300
F 	F 	0.28330 0.32873 0.62336 -0.39000
F 	F 	0.15562 0.54499 0.05299 -0.36600
C 	C 	0.25962 0.63793 0.16536 0.17700
H 	H 	0.29108 0.15469 0.49033 0.10900
C 	C 	0.29443 0.85566 0.20384 0.79000
C 	C 	0.27826 0.74501 0.18631 0.04600
H 	H 	0.27937 0.42513 0.20081 0.12500
C 	C 	0.28067 0.62899 0.68115 0.18800
F 	F 	0.30052 0.45604 0.58560 -0.37600
C 	C 	0.30364 0.76614 0.67374 0.05400
F 	F 	0.30386 0.94091 0.67142 -0.36900
H 	H 	0.29432 0.18024 0.00140 0.07800
F 	F 	0.02911 0.42470 0.48328 -0.37300
C 	C 	0.01946 0.91878 0.32125 -0.09000
F 	F 	0.00334 0.46829 0.21041 -0.35300
C 	C 	0.34160 0.90896 0.66905 0.79000
N 	N 	0.32432 0.60509 0.13370 -0.09500
F 	F 	0.32418 0.17205 0.43318 -0.40000
C 	C 	0.00831 0.91030 0.28467 0.40100
H 	H 	0.01436 0.86690 0.34847 0.18000
F 	F 	0.33672 0.26376 0.93791 -0.40000
N 	N 	0.34501 0.70191 0.15667 -0.09800
N 	N 	0.34778 0.56239 0.67377 -0.09300
C 	C 	0.00241 0.34382 0.51096 0.79900
C 	C 	0.35499 0.16528 0.51169 0.04900
O 	O 	0.99529 0.94025 0.19213 -0.29600
C 	C 	0.98160 0.02269 0.78429 -0.19300
H 	H 	0.97067 0.06504 0.78494 0.17200
Co	Co	0.99635 0.85022 0.60212 1.19700
C 	C 	0.97287 0.95421 0.74552 -0.07400
F 	F 	0.36931 0.95355 0.63317 -0.39300
H 	H 	0.37245 0.80439 0.66960 0.11300
C 	C 	0.95988 0.00966 0.74736 0.34600
F 	F 	0.98557 0.83493 0.28354 -0.35900
F 	F 	0.41882 0.92518 0.70076 -0.34900
C 	C 	0.96517 0.95538 0.20887 0.34900
O 	O 	0.85955 0.92720 0.68268 -0.33400
C 	C 	0.93058 0.92629 0.70722 0.34000
O 	O 	0.97546 0.92311 0.69294 -0.33800
F 	F 	0.35740 0.35951 0.21746 -0.37700
O 	O 	0.89930 0.96588 0.18719 -0.30900
F 	F 	0.89484 0.49680 0.62969 -0.38000
F 	F 	0.39017 0.12655 0.63450 -0.38400
C 	C 	0.71200 0.29160 0.00923 0.18400
N 	N 	0.77126 0.37544 0.01457 -0.08500
C 	C 	0.73688 0.41135 0.01540 0.18400
N 	N 	0.64481 0.36362 0.01135 -0.08600
C 	C 	0.58682 0.27891 0.00858 0.19500
N 	N 	0.61950 0.24499 0.00492 -0.08200
C 	C 	0.71964 0.30578 0.49853 0.18100
N 	N 	0.76910 0.39394 0.49538 -0.10500
C 	C 	0.73204 0.42344 0.49962 0.19000
N 	N 	0.64545 0.36538 0.50587 -0.08900
C 	C 	0.59861 0.27766 0.51159 0.18900
N 	N 	0.63649 0.24748 0.50888 -0.07900
C 	C 	0.37678 0.68555 0.14055 0.18600
N 	N 	0.37239 0.67811 0.68263 -0.10500
C 	C 	0.40481 0.64655 0.67697 0.19300
Co	Co	0.98619 0.84955 0.10022 1.19500
Co	Co	0.92469 0.91682 0.13370 1.21300
C 	C 	0.90905 0.73963 0.04249 0.30200
Co	Co	0.91405 0.06215 0.13378 1.16500
O 	O 	0.95051 0.01998 0.11167 -0.78600
O 	O 	0.91896 0.81301 0.13918 -0.38300
O 	O 	0.97550 0.96207 0.07996 -0.52100
C 	C 	0.74321 0.88457 0.12393 0.30000
O 	O 	0.77964 0.96965 0.10914 -0.30700
O 	O 	0.78232 0.85162 0.12596 -0.28800
C 	C 	0.89273 0.15219 0.04582 0.30800
O 	O 	0.92573 0.16343 0.08221 -0.37200
O 	O 	0.91617 0.11982 0.03587 -0.32600
O 	O 	0.97328 0.80871 0.02195 -0.31300
O 	O 	0.89304 0.74739 0.06946 -0.32100
Co	Co	0.91766 0.90301 0.63429 1.20800
C 	C 	0.92169 0.73626 0.54711 0.29400
Co	Co	0.88052 0.03048 0.63174 1.17500
O 	O 	0.93472 0.00227 0.61189 -0.79000
O 	O 	0.92788 0.80818 0.64189 -0.39500
O 	O 	0.97806 0.95781 0.58227 -0.52300
C 	C 	0.72270 0.85578 0.61489 0.30900
O 	O 	0.75616 0.94029 0.60068 -0.29000
O 	O 	0.77243 0.82816 0.62326 -0.31700
C 	C 	0.88528 0.14443 0.54669 0.30600
O 	O 	0.89895 0.13972 0.58402 -0.35300
O 	O 	0.91625 0.11659 0.53824 -0.30900
O 	O 	0.98049 0.80555 0.52416 -0.35800
O 	O 	0.90345 0.74635 0.57221 -0.29400
F 	F 	0.92049 0.04657 0.71359 -0.45200
C 	C 	0.97282 0.97185 0.90832 0.48600
C 	C 	0.95642 0.95609 0.87289 -0.15900
F 	F 	0.89984 0.93548 0.92156 -0.35300
H 	H 	0.88572 0.91676 0.85606 0.19100
C 	C 	0.96577 0.92817 0.38098 0.25700
C 	C 	0.96975 0.93492 0.41624 0.04600
F 	F 	0.89337 0.85323 0.36763 -0.34300
H 	H 	0.91892 0.87784 0.43394 0.10900
C 	C 	0.63728 0.74355 0.66885 0.07400
C 	C 	0.63593 0.79323 0.62860 0.01100
C 	C 	0.55840 0.79556 0.60479 -0.06300
C 	C 	0.48999 0.75788 0.62327 0.04200
C 	C 	0.49140 0.70844 0.66348 0.06500
C 	C 	0.56731 0.70371 0.68702 -0.09400
C 	C 	0.57226 0.65373 0.73112 0.78800
H 	H 	0.69535 0.73960 0.68656 0.09800
H 	H 	0.43216 0.76229 0.60564 0.11000
C 	C 	0.54876 0.83948 0.55991 0.78200
F 	F 	0.66148 0.67776 0.75148 -0.39400
F 	F 	0.51338 0.56379 0.73380 -0.37700
F 	F 	0.54607 0.67172 0.75010 -0.37700
F 	F 	0.58669 0.83025 0.54275 -0.38400
F 	F 	0.59323 0.92846 0.55418 -0.38800
F 	F 	0.45614 0.80144 0.53996 -0.37000
C 	C 	0.57830 0.82678 0.09426 0.08500
C 	C 	0.64684 0.82378 0.12840 0.02400
C 	C 	0.62681 0.77951 0.16720 -0.06500
C 	C 	0.54197 0.74677 0.17094 0.04900
C 	C 	0.47348 0.74889 0.13679 0.07500
C 	C 	0.49353 0.79367 0.09826 -0.08000
C 	C 	0.42322 0.80325 0.06115 0.79100
H 	H 	0.59309 0.85902 0.06464 0.11100
H 	H 	0.52697 0.71488 0.20050 0.12300
C 	C 	0.69682 0.77157 0.20524 0.78000
F 	F 	0.46516 0.87124 0.02974 -0.36500
F 	F 	0.38078 0.82223 0.06976 -0.37500
F 	F 	0.35645 0.72512 0.04870 -0.37100
F 	F 	0.75253 0.84478 0.22046 -0.39700
F 	F 	0.75134 0.76421 0.19816 -0.41000
F 	F 	0.65173 0.69676 0.23436 -0.37100
H 	H 	0.35308 0.78329 0.19274 0.13700
F 	F 	0.38871 0.89712 0.21233 -0.33900
C 	C 	0.74886 0.14538 0.50136 0.06600
C 	C 	0.84586 0.19281 0.51412 0.02600
C 	C 	0.89967 0.28564 0.50781 -0.08500
C 	C 	0.85805 0.32333 0.50185 0.05000
C 	C 	0.76122 0.27245 0.49509 0.07000
C 	C 	0.70619 0.18676 0.48875 -0.09000
C 	C 	0.60521 0.14223 0.46605 0.79100
H 	H 	0.70640 0.07549 0.50297 0.11900
H 	H 	0.90138 0.39146 0.50332 0.10800
F 	F 	0.58052 0.08761 0.44614 -0.37600
F 	F 	0.58991 0.20460 0.43732 -0.35900
F 	F 	0.54918 0.09125 0.49279 -0.38900
C 	C 	0.84982 0.52047 0.54672 0.04200
C 	C 	0.79228 0.51114 0.50806 0.06300
C 	C 	0.77269 0.57402 0.48302 -0.09200
C 	C 	0.80478 0.64034 0.49869 0.06900
C 	C 	0.86116 0.64860 0.53792 0.02000
C 	C 	0.87815 0.58358 0.56313 -0.07800
C 	C 	0.93143 0.58308 0.60669 0.77400
H 	H 	0.86661 0.47352 0.56546 0.10700
H 	H 	0.78970 0.68842 0.47966 0.10500
C 	C 	0.71462 0.56869 0.44013 0.78600
F 	F 	0.92745 0.62422 0.62336 -0.44000
F 	F 	0.62151 0.50708 0.44056 -0.36200
F 	F 	0.73591 0.54388 0.42228 -0.37200
F 	F 	0.73095 0.64978 0.41671 -0.37500
C 	C 	0.36117 0.14062 0.55307 0.03200
C 	C 	0.44735 0.16222 0.58084 -0.06300
C 	C 	0.52078 0.19524 0.56709 0.04500
C 	C 	0.51289 0.21566 0.52582 0.07000
C 	C 	0.42799 0.19739 0.49797 -0.08400
C 	C 	0.41673 0.21637 0.45332 0.78500
H 	H 	0.58729 0.21287 0.58814 0.11100
C 	C 	0.46821 0.16601 0.62310 0.78700
F 	F 	0.45503 0.18884 0.44788 -0.36200
F 	F 	0.46077 0.30628 0.43638 -0.35400
F 	F 	0.51030 0.12435 0.65066 -0.36900
F 	F 	0.52888 0.25372 0.62478 -0.37900
C 	C 	0.74031 0.11752 0.02869 0.07400
C 	C 	0.82371 0.17014 0.01759 -0.00500
C 	C 	0.85457 0.25658 0.99322 -0.04800
C 	C 	0.81816 0.29612 0.99105 0.06300
C 	C 	0.74869 0.24831 0.01145 0.07300
C 	C 	0.71185 0.15787 0.03220 -0.10100
C 	C 	0.65266 0.10789 0.06191 0.78600
H 	H 	0.70787 0.04726 0.04165 0.07700
H 	H 	0.84460 0.36399 0.97405 0.13200
C 	C 	0.92825 0.30775 0.97086 0.77700
F 	F 	0.65458 0.03666 0.08904 -0.43400
F 	F 	0.56143 0.07576 0.04139 -0.40800
F 	F 	0.68603 0.16274 0.08412 -0.40500
F 	F 	0.92007 0.25084 0.95902 -0.39100
F 	F 	0.91929 0.36864 0.93658 -0.37300
C 	C 	0.80629 0.57036 0.99087 0.05300
C 	C 	0.79885 0.49914 0.02369 0.07000
C 	C 	0.82372 0.50575 0.06324 -0.09600
C 	C 	0.85117 0.58209 0.06867 0.07300
C 	C 	0.85451 0.65158 0.03544 0.00200
C 	C 	0.82476 0.64227 0.99590 -0.05300
C 	C 	0.81376 0.70904 0.95883 0.78100
H 	H 	0.78856 0.56565 0.96072 0.12600
H 	H 	0.87272 0.58873 0.09884 0.08900
C 	C 	0.81503 0.42905 0.09935 0.79100
F 	F 	0.89606 0.77422 0.94633 -0.40800
F 	F 	0.79022 0.74720 0.96677 -0.37600
F 	F 	0.74407 0.66844 0.92763 -0.37300
F 	F 	0.85481 0.39840 0.09761 -0.36000
F 	F 	0.72225 0.36104 0.09928 -0.39000
F 	F 	0.85912 0.45394 0.13537 -0.37800
C 	C 	0.35399 0.17868 0.01861 0.06800
C 	C 	0.35603 0.12707 0.05847 0.01200
C 	C 	0.43548 0.12815 0.08185 -0.05500
C 	C 	0.50448 0.16910 0.06306 0.03900
C 	C 	0.50162 0.21851 0.02290 0.09000
C 	C 	0.42588 0.22392 0.00029 -0.11600
C 	C 	0.42277 0.27933 0.95708 0.79700
H 	H 	0.56387 0.16735 0.08046 0.16600
C 	C 	0.44589 0.08332 0.12651 0.74300
F 	F 	0.44103 0.25946 0.93524 -0.38700
F 	F 	0.48865 0.36821 0.95688 -0.38000
F 	F 	0.40214 0.99491 0.13141 -0.33500
F 	F 	0.40760 0.09093 0.14428 -0.37000
F 	F 	0.53863 0.12167 0.14632 -0.35600
