data_crystal

_cell_length_a 19.36316
_cell_length_b 18.15864
_cell_length_c 26.75412
_cell_angle_alpha 95.43151
_cell_angle_beta  95.43195
_cell_angle_gamma 126.41870

_symmetry_space_group_name_	'P 1'
_symmetry_space_group_name_H-M	'P 1'

loop_
_symmetry_equiv_pos_as_xyz
  x,y,z

loop_
_atom_site_label
_atom_site_type_symbol
_atom_site_fract_x
_atom_site_fract_y
_atom_site_fract_z
_atom_site_charge
C 	C 	0.93768 0.02785 0.97538 0.12500
N 	N 	0.02620 0.08042 0.98195 -0.05000
C 	C 	0.06657 0.03991 0.98644 0.17700
C 	C 	0.05841 0.02531 0.48658 0.17900
N 	N 	0.01741 0.06513 0.48240 -0.04900
Cu	Cu	0.72976 0.32680 0.94222 0.93800
Cu	Cu	0.72080 0.23266 0.04184 0.90100
Cu	Cu	0.60737 0.28601 0.01753 0.91000
Cu	Cu	0.57306 0.33595 0.92059 0.91700
C 	C 	0.65813 0.31356 0.83966 0.29100
C 	C 	0.66729 0.28757 0.12410 0.28500
O 	O 	0.59631 0.25718 0.94465 -0.64100
O 	O 	0.73050 0.33450 0.01649 -0.62500
O 	O 	0.78942 0.26761 0.93617 -0.32700
O 	O 	0.69678 0.15755 0.97909 -0.41900
O 	O 	0.62945 0.35785 0.85941 -0.33600
O 	O 	0.48469 0.22987 0.01577 -0.32800
C 	C 	0.43326 0.23583 0.98294 0.38900
O 	O 	0.46009 0.27917 0.94393 -0.33300
O 	O 	0.70681 0.29970 0.86894 -0.32300
C 	C 	0.75811 0.18878 0.95177 0.41500
O 	O 	0.62012 0.30095 0.09262 -0.32900
O 	O 	0.72813 0.28337 0.10945 -0.37300
H 	H 	0.55364 0.19022 0.92909 0.19200
H 	H 	0.77468 0.39674 0.03822 0.21500
Cu	Cu	0.72185 0.31142 0.44205 0.94000
Cu	Cu	0.70703 0.21497 0.54125 0.89600
Cu	Cu	0.59871 0.27259 0.51608 0.90600
Cu	Cu	0.56405 0.31815 0.41774 0.91800
C 	C 	0.65510 0.30065 0.33873 0.29300
C 	C 	0.65721 0.27629 0.62330 0.28800
O 	O 	0.58821 0.24116 0.44339 -0.63900
O 	O 	0.72129 0.31917 0.51605 -0.63200
O 	O 	0.78223 0.25290 0.43746 -0.32600
O 	O 	0.68677 0.14134 0.47877 -0.41400
O 	O 	0.62333 0.34215 0.35760 -0.33100
O 	O 	0.47641 0.21830 0.51432 -0.33400
C 	C 	0.42414 0.22107 0.48022 0.39300
O 	O 	0.44867 0.25635 0.43856 -0.33300
O 	O 	0.70026 0.28365 0.36885 -0.32900
C 	C 	0.74988 0.17358 0.45272 0.41300
O 	O 	0.61167 0.29053 0.59104 -0.33300
O 	O 	0.71441 0.26538 0.60907 -0.37200
H 	H 	0.54597 0.17385 0.42853 0.19100
H 	H 	0.76578 0.38101 0.53809 0.21400
C 	C 	0.65236 0.28459 0.67793 -0.04200
C 	C 	0.62975 0.21018 0.70249 0.00500
C 	C 	0.63122 0.21862 0.75525 0.01300
C 	C 	0.65605 0.30270 0.78403 -0.03400
C 	C 	0.67805 0.37692 0.75935 0.00300
C 	C 	0.67653 0.36842 0.70661 0.02700
H 	H 	0.61134 0.14575 0.68048 0.06000
C 	C 	0.60574 0.14016 0.77935 0.11200
N 	N 	0.58539 0.07737 0.79868 -0.07100
C 	C 	0.65919 0.29527 0.28398 -0.03700
C 	C 	0.58147 0.23572 0.24778 0.00100
C 	C 	0.58278 0.23436 0.19543 0.01800
C 	C 	0.66275 0.29402 0.17894 -0.03800
C 	C 	0.74034 0.35455 0.21527 0.00700
C 	C 	0.73903 0.35550 0.26756 0.02400
H 	H 	0.51989 0.19032 0.26042 0.06400
C 	C 	0.50218 0.16974 0.15895 0.11200
N 	N 	0.43751 0.11786 0.12980 -0.05300
C 	C 	0.80690 0.00868 0.43291 0.15900
C 	C 	0.88447 0.05503 0.46940 -0.07500
C 	C 	0.92049 0.14358 0.49757 0.23400
C 	C 	0.87892 0.18461 0.48983 0.30300
C 	C 	0.80023 0.13708 0.45453 -0.23300
C 	C 	0.76459 0.04923 0.42594 0.32800
F 	F 	0.68857 0.00283 0.39166 -0.39400
F 	F 	0.91325 0.26910 0.51818 -0.39700
F 	F 	0.99436 0.18862 0.53359 -0.35800
C 	C 	0.20233 0.05803 0.51638 0.17100
C 	C 	0.15427 0.08211 0.48973 -0.07800
C 	C 	0.19748 0.15779 0.46406 0.24900
C 	C 	0.28666 0.20663 0.46377 0.30800
C 	C 	0.33312 0.17782 0.48699 -0.20300
C 	C 	0.29061 0.10416 0.51415 0.32000
F 	F 	0.33408 0.07556 0.53731 -0.39100
F 	F 	0.32788 0.28186 0.44066 -0.35500
F 	F 	0.15263 0.18246 0.43811 -0.33200
C 	C 	0.77487 0.06660 0.92332 0.33200
C 	C 	0.80912 0.15306 0.95313 -0.23900
C 	C 	0.88697 0.19970 0.98909 0.30900
C 	C 	0.92882 0.15886 0.99643 0.18800
C 	C 	0.89385 0.07138 0.96726 -0.06000
C 	C 	0.81741 0.02622 0.92996 0.15300
F 	F 	0.69985 0.02125 0.88825 -0.39400
F 	F 	0.00176 0.20287 0.03309 -0.29500
F 	F 	0.92013 0.28302 0.01844 -0.39800
C 	C 	0.21021 0.18045 0.97255 0.24800
C 	C 	0.16303 0.09646 0.99127 -0.08500
C 	C 	0.20777 0.06383 0.01200 0.17800
C 	C 	0.29585 0.10932 0.00953 0.32800
C 	C 	0.34219 0.19168 0.98954 -0.21200
C 	C 	0.29954 0.22876 0.97293 0.31000
F 	F 	0.34457 0.31146 0.95671 -0.35500
F 	F 	0.16930 0.21424 0.95277 -0.33100
F 	F 	0.33513 0.07122 0.02476 -0.39000
C 	C 	0.92907 0.01224 0.47719 0.13200
H 	H 	0.80189 0.40073 0.20276 0.08200
C 	C 	0.81966 0.41977 0.30413 0.14500
O 	O 	0.66362 0.43297 0.47826 -0.35700
F 	F 	0.78485 0.94373 0.89985 -0.26600
F 	F 	0.16582 0.98770 0.03436 -0.25900
N 	N 	0.01786 0.94654 0.98450 -0.02300
C 	C 	0.92984 0.89429 0.97974 0.24600
N 	N 	0.88962 0.93481 0.97504 -0.04400
N 	N 	0.88184 0.91949 0.47761 -0.04300
C 	C 	0.92270 0.87957 0.48193 0.24600
N 	N 	0.01064 0.93227 0.48569 -0.02200
O 	O 	0.78607 0.46451 0.94826 -0.31700
C 	C 	0.75415 0.50297 0.97079 0.38700
O 	O 	0.67486 0.44978 0.98061 -0.35900
O 	O 	0.77674 0.44878 0.44772 -0.31700
C 	C 	0.74380 0.48663 0.46966 0.38500
H 	H 	0.69771 0.44189 0.78140 0.10500
C 	C 	0.70266 0.44709 0.68257 0.13200
N 	N 	0.72361 0.51012 0.66332 -0.04000
N 	N 	0.88424 0.47123 0.33342 -0.05100
C 	C 	0.79363 0.64081 0.51658 0.30100
C 	C 	0.78794 0.58705 0.47269 -0.19600
C 	C 	0.82218 0.62899 0.43079 0.30000
C 	C 	0.86405 0.72416 0.43341 0.26600
C 	C 	0.87135 0.77823 0.47762 -0.11300
C 	C 	0.83520 0.73616 0.51901 0.26800
F 	F 	0.84214 0.78806 0.56198 -0.33300
F 	F 	0.76043 0.60111 0.55719 -0.36600
F 	F 	0.89774 0.76408 0.39294 -0.33900
F 	F 	0.81319 0.57700 0.38712 -0.37000
F 	F 	0.77313 0.92497 0.40380 -0.26600
F 	F 	0.16341 0.98964 0.54441 -0.25900
C 	C 	0.80456 0.65781 0.01682 0.31000
C 	C 	0.79763 0.60302 0.97298 -0.20500
C 	C 	0.82903 0.64331 0.93018 0.30000
C 	C 	0.86934 0.73797 0.93183 0.26700
C 	C 	0.87803 0.79311 0.97600 -0.12200
C 	C 	0.84466 0.75261 0.01830 0.27600
F 	F 	0.85313 0.80563 0.06128 -0.33100
F 	F 	0.77404 0.61965 0.05829 -0.36200
F 	F 	0.90060 0.77645 0.89056 -0.34000
F 	F 	0.81894 0.59025 0.88663 -0.37200
