data_crystal

_cell_length_a 28.25544
_cell_length_b 30.03056
_cell_length_c 42.58838
_cell_angle_alpha 89.93512
_cell_angle_beta  89.93306
_cell_angle_gamma 90.79469

_symmetry_space_group_name_	'P 1'
_symmetry_space_group_name_H-M	'P 1'

loop_
_symmetry_equiv_pos_as_xyz
  x,y,z

loop_
_atom_site_label
_atom_site_type_symbol
_atom_site_fract_x
_atom_site_fract_y
_atom_site_fract_z
_atom_site_charge
Zn	Zn	0.51693 0.51004 0.99161 1.21800
C 	C 	0.56440 0.42810 0.00365 0.33100
O 	O 	0.58078 0.53231 0.00018 -0.44500
O 	O 	0.59624 0.44442 0.98406 -0.45600
O 	O 	0.60337 0.53124 0.94895 -0.49600
C 	C 	0.47827 0.45327 0.94483 0.30400
O 	O 	0.47736 0.49379 0.95609 -0.47700
O 	O 	0.51896 0.43651 0.93641 -0.49100
C 	C 	0.60806 0.54728 0.97751 0.30500
O 	O 	0.49398 0.58378 0.98256 -0.33000
Zn	Zn	0.57746 0.47116 0.94131 1.16800
O 	O 	0.52499 0.44977 0.00908 -0.43700
C 	C 	0.47256 0.58081 0.00942 0.26200
O 	O 	0.47577 0.54270 0.02363 -0.38100
Zn	Zn	0.30671 0.24331 0.98989 1.21800
C 	C 	0.32747 0.26234 0.05472 0.31800
O 	O 	0.25784 0.20894 0.01215 -0.44800
O 	O 	0.28420 0.27746 0.05762 -0.45200
O 	O 	0.20520 0.26557 0.01128 -0.50200
C 	C 	0.32477 0.33649 0.97986 0.32900
O 	O 	0.31460 0.29855 0.96615 -0.47800
O 	O 	0.30658 0.34538 0.00742 -0.49000
C 	C 	0.21438 0.22311 0.01510 0.31000
O 	O 	0.28111 0.21115 0.94228 -0.32900
Zn	Zn	0.25123 0.31231 0.02248 1.16900
O 	O 	0.34640 0.25768 0.02664 -0.44000
C 	C 	0.31975 0.18838 0.94363 0.28000
O 	O 	0.34588 0.19590 0.96812 -0.39100
C 	C 	0.55069 0.04375 0.32926 0.14100
C 	C 	0.52994 0.07744 0.31124 -0.10700
H 	H 	0.51168 0.10438 0.32278 0.07000
C 	C 	0.53265 0.07603 0.27835 0.05300
C 	C 	0.55572 0.04073 0.26360 -0.08800
C 	C 	0.57613 0.00694 0.28152 0.04500
C 	C 	0.57397 0.00863 0.31435 -0.11800
H 	H 	0.58978 0.98255 0.32829 0.08100
N 	N 	0.54716 0.04461 0.36293 -0.18100
C 	C 	0.51312 0.01907 0.37762 0.18600
C 	C 	0.51196 0.01616 0.41062 -0.08600
C 	C 	0.54603 0.03958 0.42831 0.05600
C 	C 	0.57825 0.06827 0.41299 -0.07900
C 	C 	0.57870 0.06996 0.37994 0.19600
C 	C 	0.47655 0.99128 0.42609 0.01400
C 	C 	0.47638 0.98803 0.45877 -0.03700
C 	C 	0.51388 0.00674 0.47662 -0.01800
C 	C 	0.54716 0.03511 0.46142 -0.01700
C 	C 	0.58032 0.06038 0.47913 0.00700
C 	C 	0.60844 0.09577 0.43083 0.00700
C 	C 	0.60800 0.09330 0.46356 -0.05400
C 	C 	0.51755 0.99937 0.50951 0.04900
C 	C 	0.55069 0.02457 0.52729 -0.04800
C 	C 	0.58354 0.05355 0.51216 0.02500
O 	O 	0.61014 0.09531 0.36526 -0.20400
O 	O 	0.48179 0.99666 0.36075 -0.19300
H 	H 	0.63120 0.12025 0.41946 0.04300
H 	H 	0.62724 0.11853 0.47654 0.04400
H 	H 	0.44821 0.97541 0.41292 0.04400
H 	H 	0.44585 0.97298 0.47004 0.04200
C 	C 	0.62038 0.07313 0.53018 -0.06200
C 	C 	0.62025 0.06957 0.56285 0.01200
C 	C 	0.58592 0.04320 0.57816 -0.08200
C 	C 	0.55243 0.01923 0.56034 0.05700
C 	C 	0.49069 0.96562 0.52478 -0.06800
C 	C 	0.49138 0.96172 0.55741 0.01600
C 	C 	0.52159 0.98895 0.57543 -0.07400
C 	C 	0.58569 0.03896 0.61110 0.19600
N 	N 	0.55412 0.01051 0.62556 -0.18500
C 	C 	0.52279 0.98518 0.60838 0.20500
C 	C 	0.55398 0.00701 0.65924 0.12100
C 	C 	0.58704 0.97998 0.67443 -0.08700
C 	C 	0.58648 0.97620 0.70724 0.04700
C 	C 	0.55273 0.99913 0.72477 -0.06800
C 	C 	0.51962 0.02600 0.70971 0.03200
C 	C 	0.52038 0.03017 0.67693 -0.09500
O 	O 	0.61565 0.06273 0.62814 -0.20600
O 	O 	0.49358 0.95728 0.62281 -0.20100
H 	H 	0.61295 0.96207 0.66076 0.07000
H 	H 	0.49488 0.05103 0.66519 0.06700
H 	H 	0.65054 0.08905 0.51908 0.04600
H 	H 	0.64809 0.08605 0.57610 0.04200
H 	H 	0.47120 0.94083 0.51152 0.05000
H 	H 	0.46942 0.93638 0.56854 0.04300
H 	H 	0.55227 0.99611 0.75016 0.05400
H 	H 	0.55728 0.03927 0.23816 0.05200
Zn	Zn	0.77602 0.77612 0.99995 1.21700
C 	C 	0.74988 0.78095 0.06592 0.32300
O 	O 	0.84433 0.79001 0.00056 -0.47300
O 	O 	0.76280 0.73914 0.06821 -0.45700
O 	O 	0.85911 0.76922 0.05072 -0.49400
C 	C 	0.74540 0.68518 0.00523 0.34600
O 	O 	0.73156 0.72644 0.00240 -0.45900
O 	O 	0.78859 0.67670 0.01465 -0.51100
C 	C 	0.86612 0.79686 0.02732 0.33200
O 	O 	0.78044 0.76228 0.94543 -0.32900
Zn	Zn	0.82118 0.71509 0.04513 1.16900
O 	O 	0.75825 0.80374 0.04001 -0.44400
C 	C 	0.76040 0.80069 0.94246 0.28200
O 	O 	0.75097 0.82108 0.96846 -0.39100
Zn	Zn	0.24241 0.72980 0.99912 1.21900
C 	C 	0.21857 0.73118 0.06496 0.31800
O 	O 	0.19846 0.77969 0.00007 -0.44200
O 	O 	0.22982 0.77382 0.06415 -0.45400
O 	O 	0.25712 0.83079 0.00824 -0.49900
C 	C 	0.33551 0.71623 0.02383 0.34200
O 	O 	0.31015 0.71821 0.99811 -0.47900
O 	O 	0.32762 0.74385 0.04696 -0.49900
C 	C 	0.21366 0.82112 0.99940 0.30000
O 	O 	0.24665 0.73611 0.94391 -0.32700
Zn	Zn	0.28930 0.79641 0.04067 1.16900
O 	O 	0.22869 0.70536 0.04098 -0.44200
C 	C 	0.22009 0.70049 0.94367 0.28100
O 	O 	0.20846 0.68486 0.97102 -0.38900
C 	C 	0.98546 0.50481 0.33573 0.14400
C 	C 	0.95863 0.47431 0.31796 -0.10700
H 	H 	0.93561 0.45037 0.32969 0.07200
C 	C 	0.96179 0.47472 0.28513 0.05400
C 	C 	0.99151 0.50575 0.27009 -0.08600
C 	C 	0.01827 0.53626 0.28773 0.05000
C 	C 	0.01534 0.53576 0.32058 -0.11000
H 	H 	0.03612 0.55924 0.33432 0.07100
N 	N 	0.98251 0.50418 0.36942 -0.18100
C 	C 	0.00840 0.47389 0.38602 0.19600
C 	C 	0.00597 0.47279 0.41904 -0.08500
C 	C 	0.97812 0.50403 0.43485 0.06500
C 	C 	0.95040 0.53365 0.41744 -0.08100
C 	C 	0.95339 0.53350 0.38443 0.19900
C 	C 	0.02935 0.43986 0.43625 0.01100
C 	C 	0.02642 0.43899 0.46894 -0.05800
C 	C 	0.00349 0.47349 0.48539 0.01300
C 	C 	0.97695 0.50479 0.46811 -0.02600
C 	C 	0.94761 0.53553 0.48378 0.01600
C 	C 	0.91877 0.56163 0.43310 0.01100
C 	C 	0.91595 0.56125 0.46580 -0.05700
C 	C 	0.00460 0.47608 0.51875 0.01400
C 	C 	0.97538 0.50695 0.53441 -0.02800
C 	C 	0.94887 0.53826 0.51712 0.01700
O 	O 	0.92816 0.56170 0.36788 -0.20400
O 	O 	0.03595 0.44592 0.37101 -0.20500
H 	H 	0.89506 0.58268 0.41995 0.04300
H 	H 	0.88747 0.57910 0.47680 0.04600
H 	H 	0.04842 0.41379 0.42431 0.04200
H 	H 	0.03979 0.41021 0.48109 0.04500
C 	C 	0.92623 0.57296 0.53352 -0.05800
C 	C 	0.92368 0.57243 0.56623 0.01200
C 	C 	0.94701 0.53951 0.58348 -0.08300
C 	C 	0.97434 0.50785 0.56768 0.06800
C 	C 	0.03601 0.45013 0.53675 -0.06000
C 	C 	0.03308 0.44970 0.56944 0.01400
C 	C 	0.00177 0.47798 0.58508 -0.09200
C 	C 	0.94521 0.53892 0.61653 0.20000
N 	N 	0.97094 0.50853 0.63314 -0.18400
C 	C 	0.99899 0.47833 0.61810 0.20800
C 	C 	0.96973 0.50929 0.66686 0.14500
C 	C 	0.00263 0.53550 0.68349 -0.11000
C 	C 	0.00175 0.53599 0.71637 0.05100
C 	C 	0.96789 0.51042 0.73261 -0.08500
C 	C 	0.93513 0.48399 0.71611 0.05400
C 	C 	0.93606 0.48341 0.68319 -0.10700
O 	O 	0.91869 0.56773 0.63158 -0.20300
O 	O 	0.02347 0.44953 0.63464 -0.20900
H 	H 	0.02886 0.55518 0.67084 0.07100
H 	H 	0.91094 0.46287 0.67032 0.07100
H 	H 	0.91279 0.60166 0.52129 0.04700
H 	H 	0.90490 0.59872 0.57813 0.04400
H 	H 	0.06443 0.43215 0.52578 0.04600
H 	H 	0.05660 0.42846 0.58259 0.04100
H 	H 	0.96752 0.51052 0.75808 0.05600
H 	H 	0.99393 0.50606 0.24466 0.05500
Zn	Zn	0.75536 0.24575 0.00223 1.22100
C 	C 	0.74846 0.27038 0.93693 0.31500
O 	O 	0.70215 0.28635 0.00345 -0.45100
O 	O 	0.70357 0.25836 0.93888 -0.45400
O 	O 	0.64596 0.23252 0.99615 -0.50400
C 	C 	0.76985 0.15991 0.97536 0.33300
O 	O 	0.76883 0.18240 0.00170 -0.47600
O 	O 	0.73689 0.16576 0.95419 -0.50100
C 	C 	0.65823 0.27236 0.00625 0.31300
O 	O 	0.75205 0.23998 0.05744 -0.33100
Zn	Zn	0.68184 0.20220 0.96318 1.16700
O 	O 	0.77790 0.26071 0.95984 -0.44600
C 	C 	0.78929 0.26579 0.05716 0.28000
O 	O 	0.80420 0.27772 0.02958 -0.38500
Zn	Zn	0.01035 0.02352 0.00957 1.21800
C 	C 	0.09176 0.96720 0.00255 0.33800
O 	O 	0.97158 0.98975 0.03956 -0.46600
O 	O 	0.10860 0.98922 0.02683 -0.45200
O 	O 	0.02846 0.94715 0.06094 -0.48800
C 	C 	0.07485 0.08627 0.03652 0.33900
O 	O 	0.06042 0.06840 0.01007 -0.45800
O 	O 	0.06669 0.06555 0.06324 -0.51200
C 	C 	0.98544 0.95101 0.04991 0.30600
O 	O 	0.95698 0.08249 0.01410 -0.32400
Zn	Zn	0.06814 0.00046 0.06612 1.16400
O 	O 	0.04828 0.97420 0.99266 -0.43700
C 	C 	0.94146 0.07009 0.98681 0.25600
O 	O 	0.96271 0.03626 0.97458 -0.37900
C 	C 	0.89502 0.08436 0.97567 -0.02400
C 	C 	0.85400 0.06749 0.99017 -0.04300
C 	C 	0.81118 0.08980 0.98713 0.02500
C 	C 	0.80888 0.12908 0.96940 -0.13600
C 	C 	0.84879 0.14295 0.95149 0.13400
C 	C 	0.89196 0.12082 0.95529 -0.07800
H 	H 	0.78056 0.07826 0.00031 0.02300
H 	H 	0.92348 0.13312 0.94338 0.05400
H 	H 	0.85599 0.03880 0.00556 0.04600
N 	N 	0.84605 0.17766 0.93109 -0.20600
H 	H 	0.81363 0.19183 0.92547 0.10000
H 	H 	0.87627 0.18933 0.91934 0.08800
C 	C 	0.76597 0.29418 0.90876 -0.10200
C 	C 	0.80832 0.31923 0.90997 0.02200
C 	C 	0.82503 0.34137 0.88318 -0.07600
C 	C 	0.79963 0.33869 0.85500 0.04300
C 	C 	0.75743 0.31378 0.85366 -0.07800
C 	C 	0.74062 0.29158 0.88040 0.02000
C 	C 	0.81693 0.36161 0.82749 -0.02900
C 	C 	0.83210 0.38109 0.80477 -0.01400
C 	C 	0.85131 0.40492 0.77821 0.02000
C 	C 	0.88448 0.38452 0.75863 -0.04600
C 	C 	0.90935 0.40978 0.73630 -0.02900
C 	C 	0.90130 0.45562 0.73356 -0.01000
C 	C 	0.86574 0.47528 0.75168 -0.02900
C 	C 	0.84088 0.45001 0.77399 -0.04700
H 	H 	0.82814 0.32179 0.93167 0.03400
H 	H 	0.85768 0.36066 0.88437 0.04900
H 	H 	0.73766 0.31153 0.83191 0.04600
H 	H 	0.70816 0.27207 0.87897 0.02100
H 	H 	0.89240 0.34956 0.76158 0.04400
H 	H 	0.93658 0.39425 0.72231 0.04300
H 	H 	0.85904 0.51060 0.74956 0.04000
H 	H 	0.81494 0.46591 0.78884 0.04100
C 	C 	0.93445 0.44250 0.26629 -0.01100
C 	C 	0.95500 0.40213 0.25748 -0.02900
C 	C 	0.93412 0.37597 0.23401 -0.04700
C 	C 	0.89259 0.39002 0.21929 0.02100
C 	C 	0.87042 0.42889 0.22947 -0.04700
C 	C 	0.89130 0.45508 0.25292 -0.02900
C 	C 	0.87539 0.36703 0.19187 -0.01500
C 	C 	0.86102 0.34776 0.16890 -0.02600
C 	C 	0.84422 0.32538 0.14113 0.04000
C 	C 	0.80284 0.29926 0.14231 -0.06900
C 	C 	0.78527 0.27922 0.11502 0.01400
C 	C 	0.80899 0.28530 0.08625 -0.08000
C 	C 	0.85098 0.31091 0.08529 0.01400
C 	C 	0.86846 0.33089 0.11264 -0.06900
H 	H 	0.98827 0.39211 0.26776 0.04100
H 	H 	0.95122 0.34573 0.22646 0.04300
H 	H 	0.83804 0.43973 0.21839 0.04300
H 	H 	0.87513 0.48616 0.25966 0.04000
H 	H 	0.78399 0.29482 0.16430 0.04900
H 	H 	0.75294 0.25949 0.11621 0.03900
H 	H 	0.86994 0.31557 0.06338 0.03900
H 	H 	0.90059 0.35096 0.11160 0.04700
C 	C 	0.18061 0.85729 0.99167 -0.04900
C 	C 	0.13153 0.85040 0.99465 -0.03400
C 	C 	0.10093 0.88653 0.99349 0.01900
C 	C 	0.11907 0.92995 0.98985 -0.13400
C 	C 	0.16746 0.93619 0.98224 0.13000
C 	C 	0.19814 0.89980 0.98371 -0.07300
H 	H 	0.06360 0.88118 0.99827 0.03200
H 	H 	0.23564 0.90481 0.97931 0.05300
H 	H 	0.11728 0.81748 0.99966 0.05000
N 	N 	0.18458 0.97702 0.97381 -0.19800
H 	H 	0.16194 0.00383 0.97053 0.08900
H 	H 	0.22066 0.98188 0.96932 0.08600
C 	C 	0.03699 0.56220 0.73403 -0.00900
C 	C 	0.02440 0.60327 0.74701 -0.03400
C 	C 	0.05309 0.62330 0.76983 -0.04500
C 	C 	0.09447 0.60234 0.77978 0.02000
C 	C 	0.10883 0.56297 0.76519 -0.04600
C 	C 	0.08017 0.54295 0.74232 -0.03000
C 	C 	0.11876 0.61816 0.80734 -0.01400
C 	C 	0.13880 0.63173 0.83045 -0.02500
C 	C 	0.16149 0.64752 0.85861 0.04100
C 	C 	0.19147 0.68501 0.85757 -0.06800
C 	C 	0.21125 0.70192 0.88525 0.01500
C 	C 	0.20098 0.68147 0.91425 -0.08000
C 	C 	0.17162 0.64332 0.91507 0.01400
C 	C 	0.15194 0.62650 0.88735 -0.06900
H 	H 	0.99124 0.61850 0.74058 0.04500
H 	H 	0.04204 0.65402 0.78078 0.04300
H 	H 	0.14105 0.54683 0.77253 0.04300
H 	H 	0.09029 0.51135 0.73227 0.04100
H 	H 	0.19907 0.70135 0.83540 0.05100
H 	H 	0.23409 0.73114 0.88416 0.04200
H 	H 	0.16368 0.62692 0.93715 0.03800
H 	H 	0.12884 0.59742 0.88828 0.04700
C 	C 	0.04944 0.56848 0.27158 -0.00900
C 	C 	0.03087 0.60863 0.26051 -0.03500
C 	C 	0.05589 0.63388 0.23826 -0.04500
C 	C 	0.09959 0.61912 0.22704 0.01800
C 	C 	0.11985 0.58092 0.23995 -0.04600
C 	C 	0.09485 0.55567 0.26219 -0.03100
C 	C 	0.12057 0.63965 0.19975 -0.01500
C 	C 	0.13843 0.65659 0.17690 -0.02900
C 	C 	0.15935 0.67571 0.14909 0.04300
C 	C 	0.18700 0.64937 0.12933 -0.07500
C 	C 	0.20586 0.66729 0.10164 0.02300
C 	C 	0.19720 0.71179 0.09353 -0.10100
C 	C 	0.16938 0.73811 0.11340 0.02100
C 	C 	0.15053 0.72007 0.14107 -0.07600
H 	H 	0.99595 0.61893 0.26781 0.04400
H 	H 	0.04028 0.66370 0.22867 0.04000
H 	H 	0.15390 0.56961 0.23166 0.04200
H 	H 	0.10959 0.52486 0.27079 0.04000
H 	H 	0.19381 0.61498 0.13536 0.04800
H 	H 	0.22767 0.64675 0.08673 0.03400
H 	H 	0.16217 0.77239 0.10733 0.02800
H 	H 	0.12887 0.74052 0.15616 0.04600
C 	C 	0.95427 0.91136 0.04611 -0.05100
C 	C 	0.97324 0.86840 0.04603 -0.02700
C 	C 	0.94444 0.83142 0.03915 0.02000
C 	C 	0.89646 0.83683 0.03170 -0.12800
C 	C 	0.87712 0.88027 0.03159 0.13000
C 	C 	0.90603 0.91691 0.03962 -0.06700
H 	H 	0.95949 0.79844 0.03954 0.02300
H 	H 	0.89110 0.94998 0.03997 0.06100
H 	H 	0.01045 0.86360 0.05088 0.04100
N 	N 	0.83114 0.88715 0.02373 -0.20100
H 	H 	0.81017 0.86212 0.01389 0.08800
H 	H 	0.81661 0.91884 0.02580 0.08900
C 	C 	0.62108 0.94834 0.72353 -0.01200
C 	C 	0.66193 0.96819 0.73635 -0.01300
C 	C 	0.68719 0.94623 0.75981 -0.05200
C 	C 	0.67181 0.90429 0.77044 0.02500
C 	C 	0.63376 0.88268 0.75553 -0.04800
C 	C 	0.60848 0.90463 0.73209 -0.02700
C 	C 	0.69021 0.88660 0.79931 -0.01400
C 	C 	0.70547 0.87161 0.82347 -0.02300
C 	C 	0.72228 0.85441 0.85291 0.04100
C 	C 	0.73465 0.80956 0.85554 -0.06800
C 	C 	0.74763 0.79208 0.88469 0.01600
C 	C 	0.74815 0.81940 0.91149 -0.08000
C 	C 	0.73643 0.86454 0.90863 0.01600
C 	C 	0.72354 0.88191 0.87945 -0.06800
H 	H 	0.67221 0.00178 0.72966 0.02900
H 	H 	0.71705 0.96288 0.77089 0.04800
H 	H 	0.62210 0.84995 0.76330 0.04500
H 	H 	0.57726 0.88885 0.72208 0.04200
H 	H 	0.73361 0.78807 0.83512 0.05000
H 	H 	0.75657 0.75721 0.88650 0.04000
H 	H 	0.73716 0.88614 0.92898 0.04000
H 	H 	0.71398 0.91664 0.87757 0.05000
C 	C 	0.59915 0.96957 0.26566 0.00200
C 	C 	0.57136 0.93640 0.25121 -0.03300
C 	C 	0.59187 0.90706 0.22987 -0.04400
C 	C 	0.64023 0.91070 0.22291 0.01900
C 	C 	0.66868 0.94155 0.23915 -0.04300
C 	C 	0.64818 0.97092 0.26050 -0.03200
C 	C 	0.65916 0.88726 0.19638 -0.01200
C 	C 	0.67498 0.86761 0.17416 -0.02800
C 	C 	0.69376 0.84559 0.14698 0.04500
C 	C 	0.72031 0.86997 0.12495 -0.07500
C 	C 	0.73798 0.84903 0.09822 0.02500
C 	C 	0.72922 0.80341 0.09331 -0.10200
C 	C 	0.70228 0.77908 0.11534 0.02300
C 	C 	0.68459 0.80016 0.14208 -0.07600
H 	H 	0.53351 0.93487 0.25528 0.04300
H 	H 	0.56975 0.88294 0.21766 0.04200
H 	H 	0.70623 0.94421 0.23415 0.04400
H 	H 	0.66996 0.99623 0.27175 0.04500
H 	H 	0.72737 0.90516 0.12857 0.05100
H 	H 	0.75911 0.86810 0.08160 0.03500
H 	H 	0.69494 0.74395 0.11171 0.02800
H 	H 	0.66376 0.78119 0.15893 0.04900
C 	C 	0.17623 0.19144 0.02379 -0.05200
C 	C 	0.18589 0.15561 0.04383 -0.03300
C 	C 	0.15130 0.12305 0.04980 0.02300
C 	C 	0.10654 0.12572 0.03577 -0.13600
C 	C 	0.09529 0.16369 0.01753 0.13100
C 	C 	0.13068 0.19591 0.01120 -0.06500
H 	H 	0.16005 0.09455 0.06419 0.01100
H 	H 	0.12279 0.22416 0.99632 0.04900
H 	H 	0.22061 0.15249 0.05432 0.04500
N 	N 	0.05056 0.16993 0.00681 -0.20200
H 	H 	0.02250 0.14948 0.01415 0.10100
H 	H 	0.04301 0.19692 0.99223 0.08200
C 	C 	0.33803 0.16480 0.91584 -0.08100
C 	C 	0.30744 0.15389 0.89091 0.01400
C 	C 	0.32557 0.13666 0.86295 -0.07000
C 	C 	0.37427 0.12995 0.85976 0.04000
C 	C 	0.40464 0.13904 0.88499 -0.07100
C 	C 	0.38664 0.15629 0.91298 0.01300
C 	C 	0.39332 0.11487 0.83034 -0.02800
C 	C 	0.41004 0.10226 0.80593 -0.01400
C 	C 	0.43122 0.08688 0.77725 0.01500
C 	C 	0.46795 0.11168 0.76323 -0.04300
C 	C 	0.49445 0.09321 0.73888 -0.03700
C 	C 	0.48442 0.04978 0.72852 0.00100
C 	C 	0.44539 0.02635 0.74098 -0.05000
C 	C 	0.41892 0.04484 0.76533 -0.03900
H 	H 	0.26977 0.15950 0.89296 0.03800
H 	H 	0.30181 0.12918 0.84364 0.04900
H 	H 	0.44231 0.13347 0.88277 0.04200
H 	H 	0.41066 0.16415 0.93205 0.03400
H 	H 	0.47734 0.14444 0.77211 0.04000
H 	H 	0.52439 0.11163 0.72929 0.04100
H 	H 	0.43723 0.99288 0.73299 0.05500
H 	H 	0.39021 0.02567 0.77582 0.03900
C 	C 	0.35287 0.24666 0.08284 -0.09700
C 	C 	0.32726 0.23285 0.10953 0.02100
C 	C 	0.35097 0.21727 0.13603 -0.07500
C 	C 	0.40042 0.21523 0.13614 0.04300
C 	C 	0.42623 0.22928 0.10970 -0.07300
C 	C 	0.40256 0.24497 0.08311 0.02200
C 	C 	0.42439 0.19670 0.16287 -0.02800
C 	C 	0.44352 0.18104 0.18555 -0.01500
C 	C 	0.46560 0.16101 0.21245 0.02000
C 	C 	0.51496 0.16235 0.21553 -0.04700
C 	C 	0.53690 0.13717 0.23886 -0.02900
C 	C 	0.50958 0.11028 0.25911 -0.01100
C 	C 	0.46002 0.11123 0.25726 -0.03000
C 	C 	0.43812 0.13650 0.23396 -0.04700
H 	H 	0.28893 0.23353 0.10960 0.03000
H 	H 	0.33081 0.20625 0.15633 0.04700
H 	H 	0.46453 0.22773 0.10963 0.05000
H 	H 	0.42282 0.25584 0.06282 0.03700
H 	H 	0.53642 0.18156 0.19917 0.04300
H 	H 	0.57518 0.13694 0.24027 0.03900
H 	H 	0.43860 0.09072 0.27284 0.03900
H 	H 	0.39989 0.13563 0.23189 0.04100
C 	C 	0.43591 0.42391 0.94801 -0.05200
C 	C 	0.44006 0.37756 0.94511 -0.03000
C 	C 	0.40282 0.34932 0.95424 0.02000
C 	C 	0.36040 0.36694 0.96569 -0.12800
C 	C 	0.35404 0.41367 0.96536 0.12600
C 	C 	0.39233 0.44184 0.95724 -0.06900
H 	H 	0.40761 0.31360 0.95351 0.02900
H 	H 	0.38813 0.47765 0.95812 0.05800
H 	H 	0.47281 0.36323 0.93696 0.04200
N 	N 	0.31109 0.43154 0.97164 -0.20100
H 	H 	0.28065 0.41159 0.97342 0.07000
H 	H 	0.30729 0.46607 0.97291 0.08000
C 	C 	0.44086 0.61602 0.02029 -0.02700
C 	C 	0.39469 0.60532 0.03001 -0.03900
C 	C 	0.36105 0.63876 0.03297 0.02800
C 	C 	0.37328 0.68328 0.02645 -0.13500
C 	C 	0.42084 0.69472 0.01916 0.13300
C 	C 	0.45428 0.66080 0.01612 -0.07500
H 	H 	0.32489 0.62984 0.03906 0.02600
H 	H 	0.49037 0.66914 0.00939 0.05900
H 	H 	0.38411 0.57086 0.03354 0.04900
N 	N 	0.43441 0.73790 0.01459 -0.20300
H 	H 	0.41076 0.76397 0.01750 0.07100
H 	H 	0.46939 0.74588 0.00858 0.08400
C 	C 	0.62184 0.30400 0.01634 -0.04500
C 	C 	0.57936 0.30717 0.99953 -0.04300
C 	C 	0.55381 0.34674 0.00028 0.02700
C 	C 	0.57146 0.38361 0.01700 -0.13300
C 	C 	0.60836 0.37721 0.03880 0.13500
C 	C 	0.63374 0.33732 0.03815 -0.06800
H 	H 	0.52367 0.35047 0.98488 0.02200
H 	H 	0.66463 0.33356 0.05297 0.05800
H 	H 	0.56845 0.28075 0.98371 0.03400
N 	N 	0.62082 0.40995 0.05929 -0.20400
H 	H 	0.60125 0.43914 0.06087 0.09700
H 	H 	0.64937 0.40586 0.07456 0.08800
C 	C 	0.64279 0.58319 0.98407 -0.05100
C 	C 	0.68653 0.58457 0.96847 -0.03200
C 	C 	0.72054 0.61699 0.97630 0.02300
C 	C 	0.71129 0.64839 0.99984 -0.14300
C 	C 	0.66754 0.64644 0.01622 0.13600
C 	C 	0.63321 0.61457 0.00753 -0.06400
H 	H 	0.75386 0.61815 0.96368 0.02600
H 	H 	0.59934 0.61362 0.01955 0.05900
H 	H 	0.69442 0.56027 0.95050 0.03600
N 	N 	0.65891 0.67401 0.04084 -0.20500
H 	H 	0.68549 0.69423 0.05039 0.09900
H 	H 	0.62577 0.67372 0.05178 0.08700
