data_crystal

_cell_length_a 21.94511
_cell_length_b 22.03553
_cell_length_c 51.59041
_cell_angle_alpha 89.91967
_cell_angle_beta  89.91996
_cell_angle_gamma 119.81684

_symmetry_space_group_name_	'P 1'
_symmetry_space_group_name_H-M	'P 1'

loop_
_symmetry_equiv_pos_as_xyz
  x,y,z

loop_
_atom_site_label
_atom_site_type_symbol
_atom_site_fract_x
_atom_site_fract_y
_atom_site_fract_z
_atom_site_charge
C 	C 	0.66841 0.43223 0.97139 0.29200
C 	C 	0.64006 0.16956 0.93700 0.30900
C 	C 	0.77018 0.34739 0.99065 0.31100
C 	C 	0.54756 0.26029 0.91058 0.33100
C 	C 	0.84049 0.33896 0.91442 0.34600
C 	C 	0.76282 0.44916 0.88783 0.33200
Ni	Ni	0.63615 0.28682 0.96025 1.11500
Ni	Ni	0.69400 0.29327 0.90172 1.13200
Ni	Ni	0.78224 0.41749 0.94151 1.12700
O 	O 	0.61805 0.36873 0.96533 -0.36400
O 	O 	0.73670 0.45192 0.96886 -0.35800
O 	O 	0.77854 0.28508 0.90952 -0.36200
O 	O 	0.67005 0.21615 0.95493 -0.36700
O 	O 	0.63561 0.19044 0.91349 -0.33600
O 	O 	0.76659 0.46830 0.91242 -0.36100
O 	O 	0.70295 0.32653 0.99240 -0.36500
O 	O 	0.80086 0.36186 0.96810 -0.37200
O 	O 	0.74984 0.38496 0.88107 -0.33800
O 	O 	0.55211 0.23603 0.93382 -0.35500
O 	O 	0.60063 0.28568 0.89379 -0.34400
O 	O 	0.84806 0.40153 0.91844 -0.35200
O 	O 	0.69409 0.34024 0.93284 -0.71900
H 	H 	0.66942 0.36460 0.92671 0.17700
C 	C 	0.76945 0.43866 0.53761 0.28900
C 	C 	0.53150 0.17455 0.56898 0.30800
C 	C 	0.58201 0.35796 0.51719 0.31100
C 	C 	0.71530 0.26171 0.59506 0.32900
C 	C 	0.50353 0.34400 0.59419 0.34600
C 	C 	0.69099 0.44978 0.62051 0.33300
Ni	Ni	0.65334 0.29245 0.54618 1.11500
Ni	Ni	0.60280 0.29529 0.60519 1.13200
Ni	Ni	0.64029 0.42304 0.56686 1.12700
O 	O 	0.75384 0.37294 0.54071 -0.36300
O 	O 	0.72063 0.45818 0.53964 -0.36000
O 	O 	0.51088 0.28909 0.59766 -0.36300
O 	O 	0.54860 0.22248 0.55146 -0.36700
O 	O 	0.55746 0.19342 0.59247 -0.33700
O 	O 	0.70687 0.47061 0.59609 -0.36300
O 	O 	0.62709 0.33561 0.51478 -0.36100
O 	O 	0.56595 0.37048 0.54007 -0.37100
O 	O 	0.63942 0.38529 0.62680 -0.33900
O 	O 	0.68621 0.23913 0.57176 -0.35400
O 	O 	0.68768 0.28566 0.61244 -0.34400
O 	O 	0.55879 0.40653 0.59027 -0.35100
O 	O 	0.65014 0.34438 0.57435 -0.71900
H 	H 	0.69923 0.36757 0.58032 0.17600
C 	C 	0.94092 0.11607 0.72471 0.33200
C 	C 	0.94967 0.88949 0.78416 0.31900
C 	C 	0.97046 0.10426 0.79793 0.33000
C 	C 	0.94031 0.88636 0.72432 0.30600
C 	C 	0.16903 0.11618 0.78312 0.35400
C 	C 	0.13546 0.10817 0.70949 0.32400
Ni	Ni	0.91872 0.99161 0.75620 1.12100
Ni	Ni	0.07045 0.99538 0.75151 1.12900
Ni	Ni	0.06821 0.13848 0.75361 1.13500
O 	O 	0.90195 0.04752 0.72724 -0.33200
O 	O 	0.98742 0.15333 0.74259 -0.35100
O 	O 	0.13091 0.04780 0.78212 -0.34300
O 	O 	0.91732 0.92620 0.78544 -0.33900
O 	O 	0.01720 0.92051 0.77888 -0.32700
O 	O 	0.10461 0.14389 0.71748 -0.34300
O 	O 	0.91670 0.06103 0.78338 -0.32900
O 	O 	0.03557 0.12488 0.79092 -0.34200
O 	O 	0.14151 0.06205 0.72476 -0.33400
O 	O 	0.90032 0.91479 0.72875 -0.33300
O 	O 	0.01021 0.92529 0.72379 -0.33300
O 	O 	0.16227 0.15471 0.76542 -0.35700
O 	O 	0.01524 0.03936 0.74913 -0.71200
H 	H 	0.00953 0.03701 0.73014 0.16000
C 	C 	0.17410 0.72646 0.42334 0.32800
C 	C 	0.35286 0.60465 0.45449 0.30600
C 	C 	0.36495 0.81114 0.43751 0.30700
C 	C 	0.15607 0.51826 0.44571 0.28800
C 	C 	0.39203 0.69032 0.37546 0.35100
C 	C 	0.20153 0.58737 0.36081 0.32900
Ni	Ni	0.26060 0.66980 0.45168 1.11600
Ni	Ni	0.27567 0.57776 0.40621 1.12700
Ni	Ni	0.28581 0.72320 0.39203 1.13300
O 	O 	0.21116 0.72987 0.44441 -0.35300
O 	O 	0.19458 0.72087 0.39961 -0.34500
O 	O 	0.34512 0.62299 0.37648 -0.35100
O 	O 	0.30553 0.61296 0.46715 -0.36100
O 	O 	0.36001 0.61508 0.42957 -0.36700
O 	O 	0.24450 0.65707 0.36060 -0.33000
O 	O 	0.35948 0.75387 0.44668 -0.37100
O 	O 	0.32995 0.80825 0.41639 -0.34000
O 	O 	0.19825 0.54774 0.38064 -0.37100
O 	O 	0.16694 0.57843 0.45534 -0.36000
O 	O 	0.20793 0.51211 0.43457 -0.35600
O 	O 	0.38183 0.73563 0.38822 -0.36800
O 	O 	0.25515 0.64844 0.41627 -0.71900
H 	H 	0.20407 0.62450 0.41334 0.17600
C 	C 	0.54625 0.72149 0.08212 0.32900
C 	C 	0.24414 0.58926 0.05175 0.30800
C 	C 	0.43509 0.79926 0.06642 0.30800
C 	C 	0.35854 0.50774 0.06290 0.28600
C 	C 	0.29053 0.68211 0.12988 0.35200
C 	C 	0.38121 0.58330 0.14632 0.32800
Ni	Ni	0.40176 0.65775 0.05425 1.11600
Ni	Ni	0.29639 0.56849 0.10072 1.12700
Ni	Ni	0.42994 0.71630 0.11320 1.13300
O 	O 	0.51117 0.72109 0.06084 -0.35300
O 	O 	0.52004 0.71609 0.10582 -0.34600
O 	O 	0.27119 0.61497 0.12967 -0.35100
O 	O 	0.30003 0.59765 0.03928 -0.35900
O 	O 	0.24760 0.60212 0.07648 -0.36600
O 	O 	0.40751 0.65297 0.14556 -0.33000
O 	O 	0.38432 0.74058 0.05782 -0.37100
O 	O 	0.46810 0.79913 0.08771 -0.34000
O 	O 	0.34559 0.54204 0.12682 -0.37200
O 	O 	0.40621 0.56705 0.05206 -0.35900
O 	O 	0.29990 0.50131 0.07353 -0.35600
O 	O 	0.34530 0.72707 0.11667 -0.36900
O 	O 	0.38680 0.63950 0.08993 -0.71900
H 	H 	0.41505 0.61689 0.09336 0.17500
C 	C 	0.02778 0.14081 0.27901 0.33800
C 	C 	0.08490 0.92337 0.23286 0.35000
C 	C 	0.09892 0.13219 0.22005 0.34500
C 	C 	0.02364 0.92217 0.30176 0.33700
C 	C 	0.90440 0.92645 0.19994 0.35100
C 	C 	0.83205 0.91736 0.26862 0.33100
Ni	Ni	0.08683 0.04140 0.26378 1.12900
Ni	Ni	0.94634 0.89515 0.25052 1.13100
Ni	Ni	0.94947 0.03792 0.23832 1.13100
O 	O 	0.08280 0.13010 0.27772 -0.32700
O 	O 	0.96430 0.09364 0.27100 -0.35000
O 	O 	0.88489 0.88256 0.21958 -0.35400
O 	O 	0.11466 0.96700 0.25230 -0.32700
O 	O 	0.02150 0.90618 0.22529 -0.35200
O 	O 	0.84965 0.96376 0.24926 -0.33500
O 	O 	0.11160 0.08262 0.22687 -0.34200
O 	O 	0.03700 0.12607 0.22471 -0.33500
O 	O 	0.86670 0.88321 0.27294 -0.35100
O 	O 	0.06276 0.99112 0.29950 -0.33100
O 	O 	0.99837 0.88148 0.28097 -0.34900
O 	O 	0.94393 0.99395 0.20371 -0.35500
O 	O 	0.99055 0.99280 0.25678 -0.72500
H 	H 	0.97271 0.99246 0.27435 0.17300
C 	C 	0.37919 0.54881 0.17098 -0.09600
C 	C 	0.32301 0.53258 0.18802 0.12400
C 	C 	0.28427 0.46457 0.19836 0.06900
C 	C 	0.30592 0.41530 0.19330 0.02000
C 	C 	0.37150 0.43748 0.18130 0.07000
C 	C 	0.40995 0.50613 0.17145 0.12200
C 	C 	0.25761 0.33992 0.19873 0.01900
C 	C 	0.26405 0.30990 0.22191 0.07000
C 	C 	0.21670 0.23914 0.22745 0.13000
C 	C 	0.15775 0.20045 0.21128 -0.10600
C 	C 	0.15268 0.22977 0.18764 0.13000
C 	C 	0.20351 0.29895 0.18111 0.07100
Br	Br	0.40542 0.37267 0.17646 -0.13000
Br	Br	0.29594 0.60129 0.19540 -0.11900
Br	Br	0.23606 0.19468 0.25600 -0.18400
Br	Br	0.19914 0.33787 0.14810 -0.15600
Br	Br	0.50066 0.53919 0.15588 -0.13500
Br	Br	0.19866 0.43705 0.21731 -0.11200
Br	Br	0.33666 0.36637 0.24641 -0.10500
Br	Br	0.07778 0.17422 0.16381 -0.12800
C 	C 	0.86832 0.90151 0.17495 -0.10900
C 	C 	0.80160 0.89455 0.17140 0.13100
C 	C 	0.76051 0.85728 0.15008 0.06900
C 	C 	0.78961 0.83516 0.13037 0.01800
C 	C 	0.85916 0.84830 0.13265 0.07200
C 	C 	0.89774 0.87947 0.15535 0.12700
C 	C 	0.74751 0.80045 0.10701 0.02100
C 	C 	0.70414 0.72720 0.10674 0.06500
C 	C 	0.64196 0.69726 0.09206 0.12900
C 	C 	0.62072 0.74080 0.07998 -0.11200
C 	C 	0.67173 0.81107 0.07520 0.12900
C 	C 	0.73614 0.84075 0.08852 0.06400
Br	Br	0.90153 0.82445 0.10461 -0.12800
Br	Br	0.76864 0.94041 0.19467 -0.13900
Br	Br	0.58258 0.59768 0.09030 -0.18700
Br	Br	0.80536 0.93777 0.08370 -0.13600
Br	Br	0.99069 0.89224 0.15960 -0.13700
Br	Br	0.66341 0.83410 0.14835 -0.13400
Br	Br	0.72565 0.66942 0.12858 -0.12400
Br	Br	0.65231 0.86700 0.05175 -0.17700
C 	C 	0.12071 0.88917 0.22064 -0.10400
C 	C 	0.16544 0.92106 0.19925 0.13100
C 	C 	0.18959 0.88340 0.18456 0.07200
C 	C 	0.17213 0.81509 0.19208 0.02000
C 	C 	0.13010 0.78440 0.21416 0.07000
C 	C 	0.10251 0.82039 0.22791 0.13000
C 	C 	0.20038 0.77662 0.17738 0.02200
C 	C 	0.15971 0.72876 0.15791 0.06600
C 	C 	0.18747 0.69363 0.14357 0.13100
C 	C 	0.25699 0.70862 0.14795 -0.11100
C 	C 	0.29760 0.75682 0.16747 0.13400
C 	C 	0.26821 0.78844 0.18279 0.06700
Br	Br	0.11070 0.69304 0.22559 -0.10500
Br	Br	0.19248 0.01591 0.18983 -0.12600
Br	Br	0.13165 0.62789 0.11700 -0.16300
Br	Br	0.32097 0.84842 0.21122 -0.10600
Br	Br	0.03694 0.77397 0.25580 -0.13800
Br	Br	0.24553 0.92467 0.15387 -0.13000
Br	Br	0.06678 0.71289 0.15046 -0.11900
Br	Br	0.39473 0.78245 0.17244 -0.15700
C 	C 	0.45087 0.71635 0.35680 -0.11100
C 	C 	0.50474 0.69986 0.36023 0.13200
C 	C 	0.56597 0.73319 0.34488 0.06600
C 	C 	0.57320 0.78267 0.32600 0.02200
C 	C 	0.51839 0.79722 0.32192 0.06700
C 	C 	0.45772 0.76489 0.33744 0.13400
C 	C 	0.63851 0.81957 0.31041 0.02000
C 	C 	0.69378 0.88480 0.31867 0.07300
C 	C 	0.75528 0.92026 0.30361 0.12600
C 	C 	0.76251 0.88951 0.28078 -0.09700
C 	C 	0.70609 0.82565 0.27200 0.12900
C 	C 	0.64415 0.79078 0.28679 0.07000
Br	Br	0.52701 0.86224 0.29509 -0.10800
Br	Br	0.49646 0.63468 0.38691 -0.17000
Br	Br	0.82988 0.01076 0.31427 -0.14000
Br	Br	0.56708 0.70313 0.27491 -0.10700
Br	Br	0.38462 0.78839 0.33246 -0.15800
Br	Br	0.64064 0.71222 0.34997 -0.12400
Br	Br	0.68552 0.92473 0.35082 -0.13100
Br	Br	0.71436 0.78527 0.23996 -0.12500
C 	C 	0.03869 0.20849 0.28908 -0.10100
C 	C 	0.02415 0.25237 0.27329 0.13300
C 	C 	0.04494 0.32095 0.28133 0.06900
C 	C 	0.07730 0.34493 0.30556 0.02100
C 	C 	0.08593 0.29915 0.32232 0.07100
C 	C 	0.06663 0.23096 0.31409 0.12800
C 	C 	0.10594 0.41939 0.31284 0.01800
C 	C 	0.17715 0.46822 0.30812 0.07000
C 	C 	0.20711 0.53534 0.31915 0.12300
C 	C 	0.16765 0.55102 0.33664 -0.09600
C 	C 	0.09422 0.50841 0.33668 0.12100
C 	C 	0.06328 0.44104 0.32573 0.07600
Br	Br	0.12491 0.33037 0.35642 -0.14900
Br	Br	0.97384 0.21850 0.24112 -0.16600
Br	Br	0.30300 0.60389 0.31175 -0.12000
Br	Br	0.96414 0.37710 0.32992 -0.13600
Br	Br	0.07474 0.16707 0.33755 -0.12900
Br	Br	0.02997 0.38268 0.25899 -0.09900
Br	Br	0.23471 0.44110 0.28860 -0.11400
Br	Br	0.03748 0.54014 0.35394 -0.12800
C 	C 	0.11742 0.74360 0.42547 -0.11000
C 	C 	0.13520 0.81419 0.42783 0.12800
C 	C 	0.09838 0.83943 0.41319 0.06500
C 	C 	0.04532 0.79400 0.39612 0.01900
C 	C 	0.01658 0.72129 0.39925 0.07300
C 	C 	0.05159 0.69617 0.41503 0.12700
C 	C 	0.03581 0.82206 0.37128 0.02500
C 	C 	0.98237 0.83943 0.36859 0.06800
C 	C 	0.97780 0.87175 0.34563 0.11700
C 	C 	0.02868 0.88973 0.32600 -0.09400
C 	C 	0.08325 0.87430 0.32913 0.12900
C 	C 	0.08449 0.83713 0.35102 0.06800
Br	Br	0.93495 0.65734 0.37976 -0.13100
Br	Br	0.21201 0.87653 0.44949 -0.17400
Br	Br	0.90226 0.89160 0.34108 -0.14300
Br	Br	0.15253 0.80608 0.35318 -0.13400
Br	Br	0.01345 0.59761 0.42059 -0.18300
Br	Br	0.12524 0.93695 0.41415 -0.13000
Br	Br	0.91652 0.82009 0.39646 -0.12900
Br	Br	0.15880 0.90788 0.30419 -0.12500
C 	C 	0.38485 0.86893 0.45568 -0.05800
C 	C 	0.45210 0.92769 0.45449 0.01800
C 	C 	0.47810 0.97382 0.47545 -0.04000
C 	C 	0.43672 0.96095 0.49802 0.01400
C 	C 	0.36603 0.90683 0.49772 0.02200
C 	C 	0.34189 0.85875 0.47734 -0.00400
C 	C 	0.32007 0.90194 0.51766 -0.02500
C 	C 	0.34375 0.95136 0.53757 -0.03100
C 	C 	0.41488 0.00268 0.53895 0.02800
C 	C 	0.46273 0.00367 0.52030 0.01400
C 	C 	0.53502 0.04520 0.52494 -0.04000
C 	C 	0.55864 0.09548 0.54437 0.01300
C 	C 	0.51059 0.10408 0.55977 -0.05300
C 	C 	0.43899 0.05406 0.55841 -0.00600
H 	H 	0.48518 0.93640 0.43769 0.05700
H 	H 	0.52911 0.02032 0.47371 0.05900
H 	H 	0.29064 0.81234 0.47868 0.04700
H 	H 	0.26540 0.86117 0.51727 0.06400
H 	H 	0.30696 0.94905 0.55211 0.06900
H 	H 	0.57304 0.03899 0.51358 0.06000
H 	H 	0.61400 0.13303 0.54537 0.04700
H 	H 	0.40180 0.05849 0.57103 0.07000
C 	C 	0.83658 0.48486 0.52492 -0.05000
C 	C 	0.83709 0.49059 0.49784 0.01000
C 	C 	0.88724 0.48385 0.48317 -0.03900
C 	C 	0.93700 0.47098 0.49577 0.01100
C 	C 	0.94438 0.47987 0.52301 0.03400
C 	C 	0.89709 0.49268 0.53707 -0.01800
C 	C 	0.99596 0.47178 0.53606 -0.05600
C 	C 	0.04078 0.45545 0.52240 -0.01400
C 	C 	0.03504 0.44718 0.49543 0.02400
C 	C 	0.98067 0.45098 0.48201 0.01200
C 	C 	0.97405 0.43756 0.45504 -0.04100
C 	C 	0.03017 0.43934 0.44133 0.02200
C 	C 	0.09238 0.45598 0.45448 -0.05100
C 	C 	0.08734 0.44272 0.48119 -0.00800
H 	H 	0.79404 0.49183 0.48807 0.05200
H 	H 	0.88694 0.48871 0.46235 0.06800
H 	H 	0.90097 0.49685 0.55801 0.07000
H 	H 	0.00130 0.47808 0.55692 0.08200
H 	H 	0.08143 0.45117 0.53275 0.05900
H 	H 	0.92671 0.42612 0.44474 0.06800
H 	H 	0.02927 0.43878 0.42033 0.06600
H 	H 	0.13165 0.44459 0.49123 0.05500
C 	C 	0.39007 0.57290 0.46721 -0.06300
C 	C 	0.35169 0.50530 0.47758 0.01300
C 	C 	0.38414 0.46529 0.48189 -0.04100
C 	C 	0.45566 0.49235 0.47540 0.01600
C 	C 	0.49602 0.56351 0.46797 0.02300
C 	C 	0.46274 0.60293 0.46350 -0.00400
C 	C 	0.56922 0.59473 0.46541 -0.02600
C 	C 	0.60299 0.55685 0.47117 -0.02800
C 	C 	0.56374 0.48598 0.47802 0.02000
C 	C 	0.48948 0.45185 0.47804 0.01600
C 	C 	0.45144 0.37837 0.48054 -0.03800
C 	C 	0.48581 0.34258 0.48863 0.02000
C 	C 	0.55765 0.37976 0.49452 -0.06400
C 	C 	0.59762 0.44932 0.48611 -0.01200
H 	H 	0.29587 0.48246 0.48120 0.05200
H 	H 	0.35403 0.41447 0.49091 0.06200
H 	H 	0.49280 0.65601 0.45615 0.06600
H 	H 	0.60030 0.64916 0.45971 0.06700
H 	H 	0.65983 0.58276 0.47036 0.06200
H 	H 	0.39604 0.34888 0.47605 0.06500
H 	H 	0.45542 0.28708 0.49275 0.06300
H 	H 	0.65414 0.47698 0.48878 0.05200
C 	C 	0.77235 0.24955 0.60368 -0.11300
C 	C 	0.76096 0.18073 0.60597 0.12900
C 	C 	0.80372 0.16745 0.62260 0.06400
C 	C 	0.84978 0.21988 0.63969 0.01900
C 	C 	0.86484 0.28936 0.63597 0.06600
C 	C 	0.83055 0.30446 0.61616 0.12900
C 	C 	0.87501 0.20036 0.66313 0.02000
C 	C 	0.82807 0.16444 0.68361 0.06900
C 	C 	0.84923 0.13687 0.70409 0.13000
C 	C 	0.91984 0.15238 0.70560 -0.09900
C 	C 	0.96904 0.19904 0.68742 0.12100
C 	C 	0.94528 0.21601 0.66482 0.06800
Br	Br	0.92593 0.36196 0.65958 -0.11400
Br	Br	0.68270 0.10371 0.58906 -0.16400
Br	Br	0.78211 0.08026 0.73035 -0.11800
Br	Br	0.00822 0.25814 0.63588 -0.10800
Br	Br	0.86140 0.39988 0.60655 -0.18600
Br	Br	0.79740 0.07699 0.62285 -0.12600
Br	Br	0.73555 0.15441 0.68380 -0.11600
Br	Br	0.06749 0.25014 0.69555 -0.13600
C 	C 	0.43219 0.33453 0.59615 -0.11200
C 	C 	0.37726 0.27527 0.58414 0.12700
C 	C 	0.31530 0.23260 0.59812 0.06500
C 	C 	0.30417 0.25622 0.62207 0.02100
C 	C 	0.34969 0.32603 0.62948 0.06400
C 	C 	0.41534 0.36463 0.61708 0.12500
C 	C 	0.25787 0.20507 0.64186 0.01600
C 	C 	0.18507 0.18033 0.64191 0.07500
C 	C 	0.14335 0.13793 0.66248 0.12600
C 	C 	0.17559 0.13033 0.68494 -0.09500
C 	C 	0.24861 0.15480 0.68471 0.12400
C 	C 	0.28791 0.18621 0.66220 0.07000
Br	Br	0.32442 0.36570 0.65793 -0.11700
Br	Br	0.39138 0.24794 0.55027 -0.17800
Br	Br	0.04244 0.08764 0.65951 -0.13400
Br	Br	0.38318 0.20429 0.65930 -0.14200
Br	Br	0.48308 0.45522 0.62990 -0.12400
Br	Br	0.25144 0.13898 0.58643 -0.13700
Br	Br	0.14344 0.20810 0.61487 -0.11400
Br	Br	0.29681 0.15481 0.71591 -0.11600
C 	C 	0.90651 0.81590 0.71209 -0.08800
C 	C 	0.93530 0.80406 0.68935 0.12000
C 	C 	0.90655 0.73587 0.67934 0.07300
C 	C 	0.84438 0.68103 0.68998 0.02000
C 	C 	0.81684 0.69201 0.71295 0.07300
C 	C 	0.84492 0.75982 0.72315 0.12000
C 	C 	0.79982 0.61857 0.67397 0.02000
C 	C 	0.75403 0.62149 0.65561 0.06600
C 	C 	0.71653 0.56534 0.63861 0.13000
C 	C 	0.72138 0.50389 0.64090 -0.10100
C 	C 	0.76288 0.49883 0.66074 0.12500
C 	C 	0.80364 0.55690 0.67680 0.07100
Br	Br	0.73801 0.61421 0.72970 -0.10400
Br	Br	0.00463 0.88182 0.66917 -0.11800
Br	Br	0.66097 0.57426 0.61146 -0.15900
Br	Br	0.86598 0.55282 0.70216 -0.10000
Br	Br	0.79362 0.77644 0.75001 -0.16100
Br	Br	0.95036 0.71785 0.65022 -0.13600
Br	Br	0.74350 0.70337 0.65354 -0.12400
Br	Br	0.76484 0.41305 0.66566 -0.12600
C 	C 	0.81397 0.36460 0.01383 -0.06200
C 	C 	0.84095 0.43167 0.02439 0.00700
C 	C 	0.91048 0.46804 0.03310 -0.03600
C 	C 	0.95343 0.43729 0.03085 -0.00200
C 	C 	0.92092 0.36467 0.02585 0.03400
C 	C 	0.85023 0.32812 0.01815 -0.01000
C 	C 	0.96034 0.33054 0.02700 -0.04500
C 	C 	0.03243 0.36843 0.03172 -0.00900
C 	C 	0.06686 0.44148 0.03419 0.01200
C 	C 	0.02792 0.47700 0.03301 0.03400
C 	C 	0.06471 0.55089 0.03210 -0.04400
C 	C 	0.13739 0.58811 0.03582 0.02500
C 	C 	0.17487 0.55267 0.03950 -0.06500
C 	C 	0.14004 0.47960 0.03756 -0.00500
H 	H 	0.81073 0.45831 0.02333 0.04800
H 	H 	0.93013 0.51921 0.04161 0.05900
H 	H 	0.82648 0.27373 0.01240 0.06900
H 	H 	0.93526 0.27458 0.02389 0.07100
H 	H 	0.06197 0.34107 0.03269 0.06000
H 	H 	0.03800 0.57975 0.02782 0.06700
H 	H 	0.16433 0.64472 0.03670 0.05700
H 	H 	0.16939 0.45228 0.03994 0.05500
C 	C 	0.58851 0.09888 0.94558 -0.05300
C 	C 	0.53216 0.09105 0.96101 0.01400
C 	C 	0.50328 0.03904 0.97987 -0.03900
C 	C 	0.53147 0.99496 0.98393 0.01300
C 	C 	0.57787 0.99363 0.96515 0.02400
C 	C 	0.60754 0.04683 0.94629 -0.00300
C 	C 	0.59485 0.94014 0.96583 -0.02700
C 	C 	0.56697 0.88904 0.98524 -0.02400
C 	C 	0.52675 0.89429 0.00543 0.02200
C 	C 	0.51282 0.95027 0.00578 0.01600
C 	C 	0.48558 0.96325 0.02866 -0.04100
C 	C 	0.46476 0.91617 0.04942 0.01900
C 	C 	0.47112 0.85622 0.04769 -0.05900
C 	C 	0.50182 0.84523 0.02559 -0.00100
H 	H 	0.51603 0.12999 0.96042 0.04500
H 	H 	0.45931 0.03349 0.99124 0.06000
H 	H 	0.64894 0.05078 0.93366 0.06900
H 	H 	0.62884 0.93752 0.95115 0.06800
H 	H 	0.57880 0.84679 0.98511 0.06400
H 	H 	0.48287 0.01067 0.03084 0.05900
H 	H 	0.44193 0.92540 0.06655 0.05700
H 	H 	0.50545 0.79810 0.02399 0.04500
C 	C 	0.64761 0.47323 0.98760 -0.05300
C 	C 	0.60265 0.49417 0.97652 0.01200
C 	C 	0.54284 0.48366 0.99002 -0.03700
C 	C 	0.53026 0.45595 0.01537 0.01500
C 	C 	0.58490 0.45228 0.02850 0.02100
C 	C 	0.64424 0.46206 0.01452 -0.01200
C 	C 	0.57879 0.43743 0.05520 -0.02400
C 	C 	0.51996 0.42870 0.06902 -0.02600
C 	C 	0.46516 0.43133 0.05604 0.03200
C 	C 	0.46681 0.43702 0.02875 0.01200
C 	C 	0.40516 0.42485 0.01584 -0.03900
C 	C 	0.35098 0.42524 0.03006 0.01200
C 	C 	0.36238 0.44536 0.05619 -0.04700
C 	C 	0.41126 0.43415 0.06988 -0.01400
H 	H 	0.60868 0.50939 0.95629 0.06300
H 	H 	0.50712 0.49749 0.98081 0.06100
H 	H 	0.68267 0.45191 0.02377 0.05400
H 	H 	0.62046 0.43463 0.06541 0.06300
H 	H 	0.51773 0.42132 0.08985 0.07700
H 	H 	0.39930 0.41576 0.99515 0.06100
H 	H 	0.30680 0.42306 0.01987 0.05300
H 	H 	0.41460 0.43989 0.09079 0.07200
C 	C 	0.90195 0.32852 0.91362 -0.11400
C 	C 	0.89344 0.26557 0.92388 0.12800
C 	C 	0.91417 0.22543 0.90905 0.06300
C 	C 	0.95394 0.25448 0.88632 0.02100
C 	C 	0.98175 0.32637 0.88134 0.05700
C 	C 	0.95427 0.36334 0.89463 0.12600
C 	C 	0.95166 0.20807 0.86511 0.01600
C 	C 	0.99627 0.17917 0.86544 0.06800
C 	C 	0.99445 0.13665 0.84479 0.12100
C 	C 	0.95789 0.13338 0.82184 -0.10000
C 	C 	0.91543 0.16489 0.82122 0.12300
C 	C 	0.90728 0.19595 0.84371 0.07000
Br	Br	0.05240 0.37169 0.85493 -0.10400
Br	Br	0.84482 0.23052 0.95626 -0.18300
Br	Br	0.03750 0.07924 0.84864 -0.11300
Br	Br	0.83497 0.22138 0.84532 -0.14200
Br	Br	0.98708 0.45980 0.88661 -0.13100
Br	Br	0.88003 0.12868 0.91772 -0.14100
Br	Br	0.06235 0.20094 0.89329 -0.10600
Br	Br	0.87691 0.17493 0.78902 -0.12100
C 	C 	0.22570 0.14937 0.80250 -0.10600
C 	C 	0.27943 0.13193 0.80358 0.13300
C 	C 	0.33112 0.16128 0.82293 0.06900
C 	C 	0.32331 0.19932 0.84337 0.02000
C 	C 	0.26880 0.21535 0.84254 0.07200
C 	C 	0.22522 0.19696 0.82070 0.13300
C 	C 	0.36980 0.21856 0.86627 0.02100
C 	C 	0.36455 0.16587 0.88307 0.06400
C 	C 	0.42195 0.17854 0.89875 0.12900
C 	C 	0.47882 0.24754 0.90122 -0.11200
C 	C 	0.47494 0.30268 0.88907 0.12900
C 	C 	0.42467 0.28791 0.86966 0.06700
Br	Br	0.25148 0.25906 0.87179 -0.11500
Br	Br	0.28237 0.06801 0.77878 -0.12300
Br	Br	0.42664 0.10049 0.91327 -0.16100
Br	Br	0.43553 0.36068 0.84613 -0.10800
Br	Br	0.17349 0.24479 0.81405 -0.14600
Br	Br	0.41330 0.15089 0.82122 -0.11400
Br	Br	0.28001 0.07587 0.88372 -0.12000
Br	Br	0.53831 0.39789 0.89919 -0.17100
C 	C 	0.91710 0.81978 0.79717 -0.09300
C 	C 	0.92496 0.76484 0.78640 0.12100
C 	C 	0.88618 0.69671 0.79656 0.07200
C 	C 	0.84633 0.68447 0.81929 0.02100
C 	C 	0.83784 0.73855 0.82995 0.07100
C 	C 	0.87635 0.80696 0.81996 0.12800
C 	C 	0.82722 0.62096 0.83499 0.02000
C 	C 	0.76170 0.55980 0.83166 0.07100
C 	C 	0.74282 0.50098 0.84762 0.12500
C 	C 	0.78787 0.50474 0.86783 -0.10000
C 	C 	0.85420 0.56573 0.87066 0.13000
C 	C 	0.87443 0.62265 0.85377 0.06600
Br	Br	0.77523 0.71911 0.85896 -0.13000
Br	Br	0.99452 0.78348 0.75997 -0.16200
Br	Br	0.65500 0.41598 0.84203 -0.12700
Br	Br	0.96687 0.70394 0.85660 -0.12500
Br	Br	0.88348 0.88383 0.84025 -0.12600
Br	Br	0.88943 0.62011 0.77986 -0.10700
Br	Br	0.69726 0.55748 0.80578 -0.09800
Br	Br	0.91664 0.57283 0.89829 -0.15900
