data_crystal

_cell_length_a 19.58372
_cell_length_b 17.21019
_cell_length_c 33.93325
_cell_angle_alpha 88.29477
_cell_angle_beta  88.43525
_cell_angle_gamma 107.45381

_symmetry_space_group_name_	'P 1'
_symmetry_space_group_name_H-M	'P 1'

loop_
_symmetry_equiv_pos_as_xyz
  x,y,z

loop_
_atom_site_label
_atom_site_type_symbol
_atom_site_fract_x
_atom_site_fract_y
_atom_site_fract_z
_atom_site_charge
Zn	Zn	0.58174 0.32839 0.88386 1.22500
Zn	Zn	0.68312 0.46192 0.93934 1.20500
C 	C 	0.79186 0.24118 0.84206 0.27400
Zn	Zn	0.74912 0.37779 0.87713 1.22100
Zn	Zn	0.63369 0.20759 0.83966 1.19100
H 	H 	0.67737 0.31193 0.93922 0.18900
C 	C 	0.73136 0.53603 0.85560 0.33600
O 	O 	0.52901 0.16651 0.82936 -0.46100
O 	O 	0.50106 0.28411 0.84262 -0.38300
O 	O 	0.67382 0.35343 0.91920 -0.79100
O 	O 	0.58238 0.45316 0.95101 -0.45200
O 	O 	0.53124 0.23588 0.91900 -0.41400
O 	O 	0.54198 0.42016 0.88943 -0.41400
O 	O 	0.60667 0.16388 0.90138 -0.39700
O 	O 	0.78331 0.52784 0.93750 -0.43700
H 	H 	0.65278 0.35637 0.82051 0.17400
O 	O 	0.83312 0.43126 0.91678 -0.38700
O 	O 	0.65653 0.32652 0.84535 -0.79800
O 	O 	0.72795 0.18897 0.85041 -0.43700
O 	O 	0.76843 0.48489 0.84894 -0.44100
O 	O 	0.81159 0.31312 0.85833 -0.41800
O 	O 	0.67656 0.51614 0.88117 -0.39700
C 	C 	0.48249 0.20861 0.83076 0.34200
C 	C 	0.53575 0.45095 0.92382 0.32000
C 	C 	0.55038 0.16957 0.92177 0.30200
C 	C 	0.83715 0.49780 0.93607 0.29200
Zn	Zn	0.64673 0.39920 0.55682 1.22300
Zn	Zn	0.51474 0.29900 0.50213 1.20200
C 	C 	0.68726 0.13968 0.59910 0.28600
Zn	Zn	0.58079 0.20862 0.56283 1.22400
Zn	Zn	0.74067 0.31995 0.60018 1.19400
H 	H 	0.63957 0.28551 0.50110 0.19400
C 	C 	0.44340 0.23346 0.58384 0.28600
O 	O 	0.79537 0.43697 0.60719 -0.43800
O 	O 	0.70313 0.49020 0.59569 -0.39700
O 	O 	0.60719 0.29556 0.52192 -0.79400
O 	O 	0.53343 0.41796 0.49393 -0.46000
O 	O 	0.72906 0.44015 0.51962 -0.43700
O 	O 	0.57490 0.45832 0.55466 -0.42800
O 	O 	0.77268 0.33620 0.53745 -0.39100
O 	O 	0.45055 0.18807 0.49847 -0.45400
H 	H 	0.61406 0.31823 0.62028 0.17200
O 	O 	0.52524 0.11894 0.52218 -0.37400
O 	O 	0.63785 0.30984 0.59534 -0.79200
O 	O 	0.74194 0.20605 0.59291 -0.43500
O 	O 	0.48980 0.19441 0.59278 -0.43200
O 	O 	0.62989 0.12724 0.57774 -0.40700
O 	O 	0.46310 0.29951 0.56019 -0.39900
C 	C 	0.77047 0.50020 0.60444 0.33500
C 	C 	0.54485 0.47086 0.52191 0.31700
C 	C 	0.77680 0.40137 0.51511 0.33500
C 	C 	0.47029 0.12182 0.50109 0.29600
Zn	Zn	0.94373 0.91421 0.71650 1.22000
Zn	Zn	0.05623 0.94419 0.78972 1.19200
C 	C 	0.14954 0.08675 0.63728 0.33600
Zn	Zn	0.08314 0.05863 0.71633 1.23000
Zn	Zn	0.99130 0.99536 0.63426 1.18700
H 	H 	0.08267 0.91114 0.71815 0.18000
C 	C 	0.00072 0.09802 0.78116 0.36800
O 	O 	0.88762 0.94610 0.62597 -0.43800
O 	O 	0.84373 0.90501 0.68974 -0.39700
O 	O 	0.05312 0.94129 0.73121 -0.79600
O 	O 	0.96911 0.85101 0.80609 -0.44900
O 	O 	0.94435 0.81238 0.69377 -0.44600
O 	O 	0.89204 0.89420 0.76769 -0.44100
O 	O 	0.99578 0.86841 0.63480 -0.39600
O 	O 	0.14127 0.03584 0.80380 -0.42400
H 	H 	0.95475 0.05566 0.69544 0.17700
O 	O 	0.18483 0.08157 0.74143 -0.39100
O 	O 	0.98503 0.01971 0.69074 -0.79400
O 	O 	0.09935 0.02809 0.62089 -0.40100
O 	O 	0.05166 0.12815 0.75383 -0.42100
O 	O 	0.13539 0.12022 0.66956 -0.43200
O 	O 	0.98878 0.02364 0.79626 -0.40700
C 	C 	0.83663 0.93457 0.65402 0.32900
C 	C 	0.90383 0.84256 0.79404 0.30100
C 	C 	0.95177 0.80723 0.65577 0.29700
C 	C 	0.19544 0.07138 0.77901 0.29100
Zn	Zn	0.32781 0.68418 0.39372 1.22900
Zn	Zn	0.19661 0.54053 0.44544 1.20500
C 	C 	0.13823 0.77564 0.32726 0.30300
Zn	Zn	0.16513 0.64554 0.37868 1.22400
Zn	Zn	0.29570 0.79118 0.33007 1.19500
H 	H 	0.21847 0.69452 0.44276 0.20000
C 	C 	0.16848 0.48293 0.36072 0.28100
O 	O 	0.40124 0.83742 0.33448 -0.46500
O 	O 	0.42300 0.72093 0.35704 -0.38300
O 	O 	0.22654 0.65527 0.42380 -0.78200
O 	O 	0.28816 0.52661 0.46397 -0.41600
O 	O 	0.35964 0.78822 0.41938 -0.41200
O 	O 	0.36394 0.59971 0.41524 -0.43000
O 	O 	0.28076 0.84020 0.38748 -0.41000
O 	O 	0.09227 0.49148 0.43918 -0.44100
H 	H 	0.27410 0.63820 0.32927 0.18500
O 	O 	0.06984 0.60657 0.41556 -0.38800
O 	O 	0.26604 0.67605 0.34902 -0.79800
O 	O 	0.20387 0.80700 0.31188 -0.45000
O 	O 	0.13641 0.53902 0.35338 -0.42500
O 	O 	0.12660 0.73429 0.36138 -0.42600
O 	O 	0.21501 0.49244 0.38893 -0.40200
C 	C 	0.44545 0.79376 0.33951 0.34500
C 	C 	0.35132 0.57614 0.45256 0.32600
C 	C 	0.32577 0.84320 0.41613 0.31600
C 	C 	0.04780 0.53446 0.43382 0.31200
Zn	Zn	0.20555 0.74013 0.06912 1.22000
Zn	Zn	0.34529 0.85524 0.11506 1.20200
C 	C 	0.36213 0.58856 0.01244 0.31900
Zn	Zn	0.36593 0.73959 0.05286 1.22400
Zn	Zn	0.21842 0.60053 0.02002 1.20600
H 	H 	0.29964 0.69943 0.11925 0.19700
C 	C 	0.38833 0.90879 0.02708 0.33200
O 	O 	0.11633 0.58857 0.02050 -0.45500
O 	O 	0.11697 0.71959 0.03068 -0.38300
O 	O 	0.30207 0.74209 0.09858 -0.78500
O 	O 	0.25717 0.88051 0.13215 -0.45700
O 	O 	0.14406 0.64854 0.10446 -0.42600
O 	O 	0.19275 0.85030 0.07650 -0.42800
O 	O 	0.20570 0.56535 0.08213 -0.39400
O 	O 	0.45100 0.89129 0.10823 -0.44400
H 	H 	0.26625 0.75136 0.00213 0.18300
O 	O 	0.46122 0.77108 0.08616 -0.39300
O 	O 	0.26635 0.71779 0.02632 -0.78700
O 	O 	0.29540 0.55065 0.02287 -0.43000
O 	O 	0.40573 0.84170 0.02142 -0.43000
O 	O 	0.40000 0.64961 0.03291 -0.40900
O 	O 	0.34328 0.91198 0.05629 -0.39500
C 	C 	0.09098 0.64973 0.01331 0.32100
C 	C 	0.21285 0.89635 0.10717 0.35800
C 	C 	0.15328 0.57604 0.10386 0.34700
C 	C 	0.49069 0.84510 0.09837 0.35400
Zn	Zn	0.98352 0.14104 0.21586 1.22300
Zn	Zn	0.87101 0.07137 0.29360 1.20800
C 	C 	0.78237 0.98495 0.14129 0.24100
Zn	Zn	0.85279 0.98821 0.21465 1.21800
Zn	Zn	0.93399 0.09487 0.13139 1.19300
H 	H 	0.84144 0.12774 0.22717 0.18500
C 	C 	0.93484 0.92907 0.27256 0.34900
O 	O 	0.03523 0.15832 0.12086 -0.42400
O 	O 	0.08379 0.16926 0.18180 -0.35600
O 	O 	0.87436 0.09756 0.23615 -0.78100
O 	O 	0.95462 0.16182 0.31098 -0.43900
O 	O 	0.97359 0.24753 0.20261 -0.44200
O 	O 	0.03578 0.14456 0.26450 -0.42200
O 	O 	0.92205 0.21610 0.14381 -0.38700
O 	O 	0.78855 0.97085 0.30610 -0.43700
H 	H 	0.97965 0.01339 0.18375 0.18200
O 	O 	0.75056 0.94287 0.24347 -0.40700
O 	O 	0.94703 0.04755 0.18448 -0.79500
O 	O 	0.82476 0.05495 0.12548 -0.40700
O 	O 	0.89088 0.90970 0.24332 -0.44400
O 	O 	0.80681 0.94271 0.16703 -0.44500
O 	O 	0.94384 0.99768 0.29072 -0.40900
C 	C 	0.08383 0.14685 0.14463 0.27800
C 	C 	0.02038 0.18215 0.29526 0.37500
C 	C 	0.96495 0.26911 0.16641 0.27200
C 	C 	0.73690 0.93977 0.28170 0.28800
C 	C 	0.10143 0.50471 0.12444 -0.14700
C 	C 	0.12580 0.45680 0.15171 0.22100
C 	C 	0.08204 0.37884 0.16362 -0.10000
C 	C 	0.01224 0.34852 0.14991 0.01600
C 	C 	0.98680 0.39715 0.12367 -0.08400
C 	C 	0.03128 0.47490 0.11093 0.06400
H 	H 	0.10244 0.34168 0.18366 0.09400
H 	H 	0.01204 0.51073 0.08958 0.03300
Cl	Cl	0.21145 0.49383 0.17126 -0.33800
H 	H 	0.93289 0.37514 0.11320 0.06100
C 	C 	0.56740 0.87306 0.10607 -0.14500
C 	C 	0.61576 0.93176 0.08057 0.22500
C 	C 	0.68553 0.97086 0.09244 -0.13300
C 	C 	0.70739 0.95097 0.12946 -0.00400
C 	C 	0.65921 0.89088 0.15414 -0.05800
C 	C 	0.59009 0.85227 0.14245 0.04600
H 	H 	0.72272 0.01518 0.07262 0.11600
H 	H 	0.55324 0.80774 0.16235 0.02200
Cl	Cl	0.59046 0.95464 0.03329 -0.33900
H 	H 	0.67566 0.87335 0.18236 0.06400
C 	C 	0.18205 0.96353 0.11480 -0.15600
C 	C 	0.22238 0.03551 0.13277 0.23300
C 	C 	0.18974 0.09465 0.14311 -0.07400
C 	C 	0.11822 0.08439 0.13446 -0.04900
C 	C 	0.07902 0.01423 0.11556 0.00200
C 	C 	0.11059 0.95419 0.10598 -0.00200
H 	H 	0.22056 0.14928 0.15708 0.09800
H 	H 	0.07893 0.89956 0.09236 0.04200
Cl	Cl	0.31451 0.05505 0.14044 -0.31600
H 	H 	0.02349 0.00548 0.10890 -0.00800
C 	C 	0.52049 0.82705 0.32513 -0.14200
C 	C 	0.57740 0.83903 0.35118 0.21000
C 	C 	0.64827 0.87491 0.33696 -0.08700
C 	C 	0.66260 0.90057 0.29707 -0.02700
C 	C 	0.60544 0.88945 0.27151 -0.04400
C 	C 	0.53515 0.85242 0.28539 0.03400
H 	H 	0.69182 0.88336 0.35700 0.09900
H 	H 	0.49176 0.84439 0.26526 0.01200
Cl	Cl	0.56055 0.81397 0.40196 -0.32000
H 	H 	0.61532 0.91079 0.24095 0.04800
C 	C 	0.07398 0.25485 0.30881 -0.14200
C 	C 	0.09743 0.25669 0.34769 0.21500
C 	C 	0.13282 0.33133 0.36382 -0.08200
C 	C 	0.14450 0.40441 0.34144 -0.02000
C 	C 	0.12607 0.40180 0.30176 -0.03400
C 	C 	0.09145 0.32726 0.28545 0.04000
H 	H 	0.14811 0.33275 0.39432 0.08900
H 	H 	0.07415 0.32638 0.25541 0.03400
Cl	Cl	0.08102 0.16608 0.37683 -0.28500
H 	H 	0.13627 0.45770 0.28395 0.05800
C 	C 	0.97808 0.87609 0.28366 -0.15100
C 	C 	0.96882 0.83763 0.32145 0.20000
C 	C 	0.01959 0.80180 0.33504 -0.06600
C 	C 	0.08007 0.80422 0.31113 -0.02900
C 	C 	0.08640 0.83768 0.27242 -0.04000
C 	C 	0.03566 0.87347 0.25880 0.05300
H 	H 	0.01293 0.77418 0.36456 0.09800
H 	H 	0.04284 0.90231 0.22951 0.01600
Cl	Cl	0.89416 0.83483 0.35226 -0.31700
H 	H 	0.13149 0.83774 0.25318 0.04900
C 	C 	0.42999 0.05020 0.48013 -0.02000
C 	C 	0.41082 0.05980 0.44117 0.02600
C 	C 	0.36979 0.99280 0.42140 -0.05100
C 	C 	0.34787 0.91528 0.44024 -0.08600
C 	C 	0.36243 0.90675 0.48042 0.14500
C 	C 	0.40449 0.97394 0.49995 -0.07800
H 	H 	0.35856 0.00035 0.39067 0.08000
H 	H 	0.41621 0.96710 0.53067 0.07800
H 	H 	0.42890 0.11905 0.42595 0.03200
Br	Br	0.32354 0.80449 0.50930 -0.23800
C 	C 	0.97277 0.50118 0.44822 -0.05300
C 	C 	0.93671 0.55281 0.46412 -0.01400
C 	C 	0.86980 0.51998 0.48335 0.03100
C 	C 	0.83854 0.43509 0.48723 -0.10700
C 	C 	0.87121 0.38363 0.46753 0.14200
C 	C 	0.93870 0.41680 0.44871 -0.05200
H 	H 	0.84424 0.56041 0.49730 0.05800
H 	H 	0.96468 0.37696 0.43456 0.07800
H 	H 	0.96192 0.61817 0.46324 0.05900
Br	Br	0.82227 0.26961 0.46296 -0.22500
C 	C 	0.51739 0.54026 0.51746 -0.04400
C 	C 	0.53560 0.58819 0.48243 -0.01100
C 	C 	0.48238 0.60979 0.46239 0.02700
C 	C 	0.41224 0.58729 0.47878 -0.10900
C 	C 	0.40101 0.56207 0.51904 0.14800
C 	C 	0.45390 0.53761 0.53824 -0.05300
H 	H 	0.49405 0.63671 0.43278 0.06900
H 	H 	0.44255 0.50865 0.56748 0.07900
H 	H 	0.58743 0.59723 0.46779 0.05800
Br	Br	0.31781 0.56735 0.54879 -0.22900
C 	C 	0.77445 0.96298 0.64650 -0.15900
C 	C 	0.74114 0.94959 0.61000 0.16900
C 	C 	0.70509 0.00311 0.59583 -0.00400
C 	C 	0.70134 0.06895 0.61830 -0.04600
C 	C 	0.72470 0.07410 0.65706 -0.04100
C 	C 	0.76037 0.02058 0.67130 0.05300
H 	H 	0.68416 0.99659 0.56647 0.06200
H 	H 	0.78326 0.02926 0.70015 0.02000
Cl	Cl	0.74593 0.86746 0.58143 -0.30800
H 	H 	0.71986 0.12321 0.67511 0.01800
C 	C 	0.22325 0.11496 0.61988 -0.12500
C 	C 	0.23985 0.16764 0.58598 0.20800
C 	C 	0.31174 0.20894 0.57505 -0.07700
C 	C 	0.36748 0.19844 0.59787 -0.02300
C 	C 	0.35052 0.14539 0.63140 -0.03200
C 	C 	0.27916 0.10347 0.64202 0.03500
H 	H 	0.32405 0.24813 0.54858 0.08500
H 	H 	0.26715 0.06390 0.66836 0.03000
Cl	Cl	0.17126 0.18377 0.55741 -0.31500
H 	H 	0.39273 0.13637 0.64927 0.05200
C 	C 	0.81734 0.58259 0.61383 -0.12900
C 	C 	0.89179 0.60822 0.60371 0.20300
C 	C 	0.93523 0.68450 0.61520 -0.08000
C 	C 	0.90535 0.73564 0.63649 -0.02700
C 	C 	0.83114 0.71179 0.64473 -0.02900
C 	C 	0.78753 0.63609 0.63344 0.03400
H 	H 	0.99241 0.70271 0.60856 0.08300
H 	H 	0.73070 0.61808 0.64103 0.04400
Cl	Cl	0.93152 0.54688 0.57618 -0.33700
H 	H 	0.80748 0.75079 0.66119 0.06300
C 	C 	0.90301 0.54127 0.95507 -0.04000
C 	C 	0.89884 0.56943 0.99317 -0.01700
C 	C 	0.96038 0.61677 0.01055 0.00100
C 	C 	0.02689 0.63499 0.99035 -0.09900
C 	C 	0.03001 0.61339 0.95075 0.15200
C 	C 	0.96831 0.56543 0.93346 -0.06900
H 	H 	0.95723 0.63379 0.04088 0.03600
H 	H 	0.97105 0.54775 0.90321 0.07700
H 	H 	0.84795 0.55346 0.00956 0.03300
Br	Br	0.11911 0.64578 0.92065 -0.28700
C 	C 	0.50999 0.10273 0.94902 -0.03400
C 	C 	0.46764 0.02970 0.93410 0.02200
C 	C 	0.42258 0.96936 0.95950 -0.00100
C 	C 	0.42033 0.98057 0.00032 -0.12000
C 	C 	0.46147 0.05538 0.01519 0.17900
C 	C 	0.50549 0.11611 0.98941 -0.03900
H 	H 	0.39121 0.91249 0.94761 0.03700
H 	H 	0.53668 0.17352 0.00089 0.06900
H 	H 	0.46888 0.02006 0.90270 0.04800
Br	Br	0.46223 0.07439 0.07061 -0.17700
C 	C 	0.47327 0.47600 0.93382 -0.03700
C 	C 	0.47746 0.55812 0.92769 -0.02100
C 	C 	0.44091 0.59465 0.95354 0.02000
C 	C 	0.39937 0.54894 0.98537 -0.11400
C 	C 	0.38977 0.46431 0.98914 0.14900
C 	C 	0.42349 0.42779 0.96177 -0.05400
H 	H 	0.44652 0.65901 0.94953 0.03300
H 	H 	0.41862 0.36357 0.96570 0.08900
H 	H 	0.51433 0.59540 0.90528 0.05800
Br	Br	0.34059 0.39995 0.03451 -0.19000
C 	C 	0.95114 0.14398 0.79194 -0.15200
C 	C 	0.97126 0.20804 0.81820 0.20100
C 	C 	0.91957 0.24124 0.83383 -0.08200
C 	C 	0.84760 0.21067 0.82345 -0.02800
C 	C 	0.82857 0.14935 0.79587 -0.04300
C 	C 	0.87999 0.11616 0.78030 0.03800
H 	H 	0.93510 0.28912 0.85480 0.09200
H 	H 	0.86405 0.06691 0.76008 0.02100
Cl	Cl	0.06037 0.24506 0.83298 -0.29600
H 	H 	0.77368 0.12651 0.78691 0.03100
C 	C 	0.40885 0.17068 0.81856 -0.13700
C 	C 	0.34973 0.16468 0.84450 0.21000
C 	C 	0.27993 0.13087 0.83179 -0.08200
C 	C 	0.26862 0.10242 0.79345 -0.02300
C 	C 	0.32770 0.10641 0.76818 -0.03900
C 	C 	0.39730 0.14023 0.78070 0.03600
H 	H 	0.23467 0.12769 0.85155 0.10300
H 	H 	0.44235 0.14375 0.76072 0.02200
Cl	Cl	0.36224 0.19673 0.89334 -0.31100
H 	H 	0.31967 0.08351 0.73873 0.05100
C 	C 	0.75656 0.61905 0.83739 -0.13400
C 	C 	0.77230 0.68801 0.86110 0.20800
C 	C 	0.81773 0.76283 0.84605 -0.08000
C 	C 	0.84532 0.77030 0.80718 -0.03400
C 	C 	0.82291 0.70455 0.78234 -0.03900
C 	C 	0.77894 0.62916 0.79740 0.03500
H 	H 	0.83315 0.81447 0.86493 0.08100
H 	H 	0.76565 0.57738 0.77856 0.02600
Cl	Cl	0.73710 0.68164 0.90984 -0.34700
H 	H 	0.84274 0.71057 0.75192 0.04600
