data_crystal

_cell_length_a 27.78658
_cell_length_b 28.15010
_cell_length_c 35.29370
_cell_angle_alpha 95.48835
_cell_angle_beta  95.49407
_cell_angle_gamma 125.68706

_symmetry_space_group_name_	'P 1'
_symmetry_space_group_name_H-M	'P 1'

loop_
_symmetry_equiv_pos_as_xyz
  x,y,z

loop_
_atom_site_label
_atom_site_type_symbol
_atom_site_fract_x
_atom_site_fract_y
_atom_site_fract_z
_atom_site_charge
C 	C 	0.98752 0.07182 0.00230 0.05400
C 	C 	0.04809 0.10607 0.99794 -0.09000
C 	C 	0.07656 0.07874 0.99230 0.05000
C 	C 	0.04455 0.01741 0.99100 -0.08000
C 	C 	0.98422 0.98327 0.99542 0.04100
C 	C 	0.95565 0.01041 0.00106 -0.07500
H 	H 	0.07285 0.15359 0.99892 0.05500
H 	H 	0.06665 0.99633 0.98673 0.05000
H 	H 	0.90882 0.98388 0.00441 0.05100
C 	C 	0.92484 0.96399 0.45135 0.05100
C 	C 	0.89051 0.90322 0.45336 -0.08600
C 	C 	0.91849 0.87488 0.45570 0.04800
C 	C 	0.98049 0.90724 0.45604 -0.07700
C 	C 	0.01466 0.96776 0.45404 0.03900
C 	C 	0.98688 0.99613 0.45166 -0.08200
H 	H 	0.84251 0.87826 0.45315 0.05500
H 	H 	0.00211 0.88532 0.45786 0.05100
H 	H 	0.01345 0.04310 0.45019 0.05400
Cu	Cu	0.65981 0.29197 0.00996 0.92900
Cu	Cu	0.70882 0.28893 0.92938 0.87100
Cu	Cu	0.70204 0.38646 0.95908 0.89700
Cu	Cu	0.66798 0.40691 0.03356 0.89600
C 	C 	0.67390 0.33674 0.09052 0.32700
O 	O 	0.57271 0.26144 0.00735 -0.36200
C 	C 	0.68230 0.34281 0.87491 0.32700
O 	O 	0.71359 0.38471 0.01318 -0.64100
O 	O 	0.65538 0.29828 0.95454 -0.64200
O 	O 	0.69325 0.24556 0.00955 -0.37100
O 	O 	0.76280 0.30394 0.97402 -0.44300
O 	O 	0.65358 0.36653 0.07926 -0.39500
O 	O 	0.75155 0.47250 0.96728 -0.38300
C 	C 	0.74721 0.50673 0.99279 0.30700
C 	C 	0.55281 0.28919 0.99228 0.30000
O 	O 	0.59116 0.34416 0.98763 -0.39500
O 	O 	0.70674 0.48445 0.01550 -0.39300
O 	O 	0.67676 0.30094 0.06519 -0.37000
C 	C 	0.74426 0.26597 0.99768 0.30300
O 	O 	0.70334 0.38829 0.90332 -0.39600
O 	O 	0.67446 0.29368 0.88182 -0.42900
H 	H 	0.75631 0.40848 0.02634 0.16600
H 	H 	0.61412 0.27574 0.93907 0.17300
Cu	Cu	0.72094 0.30311 0.44732 0.92800
Cu	Cu	0.72201 0.26709 0.53304 0.87100
Cu	Cu	0.62100 0.26474 0.49421 0.89800
Cu	Cu	0.60155 0.28595 0.41452 0.89500
C 	C 	0.67682 0.27411 0.36498 0.32700
O 	O 	0.74815 0.38672 0.44359 -0.36300
C 	C 	0.66100 0.29594 0.57978 0.32700
O 	O 	0.62641 0.24733 0.44171 -0.64100
O 	O 	0.71082 0.31347 0.50147 -0.64200
O 	O 	0.77047 0.27341 0.45523 -0.37400
O 	O 	0.71082 0.20950 0.49311 -0.44200
O 	O 	0.64595 0.29540 0.37118 -0.39300
O 	O 	0.53380 0.21277 0.48394 -0.38400
C 	C 	0.49877 0.21246 0.45570 0.31000
C 	C 	0.71691 0.40546 0.45413 0.30100
O 	O 	0.66066 0.36701 0.45761 -0.39400
O 	O 	0.52077 0.24701 0.42965 -0.39500
O 	O 	0.71605 0.28043 0.39328 -0.37000
C 	C 	0.74980 0.22516 0.46994 0.30700
O 	O 	0.61601 0.27025 0.54974 -0.39600
O 	O 	0.71254 0.30497 0.57640 -0.42800
H 	H 	0.60448 0.20443 0.43116 0.16500
H 	H 	0.73150 0.35521 0.51450 0.17300
C 	C 	0.66085 0.31562 0.76537 0.00400
C 	C 	0.71337 0.36737 0.75818 -0.03900
C 	C 	0.72278 0.37354 0.72018 -0.04100
C 	C 	0.68017 0.32798 0.68898 0.00400
C 	C 	0.62700 0.27686 0.69612 -0.03900
C 	C 	0.61735 0.27093 0.73409 -0.04100
C 	C 	0.69536 0.33053 0.64979 0.01000
C 	C 	0.65098 0.30763 0.61645 -0.17300
C 	C 	0.65512 0.30406 0.80533 0.01000
C 	C 	0.67438 0.34971 0.83662 -0.17300
H 	H 	0.74809 0.40164 0.78202 0.03900
H 	H 	0.76417 0.41290 0.71507 0.03700
H 	H 	0.59437 0.24060 0.67248 0.03900
H 	H 	0.57697 0.23061 0.73928 0.03700
H 	H 	0.74184 0.35026 0.64709 0.03300
H 	H 	0.60686 0.29600 0.61929 0.08500
H 	H 	0.63554 0.25914 0.81021 0.03300
H 	H 	0.68569 0.39213 0.83108 0.08500
C 	C 	0.64472 0.25218 0.25665 0.00700
C 	C 	0.61453 0.26940 0.23460 -0.03800
C 	C 	0.62517 0.28032 0.19744 -0.03900
C 	C 	0.66734 0.27552 0.18212 0.00800
C 	C 	0.69564 0.25575 0.20340 -0.04000
C 	C 	0.68400 0.24356 0.24039 -0.03700
C 	C 	0.67972 0.28834 0.14298 0.01200
C 	C 	0.68096 0.33454 0.12988 -0.16500
C 	C 	0.63307 0.24171 0.29623 0.01200
C 	C 	0.67940 0.25871 0.32683 -0.16600
H 	H 	0.58281 0.27446 0.24633 0.03800
H 	H 	0.60025 0.29207 0.18047 0.04200
H 	H 	0.72660 0.24981 0.19133 0.04100
H 	H 	0.70473 0.22663 0.25596 0.04000
H 	H 	0.68670 0.26077 0.12420 0.04400
H 	H 	0.68076 0.36580 0.15037 0.08000
H 	H 	0.59007 0.22930 0.30277 0.02700
H 	H 	0.71815 0.26073 0.32098 0.08700
C 	C 	0.82862 0.69861 0.46060 0.02100
C 	C 	0.78613 0.65447 0.42882 -0.04700
C 	C 	0.76323 0.59501 0.42839 -0.02800
C 	C 	0.78279 0.57944 0.45973 -0.01100
C 	C 	0.82425 0.62336 0.49189 -0.02800
C 	C 	0.84714 0.68283 0.49232 -0.04800
C 	C 	0.85763 0.76049 0.45903 -0.01300
C 	C 	0.88395 0.81252 0.45755 -0.02800
C 	C 	0.76082 0.51851 0.45857 0.04600
C 	C 	0.74158 0.46716 0.45696 -0.11100
H 	H 	0.77176 0.66632 0.40413 0.04300
H 	H 	0.73091 0.56123 0.40352 0.03800
H 	H 	0.83933 0.61163 0.51631 0.03700
H 	H 	0.88014 0.71673 0.51694 0.04300
C 	C 	0.80859 0.12321 0.45083 -0.01100
C 	C 	0.77174 0.06390 0.45596 -0.03100
C 	C 	0.79320 0.02961 0.45423 -0.04100
C 	C 	0.85158 0.05447 0.44733 0.01600
C 	C 	0.88789 0.11333 0.44129 -0.04500
C 	C 	0.86645 0.14763 0.44306 -0.02900
C 	C 	0.78857 0.16008 0.45627 0.04700
C 	C 	0.77134 0.19035 0.46186 -0.11700
C 	C 	0.87544 0.02075 0.44838 -0.00500
C 	C 	0.89690 0.99389 0.44960 -0.03600
H 	H 	0.72695 0.04471 0.46200 0.03800
H 	H 	0.76483 0.98414 0.45886 0.03800
H 	H 	0.93305 0.13282 0.43588 0.04200
H 	H 	0.89522 0.19343 0.43909 0.03900
C 	C 	0.19523 0.05925 0.45552 0.02000
C 	C 	0.23299 0.12156 0.46118 -0.04700
C 	C 	0.29476 0.15222 0.46164 -0.02800
C 	C 	0.31898 0.12068 0.45646 -0.01000
C 	C 	0.28125 0.05837 0.45091 -0.03000
C 	C 	0.21947 0.02771 0.45044 -0.04200
C 	C 	0.13166 0.02765 0.45498 -0.01500
C 	C 	0.07836 0.00072 0.45453 -0.02200
C 	C 	0.38239 0.15226 0.45634 0.04700
C 	C 	0.43553 0.17932 0.45612 -0.10900
H 	H 	0.21454 0.14621 0.46515 0.04200
H 	H 	0.32369 0.20041 0.46592 0.03900
H 	H 	0.29968 0.03371 0.44686 0.03800
H 	H 	0.19052 0.97951 0.44610 0.03800
C 	C 	0.83865 0.68359 0.99057 -0.01300
C 	C 	0.89318 0.72572 0.01635 -0.02600
C 	C 	0.92191 0.78649 0.01741 -0.04600
C 	C 	0.89617 0.80535 0.99273 0.01900
C 	C 	0.84184 0.76322 0.96677 -0.04800
C 	C 	0.81311 0.70244 0.96571 -0.02700
C 	C 	0.80747 0.62116 0.99092 0.04700
C 	C 	0.78055 0.56889 0.99156 -0.10900
C 	C 	0.92605 0.86788 0.99364 -0.01400
C 	C 	0.95193 0.92040 0.99446 -0.02700
H 	H 	0.91308 0.71145 0.03574 0.03700
H 	H 	0.96404 0.81885 0.03745 0.04300
H 	H 	0.82182 0.77751 0.94750 0.04200
H 	H 	0.77085 0.67008 0.94579 0.03800
C 	C 	0.89946 0.14676 0.01527 0.02100
C 	C 	0.83654 0.10947 0.01169 -0.04800
C 	C 	0.80475 0.13382 0.01223 -0.02800
C 	C 	0.83576 0.19556 0.01639 -0.01300
C 	C 	0.89886 0.23298 0.02127 -0.02800
C 	C 	0.93064 0.20863 0.02070 -0.04800
C 	C 	0.93153 0.12134 0.01123 -0.01200
C 	C 	0.95760 0.09932 0.00734 -0.02800
C 	C 	0.80265 0.21993 0.01149 0.04600
C 	C 	0.77550 0.24067 0.00603 -0.11800
H 	H 	0.81214 0.06160 0.00765 0.04300
H 	H 	0.75598 0.10459 0.00840 0.03700
H 	H 	0.92315 0.28076 0.02446 0.03700
H 	H 	0.97930 0.23775 0.02365 0.04300
C 	C 	0.25337 0.16998 0.98214 0.01800
C 	C 	0.26917 0.14258 0.95614 -0.04700
C 	C 	0.32992 0.16761 0.95625 -0.02700
C 	C 	0.37509 0.22015 0.98234 -0.01400
C 	C 	0.35933 0.24854 0.00750 -0.02500
C 	C 	0.29859 0.22348 0.00742 -0.04500
C 	C 	0.19115 0.14020 0.98544 -0.01200
C 	C 	0.13896 0.11343 0.98849 -0.03000
C 	C 	0.43740 0.24341 0.98470 0.04700
C 	C 	0.48987 0.26362 0.98760 -0.11200
H 	H 	0.23444 0.10117 0.93653 0.04200
H 	H 	0.34177 0.14555 0.93661 0.03700
H 	H 	0.39405 0.28933 0.02764 0.03700
H 	H 	0.28673 0.24488 0.02763 0.04300
