data_crystal

_cell_length_a 20.49555
_cell_length_b 20.73957
_cell_length_c 48.52084
_cell_angle_alpha 89.94468
_cell_angle_beta  89.95023
_cell_angle_gamma 119.41553

_symmetry_space_group_name_	'P 1'
_symmetry_space_group_name_H-M	'P 1'

loop_
_symmetry_equiv_pos_as_xyz
  x,y,z

loop_
_atom_site_label
_atom_site_type_symbol
_atom_site_fract_x
_atom_site_fract_y
_atom_site_fract_z
_atom_site_charge
C 	C 	0.55275 0.22340 0.86993 0.28300
C 	C 	0.75773 0.52965 0.90025 0.32700
C 	C 	0.75337 0.34322 0.84971 0.32500
C 	C 	0.56018 0.40459 0.92532 0.28800
C 	C 	0.83011 0.38517 0.93406 0.31200
C 	C 	0.62831 0.24413 0.95684 0.29200
Ni	Ni	0.64726 0.38757 0.87558 1.11300
Ni	Ni	0.69933 0.40316 0.93929 1.12200
Ni	Ni	0.69857 0.27604 0.90248 1.12000
O 	O 	0.55302 0.28732 0.86875 -0.37300
O 	O 	0.61639 0.22036 0.87291 -0.36900
O 	O 	0.80524 0.43182 0.93122 -0.39300
O 	O 	0.74798 0.48400 0.88020 -0.37900
O 	O 	0.72350 0.50433 0.92394 -0.38100
O 	O 	0.63196 0.21469 0.93307 -0.38600
O 	O 	0.69614 0.35347 0.84443 -0.36400
O 	O 	0.77360 0.34506 0.87504 -0.39300
O 	O 	0.67789 0.31383 0.96332 -0.38300
O 	O 	0.58874 0.42812 0.90000 -0.36300
O 	O 	0.59478 0.38549 0.94398 -0.38400
O 	O 	0.78584 0.31401 0.92934 -0.37900
O 	O 	0.66178 0.34349 0.90723 -0.71300
H 	H 	0.60976 0.30904 0.91276 0.16100
C 	C 	0.78837 0.46544 0.55001 0.28600
C 	C 	0.64177 0.15958 0.58908 0.31500
C 	C 	0.59826 0.30645 0.53487 0.30700
C 	C 	0.83248 0.29705 0.60635 0.31200
C 	C 	0.54453 0.27695 0.62540 0.31100
C 	C 	0.73984 0.45234 0.63677 0.28400
Ni	Ni	0.73309 0.30351 0.55914 1.11500
Ni	Ni	0.69457 0.29247 0.62485 1.12000
Ni	Ni	0.65144 0.38971 0.58614 1.12000
O 	O 	0.80740 0.41276 0.54890 -0.36800
O 	O 	0.71740 0.44889 0.55351 -0.37800
O 	O 	0.58264 0.24155 0.62473 -0.39500
O 	O 	0.64986 0.19522 0.56585 -0.37500
O 	O 	0.68193 0.19408 0.61088 -0.38400
O 	O 	0.71884 0.46771 0.61287 -0.38400
O 	O 	0.66402 0.31252 0.52962 -0.37000
O 	O 	0.57904 0.31026 0.56036 -0.38800
O 	O 	0.70828 0.38311 0.64659 -0.37800
O 	O 	0.81423 0.28674 0.57973 -0.36900
O 	O 	0.80546 0.32819 0.62324 -0.38800
O 	O 	0.57435 0.34591 0.61671 -0.38800
O 	O 	0.70868 0.34088 0.59053 -0.71600
H 	H 	0.75810 0.38415 0.59409 0.15400
C 	C 	0.94198 0.84642 0.72542 0.29900
C 	C 	0.14687 0.07611 0.80160 0.32300
C 	C 	0.92663 0.88115 0.80261 0.30400
C 	C 	0.16837 0.07879 0.72677 0.30400
C 	C 	0.92495 0.08846 0.78558 0.30500
C 	C 	0.95322 0.06847 0.71044 0.30900
Ni	Ni	0.05885 0.95094 0.76491 1.10400
Ni	Ni	0.05998 0.10741 0.75825 1.12300
Ni	Ni	0.90478 0.95562 0.75420 1.11300
O 	O 	0.01498 0.88460 0.73027 -0.37700
O 	O 	0.89323 0.85694 0.74023 -0.37700
O 	O 	0.99590 0.10787 0.78957 -0.38500
O 	O 	0.09192 0.00832 0.80146 -0.37700
O 	O 	0.14563 0.12584 0.78495 -0.37100
O 	O 	0.90961 0.99673 0.71613 -0.40400
O 	O 	0.96968 0.86739 0.78639 -0.38000
O 	O 	0.89823 0.92236 0.79400 -0.38700
O 	O 	0.99129 0.11720 0.73023 -0.38500
O 	O 	0.15992 0.02848 0.74574 -0.36600
O 	O 	0.13102 0.11600 0.72781 -0.38000
O 	O 	0.88392 0.03594 0.76782 -0.37300
O 	O 	0.01144 0.00312 0.75337 -0.70400
H 	H 	0.01899 0.00092 0.73343 0.16000
C 	C 	0.49448 0.78329 0.39214 0.30700
C 	C 	0.20561 0.51287 0.39822 0.30600
C 	C 	0.30672 0.75277 0.36839 0.31000
C 	C 	0.38442 0.54808 0.42780 0.28700
C 	C 	0.21124 0.69492 0.44955 0.30900
C 	C 	0.40077 0.73894 0.47988 0.28800
Ni	Ni	0.35136 0.63963 0.38539 1.11300
Ni	Ni	0.28497 0.60488 0.44782 1.12100
Ni	Ni	0.36222 0.77009 0.42494 1.12100
O 	O 	0.46537 0.71236 0.38574 -0.37600
O 	O 	0.45127 0.81284 0.39808 -0.38200
O 	O 	0.20230 0.62936 0.44341 -0.38500
O 	O 	0.23655 0.57525 0.38470 -0.38200
O 	O 	0.22308 0.51219 0.42432 -0.37200
O 	O 	0.42630 0.78267 0.45787 -0.38800
O 	O 	0.34330 0.71846 0.36079 -0.37000
O 	O 	0.28956 0.75396 0.39425 -0.38800
O 	O 	0.33383 0.67726 0.47989 -0.37800
O 	O 	0.36170 0.55128 0.40230 -0.37000
O 	O 	0.36023 0.56878 0.44976 -0.37800
O 	O 	0.27875 0.75278 0.45118 -0.38900
O 	O 	0.34953 0.67373 0.42095 -0.71600
H 	H 	0.39847 0.68274 0.42786 0.15900
C 	C 	0.37546 0.54800 0.07859 0.28900
C 	C 	0.23247 0.66309 0.15808 0.32400
C 	C 	0.18718 0.47284 0.10259 0.31100
C 	C 	0.43912 0.74811 0.14071 0.28600
C 	C 	0.17724 0.66780 0.07050 0.31100
C 	C 	0.37195 0.77135 0.05284 0.29500
Ni	Ni	0.31541 0.59392 0.13059 1.11200
Ni	Ni	0.30811 0.73804 0.10795 1.12000
Ni	Ni	0.27472 0.60622 0.06690 1.12100
O 	O 	0.35386 0.53502 0.10518 -0.36500
O 	O 	0.36652 0.59592 0.06345 -0.38600
O 	O 	0.23092 0.73134 0.07993 -0.38500
O 	O 	0.27903 0.63762 0.16263 -0.36400
O 	O 	0.22124 0.67750 0.13306 -0.38700
O 	O 	0.32208 0.70298 0.04447 -0.38300
O 	O 	0.20465 0.51866 0.12312 -0.37700
O 	O 	0.22042 0.49694 0.07862 -0.38200
O 	O 	0.38639 0.78855 0.07917 -0.39400
O 	O 	0.42164 0.67749 0.14039 -0.37000
O 	O 	0.38614 0.76786 0.13916 -0.37500
O 	O 	0.18040 0.60763 0.07507 -0.39100
O 	O 	0.31899 0.65358 0.10069 -0.71100
H 	H 	0.37264 0.67756 0.09603 0.16800
C 	C 	0.07764 0.14886 0.21263 0.30700
C 	C 	0.86248 0.95638 0.29659 0.30700
C 	C 	0.08022 0.15292 0.29303 0.32100
C 	C 	0.84971 0.94067 0.21894 0.28600
C 	C 	0.08707 0.94228 0.29042 0.29900
C 	C 	0.06868 0.90984 0.22810 0.29400
Ni	Ni	0.95434 0.06814 0.25426 1.11100
Ni	Ni	0.94729 0.90981 0.25982 1.11300
Ni	Ni	0.10879 0.05957 0.25271 1.12400
O 	O 	0.03821 0.15709 0.23247 -0.37100
O 	O 	0.11880 0.11696 0.21755 -0.36700
O 	O 	0.01703 0.89343 0.28481 -0.37500
O 	O 	0.85914 0.99441 0.27569 -0.39100
O 	O 	0.90603 0.92670 0.29553 -0.38500
O 	O 	0.11933 0.98168 0.23025 -0.38800
O 	O 	0.00790 0.10868 0.29144 -0.37000
O 	O 	0.12546 0.15226 0.27378 -0.37000
O 	O 	0.99558 0.88678 0.22807 -0.39900
O 	O 	0.89352 0.01352 0.21970 -0.36400
O 	O 	0.85498 0.89549 0.23753 -0.37100
O 	O 	0.11115 0.01345 0.28857 -0.37400
O 	O 	0.00237 0.01150 0.24953 -0.70200
H 	H 	0.00006 0.00552 0.22933 0.16300
C 	C 	0.10649 0.26948 0.14284 0.01800
C 	C 	0.17267 0.29706 0.12747 -0.05600
C 	C 	0.19466 0.35878 0.11047 0.01100
C 	C 	0.08824 0.18867 0.18735 -0.09000
C 	C 	0.07964 0.35945 0.12133 0.01800
C 	C 	0.05773 0.29773 0.13837 -0.05600
C 	C 	0.09623 0.22396 0.16664 0.04200
C 	C 	0.15067 0.39348 0.10891 -0.09000
H 	H 	0.20999 0.27450 0.13035 0.05100
H 	H 	0.24953 0.38427 0.10103 0.03800
H 	H 	0.04442 0.38475 0.11982 0.03700
H 	H 	0.00544 0.27547 0.14967 0.05300
C 	C 	0.65560 0.86686 0.17542 0.01600
C 	C 	0.59520 0.86821 0.18848 -0.05700
C 	C 	0.52502 0.83632 0.17567 0.01300
C 	C 	0.78251 0.91245 0.20280 -0.08900
C 	C 	0.57689 0.80657 0.13588 0.01100
C 	C 	0.64696 0.83838 0.14871 -0.05700
C 	C 	0.72510 0.89126 0.19000 0.03300
C 	C 	0.51481 0.80243 0.14981 -0.07800
H 	H 	0.60184 0.89144 0.20896 0.04800
H 	H 	0.47766 0.83371 0.18660 0.03800
H 	H 	0.56980 0.78114 0.11580 0.03200
H 	H 	0.69373 0.83844 0.13825 0.04600
C 	C 	0.14812 0.75735 0.20974 0.01500
C 	C 	0.19483 0.82421 0.22321 -0.05800
C 	C 	0.16847 0.87323 0.22968 0.01300
C 	C 	0.20622 0.69056 0.18021 -0.10300
C 	C 	0.04678 0.78658 0.21089 0.02500
C 	C 	0.07318 0.73752 0.20460 -0.06000
C 	C 	0.18077 0.71913 0.19527 0.04200
C 	C 	0.09504 0.85592 0.22262 -0.08400
H 	H 	0.25263 0.83991 0.22748 0.04700
H 	H 	0.20557 0.92512 0.23976 0.03300
H 	H 	0.98955 0.77147 0.20586 0.02900
H 	H 	0.03650 0.68587 0.19427 0.05300
C 	C 	0.70453 0.90461 0.36172 0.00900
C 	C 	0.74793 0.86946 0.36060 -0.05300
C 	C 	0.80266 0.88898 0.34022 0.01000
C 	C 	0.57009 0.83152 0.38384 -0.09800
C 	C 	0.77714 0.98525 0.32422 -0.00900
C 	C 	0.72212 0.96523 0.34451 -0.04800
C 	C 	0.63250 0.86737 0.37481 0.04100
C 	C 	0.81473 0.94441 0.32097 -0.07800
H 	H 	0.73555 0.82335 0.37420 0.04600
H 	H 	0.83294 0.85857 0.33863 0.04100
H 	H 	0.78828 0.03047 0.31034 0.05300
H 	H 	0.68978 0.99368 0.34561 0.04200
C 	C 	0.14034 0.32491 0.34640 0.01700
C 	C 	0.12644 0.38183 0.33818 -0.05600
C 	C 	0.14181 0.44041 0.35608 0.01200
C 	C 	0.10700 0.21391 0.31196 -0.09300
C 	C 	0.18163 0.38348 0.39109 0.01600
C 	C 	0.16634 0.32497 0.37310 -0.05700
C 	C 	0.12407 0.26456 0.32781 0.04300
C 	C 	0.17201 0.44301 0.38233 -0.08700
H 	H 	0.10447 0.38116 0.31781 0.05000
H 	H 	0.13266 0.48505 0.34920 0.03800
H 	H 	0.20355 0.38381 0.41142 0.04100
H 	H 	0.17550 0.28023 0.37985 0.05100
C 	C 	0.22033 0.86293 0.31974 0.01600
C 	C 	0.20225 0.79023 0.31306 -0.05800
C 	C 	0.23625 0.75574 0.32723 0.01800
C 	C 	0.13569 0.91679 0.30101 -0.10200
C 	C 	0.31102 0.86866 0.35300 0.01800
C 	C 	0.27697 0.90300 0.33890 -0.05900
C 	C 	0.17508 0.89306 0.30942 0.03800
C 	C 	0.28827 0.79385 0.34814 -0.08800
H 	H 	0.15945 0.75935 0.29784 0.05100
H 	H 	0.21877 0.69816 0.32314 0.03400
H 	H 	0.35203 0.89891 0.36884 0.02500
H 	H 	0.29217 0.95963 0.34381 0.04600
C 	C 	0.54679 0.86780 0.52927 -0.05600
C 	C 	0.50144 0.86676 0.55119 0.00900
C 	C 	0.42637 0.81010 0.55240 -0.05700
C 	C 	0.39447 0.76198 0.53006 0.00900
C 	C 	0.43776 0.76962 0.50653 -0.07700
C 	C 	0.51517 0.81902 0.50716 0.00900
C 	C 	0.52792 0.93241 0.56930 0.04100
H 	H 	0.39143 0.80682 0.56971 0.04300
H 	H 	0.33504 0.72260 0.53027 0.03900
H 	H 	0.54984 0.82343 0.48960 0.03500
H 	H 	0.60527 0.90996 0.52835 0.04300
C 	C 	0.59886 0.96319 0.58175 -0.10000
C 	C 	0.63372 0.03618 0.59144 0.05300
C 	C 	0.59758 0.07846 0.58891 -0.10600
C 	C 	0.52309 0.04442 0.57986 0.05500
C 	C 	0.48844 0.97184 0.56999 -0.09900
H 	H 	0.62895 0.93244 0.58222 0.05100
H 	H 	0.69077 0.06147 0.59897 0.02800
H 	H 	0.49402 0.07609 0.57848 0.03000
H 	H 	0.43310 0.94837 0.56098 0.05200
C 	C 	0.09106 0.73934 0.49543 -0.06300
C 	C 	0.01992 0.68075 0.48861 0.02500
C 	C 	0.01140 0.64024 0.46439 -0.05000
C 	C 	0.07438 0.65027 0.44978 0.01400
C 	C 	0.14628 0.70069 0.45928 -0.08500
C 	C 	0.15426 0.74879 0.48100 0.01500
C 	C 	0.96006 0.65020 0.50966 0.01500
H 	H 	0.95657 0.59647 0.45829 0.04100
H 	H 	0.06743 0.61535 0.43218 0.04400
H 	H 	0.20944 0.78992 0.48793 0.03700
H 	H 	0.09802 0.77325 0.51335 0.04600
C 	C 	0.97465 0.62859 0.53535 -0.06900
C 	C 	0.91614 0.57338 0.55061 0.01600
C 	C 	0.84289 0.53963 0.54034 -0.08200
C 	C 	0.82690 0.56975 0.51710 0.01400
C 	C 	0.88545 0.62564 0.50193 -0.06100
H 	H 	0.03181 0.64918 0.54215 0.05300
H 	H 	0.92855 0.55257 0.56924 0.02900
H 	H 	0.77001 0.54576 0.50950 0.03600
H 	H 	0.87324 0.64464 0.48283 0.04400
C 	C 	0.55696 0.36157 0.46596 -0.06300
C 	C 	0.49344 0.36736 0.47242 0.02100
C 	C 	0.45594 0.33857 0.49745 -0.06100
C 	C 	0.48641 0.31167 0.51711 0.01300
C 	C 	0.55492 0.31383 0.51191 -0.08700
C 	C 	0.58728 0.33430 0.48550 0.01700
C 	C 	0.47467 0.41506 0.45569 0.02000
H 	H 	0.40577 0.34132 0.50234 0.04900
H 	H 	0.45885 0.29294 0.53689 0.03800
H 	H 	0.63841 0.33339 0.48067 0.04000
H 	H 	0.58530 0.38216 0.44641 0.04800
C 	C 	0.51570 0.49208 0.45905 -0.06100
C 	C 	0.48960 0.53697 0.44764 0.01400
C 	C 	0.42267 0.50524 0.43259 -0.08100
C 	C 	0.38541 0.42897 0.42709 0.01600
C 	C 	0.41094 0.38384 0.43886 -0.06200
H 	H 	0.56561 0.51670 0.47173 0.04700
H 	H 	0.51918 0.59592 0.45174 0.03100
H 	H 	0.33426 0.40409 0.41513 0.03500
H 	H 	0.37952 0.32448 0.43584 0.04900
C 	C 	0.91271 0.17412 0.64312 0.02600
C 	C 	0.85877 0.10162 0.65016 -0.06300
C 	C 	0.87429 0.06328 0.67048 0.02400
C 	C 	0.86651 0.25750 0.61815 -0.09800
C 	C 	0.00079 0.16633 0.67430 0.04000
C 	C 	0.98490 0.20488 0.65418 -0.08100
C 	C 	0.88988 0.22060 0.62894 0.03700
C 	C 	0.94402 0.09739 0.68384 -0.09600
H 	H 	0.80322 0.07686 0.64123 0.05200
H 	H 	0.83049 0.00930 0.67708 0.04200
H 	H 	0.05580 0.19203 0.68369 0.03200
H 	H 	0.02743 0.26028 0.64838 0.06000
C 	C 	0.34619 0.17026 0.67418 0.01800
C 	C 	0.36229 0.12919 0.65521 -0.05700
C 	C 	0.42456 0.16488 0.63786 0.01700
C 	C 	0.23107 0.10595 0.70834 -0.09000
C 	C 	0.45314 0.28333 0.65765 0.01500
C 	C 	0.39078 0.24752 0.67497 -0.05800
C 	C 	0.28356 0.13354 0.69271 0.03900
C 	C 	0.47144 0.24198 0.63948 -0.08800
H 	H 	0.32730 0.06958 0.65416 0.05200
H 	H 	0.43761 0.13242 0.62369 0.03800
H 	H 	0.48884 0.34275 0.65918 0.03800
H 	H 	0.37793 0.27972 0.68933 0.05000
C 	C 	0.85707 0.64894 0.68444 0.01500
C 	C 	0.88586 0.64303 0.65897 -0.05600
C 	C 	0.85093 0.57630 0.64436 0.01100
C 	C 	0.91370 0.77835 0.71015 -0.09300
C 	C 	0.76044 0.51971 0.68132 0.01200
C 	C 	0.79547 0.58660 0.69593 -0.05600
C 	C 	0.88850 0.71974 0.69824 0.03500
C 	C 	0.78668 0.51492 0.65508 -0.07600
H 	H 	0.93399 0.69061 0.65009 0.04500
H 	H 	0.87193 0.57320 0.62417 0.03100
H 	H 	0.71083 0.47295 0.68981 0.03900
H 	H 	0.77335 0.59045 0.71578 0.04900
C 	C 	0.01171 0.53259 0.95506 -0.05500
C 	C 	0.00631 0.51673 0.98338 0.03000
C 	C 	0.95851 0.44367 0.99232 -0.07200
C 	C 	0.90721 0.39141 0.97393 0.01600
C 	C 	0.90376 0.41216 0.94669 -0.08900
C 	C 	0.96292 0.47883 0.93663 0.01100
C 	C 	0.04603 0.57710 0.00375 0.01300
H 	H 	0.95781 0.42877 0.01376 0.04800
H 	H 	0.86461 0.33816 0.98166 0.03500
H 	H 	0.96383 0.49345 0.91513 0.03800
H 	H 	0.04987 0.58771 0.94754 0.04600
C 	C 	0.12108 0.63136 0.99947 -0.05800
C 	C 	0.16188 0.67906 0.02093 0.00500
C 	C 	0.13073 0.66683 0.04748 -0.09000
C 	C 	0.05278 0.62347 0.05020 0.01300
C 	C 	0.01035 0.57831 0.02838 -0.04700
H 	H 	0.14905 0.63373 0.98025 0.04300
H 	H 	0.22061 0.71813 0.01786 0.03800
H 	H 	0.02668 0.61755 0.07017 0.03600
H 	H 	0.95093 0.54116 0.03122 0.03700
C 	C 	0.57046 0.10629 0.01307 -0.07000
C 	C 	0.49830 0.05559 0.00368 0.04900
C 	C 	0.46346 0.07835 0.98410 -0.06900
C 	C 	0.50340 0.14798 0.97184 0.02200
C 	C 	0.57931 0.19390 0.97815 -0.08700
C 	C 	0.61092 0.17535 0.00029 0.02300
C 	C 	0.46169 0.97753 0.01274 -0.00700
H 	H 	0.40708 0.04055 0.97718 0.05400
H 	H 	0.47776 0.16301 0.95535 0.02700
H 	H 	0.66893 0.21141 0.00589 0.03400
H 	H 	0.59660 0.09066 0.02918 0.05500
C 	C 	0.50066 0.93760 0.01166 -0.05300
C 	C 	0.46789 0.86562 0.02222 0.00800
C 	C 	0.39558 0.83266 0.03343 -0.08100
C 	C 	0.35426 0.87008 0.03211 0.00500
C 	C 	0.38752 0.94258 0.02227 -0.05200
H 	H 	0.55699 0.96304 0.00337 0.03900
H 	H 	0.50015 0.83707 0.02302 0.03000
H 	H 	0.29827 0.84500 0.04070 0.03700
H 	H 	0.35650 0.97240 0.02291 0.03800
C 	C 	0.48391 0.50006 0.03076 -0.05900
C 	C 	0.42542 0.45308 0.01308 0.02000
C 	C 	0.35134 0.41994 0.02265 -0.05800
C 	C 	0.33548 0.44018 0.04823 0.00800
C 	C 	0.39299 0.49675 0.06375 -0.07900
C 	C 	0.46765 0.52146 0.05610 0.01200
C 	C 	0.44159 0.44128 0.98423 0.02100
H 	H 	0.30567 0.38191 0.00964 0.04600
H 	H 	0.27760 0.41911 0.05412 0.03800
H 	H 	0.51288 0.56316 0.06833 0.03100
H 	H 	0.54171 0.52285 0.02432 0.04600
C 	C 	0.49055 0.50171 0.96776 -0.06000
C 	C 	0.51885 0.48956 0.94319 0.01300
C 	C 	0.50015 0.41723 0.93556 -0.07900
C 	C 	0.43917 0.35779 0.94872 0.01400
C 	C 	0.41197 0.36933 0.97363 -0.05800
H 	H 	0.51008 0.55783 0.97476 0.04700
H 	H 	0.56264 0.53635 0.93220 0.03700
H 	H 	0.42072 0.30164 0.94198 0.03100
H 	H 	0.37168 0.32215 0.98547 0.04700
C 	C 	0.83015 0.22568 0.80709 0.01300
C 	C 	0.90721 0.25790 0.80163 -0.05500
C 	C 	0.93945 0.21311 0.79619 0.01400
C 	C 	0.77632 0.30565 0.83032 -0.10800
C 	C 	0.81790 0.10362 0.80200 0.01600
C 	C 	0.78577 0.14840 0.80721 -0.05500
C 	C 	0.79996 0.27049 0.81812 0.04200
C 	C 	0.89487 0.13558 0.79627 -0.08000
H 	H 	0.94241 0.31753 0.80207 0.04800
H 	H 	0.99857 0.23877 0.79132 0.03000
H 	H 	0.78269 0.04398 0.80202 0.03900
H 	H 	0.72659 0.12283 0.81204 0.05000
C 	C 	0.34269 0.10868 0.83667 0.01400
C 	C 	0.40417 0.12400 0.81976 -0.05200
C 	C 	0.47469 0.14704 0.83154 0.01300
C 	C 	0.21635 0.09089 0.81443 -0.10000
C 	C 	0.42060 0.13018 0.87703 0.01000
C 	C 	0.35002 0.10718 0.86535 -0.05200
C 	C 	0.27391 0.09949 0.82470 0.04400
C 	C 	0.48454 0.15825 0.86013 -0.07400
H 	H 	0.39842 0.12214 0.79754 0.05100
H 	H 	0.52308 0.16522 0.81822 0.03900
H 	H 	0.42682 0.13517 0.89923 0.03000
H 	H 	0.30212 0.09223 0.87862 0.05000
C 	C 	0.84994 0.74092 0.87280 0.01000
C 	C 	0.80214 0.76211 0.85992 -0.05600
C 	C 	0.82861 0.81295 0.83817 0.01300
C 	C 	0.79098 0.60680 0.89397 -0.10700
C 	C 	0.95305 0.82915 0.84464 0.00700
C 	C 	0.92649 0.77842 0.86640 -0.05300
C 	C 	0.81821 0.66952 0.88576 0.04400
C 	C 	0.90318 0.84310 0.82936 -0.08200
H 	H 	0.74313 0.73459 0.86516 0.04600
H 	H 	0.78998 0.82493 0.82704 0.03300
H 	H 	0.01151 0.85452 0.83874 0.03700
H 	H 	0.96427 0.76375 0.87672 0.04400
