data_crystal

_cell_length_a 30.81421
_cell_length_b 30.93842
_cell_length_c 33.30403
_cell_angle_alpha 95.53312
_cell_angle_beta  95.53105
_cell_angle_gamma 125.53542

_symmetry_space_group_name_	'P 1'
_symmetry_space_group_name_H-M	'P 1'

loop_
_symmetry_equiv_pos_as_xyz
  x,y,z

loop_
_atom_site_label
_atom_site_type_symbol
_atom_site_fract_x
_atom_site_fract_y
_atom_site_fract_z
_atom_site_charge
N 	N 	0.02571 0.05719 0.99270 -0.13600
C 	C 	0.04795 0.03039 0.98766 0.13100
N 	N 	0.01695 0.97603 0.98501 -0.13400
C 	C 	0.02938 0.00457 0.45804 0.11800
N 	N 	0.00336 0.02767 0.45311 -0.13800
C 	C 	0.08794 0.03573 0.45726 -0.02000
H 	H 	0.08572 0.07856 0.41034 0.04300
C 	C 	0.11081 0.07250 0.43043 -0.01900
H 	H 	0.10405 0.00026 0.50399 0.04000
C 	C 	0.10434 0.05940 0.98553 -0.03900
C 	C 	0.12101 0.02801 0.48281 -0.01900
C 	C 	0.15158 0.08226 0.98379 0.00500
N 	N 	0.00150 0.95287 0.46434 -0.13500
C 	C 	0.97227 0.02949 0.99506 0.11200
C 	C 	0.96372 0.94832 0.98737 0.12800
N 	N 	0.94134 0.97496 0.99240 -0.13800
C 	C 	0.94966 0.99918 0.45439 0.13300
N 	N 	0.92179 0.94739 0.46063 -0.14000
C 	C 	0.94779 0.92419 0.46567 0.11500
Cu	Cu	0.64488 0.25865 0.00429 0.92800
Cu	Cu	0.67718 0.24933 0.91426 0.87200
Cu	Cu	0.67098 0.33888 0.94646 0.89700
Cu	Cu	0.64616 0.36044 0.02824 0.89400
C 	C 	0.67328 0.31112 0.08820 0.25100
O 	O 	0.56655 0.22719 0.00696 -0.36000
C 	C 	0.64839 0.29494 0.85732 0.25500
O 	O 	0.68741 0.34202 0.00397 -0.63900
O 	O 	0.63273 0.25948 0.94487 -0.64000
O 	O 	0.67791 0.21918 0.00218 -0.37000
O 	O 	0.73219 0.26821 0.95856 -0.44200
O 	O 	0.64547 0.33003 0.07857 -0.37500
O 	O 	0.71166 0.41658 0.95254 -0.37900
C 	C 	0.70661 0.44732 0.97913 0.28900
C 	C 	0.54352 0.24826 0.99145 0.28200
O 	O 	0.57378 0.29756 0.98406 -0.39100
O 	O 	0.67205 0.42670 0.00464 -0.39400
O 	O 	0.66766 0.27204 0.06266 -0.33600
C 	C 	0.72098 0.23681 0.98563 0.30900
O 	O 	0.66829 0.33738 0.88661 -0.36500
O 	O 	0.63941 0.25003 0.86589 -0.41000
H 	H 	0.72671 0.36585 0.01586 0.16400
H 	H 	0.59416 0.23720 0.93109 0.17200
Cu	Cu	0.72730 0.33352 0.44416 0.92800
Cu	Cu	0.72442 0.28665 0.52903 0.87200
Cu	Cu	0.63754 0.29559 0.49441 0.89800
Cu	Cu	0.62689 0.33273 0.41628 0.89500
C 	C 	0.69737 0.33209 0.35912 0.25900
O 	O 	0.75864 0.41292 0.44845 -0.36100
C 	C 	0.67158 0.30855 0.58386 0.25500
O 	O 	0.64274 0.28837 0.43762 -0.64100
O 	O 	0.71814 0.33572 0.50208 -0.64200
O 	O 	0.76731 0.30075 0.44533 -0.37100
O 	O 	0.71124 0.23832 0.48177 -0.43900
O 	O 	0.66826 0.34864 0.36996 -0.36300
O 	O 	0.55922 0.25370 0.48265 -0.37900
C 	C 	0.53082 0.26005 0.45475 0.30700
C 	C 	0.73413 0.43218 0.46386 0.30100
O 	O 	0.68303 0.39899 0.46700 -0.39100
O 	O 	0.55437 0.29852 0.43268 -0.39200
O 	O 	0.72128 0.31980 0.38593 -0.35400
C 	C 	0.74690 0.25440 0.45752 0.28700
O 	O 	0.63130 0.28907 0.55252 -0.36600
O 	O 	0.71755 0.31702 0.57839 -0.40800
H 	H 	0.62062 0.25057 0.42244 0.16600
H 	H 	0.73858 0.37245 0.51894 0.17300
C 	C 	0.64269 0.27568 0.67939 0.11400
C 	C 	0.61325 0.24734 0.70889 -0.08900
C 	C 	0.63745 0.27105 0.75034 0.00500
C 	C 	0.68320 0.32348 0.76199 0.11400
C 	C 	0.70971 0.35376 0.73228 -0.08900
C 	C 	0.69069 0.32663 0.69122 0.00700
O 	O 	0.62052 0.26226 0.63789 -0.19300
C 	C 	0.66095 0.30999 0.62577 0.04100
C 	C 	0.70129 0.34961 0.65800 -0.05900
O 	O 	0.69124 0.34638 0.80245 -0.19300
C 	C 	0.64634 0.30165 0.81428 0.03900
C 	C 	0.61247 0.25763 0.78253 -0.05800
H 	H 	0.57298 0.20945 0.69996 0.06400
H 	H 	0.74260 0.39657 0.74066 0.06400
H 	H 	0.74066 0.38473 0.65500 0.04900
H 	H 	0.58176 0.21663 0.78609 0.05000
C 	C 	0.74038 0.37232 0.26614 0.11700
C 	C 	0.73945 0.39403 0.23133 -0.09000
C 	C 	0.73840 0.36885 0.19352 0.01200
C 	C 	0.72971 0.31937 0.18904 0.11200
C 	C 	0.72634 0.29545 0.22350 -0.08600
C 	C 	0.73654 0.32529 0.26231 0.00800
O 	O 	0.72606 0.38369 0.30179 -0.18900
C 	C 	0.71291 0.33884 0.31871 0.04500
C 	C 	0.71909 0.30393 0.29569 -0.05600
O 	O 	0.70624 0.28919 0.14931 -0.18400
C 	C 	0.70102 0.32504 0.13087 0.04500
C 	C 	0.71993 0.37237 0.15680 -0.06600
H 	H 	0.73620 0.42718 0.23322 0.06500
H 	H 	0.71326 0.25413 0.21994 0.06600
H 	H 	0.69934 0.26191 0.29795 0.05200
H 	H 	0.70771 0.39826 0.15183 0.04900
C 	C 	0.91815 0.86824 0.47286 -0.02000
C 	C 	0.86796 0.82687 0.44778 -0.01900
C 	C 	0.84373 0.77279 0.45073 -0.04700
C 	C 	0.86938 0.75971 0.47893 0.01300
C 	C 	0.91821 0.80123 0.50534 -0.04800
C 	C 	0.94251 0.85520 0.50230 -0.02000
C 	C 	0.84703 0.70261 0.47902 0.00800
C 	C 	0.87718 0.68361 0.46920 -0.04200
C 	C 	0.85569 0.62933 0.46848 -0.03000
C 	C 	0.80393 0.59365 0.47753 -0.00800
C 	C 	0.77397 0.61264 0.48777 -0.03100
C 	C 	0.79544 0.66696 0.48855 -0.04200
C 	C 	0.78024 0.53694 0.47385 0.04600
C 	C 	0.75977 0.48926 0.46988 -0.10800
H 	H 	0.84875 0.83641 0.42497 0.04200
H 	H 	0.80589 0.74103 0.43032 0.04300
H 	H 	0.93792 0.79160 0.52761 0.04200
H 	H 	0.98085 0.88684 0.52224 0.03900
H 	H 	0.91697 0.71076 0.46169 0.04200
H 	H 	0.87899 0.61490 0.46037 0.04100
H 	H 	0.73385 0.58524 0.49470 0.04000
H 	H 	0.77196 0.68127 0.49637 0.04200
C 	C 	0.76763 0.22281 0.44729 -0.09500
C 	C 	0.82207 0.24918 0.44314 0.01300
C 	C 	0.84378 0.22016 0.43969 -0.06800
C 	C 	0.81122 0.16452 0.44022 0.02700
C 	C 	0.75616 0.13767 0.44223 -0.06800
C 	C 	0.73444 0.16662 0.44568 0.01300
C 	C 	0.83564 0.13525 0.44179 -0.00200
C 	C 	0.81750 0.09138 0.41051 -0.03500
C 	C 	0.83919 0.06236 0.41296 -0.04200
C 	C 	0.87906 0.07697 0.44669 0.01200
C 	C 	0.89729 0.12082 0.47786 -0.04200
C 	C 	0.87567 0.14984 0.47546 -0.03500
C 	C 	0.90240 0.04797 0.44888 0.00500
C 	C 	0.92315 0.02489 0.45119 -0.04500
H 	H 	0.84811 0.29243 0.44413 0.03300
H 	H 	0.88620 0.24115 0.43767 0.04700
H 	H 	0.73060 0.09468 0.44237 0.04600
H 	H 	0.69213 0.14559 0.44811 0.03000
H 	H 	0.78661 0.07976 0.38440 0.03900
H 	H 	0.82506 0.02865 0.38864 0.04200
H 	H 	0.92821 0.13244 0.50397 0.04200
H 	H 	0.88964 0.18334 0.49992 0.03600
C 	C 	0.16602 0.10083 0.42894 -0.04800
C 	C 	0.19884 0.09270 0.45424 0.01400
C 	C 	0.17616 0.05636 0.48129 -0.04800
C 	C 	0.25696 0.12218 0.45244 0.00800
C 	C 	0.27746 0.09368 0.44015 -0.04200
C 	C 	0.33289 0.12149 0.43983 -0.03000
C 	C 	0.36814 0.17791 0.45172 -0.00700
C 	C 	0.34768 0.20649 0.46358 -0.03000
C 	C 	0.29226 0.17874 0.46395 -0.04200
C 	C 	0.42544 0.20642 0.45247 0.04700
C 	C 	0.47350 0.23064 0.45337 -0.10400
H 	H 	0.18319 0.12875 0.40790 0.04400
H 	H 	0.20131 0.05018 0.50120 0.04300
H 	H 	0.25048 0.05004 0.43103 0.04200
H 	H 	0.34843 0.09915 0.43055 0.03900
H 	H 	0.37472 0.25013 0.47279 0.04100
H 	H 	0.27685 0.20107 0.47358 0.04200
C 	C 	0.73421 0.50461 0.97628 -0.08600
C 	C 	0.78653 0.53498 0.96693 0.01500
C 	C 	0.81378 0.59009 0.96646 -0.06600
C 	C 	0.78887 0.61518 0.97524 0.02900
C 	C 	0.73612 0.58458 0.98360 -0.06700
C 	C 	0.70891 0.52958 0.98414 0.01500
C 	C 	0.81864 0.67381 0.97708 -0.00300
C 	C 	0.83134 0.70779 0.01427 -0.03300
C 	C 	0.85911 0.76334 0.01599 -0.04000
C 	C 	0.87440 0.78527 0.98059 0.01300
C 	C 	0.86165 0.75141 0.94339 -0.04100
C 	C 	0.83382 0.69581 0.94161 -0.03400
C 	C 	0.90497 0.84272 0.98281 0.00400
C 	C 	0.93130 0.89091 0.98485 -0.03900
H 	H 	0.80650 0.51621 0.96086 0.03200
H 	H 	0.85454 0.61346 0.95997 0.04700
H 	H 	0.71639 0.60353 0.98998 0.04700
H 	H 	0.66820 0.50641 0.99072 0.03400
H 	H 	0.81988 0.69116 0.04183 0.03900
H 	H 	0.86905 0.78935 0.04488 0.04300
H 	H 	0.87350 0.76817 0.91592 0.04300
H 	H 	0.82395 0.66984 0.91273 0.04000
C 	C 	0.94753 0.05821 0.99935 -0.02200
C 	C 	0.90633 0.04105 0.02255 -0.01700
C 	C 	0.88010 0.06568 0.02414 -0.04900
C 	C 	0.89482 0.10770 0.00261 0.01500
C 	C 	0.93712 0.12605 0.98051 -0.05000
C 	C 	0.96338 0.10145 0.97888 -0.01900
C 	C 	0.86362 0.12999 0.00094 0.01000
C 	C 	0.83240 0.12198 0.96357 -0.04700
C 	C 	0.80283 0.14311 0.96183 -0.02900
C 	C 	0.80420 0.17236 0.99740 -0.01500
C 	C 	0.83509 0.18017 0.03484 -0.02600
C 	C 	0.86470 0.15898 0.03664 -0.04500
C 	C 	0.77499 0.19544 0.99507 0.04900
C 	C 	0.75036 0.21448 0.99163 -0.12000
H 	H 	0.89431 0.00832 0.03902 0.04100
H 	H 	0.84758 0.05137 0.04138 0.04400
H 	H 	0.94894 0.15869 0.96398 0.04200
H 	H 	0.99504 0.11508 0.96086 0.04000
H 	H 	0.83103 0.09934 0.93592 0.04100
H 	H 	0.77903 0.13694 0.93279 0.03300
H 	H 	0.83639 0.20281 0.06246 0.04100
H 	H 	0.88867 0.16533 0.06563 0.04200
C 	C 	0.48409 0.21834 0.98527 -0.09100
C 	C 	0.45773 0.23063 0.95694 0.01300
C 	C 	0.40262 0.20736 0.95474 -0.06600
C 	C 	0.37331 0.17146 0.98069 0.02600
C 	C 	0.39897 0.15734 0.00774 -0.06500
C 	C 	0.45409 0.18061 0.01001 0.01500
C 	C 	0.31645 0.15044 0.98078 -0.00300
C 	C 	0.30220 0.16421 0.01599 -0.03300
C 	C 	0.24803 0.14302 0.01654 -0.04000
C 	C 	0.20783 0.10806 0.98189 0.01300
C 	C 	0.22212 0.09512 0.94641 -0.04100
C 	C 	0.27629 0.11627 0.94582 -0.03500
H 	H 	0.48014 0.25893 0.93716 0.03100
H 	H 	0.38298 0.21812 0.93350 0.04700
H 	H 	0.37643 0.12912 0.02754 0.04800
H 	H 	0.47381 0.17061 0.03191 0.04000
H 	H 	0.33304 0.19098 0.04299 0.04000
H 	H 	0.23724 0.15312 0.04408 0.04400
H 	H 	0.19118 0.06799 0.91954 0.04300
H 	H 	0.28695 0.10555 0.91847 0.03900
