data_crystal

_cell_length_a 19.15236
_cell_length_b 17.66369
_cell_length_c 47.19221
_cell_angle_alpha 89.61689
_cell_angle_beta  89.61982
_cell_angle_gamma 119.44571

_symmetry_space_group_name_	'P 1'
_symmetry_space_group_name_H-M	'P 1'

loop_
_symmetry_equiv_pos_as_xyz
  x,y,z

loop_
_atom_site_label
_atom_site_type_symbol
_atom_site_fract_x
_atom_site_fract_y
_atom_site_fract_z
_atom_site_charge
O 	O 	0.06078 0.92848 0.69625 -0.38100
O 	O 	0.08175 0.92608 0.75921 -0.35900
O 	O 	0.06700 0.06295 0.73419 -0.72100
H 	H 	0.08294 0.07931 0.75397 0.14900
O 	O 	0.03690 0.20115 0.18959 -0.36500
S 	S 	0.03832 0.22275 0.11949 0.05200
H 	H 	0.03888 0.27968 0.06058 0.08400
S 	S 	0.04040 0.15080 0.31190 0.05500
H 	H 	0.04619 0.14275 0.37373 0.08100
C 	C 	0.01062 0.45298 0.46421 -0.00800
H 	H 	0.03196 0.54334 0.49765 0.09200
F 	F 	0.02392 0.30888 0.43503 -0.45500
F 	F 	0.01686 0.40457 0.40483 -0.46600
C 	C 	0.03768 0.50757 0.92583 0.03700
S 	S 	0.10421 0.86160 0.81881 0.06600
H 	H 	0.09648 0.74191 0.86405 0.09900
O 	O 	0.06419 0.20132 0.75857 -0.38100
Ni	Ni	0.13468 0.01734 0.72591 1.11700
Ni	Ni	0.09287 0.17470 0.72014 1.12200
C 	C 	0.07281 0.17559 0.17117 0.30800
C 	C 	0.06847 0.19128 0.25507 0.27900
C 	C 	0.01665 0.91217 0.17883 0.30800
C 	C 	0.01377 0.92346 0.26025 0.27600
Ni	Ni	0.07819 0.06272 0.21715 1.12200
C 	C 	0.09152 0.22960 0.09053 0.01200
C 	C 	0.08828 0.26793 0.06488 -0.04900
C 	C 	0.10104 0.22137 0.14379 -0.07100
H 	H 	0.12862 0.38737 0.02114 0.07900
C 	C 	0.03132 0.85774 0.15931 -0.08600
C 	C 	0.10526 0.17592 0.36393 -0.04400
C 	C 	0.09613 0.20975 0.28436 -0.06900
H 	H 	0.10919 0.23995 0.41746 0.11000
S 	S 	0.03812 0.79344 0.28067 0.04700
C 	C 	0.02392 0.87872 0.28472 -0.06300
C 	C 	0.06841 0.56622 0.98169 0.03700
C 	C 	0.11389 0.57594 0.93288 -0.09400
H 	H 	0.08081 0.58870 0.00329 0.07600
F 	F 	0.14295 0.60787 0.88337 -0.45000
O 	O 	0.07092 0.00441 0.25458 -0.37300
C 	C 	0.11410 0.17377 0.33457 0.00400
O 	O 	0.11206 0.15055 0.67961 -0.37600
C 	C 	0.09734 0.49539 0.45629 0.32500
O 	O 	0.12456 0.55402 0.43604 -0.31900
O 	O 	0.07018 0.95640 0.19823 -0.38200
O 	O 	0.08941 0.11374 0.17769 -0.37400
O 	O 	0.11282 0.18002 0.23563 -0.36800
C 	C 	0.16252 0.23246 0.09928 0.02000
C 	C 	0.15453 0.29905 0.04621 0.04000
C 	C 	0.17117 0.36529 0.02568 -0.01100
C 	C 	0.02609 0.64656 0.09815 0.02400
C 	C 	0.06511 0.64012 0.07337 0.00700
H 	H 	0.06040 0.66614 0.05305 0.06500
C 	C 	0.06397 0.92204 0.30943 -0.01400
H 	H 	0.07652 0.98727 0.31444 0.05000
C 	C 	0.13025 0.60229 0.96142 0.00500
C 	C 	0.17735 0.62017 0.90986 0.77700
C 	C 	0.16075 0.12095 0.67253 0.30600
O 	O 	0.22026 0.11204 0.75160 -0.36100
O 	O 	0.19697 0.09977 0.69205 -0.36300
O 	O 	0.17664 0.43720 0.41557 -0.30900
O 	O 	0.14758 0.48965 0.47390 -0.33200
C 	C 	0.16742 0.22649 0.12915 -0.00800
C 	C 	0.02185 0.72289 0.14925 0.01300
C 	C 	0.04631 0.79188 0.16874 -0.01000
C 	C 	0.18684 0.23105 0.32080 0.02200
C 	C 	0.17280 0.23074 0.37986 0.03900
C 	C 	0.16609 0.26390 0.40646 -0.01000
C 	C 	0.17677 0.24895 0.29219 -0.01500
C 	C 	0.10110 0.88002 0.32350 0.02300
C 	C 	0.09102 0.80552 0.30953 0.01000
H 	H 	0.18734 0.23866 0.62612 0.05400
F 	F 	0.22105 0.70884 0.91432 -0.40700
C 	C 	0.24080 0.19542 0.74961 0.29100
O 	O 	0.21167 0.22436 0.72934 -0.36800
C 	C 	0.22493 0.41165 0.42718 0.28200
C 	C 	0.21343 0.65392 0.97125 0.30900
O 	O 	0.24024 0.73445 0.97944 -0.33400
O 	O 	0.19874 0.67908 0.03569 -0.38100
C 	C 	0.22285 0.29358 0.05384 -0.00700
C 	C 	0.22944 0.26530 0.08106 -0.03500
C 	C 	0.25310 0.41574 0.01847 -0.06600
H 	H 	0.21708 0.22532 0.13960 0.05500
C 	C 	0.05390 0.62711 0.12328 0.00500
C 	C 	0.05510 0.66793 0.14873 -0.04500
C 	C 	0.12517 0.61883 0.07906 -0.06200
H 	H 	0.07379 0.79347 0.18888 0.04900
H 	H 	0.22591 0.29220 0.27836 0.05300
C 	C 	0.14744 0.77774 0.31195 -0.05100
H 	H 	0.14174 0.72321 0.29978 0.05800
C 	C 	0.17661 0.14366 0.59370 0.02500
C 	C 	0.16954 0.06053 0.59321 0.00600
S 	S 	0.17115 0.03027 0.62663 0.05200
C 	C 	0.18016 0.11863 0.64252 -0.07300
C 	C 	0.17998 0.17511 0.62160 -0.01100
F 	F 	0.22858 0.58595 0.90987 -0.42300
Ni	Ni	0.20692 0.56359 0.40704 1.13200
O 	O 	0.25767 0.43974 0.45249 -0.34000
C 	C 	0.19905 0.65466 0.06198 0.31500
O 	O 	0.26240 0.62246 0.96817 -0.32100
S 	S 	0.12608 0.60586 0.11409 0.05500
C 	C 	0.24742 0.28242 0.36631 0.00700
C 	C 	0.25426 0.28647 0.33667 -0.04200
C 	C 	0.23379 0.34303 0.41334 -0.04600
C 	C 	0.16129 0.92020 0.34383 -0.03300
H 	H 	0.16692 0.97483 0.35591 0.06200
C 	C 	0.20669 0.19897 0.56993 -0.04300
C 	C 	0.19929 0.03466 0.57032 -0.03400
H 	H 	0.21962 0.26588 0.57115 0.06200
H 	H 	0.08926 0.66515 0.16654 0.05300
C 	C 	0.07622 0.78629 0.87103 -0.03900
O 	O 	0.21113 0.67681 0.39771 -0.34500
C 	C 	0.28914 0.51041 0.01689 0.31500
O 	O 	0.27516 0.54893 0.03798 -0.36700
S 	S 	0.30017 0.37206 0.03624 0.11200
H 	H 	0.28678 0.27573 0.08862 0.07200
C 	C 	0.21556 0.88922 0.34737 -0.01500
C 	C 	0.20871 0.81857 0.33174 0.03200
H 	H 	0.23302 0.71114 0.33833 0.04800
F 	F 	0.21243 0.77770 0.49560 -0.42700
C 	C 	0.23087 0.17028 0.54607 0.00700
C 	C 	0.23130 0.09082 0.54676 0.04000
H 	H 	0.20603 0.97738 0.57214 0.07000
H 	H 	0.26727 0.32164 0.79204 0.05400
C 	C 	0.08627 0.85548 0.85362 0.01600
Ni	Ni	0.27353 0.55568 0.47001 1.11800
O 	O 	0.27412 0.57253 0.37237 -0.37000
Ni	Ni	0.29608 0.77863 0.01666 1.12400
O 	O 	0.26676 0.67320 0.07424 -0.36400
S 	S 	0.29986 0.36758 0.38680 0.06900
H 	H 	0.30773 0.33710 0.32630 0.06200
C 	C 	0.24519 0.77512 0.34490 -0.02200
F 	F 	0.24802 0.91874 0.49355 -0.44700
C 	C 	0.31359 0.25823 0.76387 -0.06400
C 	C 	0.27722 0.75142 0.39390 0.30300
O 	O 	0.28508 0.67128 0.48646 -0.30600
O 	O 	0.29403 0.60165 0.43249 -0.70500
O 	O 	0.34529 0.55577 0.99770 -0.34900
S 	S 	0.26069 0.89170 0.37767 0.12500
C 	C 	0.27143 0.85873 0.48624 0.78300
F 	F 	0.27797 0.85813 0.45706 -0.44000
S 	S 	0.30716 0.23745 0.52541 0.06600
C 	C 	0.31850 0.32457 0.78113 -0.01700
H 	H 	0.31806 0.56871 0.42423 0.13600
C 	C 	0.27839 0.80929 0.37136 -0.07600
C 	C 	0.29280 0.09143 0.52956 0.00300
Ni	Ni	0.35968 0.66812 0.05300 1.12300
Ni	Ni	0.37359 0.67844 0.98388 1.13300
O 	O 	0.35802 0.72157 0.01868 -0.71900
H 	H 	0.31044 0.04220 0.53209 0.08300
C 	C 	0.34199 0.64413 0.36543 0.28000
O 	O 	0.38472 0.87929 0.99547 -0.34800
O 	O 	0.33929 0.83667 0.05492 -0.36300
C 	C 	0.34465 0.17269 0.51694 -0.04700
O 	O 	0.33515 0.77996 0.41270 -0.33600
H 	H 	0.02580 0.48465 0.90421 0.08100
C 	C 	0.35001 0.74798 0.48215 0.30800
C 	C 	0.35120 0.88131 0.49935 -0.10600
S 	S 	0.40549 0.28662 0.75206 0.04900
O 	O 	0.39541 0.60342 0.47775 -0.31900
H 	H 	0.41156 0.77307 0.01980 0.15400
C 	C 	0.36249 0.66730 0.33543 -0.06700
F 	F 	0.37467 0.90255 0.92284 -0.40800
C 	C 	0.39860 0.39227 0.78487 0.02500
H 	H 	0.37861 0.44719 0.82286 0.07000
C 	C 	0.04403 0.93703 0.78131 0.28100
C 	C 	0.06611 0.92587 0.81025 -0.07100
Ni	Ni	0.38788 0.70998 0.42429 1.12900
O 	O 	0.40992 0.79520 0.96364 -0.28100
C 	C 	0.37327 0.81695 0.50336 0.02500
C 	C 	0.40992 0.85426 0.06550 0.29200
C 	C 	0.43238 0.87065 0.97674 0.28200
O 	O 	0.40607 0.75669 0.46413 -0.32500
O 	O 	0.40053 0.68241 0.38385 -0.36800
O 	O 	0.43017 0.79258 0.06851 -0.34800
H 	H 	0.40674 0.88288 0.12280 0.04800
C 	C 	0.39894 0.75498 0.32657 -0.02500
H 	H 	0.39891 0.80468 0.33982 0.04900
H 	H 	0.39440 0.01936 0.49828 0.08100
C 	C 	0.42273 0.44488 0.80892 -0.03800
O 	O 	0.45563 0.64737 0.04114 -0.29400
S 	S 	0.40387 0.62044 0.31592 0.05600
C 	C 	0.40822 0.96883 0.50414 0.04900
C 	C 	0.43113 0.20671 0.51904 0.29200
C 	C 	0.44895 0.61273 0.45825 0.29400
C 	C 	0.45593 0.93497 0.08088 -0.08600
C 	C 	0.45530 0.93414 0.11058 0.00100
C 	C 	0.45499 0.38052 0.76894 0.00300
C 	C 	0.45479 0.93401 0.91625 0.78200
O 	O 	0.45914 0.65919 0.43491 -0.32900
C 	C 	0.44130 0.83719 0.51957 0.04500
H 	H 	0.47972 0.50416 0.42846 0.07500
F 	F 	0.47215 0.98146 0.89120 -0.44200
F 	F 	0.46831 0.86498 0.91171 -0.41200
O 	O 	0.46046 0.21250 0.54434 -0.37300
O 	O 	0.48533 0.71735 0.99762 -0.36100
C 	C 	0.45640 0.77649 0.30453 0.02600
H 	H 	0.45347 0.78534 0.52520 0.13100
O 	O 	0.47906 0.24618 0.49711 -0.31300
C 	C 	0.49862 0.67221 0.01714 0.29100
C 	C 	0.46486 0.70540 0.29574 -0.00100
F 	F 	0.49801 0.66341 0.52489 -0.43500
F 	F 	0.46779 0.51767 0.06662 -0.45600
C 	C 	0.48580 0.99209 0.51381 0.00000
C 	C 	0.51248 0.52294 0.44816 0.05400
C 	C 	0.50834 0.58541 0.46509 0.00700
F 	F 	0.52361 0.33782 0.44529 -0.46000
C 	C 	0.50484 0.95065 0.96696 0.00500
C 	C 	0.50641 0.98888 0.94040 -0.09600
C 	C 	0.50343 0.48441 0.81675 -0.01100
C 	C 	0.50030 0.92469 0.52398 -0.07600
H 	H 	0.50657 0.92749 0.16390 0.05100
H 	H 	0.51241 0.91736 0.30601 0.06000
F 	F 	0.54774 0.43184 0.40954 -0.43700
C 	C 	0.53387 0.41404 0.77811 -0.04900
F 	F 	0.58500 0.55725 0.92106 -0.45000
C 	C 	0.53152 0.98905 0.12247 0.00700
C 	C 	0.51856 0.86210 0.29963 -0.05000
H 	H 	0.54807 0.11051 0.91790 0.07500
C 	C 	0.55115 0.63486 0.00945 0.01500
H 	H 	0.59387 0.70992 0.97079 0.09500
S 	S 	0.53253 0.50404 0.85022 0.13300
C 	C 	0.04519 0.90136 0.85935 0.01600
C 	C 	0.03243 0.77086 0.89647 0.03500
C 	C 	0.55542 0.48166 0.45722 -0.09500
C 	C 	0.55512 0.61425 0.48991 -0.08900
C 	C 	0.55358 0.07966 0.93696 0.05200
O 	O 	0.56240 0.39962 0.95230 -0.31700
O 	O 	0.53980 0.13309 0.49095 -0.34600
O 	O 	0.55479 0.39966 0.52555 -0.34900
S 	S 	0.54901 0.00623 0.07050 0.13000
C 	C 	0.53748 0.71780 0.28411 -0.04400
C 	C 	0.56255 0.69120 0.50644 0.78600
C 	C 	0.56910 0.42381 0.43692 0.78200
C 	C 	0.58698 0.65345 0.98236 0.05200
C 	C 	0.55219 0.56782 0.02584 -0.09800
C 	C 	0.55785 0.46581 0.80237 0.02700
O 	O 	0.56635 0.24328 0.94990 -0.35300
C 	C 	0.55059 0.08522 0.50988 0.29600
C 	C 	0.55252 0.97088 0.14905 -0.03400
H 	H 	0.54512 0.66291 0.27853 0.06000
F 	F 	0.56477 0.75452 0.48843 -0.41600
H 	H 	0.54716 0.01850 0.61048 0.10000
C 	C 	0.56242 0.00035 0.98722 0.07100
H 	H 	0.56434 0.96956 0.00691 0.05900
C 	C 	0.54693 0.56651 0.05793 0.78400
H 	H 	0.57271 0.39258 0.76857 0.05200
C 	C 	0.55782 0.17856 0.59534 0.31000
Ni	Ni	0.56573 0.31896 0.55637 1.11800
O 	O 	0.55931 0.25346 0.59414 -0.36300
C 	C 	0.56619 0.50600 0.01208 0.05600
O 	O 	0.58892 0.42412 0.89381 -0.33200
C 	C 	0.59110 0.56698 0.50032 0.05700
C 	C 	0.58636 0.49653 0.48516 0.01900
H 	H 	0.55882 0.44931 0.02370 0.08900
Ni	Ni	0.59126 0.33867 0.92133 1.12800
O 	O 	0.59350 0.26312 0.88922 -0.36000
C 	C 	0.59456 0.42865 0.50103 0.29700
O 	O 	0.56980 0.14626 0.57222 -0.34900
C 	C 	0.57791 0.94399 0.53847 0.77700
F 	F 	0.57348 0.86947 0.55004 -0.40400
C 	C 	0.57009 0.14791 0.62285 -0.06600
C 	C 	0.57462 0.07104 0.62547 -0.01600
C 	C 	0.59327 0.51902 0.98379 0.01600
C 	C 	0.60827 0.59624 0.96928 -0.09900
F 	F 	0.57889 0.65000 0.06834 -0.43700
C 	C 	0.03377 0.94109 0.83490 -0.01700
Ni	Ni	0.59298 0.26297 0.49299 1.14100
C 	C 	0.59140 0.03661 0.10193 0.02400
C 	C 	0.60086 0.13194 0.95925 0.01900
C 	C 	0.59116 0.87358 0.28885 0.00600
F 	F 	0.59382 0.00145 0.56039 -0.45900
C 	C 	0.61335 0.45606 0.97074 0.29000
C 	C 	0.59984 0.80340 0.28006 0.02400
H 	H 	0.61852 0.58153 0.52104 0.08700
C 	C 	0.61315 0.09060 0.98313 -0.09800
C 	C 	0.64194 0.61521 0.93930 0.78200
F 	F 	0.58983 0.52983 0.06951 -0.43300
C 	C 	0.61383 0.49218 0.84809 -0.06700
C 	C 	0.62047 0.22517 0.95941 0.27600
C 	C 	0.62060 0.47214 0.81982 -0.01600
O 	O 	0.62143 0.11517 0.52155 -0.29400
O 	O 	0.62256 0.28404 0.53182 -0.72700
F 	F 	0.66252 0.69863 0.93052 -0.43800
F 	F 	0.63242 0.72878 0.52201 -0.40800
C 	C 	0.63748 0.45504 0.87171 0.32600
O 	O 	0.63280 0.39170 0.48916 -0.28500
C 	C 	0.63321 0.99896 0.15430 -0.01200
F 	F 	0.64941 0.44701 0.43632 -0.42200
C 	C 	0.63315 0.07756 0.64513 0.03300
H 	H 	0.63829 0.96083 0.63449 0.07700
F 	F 	0.64052 0.97829 0.51899 -0.40600
S 	S 	0.63555 0.21876 0.64561 0.04900
C 	C 	0.64677 0.19028 0.86064 -0.06200
C 	C 	0.65470 0.25057 0.88296 0.30000
O 	O 	0.66577 0.44043 0.98389 -0.31400
H 	H 	0.65947 0.44670 0.81341 0.05100
F 	F 	0.66158 0.18863 0.02158 -0.42700
S 	S 	0.66380 0.94679 0.17591 0.05200
S 	S 	0.66444 0.96439 0.27427 0.05200
Ni	Ni	0.66710 0.21854 0.54748 1.13500
H 	H 	0.67201 0.33992 0.52902 0.19200
C 	C 	0.67143 0.05924 0.10656 -0.04300
C 	C 	0.66750 0.82810 0.26229 -0.01300
C 	C 	0.66947 0.02517 0.64354 -0.03300
S 	S 	0.66996 0.11246 0.86771 0.12000
O 	O 	0.67967 0.28302 0.97477 -0.25200
O 	O 	0.67718 0.41075 0.57105 -0.34500
C 	C 	0.67313 0.15920 0.65842 -0.00300
C 	C 	0.68117 0.14033 0.00356 0.78300
C 	C 	0.68051 0.22476 0.83388 -0.01500
H 	H 	0.00517 0.63620 0.90368 0.06100
H 	H 	0.68626 0.28557 0.82616 0.04500
H 	H 	0.68470 0.78265 0.25387 0.05100
O 	O 	0.69082 0.42992 0.86662 -0.39100
C 	C 	0.69179 0.03897 0.13287 0.04100
H 	H 	0.70223 0.46412 0.92824 0.19100
F 	F 	0.69613 0.08446 0.01985 -0.43900
F 	F 	0.71023 0.60767 0.93768 -0.47100
O 	O 	0.70415 0.40961 0.92757 -0.72000
O 	O 	0.70262 0.27878 0.48083 -0.31600
C 	C 	0.71022 0.91822 0.25684 -0.06800
O 	O 	0.71765 0.30771 0.57951 -0.34300
H 	H 	0.71435 0.08223 0.08914 0.10000
O 	O 	0.99773 0.18274 0.24859 -0.34300
C 	C 	0.99046 0.69940 0.09899 -0.03200
C 	C 	0.98544 0.73388 0.12498 0.01200
S 	S 	0.98625 0.82789 0.12799 0.07500
H 	H 	0.97546 0.72090 0.07955 0.07100
O 	O 	0.96149 0.87509 0.24055 -0.36400
C 	C 	0.85869 0.58766 0.92918 0.29800
C 	C 	0.89077 0.42950 0.93535 0.29600
Ni	Ni	0.74815 0.41474 0.96333 1.14400
Ni	Ni	0.77116 0.43039 0.89458 1.12200
O 	O 	0.83242 0.54792 0.95465 -0.29400
O 	O 	0.81769 0.55620 0.90538 -0.34600
O 	O 	0.83136 0.37915 0.95173 -0.28100
O 	O 	0.87687 0.44392 0.90936 -0.36800
O 	O 	0.72702 0.30242 0.89245 -0.37900
C 	C 	0.73212 0.38995 0.57921 0.31200
C 	C 	0.76837 0.31184 0.49691 0.28700
O 	O 	0.76664 0.28059 0.52285 -0.30900
C 	C 	0.98418 0.87549 0.70072 0.31600
C 	C 	0.93245 0.08437 0.69441 0.31300
C 	C 	0.99289 0.15143 0.77088 0.29700
Ni	Ni	0.95569 0.98645 0.74022 1.12100
O 	O 	0.91941 0.00678 0.70233 -0.37700
O 	O 	0.95019 0.87663 0.72480 -0.37500
O 	O 	0.93727 0.07855 0.75894 -0.37100
O 	O 	0.98240 0.95110 0.77784 -0.36700
O 	O 	0.98498 0.15428 0.70769 -0.38000
C 	C 	0.79494 0.96479 0.24798 0.28800
C 	C 	0.81923 0.97946 0.17514 0.30700
Ni	Ni	0.93586 0.11387 0.21309 1.11700
Ni	Ni	0.89552 0.91212 0.21624 1.12200
O 	O 	0.82466 0.04274 0.23514 -0.34800
O 	O 	0.83661 0.92347 0.24994 -0.37800
O 	O 	0.88556 0.05395 0.17540 -0.36900
O 	O 	0.80808 0.91672 0.19292 -0.37000
O 	O 	0.94531 0.90503 0.17974 -0.37600
O 	O 	0.96813 0.03197 0.22163 -0.70700
H 	H 	0.96562 0.03385 0.24243 0.16100
C 	C 	0.75065 0.97296 0.15974 -0.07700
C 	C 	0.75874 0.02616 0.13641 -0.00400
H 	H 	0.81005 0.05301 0.12212 0.06600
C 	C 	0.98694 0.48662 0.48674 0.08600
C 	C 	0.95194 0.37873 0.44978 -0.07700
C 	C 	0.87153 0.33620 0.45976 0.05200
C 	C 	0.84867 0.36769 0.48325 0.03400
C 	C 	0.90618 0.44674 0.49582 -0.10000
C 	C 	0.88435 0.48376 0.52096 0.78400
H 	H 	0.82749 0.27634 0.45006 0.10400
C 	C 	0.97569 0.34102 0.42521 0.79100
F 	F 	0.93799 0.57157 0.52385 -0.43200
F 	F 	0.88683 0.44060 0.54510 -0.45800
F 	F 	0.80878 0.47454 0.51799 -0.46500
F 	F 	0.90953 0.27387 0.41244 -0.43100
C 	C 	0.74998 0.06239 0.65110 0.00800
C 	C 	0.75357 0.19533 0.66619 -0.04400
C 	C 	0.79188 0.14628 0.66199 0.02300
S 	S 	0.79870 0.00907 0.65947 0.07600
C 	C 	0.87740 0.09275 0.67486 -0.07500
C 	C 	0.86420 0.16413 0.67510 -0.00900
H 	H 	0.78592 0.26063 0.67449 0.05200
H 	H 	0.89909 0.22162 0.68765 0.05400
C 	C 	0.88804 0.55011 0.63304 0.00600
C 	C 	0.90329 0.58775 0.65992 -0.04600
C 	C 	0.93260 0.67763 0.66139 0.02100
C 	C 	0.94228 0.72656 0.63670 0.00800
C 	C 	0.91455 0.68653 0.61060 -0.04300
C 	C 	0.88936 0.59764 0.60877 0.04300
S 	S 	0.82627 0.44534 0.62692 0.04900
C 	C 	0.80345 0.45588 0.59352 -0.02100
C 	C 	0.84101 0.54457 0.58663 0.01000
S 	S 	0.94804 0.81963 0.64614 0.05900
C 	C 	0.94122 0.80364 0.68130 -0.07800
C 	C 	0.93273 0.72116 0.68651 -0.01100
H 	H 	0.88863 0.54800 0.67896 0.05200
H 	H 	0.90896 0.72209 0.59277 0.08200
H 	H 	0.82554 0.57006 0.56823 0.10700
H 	H 	0.93057 0.69533 0.70758 0.05100
C 	C 	0.97474 0.47319 0.94590 0.01200
C 	C 	0.99267 0.49664 0.97485 -0.09500
C 	C 	0.93507 0.44363 0.99867 0.78200
F 	F 	0.90489 0.35576 0.99409 -0.39900
F 	F 	0.87298 0.46219 0.00040 -0.47900
F 	F 	0.97307 0.46224 0.02462 -0.44000
F 	F 	0.75100 0.19462 0.98876 -0.39700
C 	C 	0.72582 0.12313 0.83942 0.00000
C 	C 	0.79146 0.10851 0.84027 -0.04000
C 	C 	0.85974 0.16273 0.82402 0.02800
C 	C 	0.86265 0.23100 0.80800 0.00400
C 	C 	0.79537 0.24152 0.80524 -0.05000
C 	C 	0.72832 0.19082 0.82267 0.02600
S 	S 	0.93384 0.25932 0.78355 0.05000
C 	C 	0.96594 0.18986 0.79261 -0.06300
C 	C 	0.91803 0.13971 0.81562 -0.01300
H 	H 	0.78993 0.05762 0.85365 0.07200
H 	H 	0.79753 0.29270 0.79184 0.05100
H 	H 	0.91560 0.07975 0.82246 0.05300
C 	C 	0.99713 0.82192 0.90339 -0.00300
C 	C 	0.99857 0.88346 0.88413 -0.02700
S 	S 	0.92053 0.76313 0.92520 0.12500
C 	C 	0.92976 0.67399 0.92779 -0.06100
C 	C 	0.99552 0.68872 0.91053 0.00300
H 	H 	0.95994 0.91149 0.88728 0.06400
H 	H 	0.99504 0.96969 0.83468 0.05600
