data_crystal

_cell_length_a 26.80702
_cell_length_b 26.78432
_cell_length_c 19.01468
_cell_angle_alpha 90.00235
_cell_angle_beta  90.00092
_cell_angle_gamma 119.99777

_symmetry_space_group_name_	'P 1'
_symmetry_space_group_name_H-M	'P 1'

loop_
_symmetry_equiv_pos_as_xyz
  x,y,z

loop_
_atom_site_label
_atom_site_type_symbol
_atom_site_fract_x
_atom_site_fract_y
_atom_site_fract_z
_atom_site_charge
C 	C 	0.55296 0.40911 0.76920 0.29300
C 	C 	0.76519 0.60771 0.67190 0.30700
C 	C 	0.60269 0.55066 0.81788 0.31000
C 	C 	0.71244 0.47667 0.59450 0.29000
C 	C 	0.61075 0.62124 0.60509 0.30900
C 	C 	0.53516 0.46996 0.53521 0.29200
Ni	Ni	0.66977 0.50682 0.73432 1.11400
Ni	Ni	0.66159 0.55016 0.57680 1.12100
Ni	Ni	0.55547 0.50873 0.68152 1.11900
O 	O 	0.60539 0.42284 0.74882 -0.37400
O 	O 	0.52884 0.44126 0.75313 -0.37200
O 	O 	0.65912 0.62064 0.60407 -0.38500
O 	O 	0.72742 0.59288 0.72189 -0.37700
O 	O 	0.74694 0.59420 0.60657 -0.37200
O 	O 	0.51887 0.45456 0.60115 -0.38900
O 	O 	0.63456 0.52610 0.82235 -0.36400
O 	O 	0.59568 0.56785 0.75679 -0.38900
O 	O 	0.58659 0.51550 0.51922 -0.37700
O 	O 	0.71706 0.48357 0.66474 -0.36400
O 	O 	0.67468 0.48386 0.55751 -0.38100
O 	O 	0.56173 0.57393 0.61986 -0.38400
O 	O 	0.62426 0.50802 0.65999 -0.71300
H 	H 	0.60747 0.46806 0.64294 0.16900
C 	C 	0.41394 0.54421 0.25999 0.29300
C 	C 	0.20086 0.34328 0.17696 0.30700
C 	C 	0.36391 0.40208 0.31793 0.31000
C 	C 	0.24931 0.47352 0.09794 0.30600
C 	C 	0.35126 0.32848 0.10451 0.29400
C 	C 	0.42693 0.47909 0.03207 0.26000
Ni	Ni	0.29618 0.44475 0.23464 1.11400
Ni	Ni	0.30034 0.39999 0.07675 1.11700
Ni	Ni	0.40833 0.44154 0.17884 1.11900
O 	O 	0.36043 0.52936 0.24330 -0.37600
O 	O 	0.43564 0.50933 0.24906 -0.37400
O 	O 	0.30303 0.32940 0.10330 -0.38800
O 	O 	0.24145 0.35794 0.22303 -0.37900
O 	O 	0.21592 0.35644 0.11064 -0.37600
O 	O 	0.44363 0.49509 0.09775 -0.38900
O 	O 	0.33500 0.42969 0.32157 -0.37200
O 	O 	0.37061 0.38408 0.25693 -0.38900
O 	O 	0.37450 0.43441 0.01674 -0.38600
O 	O 	0.24505 0.46442 0.16758 -0.36900
O 	O 	0.28582 0.46576 0.05866 -0.39500
O 	O 	0.40061 0.37580 0.11760 -0.38700
O 	O 	0.33967 0.44271 0.15864 -0.71400
H 	H 	0.35606 0.48225 0.14035 0.17000
C 	C 	0.54063 0.10908 0.10239 0.29200
C 	C 	0.34177 0.12205 0.00671 0.28700
C 	C 	0.40432 0.01854 0.15201 0.28100
C 	C 	0.47155 0.19988 0.92531 0.28700
C 	C 	0.32735 0.95376 0.94285 0.33000
C 	C 	0.47332 0.02462 0.86372 0.27400
Ni	Ni	0.44384 0.12816 0.06611 1.10100
Ni	Ni	0.39740 0.07511 0.90987 1.12100
Ni	Ni	0.44255 0.01223 0.01297 1.09800
O 	O 	0.52777 0.14764 0.07905 -0.38900
O 	O 	0.51321 0.05412 0.07984 -0.38400
O 	O 	0.32770 0.00263 0.94000 -0.39200
O 	O 	0.35762 0.09969 0.05632 -0.38600
O 	O 	0.35420 0.11682 0.94112 -0.35500
O 	O 	0.49253 0.02702 0.92852 -0.37000
O 	O 	0.42626 0.07477 0.15521 -0.36700
O 	O 	0.38622 0.99273 0.09192 -0.37900
O 	O 	0.42971 0.03399 0.84944 -0.37800
O 	O 	0.46578 0.19801 0.99574 -0.34800
O 	O 	0.46294 0.15444 0.88805 -0.37600
O 	O 	0.37523 0.95266 0.95542 -0.36700
O 	O 	0.44180 0.08105 0.99161 -0.69600
H 	H 	0.48132 0.10417 0.97318 0.17400
C 	C 	0.41001 0.82768 0.59845 0.29000
C 	C 	0.61431 0.82415 0.50430 0.30700
C 	C 	0.54827 0.91909 0.65773 0.30800
C 	C 	0.48050 0.74523 0.42289 0.29200
C 	C 	0.62523 0.99154 0.44716 0.32400
C 	C 	0.47605 0.91745 0.37081 0.28900
Ni	Ni	0.51088 0.81368 0.56487 1.11400
Ni	Ni	0.55646 0.87091 0.41129 1.12100
Ni	Ni	0.51067 0.93039 0.51929 1.12000
O 	O 	0.42580 0.79145 0.57432 -0.37800
O 	O 	0.44086 0.88480 0.58637 -0.37000
O 	O 	0.62505 0.94277 0.44487 -0.38700
O 	O 	0.59764 0.84492 0.55496 -0.37600
O 	O 	0.60022 0.82891 0.43924 -0.37300
O 	O 	0.45924 0.91704 0.43656 -0.38400
O 	O 	0.52601 0.86276 0.65663 -0.37200
O 	O 	0.56618 0.94801 0.59916 -0.38200
O 	O 	0.52298 0.91362 0.35607 -0.37500
O 	O 	0.49313 0.74767 0.49138 -0.37000
O 	O 	0.49124 0.79186 0.38637 -0.38200
O 	O 	0.57782 0.99282 0.46303 -0.37800
O 	O 	0.51253 0.86284 0.49363 -0.71500
H 	H 	0.47332 0.84022 0.47428 0.16800
C 	C 	0.11262 0.53498 0.93219 0.27900
C 	C 	0.12633 0.74784 0.84326 0.30800
C 	C 	0.02191 0.58647 0.98574 0.30700
C 	C 	0.20781 0.69672 0.76456 0.29100
C 	C 	0.96123 0.59764 0.77186 0.32100
C 	C 	0.03570 0.52123 0.70014 0.29300
Ni	Ni	0.13218 0.65276 0.90166 1.11500
Ni	Ni	0.08339 0.64797 0.74418 1.11900
Ni	Ni	0.01670 0.54017 0.84698 1.11700
O 	O 	0.15163 0.58796 0.91359 -0.36600
O 	O 	0.05634 0.51228 0.91789 -0.36500
O 	O 	0.01051 0.64578 0.77122 -0.39700
O 	O 	0.09992 0.70717 0.88889 -0.37700
O 	O 	0.12538 0.73276 0.77720 -0.37200
O 	O 	0.03417 0.50413 0.76590 -0.39100
O 	O 	0.07842 0.61648 0.98885 -0.36500
O 	O 	0.99657 0.57776 0.92486 -0.37000
O 	O 	0.04286 0.57347 0.68493 -0.37900
O 	O 	0.20297 0.70240 0.83391 -0.36200
O 	O 	0.16315 0.66200 0.72463 -0.38200
O 	O 	0.95881 0.54813 0.78552 -0.37700
O 	O 	0.08684 0.60854 0.82617 -0.71700
H 	H 	0.11000 0.59200 0.80835 0.17100
C 	C 	0.83929 0.39621 0.43543 0.29200
C 	C 	0.82917 0.18545 0.33969 0.30600
C 	C 	0.93288 0.34775 0.48352 0.30700
C 	C 	0.74805 0.23524 0.26174 0.29000
C 	C 	0.99479 0.34088 0.27077 0.32400
C 	C 	0.91966 0.41487 0.20086 0.30000
Ni	Ni	0.82164 0.27977 0.40103 1.11200
Ni	Ni	0.87243 0.28788 0.24286 1.12000
Ni	Ni	0.93622 0.39454 0.34723 1.12100
O 	O 	0.80089 0.34335 0.41581 -0.37700
O 	O 	0.89549 0.42059 0.41937 -0.37000
O 	O 	0.94650 0.29179 0.26775 -0.38700
O 	O 	0.85235 0.22408 0.38858 -0.37800
O 	O 	0.83272 0.20271 0.27403 -0.37200
O 	O 	0.91722 0.42964 0.26660 -0.38800
O 	O 	0.87651 0.31599 0.48845 -0.36800
O 	O 	0.95670 0.35524 0.42210 -0.38600
O 	O 	0.91049 0.36232 0.18360 -0.37800
O 	O 	0.75097 0.23104 0.33199 -0.36600
O 	O 	0.79245 0.27291 0.22399 -0.38400
O 	O 	0.99474 0.38909 0.28458 -0.38100
O 	O 	0.86730 0.32522 0.32608 -0.71400
H 	H 	0.84343 0.34123 0.30914 0.16900
C 	C 	0.01524 0.47631 0.64413 -0.08500
C 	C 	0.97934 0.41791 0.66270 -0.00500
C 	C 	0.95632 0.37489 0.61102 0.03500
C 	C 	0.96537 0.39033 0.53951 -0.06700
C 	C 	0.00380 0.44804 0.52093 -0.03300
C 	C 	0.03009 0.49064 0.57272 0.04200
S 	S 	0.92102 0.30194 0.63673 -0.02800
S 	S 	0.08503 0.55987 0.54768 -0.04500
H 	H 	0.13709 0.56190 0.55022 0.04100
H 	H 	0.86352 0.28198 0.64685 0.04100
H 	H 	0.96946 0.40581 0.71748 0.04900
H 	H 	0.01326 0.45988 0.46600 0.02300
C 	C 	0.98963 0.55037 0.04732 -0.06700
C 	C 	0.02053 0.55486 0.10885 -0.05800
C 	C 	0.99940 0.50976 0.15731 0.07100
C 	C 	0.94420 0.46102 0.14769 -0.08800
C 	C 	0.91051 0.45912 0.09029 -0.00500
C 	C 	0.93193 0.50444 0.04142 -0.01000
S 	S 	0.04410 0.51358 0.22746 -0.06200
S 	S 	0.88366 0.50721 0.98079 0.02700
H 	H 	0.85916 0.53661 0.01001 0.01100
H 	H 	0.03386 0.53831 0.28463 0.03100
H 	H 	0.06298 0.59198 0.11682 0.05100
H 	H 	0.86682 0.42344 0.08504 0.03200
C 	C 	0.36275 0.80497 0.65042 -0.07300
C 	C 	0.36244 0.76838 0.70371 -0.02200
C 	C 	0.31286 0.73467 0.74344 0.03500
C 	C 	0.26245 0.73679 0.72965 -0.07000
C 	C 	0.26359 0.77600 0.67967 -0.02300
C 	C 	0.31350 0.81023 0.64017 0.03500
S 	S 	0.31373 0.68777 0.80774 -0.02500
S 	S 	0.31311 0.85817 0.57719 -0.03500
H 	H 	0.33165 0.91080 0.60803 0.03900
H 	H 	0.29656 0.63502 0.77800 0.04100
H 	H 	0.40030 0.76439 0.71220 0.04100
H 	H 	0.22522 0.77891 0.67043 0.04300
C 	C 	0.78124 0.12777 0.36020 -0.08300
C 	C 	0.73014 0.10278 0.32076 -0.02300
C 	C 	0.67765 0.06301 0.35155 0.03900
C 	C 	0.67649 0.04361 0.42088 -0.09500
C 	C 	0.72840 0.06451 0.45801 -0.01700
C 	C 	0.78076 0.10509 0.42740 0.03000
S 	S 	0.61380 0.03786 0.30252 -0.04100
S 	S 	0.84562 0.12398 0.47145 -0.02500
H 	H 	0.86451 0.08702 0.45178 0.03900
H 	H 	0.58684 0.06786 0.32122 0.04300
H 	H 	0.73073 0.11609 0.26706 0.05400
H 	H 	0.72834 0.04729 0.50966 0.04500
C 	C 	0.45099 0.93722 0.31453 -0.06400
C 	C 	0.42692 0.97186 0.33255 -0.03000
C 	C 	0.40794 0.99547 0.28016 0.05100
C 	C 	0.41695 0.98829 0.20877 -0.06900
C 	C 	0.43811 0.95133 0.19074 -0.01600
C 	C 	0.45313 0.92425 0.24292 0.03600
S 	S 	0.36830 0.02896 0.30461 -0.05500
S 	S 	0.46914 0.87047 0.21782 -0.03900
H 	H 	0.52705 0.89526 0.20521 0.03900
H 	H 	0.40454 0.08638 0.31741 0.04100
H 	H 	0.42275 0.98034 0.38732 0.05300
H 	H 	0.44225 0.94302 0.13587 0.02500
C 	C 	0.53491 0.94554 0.71807 -0.07300
C 	C 	0.48283 0.91260 0.75385 -0.01300
C 	C 	0.45921 0.93912 0.79410 0.02600
C 	C 	0.49206 0.99864 0.80879 -0.03900
C 	C 	0.54703 0.03118 0.77877 -0.04300
C 	C 	0.56844 0.00514 0.73285 0.03000
S 	S 	0.38723 0.89779 0.82174 -0.00700
S 	S 	0.63890 0.04634 0.69964 -0.03500
H 	H 	0.67682 0.04308 0.74512 0.04200
H 	H 	0.35150 0.89870 0.77086 0.04000
H 	H 	0.45891 0.86643 0.74706 0.05100
H 	H 	0.57342 0.07648 0.79176 0.05200
C 	C 	0.58989 0.12890 0.15098 -0.07400
C 	C 	0.64112 0.13324 0.12634 -0.02500
C 	C 	0.69311 0.16722 0.16211 0.03800
C 	C 	0.69364 0.19603 0.22499 -0.07400
C 	C 	0.64178 0.18810 0.25219 -0.02500
C 	C 	0.59017 0.15506 0.21576 0.03600
S 	S 	0.75670 0.17266 0.12776 -0.06100
S 	S 	0.52626 0.14625 0.25264 -0.04900
H 	H 	0.50952 0.10647 0.30564 0.03700
H 	H 	0.78212 0.21861 0.08263 0.03300
H 	H 	0.64115 0.11277 0.07714 0.04100
H 	H 	0.64165 0.20870 0.30123 0.04700
C 	C 	0.27595 0.90125 0.91771 -0.08600
C 	C 	0.24930 0.90303 0.85473 -0.01300
C 	C 	0.19941 0.85403 0.83056 0.03900
C 	C 	0.17642 0.80212 0.86900 -0.07800
C 	C 	0.20321 0.80086 0.93232 -0.02300
C 	C 	0.25227 0.84993 0.95684 0.07300
S 	S 	0.16477 0.85946 0.75467 -0.02900
S 	S 	0.28235 0.84689 0.03806 -0.07900
H 	H 	0.25932 0.86397 0.09077 0.04800
H 	H 	0.18780 0.84851 0.69638 0.03800
H 	H 	0.26737 0.94267 0.82462 0.04200
H 	H 	0.18619 0.76123 0.96226 0.02300
C 	C 	0.14633 0.33918 0.20172 -0.08400
C 	C 	0.14685 0.36692 0.26503 -0.01900
C 	C 	0.09836 0.36930 0.28690 0.04200
C 	C 	0.04799 0.34328 0.24587 -0.09000
C 	C 	0.04700 0.31527 0.18287 -0.01700
C 	C 	0.09552 0.31252 0.16094 0.04100
S 	S 	0.10105 0.40388 0.36685 -0.04900
S 	S 	0.09073 0.27299 0.08472 -0.04900
H 	H 	0.10631 0.30872 0.02740 0.03100
H 	H 	0.08111 0.36420 0.42022 0.04600
H 	H 	0.18562 0.38791 0.29669 0.01600
H 	H 	0.00809 0.29488 0.15136 0.03500
C 	C 	0.20470 0.48132 0.06181 -0.12500
C 	C 	0.18152 0.45228 0.99801 0.04100
C 	C 	0.14499 0.46438 0.95796 0.00800
C 	C 	0.13065 0.50523 0.98212 -0.01400
C 	C 	0.14760 0.52844 0.04986 -0.08100
C 	C 	0.18549 0.51786 0.08926 0.06600
S 	S 	0.11890 0.42945 0.87670 -0.02700
S 	S 	0.21094 0.55349 0.17038 -0.04400
H 	H 	0.17562 0.51926 0.22322 0.04500
H 	H 	0.06722 0.37997 0.88689 0.04000
H 	H 	0.19307 0.42132 0.97868 0.03700
H 	H 	0.13510 0.55861 0.06947 0.05200
C 	C 	0.44409 0.59309 0.30775 -0.07100
C 	C 	0.42149 0.58814 0.37552 -0.02400
C 	C 	0.43086 0.63715 0.41255 0.03700
C 	C 	0.46696 0.69238 0.38365 -0.07300
C 	C 	0.49423 0.69725 0.31876 -0.02200
C 	C 	0.48299 0.64792 0.28091 0.03600
S 	S 	0.39354 0.62831 0.49203 -0.03600
S 	S 	0.51666 0.65530 0.19906 -0.04500
H 	H 	0.48222 0.65658 0.14667 0.03900
H 	H 	0.42617 0.62704 0.54674 0.03900
H 	H 	0.39251 0.54574 0.39694 0.04800
H 	H 	0.52432 0.73946 0.29783 0.04300
C 	C 	0.35073 0.27618 0.08007 -0.04700
C 	C 	0.32002 0.22522 0.11914 -0.04900
C 	C 	0.30980 0.17238 0.09166 0.05800
C 	C 	0.33244 0.17055 0.02529 -0.14600
C 	C 	0.35807 0.22059 0.98372 0.08500
C 	C 	0.36950 0.27358 0.01162 -0.05700
S 	S 	0.26503 0.10851 0.13831 -0.04000
S 	S 	0.40745 0.33631 0.96020 0.02600
H 	H 	0.36938 0.34438 0.92058 0.03500
H 	H 	0.20901 0.08750 0.11791 0.03500
H 	H 	0.30250 0.22643 0.17011 0.05500
H 	H 	0.37161 0.21889 0.93075 0.02800
C 	C 	0.81986 0.42678 0.48257 -0.06800
C 	C 	0.81043 0.46970 0.45469 -0.02500
C 	C 	0.77689 0.48782 0.49129 0.04000
C 	C 	0.75192 0.46218 0.55689 -0.07300
C 	C 	0.76527 0.42265 0.58701 -0.02100
C 	C 	0.79935 0.40524 0.55072 0.03600
S 	S 	0.76885 0.54415 0.45567 -0.05400
S 	S 	0.81636 0.35689 0.59159 -0.03000
H 	H 	0.77553 0.30152 0.57473 0.03200
H 	H 	0.72098 0.52142 0.41353 0.03700
H 	H 	0.82725 0.48742 0.40313 0.04700
H 	H 	0.74829 0.40455 0.63838 0.05100
C 	C 	0.90977 0.59848 0.74655 -0.07800
C 	C 	0.88941 0.62926 0.78523 -0.01900
C 	C 	0.84742 0.64005 0.75700 0.03400
C 	C 	0.82318 0.61741 0.69050 -0.08200
C 	C 	0.84778 0.59181 0.64922 -0.01800
C 	C 	0.88906 0.58016 0.67768 0.03500
S 	S 	0.82885 0.68555 0.80288 -0.01700
S 	S 	0.91432 0.54255 0.62648 -0.01600
H 	H 	0.96091 0.58092 0.58770 0.04300
H 	H 	0.86452 0.74147 0.78237 0.04500
H 	H 	0.90769 0.64652 0.83646 0.05500
H 	H 	0.83310 0.57872 0.59591 0.05400
C 	C 	0.55938 0.53939 0.87338 -0.08300
C 	C 	0.50199 0.52076 0.85393 -0.01000
C 	C 	0.45880 0.50402 0.90499 0.02900
C 	C 	0.47226 0.50280 0.97658 -0.04500
C 	C 	0.53030 0.52448 0.99606 0.00900
C 	C 	0.57385 0.54442 0.94514 0.03200
S 	S 	0.38987 0.48977 0.87877 -0.02200
S 	S 	0.64634 0.57818 0.97225 -0.01700
H 	H 	0.66728 0.63623 0.97912 0.04600
H 	H 	0.35654 0.43243 0.86271 0.03800
H 	H 	0.49082 0.51912 0.79885 0.01900
H 	H 	0.54167 0.52571 0.05097 0.01800
C 	C 	0.40410 0.40912 0.37572 -0.08500
C 	C 	0.45934 0.41839 0.35926 -0.01600
C 	C 	0.50186 0.43579 0.41130 0.03400
C 	C 	0.48989 0.44593 0.48037 -0.06900
C 	C 	0.43383 0.43366 0.49752 -0.02600
C 	C 	0.39065 0.41370 0.44628 0.04200
S 	S 	0.56861 0.44184 0.38985 -0.04000
S 	S 	0.31938 0.39116 0.47213 -0.03900
H 	H 	0.29188 0.33368 0.48863 0.03900
H 	H 	0.60620 0.49709 0.36858 0.03700
H 	H 	0.46972 0.41337 0.30558 0.02800
H 	H 	0.42380 0.43986 0.55091 0.04500
C 	C 	0.52229 0.35897 0.81629 -0.06900
C 	C 	0.47817 0.30716 0.78863 -0.02500
C 	C 	0.46043 0.25485 0.82372 0.04000
C 	C 	0.48720 0.25436 0.88797 -0.06800
C 	C 	0.52836 0.30667 0.91778 -0.02100
C 	C 	0.54559 0.35873 0.88290 0.03700
S 	S 	0.40405 0.19099 0.78718 -0.05500
S 	S 	0.59580 0.42328 0.92388 -0.02800
H 	H 	0.56815 0.43585 0.97547 0.04700
H 	H 	0.35197 0.18389 0.80802 0.04100
H 	H 	0.45942 0.30713 0.73809 0.04600
H 	H 	0.54759 0.30691 0.96803 0.05600
C 	C 	0.62572 0.77678 0.52169 -0.08300
C 	C 	0.59839 0.72552 0.48233 -0.01800
C 	C 	0.58944 0.67354 0.51118 0.03400
C 	C 	0.61068 0.67296 0.57892 -0.07800
C 	C 	0.64276 0.72509 0.61536 -0.02100
C 	C 	0.65162 0.77700 0.58641 0.03400
S 	S 	0.55251 0.60980 0.46137 -0.02700
S 	S 	0.69793 0.84229 0.62952 -0.01800
H 	H 	0.75305 0.86312 0.60560 0.04300
H 	H 	0.49646 0.57905 0.48355 0.04400
H 	H 	0.58203 0.72557 0.43032 0.05400
H 	H 	0.66235 0.72548 0.66542 0.05200
