data_crystal

_cell_length_a 19.41038
_cell_length_b 18.34339
_cell_length_c 26.39327
_cell_angle_alpha 95.43609
_cell_angle_beta  95.43659
_cell_angle_gamma 126.43055

_symmetry_space_group_name_	'P 1'
_symmetry_space_group_name_H-M	'P 1'

loop_
_symmetry_equiv_pos_as_xyz
  x,y,z

loop_
_atom_site_label
_atom_site_type_symbol
_atom_site_fract_x
_atom_site_fract_y
_atom_site_fract_z
_atom_site_charge
C 	C 	0.00439 0.03656 0.97360 -0.07000
H 	H 	0.04524 0.10827 0.96944 0.05600
C 	C 	0.94827 0.04890 0.46592 0.05300
C 	C 	0.08194 0.06411 0.46940 0.05300
C 	C 	0.03952 0.10468 0.47263 -0.09300
H 	H 	0.07702 0.17910 0.47831 0.06100
Cu	Cu	0.70632 0.28980 0.94477 0.93000
Cu	Cu	0.72078 0.21779 0.05243 0.87400
Cu	Cu	0.58005 0.23439 0.02067 0.89500
Cu	Cu	0.54476 0.29059 0.92369 0.90000
C 	C 	0.62966 0.26959 0.83970 0.30500
C 	C 	0.65733 0.26788 0.13026 0.30900
O 	O 	0.57303 0.21611 0.94712 -0.63500
O 	O 	0.76864 0.23352 0.93909 -0.35700
O 	O 	0.69067 0.13434 0.99163 -0.42900
O 	O 	0.59167 0.30424 0.85826 -0.37600
O 	O 	0.45499 0.16490 0.01513 -0.38900
C 	C 	0.40569 0.17361 0.98220 0.31000
O 	O 	0.44040 0.24193 0.95623 -0.38800
O 	O 	0.68160 0.26097 0.87045 -0.35900
C 	C 	0.74535 0.16117 0.95962 0.30000
O 	O 	0.58581 0.23032 0.09540 -0.38500
O 	O 	0.72474 0.27453 0.11792 -0.40600
H 	H 	0.53347 0.15065 0.92939 0.17100
Cu	Cu	0.73840 0.34960 0.45445 0.92500
Cu	Cu	0.76322 0.29404 0.56594 0.89100
Cu	Cu	0.61899 0.32984 0.52908 0.91000
C 	C 	0.67305 0.33899 0.34901 0.30900
C 	C 	0.64573 0.28715 0.62501 0.31000
O 	O 	0.60900 0.30086 0.45512 -0.63300
O 	O 	0.76917 0.26183 0.44838 -0.36100
O 	O 	0.84989 0.31435 0.52965 -0.41100
O 	O 	0.50422 0.29922 0.52646 -0.37200
C 	C 	0.45540 0.28787 0.48357 0.29500
O 	O 	0.49055 0.34517 0.45099 -0.39100
O 	O 	0.71456 0.31877 0.38003 -0.34800
C 	C 	0.82563 0.26611 0.48298 0.29600
O 	O 	0.62911 0.33790 0.60339 -0.37100
O 	O 	0.66074 0.23692 0.59676 -0.42000
H 	H 	0.56183 0.23546 0.43922 0.16700
C 	C 	0.56054 0.22693 0.69486 -0.03000
C 	C 	0.64173 0.28137 0.67980 -0.09700
C 	C 	0.63289 0.26430 0.78412 -0.08200
C 	C 	0.55572 0.21748 0.74669 0.12100
Br	Br	0.44332 0.13743 0.76525 -0.26500
H 	H 	0.50110 0.19105 0.66619 0.06200
C 	C 	0.66783 0.32016 0.29291 -0.08600
C 	C 	0.61177 0.22927 0.26448 0.12000
C 	C 	0.60585 0.21306 0.21078 -0.03500
C 	C 	0.65588 0.28687 0.18521 -0.09000
H 	H 	0.56363 0.14290 0.18907 0.05900
Br	Br	0.54161 0.12665 0.29811 -0.25900
C 	C 	0.85783 0.08614 0.50385 -0.08200
C 	C 	0.90314 0.09154 0.46429 -0.02100
C 	C 	0.91164 0.14454 0.42618 0.07000
C 	C 	0.88479 0.20059 0.43237 -0.02300
C 	C 	0.84364 0.19881 0.47359 -0.10500
C 	C 	0.82403 0.13568 0.50723 0.11700
N 	N 	0.77020 0.11976 0.54126 -0.19900
H 	H 	0.84842 0.04291 0.53192 0.05400
H 	H 	0.89604 0.24562 0.40510 0.04900
N 	N 	0.94352 0.14025 0.38321 -0.19300
H 	H 	0.76060 0.07774 0.56820 0.08400
H 	H 	0.73242 0.14292 0.53870 0.04300
H 	H 	0.95378 0.09108 0.37437 0.08500
H 	H 	0.95376 0.18298 0.35661 0.08600
C 	C 	0.30868 0.23636 0.44184 -0.02700
C 	C 	0.35901 0.22625 0.47821 -0.10600
C 	C 	0.31638 0.15796 0.50916 0.12700
C 	C 	0.22801 0.11430 0.50991 -0.08600
C 	C 	0.17736 0.12185 0.47239 -0.01900
C 	C 	0.21766 0.17983 0.43612 0.06800
N 	N 	0.16944 0.17851 0.39459 -0.19400
H 	H 	0.33987 0.28556 0.41641 0.04800
H 	H 	0.19694 0.06810 0.53687 0.05700
N 	N 	0.35704 0.12765 0.53383 -0.19800
H 	H 	0.10244 0.12630 0.38382 0.08400
H 	H 	0.19990 0.22609 0.37017 0.08300
H 	H 	0.40985 0.13493 0.52122 0.08600
H 	H 	0.32911 0.08578 0.56124 0.09200
C 	C 	0.89943 0.10871 0.00538 -0.10000
C 	C 	0.87609 0.03836 0.96487 -0.00000
C 	C 	0.81680 0.01607 0.91949 0.06800
C 	C 	0.77681 0.05964 0.91751 -0.02400
C 	C 	0.79824 0.12787 0.95883 -0.09700
C 	C 	0.86310 0.15565 0.00211 0.10100
N 	N 	0.89142 0.22789 0.04030 -0.20400
H 	H 	0.94654 0.12744 0.03948 0.05200
H 	H 	0.72834 0.03971 0.88394 0.04600
H 	H 	0.93660 0.24550 0.07318 0.07700
H 	H 	0.87207 0.26976 0.03671 0.04200
C 	C 	0.28427 0.12258 0.02944 -0.03300
C 	C 	0.31173 0.11885 0.98262 -0.09500
C 	C 	0.24988 0.07200 0.93571 0.12400
C 	C 	0.16266 0.03493 0.93616 -0.08700
C 	C 	0.13544 0.04001 0.98280 0.00300
C 	C 	0.19660 0.08385 0.03002 0.05400
N 	N 	0.17188 0.08991 0.07584 -0.19200
H 	H 	0.33175 0.15836 0.06535 0.05100
N 	N 	0.27338 0.06029 0.89045 -0.20100
H 	H 	0.21737 0.12156 0.11054 0.08500
H 	H 	0.10783 0.06436 0.07752 0.08300
H 	H 	0.33553 0.07888 0.88958 0.08700
H 	H 	0.22805 0.02862 0.85568 0.09400
O 	O 	0.70741 0.30040 0.02053 -0.64400
O 	O 	0.73965 0.36759 0.53015 -0.62600
C 	C 	0.71403 0.31668 0.76866 -0.03900
C 	C 	0.71874 0.32542 0.71680 0.12500
H 	H 	0.77361 0.35334 0.79728 0.07100
H 	H 	0.74448 0.36436 0.04050 0.18100
Cu	Cu	0.60051 0.38718 0.42768 0.90000
C 	C 	0.71068 0.37783 0.21351 0.12400
O 	O 	0.65655 0.39554 0.36700 -0.38600
C 	C 	0.71641 0.39409 0.26713 -0.03600
Br	Br	0.83110 0.40047 0.69751 -0.30300
O 	O 	0.64897 0.40872 0.98117 -0.38100
H 	H 	0.11521 0.99958 0.90023 0.05400
C 	C 	0.04168 0.99164 0.98211 0.02500
C 	C 	0.91434 0.98896 0.97061 0.03300
C 	C 	0.86166 0.89579 0.97570 -0.07700
C 	C 	0.89896 0.85046 0.98312 0.03600
C 	C 	0.98902 0.89897 0.98709 -0.06700
H 	H 	0.79198 0.85846 0.97298 0.05500
H 	H 	0.01773 0.86378 0.99245 0.05500
C 	C 	0.90043 0.95294 0.46194 -0.09500
C 	C 	0.94370 0.91304 0.46223 0.05400
C 	C 	0.03372 0.96828 0.46404 -0.09800
H 	H 	0.83026 0.90980 0.45898 0.05700
H 	H 	0.06652 0.93682 0.46236 0.05800
O 	O 	0.76083 0.42564 0.94862 -0.35900
C 	C 	0.72646 0.46222 0.96943 0.29300
O 	O 	0.81030 0.48861 0.45720 -0.35700
C 	C 	0.78604 0.53665 0.47784 0.28900
O 	O 	0.70729 0.49337 0.48820 -0.39500
H 	H 	0.78342 0.43306 0.54713 0.16400
Br	Br	0.77688 0.48078 0.17937 -0.26600
H 	H 	0.75881 0.46428 0.28883 0.06400
C 	C 	0.85233 0.66267 0.42781 -0.02900
C 	C 	0.83635 0.63541 0.47590 -0.10700
C 	C 	0.85328 0.69928 0.51915 0.12200
C 	C 	0.88117 0.78752 0.51275 -0.08600
C 	C 	0.89633 0.81447 0.46457 -0.02200
C 	C 	0.88046 0.75100 0.42143 0.07000
N 	N 	0.89041 0.77382 0.37367 -0.19400
H 	H 	0.83835 0.61331 0.39453 0.05100
H 	H 	0.89500 0.83688 0.54596 0.05500
N 	N 	0.84520 0.67714 0.56711 -0.20200
H 	H 	0.88084 0.72750 0.34229 0.09000
H 	H 	0.90502 0.83635 0.36686 0.08800
H 	H 	0.83266 0.61553 0.57403 0.09000
H 	H 	0.85494 0.72345 0.59857 0.08800
C 	C 	0.79944 0.61815 0.02138 -0.03900
C 	C 	0.76883 0.56138 0.97250 -0.09300
C 	C 	0.77269 0.59853 0.92713 0.12400
C 	C 	0.80844 0.69201 0.93182 -0.09000
C 	C 	0.84303 0.74971 0.98056 -0.00300
C 	C 	0.83640 0.71212 0.02589 0.05800
N 	N 	0.86468 0.76556 0.07371 -0.19300
H 	H 	0.79436 0.58913 0.05604 0.05100
H 	H 	0.81314 0.72104 0.89720 0.05600
N 	N 	0.74280 0.54529 0.87907 -0.20500
H 	H 	0.86164 0.73793 0.10703 0.09000
H 	H 	0.88770 0.83415 0.07829 0.08400
H 	H 	0.71942 0.47676 0.87379 0.10600
H 	H 	0.74440 0.57313 0.84603 0.09300
N 	N 	0.79911 0.95436 0.87759 -0.19400
H 	H 	0.83295 0.92663 0.87606 0.08800
H 	H 	0.75315 0.93611 0.84502 0.08600
