data_crystal

_cell_length_a 18.68465
_cell_length_b 18.78103
_cell_length_c 69.76439
_cell_angle_alpha 90.07095
_cell_angle_beta  89.96891
_cell_angle_gamma 119.76500

_symmetry_space_group_name_	'P 1'
_symmetry_space_group_name_H-M	'P 1'

loop_
_symmetry_equiv_pos_as_xyz
  x,y,z

loop_
_atom_site_label
_atom_site_type_symbol
_atom_site_fract_x
_atom_site_fract_y
_atom_site_fract_z
_atom_site_charge
O 	O 	0.01104 0.01081 0.74328 -0.70700
O 	O 	0.00625 0.01569 0.23720 -0.70400
H 	H 	0.01290 0.02103 0.25122 0.16800
H 	H 	0.00634 0.92767 0.98570 0.16000
H 	H 	0.00755 0.78561 0.79345 0.06000
C 	C 	0.02067 0.59476 0.49245 -0.08000
O 	O 	0.03979 0.88036 0.76095 -0.36700
O 	O 	0.04165 0.12832 0.77386 -0.34400
O 	O 	0.03003 0.90688 0.25790 -0.38400
C 	C 	0.01578 0.17049 0.94529 -0.09100
H 	H 	0.03501 0.71294 0.82573 0.07300
C 	C 	0.03841 0.54820 0.33646 0.03300
H 	H 	0.04698 0.65696 0.49777 0.06900
H 	H 	0.00018 0.00689 0.72939 0.16600
O 	O 	0.05203 0.17605 0.73235 -0.35400
Ni	Ni	0.05082 0.12774 0.23120 1.11900
O 	O 	0.04129 0.96313 0.02606 -0.41100
O 	O 	0.04786 0.11052 0.01165 -0.37900
C 	C 	0.04421 0.53372 0.65084 -0.07900
C 	C 	0.02895 0.49529 0.47162 0.12300
C 	C 	0.05414 0.90967 0.71612 0.30600
C 	C 	0.05458 0.23699 0.93783 0.05000
C 	C 	0.06634 0.83294 0.79894 -0.05700
C 	C 	0.06175 0.57400 0.47858 0.01100
Ni	Ni	0.06850 0.96479 0.23156 1.09400
C 	C 	0.07683 0.96528 0.95398 0.26200
Ni	Ni	0.06522 0.06558 0.98668 1.12700
C 	C 	0.07997 0.77583 0.82919 -0.08500
H 	H 	0.09266 0.22872 0.84145 0.07800
C 	C 	0.07028 0.87842 0.69882 -0.08000
O 	O 	0.05903 0.49042 0.45374 -0.18400
C 	C 	0.09668 0.93418 0.77252 0.24600
C 	C 	0.09163 0.84074 0.81722 0.01200
C 	C 	0.09104 0.85293 0.68527 0.04100
O 	O 	0.09632 0.01108 0.20393 -0.33600
C 	C 	0.10325 0.58441 0.34995 0.03900
C 	C 	0.10859 0.17804 0.72023 0.30900
O 	O 	0.10014 0.04090 0.96045 -0.33400
C 	C 	0.10551 0.31776 0.93097 0.04000
C 	C 	0.11686 0.00017 0.01834 0.35800
C 	C 	0.11811 0.90712 0.79029 0.05400
C 	C 	0.11066 0.57419 0.45032 0.04600
C 	C 	0.11305 0.62430 0.46508 -0.05200
C 	C 	0.12186 0.15994 0.77340 0.27600
O 	O 	0.11864 0.96027 0.72682 -0.38500
C 	C 	0.12536 0.55980 0.65811 0.31700
Ni	Ni	0.12715 0.05554 0.74253 1.12900
O 	O 	0.12589 0.11783 0.71915 -0.37200
C 	C 	0.12498 0.82375 0.67130 0.04400
O 	O 	0.13099 0.15124 0.25295 -0.37500
O 	O 	0.13039 0.02362 0.00030 -0.38600
O 	O 	0.13334 0.17960 0.80848 -0.17300
C 	C 	0.13285 0.79420 0.84500 0.11900
H 	H 	0.13461 0.35809 0.86488 0.06500
C 	C 	0.13782 0.09004 0.20058 0.27700
C 	C 	0.13661 0.94223 0.94862 -0.07900
H 	H 	0.13739 0.68994 0.46422 0.05900
C 	C 	0.14154 0.27561 0.83283 -0.08300
O 	O 	0.14262 0.01081 0.76725 -0.33200
O 	O 	0.14241 0.73450 0.85451 -0.18400
O 	O 	0.14524 0.14263 0.21396 -0.37200
C 	C 	0.15149 0.60901 0.36311 -0.08000
C 	C 	0.15215 0.38707 0.92578 -0.07900
O 	O 	0.99825 0.91038 0.95139 -0.36300
O 	O 	0.99386 0.10629 0.97511 -0.38100
H 	H 	0.99321 0.22809 0.18623 0.06100
C 	C 	0.82359 0.43344 0.59683 0.29900
C 	C 	0.61253 0.16410 0.54330 0.27600
C 	C 	0.82858 0.41680 0.54009 0.27400
C 	C 	0.60697 0.16010 0.59249 0.31800
C 	C 	0.59518 0.38767 0.53527 0.27900
C 	C 	0.55639 0.39932 0.58564 0.30900
Ni	Ni	0.74593 0.28616 0.56964 1.11500
Ni	Ni	0.56253 0.26467 0.56587 1.12200
Ni	Ni	0.72009 0.44464 0.56592 1.12100
O 	O 	0.83763 0.38666 0.58483 -0.36000
O 	O 	0.78174 0.47010 0.59127 -0.36500
O 	O 	0.54169 0.33638 0.54776 -0.36400
O 	O 	0.67265 0.17645 0.55499 -0.35200
O 	O 	0.58519 0.21606 0.54239 -0.37400
O 	O 	0.62639 0.45673 0.57763 -0.37300
O 	O 	0.79734 0.33836 0.54343 -0.36000
O 	O 	0.82727 0.46526 0.55347 -0.35600
O 	O 	0.53737 0.32138 0.58705 -0.37600
O 	O 	0.68484 0.21891 0.59359 -0.37300
O 	O 	0.54939 0.17000 0.58335 -0.36700
O 	O 	0.67445 0.42871 0.53921 -0.38000
O 	O 	0.67578 0.33122 0.57163 -0.71900
H 	H 	0.67102 0.33318 0.58568 0.16300
C 	C 	0.46597 0.86940 0.39482 0.33300
C 	C 	0.17431 0.60293 0.43545 0.27700
C 	C 	0.41018 0.79903 0.44550 0.27600
C 	C 	0.20169 0.63214 0.38008 0.29900
C 	C 	0.40350 0.57498 0.43650 0.27800
C 	C 	0.41525 0.57764 0.38798 0.30700
Ni	Ni	0.29396 0.74781 0.41224 1.11400
Ni	Ni	0.27607 0.56688 0.40903 1.12100
Ni	Ni	0.45564 0.72419 0.41400 1.12100
O 	O 	0.39561 0.85772 0.40251 -0.37200
O 	O 	0.48422 0.80976 0.39333 -0.38400
O 	O 	0.34141 0.52850 0.42503 -0.37200
O 	O 	0.18066 0.65810 0.42301 -0.36000
O 	O 	0.21983 0.56806 0.43379 -0.36000
O 	O 	0.47304 0.64767 0.39597 -0.37200
O 	O 	0.33431 0.77623 0.44036 -0.35500
O 	O 	0.46632 0.81252 0.43248 -0.37600
O 	O 	0.33752 0.55967 0.38633 -0.38400
O 	O 	0.23958 0.71042 0.38538 -0.36400
O 	O 	0.18811 0.57325 0.39263 -0.36500
O 	O 	0.43427 0.65447 0.43722 -0.37800
O 	O 	0.34369 0.68308 0.40765 -0.71800
H 	H 	0.35115 0.68993 0.39365 0.15900
C 	C 	0.21834 0.77282 0.65528 0.31000
C 	C 	0.32537 0.54241 0.62295 0.33300
C 	C 	0.42765 0.77347 0.61966 0.28900
C 	C 	0.31561 0.55188 0.68411 0.32400
C 	C 	0.46721 0.77663 0.68443 0.31300
Ni	Ni	0.25519 0.65381 0.63101 1.11400
Ni	Ni	0.41278 0.66168 0.65261 1.12000
Ni	Ni	0.28095 0.68551 0.67775 1.12400
O 	O 	0.19716 0.72132 0.64034 -0.35900
O 	O 	0.27690 0.78273 0.66723 -0.38200
O 	O 	0.39098 0.59848 0.67744 -0.38200
O 	O 	0.29414 0.58408 0.61495 -0.36200
O 	O 	0.34099 0.55039 0.64111 -0.39100
O 	O 	0.39273 0.75930 0.69078 -0.36600
O 	O 	0.17532 0.55226 0.64648 -0.37700
O 	O 	0.15631 0.61673 0.67159 -0.36200
O 	O 	0.48076 0.76716 0.66637 -0.39200
O 	O 	0.34934 0.75125 0.61670 -0.36200
O 	O 	0.44990 0.72049 0.62639 -0.36500
O 	O 	0.27110 0.58446 0.68949 -0.37900
O 	O 	0.32473 0.68412 0.65290 -0.70700
H 	H 	0.35698 0.74379 0.65105 0.16000
C 	C 	0.87419 0.94649 0.77967 0.24500
C 	C 	0.82926 0.93806 0.72881 0.27400
Ni	Ni	0.96766 0.07853 0.74993 1.11300
Ni	Ni	0.95048 0.89772 0.74938 1.11200
O 	O 	0.87211 0.00135 0.76834 -0.31600
O 	O 	0.92597 0.91983 0.77634 -0.38000
O 	O 	0.15929 0.16022 0.75745 -0.36900
O 	O 	0.97820 0.87077 0.72335 -0.38600
O 	O 	0.88128 0.01838 0.72851 -0.34300
O 	O 	0.84113 0.88699 0.73997 -0.36800
C 	C 	0.47206 0.70983 0.93120 0.29700
C 	C 	0.25341 0.52251 0.86844 0.27900
C 	C 	0.49126 0.73216 0.87548 0.27600
C 	C 	0.21051 0.46853 0.91942 0.30700
C 	C 	0.25972 0.75158 0.87509 0.27700
C 	C 	0.25389 0.75627 0.92458 0.30800
Ni	Ni	0.37806 0.58966 0.89998 1.11500
Ni	Ni	0.21366 0.60775 0.89900 1.12300
Ni	Ni	0.39119 0.76832 0.90239 1.12000
O 	O 	0.43616 0.63117 0.92632 -0.35900
O 	O 	0.48293 0.76692 0.91836 -0.36900
O 	O 	0.23137 0.67240 0.87500 -0.37100
O 	O 	0.33249 0.55933 0.87225 -0.35200
O 	O 	0.20025 0.51452 0.88177 -0.37000
O 	O 	0.33240 0.77635 0.92550 -0.38900
O 	O 	0.48889 0.68016 0.88832 -0.34800
O 	O 	0.44407 0.76518 0.87726 -0.37300
O 	O 	0.19649 0.68695 0.91620 -0.37100
O 	O 	0.27930 0.48006 0.91083 -0.36100
O 	O 	0.19046 0.52706 0.92056 -0.37300
O 	O 	0.31996 0.80056 0.88674 -0.37800
O 	O 	0.32657 0.65229 0.90482 -0.71900
H 	H 	0.32119 0.64712 0.91887 0.16200
C 	C 	0.70972 0.46652 0.05266 0.29500
C 	C 	0.53899 0.23174 0.11357 0.26700
C 	C 	0.73318 0.48088 0.10860 0.27800
C 	C 	0.47903 0.20453 0.06153 0.31300
C 	C 	0.75241 0.26561 0.10881 0.27000
C 	C 	0.77792 0.26342 0.05667 0.30600
Ni	Ni	0.59345 0.36380 0.08389 1.11400
Ni	Ni	0.62179 0.20545 0.08002 1.12300
Ni	Ni	0.77817 0.39126 0.08052 1.12000
O 	O 	0.63088 0.42610 0.05792 -0.36100
O 	O 	0.76978 0.48015 0.06506 -0.36500
O 	O 	0.68741 0.20047 0.10207 -0.37400
O 	O 	0.57014 0.31098 0.11089 -0.35300
O 	O 	0.53034 0.18281 0.09911 -0.36800
O 	O 	0.79685 0.34122 0.05704 -0.38200
O 	O 	0.67885 0.47545 0.09600 -0.36600
O 	O 	0.77418 0.44204 0.10589 -0.36000
O 	O 	0.70159 0.20282 0.06038 -0.36100
O 	O 	0.48551 0.26301 0.07331 -0.36700
O 	O 	0.53957 0.18806 0.05914 -0.37200
O 	O 	0.80644 0.32047 0.09697 -0.36100
O 	O 	0.66268 0.32038 0.07793 -0.71600
H 	H 	0.65935 0.31986 0.06384 0.15400
C 	C 	0.18683 0.12711 0.25273 0.30900
C 	C 	0.92283 0.85267 0.20762 0.27400
C 	C 	0.95176 0.87156 0.26336 0.30200
C 	C 	0.90594 0.08227 0.20816 0.28000
C 	C 	0.90719 0.08871 0.25879 0.30800
Ni	Ni	0.88936 0.95195 0.23531 1.10300
O 	O 	0.17827 0.06442 0.24204 -0.35100
O 	O 	0.85660 0.02412 0.22014 -0.34000
O 	O 	0.97649 0.85481 0.22006 -0.36500
O 	O 	0.88972 0.89942 0.20991 -0.36900
O 	O 	0.96975 0.14398 0.24805 -0.36900
O 	O 	0.88453 0.00984 0.25889 -0.36500
O 	O 	0.89251 0.86056 0.25098 -0.37300
O 	O 	0.98423 0.10523 0.20739 -0.37500
C 	C 	0.79304 0.57359 0.32511 0.31000
C 	C 	0.69836 0.23992 0.35720 0.32400
C 	C 	0.89281 0.45616 0.32104 0.31800
C 	C 	0.59392 0.36661 0.36171 0.29900
C 	C 	0.70181 0.25798 0.29605 0.32500
C 	C 	0.54718 0.33014 0.29714 0.31600
Ni	Ni	0.76558 0.42036 0.34907 1.11400
Ni	Ni	0.60663 0.27026 0.32824 1.12200
Ni	Ni	0.73399 0.42475 0.30270 1.12400
O 	O 	0.81913 0.54479 0.33951 -0.35800
O 	O 	0.73447 0.52392 0.31340 -0.38200
O 	O 	0.62687 0.22958 0.30305 -0.37900
O 	O 	0.73086 0.31285 0.36511 -0.35700
O 	O 	0.68109 0.23193 0.33911 -0.38600
O 	O 	0.62096 0.38470 0.29016 -0.36700
O 	O 	0.84518 0.39941 0.33296 -0.37700
O 	O 	0.85925 0.48258 0.30827 -0.36400
O 	O 	0.53609 0.30731 0.31521 -0.38900
O 	O 	0.67223 0.42246 0.36433 -0.36200
O 	O 	0.57185 0.29184 0.35483 -0.36200
O 	O 	0.74593 0.33480 0.29088 -0.38000
O 	O 	0.69339 0.38012 0.32770 -0.70800
H 	H 	0.66039 0.40686 0.32996 0.16100
C 	C 	0.77513 0.88764 0.99211 0.32300
C 	C 	0.97781 0.09789 0.95694 0.32900
C 	C 	0.87190 0.76619 0.99140 0.30800
C 	C 	0.97370 0.09039 0.01810 0.33300
Ni	Ni	0.90551 0.91745 0.96563 1.10800
Ni	Ni	0.92998 0.91920 0.01220 1.11800
O 	O 	0.91676 0.01358 0.02021 -0.35900
O 	O 	0.82549 0.94275 0.98026 -0.39200
O 	O 	0.80574 0.86105 0.00554 -0.37200
O 	O 	0.94535 0.02469 0.94915 -0.34000
O 	O 	0.84886 0.79411 0.97619 -0.35600
O 	O 	0.92799 0.81650 0.00360 -0.38400
O 	O 	0.97563 0.95723 0.98724 -0.72500
C 	C 	0.26558 0.17922 0.26128 -0.07900
C 	C 	0.33277 0.22111 0.26821 0.04300
C 	C 	0.41102 0.26615 0.27678 0.04600
C 	C 	0.47570 0.29934 0.28521 -0.08500
C 	C 	0.92865 0.82312 0.28057 -0.08500
C 	C 	0.90769 0.77791 0.29425 0.03800
C 	C 	0.87761 0.71675 0.30860 0.04100
C 	C 	0.84400 0.65567 0.31829 -0.08500
C 	C 	0.72949 0.20290 0.28992 -0.08000
C 	C 	0.76381 0.16758 0.28388 0.05400
C 	C 	0.81190 0.13608 0.27595 0.04700
C 	C 	0.85566 0.11381 0.26850 -0.07300
C 	C 	0.73127 0.51528 0.03551 -0.07500
C 	C 	0.75282 0.56098 0.02191 0.03900
C 	C 	0.78478 0.62272 0.00769 0.04400
C 	C 	0.81998 0.68405 0.99812 -0.08300
C 	C 	0.18760 0.02898 0.03049 -0.09000
C 	C 	0.25263 0.06160 0.03881 0.05700
C 	C 	0.33176 0.10701 0.04699 0.04300
C 	C 	0.39968 0.15004 0.05349 -0.07900
C 	C 	0.83469 0.24319 0.04772 -0.07400
C 	C 	0.88002 0.22250 0.04043 0.04600
C 	C 	0.92652 0.18990 0.03216 0.05400
C 	C 	0.95613 0.15131 0.02541 -0.08000
C 	C 	0.80057 0.17139 0.18485 0.11800
C 	C 	0.73796 0.16573 0.17278 -0.08100
C 	C 	0.75910 0.22658 0.15873 0.01700
C 	C 	0.84046 0.28263 0.15469 0.12000
C 	C 	0.90355 0.28430 0.16586 -0.08400
C 	C 	0.88123 0.23208 0.18183 0.01600
O 	O 	0.79271 0.10448 0.19524 -0.17400
C 	C 	0.87633 0.13055 0.19770 0.04800
C 	C 	0.92917 0.20611 0.18985 -0.05800
O 	O 	0.85385 0.31216 0.13597 -0.17800
C 	C 	0.77305 0.26754 0.12919 0.05200
C 	C 	0.71636 0.21670 0.14258 -0.05200
H 	H 	0.67633 0.11322 0.17351 0.07700
H 	H 	0.96746 0.32097 0.16156 0.07200
H 	H 	0.65722 0.16360 0.13925 0.06600
C 	C 	0.43047 0.19778 0.15629 0.11800
C 	C 	0.39220 0.23128 0.16750 -0.08400
C 	C 	0.30593 0.18919 0.16846 0.01200
C 	C 	0.25944 0.11300 0.16024 0.12000
C 	C 	0.29751 0.07868 0.14927 -0.08400
C 	C 	0.38384 0.12183 0.14780 0.01600
O 	O 	0.50480 0.24729 0.14711 -0.18300
C 	C 	0.49652 0.19624 0.13169 0.04500
C 	C 	0.42554 0.12061 0.13225 -0.05500
O 	O 	0.18340 0.06523 0.16893 -0.17500
C 	C 	0.18959 0.11955 0.18341 0.04500
C 	C 	0.26221 0.19376 0.18315 -0.05500
H 	H 	0.42826 0.29052 0.17433 0.07100
H 	H 	0.26125 0.01952 0.14242 0.07700
H 	H 	0.39670 0.08280 0.11973 0.06700
H 	H 	0.28901 0.23299 0.19556 0.06200
C 	C 	0.79550 0.58252 0.15324 0.11800
C 	C 	0.85712 0.61933 0.16724 -0.08500
C 	C 	0.88598 0.70199 0.17173 0.01200
C 	C 	0.85110 0.74486 0.16381 0.11600
C 	C 	0.78935 0.70807 0.14983 -0.08600
C 	C 	0.76069 0.62544 0.14525 0.01100
O 	O 	0.78693 0.51749 0.14207 -0.17800
C 	C 	0.74496 0.52648 0.12652 0.04300
C 	C 	0.72906 0.59052 0.12822 -0.05500
O 	O 	0.86063 0.81051 0.17489 -0.18500
C 	C 	0.90366 0.80196 0.19029 0.04200
C 	C 	0.91907 0.73762 0.18858 -0.05600
H 	H 	0.88409 0.58582 0.17377 0.07100
H 	H 	0.76255 0.74168 0.14328 0.06700
H 	H 	0.71889 0.62129 0.11628 0.05800
H 	H 	0.93080 0.70772 0.20047 0.06000
C 	C 	0.52183 0.73569 0.94825 -0.07600
C 	C 	0.56877 0.76113 0.96166 0.03200
C 	C 	0.63170 0.79716 0.97560 0.04600
C 	C 	0.69334 0.83473 0.98507 -0.10300
C 	C 	0.17462 0.90887 0.94375 0.03100
C 	C 	0.20771 0.85937 0.93766 0.04200
C 	C 	0.23007 0.81281 0.93203 -0.08700
C 	C 	0.16034 0.91739 0.81892 0.11800
C 	C 	0.21703 0.93405 0.83378 -0.08500
C 	C 	0.19779 0.87290 0.84759 0.00900
O 	O 	0.18101 0.96351 0.80221 -0.18800
C 	C 	0.21938 0.78498 0.86290 0.04100
C 	C 	0.25296 0.86728 0.85889 -0.05200
H 	H 	0.27558 0.99071 0.83402 0.06600
H 	H 	0.31798 0.91231 0.85974 0.05600
C 	C 	0.22978 0.41887 0.82497 0.12000
C 	C 	0.26631 0.39801 0.81008 -0.08400
C 	C 	0.23897 0.31453 0.80684 0.01500
C 	C 	0.17714 0.25410 0.81785 0.12200
C 	C 	0.16543 0.35845 0.83524 0.01500
O 	O 	0.27006 0.49417 0.83427 -0.18000
C 	C 	0.22312 0.47270 0.85108 0.04600
C 	C 	0.16080 0.39211 0.85176 -0.05200
C 	C 	0.16986 0.20212 0.79041 0.05100
C 	C 	0.23436 0.28180 0.78943 -0.05300
H 	H 	0.31499 0.44510 0.80146 0.07300
H 	H 	0.25447 0.31731 0.77631 0.06300
C 	C 	0.68535 0.84036 0.80444 0.11900
C 	C 	0.61315 0.83103 0.81289 -0.08600
C 	C 	0.58099 0.77827 0.82869 0.01300
C 	C 	0.62538 0.74736 0.83776 0.11800
C 	C 	0.70184 0.76339 0.83031 -0.08600
C 	C 	0.72649 0.80407 0.81259 0.01200
O 	O 	0.73340 0.90464 0.79210 -0.18800
C 	C 	0.80758 0.90378 0.79370 0.04900
C 	C 	0.80406 0.84430 0.80592 -0.06000
O 	O 	0.60363 0.72659 0.85688 -0.18300
C 	C 	0.54340 0.74990 0.85838 0.04400
C 	C 	0.52951 0.78048 0.84172 -0.05100
H 	H 	0.58548 0.86653 0.80795 0.07000
H 	H 	0.74187 0.74803 0.83836 0.07000
H 	H 	0.85667 0.84320 0.81212 0.05800
H 	H 	0.49987 0.81744 0.84079 0.06200
C 	C 	0.53755 0.81620 0.69680 -0.08700
C 	C 	0.60215 0.84737 0.70534 0.04500
C 	C 	0.68098 0.88121 0.71382 0.03300
C 	C 	0.74900 0.90808 0.72055 -0.07300
C 	C 	0.16169 0.25364 0.71050 -0.07600
C 	C 	0.20591 0.31943 0.70320 0.04400
C 	C 	0.25394 0.39914 0.69557 0.05000
C 	C 	0.28805 0.46891 0.68985 -0.08100
C 	C 	0.16301 0.79961 0.66197 -0.08500
C 	C 	0.43832 0.51966 0.38113 -0.08200
C 	C 	0.46073 0.47243 0.37606 0.04500
C 	C 	0.49445 0.42263 0.37067 0.04500
C 	C 	0.53322 0.38934 0.36640 -0.08000
C 	C 	0.97541 0.50999 0.32749 -0.08400
C 	C 	0.66116 0.16706 0.36879 -0.07400
C 	C 	0.62281 0.10058 0.37630 0.02400
C 	C 	0.57205 0.01992 0.38327 0.11700
C 	C 	0.52517 0.95074 0.38852 -0.15500
C 	C 	0.36269 0.50609 0.61149 -0.09700
C 	C 	0.40090 0.47713 0.60410 0.05100
C 	C 	0.45133 0.44611 0.59724 0.03900
C 	C 	0.49784 0.42276 0.59203 -0.07600
C 	C 	0.98289 0.51142 0.64129 0.03200
C 	C 	0.91999 0.48507 0.62732 0.04200
C 	C 	0.87301 0.46208 0.61390 -0.07900
C 	C 	0.58451 0.08016 0.59985 -0.09700
C 	C 	0.56179 0.01102 0.60519 0.09200
C 	C 	0.52741 0.92796 0.61074 -0.00400
C 	C 	0.48831 0.85637 0.61503 -0.06400
C 	C 	0.48109 0.43699 0.50349 0.11900
C 	C 	0.41527 0.42448 0.49156 -0.08200
C 	C 	0.43090 0.48458 0.47768 0.01100
C 	C 	0.50952 0.54601 0.47369 0.12300
C 	C 	0.57652 0.55334 0.48430 -0.08700
C 	C 	0.55910 0.50152 0.50015 0.01300
O 	O 	0.47936 0.37594 0.51505 -0.17900
C 	C 	0.56426 0.41063 0.51835 0.04500
C 	C 	0.61211 0.48354 0.50873 -0.05300
O 	O 	0.51798 0.58198 0.45590 -0.18900
C 	C 	0.43588 0.53723 0.44971 0.04300
C 	C 	0.38451 0.47582 0.46224 -0.04900
H 	H 	0.35570 0.36931 0.49262 0.07400
H 	H 	0.63936 0.59552 0.47999 0.07000
H 	H 	0.67642 0.52689 0.51155 0.06200
H 	H 	0.31780 0.44583 0.46228 0.06300
C 	C 	0.57490 0.02437 0.50581 0.14500
C 	C 	0.58817 0.96962 0.49481 -0.11900
C 	C 	0.51891 0.89811 0.48805 0.01600
C 	C 	0.43957 0.88234 0.49180 0.12400
C 	C 	0.42692 0.93655 0.50322 -0.12200
C 	C 	0.49609 0.00957 0.50906 0.04800
O 	O 	0.63317 0.07983 0.51854 -0.18200
C 	C 	0.58072 0.09552 0.52986 0.05000
C 	C 	0.49935 0.05441 0.52425 -0.06300
O 	O 	0.38234 0.83327 0.47813 -0.18700
C 	C 	0.43510 0.82455 0.46538 0.04600
C 	C 	0.51627 0.86184 0.47128 -0.05700
H 	H 	0.65008 0.98197 0.49168 0.07000
H 	H 	0.36517 0.92493 0.50624 0.07200
H 	H 	0.44743 0.04467 0.53304 0.06500
H 	H 	0.56854 0.88114 0.46176 0.05900
C 	C 	0.95435 0.43244 0.47890 -0.08800
C 	C 	0.91304 0.45291 0.49274 0.01800
C 	C 	0.94678 0.53139 0.50007 0.11300
O 	O 	0.91975 0.53474 0.51850 -0.18500
C 	C 	0.86775 0.45066 0.52147 0.04700
C 	C 	0.86321 0.40170 0.50624 -0.05500
H 	H 	0.92837 0.37020 0.47362 0.07500
H 	H 	0.84462 0.33721 0.50726 0.07000
