data_crystal

_cell_length_a 27.59194
_cell_length_b 28.32513
_cell_length_c 26.47716
_cell_angle_alpha 95.48532
_cell_angle_beta  95.48551
_cell_angle_gamma 125.61549

_symmetry_space_group_name_	'P 1'
_symmetry_space_group_name_H-M	'P 1'

loop_
_symmetry_equiv_pos_as_xyz
  x,y,z

loop_
_atom_site_label
_atom_site_type_symbol
_atom_site_fract_x
_atom_site_fract_y
_atom_site_fract_z
_atom_site_charge
C 	C 	0.05053 0.02126 0.97308 0.05500
C 	C 	0.00053 0.03361 0.44002 -0.08800
H 	H 	0.21494 0.02954 0.45060 0.04600
H 	H 	0.21855 0.02487 0.94395 0.04600
C 	C 	0.96397 0.02100 0.98380 0.05500
C 	C 	0.90763 0.02729 0.43747 -0.02800
C 	C 	0.03085 0.00771 0.44329 0.05300
C 	C 	0.02518 0.05180 0.97944 -0.08800
H 	H 	0.05288 0.09921 0.98098 0.05800
H 	H 	0.02559 0.08021 0.43822 0.05700
Cu	Cu	0.64487 0.24880 0.00497 0.92900
Cu	Cu	0.69381 0.25582 0.89616 0.86900
Cu	Cu	0.67369 0.34123 0.93900 0.89800
Cu	Cu	0.65066 0.36087 0.04346 0.89700
C 	C 	0.66681 0.29296 0.11292 0.28900
O 	O 	0.55777 0.21797 0.00625 -0.35900
C 	C 	0.65990 0.30806 0.82692 0.28400
O 	O 	0.69545 0.34098 0.01001 -0.64100
O 	O 	0.63521 0.25512 0.93167 -0.64100
O 	O 	0.67978 0.20422 0.99898 -0.36700
O 	O 	0.74872 0.26786 0.95380 -0.43900
O 	O 	0.63864 0.31633 0.10076 -0.37700
O 	O 	0.71705 0.42591 0.94834 -0.37900
C 	C 	0.71208 0.45873 0.98315 0.31600
C 	C 	0.53534 0.24414 0.98721 0.30400
O 	O 	0.57170 0.29997 0.98319 -0.39500
O 	O 	0.69174 0.44122 0.02596 -0.39100
O 	O 	0.66745 0.25714 0.07776 -0.35200
C 	C 	0.73104 0.22724 0.98234 0.31200
O 	O 	0.65621 0.33913 0.86491 -0.36900
O 	O 	0.65830 0.26162 0.83357 -0.41100
H 	H 	0.73964 0.36619 0.02381 0.17400
H 	H 	0.59319 0.22955 0.91166 0.18000
Cu	Cu	0.74036 0.34412 0.43963 0.92900
Cu	Cu	0.73468 0.29814 0.54931 0.87000
Cu	Cu	0.64316 0.31234 0.50454 0.89900
Cu	Cu	0.62469 0.33713 0.40042 0.89700
C 	C 	0.69562 0.32242 0.33116 0.28900
O 	O 	0.77254 0.42949 0.43827 -0.35400
C 	C 	0.67783 0.32754 0.61718 0.28300
O 	O 	0.64541 0.29367 0.43360 -0.64000
O 	O 	0.73242 0.35303 0.51267 -0.64100
O 	O 	0.78546 0.30904 0.44584 -0.36800
O 	O 	0.72074 0.24317 0.49227 -0.44000
O 	O 	0.66969 0.34816 0.34262 -0.37800
O 	O 	0.55564 0.26695 0.49371 -0.37700
C 	C 	0.52085 0.26489 0.45434 0.31200
C 	C 	0.74390 0.45051 0.45478 0.30100
O 	O 	0.68739 0.41404 0.46036 -0.39200
O 	O 	0.54370 0.30019 0.42047 -0.39000
O 	O 	0.73274 0.32279 0.36687 -0.35200
C 	C 	0.76134 0.25912 0.46276 0.30900
O 	O 	0.64299 0.32687 0.57863 -0.36800
O 	O 	0.72764 0.33311 0.61079 -0.41200
H 	H 	0.62037 0.25087 0.41896 0.17100
H 	H 	0.75717 0.39408 0.53231 0.18000
C 	C 	0.65606 0.31978 0.77400 -0.06600
C 	C 	0.70428 0.37300 0.76165 -0.00300
C 	C 	0.70845 0.37799 0.70950 0.00200
C 	C 	0.66489 0.32950 0.66993 -0.06600
C 	C 	0.61244 0.27971 0.68226 -0.00300
C 	C 	0.60782 0.27509 0.73441 0.00200
C 	C 	0.75037 0.42185 0.80252 0.07800
C 	C 	0.56425 0.23252 0.64139 0.07800
C 	C 	0.55355 0.22462 0.74738 0.08500
C 	C 	0.75733 0.43285 0.69648 0.08500
N 	N 	0.51025 0.18434 0.75775 -0.11500
N 	N 	0.79633 0.47663 0.68608 -0.11500
N 	N 	0.52581 0.19489 0.60877 -0.11400
N 	N 	0.78711 0.46083 0.83514 -0.11300
C 	C 	0.68273 0.29397 0.16801 -0.06300
C 	C 	0.64121 0.24677 0.19136 0.00500
C 	C 	0.64850 0.25419 0.24566 -0.00200
C 	C 	0.69701 0.30880 0.27638 -0.06200
C 	C 	0.74237 0.35322 0.25314 0.00500
C 	C 	0.73525 0.34571 0.19886 -0.00200
C 	C 	0.59004 0.19142 0.15954 0.09300
C 	C 	0.79529 0.40730 0.28503 0.09200
C 	C 	0.78118 0.39167 0.17469 0.07300
C 	C 	0.60544 0.20623 0.26993 0.07400
N 	N 	0.81780 0.42832 0.15536 -0.11900
N 	N 	0.57111 0.16799 0.28934 -0.11900
N 	N 	0.83749 0.45044 0.31052 -0.10700
N 	N 	0.54921 0.14726 0.13412 -0.10800
C 	C 	0.79070 0.63611 0.41282 -0.02600
C 	C 	0.81065 0.62272 0.45612 -0.00700
C 	C 	0.85090 0.66769 0.49867 -0.02700
C 	C 	0.78886 0.56260 0.45710 0.04900
C 	C 	0.76972 0.51185 0.45665 -0.10300
H 	H 	0.75920 0.60150 0.37993 0.04100
H 	H 	0.86615 0.65763 0.53245 0.04200
C 	C 	0.81732 0.15467 0.43891 -0.01000
C 	C 	0.78796 0.10255 0.45925 -0.02700
C 	C 	0.80893 0.06789 0.45677 -0.04600
C 	C 	0.85933 0.08516 0.43392 0.02100
C 	C 	0.88754 0.13632 0.41218 -0.04600
C 	C 	0.86658 0.17101 0.41468 -0.02700
C 	C 	0.79915 0.19307 0.44583 0.05000
C 	C 	0.78253 0.22393 0.45247 -0.11400
H 	H 	0.74972 0.08953 0.47790 0.03800
H 	H 	0.92647 0.14992 0.39437 0.04500
H 	H 	0.88941 0.21110 0.39873 0.04300
C 	C 	0.33872 0.16941 0.45094 -0.00700
C 	C 	0.31067 0.19766 0.44857 -0.02600
C 	C 	0.24814 0.16535 0.44690 -0.04500
C 	C 	0.21345 0.10468 0.44760 0.02200
C 	C 	0.24151 0.07644 0.45002 -0.04500
C 	C 	0.30403 0.10875 0.45169 -0.02600
C 	C 	0.14914 0.07137 0.44599 -0.00900
C 	C 	0.09523 0.04279 0.44467 -0.02800
C 	C 	0.40297 0.20260 0.45225 0.05100
C 	C 	0.45681 0.23079 0.45332 -0.10100
H 	H 	0.33723 0.24456 0.44796 0.04200
H 	H 	0.22673 0.18745 0.44506 0.04500
H 	H 	0.32543 0.08663 0.45350 0.04300
C 	C 	0.79130 0.63077 0.97215 -0.00500
C 	C 	0.77892 0.66416 0.00311 -0.02900
C 	C 	0.76309 0.56996 0.97579 0.05200
C 	C 	0.73943 0.51903 0.97888 -0.10100
H 	H 	0.74626 0.64371 0.02833 0.04100
C 	C 	0.88703 0.10743 0.99743 0.02400
C 	C 	0.90597 0.15513 0.97220 -0.04700
C 	C 	0.87584 0.18122 0.97252 -0.02700
C 	C 	0.82661 0.15969 0.99807 -0.00900
C 	C 	0.80884 0.11318 0.02468 -0.02800
C 	C 	0.83902 0.08707 0.02437 -0.04800
C 	C 	0.79192 0.18265 0.99387 0.05100
C 	C 	0.76386 0.20286 0.98958 -0.11600
H 	H 	0.94318 0.17121 0.95144 0.04400
H 	H 	0.88991 0.21728 0.95198 0.03700
H 	H 	0.77093 0.09643 0.04466 0.04300
H 	H 	0.82428 0.05033 0.04414 0.04500
C 	C 	0.22913 0.10659 0.96393 0.02200
C 	C 	0.27009 0.16841 0.97489 -0.04500
C 	C 	0.33197 0.19620 0.97612 -0.02600
C 	C 	0.35310 0.16224 0.96643 -0.00800
C 	C 	0.31189 0.10048 0.95389 -0.02600
C 	C 	0.25002 0.07271 0.95265 -0.04500
C 	C 	0.41727 0.19049 0.97309 0.05100
C 	C 	0.47111 0.21467 0.97879 -0.10500
C 	C 	0.16636 0.07778 0.96718 -0.00900
C 	C 	0.11359 0.05269 0.96967 -0.02800
H 	H 	0.25421 0.19489 0.98345 0.04500
H 	H 	0.36358 0.24399 0.98571 0.04100
H 	H 	0.32789 0.07396 0.94625 0.04300
C 	C 	0.88499 0.05308 0.43620 -0.01000
H 	H 	0.78682 0.02840 0.47359 0.04400
H 	H 	0.84315 0.63190 0.91541 0.04600
C 	C 	0.91434 0.07713 0.99297 -0.01000
C 	C 	0.93737 0.05190 0.98912 -0.02800
C 	C 	0.83347 0.65750 0.93953 -0.02600
C 	C 	0.81185 0.69440 0.41165 -0.04500
H 	H 	0.79712 0.70454 0.37763 0.04500
C 	C 	0.86421 0.71771 0.93880 -0.04500
C 	C 	0.01472 0.96007 0.97103 -0.08900
H 	H 	0.03441 0.93647 0.96625 0.05800
C 	C 	0.99870 0.94772 0.44580 -0.08500
H 	H 	0.85717 0.91284 0.44177 0.05700
H 	H 	0.02233 0.92776 0.44833 0.05700
C 	C 	0.85302 0.73958 0.45379 0.02200
C 	C 	0.87206 0.72600 0.49751 -0.04500
H 	H 	0.90408 0.76071 0.53016 0.04600
C 	C 	0.80967 0.72439 0.00237 -0.04700
H 	H 	0.80059 0.75016 0.02700 0.04500
C 	C 	0.95365 0.92935 0.97546 0.05600
C 	C 	0.92826 0.95978 0.98184 -0.08800
H 	H 	0.88089 0.93593 0.98518 0.05800
C 	C 	0.93794 0.99957 0.43947 0.05400
C 	C 	0.90558 0.93927 0.44205 -0.08700
C 	C 	0.93616 0.91340 0.44521 0.05300
C 	C 	0.88043 0.80043 0.45013 -0.01000
C 	C 	0.90397 0.85165 0.44789 -0.02800
C 	C 	0.85289 0.75141 0.97066 0.02400
C 	C 	0.88773 0.81413 0.97264 -0.00900
C 	C 	0.91728 0.86662 0.97389 -0.02800
H 	H 	0.89749 0.73833 0.91412 0.04600
