data_crystal

_cell_length_a 26.16012
_cell_length_b 26.40892
_cell_length_c 26.09507
_cell_angle_alpha 95.48158
_cell_angle_beta  95.48344
_cell_angle_gamma 125.76810

_symmetry_space_group_name_	'P 1'
_symmetry_space_group_name_H-M	'P 1'

loop_
_symmetry_equiv_pos_as_xyz
  x,y,z

loop_
_atom_site_label
_atom_site_type_symbol
_atom_site_fract_x
_atom_site_fract_y
_atom_site_fract_z
_atom_site_charge
C 	C 	0.94648 0.00791 0.45870 0.13300
C 	C 	0.03887 0.01496 0.44918 0.15300
C 	C 	0.85688 0.01388 0.42987 -0.04800
C 	C 	0.12557 0.04264 0.39983 -0.02700
C 	C 	0.86548 0.01226 0.95957 -0.04600
C 	C 	0.96491 0.02227 0.98823 0.13100
C 	C 	0.05923 0.03213 0.98074 0.15000
N 	N 	0.00926 0.04303 0.45431 -0.10800
C 	C 	0.82928 0.04617 0.43076 0.08600
C 	C 	0.91446 0.03870 0.46402 -0.01100
C 	C 	0.10714 0.05311 0.44602 -0.02300
C 	C 	0.82957 0.03594 0.95932 0.07500
C 	C 	0.14690 0.04369 0.93885 0.09500
O 	O 	0.30623 0.03028 0.02370 -0.06300
N 	N 	0.76972 0.01935 0.39654 -0.02100
N 	N 	0.20858 0.06590 0.34902 -0.01900
H 	H 	0.22836 0.05323 0.91510 0.09300
N 	N 	0.02661 0.05752 0.98068 -0.11100
O 	O 	0.10363 0.06004 0.56178 -0.05100
C 	C 	0.92878 0.04914 0.98750 -0.00700
O 	O 	0.77359 0.05359 0.54589 -0.06500
H 	H 	0.08936 0.00781 0.36637 0.08200
O 	O 	0.18821 0.00870 0.32912 -0.06300
C 	C 	0.19055 0.07712 0.39651 0.08000
H 	H 	0.30430 0.07407 0.44313 0.09900
O 	O 	0.79028 0.06440 0.07896 -0.06400
C 	C 	0.12634 0.07022 0.97313 -0.01100
C 	C 	0.21257 0.07459 0.94032 -0.05000
O 	O 	0.99733 0.08315 0.57061 -0.06000
C 	C 	0.94383 0.09578 0.50030 0.09900
O 	O 	0.41822 0.08912 0.47991 -0.05900
N 	N 	0.31221 0.08278 0.03473 -0.01700
O 	O 	0.28538 0.08955 0.07158 -0.06000
O 	O 	0.76431 0.00525 0.34623 -0.06900
C 	C 	0.86026 0.10465 0.46544 0.01600
C 	C 	0.15427 0.09835 0.48953 0.10900
N 	N 	0.80661 0.11516 0.55405 -0.01700
N 	N 	0.13645 0.10752 0.53785 -0.02100
C 	C 	0.85773 0.09801 0.98601 0.02300
O 	O 	0.24184 0.11202 0.32392 -0.05700
N 	N 	0.99932 0.11898 0.53870 -0.02800
O 	O 	0.45566 0.12099 0.40628 -0.05000
C 	C 	0.95627 0.11054 0.01566 0.08500
O 	O 	0.71974 0.00501 0.41591 -0.06000
C 	C 	0.23768 0.12228 0.44002 0.02200
C 	C 	0.33404 0.12428 0.44161 -0.06700
N 	N 	0.42676 0.12249 0.44364 -0.02700
C 	C 	0.91748 0.12915 0.49985 -0.05200
F 	F 	0.54704 0.12675 0.24019 -0.42100
C 	C 	0.21924 0.13305 0.48610 -0.05500
C 	C 	0.82223 0.12557 0.98248 0.03400
N 	N 	0.81276 0.12254 0.07553 -0.01700
H 	H 	0.82478 0.12949 0.90050 0.09200
O 	O 	0.03024 0.12683 0.08729 -0.06100
C 	C 	0.25794 0.13235 0.97482 0.02200
C 	C 	0.17162 0.13035 0.00475 -0.03400
C 	C 	0.83215 0.13972 0.46704 0.03700
C 	C 	0.35215 0.13465 0.00911 0.06500
C 	C 	0.92101 0.13503 0.01389 -0.05400
O 	O 	0.69483 0.13794 0.85772 -0.11000
C 	C 	0.80058 0.13714 0.02645 0.06600
C 	C 	0.80883 0.13904 0.93449 -0.06600
H 	H 	0.43637 0.14104 0.03588 0.08500
C 	C 	0.80868 0.14652 0.51158 0.06000
O 	O 	0.83437 0.14780 0.60142 -0.07800
N 	N 	0.01903 0.14727 0.04745 -0.01400
C 	C 	0.30645 0.15642 0.43842 0.03600
H 	H 	0.15602 0.15157 0.03038 0.09400
C 	C 	0.39981 0.15658 0.44247 0.13700
C 	C 	0.32672 0.16017 0.98038 0.03800
C 	C 	0.41691 0.16000 0.01263 -0.00400
C 	C 	0.23733 0.16151 0.00585 0.08000
H 	H 	0.84891 0.16316 0.39040 0.09700
C 	C 	0.77306 0.16270 0.92963 0.12500
C 	C 	0.76657 0.16284 0.02205 0.00200
O 	O 	0.15908 0.16451 0.56075 -0.04900
N 	N 	0.76437 0.99674 0.93203 -0.01500
O 	O 	0.71844 0.98283 0.95722 -0.05300
N 	N 	0.03009 0.97156 0.98834 -0.10500
C 	C 	0.96804 0.93575 0.99452 0.14800
N 	N 	0.93545 0.96109 0.99417 -0.11300
N 	N 	0.00560 0.95165 0.44773 -0.11000
C 	C 	0.94298 0.91632 0.45220 0.14700
N 	N 	0.91321 0.94436 0.45749 -0.11400
Cu	Cu	0.63653 0.23527 0.00399 0.93500
Cu	Cu	0.68187 0.24613 0.89049 0.89800
Cu	Cu	0.67512 0.34369 0.94546 0.90800
Cu	Cu	0.65445 0.35888 0.05495 0.91600
C 	C 	0.66573 0.27545 0.11563 0.30700
O 	O 	0.54683 0.20707 0.00929 -0.34600
C 	C 	0.64837 0.31003 0.82888 0.29800
O 	O 	0.69608 0.33511 0.01512 -0.63600
O 	O 	0.62618 0.24950 0.93192 -0.63400
O 	O 	0.66742 0.18281 0.99009 -0.33600
O 	O 	0.73995 0.25245 0.94469 -0.39600
O 	O 	0.63994 0.30536 0.10880 -0.34200
O 	O 	0.72828 0.43536 0.96197 -0.34600
C 	C 	0.72586 0.47001 0.00028 0.31400
C 	C 	0.52648 0.24018 0.99576 0.30400
O 	O 	0.56820 0.30101 0.99522 -0.35900
O 	O 	0.70210 0.44776 0.04221 -0.35100
O 	O 	0.66076 0.23666 0.07623 -0.31800
C 	C 	0.71975 0.20577 0.97052 0.31600
O 	O 	0.66525 0.35218 0.87137 -0.33600
O 	O 	0.64288 0.25752 0.83174 -0.34000
H 	H 	0.74253 0.35839 0.02846 0.21600
H 	H 	0.58147 0.22648 0.91311 0.21600
Cu	Cu	0.74309 0.34226 0.44427 0.93600
Cu	Cu	0.73176 0.29896 0.55859 0.88800
Cu	Cu	0.63412 0.30747 0.50324 0.90900
Cu	Cu	0.62279 0.33357 0.39500 0.92500
C 	C 	0.69930 0.31132 0.33286 0.30300
O 	O 	0.77936 0.43378 0.43956 -0.33600
C 	C 	0.66873 0.33356 0.61973 0.30200
O 	O 	0.64218 0.28807 0.43319 -0.63400
O 	O 	0.72923 0.35398 0.51643 -0.63500
O 	O 	0.78934 0.30421 0.45728 -0.33800
O 	O 	0.71724 0.23677 0.50403 -0.41000
O 	O 	0.67218 0.34020 0.33909 -0.32300
O 	O 	0.54160 0.25682 0.48618 -0.34600
C 	C 	0.50841 0.25779 0.44531 0.31900
C 	C 	0.74754 0.45661 0.45028 0.30500
O 	O 	0.68731 0.41780 0.45473 -0.36000
O 	O 	0.53675 0.29764 0.41294 -0.34600
O 	O 	0.74005 0.31766 0.37173 -0.31300
C 	C 	0.76160 0.25139 0.47608 0.31400
O 	O 	0.62482 0.31391 0.57746 -0.34400
O 	O 	0.72249 0.34073 0.61652 -0.35000
H 	H 	0.61661 0.24207 0.41866 0.22500
H 	H 	0.75342 0.39861 0.53474 0.20900
C 	C 	0.59729 0.28384 0.68354 0.05600
C 	C 	0.65271 0.33752 0.67195 0.00600
C 	C 	0.69709 0.39008 0.71271 -0.08900
C 	C 	0.69244 0.38237 0.76507 0.05500
C 	C 	0.64150 0.32496 0.77669 0.01100
C 	C 	0.58995 0.27824 0.73581 -0.09100
C 	C 	0.52882 0.22058 0.74728 0.78300
H 	H 	0.56169 0.24477 0.65204 0.08500
H 	H 	0.73041 0.41951 0.79658 0.08900
C 	C 	0.75136 0.45306 0.70093 0.78200
F 	F 	0.47745 0.19810 0.70756 -0.42300
F 	F 	0.51475 0.23553 0.79354 -0.43100
F 	F 	0.53574 0.17295 0.75108 -0.43200
F 	F 	0.73208 0.46477 0.65512 -0.43500
F 	F 	0.80290 0.45206 0.69583 -0.43500
F 	F 	0.77093 0.50252 0.74101 -0.42000
C 	C 	0.75077 0.32852 0.25508 0.06200
C 	C 	0.69884 0.28842 0.27907 0.01500
C 	C 	0.64203 0.23300 0.24840 -0.09500
C 	C 	0.63360 0.22564 0.19348 0.06400
C 	C 	0.68256 0.27073 0.16944 0.00800
C 	C 	0.74364 0.31890 0.20013 -0.09400
C 	C 	0.79944 0.36368 0.17448 0.78000
H 	H 	0.79511 0.36972 0.27899 0.09300
H 	H 	0.58750 0.18742 0.16957 0.08800
C 	C 	0.58808 0.18482 0.27395 0.78000
F 	F 	0.85737 0.39478 0.20877 -0.42300
F 	F 	0.79282 0.40844 0.15880 -0.45600
F 	F 	0.80093 0.33024 0.13119 -0.44400
F 	F 	0.55348 0.20663 0.28772 -0.45500
F 	F 	0.61248 0.17537 0.31841 -0.44200
C 	C 	0.85835 0.75732 0.49521 -0.05600
C 	C 	0.85639 0.71997 0.45192 0.02200
C 	C 	0.87869 0.74620 0.40730 0.07800
C 	C 	0.90362 0.80963 0.40679 -0.02900
C 	C 	0.90761 0.84765 0.45070 -0.02300
C 	C 	0.88442 0.82119 0.49505 0.10700
C 	C 	0.82853 0.65263 0.45255 0.03300
N 	N 	0.87671 0.70870 0.36263 -0.01900
H 	H 	0.92165 0.82990 0.37272 0.08100
N 	N 	0.88881 0.85942 0.54050 -0.02200
H 	H 	0.84062 0.73706 0.52935 0.09500
C 	C 	0.86310 0.63602 0.48189 0.07000
C 	C 	0.83662 0.57175 0.48042 0.00500
C 	C 	0.77622 0.52396 0.44964 -0.07800
C 	C 	0.74220 0.54081 0.41976 0.13000
C 	C 	0.76803 0.60485 0.42213 -0.06600
N 	N 	0.92505 0.68423 0.51314 -0.01800
H 	H 	0.86298 0.55909 0.50338 0.07900
N 	N 	0.68249 0.49303 0.38546 -0.02900
H 	H 	0.74166 0.61752 0.39917 0.09400
O 	O 	0.94471 0.90716 0.56706 -0.05500
O 	O 	0.83714 0.84341 0.55771 -0.05900
O 	O 	0.84678 0.70182 0.31677 -0.06800
O 	O 	0.90855 0.68521 0.36713 -0.06000
O 	O 	0.63056 0.48638 0.39289 -0.07800
O 	O 	0.68112 0.46026 0.34413 -0.09000
O 	O 	0.93565 0.68518 0.56307 -0.05700
O 	O 	0.97200 0.72433 0.49110 -0.06200
H 	H 	0.83382 0.96979 0.40222 0.09700
H 	H 	0.94075 0.17349 0.52720 0.08800
C 	C 	0.78692 0.18397 0.51436 0.00400
C 	C 	0.78601 0.21305 0.47227 -0.09000
C 	C 	0.80725 0.20423 0.42681 0.13900
C 	C 	0.83148 0.16881 0.42494 -0.07300
H 	H 	0.77027 0.19007 0.54926 0.05700
N 	N 	0.80152 0.22851 0.38166 -0.02700
O 	O 	0.04971 0.17774 0.54488 -0.04700
O 	O 	0.85266 0.27089 0.36482 -0.05600
O 	O 	0.74511 0.20392 0.35456 -0.03200
H 	H 	0.25550 0.16731 0.51976 0.09600
C 	C 	0.34500 0.22152 0.43588 0.06800
C 	C 	0.41088 0.25401 0.43747 0.00600
C 	C 	0.43867 0.22208 0.44122 -0.07600
N 	N 	0.31746 0.25490 0.43219 -0.01700
H 	H 	0.44058 0.30431 0.43626 0.08200
O 	O 	0.34018 0.30570 0.46651 -0.06400
O 	O 	0.27248 0.23688 0.39272 -0.06000
C 	C 	0.85838 0.77521 0.03297 -0.05700
C 	C 	0.86742 0.73772 0.99904 0.02300
C 	C 	0.91096 0.76574 0.96466 0.08300
C 	C 	0.94371 0.83050 0.96365 -0.03100
C 	C 	0.93484 0.86816 0.99767 -0.01500
C 	C 	0.89291 0.84048 0.03337 0.10000
C 	C 	0.83103 0.66905 0.99961 0.04000
N 	N 	0.92228 0.72859 0.93091 -0.02000
H 	H 	0.97605 0.85152 0.93630 0.09100
N 	N 	0.88695 0.87883 0.07125 -0.02100
H 	H 	0.82546 0.75387 0.05986 0.09100
C 	C 	0.84325 0.64780 0.04344 0.06100
C 	C 	0.80716 0.58264 0.04389 0.00600
C 	C 	0.76006 0.53827 0.00045 -0.08500
C 	C 	0.74786 0.55950 0.95656 0.13900
C 	C 	0.78325 0.62474 0.95648 -0.07000
N 	N 	0.89301 0.69228 0.08720 -0.01700
H 	H 	0.81711 0.56647 0.07745 0.08500
N 	N 	0.69901 0.51494 0.91232 -0.02700
H 	H 	0.77334 0.64101 0.92297 0.10000
O 	O 	0.83082 0.86502 0.07388 -0.06600
O 	O 	0.93686 0.92461 0.10556 -0.06400
O 	O 	0.91436 0.72655 0.88058 -0.05300
O 	O 	0.94471 0.70041 0.95076 -0.05500
O 	O 	0.63981 0.47585 0.91811 -0.06300
O 	O 	0.71306 0.51610 0.86575 -0.04200
O 	O 	0.87988 0.69200 0.13405 -0.06500
O 	O 	0.95212 0.72997 0.08075 -0.06100
H 	H 	0.84388 0.96486 0.93827 0.09700
H 	H 	0.94261 0.18261 0.03476 0.09000
C 	C 	0.75293 0.17603 0.97394 -0.07500
H 	H 	0.75089 0.17265 0.05612 0.09400
N 	N 	0.75510 0.17077 0.87921 -0.02800
O 	O 	0.06362 0.20324 0.03892 -0.06400
O 	O 	0.75060 0.97169 0.88274 -0.06300
O 	O 	0.79901 0.20680 0.85294 -0.08600
O 	O 	0.84243 0.16652 0.11750 -0.05700
C 	C 	0.36614 0.21018 0.95477 -0.06700
C 	C 	0.45696 0.21078 0.98767 -0.07500
C 	C 	0.43081 0.23507 0.95755 0.13200
N 	N 	0.46903 0.28339 0.92835 -0.02600
H 	H 	0.34625 0.22892 0.93174 0.09900
N 	N 	0.28300 0.22217 0.03919 -0.01900
N 	N 	0.10114 0.98542 0.90244 -0.01600
O 	O 	0.47537 0.33634 0.93589 -0.05900
O 	O 	0.49311 0.27241 0.89131 -0.03900
O 	O 	0.05638 0.97984 0.87006 -0.05600
O 	O 	0.10620 0.93912 0.89989 -0.05300
O 	O 	0.28148 0.26965 0.03326 -0.06400
O 	O 	0.32259 0.22862 0.07809 -0.06300
