data_crystal

_cell_length_a 18.78443
_cell_length_b 18.82089
_cell_length_c 33.69771
_cell_angle_alpha 95.42549
_cell_angle_beta  95.42674
_cell_angle_gamma 126.40399

_symmetry_space_group_name_	'P 1'
_symmetry_space_group_name_H-M	'P 1'

loop_
_symmetry_equiv_pos_as_xyz
  x,y,z

loop_
_atom_site_label
_atom_site_type_symbol
_atom_site_fract_x
_atom_site_fract_y
_atom_site_fract_z
_atom_site_charge
C 	C 	0.90775 0.00070 0.95733 0.12100
C 	C 	0.00107 0.05618 0.95875 -0.08700
C 	C 	0.04832 0.02025 0.96063 0.11900
C 	C 	0.00258 0.92865 0.96067 -0.08600
C 	C 	0.90930 0.87215 0.95882 0.12000
C 	C 	0.86162 0.90828 0.95748 -0.09900
H 	H 	0.03709 0.12754 0.95925 0.09700
H 	H 	0.03968 0.90132 0.96235 0.09500
H 	H 	0.78964 0.86515 0.95678 0.08800
C 	C 	0.95463 0.04294 0.50575 0.11100
C 	C 	0.04714 0.08877 0.50558 -0.07600
C 	C 	0.08306 0.04100 0.50403 0.11400
C 	C 	0.02652 0.94805 0.50262 -0.09600
C 	C 	0.93486 0.90264 0.50294 0.12100
C 	C 	0.89898 0.94992 0.50465 -0.09400
H 	H 	0.09050 0.16064 0.50634 0.10200
H 	H 	0.05384 0.91094 0.50105 0.08700
H 	H 	0.82758 0.91417 0.50435 0.08900
Cu	Cu	0.74935 0.33979 0.95544 0.93000
Cu	Cu	0.74878 0.27831 0.04366 0.88900
Cu	Cu	0.60872 0.29394 0.00872 0.90200
Cu	Cu	0.58376 0.33894 0.92793 0.90200
C 	C 	0.67794 0.30740 0.87076 0.25900
O 	O 	0.80443 0.47158 0.95432 -0.35200
C 	C 	0.67173 0.32658 0.09772 0.26400
O 	O 	0.60961 0.26891 0.95233 -0.63500
O 	O 	0.74117 0.35629 0.01345 -0.64100
O 	O 	0.80801 0.27845 0.95868 -0.35800
O 	O 	0.71582 0.18852 0.99939 -0.39400
O 	O 	0.64501 0.35057 0.88103 -0.36600
O 	O 	0.47927 0.22672 0.99998 -0.33900
C 	C 	0.43078 0.23160 0.97087 0.33600
C 	C 	0.76612 0.50717 0.96755 0.33300
O 	O 	0.68384 0.45449 0.97430 -0.36200
O 	O 	0.46875 0.29145 0.94707 -0.37800
O 	O 	0.73319 0.30644 0.89770 -0.34000
C 	C 	0.77231 0.20589 0.97496 0.32400
O 	O 	0.60480 0.29779 0.06750 -0.34400
O 	O 	0.74628 0.33991 0.09092 -0.38900
H 	H 	0.56969 0.20419 0.93996 0.17300
H 	H 	0.77864 0.41956 0.02787 0.19300
Cu	Cu	0.61722 0.20316 0.50841 0.93100
Cu	Cu	0.68101 0.20599 0.42071 0.87900
Cu	Cu	0.66407 0.34464 0.45600 0.90300
Cu	Cu	0.61720 0.36708 0.53651 0.90300
C 	C 	0.64098 0.26649 0.59346 0.26100
O 	O 	0.48501 0.14742 0.50895 -0.32600
C 	C 	0.63276 0.28359 0.36693 0.26000
O 	O 	0.68826 0.34250 0.51229 -0.63800
O 	O 	0.60186 0.21249 0.45059 -0.63800
O 	O 	0.67850 0.14477 0.50503 -0.33300
O 	O 	0.77037 0.23825 0.46521 -0.43400
O 	O 	0.60164 0.30312 0.58287 -0.34800
O 	O 	0.73107 0.47370 0.46533 -0.34800
C 	C 	0.72491 0.52148 0.49420 0.33800
C 	C 	0.44946 0.18591 0.49599 0.32700
O 	O 	0.50233 0.26829 0.48955 -0.38600
O 	O 	0.66578 0.48316 0.51836 -0.38100
O 	O 	0.64977 0.21833 0.56607 -0.31600
C 	C 	0.75249 0.18186 0.48973 0.33400
O 	O 	0.66136 0.34990 0.39737 -0.34800
O 	O 	0.62012 0.20929 0.37336 -0.39800
H 	H 	0.75295 0.38225 0.52494 0.17600
H 	H 	0.53868 0.17517 0.43592 0.18200
C 	C 	0.70782 0.33539 0.77175 0.08900
C 	C 	0.75435 0.36030 0.73924 -0.07300
C 	C 	0.70197 0.32890 0.70012 0.02000
C 	C 	0.60960 0.26378 0.69334 0.09400
C 	C 	0.56467 0.22914 0.72553 -0.07700
C 	C 	0.61511 0.27247 0.76492 0.02400
N 	N 	0.74418 0.34088 0.80931 -0.14900
C 	C 	0.67445 0.28423 0.82744 0.02100
C 	C 	0.59341 0.23693 0.79965 -0.04500
N 	N 	0.57894 0.21893 0.65486 -0.15300
C 	C 	0.65086 0.25781 0.63604 0.03900
C 	C 	0.72950 0.32369 0.66409 -0.04400
H 	H 	0.82695 0.39910 0.74404 0.07300
H 	H 	0.49515 0.16964 0.72016 0.07500
H 	H 	0.52727 0.20200 0.80756 0.05400
H 	H 	0.79240 0.37733 0.65643 0.06000
H 	H 	0.80832 0.39581 0.82476 0.10800
H 	H 	0.51182 0.18095 0.64007 0.13300
C 	C 	0.70681 0.34137 0.20255 0.08600
C 	C 	0.74387 0.38425 0.24339 -0.07500
C 	C 	0.70009 0.33324 0.27269 0.01600
C 	C 	0.61653 0.25003 0.26195 0.08400
C 	C 	0.57301 0.21358 0.22116 -0.07500
C 	C 	0.62357 0.25780 0.19180 0.01700
N 	N 	0.72596 0.38504 0.17123 -0.15100
C 	C 	0.65658 0.32843 0.13967 0.02300
C 	C 	0.58935 0.25035 0.15226 -0.03800
N 	N 	0.57329 0.23027 0.29345 -0.15100
C 	C 	0.63026 0.29922 0.32509 0.01900
C 	C 	0.70810 0.36679 0.31242 -0.03800
H 	H 	0.80141 0.45457 0.25180 0.07000
H 	H 	0.50258 0.15604 0.21285 0.06800
H 	H 	0.53633 0.18735 0.13223 0.06400
H 	H 	0.77140 0.41959 0.33237 0.06300
H 	H 	0.79060 0.43951 0.16861 0.10400
H 	H 	0.51900 0.16557 0.29600 0.09900
C 	C 	0.83651 0.74723 0.46284 -0.12700
C 	C 	0.87616 0.80500 0.50074 -0.06000
C 	C 	0.86486 0.76953 0.53639 0.30600
C 	C 	0.81529 0.67683 0.53412 -0.07000
C 	C 	0.77685 0.61891 0.49621 -0.13800
C 	C 	0.78684 0.65446 0.46049 0.36100
F 	F 	0.74724 0.59914 0.42360 -0.43300
H 	H 	0.84494 0.77438 0.43522 0.11200
H 	H 	0.80766 0.65003 0.56181 0.09000
F 	F 	0.90317 0.82509 0.57321 -0.42900
C 	C 	0.87248 0.09451 0.53593 -0.13000
C 	C 	0.91427 0.09061 0.50420 -0.05300
C 	C 	0.90561 0.11998 0.46856 0.30100
C 	C 	0.85323 0.14998 0.46413 -0.07000
C 	C 	0.80883 0.15114 0.49526 -0.14500
C 	C 	0.82003 0.12467 0.53155 0.36100
F 	F 	0.78077 0.12866 0.56263 -0.43000
H 	H 	0.87888 0.07209 0.56358 0.11300
H 	H 	0.84554 0.17047 0.43606 0.07700
F 	F 	0.94476 0.11578 0.43748 -0.42200
C 	C 	0.23366 0.08823 0.53587 -0.13100
C 	C 	0.17979 0.08747 0.50369 -0.05400
C 	C 	0.21435 0.11749 0.46861 0.30400
C 	C 	0.30143 0.14667 0.46560 -0.07000
C 	C 	0.35448 0.14542 0.49741 -0.14000
C 	C 	0.32034 0.11661 0.53274 0.35700
F 	F 	0.37195 0.11832 0.56445 -0.44200
H 	H 	0.20747 0.06484 0.56298 0.11100
H 	H 	0.32768 0.17024 0.43853 0.09200
F 	F 	0.16269 0.11597 0.43701 -0.41900
C 	C 	0.83573 0.63581 0.93092 -0.07200
C 	C 	0.80659 0.60203 0.96619 -0.13900
C 	C 	0.80440 0.65498 0.99770 0.35900
C 	C 	0.83244 0.74130 0.99413 -0.11900
C 	C 	0.86262 0.77547 0.95906 -0.05900
C 	C 	0.86285 0.72167 0.92718 0.30600
F 	F 	0.89107 0.75343 0.89290 -0.41900
H 	H 	0.83547 0.59475 0.90600 0.09700
H 	H 	0.83317 0.78260 0.01910 0.09700
F 	F 	0.77593 0.62315 0.03194 -0.44700
C 	C 	0.82627 0.13608 0.93260 -0.07600
C 	C 	0.80269 0.14920 0.96942 -0.12500
C 	C 	0.80624 0.10629 0.00084 0.32800
C 	C 	0.83417 0.05225 0.99555 -0.10300
C 	C 	0.86038 0.04141 0.95928 -0.06600
C 	C 	0.85492 0.08241 0.92750 0.31200
F 	F 	0.87940 0.07195 0.89207 -0.41800
H 	H 	0.82257 0.16745 0.90795 0.10400
H 	H 	0.83919 0.02191 0.02038 0.09000
F 	F 	0.78605 0.11974 0.03709 -0.46400
C 	C 	0.27552 0.13982 0.93045 -0.07100
C 	C 	0.33296 0.17825 0.96853 -0.12900
C 	C 	0.29657 0.16784 0.00404 0.35300
C 	C 	0.20350 0.11811 0.00131 -0.13700
C 	C 	0.14627 0.07880 0.96324 -0.04900
C 	C 	0.18255 0.09022 0.92780 0.31000
F 	F 	0.12751 0.05210 0.89082 -0.41300
H 	H 	0.30297 0.14775 0.90291 0.09000
H 	H 	0.17571 0.10945 0.02877 0.10400
F 	F 	0.35138 0.20725 0.04108 -0.43300
