data_crystal

_cell_length_a 22.01529
_cell_length_b 18.75717
_cell_length_c 47.90304
_cell_angle_alpha 90.68376
_cell_angle_beta  91.24523
_cell_angle_gamma 110.78439

_symmetry_space_group_name_	'P 1'
_symmetry_space_group_name_H-M	'P 1'

loop_
_symmetry_equiv_pos_as_xyz
  x,y,z

loop_
_atom_site_label
_atom_site_type_symbol
_atom_site_fract_x
_atom_site_fract_y
_atom_site_fract_z
_atom_site_charge
O 	O 	0.02020 0.86873 0.72294 -0.71500
Ni	Ni	0.06960 0.92798 0.69107 1.09300
O 	O 	0.07766 0.97665 0.77045 -0.37500
O 	O 	0.07337 0.11846 0.76094 -0.41000
O 	O 	0.08929 0.83938 0.67312 -0.38100
O 	O 	0.04080 0.00982 0.71005 -0.68900
O 	O 	0.13559 0.00141 0.66547 -0.36100
O 	O 	0.16271 0.11778 0.68697 -0.40200
Ni	Ni	0.11112 0.10220 0.72369 1.06700
H 	H 	0.04635 0.84593 0.73436 0.15400
H 	H 	0.00951 0.02509 0.69880 0.15500
O 	O 	0.15773 0.03564 0.73978 -0.41700
C 	C 	0.13882 0.99745 0.76276 0.26500
C 	C 	0.18032 0.06466 0.67515 0.28300
C 	C 	0.01054 0.10234 0.76420 0.27900
Ni	Ni	0.25195 0.69464 0.39531 1.09900
O 	O 	0.32713 0.74875 0.36996 -0.70600
Ni	Ni	0.40144 0.73568 0.39107 1.10000
O 	O 	0.18823 0.71853 0.36854 -0.37000
O 	O 	0.24765 0.84658 0.37163 -0.41200
O 	O 	0.24322 0.59998 0.37149 -0.39300
Ni	Ni	0.34456 0.85699 0.36640 1.06300
O 	O 	0.23697 0.61498 0.45749 -0.41700
O 	O 	0.35665 0.87875 0.40841 -0.41600
O 	O 	0.32843 0.69714 0.41913 -0.70200
O 	O 	0.17613 0.63179 0.41960 -0.37600
O 	O 	0.38230 0.57766 0.41450 -0.41700
Ni	Ni	0.30770 0.59655 0.43534 1.07000
H 	H 	0.32181 0.72384 0.35127 0.15400
H 	H 	0.33413 0.73474 0.43453 0.15400
C 	C 	0.40844 0.87834 0.42230 0.28000
O 	O 	0.23798 0.52443 0.40895 -0.40000
C 	C 	0.19671 0.78922 0.36170 0.26700
C 	C 	0.23586 0.53314 0.38188 0.30000
C 	C 	0.44286 0.62193 0.41998 0.27200
C 	C 	0.18137 0.61472 0.44618 0.28600
O 	O 	0.44160 0.83674 0.41346 -0.37200
Ni	Ni	0.34827 0.68774 0.05987 1.09700
O 	O 	0.27204 0.66317 0.03164 -0.70500
Ni	Ni	0.21342 0.70677 0.05183 1.09700
O 	O 	0.39538 0.62965 0.03773 -0.36700
O 	O 	0.30642 0.52250 0.02980 -0.40700
O 	O 	0.40191 0.78055 0.03695 -0.37000
Ni	Ni	0.22439 0.55294 0.02751 1.06300
O 	O 	0.21687 0.53841 0.06962 -0.41700
O 	O 	0.14118 0.67836 0.02194 -0.38500
O 	O 	0.28921 0.73060 0.08029 -0.70400
O 	O 	0.16628 0.76596 0.07340 -0.36800
O 	O 	0.25521 0.87238 0.08276 -0.40800
Ni	Ni	0.33689 0.84115 0.08450 1.06200
H 	H 	0.28445 0.68708 0.01331 0.15100
H 	H 	0.27653 0.70613 0.09851 0.15100
C 	C 	0.17604 0.56012 0.08382 0.28300
O 	O 	0.34202 0.85664 0.04258 -0.41700
C 	C 	0.36439 0.56790 0.02262 0.27400
C 	C 	0.11554 0.60772 0.01218 0.27900
C 	C 	0.37901 0.83156 0.02722 0.27800
C 	C 	0.19644 0.82706 0.08899 0.27600
O 	O 	0.15739 0.61517 0.07471 -0.36800
O 	O 	0.13172 0.55312 0.02377 -0.41000
O 	O 	0.07720 0.16052 0.26709 -0.41200
Ni	Ni	0.04668 0.18060 0.22745 1.06300
O 	O 	0.06304 0.08533 0.21409 -0.41400
C 	C 	0.04190 0.05356 0.18951 0.27800
C 	C 	0.04497 0.16335 0.28969 0.26600
C 	C 	0.13832 0.51020 0.10550 -0.07200
C 	C 	0.15685 0.52637 0.13370 0.00400
C 	C 	0.12226 0.47744 0.15433 -0.06000
C 	C 	0.06911 0.41140 0.14685 0.01500
C 	C 	0.04876 0.39644 0.11853 0.01200
C 	C 	0.08332 0.44633 0.09795 -0.01500
C 	C 	0.99621 0.32978 0.11107 -0.05400
H 	H 	0.19855 0.57636 0.13964 0.01600
H 	H 	0.06846 0.43468 0.07612 0.04000
H 	H 	0.97913 0.31857 0.08951 0.04400
C 	C 	0.07924 0.01458 0.17439 -0.05600
C 	C 	0.14654 0.03596 0.17946 -0.00700
C 	C 	0.18256 0.00137 0.16437 -0.03900
C 	C 	0.15180 0.94514 0.14395 -0.00900
C 	C 	0.08395 0.92243 0.13910 0.02500
C 	C 	0.04794 0.95705 0.15443 -0.04200
C 	C 	0.05318 0.86621 0.11869 -0.06500
C 	C 	0.08960 0.83406 0.10272 0.01000
C 	C 	0.15737 0.85762 0.10701 -0.07800
C 	C 	0.18811 0.91222 0.12801 -0.01600
H 	H 	0.17119 0.08034 0.19478 0.03400
H 	H 	0.23452 0.01898 0.16834 0.03500
H 	H 	0.06522 0.79182 0.08666 0.04300
H 	H 	0.24018 0.92950 0.13174 0.01800
C 	C 	0.21242 0.46540 0.36336 -0.07700
C 	C 	0.24269 0.46533 0.33791 0.00800
C 	C 	0.21764 0.40390 0.31909 -0.06100
C 	C 	0.16146 0.34217 0.32536 0.01300
C 	C 	0.13134 0.34119 0.35116 0.01100
C 	C 	0.15739 0.40264 0.37021 -0.01500
C 	C 	0.07459 0.27980 0.35720 -0.05600
C 	C 	0.04701 0.22081 0.33746 0.00300
C 	C 	0.07618 0.22228 0.31154 -0.07500
C 	C 	0.13410 0.28257 0.30582 -0.02700
H 	H 	0.28541 0.51333 0.33261 0.02400
H 	H 	0.24134 0.40491 0.29942 0.03700
H 	H 	0.13384 0.40283 0.38986 0.04600
H 	H 	0.05128 0.27822 0.37699 0.04400
H 	H 	0.00272 0.17444 0.34227 0.04300
H 	H 	0.15697 0.28407 0.28590 0.02600
C 	C 	0.02916 0.76147 0.28831 -0.06100
C 	C 	0.05784 0.79109 0.31440 0.01300
C 	C 	0.03599 0.84266 0.32920 0.01100
C 	C 	0.98707 0.86531 0.31743 -0.02100
C 	C 	0.06542 0.87360 0.35501 -0.05800
C 	C 	0.11769 0.85574 0.36560 0.00400
C 	C 	0.14052 0.80584 0.35074 -0.07100
C 	C 	0.10961 0.77208 0.32548 -0.02400
H 	H 	0.04488 0.72109 0.27694 0.03900
H 	H 	0.04866 0.91270 0.36662 0.04200
H 	H 	0.14056 0.88075 0.38540 0.03300
H 	H 	0.12692 0.73291 0.31416 0.03400
C 	C 	0.38987 0.95078 0.46316 -0.02100
H 	H 	0.33798 0.92632 0.45882 0.03500
C 	C 	0.04722 0.48890 0.49053 0.01400
C 	C 	0.07802 0.62613 0.46166 0.00700
C 	C 	0.12233 0.58778 0.46273 -0.07200
C 	C 	0.10755 0.52012 0.47776 -0.01800
H 	H 	0.06491 0.38982 0.50594 0.04300
H 	H 	0.08941 0.67873 0.45032 0.03100
H 	H 	0.14178 0.49041 0.47855 0.03500
C 	C 	0.55054 0.61730 0.43518 0.01100
H 	H 	0.57286 0.65315 0.41791 0.03700
H 	H 	0.64058 0.60857 0.44989 0.04000
C 	C 	0.24715 0.08559 0.66485 -0.07700
C 	C 	0.27283 0.02833 0.65940 0.02200
C 	C 	0.33562 0.04711 0.64940 -0.06500
C 	C 	0.37364 0.12347 0.64468 0.01800
C 	C 	0.34875 0.18163 0.65060 0.00800
C 	C 	0.28560 0.16250 0.66074 -0.01600
C 	C 	0.43564 0.14216 0.63349 -0.02600
H 	H 	0.24412 0.96910 0.66298 0.01900
H 	H 	0.35448 0.00211 0.64513 0.04500
H 	H 	0.26615 0.20704 0.66497 0.04000
H 	H 	0.45434 0.09723 0.62879 0.04100
C 	C 	0.05542 0.58564 0.99479 -0.07300
C 	C 	0.01335 0.62692 0.99678 0.00600
C 	C 	0.03691 0.51871 0.97821 -0.02300
H 	H 	0.02713 0.67872 0.00946 0.04200
H 	H 	0.06976 0.48748 0.97624 0.02500
C 	C 	0.40441 0.87096 0.00130 -0.07100
H 	H 	0.50521 0.90092 0.01421 0.04700
H 	H 	0.31604 0.45457 0.98353 0.02600
H 	H 	0.05496 0.18740 0.81186 0.03600
C 	C 	0.36597 0.02970 0.78178 -0.06400
C 	C 	0.30417 0.01991 0.79186 0.02900
C 	C 	0.29773 0.03908 0.81998 0.00900
C 	C 	0.35346 0.07214 0.83712 -0.01400
C 	C 	0.23595 0.02910 0.83007 -0.05700
C 	C 	0.18189 0.00740 0.81176 0.01600
C 	C 	0.18911 0.99531 0.78320 -0.08200
C 	C 	0.24941 0.99637 0.77375 -0.04000
H 	H 	0.37137 0.01385 0.76039 0.04200
H 	H 	0.34893 0.08871 0.85854 0.04700
H 	H 	0.23020 0.04149 0.85180 0.04500
H 	H 	0.13525 0.00477 0.81946 0.04400
H 	H 	0.25456 0.98420 0.75190 0.03400
Ni	Ni	0.70373 0.31029 0.87775 1.09900
O 	O 	0.62208 0.24241 0.85628 -0.70600
Ni	Ni	0.55329 0.25439 0.88020 1.10100
O 	O 	0.76191 0.28811 0.84881 -0.37000
O 	O 	0.71161 0.15904 0.85329 -0.40800
O 	O 	0.69473 0.39477 0.85325 -0.39800
Ni	Ni	0.61126 0.13543 0.85420 1.06400
O 	O 	0.73553 0.40856 0.93818 -0.41500
O 	O 	0.61420 0.12469 0.89662 -0.41600
O 	O 	0.47689 0.19564 0.85454 -0.37900
O 	O 	0.63489 0.30686 0.90463 -0.70300
O 	O 	0.78418 0.38627 0.89818 -0.37900
O 	O 	0.49490 0.29662 0.90295 -0.37400
O 	O 	0.56973 0.41642 0.89978 -0.41700
Ni	Ni	0.65404 0.41141 0.91832 1.07000
H 	H 	0.61861 0.26144 0.83734 0.15400
H 	H 	0.63759 0.27464 0.92047 0.15600
C 	C 	0.56387 0.12031 0.91166 0.28900
O 	O 	0.71125 0.48110 0.88913 -0.39900
C 	C 	0.75227 0.21791 0.84022 0.26900
C 	C 	0.47357 0.12971 0.84309 0.27100
C 	C 	0.70791 0.46500 0.86226 0.30400
C 	C 	0.51285 0.37046 0.90801 0.27100
C 	C 	0.78704 0.40550 0.92504 0.28500
O 	O 	0.52702 0.16012 0.90519 -0.37200
O 	O 	0.51124 0.09294 0.85267 -0.40500
Ni	Ni	0.62721 0.32016 0.57047 1.09800
O 	O 	0.70094 0.33054 0.54367 -0.70000
Ni	Ni	0.76710 0.31021 0.56892 1.09700
O 	O 	0.57834 0.36849 0.54420 -0.37400
O 	O 	0.66993 0.47178 0.53753 -0.41200
O 	O 	0.57226 0.21716 0.55178 -0.37200
Ni	Ni	0.73920 0.42758 0.52474 1.06800
O 	O 	0.55308 0.17948 0.60484 -0.40700
O 	O 	0.80463 0.49916 0.55317 -0.39900
O 	O 	0.84538 0.33542 0.54303 -0.38100
O 	O 	0.69003 0.29178 0.59472 -0.70300
O 	O 	0.55652 0.30219 0.59907 -0.38400
O 	O 	0.81684 0.27188 0.59848 -0.37100
O 	O 	0.73222 0.15908 0.60220 -0.40900
Ni	Ni	0.64753 0.18399 0.60328 1.06400
H 	H 	0.68692 0.29002 0.52902 0.15000
H 	H 	0.70173 0.32391 0.61196 0.15300
C 	C 	0.83707 0.47713 0.57250 0.29000
O 	O 	0.63605 0.14835 0.56268 -0.41300
C 	C 	0.60762 0.43464 0.53260 0.27000
C 	C 	0.59553 0.16365 0.54551 0.28600
C 	C 	0.78986 0.20593 0.61072 0.27100
C 	C 	0.53378 0.23650 0.61203 0.27300
O 	O 	0.80720 0.41638 0.58702 -0.39300
O 	O 	0.80758 0.39248 0.50776 -0.42000
O 	O 	0.46935 0.78103 0.36186 -0.37600
O 	O 	0.46339 0.69354 0.41225 -0.37300
C 	C 	0.47257 0.84535 0.34978 0.26900
O 	O 	0.44311 0.88952 0.36076 -0.40700
O 	O 	0.43019 0.84202 0.08769 -0.41100
O 	O 	0.42112 0.71688 0.08942 -0.38400
C 	C 	0.44699 0.78754 0.09903 0.27800
O 	O 	0.77961 0.94218 0.20603 -0.41600
O 	O 	0.79956 0.91949 0.26541 -0.39200
C 	C 	0.79946 0.98764 0.27155 0.28600
C 	C 	0.78965 0.95639 0.17929 0.24800
C 	C 	0.73368 0.93053 0.15934 -0.06500
C 	C 	0.73058 0.97522 0.13639 -0.01500
C 	C 	0.67376 0.95572 0.11974 -0.05100
C 	C 	0.61938 0.89145 0.12591 0.00700
C 	C 	0.62298 0.84510 0.14845 0.01500
C 	C 	0.68031 0.86443 0.16485 -0.02800
C 	C 	0.56880 0.78074 0.15462 -0.06100
C 	C 	0.51125 0.76271 0.13866 0.00200
C 	C 	0.50707 0.80884 0.11639 -0.07600
C 	C 	0.56129 0.87320 0.10999 -0.01800
H 	H 	0.77142 0.02626 0.13192 0.05100
H 	H 	0.67174 0.99131 0.10235 0.03800
H 	H 	0.68298 0.82908 0.18227 0.02500
H 	H 	0.57111 0.74476 0.17184 0.03800
H 	H 	0.46975 0.71289 0.14364 0.02600
H 	H 	0.55851 0.90824 0.09250 0.04300
H 	H 	0.00111 0.84802 0.11492 0.04300
C 	C 	0.52366 0.87834 0.32953 -0.07400
C 	C 	0.51561 0.84878 0.30214 -0.00100
C 	C 	0.56633 0.87472 0.28345 -0.06000
C 	C 	0.62627 0.92924 0.29221 0.01500
C 	C 	0.63396 0.96121 0.31950 0.00100
C 	C 	0.58213 0.93625 0.33797 -0.01400
C 	C 	0.69458 0.01413 0.32846 -0.04500
C 	C 	0.74847 0.02984 0.31138 0.01600
C 	C 	0.74196 0.99362 0.28507 -0.08100
C 	C 	0.67991 0.94782 0.27481 -0.02000
H 	H 	0.47034 0.80473 0.29545 0.01500
H 	H 	0.55972 0.85045 0.26246 0.03800
H 	H 	0.58811 0.95939 0.35914 0.04100
H 	H 	0.70076 0.04029 0.34912 0.04400
H 	H 	0.79594 0.06628 0.31933 0.03900
H 	H 	0.67455 0.92152 0.25416 0.03600
C 	C 	0.57108 0.11540 0.52048 -0.08200
C 	C 	0.61433 0.09529 0.50379 0.01000
C 	C 	0.59100 0.04495 0.48106 -0.06700
C 	C 	0.52404 0.01369 0.47491 0.03600
C 	C 	0.48032 0.03432 0.49152 -0.00100
C 	C 	0.50418 0.08568 0.51411 -0.01000
C 	C 	0.41333 0.00255 0.48551 -0.03500
C 	C 	0.43313 0.93041 0.44651 -0.06500
C 	C 	0.50022 0.96188 0.45248 -0.04300
H 	H 	0.66610 0.11850 0.50853 0.02500
H 	H 	0.62496 0.02979 0.46839 0.04900
H 	H 	0.47077 0.10097 0.52713 0.04700
H 	H 	0.37937 0.01774 0.49817 0.04100
H 	H 	0.53377 0.94681 0.43948 0.05200
C 	C 	0.48343 0.59557 0.43909 -0.08500
C 	C 	0.58893 0.59196 0.45332 -0.06100
C 	C 	0.56059 0.54502 0.47567 0.01400
C 	C 	0.49324 0.52420 0.47996 0.00800
C 	C 	0.45500 0.54942 0.46160 -0.01700
C 	C 	0.46492 0.47790 0.50241 -0.05700
C 	C 	0.50272 0.45076 0.52009 0.00500
C 	C 	0.56938 0.46947 0.51554 -0.07500
C 	C 	0.59845 0.51769 0.49356 -0.02400
H 	H 	0.40332 0.53368 0.46492 0.00000
H 	H 	0.41344 0.46232 0.50604 0.03700
H 	H 	0.48005 0.41463 0.53723 0.04100
H 	H 	0.64989 0.53221 0.48997 0.02100
C 	C 	0.83172 0.17304 0.62580 -0.07100
H 	H 	0.86224 0.13230 0.58830 0.04200
C 	C 	0.38695 0.25802 0.64589 -0.05600
C 	C 	0.44844 0.27631 0.63443 0.00000
C 	C 	0.47248 0.21839 0.62744 -0.06900
H 	H 	0.36873 0.30322 0.65075 0.03900
H 	H 	0.47690 0.33544 0.63059 0.03600
C 	C 	0.54114 0.06044 0.93264 -0.08600
C 	C 	0.58511 0.04829 0.95198 0.02500
C 	C 	0.56241 0.99607 0.97342 -0.08100
C 	C 	0.49544 0.95565 0.97572 0.02500
C 	C 	0.45133 0.96584 0.95567 -0.01000
C 	C 	0.47448 0.01765 0.93411 0.00400
C 	C 	0.38441 0.92609 0.95803 -0.05000
C 	C 	0.36111 0.87938 0.98082 -0.00300
C 	C 	0.47173 0.90743 0.99835 -0.02500
H 	H 	0.63667 0.08062 0.95084 0.02700
H 	H 	0.59677 0.98823 0.98852 0.04500
H 	H 	0.44062 0.02577 0.91878 0.04700
H 	H 	0.35024 0.93284 0.94258 0.03700
H 	H 	0.30919 0.85092 0.98288 0.02200
C 	C 	0.47516 0.39984 0.92704 -0.08400
C 	C 	0.40710 0.36646 0.92712 0.01000
C 	C 	0.37159 0.39306 0.94581 -0.06100
C 	C 	0.40388 0.45299 0.96475 0.01400
C 	C 	0.47236 0.48663 0.96473 0.00800
C 	C 	0.50760 0.46013 0.94580 -0.01900
C 	C 	0.50480 0.54600 0.98376 -0.05700
C 	C 	0.46969 0.57196 0.00272 0.00400
C 	C 	0.40147 0.53898 0.00290 -0.07200
C 	C 	0.36867 0.47959 0.98375 -0.02500
H 	H 	0.38167 0.32008 0.91265 0.03700
H 	H 	0.31907 0.36686 0.94560 0.04000
H 	H 	0.56024 0.48542 0.94600 0.00600
H 	H 	0.55734 0.57205 0.98393 0.03700
H 	H 	0.49565 0.61766 0.01735 0.04500
C 	C 	0.79843 0.20536 0.82096 -0.07200
C 	C 	0.77914 0.18355 0.79314 0.00000
H 	H 	0.72985 0.17445 0.78602 0.01000
C 	C 	0.41532 0.08663 0.82629 -0.07200
C 	C 	0.42130 0.06299 0.79895 0.00200
H 	H 	0.46895 0.07264 0.79070 0.01100
C 	C 	0.73113 0.52753 0.84237 -0.07700
C 	C 	0.70224 0.51954 0.81554 0.00800
C 	C 	0.72841 0.57501 0.79556 -0.06200
C 	C 	0.78423 0.63877 0.80210 0.01400
C 	C 	0.78548 0.59269 0.84938 -0.01500
H 	H 	0.65991 0.46980 0.81007 0.02700
H 	H 	0.70593 0.56765 0.77485 0.03800
C 	C 	0.04076 0.77399 0.66845 0.27200
O 	O 	0.03362 0.20955 0.18723 -0.40600
H 	H 	0.99582 0.93952 0.15079 0.04200
C 	C 	0.03049 0.41904 0.50423 -0.05900
C 	C 	0.05122 0.71386 0.65167 -0.07100
H 	H 	0.80801 0.59884 0.87008 0.04500
H 	H 	0.79135 0.68493 0.76074 0.03700
H 	H 	0.13782 0.48990 0.17603 0.03600
H 	H 	0.06060 0.77204 0.61263 0.04500
C 	C 	0.03897 0.35761 0.16705 -0.02500
C 	C 	0.00928 0.18892 0.80355 0.00800
H 	H 	0.80759 0.15601 0.75300 0.03700
C 	C 	0.81256 0.64805 0.82928 0.01000
C 	C 	0.81305 0.69227 0.78161 -0.02700
C 	C 	0.82334 0.17360 0.77440 -0.05800
H 	H 	0.80798 0.20358 0.66668 0.01500
H 	H 	0.05608 0.36772 0.18866 0.01900
C 	C 	0.82949 0.16914 0.65500 -0.00400
C 	C 	0.86004 0.12869 0.61087 -0.01600
C 	C 	0.87946 0.07449 0.62465 0.01200
H 	H 	0.83709 0.53313 0.95721 0.03700
C 	C 	0.85626 0.38512 0.52256 0.28500
O 	O 	0.85384 0.04716 0.27110 -0.37800
O 	O 	0.84709 0.00205 0.17110 -0.36600
Ni	Ni	0.83519 0.89377 0.22931 1.06900
C 	C 	0.85070 0.11692 0.66905 -0.05900
C 	C 	0.87358 0.06749 0.65390 0.00700
H 	H 	0.84719 0.11315 0.69156 0.03500
C 	C 	0.86874 0.71132 0.83574 -0.05700
H 	H 	0.04693 0.63880 0.68597 0.01400
C 	C 	0.01845 0.59615 0.47478 -0.05800
C 	C 	0.04492 0.71696 0.62254 -0.01500
H 	H 	0.90538 0.46906 0.61999 0.04700
C 	C 	0.90039 0.53227 0.58301 -0.07100
H 	H 	0.90653 0.02975 0.58699 0.04400
C 	C 	0.90197 0.02495 0.60943 -0.04400
H 	H 	0.93690 0.93172 0.61120 0.04000
C 	C 	0.91863 0.96891 0.62312 -0.00400
H 	H 	0.91507 0.60486 0.54704 0.03300
O 	O 	0.88196 0.79337 0.73982 -0.41500
Ni	Ni	0.94107 0.79201 0.70662 1.06200
O 	O 	0.90900 0.87014 0.68766 -0.41700
C 	C 	0.93998 0.91085 0.66681 0.28400
C 	C 	0.90380 0.80761 0.76585 0.27300
Ni	Ni	0.91371 0.07098 0.19986 1.10100
O 	O 	0.88717 0.84449 0.25294 -0.40800
O 	O 	0.91358 0.98263 0.22450 -0.70700
C 	C 	0.92293 0.42206 0.51270 -0.07500
C 	C 	0.94044 0.49349 0.50008 -0.01800
H 	H 	0.90574 0.52251 0.49874 0.02800
C 	C 	0.91292 0.96163 0.65216 -0.09200
C 	C 	0.88967 0.01045 0.66749 -0.01100
H 	H 	0.88595 0.00542 0.68999 0.02500
C 	C 	0.93241 0.59821 0.56783 0.00500
C 	C 	0.92736 0.52162 0.60885 -0.02100
C 	C 	0.89389 0.39426 0.93648 0.00600
C 	C 	0.85076 0.43359 0.93957 -0.07300
C 	C 	0.87008 0.50211 0.95521 -0.01700
H 	H 	0.91991 0.63166 0.98545 0.04100
H 	H 	0.87935 0.34156 0.92428 0.03000
C 	C 	0.88689 0.18346 0.78353 0.01400
C 	C 	0.90703 0.20712 0.81140 0.01300
C 	C 	0.86283 0.21914 0.82992 -0.01500
C 	C 	0.92855 0.16345 0.76593 -0.02000
H 	H 	0.87789 0.23723 0.85136 0.04100
H 	H 	0.91231 0.14275 0.74481 0.02700
C 	C 	0.89770 0.76396 0.81520 0.00100
C 	C 	0.87051 0.75445 0.78796 -0.07400
H 	H 	0.89069 0.71916 0.85656 0.04200
H 	H 	0.94196 0.81147 0.82039 0.04000
C 	C 	0.03745 0.64229 0.66383 -0.00500
O 	O 	0.94733 0.87448 0.77294 -0.37100
O 	O 	0.92366 0.16545 0.17701 -0.37600
O 	O 	0.92110 0.94319 0.28577 -0.38000
H 	H 	0.93418 0.16191 0.24128 0.15500
C 	C 	0.92209 0.87754 0.27571 0.27800
C 	C 	0.93241 0.53123 0.96779 0.01200
C 	C 	0.95223 0.59986 0.98335 -0.05600
Ni	Ni	0.94115 0.03711 0.26132 1.10300
C 	C 	0.97954 0.58155 0.62129 0.01600
H 	H 	0.98420 0.52175 0.65918 0.03900
H 	H 	0.93090 0.22147 0.12479 0.04200
O 	O 	0.98010 0.77074 0.67067 -0.40500
O 	O 	0.95573 0.12652 0.23503 -0.70500
H 	H 	0.94787 0.96312 0.21898 0.14900
H 	H 	0.95580 0.33092 0.52513 0.04000
C 	C 	0.98480 0.65755 0.57998 -0.05400
C 	C 	0.95581 0.42260 0.94914 -0.05900
C 	C 	0.96862 0.38572 0.51521 0.01000
H 	H 	0.96233 0.76558 0.25556 0.03000
O 	O 	0.97044 0.03163 0.76219 -0.37800
H 	H 	0.98447 0.62608 0.47355 0.04100
C 	C 	0.00065 0.57603 0.64877 -0.06100
C 	C 	0.96977 0.21370 0.82076 -0.05600
C 	C 	0.97539 0.49091 0.96490 0.01400
C 	C 	0.96806 0.27513 0.13119 0.00700
Ni	Ni	0.99721 0.95053 0.74364 1.09300
O 	O 	0.99834 0.91267 0.66081 -0.37300
C 	C 	0.98128 0.22139 0.17727 0.26900
C 	C 	0.96205 0.84014 0.29039 -0.07500
C 	C 	0.00563 0.65159 0.60743 0.01200
H 	H 	0.00658 0.70978 0.56866 0.04200
C 	C 	0.98674 0.15878 0.77674 -0.08000
H 	H 	0.98645 0.23371 0.84186 0.04300
H 	H 	0.97045 0.90499 0.32881 0.04900
C 	C 	0.99181 0.28701 0.15896 -0.06800
H 	H 	0.98845 0.39133 0.94672 0.04000
O 	O 	0.98897 0.05870 0.17776 -0.36600
C 	C 	0.98183 0.78624 0.27627 0.00300
O 	O 	0.98797 0.10982 0.29379 -0.36800
C 	C 	0.00209 0.52675 0.48872 0.01200
