data_crystal

_cell_length_a 30.58319
_cell_length_b 31.14039
_cell_length_c 39.43871
_cell_angle_alpha 95.53491
_cell_angle_beta  95.53263
_cell_angle_gamma 125.53242

_symmetry_space_group_name_	'P 1'
_symmetry_space_group_name_H-M	'P 1'

loop_
_symmetry_equiv_pos_as_xyz
  x,y,z

loop_
_atom_site_label
_atom_site_type_symbol
_atom_site_fract_x
_atom_site_fract_y
_atom_site_fract_z
_atom_site_charge
N 	N 	0.01427 0.97346 0.98615 -0.13800
C 	C 	0.04716 0.02787 0.99076 0.11900
N 	N 	0.02566 0.05532 0.99556 -0.13900
N 	N 	0.00025 0.02535 0.46598 -0.14100
C 	C 	0.02549 0.00137 0.46947 0.12000
N 	N 	0.99590 0.94879 0.47211 -0.14100
N 	N 	0.91590 0.94409 0.46760 -0.14100
Cu	Cu	0.64874 0.26258 0.99975 0.92700
Cu	Cu	0.69229 0.26082 0.92733 0.86900
Cu	Cu	0.67630 0.34305 0.95174 0.89500
Cu	Cu	0.64555 0.36060 0.01887 0.89400
C 	C 	0.66355 0.30634 0.07108 0.29000
O 	O 	0.56855 0.22933 0.99860 -0.36600
C 	C 	0.65910 0.30114 0.87682 0.28900
O 	O 	0.69066 0.34532 0.00052 -0.63900
O 	O 	0.64098 0.26478 0.94974 -0.64300
O 	O 	0.68372 0.22507 0.00001 -0.37200
O 	O 	0.74388 0.27829 0.96706 -0.44300
O 	O 	0.63776 0.32643 0.06051 -0.38500
O 	O 	0.71496 0.42005 0.95705 -0.38400
C 	C 	0.71045 0.45001 0.98046 0.28800
C 	C 	0.54554 0.24972 0.98425 0.28300
O 	O 	0.57642 0.29920 0.97886 -0.39500
O 	O 	0.67426 0.42851 0.00108 -0.39300
O 	O 	0.66751 0.27439 0.04918 -0.36100
C 	C 	0.72992 0.24511 0.98890 0.28800
O 	O 	0.67375 0.34181 0.90132 -0.38800
O 	O 	0.65699 0.25969 0.88436 -0.42200
H 	H 	0.72983 0.36976 0.01163 0.16300
H 	H 	0.60304 0.24119 0.93639 0.17300
Cu	Cu	0.72822 0.33414 0.45287 0.92700
Cu	Cu	0.73235 0.29399 0.52573 0.86900
Cu	Cu	0.64442 0.30274 0.50021 0.89600
Cu	Cu	0.62157 0.32559 0.43134 0.89400
C 	C 	0.68196 0.31311 0.38088 0.29100
O 	O 	0.75581 0.41151 0.45284 -0.36300
C 	C 	0.68632 0.32038 0.57555 0.28800
O 	O 	0.64313 0.28697 0.45169 -0.64000
O 	O 	0.72488 0.34193 0.50263 -0.64200
O 	O 	0.77002 0.30320 0.45408 -0.37400
O 	O 	0.71591 0.24325 0.48659 -0.44400
O 	O 	0.65723 0.33465 0.39002 -0.38600
O 	O 	0.56549 0.26008 0.49478 -0.38500
C 	C 	0.53261 0.26226 0.47182 0.29300
C 	C 	0.73005 0.42993 0.46527 0.28400
O 	O 	0.68024 0.39604 0.47076 -0.39600
O 	O 	0.55087 0.29267 0.44794 -0.39700
O 	O 	0.71798 0.31506 0.40366 -0.36400
C 	C 	0.74979 0.25756 0.46482 0.29000
O 	O 	0.64631 0.30895 0.55096 -0.38300
O 	O 	0.73091 0.32752 0.56801 -0.42300
H 	H 	0.62086 0.24820 0.44153 0.16300
H 	H 	0.74704 0.37934 0.51568 0.17400
C 	C 	0.68113 0.32513 0.61232 -0.09400
C 	C 	0.70748 0.31283 0.63631 0.01900
C 	C 	0.70590 0.32040 0.67149 -0.07900
C 	C 	0.67733 0.33956 0.68312 0.04700
C 	C 	0.64980 0.35076 0.65919 -0.07700
C 	C 	0.65166 0.34354 0.62386 0.02000
C 	C 	0.67903 0.35037 0.72063 -0.05400
C 	C 	0.63356 0.32134 0.73396 -0.05500
C 	C 	0.63769 0.31442 0.77031 0.04700
C 	C 	0.62305 0.33716 0.79495 -0.07700
C 	C 	0.62960 0.33258 0.82976 0.02000
C 	C 	0.65032 0.30469 0.84003 -0.09400
C 	C 	0.66369 0.28092 0.81506 0.01900
C 	C 	0.65734 0.28571 0.78043 -0.07900
H 	H 	0.72949 0.29766 0.62772 0.02000
H 	H 	0.72703 0.31145 0.68979 0.04400
H 	H 	0.62787 0.36589 0.66800 0.04900
H 	H 	0.63123 0.35329 0.60567 0.03400
H 	H 	0.71872 0.37470 0.73791 0.04300
H 	H 	0.59358 0.29742 0.71710 0.04300
H 	H 	0.60740 0.35900 0.78727 0.04900
H 	H 	0.61855 0.35062 0.84866 0.03100
H 	H 	0.67991 0.25950 0.82258 0.02200
H 	H 	0.66830 0.26765 0.76147 0.04600
C 	C 	0.67334 0.30660 0.10822 -0.08800
C 	C 	0.72533 0.34500 0.12863 0.01800
C 	C 	0.73362 0.34775 0.16452 -0.07500
C 	C 	0.69006 0.31184 0.18022 0.04700
C 	C 	0.63796 0.27323 0.15963 -0.07500
C 	C 	0.62984 0.27041 0.12377 0.02400
C 	C 	0.69801 0.31853 0.21851 -0.05200
C 	C 	0.67524 0.27584 0.23431 -0.05400
C 	C 	0.67724 0.28277 0.27209 0.04800
C 	C 	0.62845 0.25802 0.28500 -0.07600
C 	C 	0.62999 0.26706 0.32066 0.01900
C 	C 	0.68038 0.30006 0.34374 -0.08900
C 	C 	0.72923 0.32311 0.33092 0.02400
C 	C 	0.72767 0.31458 0.29522 -0.07600
H 	H 	0.75905 0.37333 0.11680 0.02000
H 	H 	0.77373 0.37819 0.18017 0.04700
H 	H 	0.60349 0.24648 0.17148 0.04800
H 	H 	0.58946 0.24085 0.10816 0.03300
H 	H 	0.72290 0.35891 0.23399 0.04300
H 	H 	0.65128 0.23541 0.21904 0.04300
H 	H 	0.58935 0.23284 0.26734 0.04700
H 	H 	0.59207 0.24880 0.33032 0.01900
H 	H 	0.76838 0.34871 0.34851 0.03600
H 	H 	0.76558 0.33313 0.28552 0.05000
C 	C 	0.91007 0.86351 0.47528 -0.02400
C 	C 	0.86267 0.82343 0.45107 -0.01700
C 	C 	0.83838 0.76913 0.45162 -0.05300
C 	C 	0.86116 0.75466 0.47648 0.02600
C 	C 	0.90693 0.79459 0.50163 -0.05300
C 	C 	0.93130 0.84880 0.50106 -0.01600
C 	C 	0.83910 0.69902 0.47521 -0.01600
C 	C 	0.82057 0.65241 0.47409 -0.02500
C 	C 	0.79813 0.59663 0.47258 0.04100
C 	C 	0.83255 0.58060 0.47346 -0.07100
C 	C 	0.81060 0.52631 0.47158 0.01700
C 	C 	0.75395 0.48765 0.46877 -0.09100
C 	C 	0.71972 0.50411 0.46824 0.01600
C 	C 	0.74177 0.55831 0.47011 -0.07200
H 	H 	0.84587 0.83426 0.43108 0.03800
H 	H 	0.80266 0.73842 0.43227 0.04400
H 	H 	0.92440 0.78371 0.52116 0.04400
H 	H 	0.87625 0.61011 0.47552 0.04800
H 	H 	0.83760 0.51440 0.47231 0.03200
H 	H 	0.67594 0.47484 0.46586 0.02700
H 	H 	0.71493 0.57043 0.46943 0.04800
C 	C 	0.76852 0.22464 0.45505 -0.09800
C 	C 	0.73277 0.16854 0.45195 0.01700
C 	C 	0.75263 0.13793 0.44897 -0.07400
C 	C 	0.80830 0.16308 0.44901 0.04000
C 	C 	0.84348 0.21864 0.45004 -0.07300
C 	C 	0.82366 0.24934 0.45294 0.01600
C 	C 	0.83021 0.13286 0.45127 -0.02600
C 	C 	0.84898 0.10795 0.45317 -0.01800
C 	C 	0.87262 0.07941 0.45648 0.02700
C 	C 	0.92427 0.10506 0.47722 -0.05500
C 	C 	0.91915 0.02431 0.46330 -0.02900
C 	C 	0.86696 0.99835 0.44290 -0.01100
C 	C 	0.84381 0.02588 0.43949 -0.05700
H 	H 	0.68994 0.14885 0.45291 0.02700
H 	H 	0.72505 0.09493 0.44779 0.04700
H 	H 	0.88652 0.23832 0.44979 0.04800
H 	H 	0.85165 0.29252 0.45513 0.02900
H 	H 	0.94656 0.14627 0.49065 0.04300
H 	H 	0.80370 0.00569 0.42355 0.04400
C 	C 	0.08506 0.03257 0.47100 -0.02300
C 	C 	0.11597 0.02142 0.49184 -0.01900
C 	C 	0.17230 0.05061 0.49300 -0.05200
C 	C 	0.19821 0.09116 0.47344 0.02500
C 	C 	0.16762 0.10255 0.45271 -0.05200
C 	C 	0.11125 0.07340 0.45147 -0.01700
C 	C 	0.25617 0.12096 0.47455 -0.01600
C 	C 	0.30471 0.14590 0.47550 -0.02600
C 	C 	0.36261 0.17616 0.47623 0.04200
C 	C 	0.39068 0.22628 0.46616 -0.07200
C 	C 	0.44639 0.25482 0.46534 0.01800
C 	C 	0.47454 0.23337 0.47456 -0.09100
C 	C 	0.44651 0.18351 0.48530 0.01800
C 	C 	0.39067 0.15498 0.48607 -0.07200
H 	H 	0.19578 0.04172 0.50914 0.04300
H 	H 	0.18745 0.13386 0.43749 0.04400
H 	H 	0.08790 0.08216 0.43508 0.04000
H 	H 	0.36925 0.24297 0.45868 0.04800
H 	H 	0.46765 0.29357 0.45749 0.03100
H 	H 	0.46766 0.16643 0.49240 0.03000
H 	H 	0.36917 0.11623 0.49395 0.04800
C 	C 	0.74024 0.50782 0.97998 -0.09200
C 	C 	0.75414 0.54388 0.01048 0.01900
C 	C 	0.77964 0.59821 0.00974 -0.06900
C 	C 	0.79155 0.61698 0.97860 0.03800
C 	C 	0.77851 0.58136 0.94821 -0.07100
C 	C 	0.75296 0.52694 0.94886 0.01800
C 	C 	0.81744 0.67288 0.97792 -0.02600
C 	C 	0.83913 0.71978 0.97765 -0.01700
C 	C 	0.86584 0.77597 0.97760 0.02300
C 	C 	0.90418 0.80183 0.95621 -0.05300
C 	C 	0.88500 0.86099 0.00222 -0.01400
C 	C 	0.85569 0.80548 0.00024 -0.05000
H 	H 	0.74512 0.52980 0.03472 0.02500
H 	H 	0.78999 0.62566 0.03337 0.04800
H 	H 	0.78783 0.59571 0.92406 0.04800
H 	H 	0.74221 0.49959 0.92509 0.03700
H 	H 	0.91195 0.77917 0.93849 0.04400
H 	H 	0.87792 0.88369 0.02045 0.03900
H 	H 	0.82592 0.78565 0.01678 0.04400
C 	C 	0.76277 0.22553 0.99761 -0.10300
C 	C 	0.73857 0.17577 0.00827 0.02200
C 	C 	0.76774 0.15431 0.01246 -0.07600
C 	C 	0.82125 0.18238 0.00617 0.04500
C 	C 	0.84639 0.23307 0.99712 -0.07900
C 	C 	0.81737 0.25468 0.99293 0.01700
C 	C 	0.84889 0.15755 0.00648 -0.02700
C 	C 	0.87221 0.13693 0.00671 -0.01600
C 	C 	0.89960 0.11186 0.00617 0.02700
C 	C 	0.94446 0.13176 0.98950 -0.05400
C 	C 	0.90350 0.03895 0.01773 -0.01900
C 	C 	0.87952 0.06573 0.02056 -0.05200
H 	H 	0.69667 0.15293 0.01224 0.03400
H 	H 	0.74819 0.11523 0.01972 0.04900
H 	H 	0.88797 0.25522 0.99254 0.04700
H 	H 	0.83701 0.29359 0.98544 0.02600
H 	H 	0.88758 0.00326 0.02892 0.04000
H 	H 	0.84491 0.05021 0.03356 0.04400
C 	C 	0.48544 0.21993 0.97870 -0.09000
C 	C 	0.45291 0.17114 0.99041 0.01200
C 	C 	0.39735 0.14689 0.98961 -0.07000
C 	C 	0.37373 0.17091 0.97697 0.04000
C 	C 	0.40522 0.21795 0.96359 -0.07100
C 	C 	0.46080 0.24231 0.96427 0.01300
C 	C 	0.31809 0.14890 0.97957 -0.02600
C 	C 	0.27141 0.12971 0.98203 -0.01600
C 	C 	0.21574 0.10595 0.98558 0.02300
C 	C 	0.18790 0.12487 0.97084 -0.05300
C 	C 	0.13318 0.10047 0.97342 -0.01700
C 	C 	0.10601 0.05686 0.99067 -0.02600
C 	C 	0.13452 0.03891 0.00611 -0.01400
C 	C 	0.18913 0.06336 0.00353 -0.05000
H 	H 	0.47089 0.15275 0.00102 0.03900
H 	H 	0.37299 0.11010 0.99961 0.04700
H 	H 	0.38697 0.23633 0.95334 0.04700
H 	H 	0.48490 0.27920 0.95438 0.03100
H 	H 	0.20838 0.15802 0.95708 0.04300
H 	H 	0.11160 0.11460 0.96131 0.03800
H 	H 	0.21061 0.04887 0.01523 0.04400
C 	C 	0.97134 0.02836 0.99583 0.11100
N 	N 	0.93861 0.97383 0.99128 -0.14000
C 	C 	0.96005 0.94634 0.98639 0.11800
C 	C 	0.94554 0.99695 0.46514 0.12100
C 	C 	0.94121 0.92007 0.47123 0.11900
H 	H 	0.96753 0.87940 0.52011 0.03800
C 	C 	0.94744 0.07769 0.48067 -0.01500
H 	H 	0.98742 0.09801 0.49681 0.03800
C 	C 	0.93356 0.85726 0.95817 -0.01600
C 	C 	0.92484 0.88730 0.98165 -0.02600
H 	H 	0.96362 0.87698 0.94180 0.03900
C 	C 	0.96850 0.10504 0.98660 -0.02400
C 	C 	0.94776 0.05810 0.00037 -0.01600
H 	H 	0.96015 0.16740 0.97828 0.04200
H 	H 	0.00246 0.12019 0.97304 0.04100
H 	H 	0.84480 0.95731 0.42922 0.03800
H 	H 	0.09645 0.99046 0.50732 0.04100
H 	H 	0.11422 0.00575 0.01986 0.04000
