data_crystal

_cell_length_a 18.01220
_cell_length_b 19.79938
_cell_length_c 26.62606
_cell_angle_alpha 95.42548
_cell_angle_beta  95.42467
_cell_angle_gamma 126.40630

_symmetry_space_group_name_	'P 1'
_symmetry_space_group_name_H-M	'P 1'

loop_
_symmetry_equiv_pos_as_xyz
  x,y,z

loop_
_atom_site_label
_atom_site_type_symbol
_atom_site_fract_x
_atom_site_fract_y
_atom_site_fract_z
_atom_site_charge
C 	C 	0.94442 0.03415 0.99027 0.01600
C 	C 	0.88819 0.94454 0.97949 -0.04400
C 	C 	0.92975 0.90341 0.97438 0.02600
C 	C 	0.02691 0.95154 0.97775 -0.05000
C 	C 	0.08357 0.04080 0.98867 0.01700
C 	C 	0.04247 0.08228 0.99563 -0.03700
H 	H 	0.81258 0.90702 0.97572 0.06100
H 	H 	0.05871 0.91945 0.97315 0.06100
H 	H 	0.08629 0.15149 0.00419 0.04500
C 	C 	0.91237 0.99870 0.47849 0.05400
C 	C 	0.00848 0.04615 0.47717 -0.07700
C 	C 	0.05018 0.00504 0.47280 0.02800
C 	C 	0.99574 0.91644 0.46943 -0.05300
C 	C 	0.90010 0.86888 0.47154 0.03500
C 	C 	0.85817 0.90995 0.47588 -0.06900
H 	H 	0.05064 0.11477 0.47962 0.06300
H 	H 	0.02832 0.88484 0.46659 0.06000
H 	H 	0.78403 0.87319 0.47732 0.06400
Cu	Cu	0.66799 0.26820 0.00840 0.92300
Cu	Cu	0.69404 0.21711 0.89379 0.89600
Cu	Cu	0.68726 0.37819 0.92867 0.91800
Cu	Cu	0.65513 0.42107 0.03395 0.90000
C 	C 	0.68661 0.34025 0.11303 0.32300
O 	O 	0.53051 0.20109 0.01341 -0.35000
C 	C 	0.69579 0.32418 0.82893 0.33300
O 	O 	0.72553 0.39525 0.00105 -0.64200
O 	O 	0.63609 0.25723 0.93268 -0.61900
O 	O 	0.75077 0.23079 0.01187 -0.36100
O 	O 	0.67659 0.13864 0.93519 -0.40300
O 	O 	0.69725 0.40880 0.10183 -0.36200
O 	O 	0.74461 0.49749 0.92896 -0.35200
C 	C 	0.73338 0.54256 0.96271 0.28700
C 	C 	0.48316 0.23067 0.00312 0.26200
O 	O 	0.52528 0.30555 0.98980 -0.36000
O 	O 	0.66994 0.50504 0.99198 -0.37300
O 	O 	0.70570 0.29794 0.08219 -0.33800
C 	C 	0.73430 0.16717 0.97909 0.30100
O 	O 	0.66140 0.35658 0.85430 -0.35600
O 	O 	0.74739 0.30713 0.85406 -0.39700
H 	H 	0.79427 0.43784 0.01300 0.17400
H 	H 	0.56733 0.21851 0.92014 0.17300
Cu	Cu	0.62872 0.22082 0.50477 0.93100
Cu	Cu	0.70765 0.21994 0.39794 0.88400
Cu	Cu	0.67653 0.34882 0.43305 0.90300
Cu	Cu	0.60985 0.36786 0.52880 0.90200
C 	C 	0.64477 0.28953 0.60904 0.32900
O 	O 	0.48931 0.16018 0.50080 -0.34600
C 	C 	0.66695 0.29165 0.32313 0.33200
O 	O 	0.69463 0.35137 0.50540 -0.63800
O 	O 	0.61846 0.22451 0.43003 -0.63400
O 	O 	0.69026 0.16353 0.50844 -0.34900
O 	O 	0.79117 0.24586 0.45800 -0.42100
O 	O 	0.59630 0.31525 0.59103 -0.36700
O 	O 	0.73801 0.47058 0.44203 -0.36200
C 	C 	0.71769 0.51216 0.47235 0.29400
C 	C 	0.44647 0.18779 0.47844 0.28600
O 	O 	0.49618 0.26554 0.46894 -0.37700
O 	O 	0.65272 0.47317 0.50087 -0.37700
O 	O 	0.65680 0.24125 0.57852 -0.33700
C 	C 	0.76397 0.18896 0.48754 0.29400
O 	O 	0.68204 0.35164 0.35916 -0.35700
O 	O 	0.65214 0.22171 0.33418 -0.39400
H 	H 	0.76057 0.39314 0.52370 0.18300
H 	H 	0.55378 0.18583 0.40970 0.18400
C 	C 	0.59794 0.22675 0.68766 0.10700
C 	C 	0.66310 0.29534 0.66493 -0.10300
C 	C 	0.73999 0.37293 0.69612 0.10000
C 	C 	0.75017 0.38287 0.74998 0.11000
C 	C 	0.68434 0.31467 0.77265 -0.11400
C 	C 	0.60898 0.23627 0.74151 0.10200
Br	Br	0.52047 0.14223 0.77279 -0.24000
Br	Br	0.49178 0.12083 0.64496 -0.18000
Br	Br	0.85348 0.49013 0.79277 -0.17500
Br	Br	0.83104 0.46551 0.66486 -0.21000
C 	C 	0.60188 0.30283 0.23991 0.10800
C 	C 	0.67294 0.30598 0.26985 -0.10800
C 	C 	0.75000 0.32264 0.24884 0.10500
C 	C 	0.75529 0.33478 0.19767 0.10500
C 	C 	0.68173 0.32744 0.16681 -0.10100
C 	C 	0.60664 0.31439 0.18863 0.10200
Br	Br	0.51221 0.31570 0.14893 -0.21600
Br	Br	0.49751 0.28189 0.26905 -0.18100
Br	Br	0.86734 0.36946 0.17170 -0.17500
Br	Br	0.85003 0.33171 0.29087 -0.22500
C 	C 	0.84541 0.77662 0.47216 0.01800
C 	C 	0.80287 0.71801 0.42553 -0.05400
C 	C 	0.76143 0.63147 0.42488 0.02900
C 	C 	0.76306 0.60318 0.47147 -0.07300
C 	C 	0.80373 0.66162 0.51813 0.01100
C 	C 	0.84478 0.74794 0.51872 -0.03500
H 	H 	0.80331 0.74007 0.38969 0.06100
H 	H 	0.80389 0.63987 0.55402 0.04600
C 	C 	0.88715 0.80701 0.56723 0.09900
C 	C 	0.71572 0.57204 0.37644 0.08900
N 	N 	0.92114 0.85440 0.60606 -0.10000
N 	N 	0.67914 0.52445 0.33763 -0.08700
C 	C 	0.79935 0.13799 0.48581 -0.08700
C 	C 	0.80421 0.10546 0.43805 0.01100
C 	C 	0.83801 0.05747 0.43518 -0.03200
C 	C 	0.86788 0.04185 0.48049 0.00500
C 	C 	0.86155 0.07292 0.52823 -0.05200
C 	C 	0.82748 0.12089 0.53116 0.03000
H 	H 	0.78125 0.11727 0.40305 0.01200
H 	H 	0.88474 0.06108 0.56313 0.05900
C 	C 	0.82433 0.15440 0.58085 0.08900
C 	C 	0.84213 0.02466 0.38555 0.08100
N 	N 	0.82176 0.18126 0.62065 -0.09100
N 	N 	0.84549 0.99834 0.34582 -0.09900
C 	C 	0.15223 0.05535 0.47471 0.01700
C 	C 	0.18752 0.07303 0.42905 -0.05500
C 	C 	0.28348 0.11524 0.42959 0.02600
C 	C 	0.34496 0.14074 0.47636 -0.07600
C 	C 	0.30960 0.12340 0.52202 0.01000
C 	C 	0.21377 0.08098 0.52145 -0.03500
H 	H 	0.13998 0.05256 0.39302 0.05900
H 	H 	0.35698 0.14364 0.55810 0.06000
C 	C 	0.17894 0.06378 0.56896 0.09900
C 	C 	0.31758 0.12903 0.38181 0.07700
N 	N 	0.15095 0.04994 0.60698 -0.10200
N 	N 	0.34483 0.13990 0.34350 -0.09400
C 	C 	0.87330 0.81041 0.97135 0.03300
C 	C 	0.83347 0.75614 0.92315 -0.05700
C 	C 	0.78876 0.66846 0.91941 0.02900
C 	C 	0.78501 0.63493 0.96448 -0.06300
C 	C 	0.82438 0.68947 0.01259 -0.00100
C 	C 	0.86757 0.77656 0.01626 -0.04700
H 	H 	0.83808 0.78235 0.88858 0.06300
H 	H 	0.82076 0.66374 0.04728 0.03600
C 	C 	0.90636 0.83112 0.06635 0.09600
C 	C 	0.74506 0.61338 0.86944 0.09600
N 	N 	0.93747 0.87491 0.10641 -0.10400
N 	N 	0.71008 0.56929 0.82940 -0.08800
C 	C 	0.79731 0.14281 0.98584 -0.07200
C 	C 	0.79445 0.10090 0.02608 0.00800
C 	C 	0.84587 0.06864 0.02947 -0.04800
C 	C 	0.89996 0.07755 0.99185 0.03800
C 	C 	0.90690 0.12372 0.95339 -0.06100
C 	C 	0.85684 0.15711 0.95050 0.03200
H 	H 	0.75080 0.09190 0.05413 0.05000
H 	H 	0.95008 0.13235 0.92514 0.06400
C 	C 	0.86837 0.20737 0.91175 0.04800
C 	C 	0.84340 0.02717 0.07179 0.08900
N 	N 	0.87781 0.24765 0.88069 -0.11900
N 	N 	0.84144 0.99391 0.10566 -0.09700
C 	C 	0.37960 0.17387 0.99660 -0.04500
C 	C 	0.32690 0.17833 0.95647 0.00400
C 	C 	0.23084 0.13701 0.95423 -0.03600
C 	C 	0.18628 0.09061 0.99256 0.03500
C 	C 	0.23806 0.08376 0.03177 -0.06500
C 	C 	0.33382 0.12356 0.03343 0.01300
H 	H 	0.36112 0.21494 0.92726 0.05000
H 	H 	0.20322 0.04602 0.06046 0.06100
C 	C 	0.38381 0.11107 0.07245 0.09900
C 	C 	0.17819 0.14148 0.91200 0.09600
N 	N 	0.42370 0.10087 0.10368 -0.09600
N 	N 	0.13595 0.14505 0.87822 -0.10800
