data_crystal

_cell_length_a 20.03120
_cell_length_b 20.76336
_cell_length_c 39.98204
_cell_angle_alpha 60.79341
_cell_angle_beta  118.95996
_cell_angle_gamma 133.36589

_symmetry_space_group_name_	'P 1'
_symmetry_space_group_name_H-M	'P 1'

loop_
_symmetry_equiv_pos_as_xyz
  x,y,z

loop_
_atom_site_label
_atom_site_type_symbol
_atom_site_fract_x
_atom_site_fract_y
_atom_site_fract_z
_atom_site_charge
Co	Co	0.04401 0.00943 0.03452 1.16700
Co	Co	0.12565 0.92012 0.03206 1.19000
C 	C 	0.22211 0.11873 0.01261 0.34100
O 	O 	0.05173 0.06544 0.18914 -0.37900
C 	C 	0.08028 0.01314 0.21267 0.27500
C 	C 	0.04068 0.19583 0.10535 0.40400
C 	C 	0.24793 0.92529 0.11152 0.35200
O 	O 	0.08864 0.97399 0.19800 -0.30100
O 	O 	0.24947 0.97186 0.07469 -0.33100
O 	O 	0.20104 0.91646 0.12995 -0.34400
O 	O 	0.06705 0.16811 0.09356 -0.36300
O 	O 	0.06769 0.93116 0.05922 -0.71200
O 	O 	0.17410 0.05151 0.99656 -0.42200
O 	O 	0.18259 0.11530 0.03236 -0.37000
Co	Co	0.07085 0.03623 0.53982 1.17400
Co	Co	0.12397 0.90681 0.55380 1.19400
O 	O 	0.06274 0.13630 0.53069 -0.41400
C 	C 	0.07862 0.19596 0.62915 0.34500
C 	C 	0.15442 0.85060 0.64012 0.34500
O 	O 	0.19927 0.91163 0.61157 -0.32500
O 	O 	0.08873 0.84677 0.64334 -0.34800
O 	O 	0.01678 0.12643 0.65063 -0.38600
O 	O 	0.09513 0.18363 0.60491 -0.34000
O 	O 	0.05121 0.93347 0.56293 -0.70800
O 	O 	0.22442 0.04264 0.53292 -0.43600
O 	O 	0.21548 0.10630 0.56211 -0.39800
H 	H 	0.03624 0.86374 0.88885 0.10100
H 	H 	0.00774 0.86086 0.82213 0.09800
H 	H 	0.01426 0.93417 0.75310 0.14000
C 	C 	0.10569 0.02460 0.31116 -0.11200
C 	C 	0.14117 0.07020 0.36680 -0.13000
C 	C 	0.16027 0.09158 0.33191 0.04100
C 	C 	0.10528 0.00000 0.25595 -0.22400
H 	H 	0.18529 0.12216 0.38285 0.08300
H 	H 	0.21661 0.16073 0.32065 0.04600
H 	H 	0.04416 0.89170 0.44090 0.04500
H 	H 	0.10652 0.94165 0.27566 0.16500
C 	C 	0.12188 0.42225 0.59449 -0.10600
C 	C 	0.15140 0.44104 0.63044 -0.04700
C 	C 	0.12180 0.28828 0.62938 -0.13500
C 	C 	0.11053 0.34840 0.59392 0.36700
F 	F 	0.08612 0.33393 0.55884 -0.40000
H 	H 	0.11427 0.46886 0.56690 0.13600
C 	C 	0.11746 0.63543 0.66217 0.32000
C 	C 	0.09550 0.68916 0.65962 -0.07000
C 	C 	0.16843 0.77833 0.66488 -0.12500
H 	H 	0.02260 0.66548 0.64939 0.10600
F 	F 	0.04688 0.55305 0.65317 -0.40500
C 	C 	0.10542 0.30593 0.14044 -0.05100
C 	C 	0.10236 0.29060 0.10896 -0.14500
C 	C 	0.15172 0.39457 0.14179 0.32000
H 	H 	0.07149 0.24877 0.16392 0.09400
C 	C 	0.23638 0.71394 0.14733 0.32400
C 	C 	0.22181 0.77370 0.14478 -0.06400
H 	H 	0.16024 0.74586 0.15265 0.11300
F 	F 	0.17521 0.62263 0.16106 -0.39400
N 	N 	0.25731 0.60888 0.12445 -0.10000
N 	N 	0.18145 0.55511 0.65069 -0.09200
C 	C 	0.06652 0.98161 0.38123 0.09600
C 	C 	0.05349 0.95483 0.42073 0.12500
C 	C 	0.11410 0.05293 0.27046 0.07900
C 	C 	0.21267 0.66992 0.67161 -0.04700
C 	C 	0.14478 0.36531 0.07833 0.38000
C 	C 	0.19282 0.45441 0.08012 -0.10700
C 	C 	0.19878 0.46970 0.11244 -0.04200
H 	H 	0.22921 0.51190 0.05731 0.13600
F 	F 	0.13889 0.35186 0.04674 -0.41500
C 	C 	0.14895 0.30573 0.66534 -0.06700
O 	O 	0.04232 0.03150 0.48238 -0.42300
C 	C 	0.16200 0.38057 0.66589 0.32200
Co	Co	0.06055 0.87419 0.10650 1.20600
C 	C 	0.04695 0.98149 0.47263 0.48000
C 	C 	0.05048 0.00505 0.43160 -0.29600
H 	H 	0.15685 0.25930 0.69295 0.10000
O 	O 	0.08543 0.79040 0.06720 -0.40600
O 	O 	0.03948 0.90649 0.49747 -0.37600
C 	C 	0.20209 0.53542 0.63056 0.19700
O 	O 	0.03034 0.76835 0.57341 -0.37500
H 	H 	0.05473 0.06558 0.41077 0.13100
H 	H 	0.12325 0.11663 0.25138 0.03900
C 	C 	0.24102 0.64079 0.65656 0.19000
F 	F 	0.19110 0.39774 0.70096 -0.40800
O 	O 	0.03149 0.83816 0.15747 -0.40000
C 	C 	0.03175 0.93566 0.32590 0.12700
C 	C 	0.01289 0.91425 0.36085 -0.04200
F 	F 	0.15654 0.40783 0.17318 -0.40400
C 	C 	0.00668 0.72824 0.07947 0.43100
C 	C 	0.26084 0.80329 0.68268 0.37000
O 	O 	0.00253 0.08172 0.02781 -0.42600
Co	Co	0.99039 0.09197 0.56834 1.16900
C 	C 	0.99028 0.88117 0.86444 -0.05900
C 	C 	0.28214 0.86824 0.12899 -0.12800
C 	C 	0.26568 0.10541 0.55015 0.36600
C 	C 	0.97479 0.88034 0.82642 -0.05300
H 	H 	0.94981 0.82506 0.93440 0.05300
O 	O 	0.95963 0.13846 0.11515 -0.45900
H 	H 	0.31905 0.20062 0.95844 0.10000
Co	Co	0.97069 0.04337 0.07832 1.14800
C 	C 	0.31374 0.74879 0.13551 -0.04900
O 	O 	0.95408 0.92051 0.67683 -0.38300
C 	C 	0.94195 0.91074 0.73737 -0.18000
O 	O 	0.85141 0.93990 0.67256 -0.38700
C 	C 	0.91390 0.92256 0.69412 0.34200
C 	C 	0.94260 0.89928 0.87138 0.03600
C 	C 	0.94398 0.87990 0.91277 0.00800
F 	F 	0.33124 0.88553 0.69185 -0.39200
C 	C 	0.36368 0.90320 0.12053 0.36600
F 	F 	0.42560 0.99463 0.10726 -0.40800
H 	H 	0.31862 0.26703 0.49571 0.10100
C 	C 	0.70301 0.23361 0.05112 0.19400
N 	N 	0.77962 0.31020 0.06452 -0.11000
C 	C 	0.76774 0.36236 0.06904 0.18400
N 	N 	0.67987 0.33813 0.06014 -0.13900
C 	C 	0.60392 0.26358 0.04582 0.19700
N 	N 	0.61524 0.21097 0.04143 -0.12800
C 	C 	0.68911 0.31797 0.48376 0.18000
N 	N 	0.60375 0.27043 0.49098 -0.11500
C 	C 	0.57733 0.31592 0.49096 0.18800
N 	N 	0.63480 0.40806 0.48260 -0.12400
C 	C 	0.72441 0.45426 0.48132 0.18300
N 	N 	0.74986 0.41009 0.47953 -0.12400
C 	C 	0.33021 0.68707 0.13743 0.19400
C 	C 	0.27573 0.55977 0.12148 0.19400
N 	N 	0.36590 0.58878 0.13134 -0.12200
C 	C 	0.43791 0.66480 0.14507 0.20100
N 	N 	0.42018 0.71362 0.14838 -0.13000
N 	N 	0.32394 0.70311 0.64509 -0.12600
C 	C 	0.34344 0.68288 0.62498 0.19600
N 	N 	0.28042 0.60098 0.61621 -0.13600
Co	Co	0.98934 0.90996 0.15090 1.17900
Co	Co	0.91819 0.01103 0.15302 1.12700
O 	O 	0.95828 0.98304 0.12474 -0.71400
O 	O 	0.98468 0.93564 0.08815 -0.56200
C 	C 	0.82396 0.81181 0.18178 0.35500
C 	C 	0.97137 0.92428 0.96772 0.32000
O 	O 	0.87459 0.88567 0.19355 -0.36400
O 	O 	0.86109 0.80239 0.16635 -0.37800
O 	O 	0.99584 0.86947 0.99330 -0.39400
O 	O 	0.97059 0.97386 0.97957 -0.34000
C 	C 	0.78827 0.00172 0.07493 0.24900
O 	O 	0.79104 0.95629 0.11220 -0.27900
O 	O 	0.83634 0.01602 0.05501 -0.37700
O 	O 	0.97959 0.74859 0.09501 -0.40100
Co	Co	0.98318 0.85574 0.59584 1.17700
Co	Co	0.89089 0.90600 0.61909 1.20800
C 	C 	0.93959 0.72858 0.56124 0.31100
Co	Co	0.87780 0.04794 0.62299 1.14000
O 	O 	0.91910 0.01198 0.59992 -0.81800
O 	O 	0.89348 0.80404 0.62654 -0.44600
O 	O 	0.95476 0.96132 0.56944 -0.54100
C 	C 	0.70287 0.87453 0.60202 0.35000
O 	O 	0.74530 0.96317 0.59219 -0.33400
O 	O 	0.74593 0.83904 0.60935 -0.35300
C 	C 	0.87012 0.15517 0.53948 0.36600
O 	O 	0.89933 0.16038 0.57583 -0.40300
O 	O 	0.89839 0.12790 0.52868 -0.36500
O 	O 	0.90139 0.75269 0.56755 -0.35200
C 	C 	0.91277 0.89948 0.79465 0.02500
C 	C 	0.86874 0.92203 0.80127 -0.02100
C 	C 	0.88272 0.92104 0.83939 -0.02700
C 	C 	0.94770 0.93313 0.92490 -0.12500
C 	C 	0.88109 0.88205 0.75584 0.03000
H 	H 	0.82034 0.93648 0.77707 0.07000
H 	H 	0.84357 0.93299 0.84418 0.07000
H 	H 	0.94160 0.98795 0.90362 0.10300
H 	H 	0.80794 0.85508 0.73990 0.05600
H 	H 	0.98710 0.88379 0.30974 0.02100
H 	H 	0.95634 0.84519 0.37206 0.05100
C 	C 	0.45312 0.78431 0.58152 -0.10700
C 	C 	0.43846 0.74042 0.61975 -0.06100
C 	C 	0.50812 0.73296 0.65139 0.32400
C 	C 	0.59125 0.76835 0.64472 -0.07000
C 	C 	0.60682 0.81397 0.60662 -0.13100
C 	C 	0.53677 0.82067 0.57492 0.37000
F 	F 	0.55103 0.86459 0.53784 -0.40800
H 	H 	0.39851 0.78805 0.55679 0.12600
H 	H 	0.64567 0.76423 0.66946 0.09800
F 	F 	0.49359 0.68848 0.68843 -0.41600
C 	C 	0.28266 0.74841 0.68658 -0.11100
H 	H 	0.35552 0.77172 0.69747 0.13400
C 	C 	0.59147 0.70847 0.19368 -0.11000
C 	C 	0.53494 0.69437 0.15599 -0.05200
C 	C 	0.56964 0.70343 0.12955 0.33400
C 	C 	0.66206 0.73149 0.14002 -0.06000
C 	C 	0.72120 0.75264 0.17658 -0.13700
C 	C 	0.68387 0.73640 0.20416 0.36300
F 	F 	0.73878 0.75195 0.24045 -0.43100
H 	H 	0.56396 0.69826 0.21477 0.12000
H 	H 	0.68980 0.74322 0.11858 0.10700
F 	F 	0.51511 0.68884 0.09310 -0.40400
C 	C 	0.37881 0.84394 0.12339 -0.11400
H 	H 	0.44005 0.87207 0.11514 0.13500
C 	C 	0.80920 0.31926 0.47763 -0.11400
C 	C 	0.72204 0.26890 0.48633 -0.05400
C 	C 	0.67306 0.17345 0.50168 0.31500
C 	C 	0.71704 0.13244 0.51334 -0.07800
C 	C 	0.81038 0.18589 0.51055 -0.13500
C 	C 	0.85327 0.27799 0.48985 0.36400
F 	F 	0.94120 0.32951 0.48461 -0.41600
H 	H 	0.84523 0.39145 0.46328 0.11800
H 	H 	0.68146 0.06025 0.52765 0.10100
F 	F 	0.58468 0.12081 0.50671 -0.43300
C 	C 	0.90039 0.59302 0.55495 -0.08600
C 	C 	0.88160 0.65689 0.54067 -0.12700
C 	C 	0.82436 0.66436 0.50275 0.35300
C 	C 	0.78310 0.60554 0.48018 -0.11300
C 	C 	0.79705 0.53756 0.49565 -0.06700
C 	C 	0.86056 0.53545 0.53224 0.32200
F 	F 	0.87741 0.47215 0.54727 -0.42800
H 	H 	0.94733 0.58908 0.58356 0.11500
H 	H 	0.73537 0.60882 0.45171 0.12000
F 	F 	0.81017 0.72962 0.48747 -0.42700
C 	C 	0.37090 0.25321 0.51077 -0.06600
C 	C 	0.36128 0.18548 0.54613 -0.13800
C 	C 	0.43347 0.17347 0.56651 0.35600
C 	C 	0.50060 0.21158 0.54745 -0.11300
C 	C 	0.49991 0.26713 0.50895 -0.05800
C 	C 	0.43747 0.29131 0.49142 0.31600
F 	F 	0.43969 0.34978 0.45523 -0.41900
H 	H 	0.55316 0.19814 0.56261 0.11900
F 	F 	0.43049 0.11452 0.60260 -0.43400
C 	C 	0.80419 0.14741 0.03920 -0.09400
C 	C 	0.75012 0.05447 0.05845 -0.09400
C 	C 	0.67147 0.01857 0.06956 0.26700
C 	C 	0.65385 0.07681 0.06557 -0.09000
C 	C 	0.71419 0.17128 0.05022 -0.07500
C 	C 	0.78718 0.20587 0.03556 0.33000
F 	F 	0.84286 0.29629 0.01858 -0.40900
H 	H 	0.86368 0.17562 0.02963 0.10300
H 	H 	0.59567 0.04898 0.07596 0.09200
F 	F 	0.61509 0.92795 0.08612 -0.36900
C 	C 	0.95515 0.61283 0.05136 -0.04600
C 	C 	0.95528 0.63243 0.08043 -0.18900
C 	C 	0.90947 0.56054 0.11081 0.38500
C 	C 	0.85677 0.47004 0.10983 -0.12100
C 	C 	0.84928 0.45069 0.07856 -0.04900
C 	C 	0.90322 0.52242 0.05067 0.31100
F 	F 	0.89880 0.50465 0.02088 -0.40700
H 	H 	0.99271 0.66776 0.02846 0.08000
H 	H 	0.81705 0.41488 0.13206 0.11400
F 	F 	0.91548 0.57811 0.14110 -0.43600
C 	C 	0.47596 0.22379 0.06429 -0.10500
C 	C 	0.50977 0.23948 0.03562 -0.07200
C 	C 	0.45452 0.23523 0.99698 0.32900
C 	C 	0.36296 0.20791 0.98795 -0.06300
C 	C 	0.32495 0.18168 0.01775 -0.14700
C 	C 	0.38404 0.19549 0.05541 0.36300
F 	F 	0.35002 0.17433 0.08426 -0.44200
H 	H 	0.51976 0.23030 0.09386 0.11300
F 	F 	0.48893 0.25590 0.96839 -0.41700
