data_crystal

_cell_length_a 26.15586
_cell_length_b 26.17409
_cell_length_c 34.73902
_cell_angle_alpha 95.50818
_cell_angle_beta  95.50692
_cell_angle_gamma 125.76961

_symmetry_space_group_name_	'P 1'
_symmetry_space_group_name_H-M	'P 1'

loop_
_symmetry_equiv_pos_as_xyz
  x,y,z

loop_
_atom_site_label
_atom_site_type_symbol
_atom_site_fract_x
_atom_site_fract_y
_atom_site_fract_z
_atom_site_charge
C 	C 	0.97262 0.03627 0.99455 0.10300
N 	N 	0.03570 0.06943 0.99181 -0.13400
C 	C 	0.06262 0.03819 0.98790 0.11000
N 	N 	0.02651 0.97408 0.98708 -0.13400
C 	C 	0.96359 0.94079 0.98944 0.10500
N 	N 	0.93672 0.97191 0.99315 -0.13700
C 	C 	0.93820 0.99918 0.45950 0.10300
N 	N 	0.90509 0.93621 0.46242 -0.13700
C 	C 	0.93655 0.90958 0.46688 0.10400
N 	N 	0.00078 0.94583 0.46801 -0.13400
C 	C 	0.03401 0.00863 0.46548 0.11200
N 	N 	0.00269 0.03523 0.46129 -0.13400
Cu	Cu	0.63723 0.23908 0.00095 0.92600
Cu	Cu	0.67180 0.23910 0.91277 0.86900
Cu	Cu	0.67237 0.34418 0.95370 0.89700
Cu	Cu	0.65684 0.36579 0.03662 0.89300
C 	C 	0.67068 0.28469 0.08476 0.28500
O 	O 	0.54788 0.21058 0.00683 -0.36200
C 	C 	0.63982 0.30369 0.86627 0.28200
O 	O 	0.69627 0.33944 0.00648 -0.64000
O 	O 	0.62233 0.24905 0.94626 -0.64200
O 	O 	0.67045 0.18791 0.99108 -0.37100
O 	O 	0.73628 0.25313 0.95217 -0.44000
O 	O 	0.64640 0.31629 0.07933 -0.38400
O 	O 	0.72621 0.43667 0.96382 -0.38500
C 	C 	0.72481 0.47370 0.99172 0.28600
C 	C 	0.52708 0.24378 0.99708 0.27500
O 	O 	0.56814 0.30398 0.99391 -0.39200
O 	O 	0.70128 0.45343 0.02371 -0.39500
O 	O 	0.66521 0.24481 0.05536 -0.36200
C 	C 	0.72196 0.21149 0.97529 0.27700
O 	O 	0.66078 0.34914 0.89736 -0.38300
O 	O 	0.62847 0.24843 0.86994 -0.42000
H 	H 	0.74301 0.36322 0.01560 0.16500
H 	H 	0.57676 0.22586 0.93385 0.17200
Cu	Cu	0.73581 0.33518 0.45327 0.92700
Cu	Cu	0.73621 0.29882 0.54093 0.86900
Cu	Cu	0.63100 0.29916 0.50104 0.89700
Cu	Cu	0.60963 0.31744 0.41882 0.89400
C 	C 	0.69069 0.30514 0.36952 0.28500
O 	O 	0.76507 0.42511 0.44854 -0.36000
C 	C 	0.67249 0.33065 0.58837 0.28200
O 	O 	0.63546 0.27668 0.44788 -0.63900
O 	O 	0.72616 0.34896 0.50820 -0.64300
O 	O 	0.78621 0.30085 0.46201 -0.37300
O 	O 	0.72107 0.23466 0.50082 -0.44100
O 	O 	0.65912 0.32922 0.37585 -0.38400
O 	O 	0.53846 0.24579 0.49099 -0.38500
C 	C 	0.50158 0.24819 0.46356 0.28400
C 	C 	0.73219 0.44601 0.45888 0.27400
O 	O 	0.67206 0.40502 0.46227 -0.39300
O 	O 	0.52209 0.27307 0.43196 -0.39200
O 	O 	0.72959 0.30839 0.39856 -0.36100
C 	C 	0.76236 0.24898 0.47742 0.27800
O 	O 	0.62618 0.30853 0.55757 -0.38300
O 	O 	0.72760 0.34185 0.58429 -0.42100
H 	H 	0.61137 0.23007 0.43818 0.16600
H 	H 	0.74951 0.39437 0.52097 0.17200
C 	C 	0.66006 0.33720 0.62838 -0.07500
C 	C 	0.70959 0.38717 0.65819 0.00200
C 	C 	0.70235 0.38739 0.69753 -0.05400
C 	C 	0.64433 0.33779 0.70772 0.00400
C 	C 	0.59442 0.28710 0.67743 0.00700
C 	C 	0.60169 0.28863 0.63791 -0.02000
C 	C 	0.54006 0.23301 0.68712 -0.04200
C 	C 	0.53684 0.22628 0.72633 -0.04200
C 	C 	0.58590 0.27545 0.75668 0.00700
C 	C 	0.63723 0.33378 0.74773 0.00400
C 	C 	0.67972 0.38629 0.77893 -0.05400
C 	C 	0.67829 0.37725 0.81794 0.00000
C 	C 	0.63292 0.31663 0.82644 -0.07500
C 	C 	0.58476 0.26675 0.79596 -0.01900
H 	H 	0.75494 0.42468 0.65106 0.03100
H 	H 	0.74348 0.42364 0.71989 0.03900
H 	H 	0.56359 0.24961 0.61485 0.04000
H 	H 	0.50153 0.19450 0.66408 0.03700
H 	H 	0.49613 0.18253 0.73311 0.03700
H 	H 	0.71217 0.43428 0.77335 0.04100
H 	H 	0.71352 0.41707 0.84150 0.03600
H 	H 	0.54746 0.22087 0.80271 0.03800
C 	C 	0.68694 0.27997 0.12527 -0.07000
C 	C 	0.64844 0.22176 0.13827 0.00700
C 	C 	0.65487 0.21999 0.17846 -0.05300
C 	C 	0.69851 0.27732 0.20629 0.00600
C 	C 	0.74330 0.33392 0.19262 0.00900
C 	C 	0.73616 0.33537 0.15224 -0.01900
C 	C 	0.79413 0.38852 0.21944 -0.04100
C 	C 	0.79896 0.38861 0.25978 -0.04000
C 	C 	0.75062 0.33581 0.27416 0.00800
C 	C 	0.69895 0.27983 0.24750 0.00500
C 	C 	0.64610 0.23124 0.26235 -0.05100
C 	C 	0.64575 0.23774 0.30273 0.00100
C 	C 	0.69730 0.29261 0.32890 -0.06900
C 	C 	0.75058 0.34046 0.31478 -0.01400
H 	H 	0.61236 0.17810 0.11732 0.03900
H 	H 	0.62763 0.17401 0.18752 0.04300
H 	H 	0.76767 0.37983 0.14192 0.02900
H 	H 	0.83000 0.43116 0.20903 0.03700
H 	H 	0.83880 0.43122 0.28004 0.03900
H 	H 	0.60331 0.19078 0.24278 0.04100
H 	H 	0.60387 0.20125 0.31346 0.02400
H 	H 	0.78997 0.38339 0.33512 0.04300
C 	C 	0.91095 0.67342 0.51060 -0.03700
C 	C 	0.93843 0.73856 0.51301 -0.05200
C 	C 	0.90496 0.75765 0.49269 0.03300
C 	C 	0.84284 0.71091 0.47048 -0.02300
C 	C 	0.81486 0.64529 0.46840 0.00000
C 	C 	0.84943 0.62651 0.48811 0.00900
C 	C 	0.75278 0.59850 0.44611 0.00900
C 	C 	0.71897 0.61760 0.42622 -0.03700
C 	C 	0.74707 0.68280 0.42789 -0.05200
C 	C 	0.80919 0.72974 0.44968 0.03400
C 	C 	0.83877 0.79518 0.45004 -0.06200
C 	C 	0.90162 0.84176 0.47110 0.00600
C 	C 	0.93360 0.82283 0.49344 -0.06100
C 	C 	0.82223 0.56110 0.48482 -0.02300
C 	C 	0.76046 0.51449 0.46258 -0.06400
C 	C 	0.72561 0.53324 0.44358 -0.02200
H 	H 	0.93770 0.65951 0.52609 0.03500
H 	H 	0.98611 0.77417 0.53031 0.03900
H 	H 	0.67113 0.58199 0.40913 0.03600
H 	H 	0.72064 0.69670 0.41200 0.04100
H 	H 	0.81390 0.80967 0.43296 0.05100
H 	H 	0.98142 0.85883 0.51055 0.04800
H 	H 	0.84878 0.54643 0.49969 0.03500
H 	H 	0.67795 0.49707 0.42633 0.03400
C 	C 	0.90872 0.20945 0.42601 -0.03800
C 	C 	0.93266 0.17364 0.42300 -0.05100
C 	C 	0.90475 0.11752 0.43890 0.03300
C 	C 	0.85133 0.09633 0.45702 -0.02300
C 	C 	0.82692 0.13214 0.45980 -0.00200
C 	C 	0.85634 0.18943 0.44477 0.01000
C 	C 	0.77406 0.11139 0.47840 0.00900
C 	C 	0.74519 0.05445 0.49346 -0.03900
C 	C 	0.76973 0.01919 0.49100 -0.05100
C 	C 	0.82325 0.04021 0.47325 0.03300
C 	C 	0.85011 0.00684 0.47254 -0.06100
C 	C 	0.90483 0.02916 0.45572 0.00700
C 	C 	0.93073 0.08337 0.43784 -0.06100
C 	C 	0.83396 0.22672 0.44946 -0.02600
C 	C 	0.78238 0.20708 0.46909 -0.06700
C 	C 	0.75157 0.14850 0.48256 -0.02800
H 	H 	0.93134 0.25308 0.41406 0.03800
H 	H 	0.97348 0.19009 0.40877 0.04000
H 	H 	0.70422 0.03787 0.50757 0.03400
H 	H 	0.74745 0.97586 0.50326 0.04000
H 	H 	0.82981 0.96490 0.48614 0.05100
H 	H 	0.97186 0.09968 0.42390 0.04900
H 	H 	0.85738 0.27138 0.43860 0.04800
H 	H 	0.71090 0.13242 0.49691 0.03800
C 	C 	0.29579 0.21368 0.42335 -0.03700
C 	C 	0.23020 0.18020 0.42367 -0.05100
C 	C 	0.20012 0.13185 0.44613 0.03400
C 	C 	0.23645 0.11760 0.46883 -0.02200
C 	C 	0.30240 0.15114 0.46839 -0.00100
C 	C 	0.33209 0.19913 0.44542 0.01100
C 	C 	0.33847 0.13614 0.49057 0.01100
C 	C 	0.30860 0.08844 0.51349 -0.03700
C 	C 	0.24314 0.05527 0.51401 -0.05100
C 	C 	0.20668 0.06926 0.49155 0.03400
C 	C 	0.14072 0.03493 0.49114 -0.05900
C 	C 	0.10407 0.04793 0.46781 0.00600
C 	C 	0.13403 0.09694 0.44573 -0.06000
C 	C 	0.39752 0.23151 0.44447 -0.02500
C 	C 	0.43334 0.21576 0.46593 -0.06100
C 	C 	0.40373 0.16844 0.48923 -0.02400
H 	H 	0.31822 0.25065 0.40572 0.03700
H 	H 	0.20277 0.19169 0.40626 0.04200
H 	H 	0.33598 0.07678 0.53077 0.03600
H 	H 	0.22073 0.01836 0.53169 0.04100
H 	H 	0.11779 0.99790 0.50874 0.05000
H 	H 	0.10573 0.10690 0.42768 0.05100
H 	H 	0.42051 0.26876 0.42704 0.04200
H 	H 	0.43118 0.15614 0.50579 0.04500
C 	C 	0.75980 0.67948 0.03251 -0.03800
C 	C 	0.79310 0.74498 0.03209 -0.05100
C 	C 	0.84102 0.77495 0.00930 0.03200
C 	C 	0.85502 0.73860 0.98640 -0.02100
C 	C 	0.82164 0.67273 0.98691 0.00100
C 	C 	0.77409 0.64314 0.01020 0.00900
C 	C 	0.83636 0.63663 0.96448 0.01000
C 	C 	0.88366 0.66640 0.94127 -0.03800
C 	C 	0.91670 0.73178 0.94069 -0.05100
C 	C 	0.90296 0.76826 0.96337 0.03300
C 	C 	0.93715 0.83414 0.96370 -0.06100
C 	C 	0.92438 0.87081 0.98721 0.00800
C 	C 	0.87575 0.84096 0.00959 -0.06300
C 	C 	0.74183 0.57779 0.01119 -0.02700
C 	C 	0.75724 0.54193 0.98942 -0.05900
C 	C 	0.80416 0.57144 0.96584 -0.02400
H 	H 	0.72316 0.65713 0.05038 0.03600
H 	H 	0.78180 0.77242 0.04967 0.04100
H 	H 	0.89511 0.63901 0.92380 0.03600
H 	H 	0.95329 0.75411 0.92278 0.03900
H 	H 	0.97390 0.85700 0.94589 0.04900
H 	H 	0.86597 0.86928 0.02778 0.05000
H 	H 	0.70491 0.55487 0.02887 0.04200
H 	H 	0.81623 0.54396 0.94908 0.04500
C 	C 	0.91414 0.22537 0.95636 -0.03800
C 	C 	0.94963 0.20108 0.95916 -0.05400
C 	C 	0.92983 0.14914 0.97826 0.03700
C 	C 	0.87467 0.12236 0.99544 -0.02300
C 	C 	0.83868 0.14657 0.99239 0.00100
C 	C 	0.85823 0.19787 0.97249 0.00800
C 	C 	0.78246 0.11856 0.00854 0.00800
C 	C 	0.76359 0.06769 0.02853 -0.03700
C 	C 	0.79952 0.04389 0.03174 -0.05200
C 	C 	0.85465 0.07047 0.01486 0.03300
C 	C 	0.88900 0.04470 0.01630 -0.06500
C 	C 	0.94234 0.06939 0.99764 0.01200
C 	C 	0.96348 0.12258 0.97946 -0.07100
C 	C 	0.82103 0.22025 0.96823 -0.02800
C 	C 	0.76364 0.19104 0.98306 -0.06500
C 	C 	0.74514 0.14092 0.00384 -0.02700
H 	H 	0.92979 0.26512 0.94123 0.03300
H 	H 	0.99218 0.22233 0.94612 0.04000
H 	H 	0.72077 0.04614 0.04132 0.03800
H 	H 	0.78397 0.00424 0.04695 0.04100
H 	H 	0.87357 0.00470 0.03119 0.05100
H 	H 	0.00469 0.14188 0.96520 0.05800
H 	H 	0.83617 0.25968 0.95285 0.03800
H 	H 	0.70140 0.11871 0.01571 0.04800
C 	C 	0.28929 0.22812 0.02698 -0.05100
C 	C 	0.35460 0.25642 0.02881 -0.03600
C 	C 	0.37402 0.22272 0.00919 0.00800
C 	C 	0.32742 0.16052 0.98703 0.00200
C 	C 	0.26167 0.13233 0.98480 -0.02100
C 	C 	0.24253 0.16589 0.00533 0.03200
C 	C 	0.21512 0.07009 0.96273 0.03400
C 	C 	0.23453 0.03672 0.94268 -0.05000
C 	C 	0.29979 0.06443 0.94522 -0.03700
C 	C 	0.34651 0.12607 0.96758 0.01000
C 	C 	0.41204 0.15349 0.97101 -0.02300
C 	C 	0.45846 0.21535 0.99316 -0.06100
C 	C 	0.43941 0.25010 0.01188 -0.02400
C 	C 	0.17697 0.13613 0.00481 -0.06300
C 	C 	0.13058 0.07319 0.98388 0.00900
C 	C 	0.14982 0.04125 0.96184 -0.06000
H 	H 	0.27514 0.25449 0.04266 0.04200
H 	H 	0.39006 0.30435 0.04579 0.03600
H 	H 	0.19907 0.98895 0.92550 0.04100
H 	H 	0.31393 0.03775 0.92994 0.03600
H 	H 	0.42693 0.12703 0.95635 0.03600
H 	H 	0.47542 0.29783 0.02905 0.03400
H 	H 	0.16224 0.16097 0.02166 0.05200
H 	H 	0.11398 0.99333 0.94485 0.05100
