data_crystal

_cell_length_a 25.64654
_cell_length_b 25.62361
_cell_length_c 30.95429
_cell_angle_alpha 61.27120
_cell_angle_beta  118.43149
_cell_angle_gamma 133.24906

_symmetry_space_group_name_	'P 1'
_symmetry_space_group_name_H-M	'P 1'

loop_
_symmetry_equiv_pos_as_xyz
  x,y,z

loop_
_atom_site_label
_atom_site_type_symbol
_atom_site_fract_x
_atom_site_fract_y
_atom_site_fract_z
_atom_site_charge
C 	C 	0.71414 0.27797 0.03868 0.12900
N 	N 	0.75343 0.34968 0.03879 -0.13900
C 	C 	0.72518 0.36972 0.05035 0.13300
N 	N 	0.65919 0.31836 0.06270 -0.13900
C 	C 	0.62065 0.24693 0.06362 0.12300
N 	N 	0.64767 0.22656 0.05116 -0.13700
C 	C 	0.70047 0.29358 0.53201 0.12900
N 	N 	0.73964 0.36347 0.53608 -0.13900
C 	C 	0.70544 0.38366 0.54046 0.13100
N 	N 	0.63320 0.33475 0.54051 -0.14000
C 	C 	0.59471 0.26492 0.53795 0.12200
N 	N 	0.62834 0.24395 0.53401 -0.13800
C 	C 	0.30673 0.66627 0.24381 0.12700
N 	N 	0.26575 0.59354 0.24538 -0.13700
C 	C 	0.29578 0.56790 0.24239 0.12000
N 	N 	0.36600 0.61463 0.23768 -0.13800
C 	C 	0.40626 0.68730 0.23430 0.11900
N 	N 	0.37674 0.71360 0.23723 -0.13900
C 	C 	0.30391 0.68887 0.73868 0.11600
N 	N 	0.25895 0.61621 0.73796 -0.13800
C 	C 	0.28514 0.58786 0.73347 0.13200
N 	N 	0.35511 0.63166 0.72926 -0.14000
C 	C 	0.39913 0.70406 0.72796 0.13200
N 	N 	0.37400 0.73310 0.73286 -0.14000
Co	Co	0.10559 0.97323 0.16110 1.18000
Co	Co	0.91377 0.97481 0.11601 1.17400
Co	Co	0.04529 0.01971 0.20122 1.19100
Co	Co	0.96933 0.91832 0.08124 1.17600
C 	C 	0.14343 0.87004 0.19956 0.30400
Co	Co	0.08894 0.90162 0.08896 1.16700
Co	Co	0.93042 0.04665 0.18807 1.17600
C 	C 	0.00284 0.94050 0.98935 0.31600
O 	O 	0.03337 0.11340 0.22982 -0.40000
O 	O 	0.96739 0.01384 0.16570 -0.74900
C 	C 	0.09221 0.15770 0.21233 0.32400
O 	O 	0.12651 0.01194 0.21577 -0.45100
O 	O 	0.88583 0.92181 0.06814 -0.47200
C 	C 	0.91055 0.10933 0.07770 0.29400
O 	O 	0.01962 0.99321 0.13018 -0.58500
C 	C 	0.97080 0.96168 0.28504 0.27100
C 	C 	0.21798 0.05286 0.09846 0.31100
C 	C 	0.93787 0.77075 0.09997 0.27500
O 	O 	0.10928 0.13194 0.19707 -0.38100
O 	O 	0.16490 0.01315 0.06492 -0.37800
O 	O 	0.20421 0.05242 0.13538 -0.36300
O 	O 	0.95205 0.12667 0.12167 -0.39300
O 	O 	0.89627 0.05601 0.06604 -0.36500
O 	O 	0.91422 0.96151 0.25202 -0.39800
O 	O 	0.01294 0.96110 0.27141 -0.37500
O 	O 	0.00731 0.79512 0.11704 -0.38000
O 	O 	0.91580 0.80383 0.10190 -0.39000
O 	O 	0.05394 0.93816 0.10976 -0.75900
C 	C 	0.79134 0.91115 0.15585 0.32300
O 	O 	0.82293 0.98046 0.15002 -0.42600
O 	O 	0.82420 0.89262 0.15000 -0.40000
O 	O 	0.16408 0.90417 0.15709 -0.41500
O 	O 	0.10608 0.88164 0.20739 -0.39600
O 	O 	0.01610 0.89171 0.01866 -0.40300
O 	O 	0.98502 0.96303 0.00737 -0.39900
Co	Co	0.08743 0.97747 0.65519 1.17500
Co	Co	0.90193 0.98472 0.61210 1.17000
Co	Co	0.04082 0.04235 0.69031 1.19000
Co	Co	0.95552 0.93474 0.57011 1.17400
C 	C 	0.07916 0.83723 0.69420 0.31400
Co	Co	0.05615 0.89166 0.58445 1.17200
Co	Co	0.92192 0.05490 0.68783 1.17300
C 	C 	0.01622 0.97252 0.48396 0.29300
O 	O 	0.00189 0.16147 0.65850 -0.38600
O 	O 	0.95844 0.02738 0.66003 -0.75700
C 	C 	0.07237 0.18973 0.67774 0.29200
O 	O 	0.11986 0.03213 0.70390 -0.45200
O 	O 	0.87500 0.94169 0.55790 -0.47700
C 	C 	0.85666 0.08212 0.57792 0.30400
O 	O 	0.00878 0.00804 0.62119 -0.56200
C 	C 	0.00564 0.00980 0.78362 0.34500
C 	C 	0.20393 0.02474 0.61562 0.34700
C 	C 	0.89466 0.78705 0.56882 0.30900
O 	O 	0.09970 0.15466 0.68696 -0.37100
O 	O 	0.16632 0.95419 0.62030 -0.42600
O 	O 	0.18238 0.04895 0.62813 -0.38000
O 	O 	0.84195 0.05027 0.62245 -0.40400
O 	O 	0.88551 0.06606 0.56491 -0.37900
O 	O 	0.99696 0.06214 0.75698 -0.42100
O 	O 	0.01415 0.98342 0.76148 -0.41200
O 	O 	0.94852 0.82424 0.54763 -0.41800
O 	O 	0.89251 0.82019 0.58923 -0.40400
O 	O 	0.03424 0.94250 0.60311 -0.75600
C 	C 	0.79726 0.90128 0.68105 0.29200
O 	O 	0.84785 0.94332 0.71346 -0.40700
O 	O 	0.81527 0.89640 0.64978 -0.39200
O 	O 	0.03385 0.81606 0.65223 -0.39500
O 	O 	0.08690 0.88555 0.70680 -0.38800
O 	O 	0.07237 0.97253 0.51797 -0.39600
O 	O 	0.97059 0.96987 0.49643 -0.39000
C 	C 	0.06227 0.02597 0.91584 0.03300
C 	C 	0.99918 0.96257 0.93441 -0.12700
C 	C 	0.94215 0.91008 0.90511 0.00700
C 	C 	0.94786 0.92130 0.85783 -0.03100
C 	C 	0.01069 0.98517 0.83900 -0.08800
C 	C 	0.06823 0.03690 0.86880 0.00400
H 	H 	0.10787 0.06582 0.93851 0.03300
H 	H 	0.89409 0.85963 0.91946 0.02700
H 	H 	0.90207 0.88169 0.83501 0.03900
H 	H 	0.11641 0.08730 0.85455 0.03700
C 	C 	0.05437 0.00721 0.36455 0.03400
C 	C 	0.98388 0.95750 0.33879 -0.10600
C 	C 	0.92339 0.91565 0.35984 0.00200
C 	C 	0.93314 0.92415 0.40541 -0.03700
C 	C 	0.00355 0.97429 0.43095 -0.05800
C 	C 	0.06415 0.01562 0.41019 -0.00600
H 	H 	0.10136 0.04122 0.34849 0.03700
H 	H 	0.86848 0.87743 0.34040 0.03800
H 	H 	0.88613 0.89024 0.42142 0.04500
H 	H 	0.11904 0.05386 0.42962 0.04900
C 	C 	0.17332 0.38820 0.70932 0.03500
C 	C 	0.18021 0.33332 0.74817 -0.06300
C 	C 	0.15480 0.27127 0.73703 0.01600
C 	C 	0.23755 0.51417 0.72719 -0.03300
C 	C 	0.11942 0.32085 0.64790 0.01900
C 	C 	0.14448 0.38258 0.65906 -0.06400
C 	C 	0.20546 0.45520 0.71997 0.00000
C 	C 	0.12196 0.26354 0.68699 -0.08300
H 	H 	0.20471 0.33837 0.78698 0.05200
H 	H 	0.15674 0.22730 0.76761 0.03600
H 	H 	0.09434 0.31567 0.60911 0.03500
H 	H 	0.14124 0.42591 0.62859 0.05300
C 	C 	0.59451 0.80683 0.70147 0.03300
C 	C 	0.60983 0.84759 0.65333 -0.06700
C 	C 	0.67232 0.87074 0.64429 0.01400
C 	C 	0.47055 0.74967 0.71838 -0.03600
C 	C 	0.70143 0.80818 0.73044 0.02000
C 	C 	0.63921 0.78527 0.73948 -0.06800
C 	C 	0.52810 0.77916 0.71026 -0.00300
C 	C 	0.72024 0.85390 0.68353 -0.09000
H 	H 	0.57405 0.86224 0.62313 0.04800
H 	H 	0.68610 0.90592 0.60787 0.02700
H 	H 	0.73768 0.79438 0.76095 0.03100
H 	H 	0.62622 0.75139 0.77624 0.05000
C 	C 	0.21417 0.77699 0.74632 -0.00200
C 	C 	0.27505 0.82382 0.72492 -0.03900
C 	C 	0.30572 0.79571 0.72370 -0.02500
C 	C 	0.13080 0.81911 0.72020 -0.10900
C 	C 	0.21754 0.67433 0.76811 -0.02400
C 	C 	0.18685 0.70259 0.76911 -0.03700
C 	C 	0.17050 0.80085 0.73492 0.04600
C 	C 	0.27584 0.72024 0.74404 -0.01500
H 	H 	0.29642 0.88128 0.70695 0.04100
H 	H 	0.35093 0.83215 0.70535 0.04200
H 	H 	0.19500 0.61652 0.78519 0.04600
H 	H 	0.13979 0.66582 0.78569 0.04500
C 	C 	0.20371 0.36440 0.22343 0.00100
C 	C 	0.25001 0.38345 0.26975 -0.03600
C 	C 	0.27357 0.44628 0.27840 -0.02000
C 	C 	0.14007 0.23371 0.21364 -0.10500
C 	C 	0.20222 0.46980 0.19523 -0.02000
C 	C 	0.17858 0.40685 0.18661 -0.03600
C 	C 	0.17216 0.29482 0.21716 0.05100
C 	C 	0.25159 0.49107 0.24060 -0.01600
H 	H 	0.26773 0.34958 0.29911 0.04500
H 	H 	0.31192 0.46225 0.31351 0.04200
H 	H 	0.18524 0.50414 0.16560 0.04400
H 	H 	0.14076 0.39114 0.15133 0.04700
C 	C 	0.59893 0.78782 0.19476 -0.00200
C 	C 	0.59480 0.75583 0.24565 -0.03800
C 	C 	0.53542 0.73097 0.25994 -0.02200
C 	C 	0.72142 0.85691 0.16939 -0.11200
C 	C 	0.48586 0.77344 0.17296 -0.02300
C 	C 	0.54518 0.79816 0.15866 -0.03800
C 	C 	0.66444 0.82154 0.18102 0.04700
C 	C 	0.47926 0.73737 0.22339 -0.01800
H 	H 	0.63745 0.75005 0.27418 0.04200
H 	H 	0.53094 0.70301 0.29899 0.04100
H 	H 	0.44281 0.77842 0.14429 0.04100
H 	H 	0.54926 0.82528 0.11950 0.04200
C 	C 	0.21670 0.74319 0.25500 0.03400
C 	C 	0.14077 0.70916 0.23708 -0.06400
C 	C 	0.11213 0.74505 0.22893 0.01500
C 	C 	0.27554 0.69329 0.24849 -0.03200
C 	C 	0.23337 0.84455 0.26213 0.01800
C 	C 	0.26218 0.80878 0.27042 -0.06500
C 	C 	0.24884 0.71562 0.25202 -0.00300
C 	C 	0.15971 0.81666 0.23635 -0.08900
H 	H 	0.10451 0.65712 0.22670 0.05300
H 	H 	0.05443 0.72102 0.21118 0.04000
H 	H 	0.27039 0.89840 0.27005 0.02800
H 	H 	0.32053 0.83439 0.28599 0.04900
C 	C 	0.78983 0.21657 0.52117 0.03500
C 	C 	0.74074 0.14817 0.50876 -0.06400
C 	C 	0.76566 0.10790 0.51913 0.02100
C 	C 	0.73552 0.27097 0.52723 -0.03100
C 	C 	0.89019 0.20821 0.54817 0.01400
C 	C 	0.86525 0.24832 0.53822 -0.06500
C 	C 	0.76163 0.24810 0.52381 -0.00200
C 	C 	0.83957 0.13519 0.54286 -0.08800
H 	H 	0.68255 0.12392 0.49427 0.05500
H 	H 	0.72615 0.05233 0.51365 0.03500
H 	H 	0.94782 0.23100 0.56500 0.03200
H 	H 	0.90403 0.30201 0.54670 0.04800
C 	C 	0.79274 0.57737 0.56098 0.03500
C 	C 	0.83421 0.59589 0.60786 -0.06600
C 	C 	0.85724 0.66027 0.61392 0.01700
C 	C 	0.74536 0.45512 0.54774 -0.03400
C 	C 	0.79137 0.68362 0.52807 0.02200
C 	C 	0.76827 0.61931 0.52197 -0.06700
C 	C 	0.77003 0.51200 0.55407 -0.00300
C 	C 	0.84085 0.70753 0.57265 -0.09400
H 	H 	0.85035 0.56174 0.63911 0.05000
H 	H 	0.89357 0.67689 0.64915 0.03500
H 	H 	0.77672 0.71862 0.49631 0.02800
H 	H 	0.73315 0.60338 0.48639 0.05100
C 	C 	0.39432 0.14401 0.57506 -0.00100
C 	C 	0.40499 0.19192 0.52713 -0.03500
C 	C 	0.46708 0.22497 0.51199 -0.02000
C 	C 	0.27323 0.07387 0.60226 -0.11000
C 	C 	0.50551 0.15851 0.59131 -0.02000
C 	C 	0.44337 0.12544 0.60643 -0.03500
C 	C 	0.32937 0.10830 0.59008 0.05700
C 	C 	0.51934 0.21094 0.54496 -0.01600
H 	H 	0.36590 0.20451 0.50191 0.04500
H 	H 	0.47691 0.26497 0.47593 0.04300
H 	H 	0.54529 0.14702 0.61702 0.04500
H 	H 	0.43403 0.08634 0.64286 0.04700
C 	C 	0.80343 0.20703 0.02073 0.03500
C 	C 	0.87901 0.25242 0.02364 -0.06500
C 	C 	0.91366 0.22143 0.03446 0.01700
C 	C 	0.74580 0.25508 0.03020 -0.03100
C 	C 	0.79607 0.10114 0.03332 0.01700
C 	C 	0.76138 0.13211 0.02258 -0.06200
C 	C 	0.77189 0.23398 0.02472 -0.00100
C 	C 	0.87310 0.14466 0.04338 -0.08300
H 	H 	0.91175 0.31078 0.02094 0.05000
H 	H 	0.97298 0.25608 0.04064 0.03300
H 	H 	0.76379 0.04207 0.03887 0.04600
H 	H 	0.70257 0.09686 0.01910 0.05700
C 	C 	0.82645 0.56863 0.07028 0.02800
C 	C 	0.82666 0.62648 0.03024 -0.05100
C 	C 	0.85469 0.69040 0.04026 0.00600
C 	C 	0.76714 0.44342 0.05432 -0.03500
C 	C 	0.87741 0.63656 0.13034 0.01500
C 	C 	0.84956 0.57282 0.12033 -0.06300
C 	C 	0.79624 0.50207 0.06035 0.00200
C 	C 	0.88332 0.69702 0.09036 -0.08000
H 	H 	0.80650 0.62260 0.99141 0.04000
H 	H 	0.85881 0.73668 0.00906 0.03200
H 	H 	0.89903 0.64090 0.16919 0.03100
H 	H 	0.84718 0.52723 0.15152 0.04900
C 	C 	0.41738 0.13441 0.09247 0.00300
C 	C 	0.48080 0.15799 0.13153 -0.03600
C 	C 	0.54683 0.18641 0.12452 -0.01800
C 	C 	0.29187 0.08714 0.09971 -0.09900
C 	C 	0.48482 0.16241 0.04090 -0.01900
C 	C 	0.41876 0.13379 0.04799 -0.03600
C 	C 	0.35058 0.11038 0.09776 0.05000
C 	C 	0.54991 0.19248 0.07805 -0.01600
H 	H 	0.47960 0.15651 0.16665 0.04800
H 	H 	0.59666 0.20848 0.15381 0.04400
H 	H 	0.48637 0.16612 0.00511 0.04600
H 	H 	0.36923 0.11348 0.01820 0.04800
