data_crystal

_cell_length_a 35.00294
_cell_length_b 35.84042
_cell_length_c 26.45545
_cell_angle_alpha 95.52485
_cell_angle_beta  95.52370
_cell_angle_gamma 125.37075

_symmetry_space_group_name_	'P 1'
_symmetry_space_group_name_H-M	'P 1'

loop_
_symmetry_equiv_pos_as_xyz
  x,y,z

loop_
_atom_site_label
_atom_site_type_symbol
_atom_site_fract_x
_atom_site_fract_y
_atom_site_fract_z
_atom_site_charge
C 	C 	0.96981 0.01536 0.99008 0.13300
N 	N 	0.01614 0.04029 0.98450 -0.13600
C 	C 	0.03720 0.01862 0.97758 0.13600
N 	N 	0.00109 0.02468 0.42462 -0.13800
Cu	Cu	0.64836 0.26163 0.99347 0.93500
Cu	Cu	0.68961 0.26562 0.88665 0.88300
Cu	Cu	0.67345 0.33426 0.92581 0.90800
Cu	Cu	0.65101 0.34969 0.02803 0.91400
C 	C 	0.66547 0.29909 0.10063 0.30700
O 	O 	0.57924 0.23625 0.99218 -0.35200
C 	C 	0.66666 0.30789 0.81487 0.29800
O 	O 	0.68788 0.33432 0.99761 -0.63300
O 	O 	0.64276 0.26623 0.91973 -0.63700
O 	O 	0.67573 0.22612 0.99051 -0.35500
O 	O 	0.73152 0.27497 0.94590 -0.41100
O 	O 	0.64295 0.31714 0.08756 -0.34300
O 	O 	0.70811 0.40117 0.93441 -0.32400
C 	C 	0.70788 0.42821 0.97183 0.31500
C 	C 	0.56147 0.25651 0.97222 0.30400
O 	O 	0.58992 0.30018 0.96725 -0.38500
O 	O 	0.68014 0.41121 0.00647 -0.36100
O 	O 	0.66415 0.26863 0.06680 -0.32900
C 	C 	0.71658 0.24356 0.97541 0.31800
O 	O 	0.66150 0.33190 0.85119 -0.32000
O 	O 	0.66380 0.27060 0.82264 -0.38800
H 	H 	0.72231 0.35430 0.01293 0.21700
H 	H 	0.61007 0.24618 0.89888 0.18300
Cu	Cu	0.73137 0.34236 0.42705 0.93400
Cu	Cu	0.72572 0.30090 0.53335 0.88400
Cu	Cu	0.65532 0.31594 0.49304 0.90800
Cu	Cu	0.64116 0.33956 0.39122 0.91100
C 	C 	0.69504 0.32762 0.31946 0.30800
O 	O 	0.75751 0.41015 0.42932 -0.35100
C 	C 	0.68113 0.32207 0.60426 0.29900
O 	O 	0.65676 0.30336 0.42137 -0.63500
O 	O 	0.72525 0.34677 0.50047 -0.63600
O 	O 	0.76721 0.31486 0.43010 -0.35200
O 	O 	0.71605 0.26027 0.47383 -0.41000
O 	O 	0.67574 0.34881 0.33254 -0.35000
O 	O 	0.58662 0.28133 0.48289 -0.32500
C 	C 	0.55946 0.28105 0.44435 0.31200
C 	C 	0.73586 0.42700 0.44809 0.30300
O 	O 	0.69114 0.39865 0.45283 -0.38500
O 	O 	0.57768 0.31031 0.41192 -0.36500
O 	O 	0.72539 0.32810 0.35375 -0.32100
C 	C 	0.74875 0.27478 0.44505 0.31800
O 	O 	0.65619 0.32634 0.56750 -0.32100
O 	O 	0.71979 0.32563 0.59702 -0.38800
H 	H 	0.63671 0.26991 0.40534 0.21700
H 	H 	0.74521 0.37855 0.52169 0.18300
C 	C 	0.62779 0.28123 0.72260 0.05200
C 	C 	0.66533 0.31676 0.76171 0.00100
C 	C 	0.70419 0.35784 0.74869 -0.10100
C 	C 	0.70673 0.36045 0.69625 0.05200
C 	C 	0.67146 0.32292 0.65718 0.00100
C 	C 	0.63036 0.28384 0.67016 -0.10100
C 	C 	0.58979 0.24456 0.62826 0.77900
H 	H 	0.59746 0.25071 0.73319 0.07700
H 	H 	0.73713 0.39088 0.68563 0.07700
C 	C 	0.74318 0.39854 0.79055 0.77900
F 	F 	0.55306 0.20962 0.64878 -0.44600
F 	F 	0.60630 0.22504 0.59799 -0.46700
F 	F 	0.57137 0.26176 0.59753 -0.44000
F 	F 	0.76442 0.38428 0.82213 -0.46700
F 	F 	0.72373 0.41525 0.81995 -0.44000
F 	F 	0.77838 0.43485 0.76997 -0.44600
C 	C 	0.72701 0.35124 0.23978 0.05800
C 	C 	0.69393 0.31604 0.26430 0.00300
C 	C 	0.65646 0.27189 0.23470 -0.10000
C 	C 	0.64900 0.26591 0.18043 0.05700
C 	C 	0.67986 0.30249 0.15590 0.00300
C 	C 	0.72115 0.34431 0.18557 -0.10000
C 	C 	0.75730 0.38266 0.15951 0.77900
H 	H 	0.75613 0.38470 0.26292 0.07900
H 	H 	0.61797 0.23363 0.15726 0.08000
C 	C 	0.62255 0.23225 0.26086 0.77800
F 	F 	0.79967 0.41527 0.19376 -0.44200
F 	F 	0.73901 0.40496 0.14037 -0.47000
F 	F 	0.76743 0.36408 0.11922 -0.45800
F 	F 	0.59292 0.24104 0.28107 -0.46800
F 	F 	0.64802 0.22813 0.30043 -0.45300
F 	F 	0.59463 0.19012 0.22651 -0.44300
C 	C 	0.88863 0.06391 0.41698 0.01500
C 	C 	0.89042 0.08537 0.37477 -0.03600
C 	C 	0.87257 0.11163 0.37410 -0.03600
C 	C 	0.85290 0.11664 0.41572 0.00900
C 	C 	0.84999 0.09409 0.45731 -0.03600
C 	C 	0.86782 0.06782 0.45792 -0.03600
C 	C 	0.83714 0.14697 0.41684 0.01300
C 	C 	0.79772 0.13485 0.38090 -0.03800
C 	C 	0.78127 0.16235 0.38387 -0.02400
C 	C 	0.80419 0.20212 0.42269 -0.00100
C 	C 	0.84434 0.21494 0.45770 -0.02700
C 	C 	0.86078 0.18749 0.45480 -0.04000
C 	C 	0.78435 0.22766 0.42927 0.06000
C 	C 	0.76833 0.24951 0.43547 -0.09200
C 	C 	0.91102 0.04059 0.41992 0.01100
C 	C 	0.92982 0.02111 0.42219 -0.03700
H 	H 	0.90642 0.08246 0.34296 0.04700
H 	H 	0.87489 0.12882 0.34178 0.04600
H 	H 	0.83452 0.09743 0.48942 0.04600
H 	H 	0.86622 0.05125 0.49062 0.04800
H 	H 	0.77934 0.10373 0.35134 0.05000
H 	H 	0.75019 0.15220 0.35667 0.05900
H 	H 	0.86225 0.24565 0.48779 0.04500
H 	H 	0.89151 0.19736 0.48242 0.04700
C 	C 	0.41624 0.20617 0.44114 0.00800
C 	C 	0.39819 0.22631 0.46861 -0.02400
C 	C 	0.34906 0.20140 0.46679 -0.03600
C 	C 	0.31768 0.15617 0.43743 0.01400
C 	C 	0.33584 0.13601 0.41003 -0.03600
C 	C 	0.38499 0.16096 0.41191 -0.02400
C 	C 	0.26587 0.12980 0.43566 0.01000
C 	C 	0.24094 0.14597 0.41427 -0.03600
C 	C 	0.19182 0.12097 0.41271 -0.03600
C 	C 	0.16738 0.07970 0.43249 0.01500
C 	C 	0.19221 0.06351 0.45385 -0.03500
C 	C 	0.24130 0.08847 0.45546 -0.03500
C 	C 	0.11681 0.05387 0.43085 0.01100
C 	C 	0.07448 0.03176 0.42983 -0.03500
C 	C 	0.46675 0.23224 0.44221 0.06300
C 	C 	0.50908 0.25429 0.44330 -0.06300
H 	H 	0.42216 0.26127 0.49127 0.05600
H 	H 	0.33540 0.21716 0.48827 0.04900
H 	H 	0.31189 0.10115 0.38717 0.05100
H 	H 	0.39871 0.14522 0.39050 0.05800
H 	H 	0.25958 0.17776 0.39873 0.04600
H 	H 	0.17282 0.13366 0.39610 0.04800
H 	H 	0.17351 0.03163 0.46923 0.05000
H 	H 	0.26027 0.07582 0.47223 0.05100
C 	C 	0.79030 0.18955 0.00296 -0.00600
C 	C 	0.83368 0.20899 0.98587 -0.02300
C 	C 	0.85710 0.18810 0.98995 -0.03800
C 	C 	0.83728 0.14761 0.01122 0.01200
C 	C 	0.79459 0.12905 0.02983 -0.04000
C 	C 	0.77117 0.14996 0.02566 -0.02400
C 	C 	0.85963 0.12315 0.01106 0.00700
C 	C 	0.90626 0.14555 0.03822 -0.03500
C 	C 	0.92848 0.12339 0.03531 -0.03700
C 	C 	0.90421 0.07874 0.00531 0.01500
C 	C 	0.85737 0.05600 0.97892 -0.03600
C 	C 	0.83514 0.07812 0.98174 -0.03400
C 	C 	0.92777 0.05675 0.00036 0.00600
C 	C 	0.94710 0.03797 0.99591 -0.03100
C 	C 	0.76395 0.20837 0.99400 0.06300
C 	C 	0.74231 0.22454 0.98621 -0.09700
H 	H 	0.84872 0.23966 0.96838 0.05000
H 	H 	0.89002 0.20268 0.97546 0.04800
H 	H 	0.77919 0.09801 0.04668 0.04800
H 	H 	0.73772 0.13485 0.03913 0.05100
H 	H 	0.92539 0.18023 0.06112 0.04600
H 	H 	0.96466 0.14111 0.05595 0.04700
H 	H 	0.83838 0.02144 0.95573 0.04800
H 	H 	0.79921 0.06061 0.96047 0.04500
C 	C 	0.17598 0.09051 0.96017 0.01500
C 	C 	0.21269 0.12611 0.99979 -0.03400
C 	C 	0.26031 0.14750 0.99545 -0.03300
C 	C 	0.27148 0.13339 0.95139 0.00900
C 	C 	0.23467 0.09851 0.91119 -0.03500
C 	C 	0.18706 0.07714 0.91560 -0.03600
C 	C 	0.32159 0.15371 0.94842 0.01400
C 	C 	0.35400 0.20153 0.94875 -0.04000
C 	C 	0.40229 0.22145 0.95016 -0.02500
C 	C 	0.41846 0.19371 0.95122 -0.00200
C 	C 	0.38594 0.14571 0.94931 -0.02400
C 	C 	0.33763 0.12573 0.94791 -0.03900
C 	C 	0.46875 0.21504 0.95806 0.05600
C 	C 	0.51098 0.23349 0.96380 -0.09600
C 	C 	0.12712 0.06572 0.96660 0.01100
C 	C 	0.08609 0.04475 0.97162 -0.03400
H 	H 	0.20436 0.13661 0.03435 0.04600
H 	H 	0.28849 0.17437 0.02670 0.04500
H 	H 	0.24296 0.08760 0.87690 0.04700
H 	H 	0.15883 0.04968 0.88478 0.04800
H 	H 	0.34189 0.22334 0.94876 0.04800
H 	H 	0.42724 0.25858 0.95150 0.04800
H 	H 	0.39820 0.12404 0.95005 0.05100
H 	H 	0.31287 0.08877 0.94764 0.05000
C 	C 	0.75805 0.47607 0.45441 -0.09500
C 	C 	0.73300 0.47678 0.97027 -0.06000
C 	C 	0.77534 0.51694 0.45843 0.05500
C 	C 	0.75355 0.51764 0.96948 0.06400
C 	C 	0.79526 0.56562 0.46344 -0.00200
H 	H 	0.73226 0.55661 0.48320 0.04800
H 	H 	0.86252 0.58568 0.44398 0.05200
H 	H 	0.73277 0.55514 0.89849 0.06100
C 	C 	0.77814 0.56645 0.96861 0.01100
C 	C 	0.76767 0.58087 0.47524 -0.02600
C 	C 	0.02412 0.00473 0.42903 0.13700
C 	C 	0.76249 0.58073 0.92925 -0.02400
H 	H 	0.82880 0.58893 0.03884 0.05800
C 	C 	0.84101 0.59724 0.45320 -0.02500
C 	C 	0.95367 0.99936 0.42526 0.13800
N 	N 	0.01196 0.97210 0.97616 -0.13500
C 	C 	0.96569 0.94717 0.98168 0.13600
N 	N 	0.94456 0.96877 0.98859 -0.13600
N 	N 	0.99979 0.95951 0.43418 -0.13800
C 	C 	0.95243 0.93412 0.43488 0.13600
N 	N 	0.92929 0.95404 0.43050 -0.13800
C 	C 	0.88587 0.79950 0.45414 0.01600
C 	C 	0.84396 0.76246 0.42076 -0.03600
C 	C 	0.82530 0.71646 0.42488 -0.03500
C 	C 	0.84850 0.70727 0.46243 0.00900
C 	C 	0.88973 0.74443 0.49670 -0.03500
C 	C 	0.90834 0.79038 0.49255 -0.03600
C 	C 	0.83075 0.65882 0.46445 0.01400
C 	C 	0.78534 0.62732 0.47575 -0.03900
C 	C 	0.85873 0.64371 0.45370 -0.03800
C 	C 	0.90790 0.84664 0.44654 0.01000
C 	C 	0.92722 0.88646 0.44114 -0.03400
H 	H 	0.82640 0.76923 0.39097 0.04800
H 	H 	0.79342 0.68801 0.39827 0.04700
H 	H 	0.90769 0.73770 0.52606 0.04700
H 	H 	0.94072 0.81885 0.51852 0.04800
H 	H 	0.76360 0.63873 0.48443 0.04800
H 	H 	0.89383 0.66775 0.44491 0.05000
C 	C 	0.89192 0.80711 0.97452 0.01800
C 	C 	0.86735 0.78592 0.01379 -0.03800
C 	C 	0.84444 0.73826 0.01207 -0.03700
C 	C 	0.84602 0.71155 0.97104 0.01200
C 	C 	0.87017 0.73275 0.93145 -0.03500
C 	C 	0.89304 0.78039 0.93321 -0.03600
C 	C 	0.82294 0.66157 0.96989 0.01500
C 	C 	0.83891 0.64718 0.00894 -0.03700
C 	C 	0.81654 0.59976 0.00829 -0.02700
C 	C 	0.78481 0.62816 0.92986 -0.03500
C 	C 	0.91748 0.85654 0.97755 0.01000
C 	C 	0.93905 0.89790 0.97956 -0.03300
H 	H 	0.86633 0.80639 0.04583 0.04800
H 	H 	0.82562 0.72213 0.04264 0.04700
H 	H 	0.87163 0.71242 0.89966 0.05000
H 	H 	0.91201 0.79659 0.90274 0.04900
H 	H 	0.86854 0.67274 0.03979 0.05000
H 	H 	0.77224 0.63893 0.89956 0.05000
