data_crystal

_cell_length_a 16.77108
_cell_length_b 17.04436
_cell_length_c 40.15533
_cell_angle_alpha 60.62908
_cell_angle_beta  119.12304
_cell_angle_gamma 133.35123

_symmetry_space_group_name_	'P 1'
_symmetry_space_group_name_H-M	'P 1'

loop_
_symmetry_equiv_pos_as_xyz
  x,y,z

loop_
_atom_site_label
_atom_site_type_symbol
_atom_site_fract_x
_atom_site_fract_y
_atom_site_fract_z
_atom_site_charge
C 	C 	0.66492 0.24707 0.01049 0.11200
N 	N 	0.75037 0.33820 0.02519 -0.12400
C 	C 	0.73061 0.40358 0.02474 0.11500
N 	N 	0.62590 0.37883 0.00929 -0.12900
C 	C 	0.54024 0.28788 0.99467 0.12200
N 	N 	0.56016 0.22275 0.99483 -0.12200
C 	C 	0.66126 0.24713 0.50946 0.11600
N 	N 	0.55650 0.22283 0.49378 -0.12500
C 	C 	0.53653 0.28787 0.49366 0.11800
N 	N 	0.62216 0.37875 0.50832 -0.12600
C 	C 	0.72688 0.40351 0.52377 0.11600
N 	N 	0.74667 0.33819 0.52420 -0.12500
C 	C 	0.32790 0.68752 0.13296 0.11000
N 	N 	0.43242 0.71153 0.15148 -0.13100
C 	C 	0.45935 0.65273 0.15125 0.11300
N 	N 	0.38024 0.56697 0.13376 -0.12700
C 	C 	0.27554 0.54185 0.11541 0.11500
N 	N 	0.24904 0.60218 0.11486 -0.12900
C 	C 	0.32404 0.68740 0.63198 0.11000
N 	N 	0.42854 0.71137 0.65049 -0.13100
C 	C 	0.45543 0.65258 0.65024 0.11300
N 	N 	0.37630 0.56683 0.63274 -0.12700
C 	C 	0.27161 0.54173 0.61440 0.11400
N 	N 	0.24514 0.60208 0.61387 -0.12900
Co	Co	0.05569 0.85789 0.09353 1.17800
Co	Co	0.93981 0.06290 0.05423 1.19600
Co	Co	0.97692 0.92101 0.13190 1.18200
Co	Co	0.01513 0.99781 0.01582 1.15700
C 	C 	0.98044 0.66548 0.07362 0.35500
Co	Co	0.11288 0.88079 0.02005 1.15400
Co	Co	0.89472 0.05761 0.12562 1.18400
C 	C 	0.21361 0.12071 0.98698 0.32900
O 	O 	0.05885 0.13345 0.15825 -0.39400
O 	O 	0.93394 0.00486 0.10175 -0.73100
C 	C 	0.09189 0.07058 0.18479 0.33200
O 	O 	0.03273 0.83349 0.14377 -0.48000
O 	O 	0.96530 0.08998 0.00424 -0.43800
C 	C 	0.03576 0.26579 0.07272 0.29900
O 	O 	0.95772 0.92770 0.07084 -0.58000
C 	C 	0.79128 0.81815 0.16569 0.32400
C 	C 	0.27568 0.92139 0.09537 0.31200
C 	C 	0.92117 0.86856 0.95734 0.30900
O 	O 	0.10215 0.01676 0.17364 -0.37000
O 	O 	0.26835 0.96367 0.05748 -0.40300
O 	O 	0.22765 0.92494 0.11225 -0.39400
O 	O 	0.93949 0.20341 0.08174 -0.38400
O 	O 	0.06062 0.22234 0.06301 -0.39400
O 	O 	0.85171 0.91590 0.17182 -0.41400
O 	O 	0.83103 0.79687 0.15232 -0.38100
O 	O 	0.95159 0.80493 0.98567 -0.37700
O 	O 	0.91556 0.93111 0.96575 -0.36500
O 	O 	0.04928 0.90727 0.04462 -0.77100
C 	C 	0.72735 0.02105 0.05058 0.35000
O 	O 	0.73714 0.97792 0.08871 -0.42200
O 	O 	0.77746 0.02470 0.03203 -0.37000
O 	O 	0.07450 0.73352 0.06237 -0.42700
O 	O 	0.96142 0.69477 0.09231 -0.37400
O 	O 	0.15502 0.02873 0.97700 -0.38600
O 	O 	0.17605 0.12547 0.00753 -0.38700
Co	Co	0.05198 0.85786 0.59257 1.17800
Co	Co	0.93604 0.06288 0.55320 1.19600
Co	Co	0.97313 0.92101 0.63091 1.18200
Co	Co	0.01146 0.99775 0.51485 1.15800
C 	C 	0.97673 0.66542 0.57268 0.35500
Co	Co	0.10919 0.88071 0.51911 1.15600
Co	Co	0.89076 0.05755 0.62454 1.18400
C 	C 	0.20986 0.12059 0.48598 0.32500
O 	O 	0.05489 0.13348 0.65714 -0.39600
O 	O 	0.93016 0.00487 0.60073 -0.73100
C 	C 	0.08787 0.07064 0.68379 0.33800
O 	O 	0.02899 0.83351 0.64280 -0.48100
O 	O 	0.96163 0.08995 0.50323 -0.43500
C 	C 	0.03184 0.26576 0.57166 0.29900
O 	O 	0.95406 0.92772 0.56986 -0.57900
C 	C 	0.78735 0.81807 0.66462 0.32300
C 	C 	0.27198 0.92137 0.59441 0.31200
C 	C 	0.91716 0.86814 0.45642 0.30800
O 	O 	0.09797 0.01637 0.67281 -0.37100
O 	O 	0.26464 0.96367 0.55653 -0.40200
O 	O 	0.22394 0.92490 0.61131 -0.39400
O 	O 	0.93553 0.20334 0.58065 -0.38300
O 	O 	0.05676 0.22234 0.56196 -0.39400
O 	O 	0.84777 0.91583 0.67075 -0.41400
O 	O 	0.82709 0.79683 0.65123 -0.38100
O 	O 	0.94790 0.80473 0.48475 -0.37900
O 	O 	0.91193 0.93105 0.46479 -0.36700
O 	O 	0.04558 0.90721 0.54366 -0.77000
C 	C 	0.72348 0.02097 0.54950 0.35000
O 	O 	0.73322 0.97783 0.58763 -0.42200
O 	O 	0.77365 0.02462 0.53097 -0.36800
O 	O 	0.07080 0.73345 0.56144 -0.42600
O 	O 	0.95770 0.69472 0.59136 -0.37400
O 	O 	0.15122 0.02858 0.47602 -0.38500
O 	O 	0.17237 0.12539 0.50655 -0.38200
C 	C 	0.03935 0.98506 0.79028 -0.17200
C 	C 	0.95086 0.87751 0.80505 0.06000
C 	C 	0.91828 0.85656 0.83637 -0.07300
C 	C 	0.97381 0.94304 0.85312 0.01800
C 	C 	0.06275 0.05038 0.83853 -0.05900
C 	C 	0.09534 0.07131 0.80724 0.07100
C 	C 	0.95105 0.91823 0.88885 0.04000
C 	C 	0.93186 0.89726 0.91871 -0.09900
C 	C 	0.05925 0.01103 0.75373 0.15300
C 	C 	0.07772 0.03540 0.72319 -0.14800
H 	H 	0.90574 0.81064 0.79179 0.02700
H 	H 	0.85078 0.77290 0.84785 0.05900
H 	H 	0.10759 0.11736 0.85169 0.06000
H 	H 	0.16265 0.15505 0.79570 0.02500
C 	C 	0.02969 0.97802 0.28908 -0.09900
C 	C 	0.92564 0.95171 0.28453 0.03800
C 	C 	0.89771 0.93272 0.31673 -0.06800
C 	C 	0.97362 0.93992 0.35369 0.04900
C 	C 	0.07721 0.96518 0.35834 -0.07800
C 	C 	0.10518 0.98427 0.32612 -0.04200
C 	C 	0.94333 0.91515 0.38755 0.03600
C 	C 	0.92600 0.89547 0.41763 -0.09300
C 	C 	0.06262 0.00929 0.25481 0.12900
C 	C 	0.08139 0.03458 0.22420 -0.13200
H 	H 	0.86698 0.94735 0.25595 0.02700
H 	H 	0.81715 0.91228 0.31289 0.05500
H 	H 	0.13607 0.97003 0.38688 0.03900
H 	H 	0.18602 0.00536 0.32992 0.07800
C 	C 	0.11927 0.36828 0.58353 -0.07800
C 	C 	0.18859 0.44960 0.59649 0.02900
C 	C 	0.66973 0.74779 0.66232 -0.09100
C 	C 	0.57122 0.69957 0.65821 0.03700
C 	C 	0.30648 0.76786 0.62329 0.03400
C 	C 	0.29251 0.83813 0.61275 -0.10000
C 	C 	0.19254 0.44969 0.09752 0.02900
C 	C 	0.12323 0.36834 0.08457 -0.07900
C 	C 	0.57514 0.69972 0.15925 0.03700
C 	C 	0.67365 0.74791 0.16337 -0.09100
C 	C 	0.31029 0.76794 0.12426 0.03400
C 	C 	0.29626 0.83818 0.11371 -0.10000
C 	C 	0.67534 0.16369 0.51962 0.04800
C 	C 	0.69303 0.09585 0.53147 -0.09200
C 	C 	0.81358 0.49215 0.54283 0.04800
C 	C 	0.88700 0.56906 0.55778 -0.09300
C 	C 	0.42370 0.24368 0.48885 0.04200
C 	C 	0.32659 0.19497 0.48686 -0.08100
C 	C 	0.67903 0.16363 0.02069 0.04800
C 	C 	0.69678 0.09584 0.03255 -0.09300
C 	C 	0.89073 0.56913 0.05873 -0.09400
C 	C 	0.81731 0.49222 0.04378 0.04700
C 	C 	0.42744 0.24376 0.98986 0.04200
C 	C 	0.33034 0.19509 0.98788 -0.08200
