data_crystal

_cell_length_a 18.67959
_cell_length_b 18.81550
_cell_length_c 33.71105
_cell_angle_alpha 95.40195
_cell_angle_beta  95.40389
_cell_angle_gamma 126.41344

_symmetry_space_group_name_	'P 1'
_symmetry_space_group_name_H-M	'P 1'

loop_
_symmetry_equiv_pos_as_xyz
  x,y,z

loop_
_atom_site_label
_atom_site_type_symbol
_atom_site_fract_x
_atom_site_fract_y
_atom_site_fract_z
_atom_site_charge
C 	C 	0.91827 0.00563 0.97506 0.03500
C 	C 	0.87037 0.91181 0.96887 -0.08000
C 	C 	0.91796 0.87540 0.97008 0.03300
C 	C 	0.01288 0.93286 0.97569 -0.07300
C 	C 	0.06077 0.02658 0.98391 0.03400
C 	C 	0.01299 0.06234 0.98508 -0.07700
H 	H 	0.79696 0.86763 0.96270 0.05200
H 	H 	0.04931 0.90470 0.97424 0.05600
H 	H 	0.04961 0.13461 0.99183 0.05400
C 	C 	0.93240 0.02973 0.50219 0.03300
C 	C 	0.88623 0.93774 0.50197 -0.07900
C 	C 	0.93195 0.90013 0.49936 0.03600
C 	C 	0.02463 0.95490 0.49895 -0.07600
C 	C 	0.07162 0.04705 0.49995 0.03600
C 	C 	0.02537 0.08457 0.50102 -0.08100
H 	H 	0.81417 0.89497 0.50220 0.05400
H 	H 	0.06003 0.92563 0.49727 0.05500
H 	H 	0.06121 0.15560 0.50076 0.05200
Cu	Cu	0.75545 0.33876 0.94990 0.92500
Cu	Cu	0.79945 0.31603 0.04712 0.87500
Cu	Cu	0.61796 0.27988 0.00600 0.89300
Cu	Cu	0.58020 0.32661 0.92629 0.89600
C 	C 	0.68255 0.31480 0.86604 0.26300
O 	O 	0.80297 0.46871 0.94939 -0.35800
C 	C 	0.68448 0.32162 0.09437 0.26100
O 	O 	0.61625 0.26287 0.94890 -0.64000
O 	O 	0.75261 0.35557 0.00882 -0.64200
O 	O 	0.81093 0.27402 0.94783 -0.35700
O 	O 	0.86812 0.30140 0.01464 -0.42300
O 	O 	0.64173 0.34852 0.87860 -0.38000
O 	O 	0.48818 0.21070 0.99919 -0.38300
C 	C 	0.43931 0.22878 0.97808 0.29300
C 	C 	0.76270 0.50129 0.96419 0.28300
O 	O 	0.68013 0.44614 0.97146 -0.39000
O 	O 	0.46015 0.25999 0.94395 -0.39200
O 	O 	0.73404 0.30672 0.89186 -0.35400
C 	C 	0.83004 0.24752 0.97922 0.28700
O 	O 	0.61615 0.26885 0.06361 -0.39100
O 	O 	0.76848 0.36312 0.08918 -0.41300
H 	H 	0.57948 0.19880 0.93573 0.16100
H 	H 	0.77991 0.41883 0.01995 0.16100
Cu	Cu	0.59853 0.19903 0.50467 0.92700
Cu	Cu	0.65842 0.18807 0.41706 0.87200
Cu	Cu	0.65459 0.33761 0.44940 0.89700
Cu	Cu	0.61170 0.37220 0.52950 0.89400
C 	C 	0.63431 0.27602 0.58864 0.25900
O 	O 	0.46890 0.15238 0.50554 -0.36400
C 	C 	0.62110 0.26970 0.36103 0.26000
O 	O 	0.67754 0.33846 0.50623 -0.63800
O 	O 	0.58394 0.20469 0.44621 -0.63900
O 	O 	0.64947 0.13094 0.50282 -0.37400
O 	O 	0.74528 0.21625 0.46194 -0.44200
O 	O 	0.59571 0.31310 0.57744 -0.38000
O 	O 	0.72929 0.46719 0.45677 -0.38500
C 	C 	0.73047 0.51913 0.48645 0.30000
C 	C 	0.43730 0.19305 0.49086 0.29300
O 	O 	0.49374 0.27418 0.48352 -0.39500
O 	O 	0.66631 0.48567 0.50842 -0.39700
O 	O 	0.63151 0.21702 0.56251 -0.35500
C 	C 	0.72216 0.16035 0.48716 0.30200
O 	O 	0.65150 0.33824 0.39050 -0.37900
O 	O 	0.60134 0.19340 0.36895 -0.41500
H 	H 	0.74251 0.37546 0.51874 0.16100
H 	H 	0.52058 0.16994 0.43166 0.17100
C 	C 	0.65834 0.33235 0.69276 0.07700
C 	C 	0.69856 0.38798 0.73116 -0.08400
C 	C 	0.67134 0.34612 0.76476 0.01000
C 	C 	0.61889 0.25352 0.76081 0.07400
C 	C 	0.58983 0.19837 0.72264 -0.08200
C 	C 	0.60413 0.23970 0.68860 0.00800
N 	N 	0.69228 0.35757 0.65904 -0.15300
C 	C 	0.65697 0.28116 0.63221 0.00100
C 	C 	0.60545 0.20649 0.65056 -0.04100
N 	N 	0.63181 0.23115 0.79607 -0.15300
C 	C 	0.69014 0.30923 0.82316 0.00500
C 	C 	0.71945 0.38216 0.80393 -0.04400
H 	H 	0.75142 0.45964 0.73477 0.05100
H 	H 	0.56118 0.12802 0.71976 0.05200
H 	H 	0.55495 0.13800 0.63448 0.05000
H 	H 	0.75087 0.45017 0.81918 0.04700
H 	H 	0.71897 0.42033 0.65136 0.07500
H 	H 	0.58688 0.16816 0.80370 0.07800
C 	C 	0.71460 0.33558 0.19968 0.07200
C 	C 	0.74424 0.37896 0.24046 -0.08400
C 	C 	0.70093 0.32565 0.26921 0.00600
C 	C 	0.62311 0.23779 0.25752 0.07200
C 	C 	0.58571 0.19881 0.21636 -0.08300
C 	C 	0.63741 0.24719 0.18803 0.00500
N 	N 	0.73092 0.37872 0.16824 -0.15200
C 	C 	0.66613 0.31767 0.13591 -0.00700
C 	C 	0.60422 0.23617 0.14779 -0.04500
N 	N 	0.57455 0.21292 0.28727 -0.15200
C 	C 	0.62248 0.28344 0.31882 -0.00400
C 	C 	0.69945 0.35647 0.30769 -0.04600
H 	H 	0.79523 0.45112 0.24908 0.05000
H 	H 	0.51806 0.13613 0.20686 0.04900
H 	H 	0.55716 0.17183 0.12751 0.04100
H 	H 	0.75829 0.41387 0.32862 0.04400
H 	H 	0.79282 0.43910 0.16672 0.08200
H 	H 	0.52360 0.14637 0.28933 0.08200
C 	C 	0.88537 0.76750 0.52968 -0.08900
C 	C 	0.88206 0.80253 0.49530 -0.01600
C 	C 	0.83574 0.74475 0.45701 0.06500
C 	C 	0.79033 0.65216 0.45430 -0.02400
C 	C 	0.79128 0.61681 0.48896 -0.11000
C 	C 	0.84237 0.67532 0.52670 0.12000
N 	N 	0.85221 0.64368 0.55983 -0.20200
H 	H 	0.92316 0.81247 0.55871 0.05200
H 	H 	0.75197 0.60720 0.42532 0.04700
N 	N 	0.83444 0.77760 0.42287 -0.19300
H 	H 	0.88718 0.68680 0.58794 0.07900
H 	H 	0.82889 0.57718 0.55767 0.07100
H 	H 	0.86857 0.84627 0.42362 0.08500
H 	H 	0.79941 0.73415 0.39484 0.08100
C 	C 	0.82120 0.13867 0.52955 -0.02300
C 	C 	0.76805 0.11887 0.49196 -0.11400
C 	C 	0.76823 0.06876 0.45798 0.11400
C 	C 	0.82708 0.04567 0.46148 -0.08900
C 	C 	0.88088 0.06596 0.49891 -0.01700
C 	C 	0.87738 0.11213 0.53350 0.06300
N 	N 	0.92763 0.13126 0.57039 -0.19300
H 	H 	0.82042 0.17654 0.55561 0.04200
H 	H 	0.82846 0.00859 0.43529 0.04900
N 	N 	0.71025 0.04043 0.42232 -0.20100
H 	H 	0.92445 0.16526 0.59570 0.08200
H 	H 	0.97019 0.11274 0.57440 0.08300
H 	H 	0.65856 0.04726 0.42006 0.04000
H 	H 	0.71354 0.00690 0.39685 0.07200
C 	C 	0.19706 0.11544 0.46173 -0.08900
C 	C 	0.16927 0.10339 0.49933 -0.01800
C 	C 	0.23177 0.12637 0.53448 0.06500
C 	C 	0.31785 0.15188 0.53075 -0.02800
C 	C 	0.34383 0.15854 0.49278 -0.11100
C 	C 	0.28345 0.14149 0.45792 0.12000
N 	N 	0.30663 0.14685 0.42063 -0.20300
H 	H 	0.14922 0.09868 0.43489 0.05100
H 	H 	0.36551 0.16839 0.55764 0.04500
N 	N 	0.20930 0.12383 0.57182 -0.19400
H 	H 	0.26223 0.13582 0.39523 0.08100
H 	H 	0.36760 0.15965 0.41626 0.08300
H 	H 	0.14808 0.11099 0.57579 0.08400
H 	H 	0.25459 0.13783 0.59757 0.08200
C 	C 	0.84481 0.73973 0.00188 -0.09500
C 	C 	0.86901 0.77717 0.96690 -0.01100
C 	C 	0.85815 0.72361 0.93095 0.06400
C 	C 	0.82686 0.63477 0.93124 -0.03000
C 	C 	0.80415 0.59777 0.96642 -0.10000
C 	C 	0.81417 0.65111 0.00229 0.11100
N 	N 	0.79787 0.61908 0.03753 -0.20200
H 	H 	0.85379 0.78105 0.02945 0.05100
H 	H 	0.81795 0.59356 0.90363 0.04500
N 	N 	0.87635 0.75652 0.89599 -0.19300
H 	H 	0.80255 0.65778 0.06347 0.08000
H 	H 	0.78408 0.55738 0.04004 0.07900
H 	H 	0.89400 0.81998 0.89406 0.08400
H 	H 	0.87044 0.71744 0.86986 0.08100
C 	C 	0.82667 0.05079 0.99937 -0.06500
C 	C 	0.87035 0.04548 0.96892 -0.02700
C 	C 	0.88408 0.09415 0.93717 0.06900
C 	C 	0.86669 0.15747 0.93984 -0.03200
C 	C 	0.83122 0.16918 0.97255 -0.09700
C 	C 	0.80424 0.11023 0.00072 0.08800
N 	N 	0.75533 0.10906 0.02845 -0.19600
H 	H 	0.81261 0.01072 0.02278 0.03900
H 	H 	0.88325 0.19931 0.91704 0.05200
N 	N 	0.91485 0.08103 0.90439 -0.19500
H 	H 	0.73962 0.06874 0.05042 0.06900
H 	H 	0.72793 0.14378 0.02695 0.02500
H 	H 	0.92215 0.03008 0.90023 0.08300
H 	H 	0.92842 0.11968 0.88184 0.08200
C 	C 	0.30968 0.12802 0.01228 -0.03400
C 	C 	0.34773 0.19175 0.98675 -0.10000
C 	C 	0.29402 0.21225 0.96643 0.12300
C 	C 	0.19994 0.15441 0.96383 -0.09200
C 	C 	0.16085 0.08778 0.98781 -0.00900
C 	C 	0.21768 0.07986 0.01482 0.05800
N 	N 	0.18543 0.02938 0.04412 -0.19300
H 	H 	0.35158 0.11644 0.03051 0.05000
H 	H 	0.15751 0.16366 0.94437 0.05300
N 	N 	0.33279 0.29047 0.95233 -0.20100
H 	H 	0.22653 0.02006 0.06244 0.08000
H 	H 	0.12173 0.00402 0.05077 0.08200
H 	H 	0.40148 0.34373 0.96210 0.08700
H 	H 	0.29272 0.30202 0.93475 0.08200
