data_crystal

_cell_length_a 19.66878
_cell_length_b 19.21447
_cell_length_c 10.70823
_cell_angle_alpha 90.00000
_cell_angle_beta  90.00000
_cell_angle_gamma 120.52961

_symmetry_space_group_name_	'P 1'
_symmetry_space_group_name_H-M	'P 1'

loop_
_symmetry_equiv_pos_as_xyz
  x,y,z

loop_
_atom_site_label
_atom_site_type_symbol
_atom_site_fract_x
_atom_site_fract_y
_atom_site_fract_z
_atom_site_charge
C 	C 	0.41823 0.57460 0.88804 0.28700
C 	C 	0.15887 0.57821 0.60317 0.29300
C 	C 	0.41950 0.57852 0.60509 0.29100
C 	C 	0.15548 0.57594 0.88554 0.28400
C 	C 	0.42014 0.84061 0.60433 0.29700
C 	C 	0.41968 0.84172 0.89083 0.28500
Ni	Ni	0.27375 0.54808 0.74729 1.10800
Ni	Ni	0.27814 0.72278 0.74406 1.11500
Ni	Ni	0.44327 0.72233 0.74857 1.11600
O 	O 	0.34041 0.53368 0.88431 -0.37800
O 	O 	0.45763 0.65455 0.88045 -0.38600
O 	O 	0.34269 0.79965 0.60722 -0.38800
O 	O 	0.19258 0.53418 0.61072 -0.38100
O 	O 	0.20278 0.65721 0.60449 -0.38200
O 	O 	0.45748 0.80110 0.88503 -0.38700
O 	O 	0.34193 0.53495 0.61123 -0.38000
O 	O 	0.45480 0.65766 0.60861 -0.38300
O 	O 	0.34184 0.80482 0.87779 -0.39100
O 	O 	0.19294 0.53517 0.88362 -0.37800
O 	O 	0.19520 0.65602 0.87570 -0.38600
O 	O 	0.46029 0.80327 0.61517 -0.39200
O 	O 	0.33043 0.66209 0.76293 -0.70700
H 	H 	0.32982 0.66231 0.85525 0.13800
C 	C 	0.84545 0.42598 0.11445 0.28400
C 	C 	0.58144 0.42339 0.39493 0.29100
C 	C 	0.84207 0.42371 0.39682 0.29200
C 	C 	0.58270 0.42732 0.11198 0.28600
C 	C 	0.58081 0.16131 0.39567 0.29700
C 	C 	0.58125 0.16020 0.10916 0.28500
Ni	Ni	0.72719 0.45385 0.25271 1.10800
Ni	Ni	0.55767 0.27958 0.25144 1.11600
Ni	Ni	0.72280 0.27914 0.25594 1.11500
O 	O 	0.80799 0.46675 0.11637 -0.37800
O 	O 	0.80573 0.34591 0.12428 -0.38600
O 	O 	0.54066 0.19864 0.38483 -0.39200
O 	O 	0.65901 0.46697 0.38878 -0.38000
O 	O 	0.54614 0.34425 0.39141 -0.38300
O 	O 	0.65910 0.19710 0.12221 -0.39100
O 	O 	0.80836 0.46774 0.38927 -0.38100
O 	O 	0.79817 0.34472 0.39550 -0.38200
O 	O 	0.54346 0.20082 0.11497 -0.38700
O 	O 	0.66052 0.46824 0.11570 -0.37800
O 	O 	0.54330 0.34736 0.11957 -0.38600
O 	O 	0.65826 0.20228 0.39278 -0.38800
O 	O 	0.67051 0.33983 0.23707 -0.70700
H 	H 	0.67112 0.33961 0.14475 0.13800
C 	C 	0.05714 0.58157 0.02551 -0.04100
C 	C 	0.07579 0.53668 0.94347 -0.08500
C 	C 	0.01815 0.45514 0.91721 0.07600
C 	C 	0.94379 0.42035 0.97447 -0.04100
C 	C 	0.92514 0.46525 0.05651 -0.08500
C 	C 	0.98278 0.54678 0.08277 0.07600
C 	C 	0.96501 0.59834 0.16746 -0.19500
H 	H 	0.10100 0.64386 0.04591 0.05100
H 	H 	0.89993 0.35806 0.95407 0.05100
C 	C 	0.03593 0.40359 0.83251 -0.19500
H 	H 	0.01981 0.65438 0.19586 0.06600
H 	H 	0.93598 0.56563 0.25428 0.07200
H 	H 	0.92650 0.61615 0.11823 0.07100
H 	H 	0.07443 0.38577 0.88174 0.07100
H 	H 	0.06495 0.43630 0.74569 0.07200
H 	H 	0.98112 0.34755 0.80411 0.06600
C 	C 	0.94939 0.52940 0.52889 -0.04000
C 	C 	0.92260 0.46112 0.45208 -0.08900
C 	C 	0.97431 0.43205 0.42368 0.07500
C 	C 	0.05156 0.47253 0.47108 -0.04000
C 	C 	0.07834 0.54081 0.54789 -0.08900
C 	C 	0.02664 0.56988 0.57629 0.07500
C 	C 	0.05365 0.64539 0.65292 -0.19700
H 	H 	0.90997 0.55151 0.55160 0.05200
H 	H 	0.09098 0.45042 0.44838 0.05200
C 	C 	0.94730 0.35654 0.34704 -0.19700
H 	H 	0.00379 0.65464 0.67658 0.06700
H 	H 	0.09761 0.69909 0.59960 0.07200
H 	H 	0.07941 0.64126 0.74232 0.07100
H 	H 	0.92154 0.36068 0.25765 0.07100
H 	H 	0.90334 0.30284 0.40036 0.07200
H 	H 	0.99716 0.34730 0.32338 0.06700
C 	C 	0.45393 0.98351 0.60748 -0.04600
C 	C 	0.45945 0.92174 0.54765 -0.09300
C 	C 	0.50373 0.93860 0.43604 0.08200
C 	C 	0.54701 0.01841 0.39252 -0.04600
C 	C 	0.54149 0.08018 0.45235 -0.09300
C 	C 	0.49722 0.06332 0.56396 0.08200
C 	C 	0.49653 0.12983 0.63791 -0.19900
H 	H 	0.41782 0.96988 0.69059 0.04100
H 	H 	0.58313 0.03204 0.30941 0.04100
C 	C 	0.50441 0.87209 0.36210 -0.19900
H 	H 	0.47680 0.11051 0.73555 0.07200
H 	H 	0.45548 0.14622 0.59386 0.08300
H 	H 	0.55667 0.18397 0.64272 0.08700
H 	H 	0.44428 0.81795 0.35728 0.08700
H 	H 	0.54547 0.85570 0.40614 0.08300
H 	H 	0.52415 0.89140 0.26445 0.07200
C 	C 	0.47170 0.01781 0.10856 -0.04600
C 	C 	0.53989 0.07937 0.05112 -0.08900
C 	C 	0.56719 0.06318 0.93868 0.07900
C 	C 	0.52924 0.98410 0.89144 -0.04600
C 	C 	0.46106 0.92255 0.94888 -0.08900
C 	C 	0.43376 0.93874 0.06133 0.07900
C 	C 	0.36516 0.87226 0.13226 -0.19700
H 	H 	0.44931 0.03104 0.19229 0.04200
H 	H 	0.55164 0.97088 0.80771 0.04200
C 	C 	0.63578 0.12966 0.86775 -0.19700
H 	H 	0.36366 0.89055 0.23022 0.07200
H 	H 	0.36999 0.81716 0.13623 0.08400
H 	H 	0.30888 0.85784 0.08638 0.08100
H 	H 	0.69207 0.14408 0.91362 0.08100
H 	H 	0.63096 0.18475 0.86378 0.08400
H 	H 	0.63729 0.11137 0.76979 0.07200
C 	C 	0.52103 0.58019 0.03014 -0.04000
C 	C 	0.45874 0.53545 0.94645 -0.08700
C 	C 	0.43784 0.45515 0.91630 0.07500
C 	C 	0.47989 0.42172 0.96989 -0.04000
C 	C 	0.54219 0.46646 0.05357 -0.08700
C 	C 	0.56308 0.54676 0.08373 0.07500
C 	C 	0.63218 0.59874 0.16791 -0.19500
H 	H 	0.53693 0.64149 0.05386 0.05200
H 	H 	0.46400 0.36042 0.94616 0.05200
C 	C 	0.36874 0.40317 0.83211 -0.19500
H 	H 	0.63256 0.65445 0.19696 0.06700
H 	H 	0.68830 0.61718 0.11799 0.07200
H 	H 	0.62945 0.56601 0.25435 0.07200
H 	H 	0.37149 0.43590 0.74567 0.07200
H 	H 	0.31263 0.38474 0.88203 0.07200
H 	H 	0.36837 0.34747 0.80307 0.06700
C 	C 	0.42169 0.47406 0.46943 -0.04000
C 	C 	0.46256 0.54098 0.54893 -0.08900
C 	C 	0.54256 0.56845 0.57912 0.07400
C 	C 	0.57925 0.52785 0.53059 -0.04000
C 	C 	0.53838 0.46093 0.45109 -0.08900
C 	C 	0.45838 0.43346 0.42091 0.07400
C 	C 	0.41053 0.35933 0.34138 -0.19600
H 	H 	0.36074 0.45314 0.44546 0.05200
H 	H 	0.64020 0.54877 0.55457 0.05200
C 	C 	0.59041 0.64257 0.65865 -0.19600
H 	H 	0.35243 0.35182 0.31575 0.06700
H 	H 	0.39924 0.30450 0.39341 0.07200
H 	H 	0.44155 0.36395 0.25301 0.07100
H 	H 	0.55938 0.63796 0.74702 0.07100
H 	H 	0.60170 0.69741 0.60663 0.07200
H 	H 	0.64850 0.65008 0.68429 0.06700
