data_crystal

_cell_length_a 20.68138
_cell_length_b 21.30622
_cell_length_c 30.84192
_cell_angle_alpha 60.86680
_cell_angle_beta  118.83747
_cell_angle_gamma 133.25319

_symmetry_space_group_name_	'P 1'
_symmetry_space_group_name_H-M	'P 1'

loop_
_symmetry_equiv_pos_as_xyz
  x,y,z

loop_
_atom_site_label
_atom_site_type_symbol
_atom_site_fract_x
_atom_site_fract_y
_atom_site_fract_z
_atom_site_charge
C 	C 	0.30344 0.66831 0.21045 0.10700
N 	N 	0.39496 0.71968 0.21448 -0.13700
C 	C 	0.43204 0.68583 0.21478 0.11500
N 	N 	0.37837 0.60107 0.21174 -0.13600
C 	C 	0.28696 0.55175 0.20370 0.11200
N 	N 	0.24876 0.58505 0.20301 -0.13900
C 	C 	0.27865 0.62929 0.71279 0.10800
N 	N 	0.36826 0.66480 0.72103 -0.13600
C 	C 	0.39067 0.61351 0.72660 0.11300
N 	N 	0.32433 0.52697 0.72595 -0.13600
C 	C 	0.23537 0.49389 0.71215 0.11300
N 	N 	0.21188 0.54457 0.70605 -0.13800
Co	Co	0.08816 0.04361 0.05345 1.17400
Co	Co	0.01889 0.10612 0.09257 1.16300
C 	C 	0.26737 0.07176 0.07573 0.28000
Co	Co	0.10094 0.90048 0.05248 1.16300
O 	O 	0.08840 0.14501 0.04460 -0.48200
C 	C 	0.09822 0.24494 0.13993 0.30400
C 	C 	0.11933 0.80747 0.16127 0.30100
O 	O 	0.12631 0.00162 0.98611 -0.41400
O 	O 	0.11987 0.20678 0.13139 -0.40100
O 	O 	0.08275 0.79524 0.11550 -0.42500
O 	O 	0.10844 0.85149 0.17285 -0.39800
O 	O 	0.05692 0.93903 0.07697 -0.77200
O 	O 	0.23094 0.98647 0.08867 -0.38800
O 	O 	0.22818 0.10043 0.07750 -0.39200
Co	Co	0.05886 0.01590 0.55577 1.17200
C 	C 	0.23245 0.08116 0.54512 0.30300
Co	Co	0.09377 0.88771 0.55675 1.16400
O 	O 	0.05676 0.11303 0.55224 -0.48800
C 	C 	0.02247 0.16536 0.66052 0.25000
C 	C 	0.17403 0.85089 0.66584 0.28700
O 	O 	0.05494 0.14128 0.64798 -0.40500
O 	O 	0.19570 0.90528 0.62211 -0.39300
O 	O 	0.12628 0.84946 0.68450 -0.38200
O 	O 	0.04534 0.91818 0.58452 -0.76500
O 	O 	0.17879 0.01864 0.52090 -0.41900
O 	O 	0.19926 0.08610 0.56993 -0.39900
C 	C 	0.09931 0.07139 0.87234 0.03000
C 	C 	0.07547 0.05321 0.82633 -0.08000
H 	H 	0.16917 0.12386 0.88626 0.03100
C 	C 	0.14365 0.10754 0.79760 0.09000
N 	N 	0.19835 0.15115 0.77457 -0.12000
C 	C 	0.07919 0.04129 0.39292 -0.09100
C 	C 	0.09202 0.04950 0.34890 0.02700
H 	H 	0.13510 0.08856 0.41626 0.06000
C 	C 	0.18030 0.11941 0.33670 0.06700
N 	N 	0.25125 0.17533 0.32714 -0.11400
C 	C 	0.17364 0.41037 0.65125 -0.04100
C 	C 	0.16748 0.41114 0.69447 -0.00500
C 	C 	0.11767 0.32998 0.72806 -0.04200
C 	C 	0.07620 0.24944 0.71911 -0.00200
C 	C 	0.08507 0.24896 0.67681 -0.06300
C 	C 	0.13404 0.33007 0.64296 0.00100
H 	H 	0.21304 0.47251 0.62536 0.04400
H 	H 	0.11362 0.32926 0.76205 0.04300
H 	H 	0.03545 0.18726 0.74446 0.02500
H 	H 	0.13878 0.33087 0.60918 0.03500
C 	C 	0.32031 0.77571 0.70772 -0.04600
C 	C 	0.25367 0.68435 0.70913 0.00000
C 	C 	0.16317 0.64586 0.70653 -0.04700
C 	C 	0.13907 0.69892 0.69941 0.00200
C 	C 	0.20439 0.79139 0.69394 -0.07700
C 	C 	0.29589 0.82844 0.70039 0.00600
H 	H 	0.39064 0.80687 0.71071 0.05100
H 	H 	0.11094 0.57540 0.70897 0.04300
H 	H 	0.06849 0.66871 0.69516 0.02800
H 	H 	0.34741 0.89938 0.69649 0.03900
C 	C 	0.16849 0.40431 0.11874 0.00900
C 	C 	0.16769 0.33043 0.15395 -0.08500
C 	C 	0.20460 0.32973 0.20596 0.00600
C 	C 	0.23436 0.39785 0.22293 -0.04300
C 	C 	0.23035 0.46923 0.18792 -0.00400
C 	C 	0.19751 0.47209 0.13567 -0.04700
H 	H 	0.14041 0.40607 0.07839 0.02400
H 	H 	0.20413 0.27317 0.23365 0.04500
H 	H 	0.26287 0.39634 0.26324 0.04800
H 	H 	0.19751 0.52849 0.10796 0.04200
H 	H 	0.50034 0.82192 0.13469 0.04600
C 	C 	0.17497 0.64786 0.22018 -0.04900
C 	C 	0.26301 0.70478 0.21164 0.00000
C 	C 	0.31161 0.79712 0.20289 -0.04600
C 	C 	0.26887 0.83198 0.19695 0.00600
C 	C 	0.17619 0.77558 0.19759 -0.08500
C 	C 	0.13263 0.68319 0.21414 0.00700
H 	H 	0.13794 0.57645 0.22969 0.04400
H 	H 	0.38085 0.84233 0.19822 0.05100
H 	H 	0.30484 0.90338 0.18615 0.04000
H 	H 	0.06210 0.63846 0.21666 0.02200
C 	C 	0.42775 0.24845 0.48316 -0.04400
C 	C 	0.48750 0.22454 0.51657 0.00000
C 	C 	0.46850 0.16313 0.56364 -0.04400
C 	C 	0.39004 0.12519 0.57671 0.00700
C 	C 	0.32845 0.14651 0.54237 -0.08400
C 	C 	0.34960 0.21071 0.49630 0.01200
H 	H 	0.44291 0.29775 0.44736 0.05100
H 	H 	0.51567 0.14648 0.59068 0.04600
H 	H 	0.37439 0.07523 0.61227 0.03600
H 	H 	0.30227 0.22709 0.46912 0.03200
C 	C 	0.49913 0.16074 0.07792 -0.04600
C 	C 	0.51339 0.22640 0.03196 -0.00000
C 	C 	0.45072 0.24752 0.00349 -0.05300
C 	C 	0.37391 0.20258 0.02056 -0.00300
C 	C 	0.35864 0.13556 0.06598 -0.07700
C 	C 	0.42290 0.11647 0.09523 0.00700
H 	H 	0.46225 0.29961 0.96845 0.05800
H 	H 	0.32417 0.21703 0.99731 0.04400
H 	H 	0.41196 0.06500 0.13053 0.03500
C 	C 	0.06804 0.02061 0.95673 0.30900
O 	O 	0.03739 0.03685 0.97640 -0.38800
O 	O 	0.02648 0.08417 0.23316 -0.40400
O 	O 	0.01955 0.96258 0.24754 -0.39100
Co	Co	0.01238 0.85546 0.64092 1.16100
O 	O 	0.01085 0.00755 0.47833 -0.40800
O 	O 	0.01590 0.75485 0.59328 -0.44700
C 	C 	0.03464 0.01973 0.90163 -0.14300
C 	C 	0.48264 0.65412 0.72362 0.00100
H 	H 	0.43035 0.56916 0.67847 0.05100
C 	C 	0.52589 0.74375 0.20953 0.00000
C 	C 	0.02034 0.98784 0.31824 -0.11300
C 	C 	0.02115 0.01185 0.26394 0.27800
C 	C 	0.49082 0.62162 0.69753 -0.04200
O 	O 	0.01288 0.20839 0.13401 -0.43500
Co	Co	0.00397 0.86766 0.12568 1.16500
C 	C 	0.99413 0.94833 0.46203 0.31500
C 	C 	0.54703 0.80521 0.16284 -0.04200
C 	C 	0.99673 0.96972 0.40852 0.00500
O 	O 	0.99192 0.96469 0.73754 -0.36200
O 	O 	0.98763 0.87609 0.49417 -0.37200
H 	H 	0.54857 0.14589 0.10100 0.04700
C 	C 	0.98599 0.98198 0.80914 0.01800
Co	Co	0.97454 0.06302 0.59625 1.18700
O 	O 	0.93433 0.12898 0.64712 -0.36700
C 	C 	0.95138 0.97335 0.75540 0.27000
H 	H 	0.55739 0.74274 0.77169 0.04900
C 	C 	0.72456 0.30611 0.01293 0.11600
N 	N 	0.63656 0.25239 0.01668 -0.14100
C 	C 	0.60223 0.28569 0.01988 0.11300
N 	N 	0.65554 0.37214 0.01954 -0.13800
C 	C 	0.74412 0.42511 0.01842 0.11700
N 	N 	0.77924 0.39258 0.01496 -0.13600
C 	C 	0.70651 0.29640 0.51207 0.11100
N 	N 	0.61577 0.24516 0.51024 -0.13500
C 	C 	0.57988 0.28123 0.50877 0.11500
N 	N 	0.63430 0.36768 0.50890 -0.13600
C 	C 	0.72553 0.41615 0.51621 0.11500
N 	N 	0.76186 0.38109 0.51700 -0.13100
Co	Co	0.95276 0.93733 0.17319 1.19400
Co	Co	0.92583 0.07602 0.16746 1.18100
C 	C 	0.90808 0.75152 0.05130 0.29300
O 	O 	0.83263 0.06360 0.09821 -0.39200
O 	O 	0.96594 0.03499 0.14174 -0.74000
C 	C 	0.86067 0.12140 0.05598 0.28800
O 	O 	0.95355 0.83637 0.18182 -0.44100
C 	C 	0.78189 0.88190 0.18371 0.30500
O 	O 	0.99162 0.97855 0.10146 -0.55000
O 	O 	0.92323 0.13502 0.04301 -0.36000
O 	O 	0.83681 0.94858 0.20461 -0.39800
O 	O 	0.81392 0.86472 0.16607 -0.38100
O 	O 	0.96435 0.82019 0.02128 -0.36700
O 	O 	0.90499 0.75976 0.09077 -0.35600
Co	Co	0.92249 0.90133 0.67792 1.18200
Co	Co	0.82754 0.99361 0.65133 1.17400
C 	C 	0.93236 0.71268 0.59497 0.34800
O 	O 	0.77661 0.01589 0.57416 -0.39300
O 	O 	0.90198 0.97706 0.63572 -0.74200
C 	C 	0.82604 0.09456 0.54706 0.29700
O 	O 	0.97090 0.83040 0.69947 -0.44500
C 	C 	0.72874 0.80165 0.68670 0.29400
O 	O 	0.96257 0.94202 0.60627 -0.54600
O 	O 	0.90238 0.11989 0.54275 -0.35900
O 	O 	0.72268 0.86426 0.65054 -0.38600
O 	O 	0.79156 0.79394 0.69305 -0.37200
O 	O 	0.87055 0.95743 0.73038 -0.39600
O 	O 	0.91478 0.73773 0.61729 -0.37800
C 	C 	0.92196 0.93003 0.83885 -0.05500
C 	C 	0.94463 0.95071 0.88339 0.07900
H 	H 	0.85304 0.87511 0.82623 0.05600
C 	C 	0.87459 0.90069 0.90996 0.07400
N 	N 	0.81838 0.86075 0.93117 -0.10200
C 	C 	0.93811 0.91595 0.33401 0.05200
C 	C 	0.92566 0.90700 0.37841 -0.03000
H 	H 	0.88208 0.86896 0.31051 0.03600
C 	C 	0.83867 0.83448 0.39194 0.09500
N 	N 	0.76885 0.77636 0.40266 -0.11800
C 	C 	0.56202 0.71968 0.74950 -0.04200
C 	C 	0.57673 0.65944 0.69386 0.01200
C 	C 	0.65525 0.73247 0.71432 -0.07600
C 	C 	0.64804 0.75730 0.74577 0.00100
H 	H 	0.58104 0.63804 0.67048 0.04000
H 	H 	0.70829 0.81227 0.76290 0.03300
C 	C 	0.58553 0.72046 0.24478 -0.04200
C 	C 	0.66483 0.75752 0.23329 0.01400
C 	C 	0.68666 0.81993 0.18693 -0.08100
C 	C 	0.62633 0.84218 0.15134 0.00700
H 	H 	0.56898 0.67156 0.28051 0.05200
H 	H 	0.71176 0.74119 0.26157 0.03700
H 	H 	0.64324 0.89157 0.11578 0.03800
C 	C 	0.77840 0.26775 0.48367 -0.04600
C 	C 	0.74777 0.25368 0.52182 0.00900
C 	C 	0.75454 0.19680 0.56942 -0.05100
C 	C 	0.78667 0.15052 0.57846 0.02900
C 	C 	0.81503 0.16148 0.54026 -0.08600
C 	C 	0.81182 0.22151 0.49286 0.01700
H 	H 	0.77422 0.31237 0.44671 0.05300
H 	H 	0.73169 0.18583 0.59912 0.04900
H 	H 	0.78338 0.10115 0.61418 -0.01400
H 	H 	0.83130 0.22970 0.46258 0.04100
C 	C 	0.83504 0.49404 0.58586 -0.04500
C 	C 	0.78407 0.49571 0.53514 0.00600
C 	C 	0.77004 0.56232 0.50780 -0.04300
C 	C 	0.80795 0.62728 0.53061 0.01700
C 	C 	0.86244 0.62800 0.58049 -0.09300
C 	C 	0.87247 0.55876 0.60869 0.02500
H 	H 	0.84336 0.44101 0.60811 0.05500
H 	H 	0.72830 0.56273 0.46914 0.05400
H 	H 	0.79985 0.68043 0.50837 0.04300
H 	H 	0.91421 0.55834 0.64733 0.04200
C 	C 	0.89026 0.26785 0.02952 -0.00100
C 	C 	0.82981 0.17904 0.02628 -0.06700
C 	C 	0.73591 0.13983 0.00804 -0.01400
C 	C 	0.70202 0.18448 0.99954 -0.01500
C 	C 	0.76174 0.26852 0.01002 -0.01800
C 	C 	0.85652 0.31200 0.02231 -0.03300
H 	H 	0.96320 0.30018 0.04173 0.05400
H 	H 	0.68858 0.07217 0.00405 0.03700
H 	H 	0.62900 0.15178 0.98723 0.04600
H 	H 	0.90400 0.37805 0.02869 0.05400
C 	C 	0.78943 0.57811 0.98499 -0.03100
C 	C 	0.80218 0.51485 0.02500 -0.01000
C 	C 	0.84525 0.52771 0.07465 -0.03700
C 	C 	0.87138 0.60087 0.08446 0.01000
C 	C 	0.85661 0.66306 0.04450 -0.08100
C 	C 	0.81464 0.65061 0.99480 0.01600
H 	H 	0.75505 0.56831 0.94663 0.05000
H 	H 	0.85428 0.47862 0.10607 0.05200
H 	H 	0.90611 0.61088 0.12277 0.04900
H 	H 	0.80439 0.69894 0.96340 0.04500
