data_crystal

_cell_length_a 17.99730
_cell_length_b 17.30787
_cell_length_c 48.32022
_cell_angle_alpha 90.77426
_cell_angle_beta  91.03308
_cell_angle_gamma 110.82782

_symmetry_space_group_name_	'P 1'
_symmetry_space_group_name_H-M	'P 1'

loop_
_symmetry_equiv_pos_as_xyz
  x,y,z

loop_
_atom_site_label
_atom_site_type_symbol
_atom_site_fract_x
_atom_site_fract_y
_atom_site_fract_z
_atom_site_charge
O 	O 	0.08724 0.88068 0.75534 -0.69400
Ni	Ni	0.10583 0.99331 0.77245 1.11600
O 	O 	0.13838 0.76844 0.72081 -0.33400
Ni	Ni	0.19009 0.87576 0.74519 1.11100
O 	O 	0.18700 0.95893 0.71624 -0.37900
O 	O 	0.18923 0.99389 0.80171 -0.33100
O 	O 	0.02489 0.99006 0.74224 -0.70200
O 	O 	0.09397 0.09693 0.79045 -0.30100
H 	H 	0.05910 0.83557 0.76788 0.21500
H 	H 	0.04284 0.03965 0.73059 0.20400
C 	C 	0.21543 0.03829 0.72307 0.36800
C 	C 	0.06997 0.74857 0.70717 0.40300
C 	C 	0.25722 0.98820 0.79451 0.40100
O 	O 	0.19388 0.06511 0.74650 -0.32100
O 	O 	0.26785 0.96996 0.76869 -0.35100
Ni	Ni	0.34852 0.76883 0.40350 1.10200
O 	O 	0.33759 0.69692 0.36811 -0.69300
Ni	Ni	0.22599 0.68592 0.35560 1.10800
O 	O 	0.44216 0.74621 0.42161 -0.34300
O 	O 	0.43532 0.62427 0.40196 -0.37100
O 	O 	0.42939 0.87093 0.38563 -0.34200
Ni	Ni	0.33349 0.58445 0.37676 1.08800
O 	O 	0.32984 0.94028 0.41019 -0.37100
O 	O 	0.26309 0.58393 0.40942 -0.41800
O 	O 	0.21185 0.60285 0.32362 -0.32500
O 	O 	0.24412 0.76693 0.38834 -0.70400
O 	O 	0.35058 0.84137 0.43699 -0.36600
O 	O 	0.12036 0.69972 0.34459 -0.31800
O 	O 	0.17946 0.84004 0.34369 -0.37800
Ni	Ni	0.25755 0.87957 0.37752 1.08600
H 	H 	0.37728 0.72304 0.35394 0.19900
H 	H 	0.20318 0.74779 0.40255 0.16600
C 	C 	0.18866 0.57851 0.40582 0.27500
O 	O 	0.34919 0.89173 0.35166 -0.37500
C 	C 	0.44093 0.67068 0.42416 0.29300
C 	C 	0.22200 0.53247 0.32808 0.38600
C 	C 	0.42000 0.89752 0.36094 0.38300
C 	C 	0.11484 0.77353 0.34447 0.37700
C 	C 	0.32975 0.90661 0.43464 0.28600
O 	O 	0.16227 0.59149 0.38123 -0.34500
O 	O 	0.23732 0.51428 0.35337 -0.38100
Ni	Ni	0.36355 0.68485 0.12889 1.10700
O 	O 	0.25877 0.64379 0.10605 -0.69500
Ni	Ni	0.19292 0.69492 0.12730 1.10600
O 	O 	0.41467 0.62565 0.10248 -0.34800
O 	O 	0.31113 0.50388 0.10645 -0.37900
O 	O 	0.39179 0.78191 0.10271 -0.39800
Ni	Ni	0.20446 0.52476 0.10408 1.07500
O 	O 	0.42575 0.79713 0.18543 -0.36600
O 	O 	0.19736 0.51911 0.14601 -0.37700
O 	O 	0.09785 0.66098 0.10048 -0.34200
O 	O 	0.29136 0.72066 0.15272 -0.69800
O 	O 	0.47151 0.73562 0.15008 -0.34900
O 	O 	0.15040 0.77532 0.14733 -0.32500
O 	O 	0.26997 0.87896 0.14308 -0.37800
Ni	Ni	0.34910 0.83610 0.16379 1.10300
H 	H 	0.26602 0.66565 0.08707 0.15900
H 	H 	0.27887 0.68607 0.16937 0.19400
C 	C 	0.14056 0.53504 0.15871 0.37200
O 	O 	0.43556 0.88656 0.13517 -0.35200
C 	C 	0.37363 0.55066 0.09309 0.29100
C 	C 	0.07510 0.58751 0.08806 0.28400
C 	C 	0.43623 0.85756 0.10991 0.32600
C 	C 	0.19524 0.85380 0.15035 0.37100
C 	C 	0.48365 0.78010 0.17346 0.40100
O 	O 	0.12623 0.60293 0.15324 -0.31900
O 	O 	0.09176 0.52620 0.09949 -0.39600
O 	O 	0.04637 0.20795 0.24643 -0.31700
O 	O 	0.09980 0.07697 0.24175 -0.33600
O 	O 	0.00957 0.07575 0.20728 -0.30200
Ni	Ni	0.03918 0.04548 0.27792 1.09100
O 	O 	0.05954 0.16471 0.29002 -0.38600
C 	C 	0.07144 0.22436 0.27226 0.39100
C 	C 	0.06682 0.05168 0.21684 0.37200
C 	C 	0.05059 0.33228 0.19421 0.27300
C 	C 	0.00790 0.46834 0.18123 0.26400
C 	C 	0.08601 0.47087 0.17647 -0.17900
C 	C 	0.10792 0.40472 0.18517 0.27500
F 	F 	0.18449 0.40886 0.18346 -0.37000
F 	F 	0.06989 0.26371 0.19655 -0.37300
F 	F 	0.98540 0.53228 0.17378 -0.34600
C 	C 	0.18340 0.02016 0.19962 0.27000
C 	C 	0.10160 0.00645 0.19814 -0.18500
C 	C 	0.05221 0.94721 0.17917 0.27500
C 	C 	0.08378 0.90063 0.16247 0.29000
C 	C 	0.16464 0.91102 0.16504 -0.19900
C 	C 	0.21464 0.97213 0.18338 0.28600
F 	F 	0.29298 0.98310 0.18617 -0.41100
F 	F 	0.23270 0.08011 0.21674 -0.35900
F 	F 	0.03553 0.84463 0.14395 -0.37000
F 	F 	0.97300 0.93295 0.17754 -0.35800
C 	C 	0.19420 0.33020 0.29244 0.28900
C 	C 	0.11725 0.31005 0.28105 -0.19100
C 	C 	0.08198 0.37053 0.28020 0.27800
C 	C 	0.11970 0.44751 0.29342 0.28100
C 	C 	0.19361 0.46480 0.30720 -0.18400
C 	C 	0.23265 0.40763 0.30514 0.27600
F 	F 	0.30622 0.42555 0.31683 -0.39500
F 	F 	0.23081 0.27382 0.29190 -0.37300
F 	F 	0.08210 0.50298 0.29437 -0.35700
C 	C 	0.00299 0.77393 0.31367 0.27000
C 	C 	0.03701 0.78190 0.34041 -0.18800
C 	C 	0.00733 0.81822 0.36161 0.25000
C 	C 	0.95038 0.81478 0.30724 0.28000
F 	F 	0.92472 0.81472 0.28064 -0.38800
F 	F 	0.02713 0.73403 0.29332 -0.35700
F 	F 	0.03599 0.82179 0.38796 -0.42800
C 	C 	0.29352 0.94888 0.50832 -0.05000
C 	C 	0.32903 0.95430 0.45990 -0.06500
C 	C 	0.27671 0.91692 0.48123 0.04800
S 	S 	0.19033 0.82984 0.47423 -0.03800
H 	H 	0.25554 0.91768 0.52497 0.06400
S 	S 	0.29892 0.14221 0.54365 -0.00600
H 	H 	0.20680 0.75888 0.47697 0.03400
H 	H 	0.22473 0.09545 0.55238 0.05800
C 	C 	0.02504 0.53890 0.45812 -0.07500
C 	C 	0.04179 0.48185 0.47507 0.02000
C 	C 	0.09961 0.44899 0.46723 -0.00400
C 	C 	0.14379 0.47758 0.44358 0.00200
C 	C 	0.13137 0.53938 0.42759 -0.07400
C 	C 	0.06890 0.56753 0.43434 0.04600
H 	H 	0.18932 0.45314 0.43795 0.05200
S 	S 	0.04391 0.63735 0.41331 0.01700
H 	H 	0.97892 0.56243 0.46379 0.07100
S 	S 	0.13047 0.58300 0.52611 0.00200
H 	H 	0.07520 0.71513 0.42497 0.04600
H 	H 	0.12124 0.65598 0.51969 0.04100
H 	H 	0.49051 0.43949 0.51257 0.05700
C 	C 	0.53633 0.63111 0.45328 0.00900
C 	C 	0.46469 0.64567 0.45086 -0.08300
C 	C 	0.41623 0.63671 0.47413 0.06200
C 	C 	0.43901 0.61164 0.49926 -0.07000
H 	H 	0.57410 0.63880 0.43552 0.06500
S 	S 	0.32643 0.65568 0.47205 -0.06000
H 	H 	0.40096 0.60324 0.51696 0.06500
H 	H 	0.33996 0.73505 0.48102 0.05200
C 	C 	0.34962 0.05752 0.70520 0.27200
C 	C 	0.29002 0.09046 0.71032 -0.17800
C 	C 	0.30490 0.17449 0.70538 0.28200
C 	C 	0.37894 0.22506 0.69553 0.28900
C 	C 	0.43869 0.19194 0.69080 -0.19400
C 	C 	0.42310 0.10767 0.69551 0.28400
F 	F 	0.47951 0.07417 0.69071 -0.40300
F 	F 	0.33730 0.97714 0.71060 -0.39000
F 	F 	0.39311 0.30636 0.69121 -0.36000
F 	F 	0.24785 0.20712 0.71014 -0.35700
C 	C 	0.03795 0.63446 0.04326 -0.01700
C 	C 	0.02399 0.57169 0.06276 -0.08400
H 	H 	0.08110 0.69557 0.04792 0.05200
S 	S 	0.03952 0.52140 0.95963 -0.02300
H 	H 	0.97132 0.36717 0.08301 0.04500
C 	C 	0.51343 0.00748 0.99101 -0.07300
C 	C 	0.54658 0.99964 0.04078 0.04100
S 	S 	0.45828 0.01001 0.93810 -0.00000
H 	H 	0.45695 0.95816 0.99408 0.06600
C 	C 	0.50259 0.02983 0.05907 -0.02400
C 	C 	0.47196 0.98633 0.08302 0.03100
C 	C 	0.48418 0.91246 0.08875 -0.07900
C 	C 	0.53382 0.88621 0.07161 0.07400
C 	C 	0.56420 0.92961 0.04766 -0.07500
S 	S 	0.48418 0.12096 0.05191 -0.00600
H 	H 	0.43538 0.00778 0.09646 0.05000
H 	H 	0.54566 0.18767 0.06256 0.05000
H 	H 	0.62910 0.82512 0.09508 0.09400
C 	C 	0.41513 0.49397 0.00987 0.01800
H 	H 	0.33652 0.35658 0.97949 0.05800
C 	C 	0.35046 0.51867 0.01588 -0.01000
C 	C 	0.33595 0.53430 0.04333 -0.00000
C 	C 	0.38626 0.52706 0.06484 -0.10000
C 	C 	0.45092 0.50243 0.05885 0.06000
S 	S 	0.28855 0.53219 0.98918 -0.02400
H 	H 	0.28645 0.55379 0.04794 -0.00400
H 	H 	0.22746 0.45882 0.98379 0.04200
H 	H 	0.48551 0.41320 0.09519 0.05800
C 	C 	0.45649 0.03269 0.83042 0.26500
C 	C 	0.47323 0.11402 0.84031 -0.19300
C 	C 	0.41725 0.15249 0.83596 0.27300
C 	C 	0.34518 0.11008 0.82205 0.28800
C 	C 	0.32820 0.02865 0.81225 -0.20400
C 	C 	0.38436 0.99031 0.81638 0.29900
F 	F 	0.36884 0.91183 0.80685 -0.38400
F 	F 	0.50897 0.99386 0.83514 -0.37700
F 	F 	0.29290 0.14913 0.81725 -0.36500
F 	F 	0.43290 0.23126 0.84523 -0.39700
Ni	Ni	0.61625 0.29081 0.90002 1.10300
O 	O 	0.63550 0.35196 0.86292 -0.69500
Ni	Ni	0.74706 0.35519 0.85626 1.10500
O 	O 	0.52210 0.32224 0.91259 -0.34500
O 	O 	0.53159 0.43173 0.88542 -0.35800
O 	O 	0.53444 0.18634 0.88214 -0.35400
Ni	Ni	0.64195 0.46737 0.86733 1.08600
O 	O 	0.62180 0.11636 0.91177 -0.38000
O 	O 	0.70154 0.47869 0.90438 -0.39900
O 	O 	0.77379 0.43301 0.82341 -0.33200
O 	O 	0.71964 0.28188 0.88986 -0.70900
O 	O 	0.60531 0.22560 0.93522 -0.37300
O 	O 	0.85074 0.33249 0.85155 -0.32800
O 	O 	0.78211 0.19296 0.84890 -0.37600
Ni	Ni	0.70087 0.16616 0.88094 1.08500
H 	H 	0.59827 0.32261 0.84769 0.20600
H 	H 	0.75948 0.30174 0.90519 0.16600
C 	C 	0.76925 0.46547 0.90641 0.26300
O 	O 	0.61306 0.15160 0.85174 -0.37400
C 	C 	0.51792 0.39591 0.90952 0.29600
C 	C 	0.76846 0.50659 0.82545 0.39600
C 	C 	0.54376 0.15506 0.85821 0.38300
C 	C 	0.85021 0.25623 0.84945 0.37600
C 	C 	0.61822 0.15515 0.93537 0.28300
O 	O 	0.80368 0.45150 0.88379 -0.33800
O 	O 	0.74596 0.53045 0.84877 -0.38100
Ni	Ni	0.61666 0.33620 0.63355 1.10800
O 	O 	0.70694 0.36803 0.60549 -0.69400
Ni	Ni	0.77539 0.30760 0.62002 1.10500
O 	O 	0.56006 0.40385 0.61319 -0.33200
O 	O 	0.67291 0.51819 0.61229 -0.37700
O 	O 	0.56417 0.24096 0.60605 -0.39000
Ni	Ni	0.77057 0.48508 0.60405 1.07700
O 	O 	0.58042 0.22831 0.68890 -0.35800
O 	O 	0.79891 0.48952 0.64522 -0.39100
O 	O 	0.85281 0.33299 0.58836 -0.34100
O 	O 	0.69489 0.29115 0.65079 -0.69900
O 	O 	0.52140 0.29472 0.65988 -0.33200
O 	O 	0.81873 0.21978 0.63410 -0.32500
O 	O 	0.69287 0.12662 0.63435 -0.38000
Ni	Ni	0.63635 0.17813 0.66216 1.10600
H 	H 	0.68730 0.34693 0.58659 0.15500
H 	H 	0.72009 0.32544 0.66733 0.19800
C 	C 	0.85551 0.46430 0.65407 0.39900
O 	O 	0.53469 0.13805 0.63770 -0.34000
C 	C 	0.60202 0.47429 0.60193 0.28300
C 	C 	0.87606 0.40725 0.57759 0.28200
C 	C 	0.52839 0.16358 0.61261 0.29600
C 	C 	0.76973 0.14324 0.63696 0.35500
C 	C 	0.51728 0.24426 0.68072 0.39400
O 	O 	0.86217 0.39627 0.64368 -0.33300
O 	O 	0.87396 0.47134 0.59241 -0.36300
O 	O 	0.92310 0.79741 0.73513 -0.33000
O 	O 	0.85958 0.91297 0.72039 -0.35300
O 	O 	0.95194 0.90544 0.68940 -0.31600
Ni	Ni	0.91845 0.97000 0.75591 1.09400
O 	O 	0.90672 0.86188 0.77479 -0.37200
C 	C 	0.90107 0.79421 0.76099 0.39500
C 	C 	0.89176 0.92853 0.69568 0.37700
O 	O 	0.88280 0.14638 0.26520 -0.69900
Ni	Ni	0.85408 0.04267 0.28703 1.10700
O 	O 	0.85367 0.25438 0.22501 -0.31900
Ni	Ni	0.78589 0.15699 0.25011 1.09400
O 	O 	0.77965 0.05959 0.22453 -0.38500
O 	O 	0.76965 0.06080 0.31116 -0.35100
O 	O 	0.85560 0.94368 0.30987 -0.31200
H 	H 	0.91455 0.19553 0.27647 0.20800
H 	H 	0.91396 0.96962 0.25187 0.22300
C 	C 	0.75544 0.98277 0.23372 0.36600
C 	C 	0.70321 0.06318 0.30006 0.39600
O 	O 	0.76600 0.96784 0.26023 -0.30900
O 	O 	0.69842 0.07708 0.27334 -0.36400
F 	F 	0.87687 0.39637 0.19707 -0.36200
C 	C 	0.62406 0.87629 0.17260 0.28700
C 	C 	0.56395 0.81380 0.18600 -0.19600
C 	C 	0.57645 0.79543 0.21347 0.29700
C 	C 	0.64409 0.84525 0.22844 0.29000
C 	C 	0.69921 0.91535 0.21614 -0.16500
C 	C 	0.69194 0.92634 0.18752 0.27400
F 	F 	0.74919 0.98719 0.17438 -0.36600
F 	F 	0.61405 0.89246 0.14566 -0.39600
F 	F 	0.65414 0.82730 0.25520 -0.34100
F 	F 	0.52085 0.73181 0.22611 -0.35800
C 	C 	0.62447 0.04591 0.34315 0.28500
C 	C 	0.62858 0.02529 0.31514 -0.19900
C 	C 	0.56269 0.96435 0.30201 0.30100
C 	C 	0.49414 0.92387 0.31686 0.27400
C 	C 	0.49071 0.94328 0.34498 -0.18100
C 	C 	0.55586 0.00517 0.35801 0.26800
F 	F 	0.55235 0.02644 0.38497 -0.38200
F 	F 	0.68685 0.10561 0.35596 -0.38100
F 	F 	0.43198 0.86370 0.30412 -0.37900
F 	F 	0.56617 0.94217 0.27514 -0.35800
C 	C 	0.36128 0.01885 0.51417 0.00200
C 	C 	0.40828 0.06168 0.49230 0.00700
C 	C 	0.39162 0.02941 0.46525 -0.01100
C 	C 	0.38788 0.04113 0.54322 0.02100
S 	S 	0.49002 0.15374 0.49874 -0.01400
H 	H 	0.43065 0.05967 0.44872 0.07500
C 	C 	0.36913 0.10296 0.55750 -0.00000
C 	C 	0.40894 0.13599 0.58248 0.00200
C 	C 	0.46873 0.10922 0.59298 -0.06400
C 	C 	0.48064 0.04082 0.58034 0.03900
C 	C 	0.43999 0.00701 0.55554 -0.06700
H 	H 	0.39740 0.18653 0.59276 0.06700
S 	S 	0.54873 0.99941 0.59459 0.06200
H 	H 	0.45212 0.95713 0.54506 0.06900
H 	H 	0.62195 0.03796 0.58352 0.04200
H 	H 	0.46479 0.21965 0.49803 0.04200
C 	C 	0.03649 0.50333 0.52629 -0.00800
C 	C 	0.92026 0.42197 0.55170 -0.07500
C 	C 	0.88509 0.37884 0.52702 0.05100
C 	C 	0.92611 0.39775 0.50223 -0.05400
S 	S 	0.78808 0.30448 0.52656 -0.03200
H 	H 	0.89895 0.36484 0.48326 0.06700
H 	H 	0.73420 0.34286 0.52233 0.02600
H 	H 	0.06791 0.29630 0.47827 0.05200
C 	C 	0.51625 0.48078 0.53009 -0.06700
C 	C 	0.53063 0.56541 0.52792 0.01400
C 	C 	0.56314 0.61902 0.55077 -0.00200
C 	C 	0.58231 0.58763 0.57534 -0.00000
C 	C 	0.57092 0.50330 0.57723 -0.08400
C 	C 	0.53746 0.44951 0.55428 0.04900
C 	C 	0.51050 0.59699 0.50168 0.01900
S 	S 	0.58186 0.72577 0.54865 0.00600
H 	H 	0.60773 0.62917 0.59282 0.06900
S 	S 	0.52585 0.34410 0.55482 -0.02700
C 	C 	0.55987 0.60766 0.47862 -0.00400
S 	S 	0.65151 0.59274 0.48132 -0.00600
H 	H 	0.59186 0.33370 0.54424 0.02300
H 	H 	0.63962 0.51113 0.47612 0.04100
H 	H 	0.51521 0.74129 0.55596 0.05200
C 	C 	0.88189 0.09254 0.64697 0.27600
C 	C 	0.79987 0.07876 0.64694 -0.18900
C 	C 	0.74745 0.00572 0.65858 0.24600
C 	C 	0.77748 0.95260 0.67259 0.28800
C 	C 	0.85983 0.97152 0.67521 -0.19200
C 	C 	0.91171 0.03954 0.66125 0.26500
F 	F 	0.93286 0.15784 0.63355 -0.36600
F 	F 	0.72646 0.88379 0.68435 -0.36500
F 	F 	0.66758 0.98732 0.65705 -0.38300
C 	C 	0.91134 0.54017 0.69816 0.28900
C 	C 	0.92205 0.52208 0.67045 -0.19400
C 	C 	0.99187 0.56956 0.65717 0.29600
C 	C 	0.96659 0.60953 0.71161 0.29700
F 	F 	0.84584 0.49259 0.71164 -0.36400
F 	F 	0.00511 0.54997 0.63088 -0.39500
C 	C 	0.90096 0.51945 0.98390 0.01500
C 	C 	0.89560 0.49558 0.93408 -0.00500
C 	C 	0.81319 0.47940 0.93351 -0.07800
C 	C 	0.77419 0.47796 0.95888 0.05400
C 	C 	0.81906 0.50326 0.98343 -0.06700
H 	H 	0.92601 0.49421 0.91503 0.07900
S 	S 	0.67002 0.43396 0.96109 -0.05700
H 	H 	0.78940 0.50568 0.00259 0.06200
H 	H 	0.08666 0.60177 0.95515 0.05300
H 	H 	0.64926 0.35515 0.97066 0.04400
H 	H 	0.95273 0.73467 0.99993 0.06300
C 	C 	0.56788 0.03617 0.01326 0.00500
C 	C 	0.64160 0.09969 0.00920 -0.00200
C 	C 	0.65909 0.13536 0.98316 -0.00600
C 	C 	0.60365 0.10835 0.96110 -0.08100
C 	C 	0.53047 0.04366 0.96506 0.05800
S 	S 	0.71167 0.13613 0.03666 -0.01200
H 	H 	0.71506 0.18558 0.98023 0.03500
S 	S 	0.55900 0.79975 0.08005 0.01100
H 	H 	0.60001 0.90774 0.03401 0.06600
H 	H 	0.47101 0.94876 0.92285 0.06800
H 	H 	0.75911 0.08937 0.03769 0.05100
C 	C 	0.38713 0.39874 0.96895 -0.06300
C 	C 	0.43102 0.47583 0.98113 0.01400
C 	C 	0.49375 0.53244 0.96664 0.00000
C 	C 	0.51679 0.50838 0.94144 -0.00400
C 	C 	0.47826 0.42801 0.93073 -0.07400
C 	C 	0.40933 0.37525 0.94352 0.05400
S 	S 	0.54459 0.63291 0.98009 -0.01400
H 	H 	0.56789 0.55034 0.93107 0.04500
S 	S 	0.34844 0.28188 0.92730 0.04300
C 	C 	0.46458 0.48526 0.03144 -0.07000
S 	S 	0.51462 0.49210 0.08547 0.01000
H 	H 	0.51402 0.46567 0.02683 0.06000
H 	H 	0.37209 0.21883 0.93584 0.05800
H 	H 	0.50573 0.68405 0.97168 0.04600
C 	C 	0.94679 0.26410 0.81239 0.28300
C 	C 	0.92145 0.24257 0.83948 -0.19000
C 	C 	0.95350 0.19266 0.85461 0.28000
F 	F 	0.91980 0.31601 0.79796 -0.36200
F 	F 	0.93345 0.17539 0.88138 -0.41100
C 	C 	0.77797 0.57584 0.78017 0.28900
C 	C 	0.81213 0.57054 0.80610 -0.18200
C 	C 	0.88103 0.63497 0.81550 0.29100
C 	C 	0.91133 0.70718 0.80036 0.28500
C 	C 	0.87435 0.71478 0.77524 -0.18300
C 	C 	0.80909 0.64779 0.76473 0.30600
F 	F 	0.77401 0.65364 0.74013 -0.35300
F 	F 	0.71231 0.51311 0.77061 -0.36800
F 	F 	0.91618 0.62916 0.84010 -0.37100
C 	C 	0.02271 0.09660 0.79673 0.37200
O 	O 	0.04779 0.80618 0.69646 -0.34400
O 	O 	0.92007 0.18122 0.20377 -0.31600
C 	C 	0.91271 0.25187 0.20958 0.39200
C 	C 	0.92506 0.94243 0.31861 0.39300
F 	F 	0.93315 0.90167 0.37525 -0.38000
H 	H 	0.88626 0.41469 0.02566 0.05600
C 	C 	0.99715 0.61862 0.01769 0.01600
C 	C 	0.99379 0.22582 0.79923 0.28400
F 	F 	0.02593 0.10109 0.85563 -0.37500
S 	S 	0.00957 0.70084 0.99500 -0.02600
F 	F 	0.01113 0.24043 0.77214 -0.38200
C 	C 	0.93889 0.51246 0.95922 0.01000
O 	O 	0.93460 0.02471 0.26120 -0.71400
F 	F 	0.10920 0.69007 0.65646 -0.37000
F 	F 	0.95637 0.62652 0.73845 -0.38600
F 	F 	0.00928 0.35317 0.26791 -0.40500
C 	C 	0.92926 0.47579 0.03049 -0.06500
C 	C 	0.00104 0.15507 0.84150 0.27300
C 	C 	0.94509 0.53791 0.01075 0.01200
O 	O 	0.98962 0.00854 0.31631 -0.39000
C 	C 	0.97251 0.32902 0.19908 -0.16600
C 	C 	0.95475 0.85893 0.35512 0.29400
C 	C 	0.93359 0.86521 0.32738 -0.19900
C 	C 	0.96541 0.49312 0.05684 0.05500
S 	S 	0.92969 0.41984 0.08296 0.03000
C 	C 	0.99608 0.48366 0.55117 0.02100
F 	F 	0.97524 0.77088 0.81054 -0.39900
Ni	Ni	0.02167 0.88996 0.72082 1.11200
O 	O 	0.96024 0.02794 0.79402 -0.37000
Ni	Ni	0.94379 0.11267 0.23437 1.12200
C 	C 	0.95195 0.39832 0.19302 0.30000
C 	C 	0.00132 0.46017 0.50167 0.00700
S 	S 	0.11806 0.37295 0.48713 -0.00500
H 	H 	0.02324 0.51699 0.57007 0.08300
F 	F 	0.99144 0.05689 0.66278 -0.38200
C 	C 	0.04542 0.64057 0.67030 0.27900
C 	C 	0.03047 0.66320 0.69703 -0.19700
C 	C 	0.01470 0.16531 0.81301 -0.18300
