data_crystal

_cell_length_a 20.50452
_cell_length_b 27.22161
_cell_length_c 36.96447
_cell_angle_alpha 90.00061
_cell_angle_beta  76.97014
_cell_angle_gamma 89.99941

_symmetry_space_group_name_	'P 1'
_symmetry_space_group_name_H-M	'P 1'

loop_
_symmetry_equiv_pos_as_xyz
  x,y,z

loop_
_atom_site_label
_atom_site_type_symbol
_atom_site_fract_x
_atom_site_fract_y
_atom_site_fract_z
_atom_site_charge
Cu	Cu	0.61951 0.44713 0.15970 0.93800
Cu	Cu	0.75572 0.50240 0.16922 0.94700
Cu	Cu	0.60901 0.55617 0.17753 0.93600
Cu	Cu	0.48366 0.50501 0.16834 0.93400
C 	C 	0.49321 0.39530 0.17508 0.30200
O 	O 	0.60271 0.44972 0.10762 -0.28900
C 	C 	0.72853 0.60449 0.18169 0.30100
O 	O 	0.55545 0.49856 0.19194 -0.63100
O 	O 	0.67474 0.50737 0.15003 -0.61900
O 	O 	0.68037 0.40473 0.18185 -0.30300
O 	O 	0.77933 0.43832 0.15162 -0.30300
O 	O 	0.46519 0.43355 0.16255 -0.28500
O 	O 	0.54416 0.60122 0.20537 -0.31500
C 	C 	0.48205 0.60567 0.20139 0.31500
C 	C 	0.58142 0.49007 0.09418 0.28800
O 	O 	0.55281 0.52495 0.11694 -0.28500
O 	O 	0.44759 0.56714 0.19422 -0.28400
O 	O 	0.55697 0.39520 0.17655 -0.30000
C 	C 	0.74515 0.40072 0.16809 0.30100
O 	O 	0.67353 0.60912 0.16947 -0.26800
O 	O 	0.74060 0.56299 0.19717 -0.32800
H 	H 	0.54237 0.49311 0.21910 0.21200
H 	H 	0.68768 0.51544 0.12329 0.24100
Cu	Cu	0.36729 0.44436 0.80537 0.94800
Cu	Cu	0.23414 0.50502 0.79682 0.90800
Cu	Cu	0.37125 0.55071 0.77960 0.91300
Cu	Cu	0.50524 0.49357 0.76581 0.94500
C 	C 	0.48515 0.38577 0.78282 0.31500
O 	O 	0.41215 0.45539 0.84838 -0.27300
C 	C 	0.24867 0.60870 0.80189 0.29700
O 	O 	0.41551 0.48953 0.76079 -0.62400
O 	O 	0.31514 0.50529 0.81608 -0.63100
O 	O 	0.29149 0.39956 0.80353 -0.27900
O 	O 	0.25100 0.44961 0.76463 -0.35700
O 	O 	0.52509 0.42168 0.76716 -0.26800
O 	O 	0.42963 0.59485 0.74560 -0.28900
C 	C 	0.49540 0.59347 0.73951 0.29900
C 	C 	0.45185 0.49299 0.84985 0.30200
O 	O 	0.46919 0.52270 0.82138 -0.31700
O 	O 	0.52765 0.55151 0.73320 -0.28100
O 	O 	0.42002 0.38876 0.78648 -0.25800
C 	C 	0.25715 0.40561 0.77792 0.30700
O 	O 	0.31471 0.60823 0.79558 -0.30200
O 	O 	0.21298 0.57000 0.81561 -0.30700
H 	H 	0.41013 0.48032 0.73571 0.23200
H 	H 	0.30839 0.51694 0.84204 0.22300
Cu	Cu	0.06386 0.94080 0.28329 0.94600
Cu	Cu	0.96534 0.99549 0.23652 0.93200
Cu	Cu	0.07894 0.04593 0.25489 0.90600
Cu	Cu	0.18739 0.00701 0.28757 0.93600
C 	C 	0.19079 0.89791 0.28438 0.29200
O 	O 	0.05648 0.95344 0.33805 -0.27600
C 	C 	0.96154 0.10078 0.24691 0.26800
O 	O 	0.13542 0.99007 0.25332 -0.63200
O 	O 	0.00773 0.99860 0.27856 -0.58500
O 	O 	0.01177 0.89005 0.26305 -0.24500
O 	O 	0.00578 0.93743 0.21330 -0.31000
O 	O 	0.20572 0.93799 0.30101 -0.26500
O 	O 	0.14934 0.08834 0.22853 -0.33300
C 	C 	0.20800 0.09503 0.23697 0.31300
C 	C 	0.06540 0.99755 0.35052 0.32600
O 	O 	0.09841 0.03052 0.32770 -0.31200
O 	O 	0.22642 0.06955 0.26352 -0.26800
O 	O 	0.12970 0.89033 0.27956 -0.27500
C 	C 	0.99546 0.89538 0.23093 0.25500
O 	O 	0.01817 0.10125 0.25823 -0.30100
O 	O 	0.92678 0.05992 0.24685 -0.28400
H 	H 	0.16099 0.98081 0.22821 0.22000
H 	H 	0.97826 0.01103 0.30174 0.20100
Cu	Cu	0.91595 0.93950 0.69341 0.94300
Cu	Cu	0.02023 0.99813 0.73434 0.96000
Cu	Cu	0.89884 0.04522 0.72103 0.91100
Cu	Cu	0.78753 0.00192 0.69253 0.94800
C 	C 	0.78902 0.89312 0.69761 0.30200
O 	O 	0.91721 0.95015 0.63906 -0.30800
C 	C 	0.01683 0.10263 0.72534 0.32500
O 	O 	0.84461 0.98776 0.72468 -0.62700
O 	O 	0.97045 0.99925 0.69535 -0.60900
O 	O 	0.97237 0.89134 0.71315 -0.28500
O 	O 	0.98107 0.94181 0.76074 -0.32500
O 	O 	0.77047 0.93197 0.68102 -0.25800
O 	O 	0.82816 0.08571 0.74930 -0.30800
C 	C 	0.76692 0.08891 0.74370 0.31000
C 	C 	0.90464 0.99344 0.62647 0.32200
O 	O 	0.87206 0.02629 0.64958 -0.31700
O 	O 	0.74849 0.06418 0.71682 -0.25800
O 	O 	0.85204 0.88721 0.69972 -0.30000
C 	C 	0.98991 0.89862 0.74474 0.27300
O 	O 	0.95737 0.10240 0.71719 -0.32800
O 	O 	0.05458 0.06290 0.72116 -0.30700
H 	H 	0.82188 0.97847 0.75033 0.25300
H 	H 	0.99645 0.01178 0.67125 0.19500
C 	C 	0.91679 0.04113 0.52814 0.05100
C 	C 	0.97295 0.01517 0.50889 0.05900
C 	C 	0.01034 0.98620 0.52885 -0.02600
C 	C 	0.99047 0.98446 0.56778 0.04400
C 	C 	0.92944 0.00509 0.58655 -0.00100
C 	C 	0.89072 0.03263 0.56621 -0.05100
C 	C 	0.99039 0.01675 0.46770 0.06800
C 	C 	0.07245 0.95833 0.50898 0.77500
H 	H 	0.02135 0.96549 0.58356 0.13100
C 	C 	0.82162 0.05216 0.58439 0.78000
H 	H 	0.89123 0.06580 0.51294 0.13600
C 	C 	0.95422 0.98875 0.44648 -0.06700
C 	C 	0.97596 0.98828 0.40760 0.07900
C 	C 	0.03735 0.00954 0.39008 0.01600
C 	C 	0.07387 0.03724 0.41155 -0.04800
C 	C 	0.04622 0.04402 0.44966 0.06700
C 	C 	0.89178 0.96023 0.46500 0.78500
H 	H 	0.94659 0.96948 0.39088 0.11600
C 	C 	0.14233 0.05878 0.39446 0.78100
H 	H 	0.07055 0.06811 0.46590 0.13600
F 	F 	0.78757 0.06795 0.55816 -0.35600
F 	F 	0.82769 0.09159 0.60699 -0.39400
F 	F 	0.78331 0.01578 0.60516 -0.40800
F 	F 	0.12389 0.99111 0.49602 -0.36600
F 	F 	0.05950 0.93179 0.47946 -0.35200
F 	F 	0.09365 0.92540 0.53248 -0.35600
F 	F 	0.13543 0.09757 0.37146 -0.39000
F 	F 	0.18358 0.02332 0.37437 -0.40600
F 	F 	0.17367 0.07619 0.42140 -0.35600
F 	F 	0.87085 0.92918 0.44019 -0.35800
F 	F 	0.84036 0.99265 0.47891 -0.36700
F 	F 	0.90412 0.93161 0.49365 -0.36700
C 	C 	0.63803 0.81180 0.73311 0.04700
C 	C 	0.65907 0.76776 0.71445 0.09900
C 	C 	0.72224 0.76529 0.68917 -0.08400
C 	C 	0.76386 0.80696 0.68405 0.08800
C 	C 	0.74414 0.85021 0.70416 0.02600
C 	C 	0.68126 0.85246 0.72964 -0.05100
C 	C 	0.61485 0.72415 0.72204 0.09900
C 	C 	0.74375 0.71929 0.66623 0.78900
H 	H 	0.81149 0.80611 0.66409 0.12300
C 	C 	0.65963 0.89836 0.75264 0.78000
H 	H 	0.58841 0.81382 0.75107 0.13900
C 	C 	0.61469 0.69350 0.75305 -0.08300
C 	C 	0.57334 0.65175 0.75865 0.07800
C 	C 	0.53388 0.63954 0.73357 0.02000
C 	C 	0.53391 0.67022 0.70260 -0.04400
C 	C 	0.57248 0.71348 0.69813 0.04200
C 	C 	0.65586 0.70655 0.78117 0.78800
H 	H 	0.57177 0.62840 0.78258 0.12200
C 	C 	0.49170 0.65778 0.67493 0.78000
H 	H 	0.57074 0.73853 0.67559 0.14300
F 	F 	0.60365 0.88970 0.78079 -0.35200
F 	F 	0.64442 0.93513 0.73009 -0.37800
F 	F 	0.71037 0.91425 0.76893 -0.40300
F 	F 	0.70328 0.71281 0.64133 -0.37600
F 	F 	0.73868 0.67849 0.68898 -0.36200
F 	F 	0.80945 0.72241 0.64631 -0.36100
F 	F 	0.42476 0.66468 0.69134 -0.38500
F 	F 	0.50197 0.60946 0.66344 -0.37400
F 	F 	0.50780 0.68723 0.64364 -0.35500
F 	F 	0.65506 0.66918 0.80668 -0.35700
F 	F 	0.62997 0.74838 0.80034 -0.38300
F 	F 	0.72188 0.71491 0.76349 -0.36100
C 	C 	0.55839 0.27109 0.81595 0.04900
C 	C 	0.58671 0.24869 0.78189 0.10000
C 	C 	0.57191 0.26695 0.74878 -0.08300
C 	C 	0.53799 0.31194 0.74976 0.09800
C 	C 	0.51454 0.33661 0.78345 0.04300
C 	C 	0.52104 0.31466 0.81718 -0.04400
C 	C 	0.63408 0.20743 0.78096 0.09900
C 	C 	0.59160 0.23834 0.71264 0.79100
H 	H 	0.53028 0.32821 0.72429 0.13300
C 	C 	0.48983 0.33822 0.85426 0.78100
H 	H 	0.56756 0.25543 0.84129 0.14200
C 	C 	0.70398 0.21575 0.77354 -0.08700
C 	C 	0.74763 0.17585 0.76305 0.09200
C 	C 	0.72245 0.12794 0.76292 0.02900
C 	C 	0.65346 0.11909 0.77763 -0.04900
C 	C 	0.60942 0.15926 0.78512 0.04900
C 	C 	0.73187 0.26703 0.77604 0.79000
H 	H 	0.80089 0.18219 0.75334 0.12200
C 	C 	0.62604 0.06724 0.78383 0.78000
H 	H 	0.55582 0.15313 0.79272 0.13800
F 	F 	0.52095 0.38252 0.85740 -0.37500
F 	F 	0.49610 0.30873 0.88381 -0.35600
F 	F 	0.42232 0.34622 0.85684 -0.39300
F 	F 	0.56586 0.19124 0.71767 -0.37900
F 	F 	0.66052 0.23582 0.70128 -0.36800
F 	F 	0.56715 0.26009 0.68453 -0.35600
F 	F 	0.56706 0.06659 0.81088 -0.36300
F 	F 	0.67111 0.03658 0.79549 -0.38700
F 	F 	0.61319 0.04927 0.75116 -0.36000
F 	F 	0.80053 0.26625 0.77258 -0.36100
F 	F 	0.70320 0.28770 0.81008 -0.37700
F 	F 	0.71813 0.29633 0.74813 -0.36300
C 	C 	0.21688 0.28146 0.74165 0.04000
C 	C 	0.14688 0.28368 0.74864 0.10200
C 	C 	0.11304 0.32688 0.76402 -0.09100
C 	C 	0.15039 0.36618 0.77360 0.08700
C 	C 	0.22046 0.36398 0.76643 0.01100
C 	C 	0.25441 0.32217 0.74852 -0.04400
C 	C 	0.10942 0.23907 0.74246 0.10000
C 	C 	0.03703 0.32977 0.77306 0.79100
H 	H 	0.12493 0.39827 0.78737 0.09600
C 	C 	0.33030 0.31920 0.73892 0.77500
H 	H 	0.24206 0.24765 0.73109 0.13900
C 	C 	0.10316 0.22553 0.70634 -0.08800
C 	C 	0.07296 0.18039 0.70132 0.09100
C 	C 	0.04682 0.14997 0.73170 0.01700
C 	C 	0.05048 0.16450 0.76791 -0.05100
C 	C 	0.08382 0.20828 0.77273 0.04400
C 	C 	0.13297 0.25716 0.67278 0.79000
H 	H 	0.07055 0.16844 0.67369 0.11400
C 	C 	0.02030 0.13272 0.80126 0.78900
H 	H 	0.09048 0.21843 0.80001 0.13800
F 	F 	0.35833 0.36346 0.72493 -0.41500
F 	F 	0.35259 0.28367 0.71218 -0.36600
F 	F 	0.35236 0.30701 0.77043 -0.39900
F 	F 	0.01142 0.30248 0.80460 -0.37600
F 	F 	0.01177 0.31184 0.74398 -0.35300
F 	F 	0.01507 0.37776 0.77945 -0.36100
F 	F 	0.05524 0.08897 0.79921 -0.40100
F 	F 	0.95393 0.12281 0.80172 -0.42100
F 	F 	0.02265 0.15560 0.83440 -0.36300
F 	F 	0.10898 0.24357 0.64210 -0.36400
F 	F 	0.20181 0.25197 0.66412 -0.38000
F 	F 	0.11700 0.30610 0.67994 -0.36000
C 	C 	0.12592 0.82568 0.77521 0.06600
C 	C 	0.09525 0.77955 0.78142 0.07300
C 	C 	0.02686 0.77427 0.78066 -0.02500
C 	C 	0.99251 0.81457 0.76998 0.02000
C 	C 	0.02519 0.85953 0.76028 0.07900
C 	C 	0.09280 0.86533 0.76284 -0.06900
C 	C 	0.13651 0.73645 0.78644 0.11200
C 	C 	0.99034 0.72609 0.79180 0.74900
H 	H 	0.94056 0.81089 0.76849 0.13400
C 	C 	0.12981 0.91348 0.75228 0.78000
H 	H 	0.17699 0.82983 0.77821 0.13300
C 	C 	0.17599 0.71161 0.75539 -0.09200
C 	C 	0.21488 0.67118 0.76135 0.08200
C 	C 	0.21425 0.65494 0.79736 0.01600
C 	C 	0.17848 0.68171 0.82838 -0.04400
C 	C 	0.13898 0.72192 0.82252 0.03700
C 	C 	0.17932 0.72957 0.71603 0.79100
H 	H 	0.24496 0.65157 0.73792 0.11000
C 	C 	0.18071 0.66673 0.86765 0.77900
H 	H 	0.10974 0.74191 0.84599 0.14700
F 	F 	0.12371 0.92836 0.71740 -0.43600
F 	F 	0.19745 0.90905 0.75132 -0.36200
F 	F 	0.10358 0.94921 0.77805 -0.41300
F 	F 	0.99048 0.71547 0.82835 -0.38500
F 	F 	0.02159 0.68838 0.76937 -0.34900
F 	F 	0.92441 0.72814 0.78858 -0.35600
F 	F 	0.24592 0.65726 0.87002 -0.38900
F 	F 	0.14243 0.62497 0.87746 -0.37000
F 	F 	0.15596 0.70343 0.89297 -0.36300
F 	F 	0.21358 0.69695 0.68977 -0.36000
F 	F 	0.21208 0.77428 0.71071 -0.37800
F 	F 	0.11564 0.73503 0.70990 -0.36500
C 	C 	0.36959 0.71709 0.20646 0.04200
C 	C 	0.37084 0.73552 0.24170 0.10100
C 	C 	0.41014 0.71186 0.26355 -0.08900
C 	C 	0.44538 0.66892 0.24996 0.08700
C 	C 	0.44545 0.65129 0.21429 0.01700
C 	C 	0.40976 0.67693 0.19156 -0.04500
C 	C 	0.32858 0.77852 0.25596 0.10100
C 	C 	0.41091 0.73011 0.30234 0.78900
H 	H 	0.47209 0.64865 0.26731 0.11200
C 	C 	0.41293 0.66095 0.15183 0.77700
H 	H 	0.33761 0.73449 0.19054 0.14000
C 	C 	0.34771 0.82667 0.24320 -0.08600
C 	C 	0.30177 0.86535 0.25321 0.08100
C 	C 	0.23953 0.85735 0.27746 0.02400
C 	C 	0.22377 0.81031 0.29348 -0.04300
C 	C 	0.26660 0.77073 0.28055 0.04300
C 	C 	0.41461 0.83635 0.21658 0.78900
H 	H 	0.31358 0.90156 0.24133 0.11200
C 	C 	0.16071 0.80163 0.32341 0.78000
H 	H 	0.25175 0.73366 0.28953 0.14300
F 	F 	0.38943 0.69737 0.13191 -0.35000
F 	F 	0.37413 0.61941 0.15183 -0.38100
F 	F 	0.47827 0.65078 0.13379 -0.36800
F 	F 	0.35134 0.71771 0.32648 -0.37400
F 	F 	0.41897 0.78055 0.30252 -0.35500
F 	F 	0.46298 0.70937 0.31526 -0.36300
F 	F 	0.10670 0.79595 0.30715 -0.37200
F 	F 	0.14876 0.84057 0.34809 -0.36200
F 	F 	0.16655 0.75964 0.34359 -0.34500
F 	F 	0.43047 0.88587 0.21523 -0.35300
F 	F 	0.41163 0.82120 0.18130 -0.37800
F 	F 	0.46565 0.81144 0.22759 -0.36000
C 	C 	0.84097 0.71639 0.15943 0.04300
C 	C 	0.84759 0.72998 0.19502 0.10400
C 	C 	0.81285 0.70339 0.22650 -0.08900
C 	C 	0.77274 0.66322 0.22139 0.08700
C 	C 	0.76837 0.64841 0.18569 0.01900
C 	C 	0.80380 0.67456 0.15423 -0.04900
C 	C 	0.88810 0.77388 0.19923 0.09200
C 	C 	0.81482 0.71971 0.26560 0.79000
H 	H 	0.74440 0.64341 0.24524 0.11800
C 	C 	0.80085 0.65868 0.11521 0.78000
H 	H 	0.86532 0.73835 0.13578 0.14200
C 	C 	0.95798 0.77029 0.19648 -0.07300
C 	C 	0.99281 0.81142 0.20552 0.05500
C 	C 	0.95927 0.85565 0.21671 0.03900
C 	C 	0.89006 0.85993 0.21739 -0.05900
C 	C 	0.85579 0.81920 0.20738 0.05100
C 	C 	0.99558 0.72319 0.18309 0.77200
H 	H 	0.04592 0.80893 0.20453 0.13500
C 	C 	0.85282 0.90783 0.22853 0.77600
H 	H 	0.80311 0.82202 0.20729 0.14000
F 	F 	0.81458 0.60902 0.11052 -0.40200
F 	F 	0.84710 0.68372 0.08849 -0.35800
F 	F 	0.73769 0.66794 0.10941 -0.36000
F 	F 	0.77997 0.76328 0.27374 -0.37500
F 	F 	0.88015 0.72660 0.26869 -0.36500
F 	F 	0.78605 0.68514 0.29186 -0.36200
F 	F 	0.87648 0.94340 0.20213 -0.43400
F 	F 	0.86200 0.92334 0.26268 -0.42700
F 	F 	0.78465 0.90278 0.23137 -0.35300
F 	F 	0.06270 0.72651 0.18369 -0.35600
F 	F 	0.99112 0.71356 0.14700 -0.38400
F 	F 	0.96847 0.68423 0.20551 -0.36500
C 	C 	0.84961 0.32045 0.21688 0.04100
C 	C 	0.84454 0.27497 0.20000 0.10300
C 	C 	0.80642 0.27064 0.17258 -0.09100
C 	C 	0.77506 0.31265 0.16220 0.08500
C 	C 	0.78108 0.35827 0.17868 0.01700
C 	C 	0.81745 0.36222 0.20693 -0.05100
C 	C 	0.87616 0.23149 0.21296 0.09300
C 	C 	0.79536 0.22087 0.15626 0.79000
H 	H 	0.74504 0.30987 0.14163 0.11400
C 	C 	0.82309 0.41104 0.22599 0.77500
H 	H 	0.87840 0.32301 0.23805 0.14200
C 	C 	0.94459 0.22041 0.19848 -0.07500
C 	C 	0.97210 0.17817 0.21109 0.04800
C 	C 	0.93304 0.14783 0.23821 0.03500
C 	C 	0.86697 0.16212 0.25562 -0.05500
C 	C 	0.83826 0.20268 0.24156 0.04700
C 	C 	0.98908 0.25482 0.17116 0.77300
H 	H 	0.02376 0.16827 0.19944 0.12200
C 	C 	0.82648 0.13415 0.28872 0.78200
H 	H 	0.78637 0.21219 0.25300 0.13700
F 	F 	0.86248 0.44289 0.20118 -0.40800
F 	F 	0.85184 0.40556 0.25624 -0.37000
F 	F 	0.76035 0.43156 0.23866 -0.43500
F 	F 	0.75483 0.19238 0.18321 -0.38700
F 	F 	0.85572 0.19701 0.14357 -0.37100
F 	F 	0.76478 0.22535 0.12663 -0.37000
F 	F 	0.77537 0.16298 0.30889 -0.36800
F 	F 	0.86648 0.12003 0.31247 -0.39600
F 	F 	0.79847 0.09295 0.27644 -0.36300
F 	F 	0.05180 0.23476 0.15728 -0.35200
F 	F 	0.99730 0.29840 0.18882 -0.37500
F 	F 	0.96066 0.26465 0.14139 -0.36600
C 	C 	0.39934 0.28077 0.15808 0.04200
C 	C 	0.37535 0.26397 0.19450 0.10200
C 	C 	0.39550 0.28767 0.22435 -0.09000
C 	C 	0.43438 0.33071 0.21730 0.08400
C 	C 	0.45592 0.34866 0.18104 0.01800
C 	C 	0.44150 0.32203 0.15085 -0.04600
C 	C 	0.33139 0.22010 0.20085 0.10000
C 	C 	0.37856 0.26580 0.26320 0.79000
H 	H 	0.44791 0.35045 0.23998 0.10700
C 	C 	0.47063 0.33761 0.11101 0.77800
H 	H 	0.38493 0.26156 0.13542 0.14400
C 	C 	0.26084 0.22468 0.20779 -0.08700
C 	C 	0.22089 0.18280 0.21848 0.09100
C 	C 	0.25035 0.13645 0.21970 0.02000
C 	C 	0.32052 0.13108 0.20680 -0.04800
C 	C 	0.36060 0.17337 0.19931 0.04600
C 	C 	0.22834 0.27367 0.20286 0.79100
H 	H 	0.16694 0.18631 0.22682 0.11200
C 	C 	0.35320 0.08074 0.20175 0.77900
H 	H 	0.41468 0.17006 0.19258 0.13900
F 	F 	0.43939 0.38005 0.10319 -0.38200
F 	F 	0.46193 0.30172 0.08597 -0.35700
F 	F 	0.53863 0.34610 0.10585 -0.40800
F 	F 	0.40854 0.22024 0.26280 -0.38300
F 	F 	0.31006 0.26054 0.27538 -0.36500
F 	F 	0.40095 0.29513 0.28850 -0.37100
F 	F 	0.41428 0.08262 0.17645 -0.36600
F 	F 	0.31333 0.04733 0.18850 -0.41100
F 	F 	0.36380 0.06440 0.23537 -0.37600
F 	F 	0.15922 0.27017 0.21030 -0.35900
F 	F 	0.25022 0.28960 0.16663 -0.37600
F 	F 	0.24504 0.30835 0.22656 -0.36400
C 	C 	0.56692 0.54075 0.00111 0.07700
C 	C 	0.54414 0.49911 0.98537 0.06900
C 	C 	0.54652 0.45251 0.00206 -0.05300
C 	C 	0.56136 0.44990 0.03734 0.06900
C 	C 	0.57920 0.49231 0.05448 0.04000
C 	C 	0.58864 0.53715 0.03445 -0.06500
C 	C 	0.52042 0.50440 0.95058 0.11200
C 	C 	0.53531 0.40566 0.98187 0.77300
H 	H 	0.55742 0.41519 0.05193 0.15500
C 	C 	0.62159 0.58113 0.04821 0.78600
H 	H 	0.56784 0.57595 0.98728 0.12800
C 	C 	0.45159 0.51020 0.95124 -0.08800
C 	C 	0.43012 0.50661 0.91778 0.09400
C 	C 	0.47665 0.50175 0.88377 0.02500
C 	C 	0.54627 0.50200 0.88289 -0.03400
C 	C 	0.56725 0.50313 0.91657 0.04200
C 	C 	0.40156 0.52170 0.98730 0.78000
H 	H 	0.37717 0.50747 0.91806 0.11000
C 	C 	0.59815 0.50338 0.84629 0.78000
H 	H 	0.62009 0.50195 0.91652 0.14300
F 	F 	0.57411 0.60774 0.07298 -0.35300
F 	F 	0.65048 0.61158 0.01897 -0.35600
F 	F 	0.67166 0.56639 0.06540 -0.40500
F 	F 	0.58121 0.40306 0.94819 -0.37000
F 	F 	0.47138 0.40510 0.97557 -0.34900
F 	F 	0.54298 0.36411 0.00212 -0.34000
F 	F 	0.59422 0.54786 0.82884 -0.40600
F 	F 	0.58736 0.46560 0.82336 -0.40700
F 	F 	0.66259 0.49835 0.85152 -0.35700
F 	F 	0.33803 0.52997 0.98157 -0.36500
F 	F 	0.42137 0.56350 0.00319 -0.37200
F 	F 	0.39795 0.48295 0.01184 -0.35000
