data_crystal

_cell_length_a 26.11112
_cell_length_b 26.64269
_cell_length_c 34.98631
_cell_angle_alpha 95.49019
_cell_angle_beta  95.48701
_cell_angle_gamma 125.81642

_symmetry_space_group_name_	'P 1'
_symmetry_space_group_name_H-M	'P 1'

loop_
_symmetry_equiv_pos_as_xyz
  x,y,z

loop_
_atom_site_label
_atom_site_type_symbol
_atom_site_fract_x
_atom_site_fract_y
_atom_site_fract_z
_atom_site_charge
C 	C 	0.94737 0.01085 0.98328 0.04100
C 	C 	0.90937 0.94526 0.98022 -0.07000
C 	C 	0.93695 0.91355 0.97606 0.04400
C 	C 	0.00233 0.94729 0.97432 -0.06900
C 	C 	0.04053 0.01288 0.97748 0.04300
C 	C 	0.01309 0.04473 0.98213 -0.07000
H 	H 	0.85871 0.91910 0.98152 0.06700
H 	H 	0.02369 0.92272 0.97123 0.06500
H 	H 	0.04269 0.09555 0.98489 0.06600
C 	C 	0.94797 0.01275 0.46671 0.04100
C 	C 	0.91383 0.94782 0.46614 -0.06800
C 	C 	0.94699 0.92137 0.46981 0.04300
C 	C 	0.01420 0.96004 0.47457 -0.06700
C 	C 	0.04821 0.02462 0.47465 0.04200
C 	C 	0.01520 0.05107 0.47114 -0.06900
H 	H 	0.86182 0.91799 0.46238 0.06500
H 	H 	0.03983 0.93962 0.47720 0.06600
H 	H 	0.04159 0.10112 0.47122 0.06500
Cu	Cu	0.62576 0.23033 0.00359 0.93600
Cu	Cu	0.67870 0.23331 0.92228 0.88200
Cu	Cu	0.65841 0.32584 0.95110 0.90300
Cu	Cu	0.63608 0.35251 0.02944 0.91100
C 	C 	0.64947 0.28111 0.08473 0.39400
O 	O 	0.53420 0.20028 0.00399 -0.33000
C 	C 	0.64377 0.28649 0.86689 0.38200
O 	O 	0.68186 0.32829 0.00536 -0.63700
O 	O 	0.61619 0.23418 0.94759 -0.64000
O 	O 	0.66010 0.18064 0.00096 -0.33600
O 	O 	0.73528 0.24610 0.96690 -0.41800
O 	O 	0.62161 0.30726 0.07420 -0.35100
O 	O 	0.70588 0.41607 0.95578 -0.34600
C 	C 	0.70551 0.45440 0.98250 0.29400
C 	C 	0.51208 0.22860 0.98820 0.28100
O 	O 	0.55240 0.28731 0.98392 -0.38500
O 	O 	0.68115 0.43691 0.01437 -0.36100
O 	O 	0.64976 0.24176 0.05896 -0.32700
C 	C 	0.71493 0.20371 0.98933 0.29100
O 	O 	0.63840 0.31970 0.89467 -0.34300
O 	O 	0.64322 0.23816 0.87342 -0.37300
H 	H 	0.72871 0.35467 0.01561 0.19000
H 	H 	0.57180 0.20668 0.93224 0.19500
Cu	Cu	0.74933 0.35141 0.45459 0.93400
Cu	Cu	0.75102 0.30627 0.53831 0.88300
Cu	Cu	0.65389 0.32243 0.50855 0.90300
Cu	Cu	0.62511 0.34269 0.42974 0.91200
C 	C 	0.69387 0.32399 0.37341 0.39200
O 	O 	0.78271 0.44172 0.45218 -0.33300
C 	C 	0.69761 0.34231 0.59295 0.38000
O 	O 	0.64972 0.29810 0.45426 -0.63900
O 	O 	0.74753 0.36444 0.51086 -0.63800
O 	O 	0.79855 0.31578 0.45729 -0.33500
O 	O 	0.73491 0.24724 0.49496 -0.41900
O 	O 	0.66725 0.35162 0.38349 -0.34800
O 	O 	0.56176 0.27514 0.50459 -0.34400
C 	C 	0.52175 0.27150 0.47627 0.29500
C 	C 	0.75360 0.46483 0.46549 0.28600
O 	O 	0.69558 0.42660 0.47289 -0.37800
O 	O 	0.54232 0.30546 0.44850 -0.36300
O 	O 	0.73488 0.32488 0.39926 -0.32800
C 	C 	0.77665 0.26438 0.47167 0.29100
O 	O 	0.66165 0.34473 0.56494 -0.34100
O 	O 	0.74782 0.34459 0.58631 -0.37200
H 	H 	0.62224 0.25204 0.44441 0.18600
H 	H 	0.77543 0.40869 0.52503 0.19400
C 	C 	0.67494 0.37140 0.78142 0.23000
C 	C 	0.65099 0.32192 0.74986 -0.00700
C 	C 	0.61887 0.25993 0.75646 0.22500
C 	C 	0.61277 0.24779 0.79440 0.30500
C 	C 	0.64087 0.29787 0.82641 -0.20800
C 	C 	0.67069 0.35965 0.81957 0.30400
C 	C 	0.66381 0.33543 0.71042 -0.00700
F 	F 	0.59507 0.21163 0.72615 -0.35300
F 	F 	0.69782 0.40861 0.84998 -0.38500
C 	C 	0.72695 0.36864 0.70342 0.22500
C 	C 	0.73850 0.37485 0.66532 0.30500
C 	C 	0.68672 0.34584 0.63358 -0.20700
C 	C 	0.62376 0.31525 0.64087 0.30300
C 	C 	0.61256 0.31084 0.67916 0.23000
F 	F 	0.77699 0.39326 0.73345 -0.35200
F 	F 	0.57315 0.28742 0.61074 -0.38400
F 	F 	0.79999 0.40867 0.65924 -0.38300
F 	F 	0.55159 0.28082 0.68580 -0.34800
F 	F 	0.70402 0.43119 0.77520 -0.34800
F 	F 	0.57979 0.18737 0.80007 -0.38400
C 	C 	0.70708 0.34352 0.19330 0.22600
C 	C 	0.68321 0.28784 0.20785 -0.00400
C 	C 	0.65340 0.23064 0.18174 0.22900
C 	C 	0.64451 0.22858 0.14136 0.31300
C 	C 	0.66608 0.28399 0.12679 -0.21000
C 	C 	0.69891 0.34167 0.15298 0.30700
C 	C 	0.68471 0.28873 0.25023 -0.00400
F 	F 	0.63134 0.17677 0.19554 -0.34800
F 	F 	0.72189 0.39582 0.13930 -0.39800
C 	C 	0.62817 0.26498 0.26518 0.22600
C 	C 	0.63076 0.27332 0.30557 0.30600
C 	C 	0.69005 0.30620 0.33142 -0.20900
C 	C 	0.74625 0.32730 0.31645 0.31200
C 	C 	0.74344 0.31824 0.27600 0.22900
F 	F 	0.57102 0.23577 0.24050 -0.35100
F 	F 	0.80397 0.35918 0.34096 -0.37600
F 	F 	0.57582 0.25071 0.31965 -0.39800
F 	F 	0.79813 0.34003 0.26181 -0.34800
F 	F 	0.73641 0.39914 0.21831 -0.35100
F 	F 	0.61249 0.17238 0.11650 -0.37500
C 	C 	0.86057 0.76261 0.50016 -0.01600
C 	C 	0.85917 0.72570 0.46774 0.01100
C 	C 	0.88165 0.75187 0.43477 -0.03500
C 	C 	0.90726 0.81491 0.43431 -0.01100
C 	C 	0.91137 0.85268 0.46741 0.00100
C 	C 	0.88693 0.82594 0.49989 -0.03100
C 	C 	0.83247 0.65888 0.46754 0.03300
C 	C 	0.77040 0.61118 0.44662 -0.05400
C 	C 	0.74472 0.54772 0.44499 0.03500
C 	C 	0.78094 0.53146 0.46537 -0.06900
C 	C 	0.84343 0.57921 0.48587 0.02000
C 	C 	0.86948 0.64279 0.48692 -0.03500
C 	C 	0.68230 0.49967 0.42104 0.08100
C 	C 	0.93423 0.69119 0.50777 0.10800
C 	C 	0.83534 0.73594 0.53381 0.09700
C 	C 	0.92909 0.84055 0.39975 0.09600
N 	N 	0.63232 0.46122 0.40185 -0.10400
N 	N 	0.98610 0.73001 0.52448 -0.09800
N 	N 	0.94660 0.86114 0.37209 -0.09200
N 	N 	0.81513 0.71452 0.56076 -0.09500
H 	H 	0.88965 0.85480 0.52526 0.05600
H 	H 	0.87934 0.72313 0.40951 0.06400
H 	H 	0.74237 0.62357 0.43119 0.06700
H 	H 	0.87161 0.56690 0.50119 0.05200
C 	C 	0.86804 0.08861 0.49314 -0.01700
C 	C 	0.86300 0.10945 0.45835 0.01000
C 	C 	0.88098 0.09385 0.42536 -0.03400
C 	C 	0.90593 0.05952 0.42718 -0.01200
C 	C 	0.91344 0.04092 0.46247 0.00100
C 	C 	0.89313 0.05444 0.49499 -0.03100
C 	C 	0.84107 0.14963 0.45672 0.03200
C 	C 	0.88629 0.21528 0.46728 -0.05400
C 	C 	0.86611 0.25381 0.47038 0.03100
C 	C 	0.79982 0.22642 0.46252 -0.07300
C 	C 	0.75487 0.16095 0.45002 0.02000
C 	C 	0.77513 0.12250 0.44707 -0.03600
C 	C 	0.91358 0.32102 0.48331 0.08900
C 	C 	0.72789 0.05514 0.43490 0.10700
C 	C 	0.84830 0.10281 0.52718 0.09300
C 	C 	0.92394 0.04374 0.39281 0.09500
N 	N 	0.95163 0.37485 0.49367 -0.09100
N 	N 	0.69008 0.00116 0.42516 -0.09900
N 	N 	0.93840 0.03107 0.36531 -0.09400
N 	N 	0.83247 0.11422 0.55443 -0.10000
H 	H 	0.89840 0.03972 0.52203 0.05500
H 	H 	0.87623 0.10906 0.39843 0.06400
H 	H 	0.93710 0.23621 0.47425 0.06500
H 	H 	0.70396 0.13980 0.44350 0.05300
C 	C 	0.22660 0.12669 0.51448 -0.01400
C 	C 	0.25163 0.13377 0.47978 0.01000
C 	C 	0.20982 0.10631 0.44344 -0.03400
C 	C 	0.14334 0.07152 0.44143 -0.01200
C 	C 	0.11823 0.06392 0.47613 0.00100
C 	C 	0.16006 0.09183 0.51248 -0.03100
C 	C 	0.32170 0.17016 0.48114 0.03300
C 	C 	0.35037 0.13919 0.48232 -0.05000
C 	C 	0.41594 0.17197 0.48133 0.03500
C 	C 	0.45341 0.23659 0.47923 -0.06100
C 	C 	0.42485 0.26773 0.47875 0.02200
C 	C 	0.35933 0.23491 0.47973 -0.03400
C 	C 	0.44386 0.13850 0.48117 0.09600
C 	C 	0.33095 0.26793 0.47918 0.10800
C 	C 	0.26889 0.15505 0.55220 0.10100
C 	C 	0.10109 0.04348 0.40367 0.09500
N 	N 	0.46622 0.11169 0.48105 -0.09600
N 	N 	0.30816 0.29433 0.47875 -0.09900
N 	N 	0.06720 0.02100 0.37346 -0.09200
N 	N 	0.30283 0.17781 0.58241 -0.08200
H 	H 	0.14071 0.08596 0.53917 0.05700
H 	H 	0.22915 0.11204 0.41675 0.06100
H 	H 	0.32136 0.08936 0.48346 0.06800
H 	H 	0.45370 0.31754 0.47753 0.05700
C 	C 	0.83550 0.73827 0.93865 -0.01400
C 	C 	0.83003 0.71531 0.97386 0.00700
C 	C 	0.85771 0.75739 0.00975 -0.03100
C 	C 	0.89165 0.82218 0.01081 -0.00900
C 	C 	0.89810 0.84527 0.97559 -0.00200
C 	C 	0.86951 0.80311 0.93970 -0.03000
C 	C 	0.79670 0.64736 0.97350 0.03400
C 	C 	0.83161 0.62274 0.97223 -0.05100
C 	C 	0.80216 0.55949 0.97455 0.03700
C 	C 	0.73680 0.52016 0.97794 -0.06100
C 	C 	0.70165 0.54461 0.97851 0.02100
C 	C 	0.73120 0.60789 0.97624 -0.03500
C 	C 	0.83993 0.53597 0.97490 0.10000
C 	C 	0.69409 0.63207 0.97684 0.10700
C 	C 	0.80647 0.69558 0.90138 0.10300
C 	C 	0.92028 0.86479 0.04811 0.09300
N 	N 	0.87019 0.51714 0.97518 -0.09300
N 	N 	0.66441 0.65150 0.97732 -0.09900
N 	N 	0.94325 0.89898 0.07796 -0.09800
N 	N 	0.78318 0.66133 0.87154 -0.08100
H 	H 	0.87431 0.82090 0.91262 0.06000
H 	H 	0.85317 0.73963 0.03683 0.06100
H 	H 	0.88203 0.65321 0.97011 0.06800
H 	H 	0.65134 0.51435 0.98091 0.05100
C 	C 	0.87197 0.08099 0.02886 -0.01200
C 	C 	0.85419 0.09903 0.99657 0.00700
C 	C 	0.86984 0.09080 0.96041 -0.03500
C 	C 	0.90152 0.06327 0.95592 -0.01200
C 	C 	0.91821 0.04410 0.98802 -0.00200
C 	C 	0.90389 0.05367 0.02443 -0.02800
C 	C 	0.81753 0.12497 0.99996 0.02900
C 	C 	0.85075 0.19023 0.01063 -0.05200
C 	C 	0.81727 0.21636 0.00977 0.03600
C 	C 	0.74980 0.17686 0.99749 -0.07700
C 	C 	0.71631 0.11127 0.98924 0.01700
C 	C 	0.74981 0.08517 0.99035 -0.03500
C 	C 	0.85228 0.28352 0.02219 0.09300
C 	C 	0.71449 0.01758 0.98094 0.10200
C 	C 	0.85687 0.08963 0.06645 0.10000
C 	C 	0.91559 0.05370 0.91813 0.09200
N 	N 	0.88033 0.33732 0.03216 -0.09000
N 	N 	0.68626 0.96344 0.97342 -0.09600
N 	N 	0.92687 0.04601 0.88785 -0.09700
N 	N 	0.84474 0.09657 0.09656 -0.08900
H 	H 	0.91686 0.03904 0.04915 0.05800
H 	H 	0.85641 0.10498 0.93562 0.05700
H 	H 	0.90276 0.22071 0.01903 0.06600
H 	H 	0.66435 0.08069 0.98051 0.05300
C 	C 	0.35602 0.20567 0.99285 -0.03900
C 	C 	0.31048 0.14103 0.97684 0.03300
C 	C 	0.33104 0.10619 0.96192 -0.05400
C 	C 	0.39674 0.13475 0.96414 0.03300
C 	C 	0.44254 0.19876 0.98198 -0.06900
C 	C 	0.42166 0.23412 0.99545 0.01600
C 	C 	0.24135 0.10875 0.97729 0.00600
C 	C 	0.20086 0.10078 0.94411 -0.03400
C 	C 	0.13536 0.07067 0.94408 -0.01200
C 	C 	0.11005 0.04843 0.97765 -0.00200
C 	C 	0.15071 0.05694 0.01093 -0.02800
C 	C 	0.21606 0.08669 0.01088 -0.01200
C 	C 	0.09427 0.06194 0.90934 0.09300
C 	C 	0.25688 0.09416 0.04531 0.09900
C 	C 	0.33572 0.24291 0.00715 0.10900
C 	C 	0.41659 0.09860 0.94706 0.08900
N 	N 	0.06133 0.05493 0.88152 -0.09600
N 	N 	0.28962 0.10018 0.07287 -0.08800
N 	N 	0.43249 0.06964 0.93336 -0.09600
N 	N 	0.31939 0.27269 0.01861 -0.10000
H 	H 	0.45665 0.28349 0.00880 0.04900
H 	H 	0.29585 0.05668 0.94895 0.06600
H 	H 	0.22039 0.11795 0.91832 0.06000
H 	H 	0.13120 0.03968 0.03671 0.05800
