data_crystal

_cell_length_a 27.57146
_cell_length_b 28.92047
_cell_length_c 37.35134
_cell_angle_alpha 60.91090
_cell_angle_beta  118.79171
_cell_angle_gamma 133.21691

_symmetry_space_group_name_	'P 1'
_symmetry_space_group_name_H-M	'P 1'

loop_
_symmetry_equiv_pos_as_xyz
  x,y,z

loop_
_atom_site_label
_atom_site_type_symbol
_atom_site_fract_x
_atom_site_fract_y
_atom_site_fract_z
_atom_site_charge
C 	C 	0.74237 0.31533 0.04115 0.05000
C 	C 	0.76774 0.38083 0.03216 -0.09400
C 	C 	0.73484 0.39518 0.04018 0.05100
C 	C 	0.67718 0.34407 0.05733 -0.09300
C 	C 	0.65170 0.27886 0.06617 0.05000
C 	C 	0.68503 0.26468 0.05871 -0.09200
H 	H 	0.81209 0.42010 0.01864 0.05500
H 	H 	0.65131 0.35503 0.06304 0.05800
H 	H 	0.66548 0.21423 0.06563 0.05400
C 	C 	0.74750 0.29256 0.55421 0.05100
C 	C 	0.77438 0.35526 0.55390 -0.09500
C 	C 	0.74114 0.36231 0.56802 0.05100
C 	C 	0.68162 0.30664 0.58236 -0.09200
C 	C 	0.65065 0.24568 0.57788 0.05200
C 	C 	0.68497 0.23800 0.56559 -0.09400
H 	H 	0.82029 0.39804 0.54254 0.05400
H 	H 	0.65545 0.31198 0.59278 0.05500
H 	H 	0.66194 0.19029 0.56332 0.05400
C 	C 	0.27751 0.67521 0.17558 0.05300
C 	C 	0.23585 0.62023 0.15953 -0.09600
C 	C 	0.26540 0.60578 0.14846 0.05300
C 	C 	0.33663 0.64528 0.15461 -0.09400
C 	C 	0.37806 0.70091 0.16970 0.05300
C 	C 	0.34858 0.71578 0.18035 -0.09600
H 	H 	0.18076 0.58958 0.15501 0.05400
H 	H 	0.35965 0.63364 0.14663 0.05700
H 	H 	0.38064 0.75920 0.19174 0.05600
C 	C 	0.27700 0.62793 0.72317 0.05200
C 	C 	0.34880 0.66932 0.73204 -0.09500
C 	C 	0.38436 0.65576 0.72632 0.05200
C 	C 	0.34792 0.59965 0.71295 -0.09300
C 	C 	0.27622 0.55896 0.70319 0.05200
C 	C 	0.24080 0.57281 0.70869 -0.09500
H 	H 	0.37674 0.71295 0.74206 0.05500
H 	H 	0.37529 0.58908 0.70850 0.05800
H 	H 	0.18529 0.54174 0.70081 0.05300
Co	Co	0.04542 0.01055 0.06395 1.18100
Co	Co	0.97764 0.96720 0.16812 1.18400
Co	Co	0.02605 0.07959 0.10029 1.18000
Co	Co	0.99179 0.89443 0.13135 1.18400
C 	C 	0.17151 0.03785 0.06303 0.30500
Co	Co	0.05393 0.89629 0.07487 1.16600
Co	Co	0.01365 0.09511 0.17550 1.16300
C 	C 	0.91400 0.78900 0.09003 0.31100
O 	O 	0.96982 0.13298 0.11725 -0.41000
O 	O 	0.01956 0.04810 0.15066 -0.76800
C 	C 	0.92759 0.10414 0.08574 0.30900
O 	O 	0.03627 0.08207 0.04893 -0.47700
O 	O 	0.94530 0.87933 0.16864 -0.47700
C 	C 	0.87110 0.96717 0.16956 0.31100
O 	O 	0.03777 0.99815 0.12607 -0.57200
C 	C 	0.11836 0.20640 0.12620 0.30800
C 	C 	0.98500 0.94827 0.99397 0.25300
C 	C 	0.09108 0.85766 0.16809 0.30900
O 	O 	0.93529 0.07017 0.07742 -0.40600
O 	O 	0.98699 0.89750 0.01643 -0.38000
O 	O 	0.97717 0.97339 0.01074 -0.37900
O 	O 	0.91942 0.01340 0.19040 -0.41200
O 	O 	0.88624 0.95428 0.14855 -0.41300
O 	O 	0.10910 0.17695 0.16464 -0.39200
O 	O 	0.10835 0.17588 0.10351 -0.39000
O 	O 	0.11676 0.89718 0.13450 -0.40000
O 	O 	0.04758 0.85658 0.17539 -0.38800
O 	O 	0.03667 0.94052 0.09408 -0.75900
C 	C 	0.03311 0.00125 0.25213 0.24800
O 	O 	0.06214 0.06367 0.23333 -0.37800
O 	O 	0.01331 0.96004 0.23334 -0.36800
O 	O 	0.13257 0.98611 0.04837 -0.40200
O 	O 	0.14549 0.06381 0.06160 -0.39700
O 	O 	0.97427 0.80306 0.09848 -0.41100
O 	O 	0.90880 0.82670 0.09604 -0.40500
Co	Co	0.04849 0.98705 0.57796 1.19000
Co	Co	0.94627 0.92865 0.66926 1.18600
Co	Co	0.02324 0.05391 0.61139 1.18000
Co	Co	0.96504 0.86014 0.63234 1.18400
C 	C 	0.16749 0.98654 0.58972 0.31800
Co	Co	0.02742 0.86591 0.57310 1.16600
Co	Co	0.96635 0.05323 0.67070 1.16600
C 	C 	0.87955 0.77650 0.56978 0.30600
O 	O 	0.97575 0.12300 0.61382 -0.41400
O 	O 	0.98519 0.00959 0.65216 -0.76000
C 	C 	0.94373 0.10655 0.57783 0.31400
O 	O 	0.06316 0.07007 0.56956 -0.47700
O 	O 	0.92070 0.84280 0.67196 -0.46900
C 	C 	0.83018 0.92879 0.65644 0.30600
O 	O 	0.01789 0.96272 0.63448 -0.58300
C 	C 	0.10999 0.15358 0.66393 0.30600
C 	C 	0.00872 0.96159 0.49690 0.27700
C 	C 	0.03113 0.79326 0.66361 0.31600
O 	O 	0.94919 0.06986 0.57089 -0.40500
O 	O 	0.04603 0.93950 0.51757 -0.40200
O 	O 	0.99192 0.97331 0.51755 -0.39100
O 	O 	0.86237 0.99232 0.64712 -0.39900
O 	O 	0.84836 0.90459 0.64715 -0.40500
O 	O 	0.07152 0.11005 0.69151 -0.40100
O 	O 	0.10749 0.13599 0.63584 -0.38700
O 	O 	0.00677 0.78665 0.62509 -0.41300
O 	O 	0.01596 0.81798 0.67490 -0.39400
O 	O 	0.01705 0.90819 0.59881 -0.76700
C 	C 	0.98265 0.95711 0.75073 0.27400
O 	O 	0.95187 0.98599 0.72890 -0.40000
O 	O 	0.98472 0.92850 0.73304 -0.38000
O 	O 	0.12920 0.92204 0.60216 -0.40100
O 	O 	0.14712 0.02125 0.58330 -0.39500
O 	O 	0.92406 0.81627 0.54623 -0.39900
O 	O 	0.87835 0.79875 0.59301 -0.39600
C 	C 	0.00347 0.99400 0.89284 0.09400
C 	C 	0.05034 0.01293 0.87424 -0.10700
C 	C 	0.03051 0.96984 0.85440 0.02300
C 	C 	0.96586 0.91083 0.85223 0.06800
C 	C 	0.91892 0.89201 0.87072 -0.07800
C 	C 	0.93857 0.93527 0.89034 -0.00000
N 	N 	0.02296 0.01140 0.92758 -0.16300
C 	C 	0.97128 0.96383 0.94780 0.00600
C 	C 	0.91781 0.91578 0.92533 -0.04100
N 	N 	0.94630 0.89327 0.81757 -0.14900
C 	C 	0.99750 0.94112 0.79694 -0.00000
C 	C 	0.05088 0.98950 0.81915 -0.04400
H 	H 	0.10076 0.05906 0.87573 0.05400
H 	H 	0.86849 0.84589 0.86922 0.04600
H 	H 	0.88122 0.86533 0.93942 0.04300
H 	H 	0.08643 0.04018 0.80460 0.03900
H 	H 	0.07407 0.04164 0.94265 0.07900
H 	H 	0.89516 0.86252 0.80278 0.08200
C 	C 	0.96944 0.96410 0.39208 0.08500
C 	C 	0.94886 0.92358 0.36964 -0.09100
C 	C 	0.99680 0.94286 0.35185 0.02400
C 	C 	0.06192 0.00111 0.35512 0.06200
C 	C 	0.08172 0.04251 0.37639 -0.07800
C 	C 	0.03392 0.02342 0.39420 0.00000
N 	N 	0.94690 0.94041 0.42630 -0.15400
C 	C 	0.99667 0.98383 0.45070 0.00400
C 	C 	0.05118 0.03638 0.43133 -0.04900
N 	N 	0.08700 0.02356 0.32250 -0.15600
C 	C 	0.03797 0.98062 0.29775 0.02000
C 	C 	0.98081 0.92968 0.31504 -0.05700
H 	H 	0.89816 0.87789 0.36722 0.05300
H 	H 	0.13248 0.08816 0.37882 0.04900
H 	H 	0.10350 0.06612 0.44840 0.04600
H 	H 	0.92911 0.90161 0.29672 0.04800
H 	H 	0.91128 0.89065 0.43810 0.08400
H 	H 	0.12550 0.07262 0.31184 0.09000
C 	C 	0.14800 0.22338 0.66004 -0.12000
C 	C 	0.19625 0.25059 0.69510 0.12900
C 	C 	0.21265 0.30765 0.69650 -0.10200
C 	C 	0.18014 0.33662 0.66397 0.00500
C 	C 	0.13568 0.31197 0.62746 0.05400
C 	C 	0.12397 0.25813 0.62486 -0.02300
N 	N 	0.22716 0.22238 0.72728 -0.20500
H 	H 	0.24908 0.32835 0.72357 0.05600
C 	C 	0.19289 0.39232 0.66874 -0.01400
N 	N 	0.10156 0.33746 0.59594 -0.19200
H 	H 	0.09059 0.23951 0.59683 0.04600
C 	C 	0.23236 0.45526 0.64416 -0.08100
C 	C 	0.25175 0.50985 0.65128 0.08600
C 	C 	0.23837 0.50206 0.68671 -0.03800
C 	C 	0.19571 0.43891 0.70981 -0.06700
C 	C 	0.17067 0.38372 0.70007 0.07300
H 	H 	0.24735 0.46163 0.61916 0.05100
N 	N 	0.28207 0.56925 0.62379 -0.19800
H 	H 	0.18324 0.43271 0.73600 0.04500
N 	N 	0.12521 0.32286 0.72064 -0.19500
H 	H 	0.29463 0.57526 0.59880 0.08100
H 	H 	0.29005 0.60899 0.62564 0.08500
H 	H 	0.11116 0.31688 0.74486 0.07800
H 	H 	0.10113 0.28123 0.71157 0.08200
H 	H 	0.06960 0.31936 0.56896 0.08100
H 	H 	0.10407 0.37343 0.59852 0.08400
H 	H 	0.21941 0.18264 0.72561 0.09200
H 	H 	0.26119 0.24148 0.75378 0.08200
C 	C 	0.45894 0.70415 0.72922 -0.03700
C 	C 	0.50301 0.68455 0.75329 0.08500
C 	C 	0.56626 0.72240 0.74384 -0.08100
C 	C 	0.58892 0.78260 0.71380 -0.01400
C 	C 	0.54940 0.80693 0.69465 0.07400
C 	C 	0.48384 0.76665 0.70167 -0.06700
N 	N 	0.48484 0.62970 0.78544 -0.19800
H 	H 	0.59790 0.70503 0.75986 0.05100
C 	C 	0.65105 0.81713 0.70015 0.00600
N 	N 	0.57405 0.86864 0.66959 -0.19600
H 	H 	0.45112 0.78290 0.68435 0.04600
C 	C 	0.64395 0.81898 0.65973 -0.10100
C 	C 	0.70181 0.85411 0.64483 0.13200
C 	C 	0.76770 0.88475 0.67189 -0.11700
C 	C 	0.77435 0.87949 0.71312 -0.02700
C 	C 	0.71697 0.84791 0.72711 0.05700
H 	H 	0.59328 0.79460 0.63936 0.05700
N 	N 	0.69373 0.85916 0.60445 -0.20600
H 	H 	0.82476 0.90263 0.73384 0.04200
N 	N 	0.72575 0.84889 0.76592 -0.19200
H 	H 	0.64479 0.83623 0.58480 0.08400
H 	H 	0.73559 0.88622 0.59197 0.09900
H 	H 	0.77446 0.86987 0.78609 0.08200
H 	H 	0.68504 0.83096 0.77597 0.08600
H 	H 	0.54351 0.88531 0.65428 0.08100
H 	H 	0.62450 0.90147 0.66645 0.08700
H 	H 	0.44097 0.60400 0.79550 0.08400
H 	H 	0.51630 0.61396 0.80201 0.08000
C 	C 	0.23950 0.64646 0.72430 -0.03800
C 	C 	0.23486 0.63972 0.76294 0.08500
C 	C 	0.20151 0.66097 0.76253 -0.08100
C 	C 	0.17102 0.68670 0.72432 -0.01400
C 	C 	0.17487 0.69253 0.68567 0.07500
C 	C 	0.20924 0.67243 0.68615 -0.06800
N 	N 	0.26129 0.61213 0.80036 -0.19800
H 	H 	0.19840 0.65657 0.79201 0.04900
C 	C 	0.13602 0.70835 0.72498 0.00600
N 	N 	0.14606 0.71767 0.64809 -0.19500
H 	H 	0.21288 0.67743 0.65665 0.04600
C 	C 	0.17288 0.77429 0.72330 -0.10100
C 	C 	0.13844 0.80218 0.70866 0.12900
C 	C 	0.06618 0.76306 0.69569 -0.11900
C 	C 	0.02966 0.69509 0.70441 -0.01900
C 	C 	0.06406 0.66721 0.71896 0.05400
H 	H 	0.22834 0.80502 0.73031 0.05700
N 	N 	0.17494 0.86688 0.70554 -0.20400
H 	H 	0.97414 0.66457 0.69652 0.04000
N 	N 	0.02774 0.60153 0.72554 -0.19300
H 	H 	0.22843 0.89625 0.71316 0.08700
H 	H 	0.15065 0.88811 0.69679 0.09700
H 	H 	0.97432 0.57179 0.71925 0.08100
H 	H 	0.05222 0.57920 0.73810 0.08400
H 	H 	0.14919 0.72164 0.61981 0.08000
H 	H 	0.12050 0.73364 0.64641 0.08700
H 	H 	0.28320 0.59273 0.80172 0.08400
H 	H 	0.25872 0.60851 0.82872 0.08000
C 	C 	0.22210 0.54889 0.13070 -0.03800
C 	C 	0.22501 0.55722 0.09102 0.08600
C 	C 	0.20477 0.50415 0.08139 -0.08200
C 	C 	0.17711 0.44220 0.10943 -0.01400
C 	C 	0.16414 0.43190 0.14593 0.07400
C 	C 	0.18795 0.48574 0.15665 -0.06700
N 	N 	0.24745 0.61600 0.06230 -0.19800
H 	H 	0.21176 0.51131 0.05245 0.05100
C 	C 	0.17030 0.39101 0.10333 0.00600
N 	N 	0.12972 0.37075 0.17096 -0.19500
H 	H 	0.18290 0.47891 0.18621 0.04500
C 	C 	0.22114 0.38050 0.12695 -0.10200
C 	C 	0.20894 0.32304 0.13017 0.13400
C 	C 	0.14479 0.27561 0.10960 -0.12000
C 	C 	0.09874 0.29107 0.08083 -0.02400
C 	C 	0.11014 0.34790 0.07805 0.05400
H 	H 	0.26883 0.41547 0.14455 0.05700
N 	N 	0.25845 0.31323 0.15337 -0.20500
H 	H 	0.05103 0.25595 0.06352 0.04100
N 	N 	0.06225 0.35952 0.05230 -0.19200
H 	H 	0.30500 0.34739 0.16975 0.08500
H 	H 	0.25205 0.27278 0.15409 0.09800
H 	H 	0.01732 0.32659 0.03446 0.08100
H 	H 	0.06947 0.40161 0.04923 0.08500
H 	H 	0.12238 0.36383 0.19861 0.07900
H 	H 	0.10788 0.32940 0.16250 0.08400
H 	H 	0.25750 0.65467 0.06730 0.08400
H 	H 	0.25221 0.62263 0.03375 0.08200
C 	C 	0.79939 0.92840 0.17115 -0.11800
C 	C 	0.75352 0.86017 0.17412 0.13000
C 	C 	0.68430 0.82706 0.17115 -0.10200
C 	C 	0.66201 0.85887 0.17057 0.00700
C 	C 	0.70925 0.92550 0.17174 0.05200
C 	C 	0.77713 0.95994 0.17109 -0.01800
N 	N 	0.77631 0.82551 0.18294 -0.20200
H 	H 	0.64832 0.77547 0.17153 0.05700
C 	C 	0.58964 0.82114 0.17031 -0.01400
N 	N 	0.68986 0.95657 0.17362 -0.19000
H 	H 	0.81280 0.01163 0.17042 0.03700
C 	C 	0.56849 0.78028 0.20820 -0.08000
C 	C 	0.49989 0.74235 0.20912 0.08600
C 	C 	0.45186 0.74607 0.17134 -0.03800
C 	C 	0.47350 0.78864 0.13372 -0.06700
C 	C 	0.54181 0.82560 0.13264 0.07500
H 	H 	0.60553 0.77759 0.23704 0.05100
N 	N 	0.48044 0.70218 0.24620 -0.19800
H 	H 	0.43649 0.79140 0.10489 0.04600
N 	N 	0.56096 0.86476 0.09540 -0.19600
H 	H 	0.51625 0.69942 0.27383 0.08100
H 	H 	0.42996 0.67368 0.24812 0.08600
H 	H 	0.52533 0.86811 0.06787 0.08200
H 	H 	0.61098 0.89179 0.09322 0.08800
H 	H 	0.72511 0.00595 0.17417 0.07800
H 	H 	0.64016 0.93210 0.17513 0.08600
H 	H 	0.82805 0.84452 0.19530 0.08700
H 	H 	0.74149 0.77654 0.18150 0.08500
C 	C 	0.11392 0.81613 0.19889 -0.11800
C 	C 	0.07039 0.74879 0.20011 0.12600
C 	C 	0.09906 0.71786 0.20877 -0.10200
C 	C 	0.17017 0.75300 0.21730 0.00500
C 	C 	0.21310 0.81539 0.22511 0.05400
C 	C 	0.18440 0.84654 0.21595 -0.01900
N 	N 	0.00128 0.71461 0.19112 -0.20600
H 	H 	0.06599 0.66817 0.20565 0.05500
C 	C 	0.19764 0.73224 0.20731 -0.01400
N 	N 	0.28185 0.84637 0.23985 -0.19100
H 	H 	0.21760 0.89685 0.21796 0.03900
C 	C 	0.20922 0.75858 0.16698 -0.07900
C 	C 	0.23299 0.73884 0.15546 0.08600
C 	C 	0.24645 0.69253 0.18521 -0.03900
C 	C 	0.23413 0.66554 0.22542 -0.06700
C 	C 	0.20991 0.68506 0.23686 0.07200
H 	H 	0.19906 0.79424 0.14433 0.04900
N 	N 	0.24237 0.76418 0.11579 -0.19800
H 	H 	0.24452 0.63005 0.24809 0.04500
N 	N 	0.19954 0.65910 0.27630 -0.19600
H 	H 	0.23338 0.79920 0.09430 0.08100
H 	H 	0.25744 0.74874 0.10558 0.08500
H 	H 	0.20837 0.62400 0.29780 0.08000
H 	H 	0.18330 0.67383 0.28616 0.08500
H 	H 	0.31374 0.89369 0.24386 0.08000
H 	H 	0.30388 0.82289 0.24878 0.08500
H 	H 	0.97895 0.73486 0.18782 0.09900
H 	H 	0.96921 0.66609 0.18923 0.08600
C 	C 	0.78494 0.28340 0.54320 -0.03700
C 	C 	0.76318 0.27194 0.50360 0.08500
C 	C 	0.78670 0.24595 0.49801 -0.08100
C 	C 	0.83149 0.23144 0.53122 -0.01300
C 	C 	0.85822 0.24876 0.56948 0.07500
C 	C 	0.83466 0.27473 0.57499 -0.06700
N 	N 	0.71954 0.28539 0.47103 -0.19800
H 	H 	0.76824 0.23490 0.46823 0.05000
C 	C 	0.84637 0.19406 0.52681 0.00500
N 	N 	0.90570 0.23985 0.60115 -0.19600
H 	H 	0.85264 0.28522 0.60490 0.04600
C 	C 	0.90636 0.22806 0.51469 -0.10100
C 	C 	0.93385 0.19573 0.52375 0.12700
C 	C 	0.90137 0.12918 0.54589 -0.11700
C 	C 	0.83462 0.09291 0.54955 -0.02400
C 	C 	0.80721 0.12498 0.54115 0.05800
H 	H 	0.93422 0.28042 0.50110 0.05500
N 	N 	0.99295 0.22934 0.51296 -0.20100
H 	H 	0.80715 0.04064 0.56349 0.04600
N 	N 	0.74466 0.08960 0.54819 -0.19200
H 	H 	0.01847 0.27924 0.49809 0.07800
H 	H 	0.01292 0.20566 0.51825 0.08600
H 	H 	0.71719 0.03888 0.56022 0.08200
H 	H 	0.72197 0.11176 0.54084 0.08500
H 	H 	0.92439 0.25197 0.62942 0.08100
H 	H 	0.92544 0.22196 0.59788 0.08900
H 	H 	0.70422 0.30804 0.47350 0.08300
H 	H 	0.70201 0.27495 0.44229 0.08000
C 	C 	0.82603 0.70808 0.56629 -0.11800
C 	C 	0.80095 0.69381 0.52725 0.13100
C 	C 	0.78327 0.63571 0.52665 -0.10400
C 	C 	0.78077 0.58759 0.56415 0.00600
C 	C 	0.79202 0.59651 0.60228 0.05500
C 	C 	0.81651 0.65760 0.60322 -0.02100
N 	N 	0.79516 0.73642 0.49040 -0.20400
H 	H 	0.77182 0.62810 0.49705 0.05700
C 	C 	0.77219 0.53104 0.56370 -0.01400
N 	N 	0.77917 0.54686 0.63775 -0.19200
H 	H 	0.83221 0.66706 0.63308 0.04000
C 	C 	0.82459 0.52250 0.58771 -0.07900
C 	C 	0.81799 0.46951 0.58808 0.08500
C 	C 	0.76063 0.42776 0.56104 -0.03700
C 	C 	0.71274 0.44149 0.53338 -0.06700
C 	C 	0.71469 0.48879 0.53707 0.07400
H 	H 	0.86971 0.55605 0.60711 0.05200
N 	N 	0.86625 0.45869 0.61476 -0.19800
H 	H 	0.66951 0.41028 0.51213 0.04600
N 	N 	0.65981 0.49106 0.51677 -0.19600
H 	H 	0.90805 0.48955 0.63475 0.08100
H 	H 	0.86297 0.41981 0.61602 0.08500
H 	H 	0.61912 0.46196 0.49558 0.08000
H 	H 	0.65497 0.51843 0.52372 0.08600
H 	H 	0.79079 0.55475 0.66621 0.08100
H 	H 	0.75451 0.49938 0.63696 0.08500
H 	H 	0.80288 0.77734 0.49014 0.09700
H 	H 	0.77973 0.72731 0.46155 0.08200
C 	C 	0.57775 0.19397 0.57842 -0.03800
C 	C 	0.52670 0.19786 0.54343 0.08600
C 	C 	0.46052 0.16041 0.54841 -0.08000
C 	C 	0.44381 0.11746 0.58716 -0.01500
C 	C 	0.49302 0.10881 0.62101 0.07300
C 	C 	0.55997 0.14782 0.61639 -0.06800
N 	N 	0.54124 0.23806 0.50518 -0.19800
H 	H 	0.42192 0.16506 0.52209 0.05100
C 	C 	0.37419 0.08128 0.59146 0.01100
N 	N 	0.47670 0.06408 0.65804 -0.19600
H 	H 	0.59889 0.14404 0.64290 0.04500
C 	C 	0.32007 0.02754 0.57365 -0.11300
C 	C 	0.25203 0.99942 0.56969 0.14300
C 	C 	0.23802 0.02125 0.58788 -0.13000
C 	C 	0.29236 0.07388 0.60691 -0.01400
C 	C 	0.36041 0.10485 0.60833 0.05000
H 	H 	0.33088 0.01015 0.56039 0.05700
N 	N 	0.20066 0.95392 0.54668 -0.20600
H 	H 	0.28178 0.09048 0.62096 0.04000
N 	N 	0.41206 0.15694 0.62593 -0.19100
H 	H 	0.21120 0.93506 0.53580 0.08200
H 	H 	0.15096 0.94041 0.53675 0.08000
H 	H 	0.40130 0.17410 0.63811 0.08100
H 	H 	0.46323 0.18078 0.62786 0.08600
H 	H 	0.51373 0.05891 0.68307 0.08000
H 	H 	0.42711 0.03340 0.66217 0.08500
H 	H 	0.58880 0.26364 0.49974 0.08400
H 	H 	0.50395 0.24250 0.47991 0.08000
C 	C 	0.77494 0.29909 0.03172 -0.03300
C 	C 	0.74231 0.27099 0.99747 0.08000
C 	C 	0.76165 0.23761 0.99645 -0.08600
C 	C 	0.81368 0.23298 0.02859 -0.00800
C 	C 	0.85161 0.26765 0.06009 0.07500
C 	C 	0.83146 0.30006 0.06148 -0.06800
N 	N 	0.69213 0.27543 0.96579 -0.19800
H 	H 	0.73456 0.21334 0.97136 0.05000
C 	C 	0.82429 0.18748 0.03106 0.00200
N 	N 	0.90682 0.26954 0.08921 -0.19600
H 	H 	0.85782 0.32342 0.08695 0.04700
C 	C 	0.87209 0.21100 0.01129 -0.09300
C 	C 	0.89796 0.17602 0.02303 0.12400
C 	C 	0.87755 0.11855 0.05610 -0.11200
C 	C 	0.82014 0.08893 0.06923 -0.02400
C 	C 	0.79372 0.12337 0.05751 0.05900
H 	H 	0.89180 0.25797 0.98850 0.04800
N 	N 	0.94299 0.19823 0.00306 -0.20300
H 	H 	0.79965 0.04142 0.09129 0.04000
N 	N 	0.74004 0.09518 0.07217 -0.19300
H 	H 	0.95988 0.24199 0.97964 0.08000
H 	H 	0.96033 0.17141 0.00999 0.09200
H 	H 	0.71824 0.04807 0.09198 0.08100
H 	H 	0.71808 0.11880 0.06300 0.08500
H 	H 	0.93373 0.29426 0.11278 0.08200
H 	H 	0.92472 0.24814 0.08814 0.09000
H 	H 	0.67962 0.30326 0.96438 0.08300
H 	H 	0.66657 0.25266 0.94135 0.07900
C 	C 	0.85329 0.73209 0.07245 -0.11400
C 	C 	0.82544 0.66890 0.09982 0.12700
C 	C 	0.79987 0.61643 0.08651 -0.09900
C 	C 	0.80209 0.62670 0.04635 0.00500
C 	C 	0.81977 0.68766 0.01686 0.06100
C 	C 	0.84158 0.73872 0.02986 -0.02500
N 	N 	0.82592 0.65903 0.13942 -0.20600
H 	H 	0.78216 0.56861 0.10827 0.05600
C 	C 	0.79211 0.57572 0.03715 -0.01400
N 	N 	0.81883 0.69844 0.97684 -0.19500
H 	H 	0.85756 0.78612 0.00793 0.04900
C 	C 	0.73041 0.53647 0.01107 -0.07500
C 	C 	0.71618 0.48286 0.00602 0.08800
C 	C 	0.76072 0.46382 0.03119 -0.03700
C 	C 	0.82456 0.50562 0.05489 -0.06700
C 	C 	0.84147 0.56250 0.05721 0.07500
H 	H 	0.69359 0.54783 0.99452 0.04500
N 	N 	0.65972 0.44965 0.97720 -0.20000
H 	H 	0.85996 0.49250 0.07300 0.04600
N 	N 	0.90479 0.60390 0.07878 -0.19600
H 	H 	0.62542 0.46208 0.95994 0.08000
H 	H 	0.65112 0.41326 0.97033 0.08300
H 	H 	0.93995 0.59253 0.09484 0.08100
H 	H 	0.92066 0.64880 0.07848 0.08800
H 	H 	0.83234 0.74373 0.95550 0.08000
H 	H 	0.80541 0.66253 0.96656 0.08400
H 	H 	0.84229 0.69683 0.14932 0.08900
H 	H 	0.80811 0.61283 0.16033 0.08200
C 	C 	0.24615 0.07452 0.07258 -0.11400
C 	C 	0.28502 0.13163 0.04352 0.13100
C 	C 	0.35379 0.15852 0.05052 -0.10000
C 	C 	0.38295 0.12721 0.08433 0.00500
C 	C 	0.34468 0.07117 0.11397 0.05600
C 	C 	0.27724 0.04663 0.10837 -0.02700
N 	N 	0.25637 0.15980 0.00838 -0.20200
H 	H 	0.38383 0.20227 0.02841 0.05700
C 	C 	0.45210 0.15167 0.08682 -0.01400
N 	N 	0.37153 0.03968 0.14709 -0.19500
H 	H 	0.24768 0.00356 0.13090 0.04200
C 	C 	0.50819 0.18887 0.11585 -0.08100
C 	C 	0.57522 0.22334 0.11342 0.08500
C 	C 	0.58589 0.22537 0.07907 -0.03700
C 	C 	0.53009 0.18335 0.05253 -0.06700
C 	C 	0.46325 0.14501 0.05690 0.07400
H 	H 	0.49963 0.19161 0.14001 0.05100
N 	N 	0.62901 0.25411 0.14405 -0.19800
H 	H 	0.53837 0.18262 0.02727 0.04600
N 	N 	0.41006 0.10240 0.03215 -0.19600
H 	H 	0.62098 0.25474 0.16841 0.08100
H 	H 	0.67883 0.27498 0.14501 0.08500
H 	H 	0.41840 0.09960 0.00900 0.08000
H 	H 	0.36051 0.06990 0.03678 0.08600
H 	H 	0.34279 0.99847 0.16882 0.08500
H 	H 	0.42050 0.05496 0.15133 0.08400
H 	H 	0.20479 0.13989 0.00124 0.09700
H 	H 	0.28576 0.20209 0.98732 0.07900
