data_crystal

_cell_length_a 16.84290
_cell_length_b 17.86357
_cell_length_c 44.14382
_cell_angle_alpha 89.67125
_cell_angle_beta  89.67372
_cell_angle_gamma 119.41125

_symmetry_space_group_name_	'P 1'
_symmetry_space_group_name_H-M	'P 1'

loop_
_symmetry_equiv_pos_as_xyz
  x,y,z

loop_
_atom_site_label
_atom_site_type_symbol
_atom_site_fract_x
_atom_site_fract_y
_atom_site_fract_z
_atom_site_charge
C 	C 	0.81462 0.28987 0.89969 0.31400
C 	C 	0.46257 0.27180 0.90533 0.33100
C 	C 	0.74177 0.43876 0.86796 0.33000
C 	C 	0.52763 0.11637 0.94062 0.37800
C 	C 	0.64918 0.47625 0.96154 0.41800
C 	C 	0.75629 0.37113 0.99452 0.38700
Ni	Ni	0.62524 0.25955 0.89229 1.11800
Ni	Ni	0.57330 0.29170 0.96023 1.13300
Ni	Ni	0.77038 0.41835 0.93140 1.12800
O 	O 	0.72862 0.23024 0.89578 -0.35300
O 	O 	0.83849 0.37234 0.90465 -0.35500
O 	O 	0.58050 0.40477 0.95228 -0.38000
O 	O 	0.53989 0.31089 0.89099 -0.36900
O 	O 	0.45977 0.24213 0.93298 -0.33300
O 	O 	0.79926 0.37577 0.96902 -0.37800
O 	O 	0.71387 0.35754 0.86266 -0.36400
O 	O 	0.73351 0.46244 0.89509 -0.36200
O 	O 	0.66482 0.33590 0.99598 -0.30600
O 	O 	0.52555 0.14314 0.91248 -0.33800
O 	O 	0.54940 0.16913 0.96411 -0.33700
O 	O 	0.73378 0.49138 0.95750 -0.33200
O 	O 	0.66372 0.30881 0.93062 -0.71800
H 	H 	0.68567 0.27170 0.93955 0.18500
C 	C 	0.73948 0.42299 0.57715 0.28600
C 	C 	0.42916 0.20644 0.50576 0.32600
C 	C 	0.65767 0.19430 0.56167 0.35200
C 	C 	0.49686 0.41716 0.52223 0.40600
C 	C 	0.65847 0.24351 0.46327 0.40700
C 	C 	0.80406 0.48684 0.47803 0.38500
Ni	Ni	0.55780 0.29518 0.55272 1.11800
Ni	Ni	0.59662 0.36270 0.48145 1.13100
Ni	Ni	0.74616 0.33702 0.51904 1.12600
O 	O 	0.65043 0.39400 0.57938 -0.35000
O 	O 	0.77296 0.37822 0.56318 -0.35900
O 	O 	0.61118 0.28010 0.45504 -0.35600
O 	O 	0.48686 0.19823 0.52270 -0.34000
O 	O 	0.46045 0.27068 0.48598 -0.31200
O 	O 	0.81729 0.45823 0.50418 -0.37100
O 	O 	0.60772 0.22295 0.57444 -0.36000
O 	O 	0.68464 0.21425 0.53364 -0.34300
O 	O 	0.72047 0.46266 0.46724 -0.33300
O 	O 	0.47979 0.35555 0.54257 -0.36300
O 	O 	0.56506 0.44430 0.50261 -0.37000
O 	O 	0.73728 0.28852 0.47701 -0.36100
O 	O 	0.63995 0.34790 0.51995 -0.70900
H 	H 	0.66754 0.40854 0.52592 0.16100
C 	C 	0.26658 0.14292 0.74244 0.28500
C 	C 	0.96622 0.85444 0.68476 0.31600
C 	C 	0.16558 0.10999 0.65719 0.31000
C 	C 	0.04323 0.86709 0.76164 0.29100
C 	C 	0.92398 0.06884 0.69264 0.32400
C 	C 	0.02266 0.11363 0.77675 0.29300
Ni	Ni	0.14690 0.98793 0.70689 1.10900
Ni	Ni	0.95473 0.95973 0.73554 1.11400
Ni	Ni	0.10978 0.15046 0.71625 1.12500
O 	O 	0.25675 0.06795 0.73389 -0.35200
O 	O 	0.24343 0.18674 0.72347 -0.36500
O 	O 	0.89701 0.98931 0.70131 -0.39700
O 	O 	0.04513 0.91831 0.67630 -0.37500
O 	O 	0.93155 0.85303 0.71172 -0.37900
O 	O 	0.09349 0.16837 0.76003 -0.38100
O 	O 	0.21039 0.08080 0.67316 -0.36100
O 	O 	0.12433 0.14713 0.67062 -0.37700
O 	O 	0.95043 0.04739 0.76419 -0.37100
O 	O 	0.09626 0.88203 0.73714 -0.36300
O 	O 	0.00414 0.91402 0.76801 -0.38100
O 	O 	0.98474 0.13403 0.70837 -0.38800
O 	O 	0.07800 0.03381 0.72419 -0.70300
H 	H 	0.10217 0.04158 0.74478 0.14500
C 	C 	0.28589 0.65771 0.35195 0.30700
C 	C 	0.56410 0.81404 0.44108 0.32500
C 	C 	0.41167 0.55896 0.38864 0.31000
C 	C 	0.45759 0.90878 0.41283 0.38500
C 	C 	0.32162 0.59162 0.47782 0.38900
C 	C 	0.16082 0.66326 0.43799 0.35900
Ni	Ni	0.45738 0.74585 0.38729 1.11500
Ni	Ni	0.36639 0.75994 0.45227 1.14200
Ni	Ni	0.26888 0.58628 0.41431 1.13000
O 	O 	0.36907 0.72495 0.35173 -0.35500
O 	O 	0.26666 0.58768 0.36798 -0.35900
O 	O 	0.37359 0.67500 0.48024 -0.33400
O 	O 	0.53144 0.74681 0.42414 -0.37100
O 	O 	0.50682 0.82983 0.45651 -0.31300
O 	O 	0.17011 0.61739 0.41613 -0.34800
O 	O 	0.45162 0.63175 0.37329 -0.36000
O 	O 	0.36790 0.55381 0.41381 -0.36000
O 	O 	0.22746 0.70769 0.45797 -0.31500
O 	O 	0.49242 0.87697 0.39261 -0.34700
O 	O 	0.37895 0.85847 0.42645 -0.34700
O 	O 	0.25249 0.55978 0.45910 -0.35000
O 	O 	0.35594 0.70518 0.41414 -0.71000
H 	H 	0.32059 0.72735 0.40341 0.16100
C 	C 	0.45985 0.61835 0.02412 0.37800
C 	C 	0.20493 0.64883 0.11314 0.31300
C 	C 	0.23018 0.46119 0.05550 0.34500
C 	C 	0.42797 0.82195 0.08977 0.31700
C 	C 	0.09927 0.58136 0.02494 0.39500
C 	C 	0.33442 0.78646 0.99294 0.39000
Ni	Ni	0.35340 0.63437 0.07985 1.12000
Ni	Ni	0.24921 0.73089 0.05361 1.13000
Ni	Ni	0.28026 0.60292 0.01034 1.12900
O 	O 	0.43429 0.59918 0.05317 -0.32600
O 	O 	0.41417 0.64044 0.00495 -0.33300
O 	O 	0.13974 0.66556 0.02710 -0.33800
O 	O 	0.28745 0.65935 0.11560 -0.36400
O 	O 	0.17195 0.64760 0.08643 -0.37000
O 	O 	0.29180 0.70393 0.98445 -0.33700
O 	O 	0.24176 0.51356 0.07760 -0.36200
O 	O 	0.26629 0.49077 0.02846 -0.34600
O 	O 	0.31392 0.81102 0.01882 -0.35600
O 	O 	0.45011 0.76237 0.08307 -0.35100
O 	O 	0.34452 0.81108 0.08463 -0.35700
O 	O 	0.14347 0.54502 0.01307 -0.35000
O 	O 	0.31357 0.67055 0.04609 -0.72400
H 	H 	0.37191 0.71833 0.03873 0.17900
C 	C 	0.88333 0.03401 0.30543 0.29200
C 	C 	0.04731 0.13123 0.18515 0.31600
C 	C 	0.78521 0.99944 0.22263 0.27500
C 	C 	0.16031 0.18163 0.26703 0.30500
C 	C 	0.95154 0.86353 0.20373 0.32800
C 	C 	0.01836 0.87920 0.27621 0.30700
Ni	Ni	0.96720 0.12417 0.24677 1.11400
Ni	Ni	0.08024 0.02516 0.22932 1.12700
Ni	Ni	0.87545 0.91616 0.25542 1.11900
O 	O 	0.93780 0.11047 0.29300 -0.36000
O 	O 	0.82971 0.96701 0.28831 -0.37400
O 	O 	0.00071 0.94533 0.19752 -0.39200
O 	O 	0.98101 0.13470 0.19978 -0.37600
O 	O 	0.11025 0.12437 0.20036 -0.37300
O 	O 	0.94819 0.88876 0.28486 -0.39900
O 	O 	0.82682 0.06367 0.24131 -0.34900
O 	O 	0.80321 0.93568 0.22262 -0.36800
O 	O 	0.07792 0.92799 0.25461 -0.38100
O 	O 	0.10747 0.20506 0.25231 -0.35700
O 	O 	0.16797 0.11444 0.25842 -0.36200
O 	O 	0.89074 0.83718 0.22585 -0.37900
O 	O 	0.98159 0.02597 0.24990 -0.71500
H 	H 	0.00668 0.03416 0.27046 0.16000
C 	C 	0.10732 0.22701 0.09413 0.03700
C 	C 	0.02268 0.20597 0.10715 -0.04200
C 	C 	0.00064 0.17098 0.13642 0.03300
C 	C 	0.18741 0.37143 0.06268 -0.04800
C 	C 	0.13871 0.16041 0.13709 0.02800
C 	C 	0.16148 0.19745 0.10807 -0.04900
C 	C 	0.15052 0.30150 0.07461 0.07300
C 	C 	0.06130 0.15261 0.15230 -0.07900
H 	H 	0.97865 0.22582 0.09608 0.08500
H 	H 	0.93935 0.16329 0.14733 0.04300
H 	H 	0.18386 0.14224 0.14830 0.04900
H 	H 	0.22562 0.21055 0.09774 0.07500
C 	C 	0.60799 0.98017 0.15128 0.00500
C 	C 	0.58118 0.98003 0.18146 -0.03600
C 	C 	0.64178 0.99282 0.20504 -0.00800
C 	C 	0.48622 0.88694 0.11048 -0.07500
C 	C 	0.75798 0.01241 0.16827 0.00400
C 	C 	0.69855 0.00253 0.14478 -0.02400
C 	C 	0.53981 0.93366 0.12892 0.05900
C 	C 	0.72888 0.00489 0.19847 -0.04200
H 	H 	0.51159 0.96373 0.18676 0.05200
H 	H 	0.61912 0.98811 0.22835 0.05100
H 	H 	0.82465 0.02059 0.16298 0.05400
H 	H 	0.72031 0.00390 0.12153 0.07200
C 	C 	0.06143 0.71849 0.17418 0.00300
C 	C 	0.01363 0.64334 0.15737 -0.02700
C 	C 	0.06133 0.61192 0.14053 0.01400
C 	C 	0.98306 0.80700 0.19301 -0.12400
C 	C 	0.20414 0.72540 0.15979 0.01300
C 	C 	0.15629 0.75623 0.17689 -0.04400
C 	C 	0.01613 0.76427 0.18450 0.07600
C 	C 	0.15716 0.65696 0.13980 -0.07400
H 	H 	0.94005 0.61231 0.15584 0.05700
H 	H 	0.02412 0.55715 0.12593 0.06400
H 	H 	0.27799 0.75955 0.16004 0.04700
H 	H 	0.19353 0.81297 0.19062 0.04900
C 	C 	0.79212 0.98455 0.39705 0.00500
C 	C 	0.84023 0.94582 0.38496 -0.03700
C 	C 	0.87592 0.96619 0.35548 -0.00600
C 	C 	0.65015 0.88462 0.43152 -0.09200
C 	C 	0.83086 0.07554 0.35214 0.02000
C 	C 	0.79451 0.05448 0.38158 -0.02100
C 	C 	0.71812 0.93521 0.41796 0.06400
C 	C 	0.86665 0.02773 0.33836 -0.05400
H 	H 	0.84159 0.89358 0.39711 0.06000
H 	H 	0.90627 0.93087 0.34542 0.04300
H 	H 	0.82592 0.12517 0.33945 0.07000
H 	H 	0.76165 0.08785 0.39130 0.09800
C 	C 	0.32077 0.34122 0.33312 0.02300
C 	C 	0.28328 0.33138 0.36224 -0.03700
C 	C 	0.32058 0.39991 0.38244 0.01400
C 	C 	0.21962 0.23675 0.28996 -0.08200
C 	C 	0.44016 0.48409 0.34593 0.02300
C 	C 	0.40247 0.41560 0.32571 -0.04400
C 	C 	0.26720 0.28357 0.30957 0.05400
C 	C 	0.39485 0.47915 0.37336 -0.06700
H 	H 	0.22162 0.27286 0.36849 0.06900
H 	H 	0.28748 0.39335 0.40416 0.08100
H 	H 	0.50063 0.54314 0.33930 0.05100
H 	H 	0.43357 0.42258 0.30356 0.06200
C 	C 	0.09542 0.70973 0.31755 0.03600
C 	C 	0.06739 0.75679 0.33577 -0.04100
C 	C 	0.03538 0.80794 0.32237 0.02600
C 	C 	0.21338 0.66770 0.33960 -0.07800
C 	C 	0.05053 0.75811 0.27283 0.02400
C 	C 	0.08193 0.70675 0.28623 -0.05100
C 	C 	0.15674 0.68328 0.32963 0.07400
C 	C 	0.03148 0.81212 0.29073 -0.07800
H 	H 	0.07642 0.75848 0.36009 0.08800
H 	H 	0.01900 0.84808 0.33645 0.04800
H 	H 	0.04545 0.75922 0.24844 0.04100
H 	H 	0.10205 0.66949 0.27203 0.06000
C 	C 	0.63799 0.14356 0.42123 0.26700
C 	C 	0.62981 0.15629 0.45229 -0.19100
C 	C 	0.56970 0.08616 0.47038 0.26500
C 	C 	0.51272 0.00675 0.45743 0.30300
C 	C 	0.51778 0.99439 0.42614 -0.22300
C 	C 	0.58210 0.06290 0.40817 0.28500
F 	F 	0.58757 0.05277 0.37791 -0.39700
F 	F 	0.69590 0.21067 0.40335 -0.38000
F 	F 	0.45037 0.94230 0.47531 -0.41500
F 	F 	0.55932 0.09712 0.50016 -0.38600
C 	C 	0.95165 0.62300 0.48228 0.26700
C 	C 	0.88430 0.56030 0.46371 -0.19000
C 	C 	0.90587 0.55560 0.43331 0.27700
C 	C 	0.99670 0.60190 0.42324 0.24700
C 	C 	0.06708 0.64906 0.44406 -0.16700
C 	C 	0.04307 0.66601 0.47277 0.27700
F 	F 	0.10803 0.72139 0.49186 -0.37500
F 	F 	0.92951 0.63689 0.51051 -0.39700
F 	F 	0.01681 0.59706 0.39373 -0.38500
F 	F 	0.84039 0.50107 0.41418 -0.38000
C 	C 	0.36018 0.40743 0.49744 0.27200
C 	C 	0.43067 0.44732 0.51855 -0.20800
C 	C 	0.44710 0.52468 0.53173 0.28000
C 	C 	0.40121 0.56698 0.52122 0.27300
C 	C 	0.34147 0.53375 0.49648 -0.18800
C 	C 	0.31576 0.45043 0.48640 0.27000
F 	F 	0.25146 0.41301 0.46474 -0.40200
F 	F 	0.33837 0.32918 0.48630 -0.39800
F 	F 	0.41760 0.64192 0.53419 -0.37400
F 	F 	0.51101 0.56117 0.55358 -0.39100
C 	C 	0.78890 0.11466 0.61919 0.02100
C 	C 	0.74106 0.04205 0.63779 -0.03800
C 	C 	0.78511 0.02692 0.66181 0.03900
C 	C 	0.70158 0.16079 0.58061 -0.08500
C 	C 	0.92567 0.15629 0.64831 0.02300
C 	C 	0.88156 0.17106 0.62424 -0.05100
C 	C 	0.74066 0.13756 0.59770 0.06500
C 	C 	0.87737 0.08471 0.66745 -0.08700
H 	H 	0.66922 0.99850 0.63413 0.05600
H 	H 	0.74714 0.97125 0.67636 0.03600
H 	H 	0.99725 0.20049 0.65209 0.03900
H 	H 	0.91886 0.22751 0.60996 0.05900
C 	C 	0.21430 0.12946 0.56152 0.03800
C 	C 	0.20452 0.19358 0.57651 -0.05400
C 	C 	0.18443 0.18568 0.60759 0.02700
C 	C 	0.34091 0.17686 0.51913 -0.04900
C 	C 	0.17171 0.04453 0.60801 0.04100
C 	C 	0.19049 0.05211 0.57686 -0.05800
C 	C 	0.27714 0.15393 0.53632 0.06300
C 	C 	0.17332 0.11318 0.62380 -0.08400
H 	H 	0.22080 0.25296 0.56477 0.07800
H 	H 	0.18249 0.23792 0.61929 0.04700
H 	H 	0.15910 0.98656 0.62000 0.03500
H 	H 	0.19532 0.00107 0.56534 0.08400
C 	C 	0.86991 0.64240 0.63206 0.01600
C 	C 	0.84846 0.56186 0.64410 -0.04400
C 	C 	0.81383 0.49013 0.62531 0.01700
C 	C 	0.92784 0.77791 0.66715 -0.09800
C 	C 	0.82698 0.58036 0.58218 0.02200
C 	C 	0.86180 0.65199 0.60093 -0.03100
C 	C 	0.90015 0.71526 0.65153 0.05500
C 	C 	0.80029 0.49879 0.59445 -0.05900
H 	H 	0.85627 0.55436 0.66810 0.05300
H 	H 	0.79308 0.42725 0.63500 0.04500
H 	H 	0.81549 0.58738 0.55846 0.08400
H 	H 	0.87987 0.71447 0.59140 0.07200
C 	C 	0.86753 0.38401 0.03280 0.27000
C 	C 	0.81334 0.41633 0.02069 -0.16900
C 	C 	0.84652 0.50546 0.02253 0.26900
C 	C 	0.94031 0.56161 0.02589 0.27600
C 	C 	0.99934 0.52799 0.03061 -0.20000
C 	C 	0.96101 0.43954 0.03720 0.27100
F 	F 	0.01482 0.40690 0.04628 -0.39000
F 	F 	0.83325 0.29784 0.03561 -0.37600
F 	F 	0.97371 0.64764 0.02301 -0.37900
F 	F 	0.79037 0.53808 0.01719 -0.36400
C 	C 	0.53071 0.99043 0.96427 0.24700
C 	C 	0.48475 0.02289 0.94681 -0.15400
C 	C 	0.39370 0.96765 0.93862 0.25500
C 	C 	0.34658 0.88359 0.95044 0.28600
C 	C 	0.38988 0.85441 0.97067 -0.19000
C 	C 	0.48370 0.90624 0.97587 0.28700
F 	F 	0.52743 0.87762 0.99439 -0.37700
F 	F 	0.61983 0.04171 0.97118 -0.36200
F 	F 	0.25667 0.83330 0.94438 -0.37700
F 	F 	0.34894 0.99721 0.92102 -0.38700
C 	C 	0.59326 0.50155 0.01047 0.29100
C 	C 	0.62986 0.53187 0.98139 -0.17800
C 	C 	0.62411 0.60151 0.96886 0.28600
C 	C 	0.57478 0.63496 0.98398 0.27400
C 	C 	0.52971 0.59810 0.01165 -0.17500
C 	C 	0.54377 0.53434 0.02553 0.27200
F 	F 	0.50470 0.50002 0.05279 -0.38200
F 	F 	0.59909 0.43505 0.02312 -0.37700
F 	F 	0.56898 0.70158 0.97136 -0.36100
F 	F 	0.66135 0.63328 0.94117 -0.37900
C 	C 	0.97069 0.20513 0.85923 0.01500
C 	C 	0.04981 0.25788 0.84251 -0.03600
C 	C 	0.07157 0.22586 0.81686 0.01000
C 	C 	0.88188 0.26985 0.88854 -0.06900
C 	C 	0.94144 0.08511 0.82676 0.00600
C 	C 	0.92057 0.11720 0.85262 -0.03900
C 	C 	0.92749 0.24351 0.87646 0.05800
C 	C 	0.01342 0.14077 0.80759 -0.05900
H 	H 	0.09054 0.32537 0.84795 0.06000
H 	H 	0.13025 0.26879 0.80320 0.04800
H 	H 	0.89896 0.01820 0.82089 0.05400
H 	H 	0.86075 0.07522 0.86605 0.07400
C 	C 	0.28333 0.19392 0.83778 0.02600
C 	C 	0.24381 0.10915 0.82756 -0.05100
C 	C 	0.23788 0.09244 0.79650 0.01800
C 	C 	0.38255 0.23748 0.88710 -0.06900
C 	C 	0.29988 0.24429 0.78558 0.02000
C 	C 	0.30510 0.26061 0.81671 -0.05500
C 	C 	0.32981 0.21486 0.86636 0.06000
C 	C 	0.27001 0.16055 0.77531 -0.08500
H 	H 	0.22454 0.05677 0.84362 0.07700
H 	H 	0.20990 0.02675 0.78898 0.04400
H 	H 	0.32136 0.29704 0.76956 0.04200
H 	H 	0.33354 0.32627 0.82438 0.06100
C 	C 	0.91593 0.63660 0.81336 0.02300
C 	C 	0.92055 0.63263 0.78177 -0.05000
C 	C 	0.97052 0.70813 0.76474 0.00500
C 	C 	0.80075 0.50333 0.84665 -0.08700
C 	C 	0.01553 0.79097 0.81100 0.03200
C 	C 	0.96638 0.71546 0.82798 -0.06000
C 	C 	0.85284 0.56212 0.83063 0.05500
C 	C 	0.01490 0.78801 0.77927 -0.06600
H 	H 	0.88261 0.57174 0.77031 0.05400
H 	H 	0.96980 0.70508 0.74023 0.04500
H 	H 	0.05035 0.85218 0.82244 0.04600
H 	H 	0.96422 0.71879 0.85246 0.07500
