data_crystal

_cell_length_a 30.50408
_cell_length_b 31.20133
_cell_length_c 26.48504
_cell_angle_alpha 95.53715
_cell_angle_beta  95.53228
_cell_angle_gamma 125.55404

_symmetry_space_group_name_	'P 1'
_symmetry_space_group_name_H-M	'P 1'

loop_
_symmetry_equiv_pos_as_xyz
  x,y,z

loop_
_atom_site_label
_atom_site_type_symbol
_atom_site_fract_x
_atom_site_fract_y
_atom_site_fract_z
_atom_site_charge
C 	C 	0.98669 0.04153 0.98616 0.11700
N 	N 	0.03974 0.07011 0.97960 -0.14000
C 	C 	0.06321 0.04485 0.97030 0.11900
H 	H 	0.54465 0.20478 0.73711 0.08100
C 	C 	0.78445 0.13675 0.42443 0.04000
C 	C 	0.73167 0.11343 0.43488 -0.07400
C 	C 	0.71246 0.14436 0.44213 0.01600
C 	C 	0.80605 0.10614 0.42191 -0.02600
C 	C 	0.82389 0.08031 0.41984 -0.01700
C 	C 	0.84572 0.04990 0.41808 0.02600
C 	C 	0.82518 0.00671 0.44415 -0.05700
C 	C 	0.91287 0.03778 0.39327 -0.01800
C 	C 	0.88920 0.06498 0.39222 -0.05300
H 	H 	0.70589 0.07160 0.43842 0.04700
H 	H 	0.67185 0.12603 0.45094 0.02700
H 	H 	0.94662 0.04996 0.37328 0.04000
H 	H 	0.90513 0.09817 0.37181 0.04400
C 	C 	0.06153 0.00650 0.43388 -0.02700
C 	C 	0.14098 0.01316 0.41341 -0.05700
C 	C 	0.17567 0.06516 0.44283 0.02800
C 	C 	0.15332 0.08807 0.46748 -0.05400
C 	C 	0.09643 0.05888 0.46302 -0.01500
C 	C 	0.23415 0.09522 0.44705 -0.01700
C 	C 	0.28302 0.11981 0.45016 -0.02500
C 	C 	0.34122 0.14897 0.45277 0.04100
C 	C 	0.36344 0.16435 0.40833 -0.07200
H 	H 	0.17996 0.12836 0.49018 0.04500
H 	H 	0.07957 0.07666 0.48279 0.03900
H 	H 	0.43675 0.20520 0.37615 0.02400
H 	H 	0.33694 0.15400 0.37190 0.04800
C 	C 	0.96065 0.06869 0.99494 -0.01800
C 	C 	0.99185 0.12180 0.02225 -0.02200
C 	C 	0.96716 0.14759 0.02985 -0.05000
C 	C 	0.91120 0.12054 0.01032 0.02000
C 	C 	0.87986 0.06743 0.98360 -0.04700
C 	C 	0.90441 0.04158 0.97589 -0.02100
C 	C 	0.88634 0.14790 0.01573 -0.01600
C 	C 	0.86474 0.17008 0.01983 -0.02800
C 	C 	0.83838 0.19612 0.02312 0.04000
C 	C 	0.78363 0.16708 0.02954 -0.07400
C 	C 	0.75550 0.18982 0.02536 0.01500
H 	H 	0.03508 0.14301 0.03773 0.03900
H 	H 	0.99162 0.18868 0.05059 0.04200
H 	H 	0.83660 0.04634 0.96829 0.04200
H 	H 	0.76233 0.12631 0.03614 0.04700
H 	H 	0.71264 0.16629 0.02860 0.03200
C 	C 	0.39455 0.19326 0.96804 0.03500
C 	C 	0.41799 0.17554 0.99988 -0.06000
C 	C 	0.47416 0.19953 0.00591 0.00500
C 	C 	0.33749 0.17096 0.96467 -0.02300
C 	C 	0.28963 0.15177 0.96237 -0.01700
C 	C 	0.23239 0.12811 0.96032 0.02600
C 	C 	0.19247 0.07978 0.92627 -0.05300
C 	C 	0.13695 0.05368 0.92803 -0.01600
C 	C 	0.12094 0.07572 0.96403 -0.02500
C 	C 	0.16091 0.12531 0.99667 -0.01300
C 	C 	0.21648 0.15134 0.99487 -0.05000
H 	H 	0.39291 0.14384 0.02070 0.04400
H 	H 	0.49199 0.18636 0.03169 0.03900
H 	H 	0.20448 0.06180 0.89921 0.04400
H 	H 	0.14913 0.14277 0.02459 0.03500
H 	H 	0.24717 0.18884 0.02119 0.04100
C 	C 	0.42000 0.19342 0.41078 0.01700
H 	H 	0.10644 0.01585 0.90208 0.03800
C 	C 	0.37570 0.16209 0.49964 -0.07200
C 	C 	0.78193 0.24174 0.01436 -0.10000
N 	N 	0.57878 0.23826 0.76253 -0.19900
H 	H 	0.35871 0.15014 0.53413 0.04900
C 	C 	0.81725 0.19071 0.41930 -0.07300
C 	C 	0.74606 0.19905 0.43916 -0.09800
C 	C 	0.45487 0.20744 0.45781 -0.09100
H 	H 	0.85801 0.20894 0.41089 0.04800
C 	C 	0.43238 0.19120 0.50221 0.01800
O 	O 	0.69598 0.22080 0.48720 -0.44200
H 	H 	0.45877 0.20195 0.53881 0.03600
H 	H 	0.60168 0.22845 0.41741 0.16500
C 	C 	0.79813 0.22178 0.42653 0.01600
C 	C 	0.72859 0.23318 0.45357 0.28800
H 	H 	0.58644 0.23815 0.66452 0.04700
O 	O 	0.54563 0.23792 0.49656 -0.38200
C 	C 	0.42711 0.23388 0.94085 -0.06800
C 	C 	0.50741 0.24163 0.98015 -0.08600
C 	C 	0.51477 0.24099 0.46074 0.28900
H 	H 	0.57689 0.24230 0.80171 0.08400
H 	H 	0.87989 0.00077 0.95447 0.04100
O 	O 	0.70399 0.24349 0.01801 -0.37600
N 	N 	0.97617 0.99865 0.42819 -0.14100
C 	C 	0.89327 0.99526 0.42035 -0.02200
H 	H 	0.73704 0.25167 0.18901 0.08800
H 	H 	0.79151 0.99480 0.46420 0.04500
H 	H 	0.15802 0.99536 0.39399 0.04600
C 	C 	0.86574 0.24895 0.01509 -0.07500
O 	O 	0.58945 0.24999 0.01307 -0.36600
C 	C 	0.08416 0.98392 0.40888 -0.01200
C 	C 	0.84879 0.97940 0.44525 -0.01500
H 	H 	0.62541 0.26108 0.92128 0.17000
H 	H 	0.90825 0.27183 0.01061 0.04600
C 	C 	0.00167 0.97470 0.43079 0.12000
C 	C 	0.92084 0.96911 0.42442 0.11800
N 	N 	0.03359 0.99103 0.96766 -0.14100
C 	C 	0.98068 0.96233 0.97425 0.11900
N 	N 	0.95731 0.98766 0.98357 -0.14000
N 	N 	0.97174 0.92111 0.42959 -0.14100
C 	C 	0.91653 0.89136 0.42593 0.11900
N 	N 	0.89103 0.91539 0.42356 -0.14100
Cu	Cu	0.66976 0.28181 0.01613 0.92600
Cu	Cu	0.71382 0.27765 0.90870 0.87000
Cu	Cu	0.70085 0.36233 0.94399 0.89700
Cu	Cu	0.66922 0.38179 0.04256 0.89300
C 	C 	0.68803 0.32972 0.12160 0.29000
C 	C 	0.68127 0.31820 0.83325 0.29200
O 	O 	0.71357 0.36468 0.01667 -0.64300
O 	O 	0.66334 0.28385 0.94145 -0.64000
O 	O 	0.76482 0.29531 0.96858 -0.43900
O 	O 	0.66170 0.34919 0.10536 -0.38700
O 	O 	0.74131 0.43931 0.95161 -0.38500
C 	C 	0.73403 0.46948 0.98287 0.29500
C 	C 	0.56762 0.27117 0.99111 0.28500
O 	O 	0.59954 0.32050 0.98308 -0.39300
O 	O 	0.69921 0.44936 0.01512 -0.40000
O 	O 	0.68692 0.29344 0.09003 -0.36200
C 	C 	0.75019 0.26249 0.00146 0.28500
O 	O 	0.70099 0.36079 0.86929 -0.38900
O 	O 	0.67957 0.27693 0.84406 -0.42000
H 	H 	0.75271 0.38851 0.03366 0.16100
Cu	Cu	0.70911 0.31141 0.43503 0.92600
Cu	Cu	0.71448 0.27299 0.54507 0.86900
Cu	Cu	0.62479 0.28016 0.50548 0.89600
Cu	Cu	0.60253 0.30523 0.40137 0.89400
C 	C 	0.67501 0.31015 0.33033 0.29100
O 	O 	0.74234 0.38977 0.43606 -0.37200
C 	C 	0.66945 0.30355 0.61710 0.29200
O 	O 	0.62389 0.26703 0.43306 -0.63700
O 	O 	0.70562 0.31930 0.50927 -0.64200
O 	O 	0.74789 0.27736 0.43505 -0.37400
O 	O 	0.62671 0.29876 0.33535 -0.38400
C 	C 	0.71628 0.41007 0.44778 0.28200
O 	O 	0.66585 0.37868 0.45564 -0.39200
O 	O 	0.53688 0.27977 0.43368 -0.39400
O 	O 	0.69891 0.29573 0.36136 -0.36500
O 	O 	0.62569 0.28130 0.58031 -0.39000
O 	O 	0.71337 0.30776 0.60776 -0.42000
H 	H 	0.72732 0.35686 0.52806 0.17000
C 	C 	0.71161 0.36439 0.75891 -0.04600
C 	C 	0.67048 0.32092 0.77858 -0.09600
C 	C 	0.62293 0.27693 0.74432 0.10400
C 	C 	0.62119 0.27354 0.69081 -0.04600
C 	C 	0.66529 0.31434 0.67124 -0.09600
C 	C 	0.70886 0.36193 0.70536 0.10500
N 	N 	0.74766 0.40539 0.68697 -0.19900
H 	H 	0.74685 0.39933 0.78523 0.04800
H 	H 	0.78094 0.43964 0.71235 0.08100
H 	H 	0.74378 0.40653 0.64760 0.08400
C 	C 	0.70218 0.37327 0.21166 -0.04300
C 	C 	0.70448 0.33696 0.17844 -0.09500
C 	C 	0.71328 0.30214 0.20011 0.11200
C 	C 	0.70413 0.29385 0.25046 -0.04500
C 	C 	0.69423 0.32533 0.28155 -0.08800
C 	C 	0.69771 0.36821 0.26332 0.10200
N 	N 	0.69708 0.40467 0.29521 -0.19900
H 	H 	0.70171 0.40423 0.19683 0.04200
H 	H 	0.70554 0.26351 0.26559 0.05600
N 	N 	0.73550 0.28112 0.17519 -0.19700
H 	H 	0.69813 0.43533 0.28108 0.08100
H 	H 	0.69770 0.40420 0.33460 0.08200
H 	H 	0.75721 0.29831 0.14598 0.10100
C 	C 	0.88457 0.83306 0.42335 -0.02400
C 	C 	0.89493 0.80298 0.39064 -0.01600
C 	C 	0.87163 0.74959 0.39398 -0.05300
C 	C 	0.83781 0.72582 0.42999 0.02600
C 	C 	0.82535 0.75494 0.46111 -0.05300
C 	C 	0.84855 0.80843 0.45770 -0.01700
C 	C 	0.81822 0.67251 0.43666 -0.01700
C 	C 	0.80240 0.62784 0.44142 -0.02600
C 	C 	0.78398 0.57445 0.44640 0.04000
C 	C 	0.74516 0.54611 0.47726 -0.07200
C 	C 	0.72485 0.49314 0.47965 0.01500
C 	C 	0.74312 0.46802 0.45094 -0.09500
C 	C 	0.78358 0.49728 0.42153 0.01400
C 	C 	0.80377 0.55024 0.41919 -0.07200
H 	H 	0.92221 0.82142 0.36360 0.03800
H 	H 	0.88095 0.72713 0.36942 0.04300
H 	H 	0.79883 0.73665 0.48876 0.04400
H 	H 	0.84022 0.83122 0.48310 0.03800
H 	H 	0.73009 0.56478 0.49882 0.04800
H 	H 	0.69431 0.47139 0.50314 0.03000
H 	H 	0.79802 0.47850 0.39911 0.03300
H 	H 	0.83406 0.57207 0.39548 0.04700
H 	H 	0.82447 0.26384 0.42399 0.03200
H 	H 	0.83335 0.94681 0.46641 0.03800
H 	H 	0.05772 0.94379 0.38582 0.03800
C 	C 	0.94892 0.90391 0.97175 -0.02100
C 	C 	0.91060 0.87871 0.00413 -0.02000
C 	C 	0.88255 0.82378 0.00347 -0.05600
C 	C 	0.89253 0.79369 0.97047 0.02900
C 	C 	0.93005 0.81849 0.93758 -0.05300
C 	C 	0.95813 0.87337 0.93813 -0.01700
C 	C 	0.86495 0.73754 0.97099 -0.01700
C 	C 	0.84188 0.69052 0.97139 -0.02500
C 	C 	0.81403 0.63442 0.97233 0.04200
C 	C 	0.83976 0.61003 0.96207 -0.07200
C 	C 	0.81341 0.55594 0.96486 0.01800
C 	C 	0.76116 0.52596 0.97805 -0.09100
C 	C 	0.73526 0.55046 0.98760 0.01900
C 	C 	0.76166 0.60445 0.98476 -0.07200
H 	H 	0.90330 0.90178 0.03045 0.04000
H 	H 	0.85348 0.80478 0.02895 0.04400
H 	H 	0.93773 0.79536 0.91180 0.04400
H 	H 	0.98705 0.89213 0.91249 0.03900
H 	H 	0.88030 0.63302 0.95240 0.04800
H 	H 	0.83395 0.53764 0.95758 0.03000
H 	H 	0.69466 0.52766 0.99712 0.03200
H 	H 	0.74148 0.62305 0.99254 0.04900
C 	C 	0.83773 0.27178 0.01087 0.01400
H 	H 	0.85899 0.31228 0.00354 0.02600
C 	C 	0.48330 0.25790 0.94672 0.01000
H 	H 	0.50816 0.28963 0.92587 0.03100
H 	H 	0.40910 0.24739 0.91574 0.04700
