data_crystal

_cell_length_a 29.46736
_cell_length_b 30.18425
_cell_length_c 20.65887
_cell_angle_alpha 95.53968
_cell_angle_beta  95.53079
_cell_angle_gamma 125.59880

_symmetry_space_group_name_	'P 1'
_symmetry_space_group_name_H-M	'P 1'

loop_
_symmetry_equiv_pos_as_xyz
  x,y,z

loop_
_atom_site_label
_atom_site_type_symbol
_atom_site_fract_x
_atom_site_fract_y
_atom_site_fract_z
_atom_site_charge
C 	C 	0.00914 0.06408 0.00709 0.13000
N 	N 	0.06687 0.09587 0.01702 -0.13600
C 	C 	0.09419 0.07256 0.02765 0.11100
Cu	Cu	0.67522 0.27798 0.98974 0.92000
Cu	Cu	0.68107 0.27897 0.83260 0.86500
Cu	Cu	0.71399 0.37834 0.92651 0.89100
Cu	Cu	0.72993 0.39553 0.07786 0.89600
C 	C 	0.71163 0.29711 0.12900 0.32100
O 	O 	0.60832 0.26677 0.02491 -0.36700
C 	C 	0.65885 0.35251 0.78654 0.32200
O 	O 	0.74092 0.36355 0.00368 -0.62800
O 	O 	0.65599 0.29633 0.90783 -0.65100
O 	O 	0.68176 0.22025 0.94864 -0.38500
O 	O 	0.73583 0.27172 0.87684 -0.44500
O 	O 	0.73487 0.35089 0.14070 -0.38200
O 	O 	0.77343 0.45687 0.94884 -0.41000
C 	C 	0.77982 0.48928 0.00204 0.33800
C 	C 	0.60062 0.30554 0.03175 0.28800
O 	O 	0.64238 0.35717 0.03037 -0.38900
O 	O 	0.77319 0.47329 0.06009 -0.39400
O 	O 	0.70604 0.27148 0.07009 -0.36800
C 	C 	0.72084 0.23320 0.91278 0.28900
O 	O 	0.69595 0.39070 0.83882 -0.40200
O 	O 	0.64401 0.30141 0.77863 -0.42300
H 	H 	0.78002 0.37452 0.00631 0.17100
H 	H 	0.61656 0.28474 0.89812 0.16700
Cu	Cu	0.71299 0.31528 0.43784 0.92800
Cu	Cu	0.69748 0.29291 0.58886 0.86500
Cu	Cu	0.60278 0.26981 0.48867 0.89800
Cu	Cu	0.60116 0.27565 0.34209 0.89400
C 	C 	0.70391 0.29296 0.29713 0.32100
O 	O 	0.73292 0.38734 0.41535 -0.37400
C 	C 	0.61895 0.31086 0.63088 0.32100
O 	O 	0.62479 0.25339 0.41124 -0.64200
O 	O 	0.68666 0.32539 0.51806 -0.64400
O 	O 	0.76519 0.30040 0.47909 -0.38200
O 	O 	0.70343 0.24032 0.53912 -0.44200
O 	O 	0.64957 0.27278 0.28221 -0.38600
O 	O 	0.52294 0.21196 0.45607 -0.38400
C 	C 	0.49474 0.20458 0.39740 0.29100
C 	C 	0.69579 0.39823 0.41012 0.28600
O 	O 	0.64127 0.35779 0.40179 -0.39000
O 	O 	0.52032 0.23668 0.35405 -0.39400
O 	O 	0.72655 0.29420 0.35631 -0.37700
C 	C 	0.74481 0.25619 0.50595 0.28900
O 	O 	0.58298 0.27634 0.57586 -0.40000
O 	O 	0.67119 0.32528 0.64329 -0.42400
H 	H 	0.61209 0.21463 0.40117 0.16600
H 	H 	0.69851 0.36349 0.53273 0.17000
C 	C 	0.63893 0.36733 0.73877 -0.12300
C 	C 	0.60032 0.32771 0.67694 -0.12200
H 	H 	0.64969 0.40876 0.74614 0.07000
H 	H 	0.55740 0.31589 0.66662 0.07100
C 	C 	0.73312 0.30146 0.24825 -0.11500
C 	C 	0.70362 0.27069 0.17989 -0.11500
H 	H 	0.77873 0.32273 0.26058 0.07800
H 	H 	0.68138 0.22602 0.17008 0.07900
C 	C 	0.76327 0.22055 0.49183 -0.09700
C 	C 	0.79376 0.22741 0.44063 0.02000
C 	C 	0.80917 0.19226 0.42550 -0.07700
C 	C 	0.79476 0.15019 0.46156 0.04800
C 	C 	0.76405 0.14302 0.51253 -0.07900
C 	C 	0.74884 0.17833 0.52798 0.01700
C 	C 	0.80922 0.11185 0.44304 -0.05700
C 	C 	0.83322 0.09924 0.48919 -0.04600
C 	C 	0.85130 0.06408 0.47005 0.03000
C 	C 	0.83628 0.01974 0.50217 -0.05300
C 	C 	0.89102 0.00095 0.43986 -0.01700
C 	C 	0.90594 0.04529 0.40760 -0.01800
C 	C 	0.88644 0.07687 0.42285 -0.05500
H 	H 	0.80484 0.25940 0.41187 0.04100
H 	H 	0.83227 0.19770 0.38560 0.05000
H 	H 	0.75128 0.10969 0.53954 0.04600
H 	H 	0.72550 0.17253 0.56768 0.02100
H 	H 	0.80366 0.09671 0.39083 0.04500
H 	H 	0.83867 0.11408 0.54145 0.03900
H 	H 	0.89936 0.11180 0.39879 0.04400
C 	C 	0.43205 0.16597 0.38448 -0.09200
C 	C 	0.40425 0.11964 0.41540 0.02000
C 	C 	0.34504 0.08592 0.40805 -0.07700
C 	C 	0.31313 0.09842 0.37026 0.04800
C 	C 	0.34056 0.14300 0.33657 -0.07700
C 	C 	0.39974 0.17676 0.34385 0.01900
C 	C 	0.25107 0.06501 0.36681 -0.05600
C 	C 	0.22623 0.08950 0.38179 -0.04800
C 	C 	0.16514 0.05628 0.38503 0.03400
C 	C 	0.13167 0.07111 0.35680 -0.06100
C 	C 	0.07476 0.04229 0.36332 -0.00800
C 	C 	0.14138 0.01279 0.42076 -0.05700
H 	H 	0.42851 0.11010 0.44568 0.02900
H 	H 	0.32410 0.05087 0.43306 0.04600
H 	H 	0.31610 0.15191 0.30548 0.04800
H 	H 	0.42048 0.21200 0.31915 0.03100
H 	H 	0.22625 0.02002 0.35704 0.04300
H 	H 	0.25099 0.13449 0.39093 0.04200
H 	H 	0.14979 0.10504 0.32986 0.04400
H 	H 	0.04923 0.05387 0.34083 0.03600
H 	H 	0.16728 0.00216 0.44473 0.04300
C 	C 	0.75057 0.20716 0.91647 -0.10100
C 	C 	0.72640 0.15744 0.94060 0.01900
C 	C 	0.75529 0.13376 0.94630 -0.08100
C 	C 	0.80880 0.15962 0.92850 0.04700
C 	C 	0.83242 0.20855 0.90274 -0.08000
C 	C 	0.80363 0.23237 0.89711 0.01700
C 	C 	0.83860 0.13376 0.93425 -0.06200
C 	C 	0.89365 0.16378 0.96330 -0.04200
C 	C 	0.92227 0.13711 0.97293 0.00900
C 	C 	0.97502 0.15984 0.95407 -0.04800
C 	C 	0.00327 0.13596 0.96490 -0.02600
C 	C 	0.97935 0.08945 0.99564 -0.04800
C 	C 	0.92685 0.06720 0.01539 0.00300
C 	C 	0.89856 0.09100 0.00428 -0.03700
H 	H 	0.68519 0.13703 0.95483 0.03000
H 	H 	0.73625 0.09548 0.96509 0.04400
H 	H 	0.87290 0.22796 0.88679 0.04500
H 	H 	0.82279 0.27057 0.87818 0.02300
H 	H 	0.81429 0.08908 0.91870 0.04100
H 	H 	0.91817 0.20849 0.97871 0.03700
H 	H 	0.99397 0.19581 0.93059 0.03800
H 	H 	0.04353 0.15339 0.94900 0.03400
H 	H 	0.85862 0.07407 0.02081 0.04500
C 	C 	0.15670 0.10662 0.03746 0.01700
C 	C 	0.18669 0.09658 0.08319 -0.03600
C 	C 	0.24478 0.12298 0.08608 -0.03700
C 	C 	0.27368 0.16015 0.04386 0.00500
C 	C 	0.24431 0.17214 0.00008 0.01000
C 	C 	0.18608 0.14565 0.99711 -0.08500
C 	C 	0.33253 0.18077 0.04007 -0.03400
C 	C 	0.37416 0.23525 0.04603 -0.05800
C 	C 	0.43351 0.25561 0.04531 0.04500
C 	C 	0.46557 0.29473 0.00629 -0.06100
C 	C 	0.52074 0.31209 0.00291 0.03700
C 	C 	0.54427 0.29052 0.03871 -0.10100
C 	C 	0.51303 0.25306 0.07974 0.02100
C 	C 	0.45820 0.23620 0.08368 -0.07800
H 	H 	0.26710 0.11360 0.12015 0.03800
H 	H 	0.26605 0.20032 0.96670 0.01300
H 	H 	0.16345 0.15377 0.96160 0.04800
H 	H 	0.34250 0.15125 0.03590 0.04000
H 	H 	0.36413 0.26473 0.04910 0.04700
H 	H 	0.44734 0.31078 0.97751 0.02900
H 	H 	0.54463 0.34128 0.97135 0.00700
H 	H 	0.53126 0.23708 0.10868 0.02700
H 	H 	0.43482 0.20785 0.11625 0.04700
H 	H 	0.63968 0.43865 0.36427 0.02600
H 	H 	0.90828 0.03195 0.04011 0.03800
H 	H 	0.16471 0.06730 0.11541 0.04500
H 	H 	0.93295 0.05554 0.37105 0.04100
C 	C 	0.78849 0.55336 0.47137 -0.07900
C 	C 	0.76929 0.49818 0.46092 0.01900
C 	C 	0.71569 0.45641 0.42190 -0.09600
C 	C 	0.68119 0.47044 0.39426 0.01900
C 	C 	0.70047 0.52572 0.40478 -0.07800
H 	H 	0.79595 0.48788 0.48351 0.02700
H 	H 	0.67331 0.53600 0.38374 0.04700
C 	C 	0.80534 0.54790 0.99972 -0.14200
C 	C 	0.84580 0.57589 0.95967 0.03800
C 	C 	0.78738 0.57533 0.03524 0.05100
H 	H 	0.86028 0.55533 0.93232 0.02500
H 	H 	0.75569 0.55396 0.06567 0.02100
C 	C 	0.75466 0.56754 0.44248 0.04800
H 	H 	0.75315 0.62503 0.35251 0.04100
H 	H 	0.82999 0.58524 0.50135 0.04600
C 	C 	0.86764 0.63051 0.95468 -0.08600
C 	C 	0.80891 0.62986 0.02983 -0.06800
H 	H 	0.89860 0.65157 0.92332 0.04700
C 	C 	0.77607 0.62625 0.45303 -0.05600
H 	H 	0.79321 0.64987 0.05563 0.04900
C 	C 	0.84955 0.65789 0.98988 0.03900
C 	C 	0.77573 0.65022 0.40161 -0.04700
H 	H 	0.79787 0.65156 0.50224 0.04200
N 	N 	0.06371 0.01743 0.02821 -0.13400
H 	H 	0.73772 0.70644 0.35630 0.04300
C 	C 	0.87086 0.71466 0.98124 -0.07900
H 	H 	0.87639 0.72489 0.93218 0.04500
C 	C 	0.78167 0.73347 0.38164 -0.05900
C 	C 	0.80736 0.71105 0.41025 0.03300
H 	H 	0.88532 0.72958 0.46308 0.04300
C 	C 	0.88850 0.75476 0.03353 -0.02500
H 	H 	0.88273 0.74483 0.08266 0.04000
N 	N 	0.97886 0.00884 0.00770 -0.13200
C 	C 	0.86462 0.74649 0.44212 -0.05800
C 	C 	0.81286 0.79082 0.38498 -0.01500
C 	C 	0.91608 0.81282 0.02535 0.04600
H 	H 	0.97714 0.81646 0.97119 0.04400
C 	C 	0.89579 0.80370 0.44538 -0.01400
H 	H 	0.79280 0.80759 0.36191 0.03800
C 	C 	0.87030 0.82614 0.41618 -0.02600
H 	H 	0.86315 0.82335 0.08028 0.04500
H 	H 	0.93996 0.83055 0.46998 0.03700
C 	C 	0.89848 0.84310 0.05432 -0.05600
C 	C 	0.96242 0.83910 0.99258 -0.07400
C 	C 	0.90451 0.88604 0.41543 0.11900
C 	C 	0.99075 0.89503 0.98871 -0.03000
C 	C 	0.92675 0.89910 0.05028 -0.02000
H 	H 	0.02652 0.91484 0.96344 0.03200
N 	N 	0.95891 0.91335 0.40577 -0.14200
N 	N 	0.88229 0.91432 0.42581 -0.14100
H 	H 	0.91322 0.92224 0.07354 0.04100
C 	C 	0.97343 0.92549 0.01808 0.00200
H 	H 	0.80973 0.00996 0.53918 0.04100
H 	H 	0.84434 0.95431 0.51259 0.04000
H 	H 	0.06678 0.95071 0.45525 0.03400
C 	C 	0.91445 0.96983 0.42664 0.11500
C 	C 	0.99118 0.96876 0.40657 0.12600
C 	C 	0.08445 0.98384 0.42709 -0.01500
C 	C 	0.00613 0.98547 0.01821 0.10200
C 	C 	0.85571 0.98806 0.48687 -0.02400
N 	N 	0.96886 0.99692 0.41694 -0.14200
C 	C 	0.05088 0.99857 0.39863 -0.03600
