data_crystal

_cell_length_a 29.97108
_cell_length_b 30.47009
_cell_length_c 26.55814
_cell_angle_alpha 95.53046
_cell_angle_beta  95.52454
_cell_angle_gamma 125.58542

_symmetry_space_group_name_	'P 1'
_symmetry_space_group_name_H-M	'P 1'

loop_
_symmetry_equiv_pos_as_xyz
  x,y,z

loop_
_atom_site_label
_atom_site_type_symbol
_atom_site_fract_x
_atom_site_fract_y
_atom_site_fract_z
_atom_site_charge
C 	C 	0.96557 0.02003 0.00486 0.02300
C 	C 	0.02168 0.04701 0.99994 -0.06000
C 	C 	0.04271 0.01672 0.99075 0.02800
C 	C 	0.00764 0.95951 0.98685 -0.07200
C 	C 	0.95187 0.93252 0.99238 0.03500
C 	C 	0.93074 0.96272 0.00092 -0.08000
H 	H 	0.04887 0.09132 0.00350 0.04200
H 	H 	0.02387 0.93607 0.97995 0.05200
H 	H 	0.88731 0.94170 0.00432 0.05000
C 	C 	0.94569 0.99871 0.42937 0.03300
C 	C 	0.91949 0.94406 0.43553 -0.07700
C 	C 	0.95081 0.92363 0.44238 0.03200
C 	C 	0.00834 0.95781 0.44220 -0.07500
C 	C 	0.03448 0.01210 0.43503 0.03300
C 	C 	0.00317 0.03258 0.42889 -0.07600
H 	H 	0.87491 0.91756 0.43503 0.05100
H 	H 	0.03267 0.94216 0.44748 0.05100
H 	H 	0.02357 0.07487 0.42432 0.05100
Cu	Cu	0.64767 0.25068 0.99831 0.93100
Cu	Cu	0.69644 0.25502 0.89218 0.87200
Cu	Cu	0.66543 0.32814 0.92409 0.90000
Cu	Cu	0.63115 0.34307 0.02242 0.89700
C 	C 	0.66172 0.29877 0.10240 0.30200
O 	O 	0.56426 0.20888 0.99595 -0.35800
C 	C 	0.66070 0.29231 0.81489 0.29900
O 	O 	0.68225 0.33375 0.99688 -0.63100
O 	O 	0.63838 0.25052 0.92335 -0.63800
O 	O 	0.69171 0.22071 0.00141 -0.37700
O 	O 	0.74980 0.27890 0.95261 -0.43500
O 	O 	0.62860 0.31164 0.08546 -0.37300
O 	O 	0.69740 0.40519 0.92910 -0.36900
C 	C 	0.68952 0.43369 0.96298 0.29200
C 	C 	0.53629 0.22550 0.97484 0.28400
O 	O 	0.56365 0.27507 0.96415 -0.39000
O 	O 	0.65294 0.40963 0.99356 -0.38200
O 	O 	0.66694 0.26553 0.07215 -0.35800
C 	C 	0.73936 0.24566 0.98507 0.29600
O 	O 	0.65526 0.32295 0.84881 -0.36400
O 	O 	0.66045 0.25123 0.82691 -0.41400
H 	H 	0.72196 0.36215 0.01298 0.17300
H 	H 	0.60016 0.22286 0.90318 0.17600
Cu	Cu	0.73435 0.33945 0.42679 0.93000
Cu	Cu	0.72491 0.28454 0.52927 0.87100
Cu	Cu	0.65013 0.31416 0.49655 0.89900
Cu	Cu	0.63796 0.35144 0.40023 0.89600
C 	C 	0.69403 0.33403 0.32199 0.30400
O 	O 	0.77362 0.42140 0.43325 -0.36200
C 	C 	0.67939 0.31235 0.60486 0.30000
O 	O 	0.64864 0.30137 0.42419 -0.64100
O 	O 	0.73011 0.34340 0.50088 -0.63900
O 	O 	0.76946 0.30050 0.42345 -0.36600
O 	O 	0.70827 0.23736 0.46711 -0.43200
O 	O 	0.67612 0.36203 0.33996 -0.38100
O 	O 	0.57107 0.28005 0.48876 -0.37400
C 	C 	0.54188 0.28776 0.45511 0.29300
C 	C 	0.75456 0.44605 0.45596 0.28400
O 	O 	0.70245 0.41683 0.46252 -0.39200
O 	O 	0.56571 0.32301 0.42368 -0.39000
O 	O 	0.72370 0.32483 0.35313 -0.34700
C 	C 	0.74598 0.25282 0.43794 0.29600
O 	O 	0.65272 0.32273 0.57122 -0.36700
O 	O 	0.72237 0.31359 0.59517 -0.41300
H 	H 	0.62135 0.26261 0.40641 0.17800
H 	H 	0.75667 0.38013 0.52312 0.17600
C 	C 	0.62222 0.25439 0.72139 -0.02500
C 	C 	0.66000 0.29982 0.76093 -0.08000
C 	C 	0.69993 0.35123 0.74841 0.08900
C 	C 	0.70351 0.35584 0.69669 -0.02400
C 	C 	0.66781 0.30965 0.65740 -0.07800
C 	C 	0.62564 0.25916 0.66970 0.08700
N 	N 	0.58721 0.21219 0.62982 -0.02600
H 	H 	0.59060 0.21513 0.73079 0.06000
H 	H 	0.73566 0.39486 0.68727 0.05800
N 	N 	0.73843 0.39832 0.78812 -0.01800
O 	O 	0.58122 0.16647 0.63099 -0.12400
O 	O 	0.55543 0.21397 0.59440 -0.11400
O 	O 	0.77479 0.39904 0.81992 -0.12900
O 	O 	0.74084 0.44242 0.78919 -0.11100
C 	C 	0.71323 0.37079 0.24103 -0.02400
C 	C 	0.69386 0.32624 0.26637 -0.07600
C 	C 	0.67175 0.27402 0.23785 0.09100
C 	C 	0.66561 0.26617 0.18400 -0.02500
C 	C 	0.68094 0.30992 0.15840 -0.07500
C 	C 	0.70737 0.36303 0.18731 0.08900
N 	N 	0.72778 0.40911 0.16209 -0.02300
H 	H 	0.73244 0.41148 0.26306 0.06400
H 	H 	0.64608 0.22540 0.16200 0.06600
N 	N 	0.65354 0.22845 0.26319 -0.01900
O 	O 	0.71502 0.44259 0.17319 -0.12200
O 	O 	0.76134 0.41910 0.12993 -0.13000
O 	O 	0.61162 0.21001 0.28697 -0.12200
O 	O 	0.67620 0.20290 0.25928 -0.10700
C 	C 	0.92334 0.86629 0.44954 -0.00700
C 	C 	0.89311 0.84738 0.48949 -0.03000
C 	C 	0.86767 0.79328 0.49654 -0.05200
C 	C 	0.87313 0.75802 0.46439 0.02900
C 	C 	0.90300 0.77676 0.42423 -0.05200
C 	C 	0.92787 0.83058 0.41677 -0.03000
C 	C 	0.84505 0.70056 0.47109 -0.04500
C 	C 	0.87440 0.68050 0.47900 -0.05500
C 	C 	0.84592 0.62095 0.47649 0.04800
C 	C 	0.86300 0.59436 0.44717 -0.07500
C 	C 	0.83455 0.53760 0.44201 0.01900
C 	C 	0.78875 0.50676 0.46648 -0.09000
C 	C 	0.77359 0.53391 0.49819 0.01600
C 	C 	0.80221 0.59078 0.50337 -0.07400
H 	H 	0.88952 0.87462 0.51514 0.03600
H 	H 	0.84414 0.77895 0.52724 0.04200
H 	H 	0.90646 0.74944 0.39852 0.04400
H 	H 	0.95050 0.84450 0.38544 0.03700
H 	H 	0.80003 0.67431 0.46858 0.04200
H 	H 	0.91947 0.70727 0.48169 0.04500
H 	H 	0.89747 0.61747 0.42723 0.05000
H 	H 	0.84720 0.51748 0.41785 0.04000
H 	H 	0.73935 0.51097 0.51841 0.03400
H 	H 	0.79021 0.61126 0.52797 0.04900
C 	C 	0.76761 0.22058 0.42792 -0.09700
C 	C 	0.79195 0.22372 0.38448 0.02700
C 	C 	0.81544 0.19568 0.37684 -0.07500
C 	C 	0.81434 0.16386 0.41222 0.05000
C 	C 	0.78983 0.16061 0.45557 -0.07700
C 	C 	0.76619 0.18837 0.46310 0.02000
C 	C 	0.84324 0.13801 0.40616 -0.05600
C 	C 	0.81975 0.08648 0.41397 -0.04500
C 	C 	0.85246 0.06442 0.41764 0.02800
C 	C 	0.85438 0.04169 0.46053 -0.05200
C 	C 	0.88494 0.02045 0.46441 -0.03000
C 	C 	0.91319 0.02096 0.42502 -0.00800
C 	C 	0.91053 0.04288 0.38163 -0.03000
C 	C 	0.88019 0.06443 0.37789 -0.05200
H 	H 	0.79297 0.24806 0.35682 0.04700
H 	H 	0.83475 0.19894 0.34357 0.05200
H 	H 	0.79032 0.13769 0.48409 0.04700
H 	H 	0.74818 0.18608 0.49710 0.01500
H 	H 	0.88447 0.16169 0.39610 0.04400
H 	H 	0.77799 0.06243 0.42287 0.04200
H 	H 	0.83267 0.04103 0.49113 0.04100
H 	H 	0.88685 0.00378 0.49811 0.03600
H 	H 	0.93170 0.04295 0.35075 0.03600
H 	H 	0.87791 0.08072 0.34403 0.04200
C 	C 	0.48226 0.26102 0.45667 -0.08500
C 	C 	0.46198 0.24530 0.50221 0.02000
C 	C 	0.40550 0.21963 0.50354 -0.07200
C 	C 	0.36857 0.20889 0.45933 0.04800
C 	C 	0.38892 0.22549 0.41403 -0.07400
C 	C 	0.44540 0.25109 0.41262 0.01800
C 	C 	0.30902 0.18212 0.46141 -0.05500
C 	C 	0.26834 0.13887 0.42521 -0.04500
C 	C 	0.20888 0.10971 0.42913 0.02800
C 	C 	0.16962 0.09636 0.38578 -0.05200
C 	C 	0.11279 0.06558 0.38807 -0.03000
C 	C 	0.09468 0.04738 0.43359 -0.00700
C 	C 	0.13393 0.06088 0.47705 -0.03000
C 	C 	0.19073 0.09162 0.47478 -0.05100
H 	H 	0.48999 0.25336 0.53672 0.05100
H 	H 	0.39036 0.20774 0.53887 0.05200
H 	H 	0.36110 0.21882 0.38006 0.04900
H 	H 	0.46038 0.26294 0.37722 0.03100
H 	H 	0.29843 0.19554 0.49464 0.04500
H 	H 	0.27883 0.12556 0.39183 0.04200
H 	H 	0.18310 0.10957 0.35024 0.04100
H 	H 	0.08275 0.05509 0.35423 0.03700
H 	H 	0.12032 0.04690 0.51233 0.03800
H 	H 	0.22047 0.10044 0.50811 0.04300
C 	C 	0.91615 0.87276 0.99084 -0.00200
C 	C 	0.89616 0.85210 0.03498 -0.03500
C 	C 	0.86702 0.79597 0.03523 -0.05600
C 	C 	0.85720 0.75994 0.99125 0.03200
C 	C 	0.87652 0.78054 0.94678 -0.05100
C 	C 	0.90550 0.83664 0.94650 -0.03100
C 	C 	0.83111 0.70169 0.99358 -0.03700
C 	C 	0.78961 0.66114 0.95595 -0.05800
C 	C 	0.76433 0.60298 0.95808 0.05500
C 	C 	0.75647 0.56765 0.91452 -0.07100
C 	C 	0.73245 0.51251 0.91611 0.01800
C 	C 	0.71559 0.49205 0.96126 -0.07600
C 	C 	0.72286 0.52737 0.00466 0.01300
C 	C 	0.74658 0.58237 0.00292 -0.07800
H 	H 	0.90443 0.87972 0.06948 0.03700
H 	H 	0.85270 0.78055 0.06984 0.04200
H 	H 	0.87035 0.75335 0.91296 0.04400
H 	H 	0.92081 0.85225 0.91224 0.03800
H 	H 	0.84471 0.69182 0.02729 0.03800
H 	H 	0.77603 0.67096 0.92220 0.04600
H 	H 	0.76929 0.58299 0.87951 0.05500
H 	H 	0.72642 0.48565 0.88209 0.05700
H 	H 	0.71018 0.51224 0.03977 0.03700
H 	H 	0.75093 0.60889 0.03632 0.05100
C 	C 	0.94288 0.05158 0.01327 -0.01000
C 	C 	0.91616 0.04703 0.05521 -0.03100
C 	C 	0.88979 0.07244 0.06032 -0.05100
C 	C 	0.89087 0.10355 0.02420 0.02200
C 	C 	0.91888 0.10935 0.98301 -0.04600
C 	C 	0.94475 0.08348 0.97759 -0.02600
C 	C 	0.85804 0.12538 0.02671 -0.04600
C 	C 	0.88178 0.17865 0.02601 -0.05400
C 	C 	0.84726 0.19847 0.01821 0.03800
C 	C 	0.85607 0.23106 0.98108 -0.06700
C 	C 	0.82180 0.24755 0.97116 0.01300
C 	C 	0.77841 0.23192 0.99862 -0.08800
C 	C 	0.77130 0.20142 0.03760 0.01200
C 	C 	0.80574 0.18500 0.04751 -0.07000
H 	H 	0.91489 0.02291 0.08324 0.03600
H 	H 	0.86803 0.06749 0.09205 0.04100
H 	H 	0.91921 0.13257 0.95442 0.04200
H 	H 	0.96494 0.08700 0.94491 0.03600
H 	H 	0.81386 0.09737 0.02795 0.04100
H 	H 	0.92613 0.20644 0.02524 0.04200
H 	H 	0.88869 0.24255 0.95900 0.04600
H 	H 	0.82837 0.27158 0.94142 0.02500
H 	H 	0.73902 0.19020 0.06004 0.04400
H 	H 	0.79999 0.16166 0.07773 0.05000
C 	C 	0.47550 0.19358 0.97316 -0.08500
C 	C 	0.45069 0.15814 0.00817 0.01300
C 	C 	0.39581 0.13609 0.01349 -0.07900
C 	C 	0.36487 0.14851 0.98343 0.05100
C 	C 	0.38860 0.18163 0.94655 -0.07400
C 	C 	0.44348 0.20368 0.94116 0.01600
C 	C 	0.31020 0.13165 0.99469 -0.04800
C 	C 	0.26511 0.10660 0.95688 -0.04900
C 	C 	0.20982 0.08754 0.96852 0.03500
C 	C 	0.17534 0.09491 0.93674 -0.05300
C 	C 	0.12150 0.07372 0.94526 -0.03100
C 	C 	0.10160 0.04474 0.98551 0.00100
C 	C 	0.13646 0.03829 0.01792 -0.03700
C 	C 	0.18995 0.05885 0.00905 -0.05700
H 	H 	0.47465 0.14965 0.03292 0.04000
H 	H 	0.37781 0.11046 0.04195 0.05000
H 	H 	0.36528 0.19190 0.92338 0.04900
H 	H 	0.46173 0.23017 0.91338 0.03400
H 	H 	0.30627 0.13762 0.03459 0.03900
H 	H 	0.26924 0.10132 0.91693 0.04300
H 	H 	0.19003 0.11653 0.90511 0.04200
H 	H 	0.09479 0.07859 0.91980 0.03700
H 	H 	0.12148 0.01597 0.04909 0.03700
H 	H 	0.21540 0.05133 0.03290 0.04200
