data_crystal

_cell_length_a 18.57664
_cell_length_b 18.90378
_cell_length_c 43.06668
_cell_angle_alpha 95.42150
_cell_angle_beta  95.42025
_cell_angle_gamma 126.42935

_symmetry_space_group_name_	'P 1'
_symmetry_space_group_name_H-M	'P 1'

loop_
_symmetry_equiv_pos_as_xyz
  x,y,z

loop_
_atom_site_label
_atom_site_type_symbol
_atom_site_fract_x
_atom_site_fract_y
_atom_site_fract_z
_atom_site_charge
C 	C 	0.90883 0.00872 0.97114 0.04400
C 	C 	0.86456 0.91733 0.97184 -0.04900
C 	C 	0.91403 0.88269 0.97127 0.05200
C 	C 	0.00746 0.93997 0.97083 -0.04600
C 	C 	0.05091 0.03031 0.96968 0.04800
C 	C 	0.00155 0.06437 0.96958 -0.05800
H 	H 	0.79272 0.87386 0.97292 0.07000
H 	H 	0.04623 0.91407 0.97119 0.07300
H 	H 	0.03577 0.13471 0.96908 0.06800
C 	C 	0.93968 0.01897 0.50196 0.04200
C 	C 	0.03310 0.06610 0.50184 -0.05600
C 	C 	0.07139 0.02070 0.50150 0.04500
C 	C 	0.01690 0.92904 0.50188 -0.05200
C 	C 	0.92398 0.88208 0.50206 0.05100
C 	C 	0.88542 0.92706 0.50238 -0.05200
H 	H 	0.07515 0.13705 0.50124 0.07100
H 	H 	0.04651 0.89391 0.50143 0.07000
H 	H 	0.81302 0.89026 0.50206 0.07000
Cu	Cu	0.76393 0.35535 0.96885 0.93000
Cu	Cu	0.74864 0.29171 0.03779 0.87500
Cu	Cu	0.61597 0.31241 0.00652 0.90300
Cu	Cu	0.59746 0.34987 0.94174 0.90000
C 	C 	0.70920 0.32951 0.90145 0.29100
O 	O 	0.81746 0.48591 0.96713 -0.34900
C 	C 	0.67079 0.34972 0.07693 0.29100
O 	O 	0.62198 0.28261 0.96347 -0.63800
O 	O 	0.74933 0.37216 0.01313 -0.64200
O 	O 	0.82226 0.29442 0.97460 -0.35100
O 	O 	0.72086 0.20223 0.00413 -0.43100
O 	O 	0.67005 0.36773 0.90772 -0.37800
O 	O 	0.48527 0.24584 0.99790 -0.36600
C 	C 	0.43664 0.24664 0.97366 0.31300
C 	C 	0.77577 0.51953 0.97610 0.29800
O 	O 	0.69027 0.46532 0.97902 -0.37600
O 	O 	0.47421 0.29578 0.95185 -0.38000
O 	O 	0.75439 0.32093 0.92443 -0.34300
C 	C 	0.78055 0.21981 0.98607 0.30600
O 	O 	0.60835 0.32593 0.05192 -0.36400
O 	O 	0.74304 0.35369 0.07386 -0.40800
H 	H 	0.58278 0.21766 0.95461 0.17500
H 	H 	0.78717 0.43502 0.02453 0.19200
Cu	Cu	0.61171 0.18810 0.50514 0.93100
Cu	Cu	0.67060 0.19282 0.43574 0.87400
Cu	Cu	0.64801 0.32535 0.46395 0.90000
Cu	Cu	0.61605 0.35254 0.52951 0.90700
C 	C 	0.65451 0.25869 0.57199 0.29200
O 	O 	0.48073 0.13386 0.50849 -0.34600
C 	C 	0.61351 0.26589 0.39409 0.28800
O 	O 	0.68335 0.32687 0.50757 -0.63700
O 	O 	0.58943 0.19495 0.46009 -0.63900
O 	O 	0.66927 0.12745 0.50009 -0.35700
O 	O 	0.76264 0.22233 0.46949 -0.43100
O 	O 	0.61113 0.29289 0.56596 -0.35700
O 	O 	0.71329 0.45350 0.47013 -0.37500
C 	C 	0.71696 0.50293 0.49500 0.31100
C 	C 	0.44348 0.17128 0.49901 0.30100
O 	O 	0.49523 0.25384 0.49444 -0.38600
O 	O 	0.66099 0.46660 0.51516 -0.37000
O 	O 	0.65214 0.20406 0.54961 -0.33900
C 	C 	0.74452 0.16579 0.48853 0.31000
O 	O 	0.62737 0.32478 0.41801 -0.37400
O 	O 	0.60669 0.19447 0.39892 -0.41200
H 	H 	0.74989 0.36677 0.51570 0.18100
H 	H 	0.52482 0.15563 0.44923 0.17900
C 	C 	0.72216 0.31750 0.86874 -0.07200
C 	C 	0.75276 0.38668 0.85143 0.01900
C 	C 	0.75936 0.37351 0.81967 -0.05900
C 	C 	0.73544 0.29105 0.80489 0.03000
C 	C 	0.70708 0.22261 0.82241 -0.05600
C 	C 	0.70047 0.23582 0.85423 0.01700
C 	C 	0.73397 0.27453 0.77057 0.00500
C 	C 	0.65088 0.21116 0.74960 -0.03300
C 	C 	0.64719 0.20461 0.71680 -0.03400
C 	C 	0.72658 0.26138 0.70468 0.00600
C 	C 	0.81045 0.32152 0.72563 -0.03400
C 	C 	0.81413 0.32808 0.75845 -0.03300
C 	C 	0.72026 0.26432 0.67047 0.03100
C 	C 	0.74110 0.34175 0.66021 -0.05600
C 	C 	0.72368 0.34110 0.62786 0.01800
C 	C 	0.68506 0.26296 0.60544 -0.06500
C 	C 	0.66843 0.18680 0.61559 0.02500
C 	C 	0.68591 0.18751 0.64799 -0.05600
H 	H 	0.77059 0.45036 0.86250 0.04600
H 	H 	0.78114 0.42669 0.80633 0.05700
H 	H 	0.68860 0.15875 0.81123 0.05700
H 	H 	0.67593 0.18176 0.86726 0.05500
H 	H 	0.58866 0.16940 0.75871 0.04700
H 	H 	0.58214 0.15786 0.70083 0.05000
H 	H 	0.87225 0.36499 0.71650 0.04900
H 	H 	0.87876 0.37654 0.77445 0.05000
H 	H 	0.76797 0.40150 0.67737 0.05600
H 	H 	0.73804 0.40065 0.62028 0.04200
H 	H 	0.63878 0.12608 0.59855 0.06100
H 	H 	0.67038 0.12765 0.65566 0.05800
C 	C 	0.65570 0.36531 0.10921 -0.07500
C 	C 	0.72768 0.40713 0.13540 0.01500
C 	C 	0.71054 0.40786 0.16629 -0.06000
C 	C 	0.62153 0.36804 0.17138 0.02800
C 	C 	0.55079 0.33247 0.14529 -0.05600
C 	C 	0.56765 0.33080 0.11435 0.01500
C 	C 	0.60100 0.35464 0.20361 0.00500
C 	C 	0.53927 0.26766 0.20938 -0.03500
C 	C 	0.53090 0.25319 0.24049 -0.03500
C 	C 	0.58490 0.32537 0.26616 0.00400
C 	C 	0.64243 0.41288 0.26034 -0.03400
C 	C 	0.65014 0.42751 0.22918 -0.03400
C 	C 	0.58947 0.30835 0.29878 0.03000
C 	C 	0.61887 0.25775 0.30640 -0.06300
C 	C 	0.62544 0.24302 0.33735 0.01600
C 	C 	0.60301 0.27904 0.36115 -0.08300
C 	C 	0.57318 0.32949 0.35351 0.02000
C 	C 	0.56641 0.34402 0.32243 -0.06100
H 	H 	0.79644 0.43651 0.13188 0.04300
H 	H 	0.76587 0.43622 0.18624 0.05200
H 	H 	0.48213 0.30314 0.14895 0.05700
H 	H 	0.51161 0.29951 0.09446 0.06200
H 	H 	0.50065 0.21093 0.18986 0.04500
H 	H 	0.48527 0.18550 0.24472 0.04500
H 	H 	0.68387 0.46916 0.27998 0.04900
H 	H 	0.69679 0.49507 0.22497 0.04900
H 	H 	0.63765 0.23067 0.28839 0.05100
H 	H 	0.64952 0.20487 0.34294 0.03100
H 	H 	0.55503 0.35720 0.37154 0.04600
H 	H 	0.54336 0.38296 0.31675 0.05600
C 	C 	0.87116 0.75124 0.52761 -0.07000
C 	C 	0.86660 0.78492 0.50050 0.00200
C 	C 	0.81375 0.72588 0.47139 0.06000
C 	C 	0.76582 0.63371 0.46970 -0.00500
C 	C 	0.77128 0.59998 0.49674 -0.08900
C 	C 	0.82483 0.65926 0.52582 0.11400
N 	N 	0.83433 0.62639 0.55334 -0.02500
H 	H 	0.91302 0.79685 0.54989 0.07400
H 	H 	0.72417 0.58831 0.44736 0.06600
N 	N 	0.80936 0.75950 0.44342 -0.01800
O 	O 	0.86690 0.58157 0.55261 -0.11800
O 	O 	0.81684 0.64699 0.57980 -0.10200
O 	O 	0.88183 0.80817 0.43117 -0.07800
O 	O 	0.73160 0.73624 0.42897 -0.09200
C 	C 	0.87003 0.08472 0.52565 -0.07600
C 	C 	0.89705 0.06401 0.49913 0.00500
C 	C 	0.87826 0.08141 0.46956 0.05500
C 	C 	0.83110 0.11757 0.46664 -0.00600
C 	C 	0.80124 0.13552 0.49290 -0.10000
C 	C 	0.82308 0.12127 0.52279 0.12000
N 	N 	0.80017 0.14630 0.55042 -0.02200
H 	H 	0.88563 0.07256 0.54853 0.07200
H 	H 	0.81500 0.12889 0.44366 0.04000
N 	N 	0.90536 0.06067 0.44226 -0.02200
O 	O 	0.75188 0.08735 0.56764 -0.10100
O 	O 	0.83405 0.22956 0.55984 -0.09900
O 	O 	0.86972 0.97790 0.43079 -0.07100
O 	O 	0.96002 0.12370 0.42738 -0.09600
C 	C 	0.23170 0.10672 0.52880 -0.07300
C 	C 	0.16836 0.06833 0.50030 0.00400
C 	C 	0.19529 0.06159 0.47132 0.05800
C 	C 	0.28471 0.09168 0.47126 -0.00700
C 	C 	0.34741 0.12833 0.49984 -0.09300
C 	C 	0.32066 0.13573 0.52875 0.11400
N 	N 	0.38390 0.17295 0.55814 -0.02700
H 	H 	0.21084 0.11086 0.55115 0.07200
H 	H 	0.30576 0.08786 0.44892 0.05200
N 	N 	0.13144 0.02279 0.44197 -0.02200
O 	O 	0.40873 0.24724 0.57509 -0.10800
O 	O 	0.41045 0.12872 0.56924 -0.09100
O 	O 	0.09076 0.05686 0.43341 -0.08100
O 	O 	0.11774 0.95649 0.42299 -0.08300
C 	C 	0.84344 0.64858 0.94815 -0.01100
C 	C 	0.81740 0.61469 0.97598 -0.08600
C 	C 	0.81671 0.66697 0.00148 0.11100
C 	C 	0.84197 0.75218 0.99882 -0.06800
C 	C 	0.86872 0.78634 0.97108 0.00400
C 	C 	0.86743 0.73318 0.94532 0.05800
N 	N 	0.89053 0.76503 0.91622 -0.01800
H 	H 	0.84136 0.60766 0.92813 0.06300
H 	H 	0.84421 0.79318 0.01885 0.07900
N 	N 	0.79192 0.63439 0.03034 -0.02300
O 	O 	0.94878 0.76129 0.90314 -0.08900
O 	O 	0.84994 0.79354 0.90199 -0.08900
O 	O 	0.83530 0.61030 0.04580 -0.11200
O 	O 	0.73008 0.63436 0.04222 -0.09300
C 	C 	0.83612 0.07243 0.94757 -0.07400
C 	C 	0.86052 0.04846 0.97424 0.00600
C 	C 	0.85420 0.07736 0.00455 0.05200
C 	C 	0.82771 0.13293 0.00807 -0.00600
C 	C 	0.80734 0.16029 0.98160 -0.09700
C 	C 	0.80845 0.12720 0.95105 0.11900
N 	N 	0.77726 0.14524 0.92345 -0.02200
H 	H 	0.83986 0.04957 0.92415 0.07800
H 	H 	0.82481 0.15632 0.03155 0.03900
N 	N 	0.87684 0.05218 0.03195 -0.01800
O 	O 	0.83023 0.18294 0.90310 -0.09700
O 	O 	0.69346 0.11732 0.91735 -0.11000
O 	O 	0.96118 0.08594 0.04250 -0.10700
O 	O 	0.81418 0.00101 0.04776 -0.10600
C 	C 	0.20919 0.15309 0.99713 -0.07400
C 	C 	0.14926 0.09020 0.96969 0.00500
C 	C 	0.18380 0.08217 0.94293 0.05600
C 	C 	0.27806 0.13495 0.94431 -0.00700
C 	C 	0.33813 0.19615 0.97206 -0.09200
C 	C 	0.30340 0.20673 0.99839 0.12000
N 	N 	0.36354 0.27286 0.02623 -0.02300
H 	H 	0.18252 0.16024 0.01754 0.07800
H 	H 	0.30461 0.12769 0.92388 0.05500
N 	N 	0.12330 0.01999 0.91439 -0.02100
O 	O 	0.42045 0.35660 0.02402 -0.09200
O 	O 	0.35562 0.25052 0.05406 -0.10200
O 	O 	0.06209 0.02523 0.90014 -0.09100
O 	O 	0.13310 0.96173 0.90161 -0.08200
