data_crystal

_cell_length_a 26.07561
_cell_length_b 26.52184
_cell_length_c 26.75882
_cell_angle_alpha 95.50434
_cell_angle_beta  95.50366
_cell_angle_gamma 125.83459

_symmetry_space_group_name_	'P 1'
_symmetry_space_group_name_H-M	'P 1'

loop_
_symmetry_equiv_pos_as_xyz
  x,y,z

loop_
_atom_site_label
_atom_site_type_symbol
_atom_site_fract_x
_atom_site_fract_y
_atom_site_fract_z
_atom_site_charge
C 	C 	0.98585 0.04459 0.99512 0.14200
C 	C 	0.95007 0.97839 0.98690 -0.08700
C 	C 	0.98087 0.94980 0.98018 0.14500
C 	C 	0.04743 0.98742 0.98169 -0.10600
C 	C 	0.08335 0.05350 0.98999 0.14300
C 	C 	0.05263 0.08213 0.99689 -0.11000
H 	H 	0.89851 0.94928 0.98570 0.11500
H 	H 	0.07133 0.96534 0.97681 0.11200
H 	H 	0.08040 0.13329 0.00316 0.10100
C 	C 	0.91350 0.98473 0.43970 0.14600
C 	C 	0.98068 0.01962 0.44604 -0.10100
C 	C 	0.00966 0.98888 0.44949 0.14000
C 	C 	0.97139 0.92320 0.44688 -0.10500
C 	C 	0.90435 0.88821 0.44113 0.14200
C 	C 	0.87529 0.91891 0.43731 -0.09800
H 	H 	0.01029 0.07052 0.44838 0.11100
H 	H 	0.99374 0.89935 0.44949 0.10800
H 	H 	0.82340 0.89189 0.43293 0.10900
Cu	Cu	0.67082 0.27380 0.01806 0.93500
Cu	Cu	0.69743 0.24228 0.90598 0.88900
Cu	Cu	0.70289 0.35709 0.93694 0.90800
Cu	Cu	0.68457 0.40066 0.03894 0.91600
C 	C 	0.68806 0.33121 0.12049 0.30600
O 	O 	0.57958 0.24105 0.02308 -0.34200
C 	C 	0.66493 0.29020 0.82928 0.30400
O 	O 	0.72534 0.36913 0.00948 -0.63800
O 	O 	0.65248 0.26567 0.94310 -0.63500
O 	O 	0.70672 0.22497 0.02140 -0.32200
O 	O 	0.76560 0.26884 0.96002 -0.42600
O 	O 	0.69634 0.38265 0.10854 -0.35000
O 	O 	0.75542 0.44707 0.93706 -0.35500
C 	C 	0.75163 0.48752 0.96610 0.34300
C 	C 	0.55524 0.26945 0.00722 0.33200
O 	O 	0.59207 0.32369 0.99245 -0.33700
O 	O 	0.71107 0.46892 0.99826 -0.33700
O 	O 	0.69975 0.29786 0.09045 -0.33300
C 	C 	0.75419 0.23820 0.99806 0.34200
O 	O 	0.69647 0.34485 0.86171 -0.35000
O 	O 	0.65025 0.23854 0.84515 -0.39100
H 	H 	0.77230 0.39498 0.02254 0.18200
H 	H 	0.60618 0.24125 0.92806 0.19200
Cu	Cu	0.71019 0.32130 0.43290 0.93300
Cu	Cu	0.73085 0.28600 0.54308 0.89300
Cu	Cu	0.61888 0.28757 0.50919 0.90800
Cu	Cu	0.57829 0.30176 0.40396 0.91600
C 	C 	0.65800 0.30561 0.32833 0.30900
O 	O 	0.74183 0.41104 0.42951 -0.34500
C 	C 	0.67386 0.30825 0.61757 0.30200
O 	O 	0.61139 0.26430 0.43715 -0.63500
O 	O 	0.71296 0.33575 0.50731 -0.63400
O 	O 	0.76138 0.28745 0.43214 -0.35300
O 	O 	0.70799 0.22256 0.48724 -0.39100
O 	O 	0.60253 0.29252 0.33682 -0.34900
O 	O 	0.52672 0.23478 0.50667 -0.34300
C 	C 	0.48474 0.22984 0.47085 0.34500
C 	C 	0.70845 0.43163 0.44089 0.33600
O 	O 	0.65169 0.39301 0.45265 -0.34600
O 	O 	0.50346 0.26997 0.43904 -0.35200
O 	O 	0.69206 0.29597 0.36022 -0.33600
C 	C 	0.74280 0.23684 0.45150 0.34300
O 	O 	0.62813 0.30145 0.58449 -0.34200
O 	O 	0.72883 0.32579 0.60493 -0.37900
H 	H 	0.58690 0.21817 0.42484 0.19000
H 	H 	0.73856 0.38084 0.52399 0.19000
C 	C 	0.67080 0.25303 0.74268 -0.03000
C 	C 	0.65931 0.28992 0.77371 -0.07100
C 	C 	0.64601 0.32835 0.75168 0.13000
C 	C 	0.64956 0.33321 0.70019 -0.02200
C 	C 	0.66443 0.29871 0.67013 -0.07200
C 	C 	0.67248 0.25656 0.69110 0.12900
Br	Br	0.68326 0.20139 0.64940 -0.22900
H 	H 	0.67955 0.22222 0.75888 0.07400
H 	H 	0.64116 0.36410 0.68371 0.09100
Br	Br	0.61835 0.37071 0.78977 -0.15400
C 	C 	0.62806 0.25827 0.23622 -0.02200
C 	C 	0.67034 0.31047 0.27591 -0.06500
C 	C 	0.72128 0.36813 0.26462 0.12800
C 	C 	0.72808 0.37369 0.21378 -0.02400
C 	C 	0.68421 0.32225 0.17385 -0.06400
C 	C 	0.63463 0.26384 0.18534 0.12900
Br	Br	0.57346 0.19195 0.13220 -0.16300
H 	H 	0.58912 0.21364 0.24482 0.08700
H 	H 	0.76689 0.41844 0.20525 0.08700
Br	Br	0.78062 0.44059 0.31776 -0.17100
C 	C 	0.82729 0.73255 0.48566 -0.11600
C 	C 	0.81005 0.69145 0.43967 0.00600
C 	C 	0.81818 0.71406 0.39353 0.31500
C 	C 	0.84555 0.77787 0.39372 -0.08800
C 	C 	0.86499 0.81949 0.43994 -0.07500
C 	C 	0.85468 0.79636 0.48584 0.34300
C 	C 	0.78425 0.62498 0.43997 0.02500
F 	F 	0.80116 0.67458 0.34874 -0.40400
H 	H 	0.85356 0.79543 0.35818 0.12200
F 	F 	0.87322 0.83620 0.53078 -0.41600
H 	H 	0.82043 0.71525 0.52133 0.13100
C 	C 	0.82548 0.60983 0.45707 0.29600
C 	C 	0.80075 0.54666 0.45722 -0.04700
C 	C 	0.73464 0.49820 0.44048 -0.13500
C 	C 	0.69357 0.51349 0.42288 0.37800
C 	C 	0.71835 0.57661 0.42284 -0.13500
F 	F 	0.88949 0.65628 0.47330 -0.40100
H 	H 	0.83288 0.53547 0.47072 0.10500
F 	F 	0.62994 0.46708 0.40474 -0.43300
H 	H 	0.68637 0.58795 0.40928 0.13600
C 	C 	0.74469 0.09593 0.42471 -0.14400
C 	C 	0.81061 0.12581 0.42672 0.02200
C 	C 	0.85274 0.19171 0.42983 0.30400
C 	C 	0.82959 0.22777 0.43423 -0.05300
C 	C 	0.76434 0.19830 0.43582 -0.14000
C 	C 	0.72154 0.13192 0.42916 0.37900
C 	C 	0.83612 0.08888 0.43008 0.00600
F 	F 	0.91640 0.22097 0.43040 -0.39600
H 	H 	0.86291 0.27884 0.43881 0.10500
F 	F 	0.65779 0.10246 0.42836 -0.42600
H 	H 	0.71172 0.04501 0.42142 0.12900
C 	C 	0.86838 0.09289 0.47718 0.32100
C 	C 	0.89202 0.05746 0.48047 -0.09000
C 	C 	0.88353 0.01762 0.43684 -0.07600
C 	C 	0.85037 0.01281 0.38988 0.34400
C 	C 	0.82668 0.04828 0.38659 -0.12300
F 	F 	0.87671 0.13109 0.51972 -0.40400
H 	H 	0.91752 0.06140 0.51682 0.11500
F 	F 	0.84222 0.97474 0.34733 -0.41000
H 	H 	0.80138 0.04455 0.35022 0.12800
C 	C 	0.17879 0.08847 0.42270 -0.11400
C 	C 	0.21365 0.08895 0.46634 0.00500
C 	C 	0.18171 0.05834 0.50522 0.31300
C 	C 	0.11532 0.02694 0.50015 -0.09000
C 	C 	0.08026 0.02546 0.45608 -0.07600
C 	C 	0.11232 0.05656 0.41740 0.34400
C 	C 	0.28350 0.12141 0.47108 0.02600
F 	F 	0.21487 0.05826 0.54751 -0.40500
H 	H 	0.09095 0.00316 0.53020 0.11700
F 	F 	0.07885 0.05474 0.37427 -0.41200
H 	H 	0.20320 0.11237 0.39271 0.13500
C 	C 	0.30685 0.09911 0.43706 0.29300
C 	C 	0.37310 0.13337 0.43854 -0.05100
C 	C 	0.41645 0.18963 0.47430 -0.13600
C 	C 	0.39331 0.21055 0.50970 0.38400
C 	C 	0.32702 0.17663 0.50796 -0.13500
F 	F 	0.26526 0.04489 0.40204 -0.40200
H 	H 	0.39070 0.11691 0.41119 0.09500
F 	F 	0.43494 0.26493 0.54457 -0.41700
H 	H 	0.30940 0.19401 0.53447 0.14100
C 	C 	0.88725 0.78344 0.00646 -0.12300
C 	C 	0.88087 0.74950 0.95979 0.00700
C 	C 	0.90531 0.78103 0.91920 0.32400
C 	C 	0.93662 0.84631 0.92553 -0.08900
C 	C 	0.94369 0.88043 0.97244 -0.07100
C 	C 	0.91861 0.84868 0.01284 0.34200
C 	C 	0.84785 0.68085 0.95349 0.02700
F 	F 	0.89888 0.74846 0.87376 -0.39600
H 	H 	0.95591 0.87052 0.89420 0.12600
F 	F 	0.92583 0.88130 0.05857 -0.41700
H 	H 	0.86826 0.75926 0.03787 0.12700
C 	C 	0.88344 0.65722 0.96183 0.30100
C 	C 	0.85163 0.59287 0.96284 -0.05300
C 	C 	0.78423 0.55200 0.95594 -0.13400
C 	C 	0.74862 0.57507 0.94462 0.38300
C 	C 	0.78041 0.63928 0.94350 -0.14300
F 	F 	0.94880 0.69700 0.97084 -0.39600
H 	H 	0.87942 0.57532 0.97110 0.10000
F 	F 	0.68325 0.53544 0.93580 -0.41200
H 	H 	0.75268 0.65711 0.93631 0.13500
C 	C 	0.87852 0.09408 0.96525 -0.12200
C 	C 	0.88988 0.13033 0.01242 0.00200
C 	C 	0.93296 0.13856 0.05395 0.32400
C 	C 	0.96448 0.11070 0.04819 -0.08900
C 	C 	0.95314 0.07449 0.00096 -0.07600
C 	C 	0.91008 0.06636 0.95945 0.34400
C 	C 	0.85784 0.16092 0.01767 0.02600
F 	F 	0.94423 0.17349 0.09978 -0.39600
H 	H 	0.99751 0.11705 0.08043 0.11700
F 	F 	0.89933 0.03211 0.91340 -0.41800
H 	H 	0.84558 0.08784 0.93299 0.12100
C 	C 	0.89061 0.22484 0.01381 0.29800
C 	C 	0.85737 0.25121 0.01072 -0.05200
C 	C 	0.79111 0.21393 0.01135 -0.14600
C 	C 	0.75919 0.15095 0.01828 0.37600
C 	C 	0.79253 0.12463 0.02135 -0.14600
F 	F 	0.95403 0.26062 0.01089 -0.39900
H 	H 	0.88265 0.30007 0.00616 0.10100
F 	F 	0.69518 0.11421 0.01910 -0.42500
H 	H 	0.76708 0.07538 0.02474 0.13100
C 	C 	0.39962 0.24881 0.01172 -0.13700
C 	C 	0.35452 0.18276 0.99959 0.02700
C 	C 	0.37535 0.14505 0.99017 0.29500
C 	C 	0.44091 0.17339 0.99269 -0.04700
C 	C 	0.48616 0.23960 0.00460 -0.13700
C 	C 	0.46517 0.27722 0.01447 0.37900
C 	C 	0.28553 0.15315 0.99696 0.00800
F 	F 	0.33206 0.08099 0.97883 -0.40100
H 	H 	0.45647 0.14392 0.98505 0.10800
F 	F 	0.50839 0.34118 0.02785 -0.42700
H 	H 	0.38386 0.27813 0.01926 0.13800
C 	C 	0.26146 0.15202 0.04192 0.31200
C 	C 	0.19557 0.12187 0.03937 -0.09000
C 	C 	0.15333 0.09253 0.99196 -0.07500
C 	C 	0.17768 0.09525 0.94690 0.34500
C 	C 	0.24357 0.12552 0.94944 -0.11600
F 	F 	0.30171 0.17886 0.08810 -0.40600
H 	H 	0.17707 0.11981 0.07428 0.11400
F 	F 	0.13725 0.06746 0.90080 -0.41300
H 	H 	0.26195 0.12689 0.91456 0.13300
