data_crystal

_cell_length_a 26.19345
_cell_length_b 26.39108
_cell_length_c 33.53169
_cell_angle_alpha 95.49378
_cell_angle_beta  95.48918
_cell_angle_gamma 125.83188

_symmetry_space_group_name_	'P 1'
_symmetry_space_group_name_H-M	'P 1'

loop_
_symmetry_equiv_pos_as_xyz
  x,y,z

loop_
_atom_site_label
_atom_site_type_symbol
_atom_site_fract_x
_atom_site_fract_y
_atom_site_fract_z
_atom_site_charge
C 	C 	0.97916 0.04862 0.00256 0.24800
N 	N 	0.04206 0.08431 0.99919 -0.08800
C 	C 	0.07289 0.05716 0.99731 0.27300
N 	N 	0.04074 0.99442 0.99849 -0.08700
C 	C 	0.97775 0.95838 0.00092 0.26700
N 	N 	0.94723 0.98568 0.00347 -0.08800
C 	C 	0.91860 0.97643 0.45298 0.31400
N 	N 	0.98168 0.01023 0.45053 -0.13400
C 	C 	0.01298 0.98389 0.45535 0.33400
N 	N 	0.98088 0.92346 0.46219 -0.11800
C 	C 	0.91764 0.88908 0.46397 0.28800
N 	N 	0.88651 0.91571 0.45958 -0.10700
Cu	Cu	0.65311 0.26501 0.01063 0.93700
Cu	Cu	0.68401 0.25238 0.91933 0.90700
Cu	Cu	0.68083 0.35859 0.95305 0.91500
Cu	Cu	0.66340 0.38879 0.03755 0.91900
C 	C 	0.69277 0.32640 0.09477 0.26400
O 	O 	0.56265 0.23244 0.01666 -0.31100
C 	C 	0.64713 0.30482 0.86410 0.26700
O 	O 	0.70616 0.36312 0.00976 -0.63600
O 	O 	0.63445 0.26526 0.95197 -0.63100
O 	O 	0.68960 0.21651 0.00573 -0.32300
O 	O 	0.75089 0.27486 0.96158 -0.38500
O 	O 	0.66228 0.35116 0.08659 -0.33100
O 	O 	0.73090 0.45009 0.95798 -0.33500
C 	C 	0.73592 0.48924 0.98854 0.41400
C 	C 	0.53726 0.25966 0.00293 0.37200
O 	O 	0.57445 0.31756 0.99557 -0.33700
O 	O 	0.69752 0.46808 0.01539 -0.34000
O 	O 	0.68458 0.28097 0.06799 -0.29900
C 	C 	0.73894 0.23689 0.98760 0.39500
O 	O 	0.66955 0.35454 0.89311 -0.31800
O 	O 	0.63655 0.25222 0.87275 -0.36300
H 	H 	0.75312 0.38973 0.01948 0.20000
H 	H 	0.58837 0.23938 0.93959 0.21200
Cu	Cu	0.71559 0.31376 0.44710 0.93900
Cu	Cu	0.72135 0.27142 0.53534 0.90000
Cu	Cu	0.61434 0.27469 0.50049 0.91400
Cu	Cu	0.59252 0.30567 0.41831 0.92200
C 	C 	0.67907 0.30967 0.36307 0.27100
O 	O 	0.75299 0.40606 0.44656 -0.32000
C 	C 	0.66195 0.30134 0.58957 0.26600
O 	O 	0.61596 0.25982 0.44377 -0.63500
O 	O 	0.70941 0.32360 0.50526 -0.63200
O 	O 	0.76329 0.27630 0.44953 -0.31900
O 	O 	0.70281 0.20927 0.49092 -0.39000
O 	O 	0.62631 0.30436 0.36717 -0.32300
O 	O 	0.52173 0.22304 0.49133 -0.32400
C 	C 	0.48654 0.22795 0.46330 0.39300
C 	C 	0.72314 0.42983 0.45747 0.38600
O 	O 	0.66367 0.39189 0.46255 -0.34400
O 	O 	0.51334 0.27350 0.44154 -0.32300
O 	O 	0.70436 0.29237 0.38937 -0.31600
C 	C 	0.74169 0.22465 0.46483 0.39800
O 	O 	0.61215 0.27464 0.55941 -0.32200
O 	O 	0.71612 0.31227 0.58310 -0.36500
H 	H 	0.59040 0.21423 0.43112 0.20600
H 	H 	0.73344 0.36821 0.51966 0.21000
C 	C 	0.69124 0.32454 0.69586 0.10400
C 	C 	0.71910 0.35952 0.73588 -0.06300
C 	C 	0.68942 0.32802 0.76723 0.03300
C 	C 	0.62995 0.26938 0.75886 0.10400
C 	C 	0.59746 0.23894 0.71852 -0.06300
C 	C 	0.63204 0.26542 0.68749 0.03400
N 	N 	0.70331 0.35087 0.66237 -0.14900
C 	C 	0.65301 0.30779 0.63188 0.04900
C 	C 	0.60616 0.25537 0.64716 -0.03000
N 	N 	0.60082 0.25994 0.79114 -0.14900
C 	C 	0.64268 0.31142 0.82113 0.04900
C 	C 	0.69701 0.35641 0.80628 -0.03100
H 	H 	0.76009 0.40924 0.74209 0.09900
H 	H 	0.54734 0.19830 0.71164 0.10100
H 	H 	0.56800 0.20916 0.62892 0.09600
H 	H 	0.74281 0.39492 0.82502 0.08900
H 	H 	0.74882 0.38820 0.65828 0.13300
H 	H 	0.56264 0.21544 0.79576 0.13500
C 	C 	0.72959 0.31208 0.19562 0.11300
C 	C 	0.70281 0.26993 0.22299 -0.06400
C 	C 	0.68759 0.28898 0.25751 0.03900
C 	C 	0.70008 0.34818 0.26525 0.11300
C 	C 	0.72796 0.39086 0.23851 -0.06700
C 	C 	0.74329 0.37207 0.20382 0.04600
N 	N 	0.71796 0.29213 0.15507 -0.14600
C 	C 	0.72359 0.33862 0.13723 0.05200
C 	C 	0.73948 0.38907 0.16657 -0.03500
N 	N 	0.70798 0.36684 0.30549 -0.15000
C 	C 	0.69998 0.31974 0.32370 0.05700
C 	C 	0.68891 0.27119 0.29483 -0.03100
H 	H 	0.69282 0.22358 0.21706 0.10600
H 	H 	0.73775 0.43711 0.24455 0.10700
H 	H 	0.72879 0.42210 0.16132 0.09100
H 	H 	0.66949 0.22338 0.29932 0.09700
H 	H 	0.69025 0.24428 0.14087 0.15200
H 	H 	0.70737 0.40390 0.31883 0.14800
C 	C 	0.88286 0.74262 0.49990 0.25300
C 	C 	0.82919 0.69423 0.47054 -0.00200
C 	C 	0.80034 0.70993 0.44183 0.25300
C 	C 	0.82708 0.77377 0.44109 0.30700
C 	C 	0.88270 0.82239 0.46924 -0.13700
C 	C 	0.90926 0.80640 0.49944 0.30700
C 	C 	0.80511 0.62741 0.46859 0.00700
F 	F 	0.74739 0.66333 0.41398 -0.32200
F 	F 	0.96155 0.85284 0.52779 -0.33200
C 	C 	0.77047 0.59325 0.49771 0.23700
C 	C 	0.74628 0.52944 0.49523 0.31800
C 	C 	0.75584 0.49900 0.46325 -0.20700
C 	C 	0.79196 0.53379 0.43472 0.31800
C 	C 	0.81670 0.59778 0.43752 0.23400
F 	F 	0.75966 0.62172 0.52814 -0.31800
F 	F 	0.80097 0.50493 0.40340 -0.37200
F 	F 	0.71335 0.49708 0.52381 -0.36800
F 	F 	0.85125 0.63086 0.40970 -0.32400
F 	F 	0.91045 0.72786 0.52820 -0.31900
F 	F 	0.80074 0.78843 0.41183 -0.33100
C 	C 	0.85331 0.17934 0.45617 0.23500
C 	C 	0.80975 0.11262 0.44771 0.00700
C 	C 	0.74360 0.08304 0.44143 0.23500
C 	C 	0.72121 0.11981 0.44527 0.32000
C 	C 	0.76483 0.18653 0.45526 -0.21100
C 	C 	0.83096 0.21617 0.45979 0.31800
C 	C 	0.83351 0.07381 0.44765 -0.00200
F 	F 	0.70107 0.01860 0.43229 -0.32200
F 	F 	0.87366 0.28056 0.46954 -0.36200
C 	C 	0.83130 0.04464 0.48103 0.25200
C 	C 	0.85719 0.01096 0.48215 0.29700
C 	C 	0.88586 0.00648 0.45000 -0.15600
C 	C 	0.88675 0.03445 0.41619 0.31200
C 	C 	0.86053 0.06784 0.41498 0.25200
F 	F 	0.80536 0.05022 0.51280 -0.32900
F 	F 	0.91315 0.02934 0.38455 -0.33700
F 	F 	0.85646 0.98458 0.51513 -0.32200
F 	F 	0.86190 0.09494 0.38227 -0.31900
F 	F 	0.91737 0.20839 0.46210 -0.32000
F 	F 	0.65714 0.09064 0.43967 -0.36400
C 	C 	0.17136 0.02441 0.43530 0.21200
C 	C 	0.21416 0.08807 0.45550 0.01500
C 	C 	0.19052 0.11849 0.47401 0.24100
C 	C 	0.12474 0.08491 0.47342 0.32600
C 	C 	0.08183 0.02088 0.45356 -0.18500
C 	C 	0.10547 0.99122 0.43384 0.35600
C 	C 	0.28380 0.12278 0.45746 -0.00000
F 	F 	0.23146 0.18045 0.49290 -0.31200
F 	F 	0.06451 0.93027 0.41312 -0.33400
C 	C 	0.30968 0.13815 0.42192 0.24200
C 	C 	0.37553 0.17054 0.42366 0.31800
C 	C 	0.41649 0.18944 0.46121 -0.19500
C 	C 	0.39041 0.17388 0.49683 0.32100
C 	C 	0.32430 0.14010 0.49482 0.24000
F 	F 	0.27093 0.12182 0.38568 -0.31500
F 	F 	0.42922 0.19293 0.53352 -0.35800
F 	F 	0.39957 0.18330 0.38880 -0.36400
F 	F 	0.29953 0.12447 0.52924 -0.32100
F 	F 	0.19375 0.99458 0.41734 -0.29700
F 	F 	0.10292 0.11402 0.49315 -0.33400
C 	C 	0.91716 0.78875 0.96583 0.25600
C 	C 	0.87541 0.75746 0.99276 -0.00100
C 	C 	0.86628 0.79200 0.02190 0.25300
C 	C 	0.89951 0.85761 0.02454 0.30000
C 	C 	0.94159 0.88908 0.99769 -0.12400
C 	C 	0.94966 0.85413 0.96801 0.30100
C 	C 	0.84157 0.68859 0.99062 0.01300
F 	F 	0.82537 0.76191 0.04776 -0.31600
F 	F 	0.98834 0.88344 0.94090 -0.31700
C 	C 	0.85942 0.66637 0.02139 0.23300
C 	C 	0.82597 0.60101 0.02005 0.31800
C 	C 	0.77506 0.55742 0.98766 -0.20400
C 	C 	0.75832 0.57962 0.95630 0.32800
C 	C 	0.79123 0.64498 0.95789 0.23600
F 	F 	0.90891 0.70821 0.05270 -0.32000
F 	F 	0.70882 0.53777 0.92499 -0.35200
F 	F 	0.84268 0.57991 0.05037 -0.37400
F 	F 	0.77357 0.66604 0.92804 -0.31400
F 	F 	0.92630 0.75571 0.93760 -0.31800
F 	F 	0.89184 0.89084 0.05368 -0.32800
C 	C 	0.84819 0.06887 0.98116 0.26200
C 	C 	0.87780 0.13041 0.00317 -0.01200
C 	C 	0.94047 0.16481 0.02560 0.25900
C 	C 	0.97353 0.13809 0.02569 0.28600
C 	C 	0.94448 0.07705 0.00275 -0.12600
C 	C 	0.88157 0.04266 0.98044 0.28700
C 	C 	0.84491 0.16050 0.00005 0.00300
F 	F 	0.96960 0.22446 0.04689 -0.32100
F 	F 	0.85337 0.98444 0.95722 -0.31700
C 	C 	0.82073 0.16996 0.03331 0.23700
C 	C 	0.78656 0.19536 0.02947 0.31600
C 	C 	0.77542 0.21054 0.99207 -0.20300
C 	C 	0.79975 0.20089 0.95883 0.31500
C 	C 	0.83503 0.17692 0.96305 0.23900
F 	F 	0.82992 0.15406 0.06922 -0.32100
F 	F 	0.78782 0.21324 0.92209 -0.39100
F 	F 	0.76501 0.20593 0.06219 -0.36400
F 	F 	0.85888 0.16865 0.93089 -0.32700
F 	F 	0.78735 0.03497 0.95975 -0.32600
F 	F 	0.03341 0.17116 0.04841 -0.31100
C 	C 	0.25273 0.17813 0.02062 0.25100
C 	C 	0.27031 0.15182 0.99154 -0.00000
C 	C 	0.22275 0.09903 0.96146 0.25400
C 	C 	0.15804 0.07093 0.96156 0.30100
C 	C 	0.14022 0.09464 0.99221 -0.13000
C 	C 	0.18787 0.14951 0.02104 0.29900
C 	C 	0.33821 0.17766 0.99371 0.00900
F 	F 	0.23927 0.07385 0.93284 -0.31900
F 	F 	0.17134 0.17332 0.05056 -0.32100
C 	C 	0.36914 0.16751 0.02497 0.23300
C 	C 	0.43359 0.19225 0.02721 0.31200
C 	C 	0.46751 0.22681 0.99788 -0.19200
C 	C 	0.43573 0.23493 0.96577 0.31400
C 	C 	0.37160 0.21102 0.96395 0.23900
F 	F 	0.33677 0.13401 0.05335 -0.32300
F 	F 	0.46711 0.26611 0.93635 -0.36600
F 	F 	0.46364 0.18453 0.05867 -0.35800
F 	F 	0.34191 0.22054 0.93338 -0.31700
F 	F 	0.29848 0.23038 0.04908 -0.31900
F 	F 	0.11244 0.01954 0.93248 -0.32000
