data_crystal

_cell_length_a 22.67357
_cell_length_b 24.16286
_cell_length_c 35.22202
_cell_angle_alpha 89.99809
_cell_angle_beta  90.00383
_cell_angle_gamma 92.64194

_symmetry_space_group_name_	'P 1'
_symmetry_space_group_name_H-M	'P 1'

loop_
_symmetry_equiv_pos_as_xyz
  x,y,z

loop_
_atom_site_label
_atom_site_type_symbol
_atom_site_fract_x
_atom_site_fract_y
_atom_site_fract_z
_atom_site_charge
C 	C 	0.92236 0.88285 0.98901 0.12100
N 	N 	0.97611 0.90856 0.98627 -0.16800
C 	C 	0.00218 0.88767 0.95542 0.10600
C 	C 	0.06695 0.88758 0.95161 -0.06000
C 	C 	0.10164 0.94031 0.94561 0.09500
C 	C 	0.09768 0.83596 0.95839 0.03700
C 	C 	0.09351 0.80995 0.99396 0.00300
C 	C 	0.13133 0.76792 0.00311 -0.03900
C 	C 	0.17314 0.75126 0.97662 0.05300
C 	C 	0.13699 0.81693 0.93111 -0.02600
N 	N 	0.07628 0.98823 0.93735 -0.12000
C 	C 	0.15872 0.95012 0.95872 -0.04300
C 	C 	0.11786 0.02867 0.94451 0.10200
C 	C 	0.10321 0.08729 0.94980 -0.06500
C 	C 	0.15060 0.13001 0.95705 0.05000
C 	C 	0.23684 0.18439 0.93561 0.00500
C 	C 	0.15352 0.15746 0.99213 -0.02800
C 	C 	0.19809 0.19807 0.99899 0.01500
C 	C 	0.24036 0.21115 0.97094 0.03000
N 	N 	0.99924 0.07650 0.97077 -0.17100
C 	C 	0.95478 0.11127 0.97422 0.12100
C 	C 	0.96805 0.16032 0.95503 -0.05400
C 	C 	0.02313 0.15489 0.93907 -0.05100
C 	C 	0.90694 0.10352 0.00278 -0.07800
C 	C 	0.86161 0.14510 0.00595 0.04900
C 	C 	0.77949 0.19208 0.97861 0.02200
C 	C 	0.77473 0.22340 0.01189 0.01100
C 	C 	0.81524 0.21717 0.04154 0.00800
C 	C 	0.85879 0.17833 0.03846 -0.04200
N 	N 	0.89579 0.00123 0.00008 -0.12400
C 	C 	0.86134 0.98303 0.05895 -0.05000
C 	C 	0.87421 0.96151 0.02373 0.10200
C 	C 	0.87570 0.90184 0.01480 -0.07400
C 	C 	0.82631 0.86299 0.02682 0.05500
C 	C 	0.76799 0.88036 0.02699 -0.03800
C 	C 	0.72097 0.84216 0.03346 -0.00300
C 	C 	0.73135 0.78577 0.03816 0.04000
C 	C 	0.78964 0.76875 0.03984 -0.00100
C 	C 	0.83694 0.80746 0.03530 -0.03800
C 	C 	0.91265 0.84701 0.95885 -0.05300
C 	C 	0.96414 0.84914 0.93774 -0.04200
C 	C 	0.17491 0.77503 0.94030 -0.00700
C 	C 	0.16910 0.00665 0.95801 -0.04700
C 	C 	0.04090 0.10283 0.94935 0.10900
C 	C 	0.87437 0.03920 0.05658 -0.04600
C 	C 	0.89585 0.04852 0.02025 0.10100
C 	C 	0.82201 0.15230 0.97596 -0.02700
H 	H 	0.99830 0.92908 0.00857 0.09400
H 	H 	0.00793 0.04522 0.99021 0.10800
H 	H 	0.67613 0.85575 0.03226 0.09200
H 	H 	0.79825 0.72525 0.04289 0.09800
H 	H 	0.75885 0.92294 0.02055 0.07700
H 	H 	0.88173 0.79377 0.03649 0.07000
H 	H 	0.12970 0.74976 0.03124 0.09000
H 	H 	0.14004 0.83641 0.90343 0.07300
H 	H 	0.20722 0.76251 0.91972 0.09200
H 	H 	0.06304 0.82418 0.01514 0.04700
H 	H 	0.19996 0.21923 0.02610 0.06900
H 	H 	0.12124 0.14732 0.01403 0.05500
C 	C 	0.19237 0.14361 0.92880 -0.03700
H 	H 	0.26870 0.19502 0.91357 0.08400
H 	H 	0.74955 0.19790 0.95513 0.08700
H 	H 	0.82445 0.12727 0.95053 0.07600
H 	H 	0.89004 0.17380 0.06139 0.06800
H 	H 	0.81247 0.24191 0.06707 0.07600
H 	H 	0.87799 0.81479 0.95710 0.07800
H 	H 	0.97784 0.81632 0.91926 0.08100
H 	H 	0.18193 0.92232 0.97694 0.07500
H 	H 	0.20145 0.02873 0.97565 0.09100
H 	H 	0.94921 0.19963 0.96138 0.07300
H 	H 	0.05274 0.18945 0.93125 0.07000
H 	H 	0.83453 0.96254 0.08066 0.08200
H 	H 	0.85715 0.07015 0.07523 0.07900
H 	H 	0.19012 0.12287 0.90154 0.07400
C 	C 	0.96803 0.88890 0.47788 0.11500
N 	N 	0.01574 0.92237 0.48551 -0.17300
C 	C 	0.06336 0.89259 0.47862 0.10900
C 	C 	0.12247 0.90778 0.49452 -0.06700
C 	C 	0.14611 0.96570 0.49233 0.09900
C 	C 	0.16123 0.86418 0.50778 0.05600
C 	C 	0.14305 0.82857 0.53746 -0.04100
C 	C 	0.17864 0.78572 0.54867 0.00600
C 	C 	0.23317 0.77905 0.53084 0.02800
C 	C 	0.21576 0.85739 0.48999 -0.03800
N 	N 	0.12858 0.00206 0.46615 -0.12000
C 	C 	0.18143 0.99141 0.51963 -0.04900
C 	C 	0.15387 0.05139 0.47655 0.09700
C 	C 	0.13353 0.10452 0.46190 -0.06900
C 	C 	0.17516 0.15344 0.46047 0.05500
C 	C 	0.25655 0.20434 0.42954 0.00200
C 	C 	0.18021 0.18955 0.49159 -0.04000
C 	C 	0.22448 0.23187 0.49221 0.00500
C 	C 	0.26303 0.23932 0.46124 0.03100
N 	N 	0.02584 0.08066 0.46066 -0.17300
C 	C 	0.97844 0.10224 0.44425 0.11400
C 	C 	0.99627 0.14221 0.41781 -0.04500
C 	C 	0.05729 0.14519 0.41851 -0.05200
C 	C 	0.91932 0.09915 0.46232 -0.06600
C 	C 	0.88402 0.14912 0.46475 0.05400
C 	C 	0.79180 0.19402 0.45460 0.00600
C 	C 	0.81715 0.24379 0.46894 0.03200
C 	C 	0.87571 0.24575 0.48192 0.00100
C 	C 	0.90884 0.19845 0.48018 -0.04000
N 	N 	0.91200 0.99621 0.46403 -0.11900
C 	C 	0.85606 0.98331 0.51646 -0.04900
C 	C 	0.88773 0.95829 0.48820 0.09800
C 	C 	0.90776 0.90113 0.49065 -0.07000
C 	C 	0.86479 0.85554 0.50058 0.05600
C 	C 	0.82774 0.83180 0.47253 -0.04100
C 	C 	0.78568 0.78996 0.48206 0.00600
C 	C 	0.78025 0.77155 0.51974 0.02600
C 	C 	0.81714 0.79550 0.54786 0.00700
C 	C 	0.85970 0.83698 0.53823 -0.04200
C 	C 	0.98498 0.83740 0.46593 -0.05000
C 	C 	0.04598 0.83976 0.46632 -0.04800
C 	C 	0.25151 0.81497 0.50144 0.00500
C 	C 	0.18627 0.04655 0.50961 -0.04600
C 	C 	0.07377 0.10677 0.44516 0.11300
C 	C 	0.86025 0.03930 0.50895 -0.05100
C 	C 	0.89429 0.04544 0.47654 0.09800
C 	C 	0.82538 0.14720 0.45187 -0.03400
H 	H 	0.01557 0.95646 0.50378 0.10000
H 	H 	0.02529 0.06169 0.48734 0.10000
H 	H 	0.75685 0.77224 0.46027 0.08100
H 	H 	0.81270 0.78212 0.57712 0.08300
H 	H 	0.83134 0.84598 0.44341 0.07500
H 	H 	0.88805 0.85522 0.56007 0.06800
H 	H 	0.16389 0.75774 0.57112 0.08500
H 	H 	0.23000 0.88448 0.46691 0.07400
H 	H 	0.29322 0.80958 0.48721 0.08300
H 	H 	0.10107 0.83362 0.55142 0.06900
H 	H 	0.22981 0.25792 0.51711 0.08900
H 	H 	0.15118 0.18365 0.51582 0.06700
C 	C 	0.21294 0.16145 0.42923 -0.04000
H 	H 	0.28635 0.20946 0.40563 0.07800
H 	H 	0.74601 0.19163 0.44571 0.09800
H 	H 	0.80576 0.10934 0.43995 0.07700
H 	H 	0.95375 0.20014 0.49077 0.06800
H 	H 	0.89531 0.28375 0.49365 0.08400
H 	H 	0.95773 0.79949 0.46744 0.08700
H 	H 	0.07275 0.80389 0.46786 0.07400
H 	H 	0.18799 0.97567 0.54802 0.08100
H 	H 	0.19631 0.08003 0.52933 0.06700
H 	H 	0.96937 0.17509 0.40781 0.08900
H 	H 	0.08434 0.18080 0.40936 0.08400
H 	H 	0.84710 0.96562 0.54422 0.06700
H 	H 	0.85454 0.07139 0.52991 0.06900
H 	H 	0.20927 0.13378 0.40505 0.07200
Ni	Ni	0.44691 0.53707 0.03840 1.10700
O 	O 	0.51588 0.48549 0.03735 -0.70100
Ni	Ni	0.51709 0.46355 0.98189 1.11300
O 	O 	0.44893 0.54621 0.09650 -0.32400
O 	O 	0.44515 0.45340 0.10744 -0.38100
O 	O 	0.50248 0.60782 0.03902 -0.31800
Ni	Ni	0.49563 0.41724 0.06587 1.08200
O 	O 	0.41908 0.63520 0.98654 -0.29000
O 	O 	0.41732 0.40330 0.03807 -0.37000
O 	O 	0.58594 0.41260 0.98546 -0.29400
O 	O 	0.44728 0.51439 0.98291 -0.69800
O 	O 	0.37672 0.58605 0.03548 -0.30500
O 	O 	0.51687 0.45438 0.92371 -0.32700
O 	O 	0.51393 0.54656 0.91127 -0.34200
Ni	Ni	0.46367 0.58196 0.95313 1.10300
H 	H 	0.55382 0.50348 0.04566 0.19800
H 	H 	0.40941 0.49579 0.97538 0.23200
C 	C 	0.41536 0.38501 0.00317 0.27700
O 	O 	0.54149 0.59633 0.98037 -0.33600
C 	C 	0.45484 0.50423 0.11967 0.29400
C 	C 	0.58718 0.37608 0.01317 0.28700
C 	C 	0.54328 0.62034 0.01345 0.29500
C 	C 	0.50629 0.49499 0.90015 0.29900
C 	C 	0.37206 0.62021 0.00677 0.27500
O 	O 	0.46082 0.39389 0.98056 -0.32200
O 	O 	0.53845 0.36307 0.03237 -0.38000
Ni	Ni	0.48942 0.53213 0.54370 1.10600
O 	O 	0.56034 0.48738 0.52971 -0.69900
Ni	Ni	0.55170 0.48209 0.47274 1.10400
O 	O 	0.50401 0.52529 0.60110 -0.33500
O 	O 	0.50619 0.43118 0.59912 -0.36100
O 	O 	0.54248 0.60396 0.54783 -0.31100
Ni	Ni	0.55127 0.41167 0.54983 1.11500
O 	O 	0.44902 0.64165 0.51071 -0.33100
O 	O 	0.46915 0.39757 0.52704 -0.35800
O 	O 	0.62479 0.43813 0.46351 -0.33100
O 	O 	0.47913 0.52542 0.48665 -0.69700
O 	O 	0.41739 0.57698 0.55401 -0.31200
O 	O 	0.54063 0.48938 0.41499 -0.33800
O 	O 	0.52355 0.58143 0.41471 -0.37400
Ni	Ni	0.48522 0.60127 0.46615 1.09500
H 	H 	0.59861 0.50557 0.53717 0.19900
H 	H 	0.44116 0.50609 0.47983 0.19600
C 	C 	0.46100 0.39053 0.49060 0.29900
O 	O 	0.56884 0.61503 0.48566 -0.38000
C 	C 	0.51412 0.47796 0.61785 0.29900
C 	C 	0.63565 0.39660 0.48628 0.30000
C 	C 	0.58051 0.62176 0.52180 0.29400
C 	C 	0.51775 0.53245 0.39866 0.29700
C 	C 	0.40679 0.61964 0.53238 0.30300
O 	O 	0.50074 0.40953 0.46615 -0.32400
O 	O 	0.59237 0.37285 0.50639 -0.28900
C 	C 	0.50964 0.47512 0.78049 0.08400
N 	N 	0.47375 0.51180 0.79706 -0.09400
C 	C 	0.46985 0.51648 0.83545 0.09000
C 	C 	0.50368 0.48370 0.85910 -0.07600
C 	C 	0.53978 0.44475 0.84267 0.05200
C 	C 	0.54305 0.44056 0.80323 -0.06400
H 	H 	0.44143 0.54664 0.84761 0.05000
H 	H 	0.56688 0.41935 0.86029 0.06900
H 	H 	0.57259 0.41191 0.79044 0.07900
C 	C 	0.51748 0.47617 0.65985 -0.07500
C 	C 	0.51304 0.42536 0.67919 0.04500
C 	C 	0.51175 0.42457 0.71874 -0.06300
C 	C 	0.51571 0.47465 0.73888 0.08200
N 	N 	0.52128 0.52358 0.71969 -0.09100
C 	C 	0.52279 0.52537 0.68107 0.08500
H 	H 	0.50944 0.38664 0.66370 0.06500
H 	H 	0.50628 0.38543 0.73361 0.07700
H 	H 	0.52742 0.56510 0.66690 0.07800
C 	C 	0.46822 0.52235 0.23909 0.08300
N 	N 	0.50421 0.55338 0.21554 -0.09000
C 	C 	0.49864 0.55016 0.17708 0.08500
C 	C 	0.45540 0.51426 0.16082 -0.08200
C 	C 	0.41616 0.48419 0.18457 0.04800
C 	C 	0.42219 0.48853 0.22381 -0.06700
H 	H 	0.52905 0.57416 0.15916 0.07000
H 	H 	0.38160 0.45701 0.17265 0.06100
H 	H 	0.39179 0.46536 0.24222 0.07800
C 	C 	0.50314 0.52920 0.35775 -0.08200
C 	C 	0.49032 0.47780 0.34051 0.04800
C 	C 	0.47842 0.47520 0.30173 -0.06300
C 	C 	0.47835 0.52428 0.28039 0.08300
N 	N 	0.49073 0.57392 0.29761 -0.09400
C 	C 	0.50262 0.57744 0.33544 0.08400
H 	H 	0.48986 0.43996 0.35704 0.06700
H 	H 	0.47015 0.43531 0.28822 0.07800
H 	H 	0.51243 0.61769 0.34802 0.05900
C 	C 	0.25827 0.68116 0.52266 0.01300
C 	C 	0.26937 0.73211 0.54096 0.08600
C 	C 	0.32041 0.74028 0.56375 -0.12300
C 	C 	0.36414 0.70099 0.56248 0.07800
C 	C 	0.35565 0.65254 0.54090 0.00600
C 	C 	0.30068 0.64051 0.52309 -0.08100
C 	C 	0.28916 0.58634 0.50196 0.77700
H 	H 	0.21820 0.67472 0.50616 0.09600
H 	H 	0.40604 0.70926 0.57669 0.12500
C 	C 	0.33045 0.79269 0.58703 0.79200
F 	F 	0.23036 0.57864 0.49180 -0.40700
F 	F 	0.30358 0.54226 0.52469 -0.43000
F 	F 	0.32313 0.58627 0.46935 -0.46500
F 	F 	0.27907 0.80564 0.60556 -0.43000
F 	F 	0.34808 0.83607 0.56342 -0.42300
F 	F 	0.37363 0.78641 0.61430 -0.40200
C 	C 	0.67754 0.74952 0.54105 0.00500
C 	C 	0.73250 0.73051 0.53016 0.08800
C 	C 	0.73933 0.67306 0.52506 -0.13000
C 	C 	0.68897 0.63672 0.52565 0.07400
C 	C 	0.63289 0.65658 0.53285 -0.00800
C 	C 	0.62755 0.71285 0.54322 -0.06800
C 	C 	0.56812 0.73462 0.55418 0.77600
H 	H 	0.67326 0.79342 0.54597 0.09700
H 	H 	0.69279 0.59344 0.51839 0.07500
C 	C 	0.79945 0.65093 0.51646 0.79100
F 	F 	0.57351 0.78860 0.56737 -0.41300
F 	F 	0.54268 0.70237 0.58276 -0.41600
F 	F 	0.53124 0.73351 0.52291 -0.43600
F 	F 	0.84120 0.67318 0.54146 -0.43000
F 	F 	0.81578 0.66498 0.47976 -0.43200
F 	F 	0.79894 0.59383 0.51996 -0.41200
C 	C 	0.71169 0.35538 0.44570 0.08700
C 	C 	0.69128 0.36799 0.48216 0.01000
C 	C 	0.72151 0.34874 0.51442 -0.07000
C 	C 	0.76365 0.30855 0.50960 0.01900
C 	C 	0.78087 0.29263 0.47313 0.09000
C 	C 	0.75888 0.32027 0.44100 -0.12500
C 	C 	0.78348 0.31067 0.40160 0.79200
H 	H 	0.68967 0.37149 0.42101 0.09900
H 	H 	0.78196 0.28852 0.53420 0.09400
C 	C 	0.70739 0.36895 0.55405 0.77100
F 	F 	0.77254 0.35464 0.37781 -0.41200
F 	F 	0.75715 0.26297 0.38634 -0.42900
F 	F 	0.84398 0.30552 0.40296 -0.42600
F 	F 	0.65893 0.33877 0.56815 -0.46000
F 	F 	0.69552 0.42463 0.55362 -0.47100
F 	F 	0.75462 0.36246 0.57832 -0.41900
C 	C 	0.35799 0.37278 0.46854 0.07100
C 	C 	0.41295 0.35194 0.47759 -0.00600
C 	C 	0.42004 0.29401 0.47744 -0.06900
C 	C 	0.37032 0.25794 0.47185 0.00600
C 	C 	0.31489 0.27872 0.46407 0.08500
C 	C 	0.30917 0.33661 0.46022 -0.12700
C 	C 	0.25074 0.36002 0.44882 0.79100
H 	H 	0.35306 0.41719 0.46871 0.08300
H 	H 	0.37434 0.21355 0.47413 0.09500
C 	C 	0.48022 0.27063 0.48409 0.77500
F 	F 	0.25777 0.41513 0.43828 -0.40500
F 	F 	0.21191 0.35614 0.47906 -0.42200
F 	F 	0.22662 0.33100 0.41825 -0.43000
F 	F 	0.49839 0.28172 0.52089 -0.43800
F 	F 	0.52089 0.29444 0.45900 -0.42100
F 	F 	0.47912 0.21384 0.47866 -0.42200
C 	C 	0.26878 0.62762 0.98590 0.08300
C 	C 	0.31884 0.65219 0.00351 -0.01100
C 	C 	0.31814 0.70755 0.01656 -0.05700
C 	C 	0.26954 0.73917 0.00773 -0.00800
C 	C 	0.22043 0.71527 0.98867 0.09600
C 	C 	0.21856 0.65827 0.97933 -0.12800
C 	C 	0.16425 0.63077 0.96086 0.79100
H 	H 	0.26959 0.58490 0.97659 0.09500
H 	H 	0.27025 0.78282 0.01491 0.09700
C 	C 	0.37018 0.73384 0.03824 0.77200
F 	F 	0.16704 0.57365 0.96033 -0.40200
F 	F 	0.15962 0.64922 0.92387 -0.42800
F 	F 	0.11402 0.64355 0.98072 -0.42300
F 	F 	0.41636 0.74557 0.01346 -0.39200
F 	F 	0.38858 0.69839 0.06625 -0.41000
F 	F 	0.35541 0.78266 0.05568 -0.41400
C 	C 	0.65579 0.73903 0.99720 0.02600
C 	C 	0.68195 0.74425 0.03308 0.07500
C 	C 	0.65918 0.71182 0.06374 -0.12100
C 	C 	0.61427 0.67079 0.05662 0.08300
C 	C 	0.58757 0.66622 0.02068 -0.00200
C 	C 	0.60535 0.70428 0.99160 -0.05000
C 	C 	0.57088 0.70883 0.95481 0.77200
H 	H 	0.67369 0.76374 0.97384 0.09600
H 	H 	0.60042 0.64208 0.07888 0.08600
C 	C 	0.68370 0.71945 0.10361 0.79100
F 	F 	0.58200 0.76003 0.93793 -0.41000
F 	F 	0.51084 0.70337 0.96141 -0.42700
F 	F 	0.58733 0.66837 0.92969 -0.43400
F 	F 	0.68842 0.77511 0.11293 -0.42200
F 	F 	0.73880 0.69745 0.10572 -0.42900
F 	F 	0.64738 0.69312 0.13029 -0.41800
C 	C 	0.74071 0.31948 0.01341 0.00600
C 	C 	0.72694 0.26242 0.01584 0.08800
C 	C 	0.66751 0.24304 0.02047 -0.13100
C 	C 	0.62254 0.28073 0.01722 0.07200
C 	C 	0.63608 0.33790 0.01474 -0.00700
C 	C 	0.69592 0.35779 0.01513 -0.07500
C 	C 	0.71237 0.41944 0.01631 0.76700
H 	H 	0.78638 0.33393 0.01007 0.09400
H 	H 	0.57677 0.26564 0.01673 0.09500
C 	C 	0.65157 0.18210 0.02739 0.78200
F 	F 	0.77071 0.42912 0.02700 -0.42000
F 	F 	0.67767 0.44597 0.04231 -0.45800
F 	F 	0.70474 0.44214 0.98071 -0.41600
F 	F 	0.69016 0.15988 0.05306 -0.43300
F 	F 	0.65380 0.15336 0.99352 -0.41800
F 	F 	0.59518 0.17480 0.04220 -0.40700
C 	C 	0.27419 0.31010 0.96965 0.01900
C 	C 	0.28647 0.25507 0.97789 0.07300
C 	C 	0.34188 0.24249 0.99340 -0.09200
C 	C 	0.38371 0.28587 0.00091 0.02800
C 	C 	0.37101 0.34101 0.99335 0.03300
C 	C 	0.31587 0.35353 0.97745 -0.08700
C 	C 	0.30257 0.41265 0.96715 0.77600
H 	H 	0.23190 0.31890 0.95726 0.09400
H 	H 	0.42624 0.27700 0.01295 0.09400
C 	C 	0.35624 0.18298 0.00208 0.76500
F 	F 	0.24516 0.41679 0.95442 -0.41600
F 	F 	0.34038 0.43109 0.93856 -0.46300
F 	F 	0.31004 0.44661 0.99857 -0.45700
F 	F 	0.35269 0.15171 0.96921 -0.41800
F 	F 	0.31660 0.16074 0.02841 -0.43300
F 	F 	0.41257 0.17934 0.01677 -0.40800
