data_crystal

_cell_length_a 21.70736
_cell_length_b 18.13119
_cell_length_c 43.51667
_cell_angle_alpha 90.72078
_cell_angle_beta  90.81672
_cell_angle_gamma 112.90871

_symmetry_space_group_name_	'P 1'
_symmetry_space_group_name_H-M	'P 1'

loop_
_symmetry_equiv_pos_as_xyz
  x,y,z

loop_
_atom_site_label
_atom_site_type_symbol
_atom_site_fract_x
_atom_site_fract_y
_atom_site_fract_z
_atom_site_charge
Ni	Ni	0.73038 0.35146 0.88779 1.09900
O 	O 	0.64525 0.30471 0.86155 -0.71000
Ni	Ni	0.58284 0.33500 0.88685 1.10200
O 	O 	0.78025 0.31181 0.85631 -0.36900
O 	O 	0.70387 0.18224 0.85997 -0.40800
O 	O 	0.74951 0.45323 0.86302 -0.39100
Ni	Ni	0.60943 0.18904 0.85762 1.06200
O 	O 	0.77093 0.43535 0.95726 -0.40700
O 	O 	0.60133 0.16844 0.90397 -0.40700
O 	O 	0.50644 0.29811 0.85583 -0.37800
O 	O 	0.66341 0.36373 0.91636 -0.70400
O 	O 	0.81691 0.40747 0.91310 -0.37500
O 	O 	0.53475 0.39250 0.91211 -0.36200
O 	O 	0.63060 0.50340 0.91692 -0.41700
Ni	Ni	0.70391 0.47011 0.93552 1.07400
H 	H 	0.65027 0.32931 0.84107 0.15500
H 	H 	0.65484 0.32370 0.93267 0.16200
C 	C 	0.55621 0.18196 0.92030 0.28800
O 	O 	0.77519 0.53572 0.90543 -0.39100
C 	C 	0.75929 0.23538 0.84828 0.26600
C 	C 	0.48621 0.22559 0.84316 0.27300
C 	C 	0.77022 0.52537 0.87547 0.29900
C 	C 	0.56825 0.46358 0.92460 0.28600
C 	C 	0.81874 0.42069 0.94312 0.29700
O 	O 	0.53095 0.23314 0.91098 -0.36800
O 	O 	0.51011 0.17247 0.85331 -0.40700
Ni	Ni	0.57918 0.32874 0.65348 1.09700
O 	O 	0.66346 0.36934 0.62691 -0.69400
Ni	Ni	0.72757 0.33766 0.65243 1.09700
O 	O 	0.52749 0.37797 0.62614 -0.36100
O 	O 	0.61291 0.49934 0.62369 -0.40300
O 	O 	0.53539 0.23067 0.62461 -0.36600
Ni	Ni	0.70333 0.48667 0.62391 1.07700
O 	O 	0.50425 0.15885 0.67761 -0.40100
O 	O 	0.70267 0.49779 0.67031 -0.42400
O 	O 	0.80749 0.38056 0.62381 -0.37200
O 	O 	0.64325 0.29622 0.67862 -0.70100
O 	O 	0.49845 0.28187 0.68136 -0.37900
O 	O 	0.77812 0.28588 0.67927 -0.36500
O 	O 	0.69329 0.16279 0.67783 -0.40600
Ni	Ni	0.60368 0.17814 0.67867 1.06400
H 	H 	0.65597 0.34312 0.60634 0.16300
H 	H 	0.65043 0.31988 0.69965 0.15000
C 	C 	0.75119 0.49314 0.68707 0.29200
O 	O 	0.60629 0.16764 0.63229 -0.41100
C 	C 	0.55956 0.44399 0.61130 0.29200
C 	C 	0.82410 0.45166 0.61150 0.28600
C 	C 	0.56645 0.18662 0.61421 0.29300
C 	C 	0.74952 0.21321 0.69016 0.27700
C 	C 	0.47833 0.20677 0.69014 0.27500
O 	O 	0.77388 0.43687 0.68120 -0.36900
O 	O 	0.80207 0.50389 0.62344 -0.40000
C 	C 	0.03919 0.98351 0.74031 -0.03800
H 	H 	0.03814 0.98028 0.71477 0.04300
C 	C 	0.04214 0.99063 0.80173 -0.03800
H 	H 	0.04390 0.99357 0.82728 0.04200
C 	C 	0.99700 0.02591 0.75464 -0.00800
C 	C 	0.01316 0.90194 0.75607 -0.01100
C 	C 	0.10895 0.02734 0.75510 -0.00900
C 	C 	0.99933 0.03075 0.78633 -0.00700
C 	C 	0.01454 0.90562 0.78757 -0.01400
C 	C 	0.11027 0.03116 0.78662 -0.00800
Ni	Ni	0.23906 0.73700 0.39182 1.09700
O 	O 	0.31064 0.76369 0.35868 -0.70300
Ni	Ni	0.38190 0.73781 0.38065 1.09800
O 	O 	0.17917 0.78061 0.36760 -0.36100
O 	O 	0.26271 0.89805 0.35405 -0.40600
O 	O 	0.18195 0.62981 0.36968 -0.36900
Ni	Ni	0.35120 0.87894 0.35025 1.06100
O 	O 	0.17375 0.58089 0.42808 -0.40300
O 	O 	0.36580 0.91065 0.39568 -0.41200
O 	O 	0.44979 0.76972 0.34638 -0.38500
O 	O 	0.31002 0.70984 0.41357 -0.70200
O 	O 	0.17196 0.70609 0.42671 -0.37100
O 	O 	0.44202 0.69548 0.40563 -0.35700
O 	O 	0.35769 0.57593 0.41456 -0.40800
Ni	Ni	0.27036 0.59403 0.42079 1.06800
H 	H 	0.29486 0.73121 0.33954 0.15100
H 	H 	0.32555 0.74097 0.43302 0.15700
C 	C 	0.40905 0.89487 0.41278 0.28800
O 	O 	0.25499 0.56894 0.37523 -0.42200
C 	C 	0.20145 0.84378 0.35001 0.27600
C 	C 	0.47472 0.84349 0.33619 0.28200
C 	C 	0.20515 0.57637 0.36047 0.28900
C 	C 	0.41652 0.63048 0.42194 0.28300
C 	C 	0.15711 0.63710 0.44058 0.28100
O 	O 	0.43549 0.84525 0.40285 -0.36500
O 	O 	0.45049 0.89665 0.34562 -0.40600
Ni	Ni	0.38341 0.75010 0.15211 1.09900
O 	O 	0.29572 0.69127 0.12870 -0.70400
Ni	Ni	0.23483 0.73247 0.15102 1.10100
O 	O 	0.43331 0.69779 0.12573 -0.36000
O 	O 	0.35846 0.57256 0.13653 -0.40800
O 	O 	0.40860 0.83986 0.12006 -0.35900
Ni	Ni	0.26357 0.57538 0.13337 1.07300
O 	O 	0.45452 0.92767 0.16865 -0.41100
O 	O 	0.26256 0.58679 0.17990 -0.42300
O 	O 	0.15334 0.67421 0.12348 -0.37100
O 	O 	0.32092 0.78297 0.17754 -0.69800
O 	O 	0.46883 0.81158 0.17652 -0.39000
O 	O 	0.18301 0.79943 0.16702 -0.36500
O 	O 	0.26696 0.89726 0.19379 -0.41800
Ni	Ni	0.35624 0.90001 0.17703 1.06600
H 	H 	0.29803 0.70522 0.10673 0.16900
H 	H 	0.31688 0.76200 0.19863 0.15900
C 	C 	0.21028 0.59226 0.19271 0.29300
O 	O 	0.33322 0.89605 0.13123 -0.42500
C 	C 	0.40858 0.62016 0.12031 0.28800
C 	C 	0.14246 0.60105 0.11367 0.28800
C 	C 	0.36917 0.87600 0.11097 0.27200
C 	C 	0.21054 0.87360 0.17799 0.29300
C 	C 	0.48848 0.88906 0.18108 0.28900
O 	O 	0.19103 0.65002 0.18477 -0.36700
O 	O 	0.16458 0.55480 0.12971 -0.40400
C 	C 	0.92528 0.08797 0.23684 -0.03600
H 	H 	0.92650 0.08743 0.21130 0.04300
C 	C 	0.92067 0.08745 0.29812 -0.03700
H 	H 	0.91847 0.08709 0.32363 0.04300
C 	C 	0.95791 0.03663 0.25253 -0.01200
C 	C 	0.95966 0.17082 0.25238 -0.00700
C 	C 	0.85507 0.05681 0.24993 -0.01000
C 	C 	0.95635 0.03661 0.28404 -0.00600
C 	C 	0.95766 0.17043 0.28404 -0.01200
C 	C 	0.85208 0.05546 0.28136 -0.00900
C 	C 	0.16265 0.52205 0.20863 -0.08300
C 	C 	0.11532 0.53088 0.22849 0.01900
C 	C 	0.06268 0.46336 0.23919 -0.07000
C 	C 	0.05687 0.38625 0.23020 0.04600
C 	C 	0.10582 0.37707 0.21125 -0.01200
C 	C 	0.15861 0.44487 0.20074 -0.00400
C 	C 	0.10081 0.30013 0.20269 -0.02700
C 	C 	0.04977 0.23276 0.21417 -0.05400
C 	C 	0.00372 0.24135 0.23478 0.02800
C 	C 	0.00381 0.31800 0.24051 -0.07600
H 	H 	0.11850 0.59008 0.23511 0.03500
H 	H 	0.02642 0.47112 0.25438 0.05000
H 	H 	0.19503 0.43758 0.18549 0.02300
H 	H 	0.13692 0.29240 0.18740 0.03400
H 	H 	0.04660 0.17397 0.20730 0.04400
H 	H 	0.96517 0.32459 0.25444 0.05500
C 	C 	0.55595 0.93463 0.19324 -0.08500
C 	C 	0.56953 0.00569 0.21025 0.01600
C 	C 	0.63360 0.04862 0.22235 -0.07300
C 	C 	0.68449 0.02048 0.21772 0.04700
C 	C 	0.67109 0.94940 0.20026 -0.01000
C 	C 	0.60706 0.90735 0.18785 -0.00200
C 	C 	0.72147 0.92005 0.19635 -0.02600
C 	C 	0.78330 0.95815 0.21122 -0.05400
C 	C 	0.79536 0.02615 0.22983 0.03200
C 	C 	0.74759 0.06014 0.23146 -0.07600
H 	H 	0.53015 0.02704 0.21443 0.01200
H 	H 	0.64330 0.10284 0.23582 0.04700
H 	H 	0.59680 0.85318 0.17421 0.05400
H 	H 	0.71203 0.86631 0.18262 0.04300
H 	H 	0.82093 0.93302 0.20930 0.04400
H 	H 	0.75820 0.11448 0.24504 0.05300
C 	C 	0.99369 0.99632 0.23477 0.03000
C 	C 	0.95998 0.91676 0.22452 -0.05300
C 	C 	0.99448 0.87711 0.20898 -0.02600
C 	C 	0.06252 0.91775 0.20261 -0.01000
C 	C 	0.09545 0.99929 0.21139 0.04200
C 	C 	0.06161 0.03707 0.22860 -0.07700
C 	C 	0.16211 0.04140 0.20334 -0.07100
C 	C 	0.19744 0.00149 0.18878 0.01400
C 	C 	0.16744 0.91834 0.18327 -0.08000
C 	C 	0.09880 0.87733 0.18870 -0.00500
H 	H 	0.90758 0.88485 0.22950 0.04200
H 	H 	0.96842 0.81481 0.20211 0.03900
H 	H 	0.08832 0.09728 0.23776 0.04900
H 	H 	0.18706 0.10472 0.20889 0.04500
H 	H 	0.24960 0.03427 0.18352 0.02000
H 	H 	0.07472 0.81359 0.18369 0.04900
C 	C 	0.54202 0.87285 0.32223 -0.07200
C 	C 	0.56141 0.82031 0.30459 0.01000
C 	C 	0.62735 0.84419 0.29462 -0.06600
C 	C 	0.67490 0.92102 0.30214 0.04200
C 	C 	0.65544 0.97511 0.31904 -0.00600
C 	C 	0.58899 0.95101 0.32888 -0.00800
C 	C 	0.70269 0.05256 0.32597 -0.02700
C 	C 	0.76816 0.07698 0.31537 -0.05100
C 	C 	0.78751 0.02421 0.29797 0.02900
C 	C 	0.74147 0.94501 0.29252 -0.07200
H 	H 	0.52560 0.76047 0.29892 0.03300
H 	H 	0.64141 0.80270 0.28117 0.04900
H 	H 	0.57438 0.99221 0.34225 0.04900
H 	H 	0.68845 0.09448 0.33906 0.04100
H 	H 	0.80298 0.13799 0.31958 0.04200
H 	H 	0.75657 0.90361 0.27952 0.05200
C 	C 	0.16536 0.51202 0.33891 -0.08300
C 	C 	0.19832 0.48005 0.31840 0.01400
C 	C 	0.16488 0.40390 0.30526 -0.07100
C 	C 	0.09776 0.35957 0.31206 0.04400
C 	C 	0.06258 0.39462 0.33026 -0.01100
C 	C 	0.09657 0.47102 0.34353 -0.00700
C 	C 	0.99428 0.35197 0.33547 -0.02600
C 	C 	0.96078 0.27623 0.32189 -0.05300
C 	C 	0.99543 0.24186 0.30347 0.03000
C 	C 	0.06488 0.28134 0.30041 -0.07800
H 	H 	0.25101 0.51238 0.31408 0.02600
H 	H 	0.19153 0.37892 0.29023 0.04800
H 	H 	0.07068 0.49625 0.35893 0.05000
H 	H 	0.96680 0.37808 0.34948 0.04100
H 	H 	0.90744 0.24569 0.32471 0.04300
H 	H 	0.09208 0.25359 0.28697 0.05100
C 	C 	0.15131 0.86813 0.33483 -0.07300
C 	C 	0.09539 0.81041 0.31969 0.01100
C 	C 	0.04346 0.83083 0.30856 -0.06500
C 	C 	0.04685 0.90929 0.31243 0.04000
C 	C 	0.10350 0.96797 0.32716 -0.00600
C 	C 	0.15551 0.94717 0.33825 -0.01100
C 	C 	0.10730 0.04667 0.33066 -0.02800
C 	C 	0.05668 0.06779 0.31846 -0.05000
C 	C 	0.00161 0.01052 0.30272 0.02600
C 	C 	0.99504 0.93036 0.30122 -0.06900
H 	H 	0.09176 0.74936 0.31693 0.03600
H 	H 	0.00059 0.78556 0.29699 0.04900
H 	H 	0.19826 0.99176 0.35020 0.04400
H 	H 	0.15007 0.09192 0.34230 0.03800
H 	H 	0.06137 0.12924 0.32040 0.04500
H 	H 	0.95117 0.88541 0.29015 0.05100
C 	C 	0.53351 0.15366 0.52896 -0.04000
C 	C 	0.50533 0.06932 0.52665 0.02200
C 	C 	0.49868 0.02372 0.55307 -0.05700
C 	C 	0.51814 0.06132 0.58185 0.03000
C 	C 	0.54629 0.14575 0.58421 -0.08200
C 	C 	0.55356 0.19140 0.55774 0.01300
C 	C 	0.48068 0.02804 0.49679 0.02400
C 	C 	0.52646 0.02094 0.47580 -0.05600
C 	C 	0.50397 0.97881 0.44799 0.03000
C 	C 	0.43454 0.94114 0.44149 -0.08200
C 	C 	0.38889 0.94927 0.46237 0.01000
C 	C 	0.41156 0.99297 0.48982 -0.04200
C 	C 	0.55243 0.97616 0.42604 0.08600
C 	C 	0.36368 0.00206 0.51068 0.09200
C 	C 	0.54210 0.20174 0.50191 0.09300
C 	C 	0.50645 0.01291 0.60898 0.07600
N 	N 	0.59134 0.97404 0.40852 -0.10600
N 	N 	0.32538 0.00938 0.52740 -0.11300
N 	N 	0.49707 0.97416 0.63070 -0.12000
N 	N 	0.54910 0.24019 0.48022 -0.11000
H 	H 	0.57489 0.25631 0.55957 0.03100
H 	H 	0.47697 0.95883 0.55122 0.05400
H 	H 	0.57967 0.04847 0.48112 0.05600
H 	H 	0.33561 0.92118 0.45726 0.03000
C 	C 	0.91614 0.45646 0.53767 -0.03900
C 	C 	0.96906 0.53258 0.53987 0.02100
C 	C 	0.97637 0.58031 0.56639 -0.05600
C 	C 	0.93129 0.55325 0.59054 0.02300
C 	C 	0.87689 0.47805 0.58795 -0.07900
C 	C 	0.87044 0.42970 0.56164 0.00800
C 	C 	0.01838 0.56202 0.51480 0.02100
C 	C 	0.00191 0.59519 0.48849 -0.06100
C 	C 	0.04712 0.62152 0.46430 0.02800
C 	C 	0.11027 0.61605 0.46662 -0.08200
C 	C 	0.12691 0.58385 0.49314 0.00700
C 	C 	0.08141 0.55670 0.51711 -0.04100
C 	C 	0.02722 0.65106 0.43680 0.08300
C 	C 	0.09937 0.52223 0.54380 0.08800
C 	C 	0.90848 0.40535 0.51096 0.09100
C 	C 	0.94275 0.60177 0.61827 0.08000
N 	N 	0.01128 0.67472 0.41477 -0.10400
N 	N 	0.11372 0.49459 0.56518 -0.11500
N 	N 	0.95207 0.64085 0.64044 -0.11300
N 	N 	0.90240 0.36445 0.48953 -0.11500
H 	H 	0.82906 0.37184 0.55955 0.03700
H 	H 	0.01770 0.63824 0.56836 0.05200
H 	H 	0.95347 0.59933 0.48666 0.05600
H 	H 	0.17510 0.57902 0.49495 0.01800
C 	C 	0.45966 0.48286 0.54699 -0.04600
C 	C 	0.50785 0.50743 0.52378 0.02500
C 	C 	0.56902 0.49972 0.52798 -0.06200
C 	C 	0.58427 0.47229 0.55574 0.03000
C 	C 	0.53841 0.45422 0.58000 -0.09800
C 	C 	0.47524 0.45645 0.57502 0.02200
C 	C 	0.49587 0.54453 0.49556 0.01900
C 	C 	0.50054 0.62381 0.49684 -0.05900
C 	C 	0.48176 0.65694 0.47131 0.01900
C 	C 	0.45884 0.61053 0.44411 -0.08400
C 	C 	0.46228 0.53497 0.44178 0.01100
C 	C 	0.47907 0.50094 0.46754 -0.04200
C 	C 	0.48222 0.73667 0.47381 0.06500
C 	C 	0.47539 0.41975 0.46550 0.09000
C 	C 	0.39453 0.48544 0.54229 0.09000
C 	C 	0.64701 0.46266 0.55904 0.01300
N 	N 	0.48255 0.80050 0.47589 -0.11200
N 	N 	0.47233 0.35467 0.46387 -0.11000
N 	N 	0.69746 0.45525 0.56135 -0.15900
N 	N 	0.34236 0.48754 0.53849 -0.12200
H 	H 	0.43932 0.44076 0.59337 0.04100
H 	H 	0.60520 0.51631 0.50974 0.05600
H 	H 	0.51616 0.65847 0.51812 0.05200
H 	H 	0.44684 0.50025 0.42051 0.04200
C 	C 	0.79037 0.17979 0.70779 -0.07900
C 	C 	0.75990 0.12186 0.72996 0.01100
C 	C 	0.79209 0.07401 0.74110 -0.07000
C 	C 	0.85564 0.08458 0.73060 0.04200
C 	C 	0.88847 0.14655 0.70994 -0.00800
C 	C 	0.85564 0.19390 0.69862 -0.00500
C 	C 	0.95351 0.15982 0.70074 -0.02900
C 	C 	0.98719 0.11537 0.71346 -0.04900
C 	C 	0.95615 0.05725 0.73539 0.02600
C 	C 	0.88818 0.03645 0.74145 -0.07200
H 	H 	0.70997 0.11167 0.73755 0.00600
H 	H 	0.76748 0.02863 0.75781 0.04400
H 	H 	0.87953 0.23907 0.68171 0.05000
H 	H 	0.97859 0.20578 0.68432 0.04100
H 	H 	0.03795 0.12767 0.70690 0.04100
H 	H 	0.86267 0.98752 0.75671 0.04800
C 	C 	0.41445 0.16968 0.70658 -0.07600
C 	C 	0.40255 0.10018 0.72359 0.01000
C 	C 	0.33856 0.05502 0.73420 -0.06800
C 	C 	0.28574 0.07955 0.72853 0.04200
C 	C 	0.29817 0.15227 0.71336 -0.00600
C 	C 	0.36243 0.19682 0.70217 -0.00700
C 	C 	0.24634 0.17969 0.70976 -0.02900
C 	C 	0.18329 0.13643 0.72187 -0.05100
C 	C 	0.17035 0.06358 0.73660 0.02700
C 	C 	0.22100 0.03359 0.73869 -0.07100
H 	H 	0.44260 0.07977 0.72779 0.01300
H 	H 	0.33014 0.00083 0.74677 0.04600
H 	H 	0.37134 0.25089 0.68941 0.05000
H 	H 	0.25544 0.23592 0.69857 0.04000
H 	H 	0.14602 0.16216 0.72154 0.04200
H 	H 	0.21126 0.97749 0.75016 0.05000
C 	C 	0.79086 0.56244 0.70690 -0.08100
C 	C 	0.75930 0.60887 0.72048 0.01200
C 	C 	0.79696 0.68680 0.73105 -0.07000
C 	C 	0.86678 0.71858 0.72883 0.04300
C 	C 	0.89931 0.66961 0.71801 -0.00600
C 	C 	0.86114 0.59149 0.70711 -0.00500
C 	C 	0.96950 0.70012 0.71761 -0.02100
C 	C 	0.00694 0.77817 0.72833 -0.05500
C 	C 	0.97462 0.82692 0.73888 0.03500
C 	C 	0.90460 0.79833 0.73765 -0.07500
H 	H 	0.70522 0.58601 0.72133 0.03100
H 	H 	0.77170 0.72285 0.74048 0.04600
H 	H 	0.88586 0.55522 0.69732 0.05500
H 	H 	0.99510 0.66306 0.70951 0.04400
H 	H 	0.06104 0.79996 0.72929 0.04600
H 	H 	0.87976 0.83677 0.74522 0.04900
C 	C 	0.92739 0.39189 0.00488 -0.03900
C 	C 	0.97854 0.46908 0.00652 0.02300
C 	C 	0.98480 0.52293 0.98286 -0.05800
C 	C 	0.93527 0.50462 0.95993 0.02700
C 	C 	0.87952 0.43119 0.96051 -0.08100
C 	C 	0.87788 0.37335 0.98187 0.01200
C 	C 	0.01884 0.49824 0.03484 0.02000
C 	C 	0.08503 0.50430 0.03571 -0.06000
C 	C 	0.12644 0.53985 0.06109 0.02700
C 	C 	0.10091 0.56817 0.08620 -0.09300
C 	C 	0.03460 0.56191 0.08539 0.01700
C 	C 	0.99342 0.52725 0.05982 -0.03900
C 	C 	0.19586 0.55033 0.06064 0.03100
C 	C 	0.92537 0.52238 0.05914 0.09200
C 	C 	0.92383 0.33290 0.02753 0.09300
C 	C 	0.93971 0.56358 0.93711 0.07700
N 	N 	0.25148 0.55879 0.06021 -0.13900
N 	N 	0.87085 0.51843 0.05856 -0.11600
N 	N 	0.94344 0.61106 0.91892 -0.10900
N 	N 	0.92100 0.28568 0.04570 -0.11400
H 	H 	0.83614 0.31566 0.98158 0.04100
H 	H 	0.02584 0.58126 0.98354 0.05300
H 	H 	0.10471 0.48305 0.01626 0.05500
H 	H 	0.01501 0.58358 0.10476 0.04300
C 	C 	0.42457 0.04499 0.97240 -0.04200
C 	C 	0.46306 0.04437 0.99869 0.02400
C 	C 	0.53281 0.08576 0.99858 -0.05900
C 	C 	0.56424 0.12883 0.97271 0.02300
C 	C 	0.52558 0.13037 0.94655 -0.08200
C 	C 	0.45593 0.08784 0.94654 0.01300
C 	C 	0.43091 0.99847 0.02620 0.01900
C 	C 	0.42217 0.91801 0.02821 -0.05500
C 	C 	0.39637 0.87494 0.05481 0.02300
C 	C 	0.38010 0.91320 0.08019 -0.07400
C 	C 	0.38476 0.99238 0.07728 0.00700
C 	C 	0.41009 0.03507 0.05047 -0.03600
C 	C 	0.38700 0.79165 0.05581 0.06900
C 	C 	0.41503 0.11656 0.04814 0.09000
C 	C 	0.35280 0.00241 0.97189 0.09300
C 	C 	0.63585 0.17290 0.97354 0.06300
N 	N 	0.37986 0.72502 0.05640 -0.11600
N 	N 	0.41894 0.18182 0.04622 -0.11000
N 	N 	0.69321 0.20824 0.97419 -0.12100
N 	N 	0.29529 0.96828 0.97151 -0.11600
H 	H 	0.42605 0.08885 0.92646 0.04400
H 	H 	0.56253 0.08483 0.01872 0.05600
H 	H 	0.43624 0.88911 0.00914 0.05400
H 	H 	0.37142 0.02194 0.09635 0.03900
C 	C 	0.52226 0.45685 0.00801 -0.04200
C 	C 	0.50356 0.52287 0.01056 0.02200
C 	C 	0.50655 0.56984 0.98480 -0.06200
C 	C 	0.52755 0.55107 0.95650 0.02900
C 	C 	0.54511 0.48419 0.95385 -0.10100
C 	C 	0.54229 0.43744 0.97966 0.00400
C 	C 	0.48009 0.54280 0.04011 0.02300
C 	C 	0.52557 0.60052 0.05995 -0.06000
C 	C 	0.50403 0.62189 0.08761 0.03100
C 	C 	0.43566 0.58658 0.09519 -0.08400
C 	C 	0.39132 0.52471 0.07635 0.01400
C 	C 	0.41288 0.50357 0.04867 -0.03900
C 	C 	0.55278 0.67729 0.10864 0.08200
C 	C 	0.36553 0.44241 0.02894 0.09500
C 	C 	0.52180 0.40938 0.03448 0.09000
C 	C 	0.53017 0.60011 0.93026 0.07000
N 	N 	0.59186 0.72166 0.12548 -0.11000
N 	N 	0.32763 0.39342 0.01313 -0.11200
N 	N 	0.53229 0.63941 0.90923 -0.11200
N 	N 	0.52147 0.37149 0.05573 -0.11200
H 	H 	0.55652 0.38645 0.97770 0.02000
H 	H 	0.49234 0.62080 0.98680 0.05600
H 	H 	0.57780 0.62863 0.05387 0.05300
H 	H 	0.33945 0.49489 0.08272 0.02100
C 	C 	0.80702 0.20697 0.83333 -0.07400
C 	C 	0.85155 0.25483 0.81159 0.00900
C 	C 	0.90211 0.23320 0.80000 -0.06600
C 	C 	0.90852 0.16310 0.80987 0.04100
C 	C 	0.86264 0.11339 0.83100 -0.00700
C 	C 	0.81219 0.13562 0.84269 -0.01400
C 	C 	0.86790 0.04214 0.84019 -0.03000
C 	C 	0.91588 0.01819 0.82724 -0.05100
C 	C 	0.95868 0.06466 0.80472 0.02700
C 	C 	0.95878 0.14049 0.79814 -0.07200
H 	H 	0.84743 0.30938 0.80391 0.03600
H 	H 	0.93599 0.27077 0.78324 0.05000
H 	H 	0.77806 0.09850 0.85950 0.04300
H 	H 	0.83419 0.00461 0.85701 0.03800
H 	H 	0.91909 0.96297 0.83444 0.04300
H 	H 	0.99494 0.17919 0.78239 0.05300
C 	C 	0.42162 0.19561 0.82651 -0.07800
C 	C 	0.40409 0.24804 0.80824 0.01300
C 	C 	0.33745 0.22889 0.79956 -0.06700
C 	C 	0.28790 0.15626 0.80847 0.04500
C 	C 	0.30612 0.10016 0.82443 -0.00800
C 	C 	0.37298 0.12007 0.83335 -0.00800
C 	C 	0.25699 0.02523 0.83146 -0.02700
C 	C 	0.19096 0.00480 0.82137 -0.05000
C 	C 	0.17332 0.05970 0.80475 0.03000
C 	C 	0.22071 0.13760 0.80069 -0.07300
H 	H 	0.44175 0.30540 0.80204 0.02900
H 	H 	0.32433 0.27081 0.78613 0.04900
H 	H 	0.38653 0.07867 0.84692 0.04300
H 	H 	0.27027 0.98194 0.84390 0.03700
H 	H 	0.15425 0.94498 0.82509 0.04300
H 	H 	0.20624 0.18105 0.78898 0.05300
C 	C 	0.97909 0.83439 0.80622 0.03400
C 	C 	0.01212 0.78541 0.81558 -0.05600
C 	C 	0.97691 0.71295 0.83000 -0.02000
C 	C 	0.90820 0.68883 0.83521 -0.00800
C 	C 	0.87483 0.73831 0.82600 0.04400
C 	C 	0.91048 0.81086 0.81153 -0.07800
C 	C 	0.80620 0.71447 0.83137 -0.06900
C 	C 	0.77144 0.64327 0.84666 0.01100
C 	C 	0.80458 0.59456 0.85620 -0.07600
C 	C 	0.87254 0.61640 0.84984 0.00000
H 	H 	0.06478 0.80262 0.81103 0.04400
H 	H 	0.00303 0.67549 0.83696 0.03900
H 	H 	0.88444 0.84718 0.80319 0.04800
H 	H 	0.78000 0.75164 0.82417 0.04600
H 	H 	0.71896 0.62658 0.85153 0.02800
H 	H 	0.89779 0.57798 0.85684 0.05000
