data_crystal

_cell_length_a 26.10030
_cell_length_b 26.61794
_cell_length_c 26.58279
_cell_angle_alpha 95.48317
_cell_angle_beta  95.48201
_cell_angle_gamma 125.84360

_symmetry_space_group_name_	'P 1'
_symmetry_space_group_name_H-M	'P 1'

loop_
_symmetry_equiv_pos_as_xyz
  x,y,z

loop_
_atom_site_label
_atom_site_type_symbol
_atom_site_fract_x
_atom_site_fract_y
_atom_site_fract_z
_atom_site_charge
C 	C 	0.94875 0.01810 0.98718 0.02300
C 	C 	0.91657 0.95324 0.98551 -0.05300
C 	C 	0.94736 0.92560 0.97443 0.02900
C 	C 	0.00989 0.96288 0.96408 -0.04700
C 	C 	0.04368 0.02826 0.96935 0.02500
C 	C 	0.01280 0.05581 0.98008 -0.05800
H 	H 	0.86777 0.92443 0.99262 0.05800
H 	H 	0.03338 0.94149 0.95446 0.05900
H 	H 	0.03861 0.10635 0.98339 0.05700
C 	C 	0.94314 0.00568 0.44159 0.01700
C 	C 	0.90701 0.94187 0.44621 -0.04900
C 	C 	0.93811 0.91414 0.45619 0.02400
C 	C 	0.00521 0.95054 0.46270 -0.04400
C 	C 	0.04111 0.01319 0.45536 0.01700
C 	C 	0.01011 0.04100 0.44553 -0.05300
H 	H 	0.85510 0.91398 0.44187 0.06000
H 	H 	0.02926 0.92940 0.47157 0.05700
H 	H 	0.03790 0.08986 0.44086 0.05700
Cu	Cu	0.62640 0.23823 0.00786 0.93200
Cu	Cu	0.68167 0.22919 0.90433 0.88200
Cu	Cu	0.67459 0.33532 0.93669 0.89900
Cu	Cu	0.63316 0.35993 0.03133 0.90300
C 	C 	0.64355 0.29425 0.11213 0.30100
O 	O 	0.53281 0.20458 0.00159 -0.33800
C 	C 	0.66983 0.29052 0.82822 0.30200
O 	O 	0.68378 0.33627 0.00908 -0.63600
O 	O 	0.62410 0.24184 0.93350 -0.63900
O 	O 	0.66086 0.18851 0.01252 -0.35100
O 	O 	0.73719 0.24707 0.96582 -0.42300
O 	O 	0.61803 0.32126 0.09439 -0.36500
O 	O 	0.72763 0.42640 0.94593 -0.37000
C 	C 	0.71751 0.46230 0.97428 0.28500
C 	C 	0.51205 0.23339 0.97995 0.27600
O 	O 	0.55362 0.28970 0.97031 -0.38300
O 	O 	0.67144 0.43828 0.00186 -0.37200
O 	O 	0.64279 0.25144 0.08162 -0.34000
C 	C 	0.71586 0.20858 0.99864 0.27400
O 	O 	0.67700 0.33493 0.86229 -0.36500
O 	O 	0.65023 0.23557 0.83961 -0.39500
H 	H 	0.72885 0.36239 0.02790 0.17400
H 	H 	0.58052 0.21732 0.91205 0.17900
Cu	Cu	0.74468 0.34709 0.43555 0.93000
Cu	Cu	0.76007 0.29864 0.54157 0.87900
Cu	Cu	0.64906 0.30158 0.50973 0.90200
Cu	Cu	0.62216 0.34411 0.41618 0.89800
C 	C 	0.68416 0.33012 0.33231 0.30000
O 	O 	0.78119 0.43958 0.44068 -0.33800
C 	C 	0.70373 0.31883 0.61894 0.30200
O 	O 	0.64562 0.29357 0.43701 -0.63900
O 	O 	0.74405 0.35179 0.51048 -0.63600
O 	O 	0.79226 0.30963 0.42912 -0.35200
O 	O 	0.73716 0.24029 0.48141 -0.43200
O 	O 	0.65797 0.35611 0.35131 -0.37000
O 	O 	0.55622 0.25020 0.50222 -0.36500
C 	C 	0.51980 0.26016 0.47359 0.29100
C 	C 	0.75415 0.46214 0.46328 0.28600
O 	O 	0.69753 0.42298 0.47496 -0.37900
O 	O 	0.54551 0.30892 0.44990 -0.38300
O 	O 	0.72759 0.32940 0.36169 -0.34100
C 	C 	0.77370 0.25786 0.44654 0.28900
O 	O 	0.65165 0.29390 0.58342 -0.36100
O 	O 	0.75818 0.33501 0.60585 -0.40600
H 	H 	0.61796 0.24944 0.41797 0.16700
H 	H 	0.76892 0.39513 0.53077 0.18400
C 	C 	0.72708 0.29453 0.70227 -0.03700
C 	C 	0.69735 0.31540 0.67344 -0.08100
C 	C 	0.66181 0.33224 0.69692 0.12700
C 	C 	0.65342 0.32447 0.74771 -0.03000
C 	C 	0.68171 0.30177 0.77585 -0.08300
C 	C 	0.72062 0.28897 0.75340 0.12600
Br	Br	0.76896 0.26788 0.79284 -0.27800
H 	H 	0.75546 0.28263 0.68490 0.06100
H 	H 	0.62497 0.33615 0.76526 0.07400
Br	Br	0.62858 0.37024 0.66202 -0.21800
C 	C 	0.71384 0.35470 0.19744 -0.03800
C 	C 	0.65726 0.29957 0.16812 -0.07700
C 	C 	0.61166 0.25251 0.19300 0.12800
C 	C 	0.62235 0.26173 0.24682 -0.03900
C 	C 	0.67800 0.31772 0.27616 -0.07700
C 	C 	0.72435 0.36406 0.25126 0.12800
Br	Br	0.80088 0.44168 0.29010 -0.20800
H 	H 	0.74899 0.39103 0.17844 0.06000
H 	H 	0.58651 0.22604 0.26585 0.05700
Br	Br	0.53308 0.17676 0.15426 -0.21400
C 	C 	0.86611 0.74277 0.41413 -0.01500
C 	C 	0.85034 0.71990 0.46025 0.00600
C 	C 	0.85770 0.75956 0.50362 -0.03500
C 	C 	0.88261 0.82234 0.50181 -0.01900
C 	C 	0.90044 0.84581 0.45619 0.00700
C 	C 	0.89069 0.80538 0.41228 -0.03600
C 	C 	0.82515 0.65405 0.46320 0.03100
C 	C 	0.86784 0.64093 0.48083 -0.05800
C 	C 	0.84533 0.57855 0.48163 0.03100
C 	C 	0.77939 0.52859 0.46420 -0.07600
C 	C 	0.73672 0.54204 0.44725 0.01800
C 	C 	0.75916 0.60432 0.44690 -0.04100
C 	C 	0.88983 0.56652 0.50171 0.08100
C 	C 	0.71421 0.61684 0.42939 0.09800
C 	C 	0.85810 0.70252 0.36880 0.09200
C 	C 	0.89069 0.86266 0.54711 0.08700
N 	N 	0.92548 0.55688 0.51782 -0.10500
N 	N 	0.67825 0.62693 0.41536 -0.10800
N 	N 	0.89717 0.89501 0.58338 -0.10700
N 	N 	0.85166 0.67022 0.33251 -0.10100
H 	H 	0.90440 0.82339 0.37716 0.05800
H 	H 	0.84454 0.74167 0.53885 0.05300
H 	H 	0.91859 0.67929 0.49373 0.05900
H 	H 	0.68602 0.50383 0.43376 0.03300
C 	C 	0.77458 0.11860 0.40825 -0.03700
C 	C 	0.84070 0.14644 0.42134 0.02700
C 	C 	0.88534 0.21229 0.43499 -0.05900
C 	C 	0.86429 0.25011 0.43957 0.02500
C 	C 	0.79772 0.22180 0.43011 -0.08300
C 	C 	0.75346 0.15635 0.41266 0.01300
C 	C 	0.86313 0.10680 0.42567 0.00600
C 	C 	0.88124 0.08953 0.38320 -0.03600
C 	C 	0.90498 0.05422 0.38729 -0.01900
C 	C 	0.91126 0.03640 0.43452 0.00500
C 	C 	0.89136 0.05213 0.47652 -0.03900
C 	C 	0.86742 0.08720 0.47237 -0.01800
C 	C 	0.92254 0.03623 0.34286 0.08600
C 	C 	0.84786 0.10340 0.51631 0.08400
C 	C 	0.72797 0.05114 0.39174 0.08400
C 	C 	0.91115 0.31752 0.45630 0.07200
N 	N 	0.93663 0.02181 0.30729 -0.10700
N 	N 	0.83217 0.11641 0.55149 -0.11400
N 	N 	0.94871 0.37152 0.46971 -0.10500
N 	N 	0.69066 0.99708 0.37853 -0.09800
H 	H 	0.70235 0.13453 0.40447 0.04100
H 	H 	0.93634 0.23385 0.44408 0.05700
H 	H 	0.87715 0.10386 0.34708 0.05400
H 	H 	0.89580 0.03816 0.51276 0.05100
C 	C 	0.34327 0.17990 0.42523 -0.04200
C 	C 	0.31540 0.15147 0.46672 0.03000
C 	C 	0.35445 0.15670 0.51013 -0.05900
C 	C 	0.42126 0.19213 0.51345 0.02900
C 	C 	0.44916 0.21977 0.47133 -0.07700
C 	C 	0.40933 0.21216 0.42715 0.01200
C 	C 	0.24509 0.11572 0.46481 0.00300
C 	C 	0.20239 0.05959 0.42870 -0.02900
C 	C 	0.13590 0.02764 0.42341 -0.03200
C 	C 	0.11132 0.04940 0.45715 0.01100
C 	C 	0.15402 0.10503 0.49384 -0.04000
C 	C 	0.22063 0.13889 0.49720 -0.01500
C 	C 	0.09332 0.97402 0.38208 0.10400
C 	C 	0.26348 0.19792 0.53323 0.08700
C 	C 	0.30463 0.17762 0.38104 0.09500
C 	C 	0.46054 0.20199 0.56093 0.09100
N 	N 	0.05918 0.93107 0.34900 -0.10600
N 	N 	0.29785 0.24521 0.56209 -0.10500
N 	N 	0.49182 0.20975 0.59904 -0.09200
N 	N 	0.27366 0.17577 0.34567 -0.10900
H 	H 	0.43016 0.23268 0.39455 0.03800
H 	H 	0.33293 0.13450 0.54195 0.05900
H 	H 	0.22112 0.04191 0.40360 0.05000
H 	H 	0.13533 0.12203 0.51966 0.05200
C 	C 	0.79785 0.63590 0.01700 -0.03500
C 	C 	0.81983 0.66007 0.97247 0.02300
C 	C 	0.81053 0.61956 0.92883 -0.05800
C 	C 	0.77696 0.55480 0.92838 0.02900
C 	C 	0.75608 0.53074 0.97350 -0.08400
C 	C 	0.76803 0.57209 0.01776 0.02100
C 	C 	0.85309 0.72801 0.97141 0.00000
C 	C 	0.91288 0.77288 0.00377 -0.02800
C 	C 	0.94239 0.83734 0.00708 -0.00800
C 	C 	0.91450 0.85761 0.97455 -0.00300
C 	C 	0.85545 0.81269 0.94117 -0.03400
C 	C 	0.82398 0.74816 0.94024 -0.01700
C 	C 	0.99966 0.88219 0.04551 0.08500
C 	C 	0.76125 0.70301 0.90810 0.08700
C 	C 	0.80404 0.67593 0.06162 0.09700
C 	C 	0.76129 0.51341 0.88079 0.08700
N 	N 	0.04553 0.91804 0.07629 -0.09500
N 	N 	0.71100 0.66682 0.88236 -0.10500
N 	N 	0.74880 0.48041 0.84260 -0.09600
N 	N 	0.80901 0.70802 0.09734 -0.10600
H 	H 	0.75255 0.55412 0.05257 0.04100
H 	H 	0.82778 0.63824 0.89466 0.05900
H 	H 	0.93523 0.75745 0.02782 0.05400
H 	H 	0.83381 0.82805 0.91621 0.05200
C 	C 	0.87247 0.08443 0.05248 -0.02600
C 	C 	0.84779 0.09758 0.01043 0.02200
C 	C 	0.85674 0.08499 0.96090 -0.05200
C 	C 	0.88976 0.05921 0.95291 -0.01100
C 	C 	0.91466 0.04623 0.99496 -0.01000
C 	C 	0.90582 0.05889 0.04454 -0.02200
C 	C 	0.81296 0.12519 0.01776 0.02000
C 	C 	0.84789 0.19086 0.03071 -0.05400
C 	C 	0.81603 0.21868 0.02895 0.02500
C 	C 	0.74851 0.18047 0.01330 -0.07300
C 	C 	0.71325 0.11455 0.00480 0.01200
C 	C 	0.74514 0.08675 0.00689 -0.02700
C 	C 	0.85285 0.28635 0.04355 0.08300
C 	C 	0.70807 0.01883 0.99671 0.07100
C 	C 	0.86334 0.09655 0.10373 0.09200
C 	C 	0.89733 0.04556 0.90140 0.08000
N 	N 	0.88233 0.34057 0.05524 -0.10500
N 	N 	0.67843 0.96442 0.98856 -0.09800
N 	N 	0.90344 0.03460 0.86015 -0.11100
N 	N 	0.85598 0.10627 0.14479 -0.10700
H 	H 	0.92476 0.04869 0.07687 0.05100
H 	H 	0.83772 0.09511 0.92856 0.05200
H 	H 	0.90000 0.22037 0.04070 0.05800
H 	H 	0.66120 0.08495 0.99408 0.03500
C 	C 	0.33080 0.11582 0.94927 -0.03500
C 	C 	0.31198 0.15390 0.96532 0.02800
C 	C 	0.35889 0.21832 0.98499 -0.05700
C 	C 	0.42429 0.24480 0.99039 0.01900
C 	C 	0.44333 0.20686 0.97389 -0.07300
C 	C 	0.39626 0.14259 0.95318 0.01100
C 	C 	0.24362 0.12572 0.96630 -0.00100
C 	C 	0.22236 0.11661 0.01336 -0.02800
C 	C 	0.15769 0.08854 0.01519 -0.01000
C 	C 	0.11333 0.06824 0.96937 -0.00300
C 	C 	0.13500 0.07964 0.92255 -0.03600
C 	C 	0.20002 0.10879 0.92084 -0.01700
C 	C 	0.13701 0.08031 0.06420 0.09100
C 	C 	0.22157 0.12085 0.87236 0.08700
C 	C 	0.28327 0.04905 0.92964 0.08400
C 	C 	0.47131 0.30990 0.01566 0.08200
N 	N 	0.12039 0.07376 0.10344 -0.10300
N 	N 	0.23889 0.13052 0.83354 -0.10800
N 	N 	0.50890 0.36202 0.03592 -0.12100
N 	N 	0.24515 0.99557 0.91391 -0.09900
H 	H 	0.41063 0.11330 0.94059 0.04100
H 	H 	0.34436 0.24742 0.99780 0.05600
H 	H 	0.25620 0.13097 0.04850 0.05500
H 	H 	0.10098 0.06456 0.88735 0.05200
