data_crystal

_cell_length_a 16.40133
_cell_length_b 14.67588
_cell_length_c 38.70768
_cell_angle_alpha 89.88310
_cell_angle_beta  89.88516
_cell_angle_gamma 119.39541

_symmetry_space_group_name_	'P 1'
_symmetry_space_group_name_H-M	'P 1'

loop_
_symmetry_equiv_pos_as_xyz
  x,y,z

loop_
_atom_site_label
_atom_site_type_symbol
_atom_site_fract_x
_atom_site_fract_y
_atom_site_fract_z
_atom_site_charge
Ni	Ni	0.07728 0.93971 0.75580 1.11100
Ni	Ni	0.10791 0.17633 0.74440 1.12200
O 	O 	0.03702 0.13834 0.21400 -0.35000
C 	C 	0.07138 0.42653 0.54068 0.00100
S 	S 	0.03910 0.35017 0.43990 -0.01000
C 	C 	0.01235 0.74409 0.69377 0.10400
C 	C 	0.10480 0.45713 0.93507 -0.02400
C 	C 	0.12462 0.51280 0.99553 -0.07700
H 	H 	0.12571 0.47512 0.90822 0.06000
N 	N 	0.16144 0.47725 0.80927 -0.10500
C 	C 	0.07745 0.09777 0.19473 0.30600
C 	C 	0.06234 0.15584 0.29160 0.30700
C 	C 	0.00347 0.78148 0.21412 0.31000
Ni	Ni	0.06533 0.97156 0.25650 1.11800
C 	C 	0.08646 0.14079 0.13124 0.02300
C 	C 	0.13120 0.15474 0.16363 -0.05700
C 	C 	0.09892 0.16006 0.06736 0.09900
N 	N 	0.06526 0.14007 0.04023 -0.10100
C 	C 	0.08831 0.33267 0.30948 0.00700
C 	C 	0.02062 0.32541 0.28394 0.11700
C 	C 	0.09070 0.43282 0.50516 -0.07300
N 	N 	0.02868 0.94523 0.61167 -0.09600
N 	N 	0.08116 0.75641 0.70619 -0.11900
C 	C 	0.15590 0.53142 0.96070 0.04000
N 	N 	0.16982 0.14284 0.86851 -0.10100
H 	H 	0.06023 0.06016 0.78763 0.15600
O 	O 	0.06329 0.24746 0.77876 -0.35500
O 	O 	0.08830 0.97193 0.70324 -0.39100
O 	O 	0.05875 0.90709 0.80843 -0.35200
O 	O 	0.08771 0.01980 0.20647 -0.35400
O 	O 	0.03908 0.90802 0.30415 -0.36200
N 	N 	0.03735 0.89727 0.12866 -0.10500
N 	N 	0.02734 0.66787 0.60705 -0.09700
N 	N 	0.14190 0.76910 0.94855 -0.10500
C 	C 	0.14122 0.18489 0.10125 0.00500
C 	C 	0.03762 0.72475 0.19202 -0.06200
N 	N 	0.08709 0.56862 0.32451 -0.09900
N 	N 	0.03232 0.42584 0.71750 -0.09700
C 	C 	0.08199 0.43365 0.80356 0.12100
C 	C 	0.13534 0.88196 0.86623 0.10000
N 	N 	0.20954 0.91121 0.85498 -0.11200
C 	C 	0.01666 0.37100 0.48271 0.04800
C 	C 	0.99711 0.58933 0.23716 0.08700
H 	H 	0.04794 0.26216 0.43829 0.05400
C 	C 	0.10563 0.50250 0.32772 0.09800
C 	C 	0.04794 0.64200 0.20610 0.01600
C 	C 	0.05569 0.83986 0.14258 0.09800
C 	C 	0.11192 0.25202 0.31262 -0.05200
H 	H 	0.12824 0.46216 0.55892 0.05100
C 	C 	0.02061 0.72099 0.40441 -0.05100
C 	C 	0.24557 0.13113 0.78089 0.29000
C 	C 	0.15705 0.05987 0.69109 0.33800
O 	O 	0.21637 0.05025 0.76036 -0.36000
O 	O 	0.21693 0.20127 0.77643 -0.35100
O 	O 	0.18004 0.14963 0.70633 -0.36700
C 	C 	0.10887 0.72468 0.41498 0.28400
C 	C 	0.16698 0.53167 0.49190 0.28800
C 	C 	0.23399 0.51718 0.38091 0.29400
Ni	Ni	0.25171 0.75852 0.47319 1.11600
O 	O 	0.15313 0.77809 0.44337 -0.35500
O 	O 	0.15110 0.69536 0.39169 -0.36500
O 	O 	0.27367 0.61371 0.36760 -0.37100
O 	O 	0.24570 0.49998 0.41364 -0.38200
O 	O 	0.15367 0.61384 0.49201 -0.36100
O 	O 	0.25196 0.54233 0.48715 -0.36900
O 	O 	0.27053 0.68670 0.43639 -0.71500
H 	H 	0.20679 0.62742 0.43367 0.16100
C 	C 	0.20402 0.61459 0.13829 0.30300
C 	C 	0.26045 0.36549 0.08974 0.30500
C 	C 	0.19349 0.55787 0.02350 0.30800
Ni	Ni	0.31096 0.71314 0.07724 1.12600
O 	O 	0.22866 0.65617 0.03378 -0.36300
O 	O 	0.26739 0.59746 0.15323 -0.34500
O 	O 	0.19890 0.61301 0.10488 -0.37700
O 	O 	0.24489 0.42781 0.10850 -0.37300
O 	O 	0.31687 0.40338 0.06266 -0.36900
O 	O 	0.22234 0.49872 0.03715 -0.39400
O 	O 	0.05511 0.83576 0.24035 -0.37400
O 	O 	0.11192 0.12177 0.27388 -0.35500
C 	C 	0.23497 0.26227 0.10464 -0.06800
C 	C 	0.22966 0.21183 0.16514 0.00900
C 	C 	0.28174 0.26017 0.13507 -0.00300
C 	C 	0.27719 0.22380 0.19780 0.09200
C 	C 	0.15234 0.65725 0.15838 -0.06300
C 	C 	0.14113 0.74000 0.14440 0.00800
C 	C 	0.07843 0.76752 0.15987 0.00300
C 	C 	0.10558 0.60859 0.18939 0.00400
C 	C 	0.19792 0.80099 0.11538 0.06800
C 	C 	0.11760 0.52527 0.20429 0.10400
N 	N 	0.12803 0.45909 0.21596 -0.10000
N 	N 	0.24293 0.85004 0.09223 -0.14200
C 	C 	0.17874 0.26106 0.33723 0.00700
C 	C 	0.21976 0.34835 0.35930 0.00800
C 	C 	0.19322 0.42680 0.35705 -0.05400
C 	C 	0.12920 0.41972 0.33153 0.00800
C 	C 	0.20462 0.17989 0.34016 0.09700
N 	N 	0.22525 0.11516 0.34239 -0.10300
C 	C 	0.01534 0.81364 0.40483 0.00600
C 	C 	0.98400 0.84251 0.37500 0.00200
C 	C 	0.02978 0.87023 0.43680 0.09200
C 	C 	0.98452 0.94138 0.37360 0.06700
N 	N 	0.98509 0.02048 0.37255 -0.09500
N 	N 	0.04057 0.91497 0.46248 -0.11100
C 	C 	0.20109 0.02166 0.63228 0.04300
C 	C 	0.22562 0.05600 0.66684 -0.07800
C 	C 	0.10527 0.97917 0.62081 0.05800
S 	S 	0.25961 0.64515 0.94894 -0.00300
H 	H 	0.33005 0.62142 0.94480 0.04300
H 	H 	0.34892 0.95104 0.03152 0.04200
H 	H 	0.33429 0.24004 0.04345 0.05200
C 	C 	0.32645 0.15538 0.80329 -0.05400
C 	C 	0.31979 0.15846 0.83958 0.00700
C 	C 	0.23646 0.14981 0.85569 0.09600
C 	C 	0.04292 0.41851 0.00338 -0.00500
S 	S 	0.36224 0.93375 0.99776 -0.01300
C 	C 	0.38232 0.30559 0.13557 0.08700
N 	N 	0.46271 0.34052 0.13676 -0.09700
Ni	Ni	0.33621 0.61239 0.44465 1.12300
Ni	Ni	0.28954 0.74550 0.39155 1.12400
O 	O 	0.33837 0.75102 0.51191 -0.35700
O 	O 	0.30557 0.88842 0.40348 -0.37100
Ni	Ni	0.35816 0.56098 0.12509 1.11700
Ni	Ni	0.35693 0.54963 0.04121 1.12200
O 	O 	0.40057 0.67878 0.00888 -0.37400
O 	O 	0.36529 0.62565 0.08193 -0.71100
N 	N 	0.31503 0.23334 0.22385 -0.10100
C 	C 	0.29287 0.36012 0.38298 0.09600
S 	S 	0.31054 0.62597 0.57666 -0.01200
H 	H 	0.33605 0.68872 0.60526 0.05000
C 	C 	0.27252 0.03431 0.60860 -0.00900
C 	C 	0.31886 0.09267 0.67752 0.01900
C 	C 	0.25283 0.01550 0.57208 0.10300
C 	C 	0.36287 0.18123 0.70053 0.09700
N 	N 	0.39872 0.25355 0.71834 -0.10500
N 	N 	0.23719 0.00051 0.54287 -0.10600
S 	S 	0.42171 0.27212 0.05655 -0.00200
C 	C 	0.40695 0.15849 0.78925 0.00900
C 	C 	0.39555 0.16836 0.85999 0.00700
C 	C 	0.39760 0.07597 0.76663 0.11100
C 	C 	0.38426 0.15004 0.89693 0.09900
N 	N 	0.37534 0.13540 0.92644 -0.10600
N 	N 	0.38975 0.00879 0.74890 -0.09600
O 	O 	0.03825 0.03937 0.76377 -0.69400
O 	O 	0.39013 0.79467 0.12000 -0.35100
N 	N 	0.39161 0.54458 0.32500 -0.10100
H 	H 	0.02213 0.39816 0.03016 0.05300
C 	C 	0.08661 0.77602 0.93197 0.09000
C 	C 	0.41244 0.74166 0.50487 0.30500
C 	C 	0.36011 0.94603 0.42853 0.28500
O 	O 	0.35913 0.90425 0.45859 -0.36500
O 	O 	0.41809 0.80766 0.04800 -0.38800
N 	N 	0.35116 0.36937 0.40181 -0.11500
S 	S 	0.26088 0.07952 0.44087 0.01300
C 	C 	0.41114 0.63729 0.55653 0.04200
H 	H 	0.40472 0.50519 0.58377 0.05400
C 	C 	0.36436 0.06955 0.62083 -0.04600
C 	C 	0.37656 0.07134 0.65653 -0.00500
H 	H 	0.23610 0.12319 0.41450 0.05200
H 	H 	0.43162 0.67901 0.08111 0.16800
H 	H 	0.48397 0.35212 0.98833 0.05100
O 	O 	0.43244 0.66069 0.40578 -0.37000
O 	O 	0.43128 0.73165 0.47289 -0.38500
O 	O 	0.42831 0.81058 0.39370 -0.39200
C 	C 	0.43717 0.77983 0.01814 0.29800
O 	O 	0.45747 0.51476 0.10743 -0.34700
C 	C 	0.45069 0.62973 0.32888 0.09800
C 	C 	0.38144 0.12304 0.43895 0.03400
H 	H 	0.41779 0.25952 0.46985 0.04900
C 	C 	0.44640 0.57164 0.56712 -0.02100
C 	C 	0.47587 0.95169 0.99259 0.02000
C 	C 	0.48913 0.21176 0.80780 0.00700
C 	C 	0.48310 0.19779 0.84384 -0.05600
C 	C 	0.41506 0.05978 0.42448 -0.04300
C 	C 	0.44449 0.14773 0.60053 0.28800
C 	C 	0.46901 0.75359 0.39086 0.30800
C 	C 	0.46476 0.78895 0.13175 0.28300
O 	O 	0.48749 0.58969 0.05294 -0.38600
O 	O 	0.45609 0.70124 0.14429 -0.35800
N 	N 	0.48671 0.02581 0.18172 -0.07900
C 	C 	0.44424 0.21689 0.45503 -0.01200
C 	C 	0.46193 0.71813 0.53243 -0.07800
H 	H 	0.53868 0.11896 0.98858 0.04900
C 	C 	0.50056 0.39811 0.04161 0.03300
C 	C 	0.45540 0.06651 0.67101 0.11200
C 	C 	0.49128 0.86516 0.99322 -0.06300
O 	O 	0.46464 0.24607 0.60403 -0.37100
C 	C 	0.50270 0.53694 0.07676 0.29400
C 	C 	0.52755 0.41147 0.00686 -0.02600
O 	O 	0.50799 0.12290 0.58899 -0.35700
C 	C 	0.53107 0.98887 0.17243 0.06800
C 	C 	0.52600 0.73584 0.33282 0.00400
C 	C 	0.53528 0.59182 0.55604 -0.06200
C 	C 	0.55087 0.05275 0.98736 0.00200
C 	C 	0.56098 0.30913 0.79337 0.10300
C 	C 	0.51127 0.10430 0.41809 -0.02200
C 	C 	0.55052 0.48056 0.06494 -0.06100
C 	C 	0.56919 0.24930 0.86447 0.28800
O 	O 	0.58170 0.33229 0.88173 -0.37300
C 	C 	0.54531 0.78542 0.36534 -0.07100
C 	C 	0.53855 0.24382 0.45776 -0.06800
C 	C 	0.55654 0.74921 0.52688 -0.01800
N 	N 	0.60504 0.96107 0.61763 -0.12900
N 	N 	0.51810 0.06199 0.68279 -0.09300
C 	C 	0.56645 0.51411 0.56238 0.28900
O 	O 	0.55153 0.19952 0.51600 -0.36900
C 	C 	0.55926 0.87931 0.13133 -0.06700
H 	H 	0.53779 0.06054 0.40396 0.06500
H 	H 	0.56333 0.32210 0.55720 0.16400
C 	C 	0.04243 0.84396 0.88046 0.00600
C 	C 	0.58152 0.27399 0.49191 0.29000
O 	O 	0.56971 0.48402 0.59497 -0.35800
C 	C 	0.55656 0.74752 0.26989 0.09600
N 	N 	0.53356 0.71698 0.24208 -0.10100
C 	C 	0.59290 0.68529 0.53765 0.04200
C 	C 	0.57617 0.87827 0.98037 -0.01400
N 	N 	0.61731 0.38772 0.78165 -0.09800
N 	N 	0.02684 0.63995 0.78613 -0.09200
O 	O 	0.59807 0.48410 0.53565 -0.37800
C 	C 	0.57365 0.19779 0.43450 0.04500
Ni	Ni	0.59950 0.36576 0.61244 1.11500
C 	C 	0.58642 0.94261 0.16081 0.02000
C 	C 	0.58552 0.78608 0.30472 0.00200
H 	H 	0.59908 0.81727 0.51095 0.05400
C 	C 	0.61908 0.48602 0.99758 -0.06100
H 	H 	0.58756 0.81158 0.97892 0.05900
C 	C 	0.63733 0.06766 0.97551 -0.04700
C 	C 	0.01744 0.37082 0.94311 -0.04500
C 	C 	0.66139 0.45766 0.96909 0.29100
O 	O 	0.64111 0.23195 0.85709 -0.35500
O 	O 	0.67182 0.50057 0.93732 -0.35000
H 	H 	0.66768 0.30767 0.92417 0.17800
Ni	Ni	0.62466 0.21289 0.55878 1.12600
O 	O 	0.62639 0.25876 0.63946 -0.35700
O 	O 	0.62389 0.33977 0.56771 -0.71900
C 	C 	0.62836 0.86219 0.11580 0.00100
C 	C 	0.62518 0.84080 0.07937 0.08100
N 	N 	0.62476 0.82360 0.05025 -0.11000
C 	C 	0.63008 0.88000 0.37011 0.01300
C 	C 	0.65113 0.93156 0.40343 0.08000
N 	N 	0.63568 0.69820 0.72206 -0.10300
C 	C 	0.64580 0.54406 0.05790 -0.01900
N 	N 	0.65078 0.21986 0.74651 -0.09900
N 	N 	0.63113 0.71365 0.61677 -0.10600
O 	O 	0.66174 0.36408 0.49531 -0.36800
N 	N 	0.66782 0.97263 0.43002 -0.11200
C 	C 	0.66458 0.02737 0.63329 0.12000
C 	C 	0.64902 0.97847 0.97143 0.01900
O 	O 	0.69142 0.39202 0.97661 -0.38900
N 	N 	0.71259 0.72545 0.94487 -0.10700
C 	C 	0.67848 0.55427 0.02367 0.03700
C 	C 	0.69386 0.16147 0.95420 0.28400
O 	O 	0.67988 0.15052 0.92061 -0.37400
C 	C 	0.66220 0.95143 0.18079 -0.01700
C 	C 	0.67449 0.87208 0.31043 -0.05000
C 	C 	0.69581 0.70367 0.70490 0.09700
C 	C 	0.68580 0.69793 0.63027 0.09500
Ni	Ni	0.71174 0.45515 0.89014 1.11500
C 	C 	0.69363 0.23848 0.63046 0.30400
Ni	Ni	0.70528 0.45423 0.53895 1.12200
C 	C 	0.69480 0.92327 0.34256 -0.02400
S 	S 	0.69482 0.24897 0.42922 -0.00300
S 	S 	0.71095 0.72457 0.52869 -0.03200
H 	H 	0.69035 0.59891 0.07727 0.05800
C 	C 	0.69459 0.85502 0.13702 0.00900
C 	C 	0.71173 0.24824 0.76603 0.10200
N 	N 	0.72510 0.01692 0.79813 -0.10600
C 	C 	0.70332 0.03252 0.20665 0.11100
O 	O 	0.73020 0.35576 0.91465 -0.71300
C 	C 	0.70682 0.89306 0.17100 -0.05400
O 	O 	0.71353 0.23548 0.59791 -0.38000
C 	C 	0.73923 0.11049 0.65290 0.00100
O 	O 	0.73739 0.47259 0.62077 -0.37700
H 	H 	0.72498 0.31808 0.40211 0.05100
O 	O 	0.01211 0.15816 0.70830 -0.35900
O 	O 	0.74568 0.43190 0.83893 -0.34600
O 	O 	0.73841 0.26500 0.52823 -0.37600
N 	N 	0.73578 0.09865 0.22694 -0.11400
C 	C 	0.74183 0.20771 0.65667 -0.05400
Ni	Ni	0.75654 0.26375 0.88808 1.12400
O 	O 	0.76471 0.24916 0.96816 -0.36900
C 	C 	0.75443 0.68224 0.64848 0.00100
O 	O 	0.76192 0.57593 0.57393 -0.36900
C 	C 	0.75189 0.81286 0.12366 0.09500
C 	C 	0.01743 0.78526 0.91152 0.01700
C 	C 	0.75090 0.88787 0.28705 0.28400
H 	H 	0.76590 0.78408 0.55538 0.05500
S 	S 	0.75165 0.98994 0.95289 -0.01600
C 	C 	0.77239 0.10675 0.79640 0.08800
C 	C 	0.78161 0.74760 0.93033 0.08000
C 	C 	0.77328 0.56507 0.60710 0.30800
C 	C 	0.77109 0.71048 0.68339 0.01100
O 	O 	0.75946 0.80703 0.21242 -0.35300
O 	O 	0.76926 0.80954 0.28452 -0.37000
C 	C 	0.77992 0.02240 0.34677 0.11700
C 	C 	0.78866 0.28194 0.78979 -0.00300
N 	N 	0.82814 0.93492 0.64929 -0.12200
Ni	Ni	0.80513 0.40356 0.95473 1.12000
C 	C 	0.77887 0.89023 0.19329 0.30500
O 	O 	0.77780 0.96171 0.26285 -0.36400
C 	C 	0.81955 0.00547 0.65748 0.12500
S 	S 	0.79357 0.65145 0.01401 -0.00700
N 	N 	0.80128 0.94037 0.86784 -0.11400
N 	N 	0.79807 0.77972 0.11309 -0.10700
C 	C 	0.81003 0.09471 0.66756 0.00000
N 	N 	0.79882 0.52002 0.31421 -0.10100
C 	C 	0.81494 0.41195 0.83398 0.31000
C 	C 	0.81486 0.65649 0.63034 -0.06700
H 	H 	0.80397 0.97752 0.97808 0.04300
O 	O 	0.81826 0.43598 0.54478 -0.37500
C 	C 	0.81089 0.28485 0.67808 0.00200
C 	C 	0.81755 0.34921 0.53567 0.30400
C 	C 	0.80868 0.38035 0.68541 0.09700
C 	C 	0.83097 0.21911 0.79426 -0.01000
C 	C 	0.98583 0.09390 0.12920 0.08800
C 	C 	0.96413 0.81546 0.31084 0.27400
C 	C 	0.95074 0.77305 0.34668 -0.05600
C 	C 	0.96052 0.64107 0.38185 -0.00400
O 	O 	0.97287 0.11965 0.28548 -0.37100
N 	N 	0.95635 0.54697 0.26190 -0.09300
C 	C 	0.92490 0.66713 0.35256 0.00800
C 	C 	0.97931 0.38981 0.55202 0.02600
O 	O 	0.91196 0.75337 0.28517 -0.35800
N 	N 	0.96614 0.31929 0.26377 -0.11400
C 	C 	0.94007 0.53451 0.38779 0.09200
O 	O 	0.91912 0.76968 0.20935 -0.37600
N 	N 	0.90560 0.05786 0.12688 -0.09400
O 	O 	0.93829 0.94030 0.25454 -0.72500
H 	H 	0.92784 0.94445 0.27934 0.15100
C 	C 	0.85503 0.58549 0.33117 0.10300
N 	N 	0.92385 0.44934 0.39249 -0.11300
C 	C 	0.87853 0.61660 0.92283 0.31200
C 	C 	0.93862 0.36279 0.92326 0.29700
O 	O 	0.91870 0.43620 0.92802 -0.39000
O 	O 	0.84888 0.56729 0.89405 -0.37300
O 	O 	0.85424 0.56362 0.95222 -0.37000
O 	O 	0.84661 0.38580 0.86025 -0.38500
O 	O 	0.87284 0.27278 0.91115 -0.36000
C 	C 	0.88854 0.80906 0.72930 0.30400
C 	C 	0.98426 0.89504 0.82599 0.26600
C 	C 	0.92561 0.13781 0.71499 0.28000
C 	C 	0.97953 0.20414 0.79374 0.26500
Ni	Ni	0.90856 0.98815 0.77224 1.10900
O 	O 	0.87355 0.06987 0.73906 -0.36000
O 	O 	0.94948 0.80705 0.75012 -0.37100
O 	O 	0.85943 0.87696 0.73439 -0.36900
O 	O 	0.93985 0.10641 0.80552 -0.36000
O 	O 	0.90909 0.88621 0.80925 -0.35700
Ni	Ni	0.91183 0.04400 0.24024 1.12600
Ni	Ni	0.84986 0.79672 0.24762 1.12300
O 	O 	0.86113 0.97166 0.19421 -0.38700
N 	N 	0.84762 0.10183 0.35013 -0.10400
C 	C 	0.90639 0.35220 0.52766 -0.06300
C 	C 	0.92424 0.33301 0.49378 -0.03100
S 	S 	0.95642 0.39259 0.59635 -0.00500
H 	H 	0.93676 0.29918 0.61123 0.04500
H 	H 	0.86731 0.29554 0.47552 0.06100
C 	C 	0.88163 0.26834 0.69275 0.00200
C 	C 	0.87678 0.17019 0.68968 -0.05400
C 	C 	0.96511 0.35566 0.70674 0.06900
N 	N 	0.80705 0.45657 0.69156 -0.10200
C 	C 	0.90425 0.68819 0.64404 0.01800
C 	C 	0.92623 0.72827 0.67804 -0.00200
C 	C 	0.86021 0.74371 0.69744 -0.05600
C 	C 	0.97267 0.67682 0.62348 0.08000
C 	C 	0.99989 0.34216 0.97794 0.00000
S 	S 	0.93424 0.21036 0.98988 0.00300
H 	H 	0.85736 0.19325 0.00881 0.04800
H 	H 	0.85379 0.61453 0.02141 0.04100
C 	C 	0.83858 0.38729 0.79975 -0.06700
C 	C 	0.93017 0.26757 0.79712 -0.04900
C 	C 	0.98249 0.37927 0.79647 -0.01300
C 	C 	0.93466 0.43726 0.79269 0.01500
C 	C 	0.98593 0.54985 0.78903 0.08600
C 	C 	0.92358 0.73173 0.92178 -0.07900
C 	C 	0.97517 0.86413 0.86379 -0.05300
C 	C 	0.89375 0.84324 0.88281 -0.00200
C 	C 	0.86779 0.77605 0.91200 0.00200
C 	C 	0.84234 0.89722 0.87448 0.08900
