data_crystal

_cell_length_a 27.70568
_cell_length_b 27.95854
_cell_length_c 19.87027
_cell_angle_alpha 90.00073
_cell_angle_beta  90.00005
_cell_angle_gamma 119.99988

_symmetry_space_group_name_	'P 1'
_symmetry_space_group_name_H-M	'P 1'

loop_
_symmetry_equiv_pos_as_xyz
  x,y,z

loop_
_atom_site_label
_atom_site_type_symbol
_atom_site_fract_x
_atom_site_fract_y
_atom_site_fract_z
_atom_site_charge
Zn	Zn	0.66151 0.51840 0.77446 1.22700
Zn	Zn	0.60400 0.59665 0.73787 1.20200
C 	C 	0.67221 0.48812 0.52973 0.35500
Zn	Zn	0.63301 0.54102 0.62885 1.22500
Zn	Zn	0.65983 0.44088 0.66288 1.21100
H 	H 	0.70021 0.61277 0.70528 0.19600
C 	C 	0.52493 0.51998 0.61671 0.30000
O 	O 	0.68249 0.41773 0.74341 -0.43500
O 	O 	0.64959 0.44675 0.82829 -0.37900
O 	O 	0.66318 0.57948 0.71173 -0.79800
O 	O 	0.56223 0.54194 0.81302 -0.43700
O 	O 	0.74267 0.54726 0.76711 -0.43100
O 	O 	0.63666 0.53756 0.85725 -0.44300
O 	O 	0.73950 0.51924 0.65770 -0.37600
O 	O 	0.62527 0.65787 0.67574 -0.43400
H 	H 	0.58038 0.44950 0.70752 0.18300
O 	O 	0.63589 0.61502 0.58094 -0.36600
O 	O 	0.61956 0.47613 0.69577 -0.78900
O 	O 	0.64612 0.44341 0.56637 -0.46300
O 	O 	0.55469 0.49633 0.61568 -0.45700
O 	O 	0.67774 0.53565 0.55093 -0.39600
O 	O 	0.52970 0.55173 0.66839 -0.38100
C 	C 	0.64949 0.40595 0.79544 0.27200
C 	C 	0.58784 0.53417 0.86478 0.32400
C 	C 	0.76797 0.54970 0.70986 0.33400
C 	C 	0.62916 0.65482 0.60968 0.33400
Zn	Zn	0.37186 0.53006 0.24905 1.22700
Zn	Zn	0.39733 0.42706 0.24133 1.19600
C 	C 	0.32127 0.50278 0.01193 0.36900
Zn	Zn	0.35558 0.45678 0.12186 1.22400
Zn	Zn	0.38658 0.58718 0.10965 1.20700
H 	H 	0.30227 0.42060 0.22907 0.19400
C 	C 	0.46519 0.47609 0.10442 0.30300
O 	O 	0.40403 0.64932 0.16990 -0.45000
O 	O 	0.41279 0.61652 0.27119 -0.36300
O 	O 	0.34121 0.44830 0.21762 -0.80200
O 	O 	0.44634 0.48287 0.30983 -0.43300
O 	O 	0.29811 0.52422 0.24707 -0.42500
O 	O 	0.39527 0.52333 0.34068 -0.42800
O 	O 	0.29644 0.54373 0.13484 -0.37800
O 	O 	0.37568 0.36049 0.18651 -0.44900
H 	H 	0.44614 0.55549 0.16277 0.19100
O 	O 	0.32028 0.36962 0.10593 -0.36700
O 	O 	0.40527 0.53925 0.15935 -0.79600
O 	O 	0.36916 0.54777 0.02258 -0.46000
O 	O 	0.41820 0.46206 0.07505 -0.44200
O 	O 	0.30338 0.46051 0.05402 -0.39700
O 	O 	0.46825 0.47645 0.17070 -0.38400
C 	C 	0.43229 0.65593 0.22569 0.32100
C 	C 	0.43075 0.50659 0.35562 0.34400
C 	C 	0.27028 0.51987 0.19150 0.28300
C 	C 	0.34546 0.34345 0.13083 0.33700
Zn	Zn	0.52590 0.18807 0.09133 1.22500
Zn	Zn	0.47432 0.05107 0.06600 1.20000
C 	C 	0.47356 0.21515 0.88061 0.32700
Zn	Zn	0.47977 0.12720 0.95106 1.22400
Zn	Zn	0.56034 0.27072 0.97203 1.19700
H 	H 	0.42526 0.10617 0.05684 0.18900
C 	C 	0.53785 0.06721 0.92769 0.35100
O 	O 	0.63076 0.31550 0.01943 -0.41700
O 	O 	0.59532 0.26849 0.11789 -0.35900
O 	O 	0.46382 0.11472 0.04711 -0.78700
O 	O 	0.53544 0.08008 0.13516 -0.43800
O 	O 	0.46905 0.21011 0.10867 -0.42100
O 	O 	0.54488 0.16146 0.17463 -0.40900
O 	O 	0.52337 0.29125 0.05583 -0.37400
O 	O 	0.41948 0.99413 0.00598 -0.36800
H 	H 	0.58502 0.19525 0.99166 0.17500
O 	O 	0.40834 0.04845 0.92623 -0.36900
O 	O 	0.55018 0.19664 0.99630 -0.77900
O 	O 	0.48429 0.24110 0.93769 -0.48000
O 	O 	0.52702 0.10474 0.90545 -0.42700
O 	O 	0.45390 0.16148 0.88115 -0.39200
O 	O 	0.53849 0.05908 0.99297 -0.39600
C 	C 	0.63824 0.29728 0.07737 0.27800
C 	C 	0.53910 0.11228 0.18579 0.33300
C 	C 	0.47502 0.25538 0.08137 0.30400
C 	C 	0.39128 0.00014 0.95619 0.26200
Zn	Zn	0.53563 0.88900 0.58276 1.22500
Zn	Zn	0.63617 0.01931 0.56137 1.19000
C 	C 	0.55460 0.85575 0.34434 0.30200
Zn	Zn	0.60129 0.94024 0.44837 1.22400
Zn	Zn	0.47500 0.83388 0.44920 1.20500
H 	H 	0.64490 0.93262 0.55464 0.19300
C 	C 	0.58117 0.02973 0.42472 0.25900
O 	O 	0.42226 0.78455 0.51648 -0.46100
O 	O 	0.44948 0.83983 0.60935 -0.37600
O 	O 	0.61541 0.94160 0.54397 -0.79500
O 	O 	0.58230 0.01377 0.63277 -0.45600
O 	O 	0.54702 0.82405 0.58581 -0.42000
O 	O 	0.54404 0.92506 0.67219 -0.41300
O 	O 	0.53187 0.80229 0.47320 -0.39700
O 	O 	0.69992 0.06120 0.50055 -0.45200
H 	H 	0.50153 0.92828 0.49200 0.20600
O 	O 	0.68783 0.99213 0.42636 -0.35600
O 	O 	0.51977 0.90557 0.49159 -0.79200
O 	O 	0.50772 0.85428 0.35822 -0.45700
O 	O 	0.59028 0.99270 0.39746 -0.41000
O 	O 	0.59813 0.88302 0.38437 -0.40200
O 	O 	0.58303 0.03561 0.49076 -0.38600
C 	C 	0.41000 0.80530 0.56848 0.33400
C 	C 	0.56606 0.97861 0.68344 0.29900
C 	C 	0.55197 0.79883 0.53220 0.28200
C 	C 	0.71587 0.04422 0.44717 0.31900
Zn	Zn	0.16678 0.66623 0.89780 1.23000
Zn	Zn	0.02884 0.62509 0.86898 1.20200
C 	C 	0.21645 0.75889 0.69347 0.28400
Zn	Zn	0.11579 0.67376 0.75868 1.22600
Zn	Zn	0.25208 0.70211 0.78113 1.20100
H 	H 	0.11316 0.72040 0.86239 0.18600
C 	C 	0.03127 0.56648 0.72836 0.30900
O 	O 	0.27752 0.65518 0.82441 -0.43700
O 	O 	0.23299 0.64979 0.92400 -0.36400
O 	O 	0.10694 0.68288 0.85350 -0.79000
O 	O 	0.03889 0.57089 0.92227 -0.46100
O 	O 	0.20933 0.74313 0.92782 -0.42000
O 	O 	0.12553 0.61384 0.96952 -0.42200
O 	O 	0.28462 0.75385 0.87033 -0.38200
O 	O 	0.99158 0.65871 0.82228 -0.45600
H 	H 	0.16297 0.61503 0.79757 0.17500
O 	O 	0.04251 0.67906 0.72392 -0.36200
O 	O 	0.17321 0.65416 0.80335 -0.78400
O 	O 	0.24104 0.76346 0.75116 -0.45900
O 	O 	0.08423 0.60110 0.72394 -0.46500
O 	O 	0.16165 0.73049 0.68982 -0.41200
O 	O 	0.00326 0.56549 0.78263 -0.38000
C 	C 	0.25534 0.62958 0.88183 0.27400
C 	C 	0.07108 0.58688 0.97588 0.30900
C 	C 	0.25829 0.77547 0.90130 0.29900
C 	C 	0.99590 0.66736 0.75687 0.27900
Zn	Zn	0.85189 0.36723 0.39830 1.22900
Zn	Zn	0.99281 0.44298 0.36837 1.19700
C 	C 	0.82024 0.29145 0.18185 0.34200
Zn	Zn	0.90904 0.38188 0.25606 1.22600
Zn	Zn	0.76431 0.31419 0.28274 1.21200
H 	H 	0.92752 0.34071 0.35489 0.18800
C 	C 	0.97479 0.49420 0.23163 0.27500
O 	O 	0.72043 0.33991 0.33345 -0.41100
O 	O 	0.77270 0.35779 0.42935 -0.35000
O 	O 	0.92295 0.37342 0.34938 -0.79200
O 	O 	0.96452 0.48267 0.42335 -0.46600
O 	O 	0.83070 0.29161 0.42395 -0.41200
O 	O 	0.88237 0.42054 0.47226 -0.40400
O 	O 	0.75024 0.25781 0.36561 -0.35900
O 	O 	0.04470 0.42925 0.31777 -0.44900
H 	H 	0.83742 0.41207 0.30139 0.17500
O 	O 	0.99223 0.39899 0.22003 -0.38200
O 	O 	0.83849 0.37728 0.30483 -0.77800
O 	O 	0.79499 0.27182 0.23910 -0.44200
O 	O 	0.92405 0.45345 0.22951 -0.45400
O 	O 	0.87438 0.32623 0.18208 -0.41000
O 	O 	0.00499 0.50254 0.28620 -0.36700
C 	C 	0.74083 0.36835 0.38955 0.26800
C 	C 	0.93456 0.45998 0.47773 0.32200
C 	C 	0.79004 0.25099 0.39104 0.28200
C 	C 	0.04091 0.42002 0.25238 0.35800
C 	C 	0.95536 0.48700 0.54343 -0.12400
C 	C 	0.93857 0.45654 0.60447 0.20600
C 	C 	0.96096 0.48337 0.66579 -0.08100
C 	C 	0.00187 0.53926 0.66634 -0.03100
C 	C 	0.01929 0.56873 0.60561 -0.01400
C 	C 	0.99492 0.54336 0.54517 0.00000
H 	H 	0.94832 0.46018 0.71242 0.08800
H 	H 	0.00758 0.56747 0.49924 0.06100
Cl	Cl	0.89351 0.38440 0.60482 -0.32000
H 	H 	0.05080 0.61213 0.60568 0.04700
C 	C 	0.04702 0.56400 0.04170 -0.13200
C 	C 	0.06202 0.59827 0.09921 0.20700
C 	C 	0.03961 0.57526 0.16208 -0.09400
C 	C 	0.00202 0.51859 0.16757 0.00200
C 	C 	0.98773 0.48476 0.11025 -0.07900
C 	C 	0.01012 0.50733 0.04789 0.07700
H 	H 	0.05050 0.60155 0.20610 0.09500
H 	H 	0.99904 0.48062 0.00425 0.03500
Cl	Cl	0.10662 0.67024 0.09264 -0.32300
H 	H 	0.95900 0.44075 0.11413 0.06400
C 	C 	0.35238 0.79278 0.57883 -0.15400
C 	C 	0.34052 0.83566 0.58983 0.20200
C 	C 	0.28876 0.82327 0.61619 -0.07900
C 	C 	0.24952 0.76865 0.63268 -0.04700
C 	C 	0.25743 0.72577 0.60899 -0.06600
C 	C 	0.30928 0.73777 0.58338 0.02700
H 	H 	0.28147 0.85653 0.63059 0.09000
H 	H 	0.31707 0.70437 0.57169 0.02700
Cl	Cl	0.39035 0.90491 0.57210 -0.35000
H 	H 	0.22611 0.68316 0.61857 0.01700
C 	C 	0.75715 0.08693 0.40316 -0.12200
C 	C 	0.80612 0.12842 0.43362 0.20900
C 	C 	0.81954 0.18364 0.42754 -0.08200
C 	C 	0.78746 0.19705 0.38514 -0.01800
C 	C 	0.75030 0.15698 0.33966 -0.03500
C 	C 	0.73659 0.10186 0.34739 0.03700
H 	H 	0.85247 0.21511 0.45815 0.09300
H 	H 	0.70295 0.07020 0.31776 0.04800
Cl	Cl	0.84319 0.11071 0.49063 -0.32000
H 	H 	0.72972 0.16775 0.30128 0.08600
C 	C 	0.54556 0.09677 0.25535 -0.14300
C 	C 	0.59308 0.13111 0.29455 0.23000
C 	C 	0.60090 0.11234 0.35717 -0.10100
C 	C 	0.56194 0.05944 0.38077 -0.00000
C 	C 	0.51183 0.02850 0.34523 -0.07400
C 	C 	0.50415 0.04651 0.28242 0.04800
H 	H 	0.63912 0.13723 0.38498 0.09000
H 	H 	0.46663 0.02053 0.25391 0.00600
Cl	Cl	0.64436 0.19632 0.26472 -0.37100
H 	H 	0.48093 0.98803 0.36337 0.07200
C 	C 	0.55816 0.04100 0.87908 -0.16000
C 	C 	0.52578 0.98392 0.86547 0.23500
C 	C 	0.52917 0.96318 0.80218 -0.09600
C 	C 	0.56626 0.99879 0.75295 0.01000
C 	C 	0.60313 0.05420 0.76982 -0.07000
C 	C 	0.59944 0.07497 0.83261 0.06300
H 	H 	0.50207 0.91979 0.79099 0.09700
H 	H 	0.62588 0.11860 0.84306 0.04300
Cl	Cl	0.48038 0.93806 0.92671 -0.33500
H 	H 	0.63367 0.08170 0.73363 0.05400
C 	C 	0.78623 0.29409 0.12705 -0.16600
C 	C 	0.73784 0.24500 0.10809 0.21100
C 	C 	0.68949 0.24622 0.09127 -0.08500
C 	C 	0.69025 0.29667 0.08870 -0.03900
C 	C 	0.74090 0.34617 0.09592 -0.04300
C 	C 	0.78906 0.34490 0.11421 0.00400
H 	H 	0.65099 0.20787 0.08248 0.06600
H 	H 	0.82677 0.38326 0.12582 0.02000
Cl	Cl	0.73531 0.18096 0.11411 -0.29700
H 	H 	0.74241 0.38548 0.09083 0.05400
C 	C 	0.34474 0.95021 0.92769 -0.07400
C 	C 	0.29868 0.91669 0.96890 0.16800
C 	C 	0.26898 0.85953 0.95896 -0.06400
C 	C 	0.28421 0.83589 0.90682 -0.03500
C 	C 	0.32473 0.87035 0.85996 -0.01200
C 	C 	0.35423 0.92742 0.86986 0.02400
H 	H 	0.23570 0.83353 0.99331 0.08900
H 	H 	0.38836 0.95320 0.83637 0.06400
Cl	Cl	0.28083 0.94554 0.03654 -0.28500
H 	H 	0.33486 0.85282 0.81734 0.05700
C 	C 	0.09273 0.43575 0.21484 -0.12400
C 	C 	0.12237 0.40796 0.22805 0.21300
C 	C 	0.18023 0.43496 0.21816 -0.07300
C 	C 	0.20873 0.48921 0.19338 -0.01100
C 	C 	0.17840 0.51464 0.17337 -0.02200
C 	C 	0.12060 0.48780 0.18349 0.04100
H 	H 	0.20311 0.41418 0.23114 0.07300
H 	H 	0.09838 0.50942 0.17204 0.04300
Cl	Cl	0.08787 0.34036 0.26067 -0.30300
H 	H 	0.19975 0.55592 0.15236 0.06700
C 	C 	0.28496 0.50435 0.95899 -0.15700
C 	C 	0.23618 0.50437 0.97814 0.18900
C 	C 	0.22549 0.54487 0.95226 -0.08900
C 	C 	0.26056 0.58141 0.90226 -0.02900
C 	C 	0.30029 0.57122 0.87176 -0.04300
C 	C 	0.31075 0.53099 0.89856 0.03800
H 	H 	0.19025 0.54778 0.97076 0.08200
H 	H 	0.34501 0.52702 0.87871 0.03300
Cl	Cl	0.18704 0.45216 0.03055 -0.28300
H 	H 	0.32504 0.59621 0.82985 0.05500
C 	C 	0.48099 0.71076 0.24207 -0.13400
C 	C 	0.51899 0.71689 0.29365 0.20000
C 	C 	0.55474 0.76946 0.32030 -0.08100
C 	C 	0.55262 0.81539 0.29582 -0.02600
C 	C 	0.52575 0.81052 0.23422 -0.03000
C 	C 	0.48830 0.75823 0.20873 0.03100
H 	H 	0.57988 0.77364 0.36409 0.09600
H 	H 	0.46275 0.75472 0.16568 0.04600
Cl	Cl	0.52486 0.66039 0.32237 -0.31200
H 	H 	0.52743 0.84662 0.21167 0.06200
C 	C 	0.35079 0.30253 0.09013 -0.11000
C 	C 	0.34047 0.25332 0.12214 0.20000
C 	C 	0.38004 0.23606 0.11771 -0.07000
C 	C 	0.42717 0.26520 0.07659 -0.04000
C 	C 	0.42921 0.30537 0.03214 0.01200
C 	C 	0.38984 0.32269 0.03758 0.01100
H 	H 	0.37529 0.20188 0.14828 0.08900
H 	H 	0.39526 0.35760 0.00800 0.05400
Cl	Cl	0.28333 0.21877 0.17688 -0.30600
H 	H 	0.46273 0.32516 0.99590 0.01900
C 	C 	0.69679 0.48411 0.46597 -0.12900
C 	C 	0.75300 0.49794 0.46641 0.21100
C 	C 	0.76802 0.46037 0.44076 -0.08600
C 	C 	0.72784 0.41199 0.40826 -0.02100
C 	C 	0.67553 0.40597 0.39345 -0.03600
C 	C 	0.66088 0.44338 0.42027 0.03900
H 	H 	0.81036 0.46850 0.44661 0.09000
H 	H 	0.61860 0.43533 0.41408 0.04200
Cl	Cl	0.80393 0.56040 0.50239 -0.28700
H 	H 	0.64521 0.37086 0.36459 0.06500
C 	C 	0.82852 0.58895 0.70352 -0.12400
C 	C 	0.86431 0.57325 0.67235 0.21600
C 	C 	0.92210 0.60847 0.67583 -0.08400
C 	C 	0.94472 0.65400 0.71926 -0.02000
C 	C 	0.90967 0.67269 0.74420 -0.03300
C 	C 	0.85186 0.64065 0.73559 0.03600
H 	H 	0.94912 0.59707 0.65076 0.08700
H 	H 	0.82506 0.65433 0.75771 0.03300
Cl	Cl	0.83842 0.50664 0.63804 -0.30100
H 	H 	0.92668 0.70940 0.77531 0.05500
C 	C 	0.56240 0.52255 0.93247 -0.11100
C 	C 	0.55534 0.56253 0.96730 0.16600
C 	C 	0.53315 0.55139 0.03266 -0.03100
C 	C 	0.51539 0.49959 0.06238 -0.04900
C 	C 	0.52941 0.46316 0.03121 0.01300
C 	C 	0.55189 0.47408 0.96612 -0.01300
H 	H 	0.52432 0.58073 0.05740 0.06200
H 	H 	0.55983 0.44420 0.94124 0.03500
Cl	Cl	0.57358 0.62642 0.92968 -0.36300
H 	H 	0.51797 0.42393 0.05466 0.04400
C 	C 	0.45779 0.51959 0.42262 -0.12800
C 	C 	0.51361 0.53253 0.42950 0.20600
C 	C 	0.53486 0.53278 0.49305 -0.08200
C 	C 	0.50346 0.52657 0.55141 -0.04000
C 	C 	0.44949 0.51851 0.54514 -0.03200
C 	C 	0.42645 0.51447 0.48088 0.02600
H 	H 	0.57635 0.53837 0.49714 0.07900
H 	H 	0.38375 0.50548 0.47646 0.03800
Cl	Cl	0.55883 0.55215 0.35962 -0.28600
H 	H 	0.42454 0.51293 0.58955 0.05000
C 	C 	0.50412 0.24818 0.82174 -0.15900
C 	C 	0.55497 0.25119 0.80465 0.16200
C 	C 	0.60294 0.30296 0.79574 -0.10500
C 	C 	0.59898 0.35099 0.79841 -0.07700
C 	C 	0.54604 0.34619 0.79998 -0.05600
C 	C 	0.49844 0.29427 0.80758 0.02400
H 	H 	0.64299 0.30576 0.78791 0.07900
H 	H 	0.45834 0.29162 0.81410 0.03300
Cl	Cl	0.55914 0.19094 0.79525 -0.35100
H 	H 	0.54187 0.38267 0.79800 0.02400
C 	C 	0.62386 0.69602 0.56780 -0.11500
C 	C 	0.65286 0.75211 0.58730 0.20600
C 	C 	0.63004 0.78614 0.57426 -0.07800
C 	C 	0.57986 0.76551 0.53848 -0.02400
C 	C 	0.55562 0.71239 0.51042 -0.02800
C 	C 	0.57777 0.67800 0.52462 0.03500
H 	H 	0.65092 0.82825 0.59278 0.07800
H 	H 	0.55666 0.63630 0.50599 0.05300
Cl	Cl	0.71654 0.77943 0.63091 -0.30900
H 	H 	0.51814 0.69671 0.48027 0.06600
