data_crystal

_cell_length_a 24.00817
_cell_length_b 20.70113
_cell_length_c 47.64476
_cell_angle_alpha 90.55659
_cell_angle_beta  91.21033
_cell_angle_gamma 110.70832

_symmetry_space_group_name_	'P 1'
_symmetry_space_group_name_H-M	'P 1'

loop_
_symmetry_equiv_pos_as_xyz
  x,y,z

loop_
_atom_site_label
_atom_site_type_symbol
_atom_site_fract_x
_atom_site_fract_y
_atom_site_fract_z
_atom_site_charge
O 	O 	0.03454 0.02090 0.80406 -0.37300
H 	H 	0.02936 0.05978 0.73861 0.15100
Ni	Ni	0.03768 0.96351 0.76967 1.09300
O 	O 	0.03748 0.90769 0.73427 -0.71500
C 	C 	0.02263 0.86246 0.66873 0.24100
H 	H 	0.01266 0.77646 0.15255 0.06300
N 	N 	0.02199 0.75063 0.65175 -0.15800
C 	C 	0.02239 0.81461 0.64583 -0.00200
H 	H 	0.02989 0.73575 0.67193 0.06800
N 	N 	0.03819 0.09841 0.85473 -0.14600
C 	C 	0.02004 0.90633 0.17052 -0.08400
C 	C 	0.04067 0.46666 0.45231 0.00800
C 	C 	0.03106 0.49626 0.42700 0.05900
Br	Br	0.04925 0.57305 0.50113 -0.16100
C 	C 	0.07026 0.12532 0.83192 0.01000
C 	C 	0.07035 0.19156 0.82725 -0.05100
H 	H 	0.07606 0.21530 0.80682 0.02900
O 	O 	0.06087 0.03965 0.74086 -0.69200
H 	H 	0.06304 0.87941 0.73616 0.15700
C 	C 	0.07651 0.08107 0.80888 0.25700
Ni	Ni	0.00989 0.15180 0.20253 1.06000
C 	C 	0.03027 0.03003 0.17845 0.24900
C 	C 	0.00612 0.29509 0.07595 -0.09900
C 	C 	0.07044 0.67106 0.00426 0.13400
C 	C 	0.03620 0.20475 0.84805 0.03000
Ni	Ni	0.06919 0.98246 0.70636 1.09500
C 	C 	0.01225 0.16814 0.26532 0.23300
H 	H 	0.01973 0.26432 0.06090 0.07600
C 	C 	0.05019 0.80532 0.16614 -0.08800
C 	C 	0.02611 0.28603 0.28326 -0.06500
C 	C 	0.02441 0.87078 0.35489 -0.10300
C 	C 	0.01988 0.75558 0.34131 -0.00100
C 	C 	0.08009 0.56406 0.98696 0.13800
O 	O 	0.07028 0.91811 0.67374 -0.36200
O 	O 	0.04970 0.07940 0.19755 -0.39500
C 	C 	0.02805 0.40327 0.10168 -0.00200
C 	C 	0.03729 0.36629 0.07892 0.10500
C 	C 	0.05229 0.86668 0.17949 0.02100
C 	C 	0.05439 0.97407 0.17759 0.01100
H 	H 	0.06777 0.43028 0.27836 0.06000
Br	Br	0.06325 0.55074 0.37146 -0.18400
Br	Br	0.10565 0.76079 0.02220 -0.16700
O 	O 	0.04429 0.16602 0.24351 -0.40100
C 	C 	0.03646 0.22438 0.28595 0.02100
C 	C 	0.04940 0.81901 0.35484 0.10100
H 	H 	0.05064 0.92298 0.36175 0.07100
C 	C 	0.07876 0.52642 0.40909 0.12900
C 	C 	0.10221 0.62532 0.00356 -0.12200
H 	H 	0.08480 0.72333 0.13155 0.10600
C 	C 	0.07559 0.33679 0.29506 0.02800
C 	C 	0.06337 0.73026 0.33329 -0.02100
H 	H 	0.05805 0.69193 0.31682 0.05600
C 	C 	0.09787 0.46629 0.45930 0.07100
Br	Br	0.10918 0.41625 0.49155 -0.14600
Br	Br	0.12394 0.50200 0.98431 -0.22200
O 	O 	0.12211 0.96593 0.78191 -0.35600
O 	O 	0.12776 0.09660 0.79633 -0.39500
C 	C 	0.08024 0.45919 0.10619 -0.03700
C 	C 	0.10073 0.78653 0.16820 0.08200
C 	C 	0.09770 0.40513 0.28590 -0.08500
H 	H 	0.08442 0.50489 0.11858 0.05600
O 	O 	0.12057 0.06362 0.68275 -0.35600
Ni	Ni	0.13544 0.11103 0.75413 1.07000
C 	C 	0.10499 0.91203 0.19177 0.07000
N 	N 	0.11306 0.74647 0.14867 -0.15200
N 	N 	0.10519 0.97725 0.19120 -0.15400
C 	C 	0.15619 0.63917 0.02146 0.33900
N 	N 	0.09241 0.39747 0.06928 -0.15300
H 	H 	0.10751 0.38639 0.05005 0.11400
N 	N 	0.08961 0.23580 0.29912 -0.15100
N 	N 	0.10871 0.83310 0.35529 -0.15400
O 	O 	0.15866 0.15141 0.71461 -0.39300
O 	O 	0.15356 0.65016 0.04887 -0.35300
C 	C 	0.11845 0.45517 0.08523 0.01200
C 	C 	0.11384 0.30411 0.30445 0.08400
C 	C 	0.11714 0.78014 0.34165 0.01000
C 	C 	0.14667 0.50288 0.44286 0.12200
C 	C 	0.13733 0.53474 0.41806 -0.11200
O 	O 	0.17571 0.04096 0.74879 -0.42100
C 	C 	0.17124 0.99300 0.76734 0.25400
C 	C 	0.16646 0.11403 0.69372 0.26200
H 	H 	0.14318 0.02182 0.19338 0.09600
H 	H 	0.11453 0.20369 0.29680 0.09700
H 	H 	0.15730 0.54069 0.29601 0.10200
H 	H 	0.14114 0.88226 0.35818 0.09800
C 	C 	0.15331 0.83122 0.18090 0.01100
O 	O 	0.17272 0.52070 0.04712 -0.36300
C 	C 	0.16522 0.51630 0.07433 0.27900
O 	O 	0.20481 0.63549 0.01024 -0.37400
C 	C 	0.15733 0.89658 0.19119 -0.07800
C 	C 	0.15940 0.44111 0.28783 0.08100
O 	O 	0.17609 0.70958 0.34375 -0.35500
O 	O 	0.17735 0.69887 0.10734 -0.34800
C 	C 	0.17293 0.76575 0.14841 0.00400
N 	N 	0.18274 0.50905 0.29407 -0.15300
O 	O 	0.18907 0.63960 0.39391 -0.35800
C 	C 	0.17502 0.77160 0.34005 0.26800
C 	C 	0.18860 0.57873 0.40208 0.33400
C 	C 	0.20426 0.75234 0.12415 0.24800
O 	O 	0.19063 0.56995 0.09106 -0.38400
C 	C 	0.17559 0.33960 0.30593 -0.07900
H 	H 	0.20831 0.96453 0.81964 0.10900
Ni	Ni	0.22418 0.66951 0.07730 1.10600
C 	C 	0.19949 0.81809 0.16817 -0.05400
H 	H 	0.20020 0.93583 0.19635 0.05500
C 	C 	0.19770 0.40839 0.29727 0.01500
Br	Br	0.22623 0.51184 0.45499 -0.18000
C 	C 	0.22242 0.13928 0.67831 0.00900
H 	H 	0.21095 0.05858 0.64612 0.06500
C 	C 	0.22573 0.98027 0.77596 0.00500
H 	H 	0.01836 0.04544 0.85820 0.10500
C 	C 	0.01695 0.14611 0.86452 0.07200
O 	O 	0.21704 0.81695 0.32564 -0.38800
O 	O 	0.22013 0.60290 0.33984 -0.35300
O 	O 	0.22381 0.54991 0.39029 -0.37800
Ni	Ni	0.24957 0.57894 0.02770 1.09300
N 	N 	0.23818 0.97177 0.80330 -0.15100
C 	C 	0.23494 0.52014 0.30816 0.00600
H 	H 	0.20547 0.31434 0.31343 0.06600
C 	C 	0.24048 0.09895 0.65974 -0.04900
Ni	Ni	0.24505 0.69248 0.36381 1.10300
O 	O 	0.25601 0.79826 0.11747 -0.38700
H 	H 	0.24429 0.85543 0.16683 0.04100
C 	C 	0.24614 0.45875 0.31002 -0.04000
H 	H 	0.26396 0.24184 0.69450 0.09200
C 	C 	0.25702 0.57478 0.32988 0.26200
O 	O 	0.28669 0.65769 0.05281 -0.70000
N 	N 	0.26842 0.19750 0.68572 -0.15200
H 	H 	0.00997 0.28329 0.82766 0.06100
H 	H 	0.30255 0.69895 0.04111 0.18800
C 	C 	0.27872 0.00886 0.76151 -0.04500
H 	H 	0.28293 0.03286 0.74117 0.05100
O 	O 	0.29650 0.52289 0.04614 -0.39700
O 	O 	0.29299 0.68146 0.10554 -0.70000
H 	H 	0.28057 0.65000 0.12159 0.15700
H 	H 	0.27349 0.44834 0.32649 0.05800
C 	C 	0.29782 0.99898 0.80663 0.08400
C 	C 	0.29980 0.13583 0.65491 0.02000
O 	O 	0.30675 0.74364 0.33503 -0.69800
H 	H 	0.30248 0.71844 0.31688 0.15800
O 	O 	0.30706 0.58272 0.34341 -0.40300
Br	Br	0.32614 0.33230 0.94146 -0.15000
H 	H 	0.30960 0.96382 0.84831 0.07500
Ni	Ni	0.30907 0.83892 0.32997 1.07200
O 	O 	0.30761 0.85246 0.37241 -0.40800
O 	O 	0.31952 0.69380 0.38360 -0.70600
Ni	Ni	0.31407 0.59705 0.38574 1.08800
C 	C 	0.31550 0.19630 0.67109 0.07500
H 	H 	0.31532 0.08655 0.61703 0.07100
C 	C 	0.32389 0.02290 0.78148 0.01700
H 	H 	0.32378 0.71583 0.40239 0.20000
O 	O 	0.35150 0.81445 0.07951 -0.39300
C 	C 	0.35466 0.54435 0.04419 0.32200
C 	C 	0.32800 0.13353 0.62969 -0.08400
Br	Br	0.31297 0.83352 0.01620 -0.19100
C 	C 	0.33003 0.98231 0.82848 -0.07500
O 	O 	0.00209 0.87458 0.79228 -0.36200
Br	Br	0.35883 0.40509 0.06756 -0.18200
Ni	Ni	0.34939 0.65495 0.08194 1.10500
Ni	Ni	0.33394 0.77594 0.11876 1.06900
C 	C 	0.38099 0.50879 0.02455 -0.12300
C 	C 	0.38139 0.44264 0.03087 0.12700
C 	C 	0.00097 0.24579 0.84425 -0.09900
C 	C 	0.39891 0.53707 0.99802 0.11900
Br	Br	0.39563 0.62634 0.98885 -0.20600
C 	C 	0.39915 0.40450 0.01060 0.06500
Br	Br	0.39770 0.31286 0.01880 -0.13000
Br	Br	0.32929 0.80963 0.45068 -0.18400
C 	C 	0.35582 0.86300 0.38809 0.32900
O 	O 	0.38793 0.60341 0.05612 -0.34700
Br	Br	0.35983 0.08337 0.48507 -0.14500
C 	C 	0.36168 0.25646 0.66297 -0.07900
Br	Br	0.37883 0.01340 0.36481 -0.21100
Br	Br	0.39141 0.95427 0.97236 -0.14200
C 	C 	0.37185 0.91770 0.40997 -0.11600
Br	Br	0.37866 0.65581 0.44971 -0.22500
C 	C 	0.37371 0.19361 0.62148 0.09400
H 	H 	0.37431 0.30347 0.67559 0.06000
Br	Br	0.39274 0.27787 0.89021 -0.16800
C 	C 	0.38326 0.03143 0.77655 -0.08000
C 	C 	0.37570 0.90048 0.43822 0.12500
C 	C 	0.39249 0.80398 0.06424 0.32700
Ni	Ni	0.38241 0.74958 0.35634 1.10000
C 	C 	0.39789 0.87753 0.02224 0.12400
C 	C 	0.02516 0.54722 0.97252 0.03600
C 	C 	0.39379 0.98765 0.40223 0.13000
C 	C 	0.38959 0.25424 0.63754 0.01800
C 	C 	0.39028 0.99227 0.82405 0.01700
O 	O 	0.39712 0.83857 0.38018 -0.35100
C 	C 	0.01421 0.65253 0.99070 0.04000
H 	H 	0.40342 0.05092 0.75677 0.05500
O 	O 	0.39944 0.88824 0.32951 -0.37600
O 	O 	0.40503 0.62055 0.38197 -0.38400
O 	O 	0.40678 0.74847 0.06767 -0.34400
C 	C 	0.41137 0.35579 0.94270 0.06600
O 	O 	0.40992 0.66003 0.11311 -0.36000
C 	C 	0.41031 0.95099 0.45766 0.06700
O 	O 	0.41734 0.77125 0.12377 -0.38500
N 	N 	0.42001 0.19243 0.60640 -0.14700
C 	C 	0.41846 0.43348 0.98433 0.01800
C 	C 	0.41787 0.49957 0.97798 0.06600
C 	C 	0.41689 0.01808 0.79875 0.08400
Br	Br	0.42344 0.92531 0.49535 -0.14500
H 	H 	0.42506 0.14748 0.59861 0.11100
C 	C 	0.42615 0.03887 0.42195 0.06600
C 	C 	0.42696 0.85826 0.04498 -0.11400
H 	H 	0.42645 0.02241 0.86656 0.07700
C 	C 	0.42910 0.71496 0.13001 0.25200
C 	C 	0.43088 0.92881 0.00378 0.06800
C 	C 	0.43646 0.86241 0.31788 0.25000
C 	C 	0.43649 0.02013 0.44937 0.02100
C 	C 	0.43457 0.01481 0.84470 -0.03000
Br	Br	0.43855 0.19082 0.53537 -0.16000
C 	C 	0.43938 0.33165 0.92143 0.13300
O 	O 	0.44135 0.80554 0.32770 -0.36000
H 	H 	0.99811 0.29539 0.26683 0.05000
O 	O 	0.99104 0.15436 0.16056 -0.38300
C 	C 	0.98890 0.37021 0.12279 -0.05600
H 	H 	0.96268 0.15910 0.09350 0.07200
H 	H 	0.98973 0.39586 0.14281 0.05500
O 	O 	0.98238 0.02354 0.16348 -0.34800
O 	O 	0.96637 0.11355 0.27185 -0.34200
H 	H 	0.97441 0.95945 0.33092 0.07200
C 	C 	0.96661 0.74385 0.32598 -0.05400
C 	C 	0.96741 0.85548 0.34261 0.04600
C 	C 	0.96114 0.26376 0.09505 0.04600
C 	C 	0.94901 0.90450 0.32997 -0.04400
C 	C 	0.93964 0.79385 0.32762 0.07300
Ni	Ni	0.73050 0.30328 0.88171 1.10200
O 	O 	0.66490 0.23171 0.85827 -0.70300
Ni	Ni	0.59087 0.24152 0.87440 1.10000
O 	O 	0.79675 0.27455 0.86522 -0.35100
O 	O 	0.75234 0.16124 0.87664 -0.38400
O 	O 	0.75191 0.37319 0.84926 -0.35400
Ni	Ni	0.66199 0.13806 0.86696 1.07200
O 	O 	0.75114 0.45745 0.89552 -0.38300
O 	O 	0.65656 0.15286 0.90902 -0.39700
O 	O 	0.53078 0.16866 0.84930 -0.35900
O 	O 	0.65683 0.31300 0.89821 -0.69500
O 	O 	0.79132 0.37575 0.90672 -0.35500
O 	O 	0.52361 0.26910 0.89105 -0.33700
O 	O 	0.57064 0.38377 0.88468 -0.38600
Ni	Ni	0.66126 0.40839 0.89111 1.09200
H 	H 	0.66766 0.24069 0.83788 0.15700
H 	H 	0.65465 0.30224 0.91844 0.19900
C 	C 	0.60582 0.14730 0.91993 0.34100
O 	O 	0.66637 0.39676 0.84915 -0.41000
C 	C 	0.79724 0.21139 0.86616 0.25700
C 	C 	0.53545 0.10760 0.84561 0.25000
C 	C 	0.71752 0.40406 0.83814 0.27100
C 	C 	0.53253 0.33343 0.89825 0.33300
C 	C 	0.78616 0.43606 0.91170 0.33500
O 	O 	0.56879 0.17076 0.90648 -0.34900
O 	O 	0.57149 0.08837 0.86218 -0.37500
Ni	Ni	0.62324 0.35013 0.56637 1.10400
O 	O 	0.69294 0.35901 0.54062 -0.69700
Ni	Ni	0.74598 0.32919 0.56656 1.10400
O 	O 	0.59334 0.41741 0.54458 -0.34200
O 	O 	0.68752 0.49626 0.54330 -0.40100
O 	O 	0.56786 0.27188 0.54075 -0.34200
Ni	Ni	0.73934 0.44739 0.52465 1.08500
O 	O 	0.54022 0.21476 0.59274 -0.38700
O 	O 	0.80510 0.48890 0.55451 -0.36700
O 	O 	0.82495 0.35858 0.54511 -0.35000
O 	O 	0.67017 0.30643 0.58920 -0.70500
O 	O 	0.55470 0.33122 0.59330 -0.35600
O 	O 	0.77992 0.27780 0.59476 -0.35400
O 	O 	0.69834 0.17855 0.58861 -0.38100
Ni	Ni	0.62383 0.20850 0.59087 1.06800
H 	H 	0.67966 0.32474 0.52501 0.18300
H 	H 	0.67823 0.32733 0.60832 0.15700
C 	C 	0.79687 0.47944 0.58143 0.27200
O 	O 	0.61433 0.19429 0.54850 -0.39400
C 	C 	0.63071 0.47739 0.53647 0.32300
C 	C 	0.83369 0.38701 0.51994 0.33800
C 	C 	0.57698 0.21479 0.53379 0.33000
C 	C 	0.75095 0.21245 0.60062 0.24600
C 	C 	0.52598 0.26768 0.60203 0.25300
O 	O 	0.77815 0.41671 0.59150 -0.37400
O 	O 	0.79139 0.40167 0.50611 -0.38500
O 	O 	0.92239 0.83293 0.76180 -0.40300
Ni	Ni	0.95616 0.85230 0.72163 1.06700
O 	O 	0.92590 0.93319 0.72077 -0.40100
C 	C 	0.94518 0.98333 0.70277 0.25900
C 	C 	0.95359 0.82405 0.78346 0.26000
O 	O 	0.99354 0.99174 0.68860 -0.35300
O 	O 	0.97113 0.85760 0.67958 -0.38700
O 	O 	0.45066 0.73733 0.38002 -0.33800
C 	C 	0.44401 0.67834 0.39214 0.32800
Ni	Ni	0.93679 0.02826 0.24565 1.09800
O 	O 	0.93113 0.08722 0.21263 -0.70700
Ni	Ni	0.90411 0.01616 0.18183 1.10000
O 	O 	0.85002 0.01386 0.25696 -0.35800
O 	O 	0.85567 0.88714 0.26731 -0.39500
O 	O 	0.89458 0.08184 0.15211 -0.35400
O 	O 	0.91991 0.95762 0.21402 -0.69500
O 	O 	0.94643 0.96896 0.27768 -0.37600
O 	O 	0.86140 0.93513 0.15496 -0.34900
O 	O 	0.83037 0.84201 0.18327 -0.39000
Ni	Ni	0.85048 0.87789 0.22445 1.06900
H 	H 	0.90231 0.11091 0.21548 0.16000
H 	H 	0.95447 0.94304 0.21162 0.16100
O 	O 	0.80112 0.93914 0.22103 -0.42400
C 	C 	0.93679 0.14319 0.15009 0.24800
C 	C 	0.80134 0.98292 0.24120 0.25800
C 	C 	0.81905 0.88013 0.16370 0.26500
C 	C 	0.90626 0.90799 0.28197 0.26000
C 	C 	0.95332 0.30031 0.11844 0.07300
N 	N 	0.93271 0.25708 0.13983 -0.15100
C 	C 	0.92809 0.19333 0.13067 0.01600
C 	C 	0.94497 0.19550 0.10286 -0.04100
H 	H 	0.93877 0.27268 0.16097 0.07100
C 	C 	0.67123 0.78606 0.14201 0.09100
C 	C 	0.62455 0.72325 0.14571 -0.08000
C 	C 	0.57147 0.72508 0.15686 0.02100
C 	C 	0.56658 0.78736 0.16559 0.08000
C 	C 	0.61473 0.84970 0.16300 -0.07900
C 	C 	0.66531 0.84823 0.14937 0.02600
N 	N 	0.72896 0.79243 0.14272 -0.14900
C 	C 	0.76009 0.85886 0.15016 0.00900
C 	C 	0.72202 0.89506 0.15443 -0.04200
N 	N 	0.51001 0.78422 0.16214 -0.15200
C 	C 	0.47907 0.72244 0.14979 0.01100
C 	C 	0.51562 0.68358 0.14689 -0.04100
H 	H 	0.62866 0.67480 0.13934 0.07100
H 	H 	0.61124 0.89827 0.16970 0.06100
H 	H 	0.73240 0.94005 0.16817 0.04500
H 	H 	0.50831 0.64300 0.13117 0.07400
H 	H 	0.74409 0.75146 0.14603 0.10100
H 	H 	0.49791 0.82791 0.16055 0.09400
H 	H 	0.98379 0.89052 0.15506 0.07900
C 	C 	0.64948 0.93454 0.25622 0.07900
C 	C 	0.58868 0.91558 0.24948 -0.07900
C 	C 	0.55292 0.93387 0.26863 0.01800
C 	C 	0.57698 0.96912 0.29366 0.09000
C 	C 	0.63824 0.98840 0.30015 -0.07900
C 	C 	0.67338 0.96865 0.28120 0.02400
N 	N 	0.69183 0.94653 0.23698 -0.15200
C 	C 	0.74380 0.98647 0.24974 0.00700
C 	C 	0.73339 0.00345 0.27707 -0.04200
N 	N 	0.53526 0.95348 0.31343 -0.14900
C 	C 	0.48495 0.90824 0.30133 0.02000
C 	C 	0.49423 0.89432 0.27359 -0.05500
H 	H 	0.56995 0.88790 0.23009 0.05500
H 	H 	0.65723 0.01570 0.31957 0.07700
H 	H 	0.76689 0.02295 0.29367 0.07100
H 	H 	0.46917 0.84686 0.26231 0.04200
H 	H 	0.68774 0.91780 0.21840 0.08900
H 	H 	0.54470 0.95708 0.33505 0.11800
N 	N 	0.90543 0.80369 0.30650 -0.14900
C 	C 	0.91165 0.87114 0.30749 0.01400
H 	H 	0.94979 0.70077 0.31122 0.06000
H 	H 	0.89410 0.77310 0.28818 0.07600
C 	C 	0.54145 0.17060 0.51040 -0.11200
C 	C 	0.47874 0.15251 0.50892 0.12500
C 	C 	0.44490 0.10523 0.48822 0.06800
C 	C 	0.47287 0.07355 0.46980 0.01800
C 	C 	0.53533 0.09284 0.47069 0.06800
C 	C 	0.56974 0.14351 0.49017 0.12400
Br	Br	0.57353 0.04893 0.44552 -0.13800
Br	Br	0.45709 0.13457 0.41140 -0.13800
Br	Br	0.65536 0.17977 0.48766 -0.17100
C 	C 	0.89123 0.39997 0.50645 -0.11300
C 	C 	0.89584 0.35584 0.48466 0.12500
C 	C 	0.94702 0.37537 0.46819 0.06700
C 	C 	0.99182 0.44079 0.47249 0.02800
C 	C 	0.98856 0.48306 0.49529 0.07200
C 	C 	0.93986 0.46069 0.51317 0.12200
Br	Br	0.83228 0.26873 0.47754 -0.15100
Br	Br	0.95316 0.49822 0.41750 -0.14500
Br	Br	0.94136 0.51108 0.54755 -0.17600
Br	Br	0.95572 0.31321 0.43964 -0.13600
C 	C 	0.48262 0.67595 0.41619 -0.11800
C 	C 	0.45696 0.65494 0.44241 0.12300
C 	C 	0.48800 0.63222 0.46305 0.06700
C 	C 	0.54585 0.63337 0.45794 0.01900
C 	C 	0.57456 0.66339 0.43329 0.06700
C 	C 	0.54255 0.68355 0.41213 0.13100
C 	C 	0.57326 0.59576 0.47671 0.01700
C 	C 	0.60263 0.62729 0.50187 0.06500
C 	C 	0.61938 0.58780 0.52197 0.12600
C 	C 	0.61076 0.51802 0.51602 -0.12800
C 	C 	0.58596 0.48821 0.48979 0.12000
C 	C 	0.56525 0.52626 0.47062 0.06600
Br	Br	0.65685 0.67438 0.42823 -0.15000
Br	Br	0.65152 0.62830 0.55813 -0.18700
Br	Br	0.52432 0.48273 0.43632 -0.14800
Br	Br	0.57964 0.71807 0.37715 -0.16600
Br	Br	0.45004 0.59553 0.49767 -0.13300
Br	Br	0.61937 0.72438 0.50875 -0.14100
Br	Br	0.58375 0.39686 0.47941 -0.19500
C 	C 	0.80200 0.09291 0.63688 0.08300
C 	C 	0.79226 0.04778 0.65953 -0.08000
C 	C 	0.83882 0.05847 0.67940 0.01000
C 	C 	0.89338 0.11179 0.67656 0.08100
C 	C 	0.90250 0.15791 0.65427 -0.08200
C 	C 	0.85642 0.14636 0.63417 0.02200
N 	N 	0.75820 0.10878 0.62398 -0.15000
C 	C 	0.78440 0.17237 0.61337 0.01500
C 	C 	0.84532 0.19761 0.61924 -0.04000
N 	N 	0.93748 0.09403 0.68804 -0.15400
C 	C 	0.91173 0.02966 0.69804 0.00100
C 	C 	0.85046 0.00584 0.69313 -0.03900
H 	H 	0.75005 0.00589 0.66161 0.05900
H 	H 	0.94468 0.19982 0.65215 0.06600
H 	H 	0.87299 0.25184 0.62021 0.06600
H 	H 	0.82281 0.95173 0.69105 0.05000
H 	H 	0.71311 0.08724 0.62875 0.08400
H 	H 	0.98210 0.11531 0.68241 0.09600
C 	C 	0.46552 0.25182 0.61273 0.02400
C 	C 	0.44871 0.29194 0.63200 -0.04100
H 	H 	0.47918 0.33042 0.64602 0.05000
C 	C 	0.87120 0.64721 0.60941 0.08800
C 	C 	0.90684 0.71350 0.60115 -0.07500
C 	C 	0.96429 0.74310 0.61329 0.01900
C 	C 	0.98586 0.70669 0.63249 0.09500
C 	C 	0.95158 0.63809 0.63893 -0.08000
C 	C 	0.89308 0.61052 0.62806 0.01300
N 	N 	0.82769 0.60371 0.59291 -0.15000
C 	C 	0.82186 0.53900 0.60070 0.01300
C 	C 	0.86215 0.54112 0.62247 -0.04000
C 	C 	0.98860 0.81187 0.62145 -0.02100
H 	H 	0.88977 0.74206 0.58648 0.07200
H 	H 	0.96854 0.60906 0.65343 0.06100
H 	H 	0.87980 0.50053 0.62650 0.06400
H 	H 	0.96768 0.84927 0.61672 0.06300
H 	H 	0.81526 0.61620 0.57311 0.10800
C 	C 	0.99139 0.59025 0.97507 0.05000
C 	C 	0.93176 0.56920 0.96138 0.00900
C 	C 	0.92673 0.58369 0.93287 0.06800
C 	C 	0.87772 0.54160 0.91652 0.12900
C 	C 	0.83236 0.48719 0.92917 -0.11400
C 	C 	0.83358 0.47927 0.95847 0.12100
C 	C 	0.88292 0.52128 0.97466 0.07300
Br	Br	0.96793 0.71163 0.99387 -0.12600
Br	Br	0.87540 0.55466 0.87656 -0.18500
Br	Br	0.88587 0.51013 0.01471 -0.14700
Br	Br	0.99541 0.46423 0.94940 -0.14000
Br	Br	0.98948 0.65775 0.91587 -0.14600
Br	Br	0.76904 0.40880 0.97613 -0.16300
C 	C 	0.58449 0.10176 0.94418 -0.11700
C 	C 	0.57858 0.03135 0.94236 0.13600
C 	C 	0.55075 0.98611 0.96388 0.06100
C 	C 	0.52824 0.01060 0.98709 0.02300
C 	C 	0.53673 0.08135 0.98964 0.06700
C 	C 	0.56507 0.12695 0.96827 0.12700
C 	C 	0.49287 0.96119 0.00802 0.01700
C 	C 	0.48872 0.89262 0.04982 0.12600
C 	C 	0.52162 0.94376 0.03126 0.06800
Br	Br	0.50848 0.11532 0.02219 -0.13400
Br	Br	0.60635 0.99586 0.91001 -0.22500
Br	Br	0.60625 0.98971 0.03745 -0.14700
Br	Br	0.57815 0.22407 0.97216 -0.15800
Br	Br	0.54202 0.88986 0.96130 -0.13600
Br	Br	0.52781 0.87199 0.08255 -0.17600
C 	C 	0.44581 0.39821 0.96470 0.02100
C 	C 	0.50743 0.41195 0.96667 0.06700
C 	C 	0.53556 0.38839 0.94544 0.13500
C 	C 	0.50179 0.34946 0.92239 -0.12400
Br	Br	0.44381 0.53888 0.94187 -0.15200
Br	Br	0.62065 0.41147 0.94764 -0.28300
Br	Br	0.55365 0.46526 0.99815 -0.13000
C 	C 	0.95028 0.23196 0.86063 0.10500
C 	C 	0.96284 0.12824 0.87852 -0.06000
C 	C 	0.93214 0.17455 0.87779 0.01400
N 	N 	0.90307 0.24897 0.85274 -0.15100
C 	C 	0.85474 0.20154 0.86390 0.00900
C 	C 	0.87113 0.15540 0.88004 -0.03400
H 	H 	0.94306 0.07770 0.88762 0.06800
H 	H 	0.84130 0.10506 0.88626 0.06300
H 	H 	0.90180 0.27986 0.83569 0.09700
N 	N 	0.47511 0.05512 0.80324 -0.15500
C 	C 	0.48615 0.05337 0.83109 0.01600
H 	H 	0.50026 0.09449 0.79017 0.08000
C 	C 	0.81777 0.54158 0.80090 0.08400
C 	C 	0.87834 0.58380 0.80219 -0.07700
C 	C 	0.89311 0.65327 0.81040 0.03000
C 	C 	0.84927 0.68075 0.81556 0.08900
C 	C 	0.78873 0.63928 0.81332 -0.07800
C 	C 	0.77377 0.56935 0.80571 0.01500
N 	N 	0.79846 0.47447 0.80789 -0.15000
C 	C 	0.74260 0.45900 0.81752 0.00800
C 	C 	0.72567 0.51673 0.81617 -0.04000
N 	N 	0.86958 0.74885 0.81042 -0.14900
C 	C 	0.92624 0.76531 0.80183 0.01400
C 	C 	0.94236 0.70697 0.80147 -0.04200
H 	H 	0.91272 0.56257 0.79815 0.06600
H 	H 	0.75446 0.66065 0.81741 0.06300
H 	H 	0.69302 0.52531 0.82962 0.05300
H 	H 	0.97560 0.70028 0.78786 0.04400
H 	H 	0.82677 0.44787 0.81339 0.10800
H 	H 	0.84215 0.77680 0.80527 0.09700
