data_crystal

_cell_length_a 43.79302
_cell_length_b 40.16566
_cell_length_c 37.35442
_cell_angle_alpha 89.55542
_cell_angle_beta  89.99977
_cell_angle_gamma 89.99976

_symmetry_space_group_name_	'P 1'
_symmetry_space_group_name_H-M	'P 1'

loop_
_symmetry_equiv_pos_as_xyz
  x,y,z

loop_
_atom_site_label
_atom_site_type_symbol
_atom_site_fract_x
_atom_site_fract_y
_atom_site_fract_z
_atom_site_charge
C 	C 	0.56085 0.53878 0.10277 0.10200
N 	N 	0.55091 0.50898 0.09130 -0.17200
C 	C 	0.57065 0.48609 0.10406 0.10200
C 	C 	0.57344 0.45246 0.08839 -0.07600
C 	C 	0.54571 0.43300 0.08011 0.09000
C 	C 	0.60387 0.43779 0.08173 0.04900
C 	C 	0.62402 0.45311 0.05752 -0.06400
C 	C 	0.65143 0.43746 0.04840 -0.01300
C 	C 	0.65881 0.40626 0.06331 -0.02000
C 	C 	0.61178 0.40726 0.09768 -0.06200
N 	N 	0.51812 0.43987 0.09425 -0.12800
C 	C 	0.54319 0.41164 0.05139 -0.06100
C 	C 	0.49804 0.42208 0.07485 0.09000
C 	C 	0.46473 0.42745 0.07648 -0.07800
C 	C 	0.44396 0.39966 0.06798 0.04900
C 	C 	0.42344 0.34510 0.08239 -0.01200
C 	C 	0.42645 0.40053 0.03656 -0.06400
C 	C 	0.40764 0.37360 0.02790 -0.01300
C 	C 	0.40603 0.34577 0.05083 -0.02000
N 	N 	0.46371 0.48902 0.08148 -0.17300
C 	C 	0.44241 0.51161 0.09058 0.10100
C 	C 	0.41735 0.49599 0.10595 -0.06200
C 	C 	0.42375 0.46231 0.10606 -0.06300
C 	C 	0.44211 0.54597 0.07580 -0.07700
C 	C 	0.41284 0.56307 0.06845 0.04900
C 	C 	0.37812 0.60889 0.07958 -0.01300
C 	C 	0.35802 0.59672 0.05343 -0.02000
C 	C 	0.36556 0.56754 0.03483 -0.01300
C 	C 	0.39292 0.55088 0.04224 -0.06400
N 	N 	0.49581 0.55821 0.09252 -0.12800
C 	C 	0.50836 0.59331 0.04749 -0.06100
C 	C 	0.51852 0.57609 0.07743 0.08900
C 	C 	0.55106 0.57056 0.08600 -0.07700
C 	C 	0.57347 0.59736 0.07893 0.04800
C 	C 	0.56977 0.62858 0.09490 -0.06200
C 	C 	0.58911 0.65494 0.08561 -0.01200
C 	C 	0.61232 0.65032 0.06017 -0.02000
C 	C 	0.61661 0.61872 0.04506 -0.01300
C 	C 	0.59724 0.59237 0.05440 -0.06400
C 	C 	0.58709 0.53501 0.12312 -0.06300
C 	C 	0.59336 0.50130 0.12396 -0.06200
C 	C 	0.63909 0.39153 0.08847 -0.01200
C 	C 	0.51256 0.40462 0.04804 -0.06100
C 	C 	0.45243 0.45899 0.09082 0.10200
C 	C 	0.47776 0.58606 0.04435 -0.06200
C 	C 	0.47093 0.56478 0.07246 0.08900
C 	C 	0.40531 0.59209 0.08710 -0.06200
H 	H 	0.53739 0.50569 0.06854 0.09300
H 	H 	0.48022 0.49282 0.06166 0.09300
H 	H 	0.58587 0.67900 0.09794 0.04400
H 	H 	0.63438 0.61480 0.02536 0.04100
H 	H 	0.55162 0.63255 0.11411 0.05100
H 	H 	0.60025 0.56831 0.04196 0.04700
H 	H 	0.66644 0.44909 0.02894 0.04200
H 	H 	0.59648 0.39542 0.11669 0.05100
H 	H 	0.64475 0.36771 0.10056 0.04300
H 	H 	0.61809 0.47671 0.04510 0.04700
H 	H 	0.39415 0.37449 0.00360 0.04200
H 	H 	0.42758 0.42192 0.01877 0.04800
C 	C 	0.44239 0.37188 0.09084 -0.06300
H 	H 	0.42249 0.32370 0.10018 0.04300
H 	H 	0.37282 0.63153 0.09387 0.04200
H 	H 	0.42058 0.60167 0.10738 0.05100
H 	H 	0.39863 0.52853 0.02763 0.04800
H 	H 	0.35018 0.55766 0.01485 0.04400
H 	H 	0.60388 0.55432 0.12758 0.05100
H 	H 	0.61571 0.49080 0.12916 0.05100
H 	H 	0.55968 0.40969 0.02992 0.04900
H 	H 	0.50177 0.39639 0.02357 0.04900
H 	H 	0.39459 0.50640 0.10733 0.05100
H 	H 	0.40663 0.44290 0.10733 0.05100
H 	H 	0.52277 0.60148 0.02556 0.04900
H 	H 	0.46483 0.58792 0.01971 0.04900
H 	H 	0.45590 0.37104 0.11513 0.05100
Co	Co	0.32718 0.17067 0.98558 1.18000
Co	Co	0.27638 0.19934 0.03543 1.09800
O 	O 	0.35869 0.14776 0.95440 -0.37600
O 	O 	0.32939 0.17907 0.92343 -0.31300
O 	O 	0.33668 0.15583 0.03479 -0.41600
O 	O 	0.31638 0.22069 0.04555 -0.44100
C 	C 	0.31574 0.14271 0.05587 0.31400
C 	C 	0.35250 0.15916 0.92297 0.30000
O 	O 	0.28716 0.15265 0.05361 -0.43200
O 	O 	0.33798 0.21723 0.99014 -0.41600
C 	C 	0.33362 0.23345 0.02015 0.27500
O 	O 	0.29154 0.14372 0.97759 -0.41300
O 	O 	0.26173 0.18885 0.98663 -0.46100
C 	C 	0.26515 0.15867 0.97410 0.28400
S 	S 	0.42756 0.94423 0.52890 -0.00200
C 	C 	0.44547 0.94482 0.56965 -0.01600
C 	C 	0.46443 0.91678 0.57434 -0.01500
S 	S 	0.46420 0.89156 0.53761 -0.00300
C 	C 	0.43937 0.90912 0.50876 -0.00700
C 	C 	0.44187 0.90576 0.46978 -0.00700
S 	S 	0.47550 0.90420 0.44798 -0.00300
C 	C 	0.46872 0.92067 0.40630 -0.01500
C 	C 	0.43799 0.93047 0.40236 -0.01500
S 	S 	0.41752 0.92398 0.44083 -0.00300
C 	C 	0.53151 0.90912 0.31942 0.01000
C 	C 	0.50214 0.89531 0.31731 -0.03900
C 	C 	0.48162 0.89901 0.34566 -0.04100
C 	C 	0.49020 0.91686 0.37623 0.01900
C 	C 	0.51956 0.93066 0.37833 -0.04300
C 	C 	0.54013 0.92684 0.35003 -0.03900
H 	H 	0.49534 0.88144 0.29386 0.04100
H 	H 	0.45915 0.88784 0.34398 0.04300
H 	H 	0.52638 0.94448 0.40181 0.04200
H 	H 	0.56273 0.93766 0.35185 0.04100
C 	C 	0.40194 0.98579 0.31355 0.01000
C 	C 	0.42924 0.99591 0.32988 -0.03900
C 	C 	0.44111 0.97781 0.35880 -0.04200
C 	C 	0.42593 0.94924 0.37140 0.01900
C 	C 	0.39879 0.93899 0.35489 -0.04400
C 	C 	0.38683 0.95718 0.32610 -0.03900
H 	H 	0.44113 0.01788 0.32029 0.04100
H 	H 	0.46192 0.98613 0.37159 0.04300
H 	H 	0.38697 0.91692 0.36435 0.04200
H 	H 	0.36570 0.94923 0.31373 0.04000
C 	C 	0.41568 0.00721 0.65523 0.01000
C 	C 	0.41211 0.97255 0.65779 -0.03900
C 	C 	0.42168 0.95216 0.62979 -0.04100
C 	C 	0.43521 0.96623 0.59915 0.02000
C 	C 	0.43866 0.00087 0.59650 -0.04300
C 	C 	0.42897 0.02129 0.62445 -0.03900
H 	H 	0.40195 0.96143 0.68148 0.04200
H 	H 	0.41854 0.92546 0.63188 0.04400
H 	H 	0.44899 0.01194 0.57290 0.04200
H 	H 	0.43171 0.04803 0.62215 0.04100
C 	C 	0.52060 0.89745 0.66593 0.01000
C 	C 	0.52185 0.92856 0.64863 -0.03900
C 	C 	0.50343 0.93496 0.61880 -0.04200
C 	C 	0.48344 0.91036 0.60619 0.01900
C 	C 	0.48197 0.87940 0.62373 -0.04300
C 	C 	0.50047 0.87296 0.65346 -0.03900
H 	H 	0.53723 0.94768 0.65816 0.04100
H 	H 	0.50486 0.95889 0.60533 0.04300
H 	H 	0.46645 0.86035 0.61436 0.04300
H 	H 	0.49938 0.84885 0.66661 0.04100
Co	Co	0.69389 0.82504 0.99219 1.18000
Co	Co	0.72240 0.76805 0.94672 1.09800
O 	O 	0.67113 0.85967 0.02125 -0.37400
O 	O 	0.69833 0.82829 0.05458 -0.31400
O 	O 	0.68293 0.83434 0.94187 -0.41500
O 	O 	0.74302 0.81115 0.93640 -0.44200
C 	C 	0.67217 0.81097 0.92081 0.31300
C 	C 	0.67982 0.85326 0.05349 0.29900
O 	O 	0.68082 0.77981 0.92515 -0.43200
O 	O 	0.73669 0.83703 0.99003 -0.41500
C 	C 	0.75351 0.83048 0.96180 0.27300
O 	O 	0.66849 0.78655 0.99969 -0.41400
O 	O 	0.70977 0.75301 0.99513 -0.46100
C 	C 	0.68156 0.75775 0.00571 0.28600
Co	Co	0.19246 0.67540 0.98853 1.18000
Co	Co	0.21911 0.73159 0.03618 1.09800
O 	O 	0.17129 0.64141 0.95705 -0.37400
O 	O 	0.20061 0.67309 0.92663 -0.31300
O 	O 	0.17878 0.66552 0.03782 -0.41500
O 	O 	0.23886 0.68828 0.04795 -0.44300
C 	C 	0.16765 0.68886 0.05869 0.31300
C 	C 	0.18200 0.64824 0.92575 0.29900
O 	O 	0.17650 0.72000 0.05480 -0.43300
O 	O 	0.23504 0.66335 0.99350 -0.41800
C 	C 	0.25014 0.66865 0.02330 0.27600
O 	O 	0.16759 0.71400 0.97979 -0.41500
O 	O 	0.20874 0.74726 0.98722 -0.46000
C 	C 	0.18103 0.74274 0.97483 0.28600
S 	S 	0.97157 0.59686 0.53532 -0.00200
C 	C 	0.96949 0.57570 0.57521 -0.01600
C 	C 	0.94243 0.55683 0.57769 -0.01500
S 	S 	0.92036 0.56084 0.54007 -0.00400
C 	C 	0.93925 0.58752 0.51306 -0.00700
C 	C 	0.93716 0.58671 0.47381 -0.00700
S 	S 	0.92725 0.55247 0.45074 -0.00200
C 	C 	0.94517 0.55609 0.41018 -0.01500
C 	C 	0.96240 0.58562 0.40775 -0.01500
S 	S 	0.96091 0.60797 0.44652 -0.00300
C 	C 	0.92618 0.49524 0.31937 0.01000
C 	C 	0.91930 0.52936 0.31838 -0.03900
C 	C 	0.92492 0.54913 0.34828 -0.04100
C 	C 	0.93766 0.53499 0.37935 0.02000
C 	C 	0.94409 0.50080 0.38055 -0.04300
C 	C 	0.93844 0.48100 0.35065 -0.03900
H 	H 	0.90961 0.54052 0.29445 0.04200
H 	H 	0.91955 0.57545 0.34724 0.04400
H 	H 	0.95394 0.48970 0.40442 0.04200
H 	H 	0.94385 0.45469 0.35165 0.04100
C 	C 	0.02087 0.60847 0.31920 0.01000
C 	C 	0.02371 0.57788 0.33727 -0.03900
C 	C 	0.00501 0.57063 0.36661 -0.04200
C 	C 	0.98313 0.59381 0.37794 0.02000
C 	C 	0.98051 0.62454 0.36012 -0.04400
C 	C 	0.99928 0.63183 0.33083 -0.03900
H 	H 	0.04031 0.55968 0.32846 0.04100
H 	H 	0.00739 0.54695 0.38041 0.04300
H 	H 	0.96365 0.64255 0.36865 0.04300
H 	H 	0.99703 0.65559 0.31714 0.04100
C 	C 	0.02479 0.59904 0.66604 0.01000
C 	C 	0.99376 0.60782 0.66556 -0.03900
C 	C 	0.97582 0.60076 0.63564 -0.04200
C 	C 	0.98860 0.58430 0.60621 0.02000
C 	C 	0.01964 0.57579 0.60652 -0.04400
C 	C 	0.03769 0.58313 0.63631 -0.03900
H 	H 	0.98356 0.62002 0.68839 0.04100
H 	H 	0.95196 0.60787 0.63540 0.04300
H 	H 	0.02971 0.56324 0.58383 0.04300
H 	H 	0.06166 0.57648 0.63630 0.04100
C 	C 	0.91358 0.50674 0.67336 0.01000
C 	C 	0.94164 0.49863 0.65751 -0.03900
C 	C 	0.95093 0.51478 0.62607 -0.04200
C 	C 	0.93227 0.53921 0.61029 0.02000
C 	C 	0.90424 0.54734 0.62616 -0.04400
C 	C 	0.89495 0.53121 0.65760 -0.03900
H 	H 	0.95612 0.47969 0.66942 0.04100
H 	H 	0.97260 0.50833 0.61399 0.04300
H 	H 	0.88987 0.56648 0.61443 0.04200
H 	H 	0.87334 0.53777 0.66977 0.04000
Co	Co	0.82284 0.32681 0.99689 1.18000
Co	Co	0.77292 0.29632 0.94784 1.09700
O 	O 	0.85296 0.35027 0.02954 -0.37400
O 	O 	0.82320 0.31827 0.05898 -0.31400
O 	O 	0.83309 0.34148 0.94780 -0.41500
O 	O 	0.81307 0.27519 0.93791 -0.44300
C 	C 	0.81207 0.35253 0.92545 0.31300
C 	C 	0.84589 0.33865 0.06066 0.29900
O 	O 	0.78351 0.34274 0.92878 -0.43300
O 	O 	0.83445 0.28045 0.99325 -0.41800
C 	C 	0.83092 0.26374 0.96344 0.27600
O 	O 	0.78690 0.35346 0.00361 -0.41400
O 	O 	0.75750 0.30780 0.99607 -0.46100
C 	C 	0.76073 0.33827 0.00786 0.28600
C 	C 	0.06164 0.96236 0.87763 0.10100
N 	N 	0.05256 0.99208 0.89021 -0.17300
C 	C 	0.07250 0.01480 0.87753 0.10200
C 	C 	0.07616 0.04802 0.89389 -0.07700
C 	C 	0.04890 0.06793 0.90302 0.08900
C 	C 	0.10696 0.06193 0.90013 0.04800
C 	C 	0.12712 0.04599 0.92389 -0.06400
C 	C 	0.15496 0.06093 0.93263 -0.01300
C 	C 	0.16279 0.09201 0.91776 -0.02000
C 	C 	0.11533 0.09228 0.88414 -0.06200
N 	N 	0.02095 0.06156 0.88957 -0.12800
C 	C 	0.04714 0.08873 0.93230 -0.06100
C 	C 	0.00143 0.07911 0.90995 0.09000
C 	C 	0.96803 0.07424 0.90902 -0.07800
C 	C 	0.94776 0.10227 0.91819 0.04900
C 	C 	0.92677 0.15665 0.90394 -0.01200
C 	C 	0.92969 0.10078 0.94915 -0.06400
C 	C 	0.91023 0.12721 0.95754 -0.01300
C 	C 	0.90854 0.15517 0.93482 -0.02000
N 	N 	0.96608 0.01278 0.90300 -0.17300
C 	C 	0.94409 0.99068 0.89471 0.10100
C 	C 	0.91878 0.00692 0.88074 -0.06200
C 	C 	0.92579 0.04044 0.88052 -0.06200
C 	C 	0.94370 0.95622 0.90913 -0.07800
C 	C 	0.91439 0.93954 0.91693 0.04900
C 	C 	0.87345 0.90287 0.89842 -0.01300
C 	C 	0.86067 0.90421 0.93293 -0.02000
C 	C 	0.87464 0.92402 0.95915 -0.01300
C 	C 	0.90134 0.94171 0.95109 -0.06400
N 	N 	0.99672 0.94374 0.88990 -0.12800
C 	C 	0.00974 0.90640 0.93260 -0.06100
C 	C 	0.01952 0.92490 0.90337 0.08900
C 	C 	0.05198 0.93048 0.89426 -0.07700
C 	C 	0.07451 0.90378 0.90102 0.04800
C 	C 	0.07130 0.87291 0.88416 -0.06200
C 	C 	0.09083 0.84661 0.89301 -0.01200
C 	C 	0.11368 0.85089 0.91897 -0.02000
C 	C 	0.11755 0.88220 0.93489 -0.01300
C 	C 	0.09803 0.90853 0.92592 -0.06400
C 	C 	0.08754 0.96603 0.85665 -0.06200
C 	C 	0.09448 0.99958 0.85658 -0.06300
C 	C 	0.14310 0.10727 0.89291 -0.01300
C 	C 	0.01664 0.09593 0.93671 -0.06100
C 	C 	0.95503 0.04311 0.89443 0.10200
C 	C 	0.97929 0.91385 0.93696 -0.06100
C 	C 	0.97214 0.93652 0.91024 0.09000
C 	C 	0.90027 0.92028 0.89059 -0.06300
H 	H 	0.03962 0.99512 0.91348 0.09300
H 	H 	0.98313 0.00849 0.92207 0.09300
H 	H 	0.08795 0.82279 0.88002 0.04400
H 	H 	0.13504 0.88589 0.95497 0.04100
H 	H 	0.05338 0.86917 0.86461 0.05100
H 	H 	0.10071 0.93235 0.93897 0.04700
H 	H 	0.16993 0.04889 0.95185 0.04200
H 	H 	0.10005 0.10457 0.86544 0.05100
H 	H 	0.14910 0.13098 0.88081 0.04300
H 	H 	0.12086 0.02248 0.93627 0.04700
H 	H 	0.89616 0.12575 0.98136 0.04200
H 	H 	0.93066 0.07914 0.96661 0.04800
C 	C 	0.94637 0.13035 0.89575 -0.06300
H 	H 	0.92582 0.17820 0.88636 0.04300
H 	H 	0.86268 0.88826 0.87769 0.04300
H 	H 	0.91017 0.91867 0.86408 0.05100
H 	H 	0.91217 0.95657 0.97156 0.04800
H 	H 	0.86519 0.92526 0.98590 0.04400
H 	H 	0.10387 0.94646 0.85126 0.05100
H 	H 	0.11694 0.00967 0.85109 0.05100
H 	H 	0.06408 0.09007 0.95335 0.04900
H 	H 	0.00643 0.10378 0.96166 0.04900
H 	H 	0.89578 0.99705 0.88070 0.05100
H 	H 	0.90897 0.06019 0.88024 0.05100
H 	H 	0.02446 0.89704 0.95367 0.04900
H 	H 	0.96689 0.91105 0.96188 0.04800
H 	H 	0.96030 0.13167 0.87180 0.05200
C 	C 	0.85024 0.23468 0.95648 0.03200
N 	N 	0.86780 0.22137 0.98292 -0.06000
N 	N 	0.88601 0.19556 0.97620 -0.08400
C 	C 	0.88727 0.18248 0.94281 0.11100
N 	N 	0.86956 0.19566 0.91647 -0.08700
N 	N 	0.85122 0.22131 0.92325 -0.06500
C 	C 	0.88422 0.45580 0.76842 0.08500
C 	C 	0.91100 0.47484 0.76874 -0.06800
C 	C 	0.92053 0.49165 0.73778 -0.02300
C 	C 	0.90346 0.48921 0.70610 -0.00400
C 	C 	0.87680 0.46983 0.70565 -0.02400
C 	C 	0.86727 0.45309 0.73661 -0.06500
H 	H 	0.92438 0.47666 0.79303 0.05400
H 	H 	0.94114 0.50656 0.73839 0.03700
H 	H 	0.86365 0.46752 0.68123 0.03700
H 	H 	0.84695 0.43774 0.73582 0.05600
N 	N 	0.87537 0.43796 0.79961 -0.08500
N 	N 	0.84783 0.43410 0.80704 -0.08900
C 	C 	0.82084 0.37470 0.89544 -0.10200
C 	C 	0.80256 0.37660 0.86456 0.03500
C 	C 	0.81150 0.39653 0.83557 -0.09600
C 	C 	0.83885 0.41448 0.83693 0.10500
C 	C 	0.85678 0.41338 0.86813 -0.09100
C 	C 	0.84787 0.39349 0.89719 0.03600
H 	H 	0.78166 0.36229 0.86277 0.02200
H 	H 	0.79738 0.39766 0.81179 0.05900
H 	H 	0.87753 0.42794 0.86987 0.06500
H 	H 	0.86192 0.39278 0.92105 0.03600
C 	C 	0.87097 0.38778 0.15785 0.10400
C 	C 	0.84951 0.36197 0.15850 -0.09000
C 	C 	0.84172 0.34551 0.12695 0.03200
C 	C 	0.85506 0.35509 0.09423 -0.09200
C 	C 	0.87682 0.38081 0.09364 0.03100
C 	C 	0.88458 0.39723 0.12524 -0.08700
H 	H 	0.83875 0.35476 0.18349 0.06200
H 	H 	0.82508 0.32556 0.12791 0.04000
H 	H 	0.88748 0.38834 0.06869 0.03900
H 	H 	0.90080 0.41758 0.12429 0.06500
N 	N 	0.87720 0.40557 0.18966 -0.08800
N 	N 	0.90301 0.41763 0.19517 -0.08500
C 	C 	0.92070 0.47450 0.28759 -0.00300
C 	C 	0.93642 0.48110 0.25557 -0.02300
C 	C 	0.93060 0.46206 0.22515 -0.06800
C 	C 	0.90889 0.43649 0.22636 0.08600
C 	C 	0.89365 0.42933 0.25867 -0.06400
C 	C 	0.89944 0.44839 0.28908 -0.02400
H 	H 	0.95310 0.50101 0.25426 0.03700
H 	H 	0.94274 0.46738 0.20050 0.05400
H 	H 	0.87739 0.40905 0.26019 0.05800
H 	H 	0.88729 0.44301 0.31373 0.03800
C 	C 	0.13217 0.82217 0.93101 0.11100
N 	N 	0.16136 0.82661 0.94232 -0.08700
N 	N 	0.17730 0.80102 0.95545 -0.06800
C 	C 	0.16452 0.77027 0.95759 0.03100
N 	N 	0.13555 0.76571 0.94571 -0.05800
N 	N 	0.11960 0.79129 0.93260 -0.08400
C 	C 	0.13584 0.62253 0.82879 0.10500
C 	C 	0.16614 0.63357 0.82770 -0.09100
C 	C 	0.18139 0.64151 0.85942 0.03300
C 	C 	0.16651 0.63800 0.89254 -0.09200
C 	C 	0.13647 0.62571 0.89365 0.03300
C 	C 	0.12120 0.61806 0.86190 -0.08900
H 	H 	0.17769 0.63656 0.80224 0.06300
H 	H 	0.20469 0.65052 0.85822 0.03700
H 	H 	0.12476 0.62263 0.91901 0.04000
H 	H 	0.09798 0.60884 0.86296 0.06500
N 	N 	0.12021 0.61570 0.79651 -0.08800
N 	N 	0.09445 0.62786 0.79084 -0.08400
C 	C 	0.04375 0.60655 0.69766 -0.00400
C 	C 	0.04659 0.63947 0.70959 -0.02300
C 	C 	0.06369 0.64644 0.74023 -0.06800
C 	C 	0.07850 0.62073 0.75884 0.08600
C 	C 	0.07578 0.58779 0.74691 -0.06600
C 	C 	0.05850 0.58073 0.71642 -0.02400
H 	H 	0.03542 0.65960 0.69523 0.03700
H 	H 	0.06544 0.67184 0.74954 0.05600
H 	H 	0.08665 0.56767 0.76158 0.05700
H 	H 	0.05622 0.55520 0.70766 0.03700
C 	C 	0.07777 0.63096 0.22902 0.08500
C 	C 	0.09077 0.62578 0.26284 -0.06800
C 	C 	0.07221 0.61851 0.29233 -0.02300
C 	C 	0.04045 0.61603 0.28809 -0.00400
C 	C 	0.02742 0.62069 0.25410 -0.02400
C 	C 	0.04599 0.62798 0.22463 -0.06500
H 	H 	0.11526 0.62761 0.26630 0.05400
H 	H 	0.08247 0.61490 0.31846 0.03700
H 	H 	0.00296 0.61845 0.25050 0.03700
H 	H 	0.03576 0.63108 0.19842 0.05700
N 	N 	0.09692 0.63799 0.19932 -0.08600
N 	N 	0.08789 0.65625 0.17432 -0.08900
C 	C 	0.14621 0.67986 0.08764 -0.10200
C 	C 	0.12514 0.70338 0.10029 0.03300
C 	C 	0.10571 0.69531 0.12876 -0.09500
C 	C 	0.10734 0.66387 0.14507 0.10400
C 	C 	0.12778 0.63997 0.13182 -0.09100
C 	C 	0.14719 0.64797 0.10333 0.03400
H 	H 	0.12378 0.72788 0.08806 0.03200
H 	H 	0.08962 0.71362 0.13845 0.06100
H 	H 	0.12864 0.61528 0.14364 0.06500
H 	H 	0.16327 0.62954 0.09381 0.03800
C 	C 	0.83326 0.88418 0.94170 0.11100
N 	N 	0.81390 0.89383 0.96812 -0.08500
N 	N 	0.78874 0.87624 0.97517 -0.05900
C 	C 	0.78217 0.84862 0.95590 0.03400
N 	N 	0.80164 0.83882 0.92978 -0.07000
N 	N 	0.82688 0.85623 0.92290 -0.08800
C 	C 	0.61203 0.83676 0.83438 0.10400
C 	C 	0.61164 0.80455 0.84894 -0.09400
C 	C 	0.63121 0.79609 0.87717 0.03300
C 	C 	0.65121 0.81997 0.89132 -0.10200
C 	C 	0.65117 0.85248 0.87714 0.03300
C 	C 	0.63158 0.86089 0.84894 -0.09100
H 	H 	0.59628 0.78599 0.83821 0.06100
H 	H 	0.63065 0.77106 0.88816 0.03200
H 	H 	0.66644 0.87118 0.88775 0.03800
H 	H 	0.63153 0.88611 0.83849 0.06500
N 	N 	0.59201 0.84497 0.80582 -0.08900
N 	N 	0.59947 0.86609 0.78277 -0.08600
C 	C 	0.54093 0.89019 0.69650 -0.00400
C 	C 	0.57273 0.89034 0.69182 -0.02300
C 	C 	0.59198 0.88243 0.72050 -0.06800
C 	C 	0.57965 0.87394 0.75392 0.08500
C 	C 	0.54782 0.87443 0.75885 -0.06500
C 	C 	0.52855 0.88240 0.73020 -0.02400
H 	H 	0.58249 0.89632 0.66591 0.03700
H 	H 	0.61649 0.88257 0.71668 0.05400
H 	H 	0.53807 0.86879 0.78484 0.05800
H 	H 	0.50405 0.88256 0.73416 0.03800
C 	C 	0.59396 0.89426 0.23275 0.08500
C 	C 	0.60009 0.88050 0.26655 -0.06800
C 	C 	0.57983 0.88555 0.29494 -0.02300
C 	C 	0.55334 0.90465 0.28977 -0.00300
C 	C 	0.54749 0.91906 0.25613 -0.02400
C 	C 	0.56777 0.91407 0.22777 -0.06400
H 	H 	0.62040 0.86558 0.27071 0.05400
H 	H 	0.58457 0.87439 0.32085 0.03800
H 	H 	0.52726 0.93414 0.25199 0.03800
H 	H 	0.56319 0.92561 0.20203 0.05800
N 	N 	0.61457 0.88854 0.20411 -0.08500
N 	N 	0.60552 0.88905 0.17244 -0.08800
C 	C 	0.66216 0.86412 0.08504 -0.09200
C 	C 	0.63965 0.88885 0.08138 0.03200
C 	C 	0.62146 0.89752 0.11062 -0.09100
C 	C 	0.62582 0.88201 0.14391 0.10400
C 	C 	0.64874 0.85774 0.14788 -0.08700
C 	C 	0.66696 0.84902 0.11865 0.03100
H 	H 	0.63593 0.90103 0.05577 0.03900
H 	H 	0.60372 0.91608 0.10733 0.06200
H 	H 	0.65200 0.84519 0.17335 0.06500
H 	H 	0.68437 0.83010 0.12201 0.04100
C 	C 	0.19027 0.10972 0.93018 0.11100
N 	N 	0.21650 0.09278 0.93707 -0.08500
N 	N 	0.24078 0.10860 0.95017 -0.05900
C 	C 	0.23944 0.14175 0.95688 0.03000
N 	N 	0.21335 0.15872 0.94963 -0.06600
N 	N 	0.18914 0.14296 0.93637 -0.08700
C 	C 	0.38411 0.11085 0.82795 0.10400
C 	C 	0.39897 0.10546 0.86064 -0.09100
C 	C 	0.38886 0.12147 0.89154 0.03200
C 	C 	0.36379 0.14327 0.88998 -0.09200
C 	C 	0.34944 0.14949 0.85694 0.03100
C 	C 	0.35960 0.13342 0.82603 -0.08700
H 	H 	0.41821 0.08857 0.86216 0.06200
H 	H 	0.40048 0.11686 0.91670 0.03800
H 	H 	0.33035 0.16657 0.85518 0.04100
H 	H 	0.34848 0.13853 0.80069 0.06600
N 	N 	0.39448 0.09404 0.79698 -0.08800
N 	N 	0.37641 0.08667 0.77246 -0.08500
C 	C 	0.40548 0.02874 0.68476 -0.00300
C 	C 	0.37461 0.02923 0.69488 -0.02300
C 	C 	0.36511 0.04873 0.72366 -0.06800
C 	C 	0.38633 0.06773 0.74271 0.08500
C 	C 	0.41714 0.06798 0.73196 -0.06400
C 	C 	0.42666 0.04840 0.70325 -0.02400
H 	H 	0.35803 0.01441 0.68053 0.03800
H 	H 	0.34129 0.04878 0.73146 0.05500
H 	H 	0.43366 0.08322 0.74586 0.05800
H 	H 	0.45051 0.04831 0.69554 0.03700
C 	C 	0.34487 0.07594 0.13906 0.10600
C 	C 	0.36096 0.07767 0.10674 -0.09400
C 	C 	0.35109 0.09891 0.07927 0.03800
C 	C 	0.32481 0.11849 0.08382 -0.10200
C 	C 	0.30799 0.11579 0.11575 0.03500
C 	C 	0.31789 0.09452 0.14319 -0.09200
H 	H 	0.38142 0.06293 0.10314 0.06300
H 	H 	0.36397 0.10025 0.05453 0.03400
H 	H 	0.28758 0.13058 0.11959 0.02300
H 	H 	0.30475 0.09263 0.16768 0.06300
N 	N 	0.35588 0.05528 0.16718 -0.08900
N 	N 	0.35132 0.06270 0.19910 -0.08600
C 	C 	0.38885 0.00553 0.28382 -0.00300
C 	C 	0.38467 0.99108 0.25009 -0.02500
C 	C 	0.37211 0.00975 0.22200 -0.06400
C 	C 	0.36394 0.04325 0.22733 0.08400
C 	C 	0.36777 0.05747 0.26114 -0.06800
C 	C 	0.38022 0.03876 0.28927 -0.02300
H 	H 	0.39116 0.96541 0.24566 0.03700
H 	H 	0.36864 0.99819 0.19622 0.05700
H 	H 	0.36120 0.08311 0.26556 0.05400
H 	H 	0.38307 0.05003 0.31532 0.03700
C 	C 	0.35158 0.26345 0.02757 0.03300
N 	N 	0.36911 0.27762 0.00162 -0.06000
N 	N 	0.38600 0.30438 0.00880 -0.08400
C 	C 	0.38590 0.31761 0.04216 0.11100
N 	N 	0.36818 0.30358 0.06799 -0.08700
N 	N 	0.35118 0.27697 0.06076 -0.06600
C 	C 	0.27766 0.64914 0.03125 0.03200
N 	N 	0.29124 0.63081 0.00535 -0.06000
N 	N 	0.31667 0.61375 0.01249 -0.08500
C 	C 	0.32913 0.61442 0.04580 0.11100
N 	N 	0.31531 0.63249 0.07175 -0.08700
N 	N 	0.29001 0.64967 0.06455 -0.06600
C 	C 	0.68605 0.38815 0.05098 0.11100
N 	N 	0.71259 0.40466 0.04464 -0.08400
N 	N 	0.73673 0.38853 0.03169 -0.05800
C 	C 	0.73496 0.35549 0.02456 0.03100
N 	N 	0.70854 0.33892 0.03124 -0.06600
N 	N 	0.68445 0.35500 0.04436 -0.08700
C 	C 	0.63103 0.67885 0.04812 0.11100
N 	N 	0.61838 0.70961 0.04492 -0.08400
N 	N 	0.63476 0.73501 0.03215 -0.05800
C 	C 	0.66427 0.73041 0.02227 0.03100
N 	N 	0.67708 0.69979 0.02594 -0.06800
N 	N 	0.66070 0.67437 0.03870 -0.08700
