data_crystal

_cell_length_a 26.62330
_cell_length_b 26.61159
_cell_length_c 20.47100
_cell_angle_alpha 89.96447
_cell_angle_beta  89.96337
_cell_angle_gamma 90.52927

_symmetry_space_group_name_	'P 1'
_symmetry_space_group_name_H-M	'P 1'

loop_
_symmetry_equiv_pos_as_xyz
  x,y,z

loop_
_atom_site_label
_atom_site_type_symbol
_atom_site_fract_x
_atom_site_fract_y
_atom_site_fract_z
_atom_site_charge
C 	C 	0.71145 0.96465 0.29661 0.32300
C 	C 	0.71999 0.80907 0.51154 0.34600
C 	C 	0.78353 0.96361 0.44861 0.34000
C 	C 	0.64191 0.80908 0.36083 0.32100
C 	C 	0.85986 0.83216 0.40619 0.33500
C 	C 	0.79056 0.80522 0.24370 0.33000
Ni	Ni	0.69728 0.89613 0.42025 1.12500
Ni	Ni	0.75551 0.79495 0.37908 1.13100
Ni	Ni	0.79741 0.90026 0.32850 1.13200
O 	O 	0.69276 0.95883 0.35699 -0.33000
O 	O 	0.74554 0.93378 0.27202 -0.34600
O 	O 	0.83205 0.79508 0.38159 -0.34300
O 	O 	0.68620 0.84263 0.49509 -0.32900
O 	O 	0.75993 0.80337 0.47589 -0.36700
O 	O 	0.81587 0.84731 0.25946 -0.33900
O 	O 	0.75395 0.92934 0.47400 -0.34400
O 	O 	0.79229 0.96346 0.38517 -0.34400
O 	O 	0.75627 0.78503 0.28255 -0.35200
O 	O 	0.64121 0.85812 0.37142 -0.34100
O 	O 	0.67890 0.77995 0.38380 -0.33200
O 	O 	0.85236 0.87879 0.38807 -0.35400
O 	O 	0.74281 0.86345 0.36488 -0.72400
H 	H 	0.72210 0.86037 0.32522 0.17000
C 	C 	0.76845 0.54680 0.78107 0.33300
C 	C 	0.78706 0.69173 0.00784 0.34100
C 	C 	0.71787 0.54075 0.94489 0.34500
C 	C 	0.85100 0.70085 0.84951 0.32600
C 	C 	0.63586 0.68076 0.91983 0.34700
C 	C 	0.70208 0.70313 0.75073 0.31900
Ni	Ni	0.79945 0.61012 0.90472 1.12700
Ni	Ni	0.73924 0.71416 0.88444 1.13400
Ni	Ni	0.69003 0.61114 0.83535 1.13200
O 	O 	0.79563 0.55048 0.83601 -0.32500
O 	O 	0.73274 0.57904 0.76633 -0.35100
O 	O 	0.66364 0.71753 0.89548 -0.34600
O 	O 	0.81890 0.66036 0.98052 -0.32600
O 	O 	0.74375 0.70018 0.98060 -0.35400
O 	O 	0.67028 0.66795 0.77316 -0.33700
O 	O 	0.74988 0.57413 0.96688 -0.34600
O 	O 	0.69843 0.54505 0.88595 -0.34000
O 	O 	0.72852 0.73205 0.79099 -0.34500
O 	O 	0.84869 0.65119 0.84805 -0.33800
O 	O 	0.81578 0.72832 0.87914 -0.32800
O 	O 	0.64681 0.63363 0.90914 -0.36100
O 	O 	0.74896 0.64581 0.86189 -0.72400
H 	H 	0.76489 0.65043 0.81889 0.17300
C 	C 	0.17562 0.64995 0.66398 0.32300
C 	C 	0.04349 0.79979 0.55290 0.33900
C 	C 	0.18498 0.71740 0.50258 0.34600
C 	C 	0.03084 0.74547 0.71423 0.32200
C 	C 	0.19055 0.86472 0.59925 0.34700
C 	C 	0.19703 0.80054 0.76408 0.32700
Ni	Ni	0.09746 0.71072 0.59613 1.12800
Ni	Ni	0.10861 0.81754 0.67079 1.13300
Ni	Ni	0.20658 0.75747 0.63245 1.13400
O 	O 	0.12681 0.65351 0.65204 -0.33500
O 	O 	0.20919 0.68017 0.63499 -0.33300
O 	O 	0.14205 0.85705 0.60028 -0.36500
O 	O 	0.07655 0.76738 0.53351 -0.34500
O 	O 	0.04588 0.81795 0.61272 -0.33800
O 	O 	0.21592 0.76323 0.72904 -0.34900
O 	O 	0.14981 0.68750 0.52613 -0.32800
O 	O 	0.19846 0.75780 0.53447 -0.35400
O 	O 	0.16330 0.83260 0.73944 -0.33600
O 	O 	0.03348 0.72177 0.65647 -0.32700
O 	O 	0.06539 0.77839 0.73383 -0.34400
O 	O 	0.22147 0.83224 0.62591 -0.34300
O 	O 	0.13630 0.75472 0.64742 -0.72400
H 	H 	0.13515 0.73751 0.69006 0.17800
C 	C 	0.32429 0.86544 0.15669 0.31400
C 	C 	0.45186 0.70400 0.05845 0.34000
C 	C 	0.30920 0.79282 0.00093 0.34400
C 	C 	0.46265 0.77055 0.21572 0.32500
C 	C 	0.30428 0.64848 0.10251 0.34300
C 	C 	0.29581 0.71433 0.26538 0.32900
Ni	Ni	0.39912 0.79830 0.09152 1.12500
Ni	Ni	0.38555 0.69601 0.17556 1.13300
Ni	Ni	0.28907 0.75674 0.13328 1.13300
O 	O 	0.37183 0.86067 0.13853 -0.33400
O 	O 	0.28819 0.83455 0.13382 -0.33000
O 	O 	0.35303 0.65438 0.10630 -0.36800
O 	O 	0.42311 0.73907 0.03421 -0.34600
O 	O 	0.44931 0.69349 0.12096 -0.34900
O 	O 	0.28042 0.75317 0.23034 -0.35400
O 	O 	0.34810 0.82019 0.01888 -0.33200
O 	O 	0.29608 0.75358 0.03522 -0.35400
O 	O 	0.32998 0.68215 0.24283 -0.33800
O 	O 	0.46093 0.79104 0.15577 -0.32800
O 	O 	0.42827 0.73758 0.23669 -0.34000
O 	O 	0.27359 0.68170 0.12856 -0.34000
O 	O 	0.35923 0.75829 0.14689 -0.72600
H 	H 	0.36083 0.77793 0.18768 0.17600
C 	C 	0.21564 0.04509 0.45411 0.32900
C 	C 	0.21104 0.19781 0.23602 0.34800
C 	C 	0.27680 0.04863 0.29433 0.34400
C 	C 	0.14369 0.20174 0.39739 0.31900
C 	C 	0.35839 0.18112 0.33391 0.34700
C 	C 	0.29507 0.20579 0.49814 0.32700
Ni	Ni	0.19291 0.11376 0.33332 1.12700
Ni	Ni	0.25493 0.21593 0.36472 1.13300
Ni	Ni	0.29839 0.11138 0.41232 1.13200
O 	O 	0.19273 0.05042 0.39625 -0.32700
O 	O 	0.25070 0.07709 0.47475 -0.34900
O 	O 	0.33112 0.21824 0.35730 -0.34500
O 	O 	0.17712 0.16724 0.26116 -0.33000
O 	O 	0.25311 0.20675 0.26690 -0.35400
O 	O 	0.32098 0.16559 0.47811 -0.33800
O 	O 	0.24640 0.08296 0.27247 -0.33700
O 	O 	0.28961 0.04814 0.35654 -0.34500
O 	O 	0.26189 0.22856 0.46034 -0.34800
O 	O 	0.14087 0.15246 0.38791 -0.33900
O 	O 	0.17875 0.23016 0.36788 -0.32800
O 	O 	0.34513 0.13424 0.34258 -0.36300
O 	O 	0.24175 0.14749 0.38333 -0.72400
H 	H 	0.22413 0.15090 0.42541 0.17300
C 	C 	0.28416 0.46601 0.95960 0.32500
C 	C 	0.28956 0.32169 0.73125 0.34300
C 	C 	0.22091 0.46817 0.80016 0.34100
C 	C 	0.35640 0.31099 0.89022 0.31700
C 	C 	0.13999 0.33466 0.83139 0.34000
C 	C 	0.20689 0.30371 0.99280 0.32600
Ni	Ni	0.30771 0.40250 0.83414 1.12500
Ni	Ni	0.24483 0.29909 0.85733 1.13500
Ni	Ni	0.20173 0.40069 0.91386 1.13200
O 	O 	0.31001 0.46132 0.90376 -0.32700
O 	O 	0.24989 0.43234 0.97825 -0.34500
O 	O 	0.16852 0.29675 0.85018 -0.34100
O 	O 	0.32291 0.35286 0.75668 -0.32600
O 	O 	0.24671 0.31410 0.76080 -0.35600
O 	O 	0.17970 0.34355 0.97519 -0.34100
O 	O 	0.25725 0.44093 0.77576 -0.33800
O 	O 	0.21113 0.46582 0.86304 -0.35000
O 	O 	0.23894 0.28212 0.95220 -0.34500
O 	O 	0.35990 0.36052 0.88419 -0.34100
O 	O 	0.32107 0.28439 0.85868 -0.32600
O 	O 	0.15274 0.38119 0.84469 -0.36200
O 	O 	0.25804 0.36653 0.88055 -0.72500
H 	H 	0.27593 0.36106 0.92202 0.16900
C 	C 	0.81514 0.14701 0.58820 0.32100
C 	C 	0.95149 0.29564 0.70005 0.34000
C 	C 	0.80575 0.21650 0.74903 0.34500
C 	C 	0.96466 0.23629 0.54038 0.32800
C 	C 	0.80990 0.36217 0.64925 0.34500
C 	C 	0.80043 0.29825 0.48584 0.32700
Ni	Ni	0.89458 0.20624 0.65803 1.12700
Ni	Ni	0.88990 0.31173 0.57973 1.13300
Ni	Ni	0.78839 0.25542 0.61724 1.13400
O 	O 	0.86353 0.14869 0.60349 -0.33700
O 	O 	0.78210 0.17817 0.61548 -0.33100
O 	O 	0.85780 0.35216 0.65007 -0.36000
O 	O 	0.91768 0.26333 0.71976 -0.34100
O 	O 	0.95199 0.31034 0.63860 -0.34000
O 	O 	0.78094 0.26060 0.52033 -0.34900
O 	O 	0.83996 0.18551 0.72699 -0.32900
O 	O 	0.79411 0.25663 0.71568 -0.35300
O 	O 	0.83682 0.32844 0.50965 -0.33500
O 	O 	0.95966 0.21330 0.59851 -0.32400
O 	O 	0.93171 0.26971 0.51885 -0.34300
O 	O 	0.77776 0.33078 0.62170 -0.34300
O 	O 	0.85867 0.25026 0.60414 -0.72400
H 	H 	0.85956 0.23231 0.56205 0.17900
C 	C 	0.67856 0.36269 0.09363 0.31800
C 	C 	0.54234 0.20796 0.19664 0.33900
C 	C 	0.68532 0.29350 0.25210 0.34200
C 	C 	0.53255 0.27239 0.03618 0.32300
C 	C 	0.68457 0.14644 0.15348 0.34500
C 	C 	0.69693 0.21231 0.98900 0.32800
Ni	Ni	0.59774 0.30114 0.15804 1.12500
Ni	Ni	0.60626 0.19629 0.07826 1.13300
Ni	Ni	0.70572 0.25369 0.12216 1.13500
O 	O 	0.62942 0.35802 0.10277 -0.33900
O 	O 	0.71091 0.33121 0.12180 -0.32900
O 	O 	0.63612 0.15320 0.14770 -0.36600
O 	O 	0.57057 0.24479 0.21900 -0.34200
O 	O 	0.54303 0.19734 0.13398 -0.34800
O 	O 	0.71557 0.24935 0.02530 -0.34800
O 	O 	0.64994 0.32317 0.22989 -0.32900
O 	O 	0.69667 0.25276 0.22005 -0.35200
O 	O 	0.66141 0.18079 0.01136 -0.33800
O 	O 	0.53518 0.29383 0.09529 -0.33000
O 	O 	0.56594 0.23884 0.01592 -0.34300
O 	O 	0.71710 0.17844 0.12757 -0.34200
O 	O 	0.63590 0.25730 0.10665 -0.72500
H 	H 	0.63619 0.27550 0.06474 0.17200
C 	C 	0.77624 0.19541 0.92815 0.11300
C 	C 	0.72353 0.19982 0.92775 -0.08400
C 	C 	0.69769 0.19938 0.86773 0.10800
C 	C 	0.72489 0.20091 0.80863 0.11600
C 	C 	0.77786 0.20457 0.80971 -0.09200
C 	C 	0.80355 0.20063 0.86966 0.11200
Br	Br	0.87570 0.20680 0.87257 -0.11700
Br	Br	0.81069 0.17979 0.00840 -0.12400
Br	Br	0.68971 0.19713 0.72639 -0.14300
Br	Br	0.62533 0.19643 0.86627 -0.12300
C 	C 	0.69319 0.32047 0.36964 0.11300
C 	C 	0.71625 0.30861 0.30954 -0.09000
C 	C 	0.76928 0.30618 0.30622 0.11600
C 	C 	0.79808 0.30730 0.36407 0.10900
C 	C 	0.77418 0.31279 0.42491 -0.08200
C 	C 	0.72247 0.32388 0.42691 0.10800
Br	Br	0.69217 0.34501 0.50779 -0.13000
Br	Br	0.62167 0.33089 0.37430 -0.11800
Br	Br	0.87005 0.30117 0.35995 -0.11500
Br	Br	0.80258 0.30354 0.22260 -0.15500
C 	C 	0.43872 0.26961 0.02348 0.10900
C 	C 	0.48670 0.27979 0.99652 -0.08700
C 	C 	0.49085 0.29210 0.92967 0.10700
C 	C 	0.44751 0.29281 0.89017 0.10900
C 	C 	0.39981 0.28488 0.91828 -0.08400
C 	C 	0.39660 0.26696 0.98251 0.10400
Br	Br	0.33509 0.23734 0.01387 -0.13700
Br	Br	0.42864 0.26818 0.11656 -0.14600
Br	Br	0.45298 0.30540 0.79774 -0.12000
Br	Br	0.55424 0.31527 0.89475 -0.12500
C 	C 	0.06124 0.28199 0.81758 0.11400
C 	C 	0.09008 0.32486 0.80062 -0.09100
C 	C 	0.06892 0.36063 0.75754 0.11600
C 	C 	0.01902 0.35471 0.73675 0.10000
C 	C 	0.99516 0.30757 0.74242 -0.07600
C 	C 	0.01793 0.27003 0.78142 0.10600
Br	Br	0.99654 0.20067 0.77691 -0.14200
Br	Br	0.07398 0.24588 0.89716 -0.11400
Br	Br	0.98280 0.41175 0.70370 -0.12100
Br	Br	0.10937 0.41301 0.71891 -0.12900
C 	C 	0.45799 0.16595 0.20739 0.11700
C 	C 	0.49995 0.18881 0.23735 -0.09200
C 	C 	0.49654 0.20223 0.30374 0.11000
C 	C 	0.44897 0.20523 0.33377 0.10800
C 	C 	0.40534 0.19146 0.29852 -0.09300
C 	C 	0.41021 0.17249 0.23459 0.11300
Br	Br	0.35126 0.15426 0.18482 -0.12000
Br	Br	0.46684 0.11733 0.13862 -0.13000
Br	Br	0.44402 0.22433 0.42432 -0.12000
Br	Br	0.55653 0.20503 0.35632 -0.11700
C 	C 	0.05863 0.24319 0.52992 0.11100
C 	C 	0.01162 0.22954 0.50258 -0.09200
C 	C 	0.00900 0.21605 0.43606 0.10300
C 	C 	0.05249 0.21781 0.39717 0.11100
C 	C 	0.09962 0.22602 0.42619 -0.08500
C 	C 	0.10206 0.24340 0.49077 0.10400
Br	Br	0.16460 0.26877 0.52514 -0.14200
Br	Br	0.06480 0.25833 0.62128 -0.14700
Br	Br	0.04799 0.20807 0.30407 -0.12200
Br	Br	0.94789 0.18853 0.40060 -0.10700
C 	C 	0.19530 0.30407 0.11470 0.10700
C 	C 	0.19523 0.27741 0.05508 -0.08200
C 	C 	0.19193 0.22429 0.05615 0.11100
C 	C 	0.19696 0.19814 0.11546 0.11500
C 	C 	0.20045 0.22479 0.17458 -0.09400
C 	C 	0.19705 0.27769 0.17437 0.11400
Br	Br	0.19440 0.31402 0.25577 -0.14800
Br	Br	0.19409 0.37656 0.11520 -0.13100
Br	Br	0.20283 0.12593 0.11509 -0.11200
Br	Br	0.17944 0.18719 0.97673 -0.11100
C 	C 	0.29861 0.20773 0.62000 0.10700
C 	C 	0.30931 0.23106 0.55988 -0.08100
C 	C 	0.32377 0.28226 0.55880 0.11200
C 	C 	0.32089 0.31144 0.61611 0.11400
C 	C 	0.30331 0.28949 0.67467 -0.09100
C 	C 	0.29532 0.23680 0.67738 0.11600
Br	Br	0.28108 0.20400 0.75949 -0.16800
Br	Br	0.28706 0.13615 0.62350 -0.12600
Br	Br	0.34014 0.38150 0.61360 -0.11200
Br	Br	0.34601 0.31282 0.47822 -0.12000
C 	C 	0.33737 0.98339 0.25870 0.11000
C 	C 	0.28991 0.00540 0.25229 -0.08300
C 	C 	0.25350 0.98194 0.21162 0.11400
C 	C 	0.26656 0.93917 0.17516 0.10900
C 	C 	0.31051 0.91244 0.19150 -0.08300
C 	C 	0.34499 0.93440 0.23601 0.10900
Br	Br	0.40045 0.89667 0.27011 -0.14100
Br	Br	0.39308 0.02165 0.29356 -0.13600
Br	Br	0.22946 0.92398 0.09669 -0.11400
Br	Br	0.18442 0.00333 0.21171 -0.13800
C 	C 	0.28108 0.56015 0.96723 0.11100
C 	C 	0.28932 0.51323 0.99766 -0.08800
C 	C 	0.29610 0.51134 0.06602 0.10700
C 	C 	0.29281 0.55579 0.10337 0.10900
C 	C 	0.28436 0.60221 0.07234 -0.09200
C 	C 	0.27263 0.60284 0.00567 0.10800
Br	Br	0.24492 0.66214 0.96703 -0.12200
Br	Br	0.29143 0.56867 0.87476 -0.14500
Br	Br	0.30028 0.55348 0.19693 -0.13100
Br	Br	0.31671 0.44962 0.10698 -0.12500
C 	C 	0.22301 0.95174 0.46535 0.11000
C 	C 	0.20767 0.99825 0.49162 -0.09500
C 	C 	0.19305 0.00088 0.55768 0.11500
C 	C 	0.19518 0.95766 0.59730 0.10800
C 	C 	0.20989 0.91142 0.57028 -0.09400
C 	C 	0.22897 0.91016 0.50656 0.10900
Br	Br	0.26289 0.85117 0.47541 -0.13700
Br	Br	0.22746 0.94211 0.37265 -0.14900
Br	Br	0.17800 0.96140 0.68861 -0.13400
Br	Br	0.16537 0.06222 0.59183 -0.12400
C 	C 	0.30303 0.81904 0.88272 0.11300
C 	C 	0.27912 0.80676 0.94243 -0.08900
C 	C 	0.22598 0.80324 0.94450 0.11900
C 	C 	0.19799 0.80435 0.88605 0.11000
C 	C 	0.22243 0.81321 0.82619 -0.08200
C 	C 	0.27406 0.82529 0.82576 0.10900
Br	Br	0.30483 0.85104 0.74716 -0.12500
Br	Br	0.37533 0.82302 0.87695 -0.12100
Br	Br	0.12654 0.79174 0.88771 -0.12100
Br	Br	0.19136 0.79832 0.02717 -0.15300
C 	C 	0.26453 0.69693 0.44381 0.11600
C 	C 	0.21200 0.70388 0.44223 -0.09200
C 	C 	0.18662 0.70342 0.38187 0.11200
C 	C 	0.21415 0.70020 0.32333 0.11000
C 	C 	0.26712 0.70100 0.32498 -0.08500
C 	C 	0.29198 0.69474 0.38509 0.10900
Br	Br	0.36287 0.68082 0.38711 -0.11800
Br	Br	0.29898 0.69132 0.52631 -0.14500
Br	Br	0.17950 0.69113 0.24141 -0.13200
Br	Br	0.11463 0.71078 0.37905 -0.12400
C 	C 	0.17965 0.55279 0.79374 0.11600
C 	C 	0.20136 0.51136 0.76141 -0.08400
C 	C 	0.21191 0.51556 0.69365 0.11100
C 	C 	0.20806 0.56264 0.66247 0.11100
C 	C 	0.19305 0.60510 0.69834 -0.08800
C 	C 	0.18259 0.60042 0.76507 0.11000
Br	Br	0.17340 0.65961 0.81737 -0.13000
Br	Br	0.13610 0.54316 0.86813 -0.12500
Br	Br	0.22198 0.56874 0.57025 -0.11400
Br	Br	0.22325 0.45636 0.64135 -0.10600
C 	C 	0.54529 0.70238 0.92162 0.10600
C 	C 	0.58978 0.69202 0.95613 -0.09300
C 	C 	0.58709 0.67876 0.02248 0.11200
C 	C 	0.54021 0.67118 0.05243 0.11600
C 	C 	0.49613 0.68702 0.02014 -0.09600
C 	C 	0.49836 0.69658 0.95249 0.11000
Br	Br	0.43806 0.69249 0.90060 -0.11700
Br	Br	0.54869 0.72580 0.83280 -0.11800
Br	Br	0.53640 0.63070 0.13062 -0.12000
Br	Br	0.64789 0.67225 0.07278 -0.11500
C 	C 	0.90092 0.76414 0.78646 0.11200
C 	C 	0.89933 0.72461 0.83195 -0.08400
C 	C 	0.94399 0.69946 0.84746 0.11300
C 	C 	0.98532 0.70292 0.80525 0.11200
C 	C 	0.98553 0.73873 0.75477 -0.08100
C 	C 	0.94419 0.77142 0.74778 0.10900
Br	Br	0.94674 0.82619 0.68652 -0.12400
Br	Br	0.84552 0.81007 0.78017 -0.11500
Br	Br	0.03914 0.65557 0.81268 -0.12500
Br	Br	0.94884 0.66217 0.92788 -0.12700
C 	C 	0.73964 0.46187 0.74311 0.11200
C 	C 	0.77444 0.50214 0.73930 -0.08800
C 	C 	0.81542 0.49891 0.69625 0.10900
C 	C 	0.82205 0.45510 0.65895 0.11500
C 	C 	0.79305 0.41164 0.67290 -0.09400
C 	C 	0.75168 0.41522 0.71558 0.11400
Br	Br	0.71416 0.35604 0.74137 -0.12700
Br	Br	0.67333 0.47191 0.77781 -0.14600
Br	Br	0.86709 0.45610 0.58509 -0.14600
Br	Br	0.86241 0.55413 0.68854 -0.12100
C 	C 	0.73409 0.40995 0.01551 0.10400
C 	C 	0.69739 0.41028 0.06522 -0.08400
C 	C 	0.67114 0.45497 0.07787 0.10900
C 	C 	0.67240 0.49413 0.03223 0.11200
C 	C 	0.70901 0.49450 0.98295 -0.09500
C 	C 	0.74101 0.45271 0.97577 0.11400
Br	Br	0.79406 0.45350 0.91199 -0.15000
Br	Br	0.77567 0.35182 0.00233 -0.13700
Br	Br	0.61979 0.54300 0.03162 -0.13000
Br	Br	0.63736 0.46424 0.16023 -0.12600
C 	C 	0.54849 0.79814 0.35988 0.11200
C 	C 	0.59604 0.78577 0.33340 -0.08200
C 	C 	0.59806 0.76531 0.27035 0.10200
C 	C 	0.55661 0.76980 0.22874 0.11300
C 	C 	0.50852 0.77824 0.25578 -0.08500
C 	C 	0.50465 0.78940 0.32308 0.10900
Br	Br	0.44000 0.79397 0.36509 -0.11000
Br	Br	0.54335 0.83289 0.44237 -0.11800
Br	Br	0.56862 0.77738 0.13660 -0.14500
Br	Br	0.65703 0.73112 0.24082 -0.13200
C 	C 	0.93250 0.77598 0.43954 0.10700
C 	C 	0.90557 0.82136 0.44639 -0.08200
C 	C 	0.92588 0.85937 0.48755 0.11000
C 	C 	0.97468 0.85471 0.51228 0.12000
C 	C 	0.99737 0.80736 0.51367 -0.09100
C 	C 	0.97380 0.76678 0.48059 0.11900
Br	Br	0.99299 0.69824 0.49714 -0.16400
Br	Br	0.92127 0.73180 0.36665 -0.10900
Br	Br	0.01127 0.91387 0.53999 -0.13800
Br	Br	0.88531 0.91354 0.51874 -0.12200
C 	C 	0.80998 0.72515 0.18455 0.11200
C 	C 	0.80335 0.77791 0.18283 -0.08400
C 	C 	0.80086 0.80261 0.12204 0.10800
C 	C 	0.80090 0.77447 0.06380 0.11100
C 	C 	0.80185 0.72134 0.06607 -0.09200
C 	C 	0.80862 0.69698 0.12633 0.11400
Br	Br	0.81223 0.62460 0.12971 -0.12000
Br	Br	0.81922 0.69102 0.26674 -0.13000
Br	Br	0.79883 0.80901 0.98113 -0.15600
Br	Br	0.79360 0.87472 0.11820 -0.12600
C 	C 	0.75294 0.72728 0.65519 0.10900
C 	C 	0.70569 0.71387 0.68023 -0.09100
C 	C 	0.66262 0.72508 0.64305 0.10900
C 	C 	0.66787 0.75291 0.58470 0.10900
C 	C 	0.71389 0.77793 0.57115 -0.09700
C 	C 	0.75671 0.76511 0.60804 0.11100
Br	Br	0.81883 0.80228 0.59924 -0.11700
Br	Br	0.81174 0.69183 0.68297 -0.15800
Br	Br	0.61821 0.74498 0.51758 -0.12500
Br	Br	0.59757 0.69938 0.66809 -0.10900
C 	C 	0.78224 0.01274 0.55486 0.10800
C 	C 	0.79710 0.00901 0.48823 -0.08100
C 	C 	0.81752 0.05208 0.45723 0.11500
C 	C 	0.81074 0.09941 0.48553 0.10800
C 	C 	0.79698 0.10333 0.55130 -0.08800
C 	C 	0.78052 0.06026 0.58517 0.11100
Br	Br	0.75713 0.06625 0.67404 -0.11500
Br	Br	0.77393 0.95332 0.60839 -0.11100
Br	Br	0.82033 0.15926 0.43443 -0.13300
Br	Br	0.86427 0.04581 0.38575 -0.12200
C 	C 	0.69166 0.05347 0.15494 0.11000
C 	C 	0.70215 0.10008 0.18476 -0.09400
C 	C 	0.71578 0.10142 0.25087 0.11000
C 	C 	0.70917 0.05865 0.28998 0.10900
C 	C 	0.70047 0.01142 0.26036 -0.08700
C 	C 	0.69007 0.00921 0.19283 0.11000
Br	Br	0.66834 0.94670 0.15395 -0.12800
Br	Br	0.68023 0.05045 0.06206 -0.13200
Br	Br	0.70251 0.06702 0.38302 -0.14500
Br	Br	0.74491 0.16136 0.28746 -0.12600
