data_crystal

_cell_length_a 26.13200
_cell_length_b 26.48307
_cell_length_c 26.62724
_cell_angle_alpha 95.48376
_cell_angle_beta  95.48408
_cell_angle_gamma 125.85144

_symmetry_space_group_name_	'P 1'
_symmetry_space_group_name_H-M	'P 1'

loop_
_symmetry_equiv_pos_as_xyz
  x,y,z

loop_
_atom_site_label
_atom_site_type_symbol
_atom_site_fract_x
_atom_site_fract_y
_atom_site_fract_z
_atom_site_charge
C 	C 	0.97635 0.03205 0.99533 0.10000
C 	C 	0.04341 0.06940 0.99992 -0.10500
C 	C 	0.07402 0.04042 0.99486 0.09500
C 	C 	0.03761 0.97416 0.98537 -0.12200
C 	C 	0.97070 0.93673 0.98089 0.09400
C 	C 	0.94007 0.96568 0.98589 -0.11000
H 	H 	0.07154 0.12070 0.00706 0.07700
H 	H 	0.06133 0.95178 0.98156 0.07000
H 	H 	0.88825 0.93674 0.98236 0.07400
C 	C 	0.92357 0.99573 0.43915 0.05400
C 	C 	0.89190 0.93416 0.44965 -0.09000
C 	C 	0.92563 0.90851 0.45714 0.07100
C 	C 	0.99112 0.94475 0.45449 -0.07400
C 	C 	0.02278 0.00606 0.44364 0.06200
C 	C 	0.98882 0.03133 0.43575 -0.06200
H 	H 	0.84140 0.90648 0.45213 0.06100
H 	H 	0.01737 0.92522 0.46081 0.07900
H 	H 	0.01330 0.07891 0.42771 0.06400
Cu	Cu	0.65979 0.26054 0.01407 0.93600
Cu	Cu	0.68077 0.22424 0.89985 0.88200
Cu	Cu	0.68867 0.34091 0.93042 0.91100
Cu	Cu	0.67239 0.38703 0.03305 0.90700
C 	C 	0.68152 0.32200 0.11712 0.30400
O 	O 	0.56923 0.22754 0.02120 -0.30800
C 	C 	0.64482 0.27042 0.82327 0.29500
O 	O 	0.71269 0.35509 0.00337 -0.63800
O 	O 	0.63861 0.24995 0.93859 -0.63600
O 	O 	0.69622 0.21207 0.01733 -0.33500
O 	O 	0.75080 0.25213 0.95260 -0.43000
O 	O 	0.68661 0.37154 0.10360 -0.35400
O 	O 	0.74059 0.43061 0.92871 -0.33900
C 	C 	0.73844 0.47183 0.95863 0.31800
C 	C 	0.54376 0.25489 0.00519 0.31400
O 	O 	0.57905 0.30838 0.98879 -0.35200
O 	O 	0.69719 0.45344 0.99027 -0.37200
O 	O 	0.69140 0.28720 0.08661 -0.31800
C 	C 	0.74142 0.22316 0.99179 0.30800
O 	O 	0.68082 0.32616 0.85477 -0.32000
O 	O 	0.63136 0.21912 0.83943 -0.39000
H 	H 	0.75971 0.38143 0.01584 0.17400
H 	H 	0.59212 0.22568 0.92466 0.19200
Cu	Cu	0.72884 0.33905 0.43948 0.93600
Cu	Cu	0.72164 0.27662 0.54141 0.90200
Cu	Cu	0.62530 0.29774 0.50504 0.90700
Cu	Cu	0.61226 0.34284 0.40899 0.90300
C 	C 	0.68518 0.33234 0.33366 0.29200
O 	O 	0.76934 0.43294 0.44701 -0.32300
C 	C 	0.65824 0.29411 0.61347 0.29800
O 	O 	0.62886 0.28839 0.43345 -0.63800
O 	O 	0.71980 0.34013 0.51255 -0.63300
O 	O 	0.77353 0.29856 0.43763 -0.34000
O 	O 	0.70413 0.22261 0.47979 -0.40500
O 	O 	0.65829 0.35889 0.34974 -0.34400
O 	O 	0.53293 0.25109 0.49277 -0.35900
C 	C 	0.49956 0.25832 0.45759 0.31300
C 	C 	0.74226 0.45693 0.46736 0.30000
O 	O 	0.68200 0.41884 0.47239 -0.37000
O 	O 	0.52848 0.30569 0.43223 -0.37200
O 	O 	0.72037 0.32444 0.36623 -0.30100
C 	C 	0.74657 0.24231 0.44971 0.31100
O 	O 	0.62141 0.29807 0.57887 -0.34200
O 	O 	0.71338 0.30726 0.60537 -0.36000
H 	H 	0.60077 0.24405 0.41438 0.18300
H 	H 	0.74669 0.38256 0.53501 0.18400
C 	C 	0.63159 0.22336 0.73315 0.05400
C 	C 	0.63222 0.26783 0.76711 0.00200
C 	C 	0.62671 0.31264 0.74709 -0.09400
C 	C 	0.63498 0.32071 0.69622 0.05600
C 	C 	0.63972 0.27935 0.66361 0.00200
C 	C 	0.63161 0.22662 0.68084 -0.10000
C 	C 	0.62657 0.17558 0.64433 0.77700
H 	H 	0.63339 0.18752 0.74778 0.07300
H 	H 	0.63860 0.35964 0.68227 0.07800
C 	C 	0.61201 0.35169 0.77910 0.78100
F 	F 	0.59824 0.12002 0.66361 -0.44300
F 	F 	0.68732 0.19618 0.63747 -0.47600
F 	F 	0.58930 0.16173 0.59724 -0.46900
F 	F 	0.66867 0.40642 0.80688 -0.43800
F 	F 	0.57215 0.31760 0.81243 -0.44800
F 	F 	0.58102 0.36864 0.74787 -0.43600
C 	C 	0.74183 0.36472 0.20666 0.05200
C 	C 	0.68465 0.31813 0.17204 0.00600
C 	C 	0.62944 0.27215 0.19062 -0.09800
C 	C 	0.63174 0.27611 0.24398 0.04900
C 	C 	0.68786 0.32484 0.27864 0.00600
C 	C 	0.74385 0.36953 0.26001 -0.09200
C 	C 	0.80552 0.42244 0.29683 0.78000
H 	H 	0.78419 0.39851 0.19179 0.08000
H 	H 	0.58928 0.24238 0.25878 0.07100
C 	C 	0.56733 0.22078 0.15369 0.78000
F 	F 	0.85266 0.46406 0.27109 -0.44200
F 	F 	0.82899 0.39680 0.32536 -0.43400
F 	F 	0.79380 0.45690 0.32959 -0.45000
F 	F 	0.57837 0.18730 0.11909 -0.44300
F 	F 	0.54432 0.24821 0.12728 -0.46500
F 	F 	0.52035 0.17810 0.17899 -0.44400
C 	C 	0.77952 0.61767 0.50920 -0.10900
C 	C 	0.82284 0.65321 0.47754 0.00800
C 	C 	0.84554 0.62647 0.44724 0.13800
C 	C 	0.82207 0.56338 0.44654 -0.03700
C 	C 	0.77545 0.52628 0.47567 -0.10300
C 	C 	0.75655 0.55475 0.50903 0.18800
C 	C 	0.84308 0.71785 0.47508 -0.00400
O 	O 	0.89140 0.66225 0.41890 -0.25700
H 	H 	0.83862 0.54279 0.42200 0.11700
O 	O 	0.71480 0.52089 0.54074 -0.27700
H 	H 	0.76311 0.63859 0.53356 0.07900
C 	C 	0.81951 0.72957 0.43145 0.13800
C 	C 	0.84457 0.79193 0.42674 -0.07300
C 	C 	0.89204 0.84276 0.46594 -0.04400
C 	C 	0.91187 0.83054 0.51132 0.15500
C 	C 	0.88794 0.76828 0.51547 -0.09100
O 	O 	0.77397 0.68034 0.39244 -0.27300
H 	H 	0.82849 0.80089 0.39197 0.06900
O 	O 	0.95657 0.87962 0.55074 -0.27700
H 	H 	0.90522 0.75937 0.54963 0.07900
H 	H 	0.74240 0.52815 0.57303 0.15800
H 	H 	0.73205 0.66654 0.40119 0.15300
H 	H 	0.93132 0.88536 0.57296 0.15300
H 	H 	0.86715 0.65443 0.38448 0.17600
C 	C 	0.74921 0.10228 0.41512 -0.11200
C 	C 	0.81535 0.13169 0.42610 0.01600
C 	C 	0.85906 0.19822 0.43891 0.12700
C 	C 	0.83629 0.23467 0.44296 -0.02800
C 	C 	0.76995 0.20500 0.43544 -0.11200
C 	C 	0.72633 0.13856 0.42003 0.20300
C 	C 	0.83848 0.09263 0.42848 -0.00900
O 	O 	0.92401 0.22767 0.44762 -0.25900
H 	H 	0.87022 0.28579 0.45423 0.07400
O 	O 	0.66144 0.10919 0.40881 -0.27600
H 	H 	0.71541 0.05110 0.40429 0.08300
C 	C 	0.84745 0.07554 0.47514 0.14000
C 	C 	0.87317 0.04184 0.47798 -0.07900
C 	C 	0.88940 0.02437 0.43431 -0.03300
C 	C 	0.87774 0.03904 0.38709 0.15000
C 	C 	0.85277 0.07348 0.38442 -0.08500
O 	O 	0.83359 0.09402 0.51848 -0.27300
H 	H 	0.88194 0.03061 0.51441 0.07300
O 	O 	0.89280 0.02167 0.34397 -0.26900
H 	H 	0.84527 0.08595 0.34827 0.08200
H 	H 	0.64568 0.09603 0.44104 0.17200
H 	H 	0.78807 0.05900 0.51858 0.15800
H 	H 	0.85341 0.97900 0.32764 0.14600
H 	H 	0.93619 0.23145 0.48498 0.16000
C 	C 	0.18270 0.05739 0.41097 -0.09500
C 	C 	0.22535 0.11502 0.44567 -0.00600
C 	C 	0.20117 0.13858 0.47776 0.14700
C 	C 	0.13492 0.10322 0.47641 -0.07600
C 	C 	0.09228 0.04481 0.44254 -0.04100
C 	C 	0.11634 0.02282 0.40866 0.16100
C 	C 	0.29531 0.15055 0.44834 0.01300
O 	O 	0.24204 0.19709 0.50913 -0.27000
H 	H 	0.11670 0.12094 0.50203 0.07100
O 	O 	0.07512 0.96705 0.37392 -0.28300
H 	H 	0.20104 0.03943 0.38575 0.08000
C 	C 	0.33426 0.15563 0.49179 0.12700
C 	C 	0.40081 0.19142 0.49484 -0.02900
C 	C 	0.42893 0.22037 0.45376 -0.10800
C 	C 	0.38925 0.21267 0.40917 0.19600
C 	C 	0.32289 0.17831 0.40691 -0.10900
O 	O 	0.30744 0.12638 0.53167 -0.26500
H 	H 	0.43049 0.19662 0.52922 0.08700
O 	O 	0.41469 0.23597 0.36694 -0.28300
H 	H 	0.29279 0.17309 0.37280 0.08200
H 	H 	0.06460 0.97917 0.34263 0.15300
H 	H 	0.29682 0.08355 0.52335 0.16200
H 	H 	0.42286 0.27785 0.36997 0.16100
H 	H 	0.25199 0.18880 0.54288 0.17000
C 	C 	0.77142 0.62423 0.93109 -0.10400
C 	C 	0.83783 0.66688 0.94943 0.01300
C 	C 	0.87261 0.64397 0.96455 0.12200
C 	C 	0.84016 0.57914 0.96451 -0.03100
C 	C 	0.77313 0.53702 0.94942 -0.10200
C 	C 	0.73892 0.55948 0.93126 0.20300
C 	C 	0.86989 0.73564 0.95665 -0.00300
O 	O 	0.93780 0.68526 0.98186 -0.26800
H 	H 	0.86681 0.56203 0.97814 0.06100
O 	O 	0.67387 0.51808 0.91314 -0.24300
H 	H 	0.74468 0.64153 0.91822 0.08900
C 	C 	0.89521 0.76867 0.91658 0.13600
C 	C 	0.92621 0.83415 0.92414 -0.07000
C 	C 	0.93293 0.86709 0.97181 -0.05400
C 	C 	0.90744 0.83394 0.01183 0.15900
C 	C 	0.87557 0.76835 0.00398 -0.09400
O 	O 	0.88875 0.73688 0.86980 -0.26600
H 	H 	0.94584 0.85949 0.89321 0.06800
O 	O 	0.91328 0.86554 0.05848 -0.28300
H 	H 	0.85587 0.74297 0.03487 0.07800
H 	H 	0.65379 0.51755 0.94307 0.16300
H 	H 	0.92758 0.73809 0.87214 0.15200
H 	H 	0.95427 0.87865 0.07907 0.15400
H 	H 	0.95705 0.68837 0.95088 0.15300
C 	C 	0.78210 0.11095 0.01554 -0.11100
C 	C 	0.84720 0.14796 0.01171 0.01200
C 	C 	0.87914 0.21189 0.00744 0.12500
C 	C 	0.84494 0.23729 0.00382 -0.03200
C 	C 	0.77887 0.19933 0.00473 -0.11800
C 	C 	0.74771 0.13618 0.01172 0.19200
C 	C 	0.88036 0.11831 0.00781 -0.00700
O 	O 	0.94303 0.24873 0.00425 -0.26600
H 	H 	0.86944 0.28606 0.99892 0.06700
O 	O 	0.68345 0.09869 0.01375 -0.26500
H 	H 	0.75756 0.06192 0.01966 0.08000
C 	C 	0.91313 0.11710 0.05221 0.13900
C 	C 	0.94515 0.08954 0.04789 -0.07100
C 	C 	0.94391 0.06237 0.99947 -0.04900
C 	C 	0.91075 0.06325 0.95511 0.15800
C 	C 	0.87944 0.09147 0.95941 -0.08800
O 	O 	0.91533 0.14426 0.09967 -0.26900
H 	H 	0.97064 0.08899 0.08217 0.07100
O 	O 	0.91060 0.03830 0.90746 -0.26600
H 	H 	0.85445 0.09254 0.92509 0.07800
H 	H 	0.66095 0.07744 0.97772 0.14700
H 	H 	0.87748 0.10981 0.11211 0.15600
H 	H 	0.87185 0.99343 0.90026 0.14500
H 	H 	0.96648 0.26860 0.04023 0.16300
C 	C 	0.39075 0.23418 0.02174 -0.10800
C 	C 	0.34462 0.16890 0.00377 0.01600
C 	C 	0.36399 0.13148 0.98721 0.13500
C 	C 	0.42917 0.15977 0.98777 -0.01700
C 	C 	0.47537 0.22529 0.00520 -0.09300
C 	C 	0.45599 0.26238 0.02305 0.21500
C 	C 	0.27609 0.13970 0.00278 -0.00500
O 	O 	0.31911 0.06757 0.96920 -0.26600
H 	H 	0.44370 0.13086 0.97421 0.07600
O 	O 	0.50074 0.32619 0.04161 -0.29000
H 	H 	0.37605 0.26303 0.03504 0.08400
C 	C 	0.24856 0.11714 0.04589 0.13600
C 	C 	0.18277 0.08678 0.04376 -0.07100
C 	C 	0.14426 0.07925 0.99893 -0.05200
C 	C 	0.17216 0.10331 0.95629 0.16000
C 	C 	0.23800 0.13380 0.95847 -0.08900
O 	O 	0.28539 0.12252 0.08937 -0.26200
H 	H 	0.16141 0.06795 0.07659 0.06800
O 	O 	0.13517 0.09716 0.91253 -0.27400
H 	H 	0.25924 0.15191 0.92542 0.08400
H 	H 	0.51319 0.32998 0.07893 0.17800
H 	H 	0.30209 0.16372 0.11088 0.15900
H 	H 	0.11948 0.05629 0.89105 0.15700
H 	H 	0.31444 0.04756 0.99977 0.17100
