data_crystal

_cell_length_a 20.30989
_cell_length_b 21.49833
_cell_length_c 31.68597
_cell_angle_alpha 60.93092
_cell_angle_beta  118.79818
_cell_angle_gamma 133.16200

_symmetry_space_group_name_	'P 1'
_symmetry_space_group_name_H-M	'P 1'

loop_
_symmetry_equiv_pos_as_xyz
  x,y,z

loop_
_atom_site_label
_atom_site_type_symbol
_atom_site_fract_x
_atom_site_fract_y
_atom_site_fract_z
_atom_site_charge
O 	O 	0.00683 0.02883 0.16909 -0.68500
O 	O 	0.00458 0.73637 0.10585 -0.30500
O 	O 	0.00144 0.07740 0.53996 -0.40300
O 	O 	0.00960 0.74740 0.60377 -0.30100
H 	H 	0.01132 0.39839 0.09192 0.16200
O 	O 	0.01175 0.85943 0.01055 -0.37500
H 	H 	0.01420 0.65478 0.72278 0.13100
H 	H 	0.01829 0.56353 0.13489 0.12700
C 	C 	0.01150 0.92770 0.97984 0.44200
O 	O 	0.01975 0.97102 0.63096 -0.49000
O 	O 	0.01028 0.02449 0.76271 -0.26000
Co	Co	0.03154 0.08373 0.11231 1.20000
Co	Co	0.03513 0.99662 0.55616 1.21400
O 	O 	0.04316 0.91236 0.59275 -0.70800
N 	N 	0.02970 0.63378 0.70752 -0.13700
H 	H 	0.03893 0.63782 0.18190 0.08400
O 	O 	0.04240 0.97131 0.13858 -0.51700
O 	O 	0.03801 0.02864 0.26773 -0.27200
O 	O 	0.05134 0.09431 0.05109 -0.43400
O 	O 	0.05799 0.90741 0.09936 -0.71500
N 	N 	0.05085 0.25940 0.70265 -0.12700
O 	O 	0.00086 0.86076 0.50656 -0.26400
H 	H 	0.05755 0.27157 0.73317 0.11500
O 	O 	0.00047 0.96901 0.99438 -0.31900
H 	H 	0.00246 0.31138 0.06018 0.15700
H 	H 	0.99406 0.19828 0.69493 -0.04400
H 	H 	0.19703 0.52859 0.19539 0.07000
H 	H 	0.13378 0.54109 0.65983 0.06800
Co	Co	0.06521 0.00018 0.06529 1.18300
Co	Co	0.10436 0.86632 0.07871 1.17900
C 	C 	0.15583 0.24000 0.15861 0.30700
C 	C 	0.15242 0.81101 0.18651 0.29000
O 	O 	0.12712 0.18751 0.19975 -0.34400
O 	O 	0.14534 0.20835 0.12694 -0.36800
O 	O 	0.18824 0.87477 0.14888 -0.39000
O 	O 	0.08172 0.79252 0.19535 -0.32200
C 	C 	0.98796 0.94435 0.28615 0.21700
O 	O 	0.20174 0.99306 0.04735 -0.33900
O 	O 	0.20661 0.07979 0.07207 -0.37500
Co	Co	0.98434 0.06709 0.60219 1.12400
Co	Co	0.09921 0.87981 0.57276 1.18000
C 	C 	0.09664 0.22688 0.64333 0.30600
C 	C 	0.15664 0.83523 0.68084 0.30000
O 	O 	0.08406 0.17251 0.68675 -0.32200
O 	O 	0.07876 0.20015 0.60650 -0.32600
O 	O 	0.18793 0.89704 0.64151 -0.38800
O 	O 	0.08826 0.81664 0.69173 -0.33400
C 	C 	0.97536 0.94223 0.78435 0.21800
O 	O 	0.18580 0.00891 0.53716 -0.35200
O 	O 	0.17459 0.08939 0.55756 -0.37700
C 	C 	0.07788 0.99133 0.90695 0.02900
C 	C 	0.06997 0.96913 0.86854 0.14500
H 	H 	0.13185 0.00350 0.85682 0.06100
C 	C 	0.16970 0.06993 0.92560 0.73900
F 	F 	0.22980 0.04687 0.95736 -0.46000
F 	F 	0.15913 0.10065 0.94978 -0.45600
F 	F 	0.20823 0.13778 0.88608 -0.44900
C 	C 	0.06500 0.99033 0.40477 -0.02400
C 	C 	0.06651 0.96557 0.37159 0.17100
H 	H 	0.13237 0.00002 0.36400 0.04900
C 	C 	0.14740 0.07769 0.41739 0.76300
F 	F 	0.77533 0.84947 0.28092 -0.45900
F 	F 	0.22134 0.07315 0.44781 -0.46500
F 	F 	0.12708 0.10146 0.44048 -0.44800
C 	C 	0.14705 0.41276 0.66804 -0.07500
C 	C 	0.11061 0.31039 0.63334 -0.07200
C 	C 	0.10382 0.32649 0.66926 0.13100
H 	H 	0.15423 0.42632 0.69937 0.06700
C 	C 	0.13493 0.65525 0.67883 -0.07900
C 	C 	0.18037 0.77210 0.70420 -0.10500
C 	C 	0.11259 0.68709 0.69573 0.13800
H 	H 	0.07968 0.59972 0.66224 0.08300
H 	H 	0.98386 0.56797 0.70604 0.00500
C 	C 	0.21767 0.46443 0.11861 -0.08500
C 	C 	0.21927 0.33615 0.15471 -0.09600
C 	C 	0.20021 0.39313 0.11260 0.12700
N 	N 	0.17199 0.38391 0.06620 -0.20600
H 	H 	0.19970 0.50624 0.08658 0.05900
C 	C 	0.11301 0.67081 0.19097 -0.03600
C 	C 	0.17407 0.74613 0.20935 -0.09000
C 	C 	0.26767 0.77614 0.23075 0.12500
N 	N 	0.32586 0.83800 0.25716 -0.20200
H 	H 	0.30112 0.86020 0.26472 0.10300
H 	H 	0.81501 0.73528 0.00319 0.08300
C 	C 	0.74297 0.29525 0.03289 0.04300
C 	C 	0.78884 0.38592 0.02658 -0.08800
C 	C 	0.74587 0.41190 0.03168 0.04300
C 	C 	0.65214 0.35294 0.03121 -0.08500
C 	C 	0.60503 0.26437 0.03582 0.04800
C 	C 	0.65130 0.23455 0.03925 -0.08800
H 	H 	0.85778 0.43491 0.01967 0.04000
H 	H 	0.61787 0.37444 0.03232 0.06200
H 	H 	0.61660 0.16453 0.04765 0.05300
C 	C 	0.70275 0.27278 0.53349 0.04100
C 	C 	0.60804 0.23469 0.52358 -0.07900
C 	C 	0.58163 0.27954 0.52442 0.04800
C 	C 	0.64735 0.36686 0.52687 -0.08200
C 	C 	0.74152 0.40403 0.54003 0.04600
C 	C 	0.77027 0.35795 0.54246 -0.08800
H 	H 	0.55590 0.16744 0.51987 0.06500
H 	H 	0.62559 0.40216 0.52543 0.06300
H 	H 	0.84347 0.38595 0.55339 0.03700
C 	C 	0.28803 0.67136 0.17365 0.05000
C 	C 	0.36623 0.74457 0.15341 -0.08200
C 	C 	0.41882 0.73297 0.14482 0.05100
C 	C 	0.38778 0.64761 0.15205 -0.08000
C 	C 	0.30407 0.57461 0.16598 0.05000
C 	C 	0.25708 0.58570 0.18004 -0.08400
H 	H 	0.38800 0.81033 0.14621 0.05700
H 	H 	0.42858 0.63779 0.14656 0.06700
C 	C 	0.25448 0.67708 0.65600 0.04900
C 	C 	0.33776 0.74253 0.63978 -0.08300
C 	C 	0.37369 0.71939 0.62641 0.04700
C 	C 	0.31708 0.63661 0.61730 -0.08400
C 	C 	0.22882 0.57285 0.62745 0.05200
C 	C 	0.19834 0.59253 0.64802 -0.07800
H 	H 	0.37878 0.80955 0.64196 0.06100
H 	H 	0.34527 0.61904 0.60691 0.06100
Co	Co	0.94870 0.91804 0.18536 1.14500
Co	Co	0.99811 0.83819 0.14474 1.12100
C 	C 	0.24921 0.05909 0.06640 0.30500
Co	Co	0.99008 0.08427 0.19914 1.11600
C 	C 	0.91792 0.70661 0.09452 0.18200
O 	O 	0.95268 0.15506 0.13262 -0.45700
C 	C 	0.91009 0.13560 0.08931 0.28600
O 	O 	0.92231 0.80676 0.18622 -0.48600
C 	C 	0.79876 0.93318 0.16305 0.32200
O 	O 	0.91638 0.08699 0.07908 -0.45900
O 	O 	0.85369 0.97343 0.19955 -0.37000
O 	O 	0.82207 0.89979 0.15145 -0.40600
O 	O 	0.96502 0.89083 0.26360 -0.33000
O 	O 	0.89634 0.74435 0.10340 -0.40200
Co	Co	0.93400 0.91145 0.68429 1.17000
Co	Co	0.98976 0.84262 0.64069 1.12200
C 	C 	0.22499 0.07626 0.55285 0.33800
Co	Co	0.95061 0.06627 0.69286 1.13500
C 	C 	0.92082 0.70931 0.59516 0.18000
O 	O 	0.90313 0.12668 0.62466 -0.44500
O 	O 	0.97468 0.01804 0.66249 -0.80700
C 	C 	0.84490 0.09027 0.58737 0.31100
O 	O 	0.91823 0.80552 0.68649 -0.49300
C 	C 	0.76473 0.89466 0.66731 0.31800
C 	C 	0.99065 0.92276 0.47430 0.18600
O 	O 	0.85645 0.04816 0.57484 -0.42700
O 	O 	0.97134 0.95883 0.48747 -0.37800
O 	O 	0.81655 0.94842 0.69715 -0.35700
O 	O 	0.80025 0.87403 0.65500 -0.41000
O 	O 	0.96225 0.89276 0.76297 -0.34000
O 	O 	0.89325 0.74170 0.60416 -0.40000
C 	C 	0.91173 0.88424 0.89878 0.10300
C 	C 	0.99923 0.94240 0.92564 -0.22600
C 	C 	0.98263 0.91638 0.83924 -0.07200
C 	C 	0.90285 0.86891 0.85670 -0.13400
C 	C 	0.80797 0.80536 0.82942 0.78500
H 	H 	0.85054 0.84903 0.91134 0.03500
F 	F 	0.74576 0.74440 0.85968 -0.47700
F 	F 	0.81303 0.75994 0.81308 -0.47800
F 	F 	0.77540 0.85184 0.78952 -0.47600
C 	C 	0.89929 0.87828 0.39292 0.04100
C 	C 	0.98293 0.93860 0.42071 -0.08000
C 	C 	0.98391 0.91475 0.33938 -0.09400
C 	C 	0.89867 0.86637 0.35197 -0.10400
C 	C 	0.80728 0.80345 0.32200 0.77600
H 	H 	0.83511 0.83934 0.40365 0.06100
F 	F 	0.74110 0.73970 0.34995 -0.46500
F 	F 	0.81784 0.76102 0.30667 -0.45800
F 	F 	0.17268 0.14232 0.37428 -0.44900
C 	C 	0.17653 0.48062 0.62584 -0.01200
C 	C 	0.16589 0.46120 0.58501 0.08400
C 	C 	0.13940 0.37785 0.59060 -0.02500
H 	H 	0.13980 0.36552 0.56140 0.06700
N 	N 	0.17764 0.52061 0.54027 -0.19400
H 	H 	0.18498 0.57765 0.53315 0.10500
H 	H 	0.17383 0.50754 0.51111 0.10500
C 	C 	0.61588 0.86520 0.60709 -0.02600
C 	C 	0.66303 0.84412 0.65519 -0.10700
C 	C 	0.61229 0.77476 0.69144 0.16300
C 	C 	0.52131 0.74401 0.68339 -0.09200
C 	C 	0.47492 0.76935 0.63631 -0.01400
C 	C 	0.52236 0.83016 0.59749 0.07100
N 	N 	0.47927 0.85607 0.55149 -0.19400
H 	H 	0.65264 0.91118 0.57756 0.05000
H 	H 	0.48347 0.69380 0.71229 0.07000
N 	N 	0.64572 0.73005 0.73036 -0.19300
H 	H 	0.51476 0.90064 0.52303 0.09500
H 	H 	0.41107 0.83393 0.54383 0.09700
H 	H 	0.70381 0.73927 0.73111 0.14800
H 	H 	0.60947 0.68049 0.75816 0.13900
C 	C 	0.22875 0.69619 0.68352 -0.01400
C 	C 	0.29776 0.76269 0.71039 0.07200
C 	C 	0.27394 0.80555 0.71639 -0.02200
H 	H 	0.32792 0.86596 0.72876 0.05000
N 	N 	0.38306 0.77967 0.73384 -0.19400
H 	H 	0.39664 0.73823 0.73736 0.09900
H 	H 	0.43451 0.83086 0.75188 0.09500
C 	C 	0.26561 0.48679 0.16464 -0.01700
C 	C 	0.29682 0.43690 0.20507 0.08400
C 	C 	0.27657 0.36426 0.19902 -0.02300
H 	H 	0.29780 0.32441 0.23053 0.06700
N 	N 	0.34511 0.45755 0.24990 -0.19200
H 	H 	0.15684 0.42555 0.03518 0.10100
H 	H 	0.17025 0.33910 0.06028 0.11400
H 	H 	0.35659 0.50772 0.25651 0.10800
H 	H 	0.36981 0.42171 0.27922 0.11200
C 	C 	0.63871 0.85577 0.10872 -0.01600
C 	C 	0.70271 0.90922 0.14256 -0.09900
C 	C 	0.67016 0.92841 0.16213 0.16600
C 	C 	0.57549 0.87247 0.16158 -0.08400
C 	C 	0.51147 0.80966 0.13322 -0.00800
C 	C 	0.54299 0.81093 0.10121 0.06900
N 	N 	0.48208 0.77085 0.06309 -0.19400
H 	H 	0.66290 0.84879 0.08844 0.04600
H 	H 	0.55210 0.87786 0.18320 0.06600
N 	N 	0.72719 0.00397 0.17697 -0.20500
H 	H 	0.50523 0.76931 0.04068 0.08800
H 	H 	0.41203 0.74475 0.05397 0.09300
H 	H 	0.79000 0.05629 0.16626 0.08200
H 	H 	0.70456 0.01467 0.19459 0.08700
C 	C 	0.30178 0.74441 0.22273 -0.08100
C 	C 	0.24432 0.68574 0.19195 -0.01900
C 	C 	0.14773 0.64780 0.17600 0.08400
N 	N 	0.08980 0.59560 0.14357 -0.19700
H 	H 	0.37426 0.76927 0.23809 0.06100
H 	H 	0.11527 0.59279 0.12325 0.10300
H 	H 	0.39603 0.86294 0.27138 0.09300
C 	C 	0.71422 0.07941 0.58271 -0.03000
C 	C 	0.77399 0.10737 0.55709 -0.11900
C 	C 	0.79579 0.18272 0.51674 0.11600
C 	C 	0.77415 0.23763 0.50994 -0.09000
C 	C 	0.73032 0.21742 0.54267 -0.02100
C 	C 	0.70170 0.13787 0.58010 0.06500
N 	N 	0.66946 0.12074 0.61609 -0.19400
H 	H 	0.69627 0.02150 0.61325 0.03900
H 	H 	0.79200 0.29603 0.47951 0.04800
N 	N 	0.84073 0.20457 0.48579 -0.20600
H 	H 	0.64063 0.05889 0.64095 0.08300
H 	H 	0.68082 0.17082 0.62263 0.08000
H 	H 	0.85390 0.16308 0.48895 0.07700
H 	H 	0.86045 0.26215 0.45729 0.06900
C 	C 	0.83712 0.54871 0.61644 -0.04600
C 	C 	0.85375 0.62599 0.57973 -0.08200
C 	C 	0.83668 0.62882 0.53034 0.10500
C 	C 	0.82388 0.56377 0.52036 -0.09000
C 	C 	0.80728 0.48610 0.55691 -0.02900
C 	C 	0.81914 0.48080 0.60620 0.06000
N 	N 	0.81101 0.40971 0.64352 -0.19600
H 	H 	0.84287 0.54316 0.65372 0.03500
H 	H 	0.81349 0.56787 0.48240 0.06200
N 	N 	0.82690 0.69074 0.49220 -0.20500
H 	H 	0.81611 0.40429 0.67942 0.07100
H 	H 	0.80291 0.36086 0.63763 0.07200
H 	H 	0.82286 0.73149 0.49835 0.09900
H 	H 	0.81692 0.69459 0.45567 0.11700
C 	C 	0.42806 0.24939 0.49791 -0.08300
C 	C 	0.49146 0.23105 0.53411 -0.00500
C 	C 	0.47545 0.17995 0.58240 0.06800
C 	C 	0.38872 0.13460 0.59035 -0.01900
C 	C 	0.32253 0.14763 0.55271 -0.11000
C 	C 	0.34740 0.21378 0.50872 0.18200
N 	N 	0.29603 0.24530 0.47789 -0.19400
H 	H 	0.44407 0.29519 0.46246 0.07900
H 	H 	0.37185 0.08749 0.62543 0.04100
N 	N 	0.54423 0.17808 0.62147 -0.19300
H 	H 	0.31241 0.29153 0.44430 0.13200
H 	H 	0.24245 0.22753 0.48821 0.14500
H 	H 	0.61370 0.22568 0.61963 0.08300
H 	H 	0.52952 0.13416 0.65579 0.08200
C 	C 	0.92785 0.27500 0.04951 -0.19300
C 	C 	0.87387 0.18649 0.04943 -0.07400
C 	C 	0.77728 0.14351 0.02948 0.10400
C 	C 	0.73741 0.18519 0.01861 -0.09400
C 	C 	0.79064 0.26261 0.03434 -0.03600
C 	C 	0.88786 0.30501 0.05312 0.10900
N 	N 	0.93887 0.36128 0.08240 -0.26900
H 	H 	0.66491 0.15587 0.99958 0.07000
N 	N 	0.72262 0.06264 0.02125 -0.20300
H 	H 	0.90735 0.35965 0.10131 0.07200
H 	H 	0.75139 0.03318 0.02617 0.08600
H 	H 	0.65063 0.02924 0.00877 0.08000
C 	C 	0.83833 0.54828 0.11368 -0.04700
C 	C 	0.84625 0.62391 0.07871 -0.08400
C 	C 	0.81835 0.62748 0.02780 0.10400
C 	C 	0.80115 0.56460 0.01300 -0.10800
C 	C 	0.80059 0.49218 0.04826 -0.02300
C 	C 	0.82101 0.48494 0.09937 0.05200
N 	N 	0.82331 0.41686 0.13481 -0.19700
H 	H 	0.85625 0.54362 0.15285 0.02700
H 	H 	0.78097 0.56835 0.97377 0.08300
N 	N 	0.80763 0.69100 0.99296 -0.19100
H 	H 	0.83586 0.41052 0.17229 0.06500
H 	H 	0.81562 0.37126 0.12574 0.07300
H 	H 	0.78760 0.69400 0.95526 0.13000
C 	C 	0.36798 0.18743 0.02026 -0.03000
C 	C 	0.34675 0.12507 0.06511 -0.07900
C 	C 	0.41211 0.10799 0.10075 0.11400
C 	C 	0.49228 0.14562 0.08837 -0.07500
C 	C 	0.50931 0.20245 0.04156 -0.02300
C 	C 	0.44288 0.21825 0.00604 0.09700
N 	N 	0.45111 0.26301 0.95833 -0.18500
H 	H 	0.32046 0.20456 0.99413 0.11900
H 	H 	0.54416 0.13506 0.11617 0.04800
N 	N 	0.39884 0.05684 0.14713 -0.20300
H 	H 	0.40375 0.27745 0.93265 0.13900
H 	H 	0.50192 0.28011 0.94579 0.11200
H 	H 	0.34519 0.03625 0.15885 0.09400
H 	H 	0.44478 0.04054 0.17268 0.08300
