data_crystal

_cell_length_a 20.42573
_cell_length_b 21.35422
_cell_length_c 31.51291
_cell_angle_alpha 60.74248
_cell_angle_beta  118.95262
_cell_angle_gamma 133.13125

_symmetry_space_group_name_	'P 1'
_symmetry_space_group_name_H-M	'P 1'

loop_
_symmetry_equiv_pos_as_xyz
  x,y,z

loop_
_atom_site_label
_atom_site_type_symbol
_atom_site_fract_x
_atom_site_fract_y
_atom_site_fract_z
_atom_site_charge
C 	C 	0.02038 0.00563 0.26340 0.26600
Co	Co	0.01866 0.09912 0.59500 1.18000
Co	Co	0.02673 0.86788 0.13432 1.19000
O 	O 	0.01113 0.06760 0.22869 -0.36100
O 	O 	0.02355 0.95541 0.25124 -0.28500
O 	O 	0.05217 0.77961 0.09115 -0.37900
C 	C 	0.01907 0.95924 0.46229 0.43300
O 	O 	0.02819 0.01642 0.47583 -0.39600
O 	O 	0.01259 0.75769 0.59248 -0.40000
C 	C 	0.01562 0.98579 0.31536 -0.12300
C 	C 	0.02519 0.97950 0.41078 -0.18700
O 	O 	0.01865 0.10017 0.03121 -0.46300
Co	Co	0.04413 0.01500 0.04320 1.16000
C 	C 	0.04125 0.21096 0.12665 0.32800
O 	O 	0.05145 0.92864 0.07658 -0.72500
Co	Co	0.06870 0.02555 0.55095 1.16900
O 	O 	0.07619 0.13064 0.54330 -0.45400
O 	O 	0.05676 0.14933 0.69663 -0.35800
O 	O 	0.04689 0.92470 0.58069 -0.72300
C 	C 	0.04685 0.02012 0.87911 0.22200
C 	C 	0.04673 0.01751 0.83499 0.22300
H 	H 	0.03699 0.66484 0.68022 0.06300
C 	C 	0.07960 0.97508 0.35809 0.25800
O 	O 	0.06864 0.18182 0.11439 -0.38800
C 	C 	0.08420 0.97161 0.40544 0.28000
H 	H 	0.07789 0.46469 0.57333 0.16200
O 	O 	0.06938 0.56926 0.67508 -0.26800
H 	H 	0.05936 0.58800 0.63811 0.15700
O 	O 	0.09447 0.70241 0.20307 -0.28700
O 	O 	0.00726 0.88522 0.49429 -0.37500
H 	H 	0.11049 0.69388 0.23971 0.16500
Co	Co	0.11308 0.91052 0.05022 1.18400
Co	Co	0.10202 0.88982 0.56172 1.19300
O 	O 	0.10455 0.84550 0.68298 -0.36500
H 	H 	0.11762 0.34534 0.58690 0.08100
C 	C 	0.10433 0.30010 0.13561 -0.11300
O 	O 	0.09093 0.36821 0.04715 -0.28600
C 	C 	0.11544 0.21368 0.66779 0.31200
C 	C 	0.10913 0.69157 0.69159 -0.04300
O 	O 	0.12574 0.19702 0.63626 -0.37400
F 	F 	0.11617 0.08854 0.81145 -0.39500
F 	F 	0.11853 0.09200 0.89829 -0.40100
C 	C 	0.12657 0.30616 0.18381 -0.04100
H 	H 	0.11542 0.24932 0.21533 0.07300
H 	H 	0.12263 0.36773 0.24319 0.15700
C 	C 	0.11606 0.37365 0.09488 0.18500
Co	Co	0.99789 0.85903 0.63099 1.18300
O 	O 	0.98947 0.94435 0.74045 -0.34800
O 	O 	0.98950 0.99174 0.97012 -0.31200
Co	Co	0.97262 0.06584 0.08920 1.17200
C 	C 	0.20502 0.89151 0.15558 0.31700
O 	O 	0.99852 0.87715 0.99172 -0.36100
O 	O 	0.95602 0.16151 0.13000 -0.40800
O 	O 	0.22027 0.94602 0.11176 -0.36800
O 	O 	0.15173 0.88005 0.17527 -0.35300
O 	O 	0.18018 0.04059 0.00878 -0.41300
O 	O 	0.18498 0.10404 0.05176 -0.40600
C 	C 	0.15820 0.84441 0.67124 0.31500
O 	O 	0.19120 0.90001 0.63121 -0.36800
C 	C 	0.95285 0.95550 0.75923 0.39200
O 	O 	0.19691 0.01891 0.53015 -0.40700
O 	O 	0.20935 0.08701 0.57358 -0.40000
F 	F 	0.14577 0.96006 0.44617 -0.40300
F 	F 	0.13891 0.97005 0.35392 -0.37400
C 	C 	0.16200 0.30569 0.66696 -0.10200
C 	C 	0.14545 0.36139 0.62220 -0.04300
C 	C 	0.15964 0.43517 0.62298 0.14900
O 	O 	0.14271 0.48862 0.57878 -0.26300
C 	C 	0.17634 0.77634 0.70077 -0.11000
C 	C 	0.13554 0.64628 0.69070 0.14400
C 	C 	0.15780 0.38320 0.19135 0.14500
O 	O 	0.17979 0.38742 0.23891 -0.26800
C 	C 	0.17402 0.74059 0.19215 0.18600
C 	C 	0.23691 0.83390 0.17852 -0.10600
H 	H 	0.14150 0.61482 0.20215 0.07600
C 	C 	0.70914 0.26428 0.04932 0.14500
N 	N 	0.77982 0.33897 0.06678 -0.13500
C 	C 	0.76069 0.37829 0.07820 0.14600
N 	N 	0.67213 0.34228 0.07305 -0.13400
C 	C 	0.60218 0.27077 0.05394 0.15000
N 	N 	0.62041 0.23221 0.04162 -0.14500
C 	C 	0.73081 0.29206 0.53167 0.13700
N 	N 	0.64292 0.23367 0.53783 -0.13200
C 	C 	0.61571 0.24998 0.56064 0.14500
N 	N 	0.67555 0.32424 0.57690 -0.14000
C 	C 	0.75924 0.38711 0.56627 0.14300
N 	N 	0.78821 0.37095 0.54426 -0.13300
C 	C 	0.29181 0.66715 0.18221 0.14100
N 	N 	0.38116 0.69716 0.19429 -0.12600
C 	C 	0.40234 0.65565 0.18713 0.15000
N 	N 	0.33436 0.58080 0.17100 -0.13000
C 	C 	0.24486 0.54638 0.16185 0.14700
N 	N 	0.22266 0.58990 0.16684 -0.13600
C 	C 	0.26418 0.65448 0.68910 0.14200
N 	N 	0.21281 0.56961 0.68578 -0.12800
C 	C 	0.24371 0.54908 0.66791 0.15100
N 	N 	0.32533 0.61216 0.65457 -0.13100
C 	C 	0.37848 0.69450 0.66051 0.15400
N 	N 	0.34786 0.71593 0.67739 -0.13700
Co	Co	0.95547 0.91927 0.18077 1.19700
C 	C 	0.22568 0.10534 0.02904 0.34000
Co	Co	0.89299 0.03169 0.17251 1.16600
C 	C 	0.96739 0.72659 0.09640 0.32100
O 	O 	0.78356 0.99496 0.11184 -0.31600
O 	O 	0.94288 0.00244 0.14539 -0.78700
C 	C 	0.79695 0.04883 0.06746 0.24300
O 	O 	0.98547 0.83678 0.19369 -0.44200
C 	C 	0.77995 0.83498 0.20202 0.32200
O 	O 	0.97398 0.95060 0.10542 -0.55300
C 	C 	0.98805 0.93880 0.95743 0.37400
O 	O 	0.85444 0.06585 0.04805 -0.37100
O 	O 	0.82767 0.90497 0.21808 -0.34400
O 	O 	0.81798 0.82655 0.18310 -0.37300
O 	O 	0.94046 0.74806 0.11494 -0.37400
Co	Co	0.92875 0.92568 0.66680 1.20300
C 	C 	0.24750 0.08065 0.55354 0.32500
Co	Co	0.91886 0.07206 0.66409 1.15600
C 	C 	0.92569 0.71961 0.58680 0.31400
O 	O 	0.94259 0.17923 0.60283 -0.41600
O 	O 	0.95593 0.02802 0.63910 -0.79700
C 	C 	0.91108 0.17145 0.55726 0.32700
O 	O 	0.93188 0.82468 0.67905 -0.44000
C 	C 	0.74547 0.90057 0.64229 0.31400
O 	O 	0.97757 0.96684 0.60034 -0.54900
O 	O 	0.92661 0.13204 0.54538 -0.39000
O 	O 	0.78733 0.98719 0.62797 -0.35100
O 	O 	0.78803 0.86394 0.65544 -0.35700
O 	O 	0.89235 0.97232 0.72934 -0.37700
O 	O 	0.90158 0.74889 0.60123 -0.36900
C 	C 	0.90225 0.87369 0.88347 0.26400
C 	C 	0.97445 0.94818 0.90379 -0.13800
C 	C 	0.97351 0.94356 0.81421 -0.14400
C 	C 	0.90257 0.87084 0.83972 0.26500
F 	F 	0.83060 0.79907 0.82046 -0.39600
F 	F 	0.83193 0.80307 0.90653 -0.39500
C 	C 	0.95641 0.99328 0.32093 0.28600
C 	C 	0.96146 0.99031 0.36811 0.27000
F 	F 	0.90240 0.99568 0.37227 -0.37900
F 	F 	0.89452 0.00468 0.28040 -0.47500
C 	C 	0.19586 0.45706 0.66862 -0.04000
C 	C 	0.21341 0.40192 0.71330 -0.07700
C 	C 	0.19910 0.32815 0.71253 0.18000
H 	H 	0.24354 0.41926 0.74850 0.08700
O 	O 	0.21860 0.27625 0.75665 -0.23300
H 	H 	0.28360 0.30159 0.76131 0.16700
C 	C 	0.47426 0.75436 0.65698 -0.04200
C 	C 	0.49552 0.80737 0.61019 -0.07900
C 	C 	0.58277 0.85128 0.60433 0.18700
C 	C 	0.64971 0.84292 0.64567 -0.10100
C 	C 	0.62823 0.78970 0.69241 -0.04400
C 	C 	0.54130 0.74642 0.69833 0.15500
H 	H 	0.44354 0.81255 0.57806 0.08600
O 	O 	0.60304 0.90336 0.55838 -0.26700
H 	H 	0.67997 0.78403 0.72454 0.10100
O 	O 	0.52049 0.69323 0.74409 -0.26000
H 	H 	0.53733 0.73239 0.76136 0.16900
H 	H 	0.58581 0.86345 0.54152 0.16500
C 	C 	0.22994 0.68153 0.70483 -0.03300
C 	C 	0.29439 0.75565 0.72545 -0.08400
C 	C 	0.26814 0.80380 0.72270 0.18900
H 	H 	0.36632 0.78008 0.73997 0.08500
O 	O 	0.33410 0.88236 0.73666 -0.27200
H 	H 	0.33603 0.86662 0.77233 0.16800
C 	C 	0.17371 0.45817 0.15112 -0.04000
C 	C 	0.14975 0.45178 0.10266 -0.08600
H 	H 	0.16210 0.50908 0.07131 0.07900
H 	H 	0.14720 0.38851 0.04144 0.16000
C 	C 	0.49833 0.69645 0.19164 -0.03400
C 	C 	0.55986 0.70162 0.23872 -0.08200
C 	C 	0.65117 0.73870 0.24337 0.19900
C 	C 	0.68130 0.77088 0.20062 -0.10800
C 	C 	0.61781 0.75979 0.15416 -0.03600
C 	C 	0.52707 0.72432 0.14933 0.15000
H 	H 	0.53710 0.67732 0.27167 0.08600
O 	O 	0.71104 0.74350 0.28971 -0.27900
H 	H 	0.64049 0.78441 0.12110 0.07400
O 	O 	0.46658 0.71738 0.10320 -0.27100
H 	H 	0.47313 0.77398 0.08837 0.16300
H 	H 	0.73686 0.79956 0.29495 0.19300
C 	C 	0.27174 0.72413 0.18077 -0.03500
C 	C 	0.19104 0.68615 0.19261 -0.08400
C 	C 	0.32147 0.87057 0.17220 -0.04100
C 	C 	0.33702 0.81740 0.17043 0.14400
H 	H 	0.37179 0.94190 0.16342 0.08400
O 	O 	0.41512 0.85714 0.15726 -0.25700
H 	H 	0.39759 0.86813 0.12029 0.15500
C 	C 	0.76668 0.26643 0.51591 -0.03200
C 	C 	0.85690 0.32760 0.50857 -0.09200
C 	C 	0.90102 0.29783 0.50914 0.18800
C 	C 	0.85716 0.20642 0.52030 -0.12100
C 	C 	0.76153 0.14924 0.51518 -0.04400
C 	C 	0.71611 0.17788 0.51436 0.13700
H 	H 	0.89441 0.39731 0.50485 0.08200
O 	O 	0.99087 0.35713 0.50513 -0.29100
H 	H 	0.72465 0.07986 0.51845 0.06400
O 	O 	0.62304 0.11979 0.51165 -0.26700
H 	H 	0.61714 0.08496 0.54658 0.14600
H 	H 	0.98720 0.37448 0.46898 0.16100
C 	C 	0.81112 0.47574 0.57241 -0.04100
C 	C 	0.81435 0.48158 0.61604 -0.08400
C 	C 	0.83287 0.55717 0.61712 0.18400
C 	C 	0.85920 0.63206 0.57666 -0.10500
C 	C 	0.85248 0.62535 0.53233 -0.04500
C 	C 	0.82955 0.54815 0.53022 0.14800
H 	H 	0.79628 0.42491 0.64807 0.07700
O 	O 	0.82378 0.55722 0.65750 -0.27200
H 	H 	0.87166 0.68251 0.50060 0.07500
O 	O 	0.82511 0.54370 0.48682 -0.26700
H 	H 	0.76064 0.52073 0.46704 0.16300
H 	H 	0.88308 0.57337 0.68268 0.15300
C 	C 	0.51845 0.19830 0.55877 -0.04300
C 	C 	0.49270 0.16296 0.60351 -0.08800
C 	C 	0.40759 0.13620 0.60244 0.18600
C 	C 	0.34620 0.14212 0.55636 -0.11500
C 	C 	0.37457 0.18278 0.51185 -0.03300
C 	C 	0.45849 0.20757 0.51277 0.14800
H 	H 	0.54033 0.15937 0.63920 0.07100
O 	O 	0.38449 0.10421 0.64649 -0.28200
H 	H 	0.32802 0.18871 0.47613 0.07500
O 	O 	0.48441 0.24594 0.46875 -0.26800
H 	H 	0.46128 0.19614 0.45788 0.16600
H 	H 	0.35897 0.04064 0.65737 0.15600
C 	C 	0.76444 0.10523 0.04512 -0.08200
C 	C 	0.82861 0.19799 0.03450 -0.05900
C 	C 	0.81145 0.25115 0.03514 0.15300
C 	C 	0.72738 0.21153 0.04425 -0.05200
C 	C 	0.65903 0.11992 0.04846 -0.06600
C 	C 	0.67676 0.06741 0.04806 0.11300
H 	H 	0.89457 0.22849 0.02939 0.08000
O 	O 	0.87577 0.34132 0.02573 -0.26900
H 	H 	0.59293 0.08855 0.05381 0.05700
O 	O 	0.61069 0.97765 0.05485 -0.23500
H 	H 	0.57509 0.96823 0.02066 0.16000
H 	H 	0.92003 0.35316 0.05845 0.15700
C 	C 	0.83297 0.46679 0.08796 -0.03700
C 	C 	0.86609 0.53991 0.04764 -0.08700
C 	C 	0.90170 0.62335 0.04847 0.19200
C 	C 	0.90976 0.63579 0.09125 -0.10800
C 	C 	0.88205 0.56377 0.13293 -0.03500
C 	C 	0.84494 0.47984 0.13167 0.14100
H 	H 	0.85753 0.53074 0.01391 0.08600
O 	O 	0.93051 0.69336 0.00775 -0.30000
H 	H 	0.89126 0.57313 0.16676 0.07300
O 	O 	0.81506 0.40939 0.17207 -0.27100
H 	H 	0.86891 0.40730 0.19315 0.15200
H 	H 	0.87521 0.69266 0.98597 0.21200
C 	C 	0.50697 0.23529 0.04683 -0.05700
C 	C 	0.47580 0.20692 0.08806 -0.08800
C 	C 	0.38557 0.17469 0.08168 0.18800
C 	C 	0.32542 0.16929 0.03381 -0.13300
C 	C 	0.35971 0.20591 0.99208 -0.02600
C 	C 	0.44956 0.23721 0.99851 0.15800
H 	H 	0.52105 0.20830 0.12523 0.07500
O 	O 	0.35408 0.14179 0.12275 -0.29400
H 	H 	0.31448 0.20435 0.95490 0.09800
O 	O 	0.48176 0.27129 0.95748 -0.25900
H 	H 	0.46537 0.22003 0.95154 0.15900
H 	H 	0.36663 0.19270 0.12671 0.15800
