data_crystal

_cell_length_a 23.22835
_cell_length_b 23.39508
_cell_length_c 23.38344
_cell_angle_alpha 95.53310
_cell_angle_beta  95.53349
_cell_angle_gamma 125.96821

_symmetry_space_group_name_	'P 1'
_symmetry_space_group_name_H-M	'P 1'

loop_
_symmetry_equiv_pos_as_xyz
  x,y,z

loop_
_atom_site_label
_atom_site_type_symbol
_atom_site_fract_x
_atom_site_fract_y
_atom_site_fract_z
_atom_site_charge
C 	C 	0.96622 0.03592 0.00211 0.11000
N 	N 	0.03828 0.07417 0.00141 -0.12300
C 	C 	0.06918 0.03975 0.99719 0.10200
N 	N 	0.02798 0.96745 0.99334 -0.12200
C 	C 	0.95615 0.92919 0.99385 0.10800
N 	N 	0.92525 0.96349 0.99823 -0.13400
C 	C 	0.93083 0.00019 0.43738 0.08900
N 	N 	0.00346 0.04070 0.43920 -0.12600
C 	C 	0.03815 0.01028 0.44222 0.12200
N 	N 	0.00052 0.93930 0.44332 -0.11900
C 	C 	0.92807 0.89831 0.44141 0.11800
N 	N 	0.89284 0.92859 0.43843 -0.12700
Cu	Cu	0.63609 0.23705 0.00901 0.92900
Cu	Cu	0.69946 0.23437 0.89000 0.86800
Cu	Cu	0.67558 0.34323 0.92534 0.89500
Cu	Cu	0.62817 0.36644 0.03472 0.89800
C 	C 	0.64968 0.29788 0.12718 0.28100
O 	O 	0.52841 0.19000 0.00300 -0.35200
C 	C 	0.66458 0.28911 0.80090 0.28100
O 	O 	0.69052 0.34744 0.00837 -0.63400
O 	O 	0.62926 0.23875 0.92395 -0.64300
O 	O 	0.68559 0.19026 0.01462 -0.35900
O 	O 	0.76573 0.26180 0.95950 -0.44200
O 	O 	0.61457 0.32180 0.10562 -0.37700
O 	O 	0.72576 0.44609 0.93304 -0.38000
C 	C 	0.71845 0.48527 0.97182 0.29800
C 	C 	0.49869 0.21721 0.97815 0.29300
O 	O 	0.54026 0.28180 0.96628 -0.39500
O 	O 	0.66614 0.45545 0.00235 -0.38300
O 	O 	0.65711 0.25485 0.09326 -0.35100
C 	C 	0.74716 0.21768 0.99641 0.26800
O 	O 	0.67625 0.34117 0.84036 -0.37500
O 	O 	0.65600 0.23211 0.81576 -0.41900
H 	H 	0.74177 0.38126 0.02868 0.16500
H 	H 	0.57963 0.20629 0.90024 0.17400
Cu	Cu	0.73459 0.33396 0.42242 0.92600
Cu	Cu	0.73469 0.26950 0.54102 0.87000
Cu	Cu	0.62813 0.29620 0.50630 0.89600
Cu	Cu	0.60492 0.34295 0.39683 0.89500
C 	C 	0.67368 0.32131 0.30438 0.28100
O 	O 	0.78274 0.44127 0.42866 -0.35900
C 	C 	0.68188 0.30623 0.63068 0.28100
O 	O 	0.62358 0.28076 0.42323 -0.63800
O 	O 	0.73302 0.34100 0.50761 -0.63800
O 	O 	0.77943 0.28232 0.41662 -0.36900
O 	O 	0.70495 0.20388 0.47100 -0.44600
O 	O 	0.65025 0.35669 0.32617 -0.38000
O 	O 	0.52475 0.24684 0.49889 -0.38100
C 	C 	0.48499 0.25310 0.45940 0.29100
C 	C 	0.75538 0.47108 0.45340 0.28300
O 	O 	0.69027 0.42983 0.46536 -0.39200
O 	O 	0.51511 0.30517 0.42890 -0.39200
O 	O 	0.71651 0.31317 0.33813 -0.35200
C 	C 	0.75000 0.22107 0.43494 0.31000
O 	O 	0.63066 0.29717 0.59152 -0.37600
O 	O 	0.73842 0.31309 0.61557 -0.41900
H 	H 	0.58917 0.22984 0.40309 0.16500
H 	H 	0.76628 0.39013 0.53153 0.17500
C 	C 	0.66795 0.29779 0.74100 -0.04900
C 	C 	0.67311 0.30291 0.69057 -0.04900
C 	C 	0.66167 0.30271 0.18948 -0.03900
C 	C 	0.66870 0.30955 0.24206 -0.04000
C 	C 	0.83584 0.68807 0.44780 0.03500
C 	C 	0.85139 0.65221 0.40812 -0.06600
C 	C 	0.82863 0.58270 0.41186 0.01500
C 	C 	0.88963 0.82329 0.44364 -0.03000
C 	C 	0.77593 0.58515 0.49595 0.01300
C 	C 	0.79886 0.65474 0.49215 -0.06600
C 	C 	0.86301 0.76120 0.44564 -0.00500
C 	C 	0.78980 0.54828 0.45530 -0.08800
H 	H 	0.88101 0.67810 0.37427 0.05100
H 	H 	0.83931 0.55491 0.37993 0.04000
H 	H 	0.74644 0.55949 0.52991 0.03300
H 	H 	0.78783 0.68261 0.52368 0.05100
C 	C 	0.83688 0.11177 0.42884 -0.01100
C 	C 	0.90030 0.14069 0.46930 -0.03400
C 	C 	0.92897 0.10258 0.47390 -0.03300
C 	C 	0.78051 0.18276 0.42834 -0.12300
C 	C 	0.83026 0.00546 0.39795 -0.05000
C 	C 	0.80141 0.04370 0.39354 -0.02700
C 	C 	0.80577 0.15001 0.42674 0.04600
C 	C 	0.89469 0.03515 0.43777 -0.00300
H 	H 	0.92737 0.19270 0.49738 0.03400
H 	H 	0.97837 0.12586 0.50512 0.04000
H 	H 	0.80351 0.95373 0.36955 0.06000
H 	H 	0.75175 0.02048 0.36269 0.03800
C 	C 	0.25631 0.13027 0.45137 0.03600
C 	C 	0.30185 0.14587 0.50374 -0.06600
C 	C 	0.37656 0.18538 0.50642 0.01800
C 	C 	0.11492 0.05340 0.44557 -0.03000
C 	C 	0.36015 0.19336 0.40410 0.01700
C 	C 	0.28556 0.15392 0.40158 -0.06700
C 	C 	0.17942 0.08877 0.44837 -0.00400
C 	C 	0.40615 0.20956 0.45659 -0.08800
H 	H 	0.27944 0.12751 0.54238 0.05100
H 	H 	0.41140 0.19791 0.54732 0.04000
H 	H 	0.38219 0.21109 0.36521 0.02800
H 	H 	0.25050 0.14163 0.36086 0.05200
C 	C 	0.83384 0.70146 0.98012 -0.01000
C 	C 	0.80305 0.73029 0.95188 -0.03600
C 	C 	0.84223 0.80486 0.95742 -0.02300
C 	C 	0.75927 0.56101 0.97302 -0.10600
C 	C 	0.94271 0.82177 0.02012 -0.01600
C 	C 	0.90351 0.74733 0.01448 -0.02900
C 	C 	0.79315 0.62491 0.97554 0.04400
C 	C 	0.91253 0.85097 0.99125 -0.02300
H 	H 	0.74893 0.69504 0.92555 0.04400
H 	H 	0.81851 0.82666 0.93462 0.04400
H 	H 	0.99659 0.85677 0.04685 0.04200
H 	H 	0.92731 0.72535 0.03689 0.04100
C 	C 	0.86648 0.13244 0.01554 0.03200
C 	C 	0.79319 0.09029 0.02016 -0.06500
C 	C 	0.75496 0.11935 0.01754 0.00900
C 	C 	0.93319 0.07188 0.00745 -0.03200
C 	C 	0.86421 0.23389 0.00845 0.01000
C 	C 	0.90227 0.20471 0.01104 -0.06600
C 	C 	0.90353 0.10018 0.01156 -0.00800
C 	C 	0.78978 0.19079 0.00996 -0.08200
H 	H 	0.76528 0.03449 0.02416 0.04900
H 	H 	0.69771 0.08546 0.01900 0.03600
H 	H 	0.89211 0.28943 0.00364 0.03200
H 	H 	0.95912 0.23786 0.00810 0.04700
C 	C 	0.28988 0.13531 0.98837 -0.01100
C 	C 	0.25895 0.09570 0.03204 -0.02800
C 	C 	0.18813 0.06846 0.03741 -0.01600
C 	C 	0.42418 0.18608 0.97945 -0.10900
C 	C 	0.17958 0.12263 0.95674 -0.02400
C 	C 	0.25060 0.14990 0.95139 -0.03700
C 	C 	0.36261 0.16240 0.98259 0.04400
C 	C 	0.14753 0.08047 0.99899 -0.02100
H 	H 	0.28941 0.08522 0.06140 0.04300
H 	H 	0.16404 0.03626 0.07036 0.04200
H 	H 	0.14869 0.13201 0.92670 0.04200
H 	H 	0.27458 0.18142 0.91804 0.04200
