data_crystal

_cell_length_a 29.95509
_cell_length_b 39.25306
_cell_length_c 28.70256
_cell_angle_alpha 89.99999
_cell_angle_beta  91.79980
_cell_angle_gamma 90.00000

_symmetry_space_group_name_	'P 1'
_symmetry_space_group_name_H-M	'P 1'

loop_
_symmetry_equiv_pos_as_xyz
  x,y,z

loop_
_atom_site_label
_atom_site_type_symbol
_atom_site_fract_x
_atom_site_fract_y
_atom_site_fract_z
_atom_site_charge
C 	C 	0.83394 0.25607 0.98581 0.04000
C 	C 	0.84394 0.24929 0.03318 -0.03000
C 	C 	0.85106 0.21568 0.04841 0.03800
C 	C 	0.85303 0.18938 0.01556 -0.03200
C 	C 	0.84004 0.19524 0.96895 0.04100
C 	C 	0.82975 0.22867 0.95448 -0.02800
C 	C 	0.81137 0.28751 0.97863 -0.05400
S 	S 	0.82273 0.28066 0.06471 0.01900
C 	C 	0.84604 0.20395 0.09472 -0.05900
S 	S 	0.84698 0.15268 0.04349 0.01600
C 	C 	0.85291 0.17380 0.93191 -0.05800
S 	S 	0.83870 0.23132 0.89773 0.01600
C 	C 	0.80363 0.30479 0.02032 0.00300
H 	H 	0.79500 0.29439 0.94577 0.05800
C 	C 	0.84319 0.16826 0.09755 0.00500
H 	H 	0.84638 0.22054 0.12488 0.05900
C 	C 	0.85276 0.19063 0.88885 0.00600
H 	H 	0.86892 0.14934 0.93758 0.06300
C 	C 	0.93630 0.15531 0.78107 0.04800
C 	C 	0.89475 0.13992 0.78782 -0.03300
C 	C 	0.86710 0.15195 0.82252 -0.02600
C 	C 	0.88060 0.17965 0.85039 0.01700
C 	C 	0.92197 0.19531 0.84325 -0.02700
C 	C 	0.94967 0.18322 0.80860 -0.03700
H 	H 	0.88415 0.11842 0.76655 0.06700
H 	H 	0.83536 0.13958 0.82800 0.05400
H 	H 	0.93300 0.21640 0.86507 0.05100
H 	H 	0.98171 0.19525 0.80354 0.06000
C 	C 	0.70080 0.38008 0.02677 0.05900
C 	C 	0.73889 0.38617 0.00087 -0.05100
C 	C 	0.77294 0.36188 0.99980 -0.01000
C 	C 	0.76917 0.33127 0.02459 0.00700
C 	C 	0.73121 0.32533 0.05097 -0.02100
C 	C 	0.69718 0.34969 0.05206 -0.04400
H 	H 	0.74184 0.40954 0.98111 0.07300
H 	H 	0.80202 0.36665 0.97925 0.05000
H 	H 	0.72757 0.30157 0.06967 0.05000
H 	H 	0.66773 0.34474 0.07197 0.06400
C 	C 	0.89052 0.10730 0.21225 0.04800
C 	C 	0.85228 0.09748 0.18621 -0.03400
C 	C 	0.83586 0.11810 0.14982 -0.02600
C 	C 	0.85765 0.14864 0.13912 0.01700
C 	C 	0.89562 0.15865 0.16571 -0.02700
C 	C 	0.91188 0.13808 0.20217 -0.03600
H 	H 	0.83556 0.07375 0.19388 0.06500
H 	H 	0.80665 0.11009 0.12947 0.05300
H 	H 	0.91323 0.18186 0.15735 0.05000
H 	H 	0.94144 0.14581 0.22216 0.06200
C 	C 	0.28042 0.90440 0.03411 0.02700
C 	C 	0.31626 0.88540 0.05309 -0.02300
C 	C 	0.35037 0.87390 0.02468 0.02800
C 	C 	0.34666 0.87947 0.97622 -0.01900
C 	C 	0.30820 0.89468 0.95627 0.03000
C 	C 	0.27519 0.90730 0.98546 -0.01800
C 	C 	0.26008 0.92606 0.06697 -0.05400
S 	S 	0.32355 0.89663 0.10864 0.01600
C 	C 	0.37848 0.84598 0.03702 -0.05900
S 	S 	0.37617 0.84946 0.95033 0.02000
C 	C 	0.30723 0.91024 0.91167 -0.05500
S 	S 	0.24718 0.93789 0.95679 0.01800
C 	C 	0.28128 0.92452 0.11129 0.00600
H 	H 	0.23060 0.94123 0.05912 0.05600
C 	C 	0.39633 0.82980 0.99826 0.00800
H 	H 	0.37922 0.83459 0.07142 0.05800
C 	C 	0.27454 0.93569 0.90689 0.00500
H 	H 	0.33065 0.90428 0.88486 0.06100
C 	C 	0.22086 0.96980 0.77492 0.04700
C 	C 	0.23096 0.93526 0.78180 -0.03200
C 	C 	0.24818 0.92401 0.82494 -0.02700
C 	C 	0.25549 0.94728 0.86162 0.01900
C 	C 	0.24493 0.98179 0.85482 -0.02600
C 	C 	0.22772 0.99302 0.81161 -0.03300
H 	H 	0.22528 0.91712 0.75379 0.06500
H 	H 	0.25550 0.89721 0.82995 0.05200
H 	H 	0.25038 0.99994 0.88287 0.05400
H 	H 	0.21968 0.01971 0.80665 0.06200
C 	C 	0.22021 0.95423 0.23848 0.04900
C 	C 	0.21566 0.97481 0.19862 -0.03000
C 	C 	0.23582 0.96523 0.15729 -0.02600
C 	C 	0.25972 0.93449 0.15505 0.01700
C 	C 	0.26341 0.91359 0.19484 -0.02500
C 	C 	0.24409 0.92359 0.23636 -0.03800
H 	H 	0.19678 0.99832 0.19977 0.07000
H 	H 	0.23306 0.98178 0.12715 0.05200
H 	H 	0.28081 0.88946 0.19361 0.05100
H 	H 	0.24739 0.90738 0.26682 0.06200
C 	C 	0.43475 0.72487 0.00445 0.04400
C 	C 	0.45951 0.74944 0.02957 -0.03000
C 	C 	0.44738 0.78379 0.02678 -0.03400
C 	C 	0.41034 0.79382 0.99896 0.02400
C 	C 	0.38548 0.76915 0.97392 -0.02900
C 	C 	0.39777 0.73483 0.97656 -0.03000
H 	H 	0.48799 0.74190 0.05137 0.06600
H 	H 	0.46657 0.80258 0.04649 0.05500
H 	H 	0.35621 0.77643 0.95315 0.05300
H 	H 	0.37833 0.71596 0.95729 0.06300
Zn	Zn	0.45918 0.50418 0.01079 1.20800
Zn	Zn	0.52460 0.54057 0.94345 1.22100
Zn	Zn	0.52786 0.52696 0.08949 1.22200
P 	P 	0.48612 0.57535 0.02409 0.32200
P 	P 	0.55408 0.48676 0.00800 0.32000
C 	C 	0.57929 0.56388 0.15510 0.31000
C 	C 	0.44463 0.48986 0.10587 0.33300
C 	C 	0.44119 0.50594 0.91322 0.33100
O 	O 	0.44709 0.55272 0.00197 -0.40700
O 	O 	0.50760 0.47172 0.02312 -0.40600
O 	O 	0.53177 0.56900 0.99816 -0.41900
O 	O 	0.56778 0.51911 0.03902 -0.43400
O 	O 	0.49151 0.56718 0.07856 -0.37800
O 	O 	0.55115 0.49610 0.95372 -0.38700
O 	O 	0.55694 0.53536 0.14926 -0.38700
O 	O 	0.58946 0.59685 0.93156 -0.22800
O 	O 	0.58123 0.58569 0.12052 -0.22800
O 	O 	0.48863 0.48796 0.10800 -0.41900
O 	O 	0.46204 0.53552 0.91648 -0.41400
O 	O 	0.42349 0.49677 0.06608 -0.38900
O 	O 	0.43747 0.48650 0.95029 -0.38800
C 	C 	0.58090 0.58250 0.89094 0.30700
O 	O 	0.55256 0.55700 0.88790 -0.38200
C 	C 	0.29188 0.41284 0.47796 0.03500
C 	C 	0.25711 0.39325 0.45782 -0.02400
C 	C 	0.22247 0.38131 0.48526 0.03400
C 	C 	0.22452 0.38715 0.53372 -0.02400
C 	C 	0.26239 0.40241 0.55481 0.03400
C 	C 	0.29590 0.41538 0.52667 -0.02500
C 	C 	0.31151 0.43571 0.44621 -0.05700
S 	S 	0.25045 0.40522 0.40243 0.01700
C 	C 	0.19516 0.35315 0.47214 -0.05500
S 	S 	0.19410 0.35730 0.55877 0.01500
C 	C 	0.26260 0.41736 0.59979 -0.05700
S 	S 	0.32347 0.44550 0.55656 0.02400
C 	C 	0.29097 0.43449 0.40164 0.00600
H 	H 	0.33971 0.45198 0.45512 0.06100
C 	C 	0.17587 0.33710 0.51036 0.00600
H 	H 	0.19588 0.34164 0.43788 0.05800
C 	C 	0.29542 0.44263 0.60595 0.00400
H 	H 	0.23928 0.41055 0.62632 0.05700
C 	C 	0.35560 0.46975 0.73789 0.04800
C 	C 	0.34655 0.43550 0.72754 -0.03600
C 	C 	0.32653 0.42659 0.68462 -0.02700
C 	C 	0.31523 0.45195 0.65176 0.01800
C 	C 	0.32418 0.48622 0.66222 -0.02600
C 	C 	0.34408 0.49512 0.70524 -0.03200
H 	H 	0.35541 0.41577 0.75256 0.06400
H 	H 	0.32036 0.39999 0.67666 0.05200
H 	H 	0.31572 0.50594 0.63706 0.05500
H 	H 	0.35090 0.52165 0.71306 0.06800
C 	C 	0.35394 0.46098 0.27491 0.04800
C 	C 	0.30912 0.46956 0.28133 -0.03600
C 	C 	0.28880 0.46132 0.32305 -0.02600
C 	C 	0.31319 0.44452 0.35870 0.01800
C 	C 	0.35809 0.43590 0.35219 -0.02600
C 	C 	0.37834 0.44409 0.31043 -0.03200
H 	H 	0.29006 0.48257 0.25401 0.06400
H 	H 	0.25410 0.46792 0.32765 0.05300
H 	H 	0.37705 0.42241 0.37913 0.05300
H 	H 	0.41293 0.43724 0.30561 0.06700
C 	C 	0.13544 0.23223 0.50399 0.05100
C 	C 	0.12590 0.25412 0.46638 -0.04000
C 	C 	0.13748 0.28855 0.46929 -0.02500
C 	C 	0.15997 0.30128 0.50935 0.01700
C 	C 	0.16808 0.27947 0.54767 -0.02400
C 	C 	0.15524 0.24528 0.54515 -0.03100
H 	H 	0.10982 0.24439 0.43477 0.06100
H 	H 	0.12937 0.30525 0.44020 0.04900
H 	H 	0.18497 0.28871 0.57905 0.05400
H 	H 	0.16170 0.22871 0.57480 0.07100
C 	C 	0.79235 0.73195 0.53760 0.03300
C 	C 	0.78692 0.72442 0.48987 -0.02500
C 	C 	0.79051 0.69080 0.47391 0.03400
C 	C 	0.79352 0.66418 0.50666 -0.02300
C 	C 	0.79409 0.67124 0.55468 0.03300
C 	C 	0.79762 0.70528 0.56982 -0.02400
C 	C 	0.80742 0.76568 0.54641 -0.05500
S 	S 	0.80169 0.75866 0.45998 0.01800
C 	C 	0.77351 0.68004 0.42964 -0.05500
S 	S 	0.77325 0.62896 0.48145 0.01300
C 	C 	0.77767 0.64878 0.58899 -0.05600
S 	S 	0.77948 0.70692 0.62395 0.01900
C 	C 	0.81324 0.78445 0.50535 0.00600
H 	H 	0.82022 0.77393 0.58027 0.05900
C 	C 	0.76313 0.64519 0.42837 0.00700
H 	H 	0.76354 0.69763 0.40214 0.05900
C 	C 	0.76872 0.66540 0.63085 0.00600
H 	H 	0.76729 0.62286 0.58161 0.05600
C 	C 	0.68445 0.62572 0.73589 0.04700
C 	C 	0.71733 0.60507 0.71664 -0.03100
C 	C 	0.74465 0.61803 0.68227 -0.02600
C 	C 	0.73874 0.65156 0.66614 0.01800
C 	C 	0.70450 0.67173 0.68414 -0.02500
C 	C 	0.67770 0.65890 0.71904 -0.03700
H 	H 	0.72242 0.57927 0.72914 0.06600
H 	H 	0.77084 0.60219 0.66866 0.05200
H 	H 	0.69853 0.69726 0.67110 0.05200
H 	H 	0.65203 0.67488 0.73339 0.06300
C 	C 	0.89650 0.87340 0.50088 0.05000
C 	C 	0.87009 0.86736 0.53948 -0.03900
C 	C 	0.84194 0.83899 0.54022 -0.02500
C 	C 	0.84089 0.81575 0.50289 0.01800
C 	C 	0.86629 0.82259 0.46348 -0.02300
C 	C 	0.89336 0.85154 0.46228 -0.03100
H 	H 	0.87169 0.88447 0.56910 0.06300
H 	H 	0.82112 0.83501 0.56991 0.05000
H 	H 	0.86571 0.80532 0.43409 0.05500
H 	H 	0.91289 0.85648 0.43186 0.07200
C 	C 	0.67955 0.60095 0.32115 0.04700
C 	C 	0.66950 0.63332 0.33861 -0.03700
C 	C 	0.69575 0.64737 0.37480 -0.02600
C 	C 	0.73266 0.62929 0.39343 0.01700
C 	C 	0.74129 0.59621 0.37751 -0.02500
C 	C 	0.71469 0.58203 0.34164 -0.03100
H 	H 	0.64199 0.64788 0.32340 0.06100
H 	H 	0.68767 0.67240 0.38800 0.04900
H 	H 	0.76931 0.58186 0.39205 0.05400
H 	H 	0.72229 0.55682 0.32871 0.06700
Zn	Zn	0.12311 0.01119 0.50164 1.20500
Zn	Zn	0.05874 0.04679 0.57118 1.22800
Zn	Zn	0.04967 0.03048 0.42543 1.22300
P 	P 	0.09179 0.08102 0.48771 0.32500
P 	P 	0.02844 0.99150 0.51010 0.32700
C 	C 	0.97631 0.03150 0.36056 0.31000
C 	C 	0.13274 0.99328 0.40645 0.32900
C 	C 	0.14294 0.01251 0.59855 0.33000
O 	O 	0.13292 0.06015 0.50902 -0.43000
O 	O 	0.07538 0.97762 0.49425 -0.42600
O 	O 	0.04778 0.07348 0.51582 -0.40400
O 	O 	0.01185 0.02241 0.47768 -0.39500
O 	O 	0.08504 0.07157 0.43377 -0.39500
O 	O 	0.03175 0.00224 0.56393 -0.37400
O 	O 	0.01926 0.03766 0.36587 -0.37800
O 	O 	0.07110 0.11518 0.61361 -0.21400
O 	O 	0.95514 0.01582 0.39370 -0.21300
O 	O 	0.08872 0.99146 0.40663 -0.40200
O 	O 	0.12237 0.04219 0.59537 -0.41200
O 	O 	0.15541 0.00350 0.44397 -0.42300
O 	O 	0.14932 0.99438 0.56079 -0.41600
C 	C 	0.04206 0.09772 0.63729 0.31200
O 	O 	0.03404 0.06575 0.62663 -0.37400
C 	C 	0.92846 0.90206 0.50150 -0.01400
C 	C 	0.97482 0.89599 0.50247 0.15300
C 	C 	0.00461 0.92338 0.50351 -0.04300
C 	C 	0.98880 0.95700 0.50512 -0.04200
C 	C 	0.94236 0.96306 0.50581 0.18300
C 	C 	0.91252 0.93563 0.50296 -0.07900
H 	H 	0.04018 0.91841 0.50437 0.10300
H 	H 	0.87687 0.94039 0.50290 0.08800
Cl	Cl	0.99615 0.85416 0.50497 -0.29700
Cl	Cl	0.92085 0.00449 0.51275 -0.27700
C 	C 	0.12498 0.19555 0.50006 -0.01400
C 	C 	0.15938 0.17107 0.50030 0.15400
C 	C 	0.14882 0.13645 0.49685 -0.04900
C 	C 	0.10421 0.12590 0.49169 -0.04100
C 	C 	0.06988 0.15056 0.48897 0.18400
C 	C 	0.08038 0.18508 0.49445 -0.07500
H 	H 	0.17546 0.11779 0.49737 0.09600
H 	H 	0.05387 0.20389 0.49333 0.09300
Cl	Cl	0.21596 0.18346 0.50265 -0.30200
Cl	Cl	0.01402 0.13909 0.47570 -0.27200
C 	C 	0.37532 0.46951 0.23085 -0.00700
C 	C 	0.40379 0.49792 0.22809 0.14700
C 	C 	0.42574 0.50462 0.18679 -0.02200
C 	C 	0.41928 0.48335 0.14792 -0.09700
C 	C 	0.39014 0.45528 0.15035 0.20500
C 	C 	0.36826 0.44854 0.19174 -0.09100
H 	H 	0.44789 0.52638 0.18491 0.09100
H 	H 	0.34631 0.42667 0.19375 0.09000
Cl	Cl	0.41200 0.52545 0.27608 -0.27800
Cl	Cl	0.38218 0.42757 0.10254 -0.28700
C 	C 	0.41905 0.49610 0.86881 -0.09500
C 	C 	0.37283 0.48931 0.86597 0.20500
C 	C 	0.35243 0.48063 0.82305 -0.09000
C 	C 	0.37763 0.47902 0.78275 -0.00700
C 	C 	0.42373 0.48601 0.78555 0.14600
C 	C 	0.44415 0.49463 0.82842 -0.02100
H 	H 	0.31688 0.47545 0.82094 0.09000
H 	H 	0.47964 0.50008 0.83039 0.08500
Cl	Cl	0.33965 0.49322 0.91531 -0.28500
Cl	Cl	0.45638 0.48369 0.73566 -0.29100
C 	C 	0.60588 0.56990 0.19828 -0.09000
C 	C 	0.58630 0.56781 0.24224 0.19700
C 	C 	0.61127 0.57669 0.28247 -0.09000
C 	C 	0.65544 0.58805 0.27924 -0.00900
C 	C 	0.67524 0.58945 0.23543 0.14500
C 	C 	0.65056 0.58015 0.19534 -0.02800
H 	H 	0.59592 0.57564 0.31614 0.09000
H 	H 	0.66587 0.58155 0.16166 0.08700
Cl	Cl	0.52986 0.55613 0.24728 -0.28600
Cl	Cl	0.73040 0.60423 0.23007 -0.29900
C 	C 	0.60731 0.59212 0.85048 -0.08700
C 	C 	0.58708 0.59581 0.80567 0.19800
C 	C 	0.61283 0.60595 0.76823 -0.08900
C 	C 	0.65842 0.61317 0.77514 -0.00900
C 	C 	0.67849 0.60978 0.81991 0.14500
C 	C 	0.65307 0.59893 0.85710 -0.02900
H 	H 	0.59720 0.60885 0.73389 0.09000
H 	H 	0.66886 0.59612 0.89139 0.08900
Cl	Cl	0.52916 0.58982 0.79632 -0.29000
Cl	Cl	0.73515 0.62026 0.83028 -0.29800
C 	C 	0.15673 0.98187 0.36509 -0.09800
C 	C 	0.14314 0.95243 0.34019 0.20400
C 	C 	0.16346 0.94411 0.29845 -0.08900
C 	C 	0.19849 0.96406 0.28203 -0.00700
C 	C 	0.21356 0.99247 0.30808 0.14500
C 	C 	0.19236 0.00144 0.34910 -0.02800
H 	H 	0.15246 0.92176 0.27910 0.09100
H 	H 	0.20337 0.02383 0.36835 0.08400
Cl	Cl	0.10305 0.92438 0.36238 -0.28400
Cl	Cl	0.25978 0.01649 0.29050 -0.30100
C 	C 	0.20131 0.98141 0.72986 -0.00500
C 	C 	0.22855 0.98738 0.69158 0.13900
C 	C 	0.20919 0.99728 0.64863 -0.01600
C 	C 	0.16279 0.00148 0.64359 -0.10700
C 	C 	0.13558 0.99537 0.68188 0.20200
C 	C 	0.15495 0.98557 0.72479 -0.09300
H 	H 	0.23028 0.00199 0.61930 0.08000
H 	H 	0.13387 0.98072 0.75408 0.09200
Cl	Cl	0.28698 0.98290 0.69713 -0.29800
Cl	Cl	0.07700 0.99828 0.67603 -0.32400
C 	C 	0.44680 0.68855 0.00838 -0.01900
C 	C 	0.48288 0.67527 0.98394 0.15900
C 	C 	0.49434 0.64088 0.98871 -0.05000
C 	C 	0.46999 0.61941 0.01763 -0.04400
C 	C 	0.43309 0.63257 0.04119 0.18400
C 	C 	0.42193 0.66705 0.03667 -0.08100
H 	H 	0.52207 0.63090 0.96973 0.09500
H 	H 	0.39382 0.67715 0.05512 0.08700
Cl	Cl	0.51355 0.70133 0.94656 -0.29400
Cl	Cl	0.39989 0.60620 0.07580 -0.28200
C 	C 	0.90901 0.08494 0.24930 -0.01000
C 	C 	0.89309 0.08679 0.29484 0.14600
C 	C 	0.91389 0.06782 0.33061 -0.03000
C 	C 	0.95083 0.04714 0.32144 -0.08700
C 	C 	0.96536 0.04405 0.27541 0.19600
C 	C 	0.94450 0.06302 0.23964 -0.09000
H 	H 	0.90233 0.07010 0.36588 0.09400
H 	H 	0.95630 0.06109 0.20442 0.08700
Cl	Cl	0.84798 0.11359 0.30780 -0.29400
Cl	Cl	0.00891 0.01591 0.26185 -0.29400
C 	C 	0.96596 0.14194 0.74542 -0.01000
C 	C 	0.99232 0.11285 0.75443 0.14400
C 	C 	0.01788 0.09901 0.71913 -0.02700
C 	C 	0.01767 0.11412 0.67485 -0.08400
C 	C 	0.99199 0.14369 0.66613 0.19200
C 	C 	0.96645 0.15749 0.70148 -0.08800
H 	H 	0.03771 0.07636 0.72604 0.09400
H 	H 	0.94620 0.17991 0.69449 0.08800
Cl	Cl	0.99356 0.09346 0.80981 -0.30300
Cl	Cl	0.98956 0.16264 0.61042 -0.28600
C 	C 	0.59565 0.45387 0.01612 -0.04900
C 	C 	0.59258 0.42314 0.99069 0.18600
C 	C 	0.62660 0.39885 0.99533 -0.07600
C 	C 	0.66364 0.40473 0.02528 -0.02400
C 	C 	0.66597 0.43481 0.05191 0.15400
C 	C 	0.63207 0.45921 0.04724 -0.05500
H 	H 	0.62453 0.37554 0.97513 0.08600
H 	H 	0.63429 0.48239 0.06763 0.08400
Cl	Cl	0.54643 0.41454 0.95289 -0.28300
Cl	Cl	0.71117 0.44221 0.09135 -0.30300
