data_crystal

_cell_length_a 18.43689
_cell_length_b 18.87459
_cell_length_c 35.02361
_cell_angle_alpha 95.42236
_cell_angle_beta  95.42318
_cell_angle_gamma 126.38499

_symmetry_space_group_name_	'P 1'
_symmetry_space_group_name_H-M	'P 1'

loop_
_symmetry_equiv_pos_as_xyz
  x,y,z

loop_
_atom_site_label
_atom_site_type_symbol
_atom_site_fract_x
_atom_site_fract_y
_atom_site_fract_z
_atom_site_charge
C 	C 	0.84252 0.91496 0.95782 0.17700
N 	N 	0.79320 0.82391 0.95160 -0.11400
C 	C 	0.83671 0.78666 0.95850 0.18500
N 	N 	0.92919 0.83988 0.96923 -0.12500
C 	C 	0.97874 0.92996 0.97343 0.16800
N 	N 	0.93524 0.96752 0.96915 -0.11800
C 	C 	0.01570 0.11501 0.50414 0.21300
N 	N 	0.95860 0.02534 0.50311 -0.13900
C 	C 	0.99124 0.97724 0.50059 0.18800
N 	N 	0.08096 0.01875 0.49949 -0.12500
C 	C 	0.13842 0.10839 0.50114 0.19000
N 	N 	0.10585 0.15672 0.50326 -0.12300
Cu	Cu	0.67825 0.25457 0.94646 0.92900
Cu	Cu	0.72081 0.22313 0.03452 0.88200
Cu	Cu	0.55600 0.21581 0.00713 0.90700
Cu	Cu	0.49744 0.23911 0.92745 0.91100
C 	C 	0.60180 0.23300 0.86755 0.30400
O 	O 	0.72886 0.38327 0.94158 -0.35000
C 	C 	0.65047 0.27504 0.09003 0.30200
O 	O 	0.53988 0.18207 0.95184 -0.63300
O 	O 	0.68867 0.28285 0.00347 -0.64000
O 	O 	0.74116 0.19635 0.94546 -0.34000
O 	O 	0.68072 0.12408 0.99554 -0.41200
O 	O 	0.52803 0.22445 0.87520 -0.35600
O 	O 	0.42526 0.14411 0.00629 -0.35300
C 	C 	0.36778 0.14328 0.98035 0.33200
C 	C 	0.68761 0.41762 0.95248 0.32500
O 	O 	0.60828 0.36696 0.96322 -0.36600
O 	O 	0.39768 0.20317 0.95748 -0.36000
O 	O 	0.64361 0.21187 0.89121 -0.35000
C 	C 	0.72156 0.13321 0.96560 0.32100
O 	O 	0.57207 0.22948 0.06470 -0.36300
O 	O 	0.72537 0.29168 0.07970 -0.39800
H 	H 	0.50122 0.11647 0.94247 0.19000
H 	H 	0.72501 0.34771 0.01406 0.19400
Cu	Cu	0.69305 0.29435 0.51574 0.93200
Cu	Cu	0.75918 0.29987 0.43168 0.89100
Cu	Cu	0.72486 0.42412 0.46154 0.90300
Cu	Cu	0.68868 0.45558 0.54119 0.91100
C 	C 	0.70418 0.34939 0.59662 0.30700
O 	O 	0.55900 0.23246 0.51819 -0.35500
C 	C 	0.69443 0.36227 0.37679 0.29500
O 	O 	0.75961 0.43140 0.51599 -0.63700
O 	O 	0.67083 0.29534 0.45932 -0.63700
O 	O 	0.75625 0.23805 0.51346 -0.34700
O 	O 	0.84878 0.33187 0.47519 -0.41600
O 	O 	0.70002 0.41556 0.59094 -0.35600
O 	O 	0.78682 0.55120 0.46672 -0.36300
C 	C 	0.78177 0.59905 0.49479 0.33800
C 	C 	0.51806 0.26687 0.50694 0.33300
O 	O 	0.56640 0.34852 0.50015 -0.37200
O 	O 	0.72128 0.56063 0.51777 -0.36000
O 	O 	0.73113 0.31733 0.57113 -0.34700
C 	C 	0.82988 0.27375 0.49781 0.33900
O 	O 	0.69553 0.41518 0.40491 -0.35500
O 	O 	0.69626 0.29603 0.38403 -0.39100
H 	H 	0.82646 0.47348 0.52628 0.18700
H 	H 	0.60643 0.25316 0.44529 0.20200
C 	C 	0.62170 0.24301 0.82738 -0.08700
C 	C 	0.71169 0.28423 0.81976 0.14500
C 	C 	0.72584 0.28810 0.78104 -0.09000
C 	C 	0.65592 0.26549 0.75083 0.00700
C 	C 	0.56681 0.22734 0.75852 0.07800
C 	C 	0.54984 0.21284 0.79631 -0.01800
N 	N 	0.78529 0.32553 0.84935 -0.19900
H 	H 	0.79385 0.31687 0.77499 0.07500
C 	C 	0.67871 0.28909 0.71218 0.00700
N 	N 	0.49770 0.20589 0.73003 -0.19200
H 	H 	0.48072 0.18010 0.80172 0.06800
C 	C 	0.64875 0.22074 0.68050 -0.08900
C 	C 	0.65384 0.23790 0.64225 0.14500
C 	C 	0.70071 0.32756 0.63631 -0.08600
C 	C 	0.73906 0.39706 0.66869 -0.01600
C 	C 	0.72488 0.37843 0.70627 0.07800
H 	H 	0.61462 0.15264 0.68524 0.07400
N 	N 	0.60965 0.16790 0.61159 -0.19900
H 	H 	0.77686 0.46583 0.66441 0.06600
N 	N 	0.75391 0.44621 0.73627 -0.19200
H 	H 	0.58069 0.10304 0.61640 0.11200
H 	H 	0.59739 0.17561 0.58318 0.12000
H 	H 	0.78957 0.51211 0.73168 0.11400
H 	H 	0.73949 0.43432 0.76407 0.11500
H 	H 	0.43187 0.17633 0.73591 0.11400
H 	H 	0.50870 0.22005 0.70215 0.11400
H 	H 	0.78217 0.34474 0.87769 0.11900
H 	H 	0.84939 0.34757 0.84342 0.11500
C 	C 	0.67802 0.36942 0.33586 -0.09200
C 	C 	0.75121 0.43378 0.31869 0.13400
C 	C 	0.73956 0.42457 0.27783 -0.09000
C 	C 	0.65570 0.35357 0.25410 0.00400
C 	C 	0.57972 0.29532 0.27150 0.07500
C 	C 	0.59199 0.30310 0.31229 -0.01700
N 	N 	0.83305 0.50349 0.34114 -0.20200
H 	H 	0.79689 0.47088 0.26445 0.06900
C 	C 	0.65208 0.33300 0.21173 0.00400
N 	N 	0.49526 0.23166 0.24924 -0.19200
H 	H 	0.53515 0.25561 0.32562 0.06500
C 	C 	0.66141 0.26705 0.19809 -0.09000
C 	C 	0.65844 0.24529 0.15826 0.13400
C 	C 	0.64991 0.29339 0.13180 -0.09600
C 	C 	0.64022 0.35917 0.14536 -0.01700
C 	C 	0.64054 0.37914 0.18512 0.07500
H 	H 	0.66961 0.23149 0.21853 0.06800
N 	N 	0.66172 0.17698 0.14555 -0.20000
H 	H 	0.63240 0.39497 0.12494 0.06400
N 	N 	0.62892 0.44179 0.19741 -0.19200
H 	H 	0.67073 0.14374 0.16547 0.10000
H 	H 	0.65227 0.15408 0.11587 0.08500
H 	H 	0.62133 0.47606 0.17762 0.11200
H 	H 	0.62608 0.45632 0.22649 0.10800
H 	H 	0.44011 0.18700 0.26219 0.11000
H 	H 	0.48284 0.22777 0.21912 0.10800
H 	H 	0.84266 0.51447 0.37158 0.10200
H 	H 	0.88755 0.54922 0.32817 0.10400
C 	C 	0.94133 0.84808 0.53311 0.06900
C 	C 	0.93051 0.88088 0.50034 -0.04500
C 	C 	0.86818 0.82091 0.46607 0.07900
C 	C 	0.81741 0.72814 0.46450 0.11900
C 	C 	0.83326 0.69566 0.49637 -0.11700
C 	C 	0.89548 0.75579 0.53064 0.11800
Br	Br	0.92108 0.71184 0.57347 -0.20900
Br	Br	0.01754 0.92982 0.58162 -0.11000
Br	Br	0.72343 0.64569 0.41951 -0.16300
Br	Br	0.85511 0.86604 0.42082 -0.13600
C 	C 	0.93285 0.15947 0.46616 0.08500
C 	C 	0.97794 0.16478 0.50222 -0.06300
C 	C 	0.97816 0.20960 0.53677 0.07300
C 	C 	0.93083 0.24680 0.53531 0.11900
C 	C 	0.88073 0.23631 0.49945 -0.12400
C 	C 	0.88036 0.19091 0.46496 0.11800
Br	Br	0.80178 0.16474 0.41675 -0.26300
Br	Br	0.94489 0.11077 0.41833 -0.14800
Br	Br	0.93545 0.31297 0.58219 -0.17500
Br	Br	0.04237 0.21889 0.58604 -0.12300
C 	C 	0.29440 0.18136 0.53883 0.08100
C 	C 	0.23638 0.15319 0.50261 -0.04700
C 	C 	0.26951 0.15693 0.46771 0.08100
C 	C 	0.36071 0.18851 0.46902 0.11900
C 	C 	0.41913 0.21743 0.50529 -0.11900
C 	C 	0.38532 0.21222 0.54019 0.11500
Br	Br	0.46410 0.24902 0.58989 -0.20500
Br	Br	0.24910 0.17822 0.58661 -0.13900
Br	Br	0.40566 0.19147 0.42119 -0.20000
Br	Br	0.18968 0.11904 0.41816 -0.14000
C 	C 	0.77477 0.65457 0.99060 0.08300
C 	C 	0.78425 0.68901 0.95593 -0.04300
C 	C 	0.76321 0.63436 0.92002 0.08200
C 	C 	0.73672 0.54693 0.91900 0.11400
C 	C 	0.73128 0.51391 0.95399 -0.11500
C 	C 	0.75150 0.56854 0.98985 0.11900
Br	Br	0.75020 0.52657 0.03811 -0.20800
Br	Br	0.79446 0.72606 0.03922 -0.14900
Br	Br	0.70583 0.47186 0.86960 -0.20500
Br	Br	0.77166 0.67985 0.87229 -0.14500
C 	C 	0.71666 0.93038 0.96459 0.07500
C 	C 	0.79688 0.95761 0.95008 -0.02800
C 	C 	0.84064 0.03413 0.93246 0.06800
C 	C 	0.81874 0.09399 0.93785 0.11700
C 	C 	0.73932 0.06748 0.95312 -0.12300
C 	C 	0.68277 0.98011 0.96148 0.12600
Br	Br	0.55597 0.92440 0.96392 -0.16800
Br	Br	0.65798 0.83167 0.99216 -0.14300
Br	Br	0.90184 0.21309 0.92712 -0.17900
Br	Br	0.92422 0.05274 0.89826 -0.15300
C 	C 	0.13851 0.04304 0.01067 0.06700
C 	C 	0.07842 0.98471 0.97568 -0.01500
C 	C 	0.11367 0.97546 0.94321 0.09100
C 	C 	0.20844 0.02119 0.94630 0.09800
C 	C 	0.26897 0.08299 0.98049 -0.10700
C 	C 	0.23399 0.09405 0.01278 0.11900
Br	Br	0.31657 0.18170 0.05910 -0.16700
Br	Br	0.08991 0.05191 0.05576 -0.14800
Br	Br	0.25572 0.99790 0.90397 -0.18200
Br	Br	0.03238 0.90406 0.89383 -0.11700
