data_crystal

_cell_length_a 20.51278
_cell_length_b 21.33433
_cell_length_c 31.35683
_cell_angle_alpha 60.71679
_cell_angle_beta  118.99645
_cell_angle_gamma 133.29667

_symmetry_space_group_name_	'P 1'
_symmetry_space_group_name_H-M	'P 1'

loop_
_symmetry_equiv_pos_as_xyz
  x,y,z

loop_
_atom_site_label
_atom_site_type_symbol
_atom_site_fract_x
_atom_site_fract_y
_atom_site_fract_z
_atom_site_charge
Co	Co	0.02485 0.10329 0.59325 1.17300
O 	O 	0.02289 0.00928 0.98224 -0.39800
C 	C 	0.01483 0.98509 0.90933 -0.14700
C 	C 	0.00362 0.97335 0.81850 -0.14200
Co	Co	0.02994 0.09909 0.10030 1.17200
O 	O 	0.03094 0.98695 0.62173 -0.55100
O 	O 	0.02997 0.90554 0.08211 -0.73500
C 	C 	0.04118 0.97856 0.96437 0.43900
Co	Co	0.06082 0.85161 0.06009 1.17200
O 	O 	0.03543 0.74729 0.12337 -0.40900
Co	Co	0.06170 0.01447 0.55117 1.16100
O 	O 	0.06640 0.12115 0.53809 -0.46800
O 	O 	0.04335 0.91509 0.58499 -0.73700
H 	H 	0.04347 0.64904 0.68923 0.05300
H 	H 	0.02067 0.51660 0.69824 0.08800
N 	N 	0.00444 0.57610 0.22228 -0.20100
C 	C 	0.05120 0.02441 0.34116 0.22600
C 	C 	0.04509 0.01884 0.38621 0.22400
Co	Co	0.07433 0.01445 0.05906 1.16400
O 	O 	0.09428 0.12621 0.05350 -0.46400
C 	C 	0.07578 0.76251 0.16787 0.31000
O 	O 	0.09184 0.95019 0.99425 -0.38800
O 	O 	0.07481 0.15594 0.20162 -0.37000
O 	O 	0.07143 0.81279 0.17802 -0.38400
Co	Co	0.07797 0.86461 0.56315 1.17500
O 	O 	0.08523 0.17457 0.69099 -0.36400
C 	C 	0.07980 0.05824 0.87999 0.22800
C 	C 	0.07429 0.05243 0.83513 0.22000
O 	O 	0.08866 0.82059 0.68495 -0.36800
C 	C 	0.09074 0.63803 0.21432 0.12400
F 	F 	0.10495 0.09206 0.40456 -0.40800
N 	N 	0.09187 0.54875 0.70911 -0.19400
H 	H 	0.10143 0.54283 0.21586 0.06100
H 	H 	0.12411 0.47291 0.04973 0.08300
H 	H 	0.11205 0.48328 0.54147 0.08900
F 	F 	0.11244 0.10434 0.31528 -0.41500
C 	C 	0.11708 0.68193 0.69919 -0.03300
H 	H 	0.12898 0.34737 0.09068 0.04700
H 	H 	0.12397 0.36260 0.57886 0.05200
H 	H 	0.11592 0.50956 0.72880 0.10200
C 	C 	0.13185 0.21821 0.17170 0.29700
O 	O 	0.99829 0.94965 0.74642 -0.36300
Co	Co	0.99442 0.85267 0.63503 1.18100
H 	H 	0.97168 0.59435 0.22589 0.09300
H 	H 	0.97119 0.50878 0.22726 0.08600
O 	O 	0.99722 0.94205 0.24663 -0.36200
O 	O 	0.99580 0.98565 0.47816 -0.33000
C 	C 	0.99167 0.94878 0.32173 -0.15800
C 	C 	0.92951 0.86697 0.34969 0.25900
C 	C 	0.97865 0.93772 0.41242 -0.14900
C 	C 	0.92094 0.86187 0.39350 0.25500
F 	F 	0.87273 0.79272 0.33271 -0.41300
C 	C 	0.96951 0.96155 0.26620 0.38800
C 	C 	0.97699 0.97848 0.76363 0.41300
H 	H 	0.81492 0.50360 0.17667 0.08600
H 	H 	0.79322 0.58559 0.14629 0.10400
O 	O 	0.14006 0.19777 0.14120 -0.38400
C 	C 	0.13728 0.23724 0.65826 0.29500
C 	C 	0.14884 0.82901 0.67270 0.30200
O 	O 	0.97501 0.85354 0.49921 -0.37200
O 	O 	0.13329 0.21862 0.62140 -0.37400
O 	O 	0.17501 0.88224 0.63024 -0.38700
F 	F 	0.13625 0.12492 0.80700 -0.41300
F 	F 	0.15087 0.13405 0.89597 -0.40300
N 	N 	0.27276 0.31547 0.74309 -0.19600
H 	H 	0.30606 0.33287 0.77740 0.12000
H 	H 	0.27154 0.26793 0.74017 0.12200
C 	C 	0.16206 0.36622 0.12590 -0.02900
C 	C 	0.72880 0.28668 0.03076 0.11700
N 	N 	0.64502 0.22166 0.04265 -0.14400
C 	C 	0.60859 0.24054 0.05719 0.12600
N 	N 	0.65335 0.32481 0.05747 -0.13900
C 	C 	0.73715 0.38965 0.04691 0.12300
N 	N 	0.77654 0.37053 0.03480 -0.14400
C 	C 	0.72593 0.29339 0.52703 0.12000
N 	N 	0.77747 0.37829 0.53109 -0.13900
C 	C 	0.73473 0.40799 0.52996 0.12500
N 	N 	0.64226 0.35479 0.52257 -0.13800
C 	C 	0.59452 0.26759 0.52725 0.13100
N 	N 	0.63431 0.23836 0.52535 -0.14300
C 	C 	0.27120 0.65441 0.19456 0.12200
N 	N 	0.35137 0.72158 0.17906 -0.13900
C 	C 	0.38695 0.70504 0.16223 0.12600
N 	N 	0.34007 0.62236 0.15817 -0.13900
C 	C 	0.26049 0.55460 0.17342 0.12400
N 	N 	0.22607 0.57003 0.19228 -0.13900
C 	C 	0.28362 0.66445 0.69386 0.12400
N 	N 	0.36869 0.72914 0.68376 -0.13900
C 	C 	0.40051 0.71480 0.66276 0.12700
N 	N 	0.34785 0.63591 0.65198 -0.13900
C 	C 	0.26546 0.56933 0.66425 0.12600
N 	N 	0.23258 0.58354 0.68488 -0.14000
Co	Co	0.93368 0.92467 0.17199 1.19400
Co	Co	0.97452 0.84036 0.12939 1.18200
C 	C 	0.24078 0.01772 0.08125 0.25000
Co	Co	0.93596 0.07921 0.17068 1.16300
C 	C 	0.86529 0.71580 0.05936 0.29500
O 	O 	0.95849 0.18422 0.10793 -0.41200
O 	O 	0.96657 0.02987 0.14475 -0.77400
C 	C 	0.92316 0.17299 0.06266 0.30900
O 	O 	0.92193 0.81594 0.18128 -0.45400
C 	C 	0.75823 0.90679 0.15277 0.30000
O 	O 	0.98172 0.96364 0.10538 -0.56000
O 	O 	0.94263 0.13801 0.04950 -0.39100
O 	O 	0.80133 0.99380 0.13697 -0.37000
O 	O 	0.79444 0.86820 0.15945 -0.37000
O 	O 	0.91190 0.98209 0.23727 -0.39500
O 	O 	0.19554 0.93086 0.09563 -0.36000
O 	O 	0.21182 0.05674 0.08283 -0.38500
O 	O 	0.92199 0.77932 0.02922 -0.36200
O 	O 	0.86434 0.73321 0.09475 -0.37400
Co	Co	0.94332 0.93627 0.67111 1.19300
C 	C 	0.22780 0.05424 0.54494 0.26900
Co	Co	0.94494 0.09430 0.66513 1.17400
C 	C 	0.90476 0.70324 0.59413 0.31900
O 	O 	0.96118 0.19284 0.59921 -0.41000
O 	O 	0.97964 0.04235 0.64441 -0.77300
C 	C 	0.91636 0.17237 0.55610 0.31100
O 	O 	0.93344 0.82725 0.68277 -0.45600
C 	C 	0.76906 0.91949 0.64868 0.34200
C 	C 	0.98431 0.92581 0.46556 0.35700
O 	O 	0.91920 0.11954 0.54752 -0.39900
O 	O 	0.80868 0.00577 0.63505 -0.42500
O 	O 	0.80440 0.88724 0.64647 -0.39300
O 	O 	0.92232 0.00223 0.73361 -0.43900
O 	O 	0.16651 0.98843 0.52351 -0.34500
O 	O 	0.20083 0.07925 0.56035 -0.38300
O 	O 	0.98960 0.73614 0.59981 -0.41300
O 	O 	0.88709 0.74582 0.60172 -0.39600
C 	C 	0.94358 0.90645 0.89231 0.25100
C 	C 	0.93974 0.89982 0.84831 0.25600
F 	F 	0.87218 0.82212 0.83411 -0.41700
F 	F 	0.88034 0.83449 0.91981 -0.40800
F 	F 	0.85684 0.78248 0.41788 -0.41300
C 	C 	0.24896 0.42830 0.70613 -0.07300
C 	C 	0.22132 0.47892 0.66357 -0.03000
C 	C 	0.17543 0.45470 0.61725 0.08300
C 	C 	0.16115 0.38232 0.61408 -0.02900
C 	C 	0.18678 0.33040 0.65706 -0.10100
C 	C 	0.23628 0.35720 0.70268 0.13600
H 	H 	0.28663 0.44838 0.74127 0.06700
N 	N 	0.14364 0.49974 0.57594 -0.19400
H 	H 	0.14728 0.54946 0.57808 0.09500
C 	C 	0.56350 0.77375 0.70284 -0.07400
C 	C 	0.49697 0.77787 0.65961 -0.02800
C 	C 	0.51947 0.82578 0.61224 0.08200
C 	C 	0.60646 0.86420 0.60866 -0.01800
C 	C 	0.67273 0.85930 0.65188 -0.11100
C 	C 	0.65020 0.81149 0.69924 0.13500
N 	N 	0.71070 0.80001 0.74116 -0.20200
H 	H 	0.54563 0.73601 0.73907 0.06600
H 	H 	0.62388 0.90096 0.57236 0.05300
N 	N 	0.45843 0.83639 0.57027 -0.19400
H 	H 	0.69509 0.76771 0.77638 0.13100
H 	H 	0.77162 0.81924 0.73890 0.12600
H 	H 	0.39585 0.81404 0.57237 0.09500
H 	H 	0.47467 0.87021 0.53516 0.09500
C 	C 	0.30681 0.76414 0.72824 -0.07500
C 	C 	0.24656 0.68461 0.71290 -0.03000
C 	C 	0.15052 0.63748 0.70546 0.08300
C 	C 	0.17842 0.76990 0.70371 -0.10200
C 	C 	0.27326 0.80722 0.72362 0.12900
N 	N 	0.33262 0.88567 0.73675 -0.20200
H 	H 	0.38035 0.79560 0.74050 0.06600
H 	H 	0.40331 0.91500 0.74968 0.10100
H 	H 	0.30855 0.91663 0.73572 0.10800
C 	C 	0.24005 0.41104 0.21751 -0.07400
C 	C 	0.21686 0.46348 0.17345 -0.02800
C 	C 	0.17625 0.44003 0.12723 0.08100
C 	C 	0.18249 0.31216 0.17029 -0.10200
C 	C 	0.22698 0.33810 0.21598 0.13700
N 	N 	0.25859 0.29399 0.25831 -0.19500
H 	H 	0.27417 0.43053 0.25262 0.06600
N 	N 	0.14982 0.48751 0.08415 -0.19400
H 	H 	0.28813 0.31082 0.29248 0.11900
H 	H 	0.25740 0.24507 0.25718 0.12400
H 	H 	0.15205 0.53756 0.08464 0.09100
C 	C 	0.59396 0.84441 0.11076 -0.02400
C 	C 	0.66195 0.85057 0.15552 -0.09700
C 	C 	0.64015 0.81563 0.20210 0.12800
C 	C 	0.55246 0.78038 0.20275 -0.07100
C 	C 	0.48330 0.77067 0.15826 -0.02900
C 	C 	0.50498 0.80571 0.11161 0.08500
N 	N 	0.44103 0.80331 0.06761 -0.19400
H 	H 	0.61060 0.87073 0.07511 0.05100
H 	H 	0.53557 0.75311 0.23850 0.06100
N 	N 	0.70164 0.81228 0.24627 -0.20400
H 	H 	0.45664 0.82723 0.03331 0.09100
H 	H 	0.37646 0.78052 0.06694 0.09500
H 	H 	0.76024 0.82316 0.24729 0.13600
H 	H 	0.68774 0.79212 0.28046 0.11900
C 	C 	0.13758 0.61154 0.21425 -0.07500
C 	C 	0.23009 0.67443 0.21083 -0.03000
C 	C 	0.27850 0.76064 0.21603 0.08600
C 	C 	0.22824 0.78918 0.20911 -0.03100
C 	C 	0.13243 0.72946 0.20375 -0.10300
H 	H 	0.26313 0.85847 0.20560 0.06000
N 	N 	0.37181 0.81265 0.23161 -0.19300
H 	H 	0.40861 0.78563 0.24887 0.10100
H 	H 	0.40732 0.87836 0.23149 0.09900
C 	C 	0.84378 0.31654 0.50353 -0.07600
C 	C 	0.76976 0.25907 0.52676 -0.03000
C 	C 	0.73121 0.16675 0.54444 0.07600
C 	C 	0.76319 0.13488 0.53490 -0.03300
C 	C 	0.84926 0.19373 0.52343 -0.10900
C 	C 	0.88377 0.28434 0.50171 0.12200
N 	N 	0.95762 0.34123 0.48116 -0.20400
H 	H 	0.87094 0.38614 0.48733 0.06100
H 	H 	0.73075 0.06421 0.54619 0.04400
N 	N 	0.67227 0.11098 0.57529 -0.19400
H 	H 	0.98496 0.40866 0.46628 0.08800
H 	H 	0.98698 0.31824 0.47881 0.09400
H 	H 	0.67010 0.13538 0.59608 0.08900
H 	H 	0.63692 0.04230 0.58369 0.07900
C 	C 	0.77481 0.55501 0.51345 -0.07300
C 	C 	0.78734 0.48817 0.54714 -0.02500
C 	C 	0.81764 0.48286 0.59952 0.07400
C 	C 	0.83589 0.54489 0.61642 -0.02200
C 	C 	0.83150 0.61608 0.58210 -0.11600
C 	C 	0.78900 0.61359 0.53124 0.14500
N 	N 	0.76030 0.66622 0.49950 -0.19700
H 	H 	0.74597 0.55628 0.47373 0.08100
H 	H 	0.86349 0.54334 0.65617 0.04100
N 	N 	0.82787 0.41771 0.63382 -0.19600
H 	H 	0.72399 0.66085 0.46245 0.13300
H 	H 	0.76924 0.70918 0.51227 0.11400
H 	H 	0.82115 0.37429 0.62284 0.09300
H 	H 	0.84486 0.41115 0.67232 0.08200
C 	C 	0.44130 0.12154 0.53063 -0.05800
C 	C 	0.50685 0.20355 0.54308 -0.04100
C 	C 	0.48573 0.22527 0.56865 0.09000
C 	C 	0.39369 0.17664 0.56898 -0.03800
C 	C 	0.32667 0.09708 0.55359 -0.08200
C 	C 	0.35473 0.06401 0.54118 0.08200
N 	N 	0.30299 0.97615 0.54404 -0.17000
H 	H 	0.45891 0.10062 0.51501 0.04900
H 	H 	0.37527 0.19881 0.58311 0.05600
N 	N 	0.55363 0.28594 0.59679 -0.19500
H 	H 	0.31960 0.95411 0.53011 0.09800
H 	H 	0.25384 0.92846 0.56554 0.07600
H 	H 	0.62076 0.30452 0.60878 0.09400
H 	H 	0.53768 0.30723 0.61172 0.09000
C 	C 	0.90814 0.29661 0.01440 -0.02300
C 	C 	0.86606 0.20521 0.02632 -0.11100
C 	C 	0.76979 0.14571 0.02130 0.11600
C 	C 	0.72267 0.17439 0.01836 -0.07900
C 	C 	0.76970 0.26363 0.01663 -0.02900
C 	C 	0.85933 0.32674 0.00737 0.06500
N 	N 	0.89473 0.41424 0.98713 -0.18300
H 	H 	0.98012 0.34402 0.01310 0.03800
H 	H 	0.65040 0.12659 0.01905 0.05300
N 	N 	0.72292 0.06038 0.02110 -0.20200
H 	H 	0.96378 0.46118 0.98512 0.09400
H 	H 	0.85171 0.43478 0.96774 0.10100
H 	H 	0.75624 0.03847 0.02206 0.08800
H 	H 	0.65176 0.01616 0.01784 0.07400
C 	C 	0.81133 0.49336 0.09620 -0.06800
C 	C 	0.78416 0.48013 0.04900 -0.03800
C 	C 	0.77099 0.54024 0.00503 0.08800
C 	C 	0.78039 0.60893 0.00926 -0.05600
C 	C 	0.80955 0.62301 0.05656 -0.08600
C 	C 	0.81396 0.55799 0.10015 0.11800
N 	N 	0.81111 0.55156 0.14459 -0.20100
H 	H 	0.81855 0.44578 0.13001 0.05200
H 	H 	0.77240 0.65607 0.97547 0.10700
N 	N 	0.74929 0.53237 0.95866 -0.18900
H 	H 	0.74762 0.48577 0.95431 0.10400
H 	H 	0.73678 0.57517 0.92627 0.11600
C 	C 	0.40991 0.12271 0.11064 -0.03500
C 	C 	0.33552 0.07140 0.07619 -0.08900
C 	C 	0.35290 0.06502 0.04020 0.11500
C 	C 	0.44340 0.11865 0.03555 -0.07200
C 	C 	0.51753 0.17116 0.06935 -0.03600
C 	C 	0.50087 0.16826 0.10943 0.08200
N 	N 	0.57162 0.20643 0.14759 -0.19500
H 	H 	0.39712 0.12374 0.13997 0.04600
H 	H 	0.45604 0.11924 0.00549 0.05300
N 	N 	0.28360 0.00686 0.01068 -0.22900
H 	H 	0.55949 0.20810 0.17565 0.08400
H 	H 	0.63813 0.22986 0.15139 0.09000
H 	H 	0.22435 0.94821 0.02269 0.11200
H 	H 	0.29416 0.01346 0.97886 0.10700
