data_crystal

_cell_length_a 27.53115
_cell_length_b 28.39410
_cell_length_c 34.81665
_cell_angle_alpha 95.50980
_cell_angle_beta  95.50746
_cell_angle_gamma 125.64766

_symmetry_space_group_name_	'P 1'
_symmetry_space_group_name_H-M	'P 1'

loop_
_symmetry_equiv_pos_as_xyz
  x,y,z

loop_
_atom_site_label
_atom_site_type_symbol
_atom_site_fract_x
_atom_site_fract_y
_atom_site_fract_z
_atom_site_charge
C 	C 	0.96794 0.02098 0.99544 0.05600
C 	C 	0.93716 0.96132 0.99794 -0.08400
C 	C 	0.96641 0.93452 0.99403 0.05500
C 	C 	0.02637 0.96731 0.98774 -0.09100
C 	C 	0.05722 0.02690 0.98527 0.05500
C 	C 	0.02806 0.05385 0.98914 -0.09100
H 	H 	0.89053 0.93578 0.00259 0.05100
H 	H 	0.04897 0.94647 0.98471 0.05600
H 	H 	0.05191 0.10002 0.98714 0.05700
C 	C 	0.93272 0.99880 0.45256 0.04800
C 	C 	0.99585 0.03307 0.45448 -0.08000
C 	C 	0.02622 0.00730 0.45778 0.04500
C 	C 	0.99362 0.94723 0.45906 -0.08100
C 	C 	0.93057 0.91264 0.45716 0.04900
C 	C 	0.89988 0.93836 0.45387 -0.08400
H 	H 	0.02127 0.07973 0.45357 0.05200
H 	H 	0.01730 0.92736 0.46159 0.05300
H 	H 	0.85105 0.91171 0.45247 0.05500
Cu	Cu	0.64526 0.24795 0.00077 0.92600
Cu	Cu	0.70120 0.25483 0.92048 0.87200
Cu	Cu	0.69083 0.34818 0.95483 0.89900
Cu	Cu	0.64749 0.35751 0.02891 0.89400
C 	C 	0.65193 0.28325 0.08244 0.27900
O 	O 	0.55645 0.21535 0.99581 -0.36100
C 	C 	0.67701 0.31395 0.86919 0.27900
O 	O 	0.69753 0.34035 0.00868 -0.64300
O 	O 	0.64502 0.26048 0.94587 -0.64000
O 	O 	0.67994 0.20293 0.99862 -0.37200
O 	O 	0.75291 0.26564 0.96596 -0.44300
O 	O 	0.62782 0.30985 0.07145 -0.38300
O 	O 	0.73877 0.43320 0.96743 -0.38400
C 	C 	0.73078 0.46351 0.99389 0.31600
C 	C 	0.53627 0.24304 0.98095 0.30200
O 	O 	0.57466 0.29891 0.97910 -0.39200
O 	O 	0.68792 0.43756 0.01526 -0.40100
O 	O 	0.65856 0.25135 0.05633 -0.35800
C 	C 	0.73245 0.22498 0.98772 0.31200
O 	O 	0.69898 0.35696 0.89972 -0.38400
O 	O 	0.66924 0.26444 0.87328 -0.41600
H 	H 	0.73979 0.36379 0.02356 0.16400
H 	H 	0.60419 0.23890 0.92917 0.17200
Cu	Cu	0.73587 0.34421 0.45111 0.92700
Cu	Cu	0.74176 0.30548 0.53645 0.87100
Cu	Cu	0.64080 0.30957 0.50341 0.89800
Cu	Cu	0.61862 0.33729 0.42535 0.89500
C 	C 	0.68385 0.31896 0.36953 0.27700
O 	O 	0.76823 0.42943 0.44994 -0.36100
C 	C 	0.68675 0.33456 0.58920 0.27900
O 	O 	0.64116 0.29404 0.44874 -0.63900
O 	O 	0.73085 0.35416 0.50734 -0.64000
O 	O 	0.78107 0.30887 0.45398 -0.37400
O 	O 	0.72293 0.24725 0.49377 -0.44300
O 	O 	0.65901 0.34551 0.37924 -0.38100
O 	O 	0.55290 0.26197 0.49572 -0.38300
C 	C 	0.51774 0.26342 0.46803 0.30800
C 	C 	0.74042 0.45089 0.46333 0.30000
O 	O 	0.68487 0.41496 0.46958 -0.39300
O 	O 	0.54057 0.30264 0.44477 -0.39600
O 	O 	0.72474 0.32224 0.39532 -0.35700
C 	C 	0.75956 0.26069 0.46861 0.30700
O 	O 	0.63976 0.31166 0.56025 -0.38300
O 	O 	0.73786 0.34411 0.58259 -0.41700
H 	H 	0.61619 0.25160 0.43683 0.16300
H 	H 	0.75423 0.39559 0.52122 0.17300
C 	C 	0.56816 0.24351 0.73225 -0.04300
C 	C 	0.56936 0.24683 0.69246 -0.04300
C 	C 	0.62107 0.29428 0.68108 0.01600
C 	C 	0.67089 0.34005 0.71001 -0.00900
C 	C 	0.66941 0.33700 0.75008 -0.00800
C 	C 	0.61850 0.28778 0.76116 0.01500
C 	C 	0.72003 0.38181 0.77897 0.01500
C 	C 	0.77089 0.43028 0.76765 -0.04300
C 	C 	0.77259 0.43300 0.72781 -0.04300
C 	C 	0.72330 0.38746 0.69882 0.01500
C 	C 	0.72682 0.38739 0.65885 -0.02700
C 	C 	0.67845 0.34031 0.63010 -0.06100
C 	C 	0.62475 0.29508 0.64120 -0.02800
C 	C 	0.61969 0.28219 0.80079 -0.02600
C 	C 	0.67124 0.32539 0.82933 -0.06100
C 	C 	0.72031 0.37618 0.81860 -0.02700
H 	H 	0.52848 0.20594 0.74050 0.03800
H 	H 	0.53057 0.21180 0.67047 0.03900
H 	H 	0.80971 0.46526 0.78964 0.03900
H 	H 	0.81272 0.47003 0.71954 0.03800
H 	H 	0.76777 0.42284 0.65016 0.04000
H 	H 	0.58725 0.25901 0.61894 0.04500
H 	H 	0.58151 0.24344 0.80930 0.03800
H 	H 	0.75989 0.40967 0.84077 0.04300
C 	C 	0.77316 0.33014 0.21256 -0.04300
C 	C 	0.77770 0.33486 0.25337 -0.04200
C 	C 	0.72538 0.31126 0.27012 0.01700
C 	C 	0.66781 0.28071 0.24554 -0.00800
C 	C 	0.66326 0.27606 0.20450 -0.00800
C 	C 	0.71626 0.30180 0.18799 0.01700
C 	C 	0.60598 0.24787 0.18010 0.01700
C 	C 	0.55343 0.22239 0.19672 -0.04200
C 	C 	0.55794 0.22694 0.23746 -0.04300
C 	C 	0.61507 0.25710 0.26210 0.01600
C 	C 	0.62038 0.26626 0.30305 -0.02800
C 	C 	0.67793 0.29950 0.32754 -0.05600
C 	C 	0.73014 0.32014 0.31112 -0.02400
C 	C 	0.71190 0.30096 0.14735 -0.02900
C 	C 	0.65525 0.27559 0.12344 -0.05500
C 	C 	0.60226 0.24762 0.13963 -0.02400
H 	H 	0.81407 0.34948 0.20015 0.03900
H 	H 	0.82205 0.35782 0.27197 0.04100
H 	H 	0.50914 0.19997 0.17815 0.03900
H 	H 	0.51709 0.20800 0.24989 0.03700
H 	H 	0.58009 0.24958 0.31588 0.03100
H 	H 	0.77453 0.34548 0.33011 0.05000
H 	H 	0.75264 0.32201 0.13460 0.03700
H 	H 	0.55849 0.22732 0.12087 0.04600
C 	C 	0.80627 0.62224 0.46288 -0.01000
C 	C 	0.82931 0.66314 0.49800 -0.02800
C 	C 	0.84944 0.72101 0.49705 -0.04700
C 	C 	0.84656 0.73823 0.46096 0.02100
C 	C 	0.82251 0.69701 0.42590 -0.04700
C 	C 	0.80239 0.63918 0.42685 -0.02800
C 	C 	0.87457 0.79950 0.45965 -0.01300
C 	C 	0.89800 0.85075 0.45850 -0.02800
C 	C 	0.78435 0.56226 0.46381 0.04500
C 	C 	0.76577 0.51186 0.46397 -0.11000
H 	H 	0.83191 0.65024 0.52599 0.03700
H 	H 	0.86829 0.75266 0.52428 0.04300
H 	H 	0.82048 0.71004 0.39788 0.04300
H 	H 	0.78408 0.60768 0.39959 0.03900
C 	C 	0.81415 0.15547 0.44869 -0.01300
C 	C 	0.86828 0.17509 0.43528 -0.02800
C 	C 	0.88884 0.14011 0.43383 -0.04800
C 	C 	0.85538 0.08534 0.44579 0.02100
C 	C 	0.80021 0.06484 0.45793 -0.04800
C 	C 	0.77963 0.09981 0.45937 -0.02800
C 	C 	0.88005 0.05246 0.44836 -0.01300
C 	C 	0.90237 0.02642 0.45007 -0.02800
C 	C 	0.79653 0.19420 0.45461 0.04600
C 	C 	0.78025 0.22526 0.46001 -0.11900
H 	H 	0.89518 0.21797 0.42691 0.03800
H 	H 	0.93146 0.15622 0.42429 0.04300
H 	H 	0.77399 0.02253 0.46713 0.04200
H 	H 	0.73767 0.08425 0.46969 0.03600
C 	C 	0.21000 0.10454 0.46425 0.02100
C 	C 	0.23891 0.07771 0.47040 -0.04800
C 	C 	0.30164 0.10979 0.47190 -0.02800
C 	C 	0.33566 0.16881 0.46726 -0.01100
C 	C 	0.30683 0.19577 0.46141 -0.02800
C 	C 	0.24410 0.16369 0.45991 -0.04800
C 	C 	0.39991 0.20142 0.46774 0.04700
C 	C 	0.45375 0.22935 0.46807 -0.10900
C 	C 	0.14528 0.07111 0.46191 -0.01400
C 	C 	0.09104 0.04249 0.46001 -0.02800
H 	H 	0.21280 0.03199 0.47382 0.04200
H 	H 	0.32365 0.08869 0.47645 0.03700
H 	H 	0.33289 0.24141 0.45781 0.03900
H 	H 	0.22204 0.18471 0.45519 0.04200
C 	C 	0.87959 0.76020 0.99784 0.02600
C 	C 	0.90790 0.73398 0.98776 -0.04800
C 	C 	0.87860 0.67394 0.98772 -0.02800
C 	C 	0.82089 0.63994 0.99777 -0.00600
C 	C 	0.79284 0.66629 0.00825 -0.03200
C 	C 	0.82215 0.72634 0.00829 -0.05200
C 	C 	0.78979 0.57776 0.99638 0.04800
C 	C 	0.76331 0.52565 0.99532 -0.10900
C 	C 	0.90910 0.82157 0.99681 -0.01200
C 	C 	0.93467 0.87305 0.99573 -0.02800
H 	H 	0.95238 0.75997 0.97972 0.04300
H 	H 	0.90054 0.65384 0.97962 0.03900
H 	H 	0.74822 0.64022 0.01608 0.03800
H 	H 	0.80006 0.74638 0.01617 0.04200
C 	C 	0.87747 0.09440 0.00128 0.00900
C 	C 	0.81932 0.06417 0.97824 -0.04200
C 	C 	0.78865 0.08971 0.97791 -0.02100
C 	C 	0.81599 0.14561 0.00063 -0.02600
C 	C 	0.87350 0.17522 0.02447 -0.02500
C 	C 	0.90421 0.14965 0.02480 -0.04700
C 	C 	0.78712 0.17434 0.99704 0.05800
C 	C 	0.76209 0.19754 0.99356 -0.12600
C 	C 	0.91035 0.06951 0.99976 -0.00300
C 	C 	0.93705 0.04783 0.99803 -0.03300
H 	H 	0.79829 0.02133 0.96011 0.04100
H 	H 	0.74421 0.06657 0.95940 0.03400
H 	H 	0.89491 0.21846 0.04213 0.03600
H 	H 	0.94905 0.17314 0.04285 0.04100
C 	C 	0.23259 0.11629 0.96855 0.01700
C 	C 	0.27663 0.17585 0.98565 -0.03900
C 	C 	0.33802 0.20251 0.98472 -0.03100
C 	C 	0.35554 0.16968 0.96671 -0.00900
C 	C 	0.31121 0.11095 0.94796 -0.02900
C 	C 	0.24982 0.08430 0.94886 -0.04500
C 	C 	0.41900 0.19444 0.97082 0.04700
C 	C 	0.47242 0.21617 0.97468 -0.11100
C 	C 	0.17099 0.08643 0.97463 -0.00900
C 	C 	0.11908 0.06029 0.97928 -0.03200
H 	H 	0.26359 0.20093 0.00074 0.03600
H 	H 	0.37206 0.24807 0.99908 0.03900
H 	H 	0.32440 0.08540 0.93379 0.03800
H 	H 	0.21593 0.03830 0.93539 0.04200
