data_crystal

_cell_length_a 22.98399
_cell_length_b 19.59938
_cell_length_c 49.81994
_cell_angle_alpha 89.84314
_cell_angle_beta  89.84748
_cell_angle_gamma 119.42541

_symmetry_space_group_name_	'P 1'
_symmetry_space_group_name_H-M	'P 1'

loop_
_symmetry_equiv_pos_as_xyz
  x,y,z

loop_
_atom_site_label
_atom_site_type_symbol
_atom_site_fract_x
_atom_site_fract_y
_atom_site_fract_z
_atom_site_charge
C 	C 	0.62199 0.31634 0.87088 0.32500
C 	C 	0.82231 0.55484 0.94107 0.34800
C 	C 	0.80577 0.48841 0.85849 0.34300
C 	C 	0.64338 0.38993 0.95709 0.29000
C 	C 	0.88137 0.40002 0.91256 0.31400
C 	C 	0.70645 0.21709 0.92958 0.30100
Ni	Ni	0.71032 0.45919 0.90399 1.11300
Ni	Ni	0.77093 0.38363 0.94587 1.12100
Ni	Ni	0.75430 0.33265 0.88370 1.12100
O 	O 	0.65286 0.39399 0.87149 -0.38000
O 	O 	0.65627 0.27808 0.87285 -0.38800
O 	O 	0.84474 0.36413 0.93369 -0.39000
O 	O 	0.76084 0.53609 0.93495 -0.38800
O 	O 	0.83890 0.50003 0.94436 -0.39600
O 	O 	0.74239 0.24120 0.90704 -0.38200
O 	O 	0.79266 0.52100 0.87896 -0.39200
O 	O 	0.76970 0.41245 0.85452 -0.38400
O 	O 	0.71195 0.26680 0.94891 -0.38500
O 	O 	0.63336 0.40433 0.93188 -0.37600
O 	O 	0.70399 0.40669 0.96564 -0.37000
O 	O 	0.85387 0.39045 0.88882 -0.38900
O 	O 	0.73221 0.38115 0.91208 -0.71600
H 	H 	0.68715 0.33762 0.91597 0.14800
C 	C 	0.76409 0.43782 0.51375 0.29600
C 	C 	0.58989 0.14586 0.57100 0.30000
C 	C 	0.58078 0.33227 0.52150 0.31600
C 	C 	0.77563 0.25271 0.57172 0.34600
C 	C 	0.58273 0.34354 0.60702 0.35300
C 	C 	0.77238 0.47025 0.60743 0.32700
Ni	Ni	0.67718 0.27490 0.53484 1.11300
Ni	Ni	0.68269 0.29411 0.59942 1.12200
Ni	Ni	0.67723 0.42370 0.56272 1.12100
O 	O 	0.75953 0.36833 0.51746 -0.37800
O 	O 	0.72165 0.45724 0.52534 -0.37700
O 	O 	0.59225 0.28277 0.60592 -0.39900
O 	O 	0.58903 0.18937 0.55135 -0.38200
O 	O 	0.63465 0.17720 0.59014 -0.37400
O 	O 	0.76237 0.48867 0.58276 -0.39500
O 	O 	0.62104 0.30953 0.51114 -0.37200
O 	O 	0.58690 0.35344 0.54659 -0.39200
O 	O 	0.73213 0.40001 0.61845 -0.38700
O 	O 	0.73141 0.22399 0.55169 -0.38600
O 	O 	0.76790 0.29140 0.59215 -0.39500
O 	O 	0.62820 0.41191 0.59759 -0.40000
O 	O 	0.69607 0.34007 0.56471 -0.71900
H 	H 	0.74524 0.36983 0.56386 0.16400
C 	C 	0.16751 0.18060 0.80597 0.32800
C 	C 	0.00018 0.95036 0.72531 0.38600
C 	C 	0.17845 0.18354 0.73067 0.35100
C 	C 	0.98085 0.94156 0.80334 0.34600
C 	C 	0.98221 0.14732 0.71973 0.35000
C 	C 	0.95741 0.16794 0.79364 0.32600
Ni	Ni	0.09788 0.04714 0.76730 1.10700
Ni	Ni	0.94975 0.02889 0.76216 1.10900
Ni	Ni	0.07904 0.19950 0.76377 1.12100
O 	O 	0.13927 0.10341 0.80302 -0.39500
O 	O 	0.16073 0.22616 0.78756 -0.38400
O 	O 	0.95208 0.07184 0.72520 -0.41000
O 	O 	0.06313 0.00135 0.72953 -0.42500
O 	O 	0.95455 0.93933 0.74348 -0.37900
O 	O 	0.02381 0.20294 0.79447 -0.39800
O 	O 	0.18200 0.13950 0.74977 -0.39200
O 	O 	0.12912 0.19909 0.73020 -0.40200
O 	O 	0.92040 0.10107 0.78021 -0.39400
O 	O 	0.02567 0.94418 0.78591 -0.37000
O 	O 	0.93957 0.96859 0.79676 -0.36800
O 	O 	0.00983 0.19900 0.73898 -0.40400
O 	O 	0.04199 0.09123 0.77042 -0.72500
H 	H 	0.03776 0.09185 0.79008 0.15200
C 	C 	0.23840 0.74857 0.42554 0.32100
C 	C 	0.25768 0.46077 0.43110 0.30800
C 	C 	0.37062 0.71072 0.45137 0.31500
C 	C 	0.10292 0.49788 0.41190 0.28800
C 	C 	0.37179 0.59991 0.37312 0.34000
C 	C 	0.23638 0.64405 0.34542 0.33000
Ni	Ni	0.23092 0.59192 0.44241 1.11300
Ni	Ni	0.22528 0.52115 0.38215 1.12200
Ni	Ni	0.32501 0.70314 0.39446 1.12200
O 	O 	0.23921 0.70386 0.44576 -0.37800
O 	O 	0.27098 0.75656 0.40250 -0.38800
O 	O 	0.31253 0.55912 0.36186 -0.39300
O 	O 	0.22013 0.48065 0.44527 -0.37200
O 	O 	0.25266 0.45619 0.40490 -0.38400
O 	O 	0.29817 0.68718 0.35487 -0.39100
O 	O 	0.32990 0.63559 0.45259 -0.38300
O 	O 	0.37016 0.75077 0.43024 -0.37600
O 	O 	0.19620 0.57251 0.35469 -0.39400
O 	O 	0.12959 0.53721 0.43428 -0.37100
O 	O 	0.13123 0.46298 0.39854 -0.36900
O 	O 	0.38228 0.65297 0.39142 -0.40000
O 	O 	0.24918 0.60780 0.40570 -0.71600
H 	H 	0.21383 0.61955 0.40040 0.14700
C 	C 	0.36887 0.49341 0.07092 0.29200
C 	C 	0.22900 0.65651 0.11585 0.36900
C 	C 	0.18677 0.44559 0.06810 0.34900
C 	C 	0.41234 0.70818 0.11944 0.34400
C 	C 	0.24233 0.66140 0.02589 0.31500
C 	C 	0.41840 0.73723 0.02851 0.29800
Ni	Ni	0.29244 0.55632 0.10480 1.11300
Ni	Ni	0.33126 0.71890 0.07375 1.12100
Ni	Ni	0.30632 0.56949 0.03974 1.12100
O 	O 	0.32267 0.47765 0.08987 -0.36900
O 	O 	0.37296 0.53437 0.04899 -0.37900
O 	O 	0.28922 0.72295 0.03840 -0.38600
O 	O 	0.25739 0.61941 0.12710 -0.38500
O 	O 	0.23961 0.67590 0.09046 -0.40200
O 	O 	0.37675 0.66555 0.01905 -0.38300
O 	O 	0.19789 0.49181 0.08868 -0.38800
O 	O 	0.23536 0.45943 0.05119 -0.39100
O 	O 	0.41734 0.75635 0.05388 -0.38900
O 	O 	0.38369 0.63080 0.12226 -0.38500
O 	O 	0.37746 0.74141 0.11048 -0.38800
O 	O 	0.23181 0.59073 0.03116 -0.39500
O 	O 	0.32539 0.61893 0.07373 -0.71600
H 	H 	0.37298 0.63407 0.07485 0.16000
C 	C 	0.81794 0.91161 0.29646 0.32400
C 	C 	0.01508 0.11395 0.21654 0.36800
C 	C 	0.84023 0.89310 0.22006 0.34900
C 	C 	0.01566 0.16315 0.28941 0.32700
C 	C 	0.03536 0.91220 0.23401 0.34400
C 	C 	0.01319 0.93061 0.31014 0.35600
Ni	Ni	0.90129 0.03360 0.25541 1.09500
Ni	Ni	0.04605 0.04633 0.26438 1.10200
Ni	Ni	0.91500 0.87858 0.26607 1.12200
O 	O 	0.84222 0.98644 0.28960 -0.36400
O 	O 	0.82573 0.86240 0.28043 -0.38100
O 	O 	0.05421 0.98730 0.23297 -0.38400
O 	O 	0.95035 0.06692 0.21875 -0.41300
O 	O 	0.05392 0.12945 0.23762 -0.40700
O 	O 	0.95010 0.88215 0.30324 -0.39800
O 	O 	0.82689 0.93667 0.23610 -0.37300
O 	O 	0.88136 0.86809 0.22768 -0.38700
O 	O 	0.05869 0.97733 0.29200 -0.37900
O 	O 	0.96585 0.14402 0.27200 -0.38800
O 	O 	0.04429 0.11898 0.29294 -0.40600
O 	O 	0.99198 0.86629 0.25222 -0.39200
O 	O 	0.95213 0.98920 0.26756 -0.70100
H 	H 	0.94848 0.99567 0.28697 0.16100
C 	C 	0.02534 0.19794 0.14916 -0.00700
C 	C 	0.02094 0.17196 0.12263 -0.03600
C 	C 	0.03654 0.22457 0.10122 -0.04300
C 	C 	0.05572 0.30327 0.10622 0.01000
C 	C 	0.05902 0.32884 0.13271 -0.04400
C 	C 	0.04412 0.27658 0.15408 -0.03500
C 	C 	0.07428 0.35999 0.08398 0.01400
C 	C 	0.12784 0.37393 0.06724 -0.17400
C 	C 	0.00297 0.14101 0.17153 0.03600
C 	C 	0.04045 0.15543 0.19383 -0.21000
H 	H 	0.00521 0.11105 0.11862 0.03100
H 	H 	0.03316 0.20405 0.08081 0.03600
H 	H 	0.07374 0.38950 0.13674 0.04200
H 	H 	0.04592 0.29682 0.17443 0.03900
H 	H 	0.06084 0.40579 0.08587 0.03700
H 	H 	0.12652 0.32588 0.05593 0.08300
H 	H 	0.95494 0.08771 0.16989 0.02600
H 	H 	0.09187 0.20308 0.19369 0.09300
C 	C 	0.58050 0.77479 0.14810 0.00200
C 	C 	0.59240 0.83244 0.16731 -0.03300
C 	C 	0.65549 0.87511 0.17887 -0.03700
C 	C 	0.70698 0.85965 0.17178 0.01100
C 	C 	0.69560 0.80319 0.15217 -0.03800
C 	C 	0.63241 0.76045 0.14056 -0.03500
C 	C 	0.77270 0.90395 0.18481 0.01800
C 	C 	0.80415 0.86528 0.19637 -0.16600
C 	C 	0.51229 0.72374 0.13792 0.03100
C 	C 	0.47448 0.75414 0.12878 -0.19200
H 	H 	0.55240 0.84286 0.17376 0.04400
H 	H 	0.66397 0.91904 0.19383 0.04600
H 	H 	0.73553 0.79245 0.14589 0.04300
H 	H 	0.62369 0.71594 0.12582 0.04100
H 	H 	0.78990 0.96474 0.19008 0.04100
H 	H 	0.79887 0.81216 0.18734 0.08600
H 	H 	0.49402 0.66101 0.13708 0.03800
H 	H 	0.49528 0.81740 0.12823 0.09500
C 	C 	0.15365 0.70968 0.17253 -0.00200
C 	C 	0.12225 0.67551 0.19697 -0.03400
C 	C 	0.08898 0.70700 0.21160 -0.04000
C 	C 	0.08679 0.77315 0.20200 0.00900
C 	C 	0.11803 0.80723 0.17745 -0.03900
C 	C 	0.15319 0.77741 0.16331 -0.03200
C 	C 	0.04811 0.80304 0.21709 0.01500
C 	C 	0.06815 0.88342 0.21776 -0.16600
C 	C 	0.18941 0.67612 0.15730 0.03800
C 	C 	0.18994 0.67640 0.13017 -0.20600
H 	H 	0.12323 0.62423 0.20456 0.03700
H 	H 	0.06470 0.67979 0.23039 0.03900
H 	H 	0.11442 0.85602 0.16908 0.04500
H 	H 	0.18005 0.80704 0.14522 0.04200
H 	H 	0.00565 0.76190 0.22911 0.03700
H 	H 	0.11065 0.92462 0.20582 0.09000
H 	H 	0.21516 0.65113 0.16844 0.03500
H 	H 	0.16171 0.69887 0.11943 0.09600
C 	C 	0.67857 0.75974 0.33851 0.00900
C 	C 	0.66953 0.70920 0.36005 -0.03900
C 	C 	0.60629 0.66429 0.37160 -0.03800
C 	C 	0.55124 0.66821 0.36135 0.00600
C 	C 	0.56005 0.71760 0.33940 -0.03600
C 	C 	0.62335 0.76299 0.32801 -0.03800
C 	C 	0.48741 0.63068 0.37624 0.01500
C 	C 	0.42617 0.59544 0.36274 -0.17300
C 	C 	0.74426 0.80221 0.32512 0.01400
C 	C 	0.77070 0.88058 0.31708 -0.16000
H 	H 	0.71160 0.70512 0.36795 0.04000
H 	H 	0.60021 0.62712 0.38873 0.03900
H 	H 	0.51823 0.72240 0.33162 0.04500
H 	H 	0.62934 0.80011 0.31089 0.04700
H 	H 	0.48829 0.63763 0.39791 0.03900
H 	H 	0.42232 0.56920 0.34317 0.08600
H 	H 	0.77118 0.77090 0.32063 0.03500
H 	H 	0.75184 0.91643 0.32606 0.08900
C 	C 	0.05781 0.37238 0.30402 0.00500
C 	C 	0.12611 0.41607 0.29741 -0.03900
C 	C 	0.15975 0.49791 0.29937 -0.04000
C 	C 	0.12555 0.53681 0.30801 0.02200
C 	C 	0.05761 0.49324 0.31468 -0.03900
C 	C 	0.02412 0.41148 0.31300 -0.03800
C 	C 	0.15921 0.62365 0.30791 0.01300
C 	C 	0.21779 0.67081 0.32263 -0.16200
C 	C 	0.01880 0.28792 0.29740 0.01100
C 	C 	0.04437 0.23672 0.30175 -0.16500
H 	H 	0.15243 0.38706 0.28974 0.04000
H 	H 	0.21197 0.53111 0.29368 0.04700
H 	H 	0.03038 0.52276 0.32073 0.04300
H 	H 	0.97135 0.37863 0.31783 0.03800
H 	H 	0.14118 0.65205 0.29414 0.02800
H 	H 	0.24805 0.73189 0.31682 0.08400
H 	H 	0.96918 0.26563 0.28897 0.03500
H 	H 	0.08916 0.25597 0.31373 0.08000
C 	C 	0.18563 0.89003 0.40416 0.00400
C 	C 	0.12529 0.83402 0.39255 -0.04000
C 	C 	0.09391 0.85673 0.37333 -0.02200
C 	C 	0.12086 0.93634 0.36641 -0.02800
C 	C 	0.17681 0.99283 0.38028 0.01200
C 	C 	0.20904 0.96980 0.39905 -0.01000
C 	C 	0.09790 0.95977 0.34201 0.09800
C 	C 	0.03307 0.92177 0.33467 -0.21800
C 	C 	0.23207 0.86581 0.41557 0.02000
C 	C 	0.20894 0.79519 0.42970 -0.16300
H 	H 	0.10526 0.77241 0.39694 0.04200
H 	H 	0.05114 0.81204 0.36272 0.03700
H 	H 	0.19752 0.05441 0.37546 0.00300
H 	H 	0.25480 0.01375 0.40827 0.00600
H 	H 	0.13490 0.00758 0.32977 -0.01100
H 	H 	0.99582 0.88012 0.34853 0.10200
H 	H 	0.28440 0.89836 0.40966 0.04300
H 	H 	0.16673 0.77557 0.44335 0.08100
C 	C 	0.54802 0.94147 0.55349 -0.00900
C 	C 	0.48824 0.91909 0.53971 -0.02000
C 	C 	0.45383 0.96118 0.54382 0.05300
C 	C 	0.48318 0.02963 0.55914 -0.06700
C 	C 	0.54870 0.05995 0.56862 -0.06600
C 	C 	0.57891 0.01210 0.56771 -0.00200
C 	C 	0.46652 0.85835 0.51862 0.02900
S 	S 	0.37682 0.93267 0.52803 -0.03300
H 	H 	0.45810 0.06397 0.56108 0.04900
S 	S 	0.65592 0.04062 0.58343 -0.04100
H 	H 	0.57274 0.90673 0.55161 0.04400
C 	C 	0.49745 0.87632 0.49313 -0.01300
C 	C 	0.46924 0.82298 0.47207 0.00600
C 	C 	0.40815 0.75363 0.47559 -0.09700
C 	C 	0.37927 0.73364 0.50169 0.06600
C 	C 	0.41009 0.78509 0.52308 -0.08000
S 	S 	0.56944 0.96717 0.48693 -0.01900
H 	H 	0.49279 0.83769 0.45243 0.04200
S 	S 	0.30282 0.64755 0.50779 -0.06400
H 	H 	0.38738 0.77038 0.54287 0.05900
H 	H 	0.64494 0.01393 0.60941 0.03000
H 	H 	0.62503 0.96166 0.49313 0.04000
H 	H 	0.25117 0.66235 0.50356 0.03000
H 	H 	0.38835 0.96570 0.50293 0.04800
C 	C 	0.96488 0.53892 0.40819 -0.06900
C 	C 	0.92251 0.48181 0.42661 0.01100
C 	C 	0.92745 0.41332 0.42992 -0.00200
C 	C 	0.98287 0.41062 0.41943 -0.00200
C 	C 	0.03347 0.47639 0.40626 -0.08600
C 	C 	0.01964 0.53525 0.39745 0.04900
C 	C 	0.88613 0.50202 0.44671 0.01300
S 	S 	0.86826 0.33430 0.44932 -0.04500
H 	H 	0.99065 0.36185 0.42447 0.04200
S 	S 	0.07398 0.60837 0.37503 -0.05400
H 	H 	0.95862 0.58925 0.40403 0.05000
C 	C 	0.91547 0.53253 0.47183 -0.00400
C 	C 	0.87470 0.52417 0.49392 -0.00500
C 	C 	0.80511 0.48502 0.49109 -0.08700
C 	C 	0.77768 0.46955 0.46505 0.05400
C 	C 	0.81824 0.47702 0.44295 -0.07200
S 	S 	0.00244 0.57571 0.47623 -0.03300
H 	H 	0.89654 0.54072 0.51373 0.03800
S 	S 	0.69193 0.43523 0.46020 -0.03400
H 	H 	0.79613 0.45802 0.42329 0.05100
H 	H 	0.12759 0.66446 0.38872 0.03600
H 	H 	0.03220 0.65361 0.46961 0.03500
H 	H 	0.68084 0.49754 0.45768 0.03900
H 	H 	0.88578 0.34763 0.47584 0.04100
C 	C 	0.33284 0.37305 0.47866 -0.07400
C 	C 	0.39470 0.39711 0.46611 0.01200
C 	C 	0.41063 0.44088 0.44214 -0.00300
C 	C 	0.36673 0.46428 0.43190 -0.00100
C 	C 	0.30479 0.44073 0.44435 -0.09200
C 	C 	0.28718 0.39322 0.46766 0.05700
C 	C 	0.44442 0.38124 0.47922 0.01500
S 	S 	0.48509 0.46585 0.42453 -0.04100
H 	H 	0.38016 0.49967 0.41383 0.04400
S 	S 	0.20732 0.35466 0.48235 -0.04000
H 	H 	0.32019 0.33846 0.49694 0.05100
C 	C 	0.49859 0.44085 0.49327 -0.00900
C 	C 	0.54631 0.42564 0.50482 0.00300
C 	C 	0.53878 0.35019 0.50394 -0.10000
C 	C 	0.48490 0.29052 0.48974 0.06200
C 	C 	0.43834 0.30657 0.47724 -0.07700
S 	S 	0.50561 0.53383 0.49749 -0.03700
H 	H 	0.58794 0.47173 0.51560 0.02900
S 	S 	0.47378 0.19504 0.48829 -0.05900
H 	H 	0.39694 0.26081 0.46627 0.05000
H 	H 	0.16478 0.28465 0.47049 0.03600
H 	H 	0.47015 0.53268 0.51980 0.03800
H 	H 	0.43795 0.15299 0.51026 0.03600
H 	H 	0.53440 0.53774 0.43282 0.03600
C 	C 	0.89634 0.21379 0.60561 -0.00100
C 	C 	0.85186 0.13804 0.61523 -0.03700
C 	C 	0.87145 0.10502 0.63578 -0.04100
C 	C 	0.93533 0.14745 0.64692 0.00300
C 	C 	0.98232 0.21846 0.63499 -0.04000
C 	C 	0.96276 0.25162 0.61448 -0.03800
C 	C 	0.95044 0.12119 0.67249 0.01500
C 	C 	0.97670 0.17304 0.69419 -0.17400
C 	C 	0.87002 0.26075 0.59252 0.03100
C 	C 	0.82157 0.22948 0.57386 -0.19400
H 	H 	0.80068 0.10743 0.60831 0.04000
H 	H 	0.83552 0.04882 0.64422 0.03300
H 	H 	0.03297 0.24982 0.64251 0.04100
H 	H 	0.99800 0.30918 0.60678 0.03900
H 	H 	0.93431 0.05936 0.67521 0.03200
H 	H 	0.99338 0.23489 0.69113 0.08700
H 	H 	0.88501 0.31869 0.60051 0.03500
H 	H 	0.81679 0.18110 0.56164 0.08800
C 	C 	0.42596 0.25976 0.64899 0.00400
C 	C 	0.35768 0.21006 0.64442 -0.04000
C 	C 	0.31121 0.19643 0.66477 -0.03900
C 	C 	0.33284 0.23169 0.68996 0.00400
C 	C 	0.40096 0.28265 0.69434 -0.03900
C 	C 	0.44734 0.29703 0.67391 -0.03800
C 	C 	0.28555 0.20846 0.71258 0.01600
C 	C 	0.22724 0.21398 0.71064 -0.17700
C 	C 	0.47522 0.26513 0.62895 0.01700
C 	C 	0.52798 0.33797 0.62100 -0.17500
H 	H 	0.34078 0.18065 0.62532 0.03700
H 	H 	0.25872 0.15626 0.66128 0.03900
H 	H 	0.41810 0.30973 0.71378 0.04000
H 	H 	0.50007 0.33473 0.67777 0.04300
H 	H 	0.29772 0.18944 0.73122 0.03600
H 	H 	0.22003 0.24299 0.69337 0.08700
H 	H 	0.47009 0.21152 0.62036 0.03800
H 	H 	0.52662 0.39113 0.62601 0.08800
C 	C 	0.90226 0.78547 0.67653 0.00600
C 	C 	0.93171 0.73737 0.67634 -0.03500
C 	C 	0.91463 0.68041 0.65648 -0.03800
C 	C 	0.86791 0.67106 0.63671 0.01000
C 	C 	0.83952 0.72013 0.63663 -0.03700
C 	C 	0.85600 0.77644 0.65666 -0.03500
C 	C 	0.84730 0.60897 0.61637 0.01000
C 	C 	0.81693 0.53005 0.62426 -0.16000
C 	C 	0.91757 0.84301 0.69817 0.02400
C 	C 	0.98377 0.89963 0.70351 -0.17800
H 	H 	0.96706 0.74340 0.69176 0.04400
H 	H 	0.93737 0.64334 0.65654 0.04200
H 	H 	0.80363 0.71352 0.62137 0.04300
H 	H 	0.83291 0.81314 0.65669 0.04500
H 	H 	0.84599 0.62417 0.59546 0.04200
H 	H 	0.82147 0.51577 0.64497 0.08400
H 	H 	0.87662 0.84344 0.70899 0.04000
H 	H 	0.02352 0.90397 0.69050 0.09700
C 	C 	0.05303 0.49006 0.94132 -0.07700
C 	C 	0.07013 0.56925 0.94036 0.01500
C 	C 	0.03435 0.59291 0.92342 -0.00800
C 	C 	0.97530 0.53621 0.91141 0.00200
C 	C 	0.95254 0.45628 0.91601 -0.10000
C 	C 	0.99441 0.43345 0.92917 0.06200
C 	C 	0.11594 0.62285 0.96081 0.01400
S 	S 	0.06257 0.69292 0.91749 -0.03700
H 	H 	0.94485 0.55415 0.90005 0.04000
S 	S 	0.97294 0.33412 0.93114 -0.05200
H 	H 	0.08279 0.47211 0.95314 0.05300
C 	C 	0.09210 0.62265 0.98693 -0.00600
C 	C 	0.13635 0.64667 0.00859 0.00200
C 	C 	0.20420 0.67191 0.00425 -0.09500
C 	C 	0.22928 0.68590 0.97774 0.05400
C 	C 	0.18489 0.66021 0.95612 -0.07200
S 	S 	0.00645 0.58744 0.99288 -0.03400
H 	H 	0.11719 0.63972 0.02891 0.04100
S 	S 	0.31570 0.73299 0.97140 -0.04000
H 	H 	0.20371 0.66458 0.93585 0.05300
H 	H 	0.93693 0.30200 0.95417 0.04200
H 	H 	0.97462 0.50763 0.99582 0.03700
H 	H 	0.33527 0.67798 0.96767 0.04000
H 	H 	0.04540 0.72394 0.93867 0.03800
C 	C 	0.66184 0.02799 0.96524 -0.15500
C 	C 	0.59629 0.98077 0.95620 0.12300
C 	C 	0.57268 0.00646 0.93450 -0.10700
C 	C 	0.61103 0.08292 0.92468 0.03300
C 	C 	0.67313 0.13337 0.93612 -0.11900
C 	C 	0.70035 0.10427 0.95535 0.08900
C 	C 	0.54869 0.91638 0.97359 -0.01700
S 	S 	0.49412 0.94432 0.92026 0.01900
H 	H 	0.59133 0.10416 0.90897 0.02000
S 	S 	0.78212 0.16304 0.96739 -0.06000
H 	H 	0.68112 0.00724 0.98125 0.05900
C 	C 	0.54430 0.84212 0.97318 0.00800
C 	C 	0.50151 0.78385 0.99122 -0.00800
C 	C 	0.46280 0.79902 0.00956 -0.08500
C 	C 	0.46592 0.87298 0.00924 0.05800
C 	C 	0.50943 0.93111 0.99159 -0.05400
S 	S 	0.59149 0.82127 0.95011 -0.03800
H 	H 	0.49860 0.72694 0.99108 0.04200
S 	S 	0.41321 0.89254 0.02969 -0.05200
H 	H 	0.51252 0.98815 0.99170 0.06000
H 	H 	0.82617 0.15455 0.95105 0.03800
H 	H 	0.65264 0.84206 0.96098 0.04000
H 	H 	0.35658 0.87633 0.01574 0.05100
H 	H 	0.50127 0.90079 0.90038 0.03500
C 	C 	0.51140 0.45933 0.05874 -0.07200
C 	C 	0.47804 0.39076 0.04349 0.01100
C 	C 	0.40837 0.34350 0.04642 -0.00300
C 	C 	0.37198 0.37245 0.06028 -0.00500
C 	C 	0.40472 0.44877 0.07062 -0.08700
C 	C 	0.47494 0.48896 0.07210 0.05500
C 	C 	0.51255 0.38106 0.01993 0.01300
S 	S 	0.36580 0.25152 0.03076 -0.05200
H 	H 	0.31785 0.33922 0.06043 0.04200
S 	S 	0.51757 0.57975 0.08850 -0.05700
H 	H 	0.56543 0.49366 0.05787 0.05300
C 	C 	0.51732 0.42115 0.99577 -0.00600
C 	C 	0.55735 0.42011 0.97480 -0.00400
C 	C 	0.59227 0.37846 0.97742 -0.08500
C 	C 	0.58264 0.33255 0.00068 0.05400
C 	C 	0.54396 0.33543 0.02202 -0.07300
S 	S 	0.47431 0.47418 0.99174 -0.03900
H 	H 	0.56318 0.45407 0.95678 0.04200
S 	S 	0.61523 0.26800 0.00270 -0.05100
H 	H 	0.53845 0.30239 0.04024 0.05000
H 	H 	0.52677 0.63852 0.07109 0.04200
H 	H 	0.51229 0.54821 0.00175 0.03900
H 	H 	0.57105 0.19756 0.99150 0.03600
H 	H 	0.35025 0.26124 0.00500 0.03600
C 	C 	0.88293 0.44129 0.81974 0.01200
C 	C 	0.85508 0.37880 0.80160 -0.04100
C 	C 	0.87777 0.32435 0.80076 -0.04000
C 	C 	0.92806 0.33117 0.81844 0.00600
C 	C 	0.95426 0.39234 0.83719 -0.03700
C 	C 	0.93264 0.44780 0.83754 -0.03300
C 	C 	0.96055 0.28229 0.81482 0.00900
C 	C 	0.92478 0.20486 0.80542 -0.16300
C 	C 	0.86886 0.50695 0.81667 0.01900
C 	C 	0.84964 0.53673 0.83850 -0.17100
H 	H 	0.81772 0.37418 0.78739 0.04300
H 	H 	0.85849 0.27931 0.78554 0.04100
H 	H 	0.99321 0.39862 0.85084 0.04400
H 	H 	0.95590 0.49706 0.85111 0.04900
H 	H 	0.01369 0.30833 0.81884 0.03900
H 	H 	0.87055 0.17545 0.80499 0.07900
H 	H 	0.88483 0.54114 0.79826 0.02800
H 	H 	0.86494 0.59871 0.83861 0.08300
C 	C 	0.30573 0.20370 0.84962 0.00600
C 	C 	0.33598 0.26665 0.86746 -0.04000
C 	C 	0.40394 0.29960 0.87328 -0.04000
C 	C 	0.44233 0.27017 0.86118 0.00600
C 	C 	0.41154 0.20606 0.84368 -0.03900
C 	C 	0.34331 0.17230 0.83828 -0.04000
C 	C 	0.51575 0.31339 0.86426 0.01200
C 	C 	0.55328 0.27451 0.86610 -0.16600
C 	C 	0.23545 0.17226 0.84189 0.00900
C 	C 	0.21702 0.21658 0.82542 -0.16400
H 	H 	0.30712 0.29078 0.87649 0.03900
H 	H 	0.42718 0.34922 0.88671 0.03900
H 	H 	0.44075 0.18421 0.83352 0.03800
H 	H 	0.32015 0.12353 0.82449 0.03500
H 	H 	0.54021 0.37656 0.86679 0.03600
H 	H 	0.52840 0.21100 0.86506 0.07900
H 	H 	0.20148 0.10996 0.84466 0.03300
H 	H 	0.24740 0.28006 0.82534 0.08500
C 	C 	0.91504 0.84519 0.86926 0.00300
C 	C 	0.90059 0.86893 0.89374 -0.03400
C 	C 	0.88569 0.82132 0.91655 -0.03900
C 	C 	0.88514 0.74950 0.91512 0.00800
C 	C 	0.90205 0.72712 0.89080 -0.03900
C 	C 	0.91562 0.77386 0.86793 -0.03300
C 	C 	0.85509 0.69235 0.93736 0.01700
C 	C 	0.87174 0.63331 0.94128 -0.17600
C 	C 	0.92541 0.89285 0.84473 0.03300
C 	C 	0.97241 0.90248 0.82651 -0.18700
H 	H 	0.89976 0.92363 0.89499 0.04700
H 	H 	0.87244 0.83906 0.93512 0.04400
H 	H 	0.90144 0.67168 0.88925 0.05000
H 	H 	0.92453 0.75344 0.84900 0.04100
H 	H 	0.81137 0.68779 0.94751 0.03700
H 	H 	0.92375 0.64794 0.94042 0.08800
H 	H 	0.89575 0.92179 0.84210 0.04300
H 	H 	0.00506 0.87819 0.83065 0.09200
