data_crystal

_cell_length_a 15.58100
_cell_length_b 15.75938
_cell_length_c 35.02843
_cell_angle_alpha 95.39573
_cell_angle_beta  95.39677
_cell_angle_gamma 126.69820

_symmetry_space_group_name_	'P 1'
_symmetry_space_group_name_H-M	'P 1'

loop_
_symmetry_equiv_pos_as_xyz
  x,y,z

loop_
_atom_site_label
_atom_site_type_symbol
_atom_site_fract_x
_atom_site_fract_y
_atom_site_fract_z
_atom_site_charge
C 	C 	0.05358 0.01598 0.97376 0.14500
N 	N 	0.05662 0.10293 0.49498 -0.10800
C 	C 	0.09737 0.04666 0.49221 0.13300
N 	N 	0.03044 0.93865 0.49003 -0.10300
C 	C 	0.16692 0.08397 0.97308 0.05600
C 	C 	0.21203 0.10091 0.49359 0.05100
N 	N 	0.00145 0.91045 0.97453 -0.10500
N 	N 	0.99714 0.05560 0.97103 -0.12400
C 	C 	0.88818 0.99047 0.96954 0.15000
N 	N 	0.83453 0.88328 0.97038 -0.11400
C 	C 	0.89238 0.84354 0.97272 0.13300
C 	C 	0.94842 0.04937 0.49568 0.12100
C 	C 	0.92351 0.88617 0.49079 0.13500
N 	N 	0.88270 0.94136 0.49376 -0.10700
Cu	Cu	0.75399 0.33070 0.95903 0.93400
Cu	Cu	0.71220 0.22483 0.03792 0.88700
Cu	Cu	0.59102 0.29695 0.00858 0.90400
Cu	Cu	0.54943 0.31949 0.92525 0.92300
C 	C 	0.68238 0.29835 0.87638 0.39800
O 	O 	0.81178 0.48923 0.95970 -0.31600
C 	C 	0.64916 0.31518 0.09366 0.38800
O 	O 	0.58525 0.24673 0.95456 -0.63000
O 	O 	0.74173 0.34398 0.01429 -0.64200
O 	O 	0.81782 0.25080 0.96314 -0.32100
O 	O 	0.68319 0.12826 0.99292 -0.40400
O 	O 	0.64163 0.34892 0.88518 -0.34600
O 	O 	0.44734 0.26188 0.00155 -0.33900
C 	C 	0.37400 0.20846 0.96913 0.30500
C 	C 	0.75683 0.52501 0.97003 0.28800
O 	O 	0.65354 0.45645 0.97195 -0.37000
O 	O 	0.39983 0.23269 0.93501 -0.34200
O 	O 	0.74209 0.29274 0.90375 -0.32400
C 	C 	0.76090 0.15513 0.97332 0.29800
O 	O 	0.59801 0.32831 0.06514 -0.33600
O 	O 	0.71603 0.29236 0.08708 -0.36900
H 	H 	0.53724 0.16733 0.94645 0.18700
H 	H 	0.79631 0.41647 0.03066 0.20300
Cu	Cu	0.61867 0.19674 0.50894 0.93500
Cu	Cu	0.72386 0.23631 0.42988 0.88700
Cu	Cu	0.64912 0.35487 0.45848 0.90400
Cu	Cu	0.62776 0.39760 0.54168 0.92200
C 	C 	0.65306 0.26966 0.59144 0.39800
O 	O 	0.45934 0.13796 0.50883 -0.31900
C 	C 	0.63046 0.29596 0.37359 0.38800
O 	O 	0.70231 0.36319 0.51253 -0.63100
O 	O 	0.60309 0.20647 0.45347 -0.64100
O 	O 	0.69468 0.12981 0.50460 -0.32400
O 	O 	0.82000 0.26112 0.47465 -0.40700
O 	O 	0.60099 0.30899 0.58250 -0.34500
O 	O 	0.68283 0.49627 0.46463 -0.33600
C 	C 	0.73536 0.56986 0.49682 0.30300
C 	C 	0.42100 0.18934 0.49743 0.29000
O 	O 	0.48831 0.29167 0.49541 -0.37200
O 	O 	0.71276 0.54488 0.53116 -0.34200
O 	O 	0.65949 0.21100 0.56419 -0.32300
C 	C 	0.79046 0.18316 0.49391 0.30600
O 	O 	0.61466 0.34475 0.40186 -0.33500
O 	O 	0.65556 0.23148 0.38046 -0.36800
H 	H 	0.78271 0.41163 0.52039 0.18600
H 	H 	0.52975 0.15148 0.43727 0.20400
C 	C 	0.59145 0.21044 0.76709 0.23200
C 	C 	0.69132 0.25575 0.75480 -0.00000
C 	C 	0.78663 0.30406 0.78268 0.23400
C 	C 	0.78316 0.31283 0.82262 0.31700
C 	C 	0.68399 0.27249 0.83494 -0.20600
C 	C 	0.58774 0.21831 0.80694 0.31200
C 	C 	0.69749 0.26201 0.71312 -0.00000
F 	F 	0.88320 0.34585 0.77109 -0.33600
F 	F 	0.49092 0.17600 0.81842 -0.38500
C 	C 	0.74113 0.36031 0.70075 0.23200
C 	C 	0.73274 0.36375 0.66089 0.31200
C 	C 	0.67963 0.26875 0.63294 -0.20500
C 	C 	0.64106 0.17126 0.64535 0.31700
C 	C 	0.65041 0.16811 0.68530 0.23400
F 	F 	0.78788 0.45181 0.72738 -0.33800
F 	F 	0.58982 0.07873 0.61878 -0.36700
F 	F 	0.77351 0.45903 0.64934 -0.38500
F 	F 	0.61028 0.07312 0.69696 -0.33600
F 	F 	0.49861 0.16252 0.74041 -0.33800
F 	F 	0.87692 0.36514 0.84925 -0.36800
C 	C 	0.64791 0.41691 0.28369 0.23500
C 	C 	0.60232 0.32710 0.25393 -0.00200
C 	C 	0.55312 0.22489 0.26361 0.23000
C 	C 	0.55503 0.21350 0.30275 0.31200
C 	C 	0.60847 0.30464 0.33270 -0.20300
C 	C 	0.65159 0.40590 0.32295 0.31000
C 	C 	0.61650 0.34155 0.21320 -0.00200
F 	F 	0.50734 0.13718 0.23512 -0.34000
F 	F 	0.70183 0.49447 0.35146 -0.37500
C 	C 	0.72032 0.39317 0.20357 0.22900
C 	C 	0.73196 0.39180 0.16445 0.31200
C 	C 	0.63957 0.33657 0.13445 -0.20300
C 	C 	0.53651 0.29099 0.14414 0.31000
C 	C 	0.52518 0.29406 0.18338 0.23500
F 	F 	0.80946 0.44080 0.23212 -0.34100
F 	F 	0.44667 0.23901 0.11557 -0.37500
F 	F 	0.83287 0.44201 0.15563 -0.37200
F 	F 	0.42493 0.24731 0.19238 -0.33500
F 	F 	0.69227 0.51550 0.27462 -0.33500
F 	F 	0.50698 0.11412 0.31162 -0.37100
C 	C 	0.80030 0.68045 0.49368 -0.04000
C 	C 	0.85598 0.77422 0.49191 0.05700
C 	C 	0.90107 0.10486 0.49648 0.05300
C 	C 	0.85244 0.14255 0.49612 -0.05600
C 	C 	0.30711 0.14045 0.49503 -0.04200
C 	C 	0.80270 0.63699 0.97133 -0.04000
C 	C 	0.83917 0.73019 0.97202 0.05000
C 	C 	0.79758 0.08953 0.97023 -0.04500
C 	C 	0.83239 0.03811 0.96931 0.03800
C 	C 	0.26195 0.14111 0.97175 -0.03900
