data_crystal

_cell_length_a 39.58943
_cell_length_b 39.59969
_cell_length_c 22.22676
_cell_angle_alpha 89.82068
_cell_angle_beta  89.99970
_cell_angle_gamma 89.99997

_symmetry_space_group_name_	'P 1'
_symmetry_space_group_name_H-M	'P 1'

loop_
_symmetry_equiv_pos_as_xyz
  x,y,z

loop_
_atom_site_label
_atom_site_type_symbol
_atom_site_fract_x
_atom_site_fract_y
_atom_site_fract_z
_atom_site_charge
C 	C 	0.49171 0.57566 0.92217 0.10100
N 	N 	0.47457 0.54687 0.93260 -0.17400
C 	C 	0.44427 0.55046 0.90580 0.10000
C 	C 	0.41502 0.52846 0.91996 -0.07700
C 	C 	0.42026 0.49204 0.93074 0.08800
C 	C 	0.38018 0.54177 0.91658 0.04800
C 	C 	0.36914 0.56622 0.95767 -0.06400
C 	C 	0.33536 0.57664 0.95767 -0.01300
C 	C 	0.31234 0.56245 0.91683 -0.01900
C 	C 	0.35741 0.52839 0.87460 -0.06100
N 	N 	0.44616 0.47452 0.90690 -0.12800
C 	C 	0.40358 0.47348 0.97429 -0.05800
C 	C 	0.44544 0.44427 0.93483 0.08900
C 	C 	0.47311 0.41938 0.93028 -0.07600
C 	C 	0.46565 0.38305 0.93863 0.04800
C 	C 	0.43126 0.33408 0.91525 -0.01100
C 	C 	0.48235 0.36444 0.98347 -0.06100
C 	C 	0.47330 0.33084 0.99456 -0.01000
C 	C 	0.44734 0.31566 0.96109 -0.02000
N 	N 	0.52211 0.45833 0.93581 -0.17300
C 	C 	0.55529 0.45592 0.92314 0.10100
C 	C 	0.56186 0.42657 0.89133 -0.06200
C 	C 	0.53116 0.41036 0.88467 -0.06200
C 	C 	0.58130 0.47672 0.95365 -0.07600
C 	C 	0.61627 0.46409 0.96066 0.04600
C 	C 	0.67636 0.47075 0.94269 -0.01400
C 	C 	0.68289 0.44157 0.97662 -0.01600
C 	C 	0.65599 0.42356 0.00241 -0.02000
C 	C 	0.62279 0.43499 0.99500 -0.05600
N 	N 	0.55248 0.53166 0.93701 -0.12900
C 	C 	0.56603 0.55787 0.02367 -0.06400
C 	C 	0.54826 0.55977 0.97021 0.09200
C 	C 	0.52215 0.58535 0.95691 -0.07900
C 	C 	0.52841 0.62113 0.97245 0.05300
C 	C 	0.55792 0.63726 0.95242 -0.06500
C 	C 	0.56382 0.67108 0.96670 -0.00800
C 	C 	0.54015 0.68919 0.00081 -0.02500
C 	C 	0.51072 0.67299 0.02118 -0.01100
C 	C 	0.50498 0.63903 0.00736 -0.06900
C 	C 	0.47237 0.59784 0.88826 -0.06300
C 	C 	0.44198 0.58172 0.87781 -0.06200
C 	C 	0.32366 0.53863 0.87477 -0.01200
C 	C 	0.41980 0.44276 0.97700 -0.05800
C 	C 	0.50738 0.43064 0.91261 0.10200
C 	C 	0.58244 0.52720 0.02298 -0.06400
C 	C 	0.57370 0.51211 0.96923 0.09100
C 	C 	0.64321 0.48185 0.93444 -0.06000
H 	H 	0.47941 0.53045 0.96850 0.09300
H 	H 	0.51211 0.47254 0.97114 0.09300
H 	H 	0.58649 0.68338 0.95032 0.04300
H 	H 	0.49238 0.68665 0.04789 0.03900
H 	H 	0.57612 0.62367 0.92531 0.05200
H 	H 	0.48228 0.62670 0.02349 0.04800
H 	H 	0.32692 0.59503 0.99036 0.04300
H 	H 	0.36579 0.50969 0.84240 0.05300
H 	H 	0.30625 0.52787 0.84246 0.04500
H 	H 	0.38656 0.57667 0.99028 0.04800
H 	H 	0.48588 0.31690 0.03009 0.04000
H 	H 	0.50184 0.37620 0.01046 0.04600
C 	C 	0.44044 0.36757 0.90399 -0.06100
H 	H 	0.41155 0.32250 0.88853 0.04600
H 	H 	0.69698 0.48469 0.92234 0.04000
H 	H 	0.63843 0.50428 0.90773 0.05100
H 	H 	0.60218 0.42128 0.01586 0.04500
H 	H 	0.66083 0.40099 0.02870 0.04300
H 	H 	0.47605 0.62490 0.88605 0.05100
H 	H 	0.41864 0.59448 0.86647 0.05100
H 	H 	0.38860 0.48415 0.01028 0.04700
H 	H 	0.41939 0.42596 0.01551 0.04800
H 	H 	0.58621 0.41432 0.88805 0.05200
H 	H 	0.52827 0.38363 0.87606 0.05200
H 	H 	0.56001 0.57193 0.06396 0.04900
H 	H 	0.59123 0.51387 0.06258 0.04900
H 	H 	0.42765 0.38165 0.86887 0.05200
Co	Co	0.37578 0.12315 0.01485 1.18100
Co	Co	0.37933 0.04406 0.03027 1.09600
O 	O 	0.37285 0.17437 0.01381 -0.35400
O 	O 	0.42405 0.15747 0.01358 -0.30300
O 	O 	0.32858 0.10696 0.01293 -0.39400
O 	O 	0.36425 0.05713 0.94829 -0.46200
C 	C 	0.31742 0.08377 0.05063 0.28000
C 	C 	0.40411 0.18317 0.01446 0.26800
O 	O 	0.33847 0.06231 0.07591 -0.41600
O 	O 	0.38993 0.10817 0.93590 -0.41900
C 	C 	0.38168 0.07828 0.91500 0.31200
O 	O 	0.38539 0.11454 0.09838 -0.42800
O 	O 	0.41585 0.06844 0.07263 -0.47800
C 	C 	0.40817 0.09181 0.11199 0.32600
C 	C 	0.48304 0.01587 0.55744 0.01100
C 	C 	0.50940 0.99153 0.55886 0.01100
C 	C 	0.48376 0.04202 0.51458 -0.05500
C 	C 	0.50948 0.04306 0.47097 0.01100
C 	C 	0.53634 0.99394 0.51791 -0.05500
C 	C 	0.53604 0.01890 0.47275 0.01000
H 	H 	0.55682 0.97584 0.51995 0.05100
H 	H 	0.46387 0.06080 0.51402 0.05100
C 	C 	0.56090 0.01953 0.42707 -0.01100
C 	C 	0.55762 0.04094 0.37686 0.00700
C 	C 	0.57357 0.02802 0.32414 -0.05200
C 	C 	0.58936 0.99677 0.33326 0.00900
S 	S 	0.58270 0.98573 0.40485 -0.00900
H 	H 	0.56927 0.03820 0.27974 0.04300
C 	C 	0.50899 0.06715 0.42396 -0.01400
C 	C 	0.53193 0.06545 0.37597 0.00900
C 	C 	0.51983 0.08145 0.32260 -0.05600
C 	C 	0.48719 0.09467 0.32843 0.01000
S 	S 	0.47425 0.08621 0.39831 -0.00500
H 	H 	0.53244 0.07984 0.27957 0.04200
C 	C 	0.45392 0.98536 0.63864 0.00600
C 	C 	0.45529 0.01186 0.59666 -0.01300
S 	S 	0.43173 0.04341 0.62313 -0.01000
C 	C 	0.41725 0.02431 0.68497 0.00200
C 	C 	0.43231 0.99240 0.68833 -0.05700
C 	C 	0.50675 0.96393 0.59891 -0.01400
C 	C 	0.47975 0.96102 0.63946 0.00800
C 	C 	0.48737 0.94015 0.68997 -0.05300
C 	C 	0.52054 0.92789 0.68966 0.00400
S 	S 	0.53944 0.94301 0.62810 0.00000
H 	H 	0.47104 0.93758 0.72870 0.03900
H 	H 	0.43096 0.97688 0.72836 0.03900
Co	Co	0.61516 0.87959 0.01849 1.17900
Co	Co	0.53956 0.89914 0.03817 1.09200
O 	O 	0.66376 0.86623 0.00033 -0.35700
O 	O 	0.65430 0.91772 0.97853 -0.30000
O 	O 	0.59288 0.83923 0.05242 -0.40200
O 	O 	0.56270 0.89327 0.11671 -0.46900
C 	C 	0.56367 0.82840 0.03164 0.28100
C 	C 	0.67636 0.89381 0.97920 0.27000
O 	O 	0.54097 0.84985 0.01117 -0.42400
O 	O 	0.61634 0.90749 0.08977 -0.43600
C 	C 	0.59152 0.90808 0.12893 0.31200
O 	O 	0.59485 0.87849 0.93994 -0.42300
O 	O 	0.56036 0.92129 0.96726 -0.48600
C 	C 	0.57401 0.90274 0.92498 0.32500
Co	Co	0.11231 0.61948 0.93151 1.18000
Co	Co	0.03558 0.60720 0.95825 1.09300
O 	O 	0.16295 0.62689 0.92294 -0.35600
O 	O 	0.15028 0.57445 0.92202 -0.30800
O 	O 	0.09172 0.66487 0.93440 -0.39400
O 	O 	0.04206 0.62483 0.87533 -0.46300
C 	C 	0.06905 0.67304 0.97527 0.28200
C 	C 	0.17406 0.59651 0.91813 0.26700
O 	O 	0.05116 0.64955 0.00254 -0.42300
O 	O 	0.09473 0.60474 0.85458 -0.43000
C 	C 	0.06356 0.61108 0.83779 0.31600
O 	O 	0.10901 0.60835 0.01561 -0.43400
O 	O 	0.06558 0.57308 0.99575 -0.48300
C 	C 	0.08999 0.58286 0.03153 0.32000
C 	C 	0.00273 0.46335 0.39150 0.01200
C 	C 	0.02755 0.48934 0.39189 0.01100
C 	C 	0.97698 0.46320 0.43504 -0.05600
C 	C 	0.97470 0.48954 0.47705 0.01100
C 	C 	0.02603 0.51495 0.43553 -0.05400
C 	C 	0.99931 0.51567 0.47714 0.01100
H 	H 	0.04503 0.53462 0.43619 0.05100
H 	H 	0.95835 0.44316 0.43534 0.05100
C 	C 	0.99521 0.54305 0.51703 -0.01500
C 	C 	0.96857 0.54406 0.55863 0.00800
C 	C 	0.97531 0.56548 0.60858 -0.05400
C 	C 	0.00747 0.58012 0.60673 0.00500
S 	S 	0.02669 0.56629 0.54467 0.00100
H 	H 	0.95929 0.56699 0.64788 0.03900
C 	C 	0.94720 0.49163 0.51726 -0.01300
C 	C 	0.94459 0.51791 0.55921 0.00700
C 	C 	0.92432 0.50930 0.61000 -0.05500
C 	C 	0.91156 0.47639 0.60753 0.00800
S 	S 	0.92628 0.45848 0.54498 -0.00800
H 	H 	0.92258 0.52459 0.65009 0.04000
C 	C 	0.02700 0.44107 0.29810 0.00800
C 	C 	0.00417 0.43842 0.34619 -0.01300
S 	S 	0.97111 0.41604 0.32214 0.00100
C 	C 	0.98475 0.40783 0.25260 0.00500
C 	C 	0.01606 0.42375 0.24545 -0.05400
C 	C 	0.05291 0.48925 0.34708 -0.01500
C 	C 	0.05149 0.46673 0.29847 0.00900
C 	C 	0.06855 0.47883 0.24622 -0.05600
C 	C 	0.08304 0.51075 0.25413 0.00600
S 	S 	0.07412 0.52337 0.32402 0.00300
H 	H 	0.06682 0.46696 0.20259 0.04400
H 	H 	0.02819 0.42620 0.20208 0.04400
Co	Co	0.87732 0.36869 0.93232 1.18100
Co	Co	0.88253 0.44682 0.95638 1.09400
O 	O 	0.87363 0.31839 0.91558 -0.35500
O 	O 	0.92481 0.33361 0.92669 -0.30700
O 	O 	0.83042 0.38562 0.93427 -0.39400
O 	O 	0.91931 0.42034 0.99491 -0.48000
C 	C 	0.82032 0.40764 0.97474 0.28100
C 	C 	0.90469 0.30882 0.91564 0.26800
O 	O 	0.84241 0.42701 0.00222 -0.42300
O 	O 	0.88828 0.37390 0.01638 -0.43400
C 	C 	0.91188 0.39538 0.03148 0.32100
O 	O 	0.89044 0.38628 0.85447 -0.42100
O 	O 	0.86669 0.43761 0.87355 -0.46600
C 	C 	0.88306 0.41723 0.83739 0.31300
C 	C 	0.98881 0.92368 0.08985 0.10000
N 	N 	0.97212 0.95034 0.06676 -0.17300
C 	C 	0.93936 0.94613 0.08123 0.10100
C 	C 	0.91179 0.96490 0.05086 -0.07800
C 	C 	0.91685 0.00053 0.03349 0.08800
C 	C 	0.87797 0.94963 0.04375 0.05200
C 	C 	0.87330 0.92203 0.00517 -0.07200
C 	C 	0.84069 0.91029 0.99279 -0.00400
C 	C 	0.81257 0.92634 0.01844 -0.02400
C 	C 	0.84992 0.96463 0.07143 -0.06400
N 	N 	0.93818 0.02133 0.06267 -0.12800
C 	C 	0.90654 0.01427 0.97929 -0.05800
C 	C 	0.94081 0.04883 0.02714 0.08700
C 	C 	0.96607 0.07566 0.03705 -0.07500
C 	C 	0.95818 0.11066 0.01843 0.04400
C 	C 	0.92070 0.15911 0.02092 -0.01700
C 	C 	0.97895 0.12752 0.97696 -0.06000
C 	C 	0.97057 0.16006 0.95735 -0.01500
C 	C 	0.94124 0.17592 0.97892 -0.01500
N 	N 	0.01529 0.03980 0.06392 -0.17200
C 	C 	0.04577 0.04543 0.08892 0.10200
C 	C 	0.04711 0.07765 0.11310 -0.06300
C 	C 	0.01597 0.09218 0.10224 -0.06000
C 	C 	0.07592 0.02483 0.07430 -0.07800
C 	C 	0.10995 0.03994 0.07621 0.05000
C 	C 	0.16348 0.04720 0.12757 -0.01200
C 	C 	0.17739 0.06182 0.07547 -0.01900
C 	C 	0.15683 0.06679 0.02461 -0.01500
C 	C 	0.12322 0.05593 0.02510 -0.06600
N 	N 	0.04840 0.96924 0.09095 -0.12800
C 	C 	0.07402 0.93913 0.01813 -0.06400
C 	C 	0.04971 0.93913 0.06285 0.08900
C 	C 	0.02269 0.91352 0.06824 -0.07600
C 	C 	0.02988 0.87777 0.05340 0.04800
C 	C 	0.05802 0.86146 0.07867 -0.06200
C 	C 	0.06501 0.82785 0.06423 -0.01200
C 	C 	0.04364 0.81011 0.02520 -0.02000
C 	C 	0.01548 0.82635 -0.00000 -0.01400
C 	C 	0.00881 0.86015 0.01355 -0.06500
C 	C 	0.96665 0.90228 0.11960 -0.06200
C 	C 	0.93497 0.91664 0.11405 -0.06300
C 	C 	0.81738 0.95313 0.05868 -0.00900
C 	C 	0.92195 0.04536 0.97520 -0.05800
C 	C 	0.99712 0.06819 0.07186 0.09900
C 	C 	0.08880 0.97059 0.01951 -0.06300
C 	C 	0.07265 0.98812 0.06481 0.09100
C 	C 	0.12997 0.03616 0.12776 -0.06300
H 	H 	0.98065 0.96467 0.03023 0.09200
H 	H 	0.01078 0.02222 0.02987 0.09300
H 	H 	0.08673 0.81546 0.08409 0.04200
H 	H 	0.99890 0.81285 0.96964 0.04000
H 	H 	0.07437 0.87478 0.10965 0.05100
H 	H 	0.98726 0.87262 0.99323 0.04900
H 	H 	0.83723 0.88949 0.96185 0.04000
H 	H 	0.85332 0.98576 0.10170 0.05300
H 	H 	0.79586 0.96537 0.07936 0.04300
H 	H 	0.89483 0.91026 0.98364 0.05100
H 	H 	0.98657 0.17271 0.92480 0.04400
H 	H 	0.00137 0.11528 0.95950 0.04900
C 	C 	0.92916 0.12667 0.04059 -0.05900
H 	H 	0.89829 0.17125 0.03859 0.04500
H 	H 	0.17878 0.04386 0.16755 0.04400
H 	H 	0.11973 0.02410 0.16761 0.05200
H 	H 	0.10780 0.05905 0.98520 0.05000
H 	H 	0.16715 0.07804 0.98410 0.04700
H 	H 	0.97118 0.87577 0.12847 0.05000
H 	H 	0.91146 0.90288 0.11813 0.05000
H 	H 	0.89751 0.99983 0.94126 0.05000
H 	H 	0.92666 0.05877 0.93352 0.05000
H 	H 	0.07006 0.09177 0.12127 0.05200
H 	H 	0.01135 0.11912 0.10111 0.05100
H 	H 	0.07386 0.92272 0.97926 0.05200
H 	H 	0.10191 0.98216 0.98200 0.05000
H 	H 	0.91311 0.11391 0.07294 0.05100
C 	C 	0.91443 0.27365 0.92655 0.03900
N 	N 	0.94742 0.26535 0.93421 -0.06400
N 	N 	0.95608 0.23395 0.94952 -0.08500
C 	C 	0.93196 0.20998 0.95758 0.11000
N 	N 	0.89901 0.21813 0.94862 -0.08300
N 	N 	0.89038 0.24952 0.93330 -0.06000
C 	C 	0.88950 0.42781 0.77491 -0.11100
C 	C 	0.92237 0.42615 0.75075 0.10100
C 	C 	0.92908 0.44070 0.69425 -0.09200
C 	C 	0.90330 0.45696 0.66201 0.00600
C 	C 	0.87022 0.45733 0.68494 0.03500
C 	C 	0.86345 0.44272 0.74131 -0.01600
H 	H 	0.95459 0.44038 0.67652 0.05300
H 	H 	0.83804 0.44359 0.75943 0.04400
N 	N 	0.94922 0.41066 0.78470 -0.14300
N 	N 	0.84353 0.47323 0.65122 -0.13500
C 	C 	0.96921 0.43626 0.81596 -0.08200
H 	H 	0.98195 0.45332 0.78327 0.03600
H 	H 	0.98887 0.42359 0.84356 0.04500
H 	H 	0.95296 0.45130 0.84665 0.02000
C 	C 	0.82418 0.44802 0.61781 -0.09300
H 	H 	0.84091 0.43397 0.58644 0.05700
H 	H 	0.80448 0.46095 0.59069 0.05100
H 	H 	0.81153 0.43002 0.64904 0.05200
H 	H 	0.96470 0.39627 0.75649 0.08400
H 	H 	0.82761 0.48692 0.67978 0.07400
C 	C 	0.92628 0.39476 0.09249 -0.12000
C 	C 	0.95054 0.37024 0.10952 0.10900
C 	C 	0.96805 0.37387 0.16392 -0.09100
C 	C 	0.96185 0.40154 0.20148 0.01100
C 	C 	0.93661 0.42513 0.18579 0.03300
C 	C 	0.91861 0.42123 0.13186 -0.01000
H 	H 	0.98731 0.35561 0.17605 0.06100
H 	H 	0.89963 0.43972 0.11939 0.02000
N 	N 	0.95836 0.34202 0.07125 -0.14500
N 	N 	0.93021 0.45385 0.22362 -0.13500
C 	C 	0.93578 0.31354 0.08327 -0.09300
H 	H 	0.93766 0.30560 0.13118 0.05700
H 	H 	0.94340 0.29179 0.05500 0.06700
H 	H 	0.90919 0.32008 0.07250 0.06800
C 	C 	0.94665 0.48406 0.19945 -0.08700
H 	H 	0.97395 0.47929 0.19144 0.04600
H 	H 	0.94440 0.50483 0.23260 0.04400
H 	H 	0.93445 0.49220 0.15675 0.03100
H 	H 	0.95855 0.34857 0.02567 0.09500
H 	H 	0.90421 0.45789 0.22818 0.07600
C 	C 	0.06268 0.70867 0.98881 0.03700
N 	N 	0.03322 0.71809 0.01516 -0.07100
N 	N 	0.02702 0.75054 0.02626 -0.08700
C 	C 	0.05025 0.77444 0.01192 0.10900
N 	N 	0.07982 0.76503 0.98597 -0.08200
N 	N 	0.08584 0.73260 0.97414 -0.05900
C 	C 	0.05306 0.60411 0.77559 -0.11500
C 	C 	0.03923 0.62989 0.73937 0.10800
C 	C 	0.02629 0.62202 0.68222 -0.09500
C 	C 	0.02607 0.58858 0.66194 0.01000
C 	C 	0.04066 0.56292 0.69752 0.03600
C 	C 	0.05478 0.57100 0.75365 -0.01800
H 	H 	0.01566 0.64185 0.65432 0.05500
H 	H 	0.06599 0.55126 0.78103 0.03500
N 	N 	0.03938 0.66432 0.76002 -0.13900
N 	N 	0.04127 0.52861 0.67625 -0.13400
C 	C 	0.00531 0.67537 0.77637 -0.08300
H 	H 	0.98893 0.67726 0.73586 0.04100
H 	H 	0.00679 0.70068 0.79752 0.05300
H 	H 	0.99372 0.65771 0.80943 0.04700
C 	C 	0.01632 0.50781 0.70782 -0.08800
H 	H 	0.02350 0.50437 0.75581 0.03700
H 	H 	0.01511 0.48259 0.68629 0.04800
H 	H 	0.99075 0.51929 0.70508 0.04400
H 	H 	0.04947 0.68022 0.72688 0.08200
H 	H 	0.06546 0.51833 0.68136 0.08000
C 	C 	0.09240 0.56877 0.09261 -0.12000
C 	C 	0.11680 0.54395 0.10713 0.10900
C 	C 	0.11484 0.52693 0.16238 -0.09100
C 	C 	0.08886 0.53415 0.20328 0.01000
C 	C 	0.06577 0.56039 0.19026 0.03400
C 	C 	0.06789 0.57765 0.13512 -0.01200
H 	H 	0.13285 0.50710 0.17252 0.06100
H 	H 	0.04960 0.59716 0.12453 0.02300
N 	N 	0.14326 0.53516 0.06553 -0.14600
N 	N 	0.03964 0.56901 0.23255 -0.13500
C 	C 	0.17244 0.55747 0.07251 -0.09300
H 	H 	0.16570 0.58405 0.06182 0.06800
H 	H 	0.19275 0.54936 0.04131 0.06600
H 	H 	0.18248 0.55590 0.11915 0.05700
C 	C 	0.00776 0.55274 0.21645 -0.08600
H 	H 	0.99844 0.56206 0.17222 0.03200
H 	H 	0.98851 0.55856 0.25122 0.04500
H 	H 	0.01097 0.52491 0.21497 0.04800
H 	H 	0.13483 0.53462 0.02096 0.09200
H 	H 	0.03653 0.59523 0.23480 0.07700
C 	C 	0.71266 0.90099 0.98136 0.04400
N 	N 	0.73485 0.87675 0.99904 -0.05900
N 	N 	0.76722 0.88450 0.00836 -0.08500
C 	C 	0.77819 0.91670 0.00048 0.11100
N 	N 	0.75618 0.94067 0.98119 -0.08200
N 	N 	0.72391 0.93289 0.97158 -0.06100
C 	C 	0.56500 0.90854 0.86149 -0.11600
C 	C 	0.55475 0.88147 0.82466 0.10600
C 	C 	0.54225 0.88803 0.76661 -0.09400
C 	C 	0.53906 0.92128 0.74579 0.01000
C 	C 	0.55040 0.94825 0.78172 0.03500
C 	C 	0.56377 0.94166 0.83909 -0.01400
H 	H 	0.53386 0.86727 0.73866 0.05500
H 	H 	0.57249 0.96243 0.86671 0.04000
N 	N 	0.55616 0.84734 0.84698 -0.13700
N 	N 	0.54868 0.98238 0.75937 -0.13400
C 	C 	0.52258 0.83556 0.86484 -0.08800
H 	H 	0.51100 0.85313 0.89787 0.04500
H 	H 	0.52489 0.81039 0.88656 0.06400
H 	H 	0.50579 0.83314 0.82497 0.04400
C 	C 	0.52171 0.00136 0.78903 -0.08900
H 	H 	0.49719 0.98785 0.78572 0.04600
H 	H 	0.51880 0.02623 0.76643 0.04800
H 	H 	0.52794 0.00576 0.83714 0.04000
H 	H 	0.56645 0.83129 0.81443 0.08400
H 	H 	0.57191 0.99453 0.76530 0.08000
C 	C 	0.59362 0.97187 0.28420 0.00600
C 	C 	0.61317 0.97998 0.23320 0.03500
C 	C 	0.61418 0.95763 0.18424 -0.01800
C 	C 	0.59545 0.92753 0.18532 -0.11900
C 	C 	0.57909 0.91766 0.23938 0.10300
C 	C 	0.57706 0.94049 0.28717 -0.09100
H 	H 	0.62889 0.96415 0.14478 0.04600
H 	H 	0.56266 0.93362 0.32679 0.05900
N 	N 	0.63360 0.01008 0.23280 -0.13500
N 	N 	0.56655 0.88383 0.24811 -0.14700
C 	C 	0.62313 0.03369 0.18544 -0.09200
H 	H 	0.63234 0.02513 0.14077 0.04700
H 	H 	0.63424 0.05887 0.19474 0.05100
H 	H 	0.59520 0.03650 0.18398 0.04500
C 	C 	0.59390 0.85910 0.25279 -0.08900
H 	H 	0.60689 0.85590 0.20889 0.06100
H 	H 	0.58320 0.83432 0.26640 0.05300
H 	H 	0.61248 0.86688 0.28762 0.05500
H 	H 	0.65908 0.00366 0.22760 0.08100
H 	H 	0.54825 0.87692 0.21668 0.08600
C 	C 	0.28103 0.08020 0.06119 0.03600
N 	N 	0.25867 0.09988 0.03080 -0.05900
N 	N 	0.22556 0.09466 0.03657 -0.08400
C 	C 	0.21388 0.06954 0.07280 0.11100
N 	N 	0.23627 0.05029 0.10400 -0.08700
N 	N 	0.26934 0.05555 0.09829 -0.06600
C 	C 	0.40663 0.04297 0.73888 0.00300
C 	C 	0.37311 0.04041 0.76035 0.03500
C 	C 	0.36485 0.05365 0.81679 -0.01300
C 	C 	0.38953 0.06946 0.85219 -0.11200
C 	C 	0.42251 0.07363 0.82944 0.10200
C 	C 	0.43086 0.06039 0.77279 -0.09100
H 	H 	0.33928 0.05103 0.83363 0.04900
H 	H 	0.45655 0.06253 0.75629 0.05300
N 	N 	0.34725 0.02400 0.72547 -0.13600
N 	N 	0.44786 0.09036 0.86496 -0.14100
C 	C 	0.33376 0.04674 0.67938 -0.09300
H 	H 	0.32338 0.06999 0.70036 0.05700
H 	H 	0.31288 0.03390 0.65519 0.05100
H 	H 	0.35354 0.05367 0.64610 0.05300
C 	C 	0.46873 0.06571 0.89707 -0.08200
H 	H 	0.45288 0.04968 0.92700 0.02300
H 	H 	0.48731 0.07926 0.92557 0.04800
H 	H 	0.48279 0.04951 0.86495 0.03600
H 	H 	0.35578 0.00139 0.70659 0.07800
H 	H 	0.46298 0.10583 0.83778 0.08500
C 	C 	0.46367 0.09524 0.27725 0.00800
C 	C 	0.46007 0.12459 0.24200 0.03800
C 	C 	0.44073 0.12355 0.18897 -0.01100
C 	C 	0.42597 0.09318 0.17006 -0.11100
C 	C 	0.42903 0.06399 0.20605 0.10500
C 	C 	0.44740 0.06536 0.26000 -0.09100
H 	H 	0.43804 0.14616 0.16174 0.04800
H 	H 	0.44982 0.04286 0.28759 0.05400
N 	N 	0.47609 0.15553 0.26025 -0.13400
N 	N 	0.41255 0.03314 0.18852 -0.15600
C 	C 	0.50669 0.16170 0.22495 -0.09300
H 	H 	0.52458 0.14020 0.22944 0.05300
H 	H 	0.51945 0.18470 0.24208 0.05300
H 	H 	0.50044 0.16577 0.17669 0.05300
C 	C 	0.43715 0.00825 0.16741 -0.09000
H 	H 	0.45306 0.01896 0.13080 0.03500
H 	H 	0.42350 0.98605 0.14915 0.01600
H 	H 	0.45357 0.99953 0.20497 0.03800
H 	H 	0.45933 0.17582 0.25576 0.08200
H 	H 	0.39860 0.02331 0.22455 0.07500
C 	C 	0.41539 0.21756 0.00060 0.04000
N 	N 	0.44883 0.22515 0.99996 -0.06100
N 	N 	0.45906 0.25650 0.98764 -0.08400
C 	C 	0.43611 0.28108 0.97542 0.11400
N 	N 	0.40267 0.27346 0.97619 -0.08200
N 	N 	0.39246 0.24217 0.98879 -0.05700
C 	C 	0.20997 0.58768 0.92010 0.03900
N 	N 	0.23381 0.61211 0.92588 -0.06000
N 	N 	0.26651 0.60404 0.92582 -0.08400
C 	C 	0.27624 0.57133 0.91967 0.11100
N 	N 	0.25235 0.54693 0.91427 -0.08500
N 	N 	0.21970 0.55499 0.91456 -0.06400
C 	C 	0.71780 0.42996 0.98475 0.11200
N 	N 	0.72827 0.40085 0.95862 -0.08300
N 	N 	0.76099 0.39290 0.95772 -0.05900
C 	C 	0.78410 0.41375 0.98330 0.03600
N 	N 	0.77346 0.44225 0.01126 -0.07100
N 	N 	0.74079 0.45035 0.01164 -0.08900
C 	C 	0.54568 0.72526 0.01346 0.11100
N 	N 	0.57684 0.73656 0.02920 -0.08500
N 	N 	0.58238 0.76948 0.03671 -0.06100
C 	C 	0.55697 0.79203 0.02836 0.03300
N 	N 	0.52573 0.78070 0.01334 -0.07000
N 	N 	0.52014 0.74778 0.00615 -0.08900
