data_crystal

_cell_length_a 23.18431
_cell_length_b 20.46472
_cell_length_c 49.51671
_cell_angle_alpha 89.85163
_cell_angle_beta  89.85524
_cell_angle_gamma 119.75664

_symmetry_space_group_name_	'P 1'
_symmetry_space_group_name_H-M	'P 1'

loop_
_symmetry_equiv_pos_as_xyz
  x,y,z

loop_
_atom_site_label
_atom_site_type_symbol
_atom_site_fract_x
_atom_site_fract_y
_atom_site_fract_z
_atom_site_charge
C 	C 	0.84780 0.44773 0.93305 0.33200
C 	C 	0.58145 0.28045 0.88024 0.30000
C 	C 	0.72319 0.49465 0.91801 0.30000
C 	C 	0.70718 0.21324 0.88640 0.28100
C 	C 	0.57441 0.30077 0.96912 0.34600
C 	C 	0.69477 0.22624 0.97577 0.32200
Ni	Ni	0.72666 0.36796 0.89355 1.11400
Ni	Ni	0.61782 0.22663 0.92863 1.12700
Ni	Ni	0.71601 0.37979 0.95846 1.12900
O 	O 	0.82228 0.44589 0.90858 -0.36600
O 	O 	0.81112 0.40636 0.95353 -0.35800
O 	O 	0.56969 0.23685 0.96124 -0.35400
O 	O 	0.64148 0.30421 0.87058 -0.37000
O 	O 	0.56934 0.26620 0.90605 -0.36800
O 	O 	0.69715 0.29048 0.98337 -0.34400
O 	O 	0.68885 0.43723 0.90259 -0.37400
O 	O 	0.74398 0.48402 0.94157 -0.33900
O 	O 	0.66218 0.18918 0.95382 -0.35900
O 	O 	0.75075 0.28610 0.88430 -0.35600
O 	O 	0.64516 0.18886 0.89506 -0.35800
O 	O 	0.62481 0.36516 0.96159 -0.37100
O 	O 	0.69895 0.31990 0.92712 -0.71900
H 	H 	0.73141 0.30263 0.92959 0.17400
C 	C 	0.64737 0.49667 0.55782 0.33400
C 	C 	0.78983 0.33195 0.59181 0.30000
C 	C 	0.81396 0.53501 0.54759 0.30600
C 	C 	0.61074 0.27972 0.60724 0.27500
C 	C 	0.74552 0.32379 0.50278 0.35100
C 	C 	0.56671 0.25478 0.52126 0.33100
Ni	Ni	0.72311 0.42613 0.58740 1.11500
Ni	Ni	0.67542 0.26881 0.55557 1.12500
Ni	Ni	0.68895 0.41082 0.52356 1.13400
O 	O 	0.69024 0.50321 0.57717 -0.35600
O 	O 	0.62760 0.44434 0.53896 -0.35200
O 	O 	0.70453 0.26391 0.51705 -0.35000
O 	O 	0.76498 0.36718 0.60556 -0.36500
O 	O 	0.77098 0.31093 0.56693 -0.36500
O 	O 	0.61234 0.31464 0.50749 -0.34200
O 	O 	0.80938 0.48545 0.56528 -0.37100
O 	O 	0.76425 0.51800 0.53102 -0.34100
O 	O 	0.58285 0.22560 0.54185 -0.37300
O 	O 	0.63919 0.35403 0.60954 -0.34900
O 	O 	0.64188 0.24785 0.59494 -0.36000
O 	O 	0.75961 0.39077 0.51053 -0.37000
O 	O 	0.68032 0.36443 0.55759 -0.71700
H 	H 	0.63367 0.34892 0.56170 0.17100
C 	C 	0.99990 0.11094 0.70584 0.26400
C 	C 	0.95605 0.84566 0.76887 0.28300
C 	C 	0.97996 0.06567 0.78055 0.27700
C 	C 	0.97199 0.88202 0.68979 0.27300
C 	C 	0.16200 0.04174 0.77619 0.28700
C 	C 	0.18118 0.06715 0.70527 0.27000
Ni	Ni	0.94578 0.95971 0.73518 1.11500
Ni	Ni	0.07408 0.93597 0.73380 1.12400
Ni	Ni	0.09469 0.10088 0.74362 1.12200
O 	O 	0.95162 0.05983 0.72139 -0.37400
O 	O 	0.06366 0.13838 0.71194 -0.35900
O 	O 	0.15348 0.99011 0.75831 -0.36800
O 	O 	0.92160 0.85370 0.74952 -0.36800
O 	O 	0.02130 0.88036 0.76732 -0.36000
O 	O 	0.17632 0.11392 0.72288 -0.37300
O 	O 	0.95585 0.99467 0.77483 -0.36500
O 	O 	0.02889 0.11771 0.76599 -0.35800
O 	O 	0.13497 0.99494 0.70317 -0.37000
O 	O 	0.93706 0.91460 0.69696 -0.36600
O 	O 	0.00168 0.86193 0.70838 -0.36000
O 	O 	0.12101 0.06845 0.77729 -0.38600
O 	O 	0.03802 0.00152 0.73130 -0.72000
H 	H 	0.04293 0.01208 0.71176 0.15600
C 	C 	0.42162 0.81571 0.39695 0.28400
C 	C 	0.23467 0.50689 0.42910 0.30300
C 	C 	0.27666 0.67544 0.36384 0.30400
C 	C 	0.37415 0.65058 0.47282 0.33100
C 	C 	0.13687 0.63109 0.42752 0.35600
C 	C 	0.26733 0.79573 0.46754 0.33500
Ni	Ni	0.34652 0.65416 0.41139 1.11500
Ni	Ni	0.24424 0.63637 0.45948 1.13000
Ni	Ni	0.27173 0.75162 0.41160 1.12500
O 	O 	0.42397 0.76314 0.41154 -0.36000
O 	O 	0.36422 0.81595 0.39278 -0.35600
O 	O 	0.16076 0.59099 0.43806 -0.38000
O 	O 	0.26360 0.54895 0.40795 -0.36400
O 	O 	0.24278 0.53713 0.45313 -0.34700
O 	O 	0.29658 0.81919 0.44363 -0.36000
O 	O 	0.33145 0.67585 0.37095 -0.36600
O 	O 	0.23691 0.67342 0.38259 -0.37400
O 	O 	0.23220 0.72263 0.47416 -0.34400
O 	O 	0.37450 0.62441 0.44805 -0.34800
O 	O 	0.32754 0.66625 0.48077 -0.34800
O 	O 	0.17524 0.70414 0.42361 -0.35600
O 	O 	0.30190 0.69463 0.43093 -0.72100
H 	H 	0.33837 0.73488 0.44133 0.18100
C 	C 	0.37547 0.52085 0.07567 0.33200
C 	C 	0.24605 0.68972 0.12034 0.30100
C 	C 	0.20786 0.48220 0.07824 0.30100
C 	C 	0.42857 0.74654 0.12428 0.27800
C 	C 	0.25751 0.68664 0.03016 0.35800
C 	C 	0.44085 0.76204 0.03577 0.32700
Ni	Ni	0.31255 0.59699 0.11141 1.11400
Ni	Ni	0.34608 0.74824 0.07782 1.12700
Ni	Ni	0.32206 0.60288 0.04587 1.13100
O 	O 	0.34256 0.51908 0.09831 -0.36100
O 	O 	0.38761 0.56995 0.05601 -0.35200
O 	O 	0.30439 0.74786 0.04173 -0.35500
O 	O 	0.27594 0.65758 0.13255 -0.36200
O 	O 	0.25503 0.70406 0.09449 -0.36400
O 	O 	0.39289 0.69704 0.02523 -0.33600
O 	O 	0.21911 0.53481 0.09544 -0.37100
O 	O 	0.24969 0.49663 0.05799 -0.33800
O 	O 	0.43301 0.78931 0.05885 -0.36900
O 	O 	0.40319 0.67307 0.12786 -0.35400
O 	O 	0.39165 0.77469 0.11483 -0.36000
O 	O 	0.24729 0.62036 0.03715 -0.37500
O 	O 	0.34344 0.65385 0.07934 -0.71700
H 	H 	0.39110 0.66983 0.08015 0.17200
C 	C 	0.06013 0.12257 0.29804 0.28100
C 	C 	0.98694 0.87889 0.22204 0.27900
C 	C 	0.01485 0.10885 0.22042 0.30100
C 	C 	0.02996 0.88464 0.29218 0.29200
C 	C 	0.82250 0.92115 0.23866 0.30000
C 	C 	0.84449 0.93869 0.31022 0.30300
Ni	Ni	0.05210 0.01621 0.25506 1.10800
Ni	Ni	0.90526 0.87488 0.27028 1.12200
Ni	Ni	0.93017 0.04458 0.26928 1.11400
O 	O 	0.08956 0.08567 0.28863 -0.36900
O 	O 	0.01755 0.13192 0.28288 -0.36700
O 	O 	0.84621 0.87451 0.24034 -0.37900
O 	O 	0.01077 0.95185 0.22099 -0.36400
O 	O 	0.94773 0.83888 0.24214 -0.36800
O 	O 	0.89443 0.00811 0.30654 -0.40200
O 	O 	0.06258 0.11080 0.23508 -0.37500
O 	O 	0.95382 0.07708 0.22994 -0.38900
O 	O 	0.84658 0.87855 0.30080 -0.36700
O 	O 	0.06241 0.92831 0.27127 -0.36900
O 	O 	0.96579 0.86127 0.29690 -0.36900
O 	O 	0.83757 0.97398 0.25670 -0.38900
O 	O 	0.96729 0.97996 0.27029 -0.71200
H 	H 	0.97844 0.98338 0.28961 0.15700
C 	C 	0.00995 0.31358 0.12924 -0.00100
C 	C 	0.98448 0.26368 0.15119 -0.07500
C 	C 	0.01709 0.22542 0.16030 0.05700
C 	C 	0.07371 0.23441 0.14630 -0.02000
C 	C 	0.09958 0.28504 0.12432 0.00600
C 	C 	0.06863 0.32627 0.11624 0.01100
C 	C 	0.15918 0.29854 0.11176 0.02300
C 	C 	0.18966 0.25707 0.11983 -0.03300
C 	C 	0.16344 0.20597 0.14136 -0.03900
C 	C 	0.10670 0.19613 0.15523 0.02900
C 	C 	0.08456 0.15141 0.17864 -0.03000
C 	C 	0.03084 0.14625 0.19365 -0.04000
C 	C 	0.99571 0.18111 0.18393 -0.05400
C 	C 	0.09966 0.38393 0.09685 -0.01400
C 	C 	0.16318 0.40369 0.08685 -0.04600
C 	C 	0.19063 0.35772 0.09305 -0.02000
H 	H 	0.98516 0.34411 0.12293 0.04200
H 	H 	0.94026 0.25617 0.16148 0.05800
H 	H 	0.23476 0.26592 0.10992 0.05900
H 	H 	0.18842 0.17571 0.14773 0.04900
H 	H 	0.11027 0.12246 0.18564 0.04400
H 	H 	0.95363 0.17624 0.19525 0.05600
H 	H 	0.07770 0.41834 0.09163 0.06400
H 	H 	0.23993 0.37342 0.08591 0.07000
C 	C 	0.66153 0.81773 0.13282 -0.03400
C 	C 	0.71564 0.83720 0.14990 -0.02800
C 	C 	0.71573 0.86303 0.17616 0.02100
C 	C 	0.66212 0.87201 0.18495 0.00000
C 	C 	0.60793 0.85288 0.16773 -0.00700
C 	C 	0.60689 0.82383 0.14183 0.03800
C 	C 	0.55306 0.85886 0.17694 0.02800
C 	C 	0.55404 0.88687 0.20289 -0.03900
C 	C 	0.60791 0.90588 0.22001 -0.03600
C 	C 	0.66162 0.89756 0.21132 0.01900
C 	C 	0.71412 0.91310 0.22883 -0.02100
C 	C 	0.76716 0.90330 0.22024 -0.05600
C 	C 	0.76810 0.87872 0.19389 -0.01800
C 	C 	0.54957 0.79669 0.12603 -0.02300
C 	C 	0.49315 0.79700 0.13614 -0.03800
C 	C 	0.49623 0.83200 0.16082 -0.02200
H 	H 	0.66152 0.79639 0.11281 0.07600
H 	H 	0.75695 0.83103 0.14283 0.05800
H 	H 	0.51240 0.89228 0.21006 0.04900
H 	H 	0.60736 0.92597 0.24020 0.04600
H 	H 	0.71350 0.93207 0.24921 0.04900
H 	H 	0.80957 0.87218 0.18722 0.05500
H 	H 	0.54706 0.77042 0.10674 0.07300
H 	H 	0.45266 0.83300 0.16833 0.05500
C 	C 	0.15659 0.86235 0.12865 -0.03100
C 	C 	0.11752 0.88655 0.14215 -0.03400
C 	C 	0.08586 0.85241 0.16657 0.02600
C 	C 	0.09311 0.79297 0.17737 -0.00500
C 	C 	0.13219 0.76835 0.16369 -0.00300
C 	C 	0.16425 0.80344 0.13933 0.02800
C 	C 	0.13949 0.70890 0.17446 0.02200
C 	C 	0.10818 0.67509 0.19899 -0.03700
C 	C 	0.06991 0.70009 0.21272 -0.03700
C 	C 	0.06206 0.75887 0.20200 0.02300
C 	C 	0.02470 0.78491 0.21589 -0.02400
C 	C 	0.01851 0.84529 0.20548 -0.04200
C 	C 	0.04817 0.87795 0.18059 -0.02900
C 	C 	0.20337 0.77916 0.12587 -0.01600
C 	C 	0.20920 0.71844 0.13606 -0.05000
C 	C 	0.17778 0.68389 0.16051 -0.02000
H 	H 	0.18086 0.88943 0.10986 0.06400
H 	H 	0.11225 0.93220 0.13368 0.05700
H 	H 	0.11361 0.62959 0.20750 0.04600
H 	H 	0.04656 0.67387 0.23175 0.04600
H 	H 	0.00235 0.75999 0.23522 0.05700
H 	H 	0.04300 0.92406 0.17245 0.05700
H 	H 	0.22910 0.80721 0.10740 0.06200
H 	H 	0.18231 0.63716 0.16841 0.05100
C 	C 	0.54193 0.82172 0.31573 -0.04300
C 	C 	0.60184 0.83262 0.30478 -0.03500
C 	C 	0.66186 0.87608 0.31858 0.01500
C 	C 	0.66203 0.91188 0.34291 0.00500
C 	C 	0.60153 0.90079 0.35397 -0.01000
C 	C 	0.54120 0.85408 0.34065 0.02800
C 	C 	0.60110 0.93307 0.37905 0.03100
C 	C 	0.66157 0.97955 0.39220 -0.02500
C 	C 	0.72178 0.99152 0.38102 -0.01300
C 	C 	0.72230 0.95682 0.35662 0.01000
C 	C 	0.78218 0.96549 0.34595 0.00400
C 	C 	0.78168 0.92784 0.32212 -0.06100
C 	C 	0.72147 0.88328 0.30854 -0.01600
C 	C 	0.48061 0.83563 0.35329 -0.03300
C 	C 	0.47963 0.86190 0.37945 -0.03900
C 	C 	0.54000 0.91440 0.39150 -0.02200
H 	H 	0.49591 0.78670 0.30510 0.04700
H 	H 	0.60139 0.80640 0.28573 0.04400
H 	H 	0.66196 0.00536 0.41133 0.05400
H 	H 	0.76781 0.02681 0.39160 0.04300
H 	H 	0.82874 0.00057 0.35627 0.03700
H 	H 	0.72124 0.85502 0.28999 0.04800
H 	H 	0.43458 0.79386 0.34420 0.05200
H 	H 	0.53948 0.93536 0.41154 0.07200
C 	C 	0.03696 0.29141 0.39648 -0.04200
C 	C 	0.01300 0.23917 0.37543 -0.00900
C 	C 	0.05530 0.21837 0.36236 0.01000
C 	C 	0.12035 0.24526 0.37204 0.00800
C 	C 	0.14422 0.29728 0.39340 -0.01000
C 	C 	0.10348 0.32355 0.40461 0.04300
C 	C 	0.21094 0.32890 0.40162 0.03400
C 	C 	0.25154 0.30332 0.39010 -0.03800
C 	C 	0.22789 0.25176 0.36882 -0.03000
C 	C 	0.16325 0.22487 0.35897 0.01700
C 	C 	0.14240 0.18181 0.33531 -0.01700
C 	C 	0.07928 0.15965 0.32456 -0.05800
C 	C 	0.03479 0.17488 0.33884 -0.00500
C 	C 	0.13177 0.38697 0.42140 -0.02100
C 	C 	0.20044 0.42521 0.42609 -0.03500
C 	C 	0.23807 0.39133 0.41884 -0.02000
H 	H 	0.00450 0.30889 0.40577 0.08300
H 	H 	0.96225 0.21698 0.36866 0.04400
H 	H 	0.30238 0.32588 0.39678 0.05900
H 	H 	0.26064 0.23481 0.35941 0.05000
H 	H 	0.17612 0.16835 0.32468 0.05100
H 	H 	0.98505 0.15493 0.33115 0.03800
H 	H 	0.10229 0.41189 0.42793 0.07600
H 	H 	0.29058 0.41931 0.42366 0.06400
C 	C 	0.10674 0.63889 0.30457 -0.03300
C 	C 	0.06331 0.66714 0.30028 -0.03100
C 	C 	0.08395 0.74308 0.30566 0.01800
C 	C 	0.14949 0.79146 0.31440 0.00100
C 	C 	0.19377 0.76361 0.31777 -0.00800
C 	C 	0.17150 0.68643 0.31405 0.02900
C 	C 	0.25917 0.81187 0.32665 0.02300
C 	C 	0.28076 0.88836 0.33105 -0.04200
C 	C 	0.23649 0.91578 0.32813 -0.03300
C 	C 	0.17053 0.86741 0.32018 0.02200
C 	C 	0.12608 0.89472 0.31708 -0.01800
C 	C 	0.06240 0.84843 0.30638 -0.05000
C 	C 	0.04050 0.77177 0.30173 -0.00700
C 	C 	0.21192 0.65682 0.32261 -0.01800
C 	C 	0.27041 0.70284 0.33713 -0.05900
C 	C 	0.29931 0.78118 0.33395 -0.03600
H 	H 	0.08936 0.57970 0.30120 0.05800
H 	H 	0.01341 0.62968 0.29313 0.05200
H 	H 	0.33109 0.92605 0.33769 0.05500
H 	H 	0.25348 0.97459 0.33217 0.05400
H 	H 	0.14281 0.95370 0.32081 0.05100
H 	H 	0.99151 0.73601 0.29334 0.04000
H 	H 	0.19266 0.59651 0.32217 0.05800
H 	H 	0.34850 0.81779 0.34174 0.05300
C 	C 	0.26452 0.85160 0.48530 -0.10200
C 	C 	0.30111 0.87205 0.50941 0.12300
C 	C 	0.32988 0.94680 0.51850 0.06500
C 	C 	0.32173 0.99982 0.50323 0.03000
C 	C 	0.27096 0.97393 0.48389 0.07600
C 	C 	0.24258 0.89948 0.47461 0.12600
C 	C 	0.37806 0.07749 0.50097 0.00100
C 	C 	0.38280 0.13395 0.51849 0.07200
C 	C 	0.44450 0.19992 0.52194 0.11400
C 	C 	0.50158 0.20716 0.50897 -0.10400
C 	C 	0.49490 0.15399 0.48937 0.12300
C 	C 	0.43226 0.09177 0.48425 0.06800
Br	Br	0.24787 0.04327 0.46750 -0.16000
Br	Br	0.31629 0.79988 0.52849 -0.15500
Br	Br	0.45244 0.27745 0.54621 -0.17000
Br	Br	0.42160 0.02292 0.45559 -0.17400
Br	Br	0.18032 0.86608 0.44519 -0.15800
Br	Br	0.38735 0.97916 0.54949 -0.16300
Br	Br	0.30583 0.11938 0.53846 -0.16600
Br	Br	0.57263 0.15810 0.47348 -0.15300
C 	C 	0.06467 0.59506 0.42391 -0.12300
C 	C 	0.02571 0.59702 0.44541 0.13600
C 	C 	0.96172 0.53561 0.44990 0.05100
C 	C 	0.93721 0.47213 0.43299 0.02200
C 	C 	0.97166 0.47562 0.40914 0.05400
C 	C 	0.03472 0.53835 0.40424 0.13600
C 	C 	0.87805 0.40087 0.44135 0.01300
C 	C 	0.88478 0.35413 0.46053 0.06600
C 	C 	0.83158 0.31023 0.47819 0.12500
C 	C 	0.77394 0.31648 0.47718 -0.11000
C 	C 	0.76189 0.34689 0.45363 0.12200
C 	C 	0.81448 0.38964 0.43567 0.06900
Br	Br	0.93366 0.39343 0.38385 -0.18600
Br	Br	0.06334 0.67881 0.47079 -0.15100
Br	Br	0.84081 0.25037 0.50607 -0.17900
Br	Br	0.80183 0.44063 0.40542 -0.15200
Br	Br	0.08304 0.54320 0.37197 -0.20000
Br	Br	0.90884 0.53681 0.47987 -0.16000
Br	Br	0.96833 0.35625 0.46419 -0.18800
Br	Br	0.67780 0.34255 0.44878 -0.16600
C 	C 	0.41604 0.64435 0.49376 -0.10900
C 	C 	0.40517 0.57288 0.50169 0.12600
C 	C 	0.44751 0.56719 0.52057 0.06200
C 	C 	0.49971 0.63278 0.53207 0.01800
C 	C 	0.50388 0.70281 0.52726 0.07100
C 	C 	0.46390 0.70922 0.50726 0.12400
C 	C 	0.55748 0.63003 0.54328 0.01600
C 	C 	0.55395 0.60124 0.56944 0.06700
C 	C 	0.58923 0.56334 0.57542 0.12400
C 	C 	0.62807 0.55516 0.55514 -0.11400
C 	C 	0.63929 0.59487 0.53042 0.12000
C 	C 	0.60698 0.63612 0.52544 0.06200
Br	Br	0.56665 0.79008 0.54713 -0.14500
Br	Br	0.33141 0.48269 0.48726 -0.16800
Br	Br	0.57920 0.51668 0.61030 -0.18300
Br	Br	0.62498 0.69438 0.49264 -0.15600
Br	Br	0.47755 0.80700 0.49712 -0.15200
Br	Br	0.43688 0.46982 0.52939 -0.13500
Br	Br	0.49669 0.60840 0.59606 -0.14900
Br	Br	0.69179 0.58568 0.50198 -0.18900
C 	C 	0.88275 0.10644 0.62282 -0.03800
C 	C 	0.85297 0.13771 0.60675 -0.03400
C 	C 	0.86005 0.20813 0.61322 0.02300
C 	C 	0.89916 0.24852 0.63550 0.00000
C 	C 	0.92966 0.21736 0.65153 -0.01200
C 	C 	0.92030 0.14539 0.64547 0.02700
C 	C 	0.96753 0.25696 0.67420 0.03400
C 	C 	0.97595 0.32819 0.68028 -0.05800
C 	C 	0.94528 0.35893 0.66445 -0.02900
C 	C 	0.90600 0.31895 0.64229 0.01600
C 	C 	0.87198 0.34748 0.62729 -0.01800
C 	C 	0.83118 0.30607 0.60565 -0.05200
C 	C 	0.82676 0.23743 0.59823 -0.01700
C 	C 	0.94663 0.11224 0.66266 -0.03300
C 	C 	0.98241 0.15060 0.68569 -0.04000
C 	C 	0.99435 0.22360 0.69105 -0.04200
H 	H 	0.87584 0.05147 0.61783 0.04800
H 	H 	0.82350 0.10657 0.58951 0.05700
H 	H 	0.00538 0.35931 0.69753 0.06000
H 	H 	0.95140 0.41342 0.66967 0.04200
H 	H 	0.87639 0.40113 0.63267 0.04800
H 	H 	0.79556 0.20565 0.58143 0.05700
H 	H 	0.93776 0.05589 0.65860 0.04300
H 	H 	0.02197 0.25290 0.70892 0.06200
C 	C 	0.42595 0.20705 0.70548 -0.03800
C 	C 	0.48681 0.23350 0.69211 -0.03800
C 	C 	0.48855 0.21586 0.66483 0.02700
C 	C 	0.42868 0.16918 0.65114 -0.00600
C 	C 	0.36734 0.14244 0.66463 -0.00100
C 	C 	0.36603 0.16253 0.69176 0.02200
C 	C 	0.30734 0.09702 0.65081 0.02300
C 	C 	0.30920 0.07783 0.62371 -0.02700
C 	C 	0.37017 0.10483 0.61027 -0.03300
C 	C 	0.43005 0.15127 0.62374 0.03700
C 	C 	0.49111 0.18256 0.60987 -0.02500
C 	C 	0.55032 0.23255 0.62311 -0.03700
C 	C 	0.54915 0.24686 0.65077 -0.02200
C 	C 	0.30491 0.13866 0.70474 -0.02600
C 	C 	0.24499 0.09361 0.69104 -0.04600
C 	C 	0.24628 0.07218 0.66418 -0.02500
H 	H 	0.42544 0.22181 0.72646 0.04500
H 	H 	0.53258 0.26865 0.70288 0.04600
H 	H 	0.26346 0.04264 0.61294 0.05900
H 	H 	0.37072 0.09029 0.58930 0.07800
H 	H 	0.49221 0.17128 0.58853 0.06800
H 	H 	0.59509 0.28479 0.66100 0.05300
H 	H 	0.30387 0.15478 0.72550 0.05000
H 	H 	0.20000 0.03717 0.65367 0.05200
C 	C 	0.85676 0.81466 0.60230 -0.02900
C 	C 	0.83665 0.76752 0.57975 -0.03700
C 	C 	0.86719 0.72475 0.57370 0.03200
C 	C 	0.92242 0.73487 0.58888 -0.01000
C 	C 	0.94227 0.78177 0.61171 0.00900
C 	C 	0.90746 0.81931 0.61906 0.01300
C 	C 	0.99308 0.78592 0.62848 -0.00900
C 	C 	0.02750 0.74837 0.62099 -0.01600
C 	C 	0.00761 0.70155 0.59833 -0.03100
C 	C 	0.95301 0.69170 0.58298 0.02100
C 	C 	0.92370 0.63326 0.56409 -0.01900
C 	C 	0.86187 0.61463 0.55282 -0.04100
C 	C 	0.83845 0.66593 0.55500 -0.02300
C 	C 	0.92039 0.85633 0.64395 -0.01500
C 	C 	0.96652 0.85428 0.66186 -0.06700
C 	C 	0.00557 0.82303 0.65336 0.00800
H 	H 	0.83103 0.84508 0.60735 0.05200
H 	H 	0.79524 0.76155 0.56778 0.06300
H 	H 	0.06794 0.75300 0.63330 0.04700
H 	H 	0.03267 0.67025 0.59349 0.05900
H 	H 	0.94425 0.59643 0.56086 0.06400
H 	H 	0.79290 0.65424 0.54499 0.07600
H 	H 	0.89246 0.88362 0.64988 0.05300
H 	H 	0.04379 0.82511 0.66651 0.04400
C 	C 	0.21324 0.69147 0.01025 -0.11600
C 	C 	0.22266 0.68323 0.98249 0.13000
C 	C 	0.17082 0.66628 0.96435 0.06900
C 	C 	0.10584 0.63714 0.97432 0.02100
C 	C 	0.09595 0.64312 0.00217 0.06400
C 	C 	0.15120 0.67963 0.01912 0.13100
C 	C 	0.04828 0.59718 0.95613 0.01100
C 	C 	0.00348 0.62387 0.95334 0.07700
C 	C 	0.93625 0.57210 0.95010 0.10000
C 	C 	0.91807 0.50194 0.93817 -0.11200
C 	C 	0.96622 0.47950 0.93536 0.11100
C 	C 	0.02984 0.52428 0.94657 0.07800
Br	Br	0.00805 0.59114 0.01782 -0.13500
Br	Br	0.29758 0.67448 0.97048 -0.15400
Br	Br	0.87328 0.58529 0.97149 -0.17700
Br	Br	0.08754 0.48254 0.95174 -0.13800
Br	Br	0.14102 0.70778 0.05513 -0.17500
Br	Br	0.18846 0.68131 0.92615 -0.14500
Br	Br	0.03245 0.72899 0.95794 -0.15300
Br	Br	0.94385 0.38596 0.91780 -0.17300
C 	C 	0.71441 0.18540 0.99494 -0.10000
C 	C 	0.74242 0.14408 0.98406 0.11800
C 	C 	0.71375 0.06694 0.99035 0.07300
C 	C 	0.66344 0.03533 0.01025 0.00400
C 	C 	0.65266 0.08410 0.02699 0.07000
C 	C 	0.67993 0.16041 0.01954 0.12500
C 	C 	0.61173 0.95449 0.00878 0.02800
C 	C 	0.55174 0.93402 0.99540 0.07700
C 	C 	0.49417 0.86626 0.00219 0.12200
C 	C 	0.49879 0.81328 0.01909 -0.09800
C 	C 	0.56213 0.82726 0.02722 0.11800
C 	C 	0.61788 0.89974 0.02384 0.07000
Br	Br	0.59618 0.04492 0.05831 -0.16400
Br	Br	0.81439 0.19142 0.95860 -0.17900
Br	Br	0.40879 0.85415 0.99316 -0.13500
Br	Br	0.70038 0.92558 0.04152 -0.14500
Br	Br	0.67540 0.23121 0.04361 -0.14400
Br	Br	0.73688 0.00360 0.96972 -0.16900
Br	Br	0.54755 0.00120 0.96910 -0.17500
Br	Br	0.57094 0.74897 0.04506 -0.16900
C 	C 	0.52406 0.30116 0.98730 -0.11700
C 	C 	0.50528 0.35590 0.98305 0.13000
C 	C 	0.48773 0.38540 0.00507 0.06200
C 	C 	0.47829 0.35172 0.03081 0.01800
C 	C 	0.48803 0.28946 0.03430 0.07000
C 	C 	0.50927 0.26285 0.01232 0.12400
C 	C 	0.44657 0.37301 0.05243 0.01800
C 	C 	0.48586 0.43468 0.06928 0.06700
C 	C 	0.45896 0.47793 0.07994 0.12500
C 	C 	0.39547 0.46334 0.07155 -0.11200
C 	C 	0.35679 0.39994 0.05505 0.11500
C 	C 	0.37881 0.34869 0.05024 0.06300
Br	Br	0.47273 0.24126 0.06915 -0.14600
Br	Br	0.50298 0.38950 0.94686 -0.17500
Br	Br	0.51082 0.56068 0.10387 -0.18100
Br	Br	0.31930 0.25114 0.03546 -0.15900
Br	Br	0.51054 0.16973 0.01563 -0.13600
Br	Br	0.47935 0.47395 0.00026 -0.13900
Br	Br	0.57704 0.46285 0.07591 -0.14400
Br	Br	0.29047 0.39763 0.03122 -0.17700
C 	C 	0.81697 0.15151 0.78503 -0.03900
C 	C 	0.77039 0.16202 0.79953 -0.04000
C 	C 	0.76211 0.14734 0.82741 0.02500
C 	C 	0.79881 0.11868 0.84058 -0.00800
C 	C 	0.84506 0.10713 0.82591 -0.00300
C 	C 	0.85515 0.12516 0.79816 0.02000
C 	C 	0.88228 0.07916 0.83911 0.02100
C 	C 	0.87268 0.06261 0.86688 -0.03000
C 	C 	0.82784 0.07588 0.88160 -0.03700
C 	C 	0.79161 0.10517 0.86868 0.03600
C 	C 	0.75180 0.12595 0.88370 -0.02600
C 	C 	0.72113 0.16192 0.87090 -0.03600
C 	C 	0.72160 0.16640 0.84261 -0.02500
C 	C 	0.90302 0.11631 0.78387 -0.02800
C 	C 	0.93910 0.08698 0.79680 -0.05300
C 	C 	0.92864 0.06824 0.82436 -0.02400
H 	H 	0.82371 0.16446 0.76362 0.04400
H 	H 	0.74199 0.18345 0.78919 0.04400
H 	H 	0.90062 0.04053 0.87717 0.05400
H 	H 	0.82220 0.06461 0.90314 0.07300
H 	H 	0.74860 0.11924 0.90546 0.07500
H 	H 	0.69588 0.19198 0.83274 0.04800
H 	H 	0.91072 0.12979 0.76248 0.05100
H 	H 	0.95602 0.04463 0.83417 0.04900
C 	C 	0.29422 0.19557 0.85306 -0.03300
C 	C 	0.35467 0.23352 0.86681 -0.03600
C 	C 	0.41143 0.23405 0.85653 0.02800
C 	C 	0.40793 0.19817 0.83184 -0.00600
C 	C 	0.34712 0.15993 0.81802 -0.00400
C 	C 	0.28985 0.15788 0.82884 0.02200
C 	C 	0.34325 0.12244 0.79368 0.01900
C 	C 	0.40059 0.12536 0.78289 -0.04000
C 	C 	0.46095 0.16298 0.79670 -0.03900
C 	C 	0.46474 0.19834 0.82142 0.02200
C 	C 	0.52370 0.23092 0.83644 -0.02400
C 	C 	0.52589 0.26244 0.86184 -0.05200
C 	C 	0.47076 0.26708 0.87121 -0.02300
C 	C 	0.22892 0.11777 0.81539 -0.02400
C 	C 	0.22489 0.07983 0.79125 -0.05600
C 	C 	0.28212 0.08208 0.78053 -0.02500
H 	H 	0.25068 0.19493 0.86141 0.05600
H 	H 	0.35705 0.26151 0.88567 0.06400
H 	H 	0.39832 0.09788 0.76391 0.04300
H 	H 	0.50451 0.16368 0.78834 0.04400
H 	H 	0.56657 0.22820 0.82906 0.05100
H 	H 	0.47325 0.29341 0.89048 0.07300
H 	H 	0.18477 0.11591 0.82369 0.05600
H 	H 	0.27918 0.05333 0.76178 0.04900
C 	C 	0.71973 0.65750 0.84680 -0.03600
C 	C 	0.75209 0.70181 0.82408 -0.03800
C 	C 	0.82089 0.73181 0.82056 0.02500
C 	C 	0.85773 0.71953 0.84053 -0.01000
C 	C 	0.82518 0.67523 0.86345 -0.00400
C 	C 	0.75573 0.64256 0.86627 0.02400
C 	C 	0.86152 0.65978 0.88267 0.02500
C 	C 	0.93064 0.69197 0.87969 -0.02700
C 	C 	0.96302 0.73635 0.85708 -0.05200
C 	C 	0.92672 0.74906 0.83713 0.03400
C 	C 	0.95837 0.78956 0.81361 -0.04200
C 	C 	0.92176 0.80114 0.79339 -0.04300
C 	C 	0.85303 0.77271 0.79708 -0.02800
C 	C 	0.72266 0.59114 0.88745 -0.02200
C 	C 	0.75821 0.56966 0.90495 -0.04500
C 	C 	0.82790 0.60754 0.90336 -0.02300
H 	H 	0.66644 0.63342 0.84891 0.05400
H 	H 	0.72341 0.71171 0.80903 0.04900
H 	H 	0.95912 0.68107 0.89456 0.06100
H 	H 	0.01620 0.75968 0.85486 0.06800
H 	H 	0.01132 0.81163 0.81098 0.07000
H 	H 	0.82467 0.78227 0.78175 0.05100
H 	H 	0.66888 0.56289 0.88885 0.06300
H 	H 	0.85513 0.58955 0.91590 0.07200
