data_crystal

_cell_length_a 20.16651
_cell_length_b 14.02309
_cell_length_c 44.15273
_cell_angle_alpha 89.61408
_cell_angle_beta  89.61736
_cell_angle_gamma 119.40855

_symmetry_space_group_name_	'P 1'
_symmetry_space_group_name_H-M	'P 1'

loop_
_symmetry_equiv_pos_as_xyz
  x,y,z

loop_
_atom_site_label
_atom_site_type_symbol
_atom_site_fract_x
_atom_site_fract_y
_atom_site_fract_z
_atom_site_charge
C 	C 	0.25646 0.39651 0.77448 0.28000
C 	C 	0.23787 0.17329 0.72105 0.31200
Ni	Ni	0.15406 0.14808 0.77823 1.10900
Ni	Ni	0.15361 0.29953 0.72240 1.12000
O 	O 	0.25500 0.30068 0.77749 -0.36700
O 	O 	0.22623 0.41885 0.75053 -0.36900
O 	O 	0.18630 0.10068 0.73912 -0.38600
O 	O 	0.24190 0.26867 0.71714 -0.38100
C 	C 	0.18397 0.33229 0.41899 0.28400
C 	C 	0.10262 0.50473 0.45769 0.31300
C 	C 	0.27132 0.79106 0.41143 0.30900
Ni	Ni	0.23906 0.48522 0.47419 1.11300
Ni	Ni	0.21286 0.55850 0.40744 1.12100
O 	O 	0.17124 0.34540 0.44801 -0.36400
O 	O 	0.20189 0.41091 0.39838 -0.37900
O 	O 	0.29922 0.63383 0.37637 -0.38300
O 	O 	0.15096 0.52031 0.47931 -0.37700
O 	O 	0.11279 0.47533 0.43066 -0.38300
O 	O 	0.21343 0.69627 0.41882 -0.40000
O 	O 	0.28019 0.56980 0.43862 -0.71400
H 	H 	0.30375 0.52990 0.42931 0.15400
C 	C 	0.16450 0.63416 0.00685 0.30900
C 	C 	0.17792 0.37607 0.96181 0.30400
C 	C 	0.22050 0.65680 0.91776 0.30700
Ni	Ni	0.30749 0.76299 0.97174 1.12100
Ni	Ni	0.31877 0.56945 0.93652 1.12100
O 	O 	0.27106 0.75146 0.92898 -0.38800
O 	O 	0.20522 0.60884 0.02466 -0.37600
O 	O 	0.19607 0.69924 0.98346 -0.38000
O 	O 	0.17474 0.44471 0.98058 -0.38900
O 	O 	0.23869 0.40814 0.94433 -0.37900
O 	O 	0.41583 0.84454 0.95688 -0.38100
O 	O 	0.23935 0.58132 0.91243 -0.38300
O 	O 	0.31242 0.63105 0.97416 -0.71500
C 	C 	0.01352 0.07362 0.14370 0.30500
C 	C 	0.03230 0.14293 0.23308 0.28700
C 	C 	0.94598 0.75917 0.16328 0.30600
C 	C 	0.97584 0.80729 0.25100 0.29000
Ni	Ni	0.02696 0.95892 0.19852 1.12300
O 	O 	0.00183 0.81118 0.18242 -0.38300
O 	O 	0.98826 0.12298 0.16185 -0.37200
O 	O 	0.03744 0.00853 0.15465 -0.38400
O 	O 	0.91511 0.74021 0.23483 -0.37400
O 	O 	0.02719 0.90533 0.24066 -0.38500
O 	O 	0.06973 0.11578 0.21323 -0.37200
C 	C 	0.09161 0.11441 0.00937 -0.00300
C 	C 	0.10326 0.08284 0.03814 -0.05700
C 	C 	0.05315 0.07243 0.06169 0.01800
C 	C 	0.99238 0.09214 0.05634 -0.00300
C 	C 	0.98600 0.13564 0.02859 -0.05800
C 	C 	0.03617 0.14620 0.00488 0.01600
S 	S 	0.16217 0.18641 0.98507 0.02200
C 	C 	0.12757 0.25914 0.96794 -0.08000
C 	C 	0.05511 0.22398 0.98096 -0.01700
S 	S 	0.96551 0.11875 0.08958 0.01700
C 	C 	0.02805 0.10588 0.11153 -0.07000
C 	C 	0.07250 0.07867 0.09271 -0.02000
H 	H 	0.15399 0.07728 0.04271 0.04700
H 	H 	0.02469 0.26899 0.97769 0.04400
H 	H 	0.11742 0.06454 0.10100 0.04600
C 	C 	0.97680 0.53767 0.05208 -0.00400
C 	C 	0.95054 0.52213 0.08207 -0.05300
C 	C 	0.93705 0.60160 0.09521 0.01600
C 	C 	0.94592 0.69212 0.07793 0.00000
C 	C 	0.97681 0.71132 0.04864 -0.05000
C 	C 	0.99380 0.63441 0.03593 0.01500
S 	S 	0.03676 0.49696 0.03992 0.02600
C 	C 	0.08421 0.59499 0.01408 -0.07600
C 	C 	0.05333 0.66517 0.01424 -0.01200
S 	S 	0.96339 0.79247 0.10186 0.03400
C 	C 	0.96179 0.72808 0.13390 -0.07800
C 	C 	0.94359 0.62123 0.12681 -0.01300
H 	H 	0.95019 0.45773 0.09591 0.04600
H 	H 	0.99604 0.79007 0.03765 0.05000
H 	H 	0.08175 0.74544 0.00352 0.04400
H 	H 	0.93935 0.56163 0.14356 0.04100
C 	C 	0.14579 0.12027 0.35871 0.00300
C 	C 	0.15926 0.12265 0.32740 -0.05400
C 	C 	0.09919 0.09972 0.30766 0.01900
C 	C 	0.02713 0.07386 0.31927 -0.00000
C 	C 	0.01556 0.08090 0.35024 -0.05200
C 	C 	0.07584 0.10531 0.37004 0.01300
S 	S 	0.21224 0.20123 0.38268 0.01600
C 	C 	0.15812 0.22184 0.40775 -0.06800
C 	C 	0.08269 0.15915 0.39798 -0.01900
C 	C 	0.04947 0.14646 0.26552 -0.07300
C 	C 	0.11091 0.13769 0.27708 -0.01800
H 	H 	0.21651 0.15243 0.31868 0.04800
H 	H 	0.03726 0.17150 0.40688 0.04400
H 	H 	0.16297 0.16124 0.26442 0.04400
C 	C 	0.15991 0.87981 0.35929 0.00100
C 	C 	0.08527 0.84856 0.35053 -0.05500
C 	C 	0.05938 0.79351 0.32307 0.02100
C 	C 	0.10488 0.76280 0.30634 -0.00300
C 	C 	0.18058 0.79894 0.31409 -0.05400
C 	C 	0.20699 0.85376 0.34161 0.01500
S 	S 	0.18621 0.88534 0.39504 0.02400
C 	C 	0.25866 0.86030 0.38994 -0.07800
C 	C 	0.26394 0.84685 0.35867 -0.02300
S 	S 	0.07225 0.73779 0.27135 0.03100
C 	C 	0.99871 0.76061 0.27579 -0.06800
C 	C 	0.99968 0.79278 0.30597 -0.02400
H 	H 	0.04887 0.86717 0.36453 0.05000
H 	H 	0.21639 0.77900 0.30014 0.04700
H 	H 	0.29682 0.81134 0.34951 0.04700
H 	H 	0.96750 0.83135 0.31369 0.04200
N 	N 	0.25239 0.84248 0.52560 -0.20000
H 	H 	0.23848 0.90509 0.52609 0.08800
H 	H 	0.20956 0.76297 0.52098 0.09800
C 	C 	0.02927 0.49748 0.46560 -0.09400
C 	C 	0.02656 0.58125 0.48231 0.11500
N 	N 	0.08745 0.68399 0.48284 -0.20200
H 	H 	0.08561 0.74495 0.49571 0.08700
H 	H 	0.13579 0.70545 0.46949 0.10600
C 	C 	0.42600 0.18601 0.72156 0.01400
C 	C 	0.38969 0.07874 0.71026 0.00100
S 	S 	0.29976 0.04472 0.70289 0.02500
C 	C 	0.30413 0.16221 0.71285 -0.08000
C 	C 	0.37731 0.23200 0.72349 -0.01700
H 	H 	0.39554 0.31401 0.73148 0.04800
C 	C 	0.08259 0.51975 0.91424 -0.04400
C 	C 	0.14011 0.63025 0.91356 -0.09000
C 	C 	0.11927 0.71289 0.91131 0.10900
H 	H 	0.09773 0.45549 0.91430 0.06100
N 	N 	0.17102 0.81689 0.90288 -0.19900
H 	H 	0.22263 0.83445 0.89261 0.10100
H 	H 	0.15672 0.87909 0.90358 0.08300
C 	C 	0.34790 0.53628 0.85018 0.00500
C 	C 	0.39397 0.60281 0.82612 0.01400
S 	S 	0.26879 0.43773 0.83529 0.02800
C 	C 	0.28740 0.47581 0.79895 -0.07100
C 	C 	0.35978 0.56855 0.79729 -0.01700
H 	H 	0.39160 0.59797 0.77622 0.04200
C 	C 	0.96194 0.39947 0.46050 -0.04200
H 	H 	0.96321 0.33725 0.44643 0.05300
H 	H 	0.30219 0.29880 0.94572 0.10500
H 	H 	0.10209 0.05036 0.87088 0.03800
O 	O 	0.11703 0.17584 0.81942 -0.37800
Ni	Ni	0.26644 0.53815 0.00753 1.11200
H 	H 	0.40101 0.96679 0.68015 0.05000
H 	H 	0.50949 0.71043 0.81057 0.04600
C 	C 	0.43067 0.04015 0.69355 -0.05800
C 	C 	0.47289 0.66662 0.82969 -0.05300
O 	O 	0.29789 0.60236 0.50729 -0.37000
H 	H 	0.39569 0.28390 0.43162 0.08800
H 	H 	0.37624 0.39487 0.42681 0.09100
C 	C 	0.31526 0.70537 0.50409 0.31100
C 	C 	0.36783 0.64254 0.37897 0.28700
O 	O 	0.34118 0.80934 0.41579 -0.37800
O 	O 	0.33284 0.46178 0.47417 -0.37100
C 	C 	0.44606 0.80649 0.93667 0.29100
O 	O 	0.31742 0.44125 0.99793 -0.37400
O 	O 	0.40313 0.71710 0.92038 -0.37500
O 	O 	0.34000 0.79699 0.01617 -0.36600
H 	H 	0.36614 0.66200 0.97989 0.15000
C 	C 	0.37890 0.96814 0.54139 -0.04200
C 	C 	0.34369 0.77998 0.52994 -0.09900
C 	C 	0.32352 0.86281 0.53265 0.11400
H 	H 	0.36722 0.03566 0.53973 0.05200
N 	N 	0.40492 0.36082 0.43829 -0.19700
C 	C 	0.50539 0.25034 0.72014 -0.05200
H 	H 	0.53293 0.33562 0.72663 0.04700
H 	H 	0.45101 0.82363 0.87490 0.10900
N 	N 	0.34520 0.27879 0.94347 -0.20400
H 	H 	0.33892 0.22137 0.92715 0.08500
C 	C 	0.38036 0.52134 0.87641 -0.07600
H 	H 	0.34637 0.45526 0.89219 0.02900
H 	H 	0.08118 0.96491 0.92584 0.04100
O 	O 	0.87565 0.73169 0.17073 -0.38600
O 	O 	0.39457 0.53493 0.95643 -0.38600
C 	C 	0.40292 0.54327 0.46881 0.28600
Ni	Ni	0.36702 0.71168 0.44165 1.12000
O 	O 	0.31935 0.74694 0.47709 -0.38700
O 	O 	0.40878 0.68133 0.40388 -0.38300
C 	C 	0.37751 0.46726 0.97996 0.29600
C 	C 	0.37929 0.75866 0.03127 0.28300
O 	O 	0.35530 0.65200 0.03327 -0.37000
C 	C 	0.40596 0.63264 0.35188 -0.07100
C 	C 	0.42609 0.70705 0.32751 -0.01800
H 	H 	0.40020 0.75812 0.32411 0.04300
C 	C 	0.54725 0.20789 0.70579 -0.00300
C 	C 	0.51001 0.10658 0.69086 0.01800
N 	N 	0.49430 0.90483 0.87578 -0.20200
C 	C 	0.41814 0.40459 0.98298 -0.08800
C 	C 	0.40595 0.32098 0.96224 0.10800
C 	C 	0.45928 0.58462 0.87990 0.02200
C 	C 	0.40913 0.79355 0.54460 -0.04200
C 	C 	0.50419 0.66172 0.85747 -0.00100
C 	C 	0.59136 0.32356 0.96863 0.29100
O 	O 	0.70472 0.27434 0.90335 -0.38700
O 	O 	0.58911 0.44045 0.90259 -0.38500
O 	O 	0.58851 0.27233 0.94301 -0.37900
C 	C 	0.51786 0.09662 0.54308 0.28800
Ni	Ni	0.59634 0.31698 0.57255 1.12100
O 	O 	0.61628 0.42161 0.53754 -0.38400
O 	O 	0.58206 0.22446 0.60939 -0.38700
O 	O 	0.51381 0.18625 0.54957 -0.37700
O 	O 	0.41803 0.64737 0.46904 -0.37600
S 	S 	0.42907 0.81158 0.08911 0.03100
C 	C 	0.43961 0.83145 0.05159 -0.06600
C 	C 	0.53959 0.82367 0.29550 -0.05300
C 	C 	0.49541 0.72915 0.31305 0.01600
C 	C 	0.52877 0.67111 0.32591 0.00200
S 	S 	0.47387 0.59753 0.35461 0.02200
H 	H 	0.51397 0.86646 0.28434 0.04700
C 	C 	0.45176 0.98785 0.54924 -0.08800
C 	C 	0.46309 0.89750 0.55490 0.10600
H 	H 	0.42177 0.72681 0.54521 0.05400
N 	N 	0.52656 0.91109 0.56921 -0.19800
C 	C 	0.50430 0.37829 0.47101 -0.04200
C 	C 	0.46665 0.51907 0.47034 -0.08600
C 	C 	0.45744 0.41822 0.45969 0.10600
H 	H 	0.49249 0.29636 0.46535 0.05500
S 	S 	0.62674 0.28663 0.68644 0.02700
C 	C 	0.55099 0.10183 0.66515 -0.02300
H 	H 	0.52486 0.03806 0.64840 0.04100
C 	C 	0.60508 0.04897 0.89850 -0.05400
C 	C 	0.64779 0.01933 0.94711 0.10900
C 	C 	0.58269 0.91478 0.94901 -0.03900
C 	C 	0.52562 0.88099 0.92701 -0.08800
C 	C 	0.54117 0.94373 0.90000 0.11500
H 	H 	0.57442 0.86235 0.96845 0.04400
H 	H 	0.50384 0.95434 0.85664 0.08700
H 	H 	0.69896 0.99589 0.98539 0.08700
C 	C 	0.47568 0.43635 0.00454 -0.04800
C 	C 	0.45811 0.28242 0.96070 -0.04600
C 	C 	0.52229 0.32647 0.97930 -0.09100
C 	C 	0.52507 0.39235 0.00400 0.10900
N 	N 	0.56984 0.40561 0.02822 -0.19800
H 	H 	0.48179 0.49463 0.02183 0.04800
H 	H 	0.45099 0.22266 0.94374 0.04900
H 	H 	0.57611 0.46087 0.04522 0.08900
H 	H 	0.59211 0.35326 0.03192 0.10200
S 	S 	0.59228 0.68285 0.86081 0.03100
C 	C 	0.50110 0.55046 0.89847 -0.02000
H 	H 	0.47386 0.47935 0.91325 0.05500
H 	H 	0.53657 0.84520 0.57207 0.08600
H 	H 	0.50198 0.77524 0.14287 0.04800
C 	C 	0.53219 0.58836 0.48665 -0.04700
Ni	Ni	0.64310 0.35190 0.90372 1.11900
C 	C 	0.59765 0.38916 0.50958 0.30900
O 	O 	0.65597 0.45037 0.59861 -0.37900
O 	O 	0.57350 0.10247 0.52563 -0.37400
C 	C 	0.51770 0.84536 0.09775 -0.00100
C 	C 	0.51627 0.86590 0.04467 -0.02300
H 	H 	0.56483 0.98625 0.57866 0.08700
C 	C 	0.56448 0.44240 0.49046 -0.09600
H 	H 	0.54264 0.66899 0.49312 0.05500
C 	C 	0.61826 0.20043 0.65895 -0.07100
C 	C 	0.65388 0.09166 0.92340 -0.09200
H 	H 	0.61421 0.09973 0.87857 0.04500
N 	N 	0.70535 0.04728 0.96703 -0.20000
C 	C 	0.57838 0.60007 0.89042 -0.06800
C 	C 	0.70034 0.21298 0.92651 0.30200
C 	C 	0.62423 0.54609 0.89485 0.29100
O 	O 	0.67642 0.39925 0.86016 -0.38200
O 	O 	0.65660 0.37865 0.98324 -0.36800
C 	C 	0.72914 0.52118 0.59522 0.30700
C 	C 	0.63860 0.24102 0.62776 0.28800
O 	O 	0.60107 0.30337 0.49950 -0.37200
O 	O 	0.67060 0.28061 0.55881 -0.71500
H 	H 	0.64920 0.20649 0.56758 0.15200
C 	C 	0.55988 0.87228 0.07048 0.01800
C 	C 	0.53662 0.80023 0.12241 -0.05300
H 	H 	0.53580 0.86520 0.02181 0.03700
C 	C 	0.61833 0.86440 0.29408 -0.00200
C 	C 	0.60759 0.71296 0.32491 -0.05500
C 	C 	0.58345 0.55270 0.49536 0.11300
S 	S 	0.72355 0.61147 0.64963 0.03100
H 	H 	0.75865 0.11604 0.96318 0.09500
S 	S 	0.73235 0.40611 0.79153 0.02600
O 	O 	0.92608 0.93303 0.20495 -0.71400
C 	C 	0.74766 0.46332 0.85164 0.31200
O 	O 	0.71647 0.25678 0.95374 -0.36200
O 	O 	0.69588 0.59690 0.88476 -0.38400
O 	O 	0.72075 0.46335 0.92749 -0.70900
H 	H 	0.68882 0.48742 0.93824 0.15600
Ni	Ni	0.67254 0.24894 0.51773 1.11100
O 	O 	0.71062 0.31659 0.62162 -0.37900
C 	C 	0.62678 0.86500 0.06856 -0.05400
C 	C 	0.60149 0.78840 0.11990 0.01600
H 	H 	0.62135 0.77367 0.16828 0.04700
C 	C 	0.65217 0.80917 0.30815 0.01800
S 	S 	0.67408 0.93695 0.26525 0.02900
H 	H 	0.63325 0.67035 0.33615 0.04700
N 	N 	0.65139 0.62495 0.50757 -0.19900
H 	H 	0.69471 0.60519 0.51010 0.10700
H 	H 	0.66332 0.70444 0.51272 0.09000
H 	H 	0.73986 0.89673 0.63700 0.04800
H 	H 	0.69027 0.96688 0.59325 0.03800
C 	C 	0.80167 0.68740 0.66912 -0.00200
C 	C 	0.80680 0.68818 0.70063 -0.05200
C 	C 	0.76525 0.61216 0.61656 -0.07700
H 	H 	0.75703 0.66481 0.71482 0.04700
C 	C 	0.80383 0.47247 0.76695 -0.00100
C 	C 	0.76587 0.49569 0.81975 -0.08000
H 	H 	0.78340 0.33830 0.73769 0.04700
H 	H 	0.86218 0.03440 0.93260 0.04600
H 	H 	0.80253 0.86477 0.96789 0.04500
O 	O 	0.77220 0.49832 0.57779 -0.39200
Ni	Ni	0.76027 0.42549 0.96158 1.11200
C 	C 	0.64450 0.81800 0.09301 -0.00200
C 	C 	0.64123 0.77928 0.14512 -0.01900
O 	O 	0.80043 0.51322 0.87183 -0.39900
Ni	Ni	0.76372 0.35056 0.58013 1.12100
H 	H 	0.66112 0.88872 0.04802 0.04400
C 	C 	0.82433 0.41971 0.74511 -0.05300
C 	C 	0.83697 0.58153 0.81055 -0.01700
C 	C 	0.84463 0.67165 0.62074 -0.02100
Ni	Ni	0.78421 0.59313 0.90558 1.12100
O 	O 	0.77373 0.66728 0.94268 -0.38700
C 	C 	0.75248 0.14745 0.55489 0.28600
O 	O 	0.74402 0.18210 0.52768 -0.36800
O 	O 	0.76224 0.20581 0.57972 -0.37900
C 	C 	0.72367 0.83511 0.29532 -0.02200
C 	C 	0.79191 0.92499 0.62388 -0.05500
C 	C 	0.74162 0.98311 0.58102 -0.01900
C 	C 	0.85933 0.56723 0.78129 0.01600
C 	C 	0.85898 0.87372 0.96924 -0.02500
C 	C 	0.86463 0.71345 0.65043 0.01800
H 	H 	0.85609 0.78570 0.75639 0.04700
C 	C 	0.81216 0.67445 0.96742 0.29300
O 	O 	0.76466 0.40135 0.50877 -0.38400
C 	C 	0.74437 0.90757 0.27046 -0.06900
C 	C 	0.79546 0.95650 0.59340 0.02300
C 	C 	0.77045 0.05841 0.55674 -0.07400
S 	S 	0.87415 0.96641 0.67489 0.03100
H 	H 	0.87649 0.64151 0.82617 0.04100
H 	H 	0.89763 0.31827 0.71910 0.04300
C 	C 	0.91450 0.03052 0.93348 -0.06300
H 	H 	0.11745 0.27435 0.77318 0.15100
O 	O 	0.10552 0.21542 0.75864 -0.71300
C 	C 	0.90111 0.46727 0.73627 0.01800
O 	O 	0.81341 0.58696 0.97914 -0.35800
C 	C 	0.71564 0.80305 0.13768 -0.07500
H 	H 	0.75244 0.78913 0.30064 0.04700
C 	C 	0.85912 0.94423 0.63801 0.00600
H 	H 	0.88528 0.67075 0.60474 0.04300
O 	O 	0.86215 0.45647 0.94097 -0.37500
S 	S 	0.73083 0.83826 0.10088 0.02900
H 	H 	0.77490 0.27651 0.47367 0.06400
C 	C 	0.86994 0.78451 0.97659 -0.07000
C 	C 	0.83204 0.42340 0.51783 0.31400
C 	C 	0.79149 0.90489 0.24534 0.28700
C 	C 	0.87931 0.72985 0.71326 0.01700
C 	C 	0.93605 0.61346 0.77281 -0.05000
C 	C 	0.93266 0.40358 0.72503 -0.02100
C 	C 	0.92294 0.96241 0.95482 0.02300
S 	S 	0.95233 0.11303 0.87643 0.01900
O 	O 	0.08830 0.17330 0.69540 -0.38300
O 	O 	0.84107 0.39425 0.54524 -0.37500
O 	O 	0.80152 0.96685 0.22078 -0.36300
H 	H 	0.04844 0.11637 0.63564 0.04700
H 	H 	0.94808 0.16940 0.02633 0.04400
C 	C 	0.04257 0.68470 0.91549 -0.03700
S 	S 	0.98197 0.10256 0.29246 0.01400
H 	H 	0.96414 0.07931 0.35830 0.04200
O 	O 	0.96938 0.14360 0.22498 -0.36800
C 	C 	0.90592 0.54659 0.92538 0.31400
O 	O 	0.88605 0.62239 0.92228 -0.39000
C 	C 	0.00513 0.95766 0.76137 0.30800
C 	C 	0.04434 0.13889 0.82610 0.28900
C 	C 	0.01307 0.11962 0.69745 0.30200
C 	C 	0.04392 0.38107 0.73778 0.30200
Ni	Ni	0.99906 0.16241 0.76216 1.11900
O 	O 	0.97689 0.14836 0.71734 -0.38900
O 	O 	0.06338 0.98877 0.77948 -0.37600
O 	O 	0.96047 0.00015 0.76420 -0.39500
O 	O 	0.08486 0.36619 0.71672 -0.38100
O 	O 	0.01682 0.31606 0.76177 -0.38500
O 	O 	0.00092 0.16354 0.80867 -0.36300
C 	C 	0.77691 0.84439 0.15988 0.30600
Ni	Ni	0.89848 0.03663 0.19222 1.10900
Ni	Ni	0.85011 0.78358 0.20892 1.12100
O 	O 	0.81044 0.82632 0.24559 -0.38100
O 	O 	0.83496 0.94323 0.15615 -0.37700
O 	O 	0.76584 0.79184 0.18584 -0.37700
H 	H 	0.93053 0.94913 0.22669 0.14500
C 	C 	0.95943 0.55831 0.49798 -0.04400
C 	C 	0.89384 0.45602 0.49531 -0.09400
C 	C 	0.89348 0.37921 0.47445 0.10900
H 	H 	0.95878 0.61925 0.51279 0.04800
N 	N 	0.82800 0.28632 0.46775 -0.19200
H 	H 	0.82949 0.22610 0.45440 0.08500
C 	C 	0.86562 0.00628 0.57767 -0.00700
C 	C 	0.93371 0.03376 0.59266 -0.05000
C 	C 	0.92993 0.00148 0.62305 0.01000
S 	S 	0.85958 0.08410 0.55053 0.02800
C 	C 	0.96900 0.04126 0.67374 -0.08000
C 	C 	0.99195 0.05550 0.64320 -0.02000
H 	H 	0.98811 0.08799 0.58195 0.04400
C 	C 	0.94310 0.75688 0.69459 -0.00200
C 	C 	0.93695 0.75152 0.66293 -0.05200
S 	S 	0.01949 0.84894 0.71277 0.03600
C 	C 	0.97689 0.85522 0.74477 -0.08300
C 	C 	0.89838 0.78427 0.74141 -0.01400
H 	H 	0.98671 0.77676 0.64858 0.04700
C 	C 	0.98534 0.57415 0.91768 -0.10000
C 	C 	0.00551 0.49136 0.91404 0.12200
N 	N 	0.95179 0.38606 0.90860 -0.20100
H 	H 	0.02736 0.74880 0.91602 0.05200
H 	H 	0.96611 0.32384 0.90895 0.09100
H 	H 	0.89761 0.36677 0.90117 0.10800
C 	C 	0.95575 0.56608 0.74924 -0.00000
S 	S 	0.03866 0.56837 0.74771 0.03100
C 	C 	0.01089 0.45005 0.73027 -0.07000
H 	H 	0.97990 0.67836 0.78604 0.05200
C 	C 	0.98713 0.94775 0.95355 -0.00400
C 	C 	0.03944 0.99122 0.92943 -0.04800
C 	C 	0.03004 0.05711 0.90781 0.01600
C 	C 	0.97018 0.08097 0.91081 -0.00300
S 	S 	0.96134 0.82600 0.96880 0.02500
C 	C 	0.01843 0.09872 0.85721 -0.06600
C 	C 	0.05834 0.06966 0.87768 -0.02100
