data_crystal

_cell_length_a 27.10460
_cell_length_b 28.92940
_cell_length_c 30.84908
_cell_angle_alpha 61.18932
_cell_angle_beta  118.49673
_cell_angle_gamma 133.15190

_symmetry_space_group_name_	'P 1'
_symmetry_space_group_name_H-M	'P 1'

loop_
_symmetry_equiv_pos_as_xyz
  x,y,z

loop_
_atom_site_label
_atom_site_type_symbol
_atom_site_fract_x
_atom_site_fract_y
_atom_site_fract_z
_atom_site_charge
C 	C 	0.75041 0.35180 0.00476 0.07500
C 	C 	0.67933 0.30412 0.00441 -0.09700
C 	C 	0.64157 0.31968 0.00619 0.08000
C 	C 	0.67249 0.38474 0.00093 -0.09400
C 	C 	0.74493 0.42970 0.00982 0.07500
C 	C 	0.78404 0.41421 0.00958 -0.09300
H 	H 	0.65501 0.25405 0.00677 0.06800
H 	H 	0.64205 0.39721 0.99975 0.07100
H 	H 	0.84007 0.44900 0.01537 0.07000
C 	C 	0.71393 0.31170 0.50513 0.07500
C 	C 	0.64289 0.28563 0.48840 -0.09000
C 	C 	0.61881 0.31049 0.49649 0.07600
C 	C 	0.66680 0.36569 0.51643 -0.08900
C 	C 	0.73803 0.39500 0.52967 0.07700
C 	C 	0.76177 0.36773 0.52451 -0.09500
H 	H 	0.60606 0.24354 0.47224 0.06400
H 	H 	0.64853 0.38403 0.52411 0.06900
H 	H 	0.81664 0.38848 0.53713 0.06500
C 	C 	0.30354 0.64356 0.30824 0.07500
C 	C 	0.26300 0.57596 0.31324 -0.09600
C 	C 	0.29220 0.54940 0.31473 0.07800
C 	C 	0.36292 0.58956 0.31603 -0.09300
C 	C 	0.39910 0.65740 0.30158 0.07500
C 	C 	0.37092 0.68458 0.30045 -0.09400
H 	H 	0.20853 0.54507 0.31332 0.06700
H 	H 	0.38590 0.56865 0.31872 0.07000
H 	H 	0.39961 0.73718 0.29103 0.06900
C 	C 	0.22412 0.61382 0.74779 0.07500
C 	C 	0.17771 0.55157 0.73777 -0.09000
C 	C 	0.20220 0.52877 0.72738 0.08000
C 	C 	0.27301 0.56731 0.72922 -0.09200
C 	C 	0.31612 0.63249 0.73100 0.07700
C 	C 	0.29256 0.65522 0.74213 -0.09900
H 	H 	0.12320 0.52196 0.73713 0.06800
H 	H 	0.29276 0.54888 0.72340 0.07400
H 	H 	0.32657 0.70528 0.74509 0.05800
Co	Co	0.11257 0.98661 0.18702 1.17400
Co	Co	0.05330 0.03316 0.21746 1.19100
C 	C 	0.10969 0.86535 0.23068 0.32400
Co	Co	0.09792 0.91582 0.11998 1.17300
O 	O 	0.02386 0.10266 0.24645 -0.39700
C 	C 	0.08070 0.14707 0.22947 0.32500
O 	O 	0.13321 0.02921 0.23574 -0.44100
C 	C 	0.23266 0.03471 0.15513 0.35600
O 	O 	0.10576 0.12987 0.21691 -0.37400
O 	O 	0.19997 0.97307 0.15867 -0.42100
O 	O 	0.20719 0.05251 0.16630 -0.38200
O 	O 	0.01733 0.97148 0.28504 -0.38500
O 	O 	0.06904 0.95759 0.13442 -0.76300
C 	C 	0.81059 0.91822 0.16776 0.33200
O 	O 	0.07582 0.84769 0.18761 -0.38600
O 	O 	0.10551 0.90306 0.23956 -0.39200
O 	O 	0.11360 0.98672 0.05243 -0.38800
Co	Co	0.09758 0.98401 0.66904 1.17900
Co	Co	0.02372 0.00404 0.71172 1.19800
C 	C 	0.12796 0.88226 0.71567 0.31900
Co	Co	0.09921 0.92781 0.60158 1.16800
C 	C 	0.02283 0.11418 0.69468 0.32900
O 	O 	0.11537 0.02894 0.71416 -0.44800
C 	C 	0.20819 0.06301 0.61611 0.32800
O 	O 	0.03967 0.09325 0.67802 -0.40000
O 	O 	0.19697 0.00675 0.62791 -0.37300
O 	O 	0.16550 0.06488 0.62323 -0.38300
O 	O 	0.03586 0.98356 0.79052 -0.37700
O 	O 	0.04964 0.94135 0.62500 -0.76500
C 	C 	0.77104 0.86232 0.67466 0.32300
O 	O 	0.09740 0.86507 0.67237 -0.38100
O 	O 	0.14436 0.93594 0.71880 -0.38600
O 	O 	0.09410 0.99040 0.53174 -0.39000
C 	C 	0.05271 0.95606 0.90399 -0.00900
C 	C 	0.06404 0.95401 0.95435 0.00700
H 	H 	0.06115 0.92865 0.89725 0.05000
C 	C 	0.08486 0.91373 0.99582 0.07500
N 	N 	0.10150 0.88141 0.02900 -0.12700
C 	C 	0.07108 0.02407 0.42350 0.00900
C 	C 	0.06010 0.01657 0.37722 0.04100
H 	H 	0.12289 0.06037 0.44111 0.06500
C 	C 	0.11845 0.05727 0.35465 0.08100
N 	N 	0.16541 0.08984 0.33680 -0.10800
C 	C 	0.06817 0.28147 0.64382 -0.11200
C 	C 	0.09967 0.30118 0.68925 0.01400
C 	C 	0.12163 0.26603 0.73420 0.11700
C 	C 	0.10217 0.20665 0.73507 -0.02400
C 	C 	0.06530 0.18438 0.69052 -0.12600
C 	C 	0.05609 0.22590 0.64404 0.19400
C 	C 	0.10821 0.35736 0.69021 -0.00900
O 	O 	0.15979 0.28836 0.77766 -0.26800
H 	H 	0.11296 0.17653 0.77081 0.06100
O 	O 	0.03122 0.21019 0.59909 -0.28500
H 	H 	0.05160 0.30808 0.60874 0.07600
C 	C 	0.14185 0.41866 0.65614 0.13600
C 	C 	0.16055 0.47344 0.66346 -0.07800
C 	C 	0.15366 0.46939 0.70778 -0.04600
C 	C 	0.11384 0.40743 0.73881 0.15400
C 	C 	0.08905 0.35144 0.72875 -0.08700
O 	O 	0.16273 0.42646 0.61895 -0.27500
H 	H 	0.18795 0.52067 0.63781 0.07400
O 	O 	0.10408 0.40184 0.78129 -0.27500
H 	H 	0.05922 0.30391 0.75318 0.08400
H 	H 	0.07308 0.23131 0.58842 0.16000
H 	H 	0.12685 0.42572 0.58734 0.14700
H 	H 	0.05936 0.39566 0.77004 0.14900
H 	H 	0.20903 0.31657 0.77607 0.15200
C 	C 	0.43978 0.71544 0.65190 -0.09400
C 	C 	0.50307 0.73889 0.68807 -0.00800
C 	C 	0.50638 0.73734 0.73570 0.13600
C 	C 	0.44529 0.70655 0.74854 -0.07600
C 	C 	0.38117 0.67841 0.71372 -0.05200
C 	C 	0.37916 0.68651 0.66419 0.15400
C 	C 	0.56561 0.76468 0.67610 0.01300
O 	O 	0.56936 0.76767 0.76893 -0.28000
H 	H 	0.44750 0.70253 0.78613 0.06200
O 	O 	0.31719 0.66269 0.62873 -0.28600
H 	H 	0.43738 0.71861 0.61456 0.07300
C 	C 	0.59412 0.72958 0.69989 0.11500
C 	C 	0.65920 0.75905 0.69434 -0.02400
C 	C 	0.69539 0.82297 0.66464 -0.12800
C 	C 	0.66219 0.85399 0.63520 0.19200
C 	C 	0.59811 0.82542 0.64185 -0.11700
O 	O 	0.55789 0.66625 0.72762 -0.26900
H 	H 	0.68328 0.73373 0.71547 0.05800
O 	O 	0.69484 0.91453 0.60296 -0.30000
H 	H 	0.57481 0.85141 0.62163 0.07300
H 	H 	0.31247 0.69902 0.61107 0.14700
H 	H 	0.57571 0.66891 0.76345 0.14400
H 	H 	0.67998 0.90607 0.56978 0.14600
H 	H 	0.57570 0.73291 0.79256 0.14500
C 	C 	0.23218 0.82070 0.77825 -0.11700
C 	C 	0.17742 0.75386 0.78734 0.00900
C 	C 	0.11574 0.73364 0.79223 0.12700
C 	C 	0.10520 0.78025 0.77966 -0.03000
C 	C 	0.15409 0.84613 0.75922 -0.12100
C 	C 	0.22096 0.86701 0.76505 0.19200
C 	C 	0.17910 0.70785 0.78038 -0.00800
O 	O 	0.06456 0.66847 0.80688 -0.27100
H 	H 	0.05522 0.76414 0.77910 0.05300
O 	O 	0.27213 0.93214 0.75040 -0.29500
H 	H 	0.28128 0.83678 0.77697 0.07000
C 	C 	0.14779 0.69238 0.73297 0.13200
C 	C 	0.15800 0.65673 0.72389 -0.07600
C 	C 	0.20054 0.63745 0.76144 -0.04700
C 	C 	0.22892 0.64999 0.80972 0.15300
C 	C 	0.21791 0.68492 0.81904 -0.09400
O 	O 	0.10789 0.71281 0.69527 -0.27200
H 	H 	0.13555 0.64681 0.68680 0.06300
O 	O 	0.26736 0.62813 0.84778 -0.27500
H 	H 	0.24138 0.69592 0.85581 0.07300
H 	H 	0.29764 0.94832 0.78166 0.15000
H 	H 	0.14068 0.75646 0.67597 0.14900
H 	H 	0.31631 0.66469 0.84532 0.14600
H 	H 	0.03387 0.65383 0.77486 0.15800
C 	C 	0.11099 0.29776 0.22216 -0.11000
C 	C 	0.17663 0.32771 0.25487 0.01200
C 	C 	0.21579 0.30378 0.27263 0.12000
C 	C 	0.18684 0.24751 0.26018 -0.02900
C 	C 	0.11943 0.21562 0.22942 -0.11700
C 	C 	0.08295 0.24299 0.20869 0.19300
C 	C 	0.20364 0.38388 0.27054 -0.00700
O 	O 	0.28105 0.33366 0.30362 -0.27300
H 	H 	0.21553 0.22714 0.27636 0.06800
O 	O 	0.01906 0.21544 0.17586 -0.27600
H 	H 	0.08065 0.31599 0.20809 0.07500
C 	C 	0.21095 0.44032 0.23360 0.13600
C 	C 	0.23031 0.49071 0.24806 -0.07200
C 	C 	0.24729 0.48768 0.29959 -0.04600
C 	C 	0.23840 0.43068 0.33647 0.15400
C 	C 	0.21536 0.37854 0.32177 -0.09000
O 	O 	0.20326 0.44799 0.18378 -0.27000
H 	H 	0.23737 0.53457 0.21946 0.07300
O 	O 	0.25264 0.42601 0.38688 -0.28100
H 	H 	0.20749 0.33436 0.35025 0.07900
H 	H 	0.15491 0.43427 0.16670 0.15100
H 	H 	0.30216 0.44255 0.40043 0.15100
H 	H 	0.31308 0.36698 0.28028 0.15600
C 	C 	0.62762 0.83031 0.16622 -0.11800
C 	C 	0.62434 0.78787 0.21475 0.01500
C 	C 	0.67532 0.77623 0.24117 0.11600
C 	C 	0.73357 0.81335 0.22176 -0.02800
C 	C 	0.74078 0.86168 0.17610 -0.13000
C 	C 	0.68468 0.86579 0.14629 0.19900
C 	C 	0.56697 0.75531 0.23721 -0.00700
O 	O 	0.66738 0.72761 0.28498 -0.27000
H 	H 	0.77527 0.80785 0.24398 0.05800
O 	O 	0.68852 0.90899 0.09953 -0.28400
H 	H 	0.58682 0.83713 0.14453 0.07600
C 	C 	0.57953 0.77329 0.27849 0.13700
C 	C 	0.52401 0.74350 0.29816 -0.07600
C 	C 	0.45590 0.69734 0.27593 -0.04900
C 	C 	0.44312 0.68368 0.23206 0.15600
C 	C 	0.49860 0.71100 0.21395 -0.09500
O 	O 	0.64521 0.82230 0.29775 -0.28100
H 	H 	0.53408 0.75560 0.33106 0.06300
O 	O 	0.37635 0.64161 0.20804 -0.28300
H 	H 	0.48841 0.69854 0.18121 0.07400
H 	H 	0.66800 0.88391 0.07501 0.14800
H 	H 	0.66449 0.79989 0.32815 0.14600
H 	H 	0.36058 0.66937 0.18275 0.15200
H 	H 	0.69538 0.74972 0.31315 0.14400
C 	C 	0.13236 0.73322 0.30405 -0.11600
C 	C 	0.20168 0.76851 0.30328 0.01000
C 	C 	0.24468 0.83705 0.29398 0.11900
C 	C 	0.21585 0.86987 0.27894 -0.03600
C 	C 	0.14401 0.83476 0.27156 -0.12500
C 	C 	0.10385 0.76624 0.28924 0.19400
C 	C 	0.22604 0.73471 0.30486 -0.00800
O 	O 	0.31351 0.87223 0.29565 -0.27100
H 	H 	0.24809 0.92276 0.26807 0.05500
O 	O 	0.03500 0.73122 0.28736 -0.27500
H 	H 	0.09956 0.68031 0.31332 0.07500
C 	C 	0.24725 0.70083 0.35146 0.13500
C 	C 	0.27127 0.67001 0.35231 -0.07500
C 	C 	0.27354 0.67215 0.30680 -0.05000
C 	C 	0.25061 0.70460 0.26014 0.15300
C 	C 	0.22740 0.73600 0.25934 -0.09100
O 	O 	0.24689 0.69970 0.39628 -0.27900
H 	H 	0.28892 0.64520 0.38839 0.06600
O 	O 	0.25275 0.70730 0.21538 -0.28400
H 	H 	0.21061 0.76155 0.22329 0.07400
H 	H 	0.03405 0.72674 0.32096 0.15400
H 	H 	0.20046 0.66013 0.40281 0.14800
H 	H 	0.20706 0.66817 0.20427 0.14900
H 	H 	0.33827 0.87685 0.33113 0.14700
C 	C 	0.81253 0.14933 0.50858 -0.11000
C 	C 	0.78934 0.21167 0.52143 -0.00900
O 	O 	0.81781 0.07400 0.50088 -0.27900
H 	H 	0.78150 0.15145 0.46997 0.07700
C 	C 	0.81508 0.27541 0.49030 0.13500
C 	C 	0.78868 0.30717 0.48364 -0.07600
C 	C 	0.73684 0.27576 0.50815 -0.04700
C 	C 	0.70936 0.21100 0.53772 0.15500
C 	C 	0.73486 0.17907 0.54349 -0.08900
H 	H 	0.80970 0.35671 0.46045 0.06300
O 	O 	0.66132 0.18059 0.56405 -0.27800
H 	H 	0.77155 0.03233 0.50564 0.16000
H 	H 	0.84593 0.29775 0.43508 0.14900
H 	H 	0.61549 0.15416 0.54209 0.14700
C 	C 	0.80752 0.50422 0.60682 -0.09300
C 	C 	0.84095 0.56547 0.57324 -0.00800
C 	C 	0.85370 0.57122 0.53103 0.13600
C 	C 	0.82655 0.51499 0.51985 -0.07600
C 	C 	0.78700 0.45305 0.55072 -0.05000
C 	C 	0.78178 0.44827 0.59624 0.15300
H 	H 	0.83286 0.51932 0.48563 0.06300
O 	O 	0.74671 0.38829 0.62836 -0.28000
H 	H 	0.79994 0.49976 0.64047 0.07400
C 	C 	0.82610 0.65138 0.55168 0.11700
C 	C 	0.85100 0.70981 0.55772 -0.02900
O 	O 	0.76543 0.62092 0.51679 -0.27000
H 	H 	0.82499 0.73297 0.53225 0.06400
H 	H 	0.78248 0.38086 0.65261 0.15200
H 	H 	0.77907 0.64171 0.48409 0.14400
C 	C 	0.30631 0.17583 0.51475 -0.11400
C 	C 	0.37282 0.19306 0.54409 0.01500
C 	C 	0.38808 0.18400 0.59687 0.11700
C 	C 	0.33419 0.14749 0.62080 -0.02600
C 	C 	0.26578 0.12249 0.59198 -0.12200
C 	C 	0.25356 0.14305 0.53863 0.19700
C 	C 	0.42471 0.21615 0.52036 -0.00600
O 	O 	0.45559 0.21240 0.62466 -0.26800
H 	H 	0.34494 0.13542 0.66191 0.06200
O 	O 	0.18929 0.12830 0.50984 -0.28000
H 	H 	0.29504 0.18623 0.47374 0.08200
C 	C 	0.44849 0.17900 0.53477 0.14000
C 	C 	0.50869 0.20762 0.52188 -0.07300
C 	C 	0.54385 0.27247 0.49307 -0.04100
C 	C 	0.51211 0.30462 0.47077 0.15400
C 	C 	0.45370 0.27712 0.48557 -0.09100
O 	O 	0.41175 0.11432 0.55989 -0.27200
H 	H 	0.53019 0.18076 0.53680 0.06800
O 	O 	0.53757 0.36223 0.43420 -0.27800
H 	H 	0.43242 0.30405 0.47127 0.07300
H 	H 	0.19095 0.16576 0.50504 0.15700
H 	H 	0.43555 0.11302 0.59634 0.14900
H 	H 	0.56620 0.39722 0.45201 0.15000
H 	H 	0.46253 0.17763 0.64072 0.14800
C 	C 	0.80591 0.16184 0.02035 -0.11000
C 	C 	0.85735 0.22899 0.01731 0.00800
C 	C 	0.83924 0.26986 0.01202 -0.00600
H 	H 	0.75174 0.14159 0.01212 0.07600
C 	C 	0.80279 0.28866 0.96508 0.13600
C 	C 	0.77914 0.32100 0.96195 -0.07300
C 	C 	0.79041 0.33362 0.00566 -0.05000
C 	C 	0.82955 0.31737 0.05210 0.15400
C 	C 	0.85430 0.28616 0.05502 -0.09000
O 	O 	0.79058 0.27586 0.92222 -0.27500
H 	H 	0.74936 0.33366 0.92599 0.06700
H 	H 	0.74478 0.23268 0.92052 0.14900
H 	H 	0.80316 0.29158 0.11112 0.14900
C 	C 	0.77801 0.52179 0.08590 -0.09600
C 	C 	0.81453 0.58621 0.05705 -0.00600
C 	C 	0.83757 0.60034 0.01686 0.13500
C 	C 	0.81847 0.54927 0.00319 -0.07700
C 	C 	0.77904 0.48451 0.03070 -0.04900
C 	C 	0.76281 0.47160 0.07421 0.15500
H 	H 	0.83321 0.55997 0.97069 0.06400
O 	O 	0.72899 0.40920 0.10391 -0.28700
H 	H 	0.76236 0.51077 0.11801 0.07400
C 	C 	0.81179 0.67864 0.04069 0.11800
O 	O 	0.75959 0.66150 0.99784 -0.27000
H 	H 	0.82565 0.76702 0.02698 0.05400
H 	H 	0.76632 0.40484 0.12977 0.15000
H 	H 	0.78314 0.68919 0.96928 0.14500
H 	H 	0.99349 0.73149 0.17943 0.15700
C 	C 	0.45921 0.20677 0.02381 -0.08900
C 	C 	0.47283 0.19728 0.07631 -0.01000
C 	C 	0.54103 0.22146 0.10598 0.14200
C 	C 	0.59473 0.25476 0.08317 -0.07200
C 	C 	0.58213 0.26857 0.03026 -0.04600
C 	C 	0.51391 0.24369 0.00056 0.15400
C 	C 	0.41526 0.15930 0.10061 0.01600
O 	O 	0.55525 0.21262 0.15730 -0.27700
H 	H 	0.64723 0.27360 0.10624 0.07200
O 	O 	0.50057 0.25513 0.94895 -0.27900
H 	H 	0.40647 0.18641 0.00097 0.07200
C 	C 	0.37583 0.18140 0.08741 0.11300
C 	C 	0.31925 0.14307 0.10905 -0.02200
C 	C 	0.30199 0.08291 0.14398 -0.13300
C 	C 	0.34576 0.06426 0.16073 0.20400
C 	C 	0.40048 0.10117 0.13780 -0.11300
O 	O 	0.39335 0.24090 0.05426 -0.26800
H 	H 	0.28695 0.15867 0.09687 0.06100
O 	O 	0.33320 0.00837 0.19804 -0.27000
H 	H 	0.43144 0.08449 0.14887 0.09200
H 	H 	0.50408 0.29601 0.93439 0.15000
H 	H 	0.36464 0.23148 0.02031 0.14800
H 	H 	0.36053 0.02237 0.23042 0.16000
H 	H 	0.56626 0.25125 0.16097 0.15700
C 	C 	0.06000 0.98462 0.01690 0.28800
O 	O 	0.03776 0.01399 0.14694 -0.55900
C 	C 	0.03444 0.98049 0.50328 0.30000
O 	O 	0.79980 0.87197 0.64373 -0.38000
C 	C 	0.05112 0.98803 0.96377 -0.08600
C 	C 	0.02574 0.98922 0.86261 -0.07700
C 	C 	0.01672 0.98299 0.44854 -0.07400
H 	H 	0.76120 0.04424 0.01254 0.16100
O 	O 	0.88193 0.66388 0.99306 -0.27700
H 	H 	0.85231 0.67329 0.96088 0.14500
C 	C 	0.82467 0.11996 0.03780 0.18800
O 	O 	0.77432 0.05384 0.04473 -0.26800
O 	O 	0.80830 0.88028 0.71771 -0.38600
H 	H 	0.71494 0.13004 0.56760 0.07900
O 	O 	0.94833 0.71558 0.18125 -0.27500
O 	O 	0.84256 0.33085 0.09489 -0.28400
O 	O 	0.86862 0.30808 0.46873 -0.28000
C 	C 	0.86251 0.62342 0.58235 0.01300
H 	H 	0.86057 0.63982 0.47259 0.14500
C 	C 	0.82683 0.18333 0.53843 0.01300
C 	C 	0.83447 0.10902 0.52973 0.19800
C 	C 	0.83543 0.63943 0.07291 0.01400
C 	C 	0.83984 0.73412 0.05366 -0.02700
O 	O 	0.83217 0.97618 0.16459 -0.40900
O 	O 	0.84997 0.91175 0.16117 -0.40600
O 	O 	0.84011 0.00374 0.64626 -0.38200
N 	N 	0.84648 0.85781 0.46889 -0.11600
C 	C 	0.92716 0.25505 0.02616 0.12500
C 	C 	0.89531 0.14509 0.05340 -0.11300
H 	H 	0.88312 0.27254 0.09116 0.07700
C 	C 	0.91169 0.74016 0.59451 -0.12100
H 	H 	0.98481 0.18610 0.19726 0.13700
O 	O 	0.89383 0.63165 0.50140 -0.27800
C 	C 	0.91962 0.65084 0.62182 -0.11300
C 	C 	0.02754 0.02379 0.92235 0.01800
O 	O 	0.97547 0.07331 0.72201 -0.39200
C 	C 	0.01391 0.02397 0.87222 0.02600
C 	C 	0.99730 0.97699 0.81111 0.27000
H 	H 	0.01853 0.05080 0.92904 0.05400
C 	C 	0.98605 0.05872 0.83121 0.07400
N 	N 	0.96354 0.08682 0.79913 -0.10700
C 	C 	0.99301 0.96926 0.35372 -0.10300
H 	H 	0.98190 0.33889 0.98552 0.15500
Co	Co	0.93404 0.99342 0.12901 1.17200
Co	Co	0.99484 0.94990 0.09756 1.17600
Co	Co	0.93044 0.03968 0.20388 1.18100
O 	O 	0.97791 0.02387 0.18047 -0.74600
O 	O 	0.91741 0.95783 0.07701 -0.47500
C 	C 	0.91656 0.10285 0.09285 0.32300
C 	C 	0.97696 0.96950 0.29996 0.28200
C 	C 	0.94418 0.81968 0.09959 0.32700
O 	O 	0.94826 0.11346 0.13866 -0.38000
O 	O 	0.91069 0.06089 0.08021 -0.36100
O 	O 	0.92066 0.96497 0.26807 -0.40000
O 	O 	0.99838 0.85341 0.08162 -0.41000
O 	O 	0.93599 0.84853 0.11558 -0.39500
O 	O 	0.01733 0.98536 0.02660 -0.37800
Co	Co	0.90065 0.95081 0.63336 1.17700
Co	Co	0.97156 0.92665 0.59096 1.18100
Co	Co	0.88944 0.97677 0.71857 1.15800
O 	O 	0.93703 0.96410 0.69194 -0.77600
O 	O 	0.89187 0.92994 0.57481 -0.46500
C 	C 	0.87202 0.04504 0.60895 0.32000
O 	O 	0.98803 0.94044 0.66489 -0.58600
C 	C 	0.95030 0.80997 0.58991 0.31600
O 	O 	0.90624 0.03610 0.59796 -0.37200
O 	O 	0.93011 0.94537 0.79273 -0.38400
O 	O 	0.00476 0.85212 0.56992 -0.38800
O 	O 	0.92192 0.82976 0.59518 -0.38200
O 	O 	0.99827 0.98175 0.51999 -0.38800
C 	C 	0.93815 0.92912 0.37807 -0.00200
C 	C 	0.94964 0.93547 0.42520 -0.00900
H 	H 	0.88625 0.89314 0.36017 0.04300
C 	C 	0.89240 0.89234 0.44949 0.07700
C 	C 	0.86849 0.18152 0.58795 0.12100
C 	C 	0.88806 0.13975 0.60950 -0.02700
C 	C 	0.87065 0.10251 0.58104 -0.10700
O 	O 	0.88443 0.21581 0.61711 -0.26800
H 	H 	0.91289 0.13301 0.64956 0.06100
H 	H 	0.92870 0.25908 0.61032 0.14800
C 	C 	0.94337 0.70823 0.62861 0.19100
O 	O 	0.99933 0.73449 0.66737 -0.28600
H 	H 	0.94632 0.62822 0.64680 0.08100
H 	H 	0.97925 0.71514 0.69652 0.14800
C 	C 	0.94585 0.21311 0.04384 -0.03500
O 	O 	0.97776 0.32094 0.02124 -0.27000
H 	H 	0.00033 0.23311 0.05443 0.07300
C 	C 	0.89109 0.75040 0.09864 -0.12000
C 	C 	0.90555 0.70509 0.13424 0.19300
C 	C 	0.87853 0.65038 0.12104 -0.11500
H 	H 	0.89340 0.61794 0.14752 0.07400
