data_crystal

_cell_length_a 26.03376
_cell_length_b 26.38184
_cell_length_c 26.73251
_cell_angle_alpha 95.50434
_cell_angle_beta  95.50366
_cell_angle_gamma 125.83459

_symmetry_space_group_name_	'P 1'
_symmetry_space_group_name_H-M	'P 1'

loop_
_symmetry_equiv_pos_as_xyz
  x,y,z

loop_
_atom_site_label
_atom_site_type_symbol
_atom_site_fract_x
_atom_site_fract_y
_atom_site_fract_z
_atom_site_charge
C 	C 	0.98716 0.04447 0.00577 0.20200
N 	N 	0.95706 0.98087 0.00120 -0.09200
C 	C 	0.99096 0.95707 0.99666 0.21200
N 	N 	0.05523 0.99704 0.99716 -0.12800
C 	C 	0.08572 0.06062 0.00234 0.20300
N 	N 	0.05176 0.08444 0.00669 -0.13500
C 	C 	0.91450 0.98310 0.42926 0.21500
N 	N 	0.97895 0.01401 0.43220 -0.12100
C 	C 	0.00383 0.98098 0.43057 0.20200
N 	N 	0.96410 0.91673 0.42548 -0.13100
C 	C 	0.89974 0.88543 0.42275 0.20500
N 	N 	0.87484 0.91863 0.42506 -0.10100
Cu	Cu	0.66599 0.26906 0.01567 0.93600
Cu	Cu	0.68032 0.23796 0.89835 0.88700
Cu	Cu	0.69613 0.35700 0.93773 0.90700
Cu	Cu	0.69146 0.40155 0.04619 0.91400
C 	C 	0.69447 0.32471 0.12125 0.30300
O 	O 	0.57821 0.24208 0.02747 -0.34500
C 	C 	0.64885 0.29276 0.82798 0.30200
O 	O 	0.72421 0.36562 0.00921 -0.63400
O 	O 	0.64221 0.26436 0.94184 -0.63700
O 	O 	0.69727 0.21556 0.01092 -0.32000
O 	O 	0.75131 0.26115 0.94765 -0.42500
O 	O 	0.70626 0.37908 0.11291 -0.35100
O 	O 	0.75284 0.44785 0.93946 -0.33400
C 	C 	0.76057 0.49050 0.97593 0.33900
C 	C 	0.55637 0.27430 0.01594 0.33100
O 	O 	0.59469 0.32967 0.00267 -0.34000
O 	O 	0.72125 0.47347 0.00900 -0.35400
O 	O 	0.70048 0.28956 0.08722 -0.31700
C 	C 	0.74209 0.22849 0.98418 0.33700
O 	O 	0.68246 0.34684 0.86184 -0.33900
O 	O 	0.63075 0.23902 0.84214 -0.39300
H 	H 	0.77135 0.38855 0.01929 0.18600
H 	H 	0.59559 0.24239 0.92952 0.19000
Cu	Cu	0.71181 0.32218 0.43557 0.93200
Cu	Cu	0.72928 0.29669 0.55128 0.90400
Cu	Cu	0.61502 0.29015 0.50721 0.90700
Cu	Cu	0.57835 0.29671 0.39744 0.91500
C 	C 	0.66343 0.29846 0.32813 0.30700
O 	O 	0.74135 0.41047 0.42635 -0.34300
C 	C 	0.66603 0.31995 0.61841 0.30300
O 	O 	0.61201 0.26345 0.43678 -0.63500
O 	O 	0.71032 0.34122 0.50882 -0.63300
O 	O 	0.76510 0.29017 0.44227 -0.34800
O 	O 	0.70976 0.23056 0.49970 -0.38600
O 	O 	0.60646 0.28411 0.33336 -0.35300
O 	O 	0.52216 0.23462 0.50132 -0.33400
C 	C 	0.48130 0.22644 0.46228 0.34000
C 	C 	0.70579 0.42993 0.43329 0.33400
O 	O 	0.64828 0.39088 0.44386 -0.34700
O 	O 	0.50113 0.26536 0.42928 -0.35800
O 	O 	0.69761 0.29258 0.36370 -0.33700
C 	C 	0.74797 0.24317 0.46675 0.33600
O 	O 	0.61953 0.30703 0.58206 -0.33600
O 	O 	0.72276 0.33955 0.60853 -0.37500
H 	H 	0.58907 0.21700 0.42654 0.18300
H 	H 	0.73381 0.38699 0.52318 0.19100
C 	C 	0.65170 0.25525 0.74008 -0.02900
C 	C 	0.64426 0.29472 0.77263 -0.07000
C 	C 	0.63636 0.33781 0.75235 0.13100
C 	C 	0.64155 0.34455 0.70122 -0.01900
C 	C 	0.65276 0.30750 0.66984 -0.07100
C 	C 	0.65527 0.26099 0.68895 0.12700
Br	Br	0.66257 0.20396 0.64545 -0.21800
H 	H 	0.65626 0.22095 0.75485 0.07300
H 	H 	0.63746 0.37898 0.68612 0.09100
Br	Br	0.61370 0.38413 0.79218 -0.13500
C 	C 	0.63418 0.24962 0.23621 -0.02200
C 	C 	0.67843 0.30101 0.27629 -0.06500
C 	C 	0.73268 0.35707 0.26537 0.12900
C 	C 	0.73969 0.36281 0.21451 -0.02300
C 	C 	0.69282 0.31316 0.17418 -0.05800
C 	C 	0.64102 0.25538 0.18532 0.13000
Br	Br	0.57722 0.18485 0.13176 -0.16500
H 	H 	0.59312 0.20583 0.24450 0.08600
H 	H 	0.78059 0.40675 0.20626 0.09000
Br	Br	0.79616 0.42751 0.31906 -0.16500
C 	C 	0.79657 0.72414 0.45902 -0.12200
C 	C 	0.80187 0.68752 0.42122 0.00900
C 	C 	0.83201 0.71420 0.38038 0.32200
C 	C 	0.85969 0.77803 0.37887 -0.07800
C 	C 	0.85764 0.81581 0.41816 -0.06800
C 	C 	0.82432 0.78810 0.45754 0.35500
C 	C 	0.77731 0.62179 0.42509 0.02400
F 	F 	0.83595 0.67872 0.34290 -0.39700
H 	H 	0.88491 0.79886 0.34815 0.12600
F 	F 	0.82181 0.82396 0.49576 -0.40800
H 	H 	0.77250 0.70354 0.49026 0.12900
C 	C 	0.81970 0.60881 0.44464 0.30300
C 	C 	0.79646 0.54612 0.44697 -0.04900
C 	C 	0.73068 0.49596 0.42995 -0.13400
C 	C 	0.68846 0.50912 0.40996 0.37700
C 	C 	0.71176 0.57179 0.40784 -0.14000
F 	F 	0.88333 0.65693 0.46137 -0.39500
H 	H 	0.82944 0.53665 0.46245 0.10800
F 	F 	0.62518 0.46106 0.39151 -0.43400
H 	H 	0.67895 0.58143 0.39224 0.13300
C 	C 	0.80536 0.14395 0.49318 -0.13200
C 	C 	0.81803 0.13184 0.44545 0.02100
C 	C 	0.80898 0.15750 0.40474 0.29600
C 	C 	0.78712 0.19478 0.41187 -0.04900
C 	C 	0.77447 0.20691 0.45975 -0.13800
C 	C 	0.78453 0.18184 0.50059 0.37600
C 	C 	0.84372 0.09479 0.43913 0.01600
F 	F 	0.82188 0.14683 0.35852 -0.39900
H 	H 	0.77941 0.21359 0.38008 0.11100
F 	F 	0.77527 0.19517 0.54775 -0.43900
H 	H 	0.81256 0.12463 0.52482 0.13800
C 	C 	0.90427 0.11833 0.46719 0.30700
C 	C 	0.92624 0.08106 0.46486 -0.07000
C 	C 	0.88861 0.02021 0.43370 -0.08100
C 	C 	0.82829 0.99696 0.40491 0.37100
C 	C 	0.80588 0.03403 0.40795 -0.12600
F 	F 	0.94170 0.17732 0.49698 -0.40200
H 	H 	0.97267 0.09954 0.48733 0.12100
F 	F 	0.79207 0.93924 0.37326 -0.40500
H 	H 	0.75901 0.01541 0.38629 0.13800
C 	C 	0.17802 0.09782 0.41839 -0.12000
C 	C 	0.20781 0.07840 0.44925 0.01200
C 	C 	0.17067 0.02745 0.47436 0.30500
C 	C 	0.10414 0.99595 0.46840 -0.06700
C 	C 	0.07411 0.01497 0.43718 -0.08500
C 	C 	0.11144 0.06615 0.41215 0.35800
C 	C 	0.27773 0.11094 0.45452 0.02400
F 	F 	0.19900 0.00812 0.50414 -0.40200
H 	H 	0.07591 0.95688 0.48818 0.11800
F 	F 	0.08303 0.08419 0.38086 -0.40900
H 	H 	0.20648 0.13715 0.39891 0.13600
C 	C 	0.30332 0.10454 0.41256 0.29600
C 	C 	0.37006 0.14031 0.41606 -0.05200
C 	C 	0.41176 0.18240 0.46156 -0.13500
C 	C 	0.38611 0.18676 0.50430 0.38200
C 	C 	0.31928 0.15117 0.50068 -0.13400
F 	F 	0.26348 0.06457 0.36809 -0.40100
H 	H 	0.38948 0.13637 0.38305 0.09500
F 	F 	0.42588 0.22759 0.54849 -0.41600
H 	H 	0.29981 0.15610 0.53330 0.13800
C 	C 	0.88143 0.78565 0.01283 -0.11300
C 	C 	0.89933 0.75707 0.97893 0.00900
C 	C 	0.94575 0.79382 0.94964 0.31300
C 	C 	0.97475 0.85889 0.95485 -0.06700
C 	C 	0.95784 0.88787 0.98954 -0.07100
C 	C 	0.91072 0.85079 0.01838 0.36200
C 	C 	0.87045 0.68902 0.97516 0.02400
F 	F 	0.96342 0.76663 0.91673 -0.39800
H 	H 	0.01055 0.88688 0.93207 0.12500
F 	F 	0.89474 0.87819 0.05287 -0.40100
H 	H 	0.84542 0.75745 0.03540 0.13700
C 	C 	0.88383 0.66739 0.01687 0.29800
C 	C 	0.85032 0.60216 0.01575 -0.04900
C 	C 	0.80367 0.55809 0.97286 -0.13600
C 	C 	0.79288 0.57978 0.92996 0.38300
C 	C 	0.82609 0.64508 0.93122 -0.13400
F 	F 	0.92806 0.70958 0.05900 -0.39800
H 	H 	0.85922 0.58577 0.04884 0.09600
F 	F 	0.74788 0.53758 0.88816 -0.41200
H 	H 	0.81590 0.66148 0.89873 0.14200
C 	C 	0.85118 0.05920 0.98038 -0.11500
C 	C 	0.87943 0.12011 0.00847 0.01000
C 	C 	0.94206 0.15505 0.03757 0.31200
C 	C 	0.97672 0.12984 0.03737 -0.07100
C 	C 	0.94933 0.06974 0.00776 -0.06600
C 	C 	0.88602 0.03433 0.97944 0.35200
C 	C 	0.84586 0.14954 0.00311 0.02700
F 	F 	0.96995 0.21410 0.06489 -0.40100
H 	H 	0.02503 0.15723 0.05991 0.11400
F 	F 	0.85918 0.97697 0.94943 -0.39900
H 	H 	0.80287 0.03198 0.95785 0.13300
C 	C 	0.83606 0.16491 0.95608 0.28800
C 	C 	0.80169 0.18994 0.95005 -0.05200
C 	C 	0.77735 0.20081 0.99114 -0.14500
C 	C 	0.78805 0.18632 0.03862 0.38300
C 	C 	0.82191 0.16046 0.04438 -0.13500
F 	F 	0.85986 0.15547 0.91612 -0.40500
H 	H 	0.79370 0.20064 0.91325 0.08800
F 	F 	0.76682 0.19831 0.07931 -0.41300
H 	H 	0.82946 0.14886 0.08086 0.14300
C 	C 	0.40317 0.25938 0.02038 -0.13300
C 	C 	0.35662 0.19311 0.01023 0.02200
C 	C 	0.37576 0.15343 0.00278 0.29500
C 	C 	0.44092 0.17996 0.00477 -0.05000
C 	C 	0.48764 0.24638 0.01451 -0.13500
C 	C 	0.46841 0.28602 0.02293 0.37600
C 	C 	0.28776 0.16527 0.00709 0.01100
F 	F 	0.33120 0.08917 0.99377 -0.40400
H 	H 	0.45500 0.14886 0.99835 0.10500
F 	F 	0.51298 0.35028 0.03458 -0.42700
H 	H 	0.38877 0.29026 0.02643 0.14000
C 	C 	0.26470 0.17090 0.05112 0.31000
C 	C 	0.19860 0.14016 0.04869 -0.07700
C 	C 	0.15515 0.10318 0.00248 -0.07600
C 	C 	0.17852 0.09991 0.95801 0.35400
C 	C 	0.24461 0.13111 0.96030 -0.11900
F 	F 	0.30602 0.20418 0.09657 -0.40400
H 	H 	0.18090 0.14287 0.08316 0.11600
F 	F 	0.13693 0.06487 0.91293 -0.41200
H 	H 	0.26216 0.12748 0.92598 0.13400
