data_crystal

_cell_length_a 19.20148
_cell_length_b 19.17213
_cell_length_c 44.21485
_cell_angle_alpha 89.97564
_cell_angle_beta  90.02419
_cell_angle_gamma 120.03867

_symmetry_space_group_name_	'P 1'
_symmetry_space_group_name_H-M	'P 1'

loop_
_symmetry_equiv_pos_as_xyz
  x,y,z

loop_
_atom_site_label
_atom_site_type_symbol
_atom_site_fract_x
_atom_site_fract_y
_atom_site_fract_z
_atom_site_charge
Cu	Cu	0.70325 0.44128 0.57649 0.93500
Cu	Cu	0.83657 0.50546 0.63033 0.89000
Cu	Cu	0.86757 0.46414 0.56914 0.91200
Cu	Cu	0.79853 0.49635 0.51311 0.91800
C 	C 	0.65871 0.51333 0.52889 0.33000
O 	O 	0.65942 0.33693 0.55248 -0.32800
C 	C 	0.93935 0.43530 0.62005 0.32800
O 	O 	0.81282 0.52046 0.55470 -0.63400
O 	O 	0.78025 0.42239 0.59916 -0.63700
O 	O 	0.65260 0.45692 0.61297 -0.33000
O 	O 	0.77336 0.55604 0.63002 -0.39500
O 	O 	0.69215 0.48936 0.50852 -0.34400
O 	O 	0.95076 0.49627 0.53831 -0.33600
C 	C 	0.97052 0.55458 0.51852 0.33700
C 	C 	0.70228 0.31977 0.53366 0.31400
O 	O 	0.77416 0.37604 0.52469 -0.36400
O 	O 	0.91523 0.56608 0.50562 -0.34500
O 	O 	0.64240 0.48133 0.55613 -0.32800
C 	C 	0.69507 0.51344 0.63271 0.33600
O 	O 	0.91991 0.41689 0.59143 -0.33100
O 	O 	0.92997 0.49167 0.63328 -0.38300
H 	H 	0.84053 0.57835 0.56010 0.18600
H 	H 	0.76058 0.36602 0.60552 0.20300
Cu	Cu	0.42139 0.71187 0.43663 0.93800
Cu	Cu	0.40507 0.79517 0.37402 0.91100
Cu	Cu	0.45997 0.88793 0.43406 0.91000
Cu	Cu	0.47433 0.82158 0.49418 0.91500
C 	C 	0.50385 0.68421 0.48499 0.32900
O 	O 	0.32511 0.66178 0.46478 -0.32100
C 	C 	0.38722 0.92860 0.38220 0.32100
O 	O 	0.50294 0.82788 0.45312 -0.63600
O 	O 	0.38323 0.77898 0.41665 -0.63100
O 	O 	0.43509 0.65833 0.40011 -0.33100
O 	O 	0.49032 0.77308 0.37233 -0.39400
O 	O 	0.47894 0.72157 0.50342 -0.34000
O 	O 	0.53792 0.98843 0.45297 -0.32700
C 	C 	0.55096 0.00029 0.48243 0.29800
C 	C 	0.29963 0.70638 0.47783 0.31700
O 	O 	0.35009 0.78326 0.48249 -0.35400
O 	O 	0.52449 0.93996 0.50202 -0.32900
O 	O 	0.47715 0.66663 0.45693 -0.33100
C 	C 	0.47514 0.69917 0.37614 0.33600
O 	O 	0.43251 0.95385 0.40690 -0.33400
O 	O 	0.34854 0.85213 0.37493 -0.36800
H 	H 	0.56097 0.84908 0.44939 0.19900
H 	H 	0.32686 0.76326 0.42117 0.20300
Cu	Cu	0.49769 0.25227 0.23974 0.93700
Cu	Cu	0.46758 0.33219 0.29916 0.89300
Cu	Cu	0.45222 0.38323 0.23753 0.90600
Cu	Cu	0.42923 0.28869 0.18027 0.91500
C 	C 	0.41999 0.13337 0.19347 0.32700
O 	O 	0.59397 0.30968 0.21204 -0.33000
C 	C 	0.49604 0.49130 0.29001 0.32100
O 	O 	0.40838 0.27465 0.22218 -0.63400
O 	O 	0.52248 0.35275 0.26037 -0.63800
O 	O 	0.48906 0.18954 0.27672 -0.33800
O 	O 	0.39906 0.21865 0.29755 -0.39600
O 	O 	0.43900 0.19112 0.17350 -0.34100
O 	O 	0.37808 0.40783 0.21643 -0.34100
C 	C 	0.35494 0.39170 0.18786 0.33000
C 	C 	0.60849 0.37341 0.19593 0.31700
O 	O 	0.54995 0.38798 0.18954 -0.36100
O 	O 	0.35615 0.33243 0.17306 -0.34700
O 	O 	0.45374 0.14972 0.22040 -0.32200
C 	C 	0.43154 0.17281 0.29630 0.32600
O 	O 	0.48749 0.48381 0.26025 -0.33300
O 	O 	0.51467 0.44491 0.30594 -0.37600
H 	H 	0.35162 0.23759 0.22786 0.19400
H 	H 	0.57996 0.39512 0.26071 0.20400
Cu	Cu	0.21913 0.69702 0.10162 0.93800
Cu	Cu	0.11515 0.62333 0.03992 0.89500
Cu	Cu	0.04104 0.57037 0.09966 0.90200
Cu	Cu	0.10890 0.64443 0.15957 0.91100
C 	C 	0.25451 0.80539 0.15122 0.32900
O 	O 	0.25921 0.63779 0.12785 -0.32400
C 	C 	0.97990 0.46620 0.04640 0.33400
O 	O 	0.10628 0.67230 0.11878 -0.64000
O 	O 	0.14427 0.59856 0.07907 -0.63500
O 	O 	0.27557 0.76582 0.06607 -0.33300
O 	O 	0.15725 0.73564 0.04434 -0.39900
O 	O 	0.21404 0.74309 0.16941 -0.34000
O 	O 	0.94285 0.55235 0.11847 -0.34200
C 	C 	0.93024 0.54846 0.14791 0.33100
C 	C 	0.20907 0.56892 0.14080 0.31800
O 	O 	0.13416 0.55028 0.14548 -0.36200
O 	O 	0.98990 0.58697 0.16746 -0.33700
O 	O 	0.27432 0.79551 0.12365 -0.32400
C 	C 	0.23527 0.78230 0.04615 0.32800
O 	O 	0.97526 0.47239 0.07601 -0.33400
O 	O 	0.04748 0.51156 0.03172 -0.38300
H 	H 	0.08848 0.71204 0.11538 0.19600
H 	H 	0.15656 0.55422 0.07884 0.20700
Cu	Cu	0.22946 0.51405 0.76183 0.93700
Cu	Cu	0.32405 0.49910 0.70298 0.89600
Cu	Cu	0.36116 0.47058 0.76456 0.90800
Cu	Cu	0.26951 0.45074 0.82175 0.91200
C 	C 	0.11030 0.43275 0.80778 0.33700
O 	O 	0.28039 0.61162 0.78952 -0.32700
C 	C 	0.48123 0.52827 0.71617 0.32000
O 	O 	0.25439 0.42719 0.77998 -0.63800
O 	O 	0.33418 0.54521 0.74301 -0.63600
O 	O 	0.16746 0.49895 0.72393 -0.33900
O 	O 	0.21322 0.42127 0.70332 -0.40400
O 	O 	0.16827 0.45419 0.82792 -0.34700
O 	O 	0.37844 0.39066 0.78381 -0.35000
C 	C 	0.37603 0.37868 0.81324 0.33300
C 	C 	0.34374 0.62903 0.80634 0.31700
O 	O 	0.36291 0.57349 0.81212 -0.36100
O 	O 	0.32844 0.39156 0.83126 -0.34700
O 	O 	0.12572 0.46458 0.78043 -0.32800
C 	C 	0.16041 0.44534 0.70388 0.33400
O 	O 	0.46649 0.51163 0.74527 -0.33000
O 	O 	0.43804 0.55022 0.69985 -0.37300
H 	H 	0.21772 0.36984 0.77487 0.19700
H 	H 	0.37612 0.60269 0.74475 0.20600
Cu	Cu	0.67389 0.23939 0.90151 0.93700
Cu	Cu	0.57674 0.15968 0.96452 0.90800
Cu	Cu	0.54001 0.06247 0.90537 0.90400
Cu	Cu	0.62531 0.12474 0.84509 0.91300
C 	C 	0.78732 0.26800 0.85435 0.32900
O 	O 	0.62358 0.28150 0.87179 -0.33000
C 	C 	0.42778 0.02274 0.95748 0.29100
O 	O 	0.64422 0.12316 0.88691 -0.63400
O 	O 	0.56954 0.17185 0.92161 -0.63400
O 	O 	0.73897 0.29785 0.93771 -0.33600
O 	O 	0.68514 0.18521 0.96663 -0.39700
O 	O 	0.72620 0.22787 0.83574 -0.34300
O 	O 	0.51868 0.96118 0.88731 -0.34100
C 	C 	0.51946 0.94781 0.85795 0.34600
C 	C 	0.55539 0.23317 0.85796 0.31500
O 	O 	0.53376 0.15719 0.85356 -0.35700
O 	O 	0.56664 0.00563 0.83886 -0.36400
O 	O 	0.77609 0.28672 0.88192 -0.32900
C 	C 	0.74229 0.25924 0.96168 0.33600
O 	O 	0.44608 0.99737 0.93239 -0.31300
O 	O 	0.46343 0.09960 0.96402 -0.36500
H 	H 	0.68208 0.10414 0.89216 0.19400
H 	H 	0.52900 0.18763 0.91678 0.19800
C 	C 	0.34901 0.73973 0.83800 0.10600
C 	C 	0.38950 0.70919 0.82071 -0.09800
C 	C 	0.47387 0.75526 0.81750 0.10400
C 	C 	0.51712 0.83028 0.83219 0.10900
C 	C 	0.47544 0.86401 0.84675 -0.09800
C 	C 	0.39097 0.81938 0.84871 0.10500
Br	Br	0.33218 0.86980 0.86314 -0.13100
Br	Br	0.23853 0.67034 0.84973 -0.13300
Br	Br	0.63301 0.88449 0.83380 -0.12800
Br	Br	0.52965 0.71833 0.79154 -0.15400
C 	C 	0.98796 0.30690 0.82429 0.12700
C 	C 	0.02647 0.39016 0.81834 -0.11700
C 	C 	0.98545 0.43288 0.82334 0.13100
C 	C 	0.90735 0.39305 0.83551 0.10400
C 	C 	0.86914 0.30988 0.84177 -0.08800
C 	C 	0.90923 0.26672 0.83595 0.10100
Br	Br	0.85677 0.15290 0.84466 -0.16600
Br	Br	0.04278 0.24781 0.81590 -0.18300
Br	Br	0.85297 0.45257 0.84389 -0.11300
Br	Br	0.03601 0.54585 0.81334 -0.12700
C 	C 	0.50418 0.37767 0.82003 0.10800
C 	C 	0.42113 0.34169 0.82574 -0.09700
C 	C 	0.38079 0.26717 0.84112 0.10800
C 	C 	0.42481 0.23198 0.85234 0.10400
C 	C 	0.50715 0.26630 0.84507 -0.10000
C 	C 	0.54478 0.33603 0.82698 0.10800
Br	Br	0.64783 0.36896 0.80876 -0.12700
Br	Br	0.56370 0.48657 0.80496 -0.13500
Br	Br	0.37290 0.13881 0.87838 -0.17300
Br	Br	0.26515 0.21062 0.84501 -0.14400
C 	C 	0.92332 0.34481 0.01329 0.11800
C 	C 	0.91183 0.40072 0.03008 -0.09700
C 	C 	0.83927 0.40180 0.02722 0.10500
C 	C 	0.78223 0.35297 0.00546 0.11200
C 	C 	0.79845 0.30440 0.98619 -0.10700
C 	C 	0.86771 0.29827 0.99072 0.10900
Br	Br	0.88755 0.22826 0.96534 -0.14600
Br	Br	0.01362 0.33023 0.02204 -0.15100
Br	Br	0.68170 0.35233 0.00202 -0.19800
Br	Br	0.81969 0.47288 0.05212 -0.15400
C 	C 	0.29985 0.89858 0.97207 0.10400
C 	C 	0.37516 0.96376 0.98037 -0.08300
C 	C 	0.40016 0.97236 0.01087 0.11400
C 	C 	0.34735 0.91965 0.03280 0.11200
C 	C 	0.27878 0.84744 0.02377 -0.10500
C 	C 	0.25637 0.83601 0.99282 0.11200
Br	Br	0.17422 0.73266 0.97786 -0.21300
Br	Br	0.25170 0.89965 0.93401 -0.10600
Br	Br	0.36494 0.95050 0.07486 -0.12700
Br	Br	0.50932 0.04915 0.02225 -0.23600
C 	C 	0.71545 0.38289 0.16141 0.10800
C 	C 	0.68755 0.42107 0.18122 -0.09700
C 	C 	0.73782 0.50295 0.18861 0.10600
C 	C 	0.81612 0.54599 0.17646 0.10800
C 	C 	0.84652 0.50528 0.15912 -0.09200
C 	C 	0.79615 0.42320 0.15200 0.10900
Br	Br	0.83908 0.36423 0.13137 -0.13800
Br	Br	0.64186 0.27709 0.14576 -0.13400
Br	Br	0.87954 0.66108 0.18206 -0.12900
Br	Br	0.70067 0.55527 0.21622 -0.15900
C 	C 	0.33366 0.46643 0.14573 0.10700
C 	C 	0.31107 0.42909 0.17432 -0.09400
C 	C 	0.24748 0.42918 0.19016 0.11200
C 	C 	0.21735 0.47871 0.18032 0.10900
C 	C 	0.23830 0.51459 0.15131 -0.09700
C 	C 	0.29239 0.50301 0.13325 0.11000
Br	Br	0.30502 0.53081 0.09089 -0.16900
Br	Br	0.42401 0.47197 0.12445 -0.15400
Br	Br	0.15600 0.50445 0.20810 -0.16400
Br	Br	0.19502 0.35443 0.22288 -0.14100
C 	C 	0.29387 0.00891 0.17845 0.08700
C 	C 	0.37767 0.04906 0.18308 -0.08100
C 	C 	0.42031 0.00765 0.17879 0.09400
C 	C 	0.37905 0.92618 0.16998 0.13500
C 	C 	0.29573 0.88698 0.16425 -0.10100
C 	C 	0.25300 0.92806 0.16884 0.12800
Br	Br	0.13865 0.87378 0.16146 -0.17300
Br	Br	0.23502 0.06449 0.18576 -0.18600
Br	Br	0.43612 0.86752 0.16650 -0.11300
Br	Br	0.53548 0.06311 0.18415 -0.11400
C 	C 	0.40568 0.98087 0.32920 0.12000
C 	C 	0.39093 0.98794 0.36002 -0.08900
C 	C 	0.37989 0.05201 0.36928 0.09500
C 	C 	0.39658 0.11508 0.34900 0.11000
C 	C 	0.40709 0.10544 0.31786 -0.10300
C 	C 	0.40273 0.03355 0.30802 0.09800
Br	Br	0.38242 0.00200 0.26619 -0.15000
Br	Br	0.44039 0.90695 0.31632 -0.21200
Br	Br	0.41321 0.21623 0.36465 -0.20200
Br	Br	0.33224 0.04836 0.40795 -0.13300
C 	C 	0.41832 0.60900 0.33143 0.11100
C 	C 	0.48446 0.65612 0.35038 -0.10900
C 	C 	0.55932 0.66219 0.34451 0.11100
C 	C 	0.56604 0.61567 0.32129 0.10700
C 	C 	0.49709 0.56021 0.30512 -0.09200
C 	C 	0.42457 0.56084 0.30883 0.10000
Br	Br	0.33284 0.49288 0.28394 -0.14900
Br	Br	0.31910 0.61016 0.33663 -0.19600
Br	Br	0.66945 0.62838 0.31123 -0.12800
Br	Br	0.65159 0.73191 0.36890 -0.14000
C 	C 	0.59330 0.20939 0.50317 0.10600
C 	C 	0.66531 0.23895 0.51977 -0.09600
C 	C 	0.70183 0.19124 0.52288 0.10600
C 	C 	0.66688 0.11488 0.50897 0.10300
C 	C 	0.59203 0.08347 0.49418 -0.08900
C 	C 	0.55395 0.12980 0.49240 0.10300
Br	Br	0.44475 0.08168 0.47812 -0.14600
Br	Br	0.55198 0.27968 0.49302 -0.13600
Br	Br	0.72221 0.05419 0.50956 -0.15500
Br	Br	0.79724 0.22861 0.54734 -0.15400
C 	C 	0.07123 0.58476 0.47759 0.10800
C 	C 	0.05371 0.59857 0.50717 -0.10400
C 	C 	0.11661 0.64899 0.52683 0.11400
C 	C 	0.19708 0.68071 0.51778 0.11100
C 	C 	0.21492 0.66981 0.48777 -0.09500
C 	C 	0.15148 0.62262 0.46752 0.10800
Br	Br	0.17376 0.61076 0.42585 -0.17600
Br	Br	0.98563 0.51065 0.45134 -0.13800
Br	Br	0.28206 0.73169 0.54733 -0.15500
Br	Br	0.09228 0.67649 0.56587 -0.18100
C 	C 	0.66528 0.63942 0.51051 0.10600
C 	C 	0.61867 0.55761 0.51866 -0.09600
C 	C 	0.53397 0.51858 0.51711 0.11100
C 	C 	0.49626 0.56131 0.50727 0.10900
C 	C 	0.54304 0.64220 0.49811 -0.09400
C 	C 	0.62746 0.68151 0.50002 0.10600
Br	Br	0.69109 0.79290 0.48802 -0.15600
Br	Br	0.78086 0.69407 0.51435 -0.17600
Br	Br	0.38036 0.50933 0.50650 -0.12600
Br	Br	0.46962 0.40604 0.52751 -0.11900
C 	C 	0.01939 0.37433 0.68479 0.09900
C 	C 	0.10220 0.42313 0.67903 -0.10700
C 	C 	0.12874 0.45505 0.64982 0.11200
C 	C 	0.07228 0.44590 0.62764 0.10000
C 	C 	0.99019 0.40886 0.63520 -0.08500
C 	C 	0.96330 0.36618 0.66259 0.11000
Br	Br	0.84957 0.30058 0.67011 -0.16700
Br	Br	0.98315 0.32078 0.72330 -0.13800
Br	Br	0.10749 0.48738 0.58739 -0.12800
Br	Br	0.24225 0.51631 0.64089 -0.22000
C 	C 	0.56072 0.46374 0.70080 0.10200
C 	C 	0.55369 0.53339 0.70265 -0.09100
C 	C 	0.60719 0.60266 0.68618 0.10700
C 	C 	0.65524 0.59723 0.66337 0.11000
C 	C 	0.65536 0.52446 0.65919 -0.11100
C 	C 	0.61342 0.46033 0.67959 0.10900
Br	Br	0.62954 0.36875 0.67875 -0.18100
Br	Br	0.49464 0.37130 0.72582 -0.15700
Br	Br	0.71611 0.68718 0.63662 -0.13900
Br	Br	0.61566 0.70485 0.69548 -0.12500
