data_crystal

_cell_length_a 49.21968
_cell_length_b 47.04283
_cell_length_c 22.59925
_cell_angle_alpha 89.96452
_cell_angle_beta  89.94763
_cell_angle_gamma 89.99802

_symmetry_space_group_name_	'P 1'
_symmetry_space_group_name_H-M	'P 1'

loop_
_symmetry_equiv_pos_as_xyz
  x,y,z

loop_
_atom_site_label
_atom_site_type_symbol
_atom_site_fract_x
_atom_site_fract_y
_atom_site_fract_z
_atom_site_charge
C 	C 	0.53826 0.47594 0.11369 0.09900
N 	N 	0.51167 0.47583 0.09975 -0.17400
C 	C 	0.50092 0.45250 0.12517 0.09900
C 	C 	0.47479 0.44007 0.10562 -0.07500
C 	C 	0.45092 0.45864 0.09652 0.08700
C 	C 	0.47209 0.40899 0.09751 0.03600
C 	C 	0.48792 0.39489 0.05502 -0.05100
C 	C 	0.48423 0.36580 0.04503 -0.04100
C 	C 	0.46466 0.35063 0.07742 0.02500
C 	C 	0.45291 0.39371 0.13069 -0.05000
N 	N 	0.44924 0.48512 0.11899 -0.12800
C 	C 	0.43167 0.45436 0.05288 -0.06100
C 	C 	0.42831 0.49747 0.09039 0.08900
C 	C 	0.42297 0.52837 0.09250 -0.07600
C 	C 	0.39526 0.53907 0.08046 0.04500
C 	C 	0.34678 0.53749 0.09976 -0.03300
C 	C 	0.39076 0.55838 0.03413 -0.06500
C 	C 	0.36431 0.56704 0.02038 -0.00800
C 	C 	0.34222 0.55635 0.05273 0.00800
N 	N 	0.47023 0.54659 0.08838 -0.17200
C 	C 	0.48201 0.57195 0.09870 0.09500
C 	C 	0.46411 0.58994 0.12765 -0.06000
C 	C 	0.44032 0.57476 0.13511 -0.06400
C 	C 	0.50684 0.58146 0.06729 -0.05600
C 	C 	0.51019 0.61160 0.04999 0.00200
C 	C 	0.53585 0.65558 0.05467 -0.07500
C 	C 	0.51840 0.66787 0.01284 0.09400
C 	C 	0.49657 0.65209 0.99024 -0.13000
C 	C 	0.49251 0.62399 0.00865 0.02900
N 	N 	0.53345 0.53838 0.09310 -0.12600
C 	C 	0.56016 0.53547 0.01225 -0.04400
C 	C 	0.55239 0.52278 0.06480 0.08300
C 	C 	0.55851 0.49299 0.08059 -0.07400
C 	C 	0.58574 0.48124 0.06766 0.04800
C 	C 	0.60897 0.49449 0.09064 -0.06000
C 	C 	0.63478 0.48423 0.07636 -0.02400
C 	C 	0.63761 0.46056 0.03910 -0.01000
C 	C 	0.61435 0.44706 0.01670 0.00200
C 	C 	0.58850 0.45739 0.03088 -0.06900
C 	C 	0.54461 0.45260 0.14848 -0.06300
C 	C 	0.52071 0.43759 0.15580 -0.06300
C 	C 	0.44920 0.36466 0.12066 -0.04200
C 	C 	0.41715 0.47930 0.04897 -0.06100
C 	C 	0.44484 0.54822 0.11036 0.10100
C 	C 	0.54555 0.56037 0.00843 -0.04000
C 	C 	0.52967 0.56150 0.05885 0.07700
C 	C 	0.53174 0.62759 0.07324 -0.02000
H 	H 	0.50348 0.48598 0.06268 0.09300
H 	H 	0.47619 0.53262 0.05483 0.09300
H 	H 	0.65261 0.49487 0.09366 0.03900
H 	H 	0.61632 0.42871 0.98807 0.01300
H 	H 	0.60701 0.51286 0.11922 0.04900
H 	H 	0.57066 0.44705 0.01291 0.05100
H 	H 	0.49636 0.35513 0.01174 0.04400
H 	H 	0.44070 0.40441 0.16378 0.04600
H 	H 	0.43400 0.35316 0.14578 0.04300
H 	H 	0.50278 0.40653 0.02923 0.04500
H 	H 	0.36095 0.58165 0.98404 0.01600
H 	H 	0.40768 0.56632 0.00826 0.05100
C 	C 	0.37319 0.52893 0.11365 -0.05600
H 	H 	0.32982 0.52924 0.12510 0.04200
H 	H 	0.55267 0.66769 0.07254 0.05600
H 	H 	0.54539 0.61825 0.10542 0.04000
H 	H 	0.47584 0.61179 0.99041 0.00700
H 	H 	0.48297 0.66146 0.95802 0.05700
H 	H 	0.56471 0.44352 0.15309 0.04900
H 	H 	0.51967 0.41521 0.16675 0.04900
H 	H 	0.43341 0.43891 0.01759 0.05000
H 	H 	0.40591 0.48602 0.01025 0.05000
H 	H 	0.46542 0.61291 0.12784 0.04900
H 	H 	0.42054 0.58431 0.14176 0.04900
H 	H 	0.56873 0.52432 0.97473 0.02700
H 	H 	0.54112 0.57143 0.96753 0.02600
H 	H 	0.37649 0.51417 0.14976 0.04800
Zn	Zn	0.39516 0.09817 0.98203 1.21700
C 	C 	0.34579 0.06542 0.97709 0.32300
O 	O 	0.39391 0.08092 0.06121 -0.43600
O 	O 	0.35967 0.04283 0.99303 -0.46000
O 	O 	0.41807 0.04216 0.03182 -0.50400
C 	C 	0.40791 0.07438 0.86760 0.32500
O 	O 	0.41533 0.09274 0.90824 -0.46900
O 	O 	0.39281 0.05261 0.88265 -0.50000
C 	C 	0.40854 0.05845 0.07411 0.33800
O 	O 	0.43173 0.12737 0.01269 -0.32600
Zn	Zn	0.39779 0.03508 0.95942 1.16600
O 	O 	0.35848 0.08767 0.95518 -0.44300
C 	C 	0.41393 0.14775 0.01204 0.31500
O 	O 	0.38959 0.14039 0.99682 -0.41100
C 	C 	0.51785 0.00671 0.52496 0.01100
C 	C 	0.49488 0.02505 0.52305 0.01000
C 	C 	0.52095 0.98533 0.48206 -0.05600
C 	C 	0.50146 0.98212 0.43710 0.01100
C 	C 	0.47526 0.02160 0.47854 -0.05500
C 	C 	0.47838 0.00028 0.43556 0.00800
H 	H 	0.45770 0.03547 0.47728 0.04900
H 	H 	0.53840 0.97132 0.48357 0.05000
C 	C 	0.45887 0.99639 0.39051 -0.01300
C 	C 	0.46323 0.97714 0.34403 0.00500
C 	C 	0.44841 0.98415 0.29183 -0.05700
C 	C 	0.43290 0.00895 0.29779 0.00300
S 	S 	0.43808 0.02173 0.36558 -0.01500
H 	H 	0.45153 0.97388 0.24958 0.04200
C 	C 	0.50425 0.96097 0.39314 -0.01500
C 	C 	0.48617 0.95936 0.34523 0.00700
C 	C 	0.49776 0.94623 0.29425 -0.05400
C 	C 	0.52486 0.93803 0.30230 0.00500
S 	S 	0.53384 0.94744 0.37074 -0.00300
H 	H 	0.48819 0.94623 0.25120 0.04200
C 	C 	0.53325 0.03049 0.61555 0.00700
C 	C 	0.53747 0.01091 0.56969 -0.01500
S 	S 	0.55942 0.98643 0.59385 -0.00200
C 	C 	0.56541 0.00050 0.66044 0.00500
C 	C 	0.54897 0.02457 0.66695 -0.05700
C 	C 	0.49245 0.04673 0.56603 -0.01400
C 	C 	0.51045 0.04838 0.61402 0.00600
C 	C 	0.49905 0.06214 0.66445 -0.05500
C 	C 	0.47220 0.07111 0.65555 0.00400
S 	S 	0.46320 0.06138 0.58731 -0.00400
H 	H 	0.50836 0.06187 0.70777 0.03900
H 	H 	0.54657 0.03556 0.70865 0.04000
Zn	Zn	0.60306 0.91374 0.97650 1.21600
C 	C 	0.65433 0.94329 0.99157 0.31200
O 	O 	0.58101 0.92098 0.04770 -0.45100
O 	O 	0.64233 0.96674 0.97379 -0.45900
O 	O 	0.60530 0.95937 0.07683 -0.48600
C 	C 	0.59545 0.95399 0.88322 0.33500
O 	O 	0.60793 0.93040 0.89812 -0.45900
O 	O 	0.58509 0.97056 0.92407 -0.52200
C 	C 	0.58899 0.93825 0.08981 0.32300
O 	O 	0.56628 0.88757 0.93652 -0.33500
Zn	Zn	0.60336 0.97673 0.99914 1.16500
O 	O 	0.63967 0.92127 0.00809 -0.41900
C 	C 	0.58095 0.86536 0.94863 0.28900
O 	O 	0.60436 0.87064 0.97221 -0.39700
Zn	Zn	0.09543 0.60241 0.95112 1.21800
C 	C 	0.05504 0.64580 0.97041 0.33200
O 	O 	0.08316 0.59329 0.03199 -0.43500
O 	O 	0.03819 0.62550 0.98633 -0.46600
O 	O 	0.04965 0.56301 0.00289 -0.50400
C 	C 	0.06919 0.59111 0.83883 0.32400
O 	O 	0.09134 0.58793 0.87050 -0.45500
O 	O 	0.04712 0.60121 0.86355 -0.50500
C 	C 	0.06688 0.57184 0.04310 0.33800
O 	O 	0.13047 0.56850 0.96135 -0.34000
Zn	Zn	0.03600 0.58769 0.94070 1.16500
O 	O 	0.07746 0.63946 0.94151 -0.44400
C 	C 	0.14641 0.59030 0.96686 0.29800
O 	O 	0.13470 0.61490 0.96366 -0.39200
C 	C 	0.02350 0.48330 0.49958 0.01000
C 	C 	0.00194 0.46310 0.50154 0.01000
C 	C 	0.03564 0.49022 0.44512 -0.05500
C 	C 	0.02694 0.47673 0.39293 0.01100
C 	C 	0.99177 0.45152 0.44879 -0.05500
C 	C 	0.00436 0.45787 0.39459 0.01000
H 	H 	0.97555 0.43596 0.45031 0.05000
H 	H 	0.05307 0.50430 0.44406 0.05000
C 	C 	0.99699 0.44321 0.34259 -0.01300
C 	C 	0.01138 0.44683 0.28945 0.00800
C 	C 	0.99559 0.44020 0.23848 -0.05600
C 	C 	0.96894 0.43201 0.25213 0.01100
S 	S 	0.96529 0.43383 0.32539 -0.00800
H 	H 	0.00207 0.44464 0.19369 0.04400
C 	C 	0.04201 0.47902 0.33997 -0.01400
C 	C 	0.03445 0.46440 0.28854 0.00800
C 	C 	0.04592 0.47625 0.23623 -0.05300
C 	C 	0.06156 0.50054 0.24698 0.00600
S 	S 	0.06052 0.50711 0.31963 -0.00300
H 	H 	0.04065 0.46942 0.19203 0.04300
C 	C 	0.02352 0.48502 0.60825 0.00600
C 	C 	0.03427 0.49366 0.55345 -0.01300
S 	S 	0.04744 0.52614 0.56259 -0.01400
C 	C 	0.03978 0.53030 0.63404 0.00100
C 	C 	0.02702 0.50552 0.65373 -0.05600
C 	C 	0.99339 0.45279 0.55714 -0.01300
C 	C 	0.00401 0.46341 0.61000 0.00700
C 	C 	0.98793 0.45661 0.66018 -0.05200
C 	C 	0.96469 0.44108 0.64558 0.00600
S 	S 	0.96369 0.43709 0.57214 -0.00800
H 	H 	0.99220 0.46397 0.70454 0.03900
H 	H 	0.02089 0.50230 0.69924 0.03700
Zn	Zn	0.88549 0.40426 0.94898 1.21800
C 	C 	0.83329 0.43205 0.95407 0.32900
O 	O 	0.88139 0.41629 0.86624 -0.45100
O 	O 	0.84473 0.45374 0.92716 -0.45900
O 	O 	0.90200 0.45911 0.87913 -0.51400
C 	C 	0.89859 0.43667 0.05365 0.32700
O 	O 	0.90607 0.41591 0.01853 -0.45600
O 	O 	0.88165 0.45612 0.03468 -0.48500
C 	C 	0.89570 0.43751 0.84499 0.33500
O 	O 	0.92471 0.37801 0.92327 -0.33300
Zn	Zn	0.88258 0.46792 0.95220 1.16500
O 	O 	0.84851 0.41209 0.97775 -0.45200
C 	C 	0.90930 0.35583 0.92963 0.28800
O 	O 	0.88440 0.36106 0.94462 -0.39300
C 	C 	0.99027 0.94897 0.14750 0.10000
N 	N 	0.97893 0.97249 0.12425 -0.17300
C 	C 	0.95269 0.97246 0.14121 0.10000
C 	C 	0.93170 0.98968 0.11088 -0.07700
C 	C 	0.93763 0.01936 0.09392 0.09300
C 	C 	0.90416 0.97806 0.10098 0.04200
C 	C 	0.90041 0.95460 0.06356 -0.05700
C 	C 	0.87416 0.94519 0.05020 -0.03100
C 	C 	0.85149 0.95927 0.07398 0.00500
C 	C 	0.88153 0.99160 0.12606 -0.05500
N 	N 	0.95764 0.03475 0.11898 -0.12700
C 	C 	0.92846 0.03197 0.04239 -0.07500
C 	C 	0.96073 0.05764 0.08374 0.07300
C 	C 	0.98411 0.07718 0.08820 -0.05600
C 	C 	0.98122 0.10680 0.06749 0.00100
C 	C 	0.95821 0.15233 0.07270 -0.07600
C 	C 	0.99641 0.11652 0.01899 0.03000
C 	C 	0.99227 0.14397 0.99692 -0.12900
C 	C 	0.97301 0.16189 0.02348 0.09500
N 	N 	0.02078 0.04244 0.10922 -0.17100
C 	C 	0.04651 0.04433 0.12913 0.10200
C 	C 	0.05142 0.07123 0.15175 -0.06400
C 	C 	0.02755 0.08634 0.14516 -0.05900
C 	C 	0.06812 0.02438 0.11028 -0.07800
C 	C 	0.09564 0.03501 0.09640 0.04800
C 	C 	0.14400 0.03553 0.11685 -0.02500
C 	C 	0.14854 0.05137 0.06516 -0.00800
C 	C 	0.12644 0.05960 0.02989 0.00100
C 	C 	0.10005 0.05150 0.04556 -0.07000
N 	N 	0.04175 0.98131 0.13760 -0.12900
C 	C 	0.05915 0.95035 0.07163 -0.06100
C 	C 	0.03986 0.95483 0.11521 0.08800
C 	C 	0.01572 0.93659 0.12401 -0.07400
C 	C 	0.01731 0.90589 0.11057 0.03800
C 	C 	0.03595 0.88861 0.14074 -0.05100
C 	C 	0.03839 0.85987 0.12613 -0.04000
C 	C 	0.02224 0.84820 0.08117 0.02100
C 	C 	0.00337 0.86540 0.05146 -0.04000
C 	C 	0.00088 0.89414 0.06619 -0.05200
C 	C 	0.97121 0.93375 0.17972 -0.06300
C 	C 	0.94717 0.94879 0.17573 -0.06400
C 	C 	0.85532 0.98230 0.11253 -0.03200
C 	C 	0.94330 0.05658 0.03586 -0.02700
C 	C 	0.00919 0.06796 0.11884 0.09500
C 	C 	0.07388 0.97515 0.06768 -0.06100
C 	C 	0.06281 0.99347 0.10900 0.08900
C 	C 	0.11766 0.02735 0.13235 -0.06100
H 	H 	0.98623 0.98289 0.08656 0.09300
H 	H 	0.01437 0.02808 0.07683 0.09300
H 	H 	0.05300 0.84673 0.14931 0.04300
H 	H 	0.99074 0.85652 0.01685 0.04300
H 	H 	0.04865 0.89751 0.17521 0.04600
H 	H 	0.98643 0.90735 0.04270 0.04500
H 	H 	0.87143 0.92727 0.02071 0.04100
H 	H 	0.88426 0.00965 0.15522 0.04700
H 	H 	0.83797 0.99338 0.13096 0.04000
H 	H 	0.91779 0.94401 0.04403 0.04500
H 	H 	0.00384 0.15122 0.95900 0.05800
H 	H 	0.01110 0.10267 0.99789 0.00700
C 	C 	0.96228 0.12489 0.09456 -0.02000
H 	H 	0.94330 0.16603 0.09344 0.05400
H 	H 	0.16095 0.02907 0.14431 0.03900
H 	H 	0.11439 0.01472 0.17182 0.04900
H 	H 	0.08312 0.05754 0.01764 0.05200
H 	H 	0.12975 0.07191 0.99000 0.01500
H 	H 	0.97249 0.91125 0.18939 0.04800
H 	H 	0.92721 0.93962 0.18216 0.04900
H 	H 	0.91860 0.02078 0.00648 0.05400
H 	H 	0.94664 0.06735 0.99414 0.02100
H 	H 	0.07131 0.08085 0.15601 0.05000
H 	H 	0.02634 0.10931 0.14361 0.04900
H 	H 	0.05732 0.93494 0.03628 0.05000
H 	H 	0.08516 0.98175 0.02888 0.05000
H 	H 	0.95053 0.11756 0.13215 0.03900
C 	C 	0.94122 0.27219 0.94459 0.06400
N 	N 	0.95784 0.29527 0.94864 -0.12100
C 	C 	0.94821 0.32216 0.94120 0.06300
C 	C 	0.92047 0.32675 0.93039 -0.10400
C 	C 	0.90324 0.30327 0.92428 0.03000
C 	C 	0.91358 0.27591 0.93152 -0.08300
H 	H 	0.96196 0.34000 0.94565 0.02900
H 	H 	0.88182 0.30620 0.91517 0.03100
H 	H 	0.90005 0.25778 0.92909 0.04800
C 	C 	0.96768 0.19034 0.99883 -0.08600
C 	C 	0.95421 0.19326 0.94468 0.00400
C 	C 	0.94624 0.22017 0.92546 -0.06900
C 	C 	0.95168 0.24396 0.96096 0.04000
N 	N 	0.96589 0.24079 0.01227 -0.10200
C 	C 	0.97387 0.21472 0.03176 0.06500
H 	H 	0.94932 0.17471 0.91839 0.02400
H 	H 	0.93553 0.22249 0.88388 0.04400
H 	H 	0.98453 0.21287 0.07349 0.02400
C 	C 	0.90680 0.43613 0.78430 -0.11800
C 	C 	0.91938 0.41111 0.76334 0.10700
C 	C 	0.93641 0.41241 0.71351 -0.09500
C 	C 	0.94102 0.43833 0.68478 0.01000
C 	C 	0.92599 0.46251 0.70137 0.03200
C 	C 	0.90857 0.46114 0.75062 -0.01100
H 	H 	0.94730 0.39355 0.69942 0.05400
H 	H 	0.89737 0.47989 0.76416 0.02800
N 	N 	0.91600 0.38468 0.79454 -0.14000
N 	N 	0.92790 0.48821 0.66695 -0.13500
C 	C 	0.89601 0.36666 0.76486 -0.08900
H 	H 	0.87612 0.37776 0.76161 0.06000
H 	H 	0.89298 0.34697 0.79116 0.05200
H 	H 	0.90316 0.36058 0.71991 0.04600
C 	C 	0.94145 0.51094 0.69991 -0.08800
H 	H 	0.92814 0.51904 0.73592 0.03400
H 	H 	0.94599 0.52878 0.66930 0.04400
H 	H 	0.96098 0.50349 0.71903 0.04300
H 	H 	0.93459 0.37402 0.79822 0.08300
H 	H 	0.90852 0.49475 0.65368 0.07400
C 	C 	0.94612 0.43584 0.21067 0.00700
C 	C 	0.92858 0.41307 0.19817 0.03900
C 	C 	0.91088 0.41480 0.14956 -0.00900
C 	C 	0.91085 0.43892 0.11297 -0.11300
C 	C 	0.92681 0.46284 0.12902 0.10200
C 	C 	0.94378 0.46124 0.17859 -0.08800
H 	H 	0.89827 0.39669 0.13835 0.04200
H 	H 	0.95625 0.47936 0.19023 0.05300
N 	N 	0.92980 0.38751 0.23308 -0.13500
N 	N 	0.92658 0.48861 0.09457 -0.15200
C 	C 	0.90696 0.38621 0.27446 -0.09200
H 	H 	0.90668 0.40529 0.30346 0.05400
H 	H 	0.90922 0.36717 0.30309 0.05000
H 	H 	0.88735 0.38452 0.25029 0.04900
C 	C 	0.94589 0.48730 0.04537 -0.08700
H 	H 	0.96672 0.48289 0.06198 0.04500
H 	H 	0.94625 0.50815 0.02236 0.02100
H 	H 	0.93994 0.47075 0.01284 0.01500
H 	H 	0.92991 0.36956 0.20570 0.08100
H 	H 	0.90711 0.49446 0.08082 0.06400
C 	C 	0.03833 0.73184 0.01668 0.08600
N 	N 	0.06318 0.72421 0.99537 -0.13400
C 	C 	0.06886 0.69686 0.98005 0.07900
C 	C 	0.04885 0.67571 0.98543 -0.14700
C 	C 	0.02299 0.68334 0.00607 0.07200
C 	C 	0.01768 0.71145 0.02160 -0.09900
H 	H 	0.08898 0.69155 0.96416 0.02900
H 	H 	0.00702 0.66760 0.00989 0.01900
H 	H 	0.99763 0.71740 0.03708 0.05400
C 	C 	0.02542 0.81810 0.06462 -0.03400
C 	C 	0.01797 0.79660 0.10417 -0.00800
C 	C 	0.02190 0.76823 0.08861 -0.06700
C 	C 	0.03321 0.76160 0.03328 0.06500
N 	N 	0.04051 0.78288 0.99553 -0.13600
C 	C 	0.03673 0.81071 0.00980 0.06900
H 	H 	0.00932 0.80185 0.14689 0.03200
H 	H 	0.01655 0.75153 0.11953 0.04700
H 	H 	0.04280 0.82711 0.97884 0.00500
C 	C 	0.06783 0.57952 0.77803 -0.12000
C 	C 	0.08121 0.55388 0.76330 0.10200
C 	C 	0.07455 0.53977 0.71051 -0.09300
C 	C 	0.05380 0.55016 0.67398 0.00300
C 	C 	0.04265 0.57731 0.68541 0.03200
C 	C 	0.04990 0.59185 0.73712 -0.01400
H 	H 	0.08396 0.51949 0.70052 0.05300
H 	H 	0.04055 0.61219 0.74678 0.04300
N 	N 	0.10065 0.54149 0.80330 -0.13900
N 	N 	0.02343 0.59011 0.64542 -0.13800
C 	C 	0.08812 0.51900 0.83881 -0.08000
H 	H 	0.07042 0.52739 0.86394 0.02000
H 	H 	0.10317 0.51090 0.87127 0.04300
H 	H 	0.08152 0.50101 0.81033 0.03700
C 	C 	0.03742 0.60478 0.59712 -0.09200
H 	H 	0.05048 0.62206 0.61488 0.05200
H 	H 	0.02215 0.61453 0.56720 0.04700
H 	H 	0.05003 0.58976 0.57093 0.05100
H 	H 	0.11736 0.53350 0.77992 0.08000
H 	H 	0.00928 0.57546 0.62924 0.07500
C 	C 	0.06779 0.55760 0.10090 -0.11400
C 	C 	0.08979 0.53984 0.11568 0.10900
C 	C 	0.08847 0.52297 0.16695 -0.09300
C 	C 	0.06505 0.52296 0.20222 0.01100
C 	C 	0.04346 0.54151 0.18860 0.03400
C 	C 	0.04519 0.55913 0.13850 -0.01000
H 	H 	0.10514 0.50878 0.17755 0.05600
H 	H 	0.02849 0.57324 0.12774 0.03100
N 	N 	0.11298 0.53798 0.07702 -0.13900
N 	N 	0.01967 0.54229 0.22569 -0.13400
C 	C 	0.11114 0.51275 0.03936 -0.09100
H 	H 	0.11120 0.49299 0.06642 0.04800
H 	H 	0.12891 0.51212 0.00912 0.06300
H 	H 	0.09245 0.51354 0.01180 0.05500
C 	C 	0.99657 0.52843 0.19689 -0.09000
H 	H 	0.98940 0.54112 0.15843 0.04100
H 	H 	0.97962 0.52656 0.22909 0.04800
H 	H 	0.00201 0.50667 0.18193 0.04900
H 	H 	0.13098 0.53757 0.10163 0.08400
H 	H 	0.01480 0.56332 0.23647 0.07600
C 	C 	0.74037 0.94186 0.01177 0.09200
N 	N 	0.72455 0.92156 0.03757 -0.12300
C 	C 	0.69709 0.92120 0.03029 0.10100
C 	C 	0.68428 0.94231 0.99629 -0.14500
C 	C 	0.70027 0.96313 0.96882 0.05100
C 	C 	0.72832 0.96303 0.97675 -0.11900
H 	H 	0.68520 0.90489 0.05201 0.03100
H 	H 	0.69098 0.97963 0.94222 0.01800
H 	H 	0.74054 0.97974 0.95724 0.05200
C 	C 	0.82376 0.95101 0.05600 0.00700
C 	C 	0.81590 0.95283 0.99662 -0.04300
C 	C 	0.78878 0.94864 0.98129 -0.07500
C 	C 	0.76957 0.94312 0.02581 0.06400
N 	N 	0.77786 0.94001 0.08297 -0.10700
C 	C 	0.80430 0.94375 0.09878 0.01700
H 	H 	0.83060 0.95826 0.96273 0.03200
H 	H 	0.78261 0.95023 0.93541 0.04200
H 	H 	0.81009 0.94175 0.14481 0.03400
C 	C 	0.59240 0.96165 0.82062 -0.12000
C 	C 	0.60662 0.98514 0.79677 0.10200
C 	C 	0.59863 0.99653 0.74229 -0.09100
C 	C 	0.57689 0.98466 0.71088 0.00800
C 	C 	0.56431 0.95969 0.73212 0.03500
C 	C 	0.57235 0.94819 0.78679 -0.01100
H 	H 	0.60884 0.01524 0.72523 0.05500
H 	H 	0.56196 0.92966 0.80424 0.03800
N 	N 	0.62922 0.99769 0.82764 -0.14600
N 	N 	0.54278 0.94652 0.69897 -0.13500
C 	C 	0.65385 0.98063 0.82033 -0.09300
H 	H 	0.65171 0.95966 0.84252 0.06100
H 	H 	0.67126 0.99201 0.84059 0.04600
H 	H 	0.65847 0.97746 0.77261 0.05200
C 	C 	0.51626 0.95442 0.72311 -0.09000
H 	H 	0.51349 0.94551 0.76831 0.04100
H 	H 	0.50006 0.94582 0.69408 0.04500
H 	H 	0.51410 0.97791 0.72450 0.04800
H 	H 	0.62490 0.00118 0.87236 0.05700
H 	H 	0.54503 0.92439 0.69895 0.07700
C 	C 	0.57580 0.93713 0.14869 -0.11600
C 	C 	0.56443 0.91157 0.17029 0.10900
C 	C 	0.54856 0.91195 0.22205 -0.09500
C 	C 	0.54436 0.93739 0.25288 0.01000
C 	C 	0.55706 0.96256 0.23338 0.03400
C 	C 	0.57299 0.96220 0.18185 -0.01600
H 	H 	0.53921 0.89248 0.23770 0.05400
H 	H 	0.58235 0.98173 0.16662 0.02900
N 	N 	0.56913 0.88518 0.13973 -0.13600
N 	N 	0.55370 0.98856 0.26610 -0.13500
C 	C 	0.59160 0.86958 0.16690 -0.09200
H 	H 	0.61050 0.88252 0.16594 0.05900
H 	H 	0.59538 0.84981 0.14138 0.05900
H 	H 	0.58663 0.86364 0.21332 0.04900
C 	C 	0.53468 0.00766 0.23622 -0.08900
H 	H 	0.54322 0.01525 0.19348 0.03800
H 	H 	0.53087 0.02640 0.26487 0.04800
H 	H 	0.51494 0.99685 0.22822 0.05000
H 	H 	0.55152 0.87270 0.13936 0.08200
H 	H 	0.57248 0.99860 0.27201 0.07500
C 	C 	0.23090 0.06499 0.01672 0.06300
N 	N 	0.21451 0.04799 0.98345 -0.11700
C 	C 	0.18776 0.04440 0.99687 -0.00900
C 	C 	0.17652 0.05793 0.04639 0.01600
C 	C 	0.19286 0.07588 0.08053 -0.02800
C 	C 	0.22015 0.07944 0.06578 -0.05500
H 	H 	0.17543 0.03037 0.97006 0.03200
H 	H 	0.18459 0.08647 0.11911 0.03800
H 	H 	0.23306 0.09258 0.09328 0.04500
C 	C 	0.31601 0.06589 0.98448 -0.11200
C 	C 	0.30215 0.09171 0.99109 0.01200
C 	C 	0.27418 0.09165 0.00103 -0.05800
C 	C 	0.26026 0.06569 0.00458 0.07500
N 	N 	0.27396 0.04083 0.99661 -0.13200
C 	C 	0.30126 0.04038 0.98700 0.06500
H 	H 	0.31303 0.11172 0.98944 0.03400
H 	H 	0.26342 0.11159 0.00611 0.05100
H 	H 	0.31148 0.02019 0.98131 0.01600
C 	C 	0.42078 0.07508 0.80821 -0.12100
C 	C 	0.43371 0.09992 0.78699 0.10800
C 	C 	0.44985 0.09856 0.73570 -0.09700
C 	C 	0.45253 0.07299 0.70453 0.00900
C 	C 	0.43790 0.04882 0.72298 0.03200
C 	C 	0.42193 0.05006 0.77436 -0.01800
H 	H 	0.46052 0.11737 0.72056 0.05300
H 	H 	0.41123 0.03118 0.78892 0.02700
N 	N 	0.43018 0.12660 0.81717 -0.13800
N 	N 	0.43952 0.02281 0.68964 -0.13500
C 	C 	0.40884 0.14346 0.78895 -0.09100
H 	H 	0.41454 0.14902 0.74274 0.04600
H 	H 	0.40588 0.16345 0.81422 0.04900
H 	H 	0.38927 0.13164 0.78913 0.05500
C 	C 	0.45773 0.00251 0.71839 -0.08800
H 	H 	0.47792 0.01229 0.72669 0.04600
H 	H 	0.46070 0.98395 0.68880 0.04500
H 	H 	0.44894 0.99489 0.76087 0.03100
H 	H 	0.44843 0.13801 0.81818 0.07600
H 	H 	0.42019 0.01393 0.68427 0.07400
C 	C 	0.42580 0.02716 0.24707 0.00500
C 	C 	0.44609 0.04202 0.21486 0.03400
C 	C 	0.43992 0.05301 0.15887 -0.00800
C 	C 	0.41357 0.05084 0.13604 -0.11600
C 	C 	0.39281 0.03861 0.17047 0.10700
C 	C 	0.39905 0.02679 0.22591 -0.09200
H 	H 	0.45573 0.06322 0.13303 0.03900
H 	H 	0.38328 0.01629 0.25134 0.05400
N 	N 	0.47269 0.04700 0.23940 -0.13800
N 	N 	0.36540 0.03767 0.14835 -0.14000
C 	C 	0.47343 0.07386 0.27194 -0.09200
H 	H 	0.46986 0.09198 0.24134 0.05400
H 	H 	0.49381 0.07661 0.29218 0.04700
H 	H 	0.45796 0.07420 0.30778 0.05200
C 	C 	0.35908 0.00954 0.12444 -0.08400
H 	H 	0.37384 0.00359 0.08928 0.03800
H 	H 	0.33850 0.00999 0.10436 0.05600
H 	H 	0.35926 0.99320 0.16003 0.04200
H 	H 	0.47957 0.03027 0.26576 0.07800
H 	H 	0.35160 0.04303 0.18180 0.08200
C 	C 	0.44566 0.26396 0.04390 0.09300
N 	N 	0.45606 0.27209 0.09714 -0.11700
C 	C 	0.46288 0.29964 0.10816 0.03700
C 	C 	0.45945 0.32040 0.06423 -0.04500
C 	C 	0.44965 0.31230 0.00865 0.05500
C 	C 	0.44285 0.28399 0.99824 -0.13400
H 	H 	0.47071 0.30546 0.15125 0.02900
H 	H 	0.44690 0.32796 0.97400 0.00100
H 	H 	0.43528 0.27766 0.95523 0.05600
C 	C 	0.42165 0.17781 0.02060 -0.10800
C 	C 	0.40385 0.19966 0.00410 0.05200
C 	C 	0.41161 0.22792 0.01138 -0.05700
C 	C 	0.43728 0.23423 0.03488 0.05100
N 	N 	0.45416 0.21273 0.05169 -0.11500
C 	C 	0.44701 0.18495 0.04485 0.07000
H 	H 	0.38412 0.19480 0.98547 0.01800
H 	H 	0.39772 0.24481 0.99932 0.03000
H 	H 	0.46099 0.16845 0.05854 0.03300
C 	C 	0.26019 0.57550 0.01028 0.06500
N 	N 	0.27165 0.55044 0.99317 -0.13600
C 	C 	0.29813 0.54434 0.00498 0.06700
C 	C 	0.31426 0.56386 0.03583 -0.02700
C 	C 	0.30301 0.58981 0.05339 -0.00900
C 	C 	0.27583 0.59567 0.04088 -0.06300
H 	H 	0.30653 0.52413 0.99118 0.00600
H 	H 	0.31509 0.60509 0.07771 0.03500
H 	H 	0.26682 0.61536 0.05610 0.05000
C 	C 	0.17571 0.58719 0.97883 -0.13400
C 	C 	0.19366 0.60967 0.96766 0.05000
C 	C 	0.22138 0.60613 0.97819 -0.11500
C 	C 	0.23093 0.58015 0.00056 0.09000
N 	N 	0.21316 0.55851 0.01093 -0.12200
C 	C 	0.18606 0.56148 0.00086 0.09800
H 	H 	0.18626 0.62964 0.95005 0.02900
H 	H 	0.23536 0.62326 0.96822 0.05200
H 	H 	0.17255 0.54387 0.01017 0.02700
C 	C 	0.71845 0.43748 0.99355 0.02700
N 	N 	0.70960 0.43570 0.05065 -0.10000
C 	C 	0.68347 0.44187 0.06565 0.01100
C 	C 	0.66493 0.45052 0.02218 0.02200
C 	C 	0.67333 0.45156 0.96305 -0.05800
C 	C 	0.70013 0.44495 0.94856 -0.04000
H 	H 	0.67725 0.44062 0.11155 0.03500
H 	H 	0.65934 0.45816 0.92870 0.03900
H 	H 	0.70675 0.44607 0.90288 0.04300
C 	C 	0.80344 0.43117 0.96130 -0.14100
C 	C 	0.79154 0.41409 0.00506 0.06000
C 	C 	0.76357 0.41528 0.01446 -0.06300
C 	C 	0.74759 0.43365 0.98009 0.04900
N 	N 	0.75942 0.44943 0.93649 -0.12800
C 	C 	0.78666 0.44847 0.92630 0.07200
H 	H 	0.80395 0.40042 0.03256 0.03500
H 	H 	0.75441 0.40230 0.04871 0.05700
H 	H 	0.79529 0.46141 0.89138 0.02200
C 	C 	0.53802 0.75250 0.96366 0.03300
N 	N 	0.55169 0.73004 0.93986 -0.11200
C 	C 	0.54477 0.70273 0.95288 0.04000
C 	C 	0.52336 0.69708 0.99207 -0.08400
C 	C 	0.50857 0.71976 0.01571 0.02000
C 	C 	0.51592 0.74760 0.00170 -0.04700
H 	H 	0.55640 0.68540 0.93410 0.02200
H 	H 	0.49205 0.71587 0.04639 0.02800
H 	H 	0.50526 0.76520 0.02208 0.04600
C 	C 	0.56970 0.83626 0.94683 -0.10300
C 	C 	0.54177 0.83176 0.93913 0.02900
C 	C 	0.53124 0.80429 0.94316 -0.08600
C 	C 	0.54875 0.78148 0.95533 0.06600
N 	N 	0.57597 0.78612 0.96014 -0.12000
C 	C 	0.58669 0.81272 0.95618 0.06300
H 	H 	0.52820 0.84947 0.93111 0.02900
H 	H 	0.50966 0.80078 0.93735 0.04500
H 	H 	0.60840 0.81558 0.96100 0.03100
