data_crystal

_cell_length_a 39.46586
_cell_length_b 34.67104
_cell_length_c 19.52904
_cell_angle_alpha 92.64227
_cell_angle_beta  85.32396
_cell_angle_gamma 124.08345

_symmetry_space_group_name_	'P 1'
_symmetry_space_group_name_H-M	'P 1'

loop_
_symmetry_equiv_pos_as_xyz
  x,y,z

loop_
_atom_site_label
_atom_site_type_symbol
_atom_site_fract_x
_atom_site_fract_y
_atom_site_fract_z
_atom_site_charge
C 	C 	0.14431 0.08014 0.86387 -0.00200
C 	C 	0.13279 0.10464 0.82778 -0.02200
C 	C 	0.09235 0.08277 0.80987 -0.06600
C 	C 	0.06229 0.03638 0.82999 0.07300
C 	C 	0.07481 0.01125 0.86300 -0.06400
C 	C 	0.11511 0.03342 0.88140 -0.02400
C 	C 	0.26583 0.14276 0.92883 -0.00600
C 	C 	0.24765 0.10189 0.88913 -0.01600
C 	C 	0.20838 0.08200 0.86690 -0.04300
C 	C 	0.18708 0.10318 0.88287 0.01900
C 	C 	0.20581 0.14496 0.92035 -0.04400
C 	C 	0.24497 0.16466 0.94324 -0.01700
H 	H 	0.15535 0.14040 0.81243 0.04000
H 	H 	0.08453 0.10153 0.77902 0.05300
H 	H 	0.05378 0.97446 0.87343 0.05100
H 	H 	0.12377 0.01402 0.90870 0.04100
H 	H 	0.26378 0.08529 0.87595 0.05600
H 	H 	0.19432 0.04985 0.83781 0.04700
H 	H 	0.18959 0.16148 0.93339 0.04800
H 	H 	0.25854 0.19616 0.97384 0.05300
C 	C 	0.12066 0.06829 0.62206 -0.00400
C 	C 	0.12344 0.08855 0.55947 -0.02200
C 	C 	0.08854 0.07080 0.52301 -0.06600
C 	C 	0.05047 0.03283 0.54875 0.07800
C 	C 	0.04720 0.01493 0.61416 -0.06500
C 	C 	0.08229 0.03172 0.64952 -0.02400
C 	C 	0.23505 0.11115 0.70018 -0.01000
C 	C 	0.20525 0.06366 0.68925 -0.02100
C 	C 	0.16717 0.04946 0.66687 -0.04500
C 	C 	0.15831 0.08247 0.65538 0.01900
C 	C 	0.18690 0.12949 0.67072 -0.04700
C 	C 	0.22502 0.14379 0.69326 -0.02000
H 	H 	0.15293 0.11677 0.53770 0.04200
H 	H 	0.09132 0.08531 0.47332 0.05500
H 	H 	0.01784 0.98757 0.63699 0.04600
H 	H 	0.07988 0.01523 0.69703 0.04200
H 	H 	0.21180 0.03779 0.69693 0.04900
H 	H 	0.14509 0.01296 0.65619 0.04700
H 	H 	0.17988 0.15508 0.66387 0.04600
H 	H 	0.24714 0.18038 0.70312 0.05100
N 	N 	0.01644 0.01013 0.50497 -0.14100
N 	N 	0.02073 0.01314 0.80726 -0.14000
H 	H 	0.02364 0.94816 0.43093 0.05400
C 	C 	0.40193 0.18006 0.70610 0.10500
N 	N 	0.41528 0.15378 0.67851 -0.06600
N 	N 	0.42955 0.22628 0.71649 -0.06400
C 	C 	0.27747 0.12685 0.71310 0.11000
N 	N 	0.30458 0.17095 0.73505 -0.07900
N 	N 	0.34417 0.18726 0.73659 -0.06600
C 	C 	0.35775 0.15986 0.71664 0.10100
N 	N 	0.33032 0.11504 0.69834 -0.06700
N 	N 	0.29081 0.09879 0.69653 -0.08000
C 	C 	0.37687 0.19353 0.01595 0.10000
N 	N 	0.36630 0.22312 0.00066 -0.06800
N 	N 	0.33108 0.20706 0.97233 -0.07400
C 	C 	0.30543 0.16092 0.95848 0.11700
N 	N 	0.31601 0.13137 0.97398 -0.07500
N 	N 	0.35126 0.14746 0.00204 -0.06900
N 	N 	0.43005 0.18321 0.04801 -0.06700
C 	C 	0.41658 0.21142 0.04393 0.10400
N 	N 	0.44118 0.25690 0.06217 -0.06600
N 	N 	0.45487 0.17335 0.65997 -0.05300
N 	N 	0.46918 0.24582 0.69813 -0.05200
C 	C 	0.49273 0.24612 0.08325 0.05400
N 	N 	0.46765 0.20037 0.06704 -0.05600
N 	N 	0.47872 0.27399 0.08170 -0.05300
H 	H 	0.53814 0.18542 0.89942 0.07200
C 	C 	0.48225 0.21976 0.66849 0.05600
C 	C 	0.53625 0.26650 0.09101 0.26400
O 	O 	0.55543 0.25115 0.05583 -0.32200
C 	C 	0.52515 0.24183 0.64299 0.26000
O 	O 	0.53686 0.22193 0.59910 -0.31800
C 	C 	0.56895 0.20567 0.87195 -0.03600
H 	H 	0.56861 0.18455 0.82695 0.05700
O 	O 	0.56139 0.31002 0.10523 -0.34200
O 	O 	0.55121 0.28633 0.64197 -0.34000
H 	H 	0.59147 0.21086 0.90837 0.06500
O 	O 	0.57661 0.24844 0.85114 -0.17500
H 	H 	0.59383 0.24557 0.71893 0.06300
H 	H 	0.02546 0.07219 0.90877 0.05200
Co	Co	0.61378 0.31729 0.05554 1.18500
O 	O 	0.61789 0.32788 0.94724 -0.33700
Co	Co	0.59312 0.28688 0.56825 1.18600
O 	O 	0.57837 0.28358 0.46381 -0.34000
C 	C 	0.61537 0.27417 0.81829 0.15400
C 	C 	0.62027 0.27040 0.74702 -0.05000
O 	O 	0.58917 0.32755 0.34927 -0.17500
H 	H 	0.63552 0.19073 0.25087 0.05500
H 	H 	0.63905 0.21619 0.16836 0.06200
C 	C 	0.60088 0.27031 0.43411 0.32500
C 	C 	0.64350 0.31675 0.92729 0.31800
O 	O 	0.61566 0.25806 0.47878 -0.45800
C 	C 	0.61244 0.31127 0.32249 0.15100
H 	H 	0.62106 0.34011 0.22225 0.05300
C 	C 	0.61879 0.28310 0.36251 -0.11800
O 	O 	0.64902 0.29733 0.97622 -0.45700
O 	O 	0.64402 0.29507 0.10296 -0.46300
O 	O 	0.63189 0.27103 0.59974 -0.46000
C 	C 	0.64926 0.30729 0.85498 -0.10900
C 	C 	0.62729 0.31997 0.25343 -0.05100
H 	H 	0.59715 0.38599 0.39642 0.06600
C 	C 	0.65665 0.21643 0.21034 -0.03500
O 	O 	0.65869 0.38284 0.07649 -0.39700
O 	O 	0.63892 0.35418 0.56327 -0.39400
C 	C 	0.65893 0.29891 0.71204 -0.10400
C 	C 	0.65104 0.30403 0.22518 -0.10800
C 	C 	0.64162 0.26602 0.33324 -0.05500
H 	H 	0.64605 0.24376 0.36292 0.05200
C 	C 	0.61588 0.37377 0.37181 -0.03200
H 	H 	0.67637 0.20504 0.18760 0.06900
C 	C 	0.66298 0.29649 0.63641 0.31400
C 	C 	0.65766 0.27621 0.26483 0.15200
H 	H 	0.63597 0.37628 0.41102 0.05500
H 	H 	0.63470 0.39749 0.32792 0.05300
C 	C 	0.66739 0.31504 0.15341 0.31700
Co	Co	0.67541 0.28952 0.50085 1.18500
O 	O 	0.67533 0.22766 0.49539 -0.32100
C 	C 	0.68818 0.33418 0.82091 -0.04600
O 	O 	0.68205 0.26139 0.23816 -0.17700
C 	C 	0.67530 0.37304 0.52882 0.29900
Co	Co	0.70130 0.32389 0.02552 1.18300
O 	O 	0.70307 0.26299 0.01751 -0.33200
C 	C 	0.69748 0.40571 0.05116 0.30900
O 	O 	0.68241 0.34947 0.48093 -0.51800
C 	C 	0.69295 0.33173 0.74928 0.14800
O 	O 	0.69722 0.30895 0.60217 -0.34100
N 	N 	0.69270 0.45003 0.56717 -0.05500
O 	O 	0.70536 0.33085 0.13485 -0.34500
O 	O 	0.71126 0.38576 0.00848 -0.52600
H 	H 	0.71446 0.35890 0.84945 0.04900
H 	H 	0.69840 0.36552 0.43634 0.18100
C 	C 	0.70398 0.24347 0.44675 0.26100
C 	C 	0.70444 0.42390 0.53317 0.02100
N 	N 	0.70554 0.48091 0.06746 -0.05200
H 	H 	0.71208 0.39856 0.67151 0.05500
N 	N 	0.71253 0.17907 0.44641 -0.05500
O 	O 	0.71656 0.28544 0.43082 -0.34700
N 	N 	0.71864 0.49610 0.57068 -0.07000
C 	C 	0.72316 0.45662 0.05934 0.02600
C 	C 	0.73697 0.28396 0.97972 0.27100
H 	H 	0.73259 0.40494 0.97011 0.18500
O 	O 	0.73123 0.36039 0.71594 -0.17600
C 	C 	0.73683 0.40324 0.70187 -0.03300
H 	H 	0.73907 0.42271 0.75011 0.05300
C 	C 	0.72911 0.22466 0.43369 0.05500
N 	N 	0.73617 0.16277 0.44362 -0.06600
N 	N 	0.72859 0.52726 0.06378 -0.06900
N 	N 	0.74691 0.22044 0.98224 -0.05300
O 	O 	0.75058 0.32701 0.97058 -0.35100
N 	N 	0.74326 0.44508 0.50403 -0.06500
C 	C 	0.76153 0.26466 0.96360 0.05200
C 	C 	0.00776 0.06909 0.86683 -0.06900
H 	H 	0.76616 0.42489 0.67054 0.06600
N 	N 	0.77145 0.59448 0.56952 -0.06800
C 	C 	0.75721 0.51741 0.54061 0.10000
N 	N 	0.76926 0.49124 0.50754 -0.07000
C 	C 	0.77717 0.19168 0.42858 0.10400
N 	N 	0.76994 0.25340 0.41661 -0.05300
C 	C 	0.76993 0.55063 0.05230 0.10200
N 	N 	0.76461 0.48009 0.05060 -0.06400
N 	N 	0.76840 0.20211 0.96484 -0.06600
C 	C 	0.78497 0.56845 0.54160 0.09800
N 	N 	0.78680 0.12947 0.44974 -0.06700
N 	N 	0.78767 0.52643 0.04725 -0.07000
N 	N 	0.77630 0.62377 0.03188 -0.06800
N 	N 	0.79824 0.29007 0.92709 -0.05300
N 	N 	0.79596 0.64080 0.56815 -0.07900
H 	H 	0.81278 0.72100 0.50990 0.05100
C 	C 	0.80355 0.17444 0.43224 0.10000
N 	N 	0.81066 0.11415 0.45651 -0.07800
N 	N 	0.79368 0.23713 0.41418 -0.06600
C 	C 	0.79474 0.60093 0.03858 0.09700
N 	N 	0.79843 0.66827 0.01251 -0.08300
N 	N 	0.81411 0.16298 0.92749 -0.06600
C 	C 	0.80504 0.22743 0.92802 0.10500
H 	H 	0.81661 0.72974 0.91133 0.05200
H 	H 	0.84170 0.07821 0.84329 0.05200
H 	H 	0.83337 0.05614 0.41966 0.05100
N 	N 	0.82390 0.59009 0.51290 -0.06800
C 	C 	0.83478 0.66247 0.53900 0.11300
N 	N 	0.83603 0.62413 0.02660 -0.06900
C 	C 	0.82837 0.20690 0.90772 0.10100
N 	N 	0.83524 0.14434 0.90915 -0.07800
N 	N 	0.81972 0.27173 0.90959 -0.06600
C 	C 	0.84743 0.75380 0.92731 -0.01500
C 	C 	0.84488 0.73900 0.51976 -0.01800
C 	C 	0.86354 0.07938 0.43864 -0.01800
H 	H 	0.85711 0.80671 0.50317 0.04800
N 	N 	0.84849 0.63645 0.51172 -0.07800
N 	N 	0.84490 0.20368 0.42143 -0.06700
C 	C 	0.85200 0.14333 0.44595 0.11300
C 	C 	0.83964 0.69121 0.99927 0.12200
C 	C 	0.86382 0.73952 0.97357 -0.01500
H 	H 	0.85834 0.80952 0.86436 0.04900
C 	C 	0.86131 0.71371 0.53516 -0.01000
C 	C 	0.86999 0.78758 0.51596 -0.04600
H 	H 	0.87588 0.02633 0.43678 0.04800
N 	N 	0.85816 0.66864 0.00735 -0.08300
N 	N 	0.86429 0.23158 0.86880 -0.06600
C 	C 	0.87120 0.16902 0.87032 0.11400
C 	C 	0.87116 0.79892 0.90030 -0.04700
C 	C 	0.87489 0.10050 0.84081 -0.01800
C 	C 	0.87831 0.12612 0.45344 -0.00900
N 	N 	0.86879 0.18831 0.42803 -0.07800
H 	H 	0.88156 0.04347 0.82124 0.04800
C 	C 	0.88772 0.06251 0.44799 -0.04600
N 	N 	0.88540 0.21292 0.85036 -0.07800
C 	C 	0.89508 0.14872 0.85146 -0.00900
C 	C 	0.89748 0.08083 0.82770 -0.04500
C 	C 	0.90398 0.77106 0.99319 -0.00900
C 	C 	0.90306 0.73754 0.54716 -0.01800
H 	H 	0.90413 0.87453 0.60223 0.03800
C 	C 	0.91143 0.83016 0.91936 0.02100
C 	C 	0.91172 0.81138 0.52780 0.01900
H 	H 	0.91687 0.76065 0.02929 0.04400
C 	C 	0.91775 0.15585 0.47726 -0.01800
H 	H 	0.91600 0.71846 0.55976 0.05000
C 	C 	0.92710 0.09221 0.47161 0.02000
C 	C 	0.92767 0.81612 0.96615 -0.04900
C 	C 	0.92996 0.89046 0.56439 -0.02300
C 	C 	0.92812 0.78617 0.54371 -0.04600
H 	H 	0.92940 0.19184 0.48956 0.05200
C 	C 	0.93817 0.17720 0.84647 -0.01800
C 	C 	0.93683 0.87741 0.88981 -0.00600
C 	C 	0.94047 0.10914 0.82477 0.01900
H 	H 	0.94252 0.91202 0.98729 0.04000
H 	H 	0.93715 0.85362 0.78559 0.04000
H 	H 	0.94245 0.05692 0.71860 0.03700
C 	C 	0.93843 0.86261 0.52205 -0.00600
C 	C 	0.94203 0.13895 0.48622 -0.04500
H 	H 	0.94852 0.96006 0.59192 0.04800
C 	C 	0.94833 0.88356 0.81918 -0.02300
C 	C 	0.95289 0.07443 0.47971 -0.00500
H 	H 	0.95313 0.05531 0.37283 0.04000
C 	C 	0.95138 0.91644 0.93276 -0.02300
H 	H 	0.95418 0.21442 0.85456 0.05200
C 	C 	0.95502 0.93894 0.55833 -0.07100
C 	C 	0.96085 0.06063 0.75985 -0.02400
H 	H 	0.95856 0.08939 0.58849 0.03800
C 	C 	0.96073 0.15748 0.83310 -0.04600
H 	H 	0.95875 0.84003 0.98113 0.04800
C 	C 	0.96269 0.05512 0.42320 -0.02100
C 	C 	0.96412 0.08783 0.81767 -0.00500
C 	C 	0.96594 0.07454 0.54453 -0.02100
H 	H 	0.96025 0.80425 0.55341 0.04700
C 	C 	0.00378 0.04096 0.80946 0.07900
C 	C 	0.97220 0.88368 0.47369 -0.02200
H 	H 	0.97245 0.16219 0.50429 0.04800
H 	H 	0.97632 0.01466 0.71266 0.04800
C 	C 	0.97516 0.92835 0.79208 -0.06800
C 	C 	0.97822 0.96120 0.90576 -0.06900
C 	C 	0.98040 0.03713 0.75604 -0.06800
H 	H 	0.97879 0.86248 0.44039 0.04100
C 	C 	0.98415 0.03473 0.43176 -0.06800
H 	H 	0.98445 0.93279 0.73777 0.04900
C 	C 	0.98775 0.05448 0.55300 -0.07100
C 	C 	0.98807 0.09239 0.87073 -0.02200
C 	C 	0.98925 0.96008 0.51043 0.07800
H 	H 	0.99054 0.99090 0.93987 0.05000
H 	H 	0.99062 0.11312 0.91572 0.04100
H 	H 	0.99095 0.01918 0.38808 0.05400
C 	C 	0.99083 0.96733 0.83526 0.07500
H 	H 	0.99392 0.17966 0.83047 0.04800
C 	C 	0.99632 0.03368 0.49668 0.08100
H 	H 	0.99727 0.05433 0.60326 0.04900
C 	C 	0.99748 0.93216 0.46806 -0.06800
