data_crystal

_cell_length_a 15.57388
_cell_length_b 15.89229
_cell_length_c 26.67875
_cell_angle_alpha 95.39468
_cell_angle_beta  95.39578
_cell_angle_gamma 126.69361

_symmetry_space_group_name_	'P 1'
_symmetry_space_group_name_H-M	'P 1'

loop_
_symmetry_equiv_pos_as_xyz
  x,y,z

loop_
_atom_site_label
_atom_site_type_symbol
_atom_site_fract_x
_atom_site_fract_y
_atom_site_fract_z
_atom_site_charge
N 	N 	0.99213 0.90127 0.96125 -0.12900
N 	N 	0.06433 0.11191 0.50021 -0.12500
C 	C 	0.10742 0.05809 0.49936 0.09900
C 	C 	0.88027 0.98253 0.95590 0.13400
N 	N 	0.82602 0.87602 0.95750 -0.13100
C 	C 	0.88329 0.83562 0.95984 0.11500
C 	C 	0.04470 0.00585 0.95990 0.11200
N 	N 	0.98896 0.04598 0.95684 -0.14100
C 	C 	0.95653 0.05822 0.50260 0.09200
N 	N 	0.04331 0.95257 0.50032 -0.11900
C 	C 	0.93685 0.89978 0.50231 0.10800
N 	N 	0.89338 0.95228 0.50358 -0.12100
Cu	Cu	0.75060 0.32731 0.94468 0.92400
Cu	Cu	0.71902 0.22759 0.05019 0.86200
Cu	Cu	0.58478 0.28763 0.01003 0.89100
Cu	Cu	0.54547 0.31588 0.90119 0.90300
C 	C 	0.68112 0.30017 0.83618 0.29500
O 	O 	0.80756 0.48542 0.94600 -0.34700
C 	C 	0.64550 0.30593 0.12211 0.28700
O 	O 	0.58162 0.24287 0.93874 -0.62700
O 	O 	0.73793 0.33986 0.01735 -0.65300
O 	O 	0.81375 0.24602 0.94919 -0.35500
O 	O 	0.68406 0.12793 0.99152 -0.42900
O 	O 	0.63839 0.34808 0.84845 -0.38400
O 	O 	0.43845 0.24702 0.00057 -0.39500
C 	C 	0.36716 0.19839 0.95718 0.32000
C 	C 	0.75168 0.52016 0.95946 0.28000
O 	O 	0.64895 0.45124 0.96275 -0.38600
O 	O 	0.39533 0.22917 0.91359 -0.39000
O 	O 	0.73811 0.29074 0.87181 -0.36300
C 	C 	0.75821 0.15200 0.96377 0.28700
O 	O 	0.58695 0.31072 0.08463 -0.37700
O 	O 	0.72181 0.29664 0.11361 -0.42200
H 	H 	0.53445 0.16442 0.92705 0.16200
H 	H 	0.79051 0.41280 0.03813 0.16900
Cu	Cu	0.62414 0.20330 0.51231 0.92400
Cu	Cu	0.71009 0.21691 0.40329 0.86900
Cu	Cu	0.67698 0.37066 0.44698 0.89800
Cu	Cu	0.63018 0.39960 0.55132 0.89900
C 	C 	0.65446 0.27507 0.62053 0.29300
O 	O 	0.46442 0.14213 0.51243 -0.36100
C 	C 	0.64107 0.30063 0.33398 0.29000
O 	O 	0.71271 0.36940 0.51801 -0.63700
O 	O 	0.60752 0.21548 0.43956 -0.64200
O 	O 	0.69824 0.13466 0.50689 -0.36800
O 	O 	0.81572 0.25196 0.46020 -0.43800
O 	O 	0.60703 0.31865 0.60820 -0.38200
O 	O 	0.75309 0.52304 0.45811 -0.38100
C 	C 	0.75615 0.58192 0.49769 0.30900
C 	C 	0.42583 0.19163 0.49611 0.29300
O 	O 	0.49341 0.29048 0.49024 -0.39700
O 	O 	0.69354 0.53996 0.53199 -0.39000
O 	O 	0.66343 0.21817 0.58506 -0.36200
C 	C 	0.79126 0.18303 0.49032 0.29900
O 	O 	0.66476 0.37470 0.37255 -0.37900
O 	O 	0.63769 0.21813 0.34188 -0.42000
H 	H 	0.79173 0.41608 0.53256 0.16600
H 	H 	0.53162 0.16889 0.42015 0.17200
C 	C 	0.76700 0.35686 0.70796 -0.04600
C 	C 	0.67303 0.26825 0.67482 -0.08800
C 	C 	0.59027 0.18168 0.69534 0.11300
C 	C 	0.59937 0.18964 0.74884 -0.04600
C 	C 	0.68889 0.28239 0.78199 -0.09000
C 	C 	0.77592 0.36491 0.76145 0.11400
N 	N 	0.86717 0.45272 0.79273 -0.20000
H 	H 	0.83147 0.42197 0.69216 0.04100
H 	H 	0.53393 0.12545 0.76465 0.04000
N 	N 	0.50105 0.09187 0.66408 -0.20000
H 	H 	0.92976 0.51450 0.77726 0.08900
H 	H 	0.87808 0.45958 0.83251 0.10400
H 	H 	0.49293 0.08210 0.62426 0.10400
H 	H 	0.43923 0.02946 0.67959 0.08700
C 	C 	0.71561 0.40542 0.26506 -0.04700
C 	C 	0.62778 0.31556 0.28068 -0.09300
C 	C 	0.53527 0.23320 0.24353 0.10500
C 	C 	0.53851 0.23569 0.19112 -0.04700
C 	C 	0.63146 0.32005 0.17548 -0.09300
C 	C 	0.71785 0.40892 0.21266 0.10700
N 	N 	0.80284 0.49753 0.19835 -0.19900
H 	H 	0.78462 0.47069 0.29360 0.04700
H 	H 	0.47033 0.16960 0.16254 0.03900
N 	N 	0.44321 0.15227 0.25789 -0.19900
H 	H 	0.86822 0.56142 0.22594 0.08300
H 	H 	0.80281 0.50549 0.15994 0.08900
H 	H 	0.43521 0.15306 0.29633 0.08800
H 	H 	0.37661 0.08965 0.23032 0.08000
C 	C 	0.86982 0.78778 0.50073 0.02900
C 	C 	0.81692 0.69352 0.49922 -0.08600
C 	C 	0.85548 0.14548 0.49660 -0.09700
C 	C 	0.90614 0.11031 0.49998 0.02500
C 	C 	0.31410 0.14770 0.49656 -0.08900
C 	C 	0.22064 0.11135 0.49761 0.02400
C 	C 	0.79533 0.63090 0.95991 -0.07300
C 	C 	0.83009 0.72295 0.95992 0.02000
C 	C 	0.82580 0.03172 0.95651 0.00200
C 	C 	0.79310 0.08493 0.95847 -0.07800
C 	C 	0.15861 0.07329 0.95994 0.02900
C 	C 	0.25423 0.13038 0.95924 -0.08900
