data_crystal

_cell_length_a 24.18239
_cell_length_b 25.00313
_cell_length_c 26.46049
_cell_angle_alpha 95.54618
_cell_angle_beta  95.54607
_cell_angle_gamma 125.79315

_symmetry_space_group_name_	'P 1'
_symmetry_space_group_name_H-M	'P 1'

loop_
_symmetry_equiv_pos_as_xyz
  x,y,z

loop_
_atom_site_label
_atom_site_type_symbol
_atom_site_fract_x
_atom_site_fract_y
_atom_site_fract_z
_atom_site_charge
C 	C 	0.02697 0.01442 0.44248 0.09300
C 	C 	0.05603 0.02082 0.97487 0.09600
N 	N 	0.14120 0.04254 0.47571 -0.16300
H 	H 	0.26130 0.06213 0.51459 0.05200
N 	N 	0.15837 0.02219 0.96996 -0.16400
H 	H 	0.26343 0.01120 0.96505 0.05300
H 	H 	0.72420 0.01787 0.44809 0.05100
H 	H 	0.76073 0.03509 0.03770 0.05200
C 	C 	0.10293 0.05760 0.44888 0.05500
N 	N 	0.03035 0.05592 0.98562 -0.13300
C 	C 	0.19586 0.06275 0.45289 0.07300
C 	C 	0.25827 0.07773 0.47825 -0.08200
C 	C 	0.21213 0.05643 0.94571 0.07400
C 	C 	0.26723 0.05158 0.94957 -0.08300
C 	C 	0.13057 0.05598 0.97382 0.05500
C 	C 	0.76996 0.05818 0.43584 -0.08700
H 	H 	0.12339 0.00796 0.50053 0.08700
C 	C 	0.80681 0.07946 0.02922 -0.08600
C 	C 	0.80716 0.04513 0.40604 0.01900
C 	C 	0.19465 0.09352 0.41244 0.01900
C 	C 	0.13667 0.09232 0.41067 -0.07300
H 	H 	0.11242 0.09837 0.37736 0.05300
C 	C 	0.32897 0.10328 0.93586 0.01000
H 	H 	0.40325 0.09137 0.97658 0.05100
H 	H 	0.69884 0.10844 0.45849 0.08200
H 	H 	0.71826 0.11175 0.03582 0.08600
C 	C 	0.85196 0.07483 0.00302 0.01100
C 	C 	0.31775 0.11830 0.45717 0.00900
C 	C 	0.22124 0.11415 0.93558 0.01800
C 	C 	0.39379 0.11942 0.95311 -0.04700
C 	C 	0.17034 0.11518 0.95458 -0.07200
C 	C 	0.86495 0.02833 0.00686 -0.07700
C 	C 	0.86674 0.09711 0.39102 0.07300
C 	C 	0.79378 0.12492 0.44939 0.07300
C 	C 	0.88029 0.01996 0.39924 0.05400
C 	C 	0.25599 0.14249 0.39691 -0.08700
N 	N 	0.75151 0.14209 0.45711 -0.15300
C 	C 	0.82147 0.14288 0.04224 0.07200
C 	C 	0.31710 0.15142 0.41783 0.07500
H 	H 	0.15361 0.14490 0.94349 0.05300
C 	C 	0.91165 0.13155 0.99257 0.08500
C 	C 	0.38494 0.15772 0.48516 -0.04600
H 	H 	0.39996 0.15584 0.52449 0.05000
N 	N 	0.77133 0.15131 0.04272 -0.15100
N 	N 	0.91086 0.08138 0.38676 -0.16300
C 	C 	0.33938 0.16262 0.92790 0.07500
H 	H 	0.01345 0.15934 0.99266 0.08600
C 	C 	0.93261 0.05920 0.99908 0.06000
N 	N 	0.99054 0.03746 0.42709 -0.13100
C 	C 	0.96170 0.02235 0.98770 0.09800
H 	H 	0.96440 0.11679 0.38957 0.08900
N 	N 	0.96036 0.12145 0.98930 -0.16500
C 	C 	0.88924 0.16369 0.40332 -0.08200
C 	C 	0.81574 0.99576 0.41128 -0.07100
H 	H 	0.13456 0.97276 0.97509 0.08900
N 	N 	0.01287 0.95265 0.96562 -0.13400
Cu	Cu	0.64316 0.24548 0.01669 0.92500
Cu	Cu	0.69424 0.35653 0.95310 0.89800
Cu	Cu	0.63377 0.36489 0.04543 0.89200
C 	C 	0.64269 0.28842 0.12138 0.28000
O 	O 	0.53953 0.20201 0.00392 -0.36100
C 	C 	0.68703 0.31494 0.84269 0.28200
O 	O 	0.64735 0.25769 0.94409 -0.64000
O 	O 	0.61096 0.31303 0.10276 -0.38500
C 	C 	0.51414 0.22961 0.98059 0.25900
O 	O 	0.55507 0.29373 0.97849 -0.38100
O 	O 	0.65319 0.25170 0.09036 -0.35900
O 	O 	0.68172 0.26111 0.85100 -0.41800
H 	H 	0.60179 0.23052 0.92027 0.17200
Cu	Cu	0.63483 0.30754 0.51822 0.89700
Cu	Cu	0.61277 0.35110 0.42020 0.89400
C 	C 	0.67944 0.32784 0.34139 0.27900
C 	C 	0.68899 0.32660 0.62926 0.28100
O 	O 	0.63336 0.29535 0.44521 -0.63700
O 	O 	0.65621 0.36148 0.35804 -0.38300
O 	O 	0.53488 0.25782 0.50926 -0.37300
C 	C 	0.49756 0.26186 0.47211 0.26100
O 	O 	0.69300 0.43388 0.48049 -0.38600
O 	O 	0.52639 0.31367 0.44851 -0.38800
O 	O 	0.63472 0.30340 0.59257 -0.38600
H 	H 	0.60240 0.24788 0.42708 0.16100
C 	C 	0.68088 0.32479 0.78913 -0.07000
C 	C 	0.62335 0.27332 0.75164 -0.01200
C 	C 	0.62349 0.27655 0.69918 -0.01300
C 	C 	0.68168 0.33078 0.68378 -0.07000
H 	H 	0.57970 0.22963 0.76301 0.03300
H 	H 	0.58009 0.23512 0.67047 0.03700
C 	C 	0.59274 0.26688 0.20130 -0.01000
C 	C 	0.64921 0.28676 0.17690 -0.06400
C 	C 	0.66737 0.30574 0.28522 -0.06600
C 	C 	0.60174 0.27620 0.25516 -0.01300
H 	H 	0.54235 0.24617 0.17859 0.04000
H 	H 	0.55827 0.26272 0.27362 0.02600
N 	N 	0.38077 0.20876 0.42067 -0.15400
C 	C 	0.42164 0.21345 0.46208 -0.00100
H 	H 	0.25714 0.17529 0.37239 0.05300
H 	H 	0.39153 0.24912 0.40363 0.08400
C 	C 	0.28683 0.17078 0.93131 -0.08600
N 	N 	0.40765 0.21404 0.93915 -0.15200
C 	C 	0.44087 0.18789 0.95413 -0.00300
H 	H 	0.29755 0.21956 0.93311 0.05300
H 	H 	0.42781 0.26450 0.94968 0.08500
O 	O 	0.67903 0.45461 0.02501 -0.38900
O 	O 	0.69067 0.20153 0.02101 -0.36400
O 	O 	0.70898 0.36483 0.88123 -0.38700
Cu	Cu	0.71700 0.25533 0.91628 0.87000
O 	O 	0.69661 0.34975 0.02468 -0.64200
O 	O 	0.74406 0.45300 0.96742 -0.36900
C 	C 	0.73460 0.48595 0.00337 0.25600
C 	C 	0.75318 0.23061 0.01024 0.25300
H 	H 	0.74376 0.37889 0.04634 0.16200
Cu	Cu	0.74056 0.34761 0.44659 0.92700
Cu	Cu	0.74571 0.29381 0.55418 0.87000
O 	O 	0.73686 0.35468 0.52132 -0.63900
O 	O 	0.71977 0.23015 0.49434 -0.43400
C 	C 	0.75553 0.47324 0.47039 0.25700
O 	O 	0.72526 0.32709 0.37237 -0.35800
O 	O 	0.74549 0.33567 0.61811 -0.41900
C 	C 	0.73655 0.38162 0.77396 -0.01200
C 	C 	0.73717 0.38440 0.72145 -0.01200
C 	C 	0.71365 0.31167 0.20666 -0.01400
C 	C 	0.72281 0.32129 0.26072 -0.00800
H 	H 	0.72820 0.56517 0.51648 0.04600
H 	H 	0.70848 0.57931 0.03675 0.04700
C 	C 	0.75384 0.57314 0.48362 -0.04800
O 	O 	0.77523 0.27431 0.97935 -0.42800
O 	O 	0.78387 0.44661 0.45033 -0.35400
O 	O 	0.78748 0.30325 0.44429 -0.36800
C 	C 	0.76092 0.24638 0.46068 0.26200
H 	H 	0.76586 0.40109 0.54155 0.17300
H 	H 	0.78098 0.42194 0.80263 0.03700
H 	H 	0.78193 0.42696 0.71002 0.03500
H 	H 	0.75739 0.32645 0.18812 0.03600
H 	H 	0.77363 0.34366 0.28347 0.04500
C 	C 	0.78090 0.62818 0.45995 0.00900
C 	C 	0.78571 0.54384 0.46930 -0.00400
H 	H 	0.75318 0.68585 0.50167 0.05200
C 	C 	0.78183 0.20360 0.44507 -0.00800
C 	C 	0.78066 0.55991 0.01327 -0.00500
C 	C 	0.76077 0.59910 0.03176 -0.04400
H 	H 	0.75519 0.70804 0.02871 0.05200
C 	C 	0.78925 0.68716 0.47957 -0.08100
H 	H 	0.79094 0.95981 0.43648 0.05300
C 	C 	0.79125 0.70547 0.00932 -0.08600
C 	C 	0.80728 0.66161 0.01994 0.00400
C 	C 	0.79785 0.21278 0.03166 -0.00300
C 	C 	0.82736 0.62971 0.43186 0.07800
N 	N 	0.82929 0.57781 0.43707 -0.15100
H 	H 	0.82252 0.81712 0.48648 0.08600
C 	C 	0.82457 0.74716 0.97384 0.07800
N 	N 	0.83676 0.59576 0.99092 -0.15100
H 	H 	0.82819 0.83024 0.00614 0.08400
H 	H 	0.85005 0.57474 0.96300 0.09100
C 	C 	0.84456 0.74758 0.46811 0.07200
N 	N 	0.84192 0.79895 0.46214 -0.16300
C 	C 	0.85257 0.17659 0.43378 0.00900
C 	C 	0.84545 0.22737 0.43135 -0.04800
C 	C 	0.85295 0.65763 0.99466 0.08300
N 	N 	0.84109 0.80921 0.97788 -0.16000
C 	C 	0.86600 0.24443 0.02442 -0.05200
H 	H 	0.83665 0.98564 0.02578 0.05400
H 	H 	0.86857 0.57432 0.42870 0.09000
H 	H 	0.87284 0.26730 0.40973 0.05000
C 	C 	0.87041 0.74328 0.94873 0.02100
C 	C 	0.88102 0.19977 0.03147 0.01500
C 	C 	0.88318 0.69025 0.42108 -0.08800
C 	C 	0.88614 0.69918 0.95912 -0.08800
H 	H 	0.89136 0.28285 0.00120 0.04100
N 	N 	0.88600 0.92948 0.42002 -0.13200
C 	C 	0.89100 0.74900 0.44012 0.02200
C 	C 	0.88727 0.83405 0.43122 0.05600
C 	C 	0.89764 0.84527 0.95602 0.05500
C 	C 	0.91994 0.99526 0.41653 0.09800
N 	N 	0.91928 0.95413 0.97891 -0.13100
C 	C 	0.91697 0.80302 0.41561 -0.07300
C 	C 	0.91737 0.80594 0.93744 -0.07300
H 	H 	0.92218 0.69658 0.93972 0.05400
C 	C 	0.92261 0.90627 0.43435 0.09700
H 	H 	0.91925 0.69159 0.39895 0.05400
C 	C 	0.92726 0.19526 0.00643 -0.10000
H 	H 	0.93500 0.20413 0.39117 0.05200
N 	N 	0.99284 0.94904 0.44634 -0.13000
C 	C 	0.94461 0.91924 0.96756 0.10100
H 	H 	0.96254 0.82522 0.39799 0.05500
H 	H 	0.96961 0.82548 0.93248 0.05500
H 	H 	0.97337 0.23953 0.99788 0.05700
