data_crystal

_cell_length_a 25.78852
_cell_length_b 27.26510
_cell_length_c 36.70754
_cell_angle_alpha 60.96968
_cell_angle_beta  118.71672
_cell_angle_gamma 133.27814

_symmetry_space_group_name_	'P 1'
_symmetry_space_group_name_H-M	'P 1'

loop_
_symmetry_equiv_pos_as_xyz
  x,y,z

loop_
_atom_site_label
_atom_site_type_symbol
_atom_site_fract_x
_atom_site_fract_y
_atom_site_fract_z
_atom_site_charge
Co	Co	0.08458 0.02779 0.07468 1.17700
Co	Co	0.02688 0.06820 0.11112 1.17900
C 	C 	0.22085 0.06921 0.06630 0.27500
Co	Co	0.09283 0.91912 0.06680 1.17000
O 	O 	0.09019 0.10680 0.07313 -0.47000
C 	C 	0.06868 0.14540 0.17086 0.26300
C 	C 	0.12970 0.86107 0.16021 0.26300
O 	O 	0.01601 0.08833 0.19057 -0.39600
O 	O 	0.09091 0.14349 0.14566 -0.37500
O 	O 	0.15837 0.90923 0.12688 -0.37600
O 	O 	0.08175 0.85405 0.17077 -0.37100
O 	O 	0.06569 0.94856 0.09434 -0.75700
O 	O 	0.17669 0.02129 0.04476 -0.41300
O 	O 	0.19498 0.07702 0.08499 -0.38900
Co	Co	0.01927 0.00557 0.55619 1.17000
Co	Co	0.99697 0.07953 0.59103 1.18600
C 	C 	0.14283 0.03393 0.54320 0.25300
Co	Co	0.01973 0.88343 0.56185 1.16300
O 	O 	0.02937 0.09194 0.54479 -0.47800
C 	C 	0.08906 0.20481 0.62184 0.27700
C 	C 	0.09558 0.86887 0.65320 0.26800
O 	O 	0.02622 0.18524 0.62166 -0.40400
O 	O 	0.09224 0.16264 0.61646 -0.39600
O 	O 	0.10573 0.89553 0.61435 -0.38100
O 	O 	0.07525 0.89021 0.66599 -0.38200
O 	O 	0.99986 0.92653 0.58366 -0.74800
C 	C 	0.04889 0.04813 0.73396 0.26300
O 	O 	0.09148 0.97936 0.52692 -0.37500
O 	O 	0.12695 0.04958 0.56340 -0.39800
C 	C 	0.08535 0.05603 0.83682 0.07600
C 	C 	0.09906 0.09210 0.86129 -0.06200
C 	C 	0.04774 0.05803 0.88463 -0.04800
O 	O 	0.11239 0.08974 0.80049 -0.18200
C 	C 	0.06401 0.06944 0.92178 -0.02300
H 	H 	0.14681 0.14538 0.86117 0.05600
H 	H 	0.11858 0.10738 0.93713 0.03800
C 	C 	0.99457 0.00106 0.35359 -0.15000
C 	C 	0.98367 0.95786 0.33619 0.06300
C 	C 	0.00148 0.97853 0.29993 -0.06900
O 	O 	0.97002 0.99857 0.41136 -0.18500
H 	H 	0.03954 0.05585 0.34890 0.07100
H 	H 	0.02849 0.03161 0.28076 0.04400
C 	C 	0.20660 0.37941 0.62911 0.01000
C 	C 	0.22196 0.34373 0.67077 0.08100
N 	N 	0.19159 0.27906 0.67127 -0.15300
C 	C 	0.15576 0.27220 0.63051 -0.00000
C 	C 	0.16415 0.33382 0.60345 -0.04200
H 	H 	0.12501 0.33634 0.57379 0.04600
H 	H 	0.17772 0.23729 0.69827 0.09800
C 	C 	0.12135 0.74180 0.68919 0.07900
C 	C 	0.10095 0.67496 0.69865 -0.08800
N 	N 	0.07425 0.75634 0.67712 -0.15500
C 	C 	0.11417 0.82006 0.68354 -0.00000
H 	H 	0.04656 0.63461 0.68498 0.05300
H 	H 	0.12312 0.58705 0.69927 0.05600
H 	H 	0.02251 0.73257 0.65658 0.08400
C 	C 	0.17468 0.35045 0.25042 0.07300
C 	C 	0.11298 0.30602 0.22368 -0.08100
C 	C 	0.11453 0.25989 0.21797 0.00900
N 	N 	0.17550 0.23636 0.20960 -0.15100
C 	C 	0.10920 0.21075 0.18157 0.00100
C 	C 	0.07183 0.22829 0.18445 -0.04600
H 	H 	0.06755 0.30982 0.20640 0.05200
H 	H 	0.01350 0.20376 0.17242 0.03700
H 	H 	0.15722 0.42678 0.22846 0.08800
C 	C 	0.15091 0.67029 0.22073 -0.07900
C 	C 	0.16341 0.73526 0.20065 0.00900
C 	C 	0.15716 0.81898 0.18887 0.00700
C 	C 	0.11470 0.74869 0.19079 -0.04600
H 	H 	0.09634 0.62274 0.21603 0.05300
H 	H 	0.05700 0.71739 0.17579 0.04700
O 	O 	0.04189 0.98494 0.13230 -0.57200
O 	O 	0.04718 0.10172 0.70876 -0.38000
O 	O 	0.04584 0.01127 0.71830 -0.39800
C 	C 	0.20135 0.43193 0.62145 -0.08100
H 	H 	0.17789 0.45194 0.58984 0.05400
C 	C 	0.15394 0.66251 0.72599 0.02200
H 	H 	0.17426 0.57870 0.23475 0.08900
C 	C 	0.02827 0.98874 0.99075 0.31000
O 	O 	0.02978 0.01946 0.01087 -0.40300
Co	Co	0.98279 0.89015 0.63287 1.18700
C 	C 	0.06339 0.03473 0.78048 0.01800
C 	C 	0.23387 0.36056 0.70608 -0.08800
C 	C 	0.17801 0.26493 0.23227 0.07800
C 	C 	0.16052 0.61882 0.72224 -0.07300
O 	O 	0.02108 0.92977 0.01042 -0.37800
Co	Co	0.01464 0.88738 0.13066 1.18500
N 	N 	0.19055 0.41000 0.24844 -0.16300
O 	O 	0.96197 0.98527 0.49489 -0.34300
C 	C 	0.21189 0.66898 0.24593 0.07300
C 	C 	0.94795 0.97063 0.37914 0.15900
C 	C 	0.01165 0.00786 0.94372 -0.01900
C 	C 	0.93755 0.92751 0.23796 0.27300
O 	O 	0.93278 0.87659 0.51142 -0.38300
C 	C 	0.95377 0.92052 0.28371 0.05400
C 	C 	0.18702 0.84342 0.70320 -0.03800
N 	N 	0.22915 0.84687 0.19952 -0.15200
C 	C 	0.77201 0.31514 0.03918 0.09500
N 	N 	0.80629 0.37738 0.04589 -0.12900
C 	C 	0.77723 0.38231 0.06563 0.09700
N 	N 	0.71415 0.32516 0.07842 -0.13100
C 	C 	0.67875 0.26380 0.07057 0.09700
N 	N 	0.70763 0.25890 0.05088 -0.13200
C 	C 	0.68823 0.30885 0.52039 0.09800
N 	N 	0.61508 0.27715 0.50395 -0.13400
C 	C 	0.58573 0.31014 0.49354 0.09800
N 	N 	0.62977 0.37489 0.49950 -0.13100
C 	C 	0.70262 0.40621 0.51647 0.09800
N 	N 	0.73179 0.37322 0.52681 -0.13000
C 	C 	0.31513 0.62330 0.25002 0.09800
N 	N 	0.27634 0.55381 0.25593 -0.13000
C 	C 	0.30444 0.52848 0.25294 0.09800
N 	N 	0.37127 0.57278 0.24394 -0.13200
C 	C 	0.40938 0.64224 0.23714 0.09900
N 	N 	0.38136 0.66735 0.24030 -0.13200
C 	C 	0.27023 0.62853 0.72960 0.09700
N 	N 	0.34453 0.66994 0.73680 -0.13100
C 	C 	0.37826 0.65175 0.73227 0.10000
N 	N 	0.33791 0.59223 0.72069 -0.13100
C 	C 	0.26400 0.55090 0.71300 0.09800
N 	N 	0.22966 0.56886 0.71736 -0.13100
Co	Co	0.94600 0.92324 0.16073 1.19400
Co	Co	0.91353 0.02250 0.15675 1.15800
C 	C 	0.94315 0.79114 0.07894 0.28900
O 	O 	0.93162 0.10764 0.10483 -0.40200
O 	O 	0.96944 0.00405 0.14409 -0.77500
C 	C 	0.92675 0.11004 0.06686 0.27700
O 	O 	0.95340 0.84881 0.16970 -0.46000
C 	C 	0.79445 0.89059 0.12876 0.26700
O 	O 	0.94741 0.08014 0.06316 -0.39200
O 	O 	0.81795 0.95499 0.12037 -0.37200
O 	O 	0.83593 0.87745 0.12948 -0.38100
O 	O 	0.88939 0.94007 0.21095 -0.38300
O 	O 	0.96736 0.91638 0.22479 -0.36400
O 	O 	0.00975 0.81364 0.08397 -0.40600
O 	O 	0.93282 0.82338 0.08933 -0.38700
Co	Co	0.96204 0.96535 0.66782 1.19800
Co	Co	0.95772 0.08860 0.65817 1.16500
C 	C 	0.89133 0.76151 0.60243 0.27500
O 	O 	0.87012 0.06962 0.60570 -0.39200
O 	O 	0.96641 0.03703 0.63594 -0.77400
C 	C 	0.87850 0.09994 0.56596 0.26800
O 	O 	0.96346 0.88434 0.68276 -0.45900
C 	C 	0.84293 0.93701 0.68910 0.27800
O 	O 	0.96297 0.97208 0.60416 -0.56800
C 	C 	0.93955 0.93307 0.48307 0.26400
O 	O 	0.92462 0.10716 0.55346 -0.37300
O 	O 	0.89221 0.99770 0.69850 -0.38200
O 	O 	0.86038 0.91180 0.67754 -0.37800
O 	O 	0.95175 0.78419 0.59663 -0.39700
O 	O 	0.89257 0.79408 0.62049 -0.37900
C 	C 	0.98693 0.99020 0.88507 0.16400
C 	C 	0.97370 0.95422 0.86076 -0.10100
C 	C 	0.02612 0.98754 0.83856 0.03900
C 	C 	0.01188 0.97368 0.80305 -0.05200
O 	O 	0.95953 0.95570 0.92126 -0.16700
H 	H 	0.92603 0.90091 0.86088 0.07200
H 	H 	0.95850 0.93334 0.78855 0.05900
C 	C 	0.92553 0.88858 0.34091 0.09600
C 	C 	0.87901 0.85803 0.36653 -0.07000
C 	C 	0.89045 0.90103 0.38439 -0.01000
O 	O 	0.90364 0.86089 0.30860 -0.18500
C 	C 	0.92194 0.93852 0.43726 0.04300
C 	C 	0.87410 0.88022 0.42124 -0.04900
H 	H 	0.83405 0.80325 0.37120 0.06200
H 	H 	0.84775 0.82717 0.44051 0.05300
C 	C 	0.22422 0.45465 0.65685 0.07500
C 	C 	0.24036 0.42019 0.69781 0.02200
N 	N 	0.21037 0.49400 0.65692 -0.16300
C 	C 	0.22225 0.48824 0.69870 0.05400
C 	C 	0.23534 0.43782 0.72479 -0.07200
H 	H 	0.23471 0.32705 0.73803 0.05900
H 	H 	0.26123 0.43281 0.75867 0.05500
H 	H 	0.21399 0.53634 0.63182 0.08800
C 	C 	0.68704 0.86042 0.72176 0.08300
C 	C 	0.62442 0.85569 0.71270 -0.08500
C 	C 	0.55721 0.78993 0.71342 0.02200
C 	C 	0.55282 0.73095 0.72498 0.07700
C 	C 	0.61500 0.73496 0.73472 -0.08000
C 	C 	0.68235 0.80081 0.73308 0.01300
N 	N 	0.74325 0.91545 0.70288 -0.15000
C 	C 	0.77266 0.89121 0.70060 0.00300
C 	C 	0.73776 0.82079 0.71991 -0.04200
N 	N 	0.49371 0.67511 0.74096 -0.16300
C 	C 	0.45817 0.69728 0.73838 0.05700
C 	C 	0.49796 0.76925 0.72284 -0.07100
H 	H 	0.62770 0.90170 0.70393 0.06000
H 	H 	0.61116 0.68873 0.74319 0.05600
H 	H 	0.73917 0.78630 0.71422 0.05300
H 	H 	0.47650 0.79900 0.70944 0.05700
H 	H 	0.74935 0.96185 0.68346 0.09000
H 	H 	0.47169 0.62354 0.74568 0.09200
C 	C 	0.22425 0.71499 0.74310 0.07400
C 	C 	0.24349 0.78161 0.73383 -0.07900
C 	C 	0.19093 0.79389 0.70539 0.01000
N 	N 	0.27279 0.70449 0.75051 -0.16300
C 	C 	0.23456 0.64632 0.73783 0.05800
H 	H 	0.29806 0.82274 0.74671 0.05700
H 	H 	0.23331 0.89702 0.70360 0.05400
H 	H 	0.32886 0.74365 0.75255 0.09300
C 	C 	0.24319 0.31662 0.25329 -0.08700
C 	C 	0.23865 0.35529 0.26516 0.02200
C 	C 	0.26412 0.45303 0.26152 0.05700
C 	C 	0.29608 0.42118 0.27180 -0.07200
H 	H 	0.29540 0.32853 0.25826 0.05700
H 	H 	0.35177 0.44864 0.27080 0.05600
H 	H 	0.20752 0.21929 0.22015 0.08700
C 	C 	0.57225 0.71931 0.21251 0.07600
C 	C 	0.60570 0.70631 0.20099 -0.08000
C 	C 	0.62778 0.74644 0.16209 0.01400
C 	C 	0.61468 0.79627 0.13502 0.08100
C 	C 	0.57812 0.80674 0.14593 -0.08700
C 	C 	0.56069 0.76996 0.18601 0.02400
N 	N 	0.52372 0.67065 0.23744 -0.16300
C 	C 	0.48137 0.69030 0.22708 0.05700
C 	C 	0.50248 0.75164 0.19513 -0.07200
N 	N 	0.66764 0.84872 0.11332 -0.15100
C 	C 	0.71613 0.83457 0.12717 0.00900
C 	C 	0.69231 0.77070 0.15692 -0.04400
H 	H 	0.61572 0.66747 0.22198 0.05700
H 	H 	0.56767 0.84529 0.12498 0.05900
H 	H 	0.46633 0.76668 0.17269 0.05700
H 	H 	0.72873 0.75706 0.18159 0.05200
H 	H 	0.50780 0.61962 0.25116 0.09100
H 	H 	0.68077 0.89878 0.09997 0.09600
C 	C 	0.23297 0.79629 0.20621 0.08200
C 	C 	0.29372 0.79529 0.23219 -0.08700
C 	C 	0.28178 0.73041 0.25236 0.02500
N 	N 	0.21625 0.62038 0.24925 -0.16200
C 	C 	0.28832 0.65036 0.25753 0.05800
C 	C 	0.33064 0.71862 0.25972 -0.07300
H 	H 	0.34818 0.84308 0.23656 0.06000
H 	H 	0.38497 0.75906 0.25356 0.06000
H 	H 	0.27165 0.89997 0.19355 0.09500
C 	C 	0.79368 0.25618 0.53732 0.07400
C 	C 	0.84096 0.26741 0.52083 -0.08300
C 	C 	0.82204 0.21035 0.51343 0.01200
C 	C 	0.75766 0.14451 0.52190 0.07600
C 	C 	0.70814 0.13455 0.53572 -0.08800
C 	C 	0.72872 0.19096 0.54471 0.01900
N 	N 	0.78846 0.30590 0.53059 -0.16300
C 	C 	0.72003 0.27260 0.53313 0.05600
C 	C 	0.68085 0.20105 0.54159 -0.07400
N 	N 	0.76739 0.09544 0.53462 -0.15200
C 	C 	0.83756 0.12894 0.53500 0.00100
C 	C 	0.87267 0.20035 0.52129 -0.04500
H 	H 	0.89158 0.31834 0.51495 0.05600
H 	H 	0.65744 0.08373 0.54164 0.05100
H 	H 	0.62169 0.16503 0.53340 0.05300
H 	H 	0.93136 0.23818 0.53056 0.05100
H 	H 	0.82049 0.35751 0.51392 0.09100
H 	H 	0.73661 0.04567 0.55361 0.08400
C 	C 	0.76732 0.56209 0.52873 0.07500
C 	C 	0.74318 0.59806 0.52434 -0.08300
C 	C 	0.75757 0.61342 0.56094 0.01300
C 	C 	0.79228 0.59103 0.60090 0.07900
C 	C 	0.81250 0.55151 0.60538 -0.08700
C 	C 	0.80299 0.54090 0.56832 0.02100
N 	N 	0.73442 0.52108 0.50311 -0.16300
C 	C 	0.74904 0.47365 0.52616 0.05700
C 	C 	0.79143 0.48425 0.56693 -0.07200
N 	N 	0.83281 0.63700 0.62458 -0.15000
C 	C 	0.82748 0.69030 0.59979 0.00400
C 	C 	0.77941 0.67627 0.56046 -0.04700
H 	H 	0.71614 0.61538 0.49331 0.05500
H 	H 	0.83932 0.53380 0.63636 0.05600
H 	H 	0.79164 0.44371 0.59483 0.05600
H 	H 	0.78183 0.71636 0.53137 0.04900
H 	H 	0.68937 0.51362 0.47731 0.09000
H 	H 	0.87785 0.64229 0.64984 0.08900
C 	C 	0.27988 0.11588 0.49379 0.07900
C 	C 	0.33133 0.12193 0.48487 -0.08800
C 	C 	0.38881 0.18881 0.46866 0.02100
C 	C 	0.40084 0.24750 0.46797 0.07300
C 	C 	0.35341 0.24070 0.48179 -0.08000
C 	C 	0.28957 0.17407 0.49108 0.01000
N 	N 	0.23671 0.06042 0.52063 -0.15200
C 	C 	0.21542 0.08147 0.53395 0.00400
C 	C 	0.25010 0.15289 0.51761 -0.04400
N 	N 	0.47255 0.30050 0.47205 -0.16300
C 	C 	0.50653 0.27620 0.47547 0.05600
C 	C 	0.45630 0.20699 0.47359 -0.07300
H 	H 	0.32958 0.07699 0.49303 0.05200
H 	H 	0.36803 0.28460 0.48764 0.05500
H 	H 	0.23266 0.18091 0.51552 0.05100
H 	H 	0.46960 0.17045 0.48780 0.05300
H 	H 	0.21110 0.00887 0.52253 0.07900
H 	H 	0.49816 0.34232 0.48380 0.09000
C 	C 	0.91842 0.25172 0.00673 0.08900
C 	C 	0.93412 0.30674 0.01482 -0.09100
C 	C 	0.87676 0.31175 0.00199 0.03100
C 	C 	0.80477 0.25823 0.98822 0.06500
C 	C 	0.78808 0.19851 0.98601 -0.07500
C 	C 	0.84654 0.19893 0.99209 -0.00300
N 	N 	0.95931 0.22758 0.02907 -0.14700
C 	C 	0.91423 0.15925 0.02971 -0.00200
C 	C 	0.84359 0.13978 0.00687 -0.03500
N 	N 	0.75847 0.25742 0.99634 -0.16400
C 	C 	0.80030 0.31014 0.01525 0.06100
C 	C 	0.87431 0.34479 0.01977 -0.07500
H 	H 	0.98763 0.34153 0.03269 0.06000
H 	H 	0.73220 0.15215 0.98226 0.04800
H 	H 	0.79456 0.08741 0.01307 0.04100
H 	H 	0.91804 0.37305 0.04413 0.05800
H 	H 	0.00744 0.24974 0.05248 0.08300
H 	H 	0.70511 0.21388 0.99928 0.08700
C 	C 	0.80392 0.53852 0.04001 0.07300
C 	C 	0.82866 0.60763 0.01862 -0.07300
C 	C 	0.82732 0.64247 0.03624 0.01000
C 	C 	0.81458 0.61403 0.07693 0.08200
C 	C 	0.80149 0.54906 0.10103 -0.08700
C 	C 	0.79028 0.51002 0.08008 0.02400
N 	N 	0.81696 0.50362 0.03344 -0.16200
C 	C 	0.80883 0.45060 0.06883 0.05700
C 	C 	0.79636 0.45588 0.09948 -0.07200
N 	N 	0.84695 0.66482 0.09481 -0.15000
C 	C 	0.88041 0.72569 0.06591 0.00200
C 	C 	0.87021 0.71384 0.02931 -0.03600
H 	H 	0.85059 0.63390 0.99068 0.05200
H 	H 	0.80305 0.53121 0.13487 0.05700
H 	H 	0.77458 0.41464 0.12693 0.05500
H 	H 	0.90759 0.75066 0.00818 0.05300
H 	H 	0.81233 0.50459 0.00325 0.09200
H 	H 	0.86313 0.65977 0.12784 0.08700
C 	C 	0.51148 0.16336 0.09774 0.07200
C 	C 	0.47611 0.16978 0.11293 -0.08200
C 	C 	0.41595 0.17081 0.08475 0.01000
C 	C 	0.39054 0.16365 0.04338 0.07700
C 	C 	0.42485 0.15563 0.02856 -0.08400
C 	C 	0.48486 0.15432 0.05672 0.01800
N 	N 	0.58414 0.19456 0.11037 -0.16300
C 	C 	0.60455 0.20598 0.07769 0.05400
C 	C 	0.54408 0.18112 0.04395 -0.07300
N 	N 	0.31856 0.13515 0.02965 -0.15100
C 	C 	0.29719 0.12290 0.06215 -0.00300
C 	C 	0.35634 0.14438 0.09706 -0.04200
H 	H 	0.49594 0.17558 0.14513 0.05200
H 	H 	0.40499 0.14987 0.99634 0.05000
H 	H 	0.54725 0.20143 0.01078 0.05500
H 	H 	0.35150 0.12237 0.12998 0.04500
H 	H 	0.61942 0.22360 0.13343 0.08800
H 	H 	0.28346 0.10851 0.00535 0.08800
