data_crystal

_cell_length_a 27.72161
_cell_length_b 28.91153
_cell_length_c 39.16630
_cell_angle_alpha 60.96925
_cell_angle_beta  118.73659
_cell_angle_gamma 133.26390

_symmetry_space_group_name_	'P 1'
_symmetry_space_group_name_H-M	'P 1'

loop_
_symmetry_equiv_pos_as_xyz
  x,y,z

loop_
_atom_site_label
_atom_site_type_symbol
_atom_site_fract_x
_atom_site_fract_y
_atom_site_fract_z
_atom_site_charge
C 	C 	0.72314 0.30827 0.02834 0.28400
N 	N 	0.75558 0.37399 0.01930 -0.10300
C 	C 	0.73113 0.39692 0.02493 0.28900
N 	N 	0.67517 0.35435 0.04007 -0.11600
C 	C 	0.64352 0.28906 0.04990 0.28800
N 	N 	0.66703 0.26583 0.04371 -0.10500
C 	C 	0.70977 0.28974 0.53408 0.28600
N 	N 	0.65396 0.24790 0.54959 -0.10700
C 	C 	0.63348 0.27186 0.55789 0.28500
N 	N 	0.66823 0.33735 0.55028 -0.11200
C 	C 	0.72393 0.37931 0.53498 0.28500
N 	N 	0.74517 0.35558 0.52708 -0.10500
C 	C 	0.25802 0.64037 0.19482 0.28800
N 	N 	0.23112 0.57607 0.20338 -0.10100
C 	C 	0.26181 0.55963 0.19747 0.28900
N 	N 	0.31870 0.60717 0.18294 -0.11300
C 	C 	0.34555 0.67104 0.17430 0.29000
N 	N 	0.31537 0.68782 0.18030 -0.10500
C 	C 	0.26649 0.62873 0.71002 0.28800
N 	N 	0.33540 0.66605 0.71633 -0.10800
C 	C 	0.36418 0.64577 0.71248 0.29600
N 	N 	0.32422 0.58797 0.70300 -0.12000
C 	C 	0.25554 0.55263 0.69407 0.28900
N 	N 	0.22632 0.57273 0.69776 -0.09900
Co	Co	0.06879 0.02202 0.07841 1.19400
Co	Co	0.93703 0.93536 0.15608 1.20200
Co	Co	0.01611 0.06814 0.10675 1.20300
Co	Co	0.99393 0.88988 0.13049 1.19600
C 	C 	0.20512 0.05600 0.09720 0.42400
Co	Co	0.09131 0.92136 0.08553 1.19100
Co	Co	0.93069 0.04138 0.15753 1.17600
C 	C 	0.94823 0.80004 0.08663 0.41400
O 	O 	0.95340 0.12459 0.11070 -0.37000
O 	O 	0.95970 0.01174 0.13622 -0.77200
C 	C 	0.93901 0.12512 0.07344 0.42300
O 	O 	0.07294 0.09842 0.07198 -0.39300
O 	O 	0.93457 0.85927 0.16375 -0.40000
C 	C 	0.80214 0.91819 0.13409 0.39800
O 	O 	0.98309 0.97205 0.10592 -0.55000
C 	C 	0.08035 0.14195 0.16902 0.40500
C 	C 	0.05417 0.99428 0.00497 0.33300
C 	C 	0.10388 0.86737 0.17277 0.40400
O 	O 	0.95816 0.10224 0.06432 -0.34000
O 	O 	0.03967 0.93594 0.02657 -0.33000
O 	O 	0.05608 0.03065 0.01809 -0.34700
O 	O 	0.83540 0.98241 0.12481 -0.32500
O 	O 	0.83287 0.89033 0.14554 -0.32100
O 	O 	0.03066 0.09600 0.18798 -0.36900
O 	O 	0.09179 0.12786 0.14720 -0.33900
O 	O 	0.13952 0.91114 0.14538 -0.33000
O 	O 	0.06343 0.87213 0.17771 -0.33400
O 	O 	0.04389 0.94448 0.09677 -0.74200
C 	C 	0.95314 0.95102 0.23136 0.31700
O 	O 	0.90799 0.96300 0.20794 -0.36100
O 	O 	0.98179 0.94672 0.21508 -0.35900
O 	O 	0.17480 0.01784 0.07399 -0.40100
O 	O 	0.16910 0.05866 0.10808 -0.36700
O 	O 	0.01232 0.82216 0.09770 -0.34500
O 	O 	0.92758 0.81729 0.09956 -0.33100
Co	Co	0.04082 0.99846 0.57412 1.20200
Co	Co	0.95461 0.92905 0.67262 1.19400
Co	Co	0.98595 0.04211 0.60222 1.19200
Co	Co	0.00239 0.88078 0.64181 1.20300
C 	C 	0.18113 0.05436 0.57915 0.42100
Co	Co	0.08354 0.91098 0.58523 1.18700
Co	Co	0.93628 0.03343 0.66637 1.18400
C 	C 	0.95523 0.78065 0.60637 0.41300
O 	O 	0.85590 0.01321 0.61669 -0.32500
O 	O 	0.95780 0.99697 0.64483 -0.74300
C 	C 	0.86612 0.04687 0.58009 0.38900
O 	O 	0.02545 0.06545 0.55959 -0.40000
O 	O 	0.96060 0.85668 0.68374 -0.39500
C 	C 	0.83466 0.88999 0.68918 0.40500
O 	O 	0.97179 0.94908 0.61430 -0.55300
C 	C 	0.05477 0.15598 0.63155 0.43000
C 	C 	0.01329 0.95317 0.50502 0.30200
C 	C 	0.12787 0.88358 0.67315 0.40800
O 	O 	0.90667 0.05251 0.56692 -0.32200
O 	O 	0.01348 0.90263 0.53079 -0.32600
O 	O 	0.00931 0.98777 0.51562 -0.32800
O 	O 	0.87945 0.94268 0.70278 -0.37200
O 	O 	0.85399 0.87271 0.67530 -0.33500
O 	O 	0.99358 0.12840 0.63309 -0.37900
O 	O 	0.06646 0.12379 0.62538 -0.35500
O 	O 	0.15056 0.92232 0.64040 -0.33100
O 	O 	0.08906 0.88563 0.68210 -0.32900
O 	O 	0.03436 0.92870 0.59988 -0.74200
C 	C 	0.02371 0.00062 0.73833 0.26800
O 	O 	0.02052 0.04978 0.71296 -0.34000
O 	O 	0.02154 0.96391 0.72542 -0.33000
O 	O 	0.15067 0.00959 0.56082 -0.40100
O 	O 	0.14563 0.05564 0.59152 -0.37300
O 	O 	0.02003 0.81121 0.61001 -0.35300
O 	O 	0.93652 0.79565 0.62253 -0.32700
C 	C 	0.05932 0.01528 0.96317 -0.10800
C 	C 	0.11852 0.03727 0.95626 0.16800
C 	C 	0.11432 0.03047 0.92151 -0.09000
C 	C 	0.05516 0.01265 0.89032 0.02500
C 	C 	0.99857 0.99945 0.89488 0.08700
C 	C 	0.00018 0.99798 0.93200 0.03900
N 	N 	0.17987 0.06710 0.98212 -0.20600
H 	H 	0.15833 0.04218 0.91791 0.10000
C 	C 	0.05294 0.00745 0.85315 -0.01400
N 	N 	0.94330 0.98920 0.86383 -0.18700
H 	H 	0.95495 0.98230 0.93676 0.08100
C 	C 	0.00664 0.94628 0.84372 -0.04600
C 	C 	0.00056 0.94045 0.80783 0.13800
C 	C 	0.04459 0.99631 0.78205 -0.03300
C 	C 	0.09729 0.05488 0.79476 -0.04500
C 	C 	0.09862 0.06256 0.82815 0.11500
H 	H 	0.97356 0.90345 0.86362 0.09300
N 	N 	0.95176 0.88155 0.79814 -0.19900
H 	H 	0.13261 0.09709 0.77590 0.11800
N 	N 	0.14126 0.12338 0.83467 -0.19500
H 	H 	0.91787 0.84135 0.81651 0.15000
H 	H 	0.94794 0.87452 0.77300 0.13100
H 	H 	0.17694 0.16310 0.81729 0.16000
H 	H 	0.13682 0.13269 0.85526 0.13700
H 	H 	0.90075 0.97678 0.86795 0.14900
H 	H 	0.94327 0.99660 0.83496 0.13200
H 	H 	0.18679 0.08432 0.00329 0.15000
H 	H 	0.22263 0.07887 0.97875 0.15800
C 	C 	0.98204 0.95835 0.27336 -0.07300
C 	C 	0.97392 0.90460 0.30689 0.16300
C 	C 	0.98102 0.90621 0.34466 -0.08100
C 	C 	0.99343 0.95929 0.34911 0.02300
C 	C 	0.00398 0.01385 0.31597 0.09400
C 	C 	0.00109 0.01385 0.27915 -0.00800
N 	N 	0.95863 0.85120 0.30313 -0.20000
H 	H 	0.97490 0.86520 0.37030 0.10100
C 	C 	0.99691 0.95809 0.38893 0.01700
N 	N 	0.01434 0.06539 0.31872 -0.18800
H 	H 	0.00681 0.05480 0.25375 0.08700
C 	C 	0.06010 0.00058 0.41148 -0.08200
C 	C 	0.06430 0.00700 0.44642 0.13600
C 	C 	0.00584 0.96423 0.46206 -0.05000
C 	C 	0.94258 0.92137 0.43974 -0.01700
C 	C 	0.93712 0.91921 0.40271 0.10500
H 	H 	0.10564 0.03149 0.40059 0.10300
N 	N 	0.12406 0.05541 0.46416 -0.20100
H 	H 	0.89757 0.88875 0.45149 0.11000
N 	N 	0.87458 0.88009 0.38066 -0.19000
H 	H 	0.16827 0.08421 0.45423 0.16400
H 	H 	0.12592 0.06796 0.48587 0.15300
H 	H 	0.83107 0.85061 0.39148 0.15700
H 	H 	0.86818 0.87959 0.35230 0.13700
H 	H 	0.02512 0.10670 0.29467 0.15400
H 	H 	0.00913 0.06408 0.34391 0.13200
H 	H 	0.95544 0.84939 0.27610 0.14600
H 	H 	0.95108 0.81114 0.32773 0.15000
C 	C 	0.17775 0.30137 0.67346 0.23400
C 	C 	0.15637 0.34078 0.64379 0.00900
C 	C 	0.11707 0.32670 0.60596 0.24400
C 	C 	0.09457 0.27069 0.59919 0.33000
C 	C 	0.10666 0.22578 0.63094 -0.20500
C 	C 	0.15274 0.24386 0.66707 0.32100
C 	C 	0.17284 0.39509 0.65280 -0.00200
F 	F 	0.09734 0.36511 0.57658 -0.29100
F 	F 	0.16794 0.20260 0.69738 -0.37500
C 	C 	0.21256 0.45985 0.63110 0.25800
C 	C 	0.23134 0.51137 0.64113 0.30600
C 	C 	0.21427 0.49917 0.67454 -0.13400
C 	C 	0.17059 0.43421 0.69446 0.30700
C 	C 	0.14929 0.38226 0.68334 0.25500
F 	F 	0.23531 0.47307 0.60137 -0.30100
F 	F 	0.15208 0.42154 0.72606 -0.33100
F 	F 	0.27063 0.57388 0.62026 -0.31400
F 	F 	0.10738 0.31960 0.70293 -0.32700
F 	F 	0.22011 0.31716 0.70911 -0.32800
F 	F 	0.05451 0.25624 0.56301 -0.32000
C 	C 	0.54992 0.72065 0.73862 0.25200
C 	C 	0.56263 0.75070 0.70010 -0.00000
C 	C 	0.51219 0.75305 0.66641 0.25700
C 	C 	0.44923 0.72462 0.67110 0.31100
C 	C 	0.43522 0.69174 0.70936 -0.14300
C 	C 	0.48626 0.69095 0.74320 0.30900
C 	C 	0.63093 0.78562 0.69527 0.00900
F 	F 	0.52413 0.78255 0.62907 -0.29900
F 	F 	0.47327 0.65928 0.78034 -0.32600
C 	C 	0.65392 0.75072 0.70144 0.24100
C 	C 	0.71945 0.78453 0.69747 0.32600
C 	C 	0.76203 0.85340 0.68697 -0.20500
C 	C 	0.73749 0.88784 0.67936 0.33100
C 	C 	0.67279 0.85415 0.68387 0.24000
F 	F 	0.61313 0.68423 0.71172 -0.31000
F 	F 	0.77749 0.95431 0.66891 -0.36800
F 	F 	0.74232 0.75045 0.70527 -0.34900
F 	F 	0.65102 0.88826 0.67785 -0.30700
F 	F 	0.59916 0.72008 0.77153 -0.31800
F 	F 	0.40023 0.72576 0.63818 -0.31500
C 	C 	0.17037 0.69565 0.68280 0.25400
C 	C 	0.19254 0.71248 0.71836 0.00100
C 	C 	0.23349 0.69560 0.75234 0.26000
C 	C 	0.25510 0.66541 0.75016 0.30900
C 	C 	0.23551 0.65133 0.71405 -0.13500
C 	C 	0.19159 0.66504 0.68069 0.31000
C 	C 	0.17900 0.75393 0.71855 0.00800
F 	F 	0.25387 0.71010 0.78716 -0.30100
F 	F 	0.17208 0.65157 0.64565 -0.32100
C 	C 	0.11252 0.72858 0.71572 0.24700
C 	C 	0.09727 0.77096 0.70728 0.31800
C 	C 	0.14788 0.83902 0.70032 -0.19400
C 	C 	0.21590 0.86295 0.70872 0.32500
C 	C 	0.23129 0.82076 0.71724 0.24000
F 	F 	0.06213 0.66348 0.71918 -0.29500
F 	F 	0.26633 0.92805 0.70521 -0.30900
F 	F 	0.03226 0.74642 0.70261 -0.34300
F 	F 	0.29633 0.84553 0.72168 -0.30700
F 	F 	0.13054 0.71141 0.64978 -0.32100
F 	F 	0.29606 0.65085 0.78294 -0.32200
C 	C 	0.16965 0.31971 0.15432 0.24400
C 	C 	0.17916 0.31981 0.19296 0.00700
C 	C 	0.17117 0.26545 0.22503 0.23200
C 	C 	0.14904 0.20981 0.21798 0.31800
C 	C 	0.13070 0.20647 0.17849 -0.20100
C 	C 	0.14551 0.26318 0.14713 0.32600
C 	C 	0.19582 0.37610 0.19962 -0.00300
F 	F 	0.18208 0.26549 0.26273 -0.32900
F 	F 	0.13204 0.26207 0.10922 -0.33700
C 	C 	0.14916 0.39163 0.18110 0.25300
C 	C 	0.16791 0.44890 0.18390 0.30900
C 	C 	0.23311 0.49055 0.20565 -0.13600
C 	C 	0.27677 0.47118 0.22758 0.30500
C 	C 	0.25891 0.41509 0.22385 0.25500
F 	F 	0.08652 0.35233 0.15937 -0.31300
F 	F 	0.33859 0.50930 0.25038 -0.32800
F 	F 	0.12444 0.46602 0.16335 -0.32200
F 	F 	0.30403 0.40010 0.24248 -0.30800
F 	F 	0.18153 0.37356 0.12354 -0.29800
F 	F 	0.14120 0.15742 0.24920 -0.37600
C 	C 	0.53070 0.79964 0.17339 0.25400
C 	C 	0.53305 0.78915 0.14290 0.00000
C 	C 	0.47211 0.74912 0.11812 0.25600
C 	C 	0.40953 0.71621 0.12556 0.30800
C 	C 	0.40739 0.72153 0.15856 -0.13800
C 	C 	0.46805 0.76575 0.18129 0.30900
C 	C 	0.59913 0.81714 0.13835 0.00700
F 	F 	0.47366 0.73986 0.08793 -0.30400
F 	F 	0.46664 0.77261 0.21266 -0.32800
C 	C 	0.63801 0.79433 0.16811 0.23900
C 	C 	0.70273 0.82397 0.16522 0.31900
C 	C 	0.72879 0.87622 0.13228 -0.19200
C 	C 	0.68749 0.89538 0.10102 0.32300
C 	C 	0.62346 0.86671 0.10435 0.24600
F 	F 	0.61367 0.74447 0.20030 -0.31800
F 	F 	0.71030 0.94312 0.06792 -0.31300
F 	F 	0.74159 0.80437 0.19549 -0.36100
F 	F 	0.58570 0.88817 0.07497 -0.29900
F 	F 	0.58927 0.84074 0.19632 -0.32000
F 	F 	0.35096 0.67592 0.10220 -0.32300
C 	C 	0.19889 0.79541 0.22675 0.24100
C 	C 	0.14925 0.73586 0.21520 0.01100
C 	C 	0.08050 0.71210 0.20223 0.24300
C 	C 	0.06299 0.75177 0.19554 0.32200
C 	C 	0.11434 0.81621 0.20020 -0.19500
C 	C 	0.18125 0.83509 0.21976 0.33000
C 	C 	0.17038 0.70529 0.20955 0.00000
F 	F 	0.03134 0.65273 0.19331 -0.30100
F 	F 	0.23057 0.89498 0.22795 -0.31400
C 	C 	0.19010 0.66666 0.24260 0.26100
C 	C 	0.21643 0.64327 0.23759 0.31000
C 	C 	0.22356 0.65869 0.19952 -0.13300
C 	C 	0.20186 0.69564 0.16631 0.31000
C 	C 	0.17539 0.71876 0.17130 0.25400
F 	F 	0.18504 0.65291 0.27965 -0.30200
F 	F 	0.20709 0.70969 0.12924 -0.32700
F 	F 	0.23707 0.60751 0.26992 -0.32400
F 	F 	0.15617 0.75575 0.13910 -0.33100
F 	F 	0.26503 0.81726 0.24164 -0.30300
F 	F 	0.99698 0.73024 0.18039 -0.35300
C 	C 	0.84289 0.18011 0.51671 0.24800
C 	C 	0.78445 0.15360 0.52659 0.00500
C 	C 	0.74418 0.08656 0.54492 0.24400
C 	C 	0.76634 0.04833 0.55742 0.31100
C 	C 	0.83013 0.07740 0.55301 -0.18700
C 	C 	0.86550 0.14200 0.52970 0.31900
C 	C 	0.77109 0.19727 0.52333 0.00000
F 	F 	0.68588 0.05952 0.55301 -0.30800
F 	F 	0.92399 0.16912 0.52185 -0.33100
C 	C 	0.71123 0.19161 0.49771 0.25800
C 	C 	0.69251 0.22420 0.49997 0.30900
C 	C 	0.73413 0.26359 0.52736 -0.14000
C 	C 	0.79613 0.27263 0.55108 0.30700
C 	C 	0.81436 0.23930 0.54928 0.25100
F 	F 	0.67012 0.15280 0.47160 -0.30400
F 	F 	0.83705 0.31111 0.57738 -0.32200
F 	F 	0.63324 0.21645 0.47617 -0.32000
F 	F 	0.87247 0.24535 0.57412 -0.32000
F 	F 	0.87984 0.24381 0.49661 -0.30100
F 	F 	0.72786 0.98395 0.57607 -0.31300
C 	C 	0.85713 0.67720 0.53464 0.23600
C 	C 	0.84693 0.61822 0.56121 0.00800
C 	C 	0.86074 0.60928 0.60264 0.24300
C 	C 	0.89031 0.66101 0.61757 0.33500
C 	C 	0.90484 0.72147 0.59113 -0.20000
C 	C 	0.88390 0.72776 0.54954 0.31400
C 	C 	0.82139 0.56563 0.54575 -0.00300
F 	F 	0.84693 0.55097 0.62845 -0.30100
F 	F 	0.89144 0.78371 0.52358 -0.38900
C 	C 	0.86065 0.54347 0.55812 0.25300
C 	C 	0.83125 0.48545 0.55024 0.30800
C 	C 	0.76285 0.45002 0.52934 -0.13800
C 	C 	0.72732 0.47763 0.51198 0.30300
C 	C 	0.75562 0.53409 0.52113 0.25300
F 	F 	0.92607 0.57632 0.57953 -0.30700
F 	F 	0.66285 0.44632 0.48914 -0.33000
F 	F 	0.86742 0.46102 0.56565 -0.31700
F 	F 	0.71766 0.55585 0.50810 -0.31100
F 	F 	0.84283 0.68613 0.49448 -0.33200
F 	F 	0.90753 0.65332 0.65780 -0.31300
C 	C 	0.35106 0.17733 0.55534 0.23300
C 	C 	0.38760 0.15542 0.58955 0.00900
C 	C 	0.36101 0.11300 0.62391 0.23900
C 	C 	0.29564 0.08784 0.62259 0.32600
C 	C 	0.25524 0.10193 0.58635 -0.21600
C 	C 	0.28488 0.15037 0.55369 0.32600
C 	C 	0.45105 0.17331 0.58829 -0.00400
F 	F 	0.39703 0.09362 0.65780 -0.29900
F 	F 	0.24783 0.16791 0.51939 -0.37200
C 	C 	0.51374 0.21543 0.61116 0.25700
C 	C 	0.57445 0.24132 0.60478 0.30500
C 	C 	0.57291 0.22748 0.57429 -0.13800
C 	C 	0.51029 0.18029 0.55427 0.30700
C 	C 	0.44955 0.15284 0.56153 0.25300
F 	F 	0.51583 0.23392 0.63805 -0.30400
F 	F 	0.50802 0.16452 0.52578 -0.32300
F 	F 	0.63494 0.28323 0.62644 -0.32700
F 	F 	0.38904 0.10890 0.54108 -0.32900
F 	F 	0.37844 0.22222 0.52299 -0.31800
F 	F 	0.26981 0.04626 0.65571 -0.34700
C 	C 	0.91502 0.25583 0.02574 0.24200
C 	C 	0.84356 0.21684 0.01599 0.01100
C 	C 	0.80659 0.15320 0.01262 0.24300
C 	C 	0.84047 0.12570 0.02483 0.32100
C 	C 	0.91089 0.16100 0.04155 -0.19700
C 	C 	0.94865 0.22808 0.03813 0.32000
C 	C 	0.80849 0.23715 0.01784 -0.00500
F 	F 	0.73759 0.11632 0.00066 -0.30700
F 	F 	0.01750 0.26441 0.05113 -0.31200
C 	C 	0.79812 0.28266 0.98544 0.26300
C 	C 	0.76972 0.30558 0.98867 0.31200
C 	C 	0.75169 0.28323 0.02443 -0.13800
C 	C 	0.76156 0.23719 0.05666 0.30800
C 	C 	0.78965 0.21421 0.05333 0.25200
F 	F 	0.81599 0.30500 0.95097 -0.30400
F 	F 	0.74578 0.21616 0.09167 -0.33200
F 	F 	0.75919 0.34900 0.95698 -0.32600
F 	F 	0.80022 0.17077 0.08500 -0.33400
F 	F 	0.95161 0.31876 0.02677 -0.30400
F 	F 	0.80405 0.06262 0.02425 -0.33600
C 	C 	0.85834 0.56003 0.04935 0.25100
C 	C 	0.81927 0.58430 0.02957 0.00200
C 	C 	0.75835 0.55380 0.00125 0.24500
C 	C 	0.73353 0.49596 0.99556 0.31600
C 	C 	0.76872 0.46749 0.01881 -0.14400
C 	C 	0.83319 0.50183 0.04393 0.31200
C 	C 	0.83970 0.63853 0.04067 0.00900
F 	F 	0.72153 0.57837 0.98076 -0.30800
F 	F 	0.86886 0.47603 0.06559 -0.32500
C 	C 	0.86987 0.70189 0.01554 0.23600
C 	C 	0.89827 0.75482 0.02877 0.31700
C 	C 	0.89787 0.74489 0.06752 -0.19800
C 	C 	0.86174 0.68077 0.09099 0.33700
C 	C 	0.83288 0.62772 0.07766 0.24200
F 	F 	0.87437 0.71253 0.97907 -0.32700
F 	F 	0.85841 0.67024 0.12780 -0.32200
F 	F 	0.92948 0.81624 0.00479 -0.38500
F 	F 	0.80080 0.56610 0.10136 -0.30500
F 	F 	0.91909 0.59113 0.07532 -0.31000
F 	F 	0.67270 0.46486 0.96965 -0.32900
C 	C 	0.38211 0.10677 0.13269 0.24000
C 	C 	0.41037 0.16261 0.10179 0.00900
C 	C 	0.37669 0.19227 0.07655 0.23300
C 	C 	0.31149 0.16177 0.07907 0.32200
C 	C 	0.27954 0.10126 0.10657 -0.21100
C 	C 	0.31711 0.07660 0.13536 0.32300
C 	C 	0.47071 0.18554 0.09293 -0.00300
F 	F 	0.40535 0.24838 0.04795 -0.32100
F 	F 	0.28813 0.02003 0.16361 -0.34100
C 	C 	0.46308 0.17115 0.06041 0.25000
C 	C 	0.52048 0.20042 0.04840 0.30600
C 	C 	0.58580 0.24420 0.06884 -0.13900
C 	C 	0.59346 0.25395 0.10349 0.30700
C 	C 	0.53608 0.22506 0.11532 0.25800
F 	F 	0.39992 0.13090 0.03950 -0.34300
F 	F 	0.65659 0.29411 0.12447 -0.32400
F 	F 	0.51246 0.18951 0.01539 -0.33800
F 	F 	0.54395 0.23757 0.14756 -0.30500
F 	F 	0.41574 0.07944 0.15848 -0.30800
F 	F 	0.27675 0.18765 0.05221 -0.36600
