data_crystal

_cell_length_a 20.34029
_cell_length_b 20.42014
_cell_length_c 26.64655
_cell_angle_alpha 95.46380
_cell_angle_beta  95.46484
_cell_angle_gamma 126.13073

_symmetry_space_group_name_	'P 1'
_symmetry_space_group_name_H-M	'P 1'

loop_
_symmetry_equiv_pos_as_xyz
  x,y,z

loop_
_atom_site_label
_atom_site_type_symbol
_atom_site_fract_x
_atom_site_fract_y
_atom_site_fract_z
_atom_site_charge
C 	C 	0.96744 0.04596 0.00228 0.13300
N 	N 	0.04909 0.08828 0.99922 -0.13800
C 	C 	0.08332 0.04767 0.99658 0.12400
C 	C 	0.03976 0.01207 0.44956 0.13200
N 	N 	0.99939 0.04608 0.44642 -0.14300
C 	C 	0.84692 0.07511 0.44525 -0.00200
C 	C 	0.87552 0.03732 0.44458 -0.03500
C 	C 	0.20101 0.10207 0.45416 -0.00400
C 	C 	0.12741 0.06198 0.45206 -0.02300
C 	C 	0.92870 0.08646 0.00229 -0.02700
C 	C 	0.89139 0.11554 0.00141 0.00600
C 	C 	0.16940 0.09065 0.99380 -0.02300
C 	C 	0.24067 0.12046 0.99167 -0.00700
C 	C 	0.81756 0.12317 0.44767 0.05500
C 	C 	0.84431 0.14599 0.99888 0.04300
O 	O 	0.68503 0.16659 0.00391 -0.35800
C 	C 	0.79375 0.16515 0.45173 -0.11100
C 	C 	0.28695 0.14759 0.45633 0.06100
C 	C 	0.80326 0.17086 0.99486 -0.10800
C 	C 	0.32335 0.15137 0.98971 0.05500
O 	O 	0.50969 0.17501 0.00629 -0.34900
O 	O 	0.52191 0.19193 0.64954 -0.29100
H 	H 	0.52843 0.18112 0.16516 0.06800
O 	O 	0.52390 0.18137 0.26340 -0.29100
C 	C 	0.36027 0.18621 0.45770 -0.10400
C 	C 	0.39410 0.17768 0.98880 -0.10500
O 	O 	0.71248 0.19553 0.49092 -0.43700
H 	H 	0.53004 0.19853 0.74900 0.06100
C 	C 	0.75529 0.20111 0.98719 0.29700
H 	H 	0.56348 0.19936 0.91480 0.17600
C 	C 	0.91641 0.99888 0.44497 0.14700
N 	N 	0.03612 0.96564 0.99668 -0.12900
C 	C 	0.95506 0.92371 0.99952 0.12600
N 	N 	0.92068 0.96373 0.00234 -0.12600
N 	N 	0.87361 0.91701 0.44674 -0.13600
C 	C 	0.91465 0.88314 0.44961 0.13400
N 	N 	0.99745 0.93089 0.45108 -0.13400
Cu	Cu	0.63115 0.22301 0.00760 0.92900
Cu	Cu	0.69724 0.22934 0.89917 0.87300
Cu	Cu	0.67793 0.35475 0.94220 0.89700
Cu	Cu	0.63440 0.37585 0.04378 0.90100
C 	C 	0.65108 0.27974 0.11520 0.31000
C 	C 	0.65525 0.30186 0.82959 0.30600
O 	O 	0.69928 0.35159 0.01343 -0.63400
O 	O 	0.62085 0.23339 0.93463 -0.64300
O 	O 	0.77560 0.25458 0.95691 -0.43600
O 	O 	0.61614 0.31477 0.10166 -0.37900
O 	O 	0.73996 0.47348 0.95420 -0.37700
C 	C 	0.73665 0.51821 0.99160 0.30400
C 	C 	0.47952 0.21239 0.98900 0.29300
O 	O 	0.53025 0.28876 0.98266 -0.39500
O 	O 	0.68309 0.48431 0.02268 -0.37900
O 	O 	0.65830 0.23453 0.08058 -0.35600
O 	O 	0.67347 0.35959 0.86805 -0.37400
O 	O 	0.64547 0.23425 0.83776 -0.41700
H 	H 	0.75867 0.38694 0.02968 0.17400
Cu	Cu	0.74213 0.33727 0.43840 0.92700
Cu	Cu	0.74025 0.27569 0.54803 0.87400
Cu	Cu	0.61298 0.29370 0.50613 0.89900
Cu	Cu	0.58663 0.33216 0.40355 0.89900
C 	C 	0.67603 0.30725 0.33123 0.30800
O 	O 	0.78949 0.45788 0.43805 -0.35500
C 	C 	0.66973 0.31899 0.61852 0.30600
O 	O 	0.61314 0.26951 0.43466 -0.63700
O 	O 	0.73460 0.35034 0.51183 -0.63900
O 	O 	0.79860 0.28322 0.44199 -0.36500
O 	O 	0.64378 0.34521 0.34427 -0.38100
O 	O 	0.49377 0.23170 0.49605 -0.37700
C 	C 	0.44728 0.23269 0.45847 0.31400
C 	C 	0.75214 0.48827 0.45520 0.30200
O 	O 	0.67620 0.43817 0.46284 -0.39200
O 	O 	0.47971 0.28541 0.42691 -0.38900
O 	O 	0.72808 0.30770 0.36530 -0.35500
C 	C 	0.76457 0.21406 0.45970 0.30800
O 	O 	0.61160 0.30223 0.58074 -0.37300
O 	O 	0.73743 0.32917 0.60942 -0.41600
H 	H 	0.57743 0.20993 0.41939 0.17100
H 	H 	0.76931 0.40799 0.53091 0.17700
C 	C 	0.65731 0.32352 0.67202 -0.10600
C 	C 	0.72189 0.38942 0.71015 -0.05900
C 	C 	0.71841 0.38597 0.76220 0.16600
C 	C 	0.65048 0.31544 0.77641 -0.10700
C 	C 	0.58319 0.25238 0.73834 -0.05900
C 	C 	0.58603 0.25650 0.68630 0.16600
H 	H 	0.77634 0.44193 0.69947 0.06200
O 	O 	0.78435 0.44861 0.79894 -0.29100
H 	H 	0.48314 0.20575 0.64213 0.15800
H 	H 	0.77205 0.48831 0.80718 0.15800
C 	C 	0.67190 0.28491 0.27622 -0.09900
C 	C 	0.74396 0.32918 0.25512 -0.05300
C 	C 	0.73817 0.32271 0.20173 0.16800
C 	C 	0.65994 0.27176 0.16923 -0.10000
C 	C 	0.58872 0.22210 0.19013 -0.05300
C 	C 	0.59435 0.22897 0.24341 0.16700
H 	H 	0.80403 0.37193 0.28011 0.07100
O 	O 	0.80849 0.37050 0.18170 -0.29100
H 	H 	0.50186 0.21353 0.26684 0.14400
H 	H 	0.82756 0.33615 0.17510 0.15600
C 	C 	0.78668 0.57327 0.45497 -0.10400
C 	C 	0.81229 0.64358 0.45411 0.05900
C 	C 	0.84220 0.72584 0.45264 -0.00300
C 	C 	0.87146 0.79693 0.45122 -0.02200
C 	C 	0.90540 0.83664 0.99798 -0.02100
C 	C 	0.86557 0.76347 0.99643 -0.00500
C 	C 	0.82047 0.67798 0.99453 0.06000
C 	C 	0.78234 0.60498 0.99303 -0.10200
