data_crystal

_cell_length_a 23.70218
_cell_length_b 19.54661
_cell_length_c 45.92963
_cell_angle_alpha 89.89355
_cell_angle_beta  89.89559
_cell_angle_gamma 119.42015

_symmetry_space_group_name_	'P 1'
_symmetry_space_group_name_H-M	'P 1'

loop_
_symmetry_equiv_pos_as_xyz
  x,y,z

loop_
_atom_site_label
_atom_site_type_symbol
_atom_site_fract_x
_atom_site_fract_y
_atom_site_fract_z
_atom_site_charge
C 	C 	0.54287 0.20378 0.89407 0.30200
C 	C 	0.72732 0.53716 0.90725 0.33100
C 	C 	0.72631 0.31347 0.88437 0.33000
C 	C 	0.54142 0.42341 0.91813 0.29700
C 	C 	0.74541 0.39938 0.97689 0.32500
C 	C 	0.56475 0.27542 0.98463 0.29900
Ni	Ni	0.63248 0.37642 0.88712 1.12000
Ni	Ni	0.64694 0.43033 0.95461 1.12200
Ni	Ni	0.65007 0.27323 0.93844 1.12200
O 	O 	0.55052 0.26859 0.88118 -0.34700
O 	O 	0.59283 0.20040 0.90583 -0.36000
O 	O 	0.73618 0.44818 0.96089 -0.38500
O 	O 	0.72065 0.47824 0.89130 -0.35300
O 	O 	0.68535 0.52599 0.92794 -0.37700
O 	O 	0.57574 0.23021 0.96656 -0.38200
O 	O 	0.68126 0.32052 0.87018 -0.33900
O 	O 	0.72994 0.31914 0.91280 -0.37600
O 	O 	0.60757 0.35134 0.98796 -0.38400
O 	O 	0.57972 0.43559 0.89510 -0.35800
O 	O 	0.56113 0.42246 0.94508 -0.38600
O 	O 	0.70936 0.32300 0.97310 -0.37800
O 	O 	0.62726 0.35016 0.92678 -0.71300
H 	H 	0.57995 0.31987 0.92935 0.15200
C 	C 	0.73290 0.47924 0.53232 0.30500
C 	C 	0.85277 0.46976 0.64620 0.33000
C 	C 	0.90064 0.58154 0.55869 0.33000
C 	C 	0.67461 0.36161 0.62657 0.30600
C 	C 	0.90571 0.37467 0.57600 0.33200
C 	C 	0.73172 0.23489 0.55626 0.30200
Ni	Ni	0.78459 0.49844 0.59631 1.11800
Ni	Ni	0.78554 0.33562 0.60731 1.12500
Ni	Ni	0.81743 0.41160 0.54384 1.12200
O 	O 	0.75511 0.52437 0.55613 -0.35300
O 	O 	0.74048 0.41712 0.52816 -0.38100
O 	O 	0.85351 0.31743 0.58805 -0.38800
O 	O 	0.81355 0.49686 0.63940 -0.34100
O 	O 	0.86023 0.42270 0.62859 -0.37600
O 	O 	0.77398 0.29192 0.53858 -0.37300
O 	O 	0.88136 0.56571 0.58572 -0.36900
O 	O 	0.86799 0.53120 0.53794 -0.37200
O 	O 	0.71882 0.24905 0.58298 -0.38400
O 	O 	0.69137 0.42709 0.61165 -0.36000
O 	O 	0.71835 0.34076 0.63437 -0.35600
O 	O 	0.90151 0.42154 0.55678 -0.39400
O 	O 	0.78039 0.40691 0.58109 -0.71900
H 	H 	0.73406 0.37691 0.57610 0.16400
C 	C 	0.02916 0.98190 0.67778 0.30500
C 	C 	0.17859 0.08287 0.78765 0.32800
C 	C 	0.98947 0.92006 0.76073 0.31200
C 	C 	0.23246 0.16339 0.71229 0.31400
C 	C 	0.00942 0.14018 0.78161 0.35500
C 	C 	0.06257 0.23181 0.71814 0.30800
Ni	Ni	0.11612 0.01314 0.73062 1.12000
Ni	Ni	0.13753 0.18057 0.75407 1.12800
Ni	Ni	0.99889 0.05450 0.72818 1.11900
O 	O 	0.05163 0.95091 0.69712 -0.33900
O 	O 	0.00261 0.02491 0.68606 -0.34800
O 	O 	0.07113 0.19269 0.77822 -0.35500
O 	O 	0.18671 0.05653 0.76269 -0.36500
O 	O 	0.14756 0.12300 0.78893 -0.36100
O 	O 	0.01024 0.16064 0.71565 -0.36700
O 	O 	0.05075 0.93968 0.76155 -0.33500
O 	O 	0.96623 0.94015 0.73842 -0.35200
O 	O 	0.12143 0.24148 0.72290 -0.35500
O 	O 	0.18874 0.09216 0.70354 -0.36400
O 	O 	0.22328 0.19726 0.73585 -0.35200
O 	O 	0.98491 0.07022 0.77002 -0.40400
O 	O 	0.08840 0.08845 0.73168 -0.71600
H 	H 	0.10130 0.11150 0.71205 0.16100
C 	C 	0.47582 0.83114 0.38956 0.30000
C 	C 	0.29575 0.49538 0.38865 0.32900
C 	C 	0.29270 0.71851 0.37219 0.33200
C 	C 	0.47240 0.60503 0.40963 0.29900
C 	C 	0.25772 0.61803 0.46312 0.32200
C 	C 	0.43490 0.73840 0.47701 0.29900
Ni	Ni	0.38933 0.66126 0.37664 1.12500
Ni	Ni	0.35880 0.59006 0.44216 1.12200
Ni	Ni	0.35928 0.75130 0.42876 1.12700
O 	O 	0.47163 0.77013 0.37520 -0.34100
O 	O 	0.42307 0.83152 0.39937 -0.34700
O 	O 	0.26892 0.57227 0.44623 -0.38900
O 	O 	0.30123 0.55924 0.37701 -0.36200
O 	O 	0.32558 0.49864 0.41321 -0.37100
O 	O 	0.42716 0.78758 0.45966 -0.38200
O 	O 	0.34318 0.71994 0.35973 -0.34600
O 	O 	0.28450 0.71066 0.40047 -0.36800
O 	O 	0.39194 0.66175 0.47778 -0.38500
O 	O 	0.44054 0.60053 0.38516 -0.34500
O 	O 	0.44636 0.59971 0.43571 -0.38300
O 	O 	0.29340 0.69495 0.46082 -0.37500
O 	O 	0.38486 0.67710 0.41663 -0.71400
H 	H 	0.43137 0.70641 0.42125 0.15300
C 	C 	0.24925 0.50414 0.03449 0.29700
C 	C 	0.13825 0.54037 0.14737 0.33400
C 	C 	0.08186 0.42790 0.06005 0.32900
C 	C 	0.31617 0.62090 0.12654 0.30400
C 	C 	0.10579 0.65333 0.07606 0.31900
C 	C 	0.28197 0.76463 0.05602 0.30500
Ni	Ni	0.19681 0.49473 0.09787 1.12200
Ni	Ni	0.21917 0.67002 0.10769 1.12500
Ni	Ni	0.17983 0.59295 0.04452 1.12300
O 	O 	0.21976 0.45968 0.05792 -0.35400
O 	O 	0.24832 0.57021 0.02872 -0.38000
O 	O 	0.16100 0.70397 0.08799 -0.38800
O 	O 	0.17071 0.50399 0.14073 -0.33800
O 	O 	0.13953 0.59432 0.13016 -0.38400
O 	O 	0.23622 0.71180 0.03850 -0.37400
O 	O 	0.10022 0.44516 0.08704 -0.36100
O 	O 	0.11748 0.47532 0.03904 -0.37900
O 	O 	0.29181 0.74729 0.08275 -0.38700
O 	O 	0.29131 0.55206 0.11312 -0.35200
O 	O 	0.27901 0.65108 0.13473 -0.34900
O 	O 	0.10273 0.60114 0.05728 -0.38000
O 	O 	0.21368 0.59147 0.08196 -0.71800
H 	H 	0.25974 0.61348 0.07676 0.16100
C 	C 	0.95901 0.01015 0.17455 0.32300
C 	C 	0.82554 0.91632 0.28906 0.33100
C 	C 	0.01863 0.05927 0.25553 0.33700
C 	C 	0.75977 0.84355 0.21259 0.31100
C 	C 	0.97315 0.81792 0.26795 0.27800
C 	C 	0.90245 0.74277 0.21056 0.30300
Ni	Ni	0.88429 0.98384 0.23123 1.11800
Ni	Ni	0.84701 0.80793 0.25154 1.12200
Ni	Ni	0.98450 0.91850 0.21910 1.12500
O 	O 	0.94657 0.04405 0.19664 -0.36700
O 	O 	0.97769 0.95734 0.17900 -0.35700
O 	O 	0.91010 0.78308 0.27265 -0.36900
O 	O 	0.81800 0.94720 0.26515 -0.36500
O 	O 	0.84926 0.86818 0.28806 -0.36900
O 	O 	0.95355 0.80978 0.20185 -0.34500
O 	O 	0.95823 0.03979 0.26113 -0.36600
O 	O 	0.03338 0.03335 0.23183 -0.34800
O 	O 	0.84771 0.73967 0.21905 -0.35900
O 	O 	0.80329 0.91723 0.20585 -0.35000
O 	O 	0.76521 0.80847 0.23665 -0.35800
O 	O 	0.00409 0.88989 0.25802 -0.34000
O 	O 	0.89960 0.89827 0.22828 -0.72000
H 	H 	0.88094 0.87741 0.20899 0.16800
C 	C 	0.97171 0.04868 0.14600 -0.10400
C 	C 	0.92503 0.01814 0.12377 0.14700
C 	C 	0.93249 0.06330 0.09881 -0.08100
C 	C 	0.98584 0.13918 0.09610 0.01400
C 	C 	0.03417 0.16778 0.11780 0.10200
C 	C 	0.02730 0.12185 0.14228 0.00500
H 	H 	0.89536 0.04088 0.08219 0.08700
C 	C 	0.98543 0.19304 0.07362 0.00600
H 	H 	0.06364 0.14502 0.15925 0.07500
C 	C 	0.95153 0.23351 0.07936 -0.07600
C 	C 	0.97560 0.31012 0.06889 0.13300
C 	C 	0.03432 0.34616 0.05330 -0.08300
C 	C 	0.05686 0.29816 0.04110 -0.01800
C 	C 	0.03256 0.22116 0.05139 0.10700
H 	H 	0.91132 0.20928 0.09458 0.08400
H 	H 	0.09876 0.32357 0.02683 0.07100
Br	Br	0.10691 0.27241 0.11584 -0.23100
Br	Br	0.84935 0.91671 0.12777 -0.20000
Br	Br	0.93393 0.36886 0.07989 -0.24000
Br	Br	0.07025 0.15962 0.03809 -0.19600
C 	C 	0.38130 0.65378 0.13889 -0.08600
C 	C 	0.39114 0.62577 0.16559 0.15000
C 	C 	0.45390 0.65573 0.17653 -0.07900
C 	C 	0.50703 0.71400 0.16117 0.02400
C 	C 	0.49719 0.74175 0.13439 0.08800
C 	C 	0.43441 0.71160 0.12341 -0.01500
H 	H 	0.46133 0.63447 0.19718 0.09000
C 	C 	0.57234 0.74823 0.17392 0.02500
H 	H 	0.42694 0.73299 0.10279 0.06100
C 	C 	0.61213 0.71588 0.16723 -0.07700
C 	C 	0.67383 0.74699 0.17958 0.14500
C 	C 	0.69578 0.81058 0.19898 -0.08300
C 	C 	0.65606 0.84301 0.20557 -0.00800
C 	C 	0.59458 0.81220 0.19317 0.08800
H 	H 	0.59518 0.66677 0.15235 0.08500
H 	H 	0.67291 0.89206 0.22048 0.07300
Br	Br	0.56885 0.82119 0.11270 -0.20200
Br	Br	0.31940 0.54722 0.18754 -0.17700
Br	Br	0.72797 0.70326 0.16914 -0.19500
Br	Br	0.54167 0.85833 0.20268 -0.18500
C 	C 	0.09688 0.51816 0.17340 -0.10100
C 	C 	0.11367 0.57326 0.19601 0.15900
C 	C 	0.06518 0.58190 0.21019 -0.09100
C 	C 	0.00009 0.53390 0.20245 0.07200
C 	C 	0.98336 0.46659 0.18557 0.04300
C 	C 	0.03193 0.45927 0.17076 0.01800
H 	H 	0.07851 0.63088 0.22484 0.10400
C 	C 	0.95602 0.56731 0.20359 -0.00100
H 	H 	0.01862 0.41285 0.15491 0.07300
C 	C 	0.94664 0.60048 0.17822 -0.07200
C 	C 	0.92017 0.65036 0.17975 0.14700
C 	C 	0.90449 0.66932 0.20697 -0.08000
C 	C 	0.90610 0.62846 0.23186 -0.02100
C 	C 	0.93239 0.57809 0.23033 0.09300
H 	H 	0.96383 0.59158 0.15760 0.07000
H 	H 	0.89087 0.63965 0.25272 0.06600
Br	Br	0.89453 0.38724 0.18124 -0.19700
Br	Br	0.20280 0.64442 0.20471 -0.18800
Br	Br	0.90757 0.69402 0.14449 -0.20400
Br	Br	0.93641 0.52563 0.26491 -0.18600
C 	C 	0.79509 0.92300 0.31595 -0.09500
C 	C 	0.81463 0.99733 0.32825 0.14300
C 	C 	0.77330 0.00729 0.34747 -0.07400
C 	C 	0.71276 0.94346 0.35466 0.02200
C 	C 	0.69589 0.86783 0.34434 0.08600
C 	C 	0.73770 0.85790 0.32554 -0.00800
H 	H 	0.78725 0.06513 0.35595 0.08800
C 	C 	0.66417 0.95720 0.36972 0.02100
H 	H 	0.72303 0.80035 0.31654 0.06500
C 	C 	0.62177 0.97191 0.35301 -0.07900
C 	C 	0.55873 0.94640 0.36306 0.14800
C 	C 	0.53813 0.90376 0.38926 -0.08500
C 	C 	0.58544 0.90946 0.40897 -0.02200
C 	C 	0.64865 0.93503 0.39906 0.09000
H 	H 	0.63527 0.99507 0.33110 0.08700
H 	H 	0.57110 0.88335 0.43044 0.05300
Br	Br	0.61337 0.77856 0.35343 -0.21200
Br	Br	0.89727 0.08588 0.31885 -0.20200
Br	Br	0.49805 0.95668 0.33846 -0.18200
Br	Br	0.71060 0.93050 0.42457 -0.23900
C 	C 	0.07017 0.12466 0.27207 -0.08800
C 	C 	0.12063 0.11730 0.28535 0.15100
C 	C 	0.16000 0.17230 0.30616 -0.07900
C 	C 	0.15042 0.23543 0.31349 0.02700
C 	C 	0.10283 0.24551 0.29892 0.09000
C 	C 	0.06325 0.19048 0.27829 0.00200
H 	H 	0.19825 0.16611 0.31657 0.08900
C 	C 	0.19384 0.29442 0.33463 0.02700
H 	H 	0.02566 0.19763 0.26767 0.08100
C 	C 	0.25201 0.35772 0.32479 -0.08300
C 	C 	0.28807 0.42187 0.34290 0.15400
C 	C 	0.26618 0.42257 0.37147 -0.10100
C 	C 	0.21086 0.35615 0.38213 -0.00300
C 	C 	0.17448 0.29215 0.36380 0.08500
H 	H 	0.26782 0.35859 0.30256 0.09200
H 	H 	0.19448 0.35566 0.40421 0.06700
Br	Br	0.09086 0.33391 0.30709 -0.16300
Br	Br	0.13793 0.03429 0.27509 -0.19800
Br	Br	0.36640 0.50832 0.32790 -0.24400
Br	Br	0.09726 0.20363 0.37856 -0.17800
C 	C 	0.24496 0.72634 0.35435 -0.09400
C 	C 	0.23493 0.79106 0.35798 0.15500
C 	C 	0.18465 0.79366 0.34311 -0.08200
C 	C 	0.14434 0.73241 0.32441 0.03300
C 	C 	0.15561 0.66877 0.32010 0.08400
C 	C 	0.20578 0.66601 0.33512 -0.00100
H 	H 	0.17715 0.84369 0.34588 0.09400
C 	C 	0.09344 0.73834 0.30803 0.01700
H 	H 	0.21354 0.61620 0.33223 0.07800
C 	C 	0.10590 0.76625 0.27934 -0.06700
C 	C 	0.06490 0.78819 0.26538 0.13600
C 	C 	0.01096 0.78336 0.28042 -0.04700
C 	C 	0.99569 0.74941 0.30831 -0.05300
C 	C 	0.03655 0.72668 0.32210 0.11500
H 	H 	0.14868 0.77307 0.26815 0.09200
H 	H 	0.95328 0.74307 0.31969 0.08300
Br	Br	0.10276 0.58487 0.29409 -0.16100
Br	Br	0.29104 0.87792 0.38226 -0.21300
Br	Br	0.08306 0.82287 0.22564 -0.22700
Br	Br	0.01441 0.68068 0.36026 -0.18800
C 	C 	0.70168 0.15248 0.54642 -0.10000
C 	C 	0.70260 0.09353 0.56418 0.13400
C 	C 	0.66347 0.01421 0.55686 -0.09200
C 	C 	0.62701 0.99290 0.53124 0.00200
C 	C 	0.63063 0.05202 0.51212 0.07300
C 	C 	0.66766 0.13137 0.52006 -0.02100
N 	N 	0.74223 0.11269 0.58770 -0.20400
H 	H 	0.66176 0.96886 0.57108 0.06500
C 	C 	0.58088 0.90892 0.52592 0.00600
N 	N 	0.59826 0.03305 0.48634 -0.19000
H 	H 	0.66844 0.17659 0.50607 0.05300
C 	C 	0.51733 0.87692 0.53641 -0.09600
C 	C 	0.46777 0.80759 0.52429 0.14000
C 	C 	0.48206 0.77278 0.50057 -0.10800
C 	C 	0.54693 0.79570 0.49439 -0.02400
C 	C 	0.59693 0.86388 0.50708 0.06600
H 	H 	0.50579 0.90847 0.55262 0.07000
N 	N 	0.40609 0.77703 0.53436 -0.20500
H 	H 	0.55823 0.76538 0.47757 0.04300
N 	N 	0.65971 0.88647 0.50071 -0.19000
H 	H 	0.39512 0.80486 0.55107 0.10300
H 	H 	0.36901 0.72391 0.52636 0.11000
H 	H 	0.67111 0.85257 0.48688 0.10300
H 	H 	0.69772 0.93603 0.51031 0.10100
H 	H 	0.60072 0.07706 0.47256 0.10000
H 	H 	0.57120 0.97488 0.47948 0.10100
H 	H 	0.77823 0.17034 0.59148 0.10200
H 	H 	0.73995 0.06887 0.60153 0.10100
C 	C 	0.96917 0.38196 0.58141 -0.11400
C 	C 	0.99063 0.34111 0.56332 0.12700
C 	C 	0.05453 0.38019 0.55285 -0.07600
C 	C 	0.09629 0.45827 0.56098 0.00100
C 	C 	0.07944 0.48959 0.58500 0.07100
C 	C 	0.01552 0.45021 0.59541 0.00200
N 	N 	0.94908 0.26675 0.55448 -0.20300
H 	H 	0.06948 0.35308 0.53620 0.06700
C 	C 	0.14487 0.51137 0.53966 0.01000
N 	N 	0.12338 0.55892 0.59704 -0.19200
H 	H 	0.00012 0.47789 0.61164 0.07100
C 	C 	0.12919 0.55794 0.52177 -0.09600
C 	C 	0.16552 0.59378 0.49661 0.14600
C 	C 	0.21957 0.58443 0.48980 -0.11600
C 	C 	0.23782 0.54246 0.50884 -0.01300
C 	C 	0.20136 0.50661 0.53393 0.06100
H 	H 	0.08637 0.56259 0.52658 0.07200
N 	N 	0.14694 0.63464 0.47870 -0.20500
H 	H 	0.28052 0.53757 0.50406 0.03300
N 	N 	0.22104 0.46830 0.55253 -0.19100
H 	H 	0.10737 0.64189 0.48418 0.10800
H 	H 	0.17065 0.65844 0.45902 0.11800
H 	H 	0.26186 0.46303 0.54772 0.09600
H 	H 	0.19736 0.44572 0.57233 0.10100
H 	H 	0.10994 0.58358 0.61401 0.11200
H 	H 	0.17172 0.58750 0.59024 0.10200
H 	H 	0.90201 0.23601 0.56281 0.10900
H 	H 	0.96434 0.23796 0.53997 0.09700
C 	C 	0.70554 0.50449 0.50845 -0.09400
C 	C 	0.72731 0.50978 0.47923 0.14400
C 	C 	0.69622 0.52743 0.45691 -0.09400
C 	C 	0.64662 0.54428 0.46325 0.00700
C 	C 	0.62553 0.54045 0.49242 0.06800
C 	C 	0.65577 0.52132 0.51476 -0.01800
N 	N 	0.77948 0.50123 0.47261 -0.20000
H 	H 	0.71220 0.53065 0.43456 0.07000
C 	C 	0.61706 0.56589 0.43916 0.00300
N 	N 	0.57578 0.55382 0.49906 -0.19200
H 	H 	0.63941 0.51769 0.53707 0.05300
C 	C 	0.56722 0.50619 0.42299 -0.09400
C 	C 	0.52455 0.52194 0.40696 0.14000
C 	C 	0.53088 0.59764 0.40826 -0.09400
C 	C 	0.58826 0.65989 0.41934 -0.02100
C 	C 	0.63163 0.64457 0.43502 0.07300
H 	H 	0.55906 0.44662 0.42442 0.06700
N 	N 	0.47558 0.46339 0.39173 -0.20500
H 	H 	0.59520 0.71902 0.41884 0.06000
N 	N 	0.68547 0.70493 0.44699 -0.19400
H 	H 	0.46915 0.40652 0.39204 0.10500
H 	H 	0.44514 0.47451 0.37857 0.12800
H 	H 	0.69435 0.76265 0.44496 0.10800
H 	H 	0.71993 0.69538 0.45759 0.10700
H 	H 	0.56157 0.55249 0.52070 0.09500
H 	H 	0.54987 0.56405 0.48291 0.09700
H 	H 	0.81064 0.50174 0.48867 0.10600
H 	H 	0.79217 0.49987 0.45090 0.10200
C 	C 	0.05546 0.30047 0.71034 -0.09400
C 	C 	0.07242 0.36262 0.73024 0.15300
C 	C 	0.04688 0.41353 0.72687 -0.09200
C 	C 	0.00348 0.40192 0.70423 0.05800
C 	C 	0.98909 0.34213 0.68368 0.05100
C 	C 	0.01757 0.29459 0.68608 0.01300
H 	H 	0.05916 0.46042 0.74239 0.09600
C 	C 	0.97209 0.45117 0.70226 0.00500
H 	H 	0.00549 0.24815 0.67036 0.06900
C 	C 	0.99919 0.51727 0.68396 -0.09200
C 	C 	0.95872 0.54073 0.67018 0.15000
C 	C 	0.89116 0.49401 0.67300 -0.08400
C 	C 	0.86710 0.44323 0.69705 -0.01100
C 	C 	0.90752 0.42091 0.71165 0.09700
H 	H 	0.05011 0.54529 0.67826 0.09100
H 	H 	0.81555 0.41237 0.70153 0.08600
Br	Br	0.92490 0.31818 0.65423 -0.23300
Br	Br	0.12881 0.37808 0.76247 -0.21100
Br	Br	0.99496 0.62702 0.64342 -0.22300
Br	Br	0.87227 0.34267 0.74169 -0.19100
C 	C 	0.29892 0.19457 0.70135 -0.08700
C 	C 	0.32938 0.26449 0.68497 0.14600
C 	C 	0.39142 0.29028 0.67343 -0.07800
C 	C 	0.42315 0.24657 0.67805 0.02400
C 	C 	0.39310 0.17752 0.69491 0.08800
C 	C 	0.33134 0.15195 0.70647 -0.00800
H 	H 	0.41465 0.34378 0.66060 0.08500
C 	C 	0.48775 0.27327 0.66514 0.02500
H 	H 	0.30821 0.09844 0.71931 0.07100
C 	C 	0.54332 0.32128 0.68139 -0.07900
C 	C 	0.60495 0.34666 0.66960 0.15000
C 	C 	0.61132 0.32410 0.64120 -0.08800
C 	C 	0.55573 0.27467 0.62520 -0.01300
C 	C 	0.49407 0.24920 0.63701 0.08600
H 	H 	0.53859 0.33914 0.70317 0.09100
H 	H 	0.56041 0.25763 0.60327 0.06300
Br	Br	0.43535 0.11679 0.70205 -0.18700
Br	Br	0.28642 0.32419 0.67746 -0.21100
Br	Br	0.67985 0.41429 0.69225 -0.19300
Br	Br	0.41904 0.18225 0.61433 -0.19600
C 	C 	0.95073 0.66221 0.55141 -0.12400
C 	C 	0.93162 0.71532 0.54071 0.15700
C 	C 	0.96029 0.79165 0.55196 -0.11200
C 	C 	0.00809 0.81463 0.57347 0.04900
C 	C 	0.03856 0.76895 0.57756 0.08000
C 	C 	0.01019 0.69295 0.56599 0.01900
H 	H 	0.94040 0.82950 0.54653 0.08700
C 	C 	0.00846 0.86559 0.59731 0.03000
H 	H 	0.02935 0.65455 0.57179 0.06500
C 	C 	0.95746 0.83489 0.61757 -0.09000
C 	C 	0.96079 0.87694 0.64266 0.13500
C 	C 	0.01648 0.94936 0.64820 -0.06800
C 	C 	0.06525 0.98301 0.62690 -0.01800
C 	C 	0.06073 0.94207 0.60116 0.09400
H 	H 	0.91600 0.77713 0.61420 0.08400
H 	H 	0.10752 0.03977 0.63072 0.07100
Br	Br	0.11417 0.80573 0.60150 -0.17600
Br	Br	0.86308 0.68291 0.51296 -0.23400
Br	Br	0.88948 0.83359 0.66956 -0.18900
Br	Br	0.12569 0.99153 0.57153 -0.18600
C 	C 	0.78276 0.42907 0.00380 -0.11300
C 	C 	0.84437 0.43518 0.00669 0.14900
C 	C 	0.88658 0.48390 0.02831 -0.09100
C 	C 	0.86802 0.52600 0.04708 0.01200
C 	C 	0.80447 0.51459 0.04581 0.06600
C 	C 	0.76205 0.46526 0.02435 -0.01300
N 	N 	0.86366 0.39559 0.98855 -0.20400
H 	H 	0.93490 0.49122 0.02993 0.07700
C 	C 	0.91715 0.58495 0.06656 0.00600
N 	N 	0.78410 0.55121 0.06486 -0.19200
H 	H 	0.71392 0.45841 0.02261 0.03900
C 	C 	0.96085 0.65869 0.05491 -0.10200
C 	C 	0.02622 0.69527 0.06317 0.15500
C 	C 	0.04666 0.65609 0.08268 -0.08800
C 	C 	0.99998 0.59538 0.09992 -0.05000
C 	C 	0.93447 0.55973 0.09206 0.09300
H 	H 	0.94590 0.68261 0.03710 0.07200
N 	N 	0.06978 0.76446 0.05074 -0.20500
H 	H 	0.01526 0.56881 0.11665 0.07800
N 	N 	0.88921 0.49828 0.10778 -0.19100
H 	H 	0.05498 0.79166 0.03529 0.11000
H 	H 	0.11835 0.79290 0.05708 0.10900
H 	H 	0.90275 0.47653 0.12563 0.11800
H 	H 	0.84005 0.47281 0.10271 0.11100
H 	H 	0.73726 0.54332 0.06344 0.10000
H 	H 	0.81401 0.58674 0.08151 0.11200
H 	H 	0.83254 0.35677 0.97291 0.11300
H 	H 	0.90992 0.40190 0.99045 0.10400
C 	C 	0.51326 0.23620 0.00630 -0.10500
C 	C 	0.44809 0.20064 0.99731 0.13200
C 	C 	0.40256 0.12931 0.01002 -0.09300
C 	C 	0.42117 0.09635 0.03261 0.00300
C 	C 	0.48236 0.14160 0.04582 0.06900
C 	C 	0.52830 0.21170 0.03242 -0.01800
N 	N 	0.42971 0.23347 0.97589 -0.20700
H 	H 	0.35404 0.09715 0.00116 0.07300
C 	C 	0.38327 0.01079 0.03782 0.01000
N 	N 	0.49769 0.11687 0.07073 -0.19200
H 	H 	0.57744 0.24268 0.04067 0.05400
C 	C 	0.40434 0.96200 0.02508 -0.09500
C 	C 	0.37037 0.88054 0.02975 0.13800
C 	C 	0.31424 0.84762 0.04744 -0.10400
C 	C 	0.29188 0.89603 0.05932 -0.01700
C 	C 	0.32619 0.97757 0.05491 0.06300
H 	H 	0.44758 0.98767 0.01160 0.06800
N 	N 	0.39199 0.83453 0.01730 -0.20400
H 	H 	0.24853 0.87033 0.07272 0.05000
N 	N 	0.30474 0.02353 0.06756 -0.18900
H 	H 	0.43407 0.85962 0.00459 0.10000
H 	H 	0.36700 0.77356 0.01979 0.10400
H 	H 	0.26219 0.99825 0.07995 0.09900
H 	H 	0.33023 0.08459 0.06552 0.10000
H 	H 	0.54386 0.14903 0.07979 0.10200
H 	H 	0.46320 0.06711 0.08186 0.10300
H 	H 	0.46247 0.28801 0.96702 0.09500
H 	H 	0.38173 0.20610 0.96875 0.10300
C 	C 	0.27541 0.47316 0.01209 -0.09900
C 	C 	0.25410 0.46454 0.98281 0.13700
C 	C 	0.28960 0.45262 0.96088 -0.09500
C 	C 	0.34305 0.44367 0.96784 0.00600
C 	C 	0.36081 0.44505 0.99741 0.06700
C 	C 	0.32692 0.46035 0.01925 -0.02000
N 	N 	0.19884 0.46556 0.97575 -0.20400
H 	H 	0.27512 0.44946 0.93831 0.07100
C 	C 	0.38247 0.43777 0.94398 0.00400
N 	N 	0.41059 0.43259 0.00491 -0.19100
H 	H 	0.34210 0.46488 0.04176 0.05300
C 	C 	0.43594 0.50644 0.93350 -0.09200
C 	C 	0.48541 0.50213 0.91820 0.14000
C 	C 	0.48216 0.42853 0.91473 -0.09800
C 	C 	0.42287 0.36005 0.91962 -0.02200
C 	C 	0.37276 0.36393 0.93456 0.07300
H 	H 	0.44101 0.56322 0.93881 0.06700
N 	N 	0.53751 0.56890 0.90834 -0.20400
H 	H 	0.41864 0.30328 0.91510 0.05900
N 	N 	0.31669 0.29686 0.94062 -0.19400
H 	H 	0.54134 0.62371 0.91221 0.10500
H 	H 	0.57330 0.56658 0.89579 0.11600
H 	H 	0.31051 0.24239 0.93414 0.11300
H 	H 	0.27803 0.29835 0.95094 0.10700
H 	H 	0.42379 0.43473 0.02673 0.09600
H 	H 	0.43604 0.41959 0.98935 0.09600
H 	H 	0.16689 0.46370 0.99173 0.10600
H 	H 	0.18535 0.46333 0.95397 0.10300
C 	C 	0.96643 0.16178 0.79763 -0.11100
C 	C 	0.98466 0.20001 0.82481 0.15000
C 	C 	0.94544 0.22585 0.83830 -0.07900
C 	C 	0.88682 0.21118 0.82554 0.02800
C 	C 	0.86737 0.17025 0.79900 0.08700
C 	C 	0.90751 0.14671 0.78502 0.00100
H 	H 	0.95983 0.25581 0.85904 0.08500
C 	C 	0.84522 0.23701 0.84050 0.02800
H 	H 	0.89304 0.11703 0.76422 0.06000
C 	C 	0.85047 0.30975 0.83332 -0.07900
C 	C 	0.81145 0.33513 0.84733 0.15500
C 	C 	0.76672 0.28739 0.86877 -0.09300
C 	C 	0.76154 0.21469 0.87591 -0.00300
C 	C 	0.80044 0.18933 0.86190 0.08500
H 	H 	0.88502 0.34670 0.81692 0.09600
H 	H 	0.72707 0.17770 0.89234 0.06200
Br	Br	0.78512 0.14357 0.78206 -0.16600
Br	Br	0.05982 0.21178 0.84499 -0.17700
Br	Br	0.82182 0.43633 0.83770 -0.19000
Br	Br	0.79134 0.08905 0.87207 -0.18200
C 	C 	0.21511 0.08061 0.81307 -0.09200
C 	C 	0.20260 0.00821 0.82525 0.14900
C 	C 	0.24782 0.00508 0.84399 -0.07900
C 	C 	0.30506 0.07382 0.85099 0.02600
C 	C 	0.31504 0.14691 0.84062 0.08600
C 	C 	0.26978 0.14994 0.82196 -0.00600
H 	H 	0.23919 0.94901 0.85252 0.09000
C 	C 	0.35720 0.06861 0.86655 0.02100
H 	H 	0.27912 0.20589 0.81300 0.06900
C 	C 	0.40606 0.06543 0.85034 -0.07800
C 	C 	0.46831 0.09616 0.86199 0.14900
C 	C 	0.48155 0.13142 0.88962 -0.08700
C 	C 	0.42946 0.11696 0.90798 -0.02000
C 	C 	0.36708 0.08620 0.89642 0.08900
H 	H 	0.39746 0.04659 0.82783 0.08900
H 	H 	0.43862 0.13840 0.93017 0.05600
Br	Br	0.39232 0.24276 0.85010 -0.21200
Br	Br	0.12366 0.91339 0.81699 -0.19800
Br	Br	0.53681 0.10058 0.83834 -0.18300
Br	Br	0.29749 0.07541 0.92084 -0.22900
C 	C 	0.77223 0.61719 0.89740 -0.10200
C 	C 	0.83763 0.64001 0.89217 0.15500
C 	C 	0.87457 0.70339 0.87366 -0.08300
C 	C 	0.84669 0.74441 0.86049 0.03000
C 	C 	0.78419 0.72818 0.86885 0.08100
C 	C 	0.74731 0.66489 0.88744 -0.00600
H 	H 	0.92371 0.71787 0.86817 0.09300
C 	C 	0.87791 0.79281 0.83459 0.02500
H 	H 	0.69772 0.64938 0.89238 0.06300
C 	C 	0.86307 0.75751 0.80704 -0.07700
C 	C 	0.89788 0.79938 0.78250 0.14900
C 	C 	0.94744 0.87777 0.78539 -0.08600
C 	C 	0.96064 0.91397 0.81279 -0.00600
C 	C 	0.92617 0.87184 0.83737 0.09200
H 	H 	0.82584 0.69658 0.80489 0.09100
H 	H 	0.99879 0.97440 0.81507 0.07900
Br	Br	0.74726 0.78903 0.85377 -0.18500
Br	Br	0.87643 0.58353 0.90940 -0.20200
Br	Br	0.88011 0.74672 0.74565 -0.17300
Br	Br	0.94614 0.92279 0.87458 -0.18100
