data_crystal

_cell_length_a 30.62655
_cell_length_b 27.58455
_cell_length_c 31.69717
_cell_angle_alpha 103.71727
_cell_angle_beta  115.78968
_cell_angle_gamma 112.16116

_symmetry_space_group_name_	'P 1'
_symmetry_space_group_name_H-M	'P 1'

loop_
_symmetry_equiv_pos_as_xyz
  x,y,z

loop_
_atom_site_label
_atom_site_type_symbol
_atom_site_fract_x
_atom_site_fract_y
_atom_site_fract_z
_atom_site_charge
C 	C 	0.55994 0.29470 0.90630 0.02000
C 	C 	0.56996 0.24970 0.89195 -0.02400
C 	C 	0.62672 0.26349 0.91473 0.02100
C 	C 	0.67349 0.32353 0.94833 -0.02300
C 	C 	0.66368 0.36918 0.95973 0.01900
C 	C 	0.60729 0.35405 0.94203 -0.02400
C 	C 	0.50634 0.27278 0.90006 -0.06200
S 	S 	0.51470 0.18576 0.87480 -0.01300
C 	C 	0.64027 0.22630 0.89109 -0.06000
S 	S 	0.72869 0.32985 0.94625 -0.01800
C 	C 	0.70140 0.42898 0.97389 -0.05800
S 	S 	0.60451 0.41318 0.94218 -0.01400
C 	C 	0.47507 0.21100 0.88136 -0.00100
H 	H 	0.49579 0.30178 0.91700 0.04500
C 	C 	0.69668 0.25786 0.90479 0.00100
H 	H 	0.60966 0.17879 0.86396 0.04600
C 	C 	0.67406 0.46018 0.96726 -0.00600
H 	H 	0.74387 0.44608 0.98186 0.04400
C 	C 	0.34980 0.13484 0.91197 0.01400
C 	C 	0.40673 0.18234 0.95439 -0.04200
C 	C 	0.44846 0.20580 0.94483 -0.04100
C 	C 	0.43347 0.18199 0.89269 0.01000
C 	C 	0.37756 0.13212 0.85087 -0.04200
C 	C 	0.33583 0.10854 0.86047 -0.03900
H 	H 	0.41797 0.20261 0.99434 0.03900
H 	H 	0.49199 0.24344 0.97764 0.03900
H 	H 	0.36591 0.11287 0.81066 0.03600
H 	H 	0.29211 0.07135 0.82759 0.03500
C 	C 	0.78550 0.17095 0.89953 0.01500
C 	C 	0.73501 0.15444 0.85242 -0.04000
C 	C 	0.70670 0.18374 0.85402 -0.04100
C 	C 	0.72869 0.22975 0.90277 0.00900
C 	C 	0.77975 0.24673 0.94979 -0.04100
C 	C 	0.80814 0.21765 0.94806 -0.04400
H 	H 	0.71724 0.11833 0.81479 0.03800
H 	H 	0.66738 0.17032 0.81752 0.03700
H 	H 	0.79665 0.28137 0.98784 0.03700
H 	H 	0.84693 0.23034 0.98466 0.03600
C 	C 	0.60695 0.29453 0.40036 0.02100
C 	C 	0.61075 0.24596 0.38047 -0.02300
C 	C 	0.66497 0.25316 0.40109 0.02100
C 	C 	0.71570 0.31045 0.43874 -0.02200
C 	C 	0.71234 0.35990 0.45598 0.02000
C 	C 	0.65805 0.35085 0.43962 -0.02300
C 	C 	0.55383 0.27684 0.39443 -0.06100
S 	S 	0.55067 0.18373 0.35899 -0.01500
C 	C 	0.67381 0.21398 0.37281 -0.06100
S 	S 	0.76856 0.31221 0.43466 -0.01900
C 	C 	0.75568 0.41970 0.47540 -0.06100
S 	S 	0.66394 0.41525 0.44703 -0.01500
C 	C 	0.51672 0.21480 0.37050 -0.00000
H 	H 	0.54722 0.30786 0.41486 0.04600
C 	C 	0.73078 0.24156 0.38720 0.00000
H 	H 	0.63963 0.16826 0.34182 0.04500
C 	C 	0.73482 0.45697 0.47414 -0.00100
H 	H 	0.79761 0.43316 0.48302 0.04400
C 	C 	0.38971 0.14433 0.40087 0.01500
C 	C 	0.38422 0.17335 0.36984 -0.04000
C 	C 	0.42454 0.19423 0.35824 -0.04200
C 	C 	0.47090 0.18657 0.37777 0.00900
C 	C 	0.47580 0.15650 0.40803 -0.04000
C 	C 	0.43519 0.13530 0.41937 -0.04400
H 	H 	0.34932 0.18069 0.35557 0.03700
H 	H 	0.42046 0.21747 0.33500 0.03600
H 	H 	0.51186 0.15107 0.42404 0.03900
H 	H 	0.43967 0.11287 0.44331 0.03600
C 	C 	0.83082 0.16604 0.39867 0.00900
C 	C 	0.78297 0.13875 0.40027 -0.04400
C 	C 	0.74726 0.16055 0.39269 -0.04200
C 	C 	0.75854 0.20908 0.38237 0.00800
C 	C 	0.80259 0.23189 0.37504 -0.04300
C 	C 	0.83840 0.21015 0.38285 -0.04500
H 	H 	0.77587 0.10349 0.41104 0.03500
H 	H 	0.71303 0.14200 0.39787 0.03700
H 	H 	0.81083 0.26839 0.36585 0.03400
H 	H 	0.87415 0.23009 0.37979 0.03000
C 	C 	0.25029 0.43567 0.96821 0.01000
C 	C 	0.22342 0.46726 0.96010 -0.04100
C 	C 	0.30634 0.46048 0.98065 -0.04300
H 	H 	0.17965 0.44783 0.94935 0.04300
H 	H 	0.32700 0.43590 0.98607 0.03800
C 	C 	0.29391 0.41959 0.44395 0.01500
C 	C 	0.34745 0.46814 0.49068 -0.04000
C 	C 	0.27028 0.42406 0.39708 -0.04200
H 	H 	0.36579 0.46507 0.52711 0.03900
H 	H 	0.22890 0.38671 0.36084 0.03700
Zn	Zn	0.12304 0.11750 0.99124 1.18300
Zn	Zn	0.02650 0.07377 0.88017 1.20100
O 	O 	0.00485 0.04650 0.80471 -0.43400
C 	C 	0.17204 0.07473 0.94730 0.31500
C 	C 	0.12874 0.20160 0.94594 0.32400
O 	O 	0.18372 0.10796 0.99270 -0.46500
O 	O 	0.11793 0.03920 0.90518 -0.37000
O 	O 	0.04502 0.08450 0.95307 -0.76200
O 	O 	0.07807 0.15828 0.90043 -0.44500
O 	O 	0.14997 0.19453 0.98864 -0.46100
O 	O 	0.01203 0.01307 0.99986 -0.86100
H 	H 	0.05400 0.03403 0.02810 0.15700
Zn	Zn	0.18285 0.13562 0.50880 1.18100
Zn	Zn	0.07294 0.08677 0.40306 1.19800
O 	O 	0.03713 0.05445 0.32354 -0.43700
C 	C 	0.22575 0.10689 0.45107 0.30300
C 	C 	0.17420 0.21093 0.45573 0.33500
O 	O 	0.23737 0.12328 0.49901 -0.46200
O 	O 	0.17563 0.09239 0.41126 -0.36100
O 	O 	0.10601 0.10283 0.48007 -0.77900
O 	O 	0.11876 0.16962 0.41738 -0.45400
O 	O 	0.20232 0.20921 0.50028 -0.46000
O 	O 	0.08479 0.03827 0.53644 -0.88600
H 	H 	0.12709 0.05688 0.56122 0.16500
C 	C 	0.07491 0.06223 0.24614 0.03900
C 	C 	0.06584 0.05513 0.19711 -0.02700
H 	H 	0.09357 0.09236 0.19565 0.03400
C 	C 	0.12260 0.12254 0.29574 -0.06600
C 	C 	0.10197 0.16489 0.29907 -0.14000
H 	H 	0.16072 0.14270 0.29445 0.03600
H 	H 	0.13859 0.11886 0.33288 0.05500
H 	H 	0.08748 0.17059 0.26286 0.05600
H 	H 	0.13816 0.20934 0.33444 0.06100
H 	H 	0.06555 0.14747 0.30294 0.07200
C 	C 	0.26164 0.36480 0.44464 0.00200
C 	C 	0.27569 0.32168 0.43977 0.03400
C 	C 	0.24670 0.27135 0.44351 -0.01700
C 	C 	0.20339 0.26346 0.45132 -0.11700
C 	C 	0.18771 0.30533 0.45407 0.10600
C 	C 	0.21746 0.35628 0.45134 -0.09400
H 	H 	0.25703 0.23778 0.43915 0.03400
H 	H 	0.20639 0.38931 0.45474 0.05300
N 	N 	0.31954 0.32914 0.43093 -0.13600
N 	N 	0.14223 0.29659 0.46077 -0.14300
C 	C 	0.29294 0.29111 0.37476 -0.09000
H 	H 	0.26856 0.24307 0.36344 0.04200
H 	H 	0.32749 0.30004 0.36842 0.04400
H 	H 	0.26334 0.30117 0.34841 0.04600
C 	C 	0.08869 0.27533 0.41023 -0.09100
H 	H 	0.09429 0.30996 0.39722 0.04600
H 	H 	0.05343 0.26517 0.41570 0.05200
H 	H 	0.07528 0.23366 0.37853 0.05700
H 	H 	0.34713 0.31928 0.45552 0.07200
H 	H 	0.15506 0.33629 0.49020 0.07500
H 	H 	0.34964 0.01971 0.45920 0.04200
C 	C 	0.15964 0.26149 0.95104 -0.09900
C 	C 	0.14962 0.26869 0.90559 0.10300
C 	C 	0.17914 0.32610 0.91196 -0.09100
C 	C 	0.21935 0.37616 0.96292 0.00800
C 	C 	0.22972 0.36904 0.00842 0.02800
C 	C 	0.19997 0.31196 0.00210 -0.02400
H 	H 	0.17089 0.33160 0.87706 0.05300
H 	H 	0.20781 0.30711 0.03718 0.04300
N 	N 	0.10883 0.21778 0.85285 -0.13600
N 	N 	0.27025 0.41960 0.06145 -0.13800
C 	C 	0.13882 0.20157 0.83264 -0.09100
H 	H 	0.16337 0.23723 0.82640 0.04400
H 	H 	0.10643 0.15977 0.79376 0.05700
H 	H 	0.16886 0.19344 0.86079 0.04800
C 	C 	0.24203 0.44604 0.07565 -0.09100
H 	H 	0.22579 0.46412 0.04897 0.04700
H 	H 	0.27390 0.48328 0.11736 0.04500
H 	H 	0.20547 0.41242 0.07343 0.04900
H 	H 	0.08130 0.22651 0.82669 0.08200
H 	H 	0.30704 0.45159 0.06671 0.07400
H 	H 	0.17016 0.04309 0.05076 0.02400
C 	C 	0.87663 0.15387 0.42007 -0.00700
C 	C 	0.91767 0.18028 0.47584 0.03300
C 	C 	0.91530 0.09426 0.40441 0.09000
C 	C 	0.87718 0.11281 0.38483 -0.09200
H 	H 	0.84740 0.09450 0.34209 0.04500
C 	C 	0.86676 0.99321 0.33917 -0.07900
H 	H 	0.82608 0.99001 0.31271 0.03700
C 	C 	0.26960 0.10825 0.44204 -0.10600
C 	C 	0.32958 0.15050 0.48218 0.10100
C 	C 	0.36922 0.15904 0.46900 -0.09200
C 	C 	0.34961 0.12646 0.41636 -0.00100
C 	C 	0.29064 0.08092 0.37754 0.03600
C 	C 	0.25095 0.07187 0.39059 -0.02400
H 	H 	0.41501 0.19277 0.49935 0.05000
H 	H 	0.20530 0.03761 0.36016 0.04200
N 	N 	0.35026 0.18496 0.53626 -0.14000
N 	N 	0.27092 0.04454 0.32432 -0.13900
C 	C 	0.36310 0.24512 0.54745 -0.09100
H 	H 	0.39737 0.26949 0.54255 0.04200
H 	H 	0.37876 0.27052 0.58929 0.04100
H 	H 	0.32326 0.24298 0.52071 0.05200
C 	C 	0.26471 0.98752 0.31781 -0.08600
H 	H 	0.30655 0.99495 0.34780 0.04900
H 	H 	0.38712 0.18712 0.56329 0.07300
H 	H 	0.23158 0.03742 0.29585 0.07300
C 	C 	0.81272 0.13699 0.89888 -0.00100
C 	C 	0.79075 0.08306 0.90050 0.03500
C 	C 	0.86425 0.16167 0.90241 -0.08900
H 	H 	0.88035 0.20232 0.89965 0.05200
H 	H 	0.90223 0.12797 0.83012 0.04100
C 	C 	0.21839 0.09035 0.93965 -0.11600
C 	C 	0.25911 0.07470 0.96050 0.10300
C 	C 	0.30075 0.08773 0.94968 -0.09000
C 	C 	0.30351 0.11798 0.92010 0.00100
C 	C 	0.26404 0.13507 0.90082 0.03400
C 	C 	0.22086 0.11983 0.90961 -0.01400
H 	H 	0.33146 0.07499 0.96491 0.05400
H 	H 	0.18949 0.13150 0.89348 0.03000
N 	N 	0.25821 0.04497 0.99215 -0.14600
N 	N 	0.26871 0.16913 0.87310 -0.13600
C 	C 	0.29541 0.08806 0.04906 -0.09600
H 	H 	0.34135 0.11422 0.06308 0.04400
H 	H 	0.28154 0.11889 0.05722 0.05100
C 	C 	0.30003 0.23280 0.90952 -0.09200
H 	H 	0.27675 0.24149 0.92609 0.04600
H 	H 	0.30354 0.25810 0.88738 0.04500
H 	H 	0.34470 0.24938 0.94275 0.05200
H 	H 	0.21618 0.01593 0.97994 0.08500
H 	H 	0.22755 0.15432 0.84075 0.07000
O 	O 	0.00328 0.04247 0.08973 -0.46000
Zn	Zn	0.05585 0.07568 0.56221 1.20500
O 	O 	0.09274 0.08382 0.63329 -0.46700
C 	C 	0.95528 0.16164 0.49534 -0.02400
N 	N 	0.92206 0.22673 0.51328 -0.13600
H 	H 	0.88171 0.21929 0.50238 0.07700
C 	C 	0.82262 0.05651 0.90932 -0.01500
H 	H 	0.80663 0.01619 0.91245 0.04000
N 	N 	0.73635 0.05586 0.89415 -0.13600
C 	C 	0.74573 0.06610 0.94568 -0.09100
H 	H 	0.70330 0.04775 0.93993 0.04600
H 	H 	0.71064 0.01002 0.86752 0.07300
H 	H 	0.70573 0.47013 0.38562 0.03800
Zn	Zn	0.99234 0.00299 0.93078 1.20300
Zn	Zn	0.05659 0.02320 0.46420 1.21700
C 	C 	0.08060 0.03617 0.63962 0.31600
C 	C 	0.04652 0.01871 0.29835 0.29800
C 	C 	0.03499 0.02191 0.74832 -0.09000
C 	C 	0.03794 0.01389 0.24775 -0.05900
H 	H 	0.20256 0.02158 0.09991 0.03800
H 	H 	0.14691 0.03435 0.09321 0.02100
H 	H 	0.29267 0.06376 0.07211 0.04200
H 	H 	0.94321 0.28868 0.48497 0.05000
H 	H 	0.77351 0.11470 0.97437 0.05000
C 	C 	0.96043 0.28554 0.52240 -0.13800
H 	H 	0.96391 0.32028 0.55231 0.04700
C 	C 	0.01705 0.01116 0.78329 0.30700
C 	C 	0.06687 0.03277 0.67834 -0.09900
H 	H 	0.76605 0.04332 0.96267 0.04600
H 	H 	0.84726 0.04894 0.05026 0.06500
H 	H 	0.23023 0.01696 0.47917 0.03400
C 	C 	0.00665 0.99910 0.09835 0.31900
H 	H 	0.18754 0.05078 0.77725 0.04000
H 	H 	0.17414 0.05227 0.71730 0.04100
C 	C 	0.02017 0.00122 0.14970 -0.06400
C 	C 	0.10094 0.02829 0.72290 0.04600
C 	C 	0.08472 0.02309 0.75759 -0.03100
H 	H 	0.11064 0.01933 0.79167 0.04600
N 	N 	0.85266 0.01361 0.04055 -0.15900
C 	C 	0.16166 0.01641 0.07085 -0.08900
H 	H 	0.99540 0.11513 0.76262 0.04900
N 	N 	0.31314 0.99615 0.49991 -0.13600
C 	C 	0.29991 0.47688 0.39697 -0.04100
C 	C 	0.87675 0.08407 0.91780 -0.12200
H 	H 	0.98583 0.18154 0.53818 0.03500
H 	H 	0.86369 0.97791 0.36777 0.02400
H 	H 	0.00466 0.29482 0.53852 0.08500
C 	C 	0.89626 0.13532 0.91141 0.09900
C 	C 	0.95323 0.11718 0.46027 -0.11400
H 	H 	0.91630 0.00761 0.64945 0.04300
H 	H 	0.61839 0.47604 0.88264 0.04100
C 	C 	0.74167 0.51129 0.42244 -0.04100
C 	C 	0.25345 0.52452 0.96703 -0.03800
C 	C 	0.33638 0.51770 0.98742 -0.03900
H 	H 	0.28131 0.47994 0.36056 0.03800
C 	C 	0.88334 0.00869 0.08822 -0.10000
H 	H 	0.98237 0.16317 0.94553 0.05800
H 	H 	0.86070 0.00430 0.10794 0.03600
H 	H 	0.97754 0.15366 0.86503 0.02000
H 	H 	0.92641 0.00208 0.70702 0.03500
H 	H 	0.87153 0.96291 0.31404 0.00300
H 	H 	0.92671 0.08337 0.85425 0.00400
C 	C 	0.93785 0.12951 0.86311 -0.08800
N 	N 	0.91723 0.05429 0.36773 -0.15700
H 	H 	0.91949 0.06878 0.34064 0.05200
N 	N 	0.94868 0.16122 0.91422 -0.15100
O 	O 	0.91867 0.02664 0.91162 -0.47100
C 	C 	0.91631 0.06585 0.94234 0.32800
O 	O 	0.93993 0.07972 0.99273 -0.50000
O 	O 	0.98525 0.04901 0.45126 -0.47600
C 	C 	0.99035 0.09480 0.48296 0.28400
O 	O 	0.02176 0.11496 0.53471 -0.45900
C 	C 	0.00184 0.02812 0.70441 0.06400
C 	C 	0.01888 0.03453 0.67051 0.01500
H 	H 	0.99410 0.04012 0.63735 0.00600
C 	C 	0.94868 0.02878 0.69328 -0.10200
C 	C 	0.96410 0.09248 0.71855 -0.12500
H 	H 	0.92421 0.09143 0.70902 0.04200
H 	H 	0.98330 0.11856 0.70254 0.03900
H 	H 	0.92782 0.04958 0.11709 0.03900
C 	C 	0.69553 0.51425 0.96173 0.02900
C 	C 	0.66149 0.51484 0.91479 -0.05100
C 	C 	0.76854 0.56357 0.42045 -0.04300
C 	C 	0.76169 0.51209 0.47187 0.00900
H 	H 	0.75301 0.56259 0.38213 0.03600
C 	C 	0.31022 0.55020 0.98110 0.00800
H 	H 	0.23263 0.54893 0.96145 0.04200
H 	H 	0.38025 0.53709 0.99847 0.03900
C 	C 	0.37707 0.52103 0.49067 -0.04000
C 	C 	0.35343 0.52563 0.44374 0.01000
H 	H 	0.41783 0.55864 0.52729 0.03900
Zn	Zn	0.97353 0.04015 0.02033 1.18200
H 	H 	0.34661 0.99409 0.52704 0.07800
O 	O 	0.97211 0.99241 0.86108 -0.89300
C 	C 	0.30877 0.98459 0.45029 -0.08300
H 	H 	0.27264 0.98611 0.42147 0.05000
H 	H 	0.77819 0.56469 0.03898 0.03800
H 	H 	0.25225 0.96152 0.27742 0.04700
H 	H 	0.30206 0.94054 0.43176 0.04600
H 	H 	0.23036 0.96092 0.32177 0.04400
H 	H 	0.89932 0.06329 0.51255 0.07700
C 	C 	0.81507 0.01282 0.44285 -0.10800
H 	H 	0.81796 0.97872 0.41946 0.06200
H 	H 	0.82446 0.04900 0.43205 0.05300
H 	H 	0.77014 0.99256 0.43176 0.05400
C 	C 	0.74050 0.61458 0.94880 0.00100
C 	C 	0.77410 0.61445 0.99605 -0.00800
C 	C 	0.75166 0.56459 0.00255 -0.07700
C 	C 	0.68386 0.56493 0.90850 -0.03400
H 	H 	0.81798 0.65256 0.02730 0.02000
H 	H 	0.65766 0.56469 0.87186 0.03500
C 	C 	0.81564 0.61691 0.46784 0.01300
C 	C 	0.80891 0.56535 0.51921 -0.04400
C 	C 	0.83563 0.61767 0.51724 -0.04000
H 	H 	0.82485 0.56619 0.55749 0.03400
H 	H 	0.87191 0.65873 0.55402 0.03400
C 	C 	0.43574 0.74855 0.98896 0.04900
C 	C 	0.43534 0.80044 0.00461 -0.03700
C 	C 	0.41940 0.81311 0.03909 0.02800
C 	C 	0.39849 0.77035 0.05403 -0.03000
C 	C 	0.39367 0.71580 0.03449 0.03300
C 	C 	0.41704 0.70740 0.00576 -0.04900
C 	C 	0.47363 0.75363 0.97349 -0.06800
S 	S 	0.48269 0.85161 0.00124 -0.01900
C 	C 	0.39907 0.85156 0.04151 -0.06000
S 	S 	0.35431 0.77940 0.06729 -0.01100
C 	C 	0.35215 0.66152 0.02630 -0.07600
S 	S 	0.38510 0.63410 0.97026 -0.00100
C 	C 	0.50225 0.80952 0.97708 0.00600
H 	H 	0.48479 0.72113 0.96643 0.04900
C 	C 	0.36206 0.83836 0.05774 -0.00500
H 	H 	0.40249 0.87987 0.02299 0.04600
C 	C 	0.34237 0.61138 0.99017 0.01100
H 	H 	0.32961 0.65904 0.04501 0.04800
C 	C 	0.64934 0.87334 0.97141 -0.00800
C 	C 	0.64417 0.84161 0.99942 -0.00900
C 	C 	0.59683 0.82174 0.00237 -0.07500
C 	C 	0.55451 0.83388 0.97759 0.02700
C 	C 	0.56152 0.86846 0.95211 -0.05000
C 	C 	0.60898 0.88845 0.94936 -0.03100
H 	H 	0.67606 0.83113 0.01777 0.01900
H 	H 	0.59300 0.79684 0.02374 0.04100
H 	H 	0.52954 0.87872 0.93345 0.04400
H 	H 	0.61348 0.91417 0.92873 0.03600
C 	C 	0.23285 0.87991 0.00733 -0.02400
C 	C 	0.29186 0.92590 0.04322 -0.02400
C 	C 	0.33396 0.91223 0.06063 -0.05500
C 	C 	0.31736 0.85246 0.04227 0.02700
C 	C 	0.25815 0.80647 0.00674 -0.07700
C 	C 	0.21614 0.82020 0.98968 0.00400
H 	H 	0.30510 0.97213 0.05678 0.03300
H 	H 	0.37948 0.94803 0.08783 0.04200
H 	H 	0.24470 0.76014 0.99133 0.05800
H 	H 	0.17063 0.78445 0.96183 0.03500
C 	C 	0.50878 0.74539 0.51702 0.02200
C 	C 	0.50071 0.79270 0.52758 -0.02300
C 	C 	0.44529 0.78252 0.49765 0.02300
C 	C 	0.39702 0.72362 0.46016 -0.02300
C 	C 	0.40422 0.67568 0.45216 0.02300
C 	C 	0.46050 0.68741 0.47757 -0.02300
C 	C 	0.56566 0.76445 0.53177 -0.06100
S 	S 	0.56205 0.85518 0.55174 -0.01100
C 	C 	0.43030 0.82159 0.51600 -0.06000
S 	S 	0.33845 0.72044 0.45244 -0.01000
C 	C 	0.36088 0.61598 0.43303 -0.06000
S 	S 	0.45609 0.62549 0.47780 -0.01400
C 	C 	0.60156 0.82633 0.55313 -0.00200
H 	H 	0.57676 0.73375 0.51884 0.04400
C 	C 	0.37104 0.79236 0.49433 0.00100
H 	H 	0.46170 0.86831 0.54565 0.04600
C 	C 	0.38387 0.58149 0.44350 0.00100
H 	H 	0.31644 0.60089 0.41839 0.04800
C 	C 	0.74419 0.90231 0.54260 0.01500
C 	C 	0.75194 0.92601 0.59148 -0.04400
C 	C 	0.70505 0.90167 0.59475 -0.04300
C 	C 	0.65025 0.85345 0.54918 0.01000
C 	C 	0.64235 0.83059 0.50006 -0.04100
C 	C 	0.68919 0.85483 0.49685 -0.04000
H 	H 	0.79431 0.96285 0.62695 0.03300
H 	H 	0.71147 0.91981 0.63275 0.03300
H 	H 	0.59999 0.79394 0.46446 0.04000
H 	H 	0.68285 0.83656 0.45891 0.04000
C 	C 	0.27854 0.87709 0.49036 0.01100
C 	C 	0.26361 0.83651 0.44254 -0.04300
C 	C 	0.29474 0.81002 0.44372 -0.04000
C 	C 	0.34046 0.82302 0.49285 0.01000
C 	C 	0.35574 0.86408 0.54072 -0.04100
C 	C 	0.32462 0.89070 0.53948 -0.04300
H 	H 	0.22781 0.82547 0.40446 0.03900
H 	H 	0.28321 0.77931 0.40648 0.04000
H 	H 	0.39096 0.87446 0.57883 0.03900
H 	H 	0.33602 0.92152 0.57661 0.03800
O 	O 	0.01997 0.97047 0.79726 -0.45300
O 	O 	0.01474 0.89924 0.87107 -0.48200
O 	O 	0.06612 0.98220 0.95060 -0.43700
Zn	Zn	0.86626 0.89792 0.88160 1.17700
C 	C 	0.85899 0.81397 0.92669 0.33300
C 	C 	0.83525 0.93888 0.94610 0.33500
O 	O 	0.83461 0.82111 0.88465 -0.46400
O 	O 	0.82181 0.92307 0.89758 -0.48700
O 	O 	0.00319 0.95697 0.06399 -0.42300
Zn	Zn	0.98828 0.93826 0.83419 1.17300
C 	C 	0.05731 0.93167 0.92219 0.33400
O 	O 	0.06448 0.98777 0.31825 -0.46600
O 	O 	0.07751 0.91970 0.39694 -0.50100
O 	O 	0.12935 0.00164 0.47760 -0.47300
C 	C 	0.92903 0.83724 0.46711 0.32700
C 	C 	0.91816 0.97763 0.50342 0.33200
O 	O 	0.90349 0.84722 0.42743 -0.47900
O 	O 	0.89518 0.95322 0.45212 -0.48300
O 	O 	0.07049 0.98774 0.60561 -0.41800
Zn	Zn	0.04466 0.95646 0.36196 1.18600
C 	C 	0.12034 0.95158 0.44794 0.33600
C 	C 	0.15389 0.02761 0.73347 -0.07400
C 	C 	0.13871 0.96379 0.71002 -0.13400
H 	H 	0.12247 0.94005 0.72892 0.05900
H 	H 	0.17812 0.96470 0.71783 0.05200
H 	H 	0.10506 0.93890 0.66618 0.07200
C 	C 	0.79367 0.92683 0.53921 0.00100
C 	C 	0.82624 0.90096 0.54481 0.03300
C 	C 	0.87059 0.92209 0.53768 -0.01400
C 	C 	0.87897 0.96472 0.52009 -0.12600
C 	C 	0.84703 0.99161 0.51555 0.10700
C 	C 	0.80562 0.97338 0.52649 -0.09100
H 	H 	0.89644 0.90294 0.54305 0.03300
H 	H 	0.78111 0.99392 0.52303 0.05600
N 	N 	0.81164 0.85052 0.55431 -0.13700
N 	N 	0.85659 0.03783 0.50036 -0.14900
C 	C 	0.85143 0.86892 0.61060 -0.08700
H 	H 	0.89715 0.89115 0.62356 0.03700
H 	H 	0.84026 0.82894 0.61639 0.03100
H 	H 	0.84690 0.89936 0.63591 0.03600
H 	H 	0.81219 0.81790 0.53005 0.07600
C 	C 	0.16501 0.93814 0.46888 -0.13100
C 	C 	0.15149 0.88486 0.47178 0.10500
C 	C 	0.19088 0.86718 0.48226 -0.09200
C 	C 	0.24299 0.90175 0.48884 -0.00100
C 	C 	0.25820 0.95734 0.48953 0.03400
C 	C 	0.21923 0.97524 0.48007 -0.00500
H 	H 	0.18019 0.82576 0.48386 0.05300
N 	N 	0.09853 0.84984 0.46600 -0.15000
C 	C 	0.05633 0.79521 0.41435 -0.09100
H 	H 	0.04799 0.80580 0.38100 0.05500
H 	H 	0.07177 0.76474 0.41196 0.04700
H 	H 	0.10716 0.83941 0.49721 0.07200
C 	C 	0.78812 0.92225 0.95317 -0.13000
C 	C 	0.79722 0.95867 0.99963 0.12900
C 	C 	0.75116 0.94241 0.00480 -0.12300
C 	C 	0.69651 0.88991 0.96440 0.02000
C 	C 	0.68730 0.85371 0.91752 0.02500
C 	C 	0.73328 0.86988 0.91262 -0.00200
H 	H 	0.75789 0.97089 0.04016 0.05500
H 	H 	0.72621 0.84147 0.87701 0.03800
N 	N 	0.63089 0.80128 0.87376 -0.13600
C 	C 	0.62302 0.74814 0.87949 -0.09200
H 	H 	0.65747 0.74125 0.88221 0.04800
H 	H 	0.58050 0.70837 0.84375 0.04600
H 	H 	0.62341 0.75176 0.91529 0.04600
H 	H 	0.59700 0.80648 0.86809 0.07800
C 	C 	0.10220 0.91844 0.94448 -0.12900
C 	C 	0.13143 0.93015 0.99809 0.12900
C 	C 	0.17406 0.91716 0.01826 -0.12700
C 	C 	0.18869 0.89412 0.98588 0.04000
C 	C 	0.16060 0.88386 0.93283 0.02300
C 	C 	0.11699 0.89530 0.91219 -0.00100
H 	H 	0.19558 0.92482 0.05906 0.06100
H 	H 	0.09574 0.88767 0.87139 0.03500
N 	N 	0.11643 0.95348 0.03154 -0.16000
N 	N 	0.17698 0.86226 0.90003 -0.13200
C 	C 	0.21757 0.91163 0.89971 -0.09300
H 	H 	0.19748 0.93473 0.88296 0.05100
H 	H 	0.22980 0.89390 0.87448 0.05000
H 	H 	0.25784 0.94407 0.94081 0.05900
H 	H 	0.10974 0.92839 0.05080 0.07100
H 	H 	0.14026 0.83035 0.86101 0.07700
C 	C 	0.89751 0.77857 0.46309 -0.12200
C 	C 	0.84006 0.75261 0.44902 0.10200
C 	C 	0.81442 0.70039 0.45170 -0.09200
C 	C 	0.84378 0.67212 0.46576 0.00100
C 	C 	0.89958 0.69618 0.47736 0.03000
C 	C 	0.92636 0.74954 0.47646 -0.01400
H 	H 	0.77116 0.68140 0.44222 0.05400
N 	N 	0.80695 0.77825 0.43131 -0.14800
C 	C 	0.77108 0.75128 0.37299 -0.08500
H 	H 	0.79772 0.75506 0.35734 0.04300
H 	H 	0.74888 0.77440 0.36083 0.03900
H 	H 	0.73727 0.70344 0.35480 0.04300
H 	H 	0.83227 0.82473 0.44958 0.08300
C 	C 	0.76623 0.66471 0.93985 0.00500
C 	C 	0.77967 0.72134 0.96981 0.03800
C 	C 	0.80771 0.76948 0.96323 -0.01700
C 	C 	0.82398 0.76185 0.92836 -0.11600
C 	C 	0.80961 0.70509 0.89768 0.10600
C 	C 	0.78010 0.65654 0.90310 -0.09500
H 	H 	0.81795 0.81306 0.98616 0.03400
H 	H 	0.76950 0.61287 0.87983 0.05000
N 	N 	0.76705 0.73040 0.00869 -0.14600
N 	N 	0.82590 0.69704 0.86152 -0.14700
C 	C 	0.71701 0.73565 0.98934 -0.07300
H 	H 	0.72701 0.77673 0.98524 0.04200
H 	H 	0.70594 0.73852 0.01847 0.03200
H 	H 	0.67862 0.69566 0.95036 0.04500
H 	H 	0.80330 0.76845 0.04501 0.06500
H 	H 	0.99167 0.87029 0.09065 0.05500
H 	H 	0.79200 0.65752 0.82544 0.07000
H 	H 	0.87648 0.59722 0.40968 0.04500
N 	N 	0.92905 0.66610 0.49003 -0.13700
O 	O 	0.02666 0.00681 0.39156 -0.85800
C 	C 	0.92306 0.63065 0.44310 -0.08800
H 	H 	0.88707 0.96975 0.07777 0.05400
Zn	Zn	0.93458 0.92585 0.42827 1.17100
H 	H 	0.89849 0.87163 0.10494 0.02800
O 	O 	0.88641 0.95346 0.98472 -0.47900
O 	O 	0.97159 0.99362 0.53728 -0.50200
H 	H 	0.96968 0.76831 0.48609 0.02600
H 	H 	0.94419 0.60615 0.45330 0.03700
H 	H 	0.94431 0.65984 0.43008 0.03300
H 	H 	0.97293 0.69691 0.52167 0.06400
H 	H 	0.87084 0.65749 0.89306 0.03900
C 	C 	0.87853 0.69635 0.88564 -0.08900
O 	O 	0.91556 0.84811 0.96376 -0.46900
O 	O 	0.94058 0.92153 0.90922 -0.81000
H 	H 	0.93115 0.97901 0.83651 0.14500
O 	O 	0.98441 0.87601 0.50770 -0.47800
O 	O 	0.00621 0.94439 0.44839 -0.77100
H 	H 	0.98455 0.99025 0.36953 0.12300
H 	H 	0.96657 0.92185 0.20244 0.01700
C 	C 	0.93495 0.89278 0.10167 -0.06200
C 	C 	0.95535 0.85078 0.09434 -0.13800
H 	H 	0.91644 0.89757 0.06527 0.03700
H 	H 	0.91903 0.80755 0.05749 0.05300
H 	H 	0.91482 0.73845 0.92378 0.04700
H 	H 	0.89158 0.69277 0.85797 0.03600
H 	H 	0.96993 0.84211 0.12887 0.04200
H 	H 	0.01468 0.77171 0.40959 0.05000
Zn	Zn	0.96729 0.93165 0.98428 1.18300
Zn	Zn	0.03756 0.95858 0.52513 1.19600
C 	C 	0.98381 0.95255 0.15153 0.01300
C 	C 	0.99380 0.95925 0.20079 -0.05800
