data_crystal

_cell_length_a 26.00620
_cell_length_b 26.43167
_cell_length_c 26.75262
_cell_angle_alpha 95.49232
_cell_angle_beta  95.49251
_cell_angle_gamma 125.84370

_symmetry_space_group_name_	'P 1'
_symmetry_space_group_name_H-M	'P 1'

loop_
_symmetry_equiv_pos_as_xyz
  x,y,z

loop_
_atom_site_label
_atom_site_type_symbol
_atom_site_fract_x
_atom_site_fract_y
_atom_site_fract_z
_atom_site_charge
C 	C 	0.97807 0.03906 0.98967 0.19800
N 	N 	0.94226 0.97476 0.98242 -0.12500
C 	C 	0.97053 0.94565 0.97435 0.19600
N 	N 	0.03452 0.98080 0.97307 -0.12500
C 	C 	0.07046 0.04510 0.98039 0.19800
N 	N 	0.04229 0.07429 0.98899 -0.12200
C 	C 	0.92344 0.98609 0.44610 0.18500
N 	N 	0.98898 0.02333 0.45587 -0.11400
C 	C 	0.02016 0.99673 0.46174 0.18300
N 	N 	0.98582 0.93297 0.45836 -0.11900
C 	C 	0.92032 0.89560 0.44852 0.19300
N 	N 	0.88905 0.92212 0.44208 -0.11800
Cu	Cu	0.65242 0.25777 0.01041 0.94600
Cu	Cu	0.70097 0.24836 0.90363 0.89900
Cu	Cu	0.68991 0.35083 0.93816 0.91200
Cu	Cu	0.67073 0.38562 0.03961 0.91800
C 	C 	0.67017 0.30851 0.11551 0.29800
O 	O 	0.56221 0.23271 0.01037 -0.28100
C 	C 	0.67542 0.30630 0.82966 0.30000
O 	O 	0.71301 0.35554 0.00987 -0.63400
O 	O 	0.64319 0.25811 0.93651 -0.63600
O 	O 	0.68137 0.20288 0.01063 -0.29900
O 	O 	0.75645 0.26009 0.96235 -0.38900
O 	O 	0.65124 0.34208 0.09995 -0.31900
O 	O 	0.74086 0.44166 0.94148 -0.31100
C 	C 	0.74018 0.48219 0.97381 0.32700
C 	C 	0.54272 0.26294 0.98880 0.31600
O 	O 	0.58549 0.32051 0.98068 -0.36400
O 	O 	0.72195 0.46978 0.01831 -0.33800
O 	O 	0.67666 0.27278 0.08292 -0.29500
C 	C 	0.73389 0.21950 0.99354 0.31000
O 	O 	0.67054 0.34198 0.86402 -0.30800
O 	O 	0.66748 0.25435 0.83930 -0.36300
H 	H 	0.75994 0.38041 0.02315 0.20500
H 	H 	0.59845 0.23201 0.91692 0.20800
Cu	Cu	0.71574 0.32031 0.43167 0.94300
Cu	Cu	0.73692 0.28717 0.54348 0.90000
Cu	Cu	0.63088 0.29689 0.51079 0.91500
Cu	Cu	0.58723 0.30705 0.40685 0.91700
C 	C 	0.66060 0.30176 0.32782 0.30600
O 	O 	0.74811 0.40966 0.42481 -0.28500
C 	C 	0.68574 0.32083 0.61834 0.29700
O 	O 	0.61809 0.26710 0.43929 -0.63700
O 	O 	0.72359 0.33957 0.50641 -0.63100
O 	O 	0.76631 0.28587 0.43056 -0.31000
O 	O 	0.71502 0.22343 0.48801 -0.39000
O 	O 	0.61035 0.29891 0.33861 -0.32800
O 	O 	0.53987 0.24863 0.51275 -0.30200
C 	C 	0.49610 0.24344 0.47865 0.33100
C 	C 	0.72005 0.43434 0.44151 0.32800
O 	O 	0.66380 0.39803 0.45504 -0.35900
O 	O 	0.51226 0.27710 0.44184 -0.34500
O 	O 	0.69208 0.28940 0.35977 -0.30300
C 	C 	0.75058 0.23765 0.45268 0.32800
O 	O 	0.64715 0.32368 0.58487 -0.30200
O 	O 	0.73778 0.32867 0.60661 -0.36300
H 	H 	0.59095 0.22029 0.42883 0.20400
H 	H 	0.75192 0.38522 0.52225 0.20700
C 	C 	0.72929 0.37187 0.70978 0.05900
C 	C 	0.67793 0.32175 0.67217 0.01100
C 	C 	0.62227 0.26994 0.68672 -0.09000
C 	C 	0.62078 0.26827 0.73896 0.06000
C 	C 	0.67422 0.31591 0.77640 0.01100
C 	C 	0.72843 0.36931 0.76201 -0.08900
C 	C 	0.78506 0.42362 0.80220 0.78000
H 	H 	0.77066 0.41211 0.69812 0.09800
H 	H 	0.57865 0.22897 0.75073 0.09700
C 	C 	0.56396 0.21723 0.64677 0.78100
F 	F 	0.83485 0.46909 0.78042 -0.41400
F 	F 	0.80929 0.40080 0.83376 -0.44600
F 	F 	0.76483 0.45276 0.83126 -0.42000
F 	F 	0.58245 0.19243 0.61099 -0.45100
F 	F 	0.53551 0.24129 0.62250 -0.41800
F 	F 	0.51806 0.16781 0.66841 -0.41400
C 	C 	0.72373 0.35262 0.20627 0.05800
C 	C 	0.67210 0.30168 0.16943 0.01600
C 	C 	0.61944 0.24789 0.18488 -0.08000
C 	C 	0.61907 0.24727 0.23734 0.05900
C 	C 	0.66874 0.29993 0.27413 0.01700
C 	C 	0.72265 0.35256 0.25875 -0.08500
C 	C 	0.77690 0.41021 0.29798 0.78100
H 	H 	0.76366 0.39337 0.19383 0.08900
H 	H 	0.57894 0.20672 0.24979 0.09800
C 	C 	0.56272 0.19220 0.14557 0.78000
F 	F 	0.82682 0.45460 0.27566 -0.41200
F 	F 	0.80208 0.39194 0.33365 -0.42200
F 	F 	0.75332 0.43901 0.32242 -0.43000
F 	F 	0.58382 0.16539 0.11479 -0.41300
F 	F 	0.53459 0.21283 0.11561 -0.41900
F 	F 	0.51568 0.14528 0.16837 -0.40900
C 	C 	0.88347 0.82628 0.44345 -0.05200
C 	C 	0.85086 0.79592 0.48246 0.10600
C 	C 	0.82117 0.73074 0.48000 0.07800
C 	C 	0.82709 0.69671 0.44004 0.01500
C 	C 	0.85914 0.72694 0.40077 0.07700
C 	C 	0.88552 0.79115 0.40168 0.10600
C 	C 	0.80024 0.62936 0.43963 0.02600
C 	C 	0.83643 0.61423 0.46808 0.07200
C 	C 	0.80983 0.55033 0.46941 0.13500
C 	C 	0.74842 0.50137 0.44003 -0.09000
C 	C 	0.71378 0.51659 0.40941 0.14200
C 	C 	0.73856 0.58046 0.41082 0.07100
Br	Br	0.86819 0.68066 0.34650 -0.08100
Br	Br	0.84969 0.84429 0.54049 -0.10200
Br	Br	0.85636 0.53004 0.51301 -0.13300
Br	Br	0.68776 0.60118 0.37389 -0.09900
Br	Br	0.92322 0.83083 0.34524 -0.10200
Br	Br	0.77252 0.68792 0.53134 -0.10500
Br	Br	0.92256 0.68121 0.50494 -0.09500
Br	Br	0.63436 0.45015 0.36318 -0.13900
C 	C 	0.88986 0.01522 0.44046 -0.04600
C 	C 	0.88028 0.03066 0.39323 0.10400
C 	C 	0.85552 0.06561 0.38943 0.08000
C 	C 	0.83822 0.08317 0.43248 0.01300
C 	C 	0.84415 0.06430 0.47888 0.07900
C 	C 	0.87117 0.03146 0.48315 0.10400
C 	C 	0.81693 0.12420 0.42985 0.02400
C 	C 	0.86210 0.19048 0.44612 0.06800
C 	C 	0.84072 0.22844 0.45176 0.12500
C 	C 	0.77433 0.20041 0.43902 -0.10700
C 	C 	0.72998 0.13511 0.41798 0.13000
C 	C 	0.75101 0.09671 0.41451 0.06800
Br	Br	0.81583 0.08416 0.53666 -0.11600
Br	Br	0.90095 0.00366 0.33382 -0.09500
Br	Br	0.90191 0.31810 0.47970 -0.13200
Br	Br	0.68946 0.00624 0.39046 -0.09600
Br	Br	0.88496 0.01085 0.54794 -0.09900
Br	Br	0.84672 0.09085 0.32575 -0.09400
Br	Br	0.95309 0.22883 0.46173 -0.10400
Br	Br	0.64079 0.09875 0.39302 -0.12400
C 	C 	0.42928 0.20825 0.48722 -0.08900
C 	C 	0.38889 0.14135 0.47746 0.13100
C 	C 	0.32274 0.10769 0.47884 0.07200
C 	C 	0.29682 0.14098 0.48891 0.02500
C 	C 	0.33800 0.20782 0.50184 0.07100
C 	C 	0.40445 0.24137 0.50198 0.13400
C 	C 	0.22598 0.10600 0.48244 0.01400
C 	C 	0.18940 0.09163 0.43384 0.07800
C 	C 	0.12184 0.05600 0.42710 0.10400
C 	C 	0.09096 0.03647 0.46925 -0.04600
C 	C 	0.12766 0.05253 0.51815 0.10400
C 	C 	0.19508 0.08651 0.52464 0.07900
Br	Br	0.30285 0.25325 0.51779 -0.10000
Br	Br	0.42387 0.09599 0.46054 -0.11300
Br	Br	0.07123 0.03195 0.35982 -0.09600
Br	Br	0.24520 0.10579 0.59105 -0.08400
Br	Br	0.46186 0.33249 0.52368 -0.10600
Br	Br	0.26717 0.01603 0.46588 -0.09100
Br	Br	0.23212 0.12083 0.37659 -0.10700
Br	Br	0.08541 0.02846 0.57622 -0.10000
C 	C 	0.93274 0.87644 0.96991 -0.06000
C 	C 	0.90847 0.83711 0.92136 0.10700
C 	C 	0.87500 0.77112 0.91725 0.07900
C 	C 	0.86475 0.74438 0.96170 0.00900
C 	C 	0.88749 0.78362 0.01018 0.08300
C 	C 	0.92228 0.84970 0.01431 0.11200
C 	C 	0.83174 0.67531 0.95771 0.02500
C 	C 	0.76418 0.63359 0.95338 0.07100
C 	C 	0.73376 0.56930 0.95600 0.12800
C 	C 	0.77102 0.54707 0.96420 -0.09000
C 	C 	0.83829 0.58817 0.96628 0.13600
C 	C 	0.86841 0.65199 0.96210 0.07100
Br	Br	0.87101 0.74658 0.07087 -0.10200
Br	Br	0.92091 0.87383 0.86062 -0.10500
Br	Br	0.64099 0.51137 0.94798 -0.12600
Br	Br	0.96015 0.70807 0.96343 -0.09300
Br	Br	0.95733 0.90394 0.08081 -0.09700
Br	Br	0.84380 0.71728 0.85092 -0.08800
Br	Br	0.71374 0.66510 0.94523 -0.10300
Br	Br	0.88958 0.55795 0.97755 -0.09900
C 	C 	0.94710 0.07039 0.99769 -0.06300
C 	C 	0.92997 0.09052 0.95667 0.11000
C 	C 	0.89781 0.11796 0.96375 0.06900
C 	C 	0.87926 0.12174 0.01094 0.02300
C 	C 	0.89641 0.10160 0.05200 0.07600
C 	C 	0.93185 0.07753 0.04573 0.11500
C 	C 	0.83945 0.14442 0.01652 0.02700
C 	C 	0.86932 0.20911 0.03525 0.07000
C 	C 	0.83264 0.23241 0.03277 0.12700
C 	C 	0.76719 0.19201 0.00862 -0.08900
C 	C 	0.73632 0.12643 0.99329 0.11600
C 	C 	0.77222 0.10246 0.99862 0.06500
Br	Br	0.86991 0.10563 0.11629 -0.09100
Br	Br	0.94774 0.07760 0.89019 -0.10200
Br	Br	0.87141 0.31919 0.06326 -0.12300
Br	Br	0.72996 0.01247 0.97999 -0.10400
Br	Br	0.96066 0.05543 0.10307 -0.09500
Br	Br	0.87889 0.15030 0.90886 -0.12000
Br	Br	0.96091 0.26614 0.06200 -0.09600
Br	Br	0.64603 0.07016 0.96190 -0.12500
C 	C 	0.47390 0.23661 0.98183 -0.10000
C 	C 	0.42680 0.17613 0.95131 0.13300
C 	C 	0.36086 0.14702 0.95047 0.07200
C 	C 	0.34175 0.17999 0.97750 0.01900
C 	C 	0.38863 0.24232 0.00481 0.07600
C 	C 	0.45461 0.26960 0.00886 0.14300
C 	C 	0.27262 0.14796 0.97935 0.01100
C 	C 	0.23217 0.14675 0.93948 0.07800
C 	C 	0.16569 0.11269 0.93960 0.10700
C 	C 	0.14033 0.08312 0.98116 -0.06000
C 	C 	0.18146 0.08735 0.02238 0.11300
C 	C 	0.24716 0.11807 0.02076 0.08000
Br	Br	0.36216 0.28993 0.03706 -0.09600
Br	Br	0.45256 0.13385 0.90967 -0.14100
Br	Br	0.10888 0.10380 0.88176 -0.10000
Br	Br	0.30216 0.11821 0.07467 -0.07600
Br	Br	0.51802 0.34954 0.05479 -0.14200
Br	Br	0.29659 0.06133 0.91350 -0.09400
Br	Br	0.26809 0.19194 0.88487 -0.10200
Br	Br	0.14797 0.05245 0.08162 -0.09700
