data_crystal

_cell_length_a 27.77408
_cell_length_b 28.88303
_cell_length_c 30.86779
_cell_angle_alpha 61.09556
_cell_angle_beta  118.58689
_cell_angle_gamma 133.20517

_symmetry_space_group_name_	'P 1'
_symmetry_space_group_name_H-M	'P 1'

loop_
_symmetry_equiv_pos_as_xyz
  x,y,z

loop_
_atom_site_label
_atom_site_type_symbol
_atom_site_fract_x
_atom_site_fract_y
_atom_site_fract_z
_atom_site_charge
C 	C 	0.73281 0.31255 0.03555 0.11500
N 	N 	0.66472 0.27729 0.02922 -0.13900
C 	C 	0.63994 0.29885 0.03766 0.12200
N 	N 	0.68314 0.35526 0.05270 -0.14100
C 	C 	0.75098 0.39022 0.05976 0.12000
N 	N 	0.77611 0.36910 0.05107 -0.13800
C 	C 	0.73107 0.31416 0.53004 0.11700
N 	N 	0.66305 0.28037 0.52251 -0.13900
C 	C 	0.63848 0.30551 0.52627 0.12000
N 	N 	0.68196 0.36452 0.53741 -0.14000
C 	C 	0.74985 0.39787 0.54614 0.11900
N 	N 	0.77468 0.37288 0.54234 -0.13900
C 	C 	0.28109 0.65902 0.25773 0.11400
N 	N 	0.34331 0.69528 0.24883 -0.14100
C 	C 	0.36057 0.66684 0.24020 0.11700
N 	N 	0.31610 0.60233 0.24108 -0.14000
C 	C 	0.25322 0.56644 0.24786 0.11700
N 	N 	0.23551 0.59467 0.25635 -0.13900
C 	C 	0.28939 0.65709 0.76665 0.11400
N 	N 	0.35432 0.69138 0.76384 -0.14200
C 	C 	0.37279 0.66186 0.75813 0.11700
N 	N 	0.32659 0.59865 0.75512 -0.14100
C 	C 	0.26236 0.56414 0.75838 0.11800
N 	N 	0.24342 0.59326 0.76395 -0.14000
Co	Co	0.09294 0.98650 0.16745 1.16700
Co	Co	0.90403 0.96410 0.12261 1.16500
Co	Co	0.03129 0.02960 0.19802 1.18600
Co	Co	0.97073 0.93449 0.08464 1.18100
C 	C 	0.10514 0.87310 0.21444 0.29600
Co	Co	0.08100 0.91489 0.10255 1.16400
Co	Co	0.90409 0.01570 0.19600 1.17900
C 	C 	0.02891 0.97154 0.99895 0.26900
O 	O 	0.96856 0.11347 0.16432 -0.38100
O 	O 	0.95045 0.00380 0.16909 -0.73700
C 	C 	0.03524 0.14766 0.18155 0.27100
O 	O 	0.11420 0.03468 0.21230 -0.45100
O 	O 	0.88787 0.92895 0.07027 -0.48000
C 	C 	0.84229 0.03356 0.08545 0.30400
O 	O 	0.00967 0.00034 0.13098 -0.56600
C 	C 	0.99503 0.99251 0.29239 0.28000
C 	C 	0.20644 0.04326 0.12604 0.34700
C 	C 	0.93412 0.80737 0.09336 0.30600
O 	O 	0.07014 0.12583 0.19113 -0.37700
O 	O 	0.18144 0.98221 0.13407 -0.44500
O 	O 	0.18018 0.05765 0.13933 -0.38000
O 	O 	0.82799 0.00287 0.13014 -0.39700
O 	O 	0.87655 0.02695 0.07349 -0.37000
O 	O 	0.97483 0.03018 0.26498 -0.36900
O 	O 	0.01059 0.97594 0.27035 -0.41800
O 	O 	0.98380 0.84374 0.07094 -0.40800
O 	O 	0.92491 0.83456 0.10994 -0.40100
O 	O 	0.04828 0.95207 0.11744 -0.77300
C 	C 	0.80543 0.87693 0.19243 0.29200
O 	O 	0.84645 0.91552 0.22396 -0.41100
O 	O 	0.82879 0.87863 0.16233 -0.39600
O 	O 	0.06924 0.85158 0.17299 -0.40400
O 	O 	0.09994 0.91046 0.22290 -0.40100
O 	O 	0.08504 0.97990 0.03237 -0.40200
O 	O 	0.98448 0.96623 0.01092 -0.37300
Co	Co	0.09816 0.98628 0.66867 1.16700
Co	Co	0.91301 0.97145 0.62374 1.16500
Co	Co	0.04073 0.03254 0.70014 1.18600
Co	Co	0.97428 0.93411 0.58718 1.18100
C 	C 	0.11197 0.87490 0.71444 0.29700
Co	Co	0.08350 0.91418 0.60242 1.16400
Co	Co	0.92054 0.03173 0.69488 1.17800
C 	C 	0.02777 0.96870 0.49952 0.28800
O 	O 	0.99209 0.12833 0.66606 -0.38200
O 	O 	0.96205 0.01288 0.66938 -0.73600
C 	C 	0.05725 0.15560 0.68751 0.27600
O 	O 	0.12057 0.03268 0.71540 -0.45300
O 	O 	0.89291 0.93054 0.57381 -0.48100
C 	C 	0.86251 0.05197 0.58359 0.30400
O 	O 	0.01657 0.00232 0.63272 -0.56600
C 	C 	0.00305 0.99836 0.79281 0.25700
C 	C 	0.20919 0.04356 0.62392 0.34800
C 	C 	0.93712 0.80621 0.59709 0.30500
O 	O 	0.08756 0.13076 0.69406 -0.37700
O 	O 	0.18469 0.98276 0.63155 -0.44500
O 	O 	0.18524 0.05730 0.64041 -0.38200
O 	O 	0.84724 0.02397 0.62772 -0.39700
O 	O 	0.89043 0.03751 0.57242 -0.37000
O 	O 	0.98836 0.04034 0.76537 -0.36400
O 	O 	0.01643 0.97917 0.77131 -0.41100
O 	O 	0.98524 0.84200 0.57318 -0.41100
O 	O 	0.92840 0.83416 0.61333 -0.40100
O 	O 	0.05230 0.95198 0.61850 -0.77200
C 	C 	0.81416 0.89175 0.69220 0.29100
O 	O 	0.85663 0.93218 0.72234 -0.41300
O 	O 	0.83615 0.88990 0.66338 -0.39700
O 	O 	0.07566 0.85202 0.67363 -0.40400
O 	O 	0.10364 0.90947 0.72324 -0.40300
O 	O 	0.08471 0.97797 0.53187 -0.41200
O 	O 	0.98434 0.96351 0.51262 -0.38300
C 	C 	0.07867 0.02286 0.92497 -0.00700
C 	C 	0.02067 0.97753 0.94520 -0.12800
C 	C 	0.95884 0.93140 0.91759 0.08200
C 	C 	0.95577 0.93356 0.86962 -0.03500
C 	C 	0.01334 0.98035 0.84888 -0.12600
C 	C 	0.07598 0.02292 0.87816 0.10600
C 	C 	0.13950 0.07132 0.85828 -0.20600
H 	H 	0.12644 0.05764 0.94612 0.04400
H 	H 	0.90752 0.90091 0.84722 0.04000
C 	C 	0.89575 0.88068 0.93824 -0.19900
H 	H 	0.18582 0.09022 0.88930 0.07200
H 	H 	0.13922 0.11331 0.82914 0.07900
H 	H 	0.14255 0.04764 0.84102 0.08700
H 	H 	0.87888 0.90498 0.94014 0.07400
H 	H 	0.90586 0.85173 0.97666 0.07700
H 	H 	0.85332 0.84576 0.91375 0.06500
C 	C 	0.95345 0.92674 0.37191 -0.03100
C 	C 	0.00875 0.97684 0.34864 -0.13600
C 	C 	0.07037 0.02352 0.37553 0.11100
C 	C 	0.07387 0.02294 0.42289 -0.00400
C 	C 	0.01779 0.97432 0.44547 -0.13200
C 	C 	0.95716 0.92518 0.41987 0.08500
C 	C 	0.89612 0.87142 0.44294 -0.20300
H 	H 	0.90601 0.89095 0.35136 0.04000
H 	H 	0.12075 0.06018 0.44249 0.04500
C 	C 	0.13115 0.07712 0.35221 -0.20700
H 	H 	0.85320 0.83680 0.41831 0.06700
H 	H 	0.87832 0.89267 0.44809 0.07800
H 	H 	0.90923 0.84282 0.48013 0.08200
H 	H 	0.12434 0.11554 0.32331 0.07900
H 	H 	0.13737 0.05712 0.33381 0.08600
H 	H 	0.17865 0.09998 0.38145 0.07300
C 	C 	0.13764 0.41688 0.70545 -0.04600
C 	C 	0.16070 0.37828 0.74078 0.00700
C 	C 	0.20613 0.39495 0.78701 -0.04600
C 	C 	0.23226 0.45224 0.79604 -0.02000
C 	C 	0.21505 0.49457 0.75835 -0.02200
C 	C 	0.16485 0.47491 0.71421 -0.02100
C 	C 	0.13952 0.32202 0.72863 0.02200
H 	H 	0.22354 0.36511 0.81497 0.04100
H 	H 	0.27027 0.46651 0.83061 0.03700
H 	H 	0.15047 0.50677 0.68510 0.03700
H 	H 	0.10066 0.40326 0.67043 0.04000
C 	C 	0.11414 0.26069 0.76356 -0.06200
C 	C 	0.09358 0.20746 0.75201 0.00400
C 	C 	0.09664 0.21443 0.70496 -0.08200
C 	C 	0.12416 0.27617 0.67070 0.01300
C 	C 	0.14611 0.32993 0.68265 -0.06400
H 	H 	0.10898 0.25391 0.79921 0.04500
H 	H 	0.07197 0.15996 0.77859 0.03300
H 	H 	0.12624 0.28201 0.63408 0.02900
H 	H 	0.16721 0.37740 0.65589 0.04600
C 	C 	0.62833 0.80112 0.67188 -0.06600
C 	C 	0.62296 0.77522 0.72267 0.02300
C 	C 	0.67691 0.77541 0.76193 -0.06800
C 	C 	0.73712 0.80525 0.75080 0.01600
C 	C 	0.74537 0.83799 0.70064 -0.08900
C 	C 	0.68945 0.83254 0.66094 0.01000
C 	C 	0.56148 0.74882 0.73495 0.00500
H 	H 	0.67324 0.75482 0.80123 0.04300
H 	H 	0.77952 0.80786 0.78169 0.03100
H 	H 	0.69483 0.85675 0.62197 0.02300
H 	H 	0.58610 0.79893 0.64107 0.04300
C 	C 	0.53558 0.78538 0.71361 -0.04700
C 	C 	0.47630 0.75925 0.72425 -0.02400
C 	C 	0.44315 0.69689 0.75691 -0.02200
C 	C 	0.47201 0.66271 0.78101 -0.02100
C 	C 	0.52978 0.68774 0.76924 -0.04600
H 	H 	0.56071 0.83348 0.68826 0.03500
H 	H 	0.45477 0.78629 0.70553 0.03600
H 	H 	0.44755 0.61501 0.80700 0.03900
H 	H 	0.54926 0.65912 0.78613 0.04000
C 	C 	0.24781 0.85451 0.76720 -0.06700
C 	C 	0.20863 0.78585 0.78307 0.02200
C 	C 	0.14531 0.75109 0.79247 -0.06800
C 	C 	0.11716 0.78352 0.77847 0.01700
C 	C 	0.15179 0.85064 0.75445 -0.09400
C 	C 	0.21984 0.88687 0.75392 0.00800
C 	C 	0.22828 0.75029 0.78127 0.00400
H 	H 	0.11574 0.69837 0.80692 0.04400
H 	H 	0.06544 0.75520 0.78095 0.02700
H 	H 	0.24824 0.93921 0.73738 0.02200
H 	H 	0.29773 0.88234 0.76139 0.03900
C 	C 	0.18433 0.70644 0.74980 -0.04600
C 	C 	0.20419 0.67593 0.74528 -0.02400
C 	C 	0.26849 0.68924 0.77182 -0.02000
C 	C 	0.31245 0.73292 0.80348 -0.02400
C 	C 	0.29235 0.76314 0.80829 -0.04700
H 	H 	0.13522 0.69686 0.72812 0.03800
H 	H 	0.16996 0.64275 0.72047 0.03900
H 	H 	0.36193 0.74315 0.82459 0.03700
H 	H 	0.32667 0.79674 0.83276 0.03600
C 	C 	0.15471 0.29776 0.23317 -0.05900
C 	C 	0.12135 0.32803 0.20438 0.01900
C 	C 	0.06523 0.30316 0.16406 -0.05600
C 	C 	0.04195 0.24824 0.15323 -0.01000
C 	C 	0.07208 0.21507 0.18416 -0.07200
C 	C 	0.12982 0.24118 0.22336 0.00600
C 	C 	0.14618 0.38693 0.21535 0.00900
H 	H 	0.03891 0.32580 0.14153 0.04000
H 	H 	0.99830 0.22959 0.12216 0.04800
H 	H 	0.15399 0.21657 0.24731 0.03300
H 	H 	0.19929 0.31748 0.26347 0.04500
C 	C 	0.16101 0.38805 0.26541 -0.04600
C 	C 	0.18909 0.44547 0.27584 -0.02100
C 	C 	0.20165 0.50183 0.23629 -0.02100
C 	C 	0.18074 0.49854 0.18590 -0.01900
C 	C 	0.15466 0.44207 0.17554 -0.04600
H 	H 	0.15250 0.34516 0.29632 0.04100
H 	H 	0.20471 0.44725 0.31490 0.03800
H 	H 	0.18995 0.54167 0.15504 0.03800
H 	H 	0.14321 0.44200 0.13673 0.04100
C 	C 	0.62509 0.81605 0.15328 -0.06800
C 	C 	0.60688 0.77867 0.20035 0.02400
C 	C 	0.64925 0.76254 0.24176 -0.06800
C 	C 	0.71204 0.78861 0.23742 0.01700
C 	C 	0.73281 0.83066 0.19159 -0.09300
C 	C 	0.68738 0.84107 0.14877 0.01200
C 	C 	0.54423 0.75753 0.20658 0.00500
H 	H 	0.63460 0.73170 0.27776 0.04600
H 	H 	0.74634 0.77949 0.27057 0.03000
H 	H 	0.70261 0.87293 0.11304 0.02300
H 	H 	0.59229 0.82787 0.12076 0.04100
C 	C 	0.54674 0.77102 0.24602 -0.04700
C 	C 	0.48663 0.74547 0.25487 -0.02300
C 	C 	0.42374 0.70673 0.22415 -0.02200
C 	C 	0.42177 0.69744 0.18249 -0.02100
C 	C 	0.48158 0.72209 0.17408 -0.04600
H 	H 	0.59503 0.79983 0.27054 0.03700
H 	H 	0.48884 0.75335 0.28691 0.03700
H 	H 	0.37349 0.66852 0.15798 0.03900
H 	H 	0.47901 0.71195 0.14323 0.04100
C 	C 	0.21523 0.69449 0.31217 -0.04600
C 	C 	0.22437 0.75274 0.27729 0.00400
C 	C 	0.25267 0.78009 0.23629 -0.04600
C 	C 	0.27139 0.74964 0.23017 -0.02400
C 	C 	0.26115 0.69091 0.26445 -0.02000
C 	C 	0.23304 0.66347 0.30553 -0.02300
C 	C 	0.19942 0.78242 0.28114 0.02300
H 	H 	0.25895 0.82428 0.20858 0.03600
H 	H 	0.29283 0.77119 0.19825 0.03700
H 	H 	0.22548 0.61848 0.33252 0.03900
H 	H 	0.19386 0.67298 0.34411 0.03900
C 	C 	0.13142 0.74463 0.28267 -0.06700
C 	C 	0.10247 0.77541 0.27119 0.01700
C 	C 	0.14020 0.84407 0.25544 -0.09200
C 	C 	0.21071 0.88107 0.26284 0.00900
C 	C 	0.24026 0.85042 0.27530 -0.06700
H 	H 	0.09965 0.69193 0.28886 0.04400
H 	H 	0.04853 0.74600 0.26808 0.02800
H 	H 	0.24123 0.93407 0.25303 0.02200
H 	H 	0.29370 0.88000 0.27665 0.04000
C 	C 	0.88459 0.20851 0.53802 -0.06100
C 	C 	0.81617 0.18492 0.52143 0.02500
C 	C 	0.76616 0.12284 0.51082 -0.06200
C 	C 	0.78322 0.08117 0.52406 0.02000
C 	C 	0.85036 0.10145 0.54771 -0.08500
C 	C 	0.90167 0.16713 0.55033 0.01300
C 	C 	0.79601 0.21927 0.52424 0.00900
H 	H 	0.71342 0.10500 0.49605 0.05200
H 	H 	0.74332 0.03115 0.52039 0.03800
H 	H 	0.95413 0.18423 0.56664 0.04100
H 	H 	0.92400 0.25705 0.54493 0.04900
C 	C 	0.75368 0.18747 0.55645 -0.04400
C 	C 	0.73424 0.21929 0.55939 -0.01900
C 	C 	0.75734 0.28356 0.53053 -0.01900
C 	C 	0.80121 0.31622 0.49932 -0.02000
C 	C 	0.82035 0.28411 0.49606 -0.04400
H 	H 	0.73579 0.13799 0.57922 0.04600
H 	H 	0.70080 0.19381 0.58389 0.04200
H 	H 	0.81919 0.36578 0.47675 0.04100
H 	H 	0.85344 0.30935 0.47136 0.04300
C 	C 	0.90044 0.64305 0.64111 -0.06400
C 	C 	0.85181 0.61819 0.59828 0.02600
C 	C 	0.81874 0.64758 0.56261 -0.06600
C 	C 	0.83981 0.70564 0.56663 0.01700
C 	C 	0.89432 0.73489 0.60608 -0.09200
C 	C 	0.92083 0.70067 0.64535 0.01400
C 	C 	0.83860 0.56422 0.58907 0.00700
H 	H 	0.77911 0.62729 0.53045 0.04700
H 	H 	0.81786 0.73083 0.53665 0.02400
H 	H 	0.96171 0.72188 0.67679 0.03800
H 	H 	0.92499 0.61977 0.66969 0.04700
C 	C 	0.84552 0.57222 0.54323 -0.04400
C 	C 	0.82403 0.51857 0.53147 -0.02100
C 	C 	0.79563 0.45667 0.56543 -0.02000
C 	C 	0.79541 0.45041 0.61340 -0.01900
C 	C 	0.81617 0.50377 0.62499 -0.04400
H 	H 	0.86499 0.61930 0.51591 0.04100
H 	H 	0.82513 0.52417 0.49455 0.03900
H 	H 	0.77428 0.40293 0.64017 0.04100
H 	H 	0.81193 0.49732 0.66092 0.04200
C 	C 	0.39162 0.15336 0.61991 -0.06800
C 	C 	0.38538 0.16824 0.56778 0.03000
C 	C 	0.32245 0.15094 0.53364 -0.06600
C 	C 	0.26529 0.11521 0.55187 0.02200
C 	C 	0.27061 0.09625 0.60432 -0.10100
C 	C 	0.33436 0.11737 0.63811 0.03000
C 	C 	0.44391 0.19908 0.54941 0.00700
H 	H 	0.31734 0.16305 0.49325 0.04700
H 	H 	0.21625 0.09939 0.52547 0.03500
H 	H 	0.33893 0.10297 0.67869 0.03300
H 	H 	0.44037 0.16779 0.64645 0.05100
C 	C 	0.47253 0.26206 0.51698 -0.04400
C 	C 	0.53340 0.29481 0.50519 -0.01900
C 	C 	0.56648 0.26507 0.52620 -0.02000
C 	C 	0.53480 0.19998 0.55517 -0.01900
C 	C 	0.47378 0.16715 0.56679 -0.04300
H 	H 	0.44908 0.28659 0.50256 0.04200
H 	H 	0.55665 0.34455 0.48186 0.04100
H 	H 	0.55939 0.17620 0.57119 0.04300
H 	H 	0.45104 0.11783 0.59084 0.04700
C 	C 	0.83050 0.25082 0.06235 -0.04400
C 	C 	0.79511 0.22016 0.02238 0.01700
C 	C 	0.74484 0.22702 0.98357 -0.05300
C 	C 	0.72694 0.26028 0.98650 -0.02900
C 	C 	0.75951 0.28754 0.02806 -0.00900
C 	C 	0.81291 0.28451 0.06509 -0.02200
C 	C 	0.80445 0.17414 0.02476 0.02400
H 	H 	0.71794 0.20453 0.95212 0.04400
H 	H 	0.68648 0.26331 0.95719 0.04200
H 	H 	0.83868 0.30559 0.09721 0.04400
H 	H 	0.86956 0.24611 0.09246 0.04300
C 	C 	0.86941 0.19474 0.03019 -0.06200
C 	C 	0.88047 0.14848 0.04321 0.01600
C 	C 	0.82695 0.08136 0.05171 -0.08500
C 	C 	0.76082 0.06168 0.04057 0.01900
C 	C 	0.74963 0.10776 0.02743 -0.06000
H 	H 	0.91188 0.24605 0.02693 0.04900
H 	H 	0.93161 0.16445 0.05081 0.04000
H 	H 	0.71886 0.01008 0.04612 0.04100
H 	H 	0.69903 0.09131 0.02241 0.05300
C 	C 	0.89774 0.64328 0.14346 -0.06400
C 	C 	0.85267 0.61788 0.10034 0.02600
C 	C 	0.82183 0.64800 0.06085 -0.06500
C 	C 	0.84147 0.70682 0.06203 0.01800
C 	C 	0.89223 0.73608 0.10252 -0.09100
C 	C 	0.91668 0.70171 0.14481 0.01500
C 	C 	0.84013 0.56173 0.09538 0.00700
H 	H 	0.78491 0.62740 0.02826 0.04800
H 	H 	0.82124 0.73225 0.02957 0.02500
H 	H 	0.95473 0.72305 0.17688 0.03800
H 	H 	0.92052 0.61955 0.17481 0.04800
C 	C 	0.85117 0.56700 0.05277 -0.04400
C 	C 	0.82944 0.51128 0.04404 -0.02000
C 	C 	0.79651 0.45001 0.07779 -0.01900
C 	C 	0.79231 0.44625 0.12310 -0.01900
C 	C 	0.81340 0.50172 0.13164 -0.04400
H 	H 	0.87391 0.61363 0.02536 0.04300
H 	H 	0.83378 0.51498 0.00926 0.04200
H 	H 	0.76795 0.39931 0.14986 0.04100
H 	H 	0.80598 0.49732 0.16521 0.04300
C 	C 	0.47306 0.25654 0.02378 -0.05000
C 	C 	0.44350 0.19357 0.05617 0.01300
C 	C 	0.47302 0.16103 0.07452 -0.04600
C 	C 	0.53469 0.19339 0.06409 -0.01500
C 	C 	0.56728 0.25852 0.03536 -0.02500
C 	C 	0.53449 0.28874 0.01317 -0.00400
C 	C 	0.38454 0.16357 0.07365 0.02300
H 	H 	0.44957 0.11168 0.09849 0.04900
H 	H 	0.55911 0.16929 0.08098 0.04400
H 	H 	0.55859 0.33860 0.99009 0.02900
H 	H 	0.44998 0.28159 0.00861 0.04600
C 	C 	0.38926 0.14710 0.12572 -0.06400
C 	C 	0.33169 0.11298 0.14280 0.02700
C 	C 	0.26912 0.09538 0.10797 -0.09800
C 	C 	0.26560 0.11616 0.05567 0.01700
C 	C 	0.32302 0.14986 0.03856 -0.05100
H 	H 	0.43701 0.15896 0.15303 0.05100
H 	H 	0.33490 0.09717 0.18327 0.03400
H 	H 	0.21752 0.10303 0.02847 0.03900
H 	H 	0.31910 0.16328 0.99822 0.03600
