data_crystal

_cell_length_a 25.73152
_cell_length_b 26.53559
_cell_length_c 26.43427
_cell_angle_alpha 95.48882
_cell_angle_beta  95.48835
_cell_angle_gamma 125.82432

_symmetry_space_group_name_	'P 1'
_symmetry_space_group_name_H-M	'P 1'

loop_
_symmetry_equiv_pos_as_xyz
  x,y,z

loop_
_atom_site_label
_atom_site_type_symbol
_atom_site_fract_x
_atom_site_fract_y
_atom_site_fract_z
_atom_site_charge
N 	N 	0.03374 0.05402 0.00900 -0.11400
C 	C 	0.06031 0.02247 0.00515 0.17600
N 	N 	0.02100 0.95832 0.99350 -0.10200
N 	N 	0.00139 0.03975 0.45328 -0.11600
C 	C 	0.03196 0.01266 0.46138 0.19300
Br	Br	0.07741 0.02770 0.35462 -0.10100
C 	C 	0.10326 0.05071 0.46686 -0.05300
Br	Br	0.10339 0.05953 0.57708 -0.11200
C 	C 	0.96788 0.02125 0.00107 0.17000
C 	C 	0.95530 0.92568 0.98621 0.19100
N 	N 	0.92877 0.95712 0.98995 -0.10400
C 	C 	0.93525 0.00386 0.44483 0.18100
N 	N 	0.99641 0.94971 0.46146 -0.12100
C 	C 	0.93026 0.91360 0.45295 0.19300
N 	N 	0.89957 0.94062 0.44429 -0.11300
Cu	Cu	0.66247 0.26604 0.00571 0.92600
Cu	Cu	0.66897 0.21925 0.88934 0.89500
Cu	Cu	0.65275 0.33124 0.92044 0.92000
Cu	Cu	0.64934 0.37815 0.02890 0.90500
C 	C 	0.68527 0.32631 0.10890 0.29000
O 	O 	0.57159 0.21934 0.02234 -0.34500
C 	C 	0.65806 0.29165 0.82082 0.28800
O 	O 	0.69403 0.35589 0.99164 -0.62700
O 	O 	0.62732 0.24640 0.93060 -0.62300
O 	O 	0.72212 0.24087 0.00555 -0.36500
O 	O 	0.66608 0.16525 0.93238 -0.38800
O 	O 	0.68327 0.37277 0.09780 -0.34700
O 	O 	0.68459 0.41544 0.91170 -0.35300
C 	C 	0.69090 0.45712 0.94816 0.33200
C 	C 	0.53440 0.23711 0.01117 0.31000
O 	O 	0.55726 0.28875 0.99218 -0.34600
O 	O 	0.65676 0.43896 0.98556 -0.34500
O 	O 	0.70275 0.29990 0.07689 -0.34400
C 	C 	0.70757 0.18967 0.97634 0.36000
O 	O 	0.62555 0.30522 0.84666 -0.35600
O 	O 	0.69785 0.28258 0.84579 -0.39700
H 	H 	0.74186 0.38880 0.99770 0.19500
H 	H 	0.57934 0.21439 0.92235 0.18800
Cu	Cu	0.74400 0.35060 0.43054 0.93600
Cu	Cu	0.75918 0.30907 0.54076 0.88700
Cu	Cu	0.64858 0.31344 0.50428 0.90600
Cu	Cu	0.60974 0.32783 0.40078 0.91300
C 	C 	0.68530 0.32294 0.32409 0.29200
O 	O 	0.76698 0.43789 0.42825 -0.33300
C 	C 	0.69572 0.32910 0.61375 0.28300
O 	O 	0.64358 0.28944 0.43205 -0.63800
O 	O 	0.74418 0.36163 0.50541 -0.63500
O 	O 	0.80150 0.32317 0.43148 -0.33700
O 	O 	0.74517 0.25195 0.48270 -0.40900
O 	O 	0.65328 0.34452 0.33940 -0.34800
O 	O 	0.55527 0.26085 0.50153 -0.36300
C 	C 	0.51161 0.25796 0.46811 0.34100
C 	C 	0.73440 0.45606 0.44876 0.32400
O 	O 	0.67630 0.41352 0.45842 -0.36700
O 	O 	0.52404 0.27757 0.42360 -0.35300
O 	O 	0.72859 0.32516 0.35727 -0.33900
C 	C 	0.78458 0.27202 0.44935 0.33400
O 	O 	0.65766 0.33250 0.57932 -0.35300
O 	O 	0.75158 0.34243 0.60468 -0.38600
H 	H 	0.61909 0.24341 0.41950 0.19400
H 	H 	0.76989 0.40597 0.52399 0.20200
C 	C 	0.66453 0.30454 0.76814 -0.06400
C 	C 	0.61641 0.25840 0.72627 -0.01400
C 	C 	0.62476 0.26708 0.67547 0.03800
C 	C 	0.68195 0.32268 0.66641 -0.06100
C 	C 	0.72853 0.37017 0.70840 -0.01100
C 	C 	0.71992 0.36160 0.75915 0.04300
S 	S 	0.56461 0.20690 0.62363 -0.00400
S 	S 	0.77831 0.42289 0.81107 0.02200
H 	H 	0.76036 0.46117 0.82423 0.06900
H 	H 	0.52080 0.21855 0.60815 0.07200
H 	H 	0.57321 0.21501 0.73320 0.05600
H 	H 	0.77186 0.41351 0.70154 0.06900
C 	C 	0.68760 0.31789 0.16287 -0.05300
C 	C 	0.62937 0.27439 0.17932 -0.01100
C 	C 	0.62874 0.27233 0.23197 0.04500
C 	C 	0.68697 0.31436 0.26864 -0.05400
C 	C 	0.74603 0.35441 0.25173 -0.00800
C 	C 	0.74660 0.35659 0.19910 0.04400
S 	S 	0.55506 0.21647 0.25147 0.00700
S 	S 	0.82117 0.40893 0.17919 0.02600
H 	H 	0.84782 0.37823 0.16740 0.06500
H 	H 	0.54965 0.16218 0.25329 0.06400
H 	H 	0.58426 0.24320 0.15125 0.06800
H 	H 	0.79112 0.38599 0.27975 0.07200
C 	C 	0.75815 0.52250 0.45256 -0.11200
C 	C 	0.72040 0.53697 0.42441 0.13100
C 	C 	0.74380 0.60035 0.42722 0.06600
C 	C 	0.80713 0.64963 0.45434 0.02300
C 	C 	0.84525 0.63535 0.48186 0.06600
C 	C 	0.81994 0.57187 0.48234 0.12800
C 	C 	0.83457 0.71642 0.45228 0.01300
C 	C 	0.86341 0.74301 0.41012 0.07900
C 	C 	0.89027 0.80658 0.40855 0.10300
C 	C 	0.89203 0.84477 0.45057 -0.05200
C 	C 	0.86251 0.81803 0.49245 0.10400
C 	C 	0.83225 0.75346 0.49261 0.07900
Br	Br	0.93262 0.70281 0.51799 -0.11700
Br	Br	0.63917 0.47059 0.37877 -0.17800
Br	Br	0.92360 0.84126 0.34845 -0.10800
Br	Br	0.78772 0.71561 0.54800 -0.11100
Br	Br	0.86893 0.55261 0.52511 -0.17300
Br	Br	0.68927 0.61992 0.39380 -0.11000
Br	Br	0.86751 0.69269 0.35524 -0.12300
Br	Br	0.86628 0.87051 0.55063 -0.10300
C 	C 	0.80732 0.23531 0.43048 -0.11800
C 	C 	0.87302 0.25938 0.44582 0.12300
C 	C 	0.89116 0.21868 0.43968 0.06500
C 	C 	0.84325 0.15362 0.41992 0.02300
C 	C 	0.77881 0.13084 0.40036 0.06400
C 	C 	0.76143 0.17224 0.40430 0.13000
C 	C 	0.85936 0.10867 0.42408 0.01100
C 	C 	0.87866 0.09021 0.38242 0.08000
C 	C 	0.89857 0.05134 0.38799 0.10200
C 	C 	0.90248 0.03367 0.43599 -0.05000
C 	C 	0.88126 0.05046 0.47710 0.10200
C 	C 	0.85824 0.08666 0.47072 0.07900
Br	Br	0.71389 0.04248 0.37057 -0.11900
Br	Br	0.93731 0.34715 0.47773 -0.16100
Br	Br	0.91983 0.02159 0.32986 -0.11000
Br	Br	0.82592 0.10693 0.52601 -0.13800
Br	Br	0.67508 0.14310 0.37351 -0.17200
Br	Br	0.98112 0.25136 0.45979 -0.12000
Br	Br	0.87971 0.11986 0.31842 -0.11100
Br	Br	0.88676 0.02649 0.54289 -0.11600
C 	C 	0.14279 0.07456 0.51639 0.10400
C 	C 	0.21095 0.10957 0.52152 0.08000
C 	C 	0.23962 0.12166 0.47711 0.01300
C 	C 	0.20006 0.09863 0.42761 0.07800
C 	C 	0.13188 0.06248 0.42248 0.10400
C 	C 	0.31125 0.15769 0.48224 0.02300
C 	C 	0.35094 0.22399 0.48691 0.06600
C 	C 	0.41765 0.25730 0.48508 0.12600
C 	C 	0.44436 0.22422 0.47738 -0.11500
C 	C 	0.40537 0.15826 0.47527 0.12700
C 	C 	0.33907 0.12520 0.47853 0.06400
Br	Br	0.23955 0.11677 0.36693 -0.11500
Br	Br	0.47279 0.34835 0.49356 -0.14300
Br	Br	0.28574 0.03517 0.47679 -0.12200
Br	Br	0.26515 0.14063 0.58920 -0.12100
Br	Br	0.31335 0.26873 0.49440 -0.11000
Br	Br	0.44191 0.11279 0.46527 -0.16700
C 	C 	0.72704 0.52331 0.94174 -0.11500
C 	C 	0.69361 0.54941 0.93134 0.12900
C 	C 	0.72894 0.61498 0.93363 0.06800
C 	C 	0.79765 0.65403 0.94482 0.02000
C 	C 	0.83092 0.62701 0.95024 0.06700
C 	C 	0.79563 0.56169 0.94907 0.12300
C 	C 	0.83478 0.72357 0.95481 0.02800
C 	C 	0.85628 0.75707 0.91397 0.07800
C 	C 	0.89527 0.82352 0.92421 0.10300
C 	C 	0.91300 0.85638 0.97526 -0.03600
C 	C 	0.89048 0.82289 0.01591 0.09000
C 	C 	0.85103 0.75647 0.00566 0.06400
Br	Br	0.92496 0.68004 0.96075 -0.11500
Br	Br	0.59969 0.49505 0.91243 -0.12600
Br	Br	0.92446 0.86979 0.86845 -0.10500
Br	Br	0.81954 0.71027 0.06120 -0.12900
Br	Br	0.84123 0.52503 0.95947 -0.18500
Br	Br	0.68355 0.65176 0.92296 -0.10400
Br	Br	0.83278 0.71174 0.84424 -0.11600
Br	Br	0.91469 0.86832 0.08576 -0.10800
C 	C 	0.93868 0.05498 0.00083 -0.06200
C 	C 	0.93359 0.08012 0.04786 0.09900
C 	C 	0.89834 0.10531 0.04752 0.08900
C 	C 	0.86660 0.10360 0.00017 -0.03100
C 	C 	0.87280 0.07953 0.95313 0.10100
C 	C 	0.91015 0.05668 0.95349 0.11200
C 	C 	0.82737 0.12779 0.99967 0.07300
C 	C 	0.76082 0.08724 0.00290 0.01800
C 	C 	0.72208 0.10849 0.99735 0.16900
C 	C 	0.74925 0.16935 0.98657 -0.13800
C 	C 	0.81600 0.21004 0.98372 0.14100
C 	C 	0.85543 0.19000 0.99217 0.04900
Br	Br	0.82890 0.07674 0.88833 -0.12900
Br	Br	0.97324 0.07815 0.11266 -0.11300
Br	Br	0.63211 0.05476 0.00523 -0.16200
Br	Br	0.94785 0.24735 0.99279 -0.10700
Br	Br	0.92305 0.02828 0.88918 -0.11000
Br	Br	0.89313 0.14190 0.11172 -0.12200
Br	Br	0.72261 0.00218 0.01368 -0.11800
Br	Br	0.85231 0.29137 0.96450 -0.18300
C 	C 	0.46732 0.20010 0.02109 -0.13100
C 	C 	0.44943 0.22879 0.05565 0.12600
C 	C 	0.38319 0.19986 0.05649 0.06500
C 	C 	0.33501 0.14011 0.02536 0.01000
C 	C 	0.35340 0.10817 0.99530 0.07700
C 	C 	0.41947 0.13869 0.99225 0.14200
C 	C 	0.26516 0.11267 0.02173 -0.00200
C 	C 	0.23058 0.07770 0.05874 0.08000
C 	C 	0.16437 0.05210 0.05534 0.10300
C 	C 	0.13153 0.05758 0.01295 -0.06500
C 	C 	0.16610 0.09247 0.97587 0.11700
C 	C 	0.23330 0.12156 0.98115 0.09100
Br	Br	0.28776 0.02317 0.95763 -0.11200
Br	Br	0.51589 0.30703 0.10263 -0.20300
Br	Br	0.11899 0.01121 0.10948 -0.11100
Br	Br	0.28196 0.17370 0.93290 -0.11500
Br	Br	0.44399 0.09755 0.94701 -0.16400
Br	Br	0.35817 0.24306 0.09854 -0.12000
Br	Br	0.27366 0.06379 0.11331 -0.12500
Br	Br	0.12069 0.09759 0.91646 -0.10300
