data_crystal

_cell_length_a 17.71784
_cell_length_b 17.34026
_cell_length_c 48.71255
_cell_angle_alpha 90.73106
_cell_angle_beta  91.02486
_cell_angle_gamma 110.79787

_symmetry_space_group_name_	'P 1'
_symmetry_space_group_name_H-M	'P 1'

loop_
_symmetry_equiv_pos_as_xyz
  x,y,z

loop_
_atom_site_label
_atom_site_type_symbol
_atom_site_fract_x
_atom_site_fract_y
_atom_site_fract_z
_atom_site_charge
O 	O 	0.05425 0.87396 0.75802 -0.69300
Ni	Ni	0.08245 0.98430 0.77827 1.10000
O 	O 	0.10641 0.80158 0.70881 -0.40000
Ni	Ni	0.15322 0.85629 0.74672 1.07200
O 	O 	0.20155 0.96639 0.72752 -0.39900
O 	O 	0.16677 0.97496 0.80550 -0.37200
O 	O 	0.00067 0.99218 0.74949 -0.69100
O 	O 	0.08315 0.08952 0.79888 -0.35600
H 	H 	0.02446 0.82874 0.77022 0.16100
H 	H 	0.02294 0.04186 0.73817 0.16800
C 	C 	0.22559 0.03809 0.74048 0.27900
C 	C 	0.03044 0.75399 0.70503 0.29300
C 	C 	0.23015 0.95996 0.79704 0.29100
C 	C 	0.01516 0.09883 0.80559 0.28700
O 	O 	0.17400 0.06084 0.75475 -0.37600
O 	O 	0.22139 0.89282 0.78222 -0.39800
Ni	Ni	0.38296 0.75542 0.40771 1.10400
O 	O 	0.35794 0.66884 0.37690 -0.70200
Ni	Ni	0.24729 0.66397 0.36475 1.10200
O 	O 	0.46669 0.71617 0.42657 -0.37200
O 	O 	0.38067 0.58218 0.42787 -0.41100
O 	O 	0.47503 0.83722 0.38591 -0.35900
Ni	Ni	0.35388 0.55806 0.38595 1.07300
O 	O 	0.39076 0.93642 0.40298 -0.40600
O 	O 	0.23568 0.50121 0.39623 -0.39700
O 	O 	0.20843 0.55856 0.34054 -0.36600
O 	O 	0.28235 0.76361 0.39110 -0.70400
O 	O 	0.40203 0.84740 0.43606 -0.36200
O 	O 	0.14800 0.68929 0.35195 -0.35600
O 	O 	0.22660 0.82072 0.34098 -0.40700
Ni	Ni	0.30956 0.86932 0.37331 1.06900
H 	H 	0.39521 0.68914 0.36155 0.16300
H 	H 	0.24226 0.75874 0.40550 0.17100
C 	C 	0.19628 0.54125 0.40907 0.32000
O 	O 	0.39711 0.85284 0.35006 -0.41400
C 	C 	0.44391 0.64336 0.43793 0.30100
C 	C 	0.24865 0.50847 0.33556 0.29000
C 	C 	0.46808 0.86068 0.36069 0.28900
C 	C 	0.15469 0.76398 0.34449 0.27500
C 	C 	0.38903 0.91517 0.42910 0.30200
O 	O 	0.18207 0.60207 0.39710 -0.37200
O 	O 	0.32190 0.52213 0.34617 -0.40800
Ni	Ni	0.37084 0.67342 0.13482 1.09900
O 	O 	0.27193 0.63552 0.10890 -0.70400
Ni	Ni	0.20634 0.69723 0.12473 1.10200
O 	O 	0.42361 0.60289 0.11410 -0.36300
O 	O 	0.31137 0.48807 0.11742 -0.39700
O 	O 	0.42311 0.76839 0.10807 -0.36600
Ni	Ni	0.20894 0.51779 0.11055 1.07100
O 	O 	0.47507 0.84843 0.15366 -0.40200
O 	O 	0.19377 0.52376 0.15190 -0.40200
O 	O 	0.11862 0.66196 0.09473 -0.35600
O 	O 	0.29833 0.72306 0.15403 -0.69700
O 	O 	0.46979 0.71715 0.16055 -0.37200
O 	O 	0.15719 0.78464 0.13572 -0.34900
O 	O 	0.25334 0.85959 0.16700 -0.40400
Ni	Ni	0.35861 0.84170 0.15699 1.07200
H 	H 	0.28547 0.65180 0.08970 0.15600
H 	H 	0.28106 0.69794 0.17207 0.17100
C 	C 	0.13924 0.55116 0.16164 0.28100
O 	O 	0.34592 0.84833 0.11558 -0.41800
C 	C 	0.37909 0.52858 0.10515 0.31200
C 	C 	0.08977 0.58427 0.08609 0.29600
C 	C 	0.38720 0.81859 0.09882 0.29000
C 	C 	0.19565 0.85455 0.14912 0.28700
C 	C 	0.50333 0.79669 0.16575 0.28500
O 	O 	0.12708 0.61461 0.15041 -0.35600
O 	O 	0.09889 0.52553 0.10139 -0.40200
O 	O 	0.07640 0.22526 0.23901 -0.36400
O 	O 	0.12928 0.10606 0.21974 -0.39800
O 	O 	0.02860 0.11703 0.19179 -0.35400
O 	O 	0.04501 0.99157 0.29214 -0.39100
Ni	Ni	0.07808 0.04895 0.25480 1.07100
O 	O 	0.10096 0.15692 0.27592 -0.40900
C 	C 	0.10653 0.22588 0.26396 0.28900
C 	C 	0.08975 0.09193 0.19583 0.28900
C 	C 	0.07855 0.49880 0.18040 -0.03800
C 	C 	0.99702 0.46718 0.17181 -0.03400
C 	C 	0.94169 0.40123 0.18559 0.02300
C 	C 	0.96793 0.36700 0.20830 -0.08700
C 	C 	0.04651 0.40636 0.21910 0.01400
C 	C 	0.10227 0.47138 0.20509 -0.00500
H 	H 	0.97777 0.49041 0.15341 0.06100
C 	C 	0.18371 0.50902 0.21602 0.08600
C 	C 	0.85915 0.36638 0.17548 0.08500
N 	N 	0.24894 0.53920 0.22479 -0.11500
N 	N 	0.79301 0.33844 0.16737 -0.10600
C 	C 	0.15679 0.91658 0.15138 -0.04900
C 	C 	0.20559 0.00030 0.15023 -0.02800
C 	C 	0.18110 0.06055 0.16262 0.01800
C 	C 	0.10599 0.03711 0.17548 -0.09100
C 	C 	0.05211 0.95550 0.17274 0.01700
C 	C 	0.07728 0.89477 0.16105 -0.01200
H 	H 	0.26527 0.01773 0.14161 0.04100
H 	H 	0.99278 0.93814 0.18163 0.01400
C 	C 	0.02292 0.80985 0.16062 0.12000
C 	C 	0.23432 0.14586 0.16282 0.08300
N 	N 	0.97934 0.74184 0.16029 -0.11500
N 	N 	0.27695 0.21422 0.16298 -0.09800
C 	C 	0.13939 0.30370 0.27988 -0.07500
C 	C 	0.09761 0.31479 0.30284 -0.00900
C 	C 	0.13232 0.38182 0.32089 0.00100
C 	C 	0.21145 0.43740 0.31664 -0.06200
C 	C 	0.25307 0.42724 0.29341 -0.01300
C 	C 	0.21697 0.36122 0.27482 0.00800
H 	H 	0.03872 0.26980 0.30711 0.02300
H 	H 	0.31301 0.47111 0.28965 0.04900
C 	C 	0.26017 0.35243 0.25083 0.08600
C 	C 	0.08610 0.39305 0.34373 0.08800
N 	N 	0.29471 0.34536 0.23158 -0.10000
N 	N 	0.04867 0.40206 0.36190 -0.10500
C 	C 	0.08330 0.77783 0.33333 -0.06700
C 	C 	0.06442 0.76433 0.30521 -0.00400
C 	C 	0.01510 0.80165 0.29248 0.00300
C 	C 	0.98616 0.85404 0.30796 -0.06800
C 	C 	0.99217 0.85392 0.33670 -0.02400
C 	C 	0.04197 0.81719 0.34948 0.01500
H 	H 	0.09263 0.72984 0.29296 0.04500
C 	C 	0.05408 0.82426 0.37894 0.06200
C 	C 	0.00067 0.79231 0.26314 0.07500
N 	N 	0.06384 0.82993 0.40255 -0.11600
N 	N 	0.98916 0.78495 0.23962 -0.13400
C 	C 	0.32971 0.04743 0.47985 0.11600
C 	C 	0.32674 0.99540 0.45733 -0.03200
C 	C 	0.39529 0.97745 0.45041 -0.11900
C 	C 	0.46857 0.01611 0.46496 0.19600
O 	O 	0.26131 0.06135 0.48735 -0.27200
H 	H 	0.27050 0.96688 0.44581 0.04100
H 	H 	0.26304 0.11162 0.47749 0.14400
H 	H 	0.56381 0.04305 0.44439 0.15400
H 	H 	0.27538 0.98418 0.54307 0.15900
C 	C 	0.06147 0.46058 0.48162 -0.00600
O 	O 	0.03998 0.33492 0.52134 -0.25500
C 	C 	0.04346 0.40946 0.45789 0.13800
C 	C 	0.09150 0.43339 0.43474 -0.03200
C 	C 	0.15583 0.50928 0.43479 -0.12100
C 	C 	0.17627 0.55826 0.45894 0.19500
C 	C 	0.12968 0.53332 0.48232 -0.10600
H 	H 	0.07667 0.39444 0.41642 0.07000
O 	O 	0.23907 0.63267 0.45928 -0.31400
H 	H 	0.14416 0.57270 0.50058 0.07800
H 	H 	0.28623 0.62091 0.46671 0.15100
H 	H 	0.00748 0.28425 0.51086 0.15000
C 	C 	0.51329 0.55867 0.50065 -0.10800
C 	C 	0.50804 0.61400 0.52116 0.00500
C 	C 	0.47090 0.69420 0.48640 -0.03400
C 	C 	0.47293 0.63698 0.46601 -0.11900
C 	C 	0.49481 0.56930 0.47322 0.19400
O 	O 	0.50005 0.51462 0.45339 -0.29700
H 	H 	0.53030 0.50651 0.50608 0.07800
O 	O 	0.39541 0.48401 0.55061 -0.27800
H 	H 	0.44633 0.46978 0.45272 0.14800
H 	H 	0.35606 0.50960 0.55633 0.15100
C 	C 	0.30061 0.10236 0.73136 -0.06200
C 	C 	0.29655 0.17309 0.71863 -0.00800
C 	C 	0.36180 0.22354 0.70351 0.00800
C 	C 	0.43284 0.20453 0.70185 -0.06100
C 	C 	0.44077 0.14142 0.71800 -0.01300
C 	C 	0.37437 0.08819 0.73175 0.00200
H 	H 	0.24083 0.18572 0.71894 0.05200
H 	H 	0.49645 0.12867 0.71761 0.02300
C 	C 	0.38099 0.01598 0.74447 0.06300
C 	C 	0.35367 0.29184 0.68866 0.09600
N 	N 	0.38687 0.95816 0.75449 -0.11800
N 	N 	0.34712 0.34655 0.67675 -0.10100
C 	C 	0.00068 0.48224 0.01831 0.13800
C 	C 	0.04651 0.50209 0.04278 -0.04500
C 	C 	0.03793 0.56122 0.06117 -0.10300
C 	C 	0.98073 0.59854 0.05535 0.17600
O 	O 	0.00917 0.42382 0.00062 -0.27400
H 	H 	0.08986 0.47256 0.04724 0.03900
O 	O 	0.96977 0.65463 0.07349 -0.27500
H 	H 	0.05236 0.45477 0.98801 0.14900
H 	H 	0.92725 0.62156 0.08596 0.15800
C 	C 	0.50172 0.96640 0.99525 0.01000
C 	C 	0.46051 0.94655 0.96969 0.12000
C 	C 	0.46357 0.92450 0.02034 0.00300
O 	O 	0.38757 0.88280 0.96732 -0.27400
C 	C 	0.46190 0.84469 0.02604 0.12700
C 	C 	0.43286 0.80887 0.05114 -0.04000
C 	C 	0.40579 0.85241 0.07088 -0.11600
C 	C 	0.40375 0.93098 0.06446 0.19100
C 	C 	0.43278 0.96647 0.03931 -0.11100
H 	H 	0.43361 0.74809 0.05557 0.06000
O 	O 	0.37763 0.97504 0.08322 -0.28600
H 	H 	0.43309 0.02764 0.03482 0.07700
H 	H 	0.31923 0.96070 0.07894 0.15400
H 	H 	0.34639 0.90799 0.97098 0.15200
C 	C 	0.43148 0.41272 0.04679 -0.11800
C 	C 	0.42088 0.45760 0.02421 0.00700
C 	C 	0.39416 0.52404 0.02826 0.12200
C 	C 	0.37950 0.54602 0.05477 -0.03700
C 	C 	0.39190 0.50252 0.07743 -0.14300
C 	C 	0.41734 0.43520 0.07340 0.20100
O 	O 	0.38046 0.56624 0.00623 -0.27900
H 	H 	0.35849 0.59696 0.05774 0.03000
O 	O 	0.42750 0.39078 0.09536 -0.28600
H 	H 	0.45170 0.36119 0.04375 0.08000
C 	C 	0.38666 0.36924 0.98183 -0.11200
O 	O 	0.35169 0.28303 0.94127 -0.27600
H 	H 	0.33061 0.33150 0.99098 0.07900
H 	H 	0.48477 0.41789 0.10140 0.15900
C 	C 	0.45950 0.10228 0.83425 -0.06400
C 	C 	0.42731 0.01671 0.83795 -0.00500
C 	C 	0.35271 0.96908 0.82576 0.00900
C 	C 	0.30974 0.00749 0.80963 -0.05800
C 	C 	0.34279 0.09278 0.80555 -0.01200
C 	C 	0.41829 0.13984 0.81710 0.00800
H 	H 	0.45895 0.98771 0.85118 0.04300
H 	H 	0.30995 0.12245 0.79315 0.05000
C 	C 	0.45391 0.22609 0.81058 0.06900
C 	C 	0.31911 0.88179 0.83103 0.09100
N 	N 	0.29223 0.81186 0.83525 -0.10900
Ni	Ni	0.59519 0.27131 0.89920 1.10000
O 	O 	0.61808 0.34891 0.86615 -0.69800
Ni	Ni	0.73142 0.35440 0.85795 1.09700
O 	O 	0.49891 0.29726 0.91373 -0.35500
O 	O 	0.51591 0.42295 0.89633 -0.39800
O 	O 	0.51419 0.17661 0.87612 -0.36100
Ni	Ni	0.62525 0.46175 0.87641 1.07200
O 	O 	0.59813 0.09349 0.90174 -0.40600
O 	O 	0.68736 0.45702 0.91162 -0.42000
O 	O 	0.75704 0.44206 0.82835 -0.37500
O 	O 	0.70235 0.26927 0.88827 -0.70900
O 	O 	0.58081 0.19156 0.93050 -0.37000
O 	O 	0.83802 0.33609 0.85088 -0.36200
O 	O 	0.77306 0.19715 0.84510 -0.40300
Ni	Ni	0.68491 0.15751 0.87474 1.06900
H 	H 	0.58089 0.32659 0.85027 0.17000
H 	H 	0.74150 0.28436 0.90395 0.16200
C 	C 	0.75954 0.45151 0.91100 0.29800
O 	O 	0.60149 0.15718 0.84534 -0.41100
C 	C 	0.50257 0.37346 0.91727 0.31400
C 	C 	0.74935 0.51347 0.83342 0.28300
C 	C 	0.52844 0.15267 0.85168 0.28600
C 	C 	0.84039 0.26117 0.84891 0.27400
C 	C 	0.59016 0.12008 0.92679 0.30900
O 	O 	0.79165 0.44263 0.88740 -0.36600
O 	O 	0.72937 0.53008 0.85806 -0.40100
Ni	Ni	0.59238 0.34860 0.64046 1.10300
O 	O 	0.66670 0.37205 0.60715 -0.69800
Ni	Ni	0.74589 0.31913 0.61844 1.10000
O 	O 	0.54805 0.44174 0.63347 -0.36100
O 	O 	0.67383 0.53043 0.62562 -0.40000
O 	O 	0.49882 0.27128 0.61611 -0.36600
Ni	Ni	0.72736 0.48359 0.59569 1.08200
O 	O 	0.48888 0.17693 0.65992 -0.39900
O 	O 	0.83669 0.51485 0.61639 -0.38700
O 	O 	0.83521 0.36424 0.58981 -0.37400
O 	O 	0.66099 0.28127 0.64834 -0.70000
O 	O 	0.51941 0.31243 0.67335 -0.36400
O 	O 	0.80143 0.24130 0.63274 -0.36100
O 	O 	0.68307 0.13081 0.62848 -0.40000
Ni	Ni	0.59170 0.16567 0.64467 1.06800
H 	H 	0.63702 0.34155 0.59070 0.17100
H 	H 	0.68527 0.29383 0.66709 0.15800
C 	C 	0.84917 0.48598 0.64021 0.29500
O 	O 	0.55683 0.17657 0.60545 -0.41400
C 	C 	0.59541 0.51220 0.62361 0.30100
C 	C 	0.82925 0.40592 0.56767 0.31600
C 	C 	0.50579 0.21361 0.59964 0.31900
C 	C 	0.75854 0.16342 0.63743 0.27300
C 	C 	0.48761 0.23274 0.67861 0.27200
O 	O 	0.81107 0.40838 0.64641 -0.38700
O 	O 	0.76953 0.43405 0.56439 -0.39900
Ni	Ni	0.98118 0.88937 0.72669 1.09300
O 	O 	0.97452 0.78694 0.70409 -0.37100
O 	O 	0.87945 0.81004 0.74459 -0.36800
O 	O 	0.82754 0.93490 0.73119 -0.39200
O 	O 	0.90797 0.91345 0.69802 -0.36900
O 	O 	0.94666 0.03652 0.80303 -0.40700
Ni	Ni	0.89703 0.98604 0.76521 1.07600
O 	O 	0.87140 0.87616 0.78424 -0.39600
C 	C 	0.86877 0.80903 0.77111 0.28100
C 	C 	0.85674 0.94797 0.70622 0.28000
Ni	Ni	0.96958 0.13679 0.22500 1.10000
O 	O 	0.91459 0.15050 0.26077 -0.70100
Ni	Ni	0.89771 0.03972 0.27689 1.09600
O 	O 	0.94121 0.22276 0.20333 -0.36800
O 	O 	0.85646 0.26284 0.22969 -0.39000
Ni	Ni	0.80806 0.15719 0.25346 1.07100
O 	O 	0.79436 0.07135 0.22282 -0.41400
O 	O 	0.82384 0.04504 0.30793 -0.39200
O 	O 	0.96721 0.03581 0.24447 -0.71500
O 	O 	0.90745 0.93376 0.29232 -0.36100
H 	H 	0.94782 0.19627 0.27298 0.15400
H 	H 	0.94220 0.98600 0.23265 0.16400
C 	C 	0.77825 0.99266 0.22859 0.26800
C 	C 	0.92368 0.28105 0.21585 0.29600
C 	C 	0.75225 0.04852 0.30239 0.28900
C 	C 	0.97887 0.92674 0.29497 0.25800
O 	O 	0.79852 0.97101 0.25294 -0.36600
O 	O 	0.73432 0.06630 0.27741 -0.40400
H 	H 	0.06573 0.38282 0.23741 0.04100
C 	C 	0.71757 0.92885 0.21139 -0.05900
C 	C 	0.65475 0.86672 0.22417 -0.01200
C 	C 	0.58714 0.81683 0.20882 0.00100
C 	C 	0.58176 0.82934 0.18046 -0.06600
C 	C 	0.64835 0.88498 0.16724 -0.00500
C 	C 	0.71659 0.93418 0.18254 0.00000
H 	H 	0.65648 0.86021 0.24627 0.05600
H 	H 	0.64569 0.89214 0.14519 0.05500
C 	C 	0.78571 0.98872 0.16847 0.08000
C 	C 	0.52167 0.75586 0.22259 0.07100
N 	N 	0.84113 0.03238 0.15723 -0.11200
N 	N 	0.46923 0.70703 0.23361 -0.11400
C 	C 	0.54173 0.90879 0.34612 -0.06800
C 	C 	0.55193 0.98899 0.33781 0.00500
C 	C 	0.62327 0.03772 0.32531 -0.00500
C 	C 	0.68487 0.00562 0.32054 -0.06500
C 	C 	0.67558 0.92623 0.32960 -0.00500
C 	C 	0.60441 0.87767 0.34225 0.00700
H 	H 	0.50477 0.01394 0.34148 0.02800
H 	H 	0.72243 0.90094 0.32579 0.05400
C 	C 	0.59505 0.79489 0.35027 0.08000
C 	C 	0.63343 0.12118 0.31792 0.06700
N 	N 	0.58751 0.72860 0.35670 -0.12300
N 	N 	0.64157 0.18804 0.31199 -0.12700
H 	H 	0.96568 0.89022 0.34886 0.04800
C 	C 	0.44245 0.20613 0.52594 -0.11900
C 	C 	0.40143 0.12094 0.52246 0.01000
C 	C 	0.37631 0.07172 0.54567 0.11800
C 	C 	0.40310 0.10530 0.57183 -0.02500
C 	C 	0.45410 0.18793 0.57493 -0.12800
C 	C 	0.46820 0.23998 0.55220 0.20000
C 	C 	0.40156 0.08138 0.49559 0.00600
O 	O 	0.33280 0.98894 0.54259 -0.26400
H 	H 	0.38934 0.06558 0.58947 0.05500
O 	O 	0.51317 0.32238 0.55526 -0.31800
H 	H 	0.45940 0.24499 0.50816 0.07500
C 	C 	0.47147 0.06783 0.48748 -0.11200
O 	O 	0.53648 0.00048 0.45792 -0.27600
H 	H 	0.52722 0.09463 0.49939 0.08000
H 	H 	0.47332 0.34955 0.55845 0.16100
C 	C 	0.95811 0.49813 0.50663 -0.14200
C 	C 	0.00231 0.44582 0.50374 0.05200
C 	C 	0.99228 0.38218 0.52255 0.08400
C 	C 	0.93598 0.36952 0.54346 -0.01600
C 	C 	0.89063 0.42122 0.54612 -0.12600
C 	C 	0.90439 0.48781 0.52810 0.21000
H 	H 	0.92754 0.31938 0.55752 0.06200
O 	O 	0.86594 0.54327 0.53158 -0.29400
H 	H 	0.96674 0.54817 0.49249 0.08500
O 	O 	0.97548 0.33960 0.45652 -0.28300
H 	H 	0.90201 0.58700 0.54408 0.14900
H 	H 	0.99422 0.29379 0.46123 0.14200
C 	C 	0.48730 0.68232 0.51393 0.12000
C 	C 	0.52179 0.59855 0.55025 0.00300
O 	O 	0.48304 0.73751 0.53373 -0.26700
H 	H 	0.45360 0.74622 0.48105 0.06800
C 	C 	0.46697 0.53052 0.56346 0.11300
C 	C 	0.48743 0.50716 0.58911 -0.03800
C 	C 	0.56281 0.55132 0.60174 -0.13800
C 	C 	0.61227 0.62607 0.59018 0.17600
C 	C 	0.59257 0.64826 0.56421 -0.11300
H 	H 	0.44659 0.45203 0.59840 0.06900
O 	O 	0.68138 0.67568 0.60371 -0.30100
H 	H 	0.63343 0.70282 0.55461 0.08300
H 	H 	0.66461 0.71437 0.61509 0.16100
H 	H 	0.42641 0.71603 0.53990 0.14900
C 	C 	0.79426 0.11289 0.65333 -0.07000
C 	C 	0.82306 0.13837 0.68012 -0.02000
C 	C 	0.84314 0.08496 0.69763 0.00300
C 	C 	0.83575 0.00518 0.68812 -0.07900
C 	C 	0.81118 0.98136 0.66082 -0.00600
C 	C 	0.79033 0.03468 0.64339 0.00100
H 	H 	0.82683 0.19880 0.68769 0.03900
H 	H 	0.80744 0.92097 0.65323 0.05100
C 	C 	0.76644 0.00934 0.61522 0.08400
C 	C 	0.87108 0.11254 0.72534 0.03000
N 	N 	0.74731 0.98901 0.59265 -0.10500
N 	N 	0.89317 0.13473 0.74755 -0.16400
C 	C 	0.01077 0.67149 0.69239 -0.06300
C 	C 	0.03200 0.66504 0.66510 0.01700
C 	C 	0.98468 0.59846 0.64833 -0.02600
C 	C 	0.91425 0.53921 0.65886 -0.05500
C 	C 	0.90162 0.53857 0.68721 -0.01000
C 	C 	0.95110 0.60355 0.70412 -0.00500
H 	H 	0.08147 0.71470 0.65637 0.04500
H 	H 	0.85102 0.49002 0.69586 0.04400
C 	C 	0.93926 0.60127 0.73338 0.06400
C 	C 	0.00925 0.59074 0.62061 0.11400
N 	N 	0.93013 0.59934 0.75686 -0.11800
N 	N 	0.02886 0.58449 0.59841 -0.11200
C 	C 	0.93267 0.54121 0.96217 -0.11900
C 	C 	0.89796 0.50176 0.98620 0.01100
C 	C 	0.81882 0.44373 0.98530 0.12000
C 	C 	0.77428 0.42684 0.96054 -0.03700
C 	C 	0.80875 0.46652 0.93647 -0.12700
C 	C 	0.88863 0.52353 0.93730 0.19700
C 	C 	0.94495 0.52082 0.01224 -0.01500
O 	O 	0.78424 0.40505 0.00875 -0.27200
H 	H 	0.71285 0.38289 0.96004 0.04800
O 	O 	0.92211 0.56531 0.91419 -0.28300
H 	H 	0.99372 0.58593 0.96282 0.07300
C 	C 	0.93503 0.57872 0.03081 -0.09900
H 	H 	0.89181 0.60829 0.02623 0.07900
H 	H 	0.95124 0.53214 0.90562 0.15800
H 	H 	0.79742 0.35408 0.00940 0.15600
C 	C 	0.57691 0.03079 0.99727 -0.11200
C 	C 	0.49353 0.99271 0.94659 -0.02700
C 	C 	0.56631 0.06036 0.94902 -0.12200
C 	C 	0.60919 0.07782 0.97430 0.19300
H 	H 	0.46038 0.97868 0.92713 0.06600
O 	O 	0.68063 0.14352 0.97692 -0.29600
H 	H 	0.60919 0.04595 0.01687 0.08100
O 	O 	0.49258 0.80333 0.00774 -0.27100
H 	H 	0.72321 0.12078 0.97260 0.14600
H 	H 	0.44585 0.76986 0.99598 0.15700
C 	C 	0.44077 0.43704 0.99649 0.00600
C 	C 	0.51319 0.48613 0.98447 0.12200
C 	C 	0.53067 0.46766 0.95785 -0.03600
C 	C 	0.47759 0.39875 0.94341 -0.12500
C 	C 	0.40466 0.35008 0.95531 0.20000
O 	O 	0.56650 0.55271 0.99863 -0.27400
H 	H 	0.58689 0.50534 0.94879 0.05400
H 	H 	0.60348 0.53085 0.00872 0.15300
H 	H 	0.31493 0.30452 0.93090 0.15700
H 	H 	0.43191 0.61302 0.00384 0.16100
C 	C 	0.01659 0.17135 0.82181 -0.04600
C 	C 	0.99404 0.15954 0.84934 -0.03700
C 	C 	0.94319 0.19781 0.86021 0.00800
C 	C 	0.91780 0.25057 0.84367 -0.06600
C 	C 	0.95629 0.27689 0.81875 -0.01800
C 	C 	0.00751 0.23860 0.80808 0.00700
H 	H 	0.00712 0.11269 0.86100 0.06600
H 	H 	0.94152 0.32208 0.80674 0.05000
C 	C 	0.04540 0.26412 0.78210 0.08200
C 	C 	0.91326 0.17873 0.88763 0.04900
N 	N 	0.07582 0.28457 0.76126 -0.10800
N 	N 	0.88921 0.16344 0.90958 -0.13000
N 	N 	0.48208 0.29509 0.80516 -0.12400
C 	C 	0.78796 0.58288 0.81522 -0.05900
C 	C 	0.85332 0.65043 0.82552 -0.01200
C 	C 	0.88119 0.72401 0.81107 0.01000
C 	C 	0.84418 0.73012 0.78568 -0.07300
C 	C 	0.78199 0.66083 0.77455 -0.00300
C 	C 	0.75371 0.58728 0.78920 -0.00100
H 	H 	0.88082 0.64647 0.84529 0.05900
H 	H 	0.75448 0.66473 0.75479 0.05200
C 	C 	0.68849 0.51735 0.77767 0.07300
C 	C 	0.94772 0.79300 0.82251 0.04500
N 	N 	0.63623 0.46130 0.76843 -0.11400
N 	N 	0.00096 0.84823 0.83169 -0.10700
