data_crystal

_cell_length_a 25.96751
_cell_length_b 28.40866
_cell_length_c 38.32582
_cell_angle_alpha 60.85547
_cell_angle_beta  118.84281
_cell_angle_gamma 133.21782

_symmetry_space_group_name_	'P 1'
_symmetry_space_group_name_H-M	'P 1'

loop_
_symmetry_equiv_pos_as_xyz
  x,y,z

loop_
_atom_site_label
_atom_site_type_symbol
_atom_site_fract_x
_atom_site_fract_y
_atom_site_fract_z
_atom_site_charge
C 	C 	0.80159 0.34530 0.02348 0.13600
N 	N 	0.85112 0.39137 0.04626 -0.12900
C 	C 	0.83089 0.41837 0.05363 0.13700
N 	N 	0.76091 0.39752 0.03952 -0.13200
C 	C 	0.71095 0.35055 0.01767 0.13700
N 	N 	0.73177 0.32567 0.00874 -0.13100
C 	C 	0.66543 0.33159 0.47914 0.13600
N 	N 	0.71356 0.37858 0.50114 -0.13000
C 	C 	0.69475 0.41196 0.50245 0.13700
N 	N 	0.62708 0.39661 0.48303 -0.13200
C 	C 	0.57827 0.34907 0.46152 0.13700
N 	N 	0.59869 0.31843 0.45841 -0.13100
C 	C 	0.29710 0.62602 0.22087 0.13600
N 	N 	0.23773 0.56150 0.22353 -0.13000
C 	C 	0.23922 0.51676 0.22056 0.13700
N 	N 	0.30059 0.53621 0.21615 -0.13100
C 	C 	0.35828 0.60128 0.21093 0.13700
N 	N 	0.35629 0.64636 0.21306 -0.13100
C 	C 	0.23145 0.60933 0.72515 0.13500
N 	N 	0.17918 0.55267 0.71137 -0.12900
C 	C 	0.19706 0.51561 0.71408 0.13600
N 	N 	0.26517 0.53226 0.73379 -0.13100
C 	C 	0.31916 0.59267 0.74260 0.13600
N 	N 	0.30201 0.63117 0.73845 -0.13100
Co	Co	0.11193 0.03109 0.09330 1.18900
C 	C 	0.25822 0.10528 0.08053 0.31000
Co	Co	0.17246 0.95472 0.10262 1.17300
O 	O 	0.08585 0.09119 0.08161 -0.44100
C 	C 	0.01592 0.11140 0.15945 0.29500
C 	C 	0.22941 0.93298 0.19310 0.29600
O 	O 	0.97149 0.05323 0.18149 -0.36800
O 	O 	0.05215 0.11719 0.14033 -0.36200
O 	O 	0.24744 0.97432 0.15767 -0.37300
O 	O 	0.17357 0.91480 0.20229 -0.36100
O 	O 	0.12146 0.96917 0.12134 -0.76100
O 	O 	0.23183 0.05342 0.07008 -0.39900
O 	O 	0.22217 0.10235 0.09751 -0.37600
Co	Co	0.00539 0.99769 0.56698 1.19300
Co	Co	0.94776 0.04037 0.59822 1.18700
C 	C 	0.14667 0.06902 0.55162 0.31100
Co	Co	0.06635 0.91947 0.58068 1.17200
O 	O 	0.97926 0.05951 0.55091 -0.44800
C 	C 	0.01673 0.16075 0.62150 0.31400
C 	C 	0.14271 0.92290 0.66723 0.29800
O 	O 	0.95365 0.12816 0.62858 -0.39200
O 	O 	0.03138 0.12981 0.61502 -0.38700
O 	O 	0.15339 0.95109 0.62994 -0.37700
O 	O 	0.10412 0.92752 0.67701 -0.37400
O 	O 	0.01446 0.93578 0.59758 -0.75600
C 	C 	0.02041 0.02474 0.73667 0.30900
O 	O 	0.11885 0.01517 0.54271 -0.39600
O 	O 	0.11537 0.06650 0.57173 -0.39500
C 	C 	0.13469 0.03069 0.93263 0.08900
C 	C 	0.13767 0.02496 0.97178 -0.01800
H 	H 	0.18767 0.03789 0.99528 0.06400
C 	C 	0.09457 0.07760 0.83280 -0.08000
C 	C 	0.08948 0.08242 0.79333 0.15200
H 	H 	0.12267 0.12231 0.84170 0.09300
Br	Br	0.21996 0.06235 0.92169 -0.19300
Br	Br	0.14131 0.16929 0.75813 -0.19900
C 	C 	0.01004 0.98066 0.29463 0.15300
C 	C 	0.01012 0.98848 0.32802 -0.07300
H 	H 	0.05208 0.03567 0.33658 0.09000
C 	C 	0.02345 0.95006 0.46015 -0.00500
C 	C 	0.02067 0.94647 0.42416 0.08300
H 	H 	0.06662 0.95228 0.48701 0.05200
Br	Br	0.08860 0.05200 0.26747 -0.20800
Br	Br	0.09186 0.94259 0.42437 -0.18800
C 	C 	0.08871 0.35891 0.68207 -0.02200
C 	C 	0.11448 0.38619 0.64701 0.01600
C 	C 	0.15098 0.45520 0.62879 -0.02000
C 	C 	0.16677 0.49719 0.64756 0.00100
C 	C 	0.15163 0.47112 0.68622 -0.01300
C 	C 	0.10807 0.40155 0.70195 -0.00100
C 	C 	0.10506 0.34236 0.63016 0.02900
C 	C 	0.17518 0.48330 0.59189 0.10700
C 	C 	0.08498 0.37409 0.73913 0.10300
C 	C 	0.04822 0.31895 0.59572 -0.03800
C 	C 	0.03040 0.26718 0.58549 0.03100
C 	C 	0.06336 0.23411 0.61231 -0.07900
C 	C 	0.12921 0.26646 0.64054 0.03000
C 	C 	0.14935 0.31972 0.65053 -0.03500
C 	C 	0.00609 0.34561 0.57229 0.11000
C 	C 	0.17551 0.24471 0.65931 0.10600
C 	C 	0.97522 0.24498 0.54895 0.08800
C 	C 	0.21305 0.34887 0.68278 0.11800
C 	C 	0.04355 0.28725 0.69798 0.10700
C 	C 	0.20366 0.56807 0.62874 0.10500
N 	N 	0.93123 0.22726 0.51974 -0.09600
N 	N 	0.97249 0.36693 0.55357 -0.10200
N 	N 	0.21253 0.22733 0.67423 -0.08700
N 	N 	0.26386 0.37195 0.70863 -0.09300
N 	N 	0.19448 0.50569 0.56245 -0.09500
N 	N 	0.23328 0.62467 0.61377 -0.09300
N 	N 	0.06657 0.35220 0.76883 -0.09400
N 	N 	0.00754 0.23004 0.71061 -0.09900
C 	C 	0.61816 0.78558 0.70011 -0.03700
C 	C 	0.61549 0.74588 0.74076 0.02800
C 	C 	0.67789 0.74897 0.76823 -0.03600
C 	C 	0.74318 0.79297 0.75525 0.03000
C 	C 	0.74530 0.83229 0.71447 -0.07600
C 	C 	0.68124 0.82459 0.68625 0.02500
C 	C 	0.54441 0.69466 0.75259 0.01500
C 	C 	0.67460 0.70645 0.80958 0.11200
C 	C 	0.67836 0.85182 0.64260 0.09200
C 	C 	0.49187 0.63809 0.73659 -0.02300
C 	C 	0.41777 0.60472 0.73230 -0.00300
C 	C 	0.39699 0.62036 0.75120 -0.01200
C 	C 	0.45211 0.66737 0.77555 -0.00200
C 	C 	0.52520 0.70768 0.77379 -0.02200
C 	C 	0.51404 0.61663 0.72240 0.10500
C 	C 	0.43444 0.67191 0.80382 0.10600
C 	C 	0.36415 0.55856 0.70608 0.10600
C 	C 	0.58018 0.76319 0.79301 0.10500
C 	C 	0.55561 0.78573 0.67251 0.10700
C 	C 	0.80718 0.79576 0.78322 0.09300
N 	N 	0.32205 0.52190 0.68504 -0.10000
N 	N 	0.53183 0.59959 0.71109 -0.09700
N 	N 	0.42100 0.67592 0.82656 -0.09300
N 	N 	0.62413 0.80753 0.80834 -0.09500
N 	N 	0.67189 0.67249 0.84257 -0.09500
N 	N 	0.50563 0.78575 0.65055 -0.09800
C 	C 	0.23598 0.71195 0.76384 -0.02200
C 	C 	0.20309 0.73977 0.72767 0.01500
C 	C 	0.16936 0.71668 0.69199 -0.02300
C 	C 	0.17645 0.67224 0.69106 -0.00200
C 	C 	0.21175 0.64631 0.72699 -0.01200
C 	C 	0.23459 0.66123 0.76419 -0.00100
C 	C 	0.20545 0.79464 0.72655 0.02700
C 	C 	0.12722 0.73844 0.65643 0.10100
C 	C 	0.25056 0.62066 0.80293 0.10700
C 	C 	0.25419 0.86095 0.70708 -0.03700
C 	C 	0.24170 0.90860 0.69477 0.02300
C 	C 	0.17707 0.88824 0.69860 -0.07300
C 	C 	0.13698 0.82570 0.72517 0.02400
C 	C 	0.15294 0.77958 0.74015 -0.03600
C 	C 	0.31597 0.87962 0.69909 0.10800
C 	C 	0.07999 0.80888 0.73708 0.09000
C 	C 	0.29502 0.97818 0.67844 0.10500
C 	C 	0.11848 0.71863 0.77094 0.11400
C 	C 	0.27273 0.73657 0.80027 0.10700
C 	C 	0.14783 0.65366 0.65323 0.10400
N 	N 	0.33772 0.03372 0.66541 -0.09400
N 	N 	0.36527 0.89444 0.69272 -0.09800
N 	N 	0.09124 0.66999 0.79565 -0.09400
N 	N 	0.09355 0.75579 0.62809 -0.10700
N 	N 	0.12482 0.63883 0.62300 -0.09400
N 	N 	0.26285 0.58796 0.83388 -0.09100
N 	N 	0.30206 0.75626 0.82934 -0.09400
C 	C 	0.12701 0.33443 0.23456 -0.02300
C 	C 	0.09209 0.33251 0.19296 0.01500
C 	C 	0.08518 0.38434 0.16497 -0.02200
C 	C 	0.12354 0.44247 0.17712 -0.00100
C 	C 	0.17203 0.45005 0.21603 -0.01500
C 	C 	0.16752 0.39367 0.24609 -0.00100
C 	C 	0.07078 0.28049 0.17796 0.02900
C 	C 	0.03953 0.37814 0.12384 0.10600
C 	C 	0.20729 0.39782 0.28825 0.10300
C 	C 	0.99803 0.22429 0.17189 -0.03700
C 	C 	0.97953 0.17095 0.16315 0.02100
C 	C 	0.03450 0.17241 0.16206 -0.06600
C 	C 	0.10732 0.23011 0.16682 0.02700
C 	C 	0.12465 0.28483 0.17326 -0.03500
C 	C 	0.94243 0.22042 0.17600 0.10400
C 	C 	0.16513 0.23188 0.16774 0.10800
C 	C 	0.19864 0.34491 0.17654 0.11100
C 	C 	0.12325 0.27642 0.26494 0.10500
C 	C 	0.11420 0.49471 0.14953 0.10300
N 	N 	0.89816 0.21741 0.17929 -0.09900
N 	N 	0.21139 0.23345 0.16851 -0.09100
N 	N 	0.25770 0.39274 0.17928 -0.10000
N 	N 	0.00291 0.37318 0.09105 -0.10000
N 	N 	0.10626 0.53614 0.12740 -0.09800
N 	N 	0.23908 0.40117 0.32191 -0.09400
N 	N 	0.12016 0.23003 0.28910 -0.09600
C 	C 	0.55137 0.69199 0.20646 -0.02300
C 	C 	0.53853 0.66155 0.18022 0.01500
C 	C 	0.46685 0.61057 0.16503 -0.02300
C 	C 	0.40810 0.59708 0.17103 -0.00100
C 	C 	0.42065 0.62357 0.19971 -0.01400
C 	C 	0.49292 0.66950 0.21853 -0.00200
C 	C 	0.59998 0.68681 0.16621 0.02600
C 	C 	0.45364 0.57195 0.14344 0.10700
C 	C 	0.50735 0.69184 0.25118 0.10500
C 	C 	0.65605 0.68019 0.19485 -0.03600
C 	C 	0.72574 0.72533 0.18676 0.02300
C 	C 	0.73681 0.77297 0.14872 -0.07300
C 	C 	0.67582 0.76569 0.11665 0.02800
C 	C 	0.60832 0.72640 0.12590 -0.03700
C 	C 	0.64278 0.62927 0.23310 0.10900
C 	C 	0.68347 0.80056 0.07463 0.10100
C 	C 	0.54954 0.73022 0.09500 0.10800
C 	C 	0.62444 0.74709 0.22044 0.10200
C 	C 	0.33604 0.56104 0.14522 0.10700
N 	N 	0.63211 0.58860 0.26364 -0.09700
N 	N 	0.68962 0.82840 0.04108 -0.08700
N 	N 	0.50262 0.73327 0.07035 -0.09800
N 	N 	0.44314 0.54114 0.12621 -0.09600
N 	N 	0.27855 0.53244 0.12459 -0.09600
N 	N 	0.51900 0.70973 0.27724 -0.09200
N 	N 	0.68276 0.79102 0.23157 -0.10400
C 	C 	0.33529 0.73823 0.26993 -0.02200
C 	C 	0.29961 0.76665 0.23752 0.01500
C 	C 	0.26233 0.74811 0.19984 -0.02300
C 	C 	0.26433 0.70433 0.19383 -0.00100
C 	C 	0.29752 0.67396 0.22668 -0.01400
C 	C 	0.33225 0.69030 0.26494 -0.00100
C 	C 	0.30324 0.81795 0.24231 0.02700
C 	C 	0.22226 0.77441 0.16722 0.09900
C 	C 	0.36441 0.65751 0.29914 0.10600
C 	C 	0.35024 0.88581 0.22391 -0.03800
C 	C 	0.33567 0.93046 0.21520 0.02500
C 	C 	0.27216 0.90585 0.22303 -0.07000
C 	C 	0.23936 0.84398 0.25162 0.02400
C 	C 	0.25238 0.79843 0.25978 -0.03600
C 	C 	0.41137 0.90877 0.21267 0.10800
C 	C 	0.19898 0.83032 0.27534 0.10600
C 	C 	0.38670 0.00127 0.19979 0.09500
C 	C 	0.21293 0.73170 0.28523 0.11200
C 	C 	0.37565 0.75885 0.30817 0.10700
C 	C 	0.23617 0.69367 0.15326 0.10100
N 	N 	0.42758 0.05780 0.18748 -0.09300
N 	N 	0.46016 0.92702 0.20370 -0.09800
N 	N 	0.16674 0.81939 0.29434 -0.08800
N 	N 	0.18148 0.67836 0.30556 -0.09500
N 	N 	0.19033 0.79539 0.14115 -0.10800
N 	N 	0.21410 0.68559 0.12081 -0.09200
N 	N 	0.39001 0.63127 0.32642 -0.09000
N 	N 	0.40784 0.77534 0.33868 -0.09400
C 	C 	0.65392 0.17646 0.50904 -0.02300
C 	C 	0.71727 0.20375 0.49971 0.01500
C 	C 	0.73877 0.31253 0.46981 -0.00100
C 	C 	0.68053 0.28684 0.48377 -0.01300
C 	C 	0.63798 0.21850 0.50341 -0.00100
C 	C 	0.58147 0.19256 0.52055 0.10400
C 	C 	0.69561 0.13062 0.45556 0.11100
C 	C 	0.60682 0.10538 0.52602 0.10500
N 	N 	0.66560 0.13412 0.42120 -0.09700
N 	N 	0.53651 0.17190 0.53431 -0.09700
N 	N 	0.56931 0.04864 0.53957 -0.09700
C 	C 	0.75505 0.49057 0.58266 -0.02300
C 	C 	0.72323 0.44074 0.56437 -0.00100
C 	C 	0.74365 0.45804 0.52957 -0.01400
C 	C 	0.72811 0.47414 0.61533 0.10500
C 	C 	0.76285 0.64115 0.52314 0.11100
C 	C 	0.66978 0.37156 0.58136 0.10300
N 	N 	0.71932 0.63156 0.49252 -0.09300
N 	N 	0.70668 0.46109 0.64140 -0.09600
N 	N 	0.62724 0.31630 0.59491 -0.09200
C 	C 	0.33255 0.21548 0.53270 -0.03700
C 	C 	0.31585 0.22908 0.48951 0.02800
C 	C 	0.24340 0.20376 0.46707 -0.03800
C 	C 	0.18691 0.15648 0.48798 0.03000
C 	C 	0.20320 0.13425 0.53118 -0.08000
C 	C 	0.27595 0.16802 0.55358 0.02800
C 	C 	0.37246 0.26159 0.46850 0.01500
C 	C 	0.22706 0.22492 0.42258 0.10900
C 	C 	0.29238 0.15318 0.59797 0.09500
C 	C 	0.38287 0.22245 0.46386 -0.02200
C 	C 	0.44524 0.25342 0.45181 -0.00200
C 	C 	0.50011 0.32243 0.44855 -0.01400
C 	C 	0.48154 0.36201 0.44394 -0.00100
C 	C 	0.41868 0.33158 0.45532 -0.02300
C 	C 	0.33032 0.15058 0.47228 0.10600
C 	C 	0.52628 0.43332 0.42695 0.10500
C 	C 	0.44925 0.21614 0.43878 0.10800
C 	C 	0.40248 0.37192 0.45442 0.10600
C 	C 	0.40771 0.24909 0.55550 0.11000
C 	C 	0.11218 0.13022 0.46521 0.08500
N 	N 	0.45227 0.18627 0.42832 -0.09500
N 	N 	0.28830 0.09323 0.47901 -0.09600
N 	N 	0.56206 0.49028 0.41341 -0.09100
N 	N 	0.38946 0.40407 0.45371 -0.09500
N 	N 	0.21413 0.24189 0.38707 -0.09700
N 	N 	0.05259 0.10945 0.44697 -0.09200
N 	N 	0.30540 0.14139 0.63339 -0.09000
N 	N 	0.46775 0.27602 0.57368 -0.09700
C 	C 	0.81299 0.13972 0.99344 -0.03400
C 	C 	0.84477 0.23414 0.00983 0.01400
C 	C 	0.74442 0.12789 0.96635 0.11000
C 	C 	0.86618 0.29812 0.98372 -0.02100
C 	C 	0.85405 0.33561 0.98892 0.00100
C 	C 	0.82045 0.30907 0.02017 -0.01200
C 	C 	0.79951 0.24536 0.04631 -0.00000
C 	C 	0.80737 0.20637 0.03943 -0.02400
C 	C 	0.77107 0.22042 0.08075 0.10500
C 	C 	0.87633 0.40142 0.96227 0.10600
C 	C 	0.77156 0.13623 0.06012 0.10400
N 	N 	0.89410 0.45396 0.94102 -0.09000
N 	N 	0.74840 0.20062 0.10823 -0.09300
N 	N 	0.74221 0.08003 0.07623 -0.09900
N 	N 	0.68965 0.11849 0.94472 -0.09700
N 	N 	0.72417 0.97841 0.98636 -0.08300
N 	N 	0.08523 0.20969 0.05807 -0.09500
C 	C 	0.88301 0.46663 0.07962 -0.01500
C 	C 	0.86292 0.45489 0.11279 -0.00100
C 	C 	0.81241 0.38716 0.13323 0.10300
C 	C 	0.88520 0.64847 0.04531 0.11000
C 	C 	0.86071 0.49785 0.15449 0.10400
N 	N 	0.84486 0.63125 0.01536 -0.09500
N 	N 	0.77205 0.33308 0.14948 -0.09300
N 	N 	0.83731 0.48898 0.17797 -0.09700
C 	C 	0.37615 0.23368 0.00664 -0.03700
C 	C 	0.44429 0.25111 0.03394 0.02700
C 	C 	0.45258 0.23785 0.07623 -0.03600
C 	C 	0.39061 0.19705 0.09186 0.02600
C 	C 	0.32115 0.17044 0.06509 -0.07700
C 	C 	0.31514 0.19579 0.02235 0.02800
C 	C 	0.50422 0.27489 0.01929 0.01600
C 	C 	0.52429 0.26393 0.10363 0.10900
C 	C 	0.24591 0.18153 0.99477 0.08800
C 	C 	0.55167 0.34302 0.00157 -0.02600
C 	C 	0.61443 0.36634 0.99369 0.00200
C 	C 	0.63311 0.32277 0.00702 -0.01600
C 	C 	0.58043 0.25337 0.01908 -0.00100
C 	C 	0.51582 0.22951 0.02510 -0.02300
C 	C 	0.53712 0.38923 0.99268 0.10700
C 	C 	0.59215 0.20664 0.02499 0.10600
C 	C 	0.66029 0.43512 0.97233 0.10400
C 	C 	0.46195 0.15847 0.03807 0.10600
C 	C 	0.36817 0.25161 0.96279 0.11300
C 	C 	0.39793 0.18087 0.13541 0.09700
N 	N 	0.69694 0.49003 0.95531 -0.09100
N 	N 	0.52544 0.42607 0.98559 -0.09700
N 	N 	0.60112 0.16910 0.02961 -0.09600
N 	N 	0.41888 0.10183 0.04842 -0.10200
N 	N 	0.58160 0.28479 0.12545 -0.09700
N 	N 	0.40370 0.16796 0.17018 -0.09000
N 	N 	0.19066 0.17028 0.97275 -0.09700
N 	N 	0.36183 0.26590 0.92780 -0.09500
Co	Co	0.08166 0.91129 0.16074 1.19200
O 	O 	0.06880 0.98944 0.14817 -0.57100
Co	Co	0.99774 0.89681 0.64502 1.18800
O 	O 	0.00187 0.06541 0.71133 -0.36800
O 	O 	0.01899 0.82255 0.61743 -0.38800
C 	C 	0.07572 0.99962 0.98143 -0.08500
C 	C 	0.06923 0.01146 0.90233 0.02000
C 	C 	0.06470 0.01556 0.86107 0.02400
C 	C 	0.04970 0.02405 0.78081 -0.09400
N 	N 	0.67534 0.87288 0.60767 -0.09100
N 	N 	0.03443 0.79527 0.74668 -0.09300
C 	C 	0.77887 0.38124 0.44667 0.10500
N 	N 	0.81087 0.43607 0.42819 -0.09000
C 	C 	0.89920 0.32465 0.95105 0.10600
O 	O 	0.11689 0.85349 0.13153 -0.39200
C 	C 	0.76950 0.02898 0.99524 0.09300
O 	O 	0.02406 0.99304 0.72241 -0.37300
C 	C 	0.75795 0.27124 0.47845 -0.02200
N 	N 	0.92556 0.34578 0.92500 -0.09500
C 	C 	0.78657 0.72591 0.21834 0.08900
O 	O 	0.98815 0.91959 0.23403 -0.36000
C 	C 	0.97118 0.54117 0.03590 0.10800
N 	N 	0.99370 0.54966 0.01210 -0.09000
C 	C 	0.89007 0.50903 0.12507 -0.02300
N 	N 	0.85808 0.79768 0.80558 -0.09000
C 	C 	0.80407 0.52302 0.51735 -0.00100
C 	C 	0.81180 0.55686 0.56836 0.01500
C 	C 	0.94301 0.53050 0.06574 -0.00000
C 	C 	0.80802 0.83865 0.14660 0.29700
N 	N 	0.83519 0.72645 0.24358 -0.09600
C 	C 	0.74850 0.16540 0.51954 0.02900
C 	C 	0.82046 0.29846 0.46642 0.10800
C 	C 	0.73320 0.12631 0.49858 -0.03500
N 	N 	0.72256 0.00839 0.48117 -0.08900
C 	C 	0.86620 0.19784 0.00840 0.02600
C 	C 	0.82619 0.09224 0.00634 0.02900
C 	C 	0.94345 0.57444 0.10718 0.01500
C 	C 	0.97414 0.58435 0.08013 -0.02300
C 	C 	0.93575 0.66992 0.08287 -0.03500
N 	N 	0.91853 0.80249 0.02860 -0.08300
N 	N 	0.06082 0.71090 0.23389 -0.09700
C 	C 	0.73666 0.04145 0.49822 0.10200
C 	C 	0.82881 0.53973 0.48356 0.10600
O 	O 	0.80924 0.89233 0.13019 -0.37500
O 	O 	0.86569 0.84259 0.15272 -0.37800
C 	C 	0.81537 0.88613 0.70253 0.30800
C 	C 	0.75429 0.08287 0.51958 0.03000
N 	N 	0.87035 0.32018 0.45681 -0.09400
C 	C 	0.83917 0.57212 0.53738 -0.02200
C 	C 	0.84046 0.61115 0.58457 0.02700
C 	C 	0.81740 0.65307 0.56152 -0.03500
C 	C 	0.82458 0.74995 0.55240 0.09600
N 	N 	0.80551 0.78411 0.53382 -0.09000
N 	N 	0.84856 0.55310 0.45657 -0.08900
C 	C 	0.93625 0.76941 0.05513 0.09700
C 	C 	0.96276 0.63293 0.11404 0.02600
C 	C 	0.03591 0.65015 0.06616 0.11000
C 	C 	0.95839 0.72793 0.08834 0.02600
O 	O 	0.85482 0.94386 0.71060 -0.39100
O 	O 	0.84203 0.87259 0.68987 -0.37500
Br	Br	0.99756 0.87338 0.88946 -0.18300
Br	Br	0.83495 0.93638 0.42946 -0.18400
C 	C 	0.78916 0.07736 0.56189 -0.07300
C 	C 	0.78604 0.16203 0.56109 -0.03700
C 	C 	0.84825 0.70699 0.57570 0.02500
C 	C 	0.88904 0.61966 0.62346 -0.03600
C 	C 	0.93752 0.21546 0.02746 -0.03600
C 	C 	0.89348 0.10497 0.03238 -0.07900
O 	O 	0.05984 0.00336 0.03746 -0.36900
O 	O 	0.81207 0.00168 0.62160 -0.37600
O 	O 	0.95917 0.97115 0.51104 -0.34900
C 	C 	0.96404 0.94208 0.38928 0.02600
C 	C 	0.96808 0.94565 0.46277 -0.09600
Co	Co	0.01761 0.04388 0.11743 1.19100
C 	C 	0.90446 0.11292 0.15761 0.08200
O 	O 	0.08898 0.93488 0.05039 -0.37600
C 	C 	0.94182 0.91681 0.24166 0.32700
O 	O 	0.97388 0.88875 0.53398 -0.38300
Co	Co	0.97285 0.91420 0.17731 1.19100
Co	Co	0.88487 0.97213 0.15638 1.17600
C 	C 	0.04669 0.81514 0.12816 0.31100
O 	O 	0.87652 0.03720 0.09991 -0.38500
O 	O 	0.96653 0.97837 0.15121 -0.75500
C 	C 	0.89376 0.05066 0.06752 0.31000
O 	O 	0.01708 0.86557 0.19813 -0.44200
C 	C 	0.07657 0.97983 0.02499 0.31500
O 	O 	0.92759 0.02928 0.07036 -0.38900
O 	O 	0.88201 0.90650 0.21407 -0.39700
O 	O 	0.01743 0.83536 0.13216 -0.38800
Co	Co	0.94308 0.94079 0.67665 1.19000
Co	Co	0.90433 0.03394 0.66815 1.17500
C 	C 	0.95211 0.78477 0.62113 0.30400
O 	O 	0.92899 0.99932 0.64518 -0.75700
C 	C 	0.81749 0.03630 0.58355 0.29900
O 	O 	0.96531 0.87668 0.69199 -0.44500
O 	O 	0.94542 0.95078 0.61499 -0.57200
C 	C 	0.96354 0.93271 0.50383 0.32000
O 	O 	0.85638 0.04223 0.56644 -0.35900
O 	O 	0.93362 0.80210 0.63702 -0.37100
C 	C 	0.01087 0.98289 0.95061 0.15100
C 	C 	0.00809 0.98928 0.91117 -0.07100
H 	H 	0.95800 0.97574 0.88764 0.08800
C 	C 	0.02475 0.96263 0.81011 -0.00700
C 	C 	0.03214 0.95814 0.85015 0.08900
H 	H 	0.99670 0.91790 0.80128 0.07000
Br	Br	0.92494 0.94905 0.96197 -0.18900
C 	C 	0.95400 0.92031 0.28233 -0.09700
C 	C 	0.95837 0.93479 0.35157 0.02300
C 	C 	0.90507 0.87307 0.34084 0.08500
C 	C 	0.90224 0.86659 0.30587 -0.00400
H 	H 	0.85928 0.81988 0.29675 0.07300
C 	C 	0.91167 0.94305 0.39071 -0.07800
C 	C 	0.91246 0.94329 0.42752 0.15400
H 	H 	0.86873 0.94095 0.36368 0.09200
Br	Br	0.83691 0.79663 0.37409 -0.18700
N 	N 	0.84473 0.06629 0.15371 -0.11300
C 	C 	0.80035 0.11413 0.58308 0.02800
C 	C 	0.82193 0.09999 0.62760 0.07000
C 	C 	0.80868 0.20723 0.58149 0.10700
N 	N 	0.83899 0.08888 0.66312 -0.13100
N 	N 	0.82670 0.24328 0.59774 -0.10200
C 	C 	0.90076 0.71789 0.61321 -0.07400
C 	C 	0.91367 0.66941 0.63904 0.02900
C 	C 	0.94275 0.66522 0.68260 0.09300
C 	C 	0.91538 0.57881 0.64676 0.10700
C 	C 	0.90262 0.63848 0.52580 0.10700
N 	N 	0.96485 0.66103 0.71757 -0.09600
N 	N 	0.93651 0.54626 0.66535 -0.10200
N 	N 	0.95327 0.69149 0.51660 -0.09400
C 	C 	0.95181 0.17084 0.03574 0.02300
C 	C 	0.02581 0.19210 0.04828 0.07700
C 	C 	0.99453 0.27682 0.04089 0.10400
N 	N 	0.04019 0.32576 0.05167 -0.09900
C 	C 	0.00597 0.65025 0.15208 -0.03500
C 	C 	0.01932 0.70230 0.15915 0.02900
C 	C 	0.00328 0.74582 0.12609 -0.07500
C 	C 	0.03941 0.61682 0.18303 0.10600
C 	C 	0.04290 0.70737 0.20066 0.08800
N 	N 	0.06625 0.59025 0.20771 -0.10200
N 	N 	0.08513 0.70276 0.05500 -0.09400
