data_crystal

_cell_length_a 18.61930
_cell_length_b 16.89326
_cell_length_c 48.49478
_cell_angle_alpha 89.64476
_cell_angle_beta  89.65043
_cell_angle_gamma 119.43942

_symmetry_space_group_name_	'P 1'
_symmetry_space_group_name_H-M	'P 1'

loop_
_symmetry_equiv_pos_as_xyz
  x,y,z

loop_
_atom_site_label
_atom_site_type_symbol
_atom_site_fract_x
_atom_site_fract_y
_atom_site_fract_z
_atom_site_charge
O 	O 	0.03734 0.99933 0.78605 -0.27100
O 	O 	0.97511 0.99726 0.67395 -0.36300
O 	O 	0.00942 0.02307 0.73249 -0.69300
H 	H 	0.02136 0.07073 0.74615 0.18500
O 	O 	0.06930 0.23254 0.19081 -0.28700
O 	O 	0.01566 0.92662 0.25782 -0.29600
O 	O 	0.06582 0.25335 0.24902 -0.26900
F 	F 	0.02774 0.05943 0.13035 -0.32400
F 	F 	0.09626 0.39095 0.00210 -0.31300
F 	F 	0.10787 0.36475 0.29138 -0.31900
C 	C 	0.96554 0.38325 0.45163 -0.00200
H 	H 	0.99206 0.35337 0.43810 0.13000
C 	C 	0.06548 0.59171 0.96610 0.12200
H 	H 	0.06956 0.58639 0.98826 0.12800
O 	O 	0.01519 0.07857 0.23165 -0.69500
H 	H 	0.02619 0.09460 0.25123 0.17800
C 	C 	0.98111 0.51282 0.47798 -0.16700
C 	C 	0.13043 0.66368 0.92246 -0.05900
Ni	Ni	0.06848 0.97079 0.74771 1.14000
Ni	Ni	0.05055 0.09526 0.69977 1.15600
O 	O 	0.17711 0.09705 0.74398 -0.28900
O 	O 	0.13649 0.19359 0.72375 -0.29200
O 	O 	0.09066 0.93194 0.70973 -0.29000
O 	O 	0.14392 0.07020 0.68863 -0.28700
C 	C 	0.10654 0.51106 0.45870 0.29100
C 	C 	0.21577 0.68727 0.96433 0.32200
C 	C 	0.09172 0.19089 0.17266 0.40800
C 	C 	0.13957 0.26030 0.25184 0.37600
C 	C 	0.03160 0.92258 0.19373 0.45100
C 	C 	0.08284 0.98829 0.27082 0.38100
Ni	Ni	0.12197 0.10085 0.22055 1.15200
O 	O 	0.09730 0.97653 0.20803 -0.33100
O 	O 	0.11043 0.12879 0.18061 -0.29800
O 	O 	0.13813 0.06433 0.25835 -0.29500
O 	O 	0.17144 0.23401 0.23165 -0.29400
C 	C 	0.15785 0.28889 0.05742 0.01400
C 	C 	0.10794 0.30916 0.04049 0.24900
C 	C 	0.14204 0.36349 0.01679 0.33200
C 	C 	0.22733 0.40383 0.01166 -0.18700
C 	C 	0.13497 0.26368 0.08679 0.00700
C 	C 	0.16033 0.33186 0.10683 0.24600
C 	C 	0.14301 0.30843 0.13484 0.33100
C 	C 	0.09996 0.21653 0.14306 -0.17700
C 	C 	0.07185 0.14846 0.12284 0.33400
C 	C 	0.08962 0.17201 0.09487 0.25800
F 	F 	0.20325 0.42082 0.09918 -0.32000
F 	F 	0.17082 0.37498 0.15402 -0.31900
F 	F 	0.06362 0.10567 0.07566 -0.28700
C 	C 	0.10656 0.84826 0.13227 0.23600
C 	C 	0.05176 0.75421 0.13255 0.04900
C 	C 	0.03769 0.86483 0.17253 -0.16800
C 	C 	0.09950 0.90332 0.15216 0.34200
C 	C 	0.06436 0.69616 0.11301 -0.00200
F 	F 	0.15258 0.99426 0.15161 -0.34400
C 	C 	0.09094 0.68152 0.06493 0.32100
C 	C 	0.04676 0.69895 0.08507 0.28300
F 	F 	0.07614 0.68821 0.03787 -0.33800
F 	F 	0.16774 0.88582 0.11298 -0.31400
C 	C 	0.17429 0.32668 0.32663 0.24900
C 	C 	0.18091 0.28590 0.27904 -0.17200
C 	C 	0.15401 0.32627 0.29891 0.32500
C 	C 	0.17533 0.23115 0.38277 0.25500
F 	F 	0.10271 0.16401 0.37308 -0.26700
F 	F 	0.11566 0.20857 0.42771 -0.31100
F 	F 	0.14686 0.36459 0.34565 -0.32900
F 	F 	0.07751 0.80978 0.38138 -0.29600
C 	C 	0.13887 0.90056 0.29475 0.34800
C 	C 	0.10805 0.96137 0.29614 -0.21300
C 	C 	0.11539 0.00841 0.32066 0.38700
C 	C 	0.15430 0.99563 0.34351 0.20600
F 	F 	0.08519 0.06685 0.32224 -0.34800
F 	F 	0.13325 0.85581 0.27099 -0.32600
C 	C 	0.01604 0.47176 0.46122 0.12800
C 	C 	0.03096 0.61106 0.48630 0.85500
F 	F 	0.05216 0.66469 0.46285 -0.33400
F 	F 	0.98711 0.63724 0.50361 -0.40000
C 	C 	0.13536 0.65439 0.95129 0.02800
C 	C 	0.20449 0.73412 0.90616 0.78500
F 	F 	0.18356 0.74430 0.87954 -0.36300
F 	F 	0.26408 0.70795 0.90479 -0.39300
F 	F 	0.23706 0.81766 0.91887 -0.38100
C 	C 	0.15344 0.66221 0.07287 -0.17400
F 	F 	0.10083 0.62486 0.50009 -0.39500
C 	C 	0.11323 0.65789 0.12073 0.25900
C 	C 	0.17897 0.17686 0.74267 0.38400
C 	C 	0.14399 0.99294 0.69267 0.39000
O 	O 	0.14125 0.47191 0.47258 -0.29800
O 	O 	0.14741 0.57016 0.43874 -0.26000
C 	C 	0.22329 0.68331 0.05395 0.40800
O 	O 	0.25674 0.77087 0.97366 -0.30100
O 	O 	0.22138 0.70862 0.02847 -0.33100
O 	O 	0.24551 0.63177 0.96635 -0.32000
C 	C 	0.15708 0.63982 0.10064 0.33400
C 	C 	0.22240 0.28778 0.33481 0.00700
C 	C 	0.18162 0.25486 0.41061 0.33900
C 	C 	0.15976 0.84241 0.38440 0.24900
C 	C 	0.18586 0.93557 0.34201 0.02700
C 	C 	0.17785 0.88794 0.31755 0.23500
F 	F 	0.16031 0.04043 0.36725 -0.27700
F 	F 	0.13130 0.72194 0.41567 -0.30400
F 	F 	0.22299 0.06291 0.64091 -0.33300
F 	F 	0.02922 0.28332 0.04823 -0.28600
F 	F 	0.12457 0.64687 0.14782 -0.29200
C 	C 	0.23753 0.25724 0.28686 0.31400
F 	F 	0.01475 0.73622 0.71252 -0.30600
C 	C 	0.23643 0.30920 0.04775 0.24100
C 	C 	0.27260 0.50291 0.00766 0.40800
O 	O 	0.18950 0.43230 0.42497 -0.34000
O 	O 	0.27082 0.55222 0.02785 -0.34600
F 	F 	0.20659 0.60570 0.10830 -0.31000
C 	C 	0.25623 0.25581 0.31475 0.25900
C 	C 	0.24011 0.28482 0.36435 0.01700
C 	C 	0.18728 0.79950 0.40275 0.35200
F 	F 	0.20692 0.82843 0.31606 -0.29800
F 	F 	0.21125 0.14710 0.79755 -0.32500
C 	C 	0.26962 0.36358 0.02402 0.32800
C 	C 	0.23165 0.39666 0.43624 0.39700
C 	C 	0.24913 0.33642 0.41936 -0.19400
F 	F 	0.27488 0.23159 0.26755 -0.34600
C 	C 	0.21605 0.91215 0.36706 0.01200
F 	F 	0.15659 0.81666 0.49053 -0.34200
C 	C 	0.23748 0.25169 0.76017 -0.17500
Ni	Ni	0.23965 0.56722 0.41650 1.14200
O 	O 	0.26153 0.41926 0.46157 -0.31500
Ni	Ni	0.32365 0.80477 0.00872 1.13900
O 	O 	0.29212 0.69175 0.06389 -0.29400
O 	O 	0.32295 0.54101 0.98632 -0.32200
F 	F 	0.28293 0.28278 0.06248 -0.29700
F 	F 	0.30641 0.22245 0.32229 -0.29800
C 	C 	0.22841 0.82854 0.47822 0.80400
F 	F 	0.21339 0.74852 0.46604 -0.40600
C 	C 	0.21617 0.98508 0.68316 -0.20300
C 	C 	0.25704 0.02788 0.65844 0.35800
C 	C 	0.25295 0.23294 0.78707 0.33100
F 	F 	0.26524 0.36134 0.72408 -0.32100
O 	O 	0.27256 0.68983 0.40071 -0.33300
C 	C 	0.31561 0.35142 0.37496 0.24500
C 	C 	0.27200 0.82902 0.40498 -0.16700
F 	F 	0.25187 0.89481 0.45794 -0.40900
C 	C 	0.27894 0.34184 0.75007 0.33200
Ni	Ni	0.26681 0.53301 0.48082 1.13100
C 	C 	0.29679 0.76389 0.41500 0.44200
O 	O 	0.26138 0.64210 0.49903 -0.26200
O 	O 	0.33064 0.57418 0.39191 -0.31700
O 	O 	0.31102 0.59597 0.44708 -0.71400
Ni	Ni	0.37331 0.66909 0.04006 1.13800
Ni	Ni	0.36407 0.67320 0.97317 1.14800
O 	O 	0.37952 0.86157 0.04559 -0.31000
O 	O 	0.37261 0.72930 0.00762 -0.72900
F 	F 	0.34760 0.38864 0.01586 -0.35800
C 	C 	0.32036 0.37672 0.40261 0.33200
C 	C 	0.30106 0.94778 0.37104 0.23800
C 	C 	0.25078 0.94518 0.70040 0.33800
F 	F 	0.21228 0.90282 0.72429 -0.34000
F 	F 	0.41215 0.04672 0.88572 -0.34600
C 	C 	0.32904 0.90699 0.39027 0.34800
C 	C 	0.33449 0.03765 0.65219 0.24000
H 	H 	0.41705 0.94510 0.91771 0.15000
C 	C 	0.31210 0.30230 0.80313 0.24900
H 	H 	0.34075 0.56433 0.44106 0.16500
O 	O 	0.40718 0.79504 0.95235 -0.27000
O 	O 	0.41929 0.89777 0.98643 -0.30600
F 	F 	0.36552 0.83882 0.10847 -0.33200
F 	F 	0.35905 0.75586 0.35053 -0.34300
F 	F 	0.38096 0.39948 0.35777 -0.29000
F 	F 	0.35628 0.01779 0.35502 -0.27100
C 	C 	0.29446 0.85961 0.49975 -0.09300
F 	F 	0.37679 0.08715 0.62967 -0.32100
C 	C 	0.33716 0.41157 0.76642 0.25800
F 	F 	0.32970 0.28216 0.82849 -0.30500
C 	C 	0.32157 0.72693 0.49657 0.30400
H 	H 	0.43113 0.77641 0.00680 0.20000
H 	H 	0.31065 0.99519 0.50006 0.11600
F 	F 	0.49329 0.66112 0.92873 -0.39500
O 	O 	0.35496 0.78877 0.43390 -0.31900
C 	C 	0.31708 0.79917 0.51249 0.04900
C 	C 	0.32431 0.94716 0.51046 0.08100
C 	C 	0.35562 0.39162 0.79270 0.00500
F 	F 	0.38855 0.45195 0.41134 -0.36800
C 	C 	0.44599 0.86320 0.05660 0.40500
C 	C 	0.44689 0.87802 0.96359 0.30000
F 	F 	0.34093 0.47091 0.84268 -0.29600
C 	C 	0.40005 0.65254 0.38752 0.40800
O 	O 	0.45697 0.62893 0.02436 -0.29900
O 	O 	0.46228 0.79584 0.05301 -0.31200
C 	C 	0.32757 0.95327 0.69375 0.22800
F 	F 	0.37772 0.49803 0.75637 -0.29000
C 	C 	0.35413 0.82118 0.53841 0.07300
C 	C 	0.37072 0.00165 0.67004 0.03200
C 	C 	0.47818 0.98879 0.92570 0.04300
C 	C 	0.48930 0.11365 0.89396 0.77800
O 	O 	0.38394 0.57717 0.49708 -0.28800
C 	C 	0.44801 0.89614 0.10615 0.31300
C 	C 	0.43478 0.67804 0.35951 -0.18200
C 	C 	0.42528 0.74497 0.34523 0.32500
F 	F 	0.41113 0.93731 0.39247 -0.33400
Ni	Ni	0.40630 0.71305 0.44671 1.13900
O 	O 	0.39322 0.74405 0.48614 -0.31100
O 	O 	0.47795 0.69583 0.98132 -0.27000
C 	C 	0.37532 0.97504 0.53348 0.01200
H 	H 	0.36664 0.77267 0.54901 0.14600
F 	F 	0.54107 0.13890 0.87119 -0.36800
F 	F 	0.48119 0.18642 0.90282 -0.44200
C 	C 	0.48853 0.64274 0.99880 0.30400
C 	C 	0.48536 0.92309 0.07995 -0.16200
C 	C 	0.38188 0.90845 0.54944 -0.06300
C 	C 	0.50746 0.95536 0.94667 0.02400
C 	C 	0.41637 0.48583 0.83436 0.24900
O 	O 	0.44495 0.70530 0.40809 -0.32400
C 	C 	0.52364 0.08028 0.91687 -0.04100
C 	C 	0.42740 0.46065 0.80780 0.01200
F 	F 	0.50671 0.16209 0.69190 -0.30500
C 	C 	0.55782 0.65255 0.93946 0.78700
F 	F 	0.37712 0.96207 0.59385 -0.39600
O 	O 	0.45121 0.11457 0.55996 -0.26100
F 	F 	0.46163 0.88528 0.15468 -0.30000
C 	C 	0.44884 0.59445 0.48161 0.29100
F 	F 	0.36173 0.91776 0.71104 -0.29200
C 	C 	0.52462 0.57178 0.95914 -0.07900
F 	F 	0.05721 0.88458 0.89917 -0.28700
C 	C 	0.43653 0.07318 0.53581 0.30600
C 	C 	0.49696 0.91946 0.12969 0.26500
C 	C 	0.48848 0.80725 0.32787 0.24800
F 	F 	0.48352 0.87871 0.31705 -0.29300
F 	F 	0.46908 0.26760 0.46195 -0.40200
C 	C 	0.51835 0.58162 0.98799 0.03900
F 	F 	0.60076 0.64130 0.91782 -0.38700
C 	C 	0.49954 0.66234 0.35183 0.33100
C 	C 	0.41877 0.93014 0.57779 0.79500
H 	H 	0.50482 0.47520 0.92747 0.12100
F 	F 	0.50725 0.59473 0.36427 -0.30700
C 	C 	0.51201 0.48836 0.94932 0.05600
F 	F 	0.50069 0.99554 0.57555 -0.44300
C 	C 	0.45793 0.02588 0.66572 0.04400
F 	F 	0.48048 0.36352 0.03859 -0.35200
F 	F 	0.41362 0.85424 0.59074 -0.34800
C 	C 	0.05648 0.60567 0.90886 0.11700
O 	O 	0.47503 0.65778 0.46179 -0.28900
F 	F 	0.46779 0.53385 0.87961 -0.32300
C 	C 	0.48097 0.51757 0.85322 0.33500
C 	C 	0.52236 0.51814 0.00594 0.08200
C 	C 	0.50720 0.48427 0.79865 0.24300
C 	C 	0.56923 0.98823 0.07801 0.27400
F 	F 	0.45554 0.58486 0.54902 -0.38100
C 	C 	0.52034 0.11348 0.67242 0.23500
H 	H 	0.52152 0.52665 0.02805 0.12900
F 	F 	0.49408 0.28834 0.00287 -0.37300
F 	F 	0.51998 0.46612 0.77240 -0.29600
O 	O 	0.46959 0.12073 0.51301 -0.30400
F 	F 	0.42542 0.88263 0.64594 -0.27000
F 	F 	0.85310 0.09196 0.65231 -0.33400
O 	O 	0.97365 0.83796 0.75473 -0.31700
C 	C 	0.98907 0.71572 0.15260 0.21900
C 	C 	0.98200 0.77081 0.17258 0.31600
F 	F 	0.93600 0.62480 0.15299 -0.29800
F 	F 	0.92262 0.73267 0.19244 -0.33400
F 	F 	0.99305 0.72744 0.07746 -0.33500
C 	C 	0.82488 0.64872 0.93514 0.37400
C 	C 	0.64534 0.23960 0.92502 0.30300
C 	C 	0.90455 0.50927 0.91111 0.31000
C 	C 	0.58011 0.39760 0.95520 0.27900
C 	C 	0.71046 0.39666 0.84471 0.42400
C 	C 	0.60960 0.51680 0.86643 0.41700
Ni	Ni	0.75122 0.43754 0.94213 1.15500
Ni	Ni	0.60755 0.36421 0.89553 1.15300
Ni	Ni	0.77869 0.54508 0.88357 1.14500
O 	O 	0.82713 0.58003 0.94849 -0.28200
O 	O 	0.78784 0.63762 0.91113 -0.31600
O 	O 	0.63527 0.36563 0.85487 -0.30600
O 	O 	0.68574 0.29445 0.94543 -0.27000
O 	O 	0.64681 0.27339 0.90072 -0.28700
O 	O 	0.69081 0.55737 0.86180 -0.28600
O 	O 	0.84229 0.43270 0.91928 -0.28600
O 	O 	0.89091 0.56843 0.89770 -0.32300
O 	O 	0.57349 0.45646 0.88652 -0.34100
O 	O 	0.65490 0.42939 0.96536 -0.26900
O 	O 	0.55367 0.33890 0.93434 -0.27100
O 	O 	0.77565 0.44886 0.85928 -0.34700
O 	O 	0.70556 0.45984 0.91036 -0.71900
H 	H 	0.68195 0.49533 0.91849 0.17800
C 	C 	0.67039 0.07519 0.52701 0.42700
C 	C 	0.55025 0.33546 0.51278 0.30000
C 	C 	0.77961 0.31214 0.49860 0.31700
C 	C 	0.70014 0.38613 0.58771 0.40900
C 	C 	0.61734 0.16077 0.60649 0.40900
Ni	Ni	0.59626 0.18770 0.50558 1.13800
Ni	Ni	0.54877 0.24203 0.56532 1.13900
Ni	Ni	0.72610 0.25284 0.55620 1.14100
O 	O 	0.60847 0.07177 0.51236 -0.29800
O 	O 	0.73361 0.15411 0.53442 -0.32600
O 	O 	0.63281 0.37011 0.57446 -0.33700
O 	O 	0.59782 0.31137 0.49897 -0.27300
O 	O 	0.50464 0.28560 0.53371 -0.31700
O 	O 	0.68359 0.17522 0.59142 -0.28000
O 	O 	0.71406 0.24309 0.48829 -0.26300
O 	O 	0.77766 0.33919 0.52376 -0.33700
O 	O 	0.57599 0.20519 0.60186 -0.33100
O 	O 	0.75402 0.36762 0.57634 -0.32200
O 	O 	0.61722 0.21106 0.54370 -0.72200
H 	H 	0.59317 0.14834 0.55072 0.17800
C 	C 	0.91129 0.79591 0.73791 0.42000
C 	C 	0.96006 0.97075 0.79405 0.34800
C 	C 	0.89496 0.96579 0.67443 0.43300
C 	C 	0.93499 0.14981 0.72698 0.39600
Ni	Ni	0.89292 0.95953 0.73574 1.13100
O 	O 	0.85792 0.97057 0.69712 -0.33400
O 	O 	0.88361 0.84111 0.72361 -0.34900
O 	O 	0.97229 0.14709 0.70370 -0.31400
O 	O 	0.89791 0.07827 0.74386 -0.32800
O 	O 	0.89709 0.92865 0.77666 -0.30300
C 	C 	0.85908 0.03891 0.26829 0.40600
C 	C 	0.83948 0.00231 0.19674 0.48500
Ni	Ni	0.98066 0.16181 0.22147 1.12400
Ni	Ni	0.93610 0.95360 0.23609 1.12800
O 	O 	0.88047 0.10743 0.25015 -0.28600
O 	O 	0.89984 0.99330 0.27001 -0.35800
O 	O 	0.90776 0.07684 0.19086 -0.35300
O 	O 	0.83579 0.94995 0.21758 -0.34000
O 	O 	0.95901 0.91246 0.20015 -0.35400
C 	C 	0.68114 0.05056 0.16504 0.26000
C 	C 	0.63611 0.97211 0.14941 0.00600
C 	C 	0.65046 0.89824 0.15251 0.23500
C 	C 	0.71382 0.90567 0.16953 0.35300
C 	C 	0.76325 0.98703 0.18342 -0.24000
C 	C 	0.74455 0.05812 0.18197 0.37400
C 	C 	0.58295 0.97198 0.12709 -0.03100
F 	F 	0.60595 0.82126 0.13784 -0.31500
F 	F 	0.78937 0.13543 0.19648 -0.35300
C 	C 	0.61824 0.01204 0.10152 0.30700
F 	F 	0.70093 0.06800 0.09911 -0.31200
F 	F 	0.60450 0.02249 0.05306 -0.28100
F 	F 	0.66584 0.12106 0.16286 -0.29300
F 	F 	0.73019 0.83584 0.17127 -0.33600
C 	C 	0.63307 0.89789 0.28234 0.25900
C 	C 	0.63368 0.87504 0.31019 -0.00500
C 	C 	0.70634 0.92315 0.32545 0.26200
C 	C 	0.77967 0.98643 0.31227 0.28000
C 	C 	0.78074 0.00318 0.28381 -0.13200
C 	C 	0.70586 0.96357 0.26942 0.29300
C 	C 	0.55915 0.79922 0.32327 0.01000
F 	F 	0.70647 0.90626 0.35286 -0.31300
F 	F 	0.70457 0.98436 0.24247 -0.35000
C 	C 	0.56153 0.72267 0.33369 0.24500
F 	F 	0.62652 0.71012 0.32767 -0.30800
F 	F 	0.56282 0.85394 0.26749 -0.30200
F 	F 	0.85074 0.02755 0.32679 -0.30300
C 	C 	0.89817 0.46202 0.48629 0.10700
C 	C 	0.85214 0.36919 0.48061 0.00100
C 	C 	0.88326 0.33101 0.46100 -0.03700
C 	C 	0.82896 0.23708 0.44922 0.77300
H 	H 	0.87059 0.49316 0.49879 0.10700
F 	F 	0.86962 0.21634 0.42896 -0.36500
F 	F 	0.75980 0.23308 0.43743 -0.37100
F 	F 	0.80534 0.17200 0.46985 -0.37300
C 	C 	0.50364 0.49200 0.46778 0.04800
C 	C 	0.49656 0.54692 0.48796 0.03700
C 	C 	0.52375 0.54489 0.51504 -0.07500
C 	C 	0.54288 0.47642 0.52248 0.06300
C 	C 	0.54040 0.41378 0.50296 0.02600
C 	C 	0.52099 0.42195 0.47510 -0.06300
C 	C 	0.51827 0.35662 0.45317 0.77900
H 	H 	0.49295 0.50192 0.44652 0.14200
H 	H 	0.55831 0.47078 0.54365 0.11800
C 	C 	0.53116 0.61408 0.53627 0.78500
F 	F 	0.48603 0.36750 0.42871 -0.36600
F 	F 	0.59725 0.37229 0.44780 -0.38200
F 	F 	0.55690 0.69809 0.52398 -0.39700
F 	F 	0.58827 0.62505 0.55617 -0.36100
C 	C 	0.78351 0.96186 0.54853 0.20900
C 	C 	0.73051 0.91267 0.57051 0.02500
C 	C 	0.64594 0.88338 0.56800 0.25100
C 	C 	0.61943 0.92164 0.54742 0.35800
C 	C 	0.67796 0.99273 0.53089 -0.22900
C 	C 	0.75681 0.00120 0.52843 0.38200
C 	C 	0.76585 0.92073 0.59823 0.02000
F 	F 	0.59105 0.82431 0.58675 -0.26700
F 	F 	0.81123 0.05844 0.50927 -0.31600
C 	C 	0.78614 0.99859 0.61383 0.19300
C 	C 	0.82955 0.01372 0.63838 0.38300
C 	C 	0.85125 0.95000 0.64810 -0.23100
C 	C 	0.82981 0.87107 0.63284 0.34600
C 	C 	0.78743 0.85663 0.60787 0.24400
F 	F 	0.76636 0.06141 0.60457 -0.31500
F 	F 	0.85001 0.80864 0.64215 -0.34300
F 	F 	0.76822 0.78115 0.59295 -0.28600
F 	F 	0.86366 0.98212 0.54882 -0.31800
F 	F 	0.53810 0.89183 0.54409 -0.35200
C 	C 	0.59331 0.15441 0.65675 0.34600
C 	C 	0.59984 0.11057 0.63306 -0.16600
C 	C 	0.55159 0.01556 0.63275 0.39100
C 	C 	0.47794 0.97307 0.64835 0.20800
F 	F 	0.57414 0.96554 0.61685 -0.31700
F 	F 	0.65138 0.24078 0.66211 -0.32500
C 	C 	0.76011 0.57180 0.71294 0.25500
C 	C 	0.80752 0.56606 0.69125 0.00900
C 	C 	0.89399 0.61789 0.69217 0.25500
C 	C 	0.93149 0.68292 0.71263 0.30800
C 	C 	0.88270 0.70143 0.73070 -0.17400
C 	C 	0.79792 0.63913 0.73284 0.33700
C 	C 	0.76731 0.51018 0.66694 0.00800
F 	F 	0.94113 0.60982 0.67211 -0.31600
F 	F 	0.75099 0.65069 0.75220 -0.31300
C 	C 	0.72200 0.53427 0.64888 0.25000
C 	C 	0.69576 0.49055 0.62346 0.33500
C 	C 	0.71660 0.42429 0.61571 -0.19800
C 	C 	0.76171 0.40060 0.63399 0.33900
C 	C 	0.78365 0.44051 0.65980 0.26300
F 	F 	0.70681 0.60274 0.65543 -0.29600
F 	F 	0.78383 0.33794 0.62674 -0.34300
F 	F 	0.65441 0.51626 0.60585 -0.32300
F 	F 	0.82438 0.41425 0.67753 -0.29800
F 	F 	0.67719 0.51582 0.71381 -0.29200
C 	C 	0.98667 0.54177 0.92372 0.00800
C 	C 	0.99448 0.52828 0.95230 -0.10600
H 	H 	0.05169 0.61302 0.88684 0.12600
C 	C 	0.93172 0.44309 0.96763 0.79400
F 	F 	0.91037 0.36689 0.95183 -0.39200
F 	F 	0.86225 0.44941 0.97389 -0.47100
F 	F 	0.96325 0.43122 0.99213 -0.37200
C 	C 	0.63420 0.10135 0.94804 0.06200
C 	C 	0.60117 0.13883 0.92945 0.03800
C 	C 	0.58917 0.00903 0.95591 -0.02000
C 	C 	0.62691 0.96899 0.97516 0.74200
H 	H 	0.69435 0.14464 0.95681 0.14200
F 	F 	0.71190 0.02231 0.97602 -0.33700
F 	F 	0.60861 0.88364 0.96629 -0.36300
F 	F 	0.59517 0.96168 0.00144 -0.39000
C 	C 	0.52781 0.43238 0.96648 0.04100
C 	C 	0.52409 0.44153 0.99538 -0.05900
C 	C 	0.52645 0.37283 0.01503 0.78800
F 	F 	0.61200 0.73165 0.95271 -0.34300
F 	F 	0.60707 0.40173 0.02248 -0.37400
C 	C 	0.72258 0.26668 0.78452 0.24200
C 	C 	0.78585 0.33762 0.76905 0.00900
C 	C 	0.80799 0.42794 0.77490 0.24900
C 	C 	0.77668 0.44758 0.79856 0.33300
C 	C 	0.72191 0.37668 0.81615 -0.18600
C 	C 	0.69048 0.28628 0.80796 0.33100
C 	C 	0.83978 0.31806 0.75142 0.00300
F 	F 	0.86503 0.49684 0.75896 -0.32800
F 	F 	0.63425 0.21726 0.82401 -0.30700
C 	C 	0.80731 0.26393 0.72802 0.26100
C 	C 	0.84432 0.21548 0.71765 0.33200
C 	C 	0.91497 0.22274 0.73030 -0.17600
C 	C 	0.95424 0.28753 0.75086 0.29500
C 	C 	0.91677 0.33519 0.76144 0.24900
F 	F 	0.73533 0.25101 0.71717 -0.28500
F 	F 	0.02485 0.29825 0.76228 -0.31800
F 	F 	0.80687 0.15454 0.69725 -0.31100
F 	F 	0.95096 0.39103 0.78325 -0.32600
F 	F 	0.69783 0.17876 0.77829 -0.30800
F 	F 	0.80381 0.53552 0.80543 -0.33900
C 	C 	0.55696 0.52520 0.84538 -0.17700
C 	C 	0.57215 0.51759 0.81733 0.32800
F 	F 	0.64765 0.53359 0.80873 -0.32100
C 	C 	0.99496 0.00792 0.87065 0.25500
C 	C 	0.93145 0.92523 0.88118 -0.02400
C 	C 	0.86931 0.86509 0.86344 0.24000
C 	C 	0.87479 0.88326 0.83510 0.31300
C 	C 	0.94230 0.96248 0.82413 -0.18200
C 	C 	0.99986 0.02703 0.84229 0.31200
C 	C 	0.93595 0.89485 0.90953 0.01200
F 	F 	0.80616 0.78606 0.87347 -0.33800
F 	F 	0.06194 0.10696 0.83233 -0.29400
C 	C 	0.87077 0.87389 0.92825 0.24900
C 	C 	0.84491 0.79896 0.94616 0.32700
C 	C 	0.88031 0.74276 0.94334 -0.16800
C 	C 	0.96112 0.78347 0.93281 0.29500
C 	C 	0.98777 0.85766 0.91458 0.20600
F 	F 	0.82580 0.91706 0.92629 -0.29500
F 	F 	0.00603 0.74056 0.93544 -0.34000
F 	F 	0.77527 0.77039 0.96155 -0.31300
F 	F 	0.05350 0.06830 0.88773 -0.26600
F 	F 	0.81720 0.82094 0.81817 -0.33200
