data_crystal

_cell_length_a 20.12614
_cell_length_b 21.46550
_cell_length_c 31.24909
_cell_angle_alpha 60.83309
_cell_angle_beta  118.86451
_cell_angle_gamma 133.21840

_symmetry_space_group_name_	'P 1'
_symmetry_space_group_name_H-M	'P 1'

loop_
_symmetry_equiv_pos_as_xyz
  x,y,z

loop_
_atom_site_label
_atom_site_type_symbol
_atom_site_fract_x
_atom_site_fract_y
_atom_site_fract_z
_atom_site_charge
C 	C 	0.03664 0.01300 0.26949 0.31700
Co	Co	0.02503 0.09743 0.60083 1.19500
O 	O 	0.02036 0.07049 0.23465 -0.36200
O 	O 	0.03544 0.96016 0.25699 -0.26600
O 	O 	0.03855 0.02160 0.48384 -0.41900
C 	C 	0.04377 0.00521 0.41238 -0.29200
N 	N 	0.14104 0.37704 0.01828 -0.09200
O 	O 	0.00388 0.88237 0.99336 -0.30800
N 	N 	0.02383 0.77248 0.98247 -0.03100
N 	N 	0.07025 0.69722 0.23321 -0.09100
Co	Co	0.04694 0.88506 0.13463 1.19300
O 	O 	0.01549 0.10231 0.02939 -0.44200
O 	O 	0.02586 0.74680 0.62056 -0.38800
O 	O 	0.02648 0.90749 0.58093 -0.70700
O 	O 	0.03842 0.99531 0.11881 -0.51800
O 	O 	0.07152 0.79760 0.09208 -0.36300
C 	C 	0.06179 0.99330 0.46735 0.53600
C 	C 	0.05021 0.00410 0.32332 -0.18800
Co	Co	0.05264 0.02609 0.04166 1.16000
C 	C 	0.03662 0.21272 0.12782 0.34700
O 	O 	0.07353 0.94860 0.07715 -0.71700
Co	Co	0.07639 0.01663 0.56144 1.17000
Co	Co	0.06434 0.85691 0.56095 1.18900
C 	C 	0.05757 0.75459 0.66639 0.30900
O 	O 	0.05904 0.14225 0.70414 -0.34000
O 	O 	0.05145 0.80373 0.67628 -0.35500
C 	C 	0.03551 0.01033 0.83501 0.25200
C 	C 	0.03629 0.01645 0.87831 0.23900
C 	C 	0.13739 0.37760 0.05392 0.09300
O 	O 	0.06537 0.19209 0.10957 -0.36500
O 	O 	0.09792 0.12739 0.55719 -0.44200
C 	C 	0.06268 0.62496 0.71220 0.07800
H 	H 	0.06873 0.52854 0.71155 0.08300
O 	O 	0.10958 0.96162 0.49911 -0.39600
C 	C 	0.12795 0.72559 0.21569 0.09800
F 	F 	0.10762 0.09110 0.89499 -0.39700
F 	F 	0.10524 0.07960 0.81057 -0.40200
C 	C 	0.11766 0.08020 0.34236 0.25000
C 	C 	0.11441 0.08071 0.38637 0.29900
C 	C 	0.10886 0.71576 0.70432 -0.07900
C 	C 	0.09656 0.30109 0.13699 -0.07700
C 	C 	0.10798 0.59632 0.71193 -0.05400
H 	H 	0.06752 0.24614 0.21005 0.06200
O 	O 	0.00432 0.85024 0.19522 -0.41400
C 	C 	0.09772 0.30581 0.18071 0.02200
C 	C 	0.13349 0.37877 0.09843 0.03000
Co	Co	0.12699 0.92510 0.04770 1.18400
C 	C 	0.12249 0.20607 0.67743 0.29400
O 	O 	0.13400 0.18947 0.64621 -0.36100
H 	H 	0.12106 0.33796 0.59799 0.05700
N 	N 	0.12491 0.52317 0.55575 -0.08900
C 	C 	0.13435 0.38604 0.18615 -0.01900
C 	C 	0.13303 0.38813 0.23123 0.11500
N 	N 	0.13203 0.38987 0.26734 -0.09000
C 	C 	0.96872 0.56147 0.71981 0.02800
O 	O 	0.97669 0.98293 0.97300 -0.32000
Co	Co	0.97851 0.07149 0.09114 1.15600
C 	C 	0.22825 0.91094 0.15214 0.29300
O 	O 	0.95176 0.15701 0.13537 -0.44000
O 	O 	0.24009 0.96541 0.10743 -0.36500
O 	O 	0.17302 0.89502 0.17362 -0.34300
O 	O 	0.18560 0.05022 0.00045 -0.41100
O 	O 	0.18934 0.12571 0.03441 -0.38600
C 	C 	0.93779 0.94503 0.76038 0.39700
O 	O 	0.19702 0.92851 0.60328 -0.32800
O 	O 	0.21383 0.05218 0.59340 -0.37500
F 	F 	0.18279 0.15353 0.40499 -0.40400
F 	F 	0.18558 0.15457 0.31762 -0.39300
C 	C 	0.17209 0.29817 0.67772 -0.06200
C 	C 	0.15077 0.35254 0.63427 0.00600
C 	C 	0.21580 0.32127 0.72416 0.02500
C 	C 	0.25635 0.27853 0.76732 0.12400
N 	N 	0.28953 0.24488 0.80193 -0.07100
N 	N 	0.89343 0.51047 0.72611 -0.08900
C 	C 	0.21245 0.70237 0.19546 -0.03300
C 	C 	0.19978 0.76062 0.19386 0.02500
C 	C 	0.25813 0.85230 0.17165 -0.06200
H 	H 	0.16830 0.63264 0.21283 0.06800
N 	N 	0.23369 0.91542 0.51877 -0.11700
C 	C 	0.73098 0.28107 0.05102 0.11800
N 	N 	0.79930 0.35401 0.07036 -0.13600
C 	C 	0.77545 0.39767 0.07371 0.12100
N 	N 	0.68496 0.36841 0.05804 -0.13200
C 	C 	0.61765 0.29721 0.03851 0.12900
N 	N 	0.64083 0.25485 0.03385 -0.13600
C 	C 	0.72878 0.30130 0.52129 0.12000
N 	N 	0.64961 0.23505 0.53924 -0.14000
C 	C 	0.60713 0.25402 0.54916 0.13200
N 	N 	0.64167 0.33885 0.53952 -0.13000
C 	C 	0.72352 0.40530 0.52515 0.12700
N 	N 	0.76754 0.38692 0.51582 -0.12900
C 	C 	0.30030 0.67320 0.18061 0.12700
N 	N 	0.22936 0.59700 0.16465 -0.12800
C 	C 	0.24986 0.54888 0.16356 0.12600
N 	N 	0.33985 0.57740 0.17749 -0.13100
C 	C 	0.40998 0.65252 0.19321 0.13100
N 	N 	0.39012 0.69910 0.19613 -0.12700
C 	C 	0.24617 0.63527 0.69616 0.12500
N 	N 	0.20625 0.54986 0.69982 -0.12600
C 	C 	0.24648 0.53328 0.68557 0.12900
N 	N 	0.32573 0.60084 0.66872 -0.13000
C 	C 	0.36311 0.68516 0.66297 0.13300
N 	N 	0.32307 0.70242 0.67634 -0.13000
Co	Co	0.97410 0.93105 0.18453 1.18400
C 	C 	0.23132 0.11919 0.01661 0.32000
Co	Co	0.89849 0.02876 0.17952 1.14300
C 	C 	0.98503 0.74379 0.09641 0.25600
O 	O 	0.78509 0.98584 0.12048 -0.32100
O 	O 	0.95972 0.01272 0.15067 -0.80000
C 	C 	0.79511 0.03934 0.07573 0.22900
C 	C 	0.79251 0.83506 0.20505 0.31200
C 	C 	0.98500 0.93833 0.95935 0.33800
O 	O 	0.84797 0.05350 0.05344 -0.37500
O 	O 	0.83841 0.90107 0.22415 -0.35800
O 	O 	0.83271 0.83667 0.18118 -0.38600
O 	O 	0.95437 0.76739 0.11120 -0.38800
Co	Co	0.91233 0.91943 0.66514 1.20100
Co	Co	0.95996 0.83874 0.62382 1.17000
C 	C 	0.24512 0.01482 0.59217 0.21100
Co	Co	0.92020 0.07415 0.66729 1.14700
C 	C 	0.86099 0.72659 0.54829 0.28800
O 	O 	0.95369 0.18448 0.60759 -0.42600
O 	O 	0.95297 0.02621 0.64149 -0.80700
C 	C 	0.92409 0.17937 0.56119 0.29900
O 	O 	0.89550 0.81009 0.67172 -0.44800
C 	C 	0.73793 0.91196 0.64089 0.29900
O 	O 	0.97121 0.96320 0.60141 -0.56100
O 	O 	0.94352 0.14374 0.54837 -0.39600
O 	O 	0.78667 0.99860 0.62737 -0.34800
O 	O 	0.77126 0.87020 0.64779 -0.35200
O 	O 	0.88321 0.96989 0.73033 -0.37800
O 	O 	0.96926 0.92812 0.74132 -0.36000
O 	O 	0.92623 0.79220 0.52264 -0.35900
O 	O 	0.85406 0.73744 0.58456 -0.36400
C 	C 	0.96102 0.93503 0.81562 -0.17600
C 	C 	0.89052 0.86347 0.84251 0.27400
C 	C 	0.89257 0.86854 0.88660 0.26200
C 	C 	0.96557 0.94510 0.90506 -0.15100
F 	F 	0.82469 0.79772 0.91221 -0.38200
F 	F 	0.81714 0.79037 0.82455 -0.39100
C 	C 	0.97941 0.92876 0.34922 0.26200
C 	C 	0.97500 0.92999 0.39256 0.30700
F 	F 	0.90614 0.85624 0.41670 -0.41200
F 	F 	0.91300 0.85474 0.33174 -0.40400
C 	C 	0.16328 0.42319 0.63760 -0.01600
C 	C 	0.20185 0.44316 0.68462 0.00400
C 	C 	0.22662 0.39079 0.72776 -0.03200
H 	H 	0.26106 0.40836 0.76354 0.07000
C 	C 	0.14157 0.47835 0.59210 0.10700
C 	C 	0.45378 0.75674 0.64850 0.00600
C 	C 	0.52595 0.81908 0.67731 -0.03200
C 	C 	0.61873 0.87170 0.67419 0.02900
C 	C 	0.64029 0.86038 0.64277 -0.05900
C 	C 	0.56756 0.80299 0.61112 0.01600
C 	C 	0.47426 0.75328 0.61264 -0.01700
H 	H 	0.51059 0.82350 0.70409 0.07500
H 	H 	0.58347 0.79803 0.58479 0.06000
C 	C 	0.39993 0.70091 0.57640 0.11000
C 	C 	0.69126 0.93639 0.70380 0.09900
N 	N 	0.34061 0.65909 0.54727 -0.09500
N 	N 	0.74879 0.98821 0.72754 -0.09200
C 	C 	0.20350 0.65617 0.71116 0.01500
C 	C 	0.20696 0.77092 0.71345 0.01600
C 	C 	0.25498 0.74069 0.71859 -0.02400
H 	H 	0.24533 0.83915 0.71267 0.06200
C 	C 	0.35579 0.79305 0.73588 0.11300
N 	N 	0.43657 0.83527 0.75001 -0.09500
C 	C 	0.17551 0.46429 0.14893 0.00600
C 	C 	0.17087 0.45932 0.10420 -0.03800
H 	H 	0.20287 0.51942 0.07544 0.06100
C 	C 	0.50687 0.69148 0.19749 0.00100
C 	C 	0.53384 0.71955 0.15409 -0.03300
C 	C 	0.62557 0.75638 0.15695 0.02200
C 	C 	0.69203 0.76743 0.20363 -0.06800
C 	C 	0.66239 0.73147 0.24768 0.00800
C 	C 	0.57044 0.69441 0.24478 -0.01500
H 	H 	0.48347 0.71363 0.11793 0.06200
H 	H 	0.71264 0.73746 0.28387 0.08300
C 	C 	0.54205 0.66005 0.29040 0.11200
C 	C 	0.65160 0.78527 0.11154 0.09700
N 	N 	0.51916 0.63244 0.32690 -0.09100
N 	N 	0.67237 0.80842 0.07514 -0.10100
C 	C 	0.28228 0.73396 0.17512 0.00400
C 	C 	0.33296 0.88384 0.15565 0.00300
C 	C 	0.34123 0.82534 0.15398 -0.01700
H 	H 	0.37973 0.95395 0.13992 0.06900
C 	C 	0.40529 0.85890 0.12683 0.10900
N 	N 	0.45632 0.88543 0.10503 -0.09700
C 	C 	0.87141 0.21685 0.52366 -0.08200
C 	C 	0.91751 0.30772 0.51444 0.00800
C 	C 	0.86900 0.33934 0.50661 -0.02800
C 	C 	0.77408 0.27868 0.50995 0.00100
C 	C 	0.72468 0.19129 0.50864 -0.04400
C 	C 	0.77282 0.16117 0.51405 0.01500
H 	H 	0.99236 0.35295 0.51688 0.03400
H 	H 	0.64950 0.14597 0.50517 0.05300
C 	C 	0.72094 0.07186 0.51202 0.07200
C 	C 	0.91364 0.43309 0.48971 0.09900
N 	N 	0.67925 0.00028 0.51029 -0.12300
N 	N 	0.94915 0.50825 0.47592 -0.10400
C 	C 	0.80950 0.63669 0.54410 -0.06300
C 	C 	0.83153 0.58026 0.58461 -0.00000
C 	C 	0.81749 0.51263 0.57669 -0.02000
C 	C 	0.77123 0.49423 0.52880 0.00100
C 	C 	0.74476 0.54791 0.48867 -0.03100
C 	C 	0.76243 0.61799 0.49621 0.02500
H 	H 	0.86446 0.59209 0.62182 0.05100
H 	H 	0.70597 0.53228 0.45217 0.06700
C 	C 	0.72874 0.66828 0.45512 0.12400
C 	C 	0.84925 0.46103 0.61821 0.09500
N 	N 	0.70159 0.70848 0.42221 -0.07200
N 	N 	0.87454 0.41949 0.65135 -0.11500
C 	C 	0.34128 0.06949 0.58622 -0.02800
C 	C 	0.41451 0.13824 0.61055 -0.01600
C 	C 	0.50513 0.19306 0.60337 -0.00600
C 	C 	0.52162 0.18277 0.56881 -0.02000
C 	C 	0.45028 0.11009 0.54757 -0.00300
C 	C 	0.36083 0.05255 0.55668 -0.06800
H 	H 	0.40129 0.14834 0.63562 0.05500
H 	H 	0.46341 0.10004 0.52243 0.04100
C 	C 	0.28995 0.97643 0.53561 0.17800
C 	C 	0.58133 0.25755 0.63285 0.09200
N 	N 	0.64225 0.30915 0.65650 -0.10300
C 	C 	0.76601 0.09851 0.05730 -0.06700
C 	C 	0.69726 0.06963 0.07744 -0.01400
C 	C 	0.69378 0.13015 0.08076 -0.02600
C 	C 	0.75009 0.22055 0.05718 -0.00300
C 	C 	0.81307 0.24932 0.03259 -0.04600
C 	C 	0.82105 0.18890 0.03224 0.02400
H 	H 	0.65197 0.00019 0.09493 0.03300
H 	H 	0.85408 0.31797 0.01268 0.05100
C 	C 	0.87982 0.21905 0.00289 0.04700
C 	C 	0.63549 0.09944 0.11077 0.08200
N 	N 	0.92658 0.24311 0.97913 -0.08300
N 	N 	0.58901 0.07515 0.13480 -0.12600
C 	C 	0.84755 0.48256 0.08848 0.00100
C 	C 	0.90157 0.55684 0.05439 -0.05100
C 	C 	0.93772 0.64115 0.05322 0.04600
C 	C 	0.92677 0.65339 0.08968 -0.06900
C 	C 	0.87858 0.57937 0.12641 0.00400
C 	C 	0.83972 0.49443 0.12624 -0.02500
H 	H 	0.90856 0.54836 0.02561 0.05800
H 	H 	0.87342 0.58784 0.15593 0.04900
C 	C 	0.79057 0.41940 0.16450 0.09200
C 	C 	0.98547 0.71455 0.01403 0.00500
N 	N 	0.75109 0.35922 0.19512 -0.11100
C 	C 	0.33237 0.18424 0.01965 -0.10100
C 	C 	0.36492 0.21564 0.97760 0.03400
C 	C 	0.45766 0.25119 0.98334 0.00100
C 	C 	0.51912 0.25710 0.03146 -0.02500
C 	C 	0.48865 0.23222 0.07269 -0.03700
C 	C 	0.39617 0.19695 0.06696 0.02200
H 	H 	0.31643 0.20765 0.94092 0.08000
H 	H 	0.53702 0.23968 0.10944 0.05800
C 	C 	0.36632 0.17053 0.11031 0.07800
C 	C 	0.48900 0.28109 0.93976 0.11100
N 	N 	0.34245 0.14933 0.14506 -0.11500
N 	N 	0.51408 0.30503 0.90485 -0.09200
