data_crystal

_cell_length_a 20.46755
_cell_length_b 18.50045
_cell_length_c 47.00930
_cell_angle_alpha 90.71786
_cell_angle_beta  90.82271
_cell_angle_gamma 113.76594

_symmetry_space_group_name_	'P 1'
_symmetry_space_group_name_H-M	'P 1'

loop_
_symmetry_equiv_pos_as_xyz
  x,y,z

loop_
_atom_site_label
_atom_site_type_symbol
_atom_site_fract_x
_atom_site_fract_y
_atom_site_fract_z
_atom_site_charge
O 	O 	0.44100 0.84760 0.00513 -0.26100
C 	C 	0.90784 0.38031 0.00182 0.77900
C 	C 	0.41561 0.90196 0.00104 0.28000
O 	O 	0.35370 0.89250 0.01154 -0.37200
C 	C 	0.50497 0.60929 0.00695 0.00700
C 	C 	0.57271 0.52662 0.00724 -0.09500
F 	F 	0.85195 0.40253 0.00674 -0.43900
Ni	Ni	0.30895 0.58034 0.01243 1.11900
H 	H 	0.05113 0.43832 0.01333 0.07900
O 	O 	0.32587 0.69217 0.01625 -0.68600
O 	O 	0.16323 0.59942 0.02423 -0.35100
C 	C 	0.46431 0.64509 0.02323 0.27900
O 	O 	0.48220 0.72187 0.02255 -0.28000
C 	C 	0.54244 0.57220 0.02181 0.05600
F 	F 	0.56724 0.96434 0.02121 -0.44000
F 	F 	0.58421 0.40681 0.01735 -0.42700
F 	F 	0.68419 0.51893 0.01582 -0.45500
C 	C 	0.61336 0.48702 0.02357 0.78000
F 	F 	0.93128 0.36492 0.02792 -0.43300
O 	O 	0.40326 0.59891 0.03414 -0.37500
Ni	Ni	0.24812 0.69522 0.04065 1.10900
Ni	Ni	0.41419 0.76885 0.03850 1.11100
O 	O 	0.24781 0.52118 0.04615 -0.36500
H 	H 	0.54686 0.57793 0.04480 0.08400
O 	O 	0.23056 0.85204 0.04889 -0.38600
H 	H 	0.09872 0.87066 0.05231 0.08200
Ni	Ni	0.34092 0.89127 0.05421 1.07800
H 	H 	0.09212 0.41317 0.06007 0.18200
O 	O 	0.33523 0.78446 0.05863 -0.69700
F 	F 	0.61073 0.49709 0.05270 -0.43000
O 	O 	0.18002 0.72515 0.06453 -0.34300
C 	C 	0.18612 0.79858 0.06566 0.30300
O 	O 	0.13226 0.39741 0.06397 -0.26700
O 	O 	0.44881 0.94458 0.06135 -0.37000
O 	O 	0.49511 0.85007 0.06209 -0.32500
C 	C 	0.24294 0.55317 0.07076 0.32900
O 	O 	0.26024 0.62927 0.07328 -0.39300
C 	C 	0.09987 0.85902 0.07482 -0.02100
H 	H 	0.33910 0.77523 0.07917 0.16400
C 	C 	0.48549 0.90958 0.07449 0.31000
H 	H 	0.59940 0.04957 0.07720 0.11200
C 	C 	0.14150 0.82027 0.08508 -0.12000
O 	O 	0.01881 0.92060 0.08336 -0.25000
H 	H 	0.05101 0.97747 0.08287 0.15800
C 	C 	0.15627 0.42566 0.09095 0.20500
C 	C 	0.06021 0.88360 0.09362 0.11700
C 	C 	0.21113 0.50172 0.09526 -0.11300
C 	C 	0.58837 0.01916 0.09727 -0.02900
C 	C 	0.52858 0.94776 0.09970 -0.10000
H 	H 	0.08382 0.32004 0.11078 0.08600
H 	H 	0.73332 0.09916 0.10974 0.17000
C 	C 	0.12522 0.37875 0.11432 -0.10900
C 	C 	0.14083 0.80284 0.11415 0.19500
O 	O 	0.69694 0.11666 0.11729 -0.25400
C 	C 	0.23298 0.53024 0.12320 -0.02400
C 	C 	0.06246 0.86970 0.12291 0.02700
O 	O 	0.17980 0.76288 0.12431 -0.27600
C 	C 	0.63650 0.04880 0.12023 0.13200
H 	H 	0.27506 0.58846 0.12682 0.06700
H 	H 	0.22737 0.80432 0.12959 0.14000
O 	O 	0.45161 0.84344 0.12918 -0.30700
H 	H 	0.46507 0.79875 0.12473 0.15400
C 	C 	0.51286 0.91032 0.12607 0.18600
H 	H 	0.11541 0.02564 0.13410 0.05900
C 	C 	0.10098 0.82711 0.13289 -0.11100
C 	C 	0.14613 0.40791 0.14215 0.01600
C 	C 	0.03503 0.91057 0.14345 -0.03000
H 	H 	0.90332 0.77894 0.14358 0.17300
H 	H 	0.98103 0.34678 0.14118 0.17000
C 	C 	0.20024 0.48400 0.14657 0.12400
C 	C 	0.07043 0.99247 0.14722 -0.05000
C 	C 	0.56001 0.94109 0.14922 -0.09600
C 	C 	0.62414 0.00730 0.14586 0.00700
H 	H 	0.70833 0.92800 0.14553 0.08100
H 	H 	0.10264 0.81601 0.15542 0.09100
H 	H 	0.06148 0.13496 0.15766 0.14600
O 	O 	0.94278 0.78719 0.15746 -0.27100
C 	C 	0.72357 0.97363 0.16202 -0.08300
O 	O 	0.00389 0.38022 0.15818 -0.27300
C 	C 	0.97754 0.86759 0.16086 0.16800
C 	C 	0.11090 0.35836 0.16661 -0.01100
C 	C 	0.04878 0.03184 0.16808 0.11600
O 	O 	0.08438 0.11195 0.17152 -0.25400
H 	H 	0.54944 0.90998 0.16915 0.08300
C 	C 	0.68420 0.01972 0.16549 -0.01700
O 	O 	0.22196 0.51285 0.17368 -0.26700
C 	C 	0.03882 0.34113 0.17218 0.14400
H 	H 	0.20295 0.33563 0.17863 0.08400
O 	O 	0.82224 0.94260 0.17516 -0.27900
H 	H 	0.94122 0.10640 0.17846 0.05900
C 	C 	0.14721 0.32201 0.18256 -0.08400
H 	H 	0.19106 0.54036 0.17907 0.15900
H 	H 	0.68659 0.16957 0.17873 0.17100
C 	C 	0.78320 0.98690 0.17937 0.15600
C 	C 	0.95700 0.90669 0.18232 -0.09200
C 	C 	0.70405 0.07890 0.18687 0.15100
H 	H 	0.79887 0.89476 0.18667 0.15000
C 	C 	0.99284 0.98884 0.18619 0.02600
O 	O 	0.66457 0.12288 0.19092 -0.26900
C 	C 	0.00231 0.28359 0.19202 -0.09600
H 	H 	0.91321 0.87322 0.19590 0.07800
H 	H 	0.94589 0.26786 0.19515 0.08100
C 	C 	0.11094 0.26517 0.20271 0.14800
C 	C 	0.76394 0.09226 0.20435 -0.08400
C 	C 	0.80439 0.04731 0.20032 -0.02900
C 	C 	0.94379 0.09483 0.20150 -0.04400
C 	C 	0.03705 0.24258 0.20636 -0.02300
C 	C 	0.97035 0.03030 0.20862 0.01600
O 	O 	0.14632 0.22680 0.21682 -0.26400
C 	C 	0.87184 0.06748 0.21652 0.01500
H 	H 	0.77984 0.13860 0.22058 0.08300
C 	C 	0.99313 0.16603 0.21959 0.02600
H 	H 	0.17261 0.26305 0.23272 0.15100
O 	O 	0.11046 0.00902 0.23247 -0.27600
H 	H 	0.77942 0.90071 0.23704 0.06000
C 	C 	0.97324 0.01615 0.23706 0.00900
H 	H 	0.13612 0.05401 0.24571 0.15700
C 	C 	0.87414 0.05260 0.24491 0.02200
C 	C 	0.05885 0.95395 0.24832 0.14500
H 	H 	0.00364 0.33216 0.25171 0.14800
C 	C 	0.98876 0.95011 0.24814 -0.00700
C 	C 	0.99504 0.15179 0.24810 0.03100
H 	H 	0.04060 0.68189 0.26335 0.15600
C 	C 	0.76671 0.92962 0.25496 -0.06600
C 	C 	0.94862 0.06677 0.25675 -0.05400
O 	O 	0.08356 0.73109 0.26739 -0.27000
C 	C 	0.07572 0.90020 0.26430 -0.07900
H 	H 	0.13049 0.90586 0.26556 0.08500
O 	O 	0.66894 0.80810 0.26575 -0.27000
C 	C 	0.80904 0.00939 0.26142 -0.03900
H 	H 	0.88051 0.88311 0.26100 0.07100
C 	C 	0.93490 0.88785 0.26175 -0.09200
O 	O 	0.98176 0.29232 0.26650 -0.25600
C 	C 	0.04613 0.20835 0.26847 -0.02500
C 	C 	0.70936 0.88620 0.27218 0.13200
C 	C 	0.03666 0.27610 0.27756 0.14100
H 	H 	0.10440 0.13528 0.27541 0.06900
C 	C 	0.02287 0.84230 0.28001 -0.01600
H 	H 	0.55323 0.87794 0.28202 0.08900
H 	H 	0.69228 0.77847 0.27627 0.15800
H 	H 	0.88085 0.72889 0.27773 0.16000
H 	H 	0.95074 0.05533 0.27984 0.05700
C 	C 	0.95153 0.83342 0.27732 0.15200
C 	C 	0.09854 0.18875 0.28167 -0.08300
C 	C 	0.79286 0.04603 0.28508 0.15800
C 	C 	0.07823 0.75008 0.29532 0.12000
C 	C 	0.69294 0.92292 0.29575 0.01000
O 	O 	0.83264 0.12448 0.29121 -0.26400
O 	O 	0.89868 0.77443 0.29133 -0.27100
C 	C 	0.07959 0.32352 0.29969 -0.08600
H 	H 	0.22144 0.47735 0.30272 0.14800
C 	C 	0.04393 0.80005 0.30238 0.01900
C 	C 	0.56165 0.86131 0.30334 -0.10000
C 	C 	0.73457 0.00299 0.30199 -0.09800
C 	C 	0.14213 0.23681 0.30347 0.14300
H 	H 	0.07068 0.37433 0.30727 0.07900
O 	O 	0.25148 0.45231 0.31134 -0.26500
H 	H 	0.23676 0.24344 0.30563 0.16500
H 	H 	0.14085 0.68886 0.31111 0.05200
O 	O 	0.43541 0.80892 0.31060 -0.30200
H 	H 	0.87122 0.12551 0.30444 0.16400
C 	C 	0.13161 0.30343 0.31298 -0.00900
O 	O 	0.19252 0.21638 0.31646 -0.26300
C 	C 	0.11062 0.72321 0.31677 -0.03400
H 	H 	0.42741 0.85754 0.31444 0.15800
C 	C 	0.63106 0.87820 0.31354 0.01300
C 	C 	0.50305 0.82510 0.32089 0.19800
H 	H 	0.72180 0.03182 0.31997 0.09600
C 	C 	0.03626 0.81623 0.33109 -0.10400
C 	C 	0.16871 0.34687 0.33881 0.02100
C 	C 	0.22104 0.42419 0.33694 0.12200
H 	H 	0.00884 0.85359 0.33672 0.10000
C 	C 	0.10804 0.74509 0.34526 -0.10500
C 	C 	0.64138 0.85413 0.34092 0.12900
H 	H 	0.71755 0.82169 0.34526 0.16600
C 	C 	0.06749 0.78820 0.35251 0.20900
C 	C 	0.51355 0.80482 0.34886 -0.10100
O 	O 	0.70892 0.86886 0.35094 -0.24800
C 	C 	0.24083 0.47335 0.36117 -0.03200
H 	H 	0.27896 0.53395 0.35943 0.03600
C 	C 	0.58272 0.81775 0.35851 -0.02000
C 	C 	0.15850 0.73739 0.36614 0.29600
C 	C 	0.14338 0.31628 0.36550 -0.09800
H 	H 	0.10507 0.25563 0.36719 0.10300
C 	C 	0.45460 0.78260 0.36914 0.29700
O 	O 	0.21499 0.80084 0.37352 -0.35100
Ni	Ni	0.31733 0.80362 0.37515 1.09400
H 	H 	0.28175 0.65855 0.37268 0.16100
O 	O 	0.42506 0.83327 0.37399 -0.35400
O 	O 	0.13787 0.67480 0.38221 -0.34000
O 	O 	0.06291 0.80803 0.38040 -0.25400
F 	F 	0.39634 0.97616 0.38738 -0.46900
H 	H 	0.59139 0.80251 0.38000 0.09500
C 	C 	0.20665 0.44646 0.38697 -0.10100
C 	C 	0.16276 0.36563 0.38968 0.21100
H 	H 	0.01981 0.76445 0.38756 0.18600
O 	O 	0.28876 0.69611 0.38875 -0.70400
O 	O 	0.44536 0.72513 0.38718 -0.35800
O 	O 	0.17293 0.55105 0.39959 -0.34000
F 	F 	0.39022 0.08911 0.40084 -0.43000
C 	C 	0.37252 0.01158 0.40857 0.76800
Ni	Ni	0.20212 0.66407 0.41452 1.10400
C 	C 	0.20327 0.50440 0.40784 0.29700
O 	O 	0.32326 0.84651 0.41559 -0.34300
F 	F 	0.29899 0.97471 0.41012 -0.43100
O 	O 	0.13433 0.33625 0.41542 -0.20500
Ni	Ni	0.36562 0.69686 0.41607 1.09900
F 	F 	0.58490 0.50744 0.42716 -0.42700
H 	H 	0.16901 0.31803 0.42440 0.17600
F 	F 	0.04419 0.42310 0.42430 -0.43600
C 	C 	0.38082 0.86189 0.43101 0.29100
O 	O 	0.11541 0.62562 0.44027 -0.34300
O 	O 	0.20545 0.48977 0.43491 -0.32400
O 	O 	0.41244 0.81264 0.43063 -0.33500
C 	C 	0.40655 0.00781 0.43719 -0.09900
H 	H 	0.49484 0.55369 0.43742 0.08000
O 	O 	0.28084 0.67288 0.44263 -0.69600
C 	C 	0.41637 0.93941 0.44594 0.01800
C 	C 	0.02387 0.39845 0.45164 0.77000
O 	O 	0.43054 0.67769 0.44621 -0.32500
H 	H 	0.41614 0.12314 0.45102 0.09200
C 	C 	0.43270 0.07534 0.45493 0.05600
C 	C 	0.59553 0.50189 0.45606 0.78500
F 	F 	0.97808 0.31929 0.45025 -0.42500
H 	H 	0.28935 0.71810 0.45579 0.18200
C 	C 	0.10328 0.57137 0.45988 0.31200
O 	O 	0.34524 0.55799 0.45793 -0.36800
C 	C 	0.50402 0.56143 0.46023 0.06000
F 	F 	0.57515 0.42299 0.46226 -0.50700
F 	F 	0.66763 0.54231 0.46213 -0.39100
F 	F 	0.82042 0.57240 0.46718 -0.38600
Ni	Ni	0.25233 0.57588 0.46494 1.10100
C 	C 	0.02848 0.53105 0.46951 -0.00800
C 	C 	0.40989 0.61367 0.46153 0.29900
C 	C 	0.46406 0.94620 0.46862 0.06500
H 	H 	0.88579 0.35157 0.46846 0.10000
C 	C 	0.91568 0.41471 0.47116 0.03800
F 	F 	0.08317 0.40554 0.46782 -0.44900
C 	C 	0.46498 0.59430 0.47611 0.00600
H 	H 	0.47251 0.89468 0.47529 0.10700
C 	C 	0.48249 0.08307 0.47688 0.01400
C 	C 	0.55312 0.53653 0.47369 -0.10600
F 	F 	0.92355 0.67489 0.47638 -0.42100
O 	O 	0.15573 0.57355 0.47735 -0.34600
H 	H 	0.02393 0.64013 0.48329 0.07900
O 	O 	0.50656 0.22138 0.48379 -0.35000
C 	C 	0.50370 0.01988 0.48173 -0.09700
C 	C 	0.88035 0.59949 0.48491 0.78500
C 	C 	0.88097 0.46092 0.48194 0.02300
C 	C 	0.91888 0.54460 0.48305 -0.10200
C 	C 	0.51167 0.15733 0.49409 0.28500
F 	F 	0.59506 0.97411 0.49245 -0.41100
F 	F 	0.62396 0.10382 0.49544 -0.46300
H 	H 	0.64582 0.32817 0.49411 0.21300
C 	C 	0.56944 0.03055 0.49968 0.77500
O 	O 	0.76957 0.45657 0.50221 -0.26300
C 	C 	0.81154 0.41983 0.49680 0.28300
C 	C 	0.47835 0.60777 0.50572 -0.09200
Ni	Ni	0.52679 0.32118 0.50723 1.11000
C 	C 	0.56072 0.54201 0.50376 0.01200
O 	O 	0.62593 0.33395 0.51265 -0.68500
O 	O 	0.79682 0.35010 0.50740 -0.37600
F 	F 	0.86100 0.60469 0.51264 -0.43100
C 	C 	0.59017 0.49241 0.51921 0.27600
O 	O 	0.65910 0.50856 0.51872 -0.27400
F 	F 	0.44984 0.71964 0.51083 -0.43400
C 	C 	0.52549 0.58025 0.51936 0.05400
O 	O 	0.53364 0.15630 0.52062 -0.30300
F 	F 	0.36791 0.60062 0.52322 -0.47200
C 	C 	0.44012 0.64830 0.52291 0.77800
O 	O 	0.54586 0.42517 0.52948 -0.38400
F 	F 	0.55211 0.02252 0.52812 -0.43300
Ni	Ni	0.69725 0.42941 0.53509 1.11100
O 	O 	0.47251 0.25406 0.54046 -0.36700
Ni	Ni	0.62295 0.24585 0.53769 1.11500
H 	H 	0.74097 0.01774 0.54421 0.20400
H 	H 	0.53203 0.58476 0.54231 0.08400
O 	O 	0.75939 0.21723 0.54516 -0.36500
O 	O 	0.78103 0.06921 0.54868 -0.25700
Ni	Ni	0.80066 0.33960 0.55026 1.07400
F 	F 	0.46566 0.66340 0.55075 -0.43000
O 	O 	0.70660 0.33951 0.55560 -0.69700
O 	O 	0.77281 0.51660 0.55872 -0.31900
O 	O 	0.85359 0.45930 0.55521 -0.39000
O 	O 	0.37048 0.28695 0.56508 -0.27200
H 	H 	0.38997 0.34470 0.56900 0.16700
C 	C 	0.49958 0.25995 0.56629 0.32400
O 	O 	0.64605 0.16760 0.56206 -0.31600
C 	C 	0.71144 0.17065 0.56259 0.31400
O 	O 	0.56457 0.26374 0.57007 -0.38800
C 	C 	0.82717 0.50341 0.56934 0.31100
H 	H 	0.96187 0.61387 0.57270 0.09100
H 	H 	0.69929 0.34466 0.57617 0.16100
C 	C 	0.77350 0.08476 0.57676 0.20500
C 	C 	0.38687 0.25517 0.58896 0.20100
C 	C 	0.45188 0.24564 0.59113 -0.11200
C 	C 	0.73312 0.12792 0.58434 -0.11200
H 	H 	0.84259 0.03065 0.59186 0.09000
C 	C 	0.93492 0.60355 0.59288 -0.02100
C 	C 	0.80908 0.06092 0.59787 -0.11100
C 	C 	0.86488 0.54682 0.59475 -0.11600
H 	H 	0.28662 0.23448 0.60860 0.09600
H 	H 	0.02876 0.75590 0.60832 0.16100
C 	C 	0.33798 0.23096 0.61110 -0.10600
O 	O 	0.03611 0.70853 0.61443 -0.26300
C 	C 	0.72335 0.14039 0.61318 -0.03900
C 	C 	0.46984 0.21918 0.61683 -0.02600
H 	H 	0.52025 0.21340 0.61918 0.07100
H 	H 	0.69159 0.17274 0.61919 0.05800
C 	C 	0.83180 0.53015 0.62126 0.18900
H 	H 	0.88305 0.76810 0.62564 0.16300
O 	O 	0.76447 0.47186 0.62352 -0.29400
H 	H 	0.77178 0.42324 0.62780 0.13200
C 	C 	0.80397 0.07911 0.62657 0.00800
C 	C 	0.35464 0.20102 0.63618 0.01600
C 	C 	0.42205 0.19813 0.63940 0.11700
C 	C 	0.75877 0.11631 0.63430 0.12700
O 	O 	0.86257 0.74311 0.64382 -0.26900
C 	C 	0.93262 0.63922 0.64256 0.01000
H 	H 	0.94371 0.16880 0.63661 0.07900
C 	C 	0.85090 0.06585 0.64807 0.00200
C 	C 	0.86621 0.57575 0.64518 -0.10400
C 	C 	0.92300 0.11815 0.65030 -0.09700
H 	H 	0.29766 0.04944 0.65333 0.08600
H 	H 	0.75155 0.90798 0.64991 0.16400
C 	C 	0.92015 0.75806 0.66182 0.14000
C 	C 	0.29921 0.16644 0.65794 -0.00900
C 	C 	0.27429 0.08565 0.66376 -0.08100
O 	O 	0.29375 0.29250 0.66705 -0.27000
O 	O 	0.75372 0.94913 0.66407 -0.25800
O 	O 	0.75289 0.13381 0.66234 -0.27700
C 	C 	0.82430 0.00026 0.66588 0.11600
H 	H 	0.83877 0.56606 0.66524 0.08300
H 	H 	0.05232 0.99304 0.67297 0.06500
O 	O 	0.03935 0.15576 0.67168 -0.28300
C 	C 	0.26870 0.21298 0.67183 0.14000
O 	O 	0.44033 0.17201 0.66422 -0.26800
H 	H 	0.71171 0.08764 0.66936 0.16500
H 	H 	0.92007 0.86713 0.67736 0.06900
H 	H 	0.33178 0.31766 0.68173 0.15400
H 	H 	0.46347 0.22000 0.67646 0.14800
H 	H 	0.03613 0.67821 0.68346 0.08200
C 	C 	0.01090 0.71957 0.68217 -0.09300
H 	H 	0.04231 0.19600 0.68636 0.14800
C 	C 	0.21094 0.17752 0.68994 -0.07900
C 	C 	0.21836 0.05092 0.68262 0.13700
O 	O 	0.19516 0.97209 0.68823 -0.27100
C 	C 	0.86982 0.98749 0.68580 -0.05400
C 	C 	0.04973 0.99721 0.69652 -0.03200
C 	C 	0.18483 0.09624 0.69506 -0.01800
H 	H 	0.18565 0.21293 0.69954 0.07000
C 	C 	0.03760 0.78913 0.69875 0.15500
C 	C 	0.00562 0.84355 0.69660 -0.02400
H 	H 	0.84917 0.93667 0.69938 0.06100
H 	H 	0.22336 0.96950 0.70523 0.15700
H 	H 	0.13704 0.82550 0.70607 0.16800
C 	C 	0.03546 0.91985 0.71226 0.01800
C 	C 	0.11791 0.05696 0.71100 0.00900
O 	O 	0.09341 0.80275 0.71754 -0.27100
H 	H 	0.90020 0.80429 0.73767 0.07400
C 	C 	0.03191 0.92525 0.74137 0.03500
C 	C 	0.11469 0.06239 0.73994 0.02300
H 	H 	0.12874 0.23948 0.74420 0.14900
C 	C 	0.04360 0.00782 0.75289 -0.06200
C 	C 	0.17358 0.11849 0.75761 -0.02800
H 	H 	0.23433 0.04653 0.75691 0.07400
O 	O 	0.11316 0.20619 0.76123 -0.27800
C 	C 	0.00257 0.85472 0.75976 -0.01900
H 	H 	0.82993 0.89110 0.74941 0.15700
H 	H 	0.83070 0.64401 0.75935 0.16100
H 	H 	0.87951 0.23569 0.75975 0.14900
C 	C 	0.23111 0.09979 0.76533 -0.08100
C 	C 	0.16945 0.18754 0.76863 0.14900
H 	H 	0.72432 0.13827 0.77637 0.14600
O 	O 	0.83043 0.68813 0.77148 -0.26600
O 	O 	0.86825 0.91341 0.76417 -0.28400
C 	C 	0.88059 0.99163 0.76657 0.17900
C 	C 	0.90298 0.15105 0.77092 0.13300
O 	O 	0.91452 0.22928 0.77318 -0.26500
H 	H 	0.04135 0.01291 0.77641 0.06100
H 	H 	0.42370 0.31024 0.77315 0.14400
C 	C 	0.90083 0.73873 0.77499 0.14700
C 	C 	0.04303 0.84724 0.78312 0.16100
O 	O 	0.11337 0.89810 0.78664 -0.26400
H 	H 	0.37672 0.15368 0.77912 0.14600
O 	O 	0.40833 0.34674 0.78404 -0.26300
O 	O 	0.71435 0.09110 0.78819 -0.26500
C 	C 	0.84155 0.01549 0.78582 -0.11600
O 	O 	0.90399 0.56781 0.79200 -0.27500
C 	C 	0.28348 0.14844 0.78456 0.13900
C 	C 	0.22142 0.23580 0.78812 -0.08800
C 	C 	0.85486 0.09548 0.78899 0.00400
C 	C 	0.27788 0.21588 0.79644 -0.00700
H 	H 	0.21717 0.28791 0.79713 0.08600
H 	H 	0.11313 0.94144 0.79922 0.16000
O 	O 	0.33822 0.12800 0.79284 -0.26000
C 	C 	0.01201 0.78637 0.80252 -0.09400
H 	H 	0.80298 0.97216 0.79915 0.10000
C 	C 	0.39679 0.31792 0.81111 0.12400
C 	C 	0.75612 0.11866 0.81231 0.11600
C 	C 	0.82584 0.12181 0.81348 0.01400
C 	C 	0.88706 0.59470 0.81698 0.12700
H 	H 	0.04316 0.78159 0.82068 0.09200
C 	C 	0.32905 0.26278 0.81868 0.01600
H 	H 	0.50678 0.37865 0.82439 0.06100
C 	C 	0.90529 0.67597 0.82147 0.01600
C 	C 	0.45346 0.34067 0.83090 -0.02900
H 	H 	0.67595 0.14298 0.83461 0.02600
C 	C 	0.72898 0.14327 0.83591 -0.02400
H 	H 	0.83514 0.47808 0.83397 0.06300
C 	C 	0.86722 0.14739 0.83853 -0.10800
C 	C 	0.85008 0.54067 0.83782 -0.02700
H 	H 	0.92052 0.14839 0.83966 0.09400
C 	C 	0.31611 0.24057 0.84713 -0.09600
C 	C 	0.88840 0.70271 0.84724 -0.10400
H 	H 	0.90276 0.76527 0.85090 0.09400
H 	H 	0.26316 0.20074 0.85338 0.09900
C 	C 	0.44294 0.30699 0.85792 -0.10300
O 	O 	0.54415 0.27279 0.85817 -0.39700
C 	C 	0.77170 0.17254 0.86053 -0.12500
C 	C 	0.37288 0.26318 0.86690 0.20300
C 	C 	0.84025 0.17217 0.86208 0.20900
C 	C 	0.83258 0.56728 0.86357 -0.11300
C 	C 	0.85324 0.64908 0.86842 0.20500
C 	C 	0.50351 0.29998 0.87283 0.31600
Ni	Ni	0.61175 0.22983 0.87579 1.07900
H 	H 	0.67611 0.37341 0.87744 0.16100
C 	C 	0.74949 0.21452 0.88241 0.31200
O 	O 	0.68310 0.18486 0.89101 -0.39600
O 	O 	0.79227 0.28746 0.88949 -0.34900
O 	O 	0.81453 0.45039 0.89050 -0.36400
C 	C 	0.79636 0.50998 0.88593 0.31100
O 	O 	0.88186 0.19868 0.88630 -0.26000
O 	O 	0.66705 0.33395 0.89253 -0.70400
O 	O 	0.83934 0.67676 0.89383 -0.27500
F 	F 	0.11396 0.66136 0.92124 -0.43200
O 	O 	0.36065 0.23621 0.89416 -0.20600
O 	O 	0.53684 0.17275 0.90560 -0.33400
O 	O 	0.51061 0.31108 0.90085 -0.32900
O 	O 	0.75189 0.52323 0.90283 -0.39400
H 	H 	0.87049 0.15129 0.89813 0.18000
H 	H 	0.88173 0.68606 0.90622 0.16800
H 	H 	0.35217 0.27772 0.90508 0.18600
F 	F 	0.38821 0.09773 0.91063 -0.42600
Ni	Ni	0.75850 0.35460 0.91547 1.11000
F 	F 	0.19081 0.61124 0.93655 -0.41700
F 	F 	0.45745 0.62735 0.93128 -0.42400
Ni	Ni	0.60785 0.35560 0.92209 1.10500
C 	C 	0.13845 0.63574 0.94505 0.77900
H 	H 	0.52421 0.55068 0.93941 0.08400
C 	C 	0.54862 0.18192 0.93316 0.30300
C 	C 	0.07897 0.56826 0.95930 -0.09200
C 	C 	0.39129 0.10926 0.93982 0.77800
O 	O 	0.58044 0.25308 0.94476 -0.33000
O 	O 	0.70491 0.39286 0.94262 -0.70000
O 	O 	0.84807 0.38511 0.93993 -0.31000
O 	O 	0.85745 0.51335 0.94369 -0.37100
C 	C 	0.00827 0.54256 0.94902 0.04500
F 	F 	0.16808 0.69898 0.96396 -0.45200
F 	F 	0.32261 0.07466 0.95001 -0.43000
C 	C 	0.45924 0.64301 0.96023 0.78700
F 	F 	0.38954 0.61762 0.96909 -0.51400
F 	F 	0.49347 0.72383 0.96452 -0.39900
F 	F 	0.41718 0.18932 0.94614 -0.42600
C 	C 	0.43942 0.07373 0.95307 -0.07500
C 	C 	0.51465 0.11272 0.95162 0.00600
O 	O 	0.66104 0.52587 0.94724 -0.36000
Ni	Ni	0.75480 0.50696 0.94546 1.09800
C 	C 	0.87934 0.45727 0.95099 0.29900
H 	H 	0.35139 0.96798 0.96607 0.11300
C 	C 	0.40889 0.00011 0.96642 0.02400
C 	C 	0.52841 0.55633 0.96241 0.06000
F 	F 	0.56246 0.90031 0.97940 -0.39200
C 	C 	0.55777 0.08047 0.96519 0.06200
O 	O 	0.56923 0.40533 0.95335 -0.30600
C 	C 	0.60364 0.48042 0.96095 0.29300
H 	H 	0.61522 0.11078 0.96374 0.08600
H 	H 	0.70216 0.36847 0.96144 0.22100
O 	O 	0.21809 0.55680 0.98910 -0.31200
C 	C 	0.09361 0.53170 0.98333 0.01000
C 	C 	0.49815 0.60188 0.97689 -0.10100
C 	C 	0.45155 0.96875 0.98115 0.04700
C 	C 	0.52753 0.00834 0.97974 -0.11000
C 	C 	0.16226 0.56812 0.99873 0.29600
C 	C 	0.03857 0.46782 0.99565 0.05500
H 	H 	0.32190 0.71337 0.99737 0.23100
C 	C 	0.56556 0.51906 0.97727 0.01200
C 	C 	0.57663 0.97287 0.99226 0.79600
F 	F 	0.64790 0.02032 0.98807 -0.42700
F 	F 	0.88329 0.31154 0.98547 -0.42400
C 	C 	0.93198 0.79903 0.75549 -0.06600
C 	C 	0.93430 0.04827 0.75071 -0.04400
C 	C 	0.94038 0.73321 0.79896 0.00300
C 	C 	0.94245 0.12721 0.75175 -0.06400
C 	C 	0.94227 0.03893 0.68763 -0.04200
H 	H 	0.95205 0.56822 0.79549 0.16400
C 	C 	0.94591 0.82653 0.67862 -0.08200
C 	C 	0.95241 0.48224 0.96260 0.01600
C 	C 	0.95337 0.70494 0.66319 -0.00300
C 	C 	0.96885 0.65006 0.61671 0.12700
C 	C 	0.96864 0.10500 0.67005 0.15800
C 	C 	0.96734 0.44495 0.98642 -0.08900
H 	H 	0.98130 0.17052 0.73854 0.07200
C 	C 	0.98786 0.02713 0.73621 0.03200
C 	C 	0.98894 0.44897 0.46467 -0.07800
H 	H 	0.99629 0.56952 0.93045 0.09200
C 	C 	0.99349 0.57734 0.47966 0.07300
C 	C 	0.99111 0.02201 0.70729 0.00600
