data_crystal

_cell_length_a 20.75786
_cell_length_b 21.45496
_cell_length_c 39.48329
_cell_angle_alpha 60.71417
_cell_angle_beta  119.04745
_cell_angle_gamma 133.26564

_symmetry_space_group_name_	'P 1'
_symmetry_space_group_name_H-M	'P 1'

loop_
_symmetry_equiv_pos_as_xyz
  x,y,z

loop_
_atom_site_label
_atom_site_type_symbol
_atom_site_fract_x
_atom_site_fract_y
_atom_site_fract_z
_atom_site_charge
Co	Co	0.05765 0.98553 0.05331 1.19200
Co	Co	0.05474 0.83199 0.05151 1.17800
O 	O 	0.06699 0.09170 0.04738 -0.44700
C 	C 	0.07766 0.19015 0.12297 0.29400
C 	C 	0.06409 0.73403 0.13683 0.29800
O 	O 	0.03065 0.72502 0.10054 -0.39900
O 	O 	0.05470 0.77936 0.14570 -0.36400
O 	O 	0.09493 0.14923 0.11570 -0.37100
O 	O 	0.01648 0.87746 0.06995 -0.75400
O 	O 	0.18780 0.91438 0.08070 -0.35800
O 	O 	0.19377 0.03008 0.07588 -0.37600
Co	Co	0.02033 0.11695 0.56857 1.18100
Co	Co	0.08346 0.05030 0.53703 1.18600
Co	Co	0.10614 0.91025 0.54117 1.17800
O 	O 	0.06310 0.12540 0.67648 -0.32500
C 	C 	0.06148 0.05918 0.70498 0.28800
O 	O 	0.07304 0.14698 0.52624 -0.42400
C 	C 	0.10421 0.26924 0.59752 0.30500
C 	C 	0.16032 0.84502 0.62809 0.30000
O 	O 	0.05571 0.00129 0.69685 -0.36700
O 	O 	0.11340 0.82110 0.59462 -0.39700
O 	O 	0.14871 0.88883 0.63680 -0.36600
O 	O 	0.02061 0.22825 0.59803 -0.37400
O 	O 	0.12445 0.22998 0.59088 -0.37600
O 	O 	0.06811 0.95172 0.56171 -0.75100
C 	C 	0.04848 0.01389 0.82266 0.09400
C 	C 	0.08478 0.98154 0.81857 -0.09900
C 	C 	0.08584 0.99462 0.77983 0.09000
C 	C 	0.05840 0.04537 0.74584 -0.01700
C 	C 	0.02605 0.08110 0.75114 -0.06300
C 	C 	0.11640 0.92817 0.85478 0.78900
H 	H 	0.10917 0.96643 0.77623 0.08900
C 	C 	0.01440 0.15254 0.71891 0.76800
C 	C 	0.10736 0.07497 0.88068 -0.09800
C 	C 	0.09401 0.06586 0.91523 0.04700
C 	C 	0.18501 0.16287 0.86235 0.78400
H 	H 	0.14160 0.11990 0.92949 0.08600
F 	F 	0.09524 0.22511 0.70756 -0.44300
F 	F 	0.17647 0.97264 0.88483 -0.39900
F 	F 	0.16041 0.91296 0.84562 -0.41900
F 	F 	0.15081 0.20526 0.82806 -0.41700
C 	C 	0.04104 0.95177 0.31937 0.02600
C 	C 	0.03683 0.93901 0.28617 -0.07400
C 	C 	0.11305 0.94354 0.28623 0.79100
H 	H 	0.10131 0.97021 0.34377 0.11700
C 	C 	0.00558 0.03691 0.35655 0.01300
C 	C 	0.04968 0.14204 0.38911 0.77700
H 	H 	0.02692 0.09097 0.33043 0.10900
F 	F 	0.07693 0.87117 0.27518 -0.41800
F 	F 	0.16288 0.01979 0.25950 -0.44300
F 	F 	0.13953 0.18344 0.41045 -0.43700
C 	C 	0.17550 0.35700 0.60724 -0.06200
C 	C 	0.20376 0.74405 0.67896 0.01600
C 	C 	0.19946 0.61011 0.70398 0.11800
C 	C 	0.15329 0.70682 0.70714 0.10600
N 	N 	0.17392 0.53930 0.72389 -0.07300
C 	C 	0.15161 0.27493 0.13498 -0.05800
C 	C 	0.20665 0.42880 0.10429 -0.01600
C 	C 	0.19094 0.35253 0.10540 0.01800
C 	C 	0.21641 0.35425 0.07654 0.10600
C 	C 	0.10711 0.68797 0.16753 -0.05600
C 	C 	0.06078 0.59953 0.16925 0.00400
C 	C 	0.10395 0.57478 0.16487 -0.01400
C 	C 	0.05111 0.48606 0.16125 0.11500
N 	N 	0.00850 0.41501 0.15845 -0.09100
O 	O 	0.08594 0.93337 0.00023 -0.37300
C 	C 	0.17309 0.42942 0.58015 0.02200
C 	C 	0.15304 0.44149 0.53776 0.09800
N 	N 	0.13832 0.45238 0.50382 -0.08000
C 	C 	0.03669 0.96304 0.97706 0.31800
O 	O 	0.01440 0.98758 0.99230 -0.33000
C 	C 	0.03760 0.00117 0.46480 0.26200
O 	O 	0.10518 0.99486 0.48505 -0.35500
O 	O 	0.00984 0.01773 0.48131 -0.32000
C 	C 	0.04543 0.00284 0.86256 0.06000
C 	C 	0.02298 0.98546 0.93295 0.01300
C 	C 	0.01178 0.05101 0.38985 -0.09800
F 	F 	0.04564 0.19373 0.35041 -0.41600
C 	C 	0.18985 0.56525 0.56657 0.11500
N 	N 	0.18190 0.62124 0.54439 -0.08400
Co	Co	0.03289 0.89026 0.60451 1.18400
F 	F 	0.17137 0.94335 0.32372 -0.40900
O 	O 	0.00862 0.99379 0.58274 -0.57100
C 	C 	0.15502 0.28157 0.16977 0.01500
C 	C 	0.20050 0.43320 0.13723 -0.00000
C 	C 	0.17525 0.35903 0.17025 -0.01500
C 	C 	0.14355 0.21132 0.20579 0.11000
N 	N 	0.13528 0.15617 0.23500 -0.06700
C 	C 	0.19987 0.49518 0.59438 -0.01600
F 	F 	0.04199 0.84756 0.86869 -0.43200
C 	C 	0.17233 0.36291 0.20509 0.11700
N 	N 	0.04330 0.34121 0.02336 -0.10600
N 	N 	0.16999 0.36599 0.23290 -0.07500
N 	N 	0.11347 0.67726 0.72992 -0.08100
N 	N 	0.20288 0.53631 0.15138 -0.12600
C 	C 	0.19956 0.63524 0.16696 0.00400
O 	O 	0.22283 0.12335 0.54150 -0.36200
C 	C 	0.22195 0.36044 0.64736 0.03800
C 	C 	0.01171 0.05502 0.78857 0.00900
C 	C 	0.20190 0.73763 0.18080 0.01500
F 	F 	0.99991 0.13540 0.40609 -0.41000
C 	C 	0.22750 0.50199 0.06907 0.11300
N 	N 	0.24415 0.56042 0.04098 -0.08700
C 	C 	0.23140 0.69872 0.67904 -0.01500
C 	C 	0.23126 0.82871 0.65336 -0.05700
N 	N 	0.23678 0.35557 0.05349 -0.08700
O 	O 	0.98549 0.02646 0.18878 -0.37500
C 	C 	0.98019 0.53255 0.18485 0.12500
F 	F 	0.23063 0.15014 0.85283 -0.40400
O 	O 	0.23759 0.01334 0.55889 -0.38700
F 	F 	0.99139 0.18204 0.73258 -0.40700
O 	O 	0.99372 0.16208 0.11456 -0.38900
F 	F 	0.99880 0.81027 0.39446 -0.42200
Co	Co	0.99251 0.05623 0.08135 1.18700
C 	C 	0.97162 0.95065 0.21187 0.31600
O 	O 	0.96784 0.90033 0.19917 -0.31000
C 	C 	0.96156 0.92321 0.25278 0.01600
C 	C 	0.22827 0.00006 0.07208 0.27600
C 	C 	0.26304 0.09508 0.54090 0.29900
C 	C 	0.25000 0.30251 0.67276 0.13200
N 	N 	0.27283 0.25651 0.69308 -0.08200
N 	N 	0.36807 0.31897 0.54180 -0.08800
N 	N 	0.24058 0.18959 0.99125 -0.08400
F 	F 	0.24764 0.21751 0.88841 -0.42600
C 	C 	0.24637 0.42416 0.66208 -0.00300
C 	C 	0.30630 0.87616 0.63791 0.00600
C 	C 	0.24601 0.79698 0.20467 0.11900
C 	C 	0.28318 0.16199 0.00759 0.09100
C 	C 	0.69986 0.25448 0.02450 0.13500
N 	N 	0.61352 0.19246 0.03022 -0.12800
C 	C 	0.57182 0.21599 0.03442 0.13500
N 	N 	0.61759 0.29999 0.03497 -0.13100
C 	C 	0.70395 0.36166 0.03052 0.13400
N 	N 	0.74480 0.33984 0.02424 -0.12400
C 	C 	0.73538 0.31598 0.51717 0.13700
N 	N 	0.64522 0.28170 0.50452 -0.12500
C 	C 	0.61266 0.30470 0.51561 0.13600
N 	N 	0.67154 0.36589 0.53722 -0.13100
C 	C 	0.76236 0.41342 0.54251 0.13600
N 	N 	0.79514 0.38595 0.53424 -0.12100
C 	C 	0.24677 0.61762 0.15610 0.13200
N 	N 	0.33343 0.68331 0.15062 -0.12500
C 	C 	0.37568 0.66698 0.14164 0.13500
N 	N 	0.33137 0.58659 0.13723 -0.13100
C 	C 	0.24542 0.52137 0.14165 0.13600
C 	C 	0.32560 0.69649 0.65623 0.13400
N 	N 	0.26646 0.61576 0.64750 -0.12200
C 	C 	0.30002 0.57844 0.64768 0.13600
N 	N 	0.39096 0.62185 0.65604 -0.13100
C 	C 	0.44925 0.70394 0.66183 0.13800
N 	N 	0.41697 0.74048 0.66297 -0.12500
Co	Co	0.95945 0.80863 0.10637 1.19600
Co	Co	0.90806 0.88328 0.14000 1.19000
C 	C 	0.85866 0.69082 0.04912 0.29400
Co	Co	0.89477 0.03146 0.13526 1.17000
O 	O 	0.93053 0.98533 0.11611 -0.73600
O 	O 	0.90386 0.77932 0.14736 -0.42300
O 	O 	0.95613 0.92536 0.08685 -0.55500
C 	C 	0.73796 0.84137 0.14135 0.30900
O 	O 	0.79407 0.90519 0.15939 -0.38900
O 	O 	0.76923 0.82015 0.12957 -0.36500
C 	C 	0.84498 0.09029 0.04754 0.28800
O 	O 	0.81021 0.03151 0.07887 -0.38200
O 	O 	0.90877 0.10025 0.04019 -0.35000
O 	O 	0.91751 0.75489 0.02626 -0.30700
O 	O 	0.85389 0.70635 0.07657 -0.34800
Co	Co	0.98610 0.96532 0.64087 1.19400
C 	C 	0.92672 0.75105 0.55669 0.29100
Co	Co	0.94865 0.09963 0.63149 1.21100
O 	O 	0.98425 0.05537 0.61140 -0.74800
O 	O 	0.99794 0.86951 0.65132 -0.42600
C 	C 	0.81854 0.90290 0.65471 0.29500
O 	O 	0.87278 0.97477 0.66722 -0.33400
O 	O 	0.84998 0.88473 0.64131 -0.36100
C 	C 	0.85455 0.11832 0.54702 0.29100
O 	O 	0.84054 0.06863 0.58287 -0.37200
O 	O 	0.91251 0.13221 0.53336 -0.34100
O 	O 	0.96966 0.81318 0.52775 -0.36300
O 	O 	0.93073 0.77083 0.58555 -0.34900
H 	H 	0.97693 0.07225 0.79177 0.12400
C 	C 	0.95592 0.91776 0.91206 -0.07800
C 	C 	0.97003 0.92563 0.87824 0.07100
C 	C 	0.87221 0.83386 0.92690 0.77900
H 	H 	0.92067 0.87189 0.86349 0.10900
F 	F 	0.94556 0.12044 0.68632 -0.52100
F 	F 	0.79824 0.80555 0.89481 -0.42500
F 	F 	0.85099 0.84579 0.95050 -0.43800
F 	F 	0.88742 0.76969 0.94849 -0.44400
C 	C 	0.96772 0.94088 0.32127 0.10200
C 	C 	0.88892 0.91729 0.28934 -0.10300
C 	C 	0.88654 0.90774 0.25575 0.06600
C 	C 	0.97388 0.95379 0.35713 0.11500
C 	C 	0.81124 0.91143 0.28894 0.78800
H 	H 	0.82917 0.89565 0.23034 0.07500
C 	C 	0.94653 0.88309 0.39132 -0.10100
C 	C 	0.94807 0.89645 0.42345 0.05900
C 	C 	0.98885 0.98136 0.42479 0.06200
C 	C 	0.92364 0.79604 0.39521 0.79000
H 	H 	0.92828 0.84298 0.44975 0.08200
F 	F 	0.84038 0.99474 0.28468 -0.42000
F 	F 	0.78237 0.85653 0.32406 -0.39800
F 	F 	0.73683 0.87808 0.25770 -0.43100
F 	F 	0.89904 0.73586 0.43068 -0.44300
F 	F 	0.85206 0.75898 0.36412 -0.40000
C 	C 	0.23903 0.49428 0.63541 0.00700
C 	C 	0.28077 0.41866 0.70462 0.15400
N 	N 	0.30818 0.41425 0.73858 -0.05700
C 	C 	0.54466 0.75828 0.65975 0.00100
C 	C 	0.56277 0.77727 0.62440 -0.01500
C 	C 	0.65124 0.81597 0.62396 0.01900
C 	C 	0.72291 0.83963 0.65829 -0.05700
C 	C 	0.70386 0.81656 0.69420 0.02400
C 	C 	0.61536 0.77795 0.69464 -0.01300
C 	C 	0.48993 0.75645 0.58849 0.11600
C 	C 	0.77504 0.83111 0.73083 0.12100
C 	C 	0.59680 0.75740 0.73114 0.12400
C 	C 	0.66859 0.83187 0.58810 0.10800
N 	N 	0.58193 0.74099 0.76024 -0.07200
N 	N 	0.68247 0.84459 0.55950 -0.08800
N 	N 	0.83183 0.84277 0.76003 -0.07500
N 	N 	0.43172 0.73968 0.55992 -0.08700
C 	C 	0.29100 0.74087 0.65498 0.00300
C 	C 	0.32769 0.83044 0.63393 -0.01300
C 	C 	0.36359 0.97156 0.62783 0.12500
C 	C 	0.38015 0.87291 0.60554 0.11200
N 	N 	0.42166 0.90644 0.58276 -0.08800
N 	N 	0.41009 0.04797 0.61999 -0.10500
C 	C 	0.64048 0.78443 0.14079 -0.06800
C 	C 	0.61568 0.74564 0.17724 0.03200
C 	C 	0.53618 0.72640 0.17783 -0.01200
C 	C 	0.47323 0.73151 0.14176 0.00400
C 	C 	0.49795 0.77034 0.10524 -0.01700
C 	C 	0.57883 0.79178 0.10468 0.02000
C 	C 	0.67013 0.72225 0.21387 0.11800
C 	C 	0.43821 0.78494 0.06815 0.11300
C 	C 	0.59640 0.81688 0.06713 0.10200
C 	C 	0.51655 0.69669 0.21561 0.14300
N 	N 	0.61050 0.83630 0.03726 -0.08400
N 	N 	0.50085 0.67296 0.24577 -0.06300
N 	N 	0.39049 0.79658 0.03854 -0.08200
N 	N 	0.71340 0.70329 0.24311 -0.06400
C 	C 	0.24960 0.71356 0.17932 -0.01500
C 	C 	0.34755 0.76346 0.19433 0.12300
N 	N 	0.28037 0.84344 0.22419 -0.06700
N 	N 	0.91665 0.47816 0.19810 -0.07800
N 	N 	0.42582 0.80357 0.20636 -0.07200
C 	C 	0.76384 0.26493 0.52016 0.00700
C 	C 	0.83649 0.30592 0.50402 -0.01400
C 	C 	0.85732 0.25401 0.50490 0.02000
C 	C 	0.80765 0.16262 0.52300 -0.05700
C 	C 	0.72519 0.12183 0.53060 0.02600
C 	C 	0.71074 0.17219 0.53510 -0.01800
C 	C 	0.88937 0.40024 0.48674 0.12200
C 	C 	0.65472 0.02864 0.53289 0.09300
C 	C 	0.64862 0.12990 0.55880 0.11600
C 	C 	0.91732 0.29070 0.48148 0.11600
N 	N 	0.59933 0.09649 0.57783 -0.09700
N 	N 	0.96427 0.31922 0.46236 -0.06800
N 	N 	0.59777 0.95425 0.53442 -0.07400
N 	N 	0.93170 0.47563 0.47297 -0.06900
C 	C 	0.81954 0.50520 0.54566 0.00500
C 	C 	0.80378 0.56535 0.51266 -0.00900
C 	C 	0.82045 0.63540 0.51857 0.03100
C 	C 	0.87069 0.65738 0.55578 -0.06000
C 	C 	0.88714 0.59776 0.58905 0.01800
C 	C 	0.86403 0.52317 0.58376 -0.01600
C 	C 	0.76472 0.55145 0.47286 0.15600
C 	C 	0.91996 0.60860 0.62888 0.10300
C 	C 	0.88514 0.46453 0.61754 0.11400
C 	C 	0.78118 0.68144 0.48721 0.12800
N 	N 	0.90204 0.41773 0.64450 -0.07800
N 	N 	0.74953 0.71797 0.46220 -0.06700
N 	N 	0.94531 0.61686 0.66073 -0.08800
N 	N 	0.73337 0.54005 0.44117 -0.05600
C 	C 	0.51284 0.26187 0.50541 0.00700
C 	C 	0.48354 0.30169 0.50843 -0.01600
C 	C 	0.40227 0.24846 0.52050 0.02700
C 	C 	0.34192 0.15712 0.52198 -0.05700
C 	C 	0.36089 0.12335 0.50749 0.03200
C 	C 	0.44737 0.17484 0.50035 -0.01800
C 	C 	0.53354 0.39693 0.49659 0.12200
C 	C 	0.29104 0.03695 0.49889 0.07700
C 	C 	0.46533 0.14077 0.48461 0.12300
C 	C 	0.38307 0.28748 0.53236 0.11500
N 	N 	0.47927 0.11329 0.47199 -0.08600
N 	N 	0.23579 0.96805 0.49204 -0.09000
N 	N 	0.57308 0.47292 0.48711 -0.09000
C 	C 	0.74422 0.22839 0.01823 -0.00700
C 	C 	0.69022 0.15866 0.99947 -0.00100
C 	C 	0.72696 0.11853 0.00315 0.00700
C 	C 	0.81878 0.15221 0.02275 -0.05500
C 	C 	0.87650 0.23594 0.03003 0.00300
C 	C 	0.83946 0.26889 0.03268 -0.01200
C 	C 	0.59984 0.13208 0.97459 0.11700
C 	C 	0.96939 0.29407 0.02678 0.12100
C 	C 	0.89875 0.34105 0.05161 0.11200
C 	C 	0.67283 0.04788 0.98401 0.10000
N 	N 	0.94647 0.39873 0.06678 -0.09200
N 	N 	0.62952 0.99190 0.96836 -0.06200
N 	N 	0.52769 0.11084 0.95472 -0.07100
C 	C 	0.75422 0.45061 0.03516 0.00400
C 	C 	0.74544 0.51430 0.00149 -0.01900
C 	C 	0.75953 0.58375 0.00669 0.03200
C 	C 	0.79894 0.59927 0.04486 -0.05400
C 	C 	0.79780 0.53156 0.07845 0.01400
C 	C 	0.78271 0.46083 0.07386 -0.01600
C 	C 	0.71769 0.50593 0.96158 0.14700
C 	C 	0.79319 0.52559 0.11541 0.10300
C 	C 	0.79172 0.39605 0.10881 0.11000
C 	C 	0.71511 0.62478 0.97554 0.16400
N 	N 	0.79861 0.34408 0.13665 -0.08400
N 	N 	0.67844 0.65662 0.95077 -0.04300
N 	N 	0.78825 0.52113 0.14458 -0.08500
N 	N 	0.69549 0.49920 0.92972 -0.07100
C 	C 	0.47801 0.15003 0.04025 0.00600
C 	C 	0.46166 0.08504 0.07655 -0.02200
C 	C 	0.38742 0.04711 0.09018 0.02600
C 	C 	0.32079 0.06263 0.06467 -0.06500
C 	C 	0.33722 0.12813 0.02849 0.02500
C 	C 	0.41267 0.16770 0.01516 -0.02200
C 	C 	0.52326 0.05967 0.10071 0.11200
C 	C 	0.42438 0.22808 0.97600 0.14300
C 	C 	0.38886 0.00644 0.13216 0.08400
N 	N 	0.43413 0.27646 0.94480 -0.05300
N 	N 	0.39216 0.97549 0.16597 -0.06800
N 	N 	0.57238 0.03936 0.11998 -0.09300
