data_crystal

_cell_length_a 18.37363
_cell_length_b 18.81326
_cell_length_c 34.05536
_cell_angle_alpha 95.46273
_cell_angle_beta  95.46570
_cell_angle_gamma 125.94239

_symmetry_space_group_name_	'P 1'
_symmetry_space_group_name_H-M	'P 1'

loop_
_symmetry_equiv_pos_as_xyz
  x,y,z

loop_
_atom_site_label
_atom_site_type_symbol
_atom_site_fract_x
_atom_site_fract_y
_atom_site_fract_z
_atom_site_charge
C 	C 	0.86505 0.92393 0.96239 0.11800
N 	N 	0.95618 0.97331 0.96242 -0.13900
C 	C 	0.99837 0.93370 0.96107 0.11500
N 	N 	0.94909 0.84415 0.95843 -0.13800
C 	C 	0.85783 0.79386 0.95789 0.11900
N 	N 	0.81552 0.83380 0.96047 -0.13700
C 	C 	0.98440 0.09420 0.49505 0.11500
N 	N 	0.07623 0.14499 0.49655 -0.13300
C 	C 	0.12001 0.10681 0.49846 0.12100
N 	N 	0.07214 0.01838 0.49922 -0.13100
C 	C 	0.98077 0.96810 0.49842 0.10900
N 	N 	0.93681 0.00586 0.49604 -0.13400
Cu	Cu	0.71674 0.27221 0.95696 0.92500
Cu	Cu	0.72751 0.23389 0.04886 0.87300
Cu	Cu	0.57274 0.22778 0.00855 0.89900
Cu	Cu	0.53274 0.24337 0.92211 0.89700
C 	C 	0.66199 0.24944 0.87285 0.28800
O 	O 	0.76288 0.39844 0.95014 -0.36400
C 	C 	0.64736 0.29527 0.09535 0.28600
O 	O 	0.57384 0.19278 0.95397 -0.63600
O 	O 	0.70816 0.29746 0.01322 -0.64300
O 	O 	0.78395 0.21876 0.96496 -0.36600
O 	O 	0.69857 0.13777 0.00970 -0.43300
O 	O 	0.57967 0.22827 0.87380 -0.38100
O 	O 	0.44074 0.15221 0.00100 -0.38000
C 	C 	0.38668 0.14371 0.96947 0.29400
C 	C 	0.71421 0.42780 0.95596 0.28500
O 	O 	0.62968 0.37275 0.96106 -0.39000
O 	O 	0.41950 0.19939 0.94405 -0.38800
O 	O 	0.70286 0.23387 0.90096 -0.36200
C 	C 	0.75297 0.15148 0.98424 0.29000
O 	O 	0.57360 0.24509 0.06670 -0.38600
O 	O 	0.72216 0.30207 0.09228 -0.41200
H 	H 	0.54001 0.12750 0.94544 0.16700
H 	H 	0.74143 0.36169 0.02442 0.17500
Cu	Cu	0.65605 0.26652 0.50861 0.92900
Cu	Cu	0.69864 0.26697 0.41695 0.87200
Cu	Cu	0.71144 0.41734 0.46297 0.89800
Cu	Cu	0.68878 0.44306 0.54795 0.89600
C 	C 	0.70185 0.32261 0.59456 0.28800
O 	O 	0.53059 0.22860 0.51611 -0.36200
C 	C 	0.64931 0.36070 0.37491 0.28600
O 	O 	0.74313 0.40632 0.51611 -0.64000
O 	O 	0.63458 0.28434 0.45376 -0.64200
O 	O 	0.69975 0.19364 0.49579 -0.37100
O 	O 	0.79198 0.28382 0.45519 -0.43900
O 	O 	0.67119 0.37033 0.59019 -0.38300
O 	O 	0.79162 0.54582 0.47525 -0.38500
C 	C 	0.78665 0.59530 0.50343 0.29700
C 	C 	0.50255 0.27665 0.50764 0.28600
O 	O 	0.56206 0.36044 0.50452 -0.39300
O 	O 	0.75465 0.56645 0.53624 -0.39300
O 	O 	0.69603 0.27071 0.56344 -0.35900
C 	C 	0.77211 0.22621 0.47893 0.29200
O 	O 	0.69930 0.42771 0.40593 -0.38800
O 	O 	0.63543 0.28366 0.37546 -0.41500
H 	H 	0.80943 0.43761 0.52548 0.16700
H 	H 	0.56972 0.25520 0.44207 0.17300
C 	C 	0.70323 0.33003 0.77246 0.00400
C 	C 	0.73858 0.38061 0.74242 -0.05800
C 	C 	0.70940 0.33370 0.70281 0.01900
C 	C 	0.65264 0.24033 0.69459 -0.00200
C 	C 	0.62984 0.19042 0.72532 -0.05300
C 	C 	0.65340 0.23698 0.76467 0.01500
S 	S 	0.74266 0.36616 0.82144 0.01000
C 	C 	0.69560 0.26640 0.83506 -0.06700
C 	C 	0.64829 0.20071 0.79977 -0.01800
S 	S 	0.65089 0.20659 0.64747 0.03000
C 	C 	0.71801 0.30797 0.63499 -0.07200
C 	C 	0.74618 0.37223 0.66945 -0.02300
H 	H 	0.78751 0.45278 0.74958 0.04600
H 	H 	0.59684 0.11926 0.71905 0.04700
H 	H 	0.60662 0.12961 0.79977 0.04300
H 	H 	0.78575 0.44326 0.66950 0.03500
C 	C 	0.56705 0.33605 0.26182 0.00100
C 	C 	0.53544 0.28204 0.22369 -0.05700
C 	C 	0.59596 0.31018 0.19669 0.01500
C 	C 	0.68642 0.38635 0.20847 -0.00100
C 	C 	0.71795 0.44205 0.24591 -0.05700
C 	C 	0.65818 0.41386 0.27348 0.01300
S 	S 	0.53034 0.29723 0.30301 0.01500
C 	C 	0.62362 0.37770 0.33681 -0.07500
C 	C 	0.68946 0.43772 0.31571 -0.02200
S 	S 	0.73242 0.41471 0.16777 0.01400
C 	C 	0.64049 0.33089 0.13391 -0.07400
C 	C 	0.56973 0.27779 0.15473 -0.02300
H 	H 	0.46645 0.22051 0.21545 0.04600
H 	H 	0.78807 0.50178 0.25433 0.04300
H 	H 	0.76113 0.48627 0.32934 0.03700
H 	H 	0.50384 0.21654 0.14047 0.04400
C 	C 	0.92965 0.87308 0.50037 -0.01000
C 	C 	0.86147 0.80898 0.46775 -0.05800
C 	C 	0.81338 0.71786 0.46852 0.05200
C 	C 	0.83421 0.69043 0.50221 -0.09000
C 	C 	0.90133 0.75469 0.53512 -0.00500
C 	C 	0.94870 0.84568 0.53448 0.00100
S 	S 	0.72511 0.63908 0.42784 -0.04900
S 	S 	0.02939 0.92457 0.57711 -0.02500
H 	H 	0.98696 0.94480 0.60189 0.03100
H 	H 	0.76026 0.61549 0.40012 0.04800
H 	H 	0.84605 0.83010 0.44171 0.05200
H 	H 	0.91691 0.73375 0.56119 0.03700
C 	C 	0.82642 0.19239 0.48360 -0.09300
C 	C 	0.83867 0.15623 0.44916 -0.00900
C 	C 	0.89317 0.12704 0.45251 0.00800
C 	C 	0.93581 0.13364 0.49069 -0.01300
C 	C 	0.92507 0.17120 0.52511 -0.05500
C 	C 	0.87103 0.20103 0.52182 0.05100
S 	S 	0.90808 0.08287 0.40867 -0.04200
S 	S 	0.86264 0.25185 0.56554 -0.03100
H 	H 	0.92893 0.34242 0.57189 0.03200
H 	H 	0.98519 0.14992 0.39664 0.03500
H 	H 	0.80565 0.15080 0.41971 0.02100
H 	H 	0.95818 0.17650 0.55451 0.05100
C 	C 	0.21971 0.16169 0.50212 -0.01400
C 	C 	0.27306 0.17453 0.53818 -0.05400
C 	C 	0.36613 0.21398 0.54062 0.05000
C 	C 	0.40631 0.23995 0.50643 -0.08900
C 	C 	0.35399 0.23089 0.47088 -0.01000
C 	C 	0.26089 0.19185 0.46853 0.00900
S 	S 	0.43205 0.23264 0.58691 -0.04200
S 	S 	0.19609 0.17864 0.42310 -0.03600
H 	H 	0.15723 0.09618 0.40048 0.03800
H 	H 	0.43399 0.16134 0.58884 0.04800
H 	H 	0.24161 0.15219 0.56415 0.05300
H 	H 	0.38530 0.25257 0.44482 0.03400
C 	C 	0.75434 0.52294 0.95715 -0.08800
C 	C 	0.77038 0.55668 0.92143 -0.01200
C 	C 	0.79527 0.64254 0.92034 0.01000
C 	C 	0.80614 0.69654 0.95552 -0.01400
C 	C 	0.78761 0.66185 0.99099 -0.05500
C 	C 	0.76267 0.57592 0.99211 0.05200
S 	S 	0.81193 0.68158 0.87463 -0.03900
S 	S 	0.74622 0.53714 0.03790 -0.06300
H 	H 	0.65567 0.49048 0.04061 0.04000
H 	H 	0.73131 0.66086 0.85500 0.03600
H 	H 	0.76136 0.51528 0.89419 0.03700
H 	H 	0.79707 0.70341 0.01826 0.05100
C 	C 	0.82285 0.96999 0.96866 -0.01500
C 	C 	0.84470 0.02110 0.00661 -0.05400
C 	C 	0.82581 0.08322 0.01165 0.05400
C 	C 	0.78183 0.09296 0.97858 -0.09100
C 	C 	0.75792 0.04034 0.94074 -0.00300
C 	C 	0.77810 0.97897 0.93564 0.00600
S 	S 	0.86260 0.15210 0.05901 -0.09500
S 	S 	0.74819 0.91480 0.88772 -0.03600
H 	H 	0.82027 0.95870 0.86801 0.03800
H 	H 	0.79431 0.11190 0.08096 0.02500
H 	H 	0.88061 0.01568 0.03192 0.05100
H 	H 	0.72293 0.04650 0.91535 0.04300
C 	C 	0.09771 0.98783 0.96353 -0.01000
C 	C 	0.13256 0.97377 0.93128 -0.05900
C 	C 	0.22699 0.02233 0.93341 0.05500
C 	C 	0.28754 0.08629 0.96807 -0.08800
C 	C 	0.25266 0.09914 0.00065 -0.00600
C 	C 	0.15818 0.05006 0.99865 0.01100
S 	S 	0.26852 0.00014 0.89312 -0.06200
S 	S 	0.11651 0.06529 0.04068 -0.03100
H 	H 	0.10215 0.12823 0.03689 0.04000
H 	H 	0.27851 0.93526 0.89952 0.03400
H 	H 	0.08603 0.92462 0.90459 0.05500
H 	H 	0.29914 0.14812 0.02739 0.04500
