data_crystal

_cell_length_a 44.71108
_cell_length_b 39.95015
_cell_length_c 32.40491
_cell_angle_alpha 89.85619
_cell_angle_beta  90.00037
_cell_angle_gamma 90.00026

_symmetry_space_group_name_	'P 1'
_symmetry_space_group_name_H-M	'P 1'

loop_
_symmetry_equiv_pos_as_xyz
  x,y,z

loop_
_atom_site_label
_atom_site_type_symbol
_atom_site_fract_x
_atom_site_fract_y
_atom_site_fract_z
_atom_site_charge
C 	C 	0.55602 0.54116 0.08886 0.09900
N 	N 	0.54794 0.50976 0.07876 -0.17400
C 	C 	0.56850 0.48921 0.09557 0.09900
C 	C 	0.57306 0.45449 0.08099 -0.07800
C 	C 	0.54703 0.43222 0.07492 0.08700
C 	C 	0.60361 0.44156 0.07373 0.04300
C 	C 	0.62176 0.45610 0.04326 -0.06300
C 	C 	0.64975 0.44229 0.03427 -0.02300
C 	C 	0.65977 0.41384 0.05569 -0.01900
C 	C 	0.61396 0.41367 0.09589 -0.06100
N 	N 	0.51983 0.43882 0.09091 -0.12900
C 	C 	0.54525 0.40838 0.04413 -0.06200
C 	C 	0.50078 0.41841 0.07082 0.08900
C 	C 	0.46798 0.42283 0.07204 -0.07800
C 	C 	0.44827 0.39421 0.06242 0.04600
C 	C 	0.43115 0.33785 0.07728 -0.02100
C 	C 	0.42830 0.39606 0.02910 -0.06600
C 	C 	0.40989 0.36882 0.01978 -0.01600
C 	C 	0.41124 0.33958 0.04385 -0.02400
N 	N 	0.46408 0.48472 0.07114 -0.17300
C 	C 	0.44219 0.50677 0.07976 0.09900
C 	C 	0.41898 0.49110 0.10053 -0.06300
C 	C 	0.42719 0.45791 0.10457 -0.06400
C 	C 	0.43970 0.53967 0.05881 -0.07500
C 	C 	0.40999 0.55378 0.04874 0.03900
C 	C 	0.37213 0.59646 0.05898 -0.03900
C 	C 	0.35284 0.57946 0.03211 0.01500
C 	C 	0.36249 0.55003 0.01269 -0.03500
C 	C 	0.39100 0.53723 0.02097 -0.05700
N 	N 	0.49151 0.55677 0.07618 -0.12800
C 	C 	0.50203 0.58827 0.02025 -0.05900
C 	C 	0.51292 0.57420 0.05627 0.08700
C 	C 	0.54505 0.57088 0.06604 -0.07700
C 	C 	0.56577 0.59829 0.05512 0.04700
C 	C 	0.56172 0.63023 0.07210 -0.06300
C 	C 	0.58022 0.65667 0.06004 -0.01900
C 	C 	0.60286 0.65138 0.03082 -0.02600
C 	C 	0.60725 0.61930 0.01434 -0.01500
C 	C 	0.58879 0.59282 0.02652 -0.06600
C 	C 	0.58188 0.54077 0.11243 -0.06400
C 	C 	0.58987 0.50753 0.11672 -0.06400
C 	C 	0.64192 0.39986 0.08691 -0.02300
C 	C 	0.51555 0.39952 0.04152 -0.06300
C 	C 	0.45503 0.45493 0.08611 0.10100
C 	C 	0.47229 0.57946 0.01823 -0.05900
C 	C 	0.46665 0.56051 0.05311 0.08600
C 	C 	0.40055 0.58364 0.06735 -0.05400
H 	H 	0.53490 0.50372 0.05306 0.09200
H 	H 	0.47951 0.48763 0.04716 0.09100
H 	H 	0.57670 0.68136 0.07291 0.03600
H 	H 	0.62476 0.61500 0.99186 0.02800
H 	H 	0.54406 0.63460 0.09434 0.04800
H 	H 	0.59207 0.56820 0.01332 0.04600
H 	H 	0.66344 0.45335 0.01025 0.03500
H 	H 	0.60016 0.40242 0.11964 0.04700
H 	H 	0.64945 0.37788 0.10359 0.03500
H 	H 	0.61396 0.47769 0.02606 0.04500
H 	H 	0.39464 0.37038 0.99387 0.02900
H 	H 	0.42715 0.41853 0.01038 0.04600
C 	C 	0.44963 0.36501 0.08644 -0.06300
H 	H 	0.43217 0.31552 0.09628 0.03500
H 	H 	0.36484 0.61924 0.07402 0.03900
H 	H 	0.41507 0.59661 0.08876 0.04600
H 	H 	0.39820 0.51429 0.00622 0.04400
H 	H 	0.34773 0.53680 0.99184 0.03500
H 	H 	0.59726 0.56155 0.11545 0.04800
H 	H 	0.61230 0.49895 0.12351 0.04800
H 	H 	0.56124 0.40567 0.01928 0.04600
H 	H 	0.50517 0.38888 0.01436 0.04700
H 	H 	0.39618 0.50012 0.10186 0.04600
H 	H 	0.41159 0.43752 0.10923 0.04700
H 	H 	0.51558 0.59498 0.99381 0.04200
H 	H 	0.45937 0.57833 0.99000 0.04200
H 	H 	0.46490 0.36346 0.11234 0.04800
Co	Co	0.32220 0.16222 0.98509 1.17800
Co	Co	0.27769 0.19569 0.04621 1.09600
O 	O 	0.34997 0.13699 0.94656 -0.38400
O 	O 	0.31894 0.16727 0.91310 -0.32000
O 	O 	0.33542 0.15012 0.04124 -0.42400
O 	O 	0.31772 0.21705 0.05158 -0.46500
C 	C 	0.31653 0.13889 0.06918 0.31400
C 	C 	0.34061 0.14607 0.91074 0.29900
O 	O 	0.28877 0.14985 0.06984 -0.43600
O 	O 	0.33329 0.20899 0.98528 -0.44800
C 	C 	0.33359 0.22651 0.01949 0.33100
O 	O 	0.28664 0.13536 0.98291 -0.43300
O 	O 	0.25897 0.18192 0.99347 -0.47900
C 	C 	0.26078 0.15063 0.98147 0.30300
C 	C 	0.48210 0.01008 0.50453 0.01000
C 	C 	0.50824 0.98982 0.50539 0.01100
C 	C 	0.45906 0.00293 0.47638 -0.05400
C 	C 	0.46230 0.97656 0.44807 0.01000
C 	C 	0.51171 0.96385 0.47659 -0.05400
C 	C 	0.48913 0.95745 0.44747 0.01100
H 	H 	0.53188 0.94883 0.47673 0.05000
H 	H 	0.43885 0.01785 0.47640 0.05000
C 	C 	0.49228 0.93180 0.41782 -0.01300
C 	C 	0.47045 0.92646 0.38735 0.00700
C 	C 	0.48199 0.91079 0.35122 -0.05500
C 	C 	0.51270 0.90409 0.35371 0.00200
S 	S 	0.52490 0.91851 0.39893 -0.00800
H 	H 	0.46943 0.90800 0.32292 0.04300
C 	C 	0.43926 0.96837 0.42003 -0.01300
C 	C 	0.44364 0.94472 0.38870 0.00700
C 	C 	0.42386 0.94904 0.35461 -0.05500
C 	C 	0.40423 0.97608 0.35967 0.00300
S 	S 	0.41237 0.99443 0.40446 -0.00900
H 	H 	0.42566 0.93529 0.32602 0.04300
C 	C 	0.50186 0.04311 0.56222 0.00800
C 	C 	0.48022 0.03761 0.53167 -0.01300
S 	S 	0.44859 0.05600 0.54693 -0.01000
C 	C 	0.46145 0.07310 0.59048 0.00300
C 	C 	0.49126 0.06319 0.59543 -0.05500
C 	C 	0.53078 0.99693 0.53465 -0.01300
C 	C 	0.52712 0.02229 0.56419 0.00800
C 	C 	0.54443 0.01697 0.60055 -0.05500
C 	C 	0.56127 0.98741 0.59933 0.00200
S 	S 	0.55388 0.96843 0.55472 -0.00800
H 	H 	0.54196 0.03160 0.62837 0.04400
H 	H 	0.50366 0.06751 0.62357 0.04400
Co	Co	0.67946 0.83473 0.97566 1.17900
Co	Co	0.71060 0.78748 0.91258 1.09300
O 	O 	0.65577 0.86218 0.01712 -0.37600
O 	O 	0.68333 0.82597 0.04694 -0.32600
O 	O 	0.66926 0.85310 0.92083 -0.41800
O 	O 	0.72960 0.83247 0.91134 -0.46200
C 	C 	0.66200 0.83363 0.88962 0.31200
C 	C 	0.66443 0.84999 0.05193 0.30000
O 	O 	0.67004 0.80195 0.88959 -0.43800
O 	O 	0.72101 0.84816 0.97793 -0.43600
C 	C 	0.73807 0.84816 0.94494 0.29200
O 	O 	0.65596 0.79454 0.97351 -0.43800
O 	O 	0.69772 0.76370 0.96331 -0.48900
C 	C 	0.66980 0.76576 0.97540 0.33600
Co	Co	0.18024 0.65814 0.99906 1.17800
Co	Co	0.21165 0.70572 0.06115 1.09400
O 	O 	0.15600 0.62873 0.96053 -0.38000
O 	O 	0.17832 0.66761 0.92768 -0.32200
O 	O 	0.17470 0.63814 0.05419 -0.41900
O 	O 	0.23333 0.66227 0.05864 -0.45900
C 	C 	0.16634 0.65611 0.08615 0.31300
C 	C 	0.16101 0.64187 0.92493 0.29900
O 	O 	0.17349 0.68801 0.08833 -0.43800
O 	O 	0.22236 0.64849 0.99204 -0.43800
C 	C 	0.24072 0.64782 0.02370 0.29500
O 	O 	0.15433 0.69621 0.00510 -0.42900
O 	O 	0.19466 0.72972 0.01291 -0.47800
C 	C 	0.16628 0.72608 0.00370 0.30500
C 	C 	0.97299 0.56265 0.53859 0.01100
C 	C 	0.94797 0.54065 0.53826 0.01000
C 	C 	0.99587 0.55880 0.50925 -0.05400
C 	C 	0.99452 0.53271 0.48034 0.01100
C 	C 	0.94621 0.51508 0.50857 -0.05400
C 	C 	0.96951 0.51068 0.47997 0.01000
H 	H 	0.92706 0.49849 0.50809 0.05000
H 	H 	0.01480 0.57571 0.50929 0.05000
C 	C 	0.96945 0.48368 0.45187 -0.01300
C 	C 	0.99205 0.47990 0.42224 0.00800
C 	C 	0.98335 0.45962 0.38826 -0.05500
C 	C 	0.95401 0.44778 0.39182 0.00300
S 	S 	0.93910 0.46358 0.43491 -0.01000
H 	H 	0.99669 0.45627 0.36073 0.04400
C 	C 	0.01824 0.52695 0.45243 -0.01300
C 	C 	0.01647 0.50193 0.42221 0.00800
C 	C 	0.03539 0.50802 0.38761 -0.05500
C 	C 	0.05184 0.53767 0.39134 0.00300
S 	S 	0.04194 0.55615 0.43545 -0.01000
H 	H 	0.03453 0.49375 0.35932 0.04400
C 	C 	0.95345 0.58947 0.60113 0.00700
C 	C 	0.97434 0.58802 0.56887 -0.01300
S 	S 	0.00572 0.60609 0.58548 -0.00900
C 	C 	0.99391 0.61772 0.63208 0.00200
C 	C 	0.96454 0.60602 0.63694 -0.05500
C 	C 	0.92531 0.54507 0.56817 -0.01300
C 	C 	0.92866 0.56793 0.60065 0.00700
C 	C 	0.91068 0.56009 0.63567 -0.05500
C 	C 	0.89335 0.53122 0.63005 0.00200
S 	S 	0.90149 0.51548 0.58375 -0.00900
H 	H 	0.91222 0.57298 0.66491 0.04300
H 	H 	0.95310 0.60616 0.66634 0.04300
Co	Co	0.82792 0.33103 0.99957 1.17700
Co	Co	0.77968 0.30031 0.94159 1.09500
O 	O 	0.85827 0.35455 0.03599 -0.38100
O 	O 	0.82914 0.32328 0.07136 -0.32500
O 	O 	0.83795 0.34506 0.94284 -0.42500
O 	O 	0.81904 0.27878 0.93063 -0.46400
C 	C 	0.81766 0.35761 0.91777 0.31500
C 	C 	0.85165 0.34343 0.07209 0.30000
O 	O 	0.78985 0.34688 0.91934 -0.43700
O 	O 	0.83845 0.28419 0.99544 -0.44600
C 	C 	0.83661 0.26798 0.96031 0.32600
O 	O 	0.79285 0.35813 0.00722 -0.43600
O 	O 	0.76429 0.31223 0.99701 -0.48800
C 	C 	0.76699 0.34304 0.01041 0.33600
C 	C 	0.05529 0.95073 0.88491 0.09900
N 	N 	0.04670 0.98228 0.89344 -0.17300
C 	C 	0.06782 0.00262 0.87756 0.10000
C 	C 	0.07191 0.03752 0.89179 -0.07500
C 	C 	0.04581 0.06000 0.89591 0.08700
C 	C 	0.10215 0.05040 0.90101 0.03700
C 	C 	0.11851 0.03713 0.93416 -0.05400
C 	C 	0.14552 0.05191 0.94594 -0.04200
C 	C 	0.15627 0.08007 0.92468 0.01800
C 	C 	0.11359 0.07765 0.87865 -0.05300
N 	N 	0.01907 0.05346 0.87850 -0.12900
C 	C 	0.04343 0.08477 0.92546 -0.06200
C 	C 	0.99970 0.07481 0.89647 0.08800
C 	C 	0.96692 0.07050 0.89401 -0.07800
C 	C 	0.94699 0.09886 0.90407 0.04500
C 	C 	0.93053 0.15584 0.89141 -0.02200
C 	C 	0.92704 0.09649 0.93735 -0.06300
C 	C 	0.90908 0.12383 0.94790 -0.02300
C 	C 	0.91084 0.15369 0.92506 -0.02100
N 	N 	0.96294 0.00863 0.89466 -0.17300
C 	C 	0.94138 0.98655 0.88472 0.09900
C 	C 	0.91875 0.00230 0.86278 -0.06300
C 	C 	0.92698 0.03552 0.85941 -0.06400
C 	C 	0.93797 0.95396 0.90615 -0.07500
C 	C 	0.90787 0.94063 0.91545 0.03700
C 	C 	0.86973 0.89827 0.90539 -0.04100
C 	C 	0.85019 0.91615 0.93102 0.01800
C 	C 	0.85980 0.94594 0.94961 -0.04200
C 	C 	0.88859 0.95813 0.94189 -0.05400
N 	N 	0.99030 0.93627 0.89286 -0.12900
C 	C 	0.99808 0.90423 0.94919 -0.06200
C 	C 	0.01062 0.91831 0.91421 0.08700
C 	C 	0.04314 0.92129 0.90714 -0.07500
C 	C 	0.06310 0.89361 0.91970 0.03700
C 	C 	0.06066 0.86227 0.90058 -0.05300
C 	C 	0.07804 0.83540 0.91435 -0.04100
C 	C 	0.09769 0.83957 0.94769 0.01800
C 	C 	0.10063 0.87111 0.96620 -0.04200
C 	C 	0.08341 0.89807 0.95219 -0.05400
C 	C 	0.08204 0.95077 0.86337 -0.06300
C 	C 	0.09006 0.98396 0.85864 -0.06300
C 	C 	0.14059 0.09240 0.89040 -0.04100
C 	C 	0.01384 0.09426 0.92584 -0.06300
C 	C 	0.95425 0.03845 0.87938 0.10100
C 	C 	0.96845 0.91359 0.94903 -0.06300
C 	C 	0.96451 0.93288 0.91398 0.08700
C 	C 	0.89841 0.91052 0.89752 -0.05300
H 	H 	0.03266 0.98874 0.91796 0.09100
H 	H 	0.97761 0.00571 0.91953 0.09100
H 	H 	0.07587 0.81120 0.89963 0.04200
H 	H 	0.11594 0.87460 0.99174 0.03700
H 	H 	0.04511 0.85868 0.87534 0.04500
H 	H 	0.08547 0.92224 0.96703 0.04100
H 	H 	0.15764 0.04213 0.97229 0.03900
H 	H 	0.10120 0.08787 0.85279 0.04500
H 	H 	0.14888 0.11400 0.87367 0.04100
H 	H 	0.10989 0.01600 0.95147 0.04200
H 	H 	0.89398 0.12192 0.97395 0.03300
H 	H 	0.92569 0.07362 0.95529 0.04400
C 	C 	0.94858 0.12858 0.88105 -0.06200
H 	H 	0.93182 0.17864 0.87331 0.03500
H 	H 	0.86250 0.87516 0.89109 0.03800
H 	H 	0.91317 0.89683 0.87710 0.04500
H 	H 	0.89580 0.98128 0.95610 0.04200
H 	H 	0.84485 0.95982 0.96956 0.04000
H 	H 	0.09759 0.93002 0.86219 0.04800
H 	H 	0.11271 0.99252 0.85332 0.04800
H 	H 	0.05870 0.08800 0.95108 0.04400
H 	H 	0.00279 0.10582 0.95190 0.04600
H 	H 	0.89601 0.99326 0.86020 0.04600
H 	H 	0.91148 0.05590 0.85413 0.04700
H 	H 	0.01045 0.89710 0.97657 0.04400
H 	H 	0.95442 0.91474 0.97622 0.04500
H 	H 	0.96383 0.13055 0.85518 0.04700
C 	C 	0.89207 0.18271 0.93629 0.06100
C 	C 	0.86083 0.17997 0.93571 -0.09500
C 	C 	0.84300 0.20784 0.94406 0.04800
C 	C 	0.85612 0.23893 0.95279 -0.15100
C 	C 	0.88776 0.24199 0.95309 0.15500
C 	C 	0.90545 0.21351 0.94579 -0.12900
H 	H 	0.81887 0.20533 0.94349 0.00300
H 	H 	0.92963 0.21555 0.94637 0.06300
H 	H 	0.85034 0.15629 0.92827 0.05000
N 	N 	0.90122 0.27218 0.95886 -0.20800
H 	H 	0.88891 0.29433 0.96020 0.09400
H 	H 	0.92452 0.27389 0.96038 0.08600
C 	C 	0.84465 0.42882 0.82582 0.10400
C 	C 	0.86133 0.42507 0.86207 -0.09600
C 	C 	0.85240 0.40208 0.89226 0.03600
C 	C 	0.82648 0.38273 0.88653 -0.10600
C 	C 	0.80930 0.38714 0.85060 0.03400
C 	C 	0.81825 0.41018 0.82048 -0.09400
H 	H 	0.88140 0.43977 0.86668 0.06000
H 	H 	0.86561 0.39939 0.92009 0.03100
H 	H 	0.78921 0.37251 0.84576 0.02100
H 	H 	0.80473 0.41352 0.79306 0.06100
N 	N 	0.85424 0.45193 0.79529 -0.09000
N 	N 	0.84882 0.44694 0.75805 -0.08700
C 	C 	0.88152 0.51069 0.66416 0.00100
C 	C 	0.85328 0.49570 0.66045 -0.02500
C 	C 	0.84238 0.47502 0.69190 -0.06800
C 	C 	0.85947 0.46932 0.72742 0.08300
C 	C 	0.88787 0.48413 0.73109 -0.06400
C 	C 	0.89882 0.50476 0.69962 -0.02600
H 	H 	0.83984 0.49993 0.63311 0.03700
H 	H 	0.82066 0.46330 0.68863 0.05100
H 	H 	0.90162 0.47917 0.75793 0.05500
H 	H 	0.92096 0.51554 0.70243 0.03700
C 	C 	0.89118 0.38084 0.18329 0.10300
C 	C 	0.90502 0.38643 0.14517 -0.09400
C 	C 	0.89192 0.37462 0.10886 0.03200
C 	C 	0.86491 0.35672 0.11040 -0.09900
C 	C 	0.85099 0.35106 0.14867 0.03000
C 	C 	0.86411 0.36298 0.18499 -0.09100
H 	H 	0.92609 0.39976 0.14373 0.06100
H 	H 	0.90301 0.37898 0.07961 0.03500
H 	H 	0.83012 0.33735 0.15036 0.03300
H 	H 	0.85353 0.35792 0.21441 0.06300
N 	N 	0.90578 0.39102 0.21998 -0.08900
N 	N 	0.89120 0.40193 0.24988 -0.08600
C 	C 	0.93654 0.43473 0.35682 0.00200
C 	C 	0.91063 0.45135 0.34326 -0.02400
C 	C 	0.89536 0.43999 0.30829 -0.06700
C 	C 	0.90604 0.41230 0.28635 0.08400
C 	C 	0.93141 0.39506 0.30064 -0.06400
C 	C 	0.94667 0.40636 0.33556 -0.02600
H 	H 	0.90271 0.47345 0.35918 0.03900
H 	H 	0.87561 0.45315 0.29771 0.05300
H 	H 	0.93939 0.37307 0.28455 0.05600
H 	H 	0.96648 0.39320 0.34596 0.03700
C 	C 	0.14853 0.75498 0.98952 -0.07200
C 	C 	0.16209 0.78056 0.96647 -0.00700
C 	C 	0.14542 0.80817 0.95341 -0.03900
C 	C 	0.11501 0.81078 0.96347 -0.03200
C 	C 	0.10124 0.78534 0.98749 0.07800
C 	C 	0.11810 0.75732 0.99973 -0.05000
H 	H 	0.15612 0.82751 0.93513 0.03800
H 	H 	0.10770 0.73776 0.01800 0.05600
H 	H 	0.18553 0.77888 0.95824 0.03500
N 	N 	0.07216 0.78795 0.99948 -0.19800
H 	H 	0.05954 0.80933 0.99316 0.08600
H 	H 	0.06205 0.76871 0.01638 0.08600
C 	C 	0.05714 0.63207 0.72956 0.08400
C 	C 	0.05432 0.65591 0.69807 -0.06700
C 	C 	0.03313 0.65159 0.66680 -0.02500
C 	C 	0.01459 0.62327 0.66673 0.00200
C 	C 	0.01741 0.59926 0.69821 -0.02600
C 	C 	0.03865 0.60355 0.72942 -0.06400
H 	H 	0.06870 0.67773 0.69771 0.05200
H 	H 	0.03130 0.67008 0.64242 0.03700
H 	H 	0.00365 0.57694 0.69798 0.03700
H 	H 	0.04109 0.58451 0.75302 0.05600
N 	N 	0.07966 0.63609 0.76000 -0.08600
N 	N 	0.07664 0.62367 0.79510 -0.08900
C 	C 	0.14087 0.63635 0.88950 -0.09600
C 	C 	0.12382 0.60689 0.88723 0.03100
C 	C 	0.10300 0.60261 0.85550 -0.09300
C 	C 	0.09923 0.62747 0.82545 0.10300
C 	C 	0.11657 0.65680 0.82725 -0.08900
C 	C 	0.13745 0.66111 0.85896 0.03000
H 	H 	0.12643 0.58745 0.91033 0.03400
H 	H 	0.08960 0.58004 0.85442 0.05900
H 	H 	0.11349 0.67647 0.80459 0.06300
H 	H 	0.15040 0.68399 0.86028 0.03600
C 	C 	0.12280 0.60798 0.18805 0.10300
C 	C 	0.14138 0.58963 0.16177 -0.09600
C 	C 	0.15568 0.60534 0.12866 0.03400
C 	C 	0.15127 0.63966 0.12125 -0.10600
C 	C 	0.13235 0.65805 0.14735 0.03100
C 	C 	0.11805 0.64226 0.18050 -0.09300
H 	H 	0.14488 0.56315 0.16719 0.05900
H 	H 	0.17035 0.59087 0.10897 0.03300
H 	H 	0.12843 0.68442 0.14168 0.02800
H 	H 	0.10313 0.65653 0.20003 0.06200
N 	N 	0.10811 0.59144 0.22105 -0.08900
N 	N 	0.10245 0.60644 0.25383 -0.08700
C 	C 	0.06491 0.55559 0.35585 0.00200
C 	C 	0.05555 0.58822 0.34588 -0.02400
C 	C 	0.06808 0.60496 0.31211 -0.06700
C 	C 	0.08961 0.58910 0.28764 0.08400
C 	C 	0.09910 0.55656 0.29770 -0.06400
C 	C 	0.08668 0.53984 0.33153 -0.02600
H 	H 	0.03839 0.60047 0.36396 0.03900
H 	H 	0.06086 0.63014 0.30470 0.05200
H 	H 	0.11622 0.54437 0.27949 0.05500
H 	H 	0.09413 0.51474 0.33902 0.03700
C 	C 	0.76481 0.86954 0.94366 -0.06600
C 	C 	0.78509 0.86935 0.97663 -0.01600
C 	C 	0.81225 0.88644 0.97334 -0.03500
C 	C 	0.81932 0.90415 0.93718 -0.03300
C 	C 	0.79787 0.90666 0.90513 0.07800
C 	C 	0.77092 0.88881 0.90841 -0.04900
H 	H 	0.82835 0.88482 0.99825 0.03700
H 	H 	0.75475 0.88988 0.88349 0.05000
H 	H 	0.78034 0.85487 0.00418 0.04000
N 	N 	0.80297 0.92621 0.87142 -0.19600
H 	H 	0.82182 0.94156 0.86941 0.08600
H 	H 	0.78745 0.92707 0.84732 0.08200
C 	C 	0.62332 0.87775 0.78121 0.10300
C 	C 	0.63435 0.84499 0.78006 -0.09800
C 	C 	0.64608 0.83016 0.81567 0.03200
C 	C 	0.64712 0.84815 0.85290 -0.10600
C 	C 	0.63544 0.88081 0.85423 0.03400
C 	C 	0.62382 0.89562 0.81855 -0.09300
H 	H 	0.63420 0.83117 0.75135 0.05700
H 	H 	0.65493 0.80496 0.81403 0.01900
H 	H 	0.63576 0.89493 0.88272 0.03400
H 	H 	0.61574 0.92116 0.81975 0.06300
N 	N 	0.61368 0.89329 0.74411 -0.09000
N 	N 	0.59514 0.91661 0.74477 -0.08700
C 	C 	0.56993 0.96875 0.63668 0.00200
C 	C 	0.54923 0.96370 0.66872 -0.02500
C 	C 	0.55763 0.94616 0.70424 -0.06700
C 	C 	0.58655 0.93306 0.70783 0.08300
C 	C 	0.60727 0.93803 0.67572 -0.06400
C 	C 	0.59888 0.95560 0.64019 -0.02600
H 	H 	0.52664 0.97330 0.66606 0.03800
H 	H 	0.54165 0.94267 0.72899 0.05300
H 	H 	0.62990 0.92863 0.67852 0.05500
H 	H 	0.61498 0.95931 0.61560 0.03800
C 	C 	0.61399 0.86251 0.16340 0.10300
C 	C 	0.63454 0.83624 0.15990 -0.09300
C 	C 	0.65129 0.83236 0.12378 0.03100
C 	C 	0.64734 0.85457 0.09051 -0.09600
C 	C 	0.62673 0.88096 0.09405 0.03100
C 	C 	0.61000 0.88480 0.13019 -0.08900
H 	H 	0.63746 0.81876 0.18517 0.05900
H 	H 	0.66706 0.81186 0.12154 0.03400
H 	H 	0.62353 0.89837 0.06875 0.03600
H 	H 	0.59372 0.90480 0.13221 0.06300
N 	N 	0.59617 0.86515 0.19945 -0.08900
N 	N 	0.58755 0.89302 0.21204 -0.08600
C 	C 	0.53218 0.90136 0.31722 0.00200
C 	C 	0.52942 0.92419 0.28440 -0.02500
C 	C 	0.54782 0.92130 0.24971 -0.06700
C 	C 	0.56899 0.89556 0.24738 0.08400
C 	C 	0.57231 0.87322 0.28068 -0.06400
C 	C 	0.55392 0.87611 0.31541 -0.02600
H 	H 	0.51316 0.94427 0.28588 0.03700
H 	H 	0.54552 0.93896 0.22449 0.05200
H 	H 	0.58918 0.85378 0.27972 0.05600
H 	H 	0.55649 0.85866 0.34081 0.03800
C 	C 	0.23390 0.13282 0.96689 -0.07000
C 	C 	0.23661 0.10593 0.93939 -0.00200
C 	C 	0.21121 0.08873 0.92610 -0.03800
C 	C 	0.18275 0.09812 0.94009 -0.03000
C 	C 	0.17980 0.12518 0.96804 0.07600
C 	C 	0.20551 0.14238 0.98109 -0.05000
H 	H 	0.21361 0.06812 0.90467 0.04000
H 	H 	0.20340 0.16291 0.00271 0.03500
H 	H 	0.25840 0.09849 0.92802 0.04300
N 	N 	0.15251 0.13465 0.98253 -0.19800
H 	H 	0.13299 0.12212 0.97401 0.08500
H 	H 	0.15061 0.15477 0.00292 0.08000
C 	C 	0.40849 0.09969 0.69536 0.08400
C 	C 	0.40117 0.07128 0.67227 -0.06700
C 	C 	0.41808 0.06277 0.63753 -0.02400
C 	C 	0.44219 0.08304 0.62524 0.00100
C 	C 	0.44897 0.11203 0.64772 -0.02600
C 	C 	0.43210 0.12045 0.68249 -0.06400
H 	H 	0.38279 0.05538 0.68179 0.05300
H 	H 	0.41284 0.04009 0.62077 0.03900
H 	H 	0.46743 0.12790 0.63840 0.03700
H 	H 	0.43746 0.14294 0.69955 0.05500
N 	N 	0.39196 0.10730 0.73145 -0.08600
N 	N 	0.40475 0.11888 0.76250 -0.09000
C 	C 	0.35727 0.13948 0.87230 -0.09800
C 	C 	0.38618 0.12573 0.87391 0.03100
C 	C 	0.40175 0.11899 0.83747 -0.09400
C 	C 	0.38850 0.12539 0.79914 0.10300
C 	C 	0.35974 0.13950 0.79739 -0.09000
C 	C 	0.34415 0.14640 0.83382 0.03000
H 	H 	0.39666 0.12042 0.90334 0.03400
H 	H 	0.42408 0.10856 0.83899 0.06000
H 	H 	0.34956 0.14524 0.76788 0.06300
H 	H 	0.32187 0.15696 0.83210 0.03500
C 	C 	0.34759 0.07057 0.16204 0.10400
C 	C 	0.36345 0.07432 0.12509 -0.09600
C 	C 	0.35323 0.09637 0.09465 0.03500
C 	C 	0.32685 0.11484 0.10084 -0.10500
C 	C 	0.31054 0.11045 0.13755 0.03300
C 	C 	0.32075 0.08830 0.16789 -0.09300
H 	H 	0.38388 0.06033 0.12013 0.06000
H 	H 	0.36580 0.09904 0.06626 0.03200
H 	H 	0.29010 0.12437 0.14277 0.02200
H 	H 	0.30786 0.08495 0.19588 0.06100
N 	N 	0.35858 0.04852 0.19287 -0.09000
N 	N 	0.35270 0.05325 0.23002 -0.08700
C 	C 	0.39054 0.99436 0.32498 0.00100
C 	C 	0.36114 0.00627 0.32842 -0.02400
C 	C 	0.34853 0.02527 0.29657 -0.06800
C 	C 	0.36510 0.03232 0.26094 0.08400
C 	C 	0.39461 0.02051 0.25749 -0.06400
C 	C 	0.40725 0.00159 0.28934 -0.02500
H 	H 	0.34814 0.00105 0.35592 0.03700
H 	H 	0.32593 0.03468 0.29967 0.05100
H 	H 	0.40789 0.02657 0.23054 0.05600
H 	H 	0.43022 0.99321 0.28672 0.03700
C 	C 	0.39155 0.31094 0.03450 0.06300
C 	C 	0.36043 0.31469 0.03638 -0.09600
C 	C 	0.34175 0.28709 0.03069 0.04900
C 	C 	0.35391 0.25529 0.02332 -0.15200
C 	C 	0.38543 0.25129 0.02131 0.15700
C 	C 	0.40395 0.27945 0.02603 -0.13000
H 	H 	0.31772 0.29034 0.03245 0.00400
H 	H 	0.42804 0.27665 0.02436 0.06400
H 	H 	0.35070 0.33894 0.04298 0.05100
N 	N 	0.39802 0.22054 0.01629 -0.20800
H 	H 	0.38517 0.19874 0.01637 0.09500
H 	H 	0.42122 0.21808 0.01369 0.08700
C 	C 	0.26725 0.62610 0.02252 -0.06400
C 	C 	0.28801 0.62913 0.99035 -0.01300
C 	C 	0.31526 0.61204 0.99232 -0.04200
C 	C 	0.32191 0.59151 0.02633 -0.02700
C 	C 	0.29997 0.58622 0.05721 0.07600
C 	C 	0.27291 0.60399 0.05528 -0.04700
H 	H 	0.33175 0.61583 0.96826 0.03800
H 	H 	0.25638 0.60082 0.07948 0.05000
H 	H 	0.28360 0.64584 0.96466 0.03400
N 	N 	0.30477 0.56421 0.08864 -0.19600
H 	H 	0.32384 0.54915 0.08957 0.08600
H 	H 	0.28884 0.56123 0.11197 0.08200
C 	C 	0.68802 0.39743 0.04374 0.05700
C 	C 	0.69069 0.38265 0.00478 -0.08500
C 	C 	0.71657 0.36513 0.99426 0.03900
C 	C 	0.74017 0.36203 0.02256 -0.14900
C 	C 	0.73770 0.37706 0.06207 0.15500
C 	C 	0.71163 0.39502 0.07209 -0.12700
H 	H 	0.71830 0.35385 0.96397 -0.00000
H 	H 	0.70950 0.40650 0.10223 0.06300
H 	H 	0.67249 0.38436 0.98280 0.04400
N 	N 	0.75970 0.37358 0.09077 -0.21000
H 	H 	0.77831 0.35845 0.08554 0.10400
H 	H 	0.75791 0.38540 0.11940 0.08800
C 	C 	0.62118 0.67969 0.01636 0.07000
C 	C 	0.61711 0.69245 0.97647 -0.10300
C 	C 	0.63329 0.72037 0.96332 0.05300
C 	C 	0.65390 0.73577 0.98977 -0.16200
C 	C 	0.65844 0.72275 0.03005 0.16100
C 	C 	0.64187 0.69472 0.04301 -0.13400
H 	H 	0.62970 0.73019 0.93251 0.01500
H 	H 	0.64498 0.68474 0.07387 0.06500
H 	H 	0.60106 0.68097 0.95582 0.05300
N 	N 	0.67835 0.73709 0.05640 -0.21100
H 	H 	0.69141 0.75752 0.04755 0.10100
H 	H 	0.68113 0.72760 0.08624 0.08700
