data_crystal

_cell_length_a 26.19065
_cell_length_b 26.28779
_cell_length_c 34.07741
_cell_angle_alpha 95.50427
_cell_angle_beta  95.49886
_cell_angle_gamma 125.82374

_symmetry_space_group_name_	'P 1'
_symmetry_space_group_name_H-M	'P 1'

loop_
_symmetry_equiv_pos_as_xyz
  x,y,z

loop_
_atom_site_label
_atom_site_type_symbol
_atom_site_fract_x
_atom_site_fract_y
_atom_site_fract_z
_atom_site_charge
C 	C 	0.00050 0.06890 0.98905 0.16100
C 	C 	0.96988 0.00849 0.99961 -0.15200
C 	C 	0.00019 0.97881 0.00031 0.18100
C 	C 	0.06298 0.01141 0.99315 -0.13300
C 	C 	0.09402 0.07201 0.98280 0.14600
C 	C 	0.06203 0.09995 0.97973 -0.11300
H 	H 	0.92194 0.98394 0.00618 0.12500
H 	H 	0.08708 0.98913 0.99475 0.11800
H 	H 	0.08549 0.14630 0.97109 0.10900
C 	C 	0.90118 0.95428 0.46833 0.11100
C 	C 	0.86452 0.88793 0.46599 -0.08200
C 	C 	0.89330 0.85689 0.46194 0.11700
C 	C 	0.95899 0.89262 0.46103 -0.08300
C 	C 	0.99637 0.95928 0.46606 0.10600
C 	C 	0.96736 0.99005 0.46929 -0.07300
H 	H 	0.81374 0.86052 0.46668 0.10400
H 	H 	0.98134 0.86878 0.45775 0.09900
H 	H 	0.99605 0.04154 0.47222 0.09200
Cu	Cu	0.67614 0.28620 0.99879 0.93500
Cu	Cu	0.76455 0.34797 0.93239 0.88500
Cu	Cu	0.70304 0.39784 0.96251 0.89900
Cu	Cu	0.67105 0.39379 0.04550 0.91200
C 	C 	0.68023 0.30232 0.08410 0.28300
O 	O 	0.58120 0.24595 0.99176 -0.33500
C 	C 	0.70950 0.38805 0.87675 0.27900
O 	O 	0.72343 0.38526 0.01559 -0.63500
O 	O 	0.68124 0.31217 0.94661 -0.64400
O 	O 	0.71621 0.24254 0.98861 -0.33800
O 	O 	0.80385 0.33314 0.97532 -0.39900
O 	O 	0.65077 0.32879 0.07926 -0.35400
O 	O 	0.71814 0.47950 0.97821 -0.35400
C 	C 	0.74204 0.51378 0.01483 0.33800
C 	C 	0.55725 0.27771 0.98619 0.32000
O 	O 	0.59507 0.34068 0.99292 -0.36700
O 	O 	0.72199 0.48697 0.04624 -0.35400
O 	O 	0.68685 0.27444 0.05284 -0.32700
C 	C 	0.77564 0.27531 0.98299 0.33400
O 	O 	0.69344 0.40839 0.90684 -0.34600
O 	O 	0.73763 0.36006 0.88196 -0.38300
H 	H 	0.76978 0.41290 0.02735 0.18000
H 	H 	0.64327 0.28352 0.92485 0.19800
Cu	Cu	0.69450 0.28464 0.44548 0.93400
Cu	Cu	0.72125 0.28357 0.54108 0.88800
Cu	Cu	0.60207 0.26251 0.50173 0.90900
Cu	Cu	0.55704 0.24565 0.41223 0.91000
C 	C 	0.64168 0.24099 0.36145 0.28400
O 	O 	0.71634 0.36611 0.42919 -0.34700
C 	C 	0.66357 0.32653 0.58706 0.28500
O 	O 	0.59669 0.22452 0.44920 -0.63700
O 	O 	0.69577 0.31535 0.50087 -0.63800
O 	O 	0.75285 0.26070 0.45740 -0.34400
O 	O 	0.70564 0.21145 0.50829 -0.40800
O 	O 	0.58357 0.22306 0.36458 -0.35700
O 	O 	0.51065 0.20515 0.49978 -0.35300
C 	C 	0.46629 0.19254 0.47006 0.33900
C 	C 	0.68135 0.38615 0.43434 0.32400
O 	O 	0.62224 0.34646 0.43985 -0.35500
O 	O 	0.48107 0.21821 0.43758 -0.35600
O 	O 	0.67934 0.24385 0.39165 -0.33700
C 	C 	0.73943 0.21864 0.48040 0.33500
O 	O 	0.61016 0.28986 0.55958 -0.35300
O 	O 	0.71765 0.33715 0.58067 -0.39100
H 	H 	0.57650 0.17826 0.44592 0.19500
H 	H 	0.71729 0.36185 0.50767 0.19700
C 	C 	0.55872 0.28138 0.70431 -0.03000
C 	C 	0.56531 0.29052 0.74617 -0.03000
C 	C 	0.62374 0.34184 0.77048 0.03300
C 	C 	0.67460 0.38651 0.75251 -0.00100
C 	C 	0.66790 0.37739 0.71037 -0.00100
C 	C 	0.61045 0.32350 0.68626 0.03200
C 	C 	0.72013 0.41984 0.69251 0.03100
C 	C 	0.77733 0.47316 0.71675 -0.03000
C 	C 	0.78408 0.48205 0.75860 -0.03000
C 	C 	0.73363 0.43784 0.77670 0.03300
C 	C 	0.74282 0.44185 0.81846 -0.02000
C 	C 	0.69386 0.39463 0.83600 -0.03300
C 	C 	0.63343 0.34666 0.81232 -0.02000
C 	C 	0.60696 0.31017 0.64477 -0.02200
C 	C 	0.66091 0.34950 0.62750 -0.03800
C 	C 	0.71599 0.40618 0.65101 -0.02000
H 	H 	0.51396 0.24050 0.68601 0.06600
H 	H 	0.52556 0.25660 0.75967 0.06700
H 	H 	0.81732 0.50671 0.70326 0.06400
H 	H 	0.82919 0.52234 0.77692 0.06500
H 	H 	0.78916 0.47936 0.83701 0.06000
H 	H 	0.59545 0.31079 0.82615 0.06400
H 	H 	0.56391 0.26714 0.62645 0.06900
H 	H 	0.75677 0.43771 0.63735 0.06600
C 	C 	0.57898 0.15674 0.17779 -0.02800
C 	C 	0.57283 0.14815 0.21742 -0.02900
C 	C 	0.62000 0.19644 0.24953 0.03300
C 	C 	0.67524 0.25250 0.24168 -0.00100
C 	C 	0.68098 0.26156 0.20181 0.00100
C 	C 	0.63210 0.21393 0.16979 0.03500
C 	C 	0.73389 0.31963 0.19406 0.03400
C 	C 	0.78257 0.36662 0.22610 -0.02800
C 	C 	0.77740 0.35717 0.26571 -0.02800
C 	C 	0.72318 0.30090 0.27378 0.03700
C 	C 	0.71459 0.29384 0.31347 -0.02200
C 	C 	0.65711 0.24066 0.32111 -0.03200
C 	C 	0.61113 0.19081 0.28927 -0.01900
C 	C 	0.63526 0.22552 0.13044 -0.01400
C 	C 	0.68549 0.28503 0.12310 -0.02900
C 	C 	0.73578 0.33118 0.15464 -0.02300
H 	H 	0.54156 0.11955 0.15337 0.07000
H 	H 	0.53073 0.10445 0.22314 0.06600
H 	H 	0.82387 0.41101 0.22044 0.06500
H 	H 	0.81477 0.39439 0.29014 0.07300
H 	H 	0.75101 0.33109 0.33827 0.07400
H 	H 	0.56760 0.14885 0.29538 0.06800
H 	H 	0.59700 0.18970 0.10583 0.07900
H 	H 	0.77485 0.37685 0.14871 0.05500
C 	C 	0.85527 0.78707 0.46002 -0.04900
C 	C 	0.87016 0.76303 0.49077 0.09100
C 	C 	0.84379 0.69792 0.48521 0.08100
C 	C 	0.79454 0.65502 0.45206 0.00800
C 	C 	0.77411 0.67815 0.42366 0.08100
C 	C 	0.80752 0.74438 0.42609 0.09200
C 	C 	0.76465 0.58583 0.44695 0.02300
C 	C 	0.77991 0.55737 0.41786 0.06400
C 	C 	0.74888 0.49115 0.41174 0.12900
C 	C 	0.71115 0.45520 0.43915 -0.11800
C 	C 	0.70061 0.48534 0.47059 0.12900
C 	C 	0.72222 0.54868 0.47189 0.06500
Br	Br	0.69979 0.61916 0.38206 -0.12400
Br	Br	0.92361 0.81853 0.54130 -0.12900
Br	Br	0.75263 0.44922 0.36368 -0.18300
Br	Br	0.69253 0.58407 0.50708 -0.12200
Br	Br	0.79127 0.77648 0.38170 -0.13000
Br	Br	0.87726 0.66806 0.52177 -0.13700
Br	Br	0.84471 0.60934 0.38739 -0.13300
Br	Br	0.66356 0.44309 0.51432 -0.19100
C 	C 	0.86989 0.98615 0.46804 -0.03000
C 	C 	0.85812 0.00495 0.50409 0.07600
C 	C 	0.83282 0.03966 0.50425 0.08600
C 	C 	0.82146 0.05755 0.46863 0.00300
C 	C 	0.83207 0.03765 0.43243 0.08600
C 	C 	0.85506 0.00089 0.43201 0.07600
C 	C 	0.80056 0.09917 0.46956 0.02600
C 	C 	0.73485 0.07196 0.46026 0.05900
C 	C 	0.71513 0.11157 0.46151 0.13100
C 	C 	0.76075 0.17813 0.47423 -0.12100
C 	C 	0.82652 0.20540 0.48321 0.12600
C 	C 	0.84646 0.16603 0.48003 0.06400
Br	Br	0.81645 0.06211 0.38369 -0.12900
Br	Br	0.87843 0.98464 0.55339 -0.12200
Br	Br	0.62596 0.07506 0.44436 -0.17300
Br	Br	0.93663 0.20342 0.49009 -0.12900
Br	Br	0.86614 0.97041 0.38210 -0.11600
Br	Br	0.81406 0.06319 0.55319 -0.13700
Br	Br	0.67199 0.98038 0.44652 -0.11300
Br	Br	0.88900 0.29637 0.50155 -0.17400
C 	C 	0.40007 0.15926 0.47648 -0.11400
C 	C 	0.35873 0.09210 0.47004 0.12600
C 	C 	0.29321 0.06004 0.47096 0.06000
C 	C 	0.26895 0.09522 0.47765 0.02600
C 	C 	0.31090 0.16248 0.48587 0.06400
C 	C 	0.37663 0.19445 0.48598 0.12800
C 	C 	0.19915 0.06155 0.47481 0.00300
C 	C 	0.15994 0.04458 0.43735 0.08600
C 	C 	0.09350 0.01183 0.43455 0.07600
C 	C 	0.06643 0.99704 0.46929 -0.02500
C 	C 	0.10593 0.01599 0.50693 0.08100
C 	C 	0.17209 0.04717 0.50960 0.08600
Br	Br	0.27785 0.21059 0.49600 -0.12100
Br	Br	0.39175 0.04420 0.45899 -0.16700
Br	Br	0.03933 0.98687 0.38317 -0.11300
Br	Br	0.22577 0.06974 0.56075 -0.12900
Br	Br	0.43493 0.28647 0.49959 -0.14300
Br	Br	0.23636 0.96800 0.46252 -0.11500
Br	Br	0.19750 0.06634 0.38999 -0.13000
Br	Br	0.06936 0.00009 0.55486 -0.12300
C 	C 	0.78219 0.58383 0.01989 -0.11400
C 	C 	0.84830 0.61844 0.01987 0.12600
C 	C 	0.88566 0.68453 0.02025 0.06600
C 	C 	0.85687 0.71603 0.02067 0.02300
C 	C 	0.79146 0.68203 0.02297 0.06600
C 	C 	0.75403 0.61584 0.02233 0.13100
C 	C 	0.89406 0.78358 0.01558 0.01400
C 	C 	0.92880 0.83337 0.04944 0.07800
C 	C 	0.96414 0.89743 0.04444 0.09600
C 	C 	0.96437 0.91170 0.00563 -0.07100
C 	C 	0.92963 0.86191 0.97180 0.09800
C 	C 	0.89471 0.79794 0.97676 0.07400
Br	Br	0.75312 0.72609 0.02614 -0.11700
Br	Br	0.88733 0.57494 0.01887 -0.20700
Br	Br	0.01238 0.96575 0.09064 -0.12000
Br	Br	0.84762 0.72972 0.93043 -0.13500
Br	Br	0.66382 0.56862 0.02358 -0.13600
Br	Br	0.97596 0.73183 0.01928 -0.13000
Br	Br	0.92767 0.81358 0.10255 -0.12100
Br	Br	0.92965 0.88153 0.91867 -0.12500
C 	C 	0.81012 0.24651 0.98416 -0.12200
C 	C 	0.80919 0.21533 0.01590 0.13400
C 	C 	0.83581 0.18190 0.01446 0.06700
C 	C 	0.87245 0.18818 0.98504 0.01900
C 	C 	0.87809 0.22393 0.95527 0.06500
C 	C 	0.84281 0.24857 0.95295 0.13000
C 	C 	0.90565 0.15791 0.98571 0.00900
C 	C 	0.96173 0.18493 0.01433 0.07600
C 	C 	0.98981 0.15310 0.01726 0.09700
C 	C 	0.96798 0.09971 0.98776 -0.07300
C 	C 	0.91443 0.07517 0.95738 0.09800
C 	C 	0.88088 0.10172 0.95800 0.07800
Br	Br	0.93533 0.24046 0.91838 -0.13000
Br	Br	0.77755 0.22361 0.06310 -0.15600
Br	Br	0.05374 0.17888 0.06354 -0.12000
Br	Br	0.80011 0.06015 0.92189 -0.12900
Br	Br	0.83408 0.27887 0.90520 -0.22200
Br	Br	0.82070 0.12621 0.05207 -0.12800
Br	Br	0.00092 0.26631 0.04872 -0.11600
Br	Br	0.88895 0.00735 0.91402 -0.13700
C 	C 	0.16063 0.10666 0.97579 -0.06500
C 	C 	0.17347 0.08547 0.94112 0.09700
C 	C 	0.23723 0.11200 0.93754 0.07800
C 	C 	0.28823 0.16410 0.96664 0.01200
C 	C 	0.27509 0.19020 0.99862 0.07100
C 	C 	0.21178 0.15887 0.00478 0.10400
C 	C 	0.35481 0.18582 0.96687 0.02300
C 	C 	0.38180 0.16663 0.99382 0.05700
C 	C 	0.44839 0.19858 0.00157 0.13500
C 	C 	0.48695 0.24279 0.97768 -0.11800
C 	C 	0.45835 0.25590 0.94704 0.12800
C 	C 	0.39318 0.23049 0.94332 0.06500
Br	Br	0.34421 0.26813 0.03445 -0.12500
Br	Br	0.10384 0.02109 0.89835 -0.13100
Br	Br	0.48699 0.18733 0.04784 -0.16800
Br	Br	0.35727 0.25899 0.90748 -0.12200
Br	Br	0.19584 0.18318 0.05467 -0.12600
Br	Br	0.25472 0.07496 0.89417 -0.12800
Br	Br	0.32736 0.09716 0.02061 -0.13200
Br	Br	0.50733 0.30545 0.90886 -0.17900
