data_crystal

_cell_length_a 20.48858
_cell_length_b 21.43076
_cell_length_c 28.27138
_cell_angle_alpha 61.15337
_cell_angle_beta  118.56800
_cell_angle_gamma 133.19529

_symmetry_space_group_name_	'P 1'
_symmetry_space_group_name_H-M	'P 1'

loop_
_symmetry_equiv_pos_as_xyz
  x,y,z

loop_
_atom_site_label
_atom_site_type_symbol
_atom_site_fract_x
_atom_site_fract_y
_atom_site_fract_z
_atom_site_charge
C 	C 	0.72931 0.28440 0.04310 0.13300
N 	N 	0.64033 0.23914 0.04352 -0.14400
C 	C 	0.61658 0.27188 0.05809 0.14300
N 	N 	0.68116 0.35004 0.07197 -0.13600
C 	C 	0.76870 0.39874 0.06856 0.13800
C 	C 	0.70378 0.29060 0.52045 0.13800
N 	N 	0.61219 0.24788 0.51270 -0.14300
C 	C 	0.58187 0.28947 0.51048 0.14500
N 	N 	0.64260 0.37390 0.51473 -0.13200
C 	C 	0.73396 0.41508 0.52606 0.14600
C 	C 	0.29852 0.65515 0.22509 0.14400
N 	N 	0.39000 0.69949 0.23122 -0.13200
C 	C 	0.42111 0.65875 0.23321 0.14800
N 	N 	0.36149 0.57340 0.23098 -0.14100
C 	C 	0.27004 0.53068 0.22089 0.14700
N 	N 	0.23804 0.57153 0.21774 -0.13400
C 	C 	0.28239 0.66326 0.70590 0.13800
N 	N 	0.37198 0.69646 0.71670 -0.12800
C 	C 	0.39379 0.65594 0.70838 0.15000
N 	N 	0.32662 0.57983 0.69206 -0.13600
C 	C 	0.23731 0.54251 0.68452 0.14500
N 	N 	0.21417 0.58448 0.69070 -0.13800
Co	Co	0.06318 0.02890 0.04791 1.16600
C 	C 	0.24053 0.10845 0.02940 0.33400
Co	Co	0.11850 0.91317 0.05562 1.17800
O 	O 	0.04218 0.11694 0.03417 -0.46800
C 	C 	0.06541 0.22498 0.14580 0.32300
C 	C 	0.20112 0.88300 0.17265 0.31600
O 	O 	0.08921 0.20151 0.12455 -0.38600
O 	O 	0.22066 0.94375 0.12644 -0.38200
O 	O 	0.14099 0.86308 0.19367 -0.36300
O 	O 	0.06730 0.94163 0.08532 -0.73900
C 	C 	0.00803 0.00012 0.29157 0.20300
O 	O 	0.19203 0.04079 0.00908 -0.42100
O 	O 	0.20252 0.11612 0.05097 -0.40100
Co	Co	0.04346 0.01925 0.54646 1.17000
C 	C 	0.22349 0.09759 0.53375 0.33100
Co	Co	0.09792 0.90272 0.55354 1.17700
O 	O 	0.02276 0.10755 0.53405 -0.46100
C 	C 	0.03971 0.21244 0.64220 0.32000
C 	C 	0.18201 0.87617 0.67160 0.31600
O 	O 	0.06667 0.18405 0.62756 -0.38600
O 	O 	0.20155 0.93039 0.62371 -0.37500
O 	O 	0.12966 0.86868 0.69196 -0.36600
O 	O 	0.04200 0.92826 0.58208 -0.73300
C 	C 	0.00462 0.00248 0.79009 0.20600
O 	O 	0.17505 0.03268 0.51064 -0.42600
O 	O 	0.18515 0.10106 0.55813 -0.40400
C 	C 	0.16782 0.45347 0.67432 -0.04100
C 	C 	0.13181 0.44549 0.61939 -0.08700
C 	C 	0.09889 0.37004 0.60789 0.18600
C 	C 	0.10219 0.30154 0.65147 -0.11100
C 	C 	0.13703 0.30925 0.70632 -0.04500
C 	C 	0.16577 0.38258 0.71788 0.14300
H 	H 	0.13378 0.49980 0.58534 0.07300
O 	O 	0.06291 0.36317 0.55395 -0.28500
H 	H 	0.13689 0.25574 0.74039 0.06400
O 	O 	0.19922 0.38819 0.77193 -0.27100
H 	H 	0.14531 0.36219 0.78407 0.15100
C 	C 	0.48927 0.69837 0.71163 -0.03900
C 	C 	0.51385 0.72100 0.66426 -0.08600
C 	C 	0.60350 0.75693 0.66725 0.19000
C 	C 	0.66972 0.77185 0.71775 -0.12000
C 	C 	0.64289 0.74222 0.76604 -0.03800
C 	C 	0.55349 0.70717 0.76293 0.14500
H 	H 	0.46360 0.71174 0.62489 0.07700
O 	O 	0.62819 0.78419 0.61984 -0.27300
O 	O 	0.52847 0.67974 0.81025 -0.27000
H 	H 	0.54269 0.73226 0.81345 0.16000
H 	H 	0.61733 0.73264 0.61789 0.15700
C 	C 	0.26018 0.71688 0.70652 -0.03800
C 	C 	0.17426 0.67623 0.71417 -0.08500
C 	C 	0.15255 0.72758 0.71219 0.18100
C 	C 	0.21565 0.82042 0.70075 -0.10900
C 	C 	0.30486 0.85930 0.70022 -0.04400
C 	C 	0.32621 0.80948 0.70034 0.14100
H 	H 	0.12405 0.60523 0.72127 0.07900
O 	O 	0.06827 0.68705 0.71900 -0.27200
H 	H 	0.35527 0.93029 0.69370 0.08000
O 	O 	0.41071 0.85204 0.69267 -0.26700
H 	H 	0.40263 0.86895 0.65189 0.15300
H 	H 	0.07708 0.67488 0.75937 0.15900
C 	C 	0.13274 0.30789 0.16348 -0.11900
C 	C 	0.16575 0.30364 0.22053 -0.04600
C 	C 	0.20232 0.37324 0.24009 0.14200
C 	C 	0.20724 0.44880 0.20249 -0.03900
C 	C 	0.17538 0.45360 0.14535 -0.08800
C 	C 	0.14077 0.38477 0.12576 0.18700
H 	H 	0.15935 0.24454 0.25000 0.06200
O 	O 	0.23256 0.36700 0.29615 -0.27600
H 	H 	0.18180 0.51276 0.11591 0.07900
O 	O 	0.11172 0.39146 0.06973 -0.28700
H 	H 	0.16638 0.41843 0.05797 0.15800
H 	H 	0.29780 0.39014 0.30543 0.15600
C 	C 	0.67816 0.78607 0.20388 -0.11500
C 	C 	0.61483 0.80300 0.16252 -0.04300
C 	C 	0.53392 0.76726 0.17361 0.14700
C 	C 	0.51359 0.71049 0.22560 -0.04100
C 	C 	0.57320 0.68768 0.26521 -0.08500
C 	C 	0.65447 0.72416 0.25421 0.18800
H 	H 	0.63170 0.84938 0.12318 0.08100
O 	O 	0.47308 0.78515 0.13284 -0.26500
H 	H 	0.55601 0.64083 0.30440 0.07700
O 	O 	0.71454 0.70502 0.29459 -0.28000
H 	H 	0.69692 0.65349 0.28766 0.15700
H 	H 	0.49213 0.83888 0.13772 0.16500
C 	C 	0.21796 0.81718 0.18753 -0.11600
C 	C 	0.22168 0.80353 0.14504 -0.02900
C 	C 	0.24208 0.74637 0.15715 0.13900
C 	C 	0.26375 0.70481 0.21235 -0.03500
C 	C 	0.26024 0.71764 0.25528 -0.08700
C 	C 	0.23615 0.77277 0.24297 0.18700
H 	H 	0.20917 0.83790 0.10225 0.02600
O 	O 	0.24571 0.73497 0.11490 -0.26800
H 	H 	0.27740 0.68612 0.29810 0.07600
O 	O 	0.23547 0.78651 0.28529 -0.27600
H 	H 	0.17197 0.73954 0.29104 0.15700
H 	H 	0.18274 0.68372 0.10311 0.15400
C 	C 	0.74561 0.23121 0.49029 -0.09200
H 	H 	0.73393 0.26726 0.44794 0.07200
C 	C 	0.48845 0.23878 0.51601 -0.04400
C 	C 	0.46971 0.19184 0.56894 -0.09100
C 	C 	0.38726 0.15736 0.57730 0.18200
C 	C 	0.32054 0.16550 0.53196 -0.12500
C 	C 	0.34222 0.21795 0.47996 -0.03800
C 	C 	0.42517 0.25350 0.47168 0.13900
H 	H 	0.52014 0.18393 0.60393 0.06700
O 	O 	0.36930 0.11037 0.62912 -0.29500
H 	H 	0.29181 0.22583 0.44492 0.06200
O 	O 	0.44509 0.30407 0.42047 -0.27200
H 	H 	0.42033 0.26203 0.40039 0.14700
H 	H 	0.39217 0.15426 0.64689 0.15100
C 	C 	0.68534 0.15767 0.02083 -0.09500
H 	H 	0.61352 0.12949 0.01229 0.07300
O 	O 	0.63923 0.02183 0.01816 -0.29500
H 	H 	0.62261 0.02580 0.97811 0.15000
C 	C 	0.33986 0.16851 0.03465 -0.13000
C 	C 	0.39849 0.17399 0.08777 -0.03700
C 	C 	0.48786 0.20348 0.09617 0.13900
C 	C 	0.51984 0.22993 0.05095 -0.04500
C 	C 	0.46318 0.22968 0.99738 -0.09000
C 	C 	0.37414 0.20080 0.98897 0.19000
H 	H 	0.37279 0.14985 0.12312 0.06000
O 	O 	0.54418 0.20703 0.14852 -0.27400
H 	H 	0.48877 0.25333 0.96210 0.07300
O 	O 	0.31855 0.19906 0.93642 -0.28700
H 	H 	0.32859 0.25685 0.92134 0.15800
H 	H 	0.53312 0.14866 0.16496 0.14600
H 	H 	0.69316 0.75173 0.80539 0.06700
C 	C 	0.73697 0.23955 0.53312 -0.04000
C 	C 	0.70785 0.10701 0.02353 0.18400
Co	Co	0.03122 0.87609 0.14603 1.18200
O 	O 	0.03700 0.99435 0.13012 -0.55900
O 	O 	0.00959 0.06816 0.25481 -0.37900
O 	O 	0.04475 0.78162 0.09796 -0.40500
Co	Co	0.01081 0.86585 0.64441 1.18400
O 	O 	0.01075 0.95629 0.77466 -0.32500
C 	C 	0.00318 0.97060 0.89458 -0.04700
C 	C 	0.00514 0.98324 0.84783 0.02100
C 	C 	0.00148 0.97988 0.34762 0.02700
O 	O 	0.02577 0.77102 0.59574 -0.39500
C 	C 	0.75496 0.24175 0.03252 -0.03700
O 	O 	0.00472 0.94640 0.27699 -0.31900
O 	O 	0.77381 0.16586 0.45966 -0.28400
N 	N 	0.76509 0.37344 0.52920 -0.13500
H 	H 	0.67930 0.15455 0.63236 0.14500
N 	N 	0.79375 0.36609 0.05434 -0.12700
C 	C 	0.77548 0.85365 0.20307 0.33100
C 	C 	0.76732 0.83834 0.71728 0.33400
C 	C 	0.76790 0.17489 0.50201 0.18400
H 	H 	0.81280 0.43215 0.63138 0.07500
H 	H 	0.76971 0.53611 0.99087 0.07700
C 	C 	0.75082 0.19158 0.58762 0.13400
O 	O 	0.74467 0.20042 0.63001 -0.27800
O 	O 	0.78009 0.57955 0.44945 -0.26800
C 	C 	0.79745 0.49732 0.54421 -0.04100
O 	O 	0.78015 0.00009 0.61766 -0.39800
C 	C 	0.77950 0.12506 0.55671 -0.12100
C 	C 	0.82390 0.49255 0.60105 -0.08700
H 	H 	0.82681 0.53295 0.68312 0.15500
C 	C 	0.80045 0.14057 0.03648 -0.12200
C 	C 	0.81290 0.55049 0.03114 -0.09100
C 	C 	0.77119 0.13462 0.59918 -0.03400
C 	C 	0.80842 0.57469 0.50522 0.14400
C 	C 	0.83147 0.49051 0.07328 -0.03400
O 	O 	0.80259 0.02437 0.11345 -0.40600
O 	O 	0.81532 0.84948 0.18034 -0.38900
C 	C 	0.79762 0.06030 0.57103 0.31500
O 	O 	0.81412 0.90724 0.73591 -0.39200
O 	O 	0.80597 0.83135 0.69569 -0.37800
H 	H 	0.78071 0.09767 0.64158 0.01800
O 	O 	0.82096 0.68085 0.00055 -0.28400
O 	O 	0.00870 0.88635 0.98838 -0.38400
H 	H 	0.83889 0.21249 0.45681 0.15800
C 	C 	0.82569 0.07828 0.06616 0.31900
O 	O 	0.82317 0.91773 0.22671 -0.38500
C 	C 	0.00299 0.95082 0.95224 0.29400
H 	H 	0.83471 0.60438 0.43865 0.15200
C 	C 	0.99476 0.96682 0.39301 -0.05700
C 	C 	0.85909 0.56336 0.61886 0.18700
C 	C 	0.84348 0.62542 0.04177 0.18500
H 	H 	0.99653 0.33506 0.54658 0.15400
O 	O 	0.99283 0.00071 0.46401 -0.39300
O 	O 	0.99589 0.06505 0.75353 -0.38000
H 	H 	0.85543 0.40958 0.18750 0.15400
O 	O 	0.99886 0.99817 0.96800 -0.34300
O 	O 	0.97925 0.18023 0.14559 -0.40800
O 	O 	0.90554 0.45207 0.16742 -0.27500
Co	Co	0.99570 0.08544 0.09763 1.17700
Co	Co	0.96973 0.07186 0.59594 1.17700
O 	O 	0.98865 0.87945 0.48603 -0.39300
O 	O 	0.95370 0.16491 0.64341 -0.40500
C 	C 	0.88480 0.50862 0.12589 0.14000
H 	H 	0.96046 0.59909 0.17642 0.06100
C 	C 	0.91656 0.58429 0.13633 -0.03900
Co	Co	0.95739 0.92972 0.19446 1.19100
Co	Co	0.90328 0.04798 0.18553 1.16200
C 	C 	0.95880 0.73554 0.09882 0.32100
O 	O 	0.96101 0.02187 0.15889 -0.77000
O 	O 	0.97707 0.84044 0.20731 -0.45500
O 	O 	0.87750 0.08207 0.04789 -0.39000
O 	O 	0.93321 0.76541 0.11326 -0.38400
Co	Co	0.94442 0.92198 0.69580 1.19200
Co	Co	0.88387 0.03404 0.68749 1.16300
C 	C 	0.94012 0.72497 0.59729 0.32900
O 	O 	0.93614 0.00687 0.65759 -0.76900
O 	O 	0.96904 0.83638 0.70967 -0.45300
O 	O 	0.96803 0.95577 0.61292 -0.55900
C 	C 	0.98848 0.94656 0.44914 0.33000
O 	O 	0.85750 0.08132 0.54920 -0.36700
O 	O 	0.91698 0.74867 0.61889 -0.37600
C 	C 	0.87248 0.64165 0.57988 -0.11300
C 	C 	0.84411 0.64556 0.52307 -0.04600
H 	H 	0.85350 0.70525 0.49263 0.07000
O 	O 	0.88288 0.55679 0.67451 -0.27400
C 	C 	0.86883 0.23006 0.03739 -0.04300
C 	C 	0.84749 0.27971 0.03813 0.14100
H 	H 	0.93955 0.25928 0.04174 0.07700
O 	O 	0.91664 0.36490 0.04332 -0.26300
H 	H 	0.94217 0.36019 0.08386 0.15900
C 	C 	0.89707 0.64377 0.09429 -0.11300
H 	H 	0.86765 0.72100 0.97815 0.16200
