data_crystal

_cell_length_a 18.84019
_cell_length_b 16.00622
_cell_length_c 40.29843
_cell_angle_alpha 90.88319
_cell_angle_beta  91.27392
_cell_angle_gamma 111.16566

_symmetry_space_group_name_	'P 1'
_symmetry_space_group_name_H-M	'P 1'

loop_
_symmetry_equiv_pos_as_xyz
  x,y,z

loop_
_atom_site_label
_atom_site_type_symbol
_atom_site_fract_x
_atom_site_fract_y
_atom_site_fract_z
_atom_site_charge
Ni	Ni	0.72282 0.32628 0.88638 1.10000
O 	O 	0.63540 0.25316 0.85486 -0.70800
Ni	Ni	0.54716 0.26076 0.87884 1.10500
O 	O 	0.79951 0.30776 0.85479 -0.36800
O 	O 	0.73989 0.15449 0.85517 -0.40300
O 	O 	0.72125 0.43199 0.85900 -0.40200
Ni	Ni	0.62204 0.12801 0.84969 1.06500
O 	O 	0.73804 0.42490 0.96058 -0.41400
O 	O 	0.61242 0.10329 0.89945 -0.41100
O 	O 	0.46814 0.19880 0.84292 -0.37300
O 	O 	0.63309 0.31588 0.91364 -0.70100
O 	O 	0.81031 0.40957 0.91658 -0.37700
O 	O 	0.47045 0.30310 0.90262 -0.35200
O 	O 	0.55925 0.44372 0.90563 -0.41200
Ni	Ni	0.65046 0.43472 0.93290 1.07400
H 	H 	0.63833 0.28059 0.83283 0.15800
H 	H 	0.63044 0.27427 0.93186 0.15800
C 	C 	0.55195 0.10122 0.91558 0.31400
O 	O 	0.72803 0.52404 0.90362 -0.39500
C 	C 	0.79485 0.22722 0.84469 0.28800
C 	C 	0.45816 0.11667 0.83218 0.29700
C 	C 	0.73404 0.51197 0.87172 0.33200
C 	C 	0.49038 0.38793 0.91163 0.28900
C 	C 	0.80422 0.43145 0.94806 0.31600
O 	O 	0.50841 0.14360 0.90454 -0.36700
O 	O 	0.50452 0.07477 0.84228 -0.39700
Ni	Ni	0.60305 0.32427 0.56856 1.10100
O 	O 	0.68572 0.34241 0.53431 -0.69500
Ni	Ni	0.75811 0.29589 0.55793 1.09900
O 	O 	0.56026 0.41401 0.54829 -0.37200
O 	O 	0.67978 0.51737 0.54786 -0.40200
O 	O 	0.52758 0.22474 0.53828 -0.37000
Ni	Ni	0.74056 0.46216 0.51834 1.09300
O 	O 	0.50094 0.14345 0.59674 -0.39700
O 	O 	0.83677 0.51916 0.54841 -0.36400
O 	O 	0.85011 0.33494 0.52676 -0.37500
O 	O 	0.66860 0.26506 0.58977 -0.70000
O 	O 	0.52203 0.29379 0.60353 -0.38300
O 	O 	0.80862 0.22620 0.58647 -0.37000
O 	O 	0.70093 0.10055 0.58297 -0.39000
Ni	Ni	0.60717 0.13752 0.59021 1.07200
H 	H 	0.66451 0.30327 0.51453 0.15800
H 	H 	0.68493 0.28957 0.61255 0.15600
C 	C 	0.85724 0.48423 0.57471 0.31300
O 	O 	0.59047 0.12675 0.54013 -0.41100
C 	C 	0.60669 0.49513 0.54156 0.30000
C 	C 	0.85611 0.38887 0.50135 0.30700
C 	C 	0.54335 0.15804 0.52503 0.31000
C 	C 	0.76849 0.14511 0.59664 0.28800
C 	C 	0.48510 0.20949 0.61131 0.30100
O 	O 	0.81098 0.40876 0.58681 -0.39700
O 	O 	0.79623 0.40362 0.48952 -0.40400
Ni	Ni	0.99843 0.95336 0.75610 1.09900
O 	O 	0.01126 0.85995 0.72471 -0.70700
Ni	Ni	0.06131 0.93498 0.68677 1.10600
O 	O 	0.94758 0.85654 0.78961 -0.35400
O 	O 	0.85444 0.78138 0.75144 -0.41600
O 	O 	0.10216 0.97721 0.78103 -0.34800
Ni	Ni	0.91094 0.77985 0.70775 1.06300
O 	O 	0.08992 0.15355 0.77736 -0.41000
O 	O 	0.87581 0.87969 0.69097 -0.41200
O 	O 	0.07386 0.83203 0.65967 -0.36200
O 	O 	0.03690 0.02900 0.71578 -0.68800
O 	O 	0.97691 0.04221 0.78636 -0.40100
O 	O 	0.13550 0.02413 0.65583 -0.35600
O 	O 	0.16679 0.15890 0.68297 -0.39300
Ni	Ni	0.12169 0.13779 0.73001 1.07200
H 	H 	0.04215 0.82723 0.73436 0.16500
H 	H 	0.99588 0.04714 0.70647 0.14400
C 	C 	0.90790 0.92867 0.66569 0.30000
O 	O 	0.18325 0.06108 0.74190 -0.41400
C 	C 	0.88681 0.78665 0.78107 0.29100
C 	C 	0.01333 0.75704 0.65599 0.29800
C 	C 	0.17075 0.01037 0.76807 0.27900
C 	C 	0.18760 0.09961 0.66703 0.30700
C 	C 	0.01791 0.12735 0.78577 0.32800
O 	O 	0.97253 0.92721 0.65495 -0.35100
O 	O 	0.94490 0.75789 0.66189 -0.40900
Ni	Ni	0.24296 0.68540 0.39100 1.10000
O 	O 	0.33559 0.73776 0.36219 -0.70600
Ni	Ni	0.41958 0.74125 0.39366 1.10300
O 	O 	0.17380 0.69035 0.35189 -0.37700
O 	O 	0.23682 0.84169 0.34684 -0.39900
O 	O 	0.24098 0.56501 0.37297 -0.40600
Ni	Ni	0.35294 0.85917 0.34867 1.07000
O 	O 	0.21166 0.60803 0.46658 -0.41000
O 	O 	0.35731 0.90871 0.39615 -0.40800
O 	O 	0.50437 0.78342 0.36078 -0.37900
O 	O 	0.32820 0.70403 0.42419 -0.69700
O 	O 	0.14830 0.62321 0.41866 -0.37700
O 	O 	0.49140 0.71345 0.42719 -0.36400
O 	O 	0.40270 0.57460 0.43277 -0.41100
Ni	Ni	0.30654 0.59381 0.44922 1.08200
H 	H 	0.33396 0.69894 0.34260 0.16100
H 	H 	0.33065 0.75348 0.43975 0.16100
C 	C 	0.41529 0.91904 0.41653 0.30400
O 	O 	0.23985 0.48702 0.41998 -0.38400
C 	C 	0.18006 0.76650 0.33799 0.29500
C 	C 	0.51217 0.85309 0.34200 0.29600
C 	C 	0.21504 0.49105 0.38954 0.33000
C 	C 	0.46985 0.63435 0.44062 0.29900
C 	C 	0.14855 0.58779 0.44821 0.31900
O 	O 	0.45784 0.87033 0.41278 -0.35700
O 	O 	0.47025 0.90359 0.34687 -0.38500
Ni	Ni	0.37967 0.69301 0.05722 1.10300
O 	O 	0.28326 0.67434 0.02885 -0.69700
Ni	Ni	0.21798 0.70563 0.06176 1.10100
O 	O 	0.41927 0.61512 0.02747 -0.36000
O 	O 	0.30375 0.50295 0.02771 -0.41500
O 	O 	0.44033 0.80108 0.02919 -0.36300
Ni	Ni	0.22652 0.55628 0.00911 1.07300
O 	O 	0.48404 0.87100 0.09076 -0.39800
O 	O 	0.14619 0.48706 0.04255 -0.39800
O 	O 	0.11284 0.66252 0.03704 -0.36300
O 	O 	0.32017 0.74042 0.08745 -0.70300
O 	O 	0.47350 0.72303 0.08749 -0.36900
O 	O 	0.17608 0.76161 0.09915 -0.35500
O 	O 	0.27415 0.89566 0.09429 -0.40300
Ni	Ni	0.37438 0.86920 0.09190 1.06900
H 	H 	0.29430 0.71838 0.01093 0.16100
H 	H 	0.31518 0.71185 0.10933 0.16200
C 	C 	0.14050 0.51084 0.07355 0.31900
O 	O 	0.37238 0.88890 0.04224 -0.40200
C 	C 	0.37400 0.53447 0.01767 0.29500
C 	C 	0.09764 0.61685 0.00832 0.30300
C 	C 	0.41911 0.86910 0.02273 0.29900
C 	C 	0.21409 0.84432 0.11011 0.29500
C 	C 	0.50717 0.80532 0.09995 0.29200
O 	O 	0.18753 0.58738 0.08634 -0.38600
O 	O 	0.15252 0.60919 0.99029 -0.41000
Ni	Ni	0.96019 0.03661 0.26630 1.08900
O 	O 	0.96983 0.13394 0.23299 -0.72000
Ni	Ni	0.92981 0.06149 0.19165 1.09100
O 	O 	0.00351 0.13263 0.30306 -0.35900
O 	O 	0.11178 0.19717 0.27405 -0.41200
O 	O 	0.85135 0.02815 0.27767 -0.39100
Ni	Ni	0.07615 0.20668 0.22539 1.06600
O 	O 	0.86875 0.82000 0.27487 -0.40500
O 	O 	0.10903 0.10159 0.21243 -0.39800
O 	O 	0.93450 0.16770 0.16317 -0.37000
O 	O 	0.93611 0.96277 0.22318 -0.68100
O 	O 	0.95573 0.94295 0.30012 -0.36800
O 	O 	0.86226 0.97808 0.15500 -0.35500
O 	O 	0.81617 0.84103 0.17768 -0.40200
Ni	Ni	0.84840 0.85006 0.22747 1.07200
H 	H 	0.93956 0.17114 0.23875 0.15800
H 	H 	0.98021 0.94535 0.21866 0.14400
C 	C 	0.08421 0.05523 0.18462 0.27400
O 	O 	0.78041 0.91826 0.24038 -0.41000
C 	C 	0.06976 0.19740 0.29973 0.29500
C 	C 	0.99879 0.23863 0.16317 0.27200
C 	C 	0.78801 0.96003 0.26937 0.32800
C 	C 	0.80415 0.90643 0.16237 0.30800
C 	C 	0.93491 0.85938 0.29035 0.30700
O 	O 	0.02520 0.06079 0.16834 -0.36000
O 	O 	0.06221 0.23458 0.17679 -0.39000
C 	C 	0.00708 0.30908 0.13898 -0.09000
C 	C 	0.03679 0.39894 0.15007 -0.07000
C 	C 	0.07587 0.46678 0.12838 0.16900
C 	C 	0.08648 0.44439 0.09528 -0.10200
C 	C 	0.04727 0.35621 0.08324 -0.05900
C 	C 	0.00734 0.28891 0.10491 0.17800
H 	H 	0.03416 0.41551 0.17609 0.04500
O 	O 	0.10534 0.55403 0.13986 -0.28400
H 	H 	0.05036 0.33879 0.05737 0.07300
O 	O 	0.97513 0.20195 0.09331 -0.28000
H 	H 	0.92195 0.19398 0.08680 0.15200
H 	H 	0.06467 0.57844 0.13545 0.15100
C 	C 	0.58340 0.83010 0.11595 -0.09900
C 	C 	0.60565 0.89632 0.14132 -0.05900
C 	C 	0.67961 0.92556 0.15516 0.16400
C 	C 	0.73137 0.88682 0.14432 -0.10500
C 	C 	0.70975 0.82155 0.11871 -0.05300
C 	C 	0.63659 0.79413 0.10410 0.17000
H 	H 	0.56559 0.92531 0.15026 0.05000
O 	O 	0.70015 0.98926 0.18031 -0.28300
H 	H 	0.74962 0.79172 0.11020 0.06800
O 	O 	0.61723 0.73224 0.07834 -0.27500
H 	H 	0.63098 0.76778 0.05794 0.15900
H 	H 	0.72166 0.04748 0.16914 0.12600
C 	C 	0.11819 0.99104 0.17273 -0.05900
C 	C 	0.07068 0.90935 0.15796 -0.07800
C 	C 	0.10145 0.85717 0.13920 0.18400
C 	C 	0.18091 0.88615 0.13544 -0.11600
C 	C 	0.22869 0.96242 0.15348 -0.02600
C 	C 	0.19767 0.01571 0.17158 0.12100
H 	H 	0.00939 0.88837 0.15970 0.06300
O 	O 	0.05348 0.78120 0.12292 -0.27300
H 	H 	0.29001 0.98289 0.15212 0.03900
O 	O 	0.24512 0.09278 0.18742 -0.28000
H 	H 	0.25471 0.14026 0.17073 0.14400
H 	H 	0.04541 0.73242 0.13894 0.14600
C 	C 	0.58349 0.89161 0.32403 -0.09500
C 	C 	0.65350 0.90714 0.34070 -0.05200
C 	C 	0.72122 0.93448 0.32324 0.17000
C 	C 	0.71927 0.94601 0.28873 -0.10400
C 	C 	0.64968 0.93502 0.27235 -0.05700
C 	C 	0.58189 0.90756 0.28986 0.16300
H 	H 	0.65523 0.89618 0.36713 0.08000
O 	O 	0.78850 0.94407 0.33957 -0.25900
H 	H 	0.64783 0.94560 0.24590 0.07500
O 	O 	0.51422 0.89583 0.27348 -0.29800
H 	H 	0.49467 0.83256 0.26533 0.13500
H 	H 	0.80973 0.00756 0.34742 0.14400
C 	C 	0.17253 0.40750 0.37132 -0.10600
C 	C 	0.20836 0.34688 0.36375 -0.05400
C 	C 	0.17360 0.27537 0.34132 0.16800
C 	C 	0.10168 0.26317 0.32693 -0.10500
C 	C 	0.06338 0.31976 0.33654 -0.06200
C 	C 	0.09898 0.39256 0.35833 0.17200
H 	H 	0.26451 0.35728 0.37420 0.06300
O 	O 	0.20928 0.21655 0.33397 -0.28100
H 	H 	0.00731 0.30954 0.32603 0.05900
O 	O 	0.06158 0.44855 0.36716 -0.27900
H 	H 	0.07475 0.49559 0.35020 0.15600
H 	H 	0.24295 0.24349 0.31536 0.14700
C 	C 	0.11205 0.77289 0.32109 -0.09900
C 	C 	0.04066 0.73622 0.33571 -0.05300
C 	C 	0.97862 0.75627 0.32341 0.17300
C 	C 	0.98731 0.81156 0.29588 -0.13500
C 	C 	0.05617 0.83946 0.27905 -0.04900
C 	C 	0.11888 0.82179 0.29189 0.16500
H 	H 	0.03430 0.69634 0.35771 0.07100
O 	O 	0.91032 0.72415 0.33899 -0.28500
H 	H 	0.06272 0.88043 0.25733 0.03500
O 	O 	0.18655 0.85194 0.27576 -0.30000
H 	H 	0.21395 0.91363 0.28470 0.14900
H 	H 	0.91349 0.76957 0.35656 0.16100
C 	C 	0.44089 0.99533 0.44023 -0.08800
C 	C 	0.39597 0.99727 0.46729 -0.04600
C 	C 	0.42736 0.05674 0.49420 0.15700
C 	C 	0.50426 0.11408 0.49410 -0.10700
C 	C 	0.54681 0.11771 0.46574 -0.05400
C 	C 	0.51523 0.05914 0.43872 0.15300
H 	H 	0.33820 0.94934 0.46833 0.05700
O 	O 	0.38469 0.05372 0.52162 -0.28300
H 	H 	0.60560 0.16310 0.46526 0.05100
O 	O 	0.55873 0.06042 0.41174 -0.27400
H 	H 	0.54839 0.10233 0.39616 0.14400
H 	H 	0.35970 0.09770 0.51755 0.15400
C 	C 	0.93175 0.44033 0.48828 -0.09600
C 	C 	0.98982 0.40479 0.48918 -0.07200
C 	C 	0.06157 0.45362 0.47682 0.18500
C 	C 	0.07536 0.53837 0.46318 -0.10900
C 	C 	0.01787 0.57433 0.46267 -0.03800
C 	C 	0.94645 0.52617 0.47509 0.16200
H 	H 	0.97921 0.33896 0.49910 0.07400
O 	O 	0.11683 0.41657 0.47659 -0.28300
H 	H 	0.02867 0.64023 0.45275 0.06800
O 	O 	0.89257 0.56526 0.47612 -0.29300
H 	H 	0.86594 0.55173 0.45407 0.14900
H 	H 	0.14493 0.43503 0.49819 0.14600
C 	C 	0.51301 0.61899 0.46898 -0.10800
C 	C 	0.58456 0.61364 0.46418 -0.05800
C 	C 	0.61852 0.57879 0.48885 0.18000
C 	C 	0.58054 0.54929 0.51870 -0.11900
C 	C 	0.51231 0.56241 0.52460 -0.04700
C 	C 	0.47832 0.59687 0.49985 0.16700
H 	H 	0.61197 0.63180 0.44061 0.06800
O 	O 	0.68561 0.56689 0.48268 -0.36400
H 	H 	0.48407 0.54259 0.54791 0.06500
O 	O 	0.41128 0.60917 0.50584 -0.31700
H 	H 	0.37049 0.55067 0.50025 0.10400
H 	H 	0.72629 0.62353 0.49035 0.15300
C 	C 	0.80559 0.09638 0.61736 -0.10300
C 	C 	0.88436 0.11694 0.61599 -0.05400
C 	C 	0.91868 0.06506 0.63288 0.14700
C 	C 	0.87353 0.98927 0.65040 -0.09200
C 	C 	0.79530 0.97131 0.65301 -0.04500
C 	C 	0.76159 0.02551 0.63720 0.15000
H 	H 	0.91906 0.17242 0.60143 0.07200
O 	O 	0.99613 0.08789 0.63188 -0.27300
H 	H 	0.76031 0.91480 0.66704 0.06500
O 	O 	0.68531 0.00806 0.64064 -0.30500
H 	H 	0.68209 0.04452 0.66028 0.12400
H 	H 	0.01725 0.13064 0.65083 0.14300
C 	C 	0.26371 0.12989 0.65260 -0.10100
C 	C 	0.32891 0.15955 0.67363 -0.06100
C 	C 	0.40175 0.18811 0.66029 0.16600
C 	C 	0.40960 0.18689 0.62570 -0.09800
C 	C 	0.34451 0.15922 0.60467 -0.05400
C 	C 	0.27176 0.13036 0.61794 0.17200
H 	H 	0.32315 0.15959 0.70034 0.06200
O 	O 	0.46492 0.21399 0.68112 -0.30200
H 	H 	0.35034 0.15940 0.57797 0.07300
O 	O 	0.20879 0.10613 0.59700 -0.27000
H 	H 	0.19594 0.04139 0.59194 0.16200
H 	H 	0.47874 0.27943 0.68485 0.14500
C 	C 	0.92608 0.54037 0.59449 -0.10000
C 	C 	0.93315 0.52490 0.62838 -0.05600
C 	C 	0.98064 0.59427 0.64937 0.14700
C 	C 	0.01718 0.68039 0.63669 -0.09000
C 	C 	0.02457 0.68843 0.60225 -0.04500
C 	C 	0.97933 0.61827 0.58099 0.16300
H 	H 	0.89835 0.46187 0.63886 0.06100
O 	O 	0.98480 0.58056 0.68278 -0.29300
H 	H 	0.05816 0.75229 0.59197 0.07600
O 	O 	0.98458 0.62770 0.54728 -0.27400
H 	H 	0.02412 0.60357 0.54089 0.15900
H 	H 	0.94067 0.59132 0.69233 0.11100
C 	C 	0.87404 0.47333 0.96844 -0.11300
C 	C 	0.89191 0.56057 0.98155 -0.04600
C 	C 	0.96381 0.60678 0.99635 0.15400
C 	C 	0.01824 0.56553 0.99797 -0.07200
C 	C 	0.99828 0.47616 0.98692 -0.09100
C 	C 	0.92690 0.43043 0.97187 0.18400
H 	H 	0.85125 0.59390 0.97904 0.06000
O 	O 	0.98230 0.69393 0.00719 -0.27700
H 	H 	0.03913 0.44300 0.98906 0.06700
O 	O 	0.90847 0.34333 0.96092 -0.29400
H 	H 	0.92688 0.34722 0.93791 0.16200
H 	H 	0.96718 0.69018 0.03070 0.15900
C 	C 	0.52734 0.04289 0.94413 -0.13300
C 	C 	0.51426 0.07920 0.97422 -0.03900
C 	C 	0.47836 0.02304 0.99992 0.14700
C 	C 	0.45508 0.92925 0.99558 -0.07100
C 	C 	0.47001 0.89309 0.96574 -0.07600
C 	C 	0.50631 0.94949 0.94013 0.20300
H 	H 	0.53070 0.15116 0.97748 0.04600
O 	O 	0.46896 0.06003 0.02967 -0.29600
H 	H 	0.45268 0.82112 0.96223 0.07700
O 	O 	0.51713 0.91294 0.91053 -0.29000
H 	H 	0.56788 0.90777 0.91299 0.15600
H 	H 	0.41985 0.06932 0.02713 0.15100
C 	C 	0.44506 0.41520 0.93568 -0.10900
C 	C 	0.43701 0.49840 0.93235 -0.06200
C 	C 	0.41184 0.53668 0.95883 0.16100
C 	C 	0.39452 0.49160 0.98899 -0.12100
C 	C 	0.39666 0.40540 0.99151 -0.05100
C 	C 	0.42268 0.36737 0.96514 0.15100
H 	H 	0.45337 0.53515 0.90966 0.06700
O 	O 	0.40682 0.61962 0.95563 -0.28500
H 	H 	0.38089 0.36921 0.01435 0.05700
O 	O 	0.42796 0.28459 0.96848 -0.26900
H 	H 	0.47960 0.29642 0.97823 0.12300
H 	H 	0.35399 0.60779 0.94740 0.11900
C 	C 	0.98813 0.18965 0.80235 -0.12300
C 	C 	0.97786 0.18251 0.83675 -0.06000
C 	C 	0.91438 0.19403 0.85075 0.17100
C 	C 	0.86320 0.21791 0.83055 -0.10200
C 	C 	0.88049 0.23917 0.79735 -0.06400
C 	C 	0.94354 0.22648 0.78334 0.16500
H 	H 	0.01420 0.15837 0.85200 0.07700
O 	O 	0.90273 0.18228 0.88411 -0.28700
H 	H 	0.84379 0.26272 0.78209 0.04800
O 	O 	0.95601 0.24006 0.75012 -0.32000
H 	H 	0.99189 0.30287 0.74873 0.14000
H 	H 	0.87201 0.11772 0.88632 0.15500
C 	C 	0.23758 0.00466 0.78650 -0.09300
C 	C 	0.24494 0.02116 0.82094 -0.06500
C 	C 	0.31699 0.04942 0.83683 0.17400
C 	C 	0.38230 0.06205 0.81817 -0.10000
C 	C 	0.37381 0.03438 0.78471 -0.05700
C 	C 	0.30153 0.00421 0.76895 0.14700
H 	H 	0.19586 0.01871 0.83498 0.07700
O 	O 	0.32410 0.07104 0.87013 -0.26800
H 	H 	0.42352 0.04075 0.77045 0.04700
O 	O 	0.29436 0.98093 0.73580 -0.27200
H 	H 	0.28334 0.91548 0.73495 0.14300
H 	H 	0.32124 0.01525 0.88136 0.15600
C 	C 	0.77119 0.58979 0.85145 -0.11200
C 	C 	0.85012 0.63460 0.85474 -0.04800
C 	C 	0.88831 0.69985 0.83212 0.16200
C 	C 	0.84690 0.72294 0.80658 -0.10100
C 	C 	0.76724 0.68094 0.80441 -0.06500
C 	C 	0.72957 0.61364 0.82642 0.17100
H 	H 	0.88233 0.61623 0.87406 0.06900
O 	O 	0.96610 0.74002 0.83473 -0.26800
H 	H 	0.73460 0.69948 0.78534 0.06600
O 	O 	0.65189 0.57221 0.82375 -0.28800
H 	H 	0.64284 0.52041 0.80824 0.14200
H 	H 	0.98607 0.70170 0.82112 0.13900
