data_crystal

_cell_length_a 18.60038
_cell_length_b 18.80388
_cell_length_c 26.83053
_cell_angle_alpha 95.43753
_cell_angle_beta  95.43440
_cell_angle_gamma 126.37314

_symmetry_space_group_name_	'P 1'
_symmetry_space_group_name_H-M	'P 1'

loop_
_symmetry_equiv_pos_as_xyz
  x,y,z

loop_
_atom_site_label
_atom_site_type_symbol
_atom_site_fract_x
_atom_site_fract_y
_atom_site_fract_z
_atom_site_charge
C 	C 	0.96732 0.05179 0.00506 0.12500
N 	N 	0.91300 0.96067 0.99207 -0.13600
C 	C 	0.94986 0.91665 0.98700 0.12500
N 	N 	0.04144 0.96408 0.99476 -0.13600
C 	C 	0.09639 0.05510 0.00691 0.12100
N 	N 	0.05942 0.09936 0.01193 -0.13400
C 	C 	0.89656 0.98910 0.44432 0.11900
N 	N 	0.98884 0.04412 0.45408 -0.13300
C 	C 	0.03524 0.00976 0.45967 0.11600
N 	N 	0.98911 0.91980 0.45570 -0.13300
C 	C 	0.89697 0.86399 0.44689 0.11900
N 	N 	0.85012 0.89852 0.44134 -0.13200
Cu	Cu	0.64023 0.23005 0.01677 0.92900
Cu	Cu	0.68551 0.20352 0.90450 0.88800
Cu	Cu	0.67719 0.35400 0.93969 0.90300
Cu	Cu	0.65421 0.40513 0.04486 0.90500
C 	C 	0.66275 0.30156 0.12108 0.39800
O 	O 	0.50947 0.17805 0.02271 -0.34600
C 	C 	0.63951 0.27317 0.83039 0.37500
O 	O 	0.71366 0.36722 0.01145 -0.63400
O 	O 	0.61415 0.22370 0.94251 -0.63800
O 	O 	0.69842 0.16786 0.01643 -0.35200
O 	O 	0.78252 0.24342 0.95819 -0.42200
O 	O 	0.67222 0.37454 0.11214 -0.36700
O 	O 	0.74559 0.48230 0.94243 -0.36100
C 	C 	0.74206 0.53642 0.97552 0.29200
C 	C 	0.47431 0.21850 0.00937 0.29000
O 	O 	0.52593 0.29726 0.99655 -0.38200
O 	O 	0.68725 0.50541 0.00881 -0.38100
O 	O 	0.68103 0.25897 0.08902 -0.34700
C 	C 	0.76882 0.19643 0.99414 0.28600
O 	O 	0.65986 0.34174 0.86414 -0.34800
O 	O 	0.61908 0.19909 0.84456 -0.38300
H 	H 	0.78034 0.40578 0.02338 0.18000
H 	H 	0.54864 0.18512 0.92715 0.18300
Cu	Cu	0.73522 0.32919 0.43808 0.92900
Cu	Cu	0.74905 0.27020 0.54766 0.89000
Cu	Cu	0.60540 0.28969 0.51259 0.90300
Cu	Cu	0.56655 0.32811 0.41138 0.90700
C 	C 	0.65631 0.29945 0.33307 0.38400
O 	O 	0.78972 0.46148 0.43644 -0.33900
C 	C 	0.67853 0.31465 0.62196 0.38000
O 	O 	0.59610 0.25940 0.44050 -0.63600
O 	O 	0.73719 0.34845 0.51224 -0.63600
O 	O 	0.79286 0.26566 0.43750 -0.34500
O 	O 	0.70739 0.17762 0.49164 -0.42200
O 	O 	0.62052 0.33885 0.34884 -0.36100
O 	O 	0.47560 0.22543 0.50770 -0.36200
C 	C 	0.42223 0.22756 0.47262 0.29300
C 	C 	0.75245 0.49743 0.45519 0.27800
O 	O 	0.67217 0.44502 0.46721 -0.38300
O 	O 	0.45560 0.28370 0.44034 -0.37700
O 	O 	0.70909 0.29227 0.36536 -0.33600
C 	C 	0.75769 0.19224 0.45716 0.28200
O 	O 	0.61305 0.30105 0.58786 -0.34900
O 	O 	0.75330 0.33280 0.60885 -0.38600
H 	H 	0.55441 0.19413 0.42619 0.17800
H 	H 	0.77789 0.41220 0.52975 0.18500
C 	C 	0.61964 0.32847 0.75239 0.27200
C 	C 	0.64622 0.28200 0.77647 -0.20000
C 	C 	0.68118 0.24496 0.74910 0.26600
C 	C 	0.68920 0.25378 0.69847 0.26800
C 	C 	0.66465 0.30177 0.67464 -0.20400
C 	C 	0.62907 0.33851 0.70167 0.27500
F 	F 	0.60523 0.38523 0.67921 -0.39100
F 	F 	0.58400 0.36309 0.77785 -0.39000
F 	F 	0.72053 0.21510 0.67231 -0.42000
F 	F 	0.70956 0.20208 0.77205 -0.41700
C 	C 	0.57395 0.24378 0.24283 0.26800
C 	C 	0.65489 0.28319 0.27791 -0.19600
C 	C 	0.73630 0.31746 0.25990 0.27100
C 	C 	0.73762 0.31770 0.20780 0.27700
C 	C 	0.65790 0.28425 0.17338 -0.20300
C 	C 	0.57562 0.24486 0.19085 0.27100
F 	F 	0.49778 0.21047 0.15765 -0.41100
F 	F 	0.49416 0.20703 0.25938 -0.40800
F 	F 	0.81735 0.35481 0.19112 -0.39200
F 	F 	0.81508 0.35530 0.29312 -0.39000
C 	C 	0.84332 0.63546 0.41668 0.00500
C 	C 	0.79167 0.59259 0.45368 -0.06700
C 	C 	0.76778 0.63685 0.48526 0.00400
C 	C 	0.79582 0.72297 0.48017 -0.03700
C 	C 	0.84892 0.76643 0.44389 0.00100
C 	C 	0.87161 0.72171 0.41178 -0.03500
H 	H 	0.86071 0.60176 0.39128 0.06100
H 	H 	0.72758 0.60462 0.51384 0.05000
H 	H 	0.77915 0.75715 0.50576 0.05500
H 	H 	0.91322 0.75481 0.38387 0.05800
C 	C 	0.73880 0.04964 0.46337 0.00400
C 	C 	0.78218 0.13093 0.44486 -0.06900
C 	C 	0.85380 0.15662 0.41884 0.00700
C 	C 	0.88599 0.10554 0.41482 -0.03500
C 	C 	0.84778 0.02869 0.43732 0.00200
C 	C 	0.77181 0.99923 0.45989 -0.03700
H 	H 	0.68150 0.02704 0.48207 0.04800
H 	H 	0.88669 0.21763 0.40323 0.06200
H 	H 	0.94318 0.12784 0.39603 0.05700
H 	H 	0.74086 0.93972 0.47687 0.05600
C 	C 	0.18514 0.04211 0.48926 -0.03900
C 	C 	0.13549 0.06960 0.46764 0.00400
C 	C 	0.18175 0.15277 0.45164 -0.03900
C 	C 	0.27581 0.20600 0.45528 0.01200
C 	C 	0.32483 0.17639 0.47446 -0.06800
C 	C 	0.27925 0.09506 0.49242 0.01200
H 	H 	0.15075 0.97919 0.50296 0.05800
H 	H 	0.14468 0.17531 0.43522 0.05600
H 	H 	0.31040 0.26968 0.44241 0.05000
H 	H 	0.31630 0.07171 0.50764 0.04800
C 	C 	0.80262 0.76776 0.98695 -0.03800
C 	C 	0.89086 0.81732 0.97620 0.00200
C 	C 	0.92489 0.77176 0.95858 -0.03700
C 	C 	0.87422 0.67891 0.95577 0.01100
C 	C 	0.78874 0.63060 0.96997 -0.06800
C 	C 	0.75174 0.67494 0.98359 0.01100
H 	H 	0.77453 0.80139 0.99962 0.05500
H 	H 	0.99152 0.80852 0.94836 0.05800
H 	H 	0.90289 0.64522 0.94440 0.04700
H 	H 	0.68449 0.63784 0.99302 0.04800
C 	C 	0.96117 0.17870 0.99313 -0.03300
C 	C 	0.92570 0.09840 0.01124 0.00200
C 	C 	0.84412 0.05704 0.03003 -0.03500
C 	C 	0.79522 0.09179 0.02717 0.00800
C 	C 	0.82749 0.16860 0.00572 -0.06800
C 	C 	0.91256 0.21382 0.99056 0.00600
H 	H 	0.02441 0.21195 0.97907 0.05200
H 	H 	0.81707 0.99628 0.04534 0.05500
H 	H 	0.73067 0.05693 0.03986 0.05300
H 	H 	0.93974 0.27461 0.97527 0.04800
C 	C 	0.23847 0.07643 0.04115 -0.03100
C 	C 	0.19557 0.10509 0.01281 0.00200
C 	C 	0.24453 0.17106 0.98358 -0.03600
C 	C 	0.33449 0.20604 0.98137 0.00500
C 	C 	0.37706 0.17622 0.00895 -0.06600
C 	C 	0.32867 0.11175 0.03923 0.01400
H 	H 	0.20127 0.02542 0.06387 0.06100
H 	H 	0.21191 0.19287 0.96105 0.05400
H 	H 	0.37086 0.25586 0.95788 0.04900
H 	H 	0.36089 0.08936 0.06152 0.07500
