data_crystal

_cell_length_a 24.42470
_cell_length_b 22.63155
_cell_length_c 31.74060
_cell_angle_alpha 104.02578
_cell_angle_beta  115.93957
_cell_angle_gamma 111.52262

_symmetry_space_group_name_	'P 1'
_symmetry_space_group_name_H-M	'P 1'

loop_
_symmetry_equiv_pos_as_xyz
  x,y,z

loop_
_atom_site_label
_atom_site_type_symbol
_atom_site_fract_x
_atom_site_fract_y
_atom_site_fract_z
_atom_site_charge
C 	C 	0.70882 0.49337 0.91896 0.01800
C 	C 	0.75410 0.50238 0.96956 -0.02800
C 	C 	0.73613 0.44404 0.97970 -0.06700
C 	C 	0.67255 0.37642 0.93961 0.08100
C 	C 	0.62435 0.36870 0.89011 -0.06800
C 	C 	0.64343 0.42655 0.87940 -0.02500
N 	N 	0.66026 0.31457 0.94822 -0.14100
C 	C 	0.48041 0.22894 0.95586 0.01200
C 	C 	0.47069 0.20017 0.90692 -0.02600
C 	C 	0.52941 0.22852 0.90387 -0.06700
C 	C 	0.59849 0.28555 0.95004 0.08100
C 	C 	0.60781 0.31402 0.99878 -0.07600
C 	C 	0.54912 0.28586 0.00173 -0.01500
C 	C 	0.72408 0.18166 0.89141 0.01500
C 	C 	0.69137 0.16458 0.91726 -0.02500
C 	C 	0.66507 0.20472 0.93214 -0.06600
C 	C 	0.67006 0.26204 0.92065 0.07500
C 	C 	0.69756 0.27464 0.89041 -0.06600
C 	C 	0.72346 0.23402 0.87552 -0.03200
H 	H 	0.80424 0.55414 0.00053 0.05100
H 	H 	0.77275 0.45060 0.01818 0.05600
H 	H 	0.57500 0.31666 0.85885 0.04900
H 	H 	0.60877 0.41866 0.83993 0.03700
H 	H 	0.41760 0.15639 0.87126 0.06000
H 	H 	0.52147 0.20612 0.86594 0.05000
H 	H 	0.66080 0.35792 0.03442 0.05600
H 	H 	0.55690 0.30843 0.03961 0.03900
H 	H 	0.69077 0.12342 0.92908 0.04000
H 	H 	0.64514 0.19441 0.95574 0.05000
H 	H 	0.70209 0.31769 0.88040 0.05000
H 	H 	0.74743 0.24654 0.85459 0.03700
C 	C 	0.74700 0.50729 0.44610 0.01300
C 	C 	0.79527 0.51275 0.49426 -0.03000
C 	C 	0.77434 0.45546 0.50511 -0.06500
C 	C 	0.70497 0.39241 0.46819 0.07900
C 	C 	0.65528 0.38832 0.42102 -0.06900
C 	C 	0.67673 0.44506 0.40968 -0.02400
N 	N 	0.68725 0.33124 0.47774 -0.14300
C 	C 	0.49336 0.23459 0.46714 0.01600
C 	C 	0.49245 0.20715 0.42209 -0.02300
C 	C 	0.55570 0.23938 0.42485 -0.06600
C 	C 	0.62038 0.29970 0.47287 0.07900
C 	C 	0.62067 0.32734 0.51754 -0.06600
C 	C 	0.55761 0.29469 0.51484 -0.03100
C 	C 	0.75060 0.19588 0.42387 0.01700
C 	C 	0.75970 0.21257 0.47289 -0.02500
C 	C 	0.73622 0.25487 0.48938 -0.06600
C 	C 	0.70329 0.28075 0.45705 0.07900
C 	C 	0.69002 0.26004 0.40622 -0.06800
C 	C 	0.71446 0.21846 0.39011 -0.02900
H 	H 	0.84919 0.56121 0.52306 0.04600
H 	H 	0.81250 0.45931 0.54176 0.05200
H 	H 	0.60123 0.34030 0.39237 0.05100
H 	H 	0.63903 0.44045 0.37243 0.04500
H 	H 	0.44277 0.16100 0.38499 0.05700
H 	H 	0.55441 0.21791 0.38982 0.05000
H 	H 	0.67023 0.37361 0.55460 0.05000
H 	H 	0.55847 0.31635 0.54970 0.03600
H 	H 	0.78702 0.19456 0.49892 0.04300
H 	H 	0.74554 0.26951 0.52807 0.05100
H 	H 	0.66098 0.27589 0.37934 0.04800
H 	H 	0.70619 0.20464 0.35177 0.03600
C 	C 	0.33491 0.54112 0.99826 0.00600
C 	C 	0.36321 0.59779 0.04703 -0.01500
C 	C 	0.40001 0.66983 0.05826 -0.07100
C 	C 	0.40774 0.68615 0.02056 0.08600
C 	C 	0.38012 0.62925 0.97182 -0.07700
C 	C 	0.34417 0.55720 0.96094 -0.02600
N 	N 	0.43896 0.76052 0.03075 -0.14500
C 	C 	0.59126 0.83922 0.99487 0.01300
C 	C 	0.51753 0.80868 0.95617 -0.02200
C 	C 	0.46701 0.78200 0.96740 -0.07400
C 	C 	0.48980 0.78509 0.01751 0.08400
C 	C 	0.56362 0.81649 0.05627 -0.06500
C 	C 	0.61422 0.84405 0.04524 -0.02400
C 	C 	0.29658 0.83602 0.99433 0.00500
C 	C 	0.36888 0.88186 0.03937 -0.02000
C 	C 	0.41521 0.85660 0.05103 -0.07000
C 	C 	0.39002 0.78550 0.01760 0.08700
C 	C 	0.31743 0.73965 0.97214 -0.07800
C 	C 	0.27085 0.76455 0.96117 -0.01800
H 	H 	0.35609 0.58597 0.07602 0.04400
H 	H 	0.42085 0.71308 0.09574 0.05300
H 	H 	0.38461 0.64053 0.94189 0.05100
H 	H 	0.32286 0.51387 0.92329 0.03700
H 	H 	0.49929 0.80466 0.91715 0.04300
H 	H 	0.41024 0.75799 0.93703 0.05100
H 	H 	0.58176 0.81990 0.09511 0.05200
H 	H 	0.67100 0.86735 0.07530 0.06500
H 	H 	0.38938 0.93729 0.06498 0.03800
H 	H 	0.47091 0.89231 0.08596 0.05300
H 	H 	0.29738 0.68543 0.94491 0.05100
H 	H 	0.21507 0.72875 0.92630 0.04300
C 	C 	0.34623 0.54664 0.50601 0.01500
C 	C 	0.37265 0.60407 0.55366 -0.02500
C 	C 	0.40946 0.67572 0.56413 -0.06600
C 	C 	0.41862 0.69088 0.52656 0.07600
C 	C 	0.39206 0.63320 0.47865 -0.06700
C 	C 	0.35668 0.56160 0.46877 -0.03200
N 	N 	0.45059 0.76494 0.53604 -0.14100
C 	C 	0.60152 0.83517 0.49772 0.02000
C 	C 	0.52911 0.81118 0.46093 -0.03200
C 	C 	0.47887 0.78694 0.47280 -0.06400
C 	C 	0.50092 0.78712 0.52202 0.07500
C 	C 	0.57342 0.81142 0.55871 -0.06100
C 	C 	0.62350 0.83540 0.54670 -0.02600
C 	C 	0.30973 0.84235 0.49848 0.01300
C 	C 	0.38291 0.88895 0.54210 -0.02300
C 	C 	0.42869 0.86299 0.55429 -0.06500
C 	C 	0.40220 0.79062 0.52248 0.07700
C 	C 	0.32888 0.74420 0.47820 -0.06800
C 	C 	0.28286 0.76975 0.46690 -0.03100
H 	H 	0.36410 0.59313 0.58237 0.04500
H 	H 	0.42922 0.71956 0.60087 0.05100
H 	H 	0.39721 0.64360 0.44866 0.04900
H 	H 	0.33659 0.51772 0.43189 0.04400
H 	H 	0.51147 0.80998 0.42275 0.04100
H 	H 	0.42284 0.76698 0.44354 0.04900
H 	H 	0.59093 0.81193 0.59665 0.05000
H 	H 	0.67926 0.85353 0.57524 0.07000
H 	H 	0.40447 0.94537 0.56622 0.04800
H 	H 	0.48497 0.89919 0.58829 0.05200
H 	H 	0.30777 0.68893 0.45209 0.04900
H 	H 	0.22651 0.73344 0.43299 0.03900
Zn	Zn	0.16379 0.15476 0.00853 1.18800
Zn	Zn	0.05218 0.09255 0.88954 1.19500
O 	O 	0.05717 0.97645 0.81563 -0.42400
O 	O 	0.02718 0.06085 0.81454 -0.42700
O 	O 	0.03605 0.87977 0.87936 -0.49700
C 	C 	0.24605 0.12645 0.97645 0.32200
O 	O 	0.98228 0.99263 0.86777 -0.84900
C 	C 	0.17183 0.25160 0.96166 0.32700
O 	O 	0.25141 0.16296 0.01859 -0.46300
O 	O 	0.18185 0.07475 0.93258 -0.31800
O 	O 	0.06637 0.10246 0.95999 -0.78600
O 	O 	0.09881 0.97953 0.95911 -0.43100
O 	O 	0.13016 0.19310 0.91435 -0.42500
O 	O 	0.18318 0.24627 0.00477 -0.45300
Zn	Zn	0.84439 0.87269 0.88450 1.17800
Zn	Zn	0.96683 0.91230 0.98611 1.19900
Zn	Zn	0.00326 0.00223 0.93608 1.21000
C 	C 	0.84028 0.76011 0.91925 0.35200
C 	C 	0.80104 0.92107 0.94710 0.34300
O 	O 	0.90718 0.02558 0.91257 -0.47900
Zn	Zn	0.97343 0.04578 0.02172 1.20500
O 	O 	0.90693 0.80851 0.96267 -0.42900
O 	O 	0.80600 0.77633 0.88304 -0.46100
O 	O 	0.78306 0.89759 0.89815 -0.47400
O 	O 	0.86561 0.94049 0.98606 -0.41500
C 	C 	0.00621 0.99343 0.09820 0.33800
O 	O 	0.93846 0.90276 0.91245 -0.77900
C 	C 	0.90511 0.07592 0.94182 0.34000
O 	O 	0.00030 0.93983 0.06413 -0.39000
O 	O 	0.00855 0.04895 0.09086 -0.45100
O 	O 	0.93127 0.09295 0.99189 -0.47500
O 	O 	0.02322 0.01215 0.00379 -0.90300
Zn	Zn	0.00576 0.92823 0.84265 1.18700
C 	C 	0.04227 0.01631 0.79432 0.31500
C 	C 	0.09041 0.91996 0.93003 0.33700
H 	H 	0.07519 0.03721 0.03307 0.16600
H 	H 	0.93144 0.97648 0.84182 0.15600
Zn	Zn	0.17273 0.15468 0.51226 1.18700
Zn	Zn	0.06003 0.09809 0.39479 1.20000
O 	O 	0.05813 0.98215 0.31400 -0.42800
O 	O 	0.03065 0.06886 0.31861 -0.40700
O 	O 	0.04776 0.88629 0.37991 -0.48800
C 	C 	0.24589 0.12517 0.47210 0.33300
O 	O 	0.99091 0.99746 0.37240 -0.84900
C 	C 	0.18320 0.25632 0.46902 0.32800
O 	O 	0.25575 0.15703 0.51745 -0.47200
O 	O 	0.18008 0.08546 0.42774 -0.35500
O 	O 	0.07562 0.10582 0.46531 -0.78300
O 	O 	0.11117 0.98441 0.46095 -0.44000
O 	O 	0.13727 0.19970 0.42028 -0.40400
O 	O 	0.19590 0.24841 0.51150 -0.46100
Zn	Zn	0.85713 0.87227 0.39026 1.17800
Zn	Zn	0.98336 0.91325 0.49080 1.19900
Zn	Zn	0.01437 0.00508 0.44077 1.20900
C 	C 	0.85901 0.76104 0.42613 0.35000
C 	C 	0.81579 0.92021 0.45433 0.34400
O 	O 	0.91747 0.02665 0.41976 -0.47500
Zn	Zn	0.98777 0.04588 0.52848 1.20400
O 	O 	0.92753 0.80908 0.46688 -0.42700
O 	O 	0.82169 0.77683 0.39097 -0.46300
O 	O 	0.79628 0.89664 0.40501 -0.47200
O 	O 	0.88084 0.93932 0.49227 -0.41700
C 	C 	0.02082 0.99070 0.60295 0.33800
O 	O 	0.95145 0.90478 0.41686 -0.78100
C 	C 	0.91639 0.07669 0.45021 0.34500
O 	O 	0.01613 0.93858 0.56861 -0.39700
O 	O 	0.02411 0.04730 0.59707 -0.46200
O 	O 	0.94434 0.09309 0.50035 -0.49200
O 	O 	0.03710 0.01367 0.50884 -0.90800
Zn	Zn	0.01331 0.93405 0.34452 1.18800
C 	C 	0.04128 0.02268 0.29443 0.31300
C 	C 	0.10334 0.92639 0.43023 0.32900
H 	H 	0.08948 0.03949 0.53744 0.15700
H 	H 	0.93986 0.98152 0.34741 0.15900
C 	C 	0.09504 0.02957 0.69956 0.02700
C 	C 	0.02658 0.98768 0.65038 -0.00500
C 	C 	0.96351 0.95202 0.64843 -0.10300
C 	C 	0.97015 0.96385 0.69637 0.08600
C 	C 	0.03822 0.00768 0.74557 -0.05400
C 	C 	0.10164 0.04060 0.74758 -0.08600
C 	C 	0.17603 0.08755 0.80078 0.77100
H 	H 	0.14291 0.05550 0.70039 0.06100
H 	H 	0.92213 0.93948 0.69562 0.04300
C 	C 	0.88870 0.90786 0.59598 0.78000
F 	F 	0.23046 0.12022 0.79483 -0.48000
F 	F 	0.18966 0.04542 0.82382 -0.45900
F 	F 	0.17864 0.14164 0.83489 -0.47500
F 	F 	0.88652 0.86199 0.55663 -0.46900
F 	F 	0.87200 0.95457 0.58079 -0.47200
F 	F 	0.83626 0.86545 0.60067 -0.47400
C 	C 	0.08496 0.04057 0.19577 0.02700
C 	C 	0.01575 0.99393 0.14733 0.00100
C 	C 	0.95499 0.95549 0.14724 -0.10100
C 	C 	0.96459 0.96751 0.19620 0.08500
C 	C 	0.03340 0.01546 0.24460 -0.04900
C 	C 	0.09447 0.05244 0.24476 -0.08300
C 	C 	0.16936 0.10513 0.29708 0.77200
H 	H 	0.13101 0.06912 0.19517 0.06500
H 	H 	0.91839 0.93981 0.19686 0.04400
C 	C 	0.87917 0.90699 0.09548 0.78000
F 	F 	0.22110 0.13938 0.28913 -0.46200
F 	F 	0.18966 0.06829 0.32331 -0.46700
F 	F 	0.16839 0.15784 0.32917 -0.45600
F 	F 	0.87729 0.85877 0.05768 -0.46100
F 	F 	0.85906 0.94958 0.07644 -0.45800
F 	F 	0.82890 0.86696 0.10279 -0.47200
C 	C 	0.22551 0.32921 0.47653 -0.11200
C 	C 	0.19243 0.35296 0.44166 0.17000
C 	C 	0.23335 0.42279 0.45003 -0.10000
C 	C 	0.30598 0.47064 0.49453 -0.00700
C 	C 	0.33924 0.44672 0.52910 0.09500
C 	C 	0.29876 0.37649 0.52019 -0.02800
H 	H 	0.20782 0.44051 0.42285 0.06700
H 	H 	0.32445 0.35887 0.54739 0.04900
O 	O 	0.12090 0.30672 0.39778 -0.18500
O 	O 	0.40940 0.49439 0.57466 -0.19600
C 	C 	0.07705 0.31797 0.41213 -0.02800
H 	H 	0.08343 0.30726 0.44590 0.04000
H 	H 	0.01951 0.27924 0.37742 0.04600
H 	H 	0.08830 0.37363 0.42198 0.03800
C 	C 	0.45689 0.48637 0.56351 -0.02200
H 	H 	0.45042 0.43316 0.55782 0.03300
H 	H 	0.51334 0.52913 0.59845 0.03900
H 	H 	0.44989 0.49349 0.52832 0.03800
C 	C 	0.75881 0.89796 0.46320 -0.10100
C 	C 	0.73547 0.94412 0.47476 0.19700
C 	C 	0.68161 0.92188 0.48374 -0.09800
C 	C 	0.65331 0.85538 0.48353 0.00600
C 	C 	0.67606 0.80902 0.47126 0.10900
C 	C 	0.73025 0.83155 0.46286 0.00700
H 	H 	0.66302 0.95703 0.49194 0.07400
H 	H 	0.75087 0.79784 0.45685 0.07300
O 	O 	0.76144 0.00871 0.47360 -0.21900
O 	O 	0.64925 0.74382 0.47154 -0.17500
C 	C 	0.82002 0.06481 0.52602 -0.01700
H 	H 	0.84256 0.11608 0.52457 0.04800
H 	H 	0.86454 0.05519 0.54331 0.05700
H 	H 	0.80201 0.07260 0.55250 0.04500
C 	C 	0.59031 0.68885 0.41883 -0.03200
H 	H 	0.54645 0.69950 0.40225 0.04000
H 	H 	0.56687 0.63700 0.41936 0.05000
H 	H 	0.60819 0.68142 0.39222 0.04300
C 	C 	0.16220 0.91272 0.44995 -0.12900
C 	C 	0.18034 0.88715 0.41595 0.17500
C 	C 	0.22949 0.86559 0.43271 -0.10400
C 	C 	0.26212 0.87048 0.48338 -0.00100
C 	C 	0.24568 0.89791 0.51798 0.09100
C 	C 	0.19765 0.92116 0.50173 -0.02000
H 	H 	0.24154 0.84405 0.40584 0.06800
H 	H 	0.18564 0.94272 0.52862 0.03600
O 	O 	0.14475 0.87658 0.36429 -0.20700
O 	O 	0.27953 0.90569 0.56886 -0.19100
C 	C 	0.18881 0.93646 0.36308 -0.04300
H 	H 	0.20103 0.98791 0.39058 0.08500
H 	H 	0.15896 0.92918 0.32208 0.08400
H 	H 	0.23989 0.94012 0.37248 0.06300
C 	C 	0.23485 0.84313 0.56744 -0.02600
H 	H 	0.18224 0.83692 0.55619 0.04000
H 	H 	0.26265 0.84893 0.60811 0.04800
H 	H 	0.22563 0.79340 0.54008 0.04100
C 	C 	0.21457 0.32317 0.96770 -0.12100
C 	C 	0.18148 0.34660 0.93257 0.16700
C 	C 	0.22096 0.41823 0.94317 -0.10500
C 	C 	0.29463 0.46479 0.98601 -0.00900
C 	C 	0.32912 0.43917 0.01827 0.09800
C 	C 	0.28845 0.36958 0.01017 -0.02000
H 	H 	0.19411 0.43759 0.91820 0.06300
H 	H 	0.31458 0.35158 0.03683 0.05000
O 	O 	0.10860 0.30193 0.89098 -0.21000
O 	O 	0.40157 0.48438 0.06062 -0.19300
C 	C 	0.10152 0.27015 0.84327 -0.03200
H 	H 	0.12056 0.31134 0.83128 0.04200
H 	H 	0.04329 0.22920 0.81089 0.04800
H 	H 	0.13055 0.24146 0.84635 0.08300
C 	C 	0.44253 0.47260 0.04316 -0.02800
H 	H 	0.43141 0.41698 0.03298 0.05100
H 	H 	0.50084 0.51128 0.07636 0.04500
H 	H 	0.43298 0.48282 0.00872 0.04500
C 	C 	0.74308 0.90112 0.95509 -0.09900
C 	C 	0.74433 0.95460 0.98998 0.19800
C 	C 	0.69528 0.93398 0.00352 -0.07700
C 	C 	0.64349 0.86047 0.98112 -0.00100
C 	C 	0.64259 0.80708 0.94647 0.10700
C 	C 	0.69048 0.82775 0.93206 -0.01200
H 	H 	0.69742 0.97520 0.03127 0.07700
H 	H 	0.68812 0.78653 0.90417 0.05200
O 	O 	0.79720 0.02693 0.01413 -0.19300
O 	O 	0.59190 0.73445 0.92410 -0.19200
C 	C 	0.76802 0.05785 0.98435 -0.03200
H 	H 	0.74317 0.02642 0.94110 0.04200
H 	H 	0.81252 0.11310 0.99945 0.05700
H 	H 	0.72767 0.06321 0.98967 0.03700
C 	C 	0.62141 0.70818 0.95826 -0.03200
H 	H 	0.67231 0.71503 0.96451 0.07300
H 	H 	0.58164 0.64939 0.93941 0.05300
H 	H 	0.63117 0.73447 0.99745 0.06200
C 	C 	0.24881 0.86397 0.98018 -0.00800
C 	C 	0.22113 0.86759 0.93219 0.09700
C 	C 	0.17105 0.88824 0.91696 -0.01100
C 	C 	0.15036 0.90815 0.95017 -0.13300
C 	C 	0.18330 0.91118 0.00048 0.17700
C 	C 	0.23030 0.88645 0.01439 -0.10100
H 	H 	0.14751 0.88782 0.87887 0.05800
H 	H 	0.25218 0.88464 0.05168 0.06700
O 	O 	0.23716 0.84353 0.89742 -0.18700
O 	O 	0.16461 0.93207 0.03408 -0.21200
C 	C 	0.29658 0.90345 0.90749 -0.03200
H 	H 	0.28118 0.94025 0.89550 0.07100
H 	H 	0.31315 0.88323 0.88274 0.05200
H 	H 	0.34443 0.93365 0.95004 0.04900
C 	C 	0.21774 0.00571 0.07244 -0.02900
H 	H 	0.27060 0.01321 0.09995 0.03300
H 	H 	0.20006 0.02398 0.09693 0.02500
H 	H 	0.22463 0.04098 0.05363 0.02500
C 	C 	0.86913 0.10091 0.42543 -0.13300
C 	C 	0.89921 0.17364 0.43654 0.16800
C 	C 	0.85552 0.20211 0.42694 -0.10500
C 	C 	0.78409 0.15984 0.41029 -0.01000
C 	C 	0.75160 0.08487 0.39196 0.10100
C 	C 	0.79436 0.05555 0.39923 -0.04300
H 	H 	0.87894 0.25870 0.43695 0.06500
H 	H 	0.77039 0.99868 0.38827 0.07400
O 	O 	0.96954 0.21494 0.45247 -0.21800
O 	O 	0.68050 0.04213 0.37391 -0.18300
C 	C 	0.01488 0.26173 0.50815 -0.02500
H 	H 	0.00288 0.30382 0.51844 0.03200
H 	H 	0.07184 0.29016 0.52121 0.03100
H 	H 	0.01120 0.23190 0.53096 0.03000
C 	C 	0.63602 0.01207 0.31788 -0.07000
H 	H 	0.64040 0.05493 0.30576 0.04200
H 	H 	0.57883 0.97807 0.30330 0.06400
H 	H 	0.64841 0.97625 0.29815 0.05600
C 	C 	0.77018 0.56699 0.43405 -0.00300
C 	C 	0.73504 0.60488 0.42760 0.09500
C 	C 	0.75879 0.66246 0.41735 -0.01400
C 	C 	0.82301 0.68884 0.42077 -0.12100
C 	C 	0.85710 0.64992 0.42567 0.17300
C 	C 	0.83045 0.58911 0.43222 -0.10300
H 	H 	0.72940 0.68897 0.40964 0.05300
H 	H 	0.85773 0.56020 0.43719 0.06700
O 	O 	0.67616 0.58444 0.42996 -0.19000
O 	O 	0.92025 0.67497 0.42875 -0.19900
C 	C 	0.70149 0.62463 0.48318 -0.03700
H 	H 	0.73665 0.61168 0.51070 0.05300
H 	H 	0.65415 0.60958 0.48488 0.05400
H 	H 	0.73069 0.68403 0.49733 0.08100
C 	C 	0.90188 0.64251 0.37675 -0.02200
H 	H 	0.87395 0.58251 0.35913 0.03700
H 	H 	0.95255 0.66292 0.37919 0.04500
H 	H 	0.86821 0.65746 0.35008 0.03300
C 	C 	0.30754 0.15023 0.46899 -0.11400
C 	C 	0.35545 0.12703 0.48666 0.16700
C 	C 	0.41468 0.15256 0.48376 -0.10100
C 	C 	0.42675 0.20174 0.46418 -0.00100
C 	C 	0.37706 0.22242 0.44447 0.10600
C 	C 	0.31749 0.19625 0.44678 -0.00200
H 	H 	0.45138 0.13435 0.49692 0.06300
H 	H 	0.27918 0.21216 0.43158 0.09500
O 	O 	0.33928 0.07256 0.50027 -0.21200
O 	O 	0.38255 0.26188 0.41778 -0.14900
C 	C 	0.37926 0.10425 0.55641 -0.01900
H 	H 	0.43854 0.13215 0.57539 0.03200
H 	H 	0.36418 0.06050 0.56699 0.04000
H 	H 	0.36652 0.14227 0.57313 0.04000
C 	C 	0.41448 0.33503 0.45283 -0.03500
H 	H 	0.42428 0.36742 0.43279 0.05700
H 	H 	0.46787 0.35753 0.49043 0.03700
H 	H 	0.37725 0.34175 0.46182 0.05100
C 	C 	0.86155 0.10297 0.91600 -0.13500
C 	C 	0.89188 0.17802 0.93678 0.17000
C 	C 	0.84629 0.20412 0.92481 -0.10700
C 	C 	0.77082 0.15552 0.89070 -0.00900
C 	C 	0.74137 0.08082 0.86295 0.09300
C 	C 	0.78701 0.05470 0.87611 -0.04700
H 	H 	0.86941 0.26192 0.94478 0.06900
H 	H 	0.76375 0.99677 0.85836 0.05900
O 	O 	0.96586 0.22609 0.97381 -0.21200
O 	O 	0.66721 0.03255 0.82793 -0.19400
C 	C 	0.99670 0.24111 0.94613 0.00200
H 	H 	0.98838 0.19145 0.91947 0.01100
H 	H 	0.05602 0.28023 0.97582 0.03100
H 	H 	0.97531 0.26675 0.92304 0.03600
C 	C 	0.64596 0.02115 0.77615 -0.06500
H 	H 	0.65845 0.07228 0.77375 0.04300
H 	H 	0.58640 0.98245 0.74792 0.06100
H 	H 	0.67124 0.99653 0.76271 0.05200
C 	C 	0.73208 0.55303 0.90700 -0.00400
C 	C 	0.70293 0.59632 0.90698 0.09600
C 	C 	0.73864 0.66396 0.91064 -0.01300
C 	C 	0.80177 0.68762 0.91264 -0.11900
C 	C 	0.82855 0.64243 0.90950 0.17000
C 	C 	0.79176 0.57403 0.90453 -0.10500
H 	H 	0.71775 0.69842 0.91265 0.05700
H 	H 	0.81221 0.53911 0.90195 0.06500
O 	O 	0.64409 0.57607 0.90936 -0.18900
O 	O 	0.88706 0.66255 0.90666 -0.20600
C 	C 	0.58156 0.54662 0.85785 -0.02700
H 	H 	0.58272 0.58955 0.84636 0.04100
H 	H 	0.53352 0.52333 0.85856 0.04200
H 	H 	0.57408 0.50202 0.82701 0.03500
C 	C 	0.94936 0.68797 0.95716 -0.02600
H 	H 	0.95832 0.73116 0.99003 0.06100
H 	H 	0.99736 0.71193 0.95646 0.05000
H 	H 	0.94660 0.64258 0.96582 0.04300
C 	C 	0.30833 0.15437 0.97411 -0.10300
C 	C 	0.34228 0.11606 0.97333 0.17600
C 	C 	0.39571 0.13831 0.96413 -0.09400
C 	C 	0.41835 0.20106 0.95891 0.00300
C 	C 	0.38514 0.24008 0.96063 0.10900
C 	C 	0.33097 0.21706 0.96896 -0.00900
H 	H 	0.42093 0.10795 0.96254 0.06300
H 	H 	0.30549 0.24717 0.97029 0.05800
O 	O 	0.32031 0.05425 0.97849 -0.21000
O 	O 	0.41058 0.30470 0.95937 -0.19400
C 	C 	0.36396 0.07408 0.03298 -0.01700
H 	H 	0.42202 0.09853 0.04853 0.03100
H 	H 	0.34647 0.02454 0.03715 0.03500
H 	H 	0.35737 0.11131 0.05768 0.03700
C 	C 	0.36680 0.29099 0.90654 -0.03600
H 	H 	0.36725 0.25141 0.87813 0.08100
H 	H 	0.38906 0.34246 0.90529 0.04900
H 	H 	0.31033 0.27226 0.89349 0.08800
