data_crystal

_cell_length_a 15.89750
_cell_length_b 16.82779
_cell_length_c 26.25806
_cell_angle_alpha 89.99347
_cell_angle_beta  89.99246
_cell_angle_gamma 120.27172

_symmetry_space_group_name_	'P 1'
_symmetry_space_group_name_H-M	'P 1'

loop_
_symmetry_equiv_pos_as_xyz
  x,y,z

loop_
_atom_site_label
_atom_site_type_symbol
_atom_site_fract_x
_atom_site_fract_y
_atom_site_fract_z
_atom_site_charge
C 	C 	0.06307 0.94172 0.08519 0.34100
O 	O 	0.08741 0.18627 0.06079 -0.28800
O 	O 	0.01977 0.08198 0.88834 -0.23300
O 	O 	0.04334 0.00521 0.10318 -0.30700
O 	O 	0.05719 0.98605 0.60734 -0.20900
C 	C 	0.03616 0.80049 0.13084 -0.02300
F 	F 	0.02753 0.30385 0.27326 -0.38800
H 	H 	0.03432 0.67737 0.15656 0.13500
O 	O 	0.05907 0.95123 0.92648 -0.25400
C 	C 	0.13737 0.78151 0.63298 0.77600
F 	F 	0.17373 0.74403 0.66741 -0.35200
F 	F 	0.20390 0.82062 0.59367 -0.36800
F 	F 	0.02545 0.95971 0.81862 -0.38800
C 	C 	0.04893 0.89140 0.81411 0.82300
O 	O 	0.08171 0.93787 0.03645 -0.31800
H 	H 	0.17135 0.97156 0.32675 0.12500
F 	F 	0.05912 0.87965 0.76273 -0.36100
C 	C 	0.21940 0.74738 0.18827 0.28400
C 	C 	0.16637 0.69159 0.31523 0.31500
Ni	Ni	0.18819 0.56968 0.23604 1.13400
O 	O 	0.18721 0.65812 0.18053 -0.30400
O 	O 	0.17991 0.48635 0.29700 -0.28800
O 	O 	0.12083 0.62446 0.28191 -0.30600
O 	O 	0.21788 0.48981 0.18375 -0.27000
C 	C 	0.11184 0.13905 0.89954 0.33500
C 	C 	0.17540 0.20037 0.05399 0.31500
Ni	Ni	0.11049 0.03958 0.98809 1.13400
O 	O 	0.13717 0.15002 0.94684 -0.31500
O 	O 	0.18918 0.13162 0.04278 -0.33800
C 	C 	0.13585 0.06000 0.59122 0.29200
C 	C 	0.12442 0.14215 0.43359 0.32100
C 	C 	0.01859 0.89583 0.39356 0.32000
Ni	Ni	0.10710 0.98091 0.49050 1.15200
O 	O 	0.15504 0.08245 0.43674 -0.30700
O 	O 	0.14560 0.08011 0.54302 -0.30000
O 	O 	0.06274 0.88973 0.43472 -0.32500
O 	O 	0.09203 0.88226 0.54289 -0.28800
O 	O 	0.04131 0.12267 0.45390 -0.31700
C 	C 	0.25772 0.29038 0.06743 0.02600
C 	C 	0.26201 0.36971 0.04683 -0.06400
C 	C 	0.24293 0.37455 0.99085 0.79500
F 	F 	0.14396 0.32567 0.98161 -0.36600
C 	C 	0.19528 0.93955 0.13178 0.10200
C 	C 	0.09567 0.89566 0.12084 -0.00200
C 	C 	0.07946 0.74996 0.14798 0.04200
C 	C 	0.18048 0.79359 0.15620 0.04800
C 	C 	0.23958 0.88817 0.14428 -0.09800
H 	H 	0.23996 0.01311 0.12558 0.08500
C 	C 	0.20954 0.37132 0.33454 0.04700
C 	C 	0.14377 0.28084 0.31739 -0.06500
C 	C 	0.12639 0.20529 0.34818 0.06700
C 	C 	0.16936 0.21865 0.39648 0.02200
H 	H 	0.07443 0.13591 0.33609 0.09900
C 	C 	0.08582 0.26498 0.26863 0.78400
F 	F 	0.14799 0.30456 0.22776 -0.40300
C 	C 	0.01983 0.70675 0.33189 0.19700
C 	C 	0.12226 0.74908 0.32947 -0.02600
C 	C 	0.17885 0.84715 0.33225 -0.05600
C 	C 	0.12971 0.89721 0.32976 0.02300
C 	C 	0.03358 0.85575 0.34708 0.10600
F 	F 	0.13718 0.91873 0.83732 -0.37800
C 	C 	0.18922 0.15971 0.86180 0.03400
C 	C 	0.16907 0.28655 0.82188 0.77800
H 	H 	0.21733 0.05872 0.89439 0.08700
F 	F 	0.20913 0.34998 0.78274 -0.35600
F 	F 	0.16549 0.33141 0.86522 -0.35000
F 	F 	0.07528 0.22120 0.80788 -0.36300
C 	C 	0.22316 0.10370 0.62285 0.06100
C 	C 	0.25865 0.19415 0.64086 -0.07200
C 	C 	0.18977 0.23066 0.64895 0.78100
F 	F 	0.10609 0.16508 0.67331 -0.36800
F 	F 	0.16479 0.25127 0.60242 -0.35800
F 	F 	0.23181 0.30934 0.67863 -0.36900
C 	C 	0.22857 0.24084 0.83245 -0.04500
F 	F 	0.12688 0.84891 0.65724 -0.38100
C 	C 	0.03985 0.70838 0.61264 -0.03400
C 	C 	0.27876 0.44188 0.07976 0.08300
H 	H 	0.26614 0.49627 0.06699 0.12700
C 	C 	0.30573 0.29818 0.11331 0.08000
H 	H 	0.31042 0.23999 0.12747 0.11200
C 	C 	0.23790 0.45214 0.30133 0.30500
C 	C 	0.24383 0.11606 0.86850 0.08900
F 	F 	0.04146 0.41682 0.98732 -0.32800
F 	F 	0.02636 0.17223 0.25822 -0.39200
C 	C 	0.23806 0.30880 0.41257 -0.05600
C 	C 	0.30907 0.44195 0.12982 0.04200
F 	F 	0.28785 0.33735 0.96230 -0.39200
F 	F 	0.27939 0.46472 0.97537 -0.34900
C 	C 	0.25503 0.38449 0.38206 0.07200
F 	F 	0.22334 0.31535 0.50188 -0.37000
H 	H 	0.25737 0.99818 0.60715 0.16700
C 	C 	0.00815 0.80586 0.55472 0.31900
C 	C 	0.30474 0.50504 0.16717 0.30200
O 	O 	0.26530 0.79060 0.23084 -0.27800
O 	O 	0.25611 0.71740 0.32813 -0.29800
F 	F 	0.33772 0.34708 0.23214 -0.38700
C 	C 	0.28558 0.06802 0.62038 0.03200
C 	C 	0.33698 0.37660 0.14388 -0.06300
C 	C 	0.28454 0.89634 0.34976 0.77600
O 	O 	0.31305 0.47971 0.27087 -0.26500
O 	O 	0.32123 0.65672 0.24438 -0.72200
C 	C 	0.28794 0.32497 0.46386 0.78000
C 	C 	0.32693 0.28387 0.81694 0.06400
H 	H 	0.33674 0.67726 0.20875 0.17200
H 	H 	0.30265 0.45393 0.39561 0.12800
F 	F 	0.29523 0.85116 0.39110 -0.39900
F 	F 	0.32652 0.00903 0.87099 -0.36100
C 	C 	0.34977 0.93571 0.14653 0.80500
F 	F 	0.31505 0.98560 0.36507 -0.37800
F 	F 	0.31845 0.26209 0.47170 -0.38200
C 	C 	0.33806 0.15292 0.84852 -0.07600
C 	C 	0.35890 0.25071 0.65046 0.07500
F 	F 	0.34484 0.90078 0.31072 -0.45200
H 	H 	0.35972 0.35055 0.79860 0.12800
Ni	Ni	0.36139 0.77317 0.27484 1.16300
F 	F 	0.38202 0.87599 0.13313 -0.41300
C 	C 	0.38564 0.12456 0.62888 -0.04500
C 	C 	0.39790 0.38783 0.19076 0.79000
H 	H 	0.38692 0.32037 0.66412 0.10900
O 	O 	0.38680 0.57690 0.18189 -0.31200
F 	F 	0.39169 0.00938 0.11312 -0.39600
F 	F 	0.38051 0.96810 0.19533 -0.36100
C 	C 	0.38384 0.24240 0.82604 0.04100
F 	F 	0.36895 0.41233 0.46695 -0.36800
C 	C 	0.38968 0.09800 0.85470 0.79100
C 	C 	0.00604 0.71918 0.56500 0.06800
F 	F 	0.41276 0.01371 0.58609 -0.35500
Ni	Ni	0.40984 0.61420 0.25515 1.15600
O 	O 	0.98377 0.95426 0.39061 -0.34100
H 	H 	0.97540 0.63255 0.32885 0.06000
C 	C 	0.97482 0.75985 0.34014 -0.20600
F 	F 	0.73462 0.27469 0.53452 -0.34700
F 	F 	0.86109 0.36651 0.58496 -0.41000
H 	H 	0.91180 0.64343 0.50296 0.12200
F 	F 	0.84802 0.68632 0.40026 -0.41400
C 	C 	0.86652 0.71237 0.34968 0.81900
F 	F 	0.77024 0.44993 0.51563 -0.34300
F 	F 	0.69095 0.44863 0.58661 -0.37700
C 	C 	0.92900 0.64070 0.54268 0.01600
F 	F 	0.81799 0.63502 0.31925 -0.36100
F 	F 	0.83110 0.77061 0.33868 -0.39900
O 	O 	0.98332 0.01669 0.00101 -0.76400
C 	C 	0.80924 0.55667 0.80096 0.30400
C 	C 	0.75803 0.23168 0.69427 0.31400
C 	C 	0.81459 0.49885 0.66237 0.33800
C 	C 	0.77033 0.27801 0.84533 0.29300
C 	C 	0.50734 0.25545 0.68105 0.31800
C 	C 	0.48894 0.29278 0.80975 0.29500
Ni	Ni	0.83268 0.40325 0.75357 1.13000
Ni	Ni	0.61362 0.23046 0.76648 1.16100
Ni	Ni	0.64312 0.42706 0.73500 1.13800
O 	O 	0.86553 0.53606 0.77326 -0.33600
O 	O 	0.71550 0.52285 0.78982 -0.29300
O 	O 	0.50129 0.21065 0.72297 -0.29900
O 	O 	0.82282 0.28228 0.72864 -0.31600
O 	O 	0.66511 0.19882 0.70342 -0.25800
O 	O 	0.51982 0.36594 0.77916 -0.31800
O 	O 	0.83190 0.43451 0.67757 -0.29900
O 	O 	0.75380 0.51608 0.68772 -0.31100
O 	O 	0.54694 0.26040 0.82191 -0.26900
O 	O 	0.83585 0.36082 0.82795 -0.29900
O 	O 	0.70688 0.21493 0.81361 -0.26200
O 	O 	0.57497 0.34289 0.67542 -0.28300
O 	O 	0.69951 0.35943 0.76186 -0.72000
H 	H 	0.70101 0.37535 0.79806 0.18600
C 	C 	0.46378 0.71650 0.34934 0.31200
C 	C 	0.52146 0.80069 0.20784 0.27800
O 	O 	0.41470 0.63447 0.32996 -0.31800
O 	O 	0.46727 0.83600 0.22244 -0.23900
O 	O 	0.52768 0.73858 0.23661 -0.28000
O 	O 	0.46250 0.78649 0.32728 -0.28900
C 	C 	0.96713 0.88482 0.91811 0.24200
C 	C 	0.90457 0.16848 0.00386 0.32800
C 	C 	0.76996 0.92766 0.03902 0.29900
Ni	Ni	0.91216 0.02480 0.94606 1.11600
Ni	Ni	0.97085 0.06062 0.06588 1.12100
O 	O 	0.89344 0.90011 0.92241 -0.27500
O 	O 	0.95128 0.15676 0.96689 -0.32700
O 	O 	0.89042 0.12166 0.04643 -0.32300
O 	O 	0.78276 0.96424 0.99192 -0.27200
O 	O 	0.84410 0.94185 0.06796 -0.30100
H 	H 	0.94901 0.94965 0.00649 0.20900
C 	C 	0.74790 0.83888 0.49073 0.28300
C 	C 	0.88091 0.06883 0.54380 0.30500
Ni	Ni	0.92716 0.92948 0.56580 1.15700
Ni	Ni	0.92722 0.99526 0.44994 1.13300
O 	O 	0.78077 0.86621 0.53831 -0.23700
O 	O 	0.80443 0.87311 0.45023 -0.31300
O 	O 	0.94908 0.05944 0.56353 -0.31600
O 	O 	0.85272 0.03933 0.49671 -0.31400
O 	O 	0.93018 0.80952 0.56829 -0.33600
O 	O 	0.97337 0.94313 0.49897 -0.73400
H 	H 	0.94034 0.87835 0.48792 0.18300
F 	F 	0.45179 0.34492 0.18324 -0.36400
F 	F 	0.46324 0.47908 0.20131 -0.40500
C 	C 	0.66386 0.95321 0.09591 0.08600
C 	C 	0.67543 0.89151 0.06496 0.03100
C 	C 	0.62129 0.79677 0.07684 -0.06100
C 	C 	0.57570 0.76879 0.12485 0.06200
C 	C 	0.57868 0.83361 0.15975 0.04500
C 	C 	0.62827 0.92812 0.14598 -0.04700
C 	C 	0.65084 0.00286 0.18504 0.75300
H 	H 	0.69725 0.02457 0.08424 0.09100
H 	H 	0.53946 0.69684 0.13531 0.11500
C 	C 	0.62109 0.72625 0.04100 0.77900
F 	F 	0.73241 0.08487 0.17099 -0.38600
F 	F 	0.66957 0.97873 0.23232 -0.36900
F 	F 	0.57302 0.01737 0.18883 -0.34700
F 	F 	0.70047 0.71615 0.05138 -0.36300
F 	F 	0.62601 0.75379 0.99088 -0.37400
F 	F 	0.53673 0.64189 0.04680 -0.37900
C 	C 	0.92749 0.75188 0.12063 0.74600
F 	F 	0.91099 0.73700 0.06887 -0.39000
F 	F 	0.88930 0.80509 0.13755 -0.39700
F 	F 	0.87878 0.66795 0.14546 -0.37100
C 	C 	0.62200 0.69666 0.45232 0.06100
C 	C 	0.64379 0.77414 0.48144 0.06000
C 	C 	0.57974 0.80896 0.47801 -0.08500
C 	C 	0.52337 0.79176 0.43368 0.07400
C 	C 	0.52098 0.73060 0.39657 0.02300
C 	C 	0.56996 0.68044 0.40639 -0.05600
C 	C 	0.57236 0.61462 0.36741 0.78600
H 	H 	0.65990 0.65970 0.46049 0.15200
H 	H 	0.48086 0.82513 0.42822 0.13400
C 	C 	0.56775 0.85963 0.52223 0.79800
F 	F 	0.64195 0.59139 0.37952 -0.33900
F 	F 	0.59481 0.65464 0.31960 -0.40200
F 	F 	0.48321 0.53420 0.36601 -0.39700
F 	F 	0.64726 0.94734 0.52497 -0.39100
F 	F 	0.55954 0.81286 0.56693 -0.34200
F 	F 	0.48469 0.86610 0.51716 -0.35200
C 	C 	0.75131 0.13958 0.96636 0.05600
C 	C 	0.83842 0.20247 0.99003 0.01400
C 	C 	0.87891 0.29591 0.97714 -0.05300
C 	C 	0.85183 0.31946 0.93096 0.06500
C 	C 	0.78376 0.25043 0.89807 0.04800
C 	C 	0.73169 0.15723 0.91651 -0.07500
C 	C 	0.66701 0.07578 0.88234 0.76100
H 	H 	0.70859 0.07157 0.98268 0.09700
H 	H 	0.88648 0.39117 0.91989 0.13500
C 	C 	0.95211 0.37109 0.01147 0.74900
F 	F 	0.63358 0.99273 0.90738 -0.36300
F 	F 	0.71907 0.07483 0.84033 -0.40100
F 	F 	0.58623 0.07998 0.86711 -0.36400
F 	F 	0.96259 0.33638 0.05733 -0.39800
F 	F 	0.92149 0.43320 0.02164 -0.37300
C 	C 	0.92477 0.72208 0.81044 0.08900
C 	C 	0.85757 0.63874 0.83312 0.01000
C 	C 	0.84051 0.63428 0.88617 -0.05800
C 	C 	0.88624 0.71595 0.91484 0.04700
C 	C 	0.94846 0.80075 0.89144 0.06000
C 	C 	0.97142 0.80336 0.83902 -0.12200
H 	H 	0.93960 0.72343 0.77006 0.09600
H 	H 	0.86886 0.71471 0.95486 0.14200
C 	C 	0.76856 0.54409 0.91161 0.78000
F 	F 	0.78678 0.47516 0.89725 -0.43500
F 	F 	0.67485 0.51978 0.89738 -0.38500
F 	F 	0.77492 0.55093 0.96418 -0.36000
F 	F 	0.46214 0.13939 0.89102 -0.38100
F 	F 	0.42788 0.09097 0.80872 -0.40800
C 	C 	0.80843 0.12272 0.66747 0.08700
C 	C 	0.78583 0.18943 0.65354 0.03200
C 	C 	0.77934 0.20673 0.60094 -0.05700
C 	C 	0.79946 0.15764 0.56395 0.08300
C 	C 	0.82095 0.08983 0.57848 0.05200
C 	C 	0.81178 0.06424 0.63094 -0.09200
C 	C 	0.79262 0.97015 0.64775 0.81100
H 	H 	0.81498 0.11110 0.70754 0.12600
H 	H 	0.80622 0.17749 0.52421 0.12200
C 	C 	0.77019 0.28798 0.58379 0.79300
F 	F 	0.87607 0.96456 0.64479 -0.47900
F 	F 	0.72050 0.90293 0.61826 -0.37700
F 	F 	0.76030 0.95175 0.69771 -0.36300
F 	F 	0.70710 0.30040 0.61423 -0.38300
C 	C 	0.97617 0.63428 0.64393 0.02500
C 	C 	0.88326 0.56828 0.62614 0.02400
C 	C 	0.85929 0.57058 0.57406 -0.04900
C 	C 	0.75995 0.50465 0.55139 0.78600
H 	H 	0.99698 0.63018 0.68275 0.09500
F 	F 	0.72469 0.55491 0.52706 -0.38900
C 	C 	0.42159 0.21483 0.64784 0.03500
C 	C 	0.45304 0.08665 0.62001 0.77800
F 	F 	0.47038 0.05622 0.66555 -0.37400
F 	F 	0.54012 0.15376 0.59962 -0.36200
