data_crystal

_cell_length_a 20.34452
_cell_length_b 21.70837
_cell_length_c 31.47983
_cell_angle_alpha 60.85532
_cell_angle_beta  118.84434
_cell_angle_gamma 133.25344

_symmetry_space_group_name_	'P 1'
_symmetry_space_group_name_H-M	'P 1'

loop_
_symmetry_equiv_pos_as_xyz
  x,y,z

loop_
_atom_site_label
_atom_site_type_symbol
_atom_site_fract_x
_atom_site_fract_y
_atom_site_fract_z
_atom_site_charge
Co	Co	0.00892 0.08889 0.09779 1.19500
C 	C 	0.00786 0.99159 0.27188 0.42600
H 	H 	0.00756 0.64148 0.15805 0.11700
O 	O 	0.01051 0.05703 0.74003 -0.37700
C 	C 	0.00194 0.97236 0.32361 -0.09900
O 	O 	0.02600 0.20206 0.14601 -0.33000
O 	O 	0.02091 0.10018 0.53634 -0.37000
C 	C 	0.02294 0.99762 0.77392 0.41900
C 	C 	0.02788 0.03080 0.38453 0.28100
F 	F 	0.01381 0.51460 0.13078 -0.43400
F 	F 	0.03067 0.29049 0.03574 -0.42800
O 	O 	0.02526 0.98049 0.12580 -0.51900
O 	O 	0.02792 0.06743 0.24118 -0.32600
O 	O 	0.02259 0.94687 0.76059 -0.27700
C 	C 	0.02769 0.98213 0.82714 -0.10700
H 	H 	0.15887 0.52316 0.17105 0.12400
H 	H 	0.14774 0.56245 0.65689 0.13000
Co	Co	0.05503 0.01155 0.05401 1.17200
Co	Co	0.07363 0.86833 0.06114 1.18900
O 	O 	0.05309 0.11144 0.04225 -0.39200
C 	C 	0.10867 0.23573 0.14437 0.32900
C 	C 	0.13233 0.81339 0.16909 0.30800
O 	O 	0.97355 0.86428 0.99719 -0.32700
O 	O 	0.11884 0.20061 0.12524 -0.31300
O 	O 	0.16544 0.87262 0.12951 -0.33400
O 	O 	0.07541 0.80793 0.18289 -0.27200
O 	O 	0.03905 0.91448 0.08613 -0.72900
O 	O 	0.17100 0.99327 0.02768 -0.29300
O 	O 	0.19522 0.07864 0.06365 -0.33300
Co	Co	0.04968 0.01914 0.54737 1.18000
Co	Co	0.98044 0.06804 0.59658 1.18600
Co	Co	0.10687 0.90731 0.55120 1.19500
C 	C 	0.04272 0.20519 0.63681 0.32500
C 	C 	0.21016 0.89233 0.65463 0.30800
O 	O 	0.98574 0.87109 0.49671 -0.36000
O 	O 	0.95763 0.15219 0.64252 -0.36300
O 	O 	0.07012 0.18430 0.61842 -0.29900
O 	O 	0.21982 0.94502 0.61000 -0.31400
O 	O 	0.15350 0.87320 0.67623 -0.29900
O 	O 	0.06303 0.93798 0.58148 -0.72700
O 	O 	0.17241 0.03200 0.50533 -0.34400
O 	O 	0.18630 0.11104 0.54116 -0.33600
C 	C 	0.04891 0.03962 0.88711 0.28400
C 	C 	0.06908 0.05332 0.84483 0.27000
F 	F 	0.12786 0.13609 0.82055 -0.31400
F 	F 	0.08754 0.10932 0.90215 -0.30100
C 	C 	0.05156 0.04246 0.34457 0.26100
F 	F 	0.06967 0.10104 0.40008 -0.32000
F 	F 	0.12585 0.12099 0.32793 -0.27400
C 	C 	0.12615 0.30028 0.69243 0.07800
C 	C 	0.10193 0.29366 0.64414 0.00800
C 	C 	0.11013 0.36503 0.60276 -0.05900
C 	C 	0.08391 0.35985 0.54997 0.78600
H 	H 	0.11897 0.24540 0.72393 0.12000
F 	F 	0.10026 0.43694 0.51509 -0.37500
F 	F 	0.99063 0.29390 0.53765 -0.41400
C 	C 	0.24773 0.84076 0.67565 0.02700
C 	C 	0.31887 0.87028 0.65745 -0.07600
C 	C 	0.39453 0.96658 0.64222 0.81200
F 	F 	0.47799 0.97987 0.65463 -0.36900
F 	F 	0.40707 0.01348 0.66668 -0.41200
F 	F 	0.37150 0.99753 0.59109 -0.42100
C 	C 	0.23761 0.47503 0.10422 -0.08200
C 	C 	0.21460 0.39429 0.10913 0.08800
C 	C 	0.18487 0.32556 0.15122 0.02300
H 	H 	0.21113 0.38236 0.07821 0.13300
C 	C 	0.25808 0.54459 0.05523 0.79200
F 	F 	0.10093 0.23011 0.24697 -0.41200
F 	F 	0.22513 0.59091 0.04333 -0.35300
F 	F 	0.21612 0.50744 0.01595 -0.34300
C 	C 	0.11536 0.64951 0.15299 -0.11700
C 	C 	0.08100 0.67248 0.16791 0.06600
C 	C 	0.14290 0.74154 0.19122 0.02900
C 	C 	0.05488 0.60301 0.11093 0.79200
F 	F 	0.98553 0.61485 0.08264 -0.44700
F 	F 	0.84800 0.18275 0.47054 -0.36400
F 	F 	0.96667 0.35688 0.97177 -0.32300
F 	F 	0.05213 0.40171 0.04290 -0.39100
F 	F 	0.25222 0.07188 0.95035 -0.40200
C 	C 	0.74039 0.28395 0.05654 0.06200
C 	C 	0.78134 0.37096 0.05408 -0.01500
C 	C 	0.73592 0.38685 0.06615 0.07600
C 	C 	0.64986 0.31754 0.07793 -0.02900
C 	C 	0.61127 0.23230 0.08174 0.08300
C 	C 	0.66089 0.21511 0.07591 -0.02700
H 	H 	0.84635 0.42479 0.04281 0.14100
H 	H 	0.61098 0.33048 0.08249 0.12100
H 	H 	0.63351 0.14814 0.08260 0.11500
C 	C 	0.73633 0.28435 0.55072 0.06600
C 	C 	0.79907 0.37112 0.55586 0.00000
C 	C 	0.76541 0.41161 0.55442 0.07900
C 	C 	0.67014 0.36713 0.54569 -0.01500
C 	C 	0.60896 0.27943 0.54494 0.07700
C 	C 	0.64118 0.23882 0.54550 -0.01500
H 	H 	0.87299 0.40566 0.56217 0.12500
H 	H 	0.64398 0.39974 0.54209 0.12900
H 	H 	0.59296 0.17124 0.54355 0.11500
C 	C 	0.25450 0.66426 0.15811 0.07800
C 	C 	0.22151 0.58160 0.15852 -0.02200
C 	C 	0.27255 0.57513 0.14436 0.08600
C 	C 	0.36108 0.64839 0.13721 -0.02200
C 	C 	0.39455 0.72976 0.13753 0.08500
C 	C 	0.33861 0.73858 0.14436 -0.03400
H 	H 	0.40752 0.64075 0.13607 0.12800
H 	H 	0.36472 0.80232 0.14385 0.11300
C 	C 	0.29046 0.66371 0.68541 0.08600
C 	C 	0.38354 0.69476 0.69793 -0.02000
C 	C 	0.40534 0.65195 0.69103 0.07400
C 	C 	0.33509 0.57080 0.67994 -0.01100
C 	C 	0.24215 0.53615 0.66987 0.07400
C 	C 	0.21926 0.58486 0.66969 -0.00700
H 	H 	0.43901 0.75546 0.70952 0.11600
H 	H 	0.35271 0.53534 0.67779 0.11700
Co	Co	0.94273 0.92686 0.17944 1.20900
Co	Co	0.98766 0.84914 0.13538 1.19200
C 	C 	0.22751 0.05722 0.04973 0.26500
Co	Co	0.93117 0.07152 0.17660 1.17600
C 	C 	0.89128 0.70991 0.08579 0.29900
O 	O 	0.83539 0.06856 0.10996 -0.38400
O 	O 	0.97065 0.02910 0.15166 -0.77000
C 	C 	0.86289 0.11841 0.06811 0.29600
O 	O 	0.93167 0.82141 0.18690 -0.36900
C 	C 	0.77253 0.88651 0.17978 0.32700
C 	C 	0.98662 0.93697 0.96555 0.37700
O 	O 	0.90225 0.10600 0.05223 -0.32300
O 	O 	0.99577 0.99254 0.97953 -0.26600
O 	O 	0.83056 0.94459 0.20627 -0.32300
O 	O 	0.80392 0.87383 0.15897 -0.34500
O 	O 	0.98696 0.93119 0.25609 -0.29100
O 	O 	0.97580 0.74024 0.09062 -0.36300
O 	O 	0.87696 0.74977 0.09815 -0.32000
Co	Co	0.96673 0.92363 0.68742 1.20800
Co	Co	0.03592 0.87589 0.63820 1.20200
C 	C 	0.22284 0.10121 0.52193 0.32800
Co	Co	0.89467 0.02175 0.68235 1.16500
C 	C 	0.95962 0.73183 0.59947 0.29800
O 	O 	0.78706 0.98391 0.62101 -0.31800
O 	O 	0.95724 0.00706 0.65473 -0.77600
C 	C 	0.80065 0.04267 0.57874 0.27900
O 	O 	0.99449 0.84221 0.69830 -0.37000
C 	C 	0.78416 0.82933 0.70437 0.33000
O 	O 	0.03559 0.98920 0.62398 -0.52000
C 	C 	0.97250 0.93042 0.46377 0.38700
O 	O 	0.85755 0.06275 0.55702 -0.27800
O 	O 	0.97104 0.97828 0.47845 -0.28900
O 	O 	0.82823 0.89332 0.72416 -0.33000
O 	O 	0.82529 0.83362 0.68011 -0.33900
O 	O 	0.04428 0.77963 0.59460 -0.35600
O 	O 	0.93524 0.76263 0.61227 -0.31700
C 	C 	0.98909 0.95452 0.91340 -0.12400
C 	C 	0.94790 0.88352 0.89552 0.29900
C 	C 	0.97056 0.89729 0.85437 0.28800
F 	F 	0.93513 0.82764 0.84054 -0.30000
F 	F 	0.88644 0.80066 0.91844 -0.31600
C 	C 	0.93455 0.88848 0.34710 0.28800
C 	C 	0.91625 0.87593 0.38983 0.30900
C 	C 	0.96528 0.94700 0.40991 -0.13800
F 	F 	0.85122 0.79456 0.41186 -0.31900
F 	F 	0.88779 0.81884 0.32940 -0.29800
C 	C 	0.14394 0.44177 0.61109 0.02100
C 	C 	0.17000 0.44842 0.65971 0.09400
C 	C 	0.15253 0.37400 0.69999 -0.10200
H 	H 	0.15600 0.49857 0.58021 0.13000
C 	C 	0.16832 0.37525 0.75190 0.79200
F 	F 	0.13551 0.34280 0.54694 -0.38900
F 	F 	0.13667 0.41706 0.74906 -0.35200
F 	F 	0.26205 0.41864 0.77451 -0.37800
F 	F 	0.12118 0.29147 0.78151 -0.34900
C 	C 	0.55773 0.67884 0.73968 0.02200
C 	C 	0.50182 0.69353 0.69352 0.08700
C 	C 	0.53485 0.73940 0.64937 -0.11800
C 	C 	0.62467 0.77123 0.65295 0.08000
C 	C 	0.68362 0.76417 0.69976 -0.00100
C 	C 	0.64723 0.71069 0.74296 -0.05300
C 	C 	0.70522 0.69218 0.79332 0.78200
H 	H 	0.53115 0.64202 0.77311 0.13500
H 	H 	0.65144 0.80738 0.61968 0.10300
C 	C 	0.47471 0.75467 0.59864 0.79100
F 	F 	0.64932 0.61084 0.82212 -0.34500
F 	F 	0.75070 0.75460 0.81798 -0.36900
F 	F 	0.76951 0.69286 0.78812 -0.36200
F 	F 	0.44192 0.79179 0.60037 -0.41800
F 	F 	0.40037 0.67616 0.58556 -0.40700
F 	F 	0.52377 0.81033 0.56154 -0.38000
C 	C 	0.32014 0.80895 0.65422 0.02500
C 	C 	0.27051 0.72160 0.68134 0.07900
C 	C 	0.21432 0.69543 0.70983 -0.09600
C 	C 	0.19847 0.75392 0.70368 0.07200
H 	H 	0.36512 0.83052 0.63345 0.12500
H 	H 	0.14767 0.73171 0.72036 0.14400
C 	C 	0.16985 0.60609 0.74577 0.79200
F 	F 	0.23030 0.58284 0.77207 -0.36300
F 	F 	0.09013 0.54470 0.71945 -0.37400
F 	F 	0.14596 0.60549 0.78044 -0.33900
C 	C 	0.22617 0.42439 0.19025 0.03400
C 	C 	0.24060 0.48899 0.14528 0.08000
C 	C 	0.20369 0.34482 0.19434 -0.07500
C 	C 	0.19075 0.27770 0.24360 0.78900
H 	H 	0.23372 0.43658 0.22244 0.11000
F 	F 	0.25189 0.31757 0.28301 -0.35400
F 	F 	0.20724 0.22277 0.24747 -0.39100
F 	F 	0.35263 0.60115 0.05889 -0.38600
C 	C 	0.54652 0.79405 0.19503 0.01900
C 	C 	0.49475 0.79704 0.14557 0.08300
C 	C 	0.53881 0.83938 0.10658 -0.11400
C 	C 	0.62697 0.86020 0.11826 0.08300
C 	C 	0.67338 0.84484 0.16833 -0.00400
C 	C 	0.63048 0.80725 0.20715 -0.06000
C 	C 	0.67322 0.78016 0.26131 0.78000
H 	H 	0.51482 0.76867 0.22456 0.11100
H 	H 	0.66071 0.89061 0.08860 0.09500
C 	C 	0.48909 0.85621 0.05252 0.79300
F 	F 	0.73833 0.85133 0.28203 -0.39500
F 	F 	0.71514 0.74748 0.26458 -0.37200
F 	F 	0.60631 0.71544 0.28900 -0.38000
F 	F 	0.43516 0.87731 0.04819 -0.37700
F 	F 	0.43275 0.78235 0.03525 -0.35800
F 	F 	0.55175 0.92478 0.02272 -0.38800
C 	C 	0.26079 0.72174 0.21329 0.02700
C 	C 	0.20720 0.67347 0.17685 0.07900
C 	C 	0.23030 0.75830 0.21959 -0.06400
C 	C 	0.29460 0.82125 0.25263 0.78100
H 	H 	0.32944 0.73719 0.23339 0.10900
F 	F 	0.35399 0.80151 0.29161 -0.36600
F 	F 	0.24435 0.81727 0.27293 -0.36900
F 	F 	0.34654 0.90497 0.22449 -0.36800
F 	F 	0.10557 0.63535 0.07865 -0.39600
C 	C 	0.78166 0.11546 0.60952 0.08500
C 	C 	0.78504 0.10784 0.56868 0.00500
C 	C 	0.77298 0.16105 0.52044 -0.03400
C 	C 	0.76678 0.22576 0.51568 0.02200
C 	C 	0.77057 0.23637 0.55786 0.09700
C 	C 	0.78658 0.18558 0.60564 -0.12600
C 	C 	0.80538 0.20364 0.65268 0.79200
H 	H 	0.78110 0.06947 0.64544 0.03800
H 	H 	0.75574 0.26567 0.47908 0.13300
C 	C 	0.76217 0.14706 0.47406 0.77700
F 	F 	0.83761 0.15906 0.69517 -0.41000
F 	F 	0.72459 0.17777 0.65691 -0.37000
F 	F 	0.87231 0.29163 0.65097 -0.41200
F 	F 	0.70381 0.05891 0.47613 -0.38700
F 	F 	0.72431 0.18616 0.43106 -0.37300
C 	C 	0.84752 0.49748 0.61593 0.02700
C 	C 	0.82897 0.49720 0.56681 0.09200
C 	C 	0.84562 0.57329 0.52804 -0.11700
C 	C 	0.87081 0.64434 0.53827 0.07100
C 	C 	0.89169 0.64565 0.58748 0.01000
C 	C 	0.87363 0.56914 0.62615 -0.05700
C 	C 	0.88238 0.56380 0.67825 0.78400
H 	H 	0.83536 0.43930 0.64561 0.15600
H 	H 	0.88040 0.70140 0.50831 0.11400
C 	C 	0.83137 0.57712 0.47508 0.79100
F 	F 	0.84010 0.47861 0.70690 -0.34800
F 	F 	0.84046 0.59605 0.67552 -0.38700
F 	F 	0.97501 0.61234 0.70191 -0.40000
F 	F 	0.73774 0.53343 0.45226 -0.38600
F 	F 	0.86494 0.53891 0.47546 -0.40600
F 	F 	0.87778 0.66242 0.44704 -0.37200
C 	C 	0.38458 0.17434 0.57250 0.09000
C 	C 	0.32371 0.16145 0.52547 0.00500
C 	C 	0.35870 0.19265 0.48449 -0.05700
C 	C 	0.44912 0.22099 0.49324 0.02700
C 	C 	0.50962 0.23179 0.54040 0.09100
C 	C 	0.47772 0.20931 0.58062 -0.09700
C 	C 	0.54304 0.22458 0.63167 0.79300
H 	H 	0.35818 0.15349 0.60328 0.10100
H 	H 	0.47421 0.23888 0.46267 0.12100
C 	C 	0.30025 0.19599 0.43152 0.78600
F 	F 	0.49506 0.18188 0.66789 -0.36300
F 	F 	0.60274 0.31270 0.62962 -0.40200
F 	F 	0.59410 0.19409 0.64644 -0.35400
F 	F 	0.24839 0.22100 0.42483 -0.36000
F 	F 	0.24223 0.11467 0.42230 -0.39400
F 	F 	0.35515 0.25585 0.39710 -0.36100
C 	C 	0.87223 0.30170 0.05057 0.01900
C 	C 	0.77709 0.26402 0.03690 0.10300
C 	C 	0.71570 0.19556 0.01193 -0.14900
C 	C 	0.74530 0.14915 0.01671 0.09200
C 	C 	0.83919 0.18153 0.03635 0.00700
C 	C 	0.90333 0.26737 0.04259 -0.07900
C 	C 	0.98964 0.32967 0.02330 0.75500
H 	H 	0.92201 0.35923 0.06516 0.11400
H 	H 	0.69536 0.08775 0.00605 0.11100
C 	C 	0.62275 0.17571 0.97767 0.84000
F 	F 	0.61894 0.24481 0.96286 -0.38000
F 	F 	0.55244 0.10189 0.00177 -0.43400
F 	F 	0.60830 0.16046 0.93505 -0.35500
C 	C 	0.79213 0.61104 0.03029 0.04400
C 	C 	0.81640 0.62127 0.07764 0.03500
C 	C 	0.80331 0.54984 0.11918 -0.07700
C 	C 	0.79682 0.48325 0.11603 0.03800
C 	C 	0.77836 0.47458 0.06923 0.10400
C 	C 	0.77176 0.53755 0.02543 -0.10700
C 	C 	0.74674 0.52861 0.97384 0.81100
H 	H 	0.79787 0.66422 0.99778 0.15500
H 	H 	0.79821 0.43374 0.14949 0.12500
C 	C 	0.80097 0.54667 0.16758 0.78000
F 	F 	0.73845 0.59337 0.93626 -0.34000
F 	F 	0.66283 0.44900 0.96686 -0.36900
F 	F 	0.81520 0.53465 0.96910 -0.35700
F 	F 	0.75619 0.58110 0.15758 -0.39600
F 	F 	0.89031 0.59437 0.19534 -0.41900
F 	F 	0.75352 0.46156 0.19572 -0.37400
C 	C 	0.45356 0.15768 0.03003 0.03100
C 	C 	0.51119 0.16700 0.07794 0.08500
C 	C 	0.47365 0.13619 0.11764 -0.11700
C 	C 	0.38210 0.10718 0.10699 0.07000
C 	C 	0.32757 0.10607 0.05786 0.01400
C 	C 	0.36584 0.13693 0.01850 -0.09100
C 	C 	0.31458 0.14998 0.96416 0.80700
H 	H 	0.48169 0.17742 0.00036 0.14700
H 	H 	0.35239 0.08361 0.13699 0.10100
C 	C 	0.53308 0.14000 0.17061 0.79000
F 	F 	0.37564 0.21087 0.93296 -0.35200
F 	F 	0.26757 0.18020 0.95728 -0.36400
F 	F 	0.58837 0.22368 0.17605 -0.39900
F 	F 	0.58901 0.11695 0.18095 -0.40900
F 	F 	0.47893 0.08337 0.20529 -0.37100
