data_crystal

_cell_length_a 17.95136
_cell_length_b 16.33618
_cell_length_c 42.31698
_cell_angle_alpha 90.48655
_cell_angle_beta  91.08610
_cell_angle_gamma 111.02581

_symmetry_space_group_name_	'P 1'
_symmetry_space_group_name_H-M	'P 1'

loop_
_symmetry_equiv_pos_as_xyz
  x,y,z

loop_
_atom_site_label
_atom_site_type_symbol
_atom_site_fract_x
_atom_site_fract_y
_atom_site_fract_z
_atom_site_charge
Ni	Ni	0.72181 0.37042 0.88781 1.10200
O 	O 	0.62320 0.28559 0.86435 -0.69900
Ni	Ni	0.53633 0.29940 0.88979 1.10700
O 	O 	0.79501 0.34247 0.85621 -0.34900
O 	O 	0.73682 0.19656 0.86655 -0.32500
O 	O 	0.70766 0.46176 0.85799 -0.38900
Ni	Ni	0.61312 0.16357 0.86629 1.11000
O 	O 	0.75725 0.49097 0.95441 -0.40200
O 	O 	0.61798 0.16336 0.91458 -0.39000
O 	O 	0.44470 0.22357 0.86141 -0.32500
O 	O 	0.63513 0.36731 0.91726 -0.70100
O 	O 	0.81867 0.46364 0.90996 -0.37000
O 	O 	0.45886 0.34319 0.91368 -0.32700
O 	O 	0.54668 0.48381 0.91308 -0.39900
Ni	Ni	0.65584 0.48769 0.93136 1.07600
H 	H 	0.61887 0.30265 0.84219 0.19200
H 	H 	0.63930 0.33316 0.93595 0.16000
C 	C 	0.55573 0.15956 0.93101 0.28500
O 	O 	0.72131 0.56582 0.89643 -0.38500
C 	C 	0.78385 0.26012 0.84911 0.27100
C 	C 	0.44006 0.14363 0.85283 0.27000
C 	C 	0.71954 0.54305 0.86643 0.31600
C 	C 	0.48052 0.42508 0.92343 0.26900
C 	C 	0.82083 0.48610 0.94021 0.28500
O 	O 	0.50669 0.19696 0.92061 -0.33100
O 	O 	0.49019 0.10814 0.86508 -0.33600
Ni	Ni	0.51510 0.39023 0.54990 1.10600
O 	O 	0.61709 0.41963 0.52451 -0.69700
Ni	Ni	0.69234 0.39932 0.55624 1.10200
O 	O 	0.46581 0.46104 0.52224 -0.35900
O 	O 	0.58163 0.57736 0.52697 -0.35500
O 	O 	0.46008 0.28133 0.52095 -0.36100
Ni	Ni	0.66809 0.53695 0.50795 1.08800
O 	O 	0.42096 0.21178 0.57853 -0.37600
O 	O 	0.75518 0.60301 0.54112 -0.32600
O 	O 	0.79958 0.45421 0.53305 -0.36200
O 	O 	0.58536 0.35306 0.57909 -0.69200
O 	O 	0.41641 0.35046 0.57688 -0.36600
O 	O 	0.74628 0.35105 0.59099 -0.34500
O 	O 	0.65048 0.21490 0.58505 -0.34600
Ni	Ni	0.53915 0.22593 0.58145 1.11000
H 	H 	0.60894 0.37699 0.50687 0.16500
H 	H 	0.58840 0.38047 0.60027 0.20100
C 	C 	0.74907 0.59079 0.57171 0.29200
O 	O 	0.54404 0.20979 0.53412 -0.40100
C 	C 	0.50846 0.54263 0.51553 0.27100
C 	C 	0.80532 0.47992 0.50310 0.28900
C 	C 	0.49005 0.22012 0.51507 0.28400
C 	C 	0.70917 0.27148 0.60175 0.27600
C 	C 	0.39101 0.27056 0.58856 0.29700
O 	O 	0.71391 0.51160 0.58275 -0.37100
O 	O 	0.74458 0.48913 0.48751 -0.40200
Ni	Ni	0.96438 0.03164 0.69224 1.10100
O 	O 	0.05352 0.02589 0.72194 -0.71500
Ni	Ni	0.99050 0.96911 0.75925 1.10700
O 	O 	0.04393 0.08887 0.65773 -0.29900
O 	O 	0.11970 0.19590 0.69227 -0.39100
O 	O 	0.94946 0.90757 0.67626 -0.34100
Ni	Ni	0.12657 0.14109 0.73607 1.07600
O 	O 	0.76879 0.99978 0.69995 -0.34300
O 	O 	0.04025 0.18393 0.75346 -0.39900
O 	O 	0.08302 0.95537 0.78450 -0.34300
O 	O 	0.90626 0.99551 0.73227 -0.68800
O 	O 	0.87034 0.03048 0.66435 -0.36400
O 	O 	0.90854 0.88721 0.78898 -0.31100
O 	O 	0.82981 0.81217 0.74722 -0.38000
Ni	Ni	0.80160 0.90749 0.72270 1.10100
H 	H 	0.08233 0.98936 0.71341 0.21900
H 	H 	0.89673 0.04795 0.73977 0.15900
C 	C 	0.99924 0.14808 0.77844 0.29400
O 	O 	0.81322 0.85584 0.67965 -0.36800
C 	C 	0.11241 0.15110 0.66551 0.26400
C 	C 	0.15115 0.02355 0.78620 0.27900
C 	C 	0.87882 0.84907 0.66861 0.30500
C 	C 	0.84668 0.82077 0.77784 0.27300
C 	C 	0.81048 0.04766 0.67657 0.28000
O 	O 	0.00037 0.07315 0.78883 -0.34200
O 	O 	0.15227 0.10330 0.77969 -0.38400
Ni	Ni	0.17083 0.73153 0.38366 1.10100
O 	O 	0.26306 0.81928 0.35967 -0.69400
Ni	Ni	0.35683 0.80658 0.38210 1.11000
O 	O 	0.08815 0.75985 0.35624 -0.35300
O 	O 	0.14896 0.90553 0.36803 -0.33000
O 	O 	0.17472 0.64231 0.34994 -0.36400
Ni	Ni	0.27208 0.94083 0.36389 1.11200
O 	O 	0.15643 0.60516 0.44725 -0.39800
O 	O 	0.28020 0.94090 0.41198 -0.39600
O 	O 	0.44120 0.88545 0.35340 -0.35500
O 	O 	0.26487 0.73419 0.41013 -0.69500
O 	O 	0.08197 0.63597 0.40687 -0.37100
O 	O 	0.43909 0.75910 0.40140 -0.34200
O 	O 	0.34856 0.62328 0.39379 -0.34700
Ni	Ni	0.24923 0.61205 0.41956 1.08400
H 	H 	0.26234 0.80269 0.33707 0.19500
H 	H 	0.26509 0.76605 0.43014 0.16100
C 	C 	0.34754 0.94856 0.42638 0.29000
O 	O 	0.17114 0.53729 0.38557 -0.35200
C 	C 	0.09781 0.84214 0.35060 0.27000
C 	C 	0.44191 0.96438 0.34605 0.29600
C 	C 	0.16744 0.56143 0.35631 0.30800
C 	C 	0.41757 0.67436 0.40563 0.28000
C 	C 	0.08936 0.61216 0.43636 0.28300
O 	O 	0.39269 0.90713 0.41541 -0.36200
O 	O 	0.39423 0.99862 0.36043 -0.37000
Ni	Ni	0.30391 0.78225 0.06024 1.10500
O 	O 	0.22130 0.67757 0.08181 -0.70100
Ni	Ni	0.23018 0.57646 0.05702 1.10600
O 	O 	0.27747 0.86975 0.08919 -0.32800
O 	O 	0.14592 0.80954 0.07410 -0.39400
O 	O 	0.38408 0.77077 0.09370 -0.35800
Ni	Ni	0.11241 0.67389 0.07671 1.06900
O 	O 	0.41708 0.80165 0.99845 -0.40100
O 	O 	0.11883 0.67404 0.02878 -0.40700
O 	O 	0.15416 0.47960 0.08314 -0.31600
O 	O 	0.30048 0.68195 0.03197 -0.69700
O 	O 	0.39282 0.88396 0.03922 -0.31700
O 	O 	0.27161 0.48741 0.03567 -0.32500
O 	O 	0.39592 0.58090 0.04695 -0.41200
Ni	Ni	0.41062 0.69517 0.02341 1.07900
H 	H 	0.23484 0.67369 0.10440 0.16200
H 	H 	0.27333 0.68614 0.01181 0.16700
C 	C 	0.10527 0.60068 0.01325 0.28800
O 	O 	0.48019 0.77482 0.05843 -0.35400
C 	C 	0.20281 0.86436 0.09217 0.27700
C 	C 	0.08538 0.48481 0.09161 0.26600
C 	C 	0.45814 0.78001 0.08750 0.29500
C 	C 	0.34906 0.50842 0.03309 0.27700
C 	C 	0.42508 0.87795 0.01166 0.30300
O 	O 	0.14083 0.54674 0.02233 -0.33000
O 	O 	0.05672 0.53983 0.07737 -0.37500
Ni	Ni	0.88973 0.01314 0.19224 1.09900
O 	O 	0.80762 0.03987 0.21899 -0.71000
Ni	Ni	0.87663 0.11229 0.25395 1.10300
O 	O 	0.80187 0.94102 0.16052 -0.33500
O 	O 	0.72948 0.85471 0.19949 -0.40000
O 	O 	0.90561 0.12284 0.16484 -0.33900
Ni	Ni	0.73319 0.93433 0.23852 1.07100
O 	O 	0.05969 0.12499 0.17132 -0.35200
O 	O 	0.81980 0.89616 0.25921 -0.40100
O 	O 	0.78729 0.14014 0.27543 -0.31400
O 	O 	0.95800 0.07150 0.23055 -0.69300
O 	O 	0.97332 0.98358 0.16740 -0.33800
O 	O 	0.95536 0.20835 0.28290 -0.32100
O 	O 	0.07444 0.22397 0.26091 -0.36700
Ni	Ni	0.05129 0.16728 0.21611 1.08300
H 	H 	0.77929 0.07276 0.20736 0.16800
H 	H 	0.97505 0.02795 0.24149 0.16900
C 	C 	0.86683 0.94327 0.28203 0.30500
O 	O 	0.97469 0.22610 0.20227 -0.42800
C 	C 	0.73384 0.88481 0.17059 0.28500
C 	C 	0.71991 0.07489 0.28131 0.25700
C 	C 	0.93810 0.20601 0.17453 0.29800
C 	C 	0.02823 0.25858 0.27524 0.28700
C 	C 	0.04523 0.04215 0.16409 0.26900
O 	O 	0.86805 0.02227 0.28851 -0.33400
O 	O 	0.71632 0.99268 0.27927 -0.36100
C 	C 	0.95311 0.27622 0.15107 -0.08300
C 	C 	0.97520 0.36372 0.16142 0.03000
C 	C 	0.01457 0.43196 0.14122 -0.05300
C 	C 	0.03082 0.41368 0.11026 0.03100
C 	C 	0.99789 0.32656 0.09814 -0.09600
C 	C 	0.96059 0.25798 0.11901 0.09600
H 	H 	0.03596 0.49899 0.15014 0.03700
H 	H 	0.94136 0.19052 0.11072 0.12300
H 	H 	0.96647 0.37872 0.18575 0.03800
C 	C 	0.00595 0.30588 0.06361 0.78500
F 	F 	0.08231 0.30738 0.05860 -0.39900
F 	F 	0.95213 0.22376 0.05489 -0.40600
F 	F 	0.99114 0.36667 0.04436 -0.44600
C 	C 	0.66141 0.85898 0.15004 -0.10000
C 	C 	0.60372 0.77423 0.15157 0.02700
C 	C 	0.53403 0.75060 0.13278 -0.04900
C 	C 	0.52047 0.81167 0.11256 0.03400
C 	C 	0.57544 0.89947 0.11282 -0.12400
C 	C 	0.64722 0.92128 0.13064 0.08700
H 	H 	0.49194 0.68367 0.13302 0.05500
H 	H 	0.69146 0.98700 0.12982 0.07400
H 	H 	0.61363 0.72597 0.16680 0.04300
C 	C 	0.55922 0.96907 0.09332 0.79000
F 	F 	0.60732 0.05267 0.10324 -0.45100
F 	F 	0.57412 0.95837 0.06192 -0.45000
F 	F 	0.48065 0.96249 0.09622 -0.44900
C 	C 	0.18500 0.93197 0.11032 -0.08500
C 	C 	0.18905 0.93188 0.14338 0.02700
C 	C 	0.14819 0.97435 0.16104 -0.04900
C 	C 	0.10369 0.01831 0.14581 0.03400
C 	C 	0.10746 0.02784 0.11255 -0.12300
C 	C 	0.14766 0.98335 0.09500 0.09300
H 	H 	0.14740 0.96888 0.18654 0.05800
H 	H 	0.14636 0.98469 0.06941 0.08000
H 	H 	0.21890 0.89353 0.15539 0.03900
C 	C 	0.06689 0.08295 0.09579 0.79000
F 	F 	0.08248 0.08933 0.06381 -0.41300
F 	F 	0.98516 0.04569 0.09922 -0.42800
F 	F 	0.09425 0.16690 0.10866 -0.42600
C 	C 	0.51304 0.02425 0.33073 -0.09100
C 	C 	0.51121 0.03845 0.29822 0.03300
C 	C 	0.58264 0.07381 0.28202 -0.05600
C 	C 	0.65611 0.09229 0.29812 0.04700
C 	C 	0.65787 0.09471 0.33159 -0.12700
C 	C 	0.58585 0.05702 0.34769 0.09900
H 	H 	0.58070 0.07663 0.25646 0.04900
H 	H 	0.58675 0.04883 0.37307 0.06700
H 	H 	0.45486 0.01630 0.28512 0.04300
C 	C 	0.73653 0.12849 0.34995 0.79200
F 	F 	0.72560 0.14849 0.38097 -0.44600
F 	F 	0.77117 0.06531 0.34983 -0.43200
F 	F 	0.78778 0.20401 0.33641 -0.43700
C 	C 	0.06687 0.34185 0.29321 -0.07500
C 	C 	0.02201 0.39250 0.30233 0.02500
C 	C 	0.05676 0.46744 0.32138 -0.03200
C 	C 	0.13695 0.49316 0.33143 0.03300
C 	C 	0.18445 0.44645 0.32033 -0.12300
C 	C 	0.14822 0.36940 0.30203 0.08800
H 	H 	0.02044 0.50383 0.32933 0.06700
H 	H 	0.18275 0.32985 0.29531 0.08600
H 	H 	0.95968 0.37284 0.29520 0.06400
C 	C 	0.27253 0.47587 0.32924 0.78800
F 	F 	0.31184 0.43636 0.31000 -0.44100
F 	F 	0.30858 0.56571 0.32610 -0.46100
F 	F 	0.28106 0.45376 0.36021 -0.45400
C 	C 	0.92706 0.91374 0.29708 -0.09900
C 	C 	0.90561 0.82907 0.30919 0.04000
C 	C 	0.96225 0.80433 0.32570 -0.04500
C 	C 	0.04195 0.86256 0.32873 0.04100
C 	C 	0.06543 0.94359 0.31278 -0.13900
C 	C 	0.00628 0.97205 0.30030 0.09900
H 	H 	0.94371 0.74091 0.33686 0.07000
H 	H 	0.02220 0.03916 0.29261 0.04700
H 	H 	0.84444 0.78376 0.30701 0.04600
C 	C 	0.15269 0.99944 0.30853 0.79100
F 	F 	0.19848 0.94763 0.30498 -0.52200
F 	F 	0.16175 0.04992 0.28174 -0.47200
F 	F 	0.18073 0.05497 0.33443 -0.47700
C 	C 	0.33706 0.06584 0.46999 -0.00600
H 	H 	0.27136 0.04891 0.46941 0.05900
C 	C 	0.40008 0.15636 0.46190 -0.00600
H 	H 	0.38706 0.21531 0.45494 0.05600
C 	C 	0.38789 0.06073 0.49939 -0.00800
H 	H 	0.36465 0.04115 0.52338 0.05600
C 	C 	0.45034 0.15017 0.49096 -0.05800
C 	C 	0.38266 0.02070 0.45017 -0.06100
C 	C 	0.43292 0.01473 0.47923 -0.01300
H 	H 	0.44605 0.95585 0.48622 0.06000
C 	C 	0.49575 0.10494 0.47109 -0.00500
H 	H 	0.56143 0.12174 0.47163 0.06000
C 	C 	0.44506 0.11018 0.44173 -0.00800
H 	H 	0.46839 0.12973 0.41775 0.05900
C 	C 	0.89011 0.49922 0.45186 -0.00700
H 	H 	0.83984 0.46192 0.43561 0.06100
C 	C 	0.96632 0.47778 0.45782 -0.00500
H 	H 	0.97997 0.42387 0.44612 0.06200
C 	C 	0.94091 0.59769 0.44946 -0.00400
H 	H 	0.93343 0.64235 0.43105 0.05300
C 	C 	0.01633 0.57604 0.45552 -0.05700
C 	C 	0.88431 0.51148 0.48773 -0.05200
C 	C 	0.93460 0.60971 0.48545 -0.01400
H 	H 	0.92097 0.66373 0.49708 0.07300
C 	C 	0.01110 0.58846 0.49140 -0.00500
H 	H 	0.06173 0.62592 0.50745 0.05400
C 	C 	0.95958 0.48952 0.49397 -0.00700
H 	H 	0.96653 0.44477 0.51244 0.05500
C 	C 	0.43424 0.54653 0.43976 -0.01600
H 	H 	0.40728 0.49240 0.42225 0.07200
C 	C 	0.40135 0.55321 0.47278 -0.01600
H 	H 	0.34735 0.50423 0.48302 0.04400
C 	C 	0.51982 0.57432 0.45404 -0.01300
H 	H 	0.56341 0.54220 0.44895 0.01300
C 	C 	0.48651 0.58127 0.48678 -0.06300
C 	C 	0.44743 0.64370 0.43448 -0.06900
C 	C 	0.53274 0.67211 0.44838 -0.00200
H 	H 	0.58647 0.72115 0.43801 0.06200
C 	C 	0.49998 0.67854 0.48163 -0.00000
H 	H 	0.52695 0.73234 0.49925 0.07300
C 	C 	0.41431 0.65073 0.46727 -0.02800
H 	H 	0.37063 0.68273 0.47238 0.01100
C 	C 	0.78971 0.12044 0.66358 -0.08500
C 	C 	0.84522 0.18437 0.64532 0.03100
C 	C 	0.82156 0.24328 0.62790 -0.04000
C 	C 	0.74262 0.23978 0.62892 0.04000
C 	C 	0.69128 0.18726 0.65191 -0.13100
C 	C 	0.71383 0.12439 0.66793 0.10100
H 	H 	0.86279 0.28675 0.61167 0.06800
H 	H 	0.67180 0.07753 0.68301 0.08600
H 	H 	0.90571 0.18559 0.64337 0.04500
C 	C 	0.61080 0.19413 0.65802 0.78400
F 	F 	0.55379 0.13784 0.63769 -0.50200
F 	F 	0.58853 0.17163 0.68883 -0.43300
F 	F 	0.61343 0.27897 0.65359 -0.49000
C 	C 	0.31518 0.23961 0.60571 -0.08700
C 	C 	0.28835 0.29962 0.62119 0.03100
C 	C 	0.21935 0.26999 0.63898 -0.04800
C 	C 	0.17713 0.17973 0.64240 0.03300
C 	C 	0.20288 0.11825 0.62616 -0.12700
C 	C 	0.27058 0.14945 0.60719 0.09000
H 	H 	0.19976 0.31740 0.65091 0.06400
H 	H 	0.28908 0.10357 0.59378 0.07500
H 	H 	0.32169 0.36940 0.61990 0.04900
C 	C 	0.15851 0.01988 0.62869 0.77300
F 	F 	0.08454 0.99664 0.61368 -0.42700
F 	F 	0.19959 0.97239 0.61466 -0.43500
F 	F 	0.14897 0.99614 0.66004 -0.46900
C 	C 	0.87059 0.79198 0.64076 -0.07100
C 	C 	0.86656 0.70566 0.64475 0.03400
C 	C 	0.83102 0.64202 0.62129 -0.03900
C 	C 	0.79598 0.66297 0.59395 0.03900
C 	C 	0.80365 0.75198 0.58909 -0.11900
C 	C 	0.84532 0.81615 0.61199 0.10000
H 	H 	0.82801 0.57534 0.62494 0.07300
H 	H 	0.85231 0.88418 0.60862 0.09100
H 	H 	0.88720 0.68669 0.66674 0.04500
C 	C 	0.76612 0.77883 0.56038 0.78800
F 	F 	0.76833 0.86416 0.56335 -0.43500
F 	F 	0.80722 0.77361 0.53359 -0.44900
F 	F 	0.68692 0.72513 0.55676 -0.46000
C 	C 	0.94864 0.54126 0.00582 0.00100
H 	H 	0.93494 0.54167 0.03129 0.05400
C 	C 	0.92003 0.45961 0.98366 0.00500
H 	H 	0.88179 0.39249 0.99060 0.07600
C 	C 	0.92657 0.59587 0.98016 -0.00700
H 	H 	0.89384 0.64108 0.98420 0.05300
C 	C 	0.89863 0.51458 0.95818 -0.06000
C 	C 	0.03269 0.56728 0.99216 -0.04800
C 	C 	0.01128 0.62217 0.96665 -0.01400
H 	H 	0.04948 0.68935 0.95976 0.06200
C 	C 	0.98255 0.54041 0.94437 -0.00600
H 	H 	0.99590 0.53990 0.91888 0.05700
C 	C 	0.00510 0.48587 0.97022 0.00200
H 	H 	0.03808 0.44086 0.96632 0.07800
C 	C 	0.45664 0.08103 0.97706 0.00200
H 	H 	0.42580 0.12871 0.97937 0.07600
C 	C 	0.50258 0.05417 0.00402 -0.00300
H 	H 	0.50861 0.07806 0.02892 0.09900
C 	C 	0.41676 0.98394 0.96646 0.00900
H 	H 	0.35233 0.95018 0.96057 0.08700
C 	C 	0.46293 0.95806 0.99302 -0.04000
C 	C 	0.52586 0.08985 0.95480 -0.05100
C 	C 	0.48620 0.99361 0.94409 0.01100
H 	H 	0.47985 0.96913 0.91925 0.08000
C 	C 	0.53231 0.96720 0.97084 0.00100
H 	H 	0.56317 0.91955 0.96845 0.06600
C 	C 	0.57248 0.06448 0.98138 -0.00300
H 	H 	0.63692 0.09833 0.98720 0.07300
C 	C 	0.38077 0.52473 0.97216 -0.02500
H 	H 	0.35523 0.57625 0.96752 0.01100
C 	C 	0.35443 0.43398 0.95523 0.00800
H 	H 	0.30813 0.41084 0.93611 0.06600
C 	C 	0.46942 0.53558 0.96875 -0.03300
H 	H 	0.51753 0.59592 0.96092 0.02700
C 	C 	0.44284 0.44535 0.95217 -0.06300
C 	C 	0.37953 0.47965 0.00406 -0.07100
C 	C 	0.46789 0.49071 0.00087 -0.02700
H 	H 	0.51451 0.51383 0.01988 0.03700
C 	C 	0.44155 0.40005 0.98403 -0.01100
H 	H 	0.46720 0.34861 0.98865 0.04200
C 	C 	0.35265 0.38922 0.98758 0.00800
H 	H 	0.30448 0.32920 0.99558 0.08300
C 	C 	0.94156 0.18350 0.79171 -0.09800
C 	C 	0.96767 0.26773 0.80542 0.03900
C 	C 	0.91489 0.29500 0.82285 -0.04500
C 	C 	0.83452 0.23965 0.82543 0.04700
C 	C 	0.80593 0.16001 0.80769 -0.12600
C 	C 	0.86115 0.12888 0.79385 0.10700
H 	H 	0.93721 0.35757 0.83534 0.07000
H 	H 	0.84163 0.06171 0.78525 0.05700
H 	H 	0.02973 0.31017 0.80410 0.04500
C 	C 	0.71735 0.10721 0.80367 0.78800
F 	F 	0.67333 0.16155 0.80274 -0.50300
F 	F 	0.70210 0.05913 0.77563 -0.43900
F 	F 	0.69244 0.04971 0.82842 -0.44400
C 	C 	0.21928 0.01688 0.80409 -0.08800
C 	C 	0.29115 0.03254 0.78848 0.03000
C 	C 	0.36394 0.06724 0.80512 -0.05000
C 	C 	0.36536 0.08497 0.83760 0.05100
C 	C 	0.29301 0.05513 0.85434 -0.12600
C 	C 	0.22003 0.02270 0.83717 0.09700
H 	H 	0.41920 0.08603 0.79237 0.07800
H 	H 	0.16423 0.00909 0.84923 0.08000
H 	H 	0.29092 0.02590 0.76297 0.04000
C 	C 	0.29313 0.06297 0.89008 0.79200
F 	F 	0.30650 0.14887 0.89887 -0.43900
F 	F 	0.22092 0.00977 0.90207 -0.44300
F 	F 	0.35222 0.03763 0.90336 -0.45800
C 	C 	0.74492 0.61218 0.84240 -0.09700
C 	C 	0.78077 0.59831 0.81468 0.03700
C 	C 	0.81091 0.66574 0.79316 -0.04700
C 	C 	0.80543 0.74798 0.79885 0.04100
C 	C 	0.76410 0.76093 0.82555 -0.12900
C 	C 	0.73616 0.69324 0.84768 0.09800
H 	H 	0.84096 0.65490 0.77245 0.06400
H 	H 	0.70794 0.70361 0.86897 0.06800
H 	H 	0.78764 0.53602 0.81025 0.05200
C 	C 	0.75175 0.84719 0.83098 0.79200
F 	F 	0.69398 0.83900 0.85320 -0.42900
F 	F 	0.82252 0.91026 0.84169 -0.42500
F 	F 	0.72718 0.87487 0.80318 -0.44700
