data_crystal

_cell_length_a 19.18887
_cell_length_b 21.13289
_cell_length_c 40.63900
_cell_angle_alpha 60.60496
_cell_angle_beta  119.09652
_cell_angle_gamma 133.24711

_symmetry_space_group_name_	'P 1'
_symmetry_space_group_name_H-M	'P 1'

loop_
_symmetry_equiv_pos_as_xyz
  x,y,z

loop_
_atom_site_label
_atom_site_type_symbol
_atom_site_fract_x
_atom_site_fract_y
_atom_site_fract_z
_atom_site_charge
C 	C 	0.68290 0.30996 0.97718 0.02800
C 	C 	0.58337 0.27709 0.95982 -0.07800
C 	C 	0.54261 0.30017 0.96866 0.03200
C 	C 	0.60373 0.38398 0.97587 -0.08000
C 	C 	0.70486 0.42446 0.99054 0.03700
C 	C 	0.74489 0.38560 0.99259 -0.07500
H 	H 	0.53460 0.21979 0.94757 0.04300
H 	H 	0.57162 0.40897 0.97739 0.05200
H 	H 	0.82086 0.41074 0.00753 0.03900
C 	C 	0.77875 0.35817 0.48920 0.03400
C 	C 	0.81512 0.44437 0.48741 -0.08200
C 	C 	0.75956 0.45532 0.49448 0.03500
C 	C 	0.66531 0.38200 0.50019 -0.08200
C 	C 	0.63028 0.29578 0.50382 0.03500
C 	C 	0.68681 0.28372 0.49827 -0.08200
H 	H 	0.88798 0.50163 0.48249 0.04600
H 	H 	0.62345 0.39091 0.50611 0.05100
H 	H 	0.66177 0.21644 0.50297 0.04500
C 	C 	0.25999 0.59029 0.18804 0.03300
C 	C 	0.35932 0.62161 0.20249 -0.07900
C 	C 	0.38831 0.57839 0.20061 0.03500
C 	C 	0.31770 0.49088 0.19667 -0.07900
C 	C 	0.21925 0.46006 0.17964 0.03200
C 	C 	0.18888 0.50784 0.17700 -0.08000
H 	H 	0.41475 0.68418 0.21126 0.05100
H 	H 	0.34158 0.45454 0.19901 0.04900
H 	H 	0.11230 0.48327 0.16524 0.04800
C 	C 	0.27970 0.63642 0.65107 0.03200
C 	C 	0.28363 0.56187 0.67016 -0.07700
C 	C 	0.31211 0.54091 0.65276 0.03300
C 	C 	0.34606 0.60051 0.61869 -0.07700
C 	C 	0.36085 0.68349 0.60415 0.03100
C 	C 	0.31656 0.69595 0.61752 -0.07400
H 	H 	0.26328 0.52013 0.69777 0.04600
H 	H 	0.36262 0.58290 0.60402 0.04800
H 	H 	0.31341 0.75307 0.60265 0.04700
Co	Co	0.98164 0.84054 0.09820 1.18100
Co	Co	0.97646 0.07149 0.06744 1.16600
Co	Co	0.91946 0.90843 0.13107 1.18200
Co	Co	0.06726 0.01748 0.04283 1.16800
C 	C 	0.89515 0.72439 0.04407 0.29800
Co	Co	0.10379 0.88223 0.04833 1.17300
Co	Co	0.86082 0.03311 0.12007 1.15400
C 	C 	0.26725 0.06011 0.06362 0.25500
O 	O 	0.96758 0.04876 0.17125 -0.44400
O 	O 	0.91701 0.99832 0.10352 -0.72900
C 	C 	0.97938 0.98508 0.19556 0.32100
O 	O 	0.92546 0.80804 0.14005 -0.47400
O 	O 	0.05701 0.11540 0.03275 -0.47600
C 	C 	0.04707 0.20532 0.10244 0.33000
O 	O 	0.95501 0.94539 0.07606 -0.57400
C 	C 	0.74104 0.82957 0.15064 0.30900
C 	C 	0.11703 0.78917 0.13184 0.31000
C 	C 	0.05663 0.99166 0.97331 0.35600
O 	O 	0.99624 0.94819 0.18386 -0.39800
O 	O 	0.08762 0.77828 0.09748 -0.40900
O 	O 	0.09889 0.83312 0.13708 -0.38900
O 	O 	0.95290 0.16647 0.09400 -0.43300
O 	O 	0.07815 0.17236 0.09695 -0.40900
O 	O 	0.76199 0.90445 0.14908 -0.38900
O 	O 	0.77296 0.82866 0.12892 -0.39900
O 	O 	0.12584 0.98095 0.99699 -0.40400
O 	O 	0.01975 0.00905 0.98541 -0.42400
O 	O 	0.04050 0.91350 0.06234 -0.74000
C 	C 	0.79654 0.07621 0.03485 0.29200
O 	O 	0.76462 0.01611 0.06649 -0.41500
O 	O 	0.86960 0.09475 0.02696 -0.39100
O 	O 	0.96103 0.79432 0.02335 -0.40600
O 	O 	0.88605 0.73010 0.07324 -0.38300
O 	O 	0.23912 0.97680 0.07581 -0.35800
O 	O 	0.21764 0.07998 0.06582 -0.40400
Co	Co	0.00660 0.86096 0.59457 1.19000
Co	Co	0.07069 0.11643 0.58251 1.18100
Co	Co	0.93006 0.92833 0.62052 1.19000
Co	Co	0.14270 0.04809 0.55534 1.16800
C 	C 	0.92234 0.76493 0.53303 0.30100
Co	Co	0.13795 0.89403 0.55128 1.17900
Co	Co	0.92806 0.08332 0.61907 1.15700
C 	C 	0.32035 0.04855 0.58267 0.25900
O 	O 	0.98951 0.04580 0.67591 -0.45200
O 	O 	0.97621 0.03886 0.60449 -0.78800
C 	C 	0.96050 0.96297 0.69383 0.35800
O 	O 	0.92001 0.82141 0.62560 -0.47400
O 	O 	0.16724 0.15739 0.55636 -0.47800
C 	C 	0.14199 0.22349 0.63366 0.30700
O 	O 	0.01578 0.98516 0.57823 -0.55400
C 	C 	0.74553 0.91098 0.60014 0.31900
C 	C 	0.11250 0.77633 0.63038 0.30600
C 	C 	0.13907 0.03816 0.48256 0.32100
O 	O 	0.96191 0.91783 0.68015 -0.39100
O 	O 	0.09072 0.77636 0.59455 -0.41200
O 	O 	0.09402 0.81721 0.63802 -0.39200
O 	O 	0.05690 0.21089 0.61559 -0.41500
O 	O 	0.16453 0.18488 0.62670 -0.40000
O 	O 	0.79619 0.95785 0.62560 -0.39700
O 	O 	0.78410 0.88489 0.59456 -0.38600
O 	O 	0.19070 0.00689 0.50661 -0.43500
O 	O 	0.11482 0.06601 0.49553 -0.39700
O 	O 	0.08821 0.93697 0.56648 -0.73600
C 	C 	0.94088 0.18574 0.53773 0.28600
O 	O 	0.87785 0.11955 0.55993 -0.40800
O 	O 	0.01063 0.18602 0.53776 -0.37300
O 	O 	0.99794 0.83292 0.51709 -0.39400
O 	O 	0.90345 0.77231 0.55810 -0.38700
O 	O 	0.27345 0.96244 0.58781 -0.36400
O 	O 	0.28165 0.07698 0.58658 -0.40300
C 	C 	0.97123 0.94620 0.86850 -0.00100
C 	C 	0.98522 0.88664 0.87092 -0.05700
C 	C 	0.97509 0.87592 0.83696 -0.02100
C 	C 	0.95059 0.92443 0.80035 -0.02500
C 	C 	0.93296 0.98131 0.79796 0.00900
C 	C 	0.94323 0.99212 0.83186 -0.00700
C 	C 	0.95406 0.92451 0.76530 0.06100
C 	C 	0.95545 0.93340 0.73367 -0.11800
C 	C 	0.99609 0.96699 0.90362 0.03000
C 	C 	0.01914 0.98016 0.93445 -0.08800
H 	H 	0.00670 0.85063 0.89906 0.05400
H 	H 	0.98907 0.83200 0.83926 0.03400
H 	H 	0.91430 0.01936 0.76986 -0.00600
H 	H 	0.93230 0.03823 0.82956 -0.00000
C 	C 	0.04014 0.99409 0.30512 0.06600
C 	C 	0.01228 0.92177 0.33787 -0.06100
C 	C 	0.02456 0.93423 0.37176 0.03700
C 	C 	0.06446 0.01908 0.37313 -0.07800
C 	C 	0.09156 0.09117 0.34027 0.00600
C 	C 	0.07936 0.07873 0.30641 -0.11200
C 	C 	0.08972 0.03423 0.40990 0.05800
C 	C 	0.10878 0.04021 0.44191 -0.13100
C 	C 	0.01854 0.98013 0.26863 0.02700
C 	C 	0.00305 0.97695 0.23653 -0.08100
H 	H 	0.98037 0.85582 0.33706 0.03500
H 	H 	0.00416 0.87815 0.39707 0.03100
H 	H 	0.12354 0.15715 0.34106 0.02500
H 	H 	0.09990 0.13485 0.28112 0.04900
C 	C 	0.30660 0.36075 0.65212 -0.02100
C 	C 	0.21332 0.28631 0.65940 -0.10900
C 	C 	0.17689 0.29053 0.68086 0.09400
C 	C 	0.21220 0.37437 0.68113 -0.08700
C 	C 	0.29669 0.45229 0.66754 -0.01000
C 	C 	0.35262 0.44188 0.65967 0.03000
C 	C 	0.46119 0.51325 0.66183 -0.17700
H 	H 	0.34178 0.35688 0.63956 0.03800
H 	H 	0.17200 0.37857 0.69068 0.04500
C 	C 	0.09971 0.20679 0.70262 -0.20000
H 	H 	0.47507 0.54407 0.63241 0.06300
H 	H 	0.50188 0.48285 0.68096 0.06400
H 	H 	0.49088 0.56646 0.67410 0.06900
H 	H 	0.02567 0.18069 0.68249 0.05800
H 	H 	0.10049 0.22045 0.72599 0.06400
H 	H 	0.11501 0.15595 0.71696 0.08300
C 	C 	0.57456 0.80044 0.56721 -0.00900
C 	C 	0.63963 0.87486 0.58311 -0.11800
C 	C 	0.59950 0.90550 0.58806 0.14600
C 	C 	0.50090 0.84638 0.59017 -0.10000
C 	C 	0.43958 0.76224 0.58223 -0.00000
C 	C 	0.47282 0.74899 0.56329 0.02600
C 	C 	0.40129 0.68959 0.53542 -0.17500
H 	H 	0.60225 0.78303 0.55770 0.04400
H 	H 	0.47385 0.86453 0.59956 0.05900
C 	C 	0.65960 0.00063 0.59012 -0.25300
H 	H 	0.41572 0.73011 0.50597 0.06800
H 	H 	0.32376 0.65781 0.53329 0.06400
H 	H 	0.41061 0.63622 0.54501 0.06100
H 	H 	0.71457 0.04735 0.57227 0.07000
H 	H 	0.69716 0.00548 0.62077 0.05800
H 	H 	0.61161 0.02264 0.57849 0.06400
C 	C 	0.29527 0.73322 0.67655 -0.09100
C 	C 	0.23626 0.65261 0.66571 -0.00600
C 	C 	0.13307 0.59835 0.66107 0.02600
C 	C 	0.09099 0.63230 0.66158 -0.01000
C 	C 	0.14886 0.72267 0.66156 -0.11300
C 	C 	0.25128 0.76641 0.67618 0.10200
C 	C 	0.31443 0.85214 0.68795 -0.21600
H 	H 	0.37479 0.77262 0.68284 0.05300
H 	H 	0.01178 0.59296 0.65610 0.03500
C 	C 	0.06730 0.50765 0.65300 -0.15500
H 	H 	0.38197 0.86074 0.71037 0.07600
H 	H 	0.27370 0.85160 0.70041 0.08700
H 	H 	0.33616 0.90986 0.66233 0.09100
H 	H 	0.08718 0.46301 0.67761 0.05700
H 	H 	0.07503 0.51458 0.62583 0.06300
H 	H 	0.98854 0.47485 0.64938 0.04500
C 	C 	0.15364 0.30996 0.18032 -0.09100
C 	C 	0.15467 0.38685 0.15955 -0.00900
C 	C 	0.12708 0.40637 0.11834 0.02600
C 	C 	0.11205 0.35603 0.09926 -0.01100
C 	C 	0.11503 0.28142 0.12040 -0.12100
C 	C 	0.14674 0.26497 0.16125 0.10400
C 	C 	0.18821 0.21123 0.18417 -0.20400
H 	H 	0.17372 0.29385 0.21184 0.04900
H 	H 	0.08786 0.36921 0.06782 0.03600
C 	C 	0.10441 0.47447 0.09467 -0.17300
H 	H 	0.16823 0.17164 0.21272 0.07200
H 	H 	0.26971 0.25774 0.18939 0.06800
H 	H 	0.16115 0.16407 0.16898 0.08300
H 	H 	0.16940 0.54170 0.09971 0.06100
H 	H 	0.04194 0.45338 0.10241 0.06200
H 	H 	0.08292 0.48081 0.06300 0.06000
C 	C 	0.57091 0.67014 0.21692 -0.08700
C 	C 	0.48128 0.63228 0.18961 -0.01000
C 	C 	0.48087 0.64646 0.15153 0.03100
C 	C 	0.56998 0.69769 0.14194 -0.01200
C 	C 	0.65871 0.74548 0.16733 -0.11300
C 	C 	0.66010 0.72627 0.20613 0.09800
C 	C 	0.75607 0.77023 0.23525 -0.20500
H 	H 	0.57129 0.65774 0.24624 0.04900
H 	H 	0.56995 0.70909 0.11283 0.04300
C 	C 	0.38647 0.61073 0.12057 -0.17600
H 	H 	0.74803 0.72929 0.26541 0.06700
H 	H 	0.78023 0.83734 0.23249 0.07700
H 	H 	0.81385 0.77766 0.23044 0.06900
H 	H 	0.40072 0.64497 0.09103 0.06200
H 	H 	0.33895 0.62271 0.12084 0.06400
H 	H 	0.34731 0.53804 0.12528 0.06800
C 	C 	0.15595 0.61424 0.19451 -0.08200
C 	C 	0.23278 0.64891 0.18022 -0.01100
C 	C 	0.28586 0.74071 0.15983 0.03400
C 	C 	0.26543 0.79570 0.15709 -0.02000
C 	C 	0.17597 0.75685 0.16306 -0.10400
C 	C 	0.12687 0.66773 0.18589 0.09300
C 	C 	0.03670 0.62626 0.19706 -0.18700
H 	H 	0.11684 0.54520 0.21120 0.04900
H 	H 	0.30838 0.86640 0.14274 0.04400
C 	C 	0.35600 0.77825 0.13750 -0.17600
H 	H 	0.02602 0.57083 0.22383 0.06800
H 	H 	0.97083 0.59924 0.17307 0.05700
H 	H 	0.04398 0.67688 0.20294 0.07900
H 	H 	0.33126 0.72698 0.12543 0.06300
H 	H 	0.43125 0.80384 0.15654 0.06700
H 	H 	0.35958 0.83486 0.11236 0.06200
C 	C 	0.93678 0.37562 0.51294 -0.08500
C 	C 	0.84283 0.34373 0.48769 -0.01300
C 	C 	0.80399 0.28347 0.46724 0.02900
C 	C 	0.84524 0.23780 0.48030 -0.02000
C 	C 	0.92970 0.25830 0.51090 -0.10500
C 	C 	0.98301 0.33643 0.52285 0.07900
C 	C 	0.08745 0.37710 0.54685 -0.19100
H 	H 	0.97158 0.42730 0.52649 0.04400
H 	H 	0.80780 0.18235 0.46861 0.03200
C 	C 	0.71681 0.26472 0.43287 -0.17400
H 	H 	0.13387 0.45038 0.53392 0.06800
H 	H 	0.12023 0.34843 0.54799 0.08200
H 	H 	0.08983 0.36686 0.57681 0.07900
H 	H 	0.71115 0.32178 0.41862 0.06200
H 	H 	0.64810 0.20320 0.44239 0.05700
H 	H 	0.72435 0.25438 0.41081 0.05700
C 	C 	0.82203 0.53323 0.54228 -0.08800
C 	C 	0.80582 0.53780 0.50380 -0.01200
C 	C 	0.81190 0.61270 0.47392 0.03000
C 	C 	0.83738 0.68307 0.48327 -0.01700
C 	C 	0.85727 0.67973 0.52204 -0.10900
C 	C 	0.84012 0.60039 0.55103 0.09600
C 	C 	0.83512 0.58470 0.59047 -0.20300
H 	H 	0.81365 0.47407 0.56499 0.04800
H 	H 	0.84712 0.74277 0.46067 0.04400
C 	C 	0.79156 0.61794 0.43216 -0.17500
H 	H 	0.81552 0.51707 0.60906 0.06400
H 	H 	0.77810 0.58991 0.58712 0.07900
H 	H 	0.90709 0.63483 0.60580 0.07400
H 	H 	0.71450 0.56183 0.42265 0.06300
H 	H 	0.84276 0.61381 0.42915 0.06100
H 	H 	0.80164 0.68184 0.41239 0.06100
C 	C 	0.39300 0.16954 0.52707 -0.01500
C 	C 	0.40297 0.11333 0.56370 -0.11400
C 	C 	0.48402 0.10945 0.57862 0.10000
C 	C 	0.55370 0.16253 0.55656 -0.09300
C 	C 	0.54254 0.21810 0.51974 -0.01300
C 	C 	0.45571 0.21345 0.50344 0.03200
C 	C 	0.43155 0.25805 0.46135 -0.17700
H 	H 	0.33282 0.17495 0.51602 0.03400
H 	H 	0.61930 0.16435 0.56891 0.04300
C 	C 	0.49742 0.05018 0.61808 -0.25500
H 	H 	0.35061 0.21838 0.44921 0.06800
H 	H 	0.46511 0.26305 0.44355 0.06300
H 	H 	0.45881 0.32620 0.45877 0.06400
H 	H 	0.44442 0.97910 0.61648 0.10900
H 	H 	0.48562 0.05777 0.63973 0.07100
H 	H 	0.57298 0.06795 0.62861 0.06400
C 	C 	0.82490 0.22445 0.99539 -0.01500
C 	C 	0.75940 0.13215 0.01083 -0.10800
C 	C 	0.66520 0.09839 0.01036 0.05200
C 	C 	0.64683 0.15788 0.00354 -0.08600
C 	C 	0.71217 0.25059 0.98865 -0.00900
C 	C 	0.79924 0.28319 0.98205 0.02700
C 	C 	0.86550 0.37944 0.96148 -0.17300
H 	H 	0.89648 0.25101 0.99448 0.04000
H 	H 	0.57934 0.13142 0.00831 0.03700
C 	C 	0.58428 0.99906 0.01778 -0.15400
H 	H 	0.90725 0.38556 0.94716 0.05900
H 	H 	0.91923 0.42140 0.98278 0.05800
H 	H 	0.82248 0.40566 0.93837 0.06300
H 	H 	0.58466 0.97048 0.04917 0.07700
H 	H 	0.59313 0.96386 0.00852 0.08100
H 	H 	0.51127 0.98635 0.00100 0.06800
C 	C 	0.82612 0.56488 0.05908 -0.01900
C 	C 	0.82641 0.63938 0.03246 -0.11300
C 	C 	0.78760 0.64151 0.99247 0.10400
C 	C 	0.76823 0.57984 0.97923 -0.08500
C 	C 	0.76576 0.50423 0.00546 -0.01900
C 	C 	0.79366 0.49597 0.04593 0.02900
C 	C 	0.78975 0.41461 0.07510 -0.17300
H 	H 	0.85553 0.56254 0.08986 0.03600
H 	H 	0.74526 0.58578 0.94823 0.05000
C 	C 	0.77241 0.71293 0.96341 -0.20500
H 	H 	0.80862 0.41624 0.10535 0.05500
H 	H 	0.84320 0.41198 0.07297 0.05500
H 	H 	0.71447 0.35252 0.06968 0.06200
H 	H 	0.75821 0.73662 0.97700 0.08200
H 	H 	0.70775 0.68605 0.93904 0.07100
H 	H 	0.83859 0.77052 0.95144 0.08300
C 	C 	0.31822 0.17374 0.00303 -0.03200
C 	C 	0.34193 0.12758 0.04078 -0.10500
C 	C 	0.42938 0.13488 0.05356 0.08500
C 	C 	0.48761 0.18228 0.02753 -0.09200
C 	C 	0.46389 0.22814 0.98966 -0.00900
C 	C 	0.37663 0.22114 0.97687 0.03700
C 	C 	0.34755 0.26687 0.93592 -0.17800
H 	H 	0.25181 0.16937 0.99347 0.03700
H 	H 	0.55619 0.18986 0.03770 0.04600
C 	C 	0.46082 0.09175 0.09488 -0.19400
H 	H 	0.26752 0.23597 0.92732 0.06300
H 	H 	0.36324 0.26080 0.91506 0.06200
H 	H 	0.38927 0.33890 0.93373 0.06400
H 	H 	0.42357 0.02042 0.09758 0.05400
H 	H 	0.44243 0.09572 0.11553 0.06700
H 	H 	0.54171 0.12619 0.10351 0.05500
