data_crystal

_cell_length_a 21.60562
_cell_length_b 24.62373
_cell_length_c 19.55121
_cell_angle_alpha 90.00415
_cell_angle_beta  90.00862
_cell_angle_gamma 92.71611

_symmetry_space_group_name_	'P 1'
_symmetry_space_group_name_H-M	'P 1'

loop_
_symmetry_equiv_pos_as_xyz
  x,y,z

loop_
_atom_site_label
_atom_site_type_symbol
_atom_site_fract_x
_atom_site_fract_y
_atom_site_fract_z
_atom_site_charge
C 	C 	0.85107 0.99634 0.15737 -0.04300
C 	C 	0.84127 0.05072 0.14155 -0.03400
C 	C 	0.91178 0.97834 0.16615 0.01300
C 	C 	0.96281 0.01497 0.15408 -0.01200
C 	C 	0.95291 0.07040 0.14092 0.00200
C 	C 	0.89170 0.08869 0.13538 -0.00000
C 	C 	0.02377 0.99576 0.15215 0.01600
C 	C 	0.07388 0.03240 0.13788 -0.04200
C 	C 	0.00418 0.10721 0.13162 0.00100
C 	C 	0.88278 0.14489 0.12373 0.01400
C 	C 	0.93427 0.18159 0.12242 -0.05100
C 	C 	0.99443 0.16323 0.12492 0.01000
C 	C 	0.92268 0.92390 0.18486 -0.00700
C 	C 	0.98367 0.90727 0.19007 -0.04300
C 	C 	0.03307 0.94018 0.16525 -0.00700
C 	C 	0.82080 0.16624 0.10901 -0.00800
C 	C 	0.80948 0.18807 0.04398 0.01300
C 	C 	0.76465 0.22685 0.03553 -0.14100
C 	C 	0.72972 0.24335 0.09171 0.08600
C 	C 	0.73609 0.21703 0.15492 -0.04700
C 	C 	0.78137 0.17851 0.16340 -0.00400
C 	C 	0.04696 0.20282 0.11800 -0.01100
C 	C 	0.08216 0.21810 0.17564 -0.00500
C 	C 	0.13783 0.24839 0.16780 -0.06800
C 	C 	0.06664 0.21954 0.05275 0.01400
C 	C 	0.12188 0.25045 0.04502 -0.14000
C 	C 	0.15792 0.26470 0.10250 0.09200
C 	C 	0.87229 0.88149 0.18392 0.01200
C 	C 	0.82844 0.87772 0.23688 -0.03000
C 	C 	0.77948 0.83865 0.23359 -0.03500
C 	C 	0.77473 0.80295 0.17775 0.04200
C 	C 	0.82069 0.80467 0.12722 -0.04200
C 	C 	0.86900 0.84396 0.13004 -0.03200
C 	C 	0.08900 0.91334 0.13991 0.01500
C 	C 	0.08358 0.87734 0.08421 -0.03600
C 	C 	0.13216 0.84404 0.06768 -0.03600
C 	C 	0.18778 0.84779 0.10495 0.03400
C 	C 	0.19438 0.88579 0.15847 -0.04100
C 	C 	0.14475 0.91746 0.17683 -0.03700
C 	C 	0.06435 0.08736 0.12811 -0.03400
H 	H 	0.83879 0.17827 0.00120 0.02700
H 	H 	0.75902 0.24576 0.98603 0.13900
H 	H 	0.70806 0.22815 0.19821 0.07600
H 	H 	0.78830 0.16078 0.21316 0.05600
H 	H 	0.81748 0.77684 0.08428 0.05100
H 	H 	0.90340 0.84599 0.08966 0.04200
H 	H 	0.74430 0.83722 0.27310 0.07900
H 	H 	0.83061 0.90658 0.27862 0.04800
H 	H 	0.04060 0.87341 0.05569 0.04300
H 	H 	0.12592 0.81429 0.02714 0.05200
H 	H 	0.14966 0.94517 0.21953 0.04500
H 	H 	0.23728 0.88960 0.18713 0.05100
H 	H 	0.06723 0.20513 0.22621 0.04900
H 	H 	0.16491 0.26000 0.21239 0.08400
H 	H 	0.03971 0.20761 0.00801 0.02700
H 	H 	0.13632 0.26406 0.99453 0.14700
H 	H 	0.81116 0.96849 0.16261 0.05800
H 	H 	0.79422 0.06320 0.13558 0.04800
H 	H 	0.92745 0.22472 0.11655 0.06700
H 	H 	0.10409 0.11431 0.11708 0.05000
H 	H 	0.12064 0.01879 0.13527 0.04800
H 	H 	0.99171 0.86562 0.20408 0.04500
C 	C 	0.93583 0.90816 0.37330 -0.03800
C 	C 	0.92561 0.96320 0.36526 -0.03200
C 	C 	0.99639 0.88918 0.37024 0.01000
C 	C 	0.04718 0.92680 0.36323 -0.00300
C 	C 	0.03658 0.98213 0.35079 0.00200
C 	C 	0.97535 0.00056 0.35234 0.00600
C 	C 	0.10855 0.90925 0.36956 0.00800
C 	C 	0.15857 0.94767 0.36344 -0.03600
C 	C 	0.08714 0.01943 0.33965 0.00700
C 	C 	0.96534 0.05606 0.34008 -0.00000
C 	C 	0.01441 0.08975 0.31600 -0.04600
C 	C 	0.07559 0.07401 0.32260 -0.00200
C 	C 	0.00700 0.83320 0.37459 -0.00100
C 	C 	0.06736 0.81574 0.37993 -0.04700
C 	C 	0.11812 0.85322 0.38111 0.00100
C 	C 	0.90948 0.08194 0.36664 0.01500
C 	C 	0.85436 0.08003 0.32862 -0.03100
C 	C 	0.80605 0.11323 0.34660 -0.03400
C 	C 	0.81369 0.15044 0.40072 0.04500
C 	C 	0.86701 0.14969 0.44155 -0.03400
C 	C 	0.91451 0.11530 0.42489 -0.02700
C 	C 	0.12459 0.11714 0.32912 0.01000
C 	C 	0.12697 0.14959 0.38799 -0.02800
C 	C 	0.17292 0.19069 0.39500 -0.03500
C 	C 	0.16750 0.12706 0.27629 -0.03200
C 	C 	0.21418 0.16784 0.28374 -0.04700
C 	C 	0.21713 0.19960 0.34335 0.04600
C 	C 	0.95516 0.79259 0.37294 0.01400
C 	C 	0.92626 0.77623 0.43410 -0.03000
C 	C 	0.86976 0.74661 0.43244 -0.03200
C 	C 	0.84184 0.73301 0.36951 0.04300
C 	C 	0.87254 0.74693 0.30837 -0.04200
C 	C 	0.92908 0.77652 0.31010 -0.03100
C 	C 	0.17995 0.83286 0.39779 0.01200
C 	C 	0.22019 0.81962 0.34460 -0.02500
C 	C 	0.26662 0.78273 0.35591 -0.03600
C 	C 	0.27241 0.75809 0.42022 0.05100
C 	C 	0.23632 0.77539 0.47498 -0.03800
C 	C 	0.19079 0.81311 0.46398 -0.02500
C 	C 	0.14811 0.00191 0.34752 -0.03800
H 	H 	0.84926 0.05343 0.28487 0.04600
H 	H 	0.76389 0.11184 0.31658 0.05400
H 	H 	0.87307 0.17772 0.48399 0.06200
H 	H 	0.95666 0.11676 0.45499 0.05100
H 	H 	0.85304 0.73414 0.25967 0.04900
H 	H 	0.95204 0.78786 0.26269 0.04300
H 	H 	0.84776 0.73388 0.47998 0.06900
H 	H 	0.94651 0.78821 0.48283 0.05600
H 	H 	0.21314 0.83539 0.29373 0.04200
H 	H 	0.29625 0.77163 0.31408 0.08000
H 	H 	0.16062 0.82359 0.50573 0.05500
H 	H 	0.24145 0.75772 0.52528 0.06400
H 	H 	0.09345 0.14247 0.42863 0.05200
H 	H 	0.17535 0.21468 0.44147 0.06800
H 	H 	0.16571 0.10228 0.23053 0.04400
H 	H 	0.24841 0.17438 0.24371 0.06400
H 	H 	0.89634 0.88045 0.38242 0.05500
H 	H 	0.87859 0.97630 0.36752 0.04800
H 	H 	0.00589 0.13147 0.30243 0.05600
H 	H 	0.18770 0.02995 0.34093 0.04900
H 	H 	0.20581 0.93557 0.36899 0.05000
H 	H 	0.07487 0.77266 0.38508 0.06200
Ni	Ni	0.46302 0.48517 0.03092 1.08500
O 	O 	0.41191 0.54980 0.99858 -0.64000
Ni	Ni	0.46080 0.61129 0.04382 1.08600
O 	O 	0.39652 0.42324 0.01704 -0.34900
O 	O 	0.31149 0.47210 0.99984 -0.29300
O 	O 	0.49506 0.47404 0.93300 -0.30000
Ni	Ni	0.32865 0.54892 0.03917 1.06100
O 	O 	0.60274 0.46646 0.00334 -0.40300
O 	O 	0.36455 0.52095 0.12875 -0.37000
O 	O 	0.40149 0.67261 0.02700 -0.39000
O 	O 	0.51619 0.54789 0.06397 -0.72200
O 	O 	0.52056 0.42700 0.06319 -0.35300
O 	O 	0.52511 0.66564 0.08388 -0.35700
O 	O 	0.60306 0.63357 0.01847 -0.40400
Ni	Ni	0.59329 0.54903 0.01239 1.06900
H 	H 	0.41053 0.55444 0.94834 0.17200
H 	H 	0.52643 0.54431 0.11291 0.18800
C 	C 	0.40721 0.55035 0.16199 0.25100
O 	O 	0.55054 0.55476 0.91991 -0.34900
C 	C 	0.33729 0.43030 0.02704 0.24700
C 	C 	0.34520 0.67016 0.05307 0.29400
C 	C 	0.51755 0.51365 0.89367 0.25600
C 	C 	0.58450 0.66089 0.07225 0.31500
C 	C 	0.58000 0.42906 0.04676 0.29900
O 	O 	0.42405 0.59944 0.14003 -0.33300
O 	O 	0.32247 0.62453 0.08047 -0.37500
Ni	Ni	0.54090 0.39093 0.44982 1.10300
O 	O 	0.48456 0.45485 0.43733 -0.70800
Ni	Ni	0.54121 0.51726 0.46460 1.10400
O 	O 	0.47202 0.33749 0.41754 -0.33500
O 	O 	0.40356 0.36902 0.49560 -0.38700
O 	O 	0.56694 0.40212 0.34938 -0.34100
Ni	Ni	0.41330 0.45366 0.49801 1.07400
O 	O 	0.67331 0.37697 0.39700 -0.38700
O 	O 	0.46690 0.44748 0.58330 -0.38300
O 	O 	0.48138 0.57605 0.44098 -0.34200
O 	O 	0.59525 0.45239 0.48847 -0.69200
O 	O 	0.60030 0.32855 0.45821 -0.33600
O 	O 	0.60907 0.57881 0.46963 -0.34100
O 	O 	0.69602 0.53094 0.47002 -0.37300
Ni	Ni	0.67321 0.45342 0.43614 1.08700
H 	H 	0.46957 0.45873 0.38995 0.17200
H 	H 	0.60238 0.44770 0.53808 0.17500
C 	C 	0.49979 0.48921 0.60771 0.26400
O 	O 	0.62802 0.48024 0.35211 -0.36300
C 	C 	0.41507 0.34047 0.44034 0.30800
C 	C 	0.42376 0.57349 0.46370 0.30700
C 	C 	0.58162 0.45099 0.32525 0.24800
C 	C 	0.66561 0.57201 0.44770 0.32100
C 	C 	0.65630 0.33288 0.43146 0.30500
O 	O 	0.52134 0.52827 0.56687 -0.33400
O 	O 	0.40555 0.53617 0.50946 -0.38700
C 	C 	0.51293 0.50777 0.81917 0.06300
N 	N 	0.53839 0.54659 0.77703 -0.05100
N 	N 	0.53515 0.54036 0.70932 -0.04700
C 	C 	0.50670 0.49500 0.68201 0.05700
N 	N 	0.48153 0.45619 0.72422 -0.05000
N 	N 	0.48462 0.46246 0.79178 -0.04500
C 	C 	0.44566 0.52446 0.21292 0.02900
N 	N 	0.44847 0.46951 0.21341 -0.07200
N 	N 	0.49410 0.44602 0.24632 -0.06200
C 	C 	0.53875 0.47679 0.27895 0.02900
N 	N 	0.53524 0.53164 0.27964 -0.06700
N 	N 	0.48932 0.55510 0.24730 -0.05700
C 	C 	0.38527 0.62092 0.45286 -0.09200
C 	C 	0.40518 0.67313 0.47624 0.20300
C 	C 	0.36880 0.71783 0.46388 -0.08800
C 	C 	0.31224 0.71106 0.42891 -0.00400
C 	C 	0.29213 0.65881 0.40601 0.15000
C 	C 	0.32870 0.61415 0.41794 -0.02800
H 	H 	0.38414 0.75773 0.48236 0.09400
H 	H 	0.31309 0.57419 0.39989 0.06800
Cl	Cl	0.47425 0.68282 0.52355 -0.27900
Cl	Cl	0.22052 0.64848 0.36374 -0.29200
C 	C 	0.78557 0.69719 0.36813 -0.01000
C 	C 	0.73234 0.71122 0.40434 0.14200
C 	C 	0.68979 0.67035 0.42625 -0.02200
C 	C 	0.69932 0.61584 0.41006 -0.10200
C 	C 	0.74643 0.60365 0.36318 0.20800
C 	C 	0.78943 0.64435 0.34284 -0.09300
H 	H 	0.65130 0.68066 0.45853 0.10000
H 	H 	0.82835 0.63406 0.31117 0.08900
Cl	Cl	0.71959 0.77958 0.42397 -0.30300
Cl	Cl	0.75306 0.53758 0.33037 -0.33700
C 	C 	0.77138 0.19570 0.40735 -0.01200
C 	C 	0.77704 0.24052 0.36290 0.14300
C 	C 	0.73608 0.28252 0.36825 -0.03800
C 	C 	0.69295 0.28352 0.42226 -0.08700
C 	C 	0.68936 0.23960 0.46918 0.19300
C 	C 	0.72734 0.19535 0.46016 -0.08600
H 	H 	0.73956 0.31565 0.33177 0.09900
H 	H 	0.72390 0.16148 0.49557 0.09200
Cl	Cl	0.83907 0.24718 0.30447 -0.31000
Cl	Cl	0.64121 0.24064 0.54188 -0.28400
C 	C 	0.27093 0.23672 0.35618 -0.00900
C 	C 	0.26377 0.29313 0.36092 0.14000
C 	C 	0.31136 0.32668 0.38837 -0.02800
C 	C 	0.36608 0.30447 0.41140 -0.10400
C 	C 	0.37404 0.24824 0.40469 0.20400
C 	C 	0.32693 0.21492 0.37595 -0.09200
H 	H 	0.30564 0.37008 0.39225 0.05300
H 	H 	0.33236 0.17144 0.37275 0.08900
Cl	Cl	0.19468 0.32203 0.33451 -0.31700
Cl	Cl	0.44056 0.21828 0.43702 -0.27900
C 	C 	0.23592 0.80742 0.09358 -0.00700
C 	C 	0.26425 0.80182 0.02899 0.11100
C 	C 	0.30254 0.75826 0.01677 -0.11000
C 	C 	0.31465 0.72127 0.06918 -0.07400
C 	C 	0.29150 0.73042 0.13553 0.18900
C 	C 	0.25081 0.77207 0.14677 -0.09200
H 	H 	0.32173 0.75262 0.96619 0.14000
H 	H 	0.22991 0.77634 0.19667 0.08000
Cl	Cl	0.25357 0.84970 0.96364 -0.22700
Cl	Cl	0.31488 0.69129 0.20567 -0.28600
C 	C 	0.71835 0.76857 0.16719 -0.00700
C 	C 	0.66813 0.78939 0.13147 0.14100
C 	C 	0.62379 0.75382 0.10165 -0.02100
C 	C 	0.62882 0.69755 0.10778 -0.11000
C 	C 	0.67541 0.67685 0.14920 0.19700
C 	C 	0.72005 0.71245 0.17870 -0.09300
H 	H 	0.58640 0.76989 0.07200 0.07700
H 	H 	0.75789 0.69632 0.20741 0.08300
Cl	Cl	0.66258 0.85997 0.12000 -0.31500
Cl	Cl	0.67812 0.60651 0.16481 -0.35700
C 	C 	0.68881 0.29005 0.08491 -0.03700
C 	C 	0.70566 0.34102 0.11434 0.15200
C 	C 	0.66949 0.38596 0.10217 -0.04500
C 	C 	0.61652 0.38078 0.06069 -0.07700
C 	C 	0.59936 0.32974 0.03174 0.13800
C 	C 	0.63530 0.28474 0.04423 -0.06900
H 	H 	0.68288 0.42499 0.12469 0.07700
H 	H 	0.62225 0.24586 0.02111 0.06900
Cl	Cl	0.77294 0.34963 0.16487 -0.29900
Cl	Cl	0.53455 0.32200 0.97727 -0.19300
C 	C 	0.21064 0.30401 0.09540 -0.03200
C 	C 	0.26368 0.29085 0.05826 0.14700
C 	C 	0.30687 0.33206 0.03879 -0.03900
C 	C 	0.29754 0.38628 0.05662 -0.08700
C 	C 	0.24730 0.39834 0.09937 0.18700
C 	C 	0.20448 0.35717 0.11860 -0.08100
H 	H 	0.34643 0.32216 0.00789 0.08900
H 	H 	0.16462 0.36699 0.14909 0.09500
Cl	Cl	0.27630 0.22301 0.03575 -0.32600
Cl	Cl	0.23668 0.46489 0.12872 -0.35900
