data_crystal

_cell_length_a 26.01943
_cell_length_b 27.10501
_cell_length_c 38.66598
_cell_angle_alpha 61.01121
_cell_angle_beta  118.71998
_cell_angle_gamma 133.06275

_symmetry_space_group_name_	'P 1'
_symmetry_space_group_name_H-M	'P 1'

loop_
_symmetry_equiv_pos_as_xyz
  x,y,z

loop_
_atom_site_label
_atom_site_type_symbol
_atom_site_fract_x
_atom_site_fract_y
_atom_site_fract_z
_atom_site_charge
Co	Co	0.02150 0.06020 0.09971 1.19200
O 	O 	0.03214 0.93323 0.59975 -0.74100
C 	C 	0.06046 0.04447 0.32843 -0.00500
C 	C 	0.06128 0.04956 0.29073 -0.04200
Co	Co	0.02465 0.87898 0.14524 1.19600
O 	O 	0.04995 0.98346 0.13301 -0.55700
O 	O 	0.02363 0.00449 0.51595 -0.38500
C 	C 	0.99948 0.98220 0.77352 -0.08800
Co	Co	0.98948 0.88061 0.63819 1.17600
O 	O 	0.01855 0.80550 0.61370 -0.37500
O 	O 	0.07106 0.92925 0.10886 -0.75200
C 	C 	0.05789 0.03581 0.40329 -0.00300
C 	C 	0.05779 0.03183 0.44094 -0.04400
Co	Co	0.04460 0.00994 0.57432 1.18400
O 	O 	0.03237 0.08477 0.55866 -0.45400
C 	C 	0.05236 0.01690 0.90785 0.00500
C 	C 	0.05509 0.00990 0.94710 -0.05100
C 	C 	0.00891 0.96828 0.46352 -0.01900
O 	O 	0.07076 0.08130 0.06181 -0.46100
C 	C 	0.01912 0.96027 0.50640 0.30400
H 	H 	0.09295 0.20775 0.19392 0.05200
Co	Co	0.07904 0.00321 0.07885 1.17500
C 	C 	0.07518 0.17530 0.12969 0.27100
C 	C 	0.04874 0.03184 0.82950 -0.02900
O 	O 	0.01715 0.90570 0.53365 -0.37700
C 	C 	0.04331 0.16768 0.63164 0.29500
C 	C 	0.04571 0.04022 0.78991 0.00800
H 	H 	0.03750 0.73551 0.69515 0.06100
C 	C 	0.00978 0.97497 0.38865 0.04100
Co	Co	0.09738 0.88599 0.09295 1.17000
H 	H 	0.07279 0.71219 0.20678 0.05900
O 	O 	0.05741 0.13310 0.62708 -0.38200
C 	C 	0.01514 0.97855 0.35234 0.04300
O 	O 	0.09358 0.15347 0.11664 -0.36100
H 	H 	0.09627 0.05406 0.96077 0.04600
O 	O 	0.01110 0.05043 0.20641 -0.40300
H 	H 	0.05564 0.63954 0.71318 0.07400
O 	O 	0.09526 0.85272 0.18921 -0.35700
O 	O 	0.07864 0.88577 0.68350 -0.36400
O 	O 	0.01985 0.78429 0.11857 -0.37400
O 	O 	0.00134 0.94944 0.22540 -0.35900
C 	C 	0.01890 0.98942 0.27706 -0.02200
O 	O 	0.98743 0.95989 0.71560 -0.39200
Co	Co	0.08788 0.91206 0.59025 1.17300
C 	C 	0.98199 0.99237 0.72927 0.31500
O 	O 	0.97946 0.04582 0.70505 -0.41700
C 	C 	0.00396 0.96467 0.85282 0.06200
O 	O 	0.97615 0.14280 0.62584 -0.40800
Co	Co	0.97691 0.05581 0.59570 1.17800
O 	O 	0.00680 0.14585 0.12491 -0.37200
O 	O 	0.02161 0.87981 0.03811 -0.36800
C 	C 	0.00815 0.99577 0.23431 0.30400
C 	C 	0.74321 0.30844 0.01978 0.09800
N 	N 	0.67129 0.27416 0.01407 -0.12000
C 	C 	0.64679 0.30269 0.01694 0.09900
N 	N 	0.69426 0.36675 0.02439 -0.11600
C 	C 	0.76634 0.40153 0.03014 0.09900
N 	N 	0.79107 0.37203 0.02835 -0.12400
C 	C 	0.69182 0.30926 0.51260 0.09900
N 	N 	0.73716 0.37973 0.50635 -0.11100
C 	C 	0.71659 0.41422 0.50636 0.09900
N 	N 	0.65075 0.37801 0.51284 -0.12900
C 	C 	0.60645 0.30748 0.52082 0.09900
N 	N 	0.62691 0.27309 0.52053 -0.12000
C 	C 	0.29317 0.65072 0.19795 0.10100
N 	N 	0.24262 0.59233 0.18366 -0.10800
C 	C 	0.25838 0.58051 0.16085 0.10100
N 	N 	0.32484 0.62701 0.15260 -0.12800
C 	C 	0.37592 0.68443 0.16770 0.10200
N 	N 	0.36016 0.69591 0.19057 -0.12000
C 	C 	0.25156 0.63218 0.71325 0.10100
N 	N 	0.32218 0.66927 0.71376 -0.11900
C 	C 	0.34477 0.64145 0.70824 0.10100
N 	N 	0.29651 0.57667 0.70166 -0.12400
C 	C 	0.22564 0.53995 0.70010 0.10100
N 	N 	0.20301 0.56755 0.70603 -0.11300
Co	Co	0.97001 0.93663 0.16729 1.18700
C 	C 	0.21639 0.03860 0.07856 0.24500
Co	Co	0.93628 0.04150 0.15126 1.15600
C 	C 	0.95357 0.76265 0.11181 0.24800
O 	O 	0.86650 0.02954 0.09475 -0.38600
O 	O 	0.98531 0.01410 0.14079 -0.78600
C 	C 	0.89238 0.06496 0.06216 0.26600
O 	O 	0.97301 0.85607 0.18227 -0.47600
C 	C 	0.82598 0.88733 0.16245 0.27700
C 	C 	0.14245 0.85434 0.18295 0.26300
O 	O 	0.93054 0.05452 0.05674 -0.38600
O 	O 	0.86069 0.93964 0.17778 -0.39400
O 	O 	0.85984 0.88535 0.14717 -0.38400
O 	O 	0.16735 0.89347 0.14968 -0.36000
O 	O 	0.17495 0.98332 0.06455 -0.36100
O 	O 	0.18805 0.06095 0.08251 -0.37800
O 	O 	0.94206 0.80060 0.11491 -0.38800
Co	Co	0.92493 0.92795 0.66102 1.19100
C 	C 	0.19457 0.06300 0.58778 0.27500
Co	Co	0.90182 0.03905 0.65119 1.16200
C 	C 	0.94871 0.77167 0.60816 0.24500
O 	O 	0.82997 0.03006 0.59515 -0.38000
O 	O 	0.93169 0.00191 0.63290 -0.77700
C 	C 	0.85246 0.07119 0.56120 0.26400
O 	O 	0.93349 0.85125 0.67504 -0.46300
C 	C 	0.78597 0.88659 0.66309 0.27500
C 	C 	0.12102 0.87887 0.67945 0.26400
O 	O 	0.90340 0.07985 0.55359 -0.37100
O 	O 	0.82681 0.93935 0.67928 -0.39000
O 	O 	0.81520 0.86771 0.65670 -0.36200
O 	O 	0.15159 0.91834 0.64850 -0.36600
O 	O 	0.16395 0.01696 0.56842 -0.40700
O 	O 	0.15462 0.06501 0.59795 -0.38700
O 	O 	0.92401 0.79279 0.61679 -0.36900
C 	C 	0.95230 0.88870 0.95134 -0.02500
C 	C 	0.94860 0.89522 0.91219 -0.06000
C 	C 	0.09916 0.08221 0.88511 -0.04500
C 	C 	0.09602 0.08992 0.84591 -0.02400
C 	C 	0.96491 0.90612 0.83794 -0.08900
C 	C 	0.96170 0.91515 0.79825 0.02600
H 	H 	0.91306 0.83927 0.96785 0.05100
H 	H 	0.90296 0.85240 0.89799 0.04700
H 	H 	0.13729 0.12753 0.89756 0.04700
H 	H 	0.13117 0.14124 0.82839 0.04000
H 	H 	0.93911 0.85394 0.85716 0.05400
H 	H 	0.92817 0.86992 0.78639 0.03200
H 	H 	0.07768 0.09200 0.77142 0.04100
C 	C 	0.98004 0.92375 0.30264 -0.02200
C 	C 	0.97924 0.91808 0.34038 -0.06700
C 	C 	0.10493 0.10453 0.34253 -0.03600
C 	C 	0.10509 0.09995 0.38011 -0.03700
C 	C 	0.95561 0.91340 0.40948 -0.06600
C 	C 	0.95639 0.90989 0.44701 -0.02100
H 	H 	0.94916 0.87693 0.29299 0.04300
H 	H 	0.95304 0.86695 0.36057 0.04700
H 	H 	0.09391 0.10033 0.27175 0.05000
H 	H 	0.14041 0.15494 0.32458 0.04300
H 	H 	0.14127 0.14676 0.39092 0.04600
H 	H 	0.91139 0.86920 0.39624 0.04800
H 	H 	0.91639 0.86138 0.46348 0.04700
H 	H 	0.09724 0.07749 0.45322 0.05300
C 	C 	0.14507 0.37409 0.69536 0.11500
C 	C 	0.15634 0.32375 0.70713 -0.08300
C 	C 	0.15322 0.30703 0.67664 0.00900
C 	C 	0.13587 0.33624 0.63602 0.12300
C 	C 	0.12515 0.38697 0.62434 -0.09000
C 	C 	0.12709 0.40275 0.65479 0.02700
O 	O 	0.17448 0.41446 0.72086 -0.19900
C 	C 	0.17382 0.47093 0.69162 0.10500
C 	C 	0.14547 0.46416 0.65216 -0.08300
O 	O 	0.10458 0.29510 0.61056 -0.18200
C 	C 	0.10172 0.23694 0.63972 0.03800
C 	C 	0.13174 0.24427 0.67916 -0.05100
H 	H 	0.16903 0.29983 0.73897 0.06700
H 	H 	0.11218 0.41073 0.59251 0.07600
H 	H 	0.15893 0.50766 0.62560 0.06900
H 	H 	0.11706 0.20089 0.70572 0.05500
C 	C 	0.60437 0.75958 0.66992 0.12000
C 	C 	0.55658 0.70015 0.69463 -0.09000
C 	C 	0.51774 0.70536 0.70669 0.02300
C 	C 	0.52221 0.76532 0.69283 0.11600
C 	C 	0.56864 0.82413 0.66738 -0.08400
C 	C 	0.60753 0.81908 0.65523 0.01300
O 	O 	0.66621 0.77157 0.67088 -0.18300
C 	C 	0.70714 0.84397 0.65625 0.04400
C 	C 	0.67241 0.87248 0.64661 -0.05000
O 	O 	0.46251 0.75462 0.69383 -0.19900
C 	C 	0.42103 0.68225 0.70844 0.10100
C 	C 	0.45338 0.65235 0.71621 -0.08500
H 	H 	0.55245 0.65268 0.70564 0.07200
H 	H 	0.57290 0.87165 0.65652 0.07300
H 	H 	0.69968 0.92604 0.64555 0.05700
H 	H 	0.42482 0.59854 0.71717 0.06900
C 	C 	0.20247 0.79210 0.74007 0.12000
C 	C 	0.25743 0.78904 0.74504 -0.09000
C 	C 	0.23773 0.72586 0.74561 0.02500
C 	C 	0.16631 0.67194 0.73482 0.11500
C 	C 	0.11117 0.67734 0.72635 -0.08300
C 	C 	0.13100 0.73580 0.73289 0.01500
O 	O 	0.21211 0.85497 0.72745 -0.18000
C 	C 	0.13978 0.83153 0.71154 0.04800
C 	C 	0.09118 0.76053 0.71482 -0.05900
O 	O 	0.15634 0.62724 0.72021 -0.19500
C 	C 	0.22880 0.66053 0.72284 0.10400
C 	C 	0.27743 0.71920 0.73781 -0.08600
H 	H 	0.31276 0.83525 0.74605 0.07500
H 	H 	0.33212 0.76044 0.73364 0.07100
C 	C 	0.15695 0.40656 0.16001 0.11600
C 	C 	0.14845 0.34337 0.18262 -0.08300
C 	C 	0.16317 0.31690 0.16784 0.01200
C 	C 	0.18078 0.34911 0.13076 0.12100
C 	C 	0.18975 0.41257 0.10826 -0.08900
C 	C 	0.17516 0.43912 0.12306 0.02500
O 	O 	0.17415 0.45102 0.17821 -0.19500
C 	C 	0.20713 0.51378 0.14951 0.10400
C 	C 	0.20727 0.50701 0.11637 -0.08500
O 	O 	0.16248 0.30421 0.11242 -0.18000
C 	C 	0.13004 0.24166 0.14138 0.04600
C 	C 	0.13109 0.24901 0.17468 -0.05800
H 	H 	0.13340 0.31699 0.21147 0.06900
H 	H 	0.20475 0.43891 0.07940 0.07400
H 	H 	0.24544 0.54850 0.09718 0.06600
C 	C 	0.56220 0.77349 0.18190 0.11600
C 	C 	0.62453 0.77673 0.20713 -0.08500
C 	C 	0.66125 0.77439 0.19136 0.01100
C 	C 	0.63912 0.77258 0.15131 0.12000
C 	C 	0.57460 0.76577 0.12671 -0.09000
C 	C 	0.53869 0.76912 0.14244 0.02400
O 	O 	0.50880 0.75019 0.19741 -0.19900
C 	C 	0.45047 0.72902 0.16394 0.10100
C 	C 	0.46759 0.73994 0.13101 -0.08500
O 	O 	0.69516 0.80368 0.13488 -0.18300
C 	C 	0.75315 0.82648 0.16828 0.04000
C 	C 	0.73304 0.80761 0.20224 -0.05500
H 	H 	0.64344 0.78025 0.23820 0.06900
H 	H 	0.55569 0.76253 0.09558 0.07300
H 	H 	0.42949 0.71149 0.10747 0.06600
H 	H 	0.76868 0.83452 0.22652 0.05600
C 	C 	0.21504 0.66782 0.24147 0.11600
C 	C 	0.15751 0.66672 0.23703 -0.08300
C 	C 	0.17372 0.72527 0.24092 0.01300
C 	C 	0.24291 0.78631 0.24286 0.12200
C 	C 	0.29993 0.78842 0.24540 -0.08900
C 	C 	0.28522 0.72671 0.24762 0.02600
O 	O 	0.20531 0.62501 0.22548 -0.19400
C 	C 	0.27596 0.66429 0.22213 0.10500
C 	C 	0.32380 0.72465 0.23531 -0.08500
O 	O 	0.24519 0.84588 0.22696 -0.18000
C 	C 	0.17104 0.81506 0.21497 0.05000
C 	C 	0.12819 0.74338 0.22337 -0.05700
H 	H 	0.10203 0.62420 0.22763 0.07400
H 	H 	0.35248 0.83760 0.24234 0.07700
H 	H 	0.37350 0.76998 0.22551 0.07200
C 	C 	0.74407 0.12904 0.51267 0.11800
C 	C 	0.69446 0.12616 0.52042 -0.09300
C 	C 	0.71725 0.18620 0.52626 0.02100
C 	C 	0.78278 0.24856 0.52024 0.11300
C 	C 	0.83142 0.25263 0.51076 -0.08600
C 	C 	0.81031 0.19174 0.50666 0.01000
O 	O 	0.74387 0.07120 0.52626 -0.19100
C 	C 	0.81675 0.10455 0.53004 0.04300
C 	C 	0.85617 0.17628 0.51742 -0.05800
O 	O 	0.78639 0.30642 0.51266 -0.19800
C 	C 	0.71576 0.27204 0.51421 0.10100
C 	C 	0.67417 0.20038 0.52230 -0.08600
H 	H 	0.64230 0.07746 0.52496 0.06700
H 	H 	0.88397 0.30127 0.50695 0.06800
H 	H 	0.91427 0.21112 0.52814 0.05800
H 	H 	0.61560 0.16575 0.51594 0.06600
C 	C 	0.84945 0.56536 0.54117 0.11400
C 	C 	0.89015 0.58668 0.57767 -0.08600
C 	C 	0.87414 0.61686 0.58828 0.01100
C 	C 	0.82475 0.63161 0.56217 0.11900
C 	C 	0.78479 0.61144 0.52534 -0.09200
C 	C 	0.79919 0.57931 0.51513 0.02200
O 	O 	0.83571 0.50913 0.53676 -0.19900
C 	C 	0.77016 0.48776 0.50759 0.10100
C 	C 	0.74910 0.53046 0.49380 -0.08700
O 	O 	0.83661 0.68560 0.56815 -0.18900
C 	C 	0.89900 0.70286 0.59970 0.04700
C 	C 	0.92137 0.66180 0.61202 -0.06200
H 	H 	0.93009 0.57647 0.59818 0.06800
H 	H 	0.74475 0.62156 0.50495 0.07000
H 	H 	0.69366 0.51405 0.48031 0.06400
H 	H 	0.97627 0.67725 0.62723 0.05100
C 	C 	0.48253 0.20483 0.58126 0.11400
C 	C 	0.43078 0.14375 0.60312 -0.08400
C 	C 	0.38187 0.14488 0.60846 0.00900
C 	C 	0.37706 0.20035 0.58772 0.12100
C 	C 	0.42535 0.25931 0.56315 -0.09100
C 	C 	0.48086 0.26185 0.56293 0.02400
O 	O 	0.52106 0.20536 0.56549 -0.20200
C 	C 	0.54242 0.26845 0.53590 0.09900
C 	C 	0.51587 0.30060 0.53315 -0.08700
O 	O 	0.30921 0.18252 0.58098 -0.18500
C 	C 	0.27349 0.11110 0.59873 0.04000
C 	C 	0.31633 0.08836 0.61522 -0.05200
H 	H 	0.42605 0.09608 0.61348 0.06600
H 	H 	0.41685 0.29926 0.54288 0.07300
H 	H 	0.53297 0.35343 0.51653 0.06500
H 	H 	0.29592 0.03545 0.61973 0.05000
C 	C 	0.76849 0.19495 0.02054 0.11300
C 	C 	0.75078 0.14362 0.00782 -0.08500
C 	C 	0.80746 0.14906 0.00629 0.00700
C 	C 	0.87901 0.20269 0.01777 0.11900
C 	C 	0.89620 0.25572 0.02886 -0.09200
C 	C 	0.83944 0.24811 0.03199 0.01900
O 	O 	0.71948 0.20757 0.01183 -0.20200
C 	C 	0.76845 0.27438 0.01868 0.09900
C 	C 	0.84030 0.29912 0.03073 -0.08600
O 	O 	0.92649 0.18527 0.03250 -0.19200
C 	C 	0.87677 0.11512 0.03124 0.03600
C 	C 	0.80602 0.09396 0.01454 -0.05300
H 	H 	0.69490 0.10062 0.99969 0.06500
H 	H 	0.95201 0.29811 0.03785 0.06800
H 	H 	0.88644 0.35318 0.02916 0.06400
H 	H 	0.75939 0.04033 0.02081 0.05500
C 	C 	0.83913 0.62692 0.06491 0.12000
C 	C 	0.82962 0.61076 0.03189 -0.09100
C 	C 	0.84511 0.56512 0.04005 0.02000
C 	C 	0.86357 0.53235 0.07918 0.11500
C 	C 	0.87145 0.54715 0.11221 -0.08600
C 	C 	0.85700 0.59362 0.10417 0.01100
O 	O 	0.85845 0.69091 0.06161 -0.19100
C 	C 	0.89285 0.69472 0.10223 0.04700
C 	C 	0.89057 0.63608 0.12784 -0.05800
O 	O 	0.84856 0.47047 0.08234 -0.20100
C 	C 	0.81738 0.46826 0.04140 0.10000
C 	C 	0.81523 0.52464 0.01599 -0.08500
H 	H 	0.81456 0.63584 0.00092 0.06900
H 	H 	0.88692 0.52230 0.14315 0.06700
H 	H 	0.92937 0.63590 0.15657 0.04900
H 	H 	0.77659 0.52379 0.98706 0.06400
C 	C 	0.39024 0.11295 0.07666 0.12200
C 	C 	0.42820 0.11221 0.06093 -0.09300
C 	C 	0.46875 0.17218 0.03316 0.02300
C 	C 	0.47714 0.23279 0.02420 0.11400
C 	C 	0.43870 0.23358 0.03959 -0.08400
C 	C 	0.39664 0.17295 0.06670 0.01000
O 	O 	0.32715 0.05257 0.08881 -0.19600
C 	C 	0.29474 0.08148 0.08357 0.04800
C 	C 	0.33590 0.15327 0.07064 -0.05600
O 	O 	0.54083 0.29280 0.01224 -0.19900
C 	C 	0.56984 0.26209 0.01519 0.10200
C 	C 	0.52715 0.19033 0.02751 -0.08600
H 	H 	0.42353 0.06537 0.06861 0.06800
H 	H 	0.44331 0.28041 0.03181 0.07100
H 	H 	0.31391 0.18324 0.05405 0.06000
H 	H 	0.54729 0.15890 0.04246 0.06700
C 	C 	0.02077 0.93396 0.01336 0.27800
O 	O 	0.01425 0.96672 0.02595 -0.36600
O 	O 	0.95837 0.95538 0.60639 -0.57700
C 	C 	0.00692 0.94524 0.96944 -0.01000
C 	C 	0.00187 0.95795 0.89117 0.03200
