data_crystal

_cell_length_a 26.79041
_cell_length_b 26.98074
_cell_length_c 26.54970
_cell_angle_alpha 95.53364
_cell_angle_beta  95.53635
_cell_angle_gamma 125.72388

_symmetry_space_group_name_	'P 1'
_symmetry_space_group_name_H-M	'P 1'

loop_
_symmetry_equiv_pos_as_xyz
  x,y,z

loop_
_atom_site_label
_atom_site_type_symbol
_atom_site_fract_x
_atom_site_fract_y
_atom_site_fract_z
_atom_site_charge
C 	C 	0.03437 0.06470 0.99859 -0.10300
C 	C 	0.05925 0.03149 0.00308 0.06400
C 	C 	0.03182 0.01300 0.42390 0.05900
C 	C 	0.99867 0.03820 0.41968 -0.09700
H 	H 	0.01934 0.08183 0.40632 0.05300
C 	C 	0.24036 0.06555 0.43931 -0.04900
C 	C 	0.14257 0.05502 0.44557 -0.04200
C 	C 	0.09613 0.04793 0.41316 -0.06300
H 	H 	0.21763 0.01873 0.44654 0.04000
H 	H 	0.10623 0.07068 0.37999 0.04500
C 	C 	0.14829 0.04018 0.97511 -0.05200
C 	C 	0.12707 0.06363 0.00599 -0.05500
C 	C 	0.97040 0.03520 0.99766 0.05200
C 	C 	0.90329 0.03326 0.42860 -0.06200
H 	H 	0.83361 0.06165 0.36816 0.04100
C 	C 	0.90343 0.06621 0.01761 -0.03800
C 	C 	0.94409 0.06968 0.98939 -0.06800
H 	H 	0.85294 0.07058 0.92549 0.04100
H 	H 	0.96024 0.10036 0.96150 0.04400
H 	H 	0.13252 0.03249 0.47886 0.03900
H 	H 	0.21367 0.06912 0.89758 0.03900
C 	C 	0.85186 0.09710 0.95813 -0.06000
H 	H 	0.89221 0.04066 0.04910 0.03900
C 	C 	0.93890 0.00707 0.43274 0.05900
C 	C 	0.87625 0.09977 0.00846 0.03400
C 	C 	0.21610 0.07104 0.97938 0.02000
H 	H 	0.85255 0.00143 0.41769 0.04400
C 	C 	0.84607 0.09795 0.39956 -0.04900
H 	H 	0.32802 0.08054 0.43628 0.03900
C 	C 	0.20710 0.09069 0.43550 0.02500
C 	C 	0.93201 0.09477 0.44207 -0.04300
H 	H 	0.77292 0.10372 0.36801 0.03900
H 	H 	0.15992 0.10792 0.03228 0.04500
H 	H 	0.06468 0.11336 0.99561 0.05300
N 	N 	0.53073 0.16147 0.60334 -0.12000
N 	N 	0.61002 0.17327 0.28830 -0.12200
C 	C 	0.33355 0.16212 0.42595 0.00300
C 	C 	0.29991 0.18679 0.42100 -0.03500
C 	C 	0.23714 0.15151 0.42624 -0.04800
C 	C 	0.30307 0.10077 0.43396 -0.03500
H 	H 	0.21228 0.17186 0.42417 0.04100
H 	H 	0.42839 0.17921 0.48860 0.08200
C 	C 	0.24254 0.08191 0.93491 -0.05000
C 	C 	0.30636 0.10937 0.93853 -0.03600
C 	C 	0.34415 0.12587 0.98671 -0.00100
C 	C 	0.31737 0.11365 0.03097 -0.03100
C 	C 	0.25370 0.08646 0.02740 -0.04300
C 	C 	0.41113 0.15298 0.99089 -0.00200
H 	H 	0.32623 0.11712 0.90390 0.03700
H 	H 	0.34595 0.12526 0.06817 0.03900
H 	H 	0.23341 0.07667 0.06180 0.04100
H 	H 	0.43006 0.13469 0.01442 0.04600
O 	O 	0.66490 0.19497 0.00926 -0.37000
C 	C 	0.82947 0.17131 0.43819 0.00000
C 	C 	0.81228 0.12249 0.39900 -0.03500
C 	C 	0.89599 0.12057 0.44052 0.02400
C 	C 	0.91376 0.17018 0.47917 -0.05100
H 	H 	0.98184 0.12591 0.45818 0.03800
H 	H 	0.74171 0.16099 0.44252 0.03200
C 	C 	0.82168 0.16094 0.99177 -0.00800
C 	C 	0.82546 0.12820 0.94987 -0.03200
C 	C 	0.87227 0.13234 0.05042 -0.05500
C 	C 	0.84561 0.16328 0.04214 -0.02400
C 	C 	0.79491 0.19474 0.98237 -0.00200
C 	C 	0.74931 0.18640 0.00645 -0.14100
H 	H 	0.80728 0.12629 0.91089 0.02900
H 	H 	0.89041 0.13421 0.08940 0.04300
H 	H 	0.84400 0.18941 0.07476 0.03900
H 	H 	0.73403 0.15697 0.03527 0.07800
C 	C 	0.79067 0.19357 0.43983 0.01000
H 	H 	0.95281 0.18875 0.51041 0.03800
C 	C 	0.40051 0.20063 0.42216 0.00900
C 	C 	0.71583 0.21247 0.99156 0.29500
C 	C 	0.88060 0.19535 0.47809 -0.03500
H 	H 	0.80843 0.22195 0.95197 0.02600
O 	O 	0.54204 0.21281 0.00648 -0.36300
H 	H 	0.56946 0.20493 0.73694 0.04100
C 	C 	0.56817 0.20254 0.63614 0.06900
H 	H 	0.62364 0.21617 0.16792 0.04900
C 	C 	0.63205 0.21646 0.26901 0.06900
C 	C 	0.44332 0.20573 0.45780 -0.14800
C 	C 	0.44973 0.20404 0.97147 -0.14600
H 	H 	0.57765 0.21546 0.91215 0.17400
H 	H 	0.43101 0.22381 0.94983 0.07300
H 	H 	0.41528 0.22831 0.39211 0.03500
Cu	Cu	0.67807 0.23320 0.89897 0.86500
H 	H 	0.89390 0.23273 0.50878 0.03200
H 	H 	0.32280 0.23381 0.41424 0.03700
O 	O 	0.64337 0.23584 0.83359 -0.41800
C 	C 	0.51815 0.23731 0.98301 0.29400
O 	O 	0.62129 0.24227 0.93159 -0.64300
Cu	Cu	0.63162 0.24429 0.00679 0.93000
H 	H 	0.11553 0.99906 0.94544 0.04100
C 	C 	0.02010 0.96868 0.00740 -0.09400
H 	H 	0.03974 0.94360 0.01291 0.05700
C 	C 	0.00319 0.95414 0.43714 -0.09700
H 	H 	0.02776 0.93341 0.43851 0.05500
Cu	Cu	0.63825 0.36471 0.03044 0.89700
C 	C 	0.65745 0.30505 0.11087 0.28400
C 	C 	0.65169 0.28647 0.82243 0.27900
O 	O 	0.62875 0.32848 0.09409 -0.37700
O 	O 	0.55536 0.29362 0.97338 -0.39700
O 	O 	0.65528 0.26188 0.08036 -0.35800
O 	O 	0.64771 0.32296 0.85603 -0.37200
Cu	Cu	0.64044 0.30472 0.50266 0.89700
Cu	Cu	0.61432 0.33738 0.40450 0.89400
C 	C 	0.69162 0.33908 0.33032 0.28600
C 	C 	0.67951 0.31260 0.61300 0.28100
O 	O 	0.64362 0.29458 0.43096 -0.64100
O 	O 	0.66029 0.35957 0.34583 -0.38300
O 	O 	0.55005 0.24853 0.49180 -0.38600
C 	C 	0.51087 0.24776 0.45686 0.31300
O 	O 	0.67538 0.41608 0.46736 -0.39900
O 	O 	0.53080 0.28852 0.42565 -0.39800
O 	O 	0.63940 0.30929 0.57691 -0.37300
H 	H 	0.62137 0.25100 0.41322 0.16900
C 	C 	0.65440 0.29650 0.76885 -0.06800
C 	C 	0.60891 0.24786 0.72840 -0.01200
C 	C 	0.61490 0.25383 0.67707 -0.00200
C 	C 	0.66726 0.30885 0.66594 -0.06800
C 	C 	0.67655 0.31441 0.16700 -0.06400
C 	C 	0.65154 0.26262 0.19110 -0.00900
C 	C 	0.65957 0.27042 0.24497 -0.00100
C 	C 	0.69278 0.33050 0.27504 -0.06300
C 	C 	0.95579 0.93856 0.00551 0.05500
C 	C 	0.93110 0.97193 0.00087 -0.08000
H 	H 	0.88130 0.94845 0.99874 0.04600
C 	C 	0.91115 0.94883 0.44705 -0.09800
C 	C 	0.94269 0.92181 0.44832 0.06100
H 	H 	0.86472 0.92419 0.45641 0.05400
Cu	Cu	0.66500 0.33267 0.93109 0.89600
O 	O 	0.68460 0.33962 0.00382 -0.63800
O 	O 	0.73478 0.25038 0.95859 -0.44400
O 	O 	0.71372 0.42137 0.93384 -0.38400
C 	C 	0.71575 0.46131 0.96855 0.30300
O 	O 	0.67671 0.44251 0.00142 -0.38800
H 	H 	0.72992 0.36655 0.01875 0.16800
Cu	Cu	0.74136 0.35660 0.43661 0.92900
Cu	Cu	0.74537 0.30113 0.53997 0.86700
O 	O 	0.76568 0.44387 0.44195 -0.36700
O 	O 	0.73351 0.35705 0.50990 -0.64100
O 	O 	0.79787 0.33123 0.43691 -0.37800
O 	O 	0.73793 0.25264 0.47892 -0.44500
C 	C 	0.73276 0.45956 0.46233 0.30300
O 	O 	0.73359 0.34155 0.36324 -0.35500
C 	C 	0.78044 0.27835 0.44991 0.31300
O 	O 	0.73387 0.32724 0.60445 -0.41900
H 	H 	0.75549 0.39851 0.53203 0.17400
C 	C 	0.71110 0.35858 0.70628 -0.01100
C 	C 	0.70485 0.35283 0.75758 -0.00200
H 	H 	0.75084 0.40131 0.69774 0.04000
C 	C 	0.75163 0.40419 0.79847 0.06800
N 	N 	0.78909 0.44533 0.83121 -0.12000
C 	C 	0.72178 0.38245 0.25116 -0.00800
C 	C 	0.71423 0.37477 0.19739 0.00100
H 	H 	0.74884 0.42882 0.27442 0.04500
C 	C 	0.74536 0.42900 0.17365 0.06400
N 	N 	0.77027 0.47241 0.15461 -0.12700
C 	C 	0.87687 0.75181 0.44348 0.02500
C 	C 	0.82420 0.69855 0.41081 -0.05000
C 	C 	0.80198 0.63953 0.42029 -0.03400
C 	C 	0.83272 0.63322 0.46230 0.00300
C 	C 	0.88502 0.68652 0.49532 -0.03600
C 	C 	0.90678 0.74562 0.48618 -0.04900
C 	C 	0.81455 0.57115 0.46831 0.01000
C 	C 	0.75496 0.52474 0.46973 -0.15100
C 	C 	0.90471 0.81333 0.42950 -0.04300
C 	C 	0.91246 0.85971 0.46185 -0.06400
H 	H 	0.80121 0.70287 0.37749 0.04100
H 	H 	0.76218 0.59867 0.39402 0.04000
H 	H 	0.90943 0.68215 0.52752 0.03600
H 	H 	0.94802 0.78649 0.51126 0.04100
H 	H 	0.84977 0.56289 0.46991 0.03600
H 	H 	0.72123 0.53455 0.47283 0.07400
H 	H 	0.91745 0.82029 0.39177 0.04100
H 	H 	0.89496 0.85138 0.49773 0.04500
C 	C 	0.81544 0.25337 0.43895 -0.15900
H 	H 	0.86276 0.28455 0.43184 0.07900
C 	C 	0.87256 0.76316 0.98543 0.02000
C 	C 	0.83644 0.71748 0.94077 -0.04900
C 	C 	0.79825 0.65462 0.94424 -0.03500
C 	C 	0.79716 0.63678 0.99240 -0.00000
C 	C 	0.83291 0.68252 0.03710 -0.03000
C 	C 	0.87086 0.74541 0.03365 -0.04300
C 	C 	0.75679 0.57040 0.99657 0.00000
C 	C 	0.75556 0.52764 0.96467 -0.14300
C 	C 	0.91465 0.82928 0.98115 -0.05200
C 	C 	0.91443 0.87259 0.01048 -0.05100
H 	H 	0.83757 0.73072 0.90341 0.04100
H 	H 	0.76934 0.61986 0.90959 0.04100
H 	H 	0.83191 0.66930 0.07446 0.03800
H 	H 	0.89944 0.78025 0.06832 0.04100
H 	H 	0.73057 0.55709 0.02772 0.04300
H 	H 	0.78474 0.54186 0.93549 0.08000
H 	H 	0.94364 0.84219 0.95184 0.04000
H 	H 	0.88120 0.85884 0.03634 0.04400
