data_crystal

_cell_length_a 22.74988
_cell_length_b 21.12709
_cell_length_c 48.56314
_cell_angle_alpha 89.85253
_cell_angle_beta  89.85681
_cell_angle_gamma 119.77789

_symmetry_space_group_name_	'P 1'
_symmetry_space_group_name_H-M	'P 1'

loop_
_symmetry_equiv_pos_as_xyz
  x,y,z

loop_
_atom_site_label
_atom_site_type_symbol
_atom_site_fract_x
_atom_site_fract_y
_atom_site_fract_z
_atom_site_charge
C 	C 	0.84589 0.48199 0.92689 0.33900
C 	C 	0.56222 0.36471 0.88533 0.31300
C 	C 	0.72356 0.54899 0.93490 0.31500
C 	C 	0.67804 0.29104 0.87415 0.29500
C 	C 	0.58035 0.35110 0.97814 0.35500
C 	C 	0.67685 0.25511 0.96606 0.33300
Ni	Ni	0.71312 0.43958 0.89458 1.11600
Ni	Ni	0.60224 0.29203 0.92568 1.12600
Ni	Ni	0.72036 0.41772 0.96030 1.13200
O 	O 	0.81480 0.50048 0.90780 -0.35900
O 	O 	0.81251 0.43734 0.94766 -0.34800
O 	O 	0.56419 0.29224 0.96353 -0.35400
O 	O 	0.62170 0.39682 0.87319 -0.36200
O 	O 	0.55771 0.34761 0.91140 -0.36500
O 	O 	0.69732 0.31963 0.97828 -0.34000
O 	O 	0.68706 0.50825 0.91457 -0.37100
O 	O 	0.75434 0.52541 0.95150 -0.34400
O 	O 	0.64498 0.23784 0.94207 -0.36800
O 	O 	0.72502 0.36128 0.87362 -0.35500
O 	O 	0.61805 0.26813 0.88626 -0.36400
O 	O 	0.63454 0.41304 0.97242 -0.37200
O 	O 	0.68917 0.37659 0.92515 -0.72100
H 	H 	0.71804 0.35460 0.92217 0.17300
C 	C 	0.77854 0.45486 0.54222 0.32100
C 	C 	0.62467 0.15008 0.57757 0.35000
C 	C 	0.59138 0.33128 0.53792 0.35000
C 	C 	0.80987 0.28168 0.58384 0.29900
C 	C 	0.57417 0.28873 0.62604 0.30900
C 	C 	0.76831 0.43531 0.63208 0.29200
Ni	Ni	0.70081 0.29210 0.54870 1.12500
Ni	Ni	0.69621 0.27796 0.61536 1.12400
Ni	Ni	0.67105 0.39911 0.58702 1.13100
O 	O 	0.77689 0.39308 0.53564 -0.34200
O 	O 	0.72426 0.45534 0.55248 -0.34000
O 	O 	0.59789 0.24383 0.62236 -0.36900
O 	O 	0.61847 0.19263 0.55956 -0.35000
O 	O 	0.66721 0.17822 0.59825 -0.36100
O 	O 	0.74884 0.46252 0.61166 -0.36400
O 	O 	0.63768 0.31967 0.52655 -0.33600
O 	O 	0.58781 0.33451 0.56467 -0.36600
O 	O 	0.72984 0.36653 0.64049 -0.37000
O 	O 	0.76883 0.25789 0.56209 -0.33300
O 	O 	0.79160 0.29943 0.60734 -0.36900
O 	O 	0.61228 0.35907 0.62102 -0.36500
O 	O 	0.70498 0.33374 0.58322 -0.72000
H 	H 	0.75378 0.36910 0.58400 0.16500
C 	C 	0.97833 0.10359 0.71241 0.30000
C 	C 	0.92964 0.90377 0.80709 0.30700
C 	C 	0.93960 0.10841 0.78720 0.31200
C 	C 	0.95715 0.87117 0.73152 0.29100
C 	C 	0.12003 0.10054 0.81158 0.31000
C 	C 	0.15674 0.07905 0.73495 0.28800
Ni	Ni	0.92134 0.97854 0.75598 1.11000
Ni	Ni	0.05637 0.97406 0.77407 1.11300
Ni	Ni	0.06596 0.12706 0.76101 1.12100
O 	O 	0.92494 0.05535 0.72715 -0.35800
O 	O 	0.04158 0.13159 0.72136 -0.38200
O 	O 	0.12898 0.05323 0.79719 -0.37800
O 	O 	0.89737 0.89385 0.78372 -0.37000
O 	O 	0.99601 0.94405 0.80808 -0.37700
O 	O 	0.15378 0.13033 0.74982 -0.37400
O 	O 	0.91453 0.03769 0.78859 -0.37000
O 	O 	0.99003 0.14827 0.77034 -0.36800
O 	O 	0.12427 0.00938 0.74290 -0.36800
O 	O 	0.92621 0.90942 0.72677 -0.36700
O 	O 	0.99061 0.87838 0.75487 -0.36800
O 	O 	0.08456 0.12880 0.80149 -0.38100
O 	O 	0.01546 0.02416 0.75750 -0.71900
H 	H 	0.02454 0.01932 0.73801 0.15800
C 	C 	0.42698 0.72754 0.37877 0.29100
C 	C 	0.16653 0.47008 0.40248 0.31300
C 	C 	0.24725 0.67375 0.35386 0.30800
C 	C 	0.33665 0.51530 0.42987 0.33000
C 	C 	0.18032 0.66417 0.43961 0.34400
C 	C 	0.35631 0.73333 0.46483 0.33500
Ni	Ni	0.29941 0.58273 0.38063 1.11700
Ni	Ni	0.25235 0.58231 0.44384 1.13100
Ni	Ni	0.30996 0.72771 0.40803 1.12700
O 	O 	0.40206 0.65621 0.37598 -0.34900
O 	O 	0.38630 0.75611 0.37964 -0.36200
O 	O 	0.17441 0.59930 0.43770 -0.36700
O 	O 	0.19528 0.51897 0.38303 -0.37000
O 	O 	0.19443 0.48132 0.42697 -0.34800
O 	O 	0.37497 0.75985 0.43955 -0.36300
O 	O 	0.28646 0.64516 0.35034 -0.36200
O 	O 	0.23832 0.69331 0.37839 -0.36800
O 	O 	0.30015 0.66957 0.46984 -0.34700
O 	O 	0.31297 0.50669 0.40417 -0.35400
O 	O 	0.32327 0.55203 0.44877 -0.34600
O 	O 	0.23852 0.72364 0.43426 -0.35300
O 	O 	0.30230 0.63462 0.41232 -0.72000
H 	H 	0.34820 0.64891 0.41879 0.16800
C 	C 	0.43146 0.59148 0.08732 0.33000
C 	C 	0.23046 0.69782 0.08908 0.31400
C 	C 	0.25560 0.50714 0.06584 0.32000
C 	C 	0.41568 0.79992 0.11228 0.28700
C 	C 	0.28757 0.66757 0.00801 0.34600
C 	C 	0.48151 0.78843 0.02741 0.32700
Ni	Ni	0.32575 0.64005 0.10094 1.11800
Ni	Ni	0.35544 0.76469 0.05508 1.12600
Ni	Ni	0.37722 0.63081 0.03929 1.12900
O 	O 	0.38212 0.58573 0.10389 -0.34600
O 	O 	0.44794 0.63034 0.06419 -0.35900
O 	O 	0.32833 0.73556 0.01554 -0.35900
O 	O 	0.26358 0.68466 0.10826 -0.36500
O 	O 	0.25505 0.71604 0.06400 -0.36500
O 	O 	0.44616 0.72053 0.01779 -0.34600
O 	O 	0.24620 0.55126 0.08192 -0.36400
O 	O 	0.31506 0.52844 0.05440 -0.36000
O 	O 	0.45305 0.81779 0.04298 -0.36300
O 	O 	0.39859 0.73287 0.12050 -0.35600
O 	O 	0.37982 0.81195 0.09340 -0.35700
O 	O 	0.30036 0.61541 0.01490 -0.36300
O 	O 	0.36559 0.68567 0.06746 -0.72100
H 	H 	0.41305 0.71382 0.07346 0.16100
C 	C 	0.05219 0.13128 0.25867 0.28900
C 	C 	0.98504 0.88111 0.18794 0.31900
C 	C 	0.01215 0.09741 0.18088 0.29900
C 	C 	0.02324 0.90070 0.26577 0.27800
C 	C 	0.81546 0.91290 0.19956 0.31400
C 	C 	0.84434 0.94614 0.27617 0.28200
Ni	Ni	0.05117 0.01751 0.22155 1.11700
Ni	Ni	0.90161 0.88088 0.23518 1.12300
Ni	Ni	0.92100 0.04008 0.22918 1.12700
O 	O 	0.08291 0.09295 0.25354 -0.35900
O 	O 	0.00762 0.13130 0.24105 -0.37500
O 	O 	0.84919 0.87745 0.20135 -0.37900
O 	O 	0.02128 0.95247 0.18665 -0.38300
O 	O 	0.95520 0.84841 0.21110 -0.37300
O 	O 	0.88502 0.01443 0.26781 -0.36700
O 	O 	0.06118 0.10288 0.19673 -0.36100
O 	O 	0.94870 0.06013 0.18897 -0.36300
O 	O 	0.83439 0.88847 0.26118 -0.37000
O 	O 	0.06004 0.93727 0.24386 -0.36800
O 	O 	0.95646 0.87416 0.26684 -0.36000
O 	O 	0.82764 0.96613 0.21660 -0.38900
O 	O 	0.96265 0.98247 0.23462 -0.72200
H 	H 	0.97184 0.98987 0.25450 0.15700
C 	C 	0.06450 0.25385 0.12784 0.00500
C 	C 	0.06366 0.30381 0.10924 -0.04600
C 	C 	0.11314 0.33112 0.08840 0.03000
C 	C 	0.15625 0.30162 0.08458 0.00100
C 	C 	0.15583 0.25043 0.10318 -0.03800
C 	C 	0.10829 0.22596 0.12465 0.02600
S 	S 	0.00183 0.19922 0.14879 0.04400
C 	C 	0.02871 0.13974 0.15529 -0.06700
C 	C 	0.08919 0.16233 0.14052 -0.01100
S 	S 	0.22552 0.36441 0.06868 0.10100
C 	C 	0.20433 0.42937 0.06545 -0.06600
C 	C 	0.13997 0.40255 0.07745 -0.00700
H 	H 	0.02926 0.32483 0.11206 0.06100
H 	H 	0.19155 0.23091 0.10110 0.07300
H 	H 	0.11850 0.13472 0.14152 0.05600
H 	H 	0.11903 0.43734 0.08243 0.06900
C 	C 	0.55566 0.89163 0.16521 -0.00200
C 	C 	0.58651 0.86693 0.18409 -0.04400
C 	C 	0.64601 0.86781 0.17608 0.02100
C 	C 	0.67475 0.89468 0.15031 0.01300
C 	C 	0.64727 0.92423 0.13214 -0.04800
C 	C 	0.58360 0.91597 0.13868 0.03700
S 	S 	0.47246 0.85200 0.16207 0.04900
C 	C 	0.46702 0.86123 0.12814 -0.05700
C 	C 	0.53376 0.90072 0.11818 -0.01900
S 	S 	0.75464 0.91309 0.15083 0.06700
C 	C 	0.75438 0.88278 0.18282 -0.07500
C 	C 	0.69045 0.86069 0.19451 -0.00900
H 	H 	0.56319 0.84475 0.20389 0.05300
H 	H 	0.67161 0.94739 0.11262 0.08400
H 	H 	0.54544 0.90548 0.09639 0.07300
H 	H 	0.68032 0.85120 0.21640 0.05000
C 	C 	0.09610 0.71786 0.13118 -0.00200
C 	C 	0.04259 0.70645 0.14852 -0.04100
C 	C 	0.01715 0.75472 0.14609 0.01000
C 	C 	0.04143 0.80829 0.12514 0.01000
C 	C 	0.09467 0.81848 0.10763 -0.05000
C 	C 	0.12015 0.77060 0.11048 0.02800
S 	S 	0.12414 0.66019 0.12527 0.05100
C 	C 	0.16936 0.70072 0.09667 -0.06100
C 	C 	0.16211 0.76191 0.09103 -0.01300
S 	S 	0.02715 0.87465 0.13506 0.04300
C 	C 	0.98716 0.83751 0.16479 -0.06700
C 	C 	0.98628 0.77104 0.16832 -0.00000
H 	H 	0.02446 0.66494 0.16445 0.05200
H 	H 	0.11538 0.86198 0.09247 0.06200
H 	H 	0.18922 0.80079 0.07472 0.05800
H 	H 	0.97444 0.74220 0.18783 0.05400
C 	C 	0.68185 0.90314 0.31674 0.00300
C 	C 	0.63144 0.91007 0.33068 -0.04900
C 	C 	0.59799 0.86189 0.35260 0.02700
C 	C 	0.61973 0.81358 0.36172 -0.00100
C 	C 	0.67011 0.80678 0.34760 -0.04300
C 	C 	0.70236 0.85390 0.32535 0.02400
S 	S 	0.74337 0.96723 0.29770 0.03800
C 	C 	0.79695 0.93423 0.29873 -0.06100
C 	C 	0.76653 0.87023 0.31476 -0.01600
S 	S 	0.55602 0.74612 0.37871 0.08900
C 	C 	0.50059 0.77618 0.37654 -0.06700
C 	C 	0.53075 0.84082 0.36092 -0.01200
H 	H 	0.61654 0.94894 0.32390 0.05600
H 	H 	0.68442 0.76715 0.35400 0.06600
H 	H 	0.78929 0.83648 0.31832 0.05500
H 	H 	0.50234 0.86477 0.35231 0.05600
C 	C 	0.05318 0.31089 0.35519 -0.00200
C 	C 	0.03998 0.29718 0.32699 -0.04700
C 	C 	0.07093 0.26375 0.31293 0.02000
C 	C 	0.11363 0.24462 0.32670 0.00200
C 	C 	0.12560 0.25591 0.35493 -0.05000
C 	C 	0.09855 0.29415 0.36880 0.02900
S 	S 	0.05786 0.38312 0.37056 0.06600
C 	C 	0.11502 0.39622 0.39470 -0.06200
C 	C 	0.13222 0.34133 0.39126 -0.01500
S 	S 	0.12388 0.18573 0.30742 0.05100
C 	C 	0.07885 0.18698 0.28027 -0.06800
C 	C 	0.05106 0.23150 0.28668 -0.01600
H 	H 	0.00817 0.31386 0.31626 0.05400
H 	H 	0.15927 0.24117 0.36525 0.06400
H 	H 	0.17682 0.34459 0.40064 0.06900
H 	H 	0.01215 0.23347 0.27451 0.05000
C 	C 	0.19231 0.77472 0.30256 0.00000
C 	C 	0.19531 0.84112 0.29645 -0.04800
C 	C 	0.13661 0.84602 0.30039 0.02200
C 	C 	0.07831 0.78742 0.31191 0.00500
C 	C 	0.07505 0.72088 0.31785 -0.04900
C 	C 	0.13397 0.71613 0.31418 0.02600
S 	S 	0.25833 0.76683 0.31226 0.04000
C 	C 	0.21675 0.68864 0.32999 -0.06800
C 	C 	0.14761 0.66749 0.32945 -0.01600
S 	S 	0.01236 0.79705 0.30357 0.04600
C 	C 	0.05474 0.87681 0.28676 -0.06600
C 	C 	0.12360 0.89663 0.28627 -0.01800
H 	H 	0.24125 0.88681 0.28832 0.05400
H 	H 	0.02922 0.67543 0.32617 0.06400
H 	H 	0.11076 0.62628 0.34314 0.06800
H 	H 	0.16066 0.93936 0.27309 0.05000
C 	C 	0.59491 0.07180 0.57134 -0.12400
C 	C 	0.61754 0.04940 0.54821 0.14300
C 	C 	0.57842 0.97816 0.53820 0.04800
C 	C 	0.51449 0.93158 0.54983 0.02700
C 	C 	0.49683 0.94997 0.57517 0.05100
C 	C 	0.53837 0.01973 0.58636 0.14500
C 	C 	0.46157 0.87480 0.53237 0.01500
C 	C 	0.42886 0.89556 0.51280 0.06600
C 	C 	0.39837 0.85165 0.48976 0.13300
C 	C 	0.39181 0.78154 0.48826 -0.10400
C 	C 	0.41893 0.75770 0.50935 0.12300
C 	C 	0.45402 0.80454 0.53137 0.07300
Br	Br	0.41355 0.88185 0.59328 -0.14700
Br	Br	0.70047 0.11630 0.52969 -0.18300
Br	Br	0.37106 0.89058 0.45941 -0.16400
Br	Br	0.49429 0.77399 0.55955 -0.13600
Br	Br	0.51894 0.04335 0.62222 -0.19000
Br	Br	0.60940 0.94598 0.50705 -0.14700
Br	Br	0.42885 0.98639 0.51703 -0.13300
Br	Br	0.41334 0.66368 0.50683 -0.14700
C 	C 	0.12168 0.66998 0.44960 -0.10900
C 	C 	0.05681 0.62221 0.43900 0.11300
C 	C 	0.99893 0.60491 0.45489 0.08700
C 	C 	0.00549 0.64383 0.47931 -0.00600
C 	C 	0.06855 0.70423 0.48579 0.07500
C 	C 	0.12747 0.71236 0.47305 0.12100
C 	C 	0.95156 0.61238 0.50064 0.02900
C 	C 	0.89120 0.61473 0.49726 0.06600
C 	C 	0.83325 0.56716 0.51272 0.12500
C 	C 	0.83840 0.52370 0.53370 -0.11000
C 	C 	0.90268 0.53491 0.54096 0.12300
C 	C 	0.95806 0.57436 0.52328 0.06800
Br	Br	0.07444 0.77138 0.51385 -0.14800
Br	Br	0.04763 0.58008 0.40301 -0.18800
Br	Br	0.74665 0.55715 0.50350 -0.13100
Br	Br	0.04007 0.56994 0.52845 -0.16100
Br	Br	0.21311 0.76904 0.49114 -0.14000
Br	Br	0.91235 0.52388 0.44462 -0.14300
Br	Br	0.88785 0.68172 0.47116 -0.13200
Br	Br	0.91314 0.49069 0.57400 -0.20900
C 	C 	0.54791 0.34838 0.52035 -0.11300
C 	C 	0.54539 0.41329 0.52457 0.13500
C 	C 	0.50775 0.43172 0.50663 0.06500
C 	C 	0.47291 0.38605 0.48435 0.02000
C 	C 	0.47476 0.32109 0.48022 0.07000
C 	C 	0.51068 0.30125 0.49863 0.12700
C 	C 	0.43250 0.40551 0.46585 0.01900
C 	C 	0.36458 0.38295 0.47247 0.06700
C 	C 	0.33090 0.41458 0.45888 0.12700
C 	C 	0.36577 0.47022 0.43921 -0.10900
C 	C 	0.43089 0.48662 0.43040 0.12500
C 	C 	0.46428 0.45417 0.44373 0.06700
Br	Br	0.42836 0.25964 0.44925 -0.13500
Br	Br	0.59340 0.47751 0.55479 -0.20200
Br	Br	0.23666 0.38047 0.46663 -0.17300
Br	Br	0.55452 0.47844 0.43256 -0.13400
Br	Br	0.50477 0.20724 0.49533 -0.13300
Br	Br	0.50372 0.51988 0.51255 -0.12300
Br	Br	0.31896 0.31125 0.50107 -0.14000
Br	Br	0.47443 0.55381 0.40038 -0.18800
C 	C 	0.99436 0.22805 0.64986 0.01300
C 	C 	0.98956 0.28358 0.63614 -0.03800
C 	C 	0.95168 0.26619 0.61182 0.02800
C 	C 	0.91913 0.19425 0.60179 0.00100
C 	C 	0.91682 0.13724 0.61747 -0.04200
C 	C 	0.95522 0.15482 0.64165 0.02500
S 	S 	0.00808 0.22862 0.68348 0.02400
C 	C 	0.96621 0.13863 0.68880 -0.05700
C 	C 	0.94069 0.10436 0.66355 -0.01800
S 	S 	0.85587 0.18449 0.58198 0.08500
C 	C 	0.86745 0.26880 0.58443 -0.05700
C 	C 	0.92291 0.30807 0.60190 -0.01000
H 	H 	0.00953 0.33698 0.64537 0.05100
H 	H 	0.88165 0.08092 0.61235 0.06500
H 	H 	0.91093 0.04575 0.66117 0.05500
H 	H 	0.93413 0.35969 0.61096 0.06700
C 	C 	0.29723 0.11583 0.67994 0.00600
C 	C 	0.35517 0.11431 0.67123 -0.04800
C 	C 	0.41361 0.18110 0.66564 0.03100
C 	C 	0.41527 0.24722 0.67108 -0.00400
C 	C 	0.35730 0.24879 0.67983 -0.04300
C 	C 	0.29851 0.18189 0.68516 0.02200
S 	S 	0.23385 0.05013 0.69794 0.05500
C 	C 	0.20364 0.10126 0.71138 -0.07000
C 	C 	0.24566 0.17383 0.70293 -0.01400
S 	S 	0.47882 0.31290 0.65303 0.06300
C 	C 	0.50646 0.26075 0.63830 -0.06100
C 	C 	0.46571 0.18885 0.64757 -0.01700
H 	H 	0.35407 0.06305 0.66788 0.06900
H 	H 	0.35842 0.30005 0.68318 0.05600
H 	H 	0.24341 0.21958 0.71180 0.05100
H 	H 	0.47118 0.14358 0.64056 0.07900
C 	C 	0.95322 0.72276 0.68270 0.00700
C 	C 	0.94034 0.68076 0.65889 -0.04800
C 	C 	0.90773 0.60462 0.66183 0.03000
C 	C 	0.88579 0.57206 0.68793 0.00100
C 	C 	0.88991 0.61378 0.71097 -0.04700
C 	C 	0.92541 0.68997 0.70825 0.02000
S 	S 	0.96521 0.80723 0.68315 0.04400
C 	C 	0.93698 0.80560 0.71509 -0.06700
C 	C 	0.91763 0.73716 0.72668 -0.01400
S 	S 	0.82494 0.48622 0.68317 0.04400
C 	C 	0.82670 0.48557 0.64875 -0.06000
C 	C 	0.87449 0.55599 0.63980 -0.01300
H 	H 	0.95132 0.70603 0.63868 0.06600
H 	H 	0.86256 0.58788 0.72974 0.05300
H 	H 	0.89724 0.72143 0.74732 0.05200
H 	H 	0.87725 0.57431 0.61874 0.07100
C 	C 	0.92029 0.52376 0.92828 -0.11700
C 	C 	0.95945 0.50134 0.91297 0.13700
C 	C 	0.02948 0.53342 0.91810 0.05600
C 	C 	0.06026 0.59013 0.93746 0.02400
C 	C 	0.02325 0.62120 0.94829 0.05000
C 	C 	0.95257 0.58330 0.94646 0.13700
C 	C 	0.12129 0.60155 0.95236 0.01600
C 	C 	0.11302 0.56442 0.97739 0.06300
C 	C 	0.16511 0.59237 0.99686 0.12800
C 	C 	0.22982 0.64984 0.98962 -0.11400
C 	C 	0.24008 0.68345 0.96347 0.12400
C 	C 	0.18540 0.65991 0.94504 0.07000
Br	Br	0.06904 0.71131 0.96848 -0.16600
Br	Br	0.91648 0.42391 0.88646 -0.17800
Br	Br	0.14547 0.55776 0.03429 -0.18600
Br	Br	0.19753 0.70862 0.91012 -0.15500
Br	Br	0.90082 0.60321 0.97290 -0.17500
Br	Br	0.08219 0.49674 0.90029 -0.15100
Br	Br	0.02878 0.47664 0.98543 -0.14700
Br	Br	0.32812 0.76180 0.95293 -0.14200
C 	C 	0.67790 0.19604 0.98192 -0.10200
C 	C 	0.72947 0.17891 0.97692 0.12000
C 	C 	0.72028 0.11034 0.98498 0.07000
C 	C 	0.66060 0.06029 0.99892 0.02600
C 	C 	0.61424 0.08207 0.00747 0.06600
C 	C 	0.62074 0.14789 0.99776 0.12500
C 	C 	0.64092 0.98216 0.00076 0.00700
C 	C 	0.59811 0.93369 0.98047 0.06700
C 	C 	0.55259 0.86070 0.98764 0.12300
C 	C 	0.54844 0.83821 0.01519 -0.10300
C 	C 	0.60291 0.88040 0.03275 0.12000
C 	C 	0.64889 0.95350 0.02581 0.06400
Br	Br	0.53947 0.01949 0.03131 -0.15500
Br	Br	0.81082 0.24790 0.95780 -0.15200
Br	Br	0.49990 0.79107 0.95983 -0.14600
Br	Br	0.71745 0.01604 0.05146 -0.15100
Br	Br	0.54717 0.16705 0.00321 -0.15100
Br	Br	0.78769 0.08372 0.97602 -0.13500
Br	Br	0.59716 0.96913 0.94398 -0.16900
Br	Br	0.61474 0.83710 0.06549 -0.18700
C 	C 	0.53894 0.34692 0.00210 -0.11200
C 	C 	0.48264 0.35673 0.99833 0.12700
C 	C 	0.45875 0.38076 0.02044 0.06600
C 	C 	0.48826 0.38967 0.04665 0.01800
C 	C 	0.53346 0.36388 0.05143 0.06900
C 	C 	0.56330 0.34857 0.02900 0.13000
C 	C 	0.48441 0.44015 0.06660 0.01600
C 	C 	0.53586 0.51404 0.06711 0.06300
C 	C 	0.52480 0.56458 0.08157 0.12500
C 	C 	0.46007 0.54312 0.09202 -0.11200
C 	C 	0.41612 0.46837 0.09733 0.12300
C 	C 	0.42732 0.41639 0.08384 0.06700
Br	Br	0.55913 0.35652 0.08857 -0.14000
Br	Br	0.44177 0.34236 0.96249 -0.17200
Br	Br	0.59733 0.66230 0.08743 -0.15300
Br	Br	0.36418 0.31375 0.08816 -0.16600
Br	Br	0.64397 0.34226 0.03474 -0.16000
Br	Br	0.38966 0.40683 0.01449 -0.16800
Br	Br	0.61808 0.54686 0.04609 -0.14900
Br	Br	0.34734 0.43812 0.12541 -0.19200
C 	C 	0.71717 0.15200 0.83704 0.00300
C 	C 	0.74977 0.11055 0.83699 -0.04300
C 	C 	0.79893 0.12592 0.81662 0.02500
C 	C 	0.81724 0.18391 0.79815 -0.00000
C 	C 	0.79251 0.23228 0.80111 -0.04300
C 	C 	0.74012 0.21423 0.82019 0.02300
S 	S 	0.67811 0.16241 0.86421 0.07200
C 	C 	0.68472 0.24191 0.85486 -0.06700
C 	C 	0.72212 0.26511 0.83031 -0.01000
S 	S 	0.89154 0.20485 0.78432 0.05500
C 	C 	0.90234 0.14073 0.80010 -0.06900
C 	C 	0.84627 0.10093 0.81753 -0.01200
H 	H 	0.73983 0.07060 0.85300 0.06700
H 	H 	0.81519 0.28357 0.78995 0.05600
H 	H 	0.74285 0.31987 0.82212 0.05500
H 	H 	0.83926 0.05494 0.82991 0.06000
C 	C 	0.26839 0.23316 0.85794 0.00600
C 	C 	0.33093 0.29821 0.85738 -0.04500
C 	C 	0.39000 0.29312 0.85722 0.02400
C 	C 	0.38612 0.22507 0.85631 0.00500
C 	C 	0.32450 0.16038 0.85887 -0.04600
C 	C 	0.26489 0.16457 0.85810 0.02600
S 	S 	0.19954 0.22292 0.84216 0.05200
C 	C 	0.16173 0.13322 0.83613 -0.07000
C 	C 	0.20421 0.10837 0.84657 -0.01200
S 	S 	0.46093 0.23576 0.86478 0.04400
C 	C 	0.50193 0.32653 0.86829 -0.07200
C 	C 	0.45520 0.35077 0.86430 -0.01000
H 	H 	0.33337 0.35071 0.85661 0.06100
H 	H 	0.32263 0.10813 0.85913 0.06100
H 	H 	0.19776 0.05538 0.84146 0.05500
H 	H 	0.46514 0.40478 0.86993 0.05500
C 	C 	0.80409 0.81138 0.86948 0.00600
C 	C 	0.74816 0.75405 0.88268 -0.05000
C 	C 	0.75880 0.72659 0.90737 0.02900
C 	C 	0.82458 0.75558 0.91808 -0.00300
C 	C 	0.88120 0.80676 0.90313 -0.04200
C 	C 	0.87046 0.83528 0.87878 0.02100
S 	S 	0.80787 0.82752 0.83573 0.03800
C 	C 	0.89160 0.86539 0.83196 -0.07400
C 	C 	0.92006 0.86728 0.85765 -0.01200
S 	S 	0.82513 0.69165 0.93781 0.08900
C 	C 	0.74403 0.62692 0.93468 -0.06600
C 	C 	0.71343 0.65493 0.91704 -0.01400
H 	H 	0.69900 0.72743 0.87284 0.05800
H 	H 	0.93174 0.81904 0.90894 0.06300
H 	H 	0.97329 0.88554 0.86064 0.05500
H 	H 	0.66438 0.62075 0.90774 0.06000
