data_crystal

_cell_length_a 26.24252
_cell_length_b 26.48038
_cell_length_c 30.78845
_cell_angle_alpha 95.43556
_cell_angle_beta  95.43485
_cell_angle_gamma 125.92216

_symmetry_space_group_name_	'P 1'
_symmetry_space_group_name_H-M	'P 1'

loop_
_symmetry_equiv_pos_as_xyz
  x,y,z

loop_
_atom_site_label
_atom_site_type_symbol
_atom_site_fract_x
_atom_site_fract_y
_atom_site_fract_z
_atom_site_charge
C 	C 	0.99578 0.06636 0.00449 0.09000
C 	C 	0.06139 0.09821 0.00447 -0.08800
C 	C 	0.08695 0.06419 0.00271 0.08100
C 	C 	0.04694 0.99853 0.00115 -0.08500
C 	C 	0.98177 0.96689 0.00193 0.09300
C 	C 	0.95654 0.00100 0.00483 -0.09400
H 	H 	0.09222 0.14899 0.00536 0.08400
H 	H 	0.06647 0.97207 0.99923 0.08100
H 	H 	0.90617 0.97650 0.00597 0.09000
C 	C 	0.91351 0.96845 0.44331 0.08400
C 	C 	0.97538 0.99744 0.43410 -0.07100
C 	C 	0.00336 0.96583 0.43548 0.07900
C 	C 	0.96804 0.90362 0.44341 -0.07600
C 	C 	0.90677 0.87474 0.45365 0.08000
C 	C 	0.87988 0.90758 0.45424 -0.08000
H 	H 	0.00251 0.04534 0.42737 0.07400
H 	H 	0.98912 0.87857 0.44326 0.08800
H 	H 	0.83320 0.88599 0.46321 0.08200
Cu	Cu	0.66937 0.27605 0.00608 0.93100
Cu	Cu	0.71311 0.27748 0.91033 0.87700
Cu	Cu	0.69871 0.37422 0.94758 0.90200
Cu	Cu	0.67511 0.39670 0.04030 0.91100
C 	C 	0.67578 0.31235 0.09768 0.28300
O 	O 	0.57612 0.23434 0.00882 -0.35900
C 	C 	0.67257 0.32789 0.85036 0.28500
O 	O 	0.71975 0.37478 0.00904 -0.63500
O 	O 	0.65568 0.28123 0.94291 -0.63900
O 	O 	0.71253 0.23468 0.00155 -0.35000
O 	O 	0.77825 0.30162 0.95889 -0.42600
O 	O 	0.68749 0.36781 0.09534 -0.35300
O 	O 	0.74626 0.46539 0.95617 -0.35900
C 	C 	0.74276 0.49959 0.98811 0.31300
C 	C 	0.55109 0.26456 0.00354 0.30700
O 	O 	0.58625 0.32238 0.99560 -0.37000
O 	O 	0.70005 0.47249 0.01402 -0.36900
O 	O 	0.69259 0.28696 0.06887 -0.33700
C 	C 	0.76673 0.26324 0.98690 0.30700
O 	O 	0.69175 0.37501 0.88315 -0.37100
O 	O 	0.66819 0.27741 0.85788 -0.40500
H 	H 	0.76640 0.40149 0.02071 0.18500
H 	H 	0.61037 0.25441 0.92755 0.18200
Cu	Cu	0.71174 0.30646 0.44365 0.93000
Cu	Cu	0.69824 0.25207 0.53661 0.89100
Cu	Cu	0.60169 0.26475 0.49388 0.90300
Cu	Cu	0.59374 0.30304 0.40651 0.90200
C 	C 	0.67429 0.29251 0.34975 0.28400
O 	O 	0.74811 0.39901 0.44576 -0.35100
C 	C 	0.63567 0.28269 0.59186 0.28800
O 	O 	0.61130 0.25277 0.43366 -0.63900
O 	O 	0.69664 0.31098 0.50528 -0.63700
O 	O 	0.75945 0.26918 0.44999 -0.35600
O 	O 	0.68748 0.19647 0.48712 -0.41200
O 	O 	0.64644 0.31946 0.35953 -0.36900
O 	O 	0.50942 0.21502 0.47877 -0.36600
C 	C 	0.47700 0.22000 0.44610 0.31400
C 	C 	0.71811 0.42162 0.45992 0.30100
O 	O 	0.65678 0.38243 0.46098 -0.36300
O 	O 	0.50580 0.26190 0.41991 -0.36600
O 	O 	0.70947 0.28889 0.38120 -0.35100
C 	C 	0.73476 0.21632 0.46553 0.30800
O 	O 	0.59080 0.26238 0.55665 -0.36300
O 	O 	0.68869 0.28910 0.58824 -0.39400
H 	H 	0.58557 0.20784 0.41858 0.17200
H 	H 	0.72069 0.35427 0.52311 0.19000
C 	C 	0.66442 0.33583 0.80413 -0.06400
C 	C 	0.71156 0.39244 0.79107 0.01000
C 	C 	0.71127 0.39600 0.74604 -0.04900
C 	C 	0.66357 0.34304 0.71361 0.02300
C 	C 	0.61313 0.28769 0.72668 0.02000
C 	C 	0.61384 0.28433 0.77198 -0.01500
C 	C 	0.56472 0.23522 0.69419 -0.04800
C 	C 	0.56910 0.23581 0.64929 0.01100
C 	C 	0.62205 0.28865 0.63650 -0.05800
C 	C 	0.66767 0.34327 0.66847 -0.01300
H 	H 	0.75025 0.43271 0.81571 0.05000
H 	H 	0.74935 0.43921 0.73640 0.05900
H 	H 	0.57662 0.24104 0.78212 0.05000
H 	H 	0.52494 0.19309 0.70375 0.05700
H 	H 	0.53322 0.19380 0.62469 0.04900
H 	H 	0.70796 0.38456 0.65846 0.05500
C 	C 	0.66082 0.28847 0.13925 -0.04800
C 	C 	0.59971 0.26198 0.14900 0.00900
C 	C 	0.58796 0.24990 0.19151 -0.04200
C 	C 	0.63760 0.26516 0.22494 0.02100
C 	C 	0.69837 0.28869 0.21467 0.02700
C 	C 	0.70949 0.29955 0.17156 -0.01100
C 	C 	0.74818 0.30462 0.24829 -0.04700
C 	C 	0.73908 0.30162 0.29231 0.01500
C 	C 	0.67994 0.28218 0.30307 -0.06000
C 	C 	0.62844 0.26100 0.26900 -0.01400
H 	H 	0.56181 0.25265 0.12396 0.05400
H 	H 	0.54088 0.23084 0.19885 0.06100
H 	H 	0.75660 0.31958 0.16382 0.06600
H 	H 	0.79463 0.32158 0.24067 0.06500
H 	H 	0.77890 0.31723 0.31826 0.05700
H 	H 	0.58229 0.24446 0.27714 0.04500
C 	C 	0.87059 0.80958 0.46308 -0.02000
C 	C 	0.89448 0.79607 0.49957 0.11100
C 	C 	0.86836 0.73304 0.50240 -0.06300
C 	C 	0.81721 0.68314 0.46984 0.01100
C 	C 	0.78894 0.69647 0.43607 0.10700
C 	C 	0.81625 0.75954 0.43247 -0.05000
H 	H 	0.88869 0.72291 0.52942 0.08400
C 	C 	0.79623 0.61765 0.46970 0.03000
H 	H 	0.79650 0.76963 0.40505 0.08700
C 	C 	0.75872 0.58309 0.50017 -0.08400
C 	C 	0.73673 0.52029 0.49947 0.14800
C 	C 	0.75013 0.49071 0.46672 -0.09400
C 	C 	0.79046 0.52650 0.43780 -0.01000
C 	C 	0.81428 0.58991 0.43962 0.08600
H 	H 	0.74697 0.60516 0.52460 0.09000
H 	H 	0.80222 0.50466 0.41319 0.07500
Br	Br	0.71367 0.62919 0.39430 -0.18600
Br	Br	0.96203 0.86302 0.54610 -0.20200
Br	Br	0.69323 0.47782 0.54564 -0.22200
Br	Br	0.87183 0.63805 0.40099 -0.18600
C 	C 	0.76324 0.18197 0.46165 -0.10200
C 	C 	0.76894 0.15373 0.49673 0.15400
C 	C 	0.79017 0.11640 0.49064 -0.08300
C 	C 	0.81196 0.11176 0.45169 0.02800
C 	C 	0.80951 0.14258 0.41753 0.08100
C 	C 	0.78409 0.17644 0.42231 -0.00500
H 	H 	0.79279 0.09346 0.51720 0.09200
C 	C 	0.83962 0.07662 0.44786 0.01700
H 	H 	0.78077 0.19863 0.39546 0.07100
C 	C 	0.80540 0.01774 0.41899 -0.07500
C 	C 	0.82953 0.98254 0.41655 0.12500
C 	C 	0.88653 0.00438 0.44531 -0.03300
C 	C 	0.92021 0.06290 0.47457 -0.04600
C 	C 	0.89807 0.09978 0.47506 0.09600
H 	H 	0.76052 0.99980 0.39790 0.09400
H 	H 	0.96445 0.08038 0.49634 0.07500
Br	Br	0.84270 0.14096 0.36488 -0.19000
Br	Br	0.75615 0.17183 0.55497 -0.27900
Br	Br	0.78628 0.90726 0.37178 -0.19700
Br	Br	0.94972 0.18283 0.51171 -0.19100
C 	C 	0.40705 0.18221 0.44160 -0.09500
C 	C 	0.37730 0.21185 0.44833 0.15200
C 	C 	0.31071 0.17489 0.44442 -0.08300
C 	C 	0.27350 0.10847 0.43481 0.03100
C 	C 	0.30315 0.07887 0.42781 0.08000
C 	C 	0.36968 0.11580 0.43129 -0.00800
H 	H 	0.28801 0.19775 0.45007 0.09000
C 	C 	0.20414 0.07034 0.43482 0.01000
H 	H 	0.39239 0.09284 0.42610 0.06000
C 	C 	0.16107 0.04955 0.39492 -0.06100
C 	C 	0.09522 0.01449 0.39459 0.10800
C 	C 	0.07221 0.00072 0.43461 -0.02500
C 	C 	0.11530 0.02117 0.47442 -0.05200
C 	C 	0.18097 0.05575 0.47469 0.10400
H 	H 	0.17877 0.06046 0.36414 0.08400
H 	H 	0.09768 0.01041 0.50524 0.08200
Br	Br	0.25363 0.98806 0.41430 -0.18400
Br	Br	0.42695 0.30238 0.46566 -0.19700
Br	Br	0.03743 0.98471 0.33917 -0.18800
Br	Br	0.23839 0.08248 0.52981 -0.19200
C 	C 	0.93972 0.89764 0.99863 -0.02700
C 	C 	0.91605 0.85709 0.95708 0.11400
C 	C 	0.88208 0.79170 0.95487 -0.06200
C 	C 	0.87099 0.76628 0.99380 0.01200
C 	C 	0.89296 0.80663 0.03526 0.10200
C 	C 	0.92718 0.87206 0.03747 -0.04900
H 	H 	0.86464 0.76062 0.92290 0.08600
C 	C 	0.83779 0.69766 0.99100 0.03000
H 	H 	0.94511 0.90320 0.06947 0.07800
C 	C 	0.87370 0.67427 0.99526 -0.08300
C 	C 	0.84310 0.60948 0.99402 0.14900
C 	C 	0.77581 0.56743 0.98790 -0.09400
C 	C 	0.73991 0.59079 0.98294 -0.00600
C 	C 	0.77055 0.65560 0.98448 0.08500
H 	H 	0.92550 0.70666 0.00025 0.09100
H 	H 	0.68810 0.55854 0.97803 0.07300
Br	Br	0.87704 0.77317 0.08913 -0.18400
Br	Br	0.93011 0.89033 0.90308 -0.17400
Br	Br	0.89417 0.57989 0.00298 -0.22000
Br	Br	0.71992 0.68600 0.97825 -0.18400
C 	C 	0.81038 0.24553 0.99634 -0.10000
C 	C 	0.80663 0.21315 0.03140 0.15100
C 	C 	0.83941 0.18637 0.03364 -0.08400
C 	C 	0.88103 0.19693 0.00425 0.03100
C 	C 	0.89065 0.23558 0.97283 0.07900
C 	C 	0.85448 0.25844 0.96833 -0.01300
H 	H 	0.83365 0.15851 0.05896 0.09200
C 	C 	0.91108 0.16407 0.00458 0.01200
H 	H 	0.86020 0.28566 0.94260 0.06100
C 	C 	0.89108 0.11543 0.96895 -0.06200
C 	C 	0.92078 0.08565 0.96751 0.11300
C 	C 	0.96792 0.10124 0.00358 -0.02600
C 	C 	0.98763 0.14957 0.03942 -0.04500
C 	C 	0.96035 0.18183 0.03967 0.09900
H 	H 	0.85371 0.10215 0.94166 0.08400
H 	H 	0.02444 0.16231 0.06697 0.07100
Br	Br	0.95385 0.25862 0.93622 -0.19200
Br	Br	0.76562 0.21282 0.08003 -0.19900
Br	Br	0.89962 0.02728 0.91464 -0.18100
Br	Br	0.99273 0.25152 0.08728 -0.18900
C 	C 	0.15611 0.09742 0.00422 -0.02400
C 	C 	0.18387 0.12094 0.96708 0.11200
C 	C 	0.24847 0.14759 0.96792 -0.06100
C 	C 	0.28512 0.14878 0.00483 0.01100
C 	C 	0.25721 0.12474 0.04176 0.10100
C 	C 	0.19331 0.10019 0.04156 -0.05300
H 	H 	0.26993 0.16631 0.93953 0.08600
C 	C 	0.35324 0.17726 0.00521 0.03100
H 	H 	0.17195 0.08157 0.07001 0.07400
C 	C 	0.40051 0.23757 0.03082 -0.08400
C 	C 	0.46531 0.26499 0.03233 0.15200
C 	C 	0.48335 0.23344 0.00596 -0.10300
C 	C 	0.43609 0.17273 0.98073 -0.00600
C 	C 	0.37120 0.14429 0.98056 0.08000
H 	H 	0.38683 0.26253 0.05045 0.09200
H 	H 	0.44970 0.14786 0.96093 0.06300
Br	Br	0.30485 0.12267 0.09200 -0.20400
Br	Br	0.13361 0.11411 0.91410 -0.18700
Br	Br	0.52818 0.34301 0.07329 -0.25600
Br	Br	0.30791 0.05998 0.94726 -0.19600
