data_crystal

_cell_length_a 26.08200
_cell_length_b 26.53296
_cell_length_c 34.56929
_cell_angle_alpha 95.51408
_cell_angle_beta  95.51270
_cell_angle_gamma 125.83447

_symmetry_space_group_name_	'P 1'
_symmetry_space_group_name_H-M	'P 1'

loop_
_symmetry_equiv_pos_as_xyz
  x,y,z

loop_
_atom_site_label
_atom_site_type_symbol
_atom_site_fract_x
_atom_site_fract_y
_atom_site_fract_z
_atom_site_charge
C 	C 	0.94087 0.00454 0.99123 0.04200
C 	C 	0.90081 0.94180 0.99673 -0.07500
C 	C 	0.92448 0.90634 0.99870 0.04700
C 	C 	0.98903 0.93429 0.99671 -0.08300
C 	C 	0.02937 0.99694 0.99094 0.05800
C 	C 	0.00503 0.03198 0.98787 -0.08400
H 	H 	0.85078 0.92008 0.99830 0.06100
H 	H 	0.00734 0.90676 0.99846 0.06200
H 	H 	0.03562 0.08002 0.98262 0.06100
C 	C 	0.96538 0.02616 0.45877 0.03100
C 	C 	0.02969 0.06229 0.45371 -0.07000
C 	C 	0.06377 0.03666 0.45516 0.03400
C 	C 	0.03285 0.97389 0.46007 -0.06600
C 	C 	0.96844 0.93719 0.46480 0.03700
C 	C 	0.93488 0.96362 0.46466 -0.06200
H 	H 	0.05370 0.11087 0.44981 0.05800
H 	H 	0.05924 0.95403 0.46100 0.05900
H 	H 	0.88562 0.93593 0.46941 0.05900
Cu	Cu	0.62298 0.22964 0.99976 0.92100
Cu	Cu	0.65755 0.22315 0.91204 0.87800
Cu	Cu	0.62896 0.32073 0.94937 0.91100
Cu	Cu	0.59828 0.32913 0.02992 0.89700
C 	C 	0.64398 0.27646 0.08283 0.29400
O 	O 	0.52716 0.17649 0.00138 -0.35000
C 	C 	0.64377 0.30365 0.87069 0.29600
O 	O 	0.65590 0.32428 0.00385 -0.63400
O 	O 	0.60452 0.23301 0.94336 -0.63300
O 	O 	0.68454 0.20763 0.99714 -0.37100
O 	O 	0.64694 0.15539 0.93315 -0.42100
O 	O 	0.60224 0.28858 0.07455 -0.38300
O 	O 	0.65909 0.40760 0.95644 -0.37200
C 	C 	0.65939 0.43877 0.98872 0.28200
C 	C 	0.49164 0.19397 0.98826 0.27500
O 	O 	0.51918 0.25307 0.98467 -0.38800
O 	O 	0.62075 0.40890 0.01363 -0.37600
O 	O 	0.65007 0.24248 0.05581 -0.35400
C 	C 	0.67804 0.16644 0.96870 0.29300
O 	O 	0.61245 0.31538 0.89282 -0.37100
O 	O 	0.68527 0.29545 0.88729 -0.42400
H 	H 	0.70210 0.35829 0.01460 0.16300
H 	H 	0.55862 0.20102 0.93095 0.16500
Cu	Cu	0.76754 0.36554 0.45773 0.92900
Cu	Cu	0.74334 0.30319 0.53698 0.86800
Cu	Cu	0.66799 0.34462 0.50693 0.89800
Cu	Cu	0.65451 0.37319 0.42671 0.89600
C 	C 	0.72246 0.34647 0.37498 0.29500
O 	O 	0.81032 0.45937 0.45956 -0.35700
C 	C 	0.69530 0.34710 0.59180 0.29100
O 	O 	0.66772 0.32088 0.45229 -0.63800
O 	O 	0.75849 0.37337 0.51352 -0.64100
O 	O 	0.80735 0.32052 0.46168 -0.36300
O 	O 	0.72797 0.24782 0.49085 -0.43500
O 	O 	0.70351 0.38177 0.38394 -0.38500
O 	O 	0.57778 0.31033 0.49947 -0.37800
C 	C 	0.54182 0.30116 0.46604 0.29300
C 	C 	0.78471 0.48645 0.47326 0.28200
O 	O 	0.72301 0.45161 0.47466 -0.38900
O 	O 	0.56732 0.33590 0.43880 -0.39000
O 	O 	0.76034 0.34430 0.40179 -0.35500
C 	C 	0.77482 0.26439 0.47148 0.29100
O 	O 	0.67095 0.36216 0.56383 -0.37400
O 	O 	0.73986 0.33932 0.58644 -0.41600
H 	H 	0.63707 0.27494 0.44130 0.16400
H 	H 	0.79009 0.41567 0.53048 0.18000
C 	C 	0.60815 0.31307 0.67843 -0.09200
C 	C 	0.66019 0.34338 0.71027 0.00400
C 	C 	0.72385 0.38126 0.70328 0.02800
C 	C 	0.73438 0.38576 0.66430 -0.01300
C 	C 	0.68241 0.35169 0.63219 -0.10400
C 	C 	0.61861 0.31621 0.63931 0.09900
C 	C 	0.64774 0.32925 0.75019 0.00200
C 	C 	0.78059 0.41339 0.73702 -0.17500
H 	H 	0.78324 0.41385 0.65884 0.04300
C 	C 	0.56165 0.28040 0.60545 -0.20800
H 	H 	0.55940 0.28495 0.68404 0.05600
C 	C 	0.64474 0.36949 0.77815 0.03000
C 	C 	0.64240 0.36003 0.81745 -0.01400
C 	C 	0.63982 0.30914 0.82854 -0.10500
C 	C 	0.63563 0.26497 0.79938 0.09200
C 	C 	0.64168 0.27656 0.76072 -0.08800
C 	C 	0.64533 0.42310 0.76644 -0.17700
H 	H 	0.64378 0.39293 0.83954 0.05000
C 	C 	0.62565 0.20601 0.80930 -0.19500
H 	H 	0.64231 0.24485 0.73886 0.05200
H 	H 	0.56062 0.31422 0.58946 0.09600
H 	H 	0.51534 0.25117 0.61597 0.07700
H 	H 	0.56466 0.24800 0.58464 0.07400
H 	H 	0.78193 0.37720 0.74972 0.06900
H 	H 	0.77685 0.44210 0.76049 0.06900
H 	H 	0.82691 0.44569 0.72714 0.06700
H 	H 	0.63574 0.44578 0.79045 0.07100
H 	H 	0.60745 0.40511 0.73993 0.07300
H 	H 	0.69300 0.45972 0.75961 0.07000
H 	H 	0.60732 0.16975 0.78219 0.06700
H 	H 	0.58960 0.18440 0.82884 0.04300
H 	H 	0.67204 0.21790 0.82425 0.05200
C 	C 	0.71514 0.34924 0.19124 -0.08800
C 	C 	0.69999 0.29627 0.20697 0.00400
C 	C 	0.67446 0.23881 0.18125 0.03100
C 	C 	0.65859 0.23353 0.14033 -0.01200
C 	C 	0.67018 0.28556 0.12479 -0.10000
C 	C 	0.70216 0.34483 0.15021 0.09600
C 	C 	0.70521 0.29980 0.25036 0.00300
C 	C 	0.66112 0.18223 0.19740 -0.17700
H 	H 	0.63528 0.18837 0.12074 0.05000
C 	C 	0.72045 0.40293 0.13397 -0.20100
H 	H 	0.73588 0.39364 0.21103 0.05600
C 	C 	0.76576 0.33179 0.27554 0.03200
C 	C 	0.77058 0.34440 0.31667 -0.01100
C 	C 	0.71541 0.32338 0.33287 -0.10000
C 	C 	0.65415 0.28545 0.30786 0.09400
C 	C 	0.64972 0.27549 0.26671 -0.08800
C 	C 	0.82561 0.35517 0.25865 -0.17700
H 	H 	0.81748 0.37247 0.33593 0.05300
C 	C 	0.59361 0.25768 0.32477 -0.20000
H 	H 	0.60314 0.24985 0.24732 0.05500
H 	H 	0.75830 0.44691 0.15554 0.07300
H 	H 	0.67754 0.40228 0.12741 0.06800
H 	H 	0.73996 0.40475 0.10652 0.06200
H 	H 	0.61732 0.16078 0.21075 0.07000
H 	H 	0.70256 0.19654 0.22024 0.07100
H 	H 	0.65333 0.14569 0.17375 0.07100
H 	H 	0.86617 0.36812 0.28176 0.07300
H 	H 	0.84027 0.39759 0.24586 0.07100
H 	H 	0.81659 0.31772 0.23522 0.07200
H 	H 	0.58658 0.29458 0.33247 0.06400
H 	H 	0.59662 0.23906 0.35166 0.06100
H 	H 	0.55064 0.21768 0.30316 0.07100
C 	C 	0.89232 0.65487 0.45727 -0.04300
C 	C 	0.87374 0.68416 0.48250 0.02700
C 	C 	0.83360 0.65080 0.50891 -0.06000
C 	C 	0.80939 0.58771 0.50896 0.02500
C 	C 	0.82244 0.55632 0.48076 -0.08200
C 	C 	0.86614 0.59106 0.45623 0.01000
C 	C 	0.89348 0.74867 0.47999 0.00600
C 	C 	0.86813 0.75809 0.44614 -0.03600
C 	C 	0.89065 0.81928 0.44133 -0.01600
C 	C 	0.93717 0.87167 0.47144 0.00000
C 	C 	0.95970 0.86179 0.50631 -0.03600
C 	C 	0.93892 0.80083 0.51048 -0.02000
C 	C 	0.86815 0.82813 0.40462 0.08600
C 	C 	0.96603 0.79250 0.54553 0.08300
C 	C 	0.93795 0.68989 0.43224 0.09200
C 	C 	0.77311 0.55625 0.53885 0.07200
N 	N 	0.85013 0.83506 0.37514 -0.10400
N 	N 	0.98773 0.78579 0.57359 -0.11200
N 	N 	0.74408 0.53105 0.56278 -0.11000
N 	N 	0.97451 0.71799 0.41219 -0.11300
H 	H 	0.87796 0.56785 0.43531 0.04600
H 	H 	0.82097 0.67389 0.52927 0.05600
H 	H 	0.83251 0.71789 0.42291 0.05000
H 	H 	0.99532 0.90197 0.52955 0.04800
C 	C 	0.92959 0.14070 0.49191 -0.01800
C 	C 	0.87653 0.12058 0.46253 0.00400
C 	C 	0.85175 0.06841 0.43235 -0.03600
C 	C 	0.87967 0.03655 0.43102 -0.02400
C 	C 	0.93185 0.05582 0.46092 0.00200
C 	C 	0.95591 0.10742 0.49145 -0.03800
C 	C 	0.84654 0.15395 0.46319 0.02900
C 	C 	0.85535 0.19164 0.43494 -0.06400
C 	C 	0.82986 0.22580 0.43611 0.02900
C 	C 	0.79756 0.22459 0.46708 -0.09100
C 	C 	0.78710 0.18511 0.49454 0.01100
C 	C 	0.81013 0.14892 0.49220 -0.04500
C 	C 	0.83410 0.25895 0.40433 0.07900
C 	C 	0.79589 0.10644 0.51960 0.08900
C 	C 	0.95818 0.19629 0.52209 0.08300
C 	C 	0.85610 0.98584 0.39813 0.09200
N 	N 	0.83752 0.28540 0.37881 -0.10600
N 	N 	0.78453 0.07242 0.54153 -0.11800
N 	N 	0.83714 0.94530 0.37169 -0.10500
N 	N 	0.98104 0.24081 0.54627 -0.11500
H 	H 	0.99632 0.12265 0.51429 0.04700
H 	H 	0.81122 0.05314 0.40961 0.04700
H 	H 	0.88177 0.19407 0.41188 0.05500
H 	H 	0.76134 0.18286 0.51795 0.02200
C 	C 	0.24300 0.15727 0.49083 -0.02000
C 	C 	0.26696 0.15140 0.45716 0.00500
C 	C 	0.22400 0.10897 0.42247 -0.03900
C 	C 	0.15742 0.07199 0.42121 -0.01500
C 	C 	0.13351 0.07730 0.45506 -0.00200
C 	C 	0.17650 0.12030 0.48958 -0.03600
C 	C 	0.33711 0.18923 0.45812 0.02700
C 	C 	0.37022 0.16492 0.46995 -0.06300
C 	C 	0.43700 0.20083 0.47245 0.02400
C 	C 	0.47130 0.26203 0.46312 -0.08400
C 	C 	0.43788 0.28600 0.45088 0.01400
C 	C 	0.37110 0.24993 0.44829 -0.04400
C 	C 	0.46969 0.17398 0.48375 0.06100
C 	C 	0.33780 0.27569 0.43585 0.09200
C 	C 	0.28643 0.20101 0.52677 0.08300
C 	C 	0.11397 0.02898 0.38509 0.07800
N 	N 	0.49589 0.15250 0.49283 -0.12600
N 	N 	0.31107 0.29629 0.42589 -0.11400
N 	N 	0.07910 0.99448 0.35616 -0.10300
N 	N 	0.32127 0.23607 0.55554 -0.11400
H 	H 	0.15807 0.12444 0.51559 0.04600
H 	H 	0.24248 0.10476 0.39651 0.04900
H 	H 	0.34394 0.11808 0.47735 0.05300
H 	H 	0.46402 0.33304 0.44379 0.04200
C 	C 	0.83568 0.75234 0.03590 -0.02900
C 	C 	0.80242 0.70801 0.00008 0.02600
C 	C 	0.80648 0.72907 0.96406 -0.05400
C 	C 	0.84522 0.79385 0.96335 -0.00700
C 	C 	0.88021 0.83818 0.99907 -0.01700
C 	C 	0.87454 0.81720 0.03520 -0.01900
C 	C 	0.76640 0.63950 0.99974 0.01800
C 	C 	0.69958 0.60212 0.99762 -0.05900
C 	C 	0.66390 0.53641 0.99429 0.02600
C 	C 	0.69557 0.50779 0.99346 -0.08200
C 	C 	0.76251 0.54537 0.99607 0.01000
C 	C 	0.79804 0.61096 0.99920 -0.04800
C 	C 	0.59471 0.49857 0.99023 0.07700
C 	C 	0.86692 0.64868 0.00149 0.10000
C 	C 	0.83071 0.73157 0.07339 0.09100
C 	C 	0.84962 0.81457 0.92585 0.08000
N 	N 	0.53929 0.46828 0.98698 -0.10900
N 	N 	0.92209 0.67896 0.00334 -0.11400
N 	N 	0.85320 0.83125 0.89584 -0.10700
N 	N 	0.82671 0.71487 0.10341 -0.11200
H 	H 	0.90100 0.85138 0.06269 0.04800
H 	H 	0.78048 0.69490 0.93654 0.05300
H 	H 	0.67528 0.62415 0.99786 0.05400
H 	H 	0.78687 0.52340 0.99550 0.02800
C 	C 	0.87514 0.09378 0.01990 -0.01300
C 	C 	0.84246 0.08801 0.98287 -0.00400
C 	C 	0.84872 0.06146 0.94825 -0.03800
C 	C 	0.88440 0.03754 0.95044 -0.01400
C 	C 	0.91451 0.04051 0.98762 -0.01100
C 	C 	0.91118 0.07025 0.02206 -0.02700
C 	C 	0.80005 0.10803 0.98015 0.03200
C 	C 	0.82677 0.17142 0.97897 -0.06600
C 	C 	0.78742 0.19118 0.97577 0.02900
C 	C 	0.72043 0.14705 0.97374 -0.09300
C 	C 	0.69369 0.08365 0.97498 0.01800
C 	C 	0.73316 0.06395 0.97834 -0.05400
C 	C 	0.81592 0.25652 0.97372 0.05200
C 	C 	0.70477 0.99855 0.98002 0.10000
C 	C 	0.87057 0.12233 0.05586 0.08600
C 	C 	0.88855 0.00853 0.91450 0.07600
N 	N 	0.83873 0.30884 0.97206 -0.12400
N 	N 	0.68210 0.94617 0.98137 -0.11700
N 	N 	0.89190 0.98525 0.88575 -0.10300
N 	N 	0.86686 0.14520 0.08464 -0.11100
H 	H 	0.93467 0.07290 0.05065 0.05000
H 	H 	0.82453 0.05808 0.91971 0.04700
H 	H 	0.87820 0.20528 0.98035 0.05500
H 	H 	0.64220 0.04967 0.97329 0.03300
C 	C 	0.32412 0.08073 0.00753 -0.03700
C 	C 	0.28866 0.08863 0.97855 0.01800
C 	C 	0.31813 0.12173 0.94867 -0.05900
C 	C 	0.38346 0.15038 0.94898 0.02600
C 	C 	0.42070 0.14880 0.98063 -0.09000
C 	C 	0.39003 0.11121 0.00860 0.01600
C 	C 	0.22204 0.06613 0.98081 0.00700
C 	C 	0.21177 0.09611 0.01147 -0.03700
C 	C 	0.14923 0.07491 0.01469 -0.00200
C 	C 	0.09626 0.02449 0.98612 -0.02800
C 	C 	0.10684 0.99612 0.95462 -0.01300
C 	C 	0.16916 0.01588 0.95220 -0.03800
C 	C 	0.13969 0.10384 0.04801 0.07900
C 	C 	0.17827 0.98325 0.92090 0.09400
C 	C 	0.29335 0.04200 0.03646 0.09100
C 	C 	0.41176 0.18056 0.91649 0.06700
N 	N 	0.13201 0.12701 0.07470 -0.11000
N 	N 	0.18561 0.95714 0.89583 -0.11400
N 	N 	0.43448 0.20473 0.89047 -0.11400
N 	N 	0.26866 0.01096 0.05963 -0.11400
H 	H 	0.41801 0.10811 0.03227 0.04400
H 	H 	0.29040 0.12598 0.92553 0.05500
H 	H 	0.25249 0.13525 0.03323 0.05100
H 	H 	0.06621 0.95739 0.93261 0.04600
