data_crystal

_cell_length_a 20.04416
_cell_length_b 20.61001
_cell_length_c 34.83439
_cell_angle_alpha 95.46435
_cell_angle_beta  95.46386
_cell_angle_gamma 126.12508

_symmetry_space_group_name_	'P 1'
_symmetry_space_group_name_H-M	'P 1'

loop_
_symmetry_equiv_pos_as_xyz
  x,y,z

loop_
_atom_site_label
_atom_site_type_symbol
_atom_site_fract_x
_atom_site_fract_y
_atom_site_fract_z
_atom_site_charge
N 	N 	0.01812 0.95093 0.98465 -0.13000
C 	C 	0.06545 0.03299 0.98694 0.12600
N 	N 	0.02937 0.07167 0.98974 -0.13400
N 	N 	0.99550 0.92698 0.45985 -0.13500
C 	C 	0.03754 0.00715 0.45831 0.13200
N 	N 	0.99667 0.04098 0.45793 -0.14300
Cu	Cu	0.62351 0.21931 0.00682 0.92900
Cu	Cu	0.67510 0.22026 0.92046 0.87000
Cu	Cu	0.66290 0.34679 0.95663 0.89800
Cu	Cu	0.64352 0.37873 0.03867 0.89700
C 	C 	0.66503 0.28203 0.08968 0.29000
O 	O 	0.50592 0.18130 0.01182 -0.36400
C 	C 	0.62630 0.29245 0.87005 0.28500
O 	O 	0.69770 0.34660 0.00999 -0.64000
O 	O 	0.60343 0.22678 0.95136 -0.64100
O 	O 	0.66915 0.15647 0.99930 -0.37300
O 	O 	0.75789 0.24123 0.96167 -0.44200
O 	O 	0.62988 0.31827 0.08236 -0.38200
O 	O 	0.72833 0.46429 0.96410 -0.38600
C 	C 	0.72616 0.51157 0.99147 0.31900
C 	C 	0.47670 0.21997 0.99934 0.30500
O 	O 	0.52881 0.29649 0.99548 -0.39600
O 	O 	0.70150 0.48907 0.02479 -0.39400
O 	O 	0.66114 0.23151 0.06159 -0.36000
C 	C 	0.73785 0.18798 0.98462 0.31300
O 	O 	0.64017 0.34619 0.90009 -0.37800
O 	O 	0.61831 0.22583 0.87530 -0.41900
H 	H 	0.75930 0.37942 0.01887 0.16900
H 	H 	0.54378 0.19338 0.93812 0.17600
Cu	Cu	0.75621 0.34534 0.45810 0.92600
Cu	Cu	0.74783 0.28595 0.54276 0.87100
Cu	Cu	0.61990 0.30063 0.50640 0.89800
Cu	Cu	0.59633 0.33368 0.42620 0.89700
C 	C 	0.69580 0.31302 0.37505 0.28800
O 	O 	0.80113 0.46408 0.45648 -0.35600
C 	C 	0.67419 0.33370 0.59320 0.28600
O 	O 	0.62455 0.27521 0.45265 -0.63800
O 	O 	0.74376 0.35871 0.51328 -0.64200
O 	O 	0.81359 0.29202 0.46391 -0.36900
O 	O 	0.72252 0.20531 0.50040 -0.44000
O 	O 	0.65946 0.34805 0.38278 -0.38200
O 	O 	0.49867 0.23678 0.49680 -0.38300
C 	C 	0.45170 0.23328 0.46619 0.31400
C 	C 	0.75952 0.49176 0.46741 0.29900
O 	O 	0.68159 0.44014 0.47174 -0.39400
O 	O 	0.48455 0.28338 0.44111 -0.39300
O 	O 	0.74717 0.31533 0.40291 -0.36000
O 	O 	0.61482 0.31124 0.56293 -0.38100
O 	O 	0.74227 0.34035 0.58827 -0.41900
H 	H 	0.59028 0.21599 0.44166 0.16500
H 	H 	0.77731 0.41595 0.52757 0.17600
C 	C 	0.57270 0.25126 0.75942 -0.06300
C 	C 	0.61999 0.33107 0.75172 0.01900
C 	C 	0.66053 0.39787 0.78304 -0.06100
C 	C 	0.65855 0.38514 0.82181 0.01000
C 	C 	0.61573 0.30542 0.82958 -0.08500
C 	C 	0.57020 0.23848 0.79810 0.01100
C 	C 	0.63454 0.34459 0.71144 0.01900
H 	H 	0.69605 0.45970 0.77741 0.04700
H 	H 	0.69324 0.43738 0.84574 0.03900
H 	H 	0.53503 0.17656 0.80360 0.03300
H 	H 	0.54061 0.19920 0.73549 0.04400
C 	C 	0.71661 0.38846 0.70379 -0.06200
C 	C 	0.72987 0.38944 0.66511 0.01100
C 	C 	0.66111 0.34567 0.63360 -0.08500
C 	C 	0.57928 0.30645 0.64131 0.01000
C 	C 	0.56614 0.30611 0.68005 -0.06100
H 	H 	0.76996 0.41902 0.72778 0.04400
H 	H 	0.79349 0.42198 0.65968 0.03300
H 	H 	0.52561 0.27341 0.61738 0.04100
H 	H 	0.50260 0.27334 0.68564 0.04700
C 	C 	0.66373 0.20434 0.18349 -0.06100
C 	C 	0.70585 0.27685 0.21139 0.02100
C 	C 	0.74360 0.35191 0.19884 -0.06100
C 	C 	0.73466 0.35398 0.15878 0.01300
C 	C 	0.68822 0.28106 0.13090 -0.08200
C 	C 	0.65517 0.20644 0.14336 0.01700
C 	C 	0.70166 0.27348 0.25328 0.02100
H 	H 	0.77666 0.40827 0.22015 0.04900
H 	H 	0.76126 0.41199 0.14947 0.02500
H 	H 	0.61945 0.14974 0.12212 0.04100
H 	H 	0.63499 0.14615 0.19289 0.04900
C 	C 	0.62459 0.23922 0.26565 -0.06100
C 	C 	0.62219 0.24823 0.30566 0.01300
C 	C 	0.69676 0.29125 0.33370 -0.08200
C 	C 	0.77325 0.32123 0.32141 0.01700
C 	C 	0.77570 0.31260 0.28133 -0.06100
H 	H 	0.56704 0.20860 0.24422 0.04800
H 	H 	0.56270 0.22403 0.31482 0.02400
H 	H 	0.83124 0.35436 0.34277 0.04200
H 	H 	0.83543 0.33874 0.27208 0.04900
C 	C 	0.79249 0.57556 0.46690 -0.10500
C 	C 	0.12621 0.05703 0.45948 -0.02600
C 	C 	0.20085 0.09786 0.46084 -0.00800
C 	C 	0.28820 0.14486 0.46270 0.05900
C 	C 	0.36290 0.18500 0.46434 -0.10900
C 	C 	0.76723 0.59526 0.98847 -0.10800
C 	C 	0.78454 0.15600 0.98894 -0.12000
C 	C 	0.15423 0.07882 0.98845 -0.02400
C 	C 	0.22845 0.11353 0.99006 -0.00900
C 	C 	0.31491 0.15120 0.99250 0.05800
C 	C 	0.38869 0.18239 0.99521 -0.11000
C 	C 	0.94574 0.02770 0.99020 0.12200
N 	N 	0.89868 0.94559 0.98796 -0.13300
C 	C 	0.93486 0.90727 0.98511 0.13100
C 	C 	0.91348 0.99482 0.45921 0.14200
N 	N 	0.87082 0.91384 0.46103 -0.13700
C 	C 	0.91245 0.88003 0.46114 0.13100
C 	C 	0.77661 0.22299 0.47726 0.30400
C 	C 	0.81579 0.64448 0.46602 0.05500
C 	C 	0.84274 0.72507 0.46458 -0.00600
C 	C 	0.87001 0.79491 0.46311 -0.02500
C 	C 	0.87280 0.03379 0.46092 -0.03600
C 	C 	0.84655 0.07376 0.46285 -0.00500
C 	C 	0.82141 0.12541 0.46608 0.05100
C 	C 	0.80157 0.17059 0.47016 -0.11200
C 	C 	0.80325 0.66619 0.98669 0.06100
C 	C 	0.84720 0.74970 0.98543 -0.00700
C 	C 	0.88637 0.82151 0.98498 -0.02400
C 	C 	0.82411 0.12928 0.99097 0.06000
C 	C 	0.86947 0.09691 0.99179 -0.01300
C 	C 	0.90610 0.06708 0.99147 -0.02400
