data_crystal

_cell_length_a 22.60008
_cell_length_b 22.69304
_cell_length_c 36.84158
_cell_angle_alpha 95.53131
_cell_angle_beta  95.53248
_cell_angle_gamma 125.96569

_symmetry_space_group_name_	'P 1'
_symmetry_space_group_name_H-M	'P 1'

loop_
_symmetry_equiv_pos_as_xyz
  x,y,z

loop_
_atom_site_label
_atom_site_type_symbol
_atom_site_fract_x
_atom_site_fract_y
_atom_site_fract_z
_atom_site_charge
C 	C 	0.96691 0.03946 0.99317 0.09600
N 	N 	0.04116 0.07837 0.99413 -0.13100
C 	C 	0.07492 0.04531 0.99832 0.10400
N 	N 	0.03400 0.97269 0.00139 -0.12500
C 	C 	0.95947 0.93343 0.00042 0.10600
N 	N 	0.92614 0.96704 0.99633 -0.13300
C 	C 	0.93115 0.00185 0.47747 0.09400
N 	N 	0.00588 0.04363 0.47889 -0.12900
C 	C 	0.04042 0.01088 0.47787 0.10800
N 	N 	0.00024 0.93635 0.47536 -0.12500
C 	C 	0.92553 0.89443 0.47405 0.10500
N 	N 	0.89123 0.92740 0.47517 -0.13200
Cu	Cu	0.63331 0.23376 0.00374 0.92900
Cu	Cu	0.67916 0.22203 0.92297 0.87000
Cu	Cu	0.67459 0.34574 0.95264 0.89600
Cu	Cu	0.64286 0.37630 0.02684 0.89300
C 	C 	0.66348 0.29651 0.08101 0.30600
O 	O 	0.52750 0.19480 0.00586 -0.36100
C 	C 	0.64037 0.28575 0.87189 0.30700
O 	O 	0.69633 0.34806 0.00455 -0.64100
O 	O 	0.61843 0.23648 0.95022 -0.64200
O 	O 	0.67296 0.17533 0.00135 -0.37300
O 	O 	0.75142 0.24308 0.96343 -0.44100
O 	O 	0.63314 0.32920 0.07134 -0.38500
O 	O 	0.73501 0.45260 0.95855 -0.37900
C 	C 	0.73795 0.49728 0.98575 0.28200
C 	C 	0.49824 0.22513 0.99159 0.28000
O 	O 	0.54162 0.29383 0.98635 -0.38700
O 	O 	0.68832 0.47114 0.00777 -0.39100
O 	O 	0.66362 0.25024 0.05638 -0.36300
C 	C 	0.73236 0.19783 0.98704 0.28500
O 	O 	0.66927 0.34394 0.89861 -0.38700
O 	O 	0.63046 0.22493 0.87871 -0.42200
H 	H 	0.75012 0.37883 0.01539 0.16300
H 	H 	0.56590 0.20720 0.93734 0.17200
Cu	Cu	0.73610 0.33358 0.45484 0.92800
Cu	Cu	0.72756 0.26971 0.53184 0.87000
Cu	Cu	0.61380 0.28720 0.50035 0.89600
Cu	Cu	0.59983 0.33355 0.42832 0.89400
C 	C 	0.68712 0.31862 0.37717 0.30500
O 	O 	0.78071 0.44195 0.45746 -0.36100
C 	C 	0.65873 0.30442 0.58158 0.30700
O 	O 	0.61999 0.27307 0.44909 -0.64100
O 	O 	0.72377 0.33917 0.50729 -0.64100
O 	O 	0.79124 0.29003 0.45729 -0.37200
O 	O 	0.71198 0.20463 0.48944 -0.44100
O 	O 	0.65591 0.35047 0.38688 -0.38600
O 	O 	0.50643 0.23129 0.49007 -0.38000
C 	C 	0.46757 0.23634 0.46301 0.28600
C 	C 	0.74888 0.47021 0.47104 0.28100
O 	O 	0.67823 0.42636 0.47342 -0.38900
O 	O 	0.50030 0.28795 0.44248 -0.39100
O 	O 	0.72852 0.31276 0.40219 -0.36200
C 	C 	0.76386 0.22769 0.46932 0.28600
O 	O 	0.60586 0.28456 0.55329 -0.38700
O 	O 	0.71960 0.31204 0.57659 -0.42300
H 	H 	0.58847 0.22060 0.43618 0.16300
H 	H 	0.75358 0.38983 0.52241 0.17200
C 	C 	0.62343 0.31111 0.68796 -0.00600
C 	C 	0.56802 0.24522 0.69859 -0.03500
C 	C 	0.56557 0.24246 0.73622 -0.03500
C 	C 	0.61852 0.30558 0.76338 -0.00600
C 	C 	0.67078 0.37274 0.75265 -0.03500
C 	C 	0.67323 0.37550 0.71500 -0.03500
C 	C 	0.62549 0.29902 0.80180 0.04400
C 	C 	0.63120 0.29336 0.83394 -0.11100
C 	C 	0.63563 0.30994 0.65032 0.04400
C 	C 	0.64532 0.30830 0.61872 -0.11100
H 	H 	0.52895 0.19533 0.67784 0.03800
H 	H 	0.52462 0.19047 0.74428 0.03900
H 	H 	0.71153 0.42196 0.77347 0.04000
H 	H 	0.71588 0.42681 0.70700 0.03900
C 	C 	0.70365 0.29874 0.26804 -0.00400
C 	C 	0.75429 0.36310 0.25476 -0.03400
C 	C 	0.75182 0.36091 0.21654 -0.03400
C 	C 	0.69872 0.29435 0.19145 -0.00400
C 	C 	0.65098 0.22909 0.20482 -0.03400
C 	C 	0.65343 0.23128 0.24306 -0.03500
C 	C 	0.68715 0.29491 0.15238 0.04400
C 	C 	0.67753 0.29545 0.11968 -0.10200
C 	C 	0.69732 0.30381 0.30657 0.04400
C 	C 	0.69303 0.30940 0.33893 -0.10200
H 	H 	0.79360 0.41538 0.27391 0.04200
H 	H 	0.78920 0.41151 0.20644 0.03900
H 	H 	0.61008 0.17729 0.18560 0.04200
H 	H 	0.61442 0.18118 0.25312 0.03900
C 	C 	0.88169 0.81337 0.47162 -0.00300
C 	C 	0.80666 0.76650 0.45357 -0.03100
C 	C 	0.76454 0.68992 0.45160 -0.03800
C 	C 	0.79702 0.65903 0.46733 -0.00200
C 	C 	0.87245 0.70572 0.48550 0.03300
C 	C 	0.91435 0.78277 0.48776 -0.05600
C 	C 	0.90523 0.67460 0.50067 -0.06700
C 	C 	0.86404 0.59765 0.49696 0.01200
C 	C 	0.78941 0.55105 0.47853 -0.07900
C 	C 	0.75560 0.58192 0.46436 -0.01000
H 	H 	0.78106 0.78937 0.44078 0.04500
H 	H 	0.70681 0.65458 0.43752 0.03900
H 	H 	0.97195 0.81875 0.50212 0.05000
H 	H 	0.96290 0.70987 0.51483 0.04500
H 	H 	0.89037 0.57416 0.50810 0.02700
H 	H 	0.69804 0.54587 0.44990 0.03300
C 	C 	0.89374 0.03732 0.47989 0.00100
C 	C 	0.83931 0.01420 0.50203 -0.04600
C 	C 	0.80177 0.04571 0.50360 -0.03500
C 	C 	0.81811 0.10077 0.48302 -0.00700
C 	C 	0.87268 0.12423 0.46059 0.03400
C 	C 	0.91053 0.09253 0.45923 -0.06000
C 	C 	0.88862 0.17902 0.43985 -0.06900
C 	C 	0.85170 0.21129 0.44188 0.01100
C 	C 	0.79852 0.18937 0.46480 -0.08700
C 	C 	0.78107 0.13312 0.48487 -0.01500
H 	H 	0.82629 0.97190 0.51818 0.05100
H 	H 	0.76002 0.02734 0.52090 0.03200
H 	H 	0.95209 0.10998 0.44185 0.04900
H 	H 	0.92991 0.19700 0.42231 0.04600
H 	H 	0.86493 0.25377 0.42583 0.04000
H 	H 	0.73972 0.11545 0.50238 0.02800
C 	C 	0.38611 0.19154 0.45961 -0.07500
C 	C 	0.34009 0.16117 0.42432 0.00900
C 	C 	0.26280 0.11957 0.42084 -0.06600
C 	C 	0.23067 0.10836 0.45264 0.03200
C 	C 	0.27677 0.13919 0.48826 0.00000
C 	C 	0.35431 0.18032 0.49157 -0.01200
C 	C 	0.24467 0.12868 0.52006 -0.03800
C 	C 	0.16743 0.08751 0.51655 -0.02900
C 	C 	0.12152 0.05630 0.48129 -0.00400
C 	C 	0.15307 0.06677 0.44935 -0.05400
H 	H 	0.36422 0.16944 0.39956 0.02600
H 	H 	0.22802 0.09622 0.39340 0.04600
H 	H 	0.38985 0.20438 0.51885 0.04600
H 	H 	0.27946 0.15224 0.54751 0.04000
H 	H 	0.14317 0.07941 0.54127 0.04200
H 	H 	0.11736 0.04249 0.42211 0.04900
C 	C 	0.78915 0.57837 0.98723 -0.07600
C 	C 	0.85230 0.60885 0.97066 0.00800
C 	C 	0.89962 0.68500 0.97089 -0.06500
C 	C 	0.88469 0.73184 0.98784 0.03000
C 	C 	0.82221 0.70190 0.00524 0.00100
C 	C 	0.77474 0.62533 0.00488 -0.01400
C 	C 	0.80747 0.74878 0.02236 -0.03900
C 	C 	0.85339 0.82451 0.02155 -0.03000
C 	C 	0.91462 0.85443 0.00356 -0.00300
C 	C 	0.93075 0.80807 0.98714 -0.05600
H 	H 	0.86481 0.57351 0.95757 0.03300
H 	H 	0.94771 0.70744 0.95773 0.04400
H 	H 	0.72622 0.60231 0.01777 0.04200
H 	H 	0.76011 0.72653 0.03608 0.03900
H 	H 	0.84114 0.85997 0.03480 0.04400
H 	H 	0.97785 0.83090 0.97315 0.04800
C 	C 	0.93063 0.07557 0.98825 -0.00500
C 	C 	0.95095 0.12415 0.96307 -0.03300
C 	C 	0.91748 0.15935 0.95857 -0.04000
C 	C 	0.86328 0.14646 0.97924 -0.00600
C 	C 	0.84301 0.09812 0.00486 0.03300
C 	C 	0.87668 0.06267 0.00917 -0.05600
C 	C 	0.78920 0.08570 0.02571 -0.06900
C 	C 	0.75460 0.11976 0.02063 0.01300
C 	C 	0.77315 0.16648 0.99450 -0.08700
C 	C 	0.82853 0.18063 0.97430 -0.01500
H 	H 	0.99235 0.13419 0.94673 0.04000
H 	H 	0.93352 0.19642 0.93889 0.03300
H 	H 	0.86152 0.02577 0.02893 0.04700
H 	H 	0.77375 0.04928 0.04569 0.04600
H 	H 	0.71287 0.10925 0.03682 0.04100
H 	H 	0.84370 0.21716 0.95436 0.03000
C 	C 	0.15597 0.08871 0.00015 0.00400
C 	C 	0.20329 0.16325 0.01841 -0.03300
C 	C 	0.27966 0.20613 0.01858 -0.03500
C 	C 	0.30984 0.17492 0.00069 -0.00400
C 	C 	0.26267 0.09981 0.98245 0.03800
C 	C 	0.18583 0.05701 0.98224 -0.06900
C 	C 	0.29314 0.06838 0.96501 -0.07000
C 	C 	0.37003 0.11049 0.96664 0.01400
C 	C 	0.41715 0.18471 0.98524 -0.08100
C 	C 	0.38681 0.21729 0.00154 -0.00700
H 	H 	0.18082 0.18800 0.03254 0.04700
H 	H 	0.31535 0.26354 0.03279 0.03800
H 	H 	0.14934 0.99965 0.96786 0.06000
H 	H 	0.25751 0.01101 0.95074 0.04500
H 	H 	0.39317 0.08509 0.95393 0.02500
H 	H 	0.42332 0.27453 0.01611 0.03300
