data_crystal

_cell_length_a 20.57113
_cell_length_b 20.99834
_cell_length_c 38.58941
_cell_angle_alpha 60.76026
_cell_angle_beta  118.97933
_cell_angle_gamma 133.39892

_symmetry_space_group_name_	'P 1'
_symmetry_space_group_name_H-M	'P 1'

loop_
_symmetry_equiv_pos_as_xyz
  x,y,z

loop_
_atom_site_label
_atom_site_type_symbol
_atom_site_fract_x
_atom_site_fract_y
_atom_site_fract_z
_atom_site_charge
H 	H 	0.21520 0.56134 0.17140 0.07400
H 	H 	0.13398 0.49423 0.65562 0.08000
Co	Co	0.07449 0.16408 0.07817 1.19000
Co	Co	0.11214 0.09145 0.03617 1.19100
Co	Co	0.09994 0.93565 0.02767 1.15900
C 	C 	0.27735 0.09946 0.05153 0.30700
O 	O 	0.13254 0.20147 0.03548 -0.43400
C 	C 	0.19493 0.26441 0.14622 0.31000
C 	C 	0.10212 0.82603 0.11323 0.31800
O 	O 	0.06998 0.82131 0.07530 -0.40700
O 	O 	0.09092 0.86782 0.12449 -0.38400
O 	O 	0.13862 0.19916 0.17067 -0.38400
O 	O 	0.19442 0.24650 0.11734 -0.35600
O 	O 	0.06583 0.98013 0.05014 -0.77400
O 	O 	0.23236 0.01151 0.06021 -0.38400
O 	O 	0.24845 0.13455 0.05630 -0.36500
Co	Co	0.01814 0.95322 0.54342 1.17700
Co	Co	0.04365 0.80849 0.55366 1.17400
C 	C 	0.18468 0.00592 0.53552 0.34900
O 	O 	0.01844 0.05912 0.53101 -0.45600
C 	C 	0.04314 0.18489 0.60110 0.29900
C 	C 	0.14008 0.79755 0.64015 0.30700
O 	O 	0.15344 0.83904 0.60308 -0.39000
O 	O 	0.09787 0.80695 0.65293 -0.36800
O 	O 	0.06511 0.14378 0.59643 -0.37900
O 	O 	0.00430 0.85424 0.57196 -0.77000
O 	O 	0.12560 0.93669 0.51932 -0.40700
O 	O 	0.15696 0.02108 0.55317 -0.39300
C 	C 	0.05759 0.98626 0.81485 -0.08100
C 	C 	0.05037 0.97118 0.78097 0.01300
C 	C 	0.10391 0.13403 0.88665 0.01400
C 	C 	0.08643 0.10952 0.85351 -0.02600
C 	C 	0.14805 0.17393 0.82628 0.09700
C 	C 	0.12212 0.97373 0.78078 0.09800
N 	N 	0.19734 0.22547 0.80442 -0.10400
N 	N 	0.17969 0.97581 0.78063 -0.09300
H 	H 	0.11604 0.99803 0.84081 0.06500
H 	H 	0.16787 0.19713 0.89391 0.06100
C 	C 	0.01647 0.86033 0.40385 -0.09000
C 	C 	0.00143 0.84405 0.43986 0.02400
C 	C 	0.03080 0.79411 0.47718 0.05400
N 	N 	0.05448 0.75398 0.50687 -0.14100
H 	H 	0.04772 0.83406 0.40444 0.07100
C 	C 	0.11264 0.34475 0.58959 -0.01200
C 	C 	0.11378 0.26942 0.61472 -0.09000
C 	C 	0.14243 0.40923 0.60653 0.09600
Br	Br	0.13970 0.51100 0.57057 -0.18600
H 	H 	0.08315 0.35030 0.55705 0.06700
C 	C 	0.16537 0.61195 0.69036 -0.07400
C 	C 	0.27597 0.79983 0.66467 -0.01500
C 	C 	0.18877 0.75561 0.66907 -0.08700
C 	C 	0.13753 0.66147 0.68606 0.13800
H 	H 	0.12619 0.53977 0.70373 0.07900
C 	C 	0.29858 0.45285 0.18774 0.08900
C 	C 	0.27996 0.37686 0.18539 -0.01900
C 	C 	0.24759 0.35916 0.14734 -0.09100
H 	H 	0.28632 0.32900 0.21331 0.07700
Br	Br	0.34163 0.47328 0.24041 -0.20300
C 	C 	0.15466 0.66759 0.14506 -0.07200
C 	C 	0.24212 0.83254 0.15911 -0.01900
C 	C 	0.14661 0.78001 0.14286 -0.09000
C 	C 	0.10289 0.69187 0.14181 0.12500
H 	H 	0.11946 0.60551 0.13767 0.07100
H 	H 	0.27673 0.89788 0.16318 0.06800
Br	Br	0.30667 0.26838 0.97301 -0.21300
C 	C 	0.30702 0.70811 0.15175 0.06500
C 	C 	0.38604 0.78094 0.13571 -0.07500
C 	C 	0.43968 0.76543 0.13294 0.07100
C 	C 	0.41040 0.67716 0.14252 -0.07700
C 	C 	0.32624 0.60385 0.15302 0.07100
C 	C 	0.27672 0.61866 0.16001 -0.07600
H 	H 	0.40555 0.84903 0.12534 0.08100
H 	H 	0.45164 0.66536 0.14010 0.08100
C 	C 	0.27122 0.60295 0.68013 0.06800
C 	C 	0.20636 0.52192 0.66665 -0.07000
C 	C 	0.23710 0.47921 0.66619 0.07200
C 	C 	0.33073 0.51696 0.67922 -0.07800
C 	C 	0.39449 0.60121 0.68785 0.06900
C 	C 	0.36492 0.63757 0.69389 -0.07000
H 	H 	0.35475 0.48660 0.67712 0.07700
H 	H 	0.41536 0.69730 0.70582 0.08100
C 	C 	0.15446 0.26482 0.65659 0.14000
C 	C 	0.17470 0.32301 0.67413 -0.07700
C 	C 	0.17414 0.39893 0.64929 -0.00500
H 	H 	0.20236 0.31602 0.70682 0.08100
Br	Br	0.19415 0.18814 0.68902 -0.21000
Br	Br	0.39213 0.69002 0.59344 -0.17500
C 	C 	0.24282 0.65583 0.67664 -0.00400
C 	C 	0.29648 0.75130 0.66213 0.08900
H 	H 	0.31906 0.87286 0.65449 0.07800
Br	Br	0.38155 0.81446 0.62971 -0.19800
C 	C 	0.25725 0.49758 0.11377 -0.07500
C 	C 	0.28610 0.51322 0.15181 -0.01000
C 	C 	0.24265 0.42397 0.11132 0.14200
Br	Br	0.22475 0.41885 0.05879 -0.21600
H 	H 	0.25217 0.54629 0.08594 0.08400
C 	C 	0.25136 0.72503 0.15626 -0.00600
C 	C 	0.29397 0.80292 0.16798 0.08600
Br	Br	0.41753 0.86152 0.20090 -0.20400
C 	C 	0.39878 0.10322 0.51338 -0.07800
C 	C 	0.42433 0.07326 0.58631 0.08800
C 	C 	0.33819 0.05001 0.58011 -0.00600
C 	C 	0.28235 0.05399 0.54053 -0.10800
C 	C 	0.31378 0.08204 0.50702 0.15200
Br	Br	0.24200 0.09395 0.45202 -0.21700
H 	H 	0.42348 0.12701 0.48731 0.08000
H 	H 	0.31310 0.02539 0.60619 0.07100
C 	C 	0.44085 0.24874 0.98412 -0.04600
C 	C 	0.49731 0.17120 0.04669 0.09400
C 	C 	0.42715 0.13564 0.06269 -0.02000
C 	C 	0.36506 0.15826 0.04010 -0.08500
C 	C 	0.37489 0.21844 0.00121 0.11200
H 	H 	0.44735 0.29462 0.95402 0.07500
H 	H 	0.41804 0.08667 0.09200 0.07800
Br	Br	0.03136 0.60028 0.70430 -0.22700
C 	C 	0.08168 0.07288 0.95628 0.31100
O 	O 	0.13424 0.04556 0.97780 -0.38900
O 	O 	0.06224 0.09690 0.97379 -0.35700
C 	C 	0.04299 0.07377 0.91259 -0.08100
Br	Br	0.45154 0.79923 0.04493 -0.21500
C 	C 	0.00397 0.92100 0.32912 -0.02100
C 	C 	0.08781 0.99475 0.31771 -0.08000
C 	C 	0.09975 0.00843 0.28122 0.06400
C 	C 	0.18587 0.08554 0.26950 0.07900
N 	N 	0.25495 0.14732 0.26013 -0.09000
H 	H 	0.14293 0.04226 0.33678 0.08100
C 	C 	0.02598 0.95021 0.25508 -0.11400
C 	C 	0.45671 0.10408 0.55260 -0.00300
O 	O 	0.03081 0.97539 0.18767 -0.39400
C 	C 	0.00865 0.02259 0.84703 -0.00700
O 	O 	0.03324 0.25479 0.09995 -0.41800
C 	C 	0.48508 0.65965 0.67923 -0.00300
C 	C 	0.49271 0.69586 0.63837 0.09000
C 	C 	0.01258 0.98912 0.21079 0.28000
O 	O 	0.01157 0.08924 0.11364 -0.76500
O 	O 	0.01111 0.02917 0.07118 -0.57900
Br	Br	0.49903 0.06642 0.64086 -0.18900
Co	Co	0.00135 0.90524 0.08474 1.18000
Co	Co	0.00043 0.13679 0.14572 1.16900
C 	C 	0.50894 0.23404 0.00825 -0.02000
O 	O 	0.99226 0.93056 0.69758 -0.35100
C 	C 	0.99096 0.90927 0.36698 0.08600
Co	Co	0.97822 0.80311 0.61783 1.20000
O 	O 	0.97060 0.68007 0.58917 -0.37700
C 	C 	0.53060 0.84127 0.12329 -0.00400
O 	O 	0.97761 0.04332 0.67765 -0.36000
C 	C 	0.98148 0.97709 0.70583 0.29200
O 	O 	0.95695 0.92504 0.48517 -0.34400
C 	C 	0.94079 0.85937 0.47720 0.29500
C 	C 	0.95971 0.87772 0.43929 -0.04700
O 	O 	0.93104 0.78801 0.50639 -0.35400
C 	C 	0.54940 0.84963 0.09009 0.08900
Co	Co	0.96170 0.03208 0.57143 1.19800
O 	O 	0.95671 0.14827 0.59535 -0.38300
C 	C 	0.97486 0.95683 0.74701 -0.04000
C 	C 	0.94849 0.86897 0.26987 0.04800
C 	C 	0.93588 0.85515 0.30619 -0.00800
C 	C 	0.85155 0.77512 0.31887 0.10300
N 	N 	0.78400 0.71103 0.32905 -0.09400
H 	H 	0.89323 0.82149 0.25078 0.04800
O 	O 	0.96740 0.02395 0.19407 -0.35200
C 	C 	0.99241 0.99167 0.81421 0.07000
Br	Br	0.97195 0.60629 0.13282 -0.17300
C 	C 	0.74743 0.35294 0.99944 0.07700
C 	C 	0.65235 0.28697 0.99734 -0.05400
C 	C 	0.60220 0.30621 0.00034 0.04300
C 	C 	0.64332 0.39471 0.99871 -0.05000
C 	C 	0.73611 0.46199 0.99839 0.07700
C 	C 	0.78844 0.44156 0.99847 -0.05600
H 	H 	0.61972 0.21933 0.99677 0.08500
H 	H 	0.60437 0.41015 0.00037 0.06200
H 	H 	0.86194 0.49229 0.00099 0.07100
C 	C 	0.67699 0.21220 0.53185 0.06900
C 	C 	0.59400 0.14265 0.54487 -0.08100
C 	C 	0.55575 0.16326 0.55590 0.07600
C 	C 	0.60659 0.24953 0.56040 -0.07700
C 	C 	0.68980 0.31855 0.54883 0.07200
C 	C 	0.72131 0.30200 0.53113 -0.07100
H 	H 	0.55723 0.07354 0.54468 0.08000
H 	H 	0.57908 0.26416 0.57116 0.08100
H 	H 	0.77996 0.35787 0.51757 0.08700
Co	Co	0.96171 0.97761 0.12652 1.19700
C 	C 	0.90103 0.79824 0.02071 0.30400
O 	O 	0.93481 0.86640 0.12421 -0.42900
C 	C 	0.80788 0.97982 0.12192 0.30500
O 	O 	0.86327 0.06855 0.11588 -0.36100
O 	O 	0.82989 0.93477 0.11998 -0.36400
C 	C 	0.98966 0.25081 0.06198 0.34600
O 	O 	0.99577 0.21445 0.04482 -0.34500
O 	O 	0.96347 0.86524 0.99908 -0.36700
O 	O 	0.89381 0.81123 0.04890 -0.33900
Co	Co	0.91687 0.88035 0.64485 1.19000
C 	C 	0.88834 0.64090 0.59130 0.32700
Co	Co	0.87145 0.01796 0.62650 1.17800
O 	O 	0.91361 0.96939 0.61173 -0.75400
O 	O 	0.94018 0.78759 0.66272 -0.43000
O 	O 	0.93954 0.90012 0.58758 -0.56600
C 	C 	0.74079 0.81517 0.65331 0.33200
O 	O 	0.78831 0.89217 0.66181 -0.40200
O 	O 	0.77936 0.79525 0.64504 -0.37200
C 	C 	0.79803 0.04301 0.53775 0.32700
O 	O 	0.77293 0.99019 0.57257 -0.38700
O 	O 	0.86056 0.05347 0.52901 -0.35500
O 	O 	0.87476 0.67672 0.60503 -0.35400
C 	C 	0.91408 0.97128 0.78142 -0.04100
C 	C 	0.90367 0.94937 0.74937 0.01500
C 	C 	0.94339 0.96666 0.87054 -0.03200
C 	C 	0.95714 0.99599 0.90079 0.03200
C 	C 	0.88232 0.94762 0.91877 0.09400
C 	C 	0.84736 0.97938 0.77876 0.10600
N 	N 	0.82212 0.90897 0.93306 -0.09100
N 	N 	0.79394 0.98587 0.77660 -0.09900
H 	H 	0.84437 0.93625 0.72396 0.04900
H 	H 	0.88132 0.90140 0.86474 0.06200
C 	C 	0.95138 0.94461 0.36614 -0.04200
C 	C 	0.93607 0.92879 0.40225 0.02400
C 	C 	0.92617 0.99692 0.32842 0.11100
N 	N 	0.90601 0.03889 0.29817 -0.08000
H 	H 	0.90483 0.95529 0.40139 0.05900
C 	C 	0.55932 0.66348 0.71110 -0.07800
C 	C 	0.57421 0.73626 0.62998 -0.01300
C 	C 	0.64990 0.74445 0.66180 -0.09900
C 	C 	0.64128 0.70487 0.70254 0.14700
Br	Br	0.74146 0.70779 0.74680 -0.20700
H 	H 	0.55261 0.63248 0.74244 0.08300
H 	H 	0.58069 0.76672 0.59860 0.07300
C 	C 	0.64002 0.89335 0.09027 -0.01300
C 	C 	0.71273 0.93249 0.12247 -0.08900
C 	C 	0.69470 0.93327 0.15315 0.14300
C 	C 	0.60394 0.88828 0.15320 -0.07100
H 	H 	0.65386 0.89713 0.06531 0.07000
H 	H 	0.59011 0.88417 0.17826 0.09300
Br	Br	0.79227 0.99095 0.19655 -0.22400
C 	C 	0.65427 0.12150 0.49702 -0.07700
C 	C 	0.71522 0.19017 0.51826 -0.00500
C 	C 	0.80990 0.22652 0.53129 0.08600
C 	C 	0.83914 0.19383 0.52228 -0.01700
C 	C 	0.77540 0.10844 0.51405 -0.09600
C 	C 	0.68283 0.07671 0.49729 0.15300
Br	Br	0.59423 0.96975 0.47724 -0.20800
H 	H 	0.58321 0.09796 0.48344 0.08100
H 	H 	0.91195 0.22760 0.52794 0.07500
Br	Br	0.89412 0.29852 0.57067 -0.19500
C 	C 	0.72518 0.46723 0.53290 -0.07400
C 	C 	0.74632 0.40521 0.55876 -0.00500
C 	C 	0.79895 0.41309 0.59896 0.09600
C 	C 	0.83047 0.48266 0.61256 -0.01200
C 	C 	0.81636 0.54917 0.58559 -0.08800
C 	C 	0.75715 0.53691 0.54673 0.14000
Br	Br	0.71872 0.61442 0.51236 -0.20400
H 	H 	0.67979 0.45834 0.50284 0.08100
H 	H 	0.87313 0.48963 0.64311 0.09000
Br	Br	0.82591 0.32733 0.63626 -0.17600
C 	C 	0.88015 0.25463 0.07010 -0.01400
C 	C 	0.91734 0.26560 0.04348 -0.08800
C 	C 	0.89637 0.30438 0.00133 0.11800
C 	C 	0.83827 0.33033 0.98682 -0.03500
C 	C 	0.80647 0.32377 0.01430 -0.03500
C 	C 	0.83182 0.28989 0.05630 0.10000
Br	Br	0.81258 0.30287 0.09580 -0.18700
H 	H 	0.89563 0.22532 0.10247 0.06300
H 	H 	0.82041 0.35812 0.95444 0.07900
Br	Br	0.94973 0.32770 0.96355 -0.15500
C 	C 	0.82618 0.70366 0.97420 -0.00700
C 	C 	0.83588 0.70851 0.01171 -0.09700
C 	C 	0.80445 0.62890 0.04334 0.14800
C 	C 	0.78277 0.55221 0.04030 -0.06700
C 	C 	0.78030 0.54979 0.00393 -0.02600
C 	C 	0.79974 0.62533 0.97038 0.10000
Br	Br	0.78957 0.62256 0.91889 -0.20700
H 	H 	0.84423 0.76263 0.94863 0.06900
H 	H 	0.76150 0.49201 0.06526 0.09200
Br	Br	0.77610 0.61812 0.08746 -0.18200
Br	Br	0.57065 0.12671 0.07644 -0.19700
