data_crystal

_cell_length_a 16.97177
_cell_length_b 18.03525
_cell_length_c 49.63760
_cell_angle_alpha 88.44655
_cell_angle_beta  88.51556
_cell_angle_gamma 108.08270

_symmetry_space_group_name_	'P 1'
_symmetry_space_group_name_H-M	'P 1'

loop_
_symmetry_equiv_pos_as_xyz
  x,y,z

loop_
_atom_site_label
_atom_site_type_symbol
_atom_site_fract_x
_atom_site_fract_y
_atom_site_fract_z
_atom_site_charge
Zn	Zn	0.72926 0.38184 0.90506 1.22600
Zn	Zn	0.56088 0.40211 0.87875 1.19800
C 	C 	0.72096 0.16620 0.84465 0.26700
Zn	Zn	0.61923 0.26007 0.86721 1.22400
Zn	Zn	0.81638 0.27237 0.88496 1.19800
H 	H 	0.69222 0.40060 0.85207 0.19000
C 	C 	0.50793 0.24530 0.91403 0.31900
O 	O 	0.89488 0.33002 0.91224 -0.45100
O 	O 	0.80169 0.36937 0.93789 -0.39700
O 	O 	0.66263 0.37452 0.86888 -0.78500
O 	O 	0.60512 0.48978 0.90405 -0.45000
O 	O 	0.82695 0.46201 0.88886 -0.42600
O 	O 	0.66621 0.42142 0.93142 -0.43400
O 	O 	0.84949 0.37791 0.85857 -0.40100
O 	O 	0.46309 0.33161 0.86101 -0.44800
H 	H 	0.68497 0.23867 0.91410 0.18000
O 	O 	0.53386 0.26495 0.83687 -0.38900
O 	O 	0.70518 0.27204 0.89761 -0.79900
O 	O 	0.79201 0.21789 0.85034 -0.43300
O 	O 	0.52595 0.20949 0.89306 -0.43300
O 	O 	0.65249 0.18647 0.84344 -0.40800
O 	O 	0.52806 0.32195 0.91394 -0.41000
C 	C 	0.87149 0.35256 0.93539 0.35000
C 	C 	0.64205 0.48271 0.92655 0.34200
C 	C 	0.86496 0.44929 0.86702 0.29200
C 	C 	0.46597 0.28365 0.84174 0.28000
Zn	Zn	0.49877 0.20681 0.62991 1.22400
Zn	Zn	0.47364 0.36540 0.65416 1.19500
C 	C 	0.72776 0.22333 0.69060 0.37200
Zn	Zn	0.62632 0.31558 0.66768 1.22500
Zn	Zn	0.62135 0.13061 0.65008 1.20200
H 	H 	0.47664 0.24458 0.68231 0.19100
C 	C 	0.64309 0.42008 0.62069 0.32200
O 	O 	0.56553 0.05511 0.62249 -0.44500
O 	O 	0.51417 0.13774 0.59761 -0.39000
O 	O 	0.50480 0.27200 0.66549 -0.78800
O 	O 	0.38343 0.32063 0.62832 -0.46500
O 	O 	0.41532 0.11423 0.64685 -0.43200
O 	O 	0.45794 0.26298 0.60193 -0.43500
O 	O 	0.50863 0.09341 0.67575 -0.40000
O 	O 	0.54518 0.45955 0.67142 -0.45300
H 	H 	0.65080 0.25345 0.62104 0.18600
O 	O 	0.61865 0.39845 0.69697 -0.38600
O 	O 	0.61590 0.23348 0.63757 -0.79100
O 	O 	0.67307 0.15614 0.68541 -0.45300
O 	O 	0.68045 0.40255 0.64173 -0.43000
O 	O 	0.70533 0.28712 0.69206 -0.41700
O 	O 	0.56166 0.39589 0.61961 -0.41400
C 	C 	0.53851 0.07546 0.59962 0.30900
C 	C 	0.39705 0.29274 0.60507 0.34600
C 	C 	0.43202 0.07676 0.66787 0.29300
C 	C 	0.59618 0.46047 0.69102 0.27900
Zn	Zn	0.03068 0.99848 0.76376 1.19500
Zn	Zn	0.87273 0.91160 0.72592 1.19100
C 	C 	0.98778 0.73480 0.80761 0.41200
Zn	Zn	0.90467 0.83632 0.77926 1.23100
Zn	Zn	0.09813 0.90251 0.80094 1.18900
H 	H 	0.99194 0.86109 0.73643 0.19100
C 	C 	0.79741 0.93458 0.78329 0.37300
O 	O 	0.18686 0.00548 0.80076 -0.41000
O 	O 	0.11157 0.08582 0.78717 -0.39800
O 	O 	0.96219 0.89169 0.74640 -0.79200
O 	O 	0.93153 0.02145 0.71267 -0.42700
O 	O 	0.12704 0.00417 0.74078 -0.41500
O 	O 	0.97587 0.07621 0.75286 -0.38400
O 	O 	0.13791 0.89097 0.75908 -0.40600
O 	O 	0.77286 0.81695 0.72979 -0.47000
H 	H 	0.97749 0.95516 0.81064 0.21400
O 	O 	0.82573 0.74294 0.75791 -0.37600
O 	O 	0.99500 0.92925 0.79530 -0.78200
O 	O 	0.06255 0.78438 0.80209 -0.47000
O 	O 	0.81103 0.87049 0.79234 -0.40600
O 	O 	0.91983 0.75296 0.80291 -0.42500
O 	O 	0.82168 0.96290 0.75868 -0.44100
C 	C 	0.17741 0.07553 0.79843 0.37100
C 	C 	0.94693 0.08109 0.72867 0.29000
C 	C 	0.16199 0.94912 0.74105 0.33900
C 	C 	0.77387 0.74821 0.73929 0.37100
Zn	Zn	0.17688 0.66592 0.40732 1.22400
Zn	Zn	0.34092 0.65405 0.37243 1.19500
C 	C 	0.16706 0.88828 0.34677 0.27500
Zn	Zn	0.27770 0.79760 0.36680 1.22200
Zn	Zn	0.08425 0.77541 0.39218 1.19000
H 	H 	0.20563 0.66072 0.35251 0.18100
C 	C 	0.39800 0.80248 0.40808 0.31700
O 	O 	0.00935 0.70847 0.42122 -0.46200
O 	O 	0.10690 0.66775 0.44314 -0.39400
O 	O 	0.23725 0.68288 0.36844 -0.78600
O 	O 	0.30248 0.56145 0.39879 -0.45500
O 	O 	0.07931 0.58714 0.39399 -0.44300
O 	O 	0.24613 0.62351 0.42989 -0.44200
O 	O 	0.05261 0.67636 0.36567 -0.41600
O 	O 	0.43464 0.72981 0.35101 -0.44300
H 	H 	0.21881 0.80731 0.41675 0.17300
O 	O 	0.35607 0.79902 0.33254 -0.39600
O 	O 	0.19731 0.77708 0.40070 -0.80400
O 	O 	0.10074 0.83349 0.35672 -0.45500
O 	O 	0.37526 0.84297 0.38897 -0.44000
O 	O 	0.24092 0.87749 0.34624 -0.42200
O 	O 	0.38085 0.72629 0.40701 -0.40800
C 	C 	0.03446 0.68010 0.44304 0.26000
C 	C 	0.27070 0.56415 0.42314 0.34100
C 	C 	0.04141 0.60336 0.37311 0.29900
C 	C 	0.42760 0.78572 0.33452 0.28100
Zn	Zn	0.33730 0.87206 0.16123 1.22200
Zn	Zn	0.17604 0.70468 0.15170 1.19300
C 	C 	0.51162 0.76049 0.10229 0.34600
Zn	Zn	0.34933 0.72817 0.12945 1.22500
Zn	Zn	0.51307 0.87034 0.14544 1.19900
H 	H 	0.25834 0.80761 0.11732 0.17100
C 	C 	0.29157 0.61481 0.17313 0.37100
O 	O 	0.53094 0.97694 0.15823 -0.47000
O 	O 	0.41862 0.95202 0.18730 -0.36700
O 	O 	0.27174 0.78723 0.13475 -0.79300
O 	O 	0.14547 0.75711 0.18329 -0.43900
O 	O 	0.36425 0.95340 0.13150 -0.44300
O 	O 	0.24728 0.87401 0.18726 -0.40600
O 	O 	0.45712 0.90385 0.11002 -0.42100
O 	O 	0.15961 0.60938 0.13000 -0.45400
H 	H 	0.40909 0.77694 0.17884 0.18900
O 	O 	0.27213 0.65818 0.10090 -0.39000
O 	O 	0.40585 0.80125 0.16095 -0.78700
O 	O 	0.55319 0.79834 0.12237 -0.45100
O 	O 	0.33985 0.63277 0.15129 -0.41700
O 	O 	0.43314 0.75408 0.09972 -0.43300
O 	O 	0.24682 0.65935 0.18023 -0.43000
C 	C 	0.49589 0.99217 0.18043 0.34000
C 	C 	0.16796 0.83318 0.18605 0.25700
C 	C 	0.40907 0.94879 0.10987 0.34300
C 	C 	0.19854 0.60823 0.10675 0.32800
Zn	Zn	0.88528 0.09198 0.25998 1.23300
Zn	Zn	0.05354 0.17353 0.22074 1.18600
C 	C 	0.94977 0.34308 0.30596 0.41100
Zn	Zn	0.02624 0.24360 0.27461 1.21400
Zn	Zn	0.83298 0.18488 0.30282 1.21200
H 	H 	0.94168 0.23457 0.23327 0.18700
C 	C 	0.11344 0.12867 0.27753 0.36900
O 	O 	0.74662 0.08570 0.31174 -0.41800
O 	O 	0.79034 0.00427 0.28377 -0.36200
O 	O 	0.96738 0.19890 0.24245 -0.76100
O 	O 	0.98400 0.07198 0.20724 -0.42700
O 	O 	0.79730 0.10502 0.23819 -0.42700
O 	O 	0.92776 0.00726 0.24685 -0.37700
O 	O 	0.76849 0.19400 0.26528 -0.37400
O 	O 	0.16022 0.25854 0.22355 -0.44600
H 	H 	0.94279 0.12042 0.30576 0.22800
O 	O 	0.11634 0.33557 0.25237 -0.39900
O 	O 	0.92750 0.15148 0.29125 -0.78700
O 	O 	0.87636 0.30086 0.29830 -0.44100
O 	O 	0.11070 0.19612 0.28626 -0.45000
O 	O 	0.01768 0.32775 0.29812 -0.48700
O 	O 	0.09057 0.10713 0.25304 -0.41900
C 	C 	0.73290 0.01831 0.29983 0.38400
C 	C 	0.96302 0.00813 0.22271 0.40700
C 	C 	0.74799 0.14402 0.24586 0.28200
C 	C 	0.16473 0.32805 0.23220 0.27400
C 	C 	0.21966 0.39879 0.21790 0.00200
C 	C 	0.24654 0.46922 0.23142 -0.06700
C 	C 	0.27707 0.54019 0.21678 0.06700
C 	C 	0.28196 0.54142 0.18851 -0.21000
C 	C 	0.26378 0.47062 0.17515 0.38800
C 	C 	0.23288 0.39957 0.18982 -0.16700
H 	H 	0.29297 0.59437 0.22734 0.02100
H 	H 	0.21403 0.34557 0.17917 0.09500
H 	H 	0.23944 0.46930 0.25317 0.05800
F 	F 	0.26976 0.47071 0.14782 -0.45300
C 	C 	0.67164 0.13479 0.23128 0.02200
C 	C 	0.67740 0.15287 0.20351 -0.06300
C 	C 	0.61402 0.11264 0.18691 0.06700
C 	C 	0.54496 0.05330 0.19799 -0.18300
C 	C 	0.53345 0.04446 0.22621 0.41500
C 	C 	0.59634 0.08619 0.24274 -0.17500
H 	H 	0.62167 0.12330 0.16527 0.03900
H 	H 	0.58980 0.07468 0.26426 0.14800
H 	H 	0.73412 0.19268 0.19448 0.05900
F 	F 	0.46487 0.99096 0.23756 -0.46700
C 	C 	0.10590 0.86691 0.19681 0.01500
C 	C 	0.10640 0.88715 0.22388 -0.05900
C 	C 	0.05145 0.92512 0.23344 0.02100
C 	C 	0.99746 0.94536 0.21577 -0.18800
C 	C 	0.99243 0.91921 0.18926 0.43900
C 	C 	0.04642 0.87997 0.17986 -0.23100
H 	H 	0.05457 0.94317 0.25408 0.04400
H 	H 	0.04402 0.86228 0.15913 0.08400
H 	H 	0.15056 0.87512 0.23734 0.06600
F 	F 	0.93815 0.93543 0.17223 -0.46300
C 	C 	0.50290 0.84320 0.32242 0.00800
C 	C 	0.57219 0.82083 0.31453 -0.06500
C 	C 	0.64659 0.87759 0.30593 0.07200
C 	C 	0.65253 0.95710 0.30567 -0.21900
C 	C 	0.58226 0.97882 0.31316 0.36900
C 	C 	0.50795 0.92218 0.32093 -0.15100
H 	H 	0.70004 0.85986 0.30036 0.03500
H 	H 	0.45513 0.94018 0.32709 0.10900
H 	H 	0.56884 0.75984 0.31541 0.05800
F 	F 	0.58686 0.05524 0.31393 -0.43700
C 	C 	0.00317 0.54126 0.35465 -0.08100
C 	C 	0.02750 0.55035 0.32721 -0.02800
C 	C 	0.00522 0.48619 0.31070 -0.00900
C 	C 	0.95737 0.41280 0.32139 -0.14500
C 	C 	0.92734 0.40511 0.34827 0.35500
C 	C 	0.95074 0.46907 0.36490 -0.07300
H 	H 	0.02802 0.49276 0.28990 0.03100
H 	H 	0.93065 0.46186 0.38598 0.10400
H 	H 	0.06754 0.60601 0.31904 0.03600
F 	F 	0.87982 0.33456 0.35871 -0.46300
C 	C 	0.15424 0.95191 0.32960 -0.02500
C 	C 	0.22158 0.01645 0.32056 -0.03300
C 	C 	0.20813 0.07570 0.30415 0.06800
C 	C 	0.12748 0.07083 0.29671 -0.21100
C 	C 	0.06036 0.00711 0.30612 0.37100
C 	C 	0.07359 0.94824 0.32239 -0.18500
H 	H 	0.26041 0.12457 0.29692 0.03500
H 	H 	0.02092 0.89906 0.32909 0.09600
H 	H 	0.28407 0.02079 0.32616 0.07100
F 	F 	0.98226 0.00088 0.29879 -0.45000
C 	C 	0.48555 0.89585 0.47928 0.04000
C 	C 	0.45625 0.84893 0.50266 -0.06600
C 	C 	0.47533 0.87996 0.52807 -0.00800
C 	C 	0.52376 0.95802 0.53017 -0.05400
C 	C 	0.55702 0.00350 0.50677 0.07200
C 	C 	0.53782 0.97251 0.48136 -0.14100
C 	C 	0.52836 0.99487 0.55568 0.00600
C 	C 	0.53413 0.02896 0.57644 -0.05800
C 	C 	0.45727 0.86684 0.45337 0.02700
C 	C 	0.43165 0.83964 0.43222 -0.10100
H 	H 	0.41651 0.78926 0.50118 0.05000
H 	H 	0.44959 0.84435 0.54605 0.03100
H 	H 	0.59479 0.06386 0.50824 0.02900
H 	H 	0.56144 0.00885 0.46337 0.09600
C 	C 	0.77913 0.53128 0.55419 -0.00600
C 	C 	0.84933 0.59660 0.55653 -0.02600
C 	C 	0.89819 0.63057 0.53360 -0.03800
C 	C 	0.87700 0.59932 0.50826 0.01600
C 	C 	0.80548 0.53539 0.50583 -0.03700
C 	C 	0.75663 0.50144 0.52875 -0.02600
C 	C 	0.93209 0.62865 0.48518 0.02700
C 	C 	0.97811 0.65310 0.46582 -0.03300
C 	C 	0.73197 0.49300 0.57795 0.05500
C 	C 	0.69179 0.46022 0.59762 -0.10600
H 	H 	0.86684 0.62022 0.57612 0.04500
H 	H 	0.95338 0.68005 0.53563 0.05100
H 	H 	0.78870 0.51094 0.48630 0.05300
H 	H 	0.70218 0.45118 0.52678 0.04600
C 	C 	0.28073 0.41850 0.48606 -0.00700
C 	C 	0.23388 0.42229 0.50938 -0.03300
C 	C 	0.24776 0.38859 0.53378 -0.03400
C 	C 	0.30837 0.35082 0.53490 -0.00700
C 	C 	0.35084 0.34210 0.51118 -0.03200
C 	C 	0.33709 0.37596 0.48680 -0.03200
C 	C 	0.33510 0.33066 0.56056 0.05600
C 	C 	0.36033 0.31272 0.58142 -0.11500
C 	C 	0.27956 0.46730 0.46278 0.05500
C 	C 	0.27604 0.50944 0.44392 -0.11400
H 	H 	0.18957 0.45450 0.50890 0.03900
H 	H 	0.21413 0.39494 0.55197 0.03800
H 	H 	0.39725 0.31226 0.51185 0.04700
H 	H 	0.37302 0.37218 0.46881 0.04500
C 	C 	0.91450 0.14565 0.72186 0.01500
C 	C 	0.85870 0.16387 0.73989 -0.06700
C 	C 	0.80372 0.20156 0.73033 0.08000
C 	C 	0.80484 0.22154 0.70277 -0.21000
C 	C 	0.86995 0.21536 0.68587 0.38400
C 	C 	0.92423 0.17684 0.69535 -0.16200
H 	H 	0.75516 0.20812 0.74377 0.02900
H 	H 	0.96956 0.16595 0.68153 0.11500
H 	H 	0.85274 0.14265 0.76071 0.07400
F 	F 	0.87468 0.23864 0.65948 -0.47500
C 	C 	0.36334 0.02542 0.68523 -0.02400
C 	C 	0.28227 0.00023 0.67588 -0.00700
C 	C 	0.21549 0.96434 0.69377 0.00300
C 	C 	0.22900 0.95377 0.72119 -0.17600
C 	C 	0.31053 0.96981 0.72979 0.34800
C 	C 	0.37750 0.00593 0.71193 -0.09800
H 	H 	0.15278 0.95022 0.68676 0.00600
H 	H 	0.43994 0.02218 0.71924 0.11300
H 	H 	0.27055 0.01140 0.65505 0.04900
F 	F 	0.32470 0.95706 0.75605 -0.44100
C 	C 	0.63597 0.53460 0.70412 0.00900
C 	C 	0.65530 0.60560 0.68916 -0.07100
C 	C 	0.69646 0.67580 0.70107 0.06600
C 	C 	0.71885 0.67597 0.72810 -0.20900
C 	C 	0.69593 0.60511 0.74347 0.39100
C 	C 	0.65545 0.53479 0.73141 -0.16500
H 	H 	0.71353 0.72970 0.68898 0.00900
H 	H 	0.63910 0.48055 0.74330 0.10900
H 	H 	0.64046 0.60623 0.66807 0.05800
F 	F 	0.71286 0.60435 0.77004 -0.45400
C 	C 	0.01451 0.39545 0.00118 -0.19400
C 	C 	0.09855 0.43972 0.99947 0.05700
C 	C 	0.13838 0.47306 0.02253 -0.10700
C 	C 	0.09423 0.46225 0.04735 0.08800
C 	C 	0.01251 0.41213 0.04949 -0.22900
C 	C 	0.97274 0.37864 0.02644 0.18000
C 	C 	0.12821 0.51145 0.06923 0.00900
C 	C 	0.15913 0.55391 0.08698 -0.08300
C 	C 	0.96774 0.38010 0.97711 0.17300
C 	C 	0.92592 0.36611 0.95753 -0.15700
H 	H 	0.13160 0.45216 0.98007 0.01200
H 	H 	0.20208 0.51081 0.02080 0.06400
H 	H 	0.97836 0.40253 0.06870 0.12700
H 	H 	0.90802 0.34354 0.02799 0.00000
C 	C 	0.42477 0.12910 0.98597 0.01200
C 	C 	0.42844 0.17374 0.00888 -0.04600
C 	C 	0.41463 0.13744 0.03459 -0.00800
C 	C 	0.39711 0.05636 0.03751 -0.04700
C 	C 	0.38847 0.01131 0.01453 0.02800
C 	C 	0.40235 0.04762 0.98881 -0.05700
C 	C 	0.39992 0.02089 0.06366 0.12400
C 	C 	0.40192 0.98905 0.08519 -0.17500
C 	C 	0.45262 0.16740 0.96004 0.04600
C 	C 	0.47639 0.20146 0.93867 -0.10400
H 	H 	0.44510 0.23675 0.00683 0.05100
H 	H 	0.42103 0.17265 0.05224 0.04300
H 	H 	0.37451 0.94854 0.01661 0.00600
H 	H 	0.39874 0.01265 0.97120 0.05700
C 	C 	0.61961 0.69572 0.03673 -0.00400
C 	C 	0.60296 0.72341 0.01152 -0.03000
C 	C 	0.61601 0.68700 0.98806 -0.03100
C 	C 	0.64612 0.62306 0.98974 -0.00300
C 	C 	0.66929 0.59963 0.01468 -0.02900
C 	C 	0.65608 0.63594 0.03814 -0.02800
C 	C 	0.64397 0.57591 0.96669 0.05900
C 	C 	0.64306 0.53487 0.94788 -0.10700
C 	C 	0.58516 0.71800 0.06081 0.06000
C 	C 	0.55498 0.73843 0.08035 -0.10800
H 	H 	0.57551 0.77017 0.01024 0.04300
H 	H 	0.59907 0.70617 0.96880 0.04400
H 	H 	0.69379 0.55091 0.01606 0.05000
H 	H 	0.66987 0.61467 0.05752 0.04900
C 	C 	0.72385 0.09512 0.83135 0.00700
C 	C 	0.69214 0.07882 0.80560 -0.06900
C 	C 	0.70996 0.02084 0.79073 0.11000
C 	C 	0.76012 0.97897 0.80141 -0.23700
C 	C 	0.78582 0.99083 0.82810 0.35800
C 	C 	0.76796 0.04889 0.84292 -0.12900
H 	H 	0.68861 0.01143 0.77035 0.03000
H 	H 	0.79139 0.06017 0.86300 0.08600
H 	H 	0.65752 0.11377 0.79651 0.07300
F 	F 	0.83254 0.94968 0.83908 -0.47000
C 	C 	0.38955 0.24349 0.82767 0.00900
C 	C 	0.31134 0.23180 0.84036 -0.06900
C 	C 	0.24000 0.18205 0.82933 0.06600
C 	C 	0.24619 0.14357 0.80560 -0.20300
C 	C 	0.32320 0.16056 0.79168 0.39700
C 	C 	0.39458 0.21027 0.80268 -0.16300
H 	H 	0.18071 0.16990 0.84008 0.01300
H 	H 	0.45407 0.22092 0.79220 0.11500
H 	H 	0.30619 0.25801 0.85944 0.05900
F 	F 	0.32938 0.12604 0.76809 -0.43600
C 	C 	0.91450 0.51616 0.84984 -0.02500
C 	C 	0.89847 0.52006 0.82234 -0.03200
C 	C 	0.93049 0.59057 0.80747 0.04700
C 	C 	0.97913 0.65758 0.81993 -0.13100
C 	C 	0.00229 0.65145 0.84665 0.27200
C 	C 	0.96960 0.58107 0.86160 -0.07000
H 	H 	0.91297 0.59442 0.78676 0.05000
H 	H 	0.98396 0.57806 0.88266 0.10300
H 	H 	0.85693 0.47004 0.81294 0.05600
F 	F 	0.05089 0.71528 0.85879 -0.46700
