data_crystal

_cell_length_a 25.61181
_cell_length_b 25.93085
_cell_length_c 31.73708
_cell_angle_alpha 95.45327
_cell_angle_beta  95.45488
_cell_angle_gamma 125.88300

_symmetry_space_group_name_	'P 1'
_symmetry_space_group_name_H-M	'P 1'

loop_
_symmetry_equiv_pos_as_xyz
  x,y,z

loop_
_atom_site_label
_atom_site_type_symbol
_atom_site_fract_x
_atom_site_fract_y
_atom_site_fract_z
_atom_site_charge
N 	N 	0.02943 0.06443 0.98464 -0.13400
C 	C 	0.04996 0.03060 0.96733 0.11400
N 	N 	0.00842 0.96488 0.95832 -0.12600
N 	N 	0.00754 0.95143 0.47260 -0.12700
C 	C 	0.04090 0.01605 0.47434 0.11600
N 	N 	0.00755 0.04123 0.46797 -0.13400
C 	C 	0.31641 0.16042 0.43650 0.00100
C 	C 	0.25516 0.14838 0.42762 -0.05900
C 	C 	0.20482 0.10117 0.44666 0.02500
C 	C 	0.21716 0.07014 0.47544 0.00100
C 	C 	0.28066 0.08960 0.48943 -0.05400
C 	C 	0.33021 0.13392 0.46857 0.01400
S 	S 	0.38685 0.22814 0.43132 0.01700
C 	C 	0.43643 0.22570 0.46805 -0.07200
C 	C 	0.39801 0.17006 0.48577 -0.02200
S 	S 	0.15745 0.03683 0.50365 0.00600
C 	C 	0.11261 0.05760 0.47987 -0.01800
C 	C 	0.14573 0.09369 0.44878 -0.04800
H 	H 	0.24798 0.17695 0.40853 0.04800
H 	H 	0.29173 0.07347 0.51685 0.04600
H 	H 	0.41774 0.15717 0.51086 0.04600
H 	H 	0.12654 0.11121 0.42722 0.04900
H 	H 	0.00954 0.16062 0.99105 0.05400
C 	C 	0.22313 0.07786 0.95913 0.00200
C 	C 	0.27575 0.08434 0.94372 -0.05600
C 	C 	0.33876 0.14208 0.95957 0.01700
C 	C 	0.34707 0.19352 0.98673 -0.00400
C 	C 	0.29407 0.18683 0.00185 -0.05000
C 	C 	0.23135 0.12871 0.98644 0.02000
S 	S 	0.14474 0.02623 0.93572 0.00500
C 	C 	0.11779 0.06472 0.95999 -0.01700
C 	C 	0.17199 0.12110 0.98760 -0.05100
S 	S 	0.42415 0.24163 0.01321 0.01800
C 	C 	0.44976 0.20058 0.99146 -0.07500
C 	C 	0.39714 0.14690 0.96149 -0.02200
H 	H 	0.26844 0.04483 0.92208 0.04600
H 	H 	0.30128 0.22578 0.02408 0.04600
H 	H 	0.16854 0.15427 0.00833 0.05300
H 	H 	0.40031 0.11209 0.94259 0.03600
C 	C 	0.50709 0.26089 0.46925 0.28900
C 	C 	0.96761 0.03239 0.99318 0.10100
C 	C 	0.94731 0.93274 0.96771 0.11600
N 	N 	0.92699 0.96655 0.98515 -0.13100
C 	C 	0.94084 0.00188 0.46092 0.10900
N 	N 	0.90764 0.93706 0.45925 -0.13200
C 	C 	0.94107 0.91177 0.46459 0.11700
Cu	Cu	0.64325 0.24696 0.00848 0.92800
Cu	Cu	0.69745 0.24795 0.91865 0.87000
Cu	Cu	0.67916 0.34697 0.95048 0.89600
Cu	Cu	0.63763 0.36383 0.03292 0.89600
C 	C 	0.65688 0.29662 0.09732 0.30300
O 	O 	0.54584 0.20420 0.00547 -0.35400
C 	C 	0.66092 0.29951 0.85728 0.28700
O 	O 	0.69291 0.34707 0.01090 -0.63800
O 	O 	0.63601 0.25216 0.94661 -0.64200
O 	O 	0.68877 0.20515 0.00916 -0.36500
O 	O 	0.75979 0.27133 0.96812 -0.43700
O 	O 	0.62661 0.32104 0.08395 -0.38400
O 	O 	0.72566 0.43997 0.95877 -0.38100
C 	C 	0.71685 0.47399 0.98692 0.28700
C 	C 	0.51880 0.23037 0.99001 0.27900
O 	O 	0.55629 0.28961 0.98270 -0.39000
O 	O 	0.67160 0.44593 0.01113 -0.38700
O 	O 	0.66307 0.25936 0.07015 -0.35900
C 	C 	0.74455 0.23169 0.99535 0.27500
O 	O 	0.68109 0.34870 0.88835 -0.38600
O 	O 	0.65570 0.24807 0.86577 -0.42000
H 	H 	0.73944 0.37658 0.02560 0.16500
H 	H 	0.59070 0.22434 0.92976 0.17300
Cu	Cu	0.73938 0.33905 0.45079 0.92800
Cu	Cu	0.73354 0.27544 0.53644 0.87000
Cu	Cu	0.63472 0.29667 0.50668 0.89700
Cu	Cu	0.62142 0.34541 0.42713 0.89500
C 	C 	0.68987 0.32849 0.36279 0.28500
O 	O 	0.78167 0.43509 0.45763 -0.36200
C 	C 	0.67842 0.30645 0.59900 0.30500
O 	O 	0.63745 0.28868 0.44651 -0.64000
O 	O 	0.73091 0.33964 0.51207 -0.64100
O 	O 	0.78400 0.29701 0.44858 -0.37200
O 	O 	0.71481 0.21918 0.48481 -0.43800
O 	O 	0.66648 0.35948 0.37673 -0.38300
O 	O 	0.54060 0.25066 0.49698 -0.38000
C 	C 	0.75522 0.46007 0.47578 0.28300
O 	O 	0.69388 0.42199 0.48041 -0.38900
O 	O 	0.53667 0.30852 0.44735 -0.39000
O 	O 	0.73043 0.32506 0.38925 -0.35900
C 	C 	0.75638 0.23922 0.45818 0.28700
O 	O 	0.62988 0.28868 0.56770 -0.38700
O 	O 	0.73006 0.31036 0.59096 -0.42000
H 	H 	0.60823 0.24362 0.43014 0.16300
H 	H 	0.75857 0.38304 0.53082 0.17300
C 	C 	0.65414 0.31217 0.72415 0.01200
C 	C 	0.69844 0.36818 0.75547 -0.05700
C 	C 	0.69772 0.36525 0.79924 0.01000
C 	C 	0.66953 0.31052 0.64286 -0.10600
C 	C 	0.60597 0.25104 0.78038 0.01000
C 	C 	0.60661 0.25413 0.73667 -0.05800
C 	C 	0.66229 0.31220 0.67984 0.03700
C 	C 	0.65298 0.30604 0.81192 -0.08600
H 	H 	0.73503 0.41338 0.74602 0.04500
H 	H 	0.73400 0.40818 0.82322 0.03500
H 	H 	0.57042 0.20535 0.78972 0.03000
H 	H 	0.57175 0.21078 0.71262 0.04500
C 	C 	0.67461 0.29558 0.22622 0.01500
C 	C 	0.73485 0.32336 0.25330 -0.05700
C 	C 	0.73946 0.33150 0.29810 0.01500
C 	C 	0.66610 0.29551 0.14246 -0.09600
C 	C 	0.62316 0.28226 0.28871 0.01000
C 	C 	0.61857 0.27379 0.24402 -0.05600
C 	C 	0.67127 0.29519 0.18060 0.03800
C 	C 	0.68384 0.31233 0.31599 -0.08100
H 	H 	0.77839 0.34026 0.23977 0.04800
H 	H 	0.78660 0.35476 0.31881 0.04100
H 	H 	0.57983 0.26669 0.30215 0.02300
H 	H 	0.57178 0.25202 0.22327 0.04800
C 	C 	0.79789 0.63143 0.48351 0.00200
C 	C 	0.80980 0.69052 0.49892 -0.05900
C 	C 	0.86065 0.74590 0.48552 0.02500
C 	C 	0.90121 0.74226 0.46060 0.00000
C 	C 	0.88942 0.68325 0.44544 -0.05500
C 	C 	0.83863 0.62802 0.45879 0.01500
S 	S 	0.75919 0.56614 0.50599 0.01700
C 	C 	0.79082 0.53059 0.48471 -0.07700
C 	C 	0.83427 0.57107 0.45899 -0.02100
S 	S 	0.93771 0.80597 0.43667 0.00700
C 	C 	0.90588 0.84145 0.45745 -0.01700
C 	C 	0.86413 0.80240 0.48443 -0.04800
H 	H 	0.77900 0.69284 0.51895 0.04800
H 	H 	0.91991 0.68077 0.42519 0.04700
H 	H 	0.86015 0.55905 0.44021 0.04700
H 	H 	0.83833 0.81471 0.50304 0.04900
C 	C 	0.83405 0.06457 0.46495 -0.01200
C 	C 	0.77880 0.06383 0.45831 -0.05300
C 	C 	0.78477 0.11445 0.44094 0.01100
C 	C 	0.84298 0.16110 0.42745 0.00100
C 	C 	0.89835 0.16199 0.43431 -0.06200
C 	C 	0.89243 0.11153 0.45181 0.02600
S 	S 	0.83213 0.99968 0.46742 0.02300
C 	C 	0.90459 0.02881 0.45307 -0.02700
C 	C 	0.93307 0.09203 0.44607 -0.04800
S 	S 	0.84530 0.22623 0.42571 0.02000
C 	C 	0.77244 0.19725 0.43932 -0.08000
C 	C 	0.74492 0.13471 0.44767 -0.02300
H 	H 	0.73355 0.02657 0.46771 0.04100
H 	H 	0.94370 0.19940 0.42509 0.04600
H 	H 	0.97942 0.12140 0.43529 0.04700
H 	H 	0.70331 0.10908 0.46371 0.03700
C 	C 	0.87916 0.75189 0.95903 0.00200
C 	C 	0.85634 0.68877 0.94225 -0.05700
C 	C 	0.80328 0.63775 0.95744 0.01700
C 	C 	0.77097 0.65000 0.98564 -0.00700
C 	C 	0.79358 0.71324 0.00196 -0.04900
C 	C 	0.84686 0.76409 0.98695 0.02000
S 	S 	0.92314 0.81587 0.93594 0.00500
C 	C 	0.90441 0.86159 0.96084 -0.01600
C 	C 	0.86170 0.82624 0.98858 -0.05000
S 	S 	0.73116 0.58800 0.01113 0.02900
C 	C 	0.75178 0.54359 0.98723 -0.07900
C 	C 	0.79123 0.57696 0.95759 -0.01900
H 	H 	0.88085 0.67992 0.91989 0.04600
H 	H 	0.76964 0.72235 0.02469 0.04700
H 	H 	0.84285 0.84478 0.00939 0.05400
H 	H 	0.81281 0.55973 0.93851 0.04400
C 	C 	0.86894 0.09547 0.02934 0.00300
C 	C 	0.81087 0.09020 0.02475 -0.05900
C 	C 	0.81212 0.13995 0.00970 0.02100
C 	C 	0.86827 0.19040 0.99675 -0.00900
C 	C 	0.92643 0.19608 0.00144 -0.05000
C 	C 	0.92540 0.14628 0.01634 0.02200
S 	S 	0.87227 0.03323 0.02756 -0.00100
C 	C 	0.94578 0.06873 0.01316 -0.01100
C 	C 	0.96882 0.13129 0.00718 -0.05600
S 	S 	0.86275 0.25081 0.99487 0.00300
C 	C 	0.78891 0.21529 0.00899 -0.06700
C 	C 	0.76663 0.15323 0.01594 -0.02900
H 	H 	0.76696 0.04973 0.03347 0.04700
H 	H 	0.96991 0.23614 0.99206 0.04000
H 	H 	0.71931 0.11876 0.02425 0.04600
