data_crystal

_cell_length_a 25.38070
_cell_length_b 27.40297
_cell_length_c 37.02342
_cell_angle_alpha 60.92919
_cell_angle_beta  118.77879
_cell_angle_gamma 133.25562

_symmetry_space_group_name_	'P 1'
_symmetry_space_group_name_H-M	'P 1'

loop_
_symmetry_equiv_pos_as_xyz
  x,y,z

loop_
_atom_site_label
_atom_site_type_symbol
_atom_site_fract_x
_atom_site_fract_y
_atom_site_fract_z
_atom_site_charge
O 	O 	0.96466 0.08766 0.17132 -0.40200
O 	O 	0.00265 0.90587 0.10380 -0.76600
Co	Co	0.05331 0.09764 0.58858 1.18900
O 	O 	0.13044 0.93987 0.55901 -0.37700
O 	O 	0.04047 0.18731 0.60696 -0.40300
C 	C 	0.05963 0.98427 0.83788 -0.02100
C 	C 	0.10782 0.02824 0.95708 -0.00400
C 	C 	0.10355 0.03654 0.91552 -0.07200
C 	C 	0.04907 0.97191 0.01667 0.29800
O 	O 	0.02290 0.99324 0.02438 -0.37100
Co	Co	0.05417 0.91543 0.64780 1.18900
C 	C 	0.11992 0.98660 0.52859 0.30300
O 	O 	0.14416 0.04255 0.53619 -0.39600
O 	O 	0.10114 0.83771 0.64108 -0.40200
C 	C 	0.99854 0.95618 0.35660 0.02000
C 	C 	0.03058 0.96557 0.40043 0.00400
C 	C 	0.09269 0.98264 0.48386 -0.03800
C 	C 	0.05677 0.99358 0.79637 0.03300
O 	O 	0.11461 0.96718 0.61658 -0.76000
Co	Co	0.03247 0.98820 0.08478 1.19700
O 	O 	0.03614 0.79903 0.15854 -0.39500
C 	C 	0.04306 0.98226 0.97227 -0.05700
Co	Co	0.05969 0.87664 0.10261 1.16900
O 	O 	0.03161 0.06852 0.07082 -0.47100
Co	Co	0.13662 0.04582 0.58870 1.18100
O 	O 	0.12648 0.12383 0.56273 -0.46900
C 	C 	0.10935 0.20691 0.62251 0.30600
H 	H 	0.95537 0.66567 0.21825 0.03700
C 	C 	0.01742 0.98657 0.28810 0.05200
O 	O 	0.02512 0.84684 0.18798 -0.39200
C 	C 	0.04478 0.00172 0.45494 -0.06300
C 	C 	0.04580 0.99598 0.32910 -0.03600
H 	H 	0.08847 0.96323 0.86475 0.05000
O 	O 	0.09179 0.95342 0.04731 -0.39300
C 	C 	0.07952 0.94779 0.42900 -0.04200
C 	C 	0.11249 0.95816 0.47004 0.01000
C 	C 	0.04342 0.80920 0.19242 0.30600
O 	O 	0.12623 0.16958 0.62455 -0.39800
O 	O 	0.13338 0.91930 0.70440 -0.38300
C 	C 	0.09809 0.98047 0.79050 0.08800
H 	H 	0.13257 0.33479 0.58434 0.04400
S 	S 	0.10980 0.76687 0.74021 0.02700
H 	H 	0.09066 0.64550 0.74481 0.05000
C 	C 	0.02071 0.12548 0.15388 0.30700
H 	H 	0.01888 0.24029 0.11234 0.04100
Co	Co	0.18180 0.94310 0.62247 1.17300
O 	O 	0.03427 0.09572 0.14364 -0.39600
H 	H 	0.96933 0.56582 0.25147 0.04100
H 	H 	0.09324 0.92722 0.41889 0.05200
C 	C 	0.00806 0.69277 0.24010 -0.00700
C 	C 	0.03401 0.99633 0.88928 0.08000
C 	C 	0.17047 0.08740 0.89976 0.09300
C 	C 	0.06817 0.02440 0.26171 0.05100
H 	H 	0.16146 0.05815 0.97749 0.03900
C 	C 	0.16467 0.32820 0.61655 -0.01800
H 	H 	0.15300 0.43016 0.60231 0.04800
H 	H 	0.04450 0.33904 0.12957 0.04900
C 	C 	0.05291 0.76468 0.23406 -0.07700
C 	C 	0.01496 0.99473 0.41313 0.03500
H 	H 	0.10491 0.03369 0.33988 0.03400
C 	C 	0.17960 0.90667 0.71139 0.29800
N 	N 	0.13130 0.96994 0.78594 -0.10300
C 	C 	0.16697 0.27075 0.63723 -0.07800
C 	C 	0.14305 0.67871 0.76434 -0.05800
C 	C 	0.07984 0.19635 0.15864 -0.07600
C 	C 	0.06563 0.24609 0.13905 -0.02200
C 	C 	0.17129 0.40826 0.63497 -0.05500
C 	C 	0.15724 0.73357 0.77074 0.00400
C 	C 	0.17699 0.84800 0.74567 -0.07600
H 	H 	0.15550 0.59976 0.74565 0.04600
C 	C 	0.09476 0.34489 0.19524 0.00400
C 	C 	0.07913 0.32858 0.15932 -0.05600
C 	C 	0.02370 0.59971 0.26960 -0.04400
O 	O 	0.13945 0.02720 0.12236 -0.39800
C 	C 	0.16991 0.94778 0.49663 0.08700
C 	C 	0.17134 0.41822 0.66866 0.00300
C 	C 	0.19157 0.36602 0.64462 0.01600
C 	C 	0.10430 0.29307 0.16388 0.02000
S 	S 	0.09468 0.40585 0.19455 -0.00500
C 	C 	0.04594 0.66251 0.27007 0.01100
N 	N 	0.10901 0.05447 0.24074 -0.10500
H 	H 	0.10402 0.45114 0.27434 0.05700
O 	O 	0.15638 0.94672 0.13734 -0.36500
O 	O 	0.22474 0.94359 0.68618 -0.38100
N 	N 	0.22410 0.12814 0.88716 -0.12200
S 	S 	0.18161 0.48624 0.66634 -0.00800
O 	O 	0.24271 0.09331 0.62592 -0.40500
S 	S 	0.20175 0.26882 0.68913 0.03400
C 	C 	0.14125 0.33378 0.23353 0.02700
S 	S 	0.13967 0.21252 0.20551 0.04100
S 	S 	0.07243 0.53294 0.27617 -0.00600
H 	H 	0.19049 0.53063 0.75391 0.05300
C 	C 	0.18053 0.01155 0.12530 0.27000
O 	O 	0.26919 0.04648 0.60618 -0.40700
C 	C 	0.21692 0.33943 0.68706 0.00000
C 	C 	0.19811 0.39295 0.71102 0.02700
C 	C 	0.20075 0.67148 0.78117 0.02700
C 	C 	0.20177 0.63153 0.76776 -0.05800
C 	C 	0.15071 0.28141 0.20244 -0.00300
C 	C 	0.14889 0.41728 0.24319 -0.00500
C 	C 	0.07597 0.58524 0.28938 0.00000
N 	N 	0.21590 0.93947 0.51788 -0.11400
C 	C 	0.21850 0.35072 0.72079 -0.05800
C 	C 	0.23020 0.78710 0.78603 0.01700
C 	C 	0.24155 0.85155 0.77165 -0.01500
C 	C 	0.16849 0.30026 0.23795 -0.05700
C 	C 	0.17227 0.37472 0.26067 -0.05800
S 	S 	0.13727 0.78823 0.26553 0.03400
C 	C 	0.15982 0.49270 0.26929 -0.07500
C 	C 	0.29169 0.09264 0.62281 0.30400
C 	C 	0.21647 0.48503 0.71813 -0.00600
C 	C 	0.22343 0.43031 0.73896 -0.05800
H 	H 	0.20224 0.28910 0.26795 0.04800
C 	C 	0.12003 0.71062 0.28839 0.00400
H 	H 	0.23660 0.32873 0.75347 0.05200
C 	C 	0.19253 0.48217 0.25482 0.04000
C 	C 	0.24647 0.56674 0.74912 -0.07600
H 	H 	0.21758 0.38056 0.28843 0.04800
C 	C 	0.16332 0.56762 0.29202 -0.00400
C 	C 	0.02787 0.00426 0.84500 -0.02900
H 	H 	0.25690 0.42549 0.77094 0.05000
C 	C 	0.15111 0.63516 0.30512 0.02900
C 	C 	0.19895 0.55678 0.27712 0.03900
C 	C 	0.26957 0.54921 0.73249 0.03900
C 	C 	0.27110 0.71980 0.80236 0.00500
C 	C 	0.27307 0.64816 0.77941 -0.00400
H 	H 	0.29639 0.90007 0.77434 0.04900
C 	C 	0.17414 0.69933 0.30376 -0.05900
C 	C 	0.28845 0.78103 0.80157 -0.05500
C 	C 	0.25744 0.06676 0.12081 -0.06700
H 	H 	0.23900 0.14260 0.06950 0.04100
C 	C 	0.20027 0.62489 0.30707 -0.05900
C 	C 	0.29612 0.63066 0.75994 0.03800
C 	C 	0.27574 0.12682 0.08752 -0.02500
C 	C 	0.26549 0.53476 0.24953 -0.07700
C 	C 	0.37044 0.15076 0.63005 -0.07700
H 	H 	0.23273 0.74096 0.31116 0.05100
H 	H 	0.29041 0.52669 0.23797 0.05400
S 	S 	0.33220 0.71304 0.80362 -0.00600
H 	H 	0.34570 0.82403 0.81020 0.05100
C 	C 	0.27166 0.60991 0.27072 -0.07500
C 	C 	0.34271 0.59445 0.72779 -0.07600
H 	H 	0.26015 0.66064 0.31615 0.04700
H 	H 	0.41732 0.09275 0.65961 0.03500
S 	S 	0.31520 0.04911 0.13071 0.00900
C 	C 	0.30562 0.59827 0.25817 0.04000
H 	H 	0.36018 0.58099 0.71464 0.05700
S 	S 	0.40106 0.22980 0.59784 0.02800
C 	C 	0.42698 0.14271 0.64459 -0.01700
C 	C 	0.36906 0.67631 0.75418 -0.07600
H 	H 	0.30184 0.66025 0.27522 0.05400
C 	C 	0.33537 0.15340 0.07279 0.01600
C 	C 	0.39274 0.65755 0.73911 0.04000
H 	H 	0.32709 0.22831 0.01520 0.04900
H 	H 	0.40760 0.72619 0.76156 0.05700
C 	C 	0.34685 0.19642 0.03210 -0.05600
C 	C 	0.36443 0.11482 0.09507 0.00300
C 	C 	0.38348 0.65272 0.25449 -0.00500
C 	C 	0.49143 0.20226 0.62884 0.01500
C 	C 	0.38031 0.19365 0.01288 0.00100
O 	O 	0.02250 0.99672 0.70729 -0.36600
Co	Co	0.95884 0.03623 0.09971 1.17300
C 	C 	0.94017 0.93928 0.27347 -0.09200
O 	O 	0.93044 0.92284 0.21137 -0.39600
C 	C 	0.92208 0.90547 0.34298 -0.04000
C 	C 	0.89306 0.89859 0.30122 0.01700
C 	C 	0.01286 0.03106 0.71642 0.27100
O 	O 	0.01619 0.08613 0.68871 -0.38400
C 	C 	0.90756 0.93596 0.22854 0.31100
C 	C 	0.64495 0.29943 0.95568 0.03800
C 	C 	0.57032 0.26360 0.95482 -0.07700
C 	C 	0.55196 0.28275 0.97338 0.03900
C 	C 	0.60725 0.34235 0.98893 -0.07500
C 	C 	0.68138 0.38064 0.98798 0.04000
C 	C 	0.70038 0.35915 0.97155 -0.07700
H 	H 	0.52679 0.21894 0.94139 0.05300
H 	H 	0.59320 0.35737 0.00330 0.05500
H 	H 	0.75812 0.38789 0.97214 0.05500
C 	C 	0.77134 0.36717 0.47746 0.03600
C 	C 	0.71190 0.32577 0.49700 -0.07500
C 	C 	0.70487 0.35511 0.51518 0.03800
C 	C 	0.75839 0.42525 0.51514 -0.07700
C 	C 	0.81712 0.46687 0.49554 0.03900
C 	C 	0.82269 0.43841 0.47586 -0.07600
H 	H 	0.67122 0.27114 0.49809 0.05400
H 	H 	0.75520 0.44728 0.53105 0.05500
H 	H 	0.86668 0.47166 0.45934 0.05200
Co	Co	0.87324 0.89874 0.15291 1.18700
Co	Co	0.94427 0.85049 0.13583 1.18800
Co	Co	0.85722 0.01140 0.14608 1.15300
C 	C 	0.89394 0.76512 0.07997 0.29500
O 	O 	0.86125 0.08377 0.08836 -0.40500
O 	O 	0.89206 0.97743 0.12734 -0.74700
C 	C 	0.85437 0.07805 0.05275 0.29600
O 	O 	0.87431 0.81850 0.16668 -0.46700
C 	C 	0.72648 0.86846 0.14102 0.29400
O 	O 	0.92698 0.93461 0.10265 -0.57300
O 	O 	0.90161 0.07492 0.04962 -0.39300
O 	O 	0.75141 0.93346 0.12232 -0.38200
O 	O 	0.75925 0.84414 0.14382 -0.37600
O 	O 	0.85386 0.94381 0.20632 -0.39700
O 	O 	0.95749 0.80956 0.06782 -0.38500
O 	O 	0.88822 0.76502 0.11393 -0.38300
Co	Co	0.97467 0.96890 0.65009 1.19400
Co	Co	0.95285 0.08576 0.62672 1.15900
C 	C 	0.02943 0.80835 0.62524 0.31400
O 	O 	0.89713 0.08342 0.56395 -0.39800
O 	O 	0.99153 0.04504 0.61885 -0.78700
C 	C 	0.93301 0.12396 0.53313 0.29300
O 	O 	0.97832 0.88771 0.67200 -0.46400
C 	C 	0.82608 0.93434 0.63494 0.30600
O 	O 	0.03053 0.99475 0.60455 -0.56700
O 	O 	0.99072 0.12943 0.53508 -0.38200
O 	O 	0.86340 0.98851 0.64913 -0.39300
O 	O 	0.86083 0.91695 0.63200 -0.38400
O 	O 	0.99708 0.82905 0.62732 -0.39400
C 	C 	0.99014 0.03131 0.81007 -0.03300
C 	C 	0.01695 0.01895 0.76121 -0.08200
C 	C 	0.98303 0.03651 0.76868 -0.00700
C 	C 	0.96940 0.94969 0.90477 -0.07500
C 	C 	0.97331 0.94425 0.94549 0.02500
C 	C 	0.90540 0.90109 0.95909 0.07700
C 	C 	0.96019 0.05557 0.81637 0.07300
N 	N 	0.85101 0.86682 0.96993 -0.11100
N 	N 	0.93621 0.07499 0.82143 -0.12000
H 	H 	0.95216 0.05565 0.74205 0.03300
H 	H 	0.91587 0.91891 0.88467 0.06200
C 	C 	0.96942 0.01856 0.38330 0.03800
C 	C 	0.87345 0.85941 0.37190 0.09300
N 	N 	0.93292 0.03763 0.35939 -0.11200
N 	N 	0.83456 0.82252 0.39510 -0.11700
H 	H 	0.83385 0.86125 0.29034 0.04000
H 	H 	0.03047 0.02178 0.46504 0.05000
C 	C 	0.58113 0.74519 0.71803 0.00400
C 	C 	0.62230 0.74414 0.70382 -0.05400
C 	C 	0.64866 0.79413 0.66730 0.01600
C 	C 	0.62783 0.83936 0.64373 0.00300
C 	C 	0.58528 0.83931 0.65759 -0.05800
C 	C 	0.56017 0.79012 0.69451 0.02900
S 	S 	0.52122 0.67789 0.74823 -0.00700
C 	C 	0.46994 0.70464 0.73483 -0.00400
C 	C 	0.49744 0.76741 0.70391 -0.05900
S 	S 	0.69215 0.90931 0.61688 0.03000
C 	C 	0.74581 0.88456 0.63170 -0.07400
C 	C 	0.71458 0.81925 0.66017 -0.01600
H 	H 	0.63654 0.70798 0.72172 0.04900
H 	H 	0.57139 0.87573 0.63994 0.05200
H 	H 	0.46711 0.78985 0.68461 0.05000
H 	H 	0.74499 0.79699 0.68058 0.04400
C 	C 	0.59755 0.75303 0.21812 0.00100
C 	C 	0.54854 0.69597 0.24436 -0.05800
C 	C 	0.49881 0.69913 0.24843 0.02800
C 	C 	0.49525 0.75575 0.22418 0.00500
C 	C 	0.53584 0.80683 0.19288 -0.05500
C 	C 	0.58916 0.80600 0.19113 0.01800
S 	S 	0.64447 0.75323 0.19863 0.02800
C 	C 	0.65863 0.82123 0.15671 -0.07200
C 	C 	0.62372 0.84469 0.15674 -0.02300
S 	S 	0.41411 0.73216 0.22273 -0.00500
C 	C 	0.43561 0.64080 0.26549 -0.05800
H 	H 	0.54724 0.65004 0.25971 0.04900
H 	H 	0.52414 0.84382 0.16969 0.05000
H 	H 	0.62567 0.88948 0.13384 0.04700
H 	H 	0.42496 0.59048 0.28103 0.04700
C 	C 	0.89425 0.26008 0.45467 0.00100
C 	C 	0.90469 0.31937 0.45109 -0.06100
C 	C 	0.84206 0.31407 0.44496 0.02600
C 	C 	0.77155 0.25012 0.44406 0.00400
C 	C 	0.76357 0.18921 0.45453 -0.05800
C 	C 	0.82563 0.19485 0.45903 0.01400
S 	S 	0.96035 0.24787 0.47934 0.01800
C 	C 	0.90638 0.16161 0.49469 -0.07400
C 	C 	0.83244 0.13949 0.48162 -0.02200
S 	S 	0.71756 0.25425 0.45398 -0.01600
C 	C 	0.77884 0.33658 0.45769 -0.00300
C 	C 	0.84653 0.36268 0.45292 -0.06000
H 	H 	0.96012 0.36670 0.45577 0.04700
H 	H 	0.71245 0.13913 0.46169 0.04400
H 	H 	0.78745 0.08753 0.49363 0.04100
H 	H 	0.89895 0.40992 0.46116 0.04500
C 	C 	0.96021 0.65271 0.59455 -0.00400
C 	C 	0.97654 0.62033 0.58618 -0.06500
C 	C 	0.94898 0.61193 0.54492 0.02800
C 	C 	0.91343 0.64250 0.51214 0.00400
C 	C 	0.89983 0.67740 0.52042 -0.05500
C 	C 	0.92514 0.68342 0.56205 0.01700
S 	S 	0.00803 0.69028 0.63439 0.03600
C 	C 	0.98292 0.74319 0.61354 -0.08600
C 	C 	0.93774 0.73450 0.57261 -0.01500
S 	S 	0.85655 0.59662 0.47592 -0.00500
C 	C 	0.87563 0.53900 0.49853 -0.00700
C 	C 	0.92891 0.55485 0.53679 -0.06000
H 	H 	0.00541 0.59834 0.61150 0.05300
H 	H 	0.87050 0.69906 0.49530 0.05300
H 	H 	0.92505 0.77077 0.54926 0.04400
H 	H 	0.94094 0.51870 0.56143 0.04600
C 	C 	0.59065 0.25475 0.59924 0.00300
C 	C 	0.54350 0.19987 0.62685 -0.05500
C 	C 	0.48534 0.25702 0.60221 0.00200
C 	C 	0.52459 0.30564 0.57011 -0.05900
C 	C 	0.57854 0.30462 0.56939 0.02700
S 	S 	0.63523 0.25080 0.58055 -0.01400
C 	C 	0.64234 0.31200 0.53518 -0.00400
C 	C 	0.60788 0.33715 0.53351 -0.06000
H 	H 	0.54406 0.15497 0.64416 0.04400
H 	H 	0.51008 0.33977 0.54492 0.04900
H 	H 	0.60564 0.37838 0.50792 0.04800
C 	C 	0.71187 0.11774 0.96980 0.00700
C 	C 	0.65561 0.12181 0.96289 -0.06300
C 	C 	0.66947 0.18696 0.94546 0.02700
C 	C 	0.73957 0.24654 0.93738 0.00300
C 	C 	0.79898 0.24321 0.95031 -0.05500
C 	C 	0.78392 0.17769 0.96546 0.01200
S 	S 	0.71904 0.05422 0.00487 0.00600
C 	C 	0.81069 0.09763 0.01350 -0.07600
C 	C 	0.83967 0.16637 0.99018 -0.01300
S 	S 	0.74889 0.31415 0.93522 -0.01200
C 	C 	0.66463 0.27194 0.94190 -0.00400
C 	C 	0.62733 0.20110 0.94809 -0.06000
H 	H 	0.60466 0.07656 0.97325 0.04600
H 	H 	0.85550 0.28975 0.95101 0.04700
H 	H 	0.89854 0.20810 0.99597 0.04100
H 	H 	0.57783 0.16108 0.96057 0.04400
C 	C 	0.78744 0.51681 0.05016 0.00500
C 	C 	0.78437 0.53715 0.07682 -0.05800
C 	C 	0.78506 0.59578 0.05993 0.01800
C 	C 	0.78292 0.62929 0.01660 -0.00400
C 	C 	0.78504 0.60836 0.98983 -0.05200
C 	C 	0.78443 0.54982 0.00677 0.02000
S 	S 	0.75485 0.43678 0.05648 -0.01100
C 	C 	0.73958 0.44149 0.00591 -0.01000
C 	C 	0.75763 0.50756 0.98180 -0.05300
S 	S 	0.81850 0.71008 0.01085 0.03500
C 	C 	0.83363 0.70526 0.06140 -0.07200
C 	C 	0.81282 0.63822 0.08511 -0.02000
H 	H 	0.78434 0.50991 0.10998 0.04700
H 	H 	0.78521 0.63563 0.95669 0.04800
H 	H 	0.74037 0.52029 0.94743 0.04700
H 	H 	0.82954 0.62483 0.11949 0.04400
C 	C 	0.39778 0.11213 0.07571 -0.06300
C 	C 	0.40692 0.15323 0.03453 0.02700
S 	S 	0.42749 0.25739 0.97575 -0.00200
C 	C 	0.47878 0.23373 0.98354 -0.00400
C 	C 	0.46175 0.17525 0.01777 -0.06200
H 	H 	0.41705 0.07985 0.09243 0.04400
H 	H 	0.49617 0.15699 0.03432 0.04500
