data_crystal

_cell_length_a 18.29932
_cell_length_b 18.81973
_cell_length_c 34.83948
_cell_angle_alpha 95.43423
_cell_angle_beta  95.43429
_cell_angle_gamma 126.42396

_symmetry_space_group_name_	'P 1'
_symmetry_space_group_name_H-M	'P 1'

loop_
_symmetry_equiv_pos_as_xyz
  x,y,z

loop_
_atom_site_label
_atom_site_type_symbol
_atom_site_fract_x
_atom_site_fract_y
_atom_site_fract_z
_atom_site_charge
C 	C 	0.89613 0.94998 0.96934 0.18600
N 	N 	0.85403 0.86040 0.96636 -0.08500
C 	C 	0.90535 0.82984 0.96550 0.19400
N 	N 	0.99802 0.88873 0.96734 -0.08700
C 	C 	0.04016 0.97818 0.97141 0.22000
N 	N 	0.98897 0.00843 0.97202 -0.11600
C 	C 	0.93698 0.05796 0.48629 0.16400
N 	N 	0.03085 0.11411 0.49040 -0.07300
C 	C 	0.07740 0.07898 0.48636 0.18700
N 	N 	0.03058 0.98877 0.47955 -0.08300
C 	C 	0.93770 0.93312 0.47657 0.17700
N 	N 	0.89105 0.96773 0.48023 -0.08500
Cu	Cu	0.74763 0.29608 0.95856 0.94200
Cu	Cu	0.69930 0.20405 0.03620 0.89200
Cu	Cu	0.61211 0.27808 0.00725 0.91200
Cu	Cu	0.57902 0.29341 0.92372 0.92900
C 	C 	0.69680 0.27753 0.87537 0.33600
O 	O 	0.80254 0.42818 0.95840 -0.30300
C 	C 	0.65444 0.29195 0.09200 0.32700
O 	O 	0.60540 0.23073 0.95366 -0.63400
O 	O 	0.73678 0.30909 0.01389 -0.63900
O 	O 	0.80266 0.23114 0.96392 -0.28800
O 	O 	0.68365 0.12746 0.99133 -0.38000
O 	O 	0.65792 0.31628 0.88361 -0.34000
O 	O 	0.49333 0.25729 0.00052 -0.31000
C 	C 	0.42913 0.21377 0.96841 0.29600
C 	C 	0.76029 0.46287 0.96877 0.29100
O 	O 	0.67159 0.40959 0.97011 -0.32500
O 	O 	0.45102 0.22212 0.93330 -0.29100
O 	O 	0.73672 0.26226 0.90339 -0.29000
C 	C 	0.75402 0.15180 0.97423 0.30700
O 	O 	0.62605 0.31620 0.06322 -0.30400
O 	O 	0.69698 0.25559 0.08611 -0.36000
H 	H 	0.56234 0.16432 0.94626 0.20300
H 	H 	0.78542 0.36804 0.03101 0.24300
Cu	Cu	0.63041 0.25866 0.51591 0.93600
Cu	Cu	0.63818 0.19904 0.42488 0.90700
Cu	Cu	0.64787 0.37374 0.45592 0.92500
Cu	Cu	0.65637 0.44010 0.54085 0.94000
C 	C 	0.68477 0.34607 0.59850 0.33600
O 	O 	0.50115 0.20934 0.52511 -0.29600
C 	C 	0.63832 0.31523 0.37737 0.33400
O 	O 	0.70241 0.39414 0.50950 -0.63400
O 	O 	0.59052 0.24582 0.45883 -0.62200
O 	O 	0.69993 0.20643 0.51467 -0.29300
O 	O 	0.62212 0.11473 0.45501 -0.35300
O 	O 	0.69980 0.42060 0.59056 -0.30300
O 	O 	0.71331 0.49878 0.45357 -0.32300
C 	C 	0.73317 0.56000 0.48321 0.30700
C 	C 	0.46544 0.25158 0.51843 0.30100
O 	O 	0.51664 0.33226 0.51009 -0.33500
O 	O 	0.68557 0.53746 0.51180 -0.30000
O 	O 	0.67902 0.28803 0.57126 -0.29800
C 	C 	0.68244 0.14259 0.48713 0.31100
O 	O 	0.60589 0.34615 0.39985 -0.33300
O 	O 	0.68790 0.29251 0.39343 -0.37300
H 	H 	0.77071 0.43092 0.51431 0.22700
H 	H 	0.52240 0.20841 0.45122 0.18800
C 	C 	0.71823 0.27496 0.83587 -0.08300
C 	C 	0.79407 0.35382 0.82615 0.13500
C 	C 	0.79785 0.36203 0.78656 0.07300
C 	C 	0.72730 0.29000 0.75673 0.02600
C 	C 	0.65926 0.20669 0.76647 0.07400
C 	C 	0.65426 0.19943 0.80615 0.13100
C 	C 	0.71744 0.30558 0.71626 0.02300
C 	C 	0.66312 0.33329 0.70539 0.07700
C 	C 	0.65716 0.35266 0.66770 0.12900
C 	C 	0.70342 0.34160 0.64029 -0.07800
C 	C 	0.76505 0.32273 0.65266 0.13800
C 	C 	0.76740 0.29913 0.68963 0.07700
Br	Br	0.57090 0.10421 0.72543 -0.04500
Br	Br	0.89109 0.45129 0.86720 -0.08500
Br	Br	0.59291 0.40203 0.65525 -0.01700
Br	Br	0.83826 0.25712 0.70371 -0.04700
Br	Br	0.55831 0.08739 0.81990 -0.05200
Br	Br	0.89618 0.47355 0.77316 -0.06100
Br	Br	0.59706 0.34498 0.74240 -0.06000
Br	Br	0.85673 0.34410 0.62216 -0.05400
C 	C 	0.65010 0.31705 0.13270 -0.08500
C 	C 	0.56394 0.28192 0.14363 0.12800
C 	C 	0.55846 0.29080 0.18364 0.07400
C 	C 	0.63758 0.32865 0.21263 0.02300
C 	C 	0.72434 0.36818 0.20166 0.07300
C 	C 	0.73100 0.36685 0.16178 0.13100
C 	C 	0.62888 0.32273 0.25432 0.02500
C 	C 	0.65511 0.39849 0.28107 0.06900
C 	C 	0.66125 0.39750 0.32155 0.13600
C 	C 	0.62978 0.31685 0.33490 -0.10200
C 	C 	0.59457 0.23845 0.30754 0.13300
C 	C 	0.59877 0.24264 0.26764 0.07100
Br	Br	0.83305 0.41980 0.24107 -0.07500
Br	Br	0.45303 0.21789 0.10409 -0.06800
Br	Br	0.72115 0.50837 0.35849 -0.08200
Br	Br	0.56653 0.13981 0.23147 -0.07200
Br	Br	0.85072 0.43705 0.14692 -0.06600
Br	Br	0.44273 0.25020 0.19888 -0.04300
Br	Br	0.68273 0.50350 0.26213 -0.04000
Br	Br	0.53683 0.12460 0.32446 -0.14300
C 	C 	0.91817 0.81078 0.50653 0.04100
C 	C 	0.89030 0.83709 0.47561 0.06800
C 	C 	0.81708 0.77138 0.44452 -0.09300
C 	C 	0.76550 0.68050 0.44774 0.07600
C 	C 	0.79187 0.65444 0.47930 0.01200
C 	C 	0.87222 0.71953 0.50769 -0.07200
C 	C 	0.90705 0.69210 0.54004 0.77700
H 	H 	0.97503 0.86176 0.52997 0.10600
H 	H 	0.70379 0.62997 0.42612 0.10800
C 	C 	0.79156 0.79784 0.40869 0.78700
F 	F 	0.99661 0.76240 0.55863 -0.40000
F 	F 	0.90697 0.62151 0.52464 -0.43900
F 	F 	0.85060 0.66589 0.56769 -0.42500
F 	F 	0.87024 0.86400 0.39598 -0.36300
F 	F 	0.74271 0.82952 0.41801 -0.38700
F 	F 	0.73724 0.72516 0.37786 -0.38600
C 	C 	0.83578 0.07769 0.52023 0.03200
C 	C 	0.88443 0.09403 0.48926 0.07500
C 	C 	0.86725 0.12738 0.45765 -0.09600
C 	C 	0.80035 0.14227 0.45753 0.07500
C 	C 	0.74846 0.12151 0.48752 -0.00400
C 	C 	0.76426 0.08632 0.51866 -0.05700
C 	C 	0.70471 0.05718 0.54998 0.77600
H 	H 	0.85059 0.05363 0.54461 0.11000
H 	H 	0.78860 0.17042 0.43415 0.06300
C 	C 	0.92004 0.14699 0.42407 0.77400
F 	F 	0.71579 0.00524 0.57173 -0.39400
F 	F 	0.61218 0.00639 0.53287 -0.39700
F 	F 	0.72900 0.13216 0.57524 -0.40400
F 	F 	0.90554 0.06970 0.40614 -0.35900
F 	F 	0.01351 0.21250 0.43836 -0.36800
F 	F 	0.89221 0.17746 0.39580 -0.39800
C 	C 	0.31554 0.16402 0.47249 0.07400
C 	C 	0.36436 0.20168 0.51128 0.00800
C 	C 	0.32032 0.20807 0.54126 -0.06600
C 	C 	0.22830 0.17731 0.53158 0.03700
C 	C 	0.17903 0.13774 0.49297 0.07400
C 	C 	0.22487 0.13655 0.46269 -0.09800
C 	C 	0.17601 0.10226 0.42007 0.78700
H 	H 	0.34971 0.15957 0.44965 0.07700
H 	H 	0.19337 0.18034 0.55440 0.11500
C 	C 	0.37311 0.25277 0.58301 0.77700
F 	F 	0.23908 0.13662 0.39510 -0.39500
F 	F 	0.11994 0.12794 0.41262 -0.35400
F 	F 	0.12252 0.00949 0.41185 -0.37700
F 	F 	0.43545 0.34445 0.58481 -0.42000
F 	F 	0.42017 0.21958 0.59458 -0.41400
F 	F 	0.31484 0.23742 0.60914 -0.39300
C 	C 	0.84529 0.70241 0.00079 0.04700
C 	C 	0.86202 0.73395 0.96532 0.07900
C 	C 	0.84884 0.67721 0.93127 -0.09800
C 	C 	0.82295 0.59109 0.93394 0.07300
C 	C 	0.80577 0.55934 0.96934 0.01300
C 	C 	0.81972 0.61633 0.00348 -0.06000
C 	C 	0.80588 0.58508 0.04258 0.77800
H 	H 	0.85460 0.74604 0.02656 0.14300
H 	H 	0.81288 0.54723 0.90809 0.09800
C 	C 	0.86454 0.70911 0.89233 0.78800
F 	F 	0.84358 0.65615 0.07352 -0.38100
F 	F 	0.84825 0.54499 0.04903 -0.42800
F 	F 	0.71238 0.52367 0.04241 -0.40900
F 	F 	0.95831 0.77181 0.89352 -0.40300
F 	F 	0.82112 0.74791 0.88504 -0.40300
F 	F 	0.82953 0.63875 0.86138 -0.40100
C 	C 	0.81295 0.99918 0.93509 0.03700
C 	C 	0.84201 0.98463 0.97024 0.07300
C 	C 	0.83647 0.02035 0.00647 -0.10500
C 	C 	0.81160 0.07822 0.00707 0.07700
C 	C 	0.78580 0.09560 0.97205 -0.00200
C 	C 	0.78238 0.05260 0.93553 -0.06100
C 	C 	0.74953 0.06608 0.89715 0.77600
H 	H 	0.81783 0.97184 0.90749 0.12300
H 	H 	0.81251 0.11023 0.03486 0.07100
C 	C 	0.86241 0.00117 0.04471 0.78700
F 	F 	0.73838 0.00848 0.86526 -0.39300
F 	F 	0.81367 0.15350 0.89224 -0.40500
F 	F 	0.66517 0.04962 0.89740 -0.41700
F 	F 	0.95732 0.04902 0.05377 -0.39200
F 	F 	0.82066 0.91031 0.04122 -0.39300
F 	F 	0.83416 0.02549 0.07546 -0.40000
C 	C 	0.29860 0.09783 0.99697 0.07200
C 	C 	0.33107 0.16081 0.97206 0.01400
C 	C 	0.26885 0.17020 0.95018 -0.06300
C 	C 	0.17358 0.10632 0.94875 0.04800
C 	C 	0.14078 0.04235 0.97320 0.06800
C 	C 	0.20464 0.04252 0.99978 -0.09100
C 	C 	0.17337 0.98293 0.03049 0.78800
H 	H 	0.34660 0.09151 0.01396 0.08500
H 	H 	0.12468 0.10678 0.92882 0.11900
C 	C 	0.30282 0.24697 0.92798 0.77900
F 	F 	0.24677 0.01347 0.06026 -0.39500
F 	F 	0.13649 0.89619 0.01319 -0.39300
F 	F 	0.10774 0.98238 0.04751 -0.37600
F 	F 	0.31798 0.22549 0.89204 -0.39900
F 	F 	0.38386 0.32582 0.94910 -0.40100
F 	F 	0.23811 0.26266 0.92149 -0.38700
