data_crystal

_cell_length_a 30.41587
_cell_length_b 27.58247
_cell_length_c 32.61894
_cell_angle_alpha 92.68237
_cell_angle_beta  85.30590
_cell_angle_gamma 124.23941

_symmetry_space_group_name_	'P 1'
_symmetry_space_group_name_H-M	'P 1'

loop_
_symmetry_equiv_pos_as_xyz
  x,y,z

loop_
_atom_site_label
_atom_site_type_symbol
_atom_site_fract_x
_atom_site_fract_y
_atom_site_fract_z
_atom_site_charge
C 	C 	0.00432 0.05611 0.99815 0.03000
C 	C 	0.96471 0.99847 0.98684 -0.02000
C 	C 	0.95206 0.95067 0.01068 0.02600
C 	C 	0.98331 0.96043 0.04360 -0.02100
C 	C 	0.02606 0.01750 0.05292 0.02900
C 	C 	0.03337 0.06545 0.03230 -0.02600
C 	C 	0.99720 0.09866 0.98333 -0.04900
S 	S 	0.92136 0.00112 0.96077 0.01700
C 	C 	0.92565 0.89250 0.99523 -0.05200
S 	S 	0.97957 0.89888 0.05156 0.01000
C 	C 	0.07215 0.03099 0.07193 -0.05400
S 	S 	0.09609 0.12184 0.03672 0.02000
C 	C 	0.95215 0.07394 0.96044 0.00300
H 	H 	0.01850 0.14349 0.99439 0.05800
C 	C 	0.93820 0.85817 0.01505 0.00300
H 	H 	0.90112 0.87728 0.96918 0.05900
C 	C 	0.11515 0.08963 0.06611 0.00200
H 	H 	0.07572 0.99825 0.08530 0.05200
C 	C 	0.28053 0.15559 0.06610 0.04400
C 	C 	0.24368 0.09728 0.05456 -0.03200
C 	C 	0.18945 0.07509 0.05536 -0.02800
C 	C 	0.17150 0.11075 0.06854 0.01800
C 	C 	0.20824 0.16836 0.08154 -0.02800
C 	C 	0.26253 0.19070 0.08027 -0.03700
H 	H 	0.25727 0.06978 0.04378 0.06400
H 	H 	0.16171 0.03084 0.04464 0.05000
H 	H 	0.19483 0.19614 0.09197 0.05100
H 	H 	0.29072 0.23567 0.08947 0.05900
C 	C 	0.86919 0.15551 0.94702 0.04600
C 	C 	0.88579 0.13650 0.91221 -0.03700
C 	C 	0.91283 0.10972 0.91666 -0.02700
C 	C 	0.92366 0.10204 0.95592 0.01800
C 	C 	0.90668 0.12065 0.99077 -0.02700
C 	C 	0.87944 0.14716 0.98633 -0.03000
H 	H 	0.87769 0.14243 0.88177 0.06000
H 	H 	0.92552 0.09515 0.88962 0.05300
H 	H 	0.91429 0.11423 0.02126 0.04900
H 	H 	0.86624 0.16114 0.01340 0.06200
C 	C 	0.84386 0.67055 0.01166 0.04400
C 	C 	0.81898 0.70072 0.01652 -0.03200
C 	C 	0.84969 0.76198 0.01804 -0.02800
C 	C 	0.90559 0.79357 0.01488 0.01800
C 	C 	0.93041 0.76327 0.01112 -0.02800
C 	C 	0.89965 0.70197 0.00943 -0.03600
H 	H 	0.77589 0.67671 0.01864 0.06200
H 	H 	0.83006 0.78485 0.02170 0.05000
H 	H 	0.97350 0.78721 0.00887 0.05100
H 	H 	0.91915 0.67895 0.00587 0.05900
C 	C 	0.99998 0.03492 0.45601 0.03700
C 	C 	0.95183 0.98166 0.46721 -0.02800
C 	C 	0.94898 0.94878 0.50011 0.03500
C 	C 	0.99577 0.96666 0.51918 -0.02400
C 	C 	0.04525 0.01491 0.50409 0.03200
C 	C 	0.04704 0.04933 0.47280 -0.02800
C 	C 	0.99279 0.07582 0.43811 -0.05500
S 	S 	0.90224 0.98677 0.45602 0.02100
C 	C 	0.90823 0.88844 0.50592 -0.05600
S 	S 	0.98674 0.90804 0.54084 0.01300
C 	C 	0.09089 0.04520 0.52735 -0.05700
S 	S 	0.10298 0.11604 0.47533 0.01400
C 	C 	0.93882 0.05363 0.43499 0.00400
H 	H 	0.02478 0.12115 0.43197 0.05300
C 	C 	0.92350 0.85965 0.52942 0.00500
H 	H 	0.87320 0.86521 0.48829 0.06100
C 	C 	0.12739 0.10352 0.51480 0.00500
H 	H 	0.09680 0.02555 0.55248 0.05600
C 	C 	0.29209 0.18528 0.53431 0.04700
C 	C 	0.25574 0.17522 0.56761 -0.03600
C 	C 	0.20223 0.15051 0.56098 -0.02800
C 	C 	0.18470 0.13570 0.52101 0.01700
C 	C 	0.22138 0.14673 0.48763 -0.02700
C 	C 	0.27484 0.17147 0.49428 -0.03400
H 	H 	0.26879 0.18581 0.59862 0.06100
H 	H 	0.17420 0.14190 0.58696 0.05100
H 	H 	0.20821 0.13456 0.45671 0.05100
H 	H 	0.30271 0.17901 0.46842 0.06300
C 	C 	0.86893 0.15121 0.43251 0.04500
C 	C 	0.91527 0.17380 0.45341 -0.03100
C 	C 	0.93953 0.14320 0.45308 -0.02700
C 	C 	0.91807 0.09021 0.43121 0.01800
C 	C 	0.87333 0.06935 0.40862 -0.02700
C 	C 	0.84884 0.09967 0.40930 -0.03600
H 	H 	0.93126 0.21385 0.47117 0.06400
H 	H 	0.97375 0.15957 0.47096 0.05100
H 	H 	0.85672 0.02879 0.39139 0.05200
H 	H 	0.81331 0.08219 0.39281 0.05900
C 	C 	0.84715 0.67408 0.52006 0.04400
C 	C 	0.81922 0.69715 0.53814 -0.03500
C 	C 	0.84460 0.75778 0.54188 -0.02800
C 	C 	0.89817 0.79583 0.52774 0.01700
C 	C 	0.92636 0.77265 0.51016 -0.02700
C 	C 	0.90096 0.71196 0.50653 -0.03200
H 	H 	0.77764 0.66810 0.54868 0.06100
H 	H 	0.82250 0.77524 0.55542 0.05200
H 	H 	0.96748 0.80156 0.49849 0.05100
H 	H 	0.92274 0.69441 0.49248 0.06200
Co	Co	0.70817 0.31145 0.98105 1.18700
O 	O 	0.76499 0.30897 0.94190 -0.37200
Co	Co	0.60084 0.31051 0.01316 1.18700
O 	O 	0.63524 0.27896 0.95997 -0.45200
O 	O 	0.66375 0.39264 0.02011 -0.39900
O 	O 	0.70572 0.23226 0.97480 -0.32300
C 	C 	0.71101 0.41870 0.99925 0.36900
O 	O 	0.59443 0.31978 0.94944 -0.35000
C 	C 	0.50499 0.25197 0.04697 0.32000
C 	C 	0.67944 0.30812 0.06136 0.32100
O 	O 	0.54095 0.30688 0.05236 -0.34900
O 	O 	0.52318 0.22954 0.02107 -0.33500
O 	O 	0.72615 0.32536 0.04444 -0.34500
O 	O 	0.64299 0.28163 0.03519 -0.45700
O 	O 	0.72307 0.39040 0.97145 -0.53500
C 	C 	0.74626 0.25461 0.94839 0.31800
C 	C 	0.62396 0.30279 0.93309 0.31000
H 	H 	0.74891 0.41287 0.94712 0.18100
Co	Co	0.71211 0.31332 0.48267 1.18700
O 	O 	0.76863 0.30853 0.44496 -0.35200
Co	Co	0.60823 0.31976 0.51245 1.18700
O 	O 	0.64155 0.28658 0.45952 -0.45400
O 	O 	0.67361 0.39889 0.52220 -0.40200
O 	O 	0.70542 0.23178 0.47554 -0.34000
C 	C 	0.72081 0.42382 0.50151 0.36800
O 	O 	0.60642 0.33351 0.44865 -0.35200
C 	C 	0.51107 0.26681 0.54324 0.31600
C 	C 	0.68012 0.30790 0.56241 0.31900
O 	O 	0.54936 0.32039 0.55000 -0.36100
O 	O 	0.52787 0.24237 0.51790 -0.32000
O 	O 	0.72676 0.32311 0.54664 -0.34300
O 	O 	0.64494 0.28469 0.53514 -0.45500
O 	O 	0.73229 0.39473 0.47403 -0.53400
C 	C 	0.74730 0.25337 0.45051 0.31800
C 	C 	0.63396 0.31382 0.43263 0.31100
H 	H 	0.75969 0.41707 0.45044 0.18400
C 	C 	0.63858 0.28538 0.69212 0.11600
C 	C 	0.59871 0.26372 0.66437 -0.08400
C 	C 	0.61203 0.27030 0.62200 0.04200
C 	C 	0.66560 0.29895 0.60700 -0.09600
C 	C 	0.70559 0.32099 0.63488 0.05000
C 	C 	0.69222 0.31445 0.67718 -0.08300
H 	H 	0.55738 0.24213 0.67568 0.08000
H 	H 	0.58076 0.25345 0.60092 0.04000
H 	H 	0.74713 0.34395 0.62383 0.05900
H 	H 	0.72355 0.33286 0.69834 0.07900
N 	N 	0.62482 0.28179 0.73500 -0.08000
N 	N 	0.65260 0.27973 0.76006 -0.08100
C 	C 	0.62902 0.29442 0.88836 -0.10500
C 	C 	0.65050 0.26303 0.87280 0.03900
C 	C 	0.65717 0.25729 0.83030 -0.08700
C 	C 	0.64225 0.28250 0.80300 0.11500
C 	C 	0.62099 0.31414 0.81853 -0.08700
C 	C 	0.61426 0.31987 0.86095 0.04300
H 	H 	0.66231 0.24338 0.89352 0.04000
H 	H 	0.67432 0.23360 0.81855 0.08000
H 	H 	0.61062 0.33517 0.79776 0.07800
H 	H 	0.59836 0.34491 0.87247 0.04600
C 	C 	0.64401 0.29091 0.19188 0.11900
C 	C 	0.69715 0.32076 0.17554 -0.08400
C 	C 	0.70858 0.32547 0.13298 0.05300
C 	C 	0.66710 0.30082 0.10625 -0.09800
C 	C 	0.61403 0.27128 0.12265 0.04700
C 	C 	0.60266 0.26654 0.16526 -0.08500
H 	H 	0.72958 0.34119 0.19579 0.08100
H 	H 	0.74973 0.34909 0.12084 0.05700
H 	H 	0.58161 0.25235 0.10248 0.04100
H 	H 	0.56169 0.24428 0.17764 0.09200
N 	N 	0.63208 0.28920 0.23495 -0.07900
N 	N 	0.66179 0.28995 0.25954 -0.08000
C 	C 	0.63952 0.30593 0.38788 -0.10700
C 	C 	0.66234 0.27589 0.37231 0.04400
C 	C 	0.66897 0.27009 0.32981 -0.08700
C 	C 	0.65257 0.29377 0.30253 0.11700
C 	C 	0.63033 0.32442 0.31804 -0.08800
C 	C 	0.62374 0.33032 0.36045 0.04500
H 	H 	0.67519 0.25733 0.39303 0.03500
H 	H 	0.68702 0.24734 0.31806 0.08600
H 	H 	0.61892 0.34439 0.29725 0.07900
H 	H 	0.60688 0.35441 0.37195 0.04600
C 	C 	0.81935 0.61035 0.51383 -0.00500
C 	C 	0.79756 0.58465 0.47607 0.13500
C 	C 	0.76725 0.52363 0.47176 -0.01900
C 	C 	0.75835 0.48785 0.50489 -0.13500
C 	C 	0.78144 0.51362 0.54226 0.21000
C 	C 	0.81185 0.57468 0.54656 -0.10000
H 	H 	0.74931 0.50395 0.44300 0.06500
H 	H 	0.82893 0.59437 0.57556 0.08900
Cl	Cl	0.80652 0.62837 0.43435 -0.31000
Cl	Cl	0.77254 0.46987 0.58394 -0.32700
C 	C 	0.83898 0.17874 0.43763 -0.00800
C 	C 	0.80763 0.17078 0.47420 0.14100
C 	C 	0.77802 0.19545 0.47815 -0.02600
C 	C 	0.77869 0.22754 0.44566 -0.10300
C 	C 	0.80941 0.23474 0.40881 0.19900
C 	C 	0.83968 0.21072 0.40509 -0.09400
H 	H 	0.75450 0.18970 0.50659 0.08400
H 	H 	0.86315 0.21619 0.37668 0.08700
Cl	Cl	0.80399 0.12862 0.51493 -0.30600
Cl	Cl	0.80832 0.27118 0.36634 -0.31600
C 	C 	0.34775 0.20795 0.54145 -0.00900
C 	C 	0.38849 0.26749 0.53474 0.14100
C 	C 	0.44176 0.28705 0.53727 -0.02700
C 	C 	0.45485 0.24754 0.54641 -0.10200
C 	C 	0.41385 0.18863 0.55530 0.19800
C 	C 	0.36059 0.16908 0.55263 -0.09300
H 	H 	0.47304 0.33261 0.53086 0.08100
H 	H 	0.32920 0.12341 0.55858 0.08700
Cl	Cl	0.37333 0.31787 0.52259 -0.30500
Cl	Cl	0.42860 0.13909 0.57052 -0.30500
C 	C 	0.81146 0.60609 0.00789 -0.00600
C 	C 	0.78906 0.57891 0.97058 0.13600
C 	C 	0.75679 0.51771 0.96792 -0.01700
C 	C 	0.74720 0.48312 0.00206 -0.13700
C 	C 	0.77020 0.51029 0.03921 0.21000
C 	C 	0.80219 0.57156 0.04196 -0.10000
H 	H 	0.73872 0.49702 0.93938 0.06400
H 	H 	0.81961 0.59235 0.07066 0.08800
Cl	Cl	0.80139 0.62108 0.92687 -0.30900
Cl	Cl	0.75983 0.46814 0.08239 -0.32700
C 	C 	0.77929 0.23090 0.94229 -0.10400
C 	C 	0.75567 0.17097 0.93340 0.19900
C 	C 	0.78578 0.14704 0.93379 -0.09300
C 	C 	0.83961 0.18255 0.94247 -0.00800
C 	C 	0.86410 0.24315 0.94879 0.14000
C 	C 	0.83390 0.26703 0.94875 -0.02600
H 	H 	0.76711 0.10061 0.92798 0.08800
H 	H 	0.85258 0.31337 0.95496 0.08100
Cl	Cl	0.68865 0.12560 0.92091 -0.30500
Cl	Cl	0.93255 0.28958 0.95691 -0.30500
C 	C 	0.44787 0.22818 0.05217 -0.10300
C 	C 	0.42142 0.21543 0.09161 0.20000
C 	C 	0.36671 0.19164 0.09592 -0.09400
C 	C 	0.33819 0.18086 0.06111 -0.00800
C 	C 	0.36495 0.19474 0.02172 0.14000
C 	C 	0.41944 0.21782 0.01742 -0.02600
H 	H 	0.34632 0.18136 0.12630 0.08700
H 	H 	0.43983 0.22824 0.98703 0.08100
Cl	Cl	0.45615 0.22797 0.13579 -0.32100
Cl	Cl	0.33095 0.18483 0.97759 -0.30400
