data_crystal

_cell_length_a 19.13380
_cell_length_b 19.35770
_cell_length_c 44.15970
_cell_angle_alpha 89.97508
_cell_angle_beta  90.02452
_cell_angle_gamma 120.02988

_symmetry_space_group_name_	'P 1'
_symmetry_space_group_name_H-M	'P 1'

loop_
_symmetry_equiv_pos_as_xyz
  x,y,z

loop_
_atom_site_label
_atom_site_type_symbol
_atom_site_fract_x
_atom_site_fract_y
_atom_site_fract_z
_atom_site_charge
Cu	Cu	0.69516 0.43585 0.56807 0.93200
Cu	Cu	0.78474 0.43054 0.63044 0.88000
Cu	Cu	0.87257 0.48150 0.57092 0.90200
Cu	Cu	0.81183 0.50961 0.51230 0.90500
C 	C 	0.66665 0.52531 0.52276 0.30500
O 	O 	0.65465 0.34604 0.53752 -0.33600
C 	C 	0.92229 0.41579 0.62137 0.30000
O 	O 	0.81103 0.52567 0.55442 -0.64000
O 	O 	0.76510 0.40106 0.58791 -0.63600
O 	O 	0.63651 0.43915 0.60467 -0.35600
O 	O 	0.75179 0.50783 0.63175 -0.41500
O 	O 	0.70908 0.50928 0.50330 -0.35100
O 	O 	0.97371 0.56614 0.55541 -0.37000
C 	C 	0.98971 0.58696 0.52667 0.32900
C 	C 	0.70440 0.33057 0.52241 0.29900
O 	O 	0.78042 0.38596 0.51921 -0.37600
O 	O 	0.93192 0.56871 0.50638 -0.35900
O 	O 	0.64498 0.48889 0.54923 -0.33300
C 	C 	0.67577 0.48576 0.62751 0.31400
O 	O 	0.93706 0.44508 0.59354 -0.36000
O 	O 	0.84903 0.38135 0.63276 -0.38900
H 	H 	0.82949 0.58133 0.56065 0.18600
H 	H 	0.75080 0.34518 0.58386 0.18300
Cu	Cu	0.41924 0.72028 0.43369 0.93200
Cu	Cu	0.42357 0.81177 0.37097 0.89000
Cu	Cu	0.46639 0.89578 0.43094 0.90300
Cu	Cu	0.49188 0.83523 0.48994 0.90800
C 	C 	0.50695 0.69128 0.47996 0.30800
O 	O 	0.32646 0.68099 0.46322 -0.34200
C 	C 	0.40931 0.94856 0.37918 0.31500
O 	O 	0.51011 0.83453 0.44793 -0.63800
O 	O 	0.38697 0.79037 0.41289 -0.63600
O 	O 	0.42280 0.66073 0.39762 -0.35900
O 	O 	0.49812 0.77454 0.37115 -0.40100
O 	O 	0.49020 0.73324 0.49921 -0.34700
O 	O 	0.55033 0.99560 0.44716 -0.33500
C 	C 	0.56815 0.01103 0.47614 0.26800
C 	C 	0.31121 0.73008 0.47857 0.29900
O 	O 	0.36747 0.80509 0.48194 -0.37800
O 	O 	0.55259 0.95390 0.49609 -0.33300
O 	O 	0.47001 0.66911 0.45353 -0.34700
C 	C 	0.47113 0.69829 0.37489 0.30600
O 	O 	0.42916 0.95867 0.40817 -0.35100
O 	O 	0.37655 0.87748 0.36670 -0.39700
H 	H 	0.56668 0.85275 0.44210 0.19200
H 	H 	0.33002 0.77629 0.41576 0.18200
Cu	Cu	0.48044 0.25161 0.23354 0.93200
Cu	Cu	0.50479 0.34744 0.29741 0.89200
Cu	Cu	0.44090 0.38600 0.23996 0.90400
Cu	Cu	0.40613 0.30041 0.17991 0.90400
C 	C 	0.38731 0.13894 0.18735 0.29900
O 	O 	0.56755 0.29969 0.20153 -0.34200
C 	C 	0.51690 0.49585 0.29167 0.29600
O 	O 	0.39216 0.28170 0.22205 -0.63600
O 	O 	0.52185 0.35565 0.25405 -0.63500
O 	O 	0.47891 0.18749 0.26910 -0.35500
O 	O 	0.42210 0.23953 0.29976 -0.41200
O 	O 	0.40529 0.19960 0.16906 -0.35700
O 	O 	0.35817 0.40719 0.22509 -0.35800
C 	C 	0.34024 0.40760 0.19620 0.30700
C 	C 	0.58648 0.36777 0.18837 0.29800
O 	O 	0.53243 0.39055 0.18632 -0.36200
O 	O 	0.34462 0.35857 0.17637 -0.37200
O 	O 	0.42117 0.15014 0.21428 -0.33700
C 	C 	0.43856 0.18312 0.29371 0.31500
O 	O 	0.47829 0.48231 0.26551 -0.35200
O 	O 	0.55779 0.46011 0.29824 -0.38000
H 	H 	0.33590 0.24505 0.22856 0.17800
H 	H 	0.57800 0.39575 0.24860 0.18100
Cu	Cu	0.20546 0.69364 0.10160 0.93300
Cu	Cu	0.11677 0.59291 0.04025 0.88100
Cu	Cu	0.03016 0.55846 0.10109 0.90100
Cu	Cu	0.08914 0.65979 0.15736 0.90500
C 	C 	0.23235 0.81627 0.14400 0.31400
O 	O 	0.24429 0.64801 0.13446 -0.35100
C 	C 	0.98039 0.44303 0.05171 0.32200
O 	O 	0.08883 0.66768 0.11467 -0.63600
O 	O 	0.13764 0.58766 0.08317 -0.63600
O 	O 	0.26445 0.75038 0.06440 -0.35800
O 	O 	0.14977 0.70270 0.03672 -0.41400
O 	O 	0.19317 0.76040 0.16447 -0.35900
O 	O 	0.92735 0.53706 0.11753 -0.34500
C 	C 	0.91435 0.54852 0.14598 0.30600
C 	C 	0.19432 0.58313 0.14956 0.29400
O 	O 	0.11896 0.56515 0.15390 -0.36500
O 	O 	0.96984 0.60914 0.16185 -0.33900
O 	O 	0.25440 0.79894 0.11815 -0.34600
C 	C 	0.22546 0.75666 0.04114 0.31400
O 	O 	0.96979 0.45508 0.08036 -0.33600
O 	O 	0.05259 0.47968 0.03942 -0.41200
H 	H 	0.06817 0.70189 0.10668 0.18700
H 	H 	0.15498 0.54839 0.08771 0.18800
Cu	Cu	0.23447 0.51261 0.76871 0.93300
Cu	Cu	0.32362 0.51163 0.70539 0.88600
Cu	Cu	0.36760 0.46936 0.76567 0.90400
Cu	Cu	0.28076 0.44155 0.82480 0.90200
C 	C 	0.11966 0.42302 0.81498 0.30200
O 	O 	0.28837 0.60437 0.79826 -0.33700
C 	C 	0.47638 0.52625 0.71367 0.29700
O 	O 	0.26146 0.42405 0.78275 -0.63700
O 	O 	0.33763 0.54587 0.74752 -0.63300
O 	O 	0.16835 0.50659 0.73286 -0.33900
O 	O 	0.21205 0.43615 0.70578 -0.42000
O 	O 	0.17957 0.44248 0.83418 -0.36600
O 	O 	0.38813 0.38863 0.78219 -0.34900
C 	C 	0.38686 0.37240 0.81128 0.30700
C 	C 	0.35414 0.62002 0.81323 0.29800
O 	O 	0.37418 0.56466 0.81657 -0.37700
O 	O 	0.33681 0.37871 0.83026 -0.37700
O 	O 	0.13265 0.46223 0.78924 -0.33300
C 	C 	0.16022 0.46062 0.70974 0.31300
O 	O 	0.46836 0.50830 0.74278 -0.33900
O 	O 	0.43742 0.55896 0.70129 -0.39500
H 	H 	0.22414 0.36802 0.77678 0.17800
H 	H 	0.37953 0.60245 0.75047 0.18400
Cu	Cu	0.67345 0.22798 0.90439 0.93300
Cu	Cu	0.58035 0.13659 0.96694 0.87900
Cu	Cu	0.54052 0.05305 0.90638 0.89900
Cu	Cu	0.62806 0.11385 0.84779 0.89800
C 	C 	0.79085 0.25350 0.85874 0.30000
O 	O 	0.62276 0.26977 0.87493 -0.35200
C 	C 	0.42831 0.99993 0.95727 0.32000
O 	O 	0.64650 0.11330 0.88977 -0.64200
O 	O 	0.56885 0.15859 0.92468 -0.63600
O 	O 	0.73773 0.28535 0.94081 -0.35100
O 	O 	0.69193 0.17087 0.96756 -0.41300
O 	O 	0.73201 0.21334 0.83909 -0.37200
O 	O 	0.52250 0.95281 0.89027 -0.34900
C 	C 	0.52854 0.93779 0.86153 0.30900
C 	C 	0.55672 0.22209 0.85987 0.29900
O 	O 	0.53619 0.14713 0.85550 -0.37000
O 	O 	0.56473 0.99546 0.84122 -0.35000
O 	O 	0.77598 0.27869 0.88442 -0.33000
C 	C 	0.74480 0.24651 0.96387 0.31600
O 	O 	0.43815 0.99129 0.92820 -0.34100
O 	O 	0.46625 0.07070 0.97007 -0.41500
H 	H 	0.68374 0.09393 0.89554 0.18300
H 	H 	0.52702 0.17367 0.92142 0.19000
C 	C 	0.48258 0.74802 0.82013 -0.03200
C 	C 	0.40165 0.69773 0.82829 -0.08000
C 	C 	0.36517 0.72409 0.84952 0.13000
C 	C 	0.40785 0.80203 0.86071 -0.03200
C 	C 	0.48745 0.85396 0.85135 -0.06900
C 	C 	0.52595 0.82567 0.83179 0.12600
Br	Br	0.63867 0.88984 0.82228 -0.20200
H 	H 	0.51157 0.72717 0.80445 0.07000
H 	H 	0.37865 0.82261 0.87641 0.08600
Br	Br	0.25812 0.65358 0.86439 -0.20800
C 	C 	0.02019 0.37049 0.85738 -0.05000
C 	C 	0.03566 0.37460 0.82613 -0.09000
C 	C 	0.97085 0.33113 0.80596 0.14400
C 	C 	0.89152 0.29240 0.81680 -0.03700
C 	C 	0.87576 0.29057 0.84800 -0.07400
C 	C 	0.94147 0.32539 0.86846 0.14200
Br	Br	0.92727 0.30364 0.91118 -0.19400
H 	H 	0.06967 0.40064 0.87323 0.08100
H 	H 	0.84216 0.26246 0.80089 0.07800
Br	Br	0.98896 0.31607 0.76427 -0.21300
C 	C 	0.55236 0.32455 0.82749 -0.03200
C 	C 	0.51089 0.25529 0.84513 -0.08200
C 	C 	0.42759 0.22248 0.85044 0.12500
C 	C 	0.38710 0.25976 0.83841 -0.03300
C 	C 	0.42921 0.33056 0.82158 -0.07400
C 	C 	0.51236 0.36278 0.81602 0.12600
Br	Br	0.57394 0.46203 0.79480 -0.19800
H 	H 	0.61644 0.34998 0.82335 0.07700
H 	H 	0.32308 0.23444 0.84263 0.07200
Br	Br	0.36894 0.12988 0.87559 -0.24000
C 	C 	0.79674 0.35546 0.00179 -0.03100
C 	C 	0.80024 0.29125 0.98875 -0.08700
C 	C 	0.85682 0.27075 0.99957 0.13200
C 	C 	0.91274 0.31798 0.02176 -0.02600
C 	C 	0.91163 0.38454 0.03372 -0.08300
C 	C 	0.85152 0.40161 0.02435 0.12300
Br	Br	0.84580 0.49030 0.04103 -0.23400
H 	H 	0.75178 0.37002 0.99416 0.06500
H 	H 	0.95847 0.30420 0.02909 0.08200
Br	Br	0.86048 0.18018 0.98378 -0.19400
C 	C 	0.32346 0.80375 0.99894 -0.03000
C 	C 	0.27019 0.81480 0.01727 -0.09000
C 	C 	0.26240 0.88274 0.01335 0.13000
C 	C 	0.31043 0.94063 0.99199 -0.02900
C 	C 	0.36695 0.93166 0.97469 -0.08200
C 	C 	0.37200 0.86173 0.97778 0.12200
Br	Br	0.44892 0.84670 0.95502 -0.22400
H 	H 	0.32870 0.75086 0.00168 0.05900
H 	H 	0.30581 0.99393 0.98959 0.08200
Br	Br	0.18956 0.89945 0.03803 -0.20600
C 	C 	0.76708 0.49552 0.13858 -0.03200
C 	C 	0.83073 0.50605 0.15750 -0.06600
C 	C 	0.81375 0.47435 0.18707 0.12500
C 	C 	0.73400 0.43348 0.19744 -0.02800
C 	C 	0.67016 0.42091 0.17827 -0.07900
C 	C 	0.68702 0.45226 0.14862 0.13400
Br	Br	0.60178 0.43208 0.12072 -0.21500
H 	H 	0.77969 0.51986 0.11584 0.09000
H 	H 	0.72137 0.40912 0.22018 0.06400
Br	Br	0.89753 0.48020 0.21283 -0.20600
C 	C 	0.22506 0.41097 0.17145 -0.03200
C 	C 	0.29876 0.45129 0.18710 -0.07700
C 	C 	0.33484 0.53407 0.19207 0.12600
C 	C 	0.29765 0.57557 0.18111 -0.03300
C 	C 	0.22568 0.53591 0.16442 -0.07800
C 	C 	0.18885 0.45287 0.15982 0.12300
Br	Br	0.09220 0.39626 0.13606 -0.23800
H 	H 	0.19681 0.34724 0.16766 0.07200
H 	H 	0.32614 0.63938 0.18477 0.08000
Br	Br	0.43799 0.59291 0.21164 -0.20700
C 	C 	0.26350 0.01176 0.17492 -0.06300
C 	C 	0.34788 0.05830 0.17452 -0.06000
C 	C 	0.39412 0.02634 0.16281 0.10400
C 	C 	0.35575 0.94759 0.15238 0.00300
C 	C 	0.27136 0.90024 0.15348 -0.08900
C 	C 	0.22501 0.93306 0.16435 0.15400
Br	Br	0.10913 0.87235 0.16391 -0.23500
H 	H 	0.22776 0.03659 0.18360 0.06900
H 	H 	0.39165 0.92279 0.14384 0.07800
Br	Br	0.50975 0.08938 0.16090 -0.19300
C 	C 	0.34582 0.00243 0.34466 -0.05200
C 	C 	0.41328 0.01498 0.36164 -0.08900
C 	C 	0.48768 0.08599 0.35758 0.12200
C 	C 	0.49486 0.14101 0.33554 -0.02800
C 	C 	0.42859 0.12613 0.31748 -0.09200
C 	C 	0.35328 0.05749 0.32254 0.13700
Br	Br	0.26081 0.03635 0.29863 -0.22600
H 	H 	0.28824 0.94839 0.34788 0.09200
H 	H 	0.55250 0.19486 0.33210 0.05800
Br	Br	0.58158 0.10691 0.38056 -0.23000
C 	C 	0.51230 0.61970 0.30231 -0.03200
C 	C 	0.51561 0.55340 0.31333 -0.07700
C 	C 	0.51008 0.53885 0.34490 0.12600
C 	C 	0.50316 0.59132 0.36471 -0.02900
C 	C 	0.49387 0.65407 0.35358 -0.08400
C 	C 	0.49826 0.66810 0.32199 0.13100
Br	Br	0.47720 0.74708 0.30470 -0.24600
H 	H 	0.51705 0.63165 0.27821 0.09500
H 	H 	0.50030 0.58043 0.38889 0.08300
Br	Br	0.50176 0.44309 0.36152 -0.26000
C 	C 	0.70798 0.20455 0.51692 -0.03100
C 	C 	0.67426 0.25153 0.50853 -0.08100
C 	C 	0.60997 0.22148 0.48767 0.12900
C 	C 	0.57654 0.14322 0.47702 -0.03800
C 	C 	0.60779 0.09479 0.48641 -0.06200
C 	C 	0.67590 0.12680 0.50565 0.12100
Br	Br	0.72983 0.06818 0.51491 -0.20000
H 	H 	0.75898 0.22829 0.53229 0.06800
H 	H 	0.52585 0.11987 0.46151 0.08100
Br	Br	0.56992 0.28775 0.47211 -0.18400
C 	C 	0.12518 0.59936 0.52495 -0.02800
C 	C 	0.07466 0.62940 0.51669 -0.09800
C 	C 	0.10528 0.69814 0.49829 0.13100
C 	C 	0.18376 0.73224 0.48663 -0.03800
C 	C 	0.23261 0.69943 0.49364 -0.08000
C 	C 	0.20399 0.63437 0.51377 0.12400
Br	Br	0.27267 0.59447 0.52726 -0.20800
H 	H 	0.10279 0.54797 0.53978 0.07000
H 	H 	0.20637 0.78369 0.47182 0.06800
Br	Br	0.04321 0.74930 0.49041 -0.22300
C 	C 	0.66917 0.65048 0.50846 -0.03100
C 	C 	0.62543 0.56728 0.51175 -0.07100
C 	C 	0.54241 0.52500 0.50482 0.13200
C 	C 	0.50411 0.56620 0.49471 -0.02700
C 	C 	0.54779 0.64943 0.49148 -0.07200
C 	C 	0.63071 0.69174 0.49847 0.12500
Br	Br	0.69279 0.80556 0.49382 -0.21100
H 	H 	0.73305 0.68318 0.51375 0.07100
H 	H 	0.44027 0.53345 0.48932 0.08500
Br	Br	0.48059 0.41091 0.50842 -0.17500
C 	C 	0.03944 0.37115 0.67921 -0.04700
C 	C 	0.10242 0.44842 0.68559 -0.08500
C 	C 	0.11193 0.51303 0.66785 0.12800
C 	C 	0.05554 0.50058 0.64529 -0.05700
C 	C 	0.98933 0.42417 0.64028 -0.06700
C 	C 	0.98298 0.35866 0.65660 0.14200
Br	Br	0.90038 0.25153 0.64729 -0.19700
H 	H 	0.03420 0.32077 0.69185 0.07900
H 	H 	0.06162 0.55092 0.63237 0.06800
Br	Br	0.20261 0.61838 0.67354 -0.24500
C 	C 	0.59381 0.58445 0.67880 -0.03200
C 	C 	0.53681 0.51879 0.69566 -0.07400
C 	C 	0.52996 0.44345 0.69141 0.12100
C 	C 	0.57699 0.43382 0.66947 -0.03000
C 	C 	0.63088 0.49854 0.65162 -0.09100
C 	C 	0.64064 0.57458 0.65677 0.13200
Br	Br	0.71455 0.66473 0.63289 -0.20300
H 	H 	0.59972 0.64263 0.68209 0.08100
H 	H 	0.57047 0.37548 0.66588 0.05800
Br	Br	0.45277 0.35161 0.71381 -0.23000
