data_crystal

_cell_length_a 18.63409
_cell_length_b 18.90720
_cell_length_c 36.81403
_cell_angle_alpha 95.42364
_cell_angle_beta  95.42869
_cell_angle_gamma 126.55573

_symmetry_space_group_name_	'P 1'
_symmetry_space_group_name_H-M	'P 1'

loop_
_symmetry_equiv_pos_as_xyz
  x,y,z

loop_
_atom_site_label
_atom_site_type_symbol
_atom_site_fract_x
_atom_site_fract_y
_atom_site_fract_z
_atom_site_charge
C 	C 	0.90163 0.99166 0.96086 0.01400
C 	C 	0.85588 0.89944 0.96088 -0.06200
C 	C 	0.90526 0.86482 0.96254 0.01700
C 	C 	0.99962 0.92255 0.96473 -0.05700
C 	C 	0.04480 0.01372 0.96472 0.00900
C 	C 	0.99607 0.04817 0.96266 -0.05500
H 	H 	0.78296 0.85531 0.95962 0.04600
H 	H 	0.03800 0.89644 0.96652 0.04500
H 	H 	0.03184 0.11927 0.96321 0.04400
C 	C 	0.95392 0.04419 0.50421 0.02600
C 	C 	0.04691 0.08767 0.50426 -0.07400
C 	C 	0.08003 0.03755 0.50172 0.02500
C 	C 	0.02014 0.94445 0.49893 -0.07500
C 	C 	0.92798 0.90135 0.49927 0.02600
C 	C 	0.89482 0.95098 0.50189 -0.07300
H 	H 	0.09299 0.15975 0.50620 0.04800
H 	H 	0.04537 0.90553 0.49666 0.04900
H 	H 	0.82296 0.91703 0.50155 0.04900
Cu	Cu	0.75432 0.33775 0.96070 0.92600
Cu	Cu	0.74721 0.27388 0.04105 0.86900
Cu	Cu	0.61113 0.29366 0.00805 0.89500
Cu	Cu	0.58646 0.33314 0.93301 0.89500
C 	C 	0.68891 0.30769 0.88243 0.30500
O 	O 	0.80843 0.46894 0.95925 -0.35800
C 	C 	0.67191 0.32764 0.08987 0.30500
O 	O 	0.61289 0.26537 0.95681 -0.63700
O 	O 	0.74440 0.35437 0.01343 -0.64300
O 	O 	0.81235 0.27595 0.96488 -0.37000
O 	O 	0.71491 0.18441 0.00061 -0.44600
O 	O 	0.65185 0.34720 0.89095 -0.38800
O 	O 	0.48054 0.22661 0.99974 -0.38100
C 	C 	0.43068 0.22776 0.97210 0.29100
C 	C 	0.76769 0.50279 0.97052 0.28100
O 	O 	0.68402 0.44879 0.97589 -0.39400
O 	O 	0.46799 0.28338 0.94865 -0.39500
O 	O 	0.74021 0.30369 0.90818 -0.36400
C 	C 	0.77242 0.20154 0.97850 0.29000
O 	O 	0.60734 0.30418 0.06179 -0.38700
O 	O 	0.74472 0.33491 0.08452 -0.42400
H 	H 	0.57313 0.20045 0.94613 0.16500
H 	H 	0.78276 0.41735 0.02683 0.17300
Cu	Cu	0.62215 0.20861 0.50795 0.92700
Cu	Cu	0.69054 0.22032 0.42843 0.86800
Cu	Cu	0.66032 0.34727 0.46042 0.89700
Cu	Cu	0.62145 0.37010 0.53550 0.89500
C 	C 	0.65161 0.27201 0.58616 0.30600
O 	O 	0.48940 0.15222 0.50942 -0.36200
C 	C 	0.63593 0.29409 0.37904 0.30300
O 	O 	0.69266 0.34757 0.51158 -0.64000
O 	O 	0.60439 0.21726 0.45515 -0.64100
O 	O 	0.68301 0.15075 0.50359 -0.37300
O 	O 	0.77886 0.24920 0.46939 -0.44200
O 	O 	0.60933 0.30635 0.57760 -0.38800
O 	O 	0.72361 0.47517 0.46813 -0.38700
C 	C 	0.72044 0.52347 0.49541 0.29400
C 	C 	0.45245 0.18930 0.49744 0.28300
O 	O 	0.50494 0.27236 0.49250 -0.39700
O 	O 	0.66862 0.48663 0.52037 -0.39600
O 	O 	0.65779 0.22323 0.56042 -0.36400
C 	C 	0.75921 0.19048 0.49071 0.28900
O 	O 	0.64066 0.34759 0.40676 -0.38200
O 	O 	0.63093 0.22347 0.38428 -0.42300
H 	H 	0.75873 0.38857 0.52193 0.16400
H 	H 	0.54078 0.17707 0.44136 0.17400
C 	C 	0.69199 0.26140 0.69584 -0.00500
C 	C 	0.76868 0.33555 0.72063 -0.03500
C 	C 	0.77278 0.33942 0.75899 -0.03400
C 	C 	0.70017 0.26918 0.77274 -0.00500
C 	C 	0.62555 0.19306 0.74795 -0.03500
C 	C 	0.62148 0.18916 0.70959 -0.03400
C 	C 	0.68055 0.26423 0.65684 0.04300
C 	C 	0.66876 0.26743 0.62442 -0.10400
C 	C 	0.69720 0.28006 0.81174 0.04300
C 	C 	0.69380 0.29130 0.84417 -0.10400
H 	H 	0.82360 0.39157 0.71025 0.03800
H 	H 	0.83084 0.39840 0.77796 0.04100
H 	H 	0.56924 0.13837 0.75833 0.03800
H 	H 	0.56207 0.13147 0.69062 0.04100
C 	C 	0.62502 0.33403 0.27221 -0.00700
C 	C 	0.55122 0.26636 0.24442 -0.03600
C 	C 	0.55628 0.27117 0.20694 -0.03600
C 	C 	0.63518 0.34366 0.19708 -0.00700
C 	C 	0.70706 0.41359 0.22489 -0.03600
C 	C 	0.70198 0.40880 0.26237 -0.03600
C 	C 	0.62654 0.32143 0.31023 0.04200
C 	C 	0.62966 0.30960 0.34181 -0.11100
C 	C 	0.64696 0.34065 0.15895 0.04200
C 	C 	0.65784 0.33602 0.12726 -0.11300
H 	H 	0.49136 0.20846 0.25177 0.03800
H 	H 	0.50028 0.21695 0.18562 0.03700
H 	H 	0.76819 0.46999 0.21753 0.03700
H 	H 	0.75923 0.46156 0.28368 0.03700
C 	C 	0.84312 0.77012 0.53014 -0.06300
C 	C 	0.86663 0.80421 0.49750 0.01600
C 	C 	0.83884 0.74578 0.46384 -0.06200
C 	C 	0.78991 0.65389 0.46297 0.01200
C 	C 	0.76868 0.61979 0.49588 -0.08800
C 	C 	0.79453 0.67834 0.52939 0.01200
H 	H 	0.86470 0.81507 0.55627 0.04400
H 	H 	0.85672 0.77182 0.43850 0.04500
H 	H 	0.76895 0.60938 0.43679 0.03800
H 	H 	0.77870 0.65301 0.55499 0.02900
C 	C 	0.86670 0.09037 0.53134 -0.06300
C 	C 	0.91699 0.09496 0.50427 0.01700
C 	C 	0.92126 0.13763 0.47450 -0.06400
C 	C 	0.87192 0.17116 0.47070 0.01000
C 	C 	0.81746 0.16212 0.49663 -0.09500
C 	C 	0.81686 0.12346 0.52746 0.01400
H 	H 	0.86383 0.05849 0.55469 0.04600
H 	H 	0.95978 0.14153 0.45345 0.04200
H 	H 	0.87368 0.20144 0.44692 0.01600
H 	H 	0.77693 0.11793 0.54814 0.03900
C 	C 	0.21698 0.12448 0.47260 -0.06200
C 	C 	0.17734 0.08195 0.50195 0.01500
C 	C 	0.22744 0.07195 0.52905 -0.06200
C 	C 	0.31577 0.10293 0.52652 0.01100
C 	C 	0.35552 0.14554 0.49719 -0.08900
C 	C 	0.30576 0.15635 0.47028 0.01000
H 	H 	0.17850 0.13144 0.45126 0.04200
H 	H 	0.19735 0.03902 0.55178 0.04400
H 	H 	0.35408 0.09581 0.54787 0.03700
H 	H 	0.33602 0.18976 0.44766 0.02900
C 	C 	0.86684 0.71804 0.93449 -0.06200
C 	C 	0.85928 0.76834 0.96234 0.01800
C 	C 	0.82372 0.73169 0.99336 -0.05900
C 	C 	0.79766 0.64651 0.99684 0.01400
C 	C 	0.80740 0.59723 0.96944 -0.08800
C 	C 	0.84188 0.63341 0.93819 0.01000
H 	H 	0.89458 0.74572 0.91048 0.04500
H 	H 	0.81868 0.77016 0.01528 0.03900
H 	H 	0.76973 0.61874 0.02081 0.02500
H 	H 	0.84748 0.59523 0.91636 0.03700
C 	C 	0.85927 0.08240 0.93478 -0.06400
C 	C 	0.85245 0.03094 0.96144 0.02000
C 	C 	0.81360 0.03117 0.99223 -0.06000
C 	C 	0.78653 0.08581 0.99744 0.01400
C 	C 	0.79790 0.14108 0.97186 -0.09500
C 	C 	0.83267 0.13760 0.94008 0.01400
H 	H 	0.88854 0.08233 0.91073 0.04600
H 	H 	0.80826 0.99222 0.01305 0.03700
H 	H 	0.75910 0.08704 0.02195 0.01300
H 	H 	0.83988 0.17802 0.91965 0.03900
C 	C 	0.27366 0.14940 0.93660 0.01200
C 	C 	0.33194 0.17512 0.97051 -0.08400
C 	C 	0.29542 0.15056 0.00282 0.00900
C 	C 	0.20163 0.09974 0.00107 -0.06900
C 	C 	0.14366 0.07327 0.96710 0.02600
C 	C 	0.17994 0.09886 0.93496 -0.06600
H 	H 	0.30083 0.16747 0.91144 0.02700
H 	H 	0.33959 0.17098 0.02927 0.03800
H 	H 	0.17388 0.08012 0.02601 0.04500
H 	H 	0.13535 0.07819 0.90859 0.04500
