data_crystal

_cell_length_a 15.48706
_cell_length_b 15.83273
_cell_length_c 40.00123
_cell_angle_alpha 95.38179
_cell_angle_beta  95.37918
_cell_angle_gamma 126.71037

_symmetry_space_group_name_	'P 1'
_symmetry_space_group_name_H-M	'P 1'

loop_
_symmetry_equiv_pos_as_xyz
  x,y,z

loop_
_atom_site_label
_atom_site_type_symbol
_atom_site_fract_x
_atom_site_fract_y
_atom_site_fract_z
_atom_site_charge
C 	C 	0.88164 0.98058 0.97240 0.12600
C 	C 	0.04700 0.00500 0.97361 0.11100
N 	N 	0.99016 0.04439 0.97187 -0.14000
N 	N 	0.05924 0.10949 0.49585 -0.12600
C 	C 	0.10151 0.05474 0.49416 0.10500
Cu	Cu	0.75573 0.32722 0.96609 0.92500
Cu	Cu	0.70827 0.21727 0.03450 0.86500
Cu	Cu	0.58591 0.28941 0.00741 0.89400
Cu	Cu	0.55043 0.31514 0.93437 0.90300
C 	C 	0.68963 0.29778 0.89347 0.29100
O 	O 	0.81301 0.48552 0.96739 -0.34700
C 	C 	0.62914 0.29364 0.08126 0.28200
O 	O 	0.58528 0.24246 0.96037 -0.63100
O 	O 	0.73784 0.33645 0.01405 -0.64700
O 	O 	0.81843 0.24597 0.97000 -0.35900
O 	O 	0.67993 0.12245 0.99489 -0.43400
O 	O 	0.64755 0.34741 0.90057 -0.38400
O 	O 	0.44156 0.25451 0.99968 -0.37500
C 	C 	0.37000 0.20056 0.97089 0.30300
C 	C 	0.75520 0.51933 0.97533 0.28100
O 	O 	0.65070 0.44956 0.97604 -0.39100
O 	O 	0.39827 0.22591 0.94133 -0.38800
O 	O 	0.74962 0.29353 0.91789 -0.36100
C 	C 	0.75894 0.14950 0.97811 0.29100
O 	O 	0.58718 0.31670 0.05662 -0.37500
O 	O 	0.70369 0.27992 0.07691 -0.41800
H 	H 	0.53785 0.16356 0.95295 0.16100
H 	H 	0.79141 0.40815 0.02877 0.17400
Cu	Cu	0.62469 0.20709 0.50872 0.92700
Cu	Cu	0.72505 0.24391 0.43842 0.86800
Cu	Cu	0.65480 0.36653 0.46568 0.89700
Cu	Cu	0.63707 0.40735 0.53906 0.90200
C 	C 	0.66170 0.27658 0.58127 0.30900
O 	O 	0.46601 0.14989 0.50967 -0.35400
C 	C 	0.63755 0.31367 0.39137 0.29900
O 	O 	0.71022 0.37310 0.51252 -0.63400
O 	O 	0.60707 0.21814 0.46038 -0.64500
O 	O 	0.69704 0.13736 0.50354 -0.36400
O 	O 	0.82297 0.26658 0.47684 -0.43700
O 	O 	0.61091 0.31780 0.57437 -0.38400
O 	O 	0.68952 0.50763 0.47191 -0.37600
C 	C 	0.74323 0.58038 0.50019 0.30400
C 	C 	0.42756 0.20117 0.49991 0.28700
O 	O 	0.49513 0.30368 0.49889 -0.39400
O 	O 	0.72302 0.55463 0.53035 -0.38700
O 	O 	0.66747 0.21941 0.55678 -0.36000
C 	C 	0.79266 0.18904 0.49382 0.30200
O 	O 	0.61864 0.35825 0.41639 -0.37400
O 	O 	0.65618 0.24410 0.39607 -0.41800
H 	H 	0.79120 0.42073 0.51904 0.16200
H 	H 	0.53244 0.16417 0.44662 0.17600
C 	C 	0.69309 0.27204 0.85742 -0.08500
C 	C 	0.60078 0.22843 0.83199 0.01500
C 	C 	0.60766 0.21796 0.79744 -0.06400
C 	C 	0.70691 0.25086 0.78791 0.02800
C 	C 	0.79806 0.29018 0.81329 -0.06400
C 	C 	0.79116 0.30055 0.84792 0.01900
C 	C 	0.71737 0.25174 0.75154 0.00300
C 	C 	0.64842 0.15631 0.72717 -0.03900
C 	C 	0.64622 0.15940 0.69225 -0.03100
C 	C 	0.71319 0.25776 0.68147 -0.00400
C 	C 	0.78604 0.35245 0.70579 -0.03100
C 	C 	0.78820 0.34952 0.74070 -0.03800
C 	C 	0.69812 0.26309 0.64578 0.04700
C 	C 	0.68302 0.26863 0.61615 -0.10000
H 	H 	0.52439 0.20514 0.83899 0.02300
H 	H 	0.53675 0.18730 0.77808 0.04800
H 	H 	0.87484 0.31501 0.80621 0.04900
H 	H 	0.86304 0.33426 0.86727 0.04100
H 	H 	0.59413 0.08028 0.73524 0.04100
H 	H 	0.58995 0.08578 0.67363 0.04300
H 	H 	0.83827 0.42878 0.69768 0.04100
H 	H 	0.84183 0.42364 0.75926 0.04300
C 	C 	0.60479 0.29889 0.11582 -0.08600
C 	C 	0.58752 0.22219 0.13514 0.01300
C 	C 	0.57604 0.23249 0.16919 -0.06600
C 	C 	0.58200 0.31981 0.18438 0.02600
C 	C 	0.59611 0.39506 0.16484 -0.06600
C 	C 	0.60704 0.38441 0.13061 0.01700
C 	C 	0.58060 0.33571 0.22128 0.00200
C 	C 	0.48895 0.25758 0.23424 -0.04000
C 	C 	0.49510 0.26143 0.26954 -0.03300
C 	C 	0.59269 0.34355 0.29214 -0.00600
C 	C 	0.68195 0.42531 0.27934 -0.03300
C 	C 	0.67593 0.42151 0.24403 -0.03900
C 	C 	0.60628 0.33592 0.32765 0.04300
C 	C 	0.61944 0.32713 0.35700 -0.10300
H 	H 	0.58483 0.15547 0.12392 0.01900
H 	H 	0.56524 0.17404 0.18404 0.04500
H 	H 	0.60047 0.46258 0.17630 0.04800
H 	H 	0.62052 0.44424 0.11599 0.03600
H 	H 	0.41458 0.19157 0.21693 0.03900
H 	H 	0.42550 0.19823 0.27922 0.04000
H 	H 	0.75754 0.48936 0.29662 0.03900
H 	H 	0.74701 0.48248 0.23433 0.04000
C 	C 	0.80691 0.69060 0.49766 -0.08500
C 	C 	0.85408 0.14799 0.49599 -0.09600
C 	C 	0.90230 0.10993 0.49673 0.02700
C 	C 	0.21680 0.11003 0.49550 0.02300
C 	C 	0.31281 0.15119 0.49713 -0.08000
C 	C 	0.79948 0.63035 0.97596 -0.07400
C 	C 	0.79348 0.08211 0.97474 -0.08300
C 	C 	0.82648 0.02908 0.97328 0.00700
C 	C 	0.25674 0.13139 0.97230 -0.08700
C 	C 	0.16093 0.07322 0.97306 0.02600
N 	N 	0.82858 0.87454 0.97427 -0.13100
C 	C 	0.88688 0.83488 0.97554 0.11400
N 	N 	0.99568 0.90082 0.97540 -0.13000
C 	C 	0.95066 0.05567 0.49677 0.09600
N 	N 	0.03573 0.94775 0.49338 -0.12200
C 	C 	0.92828 0.89489 0.49442 0.10900
N 	N 	0.88582 0.94867 0.49620 -0.12300
C 	C 	0.86156 0.78380 0.49593 0.02800
C 	C 	0.83444 0.72252 0.97595 0.01900
