data_crystal

_cell_length_a 26.18958
_cell_length_b 26.34779
_cell_length_c 26.50210
_cell_angle_alpha 95.52919
_cell_angle_beta  95.52718
_cell_angle_gamma 125.86064

_symmetry_space_group_name_	'P 1'
_symmetry_space_group_name_H-M	'P 1'

loop_
_symmetry_equiv_pos_as_xyz
  x,y,z

loop_
_atom_site_label
_atom_site_type_symbol
_atom_site_fract_x
_atom_site_fract_y
_atom_site_fract_z
_atom_site_charge
C 	C 	0.97693 0.03233 0.98900 0.13200
N 	N 	0.03731 0.06385 0.97898 -0.11900
C 	C 	0.06361 0.03265 0.97177 0.13400
N 	N 	0.02892 0.96961 0.97360 -0.13500
C 	C 	0.96852 0.93792 0.98345 0.14300
N 	N 	0.94291 0.96958 0.99183 -0.12600
C 	C 	0.93540 0.00289 0.44898 0.13400
N 	N 	0.00018 0.03864 0.45379 -0.13100
C 	C 	0.03037 0.01110 0.45885 0.14000
N 	N 	0.99582 0.94781 0.45937 -0.13000
C 	C 	0.93115 0.91193 0.45505 0.14800
N 	N 	0.90085 0.93950 0.44993 -0.12700
Cu	Cu	0.64457 0.24130 0.00524 0.93200
Cu	Cu	0.70232 0.24578 0.89959 0.87800
Cu	Cu	0.68912 0.34570 0.94139 0.90200
Cu	Cu	0.64303 0.35822 0.03748 0.90000
C 	C 	0.65288 0.28443 0.11168 0.34100
O 	O 	0.55023 0.20248 0.99859 -0.34400
C 	C 	0.67434 0.30529 0.82949 0.33400
O 	O 	0.69703 0.34065 0.01271 -0.64100
O 	O 	0.64251 0.25131 0.93218 -0.63900
O 	O 	0.68388 0.19552 0.00513 -0.35000
O 	O 	0.75858 0.26176 0.95990 -0.43400
O 	O 	0.62547 0.31065 0.09572 -0.38200
O 	O 	0.73845 0.43730 0.95578 -0.36600
C 	C 	0.72632 0.47007 0.98653 0.31300
C 	C 	0.52650 0.23023 0.97916 0.30400
O 	O 	0.56538 0.28986 0.97382 -0.38800
O 	O 	0.68218 0.44258 0.01568 -0.38700
O 	O 	0.65961 0.24867 0.07871 -0.34000
C 	C 	0.73888 0.21957 0.99006 0.31500
O 	O 	0.69699 0.35271 0.86862 -0.38000
O 	O 	0.66694 0.25268 0.83658 -0.39100
H 	H 	0.74173 0.36767 0.03222 0.18300
H 	H 	0.59911 0.22657 0.91053 0.18800
Cu	Cu	0.73116 0.33952 0.43617 0.93000
Cu	Cu	0.73855 0.29470 0.54594 0.87700
Cu	Cu	0.63185 0.29930 0.50565 0.90000
Cu	Cu	0.60365 0.32488 0.40278 0.91100
C 	C 	0.67597 0.31267 0.32948 0.33500
O 	O 	0.76022 0.43013 0.43604 -0.35400
C 	C 	0.68086 0.32288 0.61803 0.33500
O 	O 	0.63123 0.28133 0.43357 -0.63600
O 	O 	0.72654 0.34836 0.51008 -0.64000
O 	O 	0.78249 0.30584 0.43900 -0.36600
O 	O 	0.72110 0.23464 0.48837 -0.42500
O 	O 	0.64876 0.33961 0.34335 -0.35400
O 	O 	0.53936 0.24758 0.49674 -0.37700
C 	C 	0.50176 0.25439 0.46597 0.31300
C 	C 	0.72866 0.45020 0.45440 0.30800
O 	O 	0.67019 0.40869 0.46214 -0.38600
O 	O 	0.51815 0.27854 0.42370 -0.36300
O 	O 	0.71976 0.31687 0.36277 -0.35700
C 	C 	0.76048 0.25241 0.45568 0.31300
O 	O 	0.63229 0.30329 0.58061 -0.38000
O 	O 	0.73448 0.33388 0.60805 -0.39200
H 	H 	0.60615 0.23538 0.41857 0.18300
H 	H 	0.75123 0.39282 0.52910 0.18600
C 	C 	0.61835 0.27230 0.68600 -0.09100
C 	C 	0.67216 0.32532 0.67199 -0.13100
C 	C 	0.72173 0.37631 0.71061 0.33900
C 	C 	0.71993 0.37178 0.76265 -0.09200
C 	C 	0.66899 0.31608 0.77643 -0.12900
C 	C 	0.61688 0.26746 0.73800 0.33700
F 	F 	0.56589 0.21457 0.75095 -0.44500
H 	H 	0.57930 0.23322 0.65650 0.09400
H 	H 	0.75976 0.41015 0.79208 0.10000
F 	F 	0.77272 0.42919 0.69766 -0.44200
C 	C 	0.72527 0.32118 0.25188 -0.08400
C 	C 	0.67014 0.29352 0.27403 -0.12500
C 	C 	0.60925 0.25478 0.24196 0.33600
C 	C 	0.60369 0.24826 0.18839 -0.08400
C 	C 	0.65882 0.28012 0.16640 -0.12500
C 	C 	0.71963 0.31451 0.19815 0.33700
F 	F 	0.77330 0.34442 0.17717 -0.44600
H 	H 	0.77249 0.35059 0.27626 0.10200
H 	H 	0.55653 0.22053 0.16401 0.09600
F 	F 	0.55550 0.22566 0.26285 -0.45400
C 	C 	0.74320 0.59914 0.43826 -0.11600
C 	C 	0.80777 0.64689 0.46046 0.01200
C 	C 	0.84576 0.63016 0.48266 0.12500
C 	C 	0.81922 0.56583 0.48173 -0.02900
C 	C 	0.75488 0.51789 0.45860 -0.12000
C 	C 	0.71656 0.53485 0.43732 0.19800
C 	C 	0.83655 0.71402 0.45740 -0.00400
O 	O 	0.90848 0.67663 0.50603 -0.26700
H 	H 	0.84881 0.55325 0.49867 0.06100
O 	O 	0.65423 0.48860 0.41288 -0.29700
H 	H 	0.71392 0.61179 0.42074 0.08000
C 	C 	0.87275 0.74178 0.41913 0.13500
C 	C 	0.90170 0.80601 0.41748 -0.06200
C 	C 	0.89398 0.84276 0.45330 -0.05500
C 	C 	0.85601 0.81442 0.49057 0.16700
C 	C 	0.82717 0.75010 0.49231 -0.09500
O 	O 	0.88151 0.70671 0.38433 -0.27400
H 	H 	0.93087 0.82752 0.38869 0.07600
O 	O 	0.84725 0.84947 0.52539 -0.27600
H 	H 	0.79836 0.72859 0.52128 0.07700
H 	H 	0.62799 0.48191 0.43968 0.15600
H 	H 	0.84543 0.68720 0.35470 0.15400
H 	H 	0.88263 0.86803 0.55545 0.15600
H 	H 	0.93382 0.68307 0.47856 0.16200
C 	C 	0.88611 0.10042 0.39844 -0.09200
C 	C 	0.85234 0.10177 0.43586 -0.00600
C 	C 	0.84244 0.06715 0.47583 0.13200
C 	C 	0.86702 0.03224 0.47847 -0.06500
C 	C 	0.90281 0.03280 0.44214 -0.05500
C 	C 	0.91121 0.06601 0.40136 0.16400
C 	C 	0.82949 0.14141 0.43433 0.01100
O 	O 	0.80871 0.06736 0.51228 -0.27500
H 	H 	0.86001 0.00642 0.50975 0.06900
O 	O 	0.94529 0.06618 0.36509 -0.27600
H 	H 	0.89356 0.12668 0.36743 0.08200
C 	C 	0.87314 0.20825 0.44886 0.11400
C 	C 	0.85051 0.24504 0.45187 -0.03100
C 	C 	0.78437 0.21541 0.44175 -0.12800
C 	C 	0.74097 0.14886 0.42471 0.19800
C 	C 	0.76363 0.11216 0.42116 -0.11200
O 	O 	0.93784 0.23762 0.46058 -0.26600
H 	H 	0.88426 0.29630 0.46449 0.05600
O 	O 	0.67623 0.11939 0.41337 -0.28700
H 	H 	0.72986 0.06079 0.40930 0.08400
H 	H 	0.91312 0.02898 0.33741 0.15200
H 	H 	0.94728 0.23958 0.49817 0.14500
H 	H 	0.66678 0.11882 0.37608 0.15700
H 	H 	0.84124 0.10407 0.54020 0.14600
C 	C 	0.19289 0.06778 0.43110 -0.09200
C 	C 	0.23384 0.12007 0.47168 -0.00600
C 	C 	0.20780 0.13725 0.50760 0.13900
C 	C 	0.14114 0.10227 0.50256 -0.06400
C 	C 	0.10021 0.04937 0.46242 -0.05100
C 	C 	0.12630 0.03250 0.42631 0.15500
C 	C 	0.30396 0.15741 0.47581 0.01300
O 	O 	0.24740 0.18876 0.54711 -0.27300
H 	H 	0.12130 0.11565 0.53034 0.07100
O 	O 	0.08678 0.98110 0.38667 -0.26600
H 	H 	0.21274 0.05463 0.40315 0.07100
C 	C 	0.33576 0.13123 0.49033 0.11600
C 	C 	0.40119 0.16442 0.48929 -0.02800
C 	C 	0.43519 0.22359 0.47342 -0.11600
C 	C 	0.40404 0.25128 0.46167 0.19600
C 	C 	0.33852 0.21779 0.46229 -0.11000
O 	O 	0.30316 0.07366 0.50624 -0.26600
H 	H 	0.42494 0.14319 0.49929 0.06600
O 	O 	0.43724 0.31041 0.44846 -0.28300
H 	H 	0.31435 0.23843 0.45159 0.08600
H 	H 	0.07887 0.99850 0.35787 0.15900
H 	H 	0.28749 0.04128 0.47462 0.15000
H 	H 	0.45407 0.34103 0.48147 0.15300
H 	H 	0.25509 0.17141 0.57606 0.15800
C 	C 	0.81110 0.62861 0.94199 -0.11600
C 	C 	0.82719 0.67009 0.98800 0.01100
C 	C 	0.80945 0.64583 0.03336 0.12400
C 	C 	0.77642 0.58047 0.03257 -0.03400
C 	C 	0.76074 0.53883 0.98664 -0.11700
C 	C 	0.77728 0.56312 0.94091 0.19500
C 	C 	0.86286 0.73898 0.98854 -0.00300
O 	O 	0.82255 0.68563 0.07808 -0.26800
H 	H 	0.76341 0.56224 0.06780 0.06200
O 	O 	0.76055 0.52303 0.89522 -0.27500
H 	H 	0.82448 0.64713 0.90692 0.07900
C 	C 	0.92860 0.78142 0.01036 0.13600
C 	C 	0.96239 0.84654 0.00976 -0.06900
C 	C 	0.93146 0.86961 0.98607 -0.05400
C 	C 	0.86579 0.82679 0.96337 0.16500
C 	C 	0.83166 0.76192 0.96535 -0.09500
O 	O 	0.95971 0.75940 0.03285 -0.27700
H 	H 	0.01279 0.87908 0.02745 0.07500
O 	O 	0.83500 0.84815 0.93910 -0.27400
H 	H 	0.78110 0.72926 0.94814 0.07700
H 	H 	0.71769 0.50979 0.87913 0.15700
H 	H 	0.97605 0.74860 0.00470 0.15200
H 	H 	0.84024 0.84496 0.90263 0.15200
H 	H 	0.86456 0.69921 0.09679 0.16100
C 	C 	0.77965 0.10445 0.99801 -0.11300
C 	C 	0.84684 0.14661 0.00987 0.00900
C 	C 	0.87804 0.21275 0.02065 0.12100
C 	C 	0.84216 0.23635 0.01648 -0.02900
C 	C 	0.77505 0.19427 0.00212 -0.12500
C 	C 	0.74368 0.12794 0.99381 0.19200
C 	C 	0.88435 0.12152 0.00673 -0.00500
O 	O 	0.94373 0.25443 0.03310 -0.26900
H 	H 	0.86662 0.28743 0.02331 0.06500
O 	O 	0.67804 0.08606 0.98052 -0.27700
H 	H 	0.75537 0.05341 0.99023 0.07400
C 	C 	0.88808 0.08964 0.04487 0.13400
C 	C 	0.92007 0.06214 0.03960 -0.06500
C 	C 	0.94798 0.06576 0.99617 -0.04900
C 	C 	0.94492 0.09840 0.95835 0.16300
C 	C 	0.91357 0.12650 0.96395 -0.09100
O 	O 	0.86173 0.08652 0.08783 -0.27100
H 	H 	0.92273 0.03756 0.06908 0.07000
O 	O 	0.97218 0.10256 0.91576 -0.27200
H 	H 	0.91079 0.15102 0.93446 0.07600
H 	H 	0.66831 0.07774 0.94224 0.13900
H 	H 	0.81744 0.04625 0.07889 0.15100
H 	H 	0.93788 0.06460 0.88951 0.14900
H 	H 	0.95424 0.26140 0.07126 0.16000
C 	C 	0.35556 0.13592 0.00120 -0.11700
C 	C 	0.32656 0.14724 0.96118 0.01100
C 	C 	0.36230 0.18274 0.92522 0.12500
C 	C 	0.42722 0.20810 0.93034 -0.03400
C 	C 	0.45680 0.19813 0.97118 -0.11900
C 	C 	0.42054 0.16182 0.00680 0.19300
C 	C 	0.25923 0.12328 0.95809 -0.00600
O 	O 	0.33461 0.19489 0.88634 -0.26600
H 	H 	0.45474 0.23614 0.90290 0.06600
O 	O 	0.44872 0.15239 0.04751 -0.27500
H 	H 	0.32798 0.10816 0.02875 0.07800
C 	C 	0.20982 0.06627 0.92420 0.14100
C 	C 	0.14568 0.03898 0.92667 -0.08000
C 	C 	0.13036 0.06734 0.96379 -0.04700
C 	C 	0.17991 0.12560 0.99657 0.16300
C 	C 	0.24396 0.15368 0.99309 -0.09100
O 	O 	0.22416 0.03697 0.88886 -0.27700
H 	H 	0.10785 0.99470 0.90075 0.08300
O 	O 	0.16593 0.15451 0.03266 -0.27000
H 	H 	0.28193 0.19784 0.01907 0.07600
H 	H 	0.46485 0.18856 0.07599 0.15500
H 	H 	0.22753 0.00736 0.90671 0.15100
H 	H 	0.16602 0.13709 0.06420 0.15200
H 	H 	0.31755 0.15967 0.85670 0.16300
