data_crystal

_cell_length_a 23.92495
_cell_length_b 21.82344
_cell_length_c 47.31230
_cell_angle_alpha 88.61081
_cell_angle_beta  88.72043
_cell_angle_gamma 107.65692

_symmetry_space_group_name_	'P 1'
_symmetry_space_group_name_H-M	'P 1'

loop_
_symmetry_equiv_pos_as_xyz
  x,y,z

loop_
_atom_site_label
_atom_site_type_symbol
_atom_site_fract_x
_atom_site_fract_y
_atom_site_fract_z
_atom_site_charge
Zn	Zn	0.56303 0.32730 0.88063 1.22100
Zn	Zn	0.64287 0.42650 0.92619 1.19800
C 	C 	0.74013 0.26730 0.85068 0.32100
Zn	Zn	0.70041 0.36228 0.88268 1.22200
Zn	Zn	0.61098 0.24112 0.84535 1.19300
H 	H 	0.63311 0.30870 0.92340 0.18300
C 	C 	0.69790 0.49257 0.86922 0.32500
O 	O 	0.52497 0.20632 0.83903 -0.46200
O 	O 	0.50128 0.29827 0.84789 -0.39900
O 	O 	0.63320 0.34288 0.90924 -0.79300
O 	O 	0.55982 0.42338 0.93079 -0.47600
O 	O 	0.52258 0.24534 0.90100 -0.43600
O 	O 	0.52898 0.39918 0.88580 -0.43100
O 	O 	0.59506 0.20200 0.88887 -0.41400
O 	O 	0.72674 0.47166 0.93080 -0.46700
H 	H 	0.63090 0.36212 0.83828 0.17200
O 	O 	0.76230 0.39169 0.91573 -0.39700
O 	O 	0.62981 0.33307 0.85482 -0.79200
O 	O 	0.68875 0.22460 0.84667 -0.45100
O 	O 	0.72713 0.45070 0.86590 -0.44200
O 	O 	0.74752 0.30513 0.87247 -0.42800
O 	O 	0.64996 0.47822 0.88551 -0.42000
C 	C 	0.48847 0.24080 0.83709 0.32700
C 	C 	0.52592 0.42723 0.90989 0.35000
C 	C 	0.54771 0.19994 0.90407 0.32200
C 	C 	0.76729 0.44263 0.93093 0.32800
Zn	Zn	0.64931 0.40347 0.59011 1.22200
Zn	Zn	0.51786 0.30776 0.56696 1.19500
C 	C 	0.69147 0.20770 0.62787 0.35000
Zn	Zn	0.59880 0.25368 0.60175 1.22100
Zn	Zn	0.71761 0.34834 0.63123 1.19500
H 	H 	0.62094 0.30657 0.55364 0.17200
C 	C 	0.49076 0.25923 0.62878 0.32600
O 	O 	0.77159 0.43733 0.62456 -0.46500
O 	O 	0.70002 0.48230 0.61359 -0.40600
O 	O 	0.60256 0.31707 0.57108 -0.78900
O 	O 	0.51628 0.39824 0.56448 -0.45100
O 	O 	0.71896 0.41017 0.56581 -0.44300
O 	O 	0.60461 0.46162 0.57890 -0.42700
O 	O 	0.74067 0.32649 0.58834 -0.41600
O 	O 	0.47610 0.21424 0.56847 -0.46400
H 	H 	0.61286 0.35309 0.63827 0.18000
O 	O 	0.55425 0.17617 0.57537 -0.39000
O 	O 	0.63569 0.34226 0.62249 -0.79000
O 	O 	0.70677 0.25788 0.64399 -0.47500
O 	O 	0.52977 0.22784 0.62827 -0.43500
O 	O 	0.65805 0.20625 0.60595 -0.42900
O 	O 	0.49779 0.30994 0.61195 -0.41900
C 	C 	0.75432 0.48838 0.62029 0.33300
C 	C 	0.56407 0.44689 0.55980 0.31300
C 	C 	0.74796 0.36777 0.56671 0.32000
C 	C 	0.50236 0.17000 0.56480 0.32100
Zn	Zn	0.01722 0.96565 0.70924 1.21800
Zn	Zn	0.06486 0.10720 0.73985 1.19600
C 	C 	0.90233 0.87212 0.79642 0.32100
Zn	Zn	0.00689 0.97804 0.77572 1.21900
Zn	Zn	0.92046 0.86219 0.73647 1.19300
H 	H 	0.96204 0.03706 0.74105 0.17500
C 	C 	0.13468 0.03410 0.77499 0.33700
O 	O 	0.91981 0.83597 0.69699 -0.47000
O 	O 	0.01570 0.88552 0.68310 -0.39400
O 	O 	0.99964 0.02696 0.74071 -0.78000
O 	O 	0.09484 0.11255 0.69970 -0.47000
O 	O 	0.95427 0.97971 0.68611 -0.43400
O 	O 	0.09807 0.00960 0.69402 -0.43000
O 	O 	0.88729 0.93994 0.72174 -0.41500
O 	O 	0.06645 0.13868 0.77886 -0.46300
H 	H 	0.03057 0.88464 0.74503 0.17500
O 	O 	0.00195 0.05303 0.80302 -0.39000
O 	O 	0.00368 0.91121 0.74371 -0.79500
O 	O 	0.87932 0.87312 0.77168 -0.46300
O 	O 	0.08932 0.98929 0.78656 -0.43700
O 	O 	0.94895 0.91900 0.80345 -0.41700
O 	O 	0.13076 0.06092 0.75030 -0.42000
C 	C 	0.96693 0.83670 0.68197 0.32600
C 	C 	0.12101 0.07232 0.68960 0.34700
C 	C 	0.90192 0.97116 0.69734 0.33100
C 	C 	0.02246 0.11525 0.79719 0.31800
Zn	Zn	0.32029 0.70301 0.37812 1.22400
Zn	Zn	0.23272 0.56626 0.40921 1.19600
C 	C 	0.14128 0.76641 0.35516 0.33700
Zn	Zn	0.18307 0.65983 0.37715 1.22200
Zn	Zn	0.27240 0.79785 0.34776 1.19500
H 	H 	0.23975 0.68145 0.42185 0.17700
C 	C 	0.19369 0.54873 0.34769 0.32300
O 	O 	0.35832 0.84245 0.34653 -0.46400
O 	O 	0.38801 0.75249 0.34850 -0.40200
O 	O 	0.24452 0.66027 0.40408 -0.78800
O 	O 	0.31375 0.56014 0.41261 -0.45500
O 	O 	0.34575 0.77524 0.40383 -0.44100
O 	O 	0.36204 0.63879 0.38039 -0.43400
O 	O 	0.26982 0.81424 0.39322 -0.41400
O 	O 	0.14748 0.52062 0.40895 -0.46300
H 	H 	0.26347 0.68383 0.33371 0.17800
O 	O 	0.11482 0.60847 0.40674 -0.39700
O 	O 	0.25881 0.70405 0.35176 -0.79600
O 	O 	0.19143 0.80522 0.34466 -0.45900
O 	O 	0.16037 0.58635 0.35155 -0.43800
O 	O 	0.14007 0.72470 0.37596 -0.43400
O 	O 	0.23839 0.55271 0.36402 -0.41900
C 	C 	0.39828 0.81359 0.34162 0.33000
C 	C 	0.36161 0.60506 0.40375 0.32900
C 	C 	0.31311 0.81234 0.40967 0.31900
C 	C 	0.10769 0.54871 0.41520 0.32200
Zn	Zn	0.23293 0.70462 0.10567 1.22100
Zn	Zn	0.34772 0.80213 0.13580 1.19500
C 	C 	0.35527 0.58198 0.06878 0.32700
Zn	Zn	0.36318 0.70196 0.09528 1.22200
Zn	Zn	0.23827 0.58470 0.07648 1.19600
H 	H 	0.31058 0.67991 0.14338 0.18300
C 	C 	0.37568 0.82960 0.07120 0.32200
O 	O 	0.15386 0.57651 0.07662 -0.46500
O 	O 	0.15874 0.68280 0.07887 -0.39000
O 	O 	0.31195 0.71029 0.12731 -0.78700
O 	O 	0.27700 0.82709 0.14683 -0.47300
O 	O 	0.18432 0.64115 0.13408 -0.43500
O 	O 	0.22427 0.79204 0.10738 -0.43400
O 	O 	0.23117 0.56898 0.12211 -0.41800
O 	O 	0.43423 0.82707 0.12997 -0.46500
H 	H 	0.27910 0.70085 0.05803 0.17300
O 	O 	0.44078 0.72784 0.11957 -0.40100
O 	O 	0.28009 0.67877 0.07646 -0.78400
O 	O 	0.30404 0.54851 0.07957 -0.45400
O 	O 	0.39527 0.77945 0.07064 -0.44000
O 	O 	0.38947 0.62841 0.08331 -0.41900
O 	O 	0.34247 0.83742 0.09256 -0.41600
C 	C 	0.13359 0.62442 0.06985 0.31600
C 	C 	0.23468 0.82805 0.12977 0.34900
C 	C 	0.19150 0.58428 0.13751 0.33100
C 	C 	0.46446 0.78601 0.12880 0.33200
Zn	Zn	0.98342 0.11827 0.24490 1.22500
Zn	Zn	0.89296 0.10393 0.30100 1.19500
C 	C 	0.80955 0.00160 0.18890 0.32800
Zn	Zn	0.85386 0.02828 0.24776 1.22200
Zn	Zn	0.93803 0.07055 0.18792 1.19400
H 	H 	0.88055 0.14960 0.25128 0.18100
C 	C 	0.90633 0.96807 0.29105 0.32300
O 	O 	0.02315 0.11112 0.18003 -0.46300
O 	O 	0.06007 0.10759 0.22411 -0.38700
O 	O 	0.89723 0.11634 0.25874 -0.78300
O 	O 	0.97077 0.16232 0.31188 -0.45300
O 	O 	0.99968 0.20322 0.22635 -0.44000
O 	O 	0.02465 0.12365 0.28045 -0.43600
O 	O 	0.92942 0.16675 0.19401 -0.41400
O 	O 	0.81661 0.04074 0.31352 -0.46100
H 	H 	0.95135 0.00405 0.23031 0.17600
O 	O 	0.77613 0.02921 0.27010 -0.40900
O 	O 	0.93490 0.04027 0.22776 -0.80200
O 	O 	0.85370 0.04816 0.17746 -0.45600
O 	O 	0.86329 0.95856 0.27317 -0.43700
O 	O 	0.80006 0.99543 0.21656 -0.43300
O 	O 	0.93152 0.02559 0.30073 -0.41000
C 	C 	0.06319 0.10070 0.19654 0.32200
C 	C 	0.02114 0.16625 0.29903 0.33900
C 	C 	0.97010 0.21419 0.20497 0.33300
C 	C 	0.77032 0.02447 0.29772 0.33500
C 	C 	0.98717 0.27721 0.19167 -0.11300
C 	C 	0.00600 0.33067 0.18114 0.06200
C 	C 	0.03264 0.39438 0.16889 -0.05300
C 	C 	0.07429 0.43746 0.18274 -0.05700
C 	C 	0.11482 0.49162 0.16761 0.07100
C 	C 	0.14971 0.53513 0.15441 -0.12200
H 	H 	0.08241 0.42786 0.20467 0.05000
H 	H 	0.02409 0.40417 0.14704 0.04900
C 	C 	0.52497 0.80641 0.13625 -0.12300
C 	C 	0.57546 0.82560 0.14300 0.07100
C 	C 	0.63515 0.85041 0.15187 -0.05600
C 	C 	0.66862 0.90889 0.14279 -0.05700
C 	C 	0.72039 0.94188 0.15778 0.07000
C 	C 	0.76210 0.96945 0.17135 -0.12500
H 	H 	0.65360 0.93480 0.12617 0.05100
H 	H 	0.65038 0.82434 0.16836 0.04900
C 	C 	0.20257 0.87280 0.13456 -0.12900
C 	C 	0.17665 0.91097 0.13961 0.07300
C 	C 	0.14605 0.95638 0.14664 -0.06200
C 	C 	0.17026 0.00487 0.16365 -0.05500
C 	C 	0.13528 0.04203 0.17529 0.06700
C 	C 	0.10387 0.07059 0.18511 -0.13400
H 	H 	0.21494 0.01334 0.17053 0.04900
H 	H 	0.10139 0.94803 0.13973 0.04300
C 	C 	0.45572 0.85069 0.33147 -0.12300
C 	C 	0.50418 0.88156 0.32303 0.07000
C 	C 	0.56219 0.91789 0.31284 -0.05600
C 	C 	0.60577 0.93816 0.33088 -0.05600
C 	C 	0.66461 0.96976 0.32028 0.07300
C 	C 	0.71330 0.99531 0.31053 -0.12500
H 	H 	0.59752 0.92913 0.35352 0.05100
H 	H 	0.57057 0.92699 0.29021 0.04900
C 	C 	0.17470 0.49519 0.32955 -0.11900
C 	C 	0.15782 0.44793 0.31566 0.06800
C 	C 	0.13567 0.38930 0.30063 -0.05400
C 	C 	0.14802 0.33615 0.30934 -0.05900
C 	C 	0.10691 0.27391 0.30478 0.07800
C 	C 	0.06949 0.22341 0.30183 -0.13400
H 	H 	0.18322 0.33964 0.32394 0.05200
H 	H 	0.10142 0.38598 0.28550 0.04800
C 	C 	0.93031 0.91689 0.29789 -0.11800
C 	C 	0.95342 0.87651 0.30395 0.06700
C 	C 	0.98433 0.83126 0.31133 -0.04800
C 	C 	0.99808 0.82408 0.33823 -0.05100
C 	C 	0.04651 0.80011 0.34458 0.06600
C 	C 	0.08883 0.78307 0.34965 -0.12100
H 	H 	0.97846 0.84441 0.35511 0.05400
H 	H 	0.00329 0.81015 0.29449 0.04100
C 	C 	0.41794 0.02075 0.51596 -0.00500
C 	C 	0.43867 0.96824 0.51121 -0.03600
C 	C 	0.41243 0.92329 0.49113 -0.03300
C 	C 	0.36544 0.93078 0.47567 -0.00500
C 	C 	0.34346 0.98210 0.48110 -0.03700
C 	C 	0.36960 0.02695 0.50123 -0.03100
C 	C 	0.44894 0.07102 0.53414 0.04900
C 	C 	0.47415 0.11501 0.54862 -0.11400
C 	C 	0.34355 0.88921 0.45260 0.04800
C 	C 	0.32782 0.85433 0.43304 -0.11000
H 	H 	0.47593 0.96305 0.52254 0.04300
H 	H 	0.42962 0.88366 0.48707 0.04100
H 	H 	0.30714 0.98819 0.46926 0.04200
H 	H 	0.35324 0.06738 0.50484 0.03900
C 	C 	0.87630 0.39514 0.50562 -0.00500
C 	C 	0.93426 0.40138 0.51275 -0.03500
C 	C 	0.98031 0.42891 0.49322 -0.02800
C 	C 	0.96860 0.45039 0.46648 -0.00200
C 	C 	0.91047 0.44121 0.45883 -0.03300
C 	C 	0.86440 0.41355 0.47835 -0.03300
C 	C 	0.83079 0.38040 0.52738 0.05000
C 	C 	0.79285 0.37205 0.54553 -0.10900
C 	C 	0.01636 0.48523 0.44765 0.04300
C 	C 	0.05736 0.51455 0.43247 -0.11500
H 	H 	0.94385 0.38731 0.53377 0.04200
H 	H 	0.02515 0.43529 0.49917 0.03200
H 	H 	0.90105 0.45715 0.43811 0.04400
H 	H 	0.81970 0.40891 0.47267 0.04000
C 	C 	0.55860 0.56689 0.49361 -0.00800
C 	C 	0.56226 0.54390 0.46643 -0.03400
C 	C 	0.53561 0.56571 0.44396 -0.03200
C 	C 	0.50541 0.61057 0.44867 -0.00800
C 	C 	0.50993 0.64070 0.47473 -0.03300
C 	C 	0.53624 0.61860 0.49725 -0.03300
C 	C 	0.56380 0.52811 0.51778 0.05000
C 	C 	0.56501 0.49252 0.53743 -0.12300
C 	C 	0.45822 0.61182 0.43067 0.05500
C 	C 	0.41549 0.60984 0.41735 -0.12300
H 	H 	0.58110 0.50517 0.46324 0.03600
H 	H 	0.53385 0.54347 0.42363 0.04200
H 	H 	0.48821 0.67690 0.47832 0.03900
H 	H 	0.53475 0.63799 0.51803 0.04200
C 	C 	0.71591 0.15618 0.63310 -0.12800
C 	C 	0.73916 0.11587 0.63903 0.07500
C 	C 	0.76957 0.07105 0.64774 -0.05900
C 	C 	0.80462 0.08409 0.66991 -0.05500
C 	C 	0.83769 0.04186 0.67848 0.06600
C 	C 	0.86655 0.00862 0.68664 -0.12400
H 	H 	0.80921 0.12759 0.68156 0.04300
H 	H 	0.76467 0.02771 0.63595 0.05300
C 	C 	0.17854 0.09747 0.67640 -0.12400
C 	C 	0.22716 0.11934 0.66574 0.07300
C 	C 	0.28527 0.14588 0.65293 -0.05700
C 	C 	0.33038 0.17852 0.66836 -0.05400
C 	C 	0.38784 0.20731 0.65518 0.06800
C 	C 	0.43535 0.23129 0.64366 -0.11900
H 	H 	0.32394 0.18450 0.69082 0.04800
H 	H 	0.29179 0.13992 0.63048 0.05100
C 	C 	0.96183 0.78662 0.66223 -0.12200
C 	C 	0.94816 0.74019 0.64763 0.06700
C 	C 	0.92334 0.68208 0.63246 -0.05600
C 	C 	0.86912 0.67009 0.62258 -0.05600
C 	C 	0.83060 0.60493 0.62136 0.07000
C 	C 	0.79631 0.55143 0.62087 -0.12100
H 	H 	0.85025 0.70927 0.61994 0.05300
H 	H 	0.94324 0.64358 0.63425 0.04700
C 	C 	0.99401 0.57713 0.01847 0.01300
C 	C 	0.93883 0.54024 0.02940 -0.04200
C 	C 	0.89418 0.51112 0.01108 -0.02600
C 	C 	0.90452 0.51869 0.98175 -0.01400
C 	C 	0.95925 0.55678 0.97079 -0.01900
C 	C 	0.00395 0.58588 0.98912 -0.05400
C 	C 	0.04238 0.59805 0.03707 0.03700
C 	C 	0.08360 0.61232 0.05236 -0.11100
C 	C 	0.85795 0.49011 0.96300 0.05500
C 	C 	0.81751 0.46729 0.94791 -0.11700
H 	H 	0.93095 0.53286 0.05206 0.04600
H 	H 	0.85170 0.48240 0.01969 0.03700
H 	H 	0.96730 0.56352 0.94813 0.03900
H 	H 	0.04665 0.61395 0.98051 0.04200
C 	C 	0.48224 0.06136 0.96589 -0.00200
C 	C 	0.47963 0.07939 0.99401 -0.03500
C 	C 	0.45525 0.03266 0.01529 -0.02900
C 	C 	0.43330 0.96772 0.00853 -0.00900
C 	C 	0.43562 0.94972 0.98038 -0.03100
C 	C 	0.46000 0.99646 0.95910 -0.03700
C 	C 	0.50636 0.10967 0.94393 0.04900
C 	C 	0.52585 0.15057 0.92565 -0.11000
C 	C 	0.41131 0.91925 0.03065 0.05100
C 	C 	0.39414 0.87847 0.04918 -0.10900
H 	H 	0.49650 0.12951 0.99939 0.04000
H 	H 	0.45383 0.04691 0.03701 0.04200
H 	H 	0.41897 0.89957 0.97502 0.04000
H 	H 	0.46163 0.98220 0.93739 0.04200
C 	C 	0.37871 0.57004 0.98386 -0.01900
C 	C 	0.42805 0.60995 0.96893 -0.03000
C 	C 	0.44704 0.58929 0.94375 -0.03400
C 	C 	0.41790 0.52779 0.93418 -0.00800
C 	C 	0.36274 0.49399 0.94619 -0.03400
C 	C 	0.34338 0.51480 0.97124 -0.03100
C 	C 	0.37169 0.57768 0.01370 0.05600
C 	C 	0.36538 0.58099 0.03888 -0.16500
C 	C 	0.45238 0.49194 0.92124 0.05700
C 	C 	0.48442 0.46171 0.91400 -0.11900
H 	H 	0.45441 0.65417 0.97797 0.04000
H 	H 	0.48836 0.61740 0.93375 0.04100
H 	H 	0.33835 0.44776 0.93815 0.04200
H 	H 	0.30372 0.48496 0.98208 0.03300
C 	C 	0.99296 0.15706 0.80931 -0.12800
C 	C 	0.96422 0.18885 0.81896 0.06900
C 	C 	0.92604 0.22316 0.82996 -0.05800
C 	C 	0.88224 0.23010 0.81434 -0.05500
C 	C 	0.83330 0.24533 0.82742 0.06600
C 	C 	0.79116 0.25613 0.83810 -0.12300
H 	H 	0.87999 0.21747 0.79222 0.04000
H 	H 	0.92871 0.23619 0.85202 0.05400
C 	C 	0.19007 0.05250 0.78876 -0.12000
C 	C 	0.23740 0.07228 0.79937 0.07200
C 	C 	0.29451 0.09926 0.81126 -0.05600
C 	C 	0.32610 0.16035 0.80480 -0.05400
C 	C 	0.38337 0.18818 0.81639 0.06800
C 	C 	0.43133 0.21235 0.82581 -0.11800
H 	H 	0.30885 0.18972 0.79065 0.04800
H 	H 	0.31153 0.06966 0.82539 0.05100
C 	C 	0.87430 0.82052 0.81631 -0.13500
C 	C 	0.84855 0.77385 0.83086 0.06800
C 	C 	0.81631 0.71544 0.84632 -0.06000
C 	C 	0.76943 0.67415 0.83489 -0.05500
C 	C 	0.74328 0.61041 0.84730 0.06500
C 	C 	0.72187 0.55664 0.85723 -0.11900
H 	H 	0.75294 0.68681 0.81507 0.04400
H 	H 	0.83292 0.70308 0.86616 0.05200
