data_crystal

_cell_length_a 20.97494
_cell_length_b 21.69899
_cell_length_c 39.79238
_cell_angle_alpha 60.73740
_cell_angle_beta  118.93826
_cell_angle_gamma 133.34898

_symmetry_space_group_name_	'P 1'
_symmetry_space_group_name_H-M	'P 1'

loop_
_symmetry_equiv_pos_as_xyz
  x,y,z

loop_
_atom_site_label
_atom_site_type_symbol
_atom_site_fract_x
_atom_site_fract_y
_atom_site_fract_z
_atom_site_charge
Co	Co	0.01808 0.09472 0.07467 1.17800
Co	Co	0.08257 0.02717 0.04549 1.17700
Co	Co	0.09718 0.88630 0.04794 1.18500
O 	O 	0.02586 0.07536 0.18140 -0.35000
C 	C 	0.00921 0.00199 0.20718 0.24500
O 	O 	0.08213 0.12804 0.03670 -0.44600
C 	C 	0.11406 0.79212 0.13185 0.31400
O 	O 	0.07740 0.78230 0.09604 -0.39900
O 	O 	0.09997 0.83032 0.14278 -0.35500
O 	O 	0.01915 0.20020 0.10727 -0.40500
O 	O 	0.12097 0.19459 0.10443 -0.37900
O 	O 	0.05691 0.92567 0.06757 -0.75400
Co	Co	0.06466 0.01755 0.54538 1.17800
Co	Co	0.07043 0.87297 0.54256 1.17400
O 	O 	0.06879 0.11859 0.54053 -0.44600
C 	C 	0.09398 0.78356 0.62740 0.31200
O 	O 	0.05548 0.77051 0.59202 -0.40800
O 	O 	0.08354 0.82634 0.63701 -0.36500
O 	O 	0.09408 0.17495 0.60830 -0.37600
O 	O 	0.03055 0.91274 0.56268 -0.75200
C 	C 	0.02012 0.91621 0.92793 0.12800
C 	C 	0.07379 0.00308 0.77557 0.10200
C 	C 	0.07823 0.01742 0.80810 0.03800
Br	Br	0.05113 0.84140 0.97285 -0.23300
C 	C 	0.03249 0.94312 0.31909 0.08600
C 	C 	0.03206 0.94535 0.28260 0.09200
H 	H 	0.13825 0.36619 0.56159 0.06500
C 	C 	0.10364 0.65764 0.15765 -0.00600
H 	H 	0.03087 0.61794 0.15121 0.07600
O 	O 	0.01827 0.49679 0.13599 -0.08700
O 	O 	0.09440 0.97194 0.49130 -0.40300
C 	C 	0.10267 0.23261 0.11274 0.32100
C 	C 	0.07239 0.21113 0.61581 0.30500
C 	C 	0.15301 0.37090 0.59072 -0.00700
C 	C 	0.14325 0.63481 0.15004 0.06600
N 	N 	0.08807 0.57529 0.12547 -0.02100
O 	O 	0.09961 0.60351 0.09016 -0.07500
C 	C 	0.06341 0.99768 0.97319 0.35800
O 	O 	0.12550 0.98716 0.99764 -0.36700
O 	O 	0.02743 0.01060 0.98671 -0.36800
C 	C 	0.04007 0.99472 0.46925 0.39300
C 	C 	0.08757 0.06213 0.37327 0.03400
C 	C 	0.09186 0.07375 0.40657 0.14600
Br	Br	0.08795 0.90201 0.28329 -0.13500
Br	Br	0.07791 0.88677 0.36860 -0.13900
C 	C 	0.02659 0.98218 0.93244 -0.08700
C 	C 	0.15354 0.74314 0.16060 -0.07400
H 	H 	0.05005 0.62297 0.67735 0.06800
O 	O 	0.03710 0.48005 0.69055 -0.07400
C 	C 	0.13988 0.29896 0.62330 -0.08100
C 	C 	0.00209 0.97700 0.85644 0.02200
O 	O 	0.01549 0.01526 0.48512 -0.38600
C 	C 	0.01881 0.04446 0.89787 0.10700
C 	C 	0.00865 0.04294 0.86010 0.05700
Br	Br	0.02889 0.13566 0.90220 -0.14800
C 	C 	0.01953 0.01080 0.42553 -0.18200
H 	H 	0.13902 0.53243 0.63819 0.09300
O 	O 	0.12277 0.21092 0.72291 -0.07400
C 	C 	0.11518 0.66612 0.67044 -0.00500
N 	N 	0.12323 0.54194 0.69743 -0.02000
Br	Br	0.00437 0.13125 0.81364 -0.14400
C 	C 	0.15932 0.30626 0.66091 0.11800
N 	N 	0.16068 0.24001 0.69554 -0.02600
C 	C 	0.00070 0.91041 0.88997 0.06000
C 	C 	0.00913 0.98906 0.35769 0.03900
C 	C 	0.15473 0.75625 0.65430 -0.07800
C 	C 	0.15668 0.63051 0.67529 0.06900
C 	C 	0.00035 0.98266 0.31938 0.01200
Co	Co	0.00280 0.85662 0.10483 1.18300
O 	O 	0.00443 0.42755 0.06048 -0.08600
O 	O 	0.16165 0.56138 0.55364 -0.08000
O 	O 	0.16573 0.22684 0.22356 -0.07200
H 	H 	0.16872 0.39016 0.06080 0.06600
Co	Co	0.99652 0.07897 0.57633 1.19000
Br	Br	0.18900 0.14612 0.34909 -0.13800
C 	C 	0.99809 0.97768 0.81739 0.06600
O 	O 	0.98816 0.04520 0.68524 -0.37700
O 	O 	0.98506 0.92929 0.69482 -0.34200
C 	C 	0.98967 0.95240 0.75118 -0.07000
C 	C 	0.98211 0.97336 0.70813 0.34100
Br	Br	0.19720 0.17527 0.42674 -0.17600
Br	Br	0.97669 0.81220 0.88419 -0.10100
O 	O 	0.98799 0.17569 0.61065 -0.38900
Co	Co	0.98037 0.84372 0.60091 1.19600
O 	O 	0.36356 0.95795 0.62762 -0.07800
O 	O 	0.19228 0.57849 0.05969 -0.06200
C 	C 	0.99496 0.98330 0.24603 -0.01200
Br	Br	0.19362 0.09115 0.83979 -0.12900
N 	N 	0.19278 0.51963 0.56120 -0.01800
Br	Br	0.83043 0.87782 0.42434 -0.13400
N 	N 	0.29736 0.90366 0.64520 -0.02200
C 	C 	0.93761 0.94494 0.40684 0.16800
C 	C 	0.93364 0.93068 0.37450 0.06400
O 	O 	0.99422 0.94140 0.19699 -0.29700
O 	O 	0.22663 0.97211 0.07535 -0.35000
O 	O 	0.20131 0.95872 0.56936 -0.34900
Br	Br	0.18123 0.04229 0.76765 -0.14800
C 	C 	0.24286 0.57133 0.15572 -0.06400
H 	H 	0.18085 0.51814 0.16561 0.08700
C 	C 	0.21137 0.56787 0.64486 -0.06700
C 	C 	0.26307 0.05654 0.06431 0.28100
O 	O 	0.22228 0.08651 0.06228 -0.36300
C 	C 	0.23828 0.04274 0.55994 0.28800
O 	O 	0.20206 0.07078 0.56342 -0.36100
C 	C 	0.18933 0.45005 0.63205 0.00800
C 	C 	0.17673 0.44589 0.59470 0.06600
O 	O 	0.23713 0.54403 0.53780 -0.07900
C 	C 	0.27839 0.77562 0.64837 -0.06300
C 	C 	0.23441 0.68445 0.66041 0.00400
C 	C 	0.24317 0.81143 0.64930 0.11500
H 	H 	0.33979 0.81883 0.63834 0.07800
O 	O 	0.28571 0.93259 0.66215 -0.05700
C 	C 	0.22405 0.39652 0.16787 -0.06500
C 	C 	0.23094 0.46796 0.13628 0.00700
C 	C 	0.21309 0.46616 0.09746 0.06900
C 	C 	0.18673 0.39266 0.09087 -0.00500
C 	C 	0.17357 0.31877 0.12205 -0.08500
C 	C 	0.19861 0.32348 0.16114 0.12000
N 	N 	0.19671 0.25330 0.19410 -0.02400
H 	H 	0.24315 0.39956 0.19796 0.08500
N 	N 	0.22567 0.54064 0.06487 -0.01900
O 	O 	0.23038 0.21897 0.19564 -0.07600
C 	C 	0.24830 0.78958 0.17334 0.11600
C 	C 	0.23869 0.68302 0.16028 0.00500
N 	N 	0.30271 0.87124 0.18302 -0.02400
O 	O 	0.27575 0.88131 0.20211 -0.06500
N 	N 	0.30591 0.16052 0.98730 -0.02100
O 	O 	0.27284 0.19684 0.98423 -0.07500
O 	O 	0.28436 0.13539 0.95739 -0.07000
C 	C 	0.74191 0.29209 0.03148 0.06400
C 	C 	0.65583 0.22952 0.04008 -0.07200
C 	C 	0.61763 0.25540 0.04644 0.06700
C 	C 	0.66637 0.34201 0.04638 -0.07600
C 	C 	0.75240 0.40443 0.03905 0.07000
C 	C 	0.78867 0.38081 0.02953 -0.06300
H 	H 	0.61898 0.16124 0.04192 0.07500
H 	H 	0.63683 0.36117 0.05188 0.07800
H 	H 	0.85224 0.43074 0.02071 0.09600
C 	C 	0.71746 0.27842 0.52745 0.06600
C 	C 	0.76382 0.36855 0.52235 -0.06400
C 	C 	0.72769 0.39631 0.52897 0.06800
C 	C 	0.64221 0.33614 0.53666 -0.07400
C 	C 	0.59415 0.24746 0.54045 0.06900
C 	C 	0.63248 0.21789 0.53693 -0.07000
H 	H 	0.82756 0.41636 0.51372 0.08800
H 	H 	0.61323 0.35847 0.54021 0.07700
H 	H 	0.59642 0.14852 0.54141 0.07600
C 	C 	0.28554 0.65909 0.15424 0.06400
C 	C 	0.28231 0.55285 0.14490 0.06600
C 	C 	0.36979 0.61726 0.13961 -0.07100
C 	C 	0.41582 0.70223 0.14083 0.06900
C 	C 	0.37300 0.72464 0.14646 -0.07000
H 	H 	0.40217 0.60128 0.13397 0.07900
H 	H 	0.40712 0.79232 0.14437 0.07900
C 	C 	0.27054 0.64661 0.65728 0.06600
C 	C 	0.36475 0.69310 0.66391 -0.07400
C 	C 	0.39816 0.66426 0.65607 0.07000
C 	C 	0.33930 0.58591 0.64504 -0.07200
C 	C 	0.24695 0.53664 0.64017 0.07000
H 	H 	0.41166 0.75177 0.67457 0.07800
H 	H 	0.36569 0.56336 0.63969 0.08200
Co	Co	0.94631 0.92724 0.13765 1.19200
C 	C 	0.90612 0.74055 0.04832 0.30000
Co	Co	0.92784 0.07097 0.13102 1.18800
O 	O 	0.96462 0.02680 0.11230 -0.75200
O 	O 	0.94828 0.82713 0.14616 -0.42200
O 	O 	0.99320 0.96811 0.08474 -0.55100
C 	C 	0.77718 0.88149 0.13920 0.31800
O 	O 	0.83345 0.94432 0.15728 -0.35500
O 	O 	0.80803 0.86161 0.12682 -0.36000
C 	C 	0.86804 0.12064 0.04497 0.30600
O 	O 	0.83750 0.06337 0.07696 -0.38000
O 	O 	0.92726 0.12914 0.03533 -0.34800
O 	O 	0.96108 0.80672 0.02447 -0.35100
O 	O 	0.90054 0.75310 0.07639 -0.33900
Co	Co	0.92381 0.90884 0.63658 1.19200
C 	C 	0.88131 0.72575 0.54441 0.31100
Co	Co	0.89628 0.04476 0.63212 1.17300
O 	O 	0.93859 0.00663 0.61241 -0.75700
O 	O 	0.92907 0.81196 0.64394 -0.43200
O 	O 	0.96817 0.95305 0.58217 -0.54900
C 	C 	0.74865 0.85541 0.63758 0.32500
O 	O 	0.80004 0.91711 0.65599 -0.37600
O 	O 	0.78481 0.83684 0.62780 -0.36100
C 	C 	0.84594 0.10342 0.54544 0.31100
O 	O 	0.81202 0.04227 0.57628 -0.37000
O 	O 	0.90780 0.11503 0.53638 -0.34900
O 	O 	0.93461 0.79224 0.51997 -0.35600
O 	O 	0.87953 0.73680 0.57430 -0.35100
C 	C 	0.91431 0.92270 0.79422 0.06400
C 	C 	0.91112 0.90394 0.76384 0.11800
Br	Br	0.80441 0.80149 0.74543 -0.16700
Br	Br	0.80392 0.87155 0.80458 -0.12200
C 	C 	0.95771 0.01823 0.24698 0.09700
C 	C 	0.96287 0.01957 0.28334 0.07700
Br	Br	0.92077 0.07540 0.28368 -0.13100
Br	Br	0.82564 0.83085 0.35367 -0.11900
Br	Br	0.90102 0.06704 0.19890 -0.23900
C 	C 	0.17743 0.37844 0.66460 -0.06300
H 	H 	0.19127 0.38263 0.69371 0.09400
O 	O 	0.20398 0.21206 0.70066 -0.06200
C 	C 	0.62046 0.72142 0.66756 0.00100
C 	C 	0.65161 0.79559 0.63612 -0.07900
C 	C 	0.59879 0.82716 0.61187 0.11800
C 	C 	0.52213 0.79136 0.62213 -0.06100
C 	C 	0.49352 0.72005 0.65485 0.00200
C 	C 	0.54505 0.68680 0.67849 0.07200
N 	N 	0.51960 0.61646 0.71318 -0.01800
H 	H 	0.65867 0.69452 0.68539 0.08400
H 	H 	0.48097 0.81489 0.60286 0.08200
N 	N 	0.62196 0.89467 0.57630 -0.02500
O 	O 	0.51690 0.54997 0.71958 -0.07100
O 	O 	0.50197 0.62023 0.73903 -0.06400
O 	O 	0.63669 0.88712 0.55074 -0.05900
O 	O 	0.61984 0.95940 0.56769 -0.07600
O 	O 	0.17791 0.52437 0.72676 -0.07200
O 	O 	0.26883 0.56938 0.03982 -0.07200
C 	C 	0.57577 0.76608 0.17516 -0.06400
C 	C 	0.51182 0.76502 0.13947 0.00300
C 	C 	0.53488 0.79851 0.10335 0.07100
C 	C 	0.61881 0.82689 0.10359 -0.00600
C 	C 	0.68131 0.82465 0.13947 -0.08000
C 	C 	0.65828 0.79179 0.17550 0.12700
N 	N 	0.71986 0.78636 0.21264 -0.02300
H 	H 	0.55815 0.73944 0.20301 0.08600
H 	H 	0.63720 0.85514 0.07577 0.07900
N 	N 	0.47202 0.80142 0.06635 -0.01700
O 	O 	0.73831 0.81628 0.23998 -0.05800
O 	O 	0.75572 0.74954 0.21948 -0.07000
O 	O 	0.43215 0.83424 0.05962 -0.07100
O 	O 	0.45718 0.77427 0.03883 -0.06400
C 	C 	0.28998 0.75676 0.17514 -0.06200
H 	H 	0.36188 0.78969 0.18729 0.08300
O 	O 	0.38127 0.93405 0.17452 -0.07400
C 	C 	0.70479 0.18337 0.50208 -0.06500
C 	C 	0.75817 0.24689 0.52353 0.00400
C 	C 	0.84894 0.27720 0.54238 0.06600
C 	C 	0.88411 0.24447 0.53907 -0.01300
C 	C 	0.82610 0.16887 0.52526 -0.07800
C 	C 	0.73773 0.14296 0.50347 0.12500
N 	N 	0.68154 0.07619 0.48260 -0.02200
H 	H 	0.63716 0.16382 0.48518 0.08800
H 	H 	0.95503 0.27228 0.55115 0.07400
N 	N 	0.90228 0.33325 0.56841 -0.02100
O 	O 	0.59453 0.02458 0.47829 -0.07000
O 	O 	0.71681 0.07045 0.46583 -0.06700
O 	O 	0.88097 0.30447 0.60135 -0.07700
O 	O 	0.97684 0.40972 0.56110 -0.07500
C 	C 	0.75033 0.53855 0.50003 -0.06700
C 	C 	0.78008 0.48765 0.52992 0.00300
C 	C 	0.83973 0.51359 0.56549 0.06800
C 	C 	0.86449 0.58644 0.57177 -0.00900
C 	C 	0.83368 0.63669 0.54212 -0.08200
C 	C 	0.77415 0.61099 0.50639 0.12400
N 	N 	0.73422 0.65559 0.47730 -0.02300
H 	H 	0.70253 0.51755 0.47304 0.08800
H 	H 	0.91003 0.60544 0.59935 0.07200
N 	N 	0.87449 0.46528 0.59558 -0.01700
O 	O 	0.71975 0.66636 0.43978 -0.05600
O 	O 	0.70257 0.67585 0.48827 -0.06200
O 	O 	0.95731 0.49654 0.60086 -0.07200
O 	O 	0.82529 0.39288 0.61930 -0.07400
C 	C 	0.49093 0.18197 0.58061 -0.06400
C 	C 	0.50251 0.18646 0.54732 -0.00100
C 	C 	0.42661 0.14922 0.51682 0.07100
C 	C 	0.34065 0.10791 0.51996 -0.01200
C 	C 	0.32927 0.10519 0.55276 -0.07200
C 	C 	0.40547 0.14488 0.58270 0.12500
N 	N 	0.39662 0.14841 0.61511 -0.02300
H 	H 	0.54932 0.21221 0.60377 0.08500
H 	H 	0.28222 0.07596 0.49723 0.07300
N 	N 	0.43673 0.15480 0.48216 -0.01900
O 	O 	0.43266 0.12292 0.65129 -0.06900
O 	O 	0.36510 0.18923 0.60831 -0.07500
O 	O 	0.40294 0.08410 0.47472 -0.08400
O 	O 	0.47298 0.22945 0.45643 -0.07500
C 	C 	0.90793 0.26347 0.03682 -0.01100
C 	C 	0.84838 0.18623 0.02408 -0.07700
C 	C 	0.75882 0.15848 0.00429 0.11600
C 	C 	0.72751 0.19991 0.00330 -0.07400
C 	C 	0.78258 0.26396 0.02470 0.00700
C 	C 	0.87420 0.29559 0.04184 0.06900
N 	N 	0.92985 0.35148 0.06817 -0.01500
H 	H 	0.97919 0.29217 0.04753 0.07800
H 	H 	0.65914 0.17932 0.98748 0.09100
N 	N 	0.69815 0.08538 0.98704 -0.02100
O 	O 	0.91116 0.32249 0.10185 -0.07200
O 	O 	0.61606 0.02585 0.99183 -0.07600
O 	O 	0.72475 0.07864 0.96626 -0.06700
C 	C 	0.82048 0.50581 0.07800 -0.05900
C 	C 	0.80393 0.49428 0.04205 0.00500
C 	C 	0.81371 0.56214 0.00745 0.07200
C 	C 	0.83859 0.63957 0.00900 -0.01700
C 	C 	0.85413 0.65069 0.04489 -0.06800
C 	C 	0.83834 0.58033 0.07891 0.11600
N 	N 	0.82884 0.57937 0.11249 -0.02300
H 	H 	0.80995 0.45264 0.10446 0.09000
H 	H 	0.84685 0.69168 0.98224 0.09900
N 	N 	0.79643 0.55194 0.97041 -0.01700
O 	O 	0.76461 0.58093 0.10853 -0.07300
O 	O 	0.87457 0.56322 0.14775 -0.08200
O 	O 	0.71406 0.50036 0.95212 -0.07100
O 	O 	0.86232 0.59922 0.95354 -0.05000
C 	C 	0.45554 0.19124 0.01771 -0.07400
C 	C 	0.52432 0.19339 0.05116 0.00100
C 	C 	0.50834 0.15653 0.08926 0.06700
C 	C 	0.42502 0.12036 0.09340 -0.01000
C 	C 	0.35632 0.11837 0.05992 -0.07300
C 	C 	0.37286 0.15651 0.02186 0.10900
H 	H 	0.46846 0.22192 0.98840 0.09500
H 	H 	0.41250 0.09067 0.12272 0.07800
N 	N 	0.57741 0.15742 0.12385 -0.01800
O 	O 	0.59938 0.18694 0.15219 -0.07500
O 	O 	0.61488 0.12437 0.12798 -0.08200
