data_crystal

_cell_length_a 32.29922
_cell_length_b 29.07531
_cell_length_c 19.86659
_cell_angle_alpha 92.66474
_cell_angle_beta  85.32410
_cell_angle_gamma 124.33921

_symmetry_space_group_name_	'P 1'
_symmetry_space_group_name_H-M	'P 1'

loop_
_symmetry_equiv_pos_as_xyz
  x,y,z

loop_
_atom_site_label
_atom_site_type_symbol
_atom_site_fract_x
_atom_site_fract_y
_atom_site_fract_z
_atom_site_charge
C 	C 	0.90393 0.83821 0.02265 -0.00300
C 	C 	0.94319 0.87536 0.97645 -0.02800
C 	C 	0.96984 0.93285 0.98780 -0.06700
C 	C 	0.95679 0.95379 0.04491 0.07900
C 	C 	0.91737 0.91665 0.09057 -0.07000
C 	C 	0.89125 0.85920 0.07983 -0.02600
N 	N 	0.98476 0.01279 0.05884 -0.14200
C 	C 	0.92618 0.09686 0.97942 -0.01000
C 	C 	0.94060 0.10631 0.04608 -0.02200
C 	C 	0.96143 0.07998 0.07100 -0.07200
C 	C 	0.96794 0.04377 0.02980 0.08200
C 	C 	0.95527 0.03595 0.96202 -0.07500
C 	C 	0.93439 0.06234 0.93713 -0.02300
C 	C 	0.14234 0.09233 0.06786 -0.00700
C 	C 	0.12324 0.09513 0.00829 -0.02400
C 	C 	0.07147 0.06924 0.00487 -0.07000
C 	C 	0.03833 0.04033 0.06124 0.07500
C 	C 	0.05761 0.03781 0.12065 -0.07000
C 	C 	0.10930 0.06368 0.12403 -0.02600
C 	C 	0.85510 0.17392 0.91709 0.00400
C 	C 	0.83075 0.13168 0.96601 -0.04000
C 	C 	0.85340 0.10556 0.98510 -0.04700
C 	C 	0.90044 0.12116 0.95506 0.01200
C 	C 	0.92380 0.16173 0.90400 -0.04500
C 	C 	0.90106 0.18785 0.88486 -0.04000
C 	C 	0.82361 0.66128 0.99426 0.00300
C 	C 	0.79736 0.68665 0.00448 -0.03900
C 	C 	0.82358 0.74445 0.01213 -0.04300
C 	C 	0.87630 0.77728 0.01151 0.00900
C 	C 	0.90249 0.75170 0.00219 -0.04100
C 	C 	0.87624 0.69396 0.99351 -0.04300
C 	C 	0.30049 0.16734 0.07424 0.00500
C 	C 	0.26642 0.10960 0.08253 -0.04100
C 	C 	0.21481 0.08515 0.08058 -0.04400
C 	C 	0.19682 0.11832 0.07098 0.01000
C 	C 	0.23085 0.17630 0.06474 -0.04400
C 	C 	0.28247 0.20073 0.06681 -0.04100
H 	H 	0.95309 0.85972 0.93189 0.03400
H 	H 	0.00047 0.96097 0.95237 0.04200
H 	H 	0.90741 0.93243 0.13492 0.04800
H 	H 	0.86142 0.83098 0.11620 0.03400
H 	H 	0.93494 0.13340 0.07890 0.03200
H 	H 	0.97143 0.08661 0.12296 0.05000
H 	H 	0.96163 0.00978 0.92872 0.04800
H 	H 	0.92390 0.05527 0.88535 0.03300
H 	H 	0.14841 0.11682 0.96447 0.03100
H 	H 	0.05717 0.07085 0.95830 0.04400
H 	H 	0.03238 0.01566 0.16422 0.04700
H 	H 	0.12367 0.06140 0.17027 0.03300
H 	H 	0.79497 0.12024 0.99058 0.03800
H 	H 	0.83480 0.07385 0.02401 0.04000
H 	H 	0.95995 0.17381 0.88018 0.03800
H 	H 	0.91972 0.21979 0.84625 0.03600
H 	H 	0.75668 0.66163 0.00583 0.03800
H 	H 	0.80295 0.76369 0.01885 0.03800
H 	H 	0.94310 0.77646 0.00240 0.03800
H 	H 	0.89675 0.67461 0.98646 0.03600
H 	H 	0.28002 0.08358 0.08880 0.03800
H 	H 	0.18885 0.04040 0.08577 0.03800
H 	H 	0.21731 0.20234 0.05816 0.03800
H 	H 	0.30850 0.24544 0.06139 0.03700
C 	C 	0.92720 0.82601 0.56247 -0.00600
C 	C 	0.96649 0.86513 0.51809 -0.02700
C 	C 	0.99057 0.92199 0.53116 -0.06800
C 	C 	0.97529 0.94028 0.58889 0.07700
C 	C 	0.93714 0.90098 0.63424 -0.07000
C 	C 	0.91311 0.84410 0.62111 -0.02600
N 	N 	0.99675 0.99875 0.60068 -0.14200
C 	C 	0.92008 0.06270 0.52273 -0.00700
C 	C 	0.93895 0.07859 0.58693 -0.02500
C 	C 	0.96395 0.05724 0.61216 -0.07000
C 	C 	0.97039 0.01988 0.57357 0.07900
C 	C 	0.95143 0.00404 0.50890 -0.07200
C 	C 	0.92634 0.02534 0.48388 -0.02500
C 	C 	0.15615 0.09873 0.57325 -0.00700
C 	C 	0.12747 0.09467 0.52119 -0.02500
C 	C 	0.07512 0.06267 0.53003 -0.07200
C 	C 	0.05089 0.03432 0.59143 0.07500
C 	C 	0.07980 0.03954 0.64384 -0.07000
C 	C 	0.13217 0.07155 0.63485 -0.02600
C 	C 	0.84104 0.12901 0.45803 0.00400
C 	C 	0.81538 0.07180 0.47059 -0.04100
C 	C 	0.84152 0.04975 0.48948 -0.04400
C 	C 	0.89343 0.08489 0.49651 0.01000
C 	C 	0.91937 0.14177 0.48168 -0.04400
C 	C 	0.89324 0.16378 0.46267 -0.04000
C 	C 	0.84604 0.65184 0.51906 0.00300
C 	C 	0.82193 0.67959 0.51960 -0.04000
C 	C 	0.84851 0.73656 0.53351 -0.04400
C 	C 	0.89954 0.76626 0.54626 0.01000
C 	C 	0.92408 0.73885 0.54339 -0.04400
C 	C 	0.89747 0.68186 0.52943 -0.04000
C 	C 	0.31559 0.18643 0.54007 0.00400
C 	C 	0.28613 0.12862 0.54998 -0.04100
C 	C 	0.23404 0.09998 0.56069 -0.04400
C 	C 	0.21105 0.12902 0.56207 0.01000
C 	C 	0.24052 0.18688 0.55209 -0.04400
C 	C 	0.29268 0.21553 0.54142 -0.04100
H 	H 	0.97761 0.85147 0.47273 0.03400
H 	H 	0.01979 0.95167 0.49540 0.04300
H 	H 	0.92547 0.91467 0.67900 0.04900
H 	H 	0.88313 0.81408 0.65602 0.03300
H 	H 	0.93406 0.10732 0.61734 0.03400
H 	H 	0.97841 0.06969 0.66180 0.04900
H 	H 	0.95724 0.97662 0.47740 0.04800
H 	H 	0.91214 0.01319 0.43405 0.03300
H 	H 	0.14574 0.11533 0.47335 0.03300
H 	H 	0.05353 0.05845 0.48856 0.04600
H 	H 	0.06152 0.01813 0.69125 0.04700
H 	H 	0.15413 0.07472 0.67543 0.03300
H 	H 	0.77499 0.04479 0.46775 0.03600
H 	H 	0.82126 0.00572 0.50060 0.03800
H 	H 	0.95955 0.16908 0.48642 0.03900
H 	H 	0.91325 0.20808 0.45343 0.03800
H 	H 	0.78240 0.65679 0.51049 0.03600
H 	H 	0.82947 0.75760 0.53466 0.03800
H 	H 	0.96356 0.76158 0.55273 0.03800
H 	H 	0.91644 0.66074 0.52832 0.03700
H 	H 	0.30368 0.10598 0.54957 0.03800
H 	H 	0.21151 0.05526 0.56796 0.03800
H 	H 	0.22304 0.20961 0.55312 0.03800
H 	H 	0.31531 0.26030 0.53466 0.03600
Co	Co	0.70486 0.32079 0.94284 1.18100
O 	O 	0.75823 0.31961 0.87678 -0.38200
Co	Co	0.60295 0.31680 0.00129 1.18500
O 	O 	0.63414 0.28589 0.91386 -0.47000
O 	O 	0.66052 0.39670 0.00671 -0.41600
O 	O 	0.70576 0.24761 0.93400 -0.35500
C 	C 	0.70558 0.42120 0.97385 0.32700
O 	O 	0.59212 0.32022 0.89680 -0.35400
C 	C 	0.51317 0.26065 0.05982 0.29400
C 	C 	0.68300 0.32106 0.07582 0.31000
O 	O 	0.54658 0.31338 0.06586 -0.37000
O 	O 	0.53118 0.23891 0.01969 -0.34400
O 	O 	0.72603 0.33777 0.04439 -0.37600
O 	O 	0.64649 0.29342 0.03606 -0.45200
O 	O 	0.71624 0.39452 0.92691 -0.53100
C 	C 	0.74345 0.26920 0.88972 0.29100
C 	C 	0.62049 0.30505 0.86952 0.31600
H 	H 	0.73936 0.41583 0.88603 0.16500
Co	Co	0.71206 0.30295 0.46689 1.18300
O 	O 	0.76721 0.29133 0.42625 -0.38800
Co	Co	0.62024 0.32290 0.48832 1.18300
O 	O 	0.65577 0.28970 0.41052 -0.46100
O 	O 	0.68344 0.38954 0.51831 -0.43100
O 	O 	0.69558 0.22056 0.45660 -0.35500
C 	C 	0.72737 0.41406 0.48355 0.33500
O 	O 	0.63472 0.34398 0.38360 -0.37300
C 	C 	0.52692 0.28070 0.52021 0.29200
C 	C 	0.66624 0.29422 0.58845 0.32900
O 	O 	0.56390 0.32952 0.53680 -0.38100
O 	O 	0.54243 0.25568 0.48173 -0.35200
O 	O 	0.71026 0.30371 0.57478 -0.36600
O 	O 	0.64041 0.27894 0.53577 -0.46900
O 	O 	0.74575 0.38544 0.45739 -0.52200
C 	C 	0.74003 0.23785 0.43123 0.29500
C 	C 	0.65892 0.32165 0.36406 0.31700
H 	H 	0.78047 0.40642 0.43331 0.17100
C 	C 	0.64379 0.28668 0.65758 -0.12400
C 	C 	0.64848 0.25515 0.70422 0.15300
C 	C 	0.63919 0.25999 0.77335 -0.06000
C 	C 	0.62407 0.29514 0.79635 -0.11500
C 	C 	0.61658 0.32417 0.74898 0.14100
C 	C 	0.62435 0.31768 0.67975 -0.05200
H 	H 	0.64481 0.23725 0.80910 0.05300
H 	H 	0.61897 0.34038 0.64364 0.04300
O 	O 	0.66642 0.22324 0.68273 -0.20500
O 	O 	0.60046 0.35787 0.77023 -0.19500
C 	C 	0.62510 0.16911 0.66852 -0.02200
H 	H 	0.59971 0.14871 0.71457 0.03400
H 	H 	0.63945 0.14351 0.65088 0.03700
H 	H 	0.60388 0.16937 0.62723 0.04500
C 	C 	0.64291 0.41320 0.77411 -0.01900
H 	H 	0.67014 0.41699 0.80868 0.03500
H 	H 	0.63029 0.43973 0.79496 0.04100
H 	H 	0.66175 0.42971 0.72317 0.03300
C 	C 	0.66519 0.31145 0.29216 -0.11600
C 	C 	0.71323 0.34141 0.25869 0.13900
C 	C 	0.71815 0.34608 0.18832 -0.05300
C 	C 	0.67585 0.31548 0.15016 -0.11300
C 	C 	0.62785 0.28034 0.18360 0.13800
C 	C 	0.62265 0.28034 0.25444 -0.04200
H 	H 	0.75516 0.37339 0.16337 0.05500
H 	H 	0.58543 0.25699 0.27998 0.05600
O 	O 	0.75547 0.37076 0.29523 -0.22500
O 	O 	0.58557 0.24921 0.14742 -0.20900
C 	C 	0.78038 0.34346 0.28919 -0.02400
H 	H 	0.75463 0.29823 0.30136 0.03700
H 	H 	0.81047 0.36287 0.32512 0.04000
H 	H 	0.79898 0.34912 0.23772 0.03600
C 	C 	0.57409 0.19477 0.13994 -0.02100
H 	H 	0.60562 0.19461 0.11290 0.04900
H 	H 	0.54110 0.17025 0.10900 0.04900
H 	H 	0.56359 0.17343 0.18964 0.03600
C 	C 	0.81703 0.59099 0.50997 0.01200
C 	C 	0.80005 0.55497 0.56605 -0.01200
C 	C 	0.77414 0.49744 0.55529 0.00700
C 	C 	0.76181 0.47498 0.49028 -0.12400
C 	C 	0.77747 0.51099 0.43423 0.06600
C 	C 	0.80577 0.56883 0.44474 -0.08300
H 	H 	0.76105 0.46970 0.59824 0.03400
H 	H 	0.81823 0.59666 0.40206 0.04800
C 	C 	0.80352 0.57657 0.63772 -0.05000
C 	C 	0.76382 0.48882 0.36311 -0.08700
C 	C 	0.75734 0.57695 0.65999 -0.14500
H 	H 	0.83800 0.61900 0.64317 0.03700
H 	H 	0.80597 0.54958 0.67278 0.03200
H 	H 	0.75214 0.60120 0.62416 0.05800
H 	H 	0.76210 0.59654 0.71047 0.05100
H 	H 	0.72314 0.53369 0.66301 0.05700
C 	C 	0.80954 0.49885 0.31991 -0.12800
H 	H 	0.74939 0.51057 0.33933 0.04400
H 	H 	0.73333 0.44389 0.36202 0.05600
H 	H 	0.83911 0.54415 0.31508 0.05000
H 	H 	0.79830 0.48166 0.26849 0.05700
H 	H 	0.82528 0.47814 0.34262 0.05700
C 	C 	0.81254 0.15369 0.45014 0.01000
C 	C 	0.80657 0.16705 0.38568 -0.00800
C 	C 	0.78108 0.19289 0.38072 -0.00400
C 	C 	0.76248 0.20647 0.43885 -0.10100
C 	C 	0.76825 0.19270 0.50353 0.06700
C 	C 	0.79313 0.16624 0.50821 -0.08100
H 	H 	0.77614 0.20296 0.33138 0.03000
H 	H 	0.79847 0.15651 0.55751 0.04800
C 	C 	0.82530 0.15195 0.32169 -0.05200
C 	C 	0.75120 0.20908 0.56822 -0.08200
C 	C 	0.78561 0.09324 0.29828 -0.14400
H 	H 	0.86060 0.15519 0.32872 0.03900
H 	H 	0.83455 0.18179 0.28074 0.03500
H 	H 	0.77666 0.06209 0.33710 0.05800
H 	H 	0.80004 0.08356 0.25093 0.05300
H 	H 	0.75073 0.09003 0.28820 0.05700
C 	C 	0.79181 0.26777 0.59052 -0.13200
H 	H 	0.74260 0.17965 0.60936 0.04400
H 	H 	0.71577 0.20586 0.56355 0.06700
H 	H 	0.82663 0.27043 0.59933 0.05500
H 	H 	0.77845 0.27808 0.63839 0.06800
H 	H 	0.80048 0.29880 0.55169 0.06200
C 	C 	0.37069 0.21683 0.53297 0.01000
C 	C 	0.39613 0.22149 0.46956 -0.00700
C 	C 	0.44807 0.24598 0.46596 -0.00300
C 	C 	0.47457 0.26402 0.52465 -0.10000
C 	C 	0.44941 0.26104 0.58780 0.06400
C 	C 	0.39760 0.23749 0.59116 -0.08000
H 	H 	0.46777 0.24988 0.41741 0.03700
H 	H 	0.37780 0.23356 0.63963 0.04800
C 	C 	0.36874 0.20210 0.40500 -0.05200
C 	C 	0.47657 0.27952 0.65261 -0.08100
C 	C 	0.36925 0.24908 0.37284 -0.14300
H 	H 	0.32933 0.16570 0.41382 0.03900
H 	H 	0.38717 0.18790 0.36823 0.03500
H 	H 	0.34977 0.26320 0.40747 0.05700
H 	H 	0.34957 0.23397 0.32531 0.05100
H 	H 	0.40853 0.28486 0.36063 0.05600
C 	C 	0.48053 0.23415 0.68046 -0.13400
H 	H 	0.45604 0.28950 0.69163 0.04500
H 	H 	0.51456 0.31850 0.64506 0.06300
H 	H 	0.44254 0.19527 0.68961 0.05500
H 	H 	0.49880 0.24822 0.72910 0.06500
H 	H 	0.50353 0.22531 0.64480 0.06200
C 	C 	0.79577 0.60004 0.98723 0.01000
C 	C 	0.77532 0.57324 0.92565 -0.01100
C 	C 	0.74724 0.51485 0.92182 0.00100
C 	C 	0.73966 0.48281 0.97803 -0.12000
C 	C 	0.76175 0.50987 0.03895 0.06900
C 	C 	0.78895 0.56821 0.04311 -0.08100
H 	H 	0.73090 0.49432 0.87501 0.02300
H 	H 	0.80495 0.58892 0.09011 0.04800
C 	C 	0.78549 0.60635 0.86254 -0.05100
C 	C 	0.75749 0.47746 0.09962 -0.08100
C 	C 	0.83402 0.62043 0.82367 -0.14400
H 	H 	0.78762 0.64527 0.87434 0.03800
H 	H 	0.75385 0.58173 0.82927 0.03200
H 	H 	0.86640 0.64486 0.85574 0.05700
H 	H 	0.84123 0.64572 0.77856 0.05100
H 	H 	0.83084 0.58167 0.80665 0.05300
C 	C 	0.71499 0.46726 0.15038 -0.13500
H 	H 	0.79332 0.50120 0.12524 0.04100
H 	H 	0.75193 0.43738 0.08436 0.05000
H 	H 	0.72108 0.50744 0.16751 0.05600
H 	H 	0.71403 0.44516 0.19520 0.05800
H 	H 	0.67816 0.44129 0.12771 0.06800
C 	C 	0.83364 0.20558 0.90253 0.00800
C 	C 	0.84153 0.25010 0.94474 -0.00500
C 	C 	0.81441 0.27356 0.93612 -0.00300
C 	C 	0.77917 0.25282 0.88698 -0.09700
C 	C 	0.77438 0.21162 0.84123 0.06000
C 	C 	0.80131 0.18784 0.84993 -0.07800
H 	H 	0.81944 0.30676 0.96941 0.03400
H 	H 	0.79598 0.15440 0.81689 0.04700
C 	C 	0.88020 0.27455 0.99732 -0.05600
C 	C 	0.73952 0.19137 0.78427 -0.07900
C 	C 	0.93172 0.32086 0.96704 -0.14400
H 	H 	0.88313 0.24236 0.01988 0.04200
H 	H 	0.86873 0.29211 0.03994 0.03800
H 	H 	0.94495 0.30450 0.92526 0.05700
H 	H 	0.95926 0.33823 0.00656 0.05400
H 	H 	0.93003 0.35492 0.94750 0.05600
C 	C 	0.68726 0.14116 0.80621 -0.13400
H 	H 	0.75494 0.17928 0.74018 0.04100
H 	H 	0.73659 0.22503 0.76637 0.05400
H 	H 	0.68956 0.10715 0.82444 0.05500
H 	H 	0.66333 0.12534 0.76261 0.05400
H 	H 	0.66933 0.15298 0.84700 0.06600
C 	C 	0.35518 0.19242 0.06989 0.00800
C 	C 	0.38110 0.19531 0.00753 -0.00400
C 	C 	0.43280 0.21836 0.00544 -0.00300
C 	C 	0.45896 0.23776 0.06445 -0.09700
C 	C 	0.43315 0.23519 0.12684 0.06200
C 	C 	0.38131 0.21217 0.12893 -0.07900
H 	H 	0.45285 0.22155 0.95744 0.04000
H 	H 	0.36116 0.20909 0.17678 0.04600
C 	C 	0.35468 0.17615 0.94220 -0.05500
C 	C 	0.45956 0.25356 0.19216 -0.08100
C 	C 	0.35935 0.22440 0.90653 -0.14300
H 	H 	0.31439 0.14186 0.95054 0.04000
H 	H 	0.37173 0.15893 0.90787 0.03700
H 	H 	0.34191 0.24207 0.93890 0.05700
H 	H 	0.33983 0.20924 0.85887 0.05200
H 	H 	0.39951 0.25768 0.89400 0.05800
C 	C 	0.45953 0.20646 0.22305 -0.13400
H 	H 	0.44034 0.26659 0.22926 0.04100
H 	H 	0.49878 0.29051 0.18430 0.06000
H 	H 	0.42037 0.17047 0.23531 0.05300
H 	H 	0.47953 0.22123 0.27035 0.05700
H 	H 	0.47893 0.19272 0.18757 0.06500
