data_crystal

_cell_length_a 19.09981
_cell_length_b 27.84020
_cell_length_c 39.11948
_cell_angle_alpha 90.00055
_cell_angle_beta  76.95695
_cell_angle_gamma 90.00043

_symmetry_space_group_name_	'P 1'
_symmetry_space_group_name_H-M	'P 1'

loop_
_symmetry_equiv_pos_as_xyz
  x,y,z

loop_
_atom_site_label
_atom_site_type_symbol
_atom_site_fract_x
_atom_site_fract_y
_atom_site_fract_z
_atom_site_charge
Cu	Cu	0.54298 0.44375 0.16422 0.92900
Cu	Cu	0.66556 0.50235 0.19365 0.86500
Cu	Cu	0.52435 0.54603 0.19200 0.89600
Cu	Cu	0.39230 0.49566 0.18029 0.89400
C 	C 	0.41154 0.38993 0.17840 0.29000
O 	O 	0.52179 0.45783 0.11675 -0.36300
C 	C 	0.65425 0.60464 0.18737 0.28300
O 	O 	0.47186 0.48646 0.20093 -0.63800
O 	O 	0.59845 0.50351 0.16298 -0.64400
O 	O 	0.61683 0.39975 0.17489 -0.37800
O 	O 	0.63509 0.44562 0.22012 -0.44100
O 	O 	0.37989 0.42726 0.16756 -0.38700
O 	O 	0.45129 0.58462 0.22216 -0.38700
C 	C 	0.38396 0.58763 0.21918 0.28900
C 	C 	0.49766 0.49999 0.10929 0.28100
O 	O 	0.46282 0.52782 0.13465 -0.39700
O 	O 	0.34929 0.54936 0.21168 -0.39400
O 	O 	0.48199 0.38861 0.17425 -0.36500
C 	C 	0.63771 0.40369 0.20450 0.28900
O 	O 	0.58551 0.60325 0.18628 -0.38400
O 	O 	0.69583 0.56646 0.17963 -0.42200
H 	H 	0.46001 0.47630 0.22582 0.16200
H 	H 	0.61904 0.51649 0.13928 0.17100
Cu	Cu	0.44487 0.44404 0.80293 0.92800
Cu	Cu	0.32106 0.50312 0.77486 0.86600
Cu	Cu	0.46350 0.54634 0.77511 0.89500
Cu	Cu	0.59619 0.49515 0.78536 0.89200
C 	C 	0.57567 0.38955 0.78725 0.28900
O 	O 	0.46843 0.45790 0.84990 -0.36400
C 	C 	0.33364 0.60534 0.78077 0.28200
O 	O 	0.51521 0.48651 0.76567 -0.63800
O 	O 	0.38983 0.50404 0.80469 -0.64400
O 	O 	0.36964 0.40040 0.79327 -0.37700
O 	O 	0.34966 0.44614 0.74834 -0.43900
O 	O 	0.60847 0.42660 0.79774 -0.38800
O 	O 	0.53614 0.58474 0.74447 -0.38700
C 	C 	0.60397 0.58727 0.74672 0.28900
C 	C 	0.49334 0.49993 0.85712 0.28100
O 	O 	0.52787 0.52759 0.83156 -0.39800
O 	O 	0.63861 0.54869 0.75369 -0.39700
O 	O 	0.50501 0.38860 0.79234 -0.36600
C 	C 	0.34742 0.40428 0.76402 0.29000
O 	O 	0.40269 0.60376 0.78126 -0.38300
O 	O 	0.29190 0.56734 0.78904 -0.41900
H 	H 	0.52588 0.47636 0.74077 0.16200
H 	H 	0.37023 0.51703 0.82850 0.17200
Cu	Cu	0.96731 0.94326 0.29945 0.91900
Cu	Cu	0.84670 0.00199 0.26861 0.86600
Cu	Cu	0.98688 0.04575 0.27216 0.88700
Cu	Cu	0.11763 0.99549 0.28555 0.89100
C 	C 	0.09898 0.88970 0.28662 0.28800
O 	O 	0.98576 0.95696 0.34749 -0.37900
C 	C 	0.85732 0.10424 0.27530 0.28200
O 	O 	0.03979 0.98633 0.26368 -0.63200
O 	O 	0.91185 0.00299 0.30027 -0.64400
O 	O 	0.89467 0.89927 0.28765 -0.38300
O 	O 	0.87856 0.94547 0.24217 -0.44700
O 	O 	0.12968 0.92697 0.29811 -0.38700
O 	O 	0.06091 0.08445 0.24281 -0.37500
C 	C 	0.12763 0.08766 0.24668 0.28900
C 	C 	0.00871 0.99917 0.35557 0.27200
O 	O 	0.04501 0.02721 0.33073 -0.38300
O 	O 	0.16185 0.04954 0.25481 -0.39000
O 	O 	0.02874 0.88827 0.28991 -0.35300
C 	C 	0.87524 0.90344 0.25769 0.28900
O 	O 	0.92562 0.10292 0.27720 -0.39000
O 	O 	0.81572 0.06600 0.28254 -0.42100
H 	H 	0.05302 0.97635 0.23876 0.16300
H 	H 	0.89011 0.01580 0.32389 0.17100
Cu	Cu	0.02141 0.94297 0.66743 0.93300
Cu	Cu	0.13928 0.00216 0.69992 0.86900
Cu	Cu	0.99928 0.04524 0.69520 0.88800
Cu	Cu	0.87050 0.99419 0.67991 0.88900
C 	C 	0.89060 0.88860 0.67873 0.28900
O 	O 	0.00521 0.95683 0.61897 -0.34100
C 	C 	0.12801 0.10435 0.69351 0.28100
O 	O 	0.94701 0.98544 0.70275 -0.64700
O 	O 	0.07572 0.00304 0.66752 -0.63300
O 	O 	0.09371 0.89932 0.67994 -0.37400
O 	O 	0.10709 0.94541 0.72597 -0.43900
O 	O 	0.86014 0.92568 0.66689 -0.39300
O 	O 	0.92337 0.08341 0.72381 -0.39200
C 	C 	0.85733 0.08619 0.71889 0.29000
C 	C 	0.98194 0.99891 0.61080 0.24200
O 	O 	0.94448 0.02660 0.63553 -0.38800
O 	O 	0.82427 0.04773 0.71052 -0.39200
O 	O 	0.96066 0.88752 0.67609 -0.37600
C 	C 	0.11164 0.90347 0.71026 0.29100
O 	O 	0.05977 0.10278 0.69149 -0.37100
O 	O 	0.16996 0.06627 0.68633 -0.41700
H 	H 	0.93278 0.97516 0.72759 0.15800
H 	H 	0.09817 0.01613 0.64407 0.17500
C 	C 	0.93888 0.00143 0.45370 -0.02000
C 	C 	0.99453 0.02578 0.46446 -0.01900
C 	C 	0.05090 0.04592 0.43922 -0.02000
C 	C 	0.05365 0.03947 0.40348 -0.01700
C 	C 	0.00010 0.01265 0.39272 -0.03000
C 	C 	0.94158 0.99495 0.41801 -0.05200
C 	C 	0.99742 0.02579 0.50182 -0.00200
H 	H 	0.09371 0.06524 0.44729 0.03800
H 	H 	0.09885 0.05363 0.38426 0.03700
H 	H 	0.89917 0.97506 0.41005 0.03900
H 	H 	0.89488 0.98601 0.47300 0.02700
C 	C 	0.94146 0.04649 0.52699 -0.05700
C 	C 	0.93833 0.03991 0.56274 0.00100
C 	C 	0.99112 0.01243 0.57360 -0.07900
C 	C 	0.04936 0.99423 0.54839 -0.00100
C 	C 	0.05241 0.00081 0.51267 -0.01700
H 	H 	0.89919 0.06630 0.51884 0.04000
H 	H 	0.89339 0.05451 0.58190 0.02900
H 	H 	0.09124 0.97387 0.55643 0.03400
H 	H 	0.09611 0.98498 0.49343 0.03200
C 	C 	0.75891 0.66950 0.70744 -0.06500
C 	C 	0.72621 0.71476 0.71367 0.01700
C 	C 	0.65269 0.71795 0.72947 -0.06300
C 	C 	0.61247 0.67626 0.73947 0.00900
C 	C 	0.64546 0.63096 0.73393 -0.08700
C 	C 	0.71882 0.62779 0.71755 0.01000
C 	C 	0.76916 0.75885 0.70417 0.01800
H 	H 	0.62698 0.75274 0.73444 0.04200
H 	H 	0.55602 0.67923 0.75218 0.03400
H 	H 	0.74479 0.59309 0.71266 0.03000
H 	H 	0.81544 0.66666 0.69488 0.04100
C 	C 	0.82773 0.76843 0.71927 -0.06500
C 	C 	0.86768 0.81058 0.71074 0.01000
C 	C 	0.84923 0.84367 0.68713 -0.08900
C 	C 	0.79080 0.83388 0.67187 0.01100
C 	C 	0.75109 0.79164 0.68032 -0.06500
H 	H 	0.84189 0.74344 0.73784 0.04000
H 	H 	0.91239 0.81776 0.72281 0.02700
H 	H 	0.77645 0.85875 0.65329 0.03200
H 	H 	0.70633 0.78436 0.66830 0.04300
C 	C 	0.62096 0.25736 0.77567 -0.06300
C 	C 	0.69459 0.25920 0.75995 0.01800
C 	C 	0.72900 0.30383 0.75313 -0.06400
C 	C 	0.69015 0.34631 0.76199 0.01000
C 	C 	0.61642 0.34458 0.77776 -0.08700
C 	C 	0.58198 0.29981 0.78448 0.01300
C 	C 	0.73539 0.21440 0.75007 0.01900
H 	H 	0.78572 0.30559 0.74073 0.04000
H 	H 	0.71723 0.38055 0.75631 0.02100
H 	H 	0.52526 0.29783 0.79680 0.03900
H 	H 	0.59400 0.22305 0.78114 0.04400
C 	C 	0.79355 0.20302 0.76501 -0.06500
C 	C 	0.83307 0.16101 0.75514 0.01300
C 	C 	0.81458 0.12988 0.73028 -0.08900
C 	C 	0.75601 0.14123 0.71555 0.01100
C 	C 	0.71669 0.18328 0.72539 -0.06500
H 	H 	0.80811 0.22672 0.78426 0.04200
H 	H 	0.87776 0.15263 0.76693 0.03100
H 	H 	0.74160 0.11784 0.69609 0.02600
H 	H 	0.67211 0.19191 0.71357 0.04300
C 	C 	0.23868 0.32613 0.71618 -0.06600
C 	C 	0.25997 0.28002 0.72420 0.02000
C 	C 	0.31260 0.27488 0.74383 -0.06500
C 	C 	0.34250 0.31545 0.75604 0.01500
C 	C 	0.31981 0.36163 0.74888 -0.09400
C 	C 	0.26847 0.36677 0.72844 0.01200
C 	C 	0.22487 0.23712 0.71348 0.01700
H 	H 	0.32947 0.23942 0.75011 0.04400
H 	H 	0.38290 0.31095 0.77128 0.03800
H 	H 	0.25046 0.40214 0.72270 0.02000
H 	H 	0.19842 0.33046 0.70085 0.04500
C 	C 	0.15106 0.22953 0.72661 -0.06100
C 	C 	0.11896 0.18688 0.71906 0.00900
C 	C 	0.16043 0.15130 0.69838 -0.08400
C 	C 	0.23386 0.15968 0.68425 0.01000
C 	C 	0.26586 0.20239 0.69177 -0.06300
H 	H 	0.11897 0.25613 0.74340 0.04500
H 	H 	0.06232 0.18092 0.73014 0.03800
H 	H 	0.26629 0.13296 0.66774 0.03200
H 	H 	0.32272 0.20818 0.68118 0.04300
C 	C 	0.19428 0.70273 0.78390 -0.06300
C 	C 	0.23445 0.73782 0.76223 0.01700
C 	C 	0.30831 0.73083 0.74887 -0.06300
C 	C 	0.34124 0.68833 0.75604 0.00800
C 	C 	0.30053 0.65229 0.77657 -0.08700
C 	C 	0.22711 0.66016 0.79106 0.01000
C 	C 	0.19838 0.78033 0.75162 0.01900
H 	H 	0.33978 0.75775 0.73213 0.04200
H 	H 	0.39789 0.68282 0.74472 0.03300
H 	H 	0.19527 0.63314 0.80751 0.03200
H 	H 	0.13739 0.70808 0.79469 0.04500
C 	C 	0.14617 0.77465 0.73181 -0.06300
C 	C 	0.11618 0.81489 0.71924 0.01500
C 	C 	0.13836 0.86127 0.72623 -0.09300
C 	C 	0.18888 0.86696 0.74705 0.01100
C 	C 	0.21879 0.82665 0.75965 -0.06600
H 	H 	0.12990 0.73902 0.72557 0.04600
H 	H 	0.07629 0.81001 0.70375 0.04200
H 	H 	0.20638 0.90251 0.75270 0.01700
H 	H 	0.25867 0.83139 0.77516 0.04200
C 	C 	0.16173 0.76969 0.24584 -0.06200
C 	C 	0.22019 0.75994 0.26099 0.01800
C 	C 	0.23847 0.79271 0.28480 -0.06300
C 	C 	0.19899 0.83504 0.29321 0.01100
C 	C 	0.14056 0.84493 0.27798 -0.08400
C 	C 	0.12199 0.81191 0.25436 0.01100
C 	C 	0.26272 0.71566 0.25163 0.01900
H 	H 	0.28316 0.78532 0.29683 0.04400
H 	H 	0.21344 0.85988 0.31179 0.03400
H 	H 	0.07726 0.81918 0.24232 0.03500
H 	H 	0.14744 0.74473 0.22728 0.04500
C 	C 	0.22947 0.67055 0.25774 -0.06300
C 	C 	0.26921 0.62866 0.24778 0.01200
C 	C 	0.34274 0.63149 0.23169 -0.08600
C 	C 	0.37626 0.67663 0.22626 0.01000
C 	C 	0.33639 0.71850 0.23608 -0.06300
H 	H 	0.17281 0.66797 0.27010 0.04600
H 	H 	0.24284 0.59408 0.25259 0.03300
H 	H 	0.43285 0.67933 0.21378 0.03400
H 	H 	0.36252 0.75317 0.23120 0.04300
C 	C 	0.67931 0.73022 0.21918 -0.06300
C 	C 	0.75326 0.73716 0.20602 0.01600
C 	C 	0.79365 0.70192 0.18460 -0.06500
C 	C 	0.76095 0.65930 0.17746 0.00800
C 	C 	0.68741 0.65153 0.19170 -0.08800
C 	C 	0.64650 0.68767 0.21201 0.00700
C 	C 	0.78910 0.77985 0.21655 0.01800
H 	H 	0.85061 0.70723 0.17396 0.03900
H 	H 	0.79295 0.63217 0.16119 0.02800
H 	H 	0.58976 0.68223 0.22314 0.03300
H 	H 	0.64767 0.75723 0.23574 0.04200
C 	C 	0.76825 0.82607 0.20855 -0.06800
C 	C 	0.79789 0.86653 0.22111 0.01100
C 	C 	0.84866 0.86108 0.24182 -0.09800
C 	C 	0.87130 0.81481 0.24877 0.01300
C 	C 	0.84153 0.77442 0.23626 -0.06700
H 	H 	0.72822 0.83063 0.19310 0.04100
H 	H 	0.78004 0.90199 0.21548 0.01500
H 	H 	0.91140 0.81011 0.26415 0.03300
H 	H 	0.85814 0.73887 0.24249 0.04100
C 	C 	0.71839 0.20156 0.27695 -0.06500
C 	C 	0.75933 0.23676 0.25572 0.01700
C 	C 	0.83339 0.22973 0.24299 -0.06400
C 	C 	0.86582 0.18718 0.25046 0.00700
C 	C 	0.82443 0.15110 0.27061 -0.08900
C 	C 	0.75072 0.15892 0.28437 0.01000
C 	C 	0.72401 0.27960 0.24504 0.01800
H 	H 	0.86545 0.25670 0.22658 0.03900
H 	H 	0.92269 0.18169 0.23970 0.02900
H 	H 	0.71832 0.13183 0.30049 0.03000
H 	H 	0.66134 0.20692 0.28725 0.04300
C 	C 	0.67170 0.27439 0.22523 -0.06500
C 	C 	0.64203 0.31492 0.21285 0.01300
C 	C 	0.66467 0.36112 0.21999 -0.09500
C 	C 	0.71549 0.36633 0.24071 0.01000
C 	C 	0.74501 0.32574 0.25316 -0.06700
H 	H 	0.65501 0.23892 0.21890 0.04300
H 	H 	0.60191 0.31038 0.19745 0.03800
H 	H 	0.73338 0.40172 0.24648 0.01600
H 	H 	0.78495 0.33013 0.26867 0.04000
C 	C 	0.27269 0.29241 0.18082 -0.06300
C 	C 	0.29143 0.25991 0.20468 0.01900
C 	C 	0.35012 0.26997 0.21960 -0.06300
C 	C 	0.38957 0.31225 0.21082 0.01100
C 	C 	0.37042 0.34504 0.18722 -0.08600
C 	C 	0.31184 0.33482 0.17219 0.01300
C 	C 	0.24906 0.21564 0.21438 0.01800
H 	H 	0.36478 0.24521 0.23818 0.04400
H 	H 	0.43449 0.31977 0.22268 0.03100
H 	H 	0.29701 0.35947 0.15360 0.03500
H 	H 	0.22786 0.28476 0.16894 0.04600
C 	C 	0.17533 0.21849 0.22979 -0.06100
C 	C 	0.13548 0.17663 0.23967 0.01000
C 	C 	0.16907 0.13151 0.23445 -0.08400
C 	C 	0.24272 0.12867 0.21863 0.01200
C 	C 	0.28245 0.17054 0.20858 -0.06300
H 	H 	0.14911 0.25314 0.23447 0.04600
H 	H 	0.07878 0.17933 0.25196 0.03900
H 	H 	0.26916 0.09408 0.21402 0.03300
H 	H 	0.33917 0.16795 0.19635 0.04400
C 	C 	0.54683 0.54640 0.93820 -0.06400
C 	C 	0.49267 0.52654 0.96474 0.01900
C 	C 	0.43475 0.50249 0.95580 -0.06300
C 	C 	0.43301 0.49604 0.92058 0.01300
C 	C 	0.48932 0.51345 0.89394 -0.08800
C 	C 	0.54514 0.53996 0.90294 0.01200
C 	C 	0.50017 0.52655 0.00144 0.01900
H 	H 	0.39242 0.48730 0.97611 0.04500
H 	H 	0.38888 0.47639 0.91401 0.02900
H 	H 	0.58869 0.55390 0.88267 0.02600
H 	H 	0.59137 0.56548 0.94487 0.04200
C 	C 	0.55684 0.50129 0.01058 -0.06300
C 	C 	0.55810 0.49481 0.04586 0.01200
C 	C 	0.50252 0.51340 0.07235 -0.08800
C 	C 	0.44810 0.54112 0.06313 0.01200
C 	C 	0.44692 0.54759 0.02781 -0.06400
H 	H 	0.59849 0.48519 0.99039 0.04300
H 	H 	0.60123 0.47425 0.05259 0.02800
H 	H 	0.40517 0.55601 0.08327 0.02800
H 	H 	0.40338 0.56762 0.02099 0.04400
