data_crystal

_cell_length_a 29.56609
_cell_length_b 26.99707
_cell_length_c 30.39754
_cell_angle_alpha 89.92864
_cell_angle_beta  89.92483
_cell_angle_gamma 90.91314

_symmetry_space_group_name_	'P 1'
_symmetry_space_group_name_H-M	'P 1'

loop_
_symmetry_equiv_pos_as_xyz
  x,y,z

loop_
_atom_site_label
_atom_site_type_symbol
_atom_site_fract_x
_atom_site_fract_y
_atom_site_fract_z
_atom_site_charge
Zn	Zn	0.50546 0.48720 0.98942 1.21400
C 	C 	0.55582 0.57891 0.98396 0.30000
O 	O 	0.55090 0.44149 0.01181 -0.44700
O 	O 	0.54264 0.58492 0.02496 -0.42600
O 	O 	0.59527 0.49658 0.04829 -0.47700
C 	C 	0.44775 0.53733 0.04877 0.31900
O 	O 	0.46050 0.53389 0.00773 -0.44000
O 	O 	0.47583 0.52581 0.08048 -0.49200
C 	C 	0.59118 0.45735 0.02324 0.32600
O 	O 	0.45000 0.42670 0.00357 -0.30800
Zn	Zn	0.54151 0.52907 0.07102 1.17000
O 	O 	0.54590 0.53763 0.96257 -0.41700
C 	C 	0.45075 0.41806 0.96169 0.26200
O 	O 	0.47871 0.44550 0.93895 -0.35900
Zn	Zn	0.32778 0.14699 0.99854 1.21800
C 	C 	0.37128 0.15681 0.08298 0.30600
O 	O 	0.26325 0.13413 0.01060 -0.44100
O 	O 	0.36073 0.20395 0.08241 -0.43100
O 	O 	0.26459 0.16825 0.07911 -0.48600
C 	C 	0.35246 0.24791 0.98408 0.29700
O 	O 	0.36836 0.20312 0.98818 -0.44000
O 	O 	0.31577 0.26007 0.00551 -0.47500
C 	C 	0.24676 0.13711 0.05071 0.32700
O 	O 	0.31431 0.14740 0.92184 -0.30100
Zn	Zn	0.29825 0.22659 0.05986 1.17500
O 	O 	0.35228 0.12577 0.05511 -0.41900
C 	C 	0.33651 0.10626 0.92158 0.31600
O 	O 	0.34822 0.09024 0.95998 -0.38400
C 	C 	0.49987 0.01925 0.72633 0.15200
C 	C 	0.53665 0.99952 0.74917 -0.10900
H 	H 	0.56611 0.98733 0.73117 0.09100
C 	C 	0.53518 0.99531 0.79512 0.10000
C 	C 	0.49697 0.01122 0.81820 -0.08700
C 	C 	0.46054 0.03188 0.79555 0.04600
C 	C 	0.46201 0.03584 0.74958 -0.09900
H 	H 	0.43396 0.05185 0.73193 0.07600
N 	N 	0.50083 0.02202 0.67912 -0.18000
C 	C 	0.47879 0.98625 0.65492 0.20000
C 	C 	0.48035 0.98760 0.60864 -0.07800
C 	C 	0.50606 0.02484 0.58752 0.06500
C 	C 	0.52671 0.06244 0.61272 -0.07800
C 	C 	0.52385 0.06029 0.65895 0.20000
C 	C 	0.45529 0.95349 0.58336 0.01300
C 	C 	0.45714 0.95526 0.53753 -0.05500
C 	C 	0.48735 0.98842 0.51590 0.01600
C 	C 	0.51009 0.02522 0.54107 -0.02500
C 	C 	0.53521 0.06363 0.52009 0.01800
C 	C 	0.54843 0.10244 0.59149 0.01300
C 	C 	0.55110 0.10404 0.54568 -0.05500
C 	C 	0.49363 0.98713 0.46948 0.01600
C 	C 	0.51898 0.02541 0.44854 -0.02500
C 	C 	0.54187 0.06204 0.47375 0.01800
O 	O 	0.54358 0.09504 0.68296 -0.19700
O 	O 	0.45651 0.95011 0.67510 -0.18600
H 	H 	0.56209 0.13324 0.61033 0.04800
H 	H 	0.56331 0.13782 0.53038 0.05000
H 	H 	0.43295 0.92662 0.59909 0.04900
H 	H 	0.43328 0.93269 0.51925 0.04900
C 	C 	0.57270 0.09464 0.45229 -0.05500
C 	C 	0.57525 0.09595 0.40646 0.01300
C 	C 	0.54985 0.06222 0.38107 -0.07700
C 	C 	0.52308 0.02580 0.40209 0.06500
C 	C 	0.47705 0.94718 0.44372 -0.05600
C 	C 	0.47914 0.94927 0.39792 0.01200
C 	C 	0.50139 0.98899 0.37681 -0.08100
C 	C 	0.55207 0.06313 0.33477 0.20000
N 	N 	0.52858 0.02853 0.31051 -0.18100
C 	C 	0.50381 0.99152 0.33061 0.19800
C 	C 	0.52984 0.03110 0.26328 0.16400
C 	C 	0.50123 0.06346 0.24089 -0.12000
C 	C 	0.49999 0.06352 0.19481 0.11600
C 	C 	0.52800 0.03169 0.17111 -0.10400
C 	C 	0.55627 0.99883 0.19338 0.11200
C 	C 	0.55741 0.99888 0.23949 -0.11700
O 	O 	0.57666 0.09749 0.31466 -0.18000
O 	O 	0.48173 0.95854 0.30653 -0.20200
H 	H 	0.47902 0.08734 0.25935 0.08500
H 	H 	0.57863 0.97299 0.25688 0.09100
H 	H 	0.59646 0.11715 0.47076 0.05100
H 	H 	0.59817 0.12230 0.39085 0.05100
H 	H 	0.46475 0.91333 0.45882 0.04900
H 	H 	0.46485 0.91889 0.37897 0.04500
H 	H 	0.52645 0.03108 0.13547 0.08400
H 	H 	0.49594 0.00834 0.85379 0.06800
Zn	Zn	0.66845 0.86059 0.98871 1.21600
C 	C 	0.64828 0.86245 0.08126 0.30300
O 	O 	0.72257 0.89445 0.01301 -0.42400
O 	O 	0.68615 0.84015 0.09073 -0.43900
O 	O 	0.75935 0.82204 0.02472 -0.48900
C 	C 	0.64152 0.75761 0.98897 0.28300
O 	O 	0.65276 0.79566 0.96415 -0.45100
O 	O 	0.65208 0.75739 0.03086 -0.46700
C 	C 	0.75961 0.87056 0.02285 0.30200
O 	O 	0.68948 0.88346 0.91602 -0.31200
Zn	Zn	0.70958 0.78463 0.05053 1.17600
O 	O 	0.63061 0.85794 0.04187 -0.42500
C 	C 	0.65673 0.91480 0.91900 0.26400
O 	O 	0.63547 0.91459 0.95616 -0.38100
Zn	Zn	0.19181 0.64050 0.00801 1.22600
C 	C 	0.15782 0.64100 0.09658 0.36000
O 	O 	0.14540 0.69195 0.00522 -0.42800
O 	O 	0.16598 0.68893 0.09857 -0.43100
O 	O 	0.19572 0.75356 0.02188 -0.49300
C 	C 	0.28010 0.63855 0.04792 0.32600
O 	O 	0.25785 0.63571 0.01053 -0.45200
O 	O 	0.26345 0.66348 0.08100 -0.47800
C 	C 	0.15655 0.73920 0.00565 0.34200
O 	O 	0.19737 0.64314 0.93024 -0.31800
Zn	Zn	0.22396 0.71903 0.07083 1.17700
O 	O 	0.17777 0.61402 0.06659 -0.44100
C 	C 	0.17558 0.60099 0.93155 0.26600
O 	O 	0.16556 0.58495 0.97052 -0.38500
C 	C 	0.00357 0.48647 0.26675 0.13900
C 	C 	0.97482 0.45700 0.24061 -0.10000
H 	H 	0.95087 0.43158 0.25602 0.08900
C 	C 	0.97713 0.46046 0.19461 0.11000
C 	C 	0.00779 0.49384 0.17489 -0.09800
C 	C 	0.03621 0.52365 0.20095 0.04500
C 	C 	0.03432 0.51966 0.24686 -0.09900
H 	H 	0.05643 0.54245 0.26714 0.07000
N 	N 	0.00131 0.48311 0.31388 -0.18300
C 	C 	0.02495 0.44701 0.33524 0.19600
C 	C 	0.02763 0.44690 0.38149 -0.07600
C 	C 	0.00651 0.48454 0.40541 0.05400
C 	C 	0.97955 0.51887 0.38321 -0.07100
C 	C 	0.97729 0.51753 0.33696 0.20300
C 	C 	0.05008 0.40915 0.40403 0.01100
C 	C 	0.05323 0.41011 0.44983 -0.05500
C 	C 	0.03731 0.45118 0.47391 0.01600
C 	C 	0.01154 0.48721 0.45168 -0.03200
C 	C 	0.98928 0.52472 0.47551 0.02200
C 	C 	0.95449 0.55314 0.40744 0.01100
C 	C 	0.95795 0.55481 0.45320 -0.05500
C 	C 	0.04468 0.45576 0.52002 0.02100
C 	C 	0.02261 0.49351 0.54377 -0.03800
C 	C 	0.99710 0.52967 0.52145 0.02900
O 	O 	0.95273 0.55010 0.31569 -0.19800
O 	O 	0.04613 0.41301 0.31232 -0.18600
H 	H 	0.93129 0.57772 0.39105 0.04700
H 	H 	0.93459 0.57767 0.47108 0.05000
H 	H 	0.06391 0.37807 0.38629 0.04900
H 	H 	0.06586 0.37771 0.46633 0.04900
C 	C 	0.98193 0.57126 0.54525 -0.06100
C 	C 	0.98549 0.57271 0.59100 0.02500
C 	C 	0.00731 0.53466 0.61374 -0.08700
C 	C 	0.02755 0.49626 0.59004 0.06800
C 	C 	0.07530 0.42504 0.54261 -0.05700
C 	C 	0.07816 0.42641 0.58843 0.01500
C 	C 	0.05353 0.46122 0.61246 -0.07900
C 	C 	0.01017 0.53494 0.65998 0.19500
N 	N 	0.03245 0.49798 0.68157 -0.18000
C 	C 	0.05532 0.46243 0.65874 0.20100
C 	C 	0.02979 0.49497 0.72870 0.15500
C 	C 	0.06370 0.51686 0.75477 -0.11200
C 	C 	0.06057 0.51460 0.80080 0.11500
C 	C 	0.02397 0.48942 0.82060 -0.11800
C 	C 	0.99049 0.46678 0.79453 0.12000
C 	C 	0.99316 0.47014 0.74861 -0.10700
O 	O 	0.99054 0.57023 0.68266 -0.17600
O 	O 	0.07816 0.42857 0.68026 -0.18500
H 	H 	0.09214 0.53580 0.73929 0.09300
H 	H 	0.96711 0.45309 0.72835 0.09000
H 	H 	0.96951 0.60362 0.52851 0.05200
H 	H 	0.97229 0.60427 0.60855 0.04900
H 	H 	0.09865 0.40196 0.52498 0.05000
H 	H 	0.10074 0.40130 0.60501 0.05000
H 	H 	0.02171 0.48718 0.85616 0.07600
H 	H 	0.00950 0.49662 0.13932 0.07100
Zn	Zn	0.84534 0.33786 0.98249 1.21500
C 	C 	0.85281 0.35970 0.89020 0.30700
O 	O 	0.78155 0.34027 0.00075 -0.43600
O 	O 	0.83849 0.31500 0.87954 -0.43600
O 	O 	0.75387 0.33304 0.93138 -0.47800
C 	C 	0.87592 0.24319 0.95240 0.31500
O 	O 	0.88832 0.28907 0.96132 -0.45100
O 	O 	0.83290 0.23196 0.94690 -0.50300
C 	C 	0.74933 0.34843 0.97209 0.28900
O 	O 	0.86649 0.31544 0.05512 -0.30100
Zn	Zn	0.79178 0.27690 0.91767 1.17300
O 	O 	0.84263 0.37822 0.92881 -0.43900
C 	C 	0.88127 0.36089 0.05771 0.26300
O 	O 	0.87612 0.38760 0.02282 -0.36600
Zn	Zn	0.01197 0.00001 0.01570 1.22600
C 	C 	0.04585 0.90075 0.01665 0.37200
O 	O 	0.95137 0.99301 0.04147 -0.45800
O 	O 	0.05858 0.91091 0.05720 -0.45300
O 	O 	0.96281 0.92390 0.08177 -0.47900
C 	C 	0.08572 0.02325 0.07140 0.32000
O 	O 	0.07435 0.01057 0.03144 -0.44400
O 	O 	0.05996 0.01014 0.10477 -0.49300
C 	C 	0.93664 0.95039 0.05662 0.34100
O 	O 	0.00561 0.08617 0.02090 -0.30600
Zn	Zn	0.02089 0.95080 0.10133 1.17000
O 	O 	0.02057 0.93190 0.99442 -0.45100
C 	C 	0.99678 0.08528 0.97915 0.27600
O 	O 	0.99784 0.04166 0.96118 -0.36600
C 	C 	0.91013 0.20374 0.95049 -0.06100
C 	C 	0.89736 0.15520 0.93859 -0.01000
C 	C 	0.92808 0.11666 0.94263 -0.00000
C 	C 	0.97174 0.12605 0.95895 -0.07300
C 	C 	0.98623 0.17545 0.96576 0.07700
C 	C 	0.95534 0.21401 0.96195 -0.03100
H 	H 	0.91683 0.07897 0.93617 0.05300
H 	H 	0.96630 0.25166 0.96893 0.06700
H 	H 	0.86320 0.14695 0.92772 0.04100
I 	I 	0.05450 0.19263 0.98229 -0.11500
C 	C 	0.95296 0.43885 0.81544 -0.06600
C 	C 	0.95264 0.38666 0.81607 0.16800
C 	C 	0.91839 0.36079 0.83866 -0.06400
C 	C 	0.88469 0.38663 0.86122 -0.04700
C 	C 	0.88442 0.43857 0.85952 -0.01400
C 	C 	0.91831 0.46452 0.83665 -0.01000
H 	H 	0.91901 0.32069 0.84009 0.08300
H 	H 	0.91816 0.50465 0.83610 0.04800
Cl	Cl	0.99606 0.35330 0.79038 -0.31400
H 	H 	0.85838 0.45888 0.87653 0.05200
C 	C 	0.94651 0.43042 0.16680 -0.06800
C 	C 	0.95765 0.38154 0.15527 0.18100
C 	C 	0.93403 0.35735 0.12137 -0.07400
C 	C 	0.89980 0.38193 0.09857 -0.02100
C 	C 	0.88678 0.42923 0.11216 -0.02300
C 	C 	0.90983 0.45321 0.14628 -0.00500
H 	H 	0.94378 0.32049 0.11141 0.09200
H 	H 	0.90069 0.49056 0.15528 0.04100
Cl	Cl	0.00255 0.35123 0.18147 -0.32700
H 	H 	0.85976 0.44810 0.09529 0.05300
C 	C 	0.12335 0.77667 0.99254 -0.09500
C 	C 	0.13841 0.82288 0.97658 -0.01300
C 	C 	0.10948 0.86332 0.97715 0.02000
C 	C 	0.06571 0.85808 0.99454 -0.13800
C 	C 	0.04840 0.81023 0.00347 0.09500
C 	C 	0.07733 0.76959 0.00255 -0.00800
H 	H 	0.12265 0.89975 0.96853 0.03500
H 	H 	0.06467 0.73334 0.01229 0.08200
H 	H 	0.17333 0.82826 0.96657 0.04200
I 	I 	0.97985 0.79934 0.02242 -0.06500
C 	C 	0.09590 0.53791 0.82853 -0.06700
C 	C 	0.09817 0.58979 0.83373 0.17100
C 	C 	0.12712 0.61074 0.86533 -0.07000
C 	C 	0.15312 0.58022 0.89245 -0.02800
C 	C 	0.15246 0.52886 0.88571 -0.02100
C 	C 	0.12428 0.50785 0.85368 -0.00700
H 	H 	0.12757 0.65048 0.87033 0.08700
H 	H 	0.12309 0.46798 0.84964 0.04600
Cl	Cl	0.06296 0.62872 0.80285 -0.31900
H 	H 	0.17270 0.50504 0.90627 0.04700
C 	C 	0.12799 0.61690 0.12913 -0.15800
C 	C 	0.08189 0.62917 0.13181 0.22700
C 	C 	0.05229 0.59993 0.15720 -0.13300
C 	C 	0.06833 0.55856 0.17996 0.05300
C 	C 	0.11458 0.54809 0.17922 -0.08600
C 	C 	0.14425 0.57707 0.15389 0.05900
H 	H 	0.01659 0.60844 0.15813 0.09000
H 	H 	0.17970 0.56759 0.15232 0.02800
Cl	Cl	0.06029 0.67925 0.10163 -0.33900
H 	H 	0.12725 0.51639 0.19700 0.06300
C 	C 	0.80171 0.89797 0.03159 -0.01300
C 	C 	0.81785 0.90177 0.07479 -0.03800
C 	C 	0.86165 0.91973 0.08280 0.03200
C 	C 	0.88986 0.93380 0.04766 -0.11700
C 	C 	0.87326 0.93080 0.00409 0.13100
C 	C 	0.82905 0.91359 0.99648 -0.09800
H 	H 	0.87387 0.92209 0.11634 0.02800
H 	H 	0.81674 0.91012 0.96303 0.07100
H 	H 	0.79686 0.88956 0.10210 0.04300
I 	I 	0.91502 0.94677 0.94878 -0.12400
C 	C 	0.57407 0.97541 0.81945 -0.06700
C 	C 	0.58234 0.92412 0.81985 0.17200
C 	C 	0.61357 0.90476 0.84964 -0.07200
C 	C 	0.63582 0.93605 0.87972 -0.02500
C 	C 	0.62997 0.98736 0.87706 -0.02800
C 	C 	0.59954 0.00700 0.84681 -0.00300
H 	H 	0.61823 0.86506 0.85138 0.08600
H 	H 	0.59394 0.04656 0.84627 0.03900
Cl	Cl	0.55153 0.88336 0.78551 -0.31800
H 	H 	0.64729 0.01184 0.89995 0.04700
C 	C 	0.58100 0.96098 0.16844 -0.06400
C 	C 	0.62837 0.96428 0.16347 0.16700
C 	C 	0.65068 0.93012 0.13677 -0.06400
C 	C 	0.62594 0.89326 0.11435 -0.04700
C 	C 	0.57902 0.88923 0.12039 -0.01400
C 	C 	0.55672 0.92268 0.14751 -0.01200
H 	H 	0.68696 0.93348 0.13210 0.08000
H 	H 	0.52036 0.91959 0.15146 0.04100
Cl	Cl	0.65983 0.01226 0.18881 -0.30700
H 	H 	0.55970 0.86066 0.10344 0.05000
C 	C 	0.12796 0.05090 0.07845 -0.06000
C 	C 	0.12709 0.10265 0.08140 -0.01200
C 	C 	0.16646 0.13068 0.07383 0.01500
C 	C 	0.20700 0.10715 0.06325 -0.09800
C 	C 	0.20876 0.05505 0.06386 0.08000
C 	C 	0.16920 0.02718 0.07141 -0.03000
H 	H 	0.16503 0.17076 0.07438 0.03100
H 	H 	0.17006 0.98711 0.06963 0.05100
H 	H 	0.09536 0.12126 0.08680 0.05300
I 	I 	0.27061 0.01753 0.05407 -0.10100
C 	C 	0.36070 0.08980 0.88193 -0.13400
C 	C 	0.39093 0.12230 0.85961 0.21900
C 	C 	0.42124 0.10347 0.82867 -0.12700
C 	C 	0.42242 0.05249 0.82038 0.05000
C 	C 	0.39070 0.02069 0.84055 -0.07700
C 	C 	0.35987 0.03929 0.87104 0.05000
H 	H 	0.44552 0.12818 0.81283 0.09400
H 	H 	0.33680 0.01402 0.88782 0.03300
Cl	Cl	0.39402 0.18590 0.87261 -0.32100
H 	H 	0.39119 0.98126 0.83400 0.06200
C 	C 	0.46527 0.09196 0.17149 -0.06700
C 	C 	0.47652 0.13692 0.15022 0.17000
C 	C 	0.44469 0.15980 0.12311 -0.06500
C 	C 	0.40186 0.13781 0.11687 -0.04300
C 	C 	0.39008 0.09441 0.13985 -0.01500
C 	C 	0.42156 0.07172 0.16711 -0.01000
H 	H 	0.45384 0.19356 0.10569 0.08500
H 	H 	0.41252 0.03739 0.18366 0.04200
Cl	Cl	0.53057 0.16429 0.15655 -0.30800
H 	H 	0.35687 0.07753 0.13566 0.05300
C 	C 	0.37906 0.28644 0.96080 -0.04500
C 	C 	0.35787 0.32914 0.94518 -0.01300
C 	C 	0.38360 0.37186 0.93619 0.00000
C 	C 	0.43031 0.37248 0.94415 -0.07100
C 	C 	0.45216 0.32715 0.95139 0.07300
C 	C 	0.42641 0.28428 0.96000 -0.02700
H 	H 	0.36657 0.40599 0.92832 0.03900
H 	H 	0.44322 0.25044 0.96919 0.07300
H 	H 	0.32133 0.33033 0.94296 0.04600
I 	I 	0.52361 0.32384 0.95564 -0.08800
C 	C 	0.40424 0.55992 0.05886 -0.05800
C 	C 	0.36410 0.53501 0.04710 -0.01500
C 	C 	0.32351 0.56066 0.04450 0.01400
C 	C 	0.32264 0.61161 0.05339 -0.09800
C 	C 	0.36269 0.63641 0.06688 0.08100
C 	C 	0.40307 0.61017 0.07026 -0.03400
H 	H 	0.29288 0.54113 0.03463 0.04000
H 	H 	0.43414 0.62967 0.07884 0.05100
H 	H 	0.36475 0.49622 0.03800 0.04700
I 	I 	0.36472 0.71427 0.07739 -0.15700
C 	C 	0.70855 0.37601 0.98524 -0.08400
C 	C 	0.70142 0.38893 0.02947 0.01600
C 	C 	0.66320 0.41563 0.04157 -0.00400
C 	C 	0.63157 0.42973 0.00972 -0.06200
C 	C 	0.63897 0.41730 0.96512 0.05400
C 	C 	0.67703 0.39020 0.95332 -0.02100
H 	H 	0.65802 0.42507 0.07582 0.03900
H 	H 	0.68247 0.38104 0.91905 0.06000
H 	H 	0.72537 0.37824 0.05454 0.04800
I 	I 	0.59612 0.44234 0.91385 -0.09000
C 	C 	0.62231 0.71271 0.96899 -0.06000
C 	C 	0.57614 0.70998 0.95894 -0.01200
C 	C 	0.55468 0.66371 0.95444 0.00600
C 	C 	0.57905 0.62021 0.96169 -0.08500
C 	C 	0.62663 0.62336 0.96341 0.06800
C 	C 	0.64805 0.66966 0.96764 -0.03900
H 	H 	0.51823 0.66178 0.95092 0.04200
H 	H 	0.68427 0.67190 0.97298 0.03000
H 	H 	0.55623 0.74332 0.95818 0.04500
I 	I 	0.66646 0.55886 0.96538 -0.11700
