data_crystal

_cell_length_a 28.40439
_cell_length_b 26.09198
_cell_length_c 45.86931
_cell_angle_alpha 89.99039
_cell_angle_beta  89.91236
_cell_angle_gamma 89.94182

_symmetry_space_group_name_	'P 1'
_symmetry_space_group_name_H-M	'P 1'

loop_
_symmetry_equiv_pos_as_xyz
  x,y,z

loop_
_atom_site_label
_atom_site_type_symbol
_atom_site_fract_x
_atom_site_fract_y
_atom_site_fract_z
_atom_site_charge
C 	C 	0.72613 0.35959 0.02367 0.12600
C 	C 	0.35251 0.08157 0.00598 0.12800
C 	C 	0.34189 0.05174 0.03254 -0.05200
C 	C 	0.36262 0.06450 0.05963 0.10100
C 	C 	0.35903 0.03013 0.08302 -0.08300
C 	C 	0.33132 0.98589 0.08075 -0.00800
C 	C 	0.30672 0.97567 0.05456 0.06300
C 	C 	0.31314 0.00816 0.03044 -0.04500
N 	N 	0.38409 0.11054 0.06369 -0.20000
H 	H 	0.37659 0.03870 0.10343 0.05400
C 	C 	0.32721 0.95176 0.10643 -0.00600
N 	N 	0.27746 0.93460 0.05231 -0.19500
H 	H 	0.29631 0.99903 0.00988 0.04600
C 	C 	0.29928 0.96766 0.12996 -0.08800
C 	C 	0.36065 0.88454 0.13685 -0.05300
C 	C 	0.35669 0.90833 0.10951 0.06900
H 	H 	0.27557 0.99991 0.12722 0.05300
H 	H 	0.38432 0.85222 0.13951 0.04700
N 	N 	0.38196 0.88997 0.08654 -0.19400
H 	H 	0.40432 0.85848 0.08919 0.08200
H 	H 	0.37921 0.90614 0.06581 0.08800
H 	H 	0.25998 0.92700 0.03275 0.08400
H 	H 	0.27133 0.91020 0.06994 0.08800
H 	H 	0.38060 0.14017 0.04854 0.09300
H 	H 	0.40182 0.11834 0.08314 0.08400
H 	H 	0.46900 0.15014 0.01801 0.05000
N 	N 	0.54516 0.20688 0.01729 -0.19400
H 	H 	0.53484 0.19445 0.03800 0.08300
H 	H 	0.57623 0.22802 0.01554 0.09000
C 	C 	0.78178 0.23239 0.14424 -0.08700
C 	C 	0.74383 0.26282 0.13514 -0.00600
C 	C 	0.70171 0.26352 0.15176 0.07000
H 	H 	0.81373 0.23146 0.13126 0.05300
C 	C 	0.74641 0.28803 0.10625 -0.00500
N 	N 	0.66390 0.29184 0.14320 -0.19400
C 	C 	0.74152 0.25788 0.08118 -0.08700
C 	C 	0.73973 0.28059 0.05353 0.10200
C 	C 	0.73990 0.33468 0.05114 -0.04900
C 	C 	0.74796 0.36475 0.07595 -0.05400
C 	C 	0.75228 0.34176 0.10355 0.06900
H 	H 	0.73893 0.21656 0.08322 0.05400
N 	N 	0.73837 0.25039 0.02936 -0.19900
H 	H 	0.74964 0.40612 0.07393 0.04800
N 	N 	0.76140 0.37137 0.12728 -0.19400
H 	H 	0.73594 0.21057 0.03135 0.08300
H 	H 	0.74198 0.26584 0.00848 0.09400
H 	H 	0.76442 0.41112 0.12519 0.08200
H 	H 	0.76670 0.35522 0.14784 0.08800
H 	H 	0.63317 0.29231 0.15576 0.08200
H 	H 	0.66429 0.31317 0.12396 0.08900
N 	N 	0.68322 0.34925 0.01220 -0.14200
N 	N 	0.75942 0.38257 0.00692 -0.12200
C 	C 	0.30497 0.94562 0.15765 0.10200
C 	C 	0.33724 0.90455 0.16128 -0.04900
H 	H 	0.84335 0.16563 0.16229 0.08500
C 	C 	0.77744 0.19993 0.16849 0.10200
N 	N 	0.81179 0.16488 0.17403 -0.19900
C 	C 	0.69879 0.23410 0.17732 -0.05300
H 	H 	0.25700 0.99549 0.17765 0.08500
N 	N 	0.28083 0.96541 0.18072 -0.20000
H 	H 	0.53085 0.86623 0.18439 0.08300
C 	C 	0.73610 0.20217 0.18579 -0.05000
C 	C 	0.35339 0.88891 0.19045 0.12700
H 	H 	0.66714 0.23576 0.19056 0.04800
H 	H 	0.80630 0.13450 0.18844 0.09800
H 	H 	0.47556 0.84002 0.19595 0.09200
N 	N 	0.39767 0.90080 0.19908 -0.14200
N 	N 	0.50145 0.86816 0.19808 -0.19800
H 	H 	0.28570 0.95191 0.20188 0.10000
N 	N 	0.32342 0.86557 0.20933 -0.12300
H 	H 	0.56752 0.93548 0.20990 0.05300
C 	C 	0.73183 0.17256 0.21308 0.12700
N 	N 	0.69285 0.14368 0.21807 -0.14300
C 	C 	0.49880 0.90436 0.21934 0.09900
C 	C 	0.53732 0.93679 0.22438 -0.08300
C 	C 	0.41219 0.88962 0.22651 0.12600
H 	H 	0.55541 0.15826 0.23135 0.08400
N 	N 	0.76628 0.17501 0.23355 -0.12400
H 	H 	0.52958 0.07155 0.23599 0.05600
C 	C 	0.33698 0.85645 0.23727 0.05700
N 	N 	0.58964 0.14796 0.23731 -0.19900
C 	C 	0.45795 0.90924 0.23682 -0.04800
C 	C 	0.68758 0.11869 0.24385 0.12800
N 	N 	0.38179 0.86740 0.24559 -0.12200
C 	C 	0.64781 0.08300 0.24810 -0.05100
C 	C 	0.60088 0.09795 0.24202 0.10300
C 	C 	0.56518 0.06078 0.24194 -0.09000
C 	C 	0.57484 0.01000 0.25005 0.00500
C 	C 	0.53696 0.97119 0.24785 -0.01200
H 	H 	0.61382 0.17726 0.24121 0.09200
O 	O 	0.25865 0.86483 0.25627 -0.34800
C 	C 	0.62094 0.99612 0.25866 0.05900
C 	C 	0.65721 0.03249 0.25694 -0.04600
C 	C 	0.76181 0.14866 0.25890 0.05900
C 	C 	0.30107 0.84701 0.25962 0.24100
C 	C 	0.45918 0.94049 0.26172 -0.05500
H 	H 	0.69298 0.02128 0.26221 0.05200
N 	N 	0.72198 0.12157 0.26428 -0.12300
N 	N 	0.63051 0.94823 0.26882 -0.19300
C 	C 	0.49876 0.97092 0.26770 0.07200
O 	O 	0.84093 0.12064 0.26726 -0.35000
H 	H 	0.96374 0.97172 0.26872 0.08800
H 	H 	0.99452 0.91171 0.26706 0.06300
H 	H 	0.66493 0.93789 0.27433 0.08400
H 	H 	0.60383 0.92141 0.27226 0.08700
H 	H 	0.42854 0.94282 0.27580 0.05200
N 	N 	0.99090 0.94819 0.27621 -0.21000
C 	C 	0.80274 0.14132 0.27762 0.24300
O 	O 	0.31319 0.83828 0.28655 -0.30900
N 	N 	0.49984 0.99973 0.29241 -0.19900
H 	H 	0.06865 0.89991 0.29159 0.03300
H 	H 	0.90875 0.88480 0.29435 0.06300
H 	H 	0.52997 0.02000 0.29844 0.09000
C 	C 	0.02349 0.96625 0.29520 0.10900
O 	O 	0.94323 0.05622 0.29896 -0.39400
O 	O 	0.20296 0.77832 0.30230 -0.30300
C 	C 	0.06523 0.93864 0.29992 -0.05200
H 	H 	0.90091 0.95182 0.29973 0.09800
Cd	Cd	0.23719 0.87401 0.30363 1.24000
O 	O 	0.16303 0.89952 0.30378 -0.40800
H 	H 	0.30282 0.03558 0.30364 0.10100
H 	H 	0.47084 0.00062 0.30645 0.08700
N 	N 	0.39781 0.09363 0.99929 -0.14300
O 	O 	0.79771 0.13778 0.30574 -0.31000
H 	H 	0.27302 0.09599 0.30567 0.07200
N 	N 	0.89426 0.91465 0.30664 -0.19700
Cd	Cd	0.87184 0.08847 0.30905 1.23900
H 	H 	0.99541 0.15292 0.30859 0.08000
O 	O 	0.84008 0.00670 0.30959 -0.36100
O 	O 	0.26070 0.95728 0.31259 -0.37200
C 	C 	0.01686 0.01375 0.30940 -0.07900
H 	H 	0.12130 0.73802 0.31277 0.03900
H 	H 	0.05094 0.18393 0.31300 0.06100
O 	O 	0.91529 0.17877 0.31654 -0.30500
N 	N 	0.28208 0.06122 0.31551 -0.19900
C 	C 	0.10263 0.96116 0.31515 -0.10300
H 	H 	0.04678 0.69642 0.31877 0.05200
C 	C 	0.96929 0.03038 0.31784 0.27200
C 	C 	0.14352 0.92954 0.32351 0.29900
N 	N 	0.01787 0.17474 0.32155 -0.19500
C 	C 	0.05564 0.03808 0.32220 -0.05500
C 	C 	0.09955 0.01337 0.32323 0.10300
C 	C 	0.20178 0.78374 0.33066 0.30600
H 	H 	0.17234 0.02463 0.32787 0.08700
N 	N 	0.13882 0.04072 0.32976 -0.18600
H 	H 	0.05143 0.07557 0.33203 0.01400
H 	H 	0.13636 0.07986 0.33414 -0.02800
C 	C 	0.87442 0.90479 0.33303 0.09200
H 	H 	0.90658 0.83029 0.33582 -0.03400
C 	C 	0.12524 0.73800 0.33627 -0.04600
C 	C 	0.84123 0.99523 0.33726 0.29200
O 	O 	0.22285 0.82422 0.34047 -0.54700
C 	C 	0.27067 0.95678 0.34034 0.29500
N 	N 	0.05031 0.69740 0.34144 -0.22200
O 	O 	0.95008 0.00951 0.34114 -0.42700
C 	C 	0.92214 0.16131 0.34290 0.31400
C 	C 	0.27368 0.05361 0.34435 0.10200
C 	C 	0.88360 0.85765 0.34654 -0.03300
C 	C 	0.16730 0.75549 0.34887 -0.13000
O 	O 	0.89859 0.12052 0.34964 -0.54900
O 	O 	0.16186 0.93494 0.34987 -0.42500
C 	C 	0.00790 0.18445 0.35004 0.11400
C 	C 	0.84567 0.94160 0.34759 -0.10800
O 	O 	0.26858 0.91217 0.35311 -0.45900
H 	H 	0.25416 0.13223 0.35251 0.00800
C 	C 	0.08793 0.72090 0.35391 0.05500
H 	H 	0.02625 0.67668 0.35398 0.07200
Cd	Cd	0.98940 0.79307 0.35491 1.16200
O 	O 	0.84834 0.03351 0.35496 -0.45800
C 	C 	0.27924 0.00456 0.35717 -0.10800
C 	C 	0.26328 0.09572 0.36228 -0.06300
C 	C 	0.96155 0.17903 0.36126 -0.15700
H 	H 	0.07933 0.20530 0.36023 -0.03800
C 	C 	0.04464 0.19757 0.36905 -0.06600
Cd	Cd	0.14748 0.14430 0.37043 1.17500
C 	C 	0.82410 0.92822 0.37409 -0.06500
C 	C 	0.86791 0.84811 0.37498 -0.12700
Cd	Cd	0.20357 0.87857 0.37731 1.17300
C 	C 	0.17344 0.75125 0.37943 0.06200
H 	H 	0.24699 0.75920 0.37902 0.07300
O 	O 	0.92062 0.77575 0.38075 -0.46200
Cd	Cd	0.91808 0.05283 0.37846 1.17300
O 	O 	0.99180 0.86521 0.38200 -0.45100
C 	C 	0.09106 0.72635 0.38456 -0.12400
C 	C 	0.28704 0.00130 0.38737 -0.05400
H 	H 	0.79993 0.95482 0.38445 0.03800
C 	C 	0.95370 0.18499 0.39121 -0.05500
C 	C 	0.83384 0.88098 0.38747 0.11400
N 	N 	0.21652 0.75778 0.39176 -0.21900
O 	O 	0.00791 0.74142 0.39319 -0.53400
C 	C 	0.89293 0.80953 0.39288 0.30500
C 	C 	0.26507 0.09089 0.39277 -0.11300
O 	O 	0.14850 0.07033 0.39560 -0.41800
H 	H 	0.29639 0.96488 0.39716 0.02000
C 	C 	0.13472 0.73855 0.39710 -0.04600
O 	O 	0.21237 0.16299 0.39916 -0.45700
C 	C 	0.03792 0.19658 0.39940 -0.10900
H 	H 	0.91827 0.18099 0.39978 0.01600
C 	C 	0.04818 0.72580 0.40311 0.30200
C 	C 	0.01660 0.87181 0.40602 0.31300
C 	C 	0.28349 0.04520 0.40492 0.11000
H 	H 	0.98232 0.96733 0.40455 -0.01700
O 	O 	0.12178 0.19017 0.40946 -0.53900
C 	C 	0.24005 0.12909 0.41117 0.30100
C 	C 	0.99161 0.18904 0.41062 0.07700
C 	C 	0.01998 0.96660 0.40844 -0.00500
C 	C 	0.04371 0.91951 0.40948 -0.11000
C 	C 	0.04427 0.01275 0.41294 0.06600
N 	N 	0.02006 0.05768 0.41341 -0.17800
H 	H 	0.98341 0.05792 0.41189 -0.04500
H 	H 	0.10008 0.83833 0.41233 0.05900
N 	N 	0.80904 0.86648 0.41144 -0.20100
H 	H 	0.22023 0.75793 0.41442 0.05800
C 	C 	0.09277 0.91840 0.41499 0.08200
N 	N 	0.11651 0.87319 0.41674 -0.20700
C 	C 	0.12096 0.05964 0.41791 0.28600
C 	C 	0.07984 0.20156 0.41873 0.30300
C 	C 	0.11731 0.96472 0.41852 -0.04800
C 	C 	0.09355 0.01180 0.41734 -0.08000
H 	H 	0.03720 0.09258 0.41620 0.06500
H 	H 	0.13842 0.73929 0.42062 0.04500
O 	O 	0.89950 0.81689 0.42073 -0.37100
H 	H 	0.15513 0.96413 0.42177 0.01400
H 	H 	0.15209 0.87259 0.42250 -0.01300
H 	H 	0.78567 0.89197 0.42147 0.07900
H 	H 	0.81033 0.82880 0.41909 0.09700
Cd	Cd	0.96752 0.77098 0.43007 1.23500
O 	O 	0.00853 0.84345 0.42935 -0.38700
O 	O 	0.05088 0.72281 0.43155 -0.29700
N 	N 	0.30090 0.04436 0.43248 -0.19900
O 	O 	0.23190 0.12009 0.43873 -0.36500
N 	N 	0.98380 0.18105 0.43947 -0.20800
H 	H 	0.31113 0.00974 0.44204 0.07900
O 	O 	0.12424 0.08574 0.44256 -0.38600
O 	O 	0.07599 0.20528 0.44701 -0.29500
H 	H 	0.30882 0.07835 0.44343 0.10100
Cd	Cd	0.16105 0.16111 0.44691 1.24000
O 	O 	0.93306 0.68942 0.44801 -0.31400
H 	H 	0.95048 0.18812 0.44830 0.07400
H 	H 	0.00672 0.15833 0.45165 0.10500
O 	O 	0.18928 0.24363 0.46642 -0.31200
H 	H 	0.86755 0.49567 0.46781 0.08500
C 	C 	0.93790 0.70543 0.47471 0.24100
O 	O 	0.95678 0.75047 0.47763 -0.35100
H 	H 	0.92421 0.44145 0.49129 0.05400
N 	N 	0.86948 0.52215 0.48486 -0.19900
H 	H 	0.84695 0.55380 0.48440 0.09300
H 	H 	0.14303 0.39986 0.49756 0.09700
H 	H 	0.11546 0.46088 0.49213 0.08900
C 	C 	0.18024 0.22857 0.49287 0.24200
O 	O 	0.16417 0.18206 0.49500 -0.34500
N 	N 	0.11425 0.42404 0.50105 -0.19800
N 	N 	0.91335 0.62850 0.50103 -0.12400
C 	C 	0.91374 0.68036 0.49901 0.05800
H 	H 	0.25082 0.36904 0.50850 0.09600
H 	H 	0.03652 0.47727 0.50721 0.05800
H 	H 	0.27659 0.43139 0.51245 0.08500
C 	C 	0.07510 0.40758 0.51540 0.10300
C 	C 	0.03516 0.43906 0.51650 -0.06500
C 	C 	0.92478 0.46815 0.50940 -0.09000
C 	C 	0.89873 0.51384 0.50781 0.10300
N 	N 	0.12587 0.28765 0.51610 -0.12000
C 	C 	0.16947 0.26631 0.51531 0.06200
N 	N 	0.26142 0.39903 0.52205 -0.20000
C 	C 	0.89329 0.60524 0.52448 0.12600
N 	N 	0.89385 0.70908 0.52038 -0.12200
C 	C 	0.07391 0.35888 0.52896 -0.05100
C 	C 	0.99360 0.42196 0.52978 -0.02000
C 	C 	0.11739 0.32918 0.53306 0.13200
N 	N 	0.20473 0.28663 0.53161 -0.12800
C 	C 	0.95421 0.45856 0.53330 -0.00200
C 	C 	0.90338 0.55073 0.53019 -0.05200
C 	C 	0.03154 0.34043 0.54065 -0.03100
C 	C 	0.99099 0.37136 0.54084 0.05300
C 	C 	0.87273 0.68608 0.54347 0.12700
C 	C 	0.19599 0.32761 0.54907 0.12900
N 	N 	0.15228 0.34852 0.54989 -0.14100
C 	C 	0.25755 0.39541 0.55151 0.10200
N 	N 	0.87207 0.63414 0.54538 -0.14400
H 	H 	0.28802 0.46991 0.55934 0.05300
H 	H 	0.03040 0.30247 0.55025 0.05100
H 	H 	0.79125 0.73799 0.54575 0.04700
N 	N 	0.95009 0.35264 0.55201 -0.19300
C 	C 	0.92680 0.53741 0.55601 -0.05200
C 	C 	0.95237 0.49148 0.55779 0.06600
H 	H 	0.91910 0.37418 0.55174 0.08600
C 	C 	0.23458 0.35318 0.56455 -0.05000
C 	C 	0.27440 0.43522 0.56925 -0.08600
H 	H 	0.94876 0.31563 0.56069 0.07900
H 	H 	0.73906 0.80371 0.56268 0.08100
C 	C 	0.81383 0.74572 0.56428 -0.05300
H 	H 	0.92809 0.56447 0.57393 0.04500
C 	C 	0.85550 0.71753 0.56786 -0.04900
N 	N 	0.97620 0.47998 0.58264 -0.19400
H 	H 	0.99394 0.44518 0.58505 0.08400
N 	N 	0.76132 0.81177 0.58020 -0.19400
C 	C 	0.23799 0.34628 0.59476 -0.05300
H 	H 	0.84584 0.89111 0.58212 0.05400
C 	C 	0.80228 0.78549 0.58367 0.06800
H 	H 	0.87642 0.97675 0.58257 0.08100
H 	H 	0.19019 0.49022 0.60020 0.05900
C 	C 	0.26817 0.43307 0.59954 -0.00700
H 	H 	0.93250 0.66688 0.58413 0.09100
H 	H 	0.22337 0.31207 0.60468 0.04900
H 	H 	0.97602 0.50537 0.60027 0.07800
H 	H 	0.75044 0.83911 0.59543 0.08500
C 	C 	0.88391 0.72599 0.59274 0.10000
C 	C 	0.21702 0.50519 0.61469 -0.08600
C 	C 	0.25466 0.38614 0.61251 0.07300
N 	N 	0.92299 0.69711 0.59781 -0.19900
C 	C 	0.26135 0.48170 0.61560 -0.00200
H 	H 	0.13739 0.55406 0.61765 0.08800
C 	C 	0.84548 0.89189 0.60575 -0.08500
N 	N 	0.87835 0.97622 0.60533 -0.20200
H 	H 	0.35129 0.45470 0.61791 0.08600
C 	C 	0.83359 0.79774 0.60655 -0.00500
H 	H 	0.11445 0.90096 0.61217 0.08600
C 	C 	0.87240 0.76588 0.61197 -0.08500
H 	H 	0.89014 0.00914 0.61601 0.09400
N 	N 	0.16310 0.56868 0.63164 -0.20000
C 	C 	0.20638 0.54646 0.63308 0.10400
C 	C 	0.29725 0.50281 0.63322 0.06800
N 	N 	0.34181 0.48373 0.63245 -0.19400
C 	C 	0.86381 0.93446 0.62057 0.10000
C 	C 	0.83140 0.84820 0.62130 -0.00600
H 	H 	0.94417 0.70437 0.61597 0.08000
N 	N 	0.25557 0.38010 0.64194 -0.19400
H 	H 	0.15514 0.60176 0.64337 0.09500
H 	H 	0.36783 0.49869 0.64609 0.08200
N 	N 	0.12320 0.88342 0.63192 -0.19500
H 	H 	0.05081 0.94607 0.63483 0.05500
H 	H 	0.15285 0.85972 0.63249 0.08800
H 	H 	0.89547 0.77425 0.63018 0.05400
H 	H 	0.24369 0.34609 0.65148 0.08400
C 	C 	0.24055 0.56376 0.65325 -0.05000
C 	C 	0.28630 0.54342 0.65222 -0.05100
H 	H 	0.26951 0.40836 0.65551 0.09100
C 	C 	0.86870 0.93248 0.65118 -0.05000
C 	C 	0.82701 0.85108 0.65194 0.06900
H 	H 	0.31285 0.55768 0.66712 0.04800
C 	C 	0.09770 0.89315 0.65641 0.07500
C 	C 	0.06029 0.92835 0.65539 -0.06000
H 	H 	0.06865 0.68555 0.66774 0.08700
H 	H 	0.78919 0.78252 0.65647 0.08500
C 	C 	0.90752 0.96007 0.66523 0.12400
N 	N 	0.95172 0.94048 0.66383 -0.14100
H 	H 	0.07310 0.77651 0.66816 0.05800
C 	C 	0.22641 0.59433 0.67876 0.12800
N 	N 	0.21786 0.64531 0.67589 -0.14300
N 	N 	0.10252 0.68255 0.67646 -0.20000
C 	C 	0.84617 0.89329 0.66676 -0.05300
H 	H 	0.11467 0.64615 0.68212 0.09400
N 	N 	0.80577 0.81286 0.66717 -0.19400
C 	C 	0.98785 0.96502 0.67705 0.10600
C 	C 	0.10898 0.77370 0.67606 -0.08600
C 	C 	0.12882 0.72534 0.68120 0.10300
N 	N 	0.89908 0.00330 0.68093 -0.12200
C 	C 	0.03345 0.93871 0.68040 -0.02600
C 	C 	0.10801 0.86779 0.68287 -0.00900
C 	C 	0.13382 0.81849 0.68282 -0.00300
N 	N 	0.98010 0.01057 0.69045 -0.12300
C 	C 	0.93553 0.02879 0.69348 0.05500
C 	C 	0.19704 0.67171 0.69797 0.12700
N 	N 	0.21499 0.57008 0.70394 -0.12200
C 	C 	0.17546 0.72185 0.69193 -0.04900
H 	H 	0.84712 0.89345 0.69039 0.04800
H 	H 	0.80419 0.81417 0.68993 0.08100
C 	C 	0.20126 0.76665 0.69727 -0.05200
C 	C 	0.18084 0.81514 0.69284 0.06800
O 	O 	0.95263 0.10786 0.71707 -0.35200
C 	C 	0.04720 0.91737 0.70758 0.09600
H 	H 	0.23716 0.76382 0.70513 0.04800
N 	N 	0.20658 0.85812 0.69796 -0.19400
H 	H 	0.19323 0.89456 0.69343 0.08600
C 	C 	0.92626 0.06719 0.71587 0.24300
C 	C 	0.08532 0.88315 0.70855 -0.08200
N 	N 	0.18697 0.64748 0.72345 -0.12400
C 	C 	0.19552 0.59656 0.72636 0.06100
H 	H 	0.24094 0.85534 0.70593 0.08200
O 	O 	0.15120 0.52718 0.74751 -0.34600
H 	H 	0.09470 0.86505 0.72903 0.05500
C 	C 	0.17579 0.56860 0.75111 0.24200
H 	H 	0.54177 0.39828 0.98634 0.08500
N 	N 	0.02297 0.92782 0.73253 -0.18800
H 	H 	0.99248 0.95006 0.73250 0.08600
H 	H 	0.91277 0.26099 0.77394 0.08800
O 	O 	0.90974 0.05235 0.74098 -0.31400
O 	O 	0.00121 0.18713 0.77503 -0.38200
O 	O 	0.88228 0.17665 0.76590 -0.30300
H 	H 	0.87801 0.31791 0.77648 0.05200
H 	H 	0.95501 0.24268 0.83400 0.03100
Cd	Cd	0.95883 0.11677 0.76606 1.23600
N 	N 	0.96612 0.28028 0.83048 -0.19400
H 	H 	0.94459 0.31000 0.83790 0.00800
N 	N 	0.88450 0.28041 0.78341 -0.19900
O 	O 	0.18481 0.58121 0.77798 -0.30900
O 	O 	0.10639 0.42800 0.79333 -0.38900
H 	H 	0.29296 0.40284 0.78792 0.10300
H 	H 	0.29001 0.33444 0.78503 0.07500
H 	H 	0.03416 0.91265 0.75244 0.08900
C 	C 	0.03631 0.25135 0.80590 -0.10200
C 	C 	0.00895 0.29059 0.81867 0.09700
C 	C 	0.01645 0.20014 0.80123 0.29500
O 	O 	0.02471 0.06742 0.77397 -0.36300
Cd	Cd	0.14037 0.50445 0.79463 1.24000
O 	O 	0.22136 0.45280 0.79064 -0.30600
N 	N 	0.28083 0.36796 0.79616 -0.20000
C 	C 	0.08322 0.26095 0.79819 -0.04700
C 	C 	0.02704 0.34041 0.82016 -0.04000
C 	C 	0.07405 0.35021 0.81280 -0.09000
C 	C 	0.10293 0.30976 0.80240 0.07000
N 	N 	0.14958 0.31713 0.79711 -0.20300
H 	H 	0.10472 0.23017 0.78946 -0.00500
H 	H 	0.00491 0.37138 0.82794 0.02300
H 	H 	0.17058 0.28696 0.78961 0.01700
H 	H 	0.16569 0.35236 0.80097 0.07900
C 	C 	0.88429 0.17042 0.79417 0.30400
C 	C 	0.09262 0.40242 0.81662 0.29000
O 	O 	0.06843 0.54155 0.80574 -0.36100
H 	H 	0.10988 0.03746 0.78274 0.05100
H 	H 	0.19355 0.04450 0.78765 0.07500
H 	H 	0.98170 0.56750 0.81584 0.04600
H 	H 	0.89757 0.56748 0.81902 0.06800
C 	C 	0.86256 0.26174 0.80755 0.09100
N 	N 	0.31704 0.09724 0.98824 -0.12300
O 	O 	0.02033 0.16577 0.82207 -0.42400
O 	O 	0.91291 0.13489 0.80299 -0.54700
C 	C 	0.01975 0.05233 0.80089 0.31900
C 	C 	0.21935 0.45172 0.81911 0.30300
C 	C 	0.25981 0.36539 0.82273 0.10800
C 	C 	0.86451 0.20875 0.81467 -0.12800
C 	C 	0.84219 0.29622 0.82738 -0.05100
H 	H 	0.83998 0.33646 0.82172 -0.04500
C 	C 	0.10661 0.04410 0.80599 -0.04100
N 	N 	0.19019 0.05160 0.80998 -0.20600
C 	C 	0.48064 0.16124 0.99639 -0.05300
O 	O 	0.08351 0.42683 0.84115 -0.42400
O 	O 	0.18667 0.48037 0.83046 -0.53600
C 	C 	0.07055 0.54699 0.83403 0.29500
H 	H 	0.94718 0.20344 0.90379 0.02800
C 	C 	0.98306 0.55358 0.83810 -0.06700
N 	N 	0.89897 0.55317 0.84029 -0.20800
O 	O 	0.97848 0.06124 0.81246 -0.47400
H 	H 	0.27098 0.28392 0.82716 0.00800
Cd	Cd	0.95874 0.12795 0.84370 1.16400
Cd	Cd	0.89781 0.39865 0.84366 1.17000
O 	O 	0.11194 0.53929 0.84557 -0.45600
Cd	Cd	0.18258 0.20683 0.83472 1.17100
C 	C 	0.24175 0.40997 0.83635 -0.13100
C 	C 	0.25954 0.31870 0.83802 -0.06800
H 	H 	0.03054 0.19294 0.90260 0.01800
N 	N 	0.95044 0.24321 0.90189 -0.19800
H 	H 	0.91968 0.26474 0.89983 0.07900
C 	C 	0.94101 0.54115 0.85267 0.08300
C 	C 	0.02677 0.54783 0.85206 -0.08900
H 	H 	0.86777 0.55195 0.85234 0.08400
C 	C 	0.84691 0.19204 0.84167 -0.07500
C 	C 	0.83043 0.28031 0.85568 -0.13400
H 	H 	0.84650 0.15142 0.84668 0.00600
C 	C 	0.06193 0.04333 0.81923 -0.10800
C 	C 	0.14688 0.05548 0.82245 0.09000
H 	H 	0.22073 0.05199 0.82262 0.08800
C 	C 	0.82746 0.22712 0.86159 0.10700
O 	O 	0.95662 0.38859 0.87587 -0.43300
C 	C 	0.82929 0.31911 0.87952 0.30500
O 	O 	0.87475 0.46326 0.87520 -0.46200
O 	O 	0.84335 0.36587 0.87526 -0.53500
Cd	Cd	0.13758 0.46582 0.86912 1.17300
C 	C 	0.23588 0.40992 0.86669 -0.06500
C 	C 	0.99377 0.26535 0.90067 0.07200
C 	C 	0.03412 0.23414 0.90038 -0.02000
C 	C 	0.05904 0.04454 0.84998 0.07700
H 	H 	0.99554 0.00416 0.85340 0.06000
C 	C 	0.14173 0.06895 0.85215 -0.11400
N 	N 	0.80225 0.20942 0.88467 -0.20100
O 	O 	0.12278 0.19640 0.86595 -0.42600
O 	O 	0.20640 0.12953 0.85526 -0.45900
C 	C 	0.94312 0.51793 0.88055 -0.11300
C 	C 	0.02744 0.53553 0.88218 0.09300
H 	H 	0.09054 0.57290 0.89235 0.07100
H 	H 	0.80398 0.17076 0.89056 0.07000
H 	H 	0.77668 0.23226 0.89465 0.10000
C 	C 	0.24715 0.31718 0.86765 -0.12600
H 	H 	0.22656 0.44522 0.87775 -0.03000
C 	C 	0.90223 0.48929 0.89250 0.29800
C 	C 	0.09825 0.06068 0.86606 -0.03600
N 	N 	0.02021 0.02699 0.86412 -0.20700
C 	C 	0.51976 0.19359 0.99333 0.07000
C 	C 	0.95769 0.35333 0.89644 0.29700
O 	O 	0.82325 0.30646 0.90686 -0.31000
O 	O 	0.23463 0.22495 0.87123 -0.54200
C 	C 	0.17972 0.09549 0.86811 0.30400
C 	C 	0.23548 0.36364 0.88227 0.09000
C 	C 	0.99890 0.31928 0.89821 -0.11400
C 	C 	0.07866 0.25541 0.89528 -0.10000
C 	C 	0.98628 0.51690 0.89549 -0.05600
N 	N 	0.06585 0.54555 0.89882 -0.22100
C 	C 	0.11910 0.22122 0.89079 0.29300
C 	C 	0.24853 0.26739 0.88326 0.30500
Cd	Cd	0.86127 0.39807 0.91815 1.23900
C 	C 	0.32687 0.12537 0.96410 0.06100
C 	C 	0.40747 0.12362 0.97583 0.12800
O 	O 	0.78066 0.42395 0.93267 -0.31000
O 	O 	0.92934 0.35673 0.91911 -0.39300
O 	O 	0.90107 0.47556 0.91991 -0.36300
H 	H 	0.09489 0.06671 0.88936 0.04700
H 	H 	0.01678 0.03177 0.88665 0.05600
O 	O 	0.83117 0.39133 0.96376 -0.34700
C 	C 	0.78887 0.40850 0.95919 0.24100
C 	C 	0.67471 0.35766 0.98353 0.12700
C 	C 	0.75018 0.39390 0.97857 0.05800
N 	N 	0.70781 0.38124 0.96693 -0.12200
Cd	Cd	0.21779 0.17218 0.90693 1.23900
O 	O 	0.29782 0.13880 0.91542 -0.31100
O 	O 	0.24854 0.15387 0.95157 -0.34300
C 	C 	0.28976 0.13772 0.94331 0.24200
O 	O 	0.14819 0.21152 0.91263 -0.38700
O 	O 	0.25842 0.26427 0.91100 -0.30100
O 	O 	0.17943 0.09694 0.89652 -0.36600
N 	N 	0.37185 0.13932 0.95827 -0.12200
N 	N 	0.21994 0.36360 0.91033 -0.20200
H 	H 	0.21771 0.39795 0.92197 0.05600
H 	H 	0.20373 0.33142 0.91934 0.09300
C 	C 	0.63724 0.32824 0.96930 -0.04900
C 	C 	0.58951 0.34120 0.97377 0.10000
C 	C 	0.55472 0.30367 0.96983 -0.08500
C 	C 	0.56719 0.25354 0.96184 -0.00500
C 	C 	0.61434 0.24245 0.95400 0.06900
C 	C 	0.64879 0.28051 0.95720 -0.05200
N 	N 	0.57700 0.38932 0.98212 -0.19900
H 	H 	0.51821 0.31272 0.97450 0.05600
C 	C 	0.53205 0.21214 0.96532 -0.00500
N 	N 	0.62704 0.19504 0.94441 -0.19400
H 	H 	0.68536 0.27144 0.95268 0.04900
C 	C 	0.50858 0.19343 0.94067 -0.08700
C 	C 	0.47225 0.15742 0.94364 0.10300
C 	C 	0.45520 0.14517 0.97182 -0.05000
H 	H 	0.51936 0.20600 0.91913 0.05400
N 	N 	0.45518 0.13331 0.91962 -0.19800
H 	H 	0.46608 0.14444 0.89878 0.08600
H 	H 	0.43356 0.10112 0.92150 0.09700
H 	H 	0.66211 0.18712 0.93911 0.08100
H 	H 	0.60241 0.16575 0.94189 0.08600
H 	H 	0.60192 0.41862 0.98356 0.09200
C 	C 	0.04386 0.34049 0.89487 -0.01300
C 	C 	0.08317 0.30881 0.89105 0.08200
N 	N 	0.12420 0.32936 0.88138 -0.18300
H 	H 	0.04777 0.38171 0.89301 0.02600
H 	H 	0.12867 0.36906 0.88072 -0.00200
H 	H 	0.15051 0.30636 0.87242 0.04300
H 	H 	0.98780 0.50248 0.91763 0.04700
H 	H 	0.06814 0.53107 0.92002 0.05500
