data_crystal

_cell_length_a 27.88302
_cell_length_b 28.08876
_cell_length_c 40.01695
_cell_angle_alpha 95.50778
_cell_angle_beta  95.50729
_cell_angle_gamma 125.55792

_symmetry_space_group_name_	'P 1'
_symmetry_space_group_name_H-M	'P 1'

loop_
_symmetry_equiv_pos_as_xyz
  x,y,z

loop_
_atom_site_label
_atom_site_type_symbol
_atom_site_fract_x
_atom_site_fract_y
_atom_site_fract_z
_atom_site_charge
C 	C 	0.96569 0.02886 0.99604 0.04500
C 	C 	0.05286 0.03147 0.98946 0.04800
C 	C 	0.02605 0.06082 0.99253 -0.08400
H 	H 	0.05190 0.10811 0.99214 0.05500
C 	C 	0.94640 0.00301 0.46260 0.04700
C 	C 	0.03768 0.00975 0.46676 0.04900
C 	C 	0.00844 0.03656 0.46357 -0.08300
H 	H 	0.03385 0.08338 0.46194 0.05500
Cu	Cu	0.63535 0.24445 0.00025 0.92800
Cu	Cu	0.68169 0.24833 0.92757 0.87000
O 	O 	0.54859 0.21245 0.00012 -0.36300
O 	O 	0.62838 0.25411 0.95212 -0.64100
O 	O 	0.66970 0.19912 0.99613 -0.37300
O 	O 	0.73730 0.26118 0.96520 -0.44300
C 	C 	0.52734 0.24034 0.98876 0.30300
O 	O 	0.65499 0.25033 0.04845 -0.36000
C 	C 	0.72036 0.22176 0.98511 0.31000
H 	H 	0.58687 0.23138 0.93908 0.17300
Cu	Cu	0.73860 0.29640 0.53224 0.87100
O 	O 	0.64301 0.28739 0.45540 -0.64000
O 	O 	0.78195 0.30347 0.46181 -0.37500
O 	O 	0.72259 0.23906 0.49492 -0.44300
O 	O 	0.55455 0.25586 0.49525 -0.38200
C 	C 	0.52050 0.25779 0.47093 0.30900
C 	C 	0.76024 0.25414 0.47382 0.30800
H 	H 	0.61852 0.24456 0.44500 0.16400
H 	H 	0.78055 0.32996 0.35767 0.04100
H 	H 	0.78141 0.31505 0.29602 0.04800
H 	H 	0.61711 0.18625 0.16689 0.04200
H 	H 	0.62293 0.18656 0.22891 0.04000
C 	C 	0.82172 0.15435 0.45767 -0.01300
C 	C 	0.87905 0.17945 0.45017 -0.02800
C 	C 	0.90217 0.14660 0.44934 -0.04800
C 	C 	0.86807 0.08851 0.45604 0.02100
C 	C 	0.81014 0.06286 0.46268 -0.04800
C 	C 	0.78700 0.09570 0.46348 -0.02800
C 	C 	0.80040 0.19017 0.46209 0.04700
C 	C 	0.78234 0.21978 0.46680 -0.12000
C 	C 	0.89390 0.05664 0.45799 -0.01400
C 	C 	0.91688 0.03128 0.45996 -0.02800
H 	H 	0.90618 0.22476 0.44567 0.03800
H 	H 	0.94695 0.16669 0.44412 0.04200
H 	H 	0.78347 0.01796 0.46782 0.04200
H 	H 	0.74265 0.07598 0.46931 0.03600
C 	C 	0.21811 0.10437 0.46979 0.02100
C 	C 	0.24941 0.15714 0.45674 -0.04700
C 	C 	0.31092 0.18803 0.45720 -0.02800
C 	C 	0.34133 0.16624 0.47071 -0.01000
C 	C 	0.31007 0.11359 0.48388 -0.02800
C 	C 	0.24856 0.08270 0.48342 -0.04700
C 	C 	0.15460 0.07191 0.46871 -0.01300
C 	C 	0.10134 0.04406 0.46781 -0.02800
C 	C 	0.40455 0.19787 0.47097 0.04700
C 	C 	0.45749 0.22484 0.47104 -0.10800
H 	H 	0.22613 0.17412 0.44615 0.04300
H 	H 	0.33486 0.22876 0.44700 0.03900
H 	H 	0.33332 0.09653 0.49439 0.03800
H 	H 	0.22460 0.04189 0.49353 0.04300
C 	C 	0.81752 0.15703 0.00045 -0.01500
C 	C 	0.87698 0.19078 0.99526 -0.02700
C 	C 	0.90886 0.16654 0.99609 -0.04800
C 	C 	0.88141 0.10846 0.00211 0.02100
C 	C 	0.82248 0.07528 0.00817 -0.04800
C 	C 	0.79059 0.09951 0.00732 -0.02700
C 	C 	0.78285 0.17971 0.99616 0.05000
C 	C 	0.75405 0.19876 0.99167 -0.12000
C 	C 	0.91246 0.08175 0.00033 -0.01500
C 	C 	0.93742 0.05835 0.99850 -0.02700
H 	H 	0.89810 0.23529 0.98992 0.03600
H 	H 	0.95443 0.19250 0.99145 0.04200
H 	H 	0.80101 0.03039 0.01292 0.04300
H 	H 	0.74465 0.07314 0.01134 0.03800
C 	C 	0.22836 0.11679 0.98068 0.02100
C 	C 	0.24422 0.08409 0.96266 -0.04700
C 	C 	0.30467 0.10920 0.96261 -0.02700
C 	C 	0.34947 0.16711 0.98057 -0.01100
C 	C 	0.33354 0.20034 0.99790 -0.02600
C 	C 	0.27310 0.17521 0.99797 -0.04600
C 	C 	0.16665 0.08879 0.98352 -0.01200
C 	C 	0.11486 0.06378 0.98615 -0.02800
C 	C 	0.41180 0.19158 0.98254 0.04800
C 	C 	0.46433 0.21303 0.98492 -0.11100
H 	H 	0.20985 0.03886 0.94925 0.04300
H 	H 	0.31664 0.08330 0.94909 0.03800
H 	H 	0.36795 0.24522 0.01177 0.03700
H 	H 	0.26118 0.20074 0.01198 0.04200
C 	C 	0.93237 0.96774 0.99651 -0.08300
C 	C 	0.95924 0.93856 0.99342 0.04900
C 	C 	0.01940 0.97042 0.98991 -0.08200
H 	H 	0.88566 0.94297 0.99914 0.05500
H 	H 	0.04017 0.94774 0.98753 0.05600
C 	C 	0.91358 0.94244 0.46477 -0.08300
C 	C 	0.94303 0.91568 0.46794 0.04800
C 	C 	0.00500 0.94942 0.46895 -0.08200
H 	H 	0.86558 0.91639 0.46405 0.05500
H 	H 	0.02774 0.92871 0.47138 0.05600
Cu	Cu	0.67255 0.34237 0.95844 0.89700
Cu	Cu	0.64149 0.35723 0.02644 0.89500
C 	C 	0.65498 0.28638 0.07220 0.30500
C 	C 	0.65200 0.30474 0.88317 0.28700
O 	O 	0.68691 0.33770 0.00536 -0.64100
O 	O 	0.62963 0.31265 0.06465 -0.38500
O 	O 	0.72009 0.42839 0.96763 -0.38500
C 	C 	0.71666 0.46092 0.99201 0.31100
O 	O 	0.56429 0.29633 0.98603 -0.39400
O 	O 	0.67861 0.43681 0.01318 -0.39500
O 	O 	0.67102 0.34784 0.90950 -0.38500
O 	O 	0.64536 0.25533 0.88735 -0.42000
H 	H 	0.72984 0.36162 0.01616 0.16400
Cu	Cu	0.73655 0.33809 0.45853 0.92800
Cu	Cu	0.64123 0.30317 0.50274 0.89800
Cu	Cu	0.62191 0.33158 0.43454 0.89500
C 	C 	0.68968 0.31562 0.38692 0.28700
O 	O 	0.76863 0.42404 0.45773 -0.36200
C 	C 	0.68476 0.32819 0.57752 0.30700
O 	O 	0.73003 0.34726 0.50717 -0.64100
O 	O 	0.66373 0.34119 0.39505 -0.38400
C 	C 	0.74124 0.44577 0.46940 0.30100
O 	O 	0.68568 0.40955 0.47368 -0.39400
O 	O 	0.54359 0.29612 0.44997 -0.39500
O 	O 	0.72736 0.31644 0.41017 -0.36100
O 	O 	0.63899 0.30572 0.55209 -0.38600
O 	O 	0.73404 0.33451 0.57259 -0.42100
H 	H 	0.75327 0.38891 0.51958 0.17300
C 	C 	0.64423 0.31475 0.84805 -0.08800
C 	C 	0.67558 0.37299 0.84136 0.01200
C 	C 	0.67539 0.38234 0.80765 -0.06500
C 	C 	0.64402 0.33364 0.78031 0.02500
C 	C 	0.60985 0.27550 0.78700 -0.06600
C 	C 	0.60970 0.26608 0.82067 0.01200
C 	C 	0.65172 0.34332 0.74497 0.00200
C 	C 	0.60139 0.31863 0.71910 -0.04000
C 	C 	0.60806 0.32082 0.68494 -0.03300
C 	C 	0.66506 0.34799 0.67647 -0.00800
C 	C 	0.71562 0.37513 0.70240 -0.03300
C 	C 	0.70902 0.37276 0.73652 -0.04100
C 	C 	0.67103 0.34246 0.64121 0.04500
C 	C 	0.67687 0.33664 0.61196 -0.11000
H 	H 	0.70189 0.41103 0.86216 0.03800
H 	H 	0.70117 0.42741 0.80276 0.04600
H 	H 	0.58511 0.23757 0.76609 0.04500
H 	H 	0.58405 0.22093 0.82542 0.03100
H 	H 	0.55703 0.29635 0.72536 0.04000
H 	H 	0.56877 0.29991 0.66503 0.04000
H 	H 	0.75984 0.39632 0.69605 0.03700
H 	H 	0.74817 0.39194 0.75625 0.03800
C 	C 	0.68834 0.29982 0.35042 -0.08400
C 	C 	0.74017 0.31217 0.33932 0.01600
C 	C 	0.74078 0.30398 0.30435 -0.06500
C 	C 	0.68960 0.28328 0.28021 0.02600
C 	C 	0.63706 0.26850 0.29132 -0.06500
C 	C 	0.63640 0.27663 0.32623 0.01300
C 	C 	0.69229 0.28148 0.24348 0.00200
C 	C 	0.73085 0.33445 0.23156 -0.04000
C 	C 	0.72766 0.33417 0.19645 -0.03300
C 	C 	0.68597 0.28099 0.17302 -0.00600
C 	C 	0.64930 0.22759 0.18485 -0.03200
C 	C 	0.65250 0.22778 0.21998 -0.04000
C 	C 	0.67646 0.28230 0.13720 0.04500
C 	C 	0.66734 0.28393 0.10740 -0.10200
H 	H 	0.59726 0.25232 0.27289 0.04600
H 	H 	0.59589 0.26611 0.33447 0.02400
H 	H 	0.76176 0.37613 0.24947 0.04100
H 	H 	0.75625 0.37561 0.18749 0.03800
C 	C 	0.81118 0.62082 0.47314 -0.01100
C 	C 	0.85641 0.66568 0.49998 -0.02800
C 	C 	0.87929 0.72517 0.50003 -0.04700
C 	C 	0.85699 0.74001 0.47326 0.02100
C 	C 	0.81105 0.69501 0.44673 -0.04700
C 	C 	0.78816 0.63554 0.44669 -0.02700
C 	C 	0.78832 0.55964 0.47263 0.04700
C 	C 	0.76789 0.50797 0.47157 -0.11100
C 	C 	0.88482 0.80165 0.47152 -0.01300
C 	C 	0.90999 0.85348 0.46991 -0.02800
H 	H 	0.87421 0.65462 0.52061 0.03700
H 	H 	0.91499 0.75975 0.52056 0.04300
H 	H 	0.79375 0.70613 0.42589 0.04300
H 	H 	0.75295 0.60104 0.42595 0.03800
C 	C 	0.80580 0.63862 0.99294 -0.01000
C 	C 	0.80049 0.65832 0.96288 -0.02700
C 	C 	0.83007 0.71916 0.96323 -0.04800
C 	C 	0.86502 0.76049 0.99364 0.02200
C 	C 	0.87011 0.74076 0.02374 -0.04800
C 	C 	0.84052 0.67992 0.02339 -0.02900
C 	C 	0.77497 0.57599 0.99263 0.04800
C 	C 	0.74870 0.52348 0.99235 -0.10900
C 	C 	0.89734 0.82321 0.99370 -0.01300
C 	C 	0.92508 0.87577 0.99364 -0.02800
H 	H 	0.77357 0.62659 0.93928 0.03900
H 	H 	0.82608 0.73413 0.93985 0.04300
H 	H 	0.89719 0.77251 0.04732 0.04300
H 	H 	0.84467 0.66496 0.04674 0.03700
