data_crystal

_cell_length_a 17.49713
_cell_length_b 16.00937
_cell_length_c 24.35348
_cell_angle_alpha 90.00141
_cell_angle_beta  89.99602
_cell_angle_gamma 100.66593

_symmetry_space_group_name_	'P 1'
_symmetry_space_group_name_H-M	'P 1'

loop_
_symmetry_equiv_pos_as_xyz
  x,y,z

loop_
_atom_site_label
_atom_site_type_symbol
_atom_site_fract_x
_atom_site_fract_y
_atom_site_fract_z
_atom_site_charge
Ni	Ni	0.36916 0.65162 0.81563 1.10500
O 	O 	0.34283 0.75351 0.77434 -0.69900
Ni	Ni	0.30213 0.69964 0.70354 1.10300
O 	O 	0.44665 0.72301 0.86829 -0.35900
O 	O 	0.51098 0.79495 0.79616 -0.39200
O 	O 	0.28177 0.65943 0.87118 -0.36100
Ni	Ni	0.42576 0.84981 0.75861 1.08500
O 	O 	0.25469 0.48501 0.84601 -0.39600
O 	O 	0.46872 0.82861 0.68186 -0.37900
O 	O 	0.29709 0.80494 0.65533 -0.35900
O 	O 	0.31499 0.59601 0.74941 -0.70200
O 	O 	0.38484 0.54347 0.85402 -0.36300
O 	O 	0.24792 0.62183 0.64276 -0.35200
O 	O 	0.15673 0.55374 0.70306 -0.39300
Ni	Ni	0.21755 0.52668 0.77263 1.07300
H 	H 	0.30006 0.77490 0.79302 0.16900
H 	H 	0.34788 0.56047 0.73085 0.16900
C 	C 	0.46004 0.75527 0.65602 0.31000
O 	O 	0.18170 0.62566 0.81027 -0.40600
C 	C 	0.50663 0.77660 0.84882 0.28100
C 	C 	0.32280 0.88499 0.67037 0.29400
C 	C 	0.20731 0.65101 0.85919 0.29600
C 	C 	0.18683 0.56229 0.65318 0.27800
C 	C 	0.32696 0.47764 0.85897 0.28200
O 	O 	0.40816 0.68978 0.67177 -0.38900
O 	O 	0.34397 0.90422 0.72149 -0.39300
Ni	Ni	0.67198 0.33994 0.30320 1.10600
O 	O 	0.70270 0.24088 0.26154 -0.70100
Ni	Ni	0.72625 0.29306 0.18735 1.10400
O 	O 	0.60843 0.26542 0.36180 -0.36000
O 	O 	0.53997 0.18384 0.29512 -0.39800
O 	O 	0.76924 0.34825 0.35273 -0.35800
Ni	Ni	0.62610 0.13670 0.25281 1.08300
O 	O 	0.77609 0.51733 0.32549 -0.38600
O 	O 	0.57150 0.15009 0.17919 -0.38300
O 	O 	0.73277 0.18707 0.14017 -0.35800
O 	O 	0.71097 0.39607 0.23318 -0.70100
O 	O 	0.64991 0.44615 0.33999 -0.36800
O 	O 	0.76340 0.37106 0.12217 -0.35200
O 	O 	0.85721 0.45204 0.17489 -0.38500
Ni	Ni	0.80566 0.47606 0.24916 1.08000
H 	H 	0.75098 0.22651 0.27696 0.17100
H 	H 	0.67152 0.42603 0.21719 0.17300
C 	C 	0.56073 0.22296 0.15874 0.30900
O 	O 	0.85594 0.38430 0.28344 -0.40700
C 	C 	0.54958 0.20619 0.34700 0.28300
C 	C 	0.72428 0.10788 0.15907 0.29600
C 	C 	0.84151 0.36342 0.33477 0.29600
C 	C 	0.81830 0.43890 0.12826 0.27900
C 	C 	0.70505 0.51403 0.34637 0.28800
O 	O 	0.61433 0.29163 0.16317 -0.38400
O 	O 	0.70943 0.09023 0.21143 -0.39700
C 	C 	0.91473 0.49868 0.99120 -0.04200
C 	C 	0.94765 0.58426 0.00196 0.03000
C 	C 	0.92003 0.62645 0.04642 -0.03500
C 	C 	0.86866 0.57979 0.08469 0.02500
C 	C 	0.84785 0.49060 0.07957 -0.07100
C 	C 	0.86568 0.45113 0.03039 0.03000
C 	C 	0.02026 0.62401 0.97306 0.02100
C 	C 	0.94663 0.71702 0.05374 0.11000
C 	C 	0.83490 0.36193 0.02041 0.10200
C 	C 	0.01659 0.67142 0.92471 -0.03500
C 	C 	0.08263 0.69134 0.89065 0.02300
C 	C 	0.15046 0.65910 0.90329 -0.07600
C 	C 	0.15718 0.62229 0.95559 0.02500
C 	C 	0.09210 0.60568 0.99058 -0.03800
C 	C 	0.94444 0.69737 0.90929 0.10700
C 	C 	0.23005 0.59981 0.97300 0.10200
C 	C 	0.08130 0.74559 0.84312 0.08900
C 	C 	0.09801 0.56653 0.04376 0.11000
C 	C 	0.93424 0.45886 0.94092 0.10900
C 	C 	0.83728 0.62313 0.12928 0.06600
N 	N 	0.08027 0.78888 0.80516 -0.10000
N 	N 	0.88682 0.71805 0.89700 -0.10000
N 	N 	0.28810 0.58181 0.98703 -0.09000
N 	N 	0.10260 0.53524 0.08618 -0.10100
N 	N 	0.96786 0.78934 0.05952 -0.10100
N 	N 	0.81221 0.65766 0.16488 -0.12100
N 	N 	0.81028 0.29081 0.01225 -0.09000
N 	N 	0.94991 0.42721 0.90077 -0.10600
C 	C 	0.01897 0.49730 0.55382 -0.03500
C 	C 	0.05157 0.44666 0.51629 0.02200
C 	C 	0.12751 0.43130 0.52483 -0.03400
C 	C 	0.17177 0.46894 0.56983 0.02000
C 	C 	0.13993 0.52163 0.60651 -0.07000
C 	C 	0.06367 0.53652 0.59804 0.02400
C 	C 	0.00888 0.41728 0.46470 0.02500
C 	C 	0.16037 0.37778 0.48684 0.10600
C 	C 	0.03264 0.59543 0.63318 0.09700
C 	C 	0.01413 0.47235 0.41922 -0.03600
C 	C 	0.96171 0.45344 0.37513 0.02700
C 	C 	0.90623 0.37666 0.37520 -0.07400
C 	C 	0.90766 0.31700 0.41777 0.02700
C 	C 	0.95790 0.33803 0.46304 -0.03600
C 	C 	0.07234 0.54973 0.41858 0.10800
C 	C 	0.85770 0.23403 0.41483 0.09000
C 	C 	0.96287 0.51468 0.33105 0.07800
C 	C 	0.95627 0.27893 0.50831 0.10600
C 	C 	0.93982 0.51045 0.54615 0.10600
C 	C 	0.25033 0.45426 0.57809 0.08300
N 	N 	0.96395 0.56366 0.29597 -0.12600
N 	N 	0.11880 0.61142 0.41817 -0.09800
N 	N 	0.81778 0.16786 0.41246 -0.10500
N 	N 	0.95503 0.23182 0.54448 -0.10400
N 	N 	0.18649 0.33508 0.45645 -0.10100
N 	N 	0.31306 0.44275 0.58469 -0.10200
N 	N 	0.00791 0.64245 0.66119 -0.09300
N 	N 	0.87671 0.52101 0.54000 -0.10200
C 	C 	0.44458 0.03554 0.44206 -0.04800
C 	C 	0.40669 0.08424 0.47761 0.03000
C 	C 	0.40650 0.17030 0.46543 -0.04000
C 	C 	0.45166 0.21011 0.42151 0.03000
C 	C 	0.49521 0.16301 0.38889 -0.07800
C 	C 	0.48893 0.07488 0.39776 0.03100
C 	C 	0.37765 0.04855 0.53182 0.01100
C 	C 	0.36132 0.21813 0.49896 0.10800
C 	C 	0.53039 0.02538 0.36250 0.05100
C 	C 	0.42799 0.05855 0.57742 -0.03100
C 	C 	0.40705 0.01107 0.62552 0.01300
C 	C 	0.33556 0.95260 0.62776 -0.06300
C 	C 	0.28102 0.95177 0.58487 0.02100
C 	C 	0.30250 0.99894 0.53656 -0.02500
C 	C 	0.50245 0.11600 0.57415 0.10200
C 	C 	0.20269 0.90358 0.59085 0.10000
C 	C 	0.45965 0.02160 0.67210 0.07900
C 	C 	0.24801 0.99533 0.49141 0.10700
C 	C 	0.43993 0.94548 0.45222 0.11800
C 	C 	0.45371 0.29944 0.41007 0.09300
N 	N 	0.50181 0.03023 0.70915 -0.12300
N 	N 	0.56180 0.16185 0.57145 -0.10000
N 	N 	0.14020 0.86508 0.59562 -0.09400
N 	N 	0.20457 0.99250 0.45533 -0.09800
N 	N 	0.32524 0.25616 0.52581 -0.10300
N 	N 	0.45543 0.37072 0.40096 -0.09300
N 	N 	0.56348 0.98599 0.33432 -0.11800
N 	N 	0.43630 0.87363 0.46027 -0.10600
C 	C 	0.65162 0.91223 0.07431 -0.03400
C 	C 	0.69429 0.93490 0.02581 0.02500
C 	C 	0.76179 0.99841 0.02761 -0.01700
C 	C 	0.77834 0.04902 0.07509 0.01900
C 	C 	0.72603 0.03725 0.11978 -0.07500
C 	C 	0.66749 0.96324 0.12153 0.03300
C 	C 	0.66110 0.90182 0.97201 0.02200
C 	C 	0.81258 0.01307 0.98022 0.09600
C 	C 	0.62228 0.94073 0.17102 0.08800
C 	C 	0.61328 0.94790 0.94245 -0.02600
C 	C 	0.56541 0.90809 0.89992 0.02300
C 	C 	0.56548 0.82225 0.88689 -0.07300
C 	C 	0.61901 0.77900 0.91268 0.02800
C 	C 	0.66769 0.81935 0.95476 -0.03400
C 	C 	0.61173 0.03546 0.95699 0.09900
C 	C 	0.62323 0.69285 0.89635 0.09400
C 	C 	0.51420 0.95448 0.87075 0.06100
C 	C 	0.72268 0.77524 0.98157 0.10600
C 	C 	0.58897 0.83888 0.07469 0.11100
C 	C 	0.84970 0.11133 0.07864 0.09900
N 	N 	0.47333 0.99144 0.84748 -0.12800
N 	N 	0.61061 0.10532 0.96862 -0.09900
N 	N 	0.62653 0.62408 0.88332 -0.09600
N 	N 	0.76650 0.74004 0.00306 -0.10200
N 	N 	0.85308 0.02472 0.94234 -0.09900
N 	N 	0.90671 0.16106 0.08150 -0.09800
N 	N 	0.58601 0.92249 0.21040 -0.10800
N 	N 	0.53898 0.78036 0.07492 -0.09900
C 	C 	0.30424 0.31577 0.97536 -0.03800
C 	C 	0.38241 0.30697 0.98129 0.02100
C 	C 	0.43636 0.33646 0.93940 -0.03400
C 	C 	0.41331 0.38073 0.89417 0.02300
C 	C 	0.33967 0.40502 0.89419 -0.07000
C 	C 	0.28306 0.36754 0.93326 0.02400
C 	C 	0.40934 0.27368 0.03371 0.02600
C 	C 	0.51610 0.32384 0.94380 0.10700
C 	C 	0.20376 0.38221 0.93077 0.09400
C 	C 	0.42902 0.19216 0.03550 -0.03400
C 	C 	0.47064 0.16870 0.08084 0.02600
C 	C 	0.49141 0.22677 0.12445 -0.07600
C 	C 	0.45712 0.29968 0.12736 0.02700
C 	C 	0.41964 0.32565 0.08095 -0.03600
C 	C 	0.40785 0.13345 0.99032 0.10200
C 	C 	0.46145 0.34825 0.17789 0.08400
C 	C 	0.48971 0.08456 0.08320 0.09900
C 	C 	0.39461 0.40708 0.08093 0.10700
C 	C 	0.24608 0.27314 0.01344 0.10700
C 	C 	0.46460 0.40003 0.84726 0.08700
N 	N 	0.50436 0.01705 0.08484 -0.10400
N 	N 	0.39098 0.08664 0.95423 -0.10700
N 	N 	0.46498 0.38694 0.21825 -0.10700
N 	N 	0.37460 0.47205 0.08089 -0.09700
N 	N 	0.57972 0.31375 0.94737 -0.09800
N 	N 	0.50555 0.41545 0.80983 -0.10100
N 	N 	0.14040 0.39371 0.92903 -0.10300
N 	N 	0.19975 0.23914 0.04387 -0.10200
C 	C 	0.63474 0.74576 0.56527 -0.03600
C 	C 	0.59759 0.70530 0.51840 0.02500
C 	C 	0.51600 0.69421 0.51349 -0.03500
C 	C 	0.47154 0.71840 0.55687 0.02900
C 	C 	0.50791 0.74723 0.60688 -0.07600
C 	C 	0.58995 0.76400 0.61037 0.02700
C 	C 	0.64304 0.66516 0.47749 0.02400
C 	C 	0.47772 0.65558 0.46445 0.11100
C 	C 	0.62808 0.79692 0.66085 0.09200
C 	C 	0.66213 0.58510 0.48880 -0.03400
C 	C 	0.69074 0.53926 0.44664 0.02700
C 	C 	0.69619 0.57130 0.39249 -0.06600
C 	C 	0.68487 0.65486 0.38240 0.02100
C 	C 	0.65982 0.70258 0.42536 -0.03300
C 	C 	0.64989 0.54883 0.54339 0.10900
C 	C 	0.69725 0.69087 0.32779 0.08100
C 	C 	0.71397 0.45882 0.45880 0.10200
C 	C 	0.65015 0.78938 0.41590 0.10700
C 	C 	0.71893 0.76655 0.56750 0.10800
C 	C 	0.38901 0.71661 0.54935 0.09500
N 	N 	0.73243 0.39470 0.46874 -0.09000
N 	N 	0.64010 0.51998 0.58696 -0.10100
N 	N 	0.70714 0.71959 0.28419 -0.10300
N 	N 	0.64241 0.85872 0.40850 -0.10100
N 	N 	0.44726 0.62474 0.42531 -0.09800
N 	N 	0.32327 0.71536 0.54299 -0.08800
N 	N 	0.65850 0.82316 0.70113 -0.09400
N 	N 	0.78613 0.78306 0.56923 -0.09800
