data_crystal

_cell_length_a 18.74442
_cell_length_b 16.06882
_cell_length_c 41.73586
_cell_angle_alpha 90.92790
_cell_angle_beta  91.30314
_cell_angle_gamma 111.11614

_symmetry_space_group_name_	'P 1'
_symmetry_space_group_name_H-M	'P 1'

loop_
_symmetry_equiv_pos_as_xyz
  x,y,z

loop_
_atom_site_label
_atom_site_type_symbol
_atom_site_fract_x
_atom_site_fract_y
_atom_site_fract_z
_atom_site_charge
Ni	Ni	0.73163 0.34031 0.88884 1.10500
O 	O 	0.64779 0.25606 0.85884 -0.70400
Ni	Ni	0.55484 0.26110 0.87922 1.10600
O 	O 	0.81418 0.31964 0.86197 -0.33300
O 	O 	0.75856 0.16759 0.86601 -0.37800
O 	O 	0.72856 0.43874 0.85876 -0.37500
Ni	Ni	0.64012 0.13243 0.85852 1.07900
O 	O 	0.73446 0.45211 0.95614 -0.40600
O 	O 	0.62857 0.11998 0.90702 -0.40200
O 	O 	0.47963 0.18696 0.84510 -0.36800
O 	O 	0.63763 0.32928 0.91263 -0.70200
O 	O 	0.81472 0.43323 0.91741 -0.35500
O 	O 	0.47098 0.29941 0.89799 -0.35300
O 	O 	0.55226 0.44336 0.89852 -0.39800
Ni	Ni	0.64597 0.44877 0.92686 1.07900
H 	H 	0.65090 0.27810 0.83671 0.18300
H 	H 	0.63563 0.29283 0.93170 0.16100
C 	C 	0.56380 0.11210 0.92035 0.29900
O 	O 	0.72188 0.53748 0.89774 -0.38700
C 	C 	0.81068 0.23858 0.85379 0.31600
C 	C 	0.47318 0.10387 0.83854 0.32900
C 	C 	0.73939 0.52055 0.86865 0.34300
C 	C 	0.48488 0.38399 0.90462 0.28500
C 	C 	0.80367 0.46511 0.94570 0.29900
O 	O 	0.51946 0.15195 0.90829 -0.35600
O 	O 	0.52305 0.06976 0.85061 -0.38400
Ni	Ni	0.59110 0.31536 0.56012 1.10600
O 	O 	0.68220 0.33798 0.53070 -0.69600
Ni	Ni	0.75777 0.31441 0.56050 1.10400
O 	O 	0.54168 0.38948 0.53438 -0.35100
O 	O 	0.65653 0.50261 0.53420 -0.39000
O 	O 	0.52821 0.20497 0.53209 -0.36100
Ni	Ni	0.73124 0.45399 0.51185 1.08000
O 	O 	0.49841 0.13691 0.58970 -0.37000
O 	O 	0.81883 0.52092 0.54395 -0.38300
O 	O 	0.85885 0.36506 0.53558 -0.34700
O 	O 	0.65999 0.27267 0.58648 -0.69900
O 	O 	0.50403 0.28206 0.59138 -0.35100
O 	O 	0.81035 0.26330 0.59440 -0.33100
O 	O 	0.71535 0.12572 0.58854 -0.37500
Ni	Ni	0.61050 0.14378 0.58877 1.08900
H 	H 	0.66911 0.29317 0.51301 0.15900
H 	H 	0.66809 0.30074 0.60821 0.18100
C 	C 	0.81839 0.51022 0.57497 0.34500
O 	O 	0.60367 0.12282 0.54048 -0.40200
C 	C 	0.58399 0.46976 0.52545 0.29300
C 	C 	0.86479 0.40309 0.50714 0.30000
C 	C 	0.55423 0.14301 0.52255 0.29300
C 	C 	0.77705 0.18068 0.60396 0.31200
C 	C 	0.47525 0.19964 0.60187 0.30800
O 	O 	0.78600 0.43092 0.58710 -0.37300
O 	O 	0.80342 0.40309 0.49112 -0.40500
Ni	Ni	0.02283 0.97977 0.76934 1.10500
O 	O 	0.00298 0.88330 0.73427 -0.70600
Ni	Ni	0.05783 0.95696 0.69802 1.11000
O 	O 	0.96141 0.88827 0.80170 -0.32900
O 	O 	0.85754 0.83764 0.76711 -0.37500
O 	O 	0.11973 0.95415 0.78124 -0.35300
Ni	Ni	0.89578 0.83100 0.72102 1.08100
O 	O 	0.10235 0.20738 0.77232 -0.35800
O 	O 	0.88663 0.95191 0.71196 -0.38100
O 	O 	0.04188 0.85335 0.66670 -0.33700
O 	O 	0.06232 0.05377 0.73102 -0.70100
O 	O 	0.04987 0.08191 0.80258 -0.34600
O 	O 	0.13762 0.04320 0.66926 -0.33200
O 	O 	0.22195 0.10269 0.71161 -0.37700
Ni	Ni	0.15828 0.15033 0.74255 1.09000
H 	H 	0.02441 0.83709 0.73970 0.19100
H 	H 	0.02531 0.08218 0.72531 0.18500
C 	C 	0.91467 0.99455 0.68586 0.32700
O 	O 	0.19580 0.10104 0.78157 -0.37100
C 	C 	0.89488 0.82697 0.79293 0.31000
C 	C 	0.97173 0.79394 0.66204 0.31600
C 	C 	0.18792 0.01696 0.78399 0.33000
C 	C 	0.20698 0.09149 0.68037 0.31700
C 	C 	0.05330 0.16207 0.79404 0.31400
O 	O 	0.97310 0.98271 0.67244 -0.33700
O 	O 	0.91212 0.80932 0.67374 -0.38100
Ni	Ni	0.23691 0.67208 0.38892 1.10400
O 	O 	0.32434 0.73684 0.35932 -0.70300
Ni	Ni	0.41389 0.73029 0.38395 1.10700
O 	O 	0.15992 0.69037 0.35702 -0.34400
O 	O 	0.22496 0.84190 0.35733 -0.37900
O 	O 	0.23096 0.55978 0.36370 -0.37200
Ni	Ni	0.34144 0.86199 0.35341 1.08200
O 	O 	0.22206 0.58335 0.45993 -0.40800
O 	O 	0.35366 0.89414 0.40134 -0.39800
O 	O 	0.49287 0.78510 0.35027 -0.35200
O 	O 	0.32848 0.68263 0.41635 -0.69800
O 	O 	0.14792 0.59721 0.41675 -0.35800
O 	O 	0.49102 0.69008 0.40892 -0.34700
O 	O 	0.39971 0.55257 0.41227 -0.40200
Ni	Ni	0.30921 0.56727 0.43590 1.07700
H 	H 	0.31899 0.70553 0.33827 0.19000
H 	H 	0.33365 0.72723 0.43370 0.15600
C 	C 	0.41423 0.89636 0.41825 0.29000
O 	O 	0.23119 0.47254 0.40660 -0.38300
C 	C 	0.16795 0.76997 0.34646 0.32000
C 	C 	0.50203 0.86438 0.33858 0.32000
C 	C 	0.21565 0.48101 0.37620 0.34500
C 	C 	0.46907 0.60834 0.41941 0.28900
C 	C 	0.15439 0.56878 0.44603 0.30400
O 	O 	0.45598 0.85064 0.40872 -0.35800
O 	O 	0.45896 0.91003 0.34825 -0.37600
Ni	Ni	0.38149 0.68320 0.04776 1.10700
O 	O 	0.27829 0.66287 0.02517 -0.70100
Ni	Ni	0.22035 0.68784 0.06142 1.10400
O 	O 	0.41437 0.60695 0.01573 -0.36200
O 	O 	0.30022 0.49329 0.02024 -0.39400
O 	O 	0.43542 0.79182 0.01998 -0.35900
Ni	Ni	0.21788 0.54521 0.00703 1.07900
O 	O 	0.48801 0.85914 0.08114 -0.38300
O 	O 	0.14549 0.47847 0.04234 -0.38000
O 	O 	0.10950 0.64049 0.04276 -0.35300
O 	O 	0.32836 0.72728 0.08106 -0.70400
O 	O 	0.48233 0.71468 0.07243 -0.35100
O 	O 	0.18654 0.74028 0.10062 -0.33500
O 	O 	0.27574 0.87801 0.09134 -0.38000
Ni	Ni	0.37802 0.85584 0.08534 1.08100
H 	H 	0.28380 0.70800 0.00862 0.16400
H 	H 	0.33012 0.69884 0.10179 0.18500
C 	C 	0.15897 0.49251 0.07338 0.33600
O 	O 	0.36964 0.87766 0.03774 -0.40400
C 	C 	0.36835 0.52547 0.00793 0.28300
C 	C 	0.08877 0.60696 0.01325 0.30000
C 	C 	0.41690 0.86309 0.01767 0.29700
C 	C 	0.21878 0.82580 0.10821 0.31500
C 	C 	0.51275 0.79305 0.08757 0.31800
O 	O 	0.20226 0.57136 0.08509 -0.37200
O 	O 	0.13849 0.59616 0.99321 -0.40100
Ni	Ni	0.94715 0.01904 0.26428 1.10200
O 	O 	0.97475 0.11933 0.23197 -0.70600
Ni	Ni	0.92823 0.05024 0.19196 1.10700
O 	O 	0.00044 0.10921 0.30050 -0.33200
O 	O 	0.11038 0.15008 0.27263 -0.37100
O 	O 	0.84417 0.03540 0.27148 -0.36600
Ni	Ni	0.08419 0.17002 0.22522 1.09500
O 	O 	0.87559 0.79166 0.25851 -0.35200
O 	O 	0.09525 0.05092 0.21352 -0.38300
O 	O 	0.95028 0.15733 0.16328 -0.33900
O 	O 	0.91788 0.94958 0.22300 -0.69400
O 	O 	0.91814 0.91275 0.29386 -0.34000
O 	O 	0.85320 0.96711 0.15854 -0.32600
O 	O 	0.76597 0.90849 0.19720 -0.37100
Ni	Ni	0.82184 0.84987 0.22795 1.09800
H 	H 	0.95293 0.16561 0.23689 0.18900
H 	H 	0.95712 0.92339 0.21912 0.18600
C 	C 	0.07201 0.01287 0.18526 0.32300
O 	O 	0.77563 0.88588 0.26716 -0.36700
C 	C 	0.07103 0.16456 0.29642 0.31100
C 	C 	0.02126 0.21667 0.16274 0.31700
C 	C 	0.77896 0.96725 0.27360 0.34500
C 	C 	0.78325 0.91864 0.16671 0.31400
C 	C 	0.91968 0.83534 0.28336 0.31100
O 	O 	0.01621 0.02702 0.16965 -0.34100
O 	O 	0.07870 0.20142 0.17782 -0.36400
C 	C 	0.12154 0.33422 0.09062 0.10700
C 	C 	0.11886 0.42019 0.09546 -0.10700
C 	C 	0.07379 0.43491 0.12015 0.10300
C 	C 	0.03689 0.36581 0.14122 0.09900
C 	C 	0.04131 0.28094 0.13665 -0.08900
C 	C 	0.07898 0.26383 0.10996 0.10500
Br	Br	0.07247 0.14352 0.10009 -0.14100
Br	Br	0.18856 0.31428 0.05945 -0.19100
Br	Br	0.98164 0.38775 0.17681 -0.16700
Br	Br	0.05985 0.54777 0.12451 -0.15200
C 	C 	0.59985 0.76306 0.12817 0.10400
C 	C 	0.58857 0.81578 0.10334 -0.10100
C 	C 	0.64891 0.89420 0.09525 0.10700
C 	C 	0.71263 0.93015 0.11623 0.11200
C 	C 	0.72288 0.87885 0.14189 -0.09700
C 	C 	0.66975 0.79165 0.14561 0.11100
Br	Br	0.69477 0.70993 0.17303 -0.22300
Br	Br	0.51819 0.65561 0.13994 -0.17800
Br	Br	0.78016 0.05235 0.11161 -0.16400
Br	Br	0.64777 0.94723 0.05417 -0.16900
C 	C 	0.18950 0.97884 0.17213 0.11600
C 	C 	0.10899 0.95508 0.17033 -0.09300
C 	C 	0.06476 0.88247 0.15015 0.11500
C 	C 	0.10080 0.84623 0.12779 0.11500
C 	C 	0.18045 0.86678 0.13059 -0.09600
C 	C 	0.22377 0.92895 0.15433 0.10800
Br	Br	0.32892 0.94301 0.16346 -0.20700
Br	Br	0.25403 0.08444 0.19577 -0.17200
Br	Br	0.04236 0.77915 0.09108 -0.15100
Br	Br	0.95533 0.82887 0.15420 -0.18000
C 	C 	0.64515 0.93804 0.34081 0.10600
C 	C 	0.57524 0.91380 0.32309 -0.09500
C 	C 	0.57593 0.93329 0.29028 0.10100
C 	C 	0.64620 0.96712 0.27457 0.10400
C 	C 	0.71524 0.97796 0.29131 -0.09900
C 	C 	0.71510 0.97096 0.32490 0.11100
Br	Br	0.81070 0.00139 0.34878 -0.14300
Br	Br	0.64519 0.92514 0.38666 -0.16600
Br	Br	0.64815 0.99668 0.22999 -0.16800
Br	Br	0.48087 0.91015 0.26665 -0.18300
C 	C 	0.19748 0.39739 0.32360 0.11100
C 	C 	0.17759 0.39995 0.35588 -0.10800
C 	C 	0.11936 0.32518 0.36823 0.10900
C 	C 	0.09059 0.24528 0.34993 0.10500
C 	C 	0.10450 0.24636 0.31681 -0.10600
C 	C 	0.15337 0.32616 0.30338 0.11000
Br	Br	0.15079 0.34420 0.25787 -0.27900
Br	Br	0.28955 0.48484 0.30782 -0.18000
Br	Br	0.04009 0.13454 0.37113 -0.14100
Br	Br	0.06954 0.33573 0.40708 -0.18100
C 	C 	0.03937 0.78274 0.34786 0.11000
C 	C 	0.10192 0.78116 0.33008 -0.10300
C 	C 	0.09892 0.78389 0.29647 0.10500
C 	C 	0.03454 0.79125 0.28060 0.09600
C 	C 	0.97440 0.79991 0.29852 -0.09700
C 	C 	0.97514 0.79067 0.33201 0.10600
Br	Br	0.88710 0.78634 0.35596 -0.13900
Br	Br	0.04261 0.77626 0.39397 -0.18900
Br	Br	0.02876 0.78831 0.23445 -0.18400
Br	Br	0.18389 0.77906 0.27221 -0.18600
C 	C 	0.44038 0.02849 0.49656 -0.04000
C 	C 	0.51719 0.08496 0.49476 -0.08600
C 	C 	0.55809 0.08318 0.46681 0.11700
C 	C 	0.52058 0.02631 0.44099 -0.04300
C 	C 	0.44565 0.96532 0.44364 -0.07800
C 	C 	0.40465 0.96667 0.47164 0.11500
N 	N 	0.33204 0.90786 0.47511 -0.19800
H 	H 	0.40914 0.03031 0.51796 0.06900
H 	H 	0.55095 0.02698 0.41914 0.07700
N 	N 	0.63342 0.13466 0.46473 -0.20000
H 	H 	0.30233 0.91008 0.49580 0.10600
H 	H 	0.30468 0.85870 0.45770 0.09100
H 	H 	0.66553 0.16996 0.48456 0.08800
H 	H 	0.66184 0.13600 0.44337 0.10900
C 	C 	0.02832 0.56893 0.46215 -0.03600
C 	C 	0.08417 0.53028 0.46470 -0.07700
C 	C 	0.06973 0.45243 0.48308 0.13000
C 	C 	0.99933 0.41531 0.49831 -0.03500
C 	C 	0.94184 0.45143 0.49427 -0.07400
C 	C 	0.95784 0.53146 0.47689 0.12300
N 	N 	0.90688 0.57386 0.47478 -0.19300
H 	H 	0.04007 0.62953 0.44880 0.07500
H 	H 	0.98796 0.35535 0.51201 0.07900
N 	N 	0.12140 0.41097 0.48527 -0.19400
H 	H 	0.91598 0.62660 0.45913 0.11300
H 	H 	0.86208 0.56112 0.49040 0.07800
H 	H 	0.16770 0.42627 0.47021 0.10300
H 	H 	0.11234 0.35770 0.50067 0.11700
C 	C 	0.54936 0.52893 0.44067 -0.03000
C 	C 	0.51130 0.58810 0.44623 -0.09400
C 	C 	0.50057 0.61196 0.47812 0.09700
C 	C 	0.52414 0.57165 0.50375 -0.03100
C 	C 	0.55802 0.50842 0.49807 -0.09200
C 	C 	0.57141 0.48713 0.46623 0.09600
N 	N 	0.60361 0.42521 0.46001 -0.20200
H 	H 	0.55779 0.51123 0.41622 0.06000
H 	H 	0.51584 0.58940 0.52820 0.06300
N 	N 	0.46705 0.67268 0.48426 -0.20600
H 	H 	0.61511 0.41186 0.43649 0.09000
H 	H 	0.61547 0.38791 0.47819 0.03300
H 	H 	0.45196 0.70703 0.46591 0.07300
H 	H 	0.45736 0.68776 0.50784 0.09500
C 	C 	0.92722 0.12750 0.65293 0.11500
C 	C 	0.88061 0.05554 0.67096 -0.09900
C 	C 	0.80058 0.03606 0.67056 0.11100
C 	C 	0.76956 0.08800 0.65210 0.10800
C 	C 	0.81442 0.14537 0.62907 -0.09800
C 	C 	0.89390 0.16373 0.62919 0.11400
Br	Br	0.95584 0.22747 0.59478 -0.14300
Br	Br	0.03515 0.18266 0.66285 -0.17800
Br	Br	0.66792 0.08555 0.66006 -0.22700
Br	Br	0.73203 0.93441 0.69226 -0.16000
C 	C 	0.29758 0.20256 0.64489 0.10300
C 	C 	0.27114 0.11725 0.65815 -0.09500
C 	C 	0.30809 0.05764 0.65088 0.11000
C 	C 	0.38044 0.08967 0.63735 0.10200
C 	C 	0.40424 0.17190 0.62123 -0.09300
C 	C 	0.35783 0.22516 0.62316 0.10500
Br	Br	0.36390 0.31500 0.59206 -0.16000
Br	Br	0.25126 0.28795 0.65600 -0.17700
Br	Br	0.45015 0.02893 0.64646 -0.18300
Br	Br	0.25435 0.93109 0.65345 -0.14700
C 	C 	0.86345 0.67157 0.59096 0.10500
C 	C 	0.86604 0.58589 0.59573 -0.11000
C 	C 	0.92090 0.57599 0.61773 0.10700
C 	C 	0.96314 0.64809 0.63832 0.09600
C 	C 	0.95640 0.73170 0.63459 -0.09300
C 	C 	0.91448 0.74516 0.60822 0.10500
Br	Br	0.92388 0.86467 0.59718 -0.14000
Br	Br	0.78522 0.68716 0.56350 -0.18900
Br	Br	0.02807 0.63192 0.67222 -0.16600
Br	Br	0.94412 0.46838 0.61743 -0.14400
C 	C 	0.88117 0.47288 0.99502 -0.03200
C 	C 	0.87026 0.51264 0.96667 -0.08500
C 	C 	0.92594 0.59435 0.95762 0.12800
C 	C 	0.99517 0.62949 0.97532 -0.03000
C 	C 	0.00929 0.58482 0.00187 -0.08400
C 	C 	0.95017 0.50833 0.01288 0.12500
N 	N 	0.95982 0.46768 0.04009 -0.19900
H 	H 	0.83696 0.41219 0.00257 0.05800
H 	H 	0.03956 0.68979 0.96758 0.06400
N 	N 	0.91313 0.63950 0.93219 -0.19800
H 	H 	0.91710 0.40909 0.04722 0.11500
H 	H 	0.00821 0.49521 0.05501 0.13200
H 	H 	0.85986 0.61956 0.92035 0.12200
H 	H 	0.95598 0.69760 0.92478 0.11900
C 	C 	0.45268 0.89819 0.96140 -0.04000
C 	C 	0.45322 0.92900 0.99306 -0.06700
C 	C 	0.49640 0.01975 0.00135 0.11000
C 	C 	0.53398 0.07832 0.97725 -0.02600
C 	C 	0.53421 0.04692 0.94575 -0.08900
C 	C 	0.49532 0.95526 0.93800 0.13600
N 	N 	0.49941 0.92140 0.90831 -0.19400
H 	H 	0.42117 0.82850 0.95519 0.05500
H 	H 	0.56369 0.14857 0.98314 0.04400
N 	N 	0.50382 0.05059 0.03228 -0.19100
H 	H 	0.46645 0.85512 0.90212 0.10600
H 	H 	0.53853 0.95851 0.89185 0.10300
H 	H 	0.48511 0.00768 0.05130 0.09200
H 	H 	0.53271 0.11835 0.03775 0.10100
C 	C 	0.41844 0.36046 0.95605 -0.05100
C 	C 	0.43666 0.40782 0.92755 -0.09800
C 	C 	0.42058 0.48661 0.92404 0.11800
C 	C 	0.39606 0.52279 0.95049 -0.04600
C 	C 	0.38531 0.48009 0.97999 -0.10000
C 	C 	0.39402 0.39655 0.98259 0.12200
N 	N 	0.38181 0.35231 0.01067 -0.20200
H 	H 	0.42854 0.29843 0.95835 0.05800
H 	H 	0.38608 0.58491 0.94822 0.04200
N 	N 	0.42781 0.52712 0.89530 -0.19800
H 	H 	0.38803 0.29039 0.01219 0.10500
H 	H 	0.36693 0.37897 0.03130 0.12300
H 	H 	0.43918 0.49736 0.87457 0.12000
H 	H 	0.41888 0.58739 0.89318 0.10400
C 	C 	0.87839 0.22281 0.80465 0.10400
C 	C 	0.87704 0.22839 0.83827 -0.09800
C 	C 	0.94000 0.22665 0.85699 0.10900
C 	C 	0.00192 0.21324 0.84213 0.10700
C 	C 	0.00057 0.20067 0.80859 -0.09900
C 	C 	0.94054 0.21016 0.78976 0.09900
Br	Br	0.94270 0.20475 0.74367 -0.19200
Br	Br	0.79415 0.23069 0.77902 -0.19300
Br	Br	0.08922 0.21346 0.86754 -0.15100
Br	Br	0.94111 0.24212 0.90296 -0.17400
C 	C 	0.33449 0.02208 0.84639 0.10900
C 	C 	0.39810 0.04207 0.82654 -0.10200
C 	C 	0.38597 0.02042 0.79363 0.10100
C 	C 	0.31142 0.99379 0.78011 0.10200
C 	C 	0.25107 0.99624 0.79899 -0.09600
C 	C 	0.26092 0.00187 0.83252 0.10500
Br	Br	0.17472 0.98737 0.85910 -0.14000
Br	Br	0.34836 0.02291 0.89222 -0.17700
Br	Br	0.29080 0.94913 0.73676 -0.16200
Br	Br	0.47152 0.03228 0.76701 -0.17500
C 	C 	0.74218 0.65714 0.84015 0.10500
C 	C 	0.77807 0.59625 0.84784 -0.11100
C 	C 	0.85414 0.61373 0.83876 0.10400
C 	C 	0.89269 0.68976 0.82096 0.09500
C 	C 	0.85746 0.75186 0.81414 -0.10200
C 	C 	0.78326 0.73706 0.82494 0.10200
Br	Br	0.74001 0.82886 0.82099 -0.17000
Br	Br	0.63566 0.62919 0.84918 -0.19700
Br	Br	0.99268 0.70695 0.80489 -0.18100
Br	Br	0.90707 0.53633 0.85194 -0.16500
