data_crystal

_cell_length_a 20.50611
_cell_length_b 17.89340
_cell_length_c 22.19027
_cell_angle_alpha 90.00000
_cell_angle_beta  90.00000
_cell_angle_gamma 90.05307

_symmetry_space_group_name_	'P 1'
_symmetry_space_group_name_H-M	'P 1'

loop_
_symmetry_equiv_pos_as_xyz
  x,y,z

loop_
_atom_site_label
_atom_site_type_symbol
_atom_site_fract_x
_atom_site_fract_y
_atom_site_fract_z
_atom_site_charge
Co	Co	0.94013 0.89083 0.00993 1.10900
Co	Co	0.10212 0.04446 0.00682 1.13000
Co	Co	0.09914 0.88657 0.00803 1.12300
Co	Co	0.94297 0.04974 0.00514 1.11300
C 	C 	0.84187 0.86925 0.10483 0.27800
Co	Co	0.79885 0.97020 0.00544 1.10000
Co	Co	0.24254 0.96243 0.99776 1.20700
C 	C 	0.83601 0.09236 0.91815 0.26000
O 	O 	0.24725 0.88129 0.93105 -0.34900
O 	O 	0.13963 0.96481 0.99111 -0.69800
C 	C 	0.19609 0.84247 0.91321 0.25600
O 	O 	0.01823 0.82321 0.01877 -0.50900
O 	O 	0.02424 0.11234 0.01580 -0.50600
C 	C 	0.20069 0.08290 0.91196 0.25900
O 	O 	0.02081 0.96697 0.97673 -0.48300
C 	C 	0.19752 0.87315 0.10620 0.27700
C 	C 	0.84100 0.85537 0.91350 0.25300
C 	C 	0.84370 0.08335 0.09798 0.26400
O 	O 	0.15353 0.81729 0.95288 -0.32000
O 	O 	0.79547 0.90457 0.92796 -0.33800
O 	O 	0.87989 0.82682 0.95510 -0.32300
O 	O 	0.25025 0.04177 0.93008 -0.34500
O 	O 	0.15903 0.11028 0.95143 -0.32200
O 	O 	0.24189 0.87842 0.06337 -0.45100
O 	O 	0.13529 0.88467 0.09449 -0.42100
O 	O 	0.79566 0.03885 0.08138 -0.40200
O 	O 	0.90470 0.06325 0.08994 -0.42600
O 	O 	0.90166 0.97038 0.99533 -0.68500
C 	C 	0.20101 0.05629 0.10523 0.27700
O 	O 	0.24540 0.04744 0.06271 -0.44300
O 	O 	0.13846 0.04698 0.09357 -0.41000
O 	O 	0.79985 0.87583 0.06028 -0.43800
O 	O 	0.90381 0.88501 0.09606 -0.43000
O 	O 	0.78953 0.06601 0.95324 -0.32700
O 	O 	0.89341 0.11083 0.94091 -0.33800
Co	Co	0.59600 0.55011 0.49630 1.18500
Co	Co	0.43920 0.38991 0.49531 1.18600
Co	Co	0.43654 0.54720 0.49180 1.18400
Co	Co	0.59848 0.39286 0.50329 1.18400
C 	C 	0.68708 0.59854 0.59424 0.26900
Co	Co	0.73875 0.47629 0.51409 1.16400
Co	Co	0.29577 0.46531 0.50192 1.16600
C 	C 	0.70330 0.36305 0.41565 0.27600
O 	O 	0.29386 0.54757 0.43510 -0.39200
O 	O 	0.39850 0.46785 0.50975 -0.77800
C 	C 	0.33863 0.55448 0.39273 0.27400
O 	O 	0.51601 0.61256 0.47956 -0.47600
O 	O 	0.52023 0.32656 0.48801 -0.47500
C 	C 	0.34204 0.37218 0.39656 0.27400
O 	O 	0.51611 0.47168 0.52775 -0.57600
C 	C 	0.33738 0.58955 0.58485 0.26600
C 	C 	0.69956 0.56212 0.40271 0.27600
C 	C 	0.71059 0.33118 0.57803 0.26500
O 	O 	0.40098 0.54485 0.40503 -0.40200
O 	O 	0.74107 0.55972 0.44807 -0.39500
O 	O 	0.63708 0.54856 0.41135 -0.39900
O 	O 	0.29738 0.37855 0.43908 -0.39200
O 	O 	0.40427 0.38369 0.40852 -0.39900
O 	O 	0.28772 0.54797 0.56740 -0.37300
O 	O 	0.37937 0.61560 0.54501 -0.38000
O 	O 	0.74284 0.39500 0.58050 -0.38200
O 	O 	0.64695 0.33038 0.56796 -0.38000
O 	O 	0.63561 0.47355 0.51740 -0.77500
C 	C 	0.34088 0.34809 0.58993 0.26600
O 	O 	0.29042 0.38762 0.57151 -0.37300
O 	O 	0.38350 0.32199 0.55076 -0.37800
O 	O 	0.73829 0.55700 0.58122 -0.37700
O 	O 	0.64771 0.62193 0.55122 -0.38200
O 	O 	0.75015 0.39228 0.44899 -0.39800
O 	O 	0.64260 0.38541 0.42094 -0.41100
C 	C 	0.22134 0.16585 0.23693 0.08000
C 	C 	0.20658 0.23707 0.25964 -0.08500
C 	C 	0.25842 0.28585 0.27216 0.01200
C 	C 	0.32284 0.26372 0.26418 0.07100
C 	C 	0.33761 0.19259 0.24126 -0.08300
C 	C 	0.28575 0.14380 0.22870 0.01000
N 	N 	0.18204 0.12921 0.19832 -0.14900
C 	C 	0.22092 0.08453 0.16481 -0.00200
C 	C 	0.28575 0.09204 0.18242 -0.04200
N 	N 	0.36194 0.30006 0.30320 -0.15100
C 	C 	0.32289 0.34479 0.33653 0.00100
C 	C 	0.25821 0.33758 0.31840 -0.04500
H 	H 	0.15649 0.25427 0.26644 0.05700
H 	H 	0.38771 0.17539 0.23446 0.04800
H 	H 	0.32721 0.08105 0.15347 0.03800
H 	H 	0.21655 0.34872 0.34706 0.05100
H 	H 	0.13667 0.14915 0.18404 0.09100
H 	H 	0.40709 0.27983 0.31782 0.08800
C 	C 	0.32533 0.22536 0.71413 0.08100
C 	C 	0.30448 0.15263 0.72783 -0.07900
C 	C 	0.24916 0.14413 0.76430 0.01700
C 	C 	0.21681 0.20588 0.78788 0.08600
C 	C 	0.23772 0.27860 0.77426 -0.08000
C 	C 	0.29307 0.28714 0.73780 0.02000
N 	N 	0.35377 0.24319 0.66138 -0.15100
C 	C 	0.33925 0.31567 0.65074 0.00400
C 	C 	0.30173 0.34492 0.69730 -0.04500
N 	N 	0.18829 0.18801 0.84058 -0.15200
C 	C 	0.20280 0.11552 0.85122 0.01700
C 	C 	0.24045 0.08630 0.80473 -0.04700
H 	H 	0.32979 0.10441 0.70988 0.05900
H 	H 	0.21240 0.32681 0.79221 0.06700
H 	H 	0.26857 0.39166 0.69244 0.05400
H 	H 	0.27362 0.03958 0.80963 0.05800
H 	H 	0.36479 0.20439 0.62764 0.09600
H 	H 	0.17715 0.22679 0.87430 0.11400
C 	C 	0.28031 0.78439 0.22617 0.07200
C 	C 	0.33279 0.73562 0.23603 -0.08400
C 	C 	0.31927 0.66400 0.25844 0.00500
C 	C 	0.25585 0.64246 0.27236 0.07600
C 	C 	0.20337 0.69122 0.26247 -0.08500
C 	C 	0.21688 0.76290 0.24016 0.01300
N 	N 	0.27995 0.83517 0.18148 -0.15000
C 	C 	0.21679 0.84574 0.16611 -0.00900
C 	C 	0.17614 0.80197 0.20182 -0.04000
N 	N 	0.25624 0.59183 0.31718 -0.15200
C 	C 	0.31940 0.58142 0.33266 -0.00100
C 	C 	0.36004 0.62511 0.29686 -0.04400
H 	H 	0.38229 0.75242 0.22563 0.04400
H 	H 	0.15387 0.67441 0.27287 0.05600
H 	H 	0.12830 0.78262 0.18805 0.04900
H 	H 	0.40784 0.64459 0.31062 0.04700
H 	H 	0.31943 0.84509 0.15273 0.07400
H 	H 	0.21674 0.58198 0.34593 0.09000
C 	C 	0.76879 0.21835 0.19239 0.06800
C 	C 	0.71231 0.23072 0.22664 -0.08300
C 	C 	0.71891 0.23695 0.28926 0.01000
C 	C 	0.77988 0.23367 0.31669 0.07500
C 	C 	0.83642 0.22212 0.28241 -0.08400
C 	C 	0.82987 0.21565 0.21976 0.00600
N 	N 	0.76881 0.17730 0.14162 -0.15300
C 	C 	0.82926 0.14795 0.13654 -0.01600
C 	C 	0.86866 0.17051 0.18412 -0.04700
N 	N 	0.77965 0.27336 0.36814 -0.15100
C 	C 	0.71914 0.30244 0.37348 -0.00800
C 	C 	0.67989 0.28123 0.32539 -0.04300
H 	H 	0.66482 0.23362 0.20540 0.04400
H 	H 	0.88388 0.21921 0.30369 0.04600
H 	H 	0.91025 0.13922 0.20054 0.04400
H 	H 	0.63817 0.31268 0.30947 0.04700
H 	H 	0.72699 0.15438 0.12194 0.07400
H 	H 	0.82137 0.29575 0.38838 0.08500
C 	C 	0.81116 0.72758 0.79510 0.08100
C 	C 	0.77816 0.66037 0.78377 -0.08200
C 	C 	0.72587 0.66139 0.74306 0.02100
C 	C 	0.70813 0.72678 0.71336 0.07800
C 	C 	0.74043 0.79431 0.72550 -0.08100
C 	C 	0.79289 0.79315 0.76603 0.01200
N 	N 	0.83875 0.74332 0.84864 -0.15300
C 	C 	0.83735 0.81848 0.85449 0.01000
C 	C 	0.80912 0.85144 0.80406 -0.05200
N 	N 	0.68272 0.71058 0.65893 -0.15000
C 	C 	0.68466 0.63536 0.65333 0.00200
C 	C 	0.71082 0.60296 0.70489 -0.04500
H 	H 	0.79236 0.60916 0.80625 0.06400
H 	H 	0.72625 0.84554 0.70307 0.05300
H 	H 	0.78504 0.90534 0.80419 0.05000
H 	H 	0.73510 0.54918 0.70569 0.05600
H 	H 	0.84009 0.70615 0.88499 0.10800
H 	H 	0.68292 0.74752 0.62240 0.09100
C 	C 	0.81832 0.19654 0.78186 0.08100
C 	C 	0.84426 0.21941 0.72644 -0.08300
C 	C 	0.80483 0.21270 0.67497 0.01100
C 	C 	0.74211 0.18273 0.67867 0.07900
C 	C 	0.71776 0.15629 0.73386 -0.08300
C 	C 	0.75590 0.16668 0.78547 0.01900
N 	N 	0.85514 0.17209 0.82804 -0.15000
C 	C 	0.81672 0.12552 0.86026 0.01300
C 	C 	0.75451 0.12131 0.83578 -0.03900
N 	N 	0.70333 0.21415 0.63683 -0.15100
C 	C 	0.73996 0.26522 0.60721 0.00500
C 	C 	0.80357 0.26502 0.62915 -0.04600
H 	H 	0.89278 0.24316 0.72362 0.05200
H 	H 	0.66933 0.13236 0.73691 0.06100
H 	H 	0.72040 0.07596 0.84324 0.05800
H 	H 	0.83653 0.31228 0.62645 0.04700
H 	H 	0.90612 0.17155 0.82861 0.09100
H 	H 	0.65254 0.21682 0.64048 0.09700
C 	C 	0.31832 0.71204 0.70895 0.08000
C 	C 	0.29276 0.78242 0.72365 -0.07900
C 	C 	0.23951 0.78542 0.76322 0.01500
C 	C 	0.21364 0.72074 0.78857 0.08700
C 	C 	0.23920 0.65037 0.77384 -0.08100
C 	C 	0.29261 0.64737 0.73444 0.02100
N 	N 	0.34495 0.69673 0.65487 -0.15000
C 	C 	0.33584 0.62284 0.64535 0.00300
C 	C 	0.30348 0.59027 0.69378 -0.04500
N 	N 	0.18721 0.73599 0.84273 -0.15100
C 	C 	0.19662 0.80980 0.85248 0.01600
C 	C 	0.22895 0.84241 0.80405 -0.04800
H 	H 	0.31301 0.83294 0.70430 0.05500
H 	H 	0.21894 0.59985 0.79319 0.06700
H 	H 	0.27403 0.54009 0.69074 0.05400
H 	H 	0.25866 0.89238 0.80718 0.05200
H 	H 	0.35078 0.73609 0.62044 0.09400
H 	H 	0.18134 0.69652 0.87707 0.11400
C 	C 	0.81947 0.76607 0.23982 0.07100
C 	C 	0.83705 0.69842 0.26738 -0.08600
C 	C 	0.78759 0.64639 0.27973 0.00500
C 	C 	0.72271 0.66182 0.26633 0.07100
C 	C 	0.70519 0.72946 0.23874 -0.08600
C 	C 	0.75454 0.78175 0.22686 0.00700
N 	N 	0.85903 0.80310 0.20162 -0.15000
C 	C 	0.81976 0.84193 0.16399 -0.01200
C 	C 	0.75451 0.83002 0.17826 -0.04400
N 	N 	0.68306 0.62519 0.30466 -0.15100
C 	C 	0.72209 0.58718 0.34301 -0.00200
C 	C 	0.78744 0.59895 0.32891 -0.04600
H 	H 	0.88748 0.68635 0.27810 0.04300
H 	H 	0.65476 0.74154 0.22799 0.04500
H 	H 	0.71458 0.83539 0.14658 0.03400
H 	H 	0.82718 0.59433 0.36088 0.04300
H 	H 	0.90640 0.78614 0.19082 0.07500
H 	H 	0.63555 0.64215 0.31496 0.08600
