data_crystal

_cell_length_a 39.55269
_cell_length_b 38.29854
_cell_length_c 22.44716
_cell_angle_alpha 89.96157
_cell_angle_beta  89.93909
_cell_angle_gamma 87.38765

_symmetry_space_group_name_	'P 1'
_symmetry_space_group_name_H-M	'P 1'

loop_
_symmetry_equiv_pos_as_xyz
  x,y,z

loop_
_atom_site_label
_atom_site_type_symbol
_atom_site_fract_x
_atom_site_fract_y
_atom_site_fract_z
_atom_site_charge
C 	C 	0.44284 0.55558 0.04204 -0.03800
C 	C 	0.47364 0.57184 0.03910 -0.03900
C 	C 	0.44185 0.51883 0.04186 0.00900
C 	C 	0.47255 0.49836 0.03983 -0.00400
C 	C 	0.50382 0.51486 0.03645 -0.00500
C 	C 	0.50437 0.55185 0.03576 0.01000
C 	C 	0.47201 0.46138 0.04084 0.00900
C 	C 	0.50279 0.44140 0.03946 -0.03800
C 	C 	0.53450 0.49437 0.03374 0.00900
C 	C 	0.53579 0.56810 0.03189 -0.00700
C 	C 	0.56589 0.54760 0.02849 -0.04400
C 	C 	0.56560 0.51109 0.02897 -0.00700
C 	C 	0.41068 0.50209 0.04390 -0.00700
C 	C 	0.41040 0.46560 0.04545 -0.04400
C 	C 	0.44056 0.44512 0.04339 -0.00700
C 	C 	0.53776 0.60657 0.03088 0.01800
C 	C 	0.53586 0.62460 0.97646 -0.04500
C 	C 	0.54339 0.65991 0.97389 -0.03500
C 	C 	0.55305 0.67737 0.02566 0.00400
C 	C 	0.55365 0.65969 0.08046 -0.03300
C 	C 	0.54601 0.62443 0.08305 -0.04300
C 	C 	0.59809 0.49087 0.02268 0.01800
C 	C 	0.62077 0.48867 0.07064 -0.04300
C 	C 	0.65374 0.47488 0.06211 -0.03400
C 	C 	0.60801 0.47749 0.96688 -0.04500
C 	C 	0.64087 0.46340 0.95845 -0.03600
C 	C 	0.66421 0.46305 0.00556 0.00600
C 	C 	0.37801 0.52224 0.04139 0.01800
C 	C 	0.36020 0.53018 0.09407 -0.04200
C 	C 	0.32725 0.54489 0.09143 -0.03400
C 	C 	0.31181 0.55155 0.03604 0.00700
C 	C 	0.33016 0.54486 0.98340 -0.03600
C 	C 	0.36314 0.53026 0.98610 -0.04400
C 	C 	0.43857 0.40667 0.04171 0.01800
C 	C 	0.43321 0.38979 0.98732 -0.04400
C 	C 	0.42619 0.35434 0.98638 -0.03500
C 	C 	0.42453 0.33550 0.03985 0.00400
C 	C 	0.43114 0.35205 0.09408 -0.03300
C 	C 	0.43803 0.38756 0.09502 -0.04300
C 	C 	0.53358 0.45765 0.03626 -0.03800
H 	H 	0.52958 0.61098 0.93595 0.04600
H 	H 	0.54270 0.67339 0.93143 0.04500
H 	H 	0.56080 0.67305 0.12074 0.04700
H 	H 	0.54757 0.61069 0.12523 0.04700
H 	H 	0.31849 0.54994 0.94043 0.04600
H 	H 	0.37678 0.52421 0.94523 0.04700
H 	H 	0.31340 0.55029 0.13232 0.04800
H 	H 	0.37158 0.52412 0.13694 0.04800
H 	H 	0.43353 0.40439 0.94597 0.04700
H 	H 	0.42132 0.34171 0.94428 0.04700
H 	H 	0.44207 0.40042 0.13722 0.04700
H 	H 	0.43005 0.33766 0.13555 0.04700
H 	H 	0.61325 0.49886 0.11391 0.04600
H 	H 	0.67151 0.47467 0.09882 0.04400
H 	H 	0.59057 0.47898 0.92968 0.04600
H 	H 	0.64857 0.45387 0.91483 0.04400
H 	H 	0.41975 0.57180 0.04480 0.04600
H 	H 	0.47340 0.60011 0.03953 0.04600
H 	H 	0.58983 0.56021 0.02489 0.04800
H 	H 	0.55673 0.44145 0.03610 0.04500
H 	H 	0.50309 0.41314 0.04111 0.04500
H 	H 	0.38640 0.45298 0.04700 0.05000
Zn	Zn	0.35680 0.13246 0.02655 1.22400
C 	C 	0.29770 0.09470 0.99397 0.31800
O 	O 	0.37129 0.11430 0.10532 -0.43400
O 	O 	0.31900 0.07068 0.97197 -0.44300
O 	O 	0.34400 0.06398 0.09611 -0.48700
C 	C 	0.38903 0.09854 0.92707 0.35100
O 	O 	0.36610 0.12267 0.94258 -0.42900
O 	O 	0.39604 0.07209 0.96285 -0.49900
C 	C 	0.35779 0.08718 0.13013 0.33700
O 	O 	0.40477 0.16713 0.02552 -0.29300
Zn	Zn	0.36221 0.05469 0.01713 1.17600
O 	O 	0.30898 0.11992 0.02742 -0.42400
C 	C 	0.38331 0.19315 0.03523 0.29000
O 	O 	0.35190 0.18519 0.03905 -0.36400
C 	C 	0.48773 0.03489 0.46725 0.01800
C 	C 	0.51607 0.01049 0.46693 0.01900
C 	C 	0.48021 0.05469 0.51869 -0.05000
C 	C 	0.50107 0.05100 0.56927 0.02000
C 	C 	0.53652 0.00646 0.51769 -0.05400
C 	C 	0.52950 0.02682 0.56856 0.02200
H 	H 	0.55891 0.98910 0.51640 0.06100
H 	H 	0.45951 0.07421 0.51823 0.05800
C 	C 	0.55176 0.02581 0.61761 -0.01800
C 	C 	0.54534 0.04625 0.66846 0.02000
C 	C 	0.56234 0.03286 0.72009 -0.05300
C 	C 	0.58176 0.00205 0.70895 0.02900
S 	S 	0.57638 0.99128 0.63774 0.04000
H 	H 	0.55795 0.04293 0.76456 0.05500
C 	C 	0.49607 0.07297 0.61937 -0.01200
C 	C 	0.51722 0.06995 0.66948 0.01600
C 	C 	0.50170 0.08342 0.72243 -0.04400
C 	C 	0.46846 0.09643 0.71348 0.02100
S 	S 	0.45868 0.09013 0.64201 0.03400
H 	H 	0.51246 0.07981 0.76639 0.05600
C 	C 	0.47672 0.02057 0.36265 0.01400
C 	C 	0.46954 0.04069 0.41356 -0.01300
S 	S 	0.42972 0.05684 0.40781 0.01800
C 	C 	0.42064 0.03938 0.34155 0.03400
C 	C 	0.44939 0.02003 0.32190 -0.04700
C 	C 	0.52472 0.99316 0.41319 -0.01300
C 	C 	0.50453 0.99677 0.36258 0.01700
C 	C 	0.51051 0.96974 0.32016 -0.04700
C 	C 	0.53546 0.94472 0.33831 0.03500
S 	S 	0.54881 0.95656 0.40602 0.01800
H 	H 	0.49971 0.97026 0.27586 0.06500
H 	H 	0.45109 0.00775 0.27852 0.06300
Zn	Zn	0.62615 0.87835 0.01689 1.22300
C 	C 	0.68805 0.91363 0.03940 0.31700
O 	O 	0.62241 0.88551 0.10359 -0.43200
O 	O 	0.66894 0.93619 0.06993 -0.42200
O 	O 	0.59391 0.93806 0.09345 -0.48800
C 	C 	0.61849 0.92788 0.91952 0.34500
O 	O 	0.60754 0.89906 0.94310 -0.43600
O 	O 	0.63554 0.94936 0.95193 -0.49100
C 	C 	0.60261 0.91063 0.12581 0.35900
O 	O 	0.57717 0.84519 0.02030 -0.30600
Zn	Zn	0.62431 0.95661 0.03475 1.18200
O 	O 	0.67387 0.89002 0.00620 -0.42700
C 	C 	0.59799 0.81830 0.01334 0.28000
O 	O 	0.62966 0.82523 0.00916 -0.37500
Zn	Zn	0.10912 0.61262 0.98373 1.22200
C 	C 	0.06501 0.67443 0.97812 0.31600
O 	O 	0.09309 0.61595 0.06633 -0.44300
O 	O 	0.04218 0.65614 0.00498 -0.42600
O 	O 	0.04809 0.58214 0.05169 -0.46900
C 	C 	0.07454 0.59021 0.87798 0.34000
O 	O 	0.10080 0.58450 0.91296 -0.45700
O 	O 	0.04862 0.60974 0.89660 -0.45800
C 	C 	0.07136 0.59409 0.08698 0.35500
O 	O 	0.14765 0.56686 0.01284 -0.31600
Zn	Zn	0.03363 0.60595 0.97860 1.18500
O 	O 	0.09214 0.65863 0.95487 -0.43000
C 	C 	0.17047 0.58996 0.00752 0.28200
O 	O 	0.15948 0.62076 0.99077 -0.38100
C 	C 	0.02078 0.43626 0.42176 0.01800
C 	C 	0.04786 0.45942 0.42369 0.01700
C 	C 	0.00637 0.42467 0.47504 -0.05100
C 	C 	0.02009 0.43409 0.53013 0.01700
C 	C 	0.05961 0.47122 0.47885 -0.05200
C 	C 	0.04667 0.45785 0.53208 0.01900
H 	H 	0.08080 0.48818 0.48032 0.06100
H 	H 	0.98669 0.40590 0.47351 0.06100
C 	C 	0.06257 0.46398 0.58705 -0.01700
C 	C 	0.05283 0.44729 0.63959 0.01800
C 	C 	0.06228 0.46538 0.69196 -0.05600
C 	C 	0.07794 0.49673 0.68008 0.03200
S 	S 	0.07954 0.50146 0.60619 0.03800
H 	H 	0.05459 0.45817 0.73637 0.05800
C 	C 	0.01086 0.41712 0.58310 -0.01300
C 	C 	0.02661 0.42376 0.63762 0.01600
C 	C 	0.00648 0.41516 0.68774 -0.05200
C 	C 	0.97495 0.40279 0.67209 0.03500
S 	S 	0.97228 0.40347 0.59790 0.02600
H 	H 	0.01266 0.42183 0.73312 0.05900
C 	C 	0.02905 0.42948 0.31382 0.01800
C 	C 	0.01190 0.42169 0.36658 -0.01700
S 	S 	0.97304 0.41035 0.34817 0.03800
C 	C 	0.97729 0.41188 0.27421 0.03200
C 	C 	0.00970 0.42328 0.26174 -0.05600
C 	C 	0.06524 0.46660 0.37046 -0.01400
C 	C 	0.05597 0.45216 0.31579 0.01600
C 	C 	0.06717 0.47151 0.26589 -0.05300
C 	C 	0.08415 0.50139 0.28186 0.03500
S 	S 	0.08437 0.50362 0.35613 0.02700
H 	H 	0.05950 0.46664 0.22055 0.06000
H 	H 	0.01742 0.43041 0.21731 0.05800
Zn	Zn	0.86727 0.39037 0.96962 1.22200
C 	C 	0.80753 0.43580 0.97567 0.31700
O 	O 	0.86323 0.40640 0.88697 -0.44700
O 	O 	0.82520 0.45943 0.94872 -0.43200
O 	O 	0.89672 0.45239 0.89965 -0.46800
C 	C 	0.88922 0.42603 0.07507 0.34300
O 	O 	0.89500 0.39932 0.03931 -0.45800
O 	O 	0.87148 0.45361 0.05630 -0.45700
C 	C 	0.88484 0.42805 0.86531 0.35300
O 	O 	0.91152 0.35074 0.94003 -0.31700
Zn	Zn	0.87430 0.46783 0.97331 1.18400
O 	O 	0.82305 0.40806 0.99942 -0.43500
C 	C 	0.88947 0.32698 0.94668 0.28100
O 	O 	0.85972 0.33820 0.96417 -0.37900
C 	C 	0.92878 0.01656 0.98570 -0.03900
C 	C 	0.94262 0.04925 0.98039 -0.03800
C 	C 	0.94961 0.98576 0.98290 0.00900
C 	C 	0.98499 0.98826 0.97536 -0.00400
C 	C 	0.99912 0.02149 0.97142 -0.00500
C 	C 	0.97775 0.05214 0.97272 0.00800
C 	C 	0.00625 0.95758 0.97174 0.00900
C 	C 	0.04141 0.96052 0.96450 -0.03800
C 	C 	0.03461 0.02403 0.96615 0.00700
C 	C 	0.99204 0.08520 0.96690 -0.00600
C 	C 	0.02719 0.08752 0.96384 -0.04500
C 	C 	0.04860 0.05743 0.96460 -0.00600
C 	C 	0.93577 0.95238 0.98754 -0.00600
C 	C 	0.95695 0.92226 0.98347 -0.04500
C 	C 	0.99185 0.92447 0.97533 -0.00600
C 	C 	0.97058 0.11764 0.96276 0.01300
C 	C 	0.95741 0.12861 0.90751 -0.04200
C 	C 	0.94026 0.16118 0.90222 -0.03200
C 	C 	0.93632 0.18305 0.95212 -0.00100
C 	C 	0.94851 0.17152 0.00779 -0.03000
C 	C 	0.96561 0.13894 0.01305 -0.04000
C 	C 	0.08559 0.06145 0.96625 0.01300
C 	C 	0.10329 0.05689 0.02001 -0.04000
C 	C 	0.13780 0.06316 0.02266 -0.03100
C 	C 	0.10263 0.07233 0.91513 -0.04300
C 	C 	0.13708 0.07886 0.91785 -0.03200
C 	C 	0.15480 0.07445 0.97170 -0.00200
C 	C 	0.89918 0.94844 0.99724 0.01200
C 	C 	0.88680 0.94322 0.05497 -0.03900
C 	C 	0.85269 0.93659 0.06381 -0.03400
C 	C 	0.83068 0.93519 0.01492 0.00300
C 	C 	0.84304 0.94079 0.95719 -0.03600
C 	C 	0.87719 0.94724 0.94839 -0.04100
C 	C 	0.01282 0.89176 0.97034 0.01300
C 	C 	0.01568 0.87454 0.91534 -0.04300
C 	C 	0.02939 0.84031 0.91253 -0.03200
C 	C 	0.04029 0.82310 0.96474 -0.00400
C 	C 	0.03970 0.84124 0.01903 -0.02900
C 	C 	0.02591 0.87544 0.02184 -0.04100
C 	C 	0.05538 0.99326 0.96172 -0.03700
H 	H 	0.96110 0.11223 0.86851 0.04700
H 	H 	0.93073 0.16976 0.85915 0.04700
H 	H 	0.94561 0.18823 0.04655 0.04700
H 	H 	0.97569 0.13059 0.05587 0.04700
H 	H 	0.82619 0.94010 0.91922 0.04500
H 	H 	0.88663 0.95107 0.90364 0.04600
H 	H 	0.84342 0.93227 0.10852 0.04600
H 	H 	0.90370 0.94386 0.09286 0.04600
H 	H 	0.00587 0.88710 0.87528 0.04600
H 	H 	0.03005 0.82659 0.87032 0.04400
H 	H 	0.02401 0.88870 0.06442 0.04700
H 	H 	0.04828 0.82822 0.05950 0.04500
H 	H 	0.09025 0.04870 0.05976 0.04700
H 	H 	0.15130 0.05934 0.06429 0.04400
H 	H 	0.08907 0.07613 0.87355 0.04600
H 	H 	0.14994 0.08762 0.87829 0.04500
H 	H 	0.90171 0.01539 0.99192 0.04500
H 	H 	0.92584 0.07233 0.98294 0.04500
H 	H 	0.03800 0.11301 0.96116 0.04900
H 	H 	0.08243 0.99451 0.95534 0.04500
H 	H 	0.05816 0.93746 0.96094 0.04500
H 	H 	0.94615 0.89677 0.98664 0.04800
C 	C 	0.88132 0.26498 0.97566 0.01400
C 	C 	0.89908 0.28945 0.94278 -0.06900
C 	C 	0.92740 0.27817 0.90897 0.01600
C 	C 	0.93881 0.24313 0.91032 -0.05600
C 	C 	0.92195 0.21900 0.94526 0.03000
C 	C 	0.89276 0.22991 0.97695 -0.06100
H 	H 	0.85929 0.27327 0.00161 0.05000
H 	H 	0.94091 0.29666 0.88247 0.05800
H 	H 	0.96128 0.23489 0.88547 0.05800
H 	H 	0.87940 0.21138 0.00361 0.05500
C 	C 	0.94521 0.40775 0.71099 0.00100
C 	C 	0.93420 0.37980 0.74549 0.13700
C 	C 	0.91184 0.38630 0.79294 -0.02200
C 	C 	0.90083 0.42069 0.80700 -0.11800
C 	C 	0.90910 0.44818 0.76864 0.20800
C 	C 	0.93131 0.44161 0.72097 -0.10000
H 	H 	0.90445 0.36479 0.82071 0.07400
H 	H 	0.93895 0.46309 0.69330 0.08800
Cl	Cl	0.94956 0.33669 0.73157 -0.31500
Cl	Cl	0.89147 0.49080 0.77923 -0.32700
C 	C 	0.94842 0.41820 0.23347 0.00200
C 	C 	0.92830 0.39055 0.21648 0.13600
C 	C 	0.90641 0.39459 0.16775 -0.01800
C 	C 	0.90500 0.42578 0.13468 -0.11900
C 	C 	0.92315 0.45444 0.15482 0.20600
C 	C 	0.94403 0.45070 0.20488 -0.10200
H 	H 	0.89182 0.37279 0.15364 0.07300
H 	H 	0.95851 0.47252 0.21930 0.08800
Cl	Cl	0.93178 0.34997 0.25345 -0.31100
Cl	Cl	0.92237 0.49426 0.11528 -0.36100
C 	C 	0.08020 0.77102 0.97315 -0.06500
C 	C 	0.04721 0.78504 0.96418 0.03400
C 	C 	0.02040 0.76265 0.95768 -0.06600
C 	C 	0.02634 0.72652 0.96132 0.02600
C 	C 	0.05921 0.71241 0.97129 -0.08800
C 	C 	0.08622 0.73478 0.97641 0.02500
H 	H 	0.10104 0.78817 0.97825 0.05400
H 	H 	0.99485 0.77331 0.95078 0.05300
H 	H 	0.00537 0.70949 0.95658 0.03200
H 	H 	0.11170 0.72417 0.98416 0.04100
C 	C 	0.07335 0.57229 0.81968 -0.11900
C 	C 	0.04349 0.55699 0.79975 0.20500
C 	C 	0.04463 0.53529 0.74968 -0.10200
C 	C 	0.07554 0.52669 0.72135 0.00200
C 	C 	0.10477 0.54362 0.73865 0.13600
C 	C 	0.10346 0.56667 0.78706 -0.01900
H 	H 	0.02177 0.52327 0.73507 0.08800
H 	H 	0.12626 0.57903 0.80098 0.07500
Cl	Cl	0.00514 0.56197 0.83963 -0.36800
Cl	Cl	0.14366 0.53478 0.70214 -0.30900
C 	C 	0.07665 0.57830 0.14624 -0.11800
C 	C 	0.04906 0.57385 0.18480 0.20800
C 	C 	0.05261 0.55109 0.23338 -0.10000
C 	C 	0.08350 0.53260 0.24371 0.00100
C 	C 	0.11196 0.54005 0.20916 0.13700
C 	C 	0.10851 0.56306 0.16087 -0.02200
H 	H 	0.03085 0.54628 0.26112 0.08800
H 	H 	0.13018 0.56746 0.13274 0.07400
Cl	Cl	0.00990 0.59646 0.17253 -0.32600
Cl	Cl	0.15168 0.51921 0.22389 -0.31300
C 	C 	0.73975 0.94557 0.06607 0.02200
C 	C 	0.72516 0.91731 0.03730 -0.08600
C 	C 	0.74587 0.89390 0.00363 0.02900
C 	C 	0.78041 0.89943 0.99715 -0.07000
C 	C 	0.79461 0.92834 0.02424 0.03500
C 	C 	0.77422 0.95111 0.05931 -0.06500
H 	H 	0.72431 0.96367 0.09274 0.04500
H 	H 	0.73522 0.87171 0.98186 0.04300
H 	H 	0.79606 0.88141 0.97067 0.05400
H 	H 	0.78498 0.97343 0.08059 0.05300
C 	C 	0.59078 0.97626 0.75555 0.00400
C 	C 	0.62493 0.96683 0.76710 0.13300
C 	C 	0.63366 0.94776 0.81842 -0.02000
C 	C 	0.60856 0.93819 0.85870 -0.12300
C 	C 	0.57418 0.94498 0.84435 0.20100
C 	C 	0.56548 0.96377 0.79272 -0.10300
H 	H 	0.66011 0.94200 0.82864 0.07100
H 	H 	0.53906 0.97006 0.78294 0.09400
Cl	Cl	0.65719 0.98052 0.71948 -0.31400
Cl	Cl	0.54181 0.93241 0.89277 -0.33500
C 	C 	0.55782 0.92642 0.29471 0.00200
C 	C 	0.54454 0.90184 0.25551 0.13400
C 	C 	0.56147 0.89348 0.20225 -0.01800
C 	C 	0.59171 0.90930 0.18812 -0.12100
C 	C 	0.60722 0.93002 0.23095 0.20500
C 	C 	0.59023 0.93860 0.28396 -0.10100
H 	H 	0.55001 0.87647 0.17021 0.07200
H 	H 	0.60120 0.95670 0.31471 0.08600
Cl	Cl	0.50581 0.88282 0.27119 -0.30500
Cl	Cl	0.64702 0.94720 0.21700 -0.34000
C 	C 	0.23750 0.11122 0.02017 0.02400
C 	C 	0.26089 0.09179 0.98474 -0.09000
C 	C 	0.24901 0.06798 0.94283 0.02000
C 	C 	0.21439 0.06268 0.93808 -0.06500
C 	C 	0.19120 0.08137 0.97465 0.03000
C 	C 	0.20285 0.10606 0.01504 -0.06100
H 	H 	0.24615 0.12982 0.05246 0.04900
H 	H 	0.26661 0.05320 0.91449 0.04000
H 	H 	0.20564 0.04367 0.90660 0.05100
H 	H 	0.18509 0.12095 0.04293 0.05500
C 	C 	0.40498 0.09936 0.86752 -0.12000
C 	C 	0.41732 0.13056 0.84393 0.20600
C 	C 	0.43600 0.12959 0.79089 -0.10300
C 	C 	0.44311 0.09784 0.76154 0.00400
C 	C 	0.42956 0.06698 0.78357 0.13100
C 	C 	0.41033 0.06796 0.83591 -0.01900
H 	H 	0.44630 0.15340 0.77390 0.08700
H 	H 	0.40032 0.04404 0.85296 0.06100
Cl	Cl	0.41147 0.17068 0.88173 -0.32300
Cl	Cl	0.43766 0.02660 0.74747 -0.31700
C 	C 	0.36446 0.07880 0.19391 -0.11800
C 	C 	0.38039 0.10251 0.23188 0.20300
C 	C 	0.39663 0.09014 0.28370 -0.10000
C 	C 	0.39538 0.05480 0.29987 0.00000
C 	C 	0.37447 0.03290 0.26764 0.13200
C 	C 	0.35919 0.04485 0.21486 -0.03000
H 	H 	0.41115 0.10774 0.31019 0.08600
H 	H 	0.34465 0.02711 0.18870 0.06900
Cl	Cl	0.37767 0.14790 0.21840 -0.31400
Cl	Cl	0.36858 0.98978 0.29149 -0.30900
C 	C 	0.43774 0.27146 0.04949 -0.05600
C 	C 	0.41397 0.29909 0.03932 0.03000
C 	C 	0.38005 0.29197 0.02849 -0.05600
C 	C 	0.36996 0.25745 0.02764 0.01800
C 	C 	0.39377 0.22967 0.03738 -0.05800
C 	C 	0.42773 0.23689 0.04840 0.01900
H 	H 	0.46398 0.27675 0.05800 0.05400
H 	H 	0.36152 0.31319 0.02070 0.05500
H 	H 	0.34373 0.25232 0.01883 0.05300
H 	H 	0.44634 0.21577 0.05634 0.05300
C 	C 	0.26576 0.59421 0.00428 -0.04900
C 	C 	0.27571 0.56286 0.03300 0.02500
C 	C 	0.25105 0.54127 0.05575 -0.05300
C 	C 	0.21672 0.55049 0.04858 0.01400
C 	C 	0.20669 0.58134 0.01824 -0.06400
C 	C 	0.23141 0.60343 0.99692 0.00700
H 	H 	0.28464 0.61116 0.98692 0.04900
H 	H 	0.25849 0.51701 0.07800 0.05700
H 	H 	0.19794 0.53351 0.06618 0.05800
H 	H 	0.22407 0.62739 0.97372 0.05000
C 	C 	0.71832 0.47292 0.95251 -0.06200
C 	C 	0.70028 0.45383 0.99427 0.02500
C 	C 	0.71720 0.42750 0.02777 -0.06000
C 	C 	0.75207 0.42106 0.02090 0.02300
C 	C 	0.77034 0.44084 0.98022 -0.08900
C 	C 	0.75310 0.46637 0.94529 0.02000
H 	H 	0.70550 0.49335 0.92649 0.05100
H 	H 	0.70343 0.41244 0.05982 0.05200
H 	H 	0.76492 0.40117 0.04799 0.04600
H 	H 	0.76667 0.48146 0.91303 0.04500
C 	C 	0.55230 0.77544 0.00616 0.01700
C 	C 	0.58658 0.78209 0.01535 -0.06800
C 	C 	0.60978 0.75411 0.02741 0.01400
C 	C 	0.59879 0.71997 0.03080 -0.05800
C 	C 	0.56455 0.71342 0.02194 0.02900
C 	C 	0.54138 0.74125 0.00935 -0.05800
H 	H 	0.53415 0.79670 0.99641 0.05100
H 	H 	0.63625 0.75879 0.03477 0.04900
H 	H 	0.61688 0.69859 0.04028 0.05200
H 	H 	0.51490 0.73641 0.00229 0.05500
