data_crystal

_cell_length_a 18.56512
_cell_length_b 18.81953
_cell_length_c 34.29549
_cell_angle_alpha 95.43465
_cell_angle_beta  95.43484
_cell_angle_gamma 126.42981

_symmetry_space_group_name_	'P 1'
_symmetry_space_group_name_H-M	'P 1'

loop_
_symmetry_equiv_pos_as_xyz
  x,y,z

loop_
_atom_site_label
_atom_site_type_symbol
_atom_site_fract_x
_atom_site_fract_y
_atom_site_fract_z
_atom_site_charge
C 	C 	0.89924 0.99103 0.96626 0.00100
C 	C 	0.85512 0.89929 0.96672 -0.06800
C 	C 	0.90464 0.86478 0.96573 0.02600
C 	C 	0.99781 0.92212 0.96459 -0.06900
C 	C 	0.04088 0.01273 0.96290 0.02200
C 	C 	0.99162 0.04700 0.96369 -0.04500
H 	H 	0.78334 0.85551 0.96827 0.04700
H 	H 	0.03645 0.89595 0.96449 0.04600
H 	H 	0.02558 0.11764 0.96313 0.04400
C 	C 	0.95134 0.03341 0.49317 0.06700
C 	C 	0.04551 0.07803 0.49729 -0.10500
C 	C 	0.08016 0.02915 0.49916 0.06300
C 	C 	0.02073 0.93615 0.49774 -0.11400
C 	C 	0.92649 0.89129 0.49285 0.06100
C 	C 	0.89200 0.94007 0.49055 -0.10800
H 	H 	0.09141 0.15012 0.49869 0.05800
H 	H 	0.04774 0.89877 0.50024 0.05600
H 	H 	0.81911 0.90551 0.48682 0.05900
Cu	Cu	0.75667 0.33768 0.96273 0.93000
Cu	Cu	0.73214 0.27275 0.04881 0.87500
Cu	Cu	0.60212 0.29079 0.00588 0.89600
Cu	Cu	0.58702 0.32277 0.92306 0.90200
C 	C 	0.70161 0.29821 0.87773 0.30900
O 	O 	0.80624 0.46644 0.95886 -0.35500
C 	C 	0.65182 0.33500 0.09433 0.30600
O 	O 	0.61359 0.25994 0.95317 -0.63700
O 	O 	0.73597 0.35411 0.01708 -0.64400
O 	O 	0.81817 0.28152 0.97361 -0.37200
O 	O 	0.71099 0.18451 0.00747 -0.43900
O 	O 	0.66297 0.33811 0.88236 -0.37100
O 	O 	0.47147 0.22041 0.99264 -0.38300
C 	C 	0.42506 0.22703 0.96352 0.30200
C 	C 	0.76112 0.49761 0.96796 0.28800
O 	O 	0.67430 0.44135 0.96942 -0.39700
O 	O 	0.46030 0.26326 0.93261 -0.38400
O 	O 	0.75452 0.30295 0.90809 -0.36600
C 	C 	0.77377 0.20464 0.98626 0.30200
O 	O 	0.58999 0.30707 0.06195 -0.38900
O 	O 	0.72155 0.33310 0.09313 -0.39600
H 	H 	0.57690 0.19454 0.94281 0.17800
H 	H 	0.77169 0.41707 0.03143 0.17900
Cu	Cu	0.62477 0.20181 0.50730 0.92900
Cu	Cu	0.68957 0.22629 0.42142 0.87100
Cu	Cu	0.63694 0.33274 0.45827 0.89700
Cu	Cu	0.63939 0.37105 0.54549 0.90500
C 	C 	0.67444 0.26658 0.59177 0.31300
O 	O 	0.49639 0.15409 0.51448 -0.35800
C 	C 	0.61052 0.28668 0.37117 0.29800
O 	O 	0.69382 0.34073 0.51097 -0.63400
O 	O 	0.59850 0.20826 0.45153 -0.64400
O 	O 	0.68051 0.14035 0.49693 -0.37300
O 	O 	0.77820 0.24569 0.46285 -0.43500
O 	O 	0.62901 0.29929 0.58664 -0.37400
O 	O 	0.66449 0.45149 0.46585 -0.36700
C 	C 	0.70893 0.51419 0.49850 0.29600
C 	C 	0.46029 0.19423 0.50421 0.28300
O 	O 	0.51311 0.28045 0.50267 -0.39900
O 	O 	0.70940 0.49383 0.53419 -0.38700
O 	O 	0.67169 0.21512 0.56192 -0.36800
C 	C 	0.75709 0.18242 0.48333 0.29900
O 	O 	0.59486 0.32119 0.40170 -0.36200
O 	O 	0.62494 0.22655 0.37454 -0.41400
H 	H 	0.76131 0.38099 0.51607 0.17100
H 	H 	0.53466 0.16210 0.43753 0.17300
C 	C 	0.63386 0.20897 0.76702 -0.07200
C 	C 	0.71962 0.25084 0.75628 0.02700
C 	C 	0.79830 0.29602 0.78627 0.05300
C 	C 	0.79113 0.30588 0.82646 -0.00400
C 	C 	0.70606 0.27048 0.83695 -0.09300
C 	C 	0.62657 0.21765 0.80720 0.11300
C 	C 	0.72750 0.25780 0.71404 0.02700
N 	N 	0.88581 0.33409 0.77595 -0.01600
H 	H 	0.85218 0.34400 0.84937 0.06200
N 	N 	0.53837 0.17350 0.81770 -0.02500
H 	H 	0.57297 0.17190 0.74407 0.08100
C 	C 	0.68702 0.18002 0.68474 0.05200
C 	C 	0.67626 0.18470 0.64425 -0.00300
C 	C 	0.70603 0.26643 0.63280 -0.09400
C 	C 	0.75516 0.34576 0.66196 0.11400
C 	C 	0.76472 0.34086 0.70242 -0.07200
N 	N 	0.65436 0.09573 0.69604 -0.01600
H 	H 	0.64134 0.12403 0.62183 0.06100
N 	N 	0.79427 0.43125 0.65056 -0.02600
H 	H 	0.79852 0.40128 0.72488 0.08100
O 	O 	0.47941 0.18139 0.79947 -0.11300
O 	O 	0.51537 0.12173 0.84403 -0.12400
O 	O 	0.95432 0.41724 0.79104 -0.10400
O 	O 	0.89805 0.28448 0.75294 -0.09200
O 	O 	0.84692 0.45620 0.62425 -0.12200
O 	O 	0.78078 0.48592 0.66787 -0.11500
O 	O 	0.57213 0.02412 0.68077 -0.10300
O 	O 	0.70815 0.08970 0.72020 -0.09300
C 	C 	0.69442 0.41138 0.20496 -0.07700
C 	C 	0.60519 0.35634 0.21220 0.02400
C 	C 	0.53103 0.31294 0.17993 0.05800
C 	C 	0.54679 0.31176 0.14072 -0.00600
C 	C 	0.63622 0.35759 0.13361 -0.09200
C 	C 	0.71017 0.41448 0.16580 0.11600
C 	C 	0.59059 0.33476 0.25254 0.02600
N 	N 	0.43980 0.26850 0.18691 -0.01400
H 	H 	0.48950 0.27250 0.11601 0.05800
N 	N 	0.80104 0.47589 0.15875 -0.02100
H 	H 	0.75167 0.44962 0.22975 0.07400
C 	C 	0.55282 0.24705 0.25916 0.05700
C 	C 	0.55155 0.23066 0.29815 -0.00700
C 	C 	0.59401 0.30190 0.33087 -0.09000
C 	C 	0.63006 0.38919 0.32426 0.11200
C 	C 	0.62529 0.40439 0.28520 -0.07500
N 	N 	0.52065 0.17562 0.22655 -0.01400
H 	H 	0.52227 0.16311 0.30299 0.06000
N 	N 	0.67993 0.46395 0.35679 -0.02200
H 	H 	0.65434 0.47185 0.28029 0.07200
O 	O 	0.86778 0.48139 0.17882 -0.10900
O 	O 	0.81775 0.52949 0.13373 -0.11800
O 	O 	0.42230 0.30855 0.21301 -0.10300
O 	O 	0.37340 0.19030 0.16553 -0.09800
O 	O 	0.76277 0.49673 0.37256 -0.13200
O 	O 	0.64617 0.50481 0.36789 -0.10400
O 	O 	0.57745 0.17932 0.20571 -0.10700
O 	O 	0.43708 0.10263 0.22062 -0.09400
C 	C 	0.81208 0.76133 0.52180 -0.07900
C 	C 	0.86390 0.79343 0.49178 -0.02000
C 	C 	0.85606 0.73197 0.46123 0.04700
C 	C 	0.80615 0.64109 0.46424 -0.02000
C 	C 	0.75624 0.60916 0.49489 -0.09600
C 	C 	0.75439 0.66901 0.52233 0.10000
C 	C 	0.69119 0.63540 0.55198 -0.20300
H 	H 	0.81607 0.80825 0.54458 0.05200
H 	H 	0.80699 0.59535 0.44298 0.05800
C 	C 	0.90197 0.76283 0.42586 -0.18500
H 	H 	0.67919 0.68456 0.56263 0.07300
H 	H 	0.72172 0.62515 0.57818 0.08500
H 	H 	0.62363 0.57140 0.53814 0.07700
H 	H 	0.97474 0.79117 0.43396 0.07100
H 	H 	0.89715 0.81444 0.41571 0.07200
H 	H 	0.86895 0.70594 0.40022 0.08300
C 	C 	0.89596 0.11097 0.52612 -0.08400
C 	C 	0.91412 0.08400 0.49124 -0.01400
C 	C 	0.88633 0.09547 0.45414 0.03200
C 	C 	0.83576 0.12865 0.45218 -0.01300
C 	C 	0.81391 0.15179 0.48681 -0.11500
C 	C 	0.84720 0.14620 0.52431 0.10800
C 	C 	0.82948 0.17578 0.56231 -0.21400
H 	H 	0.91795 0.10251 0.55458 0.05700
H 	H 	0.81171 0.13474 0.42354 0.02200
C 	C 	0.90714 0.06887 0.41641 -0.16400
H 	H 	0.87374 0.18288 0.58899 0.08400
H 	H 	0.75732 0.12529 0.56490 0.09900
H 	H 	0.84397 0.24222 0.56258 0.09100
H 	H 	0.86839 0.99473 0.40962 0.05800
H 	H 	0.98123 0.10163 0.42002 0.06800
H 	H 	0.88830 0.08966 0.39050 0.06300
C 	C 	0.32559 0.12512 0.53673 -0.01900
C 	C 	0.36201 0.14737 0.50196 -0.10000
C 	C 	0.30613 0.13234 0.46633 0.09300
C 	C 	0.21470 0.09631 0.46624 -0.07900
C 	C 	0.17847 0.07465 0.50110 -0.01900
C 	C 	0.23470 0.09068 0.53683 0.03800
C 	C 	0.19781 0.06995 0.57491 -0.16800
H 	H 	0.36883 0.13700 0.56403 0.04700
H 	H 	0.17124 0.08384 0.43889 0.05000
C 	C 	0.34351 0.15423 0.42840 -0.20400
H 	H 	0.25342 0.10022 0.60127 0.07000
H 	H 	0.15142 0.99605 0.57324 0.06100
H 	H 	0.15992 0.09762 0.57974 0.07000
H 	H 	0.37579 0.12126 0.42203 0.06800
H 	H 	0.39493 0.22812 0.43148 0.08200
H 	H 	0.28902 0.13021 0.40236 0.07600
C 	C 	0.81291 0.62339 0.93190 -0.01900
C 	C 	0.80195 0.59283 0.96818 -0.09800
C 	C 	0.81935 0.65018 0.00345 0.09200
C 	C 	0.84765 0.73752 0.00180 -0.08900
C 	C 	0.85925 0.76826 0.96552 -0.00200
C 	C 	0.83923 0.70988 0.93010 0.03500
C 	C 	0.84873 0.74047 0.89055 -0.17800
H 	H 	0.79858 0.57887 0.90482 0.04500
H 	H 	0.86297 0.78243 0.02892 0.05300
C 	C 	0.80834 0.61874 0.04283 -0.20400
H 	H 	0.81276 0.68258 0.86521 0.07000
H 	H 	0.92191 0.78595 0.88851 0.06900
H 	H 	0.81875 0.77652 0.88728 0.06900
H 	H 	0.84815 0.59296 0.04834 0.07700
H 	H 	0.73528 0.56432 0.04245 0.07800
H 	H 	0.83303 0.67413 0.06810 0.07900
C 	C 	0.82421 0.12047 0.01372 -0.01100
C 	C 	0.80036 0.14499 0.98032 -0.11300
C 	C 	0.79648 0.10779 0.94166 0.11300
C 	C 	0.82265 0.05144 0.93730 -0.09700
C 	C 	0.85086 0.03057 0.97088 0.02100
C 	C 	0.84877 0.06296 0.00930 0.01700
C 	C 	0.87679 0.03976 0.04578 -0.15700
H 	H 	0.82486 0.14725 0.04329 0.02400
H 	H 	0.82430 0.02647 0.90784 0.06200
C 	C 	0.76705 0.12968 0.90509 -0.21600
H 	H 	0.86464 0.06440 0.07324 0.06300
H 	H 	0.95053 0.07084 0.04974 0.06800
H 	H 	0.83679 0.96568 0.04251 0.05700
H 	H 	0.82142 0.20007 0.90251 0.10000
H 	H 	0.70295 0.12112 0.90686 0.09000
H 	H 	0.75392 0.08463 0.87746 0.08600
C 	C 	0.20050 0.13525 0.99600 -0.08300
C 	C 	0.13877 0.07281 0.96168 -0.00200
C 	C 	0.17088 0.06784 0.92657 0.03100
C 	C 	0.26498 0.12030 0.92740 -0.01200
C 	C 	0.32701 0.18021 0.96225 -0.10600
C 	C 	0.29441 0.19098 0.99624 0.10800
C 	C 	0.35920 0.25982 0.03314 -0.21300
H 	H 	0.17531 0.14013 0.02262 0.05200
H 	H 	0.29004 0.11299 0.90117 0.04800
C 	C 	0.10542 0.00392 0.88874 -0.16300
H 	H 	0.32368 0.27570 0.05229 0.07800
H 	H 	0.41498 0.32375 0.02509 0.07800
H 	H 	0.38860 0.23323 0.05072 0.09400
H 	H 	0.04753 0.00704 0.88312 0.06800
H 	H 	0.07896 0.93430 0.89130 0.05600
H 	H 	0.13927 0.02106 0.86244 0.07000
