data_crystal

_cell_length_a 19.15344
_cell_length_b 19.47916
_cell_length_c 43.54910
_cell_angle_alpha 89.97584
_cell_angle_beta  90.02383
_cell_angle_gamma 120.02823

_symmetry_space_group_name_	'P 1'
_symmetry_space_group_name_H-M	'P 1'

loop_
_symmetry_equiv_pos_as_xyz
  x,y,z

loop_
_atom_site_label
_atom_site_type_symbol
_atom_site_fract_x
_atom_site_fract_y
_atom_site_fract_z
_atom_site_charge
Cu	Cu	0.73095 0.46160 0.56259 0.93200
Cu	Cu	0.78659 0.41616 0.62724 0.88600
Cu	Cu	0.90424 0.49941 0.57505 0.90600
Cu	Cu	0.86754 0.54639 0.51335 0.90200
C 	C 	0.72525 0.57091 0.51918 0.28700
O 	O 	0.69557 0.38219 0.52816 -0.35200
C 	C 	0.92257 0.40005 0.62307 0.28600
O 	O 	0.85189 0.54965 0.55581 -0.64000
O 	O 	0.78971 0.41480 0.58307 -0.63700
O 	O 	0.66229 0.45853 0.59757 -0.35500
O 	O 	0.76394 0.49932 0.63219 -0.42200
O 	O 	0.77686 0.56388 0.50098 -0.36500
O 	O 	0.01083 0.58735 0.56609 -0.36800
C 	C 	0.03628 0.61655 0.53827 0.27700
C 	C 	0.74659 0.36712 0.51382 0.28200
O 	O 	0.82396 0.41941 0.51412 -0.36900
O 	O 	0.98735 0.59122 0.51422 -0.36500
O 	O 	0.69174 0.52338 0.54302 -0.34700
C 	C 	0.69300 0.48830 0.62459 0.29300
O 	O 	0.95780 0.45891 0.60296 -0.35700
O 	O 	0.84394 0.36067 0.62626 -0.39900
H 	H 	0.86847 0.60315 0.56393 0.17700
H 	H 	0.77712 0.36244 0.57488 0.18100
Cu	Cu	0.44594 0.74565 0.43934 0.93000
Cu	Cu	0.42360 0.82102 0.37477 0.87800
Cu	Cu	0.48681 0.91734 0.43208 0.90500
Cu	Cu	0.53696 0.87501 0.49057 0.90100
C 	C 	0.55191 0.73133 0.48252 0.28500
O 	O 	0.36484 0.71485 0.47381 -0.35000
C 	C 	0.40745 0.95679 0.38389 0.29700
O 	O 	0.53936 0.86296 0.44764 -0.63900
O 	O 	0.40381 0.80837 0.41885 -0.63600
O 	O 	0.43985 0.67874 0.40360 -0.35200
O 	O 	0.49846 0.78516 0.37182 -0.42300
O 	O 	0.54198 0.77837 0.50166 -0.36600
O 	O 	0.57347 0.02127 0.44308 -0.37400
C 	C 	0.59992 0.04404 0.47129 0.27400
C 	C 	0.35368 0.76766 0.48842 0.28200
O 	O 	0.41054 0.84260 0.48860 -0.37800
O 	O 	0.59812 0.99357 0.49209 -0.35800
O 	O 	0.50423 0.70073 0.45839 -0.34400
C 	C 	0.47476 0.71062 0.37732 0.29400
O 	O 	0.43491 0.97026 0.41233 -0.35300
O 	O 	0.37417 0.88511 0.37200 -0.39900
H 	H 	0.59333 0.88058 0.43878 0.17900
H 	H 	0.34820 0.79429 0.42461 0.18400
Cu	Cu	0.45913 0.24802 0.23645 0.93100
Cu	Cu	0.45859 0.33836 0.29987 0.88000
Cu	Cu	0.41308 0.37685 0.23858 0.90100
Cu	Cu	0.38923 0.29080 0.17868 0.89900
C 	C 	0.37467 0.13309 0.18921 0.28400
O 	O 	0.55195 0.29953 0.20650 -0.34900
C 	C 	0.47387 0.48869 0.29048 0.28400
O 	O 	0.36960 0.27288 0.22133 -0.63900
O 	O 	0.49218 0.35015 0.25716 -0.63700
O 	O 	0.45489 0.18550 0.27317 -0.35700
O 	O 	0.38361 0.22831 0.30054 -0.42500
O 	O 	0.39262 0.19166 0.16974 -0.36400
O 	O 	0.33045 0.39385 0.22095 -0.36800
C 	C 	0.31748 0.39451 0.19122 0.28900
C 	C 	0.56937 0.36517 0.19181 0.28000
O 	O 	0.51312 0.38384 0.18708 -0.37700
O 	O 	0.32731 0.34749 0.17188 -0.37100
O 	O 	0.40767 0.14689 0.21676 -0.34900
C 	C 	0.40950 0.17816 0.29688 0.29600
O 	O 	0.44836 0.47564 0.26171 -0.35700
O 	O 	0.50696 0.45037 0.30296 -0.39800
H 	H 	0.31287 0.23544 0.22701 0.17700
H 	H 	0.54906 0.39177 0.25389 0.18400
Cu	Cu	0.18524 0.69388 0.09908 0.93100
Cu	Cu	0.08311 0.60495 0.03731 0.87700
Cu	Cu	0.00910 0.56459 0.09884 0.89600
Cu	Cu	0.07442 0.65174 0.15797 0.89700
C 	C 	0.21793 0.80931 0.14599 0.29300
O 	O 	0.22727 0.64207 0.12825 -0.34800
C 	C 	0.95160 0.44944 0.04869 0.29400
O 	O 	0.07121 0.66913 0.11540 -0.64100
O 	O 	0.11326 0.59213 0.07869 -0.64100
O 	O 	0.23970 0.75593 0.06157 -0.35700
O 	O 	0.12053 0.71534 0.03735 -0.42200
O 	O 	0.17860 0.75149 0.16598 -0.36800
O 	O 	0.90927 0.54603 0.11681 -0.36500
C 	C 	0.89654 0.54697 0.14652 0.29100
C 	C 	0.17860 0.57744 0.14368 0.28100
O 	O 	0.10358 0.55903 0.14883 -0.38100
O 	O 	0.95490 0.59468 0.16552 -0.36500
O 	O 	0.23831 0.79497 0.11881 -0.34600
C 	C 	0.19798 0.76546 0.03976 0.29000
O 	O 	0.94710 0.46225 0.07823 -0.35600
O 	O 	0.01849 0.49267 0.03302 -0.40700
H 	H 	0.05146 0.70573 0.10980 0.17600
H 	H 	0.12826 0.55052 0.08072 0.18500
Cu	Cu	0.23239 0.48094 0.76891 0.93200
Cu	Cu	0.32109 0.48463 0.70423 0.88100
Cu	Cu	0.37071 0.44686 0.76373 0.90100
Cu	Cu	0.29181 0.42119 0.82476 0.90000
C 	C 	0.12437 0.39361 0.81806 0.28500
O 	O 	0.28069 0.57288 0.79868 -0.34600
C 	C 	0.47914 0.51187 0.71116 0.28600
O 	O 	0.26728 0.39886 0.78273 -0.64200
O 	O 	0.33572 0.52025 0.74674 -0.63700
O 	O 	0.16293 0.46875 0.73294 -0.35700
O 	O 	0.21191 0.40278 0.70600 -0.42100
O 	O 	0.18741 0.41505 0.83621 -0.36500
O 	O 	0.39485 0.36809 0.77870 -0.37100
C 	C 	0.39519 0.34975 0.80784 0.29200
C 	C 	0.35048 0.59580 0.81197 0.28100
O 	O 	0.37705 0.54562 0.81491 -0.37500
O 	O 	0.36060 0.37047 0.82952 -0.37200
O 	O 	0.13261 0.42425 0.79033 -0.34700
C 	C 	0.15592 0.42158 0.71019 0.28700
O 	O 	0.47133 0.49071 0.74030 -0.36000
O 	O 	0.43498 0.53911 0.69900 -0.39600
H 	H 	0.23156 0.34215 0.77767 0.17800
H 	H 	0.37616 0.57698 0.74957 0.18800
Cu	Cu	0.66805 0.20430 0.90239 0.93100
Cu	Cu	0.54930 0.13423 0.96229 0.88800
Cu	Cu	0.52866 0.03237 0.90495 0.89500
Cu	Cu	0.63768 0.08554 0.84848 0.89800
C 	C 	0.79652 0.22795 0.86221 0.29300
O 	O 	0.63054 0.24239 0.86617 -0.34900
C 	C 	0.40145 0.00063 0.95100 0.24600
O 	O 	0.63994 0.08792 0.89182 -0.63700
O 	O 	0.55712 0.14220 0.91817 -0.63800
O 	O 	0.72036 0.26461 0.94046 -0.36000
O 	O 	0.65536 0.15712 0.97141 -0.42000
O 	O 	0.74143 0.18648 0.84132 -0.36800
O 	O 	0.50568 0.92953 0.88929 -0.35400
C 	C 	0.52109 0.91529 0.86111 0.28700
C 	C 	0.56547 0.19371 0.85055 0.27600
O 	O 	0.54442 0.11845 0.84780 -0.37600
O 	O 	0.58529 0.96811 0.84581 -0.36100
O 	O 	0.77649 0.24692 0.88851 -0.35100
C 	C 	0.71630 0.22814 0.96628 0.29500
O 	O 	0.42490 0.97346 0.92761 -0.33300
O 	O 	0.43652 0.07689 0.95644 -0.38900
H 	H 	0.67378 0.06845 0.90132 0.17400
H 	H 	0.52009 0.15895 0.90964 0.17900
C 	C 	0.39816 0.67787 0.82417 -0.06000
C 	C 	0.42804 0.69112 0.85460 0.00500
C 	C 	0.47024 0.76899 0.86648 0.00600
C 	C 	0.47634 0.83301 0.84903 -0.05400
C 	C 	0.44389 0.81924 0.81907 0.00400
C 	C 	0.40883 0.74278 0.80612 0.00600
C 	C 	0.41308 0.62464 0.87405 0.08900
C 	C 	0.44503 0.88352 0.80180 0.09100
C 	C 	0.38575 0.73137 0.77398 0.08800
C 	C 	0.50950 0.78333 0.89617 0.10000
N 	N 	0.36736 0.72243 0.74834 -0.11400
N 	N 	0.54082 0.79473 0.91985 -0.10300
N 	N 	0.44594 0.93480 0.78803 -0.10300
N 	N 	0.40115 0.57162 0.88958 -0.11400
C 	C 	0.04302 0.35257 0.83183 -0.04900
C 	C 	0.00178 0.39448 0.83725 -0.00500
C 	C 	0.92085 0.35362 0.84710 0.02300
C 	C 	0.88204 0.27128 0.85278 -0.06400
C 	C 	0.92449 0.23006 0.84874 0.01800
C 	C 	0.00475 0.27057 0.83802 -0.01100
C 	C 	0.04292 0.47975 0.83293 0.10400
C 	C 	0.88563 0.14608 0.85575 0.07800
C 	C 	0.04746 0.22766 0.83280 0.08100
C 	C 	0.87687 0.39589 0.85065 0.10300
N 	N 	0.08156 0.19347 0.82861 -0.11200
N 	N 	0.84176 0.42956 0.85349 -0.09500
N 	N 	0.85458 0.07909 0.86135 -0.11200
N 	N 	0.07580 0.54777 0.82947 -0.09900
C 	C 	0.43649 0.30534 0.81658 -0.06000
C 	C 	0.39465 0.23339 0.83308 0.00400
C 	C 	0.43558 0.19386 0.84293 0.00000
C 	C 	0.51769 0.22482 0.83539 -0.06300
C 	C 	0.55683 0.29203 0.81623 0.00500
C 	C 	0.51761 0.33416 0.80791 0.00500
C 	C 	0.30927 0.19927 0.83940 0.08800
C 	C 	0.63720 0.31716 0.80473 0.09700
C 	C 	0.56175 0.40869 0.79148 0.09500
C 	C 	0.39355 0.12217 0.86119 0.07900
N 	N 	0.59715 0.46812 0.77838 -0.09800
N 	N 	0.35997 0.06495 0.87574 -0.11300
N 	N 	0.70127 0.33715 0.79555 -0.09800
N 	N 	0.24116 0.17200 0.84446 -0.10600
C 	C 	0.77065 0.27289 0.99173 -0.07100
C 	C 	0.84522 0.27571 0.99501 0.01000
C 	C 	0.90127 0.32663 0.01697 0.00200
C 	C 	0.88484 0.37852 0.03405 -0.05700
C 	C 	0.80687 0.36925 0.03309 0.00000
C 	C 	0.74949 0.31570 0.01211 0.00900
C 	C 	0.86485 0.22763 0.97536 0.08900
C 	C 	0.78667 0.41683 0.05279 0.08900
C 	C 	0.66919 0.30568 0.01106 0.06800
C 	C 	0.97495 0.32470 0.02246 0.11400
N 	N 	0.60511 0.29764 0.01022 -0.12200
N 	N 	0.03375 0.32318 0.02686 -0.11400
N 	N 	0.77030 0.45468 0.06845 -0.10400
N 	N 	0.88046 0.18930 0.95965 -0.10500
C 	C 	0.34191 0.94411 0.97349 -0.04600
C 	C 	0.35373 0.96017 0.00544 0.01800
C 	C 	0.29775 0.90605 0.02655 0.00500
C 	C 	0.23958 0.82954 0.01677 -0.06800
C 	C 	0.22736 0.81291 0.98494 0.00600
C 	C 	0.27518 0.87217 0.96339 0.00000
C 	C 	0.42610 0.02911 0.01679 0.04300
C 	C 	0.16803 0.73443 0.97433 0.07000
C 	C 	0.25438 0.85991 0.93105 0.10700
C 	C 	0.29822 0.93022 0.05808 0.10400
N 	N 	0.23777 0.85011 0.90524 -0.09600
N 	N 	0.29878 0.95002 0.08316 -0.09700
N 	N 	0.12073 0.67183 0.96581 -0.12800
N 	N 	0.48375 0.08397 0.02597 -0.12900
C 	C 	0.65059 0.41398 0.17818 -0.06200
C 	C 	0.68302 0.37787 0.15938 0.00600
C 	C 	0.76518 0.41969 0.15130 0.00600
C 	C 	0.81246 0.50134 0.15807 -0.05800
C 	C 	0.77782 0.53965 0.17446 0.00500
C 	C 	0.69792 0.49528 0.18552 0.00300
C 	C 	0.63092 0.29915 0.14705 0.09800
C 	C 	0.82323 0.62477 0.17914 0.09800
C 	C 	0.66488 0.53302 0.20469 0.08600
C 	C 	0.80181 0.37788 0.13720 0.09500
N 	N 	0.63841 0.56306 0.21997 -0.10200
N 	N 	0.83085 0.34429 0.12601 -0.09600
N 	N 	0.85943 0.69270 0.18287 -0.09700
N 	N 	0.58932 0.23646 0.13713 -0.09800
C 	C 	0.27963 0.44025 0.17996 -0.05900
C 	C 	0.31601 0.52211 0.18644 0.00300
C 	C 	0.27892 0.56517 0.17667 0.00500
C 	C 	0.21051 0.52904 0.15742 -0.06400
C 	C 	0.17449 0.44744 0.15055 0.00200
C 	C 	0.20705 0.40239 0.16290 0.00400
C 	C 	0.39322 0.56280 0.20208 0.09200
C 	C 	0.10516 0.41023 0.13026 0.08200
C 	C 	0.16452 0.31701 0.15890 0.09400
C 	C 	0.30920 0.64566 0.18744 0.09500
N 	N 	0.13056 0.24888 0.15571 -0.10500
N 	N 	0.33323 0.70979 0.19610 -0.09900
N 	N 	0.04988 0.38059 0.11407 -0.10700
N 	N 	0.45487 0.59552 0.21450 -0.09700
C 	C 	0.33514 0.05109 0.17727 -0.04400
C 	C 	0.38056 0.01305 0.17254 -0.01900
C 	C 	0.34222 0.93385 0.16223 0.03600
C 	C 	0.25817 0.89209 0.15707 -0.06900
C 	C 	0.21281 0.93015 0.16174 0.03000
C 	C 	0.25139 0.00982 0.17158 -0.02400
C 	C 	0.46673 0.05535 0.17835 0.10700
C 	C 	0.12657 0.88750 0.15612 0.07500
C 	C 	0.20482 0.04911 0.17619 0.08100
C 	C 	0.38928 0.89536 0.15687 0.10300
N 	N 	0.16775 0.08053 0.17987 -0.11400
N 	N 	0.42689 0.86478 0.15254 -0.09100
N 	N 	0.05777 0.85340 0.15163 -0.10900
N 	N 	0.53542 0.08897 0.18305 -0.10000
C 	C 	0.40479 0.02072 0.36654 -0.07200
C 	C 	0.47711 0.09195 0.36023 0.00100
C 	C 	0.47711 0.14651 0.33903 0.00700
C 	C 	0.40597 0.12818 0.32295 -0.07900
C 	C 	0.33250 0.06046 0.33108 0.01100
C 	C 	0.33162 0.00774 0.35350 -0.01300
C 	C 	0.55217 0.10753 0.37444 0.07800
C 	C 	0.25831 0.04420 0.31595 0.08200
C 	C 	0.25562 0.94132 0.36364 0.11900
C 	C 	0.55023 0.22172 0.33381 0.06700
N 	N 	0.19497 0.88832 0.37175 -0.10500
N 	N 	0.60852 0.28172 0.32964 -0.11700
N 	N 	0.19912 0.03125 0.30386 -0.10800
N 	N 	0.61229 0.12030 0.38565 -0.10600
C 	C 	0.47265 0.55290 0.30797 -0.06000
C 	C 	0.39932 0.54089 0.32029 -0.00100
C 	C 	0.39967 0.59383 0.34241 0.00500
C 	C 	0.47349 0.65934 0.35198 -0.07300
C 	C 	0.54565 0.67654 0.33680 0.00800
C 	C 	0.54543 0.62246 0.31521 0.00600
C 	C 	0.32364 0.47324 0.31057 0.07700
C 	C 	0.61960 0.75022 0.34296 0.09900
C 	C 	0.61989 0.63840 0.30041 0.10200
C 	C 	0.32407 0.58233 0.35461 0.07400
N 	N 	0.67934 0.65114 0.28862 -0.09700
N 	N 	0.26376 0.57318 0.36433 -0.11400
N 	N 	0.67862 0.80906 0.34782 -0.09900
N 	N 	0.26330 0.41929 0.30279 -0.11300
C 	C 	0.71684 0.28901 0.49882 -0.06500
C 	C 	0.64694 0.25716 0.48035 0.00500
C 	C 	0.60718 0.17643 0.47210 0.00200
C 	C 	0.64326 0.13003 0.47857 -0.05600
C 	C 	0.71940 0.16543 0.49316 0.00100
C 	C 	0.75358 0.24303 0.50499 0.00300
C 	C 	0.61663 0.30776 0.46947 0.09600
C 	C 	0.76366 0.12313 0.49512 0.09200
C 	C 	0.82417 0.27391 0.52461 0.08300
C 	C 	0.52721 0.14034 0.45868 0.09200
N 	N 	0.88043 0.29850 0.54028 -0.10800
N 	N 	0.46333 0.11201 0.44806 -0.10200
N 	N 	0.79902 0.08941 0.49669 -0.11000
N 	N 	0.59245 0.34813 0.46080 -0.10000
C 	C 	0.12383 0.67121 0.53285 -0.05600
C 	C 	0.14850 0.73486 0.51204 0.00100
C 	C 	0.22526 0.76893 0.49814 0.00400
C 	C 	0.27863 0.74165 0.50614 -0.06400
C 	C 	0.25834 0.68643 0.53025 0.00600
C 	C 	0.18159 0.65251 0.54411 0.00100
C 	C 	0.09530 0.76582 0.50529 0.08500
C 	C 	0.31629 0.66426 0.54070 0.09300
C 	C 	0.16367 0.60136 0.57061 0.10100
C 	C 	0.24808 0.82989 0.47491 0.08300
N 	N 	0.14993 0.56099 0.59188 -0.10200
N 	N 	0.26627 0.87852 0.45637 -0.10300
N 	N 	0.36242 0.64644 0.54902 -0.09800
N 	N 	0.05283 0.79051 0.49991 -0.11200
C 	C 	0.69074 0.62085 0.50911 -0.05700
C 	C 	0.67026 0.66057 0.53130 0.00500
C 	C 	0.61972 0.69105 0.52336 0.00300
C 	C 	0.60379 0.69745 0.49193 -0.05600
C 	C 	0.63677 0.66977 0.46926 0.00300
C 	C 	0.67222 0.62433 0.47787 0.00500
C 	C 	0.70291 0.67198 0.56212 0.09200
C 	C 	0.63836 0.69153 0.43734 0.09600
C 	C 	0.68547 0.57836 0.45481 0.10300
C 	C 	0.58123 0.71127 0.54758 0.10400
N 	N 	0.69594 0.54173 0.43634 -0.10200
N 	N 	0.55081 0.72735 0.56705 -0.10100
N 	N 	0.63980 0.70886 0.41185 -0.10500
N 	N 	0.72902 0.68119 0.58670 -0.10500
C 	C 	0.97313 0.38546 0.64496 -0.05800
C 	C 	0.04335 0.38665 0.63453 0.00000
C 	C 	0.10429 0.39861 0.65561 0.00400
C 	C 	0.08937 0.39662 0.68759 -0.06500
C 	C 	0.01197 0.37804 0.69779 -0.01200
C 	C 	0.95629 0.37870 0.67686 0.01200
C 	C 	0.05164 0.37299 0.60235 0.10000
C 	C 	0.98882 0.35601 0.72957 0.11100
C 	C 	0.88411 0.37654 0.68834 0.07200
C 	C 	0.18293 0.41677 0.64431 0.07300
N 	N 	0.82660 0.37485 0.69756 -0.12400
N 	N 	0.24563 0.43130 0.63520 -0.12500
N 	N 	0.97003 0.33826 0.75488 -0.10000
N 	N 	0.05831 0.36209 0.57667 -0.10200
C 	C 	0.53820 0.50469 0.69186 -0.06300
C 	C 	0.51778 0.43056 0.67901 0.00200
C 	C 	0.56909 0.42494 0.65729 0.00600
C 	C 	0.64123 0.49356 0.64851 -0.07000
C 	C 	0.66500 0.56638 0.66343 0.00800
C 	C 	0.61269 0.57224 0.68468 0.00800
C 	C 	0.44341 0.36016 0.68796 0.07200
C 	C 	0.74375 0.63462 0.65744 0.09800
C 	C 	0.63558 0.64753 0.69927 0.10000
C 	C 	0.54901 0.34822 0.64472 0.07600
N 	N 	0.65382 0.70759 0.71092 -0.09900
N 	N 	0.53301 0.28704 0.63470 -0.11500
N 	N 	0.80666 0.68906 0.65275 -0.10000
N 	N 	0.38411 0.30407 0.69513 -0.11600
