data_crystal

_cell_length_a 46.69036
_cell_length_b 45.67809
_cell_length_c 37.59238
_cell_angle_alpha 89.95353
_cell_angle_beta  89.95156
_cell_angle_gamma 90.48464

_symmetry_space_group_name_	'P 1'
_symmetry_space_group_name_H-M	'P 1'

loop_
_symmetry_equiv_pos_as_xyz
  x,y,z

loop_
_atom_site_label
_atom_site_type_symbol
_atom_site_fract_x
_atom_site_fract_y
_atom_site_fract_z
_atom_site_charge
Zn	Zn	0.49593 0.49960 0.01037 1.22000
C 	C 	0.52441 0.55591 0.00894 0.34200
O 	O 	0.51982 0.47591 0.04197 -0.47600
O 	O 	0.50995 0.56174 0.03807 -0.45400
O 	O 	0.54153 0.51296 0.07170 -0.49400
C 	C 	0.44997 0.52948 0.04369 0.34600
O 	O 	0.46338 0.52559 0.01347 -0.45500
O 	O 	0.46329 0.52513 0.07394 -0.50900
C 	C 	0.54280 0.48707 0.05683 0.31800
O 	O 	0.46213 0.46118 0.00825 -0.32600
Zn	Zn	0.50460 0.53170 0.07851 1.17000
O 	O 	0.52442 0.52927 0.99560 -0.44000
C 	C 	0.47231 0.45595 0.97680 0.27700
O 	O 	0.49276 0.47335 0.96648 -0.38300
Zn	Zn	0.36219 0.15249 0.99665 1.22100
C 	C 	0.38178 0.15183 0.06968 0.34100
O 	O 	0.32034 0.14633 0.99781 -0.46500
O 	O 	0.37522 0.17965 0.07210 -0.44900
O 	O 	0.31542 0.16097 0.05527 -0.49500
C 	C 	0.38079 0.21219 0.99658 0.34400
O 	O 	0.38956 0.18501 0.99641 -0.45400
O 	O 	0.35584 0.21876 0.01027 -0.51000
C 	C 	0.30604 0.14588 0.02794 0.31800
O 	O 	0.36084 0.15715 0.93384 -0.32300
Zn	Zn	0.33873 0.19586 0.04852 1.17100
O 	O 	0.37196 0.13589 0.04325 -0.43800
C 	C 	0.37189 0.13118 0.93377 0.29800
O 	O 	0.37659 0.11994 0.96475 -0.38300
C 	C 	0.51664 0.99274 0.30797 0.14600
C 	C 	0.50092 0.01379 0.28929 -0.11200
H 	H 	0.48900 0.03021 0.30378 0.07400
C 	C 	0.50072 0.01364 0.25203 0.07300
C 	C 	0.51599 0.99228 0.23343 -0.09800
C 	C 	0.53162 0.97116 0.25201 0.07300
C 	C 	0.53205 0.97145 0.28927 -0.11200
H 	H 	0.54424 0.95524 0.30374 0.07400
N 	N 	0.51696 0.99298 0.34622 -0.18200
C 	C 	0.49968 0.97380 0.36461 0.19700
C 	C 	0.49959 0.97381 0.40207 -0.08100
C 	C 	0.51708 0.99391 0.42040 0.06100
C 	C 	0.53457 0.01348 0.40118 -0.08100
C 	C 	0.53439 0.01252 0.36374 0.19800
C 	C 	0.48256 0.95382 0.42134 0.01000
C 	C 	0.48209 0.95460 0.45848 -0.05800
C 	C 	0.49787 0.97619 0.47712 0.01600
C 	C 	0.51706 0.99445 0.45800 -0.02900
C 	C 	0.53622 0.01325 0.47630 0.01600
C 	C 	0.55160 0.03400 0.41955 0.01000
C 	C 	0.55203 0.03429 0.45670 -0.05800
C 	C 	0.49587 0.97914 0.51464 0.01600
C 	C 	0.51702 0.99552 0.53300 -0.02900
C 	C 	0.53818 0.01138 0.51394 0.01600
O 	O 	0.55117 0.03036 0.34543 -0.20200
O 	O 	0.48290 0.95545 0.34712 -0.20300
H 	H 	0.56422 0.05011 0.40513 0.04300
H 	H 	0.56356 0.05174 0.47000 0.04600
H 	H 	0.46996 0.93730 0.40765 0.04300
H 	H 	0.47055 0.93754 0.47255 0.04600
C 	C 	0.56140 0.02389 0.53278 -0.05800
C 	C 	0.56154 0.02393 0.56994 0.01000
C 	C 	0.53912 0.01049 0.58906 -0.08000
C 	C 	0.51702 0.99601 0.57060 0.06100
C 	C 	0.47262 0.96719 0.53403 -0.05800
C 	C 	0.47248 0.96813 0.57117 0.01000
C 	C 	0.49495 0.98200 0.58969 -0.08100
C 	C 	0.53865 0.01092 0.62652 0.19800
N 	N 	0.51714 0.99680 0.64480 -0.18200
C 	C 	0.49552 0.98239 0.62713 0.19700
C 	C 	0.51730 0.99704 0.68306 0.14500
C 	C 	0.53617 0.97890 0.70179 -0.11200
C 	C 	0.53640 0.97923 0.73905 0.07300
C 	C 	0.51754 0.99738 0.75760 -0.09800
C 	C 	0.49857 0.01538 0.73899 0.07300
C 	C 	0.49856 0.01535 0.70173 -0.11200
O 	O 	0.55884 0.02512 0.64411 -0.20200
O 	O 	0.47534 0.96862 0.64532 -0.20200
H 	H 	0.55062 0.96476 0.68735 0.07500
H 	H 	0.48400 0.02935 0.68723 0.07500
H 	H 	0.58001 0.03234 0.51892 0.04600
H 	H 	0.57942 0.03401 0.58378 0.04300
H 	H 	0.45400 0.95841 0.52054 0.04600
H 	H 	0.45460 0.95844 0.58544 0.04300
H 	H 	0.51762 0.99752 0.78647 0.06200
H 	H 	0.51575 0.99211 0.20457 0.06200
Zn	Zn	0.67656 0.84392 0.99582 1.22100
C 	C 	0.65639 0.84091 0.06851 0.34000
O 	O 	0.71766 0.85422 0.99784 -0.46400
O 	O 	0.66552 0.81382 0.07007 -0.45000
O 	O 	0.72342 0.83867 0.05484 -0.49500
C 	C 	0.66348 0.78275 0.99381 0.32400
O 	O 	0.65227 0.80899 0.99443 -0.45400
O 	O 	0.68909 0.77850 0.00701 -0.50900
C 	C 	0.73147 0.85544 0.02826 0.31800
O 	O 	0.67883 0.84075 0.93292 -0.32500
Zn	Zn	0.70362 0.80186 0.04643 1.17100
O 	O 	0.66488 0.85838 0.04275 -0.43800
C 	C 	0.66538 0.86549 0.93346 0.29800
O 	O 	0.65940 0.87555 0.96469 -0.38400
Zn	Zn	0.15069 0.65762 0.99701 1.22100
C 	C 	0.14129 0.65482 0.07294 0.34000
O 	O 	0.13987 0.69700 0.98073 -0.46600
O 	O 	0.16606 0.66790 0.07822 -0.45100
O 	O 	0.14360 0.71784 0.03540 -0.49500
C 	C 	0.20954 0.65049 0.01658 0.32700
O 	O 	0.18474 0.63700 0.01315 -0.45400
O 	O 	0.21052 0.67909 0.01982 -0.51100
C 	C 	0.13264 0.71760 0.00327 0.32000
O 	O 	0.16425 0.64553 0.93800 -0.32400
Zn	Zn	0.18068 0.70049 0.04460 1.17000
O 	O 	0.12885 0.65595 0.04167 -0.43900
C 	C 	0.14097 0.62982 0.93805 0.29800
O 	O 	0.12602 0.63059 0.96695 -0.38500
C 	C 	0.99929 0.49744 0.68161 0.14700
C 	C 	0.01895 0.51435 0.70115 -0.11300
H 	H 	0.03451 0.52797 0.68734 0.07500
C 	C 	0.01850 0.51354 0.73839 0.07300
C 	C 	0.99829 0.49598 0.75611 -0.09800
C 	C 	0.97857 0.47917 0.73667 0.07300
C 	C 	0.97911 0.47982 0.69942 -0.11200
H 	H 	0.96394 0.46677 0.68428 0.07400
N 	N 	0.99990 0.49806 0.64338 -0.18200
C 	C 	0.01950 0.48138 0.62549 0.19700
C 	C 	0.02021 0.48147 0.58804 -0.08000
C 	C 	0.00003 0.49800 0.56917 0.06000
C 	C 	0.98094 0.51594 0.58789 -0.08000
C 	C 	0.98105 0.51553 0.62536 0.19700
C 	C 	0.04144 0.46625 0.56938 0.01000
C 	C 	0.04191 0.46655 0.53228 -0.05700
C 	C 	0.01962 0.47998 0.51288 0.01500
C 	C 	0.99947 0.49721 0.53150 -0.02700
C 	C 	0.97960 0.51466 0.51273 0.01500
C 	C 	0.96285 0.53482 0.56906 0.01000
C 	C 	0.96302 0.53507 0.53195 -0.05700
C 	C 	0.01786 0.47775 0.47519 0.01600
C 	C 	0.99794 0.49514 0.45642 -0.02900
C 	C 	0.97779 0.51236 0.47504 0.01600
O 	O 	0.96291 0.53192 0.64321 -0.20200
O 	O 	0.03757 0.46499 0.64344 -0.20200
H 	H 	0.94928 0.55008 0.58310 0.04300
H 	H 	0.95144 0.55217 0.51848 0.04600
H 	H 	0.05829 0.45500 0.58355 0.04300
H 	H 	0.06042 0.45771 0.51898 0.04600
C 	C 	0.95541 0.52568 0.45568 -0.05800
C 	C 	0.95574 0.52581 0.41857 0.01100
C 	C 	0.97698 0.51061 0.39988 -0.08100
C 	C 	0.99733 0.49430 0.41875 0.06200
C 	C 	0.03455 0.45744 0.45595 -0.05800
C 	C 	0.03476 0.45775 0.41884 0.01100
C 	C 	0.01657 0.47652 0.40002 -0.08100
C 	C 	0.97756 0.51054 0.36242 0.19800
N 	N 	0.99744 0.49420 0.34455 -0.18200
C 	C 	0.01651 0.47700 0.36257 0.19800
C 	C 	0.99834 0.49517 0.30635 0.14700
C 	C 	0.98143 0.47571 0.28633 -0.11300
C 	C 	0.98242 0.47662 0.24909 0.07400
C 	C 	0.00030 0.49694 0.23188 -0.09900
C 	C 	0.01719 0.51637 0.25181 0.07300
C 	C 	0.01621 0.51551 0.28903 -0.11400
O 	O 	0.95910 0.52645 0.34445 -0.20300
O 	O 	0.03502 0.46104 0.34473 -0.20300
H 	H 	0.96762 0.46003 0.29976 0.07400
H 	H 	0.02924 0.53053 0.30455 0.07400
H 	H 	0.93695 0.53459 0.46903 0.04600
H 	H 	0.93881 0.53695 0.40442 0.04300
H 	H 	0.04618 0.44035 0.46938 0.04600
H 	H 	0.04843 0.44258 0.40480 0.04300
H 	H 	0.00103 0.49765 0.20304 0.06200
H 	H 	0.99789 0.49544 0.78497 0.06200
Zn	Zn	0.83447 0.34731 0.98970 1.22100
C 	C 	0.83632 0.35753 0.91399 0.34000
O 	O 	0.79536 0.35531 0.00659 -0.46200
O 	O 	0.82499 0.33153 0.90843 -0.44900
O 	O 	0.77469 0.35028 0.95220 -0.49400
C 	C 	0.84556 0.28803 0.96926 0.32700
O 	O 	0.85688 0.31428 0.97267 -0.45400
O 	O 	0.81771 0.28483 0.96618 -0.51000
C 	C 	0.77443 0.36105 0.98448 0.33500
O 	O 	0.84781 0.33353 0.04824 -0.32200
Zn	Zn	0.79443 0.31394 0.94212 1.17100
O 	O 	0.83423 0.37003 0.94531 -0.44000
C 	C 	0.86142 0.35841 0.04855 0.29800
O 	O 	0.85942 0.37400 0.02000 -0.38200
Zn	Zn	0.00908 0.01202 0.02385 1.22100
C 	C 	0.02988 0.95352 0.01305 0.33900
O 	O 	0.97635 0.00623 0.05611 -0.47000
O 	O 	0.04538 0.95831 0.04168 -0.45200
O 	O 	0.99061 0.96340 0.08059 -0.49700
C 	C 	0.06350 0.02377 0.05524 0.34900
O 	O 	0.05017 0.01880 0.02521 -0.45400
O 	O 	0.05269 0.01406 0.08525 -0.50800
C 	C 	0.97012 0.98044 0.06935 0.34100
O 	O 	0.00464 0.06291 0.03088 -0.32600
Zn	Zn	0.02936 0.97839 0.08649 1.17000
O 	O 	0.01055 0.97258 0.00277 -0.43300
C 	C 	0.99360 0.06263 0.99928 0.29500
O 	O 	0.99154 0.03711 0.98442 -0.37900
C 	C 	0.86415 0.26215 0.96790 -0.10200
C 	C 	0.85476 0.23544 0.98246 0.02200
C 	C 	0.87208 0.21069 0.98044 -0.07000
C 	C 	0.89888 0.21233 0.96357 0.03000
C 	C 	0.90823 0.23900 0.94881 -0.06900
C 	C 	0.89100 0.26383 0.95111 0.02300
C 	C 	0.91769 0.18648 0.96286 0.00100
C 	C 	0.94489 0.18785 0.97868 -0.03800
C 	C 	0.96148 0.16263 0.98140 -0.03300
C 	C 	0.95097 0.13583 0.96854 -0.00200
C 	C 	0.92434 0.13463 0.95142 -0.03300
C 	C 	0.90778 0.15990 0.94843 -0.03800
C 	C 	0.96585 0.10922 0.97696 0.04400
C 	C 	0.97844 0.08752 0.98596 -0.09100
H 	H 	0.83416 0.23390 0.99565 0.02900
H 	H 	0.86482 0.19032 0.99232 0.04800
H 	H 	0.92883 0.24049 0.93564 0.04900
H 	H 	0.89836 0.28424 0.93943 0.03600
H 	H 	0.95278 0.20823 0.98986 0.04100
H 	H 	0.98206 0.16372 0.99467 0.04300
H 	H 	0.91609 0.11400 0.94135 0.04200
H 	H 	0.88699 0.15869 0.93572 0.03900
C 	C 	0.91988 0.42961 0.79101 0.02100
C 	C 	0.89451 0.44247 0.80309 -0.04600
C 	C 	0.87619 0.42695 0.82590 -0.02500
C 	C 	0.88317 0.39852 0.83671 -0.01200
C 	C 	0.90794 0.38523 0.82346 -0.02600
C 	C 	0.92625 0.40074 0.80066 -0.04600
C 	C 	0.86635 0.38401 0.86370 0.05600
C 	C 	0.85234 0.37178 0.88629 -0.11500
C 	C 	0.94050 0.44687 0.77148 -0.00500
C 	C 	0.95770 0.46141 0.75512 -0.03200
H 	H 	0.88939 0.46474 0.79565 0.04600
H 	H 	0.85703 0.43733 0.83592 0.04100
H 	H 	0.91341 0.36321 0.83160 0.04000
H 	H 	0.94577 0.39062 0.79132 0.04500
C 	C 	0.90206 0.39155 0.13592 -0.00500
C 	C 	0.93031 0.38360 0.14366 -0.02800
C 	C 	0.94584 0.39889 0.16959 -0.04400
C 	C 	0.93317 0.42219 0.18786 0.02000
C 	C 	0.90442 0.42905 0.18150 -0.04400
C 	C 	0.88890 0.41376 0.15559 -0.02800
C 	C 	0.95047 0.44110 0.20988 -0.00500
C 	C 	0.96489 0.45697 0.22834 -0.03300
C 	C 	0.88778 0.37934 0.10532 0.04700
C 	C 	0.87563 0.36927 0.07975 -0.09200
H 	H 	0.94058 0.36633 0.12872 0.04200
H 	H 	0.96801 0.39333 0.17451 0.04500
H 	H 	0.89443 0.44692 0.19567 0.04500
H 	H 	0.86700 0.41991 0.14993 0.04200
C 	C 	0.11304 0.74108 0.99220 -0.10500
C 	C 	0.11176 0.74990 0.95640 0.01900
C 	C 	0.09538 0.77413 0.94664 -0.06900
C 	C 	0.08012 0.78969 0.97254 0.02600
C 	C 	0.08033 0.78001 0.00799 -0.06800
C 	C 	0.09665 0.75582 0.01775 0.02200
C 	C 	0.06663 0.81787 0.96356 0.00200
C 	C 	0.08373 0.84149 0.95209 -0.04100
C 	C 	0.07309 0.86999 0.95334 -0.03100
C 	C 	0.04540 0.87505 0.96624 -0.01000
C 	C 	0.02724 0.85122 0.97369 -0.03200
C 	C 	0.03780 0.82267 0.97226 -0.04100
C 	C 	0.03841 0.90356 0.97984 0.05300
C 	C 	0.03380 0.92684 0.99367 -0.11700
H 	H 	0.12414 0.73860 0.93635 0.03500
H 	H 	0.09519 0.78129 0.91916 0.04800
H 	H 	0.06863 0.79186 0.02821 0.04500
H 	H 	0.09695 0.74888 0.04531 0.03200
H 	H 	0.10587 0.83801 0.94465 0.03800
H 	H 	0.08712 0.88826 0.94691 0.04000
H 	H 	0.00561 0.85489 0.98306 0.03900
H 	H 	0.02415 0.80451 0.98021 0.04000
C 	C 	0.10713 0.59137 0.84952 -0.00600
C 	C 	0.11338 0.56219 0.84134 -0.02800
C 	C 	0.09730 0.54727 0.81563 -0.04400
C 	C 	0.07490 0.56148 0.79802 0.02000
C 	C 	0.06983 0.59118 0.80464 -0.04400
C 	C 	0.08592 0.60610 0.83034 -0.02800
C 	C 	0.05514 0.54482 0.77655 -0.00500
C 	C 	0.03867 0.53074 0.75861 -0.03200
C 	C 	0.11965 0.60487 0.88048 0.04700
C 	C 	0.13000 0.61640 0.90634 -0.09300
H 	H 	0.12988 0.55070 0.85588 0.04200
H 	H 	0.10149 0.52436 0.81045 0.04500
H 	H 	0.05270 0.60239 0.79093 0.04500
H 	H 	0.08109 0.62873 0.83635 0.04200
C 	C 	0.10014 0.61068 0.15258 -0.01300
C 	C 	0.11292 0.58654 0.16902 -0.02600
C 	C 	0.09689 0.56874 0.19205 -0.04600
C 	C 	0.06804 0.57503 0.19869 0.02100
C 	C 	0.05570 0.59999 0.18362 -0.04600
C 	C 	0.07172 0.61779 0.16062 -0.02600
C 	C 	0.05039 0.55438 0.21786 -0.00600
C 	C 	0.03544 0.53723 0.23387 -0.03300
C 	C 	0.11511 0.62629 0.12485 0.05500
C 	C 	0.12740 0.63955 0.10158 -0.11700
H 	H 	0.13493 0.58100 0.16309 0.03900
H 	H 	0.10663 0.54956 0.20376 0.04500
H 	H 	0.03345 0.60508 0.18878 0.04500
H 	H 	0.06174 0.63650 0.14814 0.04000
C 	C 	0.75630 0.87522 0.03250 -0.10100
C 	C 	0.77532 0.87997 0.00408 0.02000
C 	C 	0.80060 0.89604 0.00938 -0.06700
C 	C 	0.80697 0.90761 0.04307 0.02800
C 	C 	0.78733 0.90399 0.07103 -0.06900
C 	C 	0.76215 0.88785 0.06579 0.02100
C 	C 	0.83495 0.92183 0.04969 0.00200
C 	C 	0.85410 0.90955 0.07418 -0.04100
C 	C 	0.88096 0.92249 0.07975 -0.03100
C 	C 	0.88887 0.94775 0.06088 -0.01100
C 	C 	0.86965 0.96028 0.03675 -0.02900
C 	C 	0.84274 0.94738 0.03117 -0.04000
C 	C 	0.91731 0.95975 0.06467 0.05600
C 	C 	0.94133 0.96940 0.06727 -0.12100
H 	H 	0.77101 0.87043 0.97824 0.03200
H 	H 	0.81559 0.89880 0.98760 0.04600
H 	H 	0.79187 0.91321 0.09699 0.04700
H 	H 	0.74738 0.88479 0.08775 0.03400
H 	H 	0.84831 0.88978 0.08853 0.03800
H 	H 	0.89575 0.91263 0.09836 0.03700
H 	H 	0.87565 0.97979 0.02200 0.04200
H 	H 	0.82805 0.95712 0.01236 0.04200
C 	C 	0.62510 0.89940 0.84662 -0.00500
C 	C 	0.63558 0.92491 0.83025 -0.02800
C 	C 	0.61881 0.93959 0.80521 -0.04400
C 	C 	0.59151 0.92881 0.79647 0.02000
C 	C 	0.58177 0.90238 0.81129 -0.04400
C 	C 	0.59853 0.88770 0.83631 -0.02800
C 	C 	0.57230 0.94647 0.77577 -0.00500
C 	C 	0.55613 0.96117 0.75844 -0.03200
C 	C 	0.63981 0.88736 0.87688 0.04700
C 	C 	0.65194 0.87709 0.90223 -0.09300
H 	H 	0.65618 0.93399 0.83790 0.04200
H 	H 	0.62658 0.95991 0.79367 0.04600
H 	H 	0.56077 0.89379 0.80449 0.04500
H 	H 	0.59036 0.86788 0.84868 0.04200
C 	C 	0.57601 0.91059 0.19477 0.02100
C 	C 	0.56237 0.89643 0.16631 -0.04600
C 	C 	0.57825 0.87933 0.14273 -0.02500
C 	C 	0.60785 0.87633 0.14751 -0.01300
C 	C 	0.62121 0.88918 0.17709 -0.02600
C 	C 	0.60531 0.90629 0.20068 -0.04600
C 	C 	0.62493 0.86333 0.11990 0.05500
C 	C 	0.63920 0.85244 0.09677 -0.11600
C 	C 	0.56065 0.93179 0.21552 -0.00600
C 	C 	0.54749 0.94947 0.23266 -0.03200
H 	H 	0.53968 0.89949 0.16170 0.04500
H 	H 	0.56775 0.86936 0.12002 0.04000
H 	H 	0.64406 0.88684 0.18108 0.03800
H 	H 	0.61597 0.91700 0.22277 0.04500
C 	C 	0.27910 0.12897 0.03092 -0.10100
C 	C 	0.27010 0.11826 0.06418 0.02000
C 	C 	0.24358 0.10415 0.06763 -0.06900
C 	C 	0.22581 0.10054 0.03787 0.02700
C 	C 	0.23508 0.11052 0.00443 -0.06700
C 	C 	0.26163 0.12463 0.00094 0.02000
C 	C 	0.19715 0.08719 0.04196 0.00300
C 	C 	0.17257 0.10388 0.03560 -0.04100
C 	C 	0.14538 0.09136 0.04001 -0.02900
C 	C 	0.14258 0.06212 0.05082 -0.01200
C 	C 	0.16708 0.04545 0.05736 -0.03000
C 	C 	0.19430 0.05794 0.05296 -0.04100
C 	C 	0.11461 0.04879 0.05340 0.05700
C 	C 	0.09122 0.03749 0.05480 -0.12200
H 	H 	0.28355 0.12106 0.08742 0.03300
H 	H 	0.23664 0.09641 0.09351 0.04600
H 	H 	0.22157 0.10762 0.98126 0.04700
H 	H 	0.26829 0.13277 0.97513 0.03400
H 	H 	0.17456 0.12654 0.02736 0.04000
H 	H 	0.12651 0.10434 0.03478 0.04100
H 	H 	0.16506 0.02277 0.06556 0.03700
H 	H 	0.21314 0.04489 0.05795 0.04100
C 	C 	0.41045 0.09588 0.84654 -0.00500
C 	C 	0.40079 0.06905 0.83277 -0.02800
C 	C 	0.41731 0.05414 0.80768 -0.04400
C 	C 	0.44354 0.06600 0.79627 0.02000
C 	C 	0.45234 0.09364 0.80845 -0.04400
C 	C 	0.43582 0.10855 0.83353 -0.02800
C 	C 	0.46286 0.04842 0.77562 -0.00500
C 	C 	0.47896 0.03361 0.75833 -0.03200
C 	C 	0.39640 0.10847 0.87695 0.04700
C 	C 	0.38475 0.11913 0.90241 -0.09200
H 	H 	0.38110 0.05920 0.84251 0.04200
H 	H 	0.41026 0.03287 0.79820 0.04600
H 	H 	0.47250 0.10306 0.79956 0.04500
H 	H 	0.44334 0.12938 0.84388 0.04200
C 	C 	0.45560 0.07412 0.19553 0.02100
C 	C 	0.42574 0.07158 0.19303 -0.04600
C 	C 	0.41063 0.08952 0.16959 -0.02600
C 	C 	0.42532 0.11008 0.14855 -0.01300
C 	C 	0.45503 0.11355 0.15225 -0.02600
C 	C 	0.47014 0.09560 0.17571 -0.04600
C 	C 	0.41038 0.12540 0.12081 0.05600
C 	C 	0.39748 0.13801 0.09773 -0.11600
C 	C 	0.47148 0.05300 0.21577 -0.00600
C 	C 	0.48475 0.03529 0.23274 -0.03200
H 	H 	0.41433 0.05512 0.20840 0.04500
H 	H 	0.38765 0.08680 0.16699 0.03900
H 	H 	0.46652 0.12949 0.13620 0.04000
H 	H 	0.49322 0.09780 0.17765 0.04500
C 	C 	0.46646 0.42793 0.95898 -0.07700
C 	C 	0.48916 0.40930 0.95019 0.01300
C 	C 	0.48374 0.37974 0.94280 -0.06300
C 	C 	0.45560 0.36869 0.94405 0.02500
C 	C 	0.43277 0.38799 0.94948 -0.06200
C 	C 	0.43819 0.41746 0.95694 0.01300
C 	C 	0.45033 0.33679 0.94536 0.00300
C 	C 	0.43053 0.32380 0.92198 -0.04100
C 	C 	0.41981 0.29568 0.92892 -0.03000
C 	C 	0.42898 0.28032 0.95907 -0.01000
C 	C 	0.45067 0.29217 0.98053 -0.03300
C 	C 	0.46134 0.32031 0.97371 -0.04000
C 	C 	0.41295 0.25518 0.97126 0.05500
C 	C 	0.39870 0.23505 0.98242 -0.12000
H 	H 	0.51108 0.41722 0.95136 0.03600
H 	H 	0.50150 0.36514 0.93800 0.04600
H 	H 	0.41094 0.37979 0.95009 0.04700
H 	H 	0.42050 0.43178 0.96314 0.03500
H 	H 	0.42226 0.33611 0.89964 0.04100
H 	H 	0.40329 0.28650 0.91192 0.04000
H 	H 	0.45812 0.28029 0.00366 0.04100
H 	H 	0.47682 0.32998 0.99175 0.04000
C 	C 	0.23626 0.63349 0.01815 -0.10200
C 	C 	0.26252 0.64680 0.00913 0.02300
C 	C 	0.28812 0.63159 0.01346 -0.07100
C 	C 	0.28776 0.60290 0.02677 0.03000
C 	C 	0.26153 0.58923 0.03485 -0.06900
C 	C 	0.23587 0.60444 0.03055 0.02300
C 	C 	0.31492 0.58749 0.03303 0.00100
C 	C 	0.32211 0.56308 0.01232 -0.03800
C 	C 	0.34886 0.54993 0.01636 -0.02800
C 	C 	0.36853 0.56106 0.04116 -0.01200
C 	C 	0.36105 0.58490 0.06258 -0.03100
C 	C 	0.33433 0.59807 0.05856 -0.04100
C 	C 	0.39707 0.54941 0.04282 0.05600
C 	C 	0.42115 0.54010 0.04362 -0.12100
H 	H 	0.26313 0.66902 0.99901 0.02700
H 	H 	0.30826 0.64218 0.00674 0.04800
H 	H 	0.26106 0.56704 0.04502 0.04900
H 	H 	0.21581 0.59389 0.03769 0.03800
H 	H 	0.30725 0.55473 0.99259 0.04000
H 	H 	0.35449 0.53148 0.99972 0.03900
H 	H 	0.37613 0.59359 0.08184 0.03600
H 	H 	0.32888 0.61677 0.07485 0.03800
C 	C 	0.57057 0.47201 0.05325 -0.10000
C 	C 	0.57403 0.45008 0.02739 0.02100
C 	C 	0.60085 0.43757 0.02179 -0.06900
C 	C 	0.62450 0.44673 0.04197 0.03000
C 	C 	0.62101 0.46798 0.06850 -0.07000
C 	C 	0.59416 0.48058 0.07415 0.02100
C 	C 	0.65307 0.43474 0.03442 -0.00100
C 	C 	0.66569 0.41498 0.05819 -0.03900
C 	C 	0.69142 0.40132 0.04927 -0.03300
C 	C 	0.70470 0.40741 0.01659 -0.00800
C 	C 	0.69259 0.42785 0.99335 -0.03700
C 	C 	0.66687 0.44148 0.00222 -0.03400
C 	C 	0.72966 0.39132 0.00587 0.05600
C 	C 	0.75026 0.37762 0.99634 -0.12400
H 	H 	0.55610 0.44319 0.01105 0.03500
H 	H 	0.60334 0.42101 0.00142 0.04800
H 	H 	0.63916 0.47504 0.08436 0.04700
H 	H 	0.59180 0.49718 0.09448 0.02700
H 	H 	0.65521 0.40968 0.08314 0.03900
H 	H 	0.70070 0.38559 0.06742 0.04000
H 	H 	0.70279 0.43274 0.96810 0.04100
H 	H 	0.65735 0.45683 0.98379 0.03900
C 	C 	0.64660 0.75767 0.98068 -0.10000
C 	C 	0.61777 0.75438 0.99058 0.01900
C 	C 	0.60307 0.72831 0.98314 -0.06800
C 	C 	0.61699 0.70542 0.96537 0.02800
C 	C 	0.64520 0.70955 0.95328 -0.06900
C 	C 	0.66000 0.73548 0.96111 0.02100
C 	C 	0.60333 0.67616 0.96331 0.00200
C 	C 	0.61659 0.65199 0.97926 -0.04100
C 	C 	0.60175 0.62545 0.98270 -0.03100
C 	C 	0.57351 0.62289 0.97047 -0.01100
C 	C 	0.56089 0.64637 0.95246 -0.03000
C 	C 	0.57579 0.67290 0.94874 -0.04000
C 	C 	0.55615 0.59837 0.98168 0.05400
C 	C 	0.54164 0.57851 0.99304 -0.11900
H 	H 	0.60717 0.77144 0.00551 0.03800
H 	H 	0.58129 0.72541 0.99253 0.04700
H 	H 	0.65598 0.69225 0.93897 0.04700
H 	H 	0.68210 0.73802 0.95275 0.02900
H 	H 	0.63787 0.65418 0.99046 0.03700
H 	H 	0.61170 0.60735 0.99651 0.03800
H 	H 	0.53911 0.64451 0.94272 0.04000
H 	H 	0.56554 0.69124 0.93580 0.04100
