data_crystal

_cell_length_a 28.21953
_cell_length_b 28.21783
_cell_length_c 16.14731
_cell_angle_alpha 90.00236
_cell_angle_beta  89.99858
_cell_angle_gamma 120.00048

_symmetry_space_group_name_	'P 1'
_symmetry_space_group_name_H-M	'P 1'

loop_
_symmetry_equiv_pos_as_xyz
  x,y,z

loop_
_atom_site_label
_atom_site_type_symbol
_atom_site_fract_x
_atom_site_fract_y
_atom_site_fract_z
_atom_site_charge
Zn	Zn	0.63330 0.47462 0.74622 1.20900
Zn	Zn	0.68424 0.50010 0.57334 1.21900
Zn	Zn	0.64655 0.59062 0.74596 1.21400
P 	P 	0.59022 0.51222 0.61167 0.30400
P 	P 	0.73680 0.56573 0.72806 0.30300
C 	C 	0.68234 0.70371 0.73311 0.26800
C 	C 	0.58189 0.50155 0.87045 0.29300
C 	C 	0.63909 0.39384 0.65670 0.29200
O 	O 	0.58069 0.45882 0.65839 -0.45000
O 	O 	0.69717 0.52988 0.79955 -0.45100
O 	O 	0.64843 0.54263 0.56704 -0.44300
O 	O 	0.71491 0.60396 0.69219 -0.42300
O 	O 	0.58376 0.55270 0.67365 -0.42000
O 	O 	0.74124 0.52776 0.65795 -0.42500
O 	O 	0.64606 0.65795 0.76939 -0.40900
O 	O 	0.64127 0.45338 0.40045 -0.25100
O 	O 	0.73115 0.71134 0.71618 -0.23600
O 	O 	0.62290 0.55246 0.85938 -0.42300
O 	O 	0.63589 0.41799 0.58867 -0.42200
O 	O 	0.58219 0.46025 0.83361 -0.44000
O 	O 	0.65783 0.42271 0.72438 -0.44600
C 	C 	0.69207 0.46538 0.41226 0.27900
O 	O 	0.72037 0.49814 0.47320 -0.41600
Zn	Zn	0.35766 0.47015 0.24623 1.20800
Zn	Zn	0.30672 0.44466 0.07334 1.21800
Zn	Zn	0.34442 0.35415 0.24597 1.21300
P 	P 	0.40074 0.43255 0.11168 0.30300
P 	P 	0.25416 0.37903 0.22806 0.30200
C 	C 	0.30863 0.24106 0.23313 0.26600
C 	C 	0.40907 0.44323 0.37046 0.29400
C 	C 	0.35186 0.55092 0.15670 0.29200
O 	O 	0.41026 0.48594 0.15840 -0.45000
O 	O 	0.29378 0.41489 0.29955 -0.45100
O 	O 	0.34253 0.40213 0.06704 -0.44300
O 	O 	0.27605 0.34080 0.19220 -0.42300
O 	O 	0.40720 0.39207 0.17366 -0.42000
O 	O 	0.24972 0.41700 0.15795 -0.42500
O 	O 	0.34491 0.28682 0.26940 -0.40900
O 	O 	0.34969 0.49137 0.90045 -0.25100
O 	O 	0.25982 0.23343 0.21620 -0.23900
O 	O 	0.36806 0.39232 0.35939 -0.42300
O 	O 	0.35507 0.52677 0.08867 -0.42100
O 	O 	0.40876 0.48453 0.33362 -0.43900
O 	O 	0.33313 0.52206 0.22439 -0.44600
C 	C 	0.29888 0.47937 0.91226 0.27900
O 	O 	0.27058 0.44661 0.97321 -0.41800
Zn	Zn	0.49324 0.10797 0.07958 1.20800
Zn	Zn	0.46775 0.13342 0.90670 1.21800
Zn	Zn	0.37725 0.00521 0.07932 1.20800
P 	P 	0.45564 0.02729 0.94503 0.28000
P 	P 	0.40212 0.12035 0.06143 0.30300
C 	C 	0.26417 0.92791 0.06649 0.26500
C 	C 	0.46632 0.02963 0.20380 0.26800
C 	C 	0.57400 0.19453 0.99004 0.29000
O 	O 	0.50903 0.07116 0.99175 -0.45200
O 	O 	0.43798 0.11658 0.13291 -0.45200
O 	O 	0.42522 0.05507 0.90040 -0.44600
O 	O 	0.36390 0.06023 0.02556 -0.42800
O 	O 	0.41517 0.98035 0.00701 -0.40300
O 	O 	0.44008 0.16276 0.99132 -0.42700
O 	O 	0.30993 0.93738 0.10276 -0.40200
O 	O 	0.51443 0.13714 0.73379 -0.25400
O 	O 	0.25653 0.96909 0.04959 -0.22800
O 	O 	0.41541 0.01973 0.19274 -0.42500
O 	O 	0.54985 0.16718 0.92202 -0.42200
O 	O 	0.50762 0.07124 0.16696 -0.43700
O 	O 	0.54514 0.18441 0.05774 -0.44500
C 	C 	0.50244 0.17596 0.74561 0.27900
O 	O 	0.46970 0.17151 0.80657 -0.41800
Zn	Zn	0.49773 0.83680 0.57956 1.20800
Zn	Zn	0.52322 0.81134 0.40668 1.21800
Zn	Zn	0.61372 0.93956 0.57931 1.21500
P 	P 	0.53533 0.91748 0.44502 0.30700
P 	P 	0.58885 0.82442 0.56141 0.30200
C 	C 	0.72680 0.01685 0.56648 0.24900
C 	C 	0.52465 0.91514 0.70380 0.30000
C 	C 	0.41697 0.75023 0.49003 0.29200
O 	O 	0.48194 0.87361 0.49174 -0.45000
O 	O 	0.55299 0.82819 0.63289 -0.45100
O 	O 	0.56575 0.88969 0.40039 -0.44100
O 	O 	0.62707 0.88453 0.52554 -0.42100
O 	O 	0.57580 0.96442 0.50700 -0.41500
O 	O 	0.55088 0.78200 0.49129 -0.42500
O 	O 	0.68104 0.00738 0.60274 -0.41400
O 	O 	0.47654 0.80762 0.23378 -0.24900
O 	O 	0.73444 0.97567 0.54957 -0.22000
O 	O 	0.57556 0.92504 0.69273 -0.42100
O 	O 	0.44112 0.77758 0.42200 -0.42200
O 	O 	0.48335 0.87353 0.66695 -0.44100
O 	O 	0.44583 0.76035 0.55772 -0.44600
C 	C 	0.48852 0.76881 0.24559 0.28000
O 	O 	0.52127 0.77325 0.30654 -0.41500
Zn	Zn	0.13106 0.61020 0.91288 1.20800
Zn	Zn	0.15654 0.66116 0.74002 1.21800
Zn	Zn	0.02831 0.62345 0.91260 1.21100
P 	P 	0.05041 0.56714 0.77831 0.30500
P 	P 	0.14345 0.71371 0.89475 0.30300
C 	C 	0.95101 0.65923 0.89973 0.26700
C 	C 	0.05270 0.55878 0.03709 0.29600
C 	C 	0.21764 0.61601 0.82338 0.29200
O 	O 	0.09426 0.55760 0.82504 -0.45100
O 	O 	0.13967 0.67408 0.96623 -0.45300
O 	O 	0.07820 0.62535 0.73369 -0.44400
O 	O 	0.08334 0.69183 0.85886 -0.42400
O 	O 	0.00346 0.56067 0.84028 -0.42300
O 	O 	0.18587 0.71816 0.82464 -0.42500
O 	O 	0.96049 0.62295 0.93601 -0.40700
O 	O 	0.16028 0.61821 0.56711 -0.25100
O 	O 	0.99219 0.70804 0.88279 -0.23500
O 	O 	0.04281 0.59979 0.02603 -0.42300
O 	O 	0.19030 0.61281 0.75535 -0.42200
O 	O 	0.09431 0.55908 0.00025 -0.43900
O 	O 	0.20750 0.63474 0.89108 -0.44700
C 	C 	0.19909 0.66901 0.57894 0.27900
O 	O 	0.19465 0.69731 0.63990 -0.41600
Zn	Zn	0.85990 0.33455 0.41287 1.20800
Zn	Zn	0.83442 0.28359 0.24000 1.21800
Zn	Zn	0.96265 0.32131 0.41260 1.21300
P 	P 	0.94055 0.37762 0.27831 0.30200
P 	P 	0.84751 0.23104 0.39473 0.30200
C 	C 	0.03995 0.28553 0.39973 0.26200
C 	C 	0.93825 0.38598 0.53708 0.29100
C 	C 	0.77332 0.32874 0.32337 0.29200
O 	O 	0.89669 0.38715 0.32504 -0.45000
O 	O 	0.85129 0.27068 0.46621 -0.45100
O 	O 	0.91277 0.31940 0.23368 -0.44300
O 	O 	0.90762 0.25293 0.35885 -0.42300
O 	O 	0.98750 0.38409 0.34028 -0.41800
O 	O 	0.80509 0.22659 0.32462 -0.42600
O 	O 	0.03047 0.32181 0.43601 -0.41100
O 	O 	0.83069 0.32654 0.06710 -0.25000
O 	O 	0.99877 0.23672 0.38279 -0.23400
O 	O 	0.94814 0.34496 0.52602 -0.42100
O 	O 	0.80066 0.33194 0.25534 -0.42200
O 	O 	0.89664 0.38567 0.50025 -0.43800
O 	O 	0.78345 0.31001 0.39106 -0.44700
C 	C 	0.79187 0.27574 0.07892 0.27900
O 	O 	0.79632 0.24744 0.13988 -0.41700
C 	C 	0.98271 0.45194 0.72920 -0.01100
H 	H 	0.97331 0.43686 0.79399 0.04700
C 	C 	0.01198 0.43517 0.66400 -0.01200
H 	H 	0.02628 0.40542 0.67400 0.04300
C 	C 	0.94012 0.44599 0.66369 -0.00600
H 	H 	0.89519 0.42484 0.67372 0.04300
C 	C 	0.96968 0.42974 0.59921 -0.05700
C 	C 	0.01868 0.51210 0.70332 -0.02800
C 	C 	0.97651 0.50668 0.63878 -0.01100
H 	H 	0.96222 0.53645 0.62895 0.04600
C 	C 	0.00590 0.49011 0.57374 -0.01400
H 	H 	0.01540 0.50541 0.50906 0.04100
C 	C 	0.04866 0.49620 0.63945 -0.02200
H 	H 	0.09363 0.51730 0.63041 0.05400
C 	C 	0.98505 0.45465 0.07374 0.00800
H 	H 	0.97555 0.43935 0.00906 0.03900
C 	C 	0.94230 0.44855 0.13945 -0.03500
H 	H 	0.89732 0.42745 0.13042 0.05800
C 	C 	0.01444 0.43808 0.13877 -0.03400
H 	H 	0.02874 0.40831 0.12894 0.04800
C 	C 	0.97227 0.43266 0.20332 -0.00800
C 	C 	0.02127 0.51501 0.09922 -0.07800
C 	C 	0.05083 0.49876 0.16369 0.00700
H 	H 	0.09576 0.51992 0.17372 0.04000
C 	C 	0.00825 0.49282 0.22920 -0.03400
H 	H 	0.01764 0.50790 0.29400 0.04900
C 	C 	0.97897 0.50959 0.16401 0.01100
H 	H 	0.96467 0.53933 0.17402 0.04100
C 	C 	0.30132 0.70052 0.60401 -0.01100
H 	H 	0.29751 0.69513 0.67229 0.03800
C 	C 	0.33686 0.75518 0.55886 -0.00900
H 	H 	0.36312 0.79524 0.58950 0.03500
C 	C 	0.32160 0.67146 0.54507 -0.00900
H 	H 	0.33519 0.64233 0.56417 0.03800
C 	C 	0.35702 0.72607 0.50005 -0.06700
C 	C 	0.25434 0.68795 0.54373 -0.05800
C 	C 	0.27393 0.65846 0.48462 -0.01400
H 	H 	0.24734 0.61836 0.45442 0.04300
C 	C 	0.31045 0.71363 0.43892 -0.00800
H 	H 	0.31504 0.71921 0.37076 0.04100
C 	C 	0.28958 0.74251 0.49850 -0.01000
H 	H 	0.27590 0.77163 0.47982 0.04200
C 	C 	0.77798 0.12650 0.56153 -0.00500
H 	H 	0.76852 0.13369 0.62547 0.04200
C 	C 	0.75891 0.14184 0.48145 -0.01900
H 	H 	0.73406 0.16234 0.47886 0.05000
C 	C 	0.83610 0.14971 0.52441 -0.02400
H 	H 	0.87523 0.17666 0.55685 0.04500
C 	C 	0.81661 0.16437 0.44465 -0.01600
C 	C 	0.76130 0.07039 0.52358 -0.05600
C 	C 	0.81905 0.09265 0.48682 -0.00700
H 	H 	0.84359 0.07186 0.48968 0.04400
C 	C 	0.80004 0.10847 0.40624 -0.02200
H 	H 	0.80951 0.10159 0.34214 0.04700
C 	C 	0.74206 0.08537 0.44369 -0.00900
H 	H 	0.70290 0.05871 0.41106 0.03600
C 	C 	0.50280 0.96198 0.24046 -0.02300
H 	H 	0.50859 0.95248 0.17578 0.04900
C 	C 	0.46614 0.91922 0.30617 -0.01700
H 	H 	0.44227 0.87424 0.29713 0.05400
C 	C 	0.54876 0.99137 0.30549 0.02500
H 	H 	0.59282 0.00567 0.29566 0.02500
C 	C 	0.51201 0.94920 0.37004 -0.03300
C 	C 	0.47865 0.99820 0.26594 -0.02500
C 	C 	0.52447 0.02777 0.33040 -0.05400
H 	H 	0.54825 0.07270 0.34043 0.05100
C 	C 	0.48783 0.98518 0.39592 0.00600
H 	H 	0.48214 0.99458 0.46071 0.04500
C 	C 	0.44178 0.95590 0.33073 -0.01700
H 	H 	0.39774 0.94160 0.34074 0.04900
C 	C 	0.46650 0.91700 0.83040 0.01200
H 	H 	0.44273 0.87207 0.84043 0.03900
C 	C 	0.44222 0.95339 0.80549 -0.03800
H 	H 	0.39815 0.93910 0.79566 0.05300
C 	C 	0.50314 0.95959 0.89592 -0.04200
H 	H 	0.50883 0.95019 0.96071 0.05500
C 	C 	0.47896 0.99556 0.87004 0.01600
C 	C 	0.51232 0.94657 0.76593 -0.08400
C 	C 	0.54919 0.98887 0.83072 0.04300
H 	H 	0.59323 0.00317 0.84073 0.02100
C 	C 	0.52483 0.02554 0.80617 -0.07700
H 	H 	0.54870 0.07052 0.79714 0.06500
C 	C 	0.48817 0.98279 0.74046 0.02500
H 	H 	0.48237 0.99229 0.67578 0.03800
C 	C 	0.68051 0.23113 0.93892 -0.00800
H 	H 	0.67593 0.22555 0.87076 0.04100
C 	C 	0.70139 0.20225 0.99849 -0.01300
H 	H 	0.71506 0.17312 0.97980 0.04100
C 	C 	0.71703 0.28630 0.98463 -0.01600
H 	H 	0.74363 0.32641 0.95443 0.04300
C 	C 	0.73662 0.25681 0.04372 -0.05600
C 	C 	0.63394 0.21869 0.00006 -0.06600
C 	C 	0.66938 0.27330 0.04508 -0.00800
H 	H 	0.65578 0.30243 0.06420 0.03800
C 	C 	0.68966 0.24423 0.10401 -0.01200
H 	H 	0.69346 0.24963 0.17230 0.03800
C 	C 	0.65411 0.18958 0.05886 -0.00900
H 	H 	0.62785 0.14952 0.08949 0.03300
C 	C 	0.23205 0.80291 0.98147 -0.02000
H 	H 	0.25690 0.78241 0.97889 0.05000
C 	C 	0.21299 0.81826 0.06155 -0.00400
H 	H 	0.22244 0.81107 0.12549 0.04400
C 	C 	0.24890 0.85938 0.94371 -0.01100
H 	H 	0.28807 0.88604 0.91107 0.04000
C 	C 	0.22967 0.87437 0.02359 -0.05000
C 	C 	0.17435 0.78039 0.94468 -0.02000
C 	C 	0.19092 0.83628 0.90627 -0.01900
H 	H 	0.18146 0.84316 0.84217 0.04900
C 	C 	0.17192 0.85211 0.98684 -0.01300
H 	H 	0.14738 0.87291 0.98970 0.04900
C 	C 	0.15487 0.79505 0.02443 -0.01800
H 	H 	0.11573 0.76810 0.05687 0.04500
C 	C 	0.13159 0.30392 0.23954 -0.02300
H 	H 	0.12473 0.28759 0.17544 0.04800
C 	C 	0.10849 0.33881 0.27698 -0.00800
H 	H 	0.08184 0.35131 0.24433 0.03800
C 	C 	0.11576 0.26909 0.32011 -0.00500
H 	H 	0.09497 0.22375 0.32296 0.04500
C 	C 	0.09349 0.30457 0.35685 -0.05800
C 	C 	0.18748 0.34325 0.27797 -0.01600
C 	C 	0.17281 0.30910 0.35772 -0.02500
H 	H 	0.19976 0.29691 0.39017 0.04500
C 	C 	0.14959 0.34400 0.39483 -0.00400
H 	H 	0.15677 0.36064 0.45878 0.04200
C 	C 	0.16495 0.37842 0.31476 -0.02000
H 	H 	0.18545 0.42377 0.31218 0.05100
C 	C 	0.29641 0.59942 0.87843 -0.00800
H 	H 	0.32552 0.64214 0.89755 0.03800
C 	C 	0.30942 0.56477 0.81798 -0.01400
H 	H 	0.34953 0.57829 0.78778 0.04300
C 	C 	0.26735 0.55007 0.93735 -0.01400
H 	H 	0.27274 0.55165 0.00563 0.04100
C 	C 	0.27994 0.51568 0.87706 -0.05800
C 	C 	0.24180 0.58023 0.83339 -0.06800
C 	C 	0.21270 0.53095 0.89219 -0.00800
H 	H 	0.17263 0.51713 0.92282 0.03300
C 	C 	0.22539 0.49635 0.83182 -0.01100
H 	H 	0.19627 0.45354 0.81312 0.04100
C 	C 	0.25426 0.54611 0.77226 -0.00700
H 	H 	0.24869 0.54512 0.70409 0.04100
C 	C 	0.47153 0.67832 0.16515 -0.01000
H 	H 	0.51433 0.69200 0.14646 0.04300
C 	C 	0.42177 0.65744 0.10558 -0.00700
H 	H 	0.42277 0.65285 0.03742 0.04200
C 	C 	0.43693 0.63104 0.22551 -0.00900
H 	H 	0.45073 0.60478 0.25615 0.03500
C 	C 	0.38765 0.61086 0.16671 -0.06700
C 	C 	0.45221 0.71355 0.21038 -0.05800
C 	C 	0.41782 0.66658 0.27067 -0.01100
H 	H 	0.41623 0.67038 0.33896 0.03800
C 	C 	0.36847 0.64629 0.21174 -0.00900
H 	H 	0.32575 0.63270 0.23085 0.03900
C 	C 	0.40313 0.69396 0.15129 -0.01400
H 	H 	0.38962 0.72055 0.12109 0.04400
C 	C 	0.33220 0.13177 0.19110 -0.02500
H 	H 	0.32001 0.09263 0.22354 0.04200
C 	C 	0.29219 0.14881 0.15349 -0.00500
H 	H 	0.24685 0.12426 0.15635 0.04400
C 	C 	0.36710 0.18989 0.22820 -0.00400
H 	H 	0.38374 0.19936 0.29215 0.04200
C 	C 	0.32767 0.20657 0.19024 -0.05900
C 	C 	0.36634 0.15124 0.11134 -0.01700
C 	C 	0.40151 0.20895 0.14813 -0.02000
H 	H 	0.44686 0.23381 0.14555 0.05100
C 	C 	0.36190 0.22580 0.11036 -0.00700
H 	H 	0.37440 0.26496 0.07772 0.03900
C 	C 	0.32702 0.16781 0.07292 -0.02300
H 	H 	0.31068 0.15834 0.00882 0.04700
C 	C 	0.73670 0.39863 0.27225 -0.00800
H 	H 	0.74227 0.39962 0.20408 0.04200
C 	C 	0.76557 0.44840 0.33181 -0.01000
H 	H 	0.79468 0.49120 0.31312 0.04300
C 	C 	0.68153 0.37998 0.31797 -0.01400
H 	H 	0.64142 0.36646 0.28777 0.04300
C 	C 	0.71101 0.42907 0.37705 -0.05800
C 	C 	0.74915 0.36452 0.33338 -0.06800
C 	C 	0.69455 0.34533 0.37841 -0.00900
H 	H 	0.66543 0.30261 0.39753 0.03800
C 	C 	0.72360 0.39468 0.43734 -0.01100
H 	H 	0.71822 0.39310 0.50562 0.03800
C 	C 	0.77825 0.41380 0.39218 -0.00900
H 	H 	0.81832 0.42762 0.42281 0.03500
C 	C 	0.81815 0.63567 0.85772 -0.02500
H 	H 	0.79121 0.64785 0.89016 0.04600
C 	C 	0.87520 0.67567 0.82010 -0.00400
H 	H 	0.89600 0.72101 0.82296 0.04800
C 	C 	0.84136 0.60076 0.89483 -0.00300
H 	H 	0.83419 0.58412 0.95877 0.04300
C 	C 	0.89747 0.64018 0.85685 -0.05800
C 	C 	0.80348 0.60151 0.77797 -0.01600
C 	C 	0.82601 0.56634 0.81475 -0.02000
H 	H 	0.80551 0.52099 0.81218 0.05100
C 	C 	0.88247 0.60595 0.77697 -0.00700
H 	H 	0.90912 0.59344 0.74433 0.04000
C 	C 	0.85937 0.64083 0.73954 -0.02200
H 	H 	0.86623 0.65717 0.67543 0.05000
C 	C 	0.53270 0.52610 0.99738 -0.00500
H 	H 	0.56245 0.57015 0.00739 0.04500
C 	C 	0.51593 0.48005 0.06257 -0.01900
H 	H 	0.53102 0.48574 0.12737 0.04800
C 	C 	0.47167 0.50174 0.97283 -0.03000
H 	H 	0.45057 0.52562 0.96379 0.05600
C 	C 	0.45578 0.45587 0.03670 -0.01500
C 	C 	0.53813 0.48922 0.93259 -0.06700
C 	C 	0.47777 0.46508 0.90711 -0.00200
H 	H 	0.46247 0.45928 0.84243 0.04000
C 	C 	0.46120 0.41912 0.97214 -0.02400
H 	H 	0.43142 0.37505 0.96231 0.04600
C 	C 	0.52188 0.44340 0.99705 -0.00300
H 	H 	0.54303 0.41962 0.00708 0.04400
C 	C 	0.46909 0.50137 0.49706 0.00100
H 	H 	0.44794 0.52516 0.50709 0.04100
C 	C 	0.52977 0.52565 0.47214 -0.02400
H 	H 	0.55954 0.56972 0.46231 0.04700
C 	C 	0.47503 0.46473 0.56257 -0.02400
H 	H 	0.45995 0.45904 0.62736 0.04800
C 	C 	0.53518 0.48890 0.53669 -0.01700
C 	C 	0.45283 0.45556 0.43259 -0.06900
C 	C 	0.45825 0.41868 0.49737 0.00100
H 	H 	0.42850 0.37463 0.50738 0.04100
C 	C 	0.51928 0.44303 0.47282 -0.02900
H 	H 	0.54038 0.41915 0.46378 0.05600
C 	C 	0.51319 0.47969 0.40711 -0.00200
H 	H 	0.52849 0.48549 0.34243 0.04000
C 	C 	0.58783 0.25080 0.65130 -0.01400
H 	H 	0.60134 0.22421 0.62109 0.04200
C 	C 	0.62249 0.29847 0.71173 -0.00900
H 	H 	0.66521 0.31207 0.73084 0.03800
C 	C 	0.56918 0.28732 0.60559 -0.00800
H 	H 	0.56818 0.29190 0.53742 0.04100
C 	C 	0.60330 0.33390 0.66671 -0.06700
C 	C 	0.53875 0.23121 0.71040 -0.05900
C 	C 	0.51942 0.26644 0.66517 -0.01100
H 	H 	0.47662 0.25276 0.64649 0.04100
C 	C 	0.55403 0.31372 0.72553 -0.00900
H 	H 	0.54023 0.33998 0.75617 0.03400
C 	C 	0.57315 0.27819 0.77068 -0.01000
H 	H 	0.57474 0.27439 0.83896 0.03800
C 	C 	0.66395 0.77695 0.57290 -0.02200
H 	H 	0.68029 0.78642 0.50880 0.05000
C 	C 	0.62907 0.71896 0.61034 -0.00700
H 	H 	0.61656 0.67980 0.57770 0.03900
C 	C 	0.69878 0.79595 0.65347 -0.00400
H 	H 	0.74411 0.82050 0.65633 0.04900
C 	C 	0.66329 0.73820 0.69022 -0.05800
C 	C 	0.62463 0.79352 0.61132 -0.01500
C 	C 	0.65877 0.81300 0.69107 -0.02500
H 	H 	0.67095 0.85214 0.72352 0.04700
C 	C 	0.62387 0.75488 0.72818 -0.00300
H 	H 	0.60722 0.74542 0.79213 0.04300
C 	C 	0.58945 0.73582 0.64811 -0.02000
H 	H 	0.54411 0.71096 0.64553 0.05100
