data_crystal

_cell_length_a 27.02230
_cell_length_b 28.35585
_cell_length_c 38.75607
_cell_angle_alpha 60.95853
_cell_angle_beta  118.74814
_cell_angle_gamma 133.25595

_symmetry_space_group_name_	'P 1'
_symmetry_space_group_name_H-M	'P 1'

loop_
_symmetry_equiv_pos_as_xyz
  x,y,z

loop_
_atom_site_label
_atom_site_type_symbol
_atom_site_fract_x
_atom_site_fract_y
_atom_site_fract_z
_atom_site_charge
C 	C 	0.69730 0.30108 0.99907 0.12400
N 	N 	0.62944 0.27545 0.99192 -0.14600
C 	C 	0.61353 0.30336 0.00139 0.12400
N 	N 	0.66543 0.35966 0.01506 -0.14500
C 	C 	0.73315 0.38694 0.02074 0.12600
N 	N 	0.74918 0.35772 0.01273 -0.14500
C 	C 	0.71053 0.33486 0.47451 0.12100
N 	N 	0.75531 0.39405 0.48535 -0.14600
C 	C 	0.73036 0.41467 0.49403 0.12500
N 	N 	0.66160 0.37534 0.49304 -0.14400
C 	C 	0.61631 0.31877 0.47996 0.12600
N 	N 	0.64070 0.29841 0.47072 -0.14600
C 	C 	0.26691 0.61947 0.23413 0.12500
N 	N 	0.33590 0.64627 0.24448 -0.14400
C 	C 	0.35696 0.61981 0.23814 0.12600
N 	N 	0.30902 0.56707 0.22100 -0.14300
C 	C 	0.24009 0.53960 0.21097 0.12600
N 	N 	0.21875 0.56542 0.21781 -0.14400
C 	C 	0.29126 0.63626 0.74001 0.12500
N 	N 	0.35833 0.68914 0.73742 -0.14300
C 	C 	0.39843 0.68275 0.73101 0.12800
N 	N 	0.37259 0.62247 0.72954 -0.14400
C 	C 	0.30435 0.57089 0.72911 0.12700
N 	N 	0.26371 0.57759 0.73476 -0.14500
Co	Co	0.05057 0.00346 0.07993 1.16100
Co	Co	0.94668 0.91411 0.17605 1.18300
Co	Co	0.97912 0.03264 0.10791 1.15800
Co	Co	0.01839 0.88461 0.14789 1.19600
C 	C 	0.20257 0.06968 0.09123 0.30600
Co	Co	0.11212 0.92620 0.09499 1.17800
Co	Co	0.90481 0.00252 0.16911 1.13500
C 	C 	0.98067 0.78824 0.10869 0.27400
O 	O 	0.88474 0.06021 0.11283 -0.42600
O 	O 	0.94268 0.97919 0.14809 -0.73800
C 	C 	0.86656 0.05108 0.07722 0.30400
O 	O 	0.02451 0.06405 0.06494 -0.47500
O 	O 	0.96965 0.85148 0.18966 -0.48300
C 	C 	0.80047 0.85677 0.17702 0.30200
O 	O 	0.97423 0.94377 0.11875 -0.57700
C 	C 	0.03857 0.13258 0.15130 0.31100
C 	C 	0.04236 0.97178 0.01265 0.27500
C 	C 	0.14235 0.88318 0.18636 0.31900
O 	O 	0.89127 0.02964 0.07087 -0.42000
O 	O 	0.10123 0.97926 0.03490 -0.37700
O 	O 	0.01244 0.98223 0.02420 -0.34900
O 	O 	0.81091 0.91482 0.15582 -0.38000
O 	O 	0.84342 0.84424 0.18242 -0.38400
O 	O 	0.00412 0.08843 0.18018 -0.40200
O 	O 	0.05299 0.11557 0.13278 -0.40300
O 	O 	0.12949 0.87133 0.15315 -0.40500
O 	O 	0.11408 0.90677 0.18649 -0.39400
O 	O 	0.05247 0.93690 0.10688 -0.73900
C 	C 	0.98422 0.95855 0.24565 0.24000
O 	O 	0.92433 0.95059 0.22842 -0.38200
O 	O 	0.00951 0.95315 0.22697 -0.35200
O 	O 	0.20041 0.01539 0.11003 -0.42800
O 	O 	0.15825 0.07338 0.09370 -0.41500
O 	O 	0.01710 0.83869 0.08127 -0.37200
O 	O 	0.96574 0.79652 0.13265 -0.39300
Co	Co	0.06654 0.01235 0.58098 1.15500
Co	Co	0.94445 0.94321 0.66075 1.19600
Co	Co	0.02932 0.07469 0.61074 1.18600
Co	Co	0.98525 0.88248 0.63271 1.17400
C 	C 	0.19701 0.04993 0.57728 0.24200
Co	Co	0.08463 0.89951 0.59642 1.17300
Co	Co	0.97235 0.06768 0.67102 1.15200
C 	C 	0.93098 0.79326 0.58603 0.31200
O 	O 	0.99461 0.14771 0.62078 -0.42300
O 	O 	0.98932 0.02596 0.64961 -0.80800
C 	C 	0.95830 0.13599 0.58490 0.31000
O 	O 	0.06591 0.09060 0.56804 -0.48600
O 	O 	0.91774 0.85812 0.65829 -0.47600
C 	C 	0.82822 0.95126 0.64309 0.36300
O 	O 	0.02715 0.98383 0.63272 -0.53900
C 	C 	0.12232 0.16359 0.67140 0.30300
C 	C 	0.04067 0.96932 0.51256 0.28200
C 	C 	0.08331 0.83887 0.68396 0.31200
O 	O 	0.95780 0.09809 0.57398 -0.41700
O 	O 	0.03952 0.91577 0.53468 -0.37600
O 	O 	0.02181 0.99080 0.52453 -0.37300
O 	O 	0.86755 0.01499 0.64235 -0.44900
O 	O 	0.84869 0.92839 0.63389 -0.40300
O 	O 	0.07839 0.11570 0.69542 -0.39700
O 	O 	0.11624 0.15379 0.63870 -0.37900
O 	O 	0.12422 0.88539 0.65834 -0.38300
O 	O 	0.02690 0.83152 0.68026 -0.36900
O 	O 	0.04945 0.93705 0.60739 -0.73400
C 	C 	0.97006 0.95578 0.74264 0.31900
O 	O 	0.94431 0.99020 0.72245 -0.39200
O 	O 	0.97284 0.92955 0.72373 -0.39300
O 	O 	0.18104 0.99012 0.58696 -0.34000
O 	O 	0.17174 0.06044 0.59233 -0.40200
O 	O 	0.99210 0.80374 0.60457 -0.42200
O 	O 	0.91717 0.82677 0.58985 -0.41000
C 	C 	0.01339 0.95734 0.97272 0.03000
C 	C 	0.02586 0.00922 0.93666 -0.04900
C 	C 	0.01453 0.99791 0.90112 0.11300
C 	C 	0.99300 0.93657 0.90122 -0.09700
C 	C 	0.97952 0.88437 0.93714 0.11700
C 	C 	0.98720 0.89459 0.97197 -0.11600
N 	N 	0.04969 0.07016 0.93604 -0.17600
H 	H 	0.02396 0.03753 0.87348 -0.02400
C 	C 	0.98611 0.92829 0.86362 0.01800
N 	N 	0.96032 0.82488 0.93863 -0.20400
H 	H 	0.97696 0.85467 0.99944 0.06100
C 	C 	0.04680 0.96120 0.85192 -0.08600
C 	C 	0.04262 0.96305 0.81368 0.15700
C 	C 	0.97654 0.93095 0.78693 -0.14000
C 	C 	0.91593 0.89050 0.80099 -0.00800
C 	C 	0.91975 0.89136 0.83820 0.04700
H 	H 	0.09752 0.98744 0.87199 0.07200
N 	N 	0.10217 0.99704 0.80246 -0.17800
H 	H 	0.86521 0.86385 0.78101 0.03800
N 	N 	0.85976 0.85851 0.84861 -0.18900
H 	H 	0.15104 0.02288 0.82166 0.04400
H 	H 	0.10042 0.99653 0.77512 0.11000
H 	H 	0.81116 0.83115 0.82972 0.08200
H 	H 	0.86053 0.86053 0.87504 0.08900
H 	H 	0.94920 0.78628 0.96502 0.08200
H 	H 	0.95746 0.81666 0.91403 0.08700
H 	H 	0.05664 0.07970 0.96144 0.07800
H 	H 	0.06062 0.10870 0.90961 0.07400
C 	C 	0.04743 0.99481 0.47026 -0.02700
C 	C 	0.98840 0.98108 0.43697 0.10200
C 	C 	0.98895 0.98090 0.40086 -0.12400
C 	C 	0.04705 0.99416 0.39737 0.07900
C 	C 	0.10813 0.01372 0.42917 0.01100
C 	C 	0.10788 0.01472 0.46497 -0.08400
N 	N 	0.93088 0.96719 0.43948 -0.20200
H 	H 	0.94311 0.96835 0.37586 0.06300
C 	C 	0.04184 0.98400 0.36113 0.01500
N 	N 	0.16632 0.02922 0.42626 -0.18800
H 	H 	0.15270 0.02437 0.49044 0.03900
C 	C 	0.07439 0.03973 0.33034 -0.11600
C 	C 	0.06602 0.03150 0.29447 0.04800
C 	C 	0.01884 0.96691 0.28758 0.02200
C 	C 	0.99020 0.91109 0.31940 -0.11500
C 	C 	0.00226 0.91897 0.35648 0.12900
H 	H 	0.10691 0.08954 0.33447 0.05200
N 	N 	0.10352 0.08561 0.26685 -0.19200
H 	H 	0.95548 0.86138 0.31459 0.05900
N 	N 	0.97538 0.86410 0.38722 -0.21200
H 	H 	0.13539 0.13370 0.27085 0.08300
H 	H 	0.10437 0.08001 0.24247 0.08600
H 	H 	0.94426 0.81626 0.38304 0.08200
H 	H 	0.98682 0.86832 0.41586 0.08500
H 	H 	0.21143 0.04449 0.44973 0.07500
H 	H 	0.16745 0.02592 0.40102 0.07200
H 	H 	0.93044 0.97221 0.46420 0.09800
H 	H 	0.88637 0.95358 0.41558 0.08700
C 	C 	0.16683 0.23238 0.67505 -0.11400
C 	C 	0.21188 0.24878 0.71266 0.12400
C 	C 	0.23306 0.30457 0.72038 -0.10000
C 	C 	0.20790 0.34253 0.69165 0.00200
C 	C 	0.16582 0.32796 0.65320 0.06000
C 	C 	0.15055 0.27620 0.64437 -0.02300
N 	N 	0.23531 0.21154 0.74121 -0.20400
H 	H 	0.26788 0.31760 0.74910 0.05500
C 	C 	0.22999 0.40030 0.70096 -0.00800
N 	N 	0.13720 0.36113 0.62552 -0.19200
H 	H 	0.11929 0.26566 0.61474 0.05500
C 	C 	0.27412 0.46484 0.67915 -0.08600
C 	C 	0.29013 0.52011 0.68400 0.10100
C 	C 	0.27242 0.51222 0.71633 -0.05100
C 	C 	0.22927 0.44783 0.73880 -0.05300
C 	C 	0.20544 0.39142 0.73029 0.06900
H 	H 	0.29184 0.47151 0.65622 0.05500
N 	N 	0.31848 0.57953 0.65621 -0.19900
H 	H 	0.21421 0.44152 0.76293 0.04800
N 	N 	0.15845 0.32933 0.74981 -0.19400
H 	H 	0.33618 0.58642 0.63426 0.08500
H 	H 	0.31747 0.61712 0.65390 0.09400
H 	H 	0.14244 0.32337 0.77227 0.08000
H 	H 	0.13539 0.28662 0.74195 0.08400
H 	H 	0.10820 0.35149 0.59676 0.08900
H 	H 	0.14011 0.39395 0.63287 0.08900
H 	H 	0.22423 0.17268 0.73513 0.08500
H 	H 	0.26684 0.22257 0.76946 0.07900
C 	C 	0.75419 0.91014 0.64327 -0.12300
C 	C 	0.71832 0.93941 0.62519 0.14300
C 	C 	0.66139 0.90987 0.63926 -0.09900
C 	C 	0.63470 0.84766 0.66738 0.00800
C 	C 	0.66259 0.81262 0.67942 0.05600
C 	C 	0.72388 0.84534 0.66847 -0.01700
N 	N 	0.73706 0.99447 0.59360 -0.14400
H 	H 	0.63728 0.93488 0.62796 0.06800
C 	C 	0.57734 0.81961 0.68367 -0.00800
N 	N 	0.63070 0.74788 0.70113 -0.19100
H 	H 	0.74934 0.82131 0.68077 0.03600
C 	C 	0.51223 0.80254 0.65718 -0.08400
C 	C 	0.45404 0.76618 0.67239 0.10200
C 	C 	0.46025 0.74251 0.71482 -0.04900
C 	C 	0.52663 0.76575 0.74110 -0.05300
C 	C 	0.58591 0.80623 0.72570 0.07400
H 	H 	0.50644 0.81610 0.62475 0.05600
N 	N 	0.39209 0.75307 0.64621 -0.20000
H 	H 	0.53183 0.75006 0.77360 0.04800
N 	N 	0.65044 0.83156 0.75125 -0.19400
H 	H 	0.38710 0.76832 0.61488 0.08600
H 	H 	0.34907 0.72968 0.65665 0.09200
H 	H 	0.65601 0.81899 0.78246 0.08500
H 	H 	0.69566 0.86611 0.74023 0.09100
H 	H 	0.65352 0.72354 0.71153 0.08300
H 	H 	0.58150 0.72013 0.70610 0.08900
H 	H 	0.77207 0.01147 0.57870 0.06200
H 	H 	0.71325 0.01826 0.58198 0.04300
C 	C 	0.24515 0.64667 0.74032 -0.04800
C 	C 	0.23034 0.62933 0.77683 0.10000
C 	C 	0.19480 0.64915 0.77681 -0.08300
C 	C 	0.17392 0.68569 0.74105 -0.01000
C 	C 	0.18647 0.70071 0.70421 0.07600
C 	C 	0.22115 0.68015 0.70424 -0.05200
N 	N 	0.25041 0.59423 0.81194 -0.19900
H 	H 	0.18454 0.63720 0.80485 0.05400
C 	C 	0.14440 0.71283 0.74305 0.01100
N 	N 	0.16680 0.73605 0.66898 -0.19400
H 	H 	0.23184 0.69250 0.67624 0.04800
C 	C 	0.19020 0.77533 0.75186 -0.10400
C 	C 	0.16714 0.81439 0.73879 0.14000
C 	C 	0.09813 0.79101 0.71565 -0.12500
C 	C 	0.04944 0.72365 0.71430 0.01200
C 	C 	0.07213 0.68395 0.72809 0.04700
H 	H 	0.24482 0.79555 0.76616 0.06300
N 	N 	0.21172 0.87492 0.74744 -0.20400
H 	H 	0.99521 0.70406 0.69900 0.02200
N 	N 	0.02507 0.61947 0.72523 -0.17600
H 	H 	0.26355 0.89327 0.76319 0.09500
H 	H 	0.19444 0.90304 0.73991 0.10400
H 	H 	0.97208 0.59924 0.71251 0.06500
H 	H 	0.04040 0.58831 0.73681 0.08800
H 	H 	0.17601 0.74643 0.64200 0.08600
H 	H 	0.14293 0.75414 0.66790 0.08900
H 	H 	0.27521 0.57723 0.81276 0.09100
H 	H 	0.24026 0.58263 0.83889 0.08500
C 	C 	0.07293 0.20359 0.14569 -0.12500
C 	C 	0.13730 0.24079 0.17196 0.13500
C 	C 	0.15633 0.29777 0.17687 -0.10400
C 	C 	0.11277 0.31876 0.15537 0.00900
C 	C 	0.05183 0.28538 0.12604 0.04700
C 	C 	0.03318 0.22861 0.12110 0.00700
N 	N 	0.18092 0.22210 0.19248 -0.20600
H 	H 	0.20445 0.32503 0.19810 0.05700
C 	C 	0.13056 0.37439 0.16487 -0.01000
N 	N 	0.01008 0.30627 0.10340 -0.17800
H 	H 	0.98491 0.20117 0.10002 0.01800
C 	C 	0.16690 0.43929 0.14065 -0.08400
C 	C 	0.19473 0.49435 0.15258 0.10100
C 	C 	0.18947 0.48447 0.19048 -0.04900
C 	C 	0.14750 0.41932 0.21274 -0.05400
C 	C 	0.11730 0.36393 0.20007 0.07200
H 	H 	0.17462 0.44709 0.11284 0.05500
N 	N 	0.22696 0.55659 0.12779 -0.19800
H 	H 	0.14148 0.41166 0.24112 0.04700
N 	N 	0.07636 0.30113 0.22195 -0.19500
H 	H 	0.23313 0.56404 0.10053 0.08600
H 	H 	0.24366 0.59765 0.13458 0.09100
H 	H 	0.06854 0.29383 0.24854 0.08100
H 	H 	0.05028 0.25910 0.21219 0.08600
H 	H 	0.96496 0.28093 0.08205 0.06800
H 	H 	0.02183 0.34768 0.10663 0.09000
H 	H 	0.17051 0.18296 0.18720 0.09100
H 	H 	0.22715 0.24821 0.21307 0.08100
C 	C 	0.73767 0.80358 0.19340 -0.11300
C 	C 	0.67042 0.77773 0.16707 0.13200
C 	C 	0.61281 0.74426 0.18203 -0.10000
C 	C 	0.62146 0.73626 0.22275 0.00500
C 	C 	0.68769 0.75662 0.24992 0.05600
C 	C 	0.74502 0.78913 0.23497 -0.02400
N 	N 	0.66096 0.78509 0.12746 -0.20400
H 	H 	0.56146 0.72626 0.16164 0.05900
C 	C 	0.56184 0.71048 0.23577 -0.01000
N 	N 	0.69706 0.74694 0.28996 -0.19200
H 	H 	0.79646 0.80742 0.25529 0.04200
C 	C 	0.52106 0.64289 0.25544 -0.08500
C 	C 	0.45773 0.61440 0.26199 0.10000
C 	C 	0.43210 0.65279 0.24539 -0.05000
C 	C 	0.47574 0.72169 0.22904 -0.05500
C 	C 	0.54115 0.75121 0.22475 0.07300
H 	H 	0.53845 0.61237 0.26547 0.05200
N 	N 	0.42238 0.55076 0.28472 -0.19900
H 	H 	0.45748 0.75186 0.21787 0.05200
N 	N 	0.58346 0.81834 0.20975 -0.19400
H 	H 	0.43984 0.52161 0.29535 0.08200
H 	H 	0.37959 0.53101 0.29389 0.09000
H 	H 	0.56681 0.84774 0.20040 0.08800
H 	H 	0.63403 0.84226 0.20855 0.09100
H 	H 	0.74634 0.76274 0.30964 0.08100
H 	H 	0.65582 0.72365 0.30202 0.08600
H 	H 	0.70202 0.80577 0.11621 0.09600
H 	H 	0.61154 0.76802 0.10778 0.08600
C 	C 	0.24510 0.65175 0.23835 -0.04800
C 	C 	0.22360 0.69011 0.20396 0.10000
C 	C 	0.21125 0.72648 0.20949 -0.08400
C 	C 	0.22210 0.72710 0.24854 -0.00800
C 	C 	0.24221 0.68777 0.28292 0.07100
C 	C 	0.25312 0.65015 0.27742 -0.05300
N 	N 	0.21630 0.69360 0.16567 -0.19900
H 	H 	0.19493 0.75596 0.18323 0.05600
C 	C 	0.21381 0.77069 0.25271 0.00400
N 	N 	0.25216 0.68662 0.32116 -0.19500
H 	H 	0.26958 0.62080 0.30371 0.04800
C 	C 	0.14898 0.74401 0.25612 -0.09900
C 	C 	0.12975 0.78615 0.24366 0.12800
C 	C 	0.17376 0.85421 0.22478 -0.11200
C 	C 	0.24399 0.88234 0.23101 -0.01900
C 	C 	0.26434 0.84080 0.24428 0.06300
H 	H 	0.11175 0.69039 0.26557 0.05800
N 	N 	0.06673 0.76017 0.24665 -0.20600
H 	H 	0.28040 0.93583 0.22040 0.05000
N 	N 	0.33143 0.86824 0.24765 -0.19200
H 	H 	0.03240 0.70905 0.25844 0.09200
H 	H 	0.05244 0.79100 0.23851 0.09800
H 	H 	0.36796 0.92006 0.23995 0.09200
H 	H 	0.34839 0.83841 0.25926 0.09200
H 	H 	0.26720 0.65759 0.34634 0.08500
H 	H 	0.24518 0.71441 0.32633 0.09000
H 	H 	0.22809 0.66990 0.16032 0.09300
H 	H 	0.19952 0.72134 0.14056 0.08700
C 	C 	0.73807 0.30541 0.47238 -0.05000
C 	C 	0.80159 0.34593 0.46067 0.09500
C 	C 	0.83490 0.31772 0.46960 -0.08600
C 	C 	0.80277 0.24892 0.48656 -0.01300
C 	C 	0.73369 0.20712 0.49108 0.06800
C 	C 	0.70273 0.23575 0.48513 -0.05700
N 	N 	0.82874 0.41041 0.43913 -0.19800
H 	H 	0.88658 0.34959 0.46428 0.04800
C 	C 	0.84717 0.22466 0.50975 0.00500
N 	N 	0.69782 0.13957 0.50250 -0.19500
H 	H 	0.65208 0.20375 0.49183 0.04500
C 	C 	0.87361 0.22126 0.55124 -0.10200
C 	C 	0.89942 0.18334 0.57670 0.12300
C 	C 	0.91241 0.15907 0.55953 -0.11800
C 	C 	0.88957 0.16587 0.51729 -0.02500
C 	C 	0.85562 0.19732 0.49225 0.04900
H 	H 	0.86721 0.24241 0.56445 0.05300
N 	N 	0.90793 0.16737 0.61741 -0.19900
H 	H 	0.89891 0.14766 0.50375 0.03600
N 	N 	0.83210 0.20155 0.45171 -0.19200
H 	H 	0.90954 0.19385 0.62998 0.07000
H 	H 	0.90304 0.12348 0.63595 0.05900
H 	H 	0.83773 0.18062 0.43908 0.07100
H 	H 	0.80875 0.22621 0.43231 0.08000
H 	H 	0.64795 0.10890 0.50755 0.07100
H 	H 	0.71806 0.11687 0.50510 0.07900
H 	H 	0.79910 0.42879 0.42549 0.09000
H 	H 	0.87777 0.44117 0.43295 0.07900
C 	C 	0.77404 0.48384 0.49748 -0.05100
C 	C 	0.82471 0.50278 0.53364 0.09500
C 	C 	0.84351 0.55542 0.54390 -0.08400
C 	C 	0.80973 0.58672 0.51981 -0.01100
C 	C 	0.76208 0.57013 0.48249 0.07000
C 	C 	0.74979 0.52303 0.47028 -0.05300
N 	N 	0.85487 0.47043 0.55878 -0.20000
H 	H 	0.88254 0.57027 0.57148 0.05000
C 	C 	0.82601 0.63789 0.53354 0.00500
N 	N 	0.72494 0.59598 0.45953 -0.19500
H 	H 	0.71339 0.51046 0.44169 0.04400
C 	C 	0.85703 0.70410 0.51010 -0.10200
C 	C 	0.87665 0.75378 0.52370 0.12800
C 	C 	0.87687 0.73997 0.56397 -0.11800
C 	C 	0.84181 0.67333 0.58643 -0.01800
C 	C 	0.81367 0.62165 0.57079 0.05400
H 	H 	0.86412 0.71657 0.48082 0.05500
N 	N 	0.89365 0.81405 0.49782 -0.20400
H 	H 	0.83908 0.66192 0.61679 0.03700
N 	N 	0.77456 0.55699 0.59135 -0.19200
H 	H 	0.89722 0.82567 0.46869 0.08700
H 	H 	0.89884 0.84796 0.50560 0.09900
H 	H 	0.76847 0.54558 0.61967 0.08000
H 	H 	0.74694 0.51759 0.57856 0.08600
H 	H 	0.69261 0.58601 0.43114 0.08000
H 	H 	0.72421 0.62251 0.47055 0.08700
H 	H 	0.84490 0.43378 0.55096 0.09000
H 	H 	0.89047 0.48320 0.58610 0.07800
C 	C 	0.54100 0.27876 0.47711 -0.05400
C 	C 	0.50994 0.31096 0.46466 0.10000
C 	C 	0.45154 0.27813 0.47858 -0.08700
C 	C 	0.41960 0.21147 0.50099 -0.00800
C 	C 	0.44167 0.17524 0.50543 0.06600
C 	C 	0.50405 0.20987 0.49489 -0.05500
N 	N 	0.53582 0.37300 0.43926 -0.19900
H 	H 	0.43182 0.30483 0.47264 0.05200
C 	C 	0.36776 0.18208 0.52258 -0.00000
N 	N 	0.40356 0.10778 0.51986 -0.19400
H 	H 	0.52529 0.18384 0.50219 0.04300
C 	C 	0.30516 0.17570 0.50011 -0.09600
C 	C 	0.25239 0.14180 0.51948 0.11000
C 	C 	0.25932 0.10747 0.56080 -0.09800
C 	C 	0.32419 0.11923 0.58396 -0.03000
C 	C 	0.37973 0.15906 0.56543 0.05800
H 	H 	0.29734 0.19674 0.46758 0.05200
N 	N 	0.19553 0.14251 0.49840 -0.20200
H 	H 	0.33090 0.09602 0.61623 0.03700
N 	N 	0.44419 0.17554 0.58877 -0.19200
H 	H 	0.18947 0.16595 0.46747 0.08200
H 	H 	0.15802 0.12164 0.51280 0.07300
H 	H 	0.45167 0.15553 0.62015 0.07600
H 	H 	0.48801 0.21106 0.57638 0.08600
H 	H 	0.42177 0.08177 0.52480 0.07200
H 	H 	0.35410 0.08030 0.52442 0.07800
H 	H 	0.57411 0.39531 0.42497 0.08800
H 	H 	0.51502 0.39799 0.43181 0.08200
C 	C 	0.83111 0.07953 0.04230 -0.11100
C 	C 	0.75857 0.04512 0.03534 0.07900
C 	C 	0.73071 0.08160 0.01624 -0.08900
C 	C 	0.77465 0.15158 0.00451 -0.00400
C 	C 	0.84447 0.18441 0.00506 0.05600
C 	C 	0.87193 0.14769 0.02362 -0.02700
N 	N 	0.71603 0.97750 0.04809 -0.17600
H 	H 	0.67606 0.05603 0.01359 0.03900
C 	C 	0.75325 0.18923 0.00227 -0.00800
N 	N 	0.88593 0.25132 0.98929 -0.19300
H 	H 	0.92686 0.17338 0.02689 0.03200
C 	C 	0.76378 0.19806 0.03839 -0.08700
C 	C 	0.74200 0.23103 0.03815 0.09500
C 	C 	0.71396 0.26024 0.00063 -0.05200
C 	C 	0.70284 0.25110 0.96442 -0.05500
C 	C 	0.72145 0.21500 0.96490 0.06500
H 	H 	0.78730 0.17743 0.06700 0.04700
N 	N 	0.74604 0.23262 0.07400 -0.19900
H 	H 	0.68011 0.27244 0.93580 0.04400
N 	N 	0.70932 0.20592 0.92950 -0.19500
H 	H 	0.77004 0.21392 0.10142 0.07400
H 	H 	0.72214 0.24884 0.07522 0.08200
H 	H 	0.68612 0.22540 0.90205 0.07600
H 	H 	0.72260 0.17946 0.92881 0.08000
H 	H 	0.93840 0.27579 0.99145 0.07600
H 	H 	0.86601 0.27927 0.97376 0.08400
H 	H 	0.73510 0.94920 0.06071 0.10500
H 	H 	0.66279 0.95239 0.04428 0.09600
C 	C 	0.78825 0.44182 0.04121 -0.05200
C 	C 	0.79088 0.43205 0.08133 0.09800
C 	C 	0.82584 0.48740 0.09551 -0.08700
C 	C 	0.86026 0.55213 0.07083 -0.00800
C 	C 	0.86591 0.56223 0.03297 0.06900
C 	C 	0.82889 0.50667 0.01823 -0.05500
N 	N 	0.75938 0.36966 0.10611 -0.19900
H 	H 	0.82456 0.47998 0.12536 0.05000
C 	C 	0.88594 0.60822 0.08376 -0.00100
N 	N 	0.90578 0.62484 0.01050 -0.19400
H 	H 	0.82896 0.51401 0.98806 0.04600
C 	C 	0.94620 0.63171 0.11500 -0.09400
C 	C 	0.97346 0.68634 0.12702 0.09900
C 	C 	0.94214 0.72033 0.10576 -0.10100
C 	C 	0.87974 0.69466 0.07605 -0.02800
C 	C 	0.85032 0.63786 0.06542 0.06000
H 	H 	0.97184 0.60729 0.13009 0.04800
N 	N 	0.02906 0.70545 0.15922 -0.19400
H 	H 	0.85506 0.72007 0.06032 0.04200
N 	N 	0.78820 0.61219 0.03769 -0.19200
H 	H 	0.05397 0.68211 0.17373 0.09000
H 	H 	0.04542 0.74089 0.17151 0.10200
H 	H 	0.76359 0.63580 0.02334 0.08200
H 	H 	0.76263 0.56761 0.03105 0.08800
H 	H 	0.90762 0.63191 0.98194 0.07900
H 	H 	0.93695 0.66687 0.02165 0.08300
H 	H 	0.73692 0.32800 0.09731 0.08400
H 	H 	0.75932 0.36257 0.13520 0.07800
C 	C 	0.54082 0.26985 0.00051 -0.05000
C 	C 	0.50175 0.20449 0.02483 0.09300
C 	C 	0.43775 0.17925 0.02853 -0.08500
C 	C 	0.41685 0.22071 0.01323 -0.01200
C 	C 	0.45454 0.28512 0.98806 0.07000
C 	C 	0.51463 0.30788 0.98063 -0.05600
N 	N 	0.52699 0.16736 0.04653 -0.19900
H 	H 	0.40752 0.12921 0.04688 0.04500
C 	C 	0.36266 0.19990 0.02896 0.00500
N 	N 	0.43400 0.32560 0.97147 -0.19500
H 	H 	0.54372 0.35728 0.96138 0.04800
C 	C 	0.38001 0.20159 0.06899 -0.10400
C 	C 	0.32742 0.16495 0.08919 0.13100
C 	C 	0.25672 0.12753 0.06855 -0.12500
C 	C 	0.23995 0.13534 0.02673 -0.02400
C 	C 	0.29206 0.16890 0.00697 0.05200
H 	H 	0.43441 0.22809 0.08520 0.05500
N 	N 	0.34500 0.16535 0.12838 -0.20600
H 	H 	0.18573 0.11089 0.01020 0.03400
N 	N 	0.27388 0.16981 0.96737 -0.19300
H 	H 	0.39742 0.19139 0.14395 0.07900
H 	H 	0.30691 0.14165 0.14328 0.09000
H 	H 	0.22142 0.14560 0.95167 0.07800
H 	H 	0.31142 0.19497 0.95166 0.08200
H 	H 	0.46270 0.37340 0.95330 0.08200
H 	H 	0.38925 0.31000 0.97610 0.08700
H 	H 	0.57929 0.18843 0.05139 0.08600
H 	H 	0.49536 0.11759 0.06170 0.07200
