data_crystal

_cell_length_a 18.29224
_cell_length_b 18.91499
_cell_length_c 34.78459
_cell_angle_alpha 95.42915
_cell_angle_beta  95.43015
_cell_angle_gamma 126.41491

_symmetry_space_group_name_	'P 1'
_symmetry_space_group_name_H-M	'P 1'

loop_
_symmetry_equiv_pos_as_xyz
  x,y,z

loop_
_atom_site_label
_atom_site_type_symbol
_atom_site_fract_x
_atom_site_fract_y
_atom_site_fract_z
_atom_site_charge
C 	C 	0.90044 0.98939 0.96322 0.18200
N 	N 	0.85676 0.90065 0.96342 -0.12300
C 	C 	0.90579 0.86755 0.96267 0.15100
N 	N 	0.99742 0.92297 0.96203 -0.12600
C 	C 	0.04086 0.01113 0.96248 0.14800
N 	N 	0.99234 0.04414 0.96277 -0.14100
C 	C 	0.94020 0.01771 0.49057 0.12700
N 	N 	0.88600 0.93242 0.49673 -0.10700
C 	C 	0.92281 0.88936 0.50371 0.15000
N 	N 	0.01421 0.93172 0.50459 -0.11600
C 	C 	0.06873 0.01643 0.49787 0.13400
N 	N 	0.03193 0.06002 0.49104 -0.11700
Cu	Cu	0.76022 0.34187 0.96035 0.93000
Cu	Cu	0.73740 0.27143 0.04406 0.87600
Cu	Cu	0.61907 0.31292 0.00965 0.90100
Cu	Cu	0.59019 0.33710 0.92747 0.90800
C 	C 	0.69713 0.30938 0.87713 0.29700
O 	O 	0.81462 0.47259 0.95767 -0.33100
C 	C 	0.67087 0.34099 0.09570 0.28800
O 	O 	0.61668 0.27263 0.95605 -0.63700
O 	O 	0.75091 0.36099 0.01579 -0.63900
O 	O 	0.81786 0.27926 0.96670 -0.34100
O 	O 	0.71056 0.18474 0.00113 -0.42000
O 	O 	0.66212 0.35197 0.88506 -0.35500
O 	O 	0.48823 0.25765 0.00282 -0.36500
C 	C 	0.43338 0.23760 0.96940 0.30600
C 	C 	0.77245 0.50692 0.96827 0.29300
O 	O 	0.68612 0.45368 0.97262 -0.38800
O 	O 	0.46568 0.28140 0.94037 -0.36100
O 	O 	0.74619 0.30373 0.90527 -0.33500
C 	C 	0.77339 0.20341 0.97988 0.29900
O 	O 	0.62657 0.34798 0.06570 -0.36100
O 	O 	0.73522 0.33075 0.09127 -0.39900
H 	H 	0.57493 0.20690 0.94712 0.18500
H 	H 	0.79452 0.42331 0.03054 0.18700
Cu	Cu	0.63641 0.22323 0.50484 0.92600
Cu	Cu	0.71592 0.25563 0.42356 0.88900
Cu	Cu	0.63406 0.35071 0.45917 0.91900
Cu	Cu	0.60040 0.35993 0.54177 0.90900
C 	C 	0.65101 0.26825 0.58833 0.29600
O 	O 	0.49659 0.14893 0.50346 -0.33200
C 	C 	0.65877 0.34291 0.38107 0.29700
O 	O 	0.68102 0.35619 0.51292 -0.62900
O 	O 	0.61810 0.23689 0.44988 -0.63500
O 	O 	0.72449 0.19173 0.50226 -0.33900
O 	O 	0.70047 0.15356 0.43541 -0.40200
O 	O 	0.59143 0.28456 0.57985 -0.35800
O 	O 	0.64005 0.45662 0.46817 -0.35000
C 	C 	0.67759 0.51222 0.50213 0.30800
C 	C 	0.44893 0.17876 0.49356 0.29000
O 	O 	0.49225 0.26403 0.49276 -0.39000
O 	O 	0.65220 0.48300 0.53487 -0.36800
O 	O 	0.67035 0.23287 0.56041 -0.33700
C 	C 	0.73333 0.15444 0.47074 0.30100
O 	O 	0.60547 0.34387 0.40346 -0.35400
O 	O 	0.73020 0.34790 0.39702 -0.39700
H 	H 	0.74779 0.40512 0.52230 0.18200
H 	H 	0.55607 0.18683 0.43465 0.17700
C 	C 	0.61556 0.22666 0.76718 -0.03200
C 	C 	0.70041 0.26691 0.75411 0.02500
C 	C 	0.78290 0.30869 0.78171 -0.03200
C 	C 	0.78241 0.32088 0.82234 0.03000
C 	C 	0.69785 0.28480 0.83542 -0.06000
C 	C 	0.61410 0.23265 0.80776 0.02500
C 	C 	0.70368 0.27172 0.71155 0.02500
C 	C 	0.86837 0.34040 0.76824 0.11100
C 	C 	0.52648 0.18477 0.82113 0.08400
C 	C 	0.73051 0.35075 0.69828 -0.03300
C 	C 	0.72222 0.35174 0.65767 0.02400
C 	C 	0.68087 0.27215 0.63015 -0.06500
C 	C 	0.65868 0.19430 0.64345 0.02900
C 	C 	0.67348 0.19539 0.68416 -0.03300
C 	C 	0.76428 0.43026 0.72639 0.10900
C 	C 	0.61702 0.11227 0.61552 0.11000
C 	C 	0.75602 0.43458 0.64411 0.07800
C 	C 	0.65624 0.11764 0.69791 0.11000
C 	C 	0.53013 0.18114 0.73887 0.10900
C 	C 	0.86903 0.37366 0.85037 0.11600
N 	N 	0.78294 0.50062 0.63325 -0.10500
N 	N 	0.79120 0.49362 0.74887 -0.09400
N 	N 	0.58375 0.04677 0.59325 -0.08800
N 	N 	0.64248 0.05562 0.70893 -0.09800
N 	N 	0.93655 0.36570 0.75745 -0.09600
N 	N 	0.93819 0.41580 0.87272 -0.08600
N 	N 	0.45657 0.14654 0.83180 -0.09300
N 	N 	0.46205 0.14484 0.71623 -0.09500
C 	C 	0.63596 0.28458 0.27104 -0.03600
C 	C 	0.63532 0.35242 0.25774 0.02500
C 	C 	0.63265 0.41165 0.28435 -0.03500
C 	C 	0.63789 0.40749 0.32475 0.03000
C 	C 	0.64248 0.34181 0.33833 -0.07600
C 	C 	0.63694 0.27778 0.31106 0.02500
C 	C 	0.64110 0.36342 0.21586 0.02300
C 	C 	0.62528 0.47723 0.27016 0.11200
C 	C 	0.63027 0.20381 0.32408 0.06100
C 	C 	0.56136 0.30699 0.18619 -0.03400
C 	C 	0.56991 0.30335 0.14627 0.02100
C 	C 	0.65812 0.35839 0.13607 -0.07000
C 	C 	0.73569 0.42370 0.16555 0.02500
C 	C 	0.72772 0.42456 0.20549 -0.03500
C 	C 	0.47097 0.25142 0.19683 0.10700
C 	C 	0.82304 0.49083 0.15471 0.09500
C 	C 	0.48852 0.24138 0.11587 0.09000
C 	C 	0.80888 0.48676 0.23594 0.10700
C 	C 	0.63689 0.22255 0.24358 0.10400
C 	C 	0.64035 0.47172 0.35232 0.10700
N 	N 	0.42356 0.19195 0.09162 -0.09600
N 	N 	0.39886 0.20710 0.20537 -0.09700
N 	N 	0.89273 0.54440 0.14605 -0.09800
N 	N 	0.87357 0.53635 0.26027 -0.09800
N 	N 	0.61941 0.52954 0.25879 -0.09400
N 	N 	0.64219 0.52295 0.37427 -0.08200
N 	N 	0.62493 0.14480 0.33446 -0.12000
N 	N 	0.63763 0.17313 0.22163 -0.10600
C 	C 	0.87245 0.73587 0.48214 -0.04900
C 	C 	0.86200 0.79356 0.50485 -0.00900
C 	C 	0.79144 0.75867 0.52732 0.08100
C 	C 	0.73041 0.66629 0.52576 -0.00700
C 	C 	0.74084 0.60868 0.50292 -0.08100
C 	C 	0.81352 0.64402 0.48162 0.11400
N 	N 	0.82985 0.58713 0.46066 -0.02300
H 	H 	0.92693 0.76253 0.46500 0.08600
H 	H 	0.67545 0.63943 0.54264 0.07500
N 	N 	0.78320 0.81701 0.55256 -0.01800
O 	O 	0.83420 0.58698 0.42355 -0.08800
O 	O 	0.85061 0.54339 0.47960 -0.13200
O 	O 	0.70535 0.80581 0.54892 -0.07300
O 	O 	0.85135 0.87724 0.58090 -0.07600
C 	C 	0.92536 0.13889 0.50659 -0.05600
C 	C 	0.89789 0.06170 0.48122 -0.00200
C 	C 	0.81941 0.01818 0.45103 0.06300
C 	C 	0.76510 0.04779 0.44859 -0.00800
C 	C 	0.79023 0.12285 0.47496 -0.08500
C 	C 	0.87286 0.17054 0.50330 0.11400
N 	N 	0.90509 0.25233 0.52796 -0.02000
H 	H 	0.98648 0.17341 0.52945 0.08100
H 	H 	0.70357 0.01265 0.42591 0.06900
N 	N 	0.79454 0.94353 0.42283 -0.01000
O 	O 	0.91398 0.25852 0.56592 -0.08100
O 	O 	0.93279 0.32269 0.51272 -0.10700
O 	O 	0.71026 0.86981 0.41548 -0.07200
O 	O 	0.85515 0.95054 0.40331 -0.06600
C 	C 	0.22243 0.06254 0.52835 -0.05500
C 	C 	0.16651 0.05883 0.49645 -0.01200
C 	C 	0.20068 0.08380 0.46158 0.07600
C 	C 	0.29150 0.11577 0.45965 -0.01400
C 	C 	0.34844 0.12208 0.49201 -0.08100
C 	C 	0.31252 0.09287 0.52616 0.11000
N 	N 	0.36855 0.09705 0.55927 -0.02400
H 	H 	0.19554 0.04096 0.55483 0.08000
H 	H 	0.31866 0.13803 0.43329 0.06300
N 	N 	0.14307 0.07576 0.42790 -0.02600
O 	O 	0.39072 0.14941 0.59240 -0.08900
O 	O 	0.38801 0.04105 0.55768 -0.07700
O 	O 	0.16761 0.14619 0.41338 -0.08200
O 	O 	0.06994 0.99723 0.40997 -0.05600
C 	C 	0.85559 0.71902 0.93013 -0.05300
C 	C 	0.86085 0.77205 0.96303 -0.01000
C 	C 	0.84203 0.73925 0.99842 0.07300
C 	C 	0.81856 0.65438 0.00049 -0.00400
C 	C 	0.81483 0.60199 0.96777 -0.08500
C 	C 	0.83354 0.63484 0.93238 0.11300
N 	N 	0.82787 0.58195 0.89831 -0.02400
H 	H 	0.87150 0.74438 0.90302 0.08000
H 	H 	0.80239 0.62887 0.02755 0.06400
N 	N 	0.84756 0.79220 0.03247 -0.01600
O 	O 	0.76167 0.54851 0.86816 -0.08900
O 	O 	0.89399 0.57507 0.89587 -0.07600
O 	O 	0.77576 0.76102 0.04901 -0.07100
O 	O 	0.92655 0.86735 0.04918 -0.06200
C 	C 	0.81074 0.10815 0.00649 -0.01300
C 	C 	0.80010 0.14328 0.97443 -0.08600
C 	C 	0.81067 0.11732 0.93725 0.11300
C 	C 	0.83632 0.06048 0.93309 -0.04500
C 	C 	0.85005 0.02788 0.96551 -0.03800
C 	C 	0.83504 0.05042 0.00215 0.08600
N 	N 	0.84819 0.01775 0.03550 -0.03000
H 	H 	0.80116 0.12646 0.03502 0.04800
H 	H 	0.84775 0.04343 0.90479 0.07300
N 	N 	0.79370 0.14690 0.90352 -0.02100
O 	O 	0.91424 0.07323 0.06537 -0.07900
O 	O 	0.79073 0.93334 0.03701 -0.05200
O 	O 	0.85924 0.19335 0.88392 -0.08300
O 	O 	0.71083 0.12118 0.89053 -0.09000
C 	C 	0.29628 0.19398 0.99830 -0.01400
C 	C 	0.33300 0.17914 0.96767 -0.07700
C 	C 	0.27317 0.10964 0.93505 0.10900
C 	C 	0.17749 0.05648 0.93326 -0.05000
C 	C 	0.14089 0.07107 0.96393 -0.01500
C 	C 	0.20060 0.13993 0.99673 0.08000
N 	N 	0.16440 0.15395 0.02886 -0.01700
H 	H 	0.34208 0.24736 0.02343 0.08000
H 	H 	0.13159 0.00277 0.90824 0.07700
N 	N 	0.30947 0.09159 0.90410 -0.02300
O 	O 	0.11872 0.09133 0.04913 -0.06900
O 	O 	0.18280 0.23151 0.03960 -0.07700
O 	O 	0.36527 0.07135 0.91186 -0.10800
O 	O 	0.27991 0.08707 0.86777 -0.08500
