data_crystal

_cell_length_a 39.27047
_cell_length_b 37.08167
_cell_length_c 23.12376
_cell_angle_alpha 89.95970
_cell_angle_beta  89.94523
_cell_angle_gamma 87.41431

_symmetry_space_group_name_	'P 1'
_symmetry_space_group_name_H-M	'P 1'

loop_
_symmetry_equiv_pos_as_xyz
  x,y,z

loop_
_atom_site_label
_atom_site_type_symbol
_atom_site_fract_x
_atom_site_fract_y
_atom_site_fract_z
_atom_site_charge
C 	C 	0.44868 0.55823 0.97855 -0.03700
C 	C 	0.47968 0.57501 0.98169 -0.03800
C 	C 	0.44768 0.52028 0.97788 0.01800
C 	C 	0.47859 0.49913 0.97985 -0.00500
C 	C 	0.51012 0.51618 0.98225 -0.00900
C 	C 	0.51068 0.55438 0.98334 0.02100
C 	C 	0.47803 0.46093 0.97924 0.01900
C 	C 	0.50905 0.44031 0.97926 -0.03700
C 	C 	0.54104 0.49503 0.98391 0.02300
C 	C 	0.54235 0.57117 0.98620 -0.02400
C 	C 	0.57272 0.55000 0.98756 -0.02300
C 	C 	0.57239 0.51231 0.98730 -0.03200
C 	C 	0.41630 0.50299 0.97530 -0.02000
C 	C 	0.41595 0.46530 0.97591 -0.02900
C 	C 	0.44630 0.44412 0.97803 -0.02100
C 	C 	0.54429 0.61086 0.98972 0.06500
C 	C 	0.54321 0.63173 0.93907 -0.05900
C 	C 	0.55001 0.66842 0.94136 -0.01900
C 	C 	0.55845 0.68436 0.99420 0.01700
C 	C 	0.55852 0.66369 0.04508 -0.05300
C 	C 	0.55134 0.62713 0.04286 -0.09400
C 	C 	0.60510 0.49146 0.99340 0.09200
C 	C 	0.61868 0.48471 0.04860 -0.12800
C 	C 	0.65225 0.47112 0.05465 0.01900
C 	C 	0.62461 0.48254 0.94422 -0.09400
C 	C 	0.65814 0.46875 0.95021 0.05200
C 	C 	0.67246 0.46409 0.00549 -0.08200
C 	C 	0.38348 0.52387 0.97138 0.06200
C 	C 	0.36689 0.53606 0.02189 -0.09200
C 	C 	0.33377 0.55140 0.01900 -0.05900
C 	C 	0.31686 0.55425 0.96559 0.02600
C 	C 	0.33403 0.54334 0.91482 -0.02300
C 	C 	0.36723 0.52825 0.91773 -0.05600
C 	C 	0.44426 0.40437 0.97957 0.06300
C 	C 	0.43403 0.38586 0.93008 -0.05700
C 	C 	0.42704 0.34928 0.93346 -0.01900
C 	C 	0.43051 0.33080 0.98626 0.01900
C 	C 	0.44193 0.34900 0.03530 -0.05400
C 	C 	0.44849 0.38572 0.03208 -0.09300
C 	C 	0.54009 0.45710 0.98187 -0.04100
H 	H 	0.53792 0.61934 0.89782 0.04800
H 	H 	0.54983 0.68413 0.90183 0.04400
H 	H 	0.56460 0.67582 0.08619 0.04100
H 	H 	0.55225 0.61119 0.08215 0.04400
H 	H 	0.32138 0.54584 0.87330 0.04700
H 	H 	0.37996 0.51900 0.87852 0.04800
H 	H 	0.32079 0.55974 0.05847 0.04100
H 	H 	0.37933 0.53278 0.06349 0.04300
H 	H 	0.43062 0.40008 0.88940 0.04800
H 	H 	0.41861 0.33540 0.89520 0.04600
H 	H 	0.45616 0.39985 0.07059 0.04300
H 	H 	0.44474 0.33498 0.07626 0.04200
H 	H 	0.60366 0.49133 0.08678 0.05300
H 	H 	0.66288 0.46710 0.09751 0.02900
H 	H 	0.61422 0.48757 0.90143 0.05600
H 	H 	0.67347 0.46331 0.91195 0.02900
H 	H 	0.42542 0.57500 0.97683 0.05000
H 	H 	0.47939 0.60420 0.98275 0.04900
H 	H 	0.59688 0.56301 0.98999 0.04900
H 	H 	0.56339 0.44037 0.98188 0.05000
H 	H 	0.50936 0.41116 0.97687 0.05000
H 	H 	0.39175 0.45229 0.97473 0.05000
Zn	Zn	0.37010 0.12156 0.00557 1.20400
C 	C 	0.31034 0.07984 0.02018 0.25000
O 	O 	0.36912 0.11597 0.09025 -0.46100
O 	O 	0.32972 0.05692 0.05029 -0.44200
O 	O 	0.40256 0.06438 0.08746 -0.52600
C 	C 	0.38590 0.07106 0.91277 0.32300
O 	O 	0.39386 0.10149 0.93729 -0.45300
O 	O 	0.37129 0.04618 0.94290 -0.48100
C 	C 	0.38874 0.09159 0.11653 0.33500
O 	O 	0.41617 0.15996 0.01562 -0.30800
Zn	Zn	0.37849 0.04173 0.02495 1.16100
O 	O 	0.32414 0.10503 0.98887 -0.38100
C 	C 	0.39390 0.18580 0.00376 0.15800
O 	O 	0.36313 0.17602 0.99450 -0.31100
C 	C 	0.48420 0.95289 0.55879 0.00800
C 	C 	0.45462 0.97636 0.55877 0.00800
C 	C 	0.50215 0.94617 0.50700 -0.05500
C 	C 	0.49015 0.96174 0.45503 0.00800
C 	C 	0.44473 0.99476 0.50800 -0.05500
C 	C 	0.46192 0.98720 0.45593 0.00900
H 	H 	0.42201 0.01248 0.50789 0.04800
H 	H 	0.52354 0.92664 0.50642 0.04800
C 	C 	0.44897 0.00098 0.40312 -0.01400
C 	C 	0.46318 0.98989 0.34997 0.00500
C 	C 	0.45846 0.01621 0.30570 -0.05600
C 	C 	0.44193 0.04813 0.32487 -0.00200
S 	S 	0.43201 0.04275 0.39440 -0.01600
H 	H 	0.46488 0.01134 0.26078 0.03700
C 	C 	0.50259 0.94924 0.40105 -0.01300
C 	C 	0.48890 0.96249 0.34885 0.00400
C 	C 	0.51062 0.95532 0.30072 -0.05600
C 	C 	0.54161 0.93808 0.31632 -0.00200
S 	S 	0.54200 0.93220 0.38795 -0.01600
H 	H 	0.50560 0.96565 0.25764 0.03600
C 	C 	0.47223 0.93595 0.65938 0.00600
C 	C 	0.49288 0.93354 0.60957 -0.01200
S 	S 	0.53286 0.92461 0.63113 -0.01700
C 	C 	0.52561 0.92106 0.70182 0.00100
C 	C 	0.49066 0.92751 0.71115 -0.05500
C 	C 	0.43371 0.97782 0.60823 -0.01100
C 	C 	0.44205 0.95791 0.65820 0.00600
C 	C 	0.42547 0.97219 0.70857 -0.05400
C 	C 	0.40557 0.00383 0.69798 -0.00000
S 	S 	0.40909 0.01347 0.62791 -0.02000
H 	H 	0.43086 0.96251 0.75187 0.04300
H 	H 	0.48010 0.93126 0.75402 0.04400
Zn	Zn	0.62622 0.89082 0.00662 1.20900
C 	C 	0.68797 0.93054 0.99744 0.32600
O 	O 	0.60450 0.90584 0.08009 -0.48700
O 	O 	0.66899 0.95724 0.97559 -0.42800
O 	O 	0.63267 0.95749 0.08848 -0.50300
C 	C 	0.60434 0.93184 0.90752 0.32900
O 	O 	0.62459 0.90512 0.92563 -0.45000
O 	O 	0.59379 0.95696 0.94427 -0.49700
C 	C 	0.61729 0.93074 0.11279 0.32400
O 	O 	0.57919 0.85521 0.98607 -0.31100
Zn	Zn	0.62179 0.97125 0.00917 1.15600
O 	O 	0.67368 0.90319 0.02267 -0.45800
C 	C 	0.59993 0.82801 0.99815 0.28400
O 	O 	0.63043 0.83599 0.01304 -0.41400
Zn	Zn	0.11314 0.60554 0.00060 1.20600
C 	C 	0.06251 0.66314 0.01901 0.29700
O 	O 	0.11069 0.57332 0.06804 -0.48500
O 	O 	0.03916 0.64172 0.00018 -0.46600
O 	O 	0.05618 0.58864 0.09376 -0.50800
C 	C 	0.07074 0.59166 0.90261 0.33100
O 	O 	0.09447 0.61201 0.92285 -0.43900
O 	O 	0.05437 0.57066 0.93765 -0.50000
C 	C 	0.08727 0.57793 0.10825 0.32600
O 	O 	0.15436 0.56532 0.95848 -0.29600
Zn	Zn	0.04077 0.58681 0.01444 1.15900
O 	O 	0.09269 0.64984 0.03482 -0.44400
C 	C 	0.17600 0.58907 0.97324 0.25200
O 	O 	0.16328 0.61733 0.99968 -0.34500
C 	C 	0.99756 0.47003 0.45448 0.00900
C 	C 	0.02606 0.49237 0.45534 0.00800
C 	C 	0.97240 0.47386 0.49757 -0.05600
C 	C 	0.97443 0.50088 0.53982 0.00700
C 	C 	0.02846 0.51888 0.49846 -0.05700
C 	C 	0.00240 0.52386 0.53983 0.00700
H 	H 	0.05013 0.53594 0.49919 0.04800
H 	H 	0.95105 0.45635 0.49762 0.04800
C 	C 	0.00286 0.55225 0.58043 -0.01400
C 	C 	0.97722 0.55698 0.62261 0.00500
C 	C 	0.98840 0.57544 0.67271 -0.05500
C 	C 	0.02277 0.58360 0.67054 -0.00100
S 	S 	0.03836 0.56881 0.60735 -0.01400
H 	H 	0.97358 0.57835 0.71197 0.04000
C 	C 	0.94822 0.50669 0.58098 -0.01300
C 	C 	0.94959 0.53412 0.62274 0.00500
C 	C 	0.92983 0.52709 0.67298 -0.05600
C 	C 	0.91493 0.49356 0.67158 -0.00000
S 	S 	0.92539 0.47399 0.60883 -0.01800
H 	H 	0.93020 0.54324 0.71183 0.04100
C 	C 	0.01852 0.44250 0.36394 0.00600
C 	C 	0.99506 0.44433 0.40977 -0.01400
S 	S 	0.95847 0.42912 0.38501 -0.01400
C 	C 	0.97107 0.41801 0.31811 -0.00200
C 	C 	0.00507 0.42728 0.31266 -0.05500
C 	C 	0.05126 0.48769 0.41194 -0.01300
C 	C 	0.04672 0.46451 0.36487 0.00500
C 	C 	0.06535 0.47424 0.31472 -0.05400
C 	C 	0.08444 0.50479 0.32279 -0.00200
S 	S 	0.07698 0.51966 0.39004 -0.01500
H 	H 	0.06066 0.46346 0.27227 0.03900
H 	H 	0.01808 0.42696 0.27144 0.04000
Zn	Zn	0.87819 0.40089 0.99964 1.23000
C 	C 	0.81506 0.44256 0.01360 0.25300
O 	O 	0.89893 0.41859 0.92795 -0.45500
O 	O 	0.83298 0.46684 0.03979 -0.43800
O 	O 	0.87060 0.47333 0.92876 -0.48600
C 	C 	0.89847 0.43422 0.10415 0.33500
O 	O 	0.87834 0.41047 0.08245 -0.46600
O 	O 	0.90882 0.46049 0.07158 -0.52400
C 	C 	0.88607 0.44689 0.90012 0.31900
O 	O 	0.92734 0.36337 0.01633 -0.32100
Zn	Zn	0.88016 0.48081 0.00998 1.15800
O 	O 	0.83046 0.41594 0.98481 -0.39000
C 	C 	0.90847 0.33726 0.00071 0.21300
O 	O 	0.87738 0.34657 0.98683 -0.32700
C 	C 	0.93591 0.02059 0.02521 -0.04100
C 	C 	0.95232 0.05315 0.02474 -0.04200
C 	C 	0.95476 0.98747 0.02075 -0.00200
C 	C 	0.99080 0.98739 0.01806 -0.00400
C 	C 	0.00747 0.02047 0.01744 -0.00700
C 	C 	0.98808 0.05357 0.01979 0.00000
C 	C 	0.01018 0.95427 0.01584 -0.00200
C 	C 	0.04599 0.95466 0.01232 -0.04100
C 	C 	0.04351 0.02040 0.01456 -0.00000
C 	C 	0.00493 0.08653 0.01773 -0.00000
C 	C 	0.04053 0.08619 0.01524 -0.05900
C 	C 	0.05994 0.05365 0.01438 0.00000
C 	C 	0.93827 0.95428 0.01959 0.00100
C 	C 	0.95764 0.92173 0.01869 -0.06000
C 	C 	0.99325 0.92134 0.01680 0.00200
C 	C 	0.98573 0.12170 0.01790 -0.02300
C 	C 	0.97114 0.13537 0.96659 -0.00700
C 	C 	0.95597 0.17019 0.96533 0.01500
C 	C 	0.95569 0.19177 0.01522 -0.04900
C 	C 	0.96955 0.17770 0.06689 -0.02000
C 	C 	0.98445 0.14278 0.06822 -0.04300
C 	C 	0.09749 0.05494 0.01492 -0.02400
C 	C 	0.11522 0.05242 0.06745 -0.04200
C 	C 	0.15040 0.05668 0.06872 -0.02000
C 	C 	0.11517 0.06152 0.96355 -0.00700
C 	C 	0.15035 0.06584 0.96473 0.01400
C 	C 	0.16814 0.06368 0.01741 -0.04900
C 	C 	0.90075 0.95309 0.01647 -0.02400
C 	C 	0.88210 0.94335 0.06536 -0.04200
C 	C 	0.84700 0.93907 0.06121 -0.02100
C 	C 	0.83025 0.94452 0.00805 -0.04800
C 	C 	0.84892 0.95469 0.95930 0.01300
C 	C 	0.88403 0.95881 0.96347 -0.00700
C 	C 	0.01228 0.88613 0.01463 -0.02400
C 	C 	0.01497 0.86722 0.96224 -0.00700
C 	C 	0.02695 0.83117 0.96167 0.01400
C 	C 	0.03643 0.81379 0.01353 -0.05000
C 	C 	0.03572 0.83340 0.06546 -0.02000
C 	C 	0.02353 0.86942 0.06602 -0.04300
C 	C 	0.06240 0.98723 0.01155 -0.04100
H 	H 	0.97209 0.11924 0.92752 0.04700
H 	H 	0.94539 0.18079 0.92519 0.04500
H 	H 	0.96914 0.19398 0.10580 0.03900
H 	H 	0.99563 0.13236 0.10802 0.04100
H 	H 	0.83633 0.95884 0.91800 0.04400
H 	H 	0.89833 0.96603 0.92541 0.04600
H 	H 	0.83283 0.93166 0.09930 0.04100
H 	H 	0.89488 0.93873 0.10638 0.04100
H 	H 	0.00652 0.88003 0.92231 0.04500
H 	H 	0.02796 0.81646 0.92119 0.04200
H 	H 	0.02163 0.88391 0.10665 0.04100
H 	H 	0.04315 0.82032 0.10571 0.04000
H 	H 	0.10167 0.04762 0.10736 0.04100
H 	H 	0.16375 0.05511 0.10969 0.04000
H 	H 	0.10160 0.06363 0.92283 0.04600
H 	H 	0.16377 0.07076 0.92474 0.04400
H 	H 	0.90845 0.02131 0.02972 0.03700
H 	H 	0.93702 0.07803 0.02875 0.03700
H 	H 	0.05328 0.11155 0.01435 0.04200
H 	H 	0.08992 0.98646 0.00823 0.03800
H 	H 	0.06135 0.92972 0.00985 0.03700
H 	H 	0.94485 0.89639 0.01844 0.04200
C 	C 	0.92051 0.29942 0.00482 0.02400
N 	N 	0.90195 0.27299 0.98173 -0.03800
N 	N 	0.91308 0.23856 0.98526 -0.06000
C 	C 	0.94290 0.22962 0.01251 0.08400
N 	N 	0.96132 0.25606 0.03592 -0.08800
N 	N 	0.95032 0.29048 0.03196 -0.06800
C 	C 	0.90857 0.47277 0.72458 0.01200
C 	C 	0.93539 0.46288 0.76345 0.00200
C 	C 	0.92739 0.45280 0.82021 -0.00500
C 	C 	0.89341 0.45141 0.83816 -0.11400
C 	C 	0.86683 0.45704 0.79741 0.08300
C 	C 	0.87474 0.46776 0.74088 -0.08800
H 	H 	0.94776 0.44710 0.85100 0.03200
H 	H 	0.85434 0.47390 0.71035 0.05200
C 	C 	0.97265 0.46263 0.74535 -0.09400
C 	C 	0.82989 0.45226 0.81366 -0.12600
C 	C 	0.98842 0.42414 0.73933 -0.02200
H 	H 	0.98305 0.40789 0.77844 0.03700
H 	H 	0.01655 0.42569 0.73593 0.02700
C 	C 	0.81134 0.48886 0.82549 -0.00600
H 	H 	0.81107 0.50557 0.78553 0.02600
H 	H 	0.82482 0.50364 0.85971 0.03800
H 	H 	0.97709 0.47752 0.70475 0.05100
H 	H 	0.82776 0.43422 0.85177 0.07100
C 	C 	0.97567 0.40489 0.68570 -0.15800
C 	C 	0.77463 0.48422 0.84486 -0.17100
H 	H 	0.98258 0.41977 0.64598 0.06200
H 	H 	0.98778 0.37729 0.68348 0.06100
H 	H 	0.94759 0.40257 0.68755 0.06800
H 	H 	0.98697 0.47687 0.77918 0.04100
H 	H 	0.76029 0.46996 0.81110 0.06700
H 	H 	0.76185 0.51114 0.85236 0.06700
H 	H 	0.77414 0.46863 0.88581 0.08400
H 	H 	0.81697 0.43868 0.77741 0.05700
C 	C 	0.91289 0.42869 0.16242 -0.11400
C 	C 	0.91050 0.45625 0.20492 0.08000
C 	C 	0.92768 0.45105 0.25773 -0.08600
C 	C 	0.94762 0.41939 0.26825 0.01200
C 	C 	0.94820 0.39107 0.22733 0.00200
C 	C 	0.93046 0.39587 0.17502 -0.00300
H 	H 	0.92614 0.47211 0.29023 0.05200
H 	H 	0.93103 0.37426 0.14339 0.04400
C 	C 	0.88791 0.49026 0.19648 -0.11700
C 	C 	0.96608 0.35490 0.24033 -0.09400
C 	C 	0.90819 0.52484 0.19588 -0.02500
H 	H 	0.92377 0.52669 0.23575 0.02900
H 	H 	0.88982 0.54854 0.19572 0.02000
C 	C 	0.94401 0.33208 0.27954 -0.02400
H 	H 	0.91920 0.32774 0.25805 0.03600
H 	H 	0.93887 0.34641 0.32107 0.03500
H 	H 	0.87187 0.48943 0.15706 0.04500
H 	H 	0.99123 0.35867 0.26091 0.04900
C 	C 	0.93133 0.52743 0.14306 -0.13900
C 	C 	0.96154 0.29540 0.29258 -0.15800
H 	H 	0.91589 0.52839 0.10283 0.00800
H 	H 	0.94553 0.55259 0.14565 0.03100
H 	H 	0.95012 0.50416 0.14142 0.05200
H 	H 	0.86963 0.49222 0.23320 0.05200
H 	H 	0.96630 0.28003 0.25192 0.06100
H 	H 	0.94493 0.27961 0.32099 0.05900
H 	H 	0.98614 0.29891 0.31513 0.05900
H 	H 	0.97152 0.33997 0.19937 0.05100
C 	C 	0.05559 0.70226 0.01840 -0.00800
N 	N 	0.07652 0.72450 0.04661 -0.06200
N 	N 	0.07054 0.76016 0.04487 -0.08800
C 	C 	0.04375 0.77454 0.01421 0.08400
N 	N 	0.02295 0.75228 0.98581 -0.06500
N 	N 	0.02875 0.71665 0.98800 -0.04100
C 	C 	0.06390 0.59054 0.83994 -0.11500
C 	C 	0.05391 0.62215 0.80845 0.08800
C 	C 	0.04684 0.61932 0.74914 -0.08800
C 	C 	0.04357 0.58549 0.72344 0.01400
C 	C 	0.05327 0.55381 0.75501 -0.00100
C 	C 	0.06495 0.55697 0.81204 -0.00000
H 	H 	0.03993 0.64350 0.72463 0.05400
H 	H 	0.07337 0.53292 0.83569 0.03800
C 	C 	0.04611 0.65811 0.83837 -0.13200
C 	C 	0.05160 0.51651 0.72849 -0.09200
C 	C 	0.00769 0.66831 0.83958 -0.00900
H 	H 	0.99794 0.67219 0.79480 0.02800
H 	H 	0.00382 0.69454 0.86243 0.04000
C 	C 	0.08492 0.50552 0.69717 -0.02500
H 	H 	0.10556 0.50074 0.72954 0.03600
H 	H 	0.09265 0.52742 0.66779 0.03800
H 	H 	0.05607 0.65926 0.88301 0.08400
H 	H 	0.02957 0.51490 0.69882 0.05000
C 	C 	0.98677 0.64024 0.87032 -0.15700
C 	C 	0.08120 0.47119 0.66172 -0.15800
H 	H 	0.99696 0.63459 0.91426 0.05600
H 	H 	0.95993 0.65068 0.87440 0.05700
H 	H 	0.98700 0.61472 0.84516 0.05600
H 	H 	0.05916 0.67943 0.81419 0.06400
H 	H 	0.07402 0.44860 0.69014 0.05900
H 	H 	0.10582 0.46363 0.64033 0.06000
H 	H 	0.06143 0.47567 0.62779 0.06100
H 	H 	0.04717 0.49638 0.76307 0.04300
C 	C 	0.09434 0.56524 0.16786 -0.12200
C 	C 	0.07762 0.58174 0.21595 0.08500
C 	C 	0.07552 0.56229 0.26785 -0.09000
C 	C 	0.09315 0.52872 0.27428 0.01300
C 	C 	0.11570 0.51624 0.23012 -0.00100
C 	C 	0.11529 0.53404 0.17649 -0.00600
H 	H 	0.06014 0.57334 0.30310 0.05200
H 	H 	0.13080 0.52319 0.14124 0.03600
C 	C 	0.06636 0.62146 0.21539 -0.12800
C 	C 	0.14178 0.48556 0.24080 -0.09500
C 	C 	0.09377 0.64521 0.24057 -0.00700
H 	H 	0.10214 0.63487 0.28366 0.02800
H 	H 	0.08241 0.67292 0.24690 0.02700
C 	C 	0.13333 0.45152 0.20684 -0.02400
H 	H 	0.13381 0.45720 0.15965 0.02600
H 	H 	0.10746 0.44302 0.21829 0.02800
H 	H 	0.05918 0.63156 0.17180 0.06900
H 	H 	0.14401 0.47907 0.28762 0.05000
C 	C 	0.12476 0.64750 0.20084 -0.16700
C 	C 	0.15892 0.42032 0.21967 -0.15800
H 	H 	0.11677 0.65624 0.15674 0.07400
H 	H 	0.14218 0.66753 0.21846 0.06300
H 	H 	0.13897 0.62099 0.19827 0.06900
H 	H 	0.04290 0.62530 0.24208 0.05100
H 	H 	0.18509 0.42775 0.20765 0.05700
H 	H 	0.15229 0.39629 0.19411 0.05500
H 	H 	0.15829 0.41320 0.26632 0.05800
H 	H 	0.16724 0.49440 0.22699 0.04700
C 	C 	0.79324 0.93994 0.00354 0.08000
N 	N 	0.77355 0.96306 0.97091 -0.06300
N 	N 	0.74000 0.95950 0.96793 -0.06300
C 	C 	0.72518 0.93259 0.99719 0.06100
N 	N 	0.74490 0.90917 0.02926 -0.08400
N 	N 	0.77847 0.91280 0.03241 -0.08700
C 	C 	0.55168 0.92819 0.74578 0.01300
C 	C 	0.55082 0.96073 0.77804 0.00200
C 	C 	0.56930 0.96199 0.82985 -0.00300
C 	C 	0.59128 0.93286 0.84677 -0.11300
C 	C 	0.59771 0.90400 0.80700 0.08400
C 	C 	0.57614 0.90085 0.75903 -0.08700
H 	H 	0.56680 0.98593 0.85668 0.03200
H 	H 	0.57867 0.87713 0.73166 0.05300
C 	C 	0.53331 0.99531 0.75529 -0.09500
C 	C 	0.62877 0.87841 0.81169 -0.12200
C 	C 	0.55903 0.02171 0.73184 -0.02200
H 	H 	0.57921 0.02619 0.76442 0.02900
H 	H 	0.54543 0.04818 0.72379 0.02700
C 	C 	0.61947 0.84237 0.83901 -0.00800
H 	H 	0.60505 0.82662 0.80714 0.03200
H 	H 	0.60279 0.84708 0.87724 0.04900
H 	H 	0.51418 0.99082 0.72127 0.05200
H 	H 	0.64991 0.89103 0.83489 0.07500
C 	C 	0.57551 0.00867 0.67525 -0.15800
C 	C 	0.65115 0.81998 0.85760 -0.16700
H 	H 	0.55570 0.00464 0.64190 0.06200
H 	H 	0.59289 0.02925 0.65918 0.05800
H 	H 	0.59064 0.98300 0.68204 0.06500
H 	H 	0.51896 0.00869 0.79140 0.04200
H 	H 	0.66808 0.81431 0.81988 0.06600
H 	H 	0.64343 0.79393 0.87609 0.07600
H 	H 	0.66533 0.83457 0.89119 0.07800
H 	H 	0.63907 0.87283 0.76758 0.05400
C 	C 	0.60839 0.93268 0.17501 -0.12100
C 	C 	0.60409 0.90103 0.20839 0.08500
C 	C 	0.58607 0.90392 0.26094 -0.09100
C 	C 	0.57226 0.93736 0.27954 0.01400
C 	C 	0.58282 0.96920 0.25257 -0.00500
C 	C 	0.60043 0.96659 0.19983 -0.00500
H 	H 	0.58128 0.87991 0.28583 0.05200
H 	H 	0.60664 0.99096 0.17696 0.01900
C 	C 	0.62209 0.86520 0.19241 -0.12400
C 	C 	0.57757 0.00571 0.28161 -0.09000
C 	C 	0.59835 0.83322 0.19051 -0.00900
H 	H 	0.58985 0.82640 0.23485 0.02500
H 	H 	0.61316 0.80917 0.17381 0.03200
C 	C 	0.60215 0.00930 0.33258 -0.02700
H 	H 	0.62890 0.00648 0.31681 0.03200
H 	H 	0.59816 0.98764 0.36479 0.03600
H 	H 	0.63605 0.86640 0.15079 0.06400
H 	H 	0.55091 0.01012 0.29676 0.04700
C 	C 	0.56710 0.83994 0.15200 -0.16200
C 	C 	0.59678 0.04580 0.36252 -0.15600
H 	H 	0.57490 0.84715 0.10766 0.07200
H 	H 	0.55257 0.81498 0.14966 0.06000
H 	H 	0.55002 0.86187 0.16988 0.06400
H 	H 	0.64199 0.85910 0.22558 0.05500
H 	H 	0.60170 0.06806 0.33189 0.05300
H 	H 	0.61470 0.04740 0.39945 0.05600
H 	H 	0.57029 0.04915 0.37926 0.05700
H 	H 	0.58191 0.02766 0.25000 0.03600
C 	C 	0.20522 0.06850 0.01886 0.08400
N 	N 	0.21955 0.09282 0.98337 -0.06100
N 	N 	0.25310 0.09692 0.98443 -0.03700
C 	C 	0.27324 0.07684 0.02101 0.00600
N 	N 	0.25890 0.05272 0.05671 -0.06900
N 	N 	0.22537 0.04865 0.05573 -0.08900
C 	C 	0.40031 0.03201 0.74231 0.01100
C 	C 	0.36715 0.04242 0.76167 0.00600
C 	C 	0.36309 0.05944 0.81557 -0.00100
C 	C 	0.39143 0.06548 0.85049 -0.11000
C 	C 	0.42468 0.05927 0.82772 0.08200
C 	C 	0.42867 0.04358 0.77282 -0.08700
H 	H 	0.33765 0.06588 0.83197 0.04300
H 	H 	0.45410 0.03726 0.75625 0.04900
C 	C 	0.33580 0.03563 0.72557 -0.09500
C 	C 	0.45614 0.06547 0.86359 -0.13500
C 	C 	0.32054 0.07058 0.69842 -0.02200
H 	H 	0.31616 0.09164 0.73214 0.03700
H 	H 	0.29532 0.06493 0.67951 0.03100
C 	C 	0.46718 0.03127 0.89745 -0.00300
H 	H 	0.47051 0.00799 0.86734 0.02300
H 	H 	0.44722 0.02492 0.92952 0.00400
H 	H 	0.34071 0.01516 0.69123 0.05200
H 	H 	0.45185 0.08858 0.89358 0.07300
C 	C 	0.34301 0.08518 0.65061 -0.15700
C 	C 	0.50073 0.03593 0.92929 -0.16900
H 	H 	0.34632 0.06510 0.61523 0.06100
H 	H 	0.33065 0.11021 0.63243 0.06000
H 	H 	0.36835 0.09178 0.66791 0.06600
H 	H 	0.31621 0.02422 0.75417 0.05100
H 	H 	0.52141 0.04134 0.89807 0.05600
H 	H 	0.50789 0.01079 0.95335 0.05300
H 	H 	0.49805 0.05859 0.96061 0.05900
H 	H 	0.47724 0.07297 0.83440 0.05600
C 	C 	0.39520 0.09437 0.17880 -0.12100
C 	C 	0.37486 0.07607 0.21883 0.07900
C 	C 	0.38892 0.06521 0.27216 -0.08900
C 	C 	0.42269 0.07256 0.28554 0.01300
C 	C 	0.44009 0.09707 0.25078 -0.00100
C 	C 	0.42629 0.10754 0.19706 -0.00100
H 	H 	0.37450 0.04870 0.30118 0.05100
H 	H 	0.44086 0.12380 0.16788 0.03100
C 	C 	0.33804 0.06846 0.20576 -0.12900
C 	C 	0.47366 0.11159 0.27006 -0.09300
C 	C 	0.31321 0.09732 0.23160 -0.00500
H 	H 	0.31928 0.10187 0.27792 0.02700
H 	H 	0.28699 0.08727 0.22958 0.02800
C 	C 	0.50401 0.09160 0.24048 -0.02500
H 	H 	0.50193 0.09473 0.19278 0.02400
H 	H 	0.50417 0.06237 0.25088 0.02700
H 	H 	0.33330 0.06586 0.15882 0.06500
H 	H 	0.47637 0.10956 0.31786 0.04900
C 	C 	0.31352 0.13314 0.19892 -0.16600
C 	C 	0.53779 0.10628 0.26020 -0.15700
H 	H 	0.30752 0.12908 0.15250 0.07600
H 	H 	0.29393 0.15230 0.21753 0.06100
H 	H 	0.33874 0.14527 0.20290 0.07500
H 	H 	0.33213 0.04187 0.22466 0.04900
H 	H 	0.53863 0.13551 0.25001 0.05400
H 	H 	0.55917 0.09177 0.23738 0.04700
H 	H 	0.54114 0.10225 0.30750 0.05400
H 	H 	0.47385 0.14082 0.25921 0.04700
C 	C 	0.42101 0.29294 0.99068 0.13400
N 	N 	0.44250 0.26790 0.01588 -0.10900
N 	N 	0.43382 0.23365 0.02001 -0.09700
C 	C 	0.40324 0.22358 0.99970 0.12900
N 	N 	0.38166 0.24865 0.97486 -0.06700
N 	N 	0.39048 0.28283 0.97018 -0.08000
C 	C 	0.21281 0.58199 0.96748 0.05600
N 	N 	0.23487 0.60207 0.99738 -0.05600
N 	N 	0.26824 0.59382 0.99561 -0.07500
C 	C 	0.28048 0.56547 0.96345 0.10700
N 	N 	0.25846 0.54589 0.93260 -0.08000
N 	N 	0.22509 0.55396 0.93475 -0.06000
C 	C 	0.77777 0.44574 0.01550 0.00300
N 	N 	0.76182 0.47130 0.04909 -0.06800
N 	N 	0.72803 0.47622 0.04744 -0.09200
C 	C 	0.70925 0.45589 0.01183 0.09100
N 	N 	0.72515 0.42992 0.97887 -0.06600
N 	N 	0.75893 0.42475 0.98099 -0.04100
C 	C 	0.56899 0.72196 0.99583 0.13300
N 	N 	0.59812 0.73028 0.02343 -0.11100
N 	N 	0.60809 0.76416 0.02391 -0.08900
C 	C 	0.58907 0.79072 0.99726 0.06500
N 	N 	0.55984 0.78246 0.96993 -0.06500
N 	N 	0.55004 0.74851 0.96892 -0.08400
