data_crystal

_cell_length_a 20.10688
_cell_length_b 17.83575
_cell_length_c 49.83454
_cell_angle_alpha 89.94469
_cell_angle_beta  89.95048
_cell_angle_gamma 119.43924

_symmetry_space_group_name_	'P 1'
_symmetry_space_group_name_H-M	'P 1'

loop_
_symmetry_equiv_pos_as_xyz
  x,y,z

loop_
_atom_site_label
_atom_site_type_symbol
_atom_site_fract_x
_atom_site_fract_y
_atom_site_fract_z
_atom_site_charge
C 	C 	0.01335 0.85114 0.88741 -0.03500
N 	N 	0.00365 0.60899 0.56300 -0.08500
O 	O 	0.01181 0.87849 0.80335 -0.35700
O 	O 	0.01136 0.13170 0.25742 -0.36500
H 	H 	0.01299 0.42023 0.12652 0.06900
O 	O 	0.01840 0.09639 0.19955 -0.35800
O 	O 	0.01685 0.88274 0.28553 -0.37400
H 	H 	0.02514 0.19220 0.10860 0.06300
H 	H 	0.01603 0.27916 0.25715 0.04000
H 	H 	0.01649 0.71250 0.72838 0.06000
C 	C 	0.02361 0.65695 0.08466 0.11600
C 	C 	0.02663 0.88440 0.86130 0.02800
H 	H 	0.02931 0.20012 0.63596 0.08200
C 	C 	0.02805 0.53314 0.10540 -0.01900
O 	O 	0.03202 0.85075 0.74875 -0.35800
H 	H 	0.03368 0.98314 0.74100 0.15000
H 	H 	0.02843 0.54683 0.22071 0.05400
H 	H 	0.02309 0.58990 0.49416 0.07600
O 	O 	0.03668 0.00365 0.75952 -0.70200
H 	H 	0.03672 0.20995 0.83508 0.06400
O 	O 	0.04598 0.15380 0.78576 -0.36800
C 	C 	0.03071 0.56303 0.40758 0.05300
N 	N 	0.04866 0.73036 0.08182 -0.11000
H 	H 	0.05560 0.83931 0.89707 0.05300
C 	C 	0.04288 0.45555 0.43339 0.04200
N 	N 	0.06148 0.44482 0.02999 -0.10000
C 	C 	0.05920 0.06779 0.18633 0.30400
C 	C 	0.05182 0.83198 0.23373 0.32700
C 	C 	0.04825 0.61507 0.38365 0.06700
H 	H 	0.06008 0.15877 0.67948 0.02600
C 	C 	0.06715 0.95832 0.29529 0.32800
N 	N 	0.06227 0.65657 0.36442 -0.10500
H 	H 	0.08708 0.33861 0.08948 0.04600
H 	H 	0.08005 0.90064 0.85140 0.03300
C 	C 	0.08615 0.22543 0.10491 -0.05100
C 	C 	0.07626 0.76840 0.23159 -0.08900
C 	C 	0.07770 0.31583 0.25849 0.01500
H 	H 	0.07858 0.43481 0.26652 0.05300
H 	H 	0.08174 0.83935 0.37975 0.05900
C 	C 	0.07208 0.52047 0.41382 -0.08900
H 	H 	0.07073 0.41760 0.43703 0.04800
Ni	Ni	0.08793 0.12443 0.75341 1.12300
C 	C 	0.08433 0.10132 0.15982 -0.08300
C 	C 	0.08433 0.17993 0.25226 0.30600
Ni	Ni	0.09105 0.95431 0.77448 1.11000
C 	C 	0.09018 0.57739 0.22037 -0.05700
H 	H 	0.09063 0.46970 0.20116 0.03700
O 	O 	0.09460 0.03151 0.19907 -0.36800
Ni	Ni	0.09509 0.02180 0.23972 1.12300
O 	O 	0.09736 0.02759 0.28003 -0.38500
C 	C 	0.10530 0.13804 0.13858 0.04400
C 	C 	0.10103 0.71880 0.23030 0.04300
C 	C 	0.11159 0.57901 0.10741 0.29500
O 	O 	0.10486 0.91289 0.23913 -0.37800
C 	C 	0.10416 0.96035 0.32013 -0.09100
C 	C 	0.12128 0.30848 0.09396 0.02000
C 	C 	0.11333 0.40465 0.26318 -0.05400
O 	O 	0.12091 0.14783 0.23890 -0.37500
C 	C 	0.12163 0.27452 0.25619 -0.07900
C 	C 	0.13117 0.19169 0.11500 0.02200
C 	C 	0.12566 0.53331 0.20954 0.01600
O 	O 	0.14076 0.10133 0.72273 -0.38100
C 	C 	0.13474 0.66348 0.22828 0.01600
O 	O 	0.14018 0.04937 0.80322 -0.38100
C 	C 	0.13683 0.95845 0.34020 0.04900
O 	O 	0.14903 0.54646 0.09507 -0.37900
O 	O 	0.14809 0.65581 0.11851 -0.37100
C 	C 	0.14337 0.87898 0.37944 -0.04800
H 	H 	0.16097 0.79076 0.40390 0.04100
C 	C 	0.15450 0.56443 0.40831 0.29700
C 	C 	0.17824 0.95190 0.36284 0.02100
C 	C 	0.18382 0.06448 0.72560 0.30800
O 	O 	0.18373 0.02338 0.74806 -0.36700
O 	O 	0.18700 0.16185 0.77398 -0.37900
C 	C 	0.18831 0.85136 0.39312 0.01300
C 	C 	0.19199 0.12759 0.79675 0.31100
O 	O 	0.19530 0.58441 0.15729 -0.39300
O 	O 	0.18624 0.51869 0.39930 -0.36700
C 	C 	0.20121 0.35723 0.09315 -0.07900
C 	C 	0.19298 0.45287 0.26601 0.01700
N 	N 	0.18993 0.35908 0.46204 -0.10300
N 	N 	0.19877 0.95525 0.99861 -0.11000
O 	O 	0.19637 0.64106 0.41944 -0.37100
C 	C 	0.20468 0.57815 0.20433 -0.09200
C 	C 	0.20176 0.32438 0.25650 0.01600
C 	C 	0.20895 0.23257 0.10837 -0.05400
H 	H 	0.20563 0.82714 0.05013 0.05500
C 	C 	0.00335 0.12068 0.67117 0.08000
C 	C 	0.21434 0.69942 0.22956 -0.05600
H 	H 	0.21103 0.11459 0.85007 0.04200
C 	C 	0.22499 0.53022 0.28197 0.04400
O 	O 	0.22520 0.58970 0.34457 -0.39000
C 	C 	0.22938 0.57054 0.17707 0.31000
C 	C 	0.23741 0.44953 0.09883 0.30800
C 	C 	0.23714 0.41319 0.26113 -0.05400
H 	H 	0.23666 0.29403 0.25406 0.03900
C 	C 	0.23785 0.95519 0.01564 0.09600
C 	C 	0.24396 0.31531 0.09721 0.01700
O 	O 	0.00363 0.11497 0.72881 -0.36200
O 	O 	0.24588 0.72578 0.07609 -0.37000
H 	H 	0.24385 0.20502 0.11476 0.05200
C 	C 	0.24420 0.08725 0.70666 -0.09200
Ni	Ni	0.24804 0.69824 0.13839 1.12100
O 	O 	0.25366 0.47518 0.12369 -0.37600
C 	C 	0.24707 0.58561 0.29889 -0.09800
C 	C 	0.24915 0.65514 0.21840 0.01200
H 	H 	0.24947 0.76406 0.23720 0.05400
Ni	Ni	0.25601 0.61838 0.08213 1.12500
O 	O 	0.25905 0.50584 0.07915 -0.36800
C 	C 	0.25769 0.00484 0.36383 -0.05700
C 	C 	0.26133 0.88289 0.05349 0.01300
C 	C 	0.25588 0.39533 0.46050 0.07900
C 	C 	0.26414 0.63333 0.32345 0.31300
C 	C 	0.26405 0.16869 0.81180 -0.08700
H 	H 	0.26712 0.68497 0.37913 0.16500
C 	C 	0.26774 0.89526 0.38952 -0.07300
C 	C 	0.26433 0.15135 0.83929 0.01700
Ni	Ni	0.27838 0.56315 0.37357 1.12200
C 	C 	0.28546 0.80074 0.08897 0.29000
C 	C 	0.28668 0.95516 0.03686 -0.03700
H 	H 	0.28519 0.06331 0.35196 0.05500
O 	O 	0.29064 0.80428 0.11557 -0.37400
O 	O 	0.29695 0.57782 0.17276 -0.37100
C 	C 	0.29531 0.11217 0.69056 0.04200
O 	O 	0.29991 0.65598 0.11663 -0.71600
H 	H 	0.29875 0.44985 0.26298 0.05000
O 	O 	0.29924 0.58581 0.43677 -0.36500
H 	H 	0.30556 0.35079 0.09515 0.03400
C 	C 	0.30247 0.97675 0.37731 0.02400
C 	C 	0.30806 0.84559 0.38921 0.28800
C 	C 	0.30843 0.88150 0.07406 -0.06900
H 	H 	0.31058 0.68662 0.21737 0.04100
O 	O 	0.31145 0.67881 0.38427 -0.71300
Ni	Ni	0.31398 0.70146 0.42101 1.11600
H 	H 	0.31302 0.02973 0.64841 0.05500
O 	O 	0.32819 0.82439 0.41230 -0.36000
O 	O 	0.33137 0.83204 0.36564 -0.37000
O 	O 	0.33068 0.70711 0.32602 -0.37400
C 	C 	0.33365 0.21689 0.79817 0.01800
H 	H 	0.33434 0.23003 0.77691 0.04200
C 	C 	0.33345 0.18006 0.85281 -0.05500
O 	O 	0.33788 0.75199 0.16593 -0.36800
H 	H 	0.33319 0.16640 0.87402 0.05500
C 	C 	0.33510 0.54737 0.42673 0.31100
Ni	Ni	0.34284 0.59516 0.13346 1.11200
C 	C 	0.33821 0.44067 0.45857 0.02800
H 	H 	0.34545 0.71084 0.11184 0.16800
O 	O 	0.34288 0.54393 0.40077 -0.37900
H 	H 	0.35005 0.34545 0.48166 0.05800
C 	C 	0.35675 0.14696 0.67146 0.01800
C 	C 	0.35805 0.09600 0.65036 -0.05500
C 	C 	0.36061 0.02577 0.04031 0.02200
O 	O 	0.35939 0.57655 0.34613 -0.37800
O 	O 	0.36368 0.67510 0.06792 -0.37000
H 	H 	0.36409 0.01349 0.37553 0.04300
C 	C 	0.37691 0.51923 0.44448 -0.08200
C 	C 	0.37815 0.95692 0.07967 0.02700
C 	C 	0.37977 0.40551 0.47060 -0.05700
Ni	Ni	0.38685 0.76441 0.36145 1.12100
N 	N 	0.38794 0.84921 0.50164 -0.11900
H 	H 	0.38982 0.19059 0.03621 0.05500
C 	C 	0.39928 0.08648 0.01796 0.02500
N 	N 	0.40044 0.90338 0.99128 -0.11100
O 	O 	0.40259 0.60313 0.09758 -0.36400
C 	C 	0.40264 0.22634 0.83898 0.01900
C 	C 	0.40263 0.24545 0.81173 -0.05600
C 	C 	0.40376 0.02848 0.06272 -0.05600
C 	C 	0.40653 0.75600 0.16468 0.29300
H 	H 	0.41249 0.66410 0.20698 0.03700
H 	H 	0.41265 0.27329 0.68953 0.05100
C 	C 	0.41302 0.97376 0.99341 0.09500
C 	C 	0.41410 0.23317 0.67347 -0.05500
C 	C 	0.41480 0.17209 0.02000 -0.05600
C 	C 	0.41734 0.65937 0.07752 0.28800
C 	C 	0.41810 0.13022 0.63187 0.01700
H 	H 	0.41948 0.08982 0.61589 0.04400
O 	O 	0.42300 0.71549 0.14606 -0.37800
C 	C 	0.60442 0.33490 0.87893 0.30600
C 	C 	0.85006 0.59909 0.94003 0.32900
C 	C 	0.80665 0.37319 0.88748 0.32900
C 	C 	0.66333 0.56486 0.93792 0.29600
C 	C 	0.76909 0.33577 0.97580 0.31000
C 	C 	0.56606 0.27624 0.96630 0.29600
Ni	Ni	0.74125 0.48891 0.90070 1.11400
Ni	Ni	0.71145 0.45253 0.96476 1.12300
Ni	Ni	0.67915 0.29739 0.92542 1.12200
O 	O 	0.64148 0.42012 0.87913 -0.36700
O 	O 	0.63748 0.29022 0.88732 -0.37300
O 	O 	0.78937 0.41669 0.97186 -0.38500
O 	O 	0.84085 0.54178 0.92233 -0.38400
O 	O 	0.80018 0.57643 0.95969 -0.37200
O 	O 	0.57598 0.25596 0.94159 -0.38600
O 	O 	0.78196 0.42295 0.87736 -0.37000
O 	O 	0.78662 0.34153 0.91167 -0.38300
O 	O 	0.62268 0.34093 0.97994 -0.36900
O 	O 	0.70924 0.57668 0.91693 -0.36600
O 	O 	0.64260 0.50029 0.95503 -0.37400
O 	O 	0.71437 0.27503 0.96130 -0.37700
O 	O 	0.69318 0.41053 0.92888 -0.71200
H 	H 	0.64032 0.39872 0.92646 0.16600
C 	C 	0.80610 0.44912 0.54410 0.29600
C 	C 	0.62222 0.08890 0.57416 0.30800
C 	C 	0.61196 0.31170 0.53411 0.31000
C 	C 	0.81709 0.22086 0.59713 0.30700
C 	C 	0.54728 0.24626 0.61831 0.31200
C 	C 	0.75022 0.40823 0.63822 0.30600
Ni	Ni	0.72720 0.26069 0.55303 1.11400
Ni	Ni	0.68183 0.22664 0.61597 1.12200
Ni	Ni	0.67451 0.37978 0.58595 1.12800
O 	O 	0.81773 0.38352 0.54863 -0.37200
O 	O 	0.74923 0.45565 0.55596 -0.36100
O 	O 	0.57161 0.19230 0.61259 -0.38800
O 	O 	0.62605 0.14750 0.55773 -0.37600
O 	O 	0.65569 0.11178 0.59775 -0.37100
O 	O 	0.74829 0.44486 0.61526 -0.37500
O 	O 	0.66913 0.30058 0.52636 -0.36900
O 	O 	0.59435 0.30474 0.55941 -0.38100
O 	O 	0.70525 0.32395 0.64267 -0.37700
O 	O 	0.79235 0.21014 0.57165 -0.35900
O 	O 	0.79049 0.25144 0.61586 -0.38400
O 	O 	0.59176 0.32947 0.61436 -0.37600
O 	O 	0.71397 0.30264 0.58599 -0.71500
H 	H 	0.76729 0.34320 0.59084 0.17200
C 	C 	0.95656 0.81172 0.74600 0.26500
C 	C 	0.97612 0.90827 0.81827 0.28900
C 	C 	0.97249 0.12550 0.78880 0.28100
C 	C 	0.95786 0.04439 0.71500 0.28100
Ni	Ni	0.93029 0.95436 0.76675 1.11400
O 	O 	0.91403 0.83252 0.76149 -0.37300
O 	O 	0.91418 0.96990 0.72754 -0.38600
O 	O 	0.94093 0.94611 0.80715 -0.38200
O 	O 	0.92206 0.06060 0.77435 -0.38000
C 	C 	0.47778 0.81943 0.41208 0.31200
C 	C 	0.43114 0.63922 0.34700 0.30800
O 	O 	0.42940 0.74527 0.42233 -0.38200
O 	O 	0.46056 0.84641 0.38989 -0.36700
O 	O 	0.44990 0.70674 0.36181 -0.39300
C 	C 	0.84164 0.93357 0.27841 0.32500
C 	C 	0.81475 0.86078 0.21969 0.30600
Ni	Ni	0.94132 0.03455 0.23121 1.10300
Ni	Ni	0.93492 0.86350 0.25853 1.11800
O 	O 	0.85204 0.98976 0.25949 -0.37300
O 	O 	0.89723 0.91949 0.28491 -0.39500
O 	O 	0.97762 0.80571 0.23498 -0.39600
O 	O 	0.86569 0.93247 0.20803 -0.37900
O 	O 	0.83525 0.81617 0.23615 -0.37000
O 	O 	0.98641 0.96513 0.23750 -0.72000
H 	H 	0.97916 0.93666 0.21996 0.16000
C 	C 	0.59801 0.82010 0.21021 0.01300
C 	C 	0.53147 0.74272 0.21569 -0.05400
C 	C 	0.46172 0.72760 0.20494 0.00500
C 	C 	0.73566 0.83792 0.21746 -0.09500
C 	C 	0.52300 0.87085 0.18588 0.01100
C 	C 	0.59283 0.88632 0.19682 -0.05100
C 	C 	0.67192 0.82738 0.21475 0.04200
C 	C 	0.45872 0.78852 0.18769 -0.07600
H 	H 	0.53443 0.69202 0.22670 0.04700
H 	H 	0.52120 0.91959 0.17339 0.04200
H 	H 	0.64373 0.94766 0.19328 0.05100
C 	C 	0.62813 0.74888 0.30206 0.01200
C 	C 	0.56140 0.74095 0.29057 -0.05400
C 	C 	0.49034 0.68682 0.30245 0.00700
C 	C 	0.76515 0.87189 0.28660 -0.11000
C 	C 	0.55163 0.64235 0.33562 0.01600
C 	C 	0.62258 0.69529 0.32354 -0.05300
C 	C 	0.70219 0.81653 0.29340 0.04700
C 	C 	0.48646 0.64485 0.32678 -0.08400
H 	H 	0.56483 0.78038 0.27352 0.04900
H 	H 	0.43978 0.68612 0.29462 0.03800
H 	H 	0.54904 0.60747 0.35377 0.03800
H 	H 	0.67360 0.69844 0.33192 0.05100
C 	C 	0.59798 0.86103 0.47008 -0.04100
C 	C 	0.58734 0.92611 0.48202 0.02100
C 	C 	0.56929 0.97777 0.46560 -0.05800
C 	C 	0.54651 0.95362 0.43895 0.02700
C 	C 	0.54330 0.87828 0.42868 -0.08500
C 	C 	0.58120 0.84218 0.44281 0.01500
C 	C 	0.58645 0.93464 0.51169 0.02000
C 	C 	0.65370 0.96133 0.52649 -0.05700
C 	C 	0.65737 0.98833 0.55309 0.01800
C 	C 	0.59958 0.00338 0.56306 -0.07900
C 	C 	0.52746 0.95911 0.55093 0.01000
C 	C 	0.52063 0.92517 0.52502 -0.03900
C 	C 	0.71508 0.99098 0.57071 0.08500
C 	C 	0.44694 0.88300 0.51206 0.09200
C 	C 	0.61919 0.80836 0.48600 0.09000
C 	C 	0.52104 0.00241 0.42307 0.08300
N 	N 	0.76104 0.99150 0.58475 -0.11100
N 	N 	0.50059 0.04154 0.41035 -0.10500
N 	N 	0.63609 0.76605 0.49873 -0.11200
H 	H 	0.58577 0.78935 0.43394 0.04100
H 	H 	0.56721 0.03250 0.47416 0.05500
H 	H 	0.70280 0.96166 0.51736 0.05600
H 	H 	0.47936 0.96137 0.55995 0.04100
C 	C 	0.98497 0.44801 0.45074 -0.06700
C 	C 	0.95636 0.50587 0.44829 0.03300
C 	C 	0.97501 0.55846 0.42547 -0.08600
C 	C 	0.91869 0.52191 0.47146 0.02400
C 	C 	0.96127 0.55931 0.49479 -0.08100
C 	C 	0.92392 0.54961 0.51935 0.04200
C 	C 	0.84363 0.50274 0.52047 -0.08000
C 	C 	0.80224 0.48283 0.49638 0.01300
C 	C 	0.83906 0.48923 0.47189 -0.04100
C 	C 	0.96819 0.58259 0.54357 0.05400
C 	C 	0.79440 0.45779 0.44768 0.09100
C 	C 	0.95804 0.38410 0.47181 0.09700
N 	N 	0.75857 0.43257 0.42828 -0.11300
N 	N 	0.93642 0.33295 0.48872 -0.11900
H 	H 	0.94929 0.59888 0.42243 0.05800
H 	H 	0.74055 0.45333 0.49697 0.04900
C 	C 	0.49843 0.52759 0.45512 -0.04000
C 	C 	0.45976 0.44821 0.46878 0.02300
C 	C 	0.45694 0.56284 0.44325 0.01600
C 	C 	0.50299 0.41596 0.48450 0.02500
C 	C 	0.53151 0.45213 0.50961 -0.06000
C 	C 	0.57135 0.42250 0.52527 0.03500
C 	C 	0.58159 0.35360 0.51601 -0.09000
C 	C 	0.55587 0.31985 0.49027 0.01700
C 	C 	0.51651 0.35063 0.47448 -0.04200
C 	C 	0.60180 0.46377 0.55074 0.05600
C 	C 	0.48998 0.31472 0.44814 0.09600
C 	C 	0.58073 0.57288 0.45302 0.09500
N 	N 	0.62578 0.49713 0.57114 -0.13400
N 	N 	0.46870 0.28596 0.42703 -0.11200
N 	N 	0.64665 0.60913 0.45135 -0.11200
H 	H 	0.48677 0.62293 0.43221 0.04600
H 	H 	0.52258 0.50376 0.51698 0.06100
H 	H 	0.56454 0.26811 0.48286 0.04200
C 	C 	0.91182 0.09841 0.63615 0.04700
C 	C 	0.98629 0.14336 0.64627 -0.12100
C 	C 	0.85767 0.17850 0.60635 -0.08100
C 	C 	0.87415 0.00111 0.67435 0.03800
C 	C 	0.85753 0.02337 0.64929 -0.07100
C 	C 	0.88548 0.14185 0.61830 0.03400
C 	C 	0.94574 0.05309 0.68617 -0.11500
H 	H 	0.82984 0.94691 0.68522 0.03200
H 	H 	0.80019 0.98689 0.64132 0.05900
C 	C 	0.47417 0.26754 0.65503 0.01600
C 	C 	0.47747 0.21565 0.63448 -0.08400
H 	H 	0.51957 0.33343 0.65734 0.04400
C 	C 	0.84593 0.58260 0.69838 0.01000
C 	C 	0.80562 0.62399 0.70670 -0.04800
C 	C 	0.84156 0.69843 0.72232 0.00400
C 	C 	0.78485 0.46390 0.66071 -0.09000
C 	C 	0.95777 0.68851 0.72231 -0.01700
C 	C 	0.92173 0.61433 0.70651 -0.04300
C 	C 	0.81317 0.51590 0.67846 0.04300
C 	C 	0.91817 0.73181 0.73000 -0.06200
H 	H 	0.74711 0.60011 0.70031 0.04900
H 	H 	0.81029 0.73107 0.72798 0.03800
H 	H 	0.95337 0.58287 0.70005 0.04400
C 	C 	0.91363 0.37389 0.02670 -0.03600
C 	C 	0.86949 0.36586 0.04966 0.02600
C 	C 	0.78987 0.31688 0.04821 -0.06000
C 	C 	0.75435 0.28738 0.02329 0.02300
C 	C 	0.79860 0.31316 0.99962 -0.08300
C 	C 	0.87783 0.34729 0.00171 0.01200
C 	C 	0.90568 0.41942 0.07359 0.00100
C 	C 	0.93100 0.50805 0.07227 -0.03200
C 	C 	0.99243 0.56537 0.08819 -0.03300
C 	C 	0.98952 0.44485 0.11153 -0.05200
C 	C 	0.93011 0.38725 0.09496 -0.01400
C 	C 	0.89920 0.29573 0.09854 0.07300
C 	C 	0.99573 0.41326 0.02849 0.07200
C 	C 	0.67312 0.23001 0.02224 0.08100
N 	N 	0.87449 0.22238 0.10140 -0.11700
N 	N 	0.60798 0.18339 0.02174 -0.10700
H 	H 	0.91214 0.36149 0.98364 0.04300
H 	H 	0.75567 0.30457 0.06622 0.05500
H 	H 	0.90820 0.53269 0.05705 0.04700
C 	C 	0.46411 0.23417 0.00158 0.02800
C 	C 	0.49976 0.21072 0.98145 -0.07100
C 	C 	0.47763 0.12349 0.97780 0.01600
C 	C 	0.42875 0.06167 0.99613 -0.03500
C 	C 	0.47395 0.31995 0.00238 0.07900
C 	C 	0.42565 0.96003 0.10188 0.08600
N 	N 	0.48151 0.38856 0.00291 -0.10300
N 	N 	0.46373 0.96252 0.11965 -0.10900
H 	H 	0.45967 0.08412 0.06590 0.05900
H 	H 	0.50288 0.10461 0.96177 0.04300
C 	C 	0.56406 0.64184 0.03542 -0.03900
C 	C 	0.57914 0.70661 0.01627 0.02400
C 	C 	0.55845 0.76922 0.02182 -0.05600
C 	C 	0.51467 0.76151 0.04459 0.02600
C 	C 	0.48716 0.68738 0.06105 -0.07200
C 	C 	0.51696 0.63144 0.05749 0.01100
C 	C 	0.60442 0.70038 0.98887 0.02200
C 	C 	0.54970 0.64746 0.97002 -0.05500
C 	C 	0.57152 0.61515 0.94815 0.02700
C 	C 	0.64796 0.63403 0.94575 -0.07700
C 	C 	0.70400 0.70244 0.96077 0.00900
C 	C 	0.68250 0.73413 0.98293 -0.03800
C 	C 	0.51415 0.55548 0.92994 0.07800
C 	C 	0.74041 0.79685 0.00035 0.09100
C 	C 	0.59666 0.58600 0.03248 0.09800
C 	C 	0.49824 0.82969 0.05087 0.08400
N 	N 	0.46819 0.50759 0.91535 -0.10600
N 	N 	0.78680 0.84710 0.01433 -0.11300
N 	N 	0.48534 0.88465 0.05573 -0.10600
N 	N 	0.62316 0.54161 0.03013 -0.11700
H 	H 	0.50033 0.57733 0.07098 0.04600
H 	H 	0.57399 0.82215 0.00792 0.05700
H 	H 	0.48974 0.62602 0.97355 0.05900
H 	H 	0.76382 0.72265 0.95748 0.04600
C 	C 	0.89809 0.26660 0.83789 0.00600
C 	C 	0.96269 0.26083 0.84520 -0.04100
C 	C 	0.98726 0.21498 0.82911 -0.01800
C 	C 	0.84200 0.33908 0.87016 -0.10500
C 	C 	0.88296 0.18125 0.79822 0.00500
C 	C 	0.85864 0.22725 0.81430 -0.04800
C 	C 	0.86894 0.30739 0.85550 0.04900
C 	C 	0.94712 0.17439 0.80564 -0.06700
H 	H 	0.99320 0.29079 0.86352 0.04500
H 	H 	0.85212 0.15127 0.77997 0.04400
H 	H 	0.80856 0.23141 0.80857 0.05000
C 	C 	0.53339 0.29175 0.86497 -0.09100
C 	C 	0.47359 0.26007 0.85317 0.04400
H 	H 	0.45606 0.28233 0.80104 0.05200
C 	C 	0.94221 0.82354 0.89966 -0.00600
C 	C 	0.88726 0.68653 0.93084 -0.11700
C 	C 	0.90249 0.87570 0.86123 0.01400
C 	C 	0.88943 0.84249 0.88736 -0.05200
C 	C 	0.91445 0.75324 0.91849 0.05100
C 	C 	0.96915 0.89154 0.84747 -0.09400
H 	H 	0.85873 0.88389 0.85117 0.03800
H 	H 	0.83503 0.82361 0.89695 0.05000
