data_crystal

_cell_length_a 26.13803
_cell_length_b 26.38236
_cell_length_c 26.62421
_cell_angle_alpha 95.51411
_cell_angle_beta  95.51406
_cell_angle_gamma 125.84867

_symmetry_space_group_name_	'P 1'
_symmetry_space_group_name_H-M	'P 1'

loop_
_symmetry_equiv_pos_as_xyz
  x,y,z

loop_
_atom_site_label
_atom_site_type_symbol
_atom_site_fract_x
_atom_site_fract_y
_atom_site_fract_z
_atom_site_charge
C 	C 	0.99398 0.05331 0.98695 0.12900
N 	N 	0.95952 0.99085 0.99045 -0.13400
C 	C 	0.98617 0.95974 0.98574 0.12900
N 	N 	0.04736 0.99116 0.97764 -0.13600
C 	C 	0.08216 0.05374 0.97453 0.12900
N 	N 	0.05518 0.08465 0.97866 -0.13300
C 	C 	0.91255 0.97581 0.43986 0.13100
N 	N 	0.97770 0.01136 0.45101 -0.13900
C 	C 	0.00691 0.98256 0.45334 0.13200
N 	N 	0.97085 0.91807 0.44410 -0.13300
C 	C 	0.90576 0.88228 0.43305 0.13000
N 	N 	0.87657 0.91115 0.43064 -0.13500
Cu	Cu	0.66688 0.26829 0.01184 0.93200
Cu	Cu	0.72551 0.27431 0.90707 0.87400
Cu	Cu	0.70595 0.36992 0.94628 0.89900
Cu	Cu	0.66160 0.38233 0.04339 0.89800
C 	C 	0.67312 0.30942 0.11796 0.28600
O 	O 	0.57209 0.22775 0.00591 -0.35200
C 	C 	0.68852 0.32602 0.83524 0.28700
O 	O 	0.71688 0.36695 0.01787 -0.63900
O 	O 	0.66327 0.27655 0.93881 -0.64200
O 	O 	0.70823 0.22453 0.01192 -0.35700
O 	O 	0.78259 0.29209 0.96734 -0.42900
O 	O 	0.64642 0.33646 0.10239 -0.37600
O 	O 	0.75201 0.46124 0.95849 -0.37000
C 	C 	0.74451 0.49405 0.99374 0.28900
C 	C 	0.54670 0.25299 0.98444 0.28100
O 	O 	0.58387 0.31312 0.98027 -0.38400
O 	O 	0.69853 0.46563 0.02102 -0.38100
O 	O 	0.68345 0.27700 0.08493 -0.35100
C 	C 	0.76390 0.25022 0.99756 0.28200
O 	O 	0.71005 0.37425 0.87300 -0.37600
O 	O 	0.68795 0.27717 0.84334 -0.40800
H 	H 	0.76203 0.39519 0.03651 0.17400
H 	H 	0.61967 0.24987 0.91725 0.18100
Cu	Cu	0.70687 0.31198 0.43487 0.92900
Cu	Cu	0.72813 0.28617 0.55036 0.87400
Cu	Cu	0.61458 0.28073 0.50980 0.89900
Cu	Cu	0.57477 0.29041 0.40152 0.90100
C 	C 	0.65512 0.29019 0.32846 0.28600
O 	O 	0.73845 0.40084 0.42683 -0.35800
C 	C 	0.67412 0.32124 0.62091 0.28500
O 	O 	0.60828 0.25535 0.43827 -0.63800
O 	O 	0.70871 0.33115 0.50900 -0.64000
O 	O 	0.75862 0.27885 0.43884 -0.36200
O 	O 	0.70729 0.21932 0.49810 -0.43400
O 	O 	0.59898 0.27615 0.33550 -0.37000
O 	O 	0.52245 0.22619 0.50576 -0.37200
C 	C 	0.48105 0.22241 0.47006 0.29200
C 	C 	0.70502 0.42220 0.43513 0.29000
O 	O 	0.64804 0.38490 0.44686 -0.37800
O 	O 	0.50050 0.26146 0.43695 -0.38000
O 	O 	0.68952 0.28272 0.36234 -0.35000
C 	C 	0.74227 0.23137 0.46250 0.29400
O 	O 	0.62163 0.29343 0.58529 -0.37500
O 	O 	0.72736 0.33224 0.60952 -0.40800
H 	H 	0.58442 0.20883 0.42716 0.17100
H 	H 	0.73256 0.37695 0.52359 0.17900
C 	C 	0.67641 0.33227 0.78176 -0.06300
C 	C 	0.72462 0.38561 0.76369 -0.01100
C 	C 	0.72148 0.38521 0.71078 0.00500
C 	C 	0.66992 0.33066 0.67554 -0.06300
C 	C 	0.61809 0.28072 0.69391 -0.01200
C 	C 	0.62104 0.28133 0.74681 0.00500
H 	H 	0.76604 0.42611 0.79064 0.05000
H 	H 	0.57697 0.23986 0.66700 0.05000
C 	C 	0.56734 0.22930 0.76491 0.08300
C 	C 	0.77104 0.44098 0.69299 0.08500
N 	N 	0.52434 0.18763 0.77944 -0.11100
N 	N 	0.81074 0.48567 0.67874 -0.10900
C 	C 	0.66828 0.29353 0.27589 -0.05400
C 	C 	0.62953 0.23853 0.23759 -0.00500
C 	C 	0.63297 0.24250 0.18578 0.00900
C 	C 	0.67638 0.30209 0.17205 -0.05900
C 	C 	0.71781 0.35641 0.21060 -0.00900
C 	C 	0.71404 0.35247 0.26240 0.00300
H 	H 	0.59489 0.19300 0.24800 0.05300
H 	H 	0.75166 0.40213 0.20013 0.03900
C 	C 	0.75622 0.40946 0.30123 0.08200
C 	C 	0.58953 0.18581 0.14683 0.09300
N 	N 	0.79023 0.45533 0.33212 -0.10500
N 	N 	0.55471 0.14043 0.11562 -0.10400
C 	C 	0.79433 0.71628 0.45962 -0.02200
C 	C 	0.80828 0.68263 0.42649 0.01100
C 	C 	0.84874 0.71311 0.39160 -0.04200
C 	C 	0.87785 0.77758 0.39120 -0.00200
C 	C 	0.86703 0.81234 0.42650 -0.01500
C 	C 	0.82378 0.78092 0.45949 -0.01800
C 	C 	0.78209 0.61584 0.42897 0.02900
C 	C 	0.72727 0.56612 0.39354 -0.06000
C 	C 	0.70231 0.50269 0.39470 0.03100
C 	C 	0.73197 0.48864 0.43215 -0.08000
C 	C 	0.78738 0.53838 0.46709 0.01800
C 	C 	0.81263 0.60186 0.46567 -0.04000
C 	C 	0.64768 0.45240 0.35621 0.06400
C 	C 	0.86990 0.65241 0.50190 0.09800
C 	C 	0.75066 0.68507 0.49438 0.09300
C 	C 	0.91810 0.80753 0.35402 0.08900
N 	N 	0.60397 0.41209 0.32537 -0.11700
N 	N 	0.91576 0.69296 0.53090 -0.10700
N 	N 	0.95036 0.83154 0.32426 -0.10500
N 	N 	0.71568 0.66002 0.52223 -0.10600
H 	H 	0.81476 0.80731 0.48625 0.05800
H 	H 	0.85822 0.68678 0.36525 0.05400
H 	H 	0.70434 0.57690 0.36484 0.05800
H 	H 	0.81054 0.52763 0.49561 0.03800
C 	C 	0.83706 0.16731 0.48608 -0.04400
C 	C 	0.81199 0.12042 0.44145 0.02800
C 	C 	0.76677 0.11284 0.40230 -0.06000
C 	C 	0.74549 0.15072 0.40781 0.03200
C 	C 	0.76891 0.19598 0.45328 -0.08800
C 	C 	0.81505 0.20441 0.49190 0.01400
C 	C 	0.83230 0.07847 0.43586 0.01200
C 	C 	0.80791 0.02848 0.46328 -0.04400
C 	C 	0.83260 0.99354 0.46408 0.00100
C 	C 	0.88125 0.00760 0.43598 -0.02000
C 	C 	0.90339 0.05566 0.40660 -0.01700
C 	C 	0.87949 0.09130 0.40663 -0.02500
C 	C 	0.80988 0.94549 0.49569 0.08800
C 	C 	0.90471 0.14197 0.37753 0.09100
C 	C 	0.88550 0.17771 0.52601 0.09100
C 	C 	0.69903 0.14226 0.36700 0.07700
N 	N 	0.79166 0.90701 0.52103 -0.10800
N 	N 	0.92489 0.18258 0.35424 -0.10600
N 	N 	0.66183 0.13553 0.33433 -0.10400
N 	N 	0.92430 0.18598 0.55796 -0.11300
H 	H 	0.83345 0.23958 0.52671 0.01900
H 	H 	0.74797 0.07726 0.36771 0.05900
H 	H 	0.77131 0.01836 0.48553 0.05200
H 	H 	0.94018 0.06609 0.38447 0.05100
C 	C 	0.17845 0.10191 0.43792 -0.02300
C 	C 	0.21125 0.08697 0.47114 0.01200
C 	C 	0.17765 0.04136 0.50160 -0.04200
C 	C 	0.11128 0.00885 0.49783 -0.00200
C 	C 	0.07775 0.02116 0.46238 -0.01700
C 	C 	0.11195 0.06872 0.43347 -0.01700
C 	C 	0.28058 0.11779 0.47329 0.02700
C 	C 	0.32574 0.16843 0.51364 -0.06000
C 	C 	0.39167 0.20133 0.51427 0.03100
C 	C 	0.41272 0.18361 0.47394 -0.07900
C 	C 	0.36755 0.13152 0.43461 0.01200
C 	C 	0.30168 0.09816 0.43433 -0.04000
C 	C 	0.43735 0.25405 0.55578 0.08100
C 	C 	0.25599 0.04419 0.39372 0.09500
C 	C 	0.21270 0.15094 0.40802 0.09200
C 	C 	0.07834 0.96431 0.53144 0.09200
N 	N 	0.47397 0.29625 0.58905 -0.10200
N 	N 	0.21933 0.00097 0.36120 -0.10900
N 	N 	0.05194 0.92862 0.55835 -0.10300
N 	N 	0.24019 0.19021 0.38407 -0.10700
H 	H 	0.08653 0.07894 0.40670 0.05200
H 	H 	0.20317 0.03093 0.52801 0.05400
H 	H 	0.30950 0.18293 0.54401 0.05800
H 	H 	0.38372 0.11751 0.40385 0.03300
C 	C 	0.90230 0.78349 0.94651 -0.02400
C 	C 	0.88018 0.76148 0.99161 0.00900
C 	C 	0.89172 0.80455 0.03443 -0.03800
C 	C 	0.92546 0.86939 0.03275 0.00300
C 	C 	0.94820 0.89152 0.98779 -0.02100
C 	C 	0.93639 0.84833 0.94492 -0.01700
C 	C 	0.84507 0.69330 0.99438 0.02400
C 	C 	0.87971 0.66918 0.00506 -0.05400
C 	C 	0.84739 0.60424 0.00556 0.03100
C 	C 	0.77958 0.56288 0.99545 -0.08300
C 	C 	0.74499 0.58731 0.98587 0.01500
C 	C 	0.77734 0.65218 0.98509 -0.04100
C 	C 	0.88409 0.58063 0.01741 0.07200
C 	C 	0.74074 0.67605 0.97398 0.09500
C 	C 	0.88990 0.73973 0.90165 0.09100
C 	C 	0.93779 0.91308 0.07766 0.09000
N 	N 	0.91347 0.56170 0.02690 -0.10900
N 	N 	0.71147 0.69524 0.96508 -0.11000
N 	N 	0.94767 0.94810 0.11361 -0.10500
N 	N 	0.87993 0.70462 0.86574 -0.10700
H 	H 	0.95372 0.86530 0.91029 0.05100
H 	H 	0.87458 0.78754 0.06909 0.05400
H 	H 	0.93185 0.70097 0.01258 0.05900
H 	H 	0.69285 0.55558 0.97816 0.04300
C 	C 	0.79980 0.13113 0.99644 -0.04400
C 	C 	0.86745 0.17153 0.00973 0.02900
C 	C 	0.90042 0.23742 0.02412 -0.06000
C 	C 	0.86672 0.26356 0.02314 0.02600
C 	C 	0.79928 0.22342 0.00708 -0.07700
C 	C 	0.76609 0.15721 0.99544 0.00400
C 	C 	0.90430 0.14553 0.00576 0.01800
C 	C 	0.92653 0.14383 0.96022 -0.05000
C 	C 	0.95696 0.11482 0.95391 0.00100
C 	C 	0.96562 0.08742 0.99375 -0.02200
C 	C 	0.94479 0.09054 0.03981 -0.01000
C 	C 	0.91447 0.11967 0.04609 -0.02600
C 	C 	0.97721 0.11152 0.90585 0.08600
C 	C 	0.89338 0.12235 0.09382 0.09600
C 	C 	0.76476 0.06296 0.98275 0.09300
C 	C 	0.90153 0.33139 0.03951 0.07800
N 	N 	0.99345 0.10888 0.86737 -0.10700
N 	N 	0.87645 0.12451 0.13204 -0.10500
N 	N 	0.92941 0.38573 0.05263 -0.10700
N 	N 	0.73675 0.00836 0.97180 -0.11100
H 	H 	0.71418 0.12615 0.98371 0.03900
H 	H 	0.95238 0.26836 0.03540 0.05900
H 	H 	0.91888 0.16395 0.92927 0.05100
H 	H 	0.95190 0.06995 0.07063 0.05600
C 	C 	0.22706 0.08575 0.92521 -0.02900
C 	C 	0.27758 0.14098 0.96026 0.01800
C 	C 	0.26361 0.17153 0.99628 -0.05700
C 	C 	0.19983 0.14485 0.00029 0.01200
C 	C 	0.14913 0.08781 0.96672 -0.02400
C 	C 	0.16321 0.05979 0.92834 -0.01300
C 	C 	0.34487 0.16366 0.96293 0.01900
C 	C 	0.38034 0.19981 0.92749 -0.05700
C 	C 	0.44547 0.22565 0.93188 0.02500
C 	C 	0.47614 0.21725 0.97340 -0.08400
C 	C 	0.43963 0.17818 0.00714 0.01400
C 	C 	0.37423 0.15106 0.00190 -0.03500
C 	C 	0.47978 0.25869 0.89275 0.07600
C 	C 	0.33756 0.11065 0.03687 0.09600
C 	C 	0.24035 0.05439 0.88693 0.09100
C 	C 	0.18710 0.17449 0.04062 0.08800
N 	N 	0.50727 0.28515 0.86141 -0.10800
N 	N 	0.30813 0.07828 0.06485 -0.10800
N 	N 	0.17691 0.19824 0.07293 -0.10400
N 	N 	0.25105 0.02930 0.85628 -0.10900
H 	H 	0.12437 0.01665 0.90188 0.05000
H 	H 	0.30258 0.21456 0.02278 0.05900
H 	H 	0.35723 0.20791 0.89658 0.05800
H 	H 	0.46260 0.17046 0.03847 0.05100
