data_crystal

_cell_length_a 18.65649
_cell_length_b 18.90298
_cell_length_c 35.04970
_cell_angle_alpha 95.44063
_cell_angle_beta  95.44060
_cell_angle_gamma 126.41457

_symmetry_space_group_name_	'P 1'
_symmetry_space_group_name_H-M	'P 1'

loop_
_symmetry_equiv_pos_as_xyz
  x,y,z

loop_
_atom_site_label
_atom_site_type_symbol
_atom_site_fract_x
_atom_site_fract_y
_atom_site_fract_z
_atom_site_charge
C 	C 	0.89963 0.00153 0.96082 0.06300
C 	C 	0.85245 0.90953 0.96130 -0.07000
C 	C 	0.89931 0.87235 0.96164 0.06900
C 	C 	0.99278 0.92735 0.96220 -0.06200
C 	C 	0.03939 0.01840 0.96147 0.05900
C 	C 	0.99261 0.05505 0.96001 -0.05700
H 	H 	0.78052 0.86773 0.96188 0.07400
H 	H 	0.02929 0.89922 0.96326 0.06900
H 	H 	0.02912 0.12582 0.95966 0.07100
C 	C 	0.95219 0.03396 0.50113 0.07900
C 	C 	0.04483 0.07879 0.50055 -0.08100
C 	C 	0.08014 0.03065 0.49887 0.07700
C 	C 	0.02283 0.93815 0.49754 -0.08300
C 	C 	0.93116 0.89395 0.49910 0.08000
C 	C 	0.89585 0.94176 0.50089 -0.08300
H 	H 	0.08871 0.15019 0.50087 0.07600
H 	H 	0.04984 0.90078 0.49580 0.07700
H 	H 	0.82440 0.90707 0.50142 0.07500
Cu	Cu	0.74778 0.34518 0.95742 0.93100
Cu	Cu	0.74266 0.28285 0.04192 0.87400
Cu	Cu	0.60500 0.30052 0.00735 0.89900
Cu	Cu	0.57871 0.33819 0.92801 0.90400
C 	C 	0.68078 0.31167 0.87511 0.31000
O 	O 	0.80005 0.47531 0.95524 -0.34700
C 	C 	0.66622 0.33517 0.09332 0.31000
O 	O 	0.60672 0.27191 0.95352 -0.63500
O 	O 	0.73815 0.36234 0.01278 -0.64300
O 	O 	0.80864 0.28638 0.96235 -0.34300
O 	O 	0.71223 0.19360 0.99965 -0.42400
O 	O 	0.64313 0.35090 0.88364 -0.37500
O 	O 	0.47454 0.23249 0.99882 -0.36400
C 	C 	0.42424 0.22987 0.96867 0.31400
C 	C 	0.75950 0.50912 0.96729 0.30000
O 	O 	0.67570 0.45529 0.97253 -0.37300
O 	O 	0.46077 0.28767 0.94494 -0.36700
O 	O 	0.73339 0.30980 0.90240 -0.33400
C 	C 	0.76971 0.21181 0.97633 0.30600
O 	O 	0.60203 0.31264 0.06385 -0.36200
O 	O 	0.73952 0.34368 0.08748 -0.41100
H 	H 	0.56780 0.20703 0.94247 0.18100
H 	H 	0.77592 0.42530 0.02672 0.19100
Cu	Cu	0.62107 0.20129 0.50728 0.93100
Cu	Cu	0.69334 0.21215 0.42488 0.87800
Cu	Cu	0.66207 0.33991 0.45670 0.90300
Cu	Cu	0.61729 0.36187 0.53428 0.90000
C 	C 	0.64821 0.26678 0.58894 0.30800
O 	O 	0.48807 0.14418 0.50760 -0.35200
C 	C 	0.64617 0.28890 0.37190 0.30700
O 	O 	0.69062 0.33993 0.51075 -0.63900
O 	O 	0.60584 0.20980 0.45155 -0.63800
O 	O 	0.68213 0.14330 0.50414 -0.34800
O 	O 	0.77946 0.24177 0.46895 -0.43000
O 	O 	0.60459 0.29940 0.57900 -0.37900
O 	O 	0.72558 0.46769 0.46481 -0.36400
C 	C 	0.71876 0.51498 0.49242 0.31500
C 	C 	0.45080 0.18017 0.49401 0.30600
O 	O 	0.50280 0.26298 0.48866 -0.37700
O 	O 	0.66399 0.47754 0.51750 -0.38000
O 	O 	0.65446 0.21663 0.56263 -0.33500
C 	C 	0.75885 0.18285 0.49127 0.31300
O 	O 	0.64624 0.34076 0.40017 -0.35900
O 	O 	0.63669 0.21630 0.37795 -0.39300
H 	H 	0.75607 0.38107 0.52243 0.17400
H 	H 	0.54288 0.16975 0.43656 0.19400
C 	C 	0.76368 0.30849 0.78084 -0.10400
C 	C 	0.68395 0.26851 0.75336 0.00900
C 	C 	0.60178 0.23465 0.76613 0.12800
C 	C 	0.60044 0.24399 0.80611 -0.03200
C 	C 	0.68106 0.28883 0.83367 -0.10500
C 	C 	0.76290 0.31992 0.82088 0.20000
C 	C 	0.68817 0.27052 0.71152 0.00800
O 	O 	0.52280 0.19308 0.73954 -0.26500
H 	H 	0.53705 0.21882 0.81567 0.06500
O 	O 	0.84231 0.36287 0.84732 -0.26300
H 	H 	0.82701 0.33395 0.77117 0.08300
C 	C 	0.72325 0.35060 0.69765 0.12100
C 	C 	0.71456 0.34960 0.65745 -0.03100
C 	C 	0.67100 0.26910 0.63076 -0.10800
C 	C 	0.63981 0.18961 0.64471 0.20100
C 	C 	0.64941 0.19089 0.68499 -0.10200
O 	O 	0.76109 0.42889 0.72326 -0.26700
H 	H 	0.73918 0.41108 0.64699 0.05600
O 	O 	0.59838 0.11044 0.61911 -0.26300
H 	H 	0.62344 0.12926 0.69554 0.09100
H 	H 	0.86905 0.42727 0.85111 0.15900
H 	H 	0.82680 0.45733 0.72942 0.15400
H 	H 	0.53287 0.08313 0.61438 0.16100
H 	H 	0.51876 0.24145 0.73445 0.15900
C 	C 	0.69910 0.31103 0.27023 -0.11000
C 	C 	0.64815 0.33743 0.25475 0.00600
C 	C 	0.59874 0.35110 0.27825 0.12800
C 	C 	0.59886 0.33609 0.31671 -0.02700
C 	C 	0.64877 0.30816 0.33198 -0.11200
C 	C 	0.70064 0.29761 0.30876 0.19300
C 	C 	0.64467 0.34777 0.21349 0.01000
O 	O 	0.54841 0.37670 0.26340 -0.26200
H 	H 	0.55919 0.34495 0.33440 0.08100
O 	O 	0.75211 0.27316 0.32357 -0.29400
H 	H 	0.73754 0.30075 0.25229 0.07500
C 	C 	0.72174 0.41938 0.20166 0.11900
C 	C 	0.72558 0.41846 0.16190 -0.02900
C 	C 	0.65323 0.34592 0.13374 -0.11500
C 	C 	0.57351 0.27754 0.14548 0.19100
C 	C 	0.56934 0.27911 0.18524 -0.10500
O 	O 	0.79354 0.49003 0.22892 -0.26300
H 	H 	0.78628 0.47249 0.15306 0.06800
O 	O 	0.50063 0.20790 0.11826 -0.27200
H 	H 	0.50923 0.22446 0.19416 0.08800
H 	H 	0.81240 0.33023 0.33518 0.14600
H 	H 	0.83506 0.47431 0.23466 0.14900
H 	H 	0.51000 0.16137 0.11511 0.14500
H 	H 	0.59000 0.44308 0.26925 0.16400
C 	C 	0.81487 0.73837 0.46317 -0.07800
C 	C 	0.87184 0.79708 0.49822 -0.01100
C 	C 	0.87532 0.76281 0.53168 0.08800
C 	C 	0.82472 0.67043 0.52942 -0.01600
C 	C 	0.76975 0.61160 0.49409 -0.09700
C 	C 	0.76316 0.64583 0.46100 0.14500
Br	Br	0.68048 0.56766 0.41330 -0.21400
H 	H 	0.81107 0.76474 0.43755 0.08200
H 	H 	0.82862 0.64428 0.55511 0.05900
Br	Br	0.94793 0.84121 0.58082 -0.19900
C 	C 	0.89437 0.10905 0.53320 -0.07600
C 	C 	0.91235 0.08176 0.49912 -0.01000
C 	C 	0.88150 0.08967 0.46272 0.08600
C 	C 	0.83131 0.12252 0.46058 -0.01500
C 	C 	0.81125 0.14776 0.49451 -0.10400
C 	C 	0.84427 0.14225 0.53110 0.14500
Br	Br	0.82444 0.18235 0.57857 -0.20400
H 	H 	0.91800 0.10301 0.56128 0.08500
H 	H 	0.80683 0.12738 0.43239 0.04100
Br	Br	0.90496 0.05333 0.41543 -0.22200
C 	C 	0.20786 0.09205 0.46297 -0.07700
C 	C 	0.17715 0.07654 0.49848 -0.01100
C 	C 	0.23604 0.09271 0.53218 0.08800
C 	C 	0.32391 0.12198 0.52992 -0.01900
C 	C 	0.35458 0.13718 0.49441 -0.09700
C 	C 	0.29614 0.12220 0.46079 0.14100
Br	Br	0.33451 0.13913 0.41133 -0.23000
H 	H 	0.16232 0.07843 0.43684 0.08300
H 	H 	0.36929 0.13533 0.55606 0.06700
Br	Br	0.19796 0.07649 0.58170 -0.20200
C 	C 	0.81115 0.63293 0.93075 -0.02600
C 	C 	0.79965 0.60364 0.96654 -0.08100
C 	C 	0.81302 0.66057 0.00007 0.12000
C 	C 	0.83872 0.74616 0.99760 -0.05200
C 	C 	0.85156 0.77596 0.96190 -0.01500
C 	C 	0.83597 0.71811 0.92821 0.09300
Br	Br	0.84806 0.75438 0.87841 -0.21700
H 	H 	0.79848 0.58858 0.90462 0.06800
H 	H 	0.85194 0.79074 0.02375 0.07600
Br	Br	0.80021 0.62403 0.04984 -0.23400
C 	C 	0.82590 0.06336 0.93097 -0.07900
C 	C 	0.85412 0.04406 0.96439 0.00300
C 	C 	0.85370 0.07946 0.00150 0.07900
C 	C 	0.82791 0.13553 0.00498 -0.02300
C 	C 	0.80178 0.15673 0.97168 -0.09200
C 	C 	0.79938 0.11907 0.93440 0.14300
Br	Br	0.75758 0.14029 0.88783 -0.20300
H 	H 	0.82648 0.03668 0.90233 0.08300
H 	H 	0.82858 0.16303 0.03370 0.04300
Br	Br	0.89060 0.05391 0.04794 -0.20900
C 	C 	0.29174 0.18080 0.99992 -0.00400
C 	C 	0.32576 0.17538 0.96665 -0.09600
C 	C 	0.26527 0.11917 0.93148 0.14400
C 	C 	0.17185 0.07041 0.92979 -0.07900
C 	C 	0.13793 0.07576 0.96306 -0.00300
C 	C 	0.19828 0.13096 0.99834 0.08900
Br	Br	0.15422 0.13717 0.04494 -0.20700
H 	H 	0.33801 0.22397 0.02702 0.06900
H 	H 	0.12540 0.02678 0.90278 0.08400
Br	Br	0.30853 0.10369 0.88619 -0.24100
