data_crystal

_cell_length_a 26.40034
_cell_length_b 25.88842
_cell_length_c 39.24005
_cell_angle_alpha 95.49532
_cell_angle_beta  95.49029
_cell_angle_gamma 125.83787

_symmetry_space_group_name_	'P 1'
_symmetry_space_group_name_H-M	'P 1'

loop_
_symmetry_equiv_pos_as_xyz
  x,y,z

loop_
_atom_site_label
_atom_site_type_symbol
_atom_site_fract_x
_atom_site_fract_y
_atom_site_fract_z
_atom_site_charge
C 	C 	0.01219 0.05065 0.98436 0.20200
C 	C 	0.10170 0.05161 0.98302 0.20000
N 	N 	0.07624 0.08412 0.98752 -0.08000
N 	N 	0.95865 0.02187 0.46403 -0.07200
Cu	Cu	0.67898 0.25675 0.01291 0.94000
Cu	Cu	0.69075 0.22486 0.93205 0.91400
Cu	Cu	0.70245 0.34348 0.95962 0.91000
Cu	Cu	0.69994 0.38900 0.03213 0.93900
C 	C 	0.72510 0.32484 0.08426 0.29700
O 	O 	0.59379 0.23130 0.02282 -0.30500
C 	C 	0.64612 0.27486 0.88616 0.29500
O 	O 	0.73465 0.35446 0.00763 -0.63700
O 	O 	0.65242 0.24954 0.96278 -0.62900
O 	O 	0.70852 0.20136 0.00861 -0.28300
O 	O 	0.76104 0.24641 0.96482 -0.37600
O 	O 	0.70212 0.35688 0.07631 -0.30000
O 	O 	0.75630 0.43555 0.95941 -0.32400
C 	C 	0.76486 0.48077 0.98338 0.30500
C 	C 	0.56951 0.25995 0.01135 0.29300
O 	O 	0.60604 0.31550 0.00113 -0.31700
O 	O 	0.73302 0.46607 0.00931 -0.28600
O 	O 	0.71824 0.27979 0.06088 -0.32200
C 	C 	0.75200 0.21371 0.99003 0.30100
O 	O 	0.68283 0.33085 0.90843 -0.35300
O 	O 	0.63907 0.22254 0.89347 -0.36200
H 	H 	0.78150 0.37976 0.01373 0.22200
H 	H 	0.60608 0.22547 0.95477 0.19900
Cu	Cu	0.67101 0.29946 0.46154 0.93900
Cu	Cu	0.66629 0.25783 0.53788 0.92600
Cu	Cu	0.56795 0.28319 0.49948 0.92800
Cu	Cu	0.57209 0.32213 0.42832 0.92600
C 	C 	0.65561 0.30708 0.38902 0.31400
O 	O 	0.72893 0.39686 0.46428 -0.28400
C 	C 	0.56978 0.25461 0.56659 0.29100
O 	O 	0.57499 0.26435 0.45253 -0.62900
O 	O 	0.65759 0.31163 0.50975 -0.61500
O 	O 	0.69260 0.23721 0.46424 -0.29200
O 	O 	0.73774 0.27207 0.52183 -0.34200
O 	O 	0.60517 0.30679 0.38802 -0.32300
O 	O 	0.47987 0.24918 0.48769 -0.30800
C 	C 	0.45616 0.25755 0.45947 0.30800
C 	C 	0.70818 0.43209 0.46798 0.28900
O 	O 	0.64762 0.40379 0.46812 -0.35400
O 	O 	0.49350 0.30429 0.44281 -0.32000
O 	O 	0.66919 0.28173 0.41266 -0.31300
C 	C 	0.72998 0.24160 0.49092 0.30400
O 	O 	0.56158 0.28962 0.54813 -0.33600
O 	O 	0.58510 0.21877 0.55219 -0.34900
H 	H 	0.54352 0.21809 0.44140 0.24500
H 	H 	0.68682 0.35765 0.52161 0.18200
C 	C 	0.55932 0.25320 0.60284 -0.05900
C 	C 	0.53895 0.19766 0.61706 0.03500
C 	C 	0.53811 0.19940 0.65270 -0.04100
C 	C 	0.55755 0.25653 0.67437 0.06300
C 	C 	0.57449 0.31089 0.65997 -0.04200
C 	C 	0.57522 0.30923 0.62428 0.03300
C 	C 	0.56662 0.26146 0.71162 0.02200
C 	C 	0.57393 0.26471 0.74276 0.02200
C 	C 	0.58481 0.26851 0.77986 0.06400
C 	C 	0.63188 0.32827 0.80167 -0.04200
C 	C 	0.64992 0.33085 0.83683 0.03600
C 	C 	0.62110 0.27343 0.85044 -0.05700
C 	C 	0.57135 0.21403 0.82891 0.03600
C 	C 	0.55350 0.21163 0.79374 -0.04200
H 	H 	0.52527 0.15367 0.60069 0.09000
H 	H 	0.52434 0.15697 0.66362 0.09600
H 	H 	0.58919 0.35513 0.67656 0.09600
H 	H 	0.59066 0.35229 0.61362 0.07600
H 	H 	0.65604 0.37250 0.79114 0.09500
H 	H 	0.68786 0.37715 0.85311 0.07900
H 	H 	0.54753 0.16956 0.83920 0.08000
H 	H 	0.51667 0.16529 0.77707 0.09600
C 	C 	0.68472 0.31783 0.35766 -0.03300
C 	C 	0.70357 0.27986 0.34527 0.04300
C 	C 	0.72385 0.28506 0.31324 -0.03400
C 	C 	0.72579 0.32843 0.29358 0.07000
C 	C 	0.71000 0.36849 0.30671 -0.03500
C 	C 	0.68935 0.36311 0.33852 0.05500
C 	C 	0.73765 0.32744 0.25857 0.02800
C 	C 	0.74717 0.32846 0.22912 0.02900
C 	C 	0.75554 0.32997 0.19342 0.06700
C 	C 	0.78177 0.38794 0.18089 -0.03400
C 	C 	0.77614 0.38704 0.14501 0.04000
C 	C 	0.74409 0.32805 0.12141 -0.04000
C 	C 	0.72264 0.27086 0.13413 0.04100
C 	C 	0.72820 0.27186 0.17004 -0.03400
H 	H 	0.70041 0.24479 0.35975 0.09100
H 	H 	0.73621 0.25405 0.30329 0.10200
H 	H 	0.71180 0.40243 0.29174 0.10200
H 	H 	0.67569 0.39321 0.34795 0.09300
H 	H 	0.80367 0.43321 0.19884 0.10100
H 	H 	0.79416 0.43172 0.13554 0.08800
H 	H 	0.69845 0.22509 0.11624 0.09200
H 	H 	0.70833 0.22691 0.17955 0.10200
C 	C 	0.74167 0.53503 0.50372 0.07900
C 	C 	0.75383 0.50365 0.47825 0.00300
C 	C 	0.80235 0.54116 0.45908 -0.06100
H 	H 	0.70601 0.50633 0.51904 0.08900
C 	C 	0.82176 0.51004 0.43398 0.78100
F 	F 	0.86883 0.55482 0.41750 -0.39300
F 	F 	0.76998 0.46281 0.40853 -0.44800
F 	F 	0.84513 0.48256 0.45199 -0.39700
C 	C 	0.81728 0.05851 0.44633 0.05300
C 	C 	0.81403 0.08026 0.47957 0.09100
C 	C 	0.82873 0.06032 0.50897 -0.07500
C 	C 	0.85222 0.02383 0.50468 0.06500
C 	C 	0.86020 0.00659 0.47178 0.07800
C 	C 	0.83872 0.02026 0.44198 -0.06500
C 	C 	0.79346 0.12255 0.48312 0.10100
C 	C 	0.81764 0.07619 0.54454 0.78700
H 	H 	0.86645 0.01067 0.52708 0.13300
H 	H 	0.80411 0.07249 0.42392 0.13000
C 	C 	0.83726 0.19056 0.48539 -0.09600
C 	C 	0.81508 0.22850 0.48741 0.08200
C 	C 	0.75086 0.19996 0.48787 0.00600
C 	C 	0.70735 0.13212 0.48613 -0.05900
C 	C 	0.72891 0.09388 0.48240 0.03800
C 	C 	0.90655 0.22211 0.48329 0.79000
H 	H 	0.84762 0.28033 0.48836 0.10800
C 	C 	0.63767 0.10017 0.48728 0.78100
H 	H 	0.69559 0.04157 0.47912 0.13700
F 	F 	0.75320 0.04425 0.54343 -0.39200
F 	F 	0.84876 0.14225 0.55398 -0.37400
F 	F 	0.83977 0.05715 0.57019 -0.37100
F 	F 	0.60553 0.03573 0.49033 -0.37900
F 	F 	0.60855 0.10280 0.45698 -0.40900
F 	F 	0.63227 0.13167 0.51560 -0.46200
F 	F 	0.94293 0.28914 0.49088 -0.37700
F 	F 	0.91063 0.20391 0.44997 -0.39200
F 	F 	0.93239 0.20323 0.50680 -0.36900
C 	C 	0.17379 0.11253 0.48382 0.05400
C 	C 	0.18862 0.12401 0.45071 0.08800
C 	C 	0.13916 0.09645 0.42128 -0.07400
C 	C 	0.07559 0.05552 0.42565 0.05900
C 	C 	0.06097 0.04428 0.45879 0.07800
C 	C 	0.11030 0.07468 0.48840 -0.07600
C 	C 	0.25601 0.16065 0.44694 0.10400
C 	C 	0.15377 0.10619 0.38489 0.78600
C 	C 	0.09528 0.06469 0.52468 0.78700
H 	H 	0.21203 0.13257 0.50594 0.12700
C 	C 	0.29860 0.22903 0.45766 -0.09800
C 	C 	0.36431 0.26031 0.46079 0.08500
C 	C 	0.38741 0.22513 0.45159 0.00800
C 	C 	0.34447 0.15815 0.43729 -0.05600
C 	C 	0.27919 0.12601 0.43654 0.03700
C 	C 	0.27496 0.26802 0.46894 0.79100
H 	H 	0.39774 0.31174 0.47157 0.10600
C 	C 	0.36843 0.12032 0.42445 0.77700
H 	H 	0.24636 0.07366 0.42889 0.13600
F 	F 	0.05279 0.07786 0.53071 -0.38200
F 	F 	0.14932 0.10511 0.55030 -0.37300
F 	F 	0.06884 0.00116 0.52759 -0.39700
F 	F 	0.20273 0.17032 0.38496 -0.36400
F 	F 	0.39670 0.11182 0.45267 -0.41300
F 	F 	0.41251 0.15360 0.40353 -0.42400
F 	F 	0.31938 0.05989 0.40499 -0.37400
F 	F 	0.31962 0.33318 0.46849 -0.37300
F 	F 	0.26336 0.26165 0.50247 -0.39000
F 	F 	0.21964 0.24681 0.44687 -0.36200
C 	C 	0.80058 0.54767 0.97721 0.01400
H 	H 	0.72390 0.52550 0.93855 0.10000
C 	C 	0.89716 0.57905 0.02015 0.78000
F 	F 	0.89570 0.52904 0.00266 -0.42000
C 	C 	0.80767 0.10815 0.99084 0.03000
C 	C 	0.87305 0.15496 0.00355 0.10600
C 	C 	0.89775 0.22056 0.01492 -0.10100
C 	C 	0.85662 0.23834 0.01123 0.08600
C 	C 	0.79153 0.19176 0.99771 -0.00100
C 	C 	0.76631 0.12572 0.98806 -0.05600
C 	C 	0.91579 0.13561 0.00157 0.09600
C 	C 	0.96859 0.27268 0.02805 0.79100
H 	H 	0.87549 0.28888 0.01793 0.09700
C 	C 	0.69562 0.07421 0.97421 0.77800
H 	H 	0.78949 0.05824 0.98220 0.13700
C 	C 	0.92156 0.10198 0.02627 -0.08400
C 	C 	0.95515 0.07630 0.02056 0.06700
C 	C 	0.98442 0.08524 0.99142 0.05200
C 	C 	0.98085 0.12116 0.96751 -0.07000
C 	C 	0.94640 0.14597 0.97293 0.04400
C 	C 	0.88750 0.08843 0.05707 0.78800
H 	H 	0.95715 0.04764 0.03828 0.11400
C 	C 	0.01608 0.13574 0.93722 0.79000
H 	H 	0.94213 0.17236 0.95446 0.13100
F 	F 	0.66155 0.07195 0.99944 -0.39100
F 	F 	0.68074 0.01314 0.96530 -0.37800
F 	F 	0.67680 0.08875 0.94479 -0.44000
F 	F 	0.99965 0.28799 0.00006 -0.39300
F 	F 	0.99361 0.25168 0.05056 -0.37000
F 	F 	0.98040 0.32853 0.04594 -0.38300
F 	F 	0.99999 0.16386 0.91452 -0.37400
F 	F 	0.00170 0.07930 0.91839 -0.35600
F 	F 	0.08079 0.17836 0.94999 -0.35400
F 	F 	0.91172 0.07039 0.08221 -0.37200
F 	F 	0.82351 0.03856 0.04573 -0.38700
F 	F 	0.89441 0.14295 0.07271 -0.37300
C 	C 	0.26954 0.13618 0.96595 0.05200
C 	C 	0.30148 0.14182 0.99837 0.08500
C 	C 	0.26854 0.12190 0.02654 -0.07600
C 	C 	0.20391 0.09650 0.02137 0.06400
C 	C 	0.17117 0.08734 0.98842 0.06400
C 	C 	0.20402 0.10717 0.96030 -0.06000
C 	C 	0.37010 0.17063 0.00279 0.10800
C 	C 	0.30270 0.13040 0.06246 0.78500
H 	H 	0.17844 0.08246 0.04283 0.11700
C 	C 	0.16923 0.09712 0.92432 0.78200
H 	H 	0.29581 0.15360 0.94501 0.12900
C 	C 	0.39075 0.13381 0.99039 -0.10200
C 	C 	0.45636 0.16450 0.99298 0.07800
C 	C 	0.50120 0.22937 0.00978 0.00800
C 	C 	0.48031 0.26440 0.02464 -0.05200
C 	C 	0.41500 0.23598 0.01862 0.03400
C 	C 	0.34319 0.06322 0.97240 0.79000
H 	H 	0.47274 0.13823 0.98152 0.09300
C 	C 	0.52714 0.33220 0.04641 0.77600
H 	H 	0.39880 0.26435 0.02682 0.13700
F 	F 	0.20944 0.11944 0.90041 -0.36600
F 	F 	0.14304 0.13021 0.92597 -0.34600
F 	F 	0.12125 0.03180 0.91231 -0.33700
F 	F 	0.34255 0.19543 0.07766 -0.38800
F 	F 	0.33823 0.10723 0.06007 -0.37300
F 	F 	0.26019 0.09697 0.08412 -0.37500
F 	F 	0.55573 0.37663 0.02471 -0.41200
F 	F 	0.57332 0.33582 0.06883 -0.42500
F 	F 	0.49682 0.34900 0.06656 -0.37100
F 	F 	0.37209 0.03290 0.96897 -0.38300
F 	F 	0.31627 0.05993 0.93950 -0.39500
F 	F 	0.29564 0.02925 0.99135 -0.37100
C 	C 	0.80100 0.71410 0.46099 0.05100
C 	C 	0.83798 0.70523 0.48417 0.08700
C 	C 	0.89803 0.75968 0.50302 -0.07400
C 	C 	0.81535 0.63821 0.48617 0.10400
C 	C 	0.94268 0.75112 0.52473 0.78500
H 	H 	0.75501 0.67200 0.44689 0.12400
C 	C 	0.77095 0.60187 0.50747 -0.10100
C 	C 	0.83257 0.60830 0.46337 0.03200
C 	C 	0.74894 0.63219 0.53112 0.79100
H 	H 	0.86759 0.63714 0.44779 0.13500
F 	F 	0.74056 0.72468 0.40437 -0.37900
F 	F 	0.96589 0.72784 0.50283 -0.39400
F 	F 	0.91128 0.70789 0.54662 -0.37100
F 	F 	0.71732 0.59391 0.55502 -0.39200
F 	F 	0.70794 0.63915 0.51114 -0.39800
F 	F 	0.80002 0.69237 0.54969 -0.37100
C 	C 	0.89224 0.66122 0.99284 0.03600
C 	C 	0.86057 0.67793 0.97117 0.10000
C 	C 	0.79993 0.62866 0.95050 -0.09500
C 	C 	0.77065 0.56371 0.95374 0.08400
C 	C 	0.86288 0.59624 0.99598 -0.05700
C 	C 	0.89143 0.74740 0.97049 0.09200
C 	C 	0.76749 0.64494 0.92419 0.78900
H 	H 	0.93927 0.69925 0.00781 0.13600
C 	C 	0.92613 0.77473 0.94420 0.05000
C 	C 	0.85352 0.75912 0.02635 0.78900
H 	H 	0.92926 0.74449 0.92476 0.13100
F 	F 	0.86756 0.55964 0.04848 -0.40900
F 	F 	0.96026 0.63124 0.03231 -0.38200
F 	F 	0.80156 0.66659 0.89762 -0.39600
F 	F 	0.76419 0.69271 0.94002 -0.37000
F 	F 	0.70606 0.59142 0.90959 -0.38800
F 	F 	0.88683 0.74634 0.04885 -0.39200
F 	F 	0.79328 0.70237 0.01338 -0.37000
C 	C 	0.82398 0.77628 0.45486 -0.07600
C 	C 	0.78659 0.78351 0.42629 0.78500
F 	F 	0.75664 0.80695 0.44106 -0.37100
F 	F 	0.99382 0.80922 0.54529 -0.37000
C 	C 	0.88914 0.78700 0.99691 -0.08400
F 	F 	0.84655 0.80200 0.04511 -0.37200
C 	C 	0.91853 0.82228 0.49912 0.05500
C 	C 	0.88213 0.83112 0.47536 0.06800
F 	F 	0.96378 0.81831 0.88354 -0.36400
F 	F 	0.82664 0.82562 0.40604 -0.37100
C 	C 	0.92434 0.85398 0.99718 0.05700
C 	C 	0.95652 0.84052 0.94280 -0.06700
H 	H 	0.96377 0.86443 0.51391 0.14100
C 	C 	0.98865 0.86732 0.91223 0.78100
F 	F 	0.05304 0.89697 0.92146 -0.36000
H 	H 	0.92656 0.88552 0.01852 0.11600
C 	C 	0.95874 0.88114 0.97076 0.06100
C 	C 	0.99949 0.95226 0.97385 0.18800
N 	N 	0.96849 0.93752 0.46467 -0.09600
C 	C 	0.90813 0.89770 0.47043 0.19500
N 	N 	0.87350 0.92064 0.47375 -0.07700
F 	F 	0.82017 0.93306 0.40198 -0.35700
F 	F 	0.97976 0.91182 0.90241 -0.35400
F 	F 	0.17106 0.06755 0.37306 -0.38600
C 	C 	0.84141 0.99680 0.40570 0.77800
F 	F 	0.90335 0.03527 0.40028 -0.37300
N 	N 	0.97402 0.98478 0.97766 -0.10600
N 	N 	0.06341 0.98578 0.97696 -0.08100
F 	F 	0.10131 0.08962 0.36173 -0.35900
F 	F 	0.80338 0.99962 0.38027 -0.37300
C 	C 	0.89813 0.98213 0.46944 0.19400
H 	H 	0.03725 0.03144 0.40319 0.14200
C 	C 	0.99410 0.99986 0.46210 0.18300
