data_crystal

_cell_length_a 18.62340
_cell_length_b 18.71104
_cell_length_c 34.88394
_cell_angle_alpha 95.40493
_cell_angle_beta  95.40513
_cell_angle_gamma 126.40964

_symmetry_space_group_name_	'P 1'
_symmetry_space_group_name_H-M	'P 1'

loop_
_symmetry_equiv_pos_as_xyz
  x,y,z

loop_
_atom_site_label
_atom_site_type_symbol
_atom_site_fract_x
_atom_site_fract_y
_atom_site_fract_z
_atom_site_charge
C 	C 	0.91550 0.99080 0.95894 0.32600
N 	N 	0.87168 0.90135 0.95974 -0.10800
C 	C 	0.91844 0.86652 0.95914 0.25800
N 	N 	0.00847 0.92122 0.95839 -0.07500
C 	C 	0.05225 0.01031 0.95826 0.23300
N 	N 	0.00582 0.04505 0.95843 -0.12300
C 	C 	0.95224 0.05188 0.50397 0.21600
N 	N 	0.04072 0.09542 0.50050 -0.08300
C 	C 	0.07731 0.05042 0.50095 0.22800
N 	N 	0.02539 0.96243 0.50467 -0.06900
C 	C 	0.93712 0.91882 0.50752 0.26400
N 	N 	0.90058 0.96348 0.50723 -0.08100
Cu	Cu	0.75987 0.33277 0.95835 0.93400
Cu	Cu	0.75028 0.26705 0.04273 0.90400
Cu	Cu	0.61713 0.29184 0.00832 0.91600
Cu	Cu	0.59347 0.33007 0.92822 0.92100
C 	C 	0.69277 0.29841 0.87570 0.31100
O 	O 	0.81506 0.46484 0.95650 -0.31700
C 	C 	0.67471 0.32033 0.09467 0.30900
O 	O 	0.61859 0.26138 0.95424 -0.63600
O 	O 	0.74972 0.35006 0.01392 -0.62900
O 	O 	0.81942 0.27227 0.96341 -0.32600
O 	O 	0.72041 0.17802 1.00000 -0.39700
O 	O 	0.65861 0.34158 0.88412 -0.32700
O 	O 	0.48690 0.22747 0.99966 -0.34500
C 	C 	0.43755 0.22468 0.96887 0.40500
C 	C 	0.77509 0.50021 0.96795 0.38100
O 	O 	0.69107 0.44693 0.97323 -0.35800
O 	O 	0.47499 0.28076 0.94419 -0.33800
O 	O 	0.74628 0.29738 0.90301 -0.31300
C 	C 	0.77966 0.19689 0.97742 0.38800
O 	O 	0.61381 0.30462 0.06514 -0.32500
O 	O 	0.74768 0.32820 0.08868 -0.37400
H 	H 	0.57846 0.19576 0.94328 0.19900
H 	H 	0.78910 0.41353 0.02813 0.21100
Cu	Cu	0.61265 0.20952 0.50666 0.93700
Cu	Cu	0.67515 0.22208 0.42129 0.90400
Cu	Cu	0.66090 0.35880 0.46042 0.91100
Cu	Cu	0.62661 0.37939 0.54153 0.93000
C 	C 	0.65089 0.27033 0.59006 0.30500
O 	O 	0.48204 0.16039 0.50952 -0.32600
C 	C 	0.62235 0.30435 0.37337 0.30800
O 	O 	0.69080 0.35128 0.51344 -0.63400
O 	O 	0.59610 0.22550 0.45212 -0.63500
O 	O 	0.66765 0.14559 0.49840 -0.32500
O 	O 	0.76415 0.24549 0.46260 -0.38800
O 	O 	0.61107 0.30859 0.58361 -0.32500
O 	O 	0.73142 0.48898 0.47148 -0.34000
C 	C 	0.73304 0.53798 0.50194 0.40500
C 	C 	0.45081 0.20485 0.49960 0.39300
O 	O 	0.50770 0.28961 0.49626 -0.35800
O 	O 	0.68235 0.50122 0.52865 -0.32800
O 	O 	0.64787 0.21668 0.56134 -0.31300
C 	C 	0.74327 0.18458 0.48435 0.38600
O 	O 	0.64984 0.36770 0.40422 -0.33500
O 	O 	0.61424 0.23052 0.37704 -0.36600
H 	H 	0.75671 0.38805 0.52401 0.20300
H 	H 	0.53227 0.18974 0.43829 0.21400
C 	C 	0.73729 0.34395 0.69940 -0.06000
C 	C 	0.69666 0.26023 0.71118 0.03500
C 	C 	0.65133 0.18076 0.68258 0.07700
C 	C 	0.64150 0.18524 0.64267 0.00900
C 	C 	0.67726 0.26845 0.63101 -0.06100
C 	C 	0.72889 0.34863 0.65952 0.13400
C 	C 	0.69374 0.25542 0.75325 0.03300
N 	N 	0.61368 0.09521 0.69398 -0.01700
H 	H 	0.60350 0.12359 0.62084 0.10000
N 	N 	0.77241 0.43494 0.64805 -0.02700
H 	H 	0.77404 0.40540 0.72129 0.10900
C 	C 	0.77430 0.29609 0.78084 0.08000
C 	C 	0.77252 0.30492 0.82109 0.01000
C 	C 	0.69090 0.27266 0.83406 -0.06000
C 	C 	0.60924 0.22544 0.80642 0.13100
C 	C 	0.61130 0.21810 0.76623 -0.05900
N 	N 	0.85831 0.33014 0.76811 -0.01800
H 	H 	0.83520 0.33949 0.84219 0.10600
N 	N 	0.52412 0.18534 0.81911 -0.02700
H 	H 	0.54892 0.18487 0.74509 0.10400
O 	O 	0.76194 0.49287 0.66436 -0.03400
O 	O 	0.82638 0.45746 0.62287 -0.05700
O 	O 	0.52937 0.02685 0.68008 -0.05000
O 	O 	0.66489 0.08440 0.71664 -0.03900
O 	O 	0.50031 0.12991 0.84357 -0.06100
O 	O 	0.46833 0.20042 0.80457 -0.04100
O 	O 	0.93002 0.41250 0.78229 -0.03800
O 	O 	0.86431 0.27740 0.74388 -0.03500
C 	C 	0.61669 0.37773 0.18864 -0.06500
C 	C 	0.62970 0.32920 0.21294 0.03500
C 	C 	0.65634 0.27718 0.19817 0.06900
C 	C 	0.66974 0.27421 0.15943 0.00300
C 	C 	0.65809 0.32361 0.13517 -0.07500
C 	C 	0.63162 0.37600 0.14993 0.14300
C 	C 	0.61619 0.33328 0.25403 0.03000
N 	N 	0.67013 0.22740 0.22256 -0.01800
H 	H 	0.68973 0.23361 0.14822 0.07500
N 	N 	0.62250 0.42954 0.12621 -0.02600
H 	H 	0.59669 0.41820 0.19999 0.10900
C 	C 	0.68472 0.40750 0.28339 0.07800
C 	C 	0.68107 0.40137 0.32302 0.00300
C 	C 	0.61047 0.32114 0.33359 -0.06700
C 	C 	0.53681 0.25108 0.30431 0.13500
C 	C 	0.54026 0.25746 0.26468 -0.06100
N 	N 	0.76018 0.48760 0.27309 -0.01900
H 	H 	0.73656 0.45660 0.34544 0.09400
N 	N 	0.45915 0.17279 0.31474 -0.02400
H 	H 	0.48559 0.20183 0.24214 0.10100
O 	O 	0.54620 0.41837 0.11984 -0.01500
O 	O 	0.69246 0.49411 0.11355 -0.02600
O 	O 	0.62241 0.14010 0.21243 -0.06000
O 	O 	0.73458 0.26990 0.25338 -0.06000
O 	O 	0.41866 0.18200 0.34101 -0.04600
O 	O 	0.42648 0.09237 0.29673 -0.05100
O 	O 	0.77385 0.56417 0.28274 -0.03200
O 	O 	0.81942 0.48551 0.25712 -0.05000
C 	C 	0.81380 0.76090 0.47432 0.26800
C 	C 	0.87965 0.82178 0.50752 -0.12400
C 	C 	0.89638 0.78917 0.53907 0.26900
C 	C 	0.84838 0.69623 0.53722 0.30100
C 	C 	0.78400 0.63538 0.50364 -0.19600
C 	C 	0.76634 0.66798 0.47231 0.30300
F 	F 	0.70263 0.60949 0.44010 -0.36200
F 	F 	0.79764 0.79202 0.44359 -0.33900
F 	F 	0.86553 0.66522 0.56774 -0.36600
F 	F 	0.95987 0.84774 0.57132 -0.33900
C 	C 	0.89883 0.12274 0.46559 0.25700
C 	C 	0.91007 0.09778 0.50105 -0.11600
C 	C 	0.86903 0.10437 0.53161 0.25600
C 	C 	0.81514 0.13331 0.52636 0.29800
C 	C 	0.80116 0.15521 0.49034 -0.20100
C 	C 	0.84416 0.15061 0.46009 0.29400
F 	F 	0.83027 0.16996 0.42486 -0.39300
F 	F 	0.93732 0.11572 0.43572 -0.35700
F 	F 	0.77716 0.14072 0.55637 -0.37100
F 	F 	0.88041 0.08147 0.56623 -0.35400
C 	C 	0.24244 0.17528 0.52398 0.25600
C 	C 	0.17289 0.09623 0.49731 -0.10200
C 	C 	0.19526 0.05375 0.47088 0.21700
C 	C 	0.28595 0.08805 0.47218 0.31200
C 	C 	0.35512 0.16578 0.49947 -0.20700
C 	C 	0.33313 0.20990 0.52506 0.30400
F 	F 	0.39965 0.28528 0.55159 -0.38200
F 	F 	0.22191 0.21643 0.54997 -0.34100
F 	F 	0.30665 0.04640 0.44659 -0.38500
F 	F 	0.12885 0.97864 0.44420 -0.30000
C 	C 	0.81061 0.64769 0.99634 0.28800
C 	C 	0.81650 0.59580 0.96673 -0.19600
C 	C 	0.84966 0.63116 0.93330 0.29400
C 	C 	0.87723 0.71758 0.92967 0.26100
C 	C 	0.87247 0.76990 0.95948 -0.12200
C 	C 	0.83830 0.73424 0.99268 0.25800
F 	F 	0.83486 0.78464 0.02202 -0.32700
F 	F 	0.77845 0.61433 0.02876 -0.35900
F 	F 	0.90958 0.75106 0.89730 -0.33900
F 	F 	0.85251 0.58068 0.90375 -0.36800
C 	C 	0.83918 0.03964 0.99601 0.21500
C 	C 	0.86701 0.03052 0.96108 -0.16200
C 	C 	0.86220 0.07275 0.93072 0.26400
C 	C 	0.83263 0.12607 0.93575 0.29800
C 	C 	0.80843 0.13843 0.97140 -0.21600
C 	C 	0.81084 0.09385 0.00136 0.32000
F 	F 	0.78918 0.10593 0.03625 -0.40200
F 	F 	0.84413 0.99973 0.02565 -0.29600
F 	F 	0.82717 0.16531 0.90594 -0.37100
F 	F 	0.88789 0.06348 0.89659 -0.36200
C 	C 	0.30277 0.18389 0.99708 0.29900
C 	C 	0.33905 0.17038 0.96617 -0.20600
C 	C 	0.28076 0.10740 0.93188 0.30900
C 	C 	0.18677 0.05684 0.92883 0.22100
C 	C 	0.15047 0.06958 0.95988 -0.11000
C 	C 	0.20874 0.13384 0.99387 0.24700
F 	F 	0.17408 0.14617 0.02414 -0.34200
F 	F 	0.35871 0.24623 0.03000 -0.35500
F 	F 	0.13079 0.99498 0.89580 -0.28700
F 	F 	0.31535 0.09440 0.90174 -0.38100
