data_crystal

_cell_length_a 43.17266
_cell_length_b 33.25345
_cell_length_c 25.92156
_cell_angle_alpha 89.99954
_cell_angle_beta  90.00005
_cell_angle_gamma 89.99984

_symmetry_space_group_name_	'P 1'
_symmetry_space_group_name_H-M	'P 1'

loop_
_symmetry_equiv_pos_as_xyz
  x,y,z

loop_
_atom_site_label
_atom_site_type_symbol
_atom_site_fract_x
_atom_site_fract_y
_atom_site_fract_z
_atom_site_charge
Cu	Cu	0.14992 0.83008 0.33262 0.93100
Cu	Cu	0.20480 0.77776 0.27915 0.86700
Cu	Cu	0.16731 0.83247 0.21932 0.89400
Cu	Cu	0.12880 0.90027 0.26002 0.89800
C 	C 	0.13055 0.90572 0.37491 0.26000
O 	O 	0.10432 0.82151 0.31952 -0.35300
C 	C 	0.18985 0.75618 0.17379 0.25500
O 	O 	0.16487 0.87062 0.27566 -0.63900
O 	O 	0.16154 0.79349 0.27656 -0.64600
O 	O 	0.17489 0.80381 0.38664 -0.35000
O 	O 	0.21906 0.80597 0.33879 -0.42300
O 	O 	0.11479 0.91194 0.33205 -0.36200
O 	O 	0.17454 0.87163 0.16469 -0.36600
C 	C 	0.15966 0.90602 0.15845 0.26200
C 	C 	0.09287 0.82202 0.27250 0.24700
O 	O 	0.10542 0.84505 0.23694 -0.37200
O 	O 	0.14714 0.92525 0.19782 -0.38000
O 	O 	0.14502 0.87142 0.38309 -0.35200
C 	C 	0.20513 0.80191 0.38355 0.26300
O 	O 	0.17497 0.79072 0.16728 -0.36900
O 	O 	0.19969 0.74418 0.21957 -0.39400
H 	H 	0.18390 0.88658 0.28162 0.16500
H 	H 	0.14685 0.77146 0.26871 0.18100
Cu	Cu	0.32964 0.63322 0.84358 0.92900
Cu	Cu	0.28182 0.69595 0.78713 0.86900
Cu	Cu	0.31863 0.63395 0.72813 0.89900
Cu	Cu	0.35360 0.56510 0.76998 0.89600
C 	C 	0.34720 0.55655 0.88463 0.26200
O 	O 	0.37609 0.64048 0.83855 -0.35400
C 	C 	0.29708 0.70794 0.68070 0.24900
O 	O 	0.31720 0.59473 0.78262 -0.64200
O 	O 	0.32289 0.67187 0.78738 -0.64200
O 	O 	0.30086 0.65760 0.89460 -0.36300
O 	O 	0.26150 0.66287 0.83663 -0.41500
O 	O 	0.36422 0.55095 0.84291 -0.36200
O 	O 	0.31151 0.59662 0.67158 -0.35900
C 	C 	0.32064 0.55873 0.66850 0.26100
C 	C 	0.39011 0.64112 0.79346 0.24800
O 	O 	0.37873 0.62054 0.75449 -0.37100
O 	O 	0.33959 0.54238 0.70274 -0.37800
O 	O 	0.33102 0.58976 0.89139 -0.35900
C 	C 	0.27118 0.66111 0.88456 0.25700
O 	O 	0.31598 0.67689 0.67719 -0.34800
O 	O 	0.29166 0.72543 0.72551 -0.40100
H 	H 	0.29777 0.57899 0.78466 0.16700
H 	H 	0.33962 0.69189 0.78261 0.17800
Cu	Cu	0.32961 0.31808 0.20857 0.92900
Cu	Cu	0.27970 0.26042 0.26856 0.87000
Cu	Cu	0.31726 0.32267 0.32424 0.89800
Cu	Cu	0.36036 0.38365 0.27857 0.89600
C 	C 	0.34967 0.39308 0.16513 0.25800
O 	O 	0.37520 0.30421 0.20910 -0.35500
C 	C 	0.29901 0.24539 0.37265 0.25800
O 	O 	0.32140 0.35970 0.26812 -0.64200
O 	O 	0.32123 0.28232 0.26741 -0.64300
O 	O 	0.29802 0.29633 0.16041 -0.35300
O 	O 	0.25950 0.29500 0.22037 -0.42400
O 	O 	0.36868 0.39748 0.20473 -0.36300
O 	O 	0.31191 0.36447 0.37582 -0.35800
C 	C 	0.32905 0.39721 0.38096 0.26000
C 	C 	0.39135 0.30426 0.25206 0.24900
O 	O 	0.38181 0.32534 0.29182 -0.36600
O 	O 	0.35190 0.40600 0.34876 -0.37700
O 	O 	0.33343 0.35983 0.15862 -0.35000
C 	C 	0.26844 0.29659 0.17196 0.25800
O 	O 	0.30409 0.28444 0.37795 -0.36000
O 	O 	0.29110 0.22953 0.32783 -0.40700
H 	H 	0.30391 0.37871 0.26417 0.16800
H 	H 	0.33742 0.26189 0.27406 0.17600
Cu	Cu	0.14444 0.14644 0.70379 0.92900
Cu	Cu	0.19320 0.20487 0.76562 0.86600
Cu	Cu	0.15766 0.14015 0.81879 0.89700
Cu	Cu	0.11963 0.07497 0.77116 0.89500
C 	C 	0.12908 0.07053 0.65707 0.25700
O 	O 	0.09817 0.15477 0.70755 -0.35500
C 	C 	0.17954 0.21174 0.87354 0.24900
O 	O 	0.15650 0.10433 0.76078 -0.64200
O 	O 	0.15175 0.18159 0.76398 -0.64100
O 	O 	0.17350 0.17310 0.65569 -0.35500
O 	O 	0.21318 0.17389 0.71340 -0.42600
O 	O 	0.11094 0.06290 0.69695 -0.36200
O 	O 	0.16647 0.09867 0.86900 -0.35700
C 	C 	0.15599 0.06137 0.86764 0.25700
C 	C 	0.08302 0.15185 0.75137 0.24900
O 	O 	0.09428 0.12990 0.78914 -0.36500
O 	O 	0.13187 0.05122 0.83894 -0.37800
O 	O 	0.14265 0.10587 0.65153 -0.34800
C 	C 	0.20325 0.17435 0.66553 0.26000
O 	O 	0.16224 0.17897 0.87505 -0.35000
O 	O 	0.18414 0.23125 0.82986 -0.40400
H 	H 	0.17544 0.08799 0.75580 0.16700
H 	H 	0.13506 0.20107 0.77185 0.17800
Cu	Cu	0.65086 0.34576 0.31188 0.92900
Cu	Cu	0.70247 0.29629 0.24458 0.86900
Cu	Cu	0.65889 0.35482 0.19589 0.89600
Cu	Cu	0.61682 0.41280 0.24834 0.89700
C 	C 	0.62894 0.41738 0.36142 0.25900
O 	O 	0.60563 0.32993 0.31108 -0.35300
C 	C 	0.68485 0.28588 0.13882 0.25100
O 	O 	0.65664 0.38995 0.25461 -0.64000
O 	O 	0.65948 0.31262 0.25064 -0.64300
O 	O 	0.68395 0.32394 0.35696 -0.35300
O 	O 	0.72123 0.32975 0.29538 -0.42500
O 	O 	0.60880 0.42139 0.32347 -0.36000
O 	O 	0.66058 0.39777 0.14534 -0.37600
C 	C 	0.64103 0.42827 0.14177 0.26100
C 	C 	0.58953 0.32984 0.26800 0.24800
O 	O 	0.59713 0.35419 0.23008 -0.37000
O 	O 	0.62494 0.44118 0.18192 -0.36600
O 	O 	0.64675 0.38526 0.36489 -0.35000
C 	C 	0.71323 0.32700 0.34410 0.25900
O 	O 	0.66629 0.31760 0.13848 -0.37000
O 	O 	0.69281 0.26803 0.18228 -0.39200
H 	H 	0.67396 0.40931 0.25772 0.17000
H 	H 	0.64467 0.29043 0.24429 0.17800
Cu	Cu	0.81532 0.15177 0.80532 0.92900
Cu	Cu	0.77630 0.21974 0.74176 0.87000
Cu	Cu	0.80951 0.15164 0.68837 0.89800
Cu	Cu	0.83665 0.07864 0.73773 0.89400
C 	C 	0.81983 0.07291 0.84902 0.25800
O 	O 	0.86211 0.15173 0.80833 -0.35200
C 	C 	0.79629 0.22874 0.63748 0.24900
O 	O 	0.80271 0.11402 0.74361 -0.64100
O 	O 	0.81493 0.18977 0.74725 -0.64100
O 	O 	0.78673 0.18185 0.85067 -0.36400
O 	O 	0.75036 0.19079 0.78838 -0.41500
O 	O 	0.83990 0.06380 0.81236 -0.37400
O 	O 	0.80145 0.11352 0.63323 -0.36100
C 	C 	0.81256 0.07661 0.62905 0.26400
C 	C 	0.87893 0.14855 0.76625 0.24800
O 	O 	0.86803 0.12919 0.72591 -0.36900
O 	O 	0.82498 0.05721 0.66859 -0.38200
O 	O 	0.80976 0.11002 0.85483 -0.34400
C 	C 	0.75776 0.18723 0.83724 0.25900
O 	O 	0.81026 0.19340 0.63475 -0.34800
O 	O 	0.79201 0.24683 0.68218 -0.40300
H 	H 	0.78200 0.10121 0.74384 0.16600
H 	H 	0.83361 0.20687 0.74412 0.17800
Cu	Cu	0.83571 0.83571 0.17255 0.92900
Cu	Cu	0.78458 0.78359 0.23700 0.86800
Cu	Cu	0.82535 0.84358 0.28832 0.89600
Cu	Cu	0.86572 0.90502 0.23773 0.89500
C 	C 	0.85451 0.90933 0.12467 0.25600
O 	O 	0.88142 0.82305 0.17560 -0.35100
C 	C 	0.80145 0.77189 0.34315 0.25200
O 	O 	0.82709 0.87922 0.22982 -0.64000
O 	O 	0.82717 0.80187 0.23310 -0.64400
O 	O 	0.80453 0.81162 0.12594 -0.35200
O 	O 	0.76563 0.81572 0.18488 -0.42600
O 	O 	0.87421 0.91463 0.16297 -0.37100
O 	O 	0.82170 0.88605 0.33947 -0.35900
C 	C 	0.83999 0.91777 0.34365 0.26200
C 	C 	0.89670 0.82402 0.21945 0.24800
O 	O 	0.88749 0.84784 0.25693 -0.37000
O 	O 	0.85514 0.93261 0.30356 -0.38300
O 	O 	0.83918 0.87531 0.11956 -0.33700
C 	C 	0.77492 0.81359 0.13673 0.26000
O 	O 	0.81795 0.80546 0.34499 -0.35200
O 	O 	0.79413 0.75474 0.29886 -0.40700
H 	H 	0.80899 0.89727 0.22597 0.16700
H 	H 	0.84254 0.78041 0.23994 0.17900
Cu	Cu	0.64702 0.66232 0.68370 0.92900
Cu	Cu	0.69070 0.72991 0.73924 0.86600
Cu	Cu	0.66225 0.66310 0.79793 0.89600
Cu	Cu	0.63359 0.58860 0.75599 0.89700
C 	C 	0.63800 0.58359 0.64139 0.26000
O 	O 	0.60060 0.66074 0.69389 -0.35400
C 	C 	0.67470 0.74132 0.84650 0.25200
O 	O 	0.66571 0.62537 0.74164 -0.63900
O 	O 	0.65185 0.70065 0.74071 -0.64500
O 	O 	0.67086 0.69303 0.63160 -0.35200
O 	O 	0.71198 0.70244 0.68521 -0.42500
O 	O 	0.62231 0.57454 0.68347 -0.36200
O 	O 	0.67448 0.62596 0.85234 -0.36800
C 	C 	0.66431 0.58876 0.85856 0.25900
C 	C 	0.58845 0.65788 0.74034 0.24700
O 	O 	0.60321 0.63825 0.77694 -0.37200
O 	O 	0.65346 0.56747 0.81953 -0.36800
O 	O 	0.64861 0.62026 0.63362 -0.35000
C 	C 	0.70037 0.70073 0.63840 0.25800
O 	O 	0.66204 0.70521 0.85057 -0.35500
O 	O 	0.67950 0.75831 0.80107 -0.40600
H 	H 	0.68658 0.61359 0.73686 0.17000
H 	H 	0.63364 0.71786 0.74792 0.17900
C 	C 	0.68506 0.77742 0.97283 0.11600
C 	C 	0.69314 0.76693 0.02356 -0.08800
C 	C 	0.72082 0.78241 0.04347 0.00800
C 	C 	0.73873 0.80903 0.01641 0.11600
C 	C 	0.73018 0.82098 0.96665 -0.08800
C 	C 	0.70261 0.80528 0.94596 0.01000
O 	O 	0.66825 0.75161 0.94131 -0.18500
C 	C 	0.67788 0.76594 0.89322 0.04400
C 	C 	0.69809 0.79803 0.89562 -0.06000
O 	O 	0.75973 0.83012 0.04653 -0.18200
C 	C 	0.75228 0.81359 0.09471 0.03600
C 	C 	0.72817 0.78623 0.09335 -0.05800
H 	H 	0.67941 0.74559 0.04530 0.06500
H 	H 	0.74448 0.84157 0.94473 0.06600
H 	H 	0.71446 0.80580 0.86550 0.04700
H 	H 	0.72280 0.76447 0.12315 0.03900
C 	C 	0.73267 0.71089 0.51456 0.11700
C 	C 	0.74129 0.69838 0.46502 -0.08900
C 	C 	0.76923 0.71303 0.44461 0.01100
C 	C 	0.78698 0.74083 0.47098 0.11400
C 	C 	0.77870 0.75244 0.52119 -0.08500
C 	C 	0.75077 0.73774 0.54133 0.00600
O 	O 	0.71234 0.68914 0.54534 -0.18400
C 	C 	0.72067 0.70497 0.59342 0.03700
C 	C 	0.74420 0.73303 0.59144 -0.05800
O 	O 	0.80486 0.76519 0.43915 -0.18200
C 	C 	0.79574 0.74976 0.39131 0.04400
C 	C 	0.77465 0.71865 0.39421 -0.06000
H 	H 	0.72701 0.67753 0.44345 0.06600
H 	H 	0.79274 0.77360 0.54270 0.06600
H 	H 	0.75088 0.75335 0.62217 0.04100
H 	H 	0.75865 0.71055 0.36370 0.04900
C 	C 	0.82985 0.95955 0.46827 0.11600
C 	C 	0.81261 0.96402 0.51373 -0.08900
C 	C 	0.80494 0.00313 0.52968 0.01200
C 	C 	0.81514 0.03660 0.50313 0.11500
C 	C 	0.83246 0.03203 0.45771 -0.08500
C 	C 	0.84064 0.99296 0.44242 0.00900
O 	O 	0.82847 0.92499 0.43813 -0.18400
C 	C 	0.83928 0.94119 0.39173 0.04400
C 	C 	0.84655 0.98157 0.39382 -0.05800
O 	O 	0.81689 0.07116 0.53318 -0.18600
C 	C 	0.80775 0.05484 0.58047 0.04400
C 	C 	0.80058 0.01441 0.57881 -0.05900
H 	H 	0.80468 0.93797 0.53505 0.06600
H 	H 	0.84047 0.05805 0.43642 0.06700
H 	H 	0.84726 0.00158 0.36084 0.05600
H 	H 	0.80119 0.99428 0.61170 0.05200
C 	C 	0.85172 0.95698 0.00347 0.11400
C 	C 	0.84074 0.95730 0.95262 -0.08200
C 	C 	0.82305 0.99036 0.93643 0.00700
C 	C 	0.81759 0.02272 0.96854 0.12000
C 	C 	0.82864 0.02232 0.01942 -0.08900
C 	C 	0.84697 0.98972 0.03512 0.01300
O 	O 	0.85790 0.92153 0.02982 -0.18100
C 	C 	0.85636 0.93629 0.08024 0.04800
C 	C 	0.84976 0.97674 0.08387 -0.06300
O 	O 	0.81173 0.05840 0.94248 -0.18600
C 	C 	0.81541 0.04468 0.89189 0.04300
C 	C 	0.82195 0.00418 0.88784 -0.05800
H 	H 	0.84504 0.93215 0.92706 0.06600
H 	H 	0.82441 0.04748 0.04501 0.06600
H 	H 	0.83917 0.99098 0.11710 0.04500
H 	H 	0.83349 0.99025 0.85528 0.05000
C 	C 	0.67525 0.51799 0.95755 0.11500
C 	C 	0.67060 0.47821 0.97377 -0.08500
C 	C 	0.65134 0.47154 0.01648 0.00800
C 	C 	0.63893 0.50293 0.04437 0.11700
C 	C 	0.64405 0.54276 0.02874 -0.09000
C 	C 	0.66330 0.54951 0.98591 0.01400
O 	O 	0.68139 0.52761 0.90643 -0.18900
C 	C 	0.67167 0.56772 0.90669 0.04700
C 	C 	0.66091 0.58105 0.95379 -0.06000
O 	O 	0.63126 0.49294 0.09484 -0.18900
C 	C 	0.64105 0.45285 0.09466 0.04400
C 	C 	0.65301 0.43977 0.04824 -0.05800
H 	H 	0.68038 0.45330 0.95234 0.06500
H 	H 	0.63414 0.56763 0.05009 0.06700
H 	H 	0.64471 0.60567 0.95874 0.05700
H 	H 	0.66853 0.41441 0.04346 0.05800
C 	C 	0.60978 0.49072 0.45451 0.11800
C 	C 	0.60982 0.52997 0.47430 -0.08600
C 	C 	0.61377 0.53481 0.52763 0.01000
C 	C 	0.62162 0.50301 0.55904 0.12000
C 	C 	0.62463 0.46430 0.53831 -0.08800
C 	C 	0.61623 0.45857 0.48653 0.01200
O 	O 	0.61465 0.48276 0.40249 -0.19400
C 	C 	0.62565 0.44339 0.40669 0.04800
C 	C 	0.62649 0.42870 0.45637 -0.05600
O 	O 	0.63579 0.51438 0.60488 -0.19400
C 	C 	0.63613 0.55606 0.59745 0.04800
C 	C 	0.62411 0.56822 0.55065 -0.05300
H 	H 	0.60880 0.55572 0.44875 0.06800
H 	H 	0.63459 0.44010 0.56085 0.06800
H 	H 	0.63969 0.40283 0.46916 0.06500
H 	H 	0.61718 0.59858 0.54081 0.06100
C 	C 	0.70529 0.22257 0.92963 0.11500
C 	C 	0.69567 0.25743 0.95569 -0.08600
C 	C 	0.70262 0.26070 0.00832 0.00700
C 	C 	0.71569 0.22950 0.03540 0.11700
C 	C 	0.72435 0.19411 0.01002 -0.09100
C 	C 	0.71841 0.19109 0.95687 0.01600
O 	O 	0.71352 0.22335 0.87781 -0.20000
C 	C 	0.73377 0.19057 0.87702 0.04200
C 	C 	0.73643 0.17089 0.92367 -0.06000
O 	O 	0.71053 0.23115 0.08825 -0.19400
C 	C 	0.69245 0.26605 0.08985 0.04300
C 	C 	0.68774 0.28396 0.04245 -0.06000
H 	H 	0.68513 0.28216 0.93492 0.06400
H 	H 	0.73521 0.16968 0.03091 0.06800
H 	H 	0.75618 0.15273 0.93490 0.06800
H 	H 	0.66977 0.30560 0.03346 0.05900
C 	C 	0.77945 0.25966 0.51083 0.11500
C 	C 	0.78400 0.26482 0.45772 -0.08700
C 	C 	0.77095 0.29896 0.43412 0.01000
C 	C 	0.75299 0.32582 0.46177 0.11700
C 	C 	0.74946 0.32117 0.51524 -0.08600
C 	C 	0.76208 0.28680 0.53822 0.00900
O 	O 	0.79825 0.23538 0.54129 -0.18200
C 	C 	0.79065 0.25136 0.58972 0.04400
C 	C 	0.76992 0.28298 0.58782 -0.06100
O 	O 	0.73104 0.34574 0.43212 -0.18500
C 	C 	0.73698 0.32774 0.38442 0.03700
C 	C 	0.76084 0.30011 0.38514 -0.05800
H 	H 	0.79724 0.24318 0.43560 0.06600
H 	H 	0.73578 0.34229 0.53744 0.06600
H 	H 	0.75712 0.29521 0.62016 0.04800
H 	H 	0.76312 0.27548 0.35799 0.03900
C 	C 	0.00973 0.18969 0.78820 0.11600
C 	C 	0.98254 0.18526 0.81724 -0.08700
C 	C 	0.95404 0.18940 0.79168 0.01000
C 	C 	0.95240 0.19083 0.73850 0.11600
C 	C 	0.97964 0.19248 0.70915 -0.08700
C 	C 	0.00800 0.19537 0.73547 0.01000
O 	O 	0.03813 0.17494 0.80506 -0.18900
C 	C 	0.05314 0.17237 0.75744 0.04200
C 	C 	0.03543 0.18425 0.71588 -0.05900
O 	O 	0.92459 0.17662 0.71836 -0.19000
C 	C 	0.90993 0.16656 0.76462 0.04200
C 	C 	0.92717 0.17396 0.80833 -0.05800
H 	H 	0.98356 0.17642 0.85743 0.06900
H 	H 	0.97889 0.18914 0.66760 0.06800
H 	H 	0.03913 0.17449 0.67646 0.06000
H 	H 	0.92369 0.15941 0.84529 0.06000
C 	C 	0.46534 0.26579 0.28183 0.11600
C 	C 	0.49237 0.26977 0.31137 -0.08800
C 	C 	0.52088 0.27161 0.28541 0.01000
C 	C 	0.52224 0.27598 0.23247 0.11600
C 	C 	0.49502 0.27426 0.20308 -0.08700
C 	C 	0.46706 0.26584 0.22860 0.01000
O 	O 	0.43638 0.27633 0.30105 -0.19000
C 	C 	0.42101 0.28277 0.25438 0.04100
C 	C 	0.43902 0.27665 0.21116 -0.05800
O 	O 	0.54863 0.29582 0.21513 -0.19100
C 	C 	0.56282 0.30286 0.26270 0.04200
C 	C 	0.54653 0.28869 0.30465 -0.05900
H 	H 	0.49103 0.27422 0.35271 0.06800
H 	H 	0.49530 0.28205 0.16249 0.06700
H 	H 	0.43478 0.29044 0.17391 0.05900
H 	H 	0.54872 0.30029 0.34357 0.06000
C 	C 	0.23862 0.17781 0.54427 0.11800
C 	C 	0.24715 0.16495 0.49488 -0.08900
C 	C 	0.27444 0.18075 0.47332 0.01100
C 	C 	0.29188 0.20931 0.49917 0.11500
C 	C 	0.28393 0.22053 0.54971 -0.08500
C 	C 	0.25638 0.20522 0.57029 0.00700
O 	O 	0.21787 0.15703 0.57525 -0.18400
C 	C 	0.22540 0.17455 0.62280 0.03600
C 	C 	0.24924 0.20222 0.62035 -0.05700
O 	O 	0.30806 0.23503 0.46669 -0.18400
C 	C 	0.29801 0.22015 0.41911 0.04200
C 	C 	0.27839 0.18748 0.42273 -0.05800
H 	H 	0.23294 0.14374 0.47377 0.06600
H 	H 	0.29758 0.24243 0.57065 0.06700
H 	H 	0.25466 0.22447 0.64952 0.04000
H 	H 	0.26177 0.17903 0.39331 0.05000
C 	C 	0.20097 0.23538 0.00151 0.11100
C 	C 	0.19631 0.24032 0.05467 -0.08600
C 	C 	0.21082 0.27301 0.07921 0.00800
C 	C 	0.23025 0.29866 0.05251 0.11600
C 	C 	0.23408 0.29426 0.99903 -0.08700
C 	C 	0.22018 0.26108 0.97507 0.01400
O 	O 	0.18058 0.21410 0.97018 -0.18100
C 	C 	0.18904 0.23049 0.92241 0.04500
C 	C 	0.21265 0.25841 0.92508 -0.06700
O 	O 	0.25270 0.31666 0.08314 -0.18500
C 	C 	0.24540 0.29880 0.13044 0.03700
C 	C 	0.22038 0.27296 0.12855 -0.05800
H 	H 	0.18167 0.21977 0.07603 0.06600
H 	H 	0.24897 0.31446 0.97760 0.06600
H 	H 	0.21875 0.27983 0.89527 0.05100
H 	H 	0.21666 0.24834 0.15526 0.03900
C 	C 	0.45727 0.69249 0.75187 0.11600
C 	C 	0.48222 0.69495 0.71744 -0.08700
C 	C 	0.51213 0.69917 0.73796 0.01000
C 	C 	0.51765 0.69457 0.79014 0.11600
C 	C 	0.49279 0.68969 0.82435 -0.08700
C 	C 	0.46259 0.69204 0.80445 0.01000
O 	O 	0.42891 0.67613 0.73752 -0.18900
C 	C 	0.41790 0.66582 0.78640 0.04100
C 	C 	0.43770 0.67503 0.82637 -0.05900
O 	O 	0.54728 0.68085 0.80169 -0.19000
C 	C 	0.55880 0.67755 0.75154 0.04100
C 	C 	0.53815 0.68829 0.71343 -0.05900
H 	H 	0.47866 0.69083 0.67640 0.06900
H 	H 	0.49685 0.68156 0.86426 0.06800
H 	H 	0.43766 0.66024 0.86364 0.05900
H 	H 	0.53919 0.67786 0.67384 0.06000
C 	C 	0.32425 0.44100 0.50502 0.11700
C 	C 	0.31345 0.44424 0.55586 -0.08700
C 	C 	0.30571 0.48266 0.57436 0.01200
C 	C 	0.30973 0.51671 0.54459 0.11500
C 	C 	0.32061 0.51332 0.49373 -0.08600
C 	C 	0.32906 0.47503 0.47583 0.01100
O 	O 	0.32151 0.40587 0.47621 -0.18400
C 	C 	0.32476 0.42245 0.42688 0.04400
C 	C 	0.32945 0.46347 0.42631 -0.05700
O 	O 	0.31320 0.55182 0.57315 -0.18400
C 	C 	0.31188 0.53531 0.62271 0.04500
C 	C 	0.30745 0.49421 0.62389 -0.06200
H 	H 	0.31042 0.41775 0.57964 0.06600
H 	H 	0.32381 0.53977 0.46995 0.06700
H 	H 	0.32598 0.48294 0.39329 0.05000
H 	H 	0.31380 0.47478 0.65576 0.05400
C 	C 	0.36852 0.47122 0.07939 0.11900
C 	C 	0.36595 0.51004 0.05881 -0.08700
C 	C 	0.36926 0.51466 0.00531 0.00700
C 	C 	0.37062 0.48186 0.97271 0.12000
C 	C 	0.37035 0.44285 0.99311 -0.08600
C 	C 	0.37130 0.43852 0.04688 0.00900
O 	O 	0.35758 0.46162 0.12832 -0.19600
C 	C 	0.35305 0.42038 0.12131 0.04900
C 	C 	0.36045 0.40671 0.07273 -0.05400
O 	O 	0.36089 0.48999 0.92267 -0.19400
C 	C 	0.35249 0.53025 0.92900 0.04400
C 	C 	0.35761 0.54521 0.97781 -0.05300
H 	H 	0.35970 0.53526 0.08315 0.06600
H 	H 	0.36725 0.41701 0.96818 0.06700
H 	H 	0.36225 0.37557 0.06081 0.06100
H 	H 	0.34751 0.57242 0.99349 0.05800
C 	C 	0.96490 0.77464 0.25956 0.11700
C 	C 	0.98994 0.77326 0.29387 -0.08800
C 	C 	0.01998 0.77172 0.27327 0.01100
C 	C 	0.02524 0.77771 0.22125 0.11600
C 	C 	0.00018 0.78103 0.18715 -0.08700
C 	C 	0.97015 0.77615 0.20699 0.01000
O 	O 	0.93603 0.78915 0.27435 -0.19100
C 	C 	0.92458 0.79942 0.22576 0.04200
C 	C 	0.94461 0.79188 0.18555 -0.05800
O 	O 	0.05403 0.79439 0.21019 -0.19000
C 	C 	0.06536 0.79791 0.26044 0.04200
C 	C 	0.04536 0.78450 0.29812 -0.05900
H 	H 	0.98624 0.77646 0.33501 0.06900
H 	H 	0.00383 0.79010 0.14747 0.06800
H 	H 	0.94404 0.80729 0.14870 0.06000
H 	H 	0.04573 0.79445 0.33795 0.06100
C 	C 	0.15371 0.94751 0.03382 0.11700
C 	C 	0.15362 0.94690 0.97978 -0.08700
C 	C 	0.16790 0.97894 0.95365 0.01000
C 	C 	0.18084 0.01096 0.97999 0.11700
C 	C 	0.18112 0.01116 0.03409 -0.08600
C 	C 	0.16589 0.97988 0.05991 0.00900
O 	O 	0.15106 0.91285 0.06352 -0.19100
C 	C 	0.16337 0.92767 0.10969 0.04300
C 	C 	0.17204 0.96752 0.10793 -0.05500
O 	O 	0.18192 0.04633 0.95158 -0.18500
C 	C 	0.16735 0.03293 0.90665 0.04500
C 	C 	0.15909 0.99282 0.90731 -0.06200
H 	H 	0.14329 0.92210 0.95886 0.06600
H 	H 	0.19122 0.03604 0.05518 0.06600
H 	H 	0.18736 0.98232 0.13506 0.05100
H 	H 	0.14104 0.97958 0.88372 0.05600
C 	C 	0.11143 0.99381 0.56876 0.11700
C 	C 	0.11196 0.95478 0.54838 -0.08800
C 	C 	0.10905 0.95043 0.49474 0.01200
C 	C 	0.11040 0.98318 0.46205 0.11700
C 	C 	0.11308 0.02211 0.48247 -0.08500
C 	C 	0.11130 0.02658 0.53622 0.01100
O 	O 	0.12128 0.00248 0.61859 -0.19400
C 	C 	0.12759 0.04347 0.61245 0.04800
C 	C 	0.12275 0.05762 0.56305 -0.05400
O 	O 	0.11988 0.97375 0.41220 -0.19500
C 	C 	0.12507 0.93258 0.41883 0.04800
C 	C 	0.11855 0.91844 0.46761 -0.05600
H 	H 	0.11603 0.92902 0.57305 0.06800
H 	H 	0.11820 0.04749 0.45770 0.06700
H 	H 	0.12137 0.08893 0.55173 0.06300
H 	H 	0.12665 0.89025 0.48365 0.06400
C 	C 	0.22541 0.77216 0.50705 0.11800
C 	C 	0.22715 0.77264 0.56101 -0.08800
C 	C 	0.24825 0.74633 0.58440 0.00800
C 	C 	0.26984 0.72541 0.55617 0.11500
C 	C 	0.27022 0.72838 0.50217 -0.08500
C 	C 	0.24593 0.74963 0.47870 0.00500
O 	O 	0.21017 0.80146 0.47880 -0.18400
C 	C 	0.22312 0.79373 0.43022 0.03500
C 	C 	0.24583 0.76435 0.43065 -0.05600
O 	O 	0.29507 0.71235 0.58481 -0.18100
C 	C 	0.28624 0.72729 0.63322 0.04300
C 	C 	0.25912 0.74940 0.63247 -0.06100
H 	H 	0.21350 0.79358 0.58355 0.06700
H 	H 	0.28907 0.71588 0.47973 0.06700
H 	H 	0.25421 0.74833 0.39703 0.03900
H 	H 	0.24527 0.75705 0.66592 0.04500
C 	C 	0.21086 0.67833 0.97441 0.11900
C 	C 	0.19077 0.70554 0.99879 -0.08900
C 	C 	0.18836 0.70394 0.05277 0.01000
C 	C 	0.20840 0.68092 0.08197 0.11500
C 	C 	0.23053 0.65657 0.05762 -0.08700
C 	C 	0.22963 0.65355 0.00363 0.00500
O 	O 	0.22141 0.68428 0.92429 -0.20000
C 	C 	0.24858 0.66154 0.92685 0.03800
C 	C 	0.25377 0.64327 0.97378 -0.05400
O 	O 	0.21219 0.69465 0.13222 -0.19300
C 	C 	0.19304 0.72847 0.12990 0.04500
C 	C 	0.17880 0.73438 0.08287 -0.05800
H 	H 	0.17889 0.72855 0.97679 0.06600
H 	H 	0.24884 0.64241 0.07969 0.06500
H 	H 	0.27617 0.63346 0.98784 0.05900
H 	H 	0.16989 0.76288 0.06903 0.06300
