data_crystal

_cell_length_a 30.46487
_cell_length_b 31.25939
_cell_length_c 43.35730
_cell_angle_alpha 95.53341
_cell_angle_beta  95.53223
_cell_angle_gamma 125.50392

_symmetry_space_group_name_	'P 1'
_symmetry_space_group_name_H-M	'P 1'

loop_
_symmetry_equiv_pos_as_xyz
  x,y,z

loop_
_atom_site_label
_atom_site_type_symbol
_atom_site_fract_x
_atom_site_fract_y
_atom_site_fract_z
_atom_site_charge
N 	N 	0.02526 0.05098 0.99392 -0.14300
C 	C 	0.04955 0.02582 0.99251 0.11700
N 	N 	0.99735 0.02560 0.46655 -0.14200
C 	C 	0.02299 0.00178 0.46579 0.11600
Cu	Cu	0.64843 0.25858 0.99854 0.92800
Cu	Cu	0.68409 0.34453 0.95813 0.89600
C 	C 	0.65510 0.29614 0.06331 0.28700
O 	O 	0.56719 0.22508 0.99379 -0.36400
C 	C 	0.67475 0.30919 0.89016 0.28800
O 	O 	0.69169 0.34179 0.00213 -0.64000
O 	O 	0.64742 0.26592 0.95372 -0.64200
O 	O 	0.68351 0.22114 0.99966 -0.37500
O 	O 	0.63036 0.31699 0.05310 -0.38700
C 	C 	0.54625 0.24716 0.98054 0.28400
O 	O 	0.57892 0.29734 0.97749 -0.39500
O 	O 	0.66078 0.26549 0.04348 -0.36200
O 	O 	0.68911 0.34850 0.91324 -0.38800
O 	O 	0.67187 0.26706 0.89597 -0.42100
H 	H 	0.61062 0.24365 0.94000 0.17200
Cu	Cu	0.73000 0.33673 0.45908 0.92700
Cu	Cu	0.64375 0.30830 0.50003 0.89600
Cu	Cu	0.62690 0.33391 0.43710 0.89300
C 	C 	0.68759 0.31748 0.39299 0.28800
C 	C 	0.68383 0.33099 0.56909 0.28700
O 	O 	0.64465 0.29311 0.45634 -0.64100
O 	O 	0.72461 0.34585 0.50399 -0.64200
O 	O 	0.66454 0.34117 0.40053 -0.38500
O 	O 	0.56464 0.26731 0.49338 -0.38400
C 	C 	0.53376 0.26945 0.47090 0.29100
O 	O 	0.55551 0.30370 0.45145 -0.39600
O 	O 	0.72103 0.31685 0.41447 -0.36300
O 	O 	0.64218 0.31202 0.54562 -0.38800
O 	O 	0.72771 0.33422 0.56434 -0.42100
H 	H 	0.62137 0.25454 0.44686 0.16300
C 	C 	0.66800 0.31542 0.85707 -0.09000
C 	C 	0.65650 0.32787 0.79414 0.02700
C 	C 	0.64453 0.35227 0.81731 -0.06700
C 	C 	0.65027 0.34610 0.84867 0.01500
C 	C 	0.65138 0.33486 0.76112 -0.00100
C 	C 	0.65535 0.34559 0.69769 -0.00000
C 	C 	0.61860 0.29519 0.70539 -0.03900
C 	C 	0.61645 0.28991 0.73695 -0.03900
C 	C 	0.66428 0.34978 0.66488 0.02500
C 	C 	0.67812 0.34224 0.60187 -0.08900
C 	C 	0.62655 0.32472 0.60876 0.01100
C 	C 	0.61975 0.32859 0.64011 -0.06600
H 	H 	0.63070 0.37588 0.81102 0.04600
H 	H 	0.64062 0.36486 0.86633 0.03300
H 	H 	0.59335 0.25984 0.68699 0.03700
H 	H 	0.58919 0.25060 0.74266 0.03700
H 	H 	0.59137 0.30659 0.58994 0.03900
H 	H 	0.57952 0.31358 0.64516 0.04500
C 	C 	0.66429 0.29632 0.09749 -0.08400
C 	C 	0.68045 0.29523 0.16226 0.02600
C 	C 	0.64629 0.30825 0.14987 -0.06600
C 	C 	0.63818 0.30878 0.11769 0.01200
C 	C 	0.68846 0.29439 0.19616 -0.00000
C 	C 	0.69292 0.29304 0.26098 -0.00000
C 	C 	0.72277 0.34190 0.25045 -0.03800
C 	C 	0.72049 0.34257 0.21817 -0.03900
C 	C 	0.68991 0.29257 0.29469 0.02700
C 	C 	0.68727 0.30430 0.35937 -0.08500
C 	C 	0.63935 0.28143 0.33692 0.01300
C 	C 	0.64065 0.27555 0.30473 -0.06600
H 	H 	0.62577 0.31768 0.16517 0.04600
H 	H 	0.61117 0.31836 0.10845 0.03400
H 	H 	0.74638 0.37934 0.26724 0.03900
H 	H 	0.74244 0.38049 0.21022 0.03800
H 	H 	0.60140 0.26939 0.34440 0.02200
H 	H 	0.60382 0.25934 0.28759 0.04500
C 	C 	0.08290 0.03418 0.46736 -0.02300
C 	C 	0.11381 0.01994 0.48317 -0.01900
C 	C 	0.17035 0.04983 0.48399 -0.05200
C 	C 	0.19644 0.09416 0.46908 0.02500
C 	C 	0.16589 0.10879 0.45355 -0.05300
C 	C 	0.10932 0.07896 0.45268 -0.01800
C 	C 	0.25446 0.12427 0.46942 -0.01600
C 	C 	0.30305 0.14952 0.46968 -0.02600
C 	C 	0.36105 0.17964 0.46992 0.04100
C 	C 	0.38865 0.22849 0.45944 -0.07200
C 	C 	0.44500 0.25782 0.45968 0.01700
C 	C 	0.47419 0.23841 0.47042 -0.09000
C 	C 	0.44628 0.18932 0.48085 0.01700
C 	C 	0.38993 0.16010 0.48059 -0.07200
H 	H 	0.19381 0.03843 0.49614 0.04300
H 	H 	0.18586 0.14305 0.44198 0.04400
H 	H 	0.08597 0.09022 0.44025 0.04000
H 	H 	0.36653 0.24384 0.45119 0.04800
H 	H 	0.46599 0.29583 0.45183 0.03200
H 	H 	0.46813 0.17364 0.48895 0.02900
H 	H 	0.36875 0.12225 0.48865 0.04700
H 	H 	0.01816 0.12562 0.02487 0.03900
H 	H 	0.69241 0.14483 0.00618 0.03300
C 	C 	0.10803 0.05583 0.99050 -0.02500
C 	C 	0.14127 0.04546 0.00775 -0.01500
C 	C 	0.19531 0.06984 0.00361 -0.05300
C 	C 	0.21662 0.10481 0.98227 0.02500
C 	C 	0.18411 0.11643 0.96562 -0.05300
C 	C 	0.12995 0.09209 0.96975 -0.01700
C 	C 	0.27166 0.12821 0.97730 -0.01700
C 	C 	0.31792 0.14703 0.97376 -0.02500
C 	C 	0.37352 0.16925 0.97054 0.04000
C 	C 	0.40785 0.22138 0.96482 -0.07100
C 	C 	0.46384 0.24587 0.96622 0.01400
C 	C 	0.48603 0.21844 0.97368 -0.09100
C 	C 	0.45072 0.16492 0.97741 0.01700
C 	C 	0.39474 0.14058 0.97597 -0.07100
H 	H 	0.12504 0.01806 0.02411 0.03800
H 	H 	0.22043 0.06110 0.01678 0.04400
H 	H 	0.20050 0.14375 0.94921 0.04400
H 	H 	0.10468 0.10033 0.95626 0.03900
H 	H 	0.39153 0.24355 0.96023 0.04700
H 	H 	0.49016 0.28673 0.96258 0.03000
H 	H 	0.46679 0.14267 0.98232 0.03500
H 	H 	0.36821 0.09996 0.98002 0.04800
C 	C 	0.97151 0.02324 0.99647 0.11800
C 	C 	0.94227 0.99589 0.46547 0.11900
Cu	Cu	0.70192 0.26406 0.93563 0.86900
O 	O 	0.74890 0.27810 0.97333 -0.44300
C 	C 	0.73170 0.24244 0.99165 0.29000
Cu	Cu	0.73003 0.29865 0.52695 0.86900
O 	O 	0.76945 0.30347 0.46203 -0.37400
O 	O 	0.71368 0.24642 0.49239 -0.44200
C 	C 	0.74814 0.25882 0.47298 0.28900
H 	H 	0.74681 0.38334 0.51547 0.17200
C 	C 	0.67990 0.29104 0.83378 0.01400
C 	C 	0.67426 0.29732 0.80254 -0.06800
C 	C 	0.68578 0.38569 0.75342 -0.03900
C 	C 	0.68760 0.39107 0.72182 -0.03900
C 	C 	0.71643 0.37022 0.65802 -0.06700
C 	C 	0.72342 0.36686 0.62672 0.01100
H 	H 	0.69423 0.26780 0.83994 0.02500
H 	H 	0.68414 0.27879 0.78487 0.04400
H 	H 	0.71262 0.42070 0.77190 0.03800
H 	H 	0.71546 0.43027 0.71612 0.03800
H 	H 	0.75118 0.38701 0.67694 0.04400
H 	H 	0.76378 0.38204 0.62186 0.03000
C 	C 	0.69891 0.28369 0.11005 0.01200
C 	C 	0.70676 0.28297 0.14228 -0.06500
C 	C 	0.66034 0.24549 0.20670 -0.03800
C 	C 	0.66249 0.24480 0.23900 -0.03800
C 	C 	0.73728 0.31323 0.31708 -0.06600
C 	C 	0.73596 0.31895 0.34931 0.01700
H 	H 	0.71986 0.27463 0.09492 0.03800
H 	H 	0.73339 0.27308 0.15173 0.04700
H 	H 	0.63560 0.20810 0.18985 0.04000
H 	H 	0.63953 0.20688 0.24692 0.03900
H 	H 	0.77542 0.32615 0.30953 0.04700
H 	H 	0.77324 0.33660 0.36638 0.03900
C 	C 	0.76592 0.22461 0.46550 -0.09800
C 	C 	0.73074 0.16964 0.46608 0.01600
C 	C 	0.74995 0.13851 0.46342 -0.07400
C 	C 	0.80436 0.16195 0.46007 0.04000
C 	C 	0.83881 0.21618 0.45796 -0.07300
C 	C 	0.81967 0.24742 0.46059 0.01600
C 	C 	0.82601 0.13145 0.46118 -0.02600
C 	C 	0.84448 0.10623 0.46209 -0.01700
C 	C 	0.86768 0.07718 0.46388 0.02600
C 	C 	0.91798 0.10035 0.48394 -0.05400
C 	C 	0.94145 0.07304 0.48519 -0.01600
C 	C 	0.91484 0.02226 0.46629 -0.02500
C 	C 	0.86377 0.99856 0.44671 -0.01500
C 	C 	0.84033 0.02602 0.44549 -0.05400
H 	H 	0.68888 0.15128 0.46927 0.02700
H 	H 	0.72292 0.09648 0.46476 0.04700
H 	H 	0.88085 0.23450 0.45516 0.04800
H 	H 	0.84722 0.28967 0.45996 0.03100
H 	H 	0.93913 0.13970 0.49841 0.04300
H 	H 	0.98054 0.09153 0.50067 0.03900
H 	H 	0.80127 0.00774 0.43003 0.04400
C 	C 	0.94520 0.05064 0.99840 -0.02500
C 	C 	0.88955 0.02318 0.98491 -0.01700
C 	C 	0.86441 0.04886 0.98711 -0.05400
C 	C 	0.89461 0.10213 0.00276 0.02700
C 	C 	0.95010 0.12970 0.01623 -0.05400
C 	C 	0.97537 0.10410 0.01408 -0.01500
C 	C 	0.86884 0.12877 0.00438 -0.01700
C 	C 	0.84661 0.15044 0.00551 -0.02600
C 	C 	0.81949 0.17580 0.00612 0.04000
C 	C 	0.84741 0.22893 0.00195 -0.07300
C 	C 	0.81935 0.25165 0.99878 0.01400
C 	C 	0.76297 0.22119 0.99956 -0.10100
C 	C 	0.73577 0.16875 0.00530 0.01700
C 	C 	0.76396 0.14615 0.00847 -0.07400
H 	H 	0.82152 0.02740 0.97653 0.04300
H 	H 	0.97369 0.17094 0.02835 0.04400
H 	H 	0.89051 0.25225 0.00041 0.04700
H 	H 	0.84117 0.29250 0.99503 0.02700
H 	H 	0.74221 0.10513 0.01191 0.04800
N 	N 	0.01998 0.97289 0.99348 -0.14200
N 	N 	0.99340 0.94804 0.46381 -0.14000
Cu	Cu	0.64390 0.35528 0.01676 0.89300
O 	O 	0.67594 0.42521 0.00289 -0.39500
O 	O 	0.68661 0.40386 0.47305 -0.39400
H 	H 	0.71642 0.49554 0.50479 0.03000
H 	H 	0.09410 0.98589 0.49491 0.04100
C 	C 	0.96633 0.94500 0.99594 0.12000
N 	N 	0.94211 0.97020 0.99744 -0.14100
C 	C 	0.93840 0.91808 0.46285 0.11800
N 	N 	0.91277 0.94203 0.46372 -0.14100
O 	O 	0.72352 0.42146 0.96560 -0.38400
C 	C 	0.71580 0.44909 0.98652 0.29000
H 	H 	0.72997 0.36526 0.01401 0.16300
O 	O 	0.76144 0.41440 0.45828 -0.36400
C 	C 	0.73754 0.43539 0.46892 0.28300
C 	C 	0.90700 0.85987 0.46106 -0.02400
C 	C 	0.91695 0.83024 0.44038 -0.01700
C 	C 	0.89402 0.77689 0.44199 -0.05300
C 	C 	0.86098 0.75269 0.46425 0.02600
C 	C 	0.84903 0.78141 0.48405 -0.05300
C 	C 	0.87186 0.83485 0.48242 -0.01700
C 	C 	0.84134 0.69918 0.46759 -0.01700
C 	C 	0.82551 0.65435 0.46984 -0.02500
C 	C 	0.80706 0.60074 0.47195 0.04000
C 	C 	0.76798 0.57138 0.49047 -0.07100
C 	C 	0.74718 0.51806 0.49071 0.01400
C 	C 	0.76511 0.49358 0.47223 -0.09100
C 	C 	0.80595 0.52388 0.45468 0.01600
C 	C 	0.82672 0.57720 0.45452 -0.07100
H 	H 	0.94352 0.84894 0.42358 0.03900
H 	H 	0.90295 0.75475 0.42638 0.04400
H 	H 	0.82312 0.76280 0.50116 0.04400
H 	H 	0.86389 0.85729 0.49851 0.03900
H 	H 	0.75303 0.58952 0.50427 0.04800
H 	H 	0.82034 0.50571 0.44036 0.03700
H 	H 	0.85728 0.59984 0.44034 0.04800
H 	H 	0.84289 0.95954 0.43191 0.03900
C 	C 	0.93472 0.88761 0.99714 -0.02600
C 	C 	0.95991 0.86819 0.01339 -0.01400
C 	C 	0.93156 0.81330 0.01246 -0.05300
C 	C 	0.87785 0.77740 0.99535 0.02600
C 	C 	0.85206 0.79665 0.97971 -0.05300
C 	C 	0.88035 0.85161 0.98063 -0.01600
C 	C 	0.84968 0.72079 0.99338 -0.01700
C 	C 	0.82672 0.67351 0.99199 -0.02500
C 	C 	0.79972 0.61719 0.99068 0.04000
C 	C 	0.79010 0.58449 0.96253 -0.07200
C 	C 	0.76365 0.52970 0.96124 0.01800
C 	C 	0.74658 0.50727 0.98816 -0.09100
C 	C 	0.75700 0.54039 0.01644 0.01700
C 	C 	0.78342 0.59511 0.01765 -0.07200
H 	H 	0.00159 0.89560 0.02655 0.03800
H 	H 	0.95156 0.79867 0.02480 0.04400
H 	H 	0.81040 0.76905 0.96654 0.04400
H 	H 	0.86050 0.86605 0.96791 0.03800
H 	H 	0.80281 0.60141 0.94161 0.04900
H 	H 	0.75558 0.50462 0.93921 0.03600
H 	H 	0.74456 0.52372 0.03745 0.02500
H 	H 	0.79110 0.62028 0.03954 0.04800
H 	H 	0.86589 0.98211 0.97251 0.03900
