data_crystal

_cell_length_a 30.80534
_cell_length_b 31.09490
_cell_length_c 34.98230
_cell_angle_alpha 95.51742
_cell_angle_beta  95.51686
_cell_angle_gamma 125.54266

_symmetry_space_group_name_	'P 1'
_symmetry_space_group_name_H-M	'P 1'

loop_
_symmetry_equiv_pos_as_xyz
  x,y,z

loop_
_atom_site_label
_atom_site_type_symbol
_atom_site_fract_x
_atom_site_fract_y
_atom_site_fract_z
_atom_site_charge
H 	H 	0.00678 0.13329 0.04932 0.03400
H 	H 	0.00692 0.90321 0.46130 0.04400
C 	C 	0.98016 0.05234 0.99184 0.03300
C 	C 	0.03442 0.08146 0.98686 -0.07900
C 	C 	0.05924 0.05554 0.98284 0.03000
C 	C 	0.02977 0.00052 0.98391 -0.07300
C 	C 	0.97567 0.97136 0.98906 0.03000
C 	C 	0.95091 0.99731 0.99303 -0.07800
H 	H 	0.05708 0.12396 0.98584 0.05000
H 	H 	0.04896 0.98048 0.98086 0.04700
H 	H 	0.90912 0.97484 0.99718 0.05000
C 	C 	0.93702 0.97381 0.44991 0.03300
C 	C 	0.90580 0.91877 0.45131 -0.07500
C 	C 	0.93104 0.89329 0.45554 0.02700
C 	C 	0.98740 0.92288 0.45808 -0.06600
C 	C 	0.01860 0.97783 0.45659 0.01600
C 	C 	0.99335 0.00326 0.45252 -0.06400
H 	H 	0.86223 0.89598 0.44946 0.04900
H 	H 	0.01750 0.04583 0.45144 0.04600
Cu	Cu	0.65418 0.28130 0.00038 0.92600
Cu	Cu	0.70092 0.28361 0.91956 0.87000
Cu	Cu	0.68850 0.36764 0.95038 0.89700
Cu	Cu	0.65365 0.38068 0.02531 0.89200
C 	C 	0.66565 0.31999 0.08155 0.29400
O 	O 	0.57455 0.24938 0.99728 -0.36300
C 	C 	0.67278 0.33043 0.86555 0.29500
O 	O 	0.69823 0.36501 0.00479 -0.64300
O 	O 	0.65029 0.28825 0.94477 -0.64100
O 	O 	0.68765 0.24242 0.99957 -0.37400
O 	O 	0.74999 0.29789 0.96467 -0.44400
O 	O 	0.64212 0.34244 0.07040 -0.38900
O 	O 	0.72939 0.44516 0.95967 -0.38400
C 	C 	0.72426 0.47393 0.98662 0.31200
C 	C 	0.55390 0.27226 0.98213 0.30100
O 	O 	0.58605 0.32266 0.97824 -0.39300
O 	O 	0.68603 0.45118 0.00798 -0.40100
O 	O 	0.66930 0.28857 0.05596 -0.36600
C 	C 	0.73427 0.26311 0.98814 0.30500
O 	O 	0.69163 0.37116 0.89453 -0.38900
O 	O 	0.66914 0.28734 0.87164 -0.42400
H 	H 	0.73656 0.38784 0.01856 0.16000
H 	H 	0.61318 0.26668 0.92889 0.17000
Cu	Cu	0.71329 0.30502 0.44316 0.92700
Cu	Cu	0.72680 0.27393 0.52834 0.87000
Cu	Cu	0.63369 0.27557 0.49936 0.89700
Cu	Cu	0.60557 0.29524 0.41997 0.89400
C 	C 	0.67404 0.29725 0.36357 0.29600
O 	O 	0.74338 0.38237 0.44117 -0.37700
C 	C 	0.68271 0.30431 0.58334 0.29500
O 	O 	0.62966 0.25946 0.44435 -0.63800
O 	O 	0.71342 0.31644 0.49978 -0.64200
O 	O 	0.75399 0.27330 0.44337 -0.37500
O 	O 	0.70754 0.21945 0.48593 -0.44200
O 	O 	0.62760 0.28817 0.36906 -0.38900
O 	O 	0.55559 0.23192 0.49495 -0.38400
C 	C 	0.52283 0.23340 0.46882 0.30600
C 	C 	0.71763 0.40232 0.45111 0.30300
O 	O 	0.66869 0.37099 0.45872 -0.39500
O 	O 	0.54197 0.26988 0.44625 -0.39700
O 	O 	0.69936 0.28491 0.38758 -0.36700
C 	C 	0.73779 0.23074 0.45912 0.28800
O 	O 	0.63797 0.27923 0.55644 -0.39200
O 	O 	0.72689 0.31092 0.57515 -0.42200
H 	H 	0.60800 0.22047 0.43358 0.16400
H 	H 	0.73442 0.35464 0.51269 0.17100
C 	C 	0.61929 0.29715 0.75726 -0.09400
C 	C 	0.66561 0.33800 0.74467 0.00300
C 	C 	0.70953 0.38247 0.77232 0.02400
C 	C 	0.70959 0.38161 0.81238 -0.01700
C 	C 	0.66582 0.33760 0.82493 -0.11000
C 	C 	0.61868 0.29709 0.79733 0.09700
C 	C 	0.67092 0.33019 0.70342 0.00400
C 	C 	0.75799 0.42890 0.75927 -0.17200
H 	H 	0.74500 0.41371 0.83368 0.03800
C 	C 	0.56877 0.25231 0.81026 -0.20100
H 	H 	0.58478 0.26402 0.73589 0.05100
C 	C 	0.69221 0.30238 0.69151 0.02100
C 	C 	0.69629 0.29485 0.65221 -0.01400
C 	C 	0.67975 0.31493 0.62469 -0.11100
C 	C 	0.65974 0.34402 0.63681 0.09900
C 	C 	0.65440 0.35038 0.67602 -0.09400
C 	C 	0.70978 0.27993 0.72049 -0.16900
H 	H 	0.71165 0.27260 0.64287 0.02700
C 	C 	0.64357 0.36785 0.60818 -0.20400
H 	H 	0.63796 0.37159 0.68531 0.05100
H 	H 	0.57367 0.22072 0.81598 0.07000
H 	H 	0.53194 0.23378 0.78742 0.06600
H 	H 	0.56194 0.26783 0.83720 0.06800
H 	H 	0.74449 0.44289 0.73609 0.06400
H 	H 	0.78189 0.41608 0.74770 0.06100
H 	H 	0.78491 0.46364 0.78380 0.06000
H 	H 	0.72686 0.26051 0.70675 0.05500
H 	H 	0.67445 0.24923 0.73257 0.06200
H 	H 	0.74163 0.31270 0.74475 0.06000
H 	H 	0.60414 0.33544 0.58897 0.08000
H 	H 	0.67501 0.38901 0.58999 0.06700
H 	H 	0.63909 0.39770 0.62347 0.06700
C 	C 	0.70680 0.35677 0.27225 -0.09200
C 	C 	0.69405 0.31265 0.24557 0.00300
C 	C 	0.68348 0.26667 0.25916 0.02500
C 	C 	0.68005 0.26328 0.29864 -0.01300
C 	C 	0.68828 0.30568 0.32466 -0.10500
C 	C 	0.70440 0.35380 0.31185 0.09500
C 	C 	0.68614 0.31269 0.20317 0.00300
C 	C 	0.67296 0.22010 0.23131 -0.17300
H 	H 	0.66886 0.22682 0.30877 0.04100
C 	C 	0.71768 0.40147 0.34008 -0.20500
H 	H 	0.71642 0.39260 0.26186 0.05000
C 	C 	0.63525 0.29528 0.18247 0.02500
C 	C 	0.62925 0.29773 0.14266 -0.01500
C 	C 	0.67325 0.31724 0.12325 -0.10500
C 	C 	0.72418 0.33455 0.14391 0.09400
C 	C 	0.73012 0.33191 0.18378 -0.09200
C 	C 	0.58755 0.27495 0.20288 -0.17200
H 	H 	0.59021 0.28433 0.12667 0.04200
C 	C 	0.77210 0.35566 0.12366 -0.20200
H 	H 	0.76905 0.34507 0.19980 0.05100
H 	H 	0.68019 0.39225 0.34955 0.06800
H 	H 	0.73567 0.43789 0.32661 0.06800
H 	H 	0.74764 0.41112 0.36607 0.07900
H 	H 	0.70589 0.23468 0.21409 0.06600
H 	H 	0.63351 0.19966 0.21107 0.06400
H 	H 	0.67153 0.19009 0.24711 0.06200
H 	H 	0.55006 0.26069 0.18225 0.06000
H 	H 	0.59651 0.30773 0.22584 0.06400
H 	H 	0.57919 0.24069 0.21656 0.06400
H 	H 	0.77808 0.38768 0.10805 0.06200
H 	H 	0.76503 0.32236 0.10237 0.08000
H 	H 	0.81026 0.37330 0.14478 0.06600
C 	C 	0.89871 0.83562 0.45743 -0.00300
C 	C 	0.90612 0.81934 0.49199 -0.03700
C 	C 	0.88146 0.76491 0.49235 -0.04200
C 	C 	0.84919 0.72630 0.45815 0.00600
C 	C 	0.84009 0.74237 0.42397 -0.04200
C 	C 	0.86474 0.79684 0.42362 -0.03700
C 	C 	0.82679 0.66945 0.45769 0.00900
C 	C 	0.77039 0.62973 0.45040 -0.04600
C 	C 	0.74924 0.57579 0.44955 -0.03200
C 	C 	0.78431 0.56122 0.45600 -0.01300
C 	C 	0.84064 0.60081 0.46337 -0.03100
C 	C 	0.86186 0.65478 0.46420 -0.04500
C 	C 	0.76235 0.50555 0.45470 0.04400
C 	C 	0.74278 0.45863 0.45331 -0.12100
H 	H 	0.93210 0.84901 0.51827 0.03700
H 	H 	0.88819 0.75281 0.51900 0.03800
H 	H 	0.81505 0.71282 0.39746 0.03800
H 	H 	0.85883 0.80906 0.39680 0.03700
H 	H 	0.74300 0.64066 0.44544 0.03900
H 	H 	0.70562 0.54535 0.44383 0.03500
H 	H 	0.86798 0.58982 0.46832 0.03600
H 	H 	0.90547 0.68514 0.46968 0.03900
C 	C 	0.75664 0.19773 0.44883 -0.09700
C 	C 	0.72642 0.14395 0.45395 0.01200
C 	C 	0.74755 0.11475 0.44937 -0.07000
C 	C 	0.79899 0.13889 0.43945 0.02700
C 	C 	0.82805 0.19170 0.43239 -0.06900
C 	C 	0.80697 0.22100 0.43702 0.01300
C 	C 	0.82411 0.11040 0.43945 -0.00400
C 	C 	0.87158 0.13109 0.46648 -0.03500
C 	C 	0.89380 0.10272 0.46803 -0.04700
C 	C 	0.86873 0.05346 0.44263 0.01900
C 	C 	0.82160 0.03291 0.41534 -0.04400
C 	C 	0.79932 0.06129 0.41373 -0.03500
C 	C 	0.89152 0.02414 0.44464 -0.01700
C 	C 	0.91161 0.00058 0.44682 -0.02300
H 	H 	0.68706 0.12513 0.46230 0.02700
H 	H 	0.72465 0.07389 0.45464 0.04400
H 	H 	0.86755 0.21048 0.42428 0.04500
H 	H 	0.83062 0.26231 0.43273 0.03200
H 	H 	0.89081 0.16876 0.48663 0.03400
H 	H 	0.93032 0.11890 0.48913 0.04000
H 	H 	0.80211 0.99493 0.39552 0.03800
H 	H 	0.76271 0.04501 0.39272 0.03700
C 	C 	0.07784 0.00875 0.45948 0.00700
C 	C 	0.11312 0.04905 0.49228 -0.04100
C 	C 	0.16927 0.07697 0.49571 -0.03900
C 	C 	0.19054 0.06485 0.46633 0.00300
C 	C 	0.15523 0.02478 0.43341 -0.03700
C 	C 	0.09911 0.99682 0.43001 -0.04600
C 	C 	0.24977 0.09460 0.46975 0.01000
C 	C 	0.27326 0.06718 0.47119 -0.04500
C 	C 	0.32914 0.09509 0.47275 -0.03100
C 	C 	0.36184 0.15052 0.47297 -0.01000
C 	C 	0.33860 0.17811 0.47219 -0.03100
C 	C 	0.28275 0.15026 0.47057 -0.04500
C 	C 	0.41876 0.17874 0.47220 0.04400
C 	C 	0.46635 0.20318 0.47099 -0.11100
H 	H 	0.09701 0.05834 0.51525 0.03800
H 	H 	0.19622 0.10780 0.52125 0.03700
H 	H 	0.17131 0.01545 0.41044 0.03700
H 	H 	0.07214 0.96583 0.40455 0.03800
H 	H 	0.24818 0.02427 0.47082 0.03900
H 	H 	0.34687 0.07353 0.47338 0.03600
H 	H 	0.36367 0.22098 0.47233 0.03700
H 	H 	0.26498 0.17175 0.46939 0.03900
C 	C 	0.94493 0.91355 0.99023 0.00000
C 	C 	0.96173 0.89632 0.02006 -0.04100
C 	C 	0.93409 0.84140 0.02020 -0.04600
C 	C 	0.88938 0.80327 0.99055 0.01000
C 	C 	0.87214 0.82052 0.96100 -0.04300
C 	C 	0.89982 0.87545 0.96084 -0.03700
C 	C 	0.86111 0.74533 0.99014 0.01200
C 	C 	0.86112 0.71301 0.95923 -0.04400
C 	C 	0.83427 0.65805 0.95884 -0.03200
C 	C 	0.80732 0.63511 0.98932 -0.00600
C 	C 	0.80743 0.66734 0.02028 -0.03600
C 	C 	0.83424 0.72230 0.02071 -0.04800
C 	C 	0.77856 0.57830 0.98842 0.04500
C 	C 	0.75406 0.53067 0.98762 -0.11000
H 	H 	0.99640 0.92547 0.04295 0.03700
H 	H 	0.94769 0.82845 0.04311 0.03800
H 	H 	0.83747 0.79136 0.93811 0.03900
H 	H 	0.88662 0.88839 0.93767 0.03600
H 	H 	0.88199 0.73049 0.93561 0.03900
H 	H 	0.83430 0.63334 0.93480 0.03800
H 	H 	0.78658 0.64982 0.04391 0.03600
H 	H 	0.83393 0.74691 0.04464 0.03900
C 	C 	0.95362 0.07923 0.99526 0.00100
C 	C 	0.97231 0.12048 0.02725 -0.04100
C 	C 	0.94613 0.14490 0.03101 -0.04000
C 	C 	0.90108 0.12822 0.00281 -0.00100
C 	C 	0.88263 0.08720 0.97071 -0.03500
C 	C 	0.90878 0.06281 0.96696 -0.03900
C 	C 	0.87359 0.15412 0.00654 0.01000
C 	C 	0.81872 0.12356 0.01009 -0.04600
C 	C 	0.79129 0.14693 0.01002 -0.03300
C 	C 	0.81854 0.20098 0.00651 -0.01100
C 	C 	0.87381 0.23205 0.00433 -0.03300
C 	C 	0.90128 0.20873 0.00436 -0.04600
C 	C 	0.78875 0.22311 0.00149 0.03600
C 	C 	0.76380 0.24145 0.99610 -0.11600
H 	H 	0.96066 0.17653 0.05588 0.03800
H 	H 	0.84817 0.07438 0.94863 0.03700
H 	H 	0.89422 0.03116 0.94209 0.03800
H 	H 	0.79711 0.08150 0.01215 0.03800
H 	H 	0.74857 0.12268 0.01177 0.03600
H 	H 	0.89515 0.27388 0.00161 0.03400
H 	H 	0.94365 0.23268 0.00167 0.03800
C 	C 	0.11646 0.08610 0.97826 0.00000
C 	C 	0.15795 0.12442 0.00966 -0.04000
C 	C 	0.21228 0.14861 0.00708 -0.04700
C 	C 	0.22552 0.13471 0.97305 0.01100
C 	C 	0.18415 0.09797 0.94108 -0.04400
C 	C 	0.12980 0.07374 0.94368 -0.03700
C 	C 	0.28228 0.15596 0.97185 0.00600
C 	C 	0.31056 0.19158 0.94675 -0.04400
C 	C 	0.36496 0.21293 0.94658 -0.03200
C 	C 	0.39124 0.19860 0.97139 -0.01100
C 	C 	0.36270 0.16223 0.99591 -0.02800
C 	C 	0.30841 0.14096 0.99615 -0.04000
C 	C 	0.44837 0.22394 0.97372 0.04500
C 	C 	0.49644 0.24564 0.97686 -0.11300
H 	H 	0.14802 0.13428 0.03644 0.03600
H 	H 	0.24403 0.17727 0.03179 0.03800
H 	H 	0.19402 0.08718 0.91464 0.03900
H 	H 	0.09801 0.04441 0.91920 0.03700
H 	H 	0.29065 0.20324 0.92780 0.03900
H 	H 	0.38682 0.24113 0.92761 0.03700
H 	H 	0.38279 0.15103 0.01519 0.03400
H 	H 	0.28674 0.11313 0.01538 0.03500
