data_crystal

_cell_length_a 23.70762
_cell_length_b 19.60864
_cell_length_c 62.02256
_cell_angle_alpha 90.50736
_cell_angle_beta  91.36508
_cell_angle_gamma 110.86178

_symmetry_space_group_name_	'P 1'
_symmetry_space_group_name_H-M	'P 1'

loop_
_symmetry_equiv_pos_as_xyz
  x,y,z

loop_
_atom_site_label
_atom_site_type_symbol
_atom_site_fract_x
_atom_site_fract_y
_atom_site_fract_z
_atom_site_charge
H 	H 	0.01123 0.02011 0.69352 0.15100
C 	C 	0.01605 0.44667 0.44672 -0.06500
C 	C 	0.04385 0.75213 0.65255 -0.09900
C 	C 	0.00815 0.23595 0.12835 0.01600
C 	C 	0.03785 0.76128 0.28960 -0.04800
O 	O 	0.03435 0.88447 0.71691 -0.71600
C 	C 	0.02468 0.11106 0.74580 0.30500
C 	C 	0.04818 0.78586 0.67344 0.31500
C 	C 	0.00479 0.32770 0.10199 -0.05700
H 	H 	0.07148 0.01633 0.10551 0.03200
Ni	Ni	0.01544 0.16539 0.20906 1.06300
H 	H 	0.06228 0.50282 0.49846 0.04400
O 	O 	0.04318 0.01190 0.70251 -0.70200
C 	C 	0.03085 0.27798 0.10938 0.01100
C 	C 	0.01278 0.57059 0.99481 -0.00800
H 	H 	0.01269 0.41628 0.08060 0.03700
C 	C 	0.06444 0.49654 0.48116 -0.05500
C 	C 	0.03925 0.06150 0.17745 0.30700
H 	H 	0.06416 0.87275 0.72615 0.15500
C 	C 	0.02903 0.14450 0.25655 0.27700
C 	C 	0.03350 0.72017 0.63538 0.04300
C 	C 	0.04955 0.61542 0.95957 -0.00900
C 	C 	0.01289 0.45407 0.46910 0.00500
H 	H 	0.11707 0.73777 0.29876 0.03500
C 	C 	0.03233 0.37682 0.08583 -0.02500
H 	H 	0.02100 0.56421 0.01180 0.04400
C 	C 	0.07851 0.74933 0.30448 -0.03400
H 	H 	0.05568 0.19747 0.33085 0.04100
Ni	Ni	0.07261 0.93299 0.69009 1.09800
H 	H 	0.10629 0.95057 0.07773 0.04500
C 	C 	0.07008 0.48253 0.43636 0.01500
O 	O 	0.05372 0.14423 0.23773 -0.41700
O 	O 	0.09288 0.84787 0.67816 -0.38400
O 	O 	0.06351 0.11660 0.19107 -0.40200
O 	O 	0.08132 0.12715 0.74019 -0.41000
O 	O 	0.08880 0.99974 0.74906 -0.37100
H 	H 	0.07191 0.47631 0.41904 0.04100
C 	C 	0.06098 0.60781 0.98157 -0.07200
C 	C 	0.10725 0.99590 0.10952 -0.01300
C 	C 	0.07615 0.04646 0.16148 -0.11200
H 	H 	0.08621 0.64469 0.94923 0.03500
C 	C 	0.08328 0.27564 0.09989 -0.04400
C 	C 	0.06623 0.18107 0.27474 -0.10700
C 	C 	0.12648 0.95798 0.09385 -0.04400
H 	H 	0.10371 0.23734 0.10548 0.04100
C 	C 	0.01987 0.76842 0.33389 -0.04500
C 	C 	0.07052 0.75497 0.32666 -0.00400
Ni	Ni	0.10728 0.10492 0.71031 1.06700
H 	H 	0.10543 0.27686 0.36205 0.04100
C 	C 	0.08609 0.37649 0.07696 -0.01100
C 	C 	0.10228 0.02705 0.14766 0.05100
C 	C 	0.10088 0.23720 0.32939 -0.03600
C 	C 	0.11870 0.53233 0.47082 0.00800
C 	C 	0.09569 0.21153 0.29042 0.03900
O 	O 	0.12532 0.99813 0.66706 -0.36600
C 	C 	0.12158 0.52618 0.44831 -0.08300
C 	C 	0.11086 0.32482 0.08372 -0.03000
C 	C 	0.13189 0.00408 0.13058 -0.02700
C 	C 	0.12917 0.28190 0.34709 -0.03300
C 	C 	0.14366 0.01607 0.74148 0.29300
H 	H 	0.01289 0.77174 0.35102 0.04300
C 	C 	0.12369 0.62991 0.98999 0.28900
C 	C 	0.11767 0.43203 0.06194 0.04600
C 	C 	0.12937 0.24690 0.30952 -0.00400
H 	H 	0.15804 0.56578 0.48025 0.03200
C 	C 	0.11521 0.74927 0.34197 0.04100
O 	O 	0.15776 0.04982 0.72306 -0.42900
O 	O 	0.14576 0.11373 0.68015 -0.40500
O 	O 	0.13806 0.66247 0.00929 -0.37200
H 	H 	0.15220 0.32389 0.07686 0.03800
C 	C 	0.16409 0.06441 0.67120 0.30200
C 	C 	0.17063 0.92833 0.09914 0.00100
C 	C 	0.14330 0.47900 0.04939 -0.10700
C 	C 	0.17821 0.56500 0.43720 0.29200
C 	C 	0.19180 0.01700 0.75606 -0.10500
O 	O 	0.17502 0.58866 0.41735 -0.37600
O 	O 	0.16434 0.61690 0.97807 -0.42100
C 	C 	0.18916 0.88738 0.08321 0.03900
C 	C 	0.15254 0.74452 0.35482 -0.10800
C 	C 	0.17813 0.97743 0.13558 -0.02000
C 	C 	0.18598 0.33655 0.34497 -0.00800
O 	O 	0.16212 0.52369 0.01395 -0.40200
C 	C 	0.18826 0.29736 0.30789 -0.03700
C 	C 	0.17305 0.53629 0.03474 0.31300
C 	C 	0.20510 0.85299 0.07002 -0.10800
O 	O 	0.19360 0.74879 0.04785 -0.36700
O 	O 	0.18647 0.67200 0.37838 -0.36700
C 	C 	0.19743 0.93958 0.11990 -0.04300
C 	C 	0.20702 0.39480 0.36078 0.04900
C 	C 	0.21629 0.09024 0.65811 -0.10300
C 	C 	0.21661 0.34202 0.32562 -0.03400
H 	H 	0.21094 0.30440 0.29266 0.03700
C 	C 	0.23290 0.02161 0.76850 0.04200
C 	C 	0.19618 0.73662 0.37007 0.29000
H 	H 	0.19740 0.98344 0.15182 0.03600
O 	O 	0.19776 0.60324 0.04252 -0.39300
O 	O 	0.23058 0.57333 0.44700 -0.41900
C 	C 	0.22462 0.44357 0.37403 -0.11000
H 	H 	0.22522 0.99950 0.81117 0.04400
C 	C 	0.22730 0.81553 0.05429 0.28900
Ni	Ni	0.22279 0.69552 0.02430 1.09900
O 	O 	0.24399 0.49388 0.40946 -0.40300
O 	O 	0.24591 0.56819 0.38123 -0.39700
C 	C 	0.24344 0.50497 0.38866 0.32100
Ni	Ni	0.22219 0.57121 0.99021 1.06900
H 	H 	0.23236 0.91788 0.12400 0.03700
Ni	Ni	0.24654 0.65469 0.39996 1.09900
C 	C 	0.25923 0.11215 0.64668 0.04400
H 	H 	0.25355 0.13379 0.60416 0.04300
H 	H 	0.26086 0.38362 0.32392 0.03800
O 	O 	0.23749 0.79557 0.37880 -0.41000
C 	C 	0.27106 0.01863 0.80553 -0.03700
C 	C 	0.28185 0.02706 0.78342 -0.00400
O 	O 	0.27545 0.85313 0.04361 -0.41300
O 	O 	0.27151 0.66627 0.00241 -0.70300
H 	H 	0.28107 0.70229 0.99072 0.15600
Ni	Ni	0.30211 0.56534 0.43129 1.06900
C 	C 	0.29912 0.14601 0.61053 -0.03400
C 	C 	0.30945 0.13819 0.63255 -0.00400
O 	O 	0.28150 0.52031 0.00010 -0.42100
C 	C 	0.31949 0.03904 0.82049 -0.03300
H 	H 	0.31073 0.03535 0.83759 0.04200
C 	C 	0.34132 0.05123 0.77628 -0.03600
O 	O 	0.30479 0.72061 0.04010 -0.70200
H 	H 	0.35006 0.05737 0.75920 0.03800
O 	O 	0.31725 0.66194 0.41935 -0.70300
H 	H 	0.30107 0.69781 0.05443 0.15500
H 	H 	0.03190 0.58436 0.62763 0.04200
H 	H 	0.31978 0.69684 0.43127 0.15600
H 	H 	0.31544 0.68880 0.36702 0.15500
O 	O 	0.31758 0.71205 0.38140 -0.70300
H 	H 	0.33912 0.17333 0.57953 0.04200
O 	O 	0.35166 0.84026 0.01040 -0.41700
C 	C 	0.34756 0.16859 0.59660 -0.03400
H 	H 	0.35037 0.91303 0.97391 0.03300
Ni	Ni	0.33000 0.81461 0.37809 1.06600
O 	O 	0.33779 0.83612 0.41057 -0.41600
Ni	Ni	0.35182 0.82442 0.04269 1.06600
Ni	Ni	0.34774 0.67600 0.02029 1.10000
C 	C 	0.36856 0.15447 0.64068 -0.03600
C 	C 	0.33794 0.54507 0.99407 0.29500
O 	O 	0.37676 0.55416 0.41703 -0.41900
C 	C 	0.37892 0.06795 0.81340 -0.00500
C 	C 	0.38979 0.07169 0.79125 -0.03500
H 	H 	0.37689 0.14885 0.65771 0.03800
C 	C 	0.02119 0.68145 0.61496 0.00600
C 	C 	0.38754 0.82120 0.99795 0.29000
C 	C 	0.35830 0.50496 0.97859 -0.11700
Ni	Ni	0.38680 0.70399 0.39867 1.10100
O 	O 	0.37486 0.60978 0.00056 -0.37600
C 	C 	0.39680 0.91864 0.97124 0.00800
C 	C 	0.38697 0.84062 0.42158 0.30700
O 	O 	0.39960 0.76191 0.00190 -0.37000
C 	C 	0.40656 0.18346 0.60463 -0.00500
H 	H 	0.43563 0.09335 0.78563 0.03600
C 	C 	0.41706 0.17707 0.62674 -0.03500
H 	H 	0.41188 0.00861 0.94982 0.04500
C 	C 	0.37940 0.47652 0.96530 0.03800
H 	H 	0.44055 0.46695 0.42182 0.03400
C 	C 	0.42777 0.10203 0.82870 0.04200
C 	C 	0.43133 0.60101 0.42168 0.27300
H 	H 	0.40520 0.03874 0.47348 0.04500
C 	C 	0.42207 0.87254 0.98165 -0.08600
H 	H 	0.38099 0.34012 0.96292 0.04400
O 	O 	0.41884 0.80068 0.41611 -0.37200
C 	C 	0.41433 0.90111 0.43618 -0.10600
C 	C 	0.43168 0.97287 0.95761 -0.05300
O 	O 	0.42215 0.69429 0.03959 -0.37900
O 	O 	0.42215 0.85132 0.37499 -0.40600
O 	O 	0.43584 0.81610 0.04287 -0.40900
O 	O 	0.44622 0.66969 0.41615 -0.37200
C 	C 	0.40856 0.44779 0.94939 0.00800
C 	C 	0.40819 0.37646 0.95101 -0.05700
C 	C 	0.47113 0.50496 0.43336 0.00500
C 	C 	0.45564 0.20030 0.58998 0.04200
H 	H 	0.46257 0.18844 0.63306 0.03500
C 	C 	0.44206 0.95163 0.44800 0.04400
O 	O 	0.45136 0.75135 0.37692 -0.37700
C 	C 	0.44776 0.75828 0.04944 0.29400
C 	C 	0.47413 0.57771 0.43455 -0.08900
C 	C 	0.46808 0.13031 0.84175 -0.10500
C 	C 	0.45287 0.81189 0.36732 0.29200
C 	C 	0.45348 0.05059 0.47443 -0.05700
C 	C 	0.44382 0.49436 0.93390 -0.05700
C 	C 	0.44500 0.35283 0.93786 0.00600
H 	H 	0.44408 0.54952 0.93249 0.04400
H 	H 	0.50297 0.42397 0.44668 0.04400
H 	H 	0.44584 0.29831 0.93972 0.03600
C 	C 	0.48222 0.88004 0.97777 0.01200
H 	H 	0.46908 0.13384 0.49900 0.04300
C 	C 	0.50663 0.48064 0.44740 -0.05700
C 	C 	0.49206 0.98152 0.95423 0.01600
C 	C 	0.47941 0.01082 0.46172 0.00900
C 	C 	0.49633 0.21435 0.57755 -0.10700
H 	H 	0.50245 0.84514 0.98578 0.04400
C 	C 	0.48976 0.10476 0.48879 0.01200
C 	C 	0.51492 0.62660 0.44934 0.00600
C 	C 	0.01070 0.15449 0.76203 -0.12600
C 	C 	0.48097 0.47107 0.92086 0.00600
C 	C 	0.48289 0.40079 0.92314 -0.09000
C 	C 	0.51480 0.16620 0.85750 0.29200
C 	C 	0.50068 0.76983 0.06274 -0.10700
H 	H 	0.51776 0.68290 0.45043 0.03800
C 	C 	0.51708 0.93448 0.96413 -0.05800
C 	C 	0.50128 0.84602 0.35305 -0.10300
O 	O 	0.51349 0.22604 0.86711 -0.37700
C 	C 	0.52791 0.03877 0.94054 0.03400
C 	C 	0.54538 0.52873 0.46273 0.00800
O 	O 	0.51501 0.31047 0.90593 -0.37200
H 	H 	0.50915 0.50814 0.90931 0.03400
C 	C 	0.55026 0.60203 0.46343 -0.05700
O 	O 	0.54652 0.12893 0.86616 -0.40600
C 	C 	0.54408 0.22835 0.56256 0.29300
C 	C 	0.52742 0.37933 0.91141 0.27300
H 	H 	0.53349 0.92829 0.30201 0.03600
C 	C 	0.54192 0.02685 0.46294 -0.06100
O 	O 	0.54687 0.18297 0.90734 -0.37200
C 	C 	0.55441 0.08753 0.92870 -0.10200
C 	C 	0.54507 0.77984 0.07402 0.04200
C 	C 	0.54214 0.87442 0.34111 0.04200
O 	O 	0.55475 0.17194 0.55414 -0.40900
H 	H 	0.56361 0.94051 0.96146 0.04800
C 	C 	0.55219 0.11905 0.49061 -0.08700
O 	O 	0.56459 0.29264 0.55331 -0.37700
C 	C 	0.57666 0.50137 0.47866 0.03800
H 	H 	0.56231 0.99667 0.45301 0.05300
H 	H 	0.58031 0.63959 0.47520 0.04600
C 	C 	0.01533 0.60772 0.61423 -0.05200
O 	O 	0.57538 0.22534 0.51376 -0.37000
C 	C 	0.58026 0.14584 0.91402 0.30400
Ni	Ni	0.57673 0.27807 0.89020 1.10100
C 	C 	0.57819 0.08067 0.47733 0.01100
O 	O 	0.59436 0.37569 0.51421 -0.37300
H 	H 	0.55739 0.69385 0.10584 0.03800
C 	C 	0.60091 0.47538 0.49184 -0.11600
C 	C 	0.57881 0.93138 0.30649 -0.03500
C 	C 	0.58909 0.16889 0.50765 0.29000
O 	O 	0.58101 0.42817 0.90773 -0.41800
C 	C 	0.59092 0.90837 0.32684 -0.00400
C 	C 	0.59796 0.79158 0.08751 -0.00500
C 	C 	0.62722 0.44010 0.50711 0.29600
C 	C 	0.59656 0.74311 0.10412 -0.03500
O 	O 	0.63002 0.15083 0.90423 -0.41500
H 	H 	0.61425 0.97001 0.27549 0.04100
Ni	Ni	0.63177 0.31336 0.53178 1.10000
Ni	Ni	0.63849 0.16962 0.87184 1.06600
H 	H 	0.62633 0.09171 0.47841 0.03100
O 	O 	0.62878 0.15022 0.51876 -0.41800
C 	C 	0.62463 0.95539 0.29152 -0.03400
Ni	Ni	0.63915 0.16693 0.55119 1.06600
O 	O 	0.64731 0.27145 0.87477 -0.70400
H 	H 	0.65082 0.89196 0.07227 0.04200
H 	H 	0.64878 0.29261 0.86026 0.15600
H 	H 	0.64405 0.29263 0.92447 0.15600
O 	O 	0.64543 0.32552 0.91233 -0.70400
C 	C 	0.64915 0.85463 0.08522 -0.03400
C 	C 	0.64987 0.91358 0.33261 -0.03300
H 	H 	0.00588 0.76851 0.59754 0.04800
Ni	Ni	0.65756 0.42329 0.92367 1.07000
C 	C 	0.64460 0.75981 0.11916 -0.03500
H 	H 	0.65974 0.89669 0.34840 0.04500
H 	H 	0.64206 0.72360 0.13250 0.03800
O 	O 	0.68507 0.46861 0.51218 -0.41500
Ni	Ni	0.00985 0.96439 0.73030 1.09300
O 	O 	0.68363 0.27140 0.54894 -0.70000
H 	H 	0.68827 0.29087 0.49914 0.15400
H 	H 	0.69308 0.29480 0.56345 0.15700
C 	C 	0.68274 0.95633 0.29681 -0.00400
O 	O 	0.70168 0.32582 0.51146 -0.70000
C 	C 	0.69721 0.87134 0.10028 -0.03400
C 	C 	0.69572 0.93761 0.31762 -0.03300
C 	C 	0.69415 0.82511 0.11767 -0.00400
H 	H 	0.04583 0.76007 0.27249 0.03700
H 	H 	0.70169 0.60272 0.81755 0.03800
O 	O 	0.71352 0.41652 0.87523 -0.39900
Ni	Ni	0.71692 0.33434 0.89459 1.09900
O 	O 	0.71652 0.14092 0.54946 -0.41500
O 	O 	0.71423 0.49465 0.90279 -0.40000
O 	O 	0.73176 0.19391 0.87486 -0.41000
C 	C 	0.71728 0.48120 0.88218 0.32400
H 	H 	0.73554 0.92174 0.09894 0.04500
C 	C 	0.72534 0.96396 0.28000 0.05000
O 	O 	0.73032 0.42237 0.94145 -0.41800
Ni	Ni	0.74476 0.42283 0.50017 1.07100
C 	C 	0.73663 0.84977 0.13553 0.04400
H 	H 	0.74057 0.93844 0.32188 0.04500
C 	C 	0.73831 0.54086 0.86764 -0.10800
H 	H 	0.74934 0.98005 0.60097 0.03900
H 	H 	0.75050 0.67912 0.78695 0.04000
C 	C 	0.74775 0.64073 0.81946 -0.03400
Ni	Ni	0.75868 0.29617 0.53044 1.09800
C 	C 	0.77161 0.25315 0.86672 0.29000
C 	C 	0.75758 0.58772 0.85447 0.05000
C 	C 	0.76056 0.97045 0.26578 -0.10200
C 	C 	0.76745 0.18111 0.55921 0.29400
O 	O 	0.77875 0.31824 0.87467 -0.36600
H 	H 	0.78230 0.90876 0.62787 0.04000
C 	C 	0.77549 0.68369 0.80209 -0.03600
C 	C 	0.77203 0.87006 0.15055 -0.10300
O 	O 	0.77777 0.92471 0.23237 -0.39800
C 	C 	0.78278 0.42905 0.93300 0.31000
O 	O 	0.79081 0.39067 0.54831 -0.40100
O 	O 	0.78670 0.40580 0.91314 -0.37600
C 	C 	0.79094 0.00592 0.61028 -0.03900
C 	C 	0.78064 0.64371 0.83876 -0.00600
O 	O 	0.00873 0.75094 0.68807 -0.41700
O 	O 	0.78719 0.89322 0.18805 -0.40900
C 	C 	0.79235 0.14939 0.57593 -0.11300
O 	O 	0.79814 0.24694 0.55227 -0.36600
O 	O 	0.80316 0.38474 0.48552 -0.42300
O 	O 	0.81011 0.47935 0.52294 -0.39700
C 	C 	0.79957 0.97144 0.24836 0.32500
C 	C 	0.80937 0.96568 0.62560 -0.03000
C 	C 	0.81602 0.24622 0.85244 -0.10700
C 	C 	0.80935 0.11878 0.59003 0.04200
C 	C 	0.00068 0.71131 0.59731 -0.05100
C 	C 	0.81152 0.89608 0.16904 0.28900
C 	C 	0.82577 0.45290 0.54060 0.32400
C 	C 	0.82687 0.07883 0.60663 -0.00500
Ni	Ni	0.82646 0.87354 0.21663 1.07000
O 	O 	0.83662 0.32797 0.51277 -0.37900
C 	C 	0.83771 0.46837 0.94492 -0.10100
C 	C 	0.83611 0.72990 0.80401 -0.00400
C 	C 	0.84734 0.37257 0.49616 0.31100
C 	C 	0.85375 0.24302 0.84019 0.04100
O 	O 	0.84824 0.02921 0.24580 -0.39000
C 	C 	0.84004 0.69340 0.84110 -0.03200
O 	O 	0.85343 0.83756 0.24470 -0.40600
C 	C 	0.86375 0.99823 0.63736 -0.00700
C 	C 	0.86717 0.76651 0.78537 0.04400
C 	C 	0.87256 0.50127 0.55446 -0.10600
O 	O 	0.86748 0.93967 0.16611 -0.37200
H 	H 	0.87305 0.30345 0.80106 0.04000
C 	C 	0.86774 0.73635 0.82375 -0.03400
H 	H 	0.86569 0.69625 0.85599 0.04400
C 	C 	0.88014 0.11211 0.61891 -0.03500
C 	C 	0.88798 0.95433 0.65043 0.04700
C 	C 	0.88530 0.50215 0.95396 0.04500
C 	C 	0.89837 0.24012 0.82523 0.00000
C 	C 	0.89419 0.79772 0.77001 -0.10700
C 	C 	0.90133 0.27210 0.80497 -0.03900
C 	C 	0.89852 0.07193 0.63426 -0.03400
C 	C 	0.90210 0.87494 0.25672 0.28900
O 	O 	0.90895 0.81255 0.73234 -0.41400
C 	C 	0.90660 0.39879 0.48733 -0.10400
O 	O 	0.90324 0.95275 0.21244 -0.69700
H 	H 	0.90616 0.11530 0.21496 0.15600
C 	C 	0.91084 0.54194 0.56646 0.05400
C 	C 	0.91168 0.92159 0.66157 -0.11400
H 	H 	0.90785 0.16861 0.61633 0.04200
Ni	Ni	0.91046 0.02322 0.18765 1.09700
O 	O 	0.91506 0.94468 0.26133 -0.37800
O 	O 	0.91985 0.83467 0.68680 -0.39800
H 	H 	0.91779 0.50714 0.99608 0.04400
H 	H 	0.91442 0.77267 0.82543 0.04400
C 	C 	0.92782 0.83571 0.75211 0.29500
H 	H 	0.93524 0.17790 0.84613 0.04600
Ni	Ni	0.92875 0.02034 0.23794 1.09800
C 	C 	0.93631 0.20145 0.83033 -0.04200
O 	O 	0.92561 0.09754 0.16308 -0.37800
C 	C 	0.92999 0.83595 0.27010 -0.10200
C 	C 	0.93844 0.26033 0.78927 -0.02700
H 	H 	0.93772 0.28153 0.77323 0.03600
H 	H 	0.93395 0.92969 0.21099 0.15000
O 	O 	0.93589 0.09086 0.21329 -0.70000
C 	C 	0.94664 0.88834 0.67381 0.30800
H 	H 	0.94068 0.09745 0.64328 0.03600
C 	C 	0.94367 0.54273 0.96372 0.00300
O 	O 	0.00211 0.90133 0.66833 -0.39300
H 	H 	0.94906 0.68860 0.56738 0.04100
C 	C 	0.95554 0.42315 0.47934 0.05200
C 	C 	0.95654 0.59073 0.58076 -0.01500
C 	C 	0.95432 0.53786 0.98588 -0.03500
H 	H 	0.94166 0.79397 0.32477 0.04300
C 	C 	0.95727 0.80995 0.28213 0.04200
Ni	Ni	0.96550 0.79523 0.70932 1.07000
O 	O 	0.96923 0.90042 0.75550 -0.36800
C 	C 	0.96819 0.66595 0.58027 -0.01500
C 	C 	0.97233 0.21608 0.79374 -0.01800
C 	C 	0.97346 0.18976 0.81464 -0.01400
H 	H 	0.96430 0.32990 0.10922 0.05400
O 	O 	0.97298 0.10204 0.25968 -0.36900
C 	C 	0.96896 0.16306 0.16396 0.29500
H 	H 	0.97515 0.50447 0.59746 0.03900
H 	H 	0.97638 0.41403 0.43729 0.05600
C 	C 	0.98285 0.56235 0.59719 -0.01600
O 	O 	0.98485 0.04585 0.74185 -0.38800
H 	H 	0.98314 0.58763 0.93359 0.04700
C 	C 	0.97922 0.78035 0.31902 -0.02300
O 	O 	0.98410 0.20099 0.18229 -0.41300
C 	C 	0.98918 0.77916 0.29685 0.00500
C 	C 	0.98896 0.20091 0.14422 -0.07800
O 	O 	0.98958 0.00857 0.18213 -0.39300
C 	C 	0.99293 0.18343 0.77620 0.06800
C 	C 	0.99114 0.58306 0.95071 -0.03600
H 	H 	0.00002 0.15615 0.81832 0.03200
