data_crystal

_cell_length_a 17.96325
_cell_length_b 17.66403
_cell_length_c 38.70335
_cell_angle_alpha 89.57307
_cell_angle_beta  82.44382
_cell_angle_gamma 106.35148

_symmetry_space_group_name_	'P 1'
_symmetry_space_group_name_H-M	'P 1'

loop_
_symmetry_equiv_pos_as_xyz
  x,y,z

loop_
_atom_site_label
_atom_site_type_symbol
_atom_site_fract_x
_atom_site_fract_y
_atom_site_fract_z
_atom_site_charge
C 	C 	0.48791 0.16990 0.85789 0.35000
O 	O 	0.48176 0.17089 0.89212 -0.37900
O 	O 	0.55475 0.20665 0.83892 -0.22600
O 	O 	0.54492 0.16780 0.95962 -0.39400
Zn	Zn	0.55687 0.14782 0.56312 1.22700
C 	C 	0.41492 0.12320 0.60689 0.34100
O 	O 	0.53436 0.20105 0.52367 -0.35900
O 	O 	0.45553 0.08691 0.58581 -0.39900
O 	O 	0.44250 0.19964 0.61030 -0.23800
Zn	Zn	0.05631 0.02034 0.78524 1.22000
P 	P 	0.08704 0.05878 0.70966 0.30600
O 	O 	0.04116 0.01690 0.67905 -0.41800
O 	O 	0.09616 0.99721 0.73794 -0.40800
O 	O 	0.06679 0.02136 0.86228 -0.22900
C 	C 	0.13673 0.03244 0.84449 0.30800
O 	O 	0.14478 0.03035 0.81030 -0.41200
Zn	Zn	0.47311 0.52136 0.34033 1.20400
Zn	Zn	0.31258 0.46594 0.38781 1.23200
Zn	Zn	0.51175 0.65890 0.39067 1.22300
P 	P 	0.46728 0.49110 0.41396 0.31300
P 	P 	0.37231 0.62489 0.35634 0.31900
C 	C 	0.55107 0.75121 0.44811 0.29300
C 	C 	0.35651 0.38354 0.32416 0.35200
O 	O 	0.47340 0.44830 0.37838 -0.38300
O 	O 	0.43956 0.61252 0.32817 -0.43500
O 	O 	0.38342 0.50696 0.42204 -0.36800
O 	O 	0.40074 0.64067 0.39359 -0.42800
O 	O 	0.53743 0.57136 0.41109 -0.41500
O 	O 	0.29839 0.54882 0.35818 -0.40000
O 	O 	0.56447 0.75022 0.41397 -0.40600
O 	O 	0.20392 0.53556 0.42981 -0.20400
O 	O 	0.51427 0.68545 0.46650 -0.22700
O 	O 	0.33241 0.37668 0.35826 -0.36500
O 	O 	0.41202 0.44645 0.31041 -0.43100
C 	C 	0.16891 0.46015 0.42740 0.27600
O 	O 	0.20585 0.41617 0.40889 -0.31900
Zn	Zn	0.36266 0.54417 0.12197 1.20800
Zn	Zn	0.22480 0.54129 0.07995 1.22700
Zn	Zn	0.45627 0.68905 0.07134 1.22200
P 	P 	0.30660 0.68197 0.11330 0.31500
P 	P 	0.38086 0.53451 0.04639 0.30800
C 	C 	0.51433 0.80845 0.01866 0.29200
C 	C 	0.52258 0.62525 0.12704 0.36400
C 	C 	0.21473 0.42889 0.13881 0.36200
O 	O 	0.35636 0.64684 0.13649 -0.44100
O 	O 	0.35830 0.48006 0.08110 -0.38200
O 	O 	0.22163 0.62073 0.11360 -0.40000
O 	O 	0.46409 0.59808 0.04713 -0.42400
O 	O 	0.35123 0.70249 0.07458 -0.42300
O 	O 	0.31379 0.57577 0.04204 -0.39600
O 	O 	0.52045 0.79002 0.05091 -0.40700
O 	O 	0.09217 0.61018 0.07116 -0.20200
O 	O 	0.47879 0.75308 0.99907 -0.23400
O 	O 	0.50429 0.68753 0.11546 -0.43500
O 	O 	0.21140 0.43693 0.10515 -0.36400
O 	O 	0.46892 0.55641 0.13273 -0.43000
O 	O 	0.27457 0.47301 0.15251 -0.42800
C 	C 	0.08178 0.54226 0.05617 0.25300
O 	O 	0.13529 0.50452 0.05531 -0.32000
Zn	Zn	0.05675 0.04494 0.22806 1.20300
Zn	Zn	0.07141 0.90229 0.26778 1.22300
P 	P 	0.11754 0.92532 0.19219 0.32300
C 	C 	0.00895 0.10645 0.17004 0.37300
C 	C 	0.14171 0.07042 0.28524 0.37000
O 	O 	0.12110 0.01554 0.18804 -0.43200
O 	O 	0.03027 0.87108 0.19156 -0.41600
O 	O 	0.15093 0.91180 0.22751 -0.39900
O 	O 	0.21989 0.90913 0.29699 -0.22800
O 	O 	0.00942 0.03871 0.15584 -0.42500
O 	O 	0.09313 0.00085 0.29667 -0.42700
O 	O 	0.01070 0.11354 0.20376 -0.44000
O 	O 	0.14190 0.09767 0.25354 -0.44300
C 	C 	0.16494 0.84458 0.30899 0.31600
O 	O 	0.09406 0.83224 0.30085 -0.40400
C 	C 	0.16178 0.37049 0.15835 -0.14800
C 	C 	0.10785 0.30534 0.14220 0.03400
C 	C 	0.05162 0.25058 0.16228 0.05300
C 	C 	0.02029 0.17083 0.14932 -0.16900
H 	H 	0.03704 0.26094 0.18968 0.06000
H 	H 	0.16291 0.36711 0.18635 0.10200
H 	H 	0.12035 0.29633 0.11450 0.11900
C 	C 	0.30058 0.77129 0.13380 -0.08200
C 	C 	0.23862 0.79864 0.13299 0.00600
C 	C 	0.21982 0.85076 0.16045 0.00300
C 	C 	0.17484 0.89759 0.15549 -0.07400
H 	H 	0.23712 0.84535 0.18603 0.06300
H 	H 	0.34446 0.79836 0.15028 0.07700
H 	H 	0.16157 0.90694 0.12948 0.07900
H 	H 	0.19751 0.77601 0.11469 0.06400
C 	C 	0.18387 0.11695 0.30730 -0.17300
C 	C 	0.24091 0.19408 0.29478 0.03600
C 	C 	0.27053 0.24875 0.31718 0.01800
C 	C 	0.32977 0.32384 0.30360 -0.15000
H 	H 	0.25167 0.23776 0.34508 0.09500
H 	H 	0.17777 0.09699 0.33444 0.12600
H 	H 	0.35217 0.33078 0.27589 0.10200
H 	H 	0.25958 0.20617 0.26689 0.05500
C 	C 	0.18340 0.78328 0.32954 -0.12900
C 	C 	0.25777 0.78526 0.33182 0.03000
C 	C 	0.27610 0.71659 0.34689 0.00000
C 	C 	0.34946 0.71113 0.34172 -0.07700
H 	H 	0.22924 0.66888 0.36080 0.06500
H 	H 	0.13582 0.73280 0.34078 0.09500
H 	H 	0.39655 0.75942 0.32841 0.07800
H 	H 	0.30553 0.83560 0.32054 0.06200
C 	C 	0.55458 0.96120 0.46758 -0.10900
C 	C 	0.54428 0.88951 0.45070 0.09100
H 	H 	0.51830 0.88173 0.42676 0.07400
C 	C 	0.52477 0.02592 0.45338 0.76900
F 	F 	0.47039 0.99646 0.43101 -0.41600
F 	F 	0.48869 0.05974 0.48033 -0.44200
C 	C 	0.02925 0.45837 0.43731 -0.00800
C 	C 	0.08834 0.42587 0.44514 0.03500
C 	C 	0.07112 0.36606 0.47207 -0.08800
H 	H 	0.04238 0.50522 0.41726 0.06100
C 	C 	0.13420 0.33125 0.48195 0.78300
F 	F 	0.10881 0.28409 0.51235 -0.42100
F 	F 	0.15425 0.28551 0.45547 -0.39700
F 	F 	0.20001 0.39081 0.48732 -0.41400
C 	C 	0.54921 0.34271 0.49017 -0.03100
C 	C 	0.53409 0.46859 0.47234 -0.04400
C 	C 	0.48249 0.43139 0.44923 0.08400
C 	C 	0.45593 0.34753 0.45024 -0.12000
C 	C 	0.49334 0.30419 0.46919 0.08400
H 	H 	0.55111 0.53227 0.47359 0.08300
H 	H 	0.47867 0.24056 0.46772 0.11700
C 	C 	0.38755 0.30359 0.43214 0.79700
F 	F 	0.41424 0.29269 0.39792 -0.43000
F 	F 	0.35085 0.23013 0.44854 -0.39900
F 	F 	0.33202 0.34432 0.43304 -0.44300
C 	C 	0.18300 0.11406 0.69010 -0.07300
C 	C 	0.22742 0.07809 0.66698 -0.00800
C 	C 	0.30083 0.12093 0.65006 0.03400
C 	C 	0.34654 0.08227 0.62501 -0.16100
H 	H 	0.32431 0.18297 0.65521 0.05800
H 	H 	0.20623 0.17525 0.69648 0.07800
H 	H 	0.32441 0.01924 0.62152 0.10700
H 	H 	0.20392 0.01618 0.66166 0.05800
C 	C 	0.01170 0.51002 0.03902 0.12200
H 	H 	0.03610 0.61358 0.00464 0.10100
C 	C 	0.53667 0.89184 0.00619 -0.08300
C 	C 	0.52457 0.94984 0.02901 0.04600
C 	C 	0.54043 0.02802 0.01670 -0.04700
C 	C 	0.56461 0.91254 0.97082 0.08300
H 	H 	0.53173 0.07241 0.03473 0.07000
H 	H 	0.50185 0.93417 0.05626 0.04800
C 	C 	0.50060 0.40882 0.97044 -0.05200
C 	C 	0.49538 0.48301 0.95992 0.02700
C 	C 	0.44194 0.51630 0.97904 -0.05300
C 	C 	0.39532 0.47638 0.00927 0.08300
C 	C 	0.38648 0.39462 0.01405 -0.13700
C 	C 	0.44336 0.36269 0.99624 0.08400
H 	H 	0.44410 0.57694 0.97302 0.08100
H 	H 	0.44275 0.30254 0.00239 0.07100
H 	H 	0.53642 0.51724 0.93856 0.05500
C 	C 	0.31472 0.34042 0.03564 0.79600
F 	F 	0.29014 0.27012 0.01925 -0.43700
F 	F 	0.33252 0.32402 0.06804 -0.44000
F 	F 	0.25345 0.37413 0.03974 -0.44100
C 	C 	0.20608 0.04934 0.86289 -0.12200
C 	C 	0.28182 0.07653 0.84446 0.01100
C 	C 	0.34735 0.09864 0.86204 0.02500
C 	C 	0.42632 0.13328 0.84213 -0.15400
H 	H 	0.34002 0.09245 0.89037 0.06600
H 	H 	0.19772 0.04385 0.89123 0.09600
H 	H 	0.43353 0.13262 0.81380 0.10000
H 	H 	0.28984 0.08287 0.81615 0.05500
F 	F 	0.56281 0.04938 0.90545 -0.46400
O 	O 	0.04236 0.11633 0.72794 -0.42200
O 	O 	0.04379 0.12931 0.79481 -0.41600
H 	H 	0.01599 0.22572 0.84014 0.13300
H 	H 	0.01881 0.16438 0.12147 0.14000
F 	F 	0.03235 0.35298 0.06896 -0.41900
C 	C 	0.56584 0.82701 0.46505 -0.08400
Zn	Zn	0.56826 0.23354 0.91426 1.22600
C 	C 	0.56851 0.42474 0.49203 0.02000
C 	C 	0.56892 0.04945 0.98147 0.01900
H 	H 	0.57396 0.86741 0.95337 0.07900
O 	O 	0.57478 0.34508 0.91638 -0.42600
O 	O 	0.57476 0.68763 0.34329 -0.43500
C 	C 	0.58067 0.99122 0.95807 -0.09200
P 	P 	0.58566 0.37848 0.95418 0.31200
F 	F 	0.58674 0.08341 0.43522 -0.43300
O 	O 	0.58697 0.56722 0.32658 -0.42800
C 	C 	0.59502 0.13349 0.97027 0.30700
O 	O 	0.59557 0.31240 0.97965 -0.42600
P 	P 	0.59551 0.28638 0.51466 0.31500
C 	C 	0.59374 0.97204 0.49746 0.04700
C 	C 	0.59386 0.63314 0.13578 -0.18100
O 	O 	0.59853 0.05832 0.54573 -0.41300
C 	C 	0.59894 0.83624 0.49609 0.03400
C 	C 	0.99778 0.55468 0.01174 -0.12500
H 	H 	0.60601 0.58287 0.14784 0.10900
C 	C 	0.61136 0.01324 0.91980 0.76000
O 	O 	0.61635 0.22146 0.59294 -0.42900
C 	C 	0.61351 0.90858 0.51203 -0.04200
H 	H 	0.61498 0.78786 0.50748 0.04800
H 	H 	0.61220 0.45502 0.50778 0.05000
F 	F 	0.61436 0.94772 0.90086 -0.42800
C 	C 	0.61843 0.05012 0.51217 0.28700
O 	O 	0.61957 0.33006 0.54919 -0.41900
C 	C 	0.61756 0.64420 0.32808 0.34600
H 	H 	0.64197 0.91596 0.53530 0.06900
O 	O 	0.64348 0.48314 0.57077 -0.23600
O 	O 	0.65960 0.45507 0.95317 -0.41200
H 	H 	0.64939 0.75401 0.11117 0.05000
O 	O 	0.66211 0.21909 0.88742 -0.34200
C 	C 	0.65788 0.70728 0.12734 0.02400
O 	O 	0.66524 0.17610 0.97513 -0.39500
O 	O 	0.67115 0.27786 0.49087 -0.41100
O 	O 	0.66756 0.10924 0.49273 -0.37500
H 	H 	0.67677 0.56256 0.62713 0.08900
F 	F 	0.68615 0.06468 0.91662 -0.44700
Zn	Zn	0.69505 0.28923 0.96427 1.20600
C 	C 	0.99369 0.33731 0.48914 0.05600
O 	O 	0.71242 0.37503 0.88503 -0.42900
P 	P 	0.70471 0.21838 0.59018 0.31500
C 	C 	0.69171 0.68063 0.30990 -0.16700
H 	H 	0.69826 0.79838 0.32745 0.05200
C 	C 	0.71432 0.50824 0.57926 0.29700
C 	C 	0.71970 0.17986 0.63092 -0.07700
O 	O 	0.72480 0.54249 0.86153 -0.24000
Zn	Zn	0.71534 0.20663 0.51477 1.20700
H 	H 	0.72206 0.21676 0.65332 0.07300
O 	O 	0.72279 0.16312 0.56014 -0.43800
H 	H 	0.73079 0.07223 0.61103 0.05900
C 	C 	0.72721 0.56048 0.60865 -0.12400
P 	P 	0.73571 0.29492 0.88835 0.31600
Zn	Zn	0.73225 0.36740 0.55011 1.21700
C 	C 	0.73654 0.11079 0.63287 -0.01900
H 	H 	0.72289 0.64480 0.29462 0.10200
C 	C 	0.72644 0.76238 0.31068 0.03500
C 	C 	0.72634 0.71717 0.13937 0.01700
Zn	Zn	0.74796 0.44670 0.92068 1.21900
H 	H 	0.76194 0.65288 0.66127 0.05400
H 	H 	0.73474 0.67107 0.15594 0.05700
C 	C 	0.77071 0.09039 0.66306 0.04400
H 	H 	0.76921 0.66138 0.81910 0.05500
H 	H 	0.77163 0.97411 0.64676 0.11300
O 	O 	0.76509 0.30451 0.58304 -0.40900
O 	O 	0.76749 0.47343 0.56694 -0.40600
O 	O 	0.76058 0.35713 0.99487 -0.42500
O 	O 	0.77237 0.29105 0.92319 -0.41800
H 	H 	0.78329 0.13259 0.68334 0.04700
C 	C 	0.79328 0.02076 0.66418 -0.18400
C 	C 	0.78414 0.58361 0.87642 0.30700
H 	H 	0.80099 0.77792 0.77802 0.08300
C 	C 	0.80128 0.61015 0.61222 0.00600
H 	H 	0.79983 0.31867 0.82632 0.07300
C 	C 	0.81087 0.65889 0.64062 0.02100
C 	C 	0.80645 0.29423 0.85120 -0.06200
C 	C 	0.80047 0.80019 0.28785 -0.01200
O 	O 	0.80552 0.37882 0.50428 -0.42400
O 	O 	0.80232 0.55379 0.90420 -0.41500
C 	C 	0.79002 0.79141 0.13102 -0.16700
C 	C 	0.81908 0.69213 0.83175 0.02700
H 	H 	0.79194 0.82666 0.10757 0.10500
O 	O 	0.83309 0.77134 0.69131 -0.24700
H 	H 	0.81053 0.91527 0.30545 0.08200
H 	H 	0.86260 0.34146 0.03442 0.06900
H 	H 	0.82559 0.76424 0.26973 0.06400
C 	C 	0.84523 0.01126 0.68659 0.34300
C 	C 	0.83298 0.66122 0.86122 -0.13400
C 	C 	0.82288 0.41233 0.98045 0.32000
O 	O 	0.82651 0.25671 0.50103 -0.42100
O 	O 	0.85606 0.94102 0.69110 -0.41100
O 	O 	0.83307 0.42912 0.94652 -0.43000
C 	C 	0.83557 0.87809 0.28806 -0.07800
C 	C 	0.85372 0.80479 0.78950 -0.07000
H 	H 	0.85086 0.61289 0.59235 0.05400
F 	F 	0.90446 0.32375 0.08992 -0.44800
O 	O 	0.86696 0.94828 0.75761 -0.41700
O 	O 	0.83937 0.77847 0.18203 -0.25300
C 	C 	0.84255 0.81826 0.15275 0.34300
C 	C 	0.86365 0.25522 0.85295 -0.01900
C 	C 	0.85320 0.33405 0.49685 0.30700
O 	O 	0.88001 0.07115 0.70439 -0.44200
C 	C 	0.87189 0.76805 0.81620 -0.00500
H 	H 	0.89751 0.26137 0.79722 0.03900
C 	C 	0.89096 0.77635 0.66597 0.34400
C 	C 	0.88494 0.72192 0.64170 -0.17000
H 	H 	0.87155 0.23233 0.87794 0.08300
C 	C 	0.89944 0.40148 0.02871 0.11900
H 	H 	0.88231 0.69302 0.87396 0.09000
O 	O 	0.88699 0.93570 0.22065 -0.40500
C 	C 	0.90916 0.24348 0.82246 0.05600
P 	P 	0.91789 0.89779 0.77157 0.31500
O 	O 	0.91777 0.11415 0.78451 -0.43900
H 	H 	0.90809 0.45563 0.44833 0.05500
C 	C 	0.88702 0.44618 0.00101 -0.11600
O 	O 	0.89523 0.88684 0.14575 -0.41800
Zn	Zn	0.93374 0.05488 0.74331 1.19800
H 	H 	0.92578 0.79470 0.82692 0.05800
C 	C 	0.97134 0.38493 0.07906 0.78100
P 	P 	0.91903 0.92223 0.25619 0.32300
H 	H 	0.93406 0.72665 0.62131 0.10200
C 	C 	0.93491 0.36964 0.48080 -0.07500
Zn	Zn	0.96127 0.92285 0.69507 1.21900
O 	O 	0.95447 0.83627 0.66392 -0.42100
C 	C 	0.96012 0.43362 0.04865 -0.16500
O 	O 	0.96133 0.94250 0.80244 -0.41900
C 	C 	0.95320 0.43075 0.45513 -0.00200
C 	C 	0.97076 0.20345 0.82367 -0.20900
F 	F 	0.98792 0.43128 0.10730 -0.46100
O 	O 	0.97073 0.00463 0.26695 -0.44400
O 	O 	0.96988 0.86134 0.25283 -0.45200
C 	C 	0.97636 0.14639 0.80181 0.36300
O 	O 	0.97705 0.88078 0.74006 -0.42500
Zn	Zn	0.96101 0.93095 0.18024 1.21700
H 	H 	0.97885 0.28950 0.50882 0.07800
C 	C 	0.93590 0.52306 0.99289 0.06800
H 	H 	0.92617 0.55834 0.97184 0.03200
