data_crystal

_cell_length_a 23.18313
_cell_length_b 23.46335
_cell_length_c 34.79233
_cell_angle_alpha 95.48661
_cell_angle_beta  95.48489
_cell_angle_gamma 125.93915

_symmetry_space_group_name_	'P 1'
_symmetry_space_group_name_H-M	'P 1'

loop_
_symmetry_equiv_pos_as_xyz
  x,y,z

loop_
_atom_site_label
_atom_site_type_symbol
_atom_site_fract_x
_atom_site_fract_y
_atom_site_fract_z
_atom_site_charge
N 	N 	0.03862 0.98258 0.98850 -0.14100
C 	C 	0.01571 0.98582 0.46524 0.11600
N 	N 	0.05393 0.09155 0.99704 -0.14000
H 	H 	0.01685 0.17204 0.96841 0.04200
C 	C 	0.08178 0.05471 0.99162 0.13100
C 	C 	0.09543 0.03096 0.47034 -0.01600
H 	H 	0.10244 0.10132 0.43194 0.04300
H 	H 	0.10735 0.97120 0.50991 0.04100
N 	N 	0.98027 0.01547 0.46155 -0.13800
C 	C 	0.98254 0.05578 0.99921 0.11800
N 	N 	0.93961 0.98336 0.99617 -0.14200
C 	C 	0.96771 0.94691 0.99077 0.13200
C 	C 	0.90678 0.97365 0.45631 0.12600
N 	N 	0.97742 0.91415 0.46357 -0.14000
C 	C 	0.90407 0.87204 0.45835 0.12900
N 	N 	0.86841 0.90168 0.45476 -0.13900
Cu	Cu	0.65535 0.25792 0.00890 0.92800
Cu	Cu	0.70608 0.25319 0.92427 0.87200
Cu	Cu	0.69254 0.36683 0.95534 0.89700
Cu	Cu	0.65379 0.38932 0.03237 0.89500
C 	C 	0.67762 0.31549 0.09045 0.28700
O 	O 	0.54926 0.21382 0.00897 -0.36100
C 	C 	0.66285 0.31052 0.87008 0.28600
O 	O 	0.71185 0.36853 0.01040 -0.63900
O 	O 	0.64291 0.26177 0.95233 -0.64100
O 	O 	0.70247 0.20887 0.00746 -0.37100
O 	O 	0.77766 0.27863 0.96782 -0.44300
O 	O 	0.64442 0.34332 0.07923 -0.38400
O 	O 	0.74552 0.46971 0.96233 -0.38200
C 	C 	0.73909 0.50895 0.98892 0.28900
C 	C 	0.51941 0.24230 0.99414 0.28200
O 	O 	0.56093 0.30791 0.98761 -0.39300
O 	O 	0.69095 0.47950 0.01215 -0.39300
O 	O 	0.68187 0.27311 0.06492 -0.35800
C 	C 	0.76190 0.23557 0.99295 0.30800
O 	O 	0.69099 0.36680 0.89834 -0.38600
O 	O 	0.65673 0.25323 0.87721 -0.41600
H 	H 	0.76391 0.40066 0.02276 0.16500
H 	H 	0.59198 0.23162 0.93811 0.17300
Cu	Cu	0.71607 0.31094 0.44968 0.92600
Cu	Cu	0.73071 0.27070 0.53615 0.87100
Cu	Cu	0.60846 0.27372 0.50524 0.89800
Cu	Cu	0.57327 0.29826 0.42451 0.89600
C 	C 	0.66623 0.30085 0.36939 0.28700
O 	O 	0.75735 0.41448 0.44705 -0.36700
C 	C 	0.67201 0.31259 0.59021 0.28500
O 	O 	0.60397 0.25085 0.45013 -0.63700
O 	O 	0.71499 0.32715 0.50636 -0.64200
O 	O 	0.76748 0.26573 0.45109 -0.37000
O 	O 	0.70313 0.19636 0.49427 -0.44000
O 	O 	0.60373 0.28796 0.37396 -0.38100
O 	O 	0.50404 0.21642 0.50015 -0.38100
C 	C 	0.46124 0.21819 0.47322 0.30700
C 	C 	0.72264 0.44090 0.45623 0.28300
O 	O 	0.65720 0.39876 0.46379 -0.39100
O 	O 	0.48784 0.26579 0.44999 -0.39400
O 	O 	0.69869 0.28383 0.39383 -0.36200
C 	C 	0.74351 0.20919 0.46753 0.28600
O 	O 	0.61298 0.28027 0.56274 -0.38400
O 	O 	0.73115 0.32179 0.58235 -0.41600
H 	H 	0.57460 0.19876 0.43967 0.16600
H 	H 	0.74354 0.37822 0.51903 0.17300
C 	C 	0.71224 0.34499 0.70360 -0.00100
C 	C 	0.73877 0.37652 0.74354 -0.05700
C 	C 	0.69681 0.33642 0.77035 0.01400
C 	C 	0.62940 0.26982 0.75702 0.00000
C 	C 	0.59776 0.24457 0.71704 -0.05700
C 	C 	0.64156 0.28231 0.69023 0.01500
S 	S 	0.74127 0.38673 0.66612 0.01400
C 	C 	0.66732 0.32652 0.63139 -0.07300
C 	C 	0.61607 0.27148 0.64962 -0.02500
S 	S 	0.58589 0.24606 0.79439 0.01400
C 	C 	0.65104 0.31711 0.82911 -0.07300
C 	C 	0.70944 0.36324 0.81088 -0.02400
H 	H 	0.78882 0.43014 0.75322 0.04400
H 	H 	0.54146 0.19869 0.70730 0.04500
H 	H 	0.56476 0.22337 0.63373 0.04200
H 	H 	0.76083 0.41120 0.82680 0.03900
C 	C 	0.65188 0.26474 0.19329 -0.00300
C 	C 	0.65002 0.23588 0.22702 -0.05300
C 	C 	0.65533 0.27346 0.26276 0.01500
C 	C 	0.66716 0.33949 0.26443 0.00400
C 	C 	0.68127 0.37355 0.23197 -0.05800
C 	C 	0.67075 0.33381 0.19576 0.01800
S 	S 	0.66542 0.24183 0.15030 0.03300
C 	C 	0.69271 0.31651 0.13262 -0.07300
C 	C 	0.69337 0.36303 0.16170 -0.02200
S 	S 	0.69338 0.37966 0.31115 0.01000
C 	C 	0.68807 0.31481 0.33125 -0.06800
C 	C 	0.66636 0.25898 0.30030 -0.01800
H 	H 	0.64641 0.18755 0.22570 0.04700
H 	H 	0.70119 0.42894 0.23491 0.04600
H 	H 	0.70628 0.41428 0.15765 0.03600
H 	H 	0.65467 0.20839 0.30480 0.04400
C 	C 	0.80736 0.65942 0.45593 0.03300
C 	C 	0.82524 0.62512 0.42982 -0.06600
C 	C 	0.80020 0.55466 0.43097 0.01400
C 	C 	0.86486 0.79623 0.45695 -0.03500
C 	C 	0.74019 0.55295 0.48481 0.01400
C 	C 	0.76529 0.62335 0.48361 -0.06700
C 	C 	0.83691 0.73347 0.45627 -0.00400
C 	C 	0.75698 0.51794 0.45826 -0.09100
H 	H 	0.85852 0.65298 0.40864 0.05000
H 	H 	0.81290 0.52813 0.41004 0.03400
H 	H 	0.70722 0.52543 0.50616 0.03100
H 	H 	0.75218 0.64983 0.50429 0.04900
C 	C 	0.81406 0.07741 0.45036 0.03300
C 	C 	0.85703 0.14787 0.44353 -0.06700
C 	C 	0.83248 0.18996 0.44704 0.01400
C 	C 	0.87024 0.00632 0.45344 -0.03200
C 	C 	0.72042 0.09012 0.46252 0.01300
C 	C 	0.74512 0.04821 0.45904 -0.06600
C 	C 	0.84327 0.03738 0.45164 -0.00500
C 	C 	0.76478 0.16192 0.45758 -0.09300
H 	H 	0.91029 0.17075 0.43659 0.05000
H 	H 	0.86724 0.24506 0.44301 0.03400
H 	H 	0.66753 0.06728 0.46996 0.03000
H 	H 	0.71133 0.99366 0.46406 0.04700
C 	C 	0.24580 0.10942 0.47504 -0.00100
C 	C 	0.20705 0.12723 0.45254 -0.03900
C 	C 	0.13213 0.08821 0.45019 -0.02300
C 	C 	0.38575 0.17877 0.47491 -0.10600
C 	C 	0.13483 0.01454 0.49374 -0.02100
C 	C 	0.20972 0.05360 0.49599 -0.03900
C 	C 	0.32205 0.14681 0.47541 0.04400
H 	H 	0.23475 0.17055 0.43636 0.04200
H 	H 	0.23949 0.03989 0.51365 0.04300
C 	C 	0.84886 0.73216 0.98835 0.03200
C 	C 	0.83151 0.68529 0.95365 -0.06600
C 	C 	0.79646 0.61245 0.95382 0.01700
C 	C 	0.92362 0.87116 0.98947 -0.03700
C 	C 	0.79624 0.63335 0.02351 0.01700
C 	C 	0.83116 0.70607 0.02324 -0.06500
C 	C 	0.88867 0.80766 0.98872 -0.00200
C 	C 	0.77857 0.58607 0.98879 -0.08900
H 	H 	0.84544 0.70529 0.92661 0.05000
H 	H 	0.78254 0.57653 0.92673 0.03900
H 	H 	0.78324 0.61383 0.05074 0.02700
H 	H 	0.84503 0.74220 0.05024 0.04900
C 	C 	0.88051 0.15944 0.00633 -0.00300
C 	C 	0.93838 0.18515 0.98620 -0.04000
C 	C 	0.97371 0.15317 0.98510 -0.02400
C 	C 	0.80337 0.20886 0.99947 -0.12100
C 	C 	0.89516 0.07137 0.02563 -0.02300
C 	C 	0.85986 0.10336 0.02662 -0.03700
C 	C 	0.83859 0.18651 0.00333 0.04800
C 	C 	0.95125 0.09504 0.00411 -0.01400
H 	H 	0.95476 0.22865 0.97051 0.03900
H 	H 	0.87814 0.02746 0.04104 0.04400
H 	H 	0.81544 0.08347 0.04244 0.04400
C 	C 	0.29534 0.14900 0.99080 0.03100
C 	C 	0.33297 0.19508 0.96505 -0.06600
C 	C 	0.40536 0.22311 0.96486 0.01300
C 	C 	0.15751 0.09189 0.99107 -0.03700
C 	C 	0.40207 0.15750 0.01558 0.01600
C 	C 	0.32974 0.12959 0.01570 -0.06400
C 	C 	0.22060 0.11935 0.99078 -0.00200
C 	C 	0.44069 0.20534 0.99058 -0.09100
H 	H 	0.30634 0.20945 0.94530 0.04900
H 	H 	0.43420 0.25929 0.94510 0.03100
H 	H 	0.42856 0.14349 0.03568 0.03900
H 	H 	0.30061 0.09325 0.03536 0.05100
