data_crystal

_cell_length_a 30.75353
_cell_length_b 31.13018
_cell_length_c 26.50676
_cell_angle_alpha 95.55607
_cell_angle_beta  95.54803
_cell_angle_gamma 125.52782

_symmetry_space_group_name_	'P 1'
_symmetry_space_group_name_H-M	'P 1'

loop_
_symmetry_equiv_pos_as_xyz
  x,y,z

loop_
_atom_site_label
_atom_site_type_symbol
_atom_site_fract_x
_atom_site_fract_y
_atom_site_fract_z
_atom_site_charge
C 	C 	0.02189 0.04895 0.97870 -0.07600
C 	C 	0.04569 0.02195 0.97431 0.02900
H 	H 	0.04629 0.09197 0.98000 0.04700
C 	C 	0.01130 0.03952 0.44490 -0.07800
C 	C 	0.03785 0.01535 0.45033 0.03000
H 	H 	0.03422 0.08142 0.44123 0.05100
C 	C 	0.09684 0.04678 0.45123 -0.00500
C 	C 	0.13212 0.05603 0.49562 -0.03700
C 	C 	0.18791 0.08481 0.49614 -0.04300
C 	C 	0.20887 0.10466 0.45229 0.00600
C 	C 	0.17363 0.09569 0.40800 -0.04300
C 	C 	0.11782 0.06685 0.40747 -0.03700
H 	H 	0.11628 0.04082 0.52964 0.03700
H 	H 	0.21480 0.09147 0.53047 0.03900
H 	H 	0.18950 0.11106 0.37405 0.04000
H 	H 	0.09086 0.05978 0.37299 0.03800
H 	H 	0.25816 0.07602 0.39269 0.04000
C 	C 	0.10387 0.05184 0.97206 -0.01100
C 	C 	0.12250 0.07164 0.92744 -0.03600
C 	C 	0.17664 0.09517 0.92325 -0.04100
C 	C 	0.21252 0.09910 0.96369 -0.00200
C 	C 	0.19419 0.08057 0.00884 -0.03400
C 	C 	0.14008 0.05700 0.01298 -0.02900
H 	H 	0.09476 0.06771 0.89562 0.03700
H 	H 	0.22177 0.08403 0.04050 0.04000
H 	H 	0.19049 0.10954 0.88831 0.03800
H 	H 	0.12605 0.04196 0.04763 0.03800
C 	C 	0.26766 0.13465 0.45272 0.00900
H 	H 	0.98989 0.09687 0.06068 0.03800
C 	C 	0.96653 0.02032 0.98143 0.02800
C 	C 	0.95540 0.00989 0.44489 0.04100
C 	C 	0.84212 0.14606 0.42902 -0.00500
C 	C 	0.82395 0.10255 0.38960 -0.03400
C 	C 	0.84538 0.07345 0.39276 -0.04600
C 	C 	0.88499 0.08763 0.43534 0.01900
C 	C 	0.90322 0.13109 0.47466 -0.04700
C 	C 	0.88186 0.16020 0.47155 -0.03500
C 	C 	0.90822 0.05869 0.43809 -0.01500
C 	C 	0.92889 0.03565 0.44096 -0.02800
H 	H 	0.79327 0.09129 0.35663 0.03800
H 	H 	0.83127 0.04003 0.36211 0.04100
H 	H 	0.93395 0.14238 0.50760 0.04000
C 	C 	0.28661 0.11406 0.41907 -0.04400
C 	C 	0.94129 0.04850 0.98577 -0.01000
C 	C 	0.95768 0.08683 0.03004 -0.03100
C 	C 	0.93189 0.11163 0.03518 -0.03100
C 	C 	0.88951 0.09825 0.99611 -0.01200
C 	C 	0.87362 0.06043 0.95157 -0.03800
C 	C 	0.89940 0.03567 0.94642 -0.03900
C 	C 	0.86173 0.12377 0.00171 0.02000
C 	C 	0.80602 0.09233 0.00346 -0.04700
C 	C 	0.77858 0.11569 0.00419 -0.03100
H 	H 	0.84127 0.05022 0.92100 0.03500
H 	H 	0.78383 0.04968 0.00327 0.04300
H 	H 	0.73529 0.09087 0.00426 0.04000
C 	C 	0.26906 0.12198 0.95859 0.01100
C 	C 	0.28783 0.09031 0.96015 -0.04600
C 	C 	0.34249 0.11309 0.95927 -0.03100
H 	H 	0.26026 0.04833 0.96287 0.03800
H 	H 	0.35691 0.08866 0.96166 0.03600
C 	C 	0.34239 0.14250 0.41955 -0.03100
H 	H 	0.35669 0.12638 0.39338 0.03600
H 	H 	0.94447 0.14083 0.06967 0.03700
H 	H 	0.88667 0.00633 0.91200 0.03700
H 	H 	0.89361 0.25137 0.42384 0.04600
H 	H 	0.89583 0.19342 0.50238 0.03400
C 	C 	0.30493 0.18382 0.48692 -0.04400
H 	H 	0.29067 0.20010 0.51295 0.04000
O 	O 	0.67639 0.21291 0.99714 -0.37700
H 	H 	0.54963 0.20290 0.64747 0.08100
N 	N 	0.58749 0.20997 0.15957 -0.20000
H 	H 	0.57933 0.20101 0.11931 0.10500
H 	H 	0.55928 0.18132 0.17910 0.08500
C 	C 	0.85111 0.23081 0.42625 -0.06900
C 	C 	0.81809 0.17553 0.42688 0.02800
C 	C 	0.76295 0.14922 0.42924 -0.07000
H 	H 	0.73704 0.10649 0.42938 0.04400
C 	C 	0.37951 0.19162 0.45368 -0.01000
C 	C 	0.36069 0.21219 0.48739 -0.03000
C 	C 	0.43686 0.22131 0.45361 0.04600
C 	C 	0.80666 0.17059 0.00331 -0.00300
C 	C 	0.86266 0.20240 0.00331 -0.03200
C 	C 	0.89015 0.17908 0.00255 -0.04800
C 	C 	0.77720 0.19319 0.99769 0.03500
C 	C 	0.75248 0.21190 0.99150 -0.12100
H 	H 	0.93318 0.20370 0.00132 0.04200
C 	C 	0.37863 0.16755 0.95664 -0.01100
C 	C 	0.35961 0.19882 0.95349 -0.03100
C 	C 	0.30499 0.17612 0.95445 -0.04600
C 	C 	0.43591 0.19242 0.96143 0.04500
H 	H 	0.29086 0.20086 0.95313 0.03900
C 	C 	0.74158 0.17836 0.43342 0.01400
H 	H 	0.69918 0.15774 0.43629 0.02700
C 	C 	0.82976 0.26002 0.43043 0.01400
O 	O 	0.56325 0.21996 0.99575 -0.37000
C 	C 	0.54188 0.24180 0.97467 0.30300
C 	C 	0.72316 0.23398 0.98223 0.30900
H 	H 	0.59967 0.23194 0.90328 0.17500
O 	O 	0.71824 0.24995 0.47741 -0.44400
N 	N 	0.58378 0.23653 0.63771 -0.20000
H 	H 	0.58637 0.23843 0.73711 0.04500
H 	H 	0.58474 0.23786 0.59864 0.08400
H 	H 	0.61386 0.23700 0.26057 0.03700
C 	C 	0.77522 0.23419 0.43545 -0.09700
H 	H 	0.85614 0.30299 0.43167 0.03100
C 	C 	0.48489 0.24649 0.45350 -0.11000
H 	H 	0.38919 0.25020 0.51381 0.04000
H 	H 	0.88463 0.24489 0.00263 0.03800
C 	C 	0.48416 0.21427 0.96673 -0.11400
H 	H 	0.38737 0.24097 0.95144 0.03700
H 	H 	0.62753 0.26204 0.41187 0.16200
Cu	Cu	0.64288 0.25164 0.99837 0.92500
Cu	Cu	0.69173 0.25733 0.89274 0.86500
O 	O 	0.63679 0.25611 0.92448 -0.64200
O 	O 	0.73952 0.27017 0.95286 -0.44700
O 	O 	0.66066 0.26104 0.07180 -0.35900
O 	O 	0.66221 0.26171 0.82815 -0.42200
O 	O 	0.57372 0.27774 0.49135 -0.38800
C 	C 	0.54205 0.27692 0.45328 0.31000
C 	C 	0.75477 0.26595 0.44786 0.29000
C 	C 	0.63379 0.25691 0.18635 0.11300
C 	C 	0.64368 0.26654 0.24054 -0.04700
C 	C 	0.62153 0.27387 0.72733 -0.04100
C 	C 	0.62505 0.27735 0.67527 0.09900
Cu	Cu	0.73144 0.29744 0.53733 0.86500
O 	O 	0.65124 0.30076 0.42756 -0.64100
C 	C 	0.65790 0.29351 0.10492 0.29200
O 	O 	0.57341 0.29207 0.96916 -0.39900
C 	C 	0.67173 0.29668 0.16045 -0.09100
C 	C 	0.66461 0.30406 0.81981 0.28700
O 	O 	0.77589 0.31215 0.43280 -0.37300
O 	O 	0.56207 0.30984 0.42012 -0.39500
C 	C 	0.69031 0.31511 0.26904 -0.09200
Cu	Cu	0.65179 0.31646 0.49953 0.89600
O 	O 	0.63146 0.31300 0.09011 -0.38400
C 	C 	0.66422 0.31445 0.76682 -0.09300
C 	C 	0.68286 0.32272 0.60980 0.28700
C 	C 	0.67213 0.32267 0.66274 -0.09300
C 	C 	0.01405 0.96631 0.97242 -0.07400
H 	H 	0.03246 0.94545 0.96905 0.04900
H 	H 	0.02871 0.94249 0.45928 0.05000
C 	C 	0.00828 0.96134 0.45551 -0.07300
C 	C 	0.95875 0.93759 0.97502 0.03000
C 	C 	0.93506 0.96464 0.97965 -0.07500
H 	H 	0.89229 0.94246 0.98179 0.04800
C 	C 	0.95235 0.93154 0.45569 0.03100
C 	C 	0.92584 0.95586 0.45021 -0.07700
H 	H 	0.88263 0.93298 0.45050 0.05100
Cu	Cu	0.66959 0.33405 0.92984 0.89400
Cu	Cu	0.64155 0.35065 0.03061 0.89600
O 	O 	0.68574 0.33510 0.00187 -0.63700
O 	O 	0.70704 0.41089 0.93779 -0.38900
C 	C 	0.70607 0.44157 0.97505 0.30300
O 	O 	0.67357 0.42129 0.00882 -0.38700
O 	O 	0.65674 0.33068 0.85517 -0.37800
H 	H 	0.72490 0.35928 0.01770 0.16400
Cu	Cu	0.73593 0.34466 0.43126 0.92700
Cu	Cu	0.63379 0.34299 0.39831 0.89400
C 	C 	0.69310 0.32863 0.32450 0.29300
O 	O 	0.76647 0.42307 0.43350 -0.36600
O 	O 	0.73112 0.35067 0.50510 -0.64200
O 	O 	0.67222 0.35370 0.33897 -0.38600
C 	C 	0.74300 0.44316 0.45363 0.30100
O 	O 	0.69233 0.41097 0.45947 -0.39500
O 	O 	0.72669 0.32703 0.35785 -0.36400
O 	O 	0.65486 0.32910 0.57418 -0.37800
O 	O 	0.72649 0.32651 0.60162 -0.42200
H 	H 	0.75487 0.38745 0.52611 0.17500
C 	C 	0.70924 0.36169 0.75429 0.09900
C 	C 	0.71256 0.36535 0.70223 -0.04100
H 	H 	0.74784 0.40068 0.69246 0.04500
N 	N 	0.74996 0.40301 0.79185 -0.20000
H 	H 	0.74873 0.40192 0.83093 0.08400
H 	H 	0.78339 0.43731 0.78210 0.08100
C 	C 	0.72035 0.34338 0.18895 -0.04800
C 	C 	0.73005 0.35317 0.24313 0.11300
N 	N 	0.77702 0.39948 0.26992 -0.20000
H 	H 	0.74982 0.37323 0.16892 0.03700
H 	H 	0.80561 0.42777 0.25039 0.08500
H 	H 	0.78610 0.40758 0.31018 0.10300
C 	C 	0.92174 0.87484 0.46157 -0.00400
C 	C 	0.88294 0.83370 0.42012 -0.03600
C 	C 	0.85930 0.77997 0.42314 -0.04200
C 	C 	0.87428 0.76698 0.46765 0.00700
C 	C 	0.91159 0.80800 0.50980 -0.04200
C 	C 	0.93517 0.86169 0.50680 -0.03600
C 	C 	0.85261 0.71071 0.46927 0.00900
C 	C 	0.88769 0.69558 0.47217 -0.04400
C 	C 	0.86684 0.64183 0.47160 -0.03100
C 	C 	0.81087 0.60293 0.46820 -0.01000
C 	C 	0.77591 0.61810 0.46610 -0.03100
C 	C 	0.79669 0.67181 0.46663 -0.04400
C 	C 	0.78882 0.54705 0.46427 0.04500
C 	C 	0.76891 0.49986 0.46002 -0.11100
H 	H 	0.87235 0.84344 0.38503 0.03800
H 	H 	0.83038 0.74855 0.39047 0.04000
H 	H 	0.92295 0.79832 0.54452 0.03900
H 	H 	0.96486 0.89317 0.53911 0.03700
H 	H 	0.93091 0.72531 0.47414 0.04000
H 	H 	0.89409 0.63038 0.47315 0.03700
H 	H 	0.73258 0.58823 0.46345 0.03800
H 	H 	0.76934 0.68312 0.46463 0.04000
C 	C 	0.92574 0.87913 0.97310 -0.01100
C 	C 	0.90439 0.85785 0.01631 -0.02900
C 	C 	0.87563 0.80272 0.01549 -0.03400
C 	C 	0.86800 0.76847 0.97146 -0.00200
C 	C 	0.88860 0.78965 0.92796 -0.04100
C 	C 	0.91736 0.84477 0.92878 -0.03600
C 	C 	0.83945 0.71066 0.97129 0.01100
C 	C 	0.86724 0.68766 0.96697 -0.04600
C 	C 	0.84030 0.63293 0.96731 -0.03100
C 	C 	0.78548 0.60090 0.97199 -0.01000
C 	C 	0.75761 0.62375 0.97618 -0.03000
C 	C 	0.78450 0.67847 0.97582 -0.04600
C 	C 	0.75789 0.54470 0.97290 0.04400
C 	C 	0.73447 0.49761 0.97380 -0.10900
H 	H 	0.91079 0.88412 0.05073 0.03800
H 	H 	0.85991 0.78670 0.04927 0.04000
H 	H 	0.88256 0.76344 0.89367 0.03900
H 	H 	0.93348 0.86085 0.89516 0.03700
H 	H 	0.90973 0.71226 0.96364 0.03900
H 	H 	0.86207 0.61550 0.96409 0.03500
H 	H 	0.71520 0.59917 0.97978 0.03800
H 	H 	0.76267 0.69584 0.97900 0.03900
