data_crystal

_cell_length_a 25.49656
_cell_length_b 25.92899
_cell_length_c 26.61172
_cell_angle_alpha 95.51599
_cell_angle_beta  95.51674
_cell_angle_gamma 125.80060

_symmetry_space_group_name_	'P 1'
_symmetry_space_group_name_H-M	'P 1'

loop_
_symmetry_equiv_pos_as_xyz
  x,y,z

loop_
_atom_site_label
_atom_site_type_symbol
_atom_site_fract_x
_atom_site_fract_y
_atom_site_fract_z
_atom_site_charge
C 	C 	0.06121 0.03474 0.00291 0.11400
N 	N 	0.03904 0.06922 0.01818 -0.13900
C 	C 	0.10036 0.04796 0.43699 -0.02000
C 	C 	0.14284 0.04502 0.47186 -0.04700
C 	C 	0.13093 0.06823 0.99924 -0.01400
C 	C 	0.02841 0.00426 0.43081 0.12300
C 	C 	0.16035 0.03711 0.99105 -0.05000
H 	H 	0.25718 0.06660 0.51792 0.05100
C 	C 	0.22217 0.07744 0.97618 0.02800
H 	H 	0.25771 0.01983 0.98494 0.05200
C 	C 	0.27045 0.06707 0.98170 -0.05500
C 	C 	0.26277 0.10670 0.50305 -0.05600
C 	C 	0.20766 0.10340 0.48356 0.02600
H 	H 	0.70815 0.11179 0.46807 0.04100
S 	S 	0.14263 0.12208 0.42260 0.01000
C 	C 	0.33610 0.12072 0.98640 0.00100
S 	S 	0.39792 0.11825 0.97627 0.04400
H 	H 	0.72283 0.12445 0.03663 0.05400
C 	C 	0.23937 0.13883 0.97096 0.00200
H 	H 	0.74531 0.03399 0.47504 0.04700
S 	S 	0.17997 0.14298 0.98655 0.01100
H 	H 	0.77069 0.05716 0.05650 0.05200
C 	C 	0.75247 0.14022 0.45228 -0.02500
C 	C 	0.21502 0.15227 0.45878 0.00200
C 	C 	0.77063 0.15761 0.02674 -0.02000
H 	H 	0.12808 0.00221 0.48738 0.05100
C 	C 	0.32481 0.16054 0.49836 0.00200
S 	S 	0.39022 0.16093 0.49859 0.03700
H 	H 	0.01729 0.16394 0.01423 0.04900
C 	C 	0.78998 0.07150 0.46324 -0.05300
C 	C 	0.80076 0.12919 0.45432 0.01500
C 	C 	0.81519 0.09639 0.04570 -0.05300
N 	N 	0.99258 0.02676 0.42206 -0.13900
C 	C 	0.97571 0.03794 0.02507 0.12300
C 	C 	0.83810 0.06325 0.45436 -0.00200
C 	C 	0.88895 0.01395 0.41517 -0.02300
C 	C 	0.91776 0.07753 0.40724 -0.04400
C 	C 	0.87374 0.10233 0.05505 0.00200
S 	S 	0.87762 0.04100 0.05874 0.01300
C 	C 	0.95243 0.07516 0.04398 -0.01900
C 	C 	0.88881 0.10486 0.42910 0.02600
H 	H 	0.95935 0.10371 0.38808 0.05200
C 	C 	0.97559 0.13627 0.03302 -0.04500
C 	C 	0.81669 0.14394 0.02337 0.01700
C 	C 	0.93109 0.15148 0.03925 0.02400
C 	C 	0.89701 0.16036 0.41702 -0.05500
C 	C 	0.85560 0.17426 0.43412 -0.00200
H 	H 	0.13992 0.98893 0.99828 0.05500
N 	N 	0.01978 0.96904 0.99413 -0.13300
Cu	Cu	0.64640 0.24934 0.00514 0.92900
Cu	Cu	0.63846 0.36578 0.02994 0.89500
C 	C 	0.65744 0.30159 0.10928 0.32600
O 	O 	0.54843 0.20633 0.99806 -0.34300
O 	O 	0.64294 0.25432 0.93127 -0.63800
O 	O 	0.62549 0.32380 0.09136 -0.38200
C 	C 	0.52126 0.23094 0.97633 0.28400
O 	O 	0.55854 0.29077 0.96876 -0.38100
H 	H 	0.59816 0.22675 0.90989 0.18600
Cu	Cu	0.63009 0.29405 0.50292 0.90000
Cu	Cu	0.60940 0.33697 0.40692 0.89700
C 	C 	0.68042 0.31013 0.61298 0.33600
O 	O 	0.62815 0.28238 0.43053 -0.64100
O 	O 	0.65164 0.35046 0.34499 -0.36200
O 	O 	0.53592 0.24643 0.49444 -0.37500
C 	C 	0.49964 0.25449 0.46217 0.29200
O 	O 	0.52643 0.30080 0.43462 -0.38800
O 	O 	0.62958 0.28961 0.57661 -0.38500
H 	H 	0.59830 0.23671 0.41234 0.16800
C 	C 	0.66983 0.30968 0.77183 -0.13200
C 	C 	0.61610 0.25935 0.73430 0.33700
C 	C 	0.61768 0.26175 0.68216 -0.09200
C 	C 	0.67325 0.31399 0.66711 -0.13200
H 	H 	0.57705 0.22158 0.65345 0.09100
F 	F 	0.56321 0.20732 0.74833 -0.44800
C 	C 	0.65443 0.25896 0.24122 -0.09100
C 	C 	0.64933 0.25334 0.18781 0.34000
F 	F 	0.61868 0.19416 0.15786 -0.43700
H 	H 	0.63436 0.21614 0.25817 0.08800
C 	C 	0.27591 0.20081 0.44753 -0.05300
C 	C 	0.33134 0.20526 0.46846 0.01700
C 	C 	0.42887 0.21707 0.46236 -0.07700
C 	C 	0.39064 0.23802 0.44896 -0.01700
H 	H 	0.27928 0.23100 0.42061 0.04900
H 	H 	0.40393 0.27386 0.42497 0.04500
C 	C 	0.30526 0.19225 0.97494 -0.05300
C 	C 	0.35333 0.18164 0.98080 0.01900
C 	C 	0.44918 0.19402 0.96566 -0.07100
C 	C 	0.41733 0.22348 0.96974 -0.02100
H 	H 	0.31839 0.23981 0.97254 0.05000
H 	H 	0.43998 0.27335 0.96631 0.04400
C 	C 	0.67398 0.30200 0.82577 0.33600
O 	O 	0.66261 0.26195 0.07877 -0.33000
O 	O 	0.66736 0.25009 0.83635 -0.39500
O 	O 	0.69508 0.35166 0.86257 -0.38600
C 	C 	0.67853 0.32332 0.32711 0.33300
O 	O 	0.68588 0.41732 0.46671 -0.38300
C 	C 	0.68226 0.31911 0.27233 -0.12700
C 	C 	0.67270 0.30827 0.16531 -0.12500
Cu	Cu	0.70596 0.24923 0.90095 0.87600
Cu	Cu	0.68697 0.34915 0.93554 0.90100
O 	O 	0.69587 0.34916 0.00762 -0.64300
O 	O 	0.69197 0.20758 0.00948 -0.36000
O 	O 	0.67497 0.44801 0.00309 -0.39300
H 	H 	0.69378 0.52618 0.45293 0.04300
H 	H 	0.69683 0.56592 0.01157 0.04100
C 	C 	0.72315 0.36420 0.75683 -0.09100
C 	C 	0.72510 0.36623 0.70468 0.33700
C 	C 	0.72262 0.47590 0.97611 0.29700
O 	O 	0.70793 0.21729 0.47712 -0.43600
O 	O 	0.71428 0.31341 0.35818 -0.35600
C 	C 	0.70899 0.37449 0.25011 0.34000
C 	C 	0.70417 0.36900 0.19687 -0.09400
H 	H 	0.72039 0.63918 0.43481 0.05000
O 	O 	0.72641 0.33824 0.50605 -0.64000
O 	O 	0.73417 0.44189 0.94532 -0.37400
C 	C 	0.74908 0.23379 0.99505 0.29500
H 	H 	0.74184 0.37878 0.02680 0.16700
Cu	Cu	0.72925 0.33213 0.43174 0.93100
Cu	Cu	0.73280 0.27758 0.53746 0.87500
O 	O 	0.73316 0.31705 0.60177 -0.39500
H 	H 	0.72323 0.41174 0.17995 0.08000
C 	C 	0.73389 0.58047 0.98794 -0.01000
H 	H 	0.73392 0.68640 0.01367 0.04600
H 	H 	0.76447 0.40366 0.78554 0.09100
C 	C 	0.74587 0.45434 0.45747 0.29000
C 	C 	0.74748 0.23343 0.44398 0.28900
H 	H 	0.75441 0.38274 0.52662 0.18600
F 	F 	0.73845 0.43343 0.28009 -0.44300
C 	C 	0.74470 0.54971 0.44945 -0.01700
O 	O 	0.76618 0.27277 0.96191 -0.43300
C 	C 	0.75812 0.54528 0.97537 -0.07800
C 	C 	0.76533 0.69094 0.98700 -0.04700
C 	C 	0.76460 0.63821 0.96763 0.01400
F 	F 	0.77814 0.41811 0.69065 -0.44700
O 	O 	0.77142 0.42774 0.43659 -0.34500
C 	C 	0.76698 0.65126 0.42721 -0.05200
C 	C 	0.76960 0.19380 0.42976 -0.07800
O 	O 	0.77274 0.28849 0.42802 -0.36100
C 	C 	0.78225 0.60745 0.42961 0.02200
C 	C 	0.77921 0.52416 0.46127 -0.07100
C 	C 	0.79325 0.21831 0.01491 -0.08000
C 	C 	0.81163 0.75093 0.97413 0.00300
C 	C 	0.81106 0.64667 0.93807 0.00300
S 	S 	0.81481 0.58487 0.93905 0.04000
C 	C 	0.81565 0.71257 0.41754 0.00300
N 	N 	0.99785 0.94182 0.43603 -0.13800
S 	S 	0.82849 0.99367 0.44811 0.01700
N 	N 	0.93482 0.97218 0.01688 -0.13400
C 	C 	0.95658 0.93767 0.00088 0.11800
C 	C 	0.92643 0.98743 0.41989 0.12900
C 	C 	0.93160 0.90174 0.43273 0.12600
N 	N 	0.89586 0.92477 0.42526 -0.13600
C 	C 	0.84535 0.62640 0.42534 0.00600
C 	C 	0.89671 0.69071 0.42454 -0.05400
C 	C 	0.88072 0.73349 0.41919 0.02800
S 	S 	0.85443 0.57380 0.44730 0.05100
S 	S 	0.81749 0.77788 0.43028 0.01500
C 	C 	0.89915 0.83373 0.43741 -0.01900
C 	C 	0.92765 0.80163 0.42980 -0.04500
H 	H 	0.94739 0.70750 0.43019 0.05300
H 	H 	0.98006 0.82628 0.43241 0.05300
S 	S 	0.84298 0.22500 0.41283 0.03400
H 	H 	0.93264 0.19023 0.39404 0.05100
C 	C 	0.86333 0.70841 0.93211 -0.05600
C 	C 	0.86244 0.76064 0.94948 0.02800
S 	S 	0.83796 0.82208 0.00785 0.00700
C 	C 	0.91248 0.86656 0.99211 -0.01000
C 	C 	0.91899 0.82609 0.95904 -0.04800
H 	H 	0.90516 0.71612 0.91748 0.05200
H 	H 	0.96352 0.84241 0.94444 0.05300
C 	C 	0.87374 0.19273 0.00756 -0.00400
C 	C 	0.93239 0.19909 0.01706 -0.05500
S 	S 	0.86807 0.25220 0.99998 0.02700
H 	H 	0.97657 0.23794 0.00562 0.04800
