data_crystal

_cell_length_a 35.28659
_cell_length_b 35.83634
_cell_length_c 26.51885
_cell_angle_alpha 95.56278
_cell_angle_beta  95.56462
_cell_angle_gamma 125.37312

_symmetry_space_group_name_	'P 1'
_symmetry_space_group_name_H-M	'P 1'

loop_
_symmetry_equiv_pos_as_xyz
  x,y,z

loop_
_atom_site_label
_atom_site_type_symbol
_atom_site_fract_x
_atom_site_fract_y
_atom_site_fract_z
_atom_site_charge
C 	C 	0.97395 0.02115 0.98836 0.03200
C 	C 	0.02187 0.04653 0.98441 -0.07400
C 	C 	0.04288 0.02356 0.97713 0.03400
H 	H 	0.04260 0.08392 0.98648 0.05200
C 	C 	0.00703 0.03076 0.43437 -0.07600
C 	C 	0.03021 0.00970 0.43899 0.03500
H 	H 	0.02677 0.06704 0.43053 0.05200
Cu	Cu	0.64963 0.26384 0.99632 0.92900
Cu	Cu	0.68917 0.26447 0.88958 0.86800
Cu	Cu	0.67589 0.33582 0.92766 0.89700
Cu	Cu	0.65534 0.35396 0.02947 0.89500
C 	C 	0.66670 0.30245 0.10266 0.29100
O 	O 	0.58168 0.24087 0.99481 -0.36200
C 	C 	0.66843 0.30722 0.81705 0.28400
O 	O 	0.69051 0.33652 0.99952 -0.63600
O 	O 	0.64414 0.26760 0.92252 -0.64200
O 	O 	0.67528 0.22689 0.99420 -0.37300
O 	O 	0.73074 0.27416 0.94891 -0.44200
O 	O 	0.64490 0.32072 0.08847 -0.38200
O 	O 	0.71115 0.40280 0.93555 -0.38800
C 	C 	0.70662 0.42975 0.96813 0.29800
C 	C 	0.56511 0.26181 0.97397 0.28300
O 	O 	0.59454 0.30533 0.96856 -0.39700
O 	O 	0.68820 0.41652 0.00984 -0.39700
O 	O 	0.66534 0.27151 0.06965 -0.36100
C 	C 	0.71564 0.24323 0.97904 0.29100
O 	O 	0.66558 0.33341 0.85295 -0.37700
O 	O 	0.66349 0.26912 0.82562 -0.41900
H 	H 	0.72472 0.35598 0.01453 0.16300
H 	H 	0.61157 0.24790 0.90197 0.17400
Cu	Cu	0.72964 0.34045 0.42805 0.92800
Cu	Cu	0.72692 0.30080 0.53478 0.86600
Cu	Cu	0.65666 0.31653 0.49651 0.89600
Cu	Cu	0.64180 0.34066 0.39586 0.89400
C 	C 	0.69304 0.32769 0.32132 0.29000
O 	O 	0.75729 0.40857 0.43003 -0.36400
C 	C 	0.68512 0.32335 0.60726 0.28400
O 	O 	0.65615 0.30322 0.42458 -0.64100
O 	O 	0.72571 0.34619 0.50188 -0.64200
O 	O 	0.76389 0.31166 0.42948 -0.37300
O 	O 	0.71454 0.25857 0.47534 -0.44300
O 	O 	0.67472 0.34934 0.33612 -0.38400
O 	O 	0.58873 0.28306 0.48792 -0.38500
C 	C 	0.56165 0.28465 0.45137 0.29200
C 	C 	0.73766 0.42700 0.45015 0.28300
O 	O 	0.69360 0.39973 0.45651 -0.39400
O 	O 	0.57981 0.31339 0.41840 -0.39400
O 	O 	0.72135 0.32507 0.35469 -0.36000
C 	C 	0.74550 0.27170 0.44481 0.29100
O 	O 	0.65858 0.32611 0.57121 -0.37700
O 	O 	0.72336 0.32734 0.59860 -0.41900
H 	H 	0.63524 0.26972 0.40858 0.16500
H 	H 	0.74631 0.37823 0.52251 0.17500
C 	C 	0.66849 0.31595 0.76396 -0.07800
C 	C 	0.63141 0.28111 0.72422 -0.02300
C 	C 	0.63500 0.28468 0.67253 0.03500
C 	C 	0.67624 0.32343 0.66034 -0.07900
C 	C 	0.71168 0.35990 0.70007 -0.02300
C 	C 	0.70796 0.35645 0.75177 0.03400
S 	S 	0.58860 0.23941 0.62353 -0.06700
S 	S 	0.75390 0.40216 0.80077 -0.06700
H 	H 	0.74349 0.43252 0.81538 0.04600
H 	H 	0.55789 0.24976 0.60867 0.04700
H 	H 	0.60046 0.25046 0.73351 0.04300
H 	H 	0.74290 0.39028 0.69078 0.04200
C 	C 	0.68105 0.30695 0.15811 -0.07600
C 	C 	0.65487 0.26831 0.18188 -0.01900
C 	C 	0.66074 0.27418 0.23577 0.03500
C 	C 	0.69327 0.31903 0.26615 -0.07400
C 	C 	0.72227 0.35690 0.24249 -0.02000
C 	C 	0.71638 0.35108 0.18869 0.03700
S 	S 	0.62619 0.22543 0.26465 -0.06300
S 	S 	0.75321 0.39931 0.16000 -0.07300
H 	H 	0.79215 0.40130 0.15242 0.03600
H 	H 	0.65029 0.20705 0.27552 0.04200
H 	H 	0.62835 0.23411 0.15845 0.04900
H 	H 	0.74826 0.39123 0.26592 0.04700
C 	C 	0.76263 0.47801 0.45864 -0.09100
C 	C 	0.79903 0.50545 0.43173 0.01700
C 	C 	0.74762 0.49893 0.49042 0.01500
H 	H 	0.81114 0.48995 0.40718 0.03700
H 	H 	0.72020 0.47847 0.51213 0.03200
C 	C 	0.93461 0.02795 0.43212 -0.00700
C 	C 	0.89920 0.01371 0.38957 -0.03100
C 	C 	0.87806 0.03673 0.38605 -0.04900
C 	C 	0.89218 0.07404 0.42503 0.02500
C 	C 	0.92717 0.08796 0.46776 -0.04900
C 	C 	0.94831 0.06500 0.47134 -0.03100
C 	C 	0.87097 0.09824 0.42119 -0.02400
C 	C 	0.85372 0.11900 0.41879 -0.00700
C 	C 	0.83391 0.14373 0.41706 -0.00000
C 	C 	0.81723 0.16509 0.41660 -0.03400
C 	C 	0.79747 0.19078 0.41741 0.04500
C 	C 	0.75060 0.16902 0.42395 -0.07600
C 	C 	0.73294 0.19508 0.43066 0.01700
C 	C 	0.76214 0.24324 0.43106 -0.09900
C 	C 	0.80849 0.26455 0.42222 0.01800
C 	C 	0.82608 0.23839 0.41556 -0.07500
H 	H 	0.85095 0.02570 0.35295 0.04300
H 	H 	0.93813 0.11667 0.49812 0.04200
H 	H 	0.97546 0.07612 0.50443 0.03700
H 	H 	0.72816 0.13214 0.42503 0.04800
H 	H 	0.69685 0.17799 0.43647 0.02700
H 	H 	0.83140 0.30160 0.42225 0.03200
H 	H 	0.86231 0.25540 0.41027 0.05000
C 	C 	0.51039 0.25815 0.45157 -0.09000
C 	C 	0.48727 0.21806 0.47380 0.01800
C 	C 	0.43865 0.19270 0.47332 -0.07300
C 	C 	0.41280 0.20716 0.45067 0.04600
C 	C 	0.43572 0.24719 0.42873 -0.07300
C 	C 	0.48428 0.27263 0.42917 0.01800
C 	C 	0.36265 0.18080 0.44959 -0.03300
C 	C 	0.32066 0.15909 0.44840 0.00100
C 	C 	0.27149 0.13394 0.44670 -0.00600
C 	C 	0.22948 0.11258 0.44510 -0.02400
C 	C 	0.17929 0.08713 0.44313 0.02500
C 	C 	0.14740 0.04948 0.40269 -0.04900
C 	C 	0.09867 0.02450 0.40099 -0.03100
C 	C 	0.08154 0.03703 0.43978 -0.00700
C 	C 	0.11354 0.07495 0.48006 -0.03100
C 	C 	0.16226 0.09991 0.48170 -0.04900
H 	H 	0.50680 0.20629 0.49101 0.03000
H 	H 	0.42111 0.16176 0.49038 0.04900
H 	H 	0.41593 0.25862 0.41129 0.05000
H 	H 	0.50159 0.30371 0.41236 0.03300
H 	H 	0.16034 0.03949 0.37267 0.04300
H 	H 	0.10066 0.08477 0.51028 0.03700
H 	H 	0.18672 0.12902 0.51304 0.04300
C 	C 	0.76819 0.50198 0.93839 0.02000
C 	C 	0.72817 0.47820 0.96162 -0.09100
C 	C 	0.71001 0.50159 0.98082 0.02000
H 	H 	0.78257 0.48442 0.92333 0.03200
H 	H 	0.67874 0.48350 0.99805 0.03000
C 	C 	0.74245 0.22471 0.99288 -0.09700
C 	C 	0.71874 0.17875 0.00135 0.01600
C 	C 	0.74335 0.15941 0.00817 -0.07500
C 	C 	0.79177 0.18588 0.00677 0.04600
C 	C 	0.81594 0.23236 0.00072 -0.07900
C 	C 	0.79144 0.25176 0.99386 0.02100
C 	C 	0.81585 0.16438 0.00743 -0.03500
C 	C 	0.83644 0.14683 0.00794 0.00000
C 	C 	0.86064 0.12637 0.00713 -0.00900
C 	C 	0.88128 0.10892 0.00534 -0.02300
C 	C 	0.90586 0.08805 0.00195 0.02000
C 	C 	0.90905 0.06616 0.04146 -0.04600
C 	C 	0.93174 0.04471 0.03733 -0.03700
C 	C 	0.95132 0.04501 0.99359 -0.00200
C 	C 	0.94840 0.06729 0.95430 -0.03400
C 	C 	0.92577 0.08875 0.95851 -0.04300
H 	H 	0.68102 0.15751 0.00092 0.03200
H 	H 	0.72449 0.12351 0.01313 0.04900
H 	H 	0.85348 0.25314 0.00005 0.04800
H 	H 	0.81037 0.28752 0.98837 0.02700
H 	H 	0.89378 0.06553 0.07518 0.04200
H 	H 	0.96323 0.06755 0.92031 0.03800
H 	H 	0.92341 0.10560 0.92782 0.04200
C 	C 	0.51353 0.23845 0.96273 -0.09100
C 	C 	0.48170 0.18983 0.95789 0.01800
C 	C 	0.43319 0.16837 0.95357 -0.07300
C 	C 	0.41610 0.19523 0.95378 0.04600
C 	C 	0.44743 0.24339 0.95620 -0.07300
C 	C 	0.49594 0.26496 0.96057 0.01700
C 	C 	0.36696 0.17391 0.95493 -0.03200
C 	C 	0.32585 0.15619 0.95590 0.00100
C 	C 	0.27789 0.13553 0.95792 -0.00500
C 	C 	0.23699 0.11775 0.96020 -0.02400
C 	C 	0.18816 0.09614 0.96340 0.02800
C 	C 	0.15233 0.06374 0.92142 -0.04900
C 	C 	0.10483 0.04075 0.92552 -0.03200
C 	C 	0.09289 0.04999 0.97171 -0.00400
C 	C 	0.12883 0.08312 0.01337 -0.03400
C 	C 	0.17634 0.10611 0.00921 -0.05100
H 	H 	0.49457 0.16877 0.95842 0.03200
H 	H 	0.40906 0.13101 0.95118 0.05000
H 	H 	0.43437 0.26430 0.95599 0.05000
H 	H 	0.51991 0.30242 0.96388 0.02900
H 	H 	0.16124 0.05595 0.88585 0.04300
H 	H 	0.11996 0.09047 0.04919 0.03700
H 	H 	0.20389 0.13118 0.04180 0.04300
H 	H 	0.93398 0.02775 0.06795 0.03700
H 	H 	0.07731 0.01541 0.89306 0.03700
C 	C 	0.95841 0.00509 0.43490 0.03300
C 	C 	0.76726 0.54616 0.49336 -0.07300
C 	C 	0.73249 0.54856 0.97835 -0.07400
C 	C 	0.79063 0.54902 0.93601 -0.07400
C 	C 	0.81862 0.55265 0.43480 -0.07300
H 	H 	0.84587 0.57323 0.41294 0.05000
C 	C 	0.01602 0.97522 0.97437 -0.07600
C 	C 	0.96813 0.94972 0.97827 0.03200
C 	C 	0.94716 0.97275 0.98540 -0.07600
H 	H 	0.03233 0.95748 0.96916 0.05100
H 	H 	0.90997 0.95298 0.98779 0.05100
C 	C 	0.00462 0.96278 0.44382 -0.07700
C 	C 	0.95600 0.93693 0.44426 0.03300
C 	C 	0.93287 0.95806 0.43958 -0.07700
H 	H 	0.02254 0.94650 0.44758 0.05100
H 	H 	0.89536 0.93823 0.44036 0.05100
C 	C 	0.80217 0.57288 0.46484 0.04500
C 	C 	0.81958 0.62045 0.46443 -0.03200
C 	C 	0.83448 0.66029 0.46370 0.00000
C 	C 	0.85209 0.70689 0.46214 -0.00700
C 	C 	0.86746 0.74671 0.46040 -0.02400
C 	C 	0.88645 0.79438 0.45803 0.02500
C 	C 	0.87435 0.80545 0.41283 -0.04900
C 	C 	0.89580 0.85206 0.40897 -0.03200
C 	C 	0.92956 0.88784 0.45028 -0.00700
C 	C 	0.94052 0.87660 0.49608 -0.03100
C 	C 	0.91904 0.83001 0.49990 -0.04900
H 	H 	0.75471 0.56172 0.51709 0.05000
H 	H 	0.84906 0.77806 0.38036 0.04300
H 	H 	0.88711 0.86039 0.37347 0.03700
H 	H 	0.96635 0.90399 0.52828 0.03700
H 	H 	0.92841 0.82170 0.53503 0.04300
H 	H 	0.88846 0.98521 0.35905 0.03600
H 	H 	0.07425 0.99537 0.36966 0.03700
C 	C 	0.93977 0.89874 0.97406 -0.00400
C 	C 	0.93274 0.87051 0.92831 -0.03200
C 	C 	0.90748 0.82237 0.92500 -0.04900
C 	C 	0.88903 0.80214 0.96733 0.02800
C 	C 	0.89551 0.83018 0.01286 -0.05100
C 	C 	0.92080 0.87836 0.01624 -0.03400
C 	C 	0.86412 0.75272 0.96432 -0.02400
C 	C 	0.84326 0.71135 0.96175 -0.00600
C 	C 	0.81893 0.66296 0.95912 0.00100
C 	C 	0.79812 0.62169 0.95750 -0.03200
C 	C 	0.77316 0.57252 0.95657 0.04700
H 	H 	0.94707 0.88592 0.89547 0.03700
H 	H 	0.90249 0.80087 0.88965 0.04300
H 	H 	0.88128 0.81474 0.04572 0.04300
H 	H 	0.92613 0.89988 0.05175 0.03700
H 	H 	0.82200 0.56733 0.91894 0.05000
H 	H 	0.71863 0.56647 0.99401 0.05000
