data_crystal

_cell_length_a 24.00582
_cell_length_b 19.89268
_cell_length_c 45.65881
_cell_angle_alpha 89.89299
_cell_angle_beta  89.89547
_cell_angle_gamma 119.52323

_symmetry_space_group_name_	'P 1'
_symmetry_space_group_name_H-M	'P 1'

loop_
_symmetry_equiv_pos_as_xyz
  x,y,z

loop_
_atom_site_label
_atom_site_type_symbol
_atom_site_fract_x
_atom_site_fract_y
_atom_site_fract_z
_atom_site_charge
C 	C 	0.63644 0.33031 0.86263 0.33600
C 	C 	0.83792 0.59207 0.92552 0.36300
C 	C 	0.80945 0.45572 0.84366 0.35700
C 	C 	0.67190 0.47377 0.95069 0.29600
C 	C 	0.87523 0.40856 0.92401 0.31300
C 	C 	0.69637 0.25617 0.94404 0.28900
Ni	Ni	0.73055 0.48293 0.88853 1.12100
Ni	Ni	0.77220 0.43058 0.94818 1.12400
Ni	Ni	0.75661 0.33794 0.88915 1.12900
O 	O 	0.64331 0.39460 0.87468 -0.35200
O 	O 	0.68625 0.31828 0.85884 -0.32400
O 	O 	0.86121 0.45565 0.93803 -0.37400
O 	O 	0.82297 0.56498 0.89896 -0.38000
O 	O 	0.80762 0.54778 0.94812 -0.37300
O 	O 	0.69600 0.25104 0.91502 -0.37300
O 	O 	0.76367 0.47312 0.84698 -0.32400
O 	O 	0.82443 0.42486 0.86525 -0.38300
O 	O 	0.74188 0.31741 0.95819 -0.37100
O 	O 	0.69225 0.51199 0.92521 -0.35200
O 	O 	0.68787 0.42189 0.95916 -0.38200
O 	O 	0.82984 0.34338 0.91295 -0.36500
O 	O 	0.73737 0.40638 0.90983 -0.71900
H 	H 	0.69209 0.37064 0.91454 0.16100
C 	C 	0.72830 0.36473 0.48712 0.28500
C 	C 	0.60695 0.15828 0.58691 0.30100
C 	C 	0.55948 0.28549 0.51697 0.31200
C 	C 	0.77789 0.24811 0.55863 0.32600
C 	C 	0.62434 0.37724 0.60129 0.35800
C 	C 	0.79917 0.48959 0.57586 0.34500
Ni	Ni	0.65636 0.23437 0.52975 1.11400
Ni	Ni	0.71410 0.31965 0.59162 1.13200
Ni	Ni	0.67996 0.40665 0.54200 1.12800
O 	O 	0.71633 0.29480 0.49536 -0.36700
O 	O 	0.69541 0.39712 0.49808 -0.35900
O 	O 	0.63738 0.32196 0.60748 -0.38300
O 	O 	0.58997 0.17817 0.56268 -0.37600
O 	O 	0.66446 0.20269 0.59754 -0.35200
O 	O 	0.77226 0.48231 0.54980 -0.38800
O 	O 	0.58729 0.24790 0.50651 -0.36500
O 	O 	0.58505 0.33390 0.53858 -0.35400
O 	O 	0.77195 0.43577 0.59673 -0.33900
O 	O 	0.72050 0.20064 0.54708 -0.34200
O 	O 	0.78618 0.30296 0.57764 -0.34700
O 	O 	0.65878 0.43135 0.58200 -0.35300
O 	O 	0.69753 0.32637 0.55123 -0.72100
H 	H 	0.74131 0.34941 0.54326 0.16100
C 	C 	0.21169 0.17405 0.77677 0.33900
C 	C 	0.01285 0.94810 0.70123 0.35800
C 	C 	0.21121 0.16005 0.70301 0.36000
C 	C 	0.00022 0.97047 0.78585 0.37000
C 	C 	0.03605 0.16480 0.68512 0.36200
C 	C 	0.02289 0.21461 0.76260 0.34600
Ni	Ni	0.11536 0.03848 0.74433 1.12200
Ni	Ni	0.99032 0.05856 0.73551 1.12100
Ni	Ni	0.12956 0.20817 0.73351 1.12900
O 	O 	0.16466 0.10251 0.78025 -0.34800
O 	O 	0.20431 0.22634 0.76112 -0.36100
O 	O 	0.00225 0.09225 0.69342 -0.36200
O 	O 	0.07485 0.98553 0.70503 -0.30300
O 	O 	0.97509 0.95450 0.72053 -0.34200
O 	O 	0.08462 0.23575 0.76437 -0.35900
O 	O 	0.20144 0.10501 0.72172 -0.31000
O 	O 	0.16820 0.18135 0.69935 -0.37200
O 	O 	0.98011 0.14957 0.74936 -0.36900
O 	O 	0.03728 0.95519 0.76856 -0.32100
O 	O 	0.97185 0.00904 0.77591 -0.38700
O 	O 	0.07175 0.21889 0.70402 -0.35600
O 	O 	0.07888 0.10336 0.74461 -0.72200
H 	H 	0.07661 0.11124 0.76578 0.16200
C 	C 	0.16671 0.68047 0.45561 0.33300
C 	C 	0.25935 0.45833 0.47904 0.31100
C 	C 	0.32464 0.70908 0.49059 0.31400
C 	C 	0.10326 0.43364 0.44629 0.28700
C 	C 	0.36959 0.63164 0.41055 0.35700
C 	C 	0.21446 0.59022 0.37430 0.33600
Ni	Ni	0.20180 0.56339 0.48170 1.11800
Ni	Ni	0.23643 0.50474 0.42138 1.12600
Ni	Ni	0.28029 0.68285 0.42873 1.12700
O 	O 	0.18006 0.65421 0.48007 -0.34100
O 	O 	0.20455 0.70028 0.43217 -0.36400
O 	O 	0.32105 0.56771 0.40020 -0.33600
O 	O 	0.21450 0.46873 0.49126 -0.35300
O 	O 	0.28644 0.49304 0.45451 -0.37900
O 	O 	0.26305 0.65490 0.38520 -0.34200
O 	O 	0.29383 0.63513 0.49656 -0.37000
O 	O 	0.30656 0.73622 0.46846 -0.35600
O 	O 	0.19373 0.52198 0.38705 -0.38500
O 	O 	0.11147 0.48043 0.46847 -0.36000
O 	O 	0.14999 0.42035 0.43759 -0.36000
O 	O 	0.35994 0.67457 0.42938 -0.39200
O 	O 	0.22558 0.58035 0.44187 -0.71700
H 	H 	0.18524 0.57188 0.43307 0.15200
C 	C 	0.39547 0.54963 0.08146 0.29300
C 	C 	0.21192 0.61609 0.14482 0.36700
C 	C 	0.21134 0.44202 0.08268 0.36700
C 	C 	0.39461 0.71629 0.14581 0.34100
C 	C 	0.21554 0.64771 0.04879 0.31900
C 	C 	0.38980 0.76667 0.04897 0.30000
Ni	Ni	0.30058 0.55864 0.12454 1.12200
Ni	Ni	0.30303 0.71301 0.09957 1.12600
Ni	Ni	0.30420 0.59102 0.05482 1.12400
O 	O 	0.35153 0.51271 0.10230 -0.35100
O 	O 	0.38410 0.58295 0.05875 -0.36900
O 	O 	0.25367 0.71143 0.06314 -0.37000
O 	O 	0.25069 0.59125 0.15366 -0.34900
O 	O 	0.21710 0.64386 0.11838 -0.36000
O 	O 	0.35256 0.69876 0.03581 -0.37600
O 	O 	0.21387 0.47906 0.10665 -0.34300
O 	O 	0.25679 0.47479 0.06289 -0.37600
O 	O 	0.38380 0.77799 0.07715 -0.35600
O 	O 	0.38096 0.64316 0.14519 -0.35300
O 	O 	0.35081 0.73657 0.13898 -0.35800
O 	O 	0.21921 0.58527 0.05309 -0.37600
O 	O 	0.31927 0.62958 0.09373 -0.71700
H 	H 	0.36641 0.65731 0.09396 0.17500
C 	C 	0.80326 0.89285 0.31552 0.33700
C 	C 	0.00001 0.06065 0.22265 0.35900
C 	C 	0.80450 0.86504 0.24128 0.35700
C 	C 	0.01411 0.13640 0.29622 0.35200
C 	C 	0.98476 0.84426 0.24775 0.37000
C 	C 	0.99590 0.89944 0.32949 0.33600
Ni	Ni	0.89699 0.00973 0.26881 1.11800
Ni	Ni	0.02483 0.99493 0.27613 1.14000
Ni	Ni	0.88757 0.84571 0.28597 1.13000
O 	O 	0.81620 0.95034 0.29658 -0.28900
O 	O 	0.84268 0.86489 0.31953 -0.37100
O 	O 	0.02693 0.89811 0.26497 -0.35500
O 	O 	0.96655 0.08212 0.23902 -0.37400
O 	O 	0.01785 0.01222 0.23271 -0.37100
O 	O 	0.95307 0.84123 0.31321 -0.34700
O 	O 	0.85459 0.93135 0.23556 -0.33400
O 	O 	0.80697 0.82089 0.26219 -0.36100
O 	O 	0.03351 0.96922 0.31798 -0.32000
O 	O 	0.95122 0.09396 0.29902 -0.36300
O 	O 	0.05007 0.10763 0.28570 -0.35400
O 	O 	0.92360 0.82249 0.25009 -0.34500
O 	O 	0.93604 0.95567 0.28334 -0.71000
H 	H 	0.93817 0.96966 0.30416 0.17600
C 	C 	0.04479 0.09926 0.14252 -0.12600
C 	C 	0.07076 0.17970 0.14130 0.00900
C 	C 	0.07575 0.22087 0.16704 0.29500
C 	C 	0.05362 0.18180 0.19359 -0.05500
C 	C 	0.02675 0.10131 0.19485 -0.13600
C 	C 	0.02293 0.06004 0.16925 0.34600
C 	C 	0.09522 0.22188 0.11347 0.01200
F 	F 	0.10264 0.29899 0.16628 -0.41200
H 	H 	0.05746 0.21416 0.21328 0.10400
F 	F 	0.99682 0.98204 0.17015 -0.40200
H 	H 	0.04142 0.06723 0.12281 0.12100
C 	C 	0.15713 0.24148 0.10407 0.29000
C 	C 	0.19326 0.30934 0.08794 -0.05500
C 	C 	0.16810 0.35834 0.08202 -0.14500
C 	C 	0.10218 0.32989 0.08580 0.38100
C 	C 	0.06561 0.26128 0.10144 -0.13500
F 	F 	0.18491 0.20032 0.11360 -0.42200
H 	H 	0.24306 0.32841 0.08330 0.09300
F 	F 	0.07561 0.37358 0.07775 -0.43000
H 	H 	0.01650 0.24392 0.10714 0.12400
C 	C 	0.66936 0.89819 0.21742 -0.13900
C 	C 	0.62715 0.82689 0.20485 0.02100
C 	C 	0.64141 0.76630 0.20573 0.29300
C 	C 	0.69852 0.77794 0.21849 -0.04700
C 	C 	0.74186 0.85024 0.23018 -0.14400
C 	C 	0.72639 0.91000 0.23007 0.38100
C 	C 	0.56910 0.81649 0.18989 0.01400
F 	F 	0.60036 0.69663 0.19389 -0.41300
H 	H 	0.70970 0.73140 0.21866 0.10400
F 	F 	0.76681 0.97961 0.24213 -0.44600
H 	H 	0.65831 0.94484 0.21708 0.13500
C 	C 	0.51279 0.79512 0.20586 0.30100
C 	C 	0.45539 0.77355 0.19110 -0.05000
C 	C 	0.45382 0.77172 0.16036 -0.13300
C 	C 	0.51159 0.80222 0.14464 0.36800
C 	C 	0.56898 0.82390 0.15936 -0.13600
F 	F 	0.51292 0.79096 0.23553 -0.40200
H 	H 	0.41123 0.75159 0.20347 0.11000
F 	F 	0.51110 0.80339 0.11491 -0.44900
H 	H 	0.61278 0.84290 0.14696 0.12000
C 	C 	0.06747 0.62343 0.17139 -0.14100
C 	C 	0.09365 0.67413 0.19509 0.01800
C 	C 	0.15424 0.69190 0.20579 0.30800
C 	C 	0.19079 0.66530 0.19105 -0.05000
C 	C 	0.16715 0.62114 0.16551 -0.13500
C 	C 	0.10391 0.59664 0.15673 0.38200
C 	C 	0.06130 0.71562 0.20629 0.02000
F 	F 	0.17903 0.73838 0.22948 -0.39700
H 	H 	0.23911 0.68347 0.19830 0.10900
F 	F 	0.07914 0.55036 0.13299 -0.42500
H 	H 	0.02010 0.60782 0.16346 0.12300
C 	C 	0.08488 0.79367 0.19902 0.30500
C 	C 	0.05682 0.83440 0.21112 -0.04500
C 	C 	0.00477 0.79753 0.23044 -0.13400
C 	C 	0.97910 0.71836 0.23653 0.38500
C 	C 	0.00736 0.67763 0.22448 -0.14500
F 	F 	0.13581 0.83037 0.18068 -0.40200
H 	H 	0.07671 0.89528 0.20617 0.12100
F 	F 	0.92893 0.68193 0.25529 -0.42900
H 	H 	0.98832 0.61712 0.22984 0.13500
C 	C 	0.65006 0.85770 0.35284 -0.12800
C 	C 	0.62015 0.77779 0.35804 0.01700
C 	C 	0.65074 0.73632 0.34960 0.29800
C 	C 	0.71043 0.77421 0.33581 -0.05400
C 	C 	0.74057 0.85416 0.33050 -0.12500
C 	C 	0.71014 0.89592 0.33918 0.37800
C 	C 	0.55633 0.73733 0.37190 0.01900
F 	F 	0.62254 0.65917 0.35477 -0.41100
H 	H 	0.73304 0.74122 0.32896 0.10100
F 	F 	0.73910 0.97346 0.33488 -0.40900
H 	H 	0.62671 0.89010 0.35936 0.13500
C 	C 	0.54895 0.74872 0.40165 0.29100
C 	C 	0.48827 0.71069 0.41462 -0.05500
C 	C 	0.43428 0.66121 0.39796 -0.13900
C 	C 	0.44224 0.64752 0.36840 0.38100
C 	C 	0.50296 0.68585 0.35546 -0.13200
F 	F 	0.60056 0.79678 0.41797 -0.41200
H 	H 	0.48301 0.72065 0.43753 0.09800
F 	F 	0.39111 0.59873 0.35200 -0.39700
H 	H 	0.50850 0.67603 0.33257 0.14400
C 	C 	0.12497 0.34145 0.31987 -0.14600
C 	C 	0.10586 0.38282 0.30130 0.00800
C 	C 	0.05595 0.34266 0.28130 0.31000
C 	C 	0.02468 0.26185 0.28035 -0.05500
C 	C 	0.04358 0.22064 0.29909 -0.13700
C 	C 	0.09434 0.26083 0.31861 0.37400
C 	C 	0.13360 0.46701 0.30532 0.02500
F 	F 	0.03762 0.38182 0.26291 -0.39400
H 	H 	0.98646 0.23129 0.26473 0.10000
F 	F 	0.11346 0.22172 0.33662 -0.43300
H 	H 	0.16282 0.37185 0.33568 0.11800
C 	C 	0.09779 0.49497 0.32013 0.29800
C 	C 	0.12917 0.55854 0.33882 -0.06000
C 	C 	0.19486 0.58926 0.34391 -0.12800
C 	C 	0.23095 0.57842 0.32211 0.38000
C 	C 	0.20029 0.51501 0.30329 -0.14400
F 	F 	0.03289 0.45468 0.31956 -0.40800
H 	H 	0.10120 0.57398 0.35310 0.08800
F 	F 	0.29581 0.61881 0.32305 -0.39300
H 	H 	0.22856 0.49795 0.28994 0.13400
C 	C 	0.09090 0.86836 0.38835 -0.14200
C 	C 	0.04216 0.82062 0.40800 0.00700
C 	C 	0.97965 0.80754 0.40366 0.31600
C 	C 	0.96521 0.83691 0.37865 -0.05600
C 	C 	0.01328 0.88071 0.35810 -0.12400
C 	C 	0.07665 0.89834 0.36356 0.37900
C 	C 	0.05545 0.77700 0.43063 0.02400
F 	F 	0.93257 0.76436 0.42314 -0.39800
H 	H 	0.91635 0.82393 0.37486 0.10600
F 	F 	0.12372 0.94048 0.34392 -0.41400
H 	H 	0.13933 0.87915 0.39156 0.12400
C 	C 	0.02989 0.69681 0.42763 0.28900
C 	C 	0.06110 0.66050 0.44046 -0.06400
C 	C 	0.11772 0.70408 0.45632 -0.13800
C 	C 	0.13582 0.78058 0.46381 0.37600
C 	C 	0.10486 0.81710 0.45088 -0.15100
F 	F 	0.97869 0.65566 0.41002 -0.41700
H 	H 	0.04525 0.60051 0.43545 0.07200
F 	F 	0.18822 0.82222 0.48071 -0.42900
H 	H 	0.12303 0.87822 0.45449 0.12700
C 	C 	0.46390 0.96862 0.59155 -0.00800
C 	C 	0.48878 0.92670 0.57720 -0.01000
C 	C 	0.55503 0.95341 0.57871 0.04700
C 	C 	0.59628 0.02881 0.58818 -0.05700
C 	C 	0.57135 0.07695 0.59586 -0.05000
C 	C 	0.50560 0.04302 0.60192 0.00900
C 	C 	0.44911 0.86805 0.55524 0.03300
S 	S 	0.58671 0.89454 0.56740 0.03100
H 	H 	0.64753 0.05235 0.58663 0.10300
S 	S 	0.47645 0.09030 0.62453 0.00900
H 	H 	0.41259 0.94552 0.59300 0.06400
C 	C 	0.39731 0.79637 0.56380 -0.01000
C 	C 	0.35724 0.74482 0.54249 0.01300
C 	C 	0.36953 0.76294 0.51254 -0.08100
C 	C 	0.42414 0.83248 0.50401 0.06600
C 	C 	0.46223 0.88554 0.52535 -0.06700
S 	S 	0.38336 0.76947 0.60098 0.01800
H 	H 	0.31624 0.69073 0.54924 0.05300
S 	S 	0.44816 0.85139 0.46704 -0.00000
H 	H 	0.50275 0.94024 0.51873 0.07000
H 	H 	0.43152 0.10120 0.61024 0.04200
H 	H 	0.41810 0.73443 0.60867 0.05400
H 	H 	0.42087 0.89046 0.45421 0.05800
H 	H 	0.58727 0.85140 0.59070 0.06000
C 	C 	0.88053 0.46338 0.44766 -0.04900
C 	C 	0.86909 0.40201 0.42897 0.01700
C 	C 	0.80567 0.34916 0.42112 0.00000
C 	C 	0.75500 0.34904 0.43644 0.00600
C 	C 	0.76792 0.39779 0.46074 -0.07000
C 	C 	0.82987 0.46166 0.46353 0.05100
C 	C 	0.92040 0.38239 0.42464 0.02500
S 	S 	0.78941 0.28015 0.39362 0.01200
H 	H 	0.70628 0.30414 0.43219 0.05400
S 	S 	0.84532 0.53657 0.48816 0.02800
H 	H 	0.92926 0.50801 0.45206 0.07100
C 	C 	0.96958 0.42313 0.40415 -0.00900
C 	C 	0.02903 0.42698 0.40784 0.00500
C 	C 	0.04002 0.39290 0.43250 -0.07900
C 	C 	0.98720 0.33980 0.44924 0.06300
C 	C 	0.92753 0.33500 0.44536 -0.06600
S 	S 	0.95804 0.47177 0.37463 0.06400
H 	H 	0.06850 0.46370 0.39355 0.05100
S 	S 	0.99687 0.28510 0.47706 -0.00100
H 	H 	0.88835 0.29969 0.46010 0.06500
H 	H 	0.87277 0.52690 0.51293 0.05300
H 	H 	0.98534 0.54874 0.38096 0.07300
H 	H 	0.01256 0.32601 0.50270 0.07100
H 	H 	0.78710 0.31066 0.36702 0.06200
C 	C 	0.36762 0.39843 0.51511 -0.06700
C 	C 	0.34893 0.32861 0.50047 0.02100
C 	C 	0.29111 0.29353 0.48469 -0.00300
C 	C 	0.25642 0.33262 0.48108 0.00600
C 	C 	0.27953 0.40694 0.49268 -0.08300
C 	C 	0.33328 0.43781 0.51123 0.06300
C 	C 	0.39351 0.29736 0.49929 0.02300
S 	S 	0.26344 0.20272 0.46818 0.00100
H 	H 	0.21407 0.30773 0.46741 0.05200
S 	S 	0.36006 0.52776 0.52837 -0.00300
H 	H 	0.41078 0.42406 0.52824 0.07900
C 	C 	0.44268 0.32424 0.47806 -0.00300
C 	C 	0.49370 0.30950 0.48151 0.00700
C 	C 	0.49643 0.26914 0.50617 -0.08100
C 	C 	0.44287 0.23323 0.52493 0.07400
C 	C 	0.39211 0.24840 0.52170 -0.06200
S 	S 	0.44254 0.37965 0.44798 0.00700
H 	H 	0.53380 0.33505 0.46639 0.05300
S 	S 	0.44086 0.17311 0.55361 -0.02000
H 	H 	0.35309 0.22508 0.53741 0.06900
H 	H 	0.32984 0.51686 0.55486 0.05700
H 	H 	0.47109 0.45586 0.45590 0.05600
H 	H 	0.47130 0.21768 0.57749 0.05900
H 	H 	0.28987 0.21279 0.44079 0.05200
C 	C 	0.86538 0.14547 0.57879 -0.14900
C 	C 	0.92692 0.20962 0.58156 0.00900
C 	C 	0.94180 0.27799 0.56640 0.30700
C 	C 	0.89263 0.28701 0.55398 -0.05900
C 	C 	0.82881 0.22755 0.55656 -0.13400
C 	C 	0.81652 0.15413 0.56587 0.37200
C 	C 	0.96915 0.21072 0.60529 0.01700
F 	F 	0.00261 0.33822 0.56634 -0.41100
H 	H 	0.90331 0.34259 0.54502 0.09500
F 	F 	0.75628 0.09307 0.56496 -0.45000
H 	H 	0.85412 0.09087 0.58889 0.11700
C 	C 	0.98054 0.25878 0.62973 0.30300
C 	C 	0.00731 0.24755 0.65513 -0.05900
C 	C 	0.02187 0.18749 0.65661 -0.13300
C 	C 	0.01487 0.14313 0.63153 0.37300
C 	C 	0.98889 0.15503 0.60593 -0.14800
F 	F 	0.96132 0.31254 0.62961 -0.39500
H 	H 	0.01297 0.28247 0.67426 0.13000
F 	F 	0.03121 0.08682 0.63229 -0.41200
H 	H 	0.98121 0.11849 0.58708 0.12200
C 	C 	0.36325 0.20501 0.66276 -0.13800
C 	C 	0.39203 0.28549 0.65966 0.01200
C 	C 	0.36085 0.32433 0.67031 0.29800
C 	C 	0.30161 0.28305 0.68431 -0.05300
C 	C 	0.27305 0.20259 0.68778 -0.13600
C 	C 	0.30402 0.16361 0.67681 0.38100
C 	C 	0.45592 0.32902 0.64637 0.01700
F 	F 	0.38845 0.40221 0.66748 -0.41000
H 	H 	0.27829 0.31370 0.69287 0.09300
F 	F 	0.27633 0.08566 0.67936 -0.41800
H 	H 	0.38705 0.17471 0.65441 0.11500
C 	C 	0.51004 0.34142 0.66230 0.29500
C 	C 	0.56855 0.36755 0.64798 -0.05100
C 	C 	0.57318 0.38066 0.61764 -0.14000
C 	C 	0.52112 0.37792 0.60255 0.36800
C 	C 	0.46230 0.35096 0.61682 -0.14400
F 	F 	0.50496 0.32374 0.69126 -0.40700
H 	H 	0.60916 0.37221 0.66004 0.10900
F 	F 	0.52619 0.39614 0.57366 -0.44700
H 	H 	0.42103 0.34365 0.60459 0.11700
C 	C 	0.92859 0.64239 0.62167 -0.13300
C 	C 	0.91811 0.70461 0.61610 0.01800
C 	C 	0.87923 0.70084 0.59256 0.29900
C 	C 	0.84565 0.63225 0.57677 -0.05200
C 	C 	0.85004 0.56672 0.58471 -0.13500
C 	C 	0.89498 0.57374 0.60591 0.37800
C 	C 	0.94048 0.76849 0.63718 0.01600
F 	F 	0.87066 0.76185 0.58627 -0.40400
H 	H 	0.81257 0.62834 0.55987 0.10300
F 	F 	0.90328 0.51261 0.61238 -0.41800
H 	H 	0.96022 0.64587 0.63922 0.13400
C 	C 	0.90731 0.75833 0.66364 0.30500
C 	C 	0.92967 0.81806 0.68412 -0.05500
C 	C 	0.98542 0.88842 0.67836 -0.11300
C 	C 	0.01740 0.89934 0.65140 0.37900
C 	C 	0.99498 0.83944 0.63097 -0.12200
F 	F 	0.85378 0.69020 0.66960 -0.40200
H 	H 	0.90462 0.80890 0.70478 0.12500
F 	F 	0.07029 0.96782 0.64510 -0.38200
H 	H 	0.02025 0.84793 0.61040 0.13500
C 	C 	0.07598 0.58904 0.00104 -0.06100
C 	C 	0.10072 0.57279 0.97581 0.02500
C 	C 	0.16752 0.60718 0.97222 -0.00400
C 	C 	0.20791 0.64937 0.99529 0.00300
C 	C 	0.18192 0.65121 0.02265 -0.08700
C 	C 	0.11637 0.62769 0.02459 0.06400
C 	C 	0.05624 0.51571 0.95454 0.02200
S 	S 	0.20082 0.59250 0.94012 0.00100
H 	H 	0.25908 0.67203 0.99316 0.04400
S 	S 	0.08362 0.64002 0.05728 0.01500
H 	H 	0.02487 0.56698 0.00310 0.07000
C 	C 	0.01667 0.43786 0.96288 -0.00700
C 	C 	0.95945 0.39223 0.94772 0.00900
C 	C 	0.94169 0.42472 0.92480 -0.07700
C 	C 	0.98904 0.49431 0.91221 0.06900
C 	C 	0.04488 0.54145 0.92784 -0.05300
S 	S 	0.03687 0.39844 0.99287 0.01100
H 	H 	0.92544 0.33548 0.95608 0.05100
S 	S 	0.97551 0.52673 0.87861 0.04100
H 	H 	0.07726 0.59962 0.92020 0.08200
H 	H 	0.06473 0.57620 0.07468 0.09100
H 	H 	0.01276 0.41158 0.01810 0.06200
H 	H 	0.94440 0.56789 0.88327 0.07400
H 	H 	0.20395 0.52586 0.94296 0.04700
C 	C 	0.62793 0.08488 0.99632 -0.05700
C 	C 	0.56442 0.04383 0.98649 -0.01800
C 	C 	0.54416 0.07461 0.96370 0.00900
C 	C 	0.58679 0.14667 0.95164 -0.00700
C 	C 	0.65087 0.18692 0.96077 -0.07500
C 	C 	0.67179 0.15487 0.98301 0.05100
C 	C 	0.51832 0.97114 0.00146 0.04400
S 	S 	0.46644 0.02185 0.94913 -0.04300
H 	H 	0.57068 0.17035 0.93432 0.05000
S 	S 	0.75306 0.19839 0.99302 -0.01200
H 	H 	0.64358 0.06145 0.01391 0.05200
C 	C 	0.52153 0.90260 0.99790 -0.00700
C 	C 	0.47813 0.83520 0.01289 0.00700
C 	C 	0.43032 0.83488 0.03069 -0.07100
C 	C 	0.42456 0.90209 0.03255 0.05400
C 	C 	0.46999 0.97032 0.01896 -0.03200
S 	S 	0.57867 0.90005 0.97440 0.01300
H 	H 	0.48209 0.78340 0.01098 0.05100
S 	S 	0.35829 0.90018 0.05002 0.00100
H 	H 	0.46666 0.02247 0.02129 0.03900
H 	H 	0.78405 0.17250 0.97493 0.05000
H 	H 	0.63374 0.92051 0.98973 0.05300
H 	H 	0.30883 0.87603 0.03050 0.05700
H 	H 	0.46631 0.97456 0.92732 0.07800
C 	C 	0.49346 0.46521 0.05652 -0.06400
C 	C 	0.54493 0.53286 0.04510 0.01600
C 	C 	0.55596 0.60523 0.05527 0.00200
C 	C 	0.51141 0.60896 0.07400 0.00000
C 	C 	0.45321 0.54201 0.08021 -0.07100
C 	C 	0.44772 0.46949 0.07427 0.05500
C 	C 	0.58158 0.52742 0.02010 0.01700
S 	S 	0.62228 0.69150 0.04285 0.00200
H 	H 	0.51798 0.66488 0.08041 0.06900
S 	S 	0.38289 0.38391 0.08792 0.00300
H 	H 	0.48712 0.40933 0.05024 0.06100
C 	C 	0.64158 0.53253 0.02435 -0.00500
C 	C 	0.67345 0.52227 0.00064 0.00400
C 	C 	0.64452 0.50251 0.97294 -0.07800
C 	C 	0.58534 0.49965 0.96845 0.05300
C 	C 	0.55456 0.51301 0.99197 -0.06400
S 	S 	0.67583 0.54800 0.05949 -0.00300
H 	H 	0.71951 0.52579 0.00404 0.04700
S 	S 	0.54794 0.47601 0.93395 0.00500
H 	H 	0.50863 0.50988 0.98863 0.06300
H 	H 	0.39823 0.36762 0.11491 0.06200
H 	H 	0.65392 0.47833 0.07339 0.04800
H 	H 	0.51117 0.39735 0.93170 0.05500
H 	H 	0.67264 0.71202 0.06157 0.05500
C 	C 	0.98638 0.37785 0.75798 -0.13300
C 	C 	0.94198 0.35852 0.78086 0.01700
C 	C 	0.93032 0.29715 0.79986 0.28800
C 	C 	0.95987 0.25269 0.79486 -0.05400
C 	C 	0.00233 0.27008 0.77131 -0.13700
C 	C 	0.01682 0.33414 0.75331 0.37400
C 	C 	0.90674 0.40138 0.78479 0.01200
F 	F 	0.88956 0.27993 0.82287 -0.42700
H 	H 	0.94855 0.20354 0.80888 0.09500
F 	F 	0.05832 0.35201 0.73057 -0.43300
H 	H 	0.99636 0.42570 0.74348 0.14200
C 	C 	0.93792 0.47634 0.79646 0.29700
C 	C 	0.90199 0.50512 0.81041 -0.05300
C 	C 	0.83597 0.45679 0.81461 -0.12700
C 	C 	0.80426 0.39029 0.79722 0.37500
C 	C 	0.83974 0.36207 0.78256 -0.12700
F 	F 	0.00282 0.51791 0.79689 -0.41400
H 	H 	0.92647 0.56034 0.82146 0.09800
F 	F 	0.73958 0.34673 0.79834 -0.39900
H 	H 	0.81513 0.30621 0.77196 0.12800
C 	C 	0.51424 0.28601 0.80483 -0.13600
C 	C 	0.45816 0.24091 0.82093 0.01700
C 	C 	0.46180 0.21180 0.84846 0.29300
C 	C 	0.52156 0.23307 0.86077 -0.06100
C 	C 	0.57793 0.28409 0.84579 -0.12500
C 	C 	0.57395 0.30744 0.81715 0.38200
C 	C 	0.39580 0.22502 0.80909 0.01900
F 	F 	0.40761 0.16583 0.86383 -0.42200
H 	H 	0.52408 0.21436 0.88279 0.08300
F 	F 	0.62797 0.35707 0.80243 -0.39000
H 	H 	0.51167 0.30695 0.78323 0.14300
C 	C 	0.37605 0.28071 0.81115 0.29600
C 	C 	0.31637 0.26480 0.80009 -0.05200
C 	C 	0.27604 0.19312 0.78707 -0.13600
C 	C 	0.29672 0.13821 0.78452 0.37600
C 	C 	0.35616 0.15422 0.79556 -0.13600
F 	F 	0.41438 0.34975 0.82411 -0.41100
H 	H 	0.30111 0.30757 0.80210 0.10400
F 	F 	0.25934 0.06951 0.77113 -0.44000
H 	H 	0.37146 0.11147 0.79360 0.12900
C 	C 	0.97181 0.77926 0.90643 -0.14800
C 	C 	0.93559 0.81306 0.89695 0.02200
C 	C 	0.87510 0.78818 0.90955 0.29500
C 	C 	0.84618 0.72008 0.92617 -0.05700
C 	C 	0.87676 0.67580 0.92908 -0.15000
C 	C 	0.94246 0.71082 0.92282 0.37300
C 	C 	0.95132 0.85416 0.86860 0.02000
F 	F 	0.84123 0.82403 0.90259 -0.40300
H 	H 	0.79667 0.69613 0.93292 0.09400
F 	F 	0.97511 0.67277 0.92865 -0.45000
H 	H 	0.02014 0.80086 0.89832 0.12300
C 	C 	0.97340 0.93390 0.86722 0.29400
C 	C 	0.98728 0.97159 0.84000 -0.00800
C 	C 	0.97945 0.92984 0.81410 -0.14800
C 	C 	0.95593 0.84981 0.81555 0.38800
C 	C 	0.94201 0.81230 0.84264 -0.14900
F 	F 	0.98197 0.97486 0.89216 -0.39200
H 	H 	0.00539 0.03337 0.83908 0.06700
F 	F 	0.94629 0.80833 0.79064 -0.42000
H 	H 	0.92382 0.75048 0.84352 0.12100
