data_crystal

_cell_length_a 26.29959
_cell_length_b 26.30775
_cell_length_c 35.29941
_cell_angle_alpha 95.50371
_cell_angle_beta  95.50249
_cell_angle_gamma 125.82262

_symmetry_space_group_name_	'P 1'
_symmetry_space_group_name_H-M	'P 1'

loop_
_symmetry_equiv_pos_as_xyz
  x,y,z

loop_
_atom_site_label
_atom_site_type_symbol
_atom_site_fract_x
_atom_site_fract_y
_atom_site_fract_z
_atom_site_charge
C 	C 	0.98984 0.05731 0.99364 0.12700
N 	N 	0.05257 0.09021 0.99113 -0.14100
C 	C 	0.07965 0.05933 0.98880 0.12600
N 	N 	0.04424 0.99606 0.98968 -0.14100
C 	C 	0.98132 0.96286 0.99109 0.12700
N 	N 	0.95402 0.99344 0.99285 -0.13800
C 	C 	0.91833 0.97576 0.46073 0.12300
N 	N 	0.98190 0.01125 0.46055 -0.13600
C 	C 	0.01229 0.98373 0.46144 0.12200
N 	N 	0.97910 0.92080 0.46270 -0.13600
C 	C 	0.91612 0.88564 0.46444 0.12600
N 	N 	0.88538 0.91291 0.46290 -0.14000
Cu	Cu	0.66460 0.27613 0.01128 0.92600
Cu	Cu	0.66963 0.22871 0.92011 0.88000
Cu	Cu	0.70186 0.36471 0.95258 0.90400
Cu	Cu	0.66919 0.39944 0.02835 0.90200
C 	C 	0.67626 0.33050 0.08961 0.30500
O 	O 	0.57200 0.23635 0.01384 -0.35700
C 	C 	0.66908 0.30776 0.86997 0.30800
O 	O 	0.71386 0.37230 0.00743 -0.64400
O 	O 	0.64703 0.27103 0.95423 -0.63600
O 	O 	0.71543 0.24168 0.01517 -0.35800
O 	O 	0.67226 0.17952 0.95482 -0.41700
O 	O 	0.68264 0.38171 0.08084 -0.36200
O 	O 	0.75281 0.45599 0.95588 -0.37100
C 	C 	0.74354 0.49247 0.97777 0.29000
C 	C 	0.54444 0.26186 0.00156 0.28100
O 	O 	0.57890 0.31897 0.99279 -0.36600
O 	O 	0.69535 0.46746 0.99661 -0.38000
O 	O 	0.68960 0.29843 0.06669 -0.35800
C 	C 	0.71612 0.20649 0.98636 0.28800
O 	O 	0.70955 0.35804 0.89766 -0.38600
O 	O 	0.63900 0.24951 0.87712 -0.39800
H 	H 	0.75958 0.39918 0.01977 0.16400
H 	H 	0.60188 0.25276 0.94473 0.17200
Cu	Cu	0.70026 0.30146 0.44606 0.92800
Cu	Cu	0.74626 0.29406 0.53627 0.87900
Cu	Cu	0.61057 0.26365 0.50378 0.90400
Cu	Cu	0.57881 0.30024 0.42881 0.90100
C 	C 	0.64930 0.29411 0.36823 0.30400
O 	O 	0.74192 0.39461 0.44413 -0.36100
C 	C 	0.66589 0.29359 0.58622 0.30900
O 	O 	0.60400 0.25365 0.44903 -0.64200
O 	O 	0.70450 0.31806 0.50293 -0.63900
O 	O 	0.73183 0.24817 0.44234 -0.35500
O 	O 	0.79749 0.29462 0.50175 -0.41800
O 	O 	0.59861 0.28936 0.37650 -0.37100
O 	O 	0.51925 0.21374 0.49989 -0.37100
C 	C 	0.48383 0.22422 0.47797 0.29000
C 	C 	0.71662 0.42257 0.45609 0.28400
O 	O 	0.65985 0.38869 0.46536 -0.37500
O 	O 	0.51012 0.27356 0.46009 -0.38400
O 	O 	0.67855 0.27752 0.39071 -0.34400
C 	C 	0.77253 0.25221 0.46960 0.28700
O 	O 	0.61610 0.25359 0.55818 -0.38700
O 	O 	0.72454 0.32261 0.57986 -0.39800
H 	H 	0.57659 0.20819 0.43611 0.17000
H 	H 	0.72320 0.36320 0.51281 0.17400
C 	C 	0.60514 0.28662 0.76469 -0.07200
C 	C 	0.66079 0.31285 0.74908 0.02500
C 	C 	0.72019 0.34359 0.77399 0.05400
C 	C 	0.72295 0.34569 0.81400 -0.00400
C 	C 	0.66684 0.31627 0.82936 -0.09400
C 	C 	0.60790 0.28840 0.80470 0.11900
C 	C 	0.65643 0.30642 0.70655 0.02600
N 	N 	0.77759 0.37116 0.75864 -0.01600
H 	H 	0.76844 0.36753 0.83290 0.05400
N 	N 	0.55103 0.26322 0.82032 -0.02400
H 	H 	0.55965 0.26451 0.74571 0.08000
C 	C 	0.63044 0.24691 0.68320 0.05400
C 	C 	0.62986 0.24237 0.64326 -0.00300
C 	C 	0.65609 0.29687 0.62647 -0.09500
C 	C 	0.67942 0.35574 0.64949 0.11900
C 	C 	0.67965 0.36026 0.68942 -0.07200
N 	N 	0.60613 0.19134 0.70011 -0.01600
H 	H 	0.61158 0.19694 0.62559 0.05300
N 	N 	0.70156 0.41065 0.63224 -0.02500
H 	H 	0.69816 0.40572 0.70715 0.08000
O 	O 	0.50064 0.20500 0.80683 -0.10300
O 	O 	0.54813 0.29998 0.84595 -0.11400
O 	O 	0.82455 0.43141 0.77011 -0.10300
O 	O 	0.78478 0.33510 0.73552 -0.09700
O 	O 	0.66364 0.40886 0.60470 -0.11600
O 	O 	0.75791 0.46378 0.64594 -0.10400
O 	O 	0.54728 0.14117 0.68822 -0.10300
O 	O 	0.64406 0.18915 0.72523 -0.09800
C 	C 	0.63281 0.32342 0.18925 -0.07000
C 	C 	0.67503 0.31483 0.20946 0.02500
C 	C 	0.71552 0.30811 0.18976 0.05800
C 	C 	0.71372 0.31064 0.15018 -0.00500
C 	C 	0.67257 0.32085 0.13013 -0.08300
C 	C 	0.63126 0.32642 0.14979 0.11500
C 	C 	0.67537 0.31135 0.25109 0.02800
N 	N 	0.75926 0.29973 0.20997 -0.01700
H 	H 	0.74596 0.30685 0.13540 0.06700
N 	N 	0.58733 0.33464 0.12970 -0.02400
H 	H 	0.60081 0.32743 0.20419 0.07900
C 	C 	0.69697 0.36556 0.27880 0.05500
C 	C 	0.68921 0.35953 0.31725 -0.00600
C 	C 	0.66129 0.30025 0.32851 -0.08700
C 	C 	0.64199 0.24658 0.30117 0.12300
C 	C 	0.64922 0.25245 0.26265 -0.07300
N 	N 	0.72643 0.42671 0.26792 -0.01600
H 	H 	0.70489 0.40103 0.33838 0.05100
N 	N 	0.61361 0.18571 0.31219 -0.02200
H 	H 	0.63271 0.21073 0.24145 0.08200
O 	O 	0.58720 0.38254 0.14267 -0.10400
O 	O 	0.54426 0.29166 0.10026 -0.11700
O 	O 	0.75836 0.25100 0.19753 -0.09900
O 	O 	0.80284 0.34307 0.23913 -0.08900
O 	O 	0.55908 0.15712 0.32363 -0.10300
O 	O 	0.63955 0.15652 0.30764 -0.09200
O 	O 	0.70580 0.46005 0.27642 -0.10600
O 	O 	0.77639 0.45079 0.25175 -0.09100
C 	C 	0.77651 0.59111 0.49492 -0.07200
C 	C 	0.80397 0.62150 0.46436 0.01700
C 	C 	0.81023 0.58844 0.43346 -0.00500
C 	C 	0.78382 0.52388 0.43179 -0.00300
C 	C 	0.75352 0.49260 0.46149 -0.09000
C 	C 	0.75321 0.52766 0.49428 0.05400
C 	C 	0.82933 0.68909 0.46620 0.00500
S 	S 	0.85210 0.62757 0.39725 -0.01700
H 	H 	0.78568 0.49766 0.40700 0.04700
S 	S 	0.72857 0.49442 0.53583 -0.02400
H 	H 	0.77433 0.61730 0.51957 0.05600
C 	C 	0.79784 0.70616 0.44196 0.00700
C 	C 	0.82497 0.77073 0.44277 -0.03200
C 	C 	0.88181 0.81838 0.46874 -0.03000
C 	C 	0.90914 0.80072 0.49588 0.03100
C 	C 	0.88399 0.73650 0.49365 -0.05900
S 	S 	0.72393 0.64730 0.41129 -0.03300
H 	H 	0.80261 0.78390 0.42266 0.05000
S 	S 	0.97207 0.85797 0.53427 -0.03400
H 	H 	0.90649 0.72327 0.51360 0.05300
H 	H 	0.77923 0.50406 0.55929 0.04800
H 	H 	0.67562 0.63039 0.43122 0.04000
H 	H 	0.94730 0.86543 0.56491 0.03900
H 	H 	0.81036 0.62045 0.36699 0.04600
C 	C 	0.84691 0.05894 0.49192 -0.05900
C 	C 	0.84109 0.08030 0.45801 0.00400
C 	C 	0.85524 0.06218 0.42405 0.00700
C 	C 	0.87750 0.02518 0.42479 -0.03300
C 	C 	0.88563 0.00581 0.45908 -0.02800
C 	C 	0.86909 0.02184 0.49265 0.03100
C 	C 	0.82307 0.12411 0.45887 0.01800
S 	S 	0.84543 0.08565 0.38054 -0.02500
H 	H 	0.88991 0.01265 0.39889 0.04900
S 	S 	0.87783 0.99750 0.53603 -0.03800
H 	H 	0.83528 0.07219 0.51794 0.05000
C 	C 	0.75843 0.10026 0.45293 -0.00800
C 	C 	0.74254 0.14266 0.45541 -0.00300
C 	C 	0.79056 0.20884 0.46377 -0.09600
C 	C 	0.85524 0.23267 0.46819 0.05800
C 	C 	0.87108 0.19021 0.46617 -0.07300
S 	S 	0.69707 0.01750 0.44248 -0.02800
H 	H 	0.69277 0.12415 0.45156 0.03400
S 	S 	0.91657 0.31514 0.47438 -0.02900
H 	H 	0.92080 0.20858 0.47007 0.05700
H 	H 	0.82303 0.93852 0.53652 0.04100
H 	H 	0.68350 0.99546 0.47648 0.03300
H 	H 	0.93742 0.34104 0.51315 0.04000
H 	H 	0.78394 0.04164 0.36085 0.04400
C 	C 	0.32678 0.18708 0.49515 -0.07400
C 	C 	0.28399 0.12357 0.47560 0.01800
C 	C 	0.30741 0.09195 0.45909 -0.00600
C 	C 	0.37320 0.12468 0.46140 -0.00300
C 	C 	0.41588 0.18878 0.47991 -0.08900
C 	C 	0.39257 0.21964 0.49774 0.06000
C 	C 	0.21477 0.09032 0.47299 0.00400
S 	S 	0.25486 0.01145 0.43559 -0.02600
H 	H 	0.39111 0.10068 0.44807 0.03600
S 	S 	0.44528 0.29808 0.52457 -0.03300
H 	H 	0.30882 0.21097 0.50857 0.05600
C 	C 	0.18397 0.05860 0.50260 0.00700
C 	C 	0.11800 0.02556 0.49897 -0.03200
C 	C 	0.08214 0.02331 0.46588 -0.02600
C 	C 	0.11309 0.05586 0.43649 0.02900
C 	C 	0.17928 0.08959 0.44037 -0.05700
S 	S 	0.22739 0.05917 0.54406 -0.03100
H 	H 	0.09434 0.00090 0.52172 0.05000
S 	S 	0.06938 0.05277 0.39413 -0.03200
H 	H 	0.20306 0.11428 0.41767 0.05300
H 	H 	0.46163 0.29621 0.56218 0.04700
H 	H 	0.25013 0.11196 0.57139 0.04000
H 	H 	0.06330 0.10108 0.40005 0.04100
H 	H 	0.24293 0.97307 0.46232 0.04000
C 	C 	0.77950 0.64823 0.95866 -0.07200
C 	C 	0.84339 0.69149 0.97750 0.01700
C 	C 	0.87572 0.66869 0.99390 -0.00200
C 	C 	0.84326 0.60310 0.99235 0.00100
C 	C 	0.77872 0.56000 0.97472 -0.08800
C 	C 	0.74718 0.58263 0.95685 0.06000
C 	C 	0.87603 0.76060 0.97994 0.00900
S 	S 	0.95676 0.72178 0.01635 -0.03700
H 	H 	0.86780 0.58570 0.00566 0.03200
S 	S 	0.66806 0.52925 0.93104 -0.03100
H 	H 	0.75503 0.66567 0.94530 0.05600
C 	C 	0.90655 0.79121 0.94994 0.00600
C 	C 	0.93898 0.85708 0.95339 -0.03200
C 	C 	0.94172 0.89300 0.98665 -0.02600
C 	C 	0.91027 0.86218 0.01641 0.02700
C 	C 	0.87729 0.79614 0.01276 -0.06100
S 	S 	0.90535 0.74774 0.90825 -0.03100
H 	H 	0.96291 0.88063 0.93041 0.04900
S 	S 	0.91400 0.90594 0.05899 -0.03100
H 	H 	0.85357 0.77251 0.03577 0.05400
H 	H 	0.66854 0.51153 0.89336 0.04700
H 	H 	0.85179 0.72433 0.88142 0.04000
H 	H 	0.96749 0.92725 0.08520 0.04100
H 	H 	0.99399 0.73274 0.98902 0.04400
C 	C 	0.90416 0.12163 0.03090 -0.06000
C 	C 	0.88641 0.13575 0.99704 0.00700
C 	C 	0.90832 0.13006 0.96309 0.00700
C 	C 	0.94512 0.10750 0.96289 -0.03300
C 	C 	0.96011 0.09028 0.99620 -0.02500
C 	C 	0.94075 0.09885 0.03064 0.02700
C 	C 	0.84230 0.15339 0.99684 0.02200
S 	S 	0.88851 0.14932 0.92044 -0.03700
H 	H 	0.96040 0.10144 0.93645 0.04900
S 	S 	0.96244 0.08168 0.07364 -0.03000
H 	H 	0.88832 0.12708 0.05721 0.05600
C 	C 	0.77566 0.10616 0.98698 -0.00900
C 	C 	0.73482 0.12400 0.98469 0.00200
C 	C 	0.75973 0.18868 0.99211 -0.09500
C 	C 	0.82647 0.23592 0.00264 0.05600
C 	C 	0.86721 0.21793 0.00528 -0.07800
S 	S 	0.74288 0.02464 0.97678 -0.02500
H 	H 	0.68363 0.08754 0.97677 0.04500
S 	S 	0.85985 0.31768 0.01068 -0.07800
H 	H 	0.91844 0.25427 0.01298 0.05800
H 	H 	0.02051 0.13471 0.09329 0.03900
H 	H 	0.73963 0.00723 0.93827 0.03600
H 	H 	0.86440 0.33793 0.04893 0.05100
H 	H 	0.83113 0.09677 0.89968 0.03700
C 	C 	0.37705 0.20516 0.96176 -0.07000
C 	C 	0.34447 0.17233 0.99031 0.01900
C 	C 	0.37554 0.16119 0.01949 -0.00400
C 	C 	0.44028 0.18787 0.02176 -0.00600
C 	C 	0.47406 0.22433 0.99460 -0.07700
C 	C 	0.44086 0.22923 0.96295 0.05200
C 	C 	0.27681 0.14699 0.98817 0.00900
S 	S 	0.33375 0.11320 0.05288 -0.02300
H 	H 	0.46461 0.18118 0.04505 0.05900
S 	S 	0.47639 0.25941 0.92291 -0.02500
H 	H 	0.35229 0.21088 0.93815 0.05700
C 	C 	0.25919 0.17621 0.01385 0.00300
C 	C 	0.19450 0.14901 0.01266 -0.03600
C 	C 	0.14727 0.09409 0.98521 -0.02600
C 	C 	0.16554 0.06880 0.95712 0.03100
C 	C 	0.22990 0.09435 0.95937 -0.05900
S 	S 	0.31755 0.24719 0.04712 -0.02900
H 	H 	0.18087 0.16967 0.03367 0.04900
S 	S 	0.10879 0.00765 0.91782 -0.03300
H 	H 	0.24360 0.07354 0.93851 0.05400
H 	H 	0.46720 0.21102 0.89723 0.05000
H 	H 	0.33619 0.29845 0.02976 0.04000
H 	H 	0.10188 0.03423 0.88808 0.03900
H 	H 	0.33865 0.15072 0.08489 0.04500
