data_crystal

_cell_length_a 19.63017
_cell_length_b 14.97550
_cell_length_c 46.28029
_cell_angle_alpha 88.37634
_cell_angle_beta  88.50759
_cell_angle_gamma 107.78516

_symmetry_space_group_name_	'P 1'
_symmetry_space_group_name_H-M	'P 1'

loop_
_symmetry_equiv_pos_as_xyz
  x,y,z

loop_
_atom_site_label
_atom_site_type_symbol
_atom_site_fract_x
_atom_site_fract_y
_atom_site_fract_z
_atom_site_charge
Zn	Zn	0.05604 0.94370 0.78127 1.19300
Zn	Zn	0.09720 0.12756 0.74575 1.22700
H 	H 	0.09242 0.96837 0.72739 0.18800
O 	O 	0.06214 0.99147 0.74086 -0.80200
O 	O 	0.06175 0.17143 0.78163 -0.40100
O 	O 	0.06835 0.58457 0.41821 -0.39800
C 	C 	0.05802 0.50109 0.43052 0.34200
O 	O 	0.01131 0.05574 0.17958 -0.41700
O 	O 	0.01742 0.12184 0.28025 -0.41400
C 	C 	0.06462 0.05760 0.19661 0.31400
C 	C 	0.01066 0.18996 0.29640 0.35500
C 	C 	0.07398 0.25594 0.30819 -0.12000
C 	C 	0.04216 0.80304 0.34291 -0.10600
C 	C 	0.03162 0.79584 0.31293 0.15100
Br	Br	0.09362 0.75149 0.28830 -0.29600
C 	C 	0.01663 0.63241 0.02844 0.08500
C 	C 	0.05457 0.63153 0.04841 -0.13200
H 	H 	0.03690 0.57297 0.97706 0.05500
C 	C 	0.04525 0.45513 0.17701 -0.01000
H 	H 	0.06610 0.52011 0.18810 0.04500
C 	C 	0.09666 0.34870 0.29701 0.02700
H 	H 	0.07943 0.36545 0.27603 0.03400
C 	C 	0.04542 0.36022 0.13552 -0.03600
H 	H 	0.14635 0.49338 0.30627 0.04400
O 	O 	0.06169 0.07817 0.22418 -0.36400
H 	H 	0.11233 0.92498 0.22183 0.03800
O 	O 	0.10586 0.45683 0.42729 -0.45800
C 	C 	0.13542 0.94709 0.20029 -0.01500
C 	C 	0.09935 0.23459 0.33486 0.14600
O 	O 	0.13688 0.02372 0.80294 -0.43500
O 	O 	0.12244 0.18396 0.67421 -0.42300
O 	O 	0.15961 0.22744 0.71991 -0.42500
C 	C 	0.10749 0.79147 0.35538 0.33000
O 	O 	0.10098 0.73935 0.37935 -0.42700
O 	O 	0.10956 0.54142 0.07692 -0.46100
O 	O 	0.13922 0.69903 0.08383 -0.39100
C 	C 	0.10089 0.62349 0.07107 0.32800
C 	C 	0.07577 0.44279 0.15032 -0.04500
H 	H 	0.06514 0.35289 0.11391 0.06900
C 	C 	0.12256 0.02336 0.18569 -0.09300
C 	C 	0.13427 0.42123 0.31418 -0.02800
Br	Br	0.07707 0.10701 0.34922 -0.21000
H 	H 	0.18251 0.83547 0.19782 0.03700
C 	C 	0.17406 0.21704 0.69251 0.33200
O 	O 	0.19351 0.12293 0.76531 -0.39600
C 	C 	0.19550 0.08116 0.79049 0.33200
Zn	Zn	0.15271 0.64690 0.38684 1.22500
C 	C 	0.16670 0.47551 0.36347 0.28500
O 	O 	0.12588 0.53085 0.36522 -0.42600
O 	O 	0.14743 0.60314 0.13885 -0.42600
C 	C 	0.14126 0.51331 0.13837 0.29600
C 	C 	0.20017 0.91903 0.15793 -0.03400
C 	C 	0.17381 0.89510 0.18645 -0.02900
C 	C 	0.15360 0.05172 0.15776 0.17400
C 	C 	0.19113 0.99839 0.14379 -0.12000
Br	Br	0.14850 0.16560 0.13912 -0.20900
C 	C 	0.15041 0.40115 0.34248 -0.03500
C 	C 	0.13759 0.30745 0.35197 -0.05900
Br	Br	0.20200 0.40210 0.65265 -0.24200
H 	H 	0.15247 0.29138 0.37343 0.07300
Zn	Zn	0.21030 0.52229 0.42652 1.19700
H 	H 	0.22115 0.69548 0.43177 0.18100
O 	O 	0.22631 0.65691 0.41533 -0.79000
O 	O 	0.16955 0.85386 0.34768 -0.42800
O 	O 	0.21755 0.48092 0.38205 -0.40400
Zn	Zn	0.22086 0.69611 0.11349 1.22100
Zn	Zn	0.20499 0.52357 0.07737 1.19800
O 	O 	0.22908 0.82916 0.11971 -0.42700
O 	O 	0.18757 0.48572 0.12297 -0.40400
C 	C 	0.24560 0.86887 0.14469 0.29500
H 	H 	0.21464 0.01997 0.12229 0.11200
C 	C 	0.24823 0.25604 0.68114 -0.11300
C 	C 	0.26333 0.10284 0.80554 -0.11500
Br	Br	0.19529 0.18932 0.84844 -0.21300
C 	C 	0.26769 0.33362 0.66137 0.14800
C 	C 	0.27198 0.15131 0.83150 0.14600
O 	O 	0.30678 0.87388 0.15641 -0.45600
Zn	Zn	0.26736 0.83895 0.35145 1.19700
O 	O 	0.26596 0.87751 0.39675 -0.41000
H 	H 	0.25035 0.66689 0.34291 0.18200
O 	O 	0.24549 0.70256 0.36012 -0.79200
H 	H 	0.28138 0.68997 0.06548 0.17200
O 	O 	0.27309 0.64953 0.08333 -0.78600
C 	C 	0.29922 0.21222 0.68884 0.02300
H 	H 	0.28515 0.15372 0.70450 0.03200
C 	C 	0.32092 0.07799 0.79336 0.02000
H 	H 	0.31469 0.04055 0.77341 0.03000
H 	H 	0.29828 0.63209 0.15353 0.18500
O 	O 	0.30838 0.67740 0.13678 -0.78400
C 	C 	0.33623 0.36265 0.64813 -0.06400
O 	O 	0.30940 0.51620 0.43290 -0.45300
C 	C 	0.31687 0.87568 0.41459 0.31600
O 	O 	0.26524 0.43897 0.07728 -0.43800
C 	C 	0.32909 0.93404 0.43921 -0.10300
H 	H 	0.35015 0.42100 0.63244 0.07400
C 	C 	0.33828 0.17605 0.84463 -0.05800
Zn	Zn	0.31891 0.70477 0.38785 1.22600
C 	C 	0.34099 0.98263 0.45998 0.04000
H 	H 	0.35803 0.11414 0.48232 0.04800
H 	H 	0.34506 0.21472 0.86434 0.08000
C 	C 	0.35699 0.04131 0.48467 -0.02800
C 	C 	0.36768 0.24128 0.67557 -0.02600
O 	O 	0.37514 0.85843 0.09958 -0.41000
Zn	Zn	0.37382 0.80548 0.14420 1.19500
C 	C 	0.38706 0.10277 0.80657 -0.02900
O 	O 	0.35457 0.81765 0.41083 -0.42400
C 	C 	0.38593 0.31484 0.65446 -0.03900
C 	C 	0.39645 0.15359 0.83193 -0.03700
C 	C 	0.37553 0.00858 0.50953 -0.03100
C 	C 	0.36727 0.56882 0.41869 0.34200
C 	C 	0.33530 0.47039 0.07498 0.32200
Zn	Zn	0.36548 0.64598 0.10508 1.22100
H 	H 	0.37443 0.93574 0.51193 0.03500
H 	H 	0.40585 0.20513 0.68124 0.05300
H 	H 	0.34395 0.36467 0.98301 0.05500
O 	O 	0.37392 0.89772 0.34884 -0.45400
O 	O 	0.36310 0.60551 0.39304 -0.43200
C 	C 	0.41102 0.83333 0.07843 0.30900
H 	H 	0.43161 0.08530 0.79655 0.03900
C 	C 	0.40293 0.07158 0.53248 0.07300
C 	C 	0.43371 0.89329 0.05290 -0.08200
O 	O 	0.03590 0.99764 0.67074 -0.41000
O 	O 	0.37231 0.52099 0.09534 -0.41700
H 	H 	0.45657 0.06451 0.00306 0.03500
C 	C 	0.37134 0.43339 0.05340 -0.12400
O 	O 	0.42464 0.75251 0.08013 -0.42300
O 	O 	0.40198 0.76186 0.35636 -0.39200
C 	C 	0.45263 0.94310 0.03134 0.01200
Br	Br	0.06010 0.74646 0.67383 -0.24200
C 	C 	0.42732 0.12620 0.55101 -0.11400
C 	C 	0.40070 0.37184 0.98360 -0.06400
O 	O 	0.43478 0.26765 0.57458 -0.45700
C 	C 	0.42028 0.85008 0.34737 0.33300
C 	C 	0.39973 0.40540 0.03383 0.07600
C 	C 	0.45395 0.33625 0.63714 0.29500
C 	C 	0.43550 0.58610 0.43145 -0.12700
C 	C 	0.47453 0.00297 0.00556 0.04900
C 	C 	0.46840 0.19247 0.84339 0.29100
O 	O 	0.47458 0.81047 0.13778 -0.45800
O 	O 	0.47266 0.40882 0.61887 -0.41000
C 	C 	0.45818 0.19456 0.57196 0.32200
C 	C 	0.44387 0.40031 0.95747 0.08800
C 	C 	0.43252 0.37779 0.00898 -0.05100
O 	O 	0.45527 0.65474 0.13157 -0.39200
O 	O 	0.48789 0.27823 0.85268 -0.39300
H 	H 	0.46275 0.92254 0.29355 0.01800
O 	O 	0.49296 0.27919 0.63844 -0.42900
C 	C 	0.49103 0.60126 0.44368 0.08100
C 	C 	0.48289 0.42962 0.93661 -0.15900
Zn	Zn	0.49997 0.39869 0.57349 1.19500
O 	O 	0.51137 0.14012 0.84545 -0.44600
C 	C 	0.49600 0.73602 0.14003 0.33100
O 	O 	0.52016 0.53648 0.57328 -0.45500
C 	C 	0.49405 0.89660 0.33660 -0.12100
C 	C 	0.51527 0.98217 0.98470 -0.15300
H 	H 	0.48854 0.38102 0.00966 0.04800
O 	O 	0.51352 0.18772 0.58643 -0.37600
C 	C 	0.50704 0.92527 0.30735 0.02100
O 	O 	0.52684 0.42678 0.88864 -0.43000
O 	O 	0.52928 0.21095 0.90714 -0.43900
C 	C 	0.53425 0.04010 0.95842 0.13400
C 	C 	0.53314 0.46884 0.91329 0.34100
H 	H 	0.54963 0.74581 0.47624 0.06100
H 	H 	0.53333 0.92071 0.98715 0.07700
Zn	Zn	0.01576 0.12876 0.68216 1.20400
Br	Br	0.53730 0.86975 0.39508 -0.24400
C 	C 	0.54893 0.08926 0.93658 -0.14000
C 	C 	0.55395 0.61773 0.46050 -0.05300
C 	C 	0.55222 0.90127 0.35440 0.14700
C 	C 	0.56705 0.68434 0.48005 -0.06100
C 	C 	0.56422 0.14957 0.91094 0.33600
H 	H 	0.52537 0.67371 0.19205 0.02400
Zn	Zn	0.56928 0.32652 0.88274 1.22500
C 	C 	0.57891 0.66011 0.50936 0.07600
C 	C 	0.58078 0.59277 0.56233 0.32600
C 	C 	0.56691 0.74535 0.15120 -0.11900
C 	C 	0.58272 0.63305 0.53381 -0.14900
Zn	Zn	0.57725 0.29696 0.61219 1.22200
H 	H 	0.57797 0.56152 0.46270 0.04500
C 	C 	0.57684 0.95283 0.29545 -0.03800
Br	Br	0.62594 0.82968 0.09517 -0.23300
C 	C 	0.57202 0.71904 0.18017 0.01700
O 	O 	0.59677 0.38575 0.57871 -0.78700
O 	O 	0.59284 0.53373 0.91874 -0.43900
H 	H 	0.58596 0.97272 0.27265 0.04100
Zn	Zn	0.61826 0.19181 0.84645 1.19400
H 	H 	0.61064 0.45487 0.64523 0.18400
O 	O 	0.61471 0.14548 0.89209 -0.40900
H 	H 	0.61447 0.35988 0.56164 0.17700
C 	C 	0.62848 0.80187 0.13580 0.14600
C 	C 	0.62211 0.92951 0.34243 -0.06900
O 	O 	0.63991 0.60837 0.57672 -0.42400
O 	O 	0.63539 0.42693 0.63081 -0.78600
Br	Br	0.76278 0.75344 0.87703 -0.26300
H 	H 	0.64352 0.36726 0.83669 0.17800
O 	O 	0.63252 0.20756 0.62091 -0.40500
O 	O 	0.64464 0.32777 0.85409 -0.79200
C 	C 	0.63451 0.95303 0.31279 -0.03600
C 	C 	0.63506 0.75852 0.19473 -0.03200
O 	O 	0.66062 0.37089 0.90838 -0.78300
H 	H 	0.65218 0.11510 0.69698 0.03100
H 	H 	0.66184 0.33219 0.92594 0.17900
Zn	Zn	0.66971 0.50651 0.59538 1.22200
H 	H 	0.66647 0.93085 0.35605 0.07300
H 	H 	0.63684 0.74122 0.21752 0.05400
C 	C 	0.66797 0.20590 0.64465 0.34300
C 	C 	0.69172 0.84114 0.15034 -0.06700
O 	O 	0.68768 0.54560 0.86962 -0.40100
Zn	Zn	0.68638 0.50869 0.91531 1.20000
C 	C 	0.68795 0.09575 0.68190 0.02200
O 	O 	0.68939 0.28058 0.66024 -0.47500
C 	C 	0.69075 0.12353 0.65250 -0.11900
C 	C 	0.69394 0.82418 0.18028 -0.04300
O 	O 	0.71425 0.17072 0.84060 -0.43600
C 	C 	0.70723 0.97471 0.29968 0.26100
O 	O 	0.71577 0.94590 0.27365 -0.39800
H 	H 	0.73815 0.88716 0.13853 0.07100
Zn	Zn	0.72635 0.41007 0.64322 1.19600
Zn	Zn	0.73601 0.37073 0.87952 1.22200
Br	Br	0.73137 0.11248 0.59192 -0.21600
C 	C 	0.74291 0.54980 0.85238 0.32500
C 	C 	0.73388 0.09167 0.63296 0.14300
C 	C 	0.78343 0.72160 0.83852 0.14500
O 	O 	0.74409 0.61582 0.61749 -0.39800
C 	C 	0.73815 0.05518 0.69252 -0.03000
H 	H 	0.74070 0.04390 0.71564 0.05300
O 	O 	0.75007 0.48263 0.57412 -0.44200
O 	O 	0.74977 0.35401 0.60210 -0.40500
C 	C 	0.76845 0.62718 0.83064 -0.11600
C 	C 	0.75556 0.87936 0.19672 0.28600
O 	O 	0.75502 0.86455 0.22503 -0.43300
O 	O 	0.76297 0.01835 0.31462 -0.42200
C 	C 	0.76773 0.40539 0.57788 0.32700
C 	C 	0.77590 0.22155 0.85059 0.29200
O 	O 	0.77615 0.48575 0.85478 -0.43600
O 	O 	0.77764 0.26696 0.87465 -0.42100
H 	H 	0.77201 0.53546 0.79579 0.02300
C 	C 	0.78266 0.04866 0.64364 -0.06000
C 	C 	0.78488 0.60748 0.80232 0.02100
C 	C 	0.78981 0.03928 0.67360 -0.04300
O 	O 	0.79213 0.55936 0.91464 -0.44600
C 	C 	0.80412 0.60680 0.62719 0.29400
O 	O 	0.80907 0.52306 0.63374 -0.45500
C 	C 	0.81928 0.79403 0.81872 -0.06100
O 	O 	0.80435 0.95102 0.18361 -0.45100
C 	C 	0.81187 0.38174 0.55614 -0.10900
H 	H 	0.81882 0.02943 0.62872 0.07600
H 	H 	0.81754 0.78997 0.61256 0.05700
O 	O 	0.81839 0.42228 0.90970 -0.39200
Zn	Zn	0.81515 0.94653 0.25362 1.21700
C 	C 	0.82197 0.68021 0.78293 -0.02800
C 	C 	0.00514 0.11849 0.79671 0.32900
H 	H 	0.83445 0.86614 0.82534 0.06800
C 	C 	0.83269 0.50628 0.92028 0.32700
H 	H 	0.83320 0.11931 0.24318 0.18700
C 	C 	0.84279 0.77320 0.79166 -0.04600
H 	H 	0.83669 0.40963 0.48203 0.05400
C 	C 	0.84221 0.20641 0.83937 -0.03900
H 	H 	0.83895 0.66374 0.76181 0.04200
O 	O 	0.83893 0.87458 0.28653 -0.42600
H 	H 	0.84116 0.09968 0.87185 0.06100
C 	C 	0.84995 0.36956 0.53681 0.07700
H 	H 	0.85963 0.31213 0.80503 0.05600
C 	C 	0.85850 0.03484 0.68470 0.31100
O 	O 	0.86026 0.99512 0.71056 -0.40900
Zn	Zn	0.85364 0.10429 0.29707 1.19900
C 	C 	0.86241 0.78116 0.62416 -0.03100
O 	O 	0.85781 0.08376 0.25517 -0.78100
C 	C 	0.86625 0.69098 0.63120 -0.04000
C 	C 	0.86776 0.13804 0.85242 -0.01800
C 	C 	0.87795 0.25708 0.81463 -0.06400
C 	C 	0.88889 0.53692 0.94027 -0.12200
C 	C 	0.88657 0.39553 0.48656 -0.05800
C 	C 	0.88899 0.91251 0.30491 0.25700
O 	O 	0.89440 0.91634 0.76330 -0.43300
C 	C 	0.89660 0.36357 0.51291 -0.04900
O 	O 	0.00234 0.11338 0.72471 -0.78400
O 	O 	0.89528 0.13270 0.18986 -0.38400
C 	C 	0.90338 0.84196 0.77662 0.30800
H 	H 	0.90782 0.92891 0.63025 0.02800
H 	H 	0.90240 0.88159 0.36201 0.04900
O 	O 	0.90680 0.00253 0.31005 -0.36900
C 	C 	0.91436 0.86026 0.63380 0.02000
Zn	Zn	0.90949 0.99256 0.19065 1.18900
O 	O 	0.91758 0.07195 0.66850 -0.45200
O 	O 	0.91369 0.96707 0.23259 -0.81900
H 	H 	0.92249 0.64496 0.00645 0.05300
C 	C 	0.92798 0.68194 0.64414 -0.06400
C 	C 	0.92593 0.11612 0.83980 0.02500
C 	C 	0.93024 0.85614 0.31821 -0.02700
H 	H 	0.93448 0.61327 0.64776 0.07300
C 	C 	0.93435 0.56214 0.95785 0.07500
C 	C 	0.93676 0.23623 0.80193 0.13900
C 	C 	0.93733 0.85584 0.34830 -0.02600
H 	H 	0.93870 0.92052 0.23727 0.17600
H 	H 	0.94330 0.06053 0.84959 0.05100
H 	H 	0.94586 0.34769 0.51734 0.05100
C 	C 	0.94573 0.20816 0.19710 0.33200
C 	C 	0.94599 0.42930 0.46602 0.08000
O 	O 	0.94774 0.20263 0.30106 -0.46500
Br	Br	0.94946 0.17562 0.12748 -0.23400
Zn	Zn	0.95510 0.97980 0.72950 1.22000
O 	O 	0.95705 0.88961 0.70059 -0.44500
C 	C 	0.95886 0.16155 0.81372 -0.10800
Zn	Zn	0.96606 0.09195 0.24414 1.22700
O 	O 	0.96783 0.83451 0.77985 -0.45700
C 	C 	0.96817 0.84943 0.65169 -0.12200
C 	C 	0.96876 0.29276 0.17774 -0.10700
H 	H 	0.96972 0.82068 0.27753 0.05100
H 	H 	0.97152 0.38886 0.21203 0.03400
H 	H 	0.97128 0.14864 0.73253 0.18900
C 	C 	0.97203 0.62732 0.00395 -0.06500
H 	H 	0.99980 0.83383 0.38371 0.04400
C 	C 	0.99654 0.46096 0.44942 -0.13700
C 	C 	0.99289 0.82928 0.36060 0.02100
C 	C 	0.99112 0.28587 0.14889 0.13700
C 	C 	0.99096 0.38090 0.19043 0.00700
O 	O 	0.98070 0.20617 0.22053 -0.44300
O 	O 	0.98914 0.02630 0.79718 -0.40300
C 	C 	0.98957 0.91384 0.67537 0.33500
C 	C 	0.97548 0.82192 0.30075 -0.07600
C 	C 	0.97930 0.76118 0.65407 0.14000
C 	C 	0.98720 0.59023 0.97954 -0.06100
Br	Br	0.98637 0.31264 0.76926 -0.27300
