data_crystal

_cell_length_a 35.41137
_cell_length_b 35.73829
_cell_length_c 34.90754
_cell_angle_alpha 95.53903
_cell_angle_beta  95.53971
_cell_angle_gamma 125.38666

_symmetry_space_group_name_	'P 1'
_symmetry_space_group_name_H-M	'P 1'

loop_
_symmetry_equiv_pos_as_xyz
  x,y,z

loop_
_atom_site_label
_atom_site_type_symbol
_atom_site_fract_x
_atom_site_fract_y
_atom_site_fract_z
_atom_site_charge
C 	C 	0.97630 0.02920 0.99348 0.03000
C 	C 	0.95092 0.98190 0.99651 -0.07500
C 	C 	0.97216 0.95889 0.99375 0.03100
C 	C 	0.01899 0.98335 0.98826 -0.07700
C 	C 	0.04452 0.03064 0.98531 0.03200
C 	C 	0.02319 0.05357 0.98803 -0.07600
H 	H 	0.91472 0.96305 0.00083 0.04900
H 	H 	0.03541 0.96556 0.98601 0.05100
H 	H 	0.04275 0.09002 0.98536 0.05100
C 	C 	0.95761 0.00103 0.44724 0.03300
C 	C 	0.93150 0.95383 0.45083 -0.07700
C 	C 	0.95392 0.93205 0.45471 0.03300
C 	C 	0.00237 0.95740 0.45461 -0.07700
C 	C 	0.02856 0.00451 0.45103 0.03300
C 	C 	0.00611 0.02622 0.44717 -0.07700
H 	H 	0.89410 0.93439 0.45122 0.05100
H 	H 	0.01967 0.94051 0.45737 0.05100
H 	H 	0.02637 0.06272 0.44453 0.05100
Cu	Cu	0.64908 0.26756 0.99252 0.92800
Cu	Cu	0.68841 0.27323 0.91026 0.87000
Cu	Cu	0.67793 0.34542 0.94588 0.89700
Cu	Cu	0.64731 0.35241 0.02202 0.89200
C 	C 	0.66193 0.29951 0.07461 0.29600
O 	O 	0.57989 0.23890 0.99046 -0.36500
C 	C 	0.66427 0.31755 0.86008 0.29800
O 	O 	0.68646 0.34050 0.99959 -0.64000
O 	O 	0.64508 0.27630 0.93758 -0.64200
O 	O 	0.67812 0.23384 0.98864 -0.37600
O 	O 	0.73171 0.28351 0.95406 -0.44200
O 	O 	0.63903 0.31728 0.06552 -0.38500
O 	O 	0.71303 0.41266 0.95781 -0.38300
C 	C 	0.70747 0.43616 0.98549 0.29100
C 	C 	0.56114 0.25888 0.97685 0.28300
O 	O 	0.58856 0.30328 0.97447 -0.39200
O 	O 	0.67436 0.41462 0.00681 -0.39800
O 	O 	0.66286 0.27142 0.04779 -0.36500
C 	C 	0.71847 0.25233 0.97671 0.29100
O 	O 	0.68115 0.35164 0.89049 -0.39100
O 	O 	0.66034 0.27916 0.86396 -0.42200
H 	H 	0.71977 0.36017 0.01332 0.16000
H 	H 	0.61270 0.25809 0.92203 0.17000
Cu	Cu	0.72654 0.33480 0.44401 0.92800
Cu	Cu	0.72952 0.29892 0.52649 0.87000
Cu	Cu	0.65138 0.30379 0.49506 0.89600
Cu	Cu	0.63654 0.33111 0.41906 0.89300
C 	C 	0.68862 0.31940 0.36277 0.29600
O 	O 	0.75208 0.40265 0.44563 -0.36400
C 	C 	0.68594 0.31973 0.58016 0.29800
O 	O 	0.65305 0.29502 0.44044 -0.64000
O 	O 	0.72132 0.33932 0.49987 -0.64200
O 	O 	0.76265 0.30793 0.44537 -0.37600
O 	O 	0.71678 0.25535 0.48225 -0.44200
O 	O 	0.66899 0.34000 0.37329 -0.38500
O 	O 	0.58323 0.26644 0.48628 -0.38300
C 	C 	0.55662 0.26941 0.45928 0.28900
C 	C 	0.73091 0.41960 0.46032 0.28300
O 	O 	0.68714 0.39085 0.46507 -0.39300
O 	O 	0.57529 0.30229 0.43768 -0.39500
O 	O 	0.71930 0.32025 0.38837 -0.36500
C 	C 	0.74597 0.26835 0.45755 0.29000
O 	O 	0.64939 0.30102 0.55126 -0.39100
O 	O 	0.72550 0.32691 0.57367 -0.42300
H 	H 	0.63392 0.26190 0.42712 0.16100
H 	H 	0.73916 0.37157 0.51496 0.17100
C 	C 	0.65899 0.32651 0.82029 -0.11400
C 	C 	0.61813 0.29313 0.79176 0.12500
C 	C 	0.61931 0.29589 0.75198 -0.09800
C 	C 	0.66029 0.33182 0.74055 -0.00000
C 	C 	0.69884 0.36844 0.76943 0.05800
C 	C 	0.69782 0.36537 0.80915 -0.02400
N 	N 	0.57772 0.25873 0.80239 -0.20300
H 	H 	0.58903 0.26893 0.72981 0.05500
C 	C 	0.66515 0.32700 0.69905 0.00200
N 	N 	0.73726 0.40598 0.75919 -0.19200
H 	H 	0.72839 0.39201 0.83124 0.04100
C 	C 	0.65242 0.34740 0.67337 -0.09900
C 	C 	0.66059 0.34712 0.63476 0.12600
C 	C 	0.67915 0.32337 0.62104 -0.11400
C 	C 	0.69071 0.30196 0.64653 -0.02200
C 	C 	0.68418 0.30373 0.68545 0.05600
H 	H 	0.63791 0.36523 0.68395 0.05600
N 	N 	0.65229 0.37114 0.61168 -0.20300
H 	H 	0.70460 0.28353 0.63592 0.03100
N 	N 	0.69617 0.28298 0.70955 -0.19200
H 	H 	0.63690 0.38698 0.62155 0.08300
H 	H 	0.66298 0.37625 0.58466 0.08600
H 	H 	0.71046 0.26616 0.69925 0.07700
H 	H 	0.69133 0.28307 0.73857 0.08500
H 	H 	0.76619 0.43215 0.78065 0.08100
H 	H 	0.73835 0.41018 0.73004 0.08600
H 	H 	0.57459 0.25819 0.83181 0.08500
H 	H 	0.54822 0.23317 0.78109 0.08200
C 	C 	0.67521 0.30074 0.11637 -0.10600
C 	C 	0.69952 0.34288 0.14415 0.12000
C 	C 	0.70289 0.34138 0.18428 -0.09500
C 	C 	0.68554 0.29912 0.19707 0.00000
C 	C 	0.66561 0.25778 0.16931 0.05900
C 	C 	0.65977 0.25881 0.12916 -0.02200
N 	N 	0.72069 0.38486 0.13252 -0.20200
H 	H 	0.71937 0.37325 0.20564 0.05600
C 	C 	0.68577 0.29816 0.23943 0.00000
N 	N 	0.65232 0.21720 0.18098 -0.19200
H 	H 	0.64227 0.22670 0.10787 0.04900
C 	C 	0.64350 0.27961 0.25328 -0.09500
C 	C 	0.64315 0.28229 0.29360 0.12000
C 	C 	0.68640 0.30711 0.32057 -0.10600
C 	C 	0.72840 0.32373 0.30666 -0.02200
C 	C 	0.72832 0.31854 0.26627 0.05900
H 	H 	0.61073 0.26279 0.23258 0.05600
N 	N 	0.60127 0.25993 0.30617 -0.20200
H 	H 	0.76139 0.34160 0.32729 0.05000
N 	N 	0.76902 0.33292 0.25348 -0.19200
H 	H 	0.56967 0.24354 0.28621 0.08000
H 	H 	0.59944 0.25631 0.33539 0.07000
H 	H 	0.80057 0.34927 0.27350 0.08300
H 	H 	0.76949 0.32663 0.22376 0.08700
H 	H 	0.63636 0.18652 0.16032 0.08300
H 	H 	0.65907 0.21598 0.21044 0.08700
H 	H 	0.72370 0.38770 0.10330 0.06900
H 	H 	0.73672 0.41559 0.15313 0.08000
C 	C 	0.92690 0.88281 0.45938 -0.00700
C 	C 	0.93748 0.87135 0.49419 -0.03200
C 	C 	0.91578 0.82458 0.49707 -0.04900
C 	C 	0.88334 0.78897 0.46521 0.02500
C 	C 	0.87152 0.80025 0.43088 -0.04900
C 	C 	0.89321 0.84706 0.42797 -0.03100
C 	C 	0.86406 0.74108 0.46705 -0.02400
C 	C 	0.84804 0.70105 0.46875 -0.00700
C 	C 	0.82964 0.65423 0.47054 -0.00000
C 	C 	0.81394 0.61417 0.47171 -0.03300
C 	C 	0.79491 0.56613 0.47253 0.04500
C 	C 	0.82048 0.54907 0.46292 -0.07300
C 	C 	0.80043 0.50158 0.46048 0.01700
C 	C 	0.75439 0.47064 0.46743 -0.09200
C 	C 	0.72967 0.48836 0.47866 0.01400
C 	C 	0.74984 0.53586 0.48104 -0.07300
H 	H 	0.96326 0.89872 0.51867 0.03700
H 	H 	0.92488 0.81609 0.52377 0.04200
H 	H 	0.84628 0.77287 0.40619 0.04300
H 	H 	0.88479 0.85555 0.40099 0.03700
H 	H 	0.85556 0.57242 0.45665 0.04900
H 	H 	0.82035 0.48878 0.45244 0.03500
H 	H 	0.69446 0.46526 0.48471 0.03000
H 	H 	0.73003 0.54891 0.48881 0.04800
C 	C 	0.93457 0.02458 0.44487 -0.00700
C 	C 	0.94835 0.06178 0.47466 -0.03200
C 	C 	0.92777 0.08524 0.47181 -0.04900
C 	C 	0.89324 0.07167 0.43921 0.02500
C 	C 	0.87911 0.03429 0.40955 -0.04900
C 	C 	0.89970 0.01078 0.41236 -0.03200
C 	C 	0.87223 0.09606 0.43636 -0.02400
C 	C 	0.85514 0.11698 0.43460 -0.00800
C 	C 	0.83538 0.14176 0.43343 -0.00100
C 	C 	0.81859 0.16303 0.43329 -0.03400
C 	C 	0.79852 0.18842 0.43424 0.04500
C 	C 	0.82678 0.23634 0.43344 -0.07500
C 	C 	0.80894 0.26220 0.43918 0.01800
C 	C 	0.76272 0.24028 0.44600 -0.09900
C 	C 	0.73385 0.19184 0.44499 0.01800
C 	C 	0.75173 0.16608 0.43919 -0.07600
H 	H 	0.97510 0.07257 0.49993 0.03700
H 	H 	0.93873 0.11399 0.49490 0.04200
H 	H 	0.85235 0.02355 0.38430 0.04200
H 	H 	0.88891 0.98219 0.38917 0.03700
H 	H 	0.86294 0.25382 0.42944 0.04900
H 	H 	0.83157 0.29949 0.43973 0.03000
H 	H 	0.69787 0.17432 0.44951 0.02700
H 	H 	0.72956 0.12896 0.43953 0.04800
C 	C 	0.50519 0.24066 0.45772 -0.09000
C 	C 	0.48658 0.22663 0.49171 0.01800
C 	C 	0.43804 0.20167 0.49056 -0.07300
C 	C 	0.40776 0.19049 0.45551 0.04500
C 	C 	0.42606 0.20363 0.42140 -0.07400
C 	C 	0.47457 0.22859 0.42246 0.01700
C 	C 	0.35806 0.16654 0.45477 -0.03300
C 	C 	0.31647 0.14649 0.45426 -0.00000
C 	C 	0.26782 0.12317 0.45378 -0.00700
C 	C 	0.22629 0.10329 0.45344 -0.02400
C 	C 	0.17668 0.07945 0.45314 0.02500
C 	C 	0.15810 0.06245 0.48631 -0.04900
C 	C 	0.10980 0.03849 0.48580 -0.03200
C 	C 	0.07975 0.03133 0.45205 -0.00700
C 	C 	0.09849 0.04878 0.41897 -0.03100
C 	C 	0.14683 0.07276 0.41953 -0.04900
H 	H 	0.50974 0.23585 0.51916 0.03700
H 	H 	0.42408 0.19152 0.51702 0.04900
H 	H 	0.40279 0.19487 0.39415 0.04800
H 	H 	0.48836 0.23869 0.39593 0.02400
H 	H 	0.18101 0.06760 0.51242 0.04200
H 	H 	0.09568 0.02532 0.51153 0.03600
H 	H 	0.07556 0.04334 0.39276 0.03700
H 	H 	0.16098 0.08588 0.39379 0.04300
C 	C 	0.94501 0.90880 0.99559 -0.00500
C 	C 	0.95957 0.89397 0.02569 -0.03300
C 	C 	0.93536 0.84629 0.02618 -0.05000
C 	C 	0.89647 0.81320 0.99662 0.02700
C 	C 	0.88143 0.82797 0.96689 -0.04900
C 	C 	0.90561 0.87562 0.96635 -0.03200
C 	C 	0.87257 0.76409 0.99629 -0.02400
C 	C 	0.85237 0.72290 0.99580 -0.00700
C 	C 	0.82858 0.67461 0.99493 0.00100
C 	C 	0.80809 0.63332 0.99403 -0.03300
C 	C 	0.78331 0.58393 0.99280 0.04700
C 	C 	0.80335 0.56169 0.98058 -0.07400
C 	C 	0.77878 0.51351 0.97848 0.01800
C 	C 	0.73389 0.48720 0.98856 -0.08900
C 	C 	0.71412 0.50975 0.00110 0.01700
C 	C 	0.73877 0.55791 0.00319 -0.07600
H 	H 	0.98983 0.91934 0.04848 0.03700
H 	H 	0.94708 0.83510 0.04932 0.04300
H 	H 	0.85132 0.80255 0.94399 0.04300
H 	H 	0.89419 0.88673 0.94294 0.03700
H 	H 	0.83785 0.58166 0.97259 0.04900
H 	H 	0.79469 0.49670 0.96914 0.03000
H 	H 	0.67942 0.48993 0.00871 0.03200
H 	H 	0.72308 0.57492 0.01262 0.04900
C 	C 	0.74691 0.23513 0.98590 -0.10100
C 	C 	0.79398 0.26063 0.98054 0.01800
C 	C 	0.81940 0.24218 0.98554 -0.07800
C 	C 	0.79815 0.19828 0.99610 0.04900
C 	C 	0.75191 0.17357 0.00301 -0.08100
C 	C 	0.72636 0.19189 0.99799 0.02400
C 	C 	0.82266 0.17726 0.99732 -0.03500
C 	C 	0.84320 0.15970 0.99834 0.00100
C 	C 	0.86675 0.13861 0.99869 -0.00800
C 	C 	0.88635 0.12008 0.99834 -0.02400
C 	C 	0.90911 0.09732 0.99720 0.02600
C 	C 	0.94805 0.11293 0.02615 -0.05000
C 	C 	0.97009 0.09073 0.02494 -0.03400
C 	C 	0.95326 0.05279 0.99476 -0.00400
C 	C 	0.91432 0.03730 0.96579 -0.03200
C 	C 	0.89232 0.05949 0.96704 -0.04900
H 	H 	0.81067 0.29441 0.97198 0.02600
H 	H 	0.85530 0.26163 0.98046 0.04800
H 	H 	0.73536 0.13971 0.01141 0.05000
H 	H 	0.69025 0.17189 0.00251 0.03200
H 	H 	0.96121 0.14216 0.04956 0.04200
H 	H 	0.00006 0.10286 0.04749 0.03700
H 	H 	0.90121 0.00818 0.94228 0.03700
H 	H 	0.86226 0.04730 0.94455 0.04200
C 	C 	0.09354 0.05599 0.97907 -0.00500
C 	C 	0.13073 0.09222 0.00842 -0.03300
C 	C 	0.17744 0.11367 0.00384 -0.05000
C 	C 	0.18722 0.09905 0.96992 0.02700
C 	C 	0.15011 0.06377 0.94011 -0.04900
C 	C 	0.10340 0.04230 0.94464 -0.03200
C 	C 	0.23523 0.11848 0.96667 -0.02400
C 	C 	0.27556 0.13498 0.96425 -0.00700
C 	C 	0.32289 0.15404 0.96217 -0.00000
C 	C 	0.36346 0.17021 0.96113 -0.03300
C 	C 	0.41212 0.18954 0.96091 0.04500
C 	C 	0.43192 0.16942 0.97825 -0.07300
C 	C 	0.48027 0.19092 0.98194 0.01700
C 	C 	0.50931 0.23295 0.96842 -0.09300
C 	C 	0.48886 0.25180 0.94936 0.01400
C 	C 	0.44048 0.23023 0.94579 -0.07300
H 	H 	0.12347 0.10305 0.03507 0.03600
H 	H 	0.20598 0.14103 0.02696 0.04200
H 	H 	0.15743 0.05242 0.91374 0.04300
H 	H 	0.07489 0.01456 0.92172 0.03700
H 	H 	0.41008 0.13773 0.98974 0.04900
H 	H 	0.49528 0.17561 0.99635 0.03700
H 	H 	0.51052 0.28360 0.93800 0.03000
H 	H 	0.42527 0.24572 0.93201 0.04900
