data_crystal

_cell_length_a 22.48820
_cell_length_b 22.49017
_cell_length_c 12.94135
_cell_angle_alpha 90.00102
_cell_angle_beta  89.99837
_cell_angle_gamma 89.97436

_symmetry_space_group_name_	'P 1'
_symmetry_space_group_name_H-M	'P 1'

loop_
_symmetry_equiv_pos_as_xyz
  x,y,z

loop_
_atom_site_label
_atom_site_type_symbol
_atom_site_fract_x
_atom_site_fract_y
_atom_site_fract_z
_atom_site_charge
Co	Co	0.94401 0.95324 0.88870 1.17100
Co	Co	0.03115 0.03999 0.14257 1.20900
Co	Co	0.94359 0.95171 0.14118 1.18700
Co	Co	0.03243 0.04047 0.89041 1.19400
C 	C 	0.85233 0.98646 0.72657 0.38000
Co	Co	0.98191 0.00412 0.66632 1.18100
Co	Co	0.98042 0.00213 0.36505 1.18100
C 	C 	0.10919 0.98054 0.73526 0.38700
O 	O 	0.97988 0.90909 0.36816 -0.38500
O 	O 	0.97491 0.00828 0.20326 -0.74900
C 	C 	0.00399 0.87499 0.29648 0.43300
O 	O 	0.91649 0.90731 0.01380 -0.37800
O 	O 	0.07685 0.06792 0.01750 -0.35900
C 	C 	0.10864 0.98415 0.29711 0.39800
O 	O 	0.96475 0.01931 0.01593 -0.50100
C 	C 	0.85090 0.98474 0.30234 0.37700
C 	C 	0.00042 0.87560 0.73408 0.43700
C 	C 	0.99957 0.13336 0.72900 0.40300
O 	O 	0.00396 0.89114 0.19857 -0.36000
O 	O 	0.97877 0.91097 0.66180 -0.37900
O 	O 	0.00442 0.89359 0.83039 -0.38500
O 	O 	0.07323 0.00589 0.36924 -0.32700
O 	O 	0.09065 0.97999 0.20081 -0.37700
O 	O 	0.88805 0.00221 0.37546 -0.30400
O 	O 	0.86751 0.94615 0.23080 -0.32600
O 	O 	0.98183 0.09629 0.65594 -0.33800
O 	O 	0.03818 0.11657 0.80042 -0.32900
O 	O 	0.97596 0.00936 0.82813 -0.76000
C 	C 	0.99785 0.13211 0.30500 0.40900
O 	O 	0.97624 0.09456 0.37416 -0.33500
O 	O 	0.03730 0.11493 0.23542 -0.32000
O 	O 	0.88978 0.00762 0.65685 -0.30600
O 	O 	0.86949 0.94696 0.79605 -0.34500
O 	O 	0.07513 0.00467 0.66355 -0.32800
O 	O 	0.09290 0.98041 0.83312 -0.38200
C 	C 	0.03541 0.53005 0.51837 -0.00300
S 	S 	0.03774 0.57540 0.62168 0.13500
C 	C 	0.04977 0.64542 0.57485 0.08700
C 	C 	0.05333 0.64557 0.46577 0.07500
S 	S 	0.04408 0.57550 0.41584 0.16800
C 	C 	0.97670 0.36796 0.46087 0.08300
C 	C 	0.97429 0.36815 0.56987 0.08600
S 	S 	0.99058 0.43688 0.61907 0.12700
C 	C 	0.00179 0.48113 0.51594 0.01300
S 	S 	0.99561 0.43629 0.41247 0.14700
C 	C 	0.50313 0.98412 0.51595 0.01000
S 	S 	0.54751 0.99518 0.41289 0.11100
C 	C 	0.61633 0.01107 0.46208 0.10400
C 	C 	0.61651 0.00851 0.57104 0.10400
S 	S 	0.54809 0.98990 0.61938 0.10000
C 	C 	0.33878 0.93210 0.56588 0.06900
C 	C 	0.33896 0.93577 0.45680 0.09600
S 	S 	0.40895 0.94809 0.40999 0.13400
C 	C 	0.45421 0.95051 0.51339 -0.00200
S 	S 	0.40882 0.94155 0.61591 0.14100
C 	C 	0.26003 0.00884 0.41239 0.27200
C 	C 	0.28598 0.95275 0.39731 -0.11200
C 	C 	0.25757 0.91080 0.33410 0.26500
C 	C 	0.20095 0.92281 0.29444 0.33200
C 	C 	0.17191 0.97598 0.32082 -0.22600
C 	C 	0.20276 0.02007 0.37589 0.34100
F 	F 	0.17688 0.07354 0.39488 -0.33700
F 	F 	0.28938 0.05146 0.46641 -0.32900
F 	F 	0.17337 0.88186 0.23407 -0.33900
F 	F 	0.28367 0.85748 0.31503 -0.31900
C 	C 	0.27475 0.98772 0.69180 0.22100
C 	C 	0.28386 0.93754 0.62865 -0.06400
C 	C 	0.23658 0.89779 0.61190 0.23200
C 	C 	0.17949 0.91152 0.64762 0.31900
C 	C 	0.17004 0.96251 0.70781 -0.19500
C 	C 	0.21821 0.99959 0.73235 0.29100
F 	F 	0.20950 0.04912 0.79044 -0.33000
F 	F 	0.31953 0.02705 0.70823 -0.30900
F 	F 	0.13292 0.87680 0.61970 -0.35400
F 	F 	0.24533 0.84756 0.55571 -0.31500
C 	C 	0.75008 0.94221 0.33455 0.33400
C 	C 	0.78684 0.99230 0.32218 -0.24100
C 	C 	0.76395 0.04920 0.34276 0.35700
C 	C 	0.70617 0.05570 0.38125 0.22500
C 	C 	0.67097 0.00539 0.40006 -0.02800
C 	C 	0.69230 0.94881 0.37299 0.19200
F 	F 	0.65831 0.89987 0.38974 -0.32400
F 	F 	0.77156 0.88687 0.31535 -0.33500
F 	F 	0.68528 0.11075 0.40449 -0.30500
F 	F 	0.79843 0.09802 0.32863 -0.33100
C 	C 	0.69564 0.94628 0.65060 0.18600
C 	C 	0.67144 0.00278 0.63181 -0.03100
C 	C 	0.70441 0.05378 0.65643 0.22200
C 	C 	0.76276 0.04840 0.69257 0.35600
C 	C 	0.78838 0.99194 0.70502 -0.25000
C 	C 	0.75402 0.94081 0.68649 0.33000
F 	F 	0.77830 0.88590 0.69767 -0.34100
F 	F 	0.66379 0.89666 0.62816 -0.32900
F 	F 	0.79491 0.09804 0.71322 -0.33800
F 	F 	0.68073 0.10861 0.64105 -0.31100
C 	C 	0.04387 0.23018 0.34551 0.31600
C 	C 	0.99260 0.19602 0.32696 -0.19900
C 	C 	0.93624 0.22186 0.33944 0.30900
C 	C 	0.93108 0.28022 0.37554 0.24900
C 	C 	0.98221 0.31301 0.40013 -0.08200
C 	C 	0.03862 0.28857 0.38137 0.24600
F 	F 	0.08837 0.32023 0.40380 -0.32600
F 	F 	0.09869 0.20568 0.33433 -0.32600
F 	F 	0.87634 0.30412 0.39090 -0.31200
F 	F 	0.88647 0.18990 0.31875 -0.32600
C 	C 	0.92923 0.27845 0.65045 0.24500
C 	C 	0.97970 0.31346 0.63180 -0.08800
C 	C 	0.03619 0.29186 0.65887 0.24500
C 	C 	0.04253 0.23402 0.69709 0.31300
C 	C 	0.99228 0.19746 0.70927 -0.20300
C 	C 	0.93548 0.22061 0.68871 0.30300
F 	F 	0.88650 0.18631 0.70267 -0.33400
F 	F 	0.87427 0.29960 0.62725 -0.31700
F 	F 	0.09779 0.21229 0.71625 -0.33500
F 	F 	0.08527 0.32567 0.64227 -0.33200
C 	C 	0.07327 0.80493 0.38412 0.32900
C 	C 	0.02219 0.81421 0.32409 -0.19800
C 	C 	0.98528 0.76590 0.29955 0.32100
C 	C 	0.99741 0.70940 0.33996 0.24500
C 	C 	0.04767 0.70046 0.40298 -0.05700
C 	C 	0.08726 0.74788 0.41972 0.23500
F 	F 	0.13756 0.73931 0.47581 -0.31300
F 	F 	0.10786 0.85161 0.41194 -0.35400
F 	F 	0.95826 0.66447 0.32351 -0.33100
F 	F 	0.93568 0.77444 0.24157 -0.34400
C 	C 	0.96491 0.78134 0.65526 0.30600
C 	C 	0.00885 0.81237 0.71038 -0.20100
C 	C 	0.06207 0.78351 0.73706 0.32900
C 	C 	0.07430 0.72690 0.69760 0.25300
C 	C 	0.03250 0.69830 0.63434 -0.07000
C 	C 	0.97634 0.72405 0.61905 0.22500
F 	F 	0.93384 0.69450 0.56506 -0.33900
F 	F 	0.91139 0.80705 0.63599 -0.34500
F 	F 	0.12769 0.70099 0.71689 -0.32600
F 	F 	0.10286 0.81125 0.79754 -0.35200
