data_crystal

_cell_length_a 25.26728
_cell_length_b 25.56501
_cell_length_c 19.51793
_cell_angle_alpha 95.50521
_cell_angle_beta  95.50514
_cell_angle_gamma 125.84911

_symmetry_space_group_name_	'P 1'
_symmetry_space_group_name_H-M	'P 1'

loop_
_symmetry_equiv_pos_as_xyz
  x,y,z

loop_
_atom_site_label
_atom_site_type_symbol
_atom_site_fract_x
_atom_site_fract_y
_atom_site_fract_z
_atom_site_charge
C 	C 	0.10084 0.08104 0.07736 0.21500
C 	C 	0.16476 0.02713 0.39493 0.33800
F 	F 	0.16385 0.16652 0.98113 -0.37700
N 	N 	0.06548 0.10387 0.05980 -0.08300
C 	C 	0.16245 0.09540 0.31824 -0.11300
C 	C 	0.19793 0.07853 0.35773 0.00000
C 	C 	0.09397 0.06069 0.31548 0.33700
C 	C 	0.26985 0.11477 0.36051 0.02500
F 	F 	0.05972 0.07602 0.27531 -0.39600
H 	H 	0.18790 0.13524 0.28962 0.11900
C 	C 	0.29358 0.08952 0.31622 0.31500
F 	F 	0.25042 0.03490 0.26619 -0.38500
C 	C 	0.30839 0.18578 0.07553 0.00700
C 	C 	0.28091 0.14943 0.12823 0.31800
C 	C 	0.21382 0.11812 0.13101 -0.07800
C 	C 	0.17353 0.12283 0.08115 -0.06100
C 	C 	0.20199 0.16190 0.03035 0.35500
C 	C 	0.26919 0.19332 0.02784 -0.11300
F 	F 	0.31853 0.14209 0.17478 -0.41200
H 	H 	0.19259 0.08831 0.17043 0.12700
H 	H 	0.29025 0.22168 0.98729 0.14000
H 	H 	0.29673 0.19088 0.44638 0.13400
N 	N 	0.06852 0.01771 0.08575 -0.11100
C 	C 	0.36176 0.11976 0.32446 -0.03400
C 	C 	0.31479 0.17120 0.41201 -0.13700
C 	C 	0.37616 0.21070 0.06633 0.02400
F 	F 	0.33230 0.12671 0.96487 -0.39300
C 	C 	0.38294 0.20121 0.42065 0.38100
H 	H 	0.37955 0.09930 0.29076 0.12100
C 	C 	0.38545 0.17865 0.01164 0.29300
H 	H 	0.42457 0.28888 0.15705 0.13300
C 	C 	0.40665 0.17511 0.37740 -0.13200
F 	F 	0.42592 0.25546 0.47117 -0.42700
C 	C 	0.43141 0.26408 0.11457 -0.13800
F 	F 	0.01683 0.12346 0.93024 -0.35800
C 	C 	0.44943 0.19915 0.00601 -0.05400
H 	H 	0.45604 0.17392 0.96376 0.10100
C 	C 	0.47790 0.20442 0.38899 0.34800
C 	C 	0.49550 0.28464 0.10901 0.37300
O 	O 	0.50592 0.20887 0.33384 -0.36000
O 	O 	0.50726 0.21049 0.45202 -0.34000
C 	C 	0.50471 0.25182 0.05493 -0.14300
F 	F 	0.54833 0.33496 0.15744 -0.44600
H 	H 	0.54075 0.33550 0.67107 0.11300
O 	O 	0.57456 0.29210 0.57642 -0.35100
C 	C 	0.57164 0.27110 0.05061 0.33200
Cu	Cu	0.60295 0.26786 0.33264 0.91000
O 	O 	0.57965 0.22559 0.03289 -0.35900
Cu	Cu	0.60103 0.27578 0.48966 0.90900
H 	H 	0.61524 0.20341 0.41058 0.19900
C 	C 	0.58960 0.34703 0.68526 -0.10100
H 	H 	0.59305 0.26349 0.90490 0.18900
O 	O 	0.62953 0.24903 0.41452 -0.63500
C 	C 	0.61362 0.32888 0.63771 0.32900
O 	O 	0.62189 0.33360 0.05897 -0.35700
O 	O 	0.64042 0.36388 0.39006 -0.37200
H 	H 	0.64286 0.44330 0.30455 0.11300
O 	O 	0.67296 0.27904 0.28177 -0.36500
C 	C 	0.62991 0.38648 0.75564 -0.10500
O 	O 	0.63204 0.30263 0.78522 -0.40300
O 	O 	0.63934 0.27785 0.91505 -0.64200
H 	H 	0.64103 0.43443 0.77074 0.10400
F 	F 	0.66959 0.12466 0.47582 -0.44000
C 	C 	0.64899 0.36259 0.80225 0.32800
F 	F 	0.67054 0.55485 0.27996 -0.39600
Cu	Cu	0.65875 0.24487 0.99275 0.93500
O 	O 	0.67445 0.34588 0.65381 -0.40200
C 	C 	0.68583 0.48633 0.33978 -0.05500
F 	F 	0.66677 0.07270 0.88467 -0.41800
H 	H 	0.67386 0.15971 0.16372 0.10600
Cu	Cu	0.67400 0.27045 0.83317 0.87800
O 	O 	0.66713 0.18301 0.93532 -0.33700
O 	O 	0.69851 0.34126 0.52351 -0.64000
C 	C 	0.70358 0.41378 0.39787 0.33000
O 	O 	0.68542 0.40044 0.86410 -0.37600
C 	C 	0.69517 0.21089 0.18250 -0.10400
C 	C 	0.06082 0.00945 0.35320 -0.01800
O 	O 	0.69216 0.22492 0.06907 -0.35400
C 	C 	0.70064 0.24809 0.13567 0.33200
F 	F 	0.19878 0.01068 0.43354 -0.39900
Cu	Cu	0.70592 0.37417 0.94853 0.90200
C 	C 	0.70559 0.54880 0.33159 0.30100
Cu	Cu	0.70671 0.30532 0.60351 0.87900
C 	C 	0.71624 0.26779 0.30262 0.33000
H 	H 	0.71292 0.38684 0.53570 0.20400
Cu	Cu	0.72307 0.37290 0.10647 0.91200
H 	H 	0.71229 0.05629 0.43980 0.13800
C 	C 	0.71776 0.20681 0.90319 0.34700
O 	O 	0.71779 0.24284 0.56013 -0.39500
O 	O 	0.72767 0.31092 0.15797 -0.35100
C 	C 	0.72250 0.47949 0.39207 -0.13500
C 	C 	0.73297 0.11919 0.90853 0.38200
Cu	Cu	0.73220 0.32517 0.44400 0.93800
C 	C 	0.73268 0.24059 0.25542 -0.10000
O 	O 	0.73651 0.34634 0.02051 -0.63800
O 	O 	0.73686 0.25744 0.87287 -0.42800
C 	C 	0.73460 0.14916 0.48329 0.37400
H 	H 	0.75098 0.04832 0.92420 0.14200
O 	O 	0.75285 0.29383 0.36616 -0.35000
O 	O 	0.74970 0.40459 0.40756 -0.32500
C 	C 	0.75134 0.10769 0.46150 -0.13800
H 	H 	0.74642 0.55320 0.96234 0.10600
F 	F 	0.73985 0.68506 0.45952 -0.40200
C 	C 	0.76099 0.18618 0.91420 -0.14600
O 	O 	0.77587 0.46890 0.10369 -0.32800
C 	C 	0.76765 0.26131 0.52760 0.33700
H 	H 	0.77059 0.23439 0.27251 0.10300
C 	C 	0.76194 0.60495 0.37598 0.02200
C 	C 	0.77311 0.10006 0.92809 -0.13500
O 	O 	0.77348 0.46645 0.98522 -0.36700
H 	H 	0.78209 0.35973 0.02078 0.18400
C 	C 	0.77991 0.49597 0.04803 0.33500
C 	C 	0.77814 0.53571 0.43740 0.37500
C 	C 	0.78489 0.21629 0.51015 -0.14500
C 	C 	0.77627 0.70992 0.40877 0.31000
C 	C 	0.78443 0.58775 0.00752 -0.05600
C 	C 	0.78600 0.67097 0.36418 0.01400
O 	O 	0.79335 0.31370 0.49914 -0.36100
F 	F 	0.04838 0.90585 0.02299 -0.38600
F 	F 	0.79617 0.02974 0.53351 -0.40700
C 	C 	0.79769 0.59813 0.42930 -0.13500
C 	C 	0.80644 0.56580 0.05828 -0.13000
F 	F 	0.79169 0.67520 0.96378 -0.39600
H 	H 	0.79973 0.80551 0.43852 0.11300
C 	C 	0.80566 0.77519 0.40231 -0.07800
F 	F 	0.81292 0.52984 0.48956 -0.43600
C 	C 	0.81204 0.65441 0.01431 0.29800
F 	F 	0.81268 0.76876 0.12104 -0.38500
C 	C 	0.81825 0.13274 0.46629 0.02500
C 	C 	0.82273 0.69673 0.31118 -0.12400
C 	C 	0.82395 0.03920 0.47543 0.32000
F 	F 	0.82560 0.09098 0.07548 -0.40700
C 	C 	0.82980 0.23361 0.93734 -0.05000
H 	H 	0.82982 0.66667 0.27610 0.13300
C 	C 	0.83558 0.08941 0.44018 0.00300
C 	C 	0.84141 0.14760 0.95397 0.02500
H 	H 	0.84113 0.64130 0.46387 0.13100
H 	H 	0.07156 0.95367 0.42230 0.13300
C 	C 	0.84544 0.80216 0.35161 -0.07700
C 	C 	0.85183 0.24115 0.51560 -0.05100
H 	H 	0.85187 0.28540 0.94221 0.09100
C 	C 	0.85501 0.61114 0.11735 0.37500
C 	C 	0.85251 0.76202 0.30494 0.36000
H 	H 	0.83454 0.96195 0.48012 0.11600
C 	C 	0.86195 0.69979 0.07203 0.03200
N 	N 	0.86010 0.90691 0.36689 -0.13500
C 	C 	0.86426 0.09861 0.38016 -0.11300
C 	C 	0.00106 0.97649 0.07425 0.24700
C 	C 	0.86852 0.19956 0.49410 0.29000
C 	C 	0.86984 0.21447 0.95746 0.28900
H 	H 	0.87245 0.13658 0.35207 0.13200
C 	C 	0.87233 0.09869 0.03939 0.31400
C 	C 	0.87155 0.80289 0.09863 0.33200
C 	C 	0.87296 0.01015 0.39292 -0.05900
F 	F 	0.87759 0.59119 0.16670 -0.42700
C 	C 	0.99799 0.06310 0.04928 0.18600
C 	C 	0.91045 0.07821 0.06241 -0.08500
H 	H 	0.90199 0.05591 0.10855 0.13200
C 	C 	0.88301 0.05930 0.35664 0.34900
F 	F 	0.91090 0.06891 0.29861 -0.40400
F 	F 	0.93347 0.22419 0.49995 -0.40600
C 	C 	0.93186 0.13605 0.94326 -0.10400
C 	C 	0.88263 0.12733 0.97939 0.00500
C 	C 	0.95958 0.08676 0.02619 -0.05900
C 	C 	0.97034 0.11603 0.96659 0.32800
H 	H 	0.93991 0.15784 0.89679 0.13200
F 	F 	0.93587 0.26095 0.98232 -0.40800
H 	H 	0.89092 0.29278 0.53616 0.10100
C 	C 	0.88243 0.67778 0.12406 -0.14300
H 	H 	0.92103 0.71262 0.16870 0.14200
F 	F 	0.88993 0.78688 0.25496 -0.42100
C 	C 	0.89787 0.77079 0.07407 0.01300
H 	H 	0.97823 0.78148 0.03021 0.12300
N 	N 	0.96343 0.00638 0.36544 -0.10000
C 	C 	0.95808 0.80620 0.04993 -0.12000
C 	C 	0.90592 0.87031 0.09995 -0.06800
C 	C 	0.99183 0.87319 0.04983 0.34000
C 	C 	0.88555 0.87354 0.35268 0.19500
H 	H 	0.88573 0.89488 0.12001 0.11900
C 	C 	0.96611 0.90585 0.07528 -0.09800
N 	N 	0.95000 0.90690 0.34534 -0.12100
C 	C 	0.98906 0.97321 0.35180 0.15400
C 	C 	0.89893 0.97337 0.37281 0.18500
C 	C 	0.84236 0.99960 0.45169 -0.09600
C 	C 	0.09658 0.99283 0.39273 -0.11000
N 	N 	0.96586 0.99945 0.05654 -0.15000
