data_crystal

_cell_length_a 20.49504
_cell_length_b 21.40511
_cell_length_c 44.50532
_cell_angle_alpha 60.62318
_cell_angle_beta  119.11381
_cell_angle_gamma 133.27887

_symmetry_space_group_name_	'P 1'
_symmetry_space_group_name_H-M	'P 1'

loop_
_symmetry_equiv_pos_as_xyz
  x,y,z

loop_
_atom_site_label
_atom_site_type_symbol
_atom_site_fract_x
_atom_site_fract_y
_atom_site_fract_z
_atom_site_charge
C 	C 	0.71592 0.29365 0.01518 0.17500
N 	N 	0.62305 0.24826 0.00839 -0.11700
C 	C 	0.58752 0.26214 0.02157 0.18500
N 	N 	0.64455 0.32300 0.04061 -0.12600
C 	C 	0.71713 0.29460 0.51033 0.17400
N 	N 	0.64923 0.32214 0.53844 -0.12500
C 	C 	0.59136 0.25381 0.52312 0.18200
N 	N 	0.62529 0.24024 0.50894 -0.11600
C 	C 	0.29332 0.64295 0.14715 0.17900
N 	N 	0.38538 0.68227 0.16221 -0.11700
C 	C 	0.42989 0.65848 0.16030 0.18300
N 	N 	0.38097 0.59096 0.14561 -0.12300
C 	C 	0.28849 0.54580 0.13339 0.18400
N 	N 	0.24404 0.57290 0.13319 -0.11500
C 	C 	0.28068 0.63839 0.64667 0.18000
N 	N 	0.37453 0.68575 0.65762 -0.11700
C 	C 	0.41957 0.66241 0.65576 0.18300
N 	N 	0.37051 0.58947 0.64453 -0.12400
C 	C 	0.27750 0.53957 0.63489 0.18400
N 	N 	0.23168 0.56451 0.63526 -0.11500
Co	Co	0.01156 0.08997 0.06671 1.18700
Co	Co	0.04695 0.00981 0.03234 1.16800
Co	Co	0.05640 0.86435 0.03259 1.18300
C 	C 	0.20671 0.05520 0.02074 0.29300
O 	O 	0.04347 0.07879 0.16754 -0.35100
C 	C 	0.03231 0.00392 0.18830 0.19400
O 	O 	0.05799 0.11638 0.02762 -0.43700
C 	C 	0.11662 0.23601 0.10070 0.33700
C 	C 	0.14897 0.83318 0.10812 0.31800
O 	O 	0.02522 0.95281 0.17620 -0.30100
O 	O 	0.16415 0.88237 0.07640 -0.35300
O 	O 	0.10623 0.83624 0.12206 -0.33500
O 	O 	0.03420 0.20634 0.09892 -0.38700
O 	O 	0.12669 0.19335 0.09137 -0.36500
O 	O 	0.02526 0.90827 0.05330 -0.72800
O 	O 	0.14245 0.99126 0.00463 -0.35000
O 	O 	0.18478 0.06957 0.03899 -0.37500
Co	Co	0.01291 0.09232 0.56510 1.18800
Co	Co	0.06098 0.01406 0.53548 1.17300
Co	Co	0.05716 0.85797 0.53556 1.18400
C 	C 	0.22867 0.03393 0.54180 0.27400
O 	O 	0.02571 0.07353 0.66285 -0.40600
C 	C 	0.00995 0.99720 0.68393 0.36200
O 	O 	0.07347 0.12192 0.53036 -0.43100
C 	C 	0.11111 0.23337 0.60058 0.33900
C 	C 	0.09572 0.78097 0.61298 0.33400
O 	O 	0.00237 0.94387 0.67290 -0.35400
O 	O 	0.04986 0.76089 0.58238 -0.38400
O 	O 	0.08743 0.82735 0.62086 -0.35100
O 	O 	0.02748 0.20594 0.59545 -0.38700
O 	O 	0.12402 0.19055 0.59285 -0.36500
O 	O 	0.02556 0.90730 0.55335 -0.72900
O 	O 	0.19360 0.94924 0.55488 -0.32200
O 	O 	0.20008 0.06737 0.54690 -0.35900
C 	C 	0.01460 0.93141 0.89757 -0.04600
C 	C 	0.01779 0.92811 0.93055 0.05100
C 	C 	0.01711 0.96966 0.82172 -0.02300
C 	C 	0.00165 0.96094 0.78673 0.07400
C 	C 	0.05088 0.94026 0.78422 -0.06700
C 	C 	0.04812 0.94486 0.75087 0.06900
H 	H 	0.04675 0.90804 0.89687 0.07500
H 	H 	0.05336 0.90324 0.95456 0.03900
H 	H 	0.08414 0.99077 0.84015 0.06900
H 	H 	0.09351 0.92323 0.80797 0.08200
H 	H 	0.08966 0.93267 0.74940 0.05700
C 	C 	0.06667 0.04763 0.38147 -0.07900
C 	C 	0.07232 0.05743 0.41192 0.00500
C 	C 	0.03103 0.01655 0.31291 -0.14400
C 	C 	0.03254 0.99283 0.28661 0.16600
C 	C 	0.11649 0.03951 0.27853 -0.10900
C 	C 	0.11757 0.03268 0.24888 -0.02100
C 	C 	0.03464 0.98094 0.22624 0.04100
H 	H 	0.12771 0.09167 0.37135 0.07000
H 	H 	0.13774 0.10865 0.42463 0.05900
H 	H 	0.07276 0.08613 0.31200 0.08300
H 	H 	0.18085 0.08393 0.29436 0.08400
H 	H 	0.18270 0.07182 0.24240 0.07500
C 	C 	0.21664 0.39672 0.58680 0.12100
C 	C 	0.18900 0.31603 0.61251 -0.10400
C 	C 	0.20319 0.31467 0.64696 0.11200
C 	C 	0.21350 0.38079 0.65251 0.08300
C 	C 	0.22785 0.45739 0.62503 -0.03900
C 	C 	0.22845 0.46456 0.59180 0.08400
Br	Br	0.24738 0.56785 0.55360 -0.11500
Br	Br	0.25160 0.41839 0.54788 -0.12500
Br	Br	0.21234 0.36851 0.69816 -0.14700
Br	Br	0.22365 0.23151 0.68666 -0.17400
C 	C 	0.56223 0.81306 0.64265 0.08800
C 	C 	0.52095 0.72326 0.65993 -0.04300
C 	C 	0.56930 0.68798 0.67060 0.08500
C 	C 	0.64701 0.73686 0.65739 0.11400
C 	C 	0.67650 0.82144 0.63366 -0.10100
C 	C 	0.62961 0.85687 0.62504 0.11200
Br	Br	0.65693 0.96503 0.58924 -0.12300
Br	Br	0.54747 0.88121 0.65182 -0.11900
Br	Br	0.53232 0.57564 0.70495 -0.13500
C 	C 	0.16750 0.63052 0.66022 0.08600
C 	C 	0.23472 0.67639 0.64157 -0.03800
C 	C 	0.26878 0.76478 0.62223 0.08500
C 	C 	0.24423 0.80875 0.62501 0.10800
C 	C 	0.16374 0.75935 0.63608 -0.09600
C 	C 	0.13143 0.67203 0.65713 0.11500
Br	Br	0.04608 0.61382 0.68443 -0.12400
Br	Br	0.12508 0.51244 0.68969 -0.12700
Br	Br	0.33205 0.93274 0.62304 -0.12300
Br	Br	0.33384 0.81961 0.58715 -0.10700
C 	C 	0.21695 0.32255 0.14550 0.11200
C 	C 	0.19595 0.32086 0.11077 -0.10400
C 	C 	0.21843 0.39981 0.08423 0.12200
C 	C 	0.23246 0.46837 0.08977 0.08500
C 	C 	0.23727 0.46296 0.12370 -0.03900
C 	C 	0.22693 0.38788 0.15142 0.08400
Br	Br	0.23104 0.37687 0.19784 -0.15000
Br	Br	0.24732 0.24546 0.18450 -0.17500
Br	Br	0.24684 0.56998 0.05133 -0.11700
Br	Br	0.24591 0.41937 0.04357 -0.12500
C 	C 	0.57743 0.67927 0.17546 0.08500
C 	C 	0.53215 0.71545 0.16779 -0.04300
C 	C 	0.58000 0.80746 0.15651 0.08800
C 	C 	0.65153 0.85764 0.14003 0.11300
C 	C 	0.69416 0.82144 0.14450 -0.10100
C 	C 	0.65917 0.73247 0.16412 0.11200
Br	Br	0.72568 0.68528 0.17783 -0.15800
Br	Br	0.53136 0.55961 0.20381 -0.13300
Br	Br	0.56616 0.86597 0.17241 -0.12400
C 	C 	0.30176 0.78101 0.12315 0.08500
C 	C 	0.25351 0.68955 0.13897 -0.03900
C 	C 	0.17645 0.64719 0.15133 0.08600
C 	C 	0.14662 0.69652 0.14601 0.10800
C 	C 	0.19698 0.78875 0.13024 -0.09000
C 	C 	0.28234 0.83092 0.12457 0.11600
Br	Br	0.37369 0.95611 0.12031 -0.10800
Br	Br	0.38032 0.83380 0.09373 -0.09900
Br	Br	0.04490 0.64042 0.16401 -0.13300
Br	Br	0.11216 0.52324 0.17525 -0.12800
Br	Br	0.57980 0.14866 0.46041 -0.13500
Br	Br	0.73132 0.66289 0.46799 -0.15100
Br	Br	0.73987 0.52012 0.46051 -0.13800
C 	C 	0.34381 0.05532 0.52480 0.08600
C 	C 	0.30987 0.09266 0.52627 -0.09200
C 	C 	0.35786 0.18560 0.51485 0.10900
C 	C 	0.44776 0.23869 0.51021 0.08600
C 	C 	0.49090 0.19873 0.51955 -0.04700
C 	C 	0.43769 0.10586 0.52697 0.09300
Br	Br	0.49365 0.04654 0.54396 -0.14000
Br	Br	0.25978 0.94890 0.50855 -0.13500
Br	Br	0.50679 0.36339 0.48739 -0.13300
Br	Br	0.29487 0.23847 0.49773 -0.16400
Br	Br	0.57661 0.13865 0.96883 -0.13100
Br	Br	0.01122 0.33514 0.01704 -0.13800
C 	C 	0.44545 0.25171 0.00455 0.08300
C 	C 	0.48733 0.20933 0.01636 -0.04900
C 	C 	0.43518 0.11663 0.02731 0.09300
C 	C 	0.34093 0.06660 0.02458 0.08600
C 	C 	0.30318 0.10869 0.01891 -0.09700
C 	C 	0.35511 0.20184 0.00772 0.10600
Br	Br	0.30037 0.26072 0.99379 -0.14700
Br	Br	0.50970 0.37686 0.98208 -0.12600
Br	Br	0.26330 0.94509 0.02237 -0.15600
Br	Br	0.49388 0.05794 0.04851 -0.14000
C 	C 	0.73603 0.37786 0.04291 0.18100
C 	C 	0.73764 0.38372 0.53547 0.18200
Br	Br	0.71492 0.68978 0.67320 -0.15900
Br	Br	0.68779 0.97418 0.11051 -0.13300
C 	C 	0.69946 0.18663 0.49255 0.08600
Br	Br	0.65828 0.02571 0.49382 -0.15500
C 	C 	0.69556 0.17777 0.00171 0.08300
Br	Br	0.65149 0.00988 0.01016 -0.16100
C 	C 	0.01920 0.97654 0.46787 0.35000
O 	O 	0.07254 0.95025 0.48708 -0.37500
O 	O 	0.00025 0.00253 0.48243 -0.39600
C 	C 	0.75685 0.26852 0.50138 -0.03800
C 	C 	0.73686 0.14197 0.50148 0.11800
C 	C 	0.73235 0.13153 0.01229 0.11800
Br	Br	0.01816 0.34267 0.51440 -0.13400
C 	C 	0.75404 0.26242 0.00841 -0.03700
N 	N 	0.77294 0.36093 0.03172 -0.11700
C 	C 	0.77043 0.53245 0.50656 0.08500
N 	N 	0.77311 0.36823 0.52285 -0.11700
C 	C 	0.77062 0.88320 0.62780 0.34100
Br	Br	0.75806 0.67043 0.98323 -0.14700
Br	Br	0.76966 0.53301 0.97264 -0.13500
C 	C 	0.78822 0.46496 0.04885 -0.04100
C 	C 	0.78617 0.53251 0.01923 0.08200
C 	C 	0.77696 0.59945 0.50926 0.11500
C 	C 	0.78513 0.47366 0.53745 -0.04200
C 	C 	0.78726 0.88268 0.13745 0.33700
C 	C 	0.99810 0.99453 0.42861 -0.05100
Br	Br	0.81400 0.38067 0.12410 -0.13900
C 	C 	0.99598 0.97001 0.71959 -0.11500
C 	C 	0.80515 0.46881 0.08290 0.08400
O 	O 	0.97738 0.73502 0.06010 -0.39700
O 	O 	0.98273 0.99303 0.97920 -0.32900
Br	Br	0.80212 0.52489 0.12957 -0.13000
C 	C 	0.81412 0.53630 0.08665 0.11800
Co	Co	0.99565 0.85026 0.09293 1.18500
Co	Co	0.94847 0.92578 0.12517 1.19300
C 	C 	0.89627 0.69767 0.06303 0.33800
Co	Co	0.94184 0.07720 0.12304 1.16700
O 	O 	0.96598 0.02583 0.10277 -0.77200
O 	O 	0.95301 0.82592 0.13298 -0.42400
O 	O 	0.97469 0.95698 0.07374 -0.55300
C 	C 	0.96001 0.93046 0.96825 0.30100
O 	O 	0.84900 0.95287 0.15024 -0.37500
O 	O 	0.81132 0.86037 0.12352 -0.34800
O 	O 	0.94776 0.85647 0.99102 -0.36500
C 	C 	0.86692 0.12302 0.04611 0.32600
O 	O 	0.84275 0.06921 0.07633 -0.37200
O 	O 	0.91867 0.12571 0.03479 -0.35000
O 	O 	0.88553 0.73381 0.07583 -0.35200
Co	Co	0.98024 0.84375 0.58925 1.18600
Co	Co	0.93609 0.92353 0.62059 1.19400
C 	C 	0.86827 0.71157 0.54309 0.32300
Co	Co	0.92955 0.07657 0.61679 1.16700
O 	O 	0.95816 0.02556 0.59859 -0.77200
O 	O 	0.93290 0.81924 0.62776 -0.42500
O 	O 	0.97294 0.95879 0.57114 -0.55200
O 	O 	0.83060 0.95199 0.64135 -0.37700
O 	O 	0.79740 0.86188 0.61474 -0.34800
C 	C 	0.86783 0.12918 0.53905 0.32500
O 	O 	0.83782 0.07387 0.56816 -0.37300
O 	O 	0.92508 0.13347 0.53031 -0.34700
O 	O 	0.91737 0.77453 0.51921 -0.37600
O 	O 	0.87070 0.73054 0.56842 -0.33900
C 	C 	0.97115 0.95195 0.93276 -0.08400
C 	C 	0.92430 0.98266 0.90118 0.06900
C 	C 	0.92144 0.98642 0.86799 -0.02400
C 	C 	0.96586 0.95996 0.86594 0.04600
C 	C 	0.95005 0.95096 0.83100 -0.04200
C 	C 	0.94389 0.98704 0.72233 0.08700
C 	C 	0.94768 0.98383 0.75541 -0.04900
H 	H 	0.88719 0.00039 0.90225 0.02200
H 	H 	0.88273 0.00775 0.84397 0.03700
H 	H 	0.88283 0.92942 0.81272 0.06900
H 	H 	0.90453 0.00802 0.69855 -0.00100
H 	H 	0.91207 0.00333 0.75631 0.03800
C 	C 	0.91386 0.92921 0.41137 0.02700
C 	C 	0.90733 0.92028 0.38046 -0.05200
C 	C 	0.98472 0.97719 0.36604 0.07000
C 	C 	0.98269 0.95398 0.33838 0.02300
C 	C 	0.95129 0.92775 0.23623 -0.00500
C 	C 	0.95002 0.93449 0.26592 -0.08300
H 	H 	0.85562 0.88044 0.42353 0.06400
H 	H 	0.84330 0.86623 0.36883 0.07600
H 	H 	0.93974 0.88454 0.33872 0.04900
H 	H 	0.88674 0.88549 0.21976 0.06500
H 	H 	0.88454 0.89778 0.27162 0.08100
C 	C 	0.85321 0.31792 0.50651 0.08200
C 	C 	0.89069 0.27508 0.51295 0.10300
C 	C 	0.83252 0.18382 0.51491 -0.10100
Br	Br	0.92969 0.44543 0.49642 -0.13300
C 	C 	0.81607 0.48873 0.57084 0.08300
C 	C 	0.82427 0.55714 0.57339 0.11100
C 	C 	0.81389 0.61831 0.54236 -0.10100
Br	Br	0.83302 0.55700 0.61844 -0.14300
Br	Br	0.84706 0.41536 0.61303 -0.14500
C 	C 	0.82851 0.17536 0.02320 -0.10300
C 	C 	0.88645 0.26774 0.01905 0.10300
C 	C 	0.84985 0.31140 0.01263 0.08300
Br	Br	0.92669 0.43898 0.00218 -0.13700
C 	C 	0.79305 0.59784 0.02353 0.10700
C 	C 	0.82209 0.60784 0.05760 -0.10300
