data_crystal

_cell_length_a 24.49647
_cell_length_b 21.29893
_cell_length_c 19.45407
_cell_angle_alpha 92.73196
_cell_angle_beta  85.29663
_cell_angle_gamma 124.79473

_symmetry_space_group_name_	'P 1'
_symmetry_space_group_name_H-M	'P 1'

loop_
_symmetry_equiv_pos_as_xyz
  x,y,z

loop_
_atom_site_label
_atom_site_type_symbol
_atom_site_fract_x
_atom_site_fract_y
_atom_site_fract_z
_atom_site_charge
C 	C 	0.91193 0.10705 0.88803 0.03900
C 	C 	0.92021 0.07364 0.82787 -0.02700
C 	C 	0.95621 0.04114 0.82798 -0.05000
C 	C 	0.98244 0.03952 0.88880 0.06900
C 	C 	0.97504 0.07444 0.94892 -0.05200
C 	C 	0.94003 0.10802 0.94831 -0.01900
N 	N 	0.01097 0.99604 0.89024 -0.13000
C 	C 	0.18787 0.09640 0.99694 0.01900
C 	C 	0.12560 0.04872 0.03251 0.00300
C 	C 	0.06726 0.01555 0.99803 -0.07500
C 	C 	0.07061 0.03078 0.92742 0.09400
C 	C 	0.13300 0.07872 0.89213 -0.05800
C 	C 	0.19138 0.11076 0.92645 -0.00700
C 	C 	0.87189 0.75689 0.92246 0.03700
C 	C 	0.92093 0.78439 0.86768 -0.02100
C 	C 	0.96640 0.86308 0.85742 -0.07200
C 	C 	0.96296 0.91497 0.90136 0.07300
C 	C 	0.91224 0.88716 0.95496 -0.05400
C 	C 	0.86787 0.80861 0.96613 -0.02400
H 	H 	0.89733 0.07118 0.78159 0.05400
H 	H 	0.96155 0.01445 0.78154 0.05100
H 	H 	0.99435 0.07346 0.99651 0.05600
H 	H 	0.93347 0.13334 0.99511 0.06600
H 	H 	0.12242 0.03721 0.08687 0.05900
H 	H 	0.01975 0.97965 0.02654 0.07300
H 	H 	0.13616 0.09041 0.83786 0.06300
H 	H 	0.23933 0.14664 0.89828 0.06500
H 	H 	0.92418 0.74481 0.83349 0.05500
H 	H 	0.00444 0.88391 0.81535 0.07200
H 	H 	0.90842 0.92621 0.98911 0.05600
H 	H 	0.83055 0.78788 0.00894 0.07600
C 	C 	0.92837 0.13319 0.51310 0.03600
C 	C 	0.94750 0.08942 0.47693 -0.02300
C 	C 	0.97128 0.05481 0.51210 -0.05300
C 	C 	0.97633 0.06395 0.58413 0.06900
C 	C 	0.95798 0.10853 0.61984 -0.05000
C 	C 	0.93329 0.14217 0.58477 -0.01700
N 	N 	0.00114 0.02903 0.62162 -0.12700
C 	C 	0.20997 0.13573 0.62194 0.03600
C 	C 	0.16676 0.08396 0.67411 -0.02300
C 	C 	0.09871 0.05326 0.67658 -0.05400
C 	C 	0.07288 0.07214 0.62561 0.08600
C 	C 	0.11746 0.12895 0.57656 -0.05300
C 	C 	0.18557 0.16084 0.57538 -0.01200
C 	C 	0.90438 0.79210 0.57652 0.03100
C 	C 	0.96638 0.84568 0.54295 -0.00800
C 	C 	0.99843 0.92354 0.55732 -0.07600
C 	C 	0.96917 0.94855 0.60660 0.07600
C 	C 	0.90809 0.89457 0.64145 -0.05500
C 	C 	0.87574 0.81670 0.62642 -0.02200
H 	H 	0.94396 0.08225 0.42160 0.06100
H 	H 	0.98727 0.02266 0.48333 0.06200
H 	H 	0.96345 0.11761 0.67470 0.06000
H 	H 	0.91812 0.17539 0.61323 0.07100
H 	H 	0.18555 0.06585 0.71149 0.05400
H 	H 	0.06543 0.01189 0.71608 0.05700
H 	H 	0.09973 0.14745 0.53859 0.07300
H 	H 	0.21912 0.20290 0.53644 0.07000
H 	H 	0.98908 0.82706 0.50479 0.06400
H 	H 	0.04525 0.96446 0.52941 0.08500
H 	H 	0.88554 0.91315 0.67981 0.06100
H 	H 	0.82814 0.77556 0.65304 0.06500
Co	Co	0.69980 0.29625 0.96285 1.19200
O 	O 	0.76624 0.28770 0.89529 -0.35100
Co	Co	0.56540 0.29267 0.01847 1.19400
O 	O 	0.60408 0.24076 0.93713 -0.45400
O 	O 	0.64107 0.40315 0.01151 -0.38200
O 	O 	0.70285 0.19772 0.96628 -0.31200
C 	C 	0.69832 0.43296 0.97363 0.37400
O 	O 	0.54570 0.28071 0.91151 -0.31600
C 	C 	0.44767 0.22111 0.08110 0.31900
C 	C 	0.67686 0.31621 0.09650 0.32600
O 	O 	0.49242 0.29404 0.08114 -0.34600
O 	O 	0.47169 0.18758 0.04699 -0.30500
O 	O 	0.73308 0.33642 0.06415 -0.31000
O 	O 	0.62675 0.27031 0.05984 -0.44500
O 	O 	0.71023 0.39039 0.93196 -0.52300
C 	C 	0.74785 0.22131 0.91593 0.32000
C 	C 	0.58229 0.25748 0.88770 0.33900
H 	H 	0.73676 0.41260 0.88633 0.20600
Co	Co	0.74345 0.33121 0.47822 1.19100
O 	O 	0.81822 0.32938 0.41963 -0.35800
Co	Co	0.60907 0.33131 0.52427 1.19100
O 	O 	0.65628 0.29502 0.43572 -0.42900
O 	O 	0.68786 0.43653 0.54336 -0.39900
O 	O 	0.73686 0.22685 0.46523 -0.29800
C 	C 	0.74986 0.47052 0.51572 0.36700
O 	O 	0.60894 0.35158 0.41765 -0.33500
C 	C 	0.48777 0.25395 0.57595 0.31300
C 	C 	0.69716 0.31722 0.60972 0.33800
O 	O 	0.53289 0.32484 0.58790 -0.32900
O 	O 	0.51047 0.22623 0.53110 -0.31400
O 	O 	0.75676 0.33943 0.58691 -0.31700
O 	O 	0.65590 0.28804 0.56185 -0.44800
O 	O 	0.76693 0.43685 0.46797 -0.53300
C 	C 	0.79228 0.25748 0.42813 0.32200
C 	C 	0.64683 0.33095 0.39147 0.32300
H 	H 	0.80277 0.46929 0.43058 0.18800
C 	C 	0.61626 0.27733 0.81798 -0.11400
C 	C 	0.62706 0.33931 0.78045 0.19500
C 	C 	0.65509 0.35263 0.71287 -0.04400
C 	C 	0.67530 0.30743 0.68293 -0.09500
C 	C 	0.66824 0.24865 0.72135 0.19400
C 	C 	0.63851 0.23362 0.78844 -0.04800
H 	H 	0.66135 0.39857 0.68351 0.09000
H 	H 	0.63180 0.18712 0.81732 0.08800
Cl	Cl	0.61073 0.40442 0.81820 -0.27800
Cl	Cl	0.69473 0.19200 0.68545 -0.27100
C 	C 	0.65772 0.32577 0.31671 -0.10100
C 	C 	0.62393 0.25460 0.28255 0.18800
C 	C 	0.63010 0.25189 0.21045 -0.04000
C 	C 	0.66968 0.31968 0.17206 -0.09500
C 	C 	0.70333 0.39067 0.20630 0.18300
C 	C 	0.69743 0.39334 0.27827 -0.04100
H 	H 	0.60417 0.19708 0.18432 0.09900
H 	H 	0.72281 0.44821 0.30436 0.07600
Cl	Cl	0.57195 0.16859 0.32910 -0.25900
Cl	Cl	0.75033 0.47693 0.15952 -0.28100
C 	C 	0.86877 0.71025 0.55847 0.00200
C 	C 	0.83875 0.68304 0.49519 0.13700
C 	C 	0.80333 0.60491 0.47990 -0.01400
C 	C 	0.79648 0.55322 0.52770 -0.13100
C 	C 	0.82739 0.58055 0.59044 0.20900
C 	C 	0.86355 0.65882 0.60542 -0.09600
H 	H 	0.77910 0.58401 0.43182 0.07200
H 	H 	0.88694 0.67957 0.65396 0.08900
Cl	Cl	0.84243 0.74569 0.43604 -0.29400
Cl	Cl	0.82092 0.51733 0.65092 -0.31400
C 	C 	0.90002 0.16654 0.47657 0.00300
C 	C 	0.93285 0.24638 0.47297 0.12900
C 	C 	0.89963 0.27673 0.45031 -0.01900
C 	C 	0.83384 0.22789 0.43068 -0.09500
C 	C 	0.80445 0.14860 0.42625 0.20400
C 	C 	0.83718 0.11821 0.45007 -0.09000
H 	H 	0.92378 0.33806 0.45134 0.08600
H 	H 	0.81282 0.05682 0.45005 0.09700
Cl	Cl	0.01531 0.30891 0.49723 -0.26400
Cl	Cl	0.72632 0.08665 0.39160 -0.26300
C 	C 	0.27991 0.16021 0.61332 -0.00300
C 	C 	0.30259 0.13742 0.55496 0.14400
C 	C 	0.37037 0.16773 0.54350 -0.02600
C 	C 	0.41592 0.21918 0.59086 -0.09000
C 	C 	0.39234 0.23727 0.65200 0.19700
C 	C 	0.32476 0.20884 0.66226 -0.08800
H 	H 	0.38767 0.15166 0.49741 0.09900
H 	H 	0.30713 0.22459 0.70831 0.09300
Cl	Cl	0.24628 0.06942 0.49666 -0.28900
Cl	Cl	0.44587 0.29158 0.71797 -0.26900
C 	C 	0.82697 0.67403 0.93632 -0.00000
C 	C 	0.75798 0.63399 0.92921 0.14000
C 	C 	0.71593 0.55611 0.94521 -0.00800
C 	C 	0.74232 0.51680 0.96562 -0.11600
C 	C 	0.81144 0.55672 0.97201 0.20900
C 	C 	0.85321 0.63509 0.95807 -0.09200
H 	H 	0.66292 0.52554 0.93946 0.09800
H 	H 	0.90622 0.66577 0.96393 0.09300
Cl	Cl	0.72401 0.67976 0.89701 -0.28400
Cl	Cl	0.84646 0.50939 0.99757 -0.30100
C 	C 	0.78969 0.19206 0.90362 -0.09300
C 	C 	0.76044 0.11283 0.89863 0.20200
C 	C 	0.80085 0.08568 0.89197 -0.09000
C 	C 	0.87041 0.13690 0.88917 -0.00400
C 	C 	0.89973 0.21616 0.89074 0.14300
C 	C 	0.85937 0.24339 0.89818 -0.02300
H 	H 	0.77816 0.02464 0.88953 0.09500
H 	H 	0.88224 0.30445 0.90085 0.09300
Cl	Cl	0.67335 0.04707 0.89807 -0.27200
Cl	Cl	0.98697 0.28193 0.88297 -0.28900
C 	C 	0.24957 0.12874 0.03279 0.01100
C 	C 	0.29419 0.20829 0.04130 0.14000
C 	C 	0.35718 0.23855 0.06484 -0.02200
C 	C 	0.37612 0.18988 0.08005 -0.09200
C 	C 	0.32795 0.11016 0.08068 0.20300
C 	C 	0.26550 0.07992 0.05571 -0.09300
H 	H 	0.39248 0.30001 0.06788 0.09500
H 	H 	0.22995 0.01848 0.05262 0.09800
Cl	Cl	0.27188 0.27065 0.02252 -0.27300
Cl	Cl	0.34498 0.04768 0.11324 -0.26400
