data_crystal

_cell_length_a 31.39669
_cell_length_b 26.14674
_cell_length_c 35.39847
_cell_angle_alpha 89.94243
_cell_angle_beta  89.92600
_cell_angle_gamma 90.86990

_symmetry_space_group_name_	'P 1'
_symmetry_space_group_name_H-M	'P 1'

loop_
_symmetry_equiv_pos_as_xyz
  x,y,z

loop_
_atom_site_label
_atom_site_type_symbol
_atom_site_fract_x
_atom_site_fract_y
_atom_site_fract_z
_atom_site_charge
Zn	Zn	0.49471 0.49811 0.98649 1.22700
C 	C 	0.57054 0.43665 0.98329 0.32600
O 	O 	0.50370 0.54344 0.94343 -0.46700
O 	O 	0.54894 0.40839 0.95910 -0.44400
O 	O 	0.55414 0.50146 0.91168 -0.47000
C 	C 	0.44925 0.40813 0.96594 0.33000
O 	O 	0.46890 0.43134 0.99396 -0.44500
O 	O 	0.45859 0.42041 0.93073 -0.48300
C 	C 	0.54126 0.54375 0.92751 0.33000
O 	O 	0.42628 0.53195 0.99469 -0.30300
Zn	Zn	0.51656 0.44090 0.91483 1.17600
O 	O 	0.55436 0.47933 0.99632 -0.41800
C 	C 	0.44275 0.55686 0.02292 0.28100
O 	O 	0.48248 0.54766 0.02947 -0.35000
Zn	Zn	0.27980 0.16186 0.01055 1.23000
C 	C 	0.31630 0.16725 0.08539 0.34500
O 	O 	0.21768 0.15549 0.01769 -0.39900
O 	O 	0.30829 0.21643 0.08585 -0.43800
O 	O 	0.21615 0.19035 0.07644 -0.45200
C 	C 	0.31596 0.26270 0.00296 0.32200
O 	O 	0.32432 0.21377 0.00409 -0.42800
O 	O 	0.28045 0.27949 0.01767 -0.44700
C 	C 	0.20047 0.15835 0.05142 0.31500
O 	O 	0.27060 0.16462 0.94424 -0.25000
Zn	Zn	0.25432 0.24610 0.06147 1.17800
O 	O 	0.29844 0.13710 0.06010 -0.37300
C 	C 	0.28457 0.11819 0.94478 0.30200
O 	O 	0.29408 0.10061 0.97782 -0.30600
C 	C 	0.50452 0.95905 0.30339 0.15200
C 	C 	0.47384 0.98756 0.28419 -0.10300
H 	H 	0.45050 0.00886 0.30008 0.06800
C 	C 	0.47343 0.98850 0.24464 0.10100
C 	C 	0.50363 0.96092 0.22425 -0.10400
C 	C 	0.53430 0.93239 0.24331 0.09000
C 	C 	0.53480 0.93145 0.28291 -0.11300
H 	H 	0.55850 0.90945 0.29778 0.08300
N 	N 	0.50493 0.95826 0.34399 -0.18100
C 	C 	0.48223 0.92102 0.36291 0.19800
C 	C 	0.47930 0.92219 0.40261 -0.07100
C 	C 	0.49928 0.96227 0.42256 0.05300
C 	C 	0.52477 0.99806 0.40293 -0.05800
C 	C 	0.52704 0.99561 0.36324 0.20800
C 	C 	0.45787 0.88315 0.42256 0.01000
C 	C 	0.45481 0.88512 0.46187 -0.05000
C 	C 	0.47007 0.92846 0.48191 0.01300
C 	C 	0.49462 0.96583 0.46228 -0.00600
C 	C 	0.51600 0.00552 0.48221 -0.00200
C 	C 	0.54854 0.03469 0.42319 -0.01000
C 	C 	0.54555 0.03707 0.46249 -0.04400
C 	C 	0.46315 0.93397 0.52144 0.02100
C 	C 	0.48449 0.97370 0.54135 -0.01900
C 	C 	0.50898 0.01111 0.52170 0.01200
O 	O 	0.54998 0.02980 0.34444 -0.20800
O 	O 	0.46248 0.88449 0.34381 -0.19000
H 	H 	0.57045 0.06043 0.40870 0.05200
H 	H 	0.56784 0.06155 0.47741 0.04600
H 	H 	0.44468 0.85026 0.40782 0.05100
H 	H 	0.44263 0.85174 0.47653 0.05000
C 	C 	0.52407 0.05457 0.54170 -0.05800
C 	C 	0.52093 0.05666 0.58099 0.01500
C 	C 	0.49964 0.01755 0.60098 -0.09200
C 	C 	0.47985 0.97728 0.58108 0.07700
C 	C 	0.43375 0.90227 0.54122 -0.05500
C 	C 	0.43091 0.90457 0.58053 0.01600
C 	C 	0.45459 0.94132 0.60075 -0.08000
C 	C 	0.49668 0.01880 0.64067 0.19200
N 	N 	0.47429 0.98133 0.65965 -0.17700
C 	C 	0.45243 0.94373 0.64046 0.20300
C 	C 	0.47480 0.98059 0.70025 0.16800
C 	C 	0.50730 0.95507 0.71941 -0.11600
C 	C 	0.50799 0.95450 0.75897 0.08700
C 	C 	0.47619 0.97932 0.77938 -0.08500
C 	C 	0.44369 0.00485 0.76036 0.07600
C 	C 	0.44296 0.00553 0.72077 -0.12700
O 	O 	0.51606 0.05566 0.65973 -0.19900
O 	O 	0.42990 0.90921 0.65931 -0.18900
H 	H 	0.53186 0.93585 0.70351 0.08200
H 	H 	0.41793 0.02534 0.70593 0.08300
H 	H 	0.53621 0.08795 0.52699 0.05000
H 	H 	0.53398 0.08965 0.59569 0.04600
H 	H 	0.41146 0.87774 0.52635 0.05200
H 	H 	0.40913 0.87871 0.59506 0.05100
H 	H 	0.47676 0.97887 0.81004 0.07700
H 	H 	0.50327 0.96167 0.19359 0.08100
Zn	Zn	0.70599 0.78677 0.98843 1.22300
C 	C 	0.68297 0.77438 0.06702 0.35600
O 	O 	0.76834 0.79542 0.98698 -0.45400
O 	O 	0.69248 0.72573 0.06451 -0.38400
O 	O 	0.78099 0.75514 0.04267 -0.47300
C 	C 	0.67016 0.68540 0.98131 0.31500
O 	O 	0.66164 0.73399 0.98550 -0.38800
O 	O 	0.70785 0.66828 0.99038 -0.45000
C 	C 	0.79168 0.78970 0.01739 0.32700
O 	O 	0.70376 0.78931 0.92169 -0.31000
Zn	Zn	0.74132 0.69971 0.03089 1.18400
O 	O 	0.69590 0.80707 0.04106 -0.42400
C 	C 	0.68921 0.83508 0.92617 0.30500
O 	O 	0.68509 0.84980 0.96083 -0.36100
Zn	Zn	0.26220 0.72500 0.99909 1.22600
C 	C 	0.22971 0.70701 0.07446 0.34300
O 	O 	0.21081 0.76599 0.99900 -0.42800
O 	O 	0.23017 0.75663 0.08018 -0.43100
O 	O 	0.24444 0.83736 0.02131 -0.40300
C 	C 	0.34156 0.73131 0.03722 0.32600
O 	O 	0.32345 0.73469 0.00399 -0.41900
O 	O 	0.32453 0.75438 0.06627 -0.44200
C 	C 	0.21115 0.81546 0.00524 0.31600
O 	O 	0.27001 0.74013 0.93345 -0.27400
Zn	Zn	0.27856 0.80274 0.05950 1.19100
O 	O 	0.25136 0.68724 0.04637 -0.43800
C 	C 	0.25692 0.69309 0.92970 0.30300
O 	O 	0.24873 0.66920 0.96093 -0.36500
C 	C 	0.03108 0.51193 0.29682 0.15300
C 	C 	0.00167 0.48161 0.27667 -0.11400
H 	H 	0.97813 0.45874 0.29179 0.08100
C 	C 	0.00273 0.48113 0.23709 0.08700
C 	C 	0.03314 0.51087 0.21771 -0.10100
C 	C 	0.06244 0.54119 0.23776 0.08700
C 	C 	0.06146 0.54168 0.27730 -0.11500
H 	H 	0.08406 0.56519 0.29293 0.08000
N 	N 	0.02992 0.51288 0.33740 -0.18200
C 	C 	0.05365 0.47866 0.35746 0.19900
C 	C 	0.05611 0.48215 0.39710 -0.07800
C 	C 	0.03449 0.52140 0.41579 0.06300
C 	C 	0.00791 0.55377 0.39506 -0.07700
C 	C 	0.00620 0.54909 0.35546 0.20000
C 	C 	0.07877 0.44621 0.41824 0.01300
C 	C 	0.08143 0.45059 0.45745 -0.05500
C 	C 	0.06441 0.49353 0.47615 0.01800
C 	C 	0.03864 0.52751 0.45538 -0.02700
C 	C 	0.01562 0.56622 0.47407 0.01900
C 	C 	0.98260 0.58922 0.41416 0.01300
C 	C 	0.98512 0.59395 0.45335 -0.05500
C 	C 	0.07080 0.50182 0.51548 0.01800
C 	C 	0.04777 0.54052 0.53416 -0.02600
C 	C 	0.02206 0.57453 0.51338 0.01800
O 	O 	0.98228 0.58020 0.33560 -0.19300
O 	O 	0.07485 0.44293 0.33951 -0.19500
H 	H 	0.95991 0.61214 0.39885 0.05000
H 	H 	0.96180 0.61713 0.46748 0.05100
H 	H 	0.09328 0.41380 0.40452 0.04800
H 	H 	0.09473 0.41920 0.47313 0.05000
C 	C 	0.00511 0.61752 0.53206 -0.05400
C 	C 	0.00775 0.62191 0.57128 0.01400
C 	C 	0.03030 0.58588 0.59243 -0.07700
C 	C 	0.05186 0.54658 0.57376 0.06300
C 	C 	0.10124 0.47401 0.53623 -0.05400
C 	C 	0.10362 0.47863 0.57544 0.01300
C 	C 	0.07830 0.51407 0.59452 -0.07700
C 	C 	0.03267 0.58931 0.63208 0.19900
N 	N 	0.05616 0.55487 0.65217 -0.18100
C 	C 	0.07984 0.51861 0.63413 0.19900
C 	C 	0.05470 0.55558 0.69275 0.15300
C 	C 	0.08513 0.58394 0.71321 -0.11300
C 	C 	0.08394 0.58393 0.75280 0.08900
C 	C 	0.05228 0.55572 0.77188 -0.10000
C 	C 	0.02191 0.52737 0.75148 0.08900
C 	C 	0.02308 0.52735 0.71194 -0.11400
O 	O 	0.01163 0.62520 0.65002 -0.19200
O 	O 	0.10350 0.48726 0.65403 -0.19100
H 	H 	0.10962 0.60564 0.69833 0.08300
H 	H 	0.99974 0.50527 0.69605 0.08000
H 	H 	0.99186 0.64894 0.51637 0.05100
H 	H 	0.99329 0.65436 0.58499 0.05000
H 	H 	0.12459 0.45085 0.52213 0.05100
H 	H 	0.12625 0.45564 0.59077 0.05000
H 	H 	0.05145 0.55556 0.80253 0.07600
H 	H 	0.03387 0.51060 0.18705 0.07400
Zn	Zn	0.82671 0.34322 0.98457 1.22500
C 	C 	0.83803 0.37687 0.90744 0.35700
O 	O 	0.77546 0.38425 0.97792 -0.38100
O 	O 	0.79991 0.35850 0.89968 -0.40900
O 	O 	0.73595 0.31678 0.95634 -0.48800
C 	C 	0.85230 0.24544 0.95585 0.33200
O 	O 	0.84237 0.27135 0.98630 -0.46100
O 	O 	0.83344 0.25523 0.92366 -0.48500
C 	C 	0.73823 0.36304 0.97069 0.31400
O 	O 	0.81144 0.33611 0.05007 -0.31100
Zn	Zn	0.77915 0.28992 0.92242 1.17600
O 	O 	0.85765 0.36304 0.93844 -0.42400
C 	C 	0.84270 0.36868 0.05393 0.30900
O 	O 	0.86125 0.38341 0.02312 -0.36000
Zn	Zn	0.99418 0.00297 0.02522 1.22200
C 	C 	0.05727 0.92452 0.02530 0.31400
O 	O 	0.95677 0.94306 0.01794 -0.40900
O 	O 	0.03254 0.90228 0.05073 -0.38200
O 	O 	0.94732 0.93283 0.08119 -0.43800
C 	C 	0.05089 0.03556 0.08332 0.31200
O 	O 	0.01601 0.04719 0.06518 -0.42600
O 	O 	0.05334 0.99107 0.10011 -0.45700
C 	C 	0.93640 0.92169 0.04633 0.31700
O 	O 	0.93436 0.05584 0.02414 -0.28700
Zn	Zn	0.00712 0.94135 0.09577 1.19100
O 	O 	0.04822 0.97031 0.01230 -0.40200
C 	C 	0.94773 0.07000 0.99103 0.26100
O 	O 	0.98211 0.04810 0.97938 -0.32300
C 	C 	0.88258 0.20319 0.95851 -0.11500
C 	C 	0.87422 0.15685 0.93987 0.04200
C 	C 	0.89889 0.11405 0.94754 -0.05900
C 	C 	0.93236 0.11728 0.97363 0.05400
C 	C 	0.94442 0.16558 0.98870 -0.12900
C 	C 	0.91835 0.20792 0.98199 0.10500
H 	H 	0.89020 0.07752 0.93509 0.05800
H 	H 	0.92521 0.24415 0.99572 0.06600
H 	H 	0.84714 0.15315 0.92108 0.02300
C 	C 	0.98299 0.17122 0.01421 0.78200
F 	F 	0.99594 0.22190 0.01729 -0.45100
F 	F 	0.97296 0.15300 0.04985 -0.45600
F 	F 	0.01682 0.14407 0.99983 -0.44900
C 	C 	0.99028 0.49717 0.77125 -0.03700
C 	C 	0.96434 0.47178 0.78836 0.02900
C 	C 	0.93409 0.44120 0.80953 -0.02400
C 	C 	0.90502 0.46357 0.83141 -0.06100
C 	C 	0.88007 0.43342 0.85767 0.09600
C 	C 	0.86025 0.40783 0.88014 -0.09600
H 	H 	0.90203 0.50493 0.83144 0.07000
H 	H 	0.93700 0.39983 0.80947 0.05400
C 	C 	0.85704 0.38601 0.09025 -0.08500
C 	C 	0.87041 0.40176 0.12002 0.08200
C 	C 	0.88800 0.42210 0.15456 -0.05500
C 	C 	0.91990 0.39815 0.17187 -0.02700
C 	C 	0.94798 0.42618 0.19679 0.02900
C 	C 	0.97245 0.45068 0.21606 -0.03900
H 	H 	0.92842 0.35971 0.16335 0.05900
H 	H 	0.87912 0.46027 0.16343 0.06300
C 	C 	0.09495 0.89757 0.01134 -0.07800
C 	C 	0.09437 0.84407 0.00991 0.02500
C 	C 	0.13209 0.81754 0.00512 -0.03100
C 	C 	0.17104 0.84410 0.00083 0.02300
C 	C 	0.17080 0.89813 0.99609 -0.10300
C 	C 	0.13297 0.92464 0.00369 0.08700
H 	H 	0.13129 0.77616 0.00672 0.07300
H 	H 	0.13334 0.96610 0.00437 0.08600
H 	H 	0.06487 0.82289 0.01440 0.08900
C 	C 	0.20988 0.92752 0.98235 0.79000
F 	F 	0.19837 0.97253 0.96471 -0.41300
F 	F 	0.23581 0.93961 0.01268 -0.40000
F 	F 	0.23249 0.89898 0.95647 -0.43100
C 	C 	0.23992 0.67475 0.89455 -0.07700
C 	C 	0.22401 0.65855 0.86589 0.08400
C 	C 	0.20324 0.63821 0.83274 -0.05200
C 	C 	0.17025 0.66261 0.81753 -0.02600
C 	C 	0.14084 0.63563 0.79316 0.03200
C 	C 	0.11533 0.61243 0.77407 -0.03500
H 	H 	0.16249 0.70094 0.82690 0.06200
H 	H 	0.21126 0.60007 0.82313 0.06800
C 	C 	0.09306 0.57233 0.21758 -0.03700
C 	C 	0.11816 0.59810 0.19981 0.02600
C 	C 	0.14752 0.62860 0.17766 -0.02300
C 	C 	0.15796 0.61396 0.14269 -0.06400
C 	C 	0.18379 0.64675 0.11894 0.09000
C 	C 	0.20497 0.67422 0.09875 -0.11400
H 	H 	0.14572 0.57803 0.13136 0.06300
H 	H 	0.15973 0.66451 0.18906 0.05200
C 	C 	0.82939 0.82278 0.02359 -0.10600
C 	C 	0.82766 0.87522 0.01570 0.03800
C 	C 	0.86257 0.90718 0.02356 -0.04400
C 	C 	0.89990 0.88707 0.03898 0.03200
C 	C 	0.90255 0.83370 0.04576 -0.12800
C 	C 	0.86663 0.80215 0.03875 0.09800
H 	H 	0.86059 0.94777 0.01773 0.06200
H 	H 	0.86773 0.76151 0.04457 0.06100
H 	H 	0.79892 0.89146 0.00413 0.04000
C 	C 	0.94408 0.81012 0.05843 0.78800
F 	F 	0.95590 0.82958 0.09323 -0.48400
F 	F 	0.94062 0.75744 0.06171 -0.45100
F 	F 	0.97564 0.82115 0.03226 -0.45700
C 	C 	0.54122 0.92835 0.77881 -0.03500
C 	C 	0.56837 0.90680 0.79651 0.03100
C 	C 	0.59993 0.88133 0.81893 -0.02500
C 	C 	0.62486 0.90824 0.84251 -0.05500
C 	C 	0.64888 0.88254 0.87131 0.08200
C 	C 	0.66790 0.86097 0.89606 -0.08600
H 	H 	0.62428 0.94979 0.84234 0.06100
H 	H 	0.60060 0.83978 0.81900 0.05900
C 	C 	0.56521 0.90422 0.22200 -0.03400
C 	C 	0.59036 0.88135 0.20287 0.03100
C 	C 	0.61963 0.85485 0.17865 -0.02200
C 	C 	0.60480 0.82502 0.15076 -0.05700
C 	C 	0.63313 0.80644 0.12196 0.10800
C 	C 	0.65619 0.79152 0.09719 -0.07800
H 	H 	0.57080 0.81747 0.14807 0.08500
H 	H 	0.65362 0.86237 0.18146 0.05400
C 	C 	0.08972 0.06739 0.07819 -0.09100
C 	C 	0.08657 0.12015 0.07197 0.03900
C 	C 	0.12283 0.14941 0.06318 -0.02600
C 	C 	0.16286 0.12651 0.06093 0.03000
C 	C 	0.16670 0.07355 0.06869 -0.11600
C 	C 	0.12973 0.04422 0.07653 0.08900
H 	H 	0.11980 0.19003 0.05793 0.06900
H 	H 	0.13191 0.00329 0.08065 0.06200
H 	H 	0.05594 0.13849 0.07368 0.10000
C 	C 	0.21007 0.04871 0.06966 0.77700
F 	F 	0.23578 0.07353 0.09573 -0.44800
F 	F 	0.20722 0.99764 0.07987 -0.42000
F 	F 	0.22884 0.05172 0.03436 -0.42100
C 	C 	0.30018 0.09431 0.91112 -0.04600
C 	C 	0.31467 0.07408 0.88345 0.09200
C 	C 	0.33363 0.04951 0.85124 -0.04600
C 	C 	0.35615 0.07701 0.82608 -0.02600
C 	C 	0.38569 0.05208 0.80120 0.03000
C 	C 	0.41153 0.03083 0.78175 -0.03600
H 	H 	0.35606 0.11855 0.82717 0.06500
H 	H 	0.33348 0.00797 0.84995 0.07600
C 	C 	0.34523 0.14631 0.11240 -0.09100
C 	C 	0.36970 0.12804 0.13467 0.08900
C 	C 	0.39925 0.10544 0.16069 -0.05500
C 	C 	0.38584 0.07015 0.18556 -0.03000
C 	C 	0.41623 0.04187 0.20737 0.03500
C 	C 	0.44206 0.01777 0.22482 -0.05600
H 	H 	0.35216 0.06037 0.18790 0.06400
H 	H 	0.43293 0.11522 0.15840 0.05800
C 	C 	0.41560 0.36963 0.97413 -0.10500
C 	C 	0.41782 0.34006 0.00709 0.03200
C 	C 	0.38523 0.30531 0.01606 -0.05100
C 	C 	0.34991 0.29936 0.99222 0.03000
C 	C 	0.34776 0.32795 0.95823 -0.12500
C 	C 	0.38064 0.36357 0.94973 0.09200
H 	H 	0.38728 0.28305 0.04183 0.05600
H 	H 	0.37879 0.38701 0.92456 0.06800
H 	H 	0.44487 0.34405 0.02589 0.04200
C 	C 	0.31053 0.32080 0.93134 0.78700
F 	F 	0.27356 0.33715 0.94849 -0.44100
F 	F 	0.31631 0.34831 0.89825 -0.44400
F 	F 	0.30594 0.26969 0.92192 -0.44200
C 	C 	0.42324 0.60409 0.03624 -0.07200
C 	C 	0.38477 0.60158 0.05617 0.02800
C 	C 	0.36011 0.64521 0.06013 -0.03800
C 	C 	0.37335 0.69158 0.04359 0.02400
C 	C 	0.41458 0.69587 0.02758 -0.11000
C 	C 	0.43891 0.65148 0.02324 0.09600
H 	H 	0.32920 0.64210 0.07367 0.06200
H 	H 	0.46875 0.65321 0.00787 0.09000
H 	H 	0.37280 0.56521 0.06676 0.04300
C 	C 	0.43143 0.74674 0.01284 0.78300
F 	F 	0.42141 0.78567 0.03763 -0.43700
F 	F 	0.47531 0.74633 0.00886 -0.41000
F 	F 	0.41345 0.75670 0.97802 -0.42800
C 	C 	0.61547 0.42537 0.98999 -0.10400
C 	C 	0.62645 0.37845 0.00590 0.03100
C 	C 	0.66791 0.36058 0.00247 -0.05000
C 	C 	0.69871 0.38876 0.98213 0.02800
C 	C 	0.68880 0.43848 0.96873 -0.12900
C 	C 	0.64708 0.45665 0.97360 0.09100
H 	H 	0.67552 0.32329 0.01378 0.05500
H 	H 	0.63847 0.49372 0.96257 0.06200
H 	H 	0.60230 0.35454 0.01928 0.03600
C 	C 	0.72215 0.47176 0.94901 0.78800
F 	F 	0.73873 0.44618 0.91826 -0.45700
F 	F 	0.70525 0.51709 0.93603 -0.46200
F 	F 	0.75458 0.48382 0.97400 -0.44300
C 	C 	0.57292 0.58329 0.93911 -0.11300
C 	C 	0.61267 0.58718 0.92110 0.04900
C 	C 	0.64419 0.62046 0.93513 -0.03200
C 	C 	0.63673 0.64958 0.96774 0.03600
C 	C 	0.59702 0.64474 0.98672 -0.11700
C 	C 	0.56470 0.61390 0.97081 0.09900
H 	H 	0.67453 0.62358 0.92063 0.08800
H 	H 	0.53362 0.61212 0.98398 0.06200
H 	H 	0.61934 0.56413 0.89644 0.05600
C 	C 	0.58932 0.67101 0.02435 0.78800
F 	F 	0.55281 0.65236 0.04188 -0.43500
F 	F 	0.62307 0.66263 0.04850 -0.45300
F 	F 	0.58474 0.72297 0.01878 -0.41900
