data_crystal

_cell_length_a 24.29157
_cell_length_b 23.70558
_cell_length_c 75.77852
_cell_angle_alpha 89.57659
_cell_angle_beta  89.58747
_cell_angle_gamma 119.58478

_symmetry_space_group_name_	'P 1'
_symmetry_space_group_name_H-M	'P 1'

loop_
_symmetry_equiv_pos_as_xyz
  x,y,z

loop_
_atom_site_label
_atom_site_type_symbol
_atom_site_fract_x
_atom_site_fract_y
_atom_site_fract_z
_atom_site_charge
C 	C 	0.33093 0.71422 0.00348 0.30400
O 	O 	0.37527 0.59808 0.00737 -0.37700
O 	O 	0.29166 0.65162 0.00033 -0.37400
C 	C 	0.04852 0.52803 0.02218 0.07800
C 	C 	0.60434 0.57295 0.00268 -0.03400
C 	C 	0.51491 0.59422 0.00283 0.04500
H 	H 	0.60052 0.56649 0.01689 0.04200
C 	C 	0.88339 0.39395 0.01655 -0.03800
C 	C 	0.98085 0.49613 0.01995 -0.02900
C 	C 	0.47063 0.59454 0.01005 -0.09500
Ni	Ni	0.28711 0.57692 0.01510 1.12200
O 	O 	0.33250 0.73983 0.01913 -0.37800
C 	C 	0.10501 0.55344 0.02419 -0.10900
H 	H 	0.85730 0.34170 0.01828 0.04300
C 	C 	0.94405 0.42949 0.02362 -0.02500
C 	C 	0.41576 0.59252 0.01795 0.30500
C 	C 	0.17225 0.58030 0.02580 0.33300
O 	O 	0.19660 0.54280 0.02255 -0.38700
O 	O 	0.20874 0.64347 0.02713 -0.38300
O 	O 	0.27794 0.49197 0.02484 -0.37400
H 	H 	0.36487 0.66390 0.02924 0.15900
H 	H 	0.96404 0.40441 0.03086 0.03600
O 	O 	0.32490 0.63125 0.03485 -0.71800
O 	O 	0.39972 0.56989 0.03443 -0.36900
Ni	Ni	0.29059 0.68538 0.04072 1.12200
C 	C 	0.25811 0.47100 0.04103 0.32800
C 	C 	0.22570 0.40297 0.04508 -0.10300
O 	O 	0.42931 0.69593 0.05341 -0.38000
Ni	Ni	0.35602 0.60123 0.05302 1.11400
O 	O 	0.36599 0.74387 0.05664 -0.37200
O 	O 	0.27514 0.51152 0.05412 -0.37900
C 	C 	0.42067 0.74385 0.05890 0.31100
O 	O 	0.24146 0.62841 0.06151 -0.38900
C 	C 	0.19946 0.34837 0.05093 0.05400
C 	C 	0.46473 0.78746 0.07144 -0.09900
H 	H 	0.07446 0.26386 0.05491 0.04400
C 	C 	0.17058 0.28355 0.05812 -0.00700
C 	C 	0.26968 0.62802 0.07609 0.33000
O 	O 	0.32290 0.62634 0.07554 -0.37500
C 	C 	0.10547 0.25100 0.06194 -0.02800
H 	H 	0.25907 0.28600 0.06317 0.04200
C 	C 	0.50187 0.81893 0.08268 0.04700
C 	C 	0.20920 0.26345 0.06659 -0.02800
H 	H 	0.62770 0.89686 0.07928 0.04100
C 	C 	0.24968 0.64346 0.09232 -0.10900
H 	H 	0.11236 0.62245 0.11450 0.04400
C 	C 	0.08196 0.20900 0.07656 -0.04200
C 	C 	0.54513 0.85592 0.09639 -0.00700
C 	C 	0.61038 0.88969 0.09279 -0.03000
H 	H 	0.03284 0.18912 0.08054 0.04500
C 	C 	0.23257 0.65922 0.10542 0.05400
C 	C 	0.18599 0.22185 0.08128 -0.04100
C 	C 	0.12364 0.19926 0.08724 0.01100
C 	C 	0.14708 0.65779 0.12328 -0.02800
H 	H 	0.70375 0.93347 0.10375 0.04100
H 	H 	0.21808 0.21245 0.08898 0.04300
C 	C 	0.65345 0.91009 0.10665 -0.04200
C 	C 	0.21146 0.67764 0.12102 -0.00900
C 	C 	0.52326 0.84739 0.11391 -0.03000
H 	H 	0.47289 0.82178 0.11681 0.04100
H 	H 	0.07823 0.67272 0.13735 0.04500
C 	C 	0.12776 0.68631 0.13621 -0.04200
H 	H 	0.12563 0.09993 0.10493 0.04300
C 	C 	0.56627 0.86774 0.12778 -0.04300
C 	C 	0.63144 0.89703 0.12420 0.00900
C 	C 	0.10722 0.18028 0.10599 0.01100
H 	H 	0.08725 0.25785 0.11157 0.04500
C 	C 	0.25596 0.72300 0.13252 -0.02800
C 	C 	0.11440 0.12976 0.11333 -0.04200
H 	H 	0.30578 0.73830 0.13094 0.04000
H 	H 	0.63674 0.80801 0.14574 0.04200
C 	C 	0.09239 0.21837 0.11705 -0.04100
H 	H 	0.54887 0.85861 0.14130 0.04200
C 	C 	0.17277 0.73485 0.14697 0.01100
C 	C 	0.67613 0.90939 0.13867 0.00900
C 	C 	0.23669 0.75151 0.14548 -0.04300
C 	C 	0.67296 0.85731 0.14848 -0.04300
C 	C 	0.72349 0.97295 0.14226 -0.04300
H 	H 	0.72626 0.01344 0.13479 0.04000
C 	C 	0.10928 0.11918 0.13161 -0.02800
H 	H 	0.09252 0.69087 0.17522 0.04400
C 	C 	0.15402 0.77259 0.15846 0.01000
H 	H 	0.21036 0.86279 0.14414 0.04300
C 	C 	0.08718 0.20764 0.13529 -0.02800
H 	H 	0.11612 0.08091 0.13720 0.04300
C 	C 	0.71721 0.86877 0.16166 -0.02900
C 	C 	0.11096 0.74204 0.17247 -0.04200
H 	H 	0.27167 0.78825 0.15391 0.04300
C 	C 	0.17751 0.83891 0.15501 -0.04200
H 	H 	0.71468 0.82831 0.16909 0.04000
C 	C 	0.09681 0.15890 0.14264 -0.00600
H 	H 	0.07698 0.23815 0.14373 0.04300
C 	C 	0.76764 0.98432 0.15543 -0.02800
C 	C 	0.76481 0.93226 0.16510 -0.01000
C 	C 	0.09157 0.77758 0.18293 -0.02800
C 	C 	0.15810 0.87435 0.16548 -0.02900
H 	H 	0.80426 0.03358 0.15806 0.03700
H 	H 	0.05840 0.75368 0.19374 0.04400
C 	C 	0.11504 0.84376 0.17944 -0.00600
H 	H 	0.17650 0.92552 0.16273 0.04200
C 	C 	0.09519 0.15053 0.16151 0.05400
C 	C 	0.81124 0.94440 0.17841 0.05100
C 	C 	0.09589 0.88056 0.19039 0.05300
C 	C 	0.85155 0.95802 0.18935 -0.11000
C 	C 	0.09388 0.14336 0.17731 -0.10100
C 	C 	0.07982 0.91132 0.19956 -0.09900
C 	C 	0.90132 0.97956 0.20201 0.32800
O 	O 	0.94857 0.03886 0.20053 -0.39300
C 	C 	0.09120 0.13308 0.19605 0.32600
C 	C 	0.06154 0.94803 0.21072 0.32500
O 	O 	0.00153 0.93223 0.21172 -0.37800
O 	O 	0.11155 0.09545 0.20269 -0.38000
O 	O 	0.89272 0.94517 0.21654 -0.38100
O 	O 	0.06429 0.15734 0.20619 -0.36800
O 	O 	0.10303 0.98944 0.22177 -0.38200
Ni	Ni	0.98698 0.09772 0.22217 1.10400
Ni	Ni	0.96414 0.95421 0.23253 1.11200
Ni	Ni	0.10610 0.07281 0.22879 1.12200
O 	O 	0.01811 0.04538 0.23125 -0.70700
O 	O 	0.90115 0.04583 0.23640 -0.37500
O 	O 	0.02091 0.94321 0.25039 -0.36900
O 	O 	0.12870 0.16473 0.23589 -0.37200
H 	H 	0.01700 0.05469 0.24383 0.15200
O 	O 	0.91620 0.96968 0.25211 -0.38700
C 	C 	0.89083 0.00792 0.25055 0.30300
O 	O 	0.03474 0.16310 0.24220 -0.36200
O 	O 	0.10692 0.04638 0.25394 -0.38300
C 	C 	0.09276 0.17707 0.24668 0.30300
C 	C 	0.06201 0.99049 0.26068 0.30600
C 	C 	0.83994 0.99649 0.26238 -0.09900
C 	C 	0.06664 0.97648 0.27886 -0.09400
C 	C 	0.11632 0.20422 0.26366 -0.10000
C 	C 	0.79638 0.98348 0.27238 0.04500
C 	C 	0.07401 0.96852 0.29419 0.04800
C 	C 	0.74335 0.96685 0.28404 -0.00700
H 	H 	0.67465 0.89719 0.26627 0.04100
H 	H 	0.80002 0.03159 0.30464 0.03600
C 	C 	0.13492 0.22520 0.27817 0.05000
C 	C 	0.75333 0.99381 0.30090 -0.02900
C 	C 	0.68275 0.91812 0.27930 -0.03000
H 	H 	0.13176 0.06525 0.31727 0.04000
C 	C 	0.08426 0.96208 0.31260 -0.00300
H 	H 	0.21157 0.34920 0.28717 0.04200
C 	C 	0.11825 0.01779 0.32276 -0.03100
C 	C 	0.70360 0.97010 0.31324 -0.04400
C 	C 	0.15651 0.24907 0.29564 -0.00600
C 	C 	0.06667 0.90090 0.31985 -0.02900
H 	H 	0.04007 0.85760 0.31211 0.04500
C 	C 	0.63300 0.89435 0.29163 -0.04300
H 	H 	0.58667 0.85556 0.28800 0.04200
H 	H 	0.71216 0.98981 0.32643 0.04100
C 	C 	0.19558 0.31565 0.29829 -0.02900
C 	C 	0.64358 0.91923 0.30878 0.01000
H 	H 	0.58541 0.97519 0.32623 0.04200
C 	C 	0.13771 0.01266 0.33973 -0.04400
H 	H 	0.16588 0.05616 0.34725 0.04200
H 	H 	0.10609 0.15440 0.30813 0.04100
C 	C 	0.08617 0.89569 0.33680 -0.04100
C 	C 	0.13627 0.20598 0.31011 -0.02900
C 	C 	0.56907 0.92557 0.33044 -0.04200
C 	C 	0.59326 0.88915 0.32237 0.00900
C 	C 	0.12342 0.95176 0.34661 0.01300
C 	C 	0.21281 0.33936 0.31538 -0.04200
H 	H 	0.24149 0.39114 0.31734 0.04300
H 	H 	0.24918 0.00517 0.35264 0.04100
H 	H 	0.07475 0.84840 0.34200 0.04500
H 	H 	0.66675 0.53333 0.99992 0.04300
H 	H 	0.50682 0.92713 0.35052 0.04200
C 	C 	0.95377 0.52829 0.01105 -0.02500
C 	C 	0.57136 0.82474 0.32784 -0.04200
C 	C 	0.52448 0.89831 0.34416 -0.03000
C 	C 	0.19117 0.29653 0.32995 0.01000
C 	C 	0.15366 0.22959 0.32722 -0.04300
C 	C 	0.15382 0.94716 0.36292 0.00900
C 	C 	0.21984 0.97389 0.36332 -0.03900
H 	H 	0.58982 0.79626 0.32170 0.04200
H 	H 	0.13696 0.19608 0.33835 0.04200
C 	C 	0.50384 0.83453 0.34990 -0.00500
C 	C 	0.52678 0.79755 0.34157 -0.03100
C 	C 	0.24752 0.95589 0.37673 -0.02900
C 	C 	0.11661 0.90796 0.37704 -0.04100
H 	H 	0.29797 0.97319 0.37625 0.04300
H 	H 	0.06578 0.88836 0.37709 0.04500
H 	H 	0.30490 0.36866 0.34568 0.04200
C 	C 	0.20299 0.32248 0.34803 0.01000
C 	C 	0.85957 0.42490 0.00570 -0.00200
C 	C 	0.26524 0.36331 0.35359 -0.04200
C 	C 	0.46227 0.80858 0.36503 0.04600
H 	H 	0.10384 0.28209 0.35477 0.04400
H 	H 	0.51101 0.74821 0.34593 0.04100
C 	C 	0.20937 0.91086 0.38973 -0.00800
C 	C 	0.15211 0.31438 0.35874 -0.04100
C 	C 	0.14439 0.88994 0.39043 -0.02800
C 	C 	0.27640 0.40107 0.36864 -0.03000
H 	H 	0.32460 0.43587 0.37212 0.04100
H 	H 	0.11469 0.85605 0.40064 0.04400
C 	C 	0.42745 0.78782 0.37772 -0.09600
C 	C 	0.16338 0.35202 0.37383 -0.02900
C 	C 	0.23337 0.87537 0.39941 0.05400
C 	C 	0.22545 0.39826 0.37820 -0.00500
H 	H 	0.12369 0.34867 0.38133 0.04400
O 	O 	0.32598 0.74574 0.39130 -0.38000
C 	C 	0.38742 0.76540 0.39313 0.30600
C 	C 	0.25246 0.84497 0.40764 -0.10800
C 	C 	0.23598 0.45170 0.38927 0.04700
O 	O 	0.26766 0.60541 0.39803 -0.37900
C 	C 	0.24510 0.49657 0.39853 -0.09500
Ni	Ni	0.25398 0.67780 0.40671 1.12200
C 	C 	0.27177 0.80353 0.41615 0.33200
O 	O 	0.41492 0.77988 0.40880 -0.38300
O 	O 	0.33244 0.82503 0.41872 -0.38100
C 	C 	0.25549 0.55356 0.40774 0.30600
O 	O 	0.23153 0.74140 0.41686 -0.39300
O 	O 	0.17018 0.60579 0.41665 -0.37900
H 	H 	0.33761 0.67432 0.41928 0.16300
O 	O 	0.30878 0.68600 0.42539 -0.71700
Ni	Ni	0.36716 0.77326 0.43116 1.12100
O 	O 	0.23871 0.54826 0.42478 -0.36400
C 	C 	0.15093 0.60481 0.43293 0.33400
C 	C 	0.08437 0.57083 0.43694 -0.11200
H 	H 	0.95534 0.41147 0.44121 0.03600
C 	C 	0.02889 0.54122 0.44086 0.07900
C 	C 	0.41795 0.68678 0.44629 0.30700
Ni	Ni	0.27643 0.62322 0.44358 1.11400
O 	O 	0.31396 0.76785 0.45227 -0.38800
O 	O 	0.19111 0.62281 0.44592 -0.37400
O 	O 	0.36530 0.63169 0.44312 -0.37500
O 	O 	0.41993 0.74428 0.44613 -0.37400
C 	C 	0.96262 0.50491 0.44550 -0.03100
C 	C 	0.93207 0.43700 0.44633 -0.02300
H 	H 	0.57549 0.62308 0.44878 0.04200
H 	H 	0.95424 0.58972 0.45093 0.03600
C 	C 	0.87348 0.40216 0.45500 -0.04000
H 	H 	0.85218 0.35004 0.45660 0.04400
C 	C 	0.93145 0.53729 0.45180 -0.02300
C 	C 	0.46789 0.68173 0.45482 -0.09600
C 	C 	0.87280 0.50242 0.46045 -0.04000
C 	C 	0.84537 0.43513 0.46291 0.00200
C 	C 	0.31735 0.74001 0.46678 0.32800
O 	O 	0.30800 0.68052 0.46629 -0.36700
C 	C 	0.57620 0.62538 0.46306 -0.03300
C 	C 	0.50482 0.67076 0.46259 0.04600
H 	H 	0.61494 0.56151 0.46581 0.04300
H 	H 	0.85093 0.52824 0.46629 0.04400
C 	C 	0.54896 0.65763 0.47183 -0.00300
C 	C 	0.59828 0.59021 0.47272 -0.03300
C 	C 	0.35040 0.78083 0.48135 -0.10800
C 	C 	0.79799 0.40307 0.47652 0.04400
C 	C 	0.38122 0.82089 0.49219 0.05200
H 	H 	0.34238 0.86996 0.51834 0.04400
C 	C 	0.75833 0.37608 0.48790 -0.09400
C 	C 	0.39320 0.89495 0.51622 -0.03200
C 	C 	0.59349 0.58748 0.49118 -0.00200
C 	C 	0.55169 0.66160 0.49030 -0.03300
O 	O 	0.65465 0.30755 0.49993 -0.37600
C 	C 	0.42048 0.86918 0.50476 -0.00500
C 	C 	0.57369 0.62632 0.49997 -0.03300
H 	H 	0.53203 0.68761 0.49721 0.04400
H 	H 	0.40845 0.97796 0.53128 0.04500
C 	C 	0.71635 0.34627 0.50270 0.30200
C 	C 	0.43065 0.95630 0.52350 -0.03300
C 	C 	0.48649 0.90126 0.50251 -0.03300
C 	C 	0.59722 0.53661 0.50069 0.04600
O 	O 	0.60657 0.39711 0.50666 -0.37800
H 	H 	0.50824 0.88110 0.49398 0.04300
C 	C 	0.60058 0.49362 0.50835 -0.09500
C 	C 	0.49552 0.99191 0.51940 -0.00300
C 	C 	0.52394 0.96264 0.50977 -0.03300
H 	H 	0.57119 0.62570 0.51426 0.04300
C 	C 	0.60155 0.43978 0.51684 0.30600
Ni	Ni	0.58397 0.30678 0.51494 1.12200
O 	O 	0.74196 0.34861 0.51829 -0.38000
C 	C 	0.52928 0.06115 0.52191 0.05000
H 	H 	0.57428 0.98919 0.50685 0.04300
C 	C 	0.55609 0.11897 0.52420 -0.10200
C 	C 	0.58423 0.18798 0.52608 0.32800
O 	O 	0.54896 0.21469 0.52321 -0.38900
O 	O 	0.50286 0.30082 0.52499 -0.37500
O 	O 	0.64611 0.22380 0.52733 -0.38400
H 	H 	0.67114 0.38630 0.52829 0.16000
O 	O 	0.63892 0.34638 0.53425 -0.71800
O 	O 	0.58177 0.42592 0.53357 -0.36900
Ni	Ni	0.68988 0.30915 0.54024 1.12100
C 	C 	0.48345 0.28235 0.54136 0.32800
C 	C 	0.41738 0.25057 0.54580 -0.10400
O 	O 	0.70581 0.45482 0.55190 -0.38000
Ni	Ni	0.61250 0.38157 0.55228 1.11400
O 	O 	0.74984 0.38750 0.55544 -0.37300
C 	C 	0.75203 0.44480 0.55725 0.31000
O 	O 	0.52395 0.30034 0.55421 -0.37900
C 	C 	0.36459 0.22500 0.55198 0.05400
O 	O 	0.63532 0.26245 0.56154 -0.39000
H 	H 	0.28187 0.09764 0.55719 0.04200
C 	C 	0.30190 0.19672 0.55950 -0.00800
C 	C 	0.79656 0.49056 0.56932 -0.09900
C 	C 	0.26995 0.13045 0.56391 -0.02800
H 	H 	0.30545 0.28839 0.56378 0.04200
C 	C 	0.28321 0.23765 0.56762 -0.02800
C 	C 	0.63781 0.29376 0.57590 0.33000
O 	O 	0.63747 0.34892 0.57495 -0.37500
H 	H 	0.89932 0.65863 0.57648 0.04000
C 	C 	0.82912 0.52913 0.58023 0.04700
C 	C 	0.22952 0.10826 0.57868 -0.04200
C 	C 	0.24313 0.21574 0.58244 -0.04100
H 	H 	0.98129 0.58005 0.00849 0.03600
C 	C 	0.65622 0.27603 0.59202 -0.11000
H 	H 	0.20989 0.05833 0.58307 0.04400
C 	C 	0.89685 0.64115 0.58988 -0.03100
C 	C 	0.86769 0.57437 0.59345 -0.00700
C 	C 	0.22065 0.15237 0.58891 0.01100
H 	H 	0.23453 0.24967 0.58981 0.04400
H 	H 	0.93825 0.73662 0.60092 0.04000
C 	C 	0.67441 0.26099 0.60503 0.05300
C 	C 	0.91858 0.68531 0.60373 -0.04200
H 	H 	0.12325 0.15591 0.60584 0.04400
H 	H 	0.62848 0.14062 0.61837 0.04200
C 	C 	0.86529 0.55235 0.61082 -0.03100
C 	C 	0.20168 0.13729 0.60767 0.01100
H 	H 	0.84330 0.50082 0.61369 0.04000
C 	C 	0.69594 0.24274 0.62057 -0.00900
C 	C 	0.15200 0.14499 0.61455 -0.04200
C 	C 	0.66972 0.17702 0.62517 -0.02900
H 	H 	0.27727 0.11749 0.61402 0.04400
C 	C 	0.91151 0.66287 0.62124 0.00600
C 	C 	0.23844 0.12297 0.61916 -0.04200
C 	C 	0.88702 0.59644 0.62468 -0.04200
H 	H 	0.76937 0.34048 0.62612 0.04000
C 	C 	0.74897 0.28952 0.62954 -0.02900
H 	H 	0.80842 0.13295 0.63665 0.04200
H 	H 	0.67910 0.10670 0.64104 0.04300
C 	C 	0.69856 0.15779 0.63794 -0.04300
C 	C 	0.14070 0.14067 0.63279 -0.02800
C 	C 	0.92480 0.70807 0.63595 0.01300
H 	H 	0.82755 0.66187 0.64519 0.04300
H 	H 	0.88258 0.57877 0.63814 0.04100
H 	H 	0.02482 0.76519 0.62993 0.05500
H 	H 	0.10297 0.14779 0.63802 0.04500
C 	C 	0.77796 0.27035 0.64230 -0.04300
C 	C 	0.22701 0.11856 0.63735 -0.02800
C 	C 	0.87535 0.70118 0.64711 -0.04400
C 	C 	0.75397 0.20424 0.64616 0.01000
C 	C 	0.98638 0.75948 0.63846 -0.05500
C 	C 	0.81584 0.14702 0.65038 -0.04200
C 	C 	0.17889 0.12851 0.64423 -0.00600
H 	H 	0.87184 0.10125 0.65531 0.04100
H 	H 	0.82045 0.30662 0.64866 0.04100
H 	H 	0.25638 0.10865 0.64610 0.04200
C 	C 	0.78995 0.18347 0.65750 0.00900
C 	C 	0.88746 0.74553 0.66063 -0.03100
C 	C 	0.85198 0.12932 0.66092 -0.03000
C 	C 	0.99840 0.80377 0.65197 -0.04200
H 	H 	0.84905 0.73994 0.66917 0.04100
H 	H 	0.04612 0.84339 0.65381 0.05300
C 	C 	0.94897 0.79700 0.66305 -0.00400
C 	C 	0.16938 0.12733 0.66304 0.05400
C 	C 	0.80047 0.20199 0.67524 -0.04200
C 	C 	0.86261 0.14803 0.67861 -0.00700
C 	C 	0.96186 0.84267 0.67699 0.04400
H 	H 	0.78073 0.23016 0.68085 0.04200
C 	C 	0.16109 0.12642 0.67877 -0.10200
C 	C 	0.83668 0.18427 0.68577 -0.03000
C 	C 	0.89973 0.12968 0.68946 0.04800
C 	C 	0.97570 0.88243 0.68841 -0.10300
C 	C 	0.93078 0.11445 0.69861 -0.10100
H 	H 	0.84462 0.19877 0.69946 0.04200
C 	C 	0.99702 0.93138 0.70167 0.31200
C 	C 	0.14927 0.12424 0.69741 0.32500
O 	O 	0.05597 0.97802 0.70098 -0.37100
O 	O 	0.11269 0.14618 0.70347 -0.37800
C 	C 	0.96703 0.09604 0.70970 0.31300
O 	O 	0.95243 0.03479 0.71043 -0.38800
O 	O 	0.17075 0.09573 0.70799 -0.37300
O 	O 	0.96190 0.92190 0.71589 -0.37800
O 	O 	0.00677 0.13830 0.72094 -0.37100
Ni	Ni	0.10936 0.01611 0.72339 1.11400
Ni	Ni	0.96874 0.99452 0.73174 1.11800
Ni	Ni	0.08610 0.13938 0.72922 1.12300
O 	O 	0.05784 0.04881 0.73159 -0.71100
C 	C 	0.67687 0.42892 0.94760 0.30800
C 	C 	0.60107 0.15707 0.93332 0.32800
C 	C 	0.54894 0.26390 0.90877 0.30500
C 	C 	0.79486 0.28475 0.91626 0.33200
C 	C 	0.75447 0.40129 0.89369 0.30700
Ni	Ni	0.61764 0.28453 0.94437 1.11400
Ni	Ni	0.67083 0.26374 0.90720 1.12200
Ni	Ni	0.76299 0.38025 0.93166 1.12100
O 	O 	0.62389 0.37461 0.94418 -0.37600
O 	O 	0.73375 0.43266 0.94705 -0.37500
O 	O 	0.73450 0.24237 0.91701 -0.39300
O 	O 	0.61979 0.19838 0.94627 -0.37500
O 	O 	0.60186 0.17687 0.91706 -0.37800
O 	O 	0.76734 0.42895 0.90944 -0.38400
O 	O 	0.75982 0.32544 0.95247 -0.38900
O 	O 	0.73579 0.33846 0.89175 -0.38000
O 	O 	0.54419 0.24531 0.92567 -0.36500
O 	O 	0.59873 0.27577 0.89875 -0.37800
O 	O 	0.81446 0.34666 0.91883 -0.38300
O 	O 	0.67812 0.31917 0.92602 -0.71700
H 	H 	0.66568 0.34815 0.92005 0.16400
C 	C 	0.18365 0.12282 0.74868 0.30400
O 	O 	0.17010 0.06346 0.74414 -0.36800
O 	O 	0.17407 0.16083 0.73765 -0.37100
H 	H 	0.06473 0.04694 0.74430 0.15000
C 	C 	0.52738 0.93176 0.95347 -0.03200
C 	C 	0.49807 0.96487 0.94636 -0.00400
C 	C 	0.43187 0.93545 0.94665 -0.03100
C 	C 	0.39561 0.87623 0.95553 -0.03300
C 	C 	0.53558 0.03242 0.94153 0.05200
C 	C 	0.56615 0.08899 0.93743 -0.10300
H 	H 	0.57849 0.95366 0.95304 0.04300
H 	H 	0.40874 0.96024 0.94093 0.04400
H 	H 	0.61301 0.58889 0.95159 0.04300
C 	C 	0.88265 0.15896 0.88951 -0.02500
H 	H 	0.84811 0.12674 0.89918 0.04000
H 	H 	0.88329 0.08099 0.87535 0.04300
H 	H 	0.84978 0.09815 0.83990 0.04200
C 	C 	0.39740 0.23985 0.88029 -0.00500
C 	C 	0.39902 0.29379 0.87203 -0.03000
C 	C 	0.36204 0.28548 0.85717 -0.04200
C 	C 	0.32313 0.22309 0.85053 0.01000
C 	C 	0.31629 0.16884 0.86001 -0.04100
C 	C 	0.35321 0.17725 0.87488 -0.02900
C 	C 	0.29798 0.21513 0.83249 0.01000
C 	C 	0.33992 0.24002 0.81799 -0.04200
C 	C 	0.31702 0.22519 0.80080 -0.02900
C 	C 	0.25212 0.18541 0.79797 -0.00600
C 	C 	0.20984 0.16260 0.81238 -0.02900
C 	C 	0.23268 0.17742 0.82960 -0.04300
C 	C 	0.22935 0.16444 0.78039 0.04900
C 	C 	0.20939 0.14637 0.76578 -0.10000
C 	C 	0.44981 0.24878 0.89098 0.04700
C 	C 	0.49350 0.25580 0.89994 -0.09500
H 	H 	0.43221 0.34236 0.87633 0.04200
H 	H 	0.36648 0.32765 0.85021 0.04300
H 	H 	0.28552 0.12038 0.85519 0.04400
H 	H 	0.35085 0.13520 0.88137 0.04300
H 	H 	0.39042 0.26904 0.82007 0.04300
H 	H 	0.34993 0.24325 0.78972 0.04300
H 	H 	0.15951 0.13213 0.81028 0.04200
H 	H 	0.19986 0.15831 0.84068 0.04200
C 	C 	0.88692 0.53683 0.84449 -0.03000
C 	C 	0.82661 0.52147 0.85076 -0.00600
C 	C 	0.79447 0.55054 0.84299 -0.03000
C 	C 	0.79941 0.47876 0.86580 0.04600
C 	C 	0.77772 0.44287 0.87840 -0.09700
H 	H 	0.91200 0.51445 0.85043 0.04100
H 	H 	0.74784 0.53890 0.84777 0.04100
C 	C 	0.90232 0.13299 0.87596 -0.04900
C 	C 	0.83628 0.26644 0.90767 -0.11100
C 	C 	0.86707 0.24840 0.89938 0.05500
C 	C 	0.82306 0.59582 0.82925 -0.04300
C 	C 	0.90302 0.22555 0.88961 -0.01500
C 	C 	0.89657 0.10991 0.83525 -0.04000
H 	H 	0.86341 0.06727 0.80983 0.04100
C 	C 	0.88403 0.61230 0.82321 0.01100
C 	C 	0.91559 0.58213 0.83076 -0.04400
H 	H 	0.79837 0.61894 0.82351 0.04300
H 	H 	0.96250 0.59428 0.82613 0.04100
O 	O 	0.05622 0.13949 0.75395 -0.38400
C 	C 	0.94265 0.17361 0.86249 0.02000
C 	C 	0.90429 0.09256 0.81820 -0.02700
C 	C 	0.91565 0.66291 0.80947 0.00300
C 	C 	0.88997 0.65374 0.79252 -0.03700
H 	H 	0.98964 0.72950 0.82664 0.03700
H 	H 	0.84899 0.60800 0.78915 0.04100
C 	C 	0.94958 0.14546 0.84590 -0.00600
C 	C 	0.96929 0.72208 0.81361 -0.03200
C 	C 	0.96850 0.24105 0.86374 -0.06400
C 	C 	0.94879 0.26693 0.87730 -0.02000
C 	C 	0.96494 0.11058 0.81171 -0.02300
C 	C 	0.96769 0.76438 0.78449 0.01100
C 	C 	0.99521 0.77267 0.80114 -0.05500
C 	C 	0.91595 0.70433 0.78007 -0.03900
H 	H 	0.03529 0.81893 0.80464 0.05700
H 	H 	0.89454 0.69751 0.76720 0.04400
O 	O 	0.95589 0.05246 0.74918 -0.38800
O 	O 	0.97959 0.94393 0.75172 -0.39100
C 	C 	0.00988 0.16026 0.83973 -0.03100
C 	C 	0.97419 0.10235 0.79334 0.05700
H 	H 	0.96562 0.31863 0.87747 0.03700
C 	C 	0.98726 0.81932 0.77281 0.01900
C 	C 	0.00248 0.86434 0.76274 -0.07100
C 	C 	0.01634 0.91712 0.75084 0.31100
C 	C 	0.00048 0.09345 0.76002 0.33000
C 	C 	0.01751 0.14284 0.82268 -0.01700
C 	C 	0.98426 0.09655 0.77806 -0.12000
H 	H 	0.00057 0.27299 0.85358 0.05800
H 	H 	0.05100 0.18715 0.84790 0.04200
O 	O 	0.05553 0.92772 0.73722 -0.36600
H 	H 	0.06454 0.15650 0.81778 0.03900
H 	H 	0.34477 0.85588 0.95667 0.04600
C 	C 	0.67042 0.47828 0.95668 -0.09600
C 	C 	0.49109 0.87248 0.96234 -0.03400
C 	C 	0.42542 0.84631 0.96418 -0.00100
C 	C 	0.61198 0.58574 0.96588 -0.03300
C 	C 	0.73262 0.32719 0.96716 0.32700
H 	H 	0.51447 0.84917 0.96875 0.04300
C 	C 	0.65767 0.51392 0.96482 0.04600
H 	H 	0.54705 0.62230 0.96856 0.04400
O 	O 	0.67445 0.31736 0.96691 -0.36800
C 	C 	0.57428 0.60435 0.97549 -0.03300
C 	C 	0.64243 0.55649 0.97454 -0.00300
C 	C 	0.39141 0.79806 0.97766 0.04700
C 	C 	0.77230 0.35829 0.98198 -0.10900
C 	C 	0.36287 0.75767 0.98895 -0.09300
C 	C 	0.81184 0.38748 0.99295 0.04900
H 	H 	0.87449 0.51737 0.99596 0.04300
C 	C 	0.56737 0.59424 0.99381 -0.00200
C 	C 	0.64213 0.55443 0.99305 -0.03300
C 	C 	0.89310 0.49275 0.00399 -0.03900
