data_crystal

_cell_length_a 16.66317
_cell_length_b 16.93339
_cell_length_c 58.54202
_cell_angle_alpha 90.03213
_cell_angle_beta  90.02332
_cell_angle_gamma 119.84901

_symmetry_space_group_name_	'P 1'
_symmetry_space_group_name_H-M	'P 1'

loop_
_symmetry_equiv_pos_as_xyz
  x,y,z

loop_
_atom_site_label
_atom_site_type_symbol
_atom_site_fract_x
_atom_site_fract_y
_atom_site_fract_z
_atom_site_charge
O 	O 	0.03597 0.18744 0.76246 -0.33000
O 	O 	0.04742 0.86294 0.79245 -0.35000
O 	O 	0.02141 0.12184 0.81176 -0.36400
C 	C 	0.11479 0.57556 0.35723 -0.02900
H 	H 	0.18335 0.63210 0.35376 0.08700
C 	C 	0.02989 0.57971 0.62913 0.00000
C 	C 	0.14068 0.57836 0.46341 0.30400
C 	C 	0.15998 0.57688 0.39785 0.32500
O 	O 	0.14961 0.52446 0.44823 -0.35100
O 	O 	0.14662 0.62517 0.41335 -0.35500
C 	C 	0.10301 0.54544 0.66151 0.32700
O 	O 	0.17468 0.55831 0.65001 -0.36700
O 	O 	0.11679 0.58680 0.68144 -0.33300
C 	C 	0.11234 0.20192 0.75119 0.30400
C 	C 	0.10938 0.18183 0.81138 0.33200
C 	C 	0.10914 0.91851 0.80730 0.32200
C 	C 	0.07013 0.91848 0.74112 0.32800
Ni	Ni	0.13499 0.06530 0.77661 1.12800
O 	O 	0.13633 0.13865 0.74957 -0.36000
O 	O 	0.13734 0.96933 0.75589 -0.35400
O 	O 	0.16360 0.17859 0.79544 -0.36300
O 	O 	0.14290 0.00673 0.80567 -0.37100
O 	O 	0.18601 0.50840 0.88305 -0.36000
C 	C 	0.17375 0.10694 0.19151 0.31800
Ni	Ni	0.03093 0.92450 0.21179 1.12300
Ni	Ni	0.06677 0.12422 0.22941 1.12600
O 	O 	0.13131 0.96268 0.23708 -0.34300
O 	O 	0.17286 0.11330 0.24388 -0.36300
O 	O 	0.01695 0.11932 0.26098 -0.35600
O 	O 	0.13898 0.01818 0.19152 -0.35600
O 	O 	0.12375 0.14332 0.19791 -0.37200
C 	C 	0.17914 0.00131 0.98067 0.30600
C 	C 	0.06825 0.15275 0.98128 0.33200
C 	C 	0.13450 0.97647 0.05816 0.29900
Ni	Ni	0.12776 0.08597 0.02015 1.12500
O 	O 	0.09480 0.94186 0.97385 -0.34100
O 	O 	0.19741 0.07835 0.99155 -0.35400
O 	O 	0.17756 0.02395 0.03971 -0.36100
O 	O 	0.04950 0.07962 0.96947 -0.32200
O 	O 	0.07205 0.15145 0.00348 -0.37700
O 	O 	0.04422 0.94628 0.06196 -0.32800
O 	O 	0.08208 0.11852 0.04884 -0.34700
O 	O 	0.02762 0.96919 0.01340 -0.70800
H 	H 	0.05954 0.93344 0.01352 0.18000
H 	H 	0.03009 0.19786 0.29874 0.09200
C 	C 	0.19376 0.97662 0.07691 -0.06200
Br	Br	0.12193 0.03897 0.11333 -0.17500
H 	H 	0.01993 0.25821 0.16822 0.09200
C 	C 	0.18357 0.31642 0.97703 -0.02100
C 	C 	0.10080 0.24075 0.96971 -0.08600
C 	C 	0.04687 0.25213 0.95289 0.15500
C 	C 	0.07984 0.33726 0.94242 -0.03600
C 	C 	0.16620 0.41119 0.94860 -0.06400
H 	H 	0.04073 0.34457 0.92859 0.08200
C 	C 	0.13903 0.76818 0.85044 -0.04200
C 	C 	0.09731 0.80365 0.83608 0.17400
C 	C 	0.15241 0.88289 0.82328 -0.08700
H 	H 	0.09587 0.70741 0.86031 0.07300
C 	C 	0.14379 0.26222 0.82646 -0.09100
C 	C 	0.08434 0.29551 0.83251 -0.04300
C 	C 	0.11628 0.37379 0.84597 0.18200
H 	H 	0.01395 0.26233 0.82612 0.07700
O 	O 	0.05904 0.40870 0.85023 -0.26600
H 	H 	0.02349 0.37643 0.86406 0.16600
C 	C 	0.16896 0.28842 0.73867 -0.06400
Br	Br	0.15825 0.38523 0.77869 -0.21500
C 	C 	0.03146 0.82747 0.70507 0.00300
C 	C 	0.09469 0.90439 0.71759 -0.08200
C 	C 	0.18374 0.96115 0.70824 0.13600
C 	C 	0.15701 0.84130 0.68130 -0.06800
C 	C 	0.06208 0.79737 0.68653 0.13700
C 	C 	0.09329 0.53604 0.37910 -0.07600
C 	C 	0.00499 0.46207 0.38342 0.13900
C 	C 	0.04664 0.54443 0.34007 0.14300
Br	Br	0.07672 0.60232 0.31072 -0.17400
C 	C 	0.01964 0.52453 0.64813 -0.05600
H 	H 	0.09419 0.64234 0.62644 0.04500
C 	C 	0.06467 0.53622 0.47997 -0.07800
C 	C 	0.06410 0.47554 0.49630 -0.04300
H 	H 	0.12036 0.46080 0.49694 0.07300
H 	H 	0.02658 0.41710 0.54166 0.17800
Ni	Ni	0.25590 0.72992 0.43109 1.11800
O 	O 	0.18104 0.66766 0.46029 -0.35000
O 	O 	0.22133 0.55098 0.40123 -0.36100
C 	C 	0.20016 0.78528 0.67733 0.30300
Ni	Ni	0.24481 0.65243 0.69738 1.12600
O 	O 	0.18818 0.74277 0.65716 -0.34100
O 	O 	0.23301 0.76427 0.69557 -0.36400
O 	O 	0.24278 0.53452 0.69540 -0.37200
C 	C 	0.24290 0.50046 0.86873 0.32700
C 	C 	0.21495 0.48593 0.93227 0.30700
Ni	Ni	0.21750 0.62505 0.90073 1.12400
O 	O 	0.23930 0.68522 0.87018 -0.38100
O 	O 	0.21572 0.73088 0.91804 -0.35400
O 	O 	0.18535 0.54520 0.92905 -0.35400
C 	C 	0.19542 0.04898 0.24051 0.29800
Br	Br	0.23073 0.89988 0.26713 -0.18200
C 	C 	0.26110 0.95324 0.07121 -0.04000
C 	C 	0.21600 0.04046 0.09452 0.12200
H 	H 	0.24164 0.89199 0.06148 0.09400
O 	O 	0.21683 0.26312 0.16353 -0.26300
H 	H 	0.23003 0.31092 0.17510 0.15700
C 	C 	0.21571 0.40135 0.96677 0.12000
H 	H 	0.22372 0.30896 0.99057 0.06500
C 	C 	0.27261 0.85875 0.96664 -0.02800
C 	C 	0.25383 0.99119 0.97072 -0.07600
C 	C 	0.27105 0.92536 0.98046 0.13300
Br	Br	0.27817 0.91725 0.01276 -0.19100
H 	H 	0.27940 0.80425 0.97439 0.09400
C 	C 	0.23589 0.81168 0.85239 -0.09100
C 	C 	0.24924 0.92704 0.82537 -0.04900
C 	C 	0.20808 0.41871 0.85403 -0.09600
C 	C 	0.26694 0.38415 0.84838 -0.05000
C 	C 	0.23543 0.30687 0.83454 0.18000
C 	C 	0.20208 0.28513 0.71680 -0.03000
C 	C 	0.20518 0.37344 0.74982 0.12500
H 	H 	0.17744 0.22018 0.70831 0.09300
C 	C 	0.21377 0.92944 0.68985 -0.03200
Br	Br	0.26177 0.08394 0.71856 -0.20300
Br	Br	0.03754 0.66388 0.01176 -0.16200
C 	C 	0.26717 0.86325 0.94284 -0.06600
Ni	Ni	0.26982 0.54667 0.43280 1.12700
Ni	Ni	0.27045 0.69077 0.64280 1.11600
C 	C 	0.27847 0.77368 0.86793 0.32500
C 	C 	0.28594 0.80243 0.92878 0.31000
O 	O 	0.27165 0.47873 0.91760 -0.36000
C 	C 	0.29396 0.07423 0.24389 -0.07400
C 	C 	0.30893 0.10350 0.09893 -0.02800
C 	C 	0.26493 0.16376 0.18077 -0.09800
C 	C 	0.28320 0.23887 0.16687 0.17500
C 	C 	0.26897 0.94030 0.93303 0.12400
C 	C 	0.26808 0.00674 0.94717 -0.02000
H 	H 	0.26310 0.06243 0.93952 0.07900
C 	C 	0.29109 0.89131 0.83965 0.18300
H 	H 	0.29225 0.98805 0.81556 0.07700
O 	O 	0.29307 0.27280 0.82984 -0.27200
C 	C 	0.27247 0.45269 0.73899 -0.03100
C 	C 	0.29645 0.45017 0.71617 -0.08000
C 	C 	0.26672 0.36521 0.70578 0.13600
H 	H 	0.29719 0.51795 0.74734 0.06900
H 	H 	0.28481 0.96880 0.68407 0.08000
H 	H 	0.00419 0.24870 0.03447 0.10600
Br	Br	0.26702 0.95364 0.90057 -0.20300
O 	O 	0.31874 0.77394 0.39985 -0.37200
O 	O 	0.32921 0.54264 0.46224 -0.37800
O 	O 	0.32560 0.67400 0.43758 -0.72200
H 	H 	0.32568 0.67640 0.45440 0.16600
C 	C 	0.31387 0.52749 0.70167 0.32800
O 	O 	0.32475 0.70257 0.67163 -0.71500
O 	O 	0.33224 0.55288 0.87104 -0.37400
C 	C 	0.32030 0.01843 0.25610 0.12700
H 	H 	0.32647 0.15875 0.11084 0.07000
H 	H 	0.31861 0.07935 0.19346 0.07100
Br	Br	0.32961 0.50267 0.97723 -0.18900
H 	H 	0.33711 0.41678 0.85490 0.06700
H 	H 	0.32788 0.30575 0.81598 0.16500
Br	Br	0.30813 0.35813 0.67567 -0.17400
H 	H 	0.31006 0.48131 0.59408 0.07800
O 	O 	0.34276 0.64421 0.62221 -0.34400
O 	O 	0.34955 0.82888 0.88084 -0.35600
O 	O 	0.34355 0.66637 0.90723 -0.72000
H 	H 	0.33970 0.66759 0.92401 0.17300
H 	H 	0.34467 0.20456 0.22732 0.06700
C 	C 	0.35512 0.01682 0.07476 0.13900
C 	C 	0.33256 0.13809 0.18321 -0.05900
O 	O 	0.35485 0.85038 0.44761 -0.36500
O 	O 	0.35191 0.71014 0.72116 -0.35800
H 	H 	0.35177 0.76832 0.67441 0.17300
C 	C 	0.36322 0.16091 0.23672 -0.03900
Br	Br	0.34744 0.35404 0.56754 -0.22300
H 	H 	0.36018 0.40506 0.46984 0.07700
O 	O 	0.00380 0.00733 0.77442 -0.68100
O 	O 	0.36989 0.53237 0.41726 -0.37200
O 	O 	0.37224 0.81941 0.92798 -0.37100
C 	C 	0.37901 0.09736 0.08709 -0.08100
C 	C 	0.36687 0.28431 0.15480 -0.05100
H 	H 	0.36397 0.47812 0.36681 0.08400
C 	C 	0.37504 0.59338 0.63060 0.32600
O 	O 	0.37397 0.58181 0.65244 -0.36000
O 	O 	0.37717 0.81858 0.63581 -0.35900
H 	H 	0.37780 0.33775 0.14289 0.07100
O 	O 	0.38575 0.93456 0.84119 -0.26700
H 	H 	0.37165 0.28972 0.50505 0.17000
C 	C 	0.37853 0.49601 0.59932 -0.02400
Br	Br	0.00226 0.29291 0.33788 -0.18300
O 	O 	0.00264 0.76024 0.83447 -0.24300
Ni	Ni	0.39046 0.58673 0.90315 1.11800
C 	C 	0.40295 0.84136 0.39864 0.32900
O 	O 	0.39875 0.59605 0.69855 -0.36300
H 	H 	0.40538 0.90665 0.82911 0.15900
Br	Br	0.39717 0.34864 0.34077 -0.23100
H 	H 	0.40423 0.98854 0.41606 0.06900
C 	C 	0.41361 0.05334 0.26225 -0.03200
C 	C 	0.41502 0.99295 0.39776 -0.03500
C 	C 	0.41830 0.85747 0.46273 0.30800
C 	C 	0.41790 0.18707 0.17239 0.18300
C 	C 	0.41898 0.92273 0.38604 -0.08300
Br	Br	0.41624 0.82443 0.34506 -0.19100
C 	C 	0.41657 0.44529 0.59008 0.13100
C 	C 	0.42067 0.58463 0.46496 0.30500
C 	C 	0.42239 0.92440 0.36201 0.12600
C 	C 	0.41992 0.44733 0.48039 -0.05200
O 	O 	0.42110 0.31364 0.49331 -0.27800
Br	Br	0.42300 0.16579 0.40241 -0.19200
Ni	Ni	0.42458 0.79108 0.90082 1.12800
C 	C 	0.42509 0.06896 0.38589 0.13100
C 	C 	0.42620 0.56167 0.61623 -0.07400
C 	C 	0.43010 0.59029 0.40259 0.32600
Ni	Ni	0.43135 0.69006 0.67321 1.13200
H 	H 	0.43227 0.01322 0.27313 0.07700
C 	C 	0.43303 0.25616 0.15680 -0.10200
C 	C 	0.43334 0.49402 0.37155 -0.02600
C 	C 	0.43377 0.00141 0.35027 -0.03200
O 	O 	0.43437 0.82290 0.50965 -0.27600
C 	C 	0.44183 0.77051 0.71724 0.31000
Br	Br	0.44267 0.75745 0.98609 -0.18400
H 	H 	0.99227 0.97898 0.24200 0.16100
O 	O 	0.98872 0.61081 0.46258 -0.27300
O 	O 	0.98865 0.99590 0.22605 -0.72400
C 	C 	0.99052 0.55380 0.47897 0.17200
Br	Br	0.97436 0.40248 0.41262 -0.22000
H 	H 	0.95613 0.57097 0.44935 0.16900
O 	O 	0.98346 0.86585 0.74835 -0.38700
H 	H 	0.99575 0.00762 0.75776 0.13700
C 	C 	0.93708 0.43229 0.36660 -0.01900
H 	H 	0.86741 0.37991 0.37082 0.02900
C 	C 	0.56362 0.14306 0.52997 0.30700
C 	C 	0.82049 0.42584 0.59424 0.32200
C 	C 	0.57405 0.16614 0.59395 0.32900
C 	C 	0.84461 0.41517 0.52858 0.30400
C 	C 	0.55441 0.42491 0.58481 0.32400
C 	C 	0.57246 0.41852 0.52343 0.31000
Ni	Ni	0.72482 0.27016 0.56184 1.11700
Ni	Ni	0.71864 0.45723 0.55720 1.12700
Ni	Ni	0.52936 0.26818 0.55867 1.12800
O 	O 	0.62430 0.14925 0.54580 -0.36700
O 	O 	0.51564 0.18606 0.53218 -0.36500
O 	O 	0.62048 0.47984 0.57081 -0.37300
O 	O 	0.83399 0.37506 0.57954 -0.36100
O 	O 	0.76267 0.45518 0.58950 -0.35600
O 	O 	0.51106 0.35415 0.53745 -0.35500
O 	O 	0.65881 0.23233 0.59284 -0.37400
O 	O 	0.51212 0.16209 0.57922 -0.35700
O 	O 	0.66349 0.45855 0.52684 -0.37700
O 	O 	0.80341 0.32651 0.53273 -0.35200
O 	O 	0.83836 0.47209 0.54323 -0.35700
O 	O 	0.52993 0.33834 0.58634 -0.36100
O 	O 	0.65906 0.32882 0.55380 -0.72100
H 	H 	0.66005 0.32362 0.53705 0.16500
Ni	Ni	0.45481 0.73923 0.43199 1.12900
O 	O 	0.45286 0.67650 0.40278 -0.36100
O 	O 	0.46576 0.84686 0.41326 -0.35900
O 	O 	0.47915 0.65192 0.45112 -0.34300
O 	O 	0.46673 0.81527 0.45971 -0.36600
C 	C 	0.46431 0.84348 0.64015 0.29900
O 	O 	0.47590 0.78817 0.69645 -0.37700
O 	O 	0.48929 0.78296 0.64669 -0.33300
C 	C 	0.85072 0.92017 0.81683 0.32900
C 	C 	0.79517 0.91141 0.75690 0.30100
Ni	Ni	0.94418 0.07186 0.78233 1.10200
Ni	Ni	0.94351 0.87967 0.77988 1.11800
O 	O 	0.84029 0.97648 0.80334 -0.37500
O 	O 	0.91292 0.89633 0.81232 -0.38500
O 	O 	0.85113 0.00127 0.75609 -0.36400
O 	O 	0.81632 0.85789 0.76924 -0.34500
C 	C 	0.50974 0.72774 0.93736 0.30300
C 	C 	0.53236 0.73415 0.87336 0.33200
O 	O 	0.45828 0.63873 0.93389 -0.34300
O 	O 	0.52435 0.78673 0.92053 -0.35200
O 	O 	0.51880 0.67076 0.88818 -0.36900
O 	O 	0.47449 0.76499 0.87217 -0.37800
C 	C 	0.73122 0.47556 0.05966 0.30000
C 	C 	0.50498 0.28234 0.13923 0.33200
C 	C 	0.72800 0.54844 0.12216 0.32400
C 	C 	0.47192 0.17930 0.08537 0.31100
C 	C 	0.79121 0.32397 0.14462 0.32200
C 	C 	0.80584 0.27133 0.08722 0.30800
Ni	Ni	0.58575 0.38688 0.09573 1.11800
Ni	Ni	0.63285 0.23380 0.11475 1.12400
Ni	Ni	0.79813 0.43246 0.10353 1.12300
O 	O 	0.64076 0.42741 0.06321 -0.33600
O 	O 	0.78989 0.50827 0.07721 -0.36100
O 	O 	0.70128 0.28798 0.14373 -0.38700
O 	O 	0.53835 0.36196 0.12922 -0.37600
O 	O 	0.51660 0.21766 0.13023 -0.38700
O 	O 	0.82693 0.35642 0.08255 -0.36800
O 	O 	0.67041 0.52311 0.10483 -0.35700
O 	O 	0.77230 0.50467 0.12710 -0.37100
O 	O 	0.73619 0.21669 0.10119 -0.37300
O 	O 	0.47735 0.26053 0.08416 -0.35400
O 	O 	0.54665 0.17172 0.08826 -0.35400
O 	O 	0.84407 0.38521 0.12941 -0.36700
O 	O 	0.67039 0.34492 0.09966 -0.72100
H 	H 	0.67094 0.32419 0.08395 0.16800
C 	C 	0.86065 0.84982 0.18296 0.33100
C 	C 	0.85444 0.79129 0.23984 0.30500
C 	C 	0.92371 0.13373 0.20080 0.32300
C 	C 	0.92714 0.07489 0.26559 0.29600
Ni	Ni	0.85988 0.95842 0.22362 1.12400
O 	O 	0.87617 0.04483 0.19827 -0.37700
O 	O 	0.95073 0.89883 0.18278 -0.37300
O 	O 	0.81271 0.85609 0.19995 -0.36700
O 	O 	0.86564 0.04432 0.24873 -0.35200
O 	O 	0.93131 0.80588 0.22892 -0.33900
O 	O 	0.84032 0.85920 0.24569 -0.36200
O 	O 	0.98387 0.17110 0.21759 -0.37400
C 	C 	0.51642 0.16709 0.35414 0.29800
C 	C 	0.87799 0.45282 0.32962 0.33000
C 	C 	0.60611 0.42002 0.35630 0.32800
C 	C 	0.78194 0.20819 0.32229 0.30000
C 	C 	0.66861 0.45131 0.28416 0.32800
C 	C 	0.54301 0.19676 0.27680 0.30400
Ni	Ni	0.71051 0.31846 0.35043 1.11700
Ni	Ni	0.73831 0.32930 0.29535 1.12600
Ni	Ni	0.55098 0.30383 0.31651 1.13200
O 	O 	0.60248 0.19555 0.36062 -0.35600
O 	O 	0.49154 0.22427 0.34511 -0.33600
O 	O 	0.74121 0.44721 0.29088 -0.37200
O 	O 	0.80522 0.44603 0.33928 -0.37200
O 	O 	0.86597 0.40378 0.31110 -0.34200
O 	O 	0.50486 0.19455 0.29670 -0.37800
O 	O 	0.63869 0.37425 0.36724 -0.34800
O 	O 	0.60611 0.42086 0.33416 -0.35800
O 	O 	0.63204 0.25774 0.27222 -0.34900
O 	O 	0.79340 0.26063 0.34058 -0.34300
O 	O 	0.75075 0.22015 0.30247 -0.36800
O 	O 	0.58433 0.38325 0.28812 -0.35300
O 	O 	0.65739 0.29271 0.32113 -0.71400
H 	H 	0.63029 0.22612 0.32049 0.16700
C 	C 	0.80503 0.89978 0.00232 0.32000
C 	C 	0.91246 0.76112 0.00807 0.29900
C 	C 	0.99520 0.09807 0.05167 0.29800
Ni	Ni	0.98095 0.94864 0.98366 1.12400
Ni	Ni	0.94168 0.91317 0.03781 1.11900
O 	O 	0.92678 0.02032 0.04457 -0.36300
O 	O 	0.87648 0.97030 0.99413 -0.35700
O 	O 	0.81693 0.85965 0.02031 -0.35500
O 	O 	0.90317 0.80634 0.99043 -0.34100
O 	O 	0.94265 0.79982 0.02831 -0.37100
C 	C 	0.47900 0.14517 0.25807 -0.07200
C 	C 	0.45595 0.19287 0.24224 0.13000
Br	Br	0.54917 0.30462 0.22912 -0.20600
C 	C 	0.72503 0.53451 0.24799 -0.02700
C 	C 	0.68325 0.52690 0.26928 -0.07300
C 	C 	0.68506 0.60391 0.27881 0.13300
C 	C 	0.74021 0.68962 0.26897 -0.03500
C 	C 	0.79011 0.69885 0.24881 -0.06300
C 	C 	0.77762 0.61946 0.23758 0.13200
Br	Br	0.83058 0.62376 0.20812 -0.20600
H 	H 	0.72377 0.47545 0.24049 0.08400
H 	H 	0.74695 0.74926 0.27749 0.09700
Br	Br	0.61723 0.59428 0.30613 -0.18100
C 	C 	0.95660 0.16027 0.30233 -0.04000
C 	C 	0.89678 0.08532 0.28871 -0.06500
C 	C 	0.80417 0.03015 0.29597 0.13300
C 	C 	0.76924 0.06144 0.31336 -0.03200
C 	C 	0.82374 0.14974 0.32203 -0.07000
C 	C 	0.92021 0.19101 0.31946 0.12800
H 	H 	0.69620 0.02330 0.31750 0.07800
Br	Br	0.72491 0.91277 0.28279 -0.21800
C 	C 	0.76643 0.61602 0.00749 -0.03500
C 	C 	0.86333 0.66152 0.00746 -0.06700
C 	C 	0.90762 0.61635 0.01650 0.10900
C 	C 	0.85940 0.54340 0.03151 -0.02600
C 	C 	0.76618 0.51344 0.03660 -0.06700
C 	C 	0.71704 0.54216 0.02223 0.12900
Br	Br	0.58421 0.47990 0.02134 -0.19200
H 	H 	0.73033 0.64464 0.99832 0.08000
H 	H 	0.89674 0.51718 0.04106 0.08000
Br	Br	0.44765 0.99310 0.06231 -0.18100
C 	C 	0.88137 0.17861 0.09322 -0.03200
C 	C 	0.86901 0.23924 0.07937 -0.08100
C 	C 	0.91402 0.26477 0.05794 0.14000
C 	C 	0.97082 0.22993 0.05104 -0.06800
C 	C 	0.97312 0.16072 0.06366 -0.06300
C 	C 	0.92775 0.13516 0.08493 0.12200
Br	Br	0.91360 0.03025 0.10098 -0.20600
H 	H 	0.84926 0.16030 0.10994 0.06900
Br	Br	0.88693 0.33317 0.03618 -0.21100
C 	C 	0.83231 0.28730 0.16120 -0.09800
C 	C 	0.77773 0.23173 0.17925 -0.05600
C 	C 	0.80786 0.18236 0.19240 0.17400
C 	C 	0.89446 0.19007 0.18806 -0.09100
C 	C 	0.95207 0.25022 0.17120 -0.07000
C 	C 	0.92161 0.29868 0.15771 0.17800
H 	H 	0.71069 0.22489 0.18276 0.08600
O 	O 	0.75339 0.12818 0.20986 -0.27100
O 	O 	0.98003 0.35858 0.14163 -0.27100
H 	H 	0.97021 0.32161 0.12768 0.15600
H 	H 	0.71270 0.06785 0.20281 0.15500
O 	O 	0.48655 0.16685 0.17691 -0.27000
H 	H 	0.47287 0.11388 0.16707 0.15600
C 	C 	0.81333 0.78106 0.16469 -0.09300
C 	C 	0.86002 0.78909 0.14406 -0.05400
C 	C 	0.82942 0.71432 0.12935 0.18000
C 	C 	0.74994 0.63158 0.13484 -0.09700
C 	C 	0.69752 0.62637 0.15406 -0.04600
C 	C 	0.72800 0.70103 0.16885 0.17800
H 	H 	0.92260 0.85199 0.13994 0.09100
O 	O 	0.87754 0.72215 0.10967 -0.27300
H 	H 	0.63501 0.56322 0.15807 0.07600
O 	O 	0.67762 0.69323 0.18809 -0.26100
H 	H 	0.63397 0.71410 0.18344 0.15800
H 	H 	0.92490 0.70572 0.11404 0.15500
C 	C 	0.63586 0.81823 0.99343 -0.02000
C 	C 	0.72685 0.84604 0.98649 -0.08600
C 	C 	0.74267 0.82849 0.96358 0.14200
C 	C 	0.66801 0.77612 0.94940 -0.03500
C 	C 	0.57966 0.75765 0.95538 -0.06200
C 	C 	0.56275 0.77808 0.97759 0.12500
H 	H 	0.62267 0.83260 0.01062 0.07900
H 	H 	0.68050 0.75952 0.93235 0.08300
Br	Br	0.86222 0.88901 0.94923 -0.31600
Br	Br	0.92752 0.15345 0.94437 -0.21700
H 	H 	0.98278 0.78850 0.84640 0.12900
C 	C 	0.78128 0.87154 0.83453 -0.10500
C 	C 	0.75684 0.92094 0.84941 -0.05000
C 	C 	0.67630 0.87620 0.86249 0.17900
C 	C 	0.62012 0.78102 0.86094 -0.10500
C 	C 	0.64810 0.73091 0.84736 -0.04900
C 	C 	0.72848 0.77575 0.83416 0.17600
H 	H 	0.79848 0.99453 0.85017 0.06700
O 	O 	0.65377 0.92524 0.87722 -0.28200
H 	H 	0.60597 0.65740 0.84647 0.07000
O 	O 	0.75152 0.72643 0.81968 -0.28100
H 	H 	0.79218 0.71110 0.82877 0.15700
H 	H 	0.61724 0.94532 0.86799 0.15400
C 	C 	0.54800 0.74011 0.73963 -0.03800
C 	C 	0.50976 0.79640 0.73590 -0.07300
C 	C 	0.56182 0.88873 0.74224 0.12400
C 	C 	0.65500 0.92615 0.74880 -0.03300
C 	C 	0.69761 0.87219 0.74879 -0.06900
C 	C 	0.64304 0.77816 0.74379 0.12800
Br	Br	0.69843 0.70357 0.73857 -0.20100
H 	H 	0.50719 0.66811 0.73577 0.07900
H 	H 	0.69416 0.99723 0.75366 0.07200
Br	Br	0.50838 0.96602 0.74047 -0.20600
Br	Br	0.97490 0.69178 0.66998 -0.21200
H 	H 	0.95978 0.78853 0.71035 0.06700
C 	C 	0.48169 0.55991 0.38826 -0.07300
C 	C 	0.57150 0.57951 0.39458 0.13100
C 	C 	0.60988 0.53009 0.38490 -0.02200
C 	C 	0.56009 0.46206 0.36869 -0.07600
C 	C 	0.47105 0.44417 0.36200 0.14200
H 	H 	0.67922 0.54597 0.38965 0.07700
Br	Br	0.64284 0.67329 0.41639 -0.21400
C 	C 	0.95654 0.47349 0.34491 -0.08900
C 	C 	0.44604 0.07806 0.36245 -0.06900
H 	H 	0.44431 0.00580 0.33194 0.07200
C 	C 	0.55178 0.52732 0.61421 -0.02700
C 	C 	0.50383 0.46096 0.59763 -0.07300
C 	C 	0.51476 0.57857 0.62323 0.13900
Br	Br	0.58711 0.67123 0.64521 -0.24000
H 	H 	0.61992 0.54140 0.61960 0.08500
C 	C 	0.86971 0.41008 0.63333 -0.02600
C 	C 	0.88290 0.46402 0.61391 -0.07300
C 	C 	0.96155 0.55067 0.61239 0.11100
C 	C 	0.93754 0.44038 0.65054 0.11400
Br	Br	0.91911 0.36402 0.67647 -0.19800
H 	H 	0.80832 0.34357 0.63473 0.08300
Br	Br	0.98085 0.62776 0.58648 -0.22300
C 	C 	0.54937 0.00965 0.64272 -0.03600
C 	C 	0.53348 0.93120 0.63080 -0.06600
C 	C 	0.54827 0.93721 0.60707 0.12400
C 	C 	0.55544 0.01178 0.59503 -0.03000
C 	C 	0.55603 0.08434 0.60674 -0.08600
C 	C 	0.55859 0.08552 0.63079 0.13100
Br	Br	0.57041 0.18815 0.64762 -0.18600
H 	H 	0.54344 0.00767 0.66117 0.07800
H 	H 	0.56134 0.01359 0.57660 0.06900
Br	Br	0.54574 0.83809 0.59056 -0.19900
C 	C 	0.53781 0.46078 0.50711 -0.08900
C 	C 	0.57803 0.55598 0.50657 -0.04900
C 	C 	0.53855 0.59678 0.49336 0.17500
C 	C 	0.45908 0.54242 0.48020 -0.08600
C 	C 	0.45860 0.40644 0.49385 0.18100
H 	H 	0.63830 0.59831 0.51696 0.07500
O 	O 	0.57796 0.68979 0.49330 -0.26700
H 	H 	0.54824 0.70387 0.50612 0.15400
C 	C 	0.53306 0.07139 0.51243 -0.08900
C 	C 	0.50513 0.98157 0.51888 -0.05600
C 	C 	0.46432 0.91078 0.50288 0.17700
C 	C 	0.45089 0.92949 0.48020 -0.09500
C 	C 	0.47921 0.01933 0.47373 -0.04700
C 	C 	0.51995 0.09011 0.48972 0.17400
H 	H 	0.51287 0.96617 0.53642 0.07700
H 	H 	0.47146 0.03469 0.45617 0.07800
O 	O 	0.54987 0.17801 0.48294 -0.27400
H 	H 	0.49542 0.18655 0.48460 0.17500
H 	H 	0.48870 0.81430 0.50787 0.16200
C 	C 	0.91829 0.45353 0.51134 -0.08700
C 	C 	0.91838 0.51340 0.49483 -0.05400
C 	C 	0.99188 0.43501 0.51215 0.16900
H 	H 	0.86220 0.52825 0.49420 0.07400
O 	O 	0.99337 0.37752 0.52845 -0.28300
