data_crystal

_cell_length_a 26.84306
_cell_length_b 26.76296
_cell_length_c 26.60420
_cell_angle_alpha 95.46850
_cell_angle_beta  95.47168
_cell_angle_gamma 125.70951

_symmetry_space_group_name_	'P 1'
_symmetry_space_group_name_H-M	'P 1'

loop_
_symmetry_equiv_pos_as_xyz
  x,y,z

loop_
_atom_site_label
_atom_site_type_symbol
_atom_site_fract_x
_atom_site_fract_y
_atom_site_fract_z
_atom_site_charge
C 	C 	0.03741 0.07276 0.97092 -0.10800
C 	C 	0.06097 0.03805 0.96529 0.07100
H 	H 	0.06633 0.12189 0.96799 0.05500
C 	C 	0.98499 0.02624 0.42972 -0.08600
H 	H 	0.00790 0.07555 0.42936 0.04800
C 	C 	0.19654 0.08731 0.45270 0.02400
C 	C 	0.24169 0.12233 0.49773 -0.05100
C 	C 	0.30513 0.16054 0.49508 -0.03500
C 	C 	0.32407 0.16296 0.44735 0.00100
C 	C 	0.27891 0.12841 0.40226 -0.03700
C 	C 	0.21545 0.09023 0.40490 -0.05000
C 	C 	0.12977 0.04489 0.45617 -0.04500
C 	C 	0.08640 0.04403 0.42545 -0.06000
H 	H 	0.22761 0.12021 0.53477 0.03900
H 	H 	0.29301 0.13037 0.36524 0.03300
H 	H 	0.18108 0.06235 0.36994 0.03900
H 	H 	0.11641 0.01673 0.48607 0.03900
H 	H 	0.10054 0.07661 0.39896 0.04200
C 	C 	0.36220 0.18546 0.97242 0.00600
C 	C 	0.26331 0.17068 0.96493 -0.04300
C 	C 	0.23473 0.11144 0.97865 0.01300
C 	C 	0.27027 0.08960 0.98939 -0.03200
C 	C 	0.33368 0.12642 0.98656 -0.04200
C 	C 	0.16936 0.07480 0.98689 -0.02400
C 	C 	0.12414 0.06815 0.95357 -0.07300
H 	H 	0.24904 0.04456 0.00093 0.02800
H 	H 	0.36103 0.10993 0.99699 0.04300
H 	H 	0.15794 0.05225 0.02024 0.02700
H 	H 	0.13496 0.08938 0.91957 0.04600
H 	H 	0.43585 0.15790 0.93880 0.07200
C 	C 	0.97673 0.04435 0.98036 0.06700
C 	C 	0.79287 0.13207 0.42209 -0.00000
C 	C 	0.85714 0.16981 0.42096 -0.03600
C 	C 	0.88757 0.14242 0.41280 -0.05100
C 	C 	0.85455 0.07733 0.40704 0.02500
C 	C 	0.79005 0.03946 0.40672 -0.04800
C 	C 	0.75949 0.06677 0.41457 -0.03700
C 	C 	0.88792 0.04918 0.40187 -0.04600
C 	C 	0.88463 0.01188 0.43397 -0.05500
H 	H 	0.71002 0.03724 0.41556 0.03500
C 	C 	0.84220 0.17984 0.01673 0.00300
C 	C 	0.93247 0.17883 0.02609 -0.05200
C 	C 	0.89317 0.11350 0.02197 0.02600
C 	C 	0.82863 0.08184 0.01781 -0.05200
C 	C 	0.80308 0.11464 0.01452 -0.03800
C 	C 	0.91917 0.07781 0.02018 -0.05600
C 	C 	0.95159 0.08093 0.98355 -0.05200
H 	H 	0.98256 0.20388 0.03042 0.03800
H 	H 	0.79804 0.03149 0.01512 0.03700
H 	H 	0.75284 0.08910 0.00834 0.03300
H 	H 	0.90886 0.04631 0.04711 0.04000
H 	H 	0.96200 0.11285 0.95695 0.04300
H 	H 	0.74813 0.17172 0.05258 0.07700
C 	C 	0.01979 0.00256 0.42969 0.05100
H 	H 	0.41661 0.16919 0.50198 0.07700
H 	H 	0.23702 0.18914 0.95831 0.03800
H 	H 	0.91862 0.06238 0.37397 0.04000
H 	H 	0.73038 0.14105 0.46432 0.02600
H 	H 	0.33950 0.18833 0.53006 0.03800
C 	C 	0.76193 0.16074 0.43724 0.00700
H 	H 	0.93723 0.17195 0.41259 0.03900
C 	C 	0.39109 0.20306 0.44417 0.00800
H 	H 	0.40593 0.23160 0.41458 0.03100
H 	H 	0.80028 0.22698 0.38841 0.07900
C 	C 	0.90705 0.21177 0.02324 -0.03900
C 	C 	0.76630 0.20260 0.02481 -0.15300
Cu	Cu	0.64382 0.25569 0.01106 0.92600
O 	O 	0.55235 0.21926 0.00136 -0.38000
O 	O 	0.64329 0.25623 0.93658 -0.63800
C 	C 	0.52946 0.24287 0.97499 0.31200
H 	H 	0.60132 0.23075 0.91450 0.17000
O 	O 	0.53704 0.23417 0.50169 -0.38900
C 	C 	0.49953 0.24078 0.47219 0.30800
H 	H 	0.59521 0.23471 0.41518 0.16200
C 	C 	0.62444 0.25022 0.73834 -0.01300
H 	H 	0.58525 0.21007 0.75037 0.03300
H 	H 	0.58619 0.21166 0.65791 0.03700
C 	C 	0.43253 0.20118 0.47493 -0.15000
C 	C 	0.32661 0.20727 0.96161 -0.04000
C 	C 	0.43072 0.22784 0.97524 0.01100
C 	C 	0.46158 0.20622 0.95836 -0.15200
H 	H 	0.34833 0.25321 0.95175 0.03700
Cu	Cu	0.70061 0.24410 0.90984 0.87100
O 	O 	0.68053 0.20971 0.02078 -0.37900
O 	O 	0.75409 0.26536 0.97273 -0.43700
C 	C 	0.73366 0.22861 0.00677 0.29700
O 	O 	0.66816 0.24462 0.84304 -0.41900
O 	O 	0.71186 0.22302 0.47268 -0.44700
C 	C 	0.74733 0.24329 0.43780 0.31000
C 	C 	0.77171 0.20975 0.41779 -0.16000
H 	H 	0.88385 0.22037 0.42794 0.03400
C 	C 	0.81538 0.21344 0.00506 -0.00900
H 	H 	0.93764 0.26194 0.02487 0.03300
H 	H 	0.83619 0.24748 0.97994 0.03500
C 	C 	0.62488 0.25124 0.68592 -0.01300
O 	O 	0.65729 0.27184 0.08465 -0.36100
Cu	Cu	0.62667 0.28472 0.50747 0.89700
O 	O 	0.62220 0.27824 0.43477 -0.64200
O 	O 	0.52175 0.28816 0.44725 -0.40000
O 	O 	0.63010 0.27534 0.58020 -0.38800
H 	H 	0.56581 0.29660 0.26039 0.03100
H 	H 	0.56110 0.29279 0.16716 0.03900
H 	H 	0.45650 0.27675 0.99334 0.02700
Cu	Cu	0.73283 0.27765 0.53494 0.87000
C 	C 	0.60085 0.29999 0.19057 -0.01200
C 	C 	0.67831 0.29560 0.82979 0.28200
C 	C 	0.60350 0.30208 0.24348 -0.01400
O 	O 	0.76517 0.29619 0.42350 -0.38100
C 	C 	0.64787 0.30826 0.11260 0.28200
O 	O 	0.56664 0.30048 0.96686 -0.39200
C 	C 	0.68081 0.29897 0.61497 0.28100
C 	C 	0.67514 0.30019 0.77506 -0.07100
C 	C 	0.67649 0.30186 0.66977 -0.07100
C 	C 	0.65499 0.31210 0.27455 -0.06500
C 	C 	0.64933 0.30726 0.16795 -0.06600
O 	O 	0.70084 0.31637 0.35903 -0.36100
O 	O 	0.73212 0.31065 0.60150 -0.41900
C 	C 	0.70254 0.31721 0.25162 -0.01200
C 	C 	0.69956 0.31461 0.19852 -0.01300
C 	C 	0.66065 0.32103 0.33109 0.28000
H 	H 	0.73700 0.31978 0.18137 0.03800
H 	H 	0.74247 0.32471 0.27495 0.04600
Cu	Cu	0.59907 0.32918 0.41646 0.89200
Cu	Cu	0.71787 0.33144 0.43269 0.92800
O 	O 	0.71835 0.33323 0.50738 -0.64100
O 	O 	0.62464 0.33494 0.09105 -0.38700
H 	H 	0.85352 0.99840 0.46157 0.04000
H 	H 	0.76380 0.98898 0.40105 0.03700
C 	C 	0.92093 0.98658 0.43124 0.05100
C 	C 	0.02326 0.97422 0.96827 -0.10700
H 	H 	0.04085 0.94694 0.96232 0.05700
C 	C 	0.99034 0.93891 0.43108 -0.09200
H 	H 	0.01649 0.91985 0.42897 0.05100
Cu	Cu	0.64329 0.37316 0.02780 0.88900
O 	O 	0.70060 0.34595 0.86473 -0.38700
O 	O 	0.63567 0.34620 0.35252 -0.38400
O 	O 	0.67171 0.40679 0.47662 -0.39600
C 	C 	0.96200 0.94520 0.97703 0.06500
C 	C 	0.93868 0.98021 0.98245 -0.10300
H 	H 	0.89071 0.95734 0.98729 0.05600
C 	C 	0.92675 0.89954 0.43399 0.05700
C 	C 	0.89212 0.92339 0.43370 -0.09600
H 	H 	0.84284 0.89285 0.43542 0.05100
Cu	Cu	0.69008 0.34812 0.93722 0.89900
O 	O 	0.69543 0.35158 0.00984 -0.64700
O 	O 	0.73923 0.43797 0.94356 -0.38600
C 	C 	0.73294 0.47500 0.97424 0.30500
O 	O 	0.68505 0.45199 0.99851 -0.39300
H 	H 	0.73861 0.37900 0.02987 0.16100
O 	O 	0.75235 0.42273 0.44087 -0.37000
C 	C 	0.72807 0.44519 0.46689 0.30200
H 	H 	0.74325 0.37562 0.52892 0.17000
C 	C 	0.72532 0.35222 0.75893 -0.01300
C 	C 	0.72619 0.35284 0.70650 -0.01300
H 	H 	0.76469 0.39112 0.78695 0.03800
H 	H 	0.76599 0.39238 0.69447 0.03400
C 	C 	0.88867 0.74613 0.46655 0.02400
C 	C 	0.87541 0.72103 0.51158 -0.05000
C 	C 	0.84994 0.65792 0.51033 -0.03600
C 	C 	0.83793 0.61954 0.46401 0.00200
C 	C 	0.85238 0.64500 0.41927 -0.03700
C 	C 	0.87753 0.70792 0.42046 -0.04900
C 	C 	0.81351 0.55354 0.46249 0.00700
C 	C 	0.76027 0.51346 0.47912 -0.15100
C 	C 	0.91790 0.81338 0.46851 -0.04400
C 	C 	0.89528 0.83227 0.43405 -0.06200
H 	H 	0.88487 0.75040 0.54752 0.03900
H 	H 	0.84038 0.63912 0.54540 0.03600
H 	H 	0.84419 0.61600 0.38356 0.03700
H 	H 	0.88920 0.72721 0.38577 0.04000
H 	H 	0.83541 0.53616 0.44233 0.03900
H 	H 	0.73777 0.53077 0.49835 0.07300
H 	H 	0.95741 0.84766 0.49899 0.03900
H 	H 	0.85228 0.79792 0.40662 0.04400
C 	C 	0.81562 0.65198 0.00521 -0.00500
C 	C 	0.81914 0.67340 0.95851 -0.02800
C 	C 	0.85928 0.73742 0.95768 -0.04200
C 	C 	0.89496 0.78091 0.00374 0.01600
C 	C 	0.89106 0.75953 0.05038 -0.05000
C 	C 	0.85113 0.69540 0.05116 -0.03700
C 	C 	0.93827 0.84878 0.00321 -0.05300
C 	C 	0.91996 0.87690 0.97578 -0.05400
C 	C 	0.77385 0.58416 0.00638 -0.00500
C 	C 	0.77330 0.54264 0.97311 -0.13600
H 	H 	0.79084 0.64048 0.92289 0.03800
H 	H 	0.86289 0.75317 0.92127 0.04000
H 	H 	0.91870 0.79260 0.08605 0.03800
H 	H 	0.84834 0.67944 0.08743 0.03300
H 	H 	0.98411 0.87661 0.02788 0.03800
H 	H 	0.87214 0.85010 0.95498 0.04300
H 	H 	0.74622 0.56869 0.03649 0.03100
H 	H 	0.80450 0.55903 0.94552 0.07600
