data_crystal

_cell_length_a 26.14751
_cell_length_b 26.40467
_cell_length_c 26.67168
_cell_angle_alpha 95.52609
_cell_angle_beta  95.52593
_cell_angle_gamma 125.86739

_symmetry_space_group_name_	'P 1'
_symmetry_space_group_name_H-M	'P 1'

loop_
_symmetry_equiv_pos_as_xyz
  x,y,z

loop_
_atom_site_label
_atom_site_type_symbol
_atom_site_fract_x
_atom_site_fract_y
_atom_site_fract_z
_atom_site_charge
C 	C 	0.98480 0.04702 0.01420 0.24700
N 	N 	0.95169 0.98510 0.01919 -0.08800
C 	C 	0.97993 0.95540 0.01674 0.26600
N 	N 	0.04203 0.98833 0.01084 -0.08200
C 	C 	0.07611 0.05078 0.00778 0.28000
N 	N 	0.04729 0.08004 0.00880 -0.08600
C 	C 	0.92135 0.98164 0.43454 0.32300
N 	N 	0.98604 0.01746 0.43763 -0.14200
C 	C 	0.01604 0.98950 0.43678 0.35500
N 	N 	0.98124 0.92545 0.43189 -0.12700
C 	C 	0.91655 0.88921 0.42837 0.29300
N 	N 	0.88653 0.91733 0.43012 -0.10500
Cu	Cu	0.65143 0.25452 0.00011 0.94100
Cu	Cu	0.70854 0.26680 0.89431 0.92000
Cu	Cu	0.68873 0.35849 0.93739 0.91800
Cu	Cu	0.65294 0.37142 0.03824 0.93200
C 	C 	0.66528 0.29515 0.10800 0.29100
O 	O 	0.55716 0.21649 0.99808 -0.27100
C 	C 	0.67677 0.32493 0.82540 0.29900
O 	O 	0.70447 0.35396 0.00803 -0.64100
O 	O 	0.64505 0.26490 0.92771 -0.62600
O 	O 	0.69143 0.20945 0.99546 -0.28300
O 	O 	0.76533 0.28119 0.95312 -0.36200
O 	O 	0.63893 0.32342 0.09552 -0.29900
O 	O 	0.73710 0.45021 0.95088 -0.29700
C 	C 	0.73405 0.48342 0.98926 0.39900
C 	C 	0.53379 0.24593 0.98205 0.38700
O 	O 	0.57337 0.30492 0.97608 -0.33600
O 	O 	0.68973 0.45534 0.01786 -0.31300
O 	O 	0.67168 0.26151 0.07267 -0.26500
C 	C 	0.74669 0.23631 0.98015 0.38700
O 	O 	0.67746 0.36138 0.86372 -0.28300
O 	O 	0.67256 0.27387 0.83207 -0.33700
H 	H 	0.75037 0.38101 0.02477 0.21000
H 	H 	0.60123 0.23874 0.90660 0.22100
Cu	Cu	0.71351 0.31434 0.42808 0.94500
Cu	Cu	0.71868 0.27771 0.54123 0.91700
Cu	Cu	0.62382 0.29619 0.50186 0.91800
Cu	Cu	0.58953 0.30600 0.39393 0.93300
C 	C 	0.66557 0.29488 0.32098 0.30300
O 	O 	0.75172 0.40532 0.41998 -0.27400
C 	C 	0.67271 0.32294 0.61252 0.29700
O 	O 	0.61504 0.26484 0.43110 -0.63500
O 	O 	0.71623 0.33483 0.50214 -0.62900
O 	O 	0.75796 0.27336 0.43281 -0.28900
O 	O 	0.69480 0.21241 0.48625 -0.36100
O 	O 	0.61494 0.29275 0.32820 -0.30300
O 	O 	0.53254 0.25138 0.49926 -0.28900
C 	C 	0.49255 0.24693 0.46167 0.39700
C 	C 	0.72307 0.43135 0.43102 0.39800
O 	O 	0.66569 0.39671 0.44238 -0.34000
O 	O 	0.51363 0.28124 0.42541 -0.30800
O 	O 	0.69479 0.28309 0.35590 -0.28100
C 	C 	0.73466 0.22367 0.45509 0.38400
O 	O 	0.63583 0.32425 0.57585 -0.28200
O 	O 	0.72143 0.32325 0.60293 -0.34200
H 	H 	0.58692 0.21786 0.42112 0.21600
H 	H 	0.74589 0.38045 0.51841 0.22500
C 	C 	0.61319 0.29071 0.73776 0.06600
C 	C 	0.67073 0.33582 0.77266 0.02700
C 	C 	0.72495 0.38474 0.75495 -0.07400
C 	C 	0.72252 0.38308 0.70182 0.06600
C 	C 	0.66727 0.33357 0.66656 0.02600
C 	C 	0.61072 0.28887 0.68457 -0.07700
C 	C 	0.54816 0.23883 0.64729 0.78300
H 	H 	0.57128 0.25504 0.75207 0.11100
H 	H 	0.76477 0.41835 0.68762 0.11500
C 	C 	0.78651 0.43649 0.79240 0.77900
F 	F 	0.49917 0.19910 0.67243 -0.38000
F 	F 	0.55646 0.20153 0.61425 -0.41300
F 	F 	0.52908 0.26833 0.61921 -0.38700
F 	F 	0.81215 0.40992 0.81661 -0.41400
F 	F 	0.77364 0.46650 0.82878 -0.37200
F 	F 	0.83220 0.48225 0.76807 -0.37800
C 	C 	0.72273 0.34509 0.19787 0.06500
C 	C 	0.67466 0.28991 0.16215 0.03300
C 	C 	0.63030 0.23302 0.17949 -0.06600
C 	C 	0.63206 0.23430 0.23256 0.06800
C 	C 	0.67645 0.29106 0.26799 0.03400
C 	C 	0.72481 0.34600 0.25090 -0.07200
C 	C 	0.77579 0.40683 0.28891 0.78200
H 	H 	0.75672 0.38816 0.18418 0.10600
H 	H 	0.59684 0.19191 0.24639 0.11500
C 	C 	0.58048 0.17141 0.14161 0.78200
F 	F 	0.82436 0.45129 0.26573 -0.37900
F 	F 	0.80337 0.39395 0.32762 -0.39400
F 	F 	0.74801 0.43299 0.30995 -0.40600
F 	F 	0.61103 0.15391 0.11309 -0.37300
F 	F 	0.54233 0.17949 0.10903 -0.39600
F 	F 	0.54071 0.12199 0.16613 -0.37800
C 	C 	0.83941 0.61077 0.45148 0.24700
C 	C 	0.80232 0.62485 0.42342 0.01500
C 	C 	0.74087 0.57518 0.39557 0.24700
C 	C 	0.71599 0.51189 0.39665 0.33800
C 	C 	0.75227 0.49768 0.42582 -0.18000
C 	C 	0.81451 0.54735 0.45260 0.33300
C 	C 	0.82795 0.69163 0.42290 0.00300
F 	F 	0.70512 0.58832 0.36768 -0.30300
F 	F 	0.85006 0.53428 0.48089 -0.34400
C 	C 	0.85988 0.72142 0.38367 0.25900
C 	C 	0.88546 0.78512 0.38373 0.31200
C 	C 	0.87951 0.81968 0.42317 -0.13600
C 	C 	0.84541 0.78912 0.46138 0.31200
C 	C 	0.81978 0.72532 0.46126 0.25700
F 	F 	0.86685 0.68882 0.34585 -0.29800
F 	F 	0.83942 0.82196 0.49976 -0.32100
F 	F 	0.91715 0.81374 0.34600 -0.31200
F 	F 	0.78789 0.69649 0.49884 -0.30900
F 	F 	0.89927 0.65856 0.47802 -0.30800
F 	F 	0.65657 0.46423 0.36927 -0.35100
C 	C 	0.89257 0.10351 0.47267 0.24200
C 	C 	0.83518 0.07879 0.43879 0.01900
C 	C 	0.80480 0.02081 0.40453 0.21300
C 	C 	0.83211 0.98828 0.40369 0.36100
C 	C 	0.88959 0.01304 0.43772 -0.18500
C 	C 	0.91910 0.07042 0.47271 0.32500
C 	C 	0.80544 0.11224 0.44108 0.00100
F 	F 	0.74879 0.99597 0.37213 -0.28400
F 	F 	0.97330 0.09387 0.50708 -0.32100
C 	C 	0.80507 0.14334 0.40130 0.24600
C 	C 	0.78109 0.17886 0.40533 0.32400
C 	C 	0.75849 0.18471 0.44979 -0.19000
C 	C 	0.75867 0.15307 0.48943 0.31800
C 	C 	0.78100 0.11631 0.48462 0.24600
F 	F 	0.82866 0.13977 0.35901 -0.30700
F 	F 	0.73881 0.15929 0.53328 -0.36700
F 	F 	0.77927 0.20699 0.36588 -0.33400
F 	F 	0.78012 0.08554 0.52289 -0.31000
F 	F 	0.92248 0.15962 0.50580 -0.30800
F 	F 	0.80355 0.93358 0.36905 -0.32800
C 	C 	0.18163 0.05347 0.41210 0.25600
C 	C 	0.22066 0.10089 0.45603 0.00400
C 	C 	0.19231 0.11207 0.49338 0.25700
C 	C 	0.12540 0.07625 0.48676 0.32200
C 	C 	0.08635 0.02868 0.44289 -0.16300
C 	C 	0.11473 0.01734 0.40564 0.30800
C 	C 	0.29119 0.14022 0.46201 0.01100
F 	F 	0.22969 0.15757 0.53612 -0.29600
F 	F 	0.07743 0.97184 0.36288 -0.29600
C 	C 	0.32568 0.20284 0.45329 0.24700
C 	C 	0.39195 0.23871 0.45527 0.33000
C 	C 	0.42422 0.21186 0.46524 -0.18000
C 	C 	0.39002 0.14996 0.47582 0.33000
C 	C 	0.32376 0.11433 0.47428 0.24900
F 	F 	0.29466 0.22852 0.44204 -0.30100
F 	F 	0.42062 0.12359 0.48588 -0.33400
F 	F 	0.42490 0.29960 0.44758 -0.32700
F 	F 	0.29092 0.05420 0.48376 -0.30200
F 	F 	0.20867 0.04290 0.37548 -0.30700
F 	F 	0.09843 0.08689 0.52341 -0.30800
C 	C 	0.82778 0.65700 0.04961 0.25200
C 	C 	0.84172 0.68579 0.00633 -0.00100
C 	C 	0.82261 0.64833 0.95749 0.26000
C 	C 	0.78777 0.58230 0.95174 0.32400
C 	C 	0.77370 0.55332 0.99511 -0.17200
C 	C 	0.79495 0.59127 0.04416 0.31200
C 	C 	0.87574 0.75510 0.01203 -0.00900
F 	F 	0.83715 0.67595 0.91552 -0.30000
F 	F 	0.78377 0.56436 0.08656 -0.34500
C 	C 	0.93985 0.79740 0.03796 0.26500
C 	C 	0.97274 0.86298 0.04193 0.28700
C 	C 	0.94259 0.88686 0.01823 -0.13100
C 	C 	0.87792 0.84438 0.99304 0.31200
C 	C 	0.84445 0.77893 0.99071 0.26900
F 	F 	0.97050 0.77481 0.05875 -0.30600
F 	F 	0.84817 0.86629 0.96932 -0.30300
F 	F 	0.03397 0.90339 0.06875 -0.28900
F 	F 	0.78182 0.73846 0.96697 -0.29900
F 	F 	0.84562 0.69275 0.09696 -0.30000
F 	F 	0.76574 0.54638 0.90395 -0.31000
C 	C 	0.94718 0.16456 0.03810 0.26400
C 	C 	0.88635 0.13154 0.00660 -0.01100
C 	C 	0.85808 0.07093 0.97766 0.27200
C 	C 	0.89072 0.04391 0.97946 0.29700
C 	C 	0.95157 0.07674 0.01108 -0.12700
C 	C 	0.97960 0.13718 0.04051 0.28300
C 	C 	0.85382 0.16183 0.00141 -0.00000
F 	F 	0.79921 0.03860 0.94719 -0.31000
F 	F 	0.03777 0.16894 0.07194 -0.30400
C 	C 	0.85087 0.18399 0.95628 0.25500
C 	C 	0.81563 0.20785 0.94922 0.31700
C 	C 	0.78390 0.21103 0.98779 -0.17900
C 	C 	0.78801 0.19004 0.03350 0.31400
C 	C 	0.82259 0.16524 0.04014 0.25000
F 	F 	0.88132 0.18128 0.91881 -0.31100
F 	F 	0.75912 0.19427 0.07166 -0.32900
F 	F 	0.81080 0.22624 0.90427 -0.36700
F 	F 	0.82519 0.14388 0.08393 -0.30600
F 	F 	0.97506 0.22337 0.06602 -0.31300
F 	F 	0.86386 0.98636 0.94964 -0.29100
C 	C 	0.38672 0.23142 0.00827 0.23800
C 	C 	0.33760 0.16738 0.98679 0.01900
C 	C 	0.35271 0.12923 0.96273 0.24800
C 	C 	0.41678 0.15490 0.96074 0.33100
C 	C 	0.46610 0.21890 0.98282 -0.17800
C 	C 	0.45067 0.25705 0.00659 0.31800
C 	C 	0.27099 0.13925 0.99274 0.01500
F 	F 	0.30537 0.06716 0.94182 -0.30300
F 	F 	0.49791 0.31842 0.02954 -0.36600
C 	C 	0.22977 0.14051 0.95592 0.25400
C 	C 	0.16673 0.11439 0.96205 0.32400
C 	C 	0.14458 0.08680 0.00501 -0.14500
C 	C 	0.18655 0.08728 0.04251 0.31700
C 	C 	0.24940 0.11326 0.03633 0.24600
F 	F 	0.25065 0.16649 0.91403 -0.30300
F 	F 	0.16603 0.06184 0.08470 -0.31300
F 	F 	0.12654 0.11395 0.92544 -0.31800
F 	F 	0.28939 0.11300 0.07260 -0.30500
F 	F 	0.37249 0.26846 0.03188 -0.30900
F 	F 	0.43088 0.11776 0.93713 -0.33700
