data_crystal

_cell_length_a 25.55408
_cell_length_b 26.29007
_cell_length_c 17.43157
_cell_angle_alpha 95.52357
_cell_angle_beta  95.52186
_cell_angle_gamma 125.78665

_symmetry_space_group_name_	'P 1'
_symmetry_space_group_name_H-M	'P 1'

loop_
_symmetry_equiv_pos_as_xyz
  x,y,z

loop_
_atom_site_label
_atom_site_type_symbol
_atom_site_fract_x
_atom_site_fract_y
_atom_site_fract_z
_atom_site_charge
C 	C 	0.06675 0.03500 0.03094 0.29500
N 	N 	0.04120 0.06757 0.04234 -0.10400
C 	C 	0.02962 0.00661 0.38578 0.31100
C 	C 	0.20785 0.09306 0.37188 0.25500
C 	C 	0.23873 0.12420 0.45010 0.00200
C 	C 	0.20074 0.11839 0.50649 0.25800
C 	C 	0.13233 0.08138 0.48492 0.31600
C 	C 	0.10148 0.04952 0.40699 -0.14500
C 	C 	0.13943 0.05557 0.35054 0.31700
C 	C 	0.31095 0.16417 0.47232 0.01000
F 	F 	0.23013 0.14828 0.58223 -0.29900
C 	C 	0.34786 0.23094 0.48485 0.24200
C 	C 	0.41634 0.26866 0.49505 0.32700
C 	C 	0.44842 0.23982 0.49155 -0.19600
C 	C 	0.41177 0.17328 0.48473 0.32000
C 	C 	0.34325 0.13559 0.47520 0.24200
F 	F 	0.31715 0.25910 0.48417 -0.30300
F 	F 	0.44223 0.14489 0.48283 -0.36200
F 	F 	0.45151 0.33320 0.50612 -0.33200
F 	F 	0.30801 0.07112 0.46584 -0.30900
F 	F 	0.24427 0.09933 0.31663 -0.30400
F 	F 	0.09587 0.07546 0.53995 -0.30900
C 	C 	0.24083 0.09074 0.03962 0.20200
C 	C 	0.25387 0.11293 0.96870 0.05300
C 	C 	0.20662 0.11304 0.92055 0.23400
C 	C 	0.14643 0.09041 0.94278 0.36200
C 	C 	0.13296 0.06712 0.01305 -0.18900
C 	C 	0.18059 0.06778 0.06159 0.33300
C 	C 	0.31886 0.14044 0.94799 -0.00200
F 	F 	0.21899 0.13483 0.85211 -0.29100
C 	C 	0.33602 0.10058 0.92248 0.25400
C 	C 	0.40063 0.12712 0.91343 0.32700
C 	C 	0.44852 0.19373 0.92995 -0.19400
C 	C 	0.43018 0.23352 0.95166 0.32000
C 	C 	0.36571 0.20689 0.96045 0.25000
F 	F 	0.29047 0.03615 0.90842 -0.30000
F 	F 	0.41694 0.08814 0.88988 -0.33500
F 	F 	0.34937 0.24573 0.98458 -0.30400
F 	F 	0.28685 0.09188 0.08746 -0.31600
F 	F 	0.10041 0.08924 0.89494 -0.31300
F 	F 	0.01594 0.88285 0.12812 -0.28100
F 	F 	0.16818 0.04567 0.12983 -0.30600
O 	O 	0.54360 0.19747 0.97105 -0.28300
C 	C 	0.51853 0.22161 0.93301 0.38900
O 	O 	0.55818 0.27959 0.91998 -0.33100
O 	O 	0.55985 0.27586 0.53061 -0.32500
C 	C 	0.51768 0.27760 0.48289 0.39700
O 	O 	0.53785 0.31971 0.43615 -0.31400
F 	F 	0.47567 0.29798 0.96845 -0.37500
F 	F 	0.10990 0.02493 0.27505 -0.31300
N 	N 	0.03030 0.97198 0.03385 -0.09000
H 	H 	0.59133 0.24285 0.38187 0.21100
O 	O 	0.59579 0.31182 0.11523 -0.29200
H 	H 	0.62311 0.22512 0.85546 0.21900
Cu	Cu	0.60810 0.34498 0.37420 0.93300
Cu	Cu	0.61852 0.35386 0.02200 0.92400
O 	O 	0.62632 0.28872 0.40323 -0.63500
O 	O 	0.63198 0.34824 0.26798 -0.28000
C 	C 	0.63039 0.29650 0.15354 0.20800
Cu	Cu	0.64246 0.24805 0.00738 0.92800
Cu	Cu	0.64877 0.31083 0.51613 0.91000
O 	O 	0.64023 0.25712 0.11712 -0.28300
C 	C 	0.64701 0.31316 0.23159 0.20900
F 	F 	0.64896 0.09151 0.33783 -0.34500
O 	O 	0.65954 0.25691 0.89936 -0.62000
O 	O 	0.65621 0.43375 0.98019 -0.28200
O 	O 	0.67431 0.32773 0.63130 -0.28900
F 	F 	0.67100 0.48080 0.33597 -0.38500
O 	O 	0.68729 0.33805 0.78683 -0.29300
O 	O 	0.68870 0.30514 0.26841 -0.28700
Cu	Cu	0.69066 0.34630 0.90001 0.91200
O 	O 	0.68635 0.34603 0.00947 -0.65300
F 	F 	0.68420 0.10856 0.03773 -0.34800
O 	O 	0.68927 0.21106 0.03579 -0.30100
O 	O 	0.69681 0.42346 0.45238 -0.34600
O 	O 	0.69824 0.21120 0.43193 -0.38000
F 	F 	0.69699 0.02178 0.32471 -0.30800
C 	C 	0.71141 0.31318 0.74692 0.21500
C 	C 	0.71267 0.46555 0.95583 0.38200
C 	C 	0.71000 0.31351 0.67014 0.21100
C 	C 	0.71425 0.12198 0.34031 0.32200
N 	N 	0.99542 0.03086 0.37670 -0.12300
N 	N 	0.99721 0.94271 0.37862 -0.11500
F 	F 	0.90743 0.03654 0.92429 -0.31200
C 	C 	0.97947 0.03710 0.05774 0.27500
Cu	Cu	0.74599 0.28036 0.88972 0.89800
O 	O 	0.78044 0.28963 0.99587 -0.33600
O 	O 	0.72730 0.43587 0.90698 -0.31200
C 	C 	0.75144 0.24067 0.03159 0.35200
O 	O 	0.73509 0.28561 0.78040 -0.33100
H 	H 	0.72885 0.37796 0.04557 0.19800
Cu	Cu	0.72126 0.32923 0.37921 0.94000
Cu	Cu	0.73174 0.26853 0.52903 0.90100
O 	O 	0.76824 0.42466 0.38388 -0.31400
O 	O 	0.73686 0.33948 0.49497 -0.62900
O 	O 	0.75844 0.28187 0.35553 -0.30800
C 	C 	0.75006 0.45561 0.42254 0.40300
C 	C 	0.73421 0.22695 0.37750 0.39900
O 	O 	0.74967 0.30590 0.63645 -0.32600
H 	H 	0.77382 0.38243 0.52463 0.22400
C 	C 	0.86502 0.63377 0.43061 0.24100
C 	C 	0.82322 0.64397 0.38834 0.01500
C 	C 	0.75797 0.59208 0.35624 0.24500
C 	C 	0.73423 0.53063 0.36747 0.32800
C 	C 	0.77574 0.52039 0.41039 -0.20500
C 	C 	0.84141 0.57205 0.44121 0.33200
C 	C 	0.84755 0.70908 0.37825 0.00200
F 	F 	0.71761 0.60127 0.31401 -0.30400
F 	F 	0.88200 0.56265 0.48238 -0.34700
C 	C 	0.88859 0.73812 0.32403 0.26400
C 	C 	0.91274 0.80030 0.31567 0.30800
C 	C 	0.85310 0.80407 0.41378 0.31100
C 	C 	0.82907 0.74189 0.42223 0.25700
F 	F 	0.90572 0.70634 0.28017 -0.29900
F 	F 	0.95364 0.82843 0.26437 -0.32200
F 	F 	0.78894 0.71397 0.47436 -0.30400
F 	F 	0.92825 0.68370 0.46188 -0.30800
C 	C 	0.82617 0.04087 0.27756 0.25800
C 	C 	0.83361 0.08112 0.34376 0.00700
C 	C 	0.86835 0.08791 0.41627 0.25500
C 	C 	0.89757 0.05675 0.42194 0.31700
C 	C 	0.89198 0.01813 0.35531 -0.14600
C 	C 	0.85540 0.00957 0.28327 0.30700
C 	C 	0.80628 0.11732 0.33719 0.00900
F 	F 	0.87421 0.12521 0.48112 -0.31800
C 	C 	0.73865 0.08630 0.33278 0.23800
C 	C 	0.75737 0.18905 0.35267 -0.20700
C 	C 	0.82437 0.21968 0.35123 0.31500
C 	C 	0.84870 0.18398 0.34390 0.23900
F 	F 	0.86664 0.28433 0.36189 -0.35000
F 	F 	0.91413 0.21448 0.34790 -0.29500
F 	F 	0.79174 0.03309 0.20750 -0.31300
F 	F 	0.93189 0.06447 0.49212 -0.31800
C 	C 	0.92100 0.77855 0.06856 0.28300
C 	C 	0.85847 0.73873 0.02048 -0.05400
C 	C 	0.82958 0.76550 0.98770 0.35000
C 	C 	0.82332 0.66900 0.00436 -0.02500
F 	F 	0.76836 0.72720 0.94283 -0.30800
C 	C 	0.79726 0.63382 0.06372 0.26400
C 	C 	0.76372 0.56773 0.04857 0.27100
C 	C 	0.75436 0.53585 0.97319 -0.14200
C 	C 	0.78117 0.57123 0.91391 0.30600
C 	C 	0.81593 0.63762 0.92968 0.28700
F 	F 	0.80380 0.66370 0.13590 -0.31600
F 	F 	0.77188 0.54118 0.84055 -0.33900
F 	F 	0.73998 0.53444 0.10710 -0.36300
F 	F 	0.84191 0.67149 0.87226 -0.30900
F 	F 	0.94887 0.75300 0.10154 -0.30600
C 	C 	0.88861 0.22633 0.08609 0.23400
C 	C 	0.85334 0.15984 0.07710 0.01300
C 	C 	0.78445 0.12089 0.06464 0.23400
C 	C 	0.75088 0.14754 0.05437 0.31000
C 	C 	0.78611 0.21380 0.05724 -0.19600
C 	C 	0.85519 0.25331 0.07708 0.31000
C 	C 	0.88796 0.13051 0.07205 -0.02900
F 	F 	0.74994 0.05671 0.05862 -0.30100
F 	F 	0.88997 0.31772 0.08621 -0.35500
C 	C 	0.92530 0.13391 0.13973 0.26100
C 	C 	0.95567 0.10368 0.13506 0.31300
C 	C 	0.94949 0.07053 0.06255 -0.16800
C 	C 	0.91328 0.06819 0.99471 0.34600
C 	C 	0.88277 0.09818 0.99936 0.28900
F 	F 	0.93191 0.16625 0.20991 -0.31300
F 	F 	0.84805 0.09584 0.93327 -0.31100
F 	F 	0.95530 0.26462 0.10059 -0.31400
C 	C 	0.93057 0.90280 0.36271 0.28800
C 	C 	0.89605 0.83402 0.36149 -0.14000
F 	F 	0.83701 0.83622 0.45893 -0.31900
C 	C 	0.86420 0.83182 0.00001 0.22000
C 	C 	0.92784 0.87188 0.04590 -0.10100
C 	C 	0.95536 0.84479 0.08167 0.27400
F 	F 	0.83709 0.85721 0.96462 -0.27500
N 	N 	0.94316 0.97395 0.06084 -0.09500
C 	C 	0.96852 0.94127 0.04859 0.26100
N 	N 	0.89620 0.92704 0.35314 -0.10800
F 	F 	0.84992 0.97256 0.21839 -0.33400
F 	F 	0.99067 0.10618 0.20099 -0.34900
C 	C 	0.92871 0.99116 0.35981 0.31200
