data_crystal

_cell_length_a 18.14824
_cell_length_b 18.23213
_cell_length_c 34.08427
_cell_angle_alpha 90.80308
_cell_angle_beta  90.90360
_cell_angle_gamma 113.59335

_symmetry_space_group_name_	'P 1'
_symmetry_space_group_name_H-M	'P 1'

loop_
_symmetry_equiv_pos_as_xyz
  x,y,z

loop_
_atom_site_label
_atom_site_type_symbol
_atom_site_fract_x
_atom_site_fract_y
_atom_site_fract_z
_atom_site_charge
C 	C 	0.02687 0.01982 0.74584 -0.03700
H 	H 	0.00901 0.03165 0.71602 0.04200
C 	C 	0.07046 0.99323 0.81741 -0.03900
H 	H 	0.08873 0.98191 0.84724 0.03900
C 	C 	0.11107 0.01973 0.74906 -0.01100
C 	C 	0.13442 0.00756 0.78604 -0.01100
O 	O 	0.12357 0.62694 0.33184 -0.41500
O 	O 	0.17560 0.81490 0.40958 -0.42200
Ni	Ni	0.14978 0.71885 0.37107 1.07100
O 	O 	0.08640 0.63768 0.41188 -0.39700
C 	C 	0.11550 0.62436 0.44523 0.30600
C 	C 	0.12629 0.55740 0.34056 0.28800
O 	O 	0.11146 0.65766 0.05908 -0.38300
C 	C 	0.06055 0.63153 0.02873 0.30500
C 	C 	0.10344 0.30796 0.12538 0.04000
C 	C 	0.06400 0.36052 0.12925 -0.01400
C 	C 	0.09648 0.43618 0.11204 -0.00500
C 	C 	0.99117 0.33573 0.14907 -0.02600
C 	C 	0.00073 0.21012 0.16504 0.01600
C 	C 	0.07224 0.23319 0.14386 -0.07400
H 	H 	0.06928 0.47852 0.11709 0.03600
H 	H 	0.10362 0.19379 0.14203 0.04500
C 	C 	0.07278 0.00219 0.19679 0.03000
C 	C 	0.14544 0.06003 0.18382 -0.05600
C 	C 	0.20639 0.03749 0.17130 -0.03100
C 	C 	0.19534 0.95686 0.17206 -0.00900
C 	C 	0.12483 0.89958 0.18818 0.03900
C 	C 	0.06348 0.92248 0.20020 -0.07600
C 	C 	0.11491 0.81945 0.18998 -0.07100
C 	C 	0.16991 0.79474 0.17192 0.00800
C 	C 	0.23456 0.84979 0.15128 -0.07700
C 	C 	0.25094 0.93183 0.15448 -0.01300
H 	H 	0.15469 0.12244 0.18354 0.03900
H 	H 	0.15950 0.73195 0.17198 0.04000
C 	C 	0.99304 0.21292 0.25261 0.03900
C 	C 	0.07510 0.23700 0.26181 -0.05900
C 	C 	0.11847 0.31142 0.27952 -0.02300
C 	C 	0.08041 0.36295 0.28782 -0.01600
C 	C 	0.08516 0.48825 0.31475 -0.08100
C 	C 	0.12381 0.43790 0.30533 -0.00400
H 	H 	0.10592 0.19928 0.25363 0.04300
C 	C 	0.12689 0.00609 0.31922 0.03700
C 	C 	0.07487 0.94067 0.34070 -0.01600
C 	C 	0.10670 0.90688 0.36958 -0.02400
C 	C 	0.99210 0.90741 0.33170 -0.03000
C 	C 	0.01338 0.99950 0.27814 0.01600
C 	C 	0.09561 0.03623 0.28845 -0.07200
H 	H 	0.06663 0.85641 0.38590 0.02400
H 	H 	0.13532 0.08635 0.27185 0.04700
C 	C 	0.05815 0.58415 0.47635 -0.09000
C 	C 	0.01948 0.62602 0.49703 0.09600
N 	N 	0.05164 0.70742 0.49873 -0.20000
H 	H 	0.02169 0.73821 0.51301 0.08200
H 	H 	0.10789 0.74074 0.48712 0.08800
H 	H 	0.10869 0.23595 0.75917 0.03900
H 	H 	0.01535 0.89452 0.69422 0.04500
C 	C 	0.94778 0.51880 0.05669 -0.04600
C 	C 	0.97460 0.59090 0.03651 -0.08800
H 	H 	0.99096 0.49859 0.06951 0.05800
H 	H 	0.00279 0.73235 0.00574 0.08700
H 	H 	0.15016 0.22148 0.83191 0.04100
C 	C 	0.22016 0.04068 0.79731 0.02800
C 	C 	0.26424 0.12324 0.79423 -0.07400
H 	H 	0.23293 0.16295 0.79338 0.04900
H 	H 	0.18201 0.32956 0.28619 0.03200
H 	H 	0.18705 0.45606 0.31299 0.02900
C 	C 	0.16774 0.04279 0.71595 0.02600
H 	H 	0.16696 0.92467 0.70840 0.03800
H 	H 	0.99489 0.82937 0.62960 0.04700
C 	C 	0.91808 0.61952 0.02171 0.11200
N 	N 	0.94225 0.69300 0.00552 -0.19100
C 	C 	0.19558 0.98701 0.70054 -0.05000
H 	H 	0.90007 0.71214 0.99317 0.08300
O 	O 	0.19086 0.63249 0.44854 -0.39500
C 	C 	0.00375 0.46574 0.30446 0.00600
O 	O 	0.15735 0.54627 0.37425 -0.38200
O 	O 	0.24507 0.74329 0.11283 -0.38100
C 	C 	0.97416 0.13809 0.19029 -0.00400
H 	H 	0.88146 0.38174 0.09128 0.08600
O 	O 	0.08563 0.62827 0.99273 -0.42500
C 	C 	0.99746 0.33863 0.27895 0.04900
C 	C 	0.10029 0.19712 0.85161 -0.05300
C 	C 	0.16296 0.45652 0.08759 -0.07800
C 	C 	0.20983 0.03849 0.32786 -0.07300
H 	H 	0.05115 0.32181 0.72690 0.03000
H 	H 	0.02025 0.78967 0.81244 0.03900
N 	N 	0.84012 0.40026 0.07755 -0.20000
C 	C 	0.97258 0.93878 0.76273 -0.00700
C 	C 	0.27436 0.82060 0.12097 0.27100
O 	O 	0.23563 0.59655 0.07448 -0.39000
C 	C 	0.17315 0.33074 0.10290 -0.07100
H 	H 	0.06291 0.77565 0.20390 0.04200
C 	C 	0.95368 0.26259 0.26226 -0.08200
C 	C 	0.95994 0.39107 0.28665 -0.06700
H 	H 	0.97367 0.50471 0.31174 0.03400
C 	C 	0.19048 0.93468 0.37558 -0.09200
H 	H 	0.25012 0.08969 0.31209 0.04400
H 	H 	0.95153 0.85778 0.34829 0.03100
C 	C 	0.02752 0.50030 0.47814 -0.04900
H 	H 	0.05718 0.46817 0.46232 0.05500
C 	C 	0.04397 0.21604 0.75658 -0.05900
H 	H 	0.18363 0.16667 0.71729 0.04600
H 	H 	0.99513 0.65808 0.84082 0.03700
Ni	Ni	0.73993 0.35693 0.93940 1.09700
O 	O 	0.72299 0.35212 0.87928 -0.70200
Ni	Ni	0.60932 0.34088 0.87651 1.09500
O 	O 	0.84085 0.33165 0.94042 -0.37000
O 	O 	0.83722 0.28387 0.87812 -0.40700
O 	O 	0.80988 0.47710 0.93448 -0.37700
Ni	Ni	0.72502 0.25724 0.85257 1.06800
O 	O 	0.67213 0.43740 0.01360 -0.41400
O 	O 	0.66098 0.18722 0.89697 -0.41900
O 	O 	0.59847 0.32791 0.81748 -0.41100
O 	O 	0.62853 0.35277 0.93563 -0.71100
O 	O 	0.75056 0.36880 0.99887 -0.39600
O 	O 	0.50161 0.35285 0.87907 -0.37900
O 	O 	0.56431 0.47100 0.91278 -0.42000
Ni	Ni	0.62149 0.44686 0.96105 1.06600
H 	H 	0.75850 0.40169 0.86636 0.15300
H 	H 	0.59142 0.30445 0.94886 0.15100
C 	C 	0.58460 0.17400 0.90190 0.27300
O 	O 	0.72410 0.53831 0.94430 -0.39900
C 	C 	0.84955 0.27948 0.91590 0.28900
C 	C 	0.58734 0.25864 0.80140 0.30000
C 	C 	0.78110 0.52991 0.92384 0.26500
C 	C 	0.49876 0.41618 0.89675 0.28000
C 	C 	0.74108 0.42906 0.01660 0.31400
O 	O 	0.55181 0.21778 0.88353 -0.37500
O 	O 	0.62508 0.21598 0.81612 -0.41300
Ni	Ni	0.66421 0.27481 0.60287 1.09800
O 	O 	0.71074 0.39316 0.61867 -0.70700
Ni	Ni	0.67945 0.43929 0.57151 1.10000
O 	O 	0.70554 0.24596 0.65424 -0.37400
O 	O 	0.83416 0.33324 0.64174 -0.41200
O 	O 	0.56116 0.26782 0.63007 -0.39100
Ni	Ni	0.82688 0.43983 0.62440 1.06300
O 	O 	0.57639 0.17058 0.52067 -0.40800
O 	O 	0.84439 0.41150 0.56823 -0.42000
O 	O 	0.71785 0.55287 0.59332 -0.38000
O 	O 	0.64982 0.32421 0.55294 -0.70600
O 	O 	0.61046 0.15690 0.58519 -0.38100
O 	O 	0.61390 0.46407 0.52771 -0.37800
O 	O 	0.50253 0.35243 0.54189 -0.41900
Ni	Ni	0.54148 0.26105 0.53231 1.07200
H 	H 	0.68566 0.40374 0.64248 0.15300
H 	H 	0.68934 0.32140 0.53394 0.15600
C 	C 	0.84080 0.45663 0.53931 0.29500
O 	O 	0.47928 0.19852 0.57902 -0.39400
C 	C 	0.78222 0.28086 0.66497 0.26600
C 	C 	0.78844 0.58434 0.61190 0.27300
C 	C 	0.48869 0.22797 0.61492 0.29800
C 	C 	0.53594 0.42077 0.52372 0.27500
C 	C 	0.60256 0.13432 0.54770 0.29200
O 	O 	0.77952 0.47810 0.53607 -0.36900
O 	O 	0.84201 0.55234 0.60755 -0.41400
C 	C 	0.02783 0.08060 0.77752 -0.01700
C 	C 	0.05028 0.06706 0.81434 -0.00900
C 	C 	0.99567 0.92485 0.79950 -0.00600
Ni	Ni	0.25851 0.62989 0.40096 1.09700
O 	O 	0.35417 0.71732 0.42936 -0.70300
Ni	Ni	0.34323 0.81557 0.41009 1.10000
O 	O 	0.28709 0.54240 0.42613 -0.37200
O 	O 	0.41285 0.59985 0.40101 -0.41700
Ni	Ni	0.45913 0.72159 0.41497 1.06600
O 	O 	0.44695 0.74336 0.35716 -0.41700
O 	O 	0.43018 0.89403 0.44583 -0.37400
O 	O 	0.26091 0.72829 0.37471 -0.70200
O 	O 	0.30182 0.90257 0.39675 -0.37300
H 	H 	0.34842 0.71420 0.45820 0.15300
H 	H 	0.28191 0.72972 0.34798 0.15600
C 	C 	0.45761 0.81516 0.34577 0.28800
C 	C 	0.36133 0.54700 0.42387 0.27800
C 	C 	0.49473 0.88004 0.45421 0.28200
C 	C 	0.22434 0.88600 0.39815 0.27200
O 	O 	0.42293 0.85631 0.36448 -0.37100
O 	O 	0.52074 0.84054 0.42883 -0.41100
Ni	Ni	0.37094 0.71173 0.99995 1.09700
O 	O 	0.25154 0.69079 0.99883 -0.70800
Ni	Ni	0.23477 0.70333 0.05607 1.10000
O 	O 	0.36456 0.64738 0.94900 -0.38000
O 	O 	0.25767 0.54070 0.97160 -0.42300
O 	O 	0.39863 0.81477 0.96731 -0.36700
Ni	Ni	0.17175 0.58697 0.98115 1.06700
O 	O 	0.50885 0.86530 0.03098 -0.40700
O 	O 	0.13704 0.51977 0.03092 -0.39200
O 	O 	0.35620 0.74257 0.05484 -0.70300
O 	O 	0.49128 0.74128 0.00622 -0.37000
O 	O 	0.32103 0.87233 0.09559 -0.41200
Ni	Ni	0.41109 0.85761 0.06259 1.06500
H 	H 	0.24256 0.73346 0.98451 0.15500
H 	H 	0.37684 0.71447 0.07391 0.15600
C 	C 	0.18349 0.52607 0.06183 0.29700
O 	O 	0.36014 0.88211 0.01386 -0.41300
C 	C 	0.31470 0.57124 0.94578 0.27100
C 	C 	0.39056 0.88025 0.97948 0.28700
C 	C 	0.53371 0.80640 0.02748 0.27200
C 	C 	0.96320 0.05477 0.17485 -0.03100
H 	H 	0.98359 0.05270 0.14442 0.04100
C 	C 	0.91499 0.05873 0.24795 -0.03700
H 	H 	0.89462 0.06081 0.27839 0.04200
C 	C 	0.00589 0.02512 0.20634 -0.02200
C 	C 	0.87361 0.00355 0.18126 -0.01300
C 	C 	0.98088 0.02700 0.24388 0.00100
C 	C 	0.95162 0.14056 0.22833 -0.01500
C 	C 	0.84859 0.00637 0.21886 -0.01100
C 	C 	0.20181 0.40403 0.08350 0.01100
C 	C 	0.95814 0.25976 0.16532 -0.04400
H 	H 	0.25315 0.41916 0.06468 0.02400
H 	H 	0.20398 0.29101 0.09961 0.04300
H 	H 	0.95964 0.37496 0.15161 0.03300
H 	H 	0.90057 0.24050 0.17942 0.03800
C 	C 	0.61337 0.81902 0.04354 -0.08200
C 	C 	0.62143 0.76136 0.06811 0.00200
C 	C 	0.67976 0.78493 0.09845 -0.07300
C 	C 	0.72868 0.86648 0.10483 0.03800
C 	C 	0.72553 0.92304 0.07764 -0.01100
C 	C 	0.67253 0.89736 0.04525 -0.01300
C 	C 	0.76894 0.00497 0.08539 -0.03200
C 	C 	0.81264 0.03087 0.12052 -0.05600
C 	C 	0.81701 0.97519 0.14746 0.03200
C 	C 	0.77665 0.89286 0.13912 -0.07700
H 	H 	0.57804 0.69978 0.06603 0.02200
H 	H 	0.68303 0.74061 0.11847 0.04300
H 	H 	0.66950 0.94083 0.02454 0.04300
H 	H 	0.76659 0.04880 0.06479 0.03500
H 	H 	0.84440 0.09443 0.12658 0.04500
H 	H 	0.78239 0.84977 0.15921 0.04900
H 	H 	0.26132 0.08239 0.16020 0.03200
H 	H 	0.00790 0.87825 0.21120 0.04800
H 	H 	0.30373 0.97537 0.14093 0.03600
C 	C 	0.76790 0.95297 0.23263 0.02700
C 	C 	0.75272 0.87355 0.24200 -0.05400
C 	C 	0.68483 0.82797 0.26330 -0.03300
C 	C 	0.63153 0.86156 0.27585 -0.01000
C 	C 	0.64441 0.94018 0.26498 0.03600
C 	C 	0.71260 0.98555 0.24331 -0.07500
C 	C 	0.59088 0.97361 0.27727 -0.06900
C 	C 	0.52739 0.93102 0.30181 0.00900
C 	C 	0.51667 0.85441 0.31467 -0.07800
C 	C 	0.56747 0.81878 0.30049 -0.01500
H 	H 	0.79545 0.84824 0.23423 0.03900
H 	H 	0.67513 0.76740 0.27106 0.03200
H 	H 	0.72448 0.04706 0.23629 0.04500
H 	H 	0.59929 0.03331 0.26851 0.04100
H 	H 	0.48769 0.95852 0.31156 0.03900
H 	H 	0.55898 0.75924 0.30961 0.03500
H 	H 	0.89007 0.24342 0.25527 0.04800
H 	H 	0.89670 0.37357 0.27946 0.04300
C 	C 	0.24151 0.00290 0.35582 0.00900
C 	C 	0.96165 0.93649 0.30049 -0.04600
H 	H 	0.30594 0.02680 0.36112 0.03700
H 	H 	0.89794 0.90917 0.29327 0.04000
C 	C 	0.54833 0.98773 0.54992 -0.03800
C 	C 	0.60770 0.05886 0.53669 -0.09500
C 	C 	0.65154 0.05588 0.50333 0.10400
C 	C 	0.62047 0.98894 0.47789 -0.03800
C 	C 	0.54802 0.92542 0.48657 -0.09800
C 	C 	0.51778 0.92026 0.52480 0.10000
N 	N 	0.45763 0.85204 0.53675 -0.19900
H 	H 	0.51955 0.98769 0.57757 0.05100
H 	H 	0.64807 0.98981 0.44981 0.05000
N 	N 	0.72036 0.11899 0.49452 -0.19900
H 	H 	0.43314 0.84956 0.56450 0.08000
H 	H 	0.43686 0.80009 0.51911 0.06100
H 	H 	0.74530 0.16835 0.51376 0.07600
H 	H 	0.75094 0.11807 0.46891 0.08200
C 	C 	0.94725 0.58310 0.51625 -0.03700
C 	C 	0.91405 0.49903 0.51626 -0.09700
C 	C 	0.95466 0.45704 0.49700 0.11100
H 	H 	0.91742 0.61542 0.53177 0.05500
N 	N 	0.92243 0.37562 0.49484 -0.20000
H 	H 	0.86457 0.34191 0.50453 0.08600
H 	H 	0.95401 0.34516 0.48174 0.08600
C 	C 	0.38763 0.50742 0.49009 -0.05300
C 	C 	0.38938 0.49811 0.44923 -0.10200
C 	C 	0.43367 0.45666 0.43329 0.10400
C 	C 	0.48321 0.43416 0.45806 -0.05100
C 	C 	0.48578 0.44838 0.49866 -0.09700
C 	C 	0.43592 0.48341 0.51506 0.10400
N 	N 	0.43549 0.49590 0.55451 -0.20000
H 	H 	0.35246 0.53787 0.50236 0.03900
H 	H 	0.51888 0.40426 0.44575 0.03000
N 	N 	0.42781 0.43727 0.39436 -0.20000
H 	H 	0.39821 0.52147 0.56631 0.07900
H 	H 	0.47237 0.48107 0.57380 0.08700
H 	H 	0.38584 0.44647 0.37597 0.09200
H 	H 	0.46294 0.40936 0.38243 0.07900
C 	C 	0.99359 0.14001 0.76948 0.03900
C 	C 	0.01131 0.26430 0.73786 -0.03600
C 	C 	0.92792 0.23612 0.73113 -0.00800
C 	C 	0.87662 0.16204 0.74658 0.03600
C 	C 	0.90983 0.11491 0.76635 -0.07900
C 	C 	0.79331 0.13355 0.73960 -0.07700
C 	C 	0.76175 0.17487 0.71483 0.00300
C 	C 	0.81322 0.24534 0.69678 -0.07900
C 	C 	0.89575 0.27822 0.70691 -0.01900
H 	H 	0.87096 0.05635 0.77670 0.04900
H 	H 	0.75318 0.07790 0.75220 0.04200
H 	H 	0.69758 0.15058 0.70871 0.04100
H 	H 	0.93533 0.33447 0.69458 0.02900
C 	C 	0.41877 0.20168 0.64073 -0.07900
C 	C 	0.39034 0.25742 0.65559 0.01200
C 	C 	0.31864 0.23159 0.67636 -0.07100
C 	C 	0.27548 0.14973 0.68321 0.04100
C 	C 	0.30488 0.09357 0.66905 -0.00800
C 	C 	0.37604 0.11978 0.64755 -0.00500
C 	C 	0.26343 0.01211 0.67707 -0.03100
C 	C 	0.20524 0.12355 0.70551 -0.07400
H 	H 	0.42283 0.32065 0.65029 0.02300
H 	H 	0.29722 0.27533 0.68746 0.04200
H 	H 	0.39806 0.07669 0.63609 0.04100
H 	H 	0.28509 0.96844 0.66613 0.03400
C 	C 	0.92129 0.87312 0.73603 0.02700
C 	C 	0.83957 0.82958 0.74368 -0.05100
C 	C 	0.79214 0.76696 0.71829 -0.03200
C 	C 	0.82487 0.75104 0.68380 -0.01100
C 	C 	0.90441 0.80092 0.67402 0.03900
C 	C 	0.95293 0.85955 0.70076 -0.07200
C 	C 	0.93533 0.78907 0.63825 -0.07400
C 	C 	0.89121 0.72267 0.61455 0.01500
C 	C 	0.81709 0.66643 0.62704 -0.08100
C 	C 	0.78119 0.68367 0.66004 -0.01700
H 	H 	0.81261 0.84475 0.76889 0.04200
H 	H 	0.73014 0.73123 0.72536 0.03300
H 	H 	0.91745 0.71142 0.58801 0.03200
H 	H 	0.72247 0.64155 0.66887 0.02700
C 	C 	0.83573 0.57046 0.02348 -0.03600
C 	C 	0.81072 0.49160 0.03639 -0.10700
C 	C 	0.86571 0.46975 0.05762 0.12000
H 	H 	0.79185 0.59114 0.01170 0.05100
H 	H 	0.77880 0.36545 0.08058 0.09300
C 	C 	0.46797 0.04127 0.90198 -0.04700
C 	C 	0.53202 0.10117 0.92268 -0.08700
C 	C 	0.54685 0.08979 0.96263 0.09400
C 	C 	0.49836 0.01814 0.98074 -0.04800
C 	C 	0.43590 0.95717 0.95977 -0.09100
C 	C 	0.41952 0.96936 0.92015 0.10600
N 	N 	0.35671 0.91346 0.89966 -0.19900
H 	H 	0.45611 0.05025 0.87153 0.05200
H 	H 	0.50989 0.00961 0.01128 0.03400
N 	N 	0.60674 0.14749 0.98393 -0.20000
H 	H 	0.34591 0.92230 0.87026 0.08100
H 	H 	0.31686 0.86182 0.91287 0.08300
H 	H 	0.64173 0.20272 0.97208 0.05600
H 	H 	0.61813 0.13785 0.01314 0.08300
C 	C 	0.43166 0.50274 0.87498 -0.04300
C 	C 	0.42610 0.43259 0.89359 -0.09700
C 	C 	0.36216 0.39506 0.91922 0.09400
C 	C 	0.31817 0.43775 0.93317 -0.05000
C 	C 	0.33613 0.51607 0.92066 -0.09900
C 	C 	0.38554 0.54418 0.88784 0.10500
N 	N 	0.38719 0.60905 0.86811 -0.19700
H 	H 	0.47609 0.52818 0.85262 0.04500
H 	H 	0.27379 0.41198 0.95551 0.04600
N 	N 	0.34495 0.31959 0.93165 -0.20500
H 	H 	0.42672 0.63177 0.84506 0.08300
H 	H 	0.34577 0.63417 0.87385 0.08600
H 	H 	0.37402 0.28523 0.92009 0.09000
H 	H 	0.29967 0.29330 0.95189 0.07800
C 	C 	0.04899 0.11562 0.84913 0.02400
C 	C 	0.08303 0.24849 0.87711 -0.02400
C 	C 	0.01365 0.21852 0.89973 -0.02800
C 	C 	0.96910 0.13482 0.90146 0.05000
C 	C 	0.98874 0.08347 0.87679 -0.07600
C 	C 	0.89847 0.10514 0.92317 -0.07600
C 	C 	0.86454 0.15743 0.93631 0.01100
C 	C 	0.90118 0.23894 0.92760 -0.08700
C 	C 	0.98095 0.27041 0.91509 0.01300
H 	H 	0.11991 0.31219 0.87699 0.03000
H 	H 	0.95250 0.01969 0.87652 0.04900
H 	H 	0.86601 0.04124 0.92661 0.04600
H 	H 	0.80502 0.13322 0.94859 0.02500
H 	H 	0.01178 0.33444 0.91116 0.02300
C 	C 	0.51180 0.21641 0.77908 -0.08300
C 	C 	0.46812 0.26067 0.76656 0.02100
C 	C 	0.38539 0.23038 0.77192 -0.06700
C 	C 	0.34538 0.15222 0.78514 0.04600
C 	C 	0.38675 0.10132 0.78781 -0.00800
C 	C 	0.47034 0.13347 0.78381 -0.00100
C 	C 	0.34417 0.02008 0.79599 -0.03100
C 	C 	0.26069 0.98955 0.80002 -0.05200
H 	H 	0.49946 0.32247 0.75826 0.03100
H 	H 	0.35292 0.26805 0.76668 0.04600
H 	H 	0.50352 0.09638 0.78893 0.04100
H 	H 	0.37514 0.98026 0.79802 0.03200
H 	H 	0.22709 0.92572 0.80300 0.03700
C 	C 	0.83057 0.59756 0.89890 -0.07400
C 	C 	0.89777 0.59623 0.87935 -0.00100
C 	C 	0.94352 0.66001 0.85565 -0.06900
C 	C 	0.92248 0.72575 0.85107 0.03100
C 	C 	0.85496 0.72727 0.87052 -0.00600
C 	C 	0.80926 0.66327 0.89413 -0.01900
C 	C 	0.83381 0.79285 0.86613 -0.03500
C 	C 	0.87931 0.85653 0.84265 -0.05100
C 	C 	0.94605 0.85530 0.82295 0.02200
C 	C 	0.96805 0.79013 0.82733 -0.06700
H 	H 	0.91449 0.54579 0.88231 0.02900
H 	H 	0.75712 0.66462 0.90871 0.04400
H 	H 	0.78203 0.79454 0.88088 0.03600
H 	H 	0.86170 0.90627 0.83910 0.03900
