data_crystal

_cell_length_a 47.56872
_cell_length_b 40.49078
_cell_length_c 24.74760
_cell_angle_alpha 89.95699
_cell_angle_beta  89.94177
_cell_angle_gamma 90.48141

_symmetry_space_group_name_	'P 1'
_symmetry_space_group_name_H-M	'P 1'

loop_
_symmetry_equiv_pos_as_xyz
  x,y,z

loop_
_atom_site_label
_atom_site_type_symbol
_atom_site_fract_x
_atom_site_fract_y
_atom_site_fract_z
_atom_site_charge
Zn	Zn	0.46738 0.46592 0.93559 1.22200
C 	C 	0.48183 0.53508 0.92488 0.31500
O 	O 	0.48672 0.45506 0.00307 -0.47700
O 	O 	0.45898 0.54014 0.95360 -0.44800
O 	O 	0.49029 0.50601 0.03977 -0.49300
C 	C 	0.41073 0.48661 0.94853 0.32500
O 	O 	0.43095 0.48239 0.91311 -0.44900
O 	O 	0.41689 0.49030 0.99995 -0.50100
C 	C 	0.50181 0.47764 0.02784 0.31700
O 	O 	0.44669 0.41287 0.93499 -0.32000
Zn	Zn	0.45089 0.51370 0.02330 1.16900
O 	O 	0.49010 0.50476 0.91465 -0.43100
C 	C 	0.46492 0.40607 0.89768 0.27700
O 	O 	0.48158 0.43022 0.88425 -0.38000
Zn	Zn	0.41759 0.03679 0.06587 1.22400
C 	C 	0.35977 0.02196 0.09848 0.32300
O 	O 	0.44230 0.02342 0.12489 -0.45300
O 	O 	0.36258 0.99212 0.07864 -0.44600
O 	O 	0.41004 0.98696 0.15835 -0.49300
C 	C 	0.41496 0.98625 0.98674 0.32700
O 	O 	0.40454 0.01503 0.00037 -0.46100
O 	O 	0.41082 0.96061 0.01826 -0.50200
C 	C 	0.43471 0.00161 0.16147 0.31100
O 	O 	0.45750 0.05412 0.01528 -0.33200
Zn	Zn	0.39805 0.96481 0.09224 1.17300
O 	O 	0.38196 0.04094 0.10605 -0.43200
C 	C 	0.44873 0.08371 0.02545 0.28400
O 	O 	0.42598 0.08550 0.05382 -0.38600
C 	C 	0.54379 0.93907 0.37750 0.13600
C 	C 	0.52065 0.95115 0.34881 -0.10000
H 	H 	0.50305 0.96146 0.37063 0.06700
C 	C 	0.52058 0.95039 0.29222 0.04400
C 	C 	0.54313 0.93613 0.26455 -0.08100
C 	C 	0.56621 0.92371 0.29302 0.04300
C 	C 	0.56667 0.92559 0.34959 -0.10000
H 	H 	0.58479 0.91706 0.37190 0.06800
N 	N 	0.54444 0.94153 0.43539 -0.17900
C 	C 	0.53533 0.91531 0.46613 0.19000
C 	C 	0.53405 0.91806 0.52279 -0.06100
C 	C 	0.54232 0.94784 0.54742 0.03200
C 	C 	0.55210 0.97424 0.51547 -0.06200
C 	C 	0.55324 0.97048 0.45898 0.19100
C 	C 	0.52439 0.89162 0.55502 -0.01200
C 	C 	0.52287 0.89499 0.61119 -0.01300
C 	C 	0.53098 0.92485 0.63605 -0.06000
C 	C 	0.54071 0.95127 0.60408 0.03100
C 	C 	0.54878 0.98114 0.62867 -0.06100
C 	C 	0.56033 0.00404 0.54034 -0.01000
C 	C 	0.55865 0.00748 0.59647 -0.01100
C 	C 	0.52958 0.92873 0.69251 0.19000
N 	N 	0.53758 0.95804 0.71596 -0.17800
C 	C 	0.54691 0.98415 0.68521 0.18900
C 	C 	0.53674 0.96123 0.77375 0.13700
C 	C 	0.51152 0.96963 0.79967 -0.10000
C 	C 	0.51070 0.97255 0.85608 0.04500
C 	C 	0.53523 0.96766 0.88621 -0.08200
C 	C 	0.56036 0.95893 0.86062 0.04600
C 	C 	0.56105 0.95550 0.80431 -0.10000
O 	O 	0.56257 0.99497 0.42854 -0.20200
O 	O 	0.52744 0.88759 0.44245 -0.20200
O 	O 	0.52068 0.90406 0.72303 -0.20100
O 	O 	0.55417 0.01214 0.70876 -0.19800
H 	H 	0.58025 0.94824 0.78420 0.06800
H 	H 	0.49269 0.97341 0.77599 0.06800
H 	H 	0.56796 0.02464 0.51635 0.05100
H 	H 	0.56503 0.03066 0.61475 0.05200
H 	H 	0.51800 0.86845 0.53674 0.05000
H 	H 	0.51535 0.87435 0.63521 0.05100
H 	H 	0.53450 0.96950 0.92991 0.05100
H 	H 	0.54302 0.93544 0.22076 0.04900
Zn	Zn	0.66729 0.87063 0.05238 1.22300
C 	C 	0.72267 0.90036 0.06526 0.31600
O 	O 	0.65190 0.86405 0.12533 -0.43900
O 	O 	0.71016 0.92907 0.06125 -0.44600
O 	O 	0.67874 0.90546 0.15860 -0.49300
C 	C 	0.64890 0.93059 0.00302 0.30300
O 	O 	0.66580 0.90530 0.99754 -0.44200
O 	O 	0.64913 0.94819 0.04756 -0.49700
C 	C 	0.65761 0.88484 0.16443 0.30500
O 	O 	0.62425 0.85135 0.01601 -0.33100
Zn	Zn	0.67515 0.94053 0.10622 1.17400
O 	O 	0.70772 0.87300 0.06996 -0.42800
C 	C 	0.63813 0.82495 0.00361 0.27100
O 	O 	0.66438 0.82508 0.01754 -0.38400
Zn	Zn	0.10023 0.62895 0.89195 1.22400
C 	C 	0.08845 0.69947 0.88308 0.31700
O 	O 	0.09871 0.61713 0.96927 -0.42400
O 	O 	0.06185 0.69135 0.87753 -0.44800
O 	O 	0.07098 0.66059 0.98565 -0.48300
C 	C 	0.04750 0.61723 0.83664 0.31600
O 	O 	0.07355 0.62808 0.83126 -0.44700
O 	O 	0.03231 0.62540 0.87889 -0.50000
C 	C 	0.08097 0.63215 0.00121 0.28700
O 	O 	0.11057 0.57297 0.87203 -0.32300
Zn	Zn	0.04257 0.65923 0.93027 1.17600
O 	O 	0.10671 0.67707 0.89825 -0.42600
C 	C 	0.13559 0.58417 0.86097 0.27800
O 	O 	0.13913 0.61561 0.86725 -0.38300
C 	C 	0.98027 0.53677 0.20234 0.13600
C 	C 	0.95834 0.52409 0.17036 -0.09900
H 	H 	0.93999 0.51327 0.18954 0.06800
C 	C 	0.96001 0.52610 0.11387 0.04300
C 	C 	0.98398 0.53993 0.08965 -0.08000
C 	C 	0.00532 0.55401 0.12134 0.04400
C 	C 	0.00358 0.55211 0.17781 -0.10000
H 	H 	0.01993 0.56294 0.20271 0.06700
N 	N 	0.97838 0.53507 0.26026 -0.17800
C 	C 	0.99002 0.50881 0.28696 0.19000
C 	C 	0.98844 0.50674 0.34369 -0.05900
C 	C 	0.97476 0.53180 0.37257 0.03100
C 	C 	0.96290 0.55849 0.34466 -0.06000
C 	C 	0.96497 0.55974 0.28793 0.19000
C 	C 	0.00031 0.48005 0.37187 -0.01300
C 	C 	0.99855 0.47845 0.42823 -0.01100
C 	C 	0.98488 0.50349 0.45737 -0.06000
C 	C 	0.97295 0.53015 0.42946 0.03100
C 	C 	0.95925 0.55519 0.45833 -0.06000
C 	C 	0.94918 0.58351 0.37379 -0.01300
C 	C 	0.94736 0.58186 0.43015 -0.01300
C 	C 	0.98295 0.50235 0.51413 0.19000
N 	N 	0.96953 0.52701 0.54180 -0.17800
C 	C 	0.95769 0.55313 0.51506 0.19000
C 	C 	0.96796 0.52550 0.59976 0.13600
C 	C 	0.94556 0.50863 0.62488 -0.09900
C 	C 	0.94418 0.50691 0.68141 0.04400
C 	C 	0.96535 0.52176 0.71248 -0.08100
C 	C 	0.98691 0.54008 0.68778 0.04500
C 	C 	0.98843 0.54158 0.63128 -0.09900
O 	O 	0.95402 0.58472 0.26126 -0.20300
O 	O 	0.00273 0.48542 0.25937 -0.19900
O 	O 	0.99412 0.47752 0.54084 -0.19800
O 	O 	0.94480 0.57640 0.54263 -0.20300
H 	H 	0.00509 0.55556 0.61176 0.06800
H 	H 	0.92923 0.49737 0.60044 0.06800
H 	H 	0.93990 0.60427 0.35295 0.04900
H 	H 	0.93671 0.60138 0.45173 0.04900
H 	H 	0.01093 0.46051 0.35028 0.05200
H 	H 	0.00784 0.45770 0.44908 0.05200
H 	H 	0.96404 0.52088 0.75622 0.05000
H 	H 	0.98519 0.54169 0.04597 0.04800
Zn	Zn	0.84793 0.44207 0.91643 1.22400
C 	C 	0.79395 0.47444 0.92301 0.31600
O 	O 	0.85860 0.43748 0.84011 -0.43500
O 	O 	0.80721 0.50311 0.92253 -0.44300
O 	O 	0.83301 0.48182 0.81723 -0.49100
C 	C 	0.87182 0.49858 0.96900 0.32400
O 	O 	0.85414 0.47375 0.97471 -0.45400
O 	O 	0.87008 0.51831 0.92703 -0.49900
C 	C 	0.85284 0.46082 0.80532 0.30400
O 	O 	0.89164 0.41942 0.94135 -0.32600
Zn	Zn	0.84090 0.51409 0.87265 1.17400
O 	O 	0.80706 0.44733 0.90850 -0.42900
C 	C 	0.87708 0.39328 0.95391 0.27600
O 	O 	0.85026 0.39517 0.94581 -0.38000
Zn	Zn	0.03160 0.04611 0.17017 1.22200
C 	C 	0.06105 0.98818 0.13272 0.31800
O 	O 	0.99866 0.02899 0.20931 -0.46900
O 	O 	0.07253 0.98614 0.18098 -0.44900
O 	O 	0.01520 0.97767 0.22612 -0.49000
C 	C 	0.08190 0.05528 0.23144 0.32800
O 	O 	0.07043 0.05862 0.18362 -0.45100
O 	O 	0.06883 0.03804 0.26887 -0.50600
C 	C 	0.99426 0.99709 0.21379 0.31600
O 	O 	0.01947 0.10050 0.19508 -0.32200
Zn	Zn	0.05072 0.99608 0.25110 1.17100
O 	O 	0.03938 0.00756 0.12445 -0.43700
C 	C 	0.01130 0.10342 0.14528 0.27700
O 	O 	0.01441 0.07749 0.11536 -0.38400
C 	C 	0.89029 0.36339 0.97587 -0.05900
C 	C 	0.91531 0.36592 0.00563 -0.00500
C 	C 	0.92831 0.33752 0.02528 -0.03800
C 	C 	0.91654 0.30619 0.01497 -0.00300
C 	C 	0.87824 0.33219 0.96632 0.00200
C 	C 	0.93073 0.27606 0.03440 0.10500
N 	N 	0.95889 0.27629 0.04348 -0.08300
N 	N 	0.97170 0.24913 0.06079 -0.08200
C 	C 	0.95676 0.22087 0.06915 0.10300
N 	N 	0.92863 0.22058 0.05996 -0.08200
N 	N 	0.91578 0.24779 0.04299 -0.08400
C 	C 	0.97092 0.19087 0.08823 0.00700
C 	C 	0.00404 0.16430 0.14850 0.00600
C 	C 	0.99767 0.13354 0.12517 -0.06800
C 	C 	0.97795 0.13162 0.08308 0.00700
C 	C 	0.96455 0.16013 0.06486 -0.04300
C 	C 	0.89134 0.30373 0.98552 -0.03200
C 	C 	0.99081 0.19284 0.12998 -0.04300
H 	H 	0.92463 0.38991 0.01383 0.04200
H 	H 	0.94745 0.33991 0.04867 0.05200
H 	H 	0.88210 0.27978 0.97683 0.05400
H 	H 	0.85900 0.32992 0.94318 0.04800
H 	H 	0.99579 0.21641 0.14847 0.05300
H 	H 	0.01933 0.16613 0.18080 0.04400
H 	H 	0.94937 0.15835 0.03236 0.05200
H 	H 	0.97274 0.10802 0.06491 0.04400
C 	C 	0.89565 0.44920 0.73611 0.01800
H 	H 	0.89423 0.42184 0.73432 0.03700
C 	C 	0.92096 0.46936 0.75801 -0.04200
H 	H 	0.94074 0.45872 0.77389 0.04400
C 	C 	0.89361 0.47293 0.68694 -0.04600
H 	H 	0.89067 0.46509 0.64433 0.04400
C 	C 	0.91866 0.49296 0.70943 0.01000
C 	C 	0.87571 0.47173 0.76789 -0.10700
C 	C 	0.87323 0.49524 0.71935 0.00300
H 	H 	0.85336 0.50583 0.70376 0.02300
C 	C 	0.89858 0.51534 0.74128 -0.05800
H 	H 	0.89996 0.54270 0.74333 0.02800
C 	C 	0.90078 0.49172 0.79003 -0.01200
H 	H 	0.90367 0.49942 0.83274 -0.00100
C 	C 	0.90631 0.50265 0.09490 -0.04900
H 	H 	0.89928 0.49584 0.13624 0.04400
C 	C 	0.90808 0.47847 0.04638 0.01600
H 	H 	0.90250 0.45179 0.04751 0.03600
C 	C 	0.89199 0.52858 0.05806 0.01500
H 	H 	0.87316 0.54323 0.06875 0.02700
C 	C 	0.89415 0.50456 0.01025 -0.09900
C 	C 	0.93524 0.51707 0.07905 0.01200
C 	C 	0.92115 0.54302 0.04276 -0.05800
H 	H 	0.92668 0.56971 0.04143 0.03800
C 	C 	0.92307 0.51891 0.99462 0.02400
H 	H 	0.92992 0.52559 0.95309 0.02300
C 	C 	0.93727 0.49298 0.03115 -0.05700
H 	H 	0.95606 0.47832 0.02026 0.04500
C 	C 	0.09681 0.73472 0.88161 -0.09000
C 	C 	0.07819 0.75835 0.86102 0.01000
C 	C 	0.08270 0.79190 0.87134 -0.05100
C 	C 	0.10604 0.80221 0.90198 0.00800
C 	C 	0.12173 0.74533 0.90694 0.01400
C 	C 	0.10712 0.83597 0.92480 0.10100
N 	N 	0.09190 0.86058 0.90201 -0.08400
N 	N 	0.08808 0.88890 0.92831 -0.08300
C 	C 	0.09949 0.89352 0.97805 0.10600
N 	N 	0.11610 0.86973 0.99933 -0.08300
N 	N 	0.11984 0.84139 0.97313 -0.08300
C 	C 	0.09084 0.92175 0.01166 0.00400
C 	C 	0.05343 0.95549 0.04851 0.01600
C 	C 	0.07180 0.96755 0.08838 -0.08900
C 	C 	0.10014 0.95811 0.08768 0.01300
C 	C 	0.10961 0.93536 0.04948 -0.04900
C 	C 	0.12636 0.77892 0.91687 -0.04900
C 	C 	0.06289 0.93270 0.01034 -0.05600
H 	H 	0.05952 0.75066 0.83920 0.03400
H 	H 	0.06725 0.80961 0.85798 0.05200
H 	H 	0.14513 0.78665 0.93831 0.05400
H 	H 	0.13686 0.72752 0.92130 0.04600
H 	H 	0.04818 0.92249 0.98130 0.05900
H 	H 	0.03156 0.96275 0.04835 0.04000
H 	H 	0.13137 0.92768 0.05016 0.05000
H 	H 	0.11471 0.96791 0.11735 0.03700
C 	C 	0.02281 0.54713 0.76979 -0.04700
H 	H 	0.02505 0.52051 0.77958 0.04400
C 	C 	0.00983 0.57333 0.80729 0.00500
H 	H 	0.00146 0.56845 0.84847 0.02800
C 	C 	0.04730 0.57118 0.75586 0.01000
H 	H 	0.06993 0.56474 0.75472 0.03800
C 	C 	0.03406 0.59721 0.79302 -0.08200
C 	C 	0.00571 0.56119 0.72244 0.00700
C 	C 	0.02998 0.58501 0.70771 -0.04400
H 	H 	0.03832 0.58980 0.66652 0.04300
C 	C 	0.01708 0.61138 0.74569 0.00800
H 	H 	0.01482 0.63802 0.73613 0.02900
C 	C 	0.99273 0.58736 0.75978 -0.04700
H 	H 	0.97013 0.59396 0.76136 0.03700
C 	C 	0.07151 0.58092 0.07075 0.01400
H 	H 	0.09314 0.57109 0.07440 0.03500
C 	C 	0.04582 0.56192 0.04749 -0.03800
H 	H 	0.04601 0.53612 0.03234 0.04000
C 	C 	0.05306 0.59345 0.11828 -0.04400
H 	H 	0.05947 0.59381 0.16139 0.04200
C 	C 	0.02763 0.57471 0.09436 0.00900
C 	C 	0.06306 0.61136 0.03752 -0.10300
C 	C 	0.04499 0.62423 0.08443 -0.00000
H 	H 	0.04478 0.65007 0.09938 0.02300
C 	C 	0.01943 0.60525 0.06105 -0.05600
H 	H 	0.99785 0.61520 0.05705 0.02400
C 	C 	0.03767 0.59255 0.01401 -0.02900
H 	H 	0.03128 0.59198 0.97093 -0.00000
C 	C 	0.75353 0.89928 0.06879 -0.09100
C 	C 	0.76651 0.87860 0.10670 0.01300
C 	C 	0.79520 0.88230 0.11780 -0.05000
C 	C 	0.81116 0.90664 0.09095 0.00800
C 	C 	0.76988 0.92200 0.03933 0.01200
C 	C 	0.84015 0.91421 0.10853 0.09900
N 	N 	0.84702 0.91270 0.16175 -0.08400
N 	N 	0.87188 0.92396 0.17877 -0.08400
C 	C 	0.89055 0.93716 0.14311 0.10000
N 	N 	0.88405 0.93772 0.08972 -0.08400
N 	N 	0.85924 0.92637 0.07267 -0.08400
C 	C 	0.91666 0.95294 0.16254 0.00900
C 	C 	0.95771 0.95266 0.22083 0.01600
C 	C 	0.96682 0.98278 0.19839 -0.09200
C 	C 	0.95045 0.99816 0.15861 0.01400
C 	C 	0.92555 0.98329 0.14071 -0.04900
C 	C 	0.79853 0.92567 0.05031 -0.05100
C 	C 	0.93270 0.93786 0.20310 -0.05100
H 	H 	0.75416 0.86076 0.12936 0.04100
H 	H 	0.80482 0.86688 0.14831 0.05200
H 	H 	0.81061 0.94431 0.02884 0.05200
H 	H 	0.76018 0.93766 0.00924 0.03500
H 	H 	0.92602 0.91447 0.22032 0.05000
H 	H 	0.97006 0.94063 0.25177 0.02800
H 	H 	0.91315 0.99538 0.10992 0.05300
H 	H 	0.95731 0.02129 0.14070 0.03800
C 	C 	0.61648 0.94629 0.87736 -0.04600
H 	H 	0.62493 0.94825 0.83565 0.04400
C 	C 	0.61801 0.91514 0.91388 0.01000
H 	H 	0.62776 0.89128 0.90267 0.03900
C 	C 	0.62583 0.96814 0.92572 0.00900
H 	H 	0.64209 0.98796 0.92419 0.03100
C 	C 	0.62696 0.93718 0.96153 -0.07900
C 	C 	0.58560 0.95089 0.89444 0.00800
C 	C 	0.59475 0.97280 0.94220 -0.04800
H 	H 	0.58510 0.99665 0.95380 0.04200
C 	C 	0.59611 0.94176 0.97831 0.01300
H 	H 	0.58781 0.93982 0.02016 0.02000
C 	C 	0.58686 0.91988 0.93031 -0.04700
H 	H 	0.57063 0.90004 0.93204 0.04600
C 	C 	0.61195 0.93590 0.23416 -0.05800
H 	H 	0.61089 0.96326 0.23597 0.03100
C 	C 	0.60979 0.91492 0.18220 -0.00900
H 	H 	0.60736 0.92483 0.14061 0.00200
C 	C 	0.63692 0.91473 0.25377 0.00400
H 	H 	0.65681 0.92444 0.27126 0.02300
C 	C 	0.63446 0.89385 0.20209 -0.10600
C 	C 	0.59143 0.91186 0.26228 0.01000
C 	C 	0.61609 0.89072 0.28241 -0.04700
H 	H 	0.61864 0.88063 0.32382 0.04300
C 	C 	0.61405 0.86970 0.23011 0.01700
H 	H 	0.61514 0.84235 0.22812 0.03400
C 	C 	0.58913 0.89090 0.21054 -0.04300
H 	H 	0.56935 0.88106 0.19277 0.04000
C 	C 	0.11148 0.06515 0.23930 -0.09800
C 	C 	0.12269 0.09202 0.21032 0.02300
C 	C 	0.15180 0.09656 0.20678 -0.05100
C 	C 	0.16999 0.07410 0.23191 0.01200
C 	C 	0.12956 0.04477 0.26894 0.01900
C 	C 	0.20028 0.07418 0.21821 0.10000
N 	N 	0.20905 0.08543 0.16921 -0.08200
N 	N 	0.23533 0.08032 0.15274 -0.08100
C 	C 	0.25357 0.06368 0.18466 0.10100
N 	N 	0.24520 0.05368 0.23455 -0.08300
N 	N 	0.21898 0.05900 0.25119 -0.08300
C 	C 	0.28087 0.05318 0.16301 0.01200
C 	C 	0.32403 0.06560 0.11429 0.01900
C 	C 	0.33224 0.03250 0.11905 -0.09200
C 	C 	0.31460 0.00979 0.14572 0.02000
C 	C 	0.28911 0.02011 0.16779 -0.05200
C 	C 	0.15866 0.04916 0.26519 -0.05400
C 	C 	0.29836 0.07586 0.13590 -0.05000
H 	H 	0.10891 0.10855 0.18863 0.04000
H 	H 	0.16020 0.11675 0.18279 0.05600
H 	H 	0.17235 0.03204 0.28584 0.05200
H 	H 	0.12118 0.02426 0.29220 0.01600
H 	H 	0.29217 0.10143 0.13190 0.05400
H 	H 	0.33747 0.08333 0.09374 0.03900
H 	H 	0.27563 0.00233 0.18812 0.05100
H 	H 	0.32083 0.98425 0.15007 0.02000
C 	C 	0.44870 0.01041 0.90535 0.02000
H 	H 	0.43846 0.03439 0.89679 0.03700
C 	C 	0.45328 0.98210 0.86390 -0.05100
H 	H 	0.44685 0.98272 0.82082 0.04400
C 	C 	0.47920 0.00602 0.92607 -0.04400
H 	H 	0.49446 0.02635 0.93400 0.05300
C 	C 	0.48343 0.97780 0.88535 0.00800
C 	C 	0.43858 0.98479 0.94712 -0.10000
C 	C 	0.46876 0.98052 0.96811 0.01400
H 	H 	0.47507 0.97993 0.01130 0.01000
C 	C 	0.47306 0.95233 0.92719 -0.05100
H 	H 	0.48320 0.92834 0.93616 0.04100
C 	C 	0.44272 0.95660 0.90633 0.01600
H 	H 	0.42749 0.93624 0.89847 0.03100
C 	C 	0.47265 0.98692 0.28107 -0.04900
H 	H 	0.46941 0.99557 0.32314 0.04400
C 	C 	0.45139 0.96579 0.24811 0.00800
H 	H 	0.43060 0.95693 0.26279 0.02600
C 	C 	0.47721 0.00982 0.23152 0.01900
H 	H 	0.47765 0.03723 0.23250 0.03500
C 	C 	0.45633 0.98851 0.19916 -0.09700
C 	C 	0.49663 0.96478 0.26074 0.01000
C 	C 	0.50140 0.98759 0.21170 -0.04700
H 	H 	0.52213 0.99655 0.19681 0.04000
C 	C 	0.48028 0.96644 0.17899 0.00100
H 	H 	0.48327 0.95812 0.13663 0.01000
C 	C 	0.47567 0.94355 0.22830 -0.05500
H 	H 	0.47523 0.91614 0.22717 0.03500
C 	C 	0.47119 0.37164 0.88350 -0.06800
C 	C 	0.49885 0.36001 0.88693 0.00800
C 	C 	0.50402 0.32604 0.88622 -0.04300
C 	C 	0.48157 0.30344 0.88171 0.00800
C 	C 	0.44904 0.34918 0.87486 0.00800
C 	C 	0.48607 0.26804 0.89256 0.10300
N 	N 	0.50257 0.25872 0.93455 -0.08100
N 	N 	0.50219 0.22754 0.95184 -0.08000
C 	C 	0.48541 0.20472 0.92748 0.10000
N 	N 	0.47017 0.21361 0.88352 -0.08000
N 	N 	0.47046 0.24483 0.86635 -0.08100
C 	C 	0.48000 0.17269 0.95392 0.01900
C 	C 	0.46481 0.14203 0.03324 0.01700
C 	C 	0.46213 0.11327 0.00207 -0.08500
C 	C 	0.46977 0.11391 0.94726 0.02100
C 	C 	0.47845 0.14359 0.92314 -0.05200
C 	C 	0.45420 0.31526 0.87372 -0.04300
C 	C 	0.47386 0.17154 0.00939 -0.05700
H 	H 	0.51616 0.37714 0.89322 0.04200
H 	H 	0.52531 0.31727 0.89128 0.05300
H 	H 	0.43670 0.29814 0.86966 0.05500
H 	H 	0.42765 0.35793 0.87143 0.04200
H 	H 	0.47501 0.19380 0.03357 0.05500
H 	H 	0.45923 0.14171 0.07570 0.03900
H 	H 	0.48340 0.14411 0.88041 0.05500
H 	H 	0.46793 0.09178 0.92289 0.03500
C 	C 	0.38116 0.48802 0.93048 -0.09600
C 	C 	0.35920 0.48132 0.96699 0.02400
C 	C 	0.33121 0.48506 0.95101 -0.05400
C 	C 	0.32486 0.49554 0.89833 0.01200
C 	C 	0.37476 0.49737 0.87724 0.01800
C 	C 	0.29556 0.50289 0.88314 0.10100
N 	N 	0.27397 0.48436 0.90304 -0.08100
N 	N 	0.24743 0.49263 0.89276 -0.08200
C 	C 	0.24170 0.51975 0.86243 0.10300
N 	N 	0.26333 0.53783 0.84164 -0.08200
N 	N 	0.28984 0.52950 0.85176 -0.08200
C 	C 	0.21237 0.53117 0.85598 0.00800
C 	C 	0.16554 0.53825 0.89363 0.00900
C 	C 	0.15972 0.56217 0.85425 -0.07000
C 	C 	0.17942 0.56860 0.81333 0.00900
C 	C 	0.20550 0.55297 0.81385 -0.04400
C 	C 	0.34678 0.50111 0.86128 -0.05100
C 	C 	0.19179 0.52290 0.89470 -0.04400
H 	H 	0.36378 0.47356 0.00793 0.02700
H 	H 	0.31452 0.48066 0.98002 0.05500
H 	H 	0.34216 0.50875 0.82029 0.05400
H 	H 	0.39144 0.50249 0.84854 0.04200
H 	H 	0.19652 0.50578 0.92701 0.05500
H 	H 	0.15037 0.53293 0.92522 0.04200
H 	H 	0.22071 0.55870 0.78253 0.05400
H 	H 	0.17494 0.58666 0.78224 0.03900
C 	C 	0.53267 0.47375 0.03205 -0.09400
C 	C 	0.54560 0.44525 0.01160 0.00800
C 	C 	0.57487 0.44383 0.00713 -0.05500
C 	C 	0.59161 0.47076 0.02344 0.01100
C 	C 	0.54953 0.49991 0.05120 0.01400
C 	C 	0.62224 0.47083 0.01321 0.09900
N 	N 	0.63666 0.44200 0.01197 -0.08600
N 	N 	0.66397 0.44195 0.99983 -0.07900
C 	C 	0.67767 0.47072 0.98866 0.10400
N 	N 	0.66333 0.49955 0.99039 -0.08000
N 	N 	0.63602 0.49960 0.00238 -0.08600
C 	C 	0.70775 0.47067 0.97405 0.00600
C 	C 	0.74681 0.44655 0.92494 0.01300
C 	C 	0.76445 0.47261 0.94164 -0.08500
C 	C 	0.75368 0.49732 0.97550 0.00900
C 	C 	0.72551 0.49637 0.99154 -0.03900
C 	C 	0.57880 0.49843 0.04685 -0.05200
C 	C 	0.71861 0.44558 0.94109 -0.04600
H 	H 	0.53299 0.42459 0.99751 0.04600
H 	H 	0.58443 0.42221 0.98934 0.06000
H 	H 	0.59148 0.51904 0.06091 0.05200
H 	H 	0.53999 0.52181 0.06805 0.03400
H 	H 	0.70510 0.42570 0.92707 0.05500
H 	H 	0.75477 0.42737 0.89870 0.04500
H 	H 	0.71751 0.51561 0.01763 0.04500
H 	H 	0.76713 0.51727 0.98948 0.04000
C 	C 	0.50016 0.56329 0.91102 -0.08900
C 	C 	0.52900 0.56214 0.92285 0.01400
C 	C 	0.54539 0.59096 0.92074 -0.04900
C 	C 	0.53311 0.62120 0.90644 0.00900
C 	C 	0.48830 0.59303 0.89351 0.01300
C 	C 	0.54916 0.65245 0.91219 0.10100
N 	N 	0.57754 0.65296 0.90589 -0.08200
N 	N 	0.59219 0.68058 0.91525 -0.08200
C 	C 	0.57890 0.70851 0.93120 0.10200
N 	N 	0.55049 0.70813 0.93659 -0.08300
N 	N 	0.53585 0.68053 0.92726 -0.08400
C 	C 	0.59525 0.73848 0.94537 0.00700
C 	C 	0.63614 0.76401 0.98754 0.01400
C 	C 	0.62411 0.79534 0.98109 -0.06600
C 	C 	0.59805 0.79817 0.95493 0.00500
C 	C 	0.58372 0.76991 0.93714 -0.04500
C 	C 	0.50470 0.62180 0.89096 -0.05000
C 	C 	0.62177 0.73573 0.96986 -0.04700
H 	H 	0.53839 0.53931 0.93648 0.04200
H 	H 	0.56730 0.59001 0.93249 0.05600
H 	H 	0.49512 0.64473 0.87835 0.05200
H 	H 	0.46615 0.59409 0.88353 0.03600
H 	H 	0.63092 0.71167 0.97657 0.05500
H 	H 	0.65627 0.76144 0.00745 0.04000
H 	H 	0.56355 0.77246 0.91735 0.05200
H 	H 	0.58879 0.82223 0.94870 0.04200
