data_crystal

_cell_length_a 18.47213
_cell_length_b 17.70252
_cell_length_c 45.96841
_cell_angle_alpha 90.72597
_cell_angle_beta  91.03522
_cell_angle_gamma 110.83674

_symmetry_space_group_name_	'P 1'
_symmetry_space_group_name_H-M	'P 1'

loop_
_symmetry_equiv_pos_as_xyz
  x,y,z

loop_
_atom_site_label
_atom_site_type_symbol
_atom_site_fract_x
_atom_site_fract_y
_atom_site_fract_z
_atom_site_charge
O 	O 	0.09157 0.91218 0.75270 -0.70300
Ni	Ni	0.12096 0.01241 0.77816 1.10100
O 	O 	0.11275 0.81804 0.70335 -0.39900
Ni	Ni	0.18130 0.91454 0.73035 1.06500
O 	O 	0.16587 0.00797 0.70876 -0.41200
O 	O 	0.21809 0.00474 0.79776 -0.38700
O 	O 	0.02420 0.01764 0.75783 -0.70400
O 	O 	0.12129 0.10440 0.80616 -0.35600
H 	H 	0.07175 0.86258 0.76427 0.15200
H 	H 	0.03306 0.07126 0.74935 0.15900
C 	C 	0.19350 0.08208 0.72027 0.26600
C 	C 	0.04222 0.80924 0.69407 0.27900
C 	C 	0.27604 0.00076 0.78236 0.30200
C 	C 	0.05661 0.09737 0.81950 0.25500
O 	O 	0.18772 0.09492 0.74869 -0.36500
O 	O 	0.27033 0.99669 0.75372 -0.43300
Ni	Ni	0.35217 0.74996 0.38831 1.09900
O 	O 	0.29989 0.65512 0.36055 -0.70600
Ni	Ni	0.19608 0.66548 0.35432 1.10000
O 	O 	0.44963 0.72023 0.39090 -0.37400
O 	O 	0.37978 0.59399 0.40708 -0.40400
O 	O 	0.39249 0.81409 0.35197 -0.40400
Ni	Ni	0.28490 0.55182 0.37817 1.06700
O 	O 	0.30627 0.90395 0.41805 -0.40600
O 	O 	0.22540 0.57447 0.41201 -0.41400
O 	O 	0.15474 0.57434 0.32432 -0.37800
O 	O 	0.24503 0.75253 0.38584 -0.70200
O 	O 	0.40415 0.85169 0.41350 -0.38200
O 	O 	0.10450 0.70227 0.34542 -0.36400
O 	O 	0.18643 0.83264 0.34050 -0.41800
Ni	Ni	0.25353 0.86452 0.37859 1.07100
H 	H 	0.32721 0.65988 0.34194 0.15700
H 	H 	0.22003 0.73609 0.40475 0.15900
C 	C 	0.15335 0.56946 0.40916 0.29400
O 	O 	0.35462 0.92260 0.35686 -0.39500
C 	C 	0.44701 0.65113 0.40201 0.27800
C 	C 	0.17011 0.50788 0.32830 0.27200
C 	C 	0.40855 0.89204 0.35147 0.30800
C 	C 	0.11561 0.77862 0.34085 0.26700
C 	C 	0.36488 0.88605 0.42930 0.28800
O 	O 	0.12719 0.58844 0.38454 -0.36200
O 	O 	0.18593 0.48856 0.35483 -0.40300
Ni	Ni	0.35259 0.67741 0.12865 1.10000
O 	O 	0.24831 0.62622 0.10703 -0.69800
Ni	Ni	0.18143 0.67025 0.13057 1.10400
O 	O 	0.40472 0.62521 0.09990 -0.36600
O 	O 	0.31574 0.49977 0.10816 -0.40700
O 	O 	0.36768 0.76898 0.10019 -0.39600
Ni	Ni	0.20623 0.50888 0.10538 1.06800
O 	O 	0.41350 0.79205 0.18738 -0.41900
O 	O 	0.19716 0.50206 0.14936 -0.41300
O 	O 	0.08531 0.62677 0.10445 -0.36800
O 	O 	0.28137 0.70592 0.15523 -0.70200
O 	O 	0.45884 0.73799 0.14859 -0.37500
O 	O 	0.13560 0.74486 0.15181 -0.37000
O 	O 	0.24591 0.85328 0.14472 -0.40800
Ni	Ni	0.33127 0.82082 0.16534 1.06900
H 	H 	0.25082 0.64649 0.08697 0.16200
H 	H 	0.27467 0.67327 0.17299 0.16000
C 	C 	0.13744 0.51145 0.16161 0.28800
O 	O 	0.41006 0.87259 0.13365 -0.39500
C 	C 	0.37465 0.54748 0.09341 0.27900
C 	C 	0.07292 0.55943 0.08922 0.28400
C 	C 	0.40612 0.84493 0.10677 0.31000
C 	C 	0.17375 0.82334 0.15324 0.26300
C 	C 	0.46961 0.77535 0.17440 0.28800
O 	O 	0.12674 0.58093 0.15977 -0.36700
O 	O 	0.09326 0.50047 0.09993 -0.41000
O 	O 	0.02993 0.19493 0.23815 -0.37900
O 	O 	0.08549 0.06963 0.23710 -0.40500
O 	O 	0.99456 0.05779 0.20078 -0.35700
O 	O 	0.98537 0.01991 0.31734 -0.39600
Ni	Ni	0.02983 0.04459 0.27591 1.06500
O 	O 	0.04609 0.16210 0.28502 -0.41700
C 	C 	0.05686 0.21612 0.26478 0.28800
C 	C 	0.05169 0.03795 0.21185 0.28100
C 	C 	0.99318 0.29793 0.16433 0.01200
C 	C 	0.94847 0.30258 0.18824 -0.07300
C 	C 	0.02680 0.44541 0.19445 -0.02300
C 	C 	0.07344 0.43945 0.17135 -0.06000
C 	C 	0.05554 0.36557 0.15614 -0.01900
H 	H 	0.98069 0.24126 0.15248 0.05100
H 	H 	0.03936 0.50233 0.20614 0.04400
H 	H 	0.08955 0.36067 0.13774 0.02200
C 	C 	0.09515 0.85211 0.19224 -0.03000
C 	C 	0.13846 0.87668 0.16705 -0.05700
C 	C 	0.15092 0.95381 0.15601 -0.04200
C 	C 	0.12096 0.00615 0.17027 0.03500
C 	C 	0.07942 0.98208 0.19584 -0.10900
C 	C 	0.06629 0.90484 0.20668 -0.00000
H 	H 	0.08550 0.79290 0.20104 0.03900
H 	H 	0.18390 0.97321 0.13648 0.05400
H 	H 	0.13115 0.06575 0.16174 0.03500
H 	H 	0.03411 0.88587 0.22643 0.00000
C 	C 	0.08023 0.42493 0.28950 -0.00400
C 	C 	0.15080 0.44586 0.30514 -0.07300
C 	C 	0.19756 0.39919 0.30160 -0.01300
C 	C 	0.17002 0.32718 0.28534 -0.00900
C 	C 	0.09558 0.30142 0.27256 -0.06700
C 	C 	0.05267 0.35272 0.27323 -0.02600
H 	H 	0.04434 0.46151 0.29158 0.04100
H 	H 	0.25328 0.41628 0.31287 0.01200
H 	H 	0.20429 0.28868 0.28435 0.03200
H 	H 	0.99533 0.33354 0.26320 0.03400
C 	C 	0.97610 0.88296 0.35829 0.00700
C 	C 	0.94129 0.88177 0.33081 -0.07900
C 	C 	0.95025 0.82991 0.30890 -0.01100
C 	C 	0.00484 0.79238 0.31265 -0.02900
C 	C 	0.04877 0.80472 0.33862 -0.06600
C 	C 	0.03101 0.84601 0.36202 -0.03200
H 	H 	0.96740 0.92029 0.37576 0.03600
H 	H 	0.01607 0.75782 0.29480 0.03400
H 	H 	0.06247 0.85298 0.38260 0.01800
C 	C 	0.41572 0.00091 0.46549 0.03700
C 	C 	0.39553 0.91805 0.45842 -0.08900
C 	C 	0.40476 0.86513 0.47942 0.01100
C 	C 	0.41349 0.05795 0.44359 0.08200
C 	C 	0.33570 0.96470 0.56004 0.07600
N 	N 	0.41175 0.10365 0.42605 -0.10900
N 	N 	0.27052 0.92799 0.55596 -0.11600
H 	H 	0.39084 0.80171 0.47382 0.03300
C 	C 	0.02144 0.47797 0.48468 0.00700
C 	C 	0.01504 0.54589 0.47102 -0.06700
C 	C 	0.05406 0.57391 0.44518 0.02600
C 	C 	0.09949 0.53311 0.43271 -0.08200
C 	C 	0.10150 0.46212 0.44539 0.01400
C 	C 	0.06369 0.43501 0.47144 -0.03600
C 	C 	0.04950 0.64613 0.43228 0.06400
C 	C 	0.07038 0.36440 0.48489 0.08900
C 	C 	0.87664 0.34341 0.49240 0.10300
N 	N 	0.04586 0.70397 0.42193 -0.12400
N 	N 	0.07570 0.30784 0.49569 -0.11300
N 	N 	0.84365 0.30526 0.47245 -0.11100
H 	H 	0.98155 0.57826 0.48099 0.06300
H 	H 	0.13513 0.42971 0.43553 0.03400
C 	C 	0.55244 0.54547 0.44251 -0.03900
C 	C 	0.57592 0.67582 0.46603 -0.05700
C 	C 	0.54957 0.70256 0.44084 0.02600
C 	C 	0.51558 0.64710 0.41775 -0.07900
C 	C 	0.52720 0.57295 0.41724 0.00900
C 	C 	0.44184 0.55258 0.50723 0.09500
C 	C 	0.55441 0.46466 0.44291 0.08800
C 	C 	0.55538 0.78590 0.43924 0.07500
N 	N 	0.38494 0.56168 0.50040 -0.11400
N 	N 	0.56040 0.85283 0.43802 -0.10400
N 	N 	0.55599 0.39991 0.44325 -0.11300
H 	H 	0.50710 0.53247 0.39849 0.02500
C 	C 	0.36317 0.27098 0.70524 -0.00600
C 	C 	0.38599 0.25028 0.67829 -0.06900
C 	C 	0.33546 0.18367 0.66233 -0.00600
C 	C 	0.26729 0.13247 0.67482 -0.01900
C 	C 	0.24923 0.14767 0.70340 -0.05500
C 	C 	0.29457 0.22062 0.71757 -0.01600
H 	H 	0.40077 0.32352 0.71742 0.03400
H 	H 	0.35170 0.16817 0.64117 0.04700
H 	H 	0.23117 0.07866 0.66292 0.04800
H 	H 	0.27955 0.23573 0.73898 0.05000
C 	C 	0.00562 0.58370 0.01309 -0.08000
C 	C 	0.04942 0.59941 0.03903 0.03300
C 	C 	0.02615 0.54517 0.06221 -0.10700
C 	C 	0.95888 0.47612 0.05919 0.03400
C 	C 	0.11941 0.67009 0.04140 0.04900
N 	N 	0.01452 0.38353 0.96921 -0.13000
N 	N 	0.17544 0.72669 0.04329 -0.11900
H 	H 	0.94072 0.43464 0.07707 0.04300
H 	H 	0.02386 0.62494 0.99514 0.05600
C 	C 	0.52576 0.97832 0.03439 -0.02300
C 	C 	0.46955 0.00158 0.04818 -0.01500
C 	C 	0.43310 0.96158 0.07302 0.00600
C 	C 	0.45292 0.89748 0.08422 -0.07400
C 	C 	0.51178 0.87692 0.07123 0.00200
C 	C 	0.54822 0.91692 0.04643 -0.02300
C 	C 	0.37378 0.98497 0.08633 0.06400
N 	N 	0.32625 0.00370 0.09698 -0.10000
H 	H 	0.47886 0.91871 0.98032 0.06600
H 	H 	0.45304 0.04965 0.03918 0.05000
H 	H 	0.52770 0.82819 0.08001 0.04900
C 	C 	0.45353 0.46995 0.01565 0.02200
C 	C 	0.48284 0.55309 0.05984 0.02900
C 	C 	0.40592 0.51399 0.06902 -0.08700
C 	C 	0.35579 0.44818 0.05254 0.00700
C 	C 	0.37952 0.42542 0.02614 -0.04300
C 	C 	0.32761 0.35636 0.00992 0.08800
N 	N 	0.28606 0.30106 0.99690 -0.11400
H 	H 	0.29742 0.41633 0.05979 0.01500
H 	H 	0.03778 0.15167 0.87322 0.04400
C 	C 	0.48935 0.11233 0.79755 -0.02000
C 	C 	0.49527 0.09485 0.82695 -0.06000
C 	C 	0.43185 0.03764 0.84030 -0.01600
C 	C 	0.36139 0.00295 0.82509 0.01500
C 	C 	0.35350 0.02520 0.79639 -0.08000
C 	C 	0.41866 0.07776 0.78229 -0.00400
H 	H 	0.43606 0.02318 0.86293 0.06200
H 	H 	0.31210 0.96113 0.83598 0.02400
H 	H 	0.41359 0.09502 0.76003 0.03700
Ni	Ni	0.62260 0.27615 0.89063 1.10000
O 	O 	0.64282 0.34207 0.85282 -0.69500
Ni	Ni	0.75383 0.35129 0.84645 1.09400
O 	O 	0.52596 0.29902 0.90226 -0.36200
O 	O 	0.53853 0.41614 0.87976 -0.39700
O 	O 	0.54831 0.17394 0.86991 -0.36600
Ni	Ni	0.64506 0.45327 0.85977 1.06800
O 	O 	0.63471 0.10716 0.90173 -0.39800
O 	O 	0.70097 0.45571 0.89858 -0.42000
O 	O 	0.77927 0.43240 0.81330 -0.38800
O 	O 	0.72674 0.27506 0.88082 -0.70900
O 	O 	0.61141 0.20915 0.92695 -0.37500
O 	O 	0.85787 0.33456 0.84154 -0.36400
O 	O 	0.79712 0.19741 0.83868 -0.41500
Ni	Ni	0.71419 0.16348 0.87080 1.06600
H 	H 	0.60820 0.31468 0.83621 0.15400
H 	H 	0.76340 0.29465 0.89756 0.15600
C 	C 	0.77245 0.45637 0.89989 0.27400
O 	O 	0.63166 0.14840 0.83888 -0.41300
C 	C 	0.52619 0.37287 0.90336 0.29900
C 	C 	0.77315 0.50370 0.81705 0.27800
C 	C 	0.56166 0.14539 0.84497 0.28300
C 	C 	0.86116 0.26133 0.84149 0.27100
C 	C 	0.62525 0.14094 0.92671 0.28800
O 	O 	0.80663 0.44410 0.87616 -0.36700
O 	O 	0.74698 0.52131 0.84168 -0.40600
Ni	Ni	0.59334 0.35747 0.62614 1.10000
O 	O 	0.69803 0.38234 0.60637 -0.69400
Ni	Ni	0.75494 0.33760 0.63490 1.10300
O 	O 	0.55331 0.40880 0.59245 -0.35900
O 	O 	0.65812 0.52516 0.59772 -0.40400
O 	O 	0.56029 0.25212 0.60216 -0.38000
Ni	Ni	0.75736 0.49671 0.60179 1.08000
O 	O 	0.52149 0.27802 0.68768 -0.42200
O 	O 	0.75733 0.51682 0.64532 -0.42100
O 	O 	0.84935 0.35356 0.61011 -0.36200
O 	O 	0.65788 0.32986 0.65733 -0.69700
O 	O 	0.48525 0.32268 0.64472 -0.36700
O 	O 	0.78917 0.26614 0.66279 -0.36700
O 	O 	0.66941 0.16758 0.65984 -0.41300
Ni	Ni	0.59683 0.22627 0.67407 1.06800
H 	H 	0.69223 0.35337 0.58741 0.16900
H 	H 	0.67084 0.37217 0.67283 0.15600
C 	C 	0.81028 0.50521 0.66194 0.29300
O 	O 	0.52100 0.17054 0.64094 -0.40200
C 	C 	0.59824 0.47848 0.58216 0.28500
C 	C 	0.87689 0.42084 0.59525 0.29000
C 	C 	0.54015 0.18036 0.61362 0.29900
C 	C 	0.74248 0.19244 0.66835 0.27000
C 	C 	0.46757 0.28604 0.67006 0.29000
O 	O 	0.82222 0.43631 0.66014 -0.36700
O 	O 	0.86437 0.48671 0.60386 -0.39500
Ni	Ni	0.00907 0.93450 0.72682 1.09700
O 	O 	0.02253 0.87252 0.69099 -0.38100
O 	O 	0.92424 0.83306 0.74214 -0.37700
O 	O 	0.85505 0.94670 0.74732 -0.40500
O 	O 	0.92376 0.95946 0.70532 -0.36700
O 	O 	0.99975 0.02680 0.81930 -0.39300
Ni	Ni	0.93236 0.98358 0.78177 1.06300
O 	O 	0.93356 0.87089 0.79004 -0.41400
C 	C 	0.91775 0.81415 0.76972 0.28500
C 	C 	0.87136 0.97565 0.72077 0.26200
Ni	Ni	0.93078 0.09755 0.22847 1.10800
O 	O 	0.87196 0.13443 0.26025 -0.69700
Ni	Ni	0.84864 0.03806 0.28591 1.10200
O 	O 	0.90412 0.15908 0.19528 -0.37200
O 	O 	0.83428 0.22843 0.21559 -0.39800
Ni	Ni	0.77445 0.13835 0.24474 1.06900
O 	O 	0.77053 0.03954 0.22049 -0.41100
O 	O 	0.76709 0.05766 0.31136 -0.38200
O 	O 	0.92622 0.01788 0.25890 -0.69200
O 	O 	0.85626 0.94822 0.31247 -0.36600
H 	H 	0.90278 0.18512 0.27075 0.16100
H 	H 	0.90689 0.96223 0.25054 0.15000
C 	C 	0.74700 0.96678 0.23205 0.25100
C 	C 	0.89398 0.22731 0.20048 0.29800
C 	C 	0.70142 0.05839 0.29991 0.27700
C 	C 	0.92581 0.95385 0.32204 0.26300
O 	O 	0.76199 0.95703 0.25997 -0.37100
O 	O 	0.69363 0.06331 0.27145 -0.40400
C 	C 	0.96449 0.37726 0.20284 0.00900
H 	H 	0.93043 0.38202 0.22123 0.03300
C 	C 	0.55710 0.79829 0.21781 -0.00700
C 	C 	0.54760 0.80563 0.18779 -0.06900
C 	C 	0.61071 0.85332 0.17164 -0.00300
C 	C 	0.67983 0.90057 0.18591 -0.01900
C 	C 	0.68617 0.90029 0.21640 -0.05500
C 	C 	0.62627 0.84496 0.23205 -0.01700
H 	H 	0.50940 0.75979 0.23035 0.03500
H 	H 	0.60449 0.85803 0.14832 0.04800
H 	H 	0.72664 0.94083 0.17344 0.04500
H 	H 	0.63101 0.84231 0.25551 0.05100
C 	C 	0.55218 0.93138 0.35162 0.00600
C 	C 	0.48548 0.94477 0.34169 -0.08600
C 	C 	0.49227 0.00414 0.32091 0.01500
C 	C 	0.56430 0.04582 0.30874 -0.02400
C 	C 	0.63021 0.02846 0.31725 -0.04100
C 	C 	0.62414 0.97309 0.33956 -0.02900
H 	H 	0.54792 0.88698 0.36815 0.05000
H 	H 	0.44144 0.01580 0.31333 0.03500
H 	H 	0.56828 0.08942 0.29195 0.03400
H 	H 	0.67432 0.95945 0.34661 0.05600
H 	H 	0.92177 0.82628 0.28784 0.02000
C 	C 	0.41707 0.01047 0.56509 -0.03300
C 	C 	0.47236 0.00683 0.54490 0.04000
C 	C 	0.55141 0.04647 0.55138 -0.06400
C 	C 	0.57508 0.09789 0.57584 0.03000
C 	C 	0.51910 0.10952 0.59400 -0.08600
C 	C 	0.44075 0.06173 0.58961 0.01600
C 	C 	0.44792 0.97566 0.51501 -0.00400
C 	C 	0.44097 0.02899 0.49378 -0.04100
C 	C 	0.43104 0.89357 0.50766 -0.03300
C 	C 	0.44047 0.83824 0.52894 0.08600
C 	C 	0.65675 0.14054 0.58169 0.05800
N 	N 	0.44803 0.79391 0.54598 -0.11500
N 	N 	0.72214 0.17473 0.58639 -0.12400
H 	H 	0.39780 0.06843 0.60420 0.04100
H 	H 	0.59418 0.04115 0.53642 0.06200
H 	H 	0.45543 0.09250 0.49936 0.05500
C 	C 	0.91788 0.39105 0.51727 -0.05100
C 	C 	0.98848 0.45588 0.51387 0.05700
C 	C 	0.02784 0.50079 0.53838 -0.10000
C 	C 	0.99511 0.48485 0.56590 0.06400
C 	C 	0.92214 0.42333 0.56903 -0.09500
C 	C 	0.88595 0.37411 0.54492 0.02400
C 	C 	0.03660 0.53197 0.59086 0.05800
N 	N 	0.06974 0.56971 0.61086 -0.10700
H 	H 	0.83028 0.32606 0.54734 0.03500
H 	H 	0.08332 0.54907 0.53590 0.06500
C 	C 	0.57093 0.59515 0.46779 0.02100
C 	C 	0.57574 0.56080 0.49661 0.02400
C 	C 	0.64308 0.54686 0.50484 -0.06100
C 	C 	0.64905 0.51492 0.53205 0.02900
C 	C 	0.58798 0.49945 0.55185 -0.09200
C 	C 	0.51953 0.51097 0.54326 0.02000
C 	C 	0.51296 0.54131 0.51572 -0.04300
C 	C 	0.71686 0.49555 0.53903 0.01600
N 	N 	0.77142 0.48017 0.54434 -0.16000
H 	H 	0.59589 0.71616 0.48482 0.05400
H 	H 	0.69063 0.56022 0.48989 0.05600
H 	H 	0.47214 0.49814 0.55825 0.04300
C 	C 	0.83628 0.09827 0.72326 -0.01200
C 	C 	0.83149 0.02664 0.70858 -0.06700
C 	C 	0.79614 0.00898 0.68081 0.01400
C 	C 	0.76644 0.06298 0.66772 -0.01600
C 	C 	0.77334 0.13570 0.68207 -0.06400
C 	C 	0.80800 0.15300 0.70993 -0.01700
H 	H 	0.86416 0.11272 0.74461 0.01000
H 	H 	0.79245 0.95392 0.66928 0.03300
H 	H 	0.73925 0.04898 0.64626 0.05100
H 	H 	0.81288 0.20872 0.72126 0.03100
C 	C 	0.94702 0.58442 0.67763 0.01800
C 	C 	0.86822 0.57580 0.67676 -0.08100
C 	C 	0.84732 0.64202 0.68432 0.00000
C 	C 	0.90403 0.71799 0.68907 -0.02300
C 	C 	0.98296 0.72781 0.68902 -0.03800
C 	C 	0.00419 0.66009 0.68402 -0.04400
H 	H 	0.96422 0.53376 0.67195 0.05200
H 	H 	0.78681 0.63583 0.68443 0.03700
H 	H 	0.88643 0.76968 0.69196 0.05800
H 	H 	0.06471 0.66644 0.68399 0.05000
C 	C 	0.91486 0.46076 0.03324 -0.05100
C 	C 	0.93890 0.51437 0.00996 0.03900
C 	C 	0.89523 0.49790 0.98203 0.01800
C 	C 	0.83992 0.53364 0.97679 -0.05800
C 	C 	0.80085 0.52280 0.94986 0.02400
C 	C 	0.81600 0.47361 0.92797 -0.08500
C 	C 	0.87208 0.43848 0.93331 0.00500
C 	C 	0.91153 0.45026 0.96017 -0.04400
C 	C 	0.74810 0.56524 0.94455 0.07600
C 	C 	0.96872 0.41320 0.96518 0.09800
C 	C 	0.84502 0.39009 0.03062 0.09700
N 	N 	0.70582 0.59919 0.94038 -0.11500
N 	N 	0.78902 0.33357 0.02844 -0.11200
H 	H 	0.82827 0.57112 0.99359 0.05700
H 	H 	0.88456 0.40135 0.91660 0.03000
C 	C 	0.61950 0.09108 0.00633 -0.05900
C 	C 	0.55802 0.01595 0.00655 0.07200
C 	C 	0.52514 0.97735 0.98015 -0.11000
C 	C 	0.55036 0.01477 0.95361 0.07100
C 	C 	0.60913 0.09229 0.95340 -0.09700
C 	C 	0.64466 0.12884 0.97983 0.02500
C 	C 	0.60793 0.89395 0.03324 0.08300
C 	C 	0.65655 0.13009 0.03323 0.10700
C 	C 	0.51448 0.97377 0.92684 0.05400
N 	N 	0.65576 0.87558 0.02266 -0.11400
N 	N 	0.48570 0.94059 0.90545 -0.11200
N 	N 	0.68608 0.16112 0.05483 -0.10900
H 	H 	0.69036 0.18789 0.97979 0.03400
C 	C 	0.53433 0.41623 0.98387 -0.04000
C 	C 	0.47730 0.45154 0.98659 0.02400
C 	C 	0.44135 0.46794 0.96153 -0.05800
C 	C 	0.45817 0.44474 0.93396 0.03100
C 	C 	0.51349 0.40700 0.93135 -0.09000
C 	C 	0.55287 0.39539 0.95630 0.02000
C 	C 	0.50510 0.53284 0.03278 -0.05900
C 	C 	0.54017 0.61124 0.07853 0.08500
C 	C 	0.57260 0.39915 0.00929 0.09300
C 	C 	0.41623 0.45698 0.90872 0.07600
N 	N 	0.58613 0.65785 0.09347 -0.10400
N 	N 	0.38258 0.46680 0.88852 -0.11100
N 	N 	0.60330 0.38549 0.02964 -0.11000
H 	H 	0.59672 0.36809 0.95426 0.03100
H 	H 	0.39855 0.49657 0.96360 0.05400
H 	H 	0.56291 0.56547 0.02513 0.05800
C 	C 	0.96779 0.22118 0.86100 0.00400
C 	C 	0.93590 0.25078 0.83782 -0.07900
C 	C 	0.96457 0.25037 0.80979 0.01100
C 	C 	0.01651 0.21057 0.80436 -0.04900
C 	C 	0.03873 0.16973 0.82684 -0.05900
C 	C 	0.01928 0.18097 0.85553 -0.03200
H 	H 	0.94761 0.22306 0.88289 0.02000
H 	H 	0.94161 0.27457 0.79178 0.03300
H 	H 	0.03264 0.20407 0.78218 0.02500
H 	H 	0.53806 0.15607 0.78700 0.02300
C 	C 	0.78695 0.59550 0.77535 -0.01900
C 	C 	0.82053 0.57157 0.79950 -0.06100
C 	C 	0.89198 0.62389 0.81102 -0.00800
C 	C 	0.92544 0.70221 0.80048 -0.01000
C 	C 	0.88861 0.72841 0.77791 -0.07300
C 	C 	0.82113 0.67357 0.76447 -0.00700
H 	H 	0.73211 0.55551 0.76613 0.02400
H 	H 	0.91886 0.60576 0.82947 0.04900
H 	H 	0.97869 0.74329 0.81049 0.03100
H 	H 	0.79301 0.69262 0.74661 0.03900
