data_crystal

_cell_length_a 20.32849
_cell_length_b 21.41253
_cell_length_c 41.56554
_cell_angle_alpha 60.63796
_cell_angle_beta  119.08195
_cell_angle_gamma 133.28358

_symmetry_space_group_name_	'P 1'
_symmetry_space_group_name_H-M	'P 1'

loop_
_symmetry_equiv_pos_as_xyz
  x,y,z

loop_
_atom_site_label
_atom_site_type_symbol
_atom_site_fract_x
_atom_site_fract_y
_atom_site_fract_z
_atom_site_charge
C 	C 	0.70974 0.27253 0.02765 0.06400
C 	C 	0.77863 0.35230 0.03989 -0.06700
C 	C 	0.75288 0.40120 0.03797 0.06200
C 	C 	0.65915 0.36743 0.02665 -0.06900
C 	C 	0.59087 0.28694 0.01647 0.06500
C 	C 	0.61632 0.24286 0.01437 -0.07600
H 	H 	0.85057 0.37533 0.05108 0.07600
H 	H 	0.63904 0.40296 0.02678 0.07700
H 	H 	0.56280 0.18228 0.00477 0.06500
C 	C 	0.71909 0.30901 0.49737 0.06100
C 	C 	0.62447 0.24686 0.49798 -0.07100
C 	C 	0.57928 0.27046 0.50156 0.06400
C 	C 	0.62476 0.35814 0.49991 -0.07300
C 	C 	0.71886 0.42039 0.49989 0.06800
C 	C 	0.76584 0.39684 0.49745 -0.06900
H 	H 	0.58872 0.17858 0.49914 0.07500
H 	H 	0.58937 0.37585 0.50280 0.07800
H 	H 	0.83967 0.44441 0.49851 0.07700
C 	C 	0.30175 0.67581 0.13583 0.06500
C 	C 	0.39517 0.70731 0.14613 -0.06800
C 	C 	0.41709 0.65718 0.14677 0.06600
C 	C 	0.34626 0.57269 0.14053 -0.07100
C 	C 	0.25360 0.54226 0.12854 0.06600
C 	C 	0.23066 0.59329 0.12645 -0.06500
H 	H 	0.45050 0.77282 0.15130 0.08200
H 	H 	0.36362 0.53311 0.14216 0.07600
H 	H 	0.15877 0.57027 0.11667 0.08100
C 	C 	0.28966 0.63445 0.66709 0.06400
C 	C 	0.38653 0.67799 0.67940 -0.07000
C 	C 	0.42647 0.64657 0.67782 0.06800
C 	C 	0.37015 0.56278 0.67184 -0.07000
C 	C 	0.27384 0.51745 0.65971 0.06600
C 	C 	0.23271 0.55357 0.65684 -0.07200
H 	H 	0.43117 0.74068 0.68663 0.08400
H 	H 	0.40194 0.53743 0.67214 0.08000
H 	H 	0.15831 0.52061 0.64601 0.08100
Co	Co	0.03787 0.88197 0.09666 1.19700
Co	Co	0.97468 0.07042 0.06578 1.17000
Co	Co	0.96916 0.92777 0.13536 1.19000
Co	Co	0.04036 0.02242 0.02685 1.16500
C 	C 	0.96584 0.73486 0.06950 0.29400
Co	Co	0.10245 0.91426 0.02886 1.18200
Co	Co	0.90212 0.03090 0.13331 1.15100
C 	C 	0.20885 0.11027 0.00321 0.31900
O 	O 	0.02483 0.07020 0.17370 -0.37000
O 	O 	0.95685 0.01157 0.11026 -0.78700
C 	C 	0.03761 0.01012 0.19969 0.20200
O 	O 	0.99842 0.84667 0.14289 -0.44800
O 	O 	0.00835 0.10176 0.01865 -0.44700
C 	C 	0.03817 0.21307 0.09394 0.34300
O 	O 	0.03306 0.99374 0.08592 -0.53800
C 	C 	0.79344 0.83533 0.15318 0.32500
C 	C 	0.21649 0.90928 0.10590 0.30700
C 	C 	0.96064 0.92965 0.96490 0.30900
O 	O 	0.03302 0.95568 0.18996 -0.29000
O 	O 	0.22040 0.96088 0.07144 -0.37400
O 	O 	0.16046 0.88678 0.12362 -0.33500
O 	O 	0.95450 0.15874 0.09972 -0.42700
O 	O 	0.06395 0.19127 0.07964 -0.36500
O 	O 	0.84220 0.90263 0.16740 -0.37800
O 	O 	0.82886 0.83559 0.13364 -0.38600
O 	O 	0.97736 0.87161 0.98996 -0.38800
O 	O 	0.95768 0.97699 0.97588 -0.34400
O 	O 	0.05898 0.94293 0.05294 -0.73200
C 	C 	0.79402 0.03899 0.05535 0.25400
O 	O 	0.78617 0.98796 0.08971 -0.32600
O 	O 	0.84470 0.05147 0.03837 -0.37400
O 	O 	0.04907 0.78676 0.06355 -0.37300
O 	O 	0.93955 0.76463 0.07895 -0.37600
O 	O 	0.15865 0.03897 0.99161 -0.40200
O 	O 	0.17416 0.11883 0.01929 -0.38600
Co	Co	0.99251 0.84672 0.59651 1.18300
Co	Co	0.00645 0.08391 0.57109 1.19400
Co	Co	0.94647 0.91828 0.63277 1.19200
Co	Co	0.07164 0.01955 0.54064 1.17400
C 	C 	0.89167 0.72494 0.54365 0.30500
Co	Co	0.08682 0.87532 0.54217 1.18100
Co	Co	0.92074 0.05654 0.62935 1.15800
C 	C 	0.25297 0.05089 0.55482 0.25700
O 	O 	0.02705 0.06669 0.67635 -0.42300
O 	O 	0.95740 0.01499 0.60871 -0.78800
C 	C 	0.02099 0.99483 0.69971 0.36300
O 	O 	0.94539 0.81684 0.63902 -0.44500
O 	O 	0.07053 0.12038 0.53340 -0.43700
C 	C 	0.09355 0.22356 0.60678 0.32500
O 	O 	0.97705 0.95575 0.57775 -0.56000
C 	C 	0.77574 0.86109 0.64391 0.33000
C 	C 	0.11225 0.78869 0.62401 0.32400
C 	C 	0.04698 0.98942 0.47008 0.35000
O 	O 	0.01609 0.94311 0.68800 -0.35500
O 	O 	0.07336 0.77359 0.59051 -0.38200
O 	O 	0.10260 0.83535 0.63122 -0.36000
O 	O 	0.00746 0.18727 0.60333 -0.39200
O 	O 	0.11357 0.18612 0.59887 -0.37700
O 	O 	0.83187 0.92939 0.65833 -0.38700
O 	O 	0.80655 0.84575 0.62909 -0.36600
O 	O 	0.10772 0.97235 0.49213 -0.37900
O 	O 	0.01937 0.01110 0.48360 -0.39200
O 	O 	0.04157 0.91498 0.55933 -0.73000
C 	C 	0.84781 0.10099 0.54751 0.31400
O 	O 	0.82129 0.04209 0.57899 -0.38500
O 	O 	0.90726 0.11258 0.53588 -0.35800
O 	O 	0.94789 0.79132 0.52068 -0.39300
O 	O 	0.89023 0.73633 0.57235 -0.35200
O 	O 	0.22044 0.96676 0.56664 -0.34400
O 	O 	0.21403 0.07765 0.55802 -0.37100
C 	C 	0.99676 0.95744 0.80140 -0.00000
C 	C 	0.91548 0.88616 0.81488 -0.01400
C 	C 	0.90160 0.88757 0.84455 -0.03500
C 	C 	0.96831 0.96075 0.86074 0.04200
C 	C 	0.04916 0.03226 0.84702 -0.05700
C 	C 	0.06325 0.03068 0.81751 -0.03300
C 	C 	0.00649 0.96108 0.76771 0.09900
C 	C 	0.01417 0.97077 0.73795 -0.09000
C 	C 	0.96045 0.95653 0.89508 0.05500
C 	C 	0.95740 0.94855 0.92557 -0.06700
H 	H 	0.86274 0.82994 0.80231 0.05700
H 	H 	0.83955 0.83128 0.85518 0.06700
H 	H 	0.10167 0.08871 0.85943 0.07500
H 	H 	0.12545 0.08689 0.80697 0.05800
C 	C 	0.03315 0.99062 0.30224 0.12600
C 	C 	0.09613 0.06944 0.31422 -0.11500
C 	C 	0.08680 0.07409 0.34425 0.00800
C 	C 	0.01413 0.00012 0.36261 -0.02200
C 	C 	0.95051 0.92145 0.35040 0.02800
C 	C 	0.95966 0.91690 0.32022 -0.09300
C 	C 	0.03753 0.98933 0.26843 0.01000
C 	C 	0.03974 0.99408 0.23845 0.02000
C 	C 	0.01525 0.00002 0.39814 -0.00300
C 	C 	0.02355 0.99773 0.42973 0.00100
H 	H 	0.15212 0.12737 0.30019 0.07400
H 	H 	0.13737 0.13471 0.35371 0.05300
H 	H 	0.89505 0.86331 0.36466 0.05100
H 	H 	0.90952 0.85614 0.31089 0.08400
C 	C 	0.19161 0.44604 0.60682 -0.06500
C 	C 	0.21895 0.43764 0.64607 0.00500
C 	C 	0.22100 0.36436 0.67137 0.06100
C 	C 	0.19971 0.30327 0.65719 -0.00900
C 	C 	0.16545 0.30783 0.61815 -0.08900
C 	C 	0.16680 0.38279 0.59276 0.12300
N 	N 	0.13626 0.39142 0.55259 -0.02500
H 	H 	0.19358 0.50386 0.58710 0.08500
H 	H 	0.19956 0.24635 0.67694 0.06500
N 	N 	0.24615 0.35257 0.71161 -0.01800
O 	O 	0.07812 0.41219 0.53178 -0.07400
O 	O 	0.16632 0.37817 0.53682 -0.07700
O 	O 	0.20649 0.35681 0.72663 -0.08900
O 	O 	0.30623 0.33445 0.73338 -0.09000
C 	C 	0.53349 0.76666 0.63541 -0.07000
C 	C 	0.52051 0.70878 0.67146 0.00600
C 	C 	0.58914 0.69475 0.69691 0.06000
C 	C 	0.66852 0.73690 0.68564 0.00000
C 	C 	0.68157 0.79520 0.64967 -0.09400
C 	C 	0.61215 0.80783 0.62403 0.12600
N 	N 	0.62216 0.86377 0.58646 -0.02600
H 	H 	0.47945 0.77533 0.61531 0.09400
H 	H 	0.72280 0.72854 0.70575 0.06200
N 	N 	0.57814 0.63739 0.73419 -0.01800
O 	O 	0.64088 0.85174 0.56503 -0.06500
O 	O 	0.60670 0.92292 0.57282 -0.06000
O 	O 	0.59184 0.57726 0.74709 -0.08600
O 	O 	0.55836 0.64777 0.75586 -0.08500
C 	C 	0.25985 0.81403 0.63794 -0.01100
C 	C 	0.17964 0.76727 0.64986 -0.07800
C 	C 	0.14660 0.68120 0.67405 0.12700
C 	C 	0.18174 0.63751 0.67915 -0.06000
C 	C 	0.25016 0.67957 0.66064 0.00400
C 	C 	0.28896 0.76884 0.63962 0.06500
N 	N 	0.35221 0.81148 0.61747 -0.02200
H 	H 	0.29028 0.88231 0.62177 0.07400
H 	H 	0.15590 0.57129 0.69743 0.08600
N 	N 	0.07554 0.63702 0.69251 -0.02200
O 	O 	0.32687 0.77774 0.59124 -0.09300
O 	O 	0.43147 0.88812 0.62106 -0.07600
O 	O 	0.01540 0.55131 0.69930 -0.06300
O 	O 	0.07369 0.68207 0.70418 -0.06800
C 	C 	0.10769 0.29995 0.13827 0.00100
C 	C 	0.10200 0.29904 0.10343 -0.10000
C 	C 	0.13736 0.37878 0.07516 0.13200
C 	C 	0.17479 0.45744 0.08157 -0.06700
C 	C 	0.18208 0.45835 0.11680 0.00700
C 	C 	0.14499 0.37830 0.14466 0.05800
N 	N 	0.14887 0.37707 0.18029 -0.01700
H 	H 	0.07910 0.23861 0.15991 0.05600
H 	H 	0.20503 0.51918 0.06028 0.09400
N 	N 	0.13937 0.38107 0.04065 -0.02600
O 	O 	0.11194 0.40722 0.18111 -0.09000
O 	O 	0.18426 0.34094 0.21194 -0.09900
O 	O 	0.09498 0.40604 0.00820 -0.06700
O 	O 	0.19441 0.36861 0.04140 -0.07700
C 	C 	0.62793 0.75168 0.11968 0.00000
C 	C 	0.69496 0.76801 0.15402 -0.09100
C 	C 	0.66784 0.73918 0.18692 0.12100
C 	C 	0.57774 0.70610 0.18395 -0.06800
C 	C 	0.51305 0.69718 0.14887 0.00300
C 	C 	0.53719 0.71675 0.11682 0.07000
N 	N 	0.46938 0.70026 0.08148 -0.01900
H 	H 	0.64788 0.77206 0.09446 0.07400
H 	H 	0.55763 0.68603 0.20907 0.08000
N 	N 	0.73286 0.74603 0.22321 -0.02300
O 	O 	0.42362 0.73424 0.06566 -0.06400
O 	O 	0.45639 0.65443 0.06429 -0.08400
O 	O 	0.74103 0.77846 0.24552 -0.09600
O 	O 	0.78238 0.71797 0.23432 -0.08800
C 	C 	0.30208 0.87691 0.09681 -0.01400
C 	C 	0.25514 0.85866 0.11977 -0.07800
C 	C 	0.23030 0.78251 0.15056 0.12500
C 	C 	0.24178 0.72079 0.15464 -0.06300
C 	C 	0.28014 0.73565 0.12899 0.00300
C 	C 	0.30863 0.81356 0.09950 0.06600
N 	N 	0.34060 0.82688 0.07114 -0.01900
H 	H 	0.32694 0.93769 0.07460 0.07400
H 	H 	0.22382 0.66303 0.17846 0.08800
N 	N 	0.20338 0.77242 0.17978 -0.02300
O 	O 	0.41613 0.90235 0.06146 -0.07100
O 	O 	0.28837 0.76798 0.05180 -0.07800
O 	O 	0.12870 0.69831 0.19075 -0.05900
O 	O 	0.25825 0.83397 0.19795 -0.06500
C 	C 	0.75424 0.23803 0.48091 -0.06700
C 	C 	0.77294 0.27683 0.50629 0.00400
C 	C 	0.82802 0.26801 0.54316 0.06300
C 	C 	0.85222 0.21102 0.55606 0.00200
C 	C 	0.83135 0.16947 0.53138 -0.08800
C 	C 	0.78393 0.18493 0.49322 0.12200
N 	N 	0.76118 0.14322 0.46747 -0.02400
H 	H 	0.71262 0.24520 0.45230 0.07600
H 	H 	0.88187 0.19472 0.58599 0.03900
N 	N 	0.85496 0.31293 0.56849 -0.02000
O 	O 	0.70521 0.05739 0.47365 -0.09000
O 	O 	0.78931 0.19119 0.43606 -0.08700
O 	O 	0.79709 0.28006 0.58706 -0.08800
O 	O 	0.94012 0.38184 0.57572 -0.10500
C 	C 	0.77331 0.62696 0.50004 -0.00600
C 	C 	0.82932 0.63654 0.53681 -0.08300
C 	C 	0.84949 0.57429 0.56118 0.11300
C 	C 	0.82186 0.50962 0.54731 -0.06800
C 	C 	0.77048 0.50342 0.50985 0.00100
C 	C 	0.74721 0.56346 0.48594 0.06000
N 	N 	0.69638 0.55962 0.44730 -0.01800
H 	H 	0.75723 0.67433 0.48116 0.07000
H 	H 	0.83635 0.46118 0.56634 0.09000
N 	N 	0.90062 0.57819 0.59975 -0.02300
O 	O 	0.62435 0.56071 0.43361 -0.08800
O 	O 	0.72435 0.55870 0.42536 -0.09400
O 	O 	0.87157 0.57699 0.62201 -0.08000
O 	O 	0.96881 0.57130 0.61386 -0.09700
C 	C 	0.41602 0.11199 0.56612 -0.01400
C 	C 	0.34048 0.11615 0.54271 -0.07700
C 	C 	0.34151 0.16582 0.50459 0.10500
C 	C 	0.41423 0.20455 0.48974 -0.06700
C 	C 	0.49089 0.20236 0.51339 -0.00400
C 	C 	0.49082 0.15441 0.55173 0.06300
N 	N 	0.56897 0.15260 0.57665 -0.01800
H 	H 	0.41539 0.07340 0.59536 0.06000
H 	H 	0.41510 0.24322 0.46052 0.07800
N 	N 	0.27017 0.17912 0.48112 -0.02600
O 	O 	0.62022 0.19155 0.60436 -0.08800
O 	O 	0.58131 0.10246 0.57479 -0.09700
O 	O 	0.25408 0.21424 0.49201 -0.09300
O 	O 	0.23327 0.17073 0.44642 -0.10400
C 	C 	0.81859 0.18638 0.02264 -0.01500
C 	C 	0.76112 0.09531 0.03940 -0.07000
C 	C 	0.68465 0.06317 0.05007 0.06700
C 	C 	0.67459 0.12236 0.04942 -0.05900
C 	C 	0.73201 0.21346 0.03308 -0.00600
C 	C 	0.80266 0.24506 0.01842 0.05900
N 	N 	0.85735 0.33586 0.99883 -0.01000
H 	H 	0.87712 0.21224 0.01388 0.06600
H 	H 	0.61968 0.09682 0.06054 0.06600
N 	N 	0.61808 0.96993 0.06258 0.00100
O 	O 	0.94499 0.38793 0.01407 -0.10100
O 	O 	0.81960 0.36649 0.96572 -0.07700
O 	O 	0.57591 0.91802 0.04108 -0.05700
O 	O 	0.60231 0.93653 0.09604 -0.08200
C 	C 	0.86769 0.64001 0.02475 -0.01500
C 	C 	0.90047 0.64570 0.06240 -0.07900
C 	C 	0.89461 0.57238 0.09234 0.11200
C 	C 	0.85556 0.49480 0.08415 -0.06700
C 	C 	0.82300 0.48959 0.04640 0.00200
C 	C 	0.83342 0.56452 0.01668 0.05600
N 	N 	0.80602 0.56292 0.97798 -0.01400
H 	H 	0.87430 0.69665 0.00160 0.06400
H 	H 	0.84645 0.43714 0.10718 0.07900
N 	N 	0.92944 0.57670 0.13111 -0.02500
O 	O 	0.75522 0.59018 0.95223 -0.08700
O 	O 	0.83450 0.53702 0.96827 -0.07800
O 	O 	0.90424 0.60211 0.14297 -0.08200
O 	O 	0.97910 0.54724 0.15531 -0.09200
C 	C 	0.43169 0.23927 0.97676 -0.06100
C 	C 	0.49280 0.24369 0.01274 -0.01100
C 	C 	0.46247 0.21461 0.04467 0.05700
C 	C 	0.37162 0.18168 0.04025 -0.00300
C 	C 	0.30862 0.17185 0.00472 -0.10700
C 	C 	0.33970 0.20358 0.97252 0.12700
N 	N 	0.27751 0.19842 0.93559 -0.02400
H 	H 	0.45579 0.26425 0.95201 0.08100
H 	H 	0.34792 0.15708 0.06506 0.05900
N 	N 	0.52313 0.21602 0.08184 -0.01800
O 	O 	0.22802 0.22705 0.92352 -0.08200
O 	O 	0.27362 0.16896 0.91334 -0.10200
O 	O 	0.53941 0.25698 0.10262 -0.09600
O 	O 	0.55716 0.17154 0.09585 -0.10900
