data_crystal

_cell_length_a 18.18767
_cell_length_b 19.64236
_cell_length_c 26.63617
_cell_angle_alpha 95.41758
_cell_angle_beta  95.41905
_cell_angle_gamma 126.42404

_symmetry_space_group_name_	'P 1'
_symmetry_space_group_name_H-M	'P 1'

loop_
_symmetry_equiv_pos_as_xyz
  x,y,z

loop_
_atom_site_label
_atom_site_type_symbol
_atom_site_fract_x
_atom_site_fract_y
_atom_site_fract_z
_atom_site_charge
C 	C 	0.94294 0.03428 0.98402 -0.08600
C 	C 	0.89090 0.94478 0.97965 0.12700
C 	C 	0.93570 0.90639 0.98000 -0.05500
C 	C 	0.03165 0.95658 0.98150 0.17600
C 	C 	0.08313 0.04507 0.98205 -0.05400
C 	C 	0.03896 0.08428 0.98415 0.11400
H 	H 	0.81605 0.90530 0.97672 0.09900
H 	H 	0.06628 0.92683 0.98250 0.11200
H 	H 	0.07906 0.15322 0.98599 0.08700
C 	C 	0.91506 0.00059 0.48016 -0.11100
C 	C 	0.00734 0.05191 0.47232 0.13100
C 	C 	0.05334 0.01538 0.46466 -0.06300
C 	C 	0.00552 0.92679 0.46255 0.18100
C 	C 	0.91401 0.87555 0.47117 -0.06500
C 	C 	0.86842 0.91228 0.47934 0.13400
H 	H 	0.04368 0.12017 0.47301 0.10100
H 	H 	0.04069 0.89839 0.45615 0.11300
H 	H 	0.79716 0.87244 0.48533 0.09000
Cu	Cu	0.65650 0.25635 0.00639 0.94400
Cu	Cu	0.68082 0.20632 0.89075 0.97100
Cu	Cu	0.68452 0.37385 0.93019 0.92900
Cu	Cu	0.65064 0.41335 0.03484 0.94200
C 	C 	0.67161 0.32017 0.11181 0.31100
O 	O 	0.52011 0.19449 0.01116 -0.26000
C 	C 	0.68985 0.32058 0.82933 0.29400
O 	O 	0.71996 0.38628 0.00235 -0.62400
O 	O 	0.62734 0.24950 0.93117 -0.61200
O 	O 	0.73523 0.21534 0.00889 -0.28000
O 	O 	0.66225 0.12592 0.93120 -0.31000
O 	O 	0.67220 0.38571 0.10261 -0.29000
O 	O 	0.74744 0.49552 0.93317 -0.29200
C 	C 	0.73930 0.54245 0.96762 0.30200
C 	C 	0.47783 0.22843 0.99985 0.28900
O 	O 	0.52379 0.30362 0.98625 -0.31500
O 	O 	0.67688 0.50645 0.99736 -0.31000
O 	O 	0.69667 0.28545 0.07948 -0.28700
C 	C 	0.72075 0.15406 0.97438 0.29000
O 	O 	0.66036 0.35672 0.85587 -0.27600
O 	O 	0.73807 0.29964 0.85331 -0.29800
H 	H 	0.78796 0.42744 0.01516 0.20600
H 	H 	0.55942 0.21312 0.91829 0.21000
Cu	Cu	0.62109 0.21596 0.50601 0.94200
Cu	Cu	0.70052 0.21118 0.40118 0.94400
Cu	Cu	0.67151 0.34204 0.43175 0.91600
Cu	Cu	0.62212 0.37628 0.53009 0.94700
C 	C 	0.65050 0.29430 0.61043 0.30600
O 	O 	0.48463 0.16448 0.50302 -0.28400
C 	C 	0.66503 0.28254 0.32368 0.29200
O 	O 	0.69642 0.34875 0.50439 -0.63400
O 	O 	0.61064 0.21677 0.43117 -0.61800
O 	O 	0.67284 0.14983 0.50981 -0.28700
O 	O 	0.77882 0.23078 0.46141 -0.35800
O 	O 	0.60867 0.32637 0.59337 -0.24900
O 	O 	0.73861 0.46562 0.43715 -0.27700
C 	C 	0.72972 0.51471 0.46945 0.30400
C 	C 	0.44825 0.19871 0.48209 0.29300
O 	O 	0.50279 0.27643 0.47208 -0.31700
O 	O 	0.67151 0.48299 0.50184 -0.28600
O 	O 	0.65147 0.23801 0.57965 -0.30200
C 	C 	0.74617 0.17208 0.49017 0.31200
O 	O 	0.66066 0.33467 0.35644 -0.27000
O 	O 	0.65072 0.21276 0.33587 -0.32100
H 	H 	0.76315 0.38807 0.52058 0.22400
H 	H 	0.54666 0.17782 0.41073 0.21600
C 	C 	0.73612 0.38715 0.75250 0.07500
C 	C 	0.67898 0.31316 0.77322 0.03500
C 	C 	0.61628 0.23177 0.74034 -0.07200
C 	C 	0.61375 0.22612 0.68709 0.07800
C 	C 	0.66958 0.30033 0.66628 0.03600
C 	C 	0.73452 0.38124 0.69930 -0.07200
C 	C 	0.80005 0.46169 0.67787 0.78200
H 	H 	0.78284 0.44924 0.77802 0.13100
H 	H 	0.56590 0.16429 0.66147 0.12700
C 	C 	0.55355 0.15078 0.76202 0.77800
F 	F 	0.87360 0.52729 0.71567 -0.37600
F 	F 	0.75208 0.48999 0.65739 -0.40100
F 	F 	0.83684 0.44445 0.63993 -0.42600
F 	F 	0.50841 0.16352 0.79635 -0.42200
F 	F 	0.60649 0.13055 0.78702 -0.43800
F 	F 	0.48628 0.08120 0.72381 -0.37600
C 	C 	0.74205 0.37796 0.20434 0.07100
C 	C 	0.67491 0.30710 0.16548 0.03500
C 	C 	0.60789 0.22663 0.17880 -0.06400
C 	C 	0.60128 0.22253 0.23078 0.06800
C 	C 	0.66830 0.29338 0.26964 0.03600
C 	C 	0.74316 0.37017 0.25632 -0.07200
C 	C 	0.82419 0.44366 0.29708 0.78100
H 	H 	0.79392 0.43904 0.19391 0.11200
H 	H 	0.54522 0.16346 0.24128 0.12000
C 	C 	0.54577 0.14482 0.13829 0.78400
F 	F 	0.89833 0.50312 0.27545 -0.39000
F 	F 	0.85561 0.41270 0.33065 -0.42800
F 	F 	0.79622 0.48549 0.32414 -0.37800
F 	F 	0.59929 0.13415 0.10997 -0.41100
F 	F 	0.48533 0.14915 0.10598 -0.39200
F 	F 	0.49329 0.07248 0.16010 -0.38700
C 	C 	0.79340 0.72179 0.43070 0.00400
C 	C 	0.86568 0.78297 0.47164 0.13200
C 	C 	0.89293 0.75545 0.51180 -0.12100
C 	C 	0.85417 0.66785 0.50701 0.08500
C 	C 	0.78046 0.60644 0.46681 0.01500
C 	C 	0.74758 0.63315 0.42897 -0.04000
C 	C 	0.66181 0.56740 0.38807 0.77300
H 	H 	0.77255 0.74352 0.40047 0.13200
H 	H 	0.87876 0.64670 0.53577 0.10800
C 	C 	0.96402 0.81897 0.55939 0.75700
F 	F 	0.63943 0.60632 0.35578 -0.37200
F 	F 	0.58645 0.51535 0.41111 -0.39100
F 	F 	0.67721 0.51688 0.35849 -0.37100
F 	F 	0.94857 0.87767 0.57593 -0.36700
F 	F 	0.05260 0.86257 0.54849 -0.34900
F 	F 	0.95892 0.77712 0.59947 -0.36400
C 	C 	0.84029 0.13319 0.53309 0.10000
C 	C 	0.77766 0.11793 0.49038 -0.02200
C 	C 	0.75235 0.05651 0.44636 -0.02500
C 	C 	0.79983 0.02056 0.44355 -0.08500
C 	C 	0.86477 0.03795 0.48555 0.15800
C 	C 	0.88136 0.09082 0.53194 -0.14700
C 	C 	0.94539 0.10496 0.57945 0.76600
H 	H 	0.85860 0.17957 0.56677 0.09800
H 	H 	0.78697 0.97948 0.40837 0.18200
C 	C 	0.67986 0.03352 0.40074 0.71700
F 	F 	0.93592 0.14179 0.62285 -0.38600
F 	F 	0.03679 0.15918 0.57311 -0.36500
F 	F 	0.92474 0.02733 0.58776 -0.39500
F 	F 	0.72075 0.09527 0.37031 -0.46700
F 	F 	0.60673 0.02846 0.41657 -0.44700
F 	F 	0.64320 0.95432 0.37134 -0.33500
C 	C 	0.21340 0.11571 0.51535 0.00300
C 	C 	0.15513 0.07157 0.46722 0.13800
C 	C 	0.19402 0.07446 0.42309 -0.12900
C 	C 	0.28980 0.11367 0.42910 0.08900
C 	C 	0.34774 0.15584 0.47753 0.00300
C 	C 	0.30996 0.16000 0.52087 -0.04400
C 	C 	0.37242 0.21237 0.57274 0.77700
H 	H 	0.18282 0.11375 0.54870 0.15600
H 	H 	0.31948 0.11157 0.39610 0.09400
C 	C 	0.13338 0.03329 0.36995 0.75900
F 	F 	0.32290 0.21243 0.60914 -0.36400
F 	F 	0.43861 0.29687 0.56819 -0.42500
F 	F 	0.41592 0.17824 0.59022 -0.40600
F 	F 	0.07143 0.05241 0.36416 -0.39100
F 	F 	0.08429 0.94495 0.36293 -0.34500
F 	F 	0.18638 0.06313 0.33203 -0.37700
C 	C 	0.84576 0.69138 0.01586 0.10100
C 	C 	0.79205 0.63534 0.96890 -0.01400
C 	C 	0.78120 0.66800 0.92586 -0.03900
C 	C 	0.82966 0.75737 0.93033 0.00300
C 	C 	0.88171 0.81292 0.97766 0.12000
C 	C 	0.88645 0.77931 0.02151 -0.11100
C 	C 	0.93796 0.83736 0.07394 0.75700
H 	H 	0.85396 0.66571 0.04841 0.08800
H 	H 	0.82758 0.78417 0.89696 0.13600
C 	C 	0.72069 0.60852 0.87486 0.77400
F 	F 	0.91380 0.78992 0.11284 -0.37500
F 	F 	0.91668 0.89377 0.08300 -0.35300
F 	F 	0.03276 0.88382 0.07619 -0.34200
F 	F 	0.63428 0.53999 0.88217 -0.39000
F 	F 	0.76345 0.57764 0.85234 -0.39200
F 	F 	0.70654 0.65098 0.84122 -0.37100
C 	C 	0.79231 0.09781 0.02173 0.09700
C 	C 	0.78565 0.13206 0.97921 -0.00900
C 	C 	0.84246 0.14642 0.94222 -0.05900
C 	C 	0.89135 0.11177 0.94378 0.00000
C 	C 	0.89598 0.07523 0.98551 0.11100
C 	C 	0.85211 0.07462 0.02699 -0.12000
C 	C 	0.86606 0.04691 0.07607 0.75800
H 	H 	0.75101 0.08934 0.05076 0.11300
H 	H 	0.92607 0.11325 0.91250 0.11700
C 	C 	0.85147 0.19829 0.90119 0.76400
F 	F 	0.84830 0.08121 0.11671 -0.38300
F 	F 	0.95669 0.07508 0.08899 -0.39600
F 	F 	0.80584 0.95813 0.06964 -0.33800
F 	F 	0.85844 0.26976 0.92164 -0.47600
F 	F 	0.77487 0.14723 0.86187 -0.43600
F 	F 	0.93051 0.22754 0.88079 -0.39200
C 	C 	0.31659 0.11578 0.95389 0.08900
C 	C 	0.37701 0.17897 0.99746 0.00300
C 	C 	0.34140 0.20393 0.03404 -0.03000
C 	C 	0.24485 0.16037 0.02770 0.02100
C 	C 	0.18471 0.09766 0.98390 0.12000
C 	C 	0.22195 0.08041 0.94456 -0.12600
C 	C 	0.16191 0.02502 0.89265 0.75600
H 	H 	0.34443 0.09789 0.92573 0.09700
H 	H 	0.21608 0.17507 0.05686 0.14100
C 	C 	0.40628 0.28136 0.07724 0.77300
F 	F 	0.21549 0.04719 0.85485 -0.36900
F 	F 	0.09474 0.03588 0.87866 -0.39300
F 	F 	0.11917 0.93931 0.89453 -0.35000
F 	F 	0.45163 0.35595 0.05710 -0.41600
F 	F 	0.47135 0.27566 0.10307 -0.40500
F 	F 	0.35836 0.28713 0.11269 -0.37200
