data_crystal

_cell_length_a 15.24108
_cell_length_b 15.27801
_cell_length_c 40.26465
_cell_angle_alpha 95.40264
_cell_angle_beta  95.40050
_cell_angle_gamma 126.71720

_symmetry_space_group_name_	'P 1'
_symmetry_space_group_name_H-M	'P 1'

loop_
_symmetry_equiv_pos_as_xyz
  x,y,z

loop_
_atom_site_label
_atom_site_type_symbol
_atom_site_fract_x
_atom_site_fract_y
_atom_site_fract_z
_atom_site_charge
C 	C 	0.01899 0.98332 0.96495 0.03100
H 	H 	0.02930 0.13035 0.97635 0.04900
C 	C 	0.08450 0.98177 0.49695 -0.07600
C 	C 	0.09610 0.14345 0.48829 -0.07600
H 	H 	0.12314 0.94121 0.49918 0.04900
H 	H 	0.98296 0.82283 0.95386 0.05100
C 	C 	0.86490 0.98150 0.97733 0.02900
C 	C 	0.97621 0.04043 0.97317 -0.07300
C 	C 	0.14787 0.09314 0.49250 0.02900
H 	H 	0.14410 0.22842 0.48415 0.04700
Cu	Cu	0.72351 0.31344 0.95911 0.93000
Cu	Cu	0.74831 0.25392 0.03383 0.86500
Cu	Cu	0.56937 0.26973 0.00903 0.89400
Cu	Cu	0.50672 0.29164 0.93960 0.89300
C 	C 	0.62327 0.26084 0.88878 0.30900
O 	O 	0.77772 0.46775 0.95441 -0.37000
C 	C 	0.65870 0.31493 0.08202 0.28200
O 	O 	0.55391 0.21932 0.96181 -0.64200
O 	O 	0.73048 0.34572 0.00840 -0.64400
O 	O 	0.81395 0.25957 0.96116 -0.37900
O 	O 	0.71767 0.14538 0.99746 -0.44600
O 	O 	0.57138 0.30178 0.89771 -0.38700
O 	O 	0.41086 0.18490 0.00803 -0.39500
C 	C 	0.33632 0.16767 0.98310 0.31100
C 	C 	0.73517 0.51235 0.96828 0.30200
O 	O 	0.63294 0.44868 0.97414 -0.39500
O 	O 	0.36596 0.22388 0.95792 -0.39700
O 	O 	0.68950 0.25781 0.91141 -0.36500
C 	C 	0.78409 0.17413 0.97534 0.31200
O 	O 	0.58901 0.31065 0.05838 -0.38100
O 	O 	0.74782 0.32708 0.07498 -0.42200
H 	H 	0.50614 0.13756 0.95446 0.16300
H 	H 	0.77960 0.42534 0.01924 0.17100
Cu	Cu	0.65817 0.23431 0.51563 0.92800
Cu	Cu	0.69553 0.18775 0.43895 0.86500
Cu	Cu	0.68660 0.37240 0.46164 0.89500
Cu	Cu	0.68217 0.45505 0.53252 0.89200
C 	C 	0.70203 0.33540 0.58431 0.29100
O 	O 	0.50571 0.17675 0.52425 -0.37900
C 	C 	0.62303 0.26575 0.38992 0.30100
O 	O 	0.74584 0.39984 0.50881 -0.64100
O 	O 	0.61216 0.21433 0.46618 -0.64200
O 	O 	0.71853 0.14946 0.51480 -0.38000
O 	O 	0.81546 0.23089 0.47343 -0.44700
O 	O 	0.71405 0.42516 0.57784 -0.38400
O 	O 	0.77117 0.52818 0.45902 -0.38900
C 	C 	0.79068 0.60571 0.48311 0.30500
C 	C 	0.45605 0.21858 0.51414 0.30200
O 	O 	0.51357 0.31666 0.50522 -0.39100
O 	O 	0.72971 0.57922 0.50710 -0.39500
O 	O 	0.72168 0.28088 0.56283 -0.36700
C 	C 	0.79734 0.17381 0.49778 0.31000
O 	O 	0.63144 0.33987 0.41266 -0.38300
O 	O 	0.61188 0.17883 0.39840 -0.42200
H 	H 	0.82824 0.44728 0.51438 0.16400
H 	H 	0.53074 0.16493 0.45749 0.17300
C 	C 	0.69155 0.31186 0.61907 -0.08400
C 	C 	0.63332 0.33584 0.63810 0.01300
C 	C 	0.62290 0.31381 0.67099 -0.06600
C 	C 	0.67021 0.26719 0.68521 0.02600
C 	C 	0.72777 0.24236 0.66619 -0.06500
C 	C 	0.73836 0.26447 0.63325 0.01400
C 	C 	0.66243 0.24789 0.72041 0.00200
C 	C 	0.75915 0.30809 0.74562 -0.04000
C 	C 	0.75086 0.30033 0.77968 -0.03200
C 	C 	0.64594 0.23238 0.78876 -0.00700
C 	C 	0.54955 0.16847 0.76347 -0.03300
C 	C 	0.55771 0.17599 0.72939 -0.04000
C 	C 	0.63671 0.23781 0.82405 0.04500
C 	C 	0.62989 0.24607 0.85361 -0.10400
H 	H 	0.59565 0.37108 0.62734 0.02800
H 	H 	0.57875 0.33373 0.68554 0.04600
H 	H 	0.76459 0.20636 0.67697 0.04600
H 	H 	0.78385 0.24583 0.61896 0.04000
H 	H 	0.84038 0.36361 0.73895 0.04000
H 	H 	0.82578 0.34986 0.79908 0.04100
H 	H 	0.46816 0.11550 0.77029 0.03800
H 	H 	0.48262 0.12831 0.71008 0.03900
C 	C 	0.64539 0.32273 0.11780 -0.08900
C 	C 	0.73883 0.37950 0.14421 0.01100
C 	C 	0.72501 0.37646 0.17802 -0.06700
C 	C 	0.61779 0.31694 0.18580 0.02400
C 	C 	0.52465 0.26362 0.15955 -0.06700
C 	C 	0.53834 0.26660 0.12571 0.00900
C 	C 	0.60289 0.30515 0.22122 0.00100
C 	C 	0.54843 0.20028 0.23039 -0.04200
C 	C 	0.54388 0.19047 0.26448 -0.03400
C 	C 	0.59360 0.28531 0.28960 -0.00900
C 	C 	0.64480 0.38961 0.28038 -0.03400
C 	C 	0.64939 0.39955 0.24629 -0.04100
C 	C 	0.60040 0.27701 0.32496 0.04200
C 	C 	0.60897 0.27108 0.35460 -0.11200
H 	H 	0.82202 0.42469 0.13856 0.03000
H 	H 	0.79746 0.41825 0.19813 0.04300
H 	H 	0.44159 0.21818 0.16534 0.04400
H 	H 	0.46554 0.22251 0.10562 0.03300
H 	H 	0.51230 0.12691 0.21123 0.03600
H 	H 	0.50411 0.10956 0.27142 0.03600
H 	H 	0.68325 0.46328 0.29967 0.03800
H 	H 	0.69092 0.48075 0.23945 0.03800
C 	C 	0.86251 0.72233 0.47829 -0.14300
H 	H 	0.88310 0.73922 0.45338 0.07600
C 	C 	0.92868 0.13795 0.48457 -0.00400
C 	C 	0.86188 0.13258 0.50526 -0.15500
H 	H 	0.85051 0.09234 0.52707 0.07800
C 	C 	0.26824 0.15707 0.49151 -0.00500
C 	C 	0.33694 0.15812 0.51532 -0.14700
H 	H 	0.30159 0.20781 0.47218 0.03400
H 	H 	0.30365 0.10852 0.53490 0.07300
C 	C 	0.80200 0.63362 0.97673 -0.14400
H 	H 	0.88543 0.68114 0.99183 0.06900
C 	C 	0.82666 0.11192 0.96663 -0.15600
C 	C 	0.81901 0.04092 0.98572 0.00100
H 	H 	0.86841 0.12719 0.94500 0.08100
H 	H 	0.77444 0.02267 0.00673 0.02300
C 	C 	0.21917 0.10152 0.98729 -0.14200
C 	C 	0.13552 0.04531 0.96027 -0.00500
H 	H 	0.20073 0.09620 0.01279 0.07200
H 	H 	0.15283 0.04424 0.93473 0.03300
C 	C 	0.79784 0.86584 0.97449 -0.07500
C 	C 	0.84049 0.80842 0.96663 0.03100
C 	C 	0.95065 0.86720 0.96109 -0.07400
H 	H 	0.71232 0.82049 0.97818 0.04700
C 	C 	0.98306 0.08512 0.49008 0.02800
C 	C 	0.97105 0.92281 0.49839 0.03100
C 	C 	0.92059 0.97451 0.49499 -0.07400
H 	H 	0.83250 0.92818 0.49553 0.04900
C 	C 	0.90509 0.80731 0.50418 -0.00600
H 	H 	0.88656 0.79153 0.52932 0.03300
H 	H 	0.94488 0.18292 0.46374 0.02800
C 	C 	0.76715 0.68592 0.96226 -0.00000
H 	H 	0.68306 0.63815 0.94756 0.03100
