data_crystal

_cell_length_a 18.54598
_cell_length_b 18.82711
_cell_length_c 40.18624
_cell_angle_alpha 95.43234
_cell_angle_beta  95.43217
_cell_angle_gamma 126.36889

_symmetry_space_group_name_	'P 1'
_symmetry_space_group_name_H-M	'P 1'

loop_
_symmetry_equiv_pos_as_xyz
  x,y,z

loop_
_atom_site_label
_atom_site_type_symbol
_atom_site_fract_x
_atom_site_fract_y
_atom_site_fract_z
_atom_site_charge
C 	C 	0.07755 0.05368 0.50003 0.10900
C 	C 	0.91266 0.10366 0.50555 -0.00100
C 	C 	0.78931 0.10586 0.51971 0.00600
C 	C 	0.90570 0.98654 0.96556 0.11600
N 	N 	0.85918 0.89642 0.96456 -0.13800
C 	C 	0.90564 0.86106 0.96604 0.11200
N 	N 	0.99753 0.91571 0.96902 -0.13800
C 	C 	0.04376 0.00518 0.97056 0.11100
N 	N 	0.99780 0.04034 0.96869 -0.14200
C 	C 	0.95165 0.05472 0.50221 0.10500
N 	N 	0.89575 0.96362 0.49715 -0.13700
C 	C 	0.93039 0.91760 0.49357 0.11100
N 	N 	0.02119 0.96278 0.49512 -0.13500
N 	N 	0.04283 0.09997 0.50344 -0.13600
Cu	Cu	0.75625 0.33316 0.96343 0.92500
Cu	Cu	0.75280 0.27354 0.03770 0.86800
Cu	Cu	0.61461 0.29103 0.00743 0.89700
Cu	Cu	0.58316 0.32142 0.93767 0.89500
C 	C 	0.68489 0.29373 0.89183 0.28900
O 	O 	0.80600 0.46315 0.96080 -0.35800
C 	C 	0.67804 0.32957 0.08243 0.28700
O 	O 	0.61426 0.25809 0.96068 -0.63900
O 	O 	0.74807 0.35241 0.01171 -0.64200
O 	O 	0.81692 0.27348 0.96804 -0.37100
O 	O 	0.72106 0.18230 0.00134 -0.44200
O 	O 	0.64746 0.33361 0.89899 -0.38600
O 	O 	0.48367 0.22269 0.00098 -0.38700
C 	C 	0.43057 0.22001 0.97567 0.29300
C 	C 	0.76311 0.49556 0.97064 0.27800
O 	O 	0.67962 0.44040 0.97584 -0.39600
O 	O 	0.46389 0.26908 0.95189 -0.39700
O 	O 	0.74137 0.29627 0.91548 -0.36400
C 	C 	0.77758 0.19895 0.98056 0.28200
O 	O 	0.61431 0.30867 0.05671 -0.38400
O 	O 	0.75082 0.33614 0.07731 -0.42200
H 	H 	0.57549 0.19256 0.95194 0.16400
H 	H 	0.78630 0.41591 0.02350 0.17300
Cu	Cu	0.62128 0.22509 0.50906 0.92700
Cu	Cu	0.68246 0.22439 0.43535 0.86800
Cu	Cu	0.65992 0.35895 0.46313 0.89700
Cu	Cu	0.62917 0.39307 0.53228 0.89500
C 	C 	0.64773 0.28896 0.58043 0.29200
O 	O 	0.49003 0.17442 0.51141 -0.36400
C 	C 	0.62510 0.29417 0.38864 0.28600
O 	O 	0.69546 0.36358 0.51023 -0.64100
O 	O 	0.60053 0.22851 0.46031 -0.64200
O 	O 	0.67939 0.16383 0.50583 -0.37400
O 	O 	0.77348 0.25607 0.47245 -0.44200
O 	O 	0.61434 0.33181 0.57203 -0.38700
O 	O 	0.72631 0.48715 0.46817 -0.38800
C 	C 	0.72352 0.53945 0.49153 0.29400
C 	C 	0.45465 0.21304 0.50004 0.28000
O 	O 	0.50867 0.29513 0.49435 -0.39800
O 	O 	0.68166 0.50996 0.51752 -0.39600
O 	O 	0.66012 0.24465 0.55712 -0.36600
C 	C 	0.75491 0.20066 0.49352 0.28600
O 	O 	0.63951 0.35504 0.41360 -0.38300
O 	O 	0.61962 0.22371 0.39480 -0.42200
H 	H 	0.76207 0.40323 0.51891 0.16700
H 	H 	0.53609 0.18901 0.44840 0.17400
C 	C 	0.65299 0.27502 0.61581 -0.08700
C 	C 	0.58686 0.26239 0.63430 0.01800
C 	C 	0.59363 0.25333 0.66831 -0.07000
C 	C 	0.66640 0.25674 0.68420 0.03900
C 	C 	0.73161 0.26737 0.66568 -0.07000
C 	C 	0.72478 0.27620 0.63150 0.01600
C 	C 	0.67564 0.25300 0.71989 -0.02100
C 	C 	0.67937 0.24956 0.74978 -0.02200
C 	C 	0.68020 0.24671 0.78552 0.04000
C 	C 	0.76324 0.29486 0.80856 -0.07000
C 	C 	0.76460 0.30519 0.84364 0.02000
C 	C 	0.68286 0.26802 0.85581 -0.08700
C 	C 	0.59958 0.21567 0.83271 0.01600
C 	C 	0.59829 0.20488 0.79772 -0.07000
H 	H 	0.53022 0.25971 0.62233 0.03400
H 	H 	0.54273 0.24462 0.68241 0.04800
H 	H 	0.78802 0.26990 0.67780 0.04800
H 	H 	0.77606 0.28560 0.61749 0.03300
H 	H 	0.82687 0.32709 0.79933 0.04900
H 	H 	0.82933 0.34563 0.86122 0.03600
H 	H 	0.53607 0.18600 0.84184 0.02000
H 	H 	0.53378 0.16704 0.78007 0.04700
C 	C 	0.66571 0.34261 0.11771 -0.09100
C 	C 	0.74192 0.39644 0.14429 0.01500
C 	C 	0.73018 0.39839 0.17815 -0.07200
C 	C 	0.64236 0.34688 0.18574 0.03800
C 	C 	0.56612 0.29683 0.15928 -0.07100
C 	C 	0.57764 0.29478 0.12537 0.01400
C 	C 	0.63076 0.33897 0.22049 -0.02400
C 	C 	0.62185 0.33284 0.24968 -0.02400
C 	C 	0.61240 0.32377 0.28453 0.03800
C 	C 	0.66357 0.40004 0.31050 -0.07100
C 	C 	0.66390 0.39060 0.34463 0.01400
C 	C 	0.61344 0.30462 0.35301 -0.09100
C 	C 	0.55870 0.22849 0.32688 0.01500
C 	C 	0.55833 0.23812 0.29280 -0.07200
H 	H 	0.81022 0.43515 0.13877 0.02900
H 	H 	0.78946 0.43796 0.19849 0.04600
H 	H 	0.49797 0.25727 0.16495 0.04700
H 	H 	0.51818 0.25329 0.10518 0.03500
H 	H 	0.70521 0.46653 0.30429 0.04700
H 	H 	0.70619 0.44994 0.36449 0.03300
H 	H 	0.51809 0.16182 0.33295 0.02900
H 	H 	0.51798 0.17885 0.27285 0.04600
C 	C 	0.79629 0.77603 0.50652 -0.04600
C 	C 	0.87045 0.81920 0.48961 -0.00200
C 	C 	0.89111 0.76862 0.47091 -0.04700
C 	C 	0.84144 0.67676 0.47068 0.00700
C 	C 	0.77006 0.63432 0.48896 -0.08300
C 	C 	0.74616 0.68402 0.50611 0.00600
H 	H 	0.77921 0.81418 0.52085 0.04700
H 	H 	0.94687 0.80084 0.45709 0.04600
H 	H 	0.86005 0.63917 0.45702 0.03500
H 	H 	0.68975 0.65172 0.51959 0.03500
C 	C 	0.94183 0.17568 0.48865 -0.04900
C 	C 	0.83829 0.07131 0.52219 -0.04700
C 	C 	0.81430 0.17340 0.50062 -0.08800
C 	C 	0.89316 0.21060 0.48627 0.00100
H 	H 	0.99973 0.20201 0.47606 0.04300
H 	H 	0.81661 0.01732 0.53612 0.04500
H 	H 	0.73046 0.07822 0.53180 0.04000
H 	H 	0.91515 0.26460 0.47233 0.02800
C 	C 	0.22364 0.16355 0.48149 -0.04600
C 	C 	0.17613 0.10132 0.50250 -0.00200
C 	C 	0.22016 0.07553 0.52255 -0.04600
C 	C 	0.31017 0.11011 0.52109 0.00400
C 	C 	0.35746 0.17131 0.49967 -0.08300
C 	C 	0.31378 0.19816 0.47996 0.00200
H 	H 	0.18999 0.18311 0.46561 0.04400
H 	H 	0.18410 0.02761 0.53892 0.04600
H 	H 	0.34338 0.09011 0.53695 0.04000
H 	H 	0.34944 0.24544 0.46335 0.03400
C 	C 	0.87844 0.71878 0.94167 -0.04400
C 	C 	0.85735 0.76359 0.96393 -0.00300
C 	C 	0.80598 0.72021 0.98860 -0.04400
C 	C 	0.77829 0.63411 0.99164 0.00200
C 	C 	0.80152 0.59030 0.96993 -0.08000
C 	C 	0.85121 0.63299 0.94478 0.00300
H 	H 	0.91829 0.75159 0.92255 0.04600
H 	H 	0.79034 0.75434 0.00625 0.04300
H 	H 	0.73908 0.60163 0.01094 0.03200
H 	H 	0.86763 0.59933 0.92729 0.04000
C 	C 	0.88500 0.09540 0.94482 -0.04400
C 	C 	0.85739 0.02700 0.96384 -0.00600
C 	C 	0.79622 0.00955 0.98567 -0.05000
C 	C 	0.76779 0.06361 0.99020 0.00200
C 	C 	0.80040 0.13610 0.97293 -0.08500
C 	C 	0.85697 0.14978 0.94941 0.00400
H 	H 	0.93111 0.10871 0.92744 0.04500
H 	H 	0.77413 0.95701 0.00042 0.04600
H 	H 	0.72262 0.05069 0.00793 0.02500
H 	H 	0.88085 0.20353 0.93519 0.04100
C 	C 	0.19539 0.04252 0.99148 -0.05200
C 	C 	0.14349 0.06363 0.97370 -0.00100
C 	C 	0.18684 0.13856 0.95778 -0.04800
C 	C 	0.28074 0.19057 0.95893 0.00700
C 	C 	0.33229 0.16793 0.97590 -0.08400
C 	C 	0.28918 0.09416 0.99247 0.00900
H 	H 	0.16294 0.98569 0.00433 0.05100
H 	H 	0.14759 0.15554 0.94395 0.04700
H 	H 	0.31328 0.24818 0.94651 0.03600
H 	H 	0.32804 0.07595 0.00567 0.03200
