data_crystal

_cell_length_a 24.36387
_cell_length_b 21.38532
_cell_length_c 19.51664
_cell_angle_alpha 92.70523
_cell_angle_beta  85.31861
_cell_angle_gamma 124.83065

_symmetry_space_group_name_	'P 1'
_symmetry_space_group_name_H-M	'P 1'

loop_
_symmetry_equiv_pos_as_xyz
  x,y,z

loop_
_atom_site_label
_atom_site_type_symbol
_atom_site_fract_x
_atom_site_fract_y
_atom_site_fract_z
_atom_site_charge
C 	C 	0.91991 0.11960 0.90505 -0.02200
C 	C 	0.92945 0.09320 0.84100 -0.00300
C 	C 	0.96397 0.05856 0.83538 -0.07400
C 	C 	0.98926 0.05002 0.89360 0.09000
C 	C 	0.98232 0.07979 0.95717 -0.06500
C 	C 	0.94753 0.11394 0.96277 -0.00300
N 	N 	0.01863 0.00716 0.88823 -0.14200
C 	C 	0.20066 0.11441 0.98900 -0.01100
C 	C 	0.14077 0.05423 0.02136 -0.02000
C 	C 	0.08086 0.01833 0.98865 -0.05000
C 	C 	0.08033 0.04192 0.92249 0.07700
C 	C 	0.14043 0.10187 0.89020 -0.06700
C 	C 	0.20023 0.13816 0.92331 -0.01000
C 	C 	0.88222 0.76713 0.91604 -0.02200
C 	C 	0.93144 0.79703 0.86110 -0.00900
C 	C 	0.97567 0.87591 0.85206 -0.06300
C 	C 	0.97122 0.92574 0.89757 0.07700
C 	C 	0.92060 0.89562 0.95155 -0.07400
C 	C 	0.87674 0.81694 0.96077 -0.00400
H 	H 	0.90848 0.09751 0.79604 0.04100
H 	H 	0.96951 0.03642 0.78618 0.05800
H 	H 	0.00174 0.07409 0.00260 0.04900
H 	H 	0.94131 0.13517 0.01223 0.04600
H 	H 	0.14048 0.03570 0.07219 0.04900
H 	H 	0.03500 0.97371 0.01542 0.03700
H 	H 	0.14065 0.12045 0.83945 0.05400
H 	H 	0.24636 0.18398 0.89746 0.04700
H 	H 	0.93540 0.75927 0.82534 0.04700
H 	H 	0.01360 0.89844 0.80973 0.04600
H 	H 	0.91682 0.93286 0.98790 0.05300
H 	H 	0.83941 0.79479 0.00367 0.04300
C 	C 	0.91383 0.12203 0.52114 -0.01900
C 	C 	0.91852 0.06617 0.48652 -0.00900
C 	C 	0.94384 0.03151 0.51867 -0.05700
C 	C 	0.96398 0.05178 0.58657 0.08300
C 	C 	0.95830 0.10693 0.62128 -0.06900
C 	C 	0.93374 0.14223 0.58868 -0.00500
N 	N 	0.99291 0.01901 0.62008 -0.13500
C 	C 	0.20455 0.13324 0.59965 -0.02200
C 	C 	0.16912 0.10268 0.66323 -0.00500
C 	C 	0.09981 0.06747 0.67019 -0.07200
C 	C 	0.06536 0.06288 0.61387 0.08100
C 	C 	0.10172 0.09713 0.55105 -0.07400
C 	C 	0.17077 0.13156 0.54406 -0.00400
C 	C 	0.89097 0.77968 0.58957 -0.02100
C 	C 	0.94711 0.83043 0.54614 -0.01100
C 	C 	0.98139 0.90888 0.55638 -0.06400
C 	C 	0.95961 0.93782 0.61016 0.07200
C 	C 	0.90450 0.88702 0.65449 -0.06900
C 	C 	0.87029 0.80834 0.64434 -0.00800
H 	H 	0.90343 0.05033 0.43433 0.04800
H 	H 	0.94918 0.99046 0.49030 0.04300
H 	H 	0.97382 0.12310 0.67328 0.05600
H 	H 	0.92961 0.18476 0.61613 0.04500
H 	H 	0.19489 0.10421 0.70665 0.04000
H 	H 	0.07248 0.04192 0.71883 0.05400
H 	H 	0.07632 0.09413 0.50688 0.05500
H 	H 	0.19789 0.15595 0.49504 0.04500
H 	H 	0.96333 0.80918 0.50343 0.04400
H 	H 	0.02323 0.94698 0.52107 0.04400
H 	H 	0.88805 0.90865 0.69664 0.05200
H 	H 	0.82781 0.76976 0.67905 0.04600
Co	Co	0.71353 0.31396 0.97056 1.18300
O 	O 	0.78316 0.30316 0.91120 -0.36600
Co	Co	0.57849 0.31354 0.01420 1.18300
O 	O 	0.61768 0.25500 0.94163 -0.46000
O 	O 	0.65541 0.42279 0.00422 -0.40000
O 	O 	0.71755 0.21769 0.98514 -0.33200
C 	C 	0.71214 0.44997 0.96577 0.31000
O 	O 	0.56200 0.29570 0.90694 -0.35800
C 	C 	0.45872 0.24641 0.07247 0.26000
C 	C 	0.68744 0.34166 0.10067 0.30000
O 	O 	0.50361 0.31900 0.06864 -0.34700
O 	O 	0.48339 0.21079 0.04484 -0.33300
O 	O 	0.74464 0.36148 0.07043 -0.35900
O 	O 	0.63816 0.29394 0.06352 -0.46500
O 	O 	0.72449 0.40449 0.93007 -0.52200
C 	C 	0.76462 0.23917 0.93726 0.26100
C 	C 	0.59709 0.26883 0.88907 0.30700
H 	H 	0.74959 0.42143 0.88323 0.17900
Co	Co	0.73982 0.32554 0.48717 1.18300
O 	O 	0.82006 0.32876 0.43543 -0.35800
Co	Co	0.60627 0.32933 0.52557 1.18300
O 	O 	0.66179 0.30651 0.43542 -0.45900
O 	O 	0.68610 0.41968 0.56525 -0.40600
O 	O 	0.73055 0.22191 0.45960 -0.33000
C 	C 	0.74505 0.46423 0.53158 0.30300
O 	O 	0.62444 0.37463 0.42429 -0.35700
C 	C 	0.47996 0.25699 0.55755 0.25600
C 	C 	0.67418 0.28384 0.61163 0.31200
O 	O 	0.52597 0.32119 0.58296 -0.35200
O 	O 	0.50472 0.23322 0.51106 -0.32500
O 	O 	0.73607 0.30913 0.59515 -0.36300
O 	O 	0.64086 0.26967 0.55798 -0.45900
O 	O 	0.77458 0.43608 0.49403 -0.51300
C 	C 	0.79115 0.25595 0.43289 0.26300
C 	C 	0.66189 0.35389 0.39624 0.29500
H 	H 	0.81897 0.47228 0.46758 0.17200
C 	C 	0.64098 0.25220 0.68009 -0.09300
C 	C 	0.67091 0.23497 0.72854 0.05300
C 	C 	0.65131 0.23222 0.79860 -0.03000
C 	C 	0.59888 0.23962 0.81944 -0.09500
C 	C 	0.55735 0.23375 0.76937 0.05800
C 	C 	0.58193 0.24690 0.70033 -0.02500
H 	H 	0.67725 0.22516 0.83662 0.03400
H 	H 	0.55565 0.25381 0.66273 0.03400
C 	C 	0.71718 0.21072 0.70616 -0.06600
C 	C 	0.48632 0.21039 0.78854 -0.07400
C 	C 	0.79004 0.27328 0.71922 -0.14400
H 	H 	0.71302 0.19340 0.65125 0.06600
H 	H 	0.70180 0.15927 0.73570 0.05200
H 	H 	0.80646 0.32764 0.69468 0.08200
H 	H 	0.82286 0.25561 0.69776 0.07300
H 	H 	0.79622 0.28295 0.77522 0.07800
C 	C 	0.43476 0.14349 0.74533 -0.13800
H 	H 	0.48367 0.25989 0.78177 0.06500
H 	H 	0.47102 0.19172 0.84298 0.06900
H 	H 	0.44066 0.16073 0.69102 0.07000
H 	H 	0.38345 0.12374 0.76590 0.06800
H 	H 	0.43999 0.09530 0.74742 0.06900
C 	C 	0.67218 0.35209 0.32079 -0.08800
C 	C 	0.70034 0.41860 0.28074 0.04900
C 	C 	0.70176 0.41286 0.20872 -0.02500
C 	C 	0.67867 0.34301 0.17612 -0.09000
C 	C 	0.65440 0.27740 0.21618 0.05300
C 	C 	0.64989 0.28233 0.28812 -0.02600
H 	H 	0.72325 0.46366 0.17789 0.04400
H 	H 	0.62844 0.23141 0.31874 0.05400
C 	C 	0.73658 0.49704 0.31346 -0.07700
C 	C 	0.63198 0.20136 0.18327 -0.07000
C 	C 	0.81032 0.52925 0.31940 -0.13500
H 	H 	0.71357 0.49667 0.36495 0.06000
H 	H 	0.73333 0.53647 0.28163 0.05200
H 	H 	0.81537 0.48911 0.34764 0.05500
H 	H 	0.83487 0.58418 0.34771 0.06200
H 	H 	0.83629 0.53942 0.26746 0.06400
C 	C 	0.55652 0.15239 0.17554 -0.13900
H 	H 	0.64416 0.17016 0.21595 0.05400
H 	H 	0.65905 0.20820 0.13260 0.06600
H 	H 	0.52891 0.13846 0.22687 0.07000
H 	H 	0.54183 0.09838 0.14897 0.07200
H 	H 	0.54196 0.18251 0.14487 0.07800
C 	C 	0.78313 0.54683 0.54522 0.02100
N 	N 	0.85093 0.59142 0.53487 -0.06900
N 	N 	0.88539 0.66539 0.55011 -0.08500
C 	C 	0.85312 0.69689 0.57657 0.11300
N 	N 	0.78534 0.65219 0.58736 -0.08300
N 	N 	0.75089 0.57817 0.57219 -0.05800
C 	C 	0.88652 0.15790 0.48745 0.11500
N 	N 	0.91973 0.23485 0.48709 -0.08200
N 	N 	0.89162 0.26697 0.46329 -0.06000
C 	C 	0.82920 0.22305 0.43987 0.04400
N 	N 	0.79727 0.14625 0.43755 -0.05900
N 	N 	0.82572 0.11416 0.46059 -0.08000
C 	C 	0.40835 0.22431 0.56887 0.04300
N 	N 	0.38544 0.24714 0.62328 -0.06300
N 	N 	0.32015 0.21702 0.63393 -0.08300
C 	C 	0.27610 0.16360 0.59020 0.11500
N 	N 	0.29903 0.14052 0.53600 -0.08100
N 	N 	0.36422 0.17010 0.52576 -0.05900
C 	C 	0.75682 0.53273 0.95364 0.02200
N 	N 	0.82000 0.56470 0.92492 -0.06600
N 	N 	0.85973 0.63927 0.91219 -0.08300
C 	C 	0.83737 0.68401 0.92765 0.11500
N 	N 	0.77423 0.65200 0.95661 -0.08300
N 	N 	0.73459 0.57748 0.96951 -0.05500
C 	C 	0.87850 0.14974 0.91249 0.11600
N 	N 	0.83089 0.12611 0.96520 -0.08000
N 	N 	0.79434 0.15457 0.97300 -0.05800
C 	C 	0.80490 0.20807 0.92880 0.04200
N 	N 	0.85235 0.23157 0.87595 -0.06500
N 	N 	0.88855 0.20265 0.86779 -0.08400
C 	C 	0.26415 0.15019 0.02250 0.11100
N 	N 	0.28085 0.10628 0.04945 -0.08100
N 	N 	0.34180 0.13801 0.07151 -0.06000
C 	C 	0.38758 0.21463 0.06792 0.04600
N 	N 	0.36941 0.25885 0.04476 -0.05900
N 	N 	0.30868 0.22708 0.02207 -0.08100
