data_crystal

_cell_length_a 24.18682
_cell_length_b 24.76865
_cell_length_c 39.95768
_cell_angle_alpha 95.49561
_cell_angle_beta  95.49423
_cell_angle_gamma 125.85959

_symmetry_space_group_name_	'P 1'
_symmetry_space_group_name_H-M	'P 1'

loop_
_symmetry_equiv_pos_as_xyz
  x,y,z

loop_
_atom_site_label
_atom_site_type_symbol
_atom_site_fract_x
_atom_site_fract_y
_atom_site_fract_z
_atom_site_charge
N 	N 	0.01424 0.04073 0.45200 -0.12700
H 	H 	0.00323 0.15534 0.99715 0.06200
N 	N 	0.02755 0.05868 0.00630 -0.12500
C 	C 	0.04007 0.00635 0.44343 0.09500
C 	C 	0.04501 0.01829 0.99434 0.09200
C 	C 	0.10939 0.04179 0.43451 0.10200
C 	C 	0.11603 0.04781 0.98913 0.10000
H 	H 	0.13778 0.14395 0.43649 0.06400
O 	O 	0.14403 0.01237 0.43346 -0.19900
C 	C 	0.14702 0.10725 0.42850 -0.08700
O 	O 	0.13944 0.00795 0.98584 -0.20300
H 	H 	0.14180 0.14114 0.97279 0.06100
H 	H 	0.00990 0.14853 0.46598 0.06500
C 	C 	0.15599 0.10801 0.97751 -0.08700
C 	C 	0.19560 0.04881 0.97028 0.11400
C 	C 	0.20654 0.06660 0.42673 0.11300
C 	C 	0.20832 0.12257 0.42327 0.02200
C 	C 	0.20463 0.10722 0.96444 0.02000
N 	N 	0.00158 0.93874 0.44294 -0.10400
N 	N 	0.99712 0.94993 0.98825 -0.11700
C 	C 	0.96231 0.03035 0.01245 0.09100
C 	C 	0.95007 0.00765 0.46024 0.09000
Cu	Cu	0.62313 0.22963 0.00541 0.92800
Cu	Cu	0.68159 0.23663 0.93383 0.87300
Cu	Cu	0.66802 0.34197 0.96403 0.89800
Cu	Cu	0.62540 0.35534 0.03096 0.89700
C 	C 	0.64133 0.27616 0.07708 0.30500
O 	O 	0.52160 0.19071 0.00277 -0.35000
C 	C 	0.64523 0.29847 0.88917 0.28900
O 	O 	0.68071 0.33561 0.01122 -0.63800
O 	O 	0.61829 0.24176 0.95733 -0.64200
O 	O 	0.66664 0.18175 0.00273 -0.36000
O 	O 	0.74562 0.25433 0.97251 -0.41500
O 	O 	0.61011 0.30370 0.06886 -0.38100
O 	O 	0.72144 0.43969 0.97369 -0.35500
C 	C 	0.71928 0.47539 0.99961 0.25100
C 	C 	0.49680 0.22120 0.99000 0.24600
O 	O 	0.53885 0.28608 0.98907 -0.36800
O 	O 	0.66997 0.44636 0.01811 -0.37800
O 	O 	0.64210 0.23507 0.05383 -0.35900
C 	C 	0.72674 0.21018 0.99282 0.24900
O 	O 	0.67146 0.34911 0.91529 -0.38100
O 	O 	0.63982 0.24339 0.89306 -0.41600
H 	H 	0.72987 0.36343 0.02299 0.16800
H 	H 	0.57078 0.21537 0.94358 0.17400
Cu	Cu	0.75329 0.34977 0.46580 0.92700
Cu	Cu	0.73764 0.28514 0.53544 0.87300
Cu	Cu	0.63792 0.30982 0.50689 0.89700
Cu	Cu	0.63397 0.36304 0.44225 0.89500
C 	C 	0.70700 0.33781 0.39457 0.28500
O 	O 	0.80291 0.45110 0.46982 -0.35100
C 	C 	0.67543 0.31924 0.58131 0.30800
O 	O 	0.64590 0.30166 0.45976 -0.63900
O 	O 	0.73986 0.35295 0.51400 -0.63900
O 	O 	0.79718 0.30192 0.46691 -0.34800
O 	O 	0.71867 0.22482 0.49549 -0.43100
O 	O 	0.68417 0.37321 0.40365 -0.38000
O 	O 	0.53852 0.26335 0.49611 -0.36500
C 	C 	0.50782 0.27333 0.47093 0.25300
C 	C 	0.77638 0.48098 0.48167 0.25000
O 	O 	0.71077 0.44433 0.48440 -0.36400
O 	O 	0.54346 0.32748 0.45684 -0.36800
O 	O 	0.74718 0.33327 0.41717 -0.35700
C 	C 	0.76665 0.24324 0.47688 0.25700
O 	O 	0.62686 0.30166 0.55500 -0.38400
O 	O 	0.73137 0.32418 0.57697 -0.41800
H 	H 	0.61464 0.25457 0.44663 0.16200
H 	H 	0.76888 0.39879 0.52852 0.17800
C 	C 	0.63288 0.30830 0.85426 -0.08600
C 	C 	0.68354 0.36799 0.84352 0.01500
C 	C 	0.67867 0.37189 0.80878 -0.06400
C 	C 	0.62272 0.31638 0.78458 0.02700
C 	C 	0.56929 0.25888 0.79570 -0.06500
C 	C 	0.57459 0.25467 0.83036 0.01600
C 	C 	0.62462 0.31489 0.74766 0.00300
C 	C 	0.62469 0.26435 0.72852 -0.04000
C 	C 	0.63120 0.26522 0.69419 -0.03100
C 	C 	0.63809 0.31676 0.67871 -0.00600
C 	C 	0.63687 0.36671 0.69752 -0.03000
C 	C 	0.62999 0.36573 0.73191 -0.03900
C 	C 	0.65016 0.32009 0.64411 0.04800
C 	C 	0.66120 0.32083 0.61530 -0.10700
H 	H 	0.72852 0.40992 0.86178 0.03800
H 	H 	0.71999 0.41673 0.80053 0.04900
H 	H 	0.52516 0.21630 0.77732 0.04800
H 	H 	0.53457 0.20882 0.83847 0.03000
H 	H 	0.62111 0.22518 0.74046 0.04000
H 	H 	0.63216 0.22650 0.67980 0.03900
H 	H 	0.64212 0.40671 0.68570 0.04300
H 	H 	0.62968 0.40481 0.74639 0.04300
C 	C 	0.70197 0.31805 0.35777 -0.08200
C 	C 	0.75823 0.32542 0.34556 0.01700
C 	C 	0.75553 0.31279 0.31032 -0.06300
C 	C 	0.69654 0.29250 0.28703 0.02800
C 	C 	0.63946 0.28289 0.29928 -0.06400
C 	C 	0.64214 0.29553 0.33444 0.01400
C 	C 	0.69617 0.28576 0.24990 0.00400
C 	C 	0.64520 0.22374 0.22782 -0.03800
C 	C 	0.63848 0.21987 0.19234 -0.03000
C 	C 	0.68277 0.27785 0.17873 -0.00400
C 	C 	0.73579 0.33901 0.20071 -0.03100
C 	C 	0.74252 0.34299 0.23618 -0.03800
C 	C 	0.66943 0.27637 0.14262 0.04800
C 	C 	0.65717 0.27588 0.11257 -0.10000
H 	H 	0.80474 0.34275 0.36326 0.04400
H 	H 	0.79971 0.31999 0.30111 0.05100
H 	H 	0.59368 0.26719 0.28150 0.04900
H 	H 	0.59808 0.28884 0.34355 0.02500
H 	H 	0.60956 0.17913 0.23814 0.04300
H 	H 	0.59755 0.17232 0.17550 0.04500
H 	H 	0.77037 0.38400 0.19037 0.04200
H 	H 	0.78210 0.39108 0.25299 0.04400
C 	C 	0.87586 0.65194 0.46973 0.01000
O 	O 	0.79439 0.58952 0.50316 -0.19100
C 	C 	0.81689 0.55520 0.48658 0.04200
C 	C 	0.86547 0.59211 0.46673 -0.05700
H 	H 	0.87411 0.56992 0.44502 0.06000
C 	C 	0.87330 0.19115 0.48632 0.11700
C 	C 	0.93082 0.19133 0.48386 -0.09500
C 	C 	0.92419 0.13212 0.48775 0.02300
C 	C 	0.86045 0.07200 0.48788 0.11000
C 	C 	0.80132 0.07049 0.48689 -0.08400
C 	C 	0.81097 0.13255 0.48906 0.00100
O 	O 	0.86811 0.24045 0.47626 -0.19200
C 	C 	0.79635 0.20583 0.47363 0.03300
C 	C 	0.76170 0.14027 0.47965 -0.05800
O 	O 	0.85649 0.01428 0.47760 -0.20300
C 	C 	0.92372 0.04595 0.47095 0.10200
C 	C 	0.96418 0.11588 0.47680 -0.09100
H 	H 	0.97779 0.23480 0.47794 0.06800
H 	H 	0.74986 0.02284 0.48304 0.06500
H 	H 	0.70901 0.10858 0.48421 0.04900
C 	C 	0.33322 0.19490 0.43573 0.11800
C 	C 	0.27121 0.18827 0.43024 -0.09200
C 	C 	0.26866 0.07428 0.43545 -0.08400
C 	C 	0.33139 0.13859 0.43752 0.00600
O 	O 	0.39655 0.25586 0.45096 -0.18800
C 	C 	0.43184 0.23041 0.46274 0.04500
C 	C 	0.39259 0.16067 0.45582 -0.05900
H 	H 	0.27193 0.23262 0.43314 0.07000
H 	H 	0.26809 0.03289 0.44261 0.06700
H 	H 	0.41227 0.13123 0.45764 0.04800
O 	O 	0.81169 0.58242 0.98196 -0.18900
C 	C 	0.76525 0.54963 0.00396 0.04900
C 	C 	0.75675 0.59090 0.02497 -0.06100
H 	H 	0.71147 0.57330 0.03644 0.05900
C 	C 	0.84838 0.17500 0.00028 0.11900
C 	C 	0.91422 0.18949 0.00393 -0.09200
C 	C 	0.92573 0.15004 0.02209 0.02200
C 	C 	0.87309 0.09645 0.03476 0.11300
C 	C 	0.80772 0.08329 0.03175 -0.08300
C 	C 	0.79631 0.12207 0.01310 0.00600
O 	O 	0.83663 0.22171 0.99330 -0.19900
C 	C 	0.77245 0.19170 0.00364 0.04200
C 	C 	0.74927 0.13350 0.01652 -0.05700
O 	O 	0.88127 0.04606 0.03790 -0.19900
C 	C 	0.94261 0.07345 0.02508 0.10200
C 	C 	0.96970 0.13556 0.01583 -0.08700
H 	H 	0.95515 0.23031 0.99329 0.06500
H 	H 	0.76628 0.04192 0.04189 0.06800
H 	H 	0.69744 0.09714 0.02126 0.05900
C 	C 	0.25093 0.04445 0.97128 -0.08700
C 	C 	0.31292 0.09845 0.96317 0.00900
C 	C 	0.32344 0.15859 0.95950 0.11700
C 	C 	0.26977 0.16492 0.96150 -0.09100
O 	O 	0.39292 0.21456 0.96646 -0.19200
C 	C 	0.42269 0.18238 0.97521 0.04100
C 	C 	0.37568 0.11345 0.97345 -0.06200
H 	H 	0.24708 0.00240 0.97991 0.06700
H 	H 	0.27974 0.21389 0.96301 0.06800
H 	H 	0.38514 0.08332 0.98739 0.05800
C 	C 	0.93192 0.92158 0.99412 0.09700
N 	N 	0.91493 0.96179 0.00677 -0.10500
N 	N 	0.91141 0.93964 0.45962 -0.11400
C 	C 	0.93736 0.90518 0.45097 0.09700
C 	C 	0.83378 0.65014 0.49126 0.11800
C 	C 	0.81555 0.69453 0.49081 -0.09100
C 	C 	0.83588 0.73554 0.46580 0.02200
C 	C 	0.87541 0.73507 0.44328 0.11500
C 	C 	0.89484 0.69182 0.44432 -0.08500
O 	O 	0.91316 0.79401 0.43006 -0.19800
C 	C 	0.89469 0.83104 0.44771 0.10400
C 	C 	0.84851 0.79662 0.46912 -0.08500
H 	H 	0.78433 0.69507 0.50835 0.07000
H 	H 	0.92602 0.69124 0.42676 0.07000
H 	H 	0.84343 0.82079 0.49146 0.06700
C 	C 	0.82940 0.64690 0.99124 0.11700
C 	C 	0.85488 0.69374 0.96925 -0.09100
C 	C 	0.84404 0.74359 0.97298 0.02500
C 	C 	0.81290 0.74952 0.99884 0.10900
C 	C 	0.78656 0.70204 0.02056 -0.08100
C 	C 	0.79792 0.65253 0.01696 0.01300
O 	O 	0.83266 0.81474 0.00879 -0.19400
C 	C 	0.88012 0.84754 0.98720 0.10200
C 	C 	0.88668 0.80546 0.96559 -0.08800
H 	H 	0.88045 0.69024 0.94924 0.07000
H 	H 	0.76108 0.70555 0.04060 0.06900
H 	H 	0.93167 0.82215 0.95401 0.06900
