data_crystal

_cell_length_a 23.26882
_cell_length_b 23.40015
_cell_length_c 35.06129
_cell_angle_alpha 95.48345
_cell_angle_beta  95.48231
_cell_angle_gamma 125.93325

_symmetry_space_group_name_	'P 1'
_symmetry_space_group_name_H-M	'P 1'

loop_
_symmetry_equiv_pos_as_xyz
  x,y,z

loop_
_atom_site_label
_atom_site_type_symbol
_atom_site_fract_x
_atom_site_fract_y
_atom_site_fract_z
_atom_site_charge
N 	N 	0.03998 0.06677 0.99648 -0.13700
N 	N 	0.02549 0.95785 0.98852 -0.13500
C 	C 	0.03232 0.01311 0.45672 0.11300
C 	C 	0.06824 0.03019 0.99159 0.12500
H 	H 	0.00052 0.14505 0.96615 0.04400
H 	H 	0.10163 0.97247 0.41759 0.05200
N 	N 	0.99883 0.04482 0.45820 -0.13800
C 	C 	0.96864 0.03052 0.99827 0.11100
C 	C 	0.95461 0.92173 0.99033 0.13300
N 	N 	0.92614 0.95791 0.99523 -0.13500
C 	C 	0.92774 0.00574 0.46059 0.11100
N 	N 	0.88989 0.93427 0.46139 -0.13400
C 	C 	0.92361 0.90258 0.45983 0.13100
N 	N 	0.99455 0.94204 0.45750 -0.13600
Cu	Cu	0.63758 0.22799 0.00484 0.92800
Cu	Cu	0.68936 0.22587 0.92127 0.87100
Cu	Cu	0.67378 0.33778 0.95225 0.89700
Cu	Cu	0.63884 0.36125 0.02963 0.89800
C 	C 	0.66253 0.28587 0.08607 0.30900
O 	O 	0.53225 0.18524 0.00547 -0.36000
C 	C 	0.65015 0.28562 0.86706 0.30700
O 	O 	0.69508 0.33924 0.00668 -0.63900
O 	O 	0.62490 0.23252 0.94883 -0.64100
O 	O 	0.68351 0.17780 0.00266 -0.37000
O 	O 	0.75989 0.24963 0.96448 -0.44100
O 	O 	0.62927 0.31388 0.07564 -0.37300
O 	O 	0.72700 0.44097 0.95932 -0.37800
C 	C 	0.72151 0.48110 0.98567 0.29100
C 	C 	0.50326 0.21504 0.99151 0.28200
O 	O 	0.54530 0.28101 0.98533 -0.39200
O 	O 	0.67744 0.45315 0.01083 -0.38800
O 	O 	0.66471 0.24232 0.06031 -0.36300
C 	C 	0.74336 0.20535 0.98883 0.30600
O 	O 	0.66830 0.33817 0.89549 -0.37200
O 	O 	0.64162 0.22723 0.87455 -0.42200
H 	H 	0.74720 0.37099 0.01839 0.16700
H 	H 	0.57422 0.20205 0.93460 0.17400
Cu	Cu	0.73582 0.34135 0.45399 0.92700
Cu	Cu	0.73158 0.28867 0.53783 0.87300
Cu	Cu	0.61967 0.30179 0.50306 0.89800
Cu	Cu	0.60131 0.33738 0.42479 0.89800
C 	C 	0.68315 0.31651 0.37181 0.30900
O 	O 	0.77792 0.44603 0.45331 -0.36000
C 	C 	0.66742 0.32781 0.58895 0.30900
O 	O 	0.62316 0.28244 0.44922 -0.63900
O 	O 	0.72626 0.35248 0.50924 -0.64000
O 	O 	0.78660 0.29607 0.45848 -0.37000
O 	O 	0.71061 0.21918 0.49510 -0.44100
O 	O 	0.65339 0.34864 0.38063 -0.37400
O 	O 	0.51553 0.24698 0.49344 -0.38100
C 	C 	0.47656 0.24883 0.46433 0.30900
C 	C 	0.74540 0.47333 0.46541 0.28300
O 	O 	0.67818 0.43019 0.47005 -0.39100
O 	O 	0.50664 0.29629 0.44128 -0.39000
O 	O 	0.72627 0.31564 0.39883 -0.36300
C 	C 	0.75738 0.23615 0.47211 0.30800
O 	O 	0.61469 0.30534 0.55928 -0.38600
O 	O 	0.72665 0.33538 0.58355 -0.40600
H 	H 	0.59271 0.23077 0.43727 0.16600
H 	H 	0.75528 0.40267 0.52361 0.17700
C 	C 	0.61584 0.34073 0.77417 -0.11400
C 	C 	0.64365 0.31710 0.74855 0.00500
C 	C 	0.67171 0.28161 0.76157 0.11900
C 	C 	0.67335 0.27137 0.80020 -0.03600
C 	C 	0.64616 0.29544 0.82610 -0.12400
C 	C 	0.61637 0.32948 0.81277 0.19200
C 	C 	0.64340 0.32924 0.70800 0.00300
O 	O 	0.69947 0.25869 0.73683 -0.27700
H 	H 	0.69664 0.24542 0.81015 0.04700
O 	O 	0.58824 0.35215 0.83738 -0.28500
H 	H 	0.59357 0.36754 0.76415 0.07200
C 	C 	0.58379 0.27763 0.67841 0.11600
C 	C 	0.59000 0.28048 0.63915 -0.03600
C 	C 	0.65552 0.33476 0.62921 -0.12400
C 	C 	0.71270 0.39024 0.65883 0.19100
C 	C 	0.70661 0.38701 0.69807 -0.11000
O 	O 	0.52120 0.22155 0.68777 -0.27900
H 	H 	0.54520 0.23825 0.61655 0.05800
O 	O 	0.77574 0.44582 0.64956 -0.28900
H 	H 	0.75219 0.42776 0.72078 0.07600
H 	H 	0.53649 0.31085 0.83413 0.14500
H 	H 	0.49119 0.23855 0.69017 0.14400
H 	H 	0.76891 0.48332 0.64662 0.14500
H 	H 	0.65818 0.20891 0.72411 0.14800
C 	C 	0.71981 0.35199 0.19509 -0.11300
C 	C 	0.69208 0.28752 0.20855 0.00400
C 	C 	0.66203 0.22382 0.18170 0.12000
C 	C 	0.65579 0.22412 0.14157 -0.03300
C 	C 	0.67997 0.28796 0.12801 -0.11900
C 	C 	0.71454 0.35256 0.15503 0.19000
C 	C 	0.68854 0.28576 0.25034 0.00700
O 	O 	0.63566 0.16060 0.19453 -0.27500
H 	H 	0.62968 0.17422 0.12102 0.06400
O 	O 	0.74074 0.41584 0.14230 -0.29900
H 	H 	0.74376 0.40138 0.21567 0.07200
C 	C 	0.75188 0.31799 0.27831 0.11500
C 	C 	0.74920 0.32402 0.31816 -0.03100
C 	C 	0.68366 0.29890 0.33035 -0.12000
C 	C 	0.61968 0.26298 0.30230 0.19100
C 	C 	0.62243 0.25704 0.26251 -0.11000
O 	O 	0.81627 0.34309 0.26676 -0.27300
H 	H 	0.79856 0.35076 0.33953 0.06300
O 	O 	0.55480 0.23589 0.31372 -0.29900
H 	H 	0.57337 0.23161 0.24108 0.08000
H 	H 	0.79149 0.43667 0.14030 0.14300
H 	H 	0.83927 0.39427 0.26558 0.14400
H 	H 	0.53460 0.18583 0.31634 0.14400
H 	H 	0.67699 0.15831 0.19853 0.15000
C 	C 	0.83052 0.69229 0.46413 0.03400
C 	C 	0.85401 0.65973 0.44150 -0.06400
C 	C 	0.82889 0.58930 0.44323 0.01600
C 	C 	0.88539 0.82778 0.46168 -0.03300
C 	C 	0.75771 0.58417 0.49098 0.01400
C 	C 	0.78300 0.65468 0.48920 -0.06500
C 	C 	0.85842 0.76566 0.46300 -0.00100
C 	C 	0.77975 0.55067 0.46758 -0.08700
H 	H 	0.89152 0.68885 0.42241 0.05200
H 	H 	0.84611 0.56421 0.42486 0.04000
H 	H 	0.72036 0.55531 0.51017 0.03300
H 	H 	0.76549 0.67989 0.50725 0.05100
C 	C 	0.83734 0.12067 0.46459 -0.00500
C 	C 	0.79838 0.05221 0.44104 -0.03300
C 	C 	0.82625 0.01291 0.44093 -0.03400
C 	C 	0.78530 0.19552 0.46744 -0.11600
C 	C 	0.93112 0.10978 0.48862 -0.02500
C 	C 	0.90329 0.14889 0.48866 -0.03600
C 	C 	0.80855 0.16104 0.46531 0.04700
C 	C 	0.89330 0.04200 0.46437 -0.01200
H 	H 	0.74690 0.02965 0.42267 0.04200
H 	H 	0.79671 0.96088 0.42194 0.05200
H 	H 	0.98260 0.13257 0.50708 0.04200
H 	H 	0.93321 0.20129 0.50733 0.04000
C 	C 	0.25942 0.13489 0.45873 -0.00200
C 	C 	0.23206 0.16551 0.47927 -0.03600
C 	C 	0.15768 0.12640 0.47794 -0.02400
C 	C 	0.40020 0.20817 0.46248 -0.10400
C 	C 	0.13776 0.02622 0.43495 -0.03200
C 	C 	0.21214 0.06544 0.43634 -0.03400
C 	C 	0.33601 0.17460 0.46079 0.04700
C 	C 	0.11017 0.05624 0.45605 -0.01300
H 	H 	0.26841 0.21935 0.49653 0.04400
H 	H 	0.13718 0.15004 0.49454 0.04300
H 	H 	0.23300 0.04169 0.42018 0.04100
C 	C 	0.83461 0.70520 0.98415 0.03600
C 	C 	0.86318 0.66979 0.97135 -0.06500
C 	C 	0.82590 0.59642 0.97140 0.01800
C 	C 	0.91038 0.84545 0.98797 -0.03300
C 	C 	0.73066 0.59347 0.99655 0.01600
C 	C 	0.76811 0.66685 0.99649 -0.06600
C 	C 	0.87506 0.78144 0.98611 -0.00100
C 	C 	0.75967 0.55793 0.98431 -0.08400
H 	H 	0.91469 0.69925 0.96180 0.05200
H 	H 	0.84907 0.56984 0.96204 0.03500
H 	H 	0.67915 0.56430 0.00606 0.03800
H 	H 	0.74567 0.69393 0.00634 0.05400
C 	C 	0.86381 0.13149 0.00329 0.00100
C 	C 	0.92128 0.15716 0.98315 -0.04000
C 	C 	0.95775 0.12633 0.98284 -0.02600
C 	C 	0.78522 0.17917 0.99563 -0.11500
C 	C 	0.88116 0.04587 0.02414 -0.02400
C 	C 	0.84473 0.07671 0.02436 -0.03800
C 	C 	0.82102 0.15754 0.99980 0.04300
C 	C 	0.93682 0.06939 0.00264 -0.01100
H 	H 	0.93651 0.19970 0.96689 0.04100
H 	H 	0.86525 0.00284 0.04010 0.04400
H 	H 	0.80068 0.05690 0.04020 0.04500
C 	C 	0.28098 0.12457 0.99014 0.03200
C 	C 	0.31494 0.10392 0.01413 -0.06300
C 	C 	0.38663 0.13099 0.01340 0.01700
C 	C 	0.14378 0.06772 0.99093 -0.03400
C 	C 	0.39023 0.19842 0.96397 0.01300
C 	C 	0.31848 0.17121 0.96475 -0.06500
C 	C 	0.20660 0.09518 0.99044 -0.00300
C 	C 	0.42508 0.17922 0.98869 -0.08900
H 	H 	0.28594 0.06717 0.03351 0.05200
H 	H 	0.41275 0.11593 0.03278 0.04100
H 	H 	0.41893 0.23497 0.94446 0.03300
H 	H 	0.29222 0.18656 0.94570 0.05000
