data_crystal

_cell_length_a 17.28331
_cell_length_b 17.58319
_cell_length_c 46.59016
_cell_angle_alpha 90.70824
_cell_angle_beta  90.97703
_cell_angle_gamma 110.80572

_symmetry_space_group_name_	'P 1'
_symmetry_space_group_name_H-M	'P 1'

loop_
_symmetry_equiv_pos_as_xyz
  x,y,z

loop_
_atom_site_label
_atom_site_type_symbol
_atom_site_fract_x
_atom_site_fract_y
_atom_site_fract_z
_atom_site_charge
Ni	Ni	0.04492 0.02362 0.74751 1.09200
O 	O 	0.94120 0.93569 0.76321 -0.69100
O 	O 	0.02669 0.11525 0.77148 -0.38300
O 	O 	0.10615 0.99572 0.78127 -0.39800
O 	O 	0.19167 0.01106 0.70461 -0.42200
O 	O 	0.03004 0.92905 0.72134 -0.70700
O 	O 	0.15528 0.10388 0.73225 -0.38400
O 	O 	0.06458 0.77931 0.73160 -0.41400
Ni	Ni	0.12823 0.90017 0.72090 1.07200
H 	H 	0.95620 0.91638 0.78162 0.15000
H 	H 	0.02140 0.94531 0.70163 0.15700
O 	O 	0.18349 0.92856 0.76086 -0.40900
C 	C 	0.95358 0.12356 0.77090 0.28500
C 	C 	0.17626 0.98334 0.77914 0.32000
C 	C 	0.00122 0.73185 0.71580 0.25500
C 	C 	0.21174 0.08220 0.71840 0.28600
Ni	Ni	0.42095 0.83629 0.42022 1.09700
O 	O 	0.43595 0.73763 0.40064 -0.70800
Ni	Ni	0.34048 0.70353 0.37210 1.09500
O 	O 	0.51505 0.85123 0.44969 -0.37300
O 	O 	0.46307 0.71934 0.46388 -0.41600
O 	O 	0.51191 0.91840 0.39654 -0.36600
Ni	Ni	0.41354 0.64728 0.42748 1.06200
O 	O 	0.38911 0.98461 0.39460 -0.41100
O 	O 	0.30518 0.65645 0.44065 -0.42300
O 	O 	0.35996 0.60401 0.35615 -0.39300
O 	O 	0.32602 0.80323 0.39104 -0.70100
O 	O 	0.39828 0.93232 0.43809 -0.37800
O 	O 	0.24841 0.68763 0.34155 -0.36900
O 	O 	0.29372 0.82034 0.32869 -0.41900
Ni	Ni	0.34324 0.89391 0.36446 1.06300
H 	H 	0.49006 0.75021 0.39137 0.15200
H 	H 	0.27225 0.79002 0.40060 0.14800
C 	C 	0.23951 0.63661 0.42381 0.30600
O 	O 	0.45602 0.89692 0.35123 -0.40900
C 	C 	0.52228 0.79127 0.46471 0.29900
C 	C 	0.35495 0.54228 0.37266 0.29500
C 	C 	0.52012 0.91202 0.36873 0.28200
C 	C 	0.23367 0.74987 0.33084 0.28900
C 	C 	0.36583 0.97343 0.42149 0.30100
O 	O 	0.24576 0.62800 0.39606 -0.38500
O 	O 	0.35210 0.54874 0.40103 -0.41400
Ni	Ni	0.35408 0.66060 0.15551 1.09900
O 	O 	0.25760 0.63343 0.12587 -0.69600
Ni	Ni	0.19628 0.70359 0.14110 1.09800
O 	O 	0.38346 0.55848 0.14819 -0.37300
O 	O 	0.24998 0.47545 0.14432 -0.42400
O 	O 	0.43733 0.71728 0.12435 -0.38200
Ni	Ni	0.17948 0.52292 0.11922 1.07000
O 	O 	0.48719 0.82911 0.16653 -0.40500
O 	O 	0.09492 0.51517 0.15034 -0.40500
O 	O 	0.08466 0.65919 0.11851 -0.38200
O 	O 	0.30325 0.74277 0.16556 -0.70300
O 	O 	0.44880 0.70026 0.18476 -0.38200
O 	O 	0.16484 0.79789 0.15733 -0.36900
O 	O 	0.28654 0.88921 0.14181 -0.41000
Ni	Ni	0.38098 0.84890 0.15477 1.06700
H 	H 	0.27830 0.65414 0.10681 0.14900
H 	H 	0.29241 0.74220 0.18637 0.15500
C 	C 	0.11416 0.55471 0.17503 0.29600
O 	O 	0.38745 0.81712 0.11298 -0.41800
C 	C 	0.32732 0.49214 0.13742 0.30600
C 	C 	0.06591 0.60233 0.09792 0.30900
C 	C 	0.42373 0.76612 0.10546 0.31000
C 	C 	0.21856 0.87312 0.15660 0.28100
C 	C 	0.49175 0.77910 0.18707 0.28300
O 	O 	0.14308 0.63475 0.17573 -0.38500
O 	O 	0.11814 0.56657 0.09045 -0.43300
Ni	Ni	0.15674 0.05494 0.30018 1.06100
O 	O 	0.21869 0.10188 0.26376 -0.40700
O 	O 	0.20088 0.24638 0.28723 -0.37900
C 	C 	0.17926 0.10039 0.23942 0.30700
C 	C 	0.22833 0.23476 0.31288 0.28900
O 	O 	0.13025 0.14214 0.23684 -0.39000
O 	O 	0.21901 0.16081 0.32213 -0.42100
C 	C 	0.10226 0.44975 0.24593 -0.04000
C 	C 	0.02592 0.38599 0.24173 -0.09400
C 	C 	0.99720 0.45666 0.20061 -0.02900
C 	C 	0.07976 0.51051 0.20135 -0.10200
C 	C 	0.13161 0.51008 0.22521 0.10500
N 	N 	0.21049 0.56445 0.22767 -0.19900
H 	H 	0.14291 0.44715 0.26359 0.05300
H 	H 	0.95565 0.46050 0.18344 0.05000
H 	H 	0.24838 0.56260 0.24518 0.08400
H 	H 	0.23504 0.60916 0.21249 0.06700
C 	C 	0.27823 0.99350 0.18915 -0.03400
C 	C 	0.20816 0.93794 0.17496 -0.10200
C 	C 	0.12967 0.94457 0.17891 0.10200
C 	C 	0.12149 0.99964 0.19971 -0.00900
C 	C 	0.19129 0.05290 0.21469 -0.12200
C 	C 	0.27088 0.05345 0.20789 0.09700
N 	N 	0.34032 0.11288 0.21845 -0.19900
H 	H 	0.33888 0.99055 0.18541 0.01000
H 	H 	0.06063 0.00097 0.20425 0.01200
N 	N 	0.06319 0.90139 0.16203 -0.19700
H 	H 	0.39879 0.11038 0.21460 0.07200
H 	H 	0.33730 0.16460 0.22889 0.09800
H 	H 	0.07004 0.87146 0.14329 0.10000
H 	H 	0.52559 0.78763 0.34093 0.06400
C 	C 	0.37217 0.44386 0.33680 -0.04800
C 	C 	0.32683 0.45987 0.35930 -0.09300
C 	C 	0.25373 0.39742 0.36827 0.10900
C 	C 	0.23053 0.31962 0.35557 -0.05000
C 	C 	0.27133 0.30601 0.33148 -0.09900
C 	C 	0.34487 0.36742 0.32268 0.11100
N 	N 	0.39014 0.35295 0.30110 -0.20000
H 	H 	0.42848 0.49109 0.33012 0.04300
H 	H 	0.17491 0.27187 0.36251 0.03300
N 	N 	0.20244 0.41323 0.38735 -0.20100
H 	H 	0.44307 0.39925 0.29413 0.08400
H 	H 	0.37484 0.29507 0.29172 0.09500
H 	H 	0.20421 0.47229 0.39117 0.11200
H 	H 	0.15398 0.36553 0.39611 0.08000
C 	C 	0.09787 0.76051 0.33925 -0.05100
C 	C 	0.15031 0.74055 0.32040 -0.11000
C 	C 	0.13275 0.73695 0.29063 0.11500
C 	C 	0.07663 0.77185 0.28011 -0.05100
C 	C 	0.04068 0.81163 0.29909 -0.09300
C 	C 	0.04185 0.79544 0.32870 0.08000
H 	H 	0.10626 0.75638 0.36223 0.02300
H 	H 	0.06909 0.77695 0.25714 0.05200
N 	N 	0.17173 0.70300 0.27213 -0.20200
H 	H 	0.21104 0.67387 0.27968 0.09700
H 	H 	0.16072 0.70301 0.24999 0.09000
C 	C 	0.33716 0.06712 0.47109 0.02900
C 	C 	0.40564 0.20837 0.48570 -0.03200
C 	C 	0.34330 0.14864 0.47002 -0.05200
C 	C 	0.27048 0.00465 0.45452 -0.03200
C 	C 	0.28441 0.97656 0.42888 -0.14000
H 	H 	0.41170 0.27160 0.48389 0.03600
H 	H 	0.30058 0.16588 0.45663 0.03700
H 	H 	0.58561 0.28069 0.49717 0.02200
H 	H 	0.20695 0.99429 0.46025 0.03700
H 	H 	0.23217 0.94708 0.41436 0.03100
C 	C 	0.06184 0.50355 0.46719 -0.01100
C 	C 	0.07472 0.47225 0.49361 -0.03100
C 	C 	0.98582 0.51269 0.46109 -0.02400
C 	C 	0.12928 0.52860 0.44643 0.01400
C 	C 	0.15782 0.60480 0.43667 -0.15000
H 	H 	0.13302 0.46450 0.49840 0.03400
H 	H 	0.97463 0.53522 0.44048 0.03600
H 	H 	0.16405 0.48876 0.44262 0.02600
H 	H 	0.12524 0.64617 0.44112 0.06300
C 	C 	0.46782 0.69756 0.57371 -0.04200
C 	C 	0.47389 0.75754 0.55356 -0.04100
C 	C 	0.55053 0.80089 0.54152 0.00600
C 	C 	0.55227 0.84107 0.51379 0.00700
C 	C 	0.57676 0.81174 0.49026 -0.13800
H 	H 	0.40745 0.65974 0.58109 0.03700
H 	H 	0.41807 0.76538 0.54550 0.03800
H 	H 	0.51273 0.87689 0.51114 0.03500
H 	H 	0.62112 0.78116 0.49261 0.06300
C 	C 	0.43112 0.16972 0.69636 -0.04300
C 	C 	0.42169 0.21305 0.67236 -0.09700
C 	C 	0.34916 0.23247 0.66908 0.11200
C 	C 	0.28358 0.19965 0.68808 -0.04600
C 	C 	0.28880 0.14654 0.70964 -0.08800
C 	C 	0.36585 0.13795 0.71546 0.09800
N 	N 	0.37678 0.09781 0.73900 -0.20200
H 	H 	0.48835 0.15848 0.69973 0.03900
H 	H 	0.22578 0.20954 0.68441 0.04700
N 	N 	0.34115 0.28061 0.64745 -0.20100
H 	H 	0.43255 0.08848 0.74266 0.08200
H 	H 	0.33133 0.07880 0.75445 0.08700
H 	H 	0.38927 0.30755 0.63343 0.10600
H 	H 	0.28662 0.29296 0.64481 0.08700
N 	N 	0.11544 0.68239 0.68165 -0.19600
H 	H 	0.15011 0.66768 0.66578 0.07700
H 	H 	0.13982 0.73982 0.69150 0.05800
C 	C 	0.88883 0.49841 0.04533 0.00500
C 	C 	0.95220 0.51196 0.06831 0.00900
C 	C 	0.98981 0.58579 0.08055 -0.14300
H 	H 	0.96072 0.60237 0.02072 0.04100
H 	H 	0.97048 0.46131 0.07465 0.02500
H 	H 	0.96636 0.63458 0.07666 0.07800
C 	C 	0.50575 0.88927 0.97446 0.00100
C 	C 	0.53230 0.86425 0.02411 -0.03900
C 	C 	0.45149 0.80680 0.02567 0.00600
C 	C 	0.40184 0.78450 0.00060 -0.04200
C 	C 	0.42902 0.82542 0.97504 -0.03700
C 	C 	0.41279 0.78388 0.05387 0.00800
C 	C 	0.45430 0.76751 0.07614 -0.15700
H 	H 	0.57181 0.88170 0.04318 0.04100
H 	H 	0.34013 0.73904 0.00137 0.03500
H 	H 	0.38805 0.81135 0.95631 0.03800
H 	H 	0.35071 0.78445 0.05686 0.02800
H 	H 	0.51183 0.75710 0.07276 0.07800
H 	H 	0.54452 0.04875 0.97812 0.07700
C 	C 	0.41776 0.43670 0.00424 0.00400
C 	C 	0.40370 0.50880 0.01061 -0.04000
C 	C 	0.39464 0.52986 0.03905 -0.04400
C 	C 	0.39922 0.47889 0.06143 0.00000
C 	C 	0.41301 0.40651 0.05514 -0.04000
C 	C 	0.42268 0.38568 0.02670 -0.04100
C 	C 	0.39742 0.50579 0.09149 0.00200
C 	C 	0.34451 0.45772 0.11027 -0.17800
H 	H 	0.40113 0.54923 0.99355 0.03600
H 	H 	0.38507 0.58637 0.04373 0.03300
H 	H 	0.41876 0.36773 0.07231 0.03900
H 	H 	0.43257 0.56891 0.09729 0.03900
H 	H 	0.30590 0.39602 0.10390 0.06500
N 	N 	0.91461 0.26446 0.75415 -0.20000
H 	H 	0.88681 0.30444 0.74649 0.08700
H 	H 	0.95465 0.24887 0.74071 0.09400
C 	C 	0.35393 0.00581 0.83148 -0.08000
C 	C 	0.37353 0.08653 0.84106 -0.07900
C 	C 	0.32154 0.12976 0.83297 0.09200
C 	C 	0.25800 0.09527 0.81243 -0.03300
C 	C 	0.23892 0.01485 0.80257 -0.13200
C 	C 	0.28318 0.96763 0.81409 0.14200
N 	N 	0.25461 0.88537 0.81048 -0.20400
H 	H 	0.39132 0.97133 0.83877 0.05800
H 	H 	0.22244 0.13076 0.80442 0.04700
N 	N 	0.33069 0.20297 0.84533 -0.20200
H 	H 	0.29093 0.85191 0.81700 0.08300
H 	H 	0.19341 0.85336 0.80396 0.09700
H 	H 	0.36336 0.22186 0.86470 0.08400
H 	H 	0.29781 0.23798 0.83719 0.07900
Ni	Ni	0.52917 0.23273 0.90923 1.09900
O 	O 	0.54095 0.31325 0.87621 -0.69900
Ni	Ni	0.65533 0.32417 0.86327 1.09500
O 	O 	0.43399 0.25301 0.92983 -0.37600
O 	O 	0.44031 0.37610 0.91346 -0.41300
O 	O 	0.44204 0.14036 0.88613 -0.37100
Ni	Ni	0.54691 0.42178 0.88969 1.06600
O 	O 	0.54029 0.06037 0.90565 -0.41700
O 	O 	0.61940 0.41481 0.92369 -0.42900
O 	O 	0.67056 0.41375 0.83412 -0.39500
O 	O 	0.63601 0.23555 0.89281 -0.71100
O 	O 	0.52575 0.14996 0.93961 -0.38700
O 	O 	0.76264 0.31001 0.85032 -0.37400
O 	O 	0.69470 0.17449 0.84059 -0.41800
Ni	Ni	0.61680 0.12899 0.87500 1.06100
H 	H 	0.50063 0.29281 0.86011 0.15400
H 	H 	0.68050 0.24875 0.90774 0.15200
C 	C 	0.69430 0.41301 0.92035 0.29100
O 	O 	0.52094 0.12943 0.84882 -0.41700
C 	C 	0.43440 0.32664 0.93490 0.31100
C 	C 	0.66337 0.48289 0.84192 0.29300
C 	C 	0.44907 0.12516 0.85887 0.28700
C 	C 	0.76408 0.23822 0.84250 0.27900
C 	C 	0.54140 0.08381 0.93292 0.30300
O 	O 	0.72234 0.40781 0.89439 -0.37800
O 	O 	0.64769 0.49528 0.86872 -0.41300
Ni	Ni	0.74676 0.31642 0.63208 1.09900
O 	O 	0.65147 0.27537 0.60290 -0.70700
Ni	Ni	0.59373 0.35353 0.61011 1.09800
O 	O 	0.76795 0.20926 0.63068 -0.38400
O 	O 	0.63329 0.13447 0.64054 -0.41600
O 	O 	0.82965 0.35561 0.59932 -0.37600
Ni	Ni	0.57189 0.16384 0.60554 1.06700
O 	O 	0.88040 0.48606 0.63454 -0.40500
O 	O 	0.47729 0.17373 0.63004 -0.39400
O 	O 	0.49150 0.29370 0.58515 -0.38800
O 	O 	0.69773 0.40408 0.63523 -0.70400
O 	O 	0.84319 0.36850 0.66013 -0.38100
O 	O 	0.55894 0.45292 0.61592 -0.37700
O 	O 	0.68443 0.53934 0.60112 -0.41800
Ni	Ni	0.77603 0.50256 0.61917 1.06700
H 	H 	0.67227 0.28255 0.58312 0.15300
H 	H 	0.68558 0.41305 0.65542 0.15900
C 	C 	0.48370 0.23044 0.64961 0.30700
O 	O 	0.78016 0.44902 0.58059 -0.42500
C 	C 	0.71210 0.14137 0.63943 0.27600
C 	C 	0.50110 0.24803 0.56385 0.30500
C 	C 	0.81971 0.39824 0.57751 0.30900
C 	C 	0.61280 0.52750 0.61317 0.29300
C 	C 	0.88237 0.44782 0.65869 0.28400
O 	O 	0.53705 0.30486 0.64733 -0.39900
O 	O 	0.50793 0.17707 0.56977 -0.40500
Ni	Ni	0.92281 0.84518 0.73487 1.10100
O 	O 	0.89165 0.07165 0.75589 -0.41900
Ni	Ni	0.83743 0.95290 0.76948 1.07300
O 	O 	0.77607 0.91326 0.73113 -0.39500
O 	O 	0.81051 0.76815 0.74814 -0.38200
O 	O 	0.93770 0.75461 0.71023 -0.37700
C 	C 	0.81512 0.92267 0.70691 0.29800
C 	C 	0.78493 0.77118 0.77453 0.28800
O 	O 	0.86606 0.88384 0.70194 -0.38000
O 	O 	0.78405 0.84010 0.78641 -0.41200
Ni	Ni	0.95249 0.00556 0.27607 1.09700
O 	O 	0.05762 0.08330 0.29639 -0.70600
Ni	Ni	0.08365 0.18118 0.27189 1.09800
O 	O 	0.96374 0.90174 0.29242 -0.36600
O 	O 	0.09836 0.94446 0.27885 -0.41400
O 	O 	0.88840 0.01516 0.31166 -0.39500
O 	O 	0.79628 0.03928 0.24134 -0.42800
O 	O 	0.97107 0.10894 0.25551 -0.70200
O 	O 	0.84341 0.93704 0.25614 -0.38300
O 	O 	0.08007 0.27944 0.24977 -0.37300
O 	O 	0.95500 0.26516 0.26914 -0.40500
Ni	Ni	0.87813 0.14562 0.25878 1.06800
H 	H 	0.04394 0.09855 0.31566 0.14600
H 	H 	0.97603 0.09777 0.23488 0.15400
O 	O 	0.84502 0.11938 0.30047 -0.41300
C 	C 	0.03374 0.88868 0.28991 0.26600
C 	C 	0.83049 0.04713 0.31140 0.29900
C 	C 	0.01780 0.30523 0.25279 0.26800
C 	C 	0.78190 0.96324 0.24971 0.30200
C 	C 	0.96982 0.39368 0.22046 0.10000
N 	N 	0.89061 0.34001 0.21852 -0.19900
H 	H 	0.86607 0.29721 0.23432 0.05500
H 	H 	0.85119 0.34346 0.20172 0.07500
C 	C 	0.55532 0.86721 0.22900 -0.04600
C 	C 	0.55877 0.80891 0.20879 -0.09700
C 	C 	0.63189 0.79036 0.20675 0.11500
C 	C 	0.70172 0.83495 0.22359 -0.04700
C 	C 	0.70170 0.90124 0.24071 -0.09000
C 	C 	0.62641 0.91462 0.24472 0.10200
N 	N 	0.62215 0.97324 0.26330 -0.19200
H 	H 	0.49826 0.87912 0.23127 0.02600
H 	H 	0.75841 0.82238 0.22142 0.05600
N 	N 	0.63669 0.73233 0.18797 -0.20200
H 	H 	0.56623 0.98247 0.26610 0.08200
H 	H 	0.67367 0.00953 0.27534 0.07300
H 	H 	0.58756 0.70040 0.17412 0.11100
H 	H 	0.69098 0.71916 0.18682 0.08900
H 	H 	0.00451 0.90268 0.16634 0.08400
C 	C 	0.65731 0.02187 0.36381 -0.07100
C 	C 	0.60396 0.94246 0.35668 -0.06900
C 	C 	0.62948 0.89484 0.33683 0.08800
C 	C 	0.70630 0.92900 0.32361 -0.02100
C 	C 	0.75693 0.01021 0.32923 -0.12400
C 	C 	0.73463 0.05556 0.35079 0.12000
N 	N 	0.78831 0.12945 0.36002 -0.20200
H 	H 	0.63863 0.05764 0.37952 0.05700
H 	H 	0.72537 0.89303 0.30810 0.04500
N 	N 	0.58094 0.81644 0.33044 -0.19500
H 	H 	0.76974 0.16434 0.37483 0.08400
H 	H 	0.85024 0.15050 0.35411 0.09600
H 	H 	0.59927 0.78273 0.31511 0.08300
N 	N 	0.99221 0.81629 0.34709 -0.20000
H 	H 	0.99726 0.80896 0.36919 0.07700
H 	H 	0.94503 0.83531 0.33950 0.10000
C 	C 	0.39066 0.04503 0.48941 -0.06100
C 	C 	0.45454 0.10517 0.50456 -0.02300
C 	C 	0.46267 0.18723 0.50253 0.00400
C 	C 	0.53919 0.25177 0.51291 0.01500
C 	C 	0.54268 0.29053 0.53816 -0.17000
H 	H 	0.38355 0.98167 0.49161 0.06300
H 	H 	0.49872 0.08823 0.51728 0.03400
H 	H 	0.58778 0.35172 0.54105 0.05500
C 	C 	0.01412 0.45454 0.51444 -0.05700
C 	C 	0.93866 0.46555 0.50870 0.02000
C 	C 	0.92467 0.49417 0.48184 -0.05100
C 	C 	0.87863 0.45682 0.53180 0.00200
C 	C 	0.86219 0.39592 0.55058 -0.15000
H 	H 	0.02694 0.43492 0.53536 0.04200
H 	H 	0.86696 0.50330 0.47723 0.03800
H 	H 	0.84978 0.50231 0.53399 0.03500
H 	H 	0.88681 0.34764 0.54725 0.07600
C 	C 	0.53860 0.68181 0.58241 0.00600
C 	C 	0.62265 0.79264 0.55296 -0.04200
C 	C 	0.61679 0.73302 0.57322 -0.03900
C 	C 	0.52907 0.60257 0.59529 0.00800
C 	C 	0.58416 0.59647 0.61484 -0.14300
H 	H 	0.68256 0.82811 0.54461 0.03800
H 	H 	0.67233 0.72252 0.58004 0.04000
H 	H 	0.48511 0.54760 0.58531 0.03700
H 	H 	0.62287 0.65072 0.62666 0.06400
C 	C 	0.81850 0.10974 0.66836 -0.03800
C 	C 	0.74124 0.08139 0.65386 -0.10400
C 	C 	0.69510 0.99660 0.65265 0.11400
C 	C 	0.72172 0.94393 0.66935 -0.04600
C 	C 	0.79765 0.97325 0.68461 -0.08400
C 	C 	0.84883 0.05582 0.68243 0.08900
N 	N 	0.92705 0.08377 0.69387 -0.19000
H 	H 	0.85548 0.17414 0.66861 0.05500
H 	H 	0.68352 0.88001 0.67033 0.04800
N 	N 	0.62837 0.96504 0.63455 -0.19700
H 	H 	0.96349 0.14552 0.69306 0.08100
H 	H 	0.95323 0.04439 0.70298 0.04000
H 	H 	0.61593 0.99967 0.61830 0.06700
H 	H 	0.59210 0.90320 0.63505 0.08100
C 	C 	0.01333 0.54871 0.67686 -0.04700
C 	C 	0.93413 0.49381 0.68293 -0.09500
C 	C 	0.89565 0.50715 0.70801 0.09600
C 	C 	0.92410 0.58470 0.72114 -0.05100
C 	C 	0.99256 0.64674 0.71021 -0.07400
C 	C 	0.04220 0.62665 0.68976 0.08400
H 	H 	0.04736 0.53493 0.65943 0.04800
H 	H 	0.89001 0.59815 0.73862 0.04700
N 	N 	0.82986 0.44698 0.71885 -0.20400
H 	H 	0.81227 0.38725 0.71101 0.08500
H 	H 	0.79870 0.45858 0.73645 0.08300
C 	C 	0.90527 0.54844 0.02121 -0.03900
C 	C 	0.85184 0.52718 0.99723 -0.04000
C 	C 	0.78202 0.45522 0.99701 0.00600
C 	C 	0.76405 0.40692 0.02146 -0.04200
C 	C 	0.81766 0.42797 0.04540 -0.04000
C 	C 	0.72440 0.43298 0.97203 0.00300
C 	C 	0.75192 0.43115 0.94527 -0.15100
H 	H 	0.86486 0.56635 0.97879 0.04200
H 	H 	0.70929 0.35226 0.02171 0.03500
H 	H 	0.80475 0.38869 0.06381 0.03500
H 	H 	0.65836 0.41459 0.97571 0.03300
H 	H 	0.81731 0.44365 0.94183 0.07600
C 	C 	0.55956 0.90467 0.99851 -0.03800
C 	C 	0.52379 0.94717 0.95059 0.02300
C 	C 	0.53938 0.02663 0.95601 -0.16800
H 	H 	0.62037 0.95174 0.99792 0.03700
H 	H 	0.51441 0.92354 0.92864 0.02900
C 	C 	0.43661 0.41991 0.97446 0.00800
C 	C 	0.40511 0.34473 0.96270 -0.15300
H 	H 	0.43659 0.33136 0.02222 0.03900
H 	H 	0.47681 0.46981 0.96199 0.02300
H 	H 	0.36367 0.29495 0.97487 0.07900
C 	C 	0.85201 0.26314 0.79964 -0.04700
C 	C 	0.83716 0.23403 0.82766 -0.09000
C 	C 	0.88225 0.18757 0.83894 0.08900
C 	C 	0.93174 0.16089 0.82065 -0.05100
C 	C 	0.93588 0.17945 0.79139 -0.10600
C 	C 	0.90162 0.23655 0.78139 0.10900
H 	H 	0.82085 0.30241 0.79144 0.05000
H 	H 	0.96160 0.12036 0.82870 0.03400
N 	N 	0.87735 0.16751 0.86712 -0.20100
H 	H 	0.84484 0.19034 0.88148 0.06200
H 	H 	0.90860 0.13087 0.87514 0.07200
C 	C 	0.63924 0.59085 0.81374 -0.04800
C 	C 	0.69415 0.55322 0.82307 -0.10000
C 	C 	0.77879 0.58660 0.81583 0.11300
C 	C 	0.80610 0.65604 0.79886 -0.05000
C 	C 	0.75181 0.69517 0.79039 -0.09600
C 	C 	0.66704 0.66126 0.79721 0.10700
N 	N 	0.61186 0.69473 0.78747 -0.20100
H 	H 	0.57453 0.56515 0.81934 0.02600
H 	H 	0.87069 0.68148 0.79308 0.03300
N 	N 	0.83452 0.55406 0.82581 -0.20100
H 	H 	0.54980 0.67037 0.79325 0.07800
H 	H 	0.62919 0.74343 0.77343 0.09400
H 	H 	0.81875 0.50829 0.84101 0.10900
H 	H 	0.89595 0.57707 0.81927 0.08700
