data_crystal

_cell_length_a 25.82658
_cell_length_b 22.71214
_cell_length_c 76.72132
_cell_angle_alpha 90.56331
_cell_angle_beta  91.65480
_cell_angle_gamma 110.89758

_symmetry_space_group_name_	'P 1'
_symmetry_space_group_name_H-M	'P 1'

loop_
_symmetry_equiv_pos_as_xyz
  x,y,z

loop_
_atom_site_label
_atom_site_type_symbol
_atom_site_fract_x
_atom_site_fract_y
_atom_site_fract_z
_atom_site_charge
O 	O 	0.00576 0.10694 0.24187 -0.38400
Ni	Ni	0.02181 0.16751 0.20070 1.06300
C 	C 	0.01403 0.25553 0.12033 -0.02400
C 	C 	0.01562 0.31748 0.11851 -0.02800
H 	H 	0.03085 0.17835 0.10812 0.03400
H 	H 	0.00366 0.37152 0.06602 0.03800
H 	H 	0.04489 0.04719 0.11311 0.03300
C 	C 	0.00276 0.74108 0.28681 -0.07600
C 	C 	0.03695 0.07869 0.17349 0.31100
C 	C 	0.03193 0.22624 0.10680 -0.02600
C 	C 	0.01382 0.70902 0.33214 -0.05100
C 	C 	0.03597 0.35047 0.10338 -0.04700
H 	H 	0.03481 0.67520 0.35644 0.03900
O 	O 	0.06125 0.13029 0.18296 -0.39900
C 	C 	0.05403 0.14654 0.23727 0.29300
H 	H 	0.07190 0.99844 0.08771 0.05500
C 	C 	0.03362 0.74896 0.31808 -0.00400
H 	H 	0.03791 0.39871 0.10221 0.04000
C 	C 	0.05223 0.25916 0.09165 -0.04700
H 	H 	0.03186 0.71829 0.28373 0.04500
C 	C 	0.06441 0.06594 0.15871 -0.11000
O 	O 	0.06885 0.14870 0.22095 -0.41800
C 	C 	0.05032 0.70646 0.34568 -0.02800
C 	C 	0.05485 0.32165 0.08994 0.01000
C 	C 	0.04694 0.38138 0.06345 -0.04400
C 	C 	0.07938 0.03078 0.11444 -0.02200
H 	H 	0.06640 0.23637 0.08132 0.04000
H 	H 	0.04600 0.43779 0.04116 0.03900
C 	C 	0.08427 0.05156 0.14606 0.04600
C 	C 	0.09459 0.00304 0.10006 -0.07500
C 	C 	0.09306 0.18203 0.25058 -0.11400
C 	C 	0.07909 0.35764 0.07438 0.00700
C 	C 	0.07088 0.41873 0.04934 -0.03100
C 	C 	0.10687 0.03457 0.13067 -0.01200
C 	C 	0.09012 0.78648 0.31771 -0.03900
C 	C 	0.10673 0.74388 0.34525 -0.01000
C 	C 	0.12285 0.21051 0.26259 0.04400
H 	H 	0.10567 0.81804 0.30701 0.03900
H 	H 	0.13896 0.26405 0.33745 0.04000
C 	C 	0.13760 0.97913 0.10181 0.02800
C 	C 	0.12652 0.78387 0.33125 -0.03300
H 	H 	0.14992 0.32127 0.36563 0.03900
C 	C 	0.12706 0.43255 0.04604 -0.00900
C 	C 	0.13503 0.37034 0.07081 -0.04400
C 	C 	0.15007 0.94433 0.08714 -0.00400
H 	H 	0.17210 0.02340 0.06982 0.02600
H 	H 	0.13013 0.85689 0.10097 0.03800
H 	H 	0.15992 0.33532 0.26925 0.03300
C 	C 	0.15159 0.01351 0.13224 -0.04100
C 	C 	0.14467 0.73894 0.35874 0.04500
C 	C 	0.16754 0.97444 0.07133 -0.02400
C 	C 	0.14416 0.88077 0.08889 -0.03700
C 	C 	0.15842 0.24361 0.27704 -0.01100
H 	H 	0.16023 0.35230 0.07917 0.03900
C 	C 	0.17038 0.30841 0.27946 -0.03100
C 	C 	0.16698 0.98593 0.11785 -0.03700
C 	C 	0.17522 0.30604 0.34003 -0.04400
C 	C 	0.15660 0.84800 0.07507 -0.03600
C 	C 	0.15890 0.40766 0.05668 -0.03200
C 	C 	0.15287 0.47583 0.03251 0.04800
C 	C 	0.17986 0.94157 0.05750 -0.04000
H 	H 	0.16410 0.15937 0.28841 0.03800
H 	H 	0.15271 0.79925 0.07663 0.03900
H 	H 	0.19408 0.96546 0.04543 0.04100
C 	C 	0.18142 0.33844 0.35600 -0.03000
C 	C 	0.17270 0.20939 0.29025 -0.03000
C 	C 	0.17486 0.87845 0.05939 -0.00400
H 	H 	0.17318 0.01647 0.14472 0.03700
H 	H 	0.17011 0.81276 0.33081 0.03500
C 	C 	0.17588 0.73423 0.37015 -0.11400
C 	C 	0.19218 0.33773 0.29551 -0.04400
C 	C 	0.17390 0.51212 0.02115 -0.10800
H 	H 	0.19850 0.38711 0.29757 0.03900
C 	C 	0.19219 0.84646 0.04569 0.04000
C 	C 	0.19456 0.23866 0.30631 -0.04500
O 	O 	0.19402 0.67492 0.39306 -0.36700
C 	C 	0.20229 0.30236 0.30923 0.00800
H 	H 	0.20083 0.96854 0.11927 0.04000
H 	H 	0.20314 0.21120 0.31672 0.03900
O 	O 	0.20121 0.73280 0.01583 -0.36900
H 	H 	0.20236 0.41819 0.05422 0.03700
C 	C 	0.20696 0.82069 0.03405 -0.11100
C 	C 	0.21410 0.32986 0.32705 0.00800
C 	C 	0.19856 0.55724 0.00801 0.32200
O 	O 	0.22017 0.56595 0.39452 -0.38300
C 	C 	0.21202 0.72553 0.38357 0.29700
C 	C 	0.22641 0.39480 0.35907 -0.01000
C 	C 	0.22652 0.43505 0.37368 0.04600
C 	C 	0.22812 0.47018 0.38572 -0.11300
C 	C 	0.23050 0.51587 0.39902 0.30400
C 	C 	0.22724 0.79267 0.02022 0.29000
O 	O 	0.22339 0.61643 0.01279 -0.39900
Ni	Ni	0.24604 0.64772 0.40904 1.09900
C 	C 	0.26100 0.38407 0.33060 -0.04500
C 	C 	0.26712 0.41643 0.34657 -0.03100
O 	O 	0.25699 0.77305 0.38849 -0.41200
O 	O 	0.26612 0.82942 0.01037 -0.41400
H 	H 	0.29156 0.40244 0.32075 0.03900
H 	H 	0.30222 0.45981 0.34891 0.03400
H 	H 	0.30142 0.65338 0.38097 0.15200
O 	O 	0.31006 0.67780 0.39211 -0.70100
O 	O 	0.30990 0.72744 0.00759 -0.70100
H 	H 	0.31236 0.71127 0.01940 0.15500
Ni	Ni	0.33577 0.76792 0.38769 1.06600
Ni	Ni	0.34251 0.81888 0.00797 1.06600
Ni	Ni	0.37051 0.66005 0.40558 1.09700
H 	H 	0.00191 0.34043 0.12891 0.03400
O 	O 	0.41789 0.78212 0.38488 -0.41100
O 	O 	0.42330 0.82372 0.00703 -0.41000
O 	O 	0.42422 0.72320 0.00436 -0.38100
O 	O 	0.42842 0.68644 0.38685 -0.38000
C 	C 	0.43627 0.73924 0.37848 0.29400
C 	C 	0.44033 0.77834 0.01259 0.29700
C 	C 	0.99498 0.75442 0.30423 0.03700
H 	H 	0.98562 0.75520 0.25990 0.03200
C 	C 	0.99698 0.22333 0.13645 0.06100
C 	C 	0.72933 0.86569 0.12813 -0.00800
C 	C 	0.67478 0.86435 0.12875 -0.03100
C 	C 	0.64072 0.85040 0.11366 -0.04300
C 	C 	0.66101 0.83758 0.09786 0.00900
C 	C 	0.71520 0.83734 0.09735 -0.04300
C 	C 	0.74927 0.85137 0.11246 -0.03000
C 	C 	0.62582 0.82559 0.08184 0.00900
C 	C 	0.57648 0.77296 0.08058 -0.04500
C 	C 	0.54073 0.76429 0.06600 -0.03100
C 	C 	0.55408 0.80810 0.05260 -0.01100
C 	C 	0.60393 0.85997 0.05363 -0.03000
C 	C 	0.63977 0.86872 0.06822 -0.04400
C 	C 	0.51575 0.80045 0.03807 0.04500
C 	C 	0.48217 0.79177 0.02621 -0.11900
H 	H 	0.65918 0.87558 0.14081 0.03900
H 	H 	0.59890 0.85063 0.11417 0.04000
H 	H 	0.73104 0.82698 0.08523 0.04200
H 	H 	0.56550 0.73932 0.09100 0.04000
H 	H 	0.50231 0.72394 0.06523 0.03500
H 	H 	0.61457 0.89388 0.04327 0.04000
H 	H 	0.67778 0.90957 0.06912 0.04300
C 	C 	0.55246 0.79896 0.34126 -0.00800
C 	C 	0.60174 0.84961 0.34531 -0.03100
C 	C 	0.63874 0.87708 0.33220 -0.04200
C 	C 	0.62669 0.85403 0.31494 0.00700
C 	C 	0.57814 0.80205 0.31101 -0.04300
C 	C 	0.54115 0.77463 0.32414 -0.03300
C 	C 	0.66421 0.88517 0.30094 0.01300
C 	C 	0.67204 0.94771 0.29667 -0.05000
C 	C 	0.70707 0.97692 0.28324 -0.01100
C 	C 	0.73446 0.94382 0.27402 -0.01200
C 	C 	0.72688 0.88150 0.27832 -0.02800
C 	C 	0.69185 0.85224 0.29173 -0.04600
C 	C 	0.51121 0.77621 0.35428 0.04200
C 	C 	0.47721 0.75783 0.36535 -0.10900
H 	H 	0.61080 0.86863 0.35852 0.04100
H 	H 	0.67639 0.91673 0.33540 0.04300
H 	H 	0.56858 0.78373 0.29775 0.03900
H 	H 	0.50313 0.73551 0.32090 0.03500
H 	H 	0.65075 0.97347 0.30367 0.04500
H 	H 	0.71276 0.02511 0.28000 0.02500
H 	H 	0.74807 0.85569 0.27128 0.04000
H 	H 	0.68626 0.80407 0.29496 0.04100
C 	C 	0.95579 0.78198 0.30806 -0.05500
C 	C 	0.92930 0.80240 0.29455 -0.01900
C 	C 	0.94214 0.79573 0.27718 -0.01900
C 	C 	0.97632 0.76167 0.27331 -0.01000
H 	H 	0.97024 0.68014 0.33258 0.04800
H 	H 	0.94863 0.79133 0.32148 0.04800
Ni	Ni	0.95508 0.03879 0.22503 1.09800
O 	O 	0.95158 0.10069 0.20629 -0.70000
Ni	Ni	0.92254 0.04268 0.18550 1.09500
O 	O 	0.89007 0.05087 0.23782 -0.36900
O 	O 	0.86467 0.90497 0.23511 -0.41000
O 	O 	0.93054 0.10622 0.16579 -0.38400
O 	O 	0.92008 0.98044 0.20474 -0.69400
O 	O 	0.95377 0.97132 0.24234 -0.36900
O 	O 	0.88268 0.97011 0.16830 -0.36900
O 	O 	0.80894 0.93126 0.18596 -0.41100
Ni	Ni	0.84573 0.92384 0.21007 1.06600
H 	H 	0.92398 0.11994 0.20924 0.15600
H 	H 	0.94316 0.95510 0.20202 0.15700
O 	O 	0.82181 0.99436 0.21863 -0.40500
C 	C 	0.96739 0.16446 0.16612 0.31200
C 	C 	0.83752 0.01859 0.23421 0.29100
C 	C 	0.83184 0.93164 0.17081 0.29400
C 	C 	0.91522 0.91430 0.24163 0.29400
O 	O 	0.99523 0.03269 0.17948 -0.39900
O 	O 	0.98378 0.19689 0.18092 -0.41900
C 	C 	0.98269 0.19642 0.14995 -0.11200
C 	C 	0.76622 0.88771 0.14310 0.04600
C 	C 	0.79631 0.90631 0.15581 -0.10400
H 	H 	0.79147 0.85241 0.11190 0.04200
C 	C 	0.77025 0.97343 0.26008 0.04800
C 	C 	0.80065 0.99580 0.24831 -0.09300
C 	C 	0.93144 0.83553 0.26420 0.05000
C 	C 	0.92206 0.86928 0.25354 -0.10700
H 	H 	0.90204 0.82762 0.29764 0.04000
O 	O 	0.34696 0.78942 0.41370 -0.41300
O 	O 	0.22901 0.50030 0.41540 -0.40100
O 	O 	0.41246 0.74482 0.41851 -0.36300
O 	O 	0.41888 0.62088 0.41964 -0.36700
O 	O 	0.34560 0.52873 0.42179 -0.41300
C 	C 	0.39096 0.78785 0.42234 0.26200
O 	O 	0.30920 0.63861 0.42334 -0.70300
C 	C 	0.39876 0.56155 0.42427 0.24500
O 	O 	0.18081 0.61066 0.42527 -0.37000
C 	C 	0.43673 0.52848 0.42907 0.00100
H 	H 	0.07768 0.59428 0.43262 0.05500
H 	H 	0.31926 0.67047 0.43295 0.15400
Ni	Ni	0.28528 0.55478 0.43353 1.06700
C 	C 	0.42295 0.84168 0.43375 -0.00100
C 	C 	0.41867 0.46764 0.43544 -0.04900
H 	H 	0.36150 0.88822 0.43648 0.04800
C 	C 	0.40344 0.88911 0.43856 -0.04400
C 	C 	0.17917 0.57589 0.43921 0.27000
H 	H 	0.37626 0.44122 0.43875 0.03900
C 	C 	0.08150 0.56974 0.44435 -0.03900
O 	O 	0.22489 0.57235 0.44667 -0.41100
C 	C 	0.12785 0.55513 0.44909 0.00200
C 	C 	0.03737 0.52590 0.45228 -0.00500
H 	H 	0.41690 0.00523 0.45521 0.04000
N 	N 	0.11366 0.50450 0.45952 -0.15300
H 	H 	0.42745 0.37944 0.45951 0.05100
H 	H 	0.13601 0.47430 0.46075 0.08000
C 	C 	0.05850 0.48664 0.46152 0.08400
C 	C 	0.02461 0.42451 0.46508 -0.10100
H 	H 	0.04059 0.39415 0.47257 0.05400
H 	H 	0.39097 0.07165 0.55316 0.03800
H 	H 	0.02939 0.64666 0.55640 0.03300
C 	C 	0.40319 0.10010 0.56504 -0.03100
H 	H 	0.32865 0.04717 0.57805 0.04000
C 	C 	0.36796 0.08613 0.57915 -0.04500
H 	H 	0.01030 0.73390 0.58095 0.03800
C 	C 	0.00444 0.64286 0.59069 -0.00400
C 	C 	0.01823 0.70837 0.59195 -0.03900
C 	C 	0.38332 0.12276 0.59460 0.00900
H 	H 	0.00723 0.56039 0.60394 0.03600
C 	C 	0.01631 0.61073 0.60491 -0.04000
C 	C 	0.03747 0.74011 0.60789 -0.03400
H 	H 	0.04419 0.78991 0.60907 0.04400
H 	H 	0.33289 0.19761 0.60858 0.03900
C 	C 	0.34575 0.10865 0.60940 0.00600
H 	H 	0.35004 0.01650 0.61367 0.03700
C 	C 	0.32242 0.15257 0.61489 -0.04200
C 	C 	0.33191 0.05051 0.61771 -0.03900
C 	C 	0.03531 0.64252 0.62088 -0.03600
C 	C 	0.04267 0.70649 0.62266 -0.00500
C 	C 	0.28445 0.13779 0.62826 -0.03400
H 	H 	0.04032 0.61638 0.63215 0.03500
C 	C 	0.29392 0.03579 0.63108 -0.04200
H 	H 	0.26572 0.17143 0.63215 0.03800
C 	C 	0.26956 0.07906 0.63623 -0.00300
H 	H 	0.28261 0.99028 0.63718 0.04700
C 	C 	0.04227 0.73329 0.63972 0.04100
C 	C 	0.22577 0.06110 0.64855 0.04000
C 	C 	0.04166 0.75851 0.65357 -0.09900
C 	C 	0.18911 0.04612 0.65886 -0.10100
O 	O 	0.10267 0.97387 0.66647 -0.36800
C 	C 	0.03499 0.78968 0.66923 0.29200
C 	C 	0.14361 0.02677 0.67044 0.29600
O 	O 	0.07509 0.84263 0.67408 -0.38800
O 	O 	0.13459 0.07098 0.67983 -0.40500
Ni	Ni	0.05715 0.91494 0.68485 1.09700
H 	H 	0.00463 0.99307 0.68971 0.15500
O 	O 	0.03299 0.98220 0.69650 -0.70000
Ni	Ni	0.09532 0.05881 0.70373 1.06400
O 	O 	0.02307 0.86877 0.70605 -0.71700
Ni	Ni	0.00185 0.93638 0.71833 1.09500
C 	C 	0.01061 0.15652 0.78983 -0.06600
C 	C 	0.00958 0.09912 0.74660 -0.12200
C 	C 	0.01990 0.06219 0.73277 0.29900
H 	H 	0.04534 0.14046 0.79098 0.04600
H 	H 	0.04956 0.85503 0.71294 0.15500
O 	O 	0.07341 0.96136 0.73394 -0.37300
O 	O 	0.07160 0.07444 0.72819 -0.41200
H 	H 	0.09642 0.58985 0.93524 0.04400
C 	C 	0.12446 0.97762 0.72837 0.31100
O 	O 	0.13735 0.00519 0.71332 -0.44000
C 	C 	0.16819 0.98508 0.74108 -0.11500
H 	H 	0.18170 0.96881 0.78611 0.03600
H 	H 	0.00763 0.16986 0.81753 0.02400
C 	C 	0.20337 0.99441 0.75250 0.06000
C 	C 	0.22537 0.99253 0.78376 -0.00900
C 	C 	0.24350 0.00462 0.76667 -0.03100
H 	H 	0.24832 0.00643 0.81106 0.04200
C 	C 	0.26306 0.01399 0.79789 -0.05800
C 	C 	0.30005 0.03524 0.76375 -0.02300
H 	H 	0.31441 0.04462 0.75058 0.03300
C 	C 	0.31926 0.04751 0.79502 0.01300
H 	H 	0.34674 0.98707 0.82204 0.04700
C 	C 	0.33788 0.05661 0.77789 -0.05100
C 	C 	0.35784 0.07606 0.80989 0.00900
C 	C 	0.36678 0.03785 0.82303 -0.05300
H 	H 	0.38135 0.08162 0.77555 0.04000
H 	H 	0.37692 0.17178 0.80136 0.04000
C 	C 	0.38398 0.14183 0.81135 -0.04500
C 	C 	0.02043 0.60501 0.94193 0.00100
C 	C 	0.07614 0.61364 0.94342 -0.04400
H 	H 	0.37766 0.38229 0.94281 0.05100
N 	N 	0.37884 0.90948 0.95468 -0.15400
C 	C 	0.00512 0.61923 0.95826 0.06700
C 	C 	0.09235 0.63313 0.96059 0.00100
O 	O 	0.17407 0.60480 0.96047 -0.40600
H 	H 	0.32439 0.45277 0.95978 0.03800
H 	H 	0.34847 0.91965 0.96150 0.08800
C 	C 	0.36553 0.47477 0.96571 -0.04800
C 	C 	0.14260 0.62931 0.96927 0.25900
H 	H 	0.27706 0.69685 0.96824 0.15900
N 	N 	0.04912 0.63650 0.96954 -0.15100
C 	C 	0.36814 0.81314 0.97120 0.26600
Ni	Ni	0.23691 0.58153 0.97122 1.06800
O 	O 	0.37581 0.63616 0.97501 -0.37500
C 	C 	0.35118 0.57455 0.97519 0.24300
O 	O 	0.27530 0.66957 0.97835 -0.70900
O 	O 	0.29932 0.54921 0.98010 -0.40700
O 	O 	0.33357 0.82426 0.98173 -0.41300
H 	H 	0.04621 0.63287 0.98308 0.09300
O 	O 	0.15291 0.64616 0.98601 -0.36900
Ni	Ni	0.35062 0.69304 0.99084 1.10000
O 	O 	0.18664 0.54088 0.99151 -0.39700
Ni	Ni	0.23135 0.69048 0.99679 1.09900
O 	O 	0.38547 0.76594 0.97396 -0.36500
C 	C 	0.38522 0.53490 0.97338 0.00400
C 	C 	0.39337 0.85860 0.95753 -0.00300
C 	C 	0.40159 0.06515 0.83748 -0.02900
H 	H 	0.40079 0.03652 0.95125 0.05300
H 	H 	0.40847 0.03528 0.84752 0.03500
C 	C 	0.41215 0.46383 0.96026 0.00900
C 	C 	0.41273 0.42490 0.94596 -0.08500
C 	C 	0.41889 0.16907 0.82579 -0.03100
C 	C 	0.42279 0.95359 0.94772 0.08900
C 	C 	0.42776 0.13078 0.83888 -0.01200
C 	C 	0.43422 0.17333 0.59583 -0.04500
C 	C 	0.43411 0.01847 0.94997 -0.10000
H 	H 	0.43915 0.21983 0.82677 0.03700
N 	N 	0.44110 0.56030 0.97277 -0.15300
H 	H 	0.44653 0.20176 0.60771 0.03900
C 	C 	0.44697 0.87001 0.95207 -0.04000
C 	C 	0.44984 0.94255 0.44166 0.00400
H 	H 	0.50418 0.84192 0.42906 0.09600
N 	N 	0.49138 0.55875 0.43295 -0.15200
H 	H 	0.51066 0.60774 0.43403 0.09300
N 	N 	0.47903 0.86373 0.43465 -0.15200
H 	H 	0.96700 0.53396 0.43779 0.05100
C 	C 	0.49557 0.92513 0.43918 0.07800
C 	C 	0.50854 0.51746 0.44170 0.07400
C 	C 	0.46460 0.46086 0.44351 0.01000
H 	H 	0.58255 0.94485 0.44566 0.05400
C 	C 	0.98292 0.50358 0.44530 -0.06400
C 	C 	0.54673 0.95803 0.44765 -0.07300
H 	H 	0.87175 0.45390 0.44840 0.08300
C 	C 	0.94909 0.44135 0.44869 0.06800
N 	N 	0.89396 0.42385 0.45037 -0.15000
H 	H 	0.58878 0.57938 0.45210 0.05200
C 	C 	0.45271 0.99212 0.45315 -0.05700
C 	C 	0.55391 0.53597 0.45368 -0.08600
C 	C 	0.46237 0.42282 0.45794 -0.08700
C 	C 	0.96962 0.40265 0.45845 0.03100
C 	C 	0.54940 0.00716 0.45922 0.00200
C 	C 	0.87906 0.37512 0.46143 0.00500
C 	C 	0.50380 0.02443 0.46178 0.06100
C 	C 	0.59579 0.05989 0.46280 -0.04700
O 	O 	0.78399 0.36703 0.46373 -0.41000
H 	H 	0.63730 0.05976 0.46518 0.04500
C 	C 	0.92504 0.36063 0.46680 -0.05200
N 	N 	0.52026 0.08523 0.46700 -0.14900
C 	C 	0.57640 0.10677 0.46826 -0.00400
C 	C 	0.55245 0.49681 0.46786 0.01000
C 	C 	0.50745 0.44129 0.46999 0.07400
C 	C 	0.82744 0.35769 0.47110 0.26400
H 	H 	0.64062 0.51171 0.47131 0.03900
H 	H 	0.49507 0.10571 0.47316 0.09300
H 	H 	0.68953 0.27436 0.47477 0.15800
C 	C 	0.59849 0.48763 0.47528 -0.04900
Ni	Ni	0.72733 0.39026 0.47718 1.06800
H 	H 	0.50237 0.35068 0.47805 0.09400
H 	H 	0.92843 0.33816 0.47895 0.05900
N 	N 	0.52368 0.39943 0.47871 -0.15300
C 	C 	0.60773 0.15642 0.48099 0.26500
O 	O 	0.69716 0.30338 0.48501 -0.70400
O 	O 	0.58849 0.20084 0.48530 -0.36400
C 	C 	0.57897 0.42698 0.48187 0.00300
O 	O 	0.59115 0.32849 0.48732 -0.37100
O 	O 	0.66802 0.41863 0.48900 -0.40600
O 	O 	0.64987 0.15066 0.48969 -0.41600
C 	C 	0.61447 0.38980 0.48546 0.24300
O 	O 	0.82572 0.33304 0.48683 -0.37200
O 	O 	0.78926 0.44116 0.49497 -0.39900
Ni	Ni	0.75488 0.28918 0.50052 1.10000
Ni	Ni	0.63107 0.27900 0.50091 1.10100
C 	C 	0.79593 0.42420 0.51096 0.33100
O 	O 	0.73564 0.15654 0.51457 -0.41800
O 	O 	0.68522 0.25234 0.51485 -0.69900
Ni	Ni	0.65685 0.16093 0.51601 1.06600
O 	O 	0.76958 0.36697 0.51609 -0.40600
O 	O 	0.56811 0.24840 0.51775 -0.37800
O 	O 	0.79935 0.25609 0.51797 -0.37000
O 	O 	0.57517 0.15044 0.51870 -0.41000
C 	C 	0.77843 0.19743 0.52310 0.30100
C 	C 	0.83350 0.46870 0.52308 -0.11000
C 	C 	0.55889 0.19439 0.52565 0.29200
H 	H 	0.69041 0.27123 0.52675 0.15700
H 	H 	0.96790 0.58800 0.53180 0.04400
C 	C 	0.86434 0.50261 0.53410 0.05300
C 	C 	0.79671 0.17999 0.53936 -0.12700
C 	C 	0.52114 0.17815 0.53972 -0.11300
C 	C 	0.95273 0.58226 0.54493 -0.03200
C 	C 	0.89869 0.54131 0.54804 -0.00800
C 	C 	0.49023 0.16527 0.55175 0.04100
C 	C 	0.80847 0.16232 0.55314 0.04600
C 	C 	0.98766 0.61515 0.55887 -0.03200
H 	H 	0.88891 0.11654 0.56061 0.03900
C 	C 	0.87954 0.53395 0.56506 -0.02800
C 	C 	0.45392 0.15073 0.56628 -0.01000
H 	H 	0.83788 0.50224 0.56756 0.03900
C 	C 	0.82109 0.14161 0.56982 -0.01500
C 	C 	0.86227 0.11506 0.57139 -0.02800
C 	C 	0.96869 0.60695 0.57597 0.01900
C 	C 	0.91431 0.56662 0.57896 -0.04500
C 	C 	0.46940 0.18724 0.58171 -0.03200
H 	H 	0.50862 0.22639 0.58277 0.03500
C 	C 	0.78699 0.13974 0.58386 -0.03000
H 	H 	0.75516 0.16039 0.58274 0.03000
C 	C 	0.86737 0.08380 0.58656 -0.04700
H 	H 	0.89840 0.06197 0.58752 0.04300
H 	H 	0.89897 0.56078 0.59207 0.04400
C 	C 	0.79205 0.10846 0.59904 -0.04800
C 	C 	0.83125 0.07893 0.60024 0.01300
H 	H 	0.80107 0.95199 0.60106 0.04000
H 	H 	0.76445 0.10555 0.60963 0.03900
C 	C 	0.81875 0.97529 0.61337 -0.02900
C 	C 	0.83305 0.04067 0.61543 -0.00500
H 	H 	0.82242 0.89074 0.62476 0.04300
C 	C 	0.83044 0.94054 0.62684 -0.03600
C 	C 	0.85435 0.07003 0.63158 -0.03600
H 	H 	0.86456 0.12034 0.63339 0.03800
C 	C 	0.85661 0.97098 0.64239 0.00300
C 	C 	0.86594 0.03517 0.64506 -0.04400
C 	C 	0.88453 0.94066 0.65358 0.04500
H 	H 	0.88554 0.05891 0.65715 0.03600
C 	C 	0.90781 0.91495 0.66289 -0.10900
O 	O 	0.98973 0.89315 0.66788 -0.36600
C 	C 	0.94013 0.88707 0.67296 0.30300
O 	O 	0.98342 0.77748 0.67420 -0.39700
O 	O 	0.91894 0.85249 0.68638 -0.41000
Ni	Ni	0.95746 0.79734 0.69790 1.06600
C 	C 	0.99825 0.12568 0.75877 0.05800
Ni	Ni	0.72866 0.31594 0.91161 1.09800
O 	O 	0.66237 0.27594 0.89442 -0.70000
Ni	Ni	0.60198 0.29620 0.90619 1.09700
O 	O 	0.78036 0.28468 0.89744 -0.36500
O 	O 	0.71928 0.18377 0.89404 -0.41300
O 	O 	0.75050 0.39120 0.89535 -0.38200
Ni	Ni	0.63897 0.18434 0.89203 1.06500
O 	O 	0.63198 0.17385 0.91832 -0.41200
O 	O 	0.54173 0.25912 0.88724 -0.38100
O 	O 	0.66606 0.32875 0.92432 -0.70100
O 	O 	0.55269 0.33798 0.91806 -0.36800
O 	O 	0.62358 0.43276 0.91858 -0.41300
Ni	Ni	0.68765 0.41692 0.93224 1.06700
H 	H 	0.66879 0.29542 0.88281 0.15100
C 	C 	0.58891 0.17775 0.92621 0.26000
O 	O 	0.73992 0.46514 0.91357 -0.39800
C 	C 	0.76199 0.23092 0.88865 0.29800
C 	C 	0.53575 0.20409 0.88004 0.29700
C 	C 	0.73961 0.44273 0.89777 0.30100
C 	C 	0.57153 0.39909 0.92132 0.24600
O 	O 	0.56470 0.21684 0.92073 -0.36500
O 	O 	0.55598 0.16542 0.88806 -0.41300
O 	O 	0.98187 0.00677 0.72924 -0.38300
N 	N 	0.47807 0.40170 0.92748 -0.15200
C 	C 	0.53319 0.43168 0.92559 -0.00000
C 	C 	0.55086 0.49204 0.93294 -0.04800
H 	H 	0.45825 0.35273 0.92759 0.09200
C 	C 	0.79427 0.22063 0.87483 -0.11600
C 	C 	0.46565 0.15844 0.85334 0.04300
C 	C 	0.49716 0.18029 0.86560 -0.11600
C 	C 	0.75736 0.51889 0.87107 0.04500
C 	C 	0.74850 0.48517 0.88351 -0.10500
O 	O 	0.79536 0.36218 0.92812 -0.36700
O 	O 	0.96430 0.87790 0.73807 -0.36000
O 	O 	0.91167 0.79738 0.71988 -0.40700
C 	C 	0.93353 0.81819 0.73547 0.29600
C 	C 	0.98220 0.55996 0.93078 -0.07100
N 	N 	0.89009 0.48108 0.92959 -0.15000
H 	H 	0.99591 0.53999 0.91972 0.05400
H 	H 	0.89745 0.45248 0.91994 0.09800
C 	C 	0.98526 0.15721 0.77346 0.00800
C 	C 	0.98903 0.17276 0.80488 -0.00600
C 	C 	0.94198 0.18990 0.80364 -0.00600
C 	C 	0.91901 0.19479 0.78715 -0.03300
C 	C 	0.94066 0.17855 0.77211 -0.04000
C 	C 	0.91397 0.19737 0.81955 0.01600
C 	C 	0.89033 0.14565 0.83033 -0.04700
C 	C 	0.86066 0.15152 0.84480 -0.03000
C 	C 	0.85443 0.20905 0.84858 -0.01100
C 	C 	0.87882 0.26104 0.83801 -0.02900
C 	C 	0.90849 0.25524 0.82354 -0.04700
C 	C 	0.82152 0.21437 0.86293 0.04500
H 	H 	0.88300 0.20857 0.78604 0.03700
H 	H 	0.92099 0.17954 0.75950 0.03900
H 	H 	0.89413 0.10069 0.82732 0.04200
H 	H 	0.84197 0.11117 0.85292 0.03700
H 	H 	0.87426 0.30572 0.84088 0.03900
H 	H 	0.92671 0.29546 0.81533 0.04200
C 	C 	0.76722 0.55827 0.85602 -0.00800
C 	C 	0.80959 0.61771 0.85667 -0.02900
C 	C 	0.82567 0.65141 0.84137 -0.04300
C 	C 	0.79943 0.62577 0.82532 0.00900
C 	C 	0.75524 0.56764 0.82482 -0.04400
C 	C 	0.73920 0.53402 0.84013 -0.03100
C 	C 	0.82056 0.65771 0.80896 0.00900
C 	C 	0.81832 0.71742 0.80566 -0.04300
C 	C 	0.84015 0.74855 0.79042 -0.03000
C 	C 	0.86437 0.72020 0.77839 -0.00700
C 	C 	0.86615 0.66031 0.78158 -0.03200
C 	C 	0.84433 0.62913 0.79681 -0.04300
C 	C 	0.88888 0.75347 0.76307 0.04500
C 	C 	0.90915 0.78219 0.75033 -0.10400
H 	H 	0.83136 0.63683 0.86892 0.04200
H 	H 	0.85964 0.69643 0.84190 0.04300
H 	H 	0.73430 0.54782 0.81253 0.04000
H 	H 	0.70628 0.48817 0.83954 0.03500
H 	H 	0.79992 0.73978 0.81493 0.04200
H 	H 	0.83863 0.79486 0.78803 0.04300
H 	H 	0.88487 0.63816 0.77235 0.03500
H 	H 	0.84645 0.58315 0.79928 0.04000
H 	H 	0.65831 0.30178 0.93469 0.15200
H 	H 	0.60735 0.07036 0.93570 0.08400
C 	C 	0.92639 0.53723 0.93528 0.07900
C 	C 	0.46026 0.44302 0.93588 0.07400
H 	H 	0.59284 0.51779 0.93776 0.03500
C 	C 	0.56236 0.13136 0.93956 -0.00100
H 	H 	0.48158 0.14294 0.93946 0.05600
C 	C 	0.50424 0.49900 0.93956 0.01100
C 	C 	0.79801 0.41025 0.93841 0.27200
N 	N 	0.57680 0.08045 0.94246 -0.15000
C 	C 	0.85181 0.46074 0.94191 0.00300
C 	C 	0.46563 0.93069 0.94585 0.00300
C 	C 	0.50850 0.11984 0.94480 -0.05100
H 	H 	0.55458 0.95334 0.94560 0.05100
C 	C 	0.52125 0.97137 0.94687 -0.06800
O 	O 	0.75364 0.41190 0.94620 -0.41300
C 	C 	0.53258 0.03620 0.94924 0.06000
C 	C 	0.48973 0.05909 0.95098 0.01900
C 	C 	0.91055 0.55367 0.95126 0.00900
C 	C 	0.50482 0.53590 0.95434 -0.08600
H 	H 	0.47405 0.84705 0.95738 0.05600
C 	C 	0.86232 0.50513 0.95539 -0.04500
H 	H 	0.54000 0.57845 0.95749 0.05200
C 	C 	0.45766 0.51793 0.96454 0.07600
C 	C 	0.95029 0.59078 0.96357 -0.07000
H 	H 	0.84614 0.49544 0.96834 0.04600
H 	H 	0.46397 0.60871 0.97340 0.09600
H 	H 	0.93989 0.59378 0.97705 0.05300
