data_crystal

_cell_length_a 27.75488
_cell_length_b 28.95494
_cell_length_c 47.67403
_cell_angle_alpha 60.63571
_cell_angle_beta  119.08355
_cell_angle_gamma 133.33091

_symmetry_space_group_name_	'P 1'
_symmetry_space_group_name_H-M	'P 1'

loop_
_symmetry_equiv_pos_as_xyz
  x,y,z

loop_
_atom_site_label
_atom_site_type_symbol
_atom_site_fract_x
_atom_site_fract_y
_atom_site_fract_z
_atom_site_charge
C 	C 	0.58851 0.27607 0.00335 0.12800
C 	C 	0.63203 0.29447 0.51066 0.13000
C 	C 	0.24993 0.63160 0.16241 0.12700
N 	N 	0.31912 0.66935 0.16913 -0.13600
C 	C 	0.35033 0.65174 0.16596 0.12900
N 	N 	0.31247 0.59668 0.15597 -0.13500
C 	C 	0.24351 0.55922 0.14877 0.12900
N 	N 	0.21198 0.57671 0.15190 -0.13100
C 	C 	0.29355 0.64420 0.67230 0.12600
N 	N 	0.36089 0.68995 0.67228 -0.13400
C 	C 	0.39201 0.67905 0.66388 0.13000
N 	N 	0.35545 0.62336 0.65485 -0.13700
C 	C 	0.29066 0.57446 0.65837 0.12900
N 	N 	0.25905 0.58499 0.66685 -0.13200
Co	Co	0.02767 0.99987 0.05518 1.19600
Co	Co	0.99362 0.05439 0.08402 1.18100
C 	C 	0.15987 0.04248 0.05605 0.28900
Co	Co	0.05184 0.90048 0.06127 1.17000
O 	O 	0.02812 0.07531 0.04746 -0.46000
C 	C 	0.08321 0.15006 0.12704 0.29900
C 	C 	0.09949 0.87281 0.13400 0.30100
O 	O 	0.04957 0.10921 0.15056 -0.39000
O 	O 	0.08236 0.12817 0.10790 -0.38300
O 	O 	0.12072 0.90927 0.10649 -0.38800
O 	O 	0.06322 0.87773 0.14154 -0.37900
O 	O 	0.01223 0.92598 0.07458 -0.75600
O 	O 	0.12207 0.99690 0.04026 -0.38800
O 	O 	0.13172 0.04728 0.06917 -0.39800
Co	Co	0.05843 0.00340 0.56061 1.17900
Co	Co	0.01882 0.06043 0.58466 1.18700
C 	C 	0.18677 0.04578 0.55644 0.28700
Co	Co	0.08229 0.90214 0.56887 1.16900
O 	O 	0.05558 0.07837 0.54999 -0.46200
C 	C 	0.09292 0.17482 0.60945 0.30600
C 	C 	0.14474 0.88876 0.64044 0.30000
O 	O 	0.03174 0.15151 0.60837 -0.40200
O 	O 	0.10200 0.14037 0.60461 -0.39200
O 	O 	0.15914 0.91998 0.61131 -0.38800
O 	O 	0.11250 0.89679 0.64907 -0.37700
O 	O 	0.04729 0.93164 0.58263 -0.75100
O 	O 	0.14615 0.99624 0.54302 -0.38800
O 	O 	0.16246 0.05409 0.57004 -0.39400
C 	C 	0.03149 0.02248 0.94580 -0.00100
C 	C 	0.03823 0.02871 0.91654 -0.07200
C 	C 	0.09210 0.04865 0.77666 -0.10100
C 	C 	0.09983 0.05663 0.74730 0.03900
H 	H 	0.06860 0.06332 0.95729 0.04200
H 	H 	0.07948 0.07475 0.90536 0.05200
H 	H 	0.12649 0.08980 0.78770 0.05900
H 	H 	0.13944 0.10412 0.73583 0.03900
C 	C 	0.04691 0.01097 0.42261 -0.08400
C 	C 	0.04362 0.00793 0.45203 0.00600
C 	C 	0.07689 0.97230 0.35380 -0.03200
C 	C 	0.07130 0.97358 0.38112 -0.03000
C 	C 	0.06968 0.01368 0.24716 -0.00500
C 	C 	0.07346 0.01142 0.27823 -0.07500
H 	H 	0.08463 0.05697 0.40936 0.05400
H 	H 	0.07996 0.05126 0.46154 0.04000
H 	H 	0.12435 0.98571 0.35406 0.05100
H 	H 	0.11436 0.98749 0.40227 0.04900
H 	H 	0.10204 0.06030 0.23174 0.04500
H 	H 	0.10969 0.05599 0.28667 0.05300
C 	C 	0.17978 0.34925 0.59977 -0.04100
C 	C 	0.20295 0.34885 0.63361 0.02700
C 	C 	0.20733 0.29757 0.65767 -0.05800
C 	C 	0.18581 0.24604 0.64820 0.02700
C 	C 	0.15037 0.24028 0.61540 -0.08300
C 	C 	0.15259 0.29446 0.59090 0.01800
C 	C 	0.22221 0.40157 0.64406 0.01200
C 	C 	0.17444 0.41362 0.63467 -0.04100
C 	C 	0.19412 0.46774 0.64104 -0.00200
C 	C 	0.26093 0.50755 0.65909 -0.01700
C 	C 	0.30508 0.48945 0.67238 -0.01800
C 	C 	0.28801 0.43995 0.66318 -0.02500
C 	C 	0.14592 0.48249 0.62847 0.09400
C 	C 	0.33984 0.43200 0.67153 0.08800
C 	C 	0.18341 0.40525 0.57412 0.09800
C 	C 	0.20118 0.19988 0.67200 0.08100
N 	N 	0.10718 0.49417 0.61838 -0.10200
N 	N 	0.38137 0.42567 0.67821 -0.10700
N 	N 	0.21391 0.16310 0.69100 -0.10600
N 	N 	0.18629 0.45011 0.55356 -0.10500
H 	H 	0.12843 0.29186 0.56522 0.04100
H 	H 	0.22743 0.29781 0.68365 0.05600
H 	H 	0.12281 0.38243 0.62126 0.05700
H 	H 	0.35539 0.51793 0.68761 0.05000
C 	C 	0.60015 0.77914 0.67142 0.01300
C 	C 	0.56993 0.81236 0.65105 -0.04200
C 	C 	0.50321 0.78276 0.65063 -0.00100
C 	C 	0.46674 0.71971 0.67108 -0.01800
C 	C 	0.49959 0.68957 0.69374 -0.01700
C 	C 	0.56504 0.71780 0.69328 -0.02400
C 	C 	0.47178 0.81635 0.62837 0.09100
N 	N 	0.44655 0.84323 0.61054 -0.10200
H 	H 	0.59758 0.86031 0.63481 0.05600
H 	H 	0.47199 0.64160 0.71000 0.04800
C 	C 	0.25450 0.70203 0.70890 -0.02300
C 	C 	0.21473 0.72095 0.68071 0.01200
C 	C 	0.19290 0.70559 0.65111 -0.04000
C 	C 	0.21412 0.67565 0.64877 -0.00200
C 	C 	0.25753 0.66053 0.67637 -0.01400
C 	C 	0.27573 0.67204 0.70658 -0.01900
C 	C 	0.20115 0.76240 0.68091 0.02800
C 	C 	0.25253 0.82984 0.67783 -0.05800
C 	C 	0.23662 0.87223 0.66984 0.03100
C 	C 	0.16840 0.84724 0.66410 -0.08100
C 	C 	0.11951 0.77914 0.67220 0.01200
C 	C 	0.13516 0.73657 0.68000 -0.04000
C 	C 	0.28997 0.94166 0.66612 0.08700
C 	C 	0.08271 0.66679 0.68580 0.09900
C 	C 	0.27444 0.71398 0.74014 0.09200
C 	C 	0.19400 0.66377 0.61747 0.09300
N 	N 	0.33273 0.99730 0.66312 -0.09400
N 	N 	0.04072 0.61085 0.69044 -0.10800
N 	N 	0.17796 0.65434 0.59238 -0.10100
N 	N 	0.29041 0.72357 0.76516 -0.10500
H 	H 	0.30850 0.65986 0.72796 0.05100
H 	H 	0.16146 0.71920 0.62952 0.05200
H 	H 	0.30413 0.84964 0.68001 0.06300
H 	H 	0.06776 0.75956 0.66940 0.04700
C 	C 	0.20335 0.45717 0.10363 -0.02200
C 	C 	0.16317 0.39347 0.12267 0.01200
C 	C 	0.13881 0.38425 0.14612 -0.04200
C 	C 	0.15927 0.43831 0.15282 -0.00300
C 	C 	0.20366 0.50235 0.13546 -0.01400
C 	C 	0.22164 0.51090 0.10949 -0.01700
C 	C 	0.15190 0.33701 0.12059 0.02700
C 	C 	0.18618 0.31025 0.14671 -0.06100
C 	C 	0.16995 0.25205 0.14736 0.03100
C 	C 	0.11981 0.22079 0.12135 -0.08500
C 	C 	0.09212 0.25211 0.09336 0.01400
C 	C 	0.10536 0.30828 0.09344 -0.03900
C 	C 	0.20364 0.22373 0.17520 0.07900
C 	C 	0.06814 0.33377 0.06654 0.09900
C 	C 	0.22888 0.46814 0.07922 0.09500
C 	C 	0.13706 0.42771 0.17855 0.09000
N 	N 	0.23057 0.20100 0.19751 -0.10600
N 	N 	0.03826 0.35414 0.04500 -0.11100
N 	N 	0.11927 0.41922 0.19918 -0.10500
N 	N 	0.24931 0.47690 0.05967 -0.10400
H 	H 	0.25416 0.56001 0.09543 0.05500
H 	H 	0.10639 0.33511 0.16018 0.05100
H 	H 	0.22371 0.33351 0.16709 0.05800
H 	H 	0.05561 0.22953 0.07275 0.04500
C 	C 	0.55686 0.76436 0.16435 0.01200
C 	C 	0.53035 0.70683 0.18939 -0.04200
C 	C 	0.46456 0.67250 0.19227 -0.00200
C 	C 	0.42455 0.69564 0.16971 -0.01700
C 	C 	0.45320 0.75591 0.14638 -0.01800
C 	C 	0.51897 0.79021 0.14346 -0.02300
C 	C 	0.43808 0.61320 0.21821 0.08800
C 	C 	0.54652 0.85089 0.11837 0.09300
C 	C 	0.57032 0.72828 0.12274 0.09800
N 	N 	0.41682 0.56568 0.23897 -0.10600
N 	N 	0.56866 0.89951 0.09828 -0.10000
N 	N 	0.52260 0.68646 0.10978 -0.10800
H 	H 	0.42287 0.77427 0.12929 0.05400
C 	C 	0.08562 0.71935 0.16797 -0.04200
C 	C 	0.15370 0.74576 0.17230 0.02900
C 	C 	0.20531 0.81148 0.17372 -0.05900
C 	C 	0.18856 0.85264 0.16669 0.03200
C 	C 	0.11954 0.82843 0.15720 -0.08300
C 	C 	0.06911 0.76073 0.16101 0.01400
C 	C 	0.17023 0.70791 0.17084 0.01200
C 	C 	0.15514 0.70009 0.14011 -0.04000
C 	C 	0.17788 0.67204 0.13732 -0.00300
C 	C 	0.21634 0.65155 0.16556 -0.01400
C 	C 	0.22878 0.65669 0.19654 -0.01800
C 	C 	0.20573 0.68448 0.19934 -0.02300
C 	C 	0.16373 0.66676 0.10519 0.09000
C 	C 	0.21898 0.68906 0.23148 0.09300
C 	C 	0.03219 0.65055 0.16929 0.10500
C 	C 	0.24226 0.92023 0.16811 0.08500
N 	N 	0.15241 0.66252 0.07945 -0.10500
N 	N 	0.22957 0.69275 0.25722 -0.10500
N 	N 	0.28533 0.97439 0.16928 -0.09600
N 	N 	0.98939 0.59542 0.17034 -0.11300
H 	H 	0.01629 0.74133 0.15542 0.04700
H 	H 	0.25814 0.83129 0.17868 0.06300
H 	H 	0.12731 0.71757 0.11821 0.05100
H 	H 	0.25762 0.64025 0.21836 0.05400
C 	C 	0.35372 0.08613 0.56779 -0.04000
C 	C 	0.38591 0.15059 0.54781 0.02600
C 	C 	0.35745 0.18428 0.53568 -0.06000
C 	C 	0.29476 0.15252 0.54140 0.02700
C 	C 	0.26042 0.08656 0.55956 -0.08000
C 	C 	0.29220 0.05520 0.57417 0.01200
C 	C 	0.44877 0.18270 0.53897 0.01100
C 	C 	0.44540 0.18958 0.50691 -0.04400
C 	C 	0.50473 0.22120 0.49791 -0.00300
C 	C 	0.56778 0.24539 0.52129 -0.01900
C 	C 	0.57008 0.23406 0.55396 -0.01800
C 	C 	0.51156 0.20491 0.56263 -0.02400
C 	C 	0.50069 0.22959 0.46456 0.08600
C 	C 	0.51676 0.20006 0.59550 0.09100
C 	C 	0.38202 0.05039 0.58068 0.09200
C 	C 	0.26476 0.18703 0.52744 0.07600
N 	N 	0.49751 0.23633 0.43784 -0.10500
N 	N 	0.52088 0.19614 0.62182 -0.10700
N 	N 	0.24070 0.21467 0.51625 -0.10400
N 	N 	0.40470 0.02177 0.59101 -0.11500
H 	H 	0.26640 0.00478 0.58847 0.03800
H 	H 	0.38321 0.23456 0.52107 0.05800
H 	H 	0.39680 0.17116 0.48890 0.05000
H 	H 	0.61862 0.25219 0.57205 0.04700
N 	N 	0.00308 0.24235 0.00177 -0.09700
C 	C 	0.48332 0.19718 0.06123 -0.02300
C 	C 	0.41721 0.16814 0.04050 0.01000
C 	C 	0.40702 0.16516 0.00938 -0.04100
C 	C 	0.46278 0.19497 0.99793 -0.00600
C 	C 	0.52918 0.22718 0.01795 -0.01700
C 	C 	0.53849 0.22461 0.05024 -0.01900
C 	C 	0.35855 0.14237 0.05069 0.02700
C 	C 	0.32956 0.17651 0.03529 -0.06000
C 	C 	0.26739 0.14761 0.04039 0.02800
C 	C 	0.23411 0.08415 0.06115 -0.08000
C 	C 	0.26775 0.05412 0.07980 0.01000
C 	C 	0.32872 0.08189 0.07404 -0.04000
C 	C 	0.23627 0.18180 0.02289 0.07500
C 	C 	0.35838 0.04639 0.09088 0.09200
C 	C 	0.49535 0.20173 0.09316 0.09100
C 	C 	0.45165 0.19372 0.96533 0.08400
N 	N 	0.21129 0.20917 0.00886 -0.10300
N 	N 	0.38213 0.01796 0.10438 -0.11500
N 	N 	0.44276 0.19273 0.93921 -0.10900
N 	N 	0.50494 0.20536 0.11872 -0.10700
H 	H 	0.58964 0.24873 0.06584 0.05000
H 	H 	0.35590 0.14126 0.99376 0.04800
H 	H 	0.35390 0.22426 0.01827 0.05800
H 	H 	0.24327 0.00619 0.09658 0.04200
H 	H 	0.62674 0.78664 0.62142 0.06100
H 	H 	0.56044 0.68812 0.20618 0.05400
O 	O 	0.99333 0.99178 0.00609 -0.36000
O 	O 	0.00481 0.95437 0.18069 -0.37500
C 	C 	0.00491 0.94066 0.50502 0.29300
O 	O 	0.01553 0.98582 0.51300 -0.35700
O 	O 	0.04942 0.07002 0.67543 -0.38700
C 	C 	0.00288 0.95431 0.41092 0.05400
C 	C 	0.00994 0.95603 0.38128 0.00400
C 	C 	0.02115 0.95330 0.32638 0.00700
C 	C 	0.02714 0.95288 0.29710 0.05100
C 	C 	0.59448 0.68207 0.71414 0.09200
C 	C 	0.06635 0.99311 0.87616 -0.02000
C 	C 	0.07664 0.99506 0.84943 -0.01000
H 	H 	0.10591 0.00216 0.89887 0.03000
H 	H 	0.12427 0.00619 0.85169 0.02900
Co	Co	0.02383 0.89152 0.61915 1.18800
C 	C 	0.04918 0.01895 0.69638 0.28400
O 	O 	0.04915 0.98314 0.68651 -0.35900
C 	C 	0.00496 0.97895 0.87367 0.00900
C 	C 	0.02565 0.98281 0.81987 -0.00800
C 	C 	0.01869 0.95782 0.23437 -0.04900
C 	C 	0.03820 0.98881 0.79080 0.07300
C 	C 	0.05389 0.00482 0.73167 -0.11300
N 	N 	0.61809 0.65348 0.73084 -0.10800
O 	O 	0.02279 0.80607 0.59493 -0.40100
N 	N 	0.62546 0.25899 0.00569 -0.13400
N 	N 	0.61730 0.34005 0.99752 -0.13800
N 	N 	0.66765 0.35704 0.51129 -0.13700
N 	N 	0.66435 0.27485 0.51044 -0.13400
C 	C 	0.69237 0.30548 0.00491 0.12700
C 	C 	0.68584 0.38463 0.00213 0.12800
C 	C 	0.73281 0.31680 0.51310 0.12700
C 	C 	0.73664 0.39545 0.51897 0.12800
C 	C 	0.72626 0.83397 0.69407 -0.04100
C 	C 	0.66738 0.80770 0.66871 0.02800
C 	C 	0.67228 0.80812 0.64062 -0.05800
C 	C 	0.72292 0.83565 0.72285 0.09500
N 	N 	0.72024 0.83697 0.74589 -0.11300
C 	C 	0.62982 0.78046 0.13893 -0.04000
C 	C 	0.62419 0.79704 0.15999 0.02800
C 	C 	0.68262 0.84673 0.17605 -0.05900
H 	H 	0.67837 0.85863 0.19269 0.05800
C 	C 	0.74601 0.43408 0.55880 -0.01800
C 	C 	0.73359 0.47117 0.58975 0.09000
N 	N 	0.70532 0.46014 0.60618 -0.10600
H 	H 	0.70412 0.38449 0.56747 0.04900
N 	N 	0.66450 0.06588 0.05187 -0.11000
H 	H 	0.66537 0.25549 0.96001 0.05400
C 	C 	0.67522 0.48528 0.05569 0.09000
N 	N 	0.64489 0.48065 0.06822 -0.10600
H 	H 	0.64022 0.39035 0.03796 0.05100
N 	N 	0.68763 0.17299 0.93873 -0.10800
C 	C 	0.68668 0.43693 0.03116 -0.01800
N 	N 	0.72355 0.36771 0.00497 -0.13100
N 	N 	0.76954 0.37574 0.51932 -0.13400
C 	C 	0.73585 0.83760 0.63685 0.03100
C 	C 	0.79516 0.86625 0.66166 -0.08300
C 	C 	0.78921 0.86093 0.69091 0.01700
C 	C 	0.73996 0.83998 0.60705 0.08800
N 	N 	0.74325 0.84188 0.58318 -0.10000
C 	C 	0.74614 0.88217 0.17015 0.02800
C 	C 	0.75153 0.86768 0.14790 -0.07800
C 	C 	0.69347 0.81569 0.13309 0.01700
H 	H 	0.69744 0.80408 0.11619 0.04700
C 	C 	0.74989 0.27609 0.48521 -0.00200
C 	C 	0.76781 0.29541 0.51280 -0.01500
C 	C 	0.81497 0.28858 0.54138 -0.01900
C 	C 	0.75850 0.01608 0.54330 0.05400
C 	C 	0.70465 0.28628 0.45476 0.09000
N 	N 	0.71798 0.95986 0.54844 -0.08400
N 	N 	0.66838 0.29444 0.43039 -0.10300
H 	H 	0.82954 0.30421 0.56246 0.05000
H 	H 	0.73750 0.10530 0.52483 0.05600
C 	C 	0.77347 0.44712 0.53549 -0.01800
C 	C 	0.76890 0.48495 0.56923 -0.02500
C 	C 	0.73550 0.22969 0.98379 -0.02300
C 	C 	0.73127 0.28749 0.00529 -0.01300
C 	C 	0.70737 0.25808 0.98082 -0.01900
C 	C 	0.71449 0.09223 0.04533 0.09400
C 	C 	0.70891 0.19823 0.95876 0.09100
C 	C 	0.71895 0.44242 0.01316 -0.01600
C 	C 	0.71313 0.49109 0.04004 -0.02400
N 	N 	0.76561 0.67347 0.95913 -0.11200
O 	O 	0.00269 0.88949 0.52765 -0.39000
C 	C 	0.78948 0.12684 0.52656 -0.06700
C 	C 	0.99329 0.97488 0.90246 0.03900
C 	C 	0.84069 0.25864 0.54353 -0.02400
N 	N 	0.77995 0.65105 0.48373 -0.11200
C 	C 	0.97999 0.96229 0.96140 -0.06300
C 	C 	0.98484 0.94976 0.99648 0.28500
H 	H 	0.90627 0.95540 0.84188 0.05100
O 	O 	0.97927 0.89607 0.01747 -0.39100
Co	Co	0.93875 0.93059 0.13539 1.19200
Co	Co	0.97924 0.87873 0.10851 1.18400
Co	Co	0.94473 0.04390 0.13846 1.16200
C 	C 	0.92242 0.77420 0.07955 0.30500
O 	O 	0.94292 0.11367 0.09507 -0.41000
O 	O 	0.95668 0.00551 0.11664 -0.77600
C 	C 	0.91085 0.10117 0.06578 0.30500
O 	O 	0.93526 0.85380 0.14204 -0.45800
C 	C 	0.81589 0.91045 0.13774 0.29500
O 	O 	0.96016 0.95537 0.08780 -0.57300
O 	O 	0.92385 0.07674 0.05543 -0.38500
O 	O 	0.84228 0.97333 0.12445 -0.37600
O 	O 	0.83984 0.88344 0.13748 -0.37200
C 	C 	0.99152 0.96698 0.19818 0.29000
O 	O 	0.94629 0.97913 0.18440 -0.38800
O 	O 	0.98610 0.80186 0.08229 -0.40800
O 	O 	0.90695 0.79550 0.09058 -0.38200
Co	Co	0.98377 0.94847 0.64324 1.19100
Co	Co	0.96852 0.05743 0.63490 1.16300
C 	C 	0.96086 0.77797 0.59545 0.30000
O 	O 	0.89090 0.04033 0.59272 -0.39300
O 	O 	0.98810 0.01679 0.61904 -0.77200
C 	C 	0.90457 0.07505 0.56327 0.30000
O 	O 	0.99089 0.87566 0.65492 -0.45600
C 	C 	0.86325 0.91277 0.65474 0.30700
O 	O 	0.99734 0.96333 0.59553 -0.57200
O 	O 	0.94512 0.07857 0.55376 -0.37800
O 	O 	0.90631 0.96782 0.66389 -0.39900
O 	O 	0.88398 0.89395 0.64537 -0.37700
O 	O 	0.94959 0.80191 0.60720 -0.38000
C 	C 	0.93925 0.91602 0.91690 -0.06100
C 	C 	0.93256 0.90981 0.94612 0.01300
C 	C 	0.96411 0.96831 0.81743 -0.02900
C 	C 	0.95383 0.96639 0.84417 -0.03900
C 	C 	0.00252 0.94369 0.74693 0.06200
C 	C 	0.99445 0.93581 0.77624 -0.09500
H 	H 	0.90386 0.87430 0.90619 0.05500
H 	H 	0.89235 0.86318 0.95773 0.04100
H 	H 	0.92459 0.95933 0.79471 0.04700
H 	H 	0.96631 0.90343 0.73508 0.02400
H 	H 	0.95314 0.88910 0.78709 0.06200
C 	C 	0.99651 0.94814 0.47015 -0.07200
C 	C 	0.95015 0.89237 0.45745 0.01900
C 	C 	0.95340 0.89541 0.42808 -0.07200
C 	C 	0.95442 0.93753 0.35374 -0.03500
C 	C 	0.95998 0.93619 0.32647 -0.03600
C 	C 	0.98195 0.89526 0.28615 -0.06400
C 	C 	0.97824 0.89765 0.25507 0.01100
H 	H 	0.91335 0.84597 0.47104 0.03900
H 	H 	0.91876 0.85148 0.41924 0.05600
H 	H 	0.90694 0.92415 0.35345 0.04800
H 	H 	0.91687 0.92220 0.30534 0.04900
H 	H 	0.94728 0.84930 0.30090 0.05500
H 	H 	0.93938 0.85386 0.24583 0.03900
H 	H 	0.83450 0.88147 0.71041 0.04000
C 	C 	0.80546 0.93320 0.18711 0.06800
N 	N 	0.85265 0.97402 0.20080 -0.11300
C 	C 	0.81994 0.23613 0.51657 0.01100
C 	C 	0.77607 0.24664 0.48724 -0.04200
C 	C 	0.83770 0.19510 0.52022 0.02800
C 	C 	0.80897 0.08628 0.53687 0.03700
C 	C 	0.87765 0.11416 0.54135 -0.08800
C 	C 	0.92375 0.18241 0.53109 0.01500
C 	C 	0.90417 0.22304 0.52062 -0.04300
C 	C 	0.95324 0.29328 0.51163 0.09500
C 	C 	0.88679 0.24942 0.57382 0.08700
N 	N 	0.99259 0.34956 0.50446 -0.10800
N 	N 	0.92375 0.24205 0.59805 -0.11900
H 	H 	0.76086 0.23025 0.46633 0.05300
H 	H 	0.97615 0.20406 0.53353 0.04100
C 	C 	0.84303 0.65571 0.54530 -0.04100
C 	C 	0.84821 0.60428 0.56878 0.02700
C 	C 	0.87629 0.60496 0.60238 -0.05900
C 	C 	0.90203 0.65780 0.61230 0.03100
C 	C 	0.90632 0.71341 0.58828 -0.08200
C 	C 	0.87278 0.71032 0.55514 0.01100
C 	C 	0.82389 0.54931 0.55846 0.01100
C 	C 	0.85569 0.56154 0.53755 -0.04100
C 	C 	0.82976 0.51111 0.52539 -0.00300
C 	C 	0.85989 0.52591 0.50189 0.09000
C 	C 	0.80800 0.65312 0.51111 0.09200
C 	C 	0.92196 0.65391 0.64711 0.07900
N 	N 	0.88403 0.53777 0.48306 -0.10400
N 	N 	0.93745 0.65047 0.67503 -0.10400
H 	H 	0.87366 0.75218 0.53670 0.04100
H 	H 	0.87781 0.56427 0.62075 0.06100
H 	H 	0.89920 0.61073 0.52995 0.05200
C 	C 	0.78814 0.23060 0.01151 0.01200
C 	C 	0.81528 0.26398 0.03475 -0.04100
C 	C 	0.78699 0.29215 0.03190 -0.00300
C 	C 	0.81002 0.19081 0.01841 0.02800
C 	C 	0.86798 0.22031 0.00890 -0.05900
C 	C 	0.89664 0.18701 0.02055 0.03300
C 	C 	0.86827 0.12447 0.04271 -0.08600
C 	C 	0.80600 0.09231 0.04903 0.01200
C 	C 	0.77688 0.12520 0.03712 -0.04200
C 	C 	0.95574 0.21772 0.01015 0.07000
C 	C 	0.81354 0.32319 0.05713 0.08900
N 	N 	0.83480 0.34807 0.07733 -0.10700
H 	H 	0.85661 0.26567 0.05580 0.05300
H 	H 	0.89200 0.26987 0.99336 0.06200
H 	H 	0.78279 0.04332 0.06520 0.03900
C 	C 	0.81261 0.66439 0.02255 -0.04100
C 	C 	0.80711 0.60710 0.04503 0.02700
C 	C 	0.82859 0.60180 0.07921 -0.05900
C 	C 	0.85684 0.65353 0.09098 0.03200
C 	C 	0.86916 0.71325 0.06853 -0.08400
C 	C 	0.84409 0.71730 0.03442 0.01100
C 	C 	0.77545 0.55085 0.03315 0.01200
C 	C 	0.80908 0.55635 0.01598 -0.04100
C 	C 	0.78035 0.50303 0.00520 -0.00100
C 	C 	0.81295 0.51178 0.98515 0.09100
C 	C 	0.78650 0.66943 0.98734 0.09000
C 	C 	0.87107 0.64431 0.12601 0.07800
N 	N 	0.83911 0.51883 0.96908 -0.10500
N 	N 	0.88203 0.63661 0.15410 -0.10400
H 	H 	0.85212 0.76281 0.01706 0.04100
H 	H 	0.82226 0.55695 0.09661 0.06100
H 	H 	0.85711 0.60239 0.01065 0.05300
