data_crystal

_cell_length_a 26.19409
_cell_length_b 26.50485
_cell_length_c 34.79517
_cell_angle_alpha 95.51208
_cell_angle_beta  95.50887
_cell_angle_gamma 125.79813

_symmetry_space_group_name_	'P 1'
_symmetry_space_group_name_H-M	'P 1'

loop_
_symmetry_equiv_pos_as_xyz
  x,y,z

loop_
_atom_site_label
_atom_site_type_symbol
_atom_site_fract_x
_atom_site_fract_y
_atom_site_fract_z
_atom_site_charge
C 	C 	0.94723 0.01258 0.98855 0.09800
C 	C 	0.01146 0.04353 0.98465 -0.10600
C 	C 	0.03952 0.01190 0.98731 0.09500
C 	C 	0.00340 0.94971 0.99424 -0.10200
C 	C 	0.93907 0.91852 0.99742 0.09500
C 	C 	0.91138 0.95029 0.99521 -0.11700
H 	H 	0.03904 0.09141 0.97892 0.07700
H 	H 	0.02483 0.92504 0.99603 0.08700
H 	H 	0.86149 0.92602 0.99764 0.07200
C 	C 	0.95620 0.01851 0.46524 0.09400
C 	C 	0.92136 0.95334 0.46531 -0.10900
C 	C 	0.95344 0.92573 0.46886 0.09200
C 	C 	0.02026 0.96342 0.47253 -0.10700
C 	C 	0.05504 0.02837 0.47232 0.09400
C 	C 	0.02306 0.05593 0.46892 -0.09900
H 	H 	0.86965 0.92425 0.46230 0.06800
H 	H 	0.04505 0.94211 0.47514 0.07500
H 	H 	0.05002 0.10623 0.46879 0.08000
Cu	Cu	0.62670 0.23298 0.99856 0.92800
Cu	Cu	0.66035 0.22230 0.91094 0.90700
Cu	Cu	0.64718 0.33153 0.94999 0.91700
Cu	Cu	0.61186 0.33968 0.02828 0.91200
C 	C 	0.64416 0.27707 0.08130 0.39200
O 	O 	0.53124 0.18551 0.99848 -0.34300
C 	C 	0.66676 0.31586 0.87296 0.39200
O 	O 	0.66760 0.33001 0.00403 -0.63500
O 	O 	0.61331 0.24039 0.94265 -0.62600
O 	O 	0.68196 0.20334 0.99673 -0.35200
O 	O 	0.64238 0.15271 0.93287 -0.38600
O 	O 	0.60786 0.29524 0.07225 -0.35300
O 	O 	0.68595 0.42084 0.95887 -0.34800
C 	C 	0.68313 0.45185 0.98964 0.30800
C 	C 	0.50046 0.20781 0.98557 0.30200
O 	O 	0.53275 0.26748 0.98204 -0.37300
O 	O 	0.64097 0.42181 0.01253 -0.35300
O 	O 	0.64969 0.24258 0.05440 -0.32600
C 	C 	0.67476 0.16300 0.96747 0.31200
O 	O 	0.63679 0.33055 0.89406 -0.34400
O 	O 	0.70063 0.29930 0.88977 -0.39100
H 	H 	0.71359 0.36112 0.01604 0.18200
H 	H 	0.56752 0.21245 0.92993 0.17400
Cu	Cu	0.75452 0.35476 0.45309 0.93400
Cu	Cu	0.75808 0.31219 0.53791 0.88400
Cu	Cu	0.65713 0.32271 0.50608 0.90400
Cu	Cu	0.62771 0.34000 0.42579 0.91200
C 	C 	0.70035 0.32492 0.37109 0.39400
O 	O 	0.78387 0.44425 0.45016 -0.34000
C 	C 	0.70217 0.34581 0.59179 0.38800
O 	O 	0.65494 0.29825 0.45180 -0.63700
O 	O 	0.75108 0.36773 0.50933 -0.63800
O 	O 	0.80534 0.32091 0.45735 -0.34700
O 	O 	0.74193 0.25170 0.49504 -0.41200
O 	O 	0.67247 0.35155 0.38045 -0.35500
O 	O 	0.56495 0.27295 0.50073 -0.35400
C 	C 	0.52597 0.27464 0.47471 0.32100
C 	C 	0.75293 0.46555 0.46324 0.30300
O 	O 	0.69440 0.42546 0.46937 -0.37200
O 	O 	0.54242 0.29614 0.44181 -0.36500
O 	O 	0.74220 0.32802 0.39760 -0.33000
C 	C 	0.78252 0.26840 0.47096 0.31100
O 	O 	0.66138 0.34061 0.56305 -0.34400
O 	O 	0.75411 0.35189 0.58516 -0.37700
H 	H 	0.62921 0.25198 0.44224 0.18800
H 	H 	0.77743 0.41236 0.52325 0.19300
C 	C 	0.66553 0.28534 0.76440 0.22400
C 	C 	0.67188 0.33761 0.75255 -0.00400
C 	C 	0.67482 0.38201 0.78009 0.22700
C 	C 	0.67252 0.37476 0.81938 0.31300
C 	C 	0.66683 0.32270 0.83135 -0.22000
C 	C 	0.66269 0.27772 0.80353 0.30600
C 	C 	0.67773 0.34684 0.71157 -0.00500
F 	F 	0.68061 0.43253 0.76884 -0.35000
F 	F 	0.65539 0.22631 0.81438 -0.41600
C 	C 	0.62418 0.30714 0.68110 0.22800
C 	C 	0.63156 0.30904 0.64184 0.30500
C 	C 	0.69259 0.35100 0.63272 -0.21100
C 	C 	0.74538 0.39371 0.66329 0.30800
C 	C 	0.73801 0.39130 0.70253 0.22600
F 	F 	0.56538 0.26512 0.68959 -0.35400
F 	F 	0.80395 0.43698 0.65497 -0.38400
F 	F 	0.57995 0.26799 0.61268 -0.38800
F 	F 	0.78986 0.43075 0.73180 -0.35200
F 	F 	0.66277 0.24223 0.73800 -0.35700
F 	F 	0.67758 0.41916 0.84598 -0.38100
C 	C 	0.70568 0.34186 0.19004 0.22500
C 	C 	0.68769 0.28715 0.20465 -0.00500
C 	C 	0.66151 0.23053 0.17833 0.22800
C 	C 	0.65002 0.22773 0.13775 0.31100
C 	C 	0.66516 0.28181 0.12321 -0.21200
C 	C 	0.69475 0.33928 0.14953 0.30500
C 	C 	0.69046 0.28778 0.24733 -0.00500
F 	F 	0.64524 0.17770 0.19215 -0.35100
F 	F 	0.71148 0.39231 0.13581 -0.40300
C 	C 	0.63398 0.26004 0.26272 0.22500
C 	C 	0.63712 0.26888 0.30339 0.30500
C 	C 	0.69681 0.30606 0.32908 -0.21300
C 	C 	0.75318 0.33087 0.31372 0.31100
C 	C 	0.74991 0.32149 0.27299 0.22800
F 	F 	0.57618 0.22668 0.23818 -0.35400
F 	F 	0.81126 0.36671 0.33812 -0.37900
F 	F 	0.58221 0.24284 0.31788 -0.40200
F 	F 	0.80469 0.34718 0.25840 -0.35000
F 	F 	0.73159 0.39700 0.21523 -0.35500
F 	F 	0.62145 0.17181 0.11273 -0.38000
C 	C 	0.76829 0.61463 0.45273 -0.11000
C 	C 	0.83339 0.66157 0.46836 0.01500
C 	C 	0.87207 0.64424 0.48278 0.12800
C 	C 	0.84535 0.58016 0.48159 -0.02600
C 	C 	0.78023 0.53303 0.46564 -0.10900
C 	C 	0.74174 0.55057 0.45085 0.20100
C 	C 	0.86158 0.72867 0.46788 -0.00400
O 	O 	0.93570 0.68987 0.49862 -0.26000
H 	H 	0.87530 0.56717 0.49303 0.07100
O 	O 	0.67833 0.50518 0.43433 -0.28500
H 	H 	0.73845 0.62777 0.44133 0.08200
C 	C 	0.88221 0.75398 0.43404 0.13600
C 	C 	0.91016 0.81798 0.43406 -0.07000
C 	C 	0.91710 0.85695 0.46758 -0.05200
C 	C 	0.89466 0.83116 0.50102 0.15900
C 	C 	0.86728 0.76725 0.50113 -0.08900
O 	O 	0.87730 0.71681 0.40145 -0.26600
H 	H 	0.92753 0.83764 0.40827 0.07200
O 	O 	0.90211 0.86899 0.53420 -0.27200
H 	H 	0.85100 0.74783 0.52717 0.08600
H 	H 	0.67762 0.49506 0.40600 0.15900
H 	H 	0.83489 0.69825 0.38515 0.15800
H 	H 	0.86235 0.86605 0.53131 0.15300
H 	H 	0.95846 0.69642 0.47627 0.16600
C 	C 	0.78353 0.12665 0.44934 -0.11100
C 	C 	0.84951 0.15581 0.45576 0.01500
C 	C 	0.89332 0.22233 0.46309 0.12600
C 	C 	0.87096 0.25915 0.46537 -0.02600
C 	C 	0.80502 0.22998 0.46117 -0.11600
C 	C 	0.76115 0.16340 0.45177 0.20200
C 	C 	0.87266 0.11673 0.45727 -0.00500
O 	O 	0.95796 0.25139 0.46817 -0.25800
H 	H 	0.90502 0.31035 0.47210 0.07200
O 	O 	0.69644 0.13417 0.44615 -0.28000
H 	H 	0.74958 0.07543 0.44324 0.08300
C 	C 	0.87574 0.09407 0.49173 0.13700
C 	C 	0.90102 0.05998 0.49370 -0.07000
C 	C 	0.92286 0.04787 0.46134 -0.05200
C 	C 	0.91751 0.06848 0.42637 0.15900
C 	C 	0.89282 0.10312 0.42454 -0.08800
O 	O 	0.85667 0.10756 0.52405 -0.27000
H 	H 	0.90502 0.04424 0.52069 0.07200
O 	O 	0.93853 0.05677 0.39448 -0.27100
H 	H 	0.89003 0.12000 0.39782 0.08800
H 	H 	0.68313 0.12979 0.41763 0.16700
H 	H 	0.81067 0.07174 0.52122 0.15700
H 	H 	0.90083 0.01544 0.37901 0.15800
H 	H 	0.97221 0.25757 0.49680 0.15900
C 	C 	0.36237 0.23710 0.47271 -0.10900
C 	C 	0.32793 0.17626 0.48174 0.01500
C 	C 	0.35962 0.14959 0.49122 0.13200
C 	C 	0.42486 0.18272 0.48996 -0.02200
C 	C 	0.45891 0.24266 0.47941 -0.10400
C 	C 	0.42758 0.27027 0.47133 0.20100
C 	C 	0.25810 0.13932 0.47933 -0.00300
O 	O 	0.32632 0.09009 0.50017 -0.26200
H 	H 	0.44856 0.16112 0.49622 0.08100
O 	O 	0.46107 0.33039 0.46333 -0.27600
H 	H 	0.33832 0.25827 0.46611 0.08400
C 	C 	0.23284 0.14316 0.51243 0.13900
C 	C 	0.16636 0.10692 0.50997 -0.06800
C 	C 	0.12489 0.06720 0.47449 -0.04900
C 	C 	0.15023 0.06378 0.44131 0.16100
C 	C 	0.21665 0.10004 0.44378 -0.08900
O 	O 	0.27299 0.18089 0.54748 -0.26100
H 	H 	0.14705 0.10948 0.53565 0.07400
O 	O 	0.11013 0.02636 0.40618 -0.26800
H 	H 	0.23597 0.09741 0.41811 0.08500
H 	H 	0.45521 0.32471 0.43425 0.16600
H 	H 	0.28184 0.22265 0.54693 0.16000
H 	H 	0.10181 0.98475 0.40632 0.15300
H 	H 	0.32958 0.09679 0.52911 0.17500
C 	C 	0.86925 0.76540 0.03455 -0.09400
C 	C 	0.82660 0.72089 0.00070 0.00100
C 	C 	0.81969 0.74146 0.96613 0.13900
C 	C 	0.85556 0.80621 0.96554 -0.06600
C 	C 	0.89906 0.85073 0.99915 -0.05700
C 	C 	0.90531 0.83024 0.03393 0.16600
C 	C 	0.79117 0.65281 0.00096 0.01900
O 	O 	0.77741 0.69827 0.93302 -0.26400
H 	H 	0.85035 0.82185 0.93876 0.07300
O 	O 	0.94785 0.87345 0.06695 -0.27500
H 	H 	0.87484 0.74969 0.06121 0.08100
C 	C 	0.82095 0.62320 0.99558 0.12000
C 	C 	0.78538 0.55752 0.99219 -0.02100
C 	C 	0.72020 0.52105 0.99451 -0.11000
C 	C 	0.69056 0.55088 0.00036 0.20900
C 	C 	0.72633 0.61665 0.00398 -0.10700
O 	O 	0.88414 0.65809 0.99196 -0.26000
H 	H 	0.80845 0.53487 0.98764 0.07000
O 	O 	0.62665 0.51585 0.00220 -0.27000
H 	H 	0.70327 0.63939 0.00814 0.09000
H 	H 	0.92313 0.88339 0.08155 0.15700
H 	H 	0.90858 0.67080 0.01907 0.16100
H 	H 	0.60407 0.50465 0.97471 0.16700
H 	H 	0.80249 0.68892 0.91834 0.17300
C 	C 	0.89110 0.11300 0.01120 -0.09000
C 	C 	0.84117 0.08785 0.97896 -0.00300
C 	C 	0.83003 0.04195 0.94830 0.13700
C 	C 	0.86796 0.02074 0.95039 -0.06100
C 	C 	0.91602 0.04374 0.98344 -0.05900
C 	C 	0.92804 0.09059 0.01375 0.16600
C 	C 	0.80027 0.10927 0.97739 0.00700
O 	O 	0.78221 0.01796 0.91622 -0.25900
H 	H 	0.85858 0.98474 0.92692 0.06600
O 	O 	0.97575 0.11441 0.04586 -0.27600
H 	H 	0.90048 0.14905 0.03462 0.08000
C 	C 	0.75407 0.08937 0.00156 0.13300
C 	C 	0.71285 0.10682 0.99809 -0.03300
C 	C 	0.71735 0.14391 0.97056 -0.11300
C 	C 	0.76453 0.16494 0.94703 0.19700
C 	C 	0.80553 0.14737 0.95043 -0.10100
O 	O 	0.74746 0.05084 0.02742 -0.26200
H 	H 	0.67707 0.09105 0.01656 0.08700
O 	O 	0.77011 0.20209 0.92039 -0.29600
H 	H 	0.84120 0.16303 0.93189 0.09200
H 	H 	0.95488 0.08681 0.06520 0.15900
H 	H 	0.77568 0.07998 0.05251 0.16200
H 	H 	0.80096 0.24635 0.93496 0.14800
H 	H 	0.74349 0.98059 0.92310 0.15700
C 	C 	0.33118 0.14930 0.94853 -0.11100
C 	C 	0.29963 0.11341 0.97669 0.00900
C 	C 	0.33214 0.10112 0.00430 0.13400
C 	C 	0.39702 0.12824 0.00519 -0.02700
C 	C 	0.42987 0.16796 0.97879 -0.11600
C 	C 	0.39581 0.17584 0.94913 0.19600
C 	C 	0.23322 0.09043 0.97795 -0.00500
O 	O 	0.30038 0.06203 0.03007 -0.25600
H 	H 	0.42241 0.12064 0.02753 0.08500
O 	O 	0.42619 0.21123 0.92152 -0.27800
H 	H 	0.30590 0.15758 0.92659 0.08300
C 	C 	0.22037 0.11872 0.00802 0.14200
C 	C 	0.15696 0.09443 0.01015 -0.06400
C 	C 	0.10622 0.04303 0.98181 -0.05500
C 	C 	0.11945 0.01758 0.95025 0.16500
C 	C 	0.18272 0.04078 0.94872 -0.09200
O 	O 	0.26960 0.16884 0.03601 -0.27000
H 	H 	0.14716 0.11465 0.03429 0.07500
O 	O 	0.07037 0.96851 0.92169 -0.27900
H 	H 	0.19248 0.01980 0.92499 0.08400
H 	H 	0.42086 0.18079 0.89957 0.15900
H 	H 	0.28218 0.20718 0.02532 0.15900
H 	H 	0.06388 0.98890 0.90127 0.15600
H 	H 	0.30750 0.09046 0.05405 0.17200
