data_crystal

_cell_length_a 23.96564
_cell_length_b 24.07934
_cell_length_c 56.24528
_cell_angle_alpha 89.79640
_cell_angle_beta  89.80525
_cell_angle_gamma 119.42943

_symmetry_space_group_name_	'P 1'
_symmetry_space_group_name_H-M	'P 1'

loop_
_symmetry_equiv_pos_as_xyz
  x,y,z

loop_
_atom_site_label
_atom_site_type_symbol
_atom_site_fract_x
_atom_site_fract_y
_atom_site_fract_z
_atom_site_charge
C 	C 	0.10518 0.06543 0.77256 0.28400
C 	C 	0.12276 0.07531 0.70637 0.30600
Ni	Ni	0.02637 0.96617 0.73441 1.09100
Ni	Ni	0.04087 0.10759 0.73746 1.11300
O 	O 	0.10502 0.02618 0.75580 -0.37300
O 	O 	0.08216 0.10486 0.76842 -0.38800
O 	O 	0.07349 0.01800 0.70438 -0.38300
O 	O 	0.12167 0.11543 0.72198 -0.37900
C 	C 	0.19137 0.57207 0.42430 0.30500
C 	C 	0.08777 0.09624 0.19724 0.29900
C 	C 	0.12687 0.16346 0.26179 0.29000
C 	C 	0.01482 0.90563 0.22258 0.30100
C 	C 	0.04723 0.96528 0.28774 0.24100
Ni	Ni	0.09456 0.03467 0.24214 1.12300
O 	O 	0.06548 0.94233 0.23535 -0.39900
O 	O 	0.07654 0.13360 0.21093 -0.37700
O 	O 	0.09386 0.04912 0.20641 -0.37700
O 	O 	0.99462 0.92490 0.27585 -0.35700
O 	O 	0.09678 0.01361 0.27672 -0.36300
O 	O 	0.06999 0.15968 0.25921 -0.37400
O 	O 	0.14522 0.13084 0.24783 -0.37400
C 	C 	0.11032 0.24973 0.10358 -0.05300
C 	C 	0.13292 0.20850 0.10519 -0.05100
C 	C 	0.11996 0.16815 0.12665 0.04100
C 	C 	0.17124 0.17188 0.13987 -0.07000
C 	C 	0.16020 0.14318 0.16237 0.01800
C 	C 	0.09777 0.11017 0.17167 -0.07700
C 	C 	0.04601 0.10148 0.15750 -0.01400
C 	C 	0.05700 0.13007 0.13503 -0.06100
H 	H 	0.04513 0.29886 0.08059 0.04600
H 	H 	0.07459 0.24662 0.11630 0.04300
H 	H 	0.16691 0.20981 0.09206 0.04200
H 	H 	0.21991 0.19987 0.13330 0.04800
H 	H 	0.20045 0.14968 0.17308 0.03300
H 	H 	0.99751 0.07512 0.16435 0.06000
H 	H 	0.01683 0.12479 0.12456 0.04200
C 	C 	0.04764 0.72591 0.16637 -0.06900
C 	C 	0.03062 0.76536 0.18158 0.07700
C 	C 	0.00473 0.80089 0.17133 -0.15000
C 	C 	0.99646 0.84473 0.18504 0.09500
C 	C 	0.01389 0.85311 0.20909 -0.13600
C 	C 	0.03562 0.81444 0.21970 0.04400
C 	C 	0.04334 0.77030 0.20607 -0.09900
H 	H 	0.08682 0.72249 0.11936 0.04400
H 	H 	0.13776 0.68640 0.08993 0.03000
H 	H 	0.01379 0.69562 0.15301 0.04200
H 	H 	0.99341 0.79637 0.15256 0.08000
H 	H 	0.04769 0.81948 0.23841 0.02600
C 	C 	0.17639 0.21753 0.27499 -0.08500
C 	C 	0.18943 0.27969 0.26960 0.02400
C 	C 	0.23974 0.33171 0.28083 -0.07600
C 	C 	0.27670 0.32200 0.29785 0.04800
C 	C 	0.26388 0.25985 0.30324 -0.07400
C 	C 	0.21408 0.20776 0.29172 0.01800
H 	H 	0.16125 0.28775 0.25642 0.03200
H 	H 	0.24937 0.37957 0.27659 0.04800
H 	H 	0.29233 0.25195 0.31633 0.05000
H 	H 	0.20473 0.15992 0.29581 0.02900
H 	H 	0.28385 0.34409 0.34440 0.04500
C 	C 	0.22814 0.88806 0.41210 -0.07300
C 	C 	0.16742 0.86069 0.40155 0.04200
C 	C 	0.12496 0.79506 0.40481 -0.07300
C 	C 	0.15495 0.89722 0.38299 -0.05000
C 	C 	0.09591 0.88904 0.37931 -0.06100
C 	C 	0.08048 0.91078 0.35684 0.05300
C 	C 	0.02809 0.86766 0.34331 -0.09200
C 	C 	0.01625 0.88577 0.32106 -0.00900
C 	C 	0.05651 0.94765 0.31214 -0.06400
C 	C 	0.10696 0.99193 0.32632 -0.00700
C 	C 	0.11881 0.97361 0.34856 -0.08900
H 	H 	0.26078 0.93881 0.41036 0.04300
H 	H 	0.07758 0.77296 0.39710 0.04400
H 	H 	0.19411 0.92851 0.37124 0.04000
H 	H 	0.05710 0.85965 0.39150 0.03900
H 	H 	0.13728 0.04035 0.32007 0.04900
H 	H 	0.15807 0.00802 0.35924 0.06300
C 	C 	0.03483 0.54909 0.44781 -0.03100
C 	C 	0.02572 0.50835 0.46742 -0.00100
C 	C 	0.06079 0.47535 0.46813 -0.05700
C 	C 	0.11154 0.49156 0.45224 0.00500
C 	C 	0.12648 0.53897 0.43491 -0.08700
C 	C 	0.08482 0.56368 0.43154 0.00100
H 	H 	0.04812 0.43628 0.48042 0.03800
H 	H 	0.14078 0.46889 0.45395 0.03500
H 	H 	0.09336 0.59681 0.41707 0.04100
H 	H 	0.02668 0.17651 0.66546 0.01300
C 	C 	0.18584 0.05856 0.67454 0.02000
C 	C 	0.18452 0.08908 0.69561 -0.09500
H 	H 	0.14183 0.02813 0.66518 0.03400
C 	C 	0.03345 0.61520 0.02077 -0.01200
C 	C 	0.01908 0.60321 0.99621 -0.01400
C 	C 	0.06784 0.60923 0.98040 -0.05000
C 	C 	0.12901 0.62684 0.98887 0.00600
C 	C 	0.14270 0.63820 0.01310 -0.07600
C 	C 	0.09579 0.63483 0.02885 -0.01000
H 	H 	0.05781 0.59615 0.96193 0.03300
H 	H 	0.16514 0.62898 0.97668 0.02900
H 	H 	0.10657 0.64321 0.04764 0.03600
C 	C 	0.19274 0.05907 0.79433 0.01800
C 	C 	0.14421 0.07580 0.79408 -0.08600
H 	H 	0.19920 0.03453 0.77937 0.03500
C 	C 	0.60798 0.17261 0.94284 0.29200
C 	C 	0.54887 0.29501 0.90745 0.31300
O 	O 	0.58380 0.35585 0.91283 -0.38600
O 	O 	0.58308 0.33121 0.96140 -0.38900
O 	O 	0.61263 0.21024 0.96038 -0.37000
O 	O 	0.64211 0.19639 0.92333 -0.37600
O 	O 	0.57052 0.25528 0.91122 -0.39400
C 	C 	0.62004 0.39586 0.50344 0.30300
C 	C 	0.56913 0.22008 0.51384 0.28100
C 	C 	0.60039 0.26606 0.59253 0.29300
Ni	Ni	0.58992 0.32445 0.54820 1.12000
O 	O 	0.61139 0.38717 0.57509 -0.38800
O 	O 	0.61766 0.40020 0.52647 -0.38900
O 	O 	0.56760 0.25602 0.57255 -0.39300
O 	O 	0.62855 0.24136 0.50619 -0.37000
O 	O 	0.54900 0.26001 0.52103 -0.37700
C 	C 	0.42255 0.78946 0.45875 0.28400
C 	C 	0.38507 0.61576 0.45671 0.30400
C 	C 	0.24067 0.74275 0.42157 0.28400
C 	C 	0.36375 0.60869 0.38181 0.31200
C 	C 	0.41845 0.78831 0.37904 0.29200
Ni	Ni	0.29718 0.67199 0.45054 1.11100
Ni	Ni	0.29079 0.67346 0.39269 1.12100
Ni	Ni	0.42290 0.70894 0.41794 1.12000
O 	O 	0.36093 0.75984 0.46440 -0.37500
O 	O 	0.45014 0.75803 0.44944 -0.37900
O 	O 	0.30611 0.60059 0.38558 -0.38600
O 	O 	0.23944 0.58168 0.43768 -0.38500
O 	O 	0.20181 0.60828 0.40536 -0.37500
O 	O 	0.44791 0.78832 0.39897 -0.39100
O 	O 	0.35326 0.63945 0.46797 -0.36900
O 	O 	0.39528 0.62422 0.43387 -0.39100
O 	O 	0.36556 0.73635 0.37177 -0.38100
O 	O 	0.23170 0.70215 0.43944 -0.37000
O 	O 	0.26433 0.73888 0.40058 -0.38000
O 	O 	0.41502 0.66285 0.38715 -0.38700
O 	O 	0.33993 0.69958 0.42120 -0.71400
H 	H 	0.35145 0.74485 0.42156 0.15500
C 	C 	0.38862 0.56415 0.04496 0.28500
C 	C 	0.22904 0.65263 0.09818 0.30900
C 	C 	0.21807 0.48842 0.05561 0.30800
C 	C 	0.40991 0.73616 0.09183 0.28900
C 	C 	0.20273 0.64480 0.02238 0.30500
C 	C 	0.38439 0.74377 0.01232 0.28800
Ni	Ni	0.31380 0.59964 0.08200 1.11300
Ni	Ni	0.30748 0.71645 0.05614 1.12000
Ni	Ni	0.29854 0.60260 0.02469 1.12000
O 	O 	0.35779 0.55180 0.06585 -0.37100
O 	O 	0.37984 0.59715 0.02777 -0.38100
O 	O 	0.24951 0.70156 0.02811 -0.39000
O 	O 	0.27081 0.63555 0.10510 -0.37500
O 	O 	0.22707 0.66719 0.07587 -0.39300
O 	O 	0.34216 0.68512 0.00485 -0.37900
O 	O 	0.22394 0.52836 0.07233 -0.38200
O 	O 	0.25322 0.50945 0.03614 -0.37900
O 	O 	0.38242 0.76353 0.03417 -0.38800
O 	O 	0.39938 0.67668 0.09276 -0.37300
O 	O 	0.36343 0.74889 0.08600 -0.37900
O 	O 	0.21154 0.59507 0.02222 -0.38700
O 	O 	0.32212 0.64614 0.05420 -0.71900
H 	H 	0.36907 0.66890 0.05233 0.16000
C 	C 	0.18897 0.42051 0.06189 -0.09500
C 	C 	0.12254 0.38411 0.06529 0.02200
C 	C 	0.09623 0.32527 0.07715 -0.07600
C 	C 	0.13622 0.30263 0.08593 0.04600
C 	C 	0.20244 0.33758 0.08126 -0.07400
C 	C 	0.22846 0.39587 0.06918 0.01600
H 	H 	0.09159 0.40273 0.05980 0.02900
H 	H 	0.23433 0.32187 0.08837 0.04800
H 	H 	0.27988 0.42415 0.06718 0.03500
C 	C 	0.46760 0.78576 0.10344 -0.08600
C 	C 	0.46183 0.81810 0.12318 0.02000
C 	C 	0.51440 0.85267 0.13799 -0.07600
C 	C 	0.57333 0.85596 0.13298 0.04700
C 	C 	0.58022 0.82743 0.11226 -0.07400
C 	C 	0.52760 0.79263 0.09754 0.01900
H 	H 	0.41575 0.81326 0.12786 0.03400
H 	H 	0.50864 0.87469 0.15389 0.04700
H 	H 	0.53265 0.76826 0.08222 0.02900
C 	C 	0.18946 0.66299 0.11600 -0.09400
C 	C 	0.19852 0.65798 0.14043 0.02100
C 	C 	0.16816 0.67706 0.15719 -0.07600
C 	C 	0.12814 0.70095 0.14978 0.04300
C 	C 	0.11659 0.70304 0.12540 -0.07600
C 	C 	0.14636 0.68339 0.10866 0.01800
C 	C 	0.10666 0.73237 0.16727 -0.04700
H 	H 	0.23063 0.64130 0.14646 0.03500
H 	H 	0.17736 0.67517 0.17594 0.04700
H 	H 	0.14004 0.76204 0.18087 0.04100
H 	H 	0.06080 0.74116 0.21439 0.05300
C 	C 	0.45539 0.83897 0.36159 -0.08700
C 	C 	0.48927 0.90258 0.36913 0.02000
C 	C 	0.54205 0.94749 0.35602 -0.07700
C 	C 	0.56126 0.92918 0.33527 0.04700
C 	C 	0.52264 0.86727 0.32634 -0.07500
C 	C 	0.46944 0.82274 0.33931 0.02000
C 	C 	0.62748 0.96943 0.32619 -0.05700
H 	H 	0.47764 0.91613 0.38599 0.02500
H 	H 	0.57056 0.99535 0.36286 0.04500
H 	H 	0.53655 0.85207 0.31037 0.04800
H 	H 	0.44288 0.77403 0.33308 0.03500
H 	H 	0.66593 0.99390 0.33893 0.04400
C 	C 	0.32646 0.37698 0.31079 -0.05300
C 	C 	0.31807 0.38472 0.33389 -0.05200
C 	C 	0.34730 0.44899 0.34457 0.04800
C 	C 	0.36339 0.45634 0.36876 -0.07500
C 	C 	0.37497 0.51187 0.38066 0.02400
C 	C 	0.37048 0.56036 0.36845 -0.09200
C 	C 	0.35984 0.55545 0.34390 0.02500
C 	C 	0.34782 0.49992 0.33200 -0.07500
H 	H 	0.36342 0.41642 0.30060 0.04400
H 	H 	0.36350 0.41765 0.37862 0.04900
H 	H 	0.38363 0.51555 0.39964 0.03400
H 	H 	0.35669 0.59294 0.33433 0.02700
H 	H 	0.33468 0.49487 0.31341 0.04800
C 	C 	0.21022 0.78271 0.42280 -0.08400
C 	C 	0.24939 0.84920 0.42276 0.01600
C 	C 	0.14607 0.75656 0.41585 0.01800
H 	H 	0.29852 0.87025 0.42877 0.02500
H 	H 	0.11461 0.70549 0.41655 0.02700
C 	C 	0.46214 0.85511 0.46677 -0.07500
C 	C 	0.47702 0.90506 0.45068 0.00800
C 	C 	0.48972 0.96483 0.45890 -0.07500
C 	C 	0.48646 0.97475 0.48348 0.00100
C 	C 	0.48156 0.92744 0.49970 -0.00200
C 	C 	0.46875 0.86756 0.49123 -0.00900
C 	C 	0.48889 0.94026 0.52415 -0.02200
C 	C 	0.50162 0.99977 0.53260 -0.09700
C 	C 	0.50343 0.04601 0.51690 0.04400
C 	C 	0.49137 0.03210 0.49242 0.01100
C 	C 	0.48283 0.07500 0.47776 -0.04900
C 	C 	0.49896 0.13557 0.48619 0.00500
C 	C 	0.52259 0.15340 0.50929 -0.06300
C 	C 	0.51908 0.10686 0.52521 -0.03300
H 	H 	0.47479 0.89646 0.43172 0.02800
H 	H 	0.50321 0.00319 0.44619 0.06000
H 	H 	0.45980 0.82948 0.50367 0.03800
H 	H 	0.48595 0.90446 0.53661 0.02900
H 	H 	0.50956 0.00972 0.55144 0.06300
H 	H 	0.46314 0.06162 0.46009 0.04500
H 	H 	0.49784 0.17028 0.47417 0.03700
H 	H 	0.53412 0.11975 0.54349 0.04100
C 	C 	0.59724 0.43078 0.48855 -0.07500
C 	C 	0.53803 0.39713 0.47710 0.00300
C 	C 	0.50210 0.42717 0.47183 -0.05200
C 	C 	0.52439 0.49102 0.47879 0.00500
C 	C 	0.58818 0.52713 0.48698 0.00900
C 	C 	0.62427 0.49677 0.49169 -0.01300
C 	C 	0.61471 0.59274 0.49094 -0.04000
C 	C 	0.57842 0.62281 0.48719 -0.04100
C 	C 	0.51400 0.58739 0.48046 0.00800
C 	C 	0.48545 0.52059 0.47720 0.00600
C 	C 	0.41856 0.48506 0.47356 -0.05300
C 	C 	0.38339 0.51644 0.46943 0.00700
C 	C 	0.41358 0.58318 0.46983 -0.07600
C 	C 	0.47785 0.61819 0.47671 -0.01800
H 	H 	0.51806 0.34672 0.47354 0.03600
H 	H 	0.45811 0.40106 0.46200 0.04200
H 	H 	0.60026 0.67381 0.48989 0.03900
H 	H 	0.39330 0.43359 0.47446 0.04200
H 	H 	0.33313 0.48887 0.46489 0.03300
H 	H 	0.50078 0.66978 0.47764 0.03900
C 	C 	0.56442 0.23148 0.61399 -0.08600
C 	C 	0.57491 0.26410 0.63562 0.02000
C 	C 	0.52692 0.24142 0.65307 -0.07500
C 	C 	0.46813 0.18611 0.64906 0.04600
C 	C 	0.46103 0.14943 0.62870 -0.07300
C 	C 	0.50971 0.17134 0.61158 0.01900
C 	C 	0.41145 0.17477 0.66342 -0.05100
C 	C 	0.36274 0.11564 0.66766 -0.05400
C 	C 	0.30141 0.10614 0.67750 0.04800
C 	C 	0.24399 0.06678 0.66563 -0.07700
C 	C 	0.24214 0.12836 0.70752 0.02200
C 	C 	0.30017 0.13652 0.69858 -0.07700
H 	H 	0.61786 0.30958 0.63813 0.03600
H 	H 	0.53368 0.26928 0.66896 0.04700
H 	H 	0.41621 0.10652 0.62524 0.04800
H 	H 	0.50229 0.14427 0.59541 0.03200
H 	H 	0.40839 0.21578 0.66981 0.04300
H 	H 	0.36613 0.07424 0.66210 0.04300
H 	H 	0.24449 0.04299 0.64937 0.04900
H 	H 	0.24181 0.15119 0.72404 0.03700
H 	H 	0.34409 0.16599 0.70816 0.04900
H 	H 	0.59674 0.44266 0.61422 0.03400
C 	C 	0.57817 0.10378 0.94746 -0.04300
C 	C 	0.51264 0.06418 0.94348 -0.03100
C 	C 	0.48227 0.00011 0.95057 0.02600
C 	C 	0.51771 0.97436 0.96155 -0.07800
C 	C 	0.58380 0.01528 0.96607 0.09400
C 	C 	0.61392 0.07899 0.95821 -0.05500
C 	C 	0.61797 0.99354 0.97986 -0.12000
C 	C 	0.58647 0.93354 0.99066 -0.00300
C 	C 	0.52116 0.89250 0.98657 -0.02100
C 	C 	0.48763 0.91045 0.97038 0.04300
C 	C 	0.42529 0.86412 0.96349 -0.07200
C 	C 	0.39313 0.80605 0.97581 0.01300
C 	C 	0.42334 0.79265 0.99452 -0.07600
C 	C 	0.48842 0.83419 0.99891 -0.00400
H 	H 	0.48460 0.08357 0.93561 0.04700
H 	H 	0.43084 0.97232 0.94890 0.01100
H 	H 	0.61296 0.91904 0.00234 0.02600
H 	H 	0.40227 0.87186 0.94834 0.04400
H 	H 	0.34371 0.77274 0.97151 0.03400
H 	H 	0.51262 0.82255 0.01270 0.03500
C 	C 	0.56369 0.34785 0.00170 -0.07700
C 	C 	0.57094 0.43321 0.02669 -0.05300
C 	C 	0.50609 0.41411 0.02194 0.00600
C 	C 	0.46803 0.35490 0.01055 0.00800
C 	C 	0.49717 0.32221 0.00047 -0.01400
C 	C 	0.40176 0.33013 0.00858 -0.04000
C 	C 	0.37329 0.36511 0.01650 -0.04200
C 	C 	0.41090 0.42676 0.02549 0.01000
C 	C 	0.47801 0.45247 0.02810 0.00400
C 	C 	0.51556 0.51717 0.03482 -0.05100
C 	C 	0.48620 0.55338 0.04052 0.00200
C 	C 	0.41975 0.52678 0.03871 -0.06700
C 	C 	0.38243 0.46404 0.03088 -0.02000
H 	H 	0.59869 0.47155 0.03885 0.04300
H 	H 	0.46878 0.27923 0.99027 0.04400
H 	H 	0.37220 0.28380 0.00064 0.03900
H 	H 	0.32191 0.34507 0.01482 0.03900
H 	H 	0.56724 0.54064 0.03454 0.04200
H 	H 	0.51540 0.60255 0.04593 0.03100
H 	H 	0.33131 0.44469 0.02846 0.04300
C 	C 	0.48993 0.27323 0.89359 -0.09600
C 	C 	0.44465 0.29162 0.89991 0.02500
C 	C 	0.38650 0.26668 0.88769 -0.07800
C 	C 	0.37319 0.22294 0.86922 0.04900
C 	C 	0.41965 0.20664 0.86234 -0.07800
C 	C 	0.47745 0.23133 0.87454 0.02600
C 	C 	0.31209 0.19694 0.85620 -0.05300
C 	C 	0.27794 0.13433 0.85139 -0.05300
C 	C 	0.22934 0.11097 0.83246 0.04600
C 	C 	0.23481 0.07628 0.81350 -0.07600
C 	C 	0.13619 0.10683 0.81386 0.01700
C 	C 	0.17870 0.12450 0.83293 -0.07600
H 	H 	0.45392 0.32416 0.91453 0.03000
H 	H 	0.35153 0.28066 0.89278 0.04800
H 	H 	0.41102 0.17499 0.84747 0.04900
H 	H 	0.51266 0.21790 0.86918 0.02500
H 	H 	0.29687 0.22961 0.84934 0.04200
H 	H 	0.29236 0.10169 0.85893 0.04400
H 	H 	0.27306 0.06457 0.81324 0.04800
H 	H 	0.09777 0.11830 0.81427 0.03000
H 	H 	0.17283 0.14945 0.84788 0.04600
C 	C 	0.59616 0.32932 0.98379 0.30400
O 	O 	0.01544 0.03291 0.24813 -0.72200
H 	H 	0.02267 0.04743 0.26475 0.15500
H 	H 	0.60370 0.94939 0.29003 0.03900
H 	H 	0.66858 0.02445 0.98317 0.07100
H 	H 	0.61117 0.86273 0.16934 0.04300
H 	H 	0.66456 0.11014 0.96153 0.05100
H 	H 	0.66384 0.62069 0.49684 0.03900
O 	O 	0.64305 0.36144 0.49382 -0.36700
H 	H 	0.67137 0.52343 0.49961 0.04300
C 	C 	0.59973 0.40093 0.01614 0.00600
H 	H 	0.65072 0.41913 0.01825 0.04100
Ni	Ni	0.69519 0.29683 0.96544 1.11300
Ni	Ni	0.65191 0.38925 0.93838 1.12000
Ni	Ni	0.66382 0.28296 0.90908 1.12000
O 	O 	0.64552 0.32264 0.98976 -0.36700
O 	O 	0.68423 0.35867 0.88707 -0.38300
O 	O 	0.68591 0.33286 0.93701 -0.71600
C 	C 	0.66687 0.44011 0.57657 0.31200
Ni	Ni	0.70073 0.33309 0.51259 1.11200
O 	O 	0.65926 0.31614 0.59504 -0.38000
O 	O 	0.66812 0.32408 0.54360 -0.71500
H 	H 	0.65352 0.27863 0.54654 0.16000
C 	C 	0.62398 0.88025 0.15120 -0.05300
C 	C 	0.68522 0.92166 0.14548 -0.05300
H 	H 	0.62537 0.82929 0.10826 0.04800
H 	H 	0.68668 0.95039 0.19259 0.04700
C 	C 	0.64183 0.97022 0.30306 -0.04500
C 	C 	0.70706 0.98580 0.29581 0.01800
H 	H 	0.74968 0.08635 0.30355 0.04800
C 	C 	0.65041 0.54189 0.62339 -0.07700
C 	C 	0.63454 0.48937 0.60878 0.02200
C 	C 	0.67080 0.49639 0.58821 -0.09400
H 	H 	0.62424 0.53536 0.63986 0.04700
H 	H 	0.67244 0.42373 0.84903 0.03500
H 	H 	0.70947 0.14947 0.55841 0.03000
H 	H 	0.69759 0.93901 0.12729 0.04200
C 	C 	0.78001 0.28245 0.92663 0.29100
C 	C 	0.76958 0.43930 0.96937 0.28100
C 	C 	0.72009 0.42040 0.89243 0.29100
O 	O 	0.75137 0.26378 0.94789 -0.36800
O 	O 	0.75544 0.30097 0.90918 -0.38200
O 	O 	0.71559 0.44314 0.91340 -0.38900
O 	O 	0.77194 0.38590 0.97281 -0.36700
O 	O 	0.71419 0.43825 0.96547 -0.37600
H 	H 	0.73099 0.36367 0.93336 0.15800
C 	C 	0.76262 0.27363 0.54531 0.28600
C 	C 	0.81737 0.44198 0.53025 0.30000
Ni	Ni	0.72709 0.36178 0.56901 1.12200
O 	O 	0.76603 0.30362 0.52474 -0.36600
O 	O 	0.74362 0.28796 0.56550 -0.38000
O 	O 	0.76615 0.42762 0.51796 -0.38200
O 	O 	0.81180 0.41317 0.55078 -0.37400
O 	O 	0.72014 0.44111 0.57029 -0.38900
C 	C 	0.73742 0.93845 0.16282 0.04600
C 	C 	0.79547 0.94317 0.15526 -0.07600
C 	C 	0.77890 0.96464 0.20301 0.02000
C 	C 	0.72997 0.95081 0.18671 -0.07500
H 	H 	0.80212 0.93472 0.13682 0.04700
H 	H 	0.77263 0.97391 0.22140 0.03100
C 	C 	0.71843 0.93716 0.28788 -0.05800
C 	C 	0.78039 0.95079 0.28174 -0.00700
C 	C 	0.83145 0.01353 0.28301 -0.06000
C 	C 	0.82007 0.06240 0.29086 0.00700
C 	C 	0.75808 0.04848 0.29740 -0.04200
H 	H 	0.67926 0.88864 0.28663 0.04400
H 	H 	0.85904 0.11107 0.29175 0.04100
H 	H 	0.85416 0.52757 0.49404 0.04700
C 	C 	0.79460 0.23518 0.54728 -0.08200
C 	C 	0.79436 0.15325 0.57262 -0.07000
C 	C 	0.76140 0.17522 0.55839 0.02000
H 	H 	0.76735 0.11082 0.58339 0.05000
H 	H 	0.80335 0.03825 0.63811 0.05200
C 	C 	0.76295 0.71412 0.63008 -0.05400
C 	C 	0.72944 0.65197 0.63599 -0.05200
C 	C 	0.70276 0.60168 0.61762 0.04700
C 	C 	0.71881 0.55730 0.58120 0.02400
C 	C 	0.73563 0.60946 0.59599 -0.07500
H 	H 	0.78054 0.83325 0.63432 0.04500
H 	H 	0.76064 0.72949 0.61209 0.04200
H 	H 	0.72417 0.63779 0.65460 0.04200
H 	H 	0.74599 0.56349 0.56502 0.03700
H 	H 	0.77669 0.65485 0.59130 0.05000
C 	C 	0.82925 0.26591 0.92015 -0.08500
C 	C 	0.84687 0.18461 0.90198 -0.07200
C 	C 	0.81152 0.20156 0.91718 0.02100
H 	H 	0.82852 0.13480 0.89781 0.05000
H 	H 	0.76681 0.16461 0.92467 0.03600
H 	H 	0.83617 0.05465 0.84451 0.05100
C 	C 	0.75282 0.46661 0.87308 -0.08600
C 	C 	0.80345 0.57057 0.84133 0.04700
C 	C 	0.74454 0.51603 0.83649 -0.07400
C 	C 	0.71931 0.46427 0.85233 0.02000
C 	C 	0.79227 0.65440 0.82037 -0.05300
C 	C 	0.78899 0.71994 0.78650 -0.07500
H 	H 	0.71778 0.51426 0.82075 0.04800
H 	H 	0.74200 0.63089 0.82551 0.04300
H 	H 	0.74506 0.67919 0.78052 0.04700
H 	H 	0.79358 0.77852 0.75680 0.03400
H 	H 	0.02649 0.18297 0.79323 0.01200
C 	C 	0.81363 0.51933 0.87702 0.02000
C 	C 	0.80791 0.82286 0.64711 -0.07900
C 	C 	0.83652 0.96843 0.19546 -0.09100
H 	H 	0.78842 0.91288 0.27533 0.03300
C 	C 	0.86175 0.26606 0.54631 0.02100
C 	C 	0.86130 0.18998 0.57496 0.04700
C 	C 	0.85206 0.06856 0.64404 -0.08200
H 	H 	0.84503 0.08096 0.59466 0.04700
H 	H 	0.83360 0.02505 0.67869 0.03100
C 	C 	0.80317 0.76255 0.64773 0.04800
C 	C 	0.82647 0.49971 0.97526 -0.06900
H 	H 	0.80367 0.49477 0.01259 0.04100
H 	H 	0.83712 0.02159 0.80319 0.04000
C 	C 	0.83897 0.57088 0.86113 -0.07500
C 	C 	0.82844 0.62757 0.82575 -0.05300
C 	C 	0.81964 0.71527 0.80699 0.04600
C 	C 	0.81621 0.77654 0.77318 0.01800
H 	H 	0.84022 0.52135 0.89284 0.02900
C 	C 	0.89471 0.02870 0.27359 0.30800
O 	O 	0.87803 0.95733 0.23282 -0.38700
C 	C 	0.84487 0.95824 0.17150 0.02000
C 	C 	0.87994 0.47332 0.51779 -0.07100
C 	C 	0.88814 0.51114 0.49761 -0.02400
C 	C 	0.89505 0.24391 0.56033 -0.07200
C 	C 	0.89375 0.18147 0.59599 -0.04800
C 	C 	0.87798 0.12318 0.60449 -0.05500
C 	C 	0.89739 0.11505 0.62872 0.05800
C 	C 	0.86913 0.06148 0.66716 0.03500
H 	H 	0.88813 0.31100 0.53688 0.03400
C 	C 	0.84077 0.75048 0.66385 -0.07700
C 	C 	0.84766 0.86989 0.66308 0.02100
H 	H 	0.83999 0.70512 0.66373 0.05000
H 	H 	0.85049 0.91618 0.66243 0.03000
C 	C 	0.84108 0.51653 0.99918 -0.01200
H 	H 	0.86197 0.52143 0.93918 0.03000
C 	C 	0.88792 0.31321 0.91085 0.02200
C 	C 	0.90194 0.23225 0.89036 0.04900
C 	C 	0.87777 0.08262 0.83335 -0.07100
C 	C 	0.87823 0.06407 0.80987 0.02100
H 	H 	0.91382 0.12852 0.88112 0.04500
H 	H 	0.87859 0.65108 0.82042 0.04400
H 	H 	0.90280 0.36313 0.91349 0.03000
Ni	Ni	0.90119 0.98464 0.73313 1.11000
O 	O 	0.90613 0.06014 0.71563 -0.38500
O 	O 	0.89015 0.02150 0.76370 -0.37500
O 	O 	0.87607 0.89737 0.74822 -0.38500
C 	C 	0.88936 0.98724 0.21226 0.29200
O 	O 	0.92345 0.07657 0.25794 -0.36000
H 	H 	0.88950 0.96176 0.16548 0.02900
C 	C 	0.92678 0.45642 0.52329 -0.00400
H 	H 	0.92328 0.43067 0.53956 0.04500
H 	H 	0.92829 0.22369 0.60545 0.04500
C 	C 	0.88307 0.85700 0.67996 -0.09700
C 	C 	0.87997 0.79721 0.68003 0.02300
C 	C 	0.87378 0.53107 0.95783 0.00500
H 	H 	0.88272 0.55675 0.04324 0.04200
C 	C 	0.92438 0.29640 0.89616 -0.07300
C 	C 	0.92723 0.21712 0.86869 -0.05100
C 	C 	0.92588 0.16100 0.86610 -0.04700
C 	C 	0.92985 0.13822 0.84218 0.04200
C 	C 	0.87409 0.82926 0.78042 -0.08500
C 	C 	0.87542 0.76901 0.81498 -0.07400
H 	H 	0.88524 0.61201 0.86468 0.04800
H 	H 	0.91391 0.58167 0.45820 0.04800
H 	H 	0.90744 0.78666 0.69271 0.03600
C 	C 	0.90916 0.88451 0.76431 0.28600
C 	C 	0.93280 0.08013 0.77040 0.28900
O 	O 	0.91171 0.95414 0.70093 -0.40000
O 	O 	0.91751 0.98976 0.27864 -0.39500
C 	C 	0.93203 0.10066 0.67522 -0.10500
H 	H 	0.94681 0.27156 0.56130 0.05100
C 	C 	0.90501 0.55601 0.00602 0.00700
C 	C 	0.93133 0.10064 0.79503 -0.08900
H 	H 	0.94278 0.25064 0.85386 0.04800
C 	C 	0.91980 0.90458 0.69837 0.31100
C 	C 	0.95061 0.09169 0.69946 0.33800
O 	O 	0.94271 0.04078 0.20846 -0.36100
C 	C 	0.93781 0.52461 0.48134 0.02000
C 	C 	0.96076 0.15307 0.63649 -0.08900
C 	C 	0.92036 0.57069 0.03003 -0.04300
C 	C 	0.90246 0.82570 0.80177 0.01700
H 	H 	0.89816 0.76666 0.83127 0.04900
H 	H 	0.02461 0.21633 0.83445 0.02700
O 	O 	0.95726 0.89512 0.71292 -0.37300
O 	O 	0.97439 0.12178 0.75484 -0.36900
Ni	Ni	0.94505 0.95010 0.25280 1.12000
C 	C 	0.97704 0.47049 0.50738 -0.02400
C 	C 	0.97991 0.50000 0.48530 0.01000
C 	C 	0.94552 0.56208 0.46113 -0.06200
C 	C 	0.97783 0.14634 0.65967 0.06200
H 	H 	0.99682 0.18760 0.62458 0.05900
C 	C 	0.93736 0.57129 0.96445 -0.05700
C 	C 	0.95439 0.57791 0.98870 0.02900
C 	C 	0.98445 0.15523 0.80419 0.03900
C 	C 	0.98367 0.17388 0.82765 -0.05300
H 	H 	0.96748 0.33355 0.88779 0.05100
H 	H 	0.94633 0.86639 0.80784 0.03200
H 	H 	0.97661 0.85122 0.31058 0.05500
H 	H 	0.97890 0.87385 0.17676 0.01800
H 	H 	0.01429 0.46011 0.51266 0.02000
O 	O 	0.96197 0.90904 0.22468 -0.38100
C 	C 	0.98421 0.60185 0.03723 -0.01400
O 	O 	0.98909 0.01705 0.74038 -0.69300
H 	H 	0.98540 0.01270 0.75780 0.15900
O 	O 	0.97237 0.90970 0.76273 -0.37600
Ni	Ni	0.00198 0.09726 0.23546 1.10700
C 	C 	0.99451 0.57541 0.44481 0.02300
H 	H 	0.97247 0.59768 0.95080 0.04800
H 	H 	0.99757 0.81943 0.34972 0.06600
H 	H 	0.99515 0.61220 0.05592 0.04000
O 	O 	0.01160 0.11675 0.70492 -0.40800
H 	H 	0.00075 0.60588 0.42965 0.00900
