data_crystal

_cell_length_a 27.71776
_cell_length_b 28.89341
_cell_length_c 38.97493
_cell_angle_alpha 60.84021
_cell_angle_beta  118.86463
_cell_angle_gamma 133.19752

_symmetry_space_group_name_	'P 1'
_symmetry_space_group_name_H-M	'P 1'

loop_
_symmetry_equiv_pos_as_xyz
  x,y,z

loop_
_atom_site_label
_atom_site_type_symbol
_atom_site_fract_x
_atom_site_fract_y
_atom_site_fract_z
_atom_site_charge
C 	C 	0.78014 0.30765 0.06756 0.05000
C 	C 	0.82577 0.37299 0.07056 -0.09300
C 	C 	0.80739 0.39667 0.08265 0.05400
C 	C 	0.74654 0.35345 0.09508 -0.09200
C 	C 	0.69668 0.29212 0.08605 0.05100
C 	C 	0.71391 0.26861 0.07277 -0.09300
H 	H 	0.87433 0.40534 0.06271 0.05900
H 	H 	0.73391 0.37116 0.10617 0.05800
H 	H 	0.67619 0.22073 0.06632 0.05500
C 	C 	0.70989 0.29583 0.52662 0.05200
C 	C 	0.75798 0.36018 0.53195 -0.09300
C 	C 	0.73563 0.39331 0.52969 0.05500
C 	C 	0.66588 0.36458 0.51782 -0.09100
C 	C 	0.61883 0.29747 0.51966 0.05400
C 	C 	0.64074 0.26326 0.52311 -0.09300
H 	H 	0.81196 0.38327 0.53899 0.05700
H 	H 	0.64874 0.39143 0.51413 0.06100
H 	H 	0.60456 0.21159 0.52362 0.05500
C 	C 	0.30743 0.68185 0.18375 0.05500
C 	C 	0.25488 0.61495 0.18593 -0.09600
C 	C 	0.26380 0.57643 0.18111 0.05600
C 	C 	0.32557 0.60427 0.17508 -0.09400
C 	C 	0.37699 0.67150 0.17091 0.05700
C 	C 	0.36758 0.71064 0.17476 -0.09600
H 	H 	0.20752 0.59302 0.19156 0.05600
H 	H 	0.33265 0.57392 0.17211 0.05800
H 	H 	0.40709 0.76283 0.17140 0.06200
C 	C 	0.26945 0.64424 0.70756 0.05500
C 	C 	0.33622 0.66769 0.71322 -0.09400
C 	C 	0.34772 0.63763 0.70155 0.05500
C 	C 	0.29259 0.58128 0.68720 -0.09300
C 	C 	0.22582 0.55651 0.68258 0.05500
C 	C 	0.21416 0.58769 0.69305 -0.09500
H 	H 	0.37895 0.71158 0.72417 0.06200
H 	H 	0.30158 0.55763 0.67862 0.05900
H 	H 	0.16250 0.56959 0.68852 0.05600
Co	Co	0.08677 0.03521 0.08464 1.18100
Co	Co	0.96508 0.93583 0.17123 1.20300
Co	Co	0.00825 0.06000 0.10800 1.17700
Co	Co	0.04607 0.91363 0.14946 1.18400
C 	C 	0.22136 0.08631 0.07949 0.31300
Co	Co	0.12042 0.94200 0.09088 1.17700
Co	Co	0.89535 0.00371 0.15182 1.16300
C 	C 	0.99338 0.81325 0.11302 0.33500
O 	O 	0.84252 0.99622 0.09312 -0.35800
O 	O 	0.96469 0.00199 0.14484 -0.76700
C 	C 	0.87375 0.04214 0.06378 0.27200
O 	O 	0.07116 0.10086 0.07359 -0.46000
O 	O 	0.99348 0.87787 0.18868 -0.44600
C 	C 	0.81674 0.86416 0.15440 0.31300
O 	O 	0.05006 0.00032 0.13921 -0.60000
C 	C 	0.01722 0.14398 0.13876 0.29300
C 	C 	0.04128 0.98189 0.01471 0.42900
C 	C 	0.16864 0.91051 0.17928 0.30500
O 	O 	0.92396 0.04927 0.06045 -0.37900
O 	O 	0.04464 0.93231 0.03863 -0.39700
O 	O 	0.03394 0.01078 0.02821 -0.40400
O 	O 	0.83397 0.90274 0.17300 -0.36800
O 	O 	0.86363 0.87341 0.14587 -0.39500
O 	O 	0.95043 0.10475 0.12973 -0.39300
O 	O 	0.05275 0.13644 0.13090 -0.38700
O 	O 	0.18972 0.95196 0.14578 -0.38500
O 	O 	0.12538 0.90488 0.18971 -0.37800
O 	O 	0.08519 0.96774 0.11096 -0.74700
C 	C 	0.96070 0.96465 0.23649 0.43000
O 	O 	0.95682 0.01271 0.20921 -0.41300
O 	O 	0.97538 0.93564 0.22884 -0.35000
O 	O 	0.18516 0.03822 0.06262 -0.39300
O 	O 	0.19104 0.09747 0.08916 -0.38500
O 	O 	0.05769 0.84283 0.11682 -0.42300
O 	O 	0.97503 0.83959 0.11939 -0.39300
Co	Co	0.03148 0.00292 0.57341 1.17200
Co	Co	0.94327 0.92827 0.67320 1.19200
Co	Co	0.97325 0.04273 0.60356 1.18100
Co	Co	0.00409 0.89057 0.64445 1.18000
C 	C 	0.16504 0.05783 0.56409 0.31900
Co	Co	0.07103 0.91147 0.58410 1.17300
Co	Co	0.90077 0.01619 0.66303 1.16000
C 	C 	0.94943 0.78267 0.61331 0.33700
O 	O 	0.88265 0.07020 0.60572 -0.41300
O 	O 	0.94677 0.99661 0.64714 -0.73500
C 	C 	0.85826 0.05240 0.57267 0.30700
O 	O 	0.01089 0.06629 0.55936 -0.46800
O 	O 	0.95988 0.86266 0.68629 -0.44600
C 	C 	0.79983 0.87368 0.66640 0.30500
O 	O 	0.01007 0.97961 0.63115 -0.57600
C 	C 	0.02709 0.14573 0.64203 0.28200
C 	C 	0.98158 0.93902 0.50837 0.39000
C 	C 	0.12794 0.89086 0.67236 0.30300
O 	O 	0.87993 0.02668 0.56872 -0.40500
O 	O 	0.99032 0.89318 0.53404 -0.36700
O 	O 	0.97260 0.96789 0.52064 -0.34700
O 	O 	0.80779 0.93005 0.65054 -0.37800
O 	O 	0.83772 0.86626 0.66109 -0.39300
O 	O 	0.99839 0.10006 0.67265 -0.33800
O 	O 	0.03533 0.13284 0.61753 -0.38500
O 	O 	0.14504 0.92731 0.63728 -0.38500
O 	O 	0.08874 0.89035 0.68298 -0.38100
O 	O 	0.03658 0.93951 0.60301 -0.75300
C 	C 	0.96871 0.96726 0.74295 0.42300
O 	O 	0.91356 0.96487 0.72271 -0.39400
O 	O 	0.98934 0.95044 0.72955 -0.36300
O 	O 	0.13095 0.00604 0.55124 -0.40200
O 	O 	0.13337 0.06941 0.57201 -0.38900
O 	O 	0.01326 0.81415 0.61454 -0.42100
O 	O 	0.93161 0.80841 0.62100 -0.39900
C 	C 	0.99910 0.93082 0.85537 0.23100
C 	C 	0.01862 0.98853 0.85847 0.00000
C 	C 	0.03345 0.04261 0.82483 0.19500
C 	C 	0.02611 0.03819 0.78813 0.27500
C 	C 	0.00064 0.97871 0.78391 -0.22300
C 	C 	0.98944 0.92572 0.81813 0.31800
C 	C 	0.02241 0.99205 0.89676 -0.00000
F 	F 	0.05246 0.09872 0.82719 -0.36900
F 	F 	0.96551 0.86811 0.81481 -0.40300
C 	C 	0.08446 0.03824 0.91789 0.19600
C 	C 	0.08821 0.04092 0.95416 0.27400
C 	C 	0.03100 0.99536 0.97087 -0.20900
C 	C 	0.96822 0.95121 0.94883 0.31800
C 	C 	0.96374 0.95010 0.91172 0.23000
F 	F 	0.14164 0.07919 0.90397 -0.37100
F 	F 	0.91223 0.90727 0.96430 -0.39400
F 	F 	0.14862 0.08534 0.97434 -0.41600
F 	F 	0.90267 0.90749 0.89070 -0.36300
F 	F 	0.98782 0.87918 0.88811 -0.36600
F 	F 	0.03974 0.09067 0.75584 -0.41700
C 	C 	0.01144 0.95460 0.34789 0.21200
C 	C 	0.95718 0.94570 0.35146 0.00000
C 	C 	0.90105 0.93545 0.31843 0.22400
C 	C 	0.89979 0.93570 0.28197 0.30200
C 	C 	0.95544 0.94793 0.27760 -0.20700
C 	C 	0.01076 0.95612 0.31102 0.29500
C 	C 	0.95854 0.94610 0.39003 0.03100
F 	F 	0.84825 0.92665 0.32138 -0.36100
F 	F 	0.06498 0.96814 0.30739 -0.39400
C 	C 	0.00571 0.00418 0.40329 0.18200
C 	C 	0.00865 0.00367 0.44050 0.25700
C 	C 	0.96422 0.94522 0.46467 -0.17000
C 	C 	0.91374 0.88847 0.44984 0.29900
C 	C 	0.91160 0.88863 0.41309 0.21700
F 	F 	0.04952 0.06077 0.38054 -0.37500
F 	F 	0.86890 0.83217 0.47211 -0.40500
F 	F 	0.05731 0.05904 0.45414 -0.41200
F 	F 	0.86504 0.83241 0.40045 -0.36400
F 	F 	0.06513 0.96259 0.37991 -0.36200
F 	F 	0.84542 0.92649 0.25023 -0.41200
C 	C 	0.16839 0.49848 0.66592 -0.03700
C 	C 	0.16064 0.50038 0.62673 0.08700
C 	C 	0.12835 0.44222 0.61761 -0.08000
C 	C 	0.10002 0.38215 0.64619 -0.01700
C 	C 	0.09684 0.37936 0.68237 0.08100
C 	C 	0.13211 0.43789 0.69224 -0.06700
N 	N 	0.18556 0.55805 0.59825 -0.19800
H 	H 	0.12760 0.44398 0.58893 0.05100
C 	C 	0.08464 0.32530 0.64118 0.01000
N 	N 	0.06099 0.32087 0.70786 -0.19500
H 	H 	0.13491 0.43633 0.72148 0.05200
C 	C 	0.12967 0.30765 0.66471 -0.09500
C 	C 	0.11485 0.25167 0.66280 0.14400
C 	C 	0.05421 0.21317 0.63659 -0.09600
C 	C 	0.01238 0.23410 0.61046 -0.04400
C 	C 	0.02582 0.28878 0.61327 0.05300
H 	H 	0.17580 0.33697 0.68510 0.06700
N 	N 	0.15896 0.23518 0.68614 -0.19900
H 	H 	0.96673 0.20527 0.58969 0.06000
N 	N 	0.98104 0.30451 0.59017 -0.18600
H 	H 	0.20267 0.26273 0.70638 0.10400
H 	H 	0.15133 0.19612 0.68360 0.11100
H 	H 	0.93816 0.27756 0.56942 0.08800
H 	H 	0.98743 0.34259 0.59305 0.09200
H 	H 	0.06096 0.31915 0.73527 0.09800
H 	H 	0.03079 0.27676 0.70001 0.10200
H 	H 	0.20605 0.60126 0.60354 0.08600
H 	H 	0.18224 0.55965 0.56985 0.08400
C 	C 	0.41729 0.66707 0.70202 -0.03500
C 	C 	0.45208 0.72506 0.67301 0.09000
C 	C 	0.51528 0.74793 0.67200 -0.07600
C 	C 	0.54137 0.71109 0.69673 -0.01200
C 	C 	0.50594 0.65238 0.72510 0.08000
C 	C 	0.44564 0.63248 0.72856 -0.06500
N 	N 	0.42431 0.75786 0.64535 -0.19700
H 	H 	0.54311 0.79339 0.65072 0.05700
C 	C 	0.60667 0.73563 0.69311 0.01000
N 	N 	0.52826 0.61399 0.74813 -0.19500
H 	H 	0.41872 0.58794 0.75057 0.05300
C 	C 	0.66514 0.76125 0.72399 -0.09900
C 	C 	0.72977 0.79819 0.71760 0.13800
C 	C 	0.73606 0.81504 0.67864 -0.11100
C 	C 	0.67776 0.78423 0.64911 -0.01400
C 	C 	0.61285 0.74274 0.65655 0.05700
H 	H 	0.66037 0.75330 0.75273 0.07100
N 	N 	0.78544 0.81671 0.74893 -0.20600
H 	H 	0.68274 0.79471 0.61977 0.04600
N 	N 	0.55682 0.71035 0.62853 -0.19100
H 	H 	0.78123 0.80777 0.77711 0.12400
H 	H 	0.83225 0.83587 0.74631 0.12200
H 	H 	0.56155 0.71791 0.60090 0.08800
H 	H 	0.50850 0.67540 0.63460 0.08900
H 	H 	0.50279 0.57174 0.76979 0.09100
H 	H 	0.56940 0.62422 0.74386 0.09400
H 	H 	0.37480 0.73925 0.64258 0.08800
H 	H 	0.45153 0.80170 0.62501 0.08900
C 	C 	0.25763 0.68338 0.71211 -0.03700
C 	C 	0.24810 0.72949 0.67852 0.08900
C 	C 	0.23692 0.76582 0.68392 -0.07900
C 	C 	0.23610 0.75774 0.72219 -0.01200
C 	C 	0.24827 0.71353 0.75605 0.07600
C 	C 	0.25799 0.67604 0.75053 -0.06500
N 	N 	0.24960 0.73910 0.64110 -0.19800
H 	H 	0.22783 0.79994 0.65809 0.05600
C 	C 	0.21653 0.79167 0.72552 0.00500
N 	N 	0.25176 0.70763 0.79386 -0.19600
H 	H 	0.26655 0.64153 0.77628 0.05100
C 	C 	0.14964 0.75658 0.72757 -0.09800
C 	C 	0.12248 0.78967 0.71750 0.12700
C 	C 	0.16164 0.85865 0.70237 -0.10700
C 	C 	0.23160 0.89367 0.70704 -0.01800
C 	C 	0.25962 0.86058 0.71881 0.06100
H 	H 	0.11776 0.70347 0.73526 0.05500
N 	N 	0.05941 0.75517 0.72263 -0.20400
H 	H 	0.26323 0.94673 0.69879 0.05100
N 	N 	0.32734 0.89508 0.72287 -0.19100
H 	H 	0.03059 0.70417 0.73304 0.08300
H 	H 	0.04026 0.77848 0.71914 0.09800
H 	H 	0.35851 0.94621 0.71635 0.09200
H 	H 	0.34999 0.87133 0.73390 0.09300
H 	H 	0.25917 0.67376 0.81855 0.08700
H 	H 	0.24909 0.73772 0.79932 0.09100
H 	H 	0.25858 0.71358 0.63597 0.08600
H 	H 	0.24217 0.77305 0.61652 0.08900
C 	C 	0.20749 0.50753 0.18008 -0.04100
C 	C 	0.21221 0.45721 0.21129 0.09200
C 	C 	0.17690 0.39746 0.20310 -0.08100
C 	C 	0.13465 0.38644 0.16483 -0.01000
C 	C 	0.12199 0.43308 0.13563 0.07200
C 	C 	0.15892 0.49359 0.14355 -0.06500
N 	N 	0.25161 0.46661 0.24887 -0.19800
H 	H 	0.18328 0.35994 0.22626 0.06100
C 	C 	0.10385 0.32575 0.15596 0.00500
N 	N 	0.07554 0.42057 0.09987 -0.19500
H 	H 	0.15329 0.53148 0.12020 0.04600
C 	C 	0.04442 0.26849 0.16849 -0.09600
C 	C 	0.02021 0.20774 0.16765 0.11900
C 	C 	0.05124 0.20498 0.14904 -0.10200
C 	C 	0.11003 0.26292 0.13541 -0.02500
C 	C 	0.13711 0.32332 0.13908 0.06000
H 	H 	0.01939 0.27071 0.18154 0.05500
N 	N 	0.96950 0.15226 0.18642 -0.19600
H 	H 	0.13386 0.26141 0.12101 0.05000
N 	N 	0.19442 0.37868 0.12596 -0.19200
H 	H 	0.94205 0.15464 0.19599 0.09800
H 	H 	0.96155 0.10763 0.19534 0.10700
H 	H 	0.21884 0.37632 0.11379 0.08600
H 	H 	0.21500 0.42454 0.12734 0.08800
H 	H 	0.06755 0.45588 0.07819 0.08000
H 	H 	0.04591 0.37537 0.09357 0.08300
H 	H 	0.27514 0.50920 0.25634 0.09000
H 	H 	0.25706 0.43018 0.27146 0.09200
C 	C 	0.74434 0.81571 0.13939 -0.10700
C 	C 	0.70803 0.75459 0.16579 0.14000
C 	C 	0.64027 0.72529 0.16297 -0.09600
C 	C 	0.60945 0.75710 0.13449 0.00800
C 	C 	0.64230 0.81233 0.10379 0.06600
C 	C 	0.70832 0.83849 0.10533 -0.02100
N 	N 	0.73877 0.72528 0.19479 -0.20300
H 	H 	0.61337 0.68046 0.18484 0.06400
C 	C 	0.55015 0.73951 0.14157 -0.00700
N 	N 	0.61206 0.84175 0.07385 -0.19200
H 	H 	0.73433 0.88145 0.08245 0.05600
C 	C 	0.55985 0.75448 0.17463 -0.08000
C 	C 	0.50411 0.73207 0.18530 0.09800
C 	C 	0.43833 0.70106 0.15946 -0.03800
C 	C 	0.42967 0.69069 0.12460 -0.06300
C 	C 	0.48399 0.70549 0.11697 0.07400
H 	H 	0.61064 0.78044 0.19347 0.07400
N 	N 	0.51372 0.73793 0.22108 -0.19900
H 	H 	0.37945 0.66729 0.10469 0.04800
N 	N 	0.47220 0.68651 0.08630 -0.19600
H 	H 	0.56288 0.76388 0.23878 0.10700
H 	H 	0.47289 0.71378 0.23287 0.09500
H 	H 	0.42332 0.66246 0.06786 0.08500
H 	H 	0.51087 0.69413 0.08093 0.09100
H 	H 	0.63645 0.88176 0.05107 0.09200
H 	H 	0.56445 0.82565 0.07285 0.09400
H 	H 	0.78824 0.74510 0.19630 0.10400
H 	H 	0.71255 0.68117 0.21532 0.09800
C 	C 	0.30050 0.72098 0.19268 -0.03700
C 	C 	0.28228 0.76271 0.16128 0.09000
C 	C 	0.27081 0.79490 0.17094 -0.07800
C 	C 	0.27536 0.78478 0.21112 -0.01200
C 	C 	0.29574 0.74482 0.24261 0.07600
C 	C 	0.30834 0.71344 0.23304 -0.06500
N 	N 	0.27440 0.77108 0.12186 -0.19800
H 	H 	0.25583 0.82613 0.14696 0.05500
C 	C 	0.25204 0.81105 0.21918 0.00500
N 	N 	0.30351 0.73657 0.28197 -0.19600
H 	H 	0.32317 0.68211 0.25704 0.05000
C 	C 	0.18267 0.77408 0.21690 -0.09800
C 	C 	0.15477 0.80418 0.21120 0.12800
C 	C 	0.19699 0.87277 0.20641 -0.10800
C 	C 	0.26787 0.90671 0.21616 -0.01800
C 	C 	0.29591 0.87657 0.22204 0.06100
H 	H 	0.14967 0.72267 0.21722 0.05600
N 	N 	0.08728 0.76752 0.20896 -0.20200
H 	H 	0.30082 0.95837 0.21524 0.05200
N 	N 	0.36452 0.91106 0.22949 -0.19200
H 	H 	0.05557 0.71789 0.20946 0.08400
H 	H 	0.06639 0.78684 0.20888 0.09300
H 	H 	0.39651 0.96017 0.23019 0.09300
H 	H 	0.38682 0.88893 0.23586 0.09400
H 	H 	0.31743 0.70604 0.30499 0.08800
H 	H 	0.29713 0.76122 0.29018 0.09100
H 	H 	0.28091 0.74675 0.11345 0.09000
H 	H 	0.26107 0.80212 0.09895 0.09000
C 	C 	0.73127 0.26300 0.52349 -0.03700
C 	C 	0.76675 0.23869 0.55788 0.08700
C 	C 	0.78290 0.20507 0.55380 -0.08100
C 	C 	0.76236 0.19330 0.51649 -0.01200
C 	C 	0.72677 0.21740 0.48216 0.07400
C 	C 	0.71219 0.25256 0.48596 -0.06600
N 	N 	0.78414 0.24608 0.59495 -0.19800
H 	H 	0.81017 0.18659 0.58005 0.05300
C 	C 	0.77620 0.15327 0.51434 0.00100
N 	N 	0.70666 0.20725 0.44552 -0.19600
H 	H 	0.68500 0.27108 0.45968 0.04900
C 	C 	0.73140 0.08469 0.52549 -0.09100
C 	C 	0.75279 0.04614 0.53604 0.10100
C 	C 	0.82064 0.07700 0.53729 -0.10700
C 	C 	0.85889 0.14348 0.51730 -0.02300
C 	C 	0.83844 0.18270 0.50711 0.06000
H 	H 	0.68162 0.06157 0.52832 0.04900
N 	N 	0.70980 0.97988 0.54785 -0.18800
H 	H 	0.90896 0.16652 0.51495 0.04600
N 	N 	0.87934 0.24829 0.49149 -0.19400
H 	H 	0.66047 0.95700 0.54869 0.09600
H 	H 	0.72465 0.95060 0.55526 0.10600
H 	H 	0.92632 0.26996 0.48759 0.08900
H 	H 	0.86439 0.27814 0.48235 0.08900
H 	H 	0.68019 0.22499 0.42038 0.08400
H 	H 	0.71730 0.18207 0.44152 0.08800
H 	H 	0.76935 0.26703 0.59966 0.08800
H 	H 	0.81171 0.22936 0.61989 0.08700
C 	C 	0.90135 0.71352 0.61106 -0.11900
C 	C 	0.84864 0.69504 0.57596 0.14900
C 	C 	0.82381 0.64040 0.56571 -0.09800
C 	C 	0.85161 0.60483 0.58953 0.01100
C 	C 	0.90178 0.62144 0.62575 0.05900
C 	C 	0.92185 0.67227 0.63756 -0.01300
N 	N 	0.82216 0.72969 0.55182 -0.20000
H 	H 	0.78384 0.62646 0.53867 0.07300
C 	C 	0.82742 0.55009 0.57629 -0.00900
N 	N 	0.93274 0.59069 0.64845 -0.19000
H 	H 	0.96022 0.68487 0.66522 0.04600
C 	C 	0.84311 0.56437 0.54150 -0.07900
C 	C 	0.81964 0.51375 0.52758 0.09500
C 	C 	0.78151 0.44793 0.54956 -0.03800
C 	C 	0.77233 0.43463 0.58658 -0.06500
C 	C 	0.79018 0.48419 0.59855 0.07500
H 	H 	0.87279 0.61488 0.52488 0.06900
N 	N 	0.83364 0.52869 0.49314 -0.19800
H 	H 	0.74432 0.38426 0.60384 0.04600
N 	N 	0.76957 0.46794 0.63055 -0.19500
H 	H 	0.86029 0.57723 0.47645 0.10100
H 	H 	0.81973 0.49255 0.48315 0.09300
H 	H 	0.74421 0.41951 0.64763 0.08300
H 	H 	0.77572 0.50235 0.63773 0.09000
H 	H 	0.96791 0.60174 0.67583 0.08800
H 	H 	0.92476 0.55794 0.63840 0.09200
H 	H 	0.83729 0.76852 0.55954 0.12200
H 	H 	0.78438 0.71670 0.52545 0.12900
C 	C 	0.55241 0.26148 0.52794 -0.03700
C 	C 	0.48974 0.22717 0.50077 0.09000
C 	C 	0.42868 0.19909 0.50838 -0.08100
C 	C 	0.42976 0.21078 0.53987 -0.01000
C 	C 	0.49277 0.24815 0.56554 0.07400
C 	C 	0.55253 0.26834 0.56129 -0.06500
N 	N 	0.48776 0.22220 0.46708 -0.19900
H 	H 	0.38034 0.16980 0.48898 0.06300
C 	C 	0.36445 0.17894 0.54795 0.00500
N 	N 	0.49649 0.26681 0.59325 -0.19500
H 	H 	0.60036 0.29394 0.58235 0.04700
C 	C 	0.34890 0.13311 0.58485 -0.09600
C 	C 	0.28757 0.10192 0.59328 0.12300
C 	C 	0.23685 0.10894 0.56227 -0.10700
C 	C 	0.25286 0.15629 0.52588 -0.01400
C 	C 	0.31749 0.19352 0.51910 0.06800
H 	H 	0.38557 0.12335 0.60754 0.05400
N 	N 	0.27838 0.06695 0.63142 -0.20400
H 	H 	0.21457 0.16320 0.50246 0.07200
N 	N 	0.33437 0.24348 0.48537 -0.19100
H 	H 	0.31494 0.05978 0.65394 0.07900
H 	H 	0.23744 0.05087 0.63965 0.09100
H 	H 	0.29842 0.25202 0.46348 0.10100
H 	H 	0.38398 0.27618 0.48148 0.09400
H 	H 	0.54275 0.29169 0.61338 0.08300
H 	H 	0.45472 0.26034 0.59354 0.08900
H 	H 	0.53213 0.24655 0.45882 0.08900
H 	H 	0.44111 0.19532 0.44787 0.09200
C 	C 	0.86281 0.09411 0.04082 -0.11100
C 	C 	0.79666 0.07732 0.02929 0.12600
C 	C 	0.78846 0.12162 0.02720 -0.10000
C 	C 	0.84544 0.18366 0.03428 0.00500
C 	C 	0.91120 0.20435 0.03884 0.06300
C 	C 	0.91900 0.15961 0.04097 -0.01700
N 	N 	0.74106 0.01859 0.02058 -0.22100
H 	H 	0.73779 0.10698 0.02141 0.05500
C 	C 	0.83624 0.22294 0.04164 -0.01200
N 	N 	0.96684 0.26634 0.04190 -0.18300
H 	H 	0.96959 0.17419 0.04664 0.04700
C 	C 	0.85401 0.22522 0.08144 -0.08000
C 	C 	0.83722 0.25363 0.09048 0.08900
C 	C 	0.80165 0.28009 0.05899 -0.03500
C 	C 	0.78603 0.27989 0.01901 -0.06900
C 	C 	0.80398 0.25252 0.00990 0.07400
H 	H 	0.87966 0.20345 0.10562 0.05700
N 	N 	0.85479 0.25472 0.12941 -0.19800
H 	H 	0.76007 0.30134 0.99486 0.05200
N 	N 	0.79105 0.25568 0.97071 -0.19400
H 	H 	0.88150 0.23557 0.15234 0.08800
H 	H 	0.84225 0.27443 0.13739 0.09100
H 	H 	0.76548 0.27587 0.94756 0.08600
H 	H 	0.80814 0.24019 0.96272 0.09100
H 	H 	0.01552 0.28029 0.04724 0.07700
H 	H 	0.96218 0.30166 0.03795 0.08900
H 	H 	0.74616 0.98691 0.01923 0.12100
H 	H 	0.69209 0.00534 0.01335 0.07800
C 	C 	0.94229 0.75223 0.09946 -0.10800
C 	C 	0.91665 0.69117 0.12817 0.13200
C 	C 	0.89684 0.63713 0.12010 -0.09500
C 	C 	0.90361 0.64374 0.08421 0.00500
C 	C 	0.92318 0.70332 0.05395 0.07400
C 	C 	0.93775 0.75541 0.06104 -0.01800
N 	N 	0.91225 0.68451 0.16377 -0.20500
H 	H 	0.87826 0.59047 0.14235 0.05900
C 	C 	0.88809 0.58730 0.07825 -0.00600
N 	N 	0.93149 0.71203 0.01908 -0.19500
H 	H 	0.95394 0.80142 0.03823 0.07700
C 	C 	0.83033 0.55485 0.04903 -0.08200
C 	C 	0.81032 0.49746 0.04552 0.09300
C 	C 	0.84373 0.46785 0.07476 -0.03800
C 	C 	0.90407 0.50231 0.10223 -0.06200
C 	C 	0.92787 0.56305 0.10338 0.07500
H 	H 	0.80106 0.57445 0.02888 0.06200
N 	N 	0.75828 0.47020 0.01453 -0.20000
H 	H 	0.93121 0.48083 0.12369 0.05100
N 	N 	0.98875 0.59782 0.12835 -0.17700
H 	H 	0.73150 0.49035 0.99418 0.09300
H 	H 	0.74587 0.43050 0.00941 0.09000
H 	H 	0.01652 0.57848 0.14786 0.07100
H 	H 	0.01046 0.64535 0.12739 0.07600
H 	H 	0.94343 0.75527 0.99637 0.12800
H 	H 	0.92939 0.67765 0.01486 0.10400
H 	H 	0.92322 0.72288 0.16959 0.09900
H 	H 	0.89587 0.63997 0.18561 0.09000
C 	C 	0.62437 0.26041 0.08213 -0.03500
C 	C 	0.58488 0.19866 0.10755 0.08500
C 	C 	0.51946 0.17466 0.10593 -0.07900
C 	C 	0.49568 0.21373 0.08243 -0.01200
C 	C 	0.53747 0.27727 0.05945 0.07800
C 	C 	0.59819 0.29724 0.05670 -0.06800
N 	N 	0.60971 0.16297 0.13409 -0.19800
H 	H 	0.48771 0.12613 0.12378 0.04800
C 	C 	0.42595 0.18664 0.08099 0.00000
N 	N 	0.52043 0.31977 0.04085 -0.19500
H 	H 	0.62806 0.34427 0.03705 0.05000
C 	C 	0.41057 0.17004 0.11652 -0.09500
C 	C 	0.34467 0.14276 0.11639 0.12100
C 	C 	0.29438 0.13523 0.07953 -0.09900
C 	C 	0.31274 0.15954 0.04344 -0.02900
C 	C 	0.37554 0.17918 0.04424 0.07100
H 	H 	0.44950 0.17699 0.14453 0.05500
N 	N 	0.32983 0.12285 0.15176 -0.20400
H 	H 	0.27503 0.15590 0.01505 0.09400
N 	N 	0.38600 0.18808 0.01015 -0.19500
H 	H 	0.36658 0.12651 0.17897 0.08400
H 	H 	0.28238 0.10476 0.15258 0.09600
H 	H 	0.34995 0.18581 0.98273 0.11400
H 	H 	0.42772 0.19337 0.01095 0.09400
H 	H 	0.54983 0.36534 0.02230 0.08800
H 	H 	0.48039 0.30965 0.04639 0.09400
H 	H 	0.65968 0.18122 0.13831 0.08700
H 	H 	0.57944 0.11684 0.15191 0.08100
