data_crystal

_cell_length_a 26.29568
_cell_length_b 26.22402
_cell_length_c 39.74103
_cell_angle_alpha 95.51131
_cell_angle_beta  95.50743
_cell_angle_gamma 125.71241

_symmetry_space_group_name_	'P 1'
_symmetry_space_group_name_H-M	'P 1'

loop_
_symmetry_equiv_pos_as_xyz
  x,y,z

loop_
_atom_site_label
_atom_site_type_symbol
_atom_site_fract_x
_atom_site_fract_y
_atom_site_fract_z
_atom_site_charge
C 	C 	0.93325 0.99988 0.99369 0.17800
N 	N 	0.99650 0.03548 0.99268 -0.13800
C 	C 	0.02577 0.00685 0.98982 0.15600
C 	C 	0.97400 0.03193 0.46870 0.14300
C 	C 	0.06827 0.04553 0.46052 0.15000
N 	N 	0.03463 0.06940 0.46308 -0.12400
Cu	Cu	0.59560 0.20446 0.99874 0.93300
Cu	Cu	0.64456 0.20015 0.92651 0.88100
Cu	Cu	0.63984 0.30603 0.95388 0.90200
Cu	Cu	0.60896 0.33029 0.02124 0.90400
C 	C 	0.61559 0.25408 0.07030 0.29300
O 	O 	0.50471 0.17505 0.99782 -0.34000
C 	C 	0.61754 0.25963 0.87879 0.29300
O 	O 	0.65448 0.30416 0.00176 -0.63800
O 	O 	0.58944 0.21128 0.94967 -0.63900
O 	O 	0.62818 0.15231 0.99691 -0.35800
O 	O 	0.70216 0.21467 0.96549 -0.41500
O 	O 	0.59164 0.28402 0.06068 -0.37100
O 	O 	0.69367 0.39840 0.96091 -0.36900
C 	C 	0.69309 0.43691 0.98464 0.31300
C 	C 	0.48493 0.20627 0.98484 0.30100
O 	O 	0.52686 0.26506 0.98058 -0.38500
O 	O 	0.65356 0.41505 0.00668 -0.36500
O 	O 	0.61607 0.21411 0.04762 -0.34500
C 	C 	0.68233 0.17416 0.98669 0.31000
O 	O 	0.63821 0.30771 0.90424 -0.37400
O 	O 	0.60806 0.20631 0.88469 -0.40200
H 	H 	0.69995 0.32879 0.01269 0.18900
H 	H 	0.54562 0.18759 0.93629 0.19300
Cu	Cu	0.76142 0.36046 0.46253 0.92800
Cu	Cu	0.77263 0.32566 0.53885 0.89100
Cu	Cu	0.66239 0.33913 0.50549 0.91500
Cu	Cu	0.65165 0.37325 0.43684 0.90300
C 	C 	0.71246 0.33867 0.39048 0.29100
O 	O 	0.80910 0.45587 0.46304 -0.33400
C 	C 	0.67741 0.31725 0.57230 0.29000
O 	O 	0.66330 0.31882 0.45812 -0.63800
O 	O 	0.75421 0.37314 0.51153 -0.62500
O 	O 	0.79124 0.30513 0.46341 -0.34900
O 	O 	0.84238 0.34330 0.51927 -0.40300
O 	O 	0.69397 0.37496 0.39767 -0.36400
O 	O 	0.57231 0.29983 0.49833 -0.36500
C 	C 	0.54022 0.30345 0.47219 0.30700
C 	C 	0.78502 0.48600 0.47258 0.29600
O 	O 	0.72535 0.45319 0.47652 -0.38200
O 	O 	0.56952 0.34436 0.45145 -0.36600
O 	O 	0.75214 0.33873 0.41357 -0.34200
C 	C 	0.83160 0.31130 0.48880 0.31000
O 	O 	0.66384 0.34868 0.55441 -0.36700
O 	O 	0.69481 0.28433 0.55721 -0.40300
H 	H 	0.63234 0.27281 0.44783 0.17200
H 	H 	0.78223 0.41883 0.52266 0.16700
C 	C 	0.66538 0.31202 0.60780 -0.08400
C 	C 	0.69671 0.29645 0.63042 0.02300
C 	C 	0.68518 0.29099 0.66395 -0.06300
C 	C 	0.64237 0.30111 0.67523 0.04800
C 	C 	0.61114 0.31688 0.65285 -0.06200
C 	C 	0.62257 0.32236 0.61924 0.02700
C 	C 	0.63070 0.29530 0.70981 -0.00800
C 	C 	0.62211 0.29003 0.73892 -0.00800
C 	C 	0.61345 0.28337 0.77387 0.04700
C 	C 	0.65043 0.33715 0.80039 -0.06100
C 	C 	0.64929 0.32979 0.83476 0.02200
C 	C 	0.61130 0.26838 0.84284 -0.08000
C 	C 	0.57159 0.21490 0.81612 0.02300
C 	C 	0.57285 0.22243 0.78178 -0.06200
H 	H 	0.73029 0.28896 0.62210 0.03200
H 	H 	0.70961 0.27896 0.68117 0.06100
H 	H 	0.57795 0.32474 0.66143 0.06700
H 	H 	0.59773 0.33402 0.60207 0.05500
H 	H 	0.68165 0.38448 0.79444 0.06400
H 	H 	0.67983 0.37156 0.85503 0.05000
H 	H 	0.54094 0.16740 0.82194 0.04700
H 	H 	0.54368 0.18067 0.76138 0.06300
C 	C 	0.62641 0.25260 0.10713 -0.07300
C 	C 	0.67772 0.25325 0.12159 0.02200
C 	C 	0.69007 0.25583 0.15704 -0.05800
C 	C 	0.65095 0.25733 0.17808 0.04700
C 	C 	0.59877 0.25490 0.16353 -0.06000
C 	C 	0.58650 0.25255 0.12823 0.02400
C 	C 	0.66563 0.26425 0.21482 -0.00700
C 	C 	0.67530 0.27007 0.24570 -0.00700
C 	C 	0.68435 0.27805 0.28265 0.04800
C 	C 	0.63175 0.25517 0.29883 -0.06100
C 	C 	0.64090 0.27236 0.33446 0.02200
C 	C 	0.70274 0.31217 0.35421 -0.07500
C 	C 	0.75526 0.33213 0.33825 0.03000
C 	C 	0.74606 0.31529 0.30250 -0.06000
H 	H 	0.70874 0.25313 0.10555 0.05300
H 	H 	0.73045 0.25754 0.16813 0.06500
H 	H 	0.56812 0.25565 0.17963 0.06300
H 	H 	0.54610 0.25093 0.11731 0.05000
H 	H 	0.58388 0.22612 0.28366 0.06100
H 	H 	0.60005 0.25636 0.34658 0.03000
H 	H 	0.80324 0.36291 0.35328 0.05600
H 	H 	0.78699 0.33307 0.29018 0.06600
C 	C 	0.86556 0.76655 0.46364 -0.05700
C 	C 	0.90543 0.75441 0.48096 0.01900
C 	C 	0.96917 0.80552 0.49555 0.07600
C 	C 	0.99233 0.86813 0.49268 -0.03400
C 	C 	0.88928 0.82893 0.45972 0.10200
C 	C 	0.88120 0.68767 0.48189 0.03100
N 	N 	0.01108 0.79383 0.51245 -0.01500
H 	H 	0.81668 0.72717 0.45209 0.08500
C 	C 	0.84112 0.65412 0.50497 0.06100
C 	C 	0.81367 0.58914 0.50327 -0.00400
C 	C 	0.82408 0.55654 0.47801 -0.08900
C 	C 	0.86558 0.59070 0.45547 0.12300
C 	C 	0.89468 0.65621 0.45796 -0.07300
N 	N 	0.82618 0.68527 0.52929 -0.01700
H 	H 	0.78262 0.56349 0.52099 0.06500
N 	N 	0.87544 0.55845 0.42876 -0.02300
H 	H 	0.92565 0.68202 0.44025 0.08900
O 	O 	0.79781 0.82644 0.44850 -0.07100
O 	O 	0.06431 0.81379 0.50225 -0.07400
O 	O 	0.99804 0.76692 0.53936 -0.07700
O 	O 	0.83057 0.52155 0.40194 -0.08700
O 	O 	0.93127 0.57090 0.42965 -0.07900
O 	O 	0.76700 0.66171 0.52990 -0.08200
O 	O 	0.87145 0.73489 0.55214 -0.07400
C 	C 	0.89844 0.11214 0.44531 -0.05700
C 	C 	0.89962 0.13837 0.47809 0.01900
C 	C 	0.91670 0.12160 0.50750 0.07400
C 	C 	0.93500 0.08103 0.50385 -0.03100
C 	C 	0.93807 0.05844 0.47125 -0.02300
C 	C 	0.91775 0.07244 0.44173 0.10100
C 	C 	0.88313 0.18357 0.48144 0.03100
N 	N 	0.91760 0.14737 0.54117 -0.01900
H 	H 	0.95049 0.07024 0.52659 0.07500
N 	N 	0.91825 0.04771 0.40812 -0.02700
H 	H 	0.88348 0.12342 0.42261 0.08500
C 	C 	0.92384 0.24519 0.47364 0.05900
C 	C 	0.90610 0.28636 0.47558 0.00300
C 	C 	0.84876 0.26706 0.48581 -0.09400
C 	C 	0.80849 0.20582 0.49401 0.11700
C 	C 	0.82574 0.16436 0.49163 -0.06900
N 	N 	0.98345 0.26628 0.46406 -0.01800
H 	H 	0.93742 0.33367 0.46960 0.06600
N 	N 	0.75032 0.18584 0.50512 -0.03400
H 	H 	0.79430 0.11704 0.49758 0.08700
O 	O 	0.94561 0.08595 0.38663 -0.07400
O 	O 	0.88399 0.10915 0.56143 -0.08600
O 	O 	0.95566 0.20881 0.55251 -0.08000
O 	O 	0.70371 0.17657 0.48382 -0.11800
O 	O 	0.74215 0.17208 0.53565 -0.11100
O 	O 	0.99660 0.28714 0.43538 -0.08300
O 	O 	0.02621 0.26862 0.48502 -0.07100
C 	C 	0.22612 0.11222 0.43298 -0.05700
C 	C 	0.26841 0.16129 0.46126 0.01800
C 	C 	0.24438 0.17519 0.48802 0.07500
C 	C 	0.17849 0.13921 0.48651 -0.03000
C 	C 	0.13630 0.08832 0.45902 -0.02600
C 	C 	0.16016 0.07552 0.43175 0.10100
C 	C 	0.33782 0.19712 0.46308 0.03200
N 	N 	0.28686 0.22477 0.51721 -0.01900
H 	H 	0.16020 0.14913 0.50749 0.07700
H 	H 	0.24450 0.10228 0.41206 0.08400
C 	C 	0.36777 0.16764 0.46912 0.05800
C 	C 	0.43386 0.20278 0.47172 -0.00200
C 	C 	0.47073 0.26759 0.46917 -0.08900
C 	C 	0.44082 0.29742 0.46376 0.12700
C 	C 	0.37443 0.26159 0.45991 -0.07300
N 	N 	0.33124 0.10217 0.47306 -0.01700
H 	H 	0.45663 0.17974 0.47602 0.06200
N 	N 	0.47789 0.36462 0.46382 -0.02300
H 	H 	0.35151 0.28448 0.45559 0.09100
O 	O 	0.28323 0.27169 0.52516 -0.07900
O 	O 	0.32582 0.22050 0.53728 -0.07800
O 	O 	0.51790 0.40532 0.49142 -0.07800
O 	O 	0.46741 0.38512 0.43741 -0.08300
O 	O 	0.33252 0.06107 0.45280 -0.08800
O 	O 	0.30040 0.08464 0.49838 -0.07900
C 	C 	0.86877 0.73520 0.96135 -0.05500
C 	C 	0.82527 0.70496 0.98333 0.01700
C 	C 	0.81373 0.74065 0.00579 0.07900
C 	C 	0.79265 0.63606 0.98308 0.03100
N 	N 	0.76771 0.71009 0.02749 -0.01900
H 	H 	0.87705 0.70766 0.94373 0.08600
C 	C 	0.74755 0.58990 0.95415 0.05900
C 	C 	0.71768 0.52490 0.95426 0.00200
C 	C 	0.73088 0.50534 0.98335 -0.08900
C 	C 	0.77657 0.55147 0.01210 0.12600
C 	C 	0.80740 0.61657 0.01174 -0.06900
N 	N 	0.73097 0.60880 0.92492 -0.01700
H 	H 	0.68236 0.48947 0.93217 0.06600
N 	N 	0.79212 0.53238 0.04160 -0.02600
H 	H 	0.84290 0.65203 0.03376 0.09000
O 	O 	0.78420 0.73109 0.06056 -0.07500
O 	O 	0.70844 0.66410 0.01397 -0.07100
O 	O 	0.81197 0.49721 0.03822 -0.09800
O 	O 	0.79065 0.55379 0.07213 -0.08400
O 	O 	0.73609 0.59116 0.89449 -0.08800
O 	O 	0.70644 0.63962 0.92836 -0.07400
C 	C 	0.82005 0.16747 0.01164 -0.07500
C 	C 	0.79060 0.10212 0.00084 0.03500
C 	C 	0.72389 0.05947 0.98975 0.04700
C 	C 	0.68789 0.08307 0.98793 0.00100
C 	C 	0.71798 0.14898 0.99637 -0.09900
C 	C 	0.78409 0.19112 0.00960 0.12800
C 	C 	0.83006 0.07892 0.00008 0.01900
N 	N 	0.69281 0.99242 0.97933 -0.01100
H 	H 	0.63696 0.05044 0.97815 0.05900
N 	N 	0.81476 0.25791 0.02107 -0.02400
H 	H 	0.87105 0.20004 0.02123 0.08900
C 	C 	0.86832 0.09199 0.97488 0.06900
C 	C 	0.90429 0.06841 0.97403 -0.02300
C 	C 	0.90161 0.03090 0.99769 -0.04200
C 	C 	0.86493 0.01956 0.02359 0.10000
C 	C 	0.82920 0.04342 0.02454 -0.05800
N 	N 	0.86984 0.12822 0.94973 -0.01800
H 	H 	0.93254 0.07737 0.95415 0.07400
H 	H 	0.80080 0.03439 0.04434 0.08300
O 	O 	0.86670 0.30029 0.01073 -0.08500
O 	O 	0.79283 0.27637 0.04336 -0.09900
O 	O 	0.64816 0.95177 0.99473 -0.07700
O 	O 	0.70560 0.97175 0.95277 -0.07300
O 	O 	0.92384 0.18012 0.94668 -0.08500
O 	O 	0.81805 0.10691 0.92825 -0.08800
C 	C 	0.20321 0.09416 0.01570 -0.05400
C 	C 	0.22200 0.10251 0.98361 0.01700
C 	C 	0.17665 0.08308 0.95380 0.07600
C 	C 	0.11282 0.05419 0.95634 -0.02800
C 	C 	0.09389 0.04489 0.98835 -0.02800
C 	C 	0.13949 0.06578 0.01826 0.10300
C 	C 	0.28896 0.13030 0.98131 0.03300
N 	N 	0.19510 0.09181 0.92087 -0.01900
H 	H 	0.07774 0.03805 0.93331 0.07900
N 	N 	0.12102 0.05725 0.05120 -0.02200
H 	H 	0.23811 0.10956 0.03869 0.08400
C 	C 	0.33762 0.19583 0.99385 0.05700
C 	C 	0.40136 0.22045 0.99398 -0.00300
C 	C 	0.41719 0.18042 0.98146 -0.08900
C 	C 	0.36825 0.11531 0.96767 0.12400
C 	C 	0.30450 0.09050 0.96805 -0.07200
N 	N 	0.32251 0.23737 0.00694 -0.01500
H 	H 	0.43871 0.27060 0.00442 0.06000
N 	N 	0.38294 0.07462 0.95262 -0.02300
H 	H 	0.26703 0.04025 0.95795 0.08900
O 	O 	0.13510 0.02828 0.07056 -0.08000
O 	O 	0.09393 0.08212 0.06279 -0.07000
O 	O 	0.16622 0.04313 0.89558 -0.08100
O 	O 	0.23783 0.14892 0.91555 -0.07500
O 	O 	0.36328 0.02180 0.96344 -0.08700
O 	O 	0.41137 0.08770 0.92629 -0.10600
O 	O 	0.34903 0.27121 0.03791 -0.08600
O 	O 	0.28535 0.24432 0.98719 -0.07500
N 	N 	0.99178 0.94271 0.98776 -0.12100
C 	C 	0.92818 0.90675 0.98761 0.16000
N 	N 	0.89903 0.93546 0.99071 -0.12800
N 	N 	0.94729 0.97064 0.47251 -0.11500
C 	C 	0.98056 0.94618 0.46926 0.15300
N 	N 	0.04101 0.98383 0.46325 -0.11900
C 	C 	0.95308 0.88030 0.47448 -0.02200
H 	H 	0.04123 0.90733 0.50432 0.08600
N 	N 	0.84958 0.83933 0.43911 -0.02200
O 	O 	0.86205 0.85602 0.40948 -0.06500
O 	O 	0.88870 0.98658 0.39840 -0.05400
N 	N 	0.11753 0.02549 0.40273 -0.02700
O 	O 	0.12577 0.98253 0.39263 -0.06300
O 	O 	0.07290 0.02511 0.38516 -0.07100
C 	C 	0.84733 0.80649 0.00683 -0.02700
C 	C 	0.89112 0.83689 0.98497 -0.02600
C 	C 	0.90051 0.80052 0.96140 0.10100
H 	H 	0.83942 0.83402 0.02473 0.09000
N 	N 	0.94051 0.82928 0.93673 -0.02100
O 	O 	0.92716 0.85496 0.91444 -0.07600
O 	O 	0.98749 0.82569 0.93495 -0.07900
N 	N 	0.86456 0.98455 0.04923 -0.01300
O 	O 	0.91778 0.00397 0.06852 -0.08300
O 	O 	0.81071 0.93540 0.05460 -0.07100
