data_crystal

_cell_length_a 30.96870
_cell_length_b 27.46219
_cell_length_c 30.75640
_cell_angle_alpha 89.93023
_cell_angle_beta  89.92513
_cell_angle_gamma 90.85295

_symmetry_space_group_name_	'P 1'
_symmetry_space_group_name_H-M	'P 1'

loop_
_symmetry_equiv_pos_as_xyz
  x,y,z

loop_
_atom_site_label
_atom_site_type_symbol
_atom_site_fract_x
_atom_site_fract_y
_atom_site_fract_z
_atom_site_charge
Zn	Zn	0.50666 0.49531 0.99383 1.22400
C 	C 	0.58093 0.55719 0.98217 0.30300
O 	O 	0.52812 0.44931 0.03712 -0.46200
O 	O 	0.56450 0.58211 0.01459 -0.40200
O 	O 	0.58159 0.49470 0.06711 -0.48300
C 	C 	0.46501 0.57861 0.02729 0.34100
O 	O 	0.47946 0.55841 0.99164 -0.42100
O 	O 	0.48129 0.56644 0.06515 -0.48500
C 	C 	0.56812 0.45327 0.05059 0.32900
O 	O 	0.43668 0.46303 0.00244 -0.29500
Zn	Zn	0.54222 0.54929 0.07081 1.17600
O 	O 	0.56241 0.51626 0.96923 -0.38400
C 	C 	0.44325 0.44103 0.96582 0.28000
O 	O 	0.48070 0.44938 0.94813 -0.33900
Zn	Zn	0.30763 0.18082 0.99630 1.22400
C 	C 	0.33166 0.18848 0.08625 0.34400
O 	O 	0.25782 0.15018 0.02604 -0.41100
O 	O 	0.29587 0.21137 0.09525 -0.43000
O 	O 	0.22225 0.22184 0.03214 -0.46000
C 	C 	0.33532 0.28081 0.98769 0.30700
O 	O 	0.32199 0.24190 0.96662 -0.41200
O 	O 	0.32509 0.28681 0.02871 -0.42600
C 	C 	0.22233 0.17415 0.03421 0.33700
O 	O 	0.28264 0.15198 0.92796 -0.27300
Zn	Zn	0.27110 0.26116 0.05187 1.19500
O 	O 	0.34651 0.18781 0.04631 -0.42900
C 	C 	0.31404 0.12135 0.93098 0.31000
O 	O 	0.33692 0.12485 0.96595 -0.36600
C 	C 	0.51180 0.94693 0.65556 0.15400
C 	C 	0.54616 0.92505 0.67757 -0.11200
H 	H 	0.57223 0.90894 0.65924 0.08600
C 	C 	0.54695 0.92462 0.72310 0.08800
C 	C 	0.51325 0.94552 0.74661 -0.09900
C 	C 	0.47898 0.96750 0.72480 0.09100
C 	C 	0.47821 0.96824 0.67925 -0.11300
H 	H 	0.45196 0.98562 0.66222 0.08500
N 	N 	0.51159 0.94856 0.60883 -0.17700
C 	C 	0.48852 0.91399 0.58608 0.19300
C 	C 	0.48876 0.91433 0.54029 -0.05400
C 	C 	0.51298 0.95030 0.51822 0.03400
C 	C 	0.53629 0.98556 0.54195 -0.05900
C 	C 	0.53496 0.98428 0.58770 0.18800
C 	C 	0.46531 0.87921 0.51633 -0.00800
C 	C 	0.46611 0.88001 0.47086 -0.00800
C 	C 	0.49044 0.91589 0.44858 -0.05500
C 	C 	0.51394 0.95098 0.47233 0.03500
C 	C 	0.53840 0.98675 0.45027 -0.06000
C 	C 	0.56064 0.02142 0.51968 -0.00200
C 	C 	0.56174 0.02196 0.47422 -0.00100
C 	C 	0.49158 0.91734 0.40282 0.19300
N 	N 	0.51560 0.95254 0.38171 -0.17800
C 	C 	0.53904 0.98677 0.40449 0.18700
C 	C 	0.51582 0.95394 0.33497 0.15200
C 	C 	0.54398 0.92419 0.31150 -0.11100
C 	C 	0.54474 0.92628 0.26598 0.08200
C 	C 	0.51741 0.95812 0.24395 -0.09500
C 	C 	0.48940 0.98799 0.26730 0.07600
C 	C 	0.48845 0.98575 0.31280 -0.11800
O 	O 	0.55629 0.01749 0.61036 -0.17700
O 	O 	0.46628 0.88015 0.60719 -0.18400
O 	O 	0.46933 0.88493 0.38014 -0.18900
O 	O 	0.56227 0.01980 0.38340 -0.17800
H 	H 	0.46687 0.00887 0.33099 0.08900
H 	H 	0.56530 0.89986 0.32870 0.08300
H 	H 	0.57883 0.04887 0.53744 0.06200
H 	H 	0.58073 0.04985 0.45776 0.06100
H 	H 	0.44641 0.85125 0.53279 0.06100
H 	H 	0.44781 0.85265 0.45309 0.06000
H 	H 	0.51820 0.95996 0.20871 0.07100
H 	H 	0.51400 0.94533 0.78189 0.07600
Zn	Zn	0.76060 0.76495 0.99271 1.22400
C 	C 	0.73000 0.76210 0.08135 0.34500
O 	O 	0.82364 0.77230 0.99499 -0.45700
O 	O 	0.73862 0.71539 0.08245 -0.43800
O 	O 	0.83003 0.74383 0.06402 -0.48100
C 	C 	0.72839 0.66746 0.98761 0.32800
O 	O 	0.71747 0.71324 0.99086 -0.45000
O 	O 	0.76520 0.65308 0.00399 -0.48900
C 	C 	0.84374 0.77232 0.03251 0.33700
O 	O 	0.76240 0.75969 0.91593 -0.30400
Zn	Zn	0.79273 0.68780 0.05224 1.17500
O 	O 	0.74629 0.79009 0.05060 -0.41500
C 	C 	0.74619 0.80299 0.91668 0.30900
O 	O 	0.74076 0.82109 0.95507 -0.35400
Zn	Zn	0.24017 0.72799 0.98007 1.22400
C 	C 	0.21957 0.74202 0.07049 0.34900
O 	O 	0.20132 0.78362 0.97757 -0.44900
O 	O 	0.23321 0.78739 0.06719 -0.42600
O 	O 	0.25580 0.83951 0.98308 -0.49200
C 	C 	0.32601 0.71434 0.01185 0.32000
O 	O 	0.30156 0.71319 0.97703 -0.44100
O 	O 	0.32064 0.74827 0.04125 -0.43400
C 	C 	0.21555 0.82860 0.97328 0.33700
O 	O 	0.23824 0.72286 0.90326 -0.30600
Zn	Zn	0.28637 0.80567 0.02949 1.17900
O 	O 	0.23014 0.70985 0.04094 -0.37600
C 	C 	0.21323 0.68520 0.90971 0.30500
O 	O 	0.20546 0.67468 0.94996 -0.35200
C 	C 	0.99197 0.57202 0.32855 0.16200
C 	C 	0.96302 0.54284 0.30466 -0.11300
H 	H 	0.94065 0.51864 0.32154 0.08300
C 	C 	0.96390 0.54394 0.25917 0.08200
C 	C 	0.99321 0.57480 0.23753 -0.08700
C 	C 	0.02236 0.60378 0.26122 0.07500
C 	C 	0.02167 0.60256 0.30678 -0.11900
H 	H 	0.04456 0.62441 0.32527 0.08400
N 	N 	0.99268 0.56865 0.37517 -0.17500
C 	C 	0.01665 0.53310 0.39464 0.18800
C 	C 	0.01480 0.52638 0.43998 -0.06300
C 	C 	0.98879 0.55701 0.46511 0.04200
C 	C 	0.96536 0.59411 0.44484 -0.05600
C 	C 	0.96788 0.59954 0.39937 0.19500
C 	C 	0.03817 0.48922 0.46043 -0.00700
C 	C 	0.03541 0.48262 0.50545 -0.00700
C 	C 	0.00937 0.51319 0.53078 -0.06200
C 	C 	0.98612 0.55046 0.51056 0.04100
C 	C 	0.96020 0.58116 0.53571 -0.05500
C 	C 	0.93947 0.62482 0.47020 -0.00700
C 	C 	0.93690 0.61839 0.51526 -0.00700
C 	C 	0.00642 0.50732 0.57616 0.18800
N 	N 	0.98161 0.53818 0.60041 -0.17500
C 	C 	0.95825 0.57431 0.58105 0.19500
C 	C 	0.98144 0.53374 0.64696 0.16300
C 	C 	0.94951 0.50533 0.66781 -0.11000
C 	C 	0.95013 0.50013 0.71314 0.08500
C 	C 	0.98257 0.52329 0.73755 -0.08600
C 	C 	0.01453 0.55144 0.71680 0.07800
C 	C 	0.01389 0.55685 0.67154 -0.11900
O 	O 	0.94591 0.63405 0.37990 -0.18700
O 	O 	0.04112 0.50478 0.37071 -0.18700
O 	O 	0.02782 0.47227 0.59551 -0.18500
O 	O 	0.93423 0.60302 0.60508 -0.18400
H 	H 	0.03865 0.57853 0.65534 0.08500
H 	H 	0.92467 0.48717 0.64874 0.08700
H 	H 	0.92123 0.65365 0.45514 0.06100
H 	H 	0.91676 0.64242 0.53413 0.06100
H 	H 	0.05839 0.46527 0.44158 0.06000
H 	H 	0.05361 0.45376 0.52049 0.06100
H 	H 	0.98318 0.51901 0.77263 0.07600
H 	H 	0.99418 0.57522 0.20225 0.07100
Zn	Zn	0.79050 0.30035 0.99610 1.22000
C 	C 	0.78877 0.31281 0.90333 0.33800
O 	O 	0.73983 0.34158 0.98877 -0.42700
O 	O 	0.74868 0.29652 0.90297 -0.38300
O 	O 	0.69313 0.27726 0.98326 -0.42800
C 	C 	0.80838 0.20099 0.97575 0.32700
O 	O 	0.80431 0.23254 0.00748 -0.44700
O 	O 	0.78247 0.20260 0.94206 -0.46200
C 	C 	0.70048 0.32356 0.99142 0.30900
O 	O 	0.78645 0.31147 0.07245 -0.30900
Zn	Zn	0.72939 0.23997 0.94349 1.18900
O 	O 	0.81365 0.30474 0.93697 -0.43000
C 	C 	0.81990 0.33978 0.06681 0.30300
O 	O 	0.83331 0.34452 0.02723 -0.36800
Zn	Zn	0.00932 0.01228 0.02171 1.23600
C 	C 	0.08172 0.95195 0.00089 0.30200
O 	O 	0.98044 0.94872 0.02041 -0.40200
O 	O 	0.06796 0.92534 0.03387 -0.43000
O 	O 	0.99049 0.93407 0.09234 -0.42700
C 	C 	0.07644 0.05367 0.07409 0.31500
O 	O 	0.03614 0.05823 0.06218 -0.38900
O 	O 	0.08963 0.01159 0.08866 -0.43100
C 	C 	0.96963 0.92532 0.05599 0.32400
O 	O 	0.94310 0.04791 0.04013 -0.22000
Zn	Zn	0.05088 0.95569 0.09247 1.17900
O 	O 	0.06209 0.99267 0.99065 -0.34800
C 	C 	0.94219 0.06244 0.00004 0.28300
O 	O 	0.97525 0.05079 0.97653 -0.27300
C 	C 	0.84364 0.16565 0.97686 -0.10600
C 	C 	0.88564 0.18123 0.98728 0.06200
C 	C 	0.91871 0.14752 0.99112 -0.06100
C 	C 	0.91015 0.09771 0.98513 0.07600
C 	C 	0.86848 0.08192 0.97172 -0.12700
C 	C 	0.83523 0.11628 0.96823 0.10900
H 	H 	0.95067 0.15989 0.00074 0.13000
H 	H 	0.80269 0.10452 0.96007 0.06400
H 	H 	0.89253 0.21947 0.99310 0.04700
C 	C 	0.85889 0.02836 0.96359 0.78400
F 	F 	0.81963 0.02145 0.94285 -0.43400
F 	F 	0.89066 0.00876 0.93753 -0.42700
F 	F 	0.85769 0.00368 0.00281 -0.40300
C 	C 	0.91852 0.46972 0.73485 -0.02200
C 	C 	0.89359 0.44456 0.75536 0.02500
C 	C 	0.86640 0.41552 0.78198 0.02500
C 	C 	0.84510 0.39114 0.80683 -0.01000
C 	C 	0.82263 0.36314 0.83830 0.09100
C 	C 	0.80578 0.33980 0.86705 -0.08400
C 	C 	0.83768 0.36880 0.10130 -0.08400
C 	C 	0.85382 0.39412 0.12899 0.07400
C 	C 	0.87413 0.42469 0.15985 -0.01800
C 	C 	0.89274 0.45143 0.18481 0.01400
C 	C 	0.91600 0.48330 0.21238 0.01700
C 	C 	0.93714 0.51085 0.23449 -0.02800
C 	C 	0.18463 0.86784 0.96408 -0.11400
C 	C 	0.14360 0.85631 0.94730 0.04200
C 	C 	0.10990 0.88921 0.95179 -0.04700
C 	C 	0.11687 0.93349 0.97352 0.04200
C 	C 	0.15993 0.94954 0.98093 -0.14200
C 	C 	0.19347 0.91566 0.97797 0.10200
H 	H 	0.07738 0.87789 0.94304 0.06400
H 	H 	0.22568 0.92570 0.98878 0.05200
H 	H 	0.13701 0.82059 0.93374 0.04500
C 	C 	0.16990 0.00078 0.99638 0.78900
F 	F 	0.16734 0.00222 0.04118 -0.46500
F 	F 	0.21115 0.01509 0.98390 -0.44700
F 	F 	0.14131 0.03358 0.97877 -0.42700
C 	C 	0.18652 0.66579 0.87566 -0.07600
C 	C 	0.16274 0.64934 0.84821 0.08000
C 	C 	0.13352 0.62980 0.81746 -0.01000
C 	C 	0.10754 0.61272 0.79243 0.02000
C 	C 	0.07603 0.59217 0.76461 0.02200
C 	C 	0.04836 0.57400 0.74211 -0.02400
C 	C 	0.19141 0.72769 0.10543 -0.07900
C 	C 	0.16710 0.71359 0.13353 0.08900
C 	C 	0.13790 0.69476 0.16479 -0.01300
C 	C 	0.11233 0.67675 0.18987 0.02000
C 	C 	0.08167 0.65347 0.21714 0.01900
C 	C 	0.05492 0.63178 0.23843 -0.02600
C 	C 	0.87726 0.80920 0.04123 -0.10900
C 	C 	0.91444 0.81135 0.01548 0.05400
C 	C 	0.94516 0.84823 0.02190 -0.04300
C 	C 	0.93858 0.88435 0.05340 0.03700
C 	C 	0.90069 0.88275 0.07945 -0.11300
C 	C 	0.87093 0.84395 0.07389 0.10400
H 	H 	0.97392 0.84932 0.00178 0.07000
H 	H 	0.84226 0.84143 0.09405 0.07300
H 	H 	0.91951 0.78444 0.99032 0.03100
C 	C 	0.89204 0.92190 0.11310 0.78900
F 	F 	0.89651 0.96765 0.09461 -0.41500
F 	F 	0.85061 0.91792 0.12983 -0.43100
F 	F 	0.92092 0.91761 0.14708 -0.44500
C 	C 	0.58277 0.90388 0.74608 -0.02400
C 	C 	0.61166 0.88731 0.76746 0.02900
C 	C 	0.64400 0.86866 0.79486 0.02500
C 	C 	0.67016 0.85323 0.82016 -0.00100
C 	C 	0.69890 0.83558 0.85188 0.08800
C 	C 	0.72161 0.82069 0.88062 -0.06800
C 	C 	0.70216 0.78278 0.11353 -0.10000
C 	C 	0.67864 0.80162 0.13964 0.08900
C 	C 	0.65090 0.82526 0.16907 -0.01800
C 	C 	0.62702 0.84668 0.19313 0.02100
C 	C 	0.59875 0.87313 0.21998 0.02000
C 	C 	0.57432 0.89680 0.24167 -0.02500
C 	C 	0.18285 0.14767 0.04687 -0.09000
C 	C 	0.18190 0.12026 0.08518 0.05400
C 	C 	0.14440 0.09492 0.09732 -0.02300
C 	C 	0.10771 0.09514 0.07041 0.05600
C 	C 	0.10677 0.12829 0.03466 -0.11000
C 	C 	0.14530 0.15238 0.02210 0.12700
H 	H 	0.14478 0.07235 0.12623 0.07100
H 	H 	0.14616 0.17471 0.99303 0.07800
H 	H 	0.21046 0.11808 0.10538 0.04700
C 	C 	0.06526 0.13914 0.01058 0.80000
F 	F 	0.03238 0.14845 0.03976 -0.45200
F 	F 	0.06985 0.17980 0.98421 -0.43900
F 	F 	0.05406 0.10004 0.98452 -0.45300
C 	C 	0.33074 0.09718 0.89334 -0.06500
C 	C 	0.34759 0.07715 0.86302 0.08000
C 	C 	0.37032 0.05394 0.82925 -0.00200
C 	C 	0.39207 0.03423 0.80214 0.01500
C 	C 	0.42009 0.01116 0.77263 0.04000
C 	C 	0.44596 0.99136 0.74956 -0.03900
C 	C 	0.46236 0.02162 0.24438 -0.01700
C 	C 	0.44045 0.04930 0.22383 0.01500
C 	C 	0.41563 0.08100 0.19814 0.02200
C 	C 	0.39518 0.10730 0.17478 -0.02300
C 	C 	0.37211 0.13700 0.14570 0.08700
C 	C 	0.35320 0.16123 0.11938 -0.10500
C 	C 	0.41622 0.39912 0.95334 -0.06900
C 	C 	0.43338 0.35222 0.95515 0.02900
C 	C 	0.40601 0.31191 0.96141 -0.03200
C 	C 	0.36134 0.31824 0.96525 0.03300
C 	C 	0.34353 0.36410 0.95544 -0.11900
C 	C 	0.37137 0.40470 0.95080 0.09200
H 	H 	0.41979 0.27639 0.96693 0.06600
H 	H 	0.35819 0.44096 0.94836 0.08000
H 	H 	0.46805 0.34746 0.95595 0.06800
C 	C 	0.29505 0.37066 0.95372 0.78600
F 	F 	0.27898 0.37439 0.99552 -0.47100
F 	F 	0.28465 0.41233 0.93086 -0.42900
F 	F 	0.27540 0.33140 0.93316 -0.44500
C 	C 	0.43008 0.61423 0.02478 -0.09000
C 	C 	0.43057 0.64968 0.99198 0.02900
C 	C 	0.39655 0.68215 0.98812 -0.04100
C 	C 	0.36125 0.67929 0.01663 0.03200
C 	C 	0.35991 0.64275 0.04935 -0.11900
C 	C 	0.39519 0.61127 0.05379 0.09300
H 	H 	0.39761 0.70969 0.96286 0.06300
H 	H 	0.39503 0.58361 0.07893 0.07300
H 	H 	0.45750 0.65222 0.96951 0.08200
C 	C 	0.32024 0.63579 0.07791 0.78700
F 	F 	0.28419 0.62856 0.05211 -0.43800
F 	F 	0.32384 0.59582 0.10507 -0.43800
F 	F 	0.31454 0.67651 0.10354 -0.44600
C 	C 	0.59989 0.41653 0.03728 -0.10800
C 	C 	0.63770 0.41027 0.06147 0.03900
C 	C 	0.66988 0.37932 0.04654 -0.05200
C 	C 	0.66510 0.35465 0.00683 0.04500
C 	C 	0.62723 0.36139 0.98164 -0.13100
C 	C 	0.59422 0.39103 0.99808 0.09100
H 	H 	0.69883 0.37471 0.06577 0.06300
H 	H 	0.56472 0.39557 0.97971 0.06100
H 	H 	0.64233 0.42964 0.09181 0.03400
C 	C 	0.62179 0.33711 0.93758 0.78700
F 	F 	0.61428 0.28776 0.94326 -0.45900
F 	F 	0.58736 0.35609 0.91478 -0.43700
F 	F 	0.65852 0.34413 0.91256 -0.45100
C 	C 	0.69677 0.63140 0.97094 -0.10700
C 	C 	0.69709 0.58318 0.98612 0.02700
C 	C 	0.66013 0.55377 0.98203 -0.05000
C 	C 	0.62250 0.57288 0.96383 0.04100
C 	C 	0.62530 0.61697 0.94021 -0.12700
C 	C 	0.66224 0.64683 0.94503 0.10200
H 	H 	0.65907 0.51844 0.99779 0.05900
H 	H 	0.66307 0.68298 0.93084 0.07000
H 	H 	0.72450 0.56981 0.00417 0.03900
C 	C 	0.58717 0.63490 0.91431 0.79100
F 	F 	0.55957 0.65978 0.94147 -0.44900
F 	F 	0.60077 0.66583 0.88128 -0.43800
F 	F 	0.56498 0.59616 0.89560 -0.43000
