data_crystal

_cell_length_a 21.19238
_cell_length_b 18.39901
_cell_length_c 65.00968
_cell_angle_alpha 90.54929
_cell_angle_beta  91.66129
_cell_angle_gamma 110.95441

_symmetry_space_group_name_	'P 1'
_symmetry_space_group_name_H-M	'P 1'

loop_
_symmetry_equiv_pos_as_xyz
  x,y,z

loop_
_atom_site_label
_atom_site_type_symbol
_atom_site_fract_x
_atom_site_fract_y
_atom_site_fract_z
_atom_site_charge
O 	O 	0.99791 0.11640 0.23478 -0.37500
O 	O 	0.08789 0.18730 0.21584 -0.41300
Ni	Ni	0.04866 0.19074 0.18608 1.06100
O 	O 	0.08675 0.10620 0.17880 -0.41500
C 	C 	0.06379 0.06016 0.16264 0.29200
C 	C 	0.05346 0.17753 0.23284 0.27900
O 	O 	0.03605 0.21210 0.15537 -0.40400
C 	C 	0.02068 0.33764 0.04983 -0.05100
C 	C 	0.04416 0.36658 0.06881 -0.04800
C 	C 	0.01716 0.32297 0.08770 0.04800
C 	C 	0.98315 0.20280 0.10681 0.02700
C 	C 	0.00012 0.24174 0.08826 -0.07200
H 	H 	0.02415 0.47942 0.03733 0.06000
H 	H 	0.98010 0.28148 0.04785 0.05500
H 	H 	0.08359 0.42386 0.07048 0.04600
H 	H 	0.00286 0.20918 0.07457 0.05600
C 	C 	0.10277 0.01507 0.15442 -0.11500
C 	C 	0.06871 0.94456 0.14375 0.03900
C 	C 	0.10450 0.91005 0.13185 -0.08700
H 	H 	0.14759 0.72056 0.04575 0.05300
H 	H 	0.11491 0.74845 0.08019 0.05300
H 	H 	0.07686 0.85901 0.12246 0.05200
C 	C 	0.08706 0.22078 0.25170 -0.09200
C 	C 	0.04791 0.23416 0.26731 0.01900
H 	H 	0.04646 0.27126 0.29867 0.05500
H 	H 	0.99413 0.22046 0.26465 0.03300
C 	C 	0.94895 0.72867 0.30322 -0.04700
C 	C 	0.94307 0.74669 0.32298 -0.05400
C 	C 	0.00108 0.66897 0.34163 -0.08000
H 	H 	0.98159 0.69663 0.29949 0.04400
H 	H 	0.96881 0.61698 0.33334 0.06200
C 	C 	0.05264 0.37971 0.03139 0.05300
C 	C 	0.05226 0.45449 0.02763 -0.06300
C 	C 	0.99166 0.73998 0.33885 0.06300
C 	C 	0.05340 0.66541 0.35464 0.02400
C 	C 	0.07747 0.26258 0.28661 -0.07600
C 	C 	0.01687 0.36432 0.10597 -0.07300
H 	H 	0.03051 0.42695 0.10582 0.04700
C 	C 	0.03277 0.80648 0.35001 -0.07700
H 	H 	0.02541 0.86138 0.34809 0.05900
C 	C 	0.00149 0.32539 0.12463 0.01500
H 	H 	0.08663 0.28866 0.02076 0.06300
H 	H 	0.00369 0.35826 0.13872 0.01700
H 	H 	0.97160 0.14049 0.10711 0.04400
H 	H 	0.15935 0.79893 0.11894 0.04000
H 	H 	0.06119 0.61064 0.35628 0.04800
C 	C 	0.16758 0.77186 0.07619 -0.07000
H 	H 	0.92703 0.86676 0.30144 0.05500
H 	H 	0.90805 0.77514 0.32703 0.05200
C 	C 	0.17521 0.94458 0.13094 0.06700
H 	H 	0.19128 0.49308 0.32335 0.04700
C 	C 	0.19527 0.84330 0.10991 -0.04800
H 	H 	0.25582 0.40259 0.30087 0.04300
C 	C 	0.91768 0.75796 0.28609 0.04800
C 	C 	0.91579 0.83364 0.28708 -0.07100
C 	C 	0.90536 0.86947 0.26915 0.02200
H 	H 	0.90639 0.92874 0.27001 0.04100
Ni	Ni	0.30410 0.79925 0.38047 1.07600
O 	O 	0.43167 0.71972 0.38070 -0.35400
H 	H 	0.27738 0.65849 0.37577 0.15400
C 	C 	0.15143 0.72824 0.37891 0.27500
C 	C 	0.43274 0.77826 0.36889 0.27200
O 	O 	0.40489 0.82847 0.37506 -0.37600
O 	O 	0.50170 0.79042 0.00900 -0.36800
O 	O 	0.35520 0.69856 0.00273 -0.69600
O 	O 	0.23333 0.71660 0.01861 -0.35500
O 	O 	0.32687 0.82742 0.02220 -0.38900
Ni	Ni	0.41029 0.80116 0.01372 1.07300
H 	H 	0.35105 0.65899 0.01333 0.16000
C 	C 	0.27360 0.77504 0.03015 0.27800
C 	C 	0.50978 0.72231 0.00827 0.28700
Ni	Ni	0.95790 0.03475 0.21178 1.09300
O 	O 	0.95734 0.11871 0.19150 -0.70900
Ni	Ni	0.92242 0.05580 0.16570 1.09500
O 	O 	0.86521 0.03100 0.22117 -0.39800
O 	O 	0.88982 0.83977 0.21316 -0.42300
O 	O 	0.92248 0.14584 0.14790 -0.38700
O 	O 	0.92947 0.97210 0.18534 -0.69500
O 	O 	0.95480 0.94892 0.23198 -0.37900
O 	O 	0.87450 0.97914 0.14213 -0.36300
O 	O 	0.79775 0.89911 0.16334 -0.41300
Ni	Ni	0.84838 0.87938 0.18913 1.06800
H 	H 	0.92750 0.14686 0.19558 0.15700
H 	H 	0.96608 0.95369 0.18149 0.14900
O 	O 	0.78995 0.91879 0.20727 -0.40200
C 	C 	0.97903 0.20507 0.14492 0.28600
C 	C 	0.81426 0.96537 0.22325 0.30000
C 	C 	0.82701 0.91190 0.14555 0.28000
C 	C 	0.90966 0.87719 0.23106 0.29000
O 	O 	0.01027 0.06098 0.15220 -0.38100
C 	C 	0.13051 0.46881 0.00006 -0.07300
C 	C 	0.12635 0.39162 0.00267 0.02800
C 	C 	0.08727 0.34705 0.01826 -0.06500
C 	C 	0.09088 0.49874 0.01199 0.02000
C 	C 	0.98522 0.24462 0.12514 -0.08200
H 	H 	0.09294 0.55790 0.00989 0.05900
C 	C 	0.55124 0.70330 0.02417 -0.08600
C 	C 	0.53385 0.70230 0.04481 0.02200
C 	C 	0.57124 0.68088 0.06000 -0.07400
C 	C 	0.62756 0.66253 0.05476 0.05300
C 	C 	0.64358 0.66076 0.03400 -0.07000
C 	C 	0.60523 0.68068 0.01873 0.03700
C 	C 	0.67537 0.65864 0.07115 -0.04900
C 	C 	0.73440 0.71807 0.07380 -0.05000
C 	C 	0.75865 0.75256 0.09448 0.05100
C 	C 	0.82796 0.79318 0.09815 -0.07500
C 	C 	0.85051 0.84327 0.11527 0.02100
C 	C 	0.80389 0.85290 0.12893 -0.10100
C 	C 	0.73504 0.80831 0.12610 0.02000
C 	C 	0.71236 0.75877 0.10891 -0.07500
H 	H 	0.49119 0.71788 0.04907 0.00100
H 	H 	0.55844 0.68213 0.07599 0.04700
H 	H 	0.68684 0.64630 0.02980 0.06600
H 	H 	0.65557 0.62008 0.08387 0.04400
H 	H 	0.75841 0.75052 0.06048 0.05800
H 	H 	0.86412 0.78873 0.08722 0.05700
H 	H 	0.90408 0.87603 0.11763 0.03200
H 	H 	0.69870 0.81470 0.13668 0.03100
H 	H 	0.65854 0.72880 0.10622 0.04800
C 	C 	0.25398 0.78824 0.05106 -0.08500
C 	C 	0.18613 0.75621 0.05664 0.02300
C 	C 	0.21645 0.82008 0.09024 0.04700
C 	C 	0.28468 0.84893 0.08505 -0.07300
C 	C 	0.30333 0.83335 0.06553 0.01800
C 	C 	0.21168 0.91902 0.11499 -0.05700
C 	C 	0.20971 0.01185 0.14289 -0.09600
C 	C 	0.17366 0.04694 0.15462 0.03500
H 	H 	0.32309 0.88428 0.09603 0.05000
H 	H 	0.35610 0.85651 0.06165 0.01600
H 	H 	0.24958 0.96309 0.10640 0.05300
H 	H 	0.26420 0.03890 0.14236 0.05200
H 	H 	0.20062 0.10099 0.16294 0.02800
H 	H 	0.01405 0.91861 0.14383 0.01300
C 	C 	0.77522 0.95161 0.24221 -0.07200
C 	C 	0.77029 0.01409 0.25381 -0.01300
C 	C 	0.73258 0.99998 0.27166 -0.03700
C 	C 	0.69944 0.92340 0.27806 0.03600
C 	C 	0.70645 0.86119 0.26685 -0.06400
C 	C 	0.74340 0.87518 0.24892 0.01000
C 	C 	0.66009 0.90899 0.29708 -0.04500
C 	C 	0.59888 0.85200 0.29767 -0.05100
C 	C 	0.56091 0.83454 0.31691 0.04700
C 	C 	0.53120 0.75706 0.32299 -0.06800
C 	C 	0.49051 0.73893 0.34016 0.01500
C 	C 	0.47849 0.79810 0.35135 -0.07300
C 	C 	0.50859 0.87585 0.34532 0.01600
C 	C 	0.54930 0.89392 0.32814 -0.06500
H 	H 	0.79493 0.07339 0.24891 0.04300
H 	H 	0.72866 0.04851 0.28041 0.03700
H 	H 	0.68377 0.80209 0.27211 0.04800
H 	H 	0.74820 0.82663 0.24039 0.02700
H 	H 	0.68063 0.94654 0.31053 0.05300
H 	H 	0.57806 0.81509 0.28413 0.04400
H 	H 	0.53915 0.71073 0.31428 0.05200
H 	H 	0.46725 0.67870 0.34450 0.04100
H 	H 	0.50021 0.92227 0.35385 0.06100
H 	H 	0.57065 0.95378 0.32334 0.05800
C 	C 	0.15689 0.23959 0.25533 0.01900
C 	C 	0.18650 0.26828 0.27466 -0.07600
C 	C 	0.14666 0.27906 0.29045 0.05100
C 	C 	0.17632 0.30523 0.31124 -0.05300
C 	C 	0.22900 0.37219 0.31406 -0.04700
C 	C 	0.23957 0.41439 0.33393 0.04600
C 	C 	0.21401 0.47416 0.33640 -0.06900
C 	C 	0.21443 0.50695 0.35584 0.01300
C 	C 	0.24253 0.48204 0.37300 -0.07300
C 	C 	0.27078 0.42424 0.37039 0.02200
C 	C 	0.26879 0.39007 0.35091 -0.06100
H 	H 	0.18768 0.22909 0.24347 0.03200
H 	H 	0.23995 0.28033 0.27751 0.05100
H 	H 	0.14816 0.27676 0.32446 0.05600
H 	H 	0.19203 0.55105 0.35760 0.02900
H 	H 	0.28861 0.34374 0.34912 0.06700
C 	C 	0.89955 0.83156 0.24998 -0.09100
C 	C 	0.89413 0.75324 0.24922 0.02000
C 	C 	0.90289 0.71657 0.26724 -0.07500
C 	C 	0.08517 0.80302 0.36307 0.02300
C 	C 	0.09630 0.73262 0.36524 -0.08300
H 	H 	0.88734 0.72224 0.23460 0.02900
H 	H 	0.90274 0.65767 0.26633 0.04800
H 	H 	0.11695 0.85494 0.37147 0.04700
H 	H 	0.61817 0.67987 0.00275 0.05900
O 	O 	0.20408 0.79193 0.38343 -0.39100
H 	H 	0.29257 0.40435 0.38346 0.07800
O 	O 	0.28645 0.69207 0.38827 -0.70900
O 	O 	0.14135 0.66463 0.38944 -0.34900
C 	C 	0.24027 0.51519 0.39361 0.26800
O 	O 	0.19238 0.54322 0.39737 -0.34000
F 	F 	0.41616 0.99591 0.40110 -0.40600
Ni	Ni	0.36672 0.68751 0.40436 1.10400
F 	F 	0.03628 0.44381 0.40884 -0.38900
Ni	Ni	0.21342 0.65367 0.40946 1.10200
O 	O 	0.32345 0.83967 0.41017 -0.39600
O 	O 	0.28368 0.51369 0.40839 -0.38800
F 	F 	0.42490 0.46128 0.40970 -0.40800
O 	O 	0.41188 0.79870 0.41669 -0.34400
F 	F 	0.90418 0.36234 0.41771 -0.39100
O 	O 	0.43888 0.65523 0.41983 -0.33400
C 	C 	0.38123 0.84874 0.41967 0.39600
C 	C 	0.43660 0.99325 0.42098 0.28500
F 	F 	0.49960 0.12974 0.42086 -0.38100
F 	F 	0.50575 0.38083 0.42202 -0.38300
C 	C 	0.01477 0.44815 0.42813 0.27200
O 	O 	0.29522 0.65923 0.42680 -0.69500
C 	C 	0.47147 0.49035 0.42531 0.26900
O 	O 	0.14255 0.61065 0.43108 -0.37400
C 	C 	0.42467 0.59418 0.43173 0.39600
C 	C 	0.47931 0.06157 0.43105 0.27100
C 	C 	0.41754 0.92175 0.43111 -0.20200
C 	C 	0.94718 0.40706 0.43261 0.27800
C 	C 	0.51223 0.44887 0.43176 0.27000
O 	O 	0.17224 0.50384 0.43517 -0.38200
Ni	Ni	0.27586 0.55352 0.43722 1.08400
H 	H 	0.30474 0.69878 0.43804 0.19700
C 	C 	0.12994 0.54065 0.43831 0.40100
C 	C 	0.47682 0.56001 0.43547 -0.19900
C 	C 	0.05990 0.49447 0.44342 -0.19800
O 	O 	0.80522 0.37958 0.44421 -0.38300
O 	O 	0.37716 0.58100 0.44524 -0.37200
C 	C 	0.55860 0.47669 0.44849 -0.19700
Ni	Ni	0.72962 0.41248 0.45423 1.08300
H 	H 	0.67338 0.26974 0.45297 0.18200
C 	C 	0.50310 0.05880 0.45130 -0.20500
C 	C 	0.43900 0.91963 0.45161 0.27800
C 	C 	0.92417 0.41171 0.45246 -0.20100
C 	C 	0.52598 0.59031 0.45136 0.28100
O 	O 	0.55915 0.35400 0.46100 -0.34000
O 	O 	0.54138 0.19392 0.46227 -0.33600
C 	C 	0.59400 0.42728 0.45719 0.37100
C 	C 	0.85215 0.37213 0.45697 0.39200
C 	C 	0.55339 0.12857 0.46133 0.39600
C 	C 	0.48105 0.98783 0.46174 0.28500
C 	C 	0.56671 0.54883 0.45787 0.26900
C 	C 	0.03722 0.49850 0.46331 0.26500
O 	O 	0.68259 0.30803 0.46451 -0.69900
O 	O 	0.65796 0.45866 0.46332 -0.38600
F 	F 	0.41965 0.85116 0.46167 -0.39200
F 	F 	0.53216 0.65825 0.46110 -0.37400
O 	O 	0.83595 0.32363 0.47257 -0.34800
O 	O 	0.60245 0.12078 0.47249 -0.39400
C 	C 	0.96969 0.45700 0.46786 0.27700
F 	F 	0.08042 0.54312 0.47819 -0.40400
O 	O 	0.79211 0.46908 0.47862 -0.37000
F 	F 	0.61154 0.57682 0.47396 -0.39100
Ni	Ni	0.59656 0.29044 0.48043 1.10200
Ni	Ni	0.74265 0.28350 0.48593 1.10400
F 	F 	0.50068 0.98501 0.48169 -0.41800
F 	F 	0.94804 0.46240 0.48707 -0.39900
O 	O 	0.51422 0.26625 0.49816 -0.35700
C 	C 	0.77911 0.45190 0.49795 0.30300
O 	O 	0.51061 0.14179 0.50362 -0.36600
O 	O 	0.65177 0.25173 0.50013 -0.69600
O 	O 	0.69576 0.11759 0.50352 -0.38100
Ni	Ni	0.60664 0.13992 0.50321 1.08500
O 	O 	0.76845 0.38119 0.50438 -0.37100
H 	H 	0.89194 0.58277 0.49936 0.07600
O 	O 	0.78297 0.23329 0.50851 -0.34700
C 	C 	0.49728 0.20366 0.50962 0.27400
H 	H 	0.65614 0.27844 0.51368 0.15500
C 	C 	0.74948 0.16162 0.51421 0.27700
H 	H 	0.39994 0.26488 0.51632 0.05300
C 	C 	0.86133 0.57615 0.51277 0.03800
C 	C 	0.79830 0.51532 0.51346 -0.07000
H 	H 	0.87656 0.16327 0.52227 0.05100
C 	C 	0.46007 0.20075 0.52857 -0.08500
C 	C 	0.41210 0.23706 0.52969 0.02700
C 	C 	0.83997 0.12994 0.53311 0.02900
C 	C 	0.77338 0.12863 0.53193 -0.08500
C 	C 	0.88715 0.62500 0.53002 -0.06200
C 	C 	0.75890 0.50822 0.53082 0.02800
H 	H 	0.93719 0.66937 0.52973 0.06900
H 	H 	0.70962 0.46245 0.53135 0.02700
C 	C 	0.72639 0.08479 0.54598 0.02300
H 	H 	0.67485 0.08353 0.54520 0.00700
C 	C 	0.47510 0.16480 0.54603 0.02000
H 	H 	0.51249 0.13728 0.54541 0.00900
C 	C 	0.85843 0.08465 0.54760 -0.06900
H 	H 	0.90950 0.08440 0.54807 0.05700
C 	C 	0.37966 0.23745 0.54813 -0.07100
H 	H 	0.34283 0.26571 0.54889 0.05900
C 	C 	0.85030 0.61303 0.54803 0.05600
C 	C 	0.78467 0.55707 0.54802 -0.06800
C 	C 	0.81061 0.03852 0.56112 0.04800
C 	C 	0.74457 0.03924 0.56031 -0.07000
C 	C 	0.44340 0.16618 0.56449 -0.07400
H 	H 	0.85748 0.95211 0.56938 0.05000
H 	H 	0.70677 0.00270 0.57035 0.05200
C 	C 	0.39543 0.20218 0.56561 0.05000
C 	C 	0.88253 0.65452 0.56730 -0.05000
H 	H 	0.90491 0.71770 0.56752 0.05100
H 	H 	0.75482 0.54928 0.56163 0.05400
C 	C 	0.82873 0.98588 0.57520 -0.04500
H 	H 	0.45603 0.13910 0.57794 0.04900
H 	H 	0.26532 0.13672 0.57389 0.05100
C 	C 	0.36307 0.20424 0.58527 -0.05100
C 	C 	0.29706 0.16316 0.58740 -0.05000
C 	C 	0.88758 0.61445 0.58406 -0.04400
H 	H 	0.86523 0.55122 0.58369 0.04800
H 	H 	0.00987 0.73110 0.59013 0.04700
C 	C 	0.81184 0.98145 0.59507 -0.04600
H 	H 	0.17392 0.16413 0.59684 0.05200
H 	H 	0.93121 0.95549 0.59715 0.05300
H 	H 	0.78241 0.01481 0.60070 0.04000
H 	H 	0.39468 0.23298 0.59858 0.04300
C 	C 	0.98265 0.71350 0.60417 -0.05100
C 	C 	0.83233 0.93197 0.60967 0.04900
C 	C 	0.89768 0.92896 0.60942 -0.07100
C 	C 	0.26649 0.15147 0.60790 0.04900
C 	C 	0.20019 0.14967 0.60980 -0.07500
C 	C 	0.91830 0.65471 0.60362 0.04100
C 	C 	0.01230 0.74920 0.62291 -0.00200
H 	H 	0.06164 0.79503 0.62309 0.04500
H 	H 	0.11469 0.12281 0.62922 0.02900
C 	C 	0.79025 0.89802 0.62593 -0.07500
C 	C 	0.92208 0.89774 0.62597 0.02300
H 	H 	0.73940 0.89884 0.62615 0.05100
H 	H 	0.97379 0.89960 0.62613 0.03700
C 	C 	0.16664 0.12632 0.62817 0.01900
C 	C 	0.29981 0.13225 0.62486 -0.07400
H 	H 	0.35031 0.13126 0.62349 0.04900
C 	C 	0.88490 0.63033 0.62201 -0.06800
H 	H 	0.83567 0.58422 0.62176 0.04700
C 	C 	0.97803 0.72613 0.64130 -0.07300
C 	C 	0.88269 0.87221 0.64328 -0.09200
C 	C 	0.81534 0.86820 0.64269 0.02400
C 	C 	0.19904 0.10443 0.64484 -0.09100
C 	C 	0.26649 0.10978 0.64330 0.01900
C 	C 	0.91436 0.66605 0.64073 0.01300
H 	H 	0.78404 0.84737 0.65583 0.03300
H 	H 	0.29193 0.09253 0.65599 0.03200
H 	H 	0.88693 0.64824 0.65473 0.02300
O 	O 	0.05151 0.84054 0.66016 -0.38400
O 	O 	0.10162 0.00860 0.65883 -0.37600
C 	C 	0.00526 0.76974 0.66073 0.27600
C 	C 	0.91657 0.86869 0.66302 0.30200
C 	C 	0.15967 0.06588 0.66254 0.27900
O 	O 	0.96609 0.93099 0.66957 -0.39600
O 	O 	0.88705 0.81283 0.67584 -0.39700
O 	O 	0.18998 0.07523 0.68095 -0.41300
Ni	Ni	0.05609 0.92866 0.68056 1.09700
O 	O 	0.98621 0.73580 0.67846 -0.41300
H 	H 	0.02747 0.04524 0.69431 0.15700
O 	O 	0.05447 0.01545 0.69999 -0.70500
Ni	Ni	0.93763 0.77813 0.69915 1.06800
O 	O 	0.01993 0.86865 0.70607 -0.70200
Ni	Ni	0.14476 0.08527 0.70854 1.06400
H 	H 	0.05467 0.84981 0.71200 0.15200
O 	O 	0.87834 0.80462 0.72079 -0.41100
O 	O 	0.17139 0.99647 0.71907 -0.42400
Ni	Ni	0.01039 0.95506 0.72433 1.09900
H 	H 	0.27412 0.95339 0.73060 0.03000
O 	O 	0.12308 0.11176 0.73773 -0.41000
C 	C 	0.06349 0.11068 0.74394 0.28000
O 	O 	0.00844 0.04813 0.74087 -0.38400
C 	C 	0.89869 0.81914 0.74019 0.27900
C 	C 	0.15229 0.96699 0.73709 0.29500
O 	O 	0.09067 0.95536 0.74305 -0.37400
H 	H 	0.97388 0.18391 0.74784 0.02900
O 	O 	0.95065 0.88191 0.74550 -0.36600
H 	H 	0.88035 0.66858 0.74743 0.00400
C 	C 	0.26626 0.96347 0.74661 0.01800
C 	C 	0.20401 0.96618 0.75265 -0.09400
C 	C 	0.06259 0.16576 0.76033 -0.08500
C 	C 	0.00854 0.19273 0.76100 0.00500
H 	H 	0.36796 0.97718 0.75622 0.04900
C 	C 	0.85862 0.77031 0.75637 -0.09400
C 	C 	0.85857 0.69469 0.75892 0.01900
C 	C 	0.31943 0.97679 0.76113 -0.07700
C 	C 	0.10814 0.17945 0.77733 0.01900
H 	H 	0.15060 0.15982 0.77692 0.03700
C 	C 	0.99633 0.22608 0.77915 -0.06200
H 	H 	0.95244 0.24304 0.77986 0.04500
C 	C 	0.19433 0.97771 0.77354 0.02300
C 	C 	0.83053 0.80361 0.77140 0.02900
H 	H 	0.83011 0.86189 0.76954 0.03400
H 	H 	0.14671 0.98014 0.77846 0.04400
C 	C 	0.83530 0.65496 0.77706 -0.07500
H 	H 	0.84005 0.59894 0.77944 0.04800
C 	C 	0.31066 0.99232 0.78181 0.05300
C 	C 	0.24747 0.99180 0.78795 -0.07300
C 	C 	0.03757 0.23183 0.79680 0.04200
C 	C 	0.09566 0.21240 0.79550 -0.07100
H 	H 	0.41741 0.06019 0.79103 0.04500
C 	C 	0.81017 0.68991 0.79261 0.05200
C 	C 	0.80628 0.76353 0.78940 -0.07600
H 	H 	0.12920 0.21920 0.80887 0.05500
C 	C 	0.36981 0.01941 0.79632 -0.06000
H 	H 	0.24043 0.00601 0.80372 0.05200
H 	H 	0.74867 0.53988 0.80244 0.04200
H 	H 	0.78694 0.79105 0.80122 0.05500
C 	C 	0.02251 0.61434 0.96674 0.26500
C 	C 	0.07159 0.59619 0.95576 -0.19400
C 	C 	0.05056 0.53400 0.94128 0.26300
F 	F 	0.09675 0.51365 0.93096 -0.41600
F 	F 	0.04139 0.67511 0.98043 -0.38800
C 	C 	0.14487 0.63978 0.95974 0.37300
Ni	Ni	0.77571 0.32621 0.92062 1.10400
O 	O 	0.70193 0.27060 0.89916 -0.70900
Ni	Ni	0.62207 0.28451 0.91190 1.10400
O 	O 	0.84818 0.30265 0.90460 -0.32800
O 	O 	0.78607 0.17268 0.90293 -0.38700
O 	O 	0.79569 0.42615 0.90369 -0.35100
Ni	Ni	0.68553 0.15959 0.89668 1.06900
O 	O 	0.81765 0.49272 0.94020 -0.37600
O 	O 	0.66618 0.14193 0.92711 -0.39100
O 	O 	0.55556 0.23276 0.88817 -0.35300
O 	O 	0.69475 0.33100 0.93500 -0.69600
O 	O 	0.84541 0.38413 0.94279 -0.36900
O 	O 	0.55020 0.32526 0.92274 -0.33400
O 	O 	0.61240 0.41892 0.94597 -0.37900
Ni	Ni	0.71385 0.44224 0.94076 1.08400
H 	H 	0.71025 0.29494 0.88550 0.15300
H 	H 	0.68652 0.30005 0.94767 0.18400
C 	C 	0.60657 0.13478 0.93383 0.38100
O 	O 	0.70441 0.46074 0.91022 -0.39000
C 	C 	0.83678 0.23303 0.89661 0.27200
C 	C 	0.55587 0.16759 0.87951 0.28600
C 	C 	0.74811 0.45234 0.89724 0.26400
C 	C 	0.56405 0.39411 0.93162 0.39500
C 	C 	0.86102 0.45912 0.94580 0.39200
O 	O 	0.57823 0.18552 0.92873 -0.33000
O 	O 	0.58468 0.12415 0.88924 -0.38300
Ni	Ni	0.39907 0.67449 0.97794 1.10600
O 	O 	0.31181 0.67957 0.96535 -0.70000
Ni	Ni	0.26274 0.69078 0.99047 1.10500
O 	O 	0.42206 0.62745 0.95189 -0.35000
O 	O 	0.32137 0.52575 0.95090 -0.36900
O 	O 	0.45606 0.78305 0.96726 -0.34600
Ni	Ni	0.25551 0.58751 0.94903 1.09200
O 	O 	0.19104 0.50931 0.96876 -0.34600
O 	O 	0.16715 0.67350 0.97804 -0.34500
O 	O 	0.48431 0.67353 0.99266 -0.35400
H 	H 	0.32130 0.72664 0.95694 0.18900
C 	C 	0.18569 0.52271 0.98845 0.30400
O 	O 	0.40824 0.85310 0.98644 -0.40100
C 	C 	0.38543 0.55607 0.94598 0.36800
C 	C 	0.44674 0.84859 0.97148 0.40400
O 	O 	0.23373 0.57749 0.99853 -0.39600
O 	O 	0.18761 0.64096 0.94527 -0.36800
H 	H 	0.15635 0.36770 0.99345 0.05900
C 	C 	0.98201 0.49135 0.93768 0.28100
C 	C 	0.93313 0.50784 0.94901 -0.20100
C 	C 	0.95355 0.57003 0.96342 0.27700
F 	F 	0.96293 0.43402 0.92297 -0.39700
F 	F 	0.90679 0.58698 0.97436 -0.40400
C 	C 	0.59600 0.02509 0.95760 0.25800
C 	C 	0.56549 0.06193 0.94378 -0.19100
C 	C 	0.49585 0.02696 0.93872 0.26400
C 	C 	0.45725 0.95692 0.94767 0.28900
C 	C 	0.48786 0.92022 0.96138 -0.21100
C 	C 	0.55740 0.95427 0.96625 0.28800
F 	F 	0.58731 0.91941 0.97967 -0.39100
F 	F 	0.66277 0.05843 0.96289 -0.39200
F 	F 	0.39011 0.92417 0.94281 -0.39700
F 	F 	0.46600 0.05974 0.92470 -0.37800
C 	C 	0.40963 0.43293 0.94763 0.26800
C 	C 	0.42023 0.50503 0.93840 -0.19300
C 	C 	0.47262 0.53407 0.92449 0.27100
C 	C 	0.51774 0.49536 0.92139 0.27000
C 	C 	0.51016 0.42666 0.93186 -0.20100
C 	C 	0.45445 0.39393 0.94435 0.28200
F 	F 	0.44584 0.32641 0.95417 -0.37900
F 	F 	0.35865 0.40320 0.96084 -0.38900
F 	F 	0.57028 0.52610 0.90877 -0.41000
F 	F 	0.48145 0.60162 0.91466 -0.38900
C 	C 	0.88510 0.22148 0.88212 -0.07100
C 	C 	0.86993 0.14965 0.87168 0.01100
C 	C 	0.91085 0.14204 0.85595 -0.06800
C 	C 	0.96678 0.20619 0.85032 0.04900
C 	C 	0.98441 0.27660 0.86152 -0.05700
C 	C 	0.94379 0.28430 0.87732 0.01500
C 	C 	0.00558 0.19960 0.83237 -0.05000
C 	C 	0.01581 0.25019 0.81692 -0.05300
H 	H 	0.82546 0.10034 0.87533 0.03100
H 	H 	0.89773 0.08697 0.84766 0.05200
H 	H 	0.02891 0.32572 0.85776 0.05900
H 	H 	0.95720 0.33959 0.88551 0.08500
H 	H 	0.01802 0.14752 0.83050 0.05100
H 	H 	0.99901 0.29935 0.81818 0.04800
C 	C 	0.50859 0.13228 0.86220 -0.07700
C 	C 	0.44095 0.12674 0.86294 0.03400
C 	C 	0.39384 0.08342 0.84787 -0.06500
C 	C 	0.41419 0.04635 0.83180 0.04800
C 	C 	0.48206 0.05306 0.83083 -0.06900
C 	C 	0.52907 0.09583 0.84599 0.01800
C 	C 	0.36390 0.99983 0.81621 -0.04100
H 	H 	0.42446 0.15384 0.87552 0.06900
H 	H 	0.34147 0.07847 0.84870 0.06100
H 	H 	0.49813 0.02421 0.81853 0.04900
H 	H 	0.58115 0.09949 0.84536 0.01100
H 	H 	0.31746 0.95630 0.82134 0.05100
C 	C 	0.75039 0.48312 0.87623 -0.07000
C 	C 	0.77846 0.45347 0.86034 0.01200
C 	C 	0.78236 0.48393 0.84058 -0.06700
C 	C 	0.75916 0.54499 0.83655 0.04600
C 	C 	0.72951 0.57339 0.85227 -0.06000
C 	C 	0.72522 0.54271 0.87201 0.01900
C 	C 	0.76580 0.57873 0.81580 -0.04600
C 	C 	0.79749 0.65564 0.81333 -0.05200
H 	H 	0.79720 0.40681 0.86327 0.03000
H 	H 	0.80442 0.46088 0.82848 0.04700
H 	H 	0.71001 0.61935 0.84921 0.06300
H 	H 	0.70317 0.56599 0.88406 0.07500
H 	H 	0.81371 0.69419 0.82679 0.05400
