data_crystal

_cell_length_a 26.26329
_cell_length_b 26.51767
_cell_length_c 34.95857
_cell_angle_alpha 95.50012
_cell_angle_beta  95.49710
_cell_angle_gamma 125.83734

_symmetry_space_group_name_	'P 1'
_symmetry_space_group_name_H-M	'P 1'

loop_
_symmetry_equiv_pos_as_xyz
  x,y,z

loop_
_atom_site_label
_atom_site_type_symbol
_atom_site_fract_x
_atom_site_fract_y
_atom_site_fract_z
_atom_site_charge
C 	C 	0.96334 0.02016 0.99158 0.04700
C 	C 	0.02980 0.05371 0.99545 -0.08600
C 	C 	0.05687 0.02112 0.99560 0.04700
C 	C 	0.01725 0.95499 0.99137 -0.08600
C 	C 	0.95080 0.92132 0.98625 0.04600
C 	C 	0.92390 0.95393 0.98683 -0.09000
H 	H 	0.06026 0.10484 0.99841 0.05500
H 	H 	0.03802 0.92968 0.99128 0.05600
H 	H 	0.87247 0.92788 0.98334 0.05500
C 	C 	0.94029 0.01074 0.47106 0.04900
C 	C 	0.90923 0.94567 0.46981 -0.09400
C 	C 	0.94506 0.92192 0.47206 0.04800
C 	C 	0.01163 0.96329 0.47541 -0.09100
C 	C 	0.04240 0.02794 0.47609 0.05100
C 	C 	0.00680 0.05164 0.47408 -0.09100
H 	H 	0.85767 0.91378 0.46693 0.05400
H 	H 	0.03928 0.94496 0.47667 0.05500
H 	H 	0.03073 0.10176 0.47463 0.05500
Cu	Cu	0.63709 0.23446 0.00042 0.92200
Cu	Cu	0.66973 0.22241 0.91319 0.86400
Cu	Cu	0.66065 0.32410 0.94385 0.89600
Cu	Cu	0.66048 0.36603 0.02832 0.89200
C 	C 	0.66049 0.28639 0.08147 0.28800
O 	O 	0.54721 0.20122 0.00613 -0.37400
C 	C 	0.63332 0.27647 0.86004 0.28400
O 	O 	0.69248 0.33216 0.99741 -0.62700
O 	O 	0.61719 0.23223 0.94399 -0.64000
O 	O 	0.67109 0.18422 0.99725 -0.36800
O 	O 	0.73338 0.23930 0.95424 -0.44400
O 	O 	0.68261 0.34422 0.07675 -0.38800
O 	O 	0.71031 0.41426 0.94491 -0.38900
C 	C 	0.71730 0.45587 0.97305 0.31300
C 	C 	0.52707 0.23631 0.00556 0.28800
O 	O 	0.56356 0.29293 0.99695 -0.38300
O 	O 	0.68388 0.43785 0.00134 -0.40800
O 	O 	0.66519 0.24988 0.05591 -0.36600
C 	C 	0.71842 0.20044 0.97886 0.29800
O 	O 	0.63055 0.31165 0.88796 -0.37700
O 	O 	0.62774 0.22533 0.86642 -0.42100
H 	H 	0.73951 0.35597 0.00367 0.15100
H 	H 	0.57111 0.20534 0.93219 0.17500
Cu	Cu	0.72764 0.33738 0.44816 0.92300
Cu	Cu	0.75350 0.31511 0.53694 0.87500
Cu	Cu	0.63841 0.32356 0.50326 0.90900
Cu	Cu	0.61354 0.34521 0.42365 0.89300
C 	C 	0.67090 0.31048 0.36663 0.29700
O 	O 	0.77224 0.43006 0.44367 -0.36200
C 	C 	0.66825 0.31654 0.58090 0.29500
O 	O 	0.63055 0.29576 0.44893 -0.64100
O 	O 	0.72989 0.35757 0.50492 -0.63100
O 	O 	0.75875 0.28358 0.44849 -0.36800
O 	O 	0.81752 0.32712 0.51029 -0.43000
O 	O 	0.64898 0.34298 0.37604 -0.38900
O 	O 	0.54855 0.28417 0.50051 -0.38100
C 	C 	0.51138 0.28141 0.47085 0.29900
C 	C 	0.74906 0.46045 0.45512 0.29200
O 	O 	0.69203 0.42898 0.46426 -0.39700
O 	O 	0.53559 0.31935 0.44530 -0.39800
O 	O 	0.70896 0.30805 0.39271 -0.35900
C 	C 	0.80073 0.29039 0.47655 0.29900
O 	O 	0.64994 0.34307 0.55944 -0.38200
O 	O 	0.68192 0.28055 0.56387 -0.42700
H 	H 	0.59904 0.24944 0.43965 0.15800
H 	H 	0.75884 0.40370 0.51531 0.15800
C 	C 	0.69736 0.31703 0.68927 -0.07900
C 	C 	0.64331 0.30878 0.70018 0.01400
C 	C 	0.59985 0.30776 0.67251 -0.00700
C 	C 	0.60871 0.31090 0.63370 0.00000
C 	C 	0.66183 0.31719 0.62243 -0.10200
C 	C 	0.70762 0.32263 0.65088 0.06300
C 	C 	0.63289 0.30122 0.74072 0.01000
S 	S 	0.53469 0.30328 0.68618 -0.03900
H 	H 	0.57395 0.30784 0.61219 0.04600
S 	S 	0.77989 0.34066 0.63957 -0.11100
H 	H 	0.73177 0.31965 0.71083 0.05000
C 	C 	0.59147 0.24055 0.74980 -0.00600
C 	C 	0.58867 0.23368 0.78889 -0.00700
C 	C 	0.62879 0.28646 0.81932 -0.09100
C 	C 	0.66911 0.34749 0.81012 0.04800
C 	C 	0.66997 0.35444 0.77093 -0.07200
S 	S 	0.54511 0.17255 0.71259 -0.04700
H 	H 	0.55681 0.18688 0.79568 0.03900
S 	S 	0.72189 0.41505 0.84708 -0.04000
H 	H 	0.70170 0.40113 0.76395 0.05000
H 	H 	0.82453 0.40509 0.64533 0.02900
H 	H 	0.58039 0.15156 0.70429 0.03300
H 	H 	0.77821 0.42269 0.85619 0.02600
H 	H 	0.48277 0.24105 0.68115 0.03600
C 	C 	0.61185 0.22514 0.26139 -0.07300
C 	C 	0.65988 0.27133 0.24355 0.01300
C 	C 	0.71407 0.32811 0.26685 -0.00600
C 	C 	0.71875 0.33876 0.30742 0.00000
C 	C 	0.66932 0.29394 0.32503 -0.09000
C 	C 	0.61621 0.23626 0.30198 0.05400
C 	C 	0.64989 0.26307 0.20041 0.01300
S 	S 	0.77508 0.38726 0.24540 -0.04100
H 	H 	0.75985 0.38299 0.32519 0.04200
S 	S 	0.55452 0.17813 0.32352 -0.06800
H 	H 	0.57031 0.18133 0.24355 0.05100
C 	C 	0.67978 0.24318 0.17882 -0.00600
C 	C 	0.68021 0.24774 0.13924 -0.00300
C 	C 	0.65015 0.27112 0.12083 -0.09200
C 	C 	0.61507 0.28520 0.14165 0.05500
C 	C 	0.61550 0.28143 0.18128 -0.07300
S 	S 	0.71748 0.21340 0.20114 -0.04100
H 	H 	0.70583 0.23524 0.12320 0.04600
S 	S 	0.56996 0.30699 0.11839 -0.07600
H 	H 	0.59077 0.29481 0.19762 0.05100
H 	H 	0.50993 0.18923 0.32540 0.02900
H 	H 	0.78025 0.26221 0.21631 0.03400
H 	H 	0.60728 0.37150 0.12171 0.03100
H 	H 	0.82073 0.37770 0.24333 0.03300
C 	C 	0.78273 0.52778 0.45237 -0.11200
C 	C 	0.75073 0.54800 0.43156 0.12500
C 	C 	0.77860 0.61279 0.43621 -0.10000
C 	C 	0.84024 0.65799 0.45819 0.00600
C 	C 	0.87461 0.63805 0.47637 0.05400
C 	C 	0.84494 0.57290 0.47379 -0.02300
N 	N 	0.69444 0.50569 0.40612 -0.20200
H 	H 	0.75300 0.62823 0.42162 0.05600
C 	C 	0.86823 0.72608 0.46177 -0.01400
N 	N 	0.93589 0.68092 0.49605 -0.19200
H 	H 	0.86996 0.55740 0.48906 0.03600
C 	C 	0.86889 0.75821 0.49634 -0.08000
C 	C 	0.89207 0.82186 0.50007 0.08400
C 	C 	0.91278 0.85306 0.46796 -0.03700
C 	C 	0.90994 0.82014 0.43294 -0.06800
C 	C 	0.88970 0.75756 0.42989 0.07400
H 	H 	0.85179 0.73374 0.52056 0.05000
N 	N 	0.89483 0.85269 0.53456 -0.19800
H 	H 	0.92618 0.84427 0.40850 0.04500
N 	N 	0.89231 0.72854 0.39665 -0.19600
H 	H 	0.87943 0.82918 0.55804 0.08000
H 	H 	0.91239 0.90012 0.53855 0.08400
H 	H 	0.90658 0.75154 0.37288 0.08000
H 	H 	0.88222 0.68389 0.39448 0.08700
H 	H 	0.96037 0.66576 0.50997 0.07900
H 	H 	0.96032 0.72945 0.49701 0.08500
H 	H 	0.67706 0.45865 0.39772 0.06900
H 	H 	0.66945 0.52058 0.39251 0.07900
C 	C 	0.81595 0.24491 0.47357 -0.11900
C 	C 	0.76790 0.17933 0.47172 0.12000
C 	C 	0.78408 0.13737 0.46850 -0.09900
C 	C 	0.84771 0.15999 0.46972 0.00500
C 	C 	0.89594 0.22559 0.47209 0.05500
C 	C 	0.87938 0.26737 0.47380 -0.02000
N 	N 	0.70683 0.15669 0.47439 -0.20100
H 	H 	0.74737 0.08713 0.46669 0.05500
C 	C 	0.86357 0.11477 0.47006 -0.01400
N 	N 	0.95803 0.24876 0.47289 -0.19100
H 	H 	0.91609 0.31757 0.47550 0.03800
C 	C 	0.86464 0.08636 0.43450 -0.08100
C 	C 	0.88434 0.04721 0.43391 0.08500
C 	C 	0.90358 0.03671 0.46964 -0.03800
C 	C 	0.89793 0.06128 0.50496 -0.06800
C 	C 	0.87849 0.10064 0.50562 0.07300
H 	H 	0.85131 0.09576 0.40724 0.05200
N 	N 	0.88507 0.02023 0.39904 -0.19800
H 	H 	0.91170 0.05225 0.53224 0.04400
N 	N 	0.87534 0.12549 0.54045 -0.19500
H 	H 	0.87251 0.02964 0.37284 0.08100
H 	H 	0.89642 0.98847 0.39752 0.08500
H 	H 	0.88700 0.11519 0.56654 0.07900
H 	H 	0.86106 0.15488 0.54205 0.08400
H 	H 	0.99327 0.29725 0.47484 0.08000
H 	H 	0.97201 0.21911 0.47150 0.08500
H 	H 	0.69446 0.18696 0.48111 0.05900
H 	H 	0.67134 0.10802 0.47147 0.07900
C 	C 	0.11164 0.07030 0.47652 -0.03700
C 	C 	0.15666 0.09558 0.51181 0.08600
C 	C 	0.22212 0.13198 0.51058 -0.08100
C 	C 	0.24318 0.14431 0.47493 -0.01400
C 	C 	0.19820 0.12052 0.43977 0.07400
C 	C 	0.13276 0.08361 0.44097 -0.06700
N 	N 	0.13744 0.08536 0.54687 -0.19800
H 	H 	0.25683 0.15075 0.53746 0.05200
C 	C 	0.31229 0.18027 0.47465 0.00500
N 	N 	0.21748 0.13284 0.40487 -0.19500
H 	H 	0.09804 0.06455 0.41406 0.04600
C 	C 	0.33834 0.14715 0.47006 -0.09900
C 	C 	0.40305 0.17913 0.46772 0.12300
C 	C 	0.44271 0.24584 0.47126 -0.11200
C 	C 	0.41673 0.27904 0.47614 -0.02000
C 	C 	0.35181 0.24692 0.47796 0.05500
H 	H 	0.30776 0.09607 0.46745 0.05500
N 	N 	0.42635 0.14544 0.46115 -0.20300
H 	H 	0.44731 0.33015 0.47892 0.04200
N 	N 	0.32777 0.28024 0.48278 -0.19100
H 	H 	0.39699 0.09637 0.45945 0.08000
H 	H 	0.47304 0.16709 0.45657 0.07600
H 	H 	0.35731 0.32941 0.48497 0.08100
H 	H 	0.27982 0.25795 0.48455 0.08600
H 	H 	0.18383 0.11466 0.37906 0.08000
H 	H 	0.26581 0.16081 0.40294 0.08600
H 	H 	0.08930 0.06041 0.54900 0.08500
H 	H 	0.17104 0.10343 0.57270 0.08100
C 	C 	0.75017 0.52162 0.96752 -0.11400
C 	C 	0.81775 0.56474 0.97494 0.12400
C 	C 	0.84728 0.62913 0.97468 -0.09800
C 	C 	0.81052 0.65086 0.96713 0.00400
C 	C 	0.74307 0.60711 0.95727 0.05700
C 	C 	0.71355 0.54283 0.95774 -0.01700
N 	N 	0.85444 0.54491 0.98285 -0.20500
H 	H 	0.89902 0.66269 0.98135 0.05500
C 	C 	0.84305 0.71979 0.97178 -0.00500
N 	N 	0.70646 0.62655 0.94780 -0.19100
H 	H 	0.66179 0.50935 0.95124 0.04200
C 	C 	0.86464 0.74939 0.93971 -0.08200
C 	C 	0.89692 0.81493 0.94324 0.08400
C 	C 	0.90932 0.85157 0.97992 -0.02800
C 	C 	0.88631 0.82176 0.01171 -0.07700
C 	C 	0.85323 0.75610 0.00807 0.06600
H 	H 	0.85595 0.72124 0.91186 0.05100
N 	N 	0.91539 0.84226 0.91132 -0.19800
H 	H 	0.89544 0.84999 0.03965 0.04500
N 	N 	0.83180 0.72835 0.03949 -0.19500
H 	H 	0.90747 0.81508 0.88462 0.08000
H 	H 	0.93613 0.89019 0.91235 0.08300
H 	H 	0.83976 0.75565 0.06615 0.07900
H 	H 	0.80698 0.67965 0.03785 0.08300
H 	H 	0.65662 0.59401 0.94127 0.08200
H 	H 	0.72691 0.67375 0.94624 0.08700
H 	H 	0.83409 0.49727 0.98274 0.07900
H 	H 	0.90431 0.57732 0.98881 0.08100
C 	C 	0.75577 0.17613 0.98637 -0.11000
C 	C 	0.72683 0.11040 0.97766 0.12100
C 	C 	0.76487 0.08958 0.98330 -0.10000
C 	C 	0.83129 0.13311 0.99560 0.01300
C 	C 	0.86016 0.19868 0.00469 0.04500
C 	C 	0.82193 0.21948 0.00015 -0.02900
N 	N 	0.66324 0.06731 0.96261 -0.20400
H 	H 	0.74299 0.03937 0.97658 0.05600
C 	C 	0.87041 0.10961 0.99600 -0.00800
N 	N 	0.92431 0.24180 0.01779 -0.19100
H 	H 	0.84390 0.26971 0.00694 0.03600
C 	C 	0.88907 0.10067 0.96127 -0.07900
C 	C 	0.92082 0.07277 0.95935 0.08300
C 	C 	0.93489 0.05439 0.99313 -0.02700
C 	C 	0.91823 0.06539 0.02823 -0.07800
C 	C 	0.88584 0.09265 0.03002 0.06800
H 	H 	0.87759 0.11423 0.93538 0.04900
N 	N 	0.93682 0.06305 0.92496 -0.19700
H 	H 	0.92957 0.05170 0.05411 0.04500
N 	N 	0.86973 0.10232 0.06437 -0.19500
H 	H 	0.92608 0.07671 0.90020 0.07900
H 	H 	0.95991 0.04191 0.92234 0.08400
H 	H 	0.88081 0.08908 0.08922 0.08000
H 	H 	0.84674 0.12358 0.06693 0.08600
H 	H 	0.94525 0.29017 0.02402 0.07700
H 	H 	0.95393 0.22790 0.02234 0.08200
H 	H 	0.63451 0.08121 0.95462 0.07700
H 	H 	0.64219 0.01888 0.95739 0.08100
C 	C 	0.12646 0.05566 0.99774 -0.02300
C 	C 	0.17084 0.09704 0.03243 0.07200
C 	C 	0.23646 0.12849 0.03316 -0.07400
C 	C 	0.25812 0.11626 0.00093 -0.02600
C 	C 	0.21349 0.07252 0.96697 0.08700
C 	C 	0.14832 0.04446 0.96525 -0.07600
N 	N 	0.15083 0.10551 0.06531 -0.19600
H 	H 	0.27075 0.16156 0.05925 0.04800
C 	C 	0.32768 0.14939 0.00326 -0.00100
N 	N 	0.23275 0.05679 0.93619 -0.19700
H 	H 	0.11419 0.01232 0.93886 0.04800
C 	C 	0.35856 0.13132 0.02675 -0.10200
C 	C 	0.42457 0.16215 0.03014 0.12700
C 	C 	0.45898 0.20749 0.00636 -0.12200
C 	C 	0.42786 0.22559 0.98291 -0.01700
C 	C 	0.36318 0.19873 0.98231 0.06200
H 	H 	0.33149 0.09456 0.04350 0.05500
N 	N 	0.45484 0.15018 0.05745 -0.20300
H 	H 	0.45413 0.26096 0.96518 0.04300
N 	N 	0.33558 0.22059 0.96170 -0.19200
H 	H 	0.42841 0.11366 0.07282 0.08400
H 	H 	0.50447 0.17987 0.06601 0.09800
H 	H 	0.36169 0.25569 0.94535 0.08200
H 	H 	0.28880 0.20455 0.96261 0.08800
H 	H 	0.19963 0.02582 0.91085 0.08100
H 	H 	0.28017 0.07350 0.93746 0.08900
H 	H 	0.10244 0.07880 0.06699 0.08300
H 	H 	0.18410 0.13767 0.09031 0.07900
