data_crystal

_cell_length_a 25.37471
_cell_length_b 25.79247
_cell_length_c 39.25516
_cell_angle_alpha 95.50370
_cell_angle_beta  95.50537
_cell_angle_gamma 125.78418

_symmetry_space_group_name_	'P 1'
_symmetry_space_group_name_H-M	'P 1'

loop_
_symmetry_equiv_pos_as_xyz
  x,y,z

loop_
_atom_site_label
_atom_site_type_symbol
_atom_site_fract_x
_atom_site_fract_y
_atom_site_fract_z
_atom_site_charge
C 	C 	0.97035 0.01778 0.99598 0.11500
N 	N 	0.03523 0.04713 0.99455 -0.13600
C 	C 	0.05701 0.01032 0.98884 0.11900
C 	C 	0.94914 0.91524 0.98541 0.11900
C 	C 	0.93226 0.00278 0.44725 0.11500
N 	N 	0.99936 0.04506 0.45398 -0.14100
C 	C 	0.03598 0.02516 0.46516 0.12200
N 	N 	0.00542 0.96239 0.46881 -0.13500
C 	C 	0.93841 0.91953 0.46154 0.11900
N 	N 	0.90175 0.93996 0.45112 -0.13500
Cu	Cu	0.63250 0.22798 0.00101 0.92600
Cu	Cu	0.69934 0.24520 0.93114 0.87100
Cu	Cu	0.68368 0.34307 0.96378 0.89800
Cu	Cu	0.63228 0.34616 0.02942 0.89300
C 	C 	0.63528 0.25984 0.07375 0.28900
O 	O 	0.53551 0.19123 0.99498 -0.36000
C 	C 	0.67182 0.31193 0.88763 0.28900
O 	O 	0.68805 0.32972 0.01091 -0.64100
O 	O 	0.63537 0.24672 0.95323 -0.64100
O 	O 	0.67331 0.18123 0.99825 -0.36700
O 	O 	0.75408 0.25586 0.97174 -0.43900
O 	O 	0.60827 0.28871 0.06483 -0.38600
O 	O 	0.73505 0.43641 0.97727 -0.37500
C 	C 	0.73153 0.46708 0.00488 0.28400
C 	C 	0.51417 0.22247 0.98203 0.28000
O 	O 	0.55541 0.28559 0.98360 -0.38600
O 	O 	0.68013 0.43702 0.02065 -0.39200
O 	O 	0.64357 0.22669 0.04989 -0.36100
C 	C 	0.73185 0.20896 0.98969 0.28500
O 	O 	0.69467 0.35739 0.91562 -0.38700
O 	O 	0.66612 0.25819 0.88967 -0.41900
H 	H 	0.73349 0.35485 0.02467 0.16200
H 	H 	0.59175 0.22339 0.93770 0.17200
Cu	Cu	0.73540 0.34377 0.45941 0.92700
Cu	Cu	0.74782 0.30177 0.53459 0.87100
Cu	Cu	0.64094 0.31342 0.51029 0.89800
Cu	Cu	0.61276 0.34579 0.44246 0.89400
C 	C 	0.67221 0.31761 0.38841 0.28800
O 	O 	0.77653 0.43895 0.45857 -0.35900
C 	C 	0.69984 0.34256 0.58497 0.28900
O 	O 	0.63441 0.29463 0.46110 -0.64000
O 	O 	0.73713 0.35743 0.51013 -0.64100
O 	O 	0.77880 0.29932 0.45880 -0.37200
O 	O 	0.71901 0.23477 0.49623 -0.43700
O 	O 	0.64910 0.34970 0.39903 -0.38400
O 	O 	0.54638 0.26566 0.50678 -0.37900
C 	C 	0.50807 0.27098 0.48447 0.28900
C 	C 	0.75142 0.46706 0.47179 0.28200
O 	O 	0.69239 0.43129 0.47971 -0.39000
O 	O 	0.53288 0.31433 0.46383 -0.39400
O 	O 	0.71618 0.31780 0.40963 -0.36100
C 	C 	0.75423 0.24601 0.47176 0.28400
O 	O 	0.64604 0.31670 0.56112 -0.38700
O 	O 	0.75192 0.34803 0.57691 -0.41900
H 	H 	0.60409 0.24768 0.45067 0.16400
H 	H 	0.76567 0.40352 0.52215 0.17300
C 	C 	0.69740 0.35507 0.62200 -0.09300
C 	C 	0.75414 0.40763 0.64521 0.01900
C 	C 	0.75462 0.41458 0.68105 -0.07700
C 	C 	0.69845 0.36906 0.69407 0.04600
C 	C 	0.64100 0.31738 0.67070 -0.07500
C 	C 	0.64029 0.31096 0.63485 0.01800
C 	C 	0.70326 0.37084 0.73214 -0.05200
C 	C 	0.65269 0.35641 0.74795 -0.05400
C 	C 	0.65409 0.34751 0.78454 0.04700
C 	C 	0.60547 0.28730 0.79266 -0.07700
C 	C 	0.61002 0.27636 0.82666 0.02000
C 	C 	0.66268 0.32595 0.85296 -0.09300
C 	C 	0.70936 0.38739 0.84521 0.02000
C 	C 	0.70515 0.39809 0.81111 -0.07600
H 	H 	0.79834 0.44230 0.63558 0.02700
H 	H 	0.79927 0.45441 0.69879 0.04600
H 	H 	0.59789 0.28069 0.68034 0.04700
H 	H 	0.59631 0.26994 0.61723 0.03300
H 	H 	0.74865 0.38349 0.74741 0.04200
H 	H 	0.60774 0.34519 0.73303 0.04300
H 	H 	0.56533 0.24833 0.77241 0.04700
H 	H 	0.57322 0.22903 0.83243 0.02700
H 	H 	0.75007 0.42615 0.86531 0.03300
H 	H 	0.74220 0.44522 0.80522 0.04900
C 	C 	0.66202 0.29632 0.35063 -0.08800
C 	C 	0.60011 0.26770 0.32968 0.01800
C 	C 	0.59262 0.25724 0.29340 -0.07600
C 	C 	0.64676 0.27476 0.27764 0.04700
C 	C 	0.70805 0.30051 0.29854 -0.07500
C 	C 	0.71554 0.31093 0.33491 0.02200
C 	C 	0.64112 0.27448 0.23979 -0.05300
C 	C 	0.66082 0.24661 0.21916 -0.05300
C 	C 	0.65228 0.24449 0.18108 0.04700
C 	C 	0.70510 0.26289 0.16387 -0.07500
C 	C 	0.69884 0.26573 0.12838 0.01800
C 	C 	0.63969 0.25014 0.10992 -0.08800
C 	C 	0.58576 0.22846 0.12671 0.02100
C 	C 	0.59174 0.22492 0.16200 -0.07500
H 	H 	0.55825 0.25546 0.34152 0.02000
H 	H 	0.54514 0.23725 0.27751 0.04700
H 	H 	0.75047 0.31499 0.28670 0.04900
H 	H 	0.76363 0.33308 0.35076 0.03800
H 	H 	0.61745 0.29448 0.22840 0.04300
H 	H 	0.68544 0.22746 0.23050 0.04300
H 	H 	0.75152 0.27666 0.17816 0.04800
H 	H 	0.74049 0.28176 0.11553 0.02700
H 	H 	0.53935 0.21478 0.11247 0.03400
H 	H 	0.54964 0.20781 0.17463 0.04900
C 	C 	0.82161 0.72902 0.44850 0.00100
C 	C 	0.77297 0.66687 0.45453 -0.05500
C 	C 	0.78779 0.62225 0.45421 0.01500
C 	C 	0.85048 0.64096 0.44970 0.00100
C 	C 	0.90224 0.70601 0.44984 -0.05900
C 	C 	0.88660 0.74981 0.44829 0.02400
S 	S 	0.82421 0.79464 0.45927 0.00400
C 	C 	0.90609 0.85068 0.46349 -0.01900
C 	C 	0.93416 0.81836 0.45635 -0.04800
S 	S 	0.85958 0.58654 0.46245 0.02100
C 	C 	0.78515 0.53714 0.47328 -0.07700
C 	C 	0.75069 0.56360 0.46718 -0.02400
H 	H 	0.72677 0.65473 0.46081 0.04600
H 	H 	0.95296 0.72247 0.45261 0.04600
H 	H 	0.98657 0.84309 0.45709 0.04800
H 	H 	0.70038 0.54064 0.47103 0.03800
C 	C 	0.86709 0.10331 0.42580 -0.00100
C 	C 	0.87648 0.16297 0.43061 -0.05500
C 	C 	0.83422 0.16791 0.44878 0.01200
C 	C 	0.78761 0.11622 0.46373 0.00200
C 	C 	0.77773 0.05645 0.45881 -0.06200
C 	C 	0.82011 0.05132 0.44077 0.02600
S 	S 	0.92587 0.09479 0.42025 0.00400
C 	C 	0.89293 0.02427 0.43425 -0.01600
C 	C 	0.83457 0.00665 0.44551 -0.05500
S 	S 	0.73171 0.12730 0.47228 0.00600
C 	C 	0.76481 0.19810 0.45843 -0.07600
C 	C 	0.82231 0.21489 0.44631 -0.02400
H 	H 	0.91427 0.20344 0.41998 0.04500
H 	H 	0.74050 0.01642 0.46993 0.04500
H 	H 	0.85439 0.25916 0.43648 0.04400
C 	C 	0.22482 0.17356 0.48732 -0.00000
C 	C 	0.28610 0.22234 0.47982 -0.05500
C 	C 	0.34105 0.22452 0.49251 0.01400
C 	C 	0.33373 0.17747 0.51125 0.00100
C 	C 	0.27100 0.12339 0.51409 -0.05900
C 	C 	0.21635 0.12239 0.50249 0.02400
S 	S 	0.15223 0.14627 0.46381 0.00700
C 	C 	0.10854 0.07083 0.47218 -0.02000
C 	C 	0.15042 0.06472 0.49438 -0.04800
S 	S 	0.39866 0.17674 0.50988 0.02000
C 	C 	0.43772 0.23508 0.48637 -0.07700
C 	C 	0.40025 0.25774 0.47897 -0.02000
H 	H 	0.29003 0.25454 0.46270 0.04600
H 	H 	0.26448 0.08168 0.52278 0.04600
H 	H 	0.41388 0.29505 0.46358 0.04100
C 	C 	0.85900 0.65091 0.00225 -0.00800
C 	C 	0.89255 0.69776 0.98166 -0.05100
C 	C 	0.87581 0.74011 0.97772 0.02100
C 	C 	0.82375 0.73254 0.99224 0.00600
C 	C 	0.78995 0.68553 0.01275 -0.06100
C 	C 	0.80620 0.64262 0.01635 0.01800
S 	S 	0.84793 0.58041 0.99728 0.02700
C 	C 	0.77917 0.53817 0.01403 -0.08000
C 	C 	0.76120 0.57908 0.02310 -0.02100
S 	S 	0.83469 0.80313 0.99665 0.00500
C 	C 	0.90213 0.84393 0.97863 -0.01900
C 	C 	0.91982 0.80270 0.96984 -0.04600
H 	H 	0.93163 0.70225 0.96988 0.04500
H 	H 	0.75074 0.68092 0.02442 0.04700
H 	H 	0.71290 0.56116 0.02874 0.04300
H 	H 	0.96708 0.81976 0.96292 0.04900
C 	C 	0.78622 0.09606 0.99115 0.00900
C 	C 	0.79855 0.05298 0.00132 -0.07300
C 	C 	0.85492 0.06059 0.99291 0.03700
C 	C 	0.89879 0.11195 0.97689 -0.00500
C 	C 	0.89231 0.16132 0.97244 -0.05300
C 	C 	0.83379 0.15148 0.97874 0.00800
S 	S 	0.73534 0.10906 0.00652 0.01200
C 	C 	0.76976 0.18352 0.99724 -0.07600
C 	C 	0.82445 0.20060 0.98187 -0.02700
S 	S 	0.96866 0.11910 0.98031 0.00300
C 	C 	0.94561 0.05674 0.00092 -0.02100
C 	C 	0.88083 0.02926 0.00635 -0.06000
H 	H 	0.76690 0.01651 0.01604 0.04900
H 	H 	0.93172 0.20611 0.96542 0.04200
H 	H 	0.85501 0.24571 0.97247 0.03500
C 	C 	0.21851 0.04539 0.96470 -0.00600
C 	C 	0.27551 0.04849 0.96553 -0.05300
C 	C 	0.33106 0.10354 0.95686 0.01300
C 	C 	0.33022 0.15570 0.95013 0.00200
C 	C 	0.27645 0.15641 0.95468 -0.06000
C 	C 	0.21922 0.09928 0.96079 0.02600
S 	S 	0.15714 0.99789 0.98484 0.01700
C 	C 	0.12724 0.04109 0.98814 -0.02300
C 	C 	0.16708 0.09644 0.97341 -0.04700
S 	S 	0.40821 0.22163 0.95570 0.01600
C 	C 	0.44504 0.18635 0.96428 -0.07700
C 	C 	0.39574 0.12078 0.96488 -0.02200
H 	H 	0.27758 0.01096 0.97418 0.04500
H 	H 	0.28019 0.20054 0.95516 0.04700
H 	H 	0.15829 0.13246 0.97134 0.05000
H 	H 	0.40600 0.08950 0.97528 0.04500
N 	N 	0.01379 0.94456 0.98422 -0.13400
N 	N 	0.92760 0.95188 0.99154 -0.13500
H 	H 	0.80973 0.96965 0.46125 0.05300
H 	H 	0.13497 0.01990 0.50296 0.04800
H 	H 	0.85270 0.98684 0.01824 0.05500
