data_crystal

_cell_length_a 26.21924
_cell_length_b 26.50929
_cell_length_c 34.89083
_cell_angle_alpha 95.49187
_cell_angle_beta  95.49067
_cell_angle_gamma 125.83383

_symmetry_space_group_name_	'P 1'
_symmetry_space_group_name_H-M	'P 1'

loop_
_symmetry_equiv_pos_as_xyz
  x,y,z

loop_
_atom_site_label
_atom_site_type_symbol
_atom_site_fract_x
_atom_site_fract_y
_atom_site_fract_z
_atom_site_charge
C 	C 	0.94824 0.01649 0.99107 0.03400
C 	C 	0.01186 0.05065 0.98535 -0.07600
C 	C 	0.04146 0.02060 0.98226 0.03400
C 	C 	0.00743 0.95652 0.98509 -0.07700
C 	C 	0.94398 0.92236 0.99089 0.03200
C 	C 	0.91455 0.95246 0.99402 -0.07800
H 	H 	0.03791 0.10008 0.98289 0.05000
H 	H 	0.03023 0.93325 0.98268 0.05100
H 	H 	0.86549 0.92610 0.99861 0.05000
C 	C 	0.95396 0.01637 0.46474 0.03200
C 	C 	0.02007 0.05204 0.46538 -0.07500
C 	C 	0.05091 0.02316 0.46723 0.03300
C 	C 	0.01540 0.95843 0.46856 -0.07500
C 	C 	0.94959 0.92282 0.46872 0.03100
C 	C 	0.91868 0.95165 0.46641 -0.07700
H 	H 	0.04746 0.10219 0.46460 0.05100
H 	H 	0.03896 0.93579 0.46957 0.05100
H 	H 	0.86773 0.92413 0.46641 0.05100
Cu	Cu	0.61764 0.22619 0.99828 0.92700
Cu	Cu	0.67594 0.23584 0.91788 0.87100
Cu	Cu	0.66530 0.33491 0.95339 0.89700
Cu	Cu	0.62225 0.34457 0.02845 0.89600
C 	C 	0.63047 0.26583 0.08042 0.28800
O 	O 	0.52422 0.19129 0.99418 -0.36300
C 	C 	0.65064 0.30007 0.86750 0.29100
O 	O 	0.67350 0.32569 0.00687 -0.63800
O 	O 	0.61670 0.24075 0.94375 -0.64200
O 	O 	0.65484 0.17875 0.99497 -0.37200
O 	O 	0.73137 0.24792 0.96283 -0.44000
O 	O 	0.60387 0.29365 0.07080 -0.38200
O 	O 	0.71661 0.42616 0.96659 -0.38300
C 	C 	0.70783 0.45871 0.99269 0.28900
C 	C 	0.50326 0.22215 0.98096 0.28300
O 	O 	0.54447 0.28217 0.97918 -0.39500
O 	O 	0.66469 0.43089 0.01537 -0.39000
O 	O 	0.63218 0.22842 0.05354 -0.35200
C 	C 	0.71080 0.20428 0.98459 0.29100
O 	O 	0.67234 0.34529 0.89832 -0.38500
O 	O 	0.64204 0.24669 0.87121 -0.41400
H 	H 	0.71823 0.35044 0.02124 0.16900
H 	H 	0.57362 0.21780 0.92728 0.17600
Cu	Cu	0.75099 0.35127 0.45260 0.92800
Cu	Cu	0.74839 0.30032 0.53471 0.87100
Cu	Cu	0.65250 0.31991 0.50467 0.89700
Cu	Cu	0.63031 0.34697 0.42636 0.89500
C 	C 	0.70176 0.33119 0.37098 0.29100
O 	O 	0.78634 0.44313 0.45280 -0.36200
C 	C 	0.69070 0.32926 0.58895 0.28500
O 	O 	0.65140 0.29900 0.45011 -0.63900
O 	O 	0.74590 0.36050 0.50870 -0.64000
O 	O 	0.79788 0.31324 0.45482 -0.37000
O 	O 	0.73091 0.24197 0.49014 -0.43700
O 	O 	0.67606 0.35956 0.38153 -0.38400
O 	O 	0.56063 0.27430 0.49854 -0.38300
C 	C 	0.52264 0.27100 0.46897 0.29300
C 	C 	0.75836 0.46689 0.46720 0.28200
O 	O 	0.69878 0.42863 0.47200 -0.39500
O 	O 	0.54539 0.30701 0.44220 -0.39200
O 	O 	0.73989 0.32863 0.39696 -0.35600
C 	C 	0.77274 0.25929 0.46698 0.29100
O 	O 	0.65505 0.33306 0.56159 -0.37700
O 	O 	0.74344 0.33705 0.58264 -0.41000
H 	H 	0.62365 0.25308 0.43897 0.16800
H 	H 	0.77388 0.40442 0.52383 0.17500
C 	C 	0.65427 0.36647 0.68553 -0.04100
C 	C 	0.65768 0.32584 0.70710 0.02000
C 	C 	0.66849 0.28414 0.68912 -0.06100
C 	C 	0.67751 0.28364 0.65024 0.02300
C 	C 	0.67688 0.32618 0.62908 -0.08300
C 	C 	0.66418 0.36667 0.64671 0.01200
C 	C 	0.65171 0.32751 0.74895 0.02100
C 	C 	0.59476 0.27858 0.75930 -0.06100
C 	C 	0.59233 0.27164 0.79855 0.02500
C 	C 	0.64740 0.31415 0.82783 -0.08500
C 	C 	0.70254 0.36622 0.81785 0.00900
C 	C 	0.70518 0.37283 0.77858 -0.04200
C 	C 	0.53323 0.22082 0.80854 0.06700
C 	C 	0.76366 0.42490 0.76877 0.08800
C 	C 	0.64088 0.40819 0.70304 0.08900
C 	C 	0.68561 0.23811 0.63193 0.05300
N 	N 	0.48590 0.18010 0.81656 -0.11700
N 	N 	0.81049 0.46660 0.76087 -0.11900
N 	N 	0.69208 0.20164 0.61727 -0.13000
N 	N 	0.63018 0.44162 0.71710 -0.11800
H 	H 	0.66292 0.39892 0.63043 0.04100
H 	H 	0.67011 0.25220 0.70553 0.05000
H 	H 	0.55311 0.24457 0.73662 0.05100
H 	H 	0.74455 0.39976 0.84043 0.03600
C 	C 	0.71373 0.35308 0.26624 -0.04200
C 	C 	0.68756 0.29131 0.24703 0.02000
C 	C 	0.67272 0.24443 0.26919 -0.05800
C 	C 	0.68002 0.25767 0.31008 0.02200
C 	C 	0.70234 0.31845 0.32900 -0.07900
C 	C 	0.72095 0.36630 0.30701 0.01200
C 	C 	0.66909 0.27385 0.20372 0.02000
C 	C 	0.71514 0.28540 0.18112 -0.05800
C 	C 	0.70203 0.27996 0.14039 0.02100
C 	C 	0.64219 0.26278 0.12206 -0.07800
C 	C 	0.59478 0.24716 0.14440 0.01100
C 	C 	0.60788 0.25256 0.18503 -0.04100
C 	C 	0.75090 0.29408 0.11786 0.07000
C 	C 	0.55887 0.23792 0.20755 0.08700
C 	C 	0.73161 0.40272 0.24413 0.08700
C 	C 	0.66268 0.20819 0.33222 0.06900
N 	N 	0.78999 0.30533 0.09977 -0.11500
N 	N 	0.51966 0.22622 0.22563 -0.12000
N 	N 	0.64884 0.16859 0.34999 -0.11600
N 	N 	0.74590 0.44243 0.22639 -0.12000
H 	H 	0.73974 0.41353 0.32162 0.04100
H 	H 	0.65343 0.19711 0.25447 0.05200
H 	H 	0.76194 0.30089 0.19543 0.05200
H 	H 	0.54811 0.23218 0.13023 0.04200
C 	C 	0.79524 0.62710 0.49873 -0.06500
C 	C 	0.83799 0.66268 0.47435 0.02600
C 	C 	0.85840 0.63525 0.44988 -0.06500
C 	C 	0.83465 0.57209 0.44882 0.01300
C 	C 	0.79006 0.53566 0.47219 -0.08800
C 	C 	0.77144 0.56392 0.49771 0.01200
C 	C 	0.86104 0.72851 0.47419 0.00100
H 	H 	0.89208 0.66265 0.43134 0.04700
H 	H 	0.84946 0.55102 0.42897 0.03900
H 	H 	0.73776 0.53667 0.51628 0.03300
H 	H 	0.77970 0.64808 0.51800 0.04700
C 	C 	0.84630 0.74489 0.43996 -0.03900
C 	C 	0.87243 0.80817 0.43882 -0.03700
C 	C 	0.91351 0.85551 0.47187 -0.00300
C 	C 	0.92607 0.83876 0.50659 -0.03700
C 	C 	0.89995 0.77552 0.50774 -0.03900
H 	H 	0.81566 0.70880 0.41404 0.04000
H 	H 	0.86245 0.82065 0.41190 0.03900
H 	H 	0.95765 0.87501 0.53229 0.03800
H 	H 	0.91129 0.76329 0.53436 0.03900
C 	C 	0.85205 0.06510 0.42645 -0.03900
C 	C 	0.87055 0.11459 0.45684 0.00100
C 	C 	0.91394 0.12946 0.49064 -0.03900
C 	C 	0.93956 0.09598 0.49373 -0.03700
C 	C 	0.92210 0.04734 0.46303 -0.00300
C 	C 	0.87776 0.03161 0.42953 -0.03500
C 	C 	0.84375 0.15021 0.45367 0.02700
H 	H 	0.92788 0.16704 0.51446 0.03800
H 	H 	0.97358 0.10832 0.51976 0.03900
H 	H 	0.86416 0.99430 0.40562 0.03800
H 	H 	0.81832 0.05305 0.40033 0.04100
C 	C 	0.88433 0.21555 0.45384 -0.06700
C 	C 	0.86037 0.25083 0.45583 0.01400
C 	C 	0.79565 0.22106 0.45785 -0.09200
C 	C 	0.75440 0.15510 0.45543 0.01700
C 	C 	0.77837 0.11988 0.45340 -0.06700
H 	H 	0.93476 0.23925 0.45354 0.04700
H 	H 	0.89267 0.30160 0.45744 0.03300
H 	H 	0.70411 0.13137 0.45621 0.03400
H 	H 	0.74655 0.06937 0.45289 0.04700
C 	C 	0.21321 0.13109 0.43944 -0.03800
C 	C 	0.25269 0.12994 0.46896 0.00100
C 	C 	0.22586 0.09445 0.49825 -0.03800
C 	C 	0.16029 0.06060 0.49809 -0.03700
C 	C 	0.12062 0.06085 0.46818 -0.00200
C 	C 	0.14742 0.09625 0.43884 -0.03700
C 	C 	0.32205 0.16568 0.46912 0.02800
H 	H 	0.25578 0.09291 0.52105 0.04000
H 	H 	0.14023 0.03393 0.52108 0.03900
H 	H 	0.11723 0.09650 0.41550 0.03900
H 	H 	0.23349 0.15882 0.41691 0.04000
C 	C 	0.34357 0.15674 0.43559 -0.06600
C 	C 	0.40916 0.19115 0.43560 0.01500
C 	C 	0.45378 0.23387 0.46932 -0.08800
C 	C 	0.43238 0.24225 0.50301 0.01800
C 	C 	0.36681 0.20871 0.50282 -0.06600
H 	H 	0.30948 0.12312 0.40958 0.04700
H 	H 	0.42530 0.18429 0.40949 0.02600
H 	H 	0.46653 0.27552 0.52910 0.03600
H 	H 	0.35080 0.21644 0.52873 0.04800
C 	C 	0.83800 0.62834 0.98653 -0.06600
C 	C 	0.80874 0.65747 0.99508 0.02400
C 	C 	0.74678 0.62152 0.00348 -0.06200
C 	C 	0.71404 0.55676 0.00304 0.01900
C 	C 	0.74300 0.52733 0.99412 -0.09000
C 	C 	0.80526 0.56353 0.98600 0.01600
C 	C 	0.84252 0.72534 0.99458 -0.00200
H 	H 	0.72391 0.64372 0.01018 0.04700
H 	H 	0.66587 0.52934 0.00909 0.03400
H 	H 	0.82836 0.54153 0.97940 0.03200
H 	H 	0.88589 0.65583 0.98001 0.04700
C 	C 	0.89711 0.77082 0.02305 -0.03500
C 	C 	0.92966 0.83523 0.02224 -0.03300
C 	C 	0.90796 0.85462 0.99286 -0.00700
C 	C 	0.85303 0.80910 0.96458 -0.03600
C 	C 	0.82039 0.74472 0.96547 -0.03900
H 	H 	0.91429 0.75624 0.04575 0.04000
H 	H 	0.97186 0.87006 0.04430 0.03900
H 	H 	0.83611 0.82361 0.94167 0.03800
H 	H 	0.77828 0.70985 0.94336 0.04000
C 	C 	0.90246 0.12121 0.02738 -0.03200
C 	C 	0.85013 0.10030 0.99801 -0.01000
C 	C 	0.83133 0.05310 0.96587 -0.03700
C 	C 	0.86413 0.02658 0.96329 -0.03700
C 	C 	0.91610 0.04709 0.99278 -0.00600
C 	C 	0.93536 0.09472 0.02475 -0.03400
C 	C 	0.81610 0.12901 0.00024 0.03700
H 	H 	0.79148 0.03716 0.94283 0.03600
H 	H 	0.84903 0.98992 0.93847 0.03700
H 	H 	0.97527 0.11065 0.04774 0.03900
H 	H 	0.91742 0.15773 0.05226 0.04000
C 	C 	0.75028 0.09106 0.00093 -0.06500
C 	C 	0.71628 0.11645 0.99793 0.01100
C 	C 	0.74786 0.18004 0.99414 -0.09400
C 	C 	0.81443 0.21884 0.99580 0.01700
C 	C 	0.84832 0.19338 0.99870 -0.07500
H 	H 	0.72516 0.04149 0.00269 0.04800
H 	H 	0.66508 0.08608 0.99704 0.03500
H 	H 	0.83965 0.26833 0.99380 0.03100
H 	H 	0.89923 0.22320 0.99852 0.04700
C 	C 	0.32420 0.10108 0.97187 -0.06600
C 	C 	0.30341 0.13891 0.96848 0.02700
C 	C 	0.34739 0.20263 0.96574 -0.06600
C 	C 	0.41218 0.22910 0.96799 0.01200
C 	C 	0.43377 0.19211 0.97331 -0.08800
C 	C 	0.38903 0.12745 0.97418 0.01400
C 	C 	0.23640 0.11279 0.97015 -0.00300
H 	H 	0.33157 0.23197 0.96263 0.04600
H 	H 	0.44575 0.27876 0.96665 0.03200
H 	H 	0.40455 0.09791 0.97747 0.03700
H 	H 	0.29039 0.05163 0.97367 0.04700
C 	C 	0.18669 0.06450 0.94006 -0.03900
C 	C 	0.12291 0.03643 0.94313 -0.03500
C 	C 	0.10835 0.05619 0.97642 -0.00700
C 	C 	0.15815 0.10606 0.00584 -0.03200
C 	C 	0.22193 0.13427 0.00270 -0.03500
H 	H 	0.19745 0.04805 0.91465 0.04000
H 	H 	0.08477 0.99828 0.92012 0.03800
H 	H 	0.14741 0.12162 0.03165 0.03900
H 	H 	0.26006 0.17171 0.02601 0.04000
