data_crystal

_cell_length_a 25.57722
_cell_length_b 27.27933
_cell_length_c 29.01033
_cell_angle_alpha 61.08017
_cell_angle_beta  118.59765
_cell_angle_gamma 133.17053

_symmetry_space_group_name_	'P 1'
_symmetry_space_group_name_H-M	'P 1'

loop_
_symmetry_equiv_pos_as_xyz
  x,y,z

loop_
_atom_site_label
_atom_site_type_symbol
_atom_site_fract_x
_atom_site_fract_y
_atom_site_fract_z
_atom_site_charge
Co	Co	0.10140 0.00290 0.15736 1.18800
Co	Co	0.05579 0.07071 0.18254 1.19300
C 	C 	0.13597 0.90269 0.23284 0.30700
Co	Co	0.06566 0.88601 0.12016 1.17900
C 	C 	0.06991 0.20126 0.16185 0.31700
O 	O 	0.14306 0.07803 0.18893 -0.46400
O 	O 	0.10178 0.17544 0.16619 -0.37600
O 	O 	0.03833 0.94306 0.12143 -0.75400
O 	O 	0.10810 0.93194 0.22772 -0.39200
Co	Co	0.09753 0.93572 0.70044 1.18700
Co	Co	0.05461 0.01260 0.72142 1.18600
C 	C 	0.06986 0.79606 0.73992 0.29300
Co	Co	0.08197 0.86609 0.62421 1.17300
O 	O 	0.07891 0.15901 0.70525 -0.37100
C 	C 	0.12496 0.14586 0.74522 0.29300
O 	O 	0.11079 0.97070 0.75582 -0.46200
O 	O 	0.13721 0.10715 0.74307 -0.37800
O 	O 	0.06071 0.91791 0.64007 -0.75800
O 	O 	0.05038 0.78641 0.69240 -0.38000
O 	O 	0.05854 0.83405 0.74459 -0.38400
O 	O 	0.10787 0.94733 0.55562 -0.38200
C 	C 	0.99890 0.91729 0.88587 -0.10000
C 	C 	0.00262 0.90251 0.94042 0.08700
H 	H 	0.03626 0.91963 0.87557 0.08000
C 	C 	0.05560 0.88954 0.98165 0.05800
C 	C 	0.09896 0.05061 0.43459 -0.01500
C 	C 	0.09739 0.07407 0.37928 0.01100
H 	H 	0.12807 0.08753 0.45793 0.04400
S 	S 	0.03302 0.66415 0.78590 0.04400
H 	H 	0.05957 0.56485 0.80718 0.05200
C 	C 	0.11578 0.27425 0.16241 -0.07700
C 	C 	0.08522 0.30847 0.14864 -0.01700
H 	H 	0.05157 0.38163 0.15641 0.05100
H 	H 	0.02880 0.28919 0.12632 0.05000
S 	S 	0.08176 0.76863 0.29040 0.04800
O 	O 	0.01084 0.01713 0.11914 -0.57200
C 	C 	0.05760 0.95559 0.51630 0.29400
O 	O 	0.04321 0.99109 0.64957 -0.56200
C 	C 	0.06217 0.97969 0.45976 -0.06000
C 	C 	0.07830 0.74544 0.78815 -0.06700
H 	H 	0.07342 0.64545 0.31728 0.05400
C 	C 	0.13799 0.14765 0.35486 0.08100
C 	C 	0.10053 0.38501 0.18416 -0.05300
O 	O 	0.14834 0.90939 0.19039 -0.39300
O 	O 	0.13911 0.97637 0.07332 -0.36900
O 	O 	0.18952 0.91743 0.66977 -0.40100
C 	C 	0.09493 0.64955 0.83085 -0.00200
C 	C 	0.10316 0.60411 0.83001 -0.05400
C 	C 	0.13474 0.41034 0.22998 0.00300
C 	C 	0.12897 0.36050 0.17689 0.01800
S 	S 	0.13269 0.46734 0.23461 0.01300
C 	C 	0.13739 0.74530 0.33291 0.00000
C 	C 	0.12686 0.68694 0.33447 -0.05400
C 	C 	0.14288 0.85427 0.28375 -0.07600
H 	H 	0.14172 0.60281 0.32082 0.05400
O 	O 	0.04868 0.02346 0.26239 -0.39600
N 	N 	0.09808 0.87911 0.01453 -0.11200
C 	C 	0.05746 0.02587 0.34839 -0.08100
C 	C 	0.17590 0.18815 0.78491 -0.07200
C 	C 	0.16790 0.03891 0.07379 0.28500
O 	O 	0.18243 0.05179 0.11867 -0.37800
C 	C 	0.22698 0.98068 0.67345 0.30200
O 	O 	0.20601 0.99397 0.69701 -0.38400
N 	N 	0.17058 0.20665 0.33547 -0.11300
S 	S 	0.14628 0.18545 0.82721 0.02600
C 	C 	0.24003 0.25529 0.77414 -0.01400
H 	H 	0.26290 0.27522 0.74076 0.04600
C 	C 	0.15617 0.71050 0.84859 0.02000
C 	C 	0.14693 0.76439 0.82464 -0.02400
H 	H 	0.15806 0.54755 0.82313 0.05200
C 	C 	0.19411 0.36767 0.21200 0.00000
S 	S 	0.19463 0.30880 0.20891 0.04200
C 	C 	0.26160 0.29857 0.80295 0.01700
H 	H 	0.33903 0.39764 0.75732 0.05000
C 	C 	0.17130 0.61412 0.85650 0.02500
C 	C 	0.19393 0.58441 0.84788 -0.04600
H 	H 	0.19254 0.81773 0.82653 0.04200
C 	C 	0.19938 0.41694 0.26536 0.02600
C 	C 	0.18864 0.68683 0.35381 0.02700
C 	C 	0.20866 0.80622 0.34245 0.01800
C 	C 	0.21168 0.86737 0.31482 -0.01600
C 	C 	0.19012 0.64316 0.34171 -0.04500
N 	N 	0.23549 0.58594 0.31201 -0.13700
C 	C 	0.31006 0.40821 0.80930 0.00000
C 	C 	0.30814 0.37111 0.78736 -0.05100
C 	C 	0.21449 0.26512 0.83625 0.00400
C 	C 	0.20913 0.30278 0.85175 -0.05700
S 	S 	0.33957 0.49012 0.78326 0.01300
H 	H 	0.16516 0.27693 0.87016 0.05100
C 	C 	0.22532 0.72239 0.87253 -0.05400
C 	C 	0.22852 0.39343 0.25767 -0.05300
C 	C 	0.20977 0.49924 0.28305 -0.01900
H 	H 	0.26304 0.91868 0.31007 0.04300
C 	C 	0.19784 0.09700 0.02760 -0.07000
H 	H 	0.18889 0.04435 0.98349 0.05200
C 	C 	0.25999 0.37531 0.83967 0.02600
C 	C 	0.25437 0.57038 0.28707 0.12500
N 	N 	0.28357 0.55481 0.83789 -0.13800
C 	C 	0.29447 0.48920 0.81114 -0.01900
C 	C 	0.25219 0.42112 0.84177 -0.04700
H 	H 	0.21871 0.40561 0.86550 0.05100
C 	C 	0.23006 0.67053 0.88034 0.00200
C 	C 	0.27038 0.61747 0.86601 -0.01800
C 	C 	0.24155 0.46671 0.29545 -0.04400
H 	H 	0.27727 0.39652 0.28561 0.05200
C 	C 	0.25921 0.74495 0.36974 0.00100
C 	C 	0.27056 0.80667 0.36051 -0.05200
C 	C 	0.26193 0.66738 0.34841 -0.01800
C 	C 	0.29975 0.03349 0.66085 -0.07600
C 	C 	0.20796 0.09254 0.98673 -0.02000
C 	C 	0.28004 0.65095 0.31914 0.12400
C 	C 	0.32566 0.55126 0.82520 0.12300
H 	H 	0.27427 0.77166 0.88196 0.04900
H 	H 	0.32123 0.96772 0.66130 0.04600
C 	C 	0.04353 0.04766 0.28861 0.30800
C 	C 	0.33213 0.01810 0.64702 -0.02100
C 	C 	0.31264 0.61451 0.84749 0.12200
S 	S 	0.30748 0.68371 0.88877 0.01100
H 	H 	0.29790 0.48616 0.31806 0.05100
S 	S 	0.32036 0.74208 0.36696 0.01300
H 	H 	0.32564 0.85467 0.36313 0.04900
S 	S 	0.32947 0.11584 0.62836 0.02600
S 	S 	0.25108 0.18054 0.02729 0.02800
N 	N 	0.31693 0.62009 0.26844 -0.14000
C 	C 	0.25759 0.15835 0.95708 0.01900
H 	H 	0.27909 0.12386 0.91909 0.05200
N 	N 	0.34323 0.70010 0.30123 -0.13700
C 	C 	0.36131 0.68498 0.27538 0.12500
N 	N 	0.39624 0.60688 0.82260 -0.13900
C 	C 	0.38149 0.13336 0.59622 0.00300
C 	C 	0.37861 0.07462 0.61115 0.01700
C 	C 	0.29544 0.16767 0.92781 -0.05200
C 	C 	0.28505 0.21376 0.97452 -0.00000
N 	N 	0.38327 0.67011 0.84408 -0.13700
H 	H 	0.42835 0.03411 0.61193 0.04800
C 	C 	0.42513 0.66612 0.83201 0.12500
H 	H 	0.40260 0.69954 0.19218 0.05200
C 	C 	0.43133 0.07957 0.60202 -0.05400
C 	C 	0.43095 0.73756 0.25804 -0.01900
C 	C 	0.43981 0.19949 0.57610 -0.05700
C 	C 	0.35895 0.23379 0.91460 0.00200
C 	C 	0.35293 0.27755 0.96663 -0.05500
C 	C 	0.44515 0.73465 0.21860 -0.04600
H 	H 	0.44237 0.24481 0.56585 0.05000
C 	C 	0.38925 0.28781 0.93536 0.02500
H 	H 	0.37929 0.31594 0.98750 0.04900
C 	C 	0.48961 0.14567 0.58166 0.00100
S 	S 	0.42749 0.24805 0.90442 0.01400
C 	C 	0.50050 0.72658 0.82676 -0.01900
C 	C 	0.49233 0.20452 0.56659 0.02600
S 	S 	0.51154 0.78268 0.29952 0.01000
S 	S 	0.51704 0.79606 0.77473 0.01000
H 	H 	0.55183 0.67253 0.86614 0.05000
C 	C 	0.52143 0.77177 0.22432 0.02600
H 	H 	0.51651 0.74063 0.16547 0.05000
C 	C 	0.46617 0.33851 0.93918 -0.04600
C 	C 	0.55616 0.71961 0.84054 -0.04500
S 	S 	0.53909 0.16234 0.54758 0.00800
C 	C 	0.49590 0.32333 0.92237 -0.02000
C 	C 	0.54953 0.76216 0.20061 -0.05800
C 	C 	0.53656 0.26016 0.52909 -0.04600
H 	H 	0.50001 0.37756 0.96156 0.05100
O 	O 	0.98242 0.85594 0.05089 -0.41100
O 	O 	0.98925 0.79943 0.16549 -0.40300
C 	C 	0.96657 0.89800 0.01069 0.30600
C 	C 	0.95666 0.90294 0.95412 -0.12200
O 	O 	0.99757 0.16580 0.15050 -0.41100
O 	O 	0.97806 0.94736 0.76810 -0.41500
C 	C 	0.66436 0.33199 0.97048 0.12200
N 	N 	0.59293 0.30956 0.94958 -0.13700
C 	C 	0.57365 0.34904 0.94204 0.12400
N 	N 	0.62604 0.41127 0.95491 -0.13900
C 	C 	0.69730 0.43371 0.97621 0.12300
N 	N 	0.71654 0.39405 0.98406 -0.14000
C 	C 	0.72451 0.32740 0.46164 0.12200
N 	N 	0.65864 0.27921 0.47595 -0.13900
C 	C 	0.63606 0.29648 0.49588 0.12400
N 	N 	0.67915 0.36195 0.50117 -0.14000
C 	C 	0.74495 0.40997 0.48725 0.12400
N 	N 	0.76765 0.39283 0.46739 -0.13800
Co	Co	0.90407 0.98403 0.12294 1.18300
Co	Co	0.95137 0.91942 0.09505 1.17700
Co	Co	0.93297 0.06641 0.19451 1.16300
O 	O 	0.96729 0.04198 0.16094 -0.77400
O 	O 	0.86839 0.92448 0.07770 -0.46800
C 	C 	0.84183 0.06316 0.08122 0.30200
C 	C 	0.92044 0.77829 0.14802 0.29900
O 	O 	0.83999 0.04550 0.13158 -0.40600
O 	O 	0.86237 0.04007 0.06732 -0.38600
O 	O 	0.02196 0.08824 0.26168 -0.39300
O 	O 	0.90358 0.81778 0.14156 -0.39600
C 	C 	0.82465 0.91229 0.21196 0.29600
O 	O 	0.87337 0.96366 0.23626 -0.39800
O 	O 	0.84360 0.90493 0.18171 -0.39400
O 	O 	0.94892 0.92804 0.01933 -0.40000
Co	Co	0.94291 0.98862 0.62416 1.17800
Co	Co	0.98546 0.91503 0.60090 1.17400
Co	Co	0.96922 0.07994 0.68367 1.16100
O 	O 	0.00170 0.03614 0.66953 -0.75200
O 	O 	0.90834 0.92926 0.57945 -0.47700
C 	C 	0.92469 0.10555 0.56336 0.29600
C 	C 	0.96476 0.97034 0.78929 0.27900
C 	C 	0.91865 0.77567 0.59972 0.30500
O 	O 	0.96701 0.13573 0.60391 -0.39100
O 	O 	0.92815 0.06118 0.56012 -0.38500
O 	O 	0.97396 0.03026 0.76593 -0.40000
O 	O 	0.97493 0.80770 0.58053 -0.41000
O 	O 	0.91790 0.80830 0.62073 -0.40600
C 	C 	0.82861 0.93707 0.67285 0.30100
O 	O 	0.85646 0.00268 0.66218 -0.40200
O 	O 	0.86141 0.91955 0.66680 -0.40800
O 	O 	0.00561 0.94707 0.52609 -0.36400
C 	C 	0.90417 0.91327 0.91275 0.01400
C 	C 	0.90225 0.93027 0.85830 -0.02000
C 	C 	0.95183 0.93484 0.84459 -0.03600
H 	H 	0.86639 0.91049 0.92291 0.04000
C 	C 	0.85172 0.94636 0.81687 0.08200
N 	N 	0.81148 0.95967 0.78392 -0.12000
C 	C 	0.02412 0.95526 0.37433 0.02600
C 	C 	0.02625 0.93193 0.42974 0.01900
H 	H 	0.99419 0.91814 0.35096 0.02500
C 	C 	0.99061 0.85881 0.45520 0.04400
N 	N 	0.96200 0.80016 0.47529 -0.11100
C 	C 	0.67176 0.79709 0.75082 0.00200
C 	C 	0.65067 0.76229 0.80000 -0.05500
C 	C 	0.60796 0.77160 0.80757 0.02600
C 	C 	0.59378 0.82021 0.76889 0.00300
C 	C 	0.61689 0.85653 0.72030 -0.05100
C 	C 	0.65808 0.84586 0.71235 0.01900
S 	S 	0.74339 0.81566 0.74151 0.03200
C 	C 	0.75713 0.88270 0.68747 -0.07600
C 	C 	0.70621 0.89434 0.67659 -0.01500
H 	H 	0.66355 0.72629 0.83013 0.04800
H 	H 	0.60397 0.89244 0.69002 0.04800
H 	H 	0.71069 0.94115 0.64969 0.04600
C 	C 	0.56602 0.80289 0.26813 -0.00000
C 	C 	0.63657 0.81871 0.29283 -0.05400
C 	C 	0.66515 0.80972 0.26899 0.01500
C 	C 	0.62106 0.77984 0.22435 0.00300
S 	S 	0.67682 0.80639 0.19055 0.02400
C 	C 	0.75725 0.85256 0.23167 -0.07200
C 	C 	0.74162 0.84982 0.27350 -0.02000
H 	H 	0.66958 0.84057 0.32780 0.04700
H 	H 	0.78305 0.88418 0.30058 0.04500
C 	C 	0.79947 0.16474 0.45672 0.00400
C 	C 	0.74194 0.16731 0.44648 -0.05900
C 	C 	0.75806 0.23246 0.43344 0.02600
C 	C 	0.83088 0.29263 0.43351 -0.00100
C 	C 	0.88961 0.28845 0.45213 -0.05400
C 	C 	0.87311 0.22384 0.46249 0.01300
S 	S 	0.79966 0.09546 0.49295 0.01800
C 	C 	0.89081 0.13632 0.51423 -0.07200
C 	C 	0.92456 0.20784 0.49519 -0.01800
S 	S 	0.83716 0.35394 0.43988 0.00400
C 	C 	0.74904 0.30907 0.43971 -0.01800
C 	C 	0.71191 0.24159 0.43710 -0.04800
H 	H 	0.68770 0.12013 0.45175 0.04900
H 	H 	0.94602 0.33287 0.46146 0.04500
H 	H 	0.98211 0.24616 0.51050 0.04400
H 	H 	0.65758 0.19882 0.44506 0.05200
C 	C 	0.81006 0.57920 0.50083 0.00300
C 	C 	0.78962 0.61805 0.49576 -0.05100
C 	C 	0.79932 0.62816 0.54310 0.01800
C 	C 	0.82017 0.59265 0.59418 0.00200
C 	C 	0.83803 0.55168 0.59899 -0.05800
C 	C 	0.83148 0.54434 0.55155 0.02400
S 	S 	0.77760 0.53866 0.45549 0.00900
C 	C 	0.79308 0.47873 0.49684 -0.02100
C 	C 	0.82252 0.48809 0.54943 -0.04700
S 	S 	0.86261 0.63957 0.63747 0.02000
C 	C 	0.85608 0.70477 0.59538 -0.07500
C 	C 	0.81770 0.68992 0.54419 -0.01500
H 	H 	0.77169 0.64363 0.45620 0.05100
H 	H 	0.85661 0.52648 0.63844 0.04500
H 	H 	0.82482 0.44903 0.58524 0.04600
H 	H 	0.81726 0.72897 0.50752 0.04500
C 	C 	0.56683 0.24391 0.51391 -0.01900
H 	H 	0.54602 0.31002 0.51365 0.05200
C 	C 	0.69305 0.19006 0.01272 0.00100
C 	C 	0.67969 0.13137 0.01195 -0.05400
C 	C 	0.73833 0.13830 0.01003 0.01500
C 	C 	0.80620 0.20360 0.00451 0.00300
C 	C 	0.81978 0.26225 0.00577 -0.06100
C 	C 	0.76127 0.25527 0.00794 0.02600
S 	S 	0.62900 0.20218 0.99248 0.00800
C 	C 	0.68479 0.28891 0.97852 -0.01900
C 	C 	0.75708 0.31125 0.98985 -0.05000
S 	S 	0.86995 0.19105 0.02564 0.01400
C 	C 	0.81496 0.10431 0.03941 -0.07400
C 	C 	0.74313 0.08235 0.02976 -0.01700
H 	H 	0.62641 0.08163 0.01462 0.04900
H 	H 	0.87322 0.31189 0.00348 0.04500
H 	H 	0.80363 0.36525 0.98234 0.04800
H 	H 	0.69939 0.02931 0.04460 0.04300
C 	C 	0.79050 0.60119 0.01302 0.00200
C 	C 	0.77966 0.64098 0.01968 -0.05100
C 	C 	0.79809 0.64509 0.07228 0.01600
C 	C 	0.82144 0.60589 0.11697 0.00200
C 	C 	0.83105 0.56509 0.11031 -0.05900
C 	C 	0.81246 0.56099 0.05768 0.02300
S 	S 	0.74422 0.56487 0.96154 0.00600
C 	C 	0.75286 0.49986 0.99202 -0.02300
C 	C 	0.79154 0.50399 0.04594 -0.04500
S 	S 	0.87109 0.64510 0.16714 0.02000
C 	C 	0.86190 0.70980 0.13632 -0.07700
C 	C 	0.81972 0.70278 0.08339 -0.01800
H 	H 	0.76042 0.67008 0.98493 0.04600
H 	H 	0.85064 0.53625 0.14498 0.04600
H 	H 	0.79319 0.46167 0.07720 0.04700
H 	H 	0.81700 0.74433 0.05164 0.04100
