data_crystal

_cell_length_a 17.15195
_cell_length_b 19.23464
_cell_length_c 48.17275
_cell_angle_alpha 90.49876
_cell_angle_beta  90.85196
_cell_angle_gamma 110.74408

_symmetry_space_group_name_	'P 1'
_symmetry_space_group_name_H-M	'P 1'

loop_
_symmetry_equiv_pos_as_xyz
  x,y,z

loop_
_atom_site_label
_atom_site_type_symbol
_atom_site_fract_x
_atom_site_fract_y
_atom_site_fract_z
_atom_site_charge
Ni	Ni	0.58695 0.24712 0.87004 1.10100
O 	O 	0.69664 0.30851 0.88780 -0.62600
Ni	Ni	0.69059 0.40820 0.89089 1.10200
O 	O 	0.62421 0.15623 0.86664 -0.36400
O 	O 	0.75340 0.22446 0.84888 -0.40000
O 	O 	0.54011 0.21757 0.90914 -0.36500
Ni	Ni	0.80652 0.30792 0.87930 1.07100
O 	O 	0.41077 0.24076 0.88381 -0.40800
O 	O 	0.84994 0.39650 0.85153 -0.38400
O 	O 	0.80558 0.46339 0.90872 -0.38900
O 	O 	0.57976 0.35029 0.87034 -0.68800
O 	O 	0.47334 0.19079 0.85228 -0.38200
O 	O 	0.66342 0.50292 0.89454 -0.38200
O 	O 	0.52265 0.46293 0.89956 -0.40600
Ni	Ni	0.48135 0.34897 0.89096 1.06800
H 	H 	0.70089 0.31463 0.86758 0.01300
H 	H 	0.57776 0.36777 0.85117 0.15500
C 	C 	0.81644 0.44855 0.84794 0.29100
O 	O 	0.53324 0.32718 0.92643 -0.42400
C 	C 	0.69447 0.15938 0.85447 0.25000
C 	C 	0.84771 0.42997 0.92320 0.30000
C 	C 	0.55100 0.26643 0.92970 0.29400
C 	C 	0.59835 0.50202 0.90864 0.30700
C 	C 	0.40943 0.20888 0.85952 0.26900
O 	O 	0.73781 0.43491 0.85269 -0.39700
O 	O 	0.86469 0.37285 0.91275 -0.40900
Ni	Ni	0.55681 0.38363 0.62879 1.10000
O 	O 	0.47840 0.32438 0.65847 -0.70200
Ni	Ni	0.53541 0.25382 0.67045 1.09800
O 	O 	0.46919 0.41692 0.60910 -0.38200
O 	O 	0.37895 0.29748 0.60591 -0.42400
O 	O 	0.59136 0.47996 0.65283 -0.36800
Ni	Ni	0.36331 0.26793 0.64729 1.06800
O 	O 	0.74585 0.47752 0.63535 -0.41300
O 	O 	0.36915 0.16679 0.63619 -0.40100
O 	O 	0.44252 0.17727 0.69344 -0.36800
O 	O 	0.62184 0.32517 0.64514 -0.70100
O 	O 	0.64360 0.44072 0.60133 -0.38000
O 	O 	0.62077 0.20753 0.68337 -0.36600
O 	O 	0.71728 0.32081 0.69589 -0.41000
Ni	Ni	0.72011 0.39426 0.66403 1.06400
H 	H 	0.47831 0.35713 0.67442 0.15400
H 	H 	0.63890 0.29819 0.63020 0.15300
C 	C 	0.43397 0.16084 0.62386 0.30900
O 	O 	0.65301 0.43881 0.68819 -0.41800
C 	C 	0.40122 0.36708 0.59845 0.29200
C 	C 	0.36552 0.17804 0.69579 0.28400
C 	C 	0.62207 0.48705 0.67837 0.27900
C 	C 	0.69718 0.24866 0.69176 0.25900
C 	C 	0.72313 0.46653 0.60874 0.29400
O 	O 	0.50687 0.18292 0.63662 -0.38700
O 	O 	0.34617 0.23458 0.68694 -0.42400
Ni	Ni	0.82872 0.83076 0.78037 1.09800
O 	O 	0.93228 0.90818 0.79688 -0.70500
Ni	Ni	0.94794 0.99563 0.77293 1.09500
O 	O 	0.84196 0.75114 0.80554 -0.38300
O 	O 	0.97378 0.77168 0.78984 -0.41500
O 	O 	0.76665 0.86892 0.80999 -0.37900
Ni	Ni	0.03149 0.88321 0.80190 1.07000
O 	O 	0.69940 0.81944 0.72515 -0.40900
O 	O 	0.09729 0.91571 0.76566 -0.40000
O 	O 	0.05111 0.07073 0.79347 -0.37400
O 	O 	0.85062 0.91266 0.75303 -0.69100
O 	O 	0.71894 0.75814 0.76412 -0.37800
O 	O 	0.92755 0.07931 0.75035 -0.36800
O 	O 	0.79185 0.02666 0.76198 -0.41400
Ni	Ni	0.74385 0.92291 0.74340 1.06700
H 	H 	0.91854 0.92202 0.81552 0.15600
H 	H 	0.87156 0.89637 0.73605 0.14500
C 	C 	0.09572 0.97193 0.75054 0.27200
O 	O 	0.67683 0.88376 0.77802 -0.39700
C 	C 	0.90549 0.72864 0.80214 0.25800
C 	C 	0.10389 0.04849 0.80861 0.28400
C 	C 	0.71261 0.89976 0.80253 0.28800
C 	C 	0.85062 0.07955 0.74966 0.26200
C 	C 	0.70009 0.75809 0.73746 0.27100
O 	O 	0.02450 0.97869 0.74376 -0.39500
O 	O 	0.07863 0.98361 0.82110 -0.43100
Ni	Ni	0.30118 0.84181 0.36615 1.10000
O 	O 	0.19642 0.78929 0.38817 -0.70700
Ni	Ni	0.19955 0.68740 0.38888 1.09700
O 	O 	0.26775 0.93239 0.35917 -0.37700
O 	O 	0.14126 0.85845 0.34081 -0.41400
O 	O 	0.36400 0.89190 0.40218 -0.37200
Ni	Ni	0.08757 0.78379 0.37239 1.06700
O 	O 	0.48081 0.85024 0.37766 -0.40500
O 	O 	0.04208 0.69010 0.34644 -0.39000
O 	O 	0.08412 0.63457 0.40491 -0.39200
O 	O 	0.30945 0.74085 0.36997 -0.70000
O 	O 	0.40802 0.88736 0.34476 -0.38000
O 	O 	0.22966 0.59513 0.39362 -0.38500
O 	O 	0.36742 0.64002 0.40719 -0.40400
Ni	Ni	0.40937 0.74831 0.39168 1.06800
H 	H 	0.20173 0.80918 0.40739 0.15000
H 	H 	0.31219 0.71971 0.35135 0.15800
C 	C 	0.08057 0.64276 0.34207 0.30200
O 	O 	0.36971 0.79007 0.42547 -0.42100
C 	C 	0.19679 0.92528 0.34651 0.26000
C 	C 	0.04368 0.67201 0.41772 0.29800
C 	C 	0.36327 0.85630 0.42557 0.29600
C 	C 	0.28915 0.59755 0.41140 0.30300
C 	C 	0.47410 0.87178 0.35209 0.26300
O 	O 	0.15837 0.65966 0.34933 -0.40900
O 	O 	0.02416 0.72466 0.40500 -0.41200
Ni	Ni	0.27012 0.74177 0.16599 1.09600
O 	O 	0.32221 0.83691 0.14388 -0.70600
Ni	Ni	0.42759 0.82578 0.13101 1.09900
O 	O 	0.17215 0.77292 0.17865 -0.36300
O 	O 	0.26748 0.87866 0.19662 -0.41800
O 	O 	0.20005 0.69016 0.13108 -0.36800
Ni	Ni	0.35394 0.92753 0.16664 1.06200
O 	O 	0.24429 0.58170 0.15045 -0.41300
O 	O 	0.43226 0.89763 0.19182 -0.42000
O 	O 	0.46398 0.91825 0.10749 -0.38100
O 	O 	0.38233 0.73460 0.15629 -0.69300
O 	O 	0.22410 0.64539 0.18780 -0.38300
O 	O 	0.51667 0.79647 0.11110 -0.36900
O 	O 	0.47351 0.67194 0.11691 -0.41100
Ni	Ni	0.35796 0.64058 0.13530 1.06700
H 	H 	0.28668 0.83979 0.12787 0.15100
H 	H 	0.41756 0.73756 0.17305 0.15700
C 	C 	0.50765 0.90777 0.18402 0.29000
O 	O 	0.30636 0.68195 0.10431 -0.43300
C 	C 	0.18981 0.83875 0.19041 0.26500
C 	C 	0.46101 0.98192 0.11669 0.28900
C 	C 	0.23090 0.68422 0.10644 0.29500
C 	C 	0.50095 0.72962 0.10078 0.31100
C 	C 	0.22806 0.58412 0.17682 0.28000
O 	O 	0.52034 0.88278 0.15964 -0.36700
O 	O 	0.45113 0.99269 0.14339 -0.42000
Ni	Ni	0.04674 0.24792 0.27732 1.10000
O 	O 	0.94380 0.17050 0.29251 -0.70500
Ni	Ni	0.92686 0.08353 0.26730 1.10200
O 	O 	0.03689 0.32694 0.30390 -0.37900
O 	O 	0.90458 0.30904 0.28770 -0.41100
O 	O 	0.11095 0.20919 0.30617 -0.37900
Ni	Ni	0.84497 0.19612 0.29691 1.06900
O 	O 	0.16948 0.25975 0.22205 -0.41000
O 	O 	0.77809 0.16345 0.25972 -0.39800
O 	O 	0.82391 0.00822 0.28612 -0.37500
O 	O 	0.02314 0.16662 0.24886 -0.68700
O 	O 	0.15548 0.31994 0.26226 -0.37700
O 	O 	0.94476 0.99968 0.24380 -0.37500
O 	O 	0.08107 0.05226 0.25635 -0.41200
Ni	Ni	0.12845 0.15607 0.23886 1.07000
H 	H 	0.95812 0.15637 0.31109 0.15800
H 	H 	0.00137 0.18366 0.23211 0.14900
C 	C 	0.78064 0.10761 0.24406 0.28400
O 	O 	0.19848 0.19683 0.27371 -0.39700
C 	C 	0.97359 0.35020 0.30136 0.25300
C 	C 	0.77130 0.03067 0.30078 0.28500
C 	C 	0.16550 0.18012 0.29810 0.29200
C 	C 	0.02132 0.99904 0.24341 0.25100
C 	C 	0.17117 0.32081 0.23558 0.27500
O 	O 	0.85212 0.10280 0.23773 -0.39400
O 	O 	0.79746 0.09500 0.31439 -0.42100
C 	C 	0.25483 0.46616 0.22802 -0.01300
H 	H 	0.30079 0.47575 0.24542 0.03400
C 	C 	0.18989 0.50480 0.22456 -0.00800
H 	H 	0.18209 0.54722 0.23892 0.03500
C 	C 	0.27645 0.47837 0.19693 -0.02000
H 	H 	0.34047 0.49960 0.18857 0.00700
C 	C 	0.21127 0.51602 0.19367 -0.07500
C 	C 	0.18709 0.39116 0.22019 -0.06800
C 	C 	0.20845 0.40258 0.18934 -0.01400
H 	H 	0.21623 0.36024 0.17493 0.02900
C 	C 	0.14347 0.44097 0.18592 -0.01000
H 	H 	0.09745 0.43126 0.16853 0.03500
C 	C 	0.12182 0.42875 0.21701 -0.01700
H 	H 	0.05787 0.40742 0.22544 0.02400
C 	C 	0.59723 0.95503 0.23117 -0.01800
H 	H 	0.55995 0.90869 0.24442 0.03000
C 	C 	0.61176 0.03874 0.23549 -0.01000
H 	H 	0.58724 0.06304 0.25278 0.03000
C 	C 	0.69055 0.97471 0.22470 -0.02200
H 	H 	0.73109 0.94591 0.23338 0.04100
C 	C 	0.70431 0.05795 0.22876 -0.06100
C 	C 	0.57948 0.96149 0.20012 -0.07100
C 	C 	0.67200 0.98068 0.19349 -0.01100
H 	H 	0.69668 0.95638 0.17624 0.04300
C 	C 	0.68638 0.06426 0.19769 -0.00300
H 	H 	0.72322 0.10981 0.18399 0.03600
C 	C 	0.59280 0.04453 0.20416 -0.00700
H 	H 	0.55185 0.07288 0.19546 0.02800
C 	C 	0.14129 0.89569 0.23182 -0.00800
H 	H 	0.18931 0.89027 0.24651 0.03500
C 	C 	0.04708 0.86825 0.23744 -0.01300
H 	H 	0.01699 0.83950 0.25646 0.03400
C 	C 	0.13872 0.96959 0.22117 -0.03400
H 	H 	0.18694 0.02460 0.22635 0.00700
C 	C 	0.04433 0.94275 0.22696 -0.06700
C 	C 	0.12363 0.86396 0.20199 -0.06400
C 	C 	0.11972 0.93802 0.19153 -0.02700
H 	H 	0.15008 0.96744 0.17264 0.00000
C 	C 	0.02503 0.91105 0.19711 -0.01700
H 	H 	0.97667 0.91751 0.18286 0.02800
C 	C 	0.02893 0.83534 0.20732 -0.00700
H 	H 	0.98397 0.77943 0.20145 0.03600
C 	C 	0.61252 0.98215 0.34443 -0.03400
H 	H 	0.60462 0.01689 0.36193 0.05100
C 	C 	0.61886 0.00399 0.31367 0.01600
H 	H 	0.61688 0.05727 0.30560 0.01900
C 	C 	0.68530 0.95352 0.34139 0.00200
H 	H 	0.73855 0.96468 0.35627 0.02600
C 	C 	0.69201 0.97566 0.31064 -0.08600
C 	C 	0.55145 0.90492 0.33603 -0.05600
C 	C 	0.62348 0.87543 0.33301 -0.02600
H 	H 	0.62439 0.82202 0.34128 0.02000
C 	C 	0.63117 0.89811 0.30191 -0.00600
H 	H 	0.63978 0.86396 0.28435 0.02800
C 	C 	0.55712 0.92622 0.30525 -0.03200
H 	H 	0.50303 0.91506 0.29075 0.03400
C 	C 	0.96573 0.53392 0.30743 -0.01200
H 	H 	0.92835 0.56374 0.29735 0.03400
C 	C 	0.93026 0.46302 0.32553 -0.01900
H 	H 	0.86349 0.43394 0.33025 0.02700
C 	C 	0.02112 0.49736 0.29214 -0.01200
H 	H 	0.02953 0.49661 0.26935 0.03300
C 	C 	0.98655 0.42836 0.31042 -0.06300
C 	C 	0.03635 0.56758 0.32917 -0.06600
C 	C 	0.09147 0.53190 0.31387 -0.00700
H 	H 	0.15831 0.55955 0.30884 0.03800
C 	C 	0.05679 0.46316 0.33215 -0.01000
H 	H 	0.09532 0.43504 0.34266 0.04800
C 	C 	0.00127 0.49835 0.34730 -0.00900
H 	H 	0.99324 0.49876 0.37012 0.04000
C 	C 	0.09802 0.04207 0.31889 0.00200
H 	H 	0.03125 0.03337 0.31491 0.01100
C 	C 	0.13800 0.03900 0.34773 -0.01600
H 	H 	0.10417 0.02668 0.36760 0.02400
C 	C 	0.14598 0.99511 0.30612 -0.02600
H 	H 	0.11898 0.94670 0.29180 0.04200
C 	C 	0.18568 0.99291 0.33466 -0.07200
C 	C 	0.17203 0.11349 0.31258 -0.08000
C 	C 	0.21980 0.06702 0.29971 0.00200
H 	H 	0.25384 0.07836 0.27985 0.02600
C 	C 	0.25964 0.06438 0.32843 -0.00800
H 	H 	0.32651 0.07331 0.33230 0.04300
C 	C 	0.21184 0.11144 0.34122 -0.00700
H 	H 	0.23896 0.15971 0.35561 0.03500
C 	C 	0.40058 0.04270 0.55088 0.01400
C 	C 	0.41313 0.97458 0.54947 -0.05700
C 	C 	0.40371 0.93623 0.52407 -0.02400
C 	C 	0.38170 0.96583 0.49995 -0.02600
C 	C 	0.36860 0.03370 0.50139 -0.01500
C 	C 	0.37801 0.07204 0.52679 -0.04700
C 	C 	0.41221 0.08319 0.57692 0.04000
C 	C 	0.42209 0.11797 0.59850 -0.10500
C 	C 	0.37431 0.92730 0.47362 0.04500
C 	C 	0.36881 0.89501 0.45164 -0.11400
H 	H 	0.43057 0.95151 0.56798 0.04100
H 	H 	0.41396 0.88382 0.52314 0.03500
H 	H 	0.35161 0.05698 0.48285 0.03700
H 	H 	0.36818 0.12464 0.52769 0.04300
C 	C 	0.95306 0.60855 0.49476 -0.00600
C 	C 	0.91626 0.65165 0.50948 -0.03600
C 	C 	0.88009 0.62782 0.53513 -0.03400
C 	C 	0.88049 0.56075 0.54614 -0.00800
C 	C 	0.92064 0.51935 0.53199 -0.03500
C 	C 	0.95694 0.54326 0.50635 -0.03700
C 	C 	0.98431 0.63005 0.46742 0.03900
C 	C 	0.01066 0.64863 0.44459 -0.11100
C 	C 	0.82930 0.52914 0.56946 0.04200
C 	C 	0.78285 0.50136 0.58804 -0.11300
H 	H 	0.91392 0.70265 0.50077 0.03700
H 	H 	0.84915 0.66011 0.54594 0.03900
H 	H 	0.92121 0.46743 0.54038 0.03400
H 	H 	0.98629 0.51016 0.49523 0.03900
C 	C 	0.29390 0.41168 0.52835 -0.00700
C 	C 	0.30640 0.37994 0.50331 -0.03400
C 	C 	0.28649 0.40553 0.47811 -0.03400
C 	C 	0.25429 0.46305 0.47792 -0.00700
C 	C 	0.23391 0.48928 0.50302 -0.03500
C 	C 	0.25413 0.46390 0.52823 -0.03500
C 	C 	0.33051 0.39721 0.55359 0.04400
C 	C 	0.36279 0.38462 0.57432 -0.11200
C 	C 	0.26086 0.50610 0.45335 0.04800
C 	C 	0.27148 0.54590 0.43360 -0.11400
H 	H 	0.33560 0.33835 0.50330 0.04000
H 	H 	0.30136 0.38422 0.45878 0.04000
H 	H 	0.20776 0.53298 0.50303 0.03800
H 	H 	0.24273 0.48756 0.54757 0.03600
C 	C 	0.81290 0.20269 0.74418 -0.01000
H 	H 	0.83479 0.22862 0.76489 0.03100
C 	C 	0.72147 0.17235 0.73352 -0.01000
H 	H 	0.66661 0.17245 0.74545 0.03500
C 	C 	0.84048 0.24181 0.71604 -0.01800
H 	H 	0.88385 0.29989 0.71352 0.02400
C 	C 	0.74896 0.21050 0.70567 -0.06000
C 	C 	0.82552 0.13284 0.73248 -0.07500
C 	C 	0.85364 0.17082 0.70452 -0.01700
H 	H 	0.90852 0.17018 0.69274 0.02600
C 	C 	0.76168 0.14095 0.69382 -0.02400
H 	H 	0.73971 0.11538 0.67306 0.02900
C 	C 	0.73398 0.10259 0.72174 -0.01300
H 	H 	0.68878 0.04497 0.72379 -0.00100
C 	C 	0.20808 0.10422 0.74251 -0.01900
H 	H 	0.18418 0.13451 0.75792 0.04000
C 	C 	0.21079 0.11845 0.71109 -0.01000
H 	H 	0.18849 0.15968 0.70088 0.02800
C 	C 	0.29774 0.10291 0.74203 -0.01600
H 	H 	0.34994 0.13104 0.75670 0.03200
C 	C 	0.30017 0.11711 0.71070 -0.06200
C 	C 	0.17297 0.02007 0.73635 -0.05600
C 	C 	0.26191 0.01777 0.73608 0.00000
H 	H 	0.28236 0.97579 0.74656 0.02200
C 	C 	0.26564 0.03295 0.70434 -0.01500
H 	H 	0.29002 0.00403 0.68852 0.04200
C 	C 	0.17572 0.03413 0.70494 -0.01200
H 	H 	0.12508 0.00577 0.68965 0.03700
C 	C 	0.64131 0.56700 0.72577 -0.01300
H 	H 	0.62818 0.52075 0.74069 0.03200
C 	C 	0.59255 0.62092 0.72330 -0.01300
H 	H 	0.53938 0.62003 0.73634 0.03300
C 	C 	0.72462 0.63338 0.72389 -0.01800
H 	H 	0.78042 0.64263 0.73747 0.02500
C 	C 	0.67570 0.68651 0.72123 -0.06500
C 	C 	0.63879 0.55881 0.69393 -0.06400
C 	C 	0.72190 0.62447 0.69192 -0.01600
H 	H 	0.77517 0.62543 0.67892 0.03100
C 	C 	0.67324 0.67836 0.68940 -0.01100
H 	H 	0.68656 0.72462 0.67448 0.03200
C 	C 	0.58972 0.61176 0.69121 -0.01200
H 	H 	0.53390 0.60225 0.67764 0.03500
C 	C 	0.98072 0.53895 0.99172 -0.00800
C 	C 	0.94841 0.52132 0.01838 -0.03400
C 	C 	0.99616 0.55627 0.04178 -0.03800
C 	C 	0.07641 0.60911 0.03864 -0.00200
C 	C 	0.10789 0.62796 0.01194 -0.03800
C 	C 	0.06016 0.59302 0.98855 -0.03300
C 	C 	0.93332 0.50018 0.96765 0.04200
C 	C 	0.89412 0.46788 0.94742 -0.10700
C 	C 	0.12939 0.63850 0.06276 0.04000
C 	C 	0.17495 0.66096 0.08281 -0.10400
H 	H 	0.88692 0.47986 0.02102 0.03800
H 	H 	0.97142 0.54114 0.06233 0.04200
H 	H 	0.16993 0.66851 0.00931 0.03800
H 	H 	0.08547 0.60722 0.96802 0.03800
C 	C 	0.57697 0.21374 0.00978 -0.00700
C 	C 	0.62603 0.17265 0.01804 -0.03300
C 	C 	0.61534 0.14020 0.04419 -0.03500
C 	C 	0.55472 0.14795 0.06192 -0.00300
C 	C 	0.51238 0.19570 0.05480 -0.03700
C 	C 	0.52353 0.22863 0.02875 -0.03400
C 	C 	0.57206 0.23116 0.98110 0.04400
C 	C 	0.56408 0.24597 0.95730 -0.10900
C 	C 	0.52247 0.09434 0.08320 0.04000
C 	C 	0.49414 0.04507 0.09941 -0.09700
H 	H 	0.66883 0.16226 0.00367 0.03900
H 	H 	0.64947 0.10437 0.04978 0.04400
H 	H 	0.46643 0.20301 0.06860 0.03500
H 	H 	0.48678 0.26186 0.02267 0.03900
C 	C 	0.61828 0.64092 0.97474 -0.00700
C 	C 	0.56708 0.68365 0.97614 -0.03500
C 	C 	0.55393 0.71242 0.00168 -0.03500
C 	C 	0.59193 0.69852 0.02591 -0.00600
C 	C 	0.64823 0.66080 0.02415 -0.03500
C 	C 	0.66147 0.63212 0.99861 -0.03500
C 	C 	0.61471 0.59570 0.95047 0.04700
C 	C 	0.60869 0.55464 0.93089 -0.11300
C 	C 	0.56342 0.71241 0.05260 0.04600
C 	C 	0.53648 0.72145 0.07476 -0.11000
H 	H 	0.53397 0.69122 0.95775 0.03900
H 	H 	0.51091 0.74216 0.00282 0.03900
H 	H 	0.67848 0.65043 0.04275 0.04000
H 	H 	0.70173 0.59966 0.99766 0.04000
C 	C 	0.75093 0.04321 0.85376 -0.01500
H 	H 	0.78942 0.05615 0.87315 0.02600
C 	C 	0.78395 0.03874 0.82424 0.00500
H 	H 	0.84977 0.04757 0.81928 0.00900
C 	C 	0.67562 0.97035 0.84763 -0.02000
H 	H 	0.65193 0.92281 0.86194 0.03500
C 	C 	0.70864 0.96688 0.81829 -0.08800
C 	C 	0.70021 0.08892 0.84217 -0.05700
C 	C 	0.62487 0.01706 0.83632 -0.00800
H 	H 	0.55904 0.00821 0.84124 0.04300
C 	C 	0.65788 0.01294 0.80690 0.00400
H 	H 	0.61933 0.00096 0.78751 0.03100
C 	C 	0.73308 0.08512 0.81292 -0.01800
H 	H 	0.75647 0.13266 0.79865 0.04200
C 	C 	0.19885 0.10957 0.85102 -0.00900
H 	H 	0.15074 0.08520 0.86686 0.03600
C 	C 	0.24930 0.19338 0.84826 -0.01700
H 	H 	0.24409 0.23809 0.86200 0.02000
C 	C 	0.27853 0.09114 0.84735 -0.00400
H 	H 	0.29724 0.05180 0.86020 0.03800
C 	C 	0.32835 0.17417 0.84452 -0.07100
C 	C 	0.18409 0.10337 0.81928 -0.06500
C 	C 	0.26400 0.08525 0.81563 -0.01600
H 	H 	0.26987 0.04054 0.80202 0.03000
C 	C 	0.31463 0.16918 0.81288 -0.01600
H 	H 	0.36457 0.19562 0.79790 0.02500
C 	C 	0.23353 0.18694 0.81630 -0.01700
H 	H 	0.21444 0.22590 0.80338 0.03000
C 	C 	0.81095 0.60222 0.82031 -0.00700
H 	H 	0.75212 0.61381 0.81828 0.04700
C 	C 	0.84741 0.58664 0.84780 -0.01200
H 	H 	0.81976 0.58717 0.86848 0.04900
C 	C 	0.82624 0.53642 0.80617 -0.01200
H 	H 	0.78110 0.49465 0.79218 0.03300
C 	C 	0.86173 0.51970 0.83382 -0.06300
C 	C 	0.89867 0.65361 0.81229 -0.06500
C 	C 	0.91465 0.58809 0.79797 -0.01600
H 	H 	0.94256 0.58956 0.77725 0.03000
C 	C 	0.95044 0.57030 0.82597 -0.01400
H 	H 	0.00772 0.55644 0.82831 0.03300
C 	C 	0.93538 0.63778 0.83980 -0.01600
H 	H 	0.98014 0.68013 0.85369 0.02200
