data_crystal

_cell_length_a 30.73180
_cell_length_b 29.81536
_cell_length_c 34.37190
_cell_angle_alpha 95.51556
_cell_angle_beta  95.51369
_cell_angle_gamma 125.59210

_symmetry_space_group_name_	'P 1'
_symmetry_space_group_name_H-M	'P 1'

loop_
_symmetry_equiv_pos_as_xyz
  x,y,z

loop_
_atom_site_label
_atom_site_type_symbol
_atom_site_fract_x
_atom_site_fract_y
_atom_site_fract_z
_atom_site_charge
C 	C 	0.97570 0.03623 0.98752 0.04200
C 	C 	0.94529 0.97963 0.99131 -0.07700
C 	C 	0.97006 0.95233 0.99303 0.04200
C 	C 	0.02550 0.98186 0.99109 -0.07600
C 	C 	0.05590 0.03823 0.98659 0.04100
C 	C 	0.03089 0.06535 0.98488 -0.07600
H 	H 	0.90234 0.95675 0.99247 0.05900
H 	H 	0.04488 0.96102 0.99298 0.05900
H 	H 	0.05426 0.10890 0.98144 0.05900
C 	C 	0.96712 0.01826 0.46413 0.04100
C 	C 	0.94075 0.96084 0.46405 -0.07700
C 	C 	0.97131 0.93984 0.46834 0.04100
C 	C 	0.02822 0.97645 0.47289 -0.07600
C 	C 	0.05450 0.03360 0.47249 0.04100
C 	C 	0.02399 0.05451 0.46821 -0.07700
H 	H 	0.89674 0.93267 0.46053 0.05900
H 	H 	0.05195 0.96037 0.47631 0.06200
H 	H 	0.04437 0.09876 0.46781 0.06100
Cu	Cu	0.63174 0.23982 0.99389 0.93200
Cu	Cu	0.66313 0.24444 0.90529 0.89100
Cu	Cu	0.65713 0.33198 0.94753 0.90800
Cu	Cu	0.64716 0.34965 0.03210 0.92000
C 	C 	0.66434 0.28044 0.07815 0.30700
O 	O 	0.55639 0.21434 0.00147 -0.34600
C 	C 	0.63750 0.30466 0.86047 0.30700
O 	O 	0.68073 0.32793 0.99998 -0.63700
O 	O 	0.61803 0.24896 0.93900 -0.63600
O 	O 	0.65660 0.19242 0.98215 -0.35700
O 	O 	0.71515 0.25046 0.94452 -0.40400
O 	O 	0.64051 0.30534 0.07411 -0.32400
O 	O 	0.70064 0.41315 0.95690 -0.33800
C 	C 	0.71166 0.44631 0.99061 0.29100
C 	C 	0.53728 0.24223 0.99167 0.28400
O 	O 	0.57103 0.29558 0.98955 -0.38100
O 	O 	0.68366 0.42642 0.01940 -0.34900
O 	O 	0.65765 0.24452 0.04817 -0.33800
C 	C 	0.70001 0.21151 0.96616 0.29500
O 	O 	0.63685 0.33320 0.89203 -0.33100
O 	O 	0.62989 0.25654 0.86163 -0.37300
H 	H 	0.72069 0.34943 0.00820 0.21200
H 	H 	0.57923 0.22718 0.92617 0.18200
Cu	Cu	0.72715 0.33089 0.44927 0.93300
Cu	Cu	0.71001 0.28579 0.53365 0.89500
Cu	Cu	0.63641 0.30763 0.49295 0.90700
Cu	Cu	0.62818 0.32819 0.41032 0.92100
C 	C 	0.69407 0.30846 0.36477 0.30800
O 	O 	0.75845 0.41200 0.44668 -0.35000
C 	C 	0.65519 0.31637 0.57952 0.30800
O 	O 	0.64172 0.28608 0.44006 -0.63100
O 	O 	0.71537 0.34048 0.50394 -0.63600
O 	O 	0.76633 0.29729 0.45925 -0.35300
O 	O 	0.70231 0.23420 0.49152 -0.40300
O 	O 	0.67421 0.33710 0.37029 -0.32700
O 	O 	0.55879 0.27056 0.48076 -0.34400
C 	C 	0.53360 0.27880 0.45220 0.28900
C 	C 	0.73358 0.43389 0.45757 0.28500
O 	O 	0.68100 0.40099 0.45756 -0.38800
O 	O 	0.55203 0.29179 0.41870 -0.34500
O 	O 	0.72516 0.30914 0.39444 -0.33500
C 	C 	0.74230 0.24963 0.47218 0.29400
O 	O 	0.63255 0.32388 0.54861 -0.34500
O 	O 	0.69929 0.31875 0.57879 -0.36400
H 	H 	0.61829 0.24508 0.42986 0.21700
H 	H 	0.73873 0.37946 0.51920 0.18200
C 	C 	0.60778 0.27352 0.67543 0.03100
C 	C 	0.62444 0.32485 0.69741 0.09400
C 	C 	0.64393 0.37173 0.67844 -0.11400
C 	C 	0.65222 0.36773 0.63908 0.07700
C 	C 	0.63788 0.31701 0.61786 -0.00800
C 	C 	0.61179 0.26845 0.63513 -0.07200
C 	C 	0.62811 0.33078 0.74116 0.09500
C 	C 	0.66051 0.42744 0.70091 0.79000
H 	H 	0.67172 0.40463 0.62543 0.07500
C 	C 	0.59119 0.21191 0.61137 0.77400
H 	H 	0.59350 0.23806 0.69022 0.11200
C 	C 	0.58052 0.30390 0.75815 -0.11400
C 	C 	0.58453 0.29735 0.79802 0.07800
C 	C 	0.63533 0.32064 0.82160 -0.00600
C 	C 	0.68337 0.35386 0.80607 -0.07300
C 	C 	0.67913 0.35663 0.76545 0.03000
C 	C 	0.52485 0.27766 0.73318 0.79000
H 	H 	0.54795 0.27235 0.81033 0.07700
C 	C 	0.73898 0.38316 0.83213 0.77400
H 	H 	0.71525 0.37669 0.75220 0.11300
F 	F 	0.55593 0.16840 0.62990 -0.41800
F 	F 	0.63481 0.21060 0.60743 -0.46200
F 	F 	0.56329 0.20296 0.57397 -0.44800
F 	F 	0.71254 0.45658 0.72300 -0.43100
F 	F 	0.62504 0.41939 0.72611 -0.40100
F 	F 	0.66015 0.45991 0.67485 -0.42700
F 	F 	0.74703 0.34371 0.84028 -0.46600
F 	F 	0.74230 0.41231 0.86751 -0.44900
F 	F 	0.78038 0.42120 0.81374 -0.42200
F 	F 	0.48868 0.27204 0.75697 -0.42500
F 	F 	0.50461 0.22503 0.71275 -0.43000
F 	F 	0.52776 0.31048 0.70621 -0.40200
C 	C 	0.72368 0.32814 0.18775 0.03200
C 	C 	0.70144 0.27645 0.19986 0.09500
C 	C 	0.67597 0.22693 0.17080 -0.11400
C 	C 	0.66585 0.22914 0.13051 0.07600
C 	C 	0.68512 0.28052 0.11873 -0.00400
C 	C 	0.71915 0.33099 0.14719 -0.07200
C 	C 	0.69841 0.27376 0.24247 0.09400
C 	C 	0.65531 0.17087 0.18259 0.79000
H 	H 	0.64094 0.19059 0.10854 0.08300
C 	C 	0.74872 0.38787 0.13481 0.77500
H 	H 	0.74311 0.36596 0.21000 0.11200
C 	C 	0.74597 0.29810 0.27164 -0.11300
C 	C 	0.74362 0.30765 0.31201 0.07700
C 	C 	0.69393 0.28880 0.32366 -0.00400
C 	C 	0.64519 0.25620 0.29487 -0.07100
C 	C 	0.64840 0.25242 0.25437 0.03300
C 	C 	0.80016 0.31819 0.25998 0.79000
H 	H 	0.78078 0.33173 0.33422 0.08400
C 	C 	0.58989 0.22757 0.30693 0.77500
H 	H 	0.61218 0.23412 0.23201 0.11200
F 	F 	0.79450 0.42824 0.16316 -0.41500
F 	F 	0.71445 0.40364 0.13068 -0.45900
F 	F 	0.76569 0.38622 0.09917 -0.45800
F 	F 	0.60424 0.14664 0.19195 -0.42500
F 	F 	0.69015 0.17735 0.21501 -0.40000
F 	F 	0.65147 0.13469 0.15163 -0.42500
F 	F 	0.57798 0.26553 0.31311 -0.46000
F 	F 	0.58928 0.20687 0.34139 -0.45600
F 	F 	0.54949 0.18280 0.27748 -0.41400
F 	F 	0.83445 0.32079 0.29087 -0.42300
F 	F 	0.82501 0.37121 0.25101 -0.42600
F 	F 	0.79318 0.28212 0.22735 -0.40000
C 	C 	0.76296 0.49522 0.46483 -0.08200
C 	C 	0.74915 0.52067 0.49246 0.02500
C 	C 	0.77242 0.57784 0.49607 -0.06700
C 	C 	0.80989 0.61019 0.47225 0.05600
C 	C 	0.82428 0.58486 0.44496 -0.06700
C 	C 	0.80141 0.52785 0.44163 0.02600
C 	C 	0.83000 0.66916 0.47347 -0.04900
C 	C 	0.88249 0.70967 0.47283 -0.04100
C 	C 	0.90115 0.76721 0.46999 0.03700
C 	C 	0.92963 0.79270 0.43990 -0.04700
C 	C 	0.95048 0.84834 0.43836 -0.02300
C 	C 	0.94386 0.87935 0.46735 -0.00400
C 	C 	0.91463 0.85363 0.49716 -0.02300
C 	C 	0.89343 0.79778 0.49853 -0.04700
H 	H 	0.71977 0.49598 0.51070 0.04500
H 	H 	0.76076 0.59682 0.51701 0.06500
H 	H 	0.85185 0.60888 0.42549 0.06300
H 	H 	0.81195 0.50859 0.41989 0.05400
H 	H 	0.80170 0.67966 0.47542 0.05400
H 	H 	0.91109 0.69950 0.47159 0.05300
H 	H 	0.93588 0.76947 0.41782 0.05600
H 	H 	0.97276 0.86775 0.41513 0.04700
H 	H 	0.90958 0.87730 0.51981 0.04600
H 	H 	0.87213 0.77872 0.52223 0.05500
C 	C 	0.76208 0.21498 0.46707 -0.07800
C 	C 	0.72874 0.15831 0.47093 0.02900
C 	C 	0.74935 0.12710 0.47057 -0.06400
C 	C 	0.80316 0.15180 0.46574 0.05700
C 	C 	0.83605 0.20791 0.46057 -0.06500
C 	C 	0.81553 0.23925 0.46104 0.02800
C 	C 	0.82650 0.12065 0.47035 -0.04800
C 	C 	0.85557 0.11876 0.44431 -0.04100
C 	C 	0.88125 0.09006 0.45028 0.03800
C 	C 	0.91319 0.10164 0.48720 -0.04800
C 	C 	0.93987 0.07680 0.49202 -0.02300
C 	C 	0.93530 0.04060 0.45992 -0.00500
C 	C 	0.90317 0.02872 0.42311 -0.02200
C 	C 	0.87651 0.05364 0.41825 -0.04700
H 	H 	0.68715 0.13869 0.47491 0.05800
H 	H 	0.72370 0.08389 0.47462 0.06700
H 	H 	0.87799 0.22775 0.45747 0.06500
H 	H 	0.84178 0.28287 0.45803 0.05400
H 	H 	0.81843 0.09759 0.49464 0.05400
H 	H 	0.85912 0.13705 0.41784 0.06000
H 	H 	0.91817 0.13067 0.51191 0.05300
H 	H 	0.96485 0.08642 0.52048 0.04600
H 	H 	0.89971 0.00108 0.39810 0.04700
H 	H 	0.85240 0.04485 0.38956 0.05900
C 	C 	0.11384 0.07107 0.47504 -0.00500
C 	C 	0.14880 0.09108 0.51193 -0.02100
C 	C 	0.20510 0.12242 0.51394 -0.04700
C 	C 	0.22688 0.13425 0.47909 0.04000
C 	C 	0.19176 0.11466 0.44216 -0.04700
C 	C 	0.13553 0.08358 0.44023 -0.02200
C 	C 	0.28572 0.16191 0.48106 -0.04000
C 	C 	0.31480 0.20269 0.46037 -0.04600
C 	C 	0.37168 0.22499 0.45852 0.05500
C 	C 	0.38729 0.22568 0.42147 -0.06200
C 	C 	0.44022 0.24374 0.41931 0.02400
C 	C 	0.47830 0.26192 0.45432 -0.06300
C 	C 	0.46316 0.26326 0.49147 0.02700
C 	C 	0.41017 0.24505 0.49356 -0.05900
H 	H 	0.13228 0.08141 0.53894 0.05000
H 	H 	0.23174 0.13681 0.54250 0.06300
H 	H 	0.20787 0.12206 0.41490 0.05400
H 	H 	0.10871 0.06789 0.41159 0.04700
H 	H 	0.30551 0.14886 0.49976 0.06200
H 	H 	0.29523 0.21628 0.44205 0.05400
H 	H 	0.35804 0.21100 0.39430 0.06400
H 	H 	0.45126 0.24263 0.39043 0.06600
H 	H 	0.49241 0.27839 0.51872 0.07000
H 	H 	0.39895 0.24628 0.52236 0.07500
C 	C 	0.93758 0.89233 0.99589 -0.00800
C 	C 	0.91055 0.87395 0.02799 -0.01800
C 	C 	0.87859 0.81690 0.03009 -0.04900
C 	C 	0.87404 0.77787 0.00046 0.04200
C 	C 	0.90098 0.79624 0.96827 -0.05100
C 	C 	0.93270 0.85321 0.96606 -0.02000
C 	C 	0.83821 0.71742 0.00194 -0.03800
C 	C 	0.85640 0.68599 0.99823 -0.04800
C 	C 	0.81956 0.62470 0.99681 0.05400
C 	C 	0.81942 0.58837 0.96764 -0.05400
C 	C 	0.78465 0.53034 0.96582 0.02400
C 	C 	0.74965 0.50793 0.99334 -0.06000
C 	C 	0.75101 0.54458 0.02333 0.02700
C 	C 	0.78604 0.60263 0.02520 -0.05700
H 	H 	0.91414 0.90382 0.05120 0.04500
H 	H 	0.85747 0.80305 0.05480 0.05500
H 	H 	0.89666 0.76629 0.94470 0.05900
H 	H 	0.95292 0.86689 0.94094 0.04600
H 	H 	0.79699 0.69876 0.00686 0.05400
H 	H 	0.89770 0.70490 0.99337 0.05800
H 	H 	0.84592 0.60507 0.94610 0.07500
H 	H 	0.78500 0.50287 0.94303 0.08900
H 	H 	0.72487 0.52822 0.04510 0.06000
H 	H 	0.78726 0.63042 0.04878 0.06300
C 	C 	0.94955 0.06489 0.98599 -0.00700
C 	C 	0.94639 0.08631 0.95208 -0.02300
C 	C 	0.92052 0.11232 0.95027 -0.04700
C 	C 	0.89698 0.11649 0.98210 0.03500
C 	C 	0.90108 0.09605 0.01638 -0.04400
C 	C 	0.92706 0.07016 0.01823 -0.02000
C 	C 	0.86981 0.14415 0.97987 -0.03900
C 	C 	0.81927 0.11898 0.98766 -0.04800
C 	C 	0.79044 0.14468 0.98265 0.05600
C 	C 	0.76219 0.14597 0.01193 -0.06100
C 	C 	0.73293 0.16809 0.00672 0.03600
C 	C 	0.73129 0.18871 0.97197 -0.08300
C 	C 	0.75918 0.18694 0.94250 0.02700
C 	C 	0.78821 0.16464 0.94765 -0.06700
H 	H 	0.96364 0.08246 0.92705 0.04600
H 	H 	0.91819 0.12863 0.92393 0.05400
H 	H 	0.88444 0.10050 0.04162 0.05800
H 	H 	0.92985 0.05432 0.04472 0.04700
H 	H 	0.88985 0.18367 0.96925 0.05400
H 	H 	0.79942 0.07972 0.99861 0.05600
H 	H 	0.76304 0.13000 0.03879 0.07700
H 	H 	0.71180 0.16943 0.02978 0.06600
H 	H 	0.75758 0.20191 0.91528 0.04100
H 	H 	0.80826 0.16208 0.92419 0.06100
C 	C 	0.47843 0.21506 0.98665 -0.08300
C 	C 	0.44088 0.15941 0.96627 0.02900
C 	C 	0.38494 0.13252 0.96353 -0.06700
C 	C 	0.36602 0.16096 0.98121 0.05500
C 	C 	0.40374 0.21665 0.00183 -0.06500
C 	C 	0.45959 0.24376 0.00403 0.03200
C 	C 	0.30698 0.13042 0.98102 -0.04900
C 	C 	0.28229 0.15525 0.97588 -0.04000
C 	C 	0.22423 0.12538 0.97828 0.03500
C 	C 	0.20887 0.14769 0.00695 -0.04500
C 	C 	0.15398 0.11923 0.00975 -0.02100
C 	C 	0.11388 0.06872 0.98335 -0.00700
C 	C 	0.12921 0.04709 0.95404 -0.02300
C 	C 	0.18417 0.07522 0.95158 -0.04700
H 	H 	0.45499 0.13689 0.95269 0.04000
H 	H 	0.35631 0.08939 0.94798 0.06300
H 	H 	0.38993 0.23843 0.01704 0.06100
H 	H 	0.48826 0.28648 0.02032 0.04100
H 	H 	0.28310 0.08659 0.98412 0.05600
H 	H 	0.30557 0.19871 0.97201 0.05200
H 	H 	0.23952 0.18664 0.02744 0.05500
H 	H 	0.14266 0.13623 0.03255 0.04700
H 	H 	0.09857 0.00854 0.93318 0.04600
H 	H 	0.19559 0.05819 0.92889 0.05500
