data_crystal

_cell_length_a 26.19653
_cell_length_b 26.29126
_cell_length_c 34.88904
_cell_angle_alpha 95.49457
_cell_angle_beta  95.49328
_cell_angle_gamma 125.83068

_symmetry_space_group_name_	'P 1'
_symmetry_space_group_name_H-M	'P 1'

loop_
_symmetry_equiv_pos_as_xyz
  x,y,z

loop_
_atom_site_label
_atom_site_type_symbol
_atom_site_fract_x
_atom_site_fract_y
_atom_site_fract_z
_atom_site_charge
C 	C 	0.94605 0.01382 0.98027 0.14500
N 	N 	0.01033 0.04605 0.98281 -0.11800
C 	C 	0.03530 0.01321 0.97875 0.15600
N 	N 	0.99610 0.94847 0.97266 -0.12300
C 	C 	0.93200 0.91638 0.97001 0.16200
N 	N 	0.90705 0.94906 0.97398 -0.12000
C 	C 	0.95785 0.01774 0.47084 0.14500
N 	N 	0.02287 0.05567 0.47747 -0.12200
C 	C 	0.05456 0.02951 0.48009 0.15200
N 	N 	0.02126 0.96526 0.47579 -0.11600
C 	C 	0.95625 0.92708 0.46938 0.15800
N 	N 	0.92437 0.95329 0.46672 -0.11400
Cu	Cu	0.62778 0.24019 0.00699 0.92900
Cu	Cu	0.64996 0.20016 0.92108 0.88800
Cu	Cu	0.64448 0.32071 0.94496 0.91700
Cu	Cu	0.61899 0.35509 0.02119 0.90900
C 	C 	0.65223 0.30608 0.08581 0.28600
O 	O 	0.53389 0.19723 0.01006 -0.34800
C 	C 	0.65722 0.28280 0.87061 0.28500
O 	O 	0.67016 0.33515 0.00050 -0.63900
O 	O 	0.60839 0.23039 0.94893 -0.62300
O 	O 	0.68127 0.20829 0.01206 -0.34600
O 	O 	0.63521 0.14091 0.95297 -0.40900
O 	O 	0.62013 0.32708 0.07232 -0.35300
O 	O 	0.68554 0.40951 0.94304 -0.35800
C 	C 	0.68476 0.44892 0.96895 0.31200
C 	C 	0.50302 0.21801 0.99457 0.30500
O 	O 	0.53483 0.27257 0.98238 -0.37500
O 	O 	0.64436 0.42756 0.99361 -0.36900
O 	O 	0.65687 0.26644 0.06278 -0.34500
C 	C 	0.67263 0.16176 0.98723 0.31300
O 	O 	0.62864 0.30302 0.88839 -0.36900
O 	O 	0.69016 0.26842 0.89142 -0.40400
H 	H 	0.71687 0.36714 0.01024 0.18700
H 	H 	0.56176 0.20152 0.93835 0.16400
Cu	Cu	0.73466 0.33977 0.45186 0.92800
Cu	Cu	0.77921 0.32380 0.53861 0.88700
Cu	Cu	0.65681 0.32707 0.51516 0.91600
Cu	Cu	0.61439 0.34263 0.43585 0.91100
C 	C 	0.67765 0.32649 0.37362 0.28600
O 	O 	0.77809 0.43238 0.44629 -0.35600
C 	C 	0.69945 0.32101 0.59040 0.28500
O 	O 	0.63975 0.29765 0.45987 -0.63500
O 	O 	0.74704 0.36304 0.50979 -0.62500
O 	O 	0.76588 0.28570 0.44738 -0.34400
O 	O 	0.83621 0.33478 0.50550 -0.40800
O 	O 	0.62787 0.32317 0.38255 -0.35300
O 	O 	0.56799 0.28553 0.51861 -0.35600
C 	C 	0.52727 0.28413 0.49236 0.31100
C 	C 	0.75335 0.46211 0.45597 0.30400
O 	O 	0.69955 0.43205 0.46922 -0.37200
O 	O 	0.54773 0.32413 0.46761 -0.36800
O 	O 	0.70651 0.30963 0.39642 -0.34800
C 	C 	0.81334 0.29522 0.47196 0.31000
O 	O 	0.67768 0.34751 0.57166 -0.36900
O 	O 	0.71330 0.28697 0.57037 -0.40400
H 	H 	0.60903 0.25062 0.45185 0.19000
H 	H 	0.77568 0.40991 0.51894 0.16500
C 	C 	0.66146 0.28636 0.82881 -0.06700
C 	C 	0.68341 0.25631 0.80828 0.00800
C 	C 	0.68957 0.26104 0.76921 -0.04600
C 	C 	0.67595 0.29806 0.75029 0.01100
C 	C 	0.64832 0.32344 0.76985 0.01600
C 	C 	0.64285 0.31895 0.80927 -0.01200
C 	C 	0.62468 0.35126 0.74952 -0.03300
C 	C 	0.62753 0.35353 0.70994 -0.03300
C 	C 	0.65784 0.33186 0.69063 0.01600
C 	C 	0.68554 0.30720 0.71131 0.01100
C 	C 	0.72489 0.29576 0.69338 -0.04600
C 	C 	0.72944 0.30062 0.65415 0.00800
C 	C 	0.69690 0.31916 0.63249 -0.06700
C 	C 	0.66226 0.33613 0.65109 -0.01200
H 	H 	0.69460 0.22811 0.82236 0.03800
H 	H 	0.70155 0.23312 0.75337 0.05300
H 	H 	0.62386 0.34051 0.82457 0.05900
H 	H 	0.60264 0.36990 0.76418 0.05500
H 	H 	0.60722 0.37345 0.69444 0.05500
H 	H 	0.75456 0.28640 0.71005 0.05300
H 	H 	0.75929 0.29095 0.64077 0.03700
H 	H 	0.63882 0.35263 0.63491 0.05900
C 	C 	0.66930 0.31451 0.12872 -0.05300
C 	C 	0.66351 0.26526 0.14536 0.01100
C 	C 	0.67093 0.26922 0.18599 -0.04200
C 	C 	0.68651 0.32394 0.21098 0.01300
C 	C 	0.69106 0.37306 0.19397 0.01900
C 	C 	0.68478 0.36903 0.15316 -0.01300
C 	C 	0.69770 0.42358 0.21761 -0.02900
C 	C 	0.69616 0.42413 0.25745 -0.03300
C 	C 	0.69219 0.37640 0.27494 0.02400
C 	C 	0.69207 0.32852 0.25243 0.01000
C 	C 	0.69891 0.28762 0.27203 -0.04000
C 	C 	0.69549 0.28784 0.31179 0.00800
C 	C 	0.68818 0.33062 0.33296 -0.05000
C 	C 	0.68874 0.37621 0.31483 -0.01800
H 	H 	0.65006 0.22226 0.12673 0.05700
H 	H 	0.66017 0.22788 0.19744 0.05600
H 	H 	0.68926 0.40715 0.14031 0.05300
H 	H 	0.70143 0.46131 0.20474 0.05800
H 	H 	0.69835 0.46203 0.27485 0.06200
H 	H 	0.70967 0.25781 0.25729 0.05500
H 	H 	0.69811 0.25438 0.32605 0.05800
H 	H 	0.68622 0.41127 0.33171 0.06500
C 	C 	0.92073 0.85737 0.46379 -0.02800
C 	C 	0.88888 0.82381 0.49298 0.12400
C 	C 	0.86317 0.75920 0.48980 -0.06400
C 	C 	0.86971 0.72785 0.45796 0.01500
C 	C 	0.90054 0.76108 0.42844 0.10100
C 	C 	0.92568 0.82547 0.43143 -0.03700
H 	H 	0.83886 0.73355 0.51236 0.08700
C 	C 	0.84230 0.65968 0.45511 0.03100
H 	H 	0.95047 0.85120 0.40901 0.08300
C 	C 	0.78068 0.61294 0.43320 -0.08400
C 	C 	0.75269 0.54812 0.43145 0.15200
C 	C 	0.78607 0.52945 0.45244 -0.10100
C 	C 	0.84870 0.57618 0.47321 -0.00600
C 	C 	0.87691 0.64116 0.47466 0.08200
H 	H 	0.75443 0.62705 0.41752 0.09200
H 	H 	0.87480 0.56214 0.48914 0.06200
Br	Br	0.91026 0.71976 0.38439 -0.18900
Br	Br	0.88254 0.86605 0.53827 -0.17900
Br	Br	0.66947 0.48580 0.39936 -0.25900
Br	Br	0.96245 0.70389 0.50366 -0.18700
C 	C 	0.82904 0.24993 0.46645 -0.10400
C 	C 	0.78303 0.18479 0.46758 0.14700
C 	C 	0.80020 0.14337 0.46559 -0.08300
C 	C 	0.86330 0.16644 0.46348 0.02900
C 	C 	0.90902 0.23122 0.46168 0.08300
C 	C 	0.89172 0.27261 0.46322 -0.00500
H 	H 	0.76495 0.09358 0.46700 0.09000
C 	C 	0.88201 0.12340 0.46554 0.01400
H 	H 	0.92731 0.32263 0.46249 0.06800
C 	C 	0.87995 0.09001 0.43084 -0.06500
C 	C 	0.90113 0.05200 0.43231 0.12200
C 	C 	0.92412 0.04681 0.46879 -0.02700
C 	C 	0.92338 0.07787 0.50348 -0.03900
C 	C 	0.90255 0.11612 0.50204 0.10100
H 	H 	0.86323 0.09470 0.40271 0.08600
H 	H 	0.94100 0.07396 0.53161 0.08500
Br	Br	0.99564 0.26429 0.45813 -0.18600
Br	Br	0.69778 0.15233 0.47469 -0.24800
Br	Br	0.90057 0.00945 0.38420 -0.19900
Br	Br	0.90443 0.15970 0.55019 -0.19800
C 	C 	0.12464 0.07030 0.48530 -0.03000
C 	C 	0.16243 0.08061 0.52090 0.12300
C 	C 	0.22906 0.11712 0.52463 -0.06600
C 	C 	0.25836 0.14356 0.49311 0.01600
C 	C 	0.22057 0.13377 0.45765 0.10100
C 	C 	0.15402 0.09758 0.45401 -0.03800
H 	H 	0.25809 0.12478 0.55199 0.08600
C 	C 	0.32831 0.17961 0.49694 0.02900
H 	H 	0.12500 0.08977 0.42660 0.08400
C 	C 	0.35413 0.14685 0.48810 -0.08200
C 	C 	0.41961 0.18063 0.48772 0.14800
C 	C 	0.45985 0.24786 0.49640 -0.09400
C 	C 	0.43443 0.28052 0.50674 -0.00500
C 	C 	0.36898 0.24671 0.50727 0.08500
H 	H 	0.32296 0.09515 0.48050 0.09000
H 	H 	0.46544 0.33225 0.51392 0.07200
Br	Br	0.25901 0.16868 0.41372 -0.18300
Br	Br	0.12393 0.04611 0.56489 -0.18400
Br	Br	0.45265 0.13425 0.47339 -0.22500
Br	Br	0.33572 0.29289 0.52149 -0.18000
C 	C 	0.89054 0.84683 0.96646 -0.03200
C 	C 	0.87992 0.80695 0.93191 0.12400
C 	C 	0.84409 0.74099 0.93017 -0.06600
C 	C 	0.81861 0.71447 0.96262 0.01600
C 	C 	0.82823 0.75426 0.99689 0.10200
C 	C 	0.86375 0.82012 0.99855 -0.03500
H 	H 	0.83636 0.71036 0.90368 0.08600
C 	C 	0.78425 0.64547 0.96112 0.02900
H 	H 	0.87172 0.85075 0.02513 0.08500
C 	C 	0.81888 0.62219 0.97177 -0.08200
C 	C 	0.78676 0.55765 0.97369 0.14900
C 	C 	0.71935 0.51582 0.96475 -0.09400
C 	C 	0.68479 0.53875 0.95298 -0.00500
C 	C 	0.71694 0.60325 0.95091 0.08500
H 	H 	0.87074 0.65460 0.97941 0.09100
H 	H 	0.63290 0.50648 0.94566 0.07200
Br	Br	0.79419 0.71956 0.04194 -0.18300
Br	Br	0.91293 0.84158 0.88663 -0.17900
Br	Br	0.83564 0.52805 0.99022 -0.22300
Br	Br	0.66822 0.63306 0.93456 -0.18000
C 	C 	0.71784 0.14600 0.99329 -0.10700
C 	C 	0.78363 0.19225 0.99345 0.14800
C 	C 	0.82485 0.17476 0.99481 -0.08500
C 	C 	0.80094 0.11119 0.99491 0.03200
C 	C 	0.73562 0.06532 0.99581 0.07300
C 	C 	0.69443 0.08291 0.99498 -0.00200
H 	H 	0.87512 0.21015 0.99422 0.09100
C 	C 	0.84347 0.09214 0.99114 0.01200
H 	H 	0.64393 0.04720 0.99481 0.06500
C 	C 	0.87611 0.09094 0.02490 -0.06500
C 	C 	0.91331 0.06903 0.02169 0.12100
C 	C 	0.91843 0.04862 0.98440 -0.02700
C 	C 	0.88837 0.05285 0.95071 -0.04000
C 	C 	0.85088 0.07437 0.95388 0.10200
H 	H 	0.87137 0.10563 0.05363 0.08600
H 	H 	0.89231 0.03727 0.92196 0.08400
Br	Br	0.70154 0.97808 0.99693 -0.16600
Br	Br	0.81732 0.27837 0.98869 -0.24800
Br	Br	0.95493 0.06515 0.06848 -0.19800
Br	Br	0.80838 0.07711 0.90701 -0.20100
C 	C 	0.43476 0.18509 0.99596 -0.09700
C 	C 	0.41460 0.21671 0.01720 0.15300
C 	C 	0.34925 0.18802 0.01444 -0.08500
C 	C 	0.30347 0.12736 0.99135 0.03200
C 	C 	0.32342 0.09466 0.97124 0.08300
C 	C 	0.38895 0.12364 0.97366 -0.00700
H 	H 	0.33398 0.21279 0.03046 0.09300
C 	C 	0.23478 0.09856 0.98843 0.01600
H 	H 	0.40419 0.09894 0.95753 0.06000
C 	C 	0.20319 0.10634 0.95741 -0.06500
C 	C 	0.13839 0.08059 0.95468 0.12400
C 	C 	0.10495 0.04743 0.98354 -0.02800
C 	C 	0.13697 0.04079 0.01496 -0.03800
C 	C 	0.20152 0.06597 0.01746 0.09900
H 	H 	0.22886 0.13192 0.93520 0.08600
H 	H 	0.11128 0.01492 0.03708 0.08200
Br	Br	0.26192 0.01062 0.94033 -0.19000
Br	Br	0.47544 0.29806 0.05128 -0.24600
Br	Br	0.09579 0.08886 0.91050 -0.18400
Br	Br	0.24312 0.05418 0.06027 -0.18700
