data_crystal

_cell_length_a 23.98090
_cell_length_b 21.53157
_cell_length_c 19.09746
_cell_angle_alpha 92.70574
_cell_angle_beta  85.32138
_cell_angle_gamma 124.79548

_symmetry_space_group_name_	'P 1'
_symmetry_space_group_name_H-M	'P 1'

loop_
_symmetry_equiv_pos_as_xyz
  x,y,z

loop_
_atom_site_label
_atom_site_type_symbol
_atom_site_fract_x
_atom_site_fract_y
_atom_site_fract_z
_atom_site_charge
C 	C 	0.92395 0.11685 0.88222 0.00800
C 	C 	0.97846 0.14225 0.83172 -0.01600
C 	C 	0.01733 0.11247 0.82989 -0.07000
C 	C 	0.00276 0.05794 0.87917 0.07400
C 	C 	0.94726 0.03207 0.92940 -0.05800
C 	C 	0.90769 0.06056 0.92989 -0.02300
N 	N 	0.04747 0.03291 0.88032 -0.14000
C 	C 	0.23295 0.17609 0.98005 0.02700
C 	C 	0.17577 0.17524 0.00423 -0.03900
C 	C 	0.11489 0.12968 0.97103 -0.05400
C 	C 	0.11112 0.08525 0.91233 0.07400
C 	C 	0.16936 0.08868 0.88695 -0.05800
C 	C 	0.22995 0.13392 0.92049 -0.02900
C 	C 	0.93154 0.80317 0.94389 0.00300
C 	C 	0.94537 0.82168 0.87211 -0.01800
C 	C 	0.98525 0.89749 0.85122 -0.05800
C 	C 	0.01431 0.95517 0.90164 0.07300
C 	C 	0.00667 0.93604 0.97307 -0.06800
C 	C 	0.96387 0.86063 0.99409 -0.01000
H 	H 	0.99172 0.18632 0.79506 0.04600
H 	H 	0.06042 0.13378 0.79192 0.05300
H 	H 	0.93573 0.99171 0.96915 0.05500
H 	H 	0.86591 0.04110 0.96933 0.04900
H 	H 	0.17793 0.20813 0.04996 0.04900
H 	H 	0.07036 0.12690 0.99241 0.05100
H 	H 	0.16696 0.05442 0.84238 0.05400
H 	H 	0.27423 0.13497 0.90113 0.05200
H 	H 	0.92358 0.77746 0.83273 0.04600
H 	H 	0.99252 0.91153 0.79603 0.05500
H 	H 	0.02972 0.97973 0.01265 0.05000
H 	H 	0.95503 0.84686 0.04950 0.04000
C 	C 	0.89245 0.08795 0.49780 0.01000
C 	C 	0.85854 0.04578 0.55926 -0.02100
C 	C 	0.88007 0.00542 0.58906 -0.05900
C 	C 	0.93547 0.00642 0.55769 0.08100
C 	C 	0.96988 0.04934 0.49614 -0.05900
C 	C 	0.94858 0.09022 0.46672 -0.02300
N 	N 	0.95482 0.96166 0.58810 -0.14000
C 	C 	0.16124 0.06036 0.62810 0.01100
C 	C 	0.11530 0.05596 0.68151 -0.02700
C 	C 	0.04802 0.02570 0.66726 -0.06100
C 	C 	0.02587 0.99914 0.59982 0.07000
C 	C 	0.07194 0.00334 0.54638 -0.05700
C 	C 	0.13974 0.03625 0.55992 -0.02300
C 	C 	0.85275 0.73221 0.52258 0.00700
C 	C 	0.88245 0.78978 0.47205 -0.02000
C 	C 	0.91586 0.86543 0.49301 -0.06600
C 	C 	0.92037 0.88413 0.56497 0.08400
C 	C 	0.89078 0.82641 0.61522 -0.06400
C 	C 	0.85646 0.75081 0.59423 -0.01800
H 	H 	0.81508 0.04374 0.58351 0.05200
H 	H 	0.85316 0.97241 0.63615 0.06000
H 	H 	0.01220 0.05034 0.47059 0.04700
H 	H 	0.97511 0.12280 0.41930 0.04700
H 	H 	0.13153 0.07544 0.73402 0.04100
H 	H 	0.01239 0.02067 0.70908 0.05200
H 	H 	0.05527 0.98087 0.49467 0.04700
H 	H 	0.17520 0.04110 0.51787 0.05000
H 	H 	0.87929 0.77586 0.41661 0.04500
H 	H 	0.93862 0.90918 0.45350 0.05400
H 	H 	0.89398 0.84032 0.67065 0.05600
H 	H 	0.83274 0.70662 0.63361 0.04400
Co	Co	0.74603 0.34110 0.99110 1.18800
O 	O 	0.81599 0.33205 0.92743 -0.36900
Co	Co	0.61971 0.36182 0.03431 1.18600
O 	O 	0.66388 0.32180 0.94481 -0.46200
O 	O 	0.70743 0.45457 0.05902 -0.41800
O 	O 	0.72748 0.23209 0.97009 -0.34000
C 	C 	0.76238 0.48848 0.01543 0.33900
O 	O 	0.63039 0.39222 0.92624 -0.35100
C 	C 	0.49306 0.30047 0.07281 0.29400
C 	C 	0.69275 0.32257 0.12374 0.31300
O 	O 	0.54372 0.36593 0.09218 -0.36000
O 	O 	0.51470 0.26865 0.03108 -0.33900
O 	O 	0.75176 0.33684 0.10220 -0.34700
O 	O 	0.65389 0.30331 0.07238 -0.45700
O 	O 	0.78917 0.45253 0.98691 -0.51600
C 	C 	0.78261 0.25955 0.93018 0.29800
C 	C 	0.66344 0.36452 0.89995 0.30800
H 	H 	0.83345 0.48223 0.95673 0.17900
Co	Co	0.69788 0.28640 0.46895 1.18600
O 	O 	0.76659 0.27632 0.40265 -0.36500
Co	Co	0.55578 0.27169 0.53224 1.18600
O 	O 	0.59668 0.21968 0.45200 -0.45800
O 	O 	0.62272 0.38091 0.50817 -0.40400
O 	O 	0.70877 0.19616 0.48394 -0.34600
C 	C 	0.68395 0.41246 0.47482 0.33500
O 	O 	0.52349 0.24025 0.42730 -0.35300
C 	C 	0.44665 0.20127 0.61560 0.29600
C 	C 	0.68314 0.32116 0.60242 0.30600
O 	O 	0.48424 0.27272 0.60191 -0.35800
O 	O 	0.47083 0.16808 0.58010 -0.34200
O 	O 	0.73915 0.34172 0.56612 -0.36100
O 	O 	0.63034 0.26768 0.57154 -0.46500
O 	O 	0.69959 0.37274 0.43296 -0.52900
C 	C 	0.75348 0.21608 0.43206 0.29600
C 	C 	0.56584 0.22419 0.40199 0.32100
H 	H 	0.72786 0.39629 0.38737 0.17500
C 	C 	0.67085 0.35470 0.82375 -0.09600
C 	C 	0.68465 0.41093 0.77650 0.08700
C 	C 	0.68987 0.39962 0.70397 -0.03600
C 	C 	0.68141 0.33295 0.67837 -0.10500
C 	C 	0.67129 0.27837 0.72589 0.09600
C 	C 	0.66507 0.28921 0.79806 -0.03700
H 	H 	0.70041 0.44280 0.66754 0.04300
H 	H 	0.65621 0.24666 0.83422 0.05900
N 	N 	0.69647 0.48111 0.80255 -0.13600
N 	N 	0.66966 0.21294 0.70166 -0.14100
C 	C 	0.63901 0.48510 0.79095 -0.09600
H 	H 	0.63565 0.49006 0.73399 0.05900
H 	H 	0.64637 0.53574 0.81820 0.06800
H 	H 	0.59040 0.43439 0.81284 0.08000
C 	C 	0.73829 0.23005 0.69282 -0.09500
H 	H 	0.76970 0.27370 0.65171 0.07500
H 	H 	0.73505 0.17792 0.67666 0.06500
H 	H 	0.76352 0.24992 0.74322 0.06000
H 	H 	0.74150 0.52702 0.77863 0.08200
H 	H 	0.64351 0.18930 0.65611 0.10200
C 	C 	0.59934 0.24932 0.33097 -0.11400
C 	C 	0.62539 0.21216 0.29353 0.07800
C 	C 	0.65785 0.23786 0.22616 -0.02800
C 	C 	0.66461 0.30034 0.19641 -0.09500
C 	C 	0.64094 0.33909 0.23494 0.07600
C 	C 	0.60703 0.31237 0.30125 -0.02900
H 	H 	0.67660 0.20832 0.19665 0.05500
H 	H 	0.58856 0.34224 0.33053 0.05900
N 	N 	0.61769 0.14736 0.32348 -0.14200
N 	N 	0.65374 0.40758 0.20760 -0.14600
C 	C 	0.55898 0.07731 0.29671 -0.09300
H 	H 	0.51167 0.07487 0.30931 0.06400
H 	H 	0.55281 0.02832 0.32232 0.06100
H 	H 	0.56633 0.07244 0.23895 0.05700
C 	C 	0.71652 0.47362 0.23333 -0.09400
H 	H 	0.71288 0.47689 0.29165 0.05700
H 	H 	0.72558 0.52576 0.21148 0.06800
H 	H 	0.76069 0.47140 0.21569 0.07000
H 	H 	0.66186 0.14871 0.31247 0.08300
H 	H 	0.61279 0.41168 0.22133 0.09100
C 	C 	0.73112 0.49565 0.47526 -0.12000
C 	C 	0.70922 0.54162 0.45963 0.09300
C 	C 	0.75038 0.61933 0.47322 -0.08200
C 	C 	0.81399 0.65215 0.50061 0.01600
C 	C 	0.83825 0.60726 0.51060 0.01900
C 	C 	0.79658 0.52927 0.49827 -0.00300
H 	H 	0.73248 0.65413 0.46338 0.06600
H 	H 	0.81438 0.49447 0.50848 0.04600
I 	I 	0.61628 0.49654 0.41186 -0.11200
I 	I 	0.93795 0.65582 0.54279 -0.09300
C 	C 	0.86878 0.12950 0.46612 0.01300
C 	C 	0.81784 0.09367 0.41771 0.02600
C 	C 	0.78555 0.12754 0.39971 -0.00500
C 	C 	0.80298 0.19641 0.43032 -0.09000
C 	C 	0.85854 0.23563 0.47324 0.08600
C 	C 	0.89106 0.20195 0.49096 -0.07500
H 	H 	0.74376 0.09784 0.36554 0.04600
H 	H 	0.93154 0.23059 0.52673 0.06500
I 	I 	0.78594 0.98644 0.37425 -0.10800
I 	I 	0.89193 0.34380 0.51538 -0.10700
C 	C 	0.37328 0.16063 0.63809 -0.08700
C 	C 	0.34539 0.19987 0.66648 0.08500
C 	C 	0.27524 0.16587 0.66557 -0.07500
C 	C 	0.23209 0.09070 0.64311 0.01100
C 	C 	0.25878 0.04735 0.62863 0.02600
C 	C 	0.32926 0.08284 0.62425 -0.00700
H 	H 	0.25436 0.19789 0.68222 0.06100
H 	H 	0.34977 0.05021 0.60879 0.06200
I 	I 	0.40474 0.30320 0.72233 -0.09600
I 	I 	0.19383 0.92785 0.61789 -0.10200
C 	C 	0.88569 0.72344 0.96666 0.02400
C 	C 	0.81650 0.67885 0.95128 0.01500
C 	C 	0.77535 0.60244 0.97038 0.00900
C 	C 	0.80152 0.57105 0.00776 -0.12500
C 	C 	0.86831 0.61761 0.02957 0.09100
C 	C 	0.91074 0.69261 0.00686 -0.08900
H 	H 	0.72329 0.56717 0.95524 0.04500
H 	H 	0.96307 0.72732 0.02117 0.06600
I 	I 	0.77123 0.72608 0.90429 -0.10800
I 	I 	0.90504 0.57733 0.10012 -0.11200
C 	C 	0.88974 0.15592 0.89158 0.01400
C 	C 	0.83713 0.13808 0.84904 0.02500
C 	C 	0.80119 0.17097 0.86320 -0.00500
C 	C 	0.81688 0.22097 0.91981 -0.09200
C 	C 	0.86856 0.23755 0.96318 0.09100
C 	C 	0.90537 0.20599 0.94814 -0.07600
H 	H 	0.76120 0.15785 0.83000 0.04500
H 	H 	0.94506 0.21874 0.98165 0.06600
I 	I 	0.80987 0.06056 0.76425 -0.11400
I 	I 	0.88943 0.30628 0.05433 -0.10400
C 	C 	0.29551 0.21912 0.01817 -0.00400
C 	C 	0.30403 0.18588 0.07442 0.03200
C 	C 	0.36878 0.21918 0.09882 -0.01000
C 	C 	0.42541 0.28441 0.06654 -0.08300
C 	C 	0.41551 0.32178 0.01524 0.07600
C 	C 	0.35058 0.28905 0.99163 -0.05700
H 	H 	0.37586 0.19117 0.13938 0.05100
H 	H 	0.34372 0.31579 0.94965 0.06300
I 	I 	0.22115 0.08226 0.11967 -0.10900
I 	I 	0.49818 0.42448 0.96820 -0.10000
