data_crystal

_cell_length_a 25.97683
_cell_length_b 26.38999
_cell_length_c 34.82449
_cell_angle_alpha 95.46902
_cell_angle_beta  95.46587
_cell_angle_gamma 125.77650

_symmetry_space_group_name_	'P 1'
_symmetry_space_group_name_H-M	'P 1'

loop_
_symmetry_equiv_pos_as_xyz
  x,y,z

loop_
_atom_site_label
_atom_site_type_symbol
_atom_site_fract_x
_atom_site_fract_y
_atom_site_fract_z
_atom_site_charge
C 	C 	0.96015 0.01671 0.99027 0.12500
N 	N 	0.93257 0.95454 0.99105 -0.14100
C 	C 	0.96646 0.93104 0.98594 0.12900
N 	N 	0.02883 0.97018 0.98152 -0.13800
C 	C 	0.05695 0.03253 0.98123 0.12600
N 	N 	0.02213 0.05551 0.98459 -0.14200
C 	C 	0.93794 0.99967 0.47392 0.13100
N 	N 	0.00323 0.04003 0.47808 -0.14400
C 	C 	0.03898 0.01842 0.48438 0.12600
N 	N 	0.00942 0.95639 0.48646 -0.13900
C 	C 	0.94418 0.91578 0.48228 0.12700
N 	N 	0.90831 0.93735 0.47564 -0.14300
Cu	Cu	0.62960 0.23377 0.99475 0.93100
Cu	Cu	0.71725 0.27628 0.92708 0.86800
Cu	Cu	0.66911 0.34202 0.95241 0.89400
Cu	Cu	0.64504 0.35727 0.03336 0.90500
C 	C 	0.63801 0.26369 0.07770 0.33400
O 	O 	0.53807 0.20852 0.98908 -0.34900
C 	C 	0.67227 0.32205 0.86916 0.33000
O 	O 	0.68930 0.33397 0.00591 -0.63500
O 	O 	0.63628 0.25233 0.94141 -0.64600
O 	O 	0.65993 0.17997 0.98892 -0.35500
O 	O 	0.75130 0.26050 0.97117 -0.42600
O 	O 	0.61550 0.29590 0.06988 -0.36800
O 	O 	0.69480 0.42857 0.96261 -0.36500
C 	C 	0.72392 0.46786 0.99675 0.29500
C 	C 	0.52329 0.24594 0.97823 0.29000
O 	O 	0.56884 0.30737 0.98188 -0.39600
O 	O 	0.70741 0.44750 0.02974 -0.38100
O 	O 	0.63964 0.22834 0.04918 -0.34100
C 	C 	0.71758 0.20416 0.98087 0.30800
O 	O 	0.65366 0.34268 0.89677 -0.36100
O 	O 	0.69877 0.29298 0.87676 -0.39900
H 	H 	0.73600 0.35770 0.01637 0.16900
H 	H 	0.59703 0.22466 0.92073 0.18800
Cu	Cu	0.73107 0.33291 0.44919 0.93100
Cu	Cu	0.71167 0.27231 0.52839 0.87000
Cu	Cu	0.64087 0.31896 0.50282 0.89700
Cu	Cu	0.60748 0.32609 0.41982 0.90200
C 	C 	0.68230 0.30977 0.36665 0.33800
O 	O 	0.76541 0.42460 0.44774 -0.34700
C 	C 	0.67798 0.33031 0.58666 0.32600
O 	O 	0.63157 0.28397 0.44859 -0.63800
O 	O 	0.72939 0.34415 0.50545 -0.64500
O 	O 	0.77786 0.29452 0.45282 -0.35700
O 	O 	0.70354 0.21888 0.48372 -0.43400
O 	O 	0.65499 0.33735 0.37585 -0.37400
O 	O 	0.55609 0.30077 0.50034 -0.36300
C 	C 	0.50890 0.27018 0.46944 0.29900
C 	C 	0.73598 0.44872 0.45988 0.29200
O 	O 	0.67522 0.41099 0.46386 -0.39300
O 	O 	0.52068 0.27827 0.43368 -0.38500
O 	O 	0.71887 0.30663 0.39378 -0.34600
C 	C 	0.75091 0.23953 0.46412 0.30400
O 	O 	0.65631 0.34802 0.55905 -0.35900
O 	O 	0.71067 0.30759 0.57927 -0.39600
H 	H 	0.60272 0.23694 0.44187 0.16600
H 	H 	0.76339 0.38678 0.52144 0.18700
C 	C 	0.65932 0.32757 0.82813 -0.11800
C 	C 	0.62784 0.27352 0.79809 0.12500
C 	C 	0.63068 0.28075 0.75873 0.06400
C 	C 	0.65701 0.34091 0.74884 0.01600
C 	C 	0.67948 0.39328 0.77848 0.06700
C 	C 	0.68421 0.38760 0.81824 0.12300
C 	C 	0.66472 0.34977 0.70778 0.01600
C 	C 	0.72522 0.37588 0.69687 0.06400
C 	C 	0.73070 0.37768 0.65719 0.12500
C 	C 	0.67461 0.34538 0.62791 -0.11700
C 	C 	0.61443 0.32157 0.63888 0.12100
C 	C 	0.61051 0.32733 0.67893 0.06700
Br	Br	0.70402 0.47259 0.76448 -0.16200
Br	Br	0.57789 0.18955 0.81075 -0.21200
Br	Br	0.81491 0.42783 0.64312 -0.20200
Br	Br	0.53096 0.30366 0.69438 -0.16400
Br	Br	0.72909 0.46262 0.85877 -0.19500
Br	Br	0.60205 0.20913 0.71872 -0.17500
Br	Br	0.79959 0.40544 0.73586 -0.17200
Br	Br	0.53678 0.27679 0.59948 -0.19900
C 	C 	0.68656 0.29848 0.32517 -0.12000
C 	C 	0.71332 0.34892 0.30421 0.12600
C 	C 	0.70606 0.33620 0.26316 0.06400
C 	C 	0.67705 0.27383 0.24338 0.01700
C 	C 	0.65741 0.22480 0.26498 0.06700
C 	C 	0.66029 0.23665 0.30571 0.12400
C 	C 	0.66328 0.25915 0.19984 0.01700
C 	C 	0.60216 0.23640 0.17913 0.06400
C 	C 	0.59182 0.23068 0.13810 0.12600
C 	C 	0.64397 0.25308 0.11819 -0.11900
C 	C 	0.70363 0.27118 0.13838 0.12000
C 	C 	0.71269 0.27265 0.17910 0.06700
Br	Br	0.62588 0.14147 0.23856 -0.16300
Br	Br	0.76260 0.43563 0.33199 -0.19000
Br	Br	0.50577 0.18923 0.10889 -0.18500
Br	Br	0.79300 0.29446 0.20674 -0.16300
Br	Br	0.62572 0.16783 0.33446 -0.21400
Br	Br	0.73336 0.40360 0.23378 -0.17400
Br	Br	0.53373 0.21615 0.20721 -0.17300
Br	Br	0.77348 0.29618 0.11057 -0.20800
C 	C 	0.76782 0.51734 0.46293 -0.10000
C 	C 	0.74164 0.54000 0.43845 0.13500
C 	C 	0.76956 0.60511 0.44472 -0.09500
C 	C 	0.82577 0.64845 0.47287 0.00700
C 	C 	0.85333 0.62613 0.49649 0.06500
C 	C 	0.82366 0.56056 0.49142 -0.02000
N 	N 	0.69137 0.49999 0.40804 -0.20000
H 	H 	0.74904 0.62250 0.42644 0.06400
C 	C 	0.85734 0.71734 0.47564 -0.00700
N 	N 	0.90818 0.66721 0.52386 -0.19100
H 	H 	0.84390 0.54313 0.50989 0.04600
C 	C 	0.84419 0.74808 0.50372 -0.08300
C 	C 	0.87261 0.81320 0.50683 0.10300
C 	C 	0.91228 0.84718 0.47989 -0.04700
C 	C 	0.92441 0.81602 0.45139 -0.05200
C 	C 	0.89829 0.75171 0.44940 0.07700
H 	H 	0.81277 0.72154 0.52374 0.06000
N 	N 	0.86300 0.84291 0.53626 -0.19900
H 	H 	0.95509 0.84222 0.43096 0.05300
N 	N 	0.91317 0.72349 0.42251 -0.19400
H 	H 	0.83218 0.81698 0.55525 0.09200
H 	H 	0.88748 0.89207 0.54152 0.09600
H 	H 	0.94263 0.74904 0.40287 0.09300
H 	H 	0.89676 0.67650 0.42123 0.10000
H 	H 	0.92813 0.65024 0.54110 0.09500
H 	H 	0.93166 0.71620 0.52829 0.09500
H 	H 	0.67446 0.45297 0.39954 0.09100
H 	H 	0.67076 0.51672 0.39118 0.09500
C 	C 	0.89944 0.02341 0.46697 -0.05200
C 	C 	0.89589 0.04468 0.43168 0.10500
C 	C 	0.86942 0.07808 0.42888 -0.08400
C 	C 	0.84537 0.08938 0.46033 -0.00700
C 	C 	0.84471 0.06412 0.49456 0.07300
C 	C 	0.87196 0.03141 0.49753 -0.05100
N 	N 	0.91710 0.03260 0.40033 -0.19900
H 	H 	0.86827 0.09605 0.40231 0.06200
C 	C 	0.82339 0.12985 0.45768 0.00700
N 	N 	0.81872 0.07164 0.52474 -0.19400
H 	H 	0.87360 0.01391 0.52422 0.04800
C 	C 	0.75906 0.10151 0.44082 -0.09900
C 	C 	0.73550 0.13770 0.43991 0.13900
C 	C 	0.77675 0.20305 0.45735 -0.11300
C 	C 	0.84200 0.23208 0.47221 -0.02100
C 	C 	0.86588 0.19614 0.47252 0.06100
H 	H 	0.72716 0.05108 0.42848 0.06400
N 	N 	0.67390 0.10985 0.42153 -0.20300
H 	H 	0.87385 0.28241 0.48482 0.04400
N 	N 	0.92929 0.22540 0.48742 -0.19100
H 	H 	0.64315 0.06118 0.40982 0.09900
H 	H 	0.65677 0.13653 0.41725 0.11300
H 	H 	0.96003 0.27418 0.49879 0.09000
H 	H 	0.94894 0.20040 0.48750 0.09300
H 	H 	0.81944 0.05373 0.55014 0.08800
H 	H 	0.79680 0.09442 0.52317 0.09000
H 	H 	0.93259 0.00392 0.40043 0.09500
H 	H 	0.91619 0.05018 0.37482 0.09200
C 	C 	0.44198 0.23757 0.47556 -0.10100
C 	C 	0.41137 0.18270 0.49294 0.13500
C 	C 	0.34677 0.15183 0.49706 -0.09300
C 	C 	0.31199 0.17380 0.48329 0.00700
C 	C 	0.34328 0.22999 0.46732 0.06300
C 	C 	0.40796 0.26110 0.46340 -0.01700
N 	N 	0.44301 0.15846 0.50474 -0.19800
H 	H 	0.32274 0.10918 0.50972 0.06500
C 	C 	0.24172 0.13481 0.48293 -0.00600
N 	N 	0.31149 0.25405 0.45554 -0.19100
H 	H 	0.43191 0.30376 0.45074 0.04800
C 	C 	0.21976 0.14356 0.51639 -0.08400
C 	C 	0.15346 0.10652 0.51739 0.10400
C 	C 	0.10857 0.06007 0.48413 -0.04800
C 	C 	0.13053 0.05169 0.45060 -0.05200
C 	C 	0.19674 0.08846 0.44964 0.07400
H 	H 	0.25441 0.17913 0.54179 0.06400
N 	N 	0.13342 0.11535 0.55041 -0.19900
H 	H 	0.09590 0.01603 0.42520 0.05000
N 	N 	0.21674 0.07892 0.41679 -0.19400
H 	H 	0.16700 0.14987 0.57477 0.09400
H 	H 	0.08461 0.08806 0.55239 0.09600
H 	H 	0.18308 0.04467 0.39237 0.08900
H 	H 	0.26561 0.10506 0.41509 0.09400
H 	H 	0.33463 0.29486 0.44305 0.09100
H 	H 	0.26405 0.23332 0.45925 0.09300
H 	H 	0.48993 0.17819 0.50036 0.08000
H 	H 	0.42021 0.11852 0.51806 0.09600
C 	C 	0.76512 0.53679 0.99734 -0.10600
C 	C 	0.81760 0.56520 0.97709 0.13600
C 	C 	0.85129 0.62970 0.97476 -0.09400
C 	C 	0.83557 0.66683 0.99385 0.00400
C 	C 	0.78471 0.63904 0.01535 0.06600
C 	C 	0.74987 0.57415 0.01677 -0.01400
N 	N 	0.83702 0.53142 0.96087 -0.19800
H 	H 	0.89074 0.65143 0.95867 0.06600
C 	C 	0.87227 0.73460 0.99072 -0.00900
N 	N 	0.76894 0.67422 0.03450 -0.19100
H 	H 	0.70991 0.55238 0.03246 0.04800
C 	C 	0.85063 0.75146 0.95951 -0.08300
C 	C 	0.88253 0.81547 0.95641 0.10600
C 	C 	0.93594 0.86340 0.98583 -0.05200
C 	C 	0.95887 0.84647 0.01633 -0.04900
C 	C 	0.92768 0.78239 0.01905 0.07800
H 	H 	0.80883 0.71458 0.93752 0.06400
N 	N 	0.86255 0.83047 0.92479 -0.19900
H 	H 	0.00047 0.88335 0.03845 0.05400
N 	N 	0.95074 0.76714 0.04901 -0.19400
H 	H 	0.82174 0.79486 0.90394 0.09400
H 	H 	0.88847 0.87703 0.91978 0.09700
H 	H 	0.99129 0.80284 0.06998 0.09200
H 	H 	0.92914 0.71996 0.05170 0.09500
H 	H 	0.73117 0.65314 0.05019 0.09100
H 	H 	0.79393 0.72266 0.03419 0.09400
H 	H 	0.81785 0.48560 0.96571 0.07700
H 	H 	0.87392 0.55203 0.94451 0.09800
C 	C 	0.92095 0.04043 0.99239 -0.05100
C 	C 	0.94420 0.09790 0.01763 0.10600
C 	C 	0.90771 0.12145 0.01585 -0.08000
C 	C 	0.84590 0.08566 0.99237 -0.01000
C 	C 	0.82040 0.02565 0.96976 0.07300
C 	C 	0.85904 0.00465 0.96899 -0.05500
N 	N 	0.99972 0.12904 0.04469 -0.20000
H 	H 	0.92672 0.16697 0.03362 0.06100
C 	C 	0.81032 0.11354 0.98936 0.00100
N 	N 	0.75877 0.98776 0.94911 -0.19300
H 	H 	0.84064 0.96001 0.95027 0.05400
C 	C 	0.80652 0.13609 0.95516 -0.09400
C 	C 	0.77096 0.16023 0.95038 0.12400
C 	C 	0.74418 0.16785 0.98203 -0.11200
C 	C 	0.74756 0.14497 0.01620 -0.01300
C 	C 	0.77928 0.11659 0.01989 0.06900
H 	H 	0.82923 0.13253 0.93154 0.06000
N 	N 	0.76049 0.17354 0.91494 -0.20000
H 	H 	0.72613 0.14990 0.04017 0.06500
N 	N 	0.77926 0.09202 0.05252 -0.19200
H 	H 	0.78332 0.17112 0.89244 0.08800
H 	H 	0.72655 0.18224 0.90853 0.05600
H 	H 	0.75737 0.09570 0.07521 0.10100
H 	H 	0.79948 0.06779 0.05536 0.09600
H 	H 	0.74107 0.94446 0.93146 0.09000
H 	H 	0.72712 0.99963 0.95145 0.09500
H 	H 	0.02232 0.10792 0.05128 0.09700
H 	H 	0.01839 0.17324 0.06149 0.09300
C 	C 	0.12624 0.07581 0.98018 -0.05200
C 	C 	0.17292 0.08796 0.01170 0.10800
C 	C 	0.23703 0.11818 0.00677 -0.07900
C 	C 	0.25588 0.13913 0.97169 -0.01000
C 	C 	0.21007 0.13077 0.94108 0.07500
C 	C 	0.14542 0.09871 0.94559 -0.05100
N 	N 	0.15666 0.07155 0.04686 -0.19900
H 	H 	0.27260 0.12608 0.03049 0.06500
C 	C 	0.32401 0.17043 0.96769 0.00800
N 	N 	0.22775 0.15340 0.90748 -0.19400
H 	H 	0.10967 0.09014 0.92172 0.05200
C 	C 	0.34081 0.13437 0.94835 -0.09500
C 	C 	0.40591 0.16041 0.94825 0.13500
C 	C 	0.45492 0.22184 0.97041 -0.10100
C 	C 	0.43791 0.25898 0.98796 -0.02100
C 	C 	0.37288 0.23426 0.98614 0.06100
H 	H 	0.30312 0.08608 0.93318 0.06400
N 	N 	0.42085 0.12737 0.92571 -0.20100
H 	H 	0.47539 0.30677 0.00396 0.04800
N 	N 	0.35769 0.27195 0.00218 -0.18700
H 	H 	0.38461 0.08083 0.91105 0.09700
H 	H 	0.46769 0.14882 0.92051 0.09600
H 	H 	0.39411 0.31848 0.01679 0.09100
H 	H 	0.30990 0.25627 0.99927 0.09000
H 	H 	0.19340 0.14626 0.88488 0.09100
H 	H 	0.27567 0.17906 0.90365 0.09500
H 	H 	0.11080 0.05398 0.05257 0.09500
H 	H 	0.19088 0.07864 0.06954 0.09400
