data_crystal

_cell_length_a 15.07954
_cell_length_b 15.22431
_cell_length_c 53.97802
_cell_angle_alpha 90.19946
_cell_angle_beta  90.21399
_cell_angle_gamma 119.33801

_symmetry_space_group_name_	'P 1'
_symmetry_space_group_name_H-M	'P 1'

loop_
_symmetry_equiv_pos_as_xyz
  x,y,z

loop_
_atom_site_label
_atom_site_type_symbol
_atom_site_fract_x
_atom_site_fract_y
_atom_site_fract_z
_atom_site_charge
C 	C 	0.33359 0.84166 0.10254 0.29700
C 	C 	0.17737 0.48092 0.16859 0.30900
C 	C 	0.31177 0.81660 0.17165 0.31400
C 	C 	0.17473 0.48284 0.09988 0.29800
C 	C 	0.50655 0.68037 0.17349 0.31400
C 	C 	0.52213 0.68097 0.10272 0.29000
Ni	Ni	0.20775 0.65124 0.13467 1.11600
Ni	Ni	0.35425 0.55083 0.13589 1.12200
Ni	Ni	0.45257 0.78979 0.13773 1.12200
O 	O 	0.25189 0.78976 0.11677 -0.36800
O 	O 	0.41976 0.83934 0.10616 -0.37900
O 	O 	0.48340 0.61034 0.15643 -0.38500
O 	O 	0.13233 0.51263 0.15288 -0.36800
O 	O 	0.27612 0.51707 0.16800 -0.38900
O 	O 	0.54896 0.75227 0.12009 -0.38000
O 	O 	0.24320 0.72159 0.16898 -0.37900
O 	O 	0.38614 0.86086 0.15562 -0.38400
O 	O 	0.44304 0.58905 0.10572 -0.37700
O 	O 	0.16852 0.56658 0.10227 -0.36400
O 	O 	0.22351 0.45691 0.11653 -0.37900
O 	O 	0.47812 0.74869 0.17103 -0.39200
O 	O 	0.33653 0.66422 0.13026 -0.72100
H 	H 	0.33992 0.66591 0.11205 0.16400
C 	C 	0.16116 0.95918 0.24889 0.27200
C 	C 	0.04000 0.18884 0.24494 0.31400
Ni	Ni	0.13530 0.11270 0.28199 1.11300
O 	O 	0.20521 0.03881 0.26414 -0.36100
O 	O 	0.06774 0.88344 0.25265 -0.37500
O 	O 	0.11891 0.17527 0.24948 -0.38000
C 	C 	0.14167 0.44057 0.21290 -0.04300
C 	C 	0.11792 0.40918 0.18820 -0.09000
C 	C 	0.05248 0.30577 0.18276 0.10600
C 	C 	0.02010 0.23504 0.20208 -0.02000
C 	C 	0.05353 0.26567 0.22647 -0.09600
C 	C 	0.11302 0.36993 0.23205 0.11400
N 	N 	0.14586 0.40247 0.25555 -0.20300
H 	H 	0.18921 0.52012 0.21708 0.05000
N 	N 	0.02226 0.27361 0.15909 -0.19200
H 	H 	0.18820 0.47951 0.25952 0.08500
H 	H 	0.13168 0.35214 0.26995 0.10400
H 	H 	0.04185 0.32415 0.14444 0.11100
N 	N 	0.46017 0.65427 0.22566 -0.20100
H 	H 	0.44359 0.65736 0.24433 0.08300
H 	H 	0.39948 0.61639 0.21330 0.10100
C 	C 	0.30292 0.84571 0.21632 -0.03600
C 	C 	0.30067 0.87550 0.19191 -0.10100
C 	C 	0.26939 0.94795 0.18718 0.12100
C 	C 	0.23345 0.98261 0.20683 -0.07300
C 	C 	0.22476 0.94364 0.23071 -0.07600
C 	C 	0.26264 0.87668 0.23570 0.10200
N 	N 	0.25758 0.83937 0.25884 -0.20100
H 	H 	0.32956 0.79246 0.21999 0.04900
H 	H 	0.20638 0.03552 0.20317 0.06400
N 	N 	0.27081 0.98230 0.16386 -0.21300
H 	H 	0.28612 0.79036 0.26234 0.08600
H 	H 	0.22491 0.85788 0.27350 0.10500
H 	H 	0.29793 0.95937 0.14884 0.10900
H 	H 	0.24552 0.03405 0.16056 0.10300
H 	H 	0.03852 0.51434 0.30025 0.09000
H 	H 	0.33749 0.05262 0.29256 0.10100
H 	H 	0.41857 0.99791 0.29532 0.07900
C 	C 	0.01626 0.39861 0.07322 0.06900
C 	C 	0.10995 0.40717 0.08101 -0.09000
C 	C 	0.14171 0.34226 0.07071 0.02700
C 	C 	0.08503 0.27500 0.05163 -0.05600
C 	C 	0.11385 0.20299 0.04276 0.10600
N 	N 	0.13713 0.14551 0.03561 -0.10800
H 	H 	0.21076 0.34460 0.07740 0.04000
C 	C 	0.33631 0.08531 0.02070 0.00900
C 	C 	0.38021 0.19093 0.02108 -0.04300
C 	C 	0.33128 0.03189 0.04419 0.06100
C 	C 	0.42161 0.05865 0.05727 -0.07600
C 	C 	0.42169 0.00239 0.07771 0.05800
C 	C 	0.33189 0.91279 0.08400 -0.10400
C 	C 	0.24019 0.88966 0.07191 0.02900
C 	C 	0.23894 0.95074 0.05265 -0.07000
C 	C 	0.51214 0.04081 0.09298 0.07600
C 	C 	0.14291 0.92940 0.04168 0.10800
C 	C 	0.47958 0.35541 0.00088 0.08000
N 	N 	0.58463 0.07176 0.10520 -0.11000
N 	N 	0.06590 0.91197 0.03286 -0.11100
N 	N 	0.52503 0.44247 0.00203 -0.10800
H 	H 	0.38932 0.22984 0.03857 0.05300
H 	H 	0.49215 0.12334 0.05147 0.06300
H 	H 	0.17009 0.82348 0.07726 0.04700
C 	C 	0.56382 0.67429 0.05809 0.02600
C 	C 	0.46166 0.64913 0.05084 0.07800
N 	N 	0.37980 0.62891 0.04508 -0.10400
H 	H 	0.47222 0.56025 0.29642 0.08500
H 	H 	0.60611 0.65710 0.02104 0.06200
C 	C 	0.59556 0.69579 0.08303 -0.07700
C 	C 	0.58169 0.69487 0.19273 -0.09800
C 	C 	0.63154 0.67657 0.04010 -0.05700
C 	C 	0.55831 0.69461 0.21806 0.11200
C 	C 	0.68226 0.72608 0.18569 -0.03900
H 	H 	0.69955 0.72295 0.16632 0.05100
C 	C 	0.63758 0.73710 0.23554 -0.04500
C 	C 	0.69667 0.72488 0.08941 0.01200
H 	H 	0.62048 0.74276 0.25477 0.04900
H 	H 	0.64739 0.68823 0.29563 0.05200
H 	H 	0.72172 0.74289 0.10854 0.04000
C 	C 	0.73058 0.69901 0.04675 0.02400
H 	H 	0.76880 0.54333 0.04643 0.05700
C 	C 	0.76412 0.72611 0.07143 -0.04300
C 	C 	0.76158 0.76792 0.20323 0.10300
C 	C 	0.73917 0.77818 0.22811 -0.08800
C 	C 	0.79299 0.58785 0.02965 -0.05300
C 	C 	0.79741 0.44667 0.00875 0.07100
N 	N 	0.78524 0.36555 0.00920 -0.11200
C 	C 	0.79247 0.67957 0.02859 0.02500
C 	C 	0.81187 0.54764 0.00823 0.02500
H 	H 	0.87519 0.79406 0.17744 0.08500
C 	C 	0.83092 0.74024 0.00738 -0.03900
N 	N 	0.85884 0.79918 0.19601 -0.20100
C 	C 	0.86684 0.75313 0.07855 0.09000
C 	C 	0.81970 0.84486 0.24540 0.29300
H 	H 	0.80600 0.12961 0.03281 0.05400
C 	C 	0.84187 0.83992 0.00676 0.09400
N 	N 	0.85063 0.91979 0.00628 -0.12000
O 	O 	0.85162 0.80268 0.26240 -0.38500
O 	O 	0.83764 0.93919 0.24753 -0.39700
H 	H 	0.91860 0.82618 0.20884 0.09000
C 	C 	0.84804 0.16438 0.01607 -0.03500
Ni	Ni	0.89114 0.01978 0.27882 1.12300
H 	H 	0.89583 0.33535 0.04611 0.07200
N 	N 	0.94908 0.77466 0.08427 -0.12100
N 	N 	0.93226 0.48670 0.09742 -0.11100
C 	C 	0.95406 0.22798 0.01741 -0.01200
C 	C 	0.96425 0.33699 0.05300 -0.10500
Ni	Ni	0.98363 0.87158 0.28275 1.10900
C 	C 	0.96972 0.44759 0.08668 0.05500
O 	O 	0.96130 0.15583 0.26045 -0.39400
H 	H 	0.00617 0.34366 0.29713 0.05700
C 	C 	0.00025 0.27801 0.04143 0.06800
H 	H 	0.01037 0.00152 0.25740 0.16300
O 	O 	0.00703 0.00304 0.27561 -0.70700
H 	H 	0.97638 0.19688 0.15520 0.08200
H 	H 	0.97289 0.15549 0.19790 0.03400
O 	O 	0.09564 0.21049 0.30004 -0.37700
O 	O 	0.11259 0.90394 0.30285 -0.37400
N 	N 	0.36057 0.00894 0.30258 -0.18400
O 	O 	0.79172 0.89435 0.29738 -0.38900
C 	C 	0.01449 0.18126 0.31400 0.32200
C 	C 	0.16206 0.98149 0.31800 0.28900
O 	O 	0.15112 0.06119 0.31619 -0.36700
H 	H 	0.40502 0.51391 0.32500 0.09900
C 	C 	0.01089 0.34216 0.31713 -0.05400
N 	N 	0.04122 0.51167 0.31958 -0.20300
H 	H 	0.05137 0.57442 0.32979 0.10100
C 	C 	0.32561 0.97797 0.32581 0.09400
N 	N 	0.47137 0.56413 0.31575 -0.20100
C 	C 	0.55600 0.63041 0.32850 0.11100
C 	C 	0.64626 0.69273 0.31566 -0.04200
C 	C 	0.81617 0.84652 0.31410 0.30900
O 	O 	0.90720 0.85474 0.31428 -0.40100
O 	O 	0.93718 0.08996 0.31194 -0.40000
C 	C 	0.00350 0.25677 0.32889 -0.06900
C 	C 	0.02846 0.42718 0.33113 0.12600
C 	C 	0.24083 0.98404 0.33496 -0.08800
H 	H 	0.43505 0.92937 0.33428 0.04700
C 	C 	0.73330 0.76480 0.32841 -0.09500
C 	C 	0.37879 0.94684 0.34174 -0.03400
C 	C 	0.55350 0.63961 0.35447 -0.09400
C 	C 	0.73458 0.76392 0.35465 0.10800
C 	C 	0.03783 0.42555 0.35709 -0.11200
C 	C 	0.45873 0.62224 0.36655 0.31200
O 	O 	0.44884 0.70045 0.37168 -0.39500
C 	C 	0.99284 0.24881 0.35499 0.06600
C 	C 	0.22796 0.98500 0.36062 -0.04600
C 	C 	0.35320 0.92996 0.36685 -0.09800
C 	C 	0.64543 0.69741 0.36738 -0.04600
H 	H 	0.97117 0.10158 0.35754 0.10100
H 	H 	0.88501 0.88223 0.35900 0.09600
N 	N 	0.81892 0.82905 0.36775 -0.20200
H 	H 	0.16951 0.99938 0.36803 0.04900
C 	C 	0.35341 0.84317 0.37858 0.31400
C 	C 	0.11819 0.51509 0.36962 0.31900
O 	O 	0.27044 0.75675 0.37728 -0.38000
O 	O 	0.42710 0.85570 0.39393 -0.37100
O 	O 	0.21070 0.53025 0.36831 -0.39000
O 	O 	0.39820 0.53485 0.37707 -0.37200
C 	C 	0.00385 0.33228 0.36871 0.00400
N 	N 	0.97617 0.16366 0.36702 -0.19500
C 	C 	0.28919 0.96470 0.37672 0.11000
H 	H 	0.64490 0.69956 0.38745 0.04800
H 	H 	0.81867 0.82760 0.38710 0.08300
O 	O 	0.09492 0.56032 0.38714 -0.36100
H 	H 	0.99937 0.32809 0.38872 0.04000
H 	H 	0.96867 0.15914 0.38628 0.08900
N 	N 	0.28439 0.97569 0.40155 -0.20400
Ni	Ni	0.44555 0.73822 0.40677 1.12100
Ni	Ni	0.27578 0.50838 0.39843 1.12100
H 	H 	0.23260 0.99541 0.40899 0.08900
H 	H 	0.33681 0.97126 0.41345 0.11000
N 	N 	0.47607 0.34487 0.42414 -0.10300
Ni	Ni	0.20719 0.67667 0.40896 1.11500
O 	O 	0.49466 0.64521 0.42176 -0.37700
O 	O 	0.30771 0.63765 0.41109 -0.71100
N 	N 	0.85090 0.35535 0.41961 -0.10700
C 	C 	0.43624 0.56347 0.43534 0.28800
O 	O 	0.14253 0.44688 0.41891 -0.36500
O 	O 	0.34942 0.48978 0.42658 -0.38200
O 	O 	0.29548 0.80022 0.43281 -0.37000
O 	O 	0.43979 0.78689 0.44075 -0.38700
H 	H 	0.30794 0.62597 0.42899 0.15700
N 	N 	0.56904 0.06687 0.43555 -0.10400
C 	C 	0.47002 0.38972 0.44079 0.08500
C 	C 	0.90018 0.37902 0.43745 0.08500
C 	C 	0.12572 0.48966 0.43884 0.28100
C 	C 	0.36803 0.80659 0.44824 0.29000
O 	O 	0.13861 0.58188 0.43801 -0.37000
C 	C 	0.53155 0.01558 0.45247 0.10100
C 	C 	0.47578 0.54316 0.45828 -0.07700
C 	C 	0.46246 0.44572 0.46157 0.03000
C 	C 	0.48465 0.95151 0.47359 0.02000
C 	C 	0.38915 0.86440 0.47126 -0.08000
C 	C 	0.96162 0.40859 0.45971 0.00400
C 	C 	0.06237 0.42686 0.45907 -0.05100
C 	C 	0.48812 0.60269 0.47934 0.00300
H 	H 	0.50035 0.67864 0.47715 0.04100
C 	C 	0.43542 0.40019 0.48475 -0.05600
H 	H 	0.41259 0.32093 0.48656 0.06300
H 	H 	0.85638 0.43797 0.48013 0.05800
C 	C 	0.92685 0.43518 0.48090 -0.04100
C 	C 	0.53833 0.97156 0.49582 -0.08600
C 	C 	0.33803 0.81396 0.49285 0.00900
H 	H 	0.26397 0.74687 0.49139 0.03600
C 	C 	0.11127 0.43319 0.48175 -0.00700
H 	H 	0.18573 0.43854 0.48180 0.04100
H 	H 	0.61662 0.03189 0.49673 0.08200
C 	C 	0.44767 0.45848 0.50601 0.02100
C 	C 	0.47681 0.56163 0.50323 -0.03900
N 	N 	0.64972 0.39743 0.50303 -0.11500
N 	N 	0.46641 0.15103 0.51405 -0.10900
C 	C 	0.48745 0.92490 0.51770 0.04000
C 	C 	0.38599 0.84511 0.51615 -0.04600
C 	C 	0.07188 0.44880 0.50392 -0.01500
C 	C 	0.44821 0.41526 0.53078 0.02500
C 	C 	0.50580 0.12064 0.52719 0.09000
C 	C 	0.58832 0.38560 0.51745 0.09300
N 	N 	0.73960 0.23381 0.51143 -0.11600
C 	C 	0.98216 0.45663 0.50325 -0.00200
C 	C 	0.78274 0.31105 0.52138 0.09500
C 	C 	0.49447 0.62536 0.52462 0.08900
C 	C 	0.51045 0.37172 0.53501 -0.03800
C 	C 	0.93905 0.47578 0.52627 0.03200
C 	C 	0.33153 0.79376 0.53818 0.09200
C 	C 	0.12392 0.45730 0.52706 0.08600
H 	H 	0.07265 0.61833 0.53494 0.06900
C 	C 	0.38193 0.41109 0.54960 -0.05600
H 	H 	0.33022 0.44000 0.54622 0.06400
N 	N 	0.50853 0.67623 0.54181 -0.11700
C 	C 	0.52982 0.97949 0.54138 -0.01600
C 	C 	0.55384 0.08062 0.54337 0.00100
C 	C 	0.83854 0.40837 0.53332 -0.04200
C 	C 	0.50170 0.32082 0.55714 0.01400
H 	H 	0.54570 0.28355 0.55985 0.03100
C 	C 	0.99697 0.56284 0.54080 -0.07100
N 	N 	0.28790 0.75253 0.55584 -0.11100
N 	N 	0.16519 0.46432 0.54568 -0.10900
C 	C 	0.38625 0.37376 0.57319 0.03000
H 	H 	0.54550 0.86001 0.55880 0.05800
C 	C 	0.56133 0.93729 0.56031 -0.03600
C 	C 	0.62105 0.14127 0.56176 -0.00600
H 	H 	0.64780 0.22079 0.56180 0.03500
H 	H 	0.71703 0.38431 0.55787 0.02800
C 	C 	0.79601 0.43198 0.55352 0.01300
C 	C 	0.45269 0.33467 0.57742 -0.07600
C 	C 	0.85892 0.50446 0.57082 -0.07800
C 	C 	0.95874 0.57519 0.56360 0.02000
C 	C 	0.32554 0.37930 0.59309 0.08500
C 	C 	0.61107 0.99506 0.58156 -0.01100
C 	C 	0.63689 0.09763 0.58272 -0.04300
C 	C 	0.02311 0.65822 0.57972 0.09400
C 	C 	0.50450 0.35133 0.60152 0.28800
N 	N 	0.27690 0.38373 0.60907 -0.10600
C 	C 	0.63362 0.94859 0.60209 0.08200
O 	O 	0.58820 0.43876 0.60499 -0.38200
O 	O 	0.55271 0.15023 0.61149 -0.37100
N 	N 	0.07486 0.72489 0.59263 -0.11000
C 	C 	0.63546 0.14397 0.60643 0.28200
C 	C 	0.83655 0.47677 0.59710 0.28300
O 	O 	0.84896 0.40141 0.60515 -0.36800
O 	O 	0.46435 0.28265 0.61960 -0.37100
H 	H 	0.66596 0.32972 0.61198 0.15600
N 	N 	0.65170 0.91134 0.61855 -0.12000
O 	O 	0.71660 0.18171 0.62162 -0.35800
O 	O 	0.80834 0.52864 0.61232 -0.37100
Ni	Ni	0.67870 0.46623 0.63418 1.12000
O 	O 	0.67055 0.33772 0.63016 -0.71300
Ni	Ni	0.54288 0.22843 0.64011 1.12200
Ni	Ni	0.78759 0.32816 0.63782 1.11300
H 	H 	0.95977 0.67984 0.63863 0.10700
H 	H 	0.32454 0.30247 0.66188 0.06000
H 	H 	0.15719 0.16489 0.66780 0.09500
O 	O 	0.55558 0.43590 0.65554 -0.37500
H 	H 	0.98257 0.80304 0.64740 0.08600
H 	H 	0.72487 0.05144 0.66314 0.06500
H 	H 	0.85333 0.00428 0.66700 0.09800
N 	N 	0.96395 0.72982 0.65248 -0.20400
O 	O 	0.58838 0.14395 0.66032 -0.36800
O 	O 	0.88519 0.46933 0.65376 -0.36800
C 	C 	0.52177 0.36615 0.67284 0.31700
C 	C 	0.34091 0.29837 0.68130 -0.04700
N 	N 	0.17561 0.15498 0.68588 -0.20100
O 	O 	0.54381 0.29390 0.67200 -0.39800
C 	C 	0.66451 0.18415 0.67614 0.31500
O 	O 	0.75632 0.49520 0.66623 -0.39300
O 	O 	0.73717 0.27598 0.67295 -0.38200
C 	C 	0.73340 0.07013 0.68273 -0.04700
C 	C 	0.85185 0.51976 0.66693 0.31600
N 	N 	0.86779 0.03020 0.68532 -0.20100
C 	C 	0.95153 0.70247 0.67669 0.10600
C 	C 	0.44135 0.35446 0.68988 -0.09600
C 	C 	0.26658 0.22234 0.69613 0.11500
H 	H 	0.12490 0.08948 0.69517 0.10800
C 	C 	0.68413 0.11977 0.69269 -0.09200
H 	H 	0.98500 0.84958 0.68996 0.04200
C 	C 	0.80724 0.06109 0.69667 0.12200
C 	C 	0.92033 0.60198 0.68347 -0.09700
H 	H 	0.93280 0.03686 0.69397 0.10600
C 	C 	0.46029 0.35585 0.71554 0.11100
C 	C 	0.28990 0.21342 0.72119 -0.09500
H 	H 	0.60814 0.47880 0.71412 0.10000
C 	C 	0.68960 0.13793 0.71842 0.11100
C 	C 	0.82171 0.09052 0.72197 -0.10700
C 	C 	0.96759 0.77404 0.69514 -0.04100
C 	C 	0.20961 0.14475 0.73825 0.31100
O 	O 	0.12752 0.15263 0.74024 -0.39100
C 	C 	0.38538 0.28323 0.73093 -0.04300
N 	N 	0.55246 0.42295 0.72518 -0.20000
H 	H 	0.57472 0.17783 0.71891 0.10300
C 	C 	0.75940 0.12439 0.73287 -0.03500
H 	H 	0.90576 0.50349 0.71361 0.05000
C 	C 	0.92504 0.57955 0.70843 -0.04000
C 	C 	0.89356 0.07652 0.73776 0.34200
C 	C 	0.96016 0.74819 0.72023 -0.09900
O 	O 	0.05800 0.90752 0.74072 -0.39700
N 	N 	0.63020 0.17141 0.72916 -0.20000
O 	O 	0.88587 0.98741 0.73869 -0.41700
C 	C 	0.94738 0.65279 0.72693 0.10600
C 	C 	0.97186 0.82341 0.73911 0.30500
O 	O 	0.22817 0.08944 0.75411 -0.37000
H 	H 	0.40113 0.28180 0.75050 0.05100
H 	H 	0.56830 0.42137 0.74399 0.08500
H 	H 	0.63703 0.18858 0.74808 0.08800
H 	H 	0.76543 0.14047 0.75258 0.05300
O 	O 	0.89497 0.80741 0.75348 -0.37700
O 	O 	0.94650 0.14480 0.75477 -0.38600
Ni	Ni	0.06890 0.15258 0.77318 1.12500
Ni	Ni	0.11858 0.97208 0.77365 1.10600
H 	H 	0.94382 0.55975 0.75579 0.08500
N 	N 	0.95968 0.63224 0.75077 -0.20300
Ni	Ni	0.88381 0.92269 0.77227 1.10300
O 	O 	0.02070 0.01375 0.77909 -0.70100
H 	H 	0.99146 0.68917 0.76411 0.09500
O 	O 	0.20173 0.19511 0.79215 -0.38100
H 	H 	0.41174 0.27909 0.80575 0.05100
H 	H 	0.02022 0.01357 0.79733 0.16100
O 	O 	0.02866 0.83979 0.79270 -0.37900
H 	H 	0.84092 0.65331 0.78725 0.10200
H 	H 	0.80615 0.19892 0.80280 0.05000
O 	O 	0.84091 0.01785 0.79120 -0.35700
C 	C 	0.21590 0.13937 0.80910 0.29200
O 	O 	0.19022 0.04410 0.80468 -0.37500
H 	H 	0.58514 0.35295 0.81841 0.08100
O 	O 	0.99556 0.15224 0.80421 -0.38600
H 	H 	0.74671 0.53992 0.80150 0.08100
N 	N 	0.80910 0.61235 0.80333 -0.20100
H 	H 	0.77943 0.33357 0.81623 0.08300
O 	O 	0.88479 0.84925 0.80410 -0.38800
C 	C 	0.89780 0.08829 0.80794 0.29300
C 	C 	0.46375 0.27414 0.84269 0.11300
C 	C 	0.38901 0.25334 0.82457 -0.04300
C 	C 	0.28596 0.19008 0.82982 -0.08700
N 	N 	0.56356 0.32369 0.83623 -0.20000
H 	H 	0.62008 0.32935 0.84837 0.10200
H 	H 	0.80136 0.37642 0.84779 0.09800
N 	N 	0.79377 0.32275 0.83461 -0.20200
C 	C 	0.84769 0.65089 0.82612 0.10500
C 	C 	0.80850 0.24426 0.84076 0.11400
C 	C 	0.81552 0.18407 0.82200 -0.04300
C 	C 	0.84748 0.11400 0.82750 -0.08400
C 	C 	0.93171 0.74934 0.82879 -0.08600
C 	C 	0.95491 0.82328 0.80894 0.27900
C 	C 	0.25596 0.15641 0.85433 0.11000
H 	H 	0.09882 0.08913 0.84741 0.09600
H 	H 	0.03633 0.86052 0.85458 0.04500
H 	H 	0.73797 0.51777 0.84511 0.04700
C 	C 	0.80232 0.59294 0.84721 -0.04000
C 	C 	0.85958 0.09431 0.85249 0.10500
C 	C 	0.97268 0.78481 0.85247 -0.05900
H 	H 	0.88504 0.97311 0.84481 0.06900
C 	C 	0.43404 0.23857 0.86714 -0.09400
N 	N 	0.15579 0.10178 0.86029 -0.19900
C 	C 	0.82226 0.22587 0.86574 -0.09800
C 	C 	0.84787 0.15124 0.87141 -0.03700
N 	N 	0.88235 0.02079 0.85839 -0.18600
C 	C 	0.50930 0.27309 0.88745 0.31300
C 	C 	0.33043 0.18021 0.87274 -0.03900
H 	H 	0.13395 0.07386 0.87820 0.09200
O 	O 	0.56809 0.36989 0.89089 -0.38200
O 	O 	0.69292 0.23730 0.88847 -0.39600
C 	C 	0.80350 0.55857 0.89171 0.31100
C 	C 	0.79011 0.26881 0.88585 0.31500
O 	O 	0.82791 0.48734 0.89251 -0.39600
C 	C 	0.84064 0.62969 0.87092 -0.09800
H 	H 	0.85569 0.13533 0.89062 0.05400
C 	C 	0.92707 0.72651 0.87365 0.11000
H 	H 	0.89498 0.00891 0.87682 0.09200
O 	O 	0.50468 0.20871 0.90429 -0.37800
H 	H 	0.30753 0.15526 0.89160 0.05700
H 	H 	0.03033 0.83542 0.89830 0.08700
O 	O 	0.73726 0.55963 0.90741 -0.37000
O 	O 	0.85604 0.32473 0.90310 -0.38600
H 	H 	0.93061 0.72547 0.91260 0.09900
N 	N 	0.96559 0.76458 0.89648 -0.20700
Ni	Ni	0.62627 0.43038 0.92536 1.11500
Ni	Ni	0.63000 0.21978 0.92183 1.12300
Ni	Ni	0.83927 0.42549 0.92443 1.12100
O 	O 	0.69703 0.35891 0.92979 -0.72100
O 	O 	0.73645 0.19424 0.93918 -0.37100
O 	O 	0.49768 0.31535 0.94364 -0.35600
H 	H 	0.34289 0.05250 0.95826 0.05000
O 	O 	0.55137 0.19923 0.95331 -0.37000
H 	H 	0.69659 0.35511 0.94800 0.16200
O 	O 	0.85645 0.54683 0.94522 -0.37600
C 	C 	0.49637 0.24368 0.95824 0.28600
O 	O 	0.69397 0.50728 0.95767 -0.36600
C 	C 	0.79185 0.54292 0.96261 0.28900
C 	C 	0.80567 0.25461 0.95584 0.29200
O 	O 	0.85201 0.35434 0.95409 -0.38200
H 	H 	0.99748 0.28496 0.95600 0.04400
C 	C 	0.41632 0.19612 0.97706 -0.06300
C 	C 	0.35337 0.09126 0.97585 0.00300
H 	H 	0.87445 0.74447 0.96919 0.03700
C 	C 	0.84987 0.21173 0.97308 -0.06200
C 	C 	0.95564 0.25154 0.97286 -0.00700
C 	C 	0.11827 0.32600 0.99527 0.08800
N 	N 	0.20602 0.37487 0.99536 -0.10700
C 	C 	0.31885 0.03510 0.99762 0.00000
C 	C 	0.42294 0.24675 0.99947 0.01800
C 	C 	0.27525 0.92691 0.99629 0.06400
N 	N 	0.24039 0.84027 0.99520 -0.10500
N 	N 	0.59728 0.06472 0.99405 -0.10200
C 	C 	0.68532 0.10642 0.99406 0.08500
C 	C 	0.83158 0.60040 0.98571 -0.07600
C 	C 	0.79519 0.15862 0.99412 0.01900
C 	C 	0.85288 0.70108 0.98617 0.01500
C 	C 	0.00872 0.26503 0.99512 -0.00200
