data_crystal

_cell_length_a 26.69277
_cell_length_b 28.94335
_cell_length_c 30.53617
_cell_angle_alpha 61.11201
_cell_angle_beta  118.54342
_cell_angle_gamma 133.20128

_symmetry_space_group_name_	'P 1'
_symmetry_space_group_name_H-M	'P 1'

loop_
_symmetry_equiv_pos_as_xyz
  x,y,z

loop_
_atom_site_label
_atom_site_type_symbol
_atom_site_fract_x
_atom_site_fract_y
_atom_site_fract_z
_atom_site_charge
C 	C 	0.75883 0.31193 0.03227 0.12800
N 	N 	0.68795 0.28139 0.02045 -0.13200
C 	C 	0.66290 0.30246 0.03055 0.13100
N 	N 	0.70861 0.35479 0.05101 -0.13500
C 	C 	0.77901 0.38489 0.06351 0.13100
N 	N 	0.80445 0.36379 0.05392 -0.13100
C 	C 	0.77383 0.36214 0.56174 0.13000
N 	N 	0.70488 0.30991 0.55817 -0.13200
C 	C 	0.65851 0.31172 0.56319 0.13100
N 	N 	0.68036 0.36677 0.56944 -0.13600
C 	C 	0.74921 0.41902 0.57366 0.12900
N 	N 	0.79656 0.41628 0.57084 -0.13100
C 	C 	0.22763 0.60687 0.25839 0.12800
N 	N 	0.28466 0.65372 0.23711 -0.13500
C 	C 	0.30767 0.63668 0.22040 0.12900
N 	N 	0.27295 0.57305 0.22414 -0.13600
C 	C 	0.21820 0.52574 0.24755 0.12900
N 	N 	0.19521 0.54254 0.26481 -0.13200
C 	C 	0.23737 0.63002 0.73499 0.12800
N 	N 	0.29752 0.67722 0.71728 -0.13200
C 	C 	0.32770 0.66042 0.70817 0.13000
N 	N 	0.29717 0.59659 0.71618 -0.13700
C 	C 	0.23989 0.54928 0.73682 0.12800
N 	N 	0.20928 0.56581 0.74590 -0.13400
Co	Co	0.10755 0.98380 0.17126 1.18900
Co	Co	0.03609 0.01923 0.20157 1.17700
C 	C 	0.17464 0.91497 0.21854 0.30900
Co	Co	0.10618 0.91881 0.10807 1.17200
C 	C 	0.05281 0.14501 0.17089 0.28600
O 	O 	0.12499 0.02863 0.21661 -0.46100
C 	C 	0.20481 0.06283 0.09733 0.29500
O 	O 	0.07818 0.11838 0.17115 -0.38300
O 	O 	0.16296 0.01679 0.07231 -0.38500
O 	O 	0.18129 0.06476 0.12596 -0.38400
O 	O 	0.02238 0.98764 0.27549 -0.37700
O 	O 	0.05832 0.93606 0.13023 -0.77300
C 	C 	0.79076 0.88966 0.17802 0.29700
O 	O 	0.80908 0.88354 0.14849 -0.36500
O 	O 	0.18757 0.93964 0.17322 -0.40300
O 	O 	0.14124 0.92680 0.22754 -0.38200
O 	O 	0.03069 0.89727 0.03977 -0.39100
Co	Co	0.07559 0.96113 0.67533 1.18800
Co	Co	0.04426 0.02334 0.71673 1.17700
C 	C 	0.03249 0.82399 0.70355 0.28200
Co	Co	0.03575 0.89029 0.59442 1.16600
O 	O 	0.04665 0.10338 0.76174 -0.41300
C 	C 	0.10808 0.13820 0.75182 0.30500
O 	O 	0.10590 0.99661 0.73347 -0.45500
C 	C 	0.18432 0.98692 0.64256 0.31700
O 	O 	0.12075 0.11469 0.73358 -0.38100
O 	O 	0.13789 0.92585 0.63933 -0.39900
O 	O 	0.17257 0.01055 0.66150 -0.39300
O 	O 	0.03039 0.94509 0.61663 -0.76300
C 	C 	0.81668 0.97168 0.64856 0.32000
O 	O 	0.99801 0.81454 0.65701 -0.37000
O 	O 	0.03953 0.86521 0.71766 -0.38200
O 	O 	0.07202 0.97082 0.53378 -0.37500
C 	C 	0.03693 0.97350 0.88015 -0.01800
C 	C 	0.05177 0.97137 0.93162 -0.01500
H 	H 	0.07893 0.99365 0.86440 0.04700
C 	C 	0.12138 0.99078 0.96347 0.09700
N 	N 	0.78339 0.86598 0.81887 -0.10200
N 	N 	0.17725 0.00614 0.98862 -0.12500
C 	C 	0.06899 0.01667 0.37737 -0.01300
C 	C 	0.07996 0.02173 0.42525 -0.00200
H 	H 	0.11346 0.03587 0.36528 0.05600
C 	C 	0.15136 0.05926 0.45443 0.09300
N 	N 	0.20862 0.08952 0.47769 -0.10400
C 	C 	0.18643 0.26353 0.81310 -0.04200
C 	C 	0.20269 0.31743 0.77004 0.02600
C 	C 	0.21068 0.31674 0.72812 -0.05800
C 	C 	0.19259 0.25938 0.72596 0.02800
C 	C 	0.16413 0.20201 0.76505 -0.08500
C 	C 	0.16975 0.20690 0.81103 0.01500
C 	C 	0.20605 0.37234 0.76691 0.01200
C 	C 	0.26290 0.41609 0.79804 -0.04100
C 	C 	0.26813 0.46938 0.79425 -0.00100
C 	C 	0.21884 0.48193 0.75646 -0.01600
C 	C 	0.15891 0.43533 0.72835 -0.01900
C 	C 	0.15186 0.38019 0.73381 -0.02600
C 	C 	0.32561 0.51242 0.82812 0.09000
C 	C 	0.08892 0.33182 0.70562 0.08500
C 	C 	0.18198 0.26435 0.85801 0.09600
C 	C 	0.20174 0.25926 0.68313 0.08600
N 	N 	0.37163 0.54694 0.85522 -0.10300
N 	N 	0.03853 0.29285 0.68320 -0.12300
N 	N 	0.20920 0.25902 0.64890 -0.10300
N 	N 	0.17846 0.26531 0.89386 -0.10700
H 	H 	0.15283 0.16399 0.84290 0.04400
H 	H 	0.22782 0.35969 0.69634 0.06100
H 	H 	0.30319 0.40877 0.82504 0.05700
H 	H 	0.11976 0.44374 0.70026 0.04800
C 	C 	0.51708 0.73946 0.71997 -0.02200
C 	C 	0.53342 0.79428 0.67773 0.01200
C 	C 	0.48267 0.80657 0.64638 -0.04100
C 	C 	0.41572 0.76445 0.65679 -0.00200
C 	C 	0.39964 0.70978 0.69933 -0.01500
C 	C 	0.45098 0.69831 0.73102 -0.01700
C 	C 	0.60535 0.84163 0.66852 0.03100
C 	C 	0.61904 0.83880 0.63119 -0.06000
C 	C 	0.68806 0.87995 0.62475 0.03500
C 	C 	0.74425 0.92363 0.65672 -0.08700
C 	C 	0.73011 0.92604 0.69406 0.02600
C 	C 	0.66114 0.88628 0.69948 -0.04100
C 	C 	0.70020 0.87837 0.58434 0.08200
C 	C 	0.64791 0.89150 0.73701 0.10300
C 	C 	0.56800 0.72509 0.75212 0.09600
C 	C 	0.36357 0.77692 0.62313 0.09100
N 	N 	0.70988 0.87707 0.55196 -0.10000
N 	N 	0.63728 0.89563 0.76708 -0.10600
N 	N 	0.32177 0.78688 0.59619 -0.10500
N 	N 	0.60884 0.71366 0.77785 -0.10200
H 	H 	0.43882 0.65642 0.76383 0.05700
H 	H 	0.49546 0.84905 0.61405 0.05600
H 	H 	0.57597 0.80443 0.60731 0.06100
H 	H 	0.77299 0.95970 0.71854 0.04100
C 	C 	0.14829 0.70588 0.70247 -0.02500
C 	C 	0.15092 0.70084 0.75175 0.01300
C 	C 	0.17719 0.66798 0.79546 -0.04200
C 	C 	0.20280 0.64196 0.79043 -0.00200
C 	C 	0.20207 0.64876 0.74115 -0.01500
C 	C 	0.17405 0.68011 0.69747 -0.01800
C 	C 	0.12615 0.73007 0.75765 0.02200
C 	C 	0.05556 0.69207 0.75943 -0.05300
C 	C 	0.02617 0.72215 0.75112 0.00900
C 	C 	0.06689 0.79089 0.73889 -0.07400
C 	C 	0.14015 0.82733 0.74643 0.00700
C 	C 	0.16980 0.79757 0.75447 -0.03500
C 	C 	0.95554 0.68223 0.75750 0.10000
C 	C 	0.24406 0.83710 0.75666 0.09800
C 	C 	0.11966 0.73788 0.65684 0.09000
C 	C 	0.23128 0.60983 0.83602 0.09100
N 	N 	0.89905 0.64973 0.76316 -0.10600
N 	N 	0.30356 0.86878 0.75837 -0.10700
N 	N 	0.25411 0.58408 0.87252 -0.10200
N 	N 	0.09670 0.76352 0.62035 -0.11700
H 	H 	0.17342 0.68541 0.65955 0.05300
H 	H 	0.17854 0.66342 0.83335 0.05500
H 	H 	0.02286 0.63951 0.76522 0.05200
H 	H 	0.17305 0.87972 0.74148 0.04500
C 	C 	0.11804 0.30825 0.16856 -0.04200
C 	C 	0.14187 0.30386 0.22198 0.02700
C 	C 	0.15185 0.25505 0.25570 -0.05700
C 	C 	0.13657 0.21034 0.23656 0.02400
C 	C 	0.10122 0.20786 0.18489 -0.07800
C 	C 	0.09609 0.25931 0.15051 0.01500
C 	C 	0.15685 0.35047 0.24268 0.01100
C 	C 	0.10348 0.35615 0.23176 -0.04000
C 	C 	0.12079 0.41045 0.23890 -0.00300
C 	C 	0.19130 0.45719 0.26016 -0.01500
C 	C 	0.24091 0.44382 0.28049 -0.01800
C 	C 	0.22557 0.39331 0.26919 -0.02300
C 	C 	0.06685 0.41960 0.22178 0.09100
C 	C 	0.28196 0.38923 0.28120 0.09100
C 	C 	0.11607 0.36270 0.13213 0.09300
C 	C 	0.16119 0.17014 0.26907 0.07400
N 	N 	0.02361 0.42693 0.20803 -0.10300
N 	N 	0.32715 0.38600 0.29082 -0.10500
N 	N 	0.18162 0.13840 0.29486 -0.11000
N 	N 	0.11449 0.40631 0.10296 -0.11100
H 	H 	0.07185 0.25948 0.11012 0.04400
H 	H 	0.17242 0.25250 0.29657 0.06000
H 	H 	0.04959 0.32094 0.21430 0.05200
H 	H 	0.29424 0.47769 0.29969 0.05400
C 	C 	0.59753 0.75362 0.17716 -0.03900
C 	C 	0.57542 0.78636 0.17671 0.02800
C 	C 	0.62214 0.85380 0.17184 -0.05600
C 	C 	0.69205 0.88839 0.17105 0.02800
C 	C 	0.71544 0.85540 0.17349 -0.07600
C 	C 	0.66722 0.78847 0.17493 0.01700
C 	C 	0.50627 0.74972 0.18701 0.01300
C 	C 	0.50326 0.73696 0.23651 -0.04300
C 	C 	0.43914 0.70512 0.24687 -0.00100
C 	C 	0.37689 0.68489 0.20748 -0.01800
C 	C 	0.38044 0.70005 0.15746 -0.01700
C 	C 	0.44481 0.73252 0.14699 -0.02300
C 	C 	0.43717 0.69140 0.29846 0.08800
C 	C 	0.44723 0.74729 0.09530 0.09400
C 	C 	0.54949 0.68419 0.18094 0.10000
C 	C 	0.73969 0.95737 0.16915 0.08100
N 	N 	0.43551 0.68038 0.33975 -0.10700
N 	N 	0.44923 0.75913 0.05390 -0.10500
N 	N 	0.51093 0.62855 0.18397 -0.10600
H 	H 	0.68457 0.76307 0.17624 0.04800
H 	H 	0.60467 0.87897 0.17080 0.06100
H 	H 	0.55098 0.75179 0.26699 0.05700
H 	H 	0.33259 0.68447 0.12712 0.05200
C 	C 	0.22879 0.68488 0.32764 -0.02300
C 	C 	0.18618 0.70492 0.28862 0.01100
C 	C 	0.14564 0.67993 0.24472 -0.03800
C 	C 	0.15184 0.63982 0.23757 -0.00300
C 	C 	0.20093 0.62639 0.27370 -0.01400
C 	C 	0.23631 0.64609 0.31985 -0.01900
C 	C 	0.19214 0.75950 0.28936 0.02900
C 	C 	0.25273 0.82352 0.27906 -0.06100
C 	C 	0.25133 0.87684 0.26348 0.03100
C 	C 	0.18800 0.86607 0.25623 -0.08700
C 	C 	0.13125 0.80276 0.27410 0.01600
C 	C 	0.13343 0.74947 0.29119 -0.04500
C 	C 	0.31409 0.94244 0.25277 0.08100
C 	C 	0.07550 0.68486 0.31050 0.09200
C 	C 	0.26634 0.70534 0.37511 0.09200
C 	C 	0.10954 0.61458 0.19214 0.09000
N 	N 	0.36432 0.99501 0.24414 -0.10000
N 	N 	0.02910 0.63310 0.32609 -0.11100
N 	N 	0.07561 0.59428 0.15578 -0.10800
N 	N 	0.29642 0.72177 0.41314 -0.10700
H 	H 	0.27276 0.63436 0.34839 0.05400
H 	H 	0.11190 0.69436 0.21496 0.04900
H 	H 	0.29950 0.83166 0.28027 0.06000
H 	H 	0.08356 0.79440 0.27115 0.04100
C 	C 	0.85512 0.34087 0.50765 -0.02300
C 	C 	0.88349 0.31057 0.55284 0.01700
C 	C 	0.88786 0.30957 0.60090 -0.04300
C 	C 	0.85859 0.33321 0.60425 0.00000
C 	C 	0.82421 0.35786 0.55912 -0.01400
C 	C 	0.82564 0.36436 0.51102 -0.01600
C 	C 	0.90281 0.27451 0.55047 0.02400
C 	C 	0.87245 0.17094 0.55703 0.01100
C 	C 	0.85140 0.20862 0.54758 -0.03800
C 	C 	0.77724 0.17857 0.53729 0.09600
C 	C 	0.85405 0.34617 0.45775 0.09600
C 	C 	0.86126 0.32935 0.65420 0.09300
N 	N 	0.71785 0.15457 0.52906 -0.10900
N 	N 	0.85320 0.35037 0.41778 -0.10200
H 	H 	0.80036 0.38443 0.47620 0.05400
H 	H 	0.83311 0.11929 0.55791 0.04500
C 	C 	0.74067 0.51588 0.61524 -0.02300
C 	C 	0.78433 0.57994 0.58728 0.01200
C 	C 	0.82615 0.59250 0.56189 -0.03900
C 	C 	0.81882 0.54093 0.55933 -0.00300
C 	C 	0.77243 0.47621 0.58537 -0.01400
C 	C 	0.73758 0.46521 0.61601 -0.01800
C 	C 	0.78495 0.63398 0.58267 0.02800
C 	C 	0.78836 0.73093 0.52899 0.01700
C 	C 	0.76800 0.66962 0.53396 -0.04200
C 	C 	0.73128 0.64431 0.48899 0.09700
C 	C 	0.69595 0.50093 0.64092 0.09100
C 	C 	0.85697 0.55479 0.52837 0.09300
N 	N 	0.70188 0.62399 0.45297 -0.10900
N 	N 	0.88756 0.56598 0.50353 -0.10300
N 	N 	0.66012 0.48896 0.66149 -0.10500
H 	H 	0.70407 0.41607 0.63777 0.05600
H 	H 	0.78257 0.76160 0.49105 0.04300
C 	C 	0.46331 0.20875 0.54726 -0.02400
C 	C 	0.45295 0.15552 0.59033 0.01300
C 	C 	0.50777 0.14843 0.61899 -0.04200
C 	C 	0.57453 0.19679 0.60768 -0.00100
C 	C 	0.58631 0.25252 0.56675 -0.01700
C 	C 	0.52957 0.25637 0.53529 -0.01700
C 	C 	0.38615 0.10902 0.60730 0.02800
C 	C 	0.32877 0.05642 0.58466 -0.05500
C 	C 	0.26299 0.01528 0.59640 0.02600
C 	C 	0.25450 0.02644 0.63209 -0.08700
C 	C 	0.31327 0.07765 0.65641 0.01800
C 	C 	0.37870 0.11908 0.64398 -0.04100
C 	C 	0.20440 0.96324 0.57039 0.09000
C 	C 	0.43779 0.17249 0.66844 0.09700
C 	C 	0.40723 0.21653 0.51669 0.09400
C 	C 	0.63141 0.19036 0.63974 0.09200
N 	N 	0.15768 0.92165 0.54945 -0.11900
N 	N 	0.48516 0.21532 0.68799 -0.10800
N 	N 	0.67697 0.18523 0.66540 -0.10300
N 	N 	0.36242 0.22293 0.49221 -0.10300
H 	H 	0.53819 0.29855 0.50323 0.05300
H 	H 	0.49918 0.10655 0.65136 0.05600
H 	H 	0.33490 0.04857 0.55673 0.05900
H 	H 	0.30792 0.08565 0.68470 0.04700
C 	C 	0.77724 0.12169 0.99660 -0.03900
C 	C 	0.83502 0.18528 0.00373 0.02800
C 	C 	0.78930 0.07695 0.00659 0.01700
C 	C 	0.82451 0.22580 0.01019 0.01200
C 	C 	0.83566 0.22592 0.05998 -0.04000
C 	C 	0.81653 0.25573 0.06758 -0.00100
C 	C 	0.78576 0.28590 0.02493 -0.01300
C 	C 	0.77727 0.28813 0.97503 -0.01800
C 	C 	0.79726 0.25897 0.96744 -0.02200
C 	C 	0.82674 0.25345 0.11932 0.09300
C 	C 	0.70560 0.10059 0.98271 0.09900
N 	N 	0.83493 0.25166 0.16076 -0.10100
N 	N 	0.64822 0.08373 0.97159 -0.10900
H 	H 	0.74480 0.02659 0.00530 0.04300
H 	H 	0.85729 0.20104 0.09290 0.05300
H 	H 	0.75458 0.31209 0.94215 0.05300
C 	C 	0.90330 0.55666 0.07693 -0.02100
C 	C 	0.87815 0.54897 0.11324 0.01400
C 	C 	0.83361 0.48605 0.14130 -0.03900
C 	C 	0.81038 0.43114 0.13098 0.00100
C 	C 	0.82680 0.43863 0.08933 -0.01300
C 	C 	0.87690 0.50143 0.06476 -0.01500
C 	C 	0.86922 0.64152 0.07875 -0.05700
C 	C 	0.86616 0.73661 0.03847 0.08500
C 	C 	0.76755 0.36693 0.16213 0.09700
N 	N 	0.84785 0.76689 0.00315 -0.10400
N 	N 	0.73320 0.31547 0.18701 -0.09900
H 	H 	0.89200 0.50749 0.03407 0.05500
H 	H 	0.81584 0.47983 0.17038 0.05800
H 	H 	0.83586 0.62549 0.04332 0.06000
C 	C 	0.39829 0.17223 0.10611 -0.03900
C 	C 	0.39760 0.18996 0.05392 0.02700
C 	C 	0.33622 0.17998 0.01611 -0.05600
C 	C 	0.27457 0.14808 0.03023 0.03100
C 	C 	0.27231 0.12096 0.08263 -0.07600
C 	C 	0.33545 0.13731 0.12022 0.01100
C 	C 	0.45943 0.21526 0.03890 0.01200
C 	C 	0.48081 0.17528 0.05596 -0.04000
C 	C 	0.54457 0.20109 0.04858 -0.00200
C 	C 	0.58627 0.26707 0.02216 -0.01600
C 	C 	0.55957 0.30390 0.99901 -0.01800
C 	C 	0.49799 0.27937 0.00878 -0.02400
C 	C 	0.56837 0.16053 0.07042 0.09300
C 	C 	0.47704 0.32156 0.99019 0.08900
C 	C 	0.46286 0.18876 0.14534 0.09800
C 	C 	0.21271 0.14060 0.99078 0.08700
N 	N 	0.58746 0.12805 0.08794 -0.10400
N 	N 	0.46025 0.35533 0.97531 -0.10700
N 	N 	0.16294 0.13425 0.95929 -0.10700
N 	N 	0.51462 0.20201 0.17674 -0.10400
H 	H 	0.33469 0.11890 0.16057 0.04500
H 	H 	0.33599 0.19561 0.97582 0.05800
H 	H 	0.44944 0.12494 0.07706 0.05400
H 	H 	0.59025 0.35393 0.97715 0.05200
C 	C 	0.99479 0.00256 0.28857 0.30000
C 	C 	0.02980 0.98651 0.49715 0.27200
O 	O 	0.02810 0.01656 0.63926 -0.58900
C 	C 	0.00173 0.99025 0.34400 -0.06900
N 	N 	0.77742 0.01253 0.16783 -0.14100
N 	N 	0.04217 0.19939 0.03793 -0.11400
O 	O 	0.04105 0.82344 0.14543 -0.40200
O 	O 	0.84563 0.95424 0.64080 -0.38800
O 	O 	0.85501 0.03026 0.65511 -0.41600
N 	N 	0.81611 0.90772 0.30403 -0.10400
C 	C 	0.02189 0.99442 0.44255 -0.06200
O 	O 	0.98980 0.95522 0.77624 -0.36700
C 	C 	0.00968 0.93458 0.00859 0.26500
N 	N 	0.12738 0.32207 0.57834 -0.10100
C 	C 	0.78919 0.26290 0.91576 0.09400
H 	H 	0.86199 0.64216 0.54209 0.05500
C 	C 	0.95546 0.62090 0.05171 0.09700
C 	C 	0.97401 0.30361 0.55733 -0.04200
C 	C 	0.94442 0.19793 0.57075 -0.07900
C 	C 	0.89455 0.60617 0.11977 0.02800
C 	C 	0.88900 0.69878 0.08253 0.02800
H 	H 	0.91128 0.28776 0.63572 0.05900
N 	N 	0.99728 0.67239 0.03153 -0.10500
O 	O 	0.83865 0.92781 0.21001 -0.37300
N 	N 	0.86335 0.32624 0.69420 -0.10100
O 	O 	0.88623 0.90220 0.08343 -0.45500
C 	C 	0.86756 0.04432 0.06895 0.30600
O 	O 	0.84271 0.01787 0.10918 -0.40300
O 	O 	0.91440 0.99451 0.55926 -0.44800
C 	C 	0.88188 0.82639 0.56654 0.30500
O 	O 	0.94960 0.11261 0.58056 -0.36900
O 	O 	0.88759 0.86145 0.58675 -0.38800
H 	H 	0.88856 0.90659 0.93626 0.05800
C 	C 	0.84177 0.89234 0.84143 0.09500
C 	C 	0.87306 0.93274 0.32915 0.08200
C 	C 	0.80940 0.65436 0.62663 -0.05700
C 	C 	0.82462 0.71352 0.62133 0.03100
C 	C 	0.82442 0.75615 0.57238 -0.08400
C 	C 	0.84147 0.73083 0.66603 0.09200
H 	H 	0.81831 0.62528 0.66453 0.06500
C 	C 	0.90384 0.20575 0.01330 -0.05700
C 	C 	0.91522 0.16045 0.02320 0.02400
C 	C 	0.85809 0.09384 0.02694 -0.08100
N 	N 	0.78271 0.26600 0.87436 -0.10500
N 	N 	0.97639 0.55707 0.24551 -0.10200
H 	H 	0.98613 0.69724 0.20641 0.04700
N 	N 	0.85482 0.74491 0.70171 -0.09900
O 	O 	0.90309 0.02865 0.06792 -0.39500
H 	H 	0.90908 0.94341 0.42324 0.05100
O 	O 	0.98559 0.12081 0.15158 -0.38000
H 	H 	0.01338 0.35500 0.55734 0.04900
O 	O 	0.97438 0.03996 0.25458 -0.39300
C 	C 	0.99499 0.26576 0.56706 0.04100
Co	Co	0.90546 0.95223 0.12519 1.18900
Co	Co	0.97413 0.90873 0.10079 1.19200
Co	Co	0.90930 0.02588 0.18174 1.17000
O 	O 	0.95150 0.99233 0.17181 -0.74400
O 	O 	0.99691 0.94504 0.16415 -0.56800
C 	C 	0.97166 0.78858 0.12840 0.30800
O 	O 	0.93508 0.81105 0.11608 -0.36800
O 	O 	0.99342 0.95473 0.02724 -0.36300
Co	Co	0.94109 0.02521 0.61908 1.18700
Co	Co	0.96964 0.96021 0.57876 1.19200
Co	Co	0.95321 0.06745 0.70641 1.16900
O 	O 	0.98501 0.04031 0.67758 -0.75800
C 	C 	0.96586 0.15369 0.60169 0.29900
C 	C 	0.95700 0.96170 0.79256 0.28700
O 	O 	0.99624 0.15275 0.65079 -0.38000
O 	O 	0.91432 0.97833 0.75943 -0.37500
O 	O 	0.93385 0.85100 0.54879 -0.39700
O 	O 	0.99504 0.99625 0.50802 -0.35100
C 	C 	0.96870 0.95049 0.84880 -0.04600
C 	C 	0.99846 0.94854 0.95207 -0.02000
C 	C 	0.93038 0.92645 0.92048 -0.01600
C 	C 	0.91454 0.92496 0.86982 0.00800
C 	C 	0.95417 0.96571 0.41001 0.00100
C 	C 	0.94379 0.96375 0.36101 0.01900
C 	C 	0.06844 0.29680 0.57346 0.06900
C 	C 	0.98568 0.18208 0.03143 0.09700
H 	H 	0.94845 0.25575 0.01561 0.06000
C 	C 	0.93349 0.72040 0.12827 -0.08000
C 	C 	0.95330 0.68162 0.17082 0.01700
C 	C 	0.93479 0.62517 0.16668 -0.04100
C 	C 	0.95806 0.58752 0.21049 0.09800
