data_crystal

_cell_length_a 18.65128
_cell_length_b 18.84659
_cell_length_c 30.53881
_cell_angle_alpha 95.43523
_cell_angle_beta  95.43463
_cell_angle_gamma 126.42050

_symmetry_space_group_name_	'P 1'
_symmetry_space_group_name_H-M	'P 1'

loop_
_symmetry_equiv_pos_as_xyz
  x,y,z

loop_
_atom_site_label
_atom_site_type_symbol
_atom_site_fract_x
_atom_site_fract_y
_atom_site_fract_z
_atom_site_charge
C 	C 	0.90900 0.99757 0.95942 0.03900
C 	C 	0.00076 0.04962 0.95608 -0.07700
C 	C 	0.04603 0.01138 0.95542 0.03700
C 	C 	0.99937 0.92046 0.95759 -0.07400
C 	C 	0.90669 0.86685 0.95929 0.04000
C 	C 	0.86137 0.90559 0.96056 -0.07600
H 	H 	0.03749 0.12044 0.95515 0.05500
H 	H 	0.03483 0.89115 0.95742 0.05400
H 	H 	0.79018 0.86491 0.96287 0.05300
C 	C 	0.94824 0.04095 0.49862 0.03500
C 	C 	0.04134 0.08979 0.49813 -0.07600
C 	C 	0.08157 0.04616 0.49826 0.03500
C 	C 	0.02880 0.95425 0.49922 -0.07500
C 	C 	0.93676 0.90643 0.50134 0.03600
C 	C 	0.89653 0.94970 0.50094 -0.07500
H 	H 	0.08178 0.16076 0.49694 0.05200
H 	H 	0.05969 0.92036 0.49910 0.05400
H 	H 	0.82477 0.91213 0.50169 0.05400
Cu	Cu	0.76308 0.34398 0.95657 0.92800
Cu	Cu	0.74390 0.27850 0.05342 0.86900
Cu	Cu	0.60356 0.28308 0.00349 0.89400
Cu	Cu	0.59108 0.32407 0.91193 0.89400
C 	C 	0.71352 0.31259 0.86079 0.28300
O 	O 	0.80882 0.47229 0.95421 -0.35700
C 	C 	0.64468 0.31470 0.10310 0.28300
O 	O 	0.62052 0.26177 0.94419 -0.63700
O 	O 	0.73825 0.35436 0.01738 -0.64600
O 	O 	0.82873 0.29152 0.96791 -0.37000
O 	O 	0.72586 0.19252 0.00677 -0.44900
O 	O 	0.66953 0.34658 0.86665 -0.38400
O 	O 	0.47368 0.20741 0.98618 -0.38300
C 	C 	0.42821 0.21902 0.95575 0.29900
C 	C 	0.76074 0.50004 0.96383 0.28200
O 	O 	0.67448 0.44108 0.96512 -0.39000
O 	O 	0.46354 0.25942 0.92202 -0.39300
O 	O 	0.76471 0.31531 0.89494 -0.36000
C 	C 	0.78812 0.21508 0.98245 0.29800
O 	O 	0.58418 0.28510 0.06604 -0.38800
O 	O 	0.72428 0.33281 0.10177 -0.42000
H 	H 	0.58715 0.19756 0.93094 0.16600
H 	H 	0.76934 0.41648 0.03352 0.17400
Cu	Cu	0.61306 0.20070 0.50584 0.92800
Cu	Cu	0.67386 0.21547 0.40786 0.87000
Cu	Cu	0.67273 0.35689 0.45792 0.89800
Cu	Cu	0.63692 0.37233 0.55070 0.89500
C 	C 	0.64750 0.25003 0.60191 0.28500
O 	O 	0.48494 0.15634 0.50983 -0.36100
C 	C 	0.63866 0.31450 0.35824 0.28300
O 	O 	0.69730 0.34161 0.51721 -0.64000
O 	O 	0.59975 0.22349 0.44487 -0.64200
O 	O 	0.66192 0.13275 0.49347 -0.37300
O 	O 	0.76129 0.23236 0.45370 -0.44200
O 	O 	0.61643 0.29664 0.59668 -0.38500
O 	O 	0.74948 0.48551 0.47454 -0.38700
C 	C 	0.73792 0.53077 0.50488 0.29800
C 	C 	0.45687 0.20405 0.50093 0.28600
O 	O 	0.51599 0.28919 0.49909 -0.39500
O 	O 	0.70139 0.49779 0.53989 -0.39400
O 	O 	0.64506 0.20046 0.56730 -0.36000
C 	C 	0.73816 0.17108 0.47828 0.29400
O 	O 	0.66755 0.37445 0.39512 -0.38500
O 	O 	0.61836 0.23505 0.35997 -0.42100
H 	H 	0.76247 0.37424 0.52963 0.16600
H 	H 	0.53654 0.19281 0.42941 0.17300
C 	C 	0.65834 0.23194 0.64669 -0.06900
C 	C 	0.58383 0.15740 0.66003 0.00900
C 	C 	0.58422 0.15211 0.70538 -0.05800
C 	C 	0.65928 0.22149 0.73780 0.01500
C 	C 	0.73756 0.29270 0.72418 0.01500
C 	C 	0.73678 0.29729 0.67851 -0.02200
C 	C 	0.81294 0.36164 0.75662 -0.05800
C 	C 	0.80779 0.36392 0.80205 0.00900
C 	C 	0.72737 0.29739 0.81543 -0.06900
C 	C 	0.65477 0.22409 0.78351 -0.02200
H 	H 	0.52353 0.10609 0.63546 0.03800
H 	H 	0.52468 0.09604 0.71537 0.04200
H 	H 	0.79487 0.35420 0.66803 0.03100
H 	H 	0.87415 0.41544 0.74662 0.04300
H 	H 	0.86456 0.42004 0.82668 0.03800
H 	H 	0.59318 0.17195 0.79402 0.02900
C 	C 	0.61771 0.31485 0.14685 -0.07700
C 	C 	0.53402 0.23996 0.15365 0.00200
C 	C 	0.51628 0.22979 0.19698 -0.06000
C 	C 	0.58203 0.29455 0.23396 0.01100
C 	C 	0.66308 0.37372 0.22703 0.01100
C 	C 	0.68041 0.38363 0.18338 -0.02000
C 	C 	0.72813 0.43919 0.26401 -0.05900
C 	C 	0.71638 0.42286 0.30744 0.00200
C 	C 	0.63966 0.34085 0.31432 -0.07700
C 	C 	0.57054 0.27868 0.27769 -0.02000
H 	H 	0.48475 0.18713 0.12557 0.03000
H 	H 	0.45290 0.16986 0.20185 0.04000
H 	H 	0.74415 0.44258 0.17803 0.03800
H 	H 	0.78947 0.50120 0.25912 0.04000
H 	H 	0.76943 0.47179 0.33559 0.03000
H 	H 	0.51018 0.21628 0.28307 0.03800
C 	C 	0.88205 0.81039 0.50334 0.00100
C 	C 	0.82022 0.74686 0.46518 -0.07000
C 	C 	0.77000 0.65512 0.46576 0.05500
C 	C 	0.78312 0.62640 0.50471 -0.09300
C 	C 	0.84279 0.69009 0.54334 -0.00400
C 	C 	0.89181 0.78176 0.54294 -0.00300
S 	S 	0.68836 0.57716 0.41824 -0.05300
S 	S 	0.96405 0.86003 0.59237 -0.04500
H 	H 	0.91710 0.88015 0.61565 0.03600
H 	H 	0.72867 0.55705 0.38956 0.04800
H 	H 	0.81134 0.76896 0.43500 0.05000
H 	H 	0.85213 0.66824 0.57352 0.03700
C 	C 	0.90310 0.08333 0.49361 0.00100
C 	C 	0.88453 0.11301 0.53166 -0.07000
C 	C 	0.82973 0.14083 0.52722 0.05400
C 	C 	0.79250 0.13842 0.48416 -0.09900
C 	C 	0.81305 0.11080 0.44621 -0.00500
C 	C 	0.86808 0.08343 0.45069 -0.00400
S 	S 	0.81053 0.18076 0.57577 -0.03500
S 	S 	0.89186 0.04840 0.40231 -0.05000
H 	H 	0.97174 0.11998 0.39328 0.03400
H 	H 	0.87433 0.27210 0.58736 0.03200
H 	H 	0.91148 0.11295 0.56471 0.05000
H 	H 	0.78583 0.11032 0.41309 0.01700
C 	C 	0.17993 0.09713 0.49975 -0.00000
C 	C 	0.23567 0.11404 0.53971 -0.06900
C 	C 	0.32588 0.14793 0.54039 0.05100
C 	C 	0.36166 0.16663 0.50073 -0.09300
C 	C 	0.30705 0.15318 0.46113 -0.00700
C 	C 	0.21626 0.11799 0.46034 -0.00200
S 	S 	0.39330 0.16694 0.59114 -0.04300
S 	S 	0.14830 0.09845 0.40969 -0.04900
H 	H 	0.10399 0.01177 0.38807 0.03400
H 	H 	0.43721 0.25331 0.61312 0.03300
H 	H 	0.20787 0.09819 0.57005 0.05000
H 	H 	0.33486 0.16899 0.43079 0.03200
C 	C 	0.85748 0.76981 0.95919 -0.01000
C 	C 	0.84277 0.73891 0.99989 -0.04200
C 	C 	0.81277 0.65137 0.00204 0.02900
C 	C 	0.79746 0.59398 0.96312 -0.07600
C 	C 	0.80973 0.62405 0.92224 -0.01600
C 	C 	0.83851 0.71100 0.91996 0.00500
S 	S 	0.79748 0.61552 0.05385 -0.06600
S 	S 	0.85007 0.74536 0.86778 -0.04500
H 	H 	0.93609 0.78189 0.86073 0.03800
H 	H 	0.70915 0.57392 0.05835 0.03700
H 	H 	0.85746 0.78390 0.03014 0.03800
H 	H 	0.79568 0.57928 0.89203 0.04100
C 	C 	0.81877 0.15901 0.97583 -0.09000
C 	C 	0.84441 0.13588 0.01335 -0.01400
C 	C 	0.86751 0.07757 0.00820 -0.01000
C 	C 	0.86536 0.04169 0.96502 0.00700
C 	C 	0.83702 0.06251 0.92737 -0.07000
C 	C 	0.81369 0.12081 0.93249 0.05300
S 	S 	0.90060 0.05122 0.05614 -0.05500
S 	S 	0.77673 0.14385 0.88445 -0.03400
H 	H 	0.68403 0.08471 0.87301 0.03200
H 	H 	0.82621 0.97417 0.06550 0.03200
H 	H 	0.84653 0.16349 0.04668 0.01800
H 	H 	0.83561 0.03531 0.89410 0.05100
C 	C 	0.14370 0.06779 0.95448 -0.00200
C 	C 	0.20593 0.12830 0.99329 -0.06100
C 	C 	0.29914 0.18117 0.99355 0.06000
C 	C 	0.33079 0.17201 0.95482 -0.09300
C 	C 	0.26836 0.11366 0.91555 -0.00400
C 	C 	0.17511 0.06198 0.91511 -0.00300
S 	S 	0.37516 0.26118 0.04186 -0.06200
S 	S 	0.09843 0.99147 0.86494 -0.04600
H 	H 	0.07602 0.03711 0.84231 0.03500
H 	H 	0.39717 0.22184 0.07007 0.04700
H 	H 	0.18168 0.13428 0.02328 0.04300
H 	H 	0.29240 0.10734 0.88554 0.03700
