data_crystal

_cell_length_a 20.35987
_cell_length_b 20.36954
_cell_length_c 26.84157
_cell_angle_alpha 95.45534
_cell_angle_beta  95.45714
_cell_angle_gamma 126.14154

_symmetry_space_group_name_	'P 1'
_symmetry_space_group_name_H-M	'P 1'

loop_
_symmetry_equiv_pos_as_xyz
  x,y,z

loop_
_atom_site_label
_atom_site_type_symbol
_atom_site_fract_x
_atom_site_fract_y
_atom_site_fract_z
_atom_site_charge
C 	C 	0.96705 0.05442 0.00213 0.13100
N 	N 	0.04928 0.09753 0.00073 -0.13300
C 	C 	0.08301 0.05651 0.99631 0.12400
N 	N 	0.99466 0.03518 0.45716 -0.14100
S 	S 	0.53568 0.12377 0.14173 -0.02400
H 	H 	0.56945 0.08399 0.13008 0.04500
C 	C 	0.81191 0.11226 0.44576 0.05600
C 	C 	0.84174 0.06440 0.44426 -0.00800
C 	C 	0.87040 0.02657 0.44496 -0.02600
C 	C 	0.28163 0.13224 0.47627 0.05800
C 	C 	0.19572 0.08821 0.47341 -0.00400
C 	C 	0.12186 0.04925 0.46917 -0.02800
C 	C 	0.92876 0.09541 0.00369 -0.02000
C 	C 	0.89137 0.12443 0.00372 -0.01200
C 	C 	0.16956 0.10005 0.99517 -0.02400
C 	C 	0.24096 0.12970 0.99393 -0.00700
H 	H 	0.56577 0.15830 0.25060 0.04700
C 	C 	0.78778 0.15411 0.44959 -0.11300
C 	C 	0.84392 0.15452 0.00177 0.07000
C 	C 	0.32351 0.16006 0.99245 0.05600
O 	O 	0.68561 0.17667 0.00739 -0.36500
C 	C 	0.35453 0.16997 0.47641 -0.10500
C 	C 	0.80257 0.17907 0.99779 -0.12700
O 	O 	0.51084 0.18543 0.00946 -0.35300
C 	C 	0.39405 0.18600 0.99148 -0.10700
H 	H 	0.56310 0.18846 0.42641 0.16700
C 	C 	0.03358 0.99984 0.46255 0.13800
C 	C 	0.91064 0.98741 0.44775 0.13200
N 	N 	0.03476 0.97339 0.99289 -0.13600
C 	C 	0.95318 0.93075 0.99401 0.13200
N 	N 	0.91931 0.97112 0.99876 -0.13900
N 	N 	0.86539 0.90362 0.44341 -0.13600
C 	C 	0.90503 0.86850 0.44839 0.13100
N 	N 	0.98879 0.91682 0.45805 -0.13900
Cu	Cu	0.63180 0.23346 0.00884 0.92800
Cu	Cu	0.69157 0.22844 0.90025 0.87400
Cu	Cu	0.67208 0.35775 0.93834 0.89700
Cu	Cu	0.63498 0.38754 0.04018 0.89900
C 	C 	0.65475 0.29688 0.11507 0.29000
C 	C 	0.65694 0.30121 0.82871 0.28500
O 	O 	0.69837 0.36129 0.00992 -0.63500
O 	O 	0.61731 0.23686 0.93526 -0.64000
O 	O 	0.77257 0.25917 0.95729 -0.44100
O 	O 	0.62165 0.33340 0.10085 -0.37800
O 	O 	0.73196 0.47636 0.94607 -0.37900
C 	C 	0.73211 0.52370 0.98337 0.30600
C 	C 	0.47922 0.22085 0.99098 0.29700
O 	O 	0.52855 0.29593 0.98210 -0.39500
O 	O 	0.67958 0.49227 0.01495 -0.38500
O 	O 	0.66343 0.25193 0.08142 -0.35900
C 	C 	0.75453 0.20916 0.98954 0.30800
O 	O 	0.66157 0.35513 0.86359 -0.37100
O 	O 	0.63916 0.23117 0.83898 -0.41100
H 	H 	0.75829 0.39790 0.02474 0.16700
H 	H 	0.55921 0.20077 0.91670 0.17600
Cu	Cu	0.72311 0.31670 0.43223 0.92500
Cu	Cu	0.75482 0.28403 0.54660 0.87300
Cu	Cu	0.60943 0.28088 0.51033 0.89900
Cu	Cu	0.55908 0.30037 0.40436 0.89800
C 	C 	0.65257 0.28995 0.32733 0.28800
O 	O 	0.76911 0.43494 0.42501 -0.36600
C 	C 	0.69110 0.32925 0.61961 0.28300
O 	O 	0.59720 0.24908 0.43833 -0.63500
O 	O 	0.72967 0.34252 0.50645 -0.63900
O 	O 	0.78195 0.26455 0.43354 -0.36700
O 	O 	0.71763 0.19299 0.49492 -0.43900
O 	O 	0.58476 0.27985 0.33699 -0.37900
O 	O 	0.49098 0.21630 0.50791 -0.37500
C 	C 	0.44032 0.21634 0.47336 0.30900
C 	C 	0.73040 0.46614 0.43694 0.30500
O 	O 	0.65835 0.41971 0.45029 -0.38800
O 	O 	0.46869 0.27008 0.44252 -0.39000
O 	O 	0.69580 0.27787 0.35994 -0.35900
C 	C 	0.75874 0.20325 0.45805 0.30700
O 	O 	0.62147 0.29220 0.58591 -0.37600
O 	O 	0.75921 0.34811 0.60490 -0.41500
H 	H 	0.76261 0.40240 0.52060 0.17500
C 	C 	0.67311 0.32005 0.77753 -0.08000
C 	C 	0.62479 0.33496 0.74719 -0.01800
C 	C 	0.63331 0.34336 0.69633 0.03600
C 	C 	0.68856 0.33333 0.67497 -0.07400
C 	C 	0.74008 0.32332 0.70653 -0.02900
C 	C 	0.73369 0.31818 0.75759 0.04300
S 	S 	0.57972 0.37279 0.66164 -0.02500
S 	S 	0.80393 0.31216 0.79665 -0.09600
H 	H 	0.87185 0.39044 0.81919 0.03700
H 	H 	0.62787 0.45740 0.66865 0.03800
H 	H 	0.58026 0.33955 0.76297 0.04800
H 	H 	0.78449 0.31816 0.69111 0.03800
C 	C 	0.66462 0.29115 0.16929 -0.07100
C 	C 	0.72251 0.36362 0.20547 -0.02200
C 	C 	0.72250 0.36300 0.25766 0.03300
C 	C 	0.66434 0.28902 0.27403 -0.06800
C 	C 	0.60997 0.21549 0.23806 -0.02000
C 	C 	0.60925 0.21618 0.18586 0.04000
S 	S 	0.79365 0.45578 0.30194 -0.03600
H 	H 	0.86348 0.46205 0.31768 0.04400
H 	H 	0.76564 0.42118 0.19293 0.03800
C 	C 	0.85935 0.78034 0.44370 -0.02400
C 	C 	0.82811 0.70769 0.44087 -0.00700
C 	C 	0.79583 0.62377 0.43865 0.05700
C 	C 	0.76800 0.55223 0.43752 -0.10900
C 	C 	0.90307 0.84303 0.99033 -0.02600
C 	C 	0.86295 0.76941 0.98749 -0.00600
C 	C 	0.81746 0.68356 0.98485 0.05800
C 	C 	0.77879 0.61038 0.98352 -0.10600
