data_crystal

_cell_length_a 15.59920
_cell_length_b 15.92526
_cell_length_c 26.74903
_cell_angle_alpha 95.47180
_cell_angle_beta  95.46788
_cell_angle_gamma 126.73947

_symmetry_space_group_name_	'P 1'
_symmetry_space_group_name_H-M	'P 1'

loop_
_symmetry_equiv_pos_as_xyz
  x,y,z

loop_
_atom_site_label
_atom_site_type_symbol
_atom_site_fract_x
_atom_site_fract_y
_atom_site_fract_z
_atom_site_charge
C 	C 	0.87686 0.97846 0.94936 0.11700
N 	N 	0.98387 0.03968 0.94664 -0.13700
C 	C 	0.03823 0.99818 0.94764 0.12500
N 	N 	0.98592 0.89459 0.95040 -0.13400
C 	C 	0.87918 0.83125 0.95306 0.11300
N 	N 	0.82322 0.87300 0.95315 -0.13000
C 	C 	0.95214 0.05667 0.50374 0.10200
N 	N 	0.06061 0.11139 0.50272 -0.12800
C 	C 	0.10310 0.05724 0.49953 0.10800
N 	N 	0.03773 0.95052 0.49666 -0.12700
C 	C 	0.93075 0.89681 0.49734 0.11000
N 	N 	0.88794 0.94958 0.50119 -0.12800
Cu	Cu	0.75125 0.32800 0.94512 0.92400
Cu	Cu	0.73805 0.23915 0.05285 0.86500
Cu	Cu	0.58029 0.27176 0.01106 0.89300
Cu	Cu	0.54973 0.32258 0.90783 0.90100
C 	C 	0.68105 0.30850 0.83765 0.28200
O 	O 	0.81250 0.48743 0.94745 -0.34500
C 	C 	0.65316 0.30261 0.12344 0.27800
O 	O 	0.58203 0.24156 0.93954 -0.63000
O 	O 	0.73862 0.34029 0.01786 -0.65000
O 	O 	0.81398 0.24574 0.94757 -0.35400
O 	O 	0.69488 0.13378 0.99529 -0.42600
O 	O 	0.63467 0.35195 0.85169 -0.38000
O 	O 	0.42477 0.19770 0.00006 -0.39600
C 	C 	0.36447 0.18882 0.95866 0.32300
C 	C 	0.75903 0.52297 0.96300 0.28500
O 	O 	0.65950 0.45449 0.96979 -0.38700
O 	O 	0.40658 0.25643 0.92717 -0.39100
O 	O 	0.73560 0.29387 0.87195 -0.35700
C 	C 	0.76231 0.15404 0.96422 0.28700
O 	O 	0.57579 0.27784 0.08548 -0.37800
O 	O 	0.73905 0.31044 0.11452 -0.41900
H 	H 	0.53492 0.16462 0.92409 0.16600
H 	H 	0.78580 0.41428 0.03771 0.17100
Cu	Cu	0.62198 0.20562 0.51593 0.92400
Cu	Cu	0.70322 0.20842 0.40651 0.87000
Cu	Cu	0.67422 0.36741 0.44696 0.89800
Cu	Cu	0.62721 0.40337 0.55012 0.89900
C 	C 	0.65890 0.28974 0.62299 0.28100
O 	O 	0.46201 0.14387 0.51593 -0.35500
C 	C 	0.63861 0.29046 0.33490 0.27900
O 	O 	0.70957 0.37097 0.51861 -0.63600
O 	O 	0.60355 0.21238 0.44245 -0.64000
O 	O 	0.69755 0.13793 0.51293 -0.36500
O 	O 	0.81100 0.24937 0.46357 -0.43800
O 	O 	0.60898 0.33008 0.60927 -0.37900
O 	O 	0.75117 0.51966 0.45588 -0.38100
C 	C 	0.75129 0.57971 0.49356 0.30800
C 	C 	0.42245 0.19167 0.49859 0.29200
O 	O 	0.48900 0.28877 0.49059 -0.39400
O 	O 	0.68594 0.53898 0.52668 -0.39200
O 	O 	0.66195 0.22575 0.58914 -0.35600
C 	C 	0.78887 0.18374 0.49507 0.29700
O 	O 	0.66319 0.36702 0.37215 -0.37500
O 	O 	0.62918 0.20612 0.34480 -0.41700
H 	H 	0.78856 0.41843 0.53327 0.16500
H 	H 	0.52721 0.16536 0.42355 0.17400
C 	C 	0.75469 0.39823 0.76455 -0.00700
C 	C 	0.69695 0.30392 0.78429 -0.05900
C 	C 	0.64059 0.20505 0.75104 -0.01300
C 	C 	0.63535 0.20035 0.69806 -0.00600
C 	C 	0.68632 0.29461 0.67809 -0.06100
C 	C 	0.74930 0.39360 0.71175 -0.01100
H 	H 	0.79952 0.47505 0.78993 0.04500
H 	H 	0.59624 0.13172 0.76587 0.03700
H 	H 	0.58678 0.12339 0.67252 0.04600
H 	H 	0.78996 0.46688 0.69686 0.03100
C 	C 	0.54307 0.21891 0.24359 -0.01200
C 	C 	0.63047 0.30382 0.28120 -0.06700
C 	C 	0.71774 0.39514 0.26632 -0.01400
C 	C 	0.72177 0.39793 0.21434 -0.01100
C 	C 	0.63752 0.31025 0.17677 -0.06800
C 	C 	0.54613 0.22257 0.19160 -0.01400
H 	H 	0.47471 0.14844 0.25458 0.03600
H 	H 	0.78537 0.46146 0.29496 0.03700
H 	H 	0.79233 0.46644 0.20338 0.03500
H 	H 	0.48033 0.15465 0.16298 0.03500
C 	C 	0.86404 0.78477 0.49515 0.02700
C 	C 	0.81163 0.69073 0.49388 -0.08600
C 	C 	0.85204 0.14501 0.50082 -0.09400
C 	C 	0.90225 0.10934 0.50311 0.02400
C 	C 	0.21703 0.11134 0.49935 0.02300
C 	C 	0.31069 0.14774 0.49896 -0.08400
C 	C 	0.79750 0.63092 0.95982 -0.07600
C 	C 	0.82811 0.72064 0.95692 0.02000
C 	C 	0.82482 0.02990 0.95266 0.01500
C 	C 	0.79450 0.08501 0.95651 -0.08000
C 	C 	0.15291 0.06596 0.95117 0.02500
C 	C 	0.24971 0.12201 0.95471 -0.08500
