data_crystal

_cell_length_a 16.50160
_cell_length_b 17.24688
_cell_length_c 37.13974
_cell_angle_alpha 60.64676
_cell_angle_beta  119.07982
_cell_angle_gamma 133.30034

_symmetry_space_group_name_	'P 1'
_symmetry_space_group_name_H-M	'P 1'

loop_
_symmetry_equiv_pos_as_xyz
  x,y,z

loop_
_atom_site_label
_atom_site_type_symbol
_atom_site_fract_x
_atom_site_fract_y
_atom_site_fract_z
_atom_site_charge
C 	C 	0.70532 0.31223 0.97940 0.12900
N 	N 	0.60746 0.24794 0.99230 -0.11800
C 	C 	0.57073 0.29438 0.99522 0.13300
N 	N 	0.62442 0.40378 0.98057 -0.12400
C 	C 	0.73027 0.46884 0.97415 0.12300
N 	N 	0.76884 0.42327 0.97148 -0.12000
C 	C 	0.70046 0.31029 0.48931 0.12500
N 	N 	0.73233 0.41487 0.47510 -0.12200
C 	C 	0.66609 0.43627 0.47437 0.12500
N 	N 	0.56435 0.35199 0.48517 -0.12500
C 	C 	0.53396 0.24819 0.50080 0.11900
N 	N 	0.60000 0.22691 0.50147 -0.12300
C 	C 	0.28514 0.56045 0.19862 0.12100
N 	N 	0.20226 0.45585 0.19345 -0.12500
C 	C 	0.22965 0.40164 0.18987 0.12600
N 	N 	0.34067 0.44934 0.19453 -0.12200
C 	C 	0.42024 0.55742 0.19355 0.12500
N 	N 	0.39445 0.61084 0.19864 -0.12300
C 	C 	0.24903 0.61997 0.66793 0.12100
N 	N 	0.35584 0.70578 0.66139 -0.12400
C 	C 	0.42363 0.68803 0.66100 0.12800
N 	N 	0.38996 0.58423 0.67191 -0.11800
C 	C 	0.28215 0.49819 0.67635 0.12400
N 	N 	0.21138 0.51579 0.67465 -0.12600
Co	Co	0.02914 0.82259 0.09725 1.18100
Co	Co	0.98242 0.07550 0.06451 1.19400
Co	Co	0.89148 0.86075 0.12191 1.18200
Co	Co	0.13948 0.04992 0.04687 1.18400
C 	C 	0.95797 0.72787 0.02582 0.32900
Co	Co	0.20708 0.90562 0.05134 1.17800
Co	Co	0.76985 0.97657 0.09684 1.17400
C 	C 	0.37738 0.10589 0.08053 0.31500
O 	O 	0.80683 0.91186 0.16202 -0.38000
O 	O 	0.87348 0.96112 0.08742 -0.74900
C 	C 	0.91065 0.94055 0.18399 0.30100
O 	O 	0.93702 0.76181 0.13761 -0.44300
O 	O 	0.11848 0.15849 0.04130 -0.46500
C 	C 	0.01166 0.17242 0.12108 0.28600
O 	O 	0.97515 0.93518 0.06883 -0.56200
C 	C 	0.64274 0.73910 0.11921 0.31500
C 	C 	0.18770 0.75901 0.13724 0.31800
C 	C 	0.17112 0.05539 0.97230 0.31800
O 	O 	0.96473 0.92357 0.17437 -0.37800
O 	O 	0.17090 0.76425 0.09843 -0.39900
O 	O 	0.15478 0.80053 0.14458 -0.38000
O 	O 	0.90478 0.13910 0.10162 -0.36300
O 	O 	0.05956 0.14591 0.11367 -0.40100
O 	O 	0.63832 0.81947 0.08988 -0.37500
O 	O 	0.72067 0.72900 0.12473 -0.36400
O 	O 	0.24974 0.04317 0.00140 -0.38900
O 	O 	0.11553 0.06771 0.98298 -0.37800
O 	O 	0.11229 0.92524 0.06368 -0.77700
C 	C 	0.80297 0.12287 0.01199 0.31200
O 	O 	0.72861 0.02602 0.03166 -0.37300
O 	O 	0.90142 0.14882 0.01434 -0.35800
O 	O 	0.05523 0.80936 0.01336 -0.39600
O 	O 	0.94544 0.70828 0.06326 -0.36100
O 	O 	0.34522 0.00492 0.09205 -0.37400
O 	O 	0.31076 0.12344 0.08059 -0.37900
Co	Co	0.92740 0.82202 0.56974 1.20000
Co	Co	0.03818 0.12960 0.57939 1.17900
Co	Co	0.85713 0.89650 0.60935 1.18900
Co	Co	0.11066 0.05299 0.54094 1.18700
C 	C 	0.83379 0.72961 0.49441 0.31700
Co	Co	0.08398 0.86402 0.52482 1.16800
Co	Co	0.88459 0.07366 0.63230 1.17800
C 	C 	0.29696 0.02689 0.57146 0.32200
O 	O 	0.81449 0.92073 0.67482 -0.39100
O 	O 	0.92640 0.03138 0.60267 -0.74500
C 	C 	0.87150 0.87800 0.69618 0.32500
O 	O 	0.82157 0.76545 0.60276 -0.44800
O 	O 	0.14839 0.18469 0.54846 -0.45400
C 	C 	0.13359 0.20702 0.65844 0.31800
O 	O 	0.95614 0.97808 0.56103 -0.56400
C 	C 	0.66256 0.90469 0.59218 0.31100
C 	C 	0.02927 0.70227 0.60607 0.32000
C 	C 	0.12410 0.06891 0.45882 0.32500
O 	O 	0.90904 0.86801 0.67545 -0.38100
O 	O 	0.00566 0.70979 0.56602 -0.41000
O 	O 	0.01690 0.75620 0.61628 -0.39500
O 	O 	0.04201 0.12493 0.67320 -0.39900
O 	O 	0.15791 0.19841 0.63183 -0.38000
O 	O 	0.72933 0.01069 0.58901 -0.37600
O 	O 	0.69356 0.86022 0.58552 -0.36500
O 	O 	0.16794 0.01375 0.48281 -0.39900
O 	O 	0.10256 0.10303 0.47601 -0.36800
O 	O 	0.03080 0.91822 0.54313 -0.76700
C 	C 	0.93577 0.24657 0.55170 0.31800
O 	O 	0.95625 0.23110 0.59249 -0.38700
O 	O 	0.97022 0.21827 0.53785 -0.35900
O 	O 	0.92921 0.81206 0.48148 -0.36100
O 	O 	0.80976 0.73055 0.52366 -0.35600
O 	O 	0.23366 0.92327 0.57162 -0.38300
O 	O 	0.25773 0.06132 0.57942 -0.38800
C 	C 	0.13260 0.03605 0.92989 -0.08000
C 	C 	0.18185 0.00544 0.92157 0.13500
C 	C 	0.12525 0.95768 0.88780 -0.05800
C 	C 	0.03592 0.96270 0.85623 -0.04200
C 	C 	0.99266 0.00295 0.86183 0.14300
C 	C 	0.03810 0.03522 0.89936 -0.04900
H 	H 	0.15873 0.92680 0.88372 0.08000
C 	C 	0.99477 0.93341 0.81614 0.08000
H 	H 	0.00080 0.06086 0.90436 0.07600
C 	C 	0.88355 0.83977 0.80620 -0.09600
C 	C 	0.84491 0.81028 0.76890 0.15200
C 	C 	0.91940 0.87174 0.74215 -0.08200
C 	C 	0.03521 0.95358 0.75595 -0.02400
C 	C 	0.07099 0.99067 0.79057 0.05100
H 	H 	0.82633 0.79133 0.82690 0.09700
H 	H 	0.09497 0.99662 0.73706 0.07200
Br	Br	0.87493 0.01807 0.81831 -0.20200
Br	Br	0.33530 0.04637 0.94991 -0.22000
Br	Br	0.68904 0.68831 0.75407 -0.20400
Br	Br	0.21964 0.12610 0.79950 -0.18800
C 	C 	0.96194 0.98286 0.22195 -0.06300
C 	C 	0.93572 0.04503 0.22305 0.13700
C 	C 	0.98522 0.08403 0.25877 -0.05400
C 	C 	0.04426 0.04759 0.29629 0.00300
C 	C 	0.06664 0.98178 0.29632 0.09600
C 	C 	0.02992 0.95404 0.25869 -0.04400
H 	H 	0.96825 0.13483 0.25860 0.08600
C 	C 	0.06648 0.06522 0.33644 0.00900
H 	H 	0.04873 0.90474 0.25887 0.07400
C 	C 	0.97328 0.01533 0.35160 -0.06400
C 	C 	0.99160 0.03463 0.38826 0.16800
C 	C 	0.10378 0.09598 0.41236 -0.12000
C 	C 	0.19654 0.15460 0.39499 -0.00400
C 	C 	0.17813 0.14133 0.35669 0.08600
H 	H 	0.88649 0.96285 0.33452 0.08300
H 	H 	0.28337 0.20575 0.41243 0.06800
Br	Br	0.14027 0.92318 0.34780 -0.20900
Br	Br	0.82258 0.06761 0.17921 -0.24200
Br	Br	0.86252 0.97731 0.40480 -0.21000
Br	Br	0.30564 0.22967 0.33213 -0.19400
C 	C 	0.23513 0.39629 0.67103 0.04500
C 	C 	0.19416 0.31174 0.66513 -0.07900
C 	C 	0.50800 0.77148 0.63672 0.04700
C 	C 	0.57725 0.83459 0.61559 -0.08200
C 	C 	0.10170 0.66728 0.63542 -0.07900
C 	C 	0.16686 0.64188 0.65345 0.03800
C 	C 	0.14397 0.31605 0.16753 0.03100
C 	C 	0.08098 0.24923 0.14669 -0.06100
C 	C 	0.50752 0.61987 0.17140 0.04100
C 	C 	0.57221 0.67155 0.14901 -0.07600
C 	C 	0.22170 0.68939 0.17018 -0.07200
C 	C 	0.25088 0.62882 0.18759 0.03800
C 	C 	0.78658 0.29296 0.50507 0.04300
C 	C 	0.85704 0.27423 0.52349 -0.07000
C 	C 	0.76752 0.62882 0.48356 -0.06800
C 	C 	0.71902 0.54245 0.47722 0.04100
C 	C 	0.45201 0.16944 0.52632 0.04600
C 	C 	0.38336 0.10516 0.54787 -0.09400
C 	C 	0.78487 0.20596 0.99513 -0.06500
C 	C 	0.75483 0.26199 0.98557 0.04400
C 	C 	0.81135 0.56714 0.98809 0.04700
C 	C 	0.87669 0.64252 0.00430 -0.07500
C 	C 	0.50476 0.23627 0.02538 0.04700
C 	C 	0.44985 0.18294 0.05144 -0.08700
