data_crystal

_cell_length_a 34.95960
_cell_length_b 35.75553
_cell_length_c 28.39178
_cell_angle_alpha 95.55102
_cell_angle_beta  95.56176
_cell_angle_gamma 125.37944

_symmetry_space_group_name_	'P 1'
_symmetry_space_group_name_H-M	'P 1'

loop_
_symmetry_equiv_pos_as_xyz
  x,y,z

loop_
_atom_site_label
_atom_site_type_symbol
_atom_site_fract_x
_atom_site_fract_y
_atom_site_fract_z
_atom_site_charge
C 	C 	0.98016 0.02391 0.00685 0.11700
N 	N 	0.02650 0.04677 0.00173 -0.13900
C 	C 	0.04592 0.02322 0.99714 0.11900
C 	C 	0.02379 0.00963 0.44624 0.11900
N 	N 	0.99928 0.02733 0.43540 -0.14100
Cu	Cu	0.65361 0.26650 0.99274 0.92800
Cu	Cu	0.70606 0.27088 0.90142 0.87100
O 	O 	0.58198 0.23338 0.98085 -0.36200
O 	O 	0.65570 0.27097 0.92393 -0.64100
O 	O 	0.68708 0.23694 0.00114 -0.37300
C 	C 	0.56232 0.24998 0.95738 0.28400
O 	O 	0.66090 0.27470 0.06159 -0.35900
C 	C 	0.72985 0.25612 0.99091 0.29300
O 	O 	0.68192 0.27104 0.83835 -0.42000
H 	H 	0.62446 0.25008 0.90168 0.17300
O 	O 	0.71029 0.25501 0.46128 -0.44200
C 	C 	0.73894 0.26799 0.43004 0.29000
H 	H 	0.63027 0.27227 0.40708 0.16300
C 	C 	0.92487 0.02060 0.42175 -0.02200
C 	C 	0.94051 0.05405 0.39189 -0.01600
C 	C 	0.91848 0.07616 0.38562 -0.05400
C 	C 	0.88059 0.06497 0.40896 0.03000
C 	C 	0.86386 0.03057 0.43752 -0.05300
C 	C 	0.88587 0.00841 0.44390 -0.02000
C 	C 	0.86065 0.09061 0.40569 -0.02500
C 	C 	0.84407 0.11215 0.40286 -0.00500
C 	C 	0.82508 0.13783 0.40046 0.00000
C 	C 	0.80896 0.15988 0.39945 -0.03300
C 	C 	0.78959 0.18617 0.39971 0.04600
C 	C 	0.81966 0.23446 0.40107 -0.07400
C 	C 	0.80237 0.26104 0.40806 0.01800
C 	C 	0.75491 0.23945 0.41407 -0.09800
C 	C 	0.72424 0.19070 0.41006 0.01800
C 	C 	0.74157 0.16422 0.40298 -0.07500
H 	H 	0.97005 0.06328 0.37397 0.03900
H 	H 	0.93141 0.10252 0.36325 0.04600
H 	H 	0.83445 0.02163 0.45556 0.04500
H 	H 	0.85678 0.25164 0.39825 0.05000
H 	H 	0.68734 0.17350 0.41378 0.02800
H 	H 	0.71799 0.12683 0.40150 0.04900
C 	C 	0.07610 0.03864 0.44985 -0.02400
C 	C 	0.09789 0.07040 0.41870 -0.01500
C 	C 	0.14721 0.09618 0.42067 -0.05500
C 	C 	0.17508 0.09046 0.45374 0.03200
C 	C 	0.15361 0.05942 0.48539 -0.05500
C 	C 	0.10433 0.03361 0.48352 -0.01500
C 	C 	0.22554 0.11569 0.45445 -0.02500
C 	C 	0.26777 0.13685 0.45494 -0.00400
C 	C 	0.31717 0.16148 0.45533 0.00100
C 	C 	0.35934 0.18240 0.45556 -0.03100
C 	C 	0.40968 0.20737 0.45565 0.04600
C 	C 	0.42785 0.22450 0.41469 -0.07300
C 	C 	0.47679 0.24928 0.41489 0.01800
C 	C 	0.50800 0.25719 0.45617 -0.08900
C 	C 	0.48956 0.23954 0.49706 0.01900
C 	C 	0.44056 0.21474 0.49674 -0.07200
H 	H 	0.07657 0.07448 0.39241 0.04000
H 	H 	0.16363 0.12020 0.39614 0.04700
H 	H 	0.17500 0.05500 0.51121 0.04600
H 	H 	0.08811 0.00970 0.50817 0.03900
H 	H 	0.40411 0.21872 0.38273 0.05000
H 	H 	0.49041 0.26224 0.38294 0.02600
H 	H 	0.51317 0.24558 0.52927 0.03900
H 	H 	0.42671 0.20153 0.52852 0.05100
C 	C 	0.95898 0.04947 0.01149 -0.02400
C 	C 	0.92386 0.03640 0.03989 -0.01600
C 	C 	0.90312 0.06001 0.04342 -0.05400
C 	C 	0.91733 0.09687 0.01876 0.03000
C 	C 	0.95270 0.11036 0.99085 -0.05300
C 	C 	0.97347 0.08678 0.98719 -0.01600
C 	C 	0.89442 0.11976 0.02075 -0.02500
C 	C 	0.87520 0.13887 0.02247 -0.00500
C 	C 	0.85222 0.16081 0.02360 0.00000
C 	C 	0.83231 0.17928 0.02356 -0.03300
C 	C 	0.80815 0.20096 0.02212 0.04600
C 	C 	0.75965 0.17500 0.02497 -0.07500
C 	C 	0.73449 0.19386 0.01719 0.01900
C 	C 	0.75769 0.23885 0.00621 -0.10000
C 	C 	0.80694 0.26567 0.00592 0.01600
C 	C 	0.83199 0.24669 0.01370 -0.07500
H 	H 	0.87584 0.04948 0.06515 0.04600
H 	H 	0.96379 0.13879 0.97160 0.04500
H 	H 	0.00027 0.09706 0.96492 0.04100
H 	H 	0.74108 0.13971 0.03181 0.05000
H 	H 	0.69664 0.17284 0.01795 0.03500
H 	H 	0.86963 0.26713 0.01191 0.04900
C 	C 	0.50966 0.22292 0.94589 -0.09100
C 	C 	0.48051 0.17832 0.95761 0.01800
C 	C 	0.43168 0.15654 0.95531 -0.07200
C 	C 	0.41151 0.17886 0.94089 0.04500
C 	C 	0.43965 0.22162 0.92567 -0.07200
C 	C 	0.48849 0.24351 0.92789 0.01500
C 	C 	0.36340 0.16027 0.94637 -0.03100
C 	C 	0.32308 0.14425 0.95116 0.00100
C 	C 	0.27626 0.12551 0.95825 -0.00400
C 	C 	0.23651 0.10924 0.96535 -0.02500
C 	C 	0.18922 0.08916 0.97483 0.03300
C 	C 	0.17056 0.05622 0.00500 -0.05600
C 	C 	0.12421 0.03563 0.01333 -0.01500
C 	C 	0.09607 0.04781 0.99144 -0.02300
C 	C 	0.11524 0.08162 0.96202 -0.01500
C 	C 	0.16168 0.10218 0.95371 -0.05500
H 	H 	0.49588 0.16124 0.97014 0.03700
H 	H 	0.40990 0.12306 0.96636 0.05100
H 	H 	0.42407 0.23871 0.91372 0.05000
H 	H 	0.19183 0.04629 0.02174 0.04600
H 	H 	0.09385 0.09120 0.94477 0.03900
H 	H 	0.17601 0.12782 0.93051 0.04600
H 	H 	0.11006 0.01002 0.03656 0.03900
H 	H 	0.91275 0.00810 0.05933 0.04000
C 	C 	0.95108 0.00058 0.43202 0.11600
O 	O 	0.58637 0.27869 0.48685 -0.38100
H 	H 	0.51009 0.27722 0.91733 0.03200
C 	C 	0.55984 0.28470 0.45675 0.28900
O 	O 	0.74509 0.28620 0.96173 -0.44100
Cu	Cu	0.72839 0.29655 0.51970 0.87100
O 	O 	0.65232 0.30493 0.42485 -0.64000
H 	H 	0.82557 0.30077 0.99857 0.02900
O 	O 	0.75737 0.30877 0.41741 -0.37100
H 	H 	0.82640 0.29856 0.41086 0.03200
Cu	Cu	0.65480 0.31183 0.49307 0.89700
C 	C 	0.65468 0.30257 0.08811 0.30100
C 	C 	0.68394 0.30682 0.82667 0.30400
O 	O 	0.63060 0.31700 0.06881 -0.38400
O 	O 	0.58926 0.29331 0.95090 -0.39200
Cu	Cu	0.72569 0.34040 0.42427 0.92800
Cu	Cu	0.63887 0.34570 0.40554 0.89400
C 	C 	0.68402 0.33268 0.32812 0.30100
C 	C 	0.69255 0.31883 0.59457 0.30400
O 	O 	0.72438 0.34251 0.49404 -0.64100
O 	O 	0.66779 0.35516 0.34649 -0.38500
O 	O 	0.57937 0.31947 0.43270 -0.39300
O 	O 	0.71424 0.32901 0.35517 -0.35900
O 	O 	0.65597 0.30770 0.56215 -0.38600
O 	O 	0.72995 0.32315 0.58188 -0.42100
C 	C 	0.68322 0.31197 0.77716 -0.10000
C 	C 	0.68378 0.31533 0.73536 0.03200
C 	C 	0.68568 0.31801 0.68627 0.03200
C 	C 	0.68831 0.31910 0.64435 -0.10100
C 	C 	0.66270 0.30691 0.13949 -0.09300
C 	C 	0.66866 0.31137 0.18277 0.03400
C 	C 	0.67478 0.31761 0.23348 0.03400
C 	C 	0.67934 0.32391 0.27675 -0.09200
N 	N 	0.01896 0.97680 0.99772 -0.13800
C 	C 	0.97270 0.95379 0.00281 0.11900
N 	N 	0.95328 0.97735 0.00727 -0.13900
N 	N 	0.92737 0.95588 0.43946 -0.13900
C 	C 	0.95188 0.93817 0.45053 0.11900
N 	N 	0.00001 0.96510 0.45384 -0.13800
Cu	Cu	0.68480 0.33890 0.92741 0.89700
Cu	Cu	0.64222 0.34738 0.01112 0.89400
O 	O 	0.68769 0.33838 0.99496 -0.63900
O 	O 	0.71595 0.40553 0.93624 -0.38000
C 	C 	0.70460 0.42837 0.96383 0.29100
O 	O 	0.66772 0.40629 0.98588 -0.39500
O 	O 	0.69394 0.34142 0.85986 -0.38600
H 	H 	0.72013 0.36055 0.01481 0.16200
O 	O 	0.75643 0.40983 0.43165 -0.36200
C 	C 	0.73860 0.42875 0.45407 0.28300
O 	O 	0.69504 0.40184 0.46255 -0.39100
H 	H 	0.74544 0.37408 0.51443 0.17400
C 	C 	0.92654 0.88989 0.45898 -0.02400
C 	C 	0.88458 0.85320 0.42720 -0.01500
C 	C 	0.86422 0.80684 0.43152 -0.05400
C 	C 	0.88552 0.79690 0.46772 0.03200
C 	C 	0.92615 0.83351 0.50076 -0.05400
C 	C 	0.94660 0.87983 0.49644 -0.01400
C 	C 	0.86760 0.74925 0.46903 -0.02400
C 	C 	0.85259 0.70936 0.47009 -0.00400
C 	C 	0.83551 0.66271 0.47083 0.00100
C 	C 	0.82118 0.62287 0.47097 -0.03100
C 	C 	0.80405 0.57518 0.47041 0.04500
C 	C 	0.81870 0.55477 0.43947 -0.07200
C 	C 	0.79912 0.50742 0.43584 0.01700
C 	C 	0.76448 0.48000 0.46306 -0.09100
C 	C 	0.75150 0.50116 0.49566 0.01500
C 	C 	0.77112 0.54852 0.49915 -0.07200
H 	H 	0.86873 0.86048 0.39818 0.04000
H 	H 	0.83264 0.77868 0.40600 0.04700
H 	H 	0.94256 0.82610 0.52909 0.04700
H 	H 	0.97858 0.90786 0.52161 0.03900
H 	H 	0.84448 0.57530 0.41744 0.05100
H 	H 	0.80971 0.49178 0.41070 0.03900
H 	H 	0.72552 0.48074 0.51755 0.03200
H 	H 	0.76002 0.56422 0.52356 0.05000
H 	H 	0.87345 0.98277 0.46709 0.04400
C 	C 	0.94366 0.90330 0.00296 -0.02500
C 	C 	0.96439 0.88412 0.02546 -0.01500
C 	C 	0.93840 0.83579 0.02171 -0.05600
C 	C 	0.89153 0.80624 0.99555 0.03400
C 	C 	0.87019 0.82526 0.97427 -0.05500
C 	C 	0.89612 0.87366 0.97800 -0.01300
C 	C 	0.86600 0.75639 0.98922 -0.02500
C 	C 	0.84512 0.71474 0.98427 -0.00300
C 	C 	0.82111 0.66606 0.97868 0.00100
C 	C 	0.80067 0.62449 0.97419 -0.03100
C 	C 	0.77606 0.57486 0.96927 0.04700
C 	C 	0.80102 0.55555 0.96395 -0.07300
C 	C 	0.77752 0.50754 0.96129 0.01900
C 	C 	0.72888 0.47857 0.96407 -0.08900
C 	C 	0.70382 0.49800 0.96856 0.02000
C 	C 	0.72738 0.54595 0.97118 -0.07300
H 	H 	0.00080 0.90664 0.04538 0.04100
H 	H 	0.95496 0.82129 0.03858 0.04600
H 	H 	0.83384 0.80258 0.95418 0.04700
H 	H 	0.87974 0.88799 0.96042 0.04100
H 	H 	0.83870 0.57774 0.96240 0.05000
H 	H 	0.79731 0.49306 0.95798 0.03000
H 	H 	0.66613 0.47600 0.97005 0.03300
H 	H 	0.70783 0.56065 0.97507 0.05100
