data_crystal

_cell_length_a 34.88719
_cell_length_b 35.91494
_cell_length_c 34.92693
_cell_angle_alpha 95.55899
_cell_angle_beta  95.55739
_cell_angle_gamma 125.37711

_symmetry_space_group_name_	'P 1'
_symmetry_space_group_name_H-M	'P 1'

loop_
_symmetry_equiv_pos_as_xyz
  x,y,z

loop_
_atom_site_label
_atom_site_type_symbol
_atom_site_fract_x
_atom_site_fract_y
_atom_site_fract_z
_atom_site_charge
C 	C 	0.96923 0.02527 0.98465 0.12300
N 	N 	0.01605 0.04935 0.98138 -0.13800
C 	C 	0.03650 0.02690 0.97699 0.12700
N 	N 	0.00999 0.98031 0.97571 -0.13700
C 	C 	0.96327 0.95613 0.97903 0.12500
N 	N 	0.94296 0.97868 0.98354 -0.13800
C 	C 	0.95244 0.98951 0.44399 0.12100
N 	N 	0.92970 0.94519 0.45030 -0.13700
C 	C 	0.95480 0.92759 0.45689 0.12400
N 	N 	0.00257 0.95433 0.45702 -0.13600
C 	C 	0.02539 0.99854 0.45071 0.12600
N 	N 	0.00026 0.01606 0.44421 -0.13500
Cu	Cu	0.64939 0.27428 0.99451 0.93900
Cu	Cu	0.70409 0.28809 0.92095 0.88600
Cu	Cu	0.67698 0.34690 0.94372 0.90000
Cu	Cu	0.65214 0.36263 0.01961 0.90600
C 	C 	0.65970 0.30885 0.07507 0.30600
O 	O 	0.57978 0.24992 0.98855 -0.34400
C 	C 	0.66595 0.31446 0.86008 0.30500
O 	O 	0.68988 0.34702 0.99865 -0.63500
O 	O 	0.64939 0.28010 0.93915 -0.64200
O 	O 	0.67710 0.23918 0.99502 -0.33000
O 	O 	0.73925 0.29294 0.96871 -0.40900
O 	O 	0.63841 0.32752 0.06336 -0.36100
O 	O 	0.70858 0.41320 0.94905 -0.36800
C 	C 	0.70295 0.43891 0.97419 0.29900
C 	C 	0.56399 0.27140 0.97226 0.29000
O 	O 	0.59417 0.31559 0.97040 -0.38700
O 	O 	0.68801 0.42619 0.00719 -0.37300
O 	O 	0.66000 0.27907 0.05013 -0.29500
C 	C 	0.72039 0.25829 0.98780 0.31400
O 	O 	0.66566 0.34284 0.88708 -0.35700
O 	O 	0.68347 0.29147 0.86911 -0.33500
H 	H 	0.72424 0.36687 0.01090 0.20900
H 	H 	0.61837 0.25881 0.92076 0.21800
Cu	Cu	0.73274 0.33391 0.44519 0.93500
Cu	Cu	0.71835 0.28413 0.52150 0.87900
Cu	Cu	0.65835 0.31145 0.49565 0.90500
Cu	Cu	0.64712 0.33890 0.42029 0.90800
C 	C 	0.70272 0.33008 0.36430 0.30000
O 	O 	0.76347 0.40298 0.45000 -0.31900
C 	C 	0.68103 0.31255 0.57872 0.29700
O 	O 	0.65852 0.29899 0.44094 -0.64100
O 	O 	0.72679 0.33622 0.50077 -0.64000
O 	O 	0.76463 0.30243 0.44503 -0.34800
O 	O 	0.70880 0.24623 0.47438 -0.42100
O 	O 	0.68267 0.35002 0.37603 -0.31500
O 	O 	0.59032 0.28230 0.48933 -0.32600
C 	C 	0.56369 0.28240 0.45973 0.28900
C 	C 	0.74380 0.42166 0.46518 0.28700
O 	O 	0.69868 0.39481 0.46864 -0.37400
O 	O 	0.58311 0.31120 0.43495 -0.36400
O 	O 	0.72630 0.32168 0.38954 -0.32500
C 	C 	0.74322 0.26099 0.45416 0.29200
O 	O 	0.66261 0.32467 0.55212 -0.30900
O 	O 	0.71388 0.30648 0.57194 -0.38700
H 	H 	0.63644 0.26580 0.42818 0.18000
H 	H 	0.74911 0.36684 0.51844 0.18900
C 	C 	0.62955 0.27248 0.75092 0.03900
C 	C 	0.64965 0.31485 0.73817 0.08900
C 	C 	0.66274 0.35449 0.76463 -0.10400
C 	C 	0.66636 0.35375 0.80500 0.07900
C 	C 	0.65138 0.31240 0.81828 0.00400
C 	C 	0.62739 0.27036 0.79064 -0.07000
C 	C 	0.65899 0.31774 0.69769 0.09600
C 	C 	0.67215 0.39697 0.74992 0.78900
H 	H 	0.68235 0.38550 0.82606 0.08600
C 	C 	0.60030 0.22343 0.80310 0.77900
H 	H 	0.61669 0.24142 0.73006 0.10400
C 	C 	0.70401 0.33171 0.68943 -0.11100
C 	C 	0.71126 0.33372 0.65057 0.07400
C 	C 	0.67283 0.31576 0.61945 -0.00100
C 	C 	0.62657 0.29778 0.62766 -0.07100
C 	C 	0.62113 0.30196 0.66690 0.03000
C 	C 	0.74292 0.34074 0.72134 0.78800
H 	H 	0.74655 0.34783 0.64426 0.08400
C 	C 	0.58305 0.27441 0.59507 0.77400
H 	H 	0.58685 0.29137 0.67362 0.11400
F 	F 	0.63103 0.21166 0.81206 -0.43200
F 	F 	0.56330 0.18940 0.77316 -0.42700
F 	F 	0.58048 0.22416 0.83537 -0.45500
F 	F 	0.63474 0.38366 0.72046 -0.43100
F 	F 	0.71413 0.41925 0.73536 -0.40400
F 	F 	0.67611 0.42827 0.77949 -0.43000
F 	F 	0.54087 0.24970 0.60936 -0.43700
F 	F 	0.58205 0.24331 0.56751 -0.46500
F 	F 	0.58436 0.30783 0.57734 -0.43700
F 	F 	0.78360 0.35283 0.70704 -0.43200
F 	F 	0.72628 0.30102 0.73676 -0.43400
F 	F 	0.75595 0.37659 0.75096 -0.41000
C 	C 	0.72089 0.31804 0.17546 0.03100
C 	C 	0.68822 0.31346 0.19858 0.09500
C 	C 	0.64671 0.30858 0.18135 -0.11000
C 	C 	0.63744 0.30557 0.14067 0.07500
C 	C 	0.67031 0.31057 0.11750 -0.00200
C 	C 	0.71343 0.31859 0.13526 -0.07000
C 	C 	0.69996 0.31791 0.24145 0.09000
C 	C 	0.61416 0.30997 0.20655 0.78900
H 	H 	0.60482 0.29987 0.12690 0.08600
C 	C 	0.75108 0.32668 0.11152 0.77700
H 	H 	0.75262 0.32202 0.18908 0.11500
C 	C 	0.68283 0.27825 0.25879 -0.10400
C 	C 	0.68530 0.28295 0.29962 0.07600
C 	C 	0.70811 0.32691 0.32309 0.00300
C 	C 	0.73298 0.36721 0.30620 -0.06500
C 	C 	0.72682 0.36217 0.26523 0.03600
C 	C 	0.66237 0.23132 0.23395 0.78900
H 	H 	0.66836 0.25245 0.31306 0.07800
C 	C 	0.76468 0.41550 0.33150 0.77700
H 	H 	0.74164 0.39256 0.25171 0.10700
F 	F 	0.73601 0.28490 0.08931 -0.43100
F 	F 	0.79446 0.34524 0.13555 -0.43000
F 	F 	0.75889 0.35759 0.08706 -0.46300
F 	F 	0.63901 0.35327 0.23039 -0.43400
F 	F 	0.59834 0.27644 0.22965 -0.41100
F 	F 	0.57425 0.30188 0.18404 -0.43000
F 	F 	0.79709 0.44774 0.31125 -0.43100
F 	F 	0.79059 0.41615 0.36451 -0.44500
F 	F 	0.73673 0.42879 0.34278 -0.43100
F 	F 	0.65159 0.19815 0.25674 -0.42900
F 	F 	0.69539 0.23526 0.21242 -0.43000
F 	F 	0.62092 0.21587 0.20859 -0.40400
C 	C 	0.93050 0.87967 0.46400 -0.01900
C 	C 	0.95349 0.86973 0.49199 -0.00900
C 	C 	0.93327 0.82371 0.49564 -0.04900
C 	C 	0.88993 0.78726 0.47142 0.04000
C 	C 	0.86594 0.79711 0.44447 -0.04900
C 	C 	0.88609 0.84319 0.44081 -0.00900
C 	C 	0.87161 0.73975 0.47267 -0.01200
C 	C 	0.85674 0.70018 0.47405 0.01400
C 	C 	0.83996 0.65395 0.47540 0.01600
C 	C 	0.82584 0.61446 0.47617 -0.00900
C 	C 	0.80886 0.56714 0.47650 0.05100
C 	C 	0.82413 0.54665 0.45225 -0.04700
C 	C 	0.80471 0.49963 0.45002 0.02600
C 	C 	0.76960 0.47263 0.47195 -0.06100
C 	C 	0.75589 0.49383 0.49748 0.01900
C 	C 	0.77539 0.54088 0.49965 -0.05400
H 	H 	0.98742 0.89759 0.51045 0.04700
H 	H 	0.95182 0.81637 0.51675 0.05800
H 	H 	0.83228 0.76909 0.42577 0.05900
H 	H 	0.86798 0.85037 0.41911 0.04900
H 	H 	0.85026 0.56685 0.43446 0.07800
H 	H 	0.81575 0.48389 0.43025 0.09900
H 	H 	0.72943 0.47367 0.51503 0.05600
H 	H 	0.76377 0.55662 0.51876 0.06700
C 	C 	0.75979 0.23224 0.44407 -0.08200
C 	C 	0.80772 0.25338 0.44051 0.02600
C 	C 	0.82469 0.22652 0.43563 -0.06200
C 	C 	0.79392 0.17840 0.43413 0.05400
C 	C 	0.74568 0.15699 0.43606 -0.06200
C 	C 	0.72862 0.18373 0.44094 0.02500
C 	C 	0.81241 0.15141 0.43295 -0.01600
C 	C 	0.82768 0.12864 0.43197 0.01500
C 	C 	0.84576 0.10216 0.43148 0.01000
C 	C 	0.86163 0.07992 0.43152 -0.01300
C 	C 	0.88132 0.05401 0.43204 0.03700
C 	C 	0.91598 0.06319 0.40952 -0.04800
C 	C 	0.93805 0.04092 0.41242 -0.01100
C 	C 	0.92567 0.00931 0.43798 -0.01600
C 	C 	0.88978 0.99906 0.45959 -0.01300
C 	C 	0.86777 0.02142 0.45665 -0.04700
H 	H 	0.83218 0.29070 0.44276 0.05200
H 	H 	0.86200 0.24328 0.43393 0.06600
H 	H 	0.72158 0.11974 0.43457 0.06500
H 	H 	0.69138 0.16683 0.44295 0.04800
H 	H 	0.92643 0.08814 0.39026 0.05700
H 	H 	0.96516 0.04866 0.39515 0.04700
H 	H 	0.87993 0.97485 0.47947 0.04900
H 	H 	0.84089 0.01405 0.47407 0.05700
C 	C 	0.51131 0.25511 0.45793 -0.05400
C 	C 	0.49129 0.23635 0.49035 0.02000
C 	C 	0.44194 0.21112 0.48871 -0.04400
C 	C 	0.41208 0.20419 0.45471 0.04900
C 	C 	0.43169 0.22241 0.42221 -0.05400
C 	C 	0.48107 0.24769 0.42372 0.01700
C 	C 	0.36125 0.17820 0.45319 -0.00900
C 	C 	0.31878 0.15637 0.45234 0.01600
C 	C 	0.26911 0.13059 0.45177 0.01400
C 	C 	0.22674 0.10832 0.45161 -0.01300
C 	C 	0.17619 0.08134 0.45180 0.04000
C 	C 	0.15655 0.04960 0.47715 -0.04900
C 	C 	0.10741 0.02286 0.47704 -0.00700
C 	C 	0.07745 0.02762 0.45147 -0.01900
C 	C 	0.09733 0.05976 0.42628 -0.00900
C 	C 	0.14654 0.08649 0.42646 -0.05000
H 	H 	0.51386 0.24141 0.51684 0.11700
H 	H 	0.42695 0.19698 0.51392 0.08200
H 	H 	0.40874 0.21696 0.39574 0.06600
H 	H 	0.49572 0.26127 0.39827 0.05500
H 	H 	0.17932 0.04558 0.49691 0.06000
H 	H 	0.09267 0.99861 0.49694 0.04800
H 	H 	0.07464 0.06360 0.40622 0.04800
H 	H 	0.16152 0.11099 0.40677 0.05800
C 	C 	0.93482 0.90562 0.97795 -0.02000
C 	C 	0.88631 0.87636 0.95977 -0.00900
C 	C 	0.85987 0.82829 0.95766 -0.05000
C 	C 	0.88168 0.80916 0.97372 0.03900
C 	C 	0.92987 0.83826 0.99224 -0.04900
C 	C 	0.95637 0.88630 0.99439 -0.00800
C 	C 	0.85484 0.75965 0.97091 -0.01300
C 	C 	0.83301 0.71829 0.96887 0.01100
C 	C 	0.80822 0.67003 0.96691 0.01600
C 	C 	0.78765 0.62893 0.96566 -0.01500
C 	C 	0.76379 0.58004 0.96480 0.05600
C 	C 	0.72419 0.55540 0.98303 -0.06200
C 	C 	0.70348 0.50891 0.98515 0.02700
C 	C 	0.72239 0.48675 0.96914 -0.07500
C 	C 	0.76125 0.51121 0.94985 0.03200
C 	C 	0.78187 0.55770 0.94776 -0.05900
H 	H 	0.86930 0.89076 0.94676 0.04700
H 	H 	0.82258 0.80594 0.94333 0.05800
H 	H 	0.94687 0.82367 0.00487 0.05700
H 	H 	0.99358 0.90848 0.00890 0.04600
H 	H 	0.70991 0.57244 0.99610 0.06400
H 	H 	0.67307 0.49027 0.99957 0.04400
H 	H 	0.77627 0.49464 0.93736 0.05600
H 	H 	0.81246 0.57658 0.93356 0.07200
C 	C 	0.94684 0.04951 0.98910 -0.01900
C 	C 	0.97348 0.09521 0.01044 -0.01300
C 	C 	0.95194 0.11785 0.01498 -0.04900
C 	C 	0.90372 0.09502 0.99828 0.04000
C 	C 	0.87707 0.04947 0.97703 -0.05000
C 	C 	0.89849 0.02678 0.97241 -0.00800
C 	C 	0.88175 0.11858 0.00221 -0.01400
C 	C 	0.86268 0.13768 0.00515 0.01300
C 	C 	0.83981 0.15956 0.00769 0.01700
C 	C 	0.81986 0.17792 0.00897 -0.01200
C 	C 	0.79565 0.19948 0.00928 0.05800
C 	C 	0.82113 0.24704 0.00865 -0.05500
C 	C 	0.79676 0.26682 0.00351 0.03600
C 	C 	0.74660 0.23902 0.99874 -0.06000
C 	C 	0.72142 0.19185 0.00145 0.03400
C 	C 	0.74590 0.17217 0.00659 -0.05500
H 	H 	0.01066 0.11302 0.02378 0.05100
H 	H 	0.97275 0.15310 0.03145 0.05800
H 	H 	0.83980 0.03170 0.96391 0.05800
H 	H 	0.87762 0.99170 0.95559 0.04700
H 	H 	0.85967 0.26846 0.01107 0.06900
H 	H 	0.81676 0.30348 0.00240 0.06200
H 	H 	0.68279 0.17003 0.99813 0.06200
H 	H 	0.72601 0.13540 0.00731 0.07000
C 	C 	0.51196 0.24784 0.96136 -0.07300
C 	C 	0.49384 0.27408 0.96105 0.02700
C 	C 	0.44457 0.25193 0.95667 -0.06100
C 	C 	0.41304 0.20350 0.95239 0.05600
C 	C 	0.43070 0.17702 0.95032 -0.05800
C 	C 	0.47997 0.19906 0.95468 0.03100
C 	C 	0.36339 0.18150 0.95399 -0.01400
C 	C 	0.32183 0.16312 0.95534 0.01700
C 	C 	0.27345 0.14150 0.95807 0.01200
C 	C 	0.23231 0.12265 0.96124 -0.01200
C 	C 	0.18333 0.09941 0.96585 0.04000
C 	C 	0.15591 0.11281 0.94921 -0.04900
C 	C 	0.10813 0.08972 0.95340 -0.00900
C 	C 	0.08750 0.05301 0.97424 -0.02000
C 	C 	0.11537 0.04017 0.99132 -0.00800
C 	C 	0.16305 0.06328 0.98710 -0.04900
H 	H 	0.51795 0.31168 0.96574 0.04300
H 	H 	0.43109 0.27258 0.95794 0.06500
H 	H 	0.40642 0.13948 0.94653 0.07000
H 	H 	0.49330 0.17829 0.95387 0.05700
H 	H 	0.17145 0.14085 0.93284 0.05800
H 	H 	0.08698 0.09982 0.93990 0.04900
H 	H 	0.10009 0.01230 0.00787 0.04800
H 	H 	0.18418 0.05297 0.00025 0.05900
