data_crystal

_cell_length_a 22.28895
_cell_length_b 20.98908
_cell_length_c 41.72551
_cell_angle_alpha 90.65021
_cell_angle_beta  90.73668
_cell_angle_gamma 113.54395

_symmetry_space_group_name_	'P 1'
_symmetry_space_group_name_H-M	'P 1'

loop_
_symmetry_equiv_pos_as_xyz
  x,y,z

loop_
_atom_site_label
_atom_site_type_symbol
_atom_site_fract_x
_atom_site_fract_y
_atom_site_fract_z
_atom_site_charge
Ni	Ni	0.74597 0.36264 0.91378 1.10200
O 	O 	0.65379 0.33360 0.89472 -0.69900
Ni	Ni	0.60733 0.35505 0.93149 1.10200
O 	O 	0.77754 0.33445 0.87209 -0.37800
O 	O 	0.69855 0.22411 0.87438 -0.41500
O 	O 	0.76182 0.45650 0.89439 -0.41000
Ni	Ni	0.61154 0.23569 0.88336 1.06600
O 	O 	0.81633 0.43325 0.98197 -0.42000
O 	O 	0.62072 0.20782 0.92906 -0.42000
O 	O 	0.52083 0.33249 0.90825 -0.38400
O 	O 	0.69630 0.37309 0.95176 -0.70200
O 	O 	0.84025 0.39991 0.93236 -0.38100
O 	O 	0.57965 0.40474 0.96747 -0.37700
O 	O 	0.67250 0.50285 0.96186 -0.41400
Ni	Ni	0.74427 0.46529 0.97131 1.07000
H 	H 	0.65300 0.36189 0.87602 0.15400
H 	H 	0.69269 0.33679 0.96746 0.16100
C 	C 	0.57875 0.20686 0.95070 0.30700
O 	O 	0.80344 0.53014 0.93737 -0.40100
C 	C 	0.74899 0.27102 0.85994 0.29500
C 	C 	0.50000 0.28087 0.88711 0.29900
C 	C 	0.80353 0.51526 0.90661 0.33200
C 	C 	0.61274 0.47180 0.97267 0.28400
C 	C 	0.85896 0.43247 0.96050 0.31300
O 	O 	0.56379 0.26116 0.95511 -0.36600
O 	O 	0.51783 0.22785 0.88985 -0.41200
Ni	Ni	0.63640 0.25491 0.54810 1.10000
O 	O 	0.69661 0.34726 0.56900 -0.70200
Ni	Ni	0.68303 0.41499 0.53939 1.10100
O 	O 	0.66163 0.20082 0.58258 -0.37700
O 	O 	0.76975 0.25707 0.57045 -0.41800
O 	O 	0.56599 0.26205 0.57738 -0.40200
Ni	Ni	0.78828 0.36270 0.57009 1.06500
O 	O 	0.54559 0.20874 0.48231 -0.42000
O 	O 	0.79155 0.35727 0.52152 -0.42000
O 	O 	0.73623 0.50185 0.56568 -0.37900
O 	O 	0.63493 0.32290 0.51514 -0.70200
O 	O 	0.56989 0.16283 0.52855 -0.37600
O 	O 	0.64037 0.46928 0.51324 -0.37200
O 	O 	0.53969 0.38482 0.52279 -0.42000
Ni	Ni	0.54362 0.29642 0.50205 1.07000
H 	H 	0.68233 0.35297 0.59082 0.15300
H 	H 	0.66040 0.31926 0.49647 0.16100
C 	C 	0.80077 0.41239 0.50480 0.30800
O 	O 	0.48776 0.23621 0.53783 -0.40400
C 	C 	0.72334 0.21138 0.58760 0.29300
C 	C 	0.79050 0.50580 0.58047 0.29500
C 	C 	0.50449 0.24242 0.56840 0.32700
C 	C 	0.57602 0.44655 0.51196 0.28400
C 	C 	0.54235 0.15506 0.49961 0.31100
O 	O 	0.76038 0.44397 0.50765 -0.36500
O 	O 	0.82296 0.46909 0.56965 -0.41200
C 	C 	0.04553 0.96746 0.70231 -0.05600
H 	H 	0.04608 0.94934 0.67723 0.04100
C 	C 	0.04151 0.00747 0.76270 -0.05000
H 	H 	0.04039 0.02501 0.78787 0.04100
C 	C 	0.99674 0.00105 0.70824 0.01100
C 	C 	0.02566 0.90855 0.72694 0.00200
C 	C 	0.11082 0.02145 0.71582 0.01000
C 	C 	0.02328 0.92931 0.75822 0.00300
C 	C 	0.10847 0.04146 0.74703 0.00200
Ni	Ni	0.20751 0.66804 0.40982 1.09800
O 	O 	0.29179 0.70496 0.38445 -0.71000
Ni	Ni	0.35589 0.69858 0.41683 1.09900
O 	O 	0.15497 0.68355 0.37220 -0.37500
O 	O 	0.22360 0.79795 0.37033 -0.41800
O 	O 	0.18598 0.56972 0.39108 -0.37600
Ni	Ni	0.31856 0.80317 0.37488 1.06300
O 	O 	0.14394 0.53545 0.44950 -0.40800
O 	O 	0.31533 0.82897 0.42183 -0.42400
O 	O 	0.43491 0.73379 0.38740 -0.38200
O 	O 	0.27270 0.66915 0.44408 -0.69600
O 	O 	0.12525 0.63142 0.43669 -0.38700
O 	O 	0.41107 0.66778 0.44795 -0.36300
O 	O 	0.33413 0.59127 0.47979 -0.40400
Ni	Ni	0.24261 0.57384 0.45991 1.06600
H 	H 	0.28979 0.67702 0.36488 0.15100
H 	H 	0.27575 0.70269 0.46153 0.16000
C 	C 	0.36457 0.83757 0.44118 0.31100
O 	O 	0.26263 0.54075 0.41698 -0.43100
C 	C 	0.17450 0.74382 0.35797 0.29800
C 	C 	0.44974 0.79287 0.37206 0.29700
C 	C 	0.22721 0.53871 0.39114 0.29400
C 	C 	0.38821 0.60875 0.46332 0.30100
C 	C 	0.10768 0.57204 0.45149 0.30000
O 	O 	0.39344 0.79395 0.44011 -0.36700
O 	O 	0.41790 0.83303 0.37825 -0.41500
Ni	Ni	0.41047 0.76767 0.04737 1.10200
O 	O 	0.32433 0.71185 0.02356 -0.70300
Ni	Ni	0.25959 0.71640 0.05512 1.10000
O 	O 	0.46324 0.72162 0.02322 -0.37300
O 	O 	0.38670 0.61493 0.03588 -0.41800
O 	O 	0.43589 0.84638 0.01396 -0.36700
Ni	Ni	0.30158 0.61319 0.01441 1.07000
O 	O 	0.45795 0.91876 0.07831 -0.41100
O 	O 	0.24517 0.55649 0.05149 -0.40100
O 	O 	0.17419 0.64231 0.03591 -0.38100
O 	O 	0.34547 0.78352 0.07566 -0.70000
O 	O 	0.49138 0.82868 0.07289 -0.38100
O 	O 	0.20684 0.74401 0.08818 -0.38100
O 	O 	0.25749 0.85863 0.07505 -0.41700
Ni	Ni	0.35760 0.88028 0.07599 1.06600
H 	H 	0.32048 0.73555 0.00375 0.16000
H 	H 	0.35080 0.76990 0.09781 0.15200
C 	C 	0.24539 0.58053 0.08076 0.33300
O 	O 	0.35621 0.88301 0.02756 -0.42200
C 	C 	0.44408 0.65359 0.02423 0.28300
C 	C 	0.16804 0.61043 0.00764 0.30300
C 	C 	0.40920 0.89216 0.01189 0.30900
C 	C 	0.21405 0.80900 0.09196 0.29400
C 	C 	0.49167 0.88330 0.08904 0.29700
O 	O 	0.26887 0.64729 0.08671 -0.41100
O 	O 	0.21889 0.60892 0.99213 -0.41600
C 	C 	0.86750 0.07247 0.22847 0.00800
C 	C 	0.88203 0.07048 0.26049 0.00400
C 	C 	0.14701 0.41757 0.12786 0.00100
C 	C 	0.16572 0.36621 0.14015 -0.03500
C 	C 	0.12942 0.32271 0.16434 -0.05100
C 	C 	0.07268 0.32870 0.17572 0.02800
C 	C 	0.05449 0.38066 0.16365 -0.05100
C 	C 	0.09128 0.42470 0.13974 -0.03400
C 	C 	0.03212 0.28083 0.20032 -0.05400
C 	C 	0.02005 0.21000 0.19914 -0.04200
C 	C 	0.18536 0.46335 0.10223 0.01400
C 	C 	0.21293 0.53262 0.10687 -0.15300
H 	H 	0.20882 0.36057 0.13126 0.03700
H 	H 	0.14548 0.28456 0.17426 0.04000
H 	H 	0.07622 0.46400 0.13028 0.04100
H 	H 	0.03540 0.18948 0.17822 0.03900
H 	H 	0.19199 0.44017 0.07985 0.03700
H 	H 	0.20916 0.55465 0.13009 0.07900
C 	C 	0.57457 0.94742 0.16914 -0.00500
C 	C 	0.60860 0.01523 0.18105 -0.03200
C 	C 	0.66433 0.03076 0.20048 -0.05100
C 	C 	0.68679 0.97853 0.20752 0.02800
C 	C 	0.64816 0.90941 0.19876 -0.05200
C 	C 	0.59207 0.89383 0.17971 -0.03400
C 	C 	0.75164 0.99586 0.22276 -0.05400
C 	C 	0.80447 0.05840 0.21624 -0.03800
C 	C 	0.52836 0.93453 0.14201 0.00700
C 	C 	0.54284 0.91520 0.11344 -0.15300
H 	H 	0.59396 0.05648 0.17391 0.03400
H 	H 	0.69101 0.08354 0.20923 0.04000
H 	H 	0.66339 0.86825 0.20534 0.04000
H 	H 	0.56450 0.84078 0.17149 0.03500
H 	H 	0.76004 0.95576 0.23599 0.04400
H 	H 	0.79966 0.08978 0.19664 0.03900
H 	H 	0.48124 0.93722 0.14574 0.00600
H 	H 	0.59039 0.91328 0.10999 0.08400
C 	C 	0.11465 0.90112 0.13006 0.00000
C 	C 	0.09467 0.95151 0.11771 -0.03400
C 	C 	0.04663 0.96682 0.13315 -0.05400
C 	C 	0.01895 0.93261 0.16144 0.02900
C 	C 	0.03709 0.88040 0.17312 -0.05400
C 	C 	0.08569 0.86566 0.15793 -0.03500
C 	C 	0.16798 0.88805 0.11451 0.00500
C 	C 	0.16280 0.82286 0.10891 -0.15000
H 	H 	0.11658 0.97904 0.09622 0.03600
H 	H 	0.03180 0.00612 0.12350 0.04300
H 	H 	0.01523 0.85299 0.19464 0.04200
H 	H 	0.10168 0.82772 0.16815 0.03500
H 	H 	0.03725 0.06093 0.17980 0.03500
H 	H 	0.21001 0.93202 0.10596 0.02500
H 	H 	0.11978 0.77899 0.11668 0.07900
C 	C 	0.72261 0.01010 0.30560 0.03100
C 	C 	0.66505 0.00951 0.29142 -0.04900
C 	C 	0.60397 0.96555 0.30275 -0.03700
C 	C 	0.59948 0.92302 0.32910 0.00100
C 	C 	0.65715 0.92331 0.34336 -0.03300
C 	C 	0.71848 0.96649 0.33157 -0.05300
C 	C 	0.53566 0.88966 0.34510 0.00600
C 	C 	0.51346 0.82382 0.35569 -0.14400
C 	C 	0.78693 0.05764 0.29330 -0.05300
C 	C 	0.83155 0.03320 0.28434 -0.03400
H 	H 	0.66765 0.04369 0.27176 0.04100
H 	H 	0.55999 0.96646 0.29179 0.03100
H 	H 	0.65465 0.89229 0.36427 0.04200
H 	H 	0.76259 0.96736 0.34314 0.04300
H 	H 	0.50499 0.91880 0.34691 0.03000
H 	H 	0.54259 0.79328 0.35267 0.07600
H 	H 	0.79277 0.10937 0.28604 0.04500
H 	H 	0.82719 0.98225 0.29198 0.03600
C 	C 	0.13160 0.25755 0.30995 0.03000
C 	C 	0.13375 0.25006 0.34323 -0.05200
C 	C 	0.17200 0.30671 0.36272 -0.03300
C 	C 	0.20825 0.37120 0.34904 0.00100
C 	C 	0.21117 0.37675 0.31552 -0.03400
C 	C 	0.17287 0.32011 0.29603 -0.05200
C 	C 	0.23703 0.43378 0.36990 0.00800
C 	C 	0.22160 0.48870 0.36505 -0.14900
C 	C 	0.08410 0.20087 0.29006 -0.05300
C 	C 	0.04259 0.21432 0.26813 -0.04100
H 	H 	0.10361 0.20128 0.35409 0.04100
H 	H 	0.17083 0.30144 0.38853 0.03500
H 	H 	0.24130 0.42553 0.30465 0.03400
H 	H 	0.17406 0.32533 0.27022 0.04100
H 	H 	0.26169 0.43032 0.39205 0.03300
H 	H 	0.19582 0.49121 0.34311 0.07500
H 	H 	0.07901 0.14795 0.29406 0.04100
H 	H 	0.05115 0.26778 0.26307 0.04100
C 	C 	0.02269 0.89455 0.27179 0.02100
C 	C 	0.99973 0.85026 0.29779 -0.04400
C 	C 	0.03945 0.82108 0.31225 -0.03800
C 	C 	0.10187 0.83434 0.30012 0.00100
C 	C 	0.12299 0.87528 0.27285 -0.03800
C 	C 	0.08368 0.90539 0.25877 -0.05100
C 	C 	0.14921 0.81559 0.31867 0.00900
C 	C 	0.13047 0.75521 0.33426 -0.15300
C 	C 	0.01001 0.00127 0.25780 -0.04200
H 	H 	0.02293 0.79087 0.33369 0.04200
H 	H 	0.17089 0.88577 0.26325 0.03000
H 	H 	0.10130 0.93856 0.23828 0.04000
H 	H 	0.20002 0.85251 0.32010 0.01900
H 	H 	0.08162 0.71509 0.33030 0.08000
H 	H 	0.05961 0.03103 0.26663 0.03900
C 	C 	0.39920 0.90438 0.45584 -0.09900
C 	C 	0.43085 0.96145 0.46674 0.03300
C 	C 	0.46961 0.02875 0.47837 0.03800
C 	C 	0.50314 0.08646 0.48796 -0.09800
C 	C 	0.86404 0.44858 0.49072 -0.09700
C 	C 	0.04080 0.53831 0.46181 -0.09800
C 	C 	0.43392 0.57935 0.47263 -0.09300
C 	C 	0.47140 0.55386 0.48090 0.03000
C 	C 	0.51288 0.52145 0.49117 0.03100
C 	C 	0.54463 0.49001 0.50042 -0.10100
C 	C 	0.81248 0.10766 0.62504 0.00200
C 	C 	0.83931 0.06338 0.61181 -0.03500
C 	C 	0.86384 0.02609 0.63180 -0.04800
C 	C 	0.86266 0.03370 0.66521 0.02800
C 	C 	0.83376 0.07600 0.67846 -0.05200
C 	C 	0.80925 0.11331 0.65851 -0.03500
C 	C 	0.79500 0.15379 0.60393 0.00500
C 	C 	0.73882 0.16235 0.60758 -0.14900
H 	H 	0.84207 0.05872 0.58603 0.03900
H 	H 	0.83263 0.08210 0.70422 0.04100
H 	H 	0.78982 0.14834 0.66905 0.03300
H 	H 	0.86801 0.97349 0.70747 0.04300
H 	H 	0.82759 0.17937 0.58457 0.03500
H 	H 	0.70364 0.13220 0.62515 0.07600
C 	C 	0.22909 0.08518 0.64659 0.02800
C 	C 	0.23338 0.05490 0.61706 -0.05100
C 	C 	0.28720 0.08739 0.59749 -0.03400
C 	C 	0.33739 0.15068 0.60717 0.00200
C 	C 	0.33385 0.18057 0.63704 -0.03500
C 	C 	0.27993 0.14794 0.65667 -0.05100
C 	C 	0.38901 0.18904 0.58420 0.01100
C 	C 	0.45294 0.21491 0.59272 -0.14900
C 	C 	0.16780 0.05541 0.66483 -0.05400
C 	C 	0.16903 0.04600 0.69803 -0.04200
H 	H 	0.19426 0.00685 0.60894 0.04000
H 	H 	0.28919 0.06412 0.57443 0.03900
H 	H 	0.37152 0.23016 0.64451 0.03600
H 	H 	0.27652 0.17278 0.67907 0.03900
H 	H 	0.37466 0.19063 0.55932 0.03700
H 	H 	0.46734 0.21237 0.61750 0.07700
H 	H 	0.12147 0.04159 0.65203 0.04000
H 	H 	0.21605 0.06279 0.71051 0.04200
C 	C 	0.91043 0.62507 0.64225 -0.00100
C 	C 	0.86912 0.56259 0.62369 0.01000
C 	C 	0.82464 0.56493 0.60228 -0.15200
H 	H 	0.88341 0.57613 0.68817 0.03200
H 	H 	0.87516 0.51429 0.62748 0.01100
H 	H 	0.81442 0.61130 0.60058 0.08300
H 	H 	0.07513 0.84020 0.68953 0.04400
C 	C 	0.04889 0.53700 0.98555 0.02800
C 	C 	0.10374 0.57071 0.99508 -0.09200
C 	C 	0.44573 0.95927 0.99833 -0.10000
C 	C 	0.47566 0.01695 0.98818 0.03700
C 	C 	0.51063 0.08489 0.97653 0.03200
C 	C 	0.54107 0.14184 0.96575 -0.09600
C 	C 	0.57927 0.51344 0.98407 -0.09600
C 	C 	0.55129 0.54878 0.99332 0.03200
C 	C 	0.51726 0.58907 0.00398 0.02700
C 	C 	0.48580 0.62085 0.01313 -0.10000
C 	C 	0.81324 0.06336 0.77468 -0.05300
C 	C 	0.77645 0.09766 0.78753 -0.03500
C 	C 	0.80567 0.15398 0.80899 0.00100
C 	C 	0.76365 0.18047 0.82724 0.00800
C 	C 	0.78444 0.24793 0.83595 -0.15000
H 	H 	0.78967 0.01838 0.75904 0.04000
H 	H 	0.72466 0.07891 0.78171 0.03300
H 	H 	0.71547 0.14382 0.83418 0.02900
H 	H 	0.82992 0.28570 0.82666 0.07700
C 	C 	0.37488 0.22640 0.81843 -0.00200
C 	C 	0.37999 0.22445 0.78500 -0.03500
C 	C 	0.32399 0.20552 0.76546 -0.05300
C 	C 	0.26255 0.18760 0.77928 0.03000
C 	C 	0.25813 0.19508 0.81248 -0.05200
C 	C 	0.31375 0.21300 0.83206 -0.03200
C 	C 	0.20311 0.14896 0.76015 -0.05600
C 	C 	0.16729 0.08208 0.76640 -0.03700
C 	C 	0.43211 0.23549 0.83902 0.01100
C 	C 	0.44429 0.27355 0.86621 -0.15600
H 	H 	0.42697 0.23527 0.77425 0.03000
H 	H 	0.32783 0.20058 0.73977 0.03900
H 	H 	0.21084 0.18227 0.82327 0.04200
H 	H 	0.30881 0.21324 0.85784 0.04000
H 	H 	0.19133 0.17321 0.73948 0.04300
H 	H 	0.17941 0.05798 0.78701 0.04000
H 	H 	0.46545 0.21219 0.83149 0.01100
H 	H 	0.41486 0.30254 0.87217 0.08100
C 	C 	0.89625 0.68432 0.86325 0.00300
C 	C 	0.86509 0.71932 0.84572 -0.03500
C 	C 	0.89770 0.76320 0.82088 -0.05000
C 	C 	0.86010 0.63491 0.88818 0.01400
C 	C 	0.84803 0.56717 0.88496 -0.15200
H 	H 	0.81504 0.71123 0.85080 0.03800
H 	H 	0.87213 0.78779 0.80674 0.04000
H 	H 	0.83772 0.65269 0.90738 0.03600
H 	H 	0.86646 0.54902 0.86432 0.08000
H 	H 	0.01131 0.38628 0.17244 0.04000
H 	H 	0.88466 0.99220 0.62134 0.04000
C 	C 	0.02474 0.80907 0.69586 -0.06300
C 	C 	0.87292 0.17731 0.81649 -0.03300
H 	H 	0.04383 0.74699 0.82649 0.03800
H 	H 	0.03461 0.81015 0.77478 0.04200
C 	C 	0.91243 0.62331 0.67581 -0.03500
H 	H 	0.91360 0.09417 0.18034 0.04300
C 	C 	0.91899 0.47752 0.48071 0.03300
C 	C 	0.89403 0.00008 0.68646 -0.05000
C 	C 	0.87981 0.08580 0.78272 0.02900
H 	H 	0.89588 0.21926 0.83376 0.04100
H 	H 	0.90566 0.99448 0.78419 0.04100
C 	C 	0.92715 0.46680 0.96817 -0.10200
C 	C 	0.96093 0.69470 0.85625 -0.03500
C 	C 	0.92621 0.09315 0.20617 -0.05200
H 	H 	0.93070 0.91509 0.19000 0.04400
H 	H 	0.93276 0.90249 0.25263 0.04000
C 	C 	0.94967 0.68578 0.62641 -0.03300
C 	C 	0.95096 0.68296 0.69348 -0.05400
H 	H 	0.94983 0.68694 0.60045 0.04200
H 	H 	0.95147 0.68161 0.71943 0.04200
H 	H 	0.94312 0.80502 0.72210 0.04000
C 	C 	0.90985 0.14373 0.80312 -0.05200
C 	C 	0.91602 0.04401 0.77280 -0.05400
C 	C 	0.96279 0.77436 0.81407 0.02700
C 	C 	0.95455 0.08850 0.26784 -0.05200
H 	H 	0.96541 0.08573 0.29374 0.04400
C 	C 	0.95697 0.04140 0.21403 0.00200
H 	H 	0.95234 0.84100 0.30772 0.04000
C 	C 	0.96021 0.01258 0.68301 -0.04100
H 	H 	0.98548 0.66801 0.86973 0.04200
H 	H 	0.96437 0.90091 0.80031 0.03800
H 	H 	0.01785 0.79218 0.63164 0.03800
C 	C 	0.97457 0.95457 0.18016 -0.05500
C 	C 	0.97592 0.16247 0.22007 0.00600
C 	C 	0.97053 0.03843 0.24597 0.00800
C 	C 	0.98812 0.74448 0.67760 0.03300
C 	C 	0.98855 0.74514 0.64404 -0.05100
C 	C 	0.95956 0.06515 0.74929 -0.03700
H 	H 	0.96119 0.16095 0.80966 0.04300
H 	H 	0.96734 0.11271 0.73662 0.04100
C 	C 	0.99395 0.73936 0.83169 -0.04700
C 	C 	0.98980 0.88319 0.78255 -0.03900
C 	C 	0.99089 0.15996 0.25216 0.01000
C 	C 	0.98398 0.93173 0.25914 -0.04800
C 	C 	0.98459 0.51044 0.47029 0.03500
H 	H 	0.98214 0.02525 0.65958 0.03900
C 	C 	0.99374 0.83540 0.71592 -0.03000
C 	C 	0.98374 0.49827 0.97562 0.04100
C 	C 	0.99804 0.82127 0.78796 -0.05200
C 	C 	0.99501 0.02204 0.73940 0.00500
C 	C 	0.99300 0.02128 0.18921 -0.03000
H 	H 	0.00635 0.29975 0.21740 0.04100
