data_crystal

_cell_length_a 36.03269
_cell_length_b 38.55029
_cell_length_c 29.97905
_cell_angle_alpha 89.50096
_cell_angle_beta  90.00000
_cell_angle_gamma 90.00000

_symmetry_space_group_name_	'P 1'
_symmetry_space_group_name_H-M	'P 1'

loop_
_symmetry_equiv_pos_as_xyz
  x,y,z

loop_
_atom_site_label
_atom_site_type_symbol
_atom_site_fract_x
_atom_site_fract_y
_atom_site_fract_z
_atom_site_charge
C 	C 	0.47212 0.57119 0.89384 0.10400
N 	N 	0.45982 0.54061 0.91007 -0.17200
C 	C 	0.42347 0.53883 0.89996 0.10400
C 	C 	0.39775 0.51462 0.92296 -0.07500
C 	C 	0.40905 0.47829 0.93114 0.09200
C 	C 	0.35967 0.52570 0.93451 0.05000
C 	C 	0.35403 0.55336 0.96384 -0.06100
C 	C 	0.31800 0.56293 0.97600 -0.01100
C 	C 	0.28738 0.54466 0.95924 -0.01700
C 	C 	0.32905 0.50778 0.91727 -0.05900
N 	N 	0.43588 0.46243 0.90756 -0.12600
C 	C 	0.39987 0.45943 0.96900 -0.05900
C 	C 	0.44316 0.43285 0.93020 0.09100
C 	C 	0.47541 0.41056 0.92051 -0.07600
C 	C 	0.47231 0.37271 0.92782 0.05000
C 	C 	0.44048 0.31843 0.91389 -0.01000
C 	C 	0.49493 0.35599 0.95942 -0.06200
C 	C 	0.49010 0.32063 0.96859 -0.01100
C 	C 	0.46249 0.30176 0.94626 -0.01600
N 	N 	0.52233 0.45699 0.90907 -0.17300
C 	C 	0.55727 0.45812 0.89318 0.10300
C 	C 	0.56613 0.42721 0.87242 -0.06000
C 	C 	0.53504 0.40637 0.87589 -0.06000
C 	C 	0.58507 0.48348 0.90904 -0.07600
C 	C 	0.62408 0.47293 0.91545 0.05000
C 	C 	0.68858 0.47675 0.89290 -0.01000
C 	C 	0.69936 0.45933 0.93219 -0.01700
C 	C 	0.67205 0.44754 0.96220 -0.01100
C 	C 	0.63454 0.45427 0.95375 -0.06300
N 	N 	0.54479 0.53469 0.89454 -0.12700
C 	C 	0.56810 0.57145 0.94547 -0.06000
C 	C 	0.54111 0.56611 0.91345 0.09100
C 	C 	0.50713 0.58733 0.90907 -0.07600
C 	C 	0.50899 0.62508 0.91691 0.04900
C 	C 	0.53127 0.64616 0.88958 -0.06000
C 	C 	0.53445 0.68160 0.89812 -0.01100
C 	C 	0.51553 0.69632 0.93435 -0.01700
C 	C 	0.49285 0.67518 0.96140 -0.01200
C 	C 	0.48955 0.63973 0.95261 -0.06200
C 	C 	0.44353 0.58913 0.87306 -0.06000
C 	C 	0.41239 0.56840 0.87694 -0.06000
C 	C 	0.29309 0.51715 0.92966 -0.01000
C 	C 	0.42180 0.43019 0.96837 -0.05900
C 	C 	0.50872 0.42554 0.89866 0.10300
C 	C 	0.58980 0.54207 0.94583 -0.05900
C 	C 	0.57486 0.52036 0.91407 0.09100
C 	C 	0.65113 0.48364 0.88472 -0.06100
H 	H 	0.47228 0.52710 0.93649 0.09400
H 	H 	0.51268 0.47210 0.93543 0.09400
H 	H 	0.55154 0.69761 0.87651 0.05000
H 	H 	0.47823 0.68605 0.98958 0.04700
H 	H 	0.54619 0.63504 0.86178 0.05600
H 	H 	0.47231 0.62358 0.97389 0.04900
H 	H 	0.31394 0.58414 0.99897 0.04600
H 	H 	0.33315 0.48652 0.89439 0.05600
H 	H 	0.26966 0.50313 0.91611 0.05100
H 	H 	0.37753 0.56724 0.97746 0.05000
H 	H 	0.50722 0.30812 0.99370 0.04800
H 	H 	0.51581 0.37051 0.97737 0.05100
C 	C 	0.44536 0.35372 0.90477 -0.05900
H 	H 	0.41950 0.30407 0.89591 0.05100
H 	H 	0.70923 0.48533 0.86898 0.04900
H 	H 	0.64318 0.49780 0.85485 0.05600
H 	H 	0.61372 0.44581 0.97754 0.05000
H 	H 	0.67989 0.43406 0.99262 0.04600
H 	H 	0.44285 0.61693 0.86771 0.05500
H 	H 	0.38414 0.57783 0.87484 0.05500
H 	H 	0.38749 0.47022 0.99871 0.05200
H 	H 	0.42897 0.41482 0.99751 0.05200
H 	H 	0.59403 0.41760 0.86737 0.05500
H 	H 	0.53545 0.37836 0.87373 0.05600
H 	H 	0.56551 0.58911 0.97320 0.05100
H 	H 	0.60667 0.53362 0.97376 0.05100
H 	H 	0.42796 0.36641 0.88008 0.05700
Co	Co	0.41762 0.09475 0.97728 1.17600
Co	Co	0.43326 0.01514 0.98249 1.10000
O 	O 	0.40489 0.14605 0.97843 -0.35000
O 	O 	0.46300 0.13768 0.98662 -0.28900
O 	O 	0.37003 0.07083 0.96676 -0.38500
O 	O 	0.42024 0.02915 0.92042 -0.44100
C 	C 	0.35851 0.04553 0.99307 0.22000
C 	C 	0.43668 0.16029 0.98481 0.26700
O 	O 	0.38234 0.02342 0.01060 -0.36000
O 	O 	0.44205 0.08464 0.92144 -0.41900
C 	C 	0.43611 0.05557 0.90014 0.34200
O 	O 	0.42254 0.08426 0.03972 -0.40900
O 	O 	0.46469 0.04282 0.02316 -0.42700
C 	C 	0.44897 0.06316 0.05251 0.34100
S 	S 	0.46408 0.02008 0.52968 0.01600
C 	C 	0.48807 0.02093 0.57890 -0.01500
C 	C 	0.51909 0.99852 0.57813 -0.01300
S 	S 	0.52285 0.97798 0.52779 0.01300
C 	C 	0.48643 0.99157 0.49725 -0.00700
C 	C 	0.48674 0.99383 0.44841 -0.00700
S 	S 	0.50777 0.96497 0.41529 0.01200
C 	C 	0.51777 0.98693 0.36681 -0.01300
C 	C 	0.50667 0.02210 0.36904 -0.01300
S 	S 	0.48682 0.03132 0.41954 0.01300
C 	C 	0.52909 0.94806 0.23501 0.04200
C 	C 	0.49381 0.95069 0.25446 -0.04200
C 	C 	0.49024 0.96061 0.29896 -0.03300
C 	C 	0.52187 0.96879 0.32408 0.02200
C 	C 	0.55721 0.96461 0.30531 -0.03300
C 	C 	0.56084 0.95389 0.26105 -0.03100
H 	H 	0.46916 0.94577 0.23481 0.05700
H 	H 	0.46283 0.96367 0.31326 0.04800
H 	H 	0.58178 0.97083 0.32447 0.05200
H 	H 	0.58823 0.95109 0.24663 0.06600
C 	C 	0.48352 0.06078 0.23974 0.05100
C 	C 	0.52009 0.06143 0.25571 -0.02800
C 	C 	0.52752 0.05251 0.30010 -0.02700
C 	C 	0.49843 0.04271 0.32866 0.02300
C 	C 	0.46161 0.04568 0.31385 -0.03100
C 	C 	0.45420 0.05448 0.26945 -0.03900
H 	H 	0.54285 0.06714 0.23323 0.08400
H 	H 	0.55602 0.05076 0.31139 0.05500
H 	H 	0.43890 0.03842 0.33569 0.04900
H 	H 	0.42581 0.05446 0.25752 0.05900
C 	C 	0.45391 0.04527 0.71031 0.04300
C 	C 	0.44186 0.01441 0.69056 -0.03400
C 	C 	0.44963 0.00803 0.64574 -0.03300
C 	C 	0.47060 0.03193 0.62075 0.02400
C 	C 	0.48093 0.06358 0.63981 -0.03400
C 	C 	0.47266 0.07022 0.68449 -0.03800
H 	H 	0.42748 0.99494 0.71029 0.06300
H 	H 	0.44157 0.98351 0.63127 0.05000
H 	H 	0.49714 0.08216 0.62077 0.05000
H 	H 	0.48190 0.09420 0.69943 0.05700
C 	C 	0.54428 0.96457 0.70917 0.04300
C 	C 	0.55778 0.99663 0.69387 -0.03300
C 	C 	0.55382 0.00605 0.64899 -0.03300
C 	C 	0.53523 0.98397 0.61944 0.02400
C 	C 	0.52442 0.95078 0.63408 -0.03400
C 	C 	0.52878 0.94119 0.67884 -0.03700
H 	H 	0.57000 0.01476 0.71705 0.06100
H 	H 	0.56258 0.03160 0.63795 0.05000
H 	H 	0.51010 0.93345 0.61162 0.04900
H 	H 	0.51865 0.91621 0.69034 0.05700
Co	Co	0.57606 0.90093 0.97204 1.17600
Co	Co	0.48996 0.90641 0.96927 1.09600
O 	O 	0.63233 0.89735 0.97043 -0.34400
O 	O 	0.61453 0.94471 0.99999 -0.29200
O 	O 	0.55766 0.85701 0.94701 -0.39500
O 	O 	0.51226 0.93135 0.02060 -0.45600
C 	C 	0.52992 0.83996 0.96553 0.28200
C 	C 	0.64246 0.92621 0.98779 0.23900
O 	O 	0.50377 0.85676 0.98702 -0.40200
O 	O 	0.55988 0.89420 0.03266 -0.39800
C 	C 	0.53436 0.91487 0.04837 0.34900
O 	O 	0.56636 0.93124 0.92170 -0.42900
O 	O 	0.51006 0.90667 0.90761 -0.43700
C 	C 	0.53774 0.92673 0.89521 0.33300
Co	Co	0.07086 0.60061 0.99220 1.17500
Co	Co	0.98575 0.58861 0.99770 1.08600
O 	O 	0.12638 0.60994 0.99248 -0.37400
O 	O 	0.11439 0.55682 0.00650 -0.27900
O 	O 	0.04712 0.64528 0.97701 -0.41400
O 	O 	0.00029 0.59720 0.93451 -0.46000
C 	C 	0.02015 0.65812 0.00146 0.31100
C 	C 	0.13997 0.57996 0.00217 0.32600
O 	O 	0.99571 0.63749 0.02069 -0.38900
O 	O 	0.05889 0.57518 0.93879 -0.42200
C 	C 	0.02862 0.58155 0.91584 0.33600
O 	O 	0.05981 0.60005 0.05478 -0.39800
O 	O 	0.01425 0.56098 0.04214 -0.45300
C 	C 	0.03661 0.57673 0.06998 0.34300
S 	S 	0.96287 0.46804 0.44226 0.01300
C 	C 	0.98332 0.47301 0.39096 -0.01400
C 	C 	0.00349 0.50441 0.38799 -0.01300
S 	S 	0.00093 0.52740 0.43649 0.01400
C 	C 	0.97385 0.50388 0.47089 -0.00900
C 	C 	0.97562 0.50553 0.51980 -0.00600
S 	S 	0.99845 0.53636 0.54798 0.01200
C 	C 	0.00935 0.51814 0.59860 -0.01100
C 	C 	0.99685 0.48343 0.60187 -0.01500
S 	S 	0.97515 0.47066 0.55380 0.01000
C 	C 	0.02572 0.56228 0.72590 0.05200
C 	C 	0.99102 0.56525 0.70499 -0.02700
C 	C 	0.98638 0.55392 0.66124 -0.02900
C 	C 	0.01638 0.53942 0.63814 0.02400
C 	C 	0.05176 0.53934 0.65761 -0.03200
C 	C 	0.05637 0.55045 0.70153 -0.04000
H 	H 	0.96732 0.57494 0.72330 0.08000
H 	H 	0.95898 0.55425 0.64635 0.05400
H 	H 	0.07514 0.52845 0.63985 0.04800
H 	H 	0.08338 0.54847 0.71723 0.05700
C 	C 	0.97639 0.45099 0.73548 0.03900
C 	C 	0.01288 0.45225 0.71928 -0.03900
C 	C 	0.01949 0.45923 0.67415 -0.03100
C 	C 	0.98974 0.46632 0.64525 0.02100
C 	C 	0.95320 0.46290 0.66092 -0.03300
C 	C 	0.94656 0.45479 0.70575 -0.03000
H 	H 	0.03608 0.44875 0.74185 0.05600
H 	H 	0.04779 0.46115 0.66219 0.04700
H 	H 	0.92998 0.46823 0.63896 0.05100
H 	H 	0.91827 0.45289 0.71776 0.06300
C 	C 	0.94924 0.44091 0.26286 0.05000
C 	C 	0.92285 0.45393 0.29271 -0.03800
C 	C 	0.93284 0.46072 0.33683 -0.03200
C 	C 	0.96947 0.45507 0.35112 0.02300
C 	C 	0.99484 0.43912 0.32231 -0.02900
C 	C 	0.98482 0.43226 0.27824 -0.03100
H 	H 	0.89517 0.46031 0.28119 0.05900
H 	H 	0.91297 0.47291 0.35881 0.04900
H 	H 	0.02310 0.43440 0.33311 0.05600
H 	H 	0.00520 0.42171 0.25551 0.08100
C 	C 	0.02469 0.54113 0.25611 0.04400
C 	C 	0.05410 0.52887 0.28259 -0.03100
C 	C 	0.04763 0.51861 0.32677 -0.03300
C 	C 	0.01195 0.52132 0.34502 0.02400
C 	C 	0.98314 0.53577 0.31943 -0.03400
C 	C 	0.98933 0.54511 0.27495 -0.04400
H 	H 	0.08170 0.52649 0.26861 0.06600
H 	H 	0.07005 0.50755 0.34634 0.05200
H 	H 	0.95554 0.53819 0.33340 0.04700
H 	H 	0.96655 0.55492 0.25491 0.05500
Co	Co	0.91171 0.39777 0.99425 1.17400
Co	Co	0.92360 0.47812 0.99160 1.09300
O 	O 	0.90184 0.34600 0.99106 -0.35400
O 	O 	0.95972 0.35709 0.98781 -0.27500
O 	O 	0.86238 0.41943 0.00117 -0.35800
O 	O 	0.90768 0.46228 0.05197 -0.41900
C 	C 	0.85125 0.44486 0.97478 0.25400
C 	C 	0.93464 0.33327 0.98707 0.28000
O 	O 	0.87517 0.46765 0.95903 -0.41100
O 	O 	0.93241 0.40799 0.05220 -0.41000
C 	C 	0.92459 0.43686 0.07312 0.33100
O 	O 	0.91967 0.40942 0.93260 -0.41500
O 	O 	0.95869 0.45240 0.95312 -0.46200
C 	C 	0.94588 0.43156 0.92234 0.34900
C 	C 	0.97829 0.92615 0.08630 0.10200
N 	N 	0.96447 0.95701 0.07309 -0.17300
C 	C 	0.92963 0.95872 0.08913 0.10600
C 	C 	0.90171 0.98323 0.07106 -0.07800
C 	C 	0.91192 0.01983 0.06270 0.09800
C 	C 	0.86331 0.97158 0.06241 0.05800
C 	C 	0.85616 0.94771 0.02847 -0.07600
C 	C 	0.81960 0.93893 0.01771 0.03000
C 	C 	0.78982 0.95387 0.04103 -0.02700
C 	C 	0.83374 0.98589 0.08641 -0.06400
N 	N 	0.94234 0.03461 0.08062 -0.12500
C 	C 	0.89834 0.03947 0.02744 -0.07200
C 	C 	0.94752 0.06415 0.05711 0.07900
C 	C 	0.98092 0.08609 0.06141 -0.06500
C 	C 	0.97786 0.12382 0.05299 0.04300
C 	C 	0.94686 0.17851 0.06691 -0.00600
C 	C 	0.99815 0.13945 0.01832 -0.03600
C 	C 	0.99248 0.17445 0.00761 0.01400
C 	C 	0.96630 0.19398 0.03137 -0.01800
N 	N 	0.02848 0.03953 0.06589 -0.17100
C 	C 	0.06480 0.03838 0.07652 0.10300
C 	C 	0.07574 0.06921 0.09601 -0.05700
C 	C 	0.04453 0.09002 0.09727 -0.05700
C 	C 	0.09069 0.01258 0.05743 -0.06600
C 	C 	0.13013 0.02142 0.05041 0.04400
C 	C 	0.19464 0.01486 0.07203 -0.00500
C 	C 	0.20586 0.03202 0.03273 -0.02500
C 	C 	0.17882 0.04479 0.00300 0.01800
C 	C 	0.14111 0.03955 0.01191 -0.03700
N 	N 	0.05134 0.96143 0.07523 -0.12300
C 	C 	0.06574 0.92748 0.01685 -0.03500
C 	C 	0.04402 0.93128 0.05454 0.08500
C 	C 	0.01085 0.91006 0.06451 -0.07100
C 	C 	0.01116 0.87249 0.05469 0.05900
C 	C 	0.04015 0.85148 0.07066 -0.06300
C 	C 	0.04119 0.81626 0.06020 0.00100
C 	C 	0.01300 0.80161 0.03416 -0.02600
C 	C 	0.98379 0.82251 0.01854 0.03000
C 	C 	0.98305 0.85789 0.02843 -0.07600
C 	C 	0.95220 0.90798 0.11119 -0.05900
C 	C 	0.92103 0.92881 0.11292 -0.06000
C 	C 	0.79718 0.97700 0.07594 -0.00100
C 	C 	0.92118 0.06798 0.02396 -0.01700
C 	C 	0.01605 0.07093 0.07843 0.10400
C 	C 	0.08797 0.95650 0.01464 -0.03300
C 	C 	0.07852 0.97643 0.05099 0.08400
C 	C 	0.15697 0.00948 0.08069 -0.05800
H 	H 	0.97387 0.97090 0.04519 0.09700
H 	H 	0.01618 0.02449 0.04110 0.09800
H 	H 	0.06371 0.80028 0.07268 0.05300
H 	H 	0.96196 0.81145 0.99828 0.01700
H 	H 	0.06188 0.86248 0.09112 0.06000
H 	H 	0.96073 0.87395 0.01560 0.06000
H 	H 	0.81444 0.92113 0.99066 0.02000
H 	H 	0.83907 0.00417 0.11290 0.05900
H 	H 	0.77461 0.98824 0.09480 0.05300
H 	H 	0.87889 0.93653 0.00979 0.06100
H 	H 	0.00768 0.18610 0.98013 0.03000
H 	H 	0.01768 0.12432 0.99908 0.02900
C 	C 	0.95266 0.14363 0.07770 -0.05400
H 	H 	0.92703 0.19346 0.08595 0.05500
H 	H 	0.21508 0.00547 0.09572 0.05100
H 	H 	0.14864 0.99562 0.11065 0.05800
H 	H 	0.12049 0.04884 0.98837 0.02900
H 	H 	0.18699 0.05802 0.97253 0.02800
H 	H 	0.95199 0.88013 0.11610 0.05700
H 	H 	0.89319 0.91936 0.11909 0.05700
H 	H 	0.88170 0.02939 0.00041 0.06500
H 	H 	0.92464 0.08357 0.99404 0.02400
H 	H 	0.10395 0.07881 0.09704 0.05800
H 	H 	0.04516 0.11802 0.09957 0.05900
H 	H 	0.05866 0.91151 0.98858 0.03000
H 	H 	0.10084 0.96634 0.98445 0.02900
H 	H 	0.93713 0.13182 0.10479 0.05800
C 	C 	0.95805 0.23001 0.01797 0.12800
N 	N 	0.92242 0.24145 0.01703 -0.07400
N 	N 	0.91494 0.27434 0.00644 -0.03500
C 	C 	0.94286 0.29676 0.99669 0.03300
N 	N 	0.97848 0.28528 0.99716 -0.05900
N 	N 	0.98598 0.25232 0.00759 -0.06200
C 	C 	0.96945 0.44647 0.78374 -0.00500
C 	C 	0.95451 0.47373 0.80914 0.13800
C 	C 	0.94829 0.46899 0.85481 -0.01100
C 	C 	0.95621 0.43708 0.87543 -0.11500
C 	C 	0.97155 0.40996 0.85024 0.21000
C 	C 	0.97822 0.41480 0.80461 -0.09600
H 	H 	0.93650 0.48993 0.87413 0.04700
H 	H 	0.99001 0.39387 0.78531 0.08700
Cl	Cl	0.94289 0.51378 0.78414 -0.33600
Cl	Cl	0.98324 0.37004 0.87557 -0.30400
C 	C 	0.94105 0.44013 0.21476 -0.00300
C 	C 	0.92955 0.40928 0.19429 0.14100
C 	C 	0.92376 0.40861 0.14816 -0.01800
C 	C 	0.92964 0.43854 0.12198 -0.10800
C 	C 	0.94101 0.46955 0.14273 0.21000
C 	C 	0.94610 0.47025 0.18896 -0.08900
H 	H 	0.91464 0.38479 0.13265 0.08300
H 	H 	0.95492 0.49406 0.20474 0.08900
Cl	Cl	0.92223 0.37126 0.22609 -0.30200
Cl	Cl	0.95081 0.50727 0.11123 -0.37400
C 	C 	0.01410 0.76453 0.02336 0.12800
N 	N 	0.04529 0.75036 0.00582 -0.06500
N 	N 	0.04693 0.71644 0.99793 -0.07800
C 	C 	0.01757 0.69569 0.00781 0.06900
N 	N 	0.98634 0.70988 0.02523 -0.05400
N 	N 	0.98456 0.74386 0.03269 -0.07500
C 	C 	0.02880 0.57651 0.86732 -0.11600
C 	C 	0.03329 0.54320 0.84920 0.20200
C 	C 	0.03357 0.53898 0.80290 -0.08600
C 	C 	0.02895 0.56772 0.77438 -0.00200
C 	C 	0.02515 0.60110 0.79250 0.13900
C 	C 	0.02485 0.60532 0.83880 -0.02000
H 	H 	0.03628 0.51321 0.78908 0.08700
H 	H 	0.02187 0.63105 0.85263 0.07500
Cl	Cl	0.03700 0.50634 0.88408 -0.33100
Cl	Cl	0.02157 0.63793 0.75757 -0.31100
C 	C 	0.03576 0.56806 0.11782 -0.10900
C 	C 	0.02916 0.59395 0.14975 0.20200
C 	C 	0.02706 0.58504 0.19499 -0.09300
C 	C 	0.03090 0.55038 0.20880 -0.00800
C 	C 	0.03805 0.52454 0.17693 0.14400
C 	C 	0.04066 0.53353 0.13171 -0.01200
H 	H 	0.02156 0.60498 0.21938 0.08600
H 	H 	0.04591 0.51356 0.10727 0.08600
Cl	Cl	0.02155 0.63741 0.13342 -0.30800
Cl	Cl	0.04273 0.48067 0.19295 -0.31600
C 	C 	0.75107 0.94622 0.02806 0.12500
N 	N 	0.74239 0.91565 0.00838 -0.06500
N 	N 	0.70763 0.90918 0.99570 -0.08300
C 	C 	0.68053 0.93300 0.00255 0.10000
N 	N 	0.68911 0.96346 0.02239 -0.05400
N 	N 	0.72388 0.97001 0.03489 -0.07400
C 	C 	0.54339 0.95670 0.75736 -0.00700
C 	C 	0.57513 0.94401 0.77942 0.14000
C 	C 	0.57330 0.93523 0.82476 -0.01800
C 	C 	0.53991 0.93890 0.84844 -0.11000
C 	C 	0.50843 0.95267 0.82657 0.21100
C 	C 	0.51028 0.96120 0.78117 -0.09800
H 	H 	0.59764 0.92475 0.84131 0.07900
H 	H 	0.48589 0.97128 0.76432 0.08200
Cl	Cl	0.61713 0.93817 0.75037 -0.30800
Cl	Cl	0.46686 0.96043 0.85581 -0.37700
C 	C 	0.53267 0.93911 0.18737 -0.00700
C 	C 	0.54466 0.96401 0.15577 0.14300
C 	C 	0.54474 0.95594 0.11035 -0.01300
C 	C 	0.53367 0.92300 0.09611 -0.10900
C 	C 	0.52244 0.89789 0.12767 0.20300
C 	C 	0.52188 0.90605 0.17306 -0.09200
H 	H 	0.55362 0.97526 0.08613 0.08400
H 	H 	0.51269 0.88680 0.19720 0.08700
Cl	Cl	0.55985 0.00531 0.17252 -0.31900
Cl	Cl	0.50804 0.85637 0.11069 -0.30600
C 	C 	0.31877 0.04176 0.00269 0.09800
N 	N 	0.29419 0.06592 0.98781 -0.07400
N 	N 	0.25821 0.06287 0.99741 -0.09600
C 	C 	0.24577 0.03552 0.02210 0.14100
N 	N 	0.27039 0.01130 0.03679 -0.08000
N 	N 	0.30637 0.01443 0.02733 -0.06100
C 	C 	0.44109 0.05473 0.85161 -0.10800
C 	C 	0.47662 0.05064 0.83291 0.20900
C 	C 	0.48064 0.04837 0.78662 -0.09500
C 	C 	0.44943 0.05025 0.75872 -0.00700
C 	C 	0.41401 0.05533 0.77741 0.14000
C 	C 	0.40998 0.05727 0.82372 -0.01800
H 	H 	0.50795 0.04436 0.77237 0.08200
H 	H 	0.38262 0.06078 0.83803 0.07600
Cl	Cl	0.51616 0.04694 0.86720 -0.32700
Cl	Cl	0.37458 0.06001 0.74314 -0.31000
C 	C 	0.46056 0.06202 0.09956 -0.11000
C 	C 	0.46056 0.03047 0.12374 0.21000
C 	C 	0.46832 0.03041 0.16941 -0.08800
C 	C 	0.47641 0.06149 0.19134 0.00000
C 	C 	0.47700 0.09291 0.16715 0.14200
C 	C 	0.46904 0.09306 0.12145 -0.01500
H 	H 	0.46790 0.00617 0.18798 0.08700
H 	H 	0.46906 0.11739 0.10303 0.08600
Cl	Cl	0.44916 0.99100 0.09784 -0.37000
Cl	Cl	0.48671 0.13238 0.19390 -0.29600
C 	C 	0.45578 0.26499 0.95766 0.11700
N 	N 	0.48462 0.24345 0.96708 -0.07900
N 	N 	0.47852 0.21001 0.97617 -0.05500
C 	C 	0.44341 0.19721 0.97607 0.05100
N 	N 	0.41458 0.21880 0.96710 -0.05600
N 	N 	0.42066 0.25220 0.95800 -0.07900
C 	C 	0.17874 0.57094 0.99333 0.02100
N 	N 	0.20398 0.59615 0.98417 -0.05300
N 	N 	0.23889 0.58781 0.97417 -0.08100
C 	C 	0.24946 0.55402 0.97291 0.11600
N 	N 	0.22429 0.52885 0.98258 -0.07900
N 	N 	0.18945 0.53720 0.99277 -0.05200
C 	C 	0.81181 0.44841 0.96366 0.04600
N 	N 	0.79993 0.47583 0.93883 -0.06300
N 	N 	0.76412 0.47920 0.92868 -0.08300
C 	C 	0.73914 0.45516 0.94290 0.11400
N 	N 	0.75105 0.42764 0.96766 -0.08100
N 	N 	0.78689 0.42433 0.97791 -0.06000
C 	C 	0.51980 0.73365 0.94413 0.11600
N 	N 	0.55140 0.75065 0.93242 -0.08000
N 	N 	0.55482 0.78452 0.93986 -0.05500
C 	C 	0.52686 0.80235 0.95950 0.04600
N 	N 	0.49545 0.78532 0.97177 -0.05900
N 	N 	0.49193 0.75146 0.96412 -0.08200
