data_crystal

_cell_length_a 14.54152
_cell_length_b 14.70243
_cell_length_c 12.38326
_cell_angle_alpha 89.99208
_cell_angle_beta  89.99045
_cell_angle_gamma 89.98247

_symmetry_space_group_name_	'P 1'
_symmetry_space_group_name_H-M	'P 1'

loop_
_symmetry_equiv_pos_as_xyz
  x,y,z

loop_
_atom_site_label
_atom_site_type_symbol
_atom_site_fract_x
_atom_site_fract_y
_atom_site_fract_z
_atom_site_charge
Co	Co	0.93103 0.92614 0.87318 1.16200
Co	Co	0.04322 0.07489 0.15165 1.18000
Co	Co	0.92422 0.91792 0.13594 1.16800
Co	Co	0.05790 0.07664 0.88996 1.16700
C 	C 	0.81346 0.96570 0.67835 0.36900
Co	Co	0.01235 0.01022 0.64776 1.15900
Co	Co	0.98124 0.98798 0.37910 1.12300
C 	C 	0.20134 0.03134 0.73717 0.33500
O 	O 	0.03993 0.85977 0.36978 -0.41200
O 	O 	0.97126 0.00226 0.20994 -0.70900
C 	C 	0.01481 0.79938 0.29723 0.33000
O 	O 	0.88190 0.85521 0.99953 -0.49500
O 	O 	0.10537 0.13632 0.02592 -0.45200
C 	C 	0.17784 0.02030 0.31707 0.32100
O 	O 	0.95512 0.02541 0.01171 -0.51900
C 	C 	0.78654 0.94136 0.31470 0.34200
C 	C 	0.03309 0.81315 0.70690 0.32300
C 	C 	0.98152 0.20434 0.71706 0.34300
O 	O 	0.01285 0.82074 0.19434 -0.41800
O 	O 	0.06990 0.88071 0.65203 -0.42000
O 	O 	0.01434 0.82324 0.81082 -0.41600
O 	O 	0.11332 0.04380 0.38647 -0.41500
O 	O 	0.15725 0.01078 0.21431 -0.39100
O 	O 	0.85205 0.92611 0.38597 -0.41400
O 	O 	0.79864 0.92186 0.21208 -0.41100
O 	O 	0.95218 0.13759 0.65448 -0.38500
O 	O 	0.04425 0.19102 0.79301 -0.41700
O 	O 	0.98926 0.01052 0.81534 -0.72700
C 	C 	0.96460 0.18938 0.34190 0.35800
O 	O 	0.92155 0.11615 0.37734 -0.38500
O 	O 	0.01493 0.18777 0.25145 -0.40400
O 	O 	0.88620 0.95043 0.61817 -0.46200
O 	O 	0.81295 0.94272 0.78163 -0.42400
O 	O 	0.14298 0.06611 0.66685 -0.40400
O 	O 	0.17368 0.01322 0.83566 -0.41300
C 	C 	0.97999 0.58555 0.57288 -0.02800
C 	C 	0.96834 0.58873 0.45981 0.01900
C 	C 	0.97390 0.50844 0.39838 -0.07200
C 	C 	0.99324 0.42521 0.44814 0.05800
C 	C 	0.00636 0.42250 0.56137 -0.05800
C 	C 	0.99879 0.50241 0.62289 0.01200
H 	H 	0.00819 0.49974 0.70974 0.02200
H 	H 	0.96386 0.51107 0.31164 0.06100
C 	C 	0.56587 0.92871 0.47655 -0.06100
C 	C 	0.56621 0.96093 0.58419 0.05200
C 	C 	0.48631 0.99895 0.62744 -0.22300
C 	C 	0.40481 0.00135 0.56683 0.16900
C 	C 	0.40271 0.96453 0.46163 -0.09500
C 	C 	0.48361 0.92907 0.41669 -0.00300
H 	H 	0.48279 0.90190 0.33528 0.03300
H 	H 	0.48740 0.02677 0.70856 0.12200
C 	C 	0.27527 0.02350 0.35046 -0.09100
C 	C 	0.31373 0.95340 0.40366 -0.02300
H 	H 	0.31358 0.08626 0.33950 0.07600
H 	H 	0.27588 0.89016 0.41313 0.03700
C 	C 	0.28791 0.01330 0.70817 -0.10400
C 	C 	0.32170 0.04272 0.61328 -0.04100
H 	H 	0.33061 0.97204 0.76112 0.03600
H 	H 	0.28369 0.09177 0.56493 0.06400
C 	C 	0.69256 0.95775 0.35260 -0.25000
C 	C 	0.65247 0.90158 0.42359 0.07000
H 	H 	0.65545 0.01668 0.32239 0.14800
H 	H 	0.68886 0.84170 0.45244 0.02800
C 	C 	0.73188 0.99090 0.62752 -0.25800
C 	C 	0.64805 0.95011 0.65464 0.01900
H 	H 	0.73591 0.03290 0.55554 0.15600
H 	H 	0.64198 0.91023 0.72820 0.03100
C 	C 	0.95056 0.26856 0.39475 -0.15200
C 	C 	0.00474 0.34222 0.37990 -0.02600
H 	H 	0.89838 0.27059 0.45767 0.09400
H 	H 	0.05649 0.34286 0.31650 0.05000
C 	C 	0.96618 0.29701 0.68026 -0.13700
C 	C 	0.02823 0.33666 0.61594 0.01200
H 	H 	0.90050 0.32967 0.69613 0.07500
H 	H 	0.09170 0.30143 0.59557 0.03500
C 	C 	0.95451 0.67649 0.40519 0.02300
C 	C 	0.01269 0.70398 0.32817 -0.16600
H 	H 	0.90379 0.72375 0.43733 0.03400
H 	H 	0.06237 0.65714 0.29342 0.08600
C 	C 	0.97049 0.66915 0.63960 0.03700
C 	C 	0.04433 0.72029 0.66353 -0.16700
H 	H 	0.90203 0.69278 0.66098 0.02400
H 	H 	0.11227 0.69829 0.63787 0.08500
