data_crystal

_cell_length_a 18.40525
_cell_length_b 18.92889
_cell_length_c 21.96423
_cell_angle_alpha 95.46984
_cell_angle_beta  95.47500
_cell_angle_gamma 126.32719

_symmetry_space_group_name_	'P 1'
_symmetry_space_group_name_H-M	'P 1'

loop_
_symmetry_equiv_pos_as_xyz
  x,y,z

loop_
_atom_site_label
_atom_site_type_symbol
_atom_site_fract_x
_atom_site_fract_y
_atom_site_fract_z
_atom_site_charge
C 	C 	0.06081 0.04343 0.00704 0.03400
C 	C 	0.03264 0.09749 0.01800 -0.08200
H 	H 	0.08252 0.16958 0.02570 0.04900
C 	C 	0.02147 0.03280 0.43982 -0.06900
H 	H 	0.05827 0.10397 0.44197 0.05000
Cu	Cu	0.62331 0.25407 0.02230 0.92200
Cu	Cu	0.68146 0.22439 0.88906 0.87700
Cu	Cu	0.63731 0.36523 0.92483 0.91100
Cu	Cu	0.57446 0.38824 0.04000 0.89300
C 	C 	0.62869 0.32988 0.14538 0.31700
O 	O 	0.48446 0.17465 0.01886 -0.36100
C 	C 	0.67219 0.33059 0.80797 0.31800
O 	O 	0.66577 0.38280 0.01391 -0.64100
O 	O 	0.60377 0.24460 0.92973 -0.62700
O 	O 	0.71751 0.23127 0.03534 -0.37200
O 	O 	0.67180 0.14530 0.93929 -0.42300
O 	O 	0.57155 0.34360 0.11893 -0.39700
O 	O 	0.67906 0.48552 0.92390 -0.37800
C 	C 	0.66554 0.52974 0.96547 0.29400
C 	C 	0.43306 0.19313 0.98995 0.29000
O 	O 	0.47253 0.26995 0.97188 -0.39600
O 	O 	0.60051 0.48783 0.99849 -0.39200
O 	O 	0.65288 0.28702 0.11238 -0.36000
C 	C 	0.72188 0.17786 0.99542 0.30500
O 	O 	0.61958 0.34388 0.83484 -0.38800
O 	O 	0.72719 0.32022 0.84184 -0.43000
H 	H 	0.72969 0.43450 0.03294 0.16000
H 	H 	0.53903 0.19722 0.90944 0.16100
Cu	Cu	0.76332 0.31623 0.42505 0.92300
Cu	Cu	0.78478 0.25662 0.55712 0.86900
Cu	Cu	0.64676 0.28370 0.52684 0.89500
Cu	Cu	0.58831 0.31384 0.40186 0.89700
C 	C 	0.67934 0.29977 0.30118 0.31400
C 	C 	0.74069 0.32185 0.65749 0.31400
O 	O 	0.62603 0.25130 0.43765 -0.63200
O 	O 	0.77670 0.33930 0.51763 -0.63700
O 	O 	0.73200 0.16517 0.48639 -0.44300
O 	O 	0.60425 0.28436 0.31725 -0.38900
O 	O 	0.51735 0.22110 0.52867 -0.38000
C 	C 	0.46310 0.22479 0.48760 0.29700
C 	C 	0.78500 0.48488 0.43759 0.28500
O 	O 	0.70739 0.43813 0.45721 -0.39000
O 	O 	0.49717 0.28847 0.45473 -0.39500
O 	O 	0.72815 0.28194 0.33520 -0.36500
C 	C 	0.78125 0.17664 0.44379 0.29100
O 	O 	0.66715 0.30035 0.61936 -0.38900
H 	H 	0.58375 0.18596 0.42203 0.16500
C 	C 	0.67731 0.33782 0.74796 -0.12900
C 	C 	0.74879 0.34036 0.71943 -0.12600
H 	H 	0.63079 0.34558 0.72062 0.08700
C 	C 	0.64810 0.34574 0.20781 -0.11900
C 	C 	0.69412 0.31498 0.24345 -0.11300
H 	H 	0.62421 0.37796 0.23356 0.06800
H 	H 	0.74573 0.31277 0.22518 0.08700
H 	H 	0.78062 0.52497 0.27422 0.03000
S 	S 	0.78748 0.10945 0.31068 -0.03500
H 	H 	0.69518 0.04476 0.28959 0.03800
C 	C 	0.17103 0.05755 0.45855 0.00600
C 	C 	0.22217 0.10703 0.51822 -0.07300
C 	C 	0.31810 0.15907 0.52944 0.05900
C 	C 	0.36323 0.16073 0.48058 -0.10000
C 	C 	0.31171 0.10983 0.42132 -0.00500
C 	C 	0.21623 0.05934 0.40985 -0.00500
S 	S 	0.38071 0.22353 0.60418 -0.04300
H 	H 	0.39530 0.17512 0.63887 0.04000
H 	H 	0.18723 0.10490 0.55586 0.05000
H 	H 	0.34645 0.11181 0.38356 0.02400
C 	C 	0.72035 0.62711 0.97299 -0.09100
C 	C 	0.73044 0.66899 0.92125 0.05700
S 	S 	0.66617 0.60606 0.84646 -0.04100
H 	H 	0.71418 0.58473 0.81591 0.04600
H 	H 	0.75326 0.11960 0.09489 0.04100
C 	C 	0.15719 0.08341 0.00342 -0.00800
C 	C 	0.18261 0.08949 0.94487 -0.06200
C 	C 	0.27029 0.11640 0.93904 0.05200
C 	C 	0.33473 0.14028 0.99251 -0.08600
C 	C 	0.30811 0.13088 0.05081 -0.01700
C 	C 	0.21986 0.10270 0.05652 0.00100
S 	S 	0.29798 0.11786 0.86437 -0.06200
H 	H 	0.33550 0.20041 0.84989 0.04000
H 	H 	0.13333 0.07136 0.90364 0.04900
H 	H 	0.35740 0.14936 0.09214 0.04700
H 	H 	0.20738 0.17116 0.15776 0.03300
S 	S 	0.18894 0.09266 0.13043 -0.04300
H 	H 	0.14371 0.05387 0.30207 0.03500
O 	O 	0.80575 0.32324 0.63589 -0.43000
H 	H 	0.80909 0.35659 0.74966 0.07700
C 	C 	0.79463 0.16743 0.00994 -0.11200
C 	C 	0.76540 0.67917 0.03287 -0.01200
H 	H 	0.75649 0.64708 0.07281 0.02600
C 	C 	0.79753 0.13075 0.06179 0.00200
H 	H 	0.06180 0.88085 0.45456 0.05300
C 	C 	0.78963 0.76217 0.92972 -0.07100
H 	H 	0.80354 0.83941 0.42100 0.05100
O 	O 	0.81525 0.24751 0.41772 -0.36400
H 	H 	0.79883 0.79454 0.88992 0.05000
H 	H 	0.81282 0.19617 0.85775 0.01400
C 	C 	0.02348 0.90707 0.44735 -0.07400
H 	H 	0.82063 0.40270 0.53867 0.17500
H 	H 	0.81517 0.60490 0.53288 0.03800
C 	C 	0.81809 0.12490 0.43878 -0.10300
H 	H 	0.01805 0.90878 0.98894 0.05400
C 	C 	0.82168 0.08940 0.38049 0.05500
S 	S 	0.15407 0.00061 0.33387 -0.04200
C 	C 	0.82371 0.77217 0.04132 -0.00700
O 	O 	0.82471 0.44807 0.42261 -0.36100
H 	H 	0.98880 0.08249 0.58227 0.03300
C 	C 	0.93937 0.05780 0.01791 0.04100
C 	C 	0.87872 0.70222 0.38213 -0.06900
C 	C 	0.85537 0.61735 0.38428 0.04800
C 	C 	0.83131 0.58112 0.43875 -0.09200
C 	C 	0.83385 0.63224 0.49092 -0.00700
S 	S 	0.85630 0.55753 0.31835 -0.04700
C 	C 	0.87607 0.01595 0.43250 0.00500
C 	C 	0.85142 0.03588 0.37779 -0.07200
C 	C 	0.84198 0.10391 0.49322 -0.00400
C 	C 	0.86921 0.04875 0.49024 -0.00700
S 	S 	0.89627 0.02248 0.55952 -0.04800
H 	H 	0.85715 0.01129 0.33326 0.05100
H 	H 	0.83895 0.13032 0.53813 0.00600
C 	C 	0.90700 0.11300 0.02391 -0.00400
C 	C 	0.91218 0.15941 0.97638 -0.06700
C 	C 	0.85746 0.18794 0.96975 0.06600
C 	C 	0.85473 0.10499 0.06961 -0.00400
S 	S 	0.87065 0.25189 0.91255 -0.10900
H 	H 	0.95546 0.16949 0.94275 0.05100
H 	H 	0.92904 0.13163 0.18263 0.03700
S 	S 	0.86034 0.06271 0.13648 -0.04300
C 	C 	0.85722 0.71704 0.48866 -0.00300
C 	C 	0.88029 0.75275 0.43408 -0.00000
S 	S 	0.85860 0.77843 0.55487 -0.04400
H 	H 	0.89879 0.73035 0.34059 0.04900
H 	H 	0.94558 0.83333 0.58995 0.03500
C 	C 	0.83732 0.81389 0.98937 0.00500
C 	C 	0.92757 0.84922 0.43604 0.03400
S 	S 	0.87986 0.83584 0.11710 -0.04500
H 	H 	0.82839 0.85798 0.14121 0.03500
C 	C 	0.87786 0.88361 0.42775 -0.07100
C 	C 	0.90374 0.91116 0.99679 0.04200
C 	C 	0.07032 0.99833 0.44875 0.02700
H 	H 	0.80283 0.93344 0.00476 0.05500
C 	C 	0.99624 0.95049 0.99678 -0.07200
C 	C 	0.87508 0.96448 0.00626 -0.08500
C 	C 	0.92527 0.97615 0.43055 0.02700
