data_crystal

_cell_length_a 26.30641
_cell_length_b 26.12784
_cell_length_c 34.75024
_cell_angle_alpha 95.49300
_cell_angle_beta  95.48955
_cell_angle_gamma 125.82989

_symmetry_space_group_name_	'P 1'
_symmetry_space_group_name_H-M	'P 1'

loop_
_symmetry_equiv_pos_as_xyz
  x,y,z

loop_
_atom_site_label
_atom_site_type_symbol
_atom_site_fract_x
_atom_site_fract_y
_atom_site_fract_z
_atom_site_charge
C 	C 	0.96510 0.01477 0.98284 0.15400
N 	N 	0.92730 0.95183 0.98584 -0.04700
C 	C 	0.95029 0.91701 0.98349 0.19400
N 	N 	0.01147 0.94543 0.97892 -0.06200
C 	C 	0.04902 0.00803 0.97508 0.15600
N 	N 	0.02510 0.04213 0.97591 -0.06200
C 	C 	0.94917 0.02375 0.47772 0.14800
N 	N 	0.01352 0.06167 0.48050 -0.08100
C 	C 	0.04568 0.03595 0.48315 0.16200
N 	N 	0.01373 0.97251 0.48408 -0.04100
C 	C 	0.94944 0.93439 0.48140 0.19700
N 	N 	0.91695 0.95976 0.47737 -0.04700
Cu	Cu	0.62843 0.21727 0.99426 0.94000
Cu	Cu	0.68757 0.23186 0.91364 0.90400
Cu	Cu	0.66970 0.32771 0.95014 0.91300
Cu	Cu	0.62171 0.33018 0.02549 0.92500
C 	C 	0.63938 0.25525 0.07691 0.30300
O 	O 	0.53346 0.17313 0.98902 -0.27800
C 	C 	0.66161 0.29719 0.86411 0.29600
O 	O 	0.67714 0.31741 0.00367 -0.62900
O 	O 	0.62660 0.23293 0.93983 -0.63100
O 	O 	0.67009 0.17391 0.99071 -0.32200
O 	O 	0.74471 0.24584 0.95833 -0.34500
O 	O 	0.60836 0.27920 0.06774 -0.30900
O 	O 	0.71519 0.41966 0.96426 -0.30600
C 	C 	0.70537 0.44873 0.99256 0.30000
C 	C 	0.50767 0.20152 0.97894 0.28900
O 	O 	0.54449 0.26270 0.97683 -0.35500
O 	O 	0.65718 0.41594 0.01115 -0.31600
O 	O 	0.64353 0.21943 0.04973 -0.29900
C 	C 	0.72623 0.20231 0.98057 0.30600
O 	O 	0.67898 0.34094 0.89542 -0.34000
O 	O 	0.65203 0.24252 0.86754 -0.36800
H 	H 	0.72157 0.34456 0.01859 0.23900
H 	H 	0.58336 0.20796 0.92342 0.19900
Cu	Cu	0.73563 0.35001 0.44920 0.93900
Cu	Cu	0.74783 0.32499 0.53920 0.90500
Cu	Cu	0.64129 0.32602 0.50216 0.91100
Cu	Cu	0.60602 0.32642 0.41856 0.93500
C 	C 	0.68055 0.30821 0.36706 0.29100
O 	O 	0.75896 0.43594 0.43883 -0.30300
C 	C 	0.68466 0.35706 0.58731 0.28300
O 	O 	0.63726 0.29162 0.44965 -0.63800
O 	O 	0.73498 0.37255 0.50489 -0.62900
O 	O 	0.79257 0.32382 0.45770 -0.28500
O 	O 	0.73688 0.26088 0.50077 -0.38800
O 	O 	0.65134 0.33458 0.37380 -0.30900
O 	O 	0.54989 0.27492 0.49851 -0.33700
C 	C 	0.50937 0.27159 0.47092 0.31700
C 	C 	0.72843 0.45836 0.45107 0.28800
O 	O 	0.67047 0.41861 0.45803 -0.30400
O 	O 	0.52134 0.28085 0.43508 -0.29600
O 	O 	0.72072 0.31265 0.39547 -0.32600
C 	C 	0.77690 0.27672 0.47647 0.30500
O 	O 	0.64850 0.35585 0.55759 -0.32500
O 	O 	0.73914 0.36733 0.58340 -0.36100
H 	H 	0.61280 0.24429 0.44354 0.19600
H 	H 	0.76053 0.41912 0.51573 0.20800
C 	C 	0.70231 0.40862 0.69621 -0.02200
C 	C 	0.65623 0.34888 0.70607 0.03000
C 	C 	0.61138 0.29554 0.67595 -0.02100
C 	C 	0.61732 0.30003 0.63632 0.03000
C 	C 	0.66905 0.35730 0.62699 -0.05100
C 	C 	0.70919 0.41272 0.65664 0.03800
C 	C 	0.66040 0.33995 0.74773 0.03100
C 	C 	0.56048 0.23559 0.68590 0.13600
C 	C 	0.75728 0.47374 0.64640 0.13500
C 	C 	0.62011 0.34121 0.77121 -0.02200
C 	C 	0.62026 0.32701 0.80938 0.03600
C 	C 	0.66249 0.31401 0.82461 -0.05600
C 	C 	0.70550 0.31670 0.80193 0.03700
C 	C 	0.70333 0.32805 0.76323 -0.02500
C 	C 	0.57843 0.35682 0.75599 0.14300
C 	C 	0.75299 0.30930 0.81879 0.11300
C 	C 	0.57602 0.32432 0.83259 0.12200
C 	C 	0.74488 0.32693 0.73911 0.13000
C 	C 	0.74352 0.46526 0.72691 0.14000
C 	C 	0.57119 0.24537 0.60522 0.11400
N 	N 	0.54073 0.32214 0.85113 -0.05500
N 	N 	0.54518 0.36927 0.74381 -0.04600
N 	N 	0.79088 0.30340 0.83223 -0.06200
N 	N 	0.77797 0.32607 0.71983 -0.06900
N 	N 	0.51988 0.18777 0.69388 -0.05900
N 	N 	0.53437 0.20180 0.58039 -0.06300
N 	N 	0.79566 0.52243 0.63821 -0.04700
N 	N 	0.77639 0.51043 0.75145 -0.05200
C 	C 	0.61623 0.23792 0.25840 -0.02000
C 	C 	0.67288 0.26055 0.24395 0.03200
C 	C 	0.73043 0.28874 0.27059 -0.02100
C 	C 	0.73370 0.30413 0.31121 0.03900
C 	C 	0.67736 0.28447 0.32561 -0.04600
C 	C 	0.61808 0.24671 0.29927 0.03500
C 	C 	0.67312 0.26036 0.20096 0.03300
C 	C 	0.78651 0.30313 0.25603 0.14400
C 	C 	0.55906 0.21623 0.31430 0.11700
C 	C 	0.69799 0.31781 0.18649 -0.01800
C 	C 	0.69305 0.31660 0.14566 0.03700
C 	C 	0.65746 0.25731 0.11907 -0.03800
C 	C 	0.63403 0.19992 0.13357 0.04100
C 	C 	0.64513 0.20225 0.17444 -0.02000
C 	C 	0.72708 0.37781 0.21358 0.14200
C 	C 	0.59566 0.13835 0.10681 0.15400
C 	C 	0.72470 0.37635 0.13092 0.12300
C 	C 	0.62707 0.14484 0.18929 0.14000
C 	C 	0.55649 0.20738 0.23119 0.13800
C 	C 	0.79519 0.34260 0.33760 0.14200
N 	N 	0.74991 0.42399 0.11915 -0.04000
N 	N 	0.75028 0.42563 0.23523 -0.04700
N 	N 	0.56499 0.08921 0.08549 -0.03300
N 	N 	0.61267 0.09906 0.20118 -0.05400
N 	N 	0.83123 0.31461 0.24438 -0.04700
N 	N 	0.84430 0.37330 0.35861 -0.03300
N 	N 	0.51199 0.19192 0.32630 -0.06700
N 	N 	0.50885 0.18302 0.20945 -0.05200
C 	C 	0.86478 0.76769 0.50587 0.05500
C 	C 	0.85455 0.73169 0.46949 0.09100
C 	C 	0.87372 0.76217 0.43656 -0.07200
C 	C 	0.90135 0.82803 0.44080 0.06400
C 	C 	0.91449 0.86450 0.47763 0.07800
C 	C 	0.89782 0.83463 0.51085 -0.06300
C 	C 	0.82230 0.66169 0.46598 0.10300
C 	C 	0.86208 0.72421 0.39651 0.78600
H 	H 	0.91369 0.85142 0.41554 0.14600
C 	C 	0.91535 0.87399 0.55147 0.78500
H 	H 	0.84789 0.74345 0.53044 0.13600
C 	C 	0.85589 0.63793 0.47965 -0.09500
C 	C 	0.82302 0.57115 0.47613 0.08100
C 	C 	0.75932 0.52805 0.45643 0.01100
C 	C 	0.72691 0.55209 0.44086 -0.04600
C 	C 	0.75749 0.61865 0.44869 0.03800
C 	C 	0.92570 0.68346 0.49975 0.78900
H 	H 	0.84702 0.55243 0.48857 0.09700
C 	C 	0.65996 0.50747 0.41619 0.77600
H 	H 	0.73151 0.63735 0.44009 0.14100
F 	F 	0.98035 0.92258 0.56050 -0.35800
F 	F 	0.89968 0.83687 0.58037 -0.35700
F 	F 	0.88306 0.90075 0.55221 -0.33900
F 	F 	0.79780 0.68635 0.38017 -0.38000
F 	F 	0.88136 0.68540 0.39997 -0.36900
F 	F 	0.89572 0.76446 0.37096 -0.35300
F 	F 	0.61608 0.47735 0.44044 -0.37600
F 	F 	0.65484 0.46169 0.38895 -0.41700
F 	F 	0.64486 0.54105 0.39551 -0.36000
F 	F 	0.95238 0.65126 0.50394 -0.37500
F 	F 	0.93067 0.71248 0.53675 -0.38800
F 	F 	0.96089 0.73030 0.47796 -0.36300
C 	C 	0.88480 0.22530 0.47293 0.03200
C 	C 	0.83969 0.15882 0.45975 0.10400
C 	C 	0.77420 0.13176 0.44890 -0.10400
C 	C 	0.75505 0.17183 0.45364 0.08200
C 	C 	0.79996 0.23805 0.46794 -0.00200
C 	C 	0.86570 0.26545 0.47736 -0.05700
C 	C 	0.86096 0.11748 0.46150 0.08800
C 	C 	0.72397 0.05963 0.43562 0.79000
H 	H 	0.70482 0.15131 0.44718 0.09000
C 	C 	0.91548 0.33732 0.49212 0.77800
H 	H 	0.93473 0.24531 0.48085 0.13600
C 	C 	0.89161 0.11086 0.43214 -0.07800
C 	C 	0.91844 0.07815 0.43765 0.05100
C 	C 	0.91412 0.05112 0.47129 0.07100
C 	C 	0.88191 0.05623 0.50011 -0.07600
C 	C 	0.85526 0.08912 0.49465 0.04800
C 	C 	0.90074 0.14323 0.39665 0.78500
H 	H 	0.94435 0.07506 0.41622 0.13100
C 	C 	0.87320 0.02421 0.53568 0.75700
H 	H 	0.83102 0.09397 0.51660 0.12800
F 	F 	0.97575 0.35337 0.50364 -0.37900
F 	F 	0.90004 0.35747 0.52426 -0.43100
F 	F 	0.91804 0.36999 0.46245 -0.38500
F 	F 	0.71311 0.03010 0.46798 -0.40100
F 	F 	0.74362 0.03449 0.40923 -0.37500
F 	F 	0.66685 0.04515 0.41713 -0.39300
F 	F 	0.84952 0.04305 0.56304 -0.37800
F 	F 	0.93089 0.04015 0.55427 -0.38000
F 	F 	0.83044 0.95831 0.52355 -0.32200
F 	F 	0.91716 0.11854 0.36745 -0.37200
F 	F 	0.94900 0.20838 0.40803 -0.39200
F 	F 	0.84521 0.13407 0.38054 -0.37700
C 	C 	0.35140 0.24241 0.47610 0.03600
C 	C 	0.31532 0.17997 0.48416 0.10500
C 	C 	0.34396 0.14843 0.48953 -0.10200
C 	C 	0.40782 0.17966 0.48525 0.08400
C 	C 	0.44383 0.24215 0.47730 0.00500
C 	C 	0.41643 0.27515 0.47452 -0.05000
C 	C 	0.24627 0.14616 0.48376 0.08800
C 	C 	0.30523 0.07965 0.49648 0.79000
H 	H 	0.42930 0.15483 0.48713 0.09500
C 	C 	0.45565 0.34433 0.46844 0.77800
H 	H 	0.32846 0.26524 0.47082 0.14000
C 	C 	0.22401 0.15469 0.51760 -0.07500
C 	C 	0.15783 0.11886 0.51646 0.06000
C 	C 	0.11432 0.07581 0.48229 0.07300
C 	C 	0.13665 0.07092 0.44765 -0.07200
C 	C 	0.20268 0.10554 0.44901 0.05300
C 	C 	0.27052 0.20392 0.55415 0.78600
H 	H 	0.13990 0.12397 0.54223 0.13400
C 	C 	0.09021 0.02730 0.40963 0.75700
H 	H 	0.22047 0.10040 0.42317 0.13000
F 	F 	0.42510 0.37203 0.47567 -0.36200
F 	F 	0.46530 0.34617 0.43002 -0.37800
F 	F 	0.51416 0.38084 0.49378 -0.39000
F 	F 	0.26436 0.03820 0.46193 -0.39500
F 	F 	0.26989 0.07207 0.52536 -0.37500
F 	F 	0.34425 0.06261 0.50862 -0.39000
F 	F 	0.12108 0.03792 0.37791 -0.37100
F 	F 	0.04518 0.03829 0.40155 -0.39600
F 	F 	0.05967 0.96379 0.41318 -0.34300
F 	F 	0.23974 0.20007 0.58513 -0.37000
F 	F 	0.30135 0.26508 0.54583 -0.38700
F 	F 	0.31539 0.19421 0.56635 -0.37700
C 	C 	0.84832 0.73561 0.95743 0.05500
C 	C 	0.83809 0.71918 0.99462 0.08000
C 	C 	0.86353 0.76801 0.02832 -0.06400
C 	C 	0.89986 0.83265 0.02387 0.07200
C 	C 	0.90929 0.84883 0.98659 0.06600
C 	C 	0.88156 0.79993 0.95279 -0.07200
C 	C 	0.80289 0.65072 0.99803 0.09400
C 	C 	0.85621 0.75182 0.06926 0.78500
H 	H 	0.92197 0.87071 0.04950 0.15100
C 	C 	0.88950 0.81639 0.91199 0.78600
H 	H 	0.83027 0.69798 0.93210 0.12600
C 	C 	0.73533 0.60787 0.98810 -0.09400
C 	C 	0.70436 0.54183 0.98685 0.08200
C 	C 	0.73921 0.51860 0.99705 0.00300
C 	C 	0.80619 0.56202 0.00980 -0.04800
C 	C 	0.83763 0.62740 0.00836 0.04600
C 	C 	0.69652 0.63140 0.97554 0.78300
H 	H 	0.65313 0.50803 0.97688 0.10500
C 	C 	0.84455 0.53853 0.02335 0.78500
H 	H 	0.88932 0.66030 0.01486 0.13700
F 	F 	0.84989 0.76216 0.88278 -0.37000
F 	F 	0.95198 0.84497 0.90774 -0.39500
F 	F 	0.87452 0.85821 0.90656 -0.37300
F 	F 	0.89511 0.73437 0.08051 -0.38000
F 	F 	0.79361 0.70172 0.06979 -0.35900
F 	F 	0.87321 0.80383 0.09674 -0.34900
F 	F 	0.90531 0.58896 0.04325 -0.36800
F 	F 	0.84996 0.50793 0.99104 -0.40800
F 	F 	0.81490 0.49608 0.04863 -0.41300
F 	F 	0.63241 0.58607 0.97598 -0.37300
F 	F 	0.70269 0.64347 0.93774 -0.38800
F 	F 	0.71718 0.68705 0.00066 -0.35100
C 	C 	0.86621 0.19747 0.00642 0.05000
C 	C 	0.83772 0.13256 0.99206 0.08500
C 	C 	0.77065 0.08870 0.97940 -0.08500
C 	C 	0.73454 0.11241 0.97697 0.07100
C 	C 	0.76380 0.17811 0.98883 -0.00400
C 	C 	0.82934 0.22034 0.00640 -0.04900
C 	C 	0.87844 0.11071 0.99129 0.08500
C 	C 	0.73747 0.01671 0.96974 0.72200
H 	H 	0.68383 0.08010 0.96498 0.09600
C 	C 	0.86062 0.29004 0.02408 0.78500
H 	H 	0.91730 0.23025 0.01721 0.13700
C 	C 	0.90447 0.10965 0.95764 -0.07800
C 	C 	0.93415 0.07912 0.95575 0.06500
C 	C 	0.94143 0.05354 0.98767 0.07100
C 	C 	0.92358 0.06307 0.02335 -0.05900
C 	C 	0.89021 0.08972 0.02429 0.05800
C 	C 	0.90151 0.14184 0.92419 0.78700
H 	H 	0.95038 0.07386 0.92917 0.12600
C 	C 	0.93735 0.04242 0.05989 0.75200
H 	H 	0.87185 0.09271 0.05037 0.12700
F 	F 	0.87437 0.32540 0.99440 -0.39200
F 	F 	0.91689 0.31631 0.05014 -0.37800
F 	F 	0.82066 0.29503 0.04460 -0.41600
F 	F 	0.74807 0.99619 0.00274 -0.33900
F 	F 	0.76080 0.00261 0.93976 -0.37500
F 	F 	0.67216 0.98233 0.95776 -0.33900
F 	F 	0.93468 0.07325 0.09347 -0.37000
F 	F 	0.99776 0.05745 0.06441 -0.36800
F 	F 	0.89259 0.97686 0.05681 -0.33900
F 	F 	0.93157 0.13747 0.89484 -0.37800
F 	F 	0.93150 0.20627 0.93840 -0.39600
F 	F 	0.83867 0.11314 0.90759 -0.38500
C 	C 	0.22928 0.12287 0.98402 0.04100
C 	C 	0.23952 0.08716 0.95760 0.09800
C 	C 	0.18683 0.02687 0.93533 -0.10300
C 	C 	0.12477 0.00382 0.94018 0.00900
C 	C 	0.11475 0.03777 0.96837 0.08800
C 	C 	0.16789 0.09702 0.99167 -0.08700
C 	C 	0.30580 0.10908 0.95808 0.09800
C 	C 	0.19673 0.98398 0.90967 0.84400
H 	H 	0.08402 0.95810 0.92301 0.18200
C 	C 	0.15988 0.13238 0.02507 0.79200
H 	H 	0.26998 0.16946 0.00029 0.14100
C 	C 	0.34551 0.15522 0.93578 -0.09800
C 	C 	0.41052 0.18101 0.94123 0.07700
C 	C 	0.43732 0.16524 0.97037 0.00400
C 	C 	0.39741 0.12006 0.99341 -0.06300
C 	C 	0.33140 0.08958 0.98498 0.02200
C 	C 	0.32058 0.18215 0.90941 0.79000
H 	H 	0.44119 0.21576 0.92397 0.09400
C 	C 	0.42456 0.10506 0.02746 0.78300
H 	H 	0.29997 0.05299 0.00105 0.13900
F 	F 	0.13484 0.16181 0.00978 -0.36900
F 	F 	0.21771 0.17931 0.04973 -0.37300
F 	F 	0.11980 0.09019 0.04778 -0.36900
F 	F 	0.21715 0.95740 0.93338 -0.38100
F 	F 	0.24179 0.01863 0.88689 -0.39900
F 	F 	0.14075 0.93452 0.88440 -0.35700
F 	F 	0.37967 0.07023 0.05038 -0.39300
F 	F 	0.47579 0.16122 0.05178 -0.42600
F 	F 	0.44375 0.06896 0.01300 -0.39600
F 	F 	0.36199 0.21612 0.88453 -0.38900
F 	F 	0.31383 0.22320 0.93250 -0.39400
F 	F 	0.26212 0.13335 0.88620 -0.36900
