data_crystal

_cell_length_a 27.77524
_cell_length_b 28.09188
_cell_length_c 23.31695
_cell_angle_alpha 95.54082
_cell_angle_beta  95.54334
_cell_angle_gamma 125.63786

_symmetry_space_group_name_	'P 1'
_symmetry_space_group_name_H-M	'P 1'

loop_
_symmetry_equiv_pos_as_xyz
  x,y,z

loop_
_atom_site_label
_atom_site_type_symbol
_atom_site_fract_x
_atom_site_fract_y
_atom_site_fract_z
_atom_site_charge
C 	C 	0.97333 0.03218 0.99549 0.08200
C 	C 	0.93822 0.97008 0.99094 -0.09300
C 	C 	0.96347 0.93992 0.97984 0.05800
C 	C 	0.02373 0.97172 0.97330 -0.08600
C 	C 	0.05903 0.03371 0.97795 0.05900
C 	C 	0.03388 0.06409 0.98904 -0.09300
H 	H 	0.89143 0.94537 0.99592 0.06500
H 	H 	0.04325 0.94828 0.96483 0.05900
H 	H 	0.06116 0.11213 0.99258 0.06500
C 	C 	0.94036 0.00089 0.42744 0.04400
C 	C 	0.00332 0.03578 0.43347 -0.08100
C 	C 	0.03350 0.01031 0.44338 0.04700
C 	C 	0.00085 0.94999 0.44727 -0.08000
C 	C 	0.93798 0.91485 0.44117 0.04600
C 	C 	0.90756 0.94026 0.43126 -0.08200
H 	H 	0.02870 0.08259 0.43053 0.05500
H 	H 	0.02433 0.93032 0.45483 0.05500
H 	H 	0.85886 0.91314 0.42659 0.05400
Cu	Cu	0.64726 0.25356 0.00753 0.91900
Cu	Cu	0.70541 0.25228 0.89192 0.87300
Cu	Cu	0.68444 0.34262 0.92422 0.90200
Cu	Cu	0.64064 0.36151 0.03057 0.88600
C 	C 	0.65511 0.30382 0.12459 0.28100
O 	O 	0.55755 0.21535 0.99784 -0.34800
C 	C 	0.67839 0.29784 0.80057 0.28200
O 	O 	0.69359 0.34535 0.00733 -0.65100
O 	O 	0.64517 0.25578 0.92258 -0.63200
O 	O 	0.68763 0.21382 0.01581 -0.37200
O 	O 	0.75767 0.27377 0.96359 -0.42000
O 	O 	0.62640 0.32388 0.10151 -0.38600
O 	O 	0.72685 0.42801 0.93213 -0.37600
C 	C 	0.71845 0.46064 0.96832 0.31100
C 	C 	0.53398 0.23800 0.97030 0.30200
O 	O 	0.56937 0.29221 0.96003 -0.38500
O 	O 	0.67463 0.43626 0.99877 -0.38400
O 	O 	0.66144 0.26738 0.09186 -0.35500
C 	C 	0.74003 0.23662 0.00014 0.28500
O 	O 	0.68864 0.34161 0.83980 -0.37500
O 	O 	0.67209 0.25094 0.81601 -0.41500
H 	H 	0.73575 0.37304 0.02906 0.16100
H 	H 	0.60461 0.22923 0.89733 0.17500
Cu	Cu	0.72902 0.33562 0.41973 0.92700
Cu	Cu	0.73490 0.28305 0.53781 0.87100
Cu	Cu	0.64133 0.30094 0.50541 0.89700
Cu	Cu	0.61828 0.33996 0.39726 0.89500
C 	C 	0.67524 0.32411 0.30243 0.28100
O 	O 	0.76663 0.42402 0.42661 -0.36100
C 	C 	0.68976 0.31059 0.62922 0.28200
O 	O 	0.63655 0.28943 0.42201 -0.63900
O 	O 	0.72904 0.34051 0.50521 -0.63900
O 	O 	0.76934 0.29563 0.41200 -0.37100
O 	O 	0.71113 0.22890 0.46748 -0.44400
O 	O 	0.65435 0.35207 0.32511 -0.38000
O 	O 	0.55499 0.25808 0.49931 -0.38000
C 	C 	0.52055 0.26397 0.46219 0.30800
C 	C 	0.74357 0.44769 0.45320 0.30200
O 	O 	0.68956 0.41285 0.46540 -0.39300
O 	O 	0.54379 0.30675 0.43103 -0.39500
O 	O 	0.71285 0.31887 0.33535 -0.35200
C 	C 	0.74705 0.24466 0.42941 0.31000
O 	O 	0.64469 0.29962 0.59052 -0.37500
O 	O 	0.73750 0.31810 0.61310 -0.41600
H 	H 	0.60866 0.24729 0.40150 0.16400
H 	H 	0.75586 0.38127 0.52919 0.17500
C 	C 	0.68048 0.30433 0.74033 -0.04600
C 	C 	0.68390 0.30816 0.68959 -0.04700
C 	C 	0.66442 0.30858 0.18715 -0.04300
C 	C 	0.67032 0.31452 0.23986 -0.04100
C 	C 	0.81190 0.62171 0.45388 -0.01000
C 	C 	0.79755 0.63607 0.40212 -0.02800
C 	C 	0.81841 0.69475 0.40054 -0.04800
C 	C 	0.85363 0.73936 0.45074 0.02100
C 	C 	0.86726 0.72484 0.50276 -0.04700
C 	C 	0.84638 0.66612 0.50434 -0.02800
C 	C 	0.79002 0.56109 0.45536 0.04600
C 	C 	0.77011 0.50974 0.45527 -0.11000
C 	C 	0.88048 0.80080 0.44736 -0.01300
C 	C 	0.90509 0.85257 0.44445 -0.02800
H 	H 	0.77055 0.60189 0.36304 0.03700
H 	H 	0.80797 0.70565 0.36008 0.04200
H 	H 	0.89477 0.75914 0.54166 0.04400
H 	H 	0.85731 0.65530 0.54463 0.03900
C 	C 	0.81210 0.14811 0.40042 -0.01300
C 	C 	0.77504 0.08748 0.40398 -0.02800
C 	C 	0.79903 0.05538 0.40568 -0.04800
C 	C 	0.86015 0.08374 0.40375 0.02100
C 	C 	0.89669 0.14381 0.39813 -0.04800
C 	C 	0.87273 0.17593 0.39652 -0.02800
C 	C 	0.78969 0.18311 0.40748 0.04800
C 	C 	0.77059 0.21180 0.41586 -0.12100
C 	C 	0.88638 0.05249 0.41126 -0.01400
C 	C 	0.90987 0.02788 0.41832 -0.02800
H 	H 	0.72814 0.06564 0.40709 0.03600
H 	H 	0.77043 0.00893 0.40982 0.04200
H 	H 	0.94394 0.16601 0.39640 0.04200
H 	H 	0.90171 0.22277 0.39385 0.03800
C 	C 	0.21633 0.10797 0.45886 0.02100
C 	C 	0.24400 0.07979 0.46723 -0.04700
C 	C 	0.30621 0.11159 0.47013 -0.02800
C 	C 	0.34097 0.17167 0.46470 -0.01000
C 	C 	0.31341 0.20006 0.45706 -0.02800
C 	C 	0.25120 0.16825 0.45414 -0.04700
C 	C 	0.15199 0.07458 0.45363 -0.01300
C 	C 	0.09803 0.04584 0.44902 -0.02800
C 	C 	0.40446 0.20363 0.46475 0.04700
C 	C 	0.45754 0.23082 0.46404 -0.10700
H 	H 	0.21729 0.03319 0.47098 0.04300
H 	H 	0.32721 0.08937 0.47603 0.03800
H 	H 	0.34004 0.24652 0.45281 0.03900
H 	H 	0.23011 0.19033 0.44772 0.04300
C 	C 	0.86658 0.75979 0.96827 0.01500
C 	C 	0.81430 0.72784 0.99227 -0.02500
C 	C 	0.78406 0.66676 0.99079 -0.00600
C 	C 	0.80602 0.63742 0.96532 -0.01500
C 	C 	0.85792 0.66923 0.94073 -0.02500
C 	C 	0.88815 0.73032 0.94220 -0.04400
C 	C 	0.89937 0.82314 0.97224 -0.00300
C 	C 	0.92786 0.87632 0.97571 -0.03000
C 	C 	0.77593 0.57499 0.96553 0.05500
C 	C 	0.75017 0.52274 0.96639 -0.10500
H 	H 	0.79740 0.75036 0.01251 0.02100
H 	H 	0.74388 0.64239 0.00981 0.01700
H 	H 	0.87509 0.64681 0.92091 0.04100
H 	H 	0.92859 0.75478 0.92358 0.04400
C 	C 	0.89337 0.11488 0.02210 0.01000
C 	C 	0.92453 0.17607 0.02261 -0.04600
C 	C 	0.89410 0.20188 0.02509 -0.03300
C 	C 	0.83237 0.16660 0.02702 -0.01100
C 	C 	0.80174 0.10583 0.02861 -0.03200
C 	C 	0.83218 0.08004 0.02619 -0.04500
C 	C 	0.92301 0.08708 0.01359 -0.00200
C 	C 	0.94670 0.06278 0.00565 -0.06700
C 	C 	0.79924 0.19114 0.02054 0.04000
C 	C 	0.77184 0.21176 0.01274 -0.11900
H 	H 	0.97188 0.20335 0.01970 0.03700
H 	H 	0.91810 0.24888 0.02379 0.03400
H 	H 	0.75404 0.07824 0.03004 0.03600
H 	H 	0.80784 0.03274 0.02606 0.03700
C 	C 	0.23480 0.11702 0.96176 0.01500
C 	C 	0.24924 0.08334 0.93005 -0.04400
C 	C 	0.30957 0.10734 0.92907 -0.02500
C 	C 	0.35568 0.16510 0.95977 -0.01500
C 	C 	0.34118 0.19925 0.99042 -0.00500
C 	C 	0.28086 0.17524 0.99145 -0.02500
C 	C 	0.17315 0.09019 0.96729 -0.00200
C 	C 	0.12130 0.06583 0.97216 -0.02900
C 	C 	0.41794 0.18873 0.96166 0.05500
C 	C 	0.47059 0.21003 0.96469 -0.10600
H 	H 	0.21384 0.03825 0.90705 0.04400
H 	H 	0.32042 0.08074 0.90516 0.04000
H 	H 	0.37662 0.24403 0.01413 0.01600
H 	H 	0.27007 0.20150 0.01613 0.02100
