data_crystal

_cell_length_a 18.45344
_cell_length_b 18.84225
_cell_length_c 26.43102
_cell_angle_alpha 95.42031
_cell_angle_beta  95.42119
_cell_angle_gamma 126.41646

_symmetry_space_group_name_	'P 1'
_symmetry_space_group_name_H-M	'P 1'

loop_
_symmetry_equiv_pos_as_xyz
  x,y,z

loop_
_atom_site_label
_atom_site_type_symbol
_atom_site_fract_x
_atom_site_fract_y
_atom_site_fract_z
_atom_site_charge
C 	C 	0.94017 0.03035 0.98064 0.08300
N 	N 	0.89531 0.94294 0.98454 -0.01500
C 	C 	0.94157 0.90794 0.98827 0.15800
N 	N 	0.03200 0.95948 0.98604 -0.00900
C 	C 	0.07669 0.04636 0.98100 0.12400
N 	N 	0.03127 0.08252 0.97950 -0.04400
C 	C 	0.90441 0.98969 0.45803 0.32500
N 	N 	0.86035 0.90101 0.45948 -0.08900
C 	C 	0.90881 0.86778 0.46235 0.16200
N 	N 	0.00007 0.92255 0.46259 -0.02100
C 	C 	0.04369 0.01048 0.46083 0.15800
N 	N 	0.99569 0.04373 0.45779 -0.16000
Cu	Cu	0.61591 0.20959 0.00862 0.93500
Cu	Cu	0.68945 0.22781 0.89930 0.89500
Cu	Cu	0.65253 0.35133 0.94623 0.91800
Cu	Cu	0.64444 0.38628 0.05838 0.93700
C 	C 	0.65458 0.26691 0.11894 0.28900
O 	O 	0.48801 0.17148 0.01339 -0.30700
C 	C 	0.64204 0.31189 0.83416 0.28800
O 	O 	0.69714 0.34992 0.01585 -0.63200
O 	O 	0.60070 0.22247 0.93604 -0.63100
O 	O 	0.66311 0.13900 0.99753 -0.30300
O 	O 	0.77027 0.24148 0.95583 -0.37600
O 	O 	0.61884 0.30883 0.11078 -0.29400
O 	O 	0.69247 0.47458 0.95810 -0.28200
C 	C 	0.74064 0.53425 0.00138 0.28600
C 	C 	0.46102 0.21976 0.00074 0.26300
O 	O 	0.52163 0.30537 0.99936 -0.31900
O 	O 	0.72620 0.51056 0.04689 -0.32200
O 	O 	0.65280 0.21592 0.08039 -0.28900
C 	C 	0.74129 0.17598 0.98153 0.30800
O 	O 	0.62755 0.35097 0.87192 -0.30600
O 	O 	0.63651 0.23981 0.83828 -0.37600
H 	H 	0.76458 0.38491 0.02499 0.21700
H 	H 	0.53676 0.18191 0.91660 0.19400
Cu	Cu	0.75427 0.33497 0.44437 0.93800
Cu	Cu	0.73733 0.26686 0.55480 0.88700
Cu	Cu	0.61571 0.30324 0.51151 0.90600
Cu	Cu	0.58221 0.32573 0.40332 0.94300
C 	C 	0.68390 0.29383 0.33492 0.29200
O 	O 	0.80754 0.46512 0.43960 -0.29500
C 	C 	0.67133 0.33363 0.62445 0.28600
O 	O 	0.61193 0.26338 0.44072 -0.63500
O 	O 	0.74742 0.35574 0.51781 -0.63600
O 	O 	0.81359 0.27445 0.45238 -0.29300
O 	O 	0.70836 0.17958 0.49786 -0.39300
O 	O 	0.64548 0.33324 0.34453 -0.28000
O 	O 	0.48537 0.24240 0.50387 -0.34300
C 	C 	0.43061 0.22726 0.46143 0.31000
C 	C 	0.76556 0.49940 0.45302 0.28900
O 	O 	0.68073 0.44645 0.46002 -0.33700
O 	O 	0.46267 0.27552 0.42492 -0.29000
O 	O 	0.73870 0.29559 0.37185 -0.28100
C 	C 	0.76997 0.19822 0.46945 0.29900
O 	O 	0.62431 0.33832 0.58559 -0.34000
O 	O 	0.73658 0.32615 0.61738 -0.37900
H 	H 	0.57156 0.19738 0.42910 0.22600
H 	H 	0.78984 0.41857 0.53688 0.20100
C 	C 	0.66006 0.35005 0.67820 -0.04000
C 	C 	0.73837 0.40893 0.71738 0.02000
C 	C 	0.73285 0.39848 0.76927 0.02100
C 	C 	0.64665 0.33819 0.78293 -0.03100
C 	C 	0.56629 0.29183 0.74479 0.02000
C 	C 	0.57291 0.29569 0.69213 0.01500
C 	C 	0.82432 0.48017 0.70427 0.14000
C 	C 	0.47715 0.23778 0.75955 0.13600
C 	C 	0.49064 0.24137 0.65248 0.13000
C 	C 	0.81616 0.44297 0.80746 0.14000
N 	N 	0.42491 0.19795 0.62088 -0.05900
N 	N 	0.88280 0.47815 0.83777 -0.04300
N 	N 	0.40604 0.19465 0.77138 -0.04600
N 	N 	0.89292 0.53705 0.69379 -0.05800
C 	C 	0.67161 0.25622 0.17238 -0.01000
C 	C 	0.59827 0.18861 0.19333 0.03000
C 	C 	0.60541 0.19589 0.24748 0.02500
C 	C 	0.68609 0.27035 0.28042 -0.00500
C 	C 	0.76395 0.33009 0.25927 0.03200
C 	C 	0.75665 0.32269 0.20508 0.02400
C 	C 	0.51492 0.11299 0.15921 0.16600
C 	C 	0.85029 0.40094 0.29316 0.17400
C 	C 	0.83582 0.38456 0.18300 0.14900
C 	C 	0.52918 0.12820 0.26937 0.14800
N 	N 	0.89897 0.43391 0.16533 -0.05000
N 	N 	0.46839 0.07425 0.28689 -0.04200
N 	N 	0.91918 0.45749 0.32024 -0.04800
N 	N 	0.44842 0.05265 0.13195 -0.05500
C 	C 	0.85410 0.65535 0.50143 0.06600
C 	C 	0.80899 0.59538 0.45393 0.01000
C 	C 	0.79138 0.62397 0.40982 -0.07100
C 	C 	0.81586 0.71110 0.41489 0.03500
C 	C 	0.86217 0.77147 0.46217 0.07600
C 	C 	0.87869 0.74257 0.50645 -0.09200
C 	C 	0.92621 0.80572 0.55856 0.75300
H 	H 	0.86797 0.63316 0.53485 0.08700
H 	H 	0.80235 0.73352 0.38148 0.11900
C 	C 	0.74492 0.56115 0.35760 0.78000
F 	F 	0.91197 0.75901 0.59859 -0.38500
F 	F 	0.89280 0.85401 0.56721 -0.33700
F 	F 	0.01945 0.86465 0.55956 -0.32000
F 	F 	0.65419 0.49348 0.35869 -0.44200
F 	F 	0.78870 0.52394 0.34627 -0.42900
F 	F 	0.74746 0.60556 0.31815 -0.39700
C 	C 	0.81997 0.11676 0.50994 0.04700
C 	C 	0.80082 0.14134 0.46496 0.01200
C 	C 	0.80338 0.10499 0.41625 -0.08700
C 	C 	0.83424 0.05204 0.41448 0.07300
C 	C 	0.85495 0.02894 0.45968 -0.04400
C 	C 	0.84357 0.05805 0.50755 -0.05800
C 	C 	0.85605 0.02616 0.55598 0.71600
H 	H 	0.81601 0.14334 0.54688 0.07300
H 	H 	0.84426 0.03039 0.37810 0.08300
C 	C 	0.77578 0.12413 0.36637 0.78100
F 	F 	0.83656 0.05754 0.59802 -0.40400
F 	F 	0.94559 0.05615 0.56837 -0.37100
F 	F 	0.79766 0.93336 0.54752 -0.31500
F 	F 	0.84240 0.21229 0.36256 -0.41500
F 	F 	0.69281 0.10963 0.36548 -0.43400
F 	F 	0.76580 0.06887 0.32340 -0.41200
C 	C 	0.29985 0.18970 0.50246 0.07600
C 	C 	0.33149 0.17136 0.46074 0.00200
C 	C 	0.26826 0.09959 0.41907 -0.05700
C 	C 	0.17395 0.05193 0.41845 0.02300
C 	C 	0.14244 0.06877 0.46074 0.07600
C 	C 	0.20589 0.13635 0.50406 -0.10100
C 	C 	0.17365 0.15262 0.55157 0.79000
H 	H 	0.34884 0.24562 0.53375 0.10200
H 	H 	0.12459 0.00031 0.38543 0.10000
C 	C 	0.30081 0.07474 0.37482 0.71700
F 	F 	0.24621 0.21117 0.59228 -0.39300
F 	F 	0.11426 0.07269 0.56808 -0.36100
F 	F 	0.12927 0.18929 0.53967 -0.37300
F 	F 	0.37091 0.07118 0.39375 -0.44400
F 	F 	0.33195 0.13796 0.34324 -0.41000
F 	F 	0.23079 0.99142 0.34512 -0.31600
C 	C 	0.79187 0.68781 0.03458 0.06600
C 	C 	0.79645 0.63081 0.99910 0.03400
C 	C 	0.85477 0.66705 0.96241 -0.06800
C 	C 	0.89806 0.75705 0.95815 0.03700
C 	C 	0.89366 0.81379 0.99375 0.09500
C 	C 	0.84501 0.78027 0.03455 -0.10500
C 	C 	0.84727 0.84186 0.07731 0.78900
H 	H 	0.74676 0.65993 0.06232 0.11300
H 	H 	0.93558 0.78333 0.92709 0.13800
C 	C 	0.86798 0.60979 0.92612 0.77800
F 	F 	0.81999 0.80207 0.12015 -0.38300
F 	F 	0.78847 0.86059 0.05956 -0.38200
F 	F 	0.93507 0.92129 0.09328 -0.39400
F 	F 	0.79368 0.55889 0.88567 -0.42800
F 	F 	0.87665 0.55383 0.95187 -0.45000
F 	F 	0.94659 0.66269 0.90580 -0.40200
C 	C 	0.89478 0.11446 0.02693 0.01300
C 	C 	0.89099 0.06935 0.98024 0.10000
C 	C 	0.83495 0.05608 0.93439 -0.11200
C 	C 	0.78160 0.08646 0.93661 0.07100
C 	C 	0.78677 0.13323 0.98301 -0.00100
C 	C 	0.84363 0.14749 0.02879 -0.06500
C 	C 	0.84837 0.19625 0.07966 0.77400
H 	H 	0.93700 0.12288 0.06186 0.11700
H 	H 	0.73713 0.07544 0.90197 0.06300
C 	C 	0.83079 0.00817 0.88335 0.73400
F 	F 	0.91042 0.20669 0.11935 -0.40500
F 	F 	0.76299 0.14784 0.09344 -0.41700
F 	F 	0.87527 0.28073 0.07452 -0.43100
F 	F 	0.78863 0.91883 0.88539 -0.33100
F 	F 	0.91845 0.04746 0.87401 -0.39000
F 	F 	0.78195 0.01226 0.84215 -0.41300
C 	C 	0.23457 0.15639 0.03010 0.02300
C 	C 	0.17606 0.10327 0.98275 0.08900
C 	C 	0.21243 0.09437 0.93991 -0.09700
C 	C 	0.30584 0.13159 0.94694 0.06000
C 	C 	0.36358 0.18106 0.99504 0.02800
C 	C 	0.32829 0.19496 0.03702 -0.07900
C 	C 	0.38936 0.24679 0.08981 0.78200
H 	H 	0.20584 0.16376 0.06228 0.12200
H 	H 	0.33375 0.12163 0.91511 0.08200
C 	C 	0.15095 0.04158 0.88741 0.73000
F 	F 	0.34198 0.25231 0.12562 -0.39300
F 	F 	0.46105 0.33329 0.08606 -0.44000
F 	F 	0.42407 0.20424 0.10809 -0.42900
F 	F 	0.09353 0.06452 0.87555 -0.36100
F 	F 	0.09857 0.95070 0.88818 -0.31900
F 	F 	0.20164 0.05898 0.84856 -0.39500
