data_crystal

_cell_length_a 19.40863
_cell_length_b 17.45291
_cell_length_c 34.02133
_cell_angle_alpha 88.29273
_cell_angle_beta  88.42870
_cell_angle_gamma 107.44537

_symmetry_space_group_name_	'P 1'
_symmetry_space_group_name_H-M	'P 1'

loop_
_symmetry_equiv_pos_as_xyz
  x,y,z

loop_
_atom_site_label
_atom_site_type_symbol
_atom_site_fract_x
_atom_site_fract_y
_atom_site_fract_z
_atom_site_charge
Zn	Zn	0.59098 0.32315 0.89234 1.22400
Zn	Zn	0.71473 0.45198 0.93870 1.19800
C 	C 	0.79319 0.24218 0.83027 0.32100
Zn	Zn	0.75378 0.37857 0.86452 1.22200
Zn	Zn	0.62932 0.21386 0.83401 1.19100
H 	H 	0.70934 0.30533 0.93034 0.17900
C 	C 	0.72419 0.53293 0.85607 0.31900
O 	O 	0.52155 0.17202 0.83654 -0.46800
O 	O 	0.49483 0.28242 0.86065 -0.40000
O 	O 	0.69683 0.34726 0.91436 -0.79400
O 	O 	0.62087 0.43669 0.96603 -0.47800
O 	O 	0.55577 0.22537 0.92563 -0.44300
O 	O 	0.55186 0.40902 0.91194 -0.42600
O 	O 	0.62755 0.16331 0.89405 -0.41900
O 	O 	0.81171 0.52050 0.92425 -0.47600
H 	H 	0.63597 0.36045 0.82286 0.17000
O 	O 	0.85317 0.42760 0.89379 -0.40900
O 	O 	0.65013 0.32935 0.84433 -0.80200
O 	O 	0.72644 0.19297 0.82885 -0.45900
O 	O 	0.76043 0.48626 0.84191 -0.44200
O 	O 	0.80642 0.32065 0.83200 -0.45200
O 	O 	0.68140 0.50962 0.88779 -0.42100
C 	C 	0.47597 0.21427 0.84208 0.31800
C 	C 	0.56192 0.43518 0.94795 0.31400
C 	C 	0.57771 0.16224 0.92116 0.30200
C 	C 	0.86451 0.49181 0.91495 0.30400
Zn	Zn	0.64103 0.40210 0.54856 1.22100
Zn	Zn	0.52179 0.28792 0.49190 1.19900
C 	C 	0.67848 0.15754 0.60821 0.28000
Zn	Zn	0.57230 0.21576 0.56497 1.22200
Zn	Zn	0.73209 0.33525 0.59926 1.18700
H 	H 	0.64452 0.27418 0.50354 0.17800
C 	C 	0.43248 0.24679 0.57176 0.31100
O 	O 	0.78548 0.45315 0.60129 -0.46300
O 	O 	0.69183 0.50130 0.58398 -0.39600
O 	O 	0.60835 0.28955 0.52002 -0.79700
O 	O 	0.55212 0.40249 0.47626 -0.48600
O 	O 	0.72653 0.43894 0.51312 -0.44000
O 	O 	0.56804 0.45660 0.53626 -0.43700
O 	O 	0.77026 0.34134 0.53766 -0.42000
O 	O 	0.45463 0.18057 0.49260 -0.47800
H 	H 	0.60369 0.33861 0.61543 0.16800
O 	O 	0.52106 0.11649 0.52819 -0.40200
O 	O 	0.62836 0.32389 0.59229 -0.79200
O 	O 	0.73180 0.22124 0.59609 -0.46000
O 	O 	0.47679 0.21215 0.58823 -0.44300
O 	O 	0.61550 0.13966 0.59132 -0.43100
O 	O 	0.45695 0.30390 0.54375 -0.41300
C 	C 	0.75803 0.51359 0.59665 0.28400
C 	C 	0.54476 0.45632 0.50037 0.32000
C 	C 	0.77663 0.40317 0.51338 0.30000
C 	C 	0.47019 0.11516 0.50295 0.30300
Zn	Zn	0.93965 0.91503 0.72175 1.22500
Zn	Zn	0.05341 0.92910 0.79386 1.20300
C 	C 	0.14934 0.09028 0.64074 0.27600
Zn	Zn	0.08724 0.04768 0.72275 1.22200
Zn	Zn	0.98825 0.00582 0.64144 1.18100
H 	H 	0.07629 0.89869 0.72123 0.18100
C 	C 	0.00550 0.08606 0.78875 0.33800
O 	O 	0.88259 0.97529 0.63544 -0.45400
O 	O 	0.84061 0.92270 0.69787 -0.39000
O 	O 	0.04974 0.93072 0.73523 -0.76700
O 	O 	0.96368 0.83889 0.80887 -0.46000
O 	O 	0.93181 0.81656 0.69411 -0.45700
O 	O 	0.88721 0.88931 0.77325 -0.42600
O 	O 	0.97582 0.87563 0.63455 -0.40500
O 	O 	0.13929 0.01633 0.81078 -0.45700
H 	H 	0.96119 0.05876 0.70569 0.16500
O 	O 	0.18701 0.05894 0.74906 -0.41500
O 	O 	0.98746 0.02017 0.69861 -0.83300
O 	O 	0.09653 0.03114 0.62650 -0.44300
O 	O 	0.05900 0.11566 0.76245 -0.43800
O 	O 	0.14613 0.11154 0.67755 -0.43400
O 	O 	0.98892 0.01061 0.80162 -0.45000
C 	C 	0.83501 0.96404 0.66541 0.30800
C 	C 	0.89787 0.83521 0.79829 0.30200
C 	C 	0.93086 0.81582 0.65579 0.32200
C 	C 	0.19404 0.05649 0.78725 0.29400
Zn	Zn	0.30889 0.69504 0.38869 1.22500
Zn	Zn	0.18100 0.55971 0.43921 1.19700
C 	C 	0.11535 0.78124 0.32460 0.28100
Zn	Zn	0.14765 0.64250 0.36513 1.22200
Zn	Zn	0.27629 0.81263 0.33266 1.18900
H 	H 	0.18832 0.70802 0.42932 0.18400
C 	C 	0.17765 0.48868 0.35678 0.28700
O 	O 	0.38459 0.85601 0.33128 -0.45800
O 	O 	0.40970 0.74298 0.35593 -0.39000
O 	O 	0.20175 0.66775 0.41341 -0.79100
O 	O 	0.27384 0.56872 0.46415 -0.46800
O 	O 	0.34205 0.78263 0.42341 -0.45200
O 	O 	0.34223 0.60672 0.40725 -0.44200
O 	O 	0.27691 0.85355 0.39310 -0.41300
O 	O 	0.08246 0.49500 0.42793 -0.46700
H 	H 	0.26927 0.66751 0.32035 0.17200
O 	O 	0.04544 0.59273 0.39728 -0.39500
O 	O 	0.25337 0.69528 0.34218 -0.80200
O 	O 	0.17850 0.83050 0.33395 -0.44900
O 	O 	0.14136 0.53650 0.34364 -0.43300
O 	O 	0.09716 0.70320 0.33297 -0.43200
O 	O 	0.21660 0.50658 0.38824 -0.41000
C 	C 	0.43146 0.81663 0.33965 0.28000
C 	C 	0.33633 0.58525 0.44484 0.31600
C 	C 	0.32437 0.84832 0.41900 0.30800
C 	C 	0.03154 0.52766 0.42043 0.31700
Zn	Zn	0.21142 0.71107 0.06201 1.22000
Zn	Zn	0.34261 0.87484 0.09162 1.19300
C 	C 	0.38577 0.58026 0.03169 0.28600
Zn	Zn	0.38160 0.73983 0.05455 1.21900
Zn	Zn	0.25756 0.60457 0.00227 1.20000
H 	H 	0.31117 0.72901 0.11895 0.16800
C 	C 	0.41153 0.88716 0.00808 0.29200
O 	O 	0.18233 0.61974 0.97054 -0.47200
O 	O 	0.12397 0.66320 0.02152 -0.38300
O 	O 	0.30900 0.75471 0.09287 -0.78200
O 	O 	0.25423 0.90395 0.08255 -0.45700
O 	O 	0.17885 0.61099 0.09568 -0.44100
O 	O 	0.15955 0.79036 0.07733 -0.42300
O 	O 	0.16903 0.53268 0.04247 -0.39300
O 	O 	0.44916 0.91125 0.09409 -0.47300
H 	H 	0.28680 0.75228 0.00093 0.17600
O 	O 	0.46819 0.78782 0.09230 -0.41200
O 	O 	0.28658 0.71264 0.02238 -0.80100
O 	O 	0.31540 0.55084 0.03270 -0.46600
O 	O 	0.43273 0.82384 0.01487 -0.44700
O 	O 	0.41752 0.64478 0.05105 -0.43100
O 	O 	0.35599 0.89572 0.02818 -0.41400
C 	C 	0.12483 0.63473 0.98564 0.30800
C 	C 	0.18960 0.85919 0.09427 0.30100
C 	C 	0.15528 0.54031 0.08001 0.30000
C 	C 	0.49125 0.86524 0.09880 0.32700
Zn	Zn	0.99322 0.13310 0.22395 1.21300
Zn	Zn	0.87407 0.10589 0.30108 1.18800
C 	C 	0.77554 0.00694 0.15092 0.25000
Zn	Zn	0.83886 0.01193 0.22724 1.21500
Zn	Zn	0.93679 0.07966 0.14307 1.18600
H 	H 	0.86053 0.16254 0.23111 0.17100
C 	C 	0.91168 0.94626 0.28620 0.34900
O 	O 	0.04165 0.12993 0.13492 -0.44500
O 	O 	0.08882 0.11984 0.19462 -0.37100
O 	O 	0.88394 0.12418 0.24244 -0.78900
O 	O 	0.96747 0.18397 0.31625 -0.48500
O 	O 	0.01452 0.24177 0.19916 -0.40900
O 	O 	0.04118 0.13932 0.27448 -0.43500
O 	O 	0.92901 0.20030 0.15387 -0.41800
O 	O 	0.78111 0.01958 0.31765 -0.48400
H 	H 	0.95950 0.99358 0.19982 0.18800
O 	O 	0.73695 0.99767 0.25614 -0.42000
O 	O 	0.93736 0.03777 0.19812 -0.82600
O 	O 	0.83140 0.05535 0.13043 -0.45300
O 	O 	0.85875 0.92884 0.26155 -0.45700
O 	O 	0.78468 0.96568 0.18212 -0.42800
O 	O 	0.93043 0.01564 0.30327 -0.44600
C 	C 	0.08436 0.10225 0.15693 0.28500
C 	C 	0.03242 0.18905 0.30136 0.35600
C 	C 	0.98194 0.25751 0.16817 0.27500
C 	C 	0.72709 0.98890 0.29448 0.34500
C 	C 	0.10405 0.47123 0.10284 -0.03900
C 	C 	0.06495 0.40264 0.08333 -0.04100
C 	C 	0.01995 0.33556 0.10457 0.04500
C 	C 	0.01278 0.33553 0.14574 -0.10000
C 	C 	0.04667 0.40724 0.16531 0.12100
C 	C 	0.09406 0.47358 0.14382 -0.06700
H 	H 	0.99344 0.28195 0.08907 -0.00300
H 	H 	0.12221 0.52702 0.15902 0.05400
H 	H 	0.07046 0.40045 0.05165 0.05100
N 	N 	0.03200 0.41378 0.20415 -0.18600
H 	H 	0.98951 0.37090 0.21934 0.06600
H 	H 	0.06033 0.46460 0.21897 0.08300
C 	C 	0.70379 0.98569 0.13460 -0.01700
C 	C 	0.64364 0.97495 0.16019 -0.04800
C 	C 	0.57504 0.93234 0.14870 0.03100
C 	C 	0.56507 0.90179 0.11102 -0.13600
C 	C 	0.62495 0.91736 0.08384 0.13600
C 	C 	0.69417 0.95927 0.09608 -0.08000
H 	H 	0.52920 0.92314 0.16915 0.01300
H 	H 	0.74076 0.96801 0.07619 0.05300
H 	H 	0.65064 0.99644 0.18981 0.05000
N 	N 	0.61645 0.89255 0.04626 -0.20700
H 	H 	0.56623 0.85958 0.03645 0.10200
H 	H 	0.66077 0.90602 0.02632 0.08300
C 	C 	0.10414 0.03096 0.14353 -0.12200
C 	C 	0.07820 0.99625 0.10789 0.01400
C 	C 	0.09705 0.93002 0.09458 -0.00600
C 	C 	0.14379 0.89869 0.11592 -0.10400
C 	C 	0.16317 0.92710 0.15392 0.08400
C 	C 	0.14446 0.99430 0.16714 -0.00900
H 	H 	0.08025 0.90744 0.06594 0.04200
H 	H 	0.16156 0.01784 0.19558 0.02800
H 	H 	0.04449 0.02154 0.08999 -0.00800
N 	N 	0.20045 0.89070 0.17750 -0.20000
H 	H 	0.21129 0.83814 0.16930 0.04700
H 	H 	0.21683 0.91328 0.20497 0.06400
C 	C 	0.50969 0.85750 0.33223 -0.03400
C 	C 	0.53930 0.93860 0.34113 -0.05000
C 	C 	0.61174 0.97970 0.33104 0.04900
C 	C 	0.65556 0.94064 0.31157 -0.14200
C 	C 	0.62703 0.85745 0.30440 0.13600
C 	C 	0.55401 0.81675 0.31466 -0.07900
H 	H 	0.63305 0.04289 0.33706 -0.00800
H 	H 	0.53161 0.75377 0.30836 0.05400
H 	H 	0.50589 0.97024 0.35539 0.04700
N 	N 	0.66940 0.81629 0.28820 -0.20600
H 	H 	0.72473 0.84304 0.28292 0.09800
H 	H 	0.64751 0.75572 0.28195 0.08400
C 	C 	0.16403 0.40846 0.34046 -0.04000
C 	C 	0.15372 0.39872 0.30006 -0.03100
C 	C 	0.11999 0.32262 0.28603 0.01900
C 	C 	0.09441 0.25602 0.31239 -0.13900
C 	C 	0.11431 0.26362 0.35209 0.13600
C 	C 	0.14876 0.34026 0.36597 -0.07100
H 	H 	0.10770 0.31682 0.25521 0.03100
H 	H 	0.15961 0.34715 0.39697 0.05100
H 	H 	0.16774 0.45071 0.27986 0.03800
N 	N 	0.09932 0.19794 0.37704 -0.20600
H 	H 	0.07755 0.14007 0.36686 0.09800
H 	H 	0.11176 0.20408 0.40670 0.08300
C 	C 	0.05960 0.81568 0.31063 -0.00600
C 	C 	0.07802 0.88014 0.28292 -0.05600
C 	C 	0.02720 0.91851 0.27270 0.06700
C 	C 	0.95741 0.89342 0.29031 -0.17500
C 	C 	0.93695 0.82508 0.31645 0.15200
C 	C 	0.98853 0.78664 0.32642 -0.11100
H 	H 	0.04307 0.97036 0.25241 0.01300
H 	H 	0.97391 0.73581 0.34738 0.06300
H 	H 	0.13232 0.90175 0.26994 0.03700
N 	N 	0.86860 0.79692 0.33245 -0.21000
H 	H 	0.82860 0.82288 0.32487 0.09800
H 	H 	0.85445 0.74737 0.35231 0.08400
C 	C 	0.42983 0.95280 0.49245 0.00200
H 	H 	0.45754 0.93187 0.51678 0.04000
C 	C 	0.44300 0.94321 0.44798 -0.00200
H 	H 	0.48085 0.91308 0.43517 0.03700
C 	C 	0.34708 0.92637 0.48663 -0.00200
H 	H 	0.30550 0.88253 0.50578 0.03000
C 	C 	0.36084 0.91812 0.44249 -0.06600
C 	C 	0.43244 0.04023 0.48334 -0.08400
C 	C 	0.35026 0.01497 0.47785 -0.01800
H 	H 	0.31223 0.04506 0.49046 0.03300
C 	C 	0.36366 0.00556 0.43347 -0.01900
H 	H 	0.33613 0.02678 0.40914 0.02900
C 	C 	0.44606 0.03152 0.43920 -0.02500
H 	H 	0.48755 0.07508 0.41987 0.01500
C 	C 	0.89214 0.52223 0.43959 -0.00600
H 	H 	0.88476 0.56879 0.41858 0.03100
C 	C 	0.88737 0.52460 0.48508 -0.00700
H 	H 	0.87509 0.57261 0.50206 0.03200
C 	C 	0.84619 0.43237 0.44210 -0.01400
H 	H 	0.79991 0.40413 0.42354 0.02200
C 	C 	0.84260 0.43526 0.48723 -0.07300
C 	C 	0.96091 0.49646 0.44273 -0.09400
C 	C 	0.91608 0.40716 0.44488 -0.01100
H 	H 	0.92842 0.35908 0.42800 0.02300
C 	C 	0.91149 0.40978 0.49028 -0.00800
H 	H 	0.91924 0.36337 0.51126 0.02200
C 	C 	0.95692 0.49931 0.48788 -0.04300
H 	H 	0.00297 0.52744 0.50663 0.03200
C 	C 	0.48055 0.57771 0.50374 -0.00700
H 	H 	0.51150 0.61679 0.52641 0.03600
C 	C 	0.39789 0.53416 0.50592 -0.00700
H 	H 	0.35956 0.53837 0.53000 0.03200
C 	C 	0.47524 0.60298 0.45999 -0.01100
H 	H 	0.50044 0.66375 0.44613 0.03700
C 	C 	0.39394 0.55846 0.46242 -0.07500
C 	C 	0.49293 0.49963 0.49020 -0.08000
C 	C 	0.48862 0.52462 0.44678 -0.00800
H 	H 	0.52657 0.52063 0.42244 0.03400
C 	C 	0.40688 0.48074 0.44917 -0.00900
H 	H 	0.37623 0.44121 0.42653 0.03200
C 	C 	0.41142 0.45582 0.49262 -0.01700
H 	H 	0.38515 0.39508 0.50624 0.03200
C 	C 	0.69671 0.09409 0.63075 -0.05100
C 	C 	0.69089 0.02034 0.61379 -0.05000
C 	C 	0.72840 0.97016 0.62920 0.03500
C 	C 	0.77244 0.99382 0.66139 -0.10900
C 	C 	0.76830 0.06132 0.68239 0.09200
C 	C 	0.73131 0.11193 0.66636 -0.07100
H 	H 	0.72866 0.91662 0.61392 0.03000
H 	H 	0.73249 0.16710 0.68056 0.01800
H 	H 	0.66209 0.00489 0.58690 0.04600
N 	N 	0.80139 0.07910 0.71714 -0.20500
H 	H 	0.82581 0.04044 0.73099 0.08000
H 	H 	0.79987 0.13052 0.73166 0.07500
C 	C 	0.21394 0.13418 0.61534 -0.04400
C 	C 	0.25018 0.09188 0.59240 -0.03500
C 	C 	0.31926 0.13090 0.57563 0.01500
C 	C 	0.35329 0.21315 0.58126 -0.12000
C 	C 	0.31462 0.25765 0.60191 0.12100
C 	C 	0.24527 0.21758 0.61885 -0.07100
H 	H 	0.34803 0.09603 0.55999 0.03100
H 	H 	0.21672 0.25104 0.63576 0.05000
H 	H 	0.22673 0.02782 0.58925 0.04000
N 	N 	0.34375 0.33803 0.60622 -0.20600
H 	H 	0.39396 0.36985 0.59332 0.09600
H 	H 	0.31540 0.37001 0.62211 0.08100
C 	C 	0.80123 0.59551 0.60715 -0.04200
C 	C 	0.87670 0.62196 0.60044 -0.03700
C 	C 	0.91826 0.69589 0.61448 0.01500
C 	C 	0.88531 0.74268 0.63679 -0.12400
C 	C 	0.80876 0.71587 0.64324 0.12400
C 	C 	0.76749 0.64513 0.62628 -0.07400
H 	H 	0.97635 0.71516 0.60927 0.02300
H 	H 	0.70924 0.62537 0.63108 0.05500
H 	H 	0.90328 0.58510 0.58463 0.03700
N 	N 	0.77509 0.75512 0.66725 -0.20500
H 	H 	0.79993 0.78165 0.69216 0.09900
H 	H 	0.71965 0.74656 0.66534 0.08800
C 	C 	0.01698 0.50881 0.96940 0.00000
H 	H 	0.03525 0.46385 0.98655 0.03400
C 	C 	0.00685 0.50970 0.92443 0.00500
H 	H 	0.01529 0.46462 0.90399 0.04000
C 	C 	0.94471 0.52719 0.97656 -0.02500
H 	H 	0.90201 0.49580 0.99890 0.01400
C 	C 	0.93553 0.52854 0.93182 -0.09000
C 	C 	0.05573 0.59972 0.96647 -0.05900
C 	C 	0.98438 0.61849 0.97384 -0.02200
H 	H 	0.97587 0.66350 0.99429 0.03200
C 	C 	0.97424 0.61947 0.92886 -0.02200
H 	H 	0.95582 0.66435 0.91171 0.03200
C 	C 	0.04674 0.60115 0.92171 -0.00100
H 	H 	0.08954 0.63258 0.89944 0.03100
C 	C 	0.48731 0.08635 0.97887 0.00100
H 	H 	0.47830 0.14050 0.99168 0.03500
C 	C 	0.51714 0.02549 0.00120 -0.04000
H 	H 	0.53223 0.02860 0.03249 0.03600
C 	C 	0.42838 0.01682 0.96139 -0.02700
H 	H 	0.37039 0.01296 0.95971 0.03600
C 	C 	0.45840 0.95654 0.98356 -0.04400
C 	C 	0.53827 0.08585 0.94343 -0.07000
C 	C 	0.47966 0.01676 0.92577 -0.02500
H 	H 	0.46480 0.01361 0.89444 0.03100
C 	C 	0.50928 0.95534 0.94824 0.00600
H 	H 	0.51772 0.90058 0.93583 0.03100
C 	C 	0.56870 0.02571 0.96552 -0.01800
H 	H 	0.62677 0.02994 0.96711 0.02700
C 	C 	0.50519 0.53705 0.02010 -0.00500
H 	H 	0.53369 0.56312 0.04669 0.03500
C 	C 	0.53282 0.56078 0.97708 -0.00800
H 	H 	0.58483 0.60599 0.96769 0.02900
C 	C 	0.48311 0.44725 0.01027 -0.01800
H 	H 	0.49401 0.39849 0.02840 0.03200
C 	C 	0.51036 0.47132 0.96743 -0.06900
C 	C 	0.43013 0.53997 0.00864 -0.09100
C 	C 	0.40732 0.45049 0.99900 -0.00200
H 	H 	0.35532 0.40536 0.00845 0.02900
C 	C 	0.43523 0.47402 0.95579 -0.01600
H 	H 	0.40701 0.44783 0.92915 0.03600
C 	C 	0.45708 0.56414 0.96579 -0.01800
H 	H 	0.44606 0.61303 0.94782 0.01100
C 	C 	0.96021 0.13575 0.80224 -0.08400
C 	C 	0.94798 0.19500 0.77698 -0.02600
C 	C 	0.89566 0.23217 0.78719 0.00800
C 	C 	0.85427 0.20995 0.82254 -0.12400
C 	C 	0.86935 0.15375 0.84924 0.11500
C 	C 	0.92220 0.11700 0.83876 -0.05300
H 	H 	0.88518 0.27591 0.76681 0.01900
H 	H 	0.93293 0.07289 0.85885 0.04600
H 	H 	0.97675 0.20994 0.74871 0.02100
N 	N 	0.83407 0.13551 0.88502 -0.20200
H 	H 	0.79794 0.16539 0.89474 0.08100
H 	H 	0.84416 0.09234 0.90408 0.07600
C 	C 	0.26282 0.10245 0.80378 -0.04700
C 	C 	0.28694 0.07440 0.83821 -0.03500
C 	C 	0.35557 0.11351 0.85146 0.01900
C 	C 	0.40101 0.18096 0.83042 -0.12600
C 	C 	0.37573 0.21191 0.79664 0.12100
C 	C 	0.30647 0.17239 0.78373 -0.06700
H 	H 	0.37415 0.09035 0.87770 0.02700
H 	H 	0.28702 0.19546 0.75771 0.05900
H 	H 	0.25341 0.02090 0.85410 0.03500
N 	N 	0.41785 0.27848 0.77619 -0.20400
H 	H 	0.46953 0.30950 0.78499 0.07600
H 	H 	0.39883 0.30023 0.75107 0.08000
C 	C 	0.83633 0.76759 0.81324 -0.04800
C 	C 	0.82436 0.75144 0.85386 -0.02700
C 	C 	0.77805 0.67744 0.86817 0.01900
C 	C 	0.74506 0.61780 0.84199 -0.12200
C 	C 	0.74991 0.63769 0.80114 0.12600
C 	C 	0.79649 0.71237 0.78702 -0.06800
H 	H 	0.77302 0.66383 0.89959 0.02700
H 	H 	0.80450 0.72554 0.75564 0.04800
H 	H 	0.85380 0.79453 0.87436 0.03900
N 	N 	0.71070 0.58516 0.77548 -0.20200
H 	H 	0.67225 0.53176 0.78548 0.07800
H 	H 	0.71643 0.59886 0.74521 0.08000
