data_crystal

_cell_length_a 30.48974
_cell_length_b 31.21641
_cell_length_c 35.02053
_cell_angle_alpha 95.52141
_cell_angle_beta  95.52092
_cell_angle_gamma 125.53331

_symmetry_space_group_name_	'P 1'
_symmetry_space_group_name_H-M	'P 1'

loop_
_symmetry_equiv_pos_as_xyz
  x,y,z

loop_
_atom_site_label
_atom_site_type_symbol
_atom_site_fract_x
_atom_site_fract_y
_atom_site_fract_z
_atom_site_charge
C 	C 	0.98666 0.03392 0.99325 0.12300
N 	N 	0.03822 0.06081 0.98526 -0.14100
C 	C 	0.06168 0.03520 0.97996 0.12200
N 	N 	0.03353 0.98270 0.98269 -0.14200
C 	C 	0.98215 0.95572 0.99078 0.12100
N 	N 	0.95880 0.98140 0.99610 -0.14300
C 	C 	0.92623 0.98256 0.44619 0.11400
N 	N 	0.89636 0.92850 0.44344 -0.14000
C 	C 	0.92152 0.90413 0.44160 0.11800
N 	N 	0.97645 0.93387 0.44271 -0.14000
C 	C 	0.00641 0.98779 0.44566 0.11300
N 	N 	0.98123 0.01205 0.44731 -0.13800
Cu	Cu	0.66431 0.26968 0.00131 0.92800
Cu	Cu	0.71764 0.27472 0.92327 0.87100
Cu	Cu	0.69942 0.35551 0.95107 0.89700
Cu	Cu	0.65696 0.36507 0.02290 0.89300
C 	C 	0.67036 0.30784 0.08111 0.29100
O 	O 	0.58271 0.23434 0.99507 -0.36300
C 	C 	0.69041 0.31992 0.86727 0.29300
O 	O 	0.70588 0.35278 0.00551 -0.64100
O 	O 	0.66338 0.27684 0.94578 -0.64100
O 	O 	0.70073 0.23347 0.00339 -0.37400
O 	O 	0.76518 0.29004 0.96999 -0.44200
O 	O 	0.64444 0.32743 0.06821 -0.38600
O 	O 	0.73784 0.43238 0.96034 -0.38100
C 	C 	0.72806 0.45928 0.98515 0.29200
C 	C 	0.56067 0.25544 0.97862 0.28300
O 	O 	0.59227 0.30568 0.97455 -0.39200
O 	O 	0.68770 0.43460 0.00495 -0.39700
O 	O 	0.67622 0.27696 0.05698 -0.35800
C 	C 	0.74869 0.25485 0.99309 0.29400
O 	O 	0.70694 0.36000 0.89590 -0.38500
O 	O 	0.68727 0.27755 0.87423 -0.42000
H 	H 	0.74391 0.37677 0.02058 0.16300
H 	H 	0.62656 0.25438 0.92886 0.17200
Cu	Cu	0.71419 0.32393 0.44698 0.92700
Cu	Cu	0.71977 0.29113 0.53257 0.87000
Cu	Cu	0.62897 0.29481 0.49886 0.89700
Cu	Cu	0.60804 0.31612 0.41883 0.89500
C 	C 	0.68039 0.31595 0.36583 0.29600
O 	O 	0.74603 0.40131 0.44449 -0.37000
C 	C 	0.67151 0.32117 0.58405 0.29300
O 	O 	0.62898 0.27897 0.44473 -0.64000
O 	O 	0.71009 0.33485 0.50272 -0.64200
O 	O 	0.75439 0.29144 0.45039 -0.37400
O 	O 	0.70250 0.23703 0.49088 -0.44100
O 	O 	0.63469 0.31063 0.36978 -0.38200
O 	O 	0.54982 0.25190 0.49118 -0.38100
C 	C 	0.51892 0.25507 0.46420 0.29000
C 	C 	0.72022 0.42175 0.45375 0.28600
O 	O 	0.66970 0.39030 0.45946 -0.39200
O 	O 	0.54090 0.29106 0.44140 -0.39500
O 	O 	0.70389 0.30374 0.39183 -0.36700
C 	C 	0.73516 0.24819 0.46560 0.28900
O 	O 	0.62853 0.29836 0.55544 -0.38800
O 	O 	0.71685 0.32760 0.57803 -0.41600
H 	H 	0.60698 0.24018 0.43378 0.16600
H 	H 	0.73114 0.37279 0.51582 0.17300
C 	C 	0.64595 0.34418 0.77185 -0.07400
C 	C 	0.67530 0.33594 0.74747 0.01300
C 	C 	0.71109 0.32454 0.76295 -0.00600
C 	C 	0.71642 0.32053 0.80228 -0.00200
C 	C 	0.68603 0.32731 0.82650 -0.09400
C 	C 	0.65066 0.33940 0.81117 0.05800
C 	C 	0.66587 0.33591 0.70526 0.01200
S 	S 	0.74838 0.31379 0.73309 -0.04600
H 	H 	0.74395 0.31167 0.81402 0.02900
S 	S 	0.60995 0.34576 0.84017 -0.05300
H 	H 	0.61825 0.35275 0.75993 0.05200
C 	C 	0.62394 0.28829 0.67910 -0.00700
C 	C 	0.62337 0.28534 0.63892 -0.00500
C 	C 	0.66474 0.32925 0.62457 -0.09500
C 	C 	0.70351 0.37839 0.65041 0.05700
C 	C 	0.70370 0.38152 0.69060 -0.07300
S 	S 	0.57354 0.23140 0.69645 -0.04500
H 	H 	0.59253 0.24790 0.61901 0.03700
S 	S 	0.75156 0.43621 0.63279 -0.05700
H 	H 	0.73493 0.41870 0.71061 0.05300
H 	H 	0.56143 0.29635 0.83804 0.03300
H 	H 	0.53062 0.23368 0.70036 0.03500
H 	H 	0.72950 0.46259 0.62406 0.03600
H 	H 	0.71671 0.26095 0.71528 0.03300
C 	C 	0.73757 0.33228 0.18544 -0.07200
C 	C 	0.69250 0.31173 0.20429 0.01300
C 	C 	0.63984 0.28779 0.18228 -0.00500
C 	C 	0.63299 0.28573 0.14193 -0.00200
C 	C 	0.67819 0.30739 0.12315 -0.08900
C 	C 	0.73068 0.33010 0.14498 0.05300
C 	C 	0.70103 0.31766 0.24728 0.01300
S 	S 	0.58223 0.26044 0.20497 -0.03800
H 	H 	0.59247 0.26756 0.12513 0.04300
S 	S 	0.78826 0.35738 0.12227 -0.05300
H 	H 	0.77805 0.35050 0.20233 0.05200
C 	C 	0.69364 0.27596 0.26526 -0.00600
C 	C 	0.69103 0.27761 0.30503 -0.00200
C 	C 	0.69553 0.32048 0.32700 -0.08900
C 	C 	0.70760 0.36427 0.30972 0.05500
C 	C 	0.71033 0.36265 0.27000 -0.07200
S 	S 	0.68579 0.22074 0.23802 -0.03900
H 	H 	0.68295 0.24438 0.31843 0.04400
S 	S 	0.71960 0.42138 0.33754 -0.05700
H 	H 	0.71756 0.39546 0.25642 0.05200
H 	H 	0.81076 0.41004 0.12136 0.02800
H 	H 	0.73642 0.23201 0.23790 0.03700
H 	H 	0.77478 0.45834 0.35142 0.03800
H 	H 	0.56089 0.20830 0.20697 0.03700
C 	C 	0.88981 0.84577 0.43914 -0.02400
C 	C 	0.85442 0.82064 0.46542 -0.01700
C 	C 	0.83168 0.76717 0.46752 -0.05300
C 	C 	0.84396 0.73852 0.44325 0.02600
C 	C 	0.87711 0.76276 0.41575 -0.05300
C 	C 	0.89993 0.81615 0.41366 -0.01600
C 	C 	0.82465 0.68514 0.44769 -0.01600
C 	C 	0.80881 0.64042 0.45104 -0.02500
C 	C 	0.78985 0.58691 0.45476 0.04100
C 	C 	0.81347 0.56438 0.43763 -0.07200
C 	C 	0.79262 0.51118 0.43899 0.01600
C 	C 	0.74750 0.47993 0.45714 -0.09300
C 	C 	0.72552 0.50350 0.47574 0.01500
C 	C 	0.74654 0.55669 0.47441 -0.07200
H 	H 	0.84630 0.84306 0.48523 0.03900
H 	H 	0.80564 0.74849 0.48863 0.04400
H 	H 	0.88625 0.74065 0.39659 0.04400
H 	H 	0.92667 0.83494 0.39295 0.03800
H 	H 	0.84737 0.58774 0.42270 0.04800
H 	H 	0.81060 0.49394 0.42503 0.03400
H 	H 	0.69154 0.48037 0.49062 0.03100
H 	H 	0.72854 0.57409 0.48814 0.04800
C 	C 	0.89931 0.00940 0.44817 -0.01700
C 	C 	0.84779 0.98593 0.42476 -0.02400
C 	C 	0.82454 0.01360 0.42438 -0.04500
C 	C 	0.85254 0.06476 0.44743 0.02200
C 	C 	0.90333 0.08772 0.47141 -0.05000
C 	C 	0.92663 0.06020 0.47183 -0.02000
C 	C 	0.82943 0.09398 0.44637 -0.01500
C 	C 	0.81100 0.11927 0.44602 -0.02700
C 	C 	0.78959 0.15005 0.44649 0.04100
C 	C 	0.82285 0.20365 0.44189 -0.07300
C 	C 	0.80421 0.23524 0.44643 0.01700
C 	C 	0.75220 0.21343 0.45583 -0.09700
C 	C 	0.71814 0.15907 0.45884 0.01700
C 	C 	0.73685 0.12759 0.45425 -0.07400
H 	H 	0.82637 0.94689 0.40624 0.04200
H 	H 	0.78510 0.99548 0.40589 0.04100
H 	H 	0.92498 0.12708 0.48953 0.04300
H 	H 	0.96608 0.07851 0.49037 0.04000
H 	H 	0.86361 0.22123 0.43572 0.04900
H 	H 	0.83090 0.27703 0.44393 0.03200
H 	H 	0.67757 0.14144 0.46540 0.02800
H 	H 	0.71076 0.08607 0.45757 0.04800
C 	C 	0.45964 0.22472 0.46422 -0.09000
C 	C 	0.43168 0.24632 0.45356 0.01800
C 	C 	0.37520 0.21684 0.45234 -0.07200
C 	C 	0.34619 0.16565 0.46176 0.04200
C 	C 	0.37396 0.14419 0.47288 -0.07200
C 	C 	0.43053 0.17362 0.47415 0.01800
C 	C 	0.28774 0.13476 0.45915 -0.02600
C 	C 	0.23880 0.10934 0.45683 -0.01500
C 	C 	0.18032 0.07907 0.45372 0.02400
C 	C 	0.14558 0.02830 0.42974 -0.04900
C 	C 	0.08875 0.99880 0.42665 -0.02300
C 	C 	0.06623 0.01990 0.44762 -0.01800
C 	C 	0.10120 0.07107 0.47138 -0.01900
C 	C 	0.15805 0.10051 0.47439 -0.05100
H 	H 	0.45369 0.28596 0.44633 0.03300
H 	H 	0.35396 0.23372 0.44386 0.04900
H 	H 	0.35171 0.10459 0.48022 0.04900
H 	H 	0.45152 0.15639 0.48227 0.03000
H 	H 	0.16257 0.01165 0.41349 0.04300
H 	H 	0.06225 0.95963 0.40790 0.04000
H 	H 	0.08444 0.08768 0.48794 0.03900
H 	H 	0.18474 0.13985 0.49292 0.04400
C 	C 	0.75745 0.51735 0.98644 -0.09000
C 	C 	0.73193 0.54188 0.99515 0.01900
C 	C 	0.75990 0.59690 0.99655 -0.07000
C 	C 	0.81347 0.62785 0.98926 0.04100
C 	C 	0.83907 0.60362 0.98052 -0.07100
C 	C 	0.81121 0.54856 0.97911 0.01800
C 	C 	0.84212 0.68449 0.99072 -0.02400
C 	C 	0.86598 0.73192 0.99197 -0.01700
C 	C 	0.89463 0.78855 0.99338 0.02800
C 	C 	0.95106 0.82391 0.00832 -0.05500
C 	C 	0.97945 0.87867 0.00824 -0.01500
C 	C 	0.95154 0.89848 0.99312 -0.02400
C 	C 	0.89471 0.86302 0.97886 -0.01600
C 	C 	0.86641 0.80823 0.97898 -0.05400
H 	H 	0.69032 0.51830 0.00049 0.03200
H 	H 	0.73985 0.61541 0.00323 0.04700
H 	H 	0.88056 0.62738 0.97489 0.04900
H 	H 	0.83156 0.53031 0.97266 0.03100
H 	H 	0.97305 0.80895 0.01971 0.04400
H 	H 	0.02313 0.90564 0.01980 0.03800
H 	H 	0.87269 0.87768 0.96695 0.03800
H 	H 	0.82270 0.78107 0.96747 0.04500
C 	C 	0.78031 0.23387 0.00276 -0.10300
C 	C 	0.75405 0.18261 0.01229 0.01900
C 	C 	0.78199 0.15971 0.01591 -0.07500
C 	C 	0.83634 0.18787 0.01023 0.04300
C 	C 	0.86357 0.24005 0.00282 -0.07900
C 	C 	0.83580 0.26309 0.99923 0.02100
C 	C 	0.86264 0.16169 0.00886 -0.02700
C 	C 	0.88469 0.13981 0.00771 -0.01600
C 	C 	0.91024 0.11295 0.00539 0.02400
C 	C 	0.87846 0.05811 0.98964 -0.05200
C 	C 	0.90334 0.03229 0.98578 -0.01400
C 	C 	0.96037 0.06117 0.99772 -0.02300
C 	C 	0.99209 0.11614 0.01381 -0.01600
C 	C 	0.96706 0.14189 0.01758 -0.05300
H 	H 	0.71149 0.15972 0.01552 0.03400
H 	H 	0.76083 0.11949 0.02200 0.04900
H 	H 	0.90582 0.26227 0.99882 0.04900
H 	H 	0.85703 0.30313 0.99279 0.02700
H 	H 	0.83453 0.03556 0.98004 0.04400
H 	H 	0.87839 0.99001 0.97304 0.03700
H 	H 	0.03600 0.13882 0.02355 0.03800
H 	H 	0.99188 0.18434 0.02978 0.04400
C 	C 	0.50036 0.22542 0.97017 -0.09200
C 	C 	0.46716 0.18165 0.98829 0.01800
C 	C 	0.41110 0.15789 0.98461 -0.07200
C 	C 	0.38769 0.17745 0.96274 0.04100
C 	C 	0.42004 0.21942 0.94314 -0.07200
C 	C 	0.47614 0.24323 0.94669 0.01400
C 	C 	0.33115 0.15619 0.96210 -0.02500
C 	C 	0.28371 0.13764 0.96207 -0.01600
C 	C 	0.22707 0.11471 0.96288 0.02600
C 	C 	0.21356 0.14167 0.98771 -0.05200
C 	C 	0.15906 0.11662 0.99208 -0.01400
C 	C 	0.11778 0.06430 0.97175 -0.02600
C 	C 	0.13120 0.03833 0.94566 -0.01300
C 	C 	0.18565 0.06345 0.94131 -0.05400
H 	H 	0.48500 0.16713 0.00626 0.03600
H 	H 	0.38616 0.12508 0.99954 0.05000
H 	H 	0.40202 0.23431 0.92578 0.04800
H 	H 	0.50091 0.27616 0.93184 0.03100
H 	H 	0.24540 0.18141 0.00440 0.04300
H 	H 	0.14928 0.13714 0.01226 0.03700
H 	H 	0.09960 0.99831 0.92932 0.03700
H 	H 	0.19577 0.04251 0.92188 0.04500
