data_crystal

_cell_length_a 18.08308
_cell_length_b 14.99614
_cell_length_c 43.42958
_cell_angle_alpha 90.87250
_cell_angle_beta  91.26639
_cell_angle_gamma 111.13143

_symmetry_space_group_name_	'P 1'
_symmetry_space_group_name_H-M	'P 1'

loop_
_symmetry_equiv_pos_as_xyz
  x,y,z

loop_
_atom_site_label
_atom_site_type_symbol
_atom_site_fract_x
_atom_site_fract_y
_atom_site_fract_z
_atom_site_charge
Ni	Ni	0.69876 0.35126 0.88260 1.11600
O 	O 	0.60547 0.27760 0.85347 -0.70200
Ni	Ni	0.51510 0.27677 0.87851 1.11700
O 	O 	0.77710 0.34131 0.85066 -0.27100
O 	O 	0.71573 0.17807 0.84505 -0.31600
O 	O 	0.69265 0.46715 0.86050 -0.36700
Ni	Ni	0.59225 0.14578 0.84419 1.09100
O 	O 	0.71628 0.44757 0.95248 -0.36200
O 	O 	0.59122 0.10843 0.88938 -0.35500
O 	O 	0.43075 0.21543 0.84568 -0.31500
O 	O 	0.60723 0.33390 0.90958 -0.69900
O 	O 	0.79136 0.43647 0.91098 -0.28400
O 	O 	0.43430 0.30774 0.90476 -0.28000
O 	O 	0.51912 0.46110 0.90907 -0.38200
Ni	Ni	0.62264 0.45816 0.92906 1.09600
H 	H 	0.60564 0.31163 0.83410 0.19000
H 	H 	0.60691 0.28800 0.92572 0.19500
C 	C 	0.53156 0.10267 0.90696 0.31300
O 	O 	0.69476 0.56395 0.90181 -0.33500
C 	C 	0.76923 0.26012 0.83632 0.27200
C 	C 	0.41636 0.12723 0.83575 0.30700
C 	C 	0.71406 0.55206 0.87341 0.32100
C 	C 	0.45218 0.39438 0.91625 0.32400
C 	C 	0.78540 0.46303 0.93994 0.34000
O 	O 	0.48289 0.14684 0.89966 -0.30600
O 	O 	0.46908 0.08427 0.84010 -0.33900
Ni	Ni	0.62282 0.30441 0.56934 1.10700
O 	O 	0.71737 0.32202 0.54156 -0.69500
Ni	Ni	0.77635 0.25100 0.56515 1.10800
O 	O 	0.58256 0.39604 0.54525 -0.30300
O 	O 	0.70291 0.51530 0.54649 -0.31700
O 	O 	0.54590 0.20184 0.53950 -0.30900
Ni	Ni	0.78831 0.45640 0.53975 1.12300
O 	O 	0.50074 0.11790 0.59363 -0.33100
O 	O 	0.79990 0.46646 0.58613 -0.34100
O 	O 	0.86696 0.27349 0.53527 -0.30100
O 	O 	0.68069 0.23184 0.59246 -0.69800
O 	O 	0.53205 0.27972 0.59892 -0.31100
O 	O 	0.81419 0.15721 0.58946 -0.28500
O 	O 	0.69318 0.03669 0.58720 -0.32300
Ni	Ni	0.60708 0.09759 0.59114 1.08700
H 	H 	0.70158 0.29348 0.52069 0.19700
H 	H 	0.69577 0.25721 0.61379 0.18700
C 	C 	0.85487 0.44281 0.59918 0.29500
O 	O 	0.60088 0.08828 0.54433 -0.36500
C 	C 	0.63174 0.47616 0.53445 0.31700
C 	C 	0.89936 0.35792 0.52284 0.30600
C 	C 	0.55839 0.12665 0.52841 0.32400
C 	C 	0.76537 0.07439 0.59907 0.27200
C 	C 	0.48974 0.19201 0.60691 0.28500
O 	O 	0.85467 0.35537 0.59482 -0.32900
O 	O 	0.89225 0.43350 0.53613 -0.32600
Ni	Ni	0.96650 0.97327 0.74695 1.12300
O 	O 	0.00416 0.86631 0.73438 -0.69200
Ni	Ni	0.06496 0.92007 0.69671 1.12500
O 	O 	0.90362 0.89870 0.78282 -0.30900
O 	O 	0.83378 0.77534 0.75025 -0.29200
O 	O 	0.06325 0.02676 0.77705 -0.32900
Ni	Ni	0.91865 0.74317 0.72549 1.09600
O 	O 	0.05490 0.18946 0.75786 -0.32600
O 	O 	0.87036 0.77125 0.68481 -0.30500
O 	O 	0.09421 0.80440 0.68478 -0.27100
O 	O 	0.02345 0.02713 0.70835 -0.66100
O 	O 	0.92828 0.08094 0.75695 -0.27600
O 	O 	0.14558 0.99978 0.66560 -0.32300
O 	O 	0.16849 0.15482 0.68012 -0.30500
Ni	Ni	0.10411 0.15217 0.71962 1.11300
H 	H 	0.04015 0.85688 0.75041 0.21900
H 	H 	0.98572 0.03479 0.69270 0.20300
C 	C 	0.90356 0.84905 0.66893 0.27300
O 	O 	0.16636 0.08851 0.74468 -0.30200
C 	C 	0.84956 0.81336 0.77823 0.30400
C 	C 	0.03874 0.71748 0.68353 0.29900
C 	C 	0.13630 0.03875 0.76904 0.26600
C 	C 	0.19579 0.08793 0.67149 0.32400
C 	C 	0.97781 0.16880 0.76099 0.28600
O 	O 	0.97896 0.87638 0.66294 -0.36500
O 	O 	0.99315 0.68353 0.70714 -0.32000
Ni	Ni	0.24053 0.66038 0.39611 1.10900
O 	O 	0.33446 0.71793 0.36757 -0.70000
Ni	Ni	0.42583 0.71721 0.39486 1.11400
O 	O 	0.15889 0.68415 0.36668 -0.26700
O 	O 	0.23611 0.83516 0.35463 -0.35200
O 	O 	0.20789 0.53036 0.37279 -0.31100
Ni	Ni	0.35556 0.85261 0.35825 1.08600
O 	O 	0.19420 0.47131 0.43096 -0.37100
O 	O 	0.35398 0.89350 0.40341 -0.37100
O 	O 	0.51314 0.77325 0.36419 -0.29500
O 	O 	0.33239 0.65989 0.42342 -0.69700
O 	O 	0.15288 0.59780 0.42643 -0.31900
O 	O 	0.50713 0.69783 0.42519 -0.29100
O 	O 	0.43360 0.54193 0.43242 -0.35300
Ni	Ni	0.31514 0.52515 0.43133 1.09200
H 	H 	0.33000 0.67907 0.34852 0.21700
H 	H 	0.33766 0.69712 0.44281 0.19600
C 	C 	0.40904 0.89284 0.42347 0.32200
O 	O 	0.31773 0.49844 0.38580 -0.36000
C 	C 	0.17944 0.75340 0.34680 0.28000
C 	C 	0.52169 0.85346 0.35022 0.29200
C 	C 	0.25420 0.48118 0.36850 0.31100
C 	C 	0.48907 0.62146 0.44196 0.31600
C 	C 	0.15066 0.51957 0.44055 0.32500
O 	O 	0.45831 0.84971 0.41650 -0.32300
O 	O 	0.47765 0.90412 0.35776 -0.34000
Ni	Ni	0.37175 0.71778 0.05596 1.11400
O 	O 	0.27124 0.68933 0.02917 -0.69600
Ni	Ni	0.20497 0.73950 0.05555 1.11300
O 	O 	0.41068 0.62176 0.03340 -0.29800
O 	O 	0.28876 0.50715 0.03598 -0.36400
O 	O 	0.43551 0.81883 0.02512 -0.32300
Ni	Ni	0.20844 0.55886 0.01600 1.10700
O 	O 	0.48604 0.91607 0.07812 -0.36000
O 	O 	0.12637 0.51009 0.05014 -0.31200
O 	O 	0.09500 0.68279 0.03282 -0.29800
O 	O 	0.31256 0.78504 0.07929 -0.69600
O 	O 	0.46929 0.75802 0.08429 -0.28900
O 	O 	0.16304 0.82075 0.08384 -0.27200
O 	O 	0.27218 0.95492 0.07735 -0.36700
Ni	Ni	0.37400 0.92131 0.07738 1.08900
H 	H 	0.28317 0.72976 0.01093 0.19900
H 	H 	0.30742 0.76459 0.10095 0.21700
C 	C 	0.13665 0.54057 0.07905 0.31000
O 	O 	0.37032 0.92305 0.03058 -0.37800
C 	C 	0.36055 0.53622 0.02531 0.32900
C 	C 	0.08247 0.63300 0.00636 0.32700
C 	C 	0.41340 0.88717 0.01417 0.31600
C 	C 	0.21005 0.90687 0.09347 0.28800
C 	C 	0.50741 0.84934 0.09129 0.28600
O 	O 	0.17196 0.63169 0.08643 -0.31800
O 	O 	0.14073 0.61742 0.99279 -0.35000
Ni	Ni	0.96836 0.02231 0.26209 1.13900
O 	O 	0.97982 0.14495 0.23986 -0.69300
Ni	Ni	0.93079 0.09540 0.19861 1.12500
O 	O 	0.03180 0.09532 0.29984 -0.26500
O 	O 	0.13223 0.16554 0.26764 -0.31700
O 	O 	0.86220 0.02338 0.27793 -0.30200
Ni	Ni	0.08674 0.23624 0.23593 1.11700
O 	O 	0.91288 0.78995 0.24185 -0.32700
O 	O 	0.13304 0.18060 0.20065 -0.25900
O 	O 	0.94281 0.22299 0.17850 -0.28200
O 	O 	0.93232 0.97419 0.21932 -0.69400
O 	O 	0.94914 0.89606 0.28307 -0.31900
O 	O 	0.85501 0.01864 0.16388 -0.27300
O 	O 	0.77139 0.91748 0.19793 -0.29700
Ni	Ni	0.84201 0.85528 0.22138 1.09700
H 	H 	0.94759 0.17753 0.24994 0.21000
H 	H 	0.97438 0.95693 0.20966 0.19400
C 	C 	0.09346 0.10769 0.18217 0.27900
O 	O 	0.79424 0.86748 0.26305 -0.32600
C 	C 	0.10540 0.15190 0.29578 0.28200
C 	C 	0.01115 0.29706 0.18230 0.28400
C 	C 	0.79544 0.94842 0.27571 0.29000
C 	C 	0.78639 0.95163 0.16987 0.25500
C 	C 	0.95647 0.82425 0.26751 0.28900
O 	O 	0.02216 0.09658 0.17197 -0.31900
O 	O 	0.04426 0.32060 0.21009 -0.28700
C 	C 	0.99119 0.36361 0.13142 0.04100
C 	C 	0.04172 0.36568 0.15675 0.06800
C 	C 	0.12308 0.42789 0.15610 -0.06900
C 	C 	0.15351 0.46975 0.12821 0.09100
C 	C 	0.10283 0.47282 0.10389 0.01800
C 	C 	0.01988 0.42247 0.10595 -0.03900
C 	C 	0.96222 0.42731 0.08065 0.77200
H 	H 	0.92934 0.31744 0.13173 0.14600
H 	H 	0.21685 0.50676 0.12619 0.10000
C 	C 	0.17539 0.45860 0.18521 0.79000
F 	F 	0.88461 0.39084 0.09014 -0.38500
F 	F 	0.96865 0.37415 0.05530 -0.40500
F 	F 	0.97796 0.52091 0.07232 -0.40800
F 	F 	0.19189 0.38238 0.19686 -0.42500
F 	F 	0.13832 0.49464 0.20705 -0.39900
F 	F 	0.24720 0.53030 0.17952 -0.38800
C 	C 	0.61034 0.96683 0.12499 0.04300
C 	C 	0.58461 0.87943 0.10839 0.02700
C 	C 	0.63336 0.82323 0.10840 -0.07400
C 	C 	0.69575 0.84466 0.13040 0.05700
C 	C 	0.72049 0.93108 0.14732 0.03700
C 	C 	0.68122 0.99642 0.14276 -0.08100
C 	C 	0.71977 0.10062 0.15319 0.79700
H 	H 	0.57551 0.01229 0.12369 0.11300
H 	H 	0.72730 0.79597 0.13345 0.09100
C 	C 	0.62338 0.74553 0.08406 0.78100
F 	F 	0.66908 0.15023 0.14889 -0.39200
F 	F 	0.78666 0.14393 0.13627 -0.40700
F 	F 	0.74133 0.10792 0.18409 -0.39600
F 	F 	0.60292 0.77197 0.05565 -0.41300
F 	F 	0.56555 0.66114 0.09266 -0.40200
F 	F 	0.69347 0.72922 0.08071 -0.40400
C 	C 	0.12187 0.96444 0.16669 0.02700
C 	C 	0.13834 0.06267 0.16357 0.06800
C 	C 	0.18133 0.11025 0.13801 -0.09500
C 	C 	0.20087 0.05675 0.11488 0.09100
C 	C 	0.18391 0.95830 0.11784 -0.01700
C 	C 	0.14750 0.91232 0.14487 -0.06100
C 	C 	0.13220 0.80705 0.14997 0.77600
H 	H 	0.08537 0.92753 0.18532 0.11300
H 	H 	0.22890 0.09155 0.09427 0.10000
C 	C 	0.20388 0.21747 0.13476 0.78800
F 	F 	0.11201 0.78228 0.18004 -0.38300
F 	F 	0.19938 0.78661 0.14410 -0.43300
F 	F 	0.07013 0.75119 0.13083 -0.40200
F 	F 	0.24787 0.26480 0.16044 -0.38000
F 	F 	0.13612 0.23931 0.13173 -0.42800
F 	F 	0.24924 0.25088 0.10919 -0.41300
C 	C 	0.73699 0.94456 0.32731 0.05900
C 	C 	0.72826 0.94631 0.29516 0.03000
C 	C 	0.65295 0.93480 0.28183 -0.08700
C 	C 	0.58594 0.90697 0.30044 0.06400
C 	C 	0.59392 0.89891 0.33231 0.01900
C 	C 	0.67084 0.92531 0.34622 -0.07100
C 	C 	0.68255 0.92850 0.38099 0.78000
H 	H 	0.79486 0.95507 0.33753 0.11900
H 	H 	0.52719 0.88865 0.28996 0.08700
C 	C 	0.64285 0.94750 0.24772 0.77100
F 	F 	0.75966 0.98451 0.38976 -0.38900
F 	F 	0.66692 0.83697 0.39134 -0.40300
F 	F 	0.63263 0.96715 0.39504 -0.41100
F 	F 	0.63702 0.86442 0.23193 -0.42600
F 	F 	0.70666 0.02303 0.23748 -0.39500
F 	F 	0.57496 0.96716 0.24142 -0.40300
C 	C 	0.15018 0.32144 0.36205 0.07000
C 	C 	0.22146 0.38885 0.35208 0.01000
C 	C 	0.26446 0.36296 0.32897 -0.07800
C 	C 	0.23224 0.27123 0.31523 0.04500
C 	C 	0.15446 0.21141 0.32144 0.03000
C 	C 	0.11940 0.22984 0.34836 -0.09300
C 	C 	0.05333 0.15167 0.36376 0.79200
H 	H 	0.12032 0.33932 0.38122 0.10500
H 	H 	0.26426 0.24983 0.29756 0.12400
C 	C 	0.34400 0.43260 0.31887 0.77900
F 	F 	0.05729 0.16800 0.39533 -0.39700
F 	F 	0.05940 0.06329 0.35850 -0.39700
F 	F 	0.98065 0.15002 0.35256 -0.40300
F 	F 	0.40132 0.44146 0.34152 -0.41300
F 	F 	0.33958 0.52140 0.31372 -0.43400
F 	F 	0.36725 0.40172 0.29181 -0.39400
C 	C 	0.15294 0.82514 0.29859 0.07600
C 	C 	0.12634 0.75090 0.31945 0.01700
C 	C 	0.04825 0.68164 0.31497 -0.06400
C 	C 	0.99397 0.70277 0.29513 0.05000
C 	C 	0.01792 0.78663 0.27800 0.04100
C 	C 	0.09975 0.84634 0.27867 -0.09700
C 	C 	0.13395 0.92624 0.25612 0.78500
H 	H 	0.21544 0.86927 0.29859 0.07600
H 	H 	0.93204 0.65636 0.29424 0.11000
C 	C 	0.02329 0.58405 0.32941 0.78500
F 	F 	0.16552 0.89231 0.23196 -0.40300
F 	F 	0.19425 0.00163 0.27050 -0.41600
F 	F 	0.07922 0.96210 0.24461 -0.54700
F 	F 	0.00517 0.59152 0.35987 -0.40100
F 	F 	0.08304 0.54712 0.32748 -0.41600
F 	F 	0.95673 0.51963 0.31433 -0.40500
C 	C 	0.45032 0.98286 0.50515 0.10700
C 	C 	0.51043 0.07325 0.50143 -0.04900
C 	C 	0.52474 0.11173 0.47173 0.10700
C 	C 	0.48693 0.05490 0.44572 0.14800
C 	C 	0.43053 0.96250 0.44954 -0.10600
C 	C 	0.40625 0.93175 0.47930 0.12000
Br	Br	0.30730 0.82796 0.48463 -0.14200
Br	Br	0.43068 0.92660 0.54521 -0.10300
Br	Br	0.51224 0.10337 0.40488 -0.06500
Br	Br	0.59506 0.24171 0.46661 -0.13400
C 	C 	0.94872 0.36989 0.46967 0.10200
C 	C 	0.96478 0.37407 0.50162 -0.07000
C 	C 	0.04326 0.41873 0.51304 0.12500
C 	C 	0.10334 0.47029 0.49318 0.11100
C 	C 	0.08594 0.47270 0.46152 -0.08400
C 	C 	0.00935 0.41881 0.44956 0.12800
Br	Br	0.98800 0.41034 0.40570 -0.02600
Br	Br	0.84272 0.30036 0.45375 -0.08200
Br	Br	0.20919 0.53952 0.50939 -0.14500
Br	Br	0.06728 0.41248 0.55628 -0.06100
C 	C 	0.54783 0.56966 0.51981 0.12100
C 	C 	0.60398 0.52898 0.51179 -0.08500
C 	C 	0.63779 0.54476 0.48250 0.11800
C 	C 	0.60709 0.58893 0.45995 0.11700
C 	C 	0.54315 0.61731 0.46680 -0.07900
C 	C 	0.51885 0.61600 0.49734 0.10200
Br	Br	0.44386 0.67504 0.50786 -0.15300
Br	Br	0.51174 0.56309 0.56148 -0.07000
Br	Br	0.64932 0.60601 0.41917 -0.03000
Br	Br	0.72519 0.50464 0.47322 -0.17800
C 	C 	0.86915 0.90140 0.61837 0.06500
C 	C 	0.85314 0.88723 0.64981 0.01400
C 	C 	0.80182 0.92774 0.66365 -0.08900
C 	C 	0.77727 0.99257 0.64696 0.00600
C 	C 	0.79781 0.01166 0.61619 0.06400
C 	C 	0.84105 0.96228 0.60120 -0.10100
C 	C 	0.86023 0.97739 0.56734 0.77400
H 	H 	0.90671 0.86829 0.60770 0.12800
H 	H 	0.74155 0.02796 0.65782 0.11300
C 	C 	0.77276 0.90166 0.69595 0.79700
F 	F 	0.89490 0.91508 0.55631 -0.38000
F 	F 	0.91235 0.06986 0.56343 -0.39200
F 	F 	0.79168 0.96221 0.54988 -0.41100
F 	F 	0.83617 0.93303 0.71672 -0.51600
F 	F 	0.73586 0.80357 0.69763 -0.39600
F 	F 	0.71867 0.94289 0.70435 -0.39600
C 	C 	0.27060 0.11727 0.62297 0.06500
C 	C 	0.27208 0.11970 0.65530 0.02600
C 	C 	0.34603 0.15639 0.67174 -0.07900
C 	C 	0.41686 0.18001 0.65539 0.05700
C 	C 	0.41506 0.17553 0.62313 0.02200
C 	C 	0.34156 0.15065 0.60669 -0.07500
C 	C 	0.33850 0.16001 0.57196 0.78300
H 	H 	0.21395 0.09102 0.61053 0.11600
H 	H 	0.47351 0.20109 0.66774 0.08800
C 	C 	0.34969 0.16814 0.70656 0.78000
F 	F 	0.26361 0.15225 0.56134 -0.39700
F 	F 	0.35808 0.08881 0.55780 -0.40700
F 	F 	0.39119 0.24821 0.56350 -0.41100
F 	F 	0.31699 0.07957 0.71951 -0.40700
F 	F 	0.30819 0.22517 0.71552 -0.43400
F 	F 	0.42689 0.21050 0.71794 -0.42100
C 	C 	0.96240 0.48909 0.63986 0.05200
C 	C 	0.92318 0.51730 0.61575 0.01900
C 	C 	0.94864 0.61703 0.60867 -0.09500
C 	C 	0.00379 0.68423 0.62871 0.06300
C 	C 	0.02898 0.65539 0.65606 0.01500
C 	C 	0.01788 0.55789 0.65934 -0.06800
C 	C 	0.06023 0.52618 0.68494 0.78400
H 	H 	0.94724 0.41373 0.64433 0.11100
H 	H 	0.01934 0.75998 0.62498 0.09600
C 	C 	0.91368 0.65404 0.58170 0.78600
F 	F 	0.07587 0.44630 0.67553 -0.39600
F 	F 	0.01302 0.50362 0.71041 -0.38400
F 	F 	0.13175 0.59771 0.69310 -0.38300
F 	F 	0.83899 0.65242 0.58873 -0.43200
F 	F 	0.90958 0.60074 0.55523 -0.48800
F 	F 	0.96022 0.74743 0.57535 -0.40500
C 	C 	0.97655 0.48960 0.98216 0.12300
C 	C 	0.00123 0.58562 0.99342 -0.04700
C 	C 	0.95161 0.63862 0.98866 0.11700
C 	C 	0.87851 0.59636 0.97260 0.13800
C 	C 	0.85751 0.50366 0.95941 -0.06600
C 	C 	0.90486 0.44921 0.96531 0.12700
Br	Br	0.87000 0.31738 0.95113 -0.02800
Br	Br	0.04163 0.41326 0.98871 -0.09900
Br	Br	0.80718 0.66560 0.96876 -0.07800
Br	Br	0.98665 0.77173 0.00141 -0.07200
C 	C 	0.55835 0.04622 0.95838 0.12600
C 	C 	0.50964 0.03230 0.93165 -0.06600
C 	C 	0.43331 0.96130 0.93101 0.10400
C 	C 	0.39953 0.91992 0.95851 0.11200
C 	C 	0.44755 0.93381 0.98545 -0.08000
C 	C 	0.52821 0.99418 0.98495 0.08000
Br	Br	0.59663 0.00812 0.02081 -0.05000
Br	Br	0.66519 0.13812 0.95891 -0.11900
Br	Br	0.28638 0.85473 0.95990 -0.12200
Br	Br	0.37814 0.91494 0.89221 -0.07200
C 	C 	0.35519 0.51610 0.96791 0.10200
C 	C 	0.37493 0.48962 0.99718 -0.10200
C 	C 	0.40794 0.41808 0.99937 0.11600
C 	C 	0.42688 0.37868 0.97238 0.09800
C 	C 	0.41106 0.40972 0.94330 -0.09200
C 	C 	0.36913 0.47169 0.94122 0.11500
Br	Br	0.33242 0.49722 0.90145 -0.05900
Br	Br	0.31676 0.61913 0.96396 -0.23900
Br	Br	0.47592 0.28404 0.97522 -0.17800
Br	Br	0.42915 0.37628 0.03927 -0.06400
C 	C 	0.82684 0.26422 0.78481 0.06500
C 	C 	0.83440 0.25784 0.81680 0.02700
C 	C 	0.90573 0.25390 0.82989 -0.06500
C 	C 	0.96334 0.24349 0.81022 0.05000
C 	C 	0.94939 0.23470 0.77823 0.03900
C 	C 	0.88614 0.25777 0.76546 -0.07800
C 	C 	0.87621 0.26345 0.73092 0.78000
H 	H 	0.77411 0.27236 0.77492 0.08100
H 	H 	0.01498 0.23221 0.81983 0.11900
C 	C 	0.92044 0.26079 0.86457 0.77800
F 	F 	0.83890 0.32698 0.72400 -0.41900
F 	F 	0.83076 0.17404 0.71887 -0.41500
F 	F 	0.94915 0.29469 0.71712 -0.41300
F 	F 	0.86061 0.18886 0.87860 -0.40700
F 	F 	0.92234 0.34860 0.87558 -0.39200
F 	F 	0.99192 0.25200 0.87271 -0.39700
C 	C 	0.19836 0.06361 0.82112 0.05100
C 	C 	0.19099 0.02161 0.79173 0.06200
C 	C 	0.24811 0.98326 0.78234 -0.12900
C 	C 	0.32176 0.01215 0.79849 0.13400
C 	C 	0.33423 0.06906 0.82542 0.00400
C 	C 	0.26800 0.08255 0.83899 -0.06100
C 	C 	0.27138 0.12056 0.87170 0.78100
H 	H 	0.15192 0.08695 0.82936 0.11400
H 	H 	0.36993 0.99347 0.78960 0.08100
C 	C 	0.22539 0.89995 0.75934 0.81000
F 	F 	0.19794 0.08058 0.88482 -0.38800
F 	F 	0.29155 0.21863 0.87147 -0.41200
F 	F 	0.32540 0.09820 0.88994 -0.41500
F 	F 	0.19401 0.92149 0.73244 -0.47700
F 	F 	0.16923 0.82112 0.77204 -0.42800
F 	F 	0.29019 0.87631 0.75187 -0.38900
C 	C 	0.70226 0.66904 0.83596 0.05700
C 	C 	0.75121 0.63587 0.85438 0.00900
C 	C 	0.83394 0.67012 0.84980 -0.08300
C 	C 	0.86443 0.72706 0.82439 0.05600
C 	C 	0.81487 0.75556 0.80489 0.00300
C 	C 	0.73379 0.73092 0.81156 -0.07700
C 	C 	0.68020 0.76664 0.79192 0.78000
H 	H 	0.63905 0.64287 0.83974 0.09300
H 	H 	0.92677 0.74791 0.81933 0.08400
C 	C 	0.88911 0.64063 0.87060 0.78100
F 	F 	0.60759 0.74881 0.80528 -0.40800
F 	F 	0.66714 0.72111 0.76330 -0.38100
F 	F 	0.71515 0.86435 0.78828 -0.39600
F 	F 	0.88193 0.54790 0.86314 -0.41100
F 	F 	0.87049 0.64631 0.90105 -0.42500
F 	F 	0.96746 0.69967 0.86747 -0.40300
