data_crystal

_cell_length_a 14.97016
_cell_length_b 14.90503
_cell_length_c 45.20200
_cell_angle_alpha 90.79006
_cell_angle_beta  90.96114
_cell_angle_gamma 110.86921

_symmetry_space_group_name_	'P 1'
_symmetry_space_group_name_H-M	'P 1'

loop_
_symmetry_equiv_pos_as_xyz
  x,y,z

loop_
_atom_site_label
_atom_site_type_symbol
_atom_site_fract_x
_atom_site_fract_y
_atom_site_fract_z
_atom_site_charge
Ni	Ni	0.10032 0.07867 0.75373 1.10100
O 	O 	0.07110 0.19834 0.76717 -0.35900
O 	O 	0.18828 0.10211 0.79064 -0.36600
O 	O 	0.30228 0.06637 0.74543 -0.40400
O 	O 	0.09614 0.95280 0.73630 -0.70100
O 	O 	0.21652 0.16132 0.73115 -0.36000
O 	O 	0.13963 0.77825 0.75652 -0.39100
Ni	Ni	0.20860 0.92656 0.74908 1.07200
H 	H 	0.01061 0.97647 0.79683 0.16400
H 	H 	0.09254 0.95389 0.71443 0.17000
O 	O 	0.18844 0.94975 0.79235 -0.40700
C 	C 	0.21642 0.03741 0.80317 0.29800
C 	C 	0.06272 0.71889 0.74211 0.28000
C 	C 	0.29051 0.13292 0.72793 0.27700
O 	O 	0.38629 0.70552 0.37401 -0.70200
Ni	Ni	0.24842 0.68680 0.36652 1.10000
O 	O 	0.43733 0.64938 0.43210 -0.38300
Ni	Ni	0.38980 0.58651 0.39063 1.08400
O 	O 	0.25538 0.51894 0.40697 -0.36900
O 	O 	0.19694 0.54836 0.34919 -0.36500
O 	O 	0.29917 0.81965 0.38664 -0.70200
O 	O 	0.12206 0.70381 0.35515 -0.34500
O 	O 	0.20422 0.84503 0.33261 -0.42500
Ni	Ni	0.31506 0.92777 0.36107 1.07500
H 	H 	0.42051 0.71830 0.35509 0.16400
H 	H 	0.25997 0.82268 0.40376 0.18800
C 	C 	0.20741 0.56540 0.42027 0.33500
C 	C 	0.24970 0.49659 0.34175 0.29500
C 	C 	0.12335 0.78331 0.34245 0.27700
O 	O 	0.19667 0.63995 0.40767 -0.36800
O 	O 	0.33957 0.51926 0.35125 -0.39900
Ni	Ni	0.33261 0.69574 0.15189 1.10500
O 	O 	0.20348 0.64657 0.12974 -0.69900
Ni	Ni	0.12897 0.71229 0.15191 1.10300
O 	O 	0.23225 0.47540 0.14868 -0.38600
Ni	Ni	0.12900 0.51058 0.12582 1.10700
O 	O 	0.03747 0.48794 0.16057 -0.38800
O 	O 	0.26482 0.77702 0.16943 -0.70100
O 	O 	0.08277 0.80873 0.17370 -0.35000
O 	O 	0.20320 0.93725 0.15535 -0.37600
Ni	Ni	0.32896 0.90688 0.15529 1.07400
H 	H 	0.20859 0.67342 0.10983 0.18500
H 	H 	0.26690 0.77560 0.19132 0.16000
C 	C 	0.06121 0.53210 0.18637 0.36100
O 	O 	0.30941 0.86840 0.11131 -0.38400
C 	C 	0.31660 0.49666 0.13685 0.31900
C 	C 	0.35752 0.81993 0.09874 0.32600
C 	C 	0.13597 0.90081 0.17494 0.27300
O 	O 	0.10201 0.62613 0.18828 -0.39700
O 	O 	0.03987 0.55154 0.10027 -0.38000
O 	O 	0.04315 0.89813 0.27705 -0.41300
Ni	Ni	0.09999 0.02860 0.29961 1.06600
O 	O 	0.18053 0.08424 0.26350 -0.39800
O 	O 	0.14639 0.24802 0.28271 -0.37200
C 	C 	0.14121 0.07614 0.23711 0.31000
C 	C 	0.17108 0.24077 0.31054 0.29100
O 	O 	0.07626 0.11406 0.23179 -0.38100
O 	O 	0.16219 0.15631 0.32181 -0.40900
C 	C 	0.03447 0.47616 0.21340 -0.26200
C 	C 	0.17255 0.02718 0.21312 -0.11000
C 	C 	0.10808 0.96554 0.19448 -0.06000
H 	H 	0.24689 0.03256 0.21283 0.05200
H 	H 	0.03260 0.95449 0.19636 0.07000
C 	C 	0.20616 0.41079 0.32265 -0.08100
C 	C 	0.22160 0.32896 0.32808 -0.08600
H 	H 	0.15472 0.41196 0.30553 0.07000
H 	H 	0.26728 0.32573 0.34668 0.07800
C 	C 	0.03309 0.79570 0.33444 -0.09200
H 	H 	0.01832 0.85422 0.34535 0.04000
C 	C 	0.31898 0.04760 0.45241 0.11600
Br	Br	0.33372 0.24857 0.60574 -0.14800
Br	Br	0.20466 0.98441 0.42900 -0.24200
Br	Br	0.19744 0.99511 0.50336 -0.10600
C 	C 	0.15873 0.49185 0.50002 0.06600
C 	C 	0.20035 0.50238 0.47202 0.12300
C 	C 	0.15352 0.52553 0.44745 -0.11100
Br	Br	0.31233 0.46953 0.46681 -0.15700
Br	Br	0.23189 0.48308 0.53470 -0.11300
Br	Br	0.48366 0.73362 0.56865 -0.11100
Br	Br	0.53161 0.67326 0.63730 -0.16900
C 	C 	0.37258 0.19301 0.71057 -0.08100
H 	H 	0.47619 0.18854 0.74210 0.07400
Br	Br	0.03234 0.62049 0.01065 -0.12600
C 	C 	0.35110 0.75140 0.04719 0.13500
Br	Br	0.24102 0.86559 0.97111 -0.10600
Br	Br	0.29155 0.62347 0.06170 -0.20900
Br	Br	0.29292 0.93799 0.90159 -0.15700
C 	C 	0.26577 0.39085 0.09161 0.11500
Br	Br	0.13098 0.33942 0.09927 -0.26500
Br	Br	0.21082 0.35514 0.02958 -0.12000
C 	C 	0.29601 0.06905 0.82480 -0.08900
C 	C 	0.36480 0.15584 0.82264 -0.08400
H 	H 	0.30512 0.01743 0.84014 0.09100
H 	H 	0.36018 0.20461 0.80552 0.08000
Br	Br	0.01993 0.61081 0.93615 -0.13800
Br	Br	0.30362 0.24915 0.53182 -0.10400
C 	C 	0.06430 0.48914 0.50281 0.02200
C 	C 	0.05673 0.51672 0.44978 0.12500
C 	C 	0.29782 0.37999 0.06324 0.07100
Br	Br	0.09421 0.68501 0.53554 -0.11900
C 	C 	0.06635 0.56956 0.72124 -0.09100
C 	C 	0.04092 0.61462 0.74349 -0.09000
H 	H 	0.13732 0.60301 0.71236 0.08000
C 	C 	0.37978 0.83193 0.06686 -0.11000
Br	Br	0.32191 0.65556 0.98953 -0.11300
C 	C 	0.33305 0.42991 0.11489 -0.11900
H 	H 	0.08888 0.48534 0.23059 0.11600
H 	H 	0.35895 0.21845 0.68916 0.09100
Ni	Ni	0.42782 0.82521 0.40098 1.10800
O 	O 	0.41490 0.02687 0.38810 -0.38900
C 	C 	0.46314 0.21125 0.72021 -0.09100
O 	O 	0.53927 0.79710 0.42020 -0.35100
O 	O 	0.52235 0.90825 0.37088 -0.35200
O 	O 	0.45907 0.94722 0.42558 -0.33500
O 	O 	0.41286 0.90257 0.33435 -0.41300
C 	C 	0.52026 0.71981 0.43593 0.31400
C 	C 	0.50161 0.91966 0.34315 0.29400
C 	C 	0.42572 0.01344 0.41673 0.31100
O 	O 	0.37639 0.58619 0.13802 -0.33900
O 	O 	0.39582 0.76991 0.11496 -0.34200
O 	O 	0.46548 0.90535 0.15659 -0.38000
O 	O 	0.45928 0.75914 0.17390 -0.36000
C 	C 	0.31410 0.06135 0.48306 0.05900
C 	C 	0.40842 0.07746 0.43896 -0.12200
Br	Br	0.71498 0.89767 0.53504 -0.10500
C 	C 	0.36588 0.88481 0.95580 0.06800
C 	C 	0.38883 0.91975 0.92712 0.13300
C 	C 	0.42126 0.85565 0.00617 0.02200
C 	C 	0.36938 0.76394 0.01680 0.07300
C 	C 	0.43498 0.92317 0.05632 0.13900
C 	C 	0.45634 0.93475 0.02606 0.07200
Br	Br	0.48731 0.03080 0.08363 -0.16600
C 	C 	0.39453 0.39178 0.05932 0.02100
C 	C 	0.42606 0.42866 0.11205 0.13200
Br	Br	0.35502 0.17949 0.03820 -0.11900
O 	O 	0.48677 0.29472 0.92245 -0.34600
O 	O 	0.45169 0.18699 0.86883 -0.35300
C 	C 	0.45354 0.17965 0.83996 0.29900
C 	C 	0.49578 0.85401 0.17529 0.27900
C 	C 	0.45513 0.14024 0.59186 -0.11700
C 	C 	0.39084 0.18087 0.58006 0.13300
C 	C 	0.36930 0.17241 0.54955 0.06600
C 	C 	0.40102 0.11192 0.53179 0.01900
C 	C 	0.39729 0.11712 0.49915 0.02200
C 	C 	0.48709 0.14616 0.45364 0.13400
C 	C 	0.58590 0.68597 0.57562 0.06400
C 	C 	0.59701 0.64918 0.60348 0.13700
C 	C 	0.43650 0.86975 0.97394 0.02300
C 	C 	0.45700 0.40935 0.08423 0.06900
C 	C 	0.42976 0.38489 0.02917 0.02100
C 	C 	0.40934 0.29424 0.01545 0.07500
C 	C 	0.43018 0.28715 0.98543 0.12900
C 	C 	0.47932 0.37178 0.96963 -0.10200
C 	C 	0.49368 0.46221 0.98298 0.12800
C 	C 	0.47423 0.46884 0.01311 0.07200
Br	Br	0.38563 0.16199 0.96617 -0.12500
C 	C 	0.64613 0.78766 0.51013 0.07100
C 	C 	0.62352 0.79997 0.48039 0.12600
C 	C 	0.58184 0.71797 0.46160 -0.11000
O 	O 	0.52832 0.11836 0.91610 -0.33200
C 	C 	0.54369 0.24320 0.69970 0.30000
C 	C 	0.62026 0.69431 0.52140 0.01900
C 	C 	0.57755 0.62816 0.47176 0.13300
C 	C 	0.58245 0.61418 0.50208 0.06900
Br	Br	0.65812 0.92814 0.46526 -0.11900
Br	Br	0.53626 0.05823 0.01195 -0.10500
O 	O 	0.53133 0.18272 0.82672 -0.41800
C 	C 	0.52601 0.36699 0.94104 0.31700
O 	O 	0.55380 0.28318 0.61769 -0.34300
C 	C 	0.51760 0.18875 0.61717 0.32600
C 	C 	0.48135 0.16697 0.48385 0.06500
C 	C 	0.48416 0.94919 0.91798 -0.10600
Br	Br	0.51289 0.59285 0.03278 -0.11000
Br	Br	0.52935 0.57568 0.95925 -0.18700
Br	Br	0.52889 0.48641 0.51736 -0.10000
Br	Br	0.56968 0.52636 0.44398 -0.18500
C 	C 	0.52224 0.03882 0.90162 0.31600
O 	O 	0.54975 0.31039 0.68042 -0.35400
O 	O 	0.51842 0.14017 0.64143 -0.39000
C 	C 	0.44637 0.05406 0.54515 0.06100
C 	C 	0.64520 0.67987 0.55224 0.02300
C 	C 	0.52520 0.87780 0.96185 0.06900
Br	Br	0.51052 0.45410 0.14627 -0.16900
O 	O 	0.52029 0.03496 0.87203 -0.38800
O 	O 	0.60719 0.46929 0.64227 -0.34200
C 	C 	0.58227 0.90334 0.19343 -0.07800
C 	C 	0.57904 0.94892 0.32144 -0.07500
H 	H 	0.56440 0.91893 0.29906 0.07100
C 	C 	0.47695 0.07089 0.57499 0.12800
Ni	Ni	0.57056 0.24603 0.89600 1.11500
H 	H 	0.59770 0.77772 0.21020 0.09400
Br	Br	0.60426 0.20508 0.43292 -0.13900
C 	C 	0.65477 0.59273 0.60615 -0.12500
C 	C 	0.54881 0.91740 0.93364 0.12400
O 	O 	0.60768 0.20258 0.70060 -0.41800
H 	H 	0.61139 0.98145 0.19356 0.05200
H 	H 	0.57331 0.36696 0.85607 0.16200
C 	C 	0.66757 0.55254 0.63461 0.33700
C 	C 	0.62094 0.85557 0.21146 -0.09300
Br	Br	0.58490 0.40972 0.08009 -0.12900
Br	Br	0.46904 0.95450 0.52226 -0.11200
O 	O 	0.61191 0.42996 0.93590 -0.37900
Br	Br	0.59020 0.25737 0.50480 -0.10400
Ni	Ni	0.65344 0.35751 0.64851 1.10700
C 	C 	0.66724 0.01063 0.32914 -0.09600
Br	Br	0.61623 0.84156 0.98476 -0.10300
H 	H 	0.68039 0.04697 0.35064 0.09300
C 	C 	0.71319 0.63673 0.55735 0.06500
O 	O 	0.61804 0.36898 0.87264 -0.70300
Ni	Ni	0.62267 0.12420 0.84467 1.06900
C 	C 	0.70217 0.57647 0.58129 0.12700
Br	Br	0.55571 0.00581 0.59185 -0.21100
Br	Br	0.65579 0.32420 0.01167 -0.12400
O 	O 	0.68068 0.98186 0.24820 -0.40500
Ni	Ni	0.64077 0.14391 0.66339 1.07900
C 	C 	0.69296 0.90895 0.23386 0.28400
Br	Br	0.70825 0.45151 0.57419 -0.18800
Ni	Ni	0.64992 0.49090 0.89438 1.08400
O 	O 	0.67676 0.22728 0.87343 -0.70600
O 	O 	0.73711 0.60199 0.65288 -0.37900
Br	Br	0.67268 0.93748 0.91769 -0.20100
H 	H 	0.71326 0.71716 0.83042 0.08300
O 	O 	0.01882 0.27635 0.23820 -0.39200
O 	O 	0.68727 0.56232 0.85579 -0.39300
C 	C 	0.74744 0.02770 0.30881 0.29600
Ni	Ni	0.01519 0.16615 0.26494 1.09600
Br	Br	0.71982 0.24924 0.94722 -0.24200
O 	O 	0.71328 0.19397 0.81053 -0.41400
O 	O 	0.72571 0.26739 0.64910 -0.70500
Br	Br	0.03135 0.65704 0.60622 -0.19200
H 	H 	0.72205 0.21067 0.88641 0.19200
C 	C 	0.03219 0.55790 0.55069 0.06600
O 	O 	0.75530 0.87161 0.24394 -0.36200
H 	H 	0.74616 0.25951 0.62889 0.19000
Ni	Ni	0.73817 0.35995 0.85621 1.10100
H 	H 	0.73691 0.42940 0.69932 0.16400
O 	O 	0.76072 0.42620 0.67917 -0.69100
C 	C 	0.75788 0.56041 0.83848 0.29000
O 	O 	0.74497 0.12017 0.68966 -0.40300
O 	O 	0.77476 0.95568 0.30145 -0.35300
C 	C 	0.76899 0.39939 0.99142 0.06800
C 	C 	0.76591 0.71095 0.81505 -0.09000
C 	C 	0.02014 0.47685 0.53247 0.01700
H 	H 	0.74977 0.94656 0.68173 0.07900
Ni	Ni	0.78084 0.11793 0.25117 1.06900
O 	O 	0.78388 0.11098 0.29601 -0.40800
C 	C 	0.01186 0.49733 0.47741 0.06200
C 	C 	0.77987 0.37809 0.96184 0.12800
O 	O 	0.79115 0.52210 0.90506 -0.37300
Br	Br	0.78964 0.66112 0.02271 -0.11200
Br	Br	0.81321 0.65031 0.52979 -0.11700
C 	C 	0.79466 0.63528 0.81613 -0.08100
O 	O 	0.80253 0.49867 0.84236 -0.36600
O 	O 	0.79582 0.91916 0.74104 -0.39100
C 	C 	0.80499 0.24862 0.81324 0.26200
C 	C 	0.81266 0.79194 0.79563 0.29300
O 	O 	0.81018 0.87753 0.80290 -0.40700
C 	C 	0.82264 0.45472 0.91313 0.33500
O 	O 	0.82314 0.38842 0.89390 -0.35900
C 	C 	0.82176 0.97359 0.69131 -0.08600
C 	C 	0.82939 0.58061 0.04878 0.06900
Br	Br	0.83252 0.35329 0.11842 -0.17100
C 	C 	0.83313 0.13789 0.68120 0.29200
C 	C 	0.83463 0.49294 0.03816 0.02200
C 	C 	0.84037 0.42459 0.05880 0.07000
O 	O 	0.83460 0.31684 0.83392 -0.35900
Ni	Ni	0.83818 0.33851 0.67714 1.09800
Ni	Ni	0.84570 0.55321 0.66552 1.08000
C 	C 	0.84075 0.47591 0.00601 0.02000
H 	H 	0.82931 0.24415 0.76553 0.06300
O 	O 	0.84792 0.49537 0.62478 -0.39500
C 	C 	0.84487 0.44840 0.08898 0.13200
C 	C 	0.84181 0.92265 0.71660 0.30700
C 	C 	0.84604 0.44724 0.94460 -0.12300
O 	O 	0.84444 0.77543 0.76968 -0.37900
C 	C 	0.85407 0.60816 0.07868 0.13000
H 	H 	0.84977 0.63107 0.80139 0.06800
O 	O 	0.86288 0.26516 0.25332 -0.41900
Br	Br	0.86603 0.73387 0.09303 -0.14200
Ni	Ni	0.86984 0.95659 0.26864 1.10500
Br	Br	0.86737 0.31292 0.04613 -0.10800
Ni	Ni	0.86364 0.99600 0.77782 1.07400
C 	C 	0.86459 0.25511 0.78722 -0.08600
C 	C 	0.87911 0.54566 0.09723 -0.10900
Br	Br	0.87830 0.47944 0.48038 -0.09800
C 	C 	0.87719 0.06561 0.68719 -0.08200
O 	O 	0.88586 0.83797 0.28772 -0.35600
Br	Br	0.88469 0.24470 0.58798 -0.18000
O 	O 	0.88942 0.07722 0.24623 -0.70300
O 	O 	0.88914 0.22691 0.67619 -0.34700
H 	H 	0.89635 0.06518 0.22495 0.16600
C 	C 	0.90033 0.44268 0.61937 0.32600
H 	H 	0.99111 0.26673 0.81070 0.08200
O 	O 	0.99365 0.74808 0.73331 -0.39200
O 	O 	0.98952 0.98329 0.77640 -0.69400
C 	C 	0.98199 0.19456 0.76694 0.29600
H 	H 	0.97932 0.57375 0.75626 0.06500
C 	C 	0.99141 0.50899 0.70073 0.29700
Ni	Ni	0.97365 0.86203 0.75364 1.09900
O 	O 	0.99228 0.63976 0.13492 -0.34400
C 	C 	0.97410 0.58122 0.11137 0.33200
C 	C 	0.95135 0.40187 0.21421 0.28400
H 	H 	0.94474 0.35439 0.22525 -0.26600
C 	C 	0.99046 0.76245 0.30819 -0.08400
H 	H 	0.99757 0.69829 0.29849 0.08000
Br	Br	0.98290 0.52060 0.41473 -0.14600
O 	O 	0.92261 0.39404 0.64082 -0.34100
O 	O 	0.97521 0.54583 0.67602 -0.38800
O 	O 	0.94851 0.41671 0.70522 -0.37000
O 	O 	0.91634 0.12042 0.75412 -0.42000
O 	O 	0.91056 0.88798 0.71563 -0.38100
O 	O 	0.98181 0.05452 0.29218 -0.69600
H 	H 	0.95957 0.07301 0.31101 0.16400
C 	C 	0.97051 0.82977 0.28812 0.28800
C 	C 	0.94268 0.30853 0.23584 0.43800
C 	C 	0.94969 0.45349 0.59061 -0.10400
C 	C 	0.94016 0.37215 0.57259 0.13000
C 	C 	0.97405 0.38400 0.54344 0.07600
C 	C 	0.99981 0.54632 0.57997 0.14200
Br	Br	0.95758 0.27300 0.51843 -0.10800
H 	H 	0.95237 0.09030 0.69381 0.06400
C 	C 	0.91992 0.52295 0.95894 0.13400
C 	C 	0.92061 0.53332 0.99002 0.06800
C 	C 	0.95143 0.24849 0.78977 -0.11900
