data_crystal

_cell_length_a 26.09898
_cell_length_b 26.43796
_cell_length_c 35.03624
_cell_angle_alpha 95.50055
_cell_angle_beta  95.50048
_cell_angle_gamma 125.76388

_symmetry_space_group_name_	'P 1'
_symmetry_space_group_name_H-M	'P 1'

loop_
_symmetry_equiv_pos_as_xyz
  x,y,z

loop_
_atom_site_label
_atom_site_type_symbol
_atom_site_fract_x
_atom_site_fract_y
_atom_site_fract_z
_atom_site_charge
C 	C 	0.98304 0.03482 0.00615 0.03200
C 	C 	0.94057 0.96907 0.00453 -0.07400
C 	C 	0.96252 0.93189 0.00051 0.03500
C 	C 	0.02695 0.96031 0.99819 -0.07700
C 	C 	0.06968 0.02596 0.99994 0.02900
C 	C 	0.04774 0.06326 0.00404 -0.07300
H 	H 	0.89043 0.94683 0.00576 0.05300
H 	H 	0.04370 0.93133 0.99472 0.05300
H 	H 	0.08075 0.11408 0.00541 0.05200
C 	C 	0.91863 0.99754 0.44600 0.01900
C 	C 	0.88689 0.93253 0.44620 -0.06500
C 	C 	0.92194 0.90764 0.44821 0.02100
C 	C 	0.98852 0.94768 0.44969 -0.06100
C 	C 	0.02028 0.01241 0.44945 0.01600
C 	C 	0.98538 0.03729 0.44766 -0.05900
H 	H 	0.83538 0.90164 0.44506 0.05000
H 	H 	0.01570 0.92861 0.45145 0.04800
H 	H 	0.01028 0.08768 0.44834 0.04700
Cu	Cu	0.65483 0.24558 0.00340 0.93100
Cu	Cu	0.70521 0.24817 0.92070 0.87400
Cu	Cu	0.68428 0.34246 0.95132 0.90100
Cu	Cu	0.64350 0.35569 0.02670 0.89700
C 	C 	0.66615 0.29048 0.08416 0.30800
O 	O 	0.55959 0.20123 0.00220 -0.34900
C 	C 	0.66547 0.29762 0.86660 0.31100
O 	O 	0.69965 0.34277 0.00592 -0.64000
O 	O 	0.64483 0.25008 0.94732 -0.64000
O 	O 	0.70067 0.20611 0.00271 -0.36000
O 	O 	0.76751 0.27174 0.96497 -0.43600
O 	O 	0.63454 0.31288 0.07245 -0.37700
O 	O 	0.72695 0.43288 0.95926 -0.37300
C 	C 	0.71878 0.46511 0.98603 0.28500
C 	C 	0.53017 0.22366 0.98723 0.27600
O 	O 	0.56433 0.28214 0.98110 -0.38300
O 	O 	0.67429 0.43621 0.00771 -0.38400
O 	O 	0.67734 0.25896 0.05900 -0.34600
C 	C 	0.75414 0.23206 0.98886 0.28300
O 	O 	0.68589 0.34543 0.89522 -0.37100
O 	O 	0.66200 0.24768 0.87350 -0.41200
H 	H 	0.74530 0.37288 0.01902 0.16700
H 	H 	0.60012 0.22188 0.93249 0.18000
Cu	Cu	0.72342 0.33725 0.45284 0.93000
Cu	Cu	0.71913 0.29288 0.53745 0.87600
Cu	Cu	0.62178 0.30759 0.50207 0.89900
Cu	Cu	0.60730 0.33933 0.42377 0.89600
C 	C 	0.68034 0.31981 0.37067 0.30800
O 	O 	0.76389 0.43010 0.45124 -0.34800
C 	C 	0.66413 0.33124 0.58797 0.31100
O 	O 	0.62390 0.28881 0.44830 -0.64000
O 	O 	0.71617 0.34960 0.50815 -0.64000
O 	O 	0.76573 0.29433 0.45756 -0.36000
O 	O 	0.69768 0.22946 0.49516 -0.43500
O 	O 	0.65415 0.34861 0.37974 -0.37700
O 	O 	0.52950 0.26159 0.49260 -0.37800
C 	C 	0.49534 0.26441 0.46364 0.28600
C 	C 	0.73743 0.45679 0.46379 0.27700
O 	O 	0.67764 0.42089 0.46882 -0.38700
O 	O 	0.52305 0.30542 0.44003 -0.38800
O 	O 	0.71269 0.31201 0.39785 -0.34700
C 	C 	0.73834 0.24172 0.47174 0.28200
O 	O 	0.61738 0.31160 0.55824 -0.38200
O 	O 	0.71623 0.33643 0.58274 -0.39800
H 	H 	0.59537 0.24305 0.43651 0.16800
H 	H 	0.74313 0.39423 0.52215 0.18400
C 	C 	0.65932 0.30597 0.82582 -0.10200
C 	C 	0.62268 0.32621 0.81208 0.14900
C 	C 	0.61960 0.33579 0.77351 -0.08400
C 	C 	0.65150 0.32394 0.74824 0.02200
C 	C 	0.68740 0.30304 0.76187 0.08300
C 	C 	0.69133 0.29442 0.80047 -0.01300
H 	H 	0.59137 0.35124 0.76296 0.08200
C 	C 	0.64590 0.33180 0.70725 0.02100
H 	H 	0.71972 0.27906 0.81087 0.05100
C 	C 	0.69565 0.38745 0.69632 -0.08400
C 	C 	0.69936 0.38983 0.65685 0.14900
C 	C 	0.65272 0.33621 0.62802 -0.10100
C 	C 	0.59934 0.28321 0.63884 -0.01400
C 	C 	0.59590 0.28065 0.67828 0.08400
H 	H 	0.73313 0.42773 0.71854 0.08000
H 	H 	0.56239 0.24245 0.61670 0.05800
Br	Br	0.73082 0.28524 0.72797 -0.23200
Br	Br	0.57332 0.33712 0.84455 -0.24300
Br	Br	0.76817 0.46664 0.64288 -0.24300
Br	Br	0.52467 0.20537 0.69212 -0.22400
C 	C 	0.68191 0.30544 0.32923 -0.09700
C 	C 	0.74043 0.32817 0.31654 0.14900
C 	C 	0.74103 0.31979 0.27654 -0.08300
C 	C 	0.68480 0.29261 0.24895 0.02100
C 	C 	0.62632 0.26890 0.26159 0.08300
C 	C 	0.62500 0.27439 0.30151 -0.01500
H 	H 	0.78602 0.33771 0.26687 0.08200
C 	C 	0.68843 0.29387 0.20716 0.02100
H 	H 	0.57992 0.25658 0.31103 0.05100
C 	C 	0.66339 0.23744 0.18119 -0.08300
C 	C 	0.65692 0.23557 0.14083 0.14900
C 	C 	0.67946 0.29184 0.12627 -0.09700
C 	C 	0.70859 0.34908 0.15254 -0.01500
C 	C 	0.71215 0.35018 0.19271 0.08300
H 	H 	0.64555 0.19414 0.19228 0.08200
H 	H 	0.72624 0.39245 0.14158 0.05100
Br	Br	0.54834 0.23213 0.22484 -0.22600
Br	Br	0.82095 0.37624 0.35269 -0.22700
Br	Br	0.61152 0.15473 0.10648 -0.22700
Br	Br	0.74610 0.42836 0.22716 -0.22600
C 	C 	0.88954 0.84001 0.45002 0.01600
C 	C 	0.86547 0.81726 0.48344 -0.04600
C 	C 	0.84328 0.75599 0.48800 -0.02700
C 	C 	0.84215 0.71518 0.45810 -0.01100
C 	C 	0.86929 0.73948 0.42518 0.03400
C 	C 	0.89077 0.80086 0.42078 -0.06700
C 	C 	0.87755 0.70351 0.39797 -0.04800
C 	C 	0.85976 0.64398 0.40313 -0.03300
C 	C 	0.82946 0.61737 0.43418 0.01000
C 	C 	0.81785 0.65161 0.46112 0.01300
C 	C 	0.77900 0.62022 0.48860 -0.05100
C 	C 	0.75680 0.55828 0.49111 0.00400
C 	C 	0.77018 0.52531 0.46528 -0.06700
C 	C 	0.80745 0.55536 0.43732 -0.01700
H 	H 	0.86682 0.84820 0.50683 0.04400
H 	H 	0.83137 0.74247 0.51577 0.03900
H 	H 	0.91084 0.81914 0.39535 0.05000
H 	H 	0.89924 0.72237 0.37312 0.04700
H 	H 	0.86805 0.61767 0.38223 0.04900
H 	H 	0.76222 0.64156 0.50623 0.04600
H 	H 	0.72684 0.53494 0.51223 0.04100
H 	H 	0.81639 0.52934 0.41662 0.05800
C 	C 	0.75622 0.19837 0.46359 -0.07400
C 	C 	0.73292 0.14680 0.48295 0.00200
C 	C 	0.75294 0.10828 0.47769 -0.05500
C 	C 	0.79906 0.12237 0.45418 0.01400
C 	C 	0.81698 0.16976 0.43134 0.00700
C 	C 	0.79672 0.20850 0.43683 -0.01600
C 	C 	0.85386 0.17713 0.40281 -0.03300
C 	C 	0.87409 0.13885 0.39724 -0.04900
C 	C 	0.86157 0.09547 0.42183 0.03400
C 	C 	0.82598 0.08857 0.45162 -0.01200
C 	C 	0.82262 0.05235 0.47982 -0.02700
C 	C 	0.84996 0.02015 0.47664 -0.04600
C 	C 	0.88274 0.02486 0.44617 0.01700
C 	C 	0.88747 0.06161 0.41841 -0.06800
H 	H 	0.69882 0.13617 0.50198 0.03300
H 	H 	0.73015 0.06609 0.49042 0.04500
H 	H 	0.81227 0.24616 0.42027 0.05900
H 	H 	0.86630 0.21216 0.38453 0.04700
H 	H 	0.90159 0.14454 0.37456 0.04500
H 	H 	0.80292 0.05231 0.50557 0.03800
H 	H 	0.84808 0.99371 0.49895 0.04200
H 	H 	0.91361 0.06593 0.39512 0.04900
C 	C 	0.42523 0.22781 0.46121 -0.07000
C 	C 	0.38483 0.20804 0.42502 0.00600
C 	C 	0.31838 0.17329 0.42242 -0.05500
C 	C 	0.29135 0.15987 0.45648 0.01500
C 	C 	0.33181 0.17598 0.49257 0.00600
C 	C 	0.39854 0.21130 0.49489 -0.01400
C 	C 	0.30502 0.15474 0.52562 -0.03200
C 	C 	0.23857 0.11669 0.52313 -0.05000
C 	C 	0.19786 0.10250 0.48820 0.03500
C 	C 	0.22416 0.12705 0.45514 -0.01300
C 	C 	0.18324 0.12071 0.42246 -0.02600
C 	C 	0.11683 0.08350 0.42080 -0.04800
C 	C 	0.09052 0.05448 0.45220 0.01700
C 	C 	0.13108 0.06516 0.48617 -0.06900
H 	H 	0.40476 0.21812 0.39863 0.03300
H 	H 	0.28827 0.15404 0.39377 0.04500
H 	H 	0.42959 0.22554 0.52282 0.05200
H 	H 	0.33575 0.16640 0.55317 0.04500
H 	H 	0.21871 0.09904 0.54870 0.04700
H 	H 	0.20253 0.14672 0.39927 0.03700
H 	H 	0.08579 0.07753 0.39513 0.04300
H 	H 	0.11065 0.04457 0.51100 0.05000
C 	C 	0.91785 0.86289 0.99791 0.00800
C 	C 	0.88723 0.82275 0.96133 -0.04300
C 	C 	0.85044 0.75702 0.95843 -0.02800
C 	C 	0.84643 0.73072 0.99228 -0.01300
C 	C 	0.87176 0.77111 0.02934 0.03400
C 	C 	0.90854 0.83712 0.03191 -0.06400
C 	C 	0.85947 0.74513 0.06332 -0.05000
C 	C 	0.82307 0.67961 0.06096 -0.03300
C 	C 	0.80178 0.63917 0.02480 0.00600
C 	C 	0.81572 0.66467 0.99021 0.01400
C 	C 	0.80283 0.62458 0.95519 -0.05300
C 	C 	0.77061 0.55960 0.95385 0.00800
C 	C 	0.75294 0.53377 0.98758 -0.07000
C 	C 	0.76895 0.57369 0.02305 -0.01400
H 	H 	0.89199 0.84256 0.93508 0.04400
H 	H 	0.82315 0.72707 0.93021 0.04000
H 	H 	0.93053 0.86841 0.06024 0.04800
H 	H 	0.87749 0.77576 0.09168 0.04400
H 	H 	0.81295 0.66034 0.08751 0.04100
H 	H 	0.82048 0.64366 0.92957 0.04800
H 	H 	0.75991 0.52937 0.92653 0.05000
H 	H 	0.75728 0.55405 0.04942 0.03900
C 	C 	0.79438 0.21004 0.99566 -0.08000
C 	C 	0.78435 0.17224 0.02376 0.01000
C 	C 	0.81814 0.14654 0.02778 -0.05500
C 	C 	0.86481 0.16038 0.00462 0.01700
C 	C 	0.87335 0.19693 0.97543 0.00000
C 	C 	0.83981 0.22318 0.97206 -0.01600
C 	C 	0.91257 0.20401 0.94851 -0.03300
C 	C 	0.94104 0.17295 0.94903 -0.05200
C 	C 	0.93429 0.13757 0.97803 0.03300
C 	C 	0.89969 0.13449 0.00766 -0.01200
C 	C 	0.90253 0.10744 0.03996 -0.02700
C 	C 	0.93073 0.07591 0.03968 -0.04500
C 	C 	0.95896 0.07330 0.00820 0.01400
C 	C 	0.96234 0.10566 0.97800 -0.06800
H 	H 	0.74894 0.16116 0.04186 0.05200
H 	H 	0.80490 0.11305 0.04715 0.04900
H 	H 	0.84719 0.25169 0.94995 0.03200
H 	H 	0.91917 0.23191 0.92616 0.03700
H 	H 	0.96897 0.17689 0.92696 0.04400
H 	H 	0.88598 0.11320 0.06599 0.03900
H 	H 	0.93096 0.05375 0.06409 0.04400
H 	H 	0.98602 0.10529 0.95427 0.04900
C 	C 	0.13722 0.05537 0.99694 0.01100
C 	C 	0.16044 0.08144 0.96413 -0.04400
C 	C 	0.22295 0.10512 0.95964 -0.02800
C 	C 	0.26444 0.10572 0.98910 -0.01200
C 	C 	0.23925 0.07542 0.02090 0.03400
C 	C 	0.17653 0.05218 0.02518 -0.06400
C 	C 	0.27606 0.06658 0.04726 -0.04800
C 	C 	0.33763 0.08769 0.04261 -0.03300
C 	C 	0.36528 0.12173 0.01305 0.01100
C 	C 	0.32982 0.13322 0.98683 0.01100
C 	C 	0.36176 0.17527 0.96105 -0.05100
C 	C 	0.42581 0.20122 0.95951 0.00200
C 	C 	0.46017 0.18828 0.98471 -0.06900
C 	C 	0.42937 0.14751 0.01088 -0.01600
H 	H 	0.12919 0.08133 0.94134 0.04300
H 	H 	0.23712 0.11902 0.93230 0.03900
H 	H 	0.15775 0.03029 0.04999 0.04900
H 	H 	0.25643 0.04223 0.07111 0.04700
H 	H 	0.36477 0.07921 0.06287 0.04900
H 	H 	0.33898 0.19138 0.94406 0.04700
H 	H 	0.44950 0.23348 0.93964 0.04500
H 	H 	0.45625 0.13856 0.03101 0.05900
