data_crystal

_cell_length_a 20.05833
_cell_length_b 17.91224
_cell_length_c 40.38235
_cell_angle_alpha 90.81258
_cell_angle_beta  91.37881
_cell_angle_gamma 111.08621

_symmetry_space_group_name_	'P 1'
_symmetry_space_group_name_H-M	'P 1'

loop_
_symmetry_equiv_pos_as_xyz
  x,y,z

loop_
_atom_site_label
_atom_site_type_symbol
_atom_site_fract_x
_atom_site_fract_y
_atom_site_fract_z
_atom_site_charge
Ni	Ni	0.01534 0.94615 0.75020 1.09300
O 	O 	0.00936 0.86363 0.71420 -0.71900
Ni	Ni	0.05374 0.93318 0.67670 1.09600
O 	O 	0.11583 0.95150 0.76629 -0.37500
O 	O 	0.10099 0.13758 0.76798 -0.41000
O 	O 	0.05230 0.84101 0.64571 -0.37800
O 	O 	0.04362 0.01761 0.71010 -0.68800
O 	O 	0.01628 0.02526 0.78644 -0.37900
O 	O 	0.12375 0.01062 0.64505 -0.36000
O 	O 	0.15945 0.13098 0.67218 -0.40100
Ni	Ni	0.12492 0.11667 0.72052 1.07000
H 	H 	0.03570 0.82823 0.72028 0.15900
H 	H 	0.00310 0.03429 0.70425 0.14100
O 	O 	0.18405 0.04958 0.73242 -0.42400
C 	C 	0.99130 0.77874 0.64295 0.30300
C 	C 	0.17612 0.01110 0.76027 0.31000
C 	C 	0.17540 0.07652 0.65559 0.30000
C 	C 	0.03746 0.10126 0.78028 0.28200
Ni	Ni	0.22772 0.67018 0.38807 1.10000
O 	O 	0.16185 0.68515 0.35148 -0.37100
O 	O 	0.21870 0.56262 0.36663 -0.39700
O 	O 	0.20203 0.60098 0.46363 -0.41100
O 	O 	0.13984 0.61528 0.41655 -0.37500
C 	C 	0.17250 0.75604 0.33923 0.28800
C 	C 	0.20067 0.49517 0.38248 0.32500
C 	C 	0.14114 0.58752 0.44683 0.30900
Ni	Ni	0.22949 0.69434 0.04704 1.10100
Ni	Ni	0.23311 0.56893 0.99021 1.07400
O 	O 	0.16419 0.50578 0.02564 -0.39300
O 	O 	0.12695 0.65019 0.02668 -0.37300
O 	O 	0.19474 0.74113 0.08702 -0.36600
C 	C 	0.17322 0.51752 0.05790 0.31600
C 	C 	0.10948 0.61959 0.99615 0.31500
C 	C 	0.22891 0.81615 0.09676 0.28500
O 	O 	0.21098 0.58842 0.07103 -0.39300
O 	O 	0.15801 0.61355 0.97577 -0.40600
O 	O 	0.98011 0.10857 0.29440 -0.35400
O 	O 	0.08945 0.15029 0.27104 -0.41600
Ni	Ni	0.07321 0.16704 0.22107 1.06200
O 	O 	0.09880 0.06814 0.21053 -0.41500
C 	C 	0.08048 0.02970 0.18189 0.30400
C 	C 	0.04643 0.15934 0.29349 0.28200
O 	O 	0.07509 0.19578 0.17210 -0.40000
C 	C 	0.04044 0.27211 0.13268 -0.08200
C 	C 	0.06540 0.32948 0.11528 0.02600
C 	C 	0.10124 0.39689 0.09583 0.03900
C 	C 	0.13414 0.45312 0.07911 -0.09500
C 	C 	0.11671 0.97921 0.17018 -0.10400
C 	C 	0.14337 0.93653 0.15705 0.03600
C 	C 	0.17217 0.88891 0.13844 0.02900
C 	C 	0.19696 0.85240 0.12032 -0.09400
C 	C 	0.16316 0.42170 0.36485 -0.09500
C 	C 	0.13197 0.35962 0.35013 0.03800
C 	C 	0.09755 0.28754 0.33221 0.03200
C 	C 	0.07153 0.22744 0.31552 -0.10300
C 	C 	0.00400 0.80231 0.30082 0.01100
C 	C 	0.06192 0.78230 0.31266 0.03600
C 	C 	0.11257 0.76927 0.32404 -0.09800
C 	C 	0.06049 0.46432 0.47432 0.14900
C 	C 	0.07258 0.54131 0.46203 -0.09000
C 	C 	0.01583 0.56930 0.45993 -0.07900
O 	O 	0.11531 0.43571 0.47642 -0.28400
H 	H 	0.02490 0.62895 0.45112 0.06800
H 	H 	0.13609 0.45028 0.49919 0.14000
C 	C 	0.03381 0.58347 0.98599 -0.13400
C 	C 	0.98629 0.52734 0.00638 -0.00600
C 	C 	0.01109 0.59520 0.95392 0.16500
H 	H 	0.00317 0.51868 0.03128 0.05200
O 	O 	0.05586 0.65238 0.93424 -0.28300
H 	H 	0.04548 0.70156 0.93887 0.14800
C 	C 	0.23878 0.02283 0.78048 -0.09700
Ni	Ni	0.74097 0.32497 0.89040 1.10000
O 	O 	0.65233 0.25986 0.86241 -0.70700
Ni	Ni	0.57523 0.27258 0.88939 1.10300
O 	O 	0.80540 0.30016 0.85677 -0.36600
O 	O 	0.74563 0.16513 0.86136 -0.40400
O 	O 	0.73975 0.41932 0.86252 -0.39500
Ni	Ni	0.63617 0.14681 0.85811 1.06700
O 	O 	0.77048 0.42086 0.96208 -0.40100
O 	O 	0.63145 0.12883 0.90799 -0.41000
O 	O 	0.49386 0.21672 0.85665 -0.37800
O 	O 	0.66245 0.32215 0.92056 -0.70100
O 	O 	0.83017 0.39817 0.91690 -0.37500
O 	O 	0.51012 0.31693 0.91537 -0.37000
O 	O 	0.59548 0.44153 0.91470 -0.41200
Ni	Ni	0.68397 0.43041 0.93849 1.08000
H 	H 	0.65190 0.28269 0.84026 0.15700
H 	H 	0.66164 0.28595 0.93896 0.16300
C 	C 	0.57389 0.12339 0.92409 0.31300
O 	O 	0.75187 0.50641 0.90622 -0.39600
C 	C 	0.79658 0.22593 0.84819 0.28500
C 	C 	0.48590 0.14601 0.84337 0.29000
C 	C 	0.75471 0.49230 0.87441 0.32000
C 	C 	0.53109 0.39395 0.92236 0.29800
C 	C 	0.83030 0.43105 0.94659 0.30800
O 	O 	0.53902 0.17152 0.91763 -0.36800
O 	O 	0.52601 0.10516 0.85376 -0.39300
Ni	Ni	0.59883 0.29950 0.53534 1.10000
O 	O 	0.68505 0.31946 0.50572 -0.69800
Ni	Ni	0.75467 0.29402 0.53608 1.09800
O 	O 	0.55232 0.36320 0.50720 -0.37400
O 	O 	0.65674 0.47019 0.50739 -0.40800
O 	O 	0.53881 0.20070 0.50661 -0.36900
Ni	Ni	0.73003 0.42603 0.48774 1.07500
O 	O 	0.51109 0.14031 0.56829 -0.39800
O 	O 	0.80320 0.49391 0.52308 -0.37600
O 	O 	0.84821 0.33440 0.50969 -0.37500
O 	O 	0.66335 0.26159 0.56329 -0.70000
O 	O 	0.51560 0.27041 0.56678 -0.37500
O 	O 	0.80308 0.24431 0.57042 -0.36400
O 	O 	0.71019 0.12495 0.56496 -0.40900
Ni	Ni	0.61528 0.14615 0.56672 1.06600
H 	H 	0.67227 0.28031 0.48694 0.15400
H 	H 	0.67190 0.28825 0.58546 0.15500
C 	C 	0.82730 0.46841 0.54952 0.31400
O 	O 	0.60773 0.12629 0.51696 -0.41600
C 	C 	0.58863 0.43725 0.49918 0.29800
C 	C 	0.85964 0.38706 0.48562 0.31100
C 	C 	0.55887 0.14056 0.49893 0.31100
C 	C 	0.76910 0.17101 0.58055 0.28800
C 	C 	0.48957 0.19792 0.57917 0.29000
O 	O 	0.78968 0.39989 0.56261 -0.39400
O 	O 	0.80585 0.39161 0.46745 -0.41300
O 	O 	0.96878 0.85559 0.78247 -0.35300
O 	O 	0.87087 0.80430 0.74761 -0.41100
Ni	Ni	0.91022 0.80317 0.70041 1.06800
O 	O 	0.88455 0.90107 0.68868 -0.41100
C 	C 	0.91154 0.94403 0.66281 0.30200
C 	C 	0.90709 0.79888 0.77449 0.28900
O 	O 	0.96884 0.94002 0.64926 -0.35800
O 	O 	0.93127 0.78593 0.65243 -0.40400
O 	O 	0.31318 0.71665 0.35820 -0.70600
Ni	Ni	0.39217 0.70960 0.38710 1.10200
O 	O 	0.22819 0.81913 0.34950 -0.40700
Ni	Ni	0.33511 0.82777 0.34746 1.06600
O 	O 	0.34775 0.86573 0.39592 -0.41500
O 	O 	0.47010 0.74680 0.35301 -0.37200
O 	O 	0.30941 0.67957 0.41925 -0.70000
O 	O 	0.45600 0.66916 0.41674 -0.37400
O 	O 	0.36439 0.54949 0.42105 -0.41300
Ni	Ni	0.28513 0.57973 0.44325 1.07300
H 	H 	0.30826 0.68389 0.33770 0.15800
H 	H 	0.31551 0.72397 0.43531 0.15600
C 	C 	0.40645 0.87377 0.41299 0.31200
O 	O 	0.20963 0.49378 0.41468 -0.38700
C 	C 	0.48000 0.81278 0.33614 0.28700
C 	C 	0.43215 0.59422 0.42594 0.29200
O 	O 	0.43764 0.82089 0.40980 -0.37200
O 	O 	0.44433 0.86064 0.34333 -0.39600
Ni	Ni	0.38237 0.69527 0.03275 1.10200
O 	O 	0.28548 0.67416 0.00984 -0.69700
O 	O 	0.41398 0.62861 0.99927 -0.37700
O 	O 	0.31000 0.52146 0.00411 -0.40200
O 	O 	0.42913 0.79323 0.00342 -0.36500
O 	O 	0.47981 0.85475 0.06611 -0.39700
O 	O 	0.33099 0.73151 0.06756 -0.70300
O 	O 	0.47760 0.72641 0.05799 -0.37600
O 	O 	0.28012 0.86365 0.07879 -0.40700
Ni	Ni	0.37640 0.84716 0.07226 1.07000
H 	H 	0.28981 0.71471 0.99282 0.15800
H 	H 	0.33309 0.70539 0.08881 0.15600
O 	O 	0.36547 0.86569 0.02333 -0.41000
C 	C 	0.37585 0.55244 0.99366 0.28600
C 	C 	0.41151 0.85726 0.00258 0.31700
C 	C 	0.50545 0.79777 0.07274 0.29000
Ni	Ni	0.94371 0.02309 0.25726 1.09600
O 	O 	0.96998 0.11157 0.22335 -0.70900
Ni	Ni	0.93956 0.04918 0.18122 1.09900
O 	O 	0.83952 0.01917 0.26047 -0.37300
O 	O 	0.85286 0.82683 0.26273 -0.41000
O 	O 	0.95864 0.14676 0.15177 -0.35300
O 	O 	0.93122 0.95812 0.21438 -0.68300
O 	O 	0.92225 0.93774 0.29187 -0.37200
O 	O 	0.87993 0.97909 0.14236 -0.35500
O 	O 	0.83751 0.85510 0.16360 -0.39900
Ni	Ni	0.84798 0.85755 0.21457 1.07300
H 	H 	0.94455 0.14925 0.22649 0.16100
H 	H 	0.97303 0.94155 0.21335 0.14700
O 	O 	0.78115 0.91802 0.22285 -0.41100
C 	C 	0.02179 0.20623 0.15514 0.27000
C 	C 	0.78314 0.95521 0.25139 0.30400
C 	C 	0.82626 0.91246 0.14766 0.30600
C 	C 	0.90832 0.86369 0.28250 0.29700
O 	O 	0.03038 0.03901 0.16296 -0.37500
C 	C 	0.76131 0.89315 0.12849 -0.09700
C 	C 	0.70411 0.87207 0.11420 0.04200
C 	C 	0.63546 0.84467 0.09912 0.03400
C 	C 	0.57606 0.82169 0.08698 -0.08800
C 	C 	0.54502 0.84593 0.31801 -0.08100
C 	C 	0.59998 0.87460 0.30321 0.03200
C 	C 	0.66458 0.90721 0.28584 0.03900
C 	C 	0.71923 0.93199 0.27058 -0.08900
C 	C 	0.95755 0.82585 0.29185 -0.09400
C 	C 	0.51758 0.08081 0.47375 -0.10800
C 	C 	0.55341 0.05717 0.44871 -0.06200
C 	C 	0.51677 0.99116 0.42798 0.17200
C 	C 	0.44347 0.94810 0.43228 -0.10900
C 	C 	0.40672 0.97442 0.45612 -0.05900
C 	C 	0.44342 0.04065 0.47683 0.16700
H 	H 	0.61015 0.08890 0.44578 0.05700
O 	O 	0.55210 0.97021 0.40290 -0.27800
H 	H 	0.35019 0.94204 0.45934 0.05900
O 	O 	0.40778 0.06263 0.50148 -0.27700
H 	H 	0.38967 0.10207 0.49135 0.15900
H 	H 	0.57406 0.93409 0.41305 0.16200
C 	C 	0.93359 0.44118 0.47873 -0.11400
C 	C 	0.99117 0.41461 0.48256 -0.03200
C 	C 	0.94664 0.51978 0.46793 0.19300
H 	H 	0.98207 0.35475 0.49110 0.06900
O 	O 	0.89221 0.54904 0.46595 -0.30000
H 	H 	0.87425 0.53941 0.44258 0.14400
C 	C 	0.55427 0.48096 0.47872 -0.11500
C 	C 	0.51428 0.44370 0.45022 -0.06300
C 	C 	0.47774 0.48265 0.43152 0.16800
C 	C 	0.48104 0.55966 0.44133 -0.10900
C 	C 	0.52435 0.59878 0.46876 -0.06500
C 	C 	0.56107 0.55979 0.48746 0.16900
H 	H 	0.51105 0.38412 0.44270 0.05700
O 	O 	0.44019 0.44623 0.40321 -0.28600
H 	H 	0.52719 0.65812 0.47642 0.06000
O 	O 	0.59995 0.59691 0.51535 -0.28500
H 	H 	0.64860 0.62731 0.50760 0.15500
H 	H 	0.39230 0.41197 0.41064 0.15400
C 	C 	0.80515 0.13363 0.60189 -0.09700
C 	C 	0.83037 0.09472 0.61860 0.03300
C 	C 	0.85687 0.04354 0.63630 0.03100
C 	C 	0.88006 0.99780 0.64955 -0.09600
C 	C 	0.42263 0.17468 0.59590 -0.08500
C 	C 	0.36585 0.15245 0.60946 0.03100
C 	C 	0.29903 0.12496 0.62516 0.03600
C 	C 	0.24229 0.10189 0.63875 -0.09100
C 	C 	0.88141 0.52724 0.56961 -0.08500
C 	C 	0.92282 0.58244 0.58565 0.03900
C 	C 	0.96250 0.65173 0.60454 0.03900
C 	C 	0.98448 0.71184 0.62157 -0.09300
C 	C 	0.91886 0.47811 0.99391 0.14600
C 	C 	0.89816 0.48621 0.96104 -0.09700
C 	C 	0.94370 0.54623 0.94148 -0.04800
O 	O 	0.87387 0.42131 0.01366 -0.26900
H 	H 	0.92714 0.55423 0.91644 0.07300
H 	H 	0.88584 0.37272 0.01010 0.15100
C 	C 	0.54096 0.05488 0.94559 -0.10600
C 	C 	0.52102 0.06848 0.97750 -0.05400
C 	C 	0.47777 0.00462 0.99603 0.16900
C 	C 	0.45376 0.92586 0.98259 -0.10600
C 	C 	0.47529 0.91208 0.95098 -0.05500
C 	C 	0.51896 0.97605 0.93256 0.17500
H 	H 	0.53802 0.12894 0.98774 0.05800
O 	O 	0.46169 0.01891 0.02778 -0.30000
H 	H 	0.45777 0.85177 0.94055 0.06400
O 	O 	0.53661 0.96186 0.90109 -0.29500
H 	H 	0.58201 0.95200 0.90382 0.14600
H 	H 	0.41780 0.03203 0.02554 0.15100
C 	C 	0.48732 0.42490 0.94315 -0.11400
C 	C 	0.41731 0.41480 0.93280 -0.05100
C 	C 	0.37836 0.45228 0.95051 0.16400
C 	C 	0.40976 0.50039 0.97871 -0.10000
C 	C 	0.47782 0.50579 0.99028 -0.06700
C 	C 	0.51677 0.46864 0.97256 0.17600
H 	H 	0.39400 0.38025 0.91041 0.06400
O 	O 	0.31167 0.44621 0.93898 -0.31000
H 	H 	0.50141 0.54081 0.01253 0.07300
O 	O 	0.58296 0.47357 0.98442 -0.32900
H 	H 	0.61703 0.52373 0.97547 0.12700
H 	H 	0.27804 0.39845 0.94971 0.14600
C 	C 	0.85453 0.21111 0.83258 -0.09000
C 	C 	0.90266 0.19652 0.82002 0.03300
C 	C 	0.95646 0.17379 0.80573 0.03200
C 	C 	0.99767 0.14641 0.79386 -0.09000
C 	C 	0.41939 0.10310 0.82629 -0.08600
C 	C 	0.36207 0.07152 0.81240 0.03200
C 	C 	0.29480 0.04134 0.79580 0.04000
C 	C 	0.78654 0.55880 0.85321 -0.09500
C 	C 	0.81430 0.61493 0.83571 0.04000
C 	C 	0.84726 0.68040 0.81510 0.03300
C 	C 	0.87508 0.73535 0.79703 -0.09300
