data_crystal

_cell_length_a 21.33743
_cell_length_b 18.68379
_cell_length_c 49.45714
_cell_angle_alpha 90.68601
_cell_angle_beta  91.50502
_cell_angle_gamma 110.91595

_symmetry_space_group_name_	'P 1'
_symmetry_space_group_name_H-M	'P 1'

loop_
_symmetry_equiv_pos_as_xyz
  x,y,z

loop_
_atom_site_label
_atom_site_type_symbol
_atom_site_fract_x
_atom_site_fract_y
_atom_site_fract_z
_atom_site_charge
Ni	Ni	0.73070 0.33440 0.89552 1.10100
O 	O 	0.64232 0.28207 0.87392 -0.70200
Ni	Ni	0.57653 0.30202 0.89812 1.10200
O 	O 	0.78416 0.30239 0.86681 -0.35000
O 	O 	0.71519 0.17733 0.86986 -0.39400
O 	O 	0.73688 0.42894 0.87340 -0.38000
Ni	Ni	0.61628 0.17229 0.86770 1.06700
O 	O 	0.77288 0.42299 0.95508 -0.41100
O 	O 	0.60926 0.14759 0.90771 -0.41200
O 	O 	0.49498 0.25972 0.87241 -0.35300
O 	O 	0.66211 0.33802 0.92206 -0.70100
O 	O 	0.81951 0.39529 0.91620 -0.35100
O 	O 	0.52527 0.35056 0.92232 -0.34200
O 	O 	0.61096 0.46663 0.92281 -0.41400
Ni	Ni	0.69177 0.44076 0.93853 1.07500
H 	H 	0.64217 0.30721 0.85642 0.15000
H 	H 	0.65946 0.30034 0.93629 0.16700
C 	C 	0.55582 0.14536 0.92057 0.32900
O 	O 	0.75311 0.50755 0.91045 -0.38800
C 	C 	0.76341 0.23090 0.85773 0.24800
C 	C 	0.48651 0.19820 0.85708 0.25700
C 	C 	0.74178 0.49511 0.88437 0.27000
C 	C 	0.54844 0.42446 0.92797 0.31700
C 	C 	0.82572 0.42607 0.94098 0.33800
O 	O 	0.53657 0.20485 0.92070 -0.33100
O 	O 	0.51492 0.14834 0.86421 -0.38300
Ni	Ni	0.63791 0.27880 0.50932 1.10100
O 	O 	0.72220 0.31168 0.48667 -0.69800
Ni	Ni	0.78698 0.28318 0.51071 1.09900
O 	O 	0.59138 0.34060 0.48812 -0.33700
O 	O 	0.68325 0.45087 0.49236 -0.40900
O 	O 	0.58684 0.18924 0.48257 -0.32500
Ni	Ni	0.76214 0.42088 0.47824 1.07500
O 	O 	0.56291 0.11893 0.53356 -0.38300
O 	O 	0.82258 0.47669 0.51109 -0.38200
O 	O 	0.87684 0.33422 0.49172 -0.38100
O 	O 	0.69933 0.23987 0.53108 -0.69700
O 	O 	0.55816 0.23970 0.53384 -0.35200
O 	O 	0.83424 0.23184 0.53683 -0.36000
O 	O 	0.75314 0.11573 0.52718 -0.39900
Ni	Ni	0.66116 0.12830 0.53073 1.06800
H 	H 	0.71387 0.28074 0.46967 0.16800
H 	H 	0.70431 0.26016 0.54992 0.15400
C 	C 	0.84379 0.44350 0.53084 0.27300
O 	O 	0.65616 0.12312 0.48994 -0.42200
C 	C 	0.62056 0.41430 0.48399 0.31600
C 	C 	0.88994 0.39266 0.47507 0.33600
C 	C 	0.60505 0.13054 0.47702 0.33000
C 	C 	0.80618 0.15821 0.54151 0.25100
C 	C 	0.54399 0.17211 0.54501 0.25600
O 	O 	0.80893 0.37320 0.53726 -0.39600
O 	O 	0.84129 0.40462 0.46088 -0.38600
O 	O 	0.02650 0.86699 0.70445 -0.70000
Ni	Ni	0.06626 0.91189 0.66967 1.10100
O 	O 	0.89049 0.77212 0.72415 -0.40700
O 	O 	0.06680 0.00178 0.74041 -0.35700
Ni	Ni	0.95813 0.76675 0.69523 1.05500
O 	O 	0.04235 0.11881 0.72019 -0.38300
O 	O 	0.90307 0.80902 0.66989 -0.40900
O 	O 	0.10662 0.83109 0.66119 -0.37900
O 	O 	0.01933 0.98637 0.67988 -0.67100
O 	O 	0.11511 0.97475 0.63810 -0.35200
O 	O 	0.13820 0.09921 0.65135 -0.39100
Ni	Ni	0.08343 0.09144 0.68644 1.06600
H 	H 	0.06090 0.86299 0.71756 0.16100
H 	H 	0.98275 0.98585 0.66707 0.14000
C 	C 	0.92674 0.84122 0.64715 0.26200
O 	O 	0.14523 0.05124 0.70835 -0.42300
C 	C 	0.90660 0.80736 0.74791 0.25100
C 	C 	0.06785 0.75837 0.65809 0.26000
C 	C 	0.12946 0.02387 0.73264 0.24900
C 	C 	0.15755 0.04550 0.64076 0.24700
C 	C 	0.97713 0.09559 0.72387 0.22800
Ni	Ni	0.26085 0.65954 0.40768 1.09900
O 	O 	0.34648 0.69325 0.38588 -0.70100
Ni	Ni	0.41301 0.67839 0.41256 1.10100
O 	O 	0.20711 0.68369 0.37627 -0.35900
O 	O 	0.28159 0.80630 0.37461 -0.39500
O 	O 	0.24114 0.55465 0.38985 -0.39300
Ni	Ni	0.37727 0.80070 0.37613 1.06700
O 	O 	0.21448 0.56920 0.46563 -0.37400
O 	O 	0.38331 0.83630 0.41540 -0.41900
O 	O 	0.49200 0.70695 0.38752 -0.35100
O 	O 	0.32968 0.65390 0.43534 -0.69900
O 	O 	0.17410 0.61795 0.42917 -0.37700
O 	O 	0.46489 0.63760 0.44023 -0.34200
O 	O 	0.37912 0.52212 0.44154 -0.40700
Ni	Ni	0.29802 0.55291 0.45232 1.07600
H 	H 	0.34201 0.66035 0.36957 0.15400
H 	H 	0.33639 0.69436 0.44939 0.16600
C 	C 	0.43596 0.84193 0.43050 0.34000
O 	O 	0.24030 0.47411 0.42398 -0.38000
C 	C 	0.22873 0.75052 0.36451 0.24600
C 	C 	0.50315 0.76500 0.37106 0.25300
C 	C 	0.21141 0.49113 0.40250 0.27300
C 	C 	0.44206 0.56547 0.44729 0.31700
C 	C 	0.16417 0.56898 0.44926 0.32300
O 	O 	0.45786 0.78439 0.43173 -0.33600
O 	O 	0.47790 0.81900 0.37595 -0.37600
Ni	Ni	0.36498 0.71022 0.99171 1.10300
O 	O 	0.27010 0.67653 0.97506 -0.70000
Ni	Ni	0.21895 0.69995 0.00530 1.10100
O 	O 	0.39795 0.65011 0.96423 -0.33900
O 	O 	0.31230 0.53864 0.97272 -0.41100
O 	O 	0.39874 0.80088 0.96562 -0.33000
Ni	Ni	0.22823 0.56792 0.96428 1.07500
O 	O 	0.45197 0.86849 0.01896 -0.38000
O 	O 	0.18073 0.50737 0.99731 -0.38400
O 	O 	0.12074 0.64703 0.99110 -0.34000
O 	O 	0.31635 0.74499 0.02018 -0.69600
O 	O 	0.45701 0.74963 0.01062 -0.34800
O 	O 	0.18555 0.74419 0.03783 -0.34700
O 	O 	0.26064 0.86358 0.03042 -0.39400
Ni	Ni	0.35380 0.85663 0.02359 1.06900
H 	H 	0.26870 0.70874 0.95948 0.17000
H 	H 	0.32173 0.72241 0.03771 0.15200
C 	C 	0.17352 0.53797 0.02059 0.27900
O 	O 	0.34063 0.87021 0.98359 -0.41600
C 	C 	0.37078 0.57523 0.96201 0.31600
C 	C 	0.10095 0.59390 0.97139 0.32700
C 	C 	0.38469 0.86396 0.96674 0.33800
C 	C 	0.21852 0.81500 0.04639 0.25600
C 	C 	0.47614 0.81430 0.02492 0.25900
O 	O 	0.21293 0.60723 0.02774 -0.39400
O 	O 	0.14339 0.58677 0.95348 -0.40700
Ni	Ni	0.93356 0.04810 0.17814 1.09200
O 	O 	0.98096 0.08552 0.27151 -0.38400
O 	O 	0.07772 0.15859 0.25121 -0.40400
O 	O 	0.85326 0.01378 0.24225 -0.40200
Ni	Ni	0.05556 0.17144 0.21049 1.06800
O 	O 	0.90709 0.82327 0.22993 -0.40700
O 	O 	0.09083 0.08641 0.20005 -0.40100
O 	O 	0.94050 0.14136 0.15596 -0.37300
O 	O 	0.93484 0.96100 0.20242 -0.70100
O 	O 	0.88054 0.97560 0.14735 -0.36900
O 	O 	0.80084 0.90728 0.17648 -0.40800
Ni	Ni	0.85630 0.86735 0.20356 1.06900
H 	H 	0.93397 0.13314 0.21785 0.15400
C 	C 	0.07317 0.04816 0.17692 0.26200
O 	O 	0.80361 0.88464 0.23535 -0.39100
C 	C 	0.03389 0.14924 0.27049 0.27200
C 	C 	0.79975 0.95097 0.24218 0.29400
C 	C 	0.82010 0.92590 0.15159 0.24600
C 	C 	0.92725 0.85162 0.25476 0.26100
O 	O 	0.05077 0.20139 0.17072 -0.37700
C 	C 	0.04276 0.30134 0.09655 0.08000
C 	C 	0.03575 0.31415 0.06893 -0.07900
C 	C 	0.05658 0.39042 0.06056 0.01900
C 	C 	0.08446 0.45138 0.07899 0.08000
C 	C 	0.09170 0.43804 0.10660 -0.08300
C 	C 	0.07164 0.36181 0.11478 0.01700
N 	N 	0.00196 0.23984 0.10931 -0.14300
N 	N 	0.12653 0.51257 0.06645 -0.14900
C 	C 	0.12648 0.49082 0.04028 0.00600
C 	C 	0.08366 0.41542 0.03571 -0.03900
H 	H 	0.01417 0.26679 0.05462 0.06700
H 	H 	0.11341 0.48517 0.12099 0.05300
H 	H 	0.08798 0.37838 0.01941 0.06100
H 	H 	0.16539 0.55733 0.07619 0.09200
C 	C 	0.59325 0.90026 0.07758 0.06600
C 	C 	0.65274 0.95457 0.08853 -0.05500
C 	C 	0.68474 0.93205 0.11012 -0.00400
C 	C 	0.66380 0.85620 0.11793 0.08300
C 	C 	0.60906 0.80002 0.10472 -0.08500
C 	C 	0.57162 0.82454 0.08576 0.01400
N 	N 	0.57001 0.90384 0.05234 -0.14900
C 	C 	0.53268 0.83131 0.04434 0.01600
C 	C 	0.53467 0.78033 0.06428 -0.05200
N 	N 	0.71536 0.84125 0.12939 -0.15200
C 	C 	0.76903 0.90744 0.12975 -0.00300
C 	C 	0.75233 0.96428 0.11683 -0.01700
H 	H 	0.67571 0.00976 0.07931 0.04300
H 	H 	0.59925 0.73961 0.10755 0.05400
H 	H 	0.50002 0.72182 0.06564 0.04300
H 	H 	0.78023 0.02529 0.11890 0.03400
H 	H 	0.56941 0.95370 0.04315 0.10200
H 	H 	0.71049 0.79431 0.14156 0.07400
C 	C 	0.16989 0.84571 0.11237 0.07600
C 	C 	0.11347 0.84578 0.12638 -0.07800
C 	C 	0.11356 0.91611 0.13636 0.01000
C 	C 	0.16827 0.98271 0.13412 0.09200
C 	C 	0.22600 0.98298 0.12131 -0.07000
C 	C 	0.22580 0.91316 0.11033 0.01200
N 	N 	0.16513 0.79890 0.09089 -0.15000
C 	C 	0.21675 0.83603 0.07502 -0.00700
C 	C 	0.25562 0.90689 0.08641 -0.05600
N 	N 	0.16773 0.03455 0.15308 -0.15500
C 	C 	0.11095 0.00207 0.16699 -0.01800
C 	C 	0.07782 0.92659 0.15783 -0.02700
H 	H 	0.07003 0.79381 0.12816 0.05500
H 	H 	0.26875 0.03555 0.11935 0.04300
H 	H 	0.28626 0.95531 0.07498 0.04200
H 	H 	0.12041 0.75663 0.08383 0.10200
H 	H 	0.19385 0.09351 0.15188 0.08600
C 	C 	0.64308 0.85706 0.33123 0.08300
C 	C 	0.68422 0.92937 0.32259 -0.07800
C 	C 	0.68687 0.94284 0.29470 0.00700
C 	C 	0.64836 0.88656 0.27615 0.07900
C 	C 	0.60475 0.81554 0.28507 -0.08600
C 	C 	0.60532 0.80080 0.31275 0.01600
N 	N 	0.61473 0.84541 0.35554 -0.15100
C 	C 	0.55905 0.78158 0.35272 0.02200
C 	C 	0.55118 0.75256 0.32634 -0.05700
N 	N 	0.68043 0.89322 0.25273 -0.15000
C 	C 	0.74007 0.95155 0.25623 -0.00800
C 	C 	0.74518 0.98462 0.28195 -0.01900
H 	H 	0.71425 0.97304 0.33701 0.06500
H 	H 	0.57442 0.77176 0.27076 0.05100
H 	H 	0.50328 0.71889 0.31673 0.03400
H 	H 	0.79253 0.01468 0.29264 0.04100
H 	H 	0.62149 0.88855 0.37020 0.12900
H 	H 	0.67156 0.84808 0.23869 0.08600
C 	C 	0.03658 0.28361 0.32161 0.08300
C 	C 	0.05277 0.35910 0.33129 -0.08100
C 	C 	0.07378 0.37518 0.35851 0.02500
C 	C 	0.08830 0.32126 0.37424 0.08600
C 	C 	0.07967 0.24846 0.36338 -0.07800
C 	C 	0.04844 0.22881 0.33766 0.01500
N 	N 	0.03792 0.26555 0.29528 -0.15300
C 	C 	0.05214 0.20079 0.29421 -0.00700
C 	C 	0.05760 0.17542 0.32014 -0.03100
N 	N 	0.13564 0.35677 0.39340 -0.14900
C 	C 	0.15159 0.43271 0.38988 0.00500
C 	C 	0.11448 0.44651 0.36844 -0.04200
H 	H 	0.05356 0.40450 0.31772 0.05600
H 	H 	0.10046 0.21079 0.37373 0.06000
H 	H 	0.08133 0.13478 0.32540 0.04800
H 	H 	0.12993 0.49837 0.35679 0.05700
H 	H 	0.04285 0.30301 0.27927 0.06900
H 	H 	0.16752 0.33230 0.40269 0.09900
C 	C 	0.10848 0.81252 0.33081 0.06400
C 	C 	0.04651 0.82189 0.33265 -0.03800
C 	C 	0.07059 0.73381 0.28987 -0.10500
C 	C 	0.12015 0.76922 0.30983 0.03200
N 	N 	0.14804 0.81345 0.35252 -0.14800
C 	C 	0.18382 0.76976 0.34559 0.01100
C 	C 	0.16812 0.74093 0.31930 -0.06300
H 	H 	0.03723 0.85525 0.34910 0.05600
H 	H 	0.08008 0.70041 0.27349 0.05900
H 	H 	0.17477 0.68966 0.31162 0.04400
H 	H 	0.13820 0.82467 0.37241 0.09800
C 	C 	0.58747 0.02050 0.44545 -0.11700
C 	C 	0.55980 0.06469 0.46089 -0.11600
C 	C 	0.49032 0.03666 0.46523 0.31800
C 	C 	0.45003 0.96365 0.45541 -0.06800
C 	C 	0.47871 0.91777 0.44146 -0.14300
C 	C 	0.54748 0.94715 0.43607 0.36000
F 	F 	0.57558 0.90471 0.42169 -0.44000
H 	H 	0.64074 0.04183 0.44170 0.09600
H 	H 	0.39675 0.94216 0.45912 0.09000
F 	F 	0.46246 0.07833 0.48014 -0.42700
C 	C 	0.96052 0.43555 0.46842 -0.15800
C 	C 	0.04508 0.49396 0.43534 -0.07500
C 	C 	0.09413 0.52310 0.45616 -0.11900
C 	C 	0.07587 0.50822 0.48327 0.32200
F 	F 	0.12173 0.53800 0.50379 -0.43800
H 	H 	0.05833 0.50514 0.41442 0.09300
F 	F 	0.93278 0.42069 0.42088 -0.44700
C 	C 	0.48619 0.45888 0.44399 -0.09100
C 	C 	0.49025 0.52905 0.45586 -0.12300
C 	C 	0.54078 0.56448 0.47567 0.33500
C 	C 	0.58533 0.52858 0.48410 -0.09000
C 	C 	0.57986 0.45720 0.47276 -0.12800
C 	C 	0.53091 0.42338 0.45223 0.33700
F 	F 	0.52665 0.35595 0.44026 -0.43800
H 	H 	0.44852 0.43196 0.42825 0.09600
H 	H 	0.62272 0.55519 0.49996 0.09500
F 	F 	0.54549 0.63244 0.48732 -0.43900
C 	C 	0.85961 0.90318 0.58990 0.07800
C 	C 	0.87964 0.95412 0.56836 -0.07000
C 	C 	0.84850 0.00807 0.56547 0.00300
C 	C 	0.80904 0.01997 0.58520 0.06200
C 	C 	0.79623 0.97661 0.60865 -0.07300
C 	C 	0.81728 0.91343 0.60944 0.00900
N 	N 	0.89820 0.86664 0.60047 -0.15100
C 	C 	0.88114 0.85343 0.62659 -0.00300
C 	C 	0.83124 0.88192 0.63292 -0.04500
N 	N 	0.80457 0.08947 0.58306 -0.15300
C 	C 	0.83749 0.12063 0.56046 -0.00500
C 	C 	0.87004 0.07329 0.55033 -0.03900
H 	H 	0.77351 0.99290 0.62587 0.04900
H 	H 	0.82380 0.90021 0.65308 0.03900
H 	H 	0.88741 0.07481 0.52988 0.05000
H 	H 	0.76619 0.10436 0.59135 0.05700
C 	C 	0.28970 0.06050 0.59577 0.08800
C 	C 	0.33964 0.03148 0.58907 -0.09900
C 	C 	0.40620 0.08270 0.58890 0.02100
C 	C 	0.42220 0.16065 0.59432 0.07300
C 	C 	0.37237 0.18951 0.60152 -0.07800
C 	C 	0.30580 0.13815 0.60173 0.01200
N 	N 	0.23341 0.01880 0.60815 -0.16000
C 	C 	0.21406 0.06916 0.62233 0.01000
C 	C 	0.25755 0.14400 0.61892 -0.04400
N 	N 	0.47719 0.20185 0.58096 -0.15300
C 	C 	0.49630 0.15068 0.56708 0.00600
C 	C 	0.45359 0.07615 0.57149 -0.05200
H 	H 	0.32718 0.97108 0.58443 0.07200
H 	H 	0.38479 0.24991 0.60614 0.05600
H 	H 	0.26470 0.19108 0.63311 0.04700
H 	H 	0.44530 0.02839 0.55747 0.06300
H 	H 	0.22002 0.96072 0.61255 0.10300
H 	H 	0.48905 0.25916 0.57577 0.09500
C 	C 	0.99129 0.53595 0.61120 -0.11800
C 	C 	0.94782 0.53463 0.58944 0.03300
C 	C 	0.96415 0.59229 0.57075 0.04900
N 	N 	0.93105 0.56624 0.54698 -0.14500
C 	C 	0.89459 0.49140 0.55054 0.00600
C 	C 	0.90324 0.46972 0.57674 -0.05100
H 	H 	0.97820 0.49004 0.62558 0.05400
H 	H 	0.09189 0.78392 0.60435 0.06100
H 	H 	0.89327 0.41145 0.58303 0.05300
H 	H 	0.94539 0.59117 0.52824 0.09200
C 	C 	0.91305 0.54162 0.96214 -0.08600
C 	C 	0.89355 0.46514 0.95294 -0.12700
C 	C 	0.00850 0.47097 0.95942 -0.07200
C 	C 	0.02881 0.54870 0.96712 -0.10700
F 	F 	0.99910 0.65859 0.97649 -0.44200
H 	H 	0.87653 0.56965 0.96275 0.08400
H 	H 	0.04508 0.44308 0.95850 0.08300
F 	F 	0.92279 0.35479 0.94424 -0.44700
C 	C 	0.53979 0.02170 0.94328 -0.11400
C 	C 	0.51189 0.07251 0.93197 -0.11800
C 	C 	0.44156 0.05213 0.93060 0.32100
C 	C 	0.40010 0.98296 0.94128 -0.07000
C 	C 	0.42806 0.93279 0.95300 -0.13800
C 	C 	0.49824 0.95214 0.95370 0.35900
F 	F 	0.52633 0.90477 0.96527 -0.42900
H 	H 	0.59375 0.03646 0.94430 0.09900
H 	H 	0.34615 0.96839 0.94046 0.09600
F 	F 	0.41331 0.09847 0.91839 -0.42800
C 	C 	0.50095 0.52751 0.92309 -0.09000
C 	C 	0.50152 0.46163 0.93618 -0.12800
C 	C 	0.45543 0.42977 0.95647 0.33700
C 	C 	0.41047 0.46493 0.96407 -0.09200
C 	C 	0.41110 0.53208 0.95146 -0.12600
C 	C 	0.45562 0.56223 0.93048 0.33800
F 	F 	0.45491 0.62524 0.91727 -0.43400
H 	H 	0.53522 0.55141 0.90699 0.09600
H 	H 	0.37660 0.44128 0.98032 0.09600
F 	F 	0.45546 0.36597 0.96932 -0.44100
C 	C 	0.86864 0.17134 0.75543 0.06900
C 	C 	0.81140 0.14122 0.77102 -0.08100
C 	C 	0.81846 0.15567 0.79895 0.01100
C 	C 	0.87807 0.20574 0.81064 0.08300
N 	N 	0.88036 0.13145 0.73461 -0.15400
C 	C 	0.97976 0.20649 0.75337 -0.08100
N 	N 	0.86603 0.23828 0.83341 -0.15000
C 	C 	0.79886 0.20867 0.83613 0.00300
C 	C 	0.76750 0.15691 0.81532 -0.04900
H 	H 	0.76422 0.10354 0.76194 0.04900
H 	H 	0.02898 0.21487 0.76220 0.07700
H 	H 	0.71540 0.14171 0.80880 0.02300
H 	H 	0.84567 0.07942 0.72709 0.08500
H 	H 	0.89787 0.29023 0.84211 0.10000
C 	C 	0.36862 0.10185 0.80489 0.07800
C 	C 	0.35060 0.08911 0.77726 -0.08400
C 	C 	0.28816 0.09115 0.76875 0.01200
C 	C 	0.24426 0.10240 0.78712 0.07900
C 	C 	0.26225 0.11577 0.81466 -0.08100
C 	C 	0.32487 0.11427 0.82323 0.01700
N 	N 	0.43247 0.13608 0.81403 -0.15300
C 	C 	0.43015 0.17285 0.83743 0.00600
C 	C 	0.36421 0.15905 0.84418 -0.02600
N 	N 	0.18054 0.06849 0.77789 -0.15100
C 	C 	0.18311 0.03719 0.75334 0.00400
C 	C 	0.24924 0.04847 0.74734 -0.05000
H 	H 	0.38442 0.07939 0.76292 0.05000
H 	H 	0.22835 0.12558 0.82893 0.06400
H 	H 	0.34834 0.19303 0.85847 0.07000
H 	H 	0.26731 0.04045 0.72769 0.04300
H 	H 	0.47480 0.14881 0.80219 0.06800
H 	H 	0.13937 0.07963 0.78524 0.10100
C 	C 	0.73518 0.62197 0.83184 0.07900
C 	C 	0.73525 0.63323 0.80386 -0.08200
C 	C 	0.77840 0.70347 0.79435 0.01300
C 	C 	0.82757 0.75488 0.81133 0.08100
C 	C 	0.83352 0.73824 0.83871 -0.08100
C 	C 	0.78270 0.67460 0.84907 0.01700
N 	N 	0.71342 0.55209 0.84283 -0.15200
C 	C 	0.74674 0.55978 0.86688 0.00300
C 	C 	0.79028 0.63473 0.87159 -0.03900
N 	N 	0.88004 0.79747 0.79683 -0.15000
C 	C 	0.86506 0.77220 0.77091 0.00300
C 	C 	0.80228 0.71461 0.76847 -0.04400
H 	H 	0.70581 0.58760 0.78997 0.05200
H 	H 	0.87744 0.77097 0.85100 0.06100
H 	H 	0.83453 0.65134 0.88489 0.05900
H 	H 	0.78551 0.67305 0.75190 0.04500
H 	H 	0.69151 0.50040 0.83194 0.08200
C 	C 	0.94419 0.80333 0.27481 -0.00400
C 	C 	0.08816 0.71098 0.63888 0.00700
C 	C 	0.09250 0.72964 0.61165 -0.03200
C 	C 	0.95505 0.82388 0.30212 -0.02400
C 	C 	0.06470 0.66149 0.59703 0.00200
N 	N 	0.06422 0.63393 0.64116 -0.15700
C 	C 	0.94131 0.42943 0.95226 0.31800
C 	C 	0.04729 0.33609 0.13985 -0.05900
C 	C 	0.93458 0.23922 0.79504 -0.09100
H 	H 	0.92861 0.82649 0.80473 0.09100
H 	H 	0.95165 0.87590 0.31078 0.05200
O 	O 	0.02248 0.05193 0.16212 -0.35900
C 	C 	0.00593 0.25965 0.13591 0.03500
H 	H 	0.06936 0.36302 0.15906 0.03900
O 	O 	0.94385 0.88079 0.74957 -0.36100
C 	C 	0.99645 0.20250 0.15706 0.20800
H 	H 	0.02556 0.89301 0.16100 0.03200
H 	H 	0.99194 0.74990 0.24847 0.07900
C 	C 	0.01000 0.74739 0.29065 0.13000
C 	C 	0.94763 0.15080 0.73362 0.00800
O 	O 	0.92604 0.91917 0.26277 -0.36800
H 	H 	0.98509 0.18370 0.10149 0.08200
N 	N 	0.97697 0.75603 0.26806 -0.16700
Ni	Ni	0.98363 0.94322 0.71606 1.09100
C 	C 	0.92934 0.21963 0.76731 0.02300
O 	O 	0.94217 0.02210 0.72569 -0.38100
C 	C 	0.99752 0.78888 0.31217 -0.04600
C 	C 	0.02453 0.65497 0.57339 -0.03700
H 	H 	0.03737 0.70009 0.55870 0.06100
O 	O 	0.96286 0.10355 0.21346 -0.71600
H 	H 	0.97385 0.94571 0.19923 0.14900
C 	C 	0.97885 0.45006 0.44137 0.32400
C 	C 	0.04746 0.60328 0.61606 0.11400
H 	H 	0.04128 0.60624 0.65851 0.08300
H 	H 	0.98152 0.27707 0.80424 0.05400
O 	O 	0.99014 0.85798 0.64193 -0.37900
O 	O 	0.00287 0.73542 0.66320 -0.38600
Ni	Ni	0.94854 0.01309 0.23856 1.09200
C 	C 	0.00943 0.46446 0.48929 -0.03600
H 	H 	0.99570 0.45432 0.51022 0.06400
H 	H 	0.91958 0.95379 0.55534 0.05800
H 	H 	0.94456 0.87014 0.59298 0.09500
C 	C 	0.98045 0.58349 0.96910 0.31600
