data_crystal

_cell_length_a 18.69515
_cell_length_b 18.88064
_cell_length_c 34.93820
_cell_angle_alpha 95.42849
_cell_angle_beta  95.42858
_cell_angle_gamma 126.36898

_symmetry_space_group_name_	'P 1'
_symmetry_space_group_name_H-M	'P 1'

loop_
_symmetry_equiv_pos_as_xyz
  x,y,z

loop_
_atom_site_label
_atom_site_type_symbol
_atom_site_fract_x
_atom_site_fract_y
_atom_site_fract_z
_atom_site_charge
C 	C 	0.89195 0.98092 0.95689 0.01600
C 	C 	0.84580 0.88871 0.95701 -0.06600
C 	C 	0.89411 0.85301 0.95865 0.01900
C 	C 	0.98790 0.90969 0.96068 -0.06100
C 	C 	0.03357 0.00093 0.96057 0.01900
C 	C 	0.98579 0.03640 0.95851 -0.05900
H 	H 	0.77335 0.84539 0.95588 0.04700
H 	H 	0.02547 0.88276 0.96250 0.04600
H 	H 	0.02189 0.10752 0.95907 0.04500
C 	C 	0.96168 0.05348 0.50570 0.02600
C 	C 	0.05472 0.09862 0.50625 -0.07400
C 	C 	0.08975 0.05012 0.50396 0.02400
C 	C 	0.03172 0.95700 0.50084 -0.07500
C 	C 	0.93952 0.91221 0.50056 0.02600
C 	C 	0.90450 0.96024 0.50304 -0.07200
H 	H 	0.09931 0.17067 0.50835 0.04700
H 	H 	0.05841 0.91936 0.49871 0.04900
H 	H 	0.83265 0.92498 0.50220 0.04800
Cu	Cu	0.74045 0.32498 0.95690 0.92700
Cu	Cu	0.73623 0.26223 0.04186 0.86600
Cu	Cu	0.59641 0.27693 0.00638 0.89200
Cu	Cu	0.57384 0.32134 0.92825 0.89400
C 	C 	0.68260 0.30522 0.87452 0.28100
O 	O 	0.79447 0.45630 0.95597 -0.35900
C 	C 	0.65724 0.31213 0.09252 0.27800
O 	O 	0.60002 0.25247 0.95236 -0.63700
O 	O 	0.72965 0.34022 0.01241 -0.64700
O 	O 	0.79906 0.26356 0.96083 -0.36800
O 	O 	0.70455 0.17274 0.99936 -0.43500
O 	O 	0.64005 0.33891 0.88389 -0.38500
O 	O 	0.46640 0.20845 0.99688 -0.37600
C 	C 	0.41765 0.21294 0.96864 0.28300
C 	C 	0.75387 0.49021 0.96790 0.28200
O 	O 	0.67076 0.43629 0.97369 -0.39100
O 	O 	0.45568 0.27086 0.94490 -0.39300
O 	O 	0.72643 0.29246 0.90151 -0.36300
C 	C 	0.76122 0.18996 0.97572 0.28500
O 	O 	0.59025 0.28085 0.06279 -0.38800
O 	O 	0.73170 0.32289 0.08719 -0.42100
H 	H 	0.56105 0.18805 0.94037 0.16500
H 	H 	0.76624 0.40306 0.02645 0.17000
Cu	Cu	0.62789 0.21714 0.50901 0.92600
Cu	Cu	0.68823 0.21880 0.42353 0.86900
Cu	Cu	0.67223 0.35723 0.45834 0.89700
Cu	Cu	0.62928 0.38129 0.53687 0.89400
C 	C 	0.66240 0.28669 0.59108 0.27800
O 	O 	0.49603 0.16214 0.51088 -0.36300
C 	C 	0.63607 0.29497 0.37232 0.27800
O 	O 	0.69922 0.35611 0.51247 -0.63900
O 	O 	0.61002 0.22567 0.45327 -0.64000
O 	O 	0.68813 0.15814 0.50472 -0.37400
O 	O 	0.77929 0.25040 0.46575 -0.44200
O 	O 	0.61949 0.32046 0.58202 -0.38400
O 	O 	0.73950 0.48575 0.46708 -0.38500
C 	C 	0.73319 0.53360 0.49476 0.29100
C 	C 	0.45978 0.20002 0.49847 0.28200
O 	O 	0.51227 0.28222 0.49236 -0.39500
O 	O 	0.67525 0.49563 0.51867 -0.39700
O 	O 	0.66299 0.23244 0.56444 -0.36100
C 	C 	0.76194 0.19476 0.48964 0.28600
O 	O 	0.66641 0.36148 0.40176 -0.38500
O 	O 	0.62562 0.22170 0.37817 -0.42000
H 	H 	0.76454 0.39573 0.52407 0.16300
H 	H 	0.54621 0.18837 0.43955 0.17200
C 	C 	0.61574 0.13383 0.70308 -0.04200
C 	C 	0.61784 0.13638 0.74341 -0.04300
C 	C 	0.66294 0.21859 0.76927 0.01600
C 	C 	0.70922 0.29908 0.75459 -0.00900
C 	C 	0.70707 0.29650 0.71402 -0.00800
C 	C 	0.65867 0.21345 0.68810 0.01500
C 	C 	0.74979 0.37672 0.69923 0.01600
C 	C 	0.79765 0.45913 0.72520 -0.04300
C 	C 	0.79987 0.46170 0.76547 -0.04300
C 	C 	0.75425 0.38190 0.78029 0.01600
C 	C 	0.74983 0.38363 0.82018 -0.02400
C 	C 	0.70011 0.30337 0.83450 -0.05600
C 	C 	0.65917 0.22120 0.80935 -0.02900
C 	C 	0.65018 0.21086 0.64748 -0.02400
C 	C 	0.68822 0.29046 0.63275 -0.05700
C 	C 	0.74052 0.37329 0.65864 -0.02800
H 	H 	0.57922 0.06975 0.68346 0.03800
H 	H 	0.58296 0.07425 0.75441 0.03800
H 	H 	0.83168 0.52120 0.71415 0.03600
H 	H 	0.83563 0.52573 0.78505 0.03800
H 	H 	0.78225 0.44701 0.83988 0.04300
H 	H 	0.62146 0.15942 0.82063 0.03600
H 	H 	0.61018 0.14696 0.62741 0.04600
H 	H 	0.77072 0.43464 0.64713 0.03000
C 	C 	0.77605 0.46981 0.22970 -0.04400
C 	C 	0.77233 0.46770 0.26945 -0.04500
C 	C 	0.69821 0.39268 0.28097 0.01400
C 	C 	0.62552 0.32085 0.25228 -0.01000
C 	C 	0.62875 0.32348 0.21224 -0.00900
C 	C 	0.70537 0.39720 0.20096 0.01300
C 	C 	0.55719 0.25058 0.18356 0.01300
C 	C 	0.48178 0.17678 0.19507 -0.04500
C 	C 	0.47911 0.17367 0.23483 -0.04400
C 	C 	0.55151 0.24464 0.26358 0.01300
C 	C 	0.55262 0.23873 0.30338 -0.02700
C 	C 	0.62689 0.30849 0.33186 -0.06300
C 	C 	0.69783 0.38674 0.32072 -0.02900
C 	C 	0.71203 0.39569 0.16122 -0.02700
C 	C 	0.64260 0.32131 0.13279 -0.06400
C 	C 	0.56384 0.25052 0.14386 -0.02900
H 	H 	0.83464 0.52731 0.22132 0.03500
H 	H 	0.82807 0.52365 0.29127 0.03600
H 	H 	0.42602 0.12085 0.17325 0.03500
H 	H 	0.42137 0.11536 0.24321 0.03500
H 	H 	0.49733 0.17894 0.31212 0.03700
H 	H 	0.75481 0.44077 0.34280 0.04000
H 	H 	0.77220 0.45082 0.15252 0.03700
H 	H 	0.51008 0.19343 0.12180 0.03900
C 	C 	0.85874 0.75792 0.46308 -0.06200
C 	C 	0.87993 0.81485 0.49811 0.01600
C 	C 	0.85093 0.77920 0.53171 -0.06300
C 	C 	0.80288 0.68738 0.53058 0.01100
C 	C 	0.78299 0.63030 0.49571 -0.08800
C 	C 	0.81038 0.66600 0.46183 0.01200
H 	H 	0.88098 0.78515 0.43700 0.04400
H 	H 	0.86755 0.82295 0.55892 0.04400
H 	H 	0.78244 0.66083 0.55696 0.02700
H 	H 	0.79427 0.62267 0.43456 0.03700
C 	C 	0.81955 0.12770 0.52865 0.01300
C 	C 	0.82047 0.16668 0.49621 -0.09400
C 	C 	0.87623 0.17716 0.46937 0.00900
C 	C 	0.92688 0.14516 0.47387 -0.06400
C 	C 	0.92266 0.10247 0.50525 0.01600
C 	C 	0.87064 0.09602 0.53321 -0.06300
H 	H 	0.77861 0.12096 0.55008 0.03800
H 	H 	0.87829 0.20765 0.44434 0.01700
H 	H 	0.96657 0.15037 0.45209 0.04200
H 	H 	0.86762 0.06397 0.55779 0.04500
C 	C 	0.23757 0.08708 0.53323 -0.06200
C 	C 	0.18703 0.09606 0.50446 0.01500
C 	C 	0.22583 0.13739 0.47320 -0.06200
C 	C 	0.31388 0.16841 0.47046 0.00900
C 	C 	0.36377 0.15794 0.49886 -0.09000
C 	C 	0.32515 0.11718 0.53027 0.01000
H 	H 	0.20819 0.05512 0.55746 0.04400
H 	H 	0.18711 0.14364 0.45057 0.04200
H 	H 	0.34332 0.20058 0.44628 0.02800
H 	H 	0.36363 0.11052 0.55284 0.03600
C 	C 	0.85451 0.70529 0.92944 -0.06200
C 	C 	0.84752 0.75646 0.95862 0.01500
C 	C 	0.81089 0.72010 0.99116 -0.05200
C 	C 	0.78335 0.63437 0.99489 0.02000
C 	C 	0.79284 0.58435 0.96626 -0.09000
C 	C 	0.82808 0.62013 0.93341 0.01100
H 	H 	0.88284 0.73263 0.90421 0.04400
H 	H 	0.80611 0.75915 0.01410 0.03200
H 	H 	0.75484 0.60693 0.02007 0.01700
H 	H 	0.83341 0.58135 0.91056 0.03400
C 	C 	0.80465 0.02090 0.99019 -0.05300
C 	C 	0.84382 0.02127 0.95783 0.01700
C 	C 	0.85079 0.07318 0.92991 -0.06300
C 	C 	0.82341 0.12779 0.93546 0.01300
C 	C 	0.78788 0.13036 0.96879 -0.09500
C 	C 	0.77688 0.07500 0.99567 0.02000
H 	H 	0.79928 0.98167 0.01202 0.03000
H 	H 	0.88039 0.07364 0.90464 0.04500
H 	H 	0.83048 0.16837 0.91401 0.03900
H 	H 	0.74905 0.07562 0.02140 0.00600
C 	C 	0.18914 0.08200 0.99861 -0.02200
C 	C 	0.13203 0.05964 0.96322 0.00300
C 	C 	0.16876 0.08902 0.92983 -0.05200
C 	C 	0.26200 0.13925 0.93161 -0.00200
C 	C 	0.31938 0.16084 0.96693 -0.06100
C 	C 	0.28242 0.13247 0.00052 -0.03100
H 	H 	0.16110 0.05957 0.02455 0.02600
H 	H 	0.12489 0.07161 0.90235 0.04000
H 	H 	0.28948 0.16026 0.90544 0.03100
H 	H 	0.32587 0.14966 0.02809 0.04400
