data_crystal

_cell_length_a 30.64876
_cell_length_b 31.12648
_cell_length_c 35.11073
_cell_angle_alpha 95.51880
_cell_angle_beta  95.51817
_cell_angle_gamma 125.53569

_symmetry_space_group_name_	'P 1'
_symmetry_space_group_name_H-M	'P 1'

loop_
_symmetry_equiv_pos_as_xyz
  x,y,z

loop_
_atom_site_label
_atom_site_type_symbol
_atom_site_fract_x
_atom_site_fract_y
_atom_site_fract_z
_atom_site_charge
C 	C 	0.98265 0.03175 0.99959 0.13300
N 	N 	0.03751 0.06064 0.00162 -0.14500
C 	C 	0.06167 0.03539 0.00066 0.11800
N 	N 	0.03093 0.98125 0.99755 -0.13900
C 	C 	0.97617 0.95219 0.99548 0.12200
N 	N 	0.95202 0.97747 0.99645 -0.14200
C 	C 	0.93287 0.98982 0.44430 0.11700
N 	N 	0.98762 0.01998 0.44536 -0.13900
C 	C 	0.01503 0.99848 0.45125 0.11700
N 	N 	0.98760 0.94665 0.45606 -0.14000
C 	C 	0.93293 0.91622 0.45503 0.11900
N 	N 	0.90550 0.93778 0.44905 -0.14000
Cu	Cu	0.66097 0.26715 0.00108 0.92500
Cu	Cu	0.69269 0.25816 0.91582 0.87200
Cu	Cu	0.68225 0.34437 0.94540 0.89800
Cu	Cu	0.66691 0.37061 0.02592 0.89400
C 	C 	0.67254 0.30537 0.08138 0.29300
O 	O 	0.58287 0.23526 0.00557 -0.37500
C 	C 	0.66421 0.30372 0.86147 0.28600
O 	O 	0.70434 0.34975 0.99955 -0.63300
O 	O 	0.64626 0.26612 0.94478 -0.63900
O 	O 	0.69330 0.22731 0.99907 -0.36900
O 	O 	0.74788 0.27580 0.95763 -0.43600
O 	O 	0.67757 0.34956 0.07617 -0.38000
O 	O 	0.72252 0.42125 0.94919 -0.38200
C 	C 	0.71973 0.45280 0.97518 0.29900
C 	C 	0.55995 0.25830 0.99553 0.29500
O 	O 	0.58983 0.30703 0.98810 -0.39000
O 	O 	0.68752 0.43342 0.00103 -0.39900
O 	O 	0.68480 0.28158 0.05601 -0.36600
C 	C 	0.73637 0.24425 0.98318 0.28900
O 	O 	0.66734 0.33857 0.88856 -0.37700
O 	O 	0.65593 0.25928 0.86939 -0.40900
H 	H 	0.74437 0.37281 0.00878 0.16100
H 	H 	0.60721 0.24285 0.93224 0.17600
Cu	Cu	0.71943 0.33029 0.44660 0.92800
Cu	Cu	0.71821 0.29177 0.53062 0.87200
Cu	Cu	0.63131 0.29924 0.49550 0.89800
Cu	Cu	0.61703 0.32721 0.41828 0.89400
C 	C 	0.67986 0.31320 0.36480 0.28900
O 	O 	0.75050 0.40845 0.44616 -0.35700
C 	C 	0.66806 0.32018 0.58099 0.29100
O 	O 	0.63432 0.28589 0.44184 -0.64100
O 	O 	0.71215 0.33836 0.50180 -0.64000
O 	O 	0.75928 0.29732 0.45058 -0.36800
O 	O 	0.70342 0.24026 0.48799 -0.43900
O 	O 	0.65638 0.33641 0.37401 -0.38200
O 	O 	0.55258 0.25714 0.48572 -0.38200
C 	C 	0.52266 0.26093 0.45846 0.29100
C 	C 	0.72617 0.42900 0.45910 0.28300
O 	O 	0.67520 0.39685 0.46345 -0.39100
O 	O 	0.54507 0.29582 0.43484 -0.39200
O 	O 	0.71201 0.31151 0.39156 -0.35800
C 	C 	0.73920 0.25338 0.46522 0.28900
O 	O 	0.62720 0.30010 0.55138 -0.38500
O 	O 	0.71331 0.32628 0.57607 -0.41300
H 	H 	0.61161 0.24736 0.42957 0.16500
H 	H 	0.73332 0.37587 0.51610 0.17700
C 	C 	0.62684 0.33138 0.76574 -0.04100
C 	C 	0.65691 0.32297 0.74218 0.02100
C 	C 	0.69051 0.30985 0.75815 -0.06000
C 	C 	0.69386 0.30431 0.79718 0.02300
C 	C 	0.66249 0.31107 0.82056 -0.08300
C 	C 	0.62957 0.32517 0.80473 0.01300
C 	C 	0.65289 0.32674 0.70043 0.02100
C 	C 	0.69540 0.37263 0.68857 -0.06100
C 	C 	0.69859 0.37260 0.64903 0.02500
C 	C 	0.65890 0.32612 0.62101 -0.08500
C 	C 	0.61370 0.28217 0.63260 0.00900
C 	C 	0.61070 0.28207 0.67214 -0.04200
C 	C 	0.74264 0.42035 0.63744 0.06800
C 	C 	0.56526 0.23523 0.68359 0.08800
C 	C 	0.59306 0.34628 0.75011 0.09100
C 	C 	0.73091 0.29339 0.81333 0.05400
N 	N 	0.77792 0.45859 0.62814 -0.11600
N 	N 	0.52887 0.19773 0.69279 -0.11800
N 	N 	0.76060 0.28466 0.82625 -0.13000
N 	N 	0.56599 0.35820 0.73756 -0.11700
H 	H 	0.60574 0.33082 0.82266 0.04200
H 	H 	0.71410 0.30397 0.74011 0.05000
H 	H 	0.72709 0.40758 0.71027 0.05200
H 	H 	0.58237 0.24686 0.61101 0.03700
C 	C 	0.64272 0.24520 0.26015 -0.04100
C 	C 	0.67852 0.28912 0.24278 0.02100
C 	C 	0.71840 0.33957 0.26629 -0.05900
C 	C 	0.72113 0.34718 0.30662 0.02700
C 	C 	0.68335 0.30399 0.32373 -0.07900
C 	C 	0.64525 0.25291 0.30053 0.00700
C 	C 	0.67179 0.28391 0.19985 0.02100
C 	C 	0.62988 0.28343 0.17935 -0.05800
C 	C 	0.62775 0.28703 0.13987 0.02300
C 	C 	0.66853 0.29212 0.12071 -0.07900
C 	C 	0.70836 0.28901 0.14057 0.01200
C 	C 	0.71006 0.28475 0.17997 -0.04200
C 	C 	0.58342 0.28515 0.11912 0.06600
C 	C 	0.75148 0.28184 0.19992 0.08900
C 	C 	0.60309 0.19231 0.23671 0.08700
C 	C 	0.76221 0.39965 0.33021 0.07800
N 	N 	0.54794 0.28367 0.10252 -0.11900
N 	N 	0.78466 0.27951 0.21593 -0.11700
N 	N 	0.79510 0.44168 0.34910 -0.11200
N 	N 	0.57134 0.14995 0.21791 -0.11800
H 	H 	0.61667 0.21949 0.31377 0.02800
H 	H 	0.74643 0.37320 0.25300 0.05300
H 	H 	0.59970 0.28158 0.19444 0.05200
H 	H 	0.73910 0.29173 0.12571 0.04400
C 	C 	0.75379 0.48762 0.46447 -0.08600
C 	C 	0.79601 0.51944 0.44431 0.01600
C 	C 	0.81751 0.57351 0.44566 -0.06700
C 	C 	0.79723 0.59629 0.46726 0.04100
C 	C 	0.75652 0.56526 0.48850 -0.06800
C 	C 	0.73496 0.51120 0.48722 0.01500
C 	C 	0.81754 0.65127 0.46706 -0.02200
C 	C 	0.83483 0.69731 0.46670 -0.01500
C 	C 	0.85639 0.75255 0.46623 0.02700
C 	C 	0.83108 0.76505 0.43868 -0.05200
C 	C 	0.85466 0.81878 0.43617 -0.01600
C 	C 	0.90389 0.86028 0.46107 -0.02300
C 	C 	0.92799 0.84760 0.48956 -0.01500
C 	C 	0.90434 0.79397 0.49208 -0.05200
H 	H 	0.81119 0.50203 0.42678 0.04700
H 	H 	0.84934 0.59742 0.42945 0.05300
H 	H 	0.74108 0.58278 0.50563 0.05100
H 	H 	0.70309 0.48748 0.50345 0.03400
H 	H 	0.79383 0.73322 0.41871 0.04600
H 	H 	0.83567 0.82799 0.41405 0.04100
H 	H 	0.96561 0.87928 0.50926 0.04000
H 	H 	0.92389 0.78463 0.51364 0.04700
C 	C 	0.90389 0.01443 0.43991 -0.02100
C 	C 	0.86196 0.00100 0.46073 -0.01600
C 	C 	0.83896 0.02884 0.46008 -0.05200
C 	C 	0.85754 0.07017 0.43861 0.02700
C 	C 	0.89783 0.08226 0.41662 -0.05100
C 	C 	0.92088 0.05447 0.41718 -0.01600
C 	C 	0.83785 0.10247 0.44129 -0.01400
C 	C 	0.82071 0.12888 0.44405 -0.02400
C 	C 	0.80009 0.16017 0.44897 0.04300
C 	C 	0.80213 0.19027 0.42098 -0.07100
C 	C 	0.78258 0.22106 0.42626 0.02100
C 	C 	0.76086 0.22184 0.45960 -0.09700
C 	C 	0.75918 0.19173 0.48758 0.01800
C 	C 	0.77866 0.16108 0.48223 -0.07300
H 	H 	0.84843 0.97028 0.47839 0.04100
H 	H 	0.80764 0.01912 0.47704 0.04500
H 	H 	0.91213 0.11389 0.39972 0.04600
H 	H 	0.95254 0.06466 0.40047 0.04100
H 	H 	0.81875 0.18983 0.39519 0.05300
H 	H 	0.78385 0.24378 0.40431 0.04100
H 	H 	0.74313 0.19235 0.51363 0.01600
H 	H 	0.77723 0.13814 0.50406 0.04800
C 	C 	0.46340 0.23044 0.45758 -0.08800
C 	C 	0.42779 0.21693 0.42273 0.01700
C 	C 	0.37179 0.18898 0.42207 -0.07000
C 	C 	0.35095 0.17427 0.45615 0.04200
C 	C 	0.38623 0.18743 0.49090 -0.06900
C 	C 	0.44224 0.21540 0.49168 0.01800
C 	C 	0.29326 0.14524 0.45541 -0.02300
C 	C 	0.24502 0.12093 0.45508 -0.01400
C 	C 	0.18743 0.09143 0.45493 0.02700
C 	C 	0.16329 0.05427 0.47966 -0.05200
C 	C 	0.10713 0.02444 0.47884 -0.01400
C 	C 	0.07462 0.03156 0.45319 -0.02200
C 	C 	0.09909 0.06941 0.42880 -0.01600
C 	C 	0.15532 0.09920 0.42967 -0.05200
H 	H 	0.44342 0.22782 0.39615 0.02900
H 	H 	0.34467 0.17873 0.39505 0.05000
H 	H 	0.37033 0.17612 0.51736 0.05200
H 	H 	0.46918 0.22589 0.51885 0.04000
H 	H 	0.18796 0.04827 0.49939 0.04600
H 	H 	0.08893 0.99588 0.49816 0.03900
H 	H 	0.07450 0.07513 0.40875 0.04000
H 	H 	0.17378 0.12794 0.41050 0.04600
C 	C 	0.74612 0.50914 0.97135 -0.09000
C 	C 	0.79869 0.53987 0.96246 0.02000
C 	C 	0.82565 0.59470 0.96242 -0.07100
C 	C 	0.80011 0.61897 0.97106 0.04300
C 	C 	0.74689 0.58795 0.97844 -0.07100
C 	C 	0.71994 0.53324 0.97859 0.02200
C 	C 	0.82976 0.67622 0.97503 -0.02200
C 	C 	0.85433 0.72416 0.97841 -0.01500
C 	C 	0.88424 0.78153 0.98331 0.03300
C 	C 	0.86214 0.80389 0.96379 -0.05300
C 	C 	0.89155 0.85973 0.96843 -0.01600
C 	C 	0.94330 0.89350 0.99263 -0.01900
C 	C 	0.96481 0.87084 0.01266 -0.01800
C 	C 	0.93538 0.81509 0.00796 -0.05800
H 	H 	0.81924 0.52170 0.95671 0.03100
H 	H 	0.86678 0.61848 0.95653 0.05100
H 	H 	0.72678 0.60642 0.98486 0.05100
H 	H 	0.67897 0.50973 0.98475 0.03500
H 	H 	0.82243 0.77809 0.94484 0.04700
H 	H 	0.87460 0.87668 0.95266 0.04200
H 	H 	0.00440 0.89643 0.03178 0.03800
H 	H 	0.95245 0.79800 0.02339 0.04600
C 	C 	0.76910 0.22427 0.99146 -0.08700
C 	C 	0.82193 0.25146 0.98294 0.01200
C 	C 	0.85084 0.22975 0.98724 -0.06100
C 	C 	0.82736 0.18091 0.00022 0.03200
C 	C 	0.77557 0.15468 0.01012 -0.06600
C 	C 	0.74652 0.17625 0.00583 0.00800
C 	C 	0.85510 0.15628 0.00132 -0.02200
C 	C 	0.87838 0.13570 0.00224 -0.01700
C 	C 	0.90579 0.11072 0.00278 0.02400
C 	C 	0.88617 0.06571 0.02032 -0.05400
C 	C 	0.91139 0.04004 0.01947 -0.01200
C 	C 	0.95646 0.05924 0.00097 -0.03700
C 	C 	0.97629 0.10467 0.98368 -0.00600
C 	C 	0.95100 0.13026 0.98459 -0.05000
H 	H 	0.84033 0.28901 0.97253 0.03300
H 	H 	0.89109 0.25045 0.97984 0.04800
H 	H 	0.75732 0.11702 0.02039 0.04900
H 	H 	0.70596 0.15488 0.01269 0.03800
H 	H 	0.85123 0.05043 0.03445 0.04600
H 	H 	0.89605 0.00544 0.03332 0.03900
H 	H 	0.01078 0.11970 0.96909 0.03800
H 	H 	0.96626 0.16497 0.97086 0.04600
C 	C 	0.50075 0.22981 0.99322 -0.08800
C 	C 	0.47274 0.19080 0.01623 0.01800
C 	C 	0.41782 0.16753 0.01688 -0.07600
C 	C 	0.39044 0.18287 0.99449 0.05200
C 	C 	0.41775 0.22062 0.97068 -0.07200
C 	C 	0.47270 0.24400 0.96998 0.01900
C 	C 	0.33464 0.16060 0.99655 -0.02800
C 	C 	0.28790 0.14154 0.99863 -0.00300
C 	C 	0.23202 0.11789 0.00144 0.01300
C 	C 	0.20322 0.13292 0.98043 -0.04400
C 	C 	0.14788 0.10738 0.98129 -0.01200
C 	C 	0.12105 0.06646 0.00305 -0.02700
C 	C 	0.15053 0.05273 0.02500 -0.01700
C 	C 	0.20579 0.07835 0.02416 -0.04800
H 	H 	0.49386 0.17961 0.03442 0.04000
H 	H 	0.39679 0.13815 0.03523 0.05300
H 	H 	0.39662 0.23229 0.95303 0.05200
H 	H 	0.49355 0.27347 0.95168 0.03300
H 	H 	0.22339 0.16369 0.96294 0.04400
H 	H 	0.12556 0.11828 0.96419 0.04000
H 	H 	0.13044 0.02171 0.04231 0.03900
H 	H 	0.22798 0.06687 0.04072 0.04400
