data_crystal

_cell_length_a 22.28558
_cell_length_b 20.31869
_cell_length_c 44.67524
_cell_angle_alpha 89.84295
_cell_angle_beta  89.84562
_cell_angle_gamma 119.51235

_symmetry_space_group_name_	'P 1'
_symmetry_space_group_name_H-M	'P 1'

loop_
_symmetry_equiv_pos_as_xyz
  x,y,z

loop_
_atom_site_label
_atom_site_type_symbol
_atom_site_fract_x
_atom_site_fract_y
_atom_site_fract_z
_atom_site_charge
C 	C 	0.60338 0.26433 0.86883 0.28500
C 	C 	0.80326 0.51938 0.93738 0.30100
C 	C 	0.77170 0.41954 0.84193 0.31600
C 	C 	0.62546 0.36212 0.95970 0.29700
C 	C 	0.87801 0.39047 0.91719 0.30700
C 	C 	0.69798 0.19208 0.93448 0.30300
Ni	Ni	0.69238 0.41491 0.89727 1.11400
Ni	Ni	0.75408 0.35650 0.95132 1.12300
Ni	Ni	0.75037 0.30043 0.88354 1.12100
O 	O 	0.60386 0.32345 0.88164 -0.36600
O 	O 	0.66148 0.26719 0.85875 -0.37000
O 	O 	0.85429 0.39828 0.94296 -0.38100
O 	O 	0.78805 0.50152 0.90924 -0.37900
O 	O 	0.77743 0.46653 0.95837 -0.36400
O 	O 	0.70701 0.20075 0.90508 -0.37700
O 	O 	0.72110 0.42870 0.85193 -0.36500
O 	O 	0.80339 0.39785 0.86044 -0.38800
O 	O 	0.73679 0.24769 0.95345 -0.36600
O 	O 	0.65001 0.41689 0.93914 -0.36500
O 	O 	0.65871 0.32533 0.96680 -0.37500
O 	O 	0.84275 0.32799 0.90162 -0.37000
O 	O 	0.71743 0.34427 0.91181 -0.71600
H 	H 	0.67202 0.30031 0.91619 0.15400
C 	C 	0.75599 0.40545 0.52932 0.30700
C 	C 	0.52131 0.15398 0.58357 0.33600
C 	C 	0.57585 0.38630 0.54319 0.32600
C 	C 	0.69880 0.19481 0.57817 0.28200
C 	C 	0.59631 0.37234 0.63722 0.31200
C 	C 	0.77934 0.40950 0.63004 0.29200
Ni	Ni	0.62369 0.26997 0.54632 1.11400
Ni	Ni	0.64211 0.26700 0.61865 1.12500
Ni	Ni	0.69068 0.42467 0.58521 1.12200
O 	O 	0.71379 0.33394 0.52287 -0.37100
O 	O 	0.73358 0.44746 0.54303 -0.37300
O 	O 	0.57562 0.30153 0.63052 -0.37500
O 	O 	0.53119 0.21273 0.56838 -0.38400
O 	O 	0.55976 0.16436 0.60716 -0.36100
O 	O 	0.77844 0.44249 0.60445 -0.38500
O 	O 	0.59195 0.34246 0.52744 -0.36300
O 	O 	0.59767 0.40523 0.57062 -0.38000
O 	O 	0.72210 0.35170 0.64148 -0.37200
O 	O 	0.65165 0.18704 0.55778 -0.35900
O 	O 	0.70027 0.22170 0.60545 -0.37000
O 	O 	0.65488 0.42722 0.62659 -0.37800
O 	O 	0.66701 0.32158 0.58148 -0.71200
H 	H 	0.71340 0.32820 0.57832 0.15500
C 	C 	0.13331 0.10172 0.81016 0.28900
C 	C 	0.97941 0.88027 0.71876 0.31600
C 	C 	0.17728 0.11542 0.73909 0.31100
C 	C 	0.92525 0.88285 0.79969 0.28900
C 	C 	0.97403 0.08880 0.70069 0.31000
C 	C 	0.92474 0.11358 0.77041 0.29300
Ni	Ni	0.06317 0.97450 0.76841 1.10800
Ni	Ni	0.92153 0.97054 0.74736 1.12000
Ni	Ni	0.05978 0.13103 0.75705 1.12200
O 	O 	0.08985 0.02852 0.80895 -0.37400
O 	O 	0.12363 0.15156 0.79392 -0.36300
O 	O 	0.95181 0.01693 0.70658 -0.37800
O 	O 	0.04106 0.93454 0.72525 -0.38300
O 	O 	0.92515 0.87821 0.73146 -0.36600
O 	O 	0.98789 0.13952 0.78096 -0.37800
O 	O 	0.16298 0.05479 0.75484 -0.37000
O 	O 	0.12775 0.12562 0.72893 -0.38100
O 	O 	0.88736 0.04274 0.76063 -0.36800
O 	O 	0.97576 0.87933 0.78540 -0.36300
O 	O 	0.88985 0.91167 0.78651 -0.36400
O 	O 	0.01316 0.14241 0.71986 -0.37800
O 	O 	0.01170 0.02527 0.76437 -0.71400
H 	H 	0.99788 0.02676 0.78522 0.16800
C 	C 	0.25124 0.78521 0.44267 0.28200
C 	C 	0.32560 0.55504 0.48236 0.30900
C 	C 	0.42130 0.80590 0.46325 0.31100
C 	C 	0.14920 0.54482 0.46962 0.28600
C 	C 	0.38885 0.63289 0.39308 0.31200
C 	C 	0.21355 0.61111 0.37432 0.29300
Ni	Ni	0.28790 0.67925 0.47846 1.11200
Ni	Ni	0.25721 0.55634 0.42619 1.12400
Ni	Ni	0.33441 0.73192 0.40941 1.12400
O 	O 	0.27803 0.77556 0.46805 -0.36100
O 	O 	0.27299 0.77730 0.41589 -0.36800
O 	O 	0.32476 0.57715 0.39240 -0.37600
O 	O 	0.29643 0.58880 0.49661 -0.36500
O 	O 	0.33001 0.55719 0.45316 -0.38000
O 	O 	0.27760 0.67021 0.37355 -0.36800
O 	O 	0.39311 0.73756 0.47378 -0.38400
O 	O 	0.40184 0.81712 0.43684 -0.36700
O 	O 	0.19272 0.55967 0.39605 -0.38200
O 	O 	0.18305 0.61036 0.48351 -0.37100
O 	O 	0.18201 0.51034 0.45861 -0.37200
O 	O 	0.40400 0.69744 0.40567 -0.38100
O 	O 	0.27774 0.65523 0.43763 -0.71300
H 	H 	0.23282 0.65182 0.43380 0.15600
C 	C 	0.42536 0.54554 0.04125 0.31400
C 	C 	0.23954 0.65594 0.09043 0.31600
C 	C 	0.23692 0.45938 0.04060 0.31000
C 	C 	0.43094 0.75026 0.08989 0.28700
C 	C 	0.24124 0.63575 0.98840 0.32700
C 	C 	0.43674 0.76061 0.99316 0.28800
Ni	Ni	0.33099 0.58791 0.07866 1.11800
Ni	Ni	0.33084 0.72400 0.03963 1.12000
Ni	Ni	0.34207 0.59249 0.00608 1.12100
O 	O 	0.38473 0.53145 0.06518 -0.36000
O 	O 	0.42720 0.58989 0.01914 -0.38600
O 	O 	0.27659 0.70342 0.00061 -0.37700
O 	O 	0.27631 0.62909 0.10284 -0.35700
O 	O 	0.24051 0.66403 0.06143 -0.38400
O 	O 	0.39643 0.69135 0.98192 -0.37700
O 	O 	0.23901 0.50414 0.06200 -0.37000
O 	O 	0.28774 0.48267 0.02097 -0.37000
O 	O 	0.41795 0.78556 0.01674 -0.38500
O 	O 	0.41556 0.68009 0.09670 -0.35800
O 	O 	0.38346 0.76615 0.07923 -0.36500
O 	O 	0.24990 0.57995 0.99715 -0.39600
O 	O 	0.35140 0.64376 0.04253 -0.71300
H 	H 	0.40205 0.67308 0.04333 0.15700
C 	C 	0.81451 0.89352 0.27975 0.29700
C 	C 	0.03149 0.12028 0.19920 0.30700
C 	C 	0.84957 0.90045 0.19946 0.31500
C 	C 	0.01197 0.15471 0.27911 0.29100
C 	C 	0.05137 0.92384 0.21438 0.30100
C 	C 	0.03556 0.93982 0.29972 0.28200
Ni	Ni	0.91105 0.03236 0.23982 1.12000
Ni	Ni	0.06192 0.05050 0.25135 1.12200
Ni	Ni	0.92921 0.88592 0.25033 1.12400
O 	O 	0.82044 0.94687 0.26042 -0.36100
O 	O 	0.86402 0.87609 0.28348 -0.37900
O 	O 	0.08751 0.97485 0.23478 -0.38200
O 	O 	0.98651 0.12524 0.21658 -0.36100
O 	O 	0.06378 0.08444 0.20829 -0.37400
O 	O 	0.00018 0.88650 0.27941 -0.37700
O 	O 	0.89060 0.97333 0.20026 -0.37600
O 	O 	0.84769 0.85784 0.22212 -0.37600
O 	O 	0.06783 0.01308 0.29249 -0.36700
O 	O 	0.94644 0.10175 0.27681 -0.35700
O 	O 	0.06352 0.14642 0.26761 -0.36600
O 	O 	0.98407 0.89243 0.21401 -0.37800
O 	O 	0.96434 0.99164 0.25409 -0.72100
H 	H 	0.95878 0.99513 0.27581 0.16800
C 	C 	0.13889 0.24433 0.13513 -0.04400
C 	C 	0.08853 0.22511 0.11254 0.03300
C 	C 	0.01921 0.17383 0.11924 -0.07400
C 	C 	0.99934 0.14748 0.14859 0.05200
C 	C 	0.05017 0.16028 0.17012 -0.08800
C 	C 	0.11979 0.20883 0.16319 0.02300
C 	C 	0.10731 0.26349 0.08275 0.01700
C 	C 	0.16029 0.26283 0.06578 -0.05300
C 	C 	0.19880 0.32208 0.04559 0.02500
C 	C 	0.18176 0.37977 0.04164 -0.08000
C 	C 	0.11653 0.36574 0.05125 0.01300
C 	C 	0.08174 0.31178 0.07366 -0.03300
C 	C 	0.25723 0.32520 0.03030 0.08700
C 	C 	0.02465 0.31169 0.08910 0.08600
C 	C 	0.20944 0.30287 0.13021 0.09600
C 	C 	0.92766 0.11474 0.15704 0.08200
N 	N 	0.30399 0.32748 0.01801 -0.10900
N 	N 	0.97897 0.31173 0.10146 -0.10200
N 	N 	0.87023 0.08908 0.16377 -0.10600
N 	N 	0.26591 0.34979 0.12627 -0.11400
H 	H 	0.15892 0.22085 0.17998 0.04100
H 	H 	0.98026 0.15836 0.10207 0.06900
H 	H 	0.17586 0.22101 0.07051 0.05800
H 	H 	0.09917 0.40547 0.04535 0.04800
C 	C 	0.61543 0.82222 0.09311 -0.03800
C 	C 	0.62806 0.85162 0.12246 0.02300
C 	C 	0.58236 0.87250 0.13544 -0.05400
C 	C 	0.51875 0.85127 0.12184 0.02900
C 	C 	0.50182 0.81065 0.09482 -0.07700
C 	C 	0.55393 0.80620 0.07885 0.01100
C 	C 	0.68526 0.85459 0.14059 0.02400
C 	C 	0.75362 0.90015 0.13105 -0.05500
C 	C 	0.80792 0.90347 0.14782 0.03200
C 	C 	0.79492 0.86976 0.17652 -0.08000
C 	C 	0.72653 0.82024 0.18524 0.01500
C 	C 	0.67168 0.81113 0.16709 -0.03900
C 	C 	0.87660 0.94023 0.13519 0.09000
C 	C 	0.60187 0.75712 0.17576 0.09700
C 	C 	0.66215 0.80224 0.07853 0.09100
C 	C 	0.46909 0.86600 0.13680 0.08500
N 	N 	0.93152 0.96967 0.12495 -0.10200
N 	N 	0.54593 0.71388 0.18269 -0.10500
N 	N 	0.42920 0.87773 0.14877 -0.09900
N 	N 	0.69953 0.78619 0.06684 -0.11100
H 	H 	0.54232 0.77914 0.05711 0.03300
H 	H 	0.59415 0.90024 0.15705 0.05900
H 	H 	0.76446 0.93215 0.11035 0.05800
H 	H 	0.71588 0.79165 0.20675 0.04800
C 	C 	0.17888 0.86299 0.18890 -0.03600
C 	C 	0.14545 0.81905 0.16362 0.01900
C 	C 	0.08348 0.81311 0.15389 -0.05400
C 	C 	0.05316 0.84876 0.16947 0.01500
C 	C 	0.08548 0.89158 0.19549 -0.07400
C 	C 	0.14905 0.89928 0.20461 0.00900
C 	C 	0.17520 0.77954 0.14679 0.02800
C 	C 	0.15113 0.70260 0.15248 -0.06000
C 	C 	0.17038 0.66093 0.13377 0.03500
C 	C 	0.21454 0.69671 0.10919 -0.08900
C 	C 	0.23945 0.77397 0.10384 0.02500
C 	C 	0.22036 0.81554 0.12257 -0.04200
C 	C 	0.14262 0.58100 0.13927 0.07900
C 	C 	0.24703 0.89515 0.11674 0.09800
C 	C 	0.24364 0.87082 0.19892 0.09600
C 	C 	0.98829 0.83937 0.15885 0.09900
N 	N 	0.12039 0.51697 0.14365 -0.10300
N 	N 	0.26837 0.95892 0.11210 -0.11200
N 	N 	0.93601 0.83087 0.15028 -0.10300
N 	N 	0.29553 0.87707 0.20692 -0.10500
H 	H 	0.17446 0.93193 0.22437 0.05000
H 	H 	0.05846 0.77999 0.13414 0.05400
H 	H 	0.11589 0.67480 0.17100 0.05700
H 	H 	0.27441 0.80188 0.08524 0.02500
C 	C 	0.65575 0.71379 0.30294 -0.03900
C 	C 	0.62224 0.74165 0.32149 0.02400
C 	C 	0.65010 0.81995 0.32501 -0.05800
C 	C 	0.71223 0.87053 0.31093 0.03000
C 	C 	0.74655 0.84255 0.29289 -0.07700
C 	C 	0.71729 0.76430 0.28853 0.01500
C 	C 	0.55924 0.68953 0.33824 0.02400
C 	C 	0.56418 0.67703 0.36879 -0.05800
C 	C 	0.50525 0.64660 0.38693 0.03000
C 	C 	0.44123 0.62930 0.37442 -0.08200
C 	C 	0.43478 0.62945 0.34323 0.01500
C 	C 	0.49374 0.66107 0.32506 -0.03800
C 	C 	0.51113 0.63636 0.41860 0.08300
C 	C 	0.48700 0.66775 0.29321 0.09900
C 	C 	0.62765 0.63343 0.29884 0.09600
C 	C 	0.74148 0.95076 0.31590 0.07500
N 	N 	0.51572 0.62809 0.44396 -0.10300
N 	N 	0.48165 0.67313 0.26768 -0.10500
N 	N 	0.76493 0.01503 0.31988 -0.09600
N 	N 	0.60510 0.56904 0.29557 -0.10900
H 	H 	0.74309 0.74280 0.27421 0.04000
H 	H 	0.62392 0.84130 0.33916 0.05800
H 	H 	0.61432 0.69521 0.37867 0.05900
H 	H 	0.38464 0.61129 0.33339 0.05000
C 	C 	0.09854 0.34061 0.31993 -0.04200
C 	C 	0.07269 0.38197 0.30440 0.02700
C 	C 	0.02293 0.34661 0.28216 -0.06700
C 	C 	0.99983 0.27097 0.27476 0.04500
C 	C 	0.02778 0.23037 0.28946 -0.08100
C 	C 	0.07643 0.26540 0.31219 0.01700
C 	C 	0.09743 0.46227 0.31161 0.02300
C 	C 	0.16404 0.51699 0.30264 -0.05600
C 	C 	0.20104 0.58215 0.31992 0.02800
C 	C 	0.17189 0.58979 0.34683 -0.07100
C 	C 	0.09996 0.54743 0.35015 0.01600
C 	C 	0.06268 0.48162 0.33325 -0.04500
C 	C 	0.26891 0.63941 0.31044 0.08700
C 	C 	0.99077 0.43130 0.33991 0.10400
C 	C 	0.14781 0.37510 0.34382 0.09700
C 	C 	0.94824 0.23596 0.25177 0.07900
N 	N 	0.32327 0.68543 0.30276 -0.10500
N 	N 	0.93312 0.39093 0.34524 -0.11000
N 	N 	0.90683 0.20812 0.23337 -0.10800
N 	N 	0.18728 0.40284 0.36295 -0.12000
H 	H 	0.09759 0.23427 0.32364 0.04400
H 	H 	0.00233 0.37809 0.27056 0.06000
H 	H 	0.18891 0.50574 0.28400 0.05800
H 	H 	0.07523 0.55876 0.36884 0.04100
C 	C 	0.09516 0.79038 0.42211 -0.03300
C 	C 	0.12711 0.86285 0.40872 0.01900
C 	C 	0.19342 0.91672 0.41801 -0.05500
C 	C 	0.23212 0.89473 0.43598 0.02500
C 	C 	0.20521 0.81788 0.44364 -0.07100
C 	C 	0.13430 0.76858 0.43993 0.00500
C 	C 	0.09815 0.87749 0.38113 0.02400
C 	C 	0.06995 0.92584 0.38223 -0.05900
C 	C 	0.04815 0.94561 0.35588 0.02800
C 	C 	0.05467 0.91683 0.32804 -0.07200
C 	C 	0.08153 0.86722 0.32708 0.01100
C 	C 	0.10366 0.84787 0.35332 -0.03900
C 	C 	0.01825 0.99446 0.35766 0.06300
C 	C 	0.13355 0.79898 0.35146 0.09400
C 	C 	0.02383 0.73674 0.41611 0.08100
C 	C 	0.30137 0.95001 0.44434 0.08100
N 	N 	0.99430 0.03360 0.35905 -0.09300
N 	N 	0.15748 0.75982 0.35001 -0.11200
N 	N 	0.35684 0.99464 0.45101 -0.11300
N 	N 	0.96666 0.69372 0.41129 -0.10600
H 	H 	0.11169 0.71063 0.44781 0.03500
H 	H 	0.21671 0.97414 0.40945 0.05400
H 	H 	0.06564 0.94868 0.40354 0.05500
H 	H 	0.08674 0.84507 0.30575 0.04700
C 	C 	0.47460 0.97798 0.52823 0.00800
C 	C 	0.47741 0.99597 0.49776 -0.05600
C 	C 	0.46705 0.94205 0.47605 0.02400
C 	C 	0.49841 0.08552 0.56708 -0.11200
C 	C 	0.45682 0.85413 0.51524 0.00900
C 	C 	0.46645 0.90788 0.53689 -0.04900
C 	C 	0.48540 0.03394 0.55034 0.06600
C 	C 	0.45283 0.86925 0.48471 -0.08700
H 	H 	0.48669 0.05143 0.49090 0.05800
H 	H 	0.46740 0.95597 0.45261 0.04800
H 	H 	0.44920 0.79948 0.52230 0.03700
H 	H 	0.46662 0.89454 0.56038 0.05700
C 	C 	0.94604 0.47303 0.49544 0.01100
C 	C 	0.98130 0.43939 0.50867 -0.03900
C 	C 	0.04513 0.45404 0.49725 0.00600
C 	C 	0.82460 0.43930 0.51771 -0.09600
C 	C 	0.03559 0.53028 0.45774 0.00200
C 	C 	0.97189 0.51596 0.46924 -0.03800
C 	C 	0.88076 0.45818 0.50749 0.05000
C 	C 	0.07438 0.50323 0.47281 -0.07100
H 	H 	0.96009 0.40342 0.52823 0.05200
H 	H 	0.07420 0.43198 0.50881 0.04700
H 	H 	0.05716 0.56707 0.43842 0.03400
H 	H 	0.94354 0.53965 0.45819 0.05600
C 	C 	0.44376 0.45972 0.51611 0.02200
C 	C 	0.45960 0.53285 0.52479 -0.05000
C 	C 	0.41664 0.56191 0.51636 0.02200
C 	C 	0.52875 0.40903 0.53140 -0.08800
C 	C 	0.33984 0.44325 0.49205 0.02000
C 	C 	0.38280 0.41430 0.50046 -0.05200
C 	C 	0.48970 0.43111 0.52375 0.05100
C 	C 	0.35771 0.51809 0.49909 -0.08000
H 	H 	0.50597 0.56785 0.53744 0.05800
H 	H 	0.43127 0.61983 0.52179 0.04000
H 	H 	0.29444 0.40882 0.47875 0.03500
H 	H 	0.36940 0.35720 0.49420 0.05600
C 	C 	0.86012 0.18894 0.57852 -0.03700
C 	C 	0.83950 0.12700 0.59823 0.02200
C 	C 	0.76924 0.07305 0.60040 -0.05100
C 	C 	0.71960 0.08745 0.58741 0.02300
C 	C 	0.74032 0.15766 0.57334 -0.06900
C 	C 	0.81019 0.20350 0.56585 0.00600
C 	C 	0.88810 0.12668 0.62097 0.02600
C 	C 	0.91198 0.18121 0.64369 -0.05400
C 	C 	0.94658 0.17411 0.66860 0.02700
C 	C 	0.95524 0.10972 0.67150 -0.07300
C 	C 	0.93731 0.05937 0.64728 0.01500
C 	C 	0.90383 0.06750 0.62214 -0.04000
C 	C 	0.97248 0.23301 0.69090 0.08500
C 	C 	0.88542 0.01459 0.59776 0.10500
C 	C 	0.93223 0.23949 0.57232 0.09000
C 	C 	0.64734 0.03387 0.59160 0.09300
N 	N 	0.99319 0.28038 0.70869 -0.10500
N 	N 	0.87063 0.97219 0.57821 -0.11500
N 	N 	0.58945 0.99091 0.59504 -0.11400
N 	N 	0.99003 0.28003 0.56734 -0.11300
H 	H 	0.82628 0.25514 0.55313 0.03700
H 	H 	0.75303 0.02289 0.61410 0.06000
H 	H 	0.90163 0.22804 0.64244 0.05700
H 	H 	0.94768 0.01258 0.64837 0.05800
C 	C 	0.51393 0.34735 0.71072 -0.03800
C 	C 	0.44931 0.33556 0.70091 0.02300
C 	C 	0.44492 0.36566 0.67325 -0.05700
C 	C 	0.50024 0.39282 0.65311 0.03000
C 	C 	0.55939 0.38835 0.66061 -0.08000
C 	C 	0.56904 0.37413 0.69043 0.01500
C 	C 	0.38496 0.27902 0.71578 0.02700
C 	C 	0.34172 0.30280 0.72882 -0.06000
C 	C 	0.27364 0.25013 0.73636 0.03000
C 	C 	0.24956 0.17193 0.73254 -0.08800
C 	C 	0.29442 0.14793 0.72145 0.02200
C 	C 	0.36120 0.20091 0.71227 -0.03800
C 	C 	0.22843 0.27706 0.74714 0.06000
C 	C 	0.40381 0.17489 0.69786 0.10400
C 	C 	0.52277 0.32752 0.74080 0.10000
C 	C 	0.49456 0.42130 0.62425 0.08100
N 	N 	0.19236 0.29887 0.75572 -0.12200
N 	N 	0.43799 0.15415 0.68631 -0.10700
N 	N 	0.48983 0.44428 0.60116 -0.10400
N 	N 	0.53028 0.31176 0.76487 -0.11000
H 	H 	0.61678 0.37609 0.69691 0.04600
H 	H 	0.39664 0.36195 0.66647 0.05700
H 	H 	0.35995 0.36277 0.73152 0.05800
H 	H 	0.27630 0.08800 0.71870 0.04900
C 	C 	0.98994 0.70181 0.71107 -0.02100
C 	C 	0.94716 0.66786 0.68619 0.02000
C 	C 	0.91934 0.70671 0.67062 -0.05100
C 	C 	0.93145 0.77754 0.68043 0.02700
C 	C 	0.97232 0.81034 0.70592 -0.07200
C 	C 	0.00261 0.77298 0.72071 0.00100
C 	C 	0.92517 0.58881 0.67801 0.02400
C 	C 	0.87163 0.53011 0.69430 -0.05700
C 	C 	0.82950 0.46056 0.68054 0.02600
C 	C 	0.83946 0.45165 0.64985 -0.07500
C 	C 	0.90290 0.50288 0.63661 0.00900
C 	C 	0.94537 0.57240 0.65039 -0.03200
C 	C 	0.77714 0.39904 0.69799 0.08300
C 	C 	0.00706 0.62824 0.63534 0.08400
C 	C 	0.01997 0.66338 0.72713 0.08300
C 	C 	0.90166 0.81608 0.66426 0.07900
N 	N 	0.73523 0.34978 0.71202 -0.11000
N 	N 	0.05651 0.67305 0.62328 -0.11200
N 	N 	0.87774 0.84689 0.65131 -0.10800
N 	N 	0.04393 0.63251 0.74000 -0.11000
H 	H 	0.03422 0.79831 0.74032 0.03500
H 	H 	0.88663 0.68065 0.65137 0.05600
H 	H 	0.85985 0.54034 0.71682 0.06000
H 	H 	0.91498 0.49258 0.61417 0.04500
C 	C 	0.08495 0.54572 0.92919 0.02400
C 	C 	0.04068 0.57176 0.91939 -0.06200
C 	C 	0.97459 0.52002 0.90913 0.02700
C 	C 	0.18856 0.61958 0.96656 -0.09600
C 	C 	0.99911 0.41750 0.91579 0.03100
C 	C 	0.06596 0.46939 0.92505 -0.06200
C 	C 	0.14198 0.59149 0.94874 0.04500
C 	C 	0.95122 0.44191 0.91049 -0.07600
H 	H 	0.05560 0.63100 0.92144 0.05600
H 	H 	0.93915 0.53991 0.90317 0.04100
H 	H 	0.98266 0.35765 0.91578 0.04500
H 	H 	0.10084 0.44911 0.93155 0.05600
C 	C 	0.58365 0.96901 0.95810 0.01200
C 	C 	0.52161 0.92640 0.94263 -0.04900
C 	C 	0.47695 0.85090 0.95072 0.01300
C 	C 	0.65952 0.11555 0.94558 -0.08100
C 	C 	0.55934 0.85802 0.98759 0.01300
C 	C 	0.60393 0.93361 0.97958 -0.04900
C 	C 	0.62572 0.04923 0.95212 0.05300
C 	C 	0.49330 0.81815 0.97484 -0.07300
H 	H 	0.50656 0.95257 0.92523 0.05200
H 	H 	0.42683 0.82044 0.94022 0.04200
H 	H 	0.57359 0.83274 0.00561 0.03400
H 	H 	0.65292 0.96522 0.99091 0.05300
C 	C 	0.49868 0.40755 0.01559 0.02100
C 	C 	0.47317 0.37254 0.98794 -0.04800
C 	C 	0.51142 0.34928 0.97057 0.01600
C 	C 	0.45294 0.49662 0.03545 -0.08800
C 	C 	0.59537 0.38545 0.01037 0.02100
C 	C 	0.55760 0.40976 0.02755 -0.04900
C 	C 	0.47413 0.45515 0.02777 0.05300
C 	C 	0.57479 0.36008 0.98101 -0.07100
H 	H 	0.42673 0.36917 0.97881 0.05800
H 	H 	0.49427 0.32797 0.94819 0.03800
H 	H 	0.64374 0.39263 0.01885 0.04300
H 	H 	0.57694 0.43541 0.04918 0.05700
C 	C 	0.74659 0.29281 0.78253 -0.03900
C 	C 	0.81724 0.32106 0.77605 0.02300
C 	C 	0.86251 0.39920 0.77892 -0.05600
C 	C 	0.84243 0.44277 0.79620 0.03000
C 	C 	0.77676 0.40753 0.80977 -0.08600
C 	C 	0.72624 0.33901 0.79766 0.01100
C 	C 	0.84599 0.26870 0.77430 0.02100
C 	C 	0.82910 0.21908 0.75004 -0.05200
C 	C 	0.84939 0.16376 0.74969 0.02600
C 	C 	0.89211 0.16184 0.77274 -0.07000
C 	C 	0.90920 0.21179 0.79689 0.01100
C 	C 	0.88619 0.26458 0.79794 -0.03700
C 	C 	0.82430 0.10810 0.72612 0.08200
C 	C 	0.90514 0.31520 0.82315 0.08500
C 	C 	0.69599 0.21560 0.77584 0.09400
C 	C 	0.89143 0.52067 0.80260 0.08100
N 	N 	0.80383 0.06343 0.70727 -0.10900
N 	N 	0.92072 0.35601 0.84326 -0.10900
N 	N 	0.93072 0.58317 0.80774 -0.10200
N 	N 	0.65536 0.15371 0.77049 -0.11000
H 	H 	0.67263 0.31694 0.80383 0.05300
H 	H 	0.91531 0.42357 0.77104 0.06200
H 	H 	0.79842 0.22211 0.73183 0.06000
H 	H 	0.94087 0.20982 0.81490 0.05100
C 	C 	0.44476 0.16177 0.82444 -0.03600
C 	C 	0.39760 0.15202 0.84756 0.02300
C 	C 	0.41688 0.15128 0.87738 -0.05700
C 	C 	0.48489 0.17064 0.88413 0.02600
C 	C 	0.53566 0.19979 0.86145 -0.07500
C 	C 	0.51436 0.18796 0.83146 0.01500
C 	C 	0.32921 0.14547 0.84096 0.02100
C 	C 	0.26922 0.08451 0.85291 -0.05600
C 	C 	0.20471 0.07819 0.84762 0.02000
C 	C 	0.19866 0.12745 0.82694 -0.07200
C 	C 	0.25881 0.19247 0.81741 0.00900
C 	C 	0.32401 0.20274 0.82497 -0.03600
C 	C 	0.14550 0.02315 0.86439 0.09200
C 	C 	0.38477 0.27335 0.81748 0.09500
C 	C 	0.42177 0.14249 0.79395 0.10100
C 	C 	0.50385 0.16798 0.91482 0.06700
N 	N 	0.09810 0.97907 0.87782 -0.11300
N 	N 	0.43335 0.33008 0.81151 -0.10900
N 	N 	0.51908 0.16586 0.93940 -0.10800
N 	N 	0.40325 0.12676 0.76952 -0.11100
H 	H 	0.55230 0.20414 0.81367 0.04800
H 	H 	0.37978 0.13837 0.89532 0.05400
H 	H 	0.27289 0.04278 0.86681 0.05500
H 	H 	0.25505 0.23433 0.80374 0.04800
C 	C 	0.92444 0.71224 0.92153 -0.04100
C 	C 	0.87476 0.73300 0.91359 0.02600
C 	C 	0.81100 0.69824 0.92857 -0.05800
C 	C 	0.79155 0.63242 0.94547 0.02400
C 	C 	0.83430 0.59952 0.94542 -0.07900
C 	C 	0.90419 0.64627 0.93846 0.01400
C 	C 	0.88074 0.77138 0.88459 0.02200
C 	C 	0.86317 0.72865 0.85821 -0.05600
C 	C 	0.87350 0.76400 0.83026 0.02800
C 	C 	0.90106 0.84301 0.82853 -0.07400
C 	C 	0.91523 0.88526 0.85497 0.01200
C 	C 	0.90557 0.84990 0.88299 -0.03600
C 	C 	0.85686 0.71897 0.80339 0.08700
C 	C 	0.92297 0.89478 0.90987 0.09800
C 	C 	0.99420 0.75449 0.91032 0.10300
C 	C 	0.72488 0.59460 0.95991 0.07800
N 	N 	0.84365 0.68298 0.78186 -0.10200
N 	N 	0.93694 0.93073 0.93142 -0.10900
N 	N 	0.67143 0.56443 0.97153 -0.10300
N 	N 	0.05011 0.78837 0.90131 -0.11800
H 	H 	0.94044 0.62626 0.94245 0.03700
H 	H 	0.77441 0.71796 0.92476 0.05600
H 	H 	0.84297 0.66798 0.85947 0.05900
H 	H 	0.93655 0.94609 0.85368 0.04300
