data_crystal

_cell_length_a 26.54860
_cell_length_b 27.97635
_cell_length_c 43.66573
_cell_angle_alpha 60.82323
_cell_angle_beta  118.86584
_cell_angle_gamma 133.33914

_symmetry_space_group_name_	'P 1'
_symmetry_space_group_name_H-M	'P 1'

loop_
_symmetry_equiv_pos_as_xyz
  x,y,z

loop_
_atom_site_label
_atom_site_type_symbol
_atom_site_fract_x
_atom_site_fract_y
_atom_site_fract_z
_atom_site_charge
C 	C 	0.30517 0.63941 0.20153 0.12200
N 	N 	0.37664 0.67095 0.21324 -0.13800
C 	C 	0.40501 0.64152 0.21767 0.12500
N 	N 	0.36165 0.57993 0.21072 -0.14000
C 	C 	0.29028 0.54827 0.19870 0.12300
N 	N 	0.26180 0.57800 0.19400 -0.13800
C 	C 	0.28696 0.62996 0.71274 0.12300
N 	N 	0.35906 0.66614 0.72158 -0.13900
C 	C 	0.39033 0.64199 0.72283 0.12500
N 	N 	0.34930 0.58075 0.71594 -0.14000
C 	C 	0.27729 0.54473 0.70641 0.12300
N 	N 	0.24590 0.56957 0.70450 -0.13600
Co	Co	0.04307 0.99465 0.06474 1.19300
Co	Co	0.00204 0.05862 0.08679 1.18500
C 	C 	0.16826 0.02164 0.05787 0.28800
Co	Co	0.04503 0.87382 0.07250 1.17000
O 	O 	0.04946 0.07779 0.05330 -0.47400
C 	C 	0.08016 0.15783 0.13285 0.29100
C 	C 	0.09525 0.84357 0.15272 0.29300
O 	O 	0.02805 0.11825 0.14963 -0.39000
O 	O 	0.07119 0.14932 0.10259 -0.37800
O 	O 	0.11615 0.87916 0.12206 -0.38600
O 	O 	0.04457 0.83634 0.15805 -0.37000
O 	O 	0.02721 0.91903 0.08898 -0.76500
O 	O 	0.12176 0.96636 0.04606 -0.39300
O 	O 	0.14817 0.04125 0.06905 -0.39300
Co	Co	0.06780 0.01225 0.57247 1.18100
Co	Co	0.01625 0.07024 0.59183 1.18600
C 	C 	0.20537 0.03192 0.59281 0.27800
Co	Co	0.07798 0.89466 0.58256 1.16900
O 	O 	0.07262 0.09408 0.56167 -0.46900
C 	C 	0.09035 0.17791 0.62649 0.30500
C 	C 	0.09467 0.84439 0.66197 0.30300
O 	O 	0.09320 0.96230 0.53222 -0.40100
O 	O 	0.02647 0.16078 0.61931 -0.40700
O 	O 	0.09800 0.13894 0.62324 -0.40100
O 	O 	0.06932 0.82557 0.63251 -0.39800
O 	O 	0.08270 0.88252 0.66245 -0.39100
O 	O 	0.03964 0.93148 0.59111 -0.76200
O 	O 	0.18027 0.96752 0.60484 -0.37500
O 	O 	0.17476 0.05246 0.59467 -0.39400
C 	C 	0.06691 0.02799 0.79878 -0.08300
C 	C 	0.07134 0.03612 0.76573 -0.00300
C 	C 	0.99661 0.96570 0.84341 -0.02400
C 	C 	0.02531 0.01349 0.91560 -0.08000
C 	C 	0.02037 0.00613 0.94833 0.00500
H 	H 	0.10786 0.06875 0.81246 0.05100
H 	H 	0.11528 0.08343 0.75392 0.04000
H 	H 	0.06908 0.06071 0.90364 0.05100
H 	H 	0.06118 0.04727 0.96174 0.03000
C 	C 	0.03051 0.00824 0.25712 0.00600
C 	C 	0.03979 0.00963 0.29114 -0.08200
C 	C 	0.98318 0.96094 0.30840 0.05300
C 	C 	0.99055 0.96597 0.34184 -0.01500
C 	C 	0.06916 0.03872 0.44803 0.01100
C 	C 	0.05760 0.03612 0.41385 -0.08900
H 	H 	0.07357 0.04768 0.24329 0.02900
H 	H 	0.09030 0.04959 0.30359 0.04900
H 	H 	0.11246 0.08571 0.45646 0.03200
H 	H 	0.09145 0.08135 0.39592 0.05300
C 	C 	0.22055 0.43542 0.65190 0.00100
C 	C 	0.19145 0.40314 0.62533 -0.05400
C 	C 	0.19708 0.35075 0.63521 0.01500
C 	C 	0.22604 0.32896 0.67124 0.00200
C 	C 	0.24397 0.35434 0.69860 -0.05900
C 	C 	0.24317 0.40991 0.68808 0.02500
S 	S 	0.20831 0.48796 0.64954 0.00800
C 	C 	0.23471 0.48370 0.69388 -0.01900
C 	C 	0.25104 0.43649 0.71189 -0.04700
S 	S 	0.19796 0.25136 0.67697 0.02300
C 	C 	0.15280 0.24379 0.63451 -0.07700
C 	C 	0.15606 0.30302 0.61455 -0.01700
H 	H 	0.16394 0.41677 0.59847 0.04700
H 	H 	0.25569 0.33047 0.72681 0.04800
H 	H 	0.27435 0.42702 0.74055 0.04800
H 	H 	0.12103 0.30657 0.58831 0.04100
C 	C 	0.58067 0.78448 0.70537 0.00100
S 	S 	0.51529 0.76990 0.71308 0.01000
C 	C 	0.46793 0.68537 0.72746 -0.02000
C 	C 	0.50286 0.66576 0.72566 -0.04600
H 	H 	0.62947 0.88829 0.67348 0.04900
C 	C 	0.18771 0.67033 0.72886 0.00100
C 	C 	0.13349 0.67244 0.72471 -0.05300
C 	C 	0.15193 0.73468 0.72223 0.01700
C 	C 	0.22232 0.79331 0.72210 0.00100
C 	C 	0.27348 0.79275 0.72060 -0.05700
C 	C 	0.25583 0.73011 0.72479 0.02600
S 	S 	0.17480 0.61155 0.71897 0.00900
C 	C 	0.25398 0.65852 0.70988 -0.01800
C 	C 	0.29354 0.72334 0.71459 -0.04600
S 	S 	0.21957 0.85964 0.70243 0.03200
C 	C 	0.13197 0.81878 0.69467 -0.07400
C 	C 	0.10141 0.74898 0.70721 -0.01700
H 	H 	0.07838 0.62846 0.72128 0.04800
H 	H 	0.32332 0.83974 0.71395 0.05000
H 	H 	0.34687 0.76429 0.71026 0.05200
H 	H 	0.04467 0.71067 0.69972 0.04400
C 	C 	0.23846 0.38369 0.19795 0.00200
C 	C 	0.21323 0.31675 0.20548 -0.05500
C 	C 	0.20598 0.29700 0.17872 0.01600
C 	C 	0.21873 0.34222 0.14476 -0.00000
C 	C 	0.23249 0.40519 0.13571 -0.05700
C 	C 	0.24465 0.42626 0.16337 0.02500
S 	S 	0.23499 0.41410 0.22075 0.00400
C 	C 	0.24517 0.48414 0.18887 -0.01900
C 	C 	0.24827 0.48269 0.15801 -0.04700
S 	S 	0.17707 0.29670 0.11556 0.03000
C 	C 	0.14546 0.21998 0.14436 -0.07400
C 	C 	0.16503 0.22835 0.17854 -0.02100
H 	H 	0.19759 0.28087 0.23055 0.04600
H 	H 	0.23092 0.43515 0.10808 0.04900
H 	H 	0.25966 0.52400 0.13396 0.04900
H 	H 	0.14163 0.18636 0.20073 0.04200
C 	C 	0.58643 0.71300 0.21998 0.02500
S 	S 	0.53934 0.76202 0.22304 0.01200
C 	C 	0.48277 0.67813 0.22782 -0.02000
C 	C 	0.51639 0.65815 0.22513 -0.04600
H 	H 	0.48802 0.60891 0.22125 0.05200
C 	C 	0.15624 0.72592 0.21050 0.00100
C 	C 	0.15185 0.67186 0.21203 -0.05700
C 	C 	0.21358 0.68549 0.21208 0.02500
C 	C 	0.27585 0.75207 0.20834 0.00100
C 	C 	0.27662 0.80702 0.20114 -0.05400
C 	C 	0.21666 0.79322 0.20347 0.01800
S 	S 	0.08699 0.72793 0.19579 0.02600
C 	C 	0.13013 0.81216 0.18217 -0.07000
C 	C 	0.20202 0.84164 0.18760 -0.02000
S 	S 	0.32768 0.75563 0.19522 0.01200
C 	C 	0.27581 0.67387 0.19502 -0.01900
C 	C 	0.21391 0.64096 0.20522 -0.04700
H 	H 	0.10151 0.62211 0.21120 0.04900
H 	H 	0.32060 0.85853 0.19221 0.05000
H 	H 	0.23934 0.89424 0.17540 0.04800
H 	H 	0.17152 0.58720 0.20814 0.05000
C 	C 	0.34644 0.16893 0.53554 0.00100
C 	C 	0.40140 0.23167 0.51972 -0.05800
C 	C 	0.45450 0.23439 0.51776 0.02500
C 	C 	0.45475 0.17752 0.53338 0.00100
C 	C 	0.40012 0.11487 0.54915 -0.05500
C 	C 	0.34742 0.11210 0.55160 0.01500
S 	S 	0.29689 0.15837 0.55428 0.02100
C 	C 	0.27372 0.08206 0.58243 -0.07200
C 	C 	0.30615 0.06307 0.57768 -0.02400
S 	S 	0.50960 0.19027 0.51758 0.00300
C 	C 	0.53770 0.26909 0.49162 -0.02000
C 	C 	0.50138 0.28636 0.49440 -0.04700
H 	H 	0.40195 0.27606 0.50872 0.04900
H 	H 	0.40068 0.07101 0.56081 0.04400
H 	H 	0.29929 0.01526 0.59206 0.03800
H 	H 	0.51112 0.33553 0.48155 0.05000
C 	C 	0.34741 0.17414 0.02784 0.00000
C 	C 	0.41869 0.23102 0.02959 -0.05800
C 	C 	0.46314 0.22999 0.02165 0.02500
C 	C 	0.43787 0.17218 0.01465 -0.00000
C 	C 	0.36688 0.11572 0.01250 -0.05500
C 	C 	0.32255 0.11590 0.02108 0.01400
S 	S 	0.29564 0.15041 0.05087 0.02700
C 	C 	0.24079 0.06739 0.05277 -0.07800
C 	C 	0.26202 0.05614 0.03463 -0.02000
S 	S 	0.49326 0.19343 0.99529 0.00600
C 	C 	0.55254 0.27556 0.99609 -0.02000
C 	C 	0.52824 0.28831 0.01167 -0.04700
H 	H 	0.43838 0.27470 0.03625 0.04900
H 	H 	0.34786 0.07169 0.00652 0.04500
H 	H 	0.23593 0.00655 0.03207 0.03700
H 	H 	0.55725 0.33691 0.01654 0.05100
O 	O 	0.01630 0.97497 0.11349 -0.57400
C 	C 	0.04921 0.97866 0.51005 0.31800
O 	O 	0.01325 0.05859 0.68770 -0.38500
C 	C 	0.01633 0.98542 0.74664 -0.04300
C 	C 	0.00769 0.96906 0.81300 0.06300
C 	C 	0.98722 0.96275 0.86887 -0.01600
H 	H 	0.47812 0.61377 0.72767 0.05100
O 	O 	0.03518 0.00538 0.52000 -0.40200
C 	C 	0.00825 0.00253 0.70777 0.25500
O 	O 	0.01244 0.97099 0.69524 -0.37100
C 	C 	0.56585 0.72147 0.71291 0.02500
C 	C 	0.62029 0.84054 0.68002 -0.05300
C 	C 	0.62832 0.31376 0.99842 0.12300
C 	C 	0.61069 0.31977 0.48651 0.12400
C 	C 	0.62096 0.71111 0.20478 -0.05700
C 	C 	0.60749 0.77562 0.21890 -0.00000
H 	H 	0.60108 0.66360 0.20240 0.04900
C 	C 	0.02731 0.97985 0.47194 -0.07400
N 	N 	0.64321 0.30025 0.48420 -0.14000
N 	N 	0.65127 0.28453 0.99665 -0.13800
N 	N 	0.67628 0.37518 0.00616 -0.13900
N 	N 	0.64966 0.38240 0.49111 -0.13900
C 	C 	0.59597 0.71507 0.69741 -0.05700
C 	C 	0.64919 0.83368 0.66404 0.01700
H 	H 	0.58661 0.66729 0.70379 0.04900
C 	C 	0.65701 0.83647 0.19922 -0.05300
H 	H 	0.66344 0.88276 0.19284 0.04800
C 	C 	0.63487 0.77095 0.67180 0.00100
C 	C 	0.67769 0.77276 0.18978 -0.00000
C 	C 	0.69246 0.83448 0.18483 0.01600
C 	C 	0.70972 0.88913 0.64930 -0.01600
H 	H 	0.73427 0.94142 0.64652 0.04200
C 	C 	0.71495 0.34182 0.48827 0.12300
C 	C 	0.72198 0.31530 0.00368 0.12200
C 	C 	0.72145 0.42370 0.49601 0.12300
S 	S 	0.70532 0.78301 0.15861 0.02900
C 	C 	0.72614 0.88604 0.15610 -0.01700
S 	S 	0.68962 0.19600 0.00667 0.00600
H 	H 	0.65734 0.21643 0.47921 0.05000
H 	H 	0.74173 0.55000 0.46020 0.04800
H 	H 	0.68653 0.08818 0.00772 0.04600
C 	C 	0.99679 0.97023 0.36983 -0.02600
O 	O 	0.97726 0.96538 0.01612 -0.38700
O 	O 	0.96881 0.94346 0.19187 -0.38300
C 	C 	0.96448 0.95825 0.24017 -0.07800
O 	O 	0.96964 0.87266 0.02506 -0.39400
C 	C 	0.00412 0.97467 0.40345 0.06800
C 	C 	0.74708 0.40660 0.01310 0.12200
N 	N 	0.77019 0.37644 0.01218 -0.13800
N 	N 	0.75431 0.40327 0.49481 -0.13700
Co	Co	0.93363 0.93179 0.14029 1.19000
Co	Co	0.98160 0.87074 0.12106 1.18700
Co	Co	0.92180 0.04925 0.12825 1.16300
C 	C 	0.90333 0.75877 0.08904 0.30500
O 	O 	0.93070 0.11795 0.07818 -0.40100
O 	O 	0.96046 0.01208 0.12038 -0.77800
C 	C 	0.90589 0.09915 0.04883 0.30300
O 	O 	0.93083 0.85017 0.15321 -0.46600
C 	C 	0.79566 0.91121 0.12014 0.29700
C 	C 	0.97530 0.92876 0.00400 0.29400
O 	O 	0.91779 0.06070 0.04869 -0.40000
O 	O 	0.81977 0.97532 0.10649 -0.38400
O 	O 	0.82596 0.88961 0.11904 -0.39200
C 	C 	0.94966 0.96572 0.20175 0.30300
O 	O 	0.90619 0.98245 0.17881 -0.40100
O 	O 	0.96704 0.77646 0.09542 -0.40600
O 	O 	0.89614 0.79795 0.09242 -0.39700
Co	Co	0.95089 0.94365 0.64612 1.18900
Co	Co	0.99808 0.88435 0.62469 1.18700
Co	Co	0.94386 0.06176 0.63804 1.16300
C 	C 	0.91908 0.78920 0.57681 0.29100
O 	O 	0.88008 0.06320 0.58648 -0.39400
O 	O 	0.96598 0.01917 0.62211 -0.77300
C 	C 	0.90761 0.10328 0.55783 0.29300
O 	O 	0.94906 0.86296 0.65811 -0.46800
C 	C 	0.81864 0.91423 0.64638 0.30500
O 	O 	0.98284 0.96737 0.59825 -0.57700
O 	O 	0.95542 0.10578 0.55309 -0.37800
O 	O 	0.86155 0.96705 0.66003 -0.40100
O 	O 	0.84407 0.89383 0.63980 -0.38600
O 	O 	0.97167 0.82589 0.56089 -0.38700
O 	O 	0.93043 0.79480 0.60848 -0.38200
C 	C 	0.96057 0.92390 0.76260 0.00200
C 	C 	0.95606 0.91588 0.79563 -0.06900
C 	C 	0.97604 0.95881 0.89943 0.05300
C 	C 	0.96663 0.94376 0.96525 -0.07600
C 	C 	0.91395 0.89103 0.94743 0.02000
C 	C 	0.91881 0.89849 0.91469 -0.07100
H 	H 	0.91811 0.88421 0.74825 0.03500
H 	H 	0.91078 0.86961 0.80683 0.05200
H 	H 	0.87153 0.84297 0.95996 0.03400
H 	H 	0.87972 0.85642 0.90198 0.05100
C 	C 	0.91826 0.90911 0.29224 -0.07000
C 	C 	0.90887 0.90786 0.25819 0.02100
C 	C 	0.96015 0.91663 0.42667 -0.07600
C 	C 	0.97176 0.91919 0.46083 0.01600
H 	H 	0.87445 0.87094 0.30556 0.05200
H 	H 	0.85754 0.86928 0.24520 0.03300
H 	H 	0.91831 0.86909 0.41869 0.05300
H 	H 	0.93936 0.87345 0.47916 0.03300
S 	S 	0.69799 0.78511 0.66208 0.03000
C 	C 	0.74275 0.86929 0.64592 -0.07600
C 	C 	0.73690 0.86442 0.13825 -0.07900
H 	H 	0.74321 0.93737 0.14912 0.03800
C 	C 	0.79894 0.17728 0.50041 0.00100
C 	C 	0.74342 0.17680 0.49705 -0.06000
C 	C 	0.76135 0.23310 0.50203 0.02500
C 	C 	0.83265 0.28539 0.51295 -0.00100
C 	C 	0.88838 0.28671 0.51580 -0.05500
C 	C 	0.87071 0.23035 0.51079 0.01500
S 	S 	0.79405 0.10815 0.51277 0.02100
C 	C 	0.88108 0.14255 0.52921 -0.07200
C 	C 	0.91702 0.21088 0.52680 -0.02300
S 	S 	0.83732 0.35284 0.50483 0.00900
C 	C 	0.74998 0.31817 0.48795 -0.01900
C 	C 	0.71447 0.25094 0.48839 -0.04700
H 	H 	0.68830 0.13475 0.49010 0.04700
H 	H 	0.94341 0.32830 0.52340 0.04700
H 	H 	0.97143 0.24141 0.54153 0.04100
C 	C 	0.77757 0.64751 0.52528 0.00300
C 	C 	0.76402 0.62220 0.49921 -0.05900
C 	C 	0.75509 0.56091 0.51085 0.02600
C 	C 	0.76422 0.52903 0.54748 0.00100
C 	C 	0.78818 0.55930 0.57385 -0.05400
C 	C 	0.79214 0.61801 0.56238 0.01500
S 	S 	0.81855 0.72865 0.52064 0.01900
C 	C 	0.85204 0.72913 0.56436 -0.07200
C 	C 	0.83327 0.66371 0.58430 -0.01800
S 	S 	0.77451 0.47298 0.55311 0.00700
C 	C 	0.76324 0.48302 0.50962 -0.01900
C 	C 	0.75440 0.53529 0.48942 -0.04700
H 	H 	0.76421 0.65089 0.47133 0.04800
H 	H 	0.80609 0.53982 0.60203 0.04800
H 	H 	0.85888 0.65298 0.61242 0.04600
C 	C 	0.73399 0.19542 0.99028 0.00100
C 	C 	0.72987 0.13857 0.99721 -0.05600
C 	C 	0.78652 0.14900 0.99335 0.01600
C 	C 	0.84681 0.21523 0.98428 0.00100
C 	C 	0.85485 0.27168 0.98242 -0.05800
C 	C 	0.79675 0.26124 0.98462 0.02500
C 	C 	0.74555 0.27840 0.00629 -0.01800
C 	C 	0.80263 0.30851 0.99287 -0.04800
S 	S 	0.91406 0.21056 0.99881 0.02600
C 	C 	0.87099 0.12659 0.01568 -0.07500
C 	C 	0.79986 0.09933 0.01042 -0.02100
H 	H 	0.90596 0.32096 0.98188 0.04900
H 	H 	0.84666 0.36186 0.98941 0.05000
H 	H 	0.76324 0.04844 0.02453 0.04100
C 	C 	0.82652 0.57645 0.02492 0.00100
C 	C 	0.81600 0.62514 0.01529 -0.05500
C 	C 	0.80575 0.63091 0.04170 0.01600
C 	C 	0.79839 0.58383 0.07540 0.00100
C 	C 	0.80730 0.53407 0.08463 -0.05800
C 	C 	0.81976 0.52982 0.05856 0.02400
S 	S 	0.81014 0.54219 0.99619 0.00400
C 	C 	0.79795 0.46959 0.02496 -0.01900
C 	C 	0.80434 0.46997 0.05880 -0.04700
S 	S 	0.82238 0.62137 0.10470 0.02500
C 	C 	0.84122 0.69662 0.07692 -0.07400
C 	C 	0.82804 0.69343 0.04237 -0.02200
H 	H 	0.81980 0.65997 0.98884 0.04600
H 	H 	0.80401 0.49944 0.11113 0.04800
H 	H 	0.78598 0.42457 0.08057 0.04700
H 	H 	0.84753 0.73843 0.02052 0.04500
