data_crystal

_cell_length_a 17.21545
_cell_length_b 18.02073
_cell_length_c 42.27416
_cell_angle_alpha 60.68603
_cell_angle_beta  119.11517
_cell_angle_gamma 133.28813

_symmetry_space_group_name_	'P 1'
_symmetry_space_group_name_H-M	'P 1'

loop_
_symmetry_equiv_pos_as_xyz
  x,y,z

loop_
_atom_site_label
_atom_site_type_symbol
_atom_site_fract_x
_atom_site_fract_y
_atom_site_fract_z
_atom_site_charge
C 	C 	0.80877 0.39165 0.98723 0.00600
C 	C 	0.70678 0.32244 0.99640 -0.04200
C 	C 	0.65944 0.36208 0.99625 0.01500
C 	C 	0.70762 0.46925 0.98319 -0.05000
C 	C 	0.81398 0.53909 0.97801 0.00900
C 	C 	0.86372 0.50059 0.97873 -0.04800
H 	H 	0.66809 0.23847 0.00600 0.04600
H 	H 	0.66963 0.49934 0.98260 0.05300
H 	H 	0.94701 0.55451 0.97524 0.04900
C 	C 	0.65432 0.20167 0.51970 0.00500
C 	C 	0.54711 0.12179 0.52491 -0.05600
C 	C 	0.51076 0.12597 0.54684 0.02300
C 	C 	0.58053 0.21055 0.56286 -0.05400
C 	C 	0.67921 0.29777 0.55246 0.00700
C 	C 	0.71959 0.29112 0.53280 -0.04800
H 	H 	0.49391 0.05444 0.51323 0.05700
H 	H 	0.55089 0.21528 0.57889 0.05800
H 	H 	0.80023 0.35607 0.52707 0.04900
C 	C 	0.34291 0.66327 0.14715 0.00900
C 	C 	0.26988 0.55450 0.14925 -0.05100
C 	C 	0.30775 0.50153 0.15257 0.00900
C 	C 	0.41957 0.55501 0.15726 -0.05100
C 	C 	0.48917 0.66430 0.15024 0.00600
C 	C 	0.45301 0.71802 0.14755 -0.05200
H 	H 	0.18278 0.51348 0.14510 0.05200
H 	H 	0.44835 0.51376 0.15993 0.05200
H 	H 	0.50704 0.80314 0.14206 0.04100
C 	C 	0.19092 0.53655 0.64702 0.01100
C 	C 	0.11534 0.42976 0.64620 -0.05200
C 	C 	0.15289 0.37290 0.65316 0.01200
C 	C 	0.26546 0.41992 0.66426 -0.05200
C 	C 	0.34013 0.52830 0.66053 0.00800
C 	C 	0.30379 0.58548 0.65444 -0.05200
H 	H 	0.02788 0.39376 0.63714 0.05300
H 	H 	0.29399 0.37580 0.66952 0.05300
H 	H 	0.36165 0.66982 0.65152 0.04300
Co	Co	0.07999 0.90491 0.06963 1.17100
Co	Co	0.07190 0.15793 0.05825 1.18500
Co	Co	0.96482 0.94140 0.09975 1.16800
Co	Co	0.20614 0.12955 0.03443 1.18400
C 	C 	0.99099 0.81272 0.00412 0.30400
Co	Co	0.22735 0.98173 0.01968 1.14800
Co	Co	0.86756 0.06173 0.08623 1.18200
C 	C 	0.41902 0.15987 0.05238 0.31300
O 	O 	0.89826 0.98696 0.14259 -0.41000
O 	O 	0.96108 0.04725 0.07471 -0.73300
C 	C 	0.99232 0.99841 0.16193 0.24800
O 	O 	0.99949 0.84433 0.10811 -0.47200
O 	O 	0.20693 0.23553 0.04054 -0.46500
C 	C 	0.09998 0.24267 0.11131 0.31500
O 	O 	0.04906 0.02387 0.05328 -0.55700
C 	C 	0.72782 0.83636 0.09596 0.32500
C 	C 	0.21557 0.83094 0.09371 0.31500
C 	C 	0.20910 0.15171 0.95977 0.30900
O 	O 	0.03913 0.98657 0.14911 -0.41100
O 	O 	0.18974 0.83987 0.05812 -0.41500
O 	O 	0.19522 0.87116 0.10535 -0.39900
O 	O 	0.99747 0.21104 0.09555 -0.40200
O 	O 	0.14111 0.21154 0.10509 -0.39700
O 	O 	0.73618 0.92093 0.07290 -0.41500
O 	O 	0.79929 0.82099 0.10205 -0.38400
O 	O 	0.27428 0.12218 0.97911 -0.39200
O 	O 	0.17585 0.16768 0.97660 -0.38000
O 	O 	0.16026 0.00620 0.04039 -0.73900
C 	C 	0.91157 0.21867 0.01490 0.32000
O 	O 	0.83617 0.12420 0.02971 -0.38000
O 	O 	0.00610 0.24255 0.01741 -0.37700
O 	O 	0.07074 0.90175 0.98808 -0.40700
O 	O 	0.97424 0.80210 0.03440 -0.38300
O 	O 	0.37359 0.06177 0.05613 -0.37400
O 	O 	0.37094 0.18463 0.05843 -0.38300
Co	Co	0.91275 0.75016 0.58116 1.18400
Co	Co	0.91720 0.01292 0.56275 1.19900
Co	Co	0.83142 0.81243 0.61469 1.18200
Co	Co	0.00680 0.95317 0.53219 1.16700
C 	C 	0.77002 0.58117 0.54091 0.32900
Co	Co	0.95709 0.77386 0.50898 1.16800
Co	Co	0.72178 0.92789 0.59297 1.16100
C 	C 	0.18612 0.95339 0.53772 0.27000
O 	O 	0.76980 0.87951 0.65101 -0.41300
O 	O 	0.81643 0.90924 0.58513 -0.76800
C 	C 	0.86867 0.90033 0.66916 0.30900
O 	O 	0.88696 0.72785 0.62831 -0.47000
O 	O 	0.04040 0.07381 0.54208 -0.44900
C 	C 	0.95388 0.11989 0.60931 0.31100
O 	O 	0.87514 0.86546 0.56152 -0.57700
C 	C 	0.59712 0.69991 0.61610 0.32400
C 	C 	0.05940 0.70173 0.58953 0.30800
C 	C 	0.96102 0.95595 0.45236 0.19600
O 	O 	0.91554 0.88520 0.65770 -0.40900
O 	O 	0.00427 0.68301 0.55606 -0.40500
O 	O 	0.05105 0.75083 0.60183 -0.39700
O 	O 	0.85033 0.08527 0.59342 -0.38900
O 	O 	0.99773 0.08982 0.60400 -0.38600
O 	O 	0.59640 0.77628 0.58882 -0.39700
O 	O 	0.67468 0.68908 0.62545 -0.38000
O 	O 	0.90246 0.85340 0.46072 -0.37100
O 	O 	0.98259 0.00446 0.47400 -0.32500
O 	O 	0.94046 0.82402 0.53906 -0.75900
C 	C 	0.74618 0.05683 0.51735 0.37100
O 	O 	0.67933 0.96349 0.53547 -0.42800
O 	O 	0.84230 0.08581 0.51934 -0.38000
O 	O 	0.79587 0.64970 0.50941 -0.39100
O 	O 	0.78147 0.60741 0.56775 -0.38800
O 	O 	0.11898 0.90716 0.50976 -0.41300
O 	O 	0.15425 0.97352 0.55361 -0.41400
C 	C 	0.92066 0.92880 0.70497 -0.15700
C 	C 	0.85637 0.87550 0.73020 0.06200
C 	C 	0.89685 0.91592 0.76001 -0.14600
C 	C 	0.00188 0.00990 0.76491 0.11600
C 	C 	0.06864 0.06057 0.74095 -0.11000
C 	C 	0.02849 0.01950 0.71125 0.09400
C 	C 	0.04005 0.05470 0.79426 -0.03500
C 	C 	0.06902 0.08966 0.81913 0.00200
C 	C 	0.10231 0.12774 0.84975 0.03700
C 	C 	0.21395 0.19977 0.86406 -0.06500
C 	C 	0.24866 0.21876 0.89853 0.02100
C 	C 	0.17193 0.16486 0.91908 -0.08900
C 	C 	0.05935 0.10162 0.90278 0.02600
C 	C 	0.02466 0.08253 0.86830 -0.06000
H 	H 	0.77354 0.80467 0.72593 0.02200
H 	H 	0.84548 0.87538 0.77878 0.06100
H 	H 	0.15055 0.13265 0.74483 0.06600
H 	H 	0.07938 0.06069 0.69224 0.02900
H 	H 	0.27440 0.23670 0.84954 0.05200
H 	H 	0.33576 0.26938 0.91050 0.03500
H 	H 	0.99920 0.06043 0.91815 0.04300
H 	H 	0.93792 0.02813 0.85708 0.05800
C 	C 	0.03085 0.00076 0.20121 -0.00300
C 	C 	0.11739 0.09684 0.21140 -0.00100
C 	C 	0.12860 0.10936 0.24393 -0.06600
C 	C 	0.05492 0.02501 0.26682 0.08500
C 	C 	0.97620 0.92612 0.25874 -0.10000
C 	C 	0.96424 0.91398 0.22607 -0.02800
C 	C 	0.05192 0.04187 0.29615 -0.03600
C 	C 	0.04536 0.05120 0.32100 0.02400
C 	C 	0.03163 0.05644 0.35076 -0.02600
C 	C 	0.92706 0.01574 0.35068 0.08000
C 	C 	0.90650 0.99548 0.38324 -0.13500
C 	C 	0.99038 0.01552 0.41611 0.04800
C 	C 	0.09788 0.06789 0.41479 -0.04700
C 	C 	0.11825 0.08728 0.38230 -0.01000
H 	H 	0.17184 0.16339 0.19310 0.04500
H 	H 	0.19140 0.18558 0.25040 0.05400
H 	H 	0.92042 0.85991 0.27672 0.05200
H 	H 	0.89816 0.83896 0.21878 0.04400
H 	H 	0.86005 0.99366 0.32616 -0.01000
H 	H 	0.82353 0.95666 0.38372 0.06700
H 	H 	0.16374 0.08525 0.43984 0.06000
H 	H 	0.19989 0.12067 0.38240 0.04100
C 	C 	0.08048 0.28003 0.63945 0.04200
C 	C 	0.02361 0.20577 0.62639 -0.09500
C 	C 	0.43865 0.58284 0.64989 0.04700
C 	C 	0.51467 0.63140 0.63672 -0.11200
C 	C 	0.15136 0.60055 0.63126 0.03800
C 	C 	0.11328 0.65050 0.61470 -0.10000
C 	C 	0.17262 0.32928 0.12828 -0.10300
C 	C 	0.23196 0.40537 0.14059 0.04400
C 	C 	0.64973 0.76869 0.11843 -0.11700
C 	C 	0.57973 0.72043 0.13456 0.04600
C 	C 	0.29919 0.72230 0.13434 0.03900
C 	C 	0.26162 0.77250 0.11923 -0.10300
C 	C 	0.70442 0.17641 0.51167 0.06100
C 	C 	0.73364 0.13390 0.51046 -0.12800
C 	C 	0.71737 0.39804 0.55118 0.05700
C 	C 	0.74193 0.48127 0.54762 -0.11900
C 	C 	0.39652 0.05824 0.54584 0.02700
C 	C 	0.30049 0.00782 0.54337 -0.04600
C 	C 	0.89524 0.29864 0.00102 -0.11500
C 	C 	0.86313 0.34929 0.99303 0.05900
C 	C 	0.93056 0.72134 0.99190 -0.10000
C 	C 	0.88012 0.64111 0.98381 0.04300
C 	C 	0.57539 0.29662 0.01610 0.04200
C 	C 	0.50545 0.23904 0.03317 -0.10700
