data_crystal

_cell_length_a 22.44930
_cell_length_b 25.00118
_cell_length_c 26.92617
_cell_angle_alpha 90.00018
_cell_angle_beta  90.01692
_cell_angle_gamma 92.64479

_symmetry_space_group_name_	'P 1'
_symmetry_space_group_name_H-M	'P 1'

loop_
_symmetry_equiv_pos_as_xyz
  x,y,z

loop_
_atom_site_label
_atom_site_type_symbol
_atom_site_fract_x
_atom_site_fract_y
_atom_site_fract_z
_atom_site_charge
C 	C 	0.96213 0.89310 0.98617 0.10000
N 	N 	0.00919 0.92691 0.99556 -0.17300
C 	C 	0.05824 0.89899 0.98788 0.10100
C 	C 	0.11844 0.91768 0.00498 -0.07600
C 	C 	0.13488 0.97554 0.00570 0.09000
C 	C 	0.16457 0.87871 0.01339 0.04100
C 	C 	0.17000 0.85444 0.05999 -0.05300
C 	C 	0.21143 0.81510 0.06703 -0.03500
C 	C 	0.24689 0.79932 0.02726 0.02200
C 	C 	0.20122 0.86399 0.97405 -0.05200
N 	N 	0.11039 0.01079 0.97491 -0.13000
C 	C 	0.18196 0.99916 0.03207 -0.05800
C 	C 	0.14205 0.05733 0.98166 0.09000
C 	C 	0.12097 0.10925 0.96405 -0.07300
C 	C 	0.16224 0.15706 0.96355 0.04000
C 	C 	0.23436 0.21532 0.92019 -0.03000
C 	C 	0.17180 0.18712 0.00700 -0.05000
C 	C 	0.21375 0.23022 0.00747 -0.03900
C 	C 	0.24578 0.24414 0.96421 0.02300
N 	N 	0.01238 0.08418 0.96293 -0.17200
C 	C 	0.96353 0.10511 0.94318 0.10000
C 	C 	0.97978 0.14696 0.91135 -0.06100
C 	C 	0.04135 0.15140 0.91175 -0.06200
C 	C 	0.90365 0.09728 0.96595 -0.07400
C 	C 	0.86330 0.14204 0.96792 0.04200
C 	C 	0.78826 0.19472 0.92906 -0.03200
C 	C 	0.78062 0.22224 0.97380 0.02200
C 	C 	0.81620 0.21103 0.01499 -0.03400
C 	C 	0.85793 0.17146 0.01185 -0.05200
N 	N 	0.90697 0.99791 0.96967 -0.12600
C 	C 	0.83821 0.98036 0.02931 -0.05800
C 	C 	0.87948 0.95933 0.99757 0.08900
C 	C 	0.90043 0.90428 0.00118 -0.07300
C 	C 	0.85691 0.85962 0.01207 0.04000
C 	C 	0.80936 0.84833 0.97940 -0.05000
C 	C 	0.76916 0.80524 0.98870 -0.03800
C 	C 	0.77597 0.77316 0.03088 0.02100
C 	C 	0.82297 0.78487 0.06405 -0.03200
C 	C 	0.86334 0.82805 0.05469 -0.05200
C 	C 	0.98099 0.84320 0.97245 -0.06100
C 	C 	0.04258 0.84694 0.97361 -0.06100
C 	C 	0.24209 0.82428 0.98090 -0.03200
C 	C 	0.18607 0.05185 0.01705 -0.06400
C 	C 	0.05974 0.11216 0.94380 0.10100
C 	C 	0.83983 0.03456 0.02020 -0.06200
C 	C 	0.88220 0.04368 0.98348 0.08700
C 	C 	0.82850 0.15389 0.92647 -0.05200
H 	H 	0.00773 0.96054 0.01852 0.09600
H 	H 	0.01275 0.06401 0.99693 0.09500
H 	H 	0.73295 0.79643 0.96292 0.04400
H 	H 	0.82863 0.76020 0.09663 0.05200
H 	H 	0.80403 0.87255 0.94647 0.04900
H 	H 	0.89984 0.83667 0.08022 0.04800
H 	H 	0.21554 0.79651 0.10314 0.04600
H 	H 	0.19724 0.88269 0.93797 0.05000
H 	H 	0.26973 0.81255 0.95014 0.04600
H 	H 	0.14185 0.86576 0.09056 0.04700
H 	H 	0.22226 0.25210 0.04167 0.05000
H 	H 	0.14772 0.17633 0.04067 0.04800
C 	C 	0.19345 0.17142 0.92009 -0.05100
H 	H 	0.25812 0.22623 0.88640 0.05900
H 	H 	0.76301 0.20490 0.89641 0.04500
H 	H 	0.83292 0.13165 0.89223 0.04800
H 	H 	0.88510 0.16279 0.04387 0.04600
H 	H 	0.81116 0.23270 0.04947 0.04400
H 	H 	0.95441 0.80606 0.97495 0.05300
H 	H 	0.07064 0.81311 0.97745 0.05500
H 	H 	0.21688 0.97822 0.05048 0.04900
H 	H 	0.22367 0.07964 0.02356 0.05000
H 	H 	0.95152 0.17911 0.90116 0.05200
H 	H 	0.06734 0.18735 0.90187 0.05300
H 	H 	0.82242 0.96170 0.06342 0.05000
H 	H 	0.82505 0.06433 0.04602 0.05000
H 	H 	0.18610 0.14850 0.88632 0.05000
C 	C 	0.93612 0.88432 0.47179 0.10200
N 	N 	0.98376 0.91664 0.48344 -0.17200
C 	C 	0.03226 0.88816 0.47515 0.10100
C 	C 	0.09204 0.90392 0.49531 -0.07300
C 	C 	0.11219 0.96092 0.49622 0.08800
C 	C 	0.13560 0.86275 0.50540 0.04100
C 	C 	0.12475 0.82475 0.54306 -0.05300
C 	C 	0.16387 0.78345 0.54999 -0.03100
C 	C 	0.21436 0.78027 0.51961 0.02100
C 	C 	0.18684 0.86023 0.47586 -0.05000
N 	N 	0.09585 0.99672 0.46207 -0.12600
C 	C 	0.14716 0.98479 0.53290 -0.05800
C 	C 	0.12104 0.04403 0.47706 0.08600
C 	C 	0.10148 0.09589 0.45823 -0.07300
C 	C 	0.14386 0.14315 0.45811 0.04000
C 	C 	0.24147 0.18320 0.43802 -0.03800
C 	C 	0.12976 0.19012 0.48323 -0.05200
C 	C 	0.17167 0.23325 0.48618 -0.03200
C 	C 	0.22804 0.22959 0.46427 0.02200
N 	N 	0.99285 0.07238 0.45372 -0.17200
C 	C 	0.94542 0.09440 0.43265 0.10100
C 	C 	0.96403 0.13528 0.40057 -0.06200
C 	C 	0.02561 0.13802 0.40228 -0.06100
C 	C 	0.88488 0.08895 0.45447 -0.07400
C 	C 	0.84819 0.13617 0.45849 0.04100
C 	C 	0.77441 0.19304 0.42343 -0.03500
C 	C 	0.77032 0.21976 0.46900 0.02300
C 	C 	0.80736 0.20626 0.50857 -0.03200
C 	C 	0.84659 0.16484 0.50317 -0.05200
N 	N 	0.88327 0.98936 0.45495 -0.12500
C 	C 	0.81117 0.97228 0.51182 -0.05600
C 	C 	0.85346 0.95081 0.48131 0.08900
C 	C 	0.87441 0.89588 0.48638 -0.07300
C 	C 	0.83107 0.85148 0.49863 0.04000
C 	C 	0.79086 0.83174 0.46244 -0.04900
C 	C 	0.74948 0.79010 0.47400 -0.03200
C 	C 	0.74770 0.76812 0.52195 0.02500
C 	C 	0.78764 0.78810 0.55829 -0.03600
C 	C 	0.82953 0.82941 0.54654 -0.05100
C 	C 	0.95402 0.83487 0.45592 -0.06100
C 	C 	0.01559 0.83733 0.45799 -0.05900
C 	C 	0.22607 0.81922 0.48298 -0.03800
C 	C 	0.15251 0.03836 0.52085 -0.06400
C 	C 	0.04164 0.09888 0.43542 0.10100
C 	C 	0.81455 0.02665 0.50336 -0.06400
C 	C 	0.85883 0.03549 0.46817 0.08800
C 	C 	0.81246 0.15075 0.41846 -0.05200
H 	H 	0.98258 0.94924 0.50767 0.09400
H 	H 	0.99152 0.05208 0.48768 0.09300
H 	H 	0.71871 0.77497 0.44576 0.05600
H 	H 	0.78627 0.77164 0.59550 0.04700
H 	H 	0.79180 0.84857 0.42536 0.05300
H 	H 	0.86038 0.84452 0.57471 0.04600
H 	H 	0.15456 0.75356 0.57842 0.05100
H 	H 	0.19563 0.88949 0.44678 0.05000
H 	H 	0.26522 0.81727 0.45964 0.04500
H 	H 	0.08545 0.82663 0.56623 0.04800
H 	H 	0.16103 0.26878 0.50678 0.05000
H 	H 	0.08689 0.19276 0.50132 0.04800
C 	C 	0.19950 0.14027 0.43477 -0.05000
H 	H 	0.28500 0.17992 0.42122 0.04200
H 	H 	0.74676 0.20399 0.39240 0.04300
H 	H 	0.81383 0.12900 0.38371 0.04700
H 	H 	0.87441 0.15398 0.53413 0.04600
H 	H 	0.80482 0.22706 0.54375 0.04900
H 	H 	0.92652 0.79815 0.45643 0.05600
H 	H 	0.04280 0.80276 0.45989 0.05300
H 	H 	0.15348 0.96850 0.56967 0.04900
H 	H 	0.16227 0.07022 0.54727 0.05000
H 	H 	0.93721 0.16802 0.38921 0.05100
H 	H 	0.05322 0.17293 0.39209 0.05300
H 	H 	0.79365 0.95362 0.54537 0.04900
H 	H 	0.79967 0.05634 0.52924 0.05100
H 	H 	0.21062 0.10439 0.41491 0.04700
Ni	Ni	0.48237 0.54301 0.05182 1.10500
O 	O 	0.54569 0.48773 0.04333 -0.70400
Ni	Ni	0.54252 0.47540 0.96937 1.10400
O 	O 	0.48875 0.54309 0.12798 -0.32400
O 	O 	0.47510 0.45241 0.13392 -0.35200
O 	O 	0.54760 0.60436 0.05462 -0.36300
Ni	Ni	0.52051 0.41962 0.07482 1.07000
O 	O 	0.46759 0.64874 0.99701 -0.40200
O 	O 	0.43986 0.41642 0.03979 -0.39300
O 	O 	0.60745 0.42139 0.96726 -0.36200
O 	O 	0.47694 0.52918 0.97770 -0.69400
O 	O 	0.41843 0.59790 0.05546 -0.35000
O 	O 	0.54100 0.47560 0.89296 -0.32300
O 	O 	0.53625 0.56545 0.88204 -0.37900
Ni	Ni	0.49844 0.59771 0.94488 1.08000
H 	H 	0.58589 0.50055 0.05445 0.16000
H 	H 	0.43681 0.51496 0.96778 0.19100
C 	C 	0.43503 0.40324 0.99297 0.31200
O 	O 	0.58117 0.59935 0.97495 -0.40800
C 	C 	0.48985 0.49884 0.15424 0.28100
C 	C 	0.60612 0.38110 0.99883 0.30100
C 	C 	0.59056 0.61180 0.02159 0.30200
C 	C 	0.52438 0.51646 0.86644 0.30300
C 	C 	0.41971 0.63818 0.02415 0.30700
O 	O 	0.48010 0.41249 0.96259 -0.33600
O 	O 	0.55719 0.36927 0.02468 -0.40900
Ni	Ni	0.45939 0.53068 0.55483 1.10200
O 	O 	0.52674 0.47930 0.54381 -0.69600
Ni	Ni	0.51797 0.46437 0.47017 1.10400
O 	O 	0.46758 0.53214 0.63088 -0.32900
O 	O 	0.47119 0.44205 0.64037 -0.37800
O 	O 	0.51924 0.59608 0.55737 -0.34000
Ni	Ni	0.51073 0.41063 0.57785 1.08500
O 	O 	0.43429 0.63415 0.49830 -0.39300
O 	O 	0.42668 0.40280 0.54934 -0.40500
O 	O 	0.58550 0.41313 0.46432 -0.35300
O 	O 	0.45168 0.51641 0.48107 -0.70100
O 	O 	0.39211 0.58216 0.55972 -0.37300
O 	O 	0.50752 0.46306 0.39423 -0.33000
O 	O 	0.51482 0.55392 0.38661 -0.35000
Ni	Ni	0.47093 0.58483 0.44733 1.07500
H 	H 	0.56677 0.49513 0.55204 0.19600
H 	H 	0.41155 0.50138 0.47206 0.16000
C 	C 	0.41726 0.38772 0.50341 0.30700
O 	O 	0.55344 0.59237 0.47807 -0.39800
C 	C 	0.48322 0.49064 0.65692 0.30200
C 	C 	0.58991 0.37385 0.49641 0.30400
C 	C 	0.56121 0.60670 0.52433 0.31400
C 	C 	0.50255 0.50653 0.36735 0.28200
C 	C 	0.38780 0.61989 0.52605 0.30500
O 	O 	0.45724 0.39936 0.46883 -0.36700
O 	O 	0.54445 0.36085 0.52582 -0.40400
C 	C 	0.56000 0.52114 0.77952 0.05400
C 	C 	0.51376 0.50829 0.81309 -0.00200
C 	C 	0.45713 0.49006 0.79536 -0.10400
C 	C 	0.44800 0.48475 0.74390 0.05400
C 	C 	0.49417 0.49779 0.71033 -0.00300
C 	C 	0.55087 0.51584 0.72805 -0.10500
C 	C 	0.60152 0.52929 0.69209 0.77800
H 	H 	0.60302 0.53542 0.79371 0.07900
H 	H 	0.40496 0.47054 0.72970 0.07800
C 	C 	0.40649 0.47660 0.83131 0.77600
F 	F 	0.65403 0.54388 0.71657 -0.45400
F 	F 	0.58656 0.57144 0.66200 -0.46600
F 	F 	0.61182 0.48523 0.66276 -0.48900
F 	F 	0.39576 0.52088 0.86022 -0.49900
F 	F 	0.42177 0.43484 0.86176 -0.46100
F 	F 	0.35414 0.46141 0.80686 -0.45700
C 	C 	0.54727 0.51250 0.23178 0.04200
C 	C 	0.49196 0.50273 0.20870 -0.00000
C 	C 	0.43988 0.49393 0.23788 -0.09500
C 	C 	0.44519 0.49162 0.28987 0.04100
C 	C 	0.50050 0.50150 0.31296 0.00100
C 	C 	0.55252 0.51065 0.28376 -0.09700
C 	C 	0.61326 0.52044 0.30786 0.78100
H 	H 	0.58643 0.52077 0.20902 0.06200
H 	H 	0.40603 0.48335 0.31263 0.06200
C 	C 	0.37890 0.48576 0.21379 0.77900
F 	F 	0.65898 0.51580 0.27384 -0.45900
F 	F 	0.62148 0.48350 0.34514 -0.46500
F 	F 	0.61733 0.57146 0.32774 -0.44600
F 	F 	0.37360 0.43518 0.19303 -0.44700
F 	F 	0.37136 0.52368 0.17716 -0.44300
F 	F 	0.33346 0.49049 0.24805 -0.45400
C 	C 	0.33759 0.65518 0.52816 -0.11500
C 	C 	0.29816 0.65754 0.48769 0.16200
C 	C 	0.25676 0.69769 0.48591 -0.10000
C 	C 	0.25377 0.73503 0.52460 -0.00700
C 	C 	0.29188 0.73146 0.56596 0.09600
C 	C 	0.33243 0.69049 0.56818 -0.01900
H 	H 	0.22784 0.70054 0.45386 0.07000
H 	H 	0.36182 0.68787 0.59996 0.06200
O 	O 	0.30398 0.62382 0.44749 -0.22200
O 	O 	0.28730 0.76630 0.60550 -0.18600
C 	C 	0.26631 0.57781 0.45493 -0.02400
H 	H 	0.27904 0.55546 0.48882 0.03600
H 	H 	0.27122 0.55061 0.42280 0.04700
H 	H 	0.21859 0.58805 0.45671 0.04700
C 	C 	0.32959 0.80924 0.59910 -0.02700
H 	H 	0.37598 0.79531 0.60032 0.04400
H 	H 	0.32486 0.83777 0.63025 0.04800
H 	H 	0.32193 0.83159 0.56408 0.04300
C 	C 	0.70354 0.72445 0.53398 -0.00600
C 	C 	0.71590 0.67094 0.52341 0.10600
C 	C 	0.66953 0.63135 0.52396 -0.01800
C 	C 	0.61137 0.64440 0.53669 -0.08900
C 	C 	0.60045 0.69690 0.55239 0.16600
C 	C 	0.64641 0.73686 0.55008 -0.09400
H 	H 	0.67830 0.59099 0.51222 0.06800
H 	H 	0.63684 0.77795 0.55859 0.06700
O 	O 	0.77174 0.65839 0.50671 -0.17700
O 	O 	0.54301 0.71090 0.56307 -0.18500
C 	C 	0.80504 0.64097 0.54756 -0.03300
H 	H 	0.81024 0.67245 0.57669 0.05100
H 	H 	0.85041 0.63227 0.53441 0.05700
H 	H 	0.78491 0.60326 0.56360 0.06300
C 	C 	0.53512 0.70937 0.61501 -0.03700
H 	H 	0.54316 0.66908 0.63061 0.09900
H 	H 	0.48815 0.71809 0.62338 0.06000
H 	H 	0.56409 0.74058 0.63376 0.05200
C 	C 	0.72443 0.25915 0.47627 -0.00900
C 	C 	0.66676 0.24233 0.49177 0.09900
C 	C 	0.62369 0.28023 0.49935 -0.03100
C 	C 	0.63650 0.33462 0.48887 -0.10500
C 	C 	0.69421 0.35128 0.47251 0.16000
C 	C 	0.73831 0.31357 0.46785 -0.09700
H 	H 	0.58011 0.26709 0.51297 0.05500
H 	H 	0.78322 0.32667 0.45724 0.06900
O 	O 	0.65438 0.18945 0.50471 -0.19000
O 	O 	0.70921 0.40508 0.46598 -0.18500
C 	C 	0.62379 0.16352 0.46506 -0.02500
H 	H 	0.61755 0.12037 0.47421 0.04500
H 	H 	0.64945 0.16645 0.42973 0.04000
H 	H 	0.57869 0.17942 0.45995 0.04000
C 	C 	0.71062 0.41631 0.41461 -0.04300
H 	H 	0.74997 0.39884 0.39676 0.06000
H 	H 	0.71516 0.46035 0.40964 0.10200
H 	H 	0.66891 0.40204 0.39534 0.09900
C 	C 	0.36899 0.34727 0.49297 -0.11200
C 	C 	0.36428 0.29950 0.52084 0.16800
C 	C 	0.31633 0.26270 0.51271 -0.10200
C 	C 	0.27555 0.27092 0.47442 -0.00700
C 	C 	0.28160 0.31749 0.44497 0.09700
C 	C 	0.32749 0.35612 0.45522 -0.02600
H 	H 	0.31176 0.22696 0.53544 0.06800
H 	H 	0.33069 0.39285 0.43381 0.05100
O 	O 	0.40520 0.28989 0.55776 -0.20300
O 	O 	0.23964 0.32751 0.40899 -0.18200
C 	C 	0.44873 0.25689 0.53812 -0.02800
H 	H 	0.42955 0.21585 0.53058 0.04100
H 	H 	0.48453 0.25328 0.56615 0.04500
H 	H 	0.46976 0.27419 0.50386 0.05200
C 	C 	0.26132 0.31061 0.36269 -0.03300
H 	H 	0.30228 0.33448 0.35162 0.06000
H 	H 	0.22687 0.31727 0.33409 0.06200
H 	H 	0.26974 0.26707 0.36259 0.04600
C 	C 	0.37493 0.67880 0.02873 -0.10700
C 	C 	0.39189 0.73192 0.04193 0.16700
C 	C 	0.34830 0.76998 0.04645 -0.09900
C 	C 	0.28895 0.75659 0.03386 -0.00800
C 	C 	0.27175 0.70331 0.02177 0.10100
C 	C 	0.31494 0.66473 0.01896 -0.02700
H 	H 	0.36120 0.81064 0.05725 0.06700
H 	H 	0.30190 0.62408 0.00817 0.05600
O 	O 	0.45058 0.74570 0.05371 -0.18800
O 	O 	0.21376 0.69018 0.00751 -0.18500
C 	C 	0.47740 0.77290 0.01291 -0.02000
H 	H 	0.46960 0.75143 0.97705 0.04100
H 	H 	0.52629 0.77589 0.01891 0.04500
H 	H 	0.46167 0.81434 0.01022 0.03700
C 	C 	0.18223 0.66967 0.04915 -0.03000
H 	H 	0.20048 0.63143 0.06212 0.05800
H 	H 	0.13519 0.66088 0.03810 0.05300
H 	H 	0.18189 0.69923 0.08007 0.04800
C 	C 	0.64484 0.64457 0.03457 -0.10900
C 	C 	0.69761 0.63959 0.00675 0.16100
C 	C 	0.74237 0.68041 0.00834 -0.09800
C 	C 	0.73584 0.72550 0.03838 -0.00700
C 	C 	0.68635 0.72766 0.07034 0.09900
C 	C 	0.64164 0.68646 0.06912 -0.02800
H 	H 	0.78095 0.67819 0.98436 0.07100
H 	H 	0.60289 0.68896 0.09284 0.07400
O 	O 	0.70247 0.59790 0.97354 -0.19200
O 	O 	0.68381 0.76803 0.10526 -0.18200
C 	C 	0.72816 0.55507 0.99840 -0.02700
H 	H 	0.77376 0.56649 0.01224 0.04600
H 	H 	0.73250 0.52177 0.97161 0.06000
H 	H 	0.69922 0.53969 0.02933 0.03200
C 	C 	0.64732 0.80797 0.08684 -0.02900
H 	H 	0.66239 0.82324 0.04985 0.04000
H 	H 	0.64994 0.84240 0.11286 0.05100
H 	H 	0.59988 0.79319 0.08526 0.04800
C 	C 	0.73539 0.26274 0.97769 -0.00700
C 	C 	0.67478 0.24702 0.98393 0.09700
C 	C 	0.63302 0.28591 0.99269 -0.02700
C 	C 	0.65102 0.34040 0.99395 -0.11300
C 	C 	0.71200 0.35572 0.98993 0.16600
C 	C 	0.75346 0.31709 0.97961 -0.10000
H 	H 	0.58650 0.27365 0.99789 0.05800
H 	H 	0.80016 0.32920 0.97528 0.07000
O 	O 	0.65751 0.19332 0.98720 -0.19000
O 	O 	0.73111 0.40875 0.99527 -0.20300
C 	C 	0.63046 0.17703 0.94202 -0.02600
H 	H 	0.58624 0.19482 0.93757 0.04500
H 	H 	0.62279 0.13289 0.94279 0.04600
H 	H 	0.65916 0.18684 0.90928 0.04200
C 	C 	0.74614 0.41773 0.04558 -0.02100
H 	H 	0.70609 0.41327 0.06988 0.02500
H 	H 	0.76451 0.45940 0.04964 0.04200
H 	H 	0.78143 0.39099 0.05838 0.04100
C 	C 	0.29372 0.28679 0.96589 -0.00400
C 	C 	0.35336 0.27477 0.95600 0.10400
C 	C 	0.39871 0.31496 0.96010 -0.01800
C 	C 	0.38588 0.36590 0.97775 -0.08700
C 	C 	0.32625 0.37847 0.98635 0.16900
C 	C 	0.28049 0.33879 0.98066 -0.09000
H 	H 	0.44444 0.30548 0.95240 0.07000
H 	H 	0.23483 0.34822 0.98860 0.07400
O 	O 	0.36705 0.22424 0.94004 -0.18600
O 	O 	0.31311 0.42824 0.00455 -0.18000
C 	C 	0.38262 0.19368 0.98172 -0.02700
H 	H 	0.42364 0.21089 0.00008 0.04200
H 	H 	0.39242 0.15284 0.96892 0.04600
H 	H 	0.34529 0.18940 0.00888 0.04200
C 	C 	0.30095 0.46176 0.96403 -0.04500
H 	H 	0.33968 0.46622 0.93831 0.09400
H 	H 	0.29230 0.50222 0.97851 0.06300
H 	H 	0.26030 0.44702 0.94360 0.07000
