data_crystal

_cell_length_a 23.94991
_cell_length_b 19.60766
_cell_length_c 51.71081
_cell_angle_alpha 89.95206
_cell_angle_beta  89.95417
_cell_angle_gamma 119.44738

_symmetry_space_group_name_	'P 1'
_symmetry_space_group_name_H-M	'P 1'

loop_
_symmetry_equiv_pos_as_xyz
  x,y,z

loop_
_atom_site_label
_atom_site_type_symbol
_atom_site_fract_x
_atom_site_fract_y
_atom_site_fract_z
_atom_site_charge
C 	C 	0.62639 0.32313 0.89634 0.30600
C 	C 	0.81386 0.61674 0.94332 0.33200
C 	C 	0.80973 0.42258 0.89307 0.32800
C 	C 	0.63082 0.50256 0.94720 0.34300
C 	C 	0.82253 0.41898 0.97552 0.34900
C 	C 	0.63562 0.29889 0.98034 0.32700
Ni	Ni	0.72391 0.48767 0.90977 1.11800
Ni	Ni	0.72718 0.47078 0.97218 1.12500
Ni	Ni	0.72289 0.33613 0.93608 1.12500
O 	O 	0.64209 0.39759 0.89341 -0.35000
O 	O 	0.67025 0.30268 0.90250 -0.34900
O 	O 	0.81417 0.48034 0.97481 -0.38300
O 	O 	0.81125 0.57278 0.92391 -0.37000
O 	O 	0.77196 0.58674 0.96224 -0.36300
O 	O 	0.64458 0.27358 0.95772 -0.38600
O 	O 	0.77265 0.45027 0.88501 -0.34100
O 	O 	0.80653 0.39908 0.91698 -0.37900
O 	O 	0.68117 0.36517 0.99081 -0.38000
O 	O 	0.67370 0.53734 0.92828 -0.37100
O 	O 	0.64547 0.47600 0.96844 -0.38400
O 	O 	0.77672 0.34989 0.96788 -0.38000
O 	O 	0.70905 0.42327 0.93882 -0.71400
H 	H 	0.66190 0.39518 0.93936 0.15200
C 	C 	0.80860 0.47765 0.54302 0.32700
C 	C 	0.63967 0.16558 0.58437 0.35600
C 	C 	0.63444 0.33196 0.52912 0.35000
C 	C 	0.81541 0.30091 0.60123 0.30800
C 	C 	0.58499 0.32744 0.61180 0.32900
C 	C 	0.75555 0.48616 0.62541 0.31000
Ni	Ni	0.73463 0.30609 0.55522 1.11700
Ni	Ni	0.69963 0.31110 0.61550 1.12800
Ni	Ni	0.68960 0.42777 0.57549 1.12600
O 	O 	0.81281 0.41271 0.54522 -0.37400
O 	O 	0.75232 0.47568 0.54503 -0.37600
O 	O 	0.60621 0.27736 0.61277 -0.37900
O 	O 	0.64943 0.20453 0.56271 -0.38200
O 	O 	0.67528 0.19978 0.60474 -0.36600
O 	O 	0.75304 0.50376 0.60075 -0.36600
O 	O 	0.68776 0.32973 0.52544 -0.37500
O 	O 	0.62073 0.34811 0.55209 -0.39200
O 	O 	0.72182 0.41295 0.63456 -0.35100
O 	O 	0.78710 0.26968 0.57872 -0.35100
O 	O 	0.79027 0.32963 0.61805 -0.36400
O 	O 	0.62142 0.39905 0.60301 -0.36100
O 	O 	0.72329 0.36032 0.58278 -0.72100
H 	H 	0.76820 0.39912 0.58655 0.16100
C 	C 	0.99775 0.95536 0.73879 0.31500
C 	C 	0.22806 0.15508 0.80202 0.32400
C 	C 	0.03038 0.99024 0.81284 0.30600
C 	C 	0.20924 0.14384 0.72755 0.30800
C 	C 	0.06961 0.22929 0.80327 0.32300
C 	C 	0.06435 0.21297 0.73244 0.30700
Ni	Ni	0.12416 0.03404 0.76906 1.12300
Ni	Ni	0.16422 0.21826 0.76791 1.12800
Ni	Ni	0.01533 0.08723 0.77275 1.12500
O 	O 	0.03654 0.94535 0.75475 -0.35300
O 	O 	0.98376 0.01251 0.74223 -0.34400
O 	O 	0.12424 0.26716 0.79054 -0.34900
O 	O 	0.21560 0.10240 0.78407 -0.35200
O 	O 	0.20275 0.20138 0.80084 -0.36400
O 	O 	0.02138 0.17695 0.75106 -0.37300
O 	O 	0.08923 0.00833 0.80666 -0.33500
O 	O 	0.99149 0.99209 0.79533 -0.34500
O 	O 	0.12704 0.24467 0.73687 -0.33900
O 	O 	0.16899 0.06896 0.73313 -0.35300
O 	O 	0.22606 0.19911 0.74555 -0.35100
O 	O 	0.03918 0.15257 0.80471 -0.38900
O 	O 	0.10006 0.11105 0.76461 -0.71900
H 	H 	0.09529 0.10825 0.74568 0.15800
C 	C 	0.45507 0.74000 0.39078 0.31200
C 	C 	0.20314 0.45940 0.39996 0.32400
C 	C 	0.28870 0.69887 0.36633 0.32600
C 	C 	0.36055 0.50179 0.42932 0.35200
C 	C 	0.21415 0.66296 0.44305 0.35200
C 	C 	0.37677 0.70708 0.47156 0.32800
Ni	Ni	0.33165 0.58805 0.38627 1.12100
Ni	Ni	0.27393 0.56384 0.44452 1.12500
Ni	Ni	0.34273 0.73460 0.41929 1.12400
O 	O 	0.42963 0.66405 0.38598 -0.35600
O 	O 	0.41830 0.77277 0.39404 -0.37000
O 	O 	0.20464 0.59179 0.43881 -0.39000
O 	O 	0.23309 0.52069 0.38506 -0.36100
O 	O 	0.22003 0.46250 0.42431 -0.35500
O 	O 	0.39778 0.75331 0.45077 -0.38000
O 	O 	0.32554 0.66814 0.36144 -0.34800
O 	O 	0.28015 0.71516 0.39013 -0.37900
O 	O 	0.31739 0.64628 0.47262 -0.38200
O 	O 	0.33953 0.49804 0.40519 -0.36100
O 	O 	0.33697 0.52412 0.44894 -0.37800
O 	O 	0.27260 0.72316 0.44347 -0.39100
O 	O 	0.32961 0.63099 0.41826 -0.71900
H 	H 	0.37122 0.64103 0.42523 0.16200
C 	C 	0.26547 0.50312 0.03982 0.32400
C 	C 	0.21075 0.58774 0.14276 0.33300
C 	C 	0.10933 0.44159 0.07589 0.32900
C 	C 	0.37239 0.64059 0.11198 0.31000
C 	C 	0.15552 0.68421 0.08174 0.35100
C 	C 	0.31555 0.75849 0.04685 0.32600
Ni	Ni	0.23984 0.51522 0.09738 1.11900
Ni	Ni	0.27699 0.69703 0.09967 1.12800
Ni	Ni	0.19936 0.59407 0.05104 1.12400
O 	O 	0.23893 0.46346 0.06154 -0.36700
O 	O 	0.25167 0.55685 0.03085 -0.37800
O 	O 	0.21662 0.73272 0.08606 -0.38800
O 	O 	0.23844 0.54709 0.13579 -0.35200
O 	O 	0.21034 0.64034 0.12729 -0.37800
O 	O 	0.25565 0.70785 0.03928 -0.38000
O 	O 	0.14181 0.46971 0.09712 -0.36700
O 	O 	0.13290 0.47747 0.05378 -0.36600
O 	O 	0.33629 0.75732 0.07066 -0.37500
O 	O 	0.33857 0.57056 0.10118 -0.36600
O 	O 	0.34477 0.68219 0.11955 -0.34700
O 	O 	0.13737 0.61674 0.07025 -0.38500
O 	O 	0.25265 0.60537 0.07996 -0.71900
H 	H 	0.29353 0.62047 0.07109 0.16400
C 	C 	0.97284 0.02519 0.19049 0.32900
C 	C 	0.81246 0.85606 0.28100 0.33300
C 	C 	0.99604 0.04833 0.26683 0.34700
C 	C 	0.77874 0.81010 0.20929 0.30800
C 	C 	0.99763 0.83188 0.27011 0.34400
C 	C 	0.96060 0.77325 0.21163 0.31800
Ni	Ni	0.87797 0.95700 0.23515 1.11800
Ni	Ni	0.87088 0.78996 0.24583 1.12800
Ni	Ni	0.00615 0.94000 0.22982 1.12100
O 	O 	0.94326 0.04053 0.20938 -0.35200
O 	O 	0.00549 0.98801 0.19511 -0.37000
O 	O 	0.93744 0.77757 0.26642 -0.36400
O 	O 	0.80435 0.89067 0.26086 -0.35100
O 	O 	0.84951 0.82443 0.27965 -0.34500
O 	O 	0.00686 0.84823 0.21144 -0.37200
O 	O 	0.93364 0.01877 0.26645 -0.35400
O 	O 	0.02641 0.04409 0.24620 -0.37400
O 	O 	0.89929 0.75237 0.21504 -0.36800
O 	O 	0.81381 0.88739 0.20704 -0.34900
O 	O 	0.78629 0.77130 0.22907 -0.34100
O 	O 	0.01735 0.90554 0.26484 -0.39100
O 	O 	0.91552 0.89265 0.23149 -0.71600
H 	H 	0.90725 0.87924 0.21300 0.16500
C 	C 	0.98541 0.06953 0.16629 -0.07800
C 	C 	0.94329 0.03851 0.14514 0.15000
C 	C 	0.95094 0.08585 0.12362 -0.06600
C 	C 	0.00093 0.16364 0.12292 0.01600
C 	C 	0.04492 0.19330 0.14357 0.09300
C 	C 	0.03692 0.14618 0.16509 -0.01900
H 	H 	0.91748 0.06254 0.10765 0.09300
C 	C 	0.00416 0.21595 0.10174 0.01000
H 	H 	0.06982 0.16992 0.18123 0.07700
C 	C 	0.97881 0.26602 0.10584 -0.05500
C 	C 	0.00559 0.33830 0.09313 0.13100
C 	C 	0.05751 0.35993 0.07611 -0.09200
C 	C 	0.07146 0.30201 0.06755 -0.01600
C 	C 	0.04583 0.23034 0.08069 0.09100
H 	H 	0.94353 0.25283 0.12095 0.08700
H 	H 	0.10836 0.31631 0.05307 0.07400
Br	Br	0.11503 0.29902 0.14308 -0.21800
Br	Br	0.87540 0.93178 0.14525 -0.21600
Br	Br	0.97825 0.41183 0.10241 -0.20200
Br	Br	0.07372 0.15697 0.07170 -0.19600
C 	C 	0.71877 0.77092 0.19448 -0.07800
C 	C 	0.66128 0.76165 0.20520 0.14800
C 	C 	0.60731 0.73766 0.18956 -0.07600
C 	C 	0.60970 0.72223 0.16327 0.02400
C 	C 	0.66633 0.72874 0.15269 0.09300
C 	C 	0.72052 0.75282 0.16836 -0.01100
H 	H 	0.56348 0.73165 0.19780 0.09400
C 	C 	0.55247 0.69905 0.14707 0.02800
H 	H 	0.76434 0.75893 0.16009 0.08400
C 	C 	0.54576 0.75653 0.13345 -0.08000
C 	C 	0.48791 0.73768 0.12109 0.14900
C 	C 	0.43571 0.66085 0.12277 -0.08600
C 	C 	0.44349 0.60283 0.13557 -0.00700
C 	C 	0.50156 0.62148 0.14753 0.08600
H 	H 	0.58523 0.81614 0.13277 0.09000
H 	H 	0.40384 0.54341 0.13672 0.07500
Br	Br	0.67064 0.70555 0.11694 -0.18700
Br	Br	0.65587 0.78372 0.24099 -0.17500
Br	Br	0.48237 0.81669 0.10112 -0.22700
Br	Br	0.51027 0.54039 0.16473 -0.18200
C 	C 	0.17304 0.56852 0.16662 -0.09300
C 	C 	0.19338 0.62519 0.18628 0.15100
C 	C 	0.14813 0.63734 0.19959 -0.08100
C 	C 	0.08273 0.59104 0.19392 0.03000
C 	C 	0.06247 0.52307 0.17892 0.08100
C 	C 	0.10794 0.51161 0.16542 -0.00400
H 	H 	0.16404 0.68701 0.21245 0.10100
C 	C 	0.03987 0.62445 0.19766 0.03000
H 	H 	0.09207 0.46390 0.15170 0.08200
C 	C 	0.02859 0.66198 0.17680 -0.09400
C 	C 	0.99813 0.70638 0.18079 0.16200
C 	C 	0.97792 0.71269 0.20578 -0.09700
C 	C 	0.98425 0.66968 0.22617 -0.00200
C 	C 	0.01631 0.62702 0.22236 0.07600
H 	H 	0.04581 0.65916 0.15765 0.08600
H 	H 	0.96705 0.67245 0.24530 0.06900
Br	Br	0.97307 0.44873 0.17536 -0.16300
Br	Br	0.28298 0.69401 0.19229 -0.19100
Br	Br	0.98535 0.75891 0.15195 -0.19800
Br	Br	0.02954 0.57519 0.25127 -0.19100
C 	C 	0.52277 0.79050 0.38418 -0.09400
C 	C 	0.57015 0.77999 0.39669 0.14700
C 	C 	0.62939 0.80487 0.38462 -0.08400
C 	C 	0.64137 0.83965 0.36006 0.02600
C 	C 	0.59681 0.85852 0.34907 0.08600
C 	C 	0.53830 0.83524 0.36147 -0.00800
H 	H 	0.66442 0.79258 0.39356 0.08700
C 	C 	0.69302 0.84151 0.34402 0.02600
H 	H 	0.50258 0.84559 0.35218 0.07600
C 	C 	0.68265 0.77286 0.33148 -0.07900
C 	C 	0.72435 0.77609 0.31199 0.15800
C 	C 	0.77665 0.84872 0.30479 -0.08400
C 	C 	0.78980 0.91637 0.31872 0.00000
C 	C 	0.74892 0.91271 0.33866 0.08500
H 	H 	0.64051 0.71752 0.33607 0.08900
H 	H 	0.83076 0.97218 0.31355 0.07700
Br	Br	0.61206 0.90850 0.31584 -0.17600
Br	Br	0.55324 0.72790 0.42958 -0.24200
Br	Br	0.70702 0.68131 0.29450 -0.19100
Br	Br	0.76908 0.00569 0.35788 -0.16900
C 	C 	0.03250 0.09976 0.28842 -0.10400
C 	C 	0.01500 0.07436 0.31415 0.15300
C 	C 	0.03799 0.12867 0.33433 -0.08300
C 	C 	0.08088 0.20777 0.32927 0.02800
C 	C 	0.10368 0.23173 0.30387 0.08600
C 	C 	0.07859 0.17795 0.28352 -0.00000
H 	H 	0.02267 0.10932 0.35400 0.08900
C 	C 	0.10324 0.26459 0.35077 0.02500
H 	H 	0.09351 0.19751 0.26383 0.07500
C 	C 	0.14622 0.26368 0.36892 -0.08300
C 	C 	0.17273 0.32163 0.38794 0.14900
C 	C 	0.15854 0.38359 0.38805 -0.09500
C 	C 	0.11037 0.37953 0.37162 -0.00400
C 	C 	0.08215 0.31985 0.35320 0.09100
H 	H 	0.15973 0.21846 0.36804 0.08800
H 	H 	0.09722 0.42509 0.37227 0.07600
Br	Br	0.16938 0.33720 0.29669 -0.17100
Br	Br	0.96270 0.96524 0.32219 -0.19400
Br	Br	0.22676 0.31357 0.41375 -0.21100
Br	Br	0.01563 0.31535 0.33137 -0.17600
C 	C 	0.26024 0.72103 0.34494 -0.09500
C 	C 	0.21397 0.66353 0.32855 0.15100
C 	C 	0.17426 0.68146 0.31352 -0.08100
C 	C 	0.18073 0.75646 0.31445 0.02900
C 	C 	0.23060 0.81561 0.32902 0.08500
C 	C 	0.27030 0.79780 0.34402 -0.00600
H 	H 	0.13701 0.63636 0.30175 0.10200
C 	C 	0.13162 0.77058 0.30228 0.02700
H 	H 	0.30690 0.84279 0.35605 0.06400
C 	C 	0.07751 0.75761 0.31662 -0.07900
C 	C 	0.03321 0.77719 0.30630 0.15100
C 	C 	0.04290 0.80986 0.28133 -0.10900
C 	C 	0.09616 0.82093 0.26675 -0.00800
C 	C 	0.14022 0.80094 0.27703 0.08900
H 	H 	0.07064 0.73388 0.33603 0.08500
H 	H 	0.10311 0.84466 0.24734 0.05700
Br	Br	0.24336 0.92025 0.32956 -0.19500
Br	Br	0.20268 0.55970 0.32696 -0.19200
Br	Br	0.96147 0.76204 0.32707 -0.17300
Br	Br	0.21221 0.81628 0.25644 -0.19000
C 	C 	0.52751 0.97371 0.55548 0.00300
C 	C 	0.57291 0.95794 0.54376 -0.02700
C 	C 	0.55335 0.89750 0.52566 -0.03600
C 	C 	0.48825 0.85167 0.51941 0.01700
C 	C 	0.44245 0.86259 0.53307 -0.03500
C 	C 	0.46210 0.92325 0.55103 -0.02900
C 	C 	0.46953 0.80272 0.49584 0.01600
C 	C 	0.41103 0.73275 0.49465 -0.15400
C 	C 	0.54807 0.05173 0.56650 0.03600
C 	C 	0.59773 0.08516 0.58458 -0.16800
H 	H 	0.62364 0.99616 0.54718 0.05400
H 	H 	0.58906 0.88904 0.51550 0.05500
H 	H 	0.39196 0.82764 0.52853 0.05300
H 	H 	0.42662 0.93442 0.56015 0.05200
H 	H 	0.49934 0.82486 0.47864 0.05500
H 	H 	0.38862 0.70209 0.51250 0.09200
H 	H 	0.52936 0.08724 0.55805 0.04600
H 	H 	0.60481 0.04809 0.59830 0.11400
C 	C 	0.05632 0.61281 0.47289 -0.00400
C 	C 	0.99062 0.57490 0.46729 -0.01500
C 	C 	0.94625 0.56247 0.48683 -0.04100
C 	C 	0.96731 0.58718 0.51225 0.03200
C 	C 	0.03317 0.63034 0.51735 -0.05200
C 	C 	0.07753 0.64298 0.49782 -0.02200
C 	C 	0.92216 0.55341 0.53404 0.01500
C 	C 	0.86058 0.54426 0.53277 -0.15600
C 	C 	0.10144 0.61024 0.45397 0.02600
C 	C 	0.16355 0.67355 0.45136 -0.16900
H 	H 	0.97376 0.55193 0.44810 0.05200
H 	H 	0.89547 0.52906 0.48259 0.05800
H 	H 	0.04994 0.64999 0.53683 0.05600
H 	H 	0.12814 0.67210 0.50247 0.04800
H 	H 	0.93430 0.52630 0.54980 0.04800
H 	H 	0.85268 0.58702 0.52242 0.09500
H 	H 	0.08712 0.55662 0.44316 0.04700
H 	H 	0.17377 0.73110 0.45805 0.09600
C 	C 	0.51189 0.35540 0.49151 0.01300
C 	C 	0.44620 0.31483 0.48579 -0.03200
C 	C 	0.41819 0.35222 0.47235 -0.03000
C 	C 	0.45552 0.43080 0.46486 0.01100
C 	C 	0.52193 0.46951 0.46889 -0.03200
C 	C 	0.55014 0.43185 0.48203 -0.03100
C 	C 	0.42393 0.47640 0.45805 0.03800
C 	C 	0.39807 0.47025 0.43445 -0.17700
C 	C 	0.53758 0.32401 0.51127 0.02000
C 	C 	0.59703 0.32783 0.50789 -0.17000
H 	H 	0.41631 0.25568 0.49287 0.05400
H 	H 	0.36683 0.32173 0.46919 0.06100
H 	H 	0.55116 0.53014 0.46309 0.05800
H 	H 	0.60096 0.46387 0.48631 0.05200
H 	H 	0.42093 0.51424 0.47271 0.04800
H 	H 	0.40775 0.43920 0.41922 0.11100
H 	H 	0.51179 0.30276 0.52944 0.04700
H 	H 	0.61602 0.33227 0.48848 0.09800
C 	C 	0.04331 0.23515 0.70876 -0.07900
C 	C 	0.04665 0.20415 0.68461 0.15000
C 	C 	0.02199 0.22147 0.66256 -0.09000
C 	C 	0.99091 0.26607 0.66460 0.03700
C 	C 	0.98708 0.29634 0.68886 0.09800
C 	C 	0.01412 0.28180 0.71064 -0.01700
H 	H 	0.02385 0.19668 0.64407 0.08900
C 	C 	0.95390 0.27016 0.64240 0.02100
H 	H 	0.00987 0.30392 0.72928 0.08700
C 	C 	0.89492 0.20456 0.63633 -0.08000
C 	C 	0.85147 0.21217 0.62022 0.15000
C 	C 	0.86660 0.28640 0.61043 -0.08800
C 	C 	0.92843 0.34996 0.61409 -0.01200
C 	C 	0.97262 0.34167 0.62962 0.09800
H 	H 	0.88144 0.14850 0.64524 0.08800
H 	H 	0.94117 0.40661 0.60583 0.06600
Br	Br	0.94068 0.35246 0.69307 -0.17400
Br	Br	0.07745 0.13060 0.68187 -0.21900
Br	Br	0.77048 0.12124 0.61294 -0.20700
Br	Br	0.05725 0.42907 0.63398 -0.19600
C 	C 	0.25044 0.16205 0.70435 -0.07900
C 	C 	0.27132 0.23285 0.69055 0.14800
C 	C 	0.31870 0.25497 0.67157 -0.07900
C 	C 	0.34727 0.20891 0.66665 0.02600
C 	C 	0.32412 0.13628 0.67925 0.09000
C 	C 	0.27527 0.11266 0.69771 -0.01000
H 	H 	0.33575 0.31029 0.66155 0.09000
C 	C 	0.40760 0.24291 0.65178 0.02600
H 	H 	0.25917 0.05782 0.70791 0.07900
C 	C 	0.46505 0.29539 0.66402 -0.08200
C 	C 	0.52303 0.32783 0.65051 0.15100
C 	C 	0.52400 0.30701 0.62452 -0.09600
C 	C 	0.46622 0.25675 0.61198 -0.00700
C 	C 	0.40796 0.22527 0.62542 0.08600
H 	H 	0.46465 0.31047 0.68415 0.09000
H 	H 	0.46671 0.24080 0.59195 0.06300
Br	Br	0.36107 0.07055 0.67253 -0.18300
Br	Br	0.23736 0.30146 0.69740 -0.19600
Br	Br	0.60054 0.39904 0.66815 -0.19100
Br	Br	0.32963 0.15793 0.60757 -0.19300
C 	C 	0.78588 0.55113 0.64398 -0.08100
C 	C 	0.76658 0.60842 0.64543 0.15400
C 	C 	0.80115 0.67504 0.66069 -0.08100
C 	C 	0.85401 0.68450 0.67508 0.02600
C 	C 	0.87114 0.62524 0.67480 0.09000
C 	C 	0.83727 0.55911 0.65915 -0.01000
H 	H 	0.78674 0.71946 0.66145 0.08900
C 	C 	0.89007 0.75574 0.69089 0.02700
H 	H 	0.85167 0.51468 0.65842 0.07500
C 	C 	0.86564 0.76103 0.71499 -0.08000
C 	C 	0.89872 0.82826 0.73016 0.15400
C 	C 	0.95732 0.89070 0.72136 -0.08700
C 	C 	0.98089 0.88635 0.69695 0.00100
C 	C 	0.94723 0.81958 0.68157 0.08700
H 	H 	0.82095 0.71273 0.72196 0.09300
H 	H 	0.02594 0.93430 0.69010 0.06700
Br	Br	0.94053 0.63364 0.69566 -0.16700
Br	Br	0.69144 0.59515 0.62767 -0.20200
Br	Br	0.86330 0.83356 0.76293 -0.18300
Br	Br	0.98002 0.81654 0.64796 -0.18400
C 	C 	0.96685 0.53183 0.01324 0.03700
C 	C 	0.02572 0.60191 0.01279 -0.04900
C 	C 	0.05173 0.64388 0.03558 -0.02200
C 	C 	0.02073 0.61430 0.05937 0.01500
C 	C 	0.96241 0.54381 0.05992 -0.01100
C 	C 	0.93596 0.50215 0.03712 -0.03400
C 	C 	0.04460 0.66145 0.08335 0.03200
C 	C 	0.11017 0.70562 0.08947 -0.16400
C 	C 	0.93315 0.49873 0.98846 0.02100
C 	C 	0.87735 0.42570 0.98722 -0.16100
H 	H 	0.04977 0.62589 0.99455 0.06100
H 	H 	0.09523 0.70010 0.03466 0.05300
H 	H 	0.93647 0.52252 0.07796 0.06900
H 	H 	0.89008 0.44888 0.03794 0.06000
H 	H 	0.01054 0.66871 0.09528 0.04800
H 	H 	0.12535 0.75511 0.10246 0.10100
H 	H 	0.94596 0.53734 0.97178 0.06500
H 	H 	0.87601 0.37495 0.99631 0.10100
C 	C 	0.43728 0.96309 0.02579 0.01100
C 	C 	0.44964 0.03269 0.03824 -0.02300
C 	C 	0.47952 0.10387 0.02485 -0.03200
C 	C 	0.49882 0.10624 0.99905 0.01500
C 	C 	0.48574 0.03644 0.98654 -0.02200
C 	C 	0.45548 0.96527 0.99988 -0.04100
C 	C 	0.53218 0.18111 0.98477 0.01800
C 	C 	0.58433 0.24709 0.99574 -0.15700
C 	C 	0.40771 0.88875 0.04034 0.01400
C 	C 	0.35280 0.82270 0.03090 -0.15100
H 	H 	0.43561 0.03149 0.05824 0.05600
H 	H 	0.48717 0.15684 0.03446 0.05200
H 	H 	0.50000 0.03756 0.96659 0.05400
H 	H 	0.44700 0.91204 0.99019 0.05300
H 	H 	0.52372 0.18039 0.96408 0.04600
H 	H 	0.58654 0.25604 0.01652 0.09400
H 	H 	0.42448 0.88872 0.05985 0.06300
H 	H 	0.33541 0.82446 0.01164 0.09000
C 	C 	0.47382 0.47822 0.96724 0.01100
C 	C 	0.48504 0.55515 0.97045 -0.02700
C 	C 	0.43699 0.56831 0.98054 -0.03300
C 	C 	0.37777 0.50490 0.98787 0.01700
C 	C 	0.36486 0.42819 0.98285 -0.03100
C 	C 	0.41277 0.41495 0.97264 -0.02700
C 	C 	0.33017 0.51935 0.00132 0.01600
C 	C 	0.30219 0.48090 0.02467 -0.15300
C 	C 	0.52820 0.46347 0.96372 0.03900
C 	C 	0.57556 0.50465 0.94654 -0.18500
H 	H 	0.53197 0.60461 0.96649 0.05500
H 	H 	0.44681 0.62780 0.98376 0.05200
H 	H 	0.31835 0.37882 0.98745 0.05800
H 	H 	0.40335 0.35540 0.97000 0.06000
H 	H 	0.32252 0.56649 0.99442 0.05100
H 	H 	0.31157 0.43527 0.03175 0.09400
H 	H 	0.52978 0.41876 0.97570 0.04100
H 	H 	0.56886 0.53967 0.93183 0.10700
C 	C 	0.85929 0.42358 0.87587 -0.08900
C 	C 	0.84252 0.38488 0.85179 0.14700
C 	C 	0.88323 0.36163 0.84011 -0.07600
C 	C 	0.94161 0.37916 0.85176 0.02000
C 	C 	0.96206 0.42671 0.87394 0.09900
C 	C 	0.92082 0.44850 0.88593 -0.01000
H 	H 	0.86886 0.32853 0.82225 0.09100
C 	C 	0.97994 0.34550 0.84104 0.03800
H 	H 	0.93528 0.48135 0.90385 0.07600
C 	C 	0.01739 0.37908 0.81897 -0.09300
C 	C 	0.04879 0.34363 0.80683 0.15000
C 	C 	0.04381 0.27387 0.81725 -0.09200
C 	C 	0.00857 0.24255 0.84013 -0.01900
C 	C 	0.97593 0.27720 0.85177 0.09500
H 	H 	0.02068 0.43183 0.81077 0.09300
H 	H 	0.00516 0.18996 0.84852 0.07600
Br	Br	0.04528 0.46046 0.88852 -0.20300
Br	Br	0.76518 0.36425 0.83433 -0.16800
Br	Br	0.09505 0.39008 0.77542 -0.19900
Br	Br	0.92420 0.22872 0.88182 -0.17700
C 	C 	0.27822 0.17030 0.82134 -0.09100
C 	C 	0.27682 0.10840 0.83587 0.14900
C 	C 	0.32931 0.12196 0.85126 -0.08100
C 	C 	0.38322 0.19668 0.85250 0.02700
C 	C 	0.38386 0.25914 0.83874 0.08700
C 	C 	0.33126 0.24582 0.82342 -0.00600
H 	H 	0.32836 0.07410 0.86212 0.08800
C 	C 	0.43996 0.20850 0.86732 0.02300
H 	H 	0.33268 0.29367 0.81239 0.07100
C 	C 	0.48630 0.19513 0.85538 -0.07900
C 	C 	0.54608 0.22115 0.86710 0.15000
C 	C 	0.56024 0.26296 0.89051 -0.09100
C 	C 	0.51046 0.26510 0.90420 -0.01400
C 	C 	0.45063 0.23897 0.89258 0.08800
H 	H 	0.47681 0.16732 0.83657 0.09000
H 	H 	0.52013 0.29379 0.92288 0.05300
Br	Br	0.45695 0.36249 0.84002 -0.18800
Br	Br	0.20324 0.00549 0.83570 -0.20600
Br	Br	0.60752 0.19936 0.85087 -0.17600
Br	Br	0.38570 0.25019 0.91076 -0.21200
C 	C 	0.00384 0.95077 0.83751 -0.08700
C 	C 	0.97788 0.86926 0.83977 0.16100
C 	C 	0.95107 0.83205 0.86320 -0.08000
C 	C 	0.95051 0.87556 0.88462 0.02500
C 	C 	0.97817 0.95746 0.88262 0.09600
C 	C 	0.00427 0.99465 0.85900 -0.02700
H 	H 	0.93029 0.76906 0.86477 0.08800
C 	C 	0.91966 0.83405 0.90877 0.02400
H 	H 	0.02484 0.05760 0.85737 0.07800
C 	C 	0.95210 0.80677 0.92459 -0.07200
C 	C 	0.91736 0.74063 0.94016 0.14900
C 	C 	0.84999 0.70189 0.93988 -0.09800
C 	C 	0.81894 0.73887 0.92832 -0.01200
C 	C 	0.85338 0.80418 0.91239 0.08500
H 	H 	0.00368 0.83247 0.92301 0.08000
H 	H 	0.76716 0.71176 0.92930 0.07000
Br	Br	0.98075 0.01923 0.91183 -0.16400
Br	Br	0.97913 0.80784 0.81109 -0.17600
Br	Br	0.96217 0.70035 0.96009 -0.22200
Br	Br	0.80816 0.84610 0.89345 -0.18700
