data_crystal

_cell_length_a 20.99659
_cell_length_b 21.39700
_cell_length_c 39.01519
_cell_angle_alpha 60.70304
_cell_angle_beta  119.03606
_cell_angle_gamma 133.23821

_symmetry_space_group_name_	'P 1'
_symmetry_space_group_name_H-M	'P 1'

loop_
_symmetry_equiv_pos_as_xyz
  x,y,z

loop_
_atom_site_label
_atom_site_type_symbol
_atom_site_fract_x
_atom_site_fract_y
_atom_site_fract_z
_atom_site_charge
H 	H 	0.20342 0.59335 0.13960 0.05500
H 	H 	0.11998 0.52618 0.63329 0.05600
Co	Co	0.10638 0.06772 0.04128 1.17800
Co	Co	0.14172 0.94408 0.03775 1.17300
C 	C 	0.29169 0.12455 0.04968 0.30000
O 	O 	0.05858 0.08736 0.19187 -0.38800
C 	C 	0.06242 0.01941 0.21394 0.26600
O 	O 	0.08963 0.15688 0.03434 -0.46600
C 	C 	0.10590 0.24913 0.11417 0.31300
C 	C 	0.17912 0.85878 0.12494 0.31000
O 	O 	0.06628 0.97990 0.19785 -0.36600
O 	O 	0.14541 0.84752 0.08862 -0.41000
O 	O 	0.15741 0.89161 0.13532 -0.39100
O 	O 	0.12736 0.21419 0.10523 -0.39900
O 	O 	0.09040 0.96874 0.06056 -0.75300
O 	O 	0.26746 0.04312 0.06168 -0.40400
O 	O 	0.24657 0.14299 0.05345 -0.39600
Co	Co	0.01717 0.98391 0.53738 1.18800
Co	Co	0.05032 0.85066 0.54369 1.18200
C 	C 	0.18767 0.04476 0.53232 0.30300
O 	O 	0.00716 0.08053 0.52659 -0.47000
C 	C 	0.01977 0.18952 0.59877 0.31800
C 	C 	0.13343 0.82264 0.62988 0.29900
O 	O 	0.15248 0.87355 0.59464 -0.38900
O 	O 	0.08423 0.82048 0.64353 -0.37600
O 	O 	0.04365 0.15225 0.59321 -0.39900
O 	O 	0.00574 0.88682 0.56347 -0.75300
O 	O 	0.13383 0.98105 0.51391 -0.38800
O 	O 	0.15492 0.05483 0.54923 -0.40500
C 	C 	0.07192 0.07494 0.86040 -0.05500
C 	C 	0.08846 0.09882 0.89329 0.03000
C 	C 	0.16104 0.18831 0.89812 0.07400
C 	C 	0.12920 0.13930 0.83198 0.09400
N 	N 	0.21891 0.25982 0.90192 -0.11300
N 	N 	0.17485 0.19056 0.80929 -0.12300
C 	C 	0.11310 0.05092 0.31145 -0.05000
C 	C 	0.06797 0.99126 0.25771 -0.05000
C 	C 	0.13352 0.05527 0.28046 0.00600
C 	C 	0.22314 0.12252 0.27333 0.08000
C 	C 	0.02900 0.90541 0.43296 0.02600
C 	C 	0.04982 0.92572 0.39800 -0.03700
C 	C 	0.05692 0.85611 0.47060 0.05000
C 	C 	0.10546 0.90491 0.40090 0.09900
C 	C 	0.17630 0.12247 0.33155 0.09200
N 	N 	0.07950 0.81652 0.50028 -0.15800
N 	N 	0.14978 0.88841 0.40314 -0.11300
N 	N 	0.29495 0.17597 0.26782 -0.11600
N 	N 	0.22671 0.17956 0.34761 -0.12200
C 	C 	0.13774 0.34757 0.65936 0.07100
C 	C 	0.10979 0.27565 0.64954 -0.02800
C 	C 	0.08676 0.27594 0.60918 -0.11000
H 	H 	0.09891 0.21631 0.67316 0.05300
N 	N 	0.15074 0.34160 0.69825 -0.19400
H 	H 	0.16577 0.39152 0.70596 0.09000
H 	H 	0.14256 0.28510 0.72101 0.09500
C 	C 	0.14749 0.63143 0.67193 0.06800
C 	C 	0.11766 0.68010 0.66532 -0.02400
C 	C 	0.17423 0.77332 0.65518 -0.10500
C 	C 	0.26360 0.81656 0.65530 0.13100
H 	H 	0.05022 0.64531 0.66743 0.04600
N 	N 	0.10156 0.54373 0.69052 -0.19300
H 	H 	0.31139 0.93891 0.65731 0.10000
H 	H 	0.13122 0.51066 0.70367 0.08800
H 	H 	0.03865 0.50970 0.69514 0.08500
C 	C 	0.23665 0.42675 0.16583 -0.08900
C 	C 	0.17189 0.34007 0.11977 -0.11200
C 	C 	0.21057 0.35213 0.15933 0.12800
N 	N 	0.22372 0.29260 0.19118 -0.20500
H 	H 	0.26493 0.43470 0.19640 0.05700
H 	H 	0.24692 0.29836 0.22072 0.09800
C 	C 	0.20226 0.74306 0.17388 -0.02300
C 	C 	0.24062 0.83290 0.15354 -0.10700
C 	C 	0.32578 0.88449 0.14603 0.12400
C 	C 	0.23970 0.70212 0.17983 0.06700
N 	N 	0.20955 0.61925 0.20422 -0.19400
H 	H 	0.14053 0.70372 0.18300 0.04000
H 	H 	0.15328 0.58237 0.21535 0.08600
H 	H 	0.24544 0.59343 0.21473 0.08900
N 	N 	0.26425 0.14137 0.46323 -0.20300
H 	H 	0.28432 0.15922 0.43818 0.09700
H 	H 	0.20675 0.13535 0.45809 0.10100
C 	C 	0.33967 0.70530 0.15810 0.04200
C 	C 	0.30226 0.58621 0.14046 0.04400
C 	C 	0.27451 0.62504 0.14547 -0.08500
C 	C 	0.25548 0.62864 0.65926 0.04200
C 	C 	0.21814 0.51151 0.63998 0.04500
C 	C 	0.19053 0.55271 0.64317 -0.08400
C 	C 	0.13096 0.42656 0.58845 -0.08900
C 	C 	0.15254 0.42553 0.62882 -0.02000
C 	C 	0.10060 0.35350 0.57850 0.12300
N 	N 	0.08496 0.35829 0.53944 -0.20500
H 	H 	0.09203 0.41430 0.51658 0.08900
H 	H 	0.06801 0.30748 0.53161 0.09400
C 	C 	0.28674 0.76998 0.65387 -0.08900
C 	C 	0.22911 0.67679 0.66186 -0.01300
C 	C 	0.23768 0.49640 0.13317 -0.01700
C 	C 	0.20215 0.48623 0.09327 0.06600
C 	C 	0.17038 0.40852 0.08696 -0.02100
H 	H 	0.13934 0.39912 0.05655 0.04100
C 	C 	0.31182 0.75032 0.16196 -0.01600
C 	C 	0.28469 0.10087 0.53543 -0.11200
C 	C 	0.31477 0.13116 0.50133 0.13100
H 	H 	0.32935 0.22049 0.97674 0.05900
C 	C 	0.07671 0.04248 0.96429 0.31200
O 	O 	0.14476 0.03780 0.98404 -0.41400
O 	O 	0.04647 0.05389 0.98196 -0.38100
C 	C 	0.03518 0.03540 0.92188 -0.09800
H 	H 	0.14357 0.48657 0.56499 0.05600
N 	N 	0.19759 0.55029 0.06097 -0.19300
H 	H 	0.21554 0.60602 0.06480 0.08800
C 	C 	0.03088 0.97675 0.32285 0.03600
Co	Co	0.04432 0.89386 0.10033 1.18600
H 	H 	0.17341 0.54358 0.03154 0.08500
H 	H 	0.21613 0.24341 0.18663 0.10900
N 	N 	0.10542 0.90129 0.77488 -0.10700
C 	C 	0.01597 0.96474 0.36016 0.01600
C 	C 	0.06453 0.91743 0.77647 0.08700
N 	N 	0.12916 0.91028 0.88134 -0.11600
C 	C 	0.30947 0.55130 0.64803 -0.08400
C 	C 	0.08216 0.92456 0.85231 0.09600
H 	H 	0.31986 0.07829 0.60017 0.04300
C 	C 	0.02328 0.94248 0.81600 -0.03600
C 	C 	0.01340 0.93763 0.77854 0.02300
Co	Co	0.02769 0.11027 0.07676 1.18500
N 	N 	0.32601 0.90411 0.65439 -0.20100
O 	O 	0.02351 0.20526 0.11591 -0.40800
H 	H 	0.33049 0.52231 0.64334 0.05900
O 	O 	0.01413 0.99100 0.08245 -0.57600
O 	O 	0.00973 0.84659 0.01882 -0.38600
C 	C 	0.34285 0.10170 0.57396 -0.02100
C 	C 	0.34763 0.66484 0.66899 -0.08300
H 	H 	0.34921 0.80680 0.64604 0.05700
H 	H 	0.35620 0.00587 0.13791 0.09200
C 	C 	0.35672 0.84262 0.14666 -0.08600
O 	O 	0.97596 0.72000 0.57443 -0.40500
C 	C 	0.97888 0.93044 0.43086 -0.07700
N 	N 	0.37553 0.97415 0.13592 -0.18900
Co	Co	0.97200 0.82643 0.60726 1.18200
O 	O 	0.96308 0.04110 0.67410 -0.41100
O 	O 	0.96406 0.92193 0.69330 -0.37700
C 	C 	0.96223 0.97397 0.70192 0.31000
O 	O 	0.93526 0.14926 0.59568 -0.41700
C 	C 	0.38768 0.22888 0.00121 -0.04700
C 	C 	0.38103 0.19631 0.04133 -0.10200
Co	Co	0.94627 0.04477 0.56694 1.17500
H 	H 	0.41526 0.28939 0.92981 0.09400
O 	O 	0.96863 0.96796 0.47778 -0.36300
C 	C 	0.97678 0.96599 0.81799 0.01700
C 	C 	0.95644 0.95600 0.74302 -0.08300
C 	C 	0.90452 0.97262 0.74623 0.02000
C 	C 	0.91404 0.97609 0.78365 -0.04200
C 	C 	0.84597 0.99271 0.71063 0.08100
C 	C 	0.86162 0.99412 0.78643 0.11300
N 	N 	0.79951 0.00968 0.68260 -0.15900
N 	N 	0.81991 0.00848 0.78870 -0.13000
H 	H 	0.39116 0.93706 0.65273 0.09300
H 	H 	0.41467 0.88185 0.13466 0.05400
H 	H 	0.43616 0.01281 0.12792 0.07800
H 	H 	0.40313 0.17349 0.11812 0.09500
C 	C 	0.73745 0.30626 0.01817 0.04200
C 	C 	0.64690 0.27011 0.01229 -0.08900
C 	C 	0.62661 0.31489 0.01745 0.04900
C 	C 	0.69433 0.40043 0.02270 -0.08900
C 	C 	0.78382 0.43832 0.02756 0.05000
C 	C 	0.80632 0.38982 0.02743 -0.09000
H 	H 	0.59281 0.20628 0.00512 0.05100
H 	H 	0.67777 0.43641 0.02484 0.06100
H 	H 	0.87640 0.41700 0.03417 0.05600
C 	C 	0.66818 0.22845 0.53140 0.04300
C 	C 	0.58293 0.17045 0.54030 -0.08500
C 	C 	0.55197 0.20298 0.54754 0.04400
C 	C 	0.60932 0.28988 0.55076 -0.08400
C 	C 	0.69394 0.34766 0.54271 0.04500
C 	C 	0.72062 0.31926 0.52973 -0.08500
H 	H 	0.54053 0.10092 0.54114 0.05200
H 	H 	0.58680 0.31355 0.55834 0.05900
H 	H 	0.78281 0.36657 0.51987 0.05800
C 	C 	0.43187 0.74648 0.16419 -0.08500
C 	C 	0.45804 0.70949 0.15686 0.04500
C 	C 	0.39340 0.62947 0.14563 -0.08500
H 	H 	0.48290 0.80702 0.17441 0.05500
H 	H 	0.41430 0.60027 0.14101 0.05900
C 	C 	0.37396 0.63023 0.66009 0.04500
H 	H 	0.39876 0.72103 0.68237 0.05600
Co	Co	0.98479 0.94569 0.14207 1.18500
C 	C 	0.96406 0.77730 0.04599 0.29400
Co	Co	0.94994 0.07214 0.14424 1.16400
O 	O 	0.98566 0.03778 0.11789 -0.76800
O 	O 	0.99525 0.85356 0.14667 -0.46200
C 	C 	0.81744 0.87749 0.15746 0.31900
O 	O 	0.87135 0.94223 0.17515 -0.40300
O 	O 	0.85027 0.86142 0.14376 -0.38600
C 	C 	0.86443 0.10883 0.05749 0.29800
O 	O 	0.84731 0.05317 0.09287 -0.40000
O 	O 	0.92255 0.12646 0.04279 -0.38200
O 	O 	0.95115 0.78641 0.07321 -0.37700
Co	Co	0.90059 0.88757 0.63706 1.18200
C 	C 	0.89354 0.67804 0.57551 0.31400
Co	Co	0.85630 0.01842 0.62500 1.16800
O 	O 	0.89940 0.97776 0.60702 -0.74800
O 	O 	0.92469 0.79888 0.65131 -0.46200
O 	O 	0.93345 0.92096 0.58040 -0.58200
C 	C 	0.72589 0.82096 0.64335 0.31300
C 	C 	0.95464 0.90667 0.46811 0.28900
O 	O 	0.77525 0.89014 0.65741 -0.39400
O 	O 	0.76362 0.80319 0.63392 -0.38900
O 	O 	0.94320 0.83478 0.49555 -0.39000
C 	C 	0.78326 0.05140 0.53754 0.28000
O 	O 	0.75912 0.99615 0.57176 -0.37600
O 	O 	0.84428 0.06436 0.52708 -0.37700
O 	O 	0.87454 0.70916 0.58853 -0.39100
C 	C 	0.99960 0.98833 0.85516 0.03400
C 	C 	0.94072 0.92791 0.88149 -0.04700
C 	C 	0.95610 0.95347 0.91349 0.03400
C 	C 	0.86401 0.84011 0.87535 0.09500
C 	C 	0.89033 0.89613 0.93748 0.08200
N 	N 	0.80266 0.77016 0.87031 -0.12100
N 	N 	0.83770 0.85043 0.95660 -0.10500
C 	C 	0.97105 0.90631 0.30375 -0.04100
C 	C 	0.99234 0.91197 0.27264 0.01000
C 	C 	0.88767 0.82865 0.31592 0.09400
C 	C 	0.96642 0.98998 0.35754 -0.02100
C 	C 	0.94819 0.97329 0.39285 0.00900
C 	C 	0.93394 0.03272 0.31858 0.07000
C 	C 	0.89479 0.99679 0.38965 0.10500
C 	C 	0.93892 0.83542 0.25721 0.08100
N 	N 	0.85213 0.01557 0.38706 -0.12600
N 	N 	0.90805 0.06684 0.28744 -0.11900
N 	N 	0.82109 0.76669 0.32564 -0.11900
N 	N 	0.89647 0.77412 0.24500 -0.11200
C 	C 	0.48610 0.73199 0.61880 -0.08700
C 	C 	0.46717 0.68285 0.65717 -0.01600
C 	C 	0.53008 0.66836 0.68980 0.07000
C 	C 	0.61106 0.70429 0.68337 -0.01900
C 	C 	0.63095 0.75577 0.64524 -0.11000
C 	C 	0.56540 0.76485 0.61220 0.12700
N 	N 	0.57825 0.80487 0.57404 -0.20300
H 	H 	0.43649 0.74038 0.59348 0.05700
H 	H 	0.66126 0.69701 0.70875 0.04700
N 	N 	0.51394 0.62144 0.72741 -0.19300
H 	H 	0.53195 0.81577 0.54992 0.09100
H 	H 	0.63214 0.82188 0.56775 0.09900
H 	H 	0.45680 0.59801 0.73365 0.09100
H 	H 	0.55989 0.60954 0.75117 0.09000
C 	C 	0.69856 0.78221 0.19431 -0.02100
C 	C 	0.72132 0.81682 0.15756 -0.11000
C 	C 	0.65595 0.81386 0.12089 0.12800
C 	C 	0.57510 0.78992 0.12125 -0.08900
C 	C 	0.55290 0.75721 0.15790 -0.01800
C 	C 	0.61482 0.75190 0.19491 0.07100
N 	N 	0.59462 0.71818 0.23103 -0.19400
H 	H 	0.74798 0.78300 0.22256 0.05500
H 	H 	0.52645 0.79105 0.09293 0.05400
N 	N 	0.66898 0.83102 0.08550 -0.20400
H 	H 	0.64062 0.71410 0.25814 0.09600
H 	H 	0.53364 0.69609 0.23269 0.09100
H 	H 	0.72658 0.84548 0.08436 0.10100
H 	H 	0.61916 0.82626 0.05874 0.08600
C 	C 	0.82130 0.19761 0.52468 -0.03100
C 	C 	0.75877 0.11434 0.51614 -0.10300
C 	C 	0.66709 0.08134 0.50186 0.12300
C 	C 	0.63990 0.12451 0.50350 -0.08800
C 	C 	0.70152 0.19363 0.52354 -0.01800
C 	C 	0.79400 0.22776 0.53607 0.06900
N 	N 	0.85306 0.27781 0.56354 -0.19500
H 	H 	0.89223 0.23122 0.52910 0.05300
H 	H 	0.57066 0.10253 0.49030 0.05300
N 	N 	0.60510 0.00829 0.48694 -0.21800
H 	H 	0.92189 0.30875 0.56975 0.09000
H 	H 	0.83056 0.27694 0.58256 0.08400
H 	H 	0.62457 0.97786 0.48390 0.10500
H 	H 	0.53691 0.98227 0.47750 0.09900
C 	C 	0.83686 0.52196 0.59939 -0.01900
C 	C 	0.82688 0.58814 0.56944 -0.11200
C 	C 	0.77603 0.57586 0.52996 0.12800
C 	C 	0.74387 0.50207 0.52017 -0.08800
C 	C 	0.75540 0.43664 0.54993 -0.01600
C 	C 	0.80430 0.44783 0.58978 0.06500
N 	N 	0.82029 0.38767 0.61889 -0.19300
H 	H 	0.87626 0.53153 0.62965 0.04000
H 	H 	0.70437 0.49249 0.48991 0.05800
N 	N 	0.75755 0.63457 0.50141 -0.20400
H 	H 	0.85482 0.39533 0.64845 0.08200
H 	H 	0.80080 0.33416 0.61229 0.08400
H 	H 	0.77338 0.68523 0.50886 0.10200
H 	H 	0.72357 0.62772 0.47172 0.09400
C 	C 	0.39764 0.15129 0.50678 -0.09000
C 	C 	0.45582 0.15173 0.54522 -0.01600
C 	C 	0.42776 0.12566 0.57929 0.06400
H 	H 	0.42002 0.17347 0.48058 0.05900
N 	N 	0.48186 0.12310 0.61710 -0.19400
H 	H 	0.54167 0.13299 0.62242 0.08500
H 	H 	0.46294 0.10824 0.64188 0.08100
C 	C 	0.86466 0.24224 0.01417 -0.02300
C 	C 	0.81718 0.15184 0.03403 -0.11100
C 	C 	0.73334 0.10948 0.04032 0.12700
C 	C 	0.71058 0.16059 0.03711 -0.09400
C 	C 	0.75987 0.25202 0.01905 -0.01500
C 	C 	0.83221 0.29090 0.00363 0.06000
N 	N 	0.86654 0.37156 0.97697 -0.19100
H 	H 	0.92671 0.27489 0.00709 0.04400
H 	H 	0.65418 0.12884 0.04847 0.05000
N 	N 	0.67419 0.01991 0.04883 -0.21800
H 	H 	0.92301 0.40186 0.96766 0.08600
H 	H 	0.83345 0.40151 0.96291 0.08700
H 	H 	0.68366 0.98180 0.04518 0.10900
H 	H 	0.61481 0.98826 0.05611 0.09600
C 	C 	0.89440 0.54495 0.07035 -0.08000
C 	C 	0.85274 0.53023 0.03152 -0.03300
C 	C 	0.85398 0.59908 0.99779 0.08900
C 	C 	0.88126 0.67465 0.00365 -0.04600
C 	C 	0.91859 0.68819 0.04264 -0.09300
C 	C 	0.92861 0.62376 0.07641 0.11700
N 	N 	0.97110 0.63686 0.11441 -0.20000
H 	H 	0.89565 0.49283 0.09624 0.05200
H 	H 	0.87694 0.72501 0.97758 0.06500
N 	N 	0.82660 0.59166 0.95962 -0.19700
H 	H 	0.97749 0.58860 0.13876 0.08500
H 	H 	0.99965 0.69488 0.12034 0.09400
H 	H 	0.81073 0.53825 0.95456 0.09000
H 	H 	0.82443 0.64128 0.93460 0.09700
C 	C 	0.53433 0.24091 0.06483 -0.08500
C 	C 	0.53894 0.26739 0.02486 -0.03000
C 	C 	0.46580 0.26370 0.99258 0.08800
C 	C 	0.45766 0.20967 0.07309 0.12400
N 	N 	0.45744 0.19167 0.11164 -0.20300
H 	H 	0.59208 0.24792 0.08946 0.05300
N 	N 	0.46943 0.29189 0.95342 -0.19700
H 	H 	0.51300 0.19829 0.13540 0.08500
H 	H 	0.52536 0.31566 0.94600 0.09100
