data_crystal

_cell_length_a 18.58231
_cell_length_b 18.93433
_cell_length_c 34.74846
_cell_angle_alpha 95.41497
_cell_angle_beta  95.41558
_cell_angle_gamma 126.39913

_symmetry_space_group_name_	'P 1'
_symmetry_space_group_name_H-M	'P 1'

loop_
_symmetry_equiv_pos_as_xyz
  x,y,z

loop_
_atom_site_label
_atom_site_type_symbol
_atom_site_fract_x
_atom_site_fract_y
_atom_site_fract_z
_atom_site_charge
C 	C 	0.92810 0.01950 0.98119 0.05500
C 	C 	0.02228 0.07166 0.98283 -0.06300
C 	C 	0.06631 0.03230 0.98308 0.05600
C 	C 	0.01758 0.94129 0.98394 -0.05200
C 	C 	0.92413 0.88874 0.98443 0.06000
C 	C 	0.87863 0.92764 0.98249 -0.06000
H 	H 	0.06094 0.14265 0.98281 0.07400
H 	H 	0.05219 0.91110 0.98387 0.07700
H 	H 	0.80593 0.88703 0.98180 0.07000
C 	C 	0.92057 0.01289 0.47885 0.05300
C 	C 	0.87071 0.92082 0.47745 -0.05600
C 	C 	0.91454 0.88127 0.47759 0.06000
C 	C 	0.00746 0.93241 0.47658 -0.05100
C 	C 	0.05740 0.02392 0.47610 0.05300
C 	C 	0.01405 0.06462 0.47766 -0.06700
H 	H 	0.79826 0.88047 0.47758 0.07500
H 	H 	0.04133 0.90148 0.47702 0.07700
H 	H 	0.05281 0.13583 0.47836 0.06900
Cu	Cu	0.77501 0.36046 0.96150 0.92500
Cu	Cu	0.79351 0.31463 0.05300 0.89300
Cu	Cu	0.62802 0.30678 0.00996 0.91400
Cu	Cu	0.59884 0.34564 0.93173 0.90800
C 	C 	0.70877 0.33282 0.87842 0.28900
O 	O 	0.82226 0.49066 0.96221 -0.34100
C 	C 	0.66258 0.31552 0.09123 0.28700
O 	O 	0.63268 0.28247 0.95606 -0.64200
O 	O 	0.76221 0.37174 0.01776 -0.62800
O 	O 	0.83236 0.29678 0.96096 -0.34400
O 	O 	0.88047 0.32175 0.02672 -0.38900
O 	O 	0.66652 0.36685 0.88758 -0.35500
O 	O 	0.49788 0.23548 0.00197 -0.36100
C 	C 	0.44623 0.24231 0.97631 0.31500
C 	C 	0.77578 0.51891 0.97337 0.29900
O 	O 	0.69147 0.46107 0.97782 -0.37600
O 	O 	0.47609 0.28387 0.94635 -0.37500
O 	O 	0.76440 0.33385 0.90552 -0.34600
C 	C 	0.85314 0.27238 0.99179 0.29300
O 	O 	0.63349 0.34217 0.06466 -0.35500
O 	O 	0.69157 0.26942 0.08025 -0.39700
H 	H 	0.59572 0.21806 0.94458 0.17000
H 	H 	0.79434 0.43481 0.03034 0.16500
Cu	Cu	0.59875 0.19081 0.50447 0.92700
Cu	Cu	0.63759 0.16686 0.41257 0.89500
Cu	Cu	0.65337 0.33575 0.45634 0.91500
Cu	Cu	0.61536 0.36370 0.53514 0.90700
C 	C 	0.62702 0.25399 0.58769 0.29000
O 	O 	0.46783 0.14569 0.50472 -0.34500
C 	C 	0.64855 0.30115 0.37530 0.28600
O 	O 	0.67906 0.33040 0.51011 -0.64000
O 	O 	0.58541 0.20367 0.44836 -0.62800
O 	O 	0.66025 0.13191 0.50382 -0.35000
O 	O 	0.62046 0.07668 0.43811 -0.39600
O 	O 	0.59242 0.29563 0.57874 -0.35600
O 	O 	0.72669 0.46338 0.46503 -0.36500
C 	C 	0.71673 0.51266 0.48996 0.31700
C 	C 	0.43883 0.19047 0.49284 0.30200
O 	O 	0.49746 0.27383 0.48903 -0.37600
O 	O 	0.67989 0.48502 0.52136 -0.37500
O 	O 	0.62767 0.20112 0.56032 -0.34600
C 	C 	0.67292 0.09997 0.47204 0.30200
O 	O 	0.62284 0.33278 0.40123 -0.35100
O 	O 	0.69226 0.27005 0.38725 -0.40100
H 	H 	0.74475 0.36629 0.52139 0.17200
H 	H 	0.52107 0.17311 0.43628 0.16400
C 	C 	0.74976 0.29346 0.68943 -0.03500
C 	C 	0.67891 0.26147 0.71110 0.02500
C 	C 	0.58940 0.21747 0.69120 -0.05300
C 	C 	0.57074 0.20882 0.65033 0.03100
C 	C 	0.64275 0.24794 0.62919 -0.06900
C 	C 	0.73143 0.28727 0.64866 0.01100
C 	C 	0.69876 0.28078 0.75481 0.02500
C 	C 	0.74553 0.36893 0.77479 -0.05200
C 	C 	0.75487 0.38740 0.81569 0.03200
C 	C 	0.71368 0.31671 0.83679 -0.06900
C 	C 	0.67144 0.22922 0.81722 0.01100
C 	C 	0.66457 0.21100 0.77642 -0.03500
C 	C 	0.80928 0.47917 0.83595 0.10000
C 	C 	0.62253 0.12075 0.75694 0.09900
C 	C 	0.84121 0.33258 0.70881 0.10000
C 	C 	0.47735 0.15715 0.63013 0.09800
N 	N 	0.85315 0.55273 0.85215 -0.08600
N 	N 	0.58885 0.04846 0.74132 -0.10300
N 	N 	0.40249 0.11548 0.61398 -0.08700
N 	N 	0.91447 0.36393 0.72435 -0.10100
H 	H 	0.78648 0.31493 0.63223 0.04300
H 	H 	0.53446 0.19097 0.70766 0.06300
H 	H 	0.77366 0.42297 0.75838 0.06300
H 	H 	0.64217 0.17511 0.83361 0.04100
C 	C 	0.72215 0.35746 0.27804 -0.03600
C 	C 	0.64203 0.33447 0.25492 0.02500
C 	C 	0.56648 0.30766 0.27235 -0.05400
C 	C 	0.56861 0.29942 0.31206 0.02700
C 	C 	0.64778 0.31936 0.33484 -0.07200
C 	C 	0.72490 0.35074 0.31784 0.01500
C 	C 	0.63358 0.32919 0.21168 0.02400
C 	C 	0.58762 0.24570 0.18705 -0.05400
C 	C 	0.59130 0.23995 0.14691 0.03100
C 	C 	0.64312 0.31872 0.13127 -0.07000
C 	C 	0.68281 0.40172 0.15523 0.01200
C 	C 	0.67782 0.40730 0.19530 -0.03400
C 	C 	0.54042 0.15306 0.12184 0.09300
C 	C 	0.71955 0.49339 0.21955 0.10300
C 	C 	0.80096 0.38550 0.26082 0.10000
C 	C 	0.48804 0.26680 0.32864 0.08500
N 	N 	0.49963 0.08347 0.10176 -0.09800
N 	N 	0.75300 0.56234 0.23901 -0.10000
N 	N 	0.42349 0.24066 0.34192 -0.09900
N 	N 	0.86405 0.40795 0.24699 -0.10700
H 	H 	0.78651 0.36796 0.33542 0.05500
H 	H 	0.50500 0.29040 0.25463 0.06300
H 	H 	0.55098 0.18534 0.19939 0.05900
H 	H 	0.72017 0.46215 0.14299 0.04500
C 	C 	0.80432 0.72064 0.44788 -0.07800
C 	C 	0.86390 0.78709 0.48092 -0.00200
C 	C 	0.87140 0.76324 0.51740 0.08700
C 	C 	0.82173 0.67327 0.52019 -0.01200
C 	C 	0.76321 0.60656 0.48700 -0.09500
C 	C 	0.75300 0.63058 0.45083 0.14500
Br	Br	0.66528 0.54189 0.40586 -0.21000
H 	H 	0.79690 0.73911 0.42001 0.08300
H 	H 	0.82938 0.65513 0.54812 0.06800
Br	Br	0.94761 0.85276 0.56389 -0.19200
C 	C 	0.85946 0.08489 0.44821 -0.08100
C 	C 	0.87377 0.05415 0.48102 -0.00200
C 	C 	0.82937 0.04799 0.51268 0.08200
C 	C 	0.76330 0.06200 0.50924 -0.01200
C 	C 	0.74426 0.08696 0.47522 -0.10500
C 	C 	0.79690 0.10357 0.44553 0.14400
Br	Br	0.79124 0.15903 0.40304 -0.31300
H 	H 	0.89568 0.09259 0.42433 0.08200
H 	H 	0.72655 0.05315 0.53303 0.07400
Br	Br	0.85898 0.02145 0.56101 -0.20000
C 	C 	0.21644 0.13813 0.51195 -0.07900
C 	C 	0.15657 0.07787 0.47737 0.00100
C 	C 	0.19102 0.05878 0.44691 0.07800
C 	C 	0.28289 0.09382 0.45268 -0.01100
C 	C 	0.34174 0.15077 0.48800 -0.09600
C 	C 	0.30886 0.17552 0.51717 0.14800
Br	Br	0.38905 0.26056 0.56425 -0.23400
H 	H 	0.19065 0.15390 0.53530 0.08700
H 	H 	0.30877 0.07779 0.42945 0.05400
Br	Br	0.11413 0.98720 0.39690 -0.20300
C 	C 	0.81428 0.72969 0.95037 -0.07600
C 	C 	0.87382 0.79185 0.98460 -0.00400
C 	C 	0.89877 0.76301 0.01567 0.08800
C 	C 	0.87040 0.67500 0.01089 -0.01200
C 	C 	0.81372 0.61383 0.97603 -0.09400
C 	C 	0.78311 0.64086 0.94618 0.14600
Br	Br	0.69777 0.55746 0.89970 -0.23800
H 	H 	0.79421 0.75095 0.92645 0.08700
H 	H 	0.89065 0.65370 0.03473 0.05700
Br	Br	0.96933 0.84223 0.06523 -0.21300
C 	C 	0.85216 0.07723 0.01171 -0.07700
C 	C 	0.88266 0.06261 0.97867 -0.00500
C 	C 	0.88935 0.10715 0.94727 0.08400
C 	C 	0.87887 0.17482 0.95159 -0.01400
C 	C 	0.85651 0.19538 0.98627 -0.10200
C 	C 	0.83662 0.14141 0.01522 0.14300
Br	Br	0.78043 0.14768 0.05770 -0.30500
H 	H 	0.84317 0.04069 0.03530 0.08100
H 	H 	0.88944 0.21215 0.92818 0.07500
Br	Br	0.91422 0.07720 0.89849 -0.19900
C 	C 	0.28412 0.13631 0.94381 -0.01300
C 	C 	0.34928 0.19220 0.97799 -0.09700
C 	C 	0.32088 0.19683 0.01377 0.14700
C 	C 	0.22820 0.14300 0.01524 -0.07700
C 	C 	0.16338 0.08619 0.98118 -0.00500
C 	C 	0.19149 0.08389 0.94519 0.08700
Br	Br	0.10416 0.01067 0.89750 -0.20000
H 	H 	0.30557 0.13288 0.91620 0.06500
H 	H 	0.20641 0.14618 0.04278 0.08200
Br	Br	0.40691 0.28011 0.06030 -0.21100
