data_crystal

_cell_length_a 20.17289
_cell_length_b 21.35101
_cell_length_c 31.39518
_cell_angle_alpha 60.92761
_cell_angle_beta  118.79597
_cell_angle_gamma 133.24594

_symmetry_space_group_name_	'P 1'
_symmetry_space_group_name_H-M	'P 1'

loop_
_symmetry_equiv_pos_as_xyz
  x,y,z

loop_
_atom_site_label
_atom_site_type_symbol
_atom_site_fract_x
_atom_site_fract_y
_atom_site_fract_z
_atom_site_charge
O 	O 	0.02600 0.01063 0.97817 -0.37300
O 	O 	0.04181 0.97894 0.74678 -0.32300
C 	C 	0.03549 0.02470 0.76095 0.27800
O 	O 	0.02603 0.90351 0.07719 -0.74800
O 	O 	0.02079 0.11485 0.52689 -0.44300
C 	C 	0.04837 0.98253 0.96087 0.33300
Co	Co	0.03835 0.88841 0.63015 1.18400
O 	O 	0.01968 0.08335 0.72761 -0.38200
O 	O 	0.06887 0.80428 0.58615 -0.40000
C 	C 	0.03326 0.99948 0.90571 -0.02500
C 	C 	0.04650 0.01064 0.81511 -0.11100
Co	Co	0.00302 0.08685 0.08745 1.17900
Co	Co	0.05038 0.03291 0.53855 1.17300
C 	C 	0.04488 0.97423 0.34149 -0.02100
H 	H 	0.01546 0.59618 0.21903 0.13200
O 	O 	0.06187 0.94916 0.57206 -0.73800
Co	Co	0.06855 0.01122 0.05478 1.16800
Co	Co	0.06594 0.85474 0.05707 1.17200
O 	O 	0.08223 0.12006 0.04709 -0.44400
C 	C 	0.07644 0.22097 0.13485 0.34500
O 	O 	0.04210 0.75161 0.12048 -0.39100
C 	C 	0.04385 0.22453 0.62390 0.33400
C 	C 	0.05847 0.97591 0.38962 0.11000
O 	O 	0.01043 0.89844 0.48742 -0.37800
C 	C 	0.08046 0.76675 0.16471 0.36300
O 	O 	0.09840 0.95280 0.99142 -0.37000
O 	O 	0.10131 0.18235 0.12921 -0.36800
O 	O 	0.07391 0.81664 0.17365 -0.35100
O 	O 	0.07234 0.19734 0.61049 -0.36500
C 	C 	0.10541 0.07813 0.88177 -0.06800
H 	H 	0.09503 0.97787 0.33432 0.09200
C 	C 	0.08803 0.63931 0.21741 -0.06800
F 	F 	0.08086 0.51241 0.23629 -0.41100
F 	F 	0.09674 0.38137 0.54466 -0.41600
C 	C 	0.11307 0.08393 0.83721 0.12900
Co	Co	0.12755 0.93502 0.54531 1.18800
O 	O 	0.13009 0.90925 0.45772 -0.11000
C 	C 	0.10617 0.31390 0.63254 -0.12100
C 	C 	0.11868 0.38692 0.59149 0.36600
H 	H 	0.11649 0.73683 0.69096 0.12000
N 	N 	0.13787 0.98156 0.42776 -0.01200
C 	C 	0.14500 0.29795 0.15691 -0.12300
C 	C 	0.12992 0.60193 0.22422 0.32200
C 	C 	0.13539 0.73193 0.20217 -0.11700
C 	C 	0.15138 0.46521 0.59842 -0.09800
F 	F 	0.12746 0.61710 0.69681 -0.40400
H 	H 	0.13727 0.21994 0.23325 0.10200
C 	C 	0.12529 0.32013 0.68022 -0.07200
H 	H 	0.11248 0.26336 0.71193 0.10700
H 	H 	0.16520 0.52239 0.56686 0.13500
O 	O 	0.16752 0.90649 0.67044 -0.35800
H 	H 	0.15942 0.13327 0.89943 0.09200
C 	C 	0.15523 0.39719 0.68685 0.32600
C 	C 	0.16966 0.38162 0.12477 0.36700
F 	F 	0.16870 0.39991 0.07669 -0.39900
C 	C 	0.17297 0.47202 0.64650 -0.04800
C 	C 	0.15385 0.28332 0.20754 -0.07500
F 	F 	0.17439 0.40159 0.73351 -0.40600
O 	O 	0.99708 0.01004 0.46524 -0.35700
C 	C 	0.99560 0.97454 0.39961 -0.04500
C 	C 	0.99955 0.95945 0.45282 0.33500
O 	O 	0.97573 0.06249 0.21765 -0.38500
C 	C 	0.96777 0.98987 0.24917 0.32300
Co	Co	0.97655 0.07994 0.58629 1.19000
C 	C 	0.24275 0.02322 0.08101 0.30200
O 	O 	0.98873 0.19101 0.12036 -0.35900
O 	O 	0.20193 0.93757 0.09220 -0.32100
O 	O 	0.20711 0.05342 0.08545 -0.36700
C 	C 	0.23571 0.12989 0.52402 0.36700
C 	C 	0.22127 0.91756 0.65076 0.34600
O 	O 	0.95802 0.17283 0.62873 -0.38400
O 	O 	0.23665 0.97183 0.60677 -0.35300
O 	O 	0.19241 0.06562 0.50388 -0.38700
O 	O 	0.19261 0.12537 0.54723 -0.40000
N 	N 	0.18954 0.16421 0.81498 -0.02600
O 	O 	0.21446 0.24067 0.81178 -0.05100
O 	O 	0.23832 0.16103 0.80116 -0.05900
O 	O 	0.22061 0.05641 0.42595 -0.07800
C 	C 	0.34697 0.83259 0.66820 -0.11100
C 	C 	0.18128 0.76385 0.68503 -0.06600
C 	C 	0.24875 0.85658 0.67259 -0.12400
C 	C 	0.33404 0.88966 0.66756 0.36200
F 	F 	0.40245 0.97833 0.65857 -0.40300
H 	H 	0.41156 0.86053 0.66154 0.12900
C 	C 	0.19029 0.44495 0.14115 -0.11300
H 	H 	0.20843 0.50892 0.11566 0.12100
C 	C 	0.72572 0.28660 0.02389 0.19200
N 	N 	0.64378 0.22101 0.03881 -0.11000
C 	C 	0.61418 0.23721 0.06041 0.18900
N 	N 	0.66731 0.31817 0.06828 -0.13600
C 	C 	0.74669 0.38522 0.05166 0.18800
N 	N 	0.77657 0.36990 0.02928 -0.12500
C 	C 	0.72051 0.28431 0.54667 0.19400
N 	N 	0.79419 0.35991 0.56330 -0.10000
C 	C 	0.77757 0.40287 0.57350 0.19400
N 	N 	0.68871 0.36962 0.56800 -0.12500
C 	C 	0.61602 0.29717 0.54974 0.20000
N 	N 	0.63165 0.25523 0.53836 -0.13700
C 	C 	0.26402 0.62039 0.21821 0.18900
N 	N 	0.35781 0.67253 0.22222 -0.12100
C 	C 	0.39696 0.64079 0.22156 0.19100
N 	N 	0.34395 0.55515 0.22113 -0.13300
C 	C 	0.24986 0.50561 0.21155 0.19800
N 	N 	0.20897 0.53807 0.20996 -0.10700
C 	C 	0.29492 0.68136 0.67856 0.19200
N 	N 	0.38512 0.71052 0.69087 -0.13400
C 	C 	0.40563 0.66770 0.68426 0.20100
N 	N 	0.33616 0.59325 0.66754 -0.11700
C 	C 	0.24574 0.56022 0.65748 0.19700
N 	N 	0.22414 0.60462 0.66237 -0.10400
Co	Co	0.91964 0.91826 0.16414 1.19900
Co	Co	0.97117 0.83793 0.12493 1.19800
Co	Co	0.88710 0.05990 0.14734 1.17400
C 	C 	0.86749 0.71338 0.05646 0.32900
O 	O 	0.80699 0.05316 0.07532 -0.39800
O 	O 	0.93661 0.01640 0.13062 -0.76200
C 	C 	0.84681 0.11441 0.03758 0.33800
O 	O 	0.92092 0.81510 0.17797 -0.41300
C 	C 	0.73599 0.86422 0.16215 0.35900
O 	O 	0.96627 0.95471 0.09737 -0.54700
O 	O 	0.91767 0.12815 0.03179 -0.33400
O 	O 	0.78515 0.93392 0.17879 -0.37000
O 	O 	0.77608 0.84839 0.14949 -0.35500
O 	O 	0.97552 0.94333 0.23661 -0.34000
O 	O 	0.92485 0.77884 0.02634 -0.37200
O 	O 	0.86472 0.72780 0.09261 -0.32600
Co	Co	0.96542 0.93640 0.67814 1.19800
Co	Co	0.89838 0.04376 0.67224 1.17200
C 	C 	0.98341 0.74885 0.59260 0.35900
O 	O 	0.78570 0.00404 0.61236 -0.37400
O 	O 	0.94922 0.01696 0.64327 -0.76100
C 	C 	0.79744 0.05736 0.56755 0.34100
O 	O 	0.99735 0.85583 0.69033 -0.41500
C 	C 	0.78956 0.84740 0.70394 0.36100
O 	O 	0.97991 0.96643 0.60160 -0.54800
O 	O 	0.85364 0.07378 0.54686 -0.35800
O 	O 	0.83696 0.91805 0.71933 -0.36800
O 	O 	0.82798 0.84039 0.68398 -0.36900
O 	O 	0.95451 0.76841 0.61146 -0.34600
C 	C 	0.96577 0.92693 0.88300 0.10000
C 	C 	0.97408 0.93232 0.83882 0.03300
H 	H 	0.92107 0.87658 0.82166 0.09500
N 	N 	0.88931 0.84670 0.90514 -0.01900
O 	O 	0.84046 0.84986 0.91891 -0.05200
O 	O 	0.86351 0.77033 0.90750 -0.04900
C 	C 	0.96974 0.97169 0.30245 -0.04200
C 	C 	0.90672 0.96994 0.31243 0.11100
C 	C 	0.92025 0.97173 0.36057 -0.01000
H 	H 	0.87026 0.96840 0.36766 0.08900
N 	N 	0.82765 0.96452 0.27413 -0.00800
O 	O 	0.74574 0.88846 0.27353 -0.06600
O 	O 	0.83470 0.03682 0.24504 -0.11900
C 	C 	0.56599 0.72151 0.73752 -0.10700
C 	C 	0.50289 0.70563 0.69113 -0.05700
C 	C 	0.53197 0.72206 0.65196 0.33200
C 	C 	0.62500 0.75918 0.65832 -0.05800
C 	C 	0.68992 0.78160 0.70343 -0.13200
C 	C 	0.65899 0.75838 0.74390 0.36900
F 	F 	0.72032 0.77573 0.78863 -0.42000
H 	H 	0.54315 0.70598 0.76846 0.12700
H 	H 	0.64804 0.77638 0.62697 0.11400
F 	F 	0.47096 0.70568 0.60703 -0.40400
C 	C 	0.27669 0.74040 0.67634 -0.05000
C 	C 	0.19442 0.70592 0.68618 0.32400
C 	C 	0.19473 0.42883 0.19117 -0.05500
C 	C 	0.17688 0.34755 0.22439 0.32300
F 	F 	0.18492 0.33191 0.27343 -0.40600
C 	C 	0.55248 0.68267 0.23402 -0.10800
C 	C 	0.48698 0.70214 0.20786 -0.05900
C 	C 	0.49751 0.76567 0.16177 0.32400
C 	C 	0.57362 0.81022 0.14276 -0.06600
C 	C 	0.64155 0.79394 0.17015 -0.12900
C 	C 	0.62858 0.72733 0.21493 0.36800
F 	F 	0.69364 0.71064 0.24184 -0.42200
H 	H 	0.54339 0.63168 0.26879 0.12400
H 	H 	0.58306 0.86161 0.10816 0.10600
F 	F 	0.43235 0.78223 0.13464 -0.41900
C 	C 	0.27384 0.74945 0.21119 -0.10600
C 	C 	0.22163 0.65733 0.21793 -0.05000
C 	C 	0.23147 0.78607 0.20464 0.35600
F 	F 	0.28147 0.87531 0.19513 -0.39500
H 	H 	0.34622 0.79326 0.20908 0.13400
C 	C 	0.66627 0.13498 0.55196 -0.10500
C 	C 	0.73549 0.22729 0.54373 -0.05900
C 	C 	0.81695 0.26378 0.53217 0.32900
C 	C 	0.83159 0.20770 0.53279 -0.07100
C 	C 	0.76662 0.11492 0.54650 -0.12200
C 	C 	0.68122 0.07945 0.55267 0.33000
F 	F 	0.61506 0.99033 0.56280 -0.39200
H 	H 	0.60193 0.10574 0.55952 0.11600
H 	H 	0.89627 0.23625 0.52595 0.12900
F 	F 	0.88203 0.35295 0.52070 -0.39300
C 	C 	0.86893 0.50394 0.62806 -0.10000
C 	C 	0.85301 0.49139 0.58312 -0.04600
C 	C 	0.88267 0.56481 0.54214 0.32700
C 	C 	0.91770 0.64711 0.54417 -0.06300
C 	C 	0.92753 0.65828 0.58791 -0.13000
C 	C 	0.90498 0.58664 0.63033 0.37600
F 	F 	0.91917 0.59730 0.67392 -0.41100
H 	H 	0.84718 0.44796 0.66018 0.13700
H 	H 	0.93873 0.70290 0.51187 0.10900
F 	F 	0.86997 0.55460 0.49877 -0.39900
C 	C 	0.39583 0.20013 0.57704 -0.06100
C 	C 	0.33636 0.19616 0.52898 -0.13900
C 	C 	0.37297 0.23621 0.48723 0.36900
C 	C 	0.46451 0.26876 0.49411 -0.11000
C 	C 	0.52081 0.26424 0.54257 -0.06200
C 	C 	0.48769 0.23340 0.58393 0.32900
F 	F 	0.54319 0.23199 0.63094 -0.40500
H 	H 	0.36863 0.17073 0.60943 0.10700
H 	H 	0.49129 0.29638 0.46187 0.12400
F 	F 	0.31756 0.23787 0.44022 -0.41200
C 	C 	0.85812 0.30616 0.01682 -0.10700
C 	C 	0.76166 0.26499 0.00518 -0.07900
C 	C 	0.69882 0.19053 0.98480 0.34700
C 	C 	0.72997 0.14696 0.98696 -0.04100
C 	C 	0.82427 0.17907 0.00790 -0.15100
C 	C 	0.88932 0.26484 0.01602 0.35700
F 	F 	0.98235 0.30507 0.02682 -0.39700
H 	H 	0.90845 0.36701 0.02921 0.12100
H 	H 	0.67944 0.08383 0.97699 0.10800
F 	F 	0.60668 0.15679 0.96628 -0.38900
C 	C 	0.78437 0.60159 0.01039 -0.10300
C 	C 	0.82136 0.62221 0.05647 -0.11500
C 	C 	0.83825 0.56582 0.10064 0.35700
C 	C 	0.82607 0.49463 0.09820 -0.11200
C 	C 	0.79153 0.47551 0.05192 -0.05800
C 	C 	0.77188 0.53028 0.00792 0.31200
F 	F 	0.73532 0.51118 0.96300 -0.38100
H 	H 	0.76779 0.64258 0.97622 0.15000
H 	H 	0.83844 0.45115 0.13262 0.12200
F 	F 	0.86781 0.58069 0.14593 -0.42900
C 	C 	0.35343 0.10596 0.02924 -0.11200
C 	C 	0.33830 0.08407 0.07513 -0.11100
C 	C 	0.41343 0.10615 0.11726 0.36600
C 	C 	0.50326 0.15053 0.11328 -0.11100
C 	C 	0.51865 0.17330 0.06719 -0.05700
C 	C 	0.44303 0.14988 0.02527 0.31500
F 	F 	0.45717 0.17311 0.98018 -0.37400
H 	H 	0.29528 0.08760 0.99677 0.12100
H 	H 	0.56146 0.16927 0.14569 0.11900
F 	F 	0.39905 0.08336 0.16217 -0.40500
