data_crystal

_cell_length_a 23.23652
_cell_length_b 23.56919
_cell_length_c 33.28711
_cell_angle_alpha 95.51519
_cell_angle_beta  95.51514
_cell_angle_gamma 125.93820

_symmetry_space_group_name_	'P 1'
_symmetry_space_group_name_H-M	'P 1'

loop_
_symmetry_equiv_pos_as_xyz
  x,y,z

loop_
_atom_site_label
_atom_site_type_symbol
_atom_site_fract_x
_atom_site_fract_y
_atom_site_fract_z
_atom_site_charge
C 	C 	0.05026 0.97795 0.00788 -0.08700
C 	C 	0.02269 0.00924 0.46042 0.03500
H 	H 	0.01591 0.09613 0.45707 0.04900
H 	H 	0.01296 0.91295 0.46266 0.04900
C 	C 	0.06300 0.08721 0.00514 -0.08900
H 	H 	0.07378 0.94952 0.00818 0.05400
C 	C 	0.09341 0.05053 0.00603 0.05000
H 	H 	0.09633 0.14340 0.00338 0.05400
C 	C 	0.10012 0.05325 0.46452 -0.02000
H 	H 	0.00567 0.15038 0.06418 0.03500
C 	C 	0.98585 0.03928 0.45652 -0.07000
C 	C 	0.98898 0.05077 0.00576 0.04300
C 	C 	0.97648 0.94147 0.00849 0.04200
C 	C 	0.94588 0.97791 0.00758 -0.08300
H 	H 	0.88863 0.94959 0.00786 0.05300
C 	C 	0.91024 0.99613 0.45200 0.04100
C 	C 	0.98419 0.93606 0.45973 -0.07100
C 	C 	0.90871 0.89243 0.45514 0.04200
C 	C 	0.87137 0.92238 0.45130 -0.07900
H 	H 	0.81290 0.88878 0.44789 0.05400
Cu	Cu	0.66205 0.25028 0.00899 0.92700
Cu	Cu	0.71216 0.25155 0.92004 0.87300
Cu	Cu	0.70173 0.36480 0.95732 0.89800
Cu	Cu	0.66576 0.38320 0.04127 0.89600
C 	C 	0.66136 0.28376 0.09322 0.25800
O 	O 	0.55624 0.20445 0.00933 -0.36800
C 	C 	0.67403 0.31644 0.86705 0.25500
O 	O 	0.71984 0.36134 0.01420 -0.63700
O 	O 	0.65029 0.25941 0.95089 -0.64100
O 	O 	0.70862 0.20144 0.00528 -0.37600
O 	O 	0.78349 0.27346 0.96467 -0.44100
O 	O 	0.66921 0.34386 0.09163 -0.36500
O 	O 	0.75628 0.46747 0.96789 -0.37800
C 	C 	0.75022 0.50404 0.99753 0.30900
C 	C 	0.52753 0.23692 0.00038 0.28300
O 	O 	0.56910 0.30359 0.99595 -0.38900
O 	O 	0.69932 0.47194 0.01971 -0.39400
O 	O 	0.68527 0.26015 0.06701 -0.35500
C 	C 	0.76753 0.22869 0.98972 0.31100
O 	O 	0.70185 0.37019 0.89820 -0.36500
O 	O 	0.66402 0.25684 0.87255 -0.40800
H 	H 	0.77188 0.39093 0.02678 0.16600
H 	H 	0.59940 0.23123 0.93631 0.17300
Cu	Cu	0.72152 0.33293 0.44360 0.92600
Cu	Cu	0.73493 0.29286 0.53423 0.87100
Cu	Cu	0.61445 0.29826 0.50160 0.89700
Cu	Cu	0.58303 0.32647 0.41889 0.89400
C 	C 	0.65161 0.29428 0.35918 0.25200
O 	O 	0.76187 0.43587 0.44031 -0.35900
C 	C 	0.67538 0.33235 0.59090 0.25500
O 	O 	0.60979 0.27504 0.44408 -0.63800
O 	O 	0.72066 0.34978 0.50293 -0.64000
O 	O 	0.77305 0.28821 0.44621 -0.36900
O 	O 	0.70734 0.21861 0.49063 -0.44000
O 	O 	0.62468 0.32891 0.36876 -0.37600
O 	O 	0.51036 0.24320 0.49595 -0.37900
C 	C 	0.46783 0.24666 0.46857 0.29100
C 	C 	0.73111 0.46409 0.45447 0.28200
O 	O 	0.66600 0.42255 0.46273 -0.39200
O 	O 	0.49399 0.29065 0.44222 -0.39600
O 	O 	0.70345 0.30203 0.38523 -0.33800
C 	C 	0.74788 0.23127 0.46288 0.28700
O 	O 	0.61782 0.30421 0.56177 -0.36500
O 	O 	0.73516 0.34393 0.58223 -0.41000
H 	H 	0.57856 0.22318 0.43275 0.16300
H 	H 	0.75016 0.40066 0.51632 0.17300
C 	C 	0.64268 0.29312 0.68801 0.11400
C 	C 	0.60452 0.25924 0.71874 -0.08900
C 	C 	0.64263 0.28762 0.75949 0.00600
C 	C 	0.70986 0.35216 0.76997 0.11500
C 	C 	0.74519 0.38967 0.73942 -0.08900
C 	C 	0.71208 0.35508 0.69835 0.00600
O 	O 	0.60996 0.27874 0.64746 -0.19300
C 	C 	0.66778 0.33761 0.63415 0.03900
C 	C 	0.72734 0.38544 0.66515 -0.05900
O 	O 	0.72974 0.38273 0.81136 -0.19300
C 	C 	0.66810 0.32860 0.82491 0.04000
C 	C 	0.61421 0.27367 0.79351 -0.05900
H 	H 	0.54774 0.21409 0.71133 0.06300
H 	H 	0.79513 0.44345 0.74726 0.06400
H 	H 	0.78136 0.42655 0.66063 0.05000
H 	H 	0.56924 0.22139 0.79748 0.04900
C 	C 	0.58716 0.21651 0.18019 0.11800
C 	C 	0.55588 0.21957 0.21351 -0.09100
C 	C 	0.58310 0.21663 0.25211 0.01200
C 	C 	0.64610 0.22246 0.25898 0.11200
C 	C 	0.68092 0.22539 0.22616 -0.08500
C 	C 	0.64648 0.21599 0.18636 0.00600
O 	O 	0.57918 0.23864 0.14423 -0.19700
C 	C 	0.63920 0.25115 0.12949 0.04600
C 	C 	0.67994 0.23842 0.15433 -0.05400
O 	O 	0.68261 0.24966 0.29967 -0.18500
C 	C 	0.63589 0.26045 0.31613 0.04500
C 	C 	0.57675 0.24111 0.28818 -0.06600
H 	H 	0.51489 0.22822 0.20994 0.06400
H 	H 	0.73443 0.23831 0.23169 0.06600
H 	H 	0.73656 0.26234 0.15463 0.05600
H 	H 	0.54525 0.26089 0.29181 0.05000
C 	C 	0.81508 0.68151 0.45428 0.03800
C 	C 	0.77460 0.64603 0.48379 -0.07000
C 	C 	0.75013 0.57613 0.48512 0.01400
C 	C 	0.87043 0.81701 0.45444 -0.02200
C 	C 	0.80794 0.57733 0.42789 0.01500
C 	C 	0.83236 0.64728 0.42663 -0.06900
C 	C 	0.84343 0.75483 0.45423 -0.02000
C 	C 	0.76587 0.54099 0.45683 -0.09000
H 	H 	0.76208 0.67253 0.50574 0.04800
H 	H 	0.71821 0.54899 0.50782 0.03000
H 	H 	0.82011 0.55087 0.40570 0.03900
H 	H 	0.86457 0.67476 0.40409 0.05000
C 	C 	0.81756 0.09940 0.44542 0.03900
C 	C 	0.74873 0.07057 0.45431 -0.07100
C 	C 	0.72432 0.11251 0.45777 0.01500
C 	C 	0.87337 0.02845 0.44893 -0.02100
C 	C 	0.83649 0.21165 0.44180 0.01600
C 	C 	0.86073 0.16952 0.43830 -0.07000
C 	C 	0.84645 0.05936 0.44694 -0.02100
C 	C 	0.76889 0.18398 0.45264 -0.09300
H 	H 	0.71478 0.01627 0.45954 0.04800
H 	H 	0.67149 0.08995 0.46539 0.03000
H 	H 	0.87140 0.26648 0.43761 0.03500
H 	H 	0.91391 0.19211 0.43119 0.04900
C 	C 	0.24204 0.13069 0.47081 0.04000
C 	C 	0.28050 0.19883 0.46096 -0.07100
C 	C 	0.35461 0.23746 0.46116 0.01800
C 	C 	0.35245 0.14041 0.48206 0.01800
C 	C 	0.27825 0.10185 0.48182 -0.07000
C 	C 	0.16489 0.08894 0.46764 -0.02300
C 	C 	0.39082 0.20802 0.47115 -0.08800
H 	H 	0.25284 0.22155 0.45262 0.04800
H 	H 	0.38377 0.29006 0.45334 0.03300
H 	H 	0.37968 0.11706 0.48980 0.03200
H 	H 	0.24876 0.04915 0.48953 0.04900
C 	C 	0.85614 0.71739 0.00412 -0.00600
C 	C 	0.84216 0.74292 0.97111 -0.03200
C 	C 	0.87940 0.81625 0.97320 -0.03500
C 	C 	0.78838 0.57908 0.99947 -0.10400
C 	C 	0.94332 0.83860 0.04178 -0.03600
C 	C 	0.90606 0.76527 0.03965 -0.03400
C 	C 	0.81949 0.64215 0.00147 0.04500
C 	C 	0.93087 0.86440 0.00833 -0.00500
H 	H 	0.80316 0.70605 0.94367 0.04300
H 	H 	0.86962 0.83576 0.94719 0.04000
H 	H 	0.98287 0.87544 0.06906 0.04000
H 	H 	0.91661 0.74576 0.06541 0.03900
C 	C 	0.88153 0.14796 0.99912 -0.00600
C 	C 	0.87008 0.10029 0.96510 -0.03500
C 	C 	0.90702 0.07029 0.96683 -0.03500
C 	C 	0.80813 0.20104 0.99474 -0.12000
C 	C 	0.96829 0.13670 0.03639 -0.03000
C 	C 	0.93122 0.16670 0.03464 -0.03700
C 	C 	0.84197 0.17731 0.99745 0.04700
C 	C 	0.95569 0.08779 0.00262 -0.00700
H 	H 	0.83208 0.08595 0.93746 0.03500
H 	H 	0.89705 0.03263 0.94061 0.03800
H 	H 	0.94063 0.20386 0.06097 0.04200
C 	C 	0.30488 0.14275 0.00074 0.03500
C 	C 	0.34176 0.19211 0.97536 -0.06700
C 	C 	0.41374 0.22070 0.97386 0.01300
C 	C 	0.16850 0.08643 0.00402 -0.02700
C 	C 	0.41152 0.14920 0.02245 0.01400
C 	C 	0.33957 0.12070 0.02388 -0.06700
C 	C 	0.23089 0.11331 0.00240 -0.01800
C 	C 	0.44935 0.20015 0.99787 -0.08800
H 	H 	0.31489 0.20866 0.95698 0.04800
H 	H 	0.44205 0.25940 0.95443 0.03200
H 	H 	0.43841 0.13323 0.04135 0.04000
H 	H 	0.31102 0.08197 0.04327 0.04900
