data_crystal

_cell_length_a 18.39081
_cell_length_b 16.24368
_cell_length_c 45.71413
_cell_angle_alpha 90.80996
_cell_angle_beta  91.12515
_cell_angle_gamma 110.90306

_symmetry_space_group_name_	'P 1'
_symmetry_space_group_name_H-M	'P 1'

loop_
_symmetry_equiv_pos_as_xyz
  x,y,z

loop_
_atom_site_label
_atom_site_type_symbol
_atom_site_fract_x
_atom_site_fract_y
_atom_site_fract_z
_atom_site_charge
O 	O 	0.09971 0.88696 0.74869 -0.69800
Ni	Ni	0.12215 0.99956 0.77187 1.10500
O 	O 	0.14625 0.77634 0.70718 -0.35600
Ni	Ni	0.19908 0.87749 0.73825 1.08600
O 	O 	0.21349 0.98052 0.71135 -0.40300
O 	O 	0.19424 0.97729 0.80271 -0.35000
O 	O 	0.04846 0.01468 0.74039 -0.69400
O 	O 	0.11630 0.10596 0.79566 -0.32100
H 	H 	0.06914 0.83438 0.75954 0.18900
H 	H 	0.07167 0.07077 0.73000 0.18600
C 	C 	0.23778 0.06228 0.72201 0.31800
C 	C 	0.07828 0.76141 0.69381 0.32700
C 	C 	0.26141 0.97278 0.79548 0.31700
C 	C 	0.04763 0.10852 0.80231 0.32700
O 	O 	0.21580 0.08074 0.74825 -0.33400
O 	O 	0.27556 0.96254 0.76776 -0.37900
Ni	Ni	0.35441 0.79670 0.41640 1.10300
O 	O 	0.33694 0.69003 0.38853 -0.69800
Ni	Ni	0.23611 0.68431 0.36892 1.10300
O 	O 	0.41572 0.63295 0.43500 -0.37900
Ni	Ni	0.31514 0.57993 0.40955 1.08100
O 	O 	0.24731 0.61838 0.43741 -0.42000
O 	O 	0.21454 0.56998 0.34540 -0.35300
O 	O 	0.26151 0.79737 0.39337 -0.70800
O 	O 	0.14553 0.70478 0.34724 -0.32900
O 	O 	0.22177 0.84384 0.33428 -0.37300
Ni	Ni	0.29599 0.90316 0.36977 1.07700
H 	H 	0.37703 0.69804 0.37371 0.19200
H 	H 	0.21879 0.79676 0.40631 0.16500
C 	C 	0.17788 0.61698 0.42893 0.26700
C 	C 	0.21190 0.49790 0.35868 0.33400
C 	C 	0.15228 0.78240 0.33692 0.30900
O 	O 	0.15952 0.61768 0.40074 -0.34000
O 	O 	0.21954 0.49842 0.38727 -0.39800
Ni	Ni	0.32120 0.62900 0.09534 1.10400
O 	O 	0.22431 0.61494 0.06948 -0.69600
Ni	Ni	0.17310 0.68183 0.09469 1.10100
O 	O 	0.23465 0.43609 0.06106 -0.38600
O 	O 	0.39203 0.71782 0.06664 -0.36100
Ni	Ni	0.15060 0.49290 0.06479 1.07200
O 	O 	0.15148 0.47518 0.10870 -0.39800
O 	O 	0.07838 0.66568 0.06842 -0.35500
O 	O 	0.27224 0.70048 0.11871 -0.70300
O 	O 	0.14362 0.76643 0.12168 -0.33700
O 	O 	0.25689 0.87975 0.11346 -0.38400
Ni	Ni	0.34249 0.82416 0.11641 1.08400
H 	H 	0.23748 0.64273 0.05022 0.15200
H 	H 	0.26265 0.68066 0.13912 0.19500
C 	C 	0.11172 0.50646 0.12628 0.32400
O 	O 	0.33954 0.82417 0.07198 -0.41000
C 	C 	0.30642 0.48141 0.05397 0.27400
C 	C 	0.04397 0.58974 0.05481 0.30300
C 	C 	0.37951 0.78726 0.05675 0.28900
C 	C 	0.19020 0.84840 0.12666 0.32400
O 	O 	0.10480 0.58357 0.12168 -0.33500
O 	O 	0.04967 0.51757 0.06557 -0.39400
Ni	Ni	0.99879 0.09708 0.24152 1.10900
O 	O 	0.08333 0.10835 0.21191 -0.31200
O 	O 	0.08345 0.17028 0.27107 -0.31600
O 	O 	0.02754 0.09015 0.31047 -0.37600
C 	C 	0.06239 0.08312 0.18435 0.31000
C 	C 	0.07339 0.16411 0.29937 0.33200
O 	O 	0.00711 0.10450 0.17124 -0.35900
C 	C 	0.98992 0.41459 0.15125 0.09000
C 	C 	0.07194 0.45253 0.15107 -0.08600
C 	C 	0.11632 0.42877 0.17236 0.10300
C 	C 	0.08074 0.35699 0.19056 0.11700
C 	C 	0.99826 0.31313 0.18913 -0.10900
Br	Br	0.14639 0.32057 0.21694 -0.12400
Br	Br	0.22658 0.49536 0.17657 -0.17700
C 	C 	0.08620 0.91233 0.13161 0.11200
C 	C 	0.15914 0.91073 0.14065 -0.09900
C 	C 	0.20296 0.97037 0.16271 0.09800
C 	C 	0.17495 0.03344 0.17456 0.11900
C 	C 	0.09697 0.02581 0.16866 -0.09300
C 	C 	0.05152 0.96129 0.14790 0.10500
Br	Br	0.03698 0.85497 0.09537 -0.15600
Br	Br	0.24628 0.13534 0.19539 -0.11100
Br	Br	0.29890 0.96274 0.17788 -0.18800
C 	C 	0.18805 0.27833 0.32345 0.11500
C 	C 	0.10705 0.24335 0.31806 -0.12100
C 	C 	0.06058 0.29220 0.32629 0.11900
C 	C 	0.09535 0.37659 0.33908 0.10700
C 	C 	0.17663 0.41296 0.34327 -0.10200
C 	C 	0.22298 0.36362 0.33572 0.09900
Br	Br	0.33442 0.41363 0.34187 -0.20000
Br	Br	0.25087 0.20905 0.31398 -0.14800
Br	Br	0.03145 0.44211 0.35146 -0.13200
C 	C 	0.95123 0.79136 0.32335 0.09900
C 	C 	0.96292 0.84034 0.29748 -0.10800
C 	C 	0.03255 0.85597 0.28218 0.11900
C 	C 	0.09005 0.82576 0.29345 0.10300
C 	C 	0.08413 0.79309 0.32204 -0.09900
C 	C 	0.01367 0.77429 0.33681 0.11000
Br	Br	0.00414 0.73135 0.37624 -0.19300
Br	Br	0.17306 0.82236 0.26883 -0.12900
Br	Br	0.05312 0.92499 0.24747 -0.24200
H 	H 	0.29787 0.00937 0.47653 0.04900
C 	C 	0.11508 0.59309 0.45023 -0.04700
C 	C 	0.06742 0.64350 0.45288 -0.00200
C 	C 	0.03915 0.49275 0.48675 0.03900
C 	C 	0.10081 0.51762 0.46714 -0.01900
C 	C 	0.02411 0.41695 0.50351 -0.03800
H 	H 	0.07801 0.70160 0.43984 0.04800
H 	H 	0.13701 0.47794 0.46478 0.04900
H 	H 	0.05942 0.37632 0.50123 0.05900
H 	H 	0.36957 0.55991 0.49014 0.03600
C 	C 	0.35727 0.19311 0.66031 0.11200
C 	C 	0.43950 0.21919 0.70420 0.10100
C 	C 	0.37311 0.17732 0.72085 0.10400
C 	C 	0.30038 0.13148 0.70654 -0.09200
C 	C 	0.29265 0.14115 0.67608 0.10000
Br	Br	0.19611 0.07738 0.65545 -0.15700
Br	Br	0.38223 0.18572 0.76287 -0.14600
Br	Br	0.99721 0.59738 0.73503 -0.17800
C 	C 	0.98869 0.63949 0.97925 -0.08400
C 	C 	0.02641 0.64946 0.00658 0.04500
C 	C 	0.99805 0.58507 0.02785 -0.10300
H 	H 	0.01214 0.68881 0.96282 0.07500
H 	H 	0.07927 0.70582 0.01089 0.03100
C 	C 	0.45614 0.84221 0.98066 -0.05900
C 	C 	0.41581 0.79485 0.00434 0.01400
C 	C 	0.42503 0.83513 0.03220 -0.06900
H 	H 	0.44726 0.81091 0.95912 0.05600
H 	H 	0.37629 0.72746 0.00090 0.02700
C 	C 	0.34596 0.33279 0.99722 -0.04800
C 	C 	0.31524 0.36121 0.02138 0.01000
H 	H 	0.32668 0.26299 0.99177 0.06100
H 	H 	0.27268 0.31307 0.03441 0.05400
Br	Br	0.05864 0.08812 0.87226 -0.13800
C 	C 	0.34513 0.08877 0.83068 0.10200
C 	C 	0.32842 0.00633 0.81648 -0.06700
C 	C 	0.38464 0.96570 0.81753 0.07900
C 	C 	0.42179 0.13863 0.83932 0.11900
Br	Br	0.26339 0.13212 0.84031 -0.12600
Br	Br	0.35820 0.84663 0.80263 -0.19100
Ni	Ni	0.62411 0.28062 0.90510 1.10200
O 	O 	0.64311 0.34899 0.86651 -0.69700
Ni	Ni	0.75142 0.35174 0.85910 1.10300
O 	O 	0.53394 0.31602 0.91930 -0.34600
O 	O 	0.54418 0.43597 0.89217 -0.36700
O 	O 	0.54200 0.17210 0.88542 -0.35500
Ni	Ni	0.64960 0.47202 0.87110 1.08000
O 	O 	0.62347 0.09086 0.91382 -0.37900
O 	O 	0.70937 0.48450 0.90989 -0.40400
O 	O 	0.77502 0.43129 0.82379 -0.35100
O 	O 	0.72464 0.27115 0.89391 -0.71300
O 	O 	0.61246 0.20635 0.94122 -0.36900
O 	O 	0.85328 0.32983 0.85467 -0.34100
O 	O 	0.78721 0.18106 0.84957 -0.38100
Ni	Ni	0.70326 0.14872 0.88219 1.07800
H 	H 	0.60945 0.31877 0.84965 0.18900
H 	H 	0.76414 0.29013 0.91005 0.17000
C 	C 	0.77560 0.47090 0.91142 0.26300
O 	O 	0.61798 0.14155 0.85150 -0.38500
C 	C 	0.53248 0.39614 0.91745 0.28600
C 	C 	0.77157 0.51044 0.82542 0.32900
C 	C 	0.54961 0.14152 0.85951 0.32700
C 	C 	0.85363 0.24944 0.85147 0.31100
C 	C 	0.61731 0.12699 0.93962 0.27200
O 	O 	0.80825 0.45560 0.88750 -0.34700
O 	O 	0.74984 0.53819 0.84986 -0.38800
Ni	Ni	0.61552 0.36653 0.61687 1.10300
O 	O 	0.69121 0.39051 0.58259 -0.69700
Ni	Ni	0.75928 0.32280 0.59574 1.10000
O 	O 	0.56836 0.45941 0.60622 -0.34000
O 	O 	0.67448 0.56626 0.58869 -0.37800
O 	O 	0.52848 0.28173 0.59033 -0.36100
Ni	Ni	0.75892 0.51399 0.57864 1.07600
O 	O 	0.50720 0.18470 0.63736 -0.38100
O 	O 	0.78937 0.52232 0.62186 -0.39000
O 	O 	0.83236 0.34858 0.56124 -0.36600
O 	O 	0.67985 0.29455 0.62828 -0.70400
O 	O 	0.54111 0.33071 0.65081 -0.34500
O 	O 	0.80820 0.23667 0.61211 -0.34000
O 	O 	0.69248 0.12252 0.60972 -0.37700
Ni	Ni	0.60875 0.17081 0.62455 1.08300
H 	H 	0.66506 0.36674 0.56356 0.15000
H 	H 	0.70358 0.31024 0.64817 0.18900
C 	C 	0.84344 0.49337 0.63102 0.33200
O 	O 	0.58232 0.17826 0.58145 -0.40200
C 	C 	0.59977 0.51952 0.58678 0.27400
C 	C 	0.86165 0.42871 0.55101 0.27700
C 	C 	0.53856 0.22212 0.57295 0.28500
C 	C 	0.76540 0.15562 0.61882 0.31600
C 	C 	0.50126 0.24660 0.65536 0.32300
O 	O 	0.84500 0.41702 0.62123 -0.34600
O 	O 	0.85883 0.49579 0.56682 -0.38200
Ni	Ni	0.03861 0.91299 0.71399 1.10800
O 	O 	0.05911 0.82767 0.68522 -0.34400
O 	O 	0.93939 0.81600 0.72823 -0.35100
O 	O 	0.88508 0.95334 0.71561 -0.37500
O 	O 	0.97320 0.94368 0.68225 -0.33600
O 	O 	0.98426 0.04035 0.79642 -0.39300
Ni	Ni	0.94449 0.00098 0.75397 1.08200
O 	O 	0.91448 0.87817 0.77027 -0.37500
C 	C 	0.91793 0.80966 0.75574 0.31800
C 	C 	0.91658 0.97147 0.68965 0.30200
O 	O 	0.43212 0.77547 0.44561 -0.35000
O 	O 	0.44775 0.87330 0.39266 -0.35200
O 	O 	0.37252 0.98739 0.39975 -0.38100
O 	O 	0.36484 0.90523 0.44089 -0.37100
O 	O 	0.38184 0.87257 0.34985 -0.38500
C 	C 	0.42613 0.69669 0.45434 0.28800
C 	C 	0.44644 0.87853 0.36401 0.32200
C 	C 	0.36838 0.97946 0.42860 0.26700
O 	O 	0.35344 0.53753 0.07300 -0.33800
O 	O 	0.44481 0.80179 0.11765 -0.38900
O 	O 	0.41593 0.65371 0.12255 -0.34000
C 	C 	0.45455 0.73560 0.13146 0.32400
Ni	Ni	0.82855 0.96956 0.24899 1.10500
O 	O 	0.91400 0.00494 0.21906 -0.69500
O 	O 	0.75826 0.87831 0.21982 -0.33500
O 	O 	0.77155 0.98653 0.18638 -0.37600
O 	O 	0.87938 0.88236 0.26341 -0.34600
Ni	Ni	0.89220 0.04631 0.18121 1.09400
O 	O 	0.79370 0.04303 0.31373 -0.36500
O 	O 	0.89501 0.16845 0.19410 -0.37100
O 	O 	0.90512 0.07962 0.26786 -0.68900
O 	O 	0.74537 0.92646 0.28033 -0.33900
Ni	Ni	0.90844 0.06079 0.30999 1.09600
H 	H 	0.93007 0.95407 0.21500 0.19000
H 	H 	0.88413 0.12708 0.26455 0.18800
C 	C 	0.96040 0.22775 0.20448 0.32600
O 	O 	0.88724 0.92911 0.31080 -0.37400
C 	C 	0.73782 0.90374 0.19474 0.31400
C 	C 	0.91032 0.88881 0.28995 0.32100
C 	C 	0.73533 0.97523 0.30225 0.32200
O 	O 	0.98975 0.21483 0.22955 -0.34700
C 	C 	0.95315 0.34887 0.17155 0.10500
Br	Br	0.84341 0.31807 0.17812 -0.14500
Br	Br	0.92783 0.45008 0.12317 -0.16300
C 	C 	0.52188 0.80384 0.17781 0.10100
C 	C 	0.52091 0.75498 0.15205 -0.10200
C 	C 	0.58975 0.74381 0.14310 0.11300
C 	C 	0.66032 0.78828 0.15841 0.09800
C 	C 	0.66295 0.84905 0.18103 -0.09500
C 	C 	0.59317 0.85352 0.19173 0.10900
Br	Br	0.59542 0.92807 0.22526 -0.16000
Br	Br	0.42529 0.80423 0.19335 -0.19300
Br	Br	0.75154 0.76137 0.14986 -0.15100
Br	Br	0.58832 0.67217 0.10892 -0.15200
Br	Br	0.94040 0.93070 0.14413 -0.29100
C 	C 	0.61710 0.00630 0.31722 0.12000
C 	C 	0.65855 0.94818 0.31616 -0.10000
C 	C 	0.62886 0.86645 0.33007 0.10500
C 	C 	0.56423 0.84799 0.34808 0.10300
C 	C 	0.52048 0.90378 0.34816 -0.09700
C 	C 	0.54791 0.98403 0.33311 0.09700
Br	Br	0.49463 0.06671 0.33630 -0.16200
Br	Br	0.65293 0.11416 0.29570 -0.14200
Br	Br	0.54141 0.75165 0.37473 -0.20400
Br	Br	0.67306 0.77721 0.32310 -0.12700
Br	Br	0.94962 0.24514 0.31911 -0.30700
Br	Br	0.84901 0.74242 0.33919 -0.13500
C 	C 	0.39339 0.05930 0.44724 -0.04700
C 	C 	0.46629 0.12515 0.44297 0.00800
C 	C 	0.50615 0.18026 0.46636 -0.04500
C 	C 	0.47345 0.16932 0.49418 0.01500
C 	C 	0.39623 0.11035 0.49755 0.02700
C 	C 	0.35559 0.05799 0.47366 -0.02300
C 	C 	0.36390 0.09778 0.52540 -0.05100
C 	C 	0.40992 0.13721 0.55000 0.01800
C 	C 	0.48796 0.19141 0.54693 -0.06600
C 	C 	0.51884 0.21034 0.51898 -0.01500
H 	H 	0.49490 0.12861 0.42229 0.06500
H 	H 	0.56428 0.22745 0.46327 0.05300
H 	H 	0.30436 0.05385 0.52817 0.06500
H 	H 	0.38598 0.12236 0.57157 0.06500
H 	H 	0.57896 0.25339 0.51668 0.02900
C 	C 	0.00648 0.61970 0.47261 -0.01200
C 	C 	0.99213 0.54459 0.48971 -0.00700
C 	C 	0.96414 0.39397 0.52363 0.00300
C 	C 	0.91857 0.44665 0.52733 -0.05900
C 	C 	0.93198 0.52123 0.50998 -0.00600
H 	H 	0.97059 0.65976 0.47461 0.04400
H 	H 	0.95461 0.33654 0.53692 0.06600
H 	H 	0.89644 0.56158 0.51258 0.03500
C 	C 	0.45729 0.68769 0.48343 -0.06500
C 	C 	0.52582 0.75251 0.49463 0.01700
C 	C 	0.56350 0.73616 0.51951 -0.05300
C 	C 	0.53340 0.65447 0.53318 0.02400
C 	C 	0.46185 0.59139 0.52302 0.01600
C 	C 	0.42355 0.60904 0.49846 -0.01500
C 	C 	0.43208 0.50941 0.53645 -0.04600
C 	C 	0.47550 0.48774 0.55839 0.00400
C 	C 	0.54877 0.54823 0.56744 -0.05900
C 	C 	0.57602 0.63302 0.55566 -0.02200
H 	H 	0.55173 0.81396 0.48336 0.05500
H 	H 	0.61759 0.78567 0.52745 0.05700
H 	H 	0.37663 0.46115 0.52914 0.05400
H 	H 	0.45358 0.42251 0.56754 0.06100
H 	H 	0.63148 0.68090 0.56321 0.05800
C 	C 	0.79577 0.97626 0.66483 0.08500
C 	C 	0.87767 0.00674 0.66703 -0.08100
C 	C 	0.92128 0.07929 0.65037 0.08500
C 	C 	0.88290 0.11556 0.63036 0.11700
C 	C 	0.80226 0.09764 0.63291 -0.11000
C 	C 	0.75875 0.02809 0.65108 0.11600
Br	Br	0.65315 0.01184 0.66119 -0.24300
Br	Br	0.73446 0.86147 0.67878 -0.14300
Br	Br	0.93855 0.17778 0.59730 -0.17000
Br	Br	0.03046 0.13962 0.65864 -0.15600
C 	C 	0.43189 0.22364 0.67369 -0.09700
Br	Br	0.34330 0.22595 0.62086 -0.16900
Br	Br	0.54109 0.26752 0.72303 -0.16900
C 	C 	0.92271 0.54337 0.67761 0.11300
C 	C 	0.91196 0.55454 0.64744 -0.09900
C 	C 	0.96775 0.62453 0.63298 0.10700
C 	C 	0.03664 0.67511 0.64790 0.11800
C 	C 	0.03960 0.67622 0.67851 -0.09000
C 	C 	0.98559 0.60614 0.69336 0.09800
Br	Br	0.84906 0.44633 0.69754 -0.16400
Br	Br	0.12380 0.75094 0.62674 -0.15600
Br	Br	0.94186 0.66732 0.59671 -0.22200
C 	C 	0.81658 0.48076 0.93965 -0.06300
C 	C 	0.78503 0.41974 0.96159 -0.00100
C 	C 	0.82247 0.42988 0.98897 -0.04500
C 	C 	0.89095 0.50242 0.99486 0.00700
C 	C 	0.92162 0.56551 0.97304 0.03700
C 	C 	0.88476 0.55360 0.94535 -0.01900
C 	C 	0.92957 0.51240 0.02214 -0.00000
H 	H 	0.73146 0.36430 0.95738 0.01100
H 	H 	0.79803 0.38155 0.00560 0.05200
H 	H 	0.90828 0.60138 0.92844 0.06700
H 	H 	0.90702 0.46335 0.03876 0.05600
C 	C 	0.59152 0.06917 0.96498 -0.04300
C 	C 	0.60703 0.10576 0.99347 -0.00100
C 	C 	0.57083 0.05629 0.01735 -0.03300
C 	C 	0.51898 0.96928 0.01309 0.00400
C 	C 	0.50678 0.93006 0.98475 0.03300
C 	C 	0.54334 0.98016 0.96078 -0.03300
C 	C 	0.47770 0.92171 0.03665 -0.00300
H 	H 	0.64538 0.17363 0.99700 0.04500
H 	H 	0.58188 0.08634 0.03909 0.05600
H 	H 	0.53164 0.95125 0.93886 0.06300
H 	H 	0.48604 0.95206 0.05836 0.04500
C 	C 	0.49202 0.42699 0.94019 -0.05600
C 	C 	0.51480 0.51735 0.94703 0.00800
C 	C 	0.48203 0.54627 0.97057 -0.04900
C 	C 	0.42636 0.48498 0.98760 0.02200
C 	C 	0.40177 0.39413 0.98030 0.02300
C 	C 	0.43420 0.36569 0.95649 -0.01200
C 	C 	0.33994 0.45131 0.02890 -0.06200
C 	C 	0.39542 0.51313 0.01196 -0.02000
H 	H 	0.55927 0.56505 0.93453 0.03700
H 	H 	0.50073 0.61618 0.97580 0.05300
H 	H 	0.41523 0.29596 0.95085 0.06800
H 	H 	0.41392 0.58283 0.01762 0.05200
C 	C 	0.01777 0.16143 0.84958 0.12200
C 	C 	0.04106 0.18024 0.82056 -0.10200
C 	C 	0.02336 0.24706 0.80637 0.10500
C 	C 	0.96285 0.27283 0.81671 0.08900
C 	C 	0.92650 0.23782 0.84303 -0.09500
C 	C 	0.95872 0.18844 0.86067 0.08800
Br	Br	0.92141 0.15723 0.89957 -0.24200
Br	Br	0.92625 0.34980 0.79376 -0.14700
Br	Br	0.07417 0.29306 0.77059 -0.17300
C 	C 	0.45884 0.01063 0.83065 0.13100
C 	C 	0.47859 0.09878 0.84093 -0.11000
Br	Br	0.44878 0.26261 0.84763 -0.20100
Br	Br	0.53047 0.94919 0.83614 -0.20300
C 	C 	0.78830 0.58046 0.77643 0.10400
C 	C 	0.81751 0.57671 0.80487 -0.09800
C 	C 	0.88878 0.64008 0.81439 0.11500
C 	C 	0.92292 0.71622 0.79815 0.09800
C 	C 	0.89156 0.72343 0.77016 -0.10100
C 	C 	0.82624 0.65305 0.75877 0.11100
Br	Br	0.78623 0.65794 0.71974 -0.13700
Br	Br	0.69569 0.48732 0.76197 -0.16000
Br	Br	0.00701 0.81407 0.81588 -0.21900
Br	Br	0.94054 0.62149 0.84945 -0.16100
