data_crystal

_cell_length_a 24.48796
_cell_length_b 24.47833
_cell_length_c 26.42192
_cell_angle_alpha 95.49625
_cell_angle_beta  95.49508
_cell_angle_gamma 125.82083

_symmetry_space_group_name_	'P 1'
_symmetry_space_group_name_H-M	'P 1'

loop_
_symmetry_equiv_pos_as_xyz
  x,y,z

loop_
_atom_site_label
_atom_site_type_symbol
_atom_site_fract_x
_atom_site_fract_y
_atom_site_fract_z
_atom_site_charge
N 	N 	0.03557 0.06508 0.96817 -0.13100
C 	C 	0.05239 0.02556 0.94617 0.09700
C 	C 	0.04652 0.02877 0.48629 0.09700
N 	N 	0.00653 0.04485 0.46412 -0.12900
C 	C 	0.27558 0.09761 0.50034 -0.08800
C 	C 	0.22823 0.11159 0.50538 0.02200
N 	N 	0.15437 0.12778 0.46658 -0.16400
C 	C 	0.12179 0.07891 0.49557 0.05600
C 	C 	0.16614 0.06756 0.52034 -0.07400
H 	H 	0.28221 0.06917 0.52604 0.05500
C 	C 	0.21491 0.07164 0.92710 0.07400
N 	N 	0.14700 0.02366 0.92294 -0.16300
C 	C 	0.11956 0.05765 0.93039 0.05800
C 	C 	0.26330 0.06079 0.94454 -0.08000
H 	H 	0.25105 0.01013 0.93711 0.05500
H 	H 	0.39287 0.08733 0.95611 0.04900
H 	H 	0.71483 0.10041 0.02247 0.04900
C 	C 	0.75186 0.12518 0.99749 -0.04200
C 	C 	0.78101 0.05531 0.46200 -0.08700
H 	H 	0.73769 0.01633 0.47740 0.05200
C 	C 	0.81545 0.07797 0.01748 -0.09100
H 	H 	0.77574 0.03411 0.03198 0.05500
C 	C 	0.80067 0.11510 0.98959 0.01800
H 	H 	0.40420 0.13667 0.49863 0.09200
C 	C 	0.23106 0.13699 0.93651 0.02300
C 	C 	0.17025 0.12822 0.93889 -0.07300
C 	C 	0.31502 0.12251 0.46168 0.07900
N 	N 	0.51520 0.11794 0.12903 -0.11200
C 	C 	0.21909 0.14753 0.47215 0.07400
N 	N 	0.37946 0.14163 0.46688 -0.15300
H 	H 	0.12959 0.13211 0.43445 0.09000
C 	C 	0.32671 0.11679 0.97378 0.01100
C 	C 	0.38782 0.12518 0.97471 -0.03800
C 	C 	0.80180 0.12284 0.46900 0.07400
H 	H 	0.70693 0.10433 0.47660 0.08300
N 	N 	0.47812 0.16484 0.75502 -0.11900
C 	C 	0.30593 0.15844 0.42842 0.01000
N 	N 	0.75831 0.13890 0.47348 -0.15400
C 	C 	0.81812 0.03973 0.43472 0.01900
H 	H 	0.16685 0.16590 0.96020 0.05700
C 	C 	0.25879 0.17271 0.43362 -0.08100
C 	C 	0.85144 0.17150 0.97103 0.06900
C 	C 	0.56426 0.16647 0.15493 0.08300
H 	H 	0.14993 0.02001 0.53265 0.05700
C 	C 	0.85749 0.17287 0.44941 0.00900
C 	C 	0.88253 0.09719 0.02380 0.07900
C 	C 	0.87454 0.09013 0.41563 0.07400
N 	N 	0.89616 0.05133 0.02422 -0.16400
O 	O 	0.53776 0.19749 0.00276 -0.35600
O 	O 	0.67745 0.18573 0.99332 -0.36100
C 	C 	0.41194 0.19006 0.43756 0.00000
C 	C 	0.34300 0.18211 0.98280 0.08000
C 	C 	0.29529 0.19335 0.96462 -0.08800
C 	C 	0.43833 0.19558 0.98382 0.00000
C 	C 	0.78486 0.19792 0.45554 -0.00700
C 	C 	0.77601 0.18809 0.98388 -0.00700
H 	H 	0.01276 0.16477 0.96628 0.05700
C 	C 	0.89382 0.15725 0.42122 -0.08100
H 	H 	0.59154 0.19482 0.25827 0.03200
H 	H 	0.25219 0.20116 0.40793 0.05300
N 	N 	0.92017 0.07626 0.41485 -0.16300
C 	C 	0.89384 0.01775 0.43371 0.05300
C 	C 	0.91893 0.19224 0.97882 -0.07500
C 	C 	0.52771 0.21115 0.74493 0.07500
C 	C 	0.73437 0.21274 0.97499 0.26300
H 	H 	0.57867 0.22181 0.90976 0.17700
O 	O 	0.71536 0.22320 0.49432 -0.43300
C 	C 	0.36792 0.20193 0.41304 -0.04500
N 	N 	0.83562 0.21522 0.96679 -0.15200
C 	C 	0.93367 0.15432 0.00577 0.00400
H 	H 	0.93713 0.19637 0.40590 0.05300
C 	C 	0.51211 0.22922 0.98798 0.26300
H 	H 	0.60158 0.22897 0.41380 0.16300
H 	H 	0.55336 0.23244 0.65000 0.04300
C 	C 	0.62551 0.22709 0.18724 0.00600
N 	N 	0.41126 0.23008 0.98927 -0.15300
C 	C 	0.84720 0.22147 0.44111 -0.04600
C 	C 	0.95523 0.07821 0.00612 0.04300
H 	H 	0.95849 0.23612 0.96424 0.04900
Cu	Cu	0.63679 0.23617 0.00123 0.92600
Cu	Cu	0.68567 0.24115 0.88940 0.87100
O 	O 	0.62651 0.24774 0.92859 -0.63900
O 	O 	0.66102 0.24288 0.07400 -0.35600
O 	O 	0.64211 0.24916 0.83003 -0.41400
O 	O 	0.52440 0.24049 0.48606 -0.37300
C 	C 	0.48719 0.23882 0.44543 0.26200
C 	C 	0.63254 0.23417 0.24120 -0.01600
H 	H 	0.38456 0.24965 0.40085 0.05000
H 	H 	0.30767 0.24407 0.97210 0.05600
C 	C 	0.76035 0.23974 0.46423 0.26200
C 	C 	0.97376 0.03527 0.98286 0.09800
H 	H 	0.97242 0.11324 0.41552 0.08800
C 	C 	0.98019 0.14231 0.99453 -0.06200
H 	H 	0.87121 0.25771 0.41546 0.05300
C 	C 	0.58960 0.26895 0.73233 0.00200
O 	O 	0.75148 0.25820 0.94523 -0.43200
H 	H 	0.87048 0.26687 0.96445 0.08300
C 	C 	0.59438 0.27389 0.68031 -0.01500
O 	O 	0.62900 0.27830 0.42932 -0.64000
H 	H 	0.43527 0.28072 0.98427 0.08700
C 	C 	0.66153 0.28396 0.11073 0.28400
Cu	Cu	0.73289 0.28985 0.54962 0.87100
O 	O 	0.51514 0.28620 0.41629 -0.38700
C 	C 	0.67654 0.28050 0.16503 -0.06300
O 	O 	0.55332 0.29385 0.98357 -0.38000
Cu	Cu	0.62348 0.29625 0.50016 0.89700
O 	O 	0.78688 0.29618 0.44524 -0.36500
O 	O 	0.61708 0.29946 0.57436 -0.38300
C 	C 	0.69004 0.29404 0.27319 -0.06200
C 	C 	0.65106 0.30669 0.82454 0.28500
C 	C 	0.68702 0.30977 0.32749 0.28400
O 	O 	0.72864 0.31113 0.36429 -0.35500
O 	O 	0.63200 0.31375 0.10040 -0.38100
C 	C 	0.64520 0.32016 0.77177 -0.06900
C 	C 	0.66734 0.32435 0.61443 0.28500
Cu	Cu	0.60612 0.32830 0.39518 0.89400
C 	C 	0.65403 0.32977 0.66732 -0.06900
O 	O 	0.72514 0.33413 0.60866 -0.41400
Cu	Cu	0.73609 0.33650 0.43703 0.92800
C 	C 	0.73718 0.33702 0.19700 -0.01600
O 	O 	0.65684 0.33896 0.33757 -0.38100
O 	O 	0.69454 0.34331 0.00958 -0.64200
H 	H 	0.85893 0.99890 0.02270 0.08900
C 	C 	0.93713 0.99948 0.45669 0.09500
C 	C 	0.83033 0.99342 0.44623 -0.06900
H 	H 	0.12480 0.97397 0.92974 0.09200
N 	N 	0.00682 0.95617 0.93822 -0.12700
Cu	Cu	0.67765 0.34951 0.93876 0.89800
Cu	Cu	0.64352 0.36526 0.04317 0.89300
O 	O 	0.73284 0.44857 0.95341 -0.37500
C 	C 	0.73396 0.48524 0.99415 0.27600
O 	O 	0.68604 0.45675 0.02279 -0.39400
O 	O 	0.67567 0.35672 0.86475 -0.38300
O 	O 	0.72526 0.34793 0.50977 -0.64100
C 	C 	0.74212 0.46078 0.44855 0.25600
O 	O 	0.67790 0.41942 0.45388 -0.38300
H 	H 	0.75106 0.39599 0.52813 0.17700
C 	C 	0.70065 0.38019 0.75881 -0.01500
C 	C 	0.70518 0.38537 0.70679 0.00200
C 	C 	0.74425 0.34407 0.25097 0.00600
H 	H 	0.72137 0.58722 0.03709 0.04700
H 	H 	0.74372 0.37087 0.02556 0.16200
N 	N 	0.01693 0.96692 0.50079 -0.12800
H 	H 	0.68614 0.53685 0.44848 0.04700
C 	C 	0.73869 0.56163 0.44358 -0.04800
H 	H 	0.74207 0.42124 0.78912 0.04300
H 	H 	0.73070 0.67177 0.46233 0.05300
C 	C 	0.76978 0.60422 0.02612 -0.03900
O 	O 	0.77426 0.43530 0.43454 -0.34800
H 	H 	0.77013 0.71968 0.02976 0.05300
C 	C 	0.76250 0.44767 0.69423 0.07500
N 	N 	0.80841 0.49758 0.68416 -0.11900
H 	H 	0.77725 0.37736 0.17993 0.03200
C 	C 	0.80575 0.40444 0.28326 0.08300
C 	C 	0.77995 0.68107 0.47076 -0.08100
C 	C 	0.78856 0.63176 0.45138 0.01100
C 	C 	0.77416 0.53386 0.44971 0.00400
H 	H 	0.81153 0.80799 0.47739 0.09000
C 	C 	0.79963 0.71341 0.00503 -0.08500
C 	C 	0.81393 0.66644 0.01122 0.00300
N 	N 	0.83240 0.59348 0.97436 -0.14900
C 	C 	0.78270 0.56054 0.00260 -0.01400
H 	H 	0.80871 0.96167 0.47509 0.05400
N 	N 	0.84261 0.58328 0.46060 -0.15100
N 	N 	0.85499 0.45280 0.30915 -0.11200
C 	C 	0.85161 0.64327 0.46221 0.08000
C 	C 	0.83769 0.74402 0.49953 0.07200
N 	N 	0.84724 0.80383 0.49794 -0.16300
C 	C 	0.85127 0.65783 0.97922 0.08500
C 	C 	0.82610 0.75332 0.96677 0.07800
N 	N 	0.84553 0.81793 0.97193 -0.16000
H 	H 	0.83861 0.56906 0.94322 0.09100
H 	H 	0.84005 0.84250 0.00347 0.08500
H 	H 	0.87826 0.57771 0.47926 0.08800
C 	C 	0.87749 0.69751 0.94085 -0.08900
C 	C 	0.86336 0.74458 0.93475 0.02300
C 	C 	0.90065 0.75531 0.51091 0.02600
N 	N 	0.90773 0.93743 0.47095 -0.13100
C 	C 	0.90890 0.70538 0.49221 -0.09000
C 	C 	0.91583 0.85335 0.50787 0.06000
C 	C 	0.89545 0.85082 0.94383 0.05700
C 	C 	0.90784 0.80679 0.92009 -0.07300
H 	H 	0.90698 0.69123 0.91611 0.05600
N 	N 	0.92885 0.96582 0.97557 -0.12900
C 	C 	0.94758 0.92084 0.49263 0.09200
C 	C 	0.94520 0.92617 0.95315 0.09400
C 	C 	0.95068 0.82512 0.51627 -0.08200
H 	H 	0.95810 0.71457 0.50059 0.05500
H 	H 	0.95600 0.82333 0.90884 0.05600
H 	H 	0.00232 0.84799 0.50970 0.06300
