data_crystal

_cell_length_a 27.58336
_cell_length_b 28.20805
_cell_length_c 26.59538
_cell_angle_alpha 95.56475
_cell_angle_beta  95.56557
_cell_angle_gamma 125.68262

_symmetry_space_group_name_	'P 1'
_symmetry_space_group_name_H-M	'P 1'

loop_
_symmetry_equiv_pos_as_xyz
  x,y,z

loop_
_atom_site_label
_atom_site_type_symbol
_atom_site_fract_x
_atom_site_fract_y
_atom_site_fract_z
_atom_site_charge
N 	N 	0.03453 0.06001 0.98981 -0.13600
C 	C 	0.05951 0.03064 0.98452 0.13600
N 	N 	0.99566 0.02941 0.43926 -0.13900
Cu	Cu	0.65092 0.25466 0.00346 0.93400
Cu	Cu	0.70768 0.26129 0.89924 0.88200
Cu	Cu	0.68804 0.34981 0.93778 0.90400
Cu	Cu	0.64566 0.36149 0.03457 0.90300
C 	C 	0.65813 0.29501 0.10938 0.39600
O 	O 	0.56100 0.21714 0.99701 -0.33900
C 	C 	0.67678 0.31153 0.82640 0.38900
O 	O 	0.69820 0.34696 0.00949 -0.63800
O 	O 	0.64793 0.26260 0.93024 -0.63800
O 	O 	0.69090 0.21429 0.00405 -0.35300
O 	O 	0.76104 0.27837 0.96015 -0.42600
O 	O 	0.63057 0.31793 0.09304 -0.36400
O 	O 	0.73134 0.43505 0.95017 -0.35700
C 	C 	0.72346 0.46568 0.98476 0.31200
C 	C 	0.53752 0.24145 0.97589 0.30700
O 	O 	0.57319 0.29709 0.97081 -0.38200
O 	O 	0.68087 0.43953 0.01282 -0.37900
O 	O 	0.66620 0.26277 0.07683 -0.34000
C 	C 	0.74352 0.23867 0.98961 0.31600
O 	O 	0.69211 0.35458 0.86442 -0.35500
O 	O 	0.67283 0.26435 0.83532 -0.39400
H 	H 	0.74085 0.37334 0.02832 0.18600
H 	H 	0.60686 0.23760 0.90835 0.19000
Cu	Cu	0.73186 0.33825 0.43320 0.93200
Cu	Cu	0.73471 0.29240 0.54156 0.88200
Cu	Cu	0.63770 0.30315 0.50245 0.90400
Cu	Cu	0.61727 0.33605 0.40272 0.90700
C 	C 	0.68108 0.31910 0.32706 0.38700
O 	O 	0.76668 0.42522 0.43508 -0.33900
C 	C 	0.68262 0.32135 0.61418 0.38700
O 	O 	0.63745 0.28944 0.43039 -0.63700
O 	O 	0.72726 0.34566 0.50715 -0.63700
O 	O 	0.77508 0.30069 0.43376 -0.34800
O 	O 	0.71487 0.23604 0.48309 -0.42700
O 	O 	0.65756 0.34641 0.34204 -0.36300
O 	O 	0.55006 0.25740 0.49273 -0.35500
C 	C 	0.51574 0.26098 0.45746 0.31100
C 	C 	0.74023 0.44747 0.45428 0.30200
O 	O 	0.68474 0.41167 0.46249 -0.38200
O 	O 	0.53947 0.30158 0.42815 -0.37300
O 	O 	0.72021 0.31878 0.35970 -0.33200
C 	C 	0.75232 0.25084 0.45086 0.30800
O 	O 	0.63685 0.30380 0.57685 -0.35400
O 	O 	0.73252 0.32940 0.60419 -0.39300
H 	H 	0.61138 0.24698 0.41356 0.18400
H 	H 	0.75200 0.38689 0.52690 0.19000
C 	C 	0.62262 0.27350 0.73511 0.27200
C 	C 	0.67183 0.31992 0.77286 -0.20300
C 	C 	0.72019 0.37091 0.75809 0.27000
C 	C 	0.72167 0.37323 0.70588 0.27100
C 	C 	0.67471 0.32474 0.66807 -0.20300
C 	C 	0.62396 0.27592 0.68292 0.26900
F 	F 	0.57767 0.22920 0.64679 -0.39600
F 	F 	0.57450 0.22501 0.74900 -0.39900
F 	F 	0.76977 0.42174 0.69200 -0.39700
F 	F 	0.76750 0.41667 0.79422 -0.39600
C 	C 	0.72219 0.32472 0.19558 0.27000
C 	C 	0.66434 0.29157 0.16411 -0.20100
C 	C 	0.61230 0.26054 0.18623 0.27700
C 	C 	0.61800 0.26613 0.23968 0.26800
C 	C 	0.67578 0.30286 0.27148 -0.19900
C 	C 	0.72797 0.33049 0.24916 0.27500
F 	F 	0.78417 0.36568 0.27941 -0.38700
F 	F 	0.77279 0.35383 0.17443 -0.40100
F 	F 	0.56730 0.23761 0.26074 -0.40900
F 	F 	0.55613 0.22657 0.15594 -0.39200
C 	C 	0.80723 0.62024 0.45345 0.00000
C 	C 	0.80012 0.63596 0.40633 -0.02500
C 	C 	0.78504 0.55986 0.45512 0.05500
C 	C 	0.76605 0.50902 0.45538 -0.09000
H 	H 	0.83913 0.65091 0.53562 0.05200
H 	H 	0.77898 0.60316 0.37101 0.05200
C 	C 	0.81136 0.14869 0.42621 -0.00200
C 	C 	0.79800 0.05730 0.43645 -0.03900
C 	C 	0.77603 0.09125 0.43732 -0.02600
C 	C 	0.79209 0.18632 0.43352 0.05500
C 	C 	0.77449 0.21646 0.44009 -0.09900
H 	H 	0.77103 0.01354 0.44627 0.05000
H 	H 	0.73228 0.07350 0.44791 0.04700
C 	C 	0.20851 0.10219 0.45257 0.02100
C 	C 	0.24473 0.16427 0.45858 -0.03800
C 	C 	0.30739 0.19660 0.46058 -0.02400
C 	C 	0.33401 0.16692 0.45657 0.00100
C 	C 	0.29783 0.10490 0.45092 -0.02300
C 	C 	0.23521 0.07259 0.44893 -0.03700
C 	C 	0.39817 0.19996 0.45708 0.05900
C 	C 	0.45189 0.22758 0.45749 -0.08300
C 	C 	0.14392 0.06877 0.44981 0.01200
C 	C 	0.08977 0.04001 0.44741 -0.03100
H 	H 	0.22439 0.18744 0.46149 0.05200
H 	H 	0.33512 0.24457 0.46494 0.05100
H 	H 	0.31812 0.08170 0.44779 0.05300
H 	H 	0.20746 0.02460 0.44435 0.05400
C 	C 	0.78105 0.58032 0.98659 0.05800
C 	C 	0.75496 0.52799 0.98581 -0.08700
C 	C 	0.83553 0.16692 0.00112 -0.00500
C 	C 	0.85842 0.16160 0.95784 -0.02500
C 	C 	0.80258 0.19191 0.99977 0.05900
C 	C 	0.77538 0.21316 0.99647 -0.10400
H 	H 	0.85232 0.17717 0.92380 0.04300
C 	C 	0.23421 0.11144 0.96499 0.02200
C 	C 	0.25242 0.07510 0.95358 -0.03700
C 	C 	0.31330 0.10062 0.95173 -0.02100
C 	C 	0.35619 0.16257 0.96124 0.00100
C 	C 	0.33758 0.19890 0.97081 -0.02200
C 	C 	0.27668 0.17336 0.97270 -0.03800
C 	C 	0.41980 0.18889 0.96551 0.06100
C 	C 	0.47334 0.21204 0.96932 -0.08800
C 	C 	0.17294 0.08519 0.97204 0.01200
C 	C 	0.12124 0.06147 0.97762 -0.03100
H 	H 	0.21972 0.02715 0.94735 0.05400
H 	H 	0.32734 0.07228 0.94418 0.05300
H 	H 	0.37051 0.24686 0.97805 0.05000
H 	H 	0.26287 0.20172 0.98130 0.05300
C 	C 	0.97600 0.03033 0.99643 0.13400
C 	C 	0.86781 0.17116 0.41243 -0.02500
C 	C 	0.88975 0.13719 0.41153 -0.03800
C 	C 	0.85537 0.08060 0.42443 0.01800
C 	C 	0.88091 0.04841 0.42877 0.01200
C 	C 	0.90389 0.02293 0.43198 -0.03700
H 	H 	0.89536 0.21544 0.40372 0.05200
H 	H 	0.93407 0.15544 0.40200 0.05200
C 	C 	0.88867 0.13554 0.95815 -0.04000
C 	C 	0.89620 0.11467 0.00173 0.02100
C 	C 	0.87407 0.12070 0.04534 -0.03900
C 	C 	0.84376 0.14681 0.04504 -0.02300
C 	C 	0.92456 0.08507 0.00085 0.01000
C 	C 	0.94843 0.06043 0.99927 -0.03100
H 	H 	0.90567 0.13103 0.92432 0.05000
H 	H 	0.87979 0.10468 0.07921 0.05200
H 	H 	0.82632 0.15091 0.07869 0.05400
C 	C 	0.81203 0.64278 0.98758 -0.00000
H 	H 	0.74309 0.64512 0.01731 0.04900
C 	C 	0.83400 0.66283 0.49899 -0.02500
H 	H 	0.88794 0.65470 0.95795 0.05600
C 	C 	0.78633 0.67055 0.00473 -0.02400
C 	C 	0.86787 0.67592 0.97131 -0.02300
C 	C 	0.02526 0.00462 0.44454 0.13600
C 	C 	0.93454 0.99577 0.43636 0.14300
N 	N 	0.02605 0.97183 0.98577 -0.13400
N 	N 	0.99386 0.94622 0.44690 -0.13500
C 	C 	0.81652 0.73134 0.00575 -0.03800
H 	H 	0.79651 0.75260 0.01917 0.05200
C 	C 	0.96765 0.94218 0.99226 0.13900
N 	N 	0.94250 0.97135 0.99750 -0.13500
C 	C 	0.93282 0.91236 0.44402 0.13800
N 	N 	0.90293 0.93706 0.43876 -0.13700
C 	C 	0.85460 0.72116 0.49730 -0.03700
C 	C 	0.84846 0.73714 0.45006 0.02000
C 	C 	0.82069 0.69425 0.40464 -0.03700
C 	C 	0.87657 0.79867 0.44757 0.01200
C 	C 	0.90023 0.85028 0.44587 -0.03100
H 	H 	0.87631 0.75411 0.53256 0.05300
H 	H 	0.81609 0.70628 0.36795 0.05200
C 	C 	0.87246 0.76448 0.98961 0.02100
C 	C 	0.89802 0.73664 0.97232 -0.03700
C 	C 	0.90414 0.82713 0.99123 0.01300
C 	C 	0.93216 0.87967 0.99198 -0.03100
H 	H 	0.94128 0.76206 0.95978 0.05500
