data_crystal

_cell_length_a 21.27249
_cell_length_b 17.88650
_cell_length_c 68.12183
_cell_angle_alpha 90.50752
_cell_angle_beta  91.66227
_cell_angle_gamma 110.95445

_symmetry_space_group_name_	'P 1'
_symmetry_space_group_name_H-M	'P 1'

loop_
_symmetry_equiv_pos_as_xyz
  x,y,z

loop_
_atom_site_label
_atom_site_type_symbol
_atom_site_fract_x
_atom_site_fract_y
_atom_site_fract_z
_atom_site_charge
Ni	Ni	0.41956 0.84544 0.00393 1.08300
O 	O 	0.25058 0.60435 0.00056 -0.40000
O 	O 	0.33608 0.87463 0.01059 -0.37900
H 	H 	0.36812 0.70075 0.00897 0.15800
C 	C 	0.15987 0.48504 0.00867 -0.06100
C 	C 	0.14324 0.40177 0.00700 0.02800
O 	O 	0.24833 0.75636 0.01390 -0.35800
C 	C 	0.56798 0.75608 0.01552 -0.07700
H 	H 	0.52255 0.62667 0.01474 0.04700
C 	C 	0.28638 0.82768 0.02094 0.27000
C 	C 	0.10922 0.35204 0.02204 -0.05300
H 	H 	0.09794 0.28808 0.02085 0.06000
C 	C 	0.61655 0.82280 0.02495 0.01300
H 	H 	0.62472 0.88268 0.01988 0.05400
C 	C 	0.55951 0.67874 0.02197 0.01100
C 	C 	0.13976 0.51760 0.02512 0.03800
H 	H 	0.15148 0.58163 0.02645 0.05500
C 	C 	0.09132 0.38520 0.03880 0.03400
C 	C 	0.10571 0.46800 0.04008 -0.05500
C 	C 	0.26607 0.86066 0.03866 -0.06900
H 	H 	0.16970 0.76387 0.04060 0.05300
H 	H 	0.35808 0.96476 0.04129 0.04400
C 	C 	0.59597 0.66861 0.03846 -0.05800
C 	C 	0.65316 0.81254 0.04140 -0.05800
H 	H 	0.58709 0.60894 0.04380 0.05600
C 	C 	0.20359 0.81994 0.04701 0.00800
C 	C 	0.30934 0.93319 0.04733 -0.00000
H 	H 	0.68865 0.86458 0.04905 0.05700
C 	C 	0.64148 0.73556 0.04856 0.02700
C 	C 	0.06152 0.33430 0.05557 0.00100
H 	H 	0.09201 0.49418 0.05292 0.05300
H 	H 	0.96932 0.35944 0.05429 0.06000
H 	H 	0.77285 0.76451 0.05803 0.05300
C 	C 	0.99881 0.33076 0.06236 -0.03100
C 	C 	0.09894 0.29630 0.06609 -0.04200
H 	H 	0.14742 0.29874 0.06101 0.04600
C 	C 	0.18436 0.85201 0.06359 -0.04900
C 	C 	0.28990 0.96517 0.06387 -0.03200
C 	C 	0.67062 0.72619 0.06780 0.00700
C 	C 	0.22730 0.92490 0.07202 0.00900
H 	H 	0.13586 0.82056 0.06979 0.05000
H 	H 	0.32351 0.02124 0.07037 0.03500
H 	H 	0.19969 0.06144 0.07354 0.05300
C 	C 	0.74065 0.74966 0.07054 -0.03600
C 	C 	0.97517 0.29259 0.07995 -0.01300
H 	H 	0.57510 0.68571 0.08207 0.04100
C 	C 	0.01387 0.25742 0.09081 -0.03000
C 	C 	0.07516 0.25799 0.08365 -0.02200
C 	C 	0.20618 0.95962 0.08918 0.03700
C 	C 	0.19266 0.03058 0.08738 -0.07000
H 	H 	0.92749 0.29184 0.08531 0.04300
C 	C 	0.76945 0.75965 0.08952 -0.02700
C 	C 	0.62934 0.70515 0.08407 -0.03900
H 	H 	0.82380 0.78269 0.09156 0.04900
H 	H 	0.10513 0.23042 0.09190 0.03600
C 	C 	0.16808 0.06047 0.10328 -0.01100
H 	H 	0.15590 0.11399 0.10160 0.03400
C 	C 	0.65822 0.71548 0.10305 -0.03000
C 	C 	0.99240 0.22421 0.10974 0.06600
C 	C 	0.19717 0.92037 0.10719 -0.05900
H 	H 	0.20805 0.86595 0.10877 0.04600
C 	C 	0.72840 0.74670 0.10582 -0.00500
H 	H 	0.62611 0.70429 0.11558 0.04000
C 	C 	0.15709 0.01978 0.12108 -0.03800
C 	C 	0.17271 0.95039 0.12309 0.00100
C 	C 	0.97544 0.19675 0.12569 -0.11100
C 	C 	0.75751 0.78162 0.12453 0.04800
C 	C 	0.12268 0.04373 0.13641 0.05900
H 	H 	0.16423 0.91855 0.13680 0.03500
C 	C 	0.78289 0.81608 0.13962 -0.10200
O 	O 	0.92034 0.08626 0.14584 -0.38300
C 	C 	0.95658 0.16371 0.14471 0.31300
C 	C 	0.09144 0.06148 0.14896 -0.12100
O 	O 	0.96570 0.21312 0.15999 -0.41600
O 	O 	0.87519 0.91702 0.15496 -0.36600
C 	C 	0.81480 0.86288 0.15670 0.29300
C 	C 	0.05091 0.07939 0.16340 0.32800
O 	O 	0.06978 0.15186 0.17113 -0.40200
O 	O 	0.00181 0.02075 0.17075 -0.41500
Ni	Ni	0.90630 0.02112 0.17126 1.09500
O 	O 	0.77716 0.86759 0.17137 -0.41000
Ni	Ni	0.00765 0.19720 0.18604 1.06500
O 	O 	0.92459 0.10792 0.19175 -0.70100
H 	H 	0.88643 0.12730 0.19150 0.15600
O 	O 	0.89889 0.95861 0.19654 -0.69200
H 	H 	0.93231 0.93177 0.19709 0.15700
Ni	Ni	0.80975 0.87929 0.20088 1.06700
O 	O 	0.76503 0.96090 0.20453 -0.39700
O 	O 	0.05903 0.19116 0.21220 -0.41300
Ni	Ni	0.92480 0.04695 0.21690 1.09600
C 	C 	0.77617 0.00305 0.22086 0.28300
C 	C 	0.03454 0.19563 0.22954 0.26200
O 	O 	0.83546 0.05838 0.22456 -0.37000
O 	O 	0.82285 0.87337 0.23069 -0.40800
O 	O 	0.97328 0.14831 0.23356 -0.36800
H 	H 	0.16083 0.20069 0.23907 0.03300
C 	C 	0.88157 0.90047 0.24056 0.29100
C 	C 	0.73160 0.97398 0.23680 -0.08500
C 	C 	0.07960 0.24200 0.24560 -0.08500
O 	O 	0.91931 0.97748 0.24074 -0.36500
C 	C 	0.14264 0.23500 0.24913 0.01200
H 	H 	0.00831 0.29275 0.25610 0.03000
C 	C 	0.69653 0.94739 0.25056 0.04500
C 	C 	0.89228 0.85352 0.25630 -0.10300
C 	C 	0.05664 0.28652 0.25876 0.01200
H 	H 	0.58915 0.97863 0.26289 0.04500
C 	C 	0.18072 0.26883 0.26621 -0.06500
H 	H 	0.22823 0.26089 0.26917 0.04700
H 	H 	0.98184 0.72844 0.27026 0.04000
C 	C 	0.60261 0.93708 0.27206 -0.03100
C 	C 	0.65683 0.91405 0.26732 0.00000
C 	C 	0.90325 0.81702 0.26991 0.04600
C 	C 	0.09497 0.32091 0.27570 -0.06400
C 	C 	0.15635 0.31060 0.27972 0.02700
C 	C 	0.67374 0.86006 0.27924 -0.03000
H 	H 	0.71562 0.84198 0.27566 0.04800
H 	H 	0.07597 0.35341 0.28604 0.04900
H 	H 	0.23049 0.46287 0.29123 0.03800
C 	C 	0.96515 0.73806 0.28463 -0.03400
C 	C 	0.91919 0.77731 0.28650 -0.00400
C 	C 	0.56607 0.90720 0.28882 -0.03800
C 	C 	0.63727 0.83017 0.29601 -0.03600
H 	H 	0.52457 0.92582 0.29248 0.04300
C 	C 	0.19197 0.33788 0.29878 0.00300
C 	C 	0.22433 0.42001 0.30283 -0.03900
C 	C 	0.99298 0.71572 0.30138 -0.02600
H 	H 	0.03094 0.68892 0.29985 0.02900
C 	C 	0.89742 0.78884 0.30512 -0.02600
H 	H 	0.86141 0.81854 0.30666 0.04900
C 	C 	0.58365 0.85416 0.30097 0.00700
H 	H 	0.65136 0.78947 0.30530 0.04900
C 	C 	0.18508 0.28287 0.31387 -0.03500
H 	H 	0.16064 0.21926 0.31084 0.04600
H 	H 	0.50792 0.70186 0.31045 0.04800
C 	C 	0.24500 0.44724 0.32209 -0.03200
H 	H 	0.26697 0.51103 0.32524 0.03300
C 	C 	0.97495 0.73259 0.32011 0.01300
C 	C 	0.92519 0.76650 0.32190 -0.03700
C 	C 	0.51013 0.74543 0.32185 -0.05700
C 	C 	0.54799 0.82688 0.31935 0.02600
C 	C 	0.20546 0.31019 0.33314 -0.02700
H 	H 	0.98334 0.59524 0.33424 0.06400
C 	C 	0.55090 0.88261 0.33428 -0.05300
H 	H 	0.58086 0.94538 0.33264 0.06300
C 	C 	0.23314 0.39256 0.33740 0.00200
C 	C 	0.01493 0.64819 0.34244 -0.07100
C 	C 	0.01368 0.72367 0.33761 0.02100
H 	H 	0.44308 0.65776 0.34043 0.03500
H 	H 	0.91019 0.77859 0.33629 0.05800
C 	C 	0.47365 0.72039 0.33888 0.00800
H 	H 	0.19661 0.26749 0.34488 0.05800
C 	C 	0.05441 0.79177 0.34842 -0.05800
H 	H 	0.05365 0.85032 0.34480 0.05400
C 	C 	0.47459 0.77666 0.35350 -0.06400
C 	C 	0.51445 0.85768 0.35127 0.01700
C 	C 	0.23856 0.42105 0.35743 0.05000
C 	C 	0.05867 0.64122 0.35740 0.01600
C 	C 	0.09810 0.78491 0.36341 0.01200
H 	H 	0.06065 0.58285 0.36058 0.04700
H 	H 	0.51651 0.90152 0.36259 0.07800
C 	C 	0.42938 0.75235 0.37016 0.27900
C 	C 	0.10155 0.70979 0.36770 -0.08000
H 	H 	0.12993 0.83813 0.37145 0.04900
Ni	Ni	0.30360 0.77455 0.38318 1.07000
O 	O 	0.42821 0.68953 0.38047 -0.34600
H 	H 	0.27423 0.62978 0.37687 0.15400
C 	C 	0.15238 0.70321 0.38208 0.27600
O 	O 	0.40316 0.80360 0.37721 -0.38100
C 	C 	0.24035 0.44654 0.37394 -0.08400
O 	O 	0.28486 0.66256 0.38915 -0.70700
O 	O 	0.14095 0.63568 0.39135 -0.35100
O 	O 	0.20485 0.76730 0.38727 -0.39100
O 	O 	0.19195 0.50805 0.39713 -0.34800
C 	C 	0.23952 0.47947 0.39315 0.28400
Ni	Ni	0.21323 0.62025 0.40962 1.10400
Ni	Ni	0.36530 0.65405 0.40345 1.10300
O 	O 	0.28308 0.47621 0.40695 -0.37700
F 	F 	0.51975 0.90399 0.40851 -0.38300
O 	O 	0.32662 0.81081 0.41180 -0.39200
O 	O 	0.43733 0.61609 0.41664 -0.32800
C 	C 	0.38595 0.81967 0.41959 0.39000
O 	O 	0.41364 0.76573 0.41632 -0.33400
F 	F 	0.04401 0.35820 0.42002 -0.38100
F 	F 	0.39007 0.38975 0.42150 -0.40000
O 	O 	0.29579 0.62382 0.42540 -0.69500
O 	O 	0.14348 0.57385 0.43041 -0.36300
C 	C 	0.42348 0.55505 0.42858 0.39400
C 	C 	0.42751 0.89732 0.42872 -0.20500
C 	C 	0.45154 0.43222 0.42978 0.26700
F 	F 	0.47049 0.31079 0.43566 -0.37600
C 	C 	0.49450 0.93551 0.42319 0.28900
C 	C 	0.53566 0.00614 0.43282 0.26400
F 	F 	0.60095 0.04089 0.42783 -0.39000
F 	F 	0.91485 0.28600 0.43226 -0.38900
C 	C 	0.47290 0.51592 0.43157 -0.19800
O 	O 	0.17400 0.46437 0.43329 -0.37100
Ni	Ni	0.27689 0.51464 0.43480 1.08800
H 	H 	0.30639 0.66382 0.43630 0.18900
C 	C 	0.13346 0.50279 0.43761 0.39000
C 	C 	0.40083 0.93349 0.44302 0.28500
C 	C 	0.02365 0.38807 0.43602 0.26300
C 	C 	0.49218 0.39189 0.43723 0.28200
O 	O 	0.64856 0.39219 0.44592 -0.37900
C 	C 	0.95765 0.35121 0.44225 0.28600
C 	C 	0.53722 0.55941 0.43978 0.28000
O 	O 	0.37801 0.54462 0.44188 -0.38000
C 	C 	0.44200 0.00461 0.45255 0.26600
F 	F 	0.33587 0.89809 0.44824 -0.38800
C 	C 	0.06747 0.45784 0.44571 -0.19100
H 	H 	0.67681 0.24138 0.45232 0.19800
C 	C 	0.59552 0.39209 0.45531 0.40200
C 	C 	0.51022 0.03972 0.44794 -0.19200
C 	C 	0.55472 0.43498 0.44649 -0.20000
C 	C 	0.57810 0.51899 0.44717 0.27200
F 	F 	0.55859 0.64044 0.44152 -0.37500
F 	F 	0.41661 0.03696 0.46703 -0.37700
C 	C 	0.04586 0.48805 0.46223 0.25600
O 	O 	0.68857 0.27547 0.46438 -0.69800
O 	O 	0.56700 0.33681 0.46829 -0.33600
O 	O 	0.54540 0.16753 0.46499 -0.32900
Ni	Ni	0.73632 0.38838 0.45907 1.08700
O 	O 	0.83439 0.27802 0.46780 -0.35400
O 	O 	0.60370 0.08486 0.47096 -0.39900
C 	C 	0.86309 0.35324 0.46284 0.39000
C 	C 	0.55701 0.10154 0.46108 0.39400
O 	O 	0.83387 0.40512 0.46672 -0.37700
C 	C 	0.98016 0.45088 0.46855 0.29200
C 	C 	0.93502 0.38386 0.45819 -0.20400
F 	F 	0.63932 0.56128 0.45561 -0.40000
F 	F 	0.08833 0.55411 0.47201 -0.39400
Ni	Ni	0.60841 0.26203 0.48218 1.10600
Ni	Ni	0.74818 0.24299 0.48339 1.10400
O 	O 	0.71934 0.41657 0.48712 -0.39900
F 	F 	0.96003 0.48050 0.48464 -0.38500
O 	O 	0.52053 0.10743 0.50329 -0.37300
O 	O 	0.66274 0.21474 0.49894 -0.70500
O 	O 	0.53226 0.23980 0.50127 -0.34700
O 	O 	0.79005 0.18806 0.50356 -0.35000
O 	O 	0.70008 0.07133 0.49908 -0.39300
Ni	Ni	0.61381 0.10000 0.50055 1.07200
H 	H 	0.67116 0.23954 0.51226 0.15300
C 	C 	0.74993 0.39647 0.50226 0.26800
C 	C 	0.75657 0.11372 0.50857 0.27800
C 	C 	0.51114 0.17136 0.51060 0.29700
O 	O 	0.78418 0.34825 0.49980 -0.34800
H 	H 	0.74945 0.95929 0.50937 0.05600
H 	H 	0.78513 0.55697 0.50800 0.06200
C 	C 	0.78425 0.07574 0.52391 -0.08700
C 	C 	0.77138 0.99306 0.52272 0.02500
C 	C 	0.75829 0.44038 0.52107 -0.06900
C 	C 	0.78203 0.52445 0.52150 0.02600
C 	C 	0.46709 0.16229 0.52671 -0.08500
H 	H 	0.77115 0.88885 0.53824 0.05900
C 	C 	0.43143 0.15479 0.54057 0.05100
C 	C 	0.78373 0.95311 0.53906 -0.06300
C 	C 	0.81445 0.11899 0.54111 0.01600
H 	H 	0.82508 0.18286 0.54217 0.03900
C 	C 	0.75424 0.39916 0.53871 0.01500
C 	C 	0.80667 0.56676 0.53917 -0.05300
H 	H 	0.73543 0.33432 0.53860 0.01800
H 	H 	0.82807 0.63158 0.53921 0.06100
C 	C 	0.39017 0.14549 0.55745 0.00200
H 	H 	0.37341 0.25670 0.55336 0.05300
C 	C 	0.80951 0.99552 0.55667 0.03500
C 	C 	0.82696 0.07900 0.55744 -0.06900
C 	C 	0.77842 0.44139 0.55635 -0.05900
C 	C 	0.80724 0.52521 0.55652 0.03000
C 	C 	0.36445 0.20488 0.56251 -0.02900
C 	C 	0.37844 0.07879 0.56939 -0.03100
H 	H 	0.39820 0.03268 0.56558 0.04500
H 	H 	0.84826 0.11247 0.57088 0.05100
H 	H 	0.88746 0.90612 0.56293 0.05200
H 	H 	0.77746 0.40886 0.56975 0.04700
C 	C 	0.32777 0.19799 0.57956 -0.03600
H 	H 	0.30850 0.24441 0.58346 0.04500
C 	C 	0.81475 0.95222 0.57457 0.00400
C 	C 	0.85910 0.91012 0.57560 -0.03600
C 	C 	0.84402 0.56852 0.57429 0.00800
C 	C 	0.82044 0.62105 0.58454 -0.03900
C 	C 	0.90190 0.55553 0.58132 -0.03600
H 	H 	0.77592 0.63161 0.57921 0.04500
H 	H 	0.92075 0.51551 0.57342 0.05400
C 	C 	0.31684 0.13174 0.59168 0.00400
C 	C 	0.34189 0.07188 0.58644 -0.03600
H 	H 	0.18512 0.11214 0.59491 0.05300
H 	H 	0.33325 0.02021 0.59561 0.04400
C 	C 	0.77725 0.95552 0.59096 -0.03800
C 	C 	0.86926 0.87633 0.59327 -0.02900
H 	H 	0.74169 0.98629 0.59016 0.04000
H 	H 	0.90608 0.84733 0.59422 0.04700
C 	C 	0.21033 0.11171 0.60893 -0.06300
H 	H 	0.97964 0.58293 0.60403 0.04800
C 	C 	0.78755 0.92185 0.60862 -0.03000
C 	C 	0.83531 0.88465 0.61002 -0.00700
C 	C 	0.85378 0.65906 0.60191 -0.03200
C 	C 	0.93525 0.59370 0.59865 -0.02900
H 	H 	0.83480 0.69877 0.60989 0.04200
C 	C 	0.91105 0.64513 0.60904 -0.00200
C 	C 	0.20444 0.08988 0.64413 -0.08400
C 	C 	0.27451 0.10821 0.64522 0.01100
C 	C 	0.31173 0.12549 0.62817 -0.06500
C 	C 	0.27945 0.12497 0.60989 0.02700
C 	C 	0.17300 0.09449 0.62597 0.01400
H 	H 	0.36531 0.13688 0.62909 0.04600
H 	H 	0.11931 0.08228 0.62496 0.03700
C 	C 	0.97159 0.71572 0.64226 -0.09000
C 	C 	0.85912 0.87021 0.62904 0.05100
C 	C 	0.88299 0.86316 0.64483 -0.10600
H 	H 	0.76084 0.92815 0.62147 0.04100
C 	C 	0.94452 0.68308 0.62710 0.04300
O 	O 	0.04961 0.82820 0.65961 -0.38000
O 	O 	0.10311 0.00165 0.65821 -0.37500
C 	C 	0.00180 0.75670 0.66026 0.28300
C 	C 	0.16320 0.05702 0.66132 0.27700
H 	H 	0.29975 0.10585 0.65911 0.03400
C 	C 	0.91679 0.86109 0.66317 0.32000
Ni	Ni	0.05700 0.92004 0.67902 1.09700
O 	O 	0.19291 0.06804 0.67899 -0.41000
O 	O 	0.98266 0.72153 0.67714 -0.40700
O 	O 	0.96761 0.92469 0.66882 -0.39100
O 	O 	0.88741 0.80533 0.67577 -0.39500
O 	O 	0.05792 0.01004 0.69768 -0.70600
H 	H 	0.03093 0.04101 0.69250 0.15700
Ni	Ni	0.93820 0.76774 0.69751 1.07000
O 	O 	0.02224 0.85893 0.70355 -0.70500
Ni	Ni	0.14865 0.08129 0.70526 1.06500
H 	H 	0.05655 0.83849 0.70895 0.15300
Ni	Ni	0.01551 0.94857 0.72119 1.09900
O 	O 	0.17483 0.98974 0.71531 -0.42400
O 	O 	0.88130 0.79804 0.71839 -0.40900
O 	O 	0.09633 0.94817 0.73867 -0.37100
O 	O 	0.12906 0.11064 0.73320 -0.40800
C 	C 	0.15742 0.96108 0.73269 0.31500
C 	C 	0.07012 0.10923 0.73955 0.29700
O 	O 	0.01532 0.04478 0.73702 -0.38600
O 	O 	0.95728 0.87374 0.74164 -0.36200
C 	C 	0.90224 0.81294 0.73684 0.29400
C 	C 	0.07043 0.16337 0.75520 -0.09900
C 	C 	0.20925 0.96720 0.74716 -0.10900
H 	H 	0.38422 0.06202 0.75807 0.04000
C 	C 	0.86070 0.76907 0.75219 -0.10600
C 	C 	0.06684 0.20313 0.76918 0.03800
C 	C 	0.36792 0.04353 0.77276 -0.03800
C 	C 	0.25188 0.97694 0.75993 0.05000
H 	H 	0.98401 0.28549 0.77294 0.05400
C 	C 	0.82942 0.73442 0.76594 0.04800
C 	C 	0.30140 0.99310 0.77575 0.00000
C 	C 	0.41271 0.07327 0.78881 -0.03500
H 	H 	0.46370 0.11339 0.78641 0.03900
C 	C 	0.05814 0.24399 0.78658 0.01200
C 	C 	0.00771 0.27733 0.78665 -0.06900
C 	C 	0.79614 0.69531 0.78317 -0.00500
C 	C 	0.76864 0.61151 0.78364 -0.03000
H 	H 	0.76477 0.57612 0.77036 0.03700
H 	H 	0.12851 0.20963 0.80447 0.05000
C 	C 	0.28078 0.96959 0.79479 -0.03100
H 	H 	0.22939 0.93074 0.79722 0.04900
C 	C 	0.08898 0.23460 0.80439 -0.04200
C 	C 	0.98385 0.29399 0.80444 0.00100
H 	H 	0.94225 0.31548 0.80435 0.03000
C 	C 	0.80035 0.74050 0.80041 -0.02600
C 	C 	0.74940 0.57307 0.80148 -0.04000
H 	H 	0.82119 0.80532 0.80015 0.04900
C 	C 	0.39108 0.05291 0.80796 -0.00300
C 	C 	0.32538 0.99951 0.81086 -0.02800
H 	H 	0.44805 0.21060 0.81795 0.05100
C 	C 	0.01050 0.27760 0.82228 -0.03000
C 	C 	0.06517 0.25121 0.82220 -0.02100
C 	C 	0.75827 0.61830 0.81900 0.00900
C 	C 	0.78164 0.70220 0.81826 -0.03600
H 	H 	0.73032 0.50825 0.80181 0.03900
C 	C 	0.46156 0.17219 0.82813 -0.06000
C 	C 	0.43657 0.08883 0.82499 0.03100
H 	H 	0.30836 0.98297 0.82558 0.05300
H 	H 	0.08704 0.23999 0.83591 0.04500
C 	C 	0.97636 0.27928 0.84072 0.04800
H 	H 	0.99595 0.40634 0.84003 0.05900
H 	H 	0.94799 0.15222 0.84544 0.05700
C 	C 	0.75141 0.57858 0.83818 0.02500
H 	H 	0.82380 0.52264 0.83215 0.04900
H 	H 	0.78836 0.73777 0.83165 0.05500
C 	C 	0.79091 0.53261 0.84289 -0.05600
C 	C 	0.50400 0.20609 0.84444 0.01100
C 	C 	0.45371 0.03965 0.83838 -0.06500
H 	H 	0.52388 0.27056 0.84655 0.04200
H 	H 	0.43451 0.97526 0.83610 0.06600
C 	C 	0.97110 0.35089 0.84753 -0.06800
C 	C 	0.94420 0.20786 0.85062 -0.06800
C 	C 	0.70923 0.59128 0.85229 -0.04900
H 	H 	0.67820 0.62626 0.84877 0.06400
C 	C 	0.52160 0.15687 0.85778 -0.06900
C 	C 	0.49572 0.07335 0.85473 0.01400
H 	H 	0.50817 0.03449 0.86501 0.07100
C 	C 	0.89795 0.27882 0.87323 -0.08400
C 	C 	0.93210 0.35074 0.86369 0.01700
C 	C 	0.90520 0.20760 0.86680 0.01500
H 	H 	0.92689 0.40614 0.86844 0.05100
H 	H 	0.87997 0.15189 0.87415 0.04300
C 	C 	0.78948 0.50111 0.86163 0.00900
C 	C 	0.70801 0.56011 0.87113 0.01200
H 	H 	0.82031 0.46574 0.86500 0.03900
C 	C 	0.56953 0.19254 0.87434 0.27200
O 	O 	0.80450 0.21010 0.89385 -0.39300
Ni	Ni	0.70239 0.19032 0.88941 1.07500
O 	O 	0.56822 0.25780 0.88330 -0.35500
H 	H 	0.72214 0.33157 0.88170 0.15300
C 	C 	0.85174 0.27785 0.88906 0.27600
O 	O 	0.60142 0.14917 0.88274 -0.37200
C 	C 	0.74899 0.51585 0.87601 -0.06700
H 	H 	0.67602 0.57145 0.88195 0.07900
F 	F 	0.58066 0.99995 0.90644 -0.39800
O 	O 	0.71429 0.30227 0.89419 -0.70800
O 	O 	0.86110 0.34379 0.89930 -0.35000
O 	O 	0.80069 0.46302 0.90186 -0.34400
C 	C 	0.75033 0.48544 0.89610 0.26700
F 	F 	0.54124 0.51388 0.90337 -0.40700
F 	F 	0.08141 0.68015 0.92850 -0.38800
C 	C 	0.56432 0.00453 0.92542 0.26100
F 	F 	0.48969 0.86856 0.92321 -0.37800
C 	C 	0.45525 0.52609 0.92344 0.27200
F 	F 	0.45145 0.58662 0.91214 -0.38300
Ni	Ni	0.78579 0.35590 0.91558 1.10200
Ni	Ni	0.63192 0.30608 0.90685 1.10400
O 	O 	0.68544 0.16175 0.91823 -0.39900
O 	O 	0.55558 0.33700 0.91835 -0.33700
C 	C 	0.62670 0.15145 0.92565 0.39600
O 	O 	0.70508 0.48756 0.90872 -0.39200
O 	O 	0.59262 0.19711 0.92036 -0.34800
F 	F 	0.94675 0.60644 0.91925 -0.38600
C 	C 	0.50085 0.48875 0.91889 0.27100
C 	C 	0.38391 0.55770 0.94812 0.37100
O 	O 	0.17845 0.62796 0.94827 -0.38300
C 	C 	0.04075 0.62977 0.94149 0.25800
C 	C 	0.51788 0.93731 0.93401 0.28600
C 	C 	0.41611 0.50387 0.94018 -0.19500
O 	O 	0.81736 0.51794 0.93755 -0.37700
O 	O 	0.70226 0.34965 0.92962 -0.69600
O 	O 	0.85397 0.41259 0.93739 -0.37400
Ni	Ni	0.71468 0.46032 0.93736 1.08400
H 	H 	0.69475 0.31394 0.94102 0.19800
C 	C 	0.56481 0.40237 0.92893 0.39700
C 	C 	0.86191 0.48572 0.94309 0.40100
C 	C 	0.97183 0.59295 0.93687 0.29200
C 	C 	0.59132 0.07737 0.93603 -0.19900
C 	C 	0.50725 0.42858 0.93094 -0.20000
O 	O 	0.31074 0.68837 0.96371 -0.70000
O 	O 	0.42074 0.63358 0.95106 -0.34300
O 	O 	0.32369 0.52754 0.95565 -0.37900
O 	O 	0.45096 0.79908 0.95855 -0.33100
Ni	Ni	0.25265 0.58333 0.95302 1.08200
H 	H 	0.31445 0.73014 0.95391 0.18500
C 	C 	0.14158 0.63931 0.96252 0.38500
C 	C 	0.45035 0.87087 0.96269 0.38500
C 	C 	0.06792 0.61308 0.95924 -0.19200
C 	C 	0.57406 0.08144 0.95562 0.28000
C 	C 	0.49896 0.94191 0.95347 -0.18500
C 	C 	0.52873 0.01394 0.96439 0.26300
C 	C 	0.41825 0.43864 0.95118 0.26900
C 	C 	0.46372 0.40119 0.94657 0.28100
F 	F 	0.46795 0.34100 0.95791 -0.37800
O 	O 	0.61284 0.42586 0.94268 -0.37300
C 	C 	0.92961 0.53867 0.94991 -0.20800
Ni	Ni	0.40373 0.69666 0.97422 1.10600
Ni	Ni	0.26948 0.71249 0.98792 1.10400
O 	O 	0.19891 0.51570 0.97567 -0.37100
O 	O 	0.16970 0.68173 0.97868 -0.35600
O 	O 	0.49507 0.71058 0.98670 -0.35300
O 	O 	0.41121 0.88050 0.97613 -0.38200
C 	C 	0.02470 0.56393 0.97294 0.25600
F 	F 	0.51425 0.01831 0.98355 -0.41900
F 	F 	0.37973 0.41520 0.96715 -0.39400
F 	F 	0.60029 0.15140 0.96605 -0.39600
C 	C 	0.95593 0.52617 0.96820 0.28600
F 	F 	0.91534 0.47510 0.98107 -0.40300
O 	O 	0.51119 0.83571 0.99936 -0.37600
O 	O 	0.36653 0.73394 0.99755 -0.69700
C 	C 	0.20276 0.53905 0.99420 0.32400
C 	C 	0.52155 0.76694 0.00030 0.27200
H 	H 	0.15842 0.37583 0.99439 0.05700
F 	F 	0.04981 0.54971 0.99047 -0.40700
