data_crystal

_cell_length_a 28.76063
_cell_length_b 29.53874
_cell_length_c 30.27789
_cell_angle_alpha 61.17182
_cell_angle_beta  118.49321
_cell_angle_gamma 133.16696

_symmetry_space_group_name_	'P 1'
_symmetry_space_group_name_H-M	'P 1'

loop_
_symmetry_equiv_pos_as_xyz
  x,y,z

loop_
_atom_site_label
_atom_site_type_symbol
_atom_site_fract_x
_atom_site_fract_y
_atom_site_fract_z
_atom_site_charge
C 	C 	0.29508 0.65362 0.29844 0.13500
C 	C 	0.27627 0.57640 0.27452 0.13700
N 	N 	0.25529 0.59391 0.29099 -0.14600
C 	C 	0.28691 0.66359 0.77606 0.13500
C 	C 	0.25730 0.58367 0.74753 0.13600
N 	N 	0.24075 0.60603 0.76345 -0.14400
Co	Co	0.09428 0.98311 0.18181 1.18200
Co	Co	0.04014 0.03089 0.21185 1.19500
C 	C 	0.12674 0.89052 0.23450 0.34700
Co	Co	0.08023 0.90762 0.12112 1.16500
C 	C 	0.06217 0.15608 0.19411 0.31900
O 	O 	0.11687 0.03044 0.22794 -0.44500
O 	O 	0.01348 0.99590 0.14571 -0.58600
C 	C 	0.19364 0.04404 0.12053 0.31900
O 	O 	0.08826 0.12826 0.20201 -0.37400
O 	O 	0.14760 0.00286 0.09105 -0.36900
O 	O 	0.17998 0.04893 0.15374 -0.36800
O 	O 	0.01705 0.98138 0.28389 -0.40700
O 	O 	0.04708 0.94363 0.13486 -0.76000
O 	O 	0.14597 0.91457 0.19217 -0.42800
O 	O 	0.09787 0.90848 0.23837 -0.40700
O 	O 	0.01564 0.89476 0.04917 -0.40200
Co	Co	0.09587 0.99123 0.68103 1.18300
Co	Co	0.03257 0.02952 0.71093 1.19400
C 	C 	0.13962 0.90863 0.73439 0.34600
Co	Co	0.09408 0.92474 0.62116 1.16600
C 	C 	0.01022 0.94445 0.51652 0.35000
C 	C 	0.04466 0.14979 0.69277 0.31800
O 	O 	0.11301 0.03464 0.72764 -0.44600
O 	O 	0.01148 0.99897 0.64402 -0.58500
C 	C 	0.19833 0.06437 0.61758 0.31800
O 	O 	0.07473 0.12494 0.70267 -0.37200
O 	O 	0.15631 0.02117 0.58981 -0.36900
O 	O 	0.18412 0.06026 0.65604 -0.36800
O 	O 	0.00878 0.97675 0.78267 -0.37600
O 	O 	0.02600 0.83133 0.65394 -0.39000
O 	O 	0.05351 0.95461 0.63320 -0.76500
O 	O 	0.16045 0.93564 0.69227 -0.42300
O 	O 	0.10065 0.91672 0.73573 -0.40900
O 	O 	0.02965 0.90809 0.54964 -0.39900
C 	C 	0.04566 0.01247 0.93795 0.13000
C 	C 	0.00399 0.97625 0.86112 -0.10000
C 	C 	0.05050 0.02438 0.88876 0.10500
Br	Br	0.12121 0.10662 0.85910 -0.19700
Br	Br	0.10552 0.08045 0.97320 -0.19600
C 	C 	0.06001 0.03272 0.38880 0.12500
C 	C 	0.01391 0.98428 0.36148 -0.15000
C 	C 	0.00590 0.96005 0.46099 -0.12500
C 	C 	0.05403 0.02154 0.43723 0.11100
Br	Br	0.11064 0.09091 0.47037 -0.20300
Br	Br	0.13199 0.11426 0.35994 -0.21200
C 	C 	0.17653 0.42998 0.71428 0.02300
C 	C 	0.17492 0.41911 0.67310 -0.04400
C 	C 	0.13709 0.35669 0.66867 -0.03400
C 	C 	0.10095 0.30437 0.70574 0.00900
C 	C 	0.10117 0.31516 0.74620 -0.03300
C 	C 	0.13937 0.37759 0.75087 -0.04200
C 	C 	0.05991 0.23824 0.70085 0.01300
C 	C 	0.08517 0.21662 0.69541 -0.13800
C 	C 	0.22412 0.49543 0.72262 -0.02700
C 	C 	0.20813 0.51927 0.73690 -0.07500
H 	H 	0.20370 0.45907 0.64488 0.04300
H 	H 	0.13591 0.34902 0.63647 0.04300
H 	H 	0.07279 0.27512 0.77463 0.04900
H 	H 	0.14144 0.38507 0.78363 0.04800
H 	H 	0.00972 0.20579 0.70502 0.03400
H 	H 	0.13678 0.24757 0.69545 0.08600
H 	H 	0.27228 0.52515 0.71525 0.04600
H 	H 	0.15876 0.49084 0.74135 0.05800
C 	C 	0.20790 0.81763 0.79169 0.00300
C 	C 	0.26715 0.82438 0.81304 -0.03600
C 	C 	0.27276 0.78393 0.80765 -0.04500
C 	C 	0.21811 0.73404 0.78274 0.02200
C 	C 	0.15734 0.72377 0.76545 -0.04600
C 	C 	0.15221 0.76539 0.76971 -0.03400
C 	C 	0.22600 0.69895 0.76739 -0.02800
C 	C 	0.27041 0.68619 0.79666 -0.07500
C 	C 	0.20947 0.87330 0.78086 0.01700
C 	C 	0.15379 0.86678 0.77497 -0.17700
H 	H 	0.31037 0.86419 0.83031 0.03600
H 	H 	0.32046 0.79393 0.82008 0.04200
H 	H 	0.11472 0.68543 0.74640 0.04400
H 	H 	0.10599 0.75927 0.75299 0.04600
H 	H 	0.19616 0.68493 0.73082 0.04300
H 	H 	0.29856 0.69737 0.83428 0.05500
H 	H 	0.25265 0.92097 0.77000 0.03200
H 	H 	0.12015 0.82747 0.80018 0.09200
C 	C 	0.20899 0.42587 0.24518 0.02300
C 	C 	0.22691 0.38392 0.27087 -0.04200
C 	C 	0.18675 0.32522 0.25844 -0.03200
C 	C 	0.12893 0.30856 0.21927 0.00900
C 	C 	0.11095 0.35046 0.19365 -0.03500
C 	C 	0.15104 0.40909 0.20617 -0.04400
C 	C 	0.08405 0.24498 0.20801 0.01500
C 	C 	0.10643 0.22153 0.20119 -0.13900
C 	C 	0.25389 0.48947 0.25637 -0.02700
C 	C 	0.23171 0.51216 0.26459 -0.07600
H 	H 	0.27175 0.39662 0.30072 0.04800
H 	H 	0.20015 0.29243 0.27969 0.05600
H 	H 	0.06608 0.33774 0.16383 0.04000
H 	H 	0.13747 0.44174 0.18515 0.04400
H 	H 	0.03191 0.21773 0.20415 0.03400
H 	H 	0.15838 0.24936 0.20397 0.08500
H 	H 	0.30600 0.51657 0.26030 0.04700
H 	H 	0.18028 0.48280 0.26442 0.05800
C 	C 	0.16662 0.77575 0.28872 0.00300
C 	C 	0.13828 0.71216 0.29353 -0.03500
C 	C 	0.17660 0.69534 0.29976 -0.04500
C 	C 	0.24443 0.74168 0.30305 0.02100
C 	C 	0.27379 0.80352 0.30417 -0.04700
C 	C 	0.23514 0.82042 0.29732 -0.03400
C 	C 	0.28253 0.72926 0.29617 -0.02800
C 	C 	0.27146 0.67161 0.31671 -0.07600
C 	C 	0.12493 0.79846 0.25923 0.01800
C 	C 	0.13265 0.84255 0.27318 -0.17500
H 	H 	0.08558 0.67702 0.28762 0.04200
H 	H 	0.15278 0.64751 0.29838 0.04400
H 	H 	0.32607 0.83954 0.30737 0.03900
H 	H 	0.25793 0.86959 0.29430 0.04100
H 	H 	0.31773 0.76686 0.27191 0.04200
H 	H 	0.23857 0.63491 0.34285 0.05600
H 	H 	0.09410 0.78754 0.22170 0.03100
H 	H 	0.14195 0.83867 0.31363 0.08900
C 	C 	0.28289 0.12031 0.57221 0.01000
C 	C 	0.26405 0.11792 0.60684 -0.13300
H 	H 	0.24695 0.08827 0.54633 0.05500
H 	H 	0.29885 0.15315 0.62990 0.08200
C 	C 	0.28074 0.08002 0.08885 0.01600
C 	C 	0.26033 0.09148 0.11151 -0.13600
H 	H 	0.24844 0.03486 0.07811 0.04100
H 	H 	0.29405 0.13446 0.12572 0.08400
C 	C 	0.00586 0.00253 0.30481 0.38600
O 	O 	0.00828 0.81634 0.15296 -0.39300
N 	N 	0.33745 0.61868 0.26584 -0.14600
N 	N 	0.31980 0.61946 0.74359 -0.14600
H 	H 	0.32871 0.18619 0.48536 0.05500
C 	C 	0.34861 0.12509 0.08244 0.01000
H 	H 	0.34804 0.20830 0.04593 0.05100
C 	C 	0.35222 0.16495 0.56895 0.01300
N 	N 	0.35672 0.69567 0.29024 -0.14600
N 	N 	0.34965 0.69851 0.77297 -0.14700
H 	H 	0.36352 0.05164 0.11508 0.04400
C 	C 	0.36597 0.67696 0.75596 0.13600
C 	C 	0.36712 0.19255 0.52048 -0.03500
C 	C 	0.00076 0.93481 0.01680 0.35900
C 	C 	0.37580 0.19011 0.05831 -0.03100
C 	C 	0.72193 0.30917 0.01879 0.13500
N 	N 	0.65849 0.26768 0.02284 -0.14600
C 	C 	0.63276 0.28649 0.03201 0.13900
N 	N 	0.67023 0.34707 0.03648 -0.14700
C 	C 	0.73371 0.38854 0.03318 0.13700
N 	N 	0.75958 0.36956 0.02427 -0.14600
C 	C 	0.71586 0.31009 0.51766 0.13700
N 	N 	0.76200 0.36652 0.53219 -0.14500
C 	C 	0.74415 0.38932 0.54620 0.13700
N 	N 	0.68039 0.35560 0.54561 -0.14600
C 	C 	0.63448 0.29902 0.53184 0.13900
N 	N 	0.65207 0.27690 0.51691 -0.14500
C 	C 	0.37787 0.67822 0.27373 0.13500
Co	Co	0.91468 0.96743 0.13782 1.17500
Co	Co	0.96949 0.92115 0.10672 1.18400
Co	Co	0.92843 0.03733 0.20482 1.17500
O 	O 	0.99904 0.13029 0.17362 -0.39400
O 	O 	0.96477 0.01311 0.18060 -0.74500
O 	O 	0.89145 0.91872 0.09257 -0.46500
C 	C 	0.86815 0.04957 0.09127 0.32300
C 	C 	0.94639 0.79490 0.13457 0.31500
O 	O 	0.85682 0.02882 0.13674 -0.40600
O 	O 	0.89136 0.02973 0.08203 -0.37700
O 	O 	0.99470 0.04583 0.27624 -0.39800
O 	O 	0.92636 0.82323 0.13609 -0.39400
C 	C 	0.82206 0.89925 0.20664 0.33300
O 	O 	0.86382 0.94115 0.23536 -0.40000
O 	O 	0.84325 0.89226 0.18136 -0.39800
O 	O 	0.97903 0.95172 0.03168 -0.38900
Co	Co	0.90948 0.96342 0.63597 1.17500
Co	Co	0.97438 0.92647 0.60576 1.18400
Co	Co	0.91394 0.02500 0.70477 1.17500
O 	O 	0.98075 0.11994 0.67349 -0.39500
O 	O 	0.95599 0.00783 0.67951 -0.74500
O 	O 	0.89222 0.91793 0.59096 -0.46400
C 	C 	0.85555 0.03870 0.59141 0.32300
C 	C 	0.99510 0.99488 0.80432 0.29400
C 	C 	0.96281 0.80534 0.63655 0.31200
O 	O 	0.84215 0.01387 0.63672 -0.40600
O 	O 	0.88150 0.02261 0.58089 -0.37600
O 	O 	0.98015 0.03543 0.77620 -0.36700
O 	O 	0.93853 0.83022 0.63726 -0.39300
C 	C 	0.81420 0.88746 0.70452 0.33400
O 	O 	0.85355 0.92767 0.73449 -0.39700
O 	O 	0.83827 0.88412 0.67894 -0.39700
O 	O 	0.98431 0.95759 0.53076 -0.38600
C 	C 	0.99676 0.95113 0.96120 -0.15200
C 	C 	0.95173 0.90218 0.93440 0.11400
C 	C 	0.95629 0.91439 0.88495 0.08100
Br	Br	0.89718 0.84637 0.84987 -0.20200
Br	Br	0.88247 0.81898 0.96481 -0.21400
C 	C 	0.96598 0.92254 0.38534 0.10000
C 	C 	0.96180 0.91051 0.43492 0.09500
Br	Br	0.89478 0.82647 0.46678 -0.21700
Br	Br	0.90560 0.85466 0.34993 -0.20900
C 	C 	0.65007 0.80649 0.72516 0.00400
C 	C 	0.62324 0.83835 0.71160 -0.03500
C 	C 	0.55814 0.80358 0.71264 -0.04600
C 	C 	0.51954 0.73644 0.72837 0.02300
C 	C 	0.54551 0.70448 0.73977 -0.04500
C 	C 	0.61063 0.73935 0.73843 -0.03100
C 	C 	0.45074 0.69904 0.73040 -0.02800
C 	C 	0.43436 0.71536 0.75249 -0.07500
C 	C 	0.72149 0.84352 0.73334 0.01700
C 	C 	0.74797 0.84114 0.70630 -0.16200
H 	H 	0.65325 0.89018 0.70117 0.03300
H 	H 	0.53789 0.82883 0.70146 0.04100
H 	H 	0.51571 0.65267 0.75075 0.04600
H 	H 	0.63096 0.71424 0.74936 0.04800
H 	H 	0.41385 0.65594 0.71604 0.04500
H 	H 	0.47184 0.75735 0.76833 0.05600
H 	H 	0.75348 0.87842 0.75644 0.04000
H 	H 	0.71589 0.80596 0.68348 0.08700
C 	C 	0.53379 0.75039 0.24148 0.02100
C 	C 	0.55105 0.77291 0.19512 -0.04600
C 	C 	0.61599 0.80506 0.19517 -0.03600
C 	C 	0.66410 0.81388 0.24183 0.00700
C 	C 	0.64647 0.79015 0.28829 -0.03500
C 	C 	0.58168 0.75830 0.28820 -0.04300
C 	C 	0.73431 0.85628 0.24157 0.01400
C 	C 	0.75690 0.85324 0.21147 -0.16000
C 	C 	0.46416 0.71230 0.24155 -0.02800
C 	C 	0.44611 0.72226 0.26785 -0.07700
H 	H 	0.51428 0.76604 0.15897 0.04100
H 	H 	0.62911 0.82451 0.15882 0.03800
H 	H 	0.68322 0.79707 0.32446 0.05000
H 	H 	0.56863 0.73925 0.32450 0.04600
H 	H 	0.76910 0.88937 0.26656 0.04200
H 	H 	0.72300 0.81623 0.19022 0.08600
H 	H 	0.42719 0.67616 0.21928 0.04500
H 	H 	0.48222 0.76224 0.28609 0.05500
C 	C 	0.79197 0.13760 0.53338 0.00700
C 	C 	0.73195 0.12934 0.51215 -0.03500
C 	C 	0.72774 0.17510 0.50948 -0.04300
C 	C 	0.78411 0.23086 0.52672 0.02200
C 	C 	0.84504 0.24155 0.54402 -0.04500
C 	C 	0.84903 0.19521 0.54744 -0.03500
C 	C 	0.77835 0.27254 0.53491 -0.02700
C 	C 	0.73436 0.28502 0.50203 -0.07500
C 	C 	0.79154 0.08064 0.55276 0.01100
C 	C 	0.84063 0.08442 0.55217 -0.14600
H 	H 	0.68763 0.08525 0.50113 0.04400
H 	H 	0.68008 0.16524 0.49697 0.04600
H 	H 	0.88889 0.28430 0.55731 0.04300
H 	H 	0.89575 0.20229 0.56426 0.04300
H 	H 	0.80846 0.29076 0.56961 0.04400
H 	H 	0.70600 0.26924 0.46625 0.05700
H 	H 	0.75345 0.03604 0.57249 0.04200
H 	H 	0.87433 0.12541 0.52739 0.08200
C 	C 	0.89426 0.65752 0.60279 0.01000
C 	C 	0.88718 0.64992 0.55716 -0.03400
C 	C 	0.85174 0.58874 0.55116 -0.04100
C 	C 	0.82407 0.53450 0.59127 0.02200
C 	C 	0.83159 0.54223 0.63704 -0.04400
C 	C 	0.86676 0.60339 0.64291 -0.03500
C 	C 	0.77919 0.46939 0.58286 -0.02600
C 	C 	0.79336 0.45186 0.55994 -0.07600
C 	C 	0.93724 0.72251 0.61071 0.01600
C 	C 	0.91794 0.74068 0.62779 -0.14100
H 	H 	0.90888 0.69145 0.52621 0.05600
H 	H 	0.84461 0.58349 0.51497 0.04800
H 	H 	0.80974 0.50074 0.66795 0.04300
H 	H 	0.87336 0.60872 0.67888 0.04300
H 	H 	0.73422 0.43488 0.59651 0.04600
H 	H 	0.84081 0.48417 0.55054 0.05700
H 	H 	0.98447 0.75685 0.60049 0.03300
H 	H 	0.86859 0.70864 0.63362 0.08500
C 	C 	0.48127 0.23473 0.56249 0.02200
C 	C 	0.46676 0.20835 0.61087 -0.04200
C 	C 	0.40247 0.17291 0.61422 -0.03500
C 	C 	0.43136 0.22752 0.51722 -0.04000
C 	C 	0.54968 0.27362 0.55941 -0.02600
C 	C 	0.56563 0.26138 0.53330 -0.07600
H 	H 	0.50513 0.21435 0.64598 0.04500
H 	H 	0.39147 0.15021 0.65199 0.04500
H 	H 	0.44236 0.24908 0.47956 0.04800
H 	H 	0.58782 0.30976 0.58162 0.04600
H 	H 	0.52781 0.22218 0.51418 0.06000
C 	C 	0.78398 0.12936 0.02289 0.00200
C 	C 	0.72927 0.12351 0.98349 -0.03000
C 	C 	0.71023 0.16055 0.97444 -0.04100
C 	C 	0.74521 0.20326 0.00517 0.02000
C 	C 	0.80258 0.21212 0.04241 -0.04500
C 	C 	0.82223 0.17591 0.05072 -0.03300
C 	C 	0.71502 0.22906 0.00446 -0.03200
C 	C 	0.75151 0.28763 0.01211 -0.07300
C 	C 	0.79163 0.07771 0.04303 0.01400
C 	C 	0.84884 0.09072 0.04912 -0.14700
H 	H 	0.69944 0.08785 0.96171 0.04500
H 	H 	0.66621 0.15353 0.94538 0.04500
H 	H 	0.82968 0.24400 0.06711 0.04300
H 	H 	0.86446 0.18070 0.08144 0.04100
H 	H 	0.66199 0.19941 0.99755 0.05200
H 	H 	0.80385 0.31955 0.01442 0.05500
H 	H 	0.75305 0.02977 0.05954 0.04100
H 	H 	0.88503 0.13628 0.02839 0.08100
C 	C 	0.86861 0.65232 0.08779 0.00900
C 	C 	0.86931 0.64953 0.04314 -0.02900
C 	C 	0.83194 0.59052 0.03226 -0.04800
C 	C 	0.79409 0.53360 0.06634 0.02500
C 	C 	0.79229 0.53643 0.11040 -0.04500
C 	C 	0.82981 0.59542 0.12137 -0.03300
C 	C 	0.75163 0.47120 0.05389 -0.02800
C 	C 	0.77535 0.45317 0.04156 -0.07500
C 	C 	0.91561 0.71388 0.10268 0.02000
C 	C 	0.89790 0.73300 0.12039 -0.14400
H 	H 	0.89938 0.69312 0.01713 0.05400
H 	H 	0.83212 0.58908 0.99727 0.05400
H 	H 	0.76240 0.49281 0.13649 0.04400
H 	H 	0.82998 0.59674 0.15659 0.04300
H 	H 	0.70155 0.43794 0.05841 0.04700
H 	H 	0.82624 0.48564 0.03910 0.05600
H 	H 	0.96494 0.74548 0.09684 0.03000
H 	H 	0.84728 0.70452 0.12196 0.08600
C 	C 	0.38434 0.10185 0.09682 -0.03400
C 	C 	0.44724 0.14340 0.08814 -0.04200
C 	C 	0.47440 0.20843 0.06385 0.02300
C 	C 	0.43861 0.23164 0.04944 -0.04200
C 	C 	0.54251 0.25371 0.05777 -0.02600
C 	C 	0.56475 0.24059 0.03845 -0.07600
H 	H 	0.47514 0.12525 0.10094 0.04600
H 	H 	0.45943 0.28186 0.03123 0.04600
H 	H 	0.57387 0.29952 0.06713 0.04600
H 	H 	0.53274 0.19540 0.02786 0.05900
