data_crystal

_cell_length_a 26.92783
_cell_length_b 28.00702
_cell_length_c 37.68526
_cell_angle_alpha 60.86664
_cell_angle_beta  118.83690
_cell_angle_gamma 133.34902

_symmetry_space_group_name_	'P 1'
_symmetry_space_group_name_H-M	'P 1'

loop_
_symmetry_equiv_pos_as_xyz
  x,y,z

loop_
_atom_site_label
_atom_site_type_symbol
_atom_site_fract_x
_atom_site_fract_y
_atom_site_fract_z
_atom_site_charge
Co	Co	0.04539 0.99863 0.07967 1.19700
Co	Co	0.08835 0.90888 0.08971 1.17000
O 	O 	0.03332 0.06919 0.06765 -0.45900
C 	C 	0.04628 0.12036 0.16433 0.29800
C 	C 	0.10912 0.86381 0.18172 0.29800
O 	O 	0.00317 0.07486 0.18957 -0.38800
O 	O 	0.05671 0.10124 0.14420 -0.38700
O 	O 	0.06720 0.87032 0.18460 -0.38500
O 	O 	0.02941 0.92279 0.10014 -0.76500
Co	Co	0.08363 0.02971 0.57659 1.18800
Co	Co	0.12835 0.93883 0.59144 1.16900
O 	O 	0.06965 0.10069 0.56002 -0.46400
C 	C 	0.08680 0.17820 0.63912 0.30400
C 	C 	0.16131 0.90836 0.68352 0.29600
O 	O 	0.02247 0.15548 0.63390 -0.39600
O 	O 	0.09777 0.14401 0.63295 -0.39600
O 	O 	0.11878 0.91339 0.68723 -0.38600
O 	O 	0.07153 0.95563 0.60152 -0.76500
C 	C 	0.02626 0.00649 0.73747 0.27800
C 	C 	0.02620 0.01803 0.88902 -0.00200
C 	C 	0.06794 0.05468 0.86072 -0.04900
C 	C 	0.06264 0.01841 0.84180 0.00600
C 	C 	0.07784 0.04577 0.80234 -0.02700
S 	S 	0.04537 0.04558 0.92727 0.03600
H 	H 	0.10089 0.09858 0.78593 0.04600
C 	C 	0.01357 0.99539 0.39004 0.03500
C 	C 	0.04404 0.02080 0.35792 -0.08300
C 	C 	0.02890 0.97430 0.34261 0.04300
C 	C 	0.03089 0.98858 0.30145 -0.00500
S 	S 	0.04711 0.03717 0.42442 0.01300
H 	H 	0.07639 0.07474 0.34432 0.05300
H 	H 	0.04961 0.03828 0.28017 0.03900
S 	S 	0.16254 0.31624 0.61490 0.02800
S 	S 	0.06425 0.73204 0.21743 0.02700
H 	H 	0.05221 0.61533 0.22411 0.05200
C 	C 	0.01965 0.96063 0.00480 0.31200
O 	O 	0.03987 0.00774 0.01948 -0.38400
Co	Co	0.03048 0.90356 0.64106 1.19200
O 	O 	0.06983 0.02657 0.51793 -0.38200
O 	O 	0.02355 0.05851 0.71417 -0.38500
O 	O 	0.03081 0.97705 0.72139 -0.37500
H 	H 	0.10270 0.67442 0.72738 0.05100
H 	H 	0.08845 0.76802 0.70978 0.04500
C 	C 	0.04672 0.99579 0.78308 -0.05300
C 	C 	0.14399 0.79764 0.72439 -0.02300
H 	H 	0.10150 0.10954 0.85260 0.04600
O 	O 	0.14306 0.90455 0.15163 -0.38600
S 	S 	0.11008 0.25616 0.12675 0.02400
C 	C 	0.12313 0.81517 0.21456 -0.07500
O 	O 	0.19017 0.94637 0.65130 -0.38600
C 	C 	0.14593 0.24335 0.64994 -0.07400
C 	C 	0.18505 0.86804 0.71844 -0.07300
C 	C 	0.09734 0.19053 0.16840 -0.07200
O 	O 	0.16523 0.01248 0.07394 -0.40300
O 	O 	0.14998 0.04675 0.10940 -0.40100
O 	O 	0.20103 0.04168 0.56907 -0.40000
O 	O 	0.18995 0.08346 0.60166 -0.40100
H 	H 	0.19129 0.44568 0.60362 0.05000
C 	C 	0.15847 0.71111 0.73806 -0.05500
C 	C 	0.11937 0.71117 0.24013 0.00400
C 	C 	0.10538 0.65590 0.23552 -0.05800
H 	H 	0.10899 0.57389 0.21569 0.05300
O 	O 	0.06278 0.83470 0.61572 -0.39300
C 	C 	0.02049 0.94736 0.85350 0.02300
C 	C 	0.04382 0.97302 0.50733 0.29500
C 	C 	0.16309 0.25171 0.68912 -0.01900
H 	H 	0.14544 0.20925 0.71586 0.04200
H 	H 	0.09329 0.17165 0.23099 0.04400
H 	H 	0.12740 0.38623 0.09639 0.05000
C 	C 	0.19178 0.05142 0.09726 0.30300
C 	C 	0.22957 0.08579 0.58908 0.30400
C 	C 	0.18926 0.31718 0.68743 0.01600
C 	C 	0.19356 0.36027 0.64707 0.00200
C 	C 	0.19034 0.41409 0.63521 -0.05700
C 	C 	0.18727 0.42670 0.66560 0.02600
C 	C 	0.18462 0.77271 0.74203 0.02000
S 	S 	0.18952 0.64562 0.72719 0.01200
C 	C 	0.11146 0.34688 0.19339 0.00100
C 	C 	0.12012 0.29501 0.21430 -0.05300
C 	C 	0.12836 0.27436 0.19147 0.01500
C 	C 	0.13307 0.30862 0.14970 0.00300
C 	C 	0.12523 0.36108 0.12891 -0.05800
C 	C 	0.11731 0.38187 0.15185 0.02700
C 	C 	0.13694 0.44804 0.14146 -0.04600
C 	C 	0.10907 0.20832 0.20217 -0.01800
O 	O 	0.06012 0.93004 0.53275 -0.38100
O 	O 	0.01883 0.80357 0.10736 -0.39000
C 	C 	0.18341 0.38391 0.70589 0.00100
C 	C 	0.18758 0.33071 0.71800 -0.05400
H 	H 	0.11795 0.26987 0.24683 0.04700
C 	C 	0.20868 0.49048 0.66331 -0.04600
H 	H 	0.18607 0.29889 0.74953 0.04700
H 	H 	0.22503 0.53317 0.63650 0.05000
C 	C 	0.20690 0.70079 0.74511 0.00100
S 	S 	0.13265 0.39827 0.21636 0.01100
C 	C 	0.14669 0.46462 0.17513 -0.01900
H 	H 	0.15470 0.48561 0.11328 0.05000
C 	C 	0.16266 0.65715 0.24322 0.02600
C 	C 	0.18798 0.77104 0.24490 0.01500
C 	C 	0.19015 0.82962 0.23025 -0.01600
C 	C 	0.15816 0.61462 0.22976 -0.04700
S 	S 	0.20914 0.42583 0.73780 0.00900
N 	N 	0.18490 0.55548 0.19827 -0.13800
C 	C 	0.22143 0.49700 0.70207 -0.01800
H 	H 	0.30212 0.21580 0.53779 0.04300
O 	O 	0.02634 0.91090 0.02926 -0.38500
H 	H 	0.26653 0.18385 0.04970 0.04200
C 	C 	0.19771 0.53410 0.18018 0.12400
N 	N 	0.24895 0.59157 0.71478 -0.13600
C 	C 	0.25739 0.82354 0.75038 -0.00100
S 	S 	0.26929 0.89686 0.73416 0.03400
C 	C 	0.30495 0.13985 0.59512 -0.07400
H 	H 	0.23770 0.88061 0.22530 0.04700
C 	C 	0.26717 0.10511 0.10542 -0.07400
C 	C 	0.27192 0.56262 0.71261 0.12400
C 	C 	0.27899 0.75397 0.74938 0.02500
C 	C 	0.27126 0.68581 0.72493 -0.02000
C 	C 	0.23171 0.71419 0.25297 0.00000
C 	C 	0.22411 0.63871 0.22964 -0.01800
C 	C 	0.33365 0.20017 0.56420 -0.01700
Co	Co	0.01733 0.07128 0.59936 1.19400
C 	C 	0.23532 0.61744 0.20695 0.12400
C 	C 	0.24503 0.77354 0.25039 -0.05300
C 	C 	0.29728 0.16690 0.07569 -0.01600
H 	H 	0.02408 0.71577 0.61723 0.05700
C 	C 	0.29586 0.65372 0.72302 0.12300
C 	C 	0.30481 0.81678 0.75103 -0.05600
N 	N 	0.26139 0.57408 0.17167 -0.14000
C 	C 	0.31555 0.74502 0.73870 -0.04600
S 	S 	0.28462 0.71227 0.24369 0.01100
H 	H 	0.29720 0.82085 0.25026 0.04900
N 	N 	0.29903 0.65688 0.19859 -0.13700
S 	S 	0.32586 0.08760 0.13118 0.01900
S 	S 	0.36452 0.12343 0.62179 0.02100
N 	N 	0.34169 0.59573 0.71870 -0.13700
C 	C 	0.31256 0.63494 0.18154 0.12500
H 	H 	0.41226 0.30121 0.50495 0.04900
C 	C 	0.40325 0.22969 0.56572 0.01600
H 	H 	0.35885 0.86004 0.75008 0.04900
C 	C 	0.36659 0.19591 0.07698 0.01600
N 	N 	0.36557 0.68708 0.72842 -0.14000
H 	H 	0.37599 0.26904 0.01687 0.04900
H 	H 	0.37118 0.78137 0.73954 0.05100
C 	C 	0.43510 0.27679 0.53182 -0.05400
C 	C 	0.39082 0.15699 0.10800 0.00300
C 	C 	0.38857 0.65808 0.72642 0.12400
H 	H 	0.37130 0.60675 0.15431 0.05100
C 	C 	0.39828 0.24356 0.04307 -0.05400
C 	C 	0.42866 0.19232 0.59782 0.00300
C 	C 	0.38460 0.67302 0.17863 -0.02000
C 	C 	0.01041 0.97043 0.46325 -0.05300
C 	C 	0.40631 0.64585 0.17117 -0.04600
C 	C 	0.44232 0.16033 0.10394 -0.05900
H 	H 	0.45230 0.12261 0.12375 0.04700
S 	S 	0.45487 0.73039 0.20644 0.01100
C 	C 	0.45682 0.25386 0.04284 0.00100
C 	C 	0.46383 0.69501 0.73146 -0.02000
S 	S 	0.00038 0.92026 0.81466 0.02300
C 	C 	0.99989 0.97026 0.95929 -0.08700
C 	C 	0.99144 0.92998 0.28796 -0.08700
C 	C 	0.98870 0.90475 0.36140 -0.02000
O 	O 	0.97618 0.92216 0.22203 -0.40100
Co	Co	0.98265 0.86523 0.13671 1.18200
Co	Co	0.97677 0.03336 0.10662 1.17300
C 	C 	0.95574 0.92831 0.24407 0.30800
C 	C 	0.67514 0.29224 0.99676 0.12200
N 	N 	0.71898 0.36093 0.98916 -0.13700
C 	C 	0.70049 0.39485 0.98993 0.12400
N 	N 	0.63763 0.36005 0.99775 -0.13900
C 	C 	0.59400 0.29147 0.00593 0.12200
N 	N 	0.61286 0.25741 0.00564 -0.14000
C 	C 	0.72513 0.33556 0.49329 0.12200
N 	N 	0.76983 0.40357 0.48935 -0.13700
C 	C 	0.74984 0.43546 0.49107 0.12300
N 	N 	0.68475 0.39935 0.49629 -0.13900
C 	C 	0.64019 0.33135 0.50085 0.12300
N 	N 	0.66045 0.29931 0.49952 -0.14000
Co	Co	0.91490 0.89903 0.16445 1.18800
Co	Co	0.89859 0.00024 0.16929 1.15500
C 	C 	0.95046 0.76971 0.10011 0.28800
O 	O 	0.89403 0.07132 0.11474 -0.41100
O 	O 	0.92705 0.97367 0.14222 -0.75600
C 	C 	0.87234 0.06272 0.07736 0.30000
O 	O 	0.92039 0.82597 0.17269 -0.46700
C 	C 	0.77722 0.85889 0.16473 0.29600
O 	O 	0.95426 0.93825 0.10827 -0.58300
O 	O 	0.90578 0.05598 0.06557 -0.39300
O 	O 	0.79714 0.92182 0.14927 -0.38700
O 	O 	0.80834 0.84030 0.16130 -0.37800
O 	O 	0.90355 0.93341 0.22692 -0.40600
O 	O 	0.92381 0.78700 0.10920 -0.38900
Co	Co	0.96685 0.94606 0.66562 1.18800
Co	Co	0.94847 0.05443 0.65892 1.15700
C 	C 	0.99468 0.80035 0.60994 0.28400
O 	O 	0.87769 0.04752 0.60168 -0.39700
O 	O 	0.97396 0.01815 0.63779 -0.78200
C 	C 	0.89743 0.08636 0.56602 0.29300
O 	O 	0.97441 0.87194 0.67875 -0.47000
C 	C 	0.83387 0.90657 0.66961 0.30500
O 	O 	0.99795 0.97399 0.60862 -0.58500
O 	O 	0.94791 0.09718 0.55786 -0.38700
O 	O 	0.87441 0.95718 0.68701 -0.40200
O 	O 	0.86105 0.88768 0.66265 -0.38500
O 	O 	0.96944 0.81845 0.61961 -0.39000
C 	C 	0.97916 0.91067 0.88209 -0.07100
C 	C 	0.98477 0.94703 0.90114 0.01900
C 	C 	0.96975 0.91994 0.94066 -0.01900
H 	H 	0.94553 0.85581 0.89020 0.05000
H 	H 	0.94746 0.86737 0.95745 0.04400
C 	C 	0.95846 0.87936 0.39364 -0.04200
C 	C 	0.97377 0.92588 0.40899 -0.00300
S 	S 	0.95438 0.86328 0.32666 0.03000
C 	C 	0.97162 0.91165 0.45010 -0.03000
H 	H 	0.92600 0.82542 0.40719 0.04400
H 	H 	0.95243 0.86190 0.47138 0.04500
C 	C 	0.57203 0.72555 0.72524 -0.00000
C 	C 	0.61263 0.72403 0.71325 -0.05300
C 	C 	0.65263 0.78082 0.68437 0.01500
C 	C 	0.64649 0.83444 0.66540 0.00300
C 	C 	0.60633 0.83613 0.67767 -0.05800
C 	C 	0.56731 0.77994 0.70708 0.02600
S 	S 	0.50042 0.65762 0.74312 0.01100
C 	C 	0.50653 0.76294 0.71077 -0.04700
S 	S 	0.71809 0.90263 0.64785 0.02500
C 	C 	0.75749 0.86727 0.66122 -0.07500
C 	C 	0.71522 0.79923 0.68205 -0.01600
H 	H 	0.61501 0.68131 0.72703 0.04800
H 	H 	0.60414 0.87895 0.66402 0.04900
H 	H 	0.48921 0.79528 0.69351 0.04900
H 	H 	0.73394 0.76808 0.70056 0.04400
C 	C 	0.59083 0.71298 0.18941 0.00100
C 	C 	0.51751 0.67037 0.17670 -0.05700
C 	C 	0.47858 0.67397 0.18879 0.02600
C 	C 	0.51271 0.72178 0.21060 0.00100
C 	C 	0.58532 0.77140 0.21718 -0.05300
C 	C 	0.62465 0.76508 0.20771 0.01600
S 	S 	0.64618 0.73473 0.16698 0.03300
C 	C 	0.71461 0.80711 0.18175 -0.07600
C 	C 	0.69447 0.81846 0.20316 -0.01700
H 	H 	0.49193 0.63817 0.15656 0.05000
H 	H 	0.60990 0.81476 0.22754 0.04700
H 	H 	0.72571 0.86606 0.21093 0.03500
C 	C 	0.77531 0.14341 0.50902 0.00100
C 	C 	0.73165 0.14906 0.51446 -0.06000
C 	C 	0.75635 0.21365 0.51182 0.02400
C 	C 	0.82421 0.26989 0.50638 -0.00100
C 	C 	0.86757 0.26485 0.50025 -0.05500
C 	C 	0.84369 0.20005 0.50368 0.01400
S 	S 	0.77462 0.07534 0.53100 0.01900
C 	C 	0.85776 0.11292 0.53290 -0.07400
C 	C 	0.88982 0.18280 0.51677 -0.02300
S 	S 	0.82918 0.33951 0.49041 0.00600
C 	C 	0.74692 0.30149 0.49082 -0.01900
C 	C 	0.71282 0.23114 0.50389 -0.04800
H 	H 	0.68017 0.10483 0.52021 0.04600
H 	H 	0.91959 0.30907 0.49542 0.04500
H 	H 	0.94630 0.22005 0.52145 0.04100
H 	H 	0.65899 0.19431 0.50704 0.04900
C 	C 	0.89435 0.60074 0.52977 0.00100
C 	C 	0.93823 0.62682 0.56529 -0.05900
C 	C 	0.92153 0.65357 0.57738 0.02200
C 	C 	0.86057 0.65081 0.55566 -0.00000
C 	C 	0.81758 0.62636 0.51963 -0.05800
C 	C 	0.83302 0.59788 0.50805 0.02300
S 	S 	0.88136 0.53825 0.52304 0.00500
C 	C 	0.80081 0.50736 0.49162 -0.01900
C 	C 	0.78077 0.54586 0.48627 -0.04600
S 	S 	0.86923 0.70752 0.56631 0.02100
C 	C 	0.94737 0.73424 0.60040 -0.06800
C 	C 	0.97074 0.70063 0.60264 -0.04100
H 	H 	0.98404 0.62675 0.58271 0.04500
H 	H 	0.77141 0.62590 0.50259 0.04800
H 	H 	0.72707 0.52997 0.47331 0.05100
C 	C 	0.49525 0.28843 0.53288 0.00200
C 	C 	0.48166 0.19649 0.59499 -0.05900
C 	C 	0.51643 0.24695 0.56265 0.02500
S 	S 	0.52828 0.32464 0.49207 0.00800
C 	C 	0.57288 0.29223 0.51073 -0.02000
C 	C 	0.56048 0.24925 0.55047 -0.04700
H 	H 	0.49296 0.15990 0.61584 0.04700
H 	H 	0.58555 0.22396 0.57076 0.04700
C 	C 	0.73477 0.09988 0.02598 0.00500
C 	C 	0.69500 0.10777 0.03372 -0.06200
C 	C 	0.71490 0.17336 0.02312 0.02600
C 	C 	0.77520 0.22924 0.00777 -0.00400
C 	C 	0.81443 0.22170 0.99938 -0.05100
C 	C 	0.79551 0.15621 0.01059 0.01100
S 	S 	0.74448 0.03809 0.05356 0.01400
C 	C 	0.82229 0.07743 0.04570 -0.07600
C 	C 	0.84447 0.14341 0.02146 -0.01600
S 	S 	0.77161 0.29487 0.98542 0.00800
C 	C 	0.69516 0.25594 0.99518 -0.01800
C 	C 	0.67010 0.18839 0.01684 -0.05000
H 	H 	0.64990 0.06438 0.04710 0.04700
H 	H 	0.86036 0.26544 0.98684 0.04500
H 	H 	0.89826 0.18360 0.01841 0.03800
H 	H 	0.62190 0.15180 0.02752 0.04900
C 	C 	0.81617 0.61895 0.04657 0.00200
C 	C 	0.77134 0.59209 0.01152 -0.05900
C 	C 	0.78556 0.56198 0.00046 0.02400
C 	C 	0.84764 0.56602 0.02142 0.00000
C 	C 	0.89355 0.59496 0.05578 -0.05500
C 	C 	0.87775 0.62279 0.06758 0.01500
S 	S 	0.82480 0.67606 0.05676 0.02400
C 	C 	0.90393 0.70425 0.08987 -0.07300
C 	C 	0.92764 0.67104 0.09201 -0.02200
S 	S 	0.83354 0.50150 0.01659 0.00400
C 	C 	0.75146 0.46792 0.98714 -0.01900
C 	C 	0.73195 0.50744 0.98075 -0.04600
H 	H 	0.72454 0.59060 0.99509 0.05000
H 	H 	0.93988 0.59570 0.07274 0.04500
H 	H 	0.98119 0.68670 0.10620 0.04000
H 	H 	0.67799 0.49080 0.96887 0.05100
C 	C 	0.47676 0.21099 0.07150 0.02500
S 	S 	0.48708 0.28903 0.00098 0.00700
C 	C 	0.52885 0.25445 0.01770 -0.02000
C 	C 	0.51785 0.21166 0.05766 -0.04700
H 	H 	0.54137 0.18477 0.07679 0.04700
