data_crystal

_cell_length_a 18.06905
_cell_length_b 15.97549
_cell_length_c 42.61717
_cell_angle_alpha 90.48647
_cell_angle_beta  91.08647
_cell_angle_gamma 111.01422

_symmetry_space_group_name_	'P 1'
_symmetry_space_group_name_H-M	'P 1'

loop_
_symmetry_equiv_pos_as_xyz
  x,y,z

loop_
_atom_site_label
_atom_site_type_symbol
_atom_site_fract_x
_atom_site_fract_y
_atom_site_fract_z
_atom_site_charge
Ni	Ni	0.73519 0.37206 0.88679 1.09800
O 	O 	0.64164 0.28978 0.86013 -0.70600
Ni	Ni	0.55118 0.30958 0.88062 1.10000
O 	O 	0.81330 0.33819 0.85977 -0.36200
O 	O 	0.74597 0.18949 0.86855 -0.39700
O 	O 	0.73494 0.46731 0.85512 -0.39100
Ni	Ni	0.62467 0.16305 0.86277 1.06600
O 	O 	0.75846 0.49515 0.95241 -0.40800
O 	O 	0.61599 0.15867 0.91061 -0.39800
O 	O 	0.46665 0.23754 0.84894 -0.37100
O 	O 	0.64295 0.37369 0.91172 -0.70100
O 	O 	0.82811 0.46367 0.91176 -0.37100
O 	O 	0.47146 0.35883 0.90012 -0.36000
O 	O 	0.56365 0.49951 0.90300 -0.41600
Ni	Ni	0.66569 0.49755 0.92529 1.07300
H 	H 	0.64440 0.30805 0.83791 0.15500
H 	H 	0.64038 0.33791 0.93075 0.15600
C 	C 	0.55467 0.16625 0.92473 0.30700
O 	O 	0.74090 0.57329 0.89237 -0.39400
C 	C 	0.80015 0.25322 0.85314 0.25100
C 	C 	0.46273 0.15636 0.84011 0.25100
C 	C 	0.74209 0.54963 0.86279 0.28100
C 	C 	0.49473 0.44134 0.91122 0.26500
C 	C 	0.82407 0.48781 0.94134 0.27000
O 	O 	0.50944 0.20274 0.91014 -0.37600
O 	O 	0.50346 0.11465 0.85577 -0.39500
Ni	Ni	0.51104 0.40870 0.54629 1.10200
O 	O 	0.61366 0.42528 0.52322 -0.70000
Ni	Ni	0.67834 0.39408 0.55651 1.10000
O 	O 	0.47454 0.48784 0.51675 -0.36900
O 	O 	0.59569 0.59799 0.52172 -0.41200
O 	O 	0.45030 0.29982 0.51742 -0.36500
Ni	Ni	0.67689 0.54256 0.50721 1.07300
O 	O 	0.39945 0.23345 0.57493 -0.41600
O 	O 	0.76046 0.60670 0.54174 -0.39200
O 	O 	0.78906 0.43708 0.53625 -0.36900
O 	O 	0.56988 0.36081 0.57713 -0.70000
O 	O 	0.41037 0.38088 0.57118 -0.37900
O 	O 	0.71943 0.33703 0.59272 -0.36400
O 	O 	0.61567 0.20469 0.58524 -0.40100
Ni	Ni	0.51238 0.23245 0.57986 1.06600
H 	H 	0.60342 0.38080 0.50585 0.15900
H 	H 	0.57348 0.39039 0.59791 0.15800
C 	C 	0.75530 0.58882 0.57192 0.28500
O 	O 	0.51930 0.21229 0.53320 -0.41000
C 	C 	0.52400 0.56746 0.50905 0.25900
C 	C 	0.80347 0.46690 0.50708 0.27400
C 	C 	0.47114 0.22956 0.51316 0.27100
C 	C 	0.67681 0.25595 0.60234 0.25400
C 	C 	0.37712 0.30075 0.58353 0.31000
O 	O 	0.70763 0.51107 0.58193 -0.39400
O 	O 	0.74963 0.48417 0.48967 -0.41300
Ni	Ni	0.96746 0.04920 0.68720 1.10700
O 	O 	0.06498 0.04849 0.71207 -0.70700
Ni	Ni	0.01429 0.98059 0.74976 1.08900
O 	O 	0.03740 0.11875 0.65176 -0.36900
O 	O 	0.10825 0.22808 0.68701 -0.41100
O 	O 	0.95888 0.92771 0.66768 -0.40000
Ni	Ni	0.13340 0.16742 0.72689 1.06400
O 	O 	0.77370 0.99873 0.70266 -0.42500
O 	O 	0.04788 0.19864 0.75041 -0.41700
O 	O 	0.11484 0.97172 0.76920 -0.38900
O 	O 	0.92061 0.00309 0.72843 -0.68600
O 	O 	0.86608 0.04206 0.66361 -0.38000
O 	O 	0.94555 0.88884 0.78077 -0.34300
O 	O 	0.85660 0.81354 0.74195 -0.41100
Ni	Ni	0.81799 0.90828 0.72110 1.06900
H 	H 	0.09520 0.01735 0.70071 0.16000
H 	H 	0.90963 0.05332 0.73823 0.15700
C 	C 	0.01462 0.15409 0.77534 0.30000
O 	O 	0.82617 0.86377 0.67671 -0.39700
C 	C 	0.10050 0.19021 0.65888 0.25200
C 	C 	0.17957 0.04520 0.77040 0.32200
C 	C 	0.89105 0.85947 0.66467 0.33300
C 	C 	0.88049 0.82239 0.77166 0.29600
C 	C 	0.80550 0.05017 0.67844 0.33200
O 	O 	0.02568 0.07985 0.78248 -0.35300
O 	O 	0.17413 0.12548 0.76684 -0.41000
Ni	Ni	0.15444 0.73522 0.38364 1.09900
O 	O 	0.23784 0.81839 0.35488 -0.70600
Ni	Ni	0.33729 0.81680 0.37519 1.10300
O 	O 	0.06529 0.75174 0.35701 -0.36200
O 	O 	0.12160 0.90449 0.36243 -0.41000
O 	O 	0.15616 0.63535 0.35357 -0.39400
Ni	Ni	0.24302 0.94176 0.35476 1.05800
O 	O 	0.15909 0.62906 0.44974 -0.41900
O 	O 	0.25970 0.95813 0.40221 -0.42500
O 	O 	0.41197 0.88987 0.34234 -0.37500
O 	O 	0.25463 0.74965 0.40733 -0.70100
O 	O 	0.07221 0.64296 0.41108 -0.38700
O 	O 	0.42665 0.78034 0.39406 -0.35500
O 	O 	0.34223 0.63603 0.39372 -0.42500
Ni	Ni	0.24691 0.63023 0.42078 1.07300
H 	H 	0.23269 0.79435 0.33313 0.15300
H 	H 	0.25805 0.78755 0.42618 0.16300
C 	C 	0.32809 0.96816 0.41576 0.30600
O 	O 	0.16527 0.53891 0.39148 -0.39600
C 	C 	0.06736 0.83243 0.34957 0.23700
C 	C 	0.41009 0.96834 0.33355 0.27200
C 	C 	0.14617 0.55394 0.36269 0.28800
C 	C 	0.41188 0.69617 0.40126 0.30300
C 	C 	0.08650 0.61839 0.43963 0.32600
O 	O 	0.37486 0.92964 0.40389 -0.36000
O 	O 	0.36284 0.00419 0.34749 -0.38500
Ni	Ni	0.31002 0.79091 0.06401 1.09800
O 	O 	0.23684 0.67660 0.08489 -0.70000
Ni	Ni	0.24393 0.58131 0.05552 1.10100
O 	O 	0.28782 0.87027 0.09818 -0.36300
O 	O 	0.15474 0.80455 0.08813 -0.40200
O 	O 	0.39904 0.77616 0.09160 -0.38900
Ni	Ni	0.12654 0.66652 0.08584 1.06800
O 	O 	0.40497 0.83265 0.99774 -0.41900
O 	O 	0.11939 0.67606 0.03840 -0.42500
O 	O 	0.17885 0.47407 0.08124 -0.36700
O 	O 	0.30260 0.69623 0.03160 -0.69700
O 	O 	0.39014 0.90318 0.04371 -0.37600
O 	O 	0.28375 0.49980 0.02809 -0.35900
O 	O 	0.40883 0.59970 0.03490 -0.42900
Ni	Ni	0.40919 0.71890 0.01652 1.07000
H 	H 	0.25629 0.66904 0.10616 0.15300
H 	H 	0.26919 0.70274 0.01381 0.15700
C 	C 	0.10622 0.60523 0.02048 0.33000
O 	O 	0.48403 0.79418 0.05113 -0.39600
C 	C 	0.21408 0.85752 0.10561 0.24100
C 	C 	0.11297 0.47483 0.09421 0.25000
C 	C 	0.46977 0.78577 0.08122 0.28100
C 	C 	0.35987 0.52479 0.02226 0.29800
C 	C 	0.41606 0.90611 0.01462 0.29200
O 	O 	0.14694 0.55243 0.02508 -0.36800
O 	O 	0.07764 0.52920 0.08359 -0.38700
Ni	Ni	0.88467 0.99578 0.19719 1.09100
O 	O 	0.79713 0.02747 0.21799 -0.69500
Ni	Ni	0.85433 0.09618 0.25604 1.10400
O 	O 	0.80757 0.92624 0.16151 -0.35700
O 	O 	0.72161 0.83888 0.19658 -0.41200
O 	O 	0.91418 0.10790 0.16889 -0.35600
Ni	Ni	0.71227 0.92033 0.23318 1.06400
O 	O 	0.06173 0.10331 0.18574 -0.43400
O 	O 	0.78510 0.87217 0.25870 -0.39800
O 	O 	0.76101 0.12732 0.27202 -0.36400
O 	O 	0.94032 0.05289 0.23809 -0.68500
O 	O 	0.97309 0.96107 0.17880 -0.38500
O 	O 	0.92539 0.18633 0.28877 -0.37300
O 	O 	0.05018 0.21381 0.27134 -0.41900
Ni	Ni	0.03935 0.14946 0.22798 1.06500
H 	H 	0.77600 0.06435 0.20454 0.16400
H 	H 	0.95249 0.00845 0.25113 0.16100
C 	C 	0.82761 0.91707 0.28276 0.31200
O 	O 	0.97296 0.21295 0.20747 -0.42800
C 	C 	0.73630 0.86985 0.16811 0.31300
C 	C 	0.69050 0.06283 0.27338 0.27700
C 	C 	0.94862 0.19282 0.17822 0.31800
C 	C 	0.99733 0.24323 0.28332 0.34800
C 	C 	0.04669 0.01785 0.17958 0.35100
O 	O 	0.82996 0.99835 0.28930 -0.38600
O 	O 	0.68431 0.97796 0.27178 -0.41200
C 	C 	0.06848 0.40139 0.11499 -0.01800
C 	C 	0.06961 0.31477 0.11051 -0.04000
C 	C 	0.02582 0.24515 0.12991 0.01600
C 	C 	0.98131 0.26161 0.15432 -0.12900
C 	C 	0.97855 0.34794 0.15833 0.21300
C 	C 	0.02158 0.41723 0.13857 -0.12200
H 	H 	0.02871 0.17906 0.12666 0.04600
H 	H 	0.01925 0.48360 0.14184 0.05500
H 	H 	0.10415 0.30119 0.09198 0.06000
O 	O 	0.93220 0.36414 0.18099 -0.29600
H 	H 	0.96787 0.38610 0.19964 0.15200
C 	C 	0.53757 0.80507 0.10374 -0.02200
C 	C 	0.53297 0.83634 0.13426 -0.05200
C 	C 	0.59869 0.85956 0.15481 0.03600
C 	C 	0.66992 0.85171 0.14523 -0.16100
C 	C 	0.67484 0.82015 0.11472 0.20500
C 	C 	0.60889 0.79707 0.09408 -0.10300
H 	H 	0.59427 0.88380 0.17827 -0.02200
H 	H 	0.61317 0.77263 0.07064 0.07000
H 	H 	0.47891 0.84389 0.14198 0.05000
O 	O 	0.74394 0.81211 0.10495 -0.28500
H 	H 	0.73938 0.75018 0.11032 0.15100
C 	C 	0.19758 0.91438 0.12957 0.00600
C 	C 	0.19211 0.99653 0.12090 -0.11700
C 	C 	0.14753 0.03452 0.13872 0.11300
C 	C 	0.10823 0.99053 0.16533 -0.22000
C 	C 	0.12116 0.91366 0.17595 0.21800
C 	C 	0.16603 0.87607 0.15810 -0.13400
H 	H 	0.13941 0.09491 0.13070 0.01400
H 	H 	0.17116 0.81336 0.16523 0.05200
H 	H 	0.21712 0.02728 0.09909 0.08100
O 	O 	0.08570 0.87186 0.20262 -0.31500
H 	H 	0.12439 0.89969 0.21995 0.12300
C 	C 	0.62309 0.08249 0.28561 -0.02300
C 	C 	0.55114 0.05148 0.26835 -0.05300
C 	C 	0.47910 0.02297 0.28394 0.04500
C 	C 	0.47871 0.02799 0.31675 -0.12500
C 	C 	0.54996 0.07440 0.33342 0.19700
C 	C 	0.62212 0.10187 0.31773 -0.08900
H 	H 	0.42426 0.99021 0.27075 -0.00800
H 	H 	0.67738 0.12916 0.33112 0.08300
H 	H 	0.55118 0.03965 0.24328 0.03200
O 	O 	0.55002 0.08431 0.36542 -0.26800
H 	H 	0.54319 0.14249 0.36905 0.15000
C 	C 	0.10361 0.47698 0.34172 -0.02900
C 	C 	0.04739 0.39930 0.35396 -0.03600
C 	C 	0.00951 0.32466 0.33450 0.01800
C 	C 	0.02760 0.32654 0.30254 -0.15700
C 	C 	0.08158 0.40573 0.28993 0.19600
C 	C 	0.11944 0.48054 0.30954 -0.09800
H 	H 	0.96809 0.26430 0.34452 0.05400
H 	H 	0.16218 0.54053 0.29982 0.06600
H 	H 	0.03344 0.39646 0.37864 0.04700
O 	O 	0.09938 0.40913 0.25870 -0.31000
H 	H 	0.06096 0.43162 0.24814 0.13800
C 	C 	0.99772 0.84140 0.33401 -0.01500
C 	C 	0.95536 0.88764 0.34910 -0.04800
C 	C 	0.89487 0.90554 0.33302 0.03200
C 	C 	0.87715 0.87905 0.30142 -0.14900
C 	C 	0.91668 0.82780 0.28680 0.18200
C 	C 	0.97608 0.80827 0.30335 -0.08900
H 	H 	0.86384 0.94324 0.34474 0.03800
H 	H 	0.00760 0.77072 0.29184 0.05000
H 	H 	0.97046 0.91142 0.37311 0.05400
O 	O 	0.89837 0.79811 0.25632 -0.27700
H 	H 	0.93572 0.84518 0.24333 0.13000
C 	C 	0.43081 0.16255 0.48862 -0.02100
C 	C 	0.41373 0.18971 0.45900 -0.04500
C 	C 	0.37782 0.12572 0.43545 0.03600
C 	C 	0.35836 0.03412 0.44139 -0.13200
C 	C 	0.37262 0.00661 0.47139 0.22100
C 	C 	0.40939 0.07074 0.49480 -0.10100
H 	H 	0.36679 0.14740 0.41238 0.02500
H 	H 	0.42076 0.04906 0.51784 0.07100
H 	H 	0.42971 0.26034 0.45402 0.04500
O 	O 	0.35175 0.91717 0.47773 -0.32000
H 	H 	0.29664 0.89804 0.48527 0.13900
C 	C 	0.88247 0.48660 0.49418 -0.02200
C 	C 	0.88888 0.45428 0.46402 -0.04800
C 	C 	0.95654 0.49595 0.44658 0.05500
C 	C 	0.01907 0.56948 0.45930 -0.16400
C 	C 	0.01607 0.59658 0.49064 0.18500
C 	C 	0.94772 0.55500 0.50798 -0.08600
H 	H 	0.95945 0.47260 0.42285 0.03400
H 	H 	0.94339 0.58020 0.53131 0.07500
H 	H 	0.83926 0.40053 0.45334 0.05200
O 	O 	0.07717 0.66780 0.50357 -0.30000
H 	H 	0.11248 0.64099 0.51419 0.14800
C 	C 	0.50846 0.60747 0.48006 -0.04700
C 	C 	0.49224 0.55725 0.45197 -0.05300
C 	C 	0.46882 0.59107 0.42501 0.02400
C 	C 	0.45983 0.67469 0.42601 -0.15700
C 	C 	0.48195 0.72804 0.45369 0.18100
C 	C 	0.50706 0.69447 0.48047 -0.09800
H 	H 	0.45325 0.55006 0.40379 0.02700
H 	H 	0.52189 0.73456 0.50192 0.06700
H 	H 	0.49572 0.49093 0.45125 0.03100
O 	O 	0.47636 0.81139 0.45493 -0.27400
H 	H 	0.42208 0.80102 0.46228 0.14100
C 	C 	0.70727 0.21482 0.62792 -0.02400
C 	C 	0.78837 0.24688 0.63593 -0.04400
C 	C 	0.81926 0.19643 0.65516 0.03600
C 	C 	0.76963 0.11288 0.66618 -0.15400
C 	C 	0.68726 0.08483 0.66063 0.20200
C 	C 	0.65624 0.13673 0.64204 -0.10500
H 	H 	0.88256 0.21987 0.66008 0.02400
H 	H 	0.59289 0.11385 0.63730 0.05100
H 	H 	0.82814 0.30852 0.62608 0.05900
O 	O 	0.63726 0.00571 0.67258 -0.28100
H 	H 	0.63252 0.95953 0.65617 0.13200
C 	C 	0.16413 0.22606 0.63594 -0.03000
C 	C 	0.17036 0.17206 0.61071 -0.05200
C 	C 	0.23836 0.19877 0.59262 0.03100
C 	C 	0.30108 0.27975 0.59953 -0.15100
C 	C 	0.29255 0.33711 0.62330 0.19300
C 	C 	0.22421 0.31025 0.64135 -0.11300
H 	H 	0.24318 0.15534 0.57372 0.03400
H 	H 	0.21919 0.35372 0.66020 0.06500
H 	H 	0.12400 0.10771 0.60586 0.05500
O 	O 	0.35297 0.41668 0.63029 -0.31000
H 	H 	0.34110 0.46218 0.61753 0.15400
C 	C 	0.80552 0.65682 0.59493 -0.02400
C 	C 	0.84349 0.74646 0.58607 -0.04500
C 	C 	0.88203 0.81252 0.60874 0.03700
C 	C 	0.88203 0.79003 0.64050 -0.14800
C 	C 	0.85158 0.69915 0.64887 0.19600
C 	C 	0.81326 0.63296 0.62617 -0.09900
H 	H 	0.90634 0.88215 0.60193 0.03300
H 	H 	0.78759 0.56355 0.63311 0.07600
H 	H 	0.84031 0.76577 0.56193 0.05300
O 	O 	0.85347 0.67565 0.67968 -0.29900
H 	H 	0.90396 0.66497 0.68249 0.14800
C 	C 	0.89641 0.51519 0.96176 -0.02000
C 	C 	0.97048 0.52425 0.94932 -0.02900
C 	C 	0.03887 0.55287 0.96860 0.02800
C 	C 	0.03417 0.57369 0.00035 -0.16600
C 	C 	0.95999 0.56339 0.01298 0.22200
C 	C 	0.89159 0.53351 0.99381 -0.10100
H 	H 	0.09559 0.55985 0.95875 0.02900
H 	H 	0.83480 0.52473 0.00394 0.07400
H 	H 	0.97530 0.50979 0.92473 0.06100
O 	O 	0.95377 0.57879 0.04437 -0.30400
H 	H 	0.95755 0.64217 0.04607 0.14400
C 	C 	0.45900 0.99272 0.00069 -0.09200
C 	C 	0.41655 0.04259 0.98777 0.00700
C 	C 	0.45065 0.10581 0.96485 0.00700
C 	C 	0.52760 0.11922 0.95455 -0.12600
C 	C 	0.57423 0.07914 0.97114 0.16800
C 	C 	0.53930 0.01499 0.99381 -0.02700
H 	H 	0.41548 0.14028 0.95379 0.05000
H 	H 	0.57337 0.97896 0.00475 0.04000
H 	H 	0.35513 0.02758 0.99372 0.04000
O 	O 	0.65279 0.10013 0.96455 -0.27600
H 	H 	0.68186 0.15152 0.97870 0.14800
C 	C 	0.45792 0.45876 0.93973 -0.05200
C 	C 	0.49725 0.46614 0.96884 -0.04200
C 	C 	0.46141 0.47911 0.99629 0.02000
C 	C 	0.38635 0.48666 0.99492 -0.15000
C 	C 	0.34543 0.47585 0.96571 0.17600
C 	C 	0.38096 0.46058 0.93833 -0.08800
H 	H 	0.49340 0.48704 0.01854 0.02600
H 	H 	0.34928 0.45204 0.91598 0.06700
H 	H 	0.55574 0.46184 0.97022 -0.01400
O 	O 	0.27147 0.48150 0.96379 -0.27400
H 	H 	0.28090 0.54566 0.96000 0.12200
C 	C 	0.85445 0.22898 0.83241 -0.02000
C 	C 	0.92065 0.29550 0.81956 -0.05300
C 	C 	0.97159 0.27127 0.80006 0.05200
C 	C 	0.95674 0.18053 0.79314 -0.13900
C 	C 	0.88861 0.11427 0.80507 0.19200
C 	C 	0.83887 0.13857 0.82491 -0.10500
H 	H 	0.02342 0.32290 0.79095 0.01500
H 	H 	0.78737 0.08668 0.83414 0.06000
H 	H 	0.93319 0.36573 0.82487 0.06300
O 	O 	0.87140 0.02539 0.79788 -0.27700
H 	H 	0.82862 0.01004 0.78154 0.10000
C 	C 	0.39493 0.10254 0.82033 -0.01300
C 	C 	0.39559 0.11690 0.78798 -0.05800
C 	C 	0.32480 0.08554 0.77030 0.03600
C 	C 	0.25256 0.04177 0.78503 -0.15700
C 	C 	0.25326 0.01831 0.81680 0.23100
C 	C 	0.32465 0.04824 0.83430 -0.10900
H 	H 	0.32519 0.10224 0.74570 0.00200
H 	H 	0.32431 0.03462 0.85918 0.08500
H 	H 	0.45006 0.15699 0.77687 0.03100
O 	O 	0.18384 0.97023 0.83115 -0.31600
H 	H 	0.16395 0.01567 0.83994 0.18100
C 	C 	0.76968 0.62023 0.83890 -0.02800
C 	C 	0.77070 0.59684 0.80705 -0.04200
C 	C 	0.80502 0.66308 0.78501 0.02300
C 	C 	0.83806 0.75357 0.79443 -0.14100
C 	C 	0.83272 0.77761 0.82600 0.18900
C 	C 	0.79941 0.71111 0.84807 -0.09600
H 	H 	0.80765 0.64374 0.76074 0.03700
H 	H 	0.79757 0.73044 0.87239 0.07500
H 	H 	0.74630 0.52723 0.79943 0.04700
O 	O 	0.86088 0.86598 0.83541 -0.26900
H 	H 	0.81406 0.88454 0.83459 0.14000
