data_crystal

_cell_length_a 20.63794
_cell_length_b 21.20187
_cell_length_c 40.02732
_cell_angle_alpha 60.74568
_cell_angle_beta  119.00357
_cell_angle_gamma 133.22299

_symmetry_space_group_name_	'P 1'
_symmetry_space_group_name_H-M	'P 1'

loop_
_symmetry_equiv_pos_as_xyz
  x,y,z

loop_
_atom_site_label
_atom_site_type_symbol
_atom_site_fract_x
_atom_site_fract_y
_atom_site_fract_z
_atom_site_charge
Co	Co	0.03482 0.09627 0.07787 1.18700
Co	Co	0.10973 0.03532 0.05047 1.16700
Co	Co	0.12360 0.88988 0.05063 1.17400
O 	O 	0.03274 0.06688 0.18442 -0.41900
C 	C 	0.02532 0.99265 0.20709 0.31900
O 	O 	0.11020 0.13767 0.04334 -0.47600
C 	C 	0.11337 0.23209 0.11667 0.31200
C 	C 	0.13719 0.79569 0.13511 0.30800
O 	O 	0.02728 0.94699 0.19394 -0.37300
O 	O 	0.10602 0.78461 0.09986 -0.40400
O 	O 	0.12172 0.83850 0.14234 -0.38800
O 	O 	0.02795 0.19842 0.10997 -0.40700
O 	O 	0.13453 0.19285 0.11043 -0.40100
O 	O 	0.07538 0.92821 0.06755 -0.74100
Co	Co	0.01965 0.00938 0.53179 1.17000
Co	Co	0.05234 0.88201 0.52940 1.18200
O 	O 	0.01677 0.10672 0.52783 -0.47000
C 	C 	0.09249 0.20097 0.62763 0.30500
C 	C 	0.14433 0.85270 0.61299 0.30200
O 	O 	0.10219 0.85495 0.62870 -0.38000
O 	O 	0.05370 0.13821 0.65708 -0.40000
O 	O 	0.09231 0.18101 0.60074 -0.38900
O 	O 	0.00935 0.91232 0.55391 -0.73100
H 	H 	0.07046 0.92147 0.77449 0.06900
C 	C 	0.00213 0.98330 0.29901 0.19400
C 	C 	0.02718 0.93347 0.33452 -0.12800
C 	C 	0.00545 0.91096 0.36875 0.05000
C 	C 	0.03493 0.01787 0.26381 -0.15000
C 	C 	0.02138 0.96381 0.24865 -0.03000
H 	H 	0.06493 0.91362 0.33587 0.07300
H 	H 	0.02448 0.87182 0.39587 0.02300
H 	H 	0.06083 0.08672 0.24743 0.06800
C 	C 	0.17325 0.32548 0.65731 0.12100
C 	C 	0.12987 0.70959 0.64492 0.12100
C 	C 	0.15711 0.66589 0.64312 -0.07400
H 	H 	0.11396 0.59359 0.64975 0.05900
N 	N 	0.04965 0.66070 0.65459 -0.20100
C 	C 	0.14967 0.67000 0.17973 0.12200
N 	N 	0.06858 0.61531 0.18967 -0.20300
H 	H 	0.15367 0.56232 0.19014 0.05600
H 	H 	0.02910 0.29082 0.02878 0.09900
C 	C 	0.09044 0.01090 0.97693 0.28900
O 	O 	0.14875 0.99131 0.99979 -0.37300
O 	O 	0.06507 0.03423 0.99104 -0.39100
C 	C 	0.12455 0.08198 0.82375 -0.01300
C 	C 	0.11715 0.06962 0.85987 -0.09700
C 	C 	0.06313 0.01765 0.93419 -0.18500
H 	H 	0.17066 0.14872 0.80790 0.02900
H 	H 	0.16066 0.12636 0.87231 0.04900
C 	C 	0.13054 0.29347 0.62334 -0.10900
H 	H 	0.03065 0.69101 0.65841 0.09800
H 	H 	0.04309 0.38135 0.03175 0.09200
C 	C 	0.05399 0.96839 0.75355 -0.06700
C 	C 	0.07160 0.00881 0.80779 -0.04400
C 	C 	0.06618 0.02535 0.76611 -0.03800
C 	C 	0.11928 0.41857 0.58410 0.08300
C 	C 	0.10388 0.34052 0.58694 -0.02500
H 	H 	0.06793 0.31459 0.56109 0.04800
H 	H 	0.06102 0.43977 0.52347 0.09000
H 	H 	0.06109 0.07945 0.74443 0.03600
N 	N 	0.09145 0.46220 0.54878 -0.19400
H 	H 	0.09738 0.51717 0.54646 0.09400
O 	O 	0.02351 0.94853 0.69096 -0.35800
H 	H 	0.00728 0.59111 0.66010 0.09000
H 	H 	0.04962 0.06651 0.91287 0.08100
O 	O 	0.13317 0.01426 0.50023 -0.43100
C 	C 	0.16384 0.45109 0.61800 -0.03200
C 	C 	0.06131 0.96693 0.92206 0.04800
C 	C 	0.05591 0.98389 0.88037 0.05500
O 	O 	0.16002 0.90316 0.57791 -0.38200
O 	O 	0.15825 0.08353 0.53861 -0.41800
N 	N 	0.00005 0.31603 0.02886 -0.19000
Co	Co	0.01809 0.85570 0.10326 1.19200
O 	O 	0.00497 0.96739 0.08338 -0.55300
H 	H 	0.03591 0.54635 0.19990 0.08700
H 	H 	0.03912 0.64149 0.18857 0.09400
H 	H 	0.06581 0.91240 0.94358 0.03100
C 	C 	0.01032 0.92310 0.82833 0.03800
H 	H 	0.17643 0.24274 0.19174 0.04500
C 	C 	0.00283 0.91082 0.86436 -0.04900
C 	C 	0.99960 0.95644 0.71318 0.26800
H 	H 	0.99809 0.89567 0.26525 0.03400
C 	C 	0.19295 0.76307 0.16546 -0.10200
C 	C 	0.19135 0.63402 0.18368 -0.07500
C 	C 	0.18121 0.39882 0.65478 -0.07500
O 	O 	0.97897 0.74871 0.55836 -0.42200
H 	H 	0.96648 0.03089 0.40041 0.04000
Co	Co	0.98198 0.84924 0.59810 1.17500
O 	O 	0.95635 0.99349 0.47332 -0.36700
C 	C 	0.94402 0.93863 0.45973 0.30100
C 	C 	0.95968 0.93912 0.36807 -0.08100
Co	Co	0.97857 0.07243 0.57553 1.17200
H 	H 	0.20892 0.30388 0.23907 0.08100
O 	O 	0.94156 0.86744 0.48370 -0.40500
C 	C 	0.94443 0.96352 0.41798 -0.10800
N 	N 	0.21033 0.28856 0.69193 -0.20200
H 	H 	0.23701 0.30887 0.71746 0.08200
H 	H 	0.21823 0.24365 0.69324 0.09600
C 	C 	0.21752 0.37501 0.18050 0.07800
C 	C 	0.19434 0.30587 0.17017 -0.03200
N 	N 	0.22065 0.36285 0.21776 -0.19600
H 	H 	0.23184 0.41054 0.22555 0.08900
C 	C 	0.18392 0.31382 0.13120 -0.10800
O 	O 	0.25338 0.97781 0.07925 -0.36000
O 	O 	0.24884 0.08949 0.07208 -0.39900
H 	H 	0.95654 0.84410 0.88016 0.03200
H 	H 	0.96666 0.86628 0.81594 0.01600
H 	H 	0.21355 0.42275 0.68094 0.05200
C 	C 	0.18649 0.80401 0.63650 -0.10100
H 	H 	0.94273 0.54089 0.12716 0.08100
H 	H 	0.26928 0.17578 0.00240 0.08200
C 	C 	0.73495 0.29835 0.00861 0.11800
N 	N 	0.65264 0.23949 0.01832 -0.14600
C 	C 	0.61858 0.26947 0.02383 0.12100
N 	N 	0.66653 0.35744 0.01999 -0.14200
C 	C 	0.75025 0.41589 0.01240 0.12300
N 	N 	0.78481 0.38663 0.00660 -0.14500
C 	C 	0.66793 0.26143 0.51596 0.11800
N 	N 	0.72615 0.34371 0.52314 -0.14500
C 	C 	0.69201 0.38227 0.52125 0.12200
N 	N 	0.60072 0.34012 0.51119 -0.14100
C 	C 	0.54254 0.25764 0.50499 0.12200
N 	N 	0.57594 0.21899 0.50633 -0.14500
C 	C 	0.31785 0.65593 0.17325 0.12000
N 	N 	0.26143 0.57109 0.16837 -0.14100
C 	C 	0.29658 0.53928 0.16468 0.12200
N 	N 	0.38664 0.59103 0.16651 -0.14100
C 	C 	0.44084 0.67664 0.16815 0.12500
N 	N 	0.40633 0.70988 0.17073 -0.14100
C 	C 	0.26488 0.66825 0.62869 0.12100
N 	N 	0.35403 0.70858 0.63205 -0.14100
C 	C 	0.37576 0.67320 0.62221 0.12400
N 	N 	0.30980 0.59473 0.61185 -0.14100
C 	C 	0.22302 0.54774 0.61390 0.12300
N 	N 	0.19954 0.58518 0.62150 -0.14100
Co	Co	0.96011 0.92327 0.13702 1.18600
C 	C 	0.92979 0.73891 0.04789 0.29700
Co	Co	0.93618 0.06534 0.13278 1.15500
C 	C 	0.28778 0.06295 0.06886 0.25800
O 	O 	0.97530 0.02304 0.11293 -0.79100
O 	O 	0.96040 0.82130 0.14405 -0.47700
C 	C 	0.78701 0.87072 0.14147 0.31800
O 	O 	0.84131 0.93601 0.15865 -0.40200
O 	O 	0.82065 0.85230 0.12951 -0.38900
C 	C 	0.88047 0.11987 0.04632 0.29500
O 	O 	0.84769 0.06140 0.07791 -0.40900
O 	O 	0.94099 0.12776 0.03754 -0.39600
O 	O 	0.98810 0.80695 0.02545 -0.40200
O 	O 	0.91975 0.74998 0.07493 -0.38700
Co	Co	0.93069 0.90820 0.63902 1.19000
C 	C 	0.89689 0.70495 0.56216 0.31500
Co	Co	0.91513 0.04284 0.64576 1.15300
C 	C 	0.18878 0.07760 0.51881 0.31900
O 	O 	0.92757 0.95629 0.69892 -0.38400
O 	O 	0.93879 0.00332 0.61648 -0.79800
O 	O 	0.93856 0.81304 0.64452 -0.47600
O 	O 	0.94545 0.94349 0.57872 -0.57600
C 	C 	0.74785 0.86177 0.63152 0.29900
O 	O 	0.77875 0.94162 0.63056 -0.37100
O 	O 	0.80204 0.83519 0.64854 -0.38100
C 	C 	0.85621 0.11826 0.56071 0.31000
O 	O 	0.90233 0.13563 0.59548 -0.42000
O 	O 	0.87206 0.08616 0.54670 -0.41000
O 	O 	0.88166 0.73232 0.57918 -0.39800
C 	C 	0.93410 0.98844 0.33250 0.12700
C 	C 	0.95580 0.01091 0.29828 -0.24000
C 	C 	0.92983 0.90741 0.40375 0.02300
H 	H 	0.89646 0.00840 0.33116 -0.02900
H 	H 	0.93698 0.05024 0.27119 0.07200
H 	H 	0.90558 0.83943 0.42117 0.02700
C 	C 	0.50410 0.77580 0.59027 -0.07300
C 	C 	0.47093 0.71737 0.62439 -0.03200
C 	C 	0.52400 0.69078 0.65808 0.08200
C 	C 	0.61213 0.72856 0.65775 -0.02800
C 	C 	0.64872 0.79426 0.62499 -0.10300
C 	C 	0.59146 0.81191 0.58989 0.12300
N 	N 	0.62079 0.86453 0.55595 -0.20200
H 	H 	0.46115 0.79186 0.56374 0.05600
H 	H 	0.65515 0.71258 0.68427 0.05000
N 	N 	0.49159 0.63065 0.69099 -0.19500
H 	H 	0.57979 0.88051 0.53037 0.09600
H 	H 	0.68355 0.88802 0.55445 0.09500
H 	H 	0.42772 0.60373 0.69279 0.09200
H 	H 	0.53098 0.61081 0.71553 0.08500
C 	C 	0.27612 0.84985 0.63489 -0.02900
C 	C 	0.23885 0.71556 0.63203 -0.03200
C 	C 	0.29708 0.81005 0.62598 0.08300
N 	N 	0.36452 0.86308 0.60668 -0.19300
H 	H 	0.32279 0.92130 0.63200 0.05400
H 	H 	0.41400 0.93058 0.60690 0.09400
H 	H 	0.36029 0.84175 0.58662 0.09800
C 	C 	0.22866 0.46449 0.11331 -0.07400
C 	C 	0.23660 0.45606 0.15196 -0.03100
C 	C 	0.20974 0.39691 0.10371 0.12200
N 	N 	0.21647 0.41216 0.06800 -0.20400
H 	H 	0.24596 0.52737 0.09158 0.05500
H 	H 	0.23290 0.47274 0.04711 0.08600
H 	H 	0.20805 0.36489 0.06119 0.09200
C 	C 	0.67297 0.74776 0.18083 -0.02300
C 	C 	0.69152 0.80678 0.14415 -0.11100
C 	C 	0.62744 0.82478 0.11579 0.12500
C 	C 	0.55098 0.79110 0.12611 -0.07500
C 	C 	0.53420 0.73462 0.16336 -0.03200
C 	C 	0.59727 0.71487 0.19137 0.07900
N 	N 	0.58604 0.66542 0.22862 -0.19400
H 	H 	0.72221 0.73393 0.20259 0.04100
H 	H 	0.50132 0.80420 0.10422 0.05800
N 	N 	0.63894 0.87411 0.07859 -0.20300
H 	H 	0.63101 0.64835 0.24884 0.08400
H 	H 	0.53476 0.64640 0.23827 0.09000
H 	H 	0.69028 0.89273 0.06915 0.10700
H 	H 	0.59403 0.89115 0.05821 0.09500
C 	C 	0.28160 0.69096 0.17942 -0.03100
C 	C 	0.33319 0.78313 0.17720 0.08300
C 	C 	0.28683 0.81921 0.16715 -0.03300
H 	H 	0.32344 0.89099 0.15971 0.05500
N 	N 	0.42594 0.83411 0.18884 -0.19300
H 	H 	0.46006 0.80490 0.20910 0.09700
H 	H 	0.46345 0.90348 0.18244 0.09200
C 	C 	0.71054 0.08835 0.54991 -0.03500
C 	C 	0.78961 0.13953 0.53682 -0.11500
C 	C 	0.81775 0.22465 0.51068 0.11900
C 	C 	0.77459 0.26203 0.50294 -0.07800
C 	C 	0.70460 0.21598 0.52125 -0.03300
C 	C 	0.67213 0.12781 0.54514 0.07300
N 	N 	0.60975 0.08355 0.56595 -0.19500
H 	H 	0.68713 0.02180 0.56886 0.03500
H 	H 	0.79721 0.32806 0.48347 0.05200
N 	N 	0.88730 0.27149 0.49362 -0.20500
H 	H 	0.58011 0.01600 0.58039 0.07100
H 	H 	0.59668 0.11714 0.57118 0.08300
H 	H 	0.91756 0.24359 0.49738 0.08700
H 	H 	0.91000 0.33568 0.47536 0.07700
C 	C 	0.82448 0.54379 0.58284 -0.02300
C 	C 	0.82639 0.61693 0.55370 -0.11400
C 	C 	0.78305 0.61120 0.51418 0.12100
C 	C 	0.75253 0.53941 0.50349 -0.07700
C 	C 	0.75254 0.46684 0.53236 -0.03200
C 	C 	0.78831 0.46868 0.57264 0.07500
N 	N 	0.78801 0.39881 0.60156 -0.19500
H 	H 	0.85542 0.54716 0.61340 0.03600
H 	H 	0.72178 0.53655 0.47283 0.05300
N 	N 	0.76894 0.67367 0.48659 -0.20400
H 	H 	0.81367 0.40060 0.63114 0.07700
H 	H 	0.76341 0.34264 0.59512 0.08900
H 	H 	0.77946 0.72039 0.49480 0.10000
H 	H 	0.74194 0.67258 0.45687 0.08800
C 	C 	0.42726 0.15404 0.54383 -0.07700
C 	C 	0.44775 0.20366 0.50674 -0.03600
C 	C 	0.38639 0.22163 0.47487 0.07700
C 	C 	0.30682 0.19147 0.48100 -0.02500
C 	C 	0.28532 0.13986 0.51789 -0.11600
C 	C 	0.34951 0.12690 0.55022 0.11900
N 	N 	0.33782 0.09024 0.58751 -0.20200
H 	H 	0.47584 0.14269 0.56855 0.04500
H 	H 	0.25795 0.20227 0.45625 0.04200
N 	N 	0.40280 0.26644 0.43819 -0.19500
H 	H 	0.38534 0.08034 0.61125 0.07500
H 	H 	0.28441 0.07570 0.59354 0.09200
H 	H 	0.45788 0.28390 0.43214 0.08800
H 	H 	0.35857 0.28184 0.41496 0.08300
C 	C 	0.75539 0.13794 0.00452 -0.04000
C 	C 	0.84950 0.17808 0.02067 -0.10400
C 	C 	0.90800 0.26850 0.02204 0.10000
C 	C 	0.87019 0.30963 0.01618 -0.07300
C 	C 	0.77490 0.26499 0.00478 -0.04200
C 	C 	0.71840 0.18308 0.99435 0.08500
N 	N 	0.63069 0.15008 0.97297 -0.19500
H 	H 	0.71054 0.07062 0.00095 0.03400
H 	H 	0.91503 0.37550 0.02131 0.05100
H 	H 	0.58770 0.08704 0.96757 0.07700
H 	H 	0.60701 0.18961 0.95883 0.08900
C 	C 	0.82027 0.63902 0.00268 -0.04300
C 	C 	0.87168 0.64961 0.04111 -0.09900
C 	C 	0.88850 0.58531 0.06870 0.11300
C 	C 	0.86224 0.51768 0.05627 -0.07100
C 	C 	0.80900 0.50576 0.01827 -0.04300
C 	C 	0.79024 0.56866 0.99081 0.09100
N 	N 	0.74430 0.56235 0.95290 -0.19700
H 	H 	0.80799 0.68859 0.98129 0.05300
H 	H 	0.87569 0.46880 0.07747 0.04900
N 	N 	0.92743 0.58656 0.10734 -0.20000
H 	H 	0.72820 0.60740 0.93293 0.08500
H 	H 	0.72682 0.51451 0.94261 0.09000
H 	H 	0.93705 0.62838 0.11852 0.09100
C 	C 	0.45799 0.21127 0.00755 -0.07900
C 	C 	0.53100 0.20725 0.03495 -0.03600
C 	C 	0.52700 0.16304 0.07495 0.07600
C 	C 	0.45054 0.12507 0.08672 -0.03500
C 	C 	0.37745 0.12898 0.05919 -0.09800
C 	C 	0.38366 0.17682 0.01967 0.10800
N 	N 	0.31899 0.19070 0.99334 -0.19500
H 	H 	0.46219 0.24709 0.97710 0.05400
H 	H 	0.44575 0.08827 0.11704 0.03700
N 	N 	0.59601 0.15651 0.10215 -0.19600
H 	H 	0.32082 0.22111 0.96362 0.08500
H 	H 	0.65198 0.18053 0.09416 0.08700
H 	H 	0.59325 0.12526 0.13175 0.07400
