data_crystal

_cell_length_a 26.07757
_cell_length_b 26.35753
_cell_length_c 32.22532
_cell_angle_alpha 95.55353
_cell_angle_beta  95.55450
_cell_angle_gamma 125.65159

_symmetry_space_group_name_	'P 1'
_symmetry_space_group_name_H-M	'P 1'

loop_
_symmetry_equiv_pos_as_xyz
  x,y,z

loop_
_atom_site_label
_atom_site_type_symbol
_atom_site_fract_x
_atom_site_fract_y
_atom_site_fract_z
_atom_site_charge
C 	C 	0.00245 0.07249 0.99308 0.01600
C 	C 	0.96591 0.00671 0.99189 -0.06200
C 	C 	0.99589 0.97665 0.99305 0.01600
C 	C 	0.06239 0.01225 0.99520 -0.06500
C 	C 	0.09928 0.07809 0.99687 0.01900
C 	C 	0.06925 0.10820 0.99575 -0.06700
H 	H 	0.91429 0.97899 0.98980 0.04600
H 	H 	0.08548 0.98884 0.99588 0.04600
H 	H 	0.09772 0.15914 0.99714 0.04700
C 	C 	0.89593 0.95451 0.44942 0.02400
C 	C 	0.86043 0.88850 0.44721 -0.07000
C 	C 	0.89124 0.85912 0.44528 0.02300
C 	C 	0.95760 0.89602 0.44590 -0.06900
C 	C 	0.99303 0.96179 0.44799 0.02200
C 	C 	0.96219 0.99099 0.44973 -0.07200
H 	H 	0.80917 0.86020 0.44683 0.04800
H 	H 	0.98170 0.87362 0.44503 0.04900
H 	H 	0.98968 0.04196 0.45150 0.05100
Cu	Cu	0.67440 0.28001 0.00285 0.92800
Cu	Cu	0.69007 0.27252 0.90256 0.87100
Cu	Cu	0.71035 0.38618 0.95363 0.89800
Cu	Cu	0.70162 0.40783 0.04502 0.89300
C 	C 	0.72075 0.32657 0.09286 0.25300
O 	O 	0.58882 0.25453 0.01595 -0.36000
C 	C 	0.65754 0.34356 0.86163 0.25500
O 	O 	0.73601 0.37939 0.00907 -0.64200
O 	O 	0.65351 0.29122 0.94540 -0.64100
O 	O 	0.69957 0.22367 0.98654 -0.37200
O 	O 	0.75777 0.28136 0.93889 -0.43700
O 	O 	0.69807 0.36016 0.09072 -0.37500
O 	O 	0.76963 0.47781 0.96530 -0.38400
C 	C 	0.77356 0.51554 0.99771 0.28600
C 	C 	0.56764 0.28791 0.00796 0.27800
O 	O 	0.60806 0.34710 0.00346 -0.39000
O 	O 	0.74125 0.49298 0.02874 -0.39400
O 	O 	0.70875 0.28500 0.05970 -0.34300
C 	C 	0.74549 0.24140 0.96459 0.28400
O 	O 	0.69847 0.39172 0.89328 -0.38300
O 	O 	0.64377 0.28687 0.86166 -0.39800
H 	H 	0.78275 0.40100 0.01748 0.16500
H 	H 	0.60760 0.27213 0.93561 0.17300
Cu	Cu	0.70263 0.29479 0.45105 0.92700
Cu	Cu	0.70885 0.27549 0.55031 0.87000
Cu	Cu	0.59432 0.25676 0.49973 0.89800
Cu	Cu	0.57142 0.26477 0.40705 0.89400
C 	C 	0.67034 0.27347 0.36116 0.25900
O 	O 	0.73078 0.38119 0.44011 -0.36400
C 	C 	0.63747 0.30817 0.59153 0.25400
O 	O 	0.60189 0.23313 0.44404 -0.63900
O 	O 	0.69031 0.31319 0.50847 -0.64200
O 	O 	0.75794 0.26733 0.46568 -0.37300
O 	O 	0.69914 0.20871 0.51284 -0.43600
O 	O 	0.61118 0.25662 0.35895 -0.37100
O 	O 	0.50178 0.19743 0.48785 -0.38300
C 	C 	0.46399 0.19364 0.45530 0.28500
C 	C 	0.69415 0.39993 0.44312 0.28000
O 	O 	0.63404 0.35928 0.44672 -0.38800
O 	O 	0.48760 0.22950 0.42623 -0.39100
O 	O 	0.69841 0.26543 0.39348 -0.35500
C 	C 	0.73913 0.22077 0.48677 0.28100
O 	O 	0.58866 0.26716 0.56010 -0.38300
O 	O 	0.69433 0.32044 0.59209 -0.39600
H 	H 	0.58136 0.18714 0.43571 0.16600
H 	H 	0.70919 0.35844 0.51862 0.17300
C 	C 	0.58807 0.33654 0.75989 0.11500
C 	C 	0.55554 0.30090 0.71881 -0.09000
C 	C 	0.58227 0.32859 0.68428 0.00700
C 	C 	0.64368 0.38447 0.69023 0.11400
C 	C 	0.67781 0.41835 0.73142 -0.09000
C 	C 	0.64646 0.39577 0.76564 0.00600
O 	O 	0.57789 0.30812 0.79538 -0.19500
C 	C 	0.63555 0.35589 0.82289 0.03900
C 	C 	0.67666 0.40806 0.80550 -0.05800
O 	O 	0.67453 0.39029 0.65619 -0.19600
C 	C 	0.62566 0.33279 0.62932 0.03900
C 	C 	0.57078 0.29568 0.64574 -0.05800
H 	H 	0.51349 0.25186 0.71410 0.06200
H 	H 	0.72824 0.45821 0.73674 0.06200
H 	H 	0.72836 0.44015 0.81615 0.05000
H 	H 	0.53636 0.24449 0.63618 0.05100
C 	C 	0.73262 0.28175 0.19024 0.11200
C 	C 	0.69656 0.23916 0.21660 -0.08500
C 	C 	0.69078 0.26390 0.25485 0.00600
C 	C 	0.72292 0.32792 0.26832 0.12000
C 	C 	0.76057 0.37089 0.24287 -0.09200
C 	C 	0.76560 0.34649 0.20396 0.01300
O 	O 	0.71838 0.26326 0.14633 -0.18700
C 	C 	0.74342 0.32232 0.13498 0.04500
C 	C 	0.77228 0.37214 0.16907 -0.06500
O 	O 	0.72914 0.34573 0.31155 -0.19900
C 	C 	0.69792 0.28565 0.32267 0.04500
C 	C 	0.67681 0.23693 0.28919 -0.05500
H 	H 	0.67092 0.18843 0.20644 0.06400
H 	H 	0.78499 0.42144 0.25291 0.06200
H 	H 	0.77852 0.41639 0.16801 0.04700
H 	H 	0.64198 0.18662 0.28879 0.05100
C 	C 	0.72109 0.46713 0.44376 -0.07500
C 	C 	0.70314 0.49703 0.47062 0.00400
C 	C 	0.72625 0.55991 0.47000 -0.05600
C 	C 	0.76986 0.59481 0.44336 0.01300
C 	C 	0.78386 0.56284 0.41398 0.00400
C 	C 	0.76118 0.49999 0.41536 -0.01700
C 	C 	0.81819 0.59305 0.38251 -0.03500
C 	C 	0.83891 0.65457 0.37989 -0.05200
C 	C 	0.82967 0.68876 0.41044 0.03100
C 	C 	0.79739 0.66014 0.44362 -0.01400
C 	C 	0.79753 0.69852 0.47759 -0.02900
C 	C 	0.82492 0.76240 0.47677 -0.04700
C 	C 	0.85441 0.78973 0.44299 0.01300
C 	C 	0.85559 0.75251 0.40951 -0.06800
H 	H 	0.67032 0.47117 0.49158 0.03300
H 	H 	0.70716 0.57963 0.48835 0.04300
H 	H 	0.77297 0.47597 0.39341 0.04800
H 	H 	0.82781 0.56830 0.35943 0.03900
H 	H 	0.86409 0.67650 0.35471 0.04000
H 	H 	0.78065 0.68070 0.50591 0.03500
H 	H 	0.82577 0.79145 0.50343 0.04000
H 	H 	0.87926 0.77401 0.38368 0.04600
C 	C 	0.86410 0.98581 0.45205 0.01100
C 	C 	0.85546 0.01008 0.41743 -0.04600
C 	C 	0.83156 0.04564 0.42116 -0.02900
C 	C 	0.81890 0.06010 0.46055 -0.01500
C 	C 	0.82197 0.03044 0.49417 0.03400
C 	C 	0.84571 0.99448 0.48996 -0.07000
C 	C 	0.80053 0.03625 0.53133 -0.05500
C 	C 	0.77657 0.07152 0.53571 -0.03400
C 	C 	0.77706 0.10475 0.50409 -0.00000
C 	C 	0.80069 0.10149 0.46688 0.01400
C 	C 	0.80937 0.14249 0.43851 -0.05700
C 	C 	0.78856 0.18052 0.44477 0.00500
C 	C 	0.76135 0.18061 0.48026 -0.07900
C 	C 	0.75625 0.14308 0.51004 -0.01700
H 	H 	0.86708 0.00117 0.38748 0.04100
H 	H 	0.82035 0.05909 0.39299 0.03600
H 	H 	0.85067 0.97400 0.51630 0.04600
H 	H 	0.80163 0.01263 0.55676 0.04000
H 	H 	0.75902 0.07432 0.56436 0.03200
H 	H 	0.83505 0.14774 0.41295 0.04400
H 	H 	0.79443 0.21059 0.42218 0.04400
H 	H 	0.73733 0.14466 0.53828 0.03000
C 	C 	0.06268 0.00009 0.44870 0.01600
C 	C 	0.10619 0.04073 0.48617 -0.04900
C 	C 	0.17223 0.07371 0.48791 -0.02700
C 	C 	0.19557 0.06441 0.45234 -0.01600
C 	C 	0.15178 0.02791 0.41345 0.03500
C 	C 	0.08549 0.99466 0.41217 -0.07400
C 	C 	0.17474 0.02634 0.37612 -0.05200
C 	C 	0.24061 0.06085 0.37689 -0.03500
C 	C 	0.28453 0.09420 0.41543 0.00200
C 	C 	0.26211 0.09342 0.45388 0.01400
C 	C 	0.30594 0.11824 0.49277 -0.05700
C 	C 	0.37155 0.15029 0.49310 0.00600
C 	C 	0.39434 0.15604 0.45486 -0.07400
C 	C 	0.35064 0.12693 0.41611 -0.01500
H 	H 	0.08879 0.04693 0.51401 0.04100
H 	H 	0.20475 0.10843 0.51611 0.03500
H 	H 	0.05169 0.96476 0.38281 0.04700
H 	H 	0.14147 0.99933 0.34618 0.03900
H 	H 	0.25748 0.06050 0.34749 0.03500
H 	H 	0.28940 0.11038 0.52260 0.04300
H 	H 	0.40473 0.17077 0.52323 0.04000
H 	H 	0.36800 0.12915 0.38657 0.03500
C 	C 	0.95791 0.90799 0.99281 0.01500
C 	C 	0.93507 0.88462 0.02923 -0.04900
C 	C 	0.90383 0.82030 0.03050 -0.02800
C 	C 	0.89729 0.77878 0.99562 -0.01500
C 	C 	0.91481 0.80138 0.95747 0.03300
C 	C 	0.94654 0.86622 0.95666 -0.07000
C 	C 	0.89911 0.75879 0.92038 -0.05300
C 	C 	0.86601 0.69405 0.92070 -0.03400
C 	C 	0.85177 0.67135 0.95871 0.00200
C 	C 	0.87051 0.71419 0.99702 0.01400
C 	C 	0.86555 0.69230 0.03579 -0.05800
C 	C 	0.83478 0.62774 0.03585 0.00500
C 	C 	0.81052 0.58428 0.99753 -0.07400
C 	C 	0.82037 0.60643 0.95905 -0.01600
H 	H 	0.94152 0.91641 0.05665 0.04000
H 	H 	0.88241 0.80271 0.05772 0.03400
H 	H 	0.96240 0.88419 0.92802 0.04700
H 	H 	0.91144 0.77570 0.89095 0.04100
H 	H 	0.85264 0.66161 0.89143 0.03700
H 	H 	0.88806 0.72515 0.06586 0.04200
H 	H 	0.83058 0.61161 0.06587 0.03000
H 	H 	0.80330 0.57323 0.92943 0.04600
C 	C 	0.78314 0.21620 0.96853 -0.08000
C 	C 	0.80746 0.20773 0.93371 0.00500
C 	C 	0.84405 0.18490 0.93724 -0.05900
C 	C 	0.85943 0.17273 0.97651 0.01400
C 	C 	0.83081 0.17674 0.01069 0.00300
C 	C 	0.79417 0.19992 0.00683 -0.01400
C 	C 	0.83728 0.15560 0.04779 -0.03400
C 	C 	0.87078 0.12948 0.05105 -0.05200
C 	C 	0.90179 0.12763 0.01837 0.03300
C 	C 	0.89951 0.15268 0.98184 -0.01500
C 	C 	0.93933 0.15958 0.95265 -0.02800
C 	C 	0.97316 0.13381 0.95663 -0.04700
C 	C 	0.97048 0.10368 0.99073 0.01600
C 	C 	0.93619 0.10208 0.02214 -0.06900
H 	H 	0.79659 0.21733 0.90343 0.01900
H 	H 	0.85711 0.17355 0.90886 0.04000
H 	H 	0.77419 0.20513 0.03352 0.05100
H 	H 	0.81490 0.15794 0.07382 0.04100
H 	H 	0.87345 0.11151 0.07941 0.04200
H 	H 	0.94666 0.18717 0.92814 0.03400
H 	H 	0.00173 0.13744 0.93319 0.03900
H 	H 	0.93627 0.08095 0.04939 0.04700
C 	C 	0.49945 0.26026 0.00673 -0.07600
C 	C 	0.46859 0.27650 0.97902 0.00300
C 	C 	0.40417 0.25129 0.97834 -0.05700
C 	C 	0.36879 0.20722 0.00445 0.01300
C 	C 	0.40166 0.19521 0.03486 0.00300
C 	C 	0.46611 0.22016 0.03489 -0.01600
C 	C 	0.37052 0.16023 0.06579 -0.03400
C 	C 	0.30709 0.13674 0.06676 -0.05300
C 	C 	0.27217 0.14397 0.03512 0.03200
C 	C 	0.30192 0.17704 0.00252 -0.01500
C 	C 	0.26330 0.17513 0.96748 -0.02800
C 	C 	0.19794 0.14544 0.96679 -0.04800
C 	C 	0.16947 0.11538 0.00006 0.01400
C 	C 	0.20680 0.11548 0.03443 -0.06900
H 	H 	0.49477 0.30937 0.95828 0.03300
H 	H 	0.38343 0.26890 0.95932 0.04300
H 	H 	0.49081 0.20977 0.05758 0.04600
H 	H 	0.39594 0.15214 0.08967 0.03800
H 	H 	0.28433 0.11102 0.09151 0.04100
H 	H 	0.28233 0.19262 0.93959 0.03500
H 	H 	0.16879 0.14361 0.93947 0.04000
H 	H 	0.18435 0.09125 0.05981 0.04700
