data_crystal

_cell_length_a 26.11770
_cell_length_b 26.27104
_cell_length_c 26.60940
_cell_angle_alpha 95.51163
_cell_angle_beta  95.51157
_cell_angle_gamma 125.78099

_symmetry_space_group_name_	'P 1'
_symmetry_space_group_name_H-M	'P 1'

loop_
_symmetry_equiv_pos_as_xyz
  x,y,z

loop_
_atom_site_label
_atom_site_type_symbol
_atom_site_fract_x
_atom_site_fract_y
_atom_site_fract_z
_atom_site_charge
C 	C 	0.97060 0.03159 0.99761 0.10300
C 	C 	0.06119 0.03247 0.99640 0.10600
N 	N 	0.00493 0.03856 0.44379 -0.13200
C 	C 	0.03676 0.01230 0.44685 0.10700
C 	C 	0.74358 0.05171 0.48342 -0.03400
C 	C 	0.82294 0.03935 0.45696 0.03900
C 	C 	0.90564 0.03016 0.43370 0.01100
H 	H 	0.70282 0.03482 0.50226 0.03500
C 	C 	0.24552 0.05567 0.50736 -0.05000
C 	C 	0.10730 0.05279 0.45176 0.01100
C 	C 	0.14323 0.03679 0.47918 -0.06700
H 	H 	0.33847 0.07671 0.52836 0.04400
C 	C 	0.80118 0.04499 0.04732 -0.05000
C 	C 	0.88794 0.04176 0.02559 -0.06100
H 	H 	0.72520 0.05128 0.06150 0.04100
H 	H 	0.23592 0.02412 0.08225 0.04400
H 	H 	0.13875 0.01598 0.05480 0.05200
C 	C 	0.76964 0.01790 0.48067 -0.05900
C 	C 	0.20971 0.07243 0.48107 0.03800
C 	C 	0.76820 0.07196 0.04505 -0.03800
C 	C 	0.26002 0.05786 0.05705 -0.04800
C 	C 	0.16369 0.05048 0.03025 -0.06400
H 	H 	0.34763 0.06773 0.07628 0.04500
C 	C 	0.85646 0.07044 0.02554 0.03400
N 	N 	0.03503 0.06443 0.99989 -0.13200
C 	C 	0.31158 0.09044 0.50811 -0.03500
C 	C 	0.94187 0.06596 0.00204 0.00300
C 	C 	0.13091 0.06750 0.99978 0.01200
C 	C 	0.93023 0.08366 0.40993 -0.06300
H 	H 	0.22218 0.01546 0.52700 0.04500
H 	H 	0.78324 0.00383 0.06550 0.04200
H 	H 	0.87009 0.00018 0.04328 0.04900
C 	C 	0.84934 0.09448 0.43485 -0.02500
C 	C 	0.32342 0.08252 0.05356 -0.03800
C 	C 	0.22778 0.07640 0.02793 0.03100
C 	C 	0.85115 0.00733 0.45622 -0.07000
C 	C 	0.77062 0.10754 0.46264 0.00800
H 	H 	0.97141 0.10047 0.39157 0.05000
C 	C 	0.13846 0.10590 0.42736 -0.06100
C 	C 	0.90268 0.11623 0.41081 0.03600
C 	C 	0.16328 0.11288 0.96853 -0.06000
H 	H 	0.11075 0.11813 0.40605 0.05300
C 	C 	0.25967 0.12040 0.99532 -0.01700
C 	C 	0.93983 0.00110 0.43809 0.09900
C 	C 	0.96607 0.12089 0.98038 -0.06700
C 	C 	0.24068 0.12501 0.45584 -0.02300
C 	C 	0.87966 0.12438 0.00243 -0.02700
C 	C 	0.79014 0.12481 0.02106 0.01400
H 	H 	0.70617 0.12693 0.48671 0.03900
N 	N 	0.02293 0.96786 0.99051 -0.12900
C 	C 	0.95865 0.93489 0.98783 0.10600
N 	N 	0.93255 0.96681 0.99133 -0.13300
N 	N 	0.00337 0.94839 0.44435 -0.13000
C 	C 	0.93842 0.91066 0.43911 0.10500
N 	N 	0.90653 0.93701 0.43606 -0.13300
Cu	Cu	0.64183 0.24258 0.00358 0.92700
Cu	Cu	0.69039 0.24738 0.89399 0.86800
Cu	Cu	0.66702 0.33901 0.93545 0.89800
Cu	Cu	0.64133 0.35963 0.03909 0.89500
C 	C 	0.66375 0.29124 0.11118 0.28900
O 	O 	0.54845 0.20367 0.00582 -0.36000
C 	C 	0.65315 0.30113 0.82415 0.28200
O 	O 	0.69123 0.34140 0.00655 -0.64300
O 	O 	0.62882 0.24657 0.93002 -0.63900
O 	O 	0.68277 0.19824 0.99894 -0.36500
O 	O 	0.75170 0.26573 0.95112 -0.43600
O 	O 	0.63356 0.31591 0.09849 -0.38000
O 	O 	0.71086 0.43012 0.94343 -0.37700
C 	C 	0.71080 0.46678 0.98110 0.28800
C 	C 	0.52130 0.22946 0.98846 0.27700
O 	O 	0.55747 0.28857 0.98102 -0.39000
O 	O 	0.67582 0.44282 0.01700 -0.39300
O 	O 	0.66770 0.25492 0.07631 -0.35600
C 	C 	0.73637 0.22386 0.98107 0.28000
O 	O 	0.64890 0.33522 0.86116 -0.36900
O 	O 	0.65022 0.25069 0.83172 -0.41200
H 	H 	0.73803 0.37053 0.02037 0.16900
H 	H 	0.58389 0.21755 0.91097 0.17900
Cu	Cu	0.73591 0.33604 0.43610 0.92800
Cu	Cu	0.73048 0.28730 0.54560 0.86800
Cu	Cu	0.63781 0.30953 0.50366 0.89700
Cu	Cu	0.61773 0.33599 0.40017 0.89500
C 	C 	0.68734 0.31458 0.32842 0.28900
O 	O 	0.77490 0.42915 0.43426 -0.35500
C 	C 	0.67566 0.32358 0.61513 0.28200
O 	O 	0.63632 0.28647 0.43257 -0.64000
O 	O 	0.73108 0.34836 0.50955 -0.64000
O 	O 	0.78012 0.29470 0.44072 -0.36700
O 	O 	0.71181 0.22633 0.48842 -0.43700
O 	O 	0.66224 0.34433 0.34104 -0.38000
O 	O 	0.54593 0.26513 0.49510 -0.37700
C 	C 	0.50920 0.26474 0.45699 0.28400
C 	C 	0.74824 0.45565 0.45109 0.27300
O 	O 	0.68880 0.41923 0.45851 -0.39100
O 	O 	0.53380 0.30107 0.42210 -0.39000
O 	O 	0.72413 0.31100 0.36333 -0.35500
C 	C 	0.75400 0.24133 0.45859 0.28000
O 	O 	0.64081 0.32687 0.57790 -0.37000
O 	O 	0.72674 0.32709 0.60770 -0.41300
H 	H 	0.60731 0.24002 0.41846 0.17000
H 	H 	0.75983 0.39298 0.52873 0.17900
C 	C 	0.65145 0.31399 0.77130 -0.06600
C 	C 	0.60010 0.26682 0.73142 0.00200
C 	C 	0.60580 0.27226 0.67966 -0.00400
C 	C 	0.66261 0.32521 0.66794 -0.06600
C 	C 	0.70990 0.37636 0.70783 0.00200
C 	C 	0.70452 0.37061 0.75958 -0.00400
C 	C 	0.54147 0.21300 0.74367 0.08400
C 	C 	0.76378 0.43484 0.69558 0.08400
C 	C 	0.75433 0.42212 0.80069 0.07500
C 	C 	0.55406 0.22265 0.63855 0.07600
N 	N 	0.79407 0.46322 0.83349 -0.12000
N 	N 	0.51277 0.18309 0.60574 -0.12000
N 	N 	0.80676 0.48150 0.68578 -0.11700
N 	N 	0.49468 0.17006 0.75346 -0.11600
C 	C 	0.67713 0.28970 0.16599 -0.06300
C 	C 	0.73391 0.34277 0.19822 -0.00200
C 	C 	0.73976 0.34869 0.25211 0.00400
C 	C 	0.68890 0.30127 0.27362 -0.06300
C 	C 	0.63549 0.24486 0.24138 -0.00200
C 	C 	0.62945 0.23911 0.18749 0.00400
C 	C 	0.78564 0.39179 0.17591 0.07300
C 	C 	0.58622 0.19338 0.26368 0.07300
C 	C 	0.57336 0.18212 0.15419 0.08800
C 	C 	0.79715 0.40439 0.28540 0.08800
N 	N 	0.52861 0.13667 0.12760 -0.11400
N 	N 	0.84292 0.44883 0.31198 -0.11400
N 	N 	0.54692 0.15233 0.28151 -0.12100
N 	N 	0.82691 0.43090 0.15807 -0.12100
C 	C 	0.79299 0.71486 0.50618 -0.04900
C 	C 	0.76963 0.65226 0.51029 -0.03800
C 	C 	0.78739 0.62005 0.48011 0.01500
C 	C 	0.82888 0.65102 0.44550 -0.00300
C 	C 	0.85219 0.71394 0.44122 -0.02000
C 	C 	0.83444 0.74610 0.47187 0.03300
C 	C 	0.89385 0.74492 0.40673 0.03400
C 	C 	0.91142 0.71267 0.37641 -0.04800
C 	C 	0.88820 0.65020 0.38060 -0.03800
C 	C 	0.84701 0.61909 0.41509 0.01600
C 	C 	0.82297 0.55613 0.41892 -0.02800
C 	C 	0.78029 0.52450 0.45244 -0.05800
C 	C 	0.76351 0.55700 0.48362 -0.02800
C 	C 	0.85966 0.80962 0.46872 -0.06000
C 	C 	0.90298 0.84123 0.43568 0.00800
C 	C 	0.91866 0.80826 0.40386 -0.06000
H 	H 	0.77901 0.73908 0.52988 0.04300
H 	H 	0.73770 0.62885 0.53695 0.04100
H 	H 	0.94335 0.73608 0.34975 0.04400
H 	H 	0.90226 0.62601 0.35695 0.04500
H 	H 	0.83581 0.53112 0.39473 0.05700
H 	H 	0.73119 0.53289 0.50992 0.04600
H 	H 	0.84763 0.83516 0.49327 0.05100
H 	H 	0.95156 0.83257 0.37797 0.05200
C 	C 	0.90307 0.20534 0.39214 -0.03600
C 	C 	0.92879 0.17124 0.38901 -0.05100
C 	C 	0.82327 0.12869 0.43785 0.00000
C 	C 	0.85078 0.18479 0.41700 0.01100
C 	C 	0.82664 0.22042 0.42225 -0.02400
C 	C 	0.77539 0.20057 0.44847 -0.06600
C 	C 	0.74651 0.14318 0.46742 -0.02700
H 	H 	0.92427 0.24809 0.37564 0.04100
H 	H 	0.96953 0.18810 0.37013 0.04200
H 	H 	0.74869 0.97537 0.49744 0.04700
H 	H 	0.83204 0.96601 0.47445 0.05600
H 	H 	0.84845 0.26405 0.40690 0.05200
C 	C 	0.30722 0.16013 0.45671 -0.00000
C 	C 	0.34270 0.14252 0.48268 0.01500
C 	C 	0.33814 0.21248 0.43124 0.01300
C 	C 	0.30243 0.22962 0.40536 -0.03600
C 	C 	0.23629 0.19460 0.40434 -0.05000
C 	C 	0.20503 0.14208 0.42928 0.03600
C 	C 	0.40871 0.17686 0.48262 -0.02400
C 	C 	0.43970 0.22903 0.45716 -0.05700
C 	C 	0.40428 0.24687 0.43172 -0.02400
H 	H 	0.32578 0.26989 0.38580 0.03900
H 	H 	0.20936 0.20822 0.38397 0.04300
H 	H 	0.11936 0.99647 0.49872 0.06000
H 	H 	0.43578 0.16267 0.50184 0.05200
H 	H 	0.42817 0.28751 0.41256 0.04600
C 	C 	0.74271 0.67085 0.03098 -0.03700
C 	C 	0.77695 0.73639 0.03138 -0.05000
C 	C 	0.82900 0.76756 0.00563 0.03200
C 	C 	0.84623 0.73237 0.97873 -0.01800
C 	C 	0.81195 0.66646 0.97853 0.00200
C 	C 	0.76019 0.63567 0.00494 0.01000
C 	C 	0.82993 0.63153 0.95241 0.01500
C 	C 	0.88136 0.66249 0.92602 -0.03600
C 	C 	0.91528 0.72791 0.92608 -0.04900
C 	C 	0.89832 0.76324 0.95267 0.03500
C 	C 	0.93349 0.82920 0.95425 -0.06100
C 	C 	0.91766 0.86474 0.98230 0.01300
C 	C 	0.86478 0.83364 0.00726 -0.06500
C 	C 	0.72685 0.57024 0.00531 -0.02800
C 	C 	0.74522 0.53543 0.97987 -0.05400
C 	C 	0.79669 0.56626 0.95339 -0.02400
H 	H 	0.70285 0.64757 0.05123 0.03900
H 	H 	0.76317 0.76295 0.05197 0.04300
H 	H 	0.89531 0.63599 0.90559 0.04400
H 	H 	0.95508 0.75118 0.90576 0.04500
H 	H 	0.97355 0.85303 0.93419 0.05300
H 	H 	0.85259 0.86106 0.02895 0.05200
H 	H 	0.68665 0.54642 0.02521 0.04600
H 	H 	0.81130 0.53967 0.93415 0.05300
C 	C 	0.84656 0.15165 0.00028 -0.00500
C 	C 	0.86907 0.20484 0.97632 0.01400
C 	C 	0.92524 0.23124 0.95564 -0.03500
C 	C 	0.95799 0.20402 0.95761 -0.06100
C 	C 	0.93511 0.15017 0.98041 0.04200
C 	C 	0.75550 0.15010 0.01650 -0.03100
C 	C 	0.77654 0.20172 0.99091 -0.06000
C 	C 	0.83435 0.23003 0.97217 -0.03000
H 	H 	0.94318 0.27241 0.93746 0.03500
H 	H 	0.00081 0.22451 0.94093 0.04900
H 	H 	0.00772 0.13965 0.96230 0.05700
H 	H 	0.71161 0.12879 0.03178 0.05200
H 	H 	0.85155 0.27073 0.95347 0.04000
C 	C 	0.32349 0.14513 0.99173 0.00000
C 	C 	0.35545 0.12610 0.02098 0.01300
C 	C 	0.35537 0.18898 0.95900 0.01500
C 	C 	0.32315 0.20764 0.92999 -0.03700
C 	C 	0.25965 0.18293 0.93345 -0.04900
C 	C 	0.22754 0.13918 0.96592 0.03400
C 	C 	0.41931 0.15162 0.01793 -0.03100
C 	C 	0.45182 0.19660 0.98635 -0.05500
C 	C 	0.41932 0.21427 0.95622 -0.02800
H 	H 	0.34724 0.24136 0.90476 0.04100
H 	H 	0.23544 0.19768 0.91070 0.04400
H 	H 	0.13784 0.12591 0.94501 0.05100
H 	H 	0.44428 0.13798 0.04123 0.05800
H 	H 	0.44407 0.24829 0.93130 0.04600
