data_crystal

_cell_length_a 27.70813
_cell_length_b 28.28015
_cell_length_c 26.51941
_cell_angle_alpha 95.46197
_cell_angle_beta  95.46293
_cell_angle_gamma 125.64509

_symmetry_space_group_name_	'P 1'
_symmetry_space_group_name_H-M	'P 1'

loop_
_symmetry_equiv_pos_as_xyz
  x,y,z

loop_
_atom_site_label
_atom_site_type_symbol
_atom_site_fract_x
_atom_site_fract_y
_atom_site_fract_z
_atom_site_charge
C 	C 	0.07412 0.05190 0.98540 0.05700
C 	C 	0.04751 0.08109 0.99249 -0.09000
H 	H 	0.07412 0.12864 0.99456 0.05500
C 	C 	0.98172 0.01029 0.43659 -0.07000
H 	H 	0.00714 0.05726 0.43584 0.05100
Cu	Cu	0.66517 0.27488 0.00968 0.93000
Cu	Cu	0.71215 0.27149 0.90115 0.87100
Cu	Cu	0.69954 0.36537 0.93896 0.89700
Cu	Cu	0.66612 0.38580 0.03892 0.89600
C 	C 	0.68699 0.32657 0.11567 0.29100
O 	O 	0.57699 0.24050 0.00800 -0.35700
C 	C 	0.67745 0.31863 0.82766 0.29300
O 	O 	0.71405 0.36666 0.01130 -0.63800
O 	O 	0.65743 0.27841 0.93533 -0.64200
O 	O 	0.70227 0.23202 0.00951 -0.37000
O 	O 	0.76877 0.28999 0.96002 -0.44400
O 	O 	0.65792 0.34834 0.10070 -0.38400
O 	O 	0.74477 0.45057 0.94757 -0.38300
C 	C 	0.73971 0.48383 0.98181 0.30300
C 	C 	0.55354 0.26491 0.98734 0.29700
O 	O 	0.58898 0.31937 0.97960 -0.39600
O 	O 	0.69943 0.46075 0.01222 -0.39100
O 	O 	0.68505 0.28668 0.08332 -0.36000
C 	C 	0.75281 0.25325 0.99234 0.29700
O 	O 	0.69915 0.36498 0.86437 -0.38800
O 	O 	0.67414 0.27212 0.83761 -0.42100
H 	H 	0.75727 0.39246 0.02791 0.16300
H 	H 	0.61551 0.25377 0.91558 0.17000
Cu	Cu	0.71489 0.31553 0.43078 0.92600
Cu	Cu	0.72142 0.27591 0.54217 0.87000
Cu	Cu	0.62164 0.28122 0.50071 0.89700
Cu	Cu	0.59605 0.30539 0.39552 0.89500
C 	C 	0.67698 0.31090 0.32526 0.29300
O 	O 	0.74945 0.40145 0.42987 -0.37200
C 	C 	0.67002 0.30873 0.61270 0.29200
O 	O 	0.62089 0.26508 0.42871 -0.63700
O 	O 	0.71084 0.32555 0.50478 -0.64100
O 	O 	0.75886 0.27915 0.43259 -0.37300
O 	O 	0.70199 0.21768 0.48556 -0.44300
O 	O 	0.62397 0.29899 0.33007 -0.38200
O 	O 	0.53445 0.23339 0.49177 -0.38200
C 	C 	0.49969 0.23572 0.45607 0.30800
C 	C 	0.71970 0.42271 0.44130 0.30100
O 	O 	0.66424 0.38743 0.44906 -0.39300
O 	O 	0.52285 0.27645 0.42686 -0.39400
O 	O 	0.70364 0.29629 0.35743 -0.36400
C 	C 	0.73818 0.23117 0.45228 0.30700
O 	O 	0.62227 0.28425 0.57555 -0.38700
O 	O 	0.71919 0.31479 0.60377 -0.42000
H 	H 	0.59706 0.22234 0.41398 0.16600
H 	H 	0.73419 0.36719 0.52286 0.17100
C 	C 	0.61471 0.27337 0.68497 -0.04600
C 	C 	0.66416 0.31915 0.66663 -0.09600
C 	C 	0.71162 0.37092 0.70172 0.10500
C 	C 	0.71324 0.37207 0.75495 -0.04600
C 	C 	0.66701 0.32332 0.77336 -0.09600
C 	C 	0.61518 0.27559 0.73816 0.10500
N 	N 	0.56569 0.23226 0.75516 -0.19900
H 	H 	0.57684 0.23489 0.65796 0.04900
H 	H 	0.75166 0.41004 0.78199 0.04900
N 	N 	0.75514 0.41970 0.68456 -0.19900
H 	H 	0.52850 0.19588 0.72905 0.08200
H 	H 	0.56254 0.23568 0.79409 0.08600
H 	H 	0.75180 0.42220 0.64548 0.08600
H 	H 	0.79142 0.45692 0.71064 0.08200
C 	C 	0.70268 0.28616 0.24433 -0.04400
C 	C 	0.69743 0.32513 0.27588 -0.08700
C 	C 	0.70571 0.37429 0.25749 0.10300
C 	C 	0.70993 0.37846 0.20557 -0.04200
C 	C 	0.70682 0.33478 0.17211 -0.09500
C 	C 	0.71171 0.29333 0.19352 0.11300
N 	N 	0.73085 0.26508 0.16777 -0.19700
H 	H 	0.70064 0.25086 0.25947 0.05600
H 	H 	0.71286 0.41430 0.19069 0.04100
N 	N 	0.70974 0.41753 0.28941 -0.20000
H 	H 	0.72835 0.23032 0.18131 0.09000
H 	H 	0.75533 0.28219 0.13842 0.10400
H 	H 	0.71132 0.41798 0.32893 0.08700
H 	H 	0.71374 0.45263 0.27513 0.08300
C 	C 	0.85190 0.64235 0.46474 -0.02800
C 	C 	0.79073 0.59671 0.44522 -0.01200
C 	C 	0.75208 0.61032 0.42598 -0.02800
C 	C 	0.77471 0.66931 0.42571 -0.04800
C 	C 	0.76760 0.53585 0.44453 0.04500
C 	C 	0.74694 0.48452 0.44344 -0.11700
H 	H 	0.70468 0.57525 0.41095 0.03600
H 	H 	0.74472 0.67943 0.41029 0.04200
C 	C 	0.79708 0.12948 0.42700 -0.01300
C 	C 	0.78271 0.03709 0.43353 -0.04600
C 	C 	0.76077 0.07090 0.43510 -0.02900
C 	C 	0.77737 0.16648 0.43482 0.04600
C 	C 	0.75982 0.19649 0.44160 -0.12000
H 	H 	0.71619 0.05206 0.44384 0.03600
C 	C 	0.19453 0.08054 0.45183 0.02300
C 	C 	0.22125 0.05114 0.45479 -0.04800
C 	C 	0.28353 0.08244 0.45709 -0.02800
C 	C 	0.31929 0.14326 0.45644 -0.01100
C 	C 	0.29267 0.17280 0.45405 -0.02700
C 	C 	0.23039 0.14148 0.45175 -0.04800
C 	C 	0.38294 0.17502 0.45659 0.04700
C 	C 	0.43630 0.20230 0.45670 -0.10900
C 	C 	0.13023 0.04791 0.44806 -0.01600
C 	C 	0.07629 0.01961 0.44494 -0.02200
H 	H 	0.19377 0.00402 0.45497 0.04200
H 	H 	0.30382 0.05934 0.45894 0.03700
H 	H 	0.32010 0.21984 0.45355 0.03900
H 	H 	0.21002 0.16450 0.44956 0.04300
C 	C 	0.79485 0.67984 0.96088 -0.02900
C 	C 	0.82760 0.65919 0.97825 -0.00900
C 	C 	0.79688 0.59726 0.97912 0.04400
C 	C 	0.77118 0.54540 0.97986 -0.10800
H 	H 	0.74658 0.64906 0.94654 0.03800
C 	C 	0.84537 0.18341 0.01364 -0.01400
C 	C 	0.84620 0.09924 0.02225 -0.04700
C 	C 	0.81619 0.12542 0.02257 -0.02800
C 	C 	0.81209 0.20756 0.00707 0.04500
C 	C 	0.78490 0.22846 0.00144 -0.11600
H 	H 	0.82289 0.05391 0.02800 0.04400
H 	H 	0.76980 0.10009 0.02839 0.03800
C 	C 	0.37353 0.18781 0.97432 -0.01000
C 	C 	0.32992 0.12669 0.95763 -0.02900
C 	C 	0.26894 0.10111 0.95768 -0.04800
C 	C 	0.25134 0.13654 0.97446 0.02100
C 	C 	0.29476 0.19787 0.98989 -0.05200
C 	C 	0.35577 0.22348 0.98980 -0.03300
C 	C 	0.18936 0.10934 0.97877 -0.01300
C 	C 	0.13697 0.08458 0.98174 -0.03200
C 	C 	0.43668 0.21354 0.97813 0.04400
C 	C 	0.48983 0.23617 0.98168 -0.11200
H 	H 	0.34331 0.09888 0.94548 0.03700
H 	H 	0.23556 0.05364 0.94562 0.04200
H 	H 	0.28147 0.22554 0.00281 0.04700
H 	H 	0.38927 0.27082 0.00261 0.04200
C 	C 	0.98637 0.04867 0.99683 0.05100
H 	H 	0.88201 0.63222 0.47978 0.03700
C 	C 	0.85463 0.15339 0.41564 -0.02800
C 	C 	0.87655 0.11957 0.41405 -0.04800
C 	C 	0.84103 0.06168 0.42384 0.02100
C 	C 	0.86605 0.02915 0.42718 -0.01500
C 	C 	0.88867 0.00344 0.42965 -0.02300
H 	H 	0.88296 0.19857 0.40928 0.03800
H 	H 	0.92162 0.13884 0.40635 0.04300
C 	C 	0.88995 0.69929 0.99685 -0.03300
H 	H 	0.91549 0.68361 0.01045 0.04200
C 	C 	0.90543 0.21586 0.00628 -0.02400
C 	C 	0.93542 0.18969 0.00595 -0.04300
C 	C 	0.90551 0.13098 0.01299 0.02000
C 	C 	0.93427 0.10220 0.00753 -0.01200
C 	C 	0.95839 0.07814 0.00296 -0.02300
H 	H 	0.92833 0.26076 0.99944 0.03100
H 	H 	0.98137 0.21459 0.99902 0.03700
C 	C 	0.87450 0.70129 0.46448 -0.04800
C 	C 	0.83605 0.71490 0.44470 0.02100
C 	C 	0.82435 0.74047 0.96247 -0.04800
H 	H 	0.92201 0.73630 0.47914 0.04200
C 	C 	0.91942 0.75985 0.99844 -0.05200
H 	H 	0.79880 0.75620 0.94910 0.04200
H 	H 	0.75489 0.99233 0.44096 0.04000
C 	C 	0.01179 0.98433 0.44120 0.03600
C 	C 	0.91885 0.97578 0.43320 0.04100
C 	C 	0.03973 0.99059 0.98264 -0.09400
H 	H 	0.06043 0.96808 0.97728 0.05600
C 	C 	0.97915 0.92386 0.44229 -0.07500
H 	H 	0.00260 0.90385 0.44586 0.05000
C 	C 	0.95209 0.98723 0.99416 -0.09000
C 	C 	0.97886 0.95826 0.98706 0.05700
H 	H 	0.90482 0.96211 0.99750 0.05500
C 	C 	0.88601 0.91497 0.43434 -0.08100
C 	C 	0.91639 0.88907 0.43888 0.04500
H 	H 	0.83741 0.88816 0.43186 0.05300
C 	C 	0.86049 0.77541 0.44169 -0.01400
C 	C 	0.88383 0.82687 0.44024 -0.02700
C 	C 	0.88665 0.78057 0.98144 0.02100
C 	C 	0.91723 0.84291 0.98300 -0.01300
C 	C 	0.94430 0.89540 0.98484 -0.03200
H 	H 	0.96765 0.79063 0.01298 0.04700
