data_crystal

_cell_length_a 25.95132
_cell_length_b 26.51611
_cell_length_c 33.98368
_cell_angle_alpha 95.51061
_cell_angle_beta  95.50746
_cell_angle_gamma 125.81037

_symmetry_space_group_name_	'P 1'
_symmetry_space_group_name_H-M	'P 1'

loop_
_symmetry_equiv_pos_as_xyz
  x,y,z

loop_
_atom_site_label
_atom_site_type_symbol
_atom_site_fract_x
_atom_site_fract_y
_atom_site_fract_z
_atom_site_charge
C 	C 	0.91185 0.96799 0.97339 0.14000
N 	N 	0.87287 0.90806 0.98023 -0.13200
C 	C 	0.89567 0.87362 0.98336 0.13600
N 	N 	0.95782 0.89936 0.98017 -0.13200
C 	C 	0.99677 0.95900 0.97268 0.12800
N 	N 	0.97353 0.99320 0.96894 -0.13000
C 	C 	0.99328 0.05652 0.48116 0.12600
N 	N 	0.96616 0.99593 0.48588 -0.12700
C 	C 	0.99971 0.97162 0.48204 0.13700
N 	N 	0.06049 0.00833 0.47410 -0.13200
C 	C 	0.08806 0.06923 0.47048 0.13700
N 	N 	0.05434 0.09315 0.47379 -0.12700
Cu	Cu	0.59957 0.20156 0.99410 0.92700
Cu	Cu	0.63280 0.19597 0.90423 0.88500
Cu	Cu	0.60432 0.29372 0.94418 0.91400
Cu	Cu	0.57102 0.29805 0.02625 0.90000
C 	C 	0.62237 0.24889 0.07846 0.29300
O 	O 	0.50336 0.14556 0.99553 -0.34600
C 	C 	0.62333 0.28096 0.86474 0.29600
O 	O 	0.63010 0.29559 0.99942 -0.63400
O 	O 	0.58048 0.20606 0.93703 -0.62900
O 	O 	0.66259 0.18129 0.99039 -0.36200
O 	O 	0.62287 0.12833 0.92550 -0.40900
O 	O 	0.57822 0.25845 0.07113 -0.37200
O 	O 	0.63360 0.38035 0.95288 -0.36400
C 	C 	0.63196 0.40923 0.98608 0.29400
C 	C 	0.46611 0.16211 0.98387 0.28200
O 	O 	0.49203 0.22101 0.98043 -0.37900
O 	O 	0.59089 0.37699 0.00977 -0.37800
O 	O 	0.62685 0.21344 0.05107 -0.35000
C 	C 	0.65503 0.13961 0.96137 0.29600
O 	O 	0.59062 0.29135 0.88688 -0.36400
O 	O 	0.66355 0.27095 0.88161 -0.41300
H 	H 	0.67627 0.32992 0.01079 0.16900
H 	H 	0.53427 0.17411 0.92466 0.16900
Cu	Cu	0.78509 0.38897 0.45880 0.92600
Cu	Cu	0.79041 0.35379 0.54851 0.88300
Cu	Cu	0.68482 0.37339 0.50717 0.91500
Cu	Cu	0.67800 0.40620 0.42569 0.90100
C 	C 	0.73831 0.36743 0.37421 0.29300
O 	O 	0.83594 0.48373 0.45908 -0.34600
C 	C 	0.69485 0.35112 0.58563 0.29300
O 	O 	0.68633 0.35127 0.45211 -0.63700
O 	O 	0.77655 0.40287 0.51562 -0.62800
O 	O 	0.81177 0.33142 0.46140 -0.35800
O 	O 	0.86132 0.36818 0.52724 -0.41100
O 	O 	0.72315 0.40646 0.38164 -0.37100
O 	O 	0.59442 0.33853 0.49780 -0.36600
C 	C 	0.56288 0.33757 0.46453 0.29200
C 	C 	0.81329 0.51527 0.47021 0.28200
O 	O 	0.75199 0.48460 0.47283 -0.38100
O 	O 	0.59347 0.37797 0.44042 -0.37600
O 	O 	0.77683 0.36620 0.40179 -0.34800
C 	C 	0.85080 0.33617 0.49183 0.29600
O 	O 	0.68518 0.38433 0.56417 -0.36500
O 	O 	0.71083 0.31640 0.56912 -0.41500
H 	H 	0.65391 0.30569 0.44037 0.17100
H 	H 	0.80642 0.44809 0.52863 0.16800
C 	C 	0.61673 0.25590 0.75247 -0.07300
C 	C 	0.63838 0.31560 0.74455 0.01900
C 	C 	0.64886 0.36186 0.77544 -0.00700
C 	C 	0.64126 0.34918 0.81440 0.00800
C 	C 	0.62310 0.29063 0.82280 -0.09400
C 	C 	0.60887 0.24310 0.79133 0.06500
C 	C 	0.65449 0.33062 0.70468 0.01600
S 	S 	0.67285 0.43614 0.76590 -0.00600
H 	H 	0.65124 0.38548 0.83840 0.05300
S 	S 	0.57967 0.16697 0.79997 -0.09000
H 	H 	0.60736 0.21984 0.72853 0.06000
C 	C 	0.71737 0.35679 0.69753 -0.00600
C 	C 	0.73026 0.36488 0.65867 0.00000
C 	C 	0.68105 0.34713 0.62670 -0.09100
C 	C 	0.61833 0.32206 0.63397 0.05900
C 	C 	0.60554 0.31418 0.67293 -0.06800
S 	S 	0.78003 0.37846 0.73684 -0.02500
H 	H 	0.77849 0.38427 0.65318 0.02400
S 	S 	0.55479 0.29765 0.59439 -0.00500
H 	H 	0.55713 0.29394 0.67839 0.06300
H 	H 	0.51356 0.13002 0.79500 0.04800
H 	H 	0.77906 0.32688 0.74036 0.04200
H 	H 	0.52573 0.23610 0.57672 0.04700
H 	H 	0.73898 0.47661 0.77123 0.04600
C 	C 	0.65311 0.28061 0.26753 -0.06900
C 	C 	0.70580 0.29921 0.24862 0.01700
C 	C 	0.76849 0.33366 0.27206 -0.00500
C 	C 	0.77838 0.35301 0.31365 0.00600
C 	C 	0.72611 0.33786 0.33212 -0.08500
C 	C 	0.66284 0.29919 0.30911 0.05900
C 	C 	0.69558 0.28813 0.20412 0.01700
S 	S 	0.83474 0.35264 0.24970 -0.01200
H 	H 	0.82697 0.38157 0.33138 0.05600
S 	S 	0.59539 0.27302 0.33215 -0.06100
H 	H 	0.60465 0.25286 0.24968 0.06100
C 	C 	0.66441 0.22686 0.18148 -0.00600
C 	C 	0.64386 0.21501 0.13979 0.00600
C 	C 	0.65474 0.26399 0.12043 -0.08500
C 	C 	0.69084 0.32626 0.14262 0.05900
C 	C 	0.71054 0.33789 0.18431 -0.06800
S 	S 	0.65048 0.16471 0.20502 -0.01300
H 	H 	0.61738 0.16730 0.12269 0.05500
S 	S 	0.71204 0.39008 0.11846 -0.06000
H 	H 	0.73593 0.38537 0.20155 0.06300
H 	H 	0.57544 0.21782 0.34493 0.04600
H 	H 	0.59238 0.13568 0.21761 0.04400
H 	H 	0.76923 0.41321 0.10567 0.04800
H 	H 	0.83995 0.30402 0.24853 0.04700
C 	C 	0.87851 0.68118 0.51768 -0.03700
C 	C 	0.90874 0.71477 0.48729 0.02200
C 	C 	0.91804 0.68523 0.45486 -0.03700
C 	C 	0.89037 0.62018 0.45030 0.02000
C 	C 	0.85638 0.58549 0.47945 -0.07600
C 	C 	0.85509 0.61746 0.51462 0.02200
C 	C 	0.92895 0.78070 0.48869 0.02000
C 	C 	0.95518 0.72159 0.42592 0.10300
C 	C 	0.82991 0.58477 0.54765 0.07900
C 	C 	0.98665 0.83217 0.51421 -0.04000
C 	C 	0.00596 0.89430 0.51509 0.01500
C 	C 	0.97114 0.90584 0.48763 -0.02400
C 	C 	0.91259 0.85418 0.46267 0.00200
C 	C 	0.89060 0.79163 0.46416 -0.02800
C 	C 	0.02664 0.82126 0.53904 0.11300
C 	C 	0.87606 0.86533 0.43462 0.10100
C 	C 	0.06077 0.94616 0.54482 0.09900
C 	C 	0.82881 0.73848 0.44025 0.10200
C 	C 	0.87010 0.71172 0.55154 0.10400
C 	C 	0.89459 0.58852 0.41489 0.09200
N 	N 	0.10450 0.98746 0.56858 -0.09300
N 	N 	0.05850 0.81248 0.55885 -0.10300
N 	N 	0.84689 0.87421 0.41224 -0.09500
N 	N 	0.77952 0.69601 0.42119 -0.10400
N 	N 	0.98483 0.75067 0.40284 -0.10300
N 	N 	0.89791 0.56325 0.38662 -0.09800
N 	N 	0.80980 0.55866 0.57400 -0.11100
N 	N 	0.86343 0.73614 0.57855 -0.10300
C 	C 	0.83494 0.18453 0.49227 -0.04100
C 	C 	0.89700 0.20435 0.48689 0.03000
C 	C 	0.94360 0.26724 0.48227 -0.04900
C 	C 	0.92830 0.31036 0.48341 0.03300
C 	C 	0.86641 0.29065 0.48916 -0.08700
C 	C 	0.81966 0.22762 0.49346 0.02600
C 	C 	0.91351 0.15893 0.48624 0.01200
C 	C 	0.00725 0.28745 0.47641 0.11500
C 	C 	0.75605 0.20735 0.49955 0.05600
C 	C 	0.90275 0.12155 0.44950 -0.02300
C 	C 	0.92412 0.08333 0.44835 -0.00400
C 	C 	0.95667 0.08286 0.48386 -0.01400
C 	C 	0.96276 0.11626 0.52104 -0.00200
C 	C 	0.94131 0.15440 0.52224 -0.02500
C 	C 	0.87065 0.12326 0.41286 0.10000
C 	C 	0.99255 0.11252 0.55790 0.09100
C 	C 	0.91405 0.04564 0.41052 0.10000
C 	C 	0.94868 0.18977 0.56035 0.09800
C 	C 	0.78692 0.11982 0.49671 0.10300
C 	C 	0.97610 0.37490 0.47859 0.07700
N 	N 	0.90609 0.01558 0.38034 -0.09600
N 	N 	0.84503 0.12469 0.38365 -0.10300
N 	N 	0.01635 0.10950 0.58727 -0.09000
N 	N 	0.95454 0.21803 0.59074 -0.10700
N 	N 	0.05802 0.30349 0.47175 -0.10300
N 	N 	0.01425 0.42641 0.47475 -0.09100
N 	N 	0.70533 0.19124 0.50441 -0.11900
N 	N 	0.74867 0.06817 0.50024 -0.10500
C 	C 	0.23867 0.15647 0.42448 -0.02400
C 	C 	0.28762 0.18683 0.45925 0.01400
C 	C 	0.27091 0.18037 0.49771 -0.02400
C 	C 	0.20538 0.14354 0.50138 -0.00200
C 	C 	0.15648 0.11095 0.46658 -0.01600
C 	C 	0.17308 0.11800 0.42814 -0.00200
C 	C 	0.35702 0.22511 0.45545 0.02600
C 	C 	0.32129 0.21129 0.53343 0.10000
C 	C 	0.12262 0.08577 0.39242 0.10000
C 	C 	0.39340 0.29144 0.45953 -0.03800
C 	C 	0.46091 0.32856 0.46180 0.02600
C 	C 	0.49168 0.29905 0.45842 -0.07600
C 	C 	0.45449 0.23241 0.45138 0.02100
C 	C 	0.38734 0.19549 0.45042 -0.03800
C 	C 	0.36135 0.32140 0.46193 0.10600
C 	C 	0.48542 0.20191 0.44493 0.07300
C 	C 	0.49891 0.39707 0.46892 0.09300
C 	C 	0.34946 0.12710 0.44484 0.10200
C 	C 	0.25594 0.16479 0.38504 0.10100
C 	C 	0.18815 0.14021 0.54091 0.10100
N 	N 	0.52922 0.45172 0.47461 -0.09800
N 	N 	0.33570 0.34523 0.46384 -0.10100
N 	N 	0.51014 0.17764 0.43978 -0.11300
N 	N 	0.31917 0.07251 0.44040 -0.10400
N 	N 	0.36156 0.23599 0.56187 -0.10500
N 	N 	0.17438 0.13765 0.57244 -0.09400
N 	N 	0.08231 0.06004 0.36396 -0.09500
N 	N 	0.26980 0.17148 0.35358 -0.10200
C 	C 	0.66938 0.57116 0.99041 -0.03800
C 	C 	0.73754 0.61008 0.99672 0.02800
C 	C 	0.77087 0.58378 0.00365 -0.04000
C 	C 	0.73599 0.51816 0.00225 0.02000
C 	C 	0.66782 0.47853 0.99263 -0.07400
C 	C 	0.63442 0.50520 0.98757 0.02600
C 	C 	0.77411 0.67794 0.99316 0.01600
C 	C 	0.84104 0.62422 0.01159 0.10300
C 	C 	0.56426 0.46467 0.97831 0.09400
C 	C 	0.80224 0.72532 0.02803 -0.02600
C 	C 	0.84160 0.78970 0.02483 -0.00400
C 	C 	0.85150 0.80658 0.98668 -0.01400
C 	C 	0.81990 0.75921 0.95166 -0.00200
C 	C 	0.78237 0.69493 0.95493 -0.02400
C 	C 	0.79091 0.70770 0.06712 0.10100
C 	C 	0.82501 0.77673 0.91229 0.10100
C 	C 	0.87200 0.83860 0.06070 0.10000
C 	C 	0.75279 0.64615 0.91905 0.10100
C 	C 	0.63537 0.59903 0.98632 0.10600
C 	C 	0.77012 0.49135 0.01101 0.07200
N 	N 	0.89628 0.87767 0.08928 -0.09500
N 	N 	0.78183 0.69356 0.09829 -0.10200
N 	N 	0.82898 0.79074 0.88090 -0.09500
N 	N 	0.72915 0.60718 0.89046 -0.10400
N 	N 	0.89703 0.65655 0.01792 -0.10500
N 	N 	0.79731 0.46994 0.01801 -0.11500
N 	N 	0.50828 0.43233 0.97092 -0.09700
N 	N 	0.60832 0.62134 0.98306 -0.10100
C 	C 	0.85231 0.06239 0.00701 -0.02600
C 	C 	0.81858 0.05774 0.97008 0.01400
C 	C 	0.82294 0.03104 0.93376 -0.02300
C 	C 	0.85740 0.00517 0.93461 -0.00900
C 	C 	0.88741 0.00599 0.97176 -0.01800
C 	C 	0.88689 0.03668 0.00782 -0.00400
C 	C 	0.77700 0.07953 0.96951 0.02900
C 	C 	0.79122 0.02946 0.89563 0.09700
C 	C 	0.92099 0.04068 0.04580 0.09900
C 	C 	0.80337 0.14255 0.96614 -0.04100
C 	C 	0.76360 0.16255 0.96422 0.02600
C 	C 	0.69738 0.11959 0.96589 -0.08400
C 	C 	0.67129 0.05692 0.97009 0.03200
C 	C 	0.71107 0.03687 0.97189 -0.04700
C 	C 	0.87138 0.18663 0.96442 0.10400
C 	C 	0.60360 0.01320 0.97269 0.07800
C 	C 	0.79046 0.22701 0.95979 0.06600
C 	C 	0.68428 0.97235 0.97603 0.11500
C 	C 	0.85059 0.09283 0.04413 0.10000
C 	C 	0.86084 0.97647 0.89738 0.10700
N 	N 	0.81185 0.27841 0.95624 -0.11500
N 	N 	0.92566 0.22173 0.96304 -0.10500
N 	N 	0.54959 0.97833 0.97476 -0.09200
N 	N 	0.66299 0.92088 0.97932 -0.10200
N 	N 	0.76587 0.02823 0.86523 -0.10600
N 	N 	0.86361 0.95353 0.86771 -0.09700
N 	N 	0.94817 0.04380 0.07608 -0.09600
N 	N 	0.84917 0.11715 0.07373 -0.10300
C 	C 	0.18069 0.06726 0.99105 -0.01700
C 	C 	0.19279 0.03064 0.96644 0.00600
C 	C 	0.14069 0.97288 0.94182 -0.01300
C 	C 	0.07674 0.95233 0.94132 -0.01000
C 	C 	0.06426 0.98630 0.96833 0.00000
C 	C 	0.11654 0.04409 0.99313 -0.01100
C 	C 	0.26069 0.05296 0.96671 0.02500
C 	C 	0.15290 0.93429 0.91739 0.10200
C 	C 	0.10441 0.07857 0.02174 0.10200
C 	C 	0.29411 0.04732 0.99916 -0.03000
C 	C 	0.36155 0.07962 0.00373 0.01400
C 	C 	0.39485 0.11463 0.97451 -0.07200
C 	C 	0.35942 0.11170 0.93900 0.02100
C 	C 	0.29294 0.08332 0.93586 -0.03700
C 	C 	0.25923 0.00940 0.02822 0.09300
C 	C 	0.39145 0.13772 0.90573 0.07800
C 	C 	0.39691 0.07914 0.03925 0.09300
C 	C 	0.25815 0.08691 0.90157 0.10400
C 	C 	0.23436 0.12864 0.01435 0.09600
C 	C 	0.02401 0.89728 0.91228 0.11200
N 	N 	0.42513 0.07879 0.06762 -0.10000
N 	N 	0.23133 0.97913 0.05139 -0.09600
N 	N 	0.41701 0.15849 0.87919 -0.11200
N 	N 	0.23032 0.08973 0.87421 -0.10300
N 	N 	0.16271 0.90355 0.89791 -0.10000
N 	N 	0.98204 0.85335 0.88907 -0.10300
N 	N 	0.09476 0.10608 0.04457 -0.09600
N 	N 	0.27725 0.17760 0.03292 -0.10400
