data_crystal

_cell_length_a 17.84262
_cell_length_b 17.05678
_cell_length_c 46.61448
_cell_angle_alpha 89.64110
_cell_angle_beta  89.64702
_cell_angle_gamma 119.38563

_symmetry_space_group_name_	'P 1'
_symmetry_space_group_name_H-M	'P 1'

loop_
_symmetry_equiv_pos_as_xyz
  x,y,z

loop_
_atom_site_label
_atom_site_type_symbol
_atom_site_fract_x
_atom_site_fract_y
_atom_site_fract_z
_atom_site_charge
C 	C 	0.04286 0.92450 0.78066 0.25300
O 	O 	0.03148 0.01801 0.72751 -0.73400
C 	C 	0.08863 0.08277 0.17920 0.29800
C 	C 	0.11685 0.09331 0.14849 -0.06100
C 	C 	0.20140 0.11291 0.14076 0.01900
C 	C 	0.22739 0.19465 0.03539 0.10000
N 	N 	0.07534 0.17734 0.32353 -0.09900
C 	C 	0.92682 0.76078 0.29573 -0.10400
C 	C 	0.99496 0.54677 0.35989 0.05600
C 	C 	0.03274 0.47085 0.39801 0.10000
C 	C 	0.02846 0.65983 0.44674 -0.09200
N 	N 	0.00557 0.42479 0.65308 -0.12900
C 	C 	0.11650 0.52391 0.96840 0.12700
C 	C 	0.07219 0.59314 0.92042 0.12300
N 	N 	0.05756 0.61821 0.89427 -0.20000
C 	C 	0.06673 0.06488 0.81988 0.08700
N 	N 	0.07950 0.13378 0.81090 -0.10900
H 	H 	0.04012 0.04481 0.74669 0.15500
C 	C 	0.11853 0.85238 0.91342 0.12300
Ni	Ni	0.02544 0.11024 0.70672 1.11700
O 	O 	0.07502 0.86809 0.72064 -0.35600
Ni	Ni	0.04445 0.94769 0.22518 1.11300
O 	O 	0.98433 0.83524 0.25051 -0.35800
O 	O 	0.12958 0.15419 0.24364 -0.35800
C 	C 	0.23666 0.15539 0.11411 -0.03300
C 	C 	0.06335 0.09698 0.12690 -0.00900
C 	C 	0.32268 0.17600 0.10560 0.10000
N 	N 	0.39137 0.19237 0.09877 -0.10900
C 	C 	0.91958 0.65866 0.12694 0.00900
C 	C 	0.03477 0.83021 0.10001 0.10300
C 	C 	0.28173 0.30507 0.25572 0.10000
C 	C 	0.97018 0.64782 0.32665 0.12700
C 	C 	0.01712 0.59926 0.33460 -0.08100
C 	C 	0.05614 0.52871 0.37286 -0.04100
C 	C 	0.04118 0.62310 0.49609 0.07500
H 	H 	0.05808 0.69103 0.42639 0.06500
H 	H 	0.06061 0.60439 0.53926 0.09000
C 	C 	0.06037 0.69528 0.64753 -0.07500
C 	C 	0.07324 0.75930 0.66877 0.04200
N 	N 	0.13264 0.49209 0.99303 -0.20200
H 	H 	0.10050 0.68126 0.88552 0.10000
N 	N 	0.07401 0.72535 0.98037 -0.09700
O 	O 	0.11851 0.98137 0.76882 -0.34500
O 	O 	0.12055 0.05045 0.19822 -0.37100
C 	C 	0.18980 0.18298 0.09654 0.01800
C 	C 	0.10040 0.14378 0.10103 -0.02500
C 	C 	0.97076 0.04976 0.13082 0.13900
N 	N 	0.29302 0.36540 0.98058 -0.09900
N 	N 	0.89678 0.01199 0.13385 -0.10400
C 	C 	0.97247 0.66421 0.10134 0.05500
C 	C 	0.92670 0.68676 0.17822 0.01200
N 	N 	0.84026 0.42815 0.10262 -0.09700
C 	C 	0.00268 0.73797 0.33519 -0.14000
C 	C 	0.98004 0.79438 0.31978 0.11800
C 	C 	0.07998 0.65764 0.46908 -0.05600
N 	N 	0.08967 0.63570 0.51980 -0.19300
C 	C 	0.01873 0.96018 0.62394 0.07100
C 	C 	0.04812 0.15730 0.08007 0.09200
C 	C 	0.05022 0.97840 0.83114 0.00200
C 	C 	0.15278 0.64445 0.93343 -0.03800
Ni	Ni	0.13123 0.00708 0.72477 1.11400
O 	O 	0.11373 0.20103 0.73386 -0.36100
C 	C 	0.15447 0.10816 0.26066 0.28800
O 	O 	0.12682 0.02102 0.25657 -0.37200
C 	C 	0.23632 0.27134 0.08117 0.02300
C 	C 	0.24747 0.27558 0.05109 -0.04200
C 	C 	0.28626 0.36241 0.00533 0.08900
N 	N 	0.00644 0.16820 0.06330 -0.11400
C 	C 	0.03504 0.74937 0.09068 -0.06900
C 	C 	0.97103 0.58600 0.09093 -0.01400
C 	C 	0.89834 0.49824 0.09744 0.10700
C 	C 	0.94745 0.65038 0.15445 0.00600
C 	C 	0.95283 0.67652 0.20669 0.10200
C 	C 	0.09186 0.61628 0.31913 0.00300
C 	C 	0.13882 0.56378 0.36025 -0.04200
C 	C 	0.01143 0.88661 0.32850 0.03100
N 	N 	0.00321 0.95989 0.54690 -0.10100
C 	C 	0.13127 0.70710 0.62924 0.10800
C 	C 	0.17462 0.61134 0.95781 -0.08800
H 	H 	0.17789 0.53547 0.00751 0.11800
N 	N 	0.08095 0.32511 0.77209 -0.10300
N 	N 	0.18962 0.87498 0.90789 -0.11900
H 	H 	0.09393 0.42483 0.99923 0.10000
C 	C 	0.00902 0.82255 0.70388 0.28700
C 	C 	0.03696 0.90861 0.81212 -0.04000
C 	C 	0.13597 0.08165 0.66590 0.30600
O 	O 	0.14040 0.01750 0.68018 -0.36300
O 	O 	0.12615 0.14288 0.67966 -0.37100
C 	C 	0.16100 0.65900 0.46139 0.28500
O 	O 	0.15407 0.58870 0.44700 -0.37200
C 	C 	0.27783 0.35867 0.03633 0.02100
C 	C 	0.04159 0.59367 0.07483 -0.00300
C 	C 	0.10901 0.67957 0.06694 -0.07600
C 	C 	0.10074 0.75618 0.07228 0.03400
C 	C 	0.15919 0.84164 0.05869 0.08200
N 	N 	0.97400 0.66756 0.22931 -0.08900
C 	C 	0.26690 0.25409 0.28216 0.02100
C 	C 	0.22525 0.15900 0.28173 -0.06200
N 	N 	0.34781 0.46945 0.31227 -0.09900
C 	C 	0.06387 0.77389 0.35837 0.12400
C 	C 	0.15109 0.59474 0.33159 -0.00200
C 	C 	0.11028 0.66111 0.29139 0.08700
N 	N 	0.03639 0.96019 0.33550 -0.09300
H 	H 	0.15537 0.68165 0.51972 0.11500
C 	C 	0.09902 0.03677 0.61454 0.02500
C 	C 	0.05460 0.00088 0.56383 0.09600
N 	N 	0.17490 0.30016 0.54456 -0.11300
C 	C 	0.15733 0.83793 0.67187 0.08800
H 	H 	0.19931 0.70858 0.92405 0.06500
N 	N 	0.20537 0.91002 0.04784 -0.10100
N 	N 	0.29370 0.34585 0.23463 -0.09400
C 	C 	0.00366 0.74690 0.68663 -0.10300
C 	C 	0.26044 0.66480 0.97071 0.31000
C 	C 	0.00218 0.61031 0.15791 0.06300
N 	N 	0.12527 0.69714 0.26928 -0.09900
C 	C 	0.11924 0.05219 0.58496 -0.03600
C 	C 	0.15824 0.09466 0.63495 -0.07600
N 	N 	0.18779 0.71650 0.61461 -0.10900
C 	C 	0.14427 0.32310 0.77512 0.10200
N 	N 	0.07984 0.09316 0.89660 -0.10100
C 	C 	0.32759 0.39406 0.31028 0.10500
C 	C 	0.18668 0.20231 0.74090 0.28600
C 	C 	0.21480 0.58868 0.37848 0.27700
O 	O 	0.29108 0.75099 0.97556 -0.37700
O 	O 	0.21060 0.70613 0.02908 -0.38200
C 	C 	0.04603 0.51383 0.06710 0.08200
N 	N 	0.11293 0.80269 0.37681 -0.12200
O 	O 	0.20947 0.14676 0.72857 -0.35400
C 	C 	0.06225 0.03474 0.88080 0.08300
O 	O 	0.21262 0.53013 0.39794 -0.35800
O 	O 	0.23369 0.71749 0.47443 -0.36900
C 	C 	0.19164 0.69058 0.05642 0.31000
C 	C 	0.26340 0.35105 0.09675 -0.04100
N 	N 	0.04964 0.45011 0.06097 -0.11000
C 	C 	0.30240 0.29961 0.30786 -0.03300
C 	C 	0.20714 0.25832 0.53794 0.09800
N 	N 	0.22468 0.90046 0.67428 -0.09800
C 	C 	0.29803 0.43754 0.05181 -0.08500
C 	C 	0.25648 0.34734 0.12786 0.10500
N 	N 	0.04588 0.57835 0.16066 -0.09700
Ni	Ni	0.24968 0.56117 0.43979 1.12500
C 	C 	0.24417 0.11368 0.30381 0.02200
N 	N 	0.13922 0.12330 0.38544 -0.10800
C 	C 	0.22430 0.60429 0.31511 0.10500
C 	C 	0.20275 0.11740 0.57600 0.02200
C 	C 	0.23886 0.16493 0.62567 0.02600
C 	C 	0.22377 0.32135 0.77924 0.01900
C 	C 	0.04007 0.96145 0.86104 0.00500
O 	O 	0.28740 0.66443 0.37251 -0.35200
C 	C 	0.31357 0.52141 0.03661 0.30200
O 	O 	0.28029 0.56741 0.04756 -0.38100
O 	O 	0.30838 0.62716 0.97497 -0.37800
C 	C 	0.29447 0.43383 0.08227 0.02400
N 	N 	0.25091 0.34430 0.15264 -0.10200
C 	C 	0.25072 0.27657 0.75953 -0.06000
C 	C 	0.96464 0.70516 0.59003 0.11200
N 	N 	0.99085 0.78192 0.58815 -0.09100
H 	H 	0.28233 0.69619 0.42103 0.15100
C 	C 	0.24739 0.20588 0.52968 -0.04100
C 	C 	0.22866 0.12663 0.54507 0.02400
C 	C 	0.26360 0.17118 0.59667 -0.04000
C 	C 	0.29512 0.23264 0.64569 0.09400
N 	N 	0.24904 0.17680 0.85170 -0.10600
O 	O 	0.27040 0.56586 0.48242 -0.37900
Ni	Ni	0.32726 0.80301 0.01502 1.12400
O 	O 	0.25094 0.70168 0.07507 -0.35500
C 	C 	0.22475 0.02118 0.30036 0.09400
C 	C 	0.19889 0.19417 0.38337 0.10400
N 	N 	0.90081 0.19579 0.67715 -0.09900
N 	N 	0.95475 0.89875 0.63140 -0.07200
N 	N 	0.03459 0.89469 0.10747 -0.11600
C 	C 	0.97802 0.45153 0.63553 0.13900
C 	C 	0.84324 0.63460 0.94892 0.29400
C 	C 	0.66902 0.23921 0.97181 0.30700
C 	C 	0.91673 0.47760 0.93091 0.34600
C 	C 	0.63345 0.44742 0.00186 0.28400
C 	C 	0.66893 0.28859 0.89717 0.29100
C 	C 	0.58092 0.45145 0.90055 0.31000
Ni	Ni	0.78587 0.44098 0.97537 1.11300
Ni	Ni	0.59443 0.34338 0.94646 1.12400
Ni	Ni	0.76186 0.48232 0.90917 1.12900
O 	O 	0.85839 0.58342 0.96784 -0.35100
O 	O 	0.78893 0.59964 0.92718 -0.36800
O 	O 	0.59891 0.28620 0.90853 -0.37400
O 	O 	0.73478 0.30382 0.98534 -0.35500
O 	O 	0.59894 0.24438 0.96865 -0.37300
O 	O 	0.65429 0.46558 0.88879 -0.36900
O 	O 	0.86490 0.41654 0.94892 -0.38100
O 	O 	0.88902 0.52410 0.91653 -0.37100
O 	O 	0.56321 0.42884 0.92766 -0.38400
O 	O 	0.70641 0.44756 0.00709 -0.35900
O 	O 	0.57288 0.38493 0.98540 -0.35300
O 	O 	0.74380 0.36356 0.89609 -0.37100
O 	O 	0.71159 0.43330 0.94627 -0.71900
H 	H 	0.69930 0.48018 0.95300 0.15100
C 	C 	0.77744 0.39460 0.55566 0.27300
C 	C 	0.44937 0.24089 0.50016 0.30100
C 	C 	0.62041 0.15176 0.54037 0.31800
C 	C 	0.56320 0.46558 0.52124 0.31500
C 	C 	0.60707 0.23826 0.44710 0.30900
C 	C 	0.81461 0.47805 0.47332 0.29900
Ni	Ni	0.58958 0.30926 0.54250 1.12100
Ni	Ni	0.62084 0.39389 0.47665 1.12100
Ni	Ni	0.72157 0.29240 0.49813 1.12300
O 	O 	0.70371 0.39214 0.56268 -0.34800
O 	O 	0.78050 0.33351 0.53799 -0.35200
O 	O 	0.60879 0.31504 0.44376 -0.38700
O 	O 	0.49169 0.21734 0.51781 -0.37000
O 	O 	0.48923 0.31723 0.48492 -0.37300
O 	O 	0.81411 0.40071 0.47722 -0.36800
O 	O 	0.61608 0.21005 0.55725 -0.36000
O 	O 	0.63488 0.16918 0.51312 -0.37100
O 	O 	0.74496 0.48100 0.46431 -0.36200
O 	O 	0.54139 0.40065 0.54058 -0.35600
O 	O 	0.62842 0.48674 0.50423 -0.37800
O 	O 	0.67236 0.23598 0.45960 -0.35400
O 	O 	0.65478 0.34664 0.50767 -0.71500
H 	H 	0.70124 0.40574 0.51340 0.15000
C 	C 	0.86871 0.97000 0.68102 0.32000
C 	C 	0.88409 0.05171 0.75274 0.29200
Ni	Ni	0.92384 0.91207 0.73339 1.13000
O 	O 	0.84426 0.92572 0.70559 -0.37100
O 	O 	0.94669 0.84260 0.70244 -0.34300
O 	O 	0.92339 0.10218 0.72949 -0.35400
O 	O 	0.89640 0.98426 0.76115 -0.36300
O 	O 	0.97681 0.86972 0.76448 -0.33100
O 	O 	0.94963 0.02904 0.67604 -0.37500
C 	C 	0.53525 0.80861 0.43932 0.30300
C 	C 	0.36716 0.51851 0.40794 0.30700
C 	C 	0.40262 0.88974 0.41031 0.30100
C 	C 	0.34678 0.61685 0.49347 0.31100
Ni	Ni	0.39722 0.70800 0.39713 1.11900
Ni	Ni	0.35723 0.76696 0.45971 1.12400
O 	O 	0.38374 0.70467 0.49131 -0.37800
O 	O 	0.49986 0.73618 0.42348 -0.37500
O 	O 	0.48733 0.83914 0.45150 -0.36400
O 	O 	0.38253 0.58121 0.38863 -0.35600
O 	O 	0.33956 0.52291 0.43372 -0.37800
O 	O 	0.43238 0.84543 0.39474 -0.36100
O 	O 	0.34536 0.84935 0.43113 -0.37600
O 	O 	0.32514 0.68267 0.42949 -0.71800
C 	C 	0.52253 0.68116 0.04449 0.30000
C 	C 	0.41163 0.88601 0.07156 0.28700
C 	C 	0.49421 0.88255 0.98431 0.28400
Ni	Ni	0.35975 0.69076 0.06508 1.12100
Ni	Ni	0.41595 0.68434 0.99834 1.12200
O 	O 	0.46703 0.66808 0.06584 -0.35100
O 	O 	0.52395 0.72456 0.02086 -0.38400
O 	O 	0.47155 0.80057 0.97430 -0.36700
O 	O 	0.37456 0.55859 0.01667 -0.36500
O 	O 	0.43805 0.89932 0.99797 -0.36700
O 	O 	0.42773 0.82125 0.07999 -0.35300
O 	O 	0.34904 0.87038 0.05318 -0.35700
O 	O 	0.38397 0.73996 0.02789 -0.71500
H 	H 	0.44100 0.79177 0.03163 0.15500
C 	C 	0.88107 0.04615 0.28038 0.28500
C 	C 	0.83330 0.03314 0.20041 0.30400
C 	C 	0.90080 0.81138 0.19288 0.31100
C 	C 	0.93215 0.82279 0.27281 0.31000
Ni	Ni	0.00333 0.11311 0.23040 1.10300
Ni	Ni	0.85236 0.90410 0.23707 1.12500
O 	O 	0.95570 0.11390 0.27122 -0.33900
O 	O 	0.82638 0.98670 0.26186 -0.35900
O 	O 	0.97583 0.88437 0.19067 -0.36900
O 	O 	0.03873 0.11504 0.18764 -0.36900
O 	O 	0.87087 0.84549 0.27167 -0.37300
O 	O 	0.88674 0.10005 0.21649 -0.34600
O 	O 	0.83588 0.95762 0.20035 -0.36400
O 	O 	0.84674 0.80146 0.21375 -0.36500
O 	O 	0.97114 0.99156 0.23756 -0.70300
H 	H 	0.98230 0.99403 0.25829 0.16400
C 	C 	0.25100 0.08823 0.15956 0.09800
C 	C 	0.32197 0.51502 0.09887 0.06600
N 	N 	0.21135 0.12996 0.02289 -0.10600
N 	N 	0.34327 0.57911 0.11238 -0.12700
N 	N 	0.29082 0.06856 0.17451 -0.09900
C 	C 	0.71019 0.12768 0.15917 -0.03400
C 	C 	0.63848 0.04775 0.14980 0.02000
C 	C 	0.62801 0.96386 0.15906 -0.03100
C 	C 	0.68518 0.96098 0.17906 0.03200
C 	C 	0.76434 0.03955 0.18436 -0.07200
C 	C 	0.77741 0.12344 0.17360 0.02700
C 	C 	0.57504 0.05115 0.12975 0.02400
C 	C 	0.56010 0.88069 0.14746 0.11000
C 	C 	0.86096 0.20358 0.17541 0.10200
C 	C 	0.59702 0.07356 0.10046 -0.03300
C 	C 	0.53147 0.03795 0.07989 0.01000
C 	C 	0.44978 0.96952 0.08811 -0.06000
C 	C 	0.42396 0.96621 0.11686 0.02900
C 	C 	0.48735 0.01003 0.13789 -0.03900
C 	C 	0.68604 0.12682 0.09146 0.10000
C 	C 	0.33392 0.91373 0.12478 0.09900
C 	C 	0.54379 0.07933 0.05192 0.08600
C 	C 	0.46341 0.00720 0.16776 0.10700
C 	C 	0.71352 0.21354 0.15483 0.11000
C 	C 	0.65934 0.87950 0.19578 0.09100
N 	N 	0.55252 0.11298 0.02962 -0.09800
N 	N 	0.75723 0.16943 0.08429 -0.10400
N 	N 	0.26190 0.87177 0.13106 -0.10000
N 	N 	0.44437 0.00493 0.19166 -0.10100
N 	N 	0.50597 0.81418 0.13828 -0.10200
N 	N 	0.63863 0.81447 0.20912 -0.10700
N 	N 	0.92765 0.26763 0.17679 -0.09100
N 	N 	0.71604 0.28204 0.15138 -0.09800
C 	C 	0.85604 0.68456 0.12453 -0.02700
C 	C 	0.83930 0.72585 0.14798 0.02200
C 	C 	0.88233 0.73511 0.17404 -0.06500
C 	C 	0.81244 0.67375 0.09757 0.10400
C 	C 	0.78184 0.76270 0.14491 0.09800
N 	N 	0.73595 0.79214 0.14245 -0.09500
N 	N 	0.77773 0.66497 0.07598 -0.10900
C 	C 	0.74408 0.87786 0.40621 -0.03900
C 	C 	0.76167 0.96462 0.39760 0.02900
C 	C 	0.73161 0.01100 0.41494 -0.05200
C 	C 	0.66458 0.96193 0.43495 0.03700
C 	C 	0.63010 0.86811 0.43722 -0.08000
C 	C 	0.68158 0.83184 0.42773 0.02900
C 	C 	0.79263 0.99702 0.36781 0.03000
C 	C 	0.77390 0.10821 0.41369 0.10300
C 	C 	0.68253 0.75996 0.44390 0.08900
C 	C 	0.73394 0.96655 0.34497 -0.04700
C 	C 	0.76245 0.99967 0.31707 0.03100
C 	C 	0.85147 0.04507 0.31056 -0.07900
C 	C 	0.91088 0.07749 0.33352 0.05800
C 	C 	0.88047 0.05669 0.36219 -0.04900
C 	C 	0.64586 0.89621 0.34981 0.10300
C 	C 	0.00231 0.13293 0.32792 0.05500
C 	C 	0.70087 0.99299 0.29573 0.09400
C 	C 	0.93869 0.09839 0.38585 0.12200
C 	C 	0.78786 0.83555 0.39243 0.11000
C 	C 	0.63575 0.00733 0.45442 0.08600
N 	N 	0.65168 0.98766 0.27870 -0.09600
N 	N 	0.57572 0.83967 0.35368 -0.12800
N 	N 	0.98440 0.13182 0.40491 -0.09200
N 	N 	0.80847 0.18603 0.41274 -0.10100
N 	N 	0.61160 0.04236 0.47016 -0.09200
N 	N 	0.68511 0.70361 0.45703 -0.10200
N 	N 	0.82289 0.80181 0.38139 -0.10500
C 	C 	0.28897 0.16152 0.32839 -0.03500
C 	C 	0.31111 0.25255 0.33147 0.02300
C 	C 	0.33766 0.29731 0.35996 0.02300
C 	C 	0.42127 0.36995 0.36349 -0.03900
C 	C 	0.43483 0.43980 0.38246 0.02400
C 	C 	0.36479 0.43445 0.39849 -0.07600
C 	C 	0.28611 0.35214 0.39927 0.02600
C 	C 	0.27437 0.28215 0.38071 -0.04000
C 	C 	0.49185 0.37483 0.34659 0.10300
C 	C 	0.21531 0.34217 0.41725 0.08400
C 	C 	0.51861 0.51985 0.38380 0.08100
C 	C 	0.31304 0.11758 0.35027 0.10300
N 	N 	0.58548 0.58382 0.38478 -0.10400
N 	N 	0.54819 0.37867 0.33307 -0.10200
N 	N 	0.15871 0.33412 0.43159 -0.11300
N 	N 	0.20947 0.94737 0.29770 -0.09700
N 	N 	0.33219 0.08236 0.36771 -0.11300
C 	C 	0.90373 0.61060 0.30637 -0.07500
C 	C 	0.88103 0.66731 0.29115 0.06000
C 	C 	0.81231 0.63024 0.27038 0.09000
C 	C 	0.90919 0.51001 0.37204 0.08000
C 	C 	0.86229 0.51534 0.30017 0.12900
N 	N 	0.28277 0.61210 0.30191 -0.09700
N 	N 	0.01354 0.42427 0.41804 -0.10900
N 	N 	0.84052 0.48027 0.38164 -0.09500
N 	N 	0.75751 0.60072 0.25378 -0.09100
N 	N 	0.82926 0.43925 0.29523 -0.10300
C 	C 	0.58430 0.12499 0.40963 -0.03300
C 	C 	0.54963 0.16311 0.42829 -0.08300
C 	C 	0.45908 0.12396 0.43029 0.12100
C 	C 	0.40765 0.03427 0.42197 -0.04900
C 	C 	0.44466 0.98931 0.40765 -0.07000
C 	C 	0.53059 0.04054 0.39748 0.11100
N 	N 	0.55818 0.01423 0.37418 -0.19900
H 	H 	0.65138 0.16269 0.40344 0.06800
H 	H 	0.33911 0.99979 0.42653 0.07400
N 	N 	0.42159 0.17441 0.43663 -0.20100
H 	H 	0.62278 0.04968 0.36780 0.09900
H 	H 	0.51427 0.96574 0.36036 0.11900
H 	H 	0.45601 0.24433 0.43487 0.10800
H 	H 	0.35499 0.14380 0.43965 0.10000
C 	C 	0.95149 0.57065 0.49812 0.00800
C 	C 	0.89922 0.56166 0.47460 -0.10200
C 	C 	0.93812 0.61518 0.44976 0.16900
H 	H 	0.92334 0.52799 0.51674 0.04600
N 	N 	0.89005 0.62591 0.42925 -0.20600
H 	H 	0.82549 0.60622 0.43287 0.12500
H 	H 	0.91906 0.66164 0.41035 0.11300
C 	C 	0.44015 0.49102 0.53391 -0.03700
C 	C 	0.50111 0.49624 0.51354 -0.08800
C 	C 	0.50562 0.53666 0.48635 0.12600
C 	C 	0.46517 0.58776 0.48287 -0.03400
C 	C 	0.39975 0.57676 0.50164 -0.09200
C 	C 	0.38677 0.52828 0.52768 0.12400
N 	N 	0.32545 0.51926 0.54695 -0.20000
H 	H 	0.43408 0.45817 0.55446 0.06600
H 	H 	0.47707 0.62758 0.46355 0.06500
N 	N 	0.53864 0.51730 0.46280 -0.18600
H 	H 	0.31672 0.48367 0.56616 0.10400
H 	H 	0.28602 0.54742 0.54312 0.11000
H 	H 	0.54678 0.46117 0.46213 0.04500
H 	H 	0.54432 0.55075 0.44340 0.10400
C 	C 	0.73260 0.03530 0.63544 -0.04300
C 	C 	0.68622 0.95703 0.61911 0.03300
C 	C 	0.69008 0.87860 0.62610 -0.03800
C 	C 	0.74757 0.88164 0.64732 0.02900
C 	C 	0.80278 0.96397 0.66080 -0.07100
C 	C 	0.79475 0.04082 0.65487 0.02500
C 	C 	0.64762 0.96342 0.59167 0.01900
C 	C 	0.63618 0.79559 0.61113 0.10800
C 	C 	0.85365 0.12679 0.66742 0.08400
C 	C 	0.70152 0.99915 0.56740 -0.02700
C 	C 	0.68889 0.05575 0.54831 0.02100
C 	C 	0.61855 0.07087 0.55273 -0.07400
C 	C 	0.55359 0.01658 0.57273 0.02000
C 	C 	0.56804 0.96186 0.59217 -0.02800
C 	C 	0.77428 0.98432 0.56369 0.10800
C 	C 	0.47381 0.01954 0.57387 0.09100
C 	C 	0.75118 0.10304 0.52558 0.08800
C 	C 	0.50430 0.90938 0.61391 0.10500
C 	C 	0.71790 0.11115 0.63154 0.10900
C 	C 	0.75206 0.80120 0.65452 0.09800
N 	N 	0.80096 0.14080 0.50745 -0.10800
N 	N 	0.83237 0.97243 0.56079 -0.09300
N 	N 	0.41023 0.02211 0.57480 -0.10300
N 	N 	0.45340 0.86742 0.63129 -0.10000
N 	N 	0.59311 0.72938 0.59915 -0.10400
N 	N 	0.75573 0.73706 0.66027 -0.09400
N 	N 	0.70599 0.17152 0.62843 -0.10000
C 	C 	0.25429 0.06744 0.53321 -0.04500
C 	C 	0.31531 0.09806 0.51061 0.02700
C 	C 	0.35412 0.18913 0.50181 -0.08400
C 	C 	0.30851 0.23538 0.50706 0.02200
C 	C 	0.22206 0.97798 0.54529 0.11500
C 	C 	0.31924 0.30730 0.48802 0.08600
C 	C 	0.35272 0.22875 0.58838 0.10500
C 	C 	0.34654 0.04039 0.49926 0.08100
N 	N 	0.34003 0.28726 0.66153 -0.09200
N 	N 	0.42404 0.27444 0.58190 -0.12900
N 	N 	0.19629 0.90653 0.55494 -0.10800
N 	N 	0.37155 0.99415 0.49039 -0.10600
N 	N 	0.32738 0.36453 0.47268 -0.10300
C 	C 	0.97765 0.62134 0.64339 0.06200
C 	C 	0.91171 0.60306 0.66360 -0.05300
C 	C 	0.92551 0.66481 0.68565 0.06400
C 	C 	0.95577 0.57314 0.61543 0.01900
C 	C 	0.82871 0.52252 0.66100 0.11700
C 	C 	0.94351 0.48508 0.61359 -0.04100
C 	C 	0.89540 0.42911 0.59075 0.02500
C 	C 	0.85556 0.45987 0.57097 -0.06800
C 	C 	0.87681 0.55149 0.57121 0.01700
C 	C 	0.93223 0.60910 0.59221 -0.03200
C 	C 	0.83638 0.58466 0.55125 0.08300
C 	C 	0.88464 0.33952 0.58817 0.10200
C 	C 	0.86000 0.64344 0.70755 0.09200
N 	N 	0.87617 0.26805 0.58606 -0.09600
N 	N 	0.80424 0.61126 0.53537 -0.09400
N 	N 	0.76251 0.45822 0.65887 -0.10000
N 	N 	0.80777 0.62644 0.72504 -0.09400
C 	C 	0.03836 0.47207 0.95446 -0.07100
C 	C 	0.01071 0.51112 0.93347 -0.11100
H 	H 	0.99466 0.40473 0.96240 0.08900
H 	H 	0.00821 0.57213 0.88133 0.10600
C 	C 	0.60863 0.09547 0.94554 -0.03700
C 	C 	0.66239 0.14934 0.96758 -0.08600
C 	C 	0.68607 0.10721 0.98926 0.13400
C 	C 	0.63803 0.01280 0.99269 -0.06100
C 	C 	0.57293 0.96076 0.97316 -0.06300
C 	C 	0.56866 0.00151 0.94735 0.10700
N 	N 	0.52075 0.95085 0.92515 -0.19500
H 	H 	0.58924 0.12582 0.92891 0.05400
H 	H 	0.64721 0.98093 0.01151 0.06200
N 	N 	0.75545 0.15567 0.00603 -0.19900
H 	H 	0.51457 0.98154 0.90650 0.10400
H 	H 	0.49307 0.88088 0.92562 0.11600
H 	H 	0.80321 0.21990 0.99979 0.12000
H 	H 	0.76734 0.12538 0.02367 0.10800
C 	C 	0.66716 0.60183 0.01496 -0.04200
C 	C 	0.61378 0.50868 0.01850 -0.08000
C 	C 	0.54463 0.47609 0.03854 0.12100
C 	C 	0.52387 0.53729 0.05163 -0.03700
C 	C 	0.56881 0.62901 0.04413 -0.08700
C 	C 	0.64680 0.66238 0.02855 0.12600
N 	N 	0.70285 0.75221 0.02707 -0.19700
H 	H 	0.72432 0.62726 0.00151 0.05600
H 	H 	0.47062 0.51293 0.06667 0.06200
N 	N 	0.49944 0.38726 0.04577 -0.19900
H 	H 	0.76078 0.77684 0.01565 0.10700
H 	H 	0.69144 0.79775 0.03857 0.11100
H 	H 	0.51788 0.34150 0.03842 0.12000
H 	H 	0.44693 0.36367 0.05990 0.10300
C 	C 	0.69924 0.00641 0.80293 -0.05200
C 	C 	0.71914 0.09503 0.80942 0.03000
C 	C 	0.77896 0.16720 0.79221 -0.03800
C 	C 	0.82753 0.15238 0.77118 0.02800
C 	C 	0.81751 0.06519 0.76799 -0.07300
C 	C 	0.74625 0.99121 0.78138 0.04100
C 	C 	0.68651 0.11409 0.83645 0.01900
C 	C 	0.79223 0.25718 0.79679 0.11100
C 	C 	0.71776 0.90043 0.77160 0.08900
C 	C 	0.73744 0.13668 0.86117 -0.03500
C 	C 	0.72556 0.18603 0.88305 0.01900
C 	C 	0.66100 0.21105 0.88047 -0.07600
C 	C 	0.60094 0.17477 0.85796 0.01900
C 	C 	0.61384 0.12604 0.83595 -0.03700
C 	C 	0.80681 0.11560 0.86293 0.10600
C 	C 	0.52835 0.19057 0.85669 0.09600
C 	C 	0.78320 0.21577 0.90732 0.08800
C 	C 	0.55477 0.09178 0.81215 0.10200
C 	C 	0.63221 0.93134 0.81895 0.11700
C 	C 	0.88244 0.22501 0.75175 0.10700
N 	N 	0.82968 0.23911 0.92654 -0.09800
N 	N 	0.86233 0.09909 0.86425 -0.09600
N 	N 	0.47015 0.20279 0.85549 -0.10200
N 	N 	0.50768 0.06443 0.79314 -0.10500
N 	N 	0.80271 0.32889 0.80049 -0.09900
N 	N 	0.92573 0.28342 0.73626 -0.08400
N 	N 	0.69497 0.82797 0.76379 -0.10000
N 	N 	0.57871 0.87145 0.83175 -0.10600
C 	C 	0.27672 0.36820 0.80253 -0.03300
C 	C 	0.35650 0.37156 0.80602 0.02200
C 	C 	0.38841 0.33832 0.78437 -0.03300
C 	C 	0.33746 0.29507 0.76040 0.01800
C 	C 	0.40245 0.40072 0.83384 0.02500
C 	C 	0.47261 0.34583 0.78729 0.10700
C 	C 	0.38019 0.33805 0.85655 -0.03600
C 	C 	0.43262 0.36018 0.88090 0.03000
C 	C 	0.51109 0.44227 0.88149 -0.07700
C 	C 	0.52777 0.50890 0.86047 0.02800
C 	C 	0.47293 0.48827 0.83669 -0.03700
C 	C 	0.30705 0.24847 0.85388 0.11000
C 	C 	0.60116 0.59831 0.86337 0.09100
C 	C 	0.40719 0.29722 0.90485 0.08500
C 	C 	0.49002 0.55603 0.81484 0.10700
C 	C 	0.24822 0.41116 0.82333 0.10400
C 	C 	0.37590 0.27436 0.73620 0.10300
N 	N 	0.38680 0.24690 0.92392 -0.11300
N 	N 	0.65978 0.66962 0.86571 -0.09700
N 	N 	0.50363 0.61008 0.79739 -0.10000
N 	N 	0.53974 0.35180 0.78968 -0.10000
N 	N 	0.40723 0.25779 0.71708 -0.09300
N 	N 	0.22556 0.44543 0.83995 -0.10600
C 	C 	0.02963 0.82423 0.92031 -0.13000
C 	C 	0.98226 0.85166 0.90270 0.11700
C 	C 	0.90276 0.83995 0.91305 -0.07000
C 	C 	0.86445 0.78513 0.93751 0.05000
C 	C 	0.89972 0.73318 0.94836 -0.10200
C 	C 	0.98832 0.76685 0.94410 0.10600
C 	C 	0.00545 0.87252 0.87160 -0.06700
C 	C 	0.85699 0.87609 0.89706 0.12700
C 	C 	0.03605 0.74368 0.96415 0.04000
C 	C 	0.98623 0.80189 0.85225 0.04400
C 	C 	0.00961 0.82138 0.82311 -0.03200
C 	C 	0.93394 0.70923 0.86156 0.09200
C 	C 	0.00569 0.75171 0.80446 0.10100
C 	C 	0.78170 0.76955 0.94805 0.07800
N 	N 	0.00255 0.69616 0.78957 -0.10600
N 	N 	0.89142 0.63510 0.86876 -0.12200
N 	N 	0.82025 0.90467 0.88425 -0.10200
N 	N 	0.71540 0.75704 0.95632 -0.10600
