data_crystal

_cell_length_a 26.13202
_cell_length_b 26.37089
_cell_length_c 26.48883
_cell_angle_alpha 95.52011
_cell_angle_beta  95.52072
_cell_angle_gamma 125.84545

_symmetry_space_group_name_	'P 1'
_symmetry_space_group_name_H-M	'P 1'

loop_
_symmetry_equiv_pos_as_xyz
  x,y,z

loop_
_atom_site_label
_atom_site_type_symbol
_atom_site_fract_x
_atom_site_fract_y
_atom_site_fract_z
_atom_site_charge
C 	C 	0.97400 0.03252 0.00873 0.11200
N 	N 	0.93921 0.96986 0.01201 -0.13100
C 	C 	0.96534 0.93828 0.00685 0.12800
N 	N 	0.02691 0.96971 0.99971 -0.12600
C 	C 	0.06208 0.03233 0.99679 0.11800
N 	N 	0.03536 0.06358 0.00052 -0.12100
C 	C 	0.93673 0.99948 0.44918 0.13900
N 	N 	0.99855 0.03312 0.44213 -0.14500
C 	C 	0.03216 0.00917 0.44888 0.12800
N 	N 	0.00362 0.95134 0.46266 -0.12400
C 	C 	0.94136 0.91681 0.46862 0.12500
N 	N 	0.90787 0.94094 0.46179 -0.13500
Cu	Cu	0.64083 0.24053 0.99757 0.92800
Cu	Cu	0.70594 0.26084 0.89506 0.87200
Cu	Cu	0.67319 0.34353 0.93464 0.89700
Cu	Cu	0.63085 0.35091 0.03425 0.90000
C 	C 	0.65063 0.28044 0.10514 0.28600
O 	O 	0.54517 0.19666 0.99167 -0.35700
C 	C 	0.66592 0.31050 0.82239 0.28700
O 	O 	0.68761 0.33931 0.00606 -0.63500
O 	O 	0.63683 0.25163 0.92492 -0.64200
O 	O 	0.68617 0.20073 0.99519 -0.36400
O 	O 	0.76142 0.27685 0.95613 -0.43400
O 	O 	0.61840 0.30256 0.09120 -0.37300
O 	O 	0.71491 0.43424 0.94797 -0.37100
C 	C 	0.70933 0.46557 0.98635 0.28600
C 	C 	0.51802 0.22176 0.97289 0.28300
O 	O 	0.55393 0.28245 0.97010 -0.38400
O 	O 	0.66593 0.43576 0.01568 -0.37100
O 	O 	0.65763 0.24623 0.07076 -0.34200
C 	C 	0.74342 0.23160 0.98295 0.29500
O 	O 	0.66701 0.34773 0.86057 -0.36600
O 	O 	0.66958 0.26406 0.83058 -0.40900
H 	H 	0.73310 0.36867 0.02400 0.17300
H 	H 	0.59396 0.22302 0.90214 0.18500
Cu	Cu	0.73628 0.33841 0.43202 0.93000
Cu	Cu	0.72771 0.28312 0.53884 0.87300
Cu	Cu	0.63250 0.30162 0.49632 0.90000
Cu	Cu	0.61842 0.33915 0.39595 0.89900
C 	C 	0.68856 0.31949 0.32449 0.28700
O 	O 	0.77568 0.43190 0.43488 -0.35000
C 	C 	0.67063 0.31550 0.60923 0.28700
O 	O 	0.63598 0.28724 0.42507 -0.64000
O 	O 	0.72697 0.34464 0.50515 -0.64000
O 	O 	0.78127 0.29830 0.43548 -0.36300
O 	O 	0.71132 0.22527 0.47982 -0.43000
O 	O 	0.66484 0.35037 0.33747 -0.37000
O 	O 	0.54014 0.25408 0.48305 -0.37100
C 	C 	0.50667 0.26327 0.44965 0.29600
C 	C 	0.74789 0.45655 0.45269 0.28500
O 	O 	0.68760 0.41897 0.45775 -0.38500
O 	O 	0.53361 0.30296 0.41722 -0.38100
O 	O 	0.72840 0.31892 0.35873 -0.34600
C 	C 	0.75411 0.24306 0.45002 0.29300
O 	O 	0.62780 0.30534 0.57040 -0.36700
O 	O 	0.72228 0.32025 0.60156 -0.40900
H 	H 	0.60813 0.24186 0.40785 0.17700
H 	H 	0.75353 0.38823 0.52614 0.18100
C 	C 	0.66004 0.32092 0.66274 -0.06200
C 	C 	0.60703 0.26804 0.67840 0.00200
C 	C 	0.60512 0.26786 0.73141 0.00400
C 	C 	0.65742 0.31912 0.76865 -0.06200
C 	C 	0.70617 0.37502 0.75289 0.00000
C 	C 	0.70695 0.37616 0.69981 0.00400
C 	C 	0.55603 0.21284 0.64021 0.08900
C 	C 	0.75648 0.43050 0.79119 0.08600
C 	C 	0.75590 0.43394 0.68329 0.08700
C 	C 	0.54954 0.21506 0.74773 0.09100
N 	N 	0.79494 0.48003 0.67005 -0.11100
N 	N 	0.50520 0.17297 0.76081 -0.10800
N 	N 	0.79662 0.47478 0.82176 -0.10900
N 	N 	0.51533 0.16878 0.60974 -0.10800
C 	C 	0.68195 0.29814 0.26897 -0.05900
C 	C 	0.73530 0.33106 0.24418 0.00800
C 	C 	0.72568 0.32114 0.18973 0.00100
C 	C 	0.66290 0.27878 0.16032 -0.05600
C 	C 	0.61091 0.24009 0.18497 0.00600
C 	C 	0.62045 0.24981 0.23935 0.00100
C 	C 	0.79968 0.37590 0.27455 0.10300
C 	C 	0.54760 0.19081 0.15437 0.09800
C 	C 	0.56694 0.21071 0.26490 0.07500
C 	C 	0.78008 0.35539 0.16398 0.08600
N 	N 	0.52429 0.17957 0.28535 -0.11700
N 	N 	0.82344 0.38266 0.14337 -0.11100
N 	N 	0.49709 0.15151 0.12995 -0.10500
N 	N 	0.85109 0.41164 0.29877 -0.09900
C 	C 	0.82129 0.73797 0.44820 -0.02400
C 	C 	0.85532 0.72254 0.47949 0.01300
C 	C 	0.91352 0.77134 0.51236 -0.04200
C 	C 	0.93968 0.83529 0.51225 0.00200
C 	C 	0.90852 0.85080 0.47742 -0.01500
C 	C 	0.84821 0.80187 0.44703 -0.01700
C 	C 	0.83272 0.65569 0.47513 0.02700
C 	C 	0.83831 0.62658 0.43106 -0.05800
C 	C 	0.81212 0.56189 0.42369 0.02700
C 	C 	0.78204 0.52616 0.46189 -0.08000
C 	C 	0.77896 0.55610 0.50704 0.01200
C 	C 	0.80363 0.62043 0.51366 -0.04000
C 	C 	0.81286 0.53180 0.37549 0.08400
C 	C 	0.79751 0.64946 0.55947 0.09600
C 	C 	0.75902 0.68843 0.41682 0.09100
C 	C 	0.99755 0.88458 0.54879 0.08300
N 	N 	0.81340 0.50776 0.33683 -0.09800
N 	N 	0.79263 0.67276 0.59616 -0.10700
N 	N 	0.04391 0.92406 0.57805 -0.09300
N 	N 	0.70914 0.64870 0.39169 -0.10800
H 	H 	0.82328 0.81348 0.42112 0.05400
H 	H 	0.93882 0.75949 0.53755 0.05600
H 	H 	0.86112 0.65388 0.40159 0.06000
H 	H 	0.75602 0.52887 0.53651 0.04200
C 	C 	0.86790 0.07827 0.39292 -0.02500
C 	C 	0.84720 0.09244 0.43565 0.01200
C 	C 	0.85153 0.07172 0.48159 -0.04500
C 	C 	0.87877 0.03937 0.48599 -0.00000
C 	C 	0.90146 0.02699 0.44376 -0.02700
C 	C 	0.89497 0.04574 0.39720 -0.01600
C 	C 	0.82417 0.13200 0.43368 0.02700
C 	C 	0.75819 0.10236 0.41963 -0.06100
C 	C 	0.73493 0.13861 0.42189 0.02900
C 	C 	0.77805 0.20527 0.43913 -0.08700
C 	C 	0.84437 0.23517 0.45053 0.01200
C 	C 	0.86759 0.19891 0.44804 -0.04200
C 	C 	0.66701 0.10728 0.40542 0.07600
C 	C 	0.93595 0.23058 0.46107 0.09400
C 	C 	0.86245 0.09783 0.34484 0.09200
C 	C 	0.88547 0.02125 0.53457 0.08400
N 	N 	0.61261 0.08219 0.39221 -0.10700
N 	N 	0.99071 0.25589 0.47149 -0.11100
N 	N 	0.89086 0.00673 0.57347 -0.10700
N 	N 	0.85806 0.11355 0.30634 -0.10700
H 	H 	0.91195 0.03587 0.36458 0.04900
H 	H 	0.83518 0.08228 0.51435 0.05000
H 	H 	0.72493 0.05100 0.40745 0.05800
H 	H 	0.87773 0.28647 0.46309 0.03900
C 	C 	0.20617 0.15102 0.46230 -0.02200
C 	C 	0.23355 0.12186 0.44355 0.01100
C 	C 	0.19413 0.05613 0.42407 -0.03600
C 	C 	0.12784 0.01933 0.42304 -0.01200
C 	C 	0.10089 0.04785 0.44461 -0.01100
C 	C 	0.14039 0.11385 0.46351 -0.01900
C 	C 	0.30377 0.15965 0.44493 0.02800
C 	C 	0.34594 0.18480 0.49266 -0.05700
C 	C 	0.41243 0.22093 0.49494 0.03000
C 	C 	0.43707 0.22883 0.44872 -0.07700
C 	C 	0.39477 0.20372 0.40099 0.01400
C 	C 	0.32854 0.17015 0.39889 -0.04000
C 	C 	0.45495 0.25292 0.54467 0.08800
C 	C 	0.28641 0.14749 0.34943 0.09600
C 	C 	0.24515 0.21917 0.47984 0.09200
C 	C 	0.08764 0.95323 0.39765 0.10500
N 	N 	0.48890 0.27863 0.58453 -0.09700
N 	N 	0.25263 0.12932 0.30982 -0.10700
N 	N 	0.05547 0.90029 0.37731 -0.10400
N 	N 	0.27641 0.27376 0.49388 -0.10500
H 	H 	0.11999 0.13621 0.47959 0.05700
H 	H 	0.21504 0.03383 0.40898 0.05400
H 	H 	0.32695 0.17734 0.52811 0.06100
H 	H 	0.41348 0.21026 0.36542 0.04300
C 	C 	0.86542 0.77830 0.04689 -0.02900
C 	C 	0.85241 0.73698 0.00141 0.03300
C 	C 	0.87492 0.76175 0.95735 -0.05400
C 	C 	0.91116 0.82739 0.95847 -0.00600
C 	C 	0.92522 0.86893 0.00425 -0.01000
C 	C 	0.90156 0.84401 0.04801 -0.01600
C 	C 	0.81579 0.66761 0.99966 0.00700
C 	C 	0.74852 0.62849 0.98660 -0.05300
C 	C 	0.71309 0.56236 0.98224 0.02800
C 	C 	0.74528 0.53496 0.99128 -0.08200
C 	C 	0.81256 0.57416 0.00447 0.01800
C 	C 	0.84793 0.64028 0.00891 -0.02800
C 	C 	0.64394 0.52284 0.96693 0.08200
C 	C 	0.91718 0.67983 0.02304 0.09500
C 	C 	0.84243 0.75369 0.09264 0.09600
C 	C 	0.93283 0.85167 0.91227 0.08800
N 	N 	0.58856 0.49120 0.95465 -0.10400
N 	N 	0.97266 0.71156 0.03437 -0.10600
N 	N 	0.95023 0.87116 0.87529 -0.10700
N 	N 	0.82398 0.73391 0.12928 -0.10800
H 	H 	0.91202 0.87587 0.08312 0.05300
H 	H 	0.86440 0.72985 0.92225 0.05900
H 	H 	0.72385 0.64954 0.97927 0.05600
H 	H 	0.83734 0.55314 0.01141 0.03800
C 	C 	0.84873 0.05967 0.97605 -0.02600
C 	C 	0.87971 0.12204 0.00355 0.02600
C 	C 	0.94120 0.15461 0.03377 -0.04100
C 	C 	0.97241 0.12590 0.03634 -0.01400
C 	C 	0.94228 0.06415 0.00741 0.00100
C 	C 	0.88037 0.03145 0.97759 -0.04000
C 	C 	0.84872 0.15430 0.99974 0.01000
C 	C 	0.81998 0.15896 0.04023 -0.05000
C 	C 	0.78743 0.18624 0.03616 0.03800
C 	C 	0.78207 0.20766 0.99040 -0.09600
C 	C 	0.81280 0.20487 0.95069 0.01300
C 	C 	0.84657 0.17903 0.95537 -0.03900
C 	C 	0.76204 0.19436 0.07979 0.08600
C 	C 	0.87875 0.17782 0.91439 0.08800
C 	C 	0.78437 0.02427 0.94626 0.08100
C 	C 	0.03413 0.15928 0.07009 0.10400
N 	N 	0.74178 0.20085 0.11480 -0.09500
N 	N 	0.90453 0.17681 0.88158 -0.11400
N 	N 	0.08358 0.18636 0.09724 -0.10100
N 	N 	0.73282 0.99597 0.92240 -0.10300
H 	H 	0.85687 0.98397 0.95545 0.06100
H 	H 	0.96472 0.20234 0.05538 0.05400
H 	H 	0.82290 0.14125 0.07488 0.05800
H 	H 	0.80958 0.22197 0.91574 0.01900
C 	C 	0.19872 0.06892 0.93118 -0.02100
C 	C 	0.25244 0.11332 0.97061 0.00100
C 	C 	0.24360 0.13536 0.01690 -0.03000
C 	C 	0.18160 0.11019 0.02563 0.00300
C 	C 	0.12779 0.06506 0.98650 -0.01900
C 	C 	0.13686 0.04568 0.93911 -0.02000
C 	C 	0.31769 0.13368 0.96537 0.03000
C 	C 	0.35092 0.17593 0.93225 -0.05900
C 	C 	0.41478 0.20029 0.93051 0.02600
C 	C 	0.44715 0.18528 0.96458 -0.07700
C 	C 	0.41238 0.13956 0.99502 0.00300
C 	C 	0.34782 0.11330 0.99516 -0.04700
C 	C 	0.44562 0.23808 0.89213 0.08100
C 	C 	0.31285 0.06567 0.02620 0.10800
C 	C 	0.20648 0.04538 0.88320 0.09000
C 	C 	0.17346 0.12709 0.07615 0.09400
N 	N 	0.47032 0.26830 0.86136 -0.10200
N 	N 	0.28481 0.02753 0.05106 -0.10700
N 	N 	0.16715 0.14050 0.11676 -0.09800
N 	N 	0.21273 0.02654 0.84478 -0.10600
H 	H 	0.09548 0.01082 0.90904 0.05600
H 	H 	0.28494 0.16985 0.04711 0.05500
H 	H 	0.32705 0.18988 0.90789 0.06000
H 	H 	0.43612 0.12591 0.01987 0.06300
