data_crystal

_cell_length_a 18.42723
_cell_length_b 15.42427
_cell_length_c 53.58450
_cell_angle_alpha 89.56830
_cell_angle_beta  89.57085
_cell_angle_gamma 119.49874

_symmetry_space_group_name_	'P 1'
_symmetry_space_group_name_H-M	'P 1'

loop_
_symmetry_equiv_pos_as_xyz
  x,y,z

loop_
_atom_site_label
_atom_site_type_symbol
_atom_site_fract_x
_atom_site_fract_y
_atom_site_fract_z
_atom_site_charge
C 	C 	0.33170 0.23821 0.75914 0.30100
C 	C 	0.35206 0.24702 0.68464 0.32400
Ni	Ni	0.24958 0.08292 0.72013 1.11600
Ni	Ni	0.25216 0.29714 0.71910 1.12400
O 	O 	0.30499 0.14315 0.75413 -0.36000
O 	O 	0.34522 0.30369 0.74098 -0.36600
O 	O 	0.20839 0.03310 0.68443 -0.36600
O 	O 	0.35703 0.19545 0.70343 -0.36900
O 	O 	0.31324 0.29857 0.68728 -0.37300
O 	O 	0.19243 0.15511 0.72286 -0.71500
H 	H 	0.18422 0.15015 0.74109 0.15100
C 	C 	0.14882 0.57055 0.40461 0.30300
C 	C 	0.31714 0.62968 0.37952 0.32900
C 	C 	0.15585 0.38820 0.46434 0.31500
Ni	Ni	0.30835 0.71116 0.42971 1.11400
Ni	Ni	0.32456 0.55656 0.47311 1.12900
Ni	Ni	0.25607 0.47613 0.41823 1.12000
O 	O 	0.18279 0.64266 0.42109 -0.34600
O 	O 	0.15477 0.48765 0.40632 -0.36800
O 	O 	0.18587 0.36898 0.44380 -0.35400
O 	O 	0.33011 0.71022 0.39118 -0.37200
O 	O 	0.33178 0.56581 0.39088 -0.38900
O 	O 	0.20686 0.44810 0.48169 -0.33800
O 	O 	0.35370 0.45148 0.42164 -0.35700
O 	O 	0.28626 0.58207 0.44152 -0.70000
H 	H 	0.23030 0.56328 0.44779 0.15600
C 	C 	0.07576 0.51631 0.02338 0.30600
C 	C 	0.23328 0.58463 0.05620 0.33400
C 	C 	0.17761 0.76016 0.96999 0.31600
Ni	Ni	0.22290 0.50566 0.00427 1.11800
Ni	Ni	0.23396 0.72049 0.01824 1.12000
O 	O 	0.09988 0.47410 0.00625 -0.34200
O 	O 	0.11052 0.61545 0.02516 -0.36300
O 	O 	0.20455 0.79507 0.99259 -0.35500
O 	O 	0.21598 0.50525 0.04340 -0.36600
O 	O 	0.27748 0.67162 0.04608 -0.39000
O 	O 	0.22441 0.74168 0.95419 -0.34200
O 	O 	0.35300 0.83252 0.02025 -0.37200
O 	O 	0.24469 0.63732 0.99400 -0.70100
H 	H 	0.19230 0.61453 0.98505 0.16400
C 	C 	0.88024 0.07811 0.18748 0.31500
C 	C 	0.91801 0.08610 0.25337 0.30600
C 	C 	0.90692 0.80020 0.17941 0.32100
C 	C 	0.91198 0.78135 0.24498 0.30100
Ni	Ni	0.94239 0.95995 0.21508 1.11100
O 	O 	0.95144 0.89608 0.18347 -0.38500
O 	O 	0.94574 0.06933 0.19282 -0.36100
O 	O 	0.96895 0.86904 0.23582 -0.38000
O 	O 	0.96439 0.04756 0.24556 -0.35700
C 	C 	0.88060 0.20268 0.12003 0.00200
C 	C 	0.91058 0.17517 0.09920 -0.02400
C 	C 	0.93257 0.23320 0.07741 -0.02500
C 	C 	0.92503 0.31925 0.07639 0.01100
C 	C 	0.88514 0.33947 0.09604 -0.03100
C 	C 	0.86345 0.28155 0.11797 -0.02900
C 	C 	0.97350 0.39531 0.05811 0.05800
C 	C 	0.01713 0.45337 0.04212 -0.07300
C 	C 	0.87937 0.15990 0.14411 0.05600
C 	C 	0.87908 0.12256 0.16398 -0.08800
H 	H 	0.92180 0.11258 0.10041 0.05900
H 	H 	0.96123 0.21543 0.06200 0.06500
H 	H 	0.87743 0.40469 0.09521 0.05300
H 	H 	0.83859 0.30208 0.13384 0.04800
C 	C 	0.12532 0.60836 0.11978 -0.00300
C 	C 	0.16305 0.70760 0.12750 -0.02800
C 	C 	0.11793 0.74053 0.14178 -0.03000
C 	C 	0.03495 0.67430 0.14850 0.00100
C 	C 	0.00018 0.57274 0.14314 -0.03000
C 	C 	0.04624 0.53958 0.12919 -0.03000
C 	C 	0.98463 0.71241 0.15927 0.05400
C 	C 	0.94668 0.74999 0.16821 -0.09800
C 	C 	0.15798 0.58505 0.09796 0.06100
C 	C 	0.19135 0.57715 0.07939 -0.11200
H 	H 	0.22518 0.76088 0.12088 0.04900
H 	H 	0.14611 0.81859 0.14652 0.04900
H 	H 	0.93694 0.52026 0.14903 0.04600
H 	H 	0.01912 0.46161 0.12475 0.04700
C 	C 	0.04059 0.34211 0.29318 0.00300
C 	C 	0.02165 0.33911 0.31861 -0.03100
C 	C 	0.07675 0.41425 0.33428 -0.03100
C 	C 	0.15037 0.49433 0.32457 -0.00500
C 	C 	0.16567 0.50210 0.29875 -0.02800
C 	C 	0.11093 0.42582 0.28306 -0.03200
C 	C 	0.21618 0.55472 0.34149 0.06000
C 	C 	0.26523 0.59709 0.35789 -0.11900
C 	C 	0.99672 0.25298 0.27869 0.05100
C 	C 	0.95909 0.17746 0.26695 -0.08300
H 	H 	0.96693 0.27538 0.32653 0.05500
H 	H 	0.06459 0.40712 0.35421 0.05500
H 	H 	0.22225 0.56377 0.29102 0.04800
H 	H 	0.12565 0.42928 0.26333 0.05000
C 	C 	0.96480 0.68134 0.30917 -0.00100
C 	C 	0.01093 0.75001 0.32758 -0.02600
C 	C 	0.03708 0.71911 0.34856 -0.02900
C 	C 	0.01716 0.61933 0.35125 0.01000
C 	C 	0.96663 0.54937 0.33361 -0.03000
C 	C 	0.94098 0.58046 0.31247 -0.02600
C 	C 	0.05868 0.59286 0.36994 0.05500
C 	C 	0.09652 0.57768 0.38601 -0.07900
C 	C 	0.94578 0.71544 0.28638 0.05200
C 	C 	0.93044 0.74539 0.26743 -0.09400
H 	H 	0.02865 0.82787 0.32529 0.04900
H 	H 	0.07564 0.77350 0.36222 0.05700
H 	H 	0.94920 0.47167 0.33587 0.05300
H 	H 	0.90431 0.52666 0.29846 0.05100
Br	Br	0.24887 0.89004 0.49747 -0.16100
C 	C 	0.03448 0.41800 0.46527 0.09700
C 	C 	0.06510 0.35050 0.46659 -0.10000
C 	C 	0.00864 0.24744 0.46475 0.10300
Br	Br	0.09689 0.54947 0.47873 -0.17600
Br	Br	0.04804 0.15315 0.46830 -0.14500
C 	C 	0.41068 0.20902 0.61356 -0.00000
C 	C 	0.51181 0.22329 0.58230 -0.02900
C 	C 	0.48684 0.21467 0.60733 -0.02400
C 	C 	0.39298 0.22243 0.63900 0.06100
C 	C 	0.37595 0.23350 0.66007 -0.09700
H 	H 	0.57295 0.23361 0.57771 0.06300
H 	H 	0.52857 0.21765 0.62186 0.04900
C 	C 	0.06349 0.80197 0.96616 0.10600
C 	C 	0.09110 0.73188 0.96353 -0.10200
C 	C 	0.03170 0.63036 0.96199 0.10000
Br	Br	0.14322 0.94236 0.96496 -0.15500
Br	Br	0.06059 0.53773 0.94735 -0.17800
Br	Br	0.34735 0.03446 0.02135 -0.15400
C 	C 	0.37466 0.32587 0.83189 0.00200
C 	C 	0.31566 0.26603 0.85008 -0.02300
C 	C 	0.33634 0.27980 0.87538 -0.02400
C 	C 	0.45057 0.40665 0.83926 -0.02200
C 	C 	0.36147 0.29702 0.80603 0.05300
C 	C 	0.34895 0.27133 0.78453 -0.09200
H 	H 	0.25577 0.20519 0.84459 0.05400
H 	H 	0.29277 0.22841 0.88917 0.06600
O 	O 	0.19045 0.30666 0.74891 -0.38000
O 	O 	0.34854 0.44805 0.46361 -0.36200
C 	C 	0.46116 0.22758 0.56347 0.01300
C 	C 	0.41645 0.35243 0.88252 0.01200
H 	H 	0.49563 0.45519 0.82537 0.05100
C 	C 	0.32542 0.74349 0.48434 0.32900
C 	C 	0.38829 0.45351 0.44304 0.33900
O 	O 	0.43269 0.77402 0.43909 -0.36200
O 	O 	0.44481 0.66210 0.46446 -0.33900
O 	O 	0.28633 0.75001 0.46466 -0.34100
O 	O 	0.30726 0.65568 0.49318 -0.34000
C 	C 	0.27317 0.51472 0.95106 0.33000
C 	C 	0.39988 0.88208 0.00101 0.35900
Ni	Ni	0.31627 0.71574 0.96627 1.12400
O 	O 	0.37275 0.85633 0.97840 -0.37800
O 	O 	0.34895 0.55414 0.00436 -0.34300
O 	O 	0.21709 0.45781 0.96777 -0.33300
O 	O 	0.27529 0.59693 0.94375 -0.35000
C 	C 	0.36179 0.91393 0.49750 0.08800
Br	Br	0.41162 0.11645 0.48407 -0.17100
C 	C 	0.50486 0.43423 0.42369 0.10300
C 	C 	0.47395 0.46611 0.44387 -0.10200
C 	C 	0.52997 0.52440 0.46277 0.10700
Br	Br	0.42907 0.33300 0.40142 -0.17200
Br	Br	0.49107 0.52772 0.49608 -0.17900
C 	C 	0.35620 0.20247 0.59460 -0.02200
C 	C 	0.38137 0.21153 0.56958 -0.02500
C 	C 	0.49805 0.27118 0.53965 0.07400
C 	C 	0.53268 0.30845 0.52014 -0.07300
H 	H 	0.29634 0.19584 0.59927 0.05600
H 	H 	0.34121 0.21307 0.55511 0.06800
C 	C 	0.52356 0.16004 0.01023 0.09300
C 	C 	0.45779 0.06106 0.01187 0.13400
C 	C 	0.47158 0.98227 0.00484 -0.15200
Br	Br	0.50854 0.26608 0.02341 -0.16400
Br	Br	0.29675 0.33126 0.97842 -0.16500
C 	C 	0.47099 0.42062 0.86458 -0.02400
C 	C 	0.45012 0.33843 0.90541 0.07100
C 	C 	0.48033 0.32867 0.92438 -0.09200
H 	H 	0.53192 0.47941 0.87000 0.07100
C 	C 	0.37692 0.83355 0.49913 -0.10000
C 	C 	0.61576 0.56385 0.45894 0.10400
C 	C 	0.52166 0.31002 0.94458 0.31300
O 	O 	0.53883 0.36239 0.96530 -0.33700
C 	C 	0.58135 0.36308 0.49878 0.31000
O 	O 	0.63581 0.45768 0.50134 -0.34500
O 	O 	0.57473 0.31803 0.47727 -0.34700
C 	C 	0.46496 0.71650 0.44372 0.31300
C 	C 	0.40320 0.64913 0.00159 0.30200
O 	O 	0.41040 0.69563 0.98003 -0.34600
H 	H 	0.60030 0.66023 0.05877 0.06700
H 	H 	0.46902 0.54674 0.37175 0.07300
C 	C 	0.45374 0.85034 0.50872 0.10300
C 	C 	0.42913 0.01147 0.49673 0.11100
C 	C 	0.64409 0.51959 0.44151 -0.10800
C 	C 	0.59088 0.46645 0.42182 0.10000
Br	Br	0.63714 0.44758 0.39138 -0.18100
Br	Br	0.69275 0.68494 0.47523 -0.17500
C 	C 	0.61913 0.10128 0.99896 0.09300
C 	C 	0.60169 0.17986 0.00050 -0.09300
C 	C 	0.55330 0.00285 0.99862 0.13600
C 	C 	0.45839 0.49692 0.96558 0.11000
C 	C 	0.39728 0.55281 0.92436 0.10000
C 	C 	0.34364 0.49772 0.94427 -0.10800
C 	C 	0.37259 0.45442 0.96180 0.10300
Br	Br	0.35137 0.57091 0.89391 -0.18800
C 	C 	0.65350 0.27229 0.98588 0.32800
O 	O 	0.55389 0.25225 0.94051 -0.35900
O 	O 	0.69572 0.26962 0.96634 -0.33800
C 	C 	0.71349 0.50055 0.44813 0.33000
O 	O 	0.76906 0.55559 0.46465 -0.33400
C 	C 	0.59706 0.71643 0.06999 -0.02700
C 	C 	0.50504 0.73012 0.03925 0.06800
C 	C 	0.46185 0.69748 0.02113 -0.06100
H 	H 	0.65508 0.68994 0.10163 0.05400
C 	C 	0.53046 0.60576 0.36623 -0.02300
C 	C 	0.54350 0.69087 0.40573 0.06900
C 	C 	0.50993 0.70027 0.42407 -0.09500
H 	H 	0.51352 0.56448 0.32756 0.05500
C 	C 	0.52133 0.94817 0.50964 0.09200
C 	C 	0.51006 0.02906 0.50250 -0.09100
Br	Br	0.46398 0.74208 0.52308 -0.17100
Br	Br	0.57377 0.90074 0.98585 -0.19700
C 	C 	0.51496 0.55792 0.94652 -0.10400
C 	C 	0.48372 0.58831 0.92613 0.10500
Br	Br	0.49563 0.49231 0.99891 -0.18600
C 	C 	0.60201 0.57481 0.94575 0.34100
Ni	Ni	0.67907 0.31512 0.93150 1.11500
Ni	Ni	0.65833 0.46302 0.97533 1.12900
O 	O 	0.63917 0.57588 0.96628 -0.36400
O 	O 	0.67011 0.35836 0.99512 -0.34000
O 	O 	0.63892 0.57997 0.92441 -0.35800
C 	C 	0.58340 0.12857 0.49836 0.34500
Ni	Ni	0.76160 0.50409 0.50111 1.11700
Ni	Ni	0.66873 0.29763 0.46324 1.12500
O 	O 	0.61087 0.15599 0.47556 -0.36800
O 	O 	0.71110 0.41869 0.44069 -0.34800
C 	C 	0.55715 0.76736 0.06083 0.01400
C 	C 	0.62748 0.73267 0.09434 -0.02400
C 	C 	0.55543 0.61621 0.34116 -0.02000
C 	C 	0.58120 0.67717 0.38360 0.01000
Br	Br	0.55896 0.69129 0.90330 -0.18000
C 	C 	0.67651 0.40624 0.88170 0.32700
O 	O 	0.66191 0.46890 0.89350 -0.39000
O 	O 	0.70102 0.44265 0.94385 -0.70000
C 	C 	0.75013 0.41930 0.55303 0.33100
O 	O 	0.76685 0.49991 0.54034 -0.36900
O 	O 	0.70590 0.33345 0.54298 -0.39200
O 	O 	0.63105 0.17476 0.51734 -0.36100
O 	O 	0.73916 0.37285 0.49079 -0.70000
Br	Br	0.73302 0.12862 0.99883 -0.14300
O 	O 	0.66251 0.32363 0.89295 -0.36900
C 	C 	0.63180 0.69723 0.33347 0.00300
C 	C 	0.79674 0.42468 0.57490 -0.11800
Ni	Ni	0.73551 0.55324 0.92110 1.12000
O 	O 	0.80552 0.38373 0.92337 -0.34500
O 	O 	0.77543 0.56774 0.98476 -0.33800
H 	H 	0.75583 0.45927 0.95036 0.15700
Ni	Ni	0.75002 0.28744 0.51467 1.12100
O 	O 	0.88428 0.53424 0.50195 -0.34300
O 	O 	0.76050 0.27207 0.45048 -0.33900
H 	H 	0.79157 0.39617 0.48145 0.16200
C 	C 	0.61855 0.80028 0.10960 -0.00100
C 	C 	0.55399 0.84051 0.07545 -0.02900
C 	C 	0.63911 0.80673 0.13568 0.05400
C 	C 	0.66166 0.75102 0.37641 -0.02500
C 	C 	0.68675 0.76149 0.35134 -0.02400
C 	C 	0.64973 0.72071 0.30727 0.05300
Br	Br	0.63067 0.97011 0.51813 -0.17600
C 	C 	0.85696 0.29346 0.61504 -0.02700
C 	C 	0.87677 0.39287 0.61142 -0.00400
C 	C 	0.83554 0.41649 0.59193 0.05800
H 	H 	0.80430 0.23425 0.60557 0.05000
C 	C 	0.77341 0.48295 0.84205 0.05600
C 	C 	0.72644 0.44006 0.85930 -0.11800
H 	H 	0.75382 0.48476 0.79217 0.04600
C 	C 	0.58445 0.85678 0.09982 -0.02700
C 	C 	0.65636 0.81198 0.15750 -0.09700
H 	H 	0.52386 0.88083 0.06845 0.05800
C 	C 	0.66532 0.74100 0.28539 -0.09300
H 	H 	0.70216 0.80521 0.38982 0.06200
C 	C 	0.83647 0.54141 0.82360 -0.00700
C 	C 	0.81459 0.54064 0.79856 -0.02900
O 	O 	0.80336 0.65470 0.94733 -0.35500
C 	C 	0.90771 0.49155 0.51913 0.30900
C 	C 	0.90722 0.27039 0.62990 -0.02900
H 	H 	0.89227 0.19342 0.63213 0.05200
C 	C 	0.86888 0.61674 0.78217 -0.03400
H 	H 	0.84986 0.61860 0.76317 0.04800
C 	C 	0.84079 0.45748 0.90692 0.30600
O 	O 	0.87356 0.39228 0.52087 -0.36100
O 	O 	0.77955 0.21515 0.48859 -0.35200
C 	C 	0.94470 0.46881 0.62392 -0.02900
C 	C 	0.91552 0.61395 0.83159 -0.02800
H 	H 	0.95908 0.54548 0.62185 0.04600
C 	C 	0.82959 0.63054 0.96788 0.31400
O 	O 	0.83692 0.54138 0.90914 -0.36900
C 	C 	0.80705 0.25236 0.46591 0.31600
C 	C 	0.68527 0.76573 0.25943 0.30000
C 	C 	0.67800 0.81966 0.18340 0.31300
O 	O 	0.67204 0.83500 0.24925 -0.36700
O 	O 	0.67149 0.74135 0.19519 -0.37100
H 	H 	0.93263 0.61613 0.85096 0.05200
H 	H 	0.74694 0.82273 0.34565 0.04900
O 	O 	0.68324 0.89456 0.19614 -0.37300
H 	H 	0.57871 0.91056 0.11135 0.04700
H 	H 	0.88860 0.28179 0.79346 0.04900
C 	C 	0.94542 0.69313 0.79075 0.00500
C 	C 	0.96999 0.68903 0.81517 -0.03500
O 	O 	0.69751 0.70395 0.24535 -0.36700
C 	C 	0.95563 0.55181 0.53948 -0.07800
H 	H 	0.89894 0.67842 0.57948 0.05800
H 	H 	0.94129 0.79038 0.61557 0.04900
C 	C 	0.97777 0.34650 0.64127 -0.00000
C 	C 	0.99560 0.44575 0.63869 -0.03200
C 	C 	0.93029 0.32333 0.80841 -0.03000
H 	H 	0.83611 0.33803 0.82875 0.04900
C 	C 	0.95967 0.70367 0.58762 -0.03400
C 	C 	0.98354 0.76686 0.60807 -0.02900
C 	C 	0.98706 0.60636 0.55686 0.05700
C 	C 	0.88778 0.44810 0.88684 -0.08300
C 	C 	0.90082 0.35589 0.82827 -0.02800
H 	H 	0.02944 0.74706 0.82185 0.05300
O 	O 	0.14980 0.95203 0.73553 -0.36700
O 	O 	0.17618 0.32684 0.69787 -0.37600
C 	C 	0.01304 0.34324 0.80805 0.00300
C 	C 	0.99421 0.78099 0.77557 0.04200
Br	Br	0.92398 0.47741 0.44272 -0.17900
C 	C 	0.03157 0.32211 0.65551 0.05700
H 	H 	0.04919 0.50496 0.64782 0.04900
C 	C 	0.01359 0.67242 0.57778 0.00900
C 	C 	0.06155 0.79947 0.61883 -0.00100
Br	Br	0.88329 0.46424 0.98236 -0.17500
C 	C 	0.92077 0.43195 0.86943 0.05700
Ni	Ni	0.76020 0.95085 0.22677 1.10300
Ni	Ni	0.76846 0.74529 0.21368 1.12000
C 	C 	0.89409 0.28266 0.45907 -0.09900
Br	Br	0.84455 0.07282 0.46010 -0.13700
C 	C 	0.11574 0.76824 0.60906 -0.02900
C 	C 	0.09176 0.70474 0.58851 -0.03200
C 	C 	0.95408 0.40889 0.84780 0.00200
C 	C 	0.06690 0.39817 0.82730 -0.02700
C 	C 	0.04318 0.30873 0.78781 0.05300
H 	H 	0.13361 0.68054 0.58108 0.05900
O 	O 	0.07165 0.97737 0.69440 -0.38000
O 	O 	0.05962 0.19471 0.73353 -0.37600
O 	O 	0.05361 0.00481 0.74461 -0.36800
C 	C 	0.08571 0.86483 0.63990 0.05200
H 	H 	0.17615 0.79297 0.61736 0.04900
C 	C 	0.91972 0.66617 0.97062 -0.09900
C 	C 	0.03745 0.43103 0.84715 -0.02500
H 	H 	0.13126 0.41457 0.82699 0.05600
C 	C 	0.03566 0.85497 0.76308 -0.08500
Ni	Ni	0.07916 0.09418 0.71411 1.12300
C 	C 	0.07059 0.28104 0.77115 -0.09000
C 	C 	0.07451 0.29776 0.66722 -0.09800
C 	C 	0.10514 0.91955 0.65754 -0.09800
Br	Br	0.93953 0.86464 0.97287 -0.15900
H 	H 	0.07890 0.47182 0.86221 0.06500
O 	O 	0.10020 0.17039 0.68196 -0.38900
C 	C 	0.95268 0.38464 0.45760 0.09700
C 	C 	0.08379 0.94319 0.74816 0.29800
C 	C 	0.92273 0.21345 0.46158 0.10300
C 	C 	0.94918 0.59756 0.96937 0.09400
O 	O 	0.82378 0.88530 0.22182 -0.70700
H 	H 	0.83018 0.87642 0.23973 0.12200
C 	C 	0.10814 0.25378 0.75154 0.30800
O 	O 	0.82535 0.75546 0.18097 -0.38700
C 	C 	0.12936 0.98428 0.67861 0.31600
O 	O 	0.83175 0.07734 0.20547 -0.36800
O 	O 	0.83631 0.02943 0.25625 -0.35700
C 	C 	0.97749 0.76914 0.96913 0.10000
C 	C 	0.12222 0.26525 0.68170 0.32700
O 	O 	0.85144 0.71646 0.23086 -0.38200
