data_crystal

_cell_length_a 19.95107
_cell_length_b 21.28304
_cell_length_c 13.72022
_cell_angle_alpha 90.00001
_cell_angle_beta  90.00122
_cell_angle_gamma 90.00396

_symmetry_space_group_name_	'P 1'
_symmetry_space_group_name_H-M	'P 1'

loop_
_symmetry_equiv_pos_as_xyz
  x,y,z

loop_
_atom_site_label
_atom_site_type_symbol
_atom_site_fract_x
_atom_site_fract_y
_atom_site_fract_z
_atom_site_charge
Cu	Cu	0.15370 0.85251 0.36724 0.92700
Cu	Cu	0.23338 0.73648 0.26123 0.86400
Cu	Cu	0.19379 0.85543 0.15332 0.89400
Cu	Cu	0.15426 0.97822 0.24605 0.90100
C 	C 	0.15784 0.97291 0.46322 0.24900
O 	O 	0.05590 0.87272 0.34645 -0.33900
C 	C 	0.21858 0.73924 0.05172 0.18600
O 	O 	0.20912 0.90726 0.26736 -0.63700
O 	O 	0.15832 0.79596 0.25366 -0.64100
O 	O 	0.18549 0.79158 0.46594 -0.35600
O 	O 	0.27753 0.76240 0.37908 -0.40000
O 	O 	0.13410 0.99928 0.38335 -0.35300
O 	O 	0.22850 0.91405 0.05635 -0.36800
C 	C 	0.21174 0.97392 0.05119 0.26000
C 	C 	0.03264 0.89231 0.26243 0.19900
O 	O 	0.07333 0.91711 0.19752 -0.36400
O 	O 	0.20405 0.00767 0.13056 -0.40600
O 	O 	0.16536 0.91144 0.47018 -0.34600
C 	C 	0.24538 0.76664 0.46251 0.20900
O 	O 	0.18841 0.79423 0.04820 -0.35700
O 	O 	0.21622 0.70443 0.13135 -0.38200
H 	H 	0.25683 0.91620 0.28154 0.16300
H 	H 	0.11512 0.77650 0.23494 0.16900
Cu	Cu	0.33937 0.62691 0.86724 0.92600
Cu	Cu	0.25971 0.74295 0.76123 0.86400
Cu	Cu	0.29929 0.62399 0.65332 0.89300
Cu	Cu	0.33881 0.50120 0.74606 0.89300
C 	C 	0.33523 0.50651 0.96322 0.20700
O 	O 	0.43718 0.60670 0.84645 -0.33900
C 	C 	0.27450 0.74018 0.55172 0.19100
O 	O 	0.28396 0.57217 0.76736 -0.63900
O 	O 	0.33476 0.68346 0.75366 -0.64100
O 	O 	0.30759 0.68784 0.96594 -0.35700
O 	O 	0.21556 0.71703 0.87908 -0.40000
O 	O 	0.35897 0.48014 0.88336 -0.35400
O 	O 	0.26458 0.56538 0.55635 -0.35800
C 	C 	0.28133 0.50550 0.55119 0.20300
C 	C 	0.46044 0.58711 0.76243 0.19800
O 	O 	0.41974 0.56231 0.69752 -0.36700
O 	O 	0.28902 0.47175 0.63056 -0.37100
O 	O 	0.32772 0.56798 0.97018 -0.33800
C 	C 	0.24770 0.71279 0.96251 0.21300
O 	O 	0.30467 0.68519 0.54820 -0.35700
O 	O 	0.27687 0.77500 0.63135 -0.37900
H 	H 	0.23624 0.56322 0.78154 0.15900
H 	H 	0.37797 0.70292 0.73494 0.17000
Cu	Cu	0.33940 0.35250 0.14041 0.92500
Cu	Cu	0.25970 0.23647 0.24645 0.86200
Cu	Cu	0.29933 0.35543 0.35433 0.89200
Cu	Cu	0.33886 0.47822 0.26158 0.89300
C 	C 	0.33525 0.47288 0.04442 0.19800
O 	O 	0.43721 0.37270 0.16120 -0.34100
C 	C 	0.27450 0.23926 0.45596 0.19000
O 	O 	0.28400 0.40725 0.24028 -0.63900
O 	O 	0.33478 0.29595 0.25400 -0.64100
O 	O 	0.30760 0.29156 0.04172 -0.35900
O 	O 	0.21556 0.26239 0.12859 -0.40200
O 	O 	0.35901 0.49926 0.12427 -0.35300
O 	O 	0.26458 0.41405 0.45126 -0.35800
C 	C 	0.28136 0.47392 0.45643 0.20300
C 	C 	0.46048 0.39231 0.24520 0.19800
O 	O 	0.41978 0.41711 0.31011 -0.36700
O 	O 	0.28908 0.50767 0.37708 -0.37100
O 	O 	0.32775 0.41142 0.03746 -0.33900
C 	C 	0.24770 0.26662 0.04516 0.20500
O 	O 	0.30468 0.29425 0.45946 -0.35900
O 	O 	0.27687 0.20443 0.37633 -0.38500
H 	H 	0.23628 0.41619 0.22610 0.15900
H 	H 	0.37798 0.27649 0.27272 0.16800
Cu	Cu	0.15367 0.12693 0.64041 0.92400
Cu	Cu	0.23336 0.24296 0.74645 0.86300
Cu	Cu	0.19375 0.12399 0.85433 0.89100
Cu	Cu	0.15422 0.00120 0.76157 0.88000
C 	C 	0.15783 0.00654 0.54442 0.13700
O 	O 	0.05586 0.10671 0.66119 -0.34300
C 	C 	0.21857 0.24017 0.95595 0.19300
O 	O 	0.20908 0.07218 0.74028 -0.64200
O 	O 	0.15829 0.18347 0.75400 -0.64100
O 	O 	0.18547 0.18786 0.54172 -0.36000
O 	O 	0.27751 0.21704 0.62860 -0.40200
O 	O 	0.13407 0.98016 0.62426 -0.31500
O 	O 	0.22849 0.06537 0.95126 -0.34900
C 	C 	0.21172 0.00551 0.95643 0.14200
C 	C 	0.03260 0.08711 0.74520 0.19700
O 	O 	0.07329 0.06230 0.81011 -0.37200
O 	O 	0.20400 0.97175 0.87708 -0.33200
O 	O 	0.16532 0.06800 0.53746 -0.33000
C 	C 	0.24537 0.21281 0.54517 0.20700
O 	O 	0.18839 0.18518 0.95946 -0.36000
O 	O 	0.21620 0.27499 0.87633 -0.38200
H 	H 	0.25680 0.06323 0.72611 0.15500
H 	H 	0.11509 0.20293 0.77272 0.16900
Cu	Cu	0.65370 0.35252 0.36724 0.92500
Cu	Cu	0.73338 0.23648 0.26123 0.86200
Cu	Cu	0.69379 0.35543 0.15332 0.89200
Cu	Cu	0.65426 0.47822 0.24605 0.89300
C 	C 	0.65784 0.47291 0.46322 0.20300
O 	O 	0.55590 0.37272 0.34645 -0.34000
C 	C 	0.71858 0.23925 0.05171 0.18800
O 	O 	0.70912 0.40726 0.26736 -0.63900
O 	O 	0.65832 0.29596 0.25366 -0.64100
O 	O 	0.68549 0.29158 0.46594 -0.35900
O 	O 	0.77753 0.26240 0.37908 -0.40200
O 	O 	0.63410 0.49928 0.38335 -0.35300
O 	O 	0.72849 0.41405 0.05635 -0.35800
C 	C 	0.71174 0.47392 0.05119 0.19900
C 	C 	0.53264 0.39231 0.26243 0.19800
O 	O 	0.57333 0.41711 0.19752 -0.36700
O 	O 	0.70405 0.50767 0.13056 -0.37100
O 	O 	0.66536 0.41145 0.47018 -0.33900
C 	C 	0.74538 0.26664 0.46251 0.20800
O 	O 	0.68841 0.29424 0.04820 -0.35900
O 	O 	0.71622 0.20443 0.13134 -0.38500
H 	H 	0.75683 0.41621 0.28154 0.15900
H 	H 	0.61512 0.27650 0.23494 0.16800
Cu	Cu	0.83938 0.12691 0.86724 0.92400
Cu	Cu	0.75971 0.24295 0.76123 0.86300
Cu	Cu	0.79929 0.12399 0.65332 0.89100
Cu	Cu	0.83881 0.00120 0.74605 0.88000
C 	C 	0.83523 0.00651 0.96322 0.14000
O 	O 	0.93719 0.10670 0.84645 -0.34300
C 	C 	0.77450 0.24018 0.55172 0.19000
O 	O 	0.78396 0.07217 0.76736 -0.64200
O 	O 	0.83476 0.18346 0.75366 -0.64100
O 	O 	0.80759 0.18784 0.96594 -0.36000
O 	O 	0.71556 0.21703 0.87908 -0.40200
O 	O 	0.85897 0.98014 0.88336 -0.31400
O 	O 	0.76458 0.06538 0.55635 -0.34800
C 	C 	0.78133 0.00551 0.55119 0.14000
C 	C 	0.96044 0.08711 0.76243 0.19700
O 	O 	0.91974 0.06231 0.69752 -0.37300
O 	O 	0.78902 0.97175 0.63056 -0.33300
O 	O 	0.82772 0.06798 0.97018 -0.33100
C 	C 	0.74770 0.21279 0.96251 0.20900
O 	O 	0.80467 0.18519 0.54820 -0.36000
O 	O 	0.77687 0.27500 0.63135 -0.38200
H 	H 	0.73624 0.06322 0.78154 0.15500
H 	H 	0.87797 0.20292 0.73494 0.16900
Cu	Cu	0.83940 0.85250 0.14041 0.92600
Cu	Cu	0.75970 0.73647 0.24645 0.86300
Cu	Cu	0.79932 0.85544 0.35433 0.89400
Cu	Cu	0.83886 0.97822 0.26158 0.90100
C 	C 	0.83525 0.97288 0.04442 0.24400
O 	O 	0.93721 0.87270 0.16120 -0.33900
C 	C 	0.77450 0.73926 0.45596 0.19100
O 	O 	0.78400 0.90725 0.24028 -0.63700
O 	O 	0.83478 0.79595 0.25400 -0.64100
O 	O 	0.80760 0.79156 0.04173 -0.35700
O 	O 	0.71556 0.76239 0.12859 -0.39900
O 	O 	0.85901 0.99926 0.12427 -0.35300
O 	O 	0.76458 0.91405 0.45126 -0.36700
C 	C 	0.78136 0.97392 0.45643 0.26600
C 	C 	0.96048 0.89231 0.24520 0.19900
O 	O 	0.91978 0.91711 0.31011 -0.36300
O 	O 	0.78908 0.00767 0.37708 -0.40800
O 	O 	0.82775 0.91142 0.03746 -0.34700
C 	C 	0.74770 0.76662 0.04516 0.20400
O 	O 	0.80468 0.79425 0.45946 -0.35600
O 	O 	0.77686 0.70443 0.37633 -0.38200
H 	H 	0.73628 0.91619 0.22610 0.16300
H 	H 	0.87798 0.77649 0.27272 0.16900
Cu	Cu	0.65367 0.62693 0.64041 0.92600
Cu	Cu	0.73336 0.74296 0.74645 0.86400
Cu	Cu	0.69375 0.62399 0.85433 0.89300
Cu	Cu	0.65422 0.50121 0.76157 0.89300
C 	C 	0.65783 0.50654 0.54442 0.20300
O 	O 	0.55586 0.60671 0.66119 -0.33900
C 	C 	0.71857 0.74017 0.95595 0.19600
O 	O 	0.70908 0.57218 0.74028 -0.63900
O 	O 	0.65829 0.68347 0.75400 -0.64100
O 	O 	0.68547 0.68787 0.54172 -0.35700
O 	O 	0.77751 0.71704 0.62860 -0.40000
O 	O 	0.63407 0.48016 0.62427 -0.35300
O 	O 	0.72849 0.56538 0.95126 -0.35700
C 	C 	0.71172 0.50551 0.95643 0.20600
C 	C 	0.53260 0.58711 0.74520 0.19900
O 	O 	0.57329 0.56231 0.81011 -0.36600
O 	O 	0.70400 0.47175 0.87708 -0.37100
O 	O 	0.66532 0.56801 0.53746 -0.33800
C 	C 	0.74537 0.71281 0.54517 0.20800
O 	O 	0.68839 0.68518 0.95946 -0.35700
O 	O 	0.71620 0.77499 0.87633 -0.37900
H 	H 	0.75679 0.56324 0.72611 0.15900
H 	H 	0.61509 0.70293 0.77272 0.17000
