data_crystal

_cell_length_a 39.11880
_cell_length_b 40.30851
_cell_length_c 22.29960
_cell_angle_alpha 89.82534
_cell_angle_beta  89.99984
_cell_angle_gamma 90.00000

_symmetry_space_group_name_	'P 1'
_symmetry_space_group_name_H-M	'P 1'

loop_
_symmetry_equiv_pos_as_xyz
  x,y,z

loop_
_atom_site_label
_atom_site_type_symbol
_atom_site_fract_x
_atom_site_fract_y
_atom_site_fract_z
_atom_site_charge
C 	C 	0.48590 0.57280 0.90747 0.09900
N 	N 	0.46971 0.54396 0.91858 -0.17500
C 	C 	0.43739 0.54779 0.89906 0.10200
C 	C 	0.40917 0.52587 0.91867 -0.09200
C 	C 	0.41319 0.48947 0.91523 0.09100
C 	C 	0.37613 0.54018 0.93772 0.07500
C 	C 	0.37438 0.56025 0.98893 -0.14900
C 	C 	0.34293 0.57303 0.00778 0.05700
C 	C 	0.31308 0.56585 0.97546 -0.03100
C 	C 	0.34630 0.53321 0.90522 -0.08200
N 	N 	0.43788 0.47479 0.88253 -0.13000
C 	C 	0.39883 0.46744 0.95568 -0.06700
C 	C 	0.43860 0.44299 0.90138 0.08600
C 	C 	0.46680 0.41998 0.88674 -0.07600
C 	C 	0.46084 0.38379 0.88946 0.03700
C 	C 	0.42906 0.33529 0.85748 -0.03400
C 	C 	0.48000 0.36393 0.92881 -0.05600
C 	C 	0.47356 0.32987 0.93273 -0.04200
C 	C 	0.44796 0.31547 0.89726 0.02000
N 	N 	0.51591 0.45878 0.89213 -0.17400
C 	C 	0.54897 0.45728 0.87542 0.10000
C 	C 	0.55434 0.43057 0.83761 -0.06500
C 	C 	0.52302 0.41515 0.83111 -0.06200
C 	C 	0.57645 0.47492 0.90804 -0.08200
C 	C 	0.61095 0.46037 0.91250 0.04100
C 	C 	0.67079 0.46116 0.88418 -0.03100
C 	C 	0.67809 0.43789 0.92926 0.01200
C 	C 	0.65150 0.42507 0.96464 -0.03800
C 	C 	0.61798 0.43619 0.95610 -0.05900
N 	N 	0.54836 0.53001 0.90294 -0.13100
C 	C 	0.56606 0.55136 0.99097 -0.08900
C 	C 	0.54590 0.55591 0.94072 0.09600
C 	C 	0.51913 0.58152 0.93529 -0.08400
C 	C 	0.52756 0.61650 0.94924 0.04500
C 	C 	0.55718 0.63103 0.92521 -0.05400
C 	C 	0.56424 0.66447 0.93549 -0.03800
C 	C 	0.54130 0.68399 0.96848 0.03100
C 	C 	0.51239 0.66920 0.99457 -0.06900
C 	C 	0.50577 0.63547 0.98558 -0.07800
C 	C 	0.46393 0.59523 0.88024 -0.06500
C 	C 	0.43281 0.57924 0.87506 -0.06600
C 	C 	0.31492 0.54608 0.92391 -0.01500
C 	C 	0.41515 0.43759 0.94677 -0.06200
C 	C 	0.50002 0.43314 0.86538 0.09900
C 	C 	0.58216 0.52127 0.98333 -0.08800
C 	C 	0.57090 0.50918 0.92886 0.09600
C 	C 	0.63735 0.47241 0.87591 -0.05600
H 	H 	0.47722 0.52683 0.95130 0.08800
H 	H 	0.50727 0.47024 0.93130 0.09000
H 	H 	0.58698 0.67552 0.91615 0.04600
H 	H 	0.49465 0.68400 0.02049 0.06200
H 	H 	0.57436 0.61656 0.89758 0.04700
H 	H 	0.48326 0.62430 0.00549 0.06700
H 	H 	0.34175 0.58842 0.04748 0.02900
H 	H 	0.34745 0.51783 0.86552 0.05100
H 	H 	0.29198 0.54048 0.89867 0.03000
H 	H 	0.39731 0.56575 0.01427 0.08600
H 	H 	0.48829 0.31472 0.96352 0.03500
H 	H 	0.49963 0.37493 0.95666 0.04000
C 	C 	0.43550 0.36931 0.85355 -0.05200
H 	H 	0.40917 0.32437 0.83008 0.04700
H 	H 	0.69118 0.47117 0.85666 0.04200
H 	H 	0.63205 0.49098 0.84194 0.04700
H 	H 	0.59767 0.42669 0.98437 0.03900
H 	H 	0.65692 0.40701 0.99944 0.03400
H 	H 	0.46731 0.62187 0.87922 0.04600
H 	H 	0.40844 0.59173 0.87059 0.04600
H 	H 	0.38620 0.47449 0.99691 0.04300
H 	H 	0.41701 0.41807 0.98008 0.04300
H 	H 	0.57873 0.41855 0.83040 0.04900
H 	H 	0.51977 0.38950 0.81805 0.04900
H 	H 	0.56177 0.56312 0.03389 0.07100
H 	H 	0.59230 0.50619 0.01943 0.07200
H 	H 	0.42070 0.38445 0.82286 0.04700
Co	Co	0.37628 0.12334 0.94638 1.17600
Co	Co	0.37700 0.04571 0.96708 1.08700
O 	O 	0.37421 0.17341 0.93758 -0.37600
O 	O 	0.42076 0.15396 0.90258 -0.32900
O 	O 	0.33225 0.11097 0.98340 -0.43300
O 	O 	0.40392 0.06020 0.89618 -0.48900
C 	C 	0.31424 0.08571 0.96370 0.33900
C 	C 	0.40266 0.18020 0.91145 0.30800
O 	O 	0.32960 0.06022 0.93888 -0.43900
O 	O 	0.37018 0.10332 0.86853 -0.42800
C 	C 	0.38948 0.07804 0.85390 0.32600
O 	O 	0.40518 0.11864 0.01616 -0.41600
O 	O 	0.37919 0.07038 0.04367 -0.44300
C 	C 	0.40240 0.09328 0.05303 0.31000
C 	C 	0.48518 0.01707 0.49063 0.01000
C 	C 	0.51046 0.99174 0.49151 0.01000
C 	C 	0.48687 0.04243 0.44740 -0.05500
C 	C 	0.51235 0.04176 0.40289 0.01000
C 	C 	0.53733 0.99244 0.44976 -0.05500
C 	C 	0.53787 0.01667 0.40425 0.00900
H 	H 	0.55708 0.97362 0.45146 0.05000
H 	H 	0.46784 0.06196 0.44721 0.04900
C 	C 	0.56258 0.01573 0.35803 -0.01300
C 	C 	0.56038 0.03705 0.30818 0.00700
C 	C 	0.57567 0.02353 0.25547 -0.05500
C 	C 	0.58929 0.99173 0.26394 0.01100
S 	S 	0.58198 0.98117 0.33513 -0.01000
H 	H 	0.57226 0.03406 0.21127 0.04300
C 	C 	0.51253 0.06507 0.35548 -0.01300
C 	C 	0.53548 0.06225 0.30734 0.00800
C 	C 	0.52342 0.07788 0.25388 -0.05600
C 	C 	0.49069 0.09162 0.25962 0.01100
S 	S 	0.47781 0.08443 0.32970 -0.01000
H 	H 	0.53601 0.07570 0.21092 0.04500
C 	C 	0.45464 0.98877 0.57238 0.00700
C 	C 	0.45725 0.01474 0.53055 -0.01300
S 	S 	0.43580 0.04708 0.55800 -0.00800
C 	C 	0.42081 0.02922 0.62029 0.00400
C 	C 	0.43377 0.99687 0.62258 -0.05200
C 	C 	0.50651 0.96488 0.53160 -0.01300
C 	C 	0.47940 0.96353 0.57263 0.00600
C 	C 	0.48612 0.94230 0.62240 -0.05600
C 	C 	0.51853 0.92767 0.62026 0.00100
S 	S 	0.53838 0.94195 0.55916 -0.01300
H 	H 	0.46988 0.94064 0.66153 0.03900
H 	H 	0.43193 0.98165 0.66246 0.03900
Co	Co	0.60975 0.88171 0.95433 1.17400
Co	Co	0.53027 0.88721 0.96918 1.08000
O 	O 	0.66119 0.87804 0.94302 -0.39100
O 	O 	0.64623 0.92733 0.96456 -0.33600
O 	O 	0.59155 0.83651 0.94331 -0.41900
O 	O 	0.55596 0.91956 0.01885 -0.46900
C 	C 	0.56763 0.82432 0.97857 0.29900
C 	C 	0.67140 0.90800 0.95180 0.33000
O 	O 	0.54716 0.84431 0.00808 -0.40800
O 	O 	0.60127 0.88654 0.03890 -0.42300
C 	C 	0.57947 0.90912 0.05631 0.32100
O 	O 	0.59536 0.90062 0.87867 -0.42700
O 	O 	0.54255 0.87680 0.88510 -0.47300
C 	C 	0.56536 0.89398 0.85496 0.31300
Co	Co	0.11339 0.62108 0.00738 1.19200
Co	Co	0.03533 0.60382 0.99376 1.08100
O 	O 	0.16284 0.63475 0.02013 -0.36100
O 	O 	0.15540 0.58350 0.03859 -0.31800
O 	O 	0.08958 0.66130 0.97884 -0.44900
O 	O 	0.05721 0.61134 0.91440 -0.46800
C 	C 	0.06176 0.67216 0.00552 0.35100
C 	C 	0.17722 0.60744 0.03637 0.29800
O 	O 	0.03870 0.65118 0.02574 -0.42700
O 	O 	0.11148 0.59470 0.93530 -0.44300
C 	C 	0.08517 0.59552 0.89889 0.31700
O 	O 	0.09552 0.62003 0.08762 -0.43400
O 	O 	0.05870 0.57965 0.05955 -0.47700
C 	C 	0.07426 0.59626 0.10207 0.32000
C 	C 	0.03705 0.48508 0.55194 0.01100
C 	C 	0.01406 0.45779 0.55252 0.01000
C 	C 	0.03426 0.50954 0.50713 -0.05500
C 	C 	0.00790 0.50785 0.46450 0.01000
C 	C 	0.98858 0.45537 0.50824 -0.05500
C 	C 	0.98483 0.48060 0.46513 0.00900
H 	H 	0.97133 0.43434 0.50813 0.04900
H 	H 	0.05209 0.53010 0.50618 0.05000
C 	C 	0.95735 0.48042 0.42407 -0.01300
C 	C 	0.95377 0.50525 0.38025 0.00500
C 	C 	0.93386 0.49497 0.33019 -0.05700
C 	C 	0.92274 0.46209 0.33478 0.00300
S 	S 	0.93787 0.44637 0.39876 -0.01400
H 	H 	0.93109 0.50935 0.28947 0.03900
C 	C 	0.00274 0.53368 0.42256 -0.01300
C 	C 	0.97684 0.53193 0.37916 0.00600
C 	C 	0.98363 0.55183 0.32760 -0.05500
C 	C 	0.01478 0.56881 0.33095 0.01000
S 	S 	0.03353 0.55809 0.39538 -0.01000
H 	H 	0.96906 0.55032 0.28651 0.04000
C 	C 	0.06300 0.46480 0.64537 0.00700
C 	C 	0.06205 0.48739 0.59735 -0.01300
S 	S 	0.07859 0.52298 0.62178 -0.00600
C 	C 	0.08921 0.51121 0.69098 0.00400
C 	C 	0.07925 0.47800 0.69736 -0.05100
C 	C 	0.01666 0.43399 0.59896 -0.01300
C 	C 	0.03954 0.43834 0.64692 0.00700
C 	C 	0.02846 0.42250 0.70090 -0.05600
C 	C 	0.99696 0.40631 0.69528 0.00100
S 	S 	0.98368 0.41204 0.62497 -0.01400
H 	H 	0.04025 0.42662 0.74407 0.04000
H 	H 	0.08033 0.46519 0.73996 0.04000
Co	Co	0.87937 0.37383 0.99945 1.17100
Co	Co	0.88455 0.45153 0.99300 1.08600
O 	O 	0.87529 0.32369 0.99399 -0.38300
O 	O 	0.92739 0.33915 0.99583 -0.31000
O 	O 	0.83204 0.39060 0.00441 -0.37800
O 	O 	0.86951 0.43636 0.07368 -0.44600
C 	C 	0.82101 0.41465 0.96940 0.29900
C 	C 	0.90672 0.31436 0.99180 0.26900
O 	O 	0.84249 0.43625 0.94633 -0.43100
O 	O 	0.89474 0.38545 0.07915 -0.41700
C 	C 	0.88655 0.41384 0.10402 0.31300
O 	O 	0.88880 0.38516 0.91733 -0.43700
O 	O 	0.92094 0.42887 0.94691 -0.48800
C 	C 	0.91275 0.40694 0.90604 0.33000
C 	C 	0.98217 0.92532 0.09251 0.10500
N 	N 	0.96676 0.95444 0.08017 -0.17200
C 	C 	0.93461 0.95204 0.10135 0.09700
C 	C 	0.90678 0.97425 0.08111 -0.05900
C 	C 	0.91141 0.01067 0.08281 0.08400
C 	C 	0.87354 0.96024 0.06273 0.00200
C 	C 	0.86972 0.94636 0.00555 0.04000
C 	C 	0.83748 0.93607 0.98589 -0.12900
C 	C 	0.80900 0.93914 0.02369 0.07000
C 	C 	0.84516 0.96283 0.10085 -0.02600
N 	N 	0.93924 0.02522 0.10682 -0.12700
C 	C 	0.89335 0.03273 0.04725 -0.05800
C 	C 	0.93848 0.05691 0.08733 0.08900
C 	C 	0.96844 0.07924 0.09091 -0.07000
C 	C 	0.96438 0.11484 0.07717 0.03100
C 	C 	0.94424 0.16938 0.10606 -0.03400
C 	C 	0.97123 0.12671 0.01926 -0.02600
C 	C 	0.96361 0.15957 0.00422 -0.01900
C 	C 	0.94945 0.18087 0.04727 0.02500
N 	N 	0.01621 0.03898 0.08681 -0.17100
C 	C 	0.04980 0.04034 0.09974 0.09800
C 	C 	0.05714 0.06861 0.13250 -0.06000
C 	C 	0.02652 0.08522 0.13956 -0.06300
C 	C 	0.07563 0.02048 0.06710 -0.05900
C 	C 	0.10975 0.03446 0.05381 0.03200
C 	C 	0.17148 0.03139 0.06243 -0.02200
C 	C 	0.17475 0.05899 0.02441 -0.00100
C 	C 	0.14537 0.07448 0.00150 -0.00600
C 	C 	0.11296 0.06219 0.01603 -0.03100
N 	N 	0.04578 0.96693 0.08390 -0.13100
C 	C 	0.06070 0.94033 0.99902 -0.15500
C 	C 	0.04142 0.93932 0.05090 0.13400
C 	C 	0.01436 0.91474 0.06308 -0.08400
C 	C 	0.02166 0.87915 0.05365 0.04300
C 	C 	0.04952 0.86423 0.08275 -0.05400
C 	C 	0.05674 0.83071 0.07353 -0.02900
C 	C 	0.03607 0.81175 0.03535 0.00500
C 	C 	0.00823 0.82665 0.00607 0.00000
C 	C 	0.00119 0.86031 0.01489 -0.03500
C 	C 	0.95981 0.90413 0.12191 -0.06400
C 	C 	0.92934 0.92120 0.12742 -0.06000
C 	C 	0.81302 0.95222 0.08146 -0.05800
C 	C 	0.91070 0.06238 0.05015 -0.05900
C 	C 	0.00193 0.06625 0.11091 0.10100
C 	C 	0.07817 0.96998 0.00042 0.02800
C 	C 	0.06862 0.98535 0.05318 0.06000
C 	C 	0.13912 0.01928 0.07728 -0.05300
H 	H 	0.97421 0.97050 0.04568 0.09600
H 	H 	0.00597 0.02601 0.05048 0.09600
H 	H 	0.07835 0.81943 0.09614 0.03900
H 	H 	0.99203 0.81216 0.97673 0.02000
H 	H 	0.06550 0.87861 0.11267 0.04800
H 	H 	0.97977 0.87169 0.99192 0.02100
H 	H 	0.83456 0.92605 0.94115 0.05600
H 	H 	0.84795 0.97351 0.14511 0.04000
H 	H 	0.79113 0.95467 0.11089 0.05200
H 	H 	0.89154 0.94429 0.97588 0.00200
H 	H 	0.96784 0.16824 0.95879 0.01600
H 	H 	0.98142 0.11019 0.98544 0.01600
C 	C 	0.95135 0.13638 0.12076 -0.04800
H 	H 	0.93385 0.18578 0.13986 0.05100
H 	H 	0.19403 0.01916 0.08004 0.04400
H 	H 	0.13686 0.99792 0.10664 0.04800
H 	H 	0.09041 0.07402 0.99758 0.01800
H 	H 	0.14767 0.09585 0.97220 0.01300
H 	H 	0.96215 0.87739 0.12369 0.05000
H 	H 	0.90463 0.90955 0.13336 0.05000
H 	H 	0.87654 0.02570 0.01089 0.05100
H 	H 	0.90922 0.08166 0.01636 0.05200
H 	H 	0.08206 0.08016 0.13553 0.05000
H 	H 	0.02440 0.11154 0.14838 0.05000
H 	H 	0.05513 0.92645 0.95870 0.06200
H 	H 	0.08811 0.98266 0.96127 0.00500
H 	H 	0.94623 0.12740 0.16571 0.04600
C 	C 	0.93819 0.21452 0.02992 -0.03000
C 	C 	0.90339 0.22334 0.03341 0.12500
C 	C 	0.89338 0.25605 0.02143 -0.06100
C 	C 	0.91746 0.27963 0.00217 -0.03600
C 	C 	0.95175 0.26985 0.99310 0.08400
C 	C 	0.96216 0.23776 0.00934 -0.04500
H 	H 	0.86685 0.26305 0.02737 0.07700
H 	H 	0.98886 0.23092 0.00551 0.05900
O 	O 	0.87944 0.20059 0.05317 -0.20700
O 	O 	0.97564 0.29225 0.97190 -0.18500
C 	C 	0.86545 0.18443 0.00282 0.04900
H 	H 	0.85171 0.20219 0.97299 0.00400
H 	H 	0.84648 0.16595 0.01875 0.03500
H 	H 	0.88533 0.17067 0.97723 0.00200
C 	C 	0.97765 0.28908 0.90901 -0.02600
H 	H 	0.98639 0.26385 0.89572 0.03100
H 	H 	0.99686 0.30702 0.89201 0.04400
H 	H 	0.95283 0.29517 0.88709 0.03900
C 	C 	0.93224 0.40517 0.84999 -0.11600
C 	C 	0.92730 0.42910 0.80488 0.10400
C 	C 	0.94755 0.42830 0.75295 -0.09200
C 	C 	0.97290 0.40394 0.74604 0.00400
C 	C 	0.97694 0.37918 0.79065 0.03400
C 	C 	0.95661 0.38009 0.84233 -0.01000
H 	H 	0.94414 0.44720 0.71879 0.05300
H 	H 	0.96011 0.36146 0.87692 0.04600
N 	N 	0.90104 0.45385 0.81138 -0.15200
N 	N 	0.00138 0.35275 0.78366 -0.13800
C 	C 	0.91577 0.48608 0.82677 -0.08700
H 	H 	0.93304 0.48393 0.86622 0.02300
H 	H 	0.89485 0.50348 0.83856 0.02300
H 	H 	0.93004 0.49663 0.78805 0.03700
C 	C 	0.98778 0.32650 0.74529 -0.09200
H 	H 	0.96355 0.31653 0.76417 0.05000
H 	H 	0.00651 0.30585 0.74316 0.04600
H 	H 	0.98330 0.33583 0.69898 0.05000
H 	H 	0.88660 0.45571 0.77199 0.07800
H 	H 	0.02494 0.36136 0.76787 0.07600
C 	C 	0.89588 0.42020 0.16676 -0.11300
C 	C 	0.87049 0.42625 0.21009 0.10700
C 	C 	0.88000 0.43638 0.26797 -0.09200
C 	C 	0.91445 0.44176 0.28202 0.00300
C 	C 	0.94004 0.43286 0.23997 0.03600
C 	C 	0.93045 0.42232 0.18259 -0.01700
H 	H 	0.86044 0.44174 0.30097 0.05400
H 	H 	0.95002 0.41653 0.14982 0.04000
N 	N 	0.83498 0.42153 0.19545 -0.13700
N 	N 	0.97582 0.43365 0.25542 -0.13700
C 	C 	0.81726 0.45339 0.19023 -0.08800
H 	H 	0.81534 0.46574 0.23462 0.04400
H 	H 	0.79098 0.44908 0.17319 0.06400
H 	H 	0.83069 0.47003 0.15813 0.05700
C 	C 	0.98659 0.40220 0.28231 -0.09300
H 	H 	0.97128 0.39628 0.32290 0.05300
H 	H 	0.01390 0.40391 0.29551 0.05100
H 	H 	0.98400 0.38176 0.24928 0.05700
H 	H 	0.82318 0.40666 0.22796 0.08200
H 	H 	0.98238 0.45375 0.28257 0.08000
C 	C 	0.05661 0.70800 0.01366 -0.10700
C 	C 	0.04827 0.72081 0.07054 0.16800
C 	C 	0.04024 0.75449 0.07663 -0.11300
C 	C 	0.04309 0.77605 0.02745 0.02500
C 	C 	0.05384 0.76368 0.97147 0.06800
C 	C 	0.05960 0.72956 0.96445 -0.04800
H 	H 	0.03236 0.76395 0.11993 0.06700
H 	H 	0.06626 0.71990 0.92068 0.05400
O 	O 	0.04625 0.70004 0.11984 -0.20600
O 	O 	0.05623 0.78457 0.92239 -0.19500
C 	C 	0.07820 0.70019 0.14922 -0.02000
H 	H 	0.09885 0.69041 0.11980 0.04500
H 	H 	0.07662 0.68364 0.18895 0.04400
H 	H 	0.08487 0.72541 0.16581 0.03600
C 	C 	0.09023 0.79596 0.91796 -0.02300
H 	H 	0.09803 0.81017 0.95847 0.02900
H 	H 	0.09202 0.81309 0.87907 0.03700
H 	H 	0.10831 0.77512 0.90967 0.03400
C 	C 	0.08780 0.53451 0.74159 0.01100
C 	C 	0.05644 0.54168 0.76978 0.03100
C 	C 	0.05572 0.56293 0.81949 -0.01600
C 	C 	0.08610 0.57657 0.84215 -0.12000
C 	C 	0.11737 0.57038 0.81232 0.10900
C 	C 	0.11788 0.54953 0.76187 -0.09600
H 	H 	0.03155 0.56816 0.84127 0.01300
H 	H 	0.14177 0.54497 0.73869 0.05400
N 	N 	0.02512 0.52807 0.74651 -0.13400
N 	N 	0.14823 0.58677 0.83130 -0.13700
C 	C 	0.01126 0.50250 0.78643 -0.08700
H 	H 	0.03142 0.48475 0.80087 0.04400
H 	H 	0.99147 0.48826 0.76194 0.04700
H 	H 	0.99930 0.51393 0.82661 0.02700
C 	C 	0.17183 0.56337 0.85991 -0.09000
H 	H 	0.15908 0.54991 0.89732 0.06000
H 	H 	0.19379 0.57727 0.87881 0.05900
H 	H 	0.18182 0.54523 0.82679 0.04300
H 	H 	0.00713 0.54692 0.73964 0.07200
H 	H 	0.16005 0.59839 0.79474 0.07900
C 	C 	0.06386 0.59161 0.16475 -0.12000
C 	C 	0.07311 0.56264 0.19678 0.10500
C 	C 	0.05790 0.55601 0.25239 -0.09000
C 	C 	0.03419 0.57826 0.27704 0.00600
C 	C 	0.02666 0.60808 0.24691 0.03600
C 	C 	0.04160 0.61462 0.19087 -0.02100
H 	H 	0.06401 0.53317 0.27584 0.05900
H 	H 	0.03477 0.63698 0.16664 0.04500
N 	N 	0.09824 0.53993 0.17355 -0.14700
N 	N 	0.00414 0.63201 0.27389 -0.13500
C 	C 	0.13291 0.55206 0.18477 -0.09200
H 	H 	0.13735 0.57626 0.16205 0.06200
H 	H 	0.15166 0.53388 0.16709 0.05500
H 	H 	0.13740 0.55473 0.23374 0.05300
C 	C 	0.97083 0.63233 0.24401 -0.09000
H 	H 	0.97317 0.64170 0.19723 0.04300
H 	H 	0.95329 0.64901 0.26884 0.04800
H 	H 	0.95936 0.60712 0.24373 0.04500
H 	H 	0.09445 0.53502 0.12801 0.08700
H 	H 	0.01520 0.65565 0.27235 0.07900
C 	C 	0.77470 0.93015 0.00187 0.01400
C 	C 	0.76031 0.89918 0.01656 0.08800
C 	C 	0.72635 0.89230 0.00079 0.01500
C 	C 	0.70685 0.91583 0.96925 -0.16100
C 	C 	0.72128 0.94692 0.95490 0.17800
C 	C 	0.75554 0.95339 0.96928 -0.14000
H 	H 	0.71511 0.86876 0.01365 0.05400
H 	H 	0.76686 0.97696 0.95677 0.06500
O 	O 	0.77841 0.87675 0.05118 -0.19900
O 	O 	0.70269 0.97002 0.92258 -0.20000
C 	C 	0.79468 0.85398 0.01271 0.04600
H 	H 	0.77570 0.83898 0.98730 0.00500
H 	H 	0.80993 0.83653 0.04046 0.03400
H 	H 	0.81270 0.86655 0.98139 0.00500
C 	C 	0.68993 0.99408 0.96263 -0.05100
H 	H 	0.67510 0.98280 0.00013 0.07100
H 	H 	0.67228 0.01066 0.93768 0.04500
H 	H 	0.71097 0.00974 0.98064 0.03200
C 	C 	0.55913 0.90145 0.79125 -0.11400
C 	C 	0.56335 0.93393 0.76899 0.10200
C 	C 	0.55254 0.94167 0.71052 -0.09100
C 	C 	0.53687 0.91746 0.67480 0.00400
C 	C 	0.53461 0.88443 0.69590 0.03400
C 	C 	0.54580 0.87669 0.75387 -0.01200
H 	H 	0.55469 0.96694 0.69415 0.05400
H 	H 	0.54335 0.85147 0.77038 0.04500
N 	N 	0.57733 0.95944 0.80682 -0.14300
N 	N 	0.52044 0.85855 0.65907 -0.13700
C 	C 	0.55005 0.97980 0.83244 -0.08200
H 	H 	0.53592 0.99334 0.79666 0.03700
H 	H 	0.56143 0.99830 0.86335 0.03900
H 	H 	0.53199 0.96417 0.85869 0.02100
C 	C 	0.54568 0.84645 0.61596 -0.09200
H 	H 	0.55308 0.86632 0.58382 0.05100
H 	H 	0.53451 0.82557 0.59020 0.04800
H 	H 	0.56879 0.83711 0.63963 0.05300
H 	H 	0.59444 0.97429 0.78261 0.08100
H 	H 	0.49797 0.86609 0.63755 0.07500
C 	C 	0.58430 0.92604 0.11392 -0.11200
C 	C 	0.55860 0.92503 0.15847 0.09900
C 	C 	0.56098 0.94594 0.20825 -0.08700
C 	C 	0.58924 0.96704 0.21534 0.00600
C 	C 	0.61599 0.96635 0.17314 0.03800
C 	C 	0.61352 0.94555 0.12284 -0.01300
H 	H 	0.54050 0.94615 0.24101 0.05700
H 	H 	0.63390 0.94536 0.08989 0.04900
N 	N 	0.53026 0.90232 0.15427 -0.14500
N 	N 	0.64606 0.98630 0.18222 -0.13500
C 	C 	0.54051 0.86866 0.17130 -0.09900
H 	H 	0.55977 0.85861 0.13953 0.06500
H 	H 	0.51776 0.85221 0.17044 0.05100
H 	H 	0.55109 0.86837 0.21758 0.05500
C 	C 	0.64652 0.01473 0.14125 -0.09200
H 	H 	0.64879 0.00646 0.09392 0.04900
H 	H 	0.66887 0.03063 0.15185 0.05100
H 	H 	0.62305 0.02995 0.14658 0.05200
H 	H 	0.51897 0.90273 0.11178 0.05400
H 	H 	0.66807 0.97190 0.17640 0.08000
C 	C 	0.27747 0.08388 0.97703 -0.17400
C 	C 	0.25398 0.07487 0.93207 0.19100
C 	C 	0.22011 0.06746 0.94758 -0.15700
C 	C 	0.20902 0.07091 0.00703 0.04100
C 	C 	0.23160 0.08350 0.05064 0.06700
C 	C 	0.26592 0.08916 0.03578 0.02200
H 	H 	0.20267 0.05841 0.91359 0.07000
H 	H 	0.28373 0.09672 0.07037 0.04800
O 	O 	0.26470 0.07092 0.87352 -0.21500
O 	O 	0.22091 0.08730 0.10927 -0.18600
C 	C 	0.26021 0.10130 0.84302 -0.01500
H 	H 	0.23288 0.10908 0.84253 0.03100
H 	H 	0.26819 0.09798 0.79570 0.04000
H 	H 	0.27656 0.12117 0.86247 0.04000
C 	C 	0.20893 0.12004 0.11649 -0.02700
H 	H 	0.22965 0.13851 0.10864 0.04400
H 	H 	0.20016 0.12306 0.16346 0.04400
H 	H 	0.18663 0.12526 0.08686 0.04300
C 	C 	0.39720 0.07118 0.79058 -0.11600
C 	C 	0.37078 0.06322 0.75017 0.10500
C 	C 	0.37893 0.05259 0.69190 -0.09500
C 	C 	0.41307 0.04812 0.67493 0.00900
C 	C 	0.43949 0.05719 0.71456 0.03200
C 	C 	0.43138 0.06892 0.77207 -0.01300
H 	H 	0.35861 0.04579 0.66126 0.05200
H 	H 	0.45175 0.07512 0.80305 0.03600
N 	N 	0.33572 0.06363 0.76974 -0.13900
N 	N 	0.47465 0.05266 0.69740 -0.13400
C 	C 	0.32435 0.03007 0.78517 -0.08400
H 	H 	0.32639 0.01320 0.74594 0.03800
H 	H 	0.29717 0.03078 0.79925 0.05800
H 	H 	0.33966 0.02004 0.82311 0.03400
C 	C 	0.49027 0.08436 0.68086 -0.09200
H 	H 	0.47556 0.09655 0.64425 0.05500
H 	H 	0.51662 0.07985 0.66429 0.04900
H 	H 	0.49170 0.10116 0.72025 0.04700
H 	H 	0.32005 0.07370 0.73628 0.07800
H 	H 	0.48845 0.04134 0.73210 0.07000
C 	C 	0.46643 0.09195 0.20916 0.00700
C 	C 	0.45176 0.12188 0.18945 0.03700
C 	C 	0.43020 0.12199 0.13900 -0.01200
C 	C 	0.42306 0.09238 0.10843 -0.10800
C 	C 	0.43711 0.06225 0.12929 0.09800
C 	C 	0.45871 0.06224 0.17953 -0.09000
H 	H 	0.41915 0.14513 0.12359 0.04400
H 	H 	0.46996 0.03914 0.19488 0.05300
N 	N 	0.45954 0.15242 0.21980 -0.13400
N 	N 	0.43085 0.03185 0.09738 -0.16000
C 	C 	0.43115 0.16237 0.25850 -0.09300
H 	H 	0.40803 0.16824 0.23147 0.04900
H 	H 	0.43856 0.18490 0.28387 0.05100
H 	H 	0.42512 0.14246 0.29146 0.05500
C 	C 	0.40696 0.01067 0.13043 -0.09500
H 	H 	0.41849 0.00193 0.17324 0.04500
H 	H 	0.40066 0.98865 0.10277 0.02300
H 	H 	0.38277 0.02417 0.13987 0.05100
H 	H 	0.46498 0.17118 0.18868 0.07700
H 	H 	0.45384 0.01925 0.08979 0.06300
C 	C 	0.43989 0.27990 0.90360 -0.01600
C 	C 	0.44717 0.25764 0.85671 0.09900
C 	C 	0.43531 0.22485 0.86003 -0.03500
C 	C 	0.41745 0.21379 0.91080 -0.10900
C 	C 	0.41293 0.23531 0.95997 0.13300
C 	C 	0.42333 0.26848 0.95541 -0.09400
H 	H 	0.43938 0.20827 0.82253 0.05400
H 	H 	0.41810 0.28543 0.99193 0.05600
O 	O 	0.46318 0.26871 0.80517 -0.19300
O 	O 	0.39605 0.22461 0.01092 -0.16700
C 	C 	0.49864 0.26349 0.81145 -0.02300
H 	H 	0.50931 0.27763 0.84998 0.03600
H 	H 	0.51154 0.27268 0.77034 0.04100
H 	H 	0.50477 0.23660 0.81589 0.03600
C 	C 	0.42051 0.21277 0.05223 -0.03100
H 	H 	0.43447 0.19085 0.03434 0.05600
H 	H 	0.40698 0.20466 0.09345 0.04700
H 	H 	0.43880 0.23261 0.06555 0.04400
C 	C 	0.27984 0.57911 0.99531 -0.03600
C 	C 	0.26295 0.56523 0.04521 0.12900
C 	C 	0.23045 0.57683 0.06144 -0.05100
C 	C 	0.21396 0.60107 0.02666 -0.07500
C 	C 	0.23159 0.61604 0.97832 0.11900
C 	C 	0.26405 0.60438 0.96211 -0.08900
H 	H 	0.21752 0.56601 0.09980 0.05600
H 	H 	0.27682 0.61482 0.92327 0.05700
O 	O 	0.27911 0.54170 0.08041 -0.19500
O 	O 	0.21571 0.63967 0.94297 -0.19100
C 	C 	0.26894 0.50992 0.06098 -0.02500
H 	H 	0.24105 0.50594 0.06793 0.04200
H 	H 	0.28262 0.49109 0.08827 0.04700
H 	H 	0.27591 0.50553 0.01325 0.04800
C 	C 	0.22612 0.67134 0.96258 -0.05500
H 	H 	0.21985 0.67546 0.01073 0.07100
H 	H 	0.21207 0.69033 0.93623 0.04600
H 	H 	0.25391 0.67533 0.95449 0.03600
C 	C 	0.78418 0.41935 0.96077 -0.11500
C 	C 	0.76557 0.43996 0.99977 0.15000
C 	C 	0.73026 0.44382 0.99175 -0.13500
C 	C 	0.71385 0.42917 0.94266 -0.00100
C 	C 	0.73239 0.40828 0.90394 0.09200
C 	C 	0.76759 0.40380 0.91277 -0.02900
H 	H 	0.71590 0.45933 0.02236 0.08900
H 	H 	0.78199 0.38837 0.88208 0.05000
O 	O 	0.78154 0.45474 0.04810 -0.19800
O 	O 	0.71670 0.39447 0.85443 -0.19200
C 	C 	0.79026 0.48756 0.03208 0.01800
H 	H 	0.80760 0.48836 0.99252 -0.01100
H 	H 	0.80414 0.49903 0.07007 0.01900
H 	H 	0.76704 0.50285 0.02368 0.03200
C 	C 	0.70479 0.36260 0.87021 -0.02300
H 	H 	0.72629 0.34579 0.88248 0.03600
H 	H 	0.69182 0.35168 0.83068 0.04100
H 	H 	0.68566 0.36368 0.90714 0.03600
C 	C 	0.54617 0.72030 0.97155 -0.04400
C 	C 	0.54649 0.73948 0.91858 0.10000
C 	C 	0.55457 0.77326 0.92129 -0.03000
C 	C 	0.56008 0.78864 0.97673 -0.14600
C 	C 	0.55831 0.76984 0.03001 0.18200
C 	C 	0.55108 0.73577 0.02719 -0.07500
H 	H 	0.55587 0.78767 0.88022 0.05200
H 	H 	0.54979 0.72132 0.06821 0.06100
O 	O 	0.54132 0.72467 0.86351 -0.19600
O 	O 	0.56113 0.78518 0.08514 -0.20700
C 	C 	0.50624 0.72664 0.84939 -0.02100
H 	H 	0.49028 0.71321 0.88297 0.03200
H 	H 	0.50205 0.71448 0.80544 0.04000
H 	H 	0.49768 0.75288 0.84489 0.03000
C 	C 	0.59557 0.78376 0.10364 -0.02000
H 	H 	0.60419 0.75766 0.11018 0.03900
H 	H 	0.59783 0.79646 0.14752 0.04300
H 	H 	0.61273 0.79697 0.07164 0.04800
