data_crystal

_cell_length_a 27.62853
_cell_length_b 29.31654
_cell_length_c 37.43831
_cell_angle_alpha 89.93674
_cell_angle_beta  89.92621
_cell_angle_gamma 90.84679

_symmetry_space_group_name_	'P 1'
_symmetry_space_group_name_H-M	'P 1'

loop_
_symmetry_equiv_pos_as_xyz
  x,y,z

loop_
_atom_site_label
_atom_site_type_symbol
_atom_site_fract_x
_atom_site_fract_y
_atom_site_fract_z
_atom_site_charge
Zn	Zn	0.51731 0.52913 0.96927 1.22000
C 	C 	0.57291 0.44640 0.96667 0.31600
O 	O 	0.55853 0.56874 0.93982 -0.47600
O 	O 	0.54803 0.43684 0.93757 -0.45500
O 	O 	0.59212 0.51770 0.90229 -0.49600
C 	C 	0.44253 0.47420 0.93736 0.32900
O 	O 	0.46470 0.48551 0.96698 -0.46000
O 	O 	0.46131 0.48617 0.90649 -0.50600
C 	C 	0.59660 0.55316 0.92319 0.32300
O 	O 	0.45797 0.58577 0.97031 -0.32900
Zn	Zn	0.53118 0.48423 0.89891 1.16800
O 	O 	0.56623 0.48496 0.98393 -0.43500
C 	C 	0.47259 0.59361 0.00265 0.27700
O 	O 	0.50720 0.56796 0.01398 -0.38300
Zn	Zn	0.25893 0.24919 0.97998 1.21900
C 	C 	0.29713 0.26543 0.05173 0.34300
O 	O 	0.19062 0.23406 0.98952 -0.47200
O 	O 	0.28309 0.30789 0.04895 -0.45300
O 	O 	0.18330 0.27380 0.04119 -0.49100
C 	C 	0.29451 0.34142 0.96951 0.33000
O 	O 	0.30429 0.29789 0.96924 -0.46100
O 	O 	0.25259 0.35533 0.98156 -0.50900
C 	C 	0.17284 0.23776 0.02186 0.31700
O 	O 	0.24513 0.24419 0.91775 -0.33100
Zn	Zn	0.22119 0.32505 0.02212 1.16700
O 	O 	0.28509 0.23494 0.02740 -0.44100
C 	C 	0.26731 0.20560 0.91995 0.29900
O 	O 	0.28155 0.19449 0.95162 -0.39100
C 	C 	0.49505 0.00837 0.29237 0.13400
C 	C 	0.47176 0.04586 0.27705 -0.11200
H 	H 	0.45894 0.07316 0.29397 0.07300
C 	C 	0.46602 0.04841 0.23996 0.07200
C 	C 	0.48213 0.01290 0.21824 -0.11100
C 	C 	0.50495 0.97524 0.23341 0.07900
C 	C 	0.51186 0.97312 0.27044 -0.10300
H 	H 	0.53036 0.94443 0.28221 0.07400
N 	N 	0.50263 0.00664 0.33038 -0.18500
C 	C 	0.47658 0.97591 0.35066 0.20300
C 	C 	0.48181 0.97532 0.38807 -0.07200
C 	C 	0.51281 0.00739 0.40449 0.05300
C 	C 	0.53948 0.03838 0.38334 -0.07900
C 	C 	0.53484 0.03666 0.34592 0.19500
C 	C 	0.45669 0.94308 0.40916 0.01000
C 	C 	0.46042 0.94431 0.44634 -0.05800
C 	C 	0.48764 0.97924 0.46329 0.02300
C 	C 	0.51687 0.00866 0.44212 -0.03600
C 	C 	0.54987 0.03957 0.45839 0.01600
C 	C 	0.56936 0.07136 0.39981 0.00900
C 	C 	0.57363 0.07270 0.43695 -0.05800
C 	C 	0.48760 0.98453 0.50100 0.02300
C 	C 	0.52355 0.01240 0.51723 -0.03600
C 	C 	0.55652 0.03799 0.49599 0.01600
O 	O 	0.56156 0.06399 0.32572 -0.20300
O 	O 	0.44572 0.94752 0.33514 -0.20400
H 	H 	0.58845 0.09680 0.38395 0.04300
H 	H 	0.59344 0.10086 0.44887 0.04600
H 	H 	0.43480 0.91652 0.39681 0.04300
H 	H 	0.44390 0.91692 0.46164 0.04600
C 	C 	0.59620 0.06010 0.51272 -0.05800
C 	C 	0.59894 0.06232 0.54992 0.00900
C 	C 	0.56349 0.04066 0.57120 -0.08000
C 	C 	0.52641 0.01487 0.55488 0.05300
C 	C 	0.45119 0.96443 0.52266 -0.05700
C 	C 	0.45410 0.96713 0.55984 0.01000
C 	C 	0.49211 0.99169 0.57617 -0.07200
C 	C 	0.56487 0.04389 0.60870 0.19500
N 	N 	0.53149 0.02054 0.62916 -0.18600
C 	C 	0.49590 0.99413 0.61362 0.20300
C 	C 	0.53383 0.02378 0.66749 0.14500
C 	C 	0.57168 0.00305 0.68615 -0.12100
C 	C 	0.57388 0.00617 0.72344 0.06400
C 	C 	0.53773 0.02912 0.74217 -0.09800
C 	C 	0.49953 0.04925 0.72369 0.07000
C 	C 	0.49793 0.04720 0.68633 -0.11300
O 	O 	0.59794 0.06997 0.62421 -0.20400
O 	O 	0.46542 0.97059 0.63385 -0.20000
H 	H 	0.59918 0.98466 0.67163 0.08300
H 	H 	0.46863 0.06311 0.67192 0.07300
H 	H 	0.62608 0.07377 0.49719 0.04600
H 	H 	0.62925 0.08022 0.56212 0.04300
H 	H 	0.41939 0.94862 0.51094 0.04700
H 	H 	0.42608 0.95087 0.57585 0.04500
H 	H 	0.53906 0.03091 0.77111 0.05500
H 	H 	0.47753 0.01487 0.18949 0.05600
Zn	Zn	0.75618 0.78068 0.98228 1.22300
C 	C 	0.69668 0.76669 0.04486 0.34300
O 	O 	0.82265 0.78868 0.00028 -0.46300
O 	O 	0.70814 0.72335 0.04439 -0.44800
O 	O 	0.81004 0.75464 0.05418 -0.49000
C 	C 	0.72872 0.68963 0.96577 0.32300
O 	O 	0.71312 0.73159 0.96641 -0.44800
O 	O 	0.76744 0.67920 0.98410 -0.51100
C 	C 	0.83248 0.78525 0.03449 0.31800
O 	O 	0.78421 0.78651 0.92257 -0.32400
Zn	Zn	0.77762 0.70297 0.03210 1.17200
O 	O 	0.72131 0.79654 0.02576 -0.44400
C 	C 	0.76579 0.82696 0.92348 0.29900
O 	O 	0.74490 0.83780 0.95311 -0.39000
Zn	Zn	0.24909 0.74504 0.02715 1.22100
C 	C 	0.22481 0.74094 0.10199 0.33700
O 	O 	0.20591 0.79720 0.03166 -0.45400
O 	O 	0.24046 0.78318 0.10558 -0.45500
O 	O 	0.26781 0.84639 0.04495 -0.50400
C 	C 	0.34481 0.72613 0.05161 0.32000
O 	O 	0.31800 0.73311 0.02333 -0.47100
O 	O 	0.33841 0.75053 0.08049 -0.48500
C 	C 	0.22276 0.83900 0.03510 0.32400
O 	O 	0.24980 0.75343 0.96424 -0.32700
Zn	Zn	0.30109 0.80645 0.07859 1.17000
O 	O 	0.23710 0.71683 0.07396 -0.44700
C 	C 	0.22187 0.71748 0.96434 0.29700
O 	O 	0.21191 0.70068 0.99547 -0.39000
C 	C 	0.05997 0.46895 0.69788 0.14300
C 	C 	0.08991 0.49802 0.71819 -0.11000
H 	H 	0.11145 0.52429 0.70502 0.07300
C 	C 	0.09096 0.49374 0.75548 0.06900
C 	C 	0.06241 0.46024 0.77238 -0.09500
C 	C 	0.03219 0.43152 0.75220 0.06200
C 	C 	0.03126 0.43561 0.71495 -0.11000
H 	H 	0.00750 0.41376 0.69927 0.07000
N 	N 	0.05673 0.47479 0.65984 -0.18200
C 	C 	0.08718 0.45111 0.63790 0.19800
C 	C 	0.08071 0.45219 0.60060 -0.08400
C 	C 	0.04247 0.47728 0.58618 0.06700
C 	C 	0.01408 0.50416 0.60882 -0.09000
C 	C 	0.02174 0.50238 0.64597 0.19400
C 	C 	0.11258 0.42961 0.57763 0.01200
C 	C 	0.10514 0.43028 0.54076 -0.06000
C 	C 	0.06325 0.45038 0.52623 0.01900
C 	C 	0.03327 0.47630 0.54897 -0.03900
C 	C 	0.99539 0.50269 0.53465 0.02600
C 	C 	0.97942 0.53316 0.59406 0.02200
C 	C 	0.97149 0.53378 0.55727 -0.06300
C 	C 	0.05197 0.44700 0.48922 0.01400
C 	C 	0.01390 0.47323 0.47495 -0.03100
C 	C 	0.98389 0.49905 0.49772 0.01900
O 	O 	0.99450 0.52656 0.66758 -0.19600
O 	O 	0.12196 0.42648 0.65185 -0.20300
H 	H 	0.95947 0.55632 0.61092 0.04200
H 	H 	0.94870 0.56003 0.54646 0.04800
H 	H 	0.14411 0.41265 0.58813 0.04200
H 	H 	0.13331 0.41728 0.52372 0.04600
C 	C 	0.94167 0.51870 0.48335 -0.05600
C 	C 	0.93383 0.51900 0.44653 0.00800
C 	C 	0.96576 0.49665 0.42347 -0.07200
C 	C 	0.00453 0.47215 0.43776 0.05300
C 	C 	0.07624 0.41630 0.46647 -0.05700
C 	C 	0.06835 0.41711 0.42966 0.00800
C 	C 	0.03325 0.44573 0.41501 -0.07700
C 	C 	0.95882 0.49736 0.38621 0.19600
N 	N 	0.98956 0.47419 0.36415 -0.17900
C 	C 	0.02541 0.44748 0.37788 0.19100
C 	C 	0.98548 0.47954 0.32610 0.15300
C 	C 	0.95941 0.44728 0.30587 -0.11200
C 	C 	0.95670 0.45196 0.26866 0.07100
C 	C 	0.97969 0.48905 0.25176 -0.09100
C 	C 	0.00578 0.52121 0.27191 0.06500
C 	C 	0.00859 0.51651 0.30907 -0.11900
O 	O 	0.92319 0.52104 0.37242 -0.20100
O 	O 	0.05330 0.42413 0.35615 -0.20400
H 	H 	0.94187 0.41852 0.31905 0.07600
H 	H 	0.02912 0.54112 0.32472 0.07300
H 	H 	0.91360 0.53166 0.50050 0.04600
H 	H 	0.90199 0.53556 0.43614 0.04500
H 	H 	0.09925 0.39016 0.47715 0.04500
H 	H 	0.08859 0.39428 0.41273 0.04300
H 	H 	0.97791 0.49248 0.22292 0.05900
H 	H 	0.06267 0.45741 0.80129 0.05700
Zn	Zn	0.75876 0.22803 0.99736 1.22100
C 	C 	0.77925 0.24443 0.92276 0.33900
O 	O 	0.72209 0.28332 0.98848 -0.45200
O 	O 	0.73244 0.24442 0.91665 -0.45400
O 	O 	0.65382 0.24433 0.97207 -0.50100
C 	C 	0.75154 0.13667 0.97353 0.31800
O 	O 	0.74660 0.16281 0.00161 -0.47600
O 	O 	0.73026 0.14789 0.94360 -0.49000
C 	C 	0.67537 0.28243 0.98224 0.32400
O 	O 	0.74218 0.23402 0.05928 -0.32500
Zn	Zn	0.68611 0.19917 0.94208 1.17000
O 	O 	0.79631 0.22779 0.95273 -0.44700
C 	C 	0.78735 0.24631 0.06186 0.29600
O 	O 	0.81114 0.24823 0.03214 -0.39000
Zn	Zn	0.00426 0.02083 0.03564 1.21200
C 	C 	0.11751 0.00489 0.02706 0.27400
O 	O 	0.96823 0.95137 0.04864 -0.31400
O 	O 	0.12587 0.02426 0.05841 -0.39000
O 	O 	0.01168 0.91676 0.09803 -0.18800
C 	C 	0.06203 0.08912 0.08203 0.30600
O 	O 	0.02171 0.07817 0.06435 -0.40400
O 	O 	0.07394 0.06744 0.11200 -0.44100
C 	C 	0.97419 0.91707 0.07354 0.23900
O 	O 	0.92563 0.04881 0.04357 -0.32000
Zn	Zn	0.09362 0.00230 0.11068 1.18400
O 	O 	0.07573 0.01458 0.00998 -0.36700
C 	C 	0.92458 0.05280 0.00912 0.27500
O 	O 	0.96339 0.04011 0.99266 -0.39000
C 	C 	0.79117 0.10378 0.97287 -0.09000
C 	C 	0.79148 0.06691 0.99703 0.02700
C 	C 	0.83531 0.04581 0.00516 -0.02300
H 	H 	0.83592 0.01861 0.02482 0.04700
C 	C 	0.87890 0.06209 0.99020 -0.06500
C 	C 	0.87728 0.09409 0.96194 0.01200
C 	C 	0.83316 0.11450 0.95332 -0.01400
H 	H 	0.83220 0.14086 0.93299 0.04700
C 	C 	0.92130 0.10686 0.94151 0.03000
C 	C 	0.93931 0.15190 0.94245 -0.06000
C 	C 	0.98038 0.16410 0.92258 0.00100
C 	C 	0.00311 0.13170 0.90121 -0.06400
C 	C 	0.98455 0.08714 0.89942 0.00900
C 	C 	0.94343 0.07478 0.91921 -0.05100
C 	C 	0.74624 0.05068 0.01432 0.01300
C 	C 	0.70866 0.03178 0.99362 -0.05300
C 	C 	0.66605 0.01615 0.01005 -0.02500
C 	C 	0.66088 0.01912 0.04713 -0.04100
C 	C 	0.69835 0.03760 0.06787 -0.02100
C 	C 	0.74093 0.05348 0.05155 -0.04400
H 	H 	0.63719 0.00144 0.99408 0.02500
H 	H 	0.62801 0.00671 0.05982 0.03100
H 	H 	0.69439 0.03962 0.09658 0.03400
H 	H 	0.76971 0.06800 0.06777 0.04900
H 	H 	0.71258 0.02904 0.96491 0.04000
H 	H 	0.92129 0.17745 0.95830 0.04800
H 	H 	0.99443 0.19873 0.92359 0.03000
H 	H 	0.92897 0.04031 0.91744 0.05400
H 	H 	0.00192 0.06221 0.88261 0.02400
H 	H 	0.03492 0.14121 0.88585 0.04500
C 	C 	0.87255 0.30025 0.84992 -0.01500
C 	C 	0.92229 0.29205 0.85242 -0.02500
C 	C 	0.95484 0.31552 0.83015 -0.04800
C 	C 	0.93775 0.34721 0.80528 0.02400
C 	C 	0.88789 0.35418 0.80194 -0.04800
C 	C 	0.85536 0.33077 0.82422 -0.02600
C 	C 	0.83957 0.27985 0.87527 0.05400
C 	C 	0.81196 0.26342 0.89681 -0.12100
C 	C 	0.97140 0.37565 0.78571 -0.01100
C 	C 	0.99927 0.40054 0.77002 -0.02200
H 	H 	0.93582 0.26834 0.87214 0.03800
H 	H 	0.99335 0.30993 0.83287 0.04500
H 	H 	0.87442 0.37861 0.78275 0.04500
H 	H 	0.81693 0.33716 0.82208 0.03600
C 	C 	0.88867 0.35815 0.20484 0.02000
C 	C 	0.91696 0.33001 0.18324 -0.04600
C 	C 	0.89524 0.30378 0.15634 -0.02900
C 	C 	0.84509 0.30542 0.15101 -0.00700
C 	C 	0.81653 0.33209 0.17358 -0.02800
C 	C 	0.83829 0.35844 0.20044 -0.04500
C 	C 	0.91178 0.39029 0.22863 -0.00700
C 	C 	0.93184 0.41799 0.24750 -0.03200
C 	C 	0.82375 0.28348 0.12032 0.04400
C 	C 	0.80664 0.26603 0.09397 -0.09800
H 	H 	0.95593 0.32960 0.18648 0.04400
H 	H 	0.91758 0.28344 0.13889 0.03800
H 	H 	0.77773 0.33350 0.16965 0.04100
H 	H 	0.81617 0.38008 0.21705 0.04500
C 	C 	0.13595 0.95781 0.02419 -0.07200
C 	C 	0.12867 0.92763 0.05361 0.01000
C 	C 	0.15590 0.88778 0.05605 -0.01600
H 	H 	0.15114 0.86500 0.07858 0.03900
C 	C 	0.19034 0.87778 0.02975 -0.09100
C 	C 	0.19540 0.90635 0.99950 0.02700
C 	C 	0.16841 0.94646 0.99705 -0.02500
H 	H 	0.17395 0.96947 0.97467 0.04400
C 	C 	0.22889 0.89447 0.97034 0.01000
C 	C 	0.27417 0.91651 0.96760 -0.04500
C 	C 	0.30624 0.90452 0.94037 -0.02300
C 	C 	0.29317 0.87067 0.91576 -0.03500
C 	C 	0.24798 0.84879 0.91832 -0.01400
C 	C 	0.21584 0.86059 0.94556 -0.04200
C 	C 	0.09104 0.93885 0.08091 -0.04900
C 	C 	0.09521 0.92632 0.11902 -0.15700
C 	C 	0.06278 0.94651 0.14619 -0.12700
C 	C 	0.02556 0.98020 0.13650 -0.11300
C 	C 	0.01956 0.99394 0.09867 -0.17100
C 	C 	0.05303 0.97136 0.07022 -0.23800
H 	H 	0.06670 0.93664 0.17387 0.04700
H 	H 	0.00170 0.99350 0.15678 0.05800
H 	H 	0.98732 0.01203 0.09144 0.02000
H 	H 	0.04212 0.96493 0.04380 0.02400
H 	H 	0.12345 0.90372 0.12768 0.05100
H 	H 	0.28458 0.94262 0.98668 0.04000
H 	H 	0.34124 0.92141 0.93836 0.03100
H 	H 	0.18105 0.84323 0.94759 0.04900
H 	H 	0.23797 0.82249 0.89933 0.04200
H 	H 	0.31806 0.86138 0.89474 0.04000
C 	C 	0.19518 0.64012 0.87591 -0.00800
C 	C 	0.17327 0.65832 0.84541 -0.02900
C 	C 	0.15767 0.62937 0.81791 -0.04600
C 	C 	0.16404 0.58215 0.82080 0.01800
C 	C 	0.18813 0.56427 0.85049 -0.04700
C 	C 	0.20343 0.59316 0.87806 -0.03000
C 	C 	0.20515 0.66880 0.90629 0.04300
C 	C 	0.21292 0.69171 0.93243 -0.09900
C 	C 	0.14006 0.55173 0.79614 -0.00800
C 	C 	0.11849 0.52564 0.77680 -0.03300
H 	H 	0.16693 0.69463 0.84350 0.04000
H 	H 	0.13912 0.64347 0.79503 0.04500
H 	H 	0.19341 0.52783 0.85285 0.04200
H 	H 	0.22051 0.57886 0.90150 0.04000
C 	C 	0.08087 0.62201 0.21961 0.02000
C 	C 	0.12945 0.63083 0.22827 -0.04700
C 	C 	0.15772 0.65948 0.20653 -0.02600
C 	C 	0.13752 0.67942 0.17606 -0.01500
C 	C 	0.08836 0.67230 0.16835 -0.02800
C 	C 	0.06009 0.64364 0.19008 -0.04800
C 	C 	0.05391 0.58744 0.23877 -0.00900
C 	C 	0.03177 0.55765 0.25420 -0.03400
C 	C 	0.16830 0.70265 0.15066 0.05300
C 	C 	0.19417 0.72080 0.12879 -0.12200
H 	H 	0.14571 0.61438 0.25114 0.04500
H 	H 	0.19567 0.66493 0.21272 0.03800
H 	H 	0.07246 0.68768 0.14487 0.03500
H 	H 	0.02249 0.63712 0.18330 0.04000
C 	C 	0.93801 0.87999 0.07410 -0.04400
C 	C 	0.95128 0.83484 0.06611 0.01200
C 	C 	0.91592 0.80338 0.05455 -0.00800
H 	H 	0.92625 0.76903 0.04736 0.02900
C 	C 	0.86768 0.81664 0.05090 -0.09000
C 	C 	0.85384 0.86054 0.06184 0.03500
C 	C 	0.88896 0.89154 0.07416 -0.03200
H 	H 	0.87853 0.92590 0.08127 0.05300
C 	C 	0.80307 0.87510 0.05904 0.01200
C 	C 	0.77191 0.87068 0.08851 -0.03700
C 	C 	0.72453 0.88658 0.08640 -0.01600
C 	C 	0.70792 0.90634 0.05478 -0.02700
C 	C 	0.73894 0.91100 0.02542 -0.01300
C 	C 	0.78652 0.89563 0.02754 -0.04400
C 	C 	0.00206 0.82041 0.06891 0.02100
C 	C 	0.02079 0.80704 0.10207 -0.05100
C 	C 	0.06719 0.78881 0.10413 -0.01500
C 	C 	0.09480 0.78360 0.07313 -0.03700
C 	C 	0.07680 0.79805 0.04019 -0.01400
C 	C 	0.03055 0.81656 0.03803 -0.04700
H 	H 	0.08154 0.77830 0.12968 0.03400
H 	H 	0.13033 0.76882 0.07469 0.04900
H 	H 	0.09864 0.79480 0.01633 0.04400
H 	H 	0.01654 0.82718 0.01237 0.04700
H 	H 	0.99916 0.81015 0.12607 0.05500
H 	H 	0.78449 0.85520 0.11302 0.04600
H 	H 	0.70062 0.88341 0.10922 0.03800
H 	H 	0.81047 0.89956 0.00477 0.05300
H 	H 	0.72607 0.92638 0.00099 0.04500
H 	H 	0.67100 0.91790 0.05301 0.03900
C 	C 	0.67974 0.94643 0.78234 0.01600
C 	C 	0.69780 0.96994 0.81217 -0.03200
C 	C 	0.72401 0.94673 0.83822 -0.03400
C 	C 	0.73230 0.89992 0.83454 -0.00500
C 	C 	0.71777 0.87734 0.80326 -0.03100
C 	C 	0.69131 0.90050 0.77728 -0.04300
C 	C 	0.64386 0.96735 0.76012 -0.00700
C 	C 	0.61251 0.98493 0.74275 -0.02300
C 	C 	0.74723 0.87389 0.86510 0.04300
C 	C 	0.75707 0.85227 0.89143 -0.09600
H 	H 	0.68944 0.00559 0.81609 0.03000
H 	H 	0.73551 0.96455 0.86217 0.04300
H 	H 	0.72463 0.84131 0.79995 0.03800
H 	H 	0.67790 0.88219 0.75410 0.04400
C 	C 	0.60257 0.82444 0.11417 -0.01400
C 	C 	0.58484 0.86686 0.10356 -0.02800
C 	C 	0.56213 0.89496 0.12832 -0.05000
C 	C 	0.55715 0.88091 0.16391 0.01700
C 	C 	0.57318 0.83774 0.17432 -0.04800
C 	C 	0.59591 0.80952 0.14946 -0.02800
C 	C 	0.63382 0.80000 0.09044 0.05500
C 	C 	0.66168 0.78280 0.06989 -0.11900
C 	C 	0.53857 0.91213 0.18999 -0.00800
C 	C 	0.52328 0.94004 0.21056 -0.03600
H 	H 	0.58992 0.87864 0.07634 0.03600
H 	H 	0.54949 0.92815 0.12003 0.03900
H 	H 	0.56924 0.82656 0.20178 0.04400
H 	H 	0.60975 0.77686 0.15792 0.03800
C 	C 	0.08972 0.13047 0.07154 -0.08400
C 	C 	0.06641 0.16946 0.05795 0.03000
C 	C 	0.09393 0.20393 0.04102 -0.02000
H 	H 	0.07622 0.23408 0.03091 0.03200
C 	C 	0.14431 0.19987 0.03759 -0.08200
C 	C 	0.16747 0.16157 0.05250 0.02200
C 	C 	0.14021 0.12876 0.07109 -0.01400
H 	H 	0.15836 0.10024 0.08340 0.03100
C 	C 	0.21940 0.15321 0.04653 0.01500
C 	C 	0.25134 0.15346 0.07571 -0.04100
C 	C 	0.29824 0.13681 0.07180 -0.01700
C 	C 	0.31366 0.12035 0.03875 -0.03500
C 	C 	0.28192 0.11960 0.00972 -0.01300
C 	C 	0.23484 0.13584 0.01356 -0.04900
C 	C 	0.01413 0.17621 0.06408 -0.00300
C 	C 	0.98099 0.16963 0.03610 -0.02600
C 	C 	0.93125 0.17245 0.04269 -0.01900
C 	C 	0.91452 0.18242 0.07701 -0.02200
C 	C 	0.94743 0.18965 0.10483 -0.02900
C 	C 	0.99716 0.18662 0.09844 -0.01700
H 	H 	0.90563 0.16627 0.02136 0.04200
H 	H 	0.87603 0.18419 0.08211 0.04500
H 	H 	0.93439 0.19713 0.13143 0.03900
H 	H 	0.02245 0.19167 0.12023 0.03400
H 	H 	0.99373 0.16104 0.00962 0.04500
H 	H 	0.23946 0.16561 0.10155 0.04000
H 	H 	0.32250 0.13637 0.09445 0.03200
H 	H 	0.21002 0.13390 0.99122 0.05300
H 	H 	0.29364 0.10607 0.98431 0.04000
H 	H 	0.35005 0.10774 0.03572 0.03400
C 	C 	0.39327 0.10851 0.78273 0.01800
C 	C 	0.39070 0.15610 0.78537 -0.04700
C 	C 	0.36033 0.17586 0.81075 -0.03000
C 	C 	0.33245 0.14811 0.83361 -0.00800
C 	C 	0.33333 0.10058 0.82983 -0.03000
C 	C 	0.36367 0.08082 0.80442 -0.04700
C 	C 	0.42985 0.08818 0.76073 -0.00900
C 	C 	0.46126 0.07075 0.74329 -0.03500
C 	C 	0.30755 0.16808 0.86341 0.04300
C 	C 	0.28825 0.18502 0.88895 -0.10000
H 	H 	0.41337 0.17774 0.76862 0.04200
H 	H 	0.35976 0.21265 0.81346 0.03800
H 	H 	0.31180 0.07890 0.84734 0.03800
H 	H 	0.36535 0.04399 0.80246 0.04200
C 	C 	0.40674 0.15759 0.18963 0.01900
C 	C 	0.43565 0.18345 0.16613 -0.04900
C 	C 	0.41411 0.21273 0.14151 -0.02800
C 	C 	0.36361 0.21617 0.14028 -0.01600
C 	C 	0.33502 0.19287 0.16553 -0.02900
C 	C 	0.35654 0.16361 0.19014 -0.04900
C 	C 	0.42750 0.12030 0.20901 -0.00900
C 	C 	0.44489 0.08798 0.22388 -0.03700
C 	C 	0.34098 0.23640 0.10970 0.05000
C 	C 	0.32132 0.25087 0.08344 -0.12000
H 	H 	0.47455 0.17922 0.16574 0.04200
H 	H 	0.43652 0.23096 0.12231 0.03400
H 	H 	0.29594 0.19541 0.16478 0.03400
H 	H 	0.33397 0.14394 0.20837 0.04000
C 	C 	0.33282 0.37486 0.95946 -0.09000
C 	C 	0.38193 0.36688 0.96807 0.02600
C 	C 	0.41784 0.39729 0.95640 -0.01800
H 	H 	0.45533 0.39112 0.96333 0.04300
C 	C 	0.40578 0.43767 0.93891 -0.09100
C 	C 	0.35718 0.44544 0.92922 0.02300
C 	C 	0.32088 0.41400 0.93979 -0.01800
H 	H 	0.28352 0.41982 0.93242 0.03900
C 	C 	0.34435 0.48442 0.90602 0.01300
C 	C 	0.32598 0.47645 0.87158 -0.04900
C 	C 	0.31317 0.51314 0.84982 -0.02200
C 	C 	0.31874 0.55785 0.86223 -0.03900
C 	C 	0.33668 0.56598 0.89657 -0.02000
C 	C 	0.34951 0.52943 0.91844 -0.04700
C 	C 	0.39596 0.32911 0.99190 0.01800
C 	C 	0.40781 0.28651 0.97749 -0.04200
C 	C 	0.42208 0.25114 0.00002 -0.01800
C 	C 	0.42717 0.25888 0.03667 -0.03400
C 	C 	0.41823 0.30206 0.05081 -0.01700
C 	C 	0.40194 0.33698 0.02861 -0.04300
H 	H 	0.42955 0.21784 0.98905 0.03100
H 	H 	0.43797 0.23141 0.05410 0.03700
H 	H 	0.42291 0.30818 0.07911 0.03500
H 	H 	0.39432 0.37013 0.03982 0.04200
H 	H 	0.40488 0.28057 0.94901 0.04800
H 	H 	0.32172 0.44190 0.86172 0.04200
H 	H 	0.29885 0.50690 0.82335 0.03300
H 	H 	0.36438 0.53611 0.94462 0.05300
H 	H 	0.34073 0.60062 0.90621 0.03900
H 	H 	0.30880 0.58620 0.84535 0.04000
C 	C 	0.38151 0.69034 0.05082 -0.08600
C 	C 	0.43062 0.70161 0.04475 0.02900
C 	C 	0.46232 0.66797 0.03269 -0.02400
H 	H 	0.49932 0.67722 0.02575 0.04500
C 	C 	0.44532 0.62333 0.02672 -0.06300
C 	C 	0.39791 0.61081 0.03752 0.01700
C 	C 	0.36630 0.64456 0.04957 -0.01000
H 	H 	0.32911 0.63557 0.05613 0.03900
C 	C 	0.38055 0.56276 0.03490 0.02000
C 	C 	0.40593 0.52776 0.05202 -0.04800
C 	C 	0.39059 0.48234 0.04831 -0.01400
C 	C 	0.34929 0.47170 0.02829 -0.03700
C 	C 	0.32326 0.50643 0.01188 -0.01800
C 	C 	0.33878 0.55188 0.01510 -0.04900
C 	C 	0.44856 0.74888 0.04949 0.00700
C 	C 	0.45703 0.76608 0.08392 -0.04900
C 	C 	0.47168 0.81155 0.08848 -0.03200
C 	C 	0.47828 0.83985 0.05872 -0.04400
C 	C 	0.47057 0.82264 0.02435 -0.02800
C 	C 	0.45570 0.77724 0.01967 -0.05100
H 	H 	0.47771 0.82489 0.11507 0.03200
H 	H 	0.48930 0.87513 0.06230 0.03200
H 	H 	0.47582 0.84456 0.00134 0.03100
H 	H 	0.44921 0.76425 0.99300 0.04500
H 	H 	0.45169 0.74440 0.10709 0.04500
H 	H 	0.43764 0.53575 0.06795 0.05200
H 	H 	0.41064 0.45539 0.06106 0.03400
H 	H 	0.31902 0.57846 0.00159 0.04600
H 	H 	0.29147 0.49808 0.99619 0.02900
H 	H 	0.33735 0.43656 0.02558 0.03600
C 	C 	0.60379 0.41115 0.98209 -0.08000
C 	C 	0.65215 0.40728 0.97042 0.03100
C 	C 	0.66999 0.36345 0.96417 -0.01700
H 	H 	0.70169 0.35897 0.94756 0.04400
C 	C 	0.64886 0.32575 0.98141 -0.08800
C 	C 	0.60489 0.33122 0.00020 0.02600
C 	C 	0.58157 0.37355 0.99916 -0.01700
H 	H 	0.54539 0.37663 0.01010 0.04200
C 	C 	0.58396 0.29364 0.02174 0.01300
C 	C 	0.59410 0.29091 0.05839 -0.04500
C 	C 	0.57643 0.25398 0.07845 -0.02000
C 	C 	0.54915 0.21946 0.06193 -0.03900
C 	C 	0.53908 0.22204 0.02539 -0.02700
C 	C 	0.55539 0.25961 0.00547 -0.04100
C 	C 	0.68249 0.44933 0.95957 0.00300
C 	C 	0.67709 0.46628 0.91614 -0.03400
C 	C 	0.71266 0.50917 0.89856 -0.03300
C 	C 	0.75802 0.54034 0.91992 -0.03800
C 	C 	0.77558 0.53611 0.96368 -0.03900
C 	C 	0.74944 0.49751 0.99177 -0.03100
H 	H 	0.70655 0.51738 0.87079 0.03900
H 	H 	0.77692 0.56568 0.90393 0.04100
H 	H 	0.80417 0.55829 0.97353 0.03100
H 	H 	0.76217 0.49588 0.01947 0.03900
H 	H 	0.65190 0.44832 0.89889 0.02900
H 	H 	0.61599 0.31712 0.07120 0.04800
H 	H 	0.58419 0.25194 0.10673 0.03600
H 	H 	0.54689 0.26173 0.97728 0.03600
H 	H 	0.51811 0.19521 0.01262 0.02500
H 	H 	0.53570 0.19078 0.07744 0.03400
C 	C 	0.64132 0.58073 0.92267 -0.08400
C 	C 	0.67869 0.57171 0.94729 0.02000
C 	C 	0.70106 0.60881 0.96447 -0.00900
H 	H 	0.72096 0.60337 0.98900 0.02600
C 	C 	0.69902 0.65260 0.94962 -0.08900
C 	C 	0.66937 0.65982 0.91934 0.02700
C 	C 	0.64009 0.62387 0.90645 -0.01500
H 	H 	0.61375 0.63041 0.88566 0.03600
C 	C 	0.66706 0.70479 0.90182 0.02000
C 	C 	0.62890 0.73423 0.90971 -0.04100
C 	C 	0.62446 0.77526 0.89103 -0.01800
C 	C 	0.65765 0.78677 0.86418 -0.03600
C 	C 	0.69596 0.75769 0.85645 -0.01400
C 	C 	0.70080 0.71681 0.87529 -0.04300
C 	C 	0.69014 0.52323 0.96007 0.04100
C 	C 	0.75534 0.46352 0.94075 -0.02700
C 	C 	0.76184 0.42216 0.97188 -0.04300
C 	C 	0.72924 0.42157 0.01079 -0.00800
C 	C 	0.68535 0.45911 0.02482 -0.13400
C 	C 	0.66543 0.50861 0.00119 -0.24000
H 	H 	0.78775 0.39553 0.96720 0.04500
H 	H 	0.73670 0.39376 0.02887 0.04500
H 	H 	0.67405 0.48556 0.01295 0.21400
H 	H 	0.63669 0.53494 0.01236 0.09000
H 	H 	0.77802 0.46254 0.91670 0.04000
H 	H 	0.60260 0.72514 0.93009 0.04900
H 	H 	0.59502 0.79794 0.89713 0.03500
H 	H 	0.73031 0.69425 0.86899 0.04700
H 	H 	0.72184 0.76680 0.83584 0.03700
H 	H 	0.65371 0.81822 0.84940 0.04100
