data_crystal

_cell_length_a 16.28173
_cell_length_b 17.00460
_cell_length_c 58.69083
_cell_angle_alpha 90.03247
_cell_angle_beta  90.02438
_cell_angle_gamma 119.85271

_symmetry_space_group_name_	'P 1'
_symmetry_space_group_name_H-M	'P 1'

loop_
_symmetry_equiv_pos_as_xyz
  x,y,z

loop_
_atom_site_label
_atom_site_type_symbol
_atom_site_fract_x
_atom_site_fract_y
_atom_site_fract_z
_atom_site_charge
O 	O 	0.05669 0.18124 0.77127 -0.36900
O 	O 	0.05701 0.83995 0.77382 -0.36900
O 	O 	0.08581 0.11703 0.81283 -0.37300
O 	O 	0.00461 0.99235 0.22997 -0.69200
C 	C 	0.10784 0.31171 0.04311 0.08100
N 	N 	0.05354 0.74728 0.17086 -0.18800
Ni	Ni	0.05650 0.11624 0.22195 1.12300
O 	O 	0.01376 0.87663 0.25827 -0.35400
O 	O 	0.07309 0.06702 0.02836 -0.36100
O 	O 	0.06858 0.19118 0.99972 -0.36100
H 	H 	0.01880 0.96321 0.98679 0.19200
N 	N 	0.04050 0.67143 0.33743 -0.10500
H 	H 	0.09336 0.72179 0.16316 0.09400
H 	H 	0.08965 0.81318 0.17733 0.10500
N 	N 	0.03806 0.71797 0.87087 -0.10900
H 	H 	0.01965 0.28019 0.73910 0.06000
C 	C 	0.02466 0.63227 0.40016 0.02800
C 	C 	0.04310 0.58435 0.41722 -0.04600
C 	C 	0.01666 0.45498 0.49155 -0.01900
H 	H 	0.01423 0.42101 0.47572 0.05400
O 	O 	0.03132 0.99228 0.78046 -0.70100
H 	H 	0.05346 0.98301 0.79532 0.16400
O 	O 	0.00938 0.08701 0.19002 -0.37700
N 	N 	0.03631 0.48389 0.72870 -0.09800
H 	H 	0.01159 0.64193 0.65674 0.07400
C 	C 	0.02353 0.54156 0.53270 -0.01700
C 	C 	0.01458 0.31758 0.92059 0.04600
H 	H 	0.02759 0.57251 0.54913 0.05900
C 	C 	0.04160 0.93148 0.72701 0.32100
C 	C 	0.10411 0.57731 0.51864 0.10700
H 	H 	0.15500 0.76910 0.76259 0.10900
Ni	Ni	0.08719 0.94531 0.22986 1.11600
N 	N 	0.18378 0.74813 0.77551 -0.20000
H 	H 	0.20560 0.70159 0.77131 0.09700
C 	C 	0.17585 0.57758 0.48073 0.29200
C 	C 	0.14062 0.60152 0.42201 0.30200
O 	O 	0.18368 0.64971 0.46963 -0.36600
O 	O 	0.21895 0.53264 0.47376 -0.38000
O 	O 	0.21321 0.68397 0.42072 -0.36700
O 	O 	0.15019 0.53624 0.43147 -0.36500
C 	C 	0.17774 0.77996 0.67462 0.30000
C 	C 	0.09245 0.55116 0.67485 0.31300
O 	O 	0.17863 0.73869 0.65525 -0.36400
O 	O 	0.15727 0.55142 0.66196 -0.37800
O 	O 	0.11674 0.60624 0.69277 -0.35600
C 	C 	0.10343 0.18838 0.75237 0.31000
C 	C 	0.17463 0.17066 0.80642 0.29600
C 	C 	0.13664 0.88834 0.78578 0.29100
Ni	Ni	0.14943 0.05006 0.76483 1.12200
O 	O 	0.12109 0.96515 0.73852 -0.37500
O 	O 	0.10944 0.11984 0.74454 -0.38100
O 	O 	0.19299 0.97620 0.78208 -0.37000
O 	O 	0.21115 0.15579 0.78761 -0.37200
C 	C 	0.18452 0.44019 0.91150 0.29300
Ni	Ni	0.22056 0.59526 0.88287 1.12200
O 	O 	0.22335 0.49143 0.86591 -0.37800
O 	O 	0.18528 0.68300 0.89826 -0.36400
O 	O 	0.16449 0.50606 0.90880 -0.36800
C 	C 	0.16244 0.10875 0.26193 0.28500
C 	C 	0.19930 0.09092 0.19651 0.31400
O 	O 	0.18493 0.05794 0.24891 -0.36400
O 	O 	0.11403 0.14580 0.25344 -0.36900
O 	O 	0.15103 0.00311 0.19919 -0.38200
O 	O 	0.18685 0.14433 0.21056 -0.38000
C 	C 	0.07870 0.96186 0.94569 0.31000
C 	C 	0.15392 0.08392 0.01830 0.29300
Ni	Ni	0.07562 0.10845 0.97583 1.12700
O 	O 	0.10230 0.04938 0.94787 -0.36900
O 	O 	0.16518 0.09287 0.99593 -0.37900
C 	C 	0.11338 0.03025 0.30805 0.07800
N 	N 	0.03972 0.96911 0.31223 -0.09600
C 	C 	0.23975 0.11977 0.03228 -0.05400
C 	C 	0.17930 0.97147 0.05164 0.08900
N 	N 	0.12071 0.89696 0.05444 -0.10200
N 	N 	0.18360 0.32802 0.04798 -0.10300
N 	N 	0.17904 0.06106 0.14798 -0.20100
H 	H 	0.11933 0.04964 0.15722 0.11300
H 	H 	0.16982 0.04065 0.13092 0.09700
C 	C 	0.10615 0.34312 0.91213 -0.06900
C 	C 	0.12374 0.27450 0.90433 -0.01100
C 	C 	0.05629 0.18250 0.90766 0.01600
C 	C 	0.07162 0.11326 0.89780 0.08500
N 	N 	0.08409 0.05804 0.88970 -0.11500
C 	C 	0.13918 0.93767 0.93230 -0.06200
C 	C 	0.10077 0.88684 0.91227 -0.00100
C 	C 	0.12875 0.82548 0.90471 -0.00100
H 	H 	0.04170 0.88783 0.90399 0.05500
C 	C 	0.07852 0.76577 0.88592 0.09100
C 	C 	0.18167 0.87937 0.82529 -0.03900
C 	C 	0.16540 0.84407 0.80314 -0.08500
C 	C 	0.19468 0.78097 0.79712 0.11600
C 	C 	0.23732 0.75305 0.81372 -0.03800
H 	H 	0.16019 0.92845 0.82976 0.05200
H 	H 	0.25669 0.70239 0.80938 0.06000
C 	C 	0.23332 0.33473 0.80832 -0.04600
C 	C 	0.22921 0.25759 0.81808 -0.08600
C 	C 	0.26431 0.26207 0.84032 0.10900
C 	C 	0.26102 0.41295 0.82139 0.11900
N 	N 	0.26336 0.48678 0.81173 -0.20200
H 	H 	0.21067 0.33240 0.79084 0.06000
H 	H 	0.24125 0.48433 0.79489 0.10000
H 	H 	0.25164 0.13284 0.83980 0.09600
C 	C 	0.14817 0.27429 0.73982 -0.06900
C 	C 	0.09490 0.31583 0.73529 0.00100
C 	C 	0.13838 0.40526 0.72784 0.00700
C 	C 	0.08256 0.44981 0.72805 0.09600
C 	C 	0.11536 0.81968 0.67707 -0.08200
C 	C 	0.15792 0.91485 0.67570 0.00800
C 	C 	0.12406 0.96019 0.68954 0.00900
C 	C 	0.04224 0.90888 0.70276 -0.02600
C 	C 	0.02570 0.77102 0.68831 0.06600
C 	C 	0.17547 0.05783 0.69098 0.08000
C 	C 	0.09943 0.71625 0.39094 0.09800
N 	N 	0.15927 0.78363 0.38355 -0.09600
C 	C 	0.09994 0.53407 0.49773 -0.08800
N 	N 	0.18578 0.65119 0.52566 -0.19900
H 	H 	0.18778 0.68390 0.54090 0.09300
O 	O 	0.00577 0.82247 0.21261 -0.35400
C 	C 	0.20506 0.10683 0.30289 0.00300
H 	H 	0.01828 0.22682 0.20027 0.07100
H 	H 	0.22374 0.95347 0.66641 0.05200
N 	N 	0.21667 0.13616 0.69213 -0.10100
N 	N 	0.26868 0.19067 0.84943 -0.19800
H 	H 	0.24856 0.67531 0.51641 0.09500
Ni	Ni	0.27352 0.54395 0.44213 1.12300
Ni	Ni	0.25695 0.67129 0.64786 1.11200
Ni	Ni	0.25292 0.69579 0.70405 1.12300
O 	O 	0.23957 0.79641 0.69074 -0.38400
O 	O 	0.25167 0.59903 0.72283 -0.38800
C 	C 	0.29887 0.48639 0.85989 0.31200
C 	C 	0.29198 0.75273 0.85338 0.30900
C 	C 	0.24326 0.76573 0.90701 0.27500
O 	O 	0.25835 0.66503 0.85378 -0.39500
C 	C 	0.22149 0.15234 0.28188 -0.05600
C 	C 	0.31193 0.20962 0.02895 -0.00200
C 	C 	0.25235 0.06452 0.04813 0.00300
H 	H 	0.30228 0.25201 0.01665 0.05100
C 	C 	0.28019 0.12948 0.18069 -0.09600
C 	C 	0.26720 0.10505 0.15735 0.11400
H 	H 	0.19021 0.29251 0.89607 0.04300
C 	C 	0.20176 0.81971 0.91625 -0.05200
C 	C 	0.24344 0.87431 0.93558 -0.01100
C 	C 	0.21527 0.93551 0.94301 0.00500
C 	C 	0.25687 0.79131 0.83569 -0.08900
C 	C 	0.23349 0.85938 0.84102 0.11400
N 	N 	0.26277 0.90786 0.86074 -0.20100
H 	H 	0.24290 0.95617 0.86452 0.09400
C 	C 	0.29479 0.34132 0.85315 -0.03800
C 	C 	0.28689 0.41397 0.84440 -0.09900
H 	H 	0.28987 0.54801 0.82056 0.10700
H 	H 	0.29151 0.19335 0.86621 0.09100
C 	C 	0.23702 0.45226 0.72249 -0.05600
C 	C 	0.24564 0.31931 0.73435 0.01100
N 	N 	0.19320 0.37437 0.38092 -0.10300
H 	H 	0.04609 0.32712 0.18476 0.09300
C 	C 	0.26249 0.99325 0.96232 0.08700
Ni	Ni	0.29631 0.74349 0.44912 1.11500
C 	C 	0.28604 0.54927 0.71549 0.30000
O 	O 	0.27375 0.45848 0.91385 -0.36900
C 	C 	0.30472 0.23371 0.27861 -0.01000
C 	C 	0.27792 0.13831 0.31923 -0.00200
H 	H 	0.26614 0.10288 0.33532 0.04800
N 	N 	0.30088 0.03940 0.97777 -0.10500
H 	H 	0.30760 0.90102 0.87215 0.10200
H 	H 	0.32158 0.34529 0.87028 0.04200
C 	C 	0.28894 0.40711 0.72518 -0.00800
C 	C 	0.30252 0.27759 0.73892 0.07900
C 	C 	0.27106 0.42254 0.37568 0.09300
H 	H 	0.28229 0.44036 0.60523 0.04800
H 	H 	0.29677 0.86792 0.94512 0.06100
O 	O 	0.31225 0.55366 0.40924 -0.37000
O 	O 	0.31824 0.60364 0.63067 -0.36000
O 	O 	0.31840 0.69792 0.67681 -0.70900
H 	H 	0.31701 0.64732 0.91264 0.15600
H 	H 	0.31463 0.27109 0.26289 0.05200
C 	C 	0.33678 0.10002 0.06060 -0.00500
N 	N 	0.34811 0.24419 0.74257 -0.11800
N 	N 	0.30274 0.29184 0.56779 -0.11100
O 	O 	0.33328 0.79393 0.91201 -0.38300
O 	O 	0.34038 0.64679 0.89719 -0.71400
C 	C 	0.01330 0.29122 0.03701 0.05500
O 	O 	0.35076 0.66947 0.44893 -0.71800
H 	H 	0.34594 0.05816 0.07315 0.04500
C 	C 	0.34654 0.12901 0.14351 -0.04300
H 	H 	0.33662 0.11224 0.12551 0.05900
H 	H 	0.35909 0.66596 0.46545 0.15100
C 	C 	0.34917 0.55528 0.64122 0.30900
H 	H 	0.35549 0.76452 0.67605 0.15400
H 	H 	0.36380 0.44149 0.72107 0.05700
C 	C 	0.35122 0.45280 0.61086 -0.00400
O 	O 	0.35110 0.55531 0.66326 -0.38200
O 	O 	0.37038 0.80705 0.86448 -0.38400
O 	O 	0.37308 0.78588 0.63570 -0.36100
C 	C 	0.37210 0.17938 0.18958 -0.04200
N 	N 	0.00783 0.25641 0.18590 -0.18100
O 	O 	0.38127 0.80819 0.47696 -0.37400
O 	O 	0.37351 0.51378 0.45336 -0.37400
O 	O 	0.37432 0.58923 0.70795 -0.37400
O 	O 	0.38119 0.53495 0.86986 -0.38300
C 	C 	0.36835 0.21064 0.31394 -0.07400
H 	H 	0.38187 0.19643 0.20756 0.05600
N 	N 	0.36417 0.80268 0.35677 -0.09700
O 	O 	0.37268 0.78831 0.72091 -0.36100
C 	C 	0.36817 0.48250 0.36908 0.00800
H 	H 	0.36887 0.38663 0.34511 0.05500
C 	C 	0.34243 0.34223 0.58245 0.07900
C 	C 	0.38167 0.25728 0.29281 0.01700
C 	C 	0.39601 0.24512 0.04142 0.00700
O 	O 	0.39489 0.85558 0.43000 -0.36000
H 	H 	0.36937 0.57828 0.50522 0.09100
Ni	Ni	0.39850 0.57677 0.90343 1.11200
H 	H 	0.37169 0.53635 0.53306 0.09400
N 	N 	0.39108 0.54293 0.51589 -0.19900
C 	C 	0.39195 0.40514 0.60073 0.00500
C 	C 	0.40091 0.58481 0.40318 0.30200
C 	C 	0.40833 0.19041 0.05749 -0.05800
C 	C 	0.39832 0.51491 0.62853 -0.06600
N 	N 	0.39822 0.65693 0.77150 -0.11400
C 	C 	0.40886 0.45453 0.35214 -0.01000
Ni	Ni	0.41852 0.67280 0.68042 1.12300
Ni	Ni	0.42112 0.77381 0.89221 1.12100
C 	C 	0.42398 0.56722 0.37996 -0.05900
C 	C 	0.42491 0.86382 0.36618 0.09100
O 	O 	0.43091 0.63785 0.93554 -0.36200
C 	C 	0.44170 0.56268 0.46834 0.29100
C 	C 	0.43856 0.17969 0.15234 -0.09500
C 	C 	0.44357 0.50666 0.50794 0.10900
C 	C 	0.00049 0.66416 0.32058 0.11900
C 	C 	0.45300 0.85322 0.41471 0.30300
C 	C 	0.45056 0.22534 0.32793 0.30300
C 	C 	0.45143 0.20236 0.17580 0.11300
C 	C 	0.45827 0.79584 0.71927 0.28400
H 	H 	0.45410 0.45642 0.54093 0.06100
O 	O 	0.46233 0.78157 0.41261 -0.38400
C 	C 	0.45998 0.80945 0.64237 0.27600
C 	C 	0.46223 0.72186 0.76430 0.08400
O 	O 	0.46595 0.26666 0.34785 -0.36300
O 	O 	0.46920 0.62331 0.41835 -0.38200
C 	C 	0.46943 0.33779 0.03759 0.08500
C 	C 	0.46997 0.51471 0.48471 -0.08400
C 	C 	0.47146 0.72746 0.93773 0.28100
C 	C 	0.47265 0.46110 0.52305 -0.04000
C 	C 	0.99606 0.51200 0.66511 -0.07100
C 	C 	0.99061 0.38467 0.92799 0.05800
H 	H 	0.48645 0.80163 0.54198 0.09500
O 	O 	0.99267 0.89497 0.95053 -0.39100
C 	C 	0.99186 0.68215 0.69791 0.03200
C 	C 	0.98344 0.81922 0.69644 -0.07300
N 	N 	0.97544 0.30438 0.68291 -0.11000
C 	C 	0.97441 0.15878 0.92057 -0.08600
O 	O 	0.97862 0.12698 0.95967 -0.39700
C 	C 	0.95076 0.09373 0.93955 0.30600
C 	C 	0.94741 0.22498 0.92330 -0.03400
N 	N 	0.97117 0.43825 0.93395 -0.10300
C 	C 	0.96098 0.35508 0.67300 0.08100
H 	H 	0.99457 0.99550 0.24641 0.14400
C 	C 	0.97116 0.57031 0.65395 -0.04400
H 	H 	0.99225 0.79658 0.29795 0.05100
O 	O 	0.91923 0.00656 0.93614 -0.37000
O 	O 	0.97990 0.99243 0.98531 -0.73500
O 	O 	0.96032 0.89304 0.73794 -0.39800
H 	H 	0.87968 0.20596 0.93114 0.05100
H 	H 	0.91263 0.78233 0.70357 0.06500
N 	N 	0.86121 0.65119 0.61706 -0.11300
C 	C 	0.59556 0.13083 0.54128 0.29600
C 	C 	0.81338 0.41926 0.60775 0.30500
C 	C 	0.58413 0.14602 0.60405 0.31000
C 	C 	0.86107 0.41892 0.54269 0.29500
C 	C 	0.53539 0.38858 0.59455 0.30200
C 	C 	0.56720 0.38762 0.53245 0.29000
Ni	Ni	0.74264 0.26759 0.57483 1.11300
Ni	Ni	0.71137 0.43975 0.56844 1.12200
Ni	Ni	0.53181 0.24069 0.56790 1.12100
O 	O 	0.65595 0.14429 0.55812 -0.38000
O 	O 	0.53660 0.16394 0.54199 -0.37700
O 	O 	0.59767 0.44553 0.57993 -0.38100
O 	O 	0.84066 0.37741 0.59357 -0.37700
O 	O 	0.74989 0.44132 0.60150 -0.37400
O 	O 	0.50573 0.31935 0.54576 -0.36800
O 	O 	0.66720 0.21844 0.60455 -0.38300
O 	O 	0.52091 0.13829 0.58875 -0.36700
O 	O 	0.65941 0.43544 0.53714 -0.38500
O 	O 	0.82819 0.33165 0.54698 -0.37600
O 	O 	0.84281 0.47015 0.55667 -0.37700
O 	O 	0.51435 0.30301 0.59522 -0.37400
O 	O 	0.66532 0.31353 0.56512 -0.71800
H 	H 	0.67165 0.30981 0.54851 0.15300
C 	C 	0.47461 0.84444 0.47689 0.29100
Ni	Ni	0.47917 0.71956 0.44004 1.12100
O 	O 	0.49867 0.65127 0.46548 -0.38200
O 	O 	0.52065 0.83425 0.45934 -0.37800
O 	O 	0.48993 0.78305 0.69971 -0.38300
O 	O 	0.48067 0.74874 0.65132 -0.35400
C 	C 	0.87306 0.87859 0.81673 0.29700
C 	C 	0.80898 0.93110 0.76216 0.31700
Ni	Ni	0.97611 0.06094 0.78952 1.10200
Ni	Ni	0.94979 0.86976 0.77178 1.11200
O 	O 	0.87999 0.95840 0.81167 -0.36700
O 	O 	0.92062 0.84629 0.80543 -0.39100
O 	O 	0.87645 0.01589 0.76365 -0.38700
O 	O 	0.82218 0.86586 0.77017 -0.38500
C 	C 	0.56154 0.72414 0.87727 0.31200
O 	O 	0.50282 0.78029 0.91945 -0.37300
O 	O 	0.53874 0.67082 0.89513 -0.37300
O 	O 	0.50672 0.75560 0.87050 -0.37700
C 	C 	0.74445 0.51566 0.07348 0.28300
C 	C 	0.51901 0.22194 0.13634 0.31200
C 	C 	0.76782 0.49902 0.13824 0.31400
C 	C 	0.48954 0.22991 0.07301 0.28900
C 	C 	0.80016 0.25149 0.12620 0.31500
C 	C 	0.80500 0.29079 0.06479 0.28900
Ni	Ni	0.60550 0.38439 0.10688 1.11500
Ni	Ni	0.63760 0.21305 0.09839 1.12100
Ni	Ni	0.81584 0.41237 0.10145 1.12100
O 	O 	0.65303 0.46795 0.07854 -0.35700
O 	O 	0.80981 0.52138 0.08820 -0.36800
O 	O 	0.70857 0.21876 0.12660 -0.39400
O 	O 	0.57275 0.31018 0.13664 -0.38300
O 	O 	0.52170 0.17460 0.11881 -0.37400
O 	O 	0.83264 0.37567 0.07042 -0.38500
O 	O 	0.70288 0.49877 0.12491 -0.37300
O 	O 	0.80275 0.44599 0.13378 -0.38700
O 	O 	0.74102 0.21959 0.07696 -0.37600
O 	O 	0.48747 0.27894 0.09045 -0.36700
O 	O 	0.54989 0.19869 0.07230 -0.37000
O 	O 	0.85582 0.32539 0.11442 -0.38700
O 	O 	0.68330 0.33906 0.09695 -0.72000
H 	H 	0.67913 0.34419 0.08033 0.16400
C 	C 	0.94606 0.81221 0.19623 0.28600
C 	C 	0.92683 0.80815 0.25661 0.26600
C 	C 	0.92016 0.05880 0.18591 0.28600
C 	C 	0.87462 0.06492 0.24707 0.28400
Ni	Ni	0.87617 0.91605 0.22144 1.11500
O 	O 	0.85356 0.99412 0.19860 -0.36500
O 	O 	0.91439 0.86897 0.19422 -0.38800
O 	O 	0.93970 0.12083 0.23239 -0.38900
O 	O 	0.83810 0.97526 0.24591 -0.37000
O 	O 	0.86230 0.81064 0.24258 -0.35700
C 	C 	0.55928 0.46153 0.34267 0.29000
C 	C 	0.71480 0.24590 0.29740 0.30500
C 	C 	0.82820 0.49570 0.30412 0.28000
C 	C 	0.65125 0.18749 0.36865 0.30300
C 	C 	0.79905 0.44750 0.38118 0.28200
Ni	Ni	0.62592 0.35915 0.30954 1.12500
Ni	Ni	0.78128 0.34396 0.33964 1.12500
Ni	Ni	0.59715 0.32664 0.36385 1.12200
O 	O 	0.54739 0.41863 0.32279 -0.34900
O 	O 	0.59641 0.44372 0.36062 -0.37900
O 	O 	0.74008 0.25224 0.36555 -0.36700
O 	O 	0.69234 0.30465 0.28920 -0.35800
O 	O 	0.71474 0.23522 0.31926 -0.38400
O 	O 	0.70982 0.38350 0.38620 -0.36600
O 	O 	0.52216 0.23063 0.31724 -0.37500
O 	O 	0.84239 0.44295 0.36251 -0.37500
O 	O 	0.74159 0.48276 0.30387 -0.36500
O 	O 	0.84812 0.43321 0.31250 -0.35500
O 	O 	0.58106 0.20269 0.36506 -0.38100
O 	O 	0.67961 0.36748 0.33820 -0.72000
H 	H 	0.71365 0.43336 0.34094 0.17100
C 	C 	0.74755 0.91727 0.99436 0.30400
C 	C 	0.87557 0.80166 0.00768 0.28700
C 	C 	0.98711 0.17649 0.00817 0.30100
Ni	Ni	0.88880 0.91585 0.96392 1.11300
Ni	Ni	0.93871 0.99020 0.01575 1.12400
O 	O 	0.91763 0.09423 0.01144 -0.38700
O 	O 	0.79197 0.95086 0.97531 -0.37600
O 	O 	0.79405 0.91021 0.01186 -0.36300
O 	O 	0.83914 0.80306 0.98708 -0.35400
O 	O 	0.94435 0.87579 0.01681 -0.38300
C 	C 	0.47434 0.31717 0.28347 0.03900
N 	N 	0.54712 0.36503 0.27526 -0.15500
C 	C 	0.89624 0.56933 0.28953 -0.04800
C 	C 	0.86865 0.56628 0.26672 -0.01300
C 	C 	0.85998 0.63847 0.25778 0.00400
C 	C 	0.90511 0.72340 0.26895 -0.05400
C 	C 	0.95261 0.73111 0.28970 -0.00400
C 	C 	0.95090 0.65495 0.29952 -0.02400
H 	H 	0.83394 0.50133 0.25801 0.05000
C 	C 	0.78944 0.61909 0.24052 0.09300
N 	N 	0.73130 0.60222 0.22700 -0.11600
C 	C 	0.82741 0.10214 0.26121 -0.05600
C 	C 	0.87868 0.16052 0.27907 -0.01500
C 	C 	0.84708 0.21458 0.28949 0.01200
C 	C 	0.75993 0.20724 0.28283 -0.07000
C 	C 	0.70851 0.14901 0.26485 -0.00500
C 	C 	0.74207 0.09693 0.25390 0.00400
H 	H 	0.94575 0.16681 0.28423 0.04500
H 	H 	0.64142 0.14261 0.25972 0.04600
C 	C 	0.68966 0.03987 0.23490 0.08500
C 	C 	0.90545 0.27857 0.30681 0.06400
N 	N 	0.64778 0.99422 0.21966 -0.10800
N 	N 	0.95245 0.32955 0.32070 -0.12700
C 	C 	0.82351 0.72353 0.02315 -0.05600
C 	C 	0.80498 0.63704 0.01646 -0.00600
C 	C 	0.77946 0.56817 0.03278 0.00500
C 	C 	0.77323 0.58635 0.05601 -0.05200
C 	C 	0.78727 0.67099 0.06249 -0.00600
C 	C 	0.81056 0.73893 0.04636 0.01300
H 	H 	0.81417 0.62434 0.99878 0.04800
H 	H 	0.77905 0.68378 0.08024 0.05100
C 	C 	0.82020 0.82419 0.05381 0.07700
C 	C 	0.76123 0.47985 0.02559 0.08600
N 	N 	0.82798 0.89221 0.06001 -0.13000
N 	N 	0.74649 0.40905 0.01975 -0.10600
N 	N 	0.52800 0.41204 0.03446 -0.10200
C 	C 	0.86217 0.27642 0.04784 -0.04500
C 	C 	0.95642 0.30214 0.05315 -0.04500
C 	C 	0.97410 0.25105 0.01590 -0.09900
C 	C 	0.89010 0.24808 0.00894 0.01100
C 	C 	0.82947 0.25128 0.02535 -0.00400
H 	H 	0.98448 0.32848 0.06996 0.05000
H 	H 	0.86389 0.22565 0.99178 0.04700
C 	C 	0.73161 0.21952 0.01960 0.09300
N 	N 	0.65313 0.19378 0.01501 -0.10400
C 	C 	0.91496 0.25204 0.15403 -0.03100
C 	C 	0.84099 0.20346 0.13867 -0.09900
C 	C 	0.79871 0.10778 0.13747 0.11600
C 	C 	0.82372 0.06196 0.15350 -0.04700
C 	C 	0.89444 0.11011 0.16974 -0.07700
C 	C 	0.94098 0.20679 0.16999 0.08700
H 	H 	0.94857 0.32539 0.15460 0.04600
H 	H 	0.78981 0.98860 0.15290 0.05700
N 	N 	0.73697 0.06001 0.12048 -0.20000
H 	H 	0.72698 0.09260 0.10659 0.08600
H 	H 	0.70248 0.98918 0.12034 0.09200
N 	N 	0.53930 0.24327 0.18532 -0.20000
H 	H 	0.54877 0.26341 0.20239 0.09500
H 	H 	0.59814 0.25142 0.17622 0.10700
C 	C 	0.91138 0.61716 0.15811 -0.03200
C 	C 	0.81222 0.56934 0.15600 -0.10000
C 	C 	0.75775 0.59792 0.16853 0.12000
C 	C 	0.80334 0.68068 0.18019 -0.04300
C 	C 	0.90226 0.72887 0.18236 -0.08400
C 	C 	0.95727 0.69775 0.17088 0.09000
H 	H 	0.95329 0.59478 0.14866 0.04100
H 	H 	0.76137 0.70566 0.18855 0.05000
N 	N 	0.66215 0.54444 0.17021 -0.19900
H 	H 	0.62805 0.47698 0.16480 0.10000
H 	H 	0.62175 0.56807 0.17848 0.09400
C 	C 	0.50772 0.76946 0.96045 -0.05700
C 	C 	0.53056 0.72301 0.97682 -0.01300
C 	C 	0.59578 0.77176 0.99414 0.00400
C 	C 	0.64323 0.86711 0.99383 -0.06700
C 	C 	0.59945 0.90845 0.98229 -0.00500
C 	C 	0.53558 0.86170 0.96460 0.00300
H 	H 	0.50062 0.65016 0.97564 0.05400
H 	H 	0.62723 0.98081 0.98426 0.05200
C 	C 	0.50599 0.91087 0.94983 0.08300
C 	C 	0.60526 0.72403 0.01328 0.09200
N 	N 	0.48373 0.95148 0.93801 -0.11500
N 	N 	0.61099 0.68469 0.02870 -0.10500
C 	C 	0.64073 0.70791 0.84315 -0.03900
C 	C 	0.64868 0.74811 0.86447 -0.09400
C 	C 	0.73757 0.81994 0.87169 0.11300
C 	C 	0.81443 0.85595 0.85646 -0.04400
C 	C 	0.80382 0.82150 0.83426 -0.08600
C 	C 	0.71774 0.74299 0.82804 0.10900
N 	N 	0.70793 0.70189 0.80753 -0.19800
H 	H 	0.57330 0.65094 0.83797 0.05500
H 	H 	0.88125 0.91405 0.86151 0.05200
N 	N 	0.74918 0.85584 0.89296 -0.20400
H 	H 	0.64225 0.64808 0.80251 0.09100
H 	H 	0.76569 0.71937 0.79690 0.09100
H 	H 	0.69477 0.82841 0.90497 0.10300
H 	H 	0.81424 0.91078 0.89787 0.09700
C 	C 	0.53037 0.84832 0.73662 -0.05200
C 	C 	0.60620 0.93303 0.73021 -0.01300
C 	C 	0.69775 0.96201 0.73847 0.02200
C 	C 	0.71208 0.90958 0.75508 -0.07300
C 	C 	0.63268 0.83356 0.76445 -0.00300
C 	C 	0.54204 0.80290 0.75530 -0.00400
H 	H 	0.59613 0.97082 0.71666 0.05400
H 	H 	0.64179 0.79665 0.77837 0.04900
C 	C 	0.77658 0.04166 0.72859 0.07500
N 	N 	0.83961 0.10544 0.72064 -0.10500
N 	N 	0.96132 0.61142 0.70626 -0.09500
C 	C 	0.50537 0.50802 0.34698 -0.05600
C 	C 	0.51265 0.62854 0.37061 -0.00400
C 	C 	0.55370 0.59903 0.35416 0.00500
H 	H 	0.55274 0.69670 0.37746 0.04800
C 	C 	0.64846 0.66012 0.34618 0.08500
N 	N 	0.72443 0.70898 0.33977 -0.10800
C 	C 	0.86020 0.51094 0.39901 -0.05300
C 	C 	0.93190 0.59696 0.39186 -0.03300
C 	C 	0.96573 0.51194 0.42833 -0.02700
C 	C 	0.87398 0.47622 0.41949 0.00500
H 	H 	0.91853 0.62997 0.37769 0.05300
H 	H 	0.97744 0.48107 0.44317 0.04600
C 	C 	0.79515 0.40297 0.43120 0.08800
N 	N 	0.73195 0.34430 0.44063 -0.12000
C 	C 	0.62858 0.09746 0.37737 -0.06000
C 	C 	0.55821 0.02053 0.36596 -0.01500
C 	C 	0.50075 0.94007 0.37795 0.01400
C 	C 	0.51559 0.93540 0.40143 -0.05900
C 	C 	0.59438 0.00770 0.41202 -0.01900
C 	C 	0.65186 0.08814 0.39997 0.00300
H 	H 	0.54282 0.02591 0.34823 0.05600
H 	H 	0.61136 0.00112 0.42951 0.04200
C 	C 	0.73547 0.15976 0.41071 0.08600
N 	N 	0.80282 0.21688 0.41930 -0.11100
C 	C 	0.48087 0.41958 0.60833 -0.05900
C 	C 	0.52713 0.48069 0.62613 -0.00800
C 	C 	0.48763 0.52935 0.63600 0.01300
H 	H 	0.59635 0.49346 0.63167 0.05300
C 	C 	0.54080 0.59597 0.65333 0.07000
N 	N 	0.58366 0.64911 0.66722 -0.13000
C 	C 	0.85922 0.44713 0.63022 -0.07100
C 	C 	0.87536 0.38622 0.64300 -0.00400
C 	C 	0.94285 0.41819 0.66060 0.00500
C 	C 	0.90144 0.53807 0.63716 0.01700
H 	H 	0.83908 0.31486 0.63849 0.04600
C 	C 	0.87906 0.60084 0.62598 0.07500
C 	C 	0.57192 0.06407 0.61579 -0.08500
C 	C 	0.58463 0.99995 0.60357 0.02000
C 	C 	0.56815 0.91936 0.61406 -0.00400
C 	C 	0.53532 0.90122 0.63668 -0.05300
C 	C 	0.54152 0.97279 0.64997 -0.00400
C 	C 	0.55691 0.05332 0.63950 0.00200
H 	H 	0.60671 0.01241 0.58596 0.03000
H 	H 	0.52262 0.96147 0.66787 0.04600
C 	C 	0.55404 0.12283 0.65305 0.08300
C 	C 	0.57670 0.85197 0.60092 0.09000
N 	N 	0.55177 0.17857 0.66390 -0.10400
N 	N 	0.58346 0.79790 0.59040 -0.11200
C 	C 	0.52868 0.42481 0.51547 -0.08200
C 	C 	0.55387 0.43170 0.49216 0.10900
C 	C 	0.52422 0.47674 0.47701 -0.03900
H 	H 	0.54367 0.48242 0.45917 0.05600
N 	N 	0.60525 0.39440 0.48417 -0.19900
H 	H 	0.62448 0.35679 0.49470 0.09200
H 	H 	0.62494 0.40131 0.46702 0.09600
C 	C 	0.56678 0.00777 0.48542 -0.05800
C 	C 	0.52854 0.91819 0.49307 -0.07300
C 	C 	0.52257 0.90027 0.51668 0.10200
C 	C 	0.54579 0.97101 0.53220 -0.02200
C 	C 	0.57701 0.05957 0.52450 -0.10400
C 	C 	0.58934 0.07861 0.50089 0.11700
N 	N 	0.62083 0.16403 0.49292 -0.20100
H 	H 	0.57182 0.02138 0.46730 0.05500
H 	H 	0.53700 0.95656 0.55028 0.05300
N 	N 	0.49396 0.81520 0.52450 -0.19800
H 	H 	0.63131 0.17762 0.47546 0.09300
H 	H 	0.63400 0.21740 0.50384 0.08800
H 	H 	0.48203 0.76257 0.51338 0.09200
C 	C 	0.93904 0.46401 0.52606 -0.10600
C 	C 	0.93435 0.42347 0.50469 0.09300
N 	N 	0.85023 0.35777 0.49621 -0.19600
H 	H 	0.84771 0.32481 0.48097 0.09000
H 	H 	0.78638 0.34370 0.50377 0.09000
