data_crystal

_cell_length_a 12.77999
_cell_length_b 12.80370
_cell_length_c 18.54993
_cell_angle_alpha 90.00545
_cell_angle_beta  89.99093
_cell_angle_gamma 100.39206

_symmetry_space_group_name_	'P 1'
_symmetry_space_group_name_H-M	'P 1'

loop_
_symmetry_equiv_pos_as_xyz
  x,y,z

loop_
_atom_site_label
_atom_site_type_symbol
_atom_site_fract_x
_atom_site_fract_y
_atom_site_fract_z
_atom_site_charge
Ni	Ni	0.38832 0.64191 0.83196 1.10000
O 	O 	0.34646 0.76078 0.77106 -0.70100
Ni	Ni	0.30168 0.68328 0.67881 1.09800
O 	O 	0.47304 0.74156 0.90653 -0.37400
O 	O 	0.57044 0.83988 0.81899 -0.41200
O 	O 	0.25825 0.63909 0.89872 -0.37000
Ni	Ni	0.45737 0.88446 0.75037 1.06700
O 	O 	0.24900 0.42305 0.87076 -0.40800
O 	O 	0.54231 0.84892 0.66142 -0.39700
O 	O 	0.28547 0.80673 0.61014 -0.38400
O 	O 	0.32863 0.56239 0.74408 -0.70200
O 	O 	0.42006 0.51411 0.88653 -0.37900
O 	O 	0.24372 0.57618 0.59988 -0.37400
O 	O 	0.11792 0.48617 0.67594 -0.41100
Ni	Ni	0.19939 0.46544 0.77103 1.06400
H 	H 	0.28414 0.78540 0.79231 0.15500
H 	H 	0.38102 0.52253 0.72331 0.15700
C 	C 	0.51434 0.76645 0.61881 0.29900
O 	O 	0.13317 0.58441 0.81303 -0.42200
C 	C 	0.54956 0.81979 0.88761 0.26700
C 	C 	0.32994 0.90757 0.62079 0.28400
C 	C 	0.15802 0.61976 0.87803 0.28700
C 	C 	0.16239 0.49862 0.61147 0.26900
C 	C 	0.34953 0.42502 0.89008 0.27200
O 	O 	0.45121 0.68153 0.64203 -0.40000
O 	O 	0.35432 0.94429 0.68638 -0.42500
Ni	Ni	0.64764 0.35923 0.33201 1.10000
O 	O 	0.68943 0.24035 0.27106 -0.70100
Ni	Ni	0.73423 0.31787 0.17883 1.09800
O 	O 	0.56288 0.25958 0.40658 -0.37500
O 	O 	0.46543 0.16133 0.31904 -0.41300
O 	O 	0.77770 0.36198 0.39875 -0.37100
Ni	Ni	0.57846 0.11672 0.25037 1.06700
O 	O 	0.78702 0.57807 0.37080 -0.40900
O 	O 	0.49355 0.15233 0.16144 -0.39700
O 	O 	0.75039 0.19442 0.11012 -0.38400
O 	O 	0.70735 0.43876 0.24414 -0.70200
O 	O 	0.61595 0.48704 0.38663 -0.37900
O 	O 	0.79223 0.42497 0.09990 -0.37400
O 	O 	0.91806 0.51491 0.17595 -0.41100
Ni	Ni	0.83662 0.53567 0.27106 1.06400
H 	H 	0.75173 0.21569 0.29229 0.15400
H 	H 	0.65497 0.47864 0.22339 0.15700
C 	C 	0.52157 0.23481 0.11884 0.29900
O 	O 	0.90278 0.41667 0.31303 -0.42300
C 	C 	0.48633 0.18139 0.38766 0.26800
C 	C 	0.70590 0.09358 0.12076 0.28400
C 	C 	0.87793 0.38134 0.37804 0.28800
C 	C 	0.87358 0.50250 0.11149 0.26900
C 	C 	0.68649 0.57613 0.39013 0.27100
O 	O 	0.58472 0.31970 0.14208 -0.40000
O 	O 	0.68149 0.05686 0.18634 -0.42500
C 	C 	0.09733 0.65804 0.00169 -0.01400
C 	C 	0.07329 0.61415 0.93296 -0.06500
C 	C 	0.97289 0.55099 0.92071 -0.01700
C 	C 	0.90338 0.52116 0.97828 -0.01000
C 	C 	0.93353 0.55417 0.04874 -0.07000
C 	C 	0.02777 0.62834 0.05929 -0.01200
H 	H 	0.17212 0.71118 0.01129 0.04200
H 	H 	0.95099 0.52005 0.86741 0.03400
H 	H 	0.82845 0.46839 0.96846 0.04400
H 	H 	0.04948 0.65943 0.11259 0.03000
C 	C 	0.13255 0.48001 0.47826 -0.01400
C 	C 	0.10242 0.44698 0.54872 -0.06600
C 	C 	0.00819 0.37279 0.55928 -0.01200
C 	C 	0.93863 0.34309 0.50169 -0.01100
C 	C 	0.96266 0.38699 0.43296 -0.07200
C 	C 	0.06305 0.45018 0.42070 -0.01100
H 	H 	0.20747 0.53280 0.46844 0.04500
H 	H 	0.98650 0.34168 0.61257 0.03000
H 	H 	0.86385 0.28993 0.51129 0.04100
H 	H 	0.08493 0.48114 0.36740 0.03300
C 	C 	0.33666 0.94399 0.48789 -0.01500
C 	C 	0.34445 0.98243 0.55908 -0.07100
C 	C 	0.38022 0.09143 0.57113 -0.01500
C 	C 	0.41901 0.15831 0.51395 -0.01300
C 	C 	0.42305 0.11711 0.44405 -0.07000
C 	C 	0.37716 0.01066 0.43073 -0.01800
H 	H 	0.30310 0.86170 0.47701 0.03900
H 	H 	0.38195 0.12373 0.62517 0.02900
H 	H 	0.44978 0.24139 0.52454 0.04300
H 	H 	0.37696 0.97831 0.37676 0.02000
C 	C 	0.61686 0.84285 0.01390 -0.01600
C 	C 	0.61284 0.88406 0.94400 -0.06800
C 	C 	0.65872 0.99051 0.93069 -0.01800
C 	C 	0.69922 0.05717 0.98785 -0.01300
C 	C 	0.69142 0.01873 0.05904 -0.07200
C 	C 	0.65565 0.90973 0.07108 -0.01400
H 	H 	0.58610 0.75977 0.02448 0.04300
H 	H 	0.65894 0.02286 0.87672 0.01900
H 	H 	0.73279 0.13946 0.97699 0.03900
H 	H 	0.65391 0.87742 0.12512 0.02800
C 	C 	0.47244 0.30714 0.92923 -0.01600
C 	C 	0.37442 0.34043 0.93711 -0.06900
C 	C 	0.31343 0.31158 0.99938 -0.00800
C 	C 	0.35673 0.26291 0.05701 -0.01100
C 	C 	0.46113 0.24338 0.05260 -0.07200
C 	C 	0.51603 0.25968 0.98697 -0.01000
H 	H 	0.51904 0.32652 0.88067 0.02500
H 	H 	0.23652 0.33486 0.00561 0.04100
H 	H 	0.31281 0.24903 0.10711 0.03800
H 	H 	0.59654 0.24500 0.98293 0.03300
C 	C 	0.51999 0.74160 0.48694 -0.01100
C 	C 	0.57485 0.75790 0.55258 -0.07100
C 	C 	0.67923 0.73837 0.55701 -0.00800
C 	C 	0.72256 0.68966 0.49939 -0.01200
C 	C 	0.66160 0.66078 0.43712 -0.06800
C 	C 	0.56360 0.69410 0.42922 -0.01600
H 	H 	0.43949 0.75630 0.48289 0.03300
H 	H 	0.72312 0.75226 0.60711 0.03700
H 	H 	0.79946 0.66636 0.50563 0.04300
H 	H 	0.51702 0.67471 0.38066 0.02500
