data_crystal

_cell_length_a 18.73666
_cell_length_b 18.86246
_cell_length_c 26.59236
_cell_angle_alpha 95.45675
_cell_angle_beta  95.45738
_cell_angle_gamma 126.43958

_symmetry_space_group_name_	'P 1'
_symmetry_space_group_name_H-M	'P 1'

loop_
_symmetry_equiv_pos_as_xyz
  x,y,z

loop_
_atom_site_label
_atom_site_type_symbol
_atom_site_fract_x
_atom_site_fract_y
_atom_site_fract_z
_atom_site_charge
C 	C 	0.98699 0.06785 0.00869 0.27700
C 	C 	0.08029 0.11352 0.01079 -0.16000
C 	C 	0.11492 0.06475 0.00624 0.26500
C 	C 	0.05617 0.97105 0.99898 -0.18100
C 	C 	0.96400 0.92591 0.99811 0.27100
C 	C 	0.92933 0.97408 0.00300 -0.17600
H 	H 	0.12522 0.18602 0.01529 0.14600
H 	H 	0.08244 0.93321 0.99466 0.14100
H 	H 	0.85750 0.93865 0.00163 0.14200
C 	C 	0.88572 0.98182 0.45009 0.14300
C 	C 	0.97979 0.03565 0.45457 -0.01800
C 	C 	0.02477 0.99749 0.45732 0.12300
C 	C 	0.97628 0.90541 0.45584 -0.05900
C 	C 	0.88233 0.85056 0.45138 0.18400
C 	C 	0.83650 0.88872 0.44869 -0.07800
H 	H 	0.01797 0.10732 0.45598 0.10200
H 	H 	0.01167 0.87625 0.45807 0.10200
H 	H 	0.76378 0.84668 0.44560 0.12400
Cu	Cu	0.65550 0.23658 0.01478 0.93300
Cu	Cu	0.72072 0.23303 0.90472 0.90500
Cu	Cu	0.69656 0.36807 0.94116 0.91000
Cu	Cu	0.66151 0.40746 0.04690 0.91700
C 	C 	0.66246 0.29828 0.11940 0.29300
O 	O 	0.52239 0.17652 0.01476 -0.32800
C 	C 	0.65975 0.29335 0.82985 0.29500
O 	O 	0.72526 0.37506 0.01368 -0.63100
O 	O 	0.63778 0.23788 0.93993 -0.63100
O 	O 	0.72058 0.18179 0.01557 -0.32500
O 	O 	0.80977 0.27132 0.96298 -0.39300
O 	O 	0.68535 0.37745 0.11305 -0.34200
O 	O 	0.76184 0.49653 0.94754 -0.33800
C 	C 	0.75688 0.54561 0.98373 0.40000
C 	C 	0.48669 0.21735 0.00476 0.37100
O 	O 	0.53722 0.29877 0.99534 -0.35300
O 	O 	0.69341 0.50796 0.01159 -0.34700
O 	O 	0.68308 0.25587 0.08884 -0.31600
C 	C 	0.79297 0.21628 0.99466 0.38700
O 	O 	0.68661 0.36255 0.86574 -0.34000
O 	O 	0.65789 0.22593 0.84140 -0.37900
H 	H 	0.79100 0.41429 0.02765 0.19700
H 	H 	0.57418 0.19796 0.92145 0.20000
Cu	Cu	0.71621 0.31429 0.43455 0.93100
Cu	Cu	0.75193 0.27128 0.55028 0.90800
Cu	Cu	0.58749 0.27671 0.50898 0.92000
Cu	Cu	0.55204 0.32187 0.40932 0.91800
C 	C 	0.63257 0.28505 0.32935 0.30200
O 	O 	0.77597 0.44793 0.43579 -0.31800
C 	C 	0.64107 0.28293 0.61301 0.28900
O 	O 	0.57833 0.24954 0.43621 -0.63600
O 	O 	0.71758 0.33172 0.51013 -0.62700
O 	O 	0.75834 0.23705 0.42774 -0.32600
O 	O 	0.83405 0.28176 0.51042 -0.37400
O 	O 	0.60359 0.33038 0.34604 -0.33800
O 	O 	0.46004 0.21594 0.50578 -0.34000
C 	C 	0.40787 0.21586 0.46870 0.39900
C 	C 	0.74071 0.48541 0.45504 0.38200
O 	O 	0.66029 0.43481 0.46665 -0.36400
O 	O 	0.44218 0.27693 0.43923 -0.34500
O 	O 	0.69185 0.28456 0.36033 -0.32500
C 	C 	0.80311 0.22924 0.46535 0.38600
O 	O 	0.60712 0.31108 0.58271 -0.33000
O 	O 	0.66049 0.23115 0.59291 -0.38000
H 	H 	0.53500 0.18477 0.42099 0.18900
H 	H 	0.75608 0.39604 0.52628 0.18500
C 	C 	0.71042 0.37340 0.75667 -0.03000
C 	C 	0.64378 0.29756 0.77503 -0.07000
C 	C 	0.56906 0.22170 0.73969 0.13600
C 	C 	0.56830 0.21884 0.68662 -0.02800
C 	C 	0.63833 0.29223 0.66834 -0.06900
C 	C 	0.70824 0.37166 0.70354 0.12700
N 	N 	0.77411 0.44580 0.68672 -0.19800
H 	H 	0.76631 0.43257 0.78375 0.08400
H 	H 	0.51312 0.15921 0.65950 0.08300
N 	N 	0.49716 0.15257 0.75640 -0.19600
H 	H 	0.82638 0.50355 0.71303 0.13000
H 	H 	0.77340 0.44752 0.64757 0.11400
H 	H 	0.49125 0.15707 0.79502 0.12800
H 	H 	0.44395 0.09514 0.73026 0.13100
C 	C 	0.56269 0.26775 0.23992 -0.02500
C 	C 	0.61901 0.25825 0.27244 -0.06900
C 	C 	0.67135 0.23676 0.25013 0.14700
C 	C 	0.68443 0.24876 0.19943 -0.03400
C 	C 	0.63669 0.27009 0.16884 -0.05400
C 	C 	0.57079 0.27364 0.18829 0.14000
N 	N 	0.51555 0.28317 0.15774 -0.18900
H 	H 	0.51489 0.27429 0.25528 0.08300
H 	H 	0.73072 0.24024 0.18368 0.10400
N 	N 	0.70114 0.19661 0.27487 -0.19500
H 	H 	0.46871 0.28796 0.17277 0.13500
H 	H 	0.51633 0.28294 0.11856 0.11700
H 	H 	0.67117 0.16323 0.30448 0.15100
H 	H 	0.74669 0.18891 0.26056 0.15900
C 	C 	0.81569 0.72059 0.49632 0.24700
C 	C 	0.83317 0.75343 0.45024 -0.12700
C 	C 	0.82342 0.69868 0.40617 0.24600
C 	C 	0.79898 0.61311 0.40854 0.29100
C 	C 	0.78300 0.58089 0.45489 -0.20400
C 	C 	0.79102 0.63497 0.49869 0.29200
F 	F 	0.77468 0.60434 0.54360 -0.38300
F 	F 	0.82605 0.77312 0.53937 -0.35600
F 	F 	0.78826 0.56052 0.36540 -0.37600
F 	F 	0.84047 0.72969 0.36141 -0.35500
C 	C 	0.84103 0.06520 0.40678 0.23600
C 	C 	0.84026 0.02462 0.44870 -0.09600
C 	C 	0.81649 0.04362 0.49375 0.24000
C 	C 	0.80146 0.10822 0.49855 0.29600
C 	C 	0.81043 0.15487 0.45830 -0.21400
C 	C 	0.82694 0.13054 0.41166 0.30300
F 	F 	0.83333 0.17288 0.37186 -0.37700
F 	F 	0.86123 0.04544 0.36241 -0.34700
F 	F 	0.77892 0.12599 0.54249 -0.41800
F 	F 	0.81320 0.00334 0.53408 -0.34800
C 	C 	0.18113 0.10256 0.50805 0.23600
C 	C 	0.12279 0.05370 0.46040 -0.09800
C 	C 	0.15818 0.05683 0.41582 0.24000
C 	C 	0.25145 0.10878 0.41877 0.30000
C 	C 	0.31005 0.15809 0.46637 -0.21100
C 	C 	0.27455 0.15470 0.51107 0.30500
F 	F 	0.33061 0.20356 0.55715 -0.37000
F 	F 	0.14711 0.09946 0.55136 -0.35500
F 	F 	0.28514 0.11081 0.37546 -0.38600
F 	F 	0.10193 0.00933 0.36965 -0.34300
C 	C 	0.86258 0.77134 0.94610 0.25900
C 	C 	0.90479 0.82832 0.99448 -0.15900
C 	C 	0.89942 0.79235 0.03897 0.26200
C 	C 	0.85330 0.70017 0.03516 0.28800
C 	C 	0.81144 0.64296 0.98680 -0.20000
C 	C 	0.81588 0.67886 0.94223 0.29400
F 	F 	0.77350 0.62401 0.89537 -0.37000
F 	F 	0.86797 0.80587 0.90285 -0.36200
F 	F 	0.84991 0.66624 0.07846 -0.38200
F 	F 	0.94083 0.84726 0.08584 -0.35000
C 	C 	0.87854 0.16842 0.95646 0.28600
C 	C 	0.84598 0.18150 0.99928 -0.19900
C 	C 	0.86621 0.16337 0.04644 0.29100
C 	C 	0.91674 0.13078 0.05037 0.26200
C 	C 	0.94801 0.11670 0.00734 -0.16000
C 	C 	0.92990 0.13708 0.96070 0.26700
F 	F 	0.95887 0.12276 0.91875 -0.35000
F 	F 	0.85771 0.18309 0.91019 -0.40600
F 	F 	0.93390 0.11128 0.09571 -0.35300
F 	F 	0.83752 0.17782 0.08848 -0.37000
C 	C 	0.34756 0.12651 0.04211 0.28000
C 	C 	0.38922 0.17126 0.00252 -0.20600
C 	C 	0.34101 0.18346 0.96502 0.29000
C 	C 	0.25318 0.15338 0.96791 0.26100
C 	C 	0.21254 0.11092 0.00832 -0.16000
C 	C 	0.26073 0.09874 0.04580 0.25400
F 	F 	0.22231 0.05790 0.08515 -0.36100
F 	F 	0.39155 0.11080 0.07738 -0.38800
F 	F 	0.20643 0.16290 0.93051 -0.35800
F 	F 	0.37905 0.22365 0.92542 -0.37900
