data_crystal

_cell_length_a 26.00071
_cell_length_b 26.53404
_cell_length_c 34.54428
_cell_angle_alpha 95.51517
_cell_angle_beta  95.51294
_cell_angle_gamma 125.78735

_symmetry_space_group_name_	'P 1'
_symmetry_space_group_name_H-M	'P 1'

loop_
_symmetry_equiv_pos_as_xyz
  x,y,z

loop_
_atom_site_label
_atom_site_type_symbol
_atom_site_fract_x
_atom_site_fract_y
_atom_site_fract_z
_atom_site_charge
C 	C 	0.96218 0.02174 0.98445 0.02800
C 	C 	0.93215 0.95898 0.98936 -0.07300
C 	C 	0.96553 0.93258 0.98771 0.02700
C 	C 	0.02972 0.96940 0.98239 -0.07600
C 	C 	0.06025 0.03226 0.97762 0.02800
C 	C 	0.02611 0.05814 0.97816 -0.07400
H 	H 	0.88291 0.93074 0.99439 0.05000
H 	H 	0.05585 0.94918 0.98194 0.04900
H 	H 	0.04917 0.10633 0.97376 0.04800
C 	C 	0.93353 0.00166 0.46134 0.02100
C 	C 	0.99939 0.03604 0.45959 -0.06300
C 	C 	0.02956 0.00632 0.46007 0.01600
C 	C 	0.99407 0.94217 0.46238 -0.06400
C 	C 	0.92860 0.90769 0.46498 0.02000
C 	C 	0.89814 0.93736 0.46417 -0.06900
H 	H 	0.02721 0.08596 0.45830 0.04500
H 	H 	0.01758 0.91928 0.46267 0.04500
H 	H 	0.84750 0.91084 0.46611 0.04700
Cu	Cu	0.63849 0.23969 0.00276 0.92600
Cu	Cu	0.68578 0.24746 0.91748 0.87000
Cu	Cu	0.68671 0.35072 0.95998 0.89700
Cu	Cu	0.65816 0.36373 0.04107 0.89300
C 	C 	0.66261 0.27689 0.08718 0.28300
O 	O 	0.54819 0.21319 0.00433 -0.36600
C 	C 	0.66147 0.31801 0.87214 0.28400
O 	O 	0.70088 0.33914 0.01285 -0.64100
O 	O 	0.63290 0.25642 0.94864 -0.64200
O 	O 	0.66786 0.18592 0.99296 -0.37100
O 	O 	0.74340 0.25341 0.95908 -0.43900
O 	O 	0.63927 0.30891 0.08142 -0.38400
O 	O 	0.74256 0.44177 0.97442 -0.38200
C 	C 	0.73573 0.47535 0.00130 0.28400
C 	C 	0.53016 0.24784 0.99374 0.28100
O 	O 	0.57374 0.30831 0.99396 -0.39200
O 	O 	0.70895 0.45289 0.03218 -0.39400
O 	O 	0.65843 0.23865 0.05748 -0.36000
C 	C 	0.72208 0.20866 0.98013 0.28500
O 	O 	0.68705 0.36245 0.90430 -0.38800
O 	O 	0.64942 0.26267 0.87368 -0.42000
H 	H 	0.74677 0.36064 0.02460 0.16400
H 	H 	0.58860 0.23604 0.93407 0.17100
Cu	Cu	0.74088 0.34380 0.45779 0.92600
Cu	Cu	0.74302 0.31406 0.54784 0.87000
Cu	Cu	0.63399 0.30815 0.50498 0.89700
Cu	Cu	0.61430 0.32612 0.42175 0.89300
C 	C 	0.69311 0.30759 0.37361 0.28300
O 	O 	0.77178 0.43229 0.45115 -0.36100
C 	C 	0.67604 0.34489 0.59266 0.28300
O 	O 	0.63971 0.28635 0.45192 -0.64000
O 	O 	0.73023 0.35942 0.51258 -0.64100
O 	O 	0.79252 0.31127 0.46835 -0.37300
O 	O 	0.72912 0.24923 0.50948 -0.44000
O 	O 	0.66212 0.33261 0.37832 -0.38400
O 	O 	0.54063 0.25358 0.49413 -0.38300
C 	C 	0.50366 0.25131 0.46385 0.28600
C 	C 	0.73885 0.45370 0.45994 0.27900
O 	O 	0.67861 0.41416 0.46393 -0.39100
O 	O 	0.52830 0.28774 0.43718 -0.39500
O 	O 	0.73490 0.31538 0.40317 -0.36200
C 	C 	0.77059 0.26248 0.48606 0.28400
O 	O 	0.62807 0.31628 0.56168 -0.38600
O 	O 	0.73255 0.35788 0.58954 -0.42000
H 	H 	0.61570 0.24038 0.44222 0.16300
H 	H 	0.75250 0.40446 0.52429 0.17100
C 	C 	0.66301 0.35307 0.63242 -0.07600
C 	C 	0.70939 0.40799 0.66042 0.00300
C 	C 	0.70370 0.41069 0.70027 -0.05500
C 	C 	0.65367 0.35645 0.71301 0.00400
C 	C 	0.60266 0.30433 0.68401 0.00700
C 	C 	0.60774 0.30292 0.64386 -0.02000
C 	C 	0.54816 0.25341 0.69547 -0.04300
C 	C 	0.54571 0.25132 0.73544 -0.04200
C 	C 	0.59892 0.29863 0.76469 0.00600
C 	C 	0.65362 0.35209 0.75390 0.00400
C 	C 	0.70877 0.39627 0.78364 -0.05400
C 	C 	0.70888 0.38762 0.82290 0.00200
C 	C 	0.65553 0.33386 0.83311 -0.07600
C 	C 	0.59991 0.29069 0.80432 -0.01700
H 	H 	0.75016 0.44854 0.65135 0.03000
H 	H 	0.73660 0.45540 0.72049 0.04000
H 	H 	0.57046 0.26143 0.62189 0.03900
H 	H 	0.50787 0.21469 0.67331 0.03600
H 	H 	0.50336 0.21114 0.74367 0.03600
H 	H 	0.75305 0.43492 0.77640 0.03900
H 	H 	0.75223 0.42089 0.84501 0.03200
H 	H 	0.55854 0.24920 0.81238 0.03500
C 	C 	0.69482 0.28714 0.33301 -0.07100
C 	C 	0.75304 0.31981 0.31897 0.00600
C 	C 	0.75278 0.31055 0.27838 -0.05300
C 	C 	0.69362 0.27021 0.25122 0.00600
C 	C 	0.63630 0.23056 0.26601 0.00800
C 	C 	0.63697 0.24030 0.30679 -0.02000
C 	C 	0.57884 0.18259 0.23988 -0.04200
C 	C 	0.57676 0.17611 0.19911 -0.04000
C 	C 	0.63083 0.22012 0.18366 0.00800
C 	C 	0.68984 0.26844 0.20962 0.00500
C 	C 	0.74071 0.31739 0.19377 -0.05200
C 	C 	0.73316 0.31731 0.15315 0.00000
C 	C 	0.67501 0.26932 0.12773 -0.06900
C 	C 	0.62487 0.21963 0.14276 -0.01300
H 	H 	0.79838 0.35373 0.33937 0.03900
H 	H 	0.79841 0.33306 0.26853 0.04200
H 	H 	0.59232 0.21300 0.31796 0.02800
H 	H 	0.53546 0.15041 0.25116 0.03600
H 	H 	0.53185 0.13867 0.17938 0.03800
H 	H 	0.78419 0.35788 0.21282 0.04000
H 	H 	0.77162 0.35642 0.14170 0.02200
H 	H 	0.57958 0.18297 0.12298 0.04300
C 	C 	0.89258 0.84074 0.46924 0.01400
C 	C 	0.91523 0.82436 0.50049 -0.04900
C 	C 	0.88889 0.76106 0.50091 -0.02800
C 	C 	0.84034 0.71313 0.46932 -0.01600
C 	C 	0.81203 0.72912 0.44063 0.03300
C 	C 	0.83947 0.79299 0.44012 -0.06900
C 	C 	0.75635 0.68120 0.41314 -0.05400
C 	C 	0.72886 0.61774 0.41359 -0.03300
C 	C 	0.75909 0.60114 0.43969 0.00000
C 	C 	0.81705 0.64894 0.46650 0.01500
C 	C 	0.85245 0.63189 0.48754 -0.05900
C 	C 	0.82705 0.56817 0.48505 0.00700
C 	C 	0.76696 0.52076 0.46110 -0.07700
C 	C 	0.73332 0.53730 0.43822 -0.01200
H 	H 	0.95402 0.86091 0.52422 0.04000
H 	H 	0.90456 0.74956 0.52651 0.03400
H 	H 	0.82050 0.80555 0.41669 0.04600
H 	H 	0.73364 0.69310 0.39171 0.04000
H 	H 	0.68489 0.58134 0.39275 0.03500
H 	H 	0.90073 0.66751 0.50414 0.04200
H 	H 	0.85423 0.55570 0.50177 0.02600
H 	H 	0.68783 0.50054 0.41865 0.03000
C 	C 	0.90257 0.03393 0.46194 0.01400
C 	C 	0.90433 0.06557 0.43127 -0.04900
C 	C 	0.88328 0.10345 0.43408 -0.02800
C 	C 	0.85682 0.10781 0.46705 -0.01600
C 	C 	0.85672 0.07700 0.49849 0.03200
C 	C 	0.87807 0.03911 0.49524 -0.06900
C 	C 	0.83850 0.08691 0.53366 -0.05500
C 	C 	0.82209 0.12824 0.53855 -0.03400
C 	C 	0.81989 0.15775 0.50756 -0.00200
C 	C 	0.83416 0.14551 0.47077 0.01500
C 	C 	0.82286 0.16894 0.43842 -0.05900
C 	C 	0.80468 0.20907 0.44389 0.00800
C 	C 	0.79416 0.22385 0.48095 -0.08300
C 	C 	0.80158 0.19797 0.51263 -0.01400
H 	H 	0.92460 0.06290 0.40585 0.04100
H 	H 	0.89161 0.13213 0.41189 0.03500
H 	H 	0.87820 0.01584 0.51939 0.04600
H 	H 	0.83875 0.06375 0.55780 0.04000
H 	H 	0.81003 0.13662 0.56646 0.03100
H 	H 	0.82408 0.15342 0.40870 0.04300
H 	H 	0.79628 0.22663 0.41884 0.03900
H 	H 	0.79234 0.20852 0.54115 0.02200
C 	C 	0.09902 0.04290 0.45960 0.01500
C 	C 	0.11993 0.03424 0.42543 -0.05000
C 	C 	0.18572 0.06603 0.42543 -0.02800
C 	C 	0.23196 0.10927 0.45946 -0.01600
C 	C 	0.21031 0.11437 0.49475 0.03200
C 	C 	0.14408 0.08260 0.49425 -0.07000
C 	C 	0.25474 0.14899 0.53043 -0.05400
C 	C 	0.32028 0.17815 0.53159 -0.03400
C 	C 	0.34318 0.17681 0.49666 0.00100
C 	C 	0.29950 0.14500 0.45990 0.01400
C 	C 	0.32451 0.15287 0.42459 -0.05800
C 	C 	0.39080 0.18577 0.42613 0.00500
C 	C 	0.43357 0.21369 0.46265 -0.07500
C 	C 	0.40968 0.20926 0.49786 -0.01500
H 	H 	0.08501 0.00146 0.39910 0.04100
H 	H 	0.19996 0.05395 0.39986 0.03300
H 	H 	0.12747 0.08738 0.52104 0.04600
H 	H 	0.23827 0.15213 0.55760 0.04000
H 	H 	0.35362 0.20320 0.55968 0.03600
H 	H 	0.29364 0.13698 0.39603 0.04100
H 	H 	0.40908 0.19066 0.39876 0.02700
H 	H 	0.44297 0.23286 0.52607 0.04400
C 	C 	0.93255 0.86566 0.99030 0.01500
C 	C 	0.94369 0.84918 0.02576 -0.05200
C 	C 	0.91276 0.78569 0.02834 -0.03100
C 	C 	0.86799 0.73742 0.99559 -0.01300
C 	C 	0.86085 0.75462 0.95895 0.03200
C 	C 	0.89175 0.81855 0.95686 -0.06900
C 	C 	0.82488 0.70804 0.92456 -0.05400
C 	C 	0.79653 0.64473 0.92601 -0.03300
C 	C 	0.80002 0.62629 0.96229 -0.00100
C 	C 	0.83286 0.67216 0.99777 0.01900
C 	C 	0.82673 0.65151 0.03440 -0.06400
C 	C 	0.79552 0.58749 0.03543 0.00800
C 	C 	0.76763 0.54273 0.00014 -0.08000
C 	C 	0.76920 0.56213 0.96366 -0.01000
H 	H 	0.97731 0.88573 0.05121 0.04100
H 	H 	0.92650 0.77472 0.05495 0.03400
H 	H 	0.88499 0.83174 0.92909 0.04600
H 	H 	0.82010 0.72110 0.89638 0.04000
H 	H 	0.77056 0.60967 0.89890 0.03600
H 	H 	0.84291 0.68399 0.06196 0.04300
H 	H 	0.79270 0.57268 0.06379 0.03200
H 	H 	0.74541 0.52719 0.93641 0.04200
C 	C 	0.92666 0.04937 0.98606 0.01400
C 	C 	0.95274 0.10565 0.01266 -0.05000
C 	C 	0.91884 0.13133 0.01490 -0.03200
C 	C 	0.85874 0.10179 0.98952 -0.01200
C 	C 	0.83003 0.04209 0.96535 0.03000
C 	C 	0.86520 0.01758 0.96254 -0.06600
C 	C 	0.76584 0.00660 0.94532 -0.05100
C 	C 	0.73000 0.02985 0.94885 -0.03600
C 	C 	0.75910 0.09097 0.96998 -0.00000
C 	C 	0.82482 0.12875 0.98905 0.01700
C 	C 	0.85616 0.19352 0.00418 -0.06300
C 	C 	0.82153 0.21855 0.00295 0.00500
C 	C 	0.75576 0.18014 0.98601 -0.07900
C 	C 	0.72439 0.11623 0.97014 -0.01600
H 	H 	0.99871 0.12875 0.03236 0.03900
H 	H 	0.93774 0.17178 0.03787 0.03500
H 	H 	0.84439 0.97331 0.94257 0.04400
H 	H 	0.74317 0.96023 0.92756 0.03800
H 	H 	0.67997 0.00103 0.93390 0.03400
H 	H 	0.90782 0.22554 0.01443 0.04200
H 	H 	0.84643 0.26850 0.01410 0.02800
H 	H 	0.67389 0.08709 0.95597 0.03000
C 	C 	0.46120 0.22044 0.98574 -0.07500
C 	C 	0.41643 0.15993 0.96259 0.00700
C 	C 	0.35031 0.13115 0.95778 -0.06000
C 	C 	0.32788 0.16333 0.97564 0.02000
C 	C 	0.37325 0.22329 0.00059 -0.00500
C 	C 	0.43962 0.25246 0.00415 -0.01500
C 	C 	0.35179 0.25155 0.02367 -0.03100
C 	C 	0.28611 0.21964 0.02382 -0.06000
C 	C 	0.24045 0.16096 0.99877 0.03600
C 	C 	0.26081 0.13471 0.97225 -0.01800
C 	C 	0.21385 0.08178 0.94252 -0.02800
C 	C 	0.14828 0.04987 0.94342 -0.04800
C 	C 	0.12853 0.07133 0.97306 0.01100
C 	C 	0.17450 0.12817 0.99978 -0.06500
H 	H 	0.43282 0.13441 0.94903 0.02700
H 	H 	0.31702 0.08262 0.94235 0.04200
H 	H 	0.47432 0.29865 0.02291 0.03100
H 	H 	0.38631 0.29733 0.04282 0.03300
H 	H 	0.27067 0.24090 0.04328 0.04000
H 	H 	0.22753 0.06679 0.91787 0.03300
H 	H 	0.11273 0.00810 0.92119 0.04000
H 	H 	0.15907 0.14605 0.02181 0.04200
