data_crystal

_cell_length_a 18.09331
_cell_length_b 17.13759
_cell_length_c 48.35152
_cell_angle_alpha 89.62654
_cell_angle_beta  89.63205
_cell_angle_gamma 119.43821

_symmetry_space_group_name_	'P 1'
_symmetry_space_group_name_H-M	'P 1'

loop_
_symmetry_equiv_pos_as_xyz
  x,y,z

loop_
_atom_site_label
_atom_site_type_symbol
_atom_site_fract_x
_atom_site_fract_y
_atom_site_fract_z
_atom_site_charge
C 	C 	0.17477 0.12966 0.76492 0.25800
C 	C 	0.19140 0.14665 0.68558 0.28200
Ni	Ni	0.06695 0.99325 0.72039 1.10300
Ni	Ni	0.09152 0.19333 0.72470 1.12200
O 	O 	0.17243 0.07353 0.74540 -0.35300
O 	O 	0.14752 0.18785 0.76014 -0.37000
O 	O 	0.13069 0.06302 0.68488 -0.36800
O 	O 	0.19491 0.19898 0.70585 -0.37400
O 	O 	0.04850 0.20573 0.68758 -0.37500
O 	O 	0.02075 0.06673 0.72821 -0.71100
H 	H 	0.01795 0.06013 0.74847 0.15500
C 	C 	0.17027 0.69465 0.43530 0.32300
O 	O 	0.23182 0.71368 0.45256 -0.37400
O 	O 	0.18274 0.69110 0.40864 -0.38200
C 	C 	0.15248 0.37272 0.02899 0.27500
C 	C 	0.07037 0.55498 0.02694 0.31700
O 	O 	0.12292 0.63616 0.03578 -0.36100
O 	O 	0.14476 0.55695 0.08228 -0.38600
O 	O 	0.09855 0.51147 0.01182 -0.37400
C 	C 	0.09869 0.15369 0.16420 0.27700
C 	C 	0.12557 0.26035 0.24079 0.25500
C 	C 	0.12472 0.94766 0.19414 0.25900
C 	C 	0.15986 0.03516 0.26895 0.28400
Ni	Ni	0.16747 0.12574 0.21623 1.12100
O 	O 	0.18278 0.01919 0.20696 -0.35900
O 	O 	0.06134 0.18742 0.17941 -0.36400
O 	O 	0.15769 0.13995 0.17491 -0.36600
O 	O 	0.09972 0.95938 0.25783 -0.39000
O 	O 	0.19237 0.11324 0.25572 -0.38600
O 	O 	0.04361 0.22434 0.23540 -0.35700
O 	O 	0.17758 0.24836 0.22388 -0.35800
O 	O 	0.04375 0.91427 0.19987 -0.38500
O 	O 	0.04924 0.06783 0.22543 -0.70700
H 	H 	0.05447 0.09024 0.24440 0.15500
C 	C 	0.07068 0.09184 0.09324 0.08900
C 	C 	0.11500 0.11797 0.06796 -0.07800
C 	C 	0.08485 0.15174 0.04698 0.02000
C 	C 	0.01315 0.16080 0.05132 0.09600
C 	C 	0.96813 0.13331 0.07653 -0.08200
C 	C 	0.99757 0.09842 0.09728 0.01400
N 	N 	0.11073 0.10207 0.11746 -0.15000
C 	C 	0.06519 0.11726 0.13673 0.01200
C 	C 	0.99427 0.11494 0.12515 -0.04400
N 	N 	0.02218 0.23365 0.03766 -0.14800
C 	C 	0.10090 0.27558 0.02632 0.01700
C 	C 	0.13918 0.22324 0.03025 -0.03900
H 	H 	0.17536 0.12279 0.11920 0.09900
H 	H 	0.98966 0.26749 0.04334 0.10200
C 	C 	0.19734 0.80890 0.16265 0.01100
C 	C 	0.11892 0.78131 0.15085 0.08200
C 	C 	0.06327 0.69026 0.14617 -0.08500
C 	C 	0.09167 0.62868 0.15129 0.01700
C 	C 	0.07318 0.55825 0.13383 -0.04600
N 	N 	0.09139 0.83898 0.15698 -0.15200
C 	C 	0.14973 0.90159 0.17373 0.00600
C 	C 	0.21711 0.88508 0.17776 -0.04500
H 	H 	0.00072 0.66830 0.13783 0.06300
H 	H 	0.02588 0.53773 0.11775 0.05900
H 	H 	0.02763 0.82275 0.15635 0.09900
C 	C 	0.15674 0.35890 0.35430 0.08900
C 	C 	0.19800 0.36233 0.30659 0.02100
C 	C 	0.14200 0.39112 0.29863 0.07900
C 	C 	0.08909 0.40019 0.31816 -0.07900
C 	C 	0.09810 0.38482 0.34623 0.01700
C 	C 	0.15650 0.44747 0.38633 0.02300
C 	C 	0.09583 0.43846 0.36710 -0.04000
N 	N 	0.12027 0.37041 0.27205 -0.15200
C 	C 	0.16101 0.32684 0.26293 0.01400
C 	C 	0.21013 0.32049 0.28399 -0.05100
H 	H 	0.04459 0.42182 0.31186 0.05900
H 	H 	0.07723 0.48903 0.36372 0.05500
C 	C 	0.27662 0.08443 0.33120 0.01700
N 	N 	0.28959 0.04616 0.28799 -0.15000
C 	C 	0.20877 0.02852 0.29192 0.01000
C 	C 	0.19790 0.04906 0.31889 -0.04400
H 	H 	0.23855 0.06172 0.37435 0.07000
H 	H 	0.14651 0.05929 0.32608 0.05300
H 	H 	0.31863 0.05206 0.26874 0.09200
C 	C 	0.01639 0.58430 0.43151 -0.02400
C 	C 	0.08229 0.65413 0.44612 -0.08200
C 	C 	0.06563 0.67502 0.47278 0.09700
N 	N 	0.12541 0.75623 0.48585 -0.02000
H 	H 	0.02681 0.57081 0.41039 0.06800
O 	O 	0.14574 0.83315 0.47438 -0.09500
O 	O 	0.15425 0.75351 0.51020 -0.10500
H 	H 	0.04521 0.22016 0.62995 0.06200
C 	C 	0.97751 0.51653 0.03043 -0.07700
H 	H 	0.95676 0.38879 0.04589 0.06100
O 	O 	0.99519 0.69540 0.99344 -0.08400
O 	O 	0.00810 0.70996 0.03965 -0.09300
C 	C 	0.22669 0.14301 0.78965 0.01400
H 	H 	0.22810 0.26203 0.80697 0.05800
H 	H 	0.20285 0.00970 0.79625 0.09400
O 	O 	0.00738 0.21653 0.74593 -0.36700
C 	C 	0.14663 0.55174 0.13146 0.00200
C 	C 	0.17370 0.65791 0.16076 0.07500
C 	C 	0.20363 0.34152 0.33430 -0.08300
C 	C 	0.33134 0.08160 0.31153 0.08000
C 	C 	0.28892 0.07678 0.35944 -0.08000
H 	H 	0.22672 0.26788 0.28553 0.05700
C 	C 	0.21169 0.53612 0.39812 0.26300
O 	O 	0.21052 0.54786 0.42553 -0.34800
O 	O 	0.25240 0.60385 0.38037 -0.37200
C 	C 	0.17213 0.53490 0.10417 0.28200
O 	O 	0.17018 0.40597 0.05388 -0.36800
O 	O 	0.19171 0.42320 0.00727 -0.35000
H 	H 	0.17741 0.12417 0.06612 0.06400
H 	H 	0.20747 0.25057 0.03006 0.05700
C 	C 	0.22551 0.74770 0.16854 -0.08100
N 	N 	0.20585 0.60974 0.14902 -0.15000
H 	H 	0.25679 0.90517 0.19592 0.04900
N 	N 	0.18991 0.39518 0.37890 -0.15400
C 	C 	0.26344 0.17814 0.66613 0.00300
O 	O 	0.20288 0.82099 0.97235 -0.08000
N 	N 	0.23730 0.07740 0.80146 -0.15000
C 	C 	0.25193 0.21509 0.80744 -0.04700
Ni	Ni	0.29754 0.73358 0.38961 1.12100
Ni	Ni	0.22518 0.66267 0.05881 1.12100
Ni	Ni	0.22217 0.55470 0.00458 1.12600
H 	H 	0.24762 0.31898 0.34041 0.06600
H 	H 	0.31733 0.00329 0.40464 0.11700
N 	N 	0.26822 0.12554 0.64623 -0.15100
H 	H 	0.22433 0.05762 0.64381 0.09700
O 	O 	0.24458 0.78958 0.93199 -0.10000
C 	C 	0.27048 0.10787 0.82659 0.07200
C 	C 	0.26343 0.05223 0.84901 -0.05700
C 	C 	0.27974 0.22308 0.85751 -0.08500
C 	C 	0.28047 0.19223 0.83085 0.02100
H 	H 	0.28591 0.28856 0.86062 0.06400
O 	O 	0.23753 0.52194 0.10183 -0.35900
C 	C 	0.28083 0.17155 0.88011 0.09000
C 	C 	0.36397 0.07775 0.36750 0.08800
Ni	Ni	0.30544 0.65261 0.44939 1.11400
O 	O 	0.33548 0.85830 0.40213 -0.38000
O 	O 	0.24851 0.68075 0.99344 -0.34900
O 	O 	0.29723 0.76564 0.03319 -0.37100
O 	O 	0.26438 0.59151 0.04101 -0.71500
H 	H 	0.28798 0.77008 0.17699 0.05400
H 	H 	0.27080 0.63341 0.14649 0.09400
H 	H 	0.24937 0.40686 0.38528 0.11800
C 	C 	0.34342 0.25007 0.67155 -0.04100
H 	H 	0.36170 0.28482 0.69109 0.05600
N 	N 	0.26197 0.82060 0.95698 -0.01900
C 	C 	0.27190 0.08681 0.87589 0.01000
H 	H 	0.25656 0.98656 0.84569 0.04100
C 	C 	0.40331 0.07669 0.31937 -0.08000
C 	C 	0.30468 0.75461 0.00634 0.29300
Ni	Ni	0.28645 0.51452 0.06306 1.11300
O 	O 	0.32020 0.70269 0.08782 -0.36500
N 	N 	0.36751 0.03482 0.39042 -0.15200
O 	O 	0.32140 0.10614 0.50233 -0.08300
O 	O 	0.30938 0.44555 0.94834 -0.10000
N 	N 	0.33018 0.20988 0.90219 -0.15000
C 	C 	0.31927 0.07489 0.89616 -0.03200
H 	H 	0.32270 0.63826 0.03637 0.15600
H 	H 	0.03740 0.41266 0.83487 0.05600
H 	H 	0.06449 0.36355 0.26347 0.09800
O 	O 	0.33646 0.38427 0.42311 -0.10400
H 	H 	0.43887 0.06151 0.30428 0.05900
O 	O 	0.39214 0.77185 0.36106 -0.38100
O 	O 	0.36173 0.71530 0.41744 -0.71700
C 	C 	0.42135 0.08007 0.34767 0.01700
H 	H 	0.31402 0.90010 0.47139 0.08700
C 	C 	0.39841 0.24043 0.65384 0.01200
C 	C 	0.35055 0.16387 0.63871 0.08400
C 	C 	0.34775 0.86317 0.96639 0.09600
C 	C 	0.35719 0.15358 0.91141 0.01200
H 	H 	0.36423 0.27927 0.90502 0.10100
O 	O 	0.32011 0.05732 0.45916 -0.08900
C 	C 	0.41311 0.92290 0.39715 0.25900
O 	O 	0.38641 0.74689 0.47773 -0.34800
H 	H 	0.36949 0.66783 0.40887 0.15700
O 	O 	0.34591 0.48992 0.02921 -0.36300
O 	O 	0.34052 0.58066 0.99422 -0.35500
C 	C 	0.42479 0.00741 0.38537 0.02900
C 	C 	0.36536 0.93321 0.48590 -0.05300
N 	N 	0.34346 0.06378 0.48481 -0.02100
C 	C 	0.36965 0.83088 0.99008 -0.06700
N 	N 	0.38229 0.51897 0.94774 -0.01900
H 	H 	0.34687 0.03170 0.89365 0.05400
N 	N 	0.98348 0.65925 0.01795 -0.01800
H 	H 	0.96180 0.14843 0.13363 0.05300
H 	H 	0.91961 0.15103 0.08125 0.06900
H 	H 	0.00093 0.21919 0.57518 0.06500
C 	C 	0.92776 0.42456 0.03649 -0.02000
C 	C 	0.80393 0.30315 0.90560 0.26200
C 	C 	0.44533 0.19027 0.92028 0.27900
C 	C 	0.66703 0.39495 0.87576 0.28100
C 	C 	0.54950 0.07984 0.95262 0.32300
C 	C 	0.60167 0.44062 0.96073 0.32400
C 	C 	0.75146 0.37741 0.98996 0.30700
Ni	Ni	0.61488 0.21749 0.90341 1.11500
Ni	Ni	0.57351 0.25812 0.96565 1.12400
Ni	Ni	0.73059 0.40998 0.93197 1.12300
O 	O 	0.73287 0.22558 0.90281 -0.35600
O 	O 	0.80271 0.38034 0.90567 -0.36500
O 	O 	0.54630 0.35573 0.95801 -0.38800
O 	O 	0.50531 0.22611 0.90148 -0.37000
O 	O 	0.46230 0.17597 0.94569 -0.36100
O 	O 	0.78662 0.39360 0.96503 -0.38000
O 	O 	0.66660 0.31853 0.87323 -0.36100
O 	O 	0.66702 0.42648 0.90032 -0.37800
O 	O 	0.66687 0.33066 0.99411 -0.34500
O 	O 	0.55338 0.09434 0.92530 -0.36500
O 	O 	0.58342 0.14653 0.97051 -0.35900
O 	O 	0.68330 0.47045 0.95677 -0.37700
O 	O 	0.65056 0.28607 0.93573 -0.72000
H 	H 	0.68635 0.26319 0.94363 0.17100
C 	C 	0.77564 0.23747 0.52249 0.25900
C 	C 	0.59890 0.41352 0.47618 0.30900
C 	C 	0.85254 0.47190 0.48857 0.31700
C 	C 	0.51110 0.16758 0.50895 0.30000
C 	C 	0.71569 0.52957 0.54853 0.28300
C 	C 	0.63853 0.29450 0.58421 0.25500
Ni	Ni	0.68393 0.30294 0.48591 1.11700
Ni	Ni	0.58123 0.34897 0.53354 1.12200
Ni	Ni	0.77499 0.39944 0.54374 1.12000
O 	O 	0.71941 0.21300 0.50229 -0.34800
O 	O 	0.82359 0.32291 0.52884 -0.36700
O 	O 	0.64370 0.48402 0.53523 -0.36600
O 	O 	0.66011 0.39895 0.46751 -0.34100
O 	O 	0.54429 0.36037 0.49496 -0.36600
O 	O 	0.71701 0.31630 0.57630 -0.37300
O 	O 	0.81336 0.38878 0.47979 -0.34800
O 	O 	0.83390 0.49165 0.51300 -0.37700
O 	O 	0.60037 0.33794 0.57428 -0.36800
O 	O 	0.55419 0.20859 0.48610 -0.35200
O 	O 	0.50479 0.21378 0.52999 -0.36400
O 	O 	0.74910 0.48803 0.56202 -0.37900
O 	O 	0.67499 0.33452 0.52256 -0.70900
H 	H 	0.65544 0.27548 0.53124 0.14000
C 	C 	0.92792 0.91971 0.67782 0.28300
C 	C 	0.91180 0.87700 0.75538 0.26500
C 	C 	0.96728 0.17635 0.68328 0.27700
C 	C 	0.95554 0.16014 0.76509 0.25800
Ni	Ni	0.90358 0.02459 0.72204 1.12300
O 	O 	0.91099 0.13306 0.70297 -0.37400
O 	O 	0.97140 0.89925 0.69533 -0.36900
O 	O 	0.90741 0.98146 0.68351 -0.38200
O 	O 	0.89726 0.07716 0.75861 -0.37200
O 	O 	0.99544 0.91265 0.75328 -0.37600
O 	O 	0.86798 0.90004 0.73829 -0.37200
C 	C 	0.42151 0.83369 0.47277 0.30800
C 	C 	0.46479 0.63697 0.44364 0.29500
C 	C 	0.44793 0.74282 0.36114 0.26600
Ni	Ni	0.47898 0.80548 0.41810 1.12300
O 	O 	0.47674 0.90570 0.39618 -0.36600
O 	O 	0.47525 0.87093 0.45214 -0.36800
O 	O 	0.49817 0.75751 0.38263 -0.37100
O 	O 	0.38291 0.59438 0.45061 -0.35000
O 	O 	0.50876 0.72611 0.44220 -0.36300
C 	C 	0.38006 0.54310 0.00708 0.29300
C 	C 	0.39274 0.70012 0.08521 0.25800
O 	O 	0.39436 0.62908 0.07511 -0.36600
C 	C 	0.87663 0.98337 0.25976 0.25600
C 	C 	0.87525 0.92645 0.19038 0.27200
Ni	Ni	0.98017 0.11156 0.21120 1.11200
Ni	Ni	0.00027 0.94384 0.23392 1.11400
O 	O 	0.88185 0.04246 0.24057 -0.35000
O 	O 	0.94125 0.96996 0.26498 -0.38200
O 	O 	0.92553 0.00949 0.18299 -0.36900
O 	O 	0.88637 0.89459 0.21391 -0.37200
C 	C 	0.54676 0.77528 0.13555 0.07800
C 	C 	0.58143 0.80139 0.16197 -0.08000
C 	C 	0.67007 0.85327 0.16367 0.01100
C 	C 	0.72142 0.87548 0.14021 0.08000
C 	C 	0.68620 0.85028 0.11381 -0.08100
C 	C 	0.59786 0.79803 0.11225 0.02000
N 	N 	0.46804 0.75707 0.12880 -0.15200
C 	C 	0.46703 0.76385 0.10083 0.01300
C 	C 	0.54880 0.79459 0.09012 -0.04400
N 	N 	0.79781 0.88620 0.14679 -0.15200
C 	C 	0.79774 0.87440 0.17453 0.00400
C 	C 	0.71840 0.85235 0.18555 -0.04600
H 	H 	0.54136 0.78282 0.18029 0.05500
H 	H 	0.72604 0.86788 0.09546 0.06500
H 	H 	0.56363 0.78869 0.06876 0.05800
H 	H 	0.69465 0.82311 0.20582 0.05400
H 	H 	0.41456 0.72032 0.14132 0.08800
H 	H 	0.85194 0.91765 0.13414 0.09400
C 	C 	0.55923 0.70297 0.30860 0.08400
C 	C 	0.64329 0.72257 0.30416 -0.08400
C 	C 	0.69056 0.78379 0.28317 0.01800
C 	C 	0.65755 0.82949 0.26838 0.07400
C 	C 	0.57471 0.81260 0.27350 -0.08100
C 	C 	0.52487 0.74604 0.29300 0.01200
N 	N 	0.52292 0.68210 0.33389 -0.15100
C 	C 	0.46766 0.71353 0.33505 0.01100
C 	C 	0.46574 0.75169 0.30984 -0.04400
N 	N 	0.72050 0.91086 0.26056 -0.15200
C 	C 	0.79291 0.91903 0.27099 0.00800
C 	C 	0.77705 0.84063 0.28450 -0.04900
H 	H 	0.67377 0.69929 0.31870 0.06100
H 	H 	0.55328 0.85669 0.26504 0.05100
H 	H 	0.44760 0.80300 0.30757 0.05100
H 	H 	0.81902 0.83513 0.29930 0.05300
H 	H 	0.55128 0.67161 0.35125 0.10400
H 	H 	0.71229 0.96449 0.25418 0.08800
C 	C 	0.46092 0.03640 0.35924 -0.04600
H 	H 	0.48758 0.00295 0.34714 0.06200
C 	C 	0.50291 0.02289 0.52131 -0.00300
C 	C 	0.46387 0.06879 0.50992 -0.08700
C 	C 	0.39032 0.02128 0.49400 0.13000
C 	C 	0.41431 0.89326 0.49309 -0.05400
C 	C 	0.47812 0.93488 0.51309 0.07700
N 	N 	0.52285 0.89110 0.52320 -0.01900
H 	H 	0.55650 0.05760 0.53492 0.05100
O 	O 	0.60525 0.93486 0.52465 -0.10400
O 	O 	0.48102 0.80832 0.53183 -0.09200
C 	C 	0.98860 0.61741 0.48618 -0.02200
C 	C 	0.92607 0.54146 0.47262 -0.06900
C 	C 	0.93780 0.52939 0.44436 0.10200
H 	H 	0.97801 0.63129 0.50723 0.06700
N 	N 	0.86955 0.46323 0.42847 -0.02100
O 	O 	0.80157 0.46947 0.42460 -0.09000
O 	O 	0.87879 0.40201 0.41565 -0.10300
C 	C 	0.50610 0.44131 0.44487 -0.02200
C 	C 	0.57997 0.47605 0.46067 -0.06800
C 	C 	0.62609 0.56922 0.46555 0.09800
C 	C 	0.59026 0.62329 0.45856 -0.02700
C 	C 	0.51159 0.58616 0.44525 -0.06600
C 	C 	0.47327 0.49654 0.43637 0.09600
N 	N 	0.40251 0.46218 0.41813 -0.02000
H 	H 	0.47309 0.37087 0.43964 0.07500
H 	H 	0.62296 0.69359 0.46392 0.07700
N 	N 	0.70976 0.60954 0.47693 -0.02200
O 	O 	0.40731 0.50498 0.39527 -0.11900
O 	O 	0.76487 0.58857 0.46725 -0.08400
O 	O 	0.73491 0.67749 0.49338 -0.09700
C 	C 	0.85326 0.18475 0.62484 0.08100
C 	C 	0.77841 0.13609 0.60985 -0.07900
C 	C 	0.78546 0.12323 0.58146 0.02000
C 	C 	0.86485 0.15443 0.56890 0.08700
C 	C 	0.93918 0.19598 0.58473 -0.08400
C 	C 	0.93190 0.21510 0.61238 0.01700
N 	N 	0.85826 0.17573 0.65231 -0.15100
C 	C 	0.94029 0.20042 0.65747 0.00900
C 	C 	0.98802 0.22456 0.63308 -0.04600
N 	N 	0.86304 0.18021 0.54267 -0.15000
C 	C 	0.78487 0.16988 0.53847 0.01800
C 	C 	0.73419 0.13118 0.56184 -0.03800
H 	H 	0.71691 0.11301 0.61957 0.06200
H 	H 	0.67985 0.13899 0.56708 0.04900
H 	H 	0.80697 0.13297 0.66501 0.09500
H 	H 	0.91724 0.22691 0.53180 0.10100
C 	C 	0.52417 0.23016 0.64472 0.07700
C 	C 	0.48420 0.27081 0.65897 -0.07800
C 	C 	0.38769 0.11678 0.62695 -0.08500
C 	C 	0.47610 0.15328 0.62913 0.02200
N 	N 	0.60134 0.27949 0.63298 -0.15000
C 	C 	0.60192 0.23938 0.60906 0.01100
C 	C 	0.52679 0.15836 0.60689 -0.05200
H 	H 	0.52079 0.32981 0.67135 0.05700
H 	H 	0.35023 0.05714 0.61493 0.06500
H 	H 	0.50133 0.12628 0.58727 0.05500
H 	H 	0.63907 0.34841 0.63612 0.09400
C 	C 	0.84966 0.75259 0.56815 0.08800
C 	C 	0.91852 0.79976 0.58590 -0.08000
C 	C 	0.90889 0.84866 0.60736 0.01400
C 	C 	0.83035 0.84121 0.61325 0.08100
C 	C 	0.75919 0.78620 0.59735 -0.08000
C 	C 	0.77147 0.74703 0.57364 0.01900
N 	N 	0.83834 0.67983 0.55430 -0.14800
C 	C 	0.75375 0.62680 0.55126 0.02100
C 	C 	0.71015 0.66650 0.56290 -0.03300
N 	N 	0.82485 0.85599 0.64026 -0.14900
C 	C 	0.89794 0.87028 0.65199 -0.00000
C 	C 	0.95244 0.86803 0.63207 -0.03700
H 	H 	0.97465 0.79256 0.58441 0.06100
H 	H 	0.69588 0.76879 0.60438 0.06000
H 	H 	0.64557 0.62937 0.57076 0.05600
H 	H 	0.00694 0.85975 0.63625 0.04300
H 	H 	0.88196 0.65645 0.55409 0.09500
H 	H 	0.76863 0.83892 0.65109 0.08700
C 	C 	0.85163 0.51657 0.01321 -0.03000
C 	C 	0.80804 0.42240 0.01327 -0.05800
C 	C 	0.84287 0.37708 0.02790 0.09300
C 	C 	0.93695 0.56396 0.02120 0.10500
H 	H 	0.82328 0.55244 0.00343 0.08200
N 	N 	0.79502 0.28180 0.03170 -0.02200
O 	O 	0.82918 0.23235 0.02598 -0.09500
O 	O 	0.71719 0.24442 0.04089 -0.08200
C 	C 	0.40944 0.94076 0.95285 -0.02000
C 	C 	0.49213 0.98857 0.96326 -0.09100
C 	C 	0.51507 0.95395 0.98614 0.10200
C 	C 	0.45370 0.87545 0.99943 -0.02900
H 	H 	0.39149 0.96701 0.93524 0.05800
H 	H 	0.47126 0.84948 0.01722 0.05900
N 	N 	0.60065 0.99812 0.99588 -0.03300
O 	O 	0.61560 0.01526 0.02205 -0.07600
O 	O 	0.66322 0.01650 0.97885 -0.07800
C 	C 	0.51127 0.50834 0.95254 -0.02000
C 	C 	0.57110 0.50188 0.96922 -0.08300
C 	C 	0.58016 0.53035 0.99685 0.10400
C 	C 	0.52074 0.55062 0.00865 -0.03400
C 	C 	0.45262 0.54310 0.99298 -0.06500
C 	C 	0.45039 0.52613 0.96434 0.09600
H 	H 	0.50607 0.48972 0.93095 0.06100
H 	H 	0.52528 0.56791 0.03034 0.06200
N 	N 	0.64659 0.53365 0.01346 -0.02400
O 	O 	0.39560 0.58234 0.93012 -0.10000
O 	O 	0.71354 0.61034 0.01824 -0.09800
O 	O 	0.63508 0.46233 0.02680 -0.09800
C 	C 	0.95056 0.24135 0.88190 0.08600
C 	C 	0.94478 0.17133 0.86547 -0.08100
C 	C 	0.98111 0.19202 0.83893 0.01400
C 	C 	0.01760 0.27915 0.82832 0.08000
C 	C 	0.02075 0.34851 0.84434 -0.07800
C 	C 	0.98914 0.32894 0.87154 0.01500
N 	N 	0.88922 0.22846 0.90020 -0.15100
C 	C 	0.88513 0.30508 0.90086 0.01700
C 	C 	0.94793 0.36971 0.88390 -0.04100
N 	N 	0.00858 0.27720 0.80070 -0.15100
C 	C 	0.96371 0.19023 0.79372 0.00500
C 	C 	0.94782 0.13518 0.81663 -0.04600
H 	H 	0.90431 0.10217 0.87183 0.06300
H 	H 	0.94366 0.42502 0.87454 0.05600
H 	H 	0.89892 0.06545 0.81793 0.05500
H 	H 	0.83842 0.16535 0.90542 0.10500
H 	H 	0.01359 0.33036 0.78856 0.09100
C 	C 	0.77854 0.55627 0.82442 0.07900
C 	C 	0.82554 0.58872 0.79986 -0.08200
C 	C 	0.81653 0.65356 0.78475 0.01400
C 	C 	0.76263 0.68507 0.79390 0.07800
C 	C 	0.71489 0.65124 0.81842 -0.08100
C 	C 	0.72594 0.58815 0.83374 0.01400
N 	N 	0.75307 0.47392 0.83477 -0.15100
C 	C 	0.68563 0.45358 0.85150 0.00300
C 	C 	0.66514 0.52204 0.85050 -0.04300
N 	N 	0.79170 0.76993 0.78496 -0.15100
C 	C 	0.86506 0.79358 0.77129 0.00700
C 	C 	0.88166 0.72289 0.77009 -0.04200
H 	H 	0.86760 0.56463 0.79280 0.05600
H 	H 	0.67305 0.67533 0.82570 0.05800
H 	H 	0.62537 0.53188 0.86531 0.05700
H 	H 	0.94345 0.72947 0.76606 0.04900
H 	H 	0.79102 0.44364 0.83569 0.09400
H 	H 	0.77550 0.81526 0.79367 0.08500
