data_crystal

_cell_length_a 26.13414
_cell_length_b 26.41805
_cell_length_c 39.96673
_cell_angle_alpha 95.49790
_cell_angle_beta  95.49389
_cell_angle_gamma 125.79711

_symmetry_space_group_name_	'P 1'
_symmetry_space_group_name_H-M	'P 1'

loop_
_symmetry_equiv_pos_as_xyz
  x,y,z

loop_
_atom_site_label
_atom_site_type_symbol
_atom_site_fract_x
_atom_site_fract_y
_atom_site_fract_z
_atom_site_charge
C 	C 	0.95940 0.02379 0.99060 0.11100
C 	C 	0.05088 0.02566 0.99182 0.11500
N 	N 	0.02407 0.05695 0.99304 -0.13700
N 	N 	0.00727 0.03509 0.46185 -0.13900
Cu	Cu	0.63602 0.24122 0.00720 0.92800
Cu	Cu	0.67185 0.23702 0.93122 0.86600
Cu	Cu	0.65958 0.33512 0.96095 0.89600
Cu	Cu	0.64860 0.36484 0.03238 0.89400
C 	C 	0.66924 0.29386 0.07896 0.30700
O 	O 	0.54631 0.21089 0.01292 -0.36300
C 	C 	0.63169 0.29044 0.88619 0.28300
O 	O 	0.69015 0.33939 0.00757 -0.64100
O 	O 	0.61722 0.24263 0.95841 -0.64200
O 	O 	0.67111 0.19193 0.00157 -0.37400
O 	O 	0.73646 0.25423 0.96683 -0.44300
O 	O 	0.64185 0.32161 0.07198 -0.38700
O 	O 	0.70695 0.42598 0.96498 -0.39000
C 	C 	0.70593 0.46419 0.98834 0.29500
C 	C 	0.52155 0.23883 0.00154 0.28200
O 	O 	0.55951 0.29725 0.99621 -0.39700
O 	O 	0.68908 0.44877 0.01808 -0.39500
O 	O 	0.66816 0.25523 0.05490 -0.36400
C 	C 	0.72236 0.21426 0.98774 0.28900
O 	O 	0.63557 0.32910 0.91175 -0.38100
O 	O 	0.62745 0.23958 0.89128 -0.42100
H 	H 	0.73747 0.36607 0.01450 0.16600
H 	H 	0.57122 0.21523 0.94748 0.17300
Cu	Cu	0.74391 0.34308 0.46457 0.92600
Cu	Cu	0.74305 0.30242 0.53970 0.87000
Cu	Cu	0.63831 0.30445 0.50648 0.89700
Cu	Cu	0.61907 0.32937 0.43653 0.89400
C 	C 	0.69732 0.31574 0.39203 0.28800
O 	O 	0.77554 0.43365 0.46200 -0.36200
C 	C 	0.68007 0.33294 0.58217 0.30700
O 	O 	0.64328 0.28584 0.45983 -0.63900
O 	O 	0.73385 0.35428 0.51265 -0.64100
O 	O 	0.79386 0.30800 0.47057 -0.37300
O 	O 	0.72810 0.24090 0.50360 -0.44200
O 	O 	0.66706 0.34081 0.39843 -0.38600
O 	O 	0.54539 0.25094 0.49755 -0.38300
C 	C 	0.50876 0.24945 0.47163 0.29100
C 	C 	0.74307 0.45462 0.47137 0.28100
O 	O 	0.68367 0.41390 0.47539 -0.39500
O 	O 	0.53349 0.28907 0.44999 -0.39600
O 	O 	0.73716 0.31868 0.41661 -0.36400
C 	C 	0.77078 0.25672 0.48399 0.28800
O 	O 	0.63315 0.31032 0.55568 -0.38700
O 	O 	0.73470 0.34314 0.57845 -0.42300
H 	H 	0.61864 0.23999 0.45021 0.16300
H 	H 	0.75719 0.39886 0.52446 0.17300
C 	C 	0.62423 0.30023 0.85073 -0.08800
C 	C 	0.59549 0.24920 0.82303 0.01100
C 	C 	0.59615 0.25996 0.78945 -0.06700
C 	C 	0.62509 0.32172 0.78313 0.02400
C 	C 	0.65085 0.37223 0.81066 -0.06600
C 	C 	0.65051 0.36159 0.84430 0.01000
C 	C 	0.63335 0.33416 0.74803 0.00100
C 	C 	0.69532 0.37396 0.74069 -0.04100
C 	C 	0.70365 0.37928 0.70684 -0.03400
C 	C 	0.65022 0.34480 0.68007 -0.00900
C 	C 	0.58817 0.30725 0.68743 -0.03300
C 	C 	0.57972 0.30207 0.72132 -0.04100
C 	C 	0.65940 0.34215 0.64512 0.04400
C 	C 	0.66822 0.33871 0.61618 -0.11300
H 	H 	0.57382 0.20140 0.82751 0.03000
H 	H 	0.57588 0.22058 0.76839 0.04300
H 	H 	0.67266 0.41998 0.80604 0.04500
H 	H 	0.67260 0.40139 0.86534 0.03600
H 	H 	0.73705 0.39897 0.76108 0.03700
H 	H 	0.75176 0.40847 0.70135 0.03700
H 	H 	0.54660 0.28059 0.66688 0.03900
H 	H 	0.53165 0.27178 0.72672 0.03900
C 	C 	0.69917 0.29938 0.35605 -0.08500
C 	C 	0.75750 0.31893 0.34626 0.01600
C 	C 	0.76093 0.31210 0.31155 -0.06600
C 	C 	0.70606 0.28547 0.28637 0.02600
C 	C 	0.64714 0.26298 0.29621 -0.06600
C 	C 	0.64370 0.26984 0.33085 0.01300
C 	C 	0.71122 0.28604 0.24991 0.00200
C 	C 	0.74847 0.34413 0.23868 -0.04000
C 	C 	0.74572 0.34527 0.20366 -0.03300
C 	C 	0.70582 0.28843 0.17964 -0.00700
C 	C 	0.67106 0.23021 0.19082 -0.03200
C 	C 	0.67382 0.22898 0.22584 -0.04000
C 	C 	0.69496 0.29023 0.14387 0.04400
C 	C 	0.68421 0.29188 0.11411 -0.10400
H 	H 	0.80065 0.34162 0.36542 0.03800
H 	H 	0.80652 0.32905 0.30422 0.04600
H 	H 	0.60445 0.24211 0.27699 0.04500
H 	H 	0.59826 0.25379 0.33809 0.02200
H 	H 	0.77757 0.38845 0.25702 0.04000
H 	H 	0.77289 0.39046 0.19522 0.03800
H 	H 	0.64031 0.18603 0.17240 0.04000
H 	H 	0.64535 0.18386 0.23424 0.03900
C 	C 	0.83478 0.56774 0.47136 0.01200
C 	C 	0.76965 0.52219 0.47250 -0.08800
C 	C 	0.72890 0.54067 0.47285 0.01000
H 	H 	0.86711 0.55467 0.47162 0.03400
H 	H 	0.67866 0.50638 0.47392 0.03100
C 	C 	0.83268 0.05042 0.44720 -0.04300
C 	C 	0.86871 0.11065 0.46836 0.00300
C 	C 	0.92842 0.13472 0.48802 -0.04400
C 	C 	0.95208 0.09904 0.48654 -0.02400
C 	C 	0.91628 0.03880 0.46532 -0.01800
C 	C 	0.85630 0.01454 0.44572 -0.02800
C 	C 	0.84219 0.14679 0.47175 0.02600
H 	H 	0.95632 0.18095 0.50463 0.03900
H 	H 	0.99823 0.11817 0.50194 0.03900
H 	H 	0.78627 0.03124 0.43212 0.04000
C 	C 	0.84009 0.17761 0.44549 -0.06800
C 	C 	0.81768 0.21437 0.44956 0.01600
C 	C 	0.79698 0.22029 0.47989 -0.09700
C 	C 	0.79922 0.18934 0.50609 0.01400
C 	C 	0.82165 0.15283 0.50201 -0.06900
H 	H 	0.85616 0.17343 0.42208 0.04700
H 	H 	0.81577 0.23754 0.42905 0.03600
H 	H 	0.78390 0.19387 0.52972 0.01200
H 	H 	0.82339 0.12946 0.52246 0.04400
C 	C 	0.20384 0.12761 0.44959 -0.04400
C 	C 	0.23587 0.10502 0.46450 0.00500
C 	C 	0.20130 0.04896 0.47774 -0.04400
C 	C 	0.13527 0.01582 0.47621 -0.02600
C 	C 	0.10302 0.03827 0.46123 -0.01900
C 	C 	0.13771 0.09435 0.44789 -0.02300
C 	C 	0.30562 0.14015 0.46633 0.02500
H 	H 	0.22563 0.03110 0.48922 0.04000
H 	H 	0.11344 0.11196 0.43603 0.04100
H 	H 	0.23022 0.17099 0.43938 0.04100
C 	C 	0.33094 0.14921 0.43620 -0.06600
C 	C 	0.39720 0.18384 0.43794 0.01400
C 	C 	0.43875 0.20961 0.46984 -0.08800
C 	C 	0.41325 0.19952 0.49998 0.01500
C 	C 	0.34698 0.16506 0.49821 -0.06600
H 	H 	0.29929 0.12955 0.41146 0.04500
H 	H 	0.41624 0.19075 0.41451 0.02500
H 	H 	0.44479 0.21949 0.52476 0.03800
H 	H 	0.32784 0.15837 0.52161 0.04600
C 	C 	0.73395 0.52965 0.98350 -0.08900
H 	H 	0.67624 0.54088 0.01428 0.03000
C 	C 	0.92612 0.14181 0.01669 -0.04300
C 	C 	0.86662 0.11381 0.99535 0.00300
C 	C 	0.83954 0.05817 0.97130 -0.04300
C 	C 	0.87083 0.02990 0.96910 -0.02900
C 	C 	0.92968 0.05703 0.99090 -0.01600
C 	C 	0.95761 0.11359 0.01443 -0.02900
C 	C 	0.83290 0.14302 0.99783 0.02500
H 	H 	0.79415 0.03678 0.95435 0.03700
H 	H 	0.00285 0.13484 0.03148 0.04400
H 	H 	0.94756 0.18494 0.03524 0.03900
C 	C 	0.77089 0.10839 0.00550 -0.06800
C 	C 	0.73567 0.13275 0.00365 0.01300
C 	C 	0.76219 0.19206 0.99413 -0.09500
C 	C 	0.82555 0.22807 0.98823 0.01200
C 	C 	0.86060 0.20356 0.98997 -0.06800
H 	H 	0.74940 0.06191 0.01203 0.04600
H 	H 	0.68711 0.10461 0.00855 0.03400
H 	H 	0.84718 0.27449 0.98160 0.02800
H 	H 	0.90860 0.23085 0.98425 0.04400
C 	C 	0.36175 0.16261 0.02921 -0.06600
C 	C 	0.32340 0.15674 0.99974 0.02500
C 	C 	0.35060 0.17819 0.97082 -0.06600
C 	C 	0.41537 0.20482 0.97134 0.01300
C 	C 	0.45310 0.20913 0.00052 -0.09000
C 	C 	0.42606 0.18803 0.02945 0.01400
C 	C 	0.25390 0.12423 0.99845 0.00500
H 	H 	0.32140 0.17345 0.94783 0.04500
H 	H 	0.43601 0.22143 0.94896 0.02600
H 	H 	0.45514 0.19218 0.05231 0.03500
H 	H 	0.34153 0.14694 0.05181 0.04600
C 	C 	0.21585 0.06340 0.00651 -0.04400
C 	C 	0.15030 0.03240 0.00543 -0.02700
C 	C 	0.12136 0.06113 0.99542 -0.01800
C 	C 	0.15954 0.12231 0.98754 -0.02300
C 	C 	0.22559 0.15383 0.98923 -0.04400
H 	H 	0.23709 0.03998 0.01349 0.04000
H 	H 	0.13811 0.14512 0.97968 0.04100
H 	H 	0.25464 0.20106 0.98326 0.04000
C 	C 	0.75236 0.60307 0.47080 -0.06500
C 	C 	0.81686 0.64795 0.46863 0.02400
C 	C 	0.85823 0.63030 0.46946 -0.06500
C 	C 	0.84058 0.71284 0.46428 0.00600
H 	H 	0.90838 0.66487 0.46828 0.04600
H 	H 	0.72007 0.61621 0.47025 0.04500
C 	C 	0.86689 0.73591 0.43544 -0.04600
C 	C 	0.89273 0.79846 0.43225 -0.02100
C 	C 	0.89226 0.83850 0.45778 -0.02100
C 	C 	0.86294 0.81446 0.48574 -0.02100
C 	C 	0.83741 0.75193 0.48906 -0.04600
H 	H 	0.86834 0.70574 0.41581 0.04200
H 	H 	0.91496 0.81645 0.41048 0.03900
H 	H 	0.86252 0.84501 0.50566 0.03900
H 	H 	0.81666 0.73442 0.51128 0.04100
C 	C 	0.80803 0.75394 0.96534 -0.04600
C 	C 	0.83422 0.72725 0.98182 0.00600
C 	C 	0.89732 0.76667 0.00040 -0.04600
C 	C 	0.93431 0.83229 0.00225 -0.02200
C 	C 	0.90860 0.85921 0.98542 -0.02100
C 	C 	0.84509 0.81971 0.96709 -0.02100
C 	C 	0.79578 0.65807 0.97973 0.02500
H 	H 	0.91765 0.74640 0.01346 0.04100
H 	H 	0.82476 0.83979 0.95384 0.03900
H 	H 	0.75924 0.72375 0.95098 0.04100
C 	C 	0.74536 0.62764 0.99789 -0.06600
C 	C 	0.71451 0.56368 0.99976 0.01500
C 	C 	0.78250 0.55950 0.96401 0.01500
C 	C 	0.81327 0.62343 0.96218 -0.06700
H 	H 	0.73133 0.65401 0.01136 0.04600
H 	H 	0.79779 0.53381 0.95117 0.03200
H 	H 	0.85192 0.64655 0.94791 0.04500
C 	C 	0.93179 0.90726 0.45817 0.11700
H 	H 	0.98288 0.86225 0.01689 0.03900
N 	N 	0.90582 0.93926 0.46059 -0.13800
C 	C 	0.94859 0.92836 0.98658 0.11600
N 	N 	0.99528 0.93932 0.45751 -0.14100
H 	H 	0.82846 0.96843 0.42901 0.04400
H 	H 	0.10930 0.97301 0.48693 0.04500
N 	N 	0.92191 0.95958 0.98762 -0.13800
N 	N 	0.01281 0.96140 0.98820 -0.13800
H 	H 	0.84917 0.98668 0.95057 0.04200
H 	H 	0.12191 0.98578 0.01217 0.04400
C 	C 	0.03326 0.00324 0.45970 0.11700
C 	C 	0.94358 0.00330 0.46214 0.11000
