data_crystal

_cell_length_a 28.54720
_cell_length_b 26.26106
_cell_length_c 31.81538
_cell_angle_alpha 103.76322
_cell_angle_beta  115.82460
_cell_angle_gamma 112.10662

_symmetry_space_group_name_	'P 1'
_symmetry_space_group_name_H-M	'P 1'

loop_
_symmetry_equiv_pos_as_xyz
  x,y,z

loop_
_atom_site_label
_atom_site_type_symbol
_atom_site_fract_x
_atom_site_fract_y
_atom_site_fract_z
_atom_site_charge
C 	C 	0.54088 0.24388 0.85754 0.05500
C 	C 	0.56148 0.30130 0.85717 -0.08700
C 	C 	0.61117 0.32681 0.85308 0.05400
C 	C 	0.63955 0.29445 0.84854 -0.08700
C 	C 	0.61951 0.23747 0.84951 0.05300
C 	C 	0.56966 0.21181 0.85336 -0.08700
H 	H 	0.54021 0.32688 0.86167 0.05900
H 	H 	0.67896 0.31493 0.84664 0.05600
H 	H 	0.55487 0.16825 0.85513 0.05700
C 	C 	0.57346 0.25580 0.37499 0.05300
C 	C 	0.59417 0.31280 0.37393 -0.08800
C 	C 	0.64297 0.33692 0.36857 0.05200
C 	C 	0.67031 0.30356 0.36344 -0.08900
C 	C 	0.65021 0.24705 0.36516 0.05100
C 	C 	0.60125 0.22277 0.37026 -0.08900
H 	H 	0.57370 0.33915 0.37886 0.05500
H 	H 	0.70908 0.32299 0.36058 0.05400
H 	H 	0.58642 0.17956 0.37258 0.05400
C 	C 	0.46098 0.75814 0.99441 0.05000
C 	C 	0.42968 0.78826 0.99528 -0.08600
C 	C 	0.37588 0.75932 0.99349 0.05200
C 	C 	0.35384 0.70070 0.99149 -0.08700
C 	C 	0.38472 0.67031 0.99026 0.05200
C 	C 	0.43850 0.69912 0.99195 -0.08600
H 	H 	0.44631 0.83332 0.99612 0.05700
H 	H 	0.31177 0.67801 0.98948 0.05600
H 	H 	0.46209 0.67532 0.99045 0.05600
C 	C 	0.49641 0.77308 0.51309 0.05100
C 	C 	0.46602 0.80411 0.51452 -0.08800
C 	C 	0.41280 0.77633 0.51370 0.05200
C 	C 	0.39051 0.71801 0.51224 -0.08800
C 	C 	0.42043 0.68667 0.51040 0.05200
C 	C 	0.47362 0.71431 0.51109 -0.08900
H 	H 	0.48280 0.84890 0.51489 0.05600
H 	H 	0.34881 0.69617 0.51090 0.05500
H 	H 	0.49642 0.68974 0.50905 0.05300
Zn	Zn	0.14603 0.11952 0.98937 1.18600
Zn	Zn	0.04184 0.07208 0.87653 1.19200
O 	O 	0.02504 0.95839 0.79247 -0.47200
O 	O 	0.01336 0.04107 0.79949 -0.45500
O 	O 	0.01354 0.88289 0.86367 -0.49900
C 	C 	0.19862 0.08143 0.94119 0.32100
O 	O 	0.97843 0.98913 0.85796 -0.86400
C 	C 	0.15223 0.20593 0.94548 0.33300
O 	O 	0.21218 0.11530 0.98734 -0.45900
O 	O 	0.14020 0.03960 0.90097 -0.35300
O 	O 	0.06225 0.08435 0.94990 -0.77900
O 	O 	0.07547 0.97102 0.94362 -0.45000
O 	O 	0.11124 0.15562 0.89787 -0.45000
O 	O 	0.16985 0.20119 0.98931 -0.45700
Zn	Zn	0.86495 0.90036 0.88518 1.17500
Zn	Zn	0.97012 0.92521 0.97992 1.19100
Zn	Zn	0.00177 0.00047 0.92788 1.21300
C 	C 	0.85260 0.79910 0.91587 0.33900
C 	C 	0.84142 0.94781 0.95712 0.33700
O 	O 	0.92914 0.03388 0.91352 -0.47100
Zn	Zn	0.99075 0.04671 0.02186 1.19500
O 	O 	0.91200 0.83658 0.95663 -0.45400
O 	O 	0.82535 0.81661 0.88218 -0.46600
O 	O 	0.82393 0.93207 0.90804 -0.48000
O 	O 	0.89679 0.96176 0.99317 -0.46400
C 	C 	0.02219 0.00165 0.09769 0.31600
O 	O 	0.94122 0.91678 0.90576 -0.79600
C 	C 	0.92817 0.07501 0.94589 0.33700
O 	O 	0.00348 0.94942 0.05879 -0.43000
O 	O 	0.02772 0.05093 0.09137 -0.46900
O 	O 	0.95766 0.09123 0.99660 -0.48800
O 	O 	0.02409 0.01034 0.99693 -0.89100
Zn	Zn	0.98892 0.92665 0.82848 1.18800
C 	C 	0.01968 0.99837 0.77558 0.33400
C 	C 	0.06159 0.91610 0.91370 0.33400
H 	H 	0.06875 0.02842 0.02357 0.15400
H 	H 	0.93551 0.97852 0.83487 0.14900
Zn	Zn	0.17696 0.13453 0.50637 1.18800
Zn	Zn	0.07283 0.08730 0.39320 1.19800
O 	O 	0.06057 0.97974 0.30900 -0.43900
O 	O 	0.04290 0.05847 0.31584 -0.39800
O 	O 	0.05195 0.90036 0.37843 -0.49800
C 	C 	0.23180 0.09888 0.45977 0.32400
O 	O 	0.01123 0.00289 0.37371 -0.88800
C 	C 	0.18232 0.22190 0.46323 0.32900
O 	O 	0.24445 0.13243 0.50555 -0.45400
O 	O 	0.17363 0.05727 0.41895 -0.32900
O 	O 	0.09296 0.09751 0.46612 -0.77400
O 	O 	0.10997 0.98611 0.45935 -0.44500
O 	O 	0.14080 0.17219 0.41527 -0.39900
O 	O 	0.19955 0.21633 0.50669 -0.45100
Zn	Zn	0.89705 0.90807 0.39696 1.17700
Zn	Zn	0.00294 0.93411 0.49310 1.19000
Zn	Zn	0.03398 0.01243 0.44305 1.21500
C 	C 	0.88636 0.80694 0.42775 0.33900
C 	C 	0.87067 0.95300 0.46721 0.34000
O 	O 	0.95898 0.04257 0.42814 -0.47000
Zn	Zn	0.01995 0.05405 0.53581 1.20200
O 	O 	0.94578 0.84464 0.46845 -0.45500
O 	O 	0.85904 0.82380 0.39346 -0.46600
O 	O 	0.85300 0.93639 0.41802 -0.47800
O 	O 	0.92574 0.96632 0.50316 -0.47200
C 	C 	0.04711 0.00469 0.60882 0.28400
O 	O 	0.97473 0.92759 0.41963 -0.79400
C 	C 	0.95737 0.08296 0.46049 0.33800
O 	O 	0.03524 0.95615 0.57135 -0.40100
O 	O 	0.05333 0.05493 0.60408 -0.40400
O 	O 	0.98625 0.09838 0.51102 -0.48500
O 	O 	0.05558 0.02048 0.51162 -0.89900
Zn	Zn	0.02563 0.94420 0.34438 1.18800
C 	C 	0.04996 0.01724 0.29100 0.29400
C 	C 	0.09827 0.93268 0.42907 0.33600
H 	H 	0.10033 0.03945 0.53870 0.18100
H 	H 	0.96782 0.99078 0.35009 0.16100
C 	C 	0.02819 0.99984 0.73360 -0.11500
C 	C 	0.98614 0.94770 0.68262 0.04100
C 	C 	0.99510 0.94779 0.64290 -0.06200
C 	C 	0.04682 0.99970 0.65387 0.05500
C 	C 	0.09286 0.04999 0.70685 -0.15100
C 	C 	0.08135 0.05093 0.74571 0.09400
H 	H 	0.96033 0.90853 0.60285 0.05700
H 	H 	0.11432 0.09067 0.78561 0.05700
H 	H 	0.94573 0.90749 0.67345 0.01000
C 	C 	0.15366 0.10271 0.72210 0.79300
F 	F 	0.14514 0.14727 0.71035 -0.46600
F 	F 	0.19968 0.13129 0.77607 -0.47500
F 	F 	0.17430 0.08011 0.69483 -0.47600
C 	C 	0.03433 0.00379 0.14821 -0.12600
C 	C 	0.99335 0.95259 0.14759 0.04000
C 	C 	0.99925 0.95744 0.19447 -0.04200
C 	C 	0.04674 0.01321 0.24281 0.00900
C 	C 	0.09147 0.06366 0.24465 -0.13100
C 	C 	0.08337 0.05914 0.19664 0.09200
H 	H 	0.96603 0.91806 0.19309 0.02500
H 	H 	0.11478 0.09867 0.19681 0.05100
H 	H 	0.95534 0.90973 0.11035 0.02900
C 	C 	0.14635 0.12285 0.29704 0.78500
F 	F 	0.17390 0.10794 0.33589 -0.46800
F 	F 	0.19148 0.15891 0.29198 -0.47200
F 	F 	0.12602 0.15832 0.31328 -0.45800
C 	C 	0.30771 0.45740 0.52909 -0.02600
H 	H 	0.30785 0.46070 0.56460 0.03600
C 	C 	0.27685 0.39620 0.47957 -0.00000
C 	C 	0.24279 0.33357 0.47297 0.05700
C 	C 	0.27929 0.48225 0.49218 -0.03700
H 	H 	0.25671 0.50720 0.49747 0.03800
C 	C 	0.24797 0.42018 0.44257 -0.02200
H 	H 	0.19900 0.39285 0.40689 0.04500
C 	C 	0.36623 0.48528 0.52919 -0.03800
H 	H 	0.41520 0.51265 0.56488 0.03700
C 	C 	0.33731 0.50922 0.49216 0.01700
C 	C 	0.36952 0.57242 0.49912 -0.01200
C 	C 	0.30647 0.44805 0.44262 -0.03300
H 	H 	0.30632 0.44481 0.40713 0.04400
C 	C 	0.33486 0.42306 0.47954 -0.02200
H 	H 	0.35736 0.39802 0.47423 0.04500
C 	C 	0.39401 0.62451 0.50454 -0.03200
C 	C 	0.21490 0.28241 0.46814 -0.08600
C 	C 	0.69076 0.91766 0.48505 -0.02300
H 	H 	0.69335 0.95637 0.47571 0.03600
C 	C 	0.73361 0.89376 0.49088 -0.00800
C 	C 	0.78348 0.91758 0.48373 0.05300
C 	C 	0.69876 0.91652 0.53619 -0.03800
H 	H 	0.70701 0.95381 0.56906 0.03800
C 	C 	0.74245 0.89301 0.54191 -0.02500
H 	H 	0.78760 0.91145 0.57936 0.03300
C 	C 	0.63398 0.84884 0.45077 -0.03800
H 	H 	0.58886 0.83037 0.41328 0.03800
C 	C 	0.64274 0.84806 0.50177 0.01800
C 	C 	0.59140 0.82177 0.50687 -0.01500
C 	C 	0.68561 0.82418 0.50760 -0.03900
H 	H 	0.68304 0.78546 0.51689 0.03400
C 	C 	0.67756 0.82532 0.45652 -0.02400
H 	H 	0.66924 0.78797 0.42363 0.03400
C 	C 	0.54847 0.79968 0.51015 -0.03200
C 	C 	0.82372 0.93507 0.47676 -0.11800
C 	C 	0.25920 0.87892 0.52473 -0.02300
H 	H 	0.25373 0.88931 0.55762 0.03800
C 	C 	0.22645 0.88476 0.47469 -0.01000
C 	C 	0.18179 0.90344 0.46139 0.05500
C 	C 	0.32113 0.91221 0.53033 -0.03700
H 	H 	0.36746 0.94964 0.56804 0.04100
C 	C 	0.28758 0.91841 0.48008 -0.02200
H 	H 	0.30547 0.96136 0.47628 0.04000
C 	C 	0.24301 0.81454 0.48902 -0.03800
H 	H 	0.22503 0.77155 0.49275 0.03800
C 	C 	0.30414 0.84814 0.49441 0.01900
C 	C 	0.34548 0.82548 0.50342 -0.01200
C 	C 	0.27133 0.85404 0.44442 -0.03800
H 	H 	0.27669 0.84363 0.41146 0.03900
C 	C 	0.20966 0.82075 0.43888 -0.02400
H 	H 	0.16339 0.78322 0.40115 0.03400
C 	C 	0.37736 0.80440 0.50899 -0.03000
C 	C 	0.14399 0.91737 0.44797 -0.12800
C 	C 	0.27687 0.44099 0.01036 -0.03900
H 	H 	0.27869 0.44430 0.04655 0.03400
C 	C 	0.24471 0.37978 0.96028 0.00200
C 	C 	0.21143 0.31720 0.95406 0.05300
C 	C 	0.24710 0.46592 0.97426 -0.03000
H 	H 	0.22505 0.49093 0.98089 0.03700
C 	C 	0.21450 0.40384 0.92410 -0.02500
H 	H 	0.16502 0.37658 0.88930 0.04000
C 	C 	0.33401 0.46879 0.00858 -0.05300
H 	H 	0.38348 0.49610 0.04339 0.03700
C 	C 	0.30374 0.49280 0.97237 0.02700
C 	C 	0.33515 0.55602 0.97912 -0.01300
C 	C 	0.27161 0.43163 0.92227 -0.03800
H 	H 	0.26979 0.42838 0.88609 0.04600
C 	C 	0.30136 0.40655 0.95837 -0.01300
H 	H 	0.32332 0.38145 0.95173 0.04200
C 	C 	0.35901 0.60813 0.98444 -0.02800
C 	C 	0.18413 0.26616 0.94967 -0.10900
C 	C 	0.65750 0.90760 0.01301 -0.06000
H 	H 	0.65796 0.94568 0.03793 0.04000
C 	C 	0.61000 0.83696 0.98698 0.04200
C 	C 	0.55765 0.80934 0.99067 -0.01800
C 	C 	0.65044 0.89730 0.96000 -0.01100
H 	H 	0.64605 0.92743 0.94122 0.03400
C 	C 	0.60218 0.82631 0.93409 -0.04800
H 	H 	0.55710 0.79744 0.89400 0.04100
C 	C 	0.71061 0.89576 0.03151 -0.02300
H 	H 	0.75573 0.92462 0.07156 0.03200
C 	C 	0.70269 0.88506 0.97858 -0.00700
C 	C 	0.75347 0.91020 0.97264 0.05500
C 	C 	0.65515 0.81444 0.95258 -0.01100
H 	H 	0.65461 0.77629 0.92765 0.03300
C 	C 	0.66225 0.82472 0.00555 -0.06100
H 	H 	0.66663 0.79456 0.02429 0.03500
C 	C 	0.79422 0.92873 0.96635 -0.11600
C 	C 	0.51394 0.78612 0.99280 -0.02500
C 	C 	0.17208 0.80326 0.91984 -0.02600
H 	H 	0.12591 0.76619 0.88183 0.03500
C 	C 	0.18877 0.86671 0.95659 -0.00300
C 	C 	0.14428 0.88559 0.94411 0.05200
C 	C 	0.20509 0.79573 0.96923 -0.03100
H 	H 	0.18693 0.75209 0.97207 0.03700
C 	C 	0.22119 0.85953 0.00590 -0.03700
H 	H 	0.21545 0.86880 0.03869 0.03300
C 	C 	0.23398 0.83737 0.92586 -0.04000
H 	H 	0.23961 0.82808 0.89300 0.04100
C 	C 	0.26645 0.83014 0.97511 0.02700
C 	C 	0.30792 0.80768 0.98361 -0.01300
C 	C 	0.28332 0.89364 0.01197 -0.05100
H 	H 	0.32955 0.93062 0.04995 0.03900
C 	C 	0.25012 0.90116 0.96247 -0.01500
H 	H 	0.26820 0.94477 0.95957 0.03900
C 	C 	0.34003 0.78691 0.98892 -0.02700
C 	C 	0.10678 0.89996 0.93149 -0.13000
C 	C 	0.77708 0.10977 0.40928 -0.02400
H 	H 	0.76201 0.07248 0.42006 0.03300
C 	C 	0.83399 0.13553 0.40768 -0.01200
C 	C 	0.87743 0.11546 0.42306 0.05100
C 	C 	0.73797 0.10638 0.35508 -0.04000
H 	H 	0.68990 0.06678 0.32104 0.03400
C 	C 	0.79566 0.13177 0.35367 -0.02500
H 	H 	0.79592 0.11265 0.31872 0.02900
C 	C 	0.79627 0.17778 0.43904 -0.03800
H 	H 	0.79617 0.19688 0.47410 0.03900
C 	C 	0.75786 0.17414 0.38512 0.01900
C 	C 	0.71715 0.19758 0.37514 -0.01400
C 	C 	0.81475 0.19992 0.38349 -0.03900
H 	H 	0.82984 0.23728 0.37278 0.03700
C 	C 	0.85370 0.20323 0.43761 -0.02300
H 	H 	0.90170 0.24293 0.47170 0.03600
C 	C 	0.68556 0.21898 0.36939 -0.03200
C 	C 	0.91384 0.10015 0.43864 -0.13100
C 	C 	0.78232 0.54119 0.38466 -0.03800
H 	H 	0.80298 0.51547 0.37600 0.03700
C 	C 	0.72632 0.51447 0.38739 0.01900
C 	C 	0.69402 0.45089 0.37954 -0.01400
C 	C 	0.81668 0.60216 0.43646 -0.02400
H 	H 	0.86629 0.62787 0.47062 0.03600
C 	C 	0.76021 0.57455 0.43909 -0.03800
H 	H 	0.76264 0.57631 0.47525 0.03600
C 	C 	0.75345 0.56875 0.35102 -0.02500
H 	H 	0.75105 0.56699 0.31488 0.03200
C 	C 	0.78734 0.62882 0.40273 -0.00900
C 	C 	0.82219 0.69246 0.41156 0.04900
C 	C 	0.73134 0.60220 0.40547 -0.02500
H 	H 	0.71076 0.62800 0.41416 0.03300
C 	C 	0.69689 0.54104 0.35361 -0.03900
H 	H 	0.64727 0.51525 0.31945 0.03600
C 	C 	0.85139 0.74477 0.41896 -0.11900
C 	C 	0.66951 0.39877 0.37398 -0.03100
C 	C 	0.45947 0.19114 0.45900 -0.03700
H 	H 	0.50575 0.20493 0.49215 0.03700
C 	C 	0.44428 0.19393 0.40727 0.01600
C 	C 	0.48962 0.21571 0.39499 -0.01100
C 	C 	0.39882 0.12494 0.42573 -0.02800
H 	H 	0.39430 0.08386 0.43176 0.03400
C 	C 	0.38436 0.12808 0.37380 -0.03300
H 	H 	0.36876 0.08998 0.33680 0.03800
C 	C 	0.42327 0.22125 0.46336 -0.02500
H 	H 	0.43886 0.25937 0.50035 0.04000
C 	C 	0.36337 0.15541 0.42992 0.00500
C 	C 	0.31777 0.13447 0.44201 0.06400
C 	C 	0.34818 0.15821 0.37819 -0.02200
H 	H 	0.30189 0.14443 0.34506 0.08200
C 	C 	0.40878 0.22437 0.41145 -0.02800
H 	H 	0.41325 0.26544 0.40542 0.04700
C 	C 	0.27924 0.11784 0.45093 -0.08100
C 	C 	0.52744 0.23388 0.38546 -0.03200
C 	C 	0.82412 0.19503 0.92368 -0.02200
H 	H 	0.87182 0.23451 0.95849 0.03600
C 	C 	0.80493 0.12776 0.89295 -0.01200
C 	C 	0.84842 0.10775 0.90840 0.05100
C 	C 	0.76574 0.16830 0.92370 -0.03700
H 	H 	0.76454 0.18611 0.95832 0.04000
C 	C 	0.74706 0.10073 0.89316 -0.02300
H 	H 	0.73131 0.06252 0.90286 0.03400
C 	C 	0.78636 0.19310 0.86997 -0.03900
H 	H 	0.80211 0.23138 0.86033 0.03700
C 	C 	0.72851 0.16605 0.87019 0.02000
C 	C 	0.68750 0.18915 0.86003 -0.01300
C 	C 	0.70914 0.09872 0.83937 -0.04000
H 	H 	0.66138 0.05933 0.80460 0.03500
C 	C 	0.76778 0.12540 0.83937 -0.02500
H 	H 	0.76913 0.10756 0.80485 0.02900
C 	C 	0.65550 0.21011 0.85407 -0.03100
C 	C 	0.88479 0.09237 0.92401 -0.13200
C 	C 	0.72397 0.56077 0.83908 -0.02400
H 	H 	0.72470 0.55976 0.80429 0.03300
C 	C 	0.75369 0.62023 0.88958 -0.00900
C 	C 	0.78829 0.68420 0.89889 0.05000
C 	C 	0.66470 0.53063 0.83773 -0.03800
H 	H 	0.61601 0.50360 0.80167 0.03800
C 	C 	0.69498 0.59118 0.88839 -0.02400
H 	H 	0.67186 0.61523 0.89421 0.03500
C 	C 	0.75207 0.53443 0.87457 -0.03800
H 	H 	0.77528 0.51047 0.86878 0.03800
C 	C 	0.69336 0.50527 0.87336 0.02000
C 	C 	0.66149 0.44135 0.86501 -0.01200
C 	C 	0.72308 0.56473 0.92387 -0.03800
H 	H 	0.72238 0.56573 0.95866 0.03800
C 	C 	0.78226 0.59478 0.92516 -0.02400
H 	H 	0.83095 0.62174 0.96122 0.03700
C 	C 	0.63733 0.38897 0.85902 -0.03000
C 	C 	0.81745 0.73672 0.90666 -0.11800
C 	C 	0.34991 0.17823 0.86281 -0.02300
H 	H 	0.33445 0.19455 0.83331 0.08100
C 	C 	0.40991 0.17866 0.88750 0.01900
C 	C 	0.45570 0.20147 0.87582 -0.00600
C 	C 	0.36411 0.20567 0.91882 -0.01600
H 	H 	0.35944 0.24418 0.93566 0.04700
C 	C 	0.42479 0.20644 0.94334 -0.03900
H 	H 	0.47094 0.24603 0.98011 0.04000
C 	C 	0.31368 0.11087 0.85372 -0.00900
H 	H 	0.26748 0.07132 0.81695 0.07000
C 	C 	0.32862 0.13867 0.90959 -0.00300
C 	C 	0.28321 0.11718 0.92184 0.06000
C 	C 	0.38860 0.13909 0.93427 -0.02600
H 	H 	0.40408 0.12278 0.96378 0.03500
C 	C 	0.37441 0.11164 0.87822 -0.03900
H 	H 	0.37907 0.07314 0.86135 0.04000
C 	C 	0.24518 0.10036 0.93130 -0.10700
C 	C 	0.49407 0.22064 0.86700 -0.02900
