data_crystal

_cell_length_a 16.66946
_cell_length_b 17.46388
_cell_length_c 39.64261
_cell_angle_alpha 60.61371
_cell_angle_beta  119.12455
_cell_angle_gamma 133.25482

_symmetry_space_group_name_	'P 1'
_symmetry_space_group_name_H-M	'P 1'

loop_
_symmetry_equiv_pos_as_xyz
  x,y,z

loop_
_atom_site_label
_atom_site_type_symbol
_atom_site_fract_x
_atom_site_fract_y
_atom_site_fract_z
_atom_site_charge
N 	N 	0.61580 0.36830 0.01081 -0.13300
C 	C 	0.53600 0.28068 0.99528 0.11600
N 	N 	0.56312 0.22037 0.99761 -0.13000
N 	N 	0.56314 0.22038 0.49762 -0.13300
C 	C 	0.53602 0.28070 0.49528 0.11100
N 	N 	0.61582 0.36832 0.51081 -0.12700
C 	C 	0.32382 0.68964 0.12593 0.11500
N 	N 	0.43000 0.71689 0.14571 -0.12600
C 	C 	0.46308 0.66245 0.14730 0.11600
N 	N 	0.38853 0.57793 0.13019 -0.12700
C 	C 	0.28160 0.54867 0.11089 0.11600
N 	N 	0.24902 0.60497 0.10846 -0.12700
C 	C 	0.32383 0.68965 0.62593 0.11500
N 	N 	0.43001 0.71690 0.64572 -0.12500
C 	C 	0.46309 0.66246 0.64730 0.11600
N 	N 	0.38854 0.57794 0.63019 -0.12700
C 	C 	0.28161 0.54868 0.61089 0.11600
N 	N 	0.24903 0.60498 0.60846 -0.12700
Co	Co	0.00863 0.00064 0.01334 1.16300
Co	Co	0.09471 0.88070 0.01291 1.17300
C 	C 	0.20377 0.11702 0.98227 0.33500
O 	O 	0.07499 0.12975 0.16326 -0.39600
C 	C 	0.10770 0.06721 0.18872 0.30700
C 	C 	0.04684 0.26371 0.07744 0.31400
C 	C 	0.26280 0.91220 0.08856 0.31200
O 	O 	0.11524 0.01599 0.17561 -0.40200
O 	O 	0.25371 0.95524 0.05018 -0.37100
O 	O 	0.21950 0.91685 0.10745 -0.37200
O 	O 	0.06982 0.22091 0.06675 -0.39600
O 	O 	0.04051 0.90987 0.04059 -0.74100
O 	O 	0.14122 0.02829 0.97081 -0.43100
O 	O 	0.16864 0.12267 0.00374 -0.41800
Co	Co	0.00864 0.00066 0.51334 1.16500
Co	Co	0.09473 0.88072 0.51291 1.17500
C 	C 	0.20378 0.11703 0.48227 0.32700
O 	O 	0.07500 0.12977 0.66326 -0.39600
C 	C 	0.10771 0.06723 0.68872 0.30700
C 	C 	0.04685 0.26373 0.57744 0.31400
C 	C 	0.26282 0.91222 0.58856 0.31200
O 	O 	0.11525 0.01600 0.67561 -0.40100
O 	O 	0.25373 0.95525 0.55018 -0.36900
O 	O 	0.21952 0.91686 0.60745 -0.37200
O 	O 	0.06984 0.22093 0.56675 -0.39500
O 	O 	0.04053 0.90989 0.54059 -0.74000
O 	O 	0.14124 0.02830 0.47081 -0.43200
O 	O 	0.16866 0.12268 0.50374 -0.41100
C 	C 	0.04732 0.97621 0.79423 0.07400
C 	C 	0.07653 0.03990 0.84434 -0.07600
C 	C 	0.11650 0.05288 0.81665 -0.07700
C 	C 	0.07817 0.00195 0.75990 -0.00900
C 	C 	0.09733 0.02845 0.72880 -0.09800
H 	H 	0.13133 0.09890 0.86188 0.05100
H 	H 	0.20017 0.12397 0.81194 0.05500
C 	C 	0.04732 0.97620 0.29423 0.07300
C 	C 	0.07654 0.03989 0.34434 -0.07600
C 	C 	0.11650 0.05287 0.31665 -0.07700
C 	C 	0.07816 0.00193 0.25990 -0.00900
C 	C 	0.09733 0.02844 0.22880 -0.09800
H 	H 	0.13134 0.09889 0.36188 0.05100
H 	H 	0.20017 0.12395 0.31194 0.05400
C 	C 	0.20099 0.45300 0.59592 0.03300
C 	C 	0.13340 0.36891 0.58579 -0.08000
C 	C 	0.58104 0.71028 0.65794 0.04000
C 	C 	0.29982 0.76426 0.61624 0.03900
C 	C 	0.28361 0.83123 0.60588 -0.08300
C 	C 	0.20098 0.45298 0.09592 0.03200
C 	C 	0.13339 0.36890 0.08579 -0.08000
C 	C 	0.58103 0.71027 0.15794 0.04000
C 	C 	0.29980 0.76425 0.11624 0.03900
C 	C 	0.28359 0.83122 0.10587 -0.08400
C 	C 	0.42003 0.23460 0.48753 0.03700
C 	C 	0.32125 0.18655 0.48385 -0.10000
C 	C 	0.42001 0.23459 0.98753 0.03800
C 	C 	0.32124 0.18654 0.98385 -0.09900
Co	Co	0.04906 0.85866 0.09016 1.18600
O 	O 	0.05476 0.73489 0.05448 -0.40800
Co	Co	0.04908 0.85868 0.59016 1.18600
O 	O 	0.05479 0.73490 0.55448 -0.40700
O 	O 	0.03456 0.83590 0.14269 -0.45400
O 	O 	0.03458 0.83592 0.64269 -0.45400
C 	C 	0.66853 0.24516 0.01672 0.11000
C 	C 	0.66855 0.24518 0.51673 0.11600
O 	O 	0.96584 0.09408 0.00462 -0.47300
O 	O 	0.96586 0.09409 0.50462 -0.47000
C 	C 	0.68124 0.75752 0.66444 -0.08500
C 	C 	0.68122 0.75751 0.16444 -0.08500
Co	Co	0.94568 0.06632 0.05669 1.18200
O 	O 	0.95289 0.20287 0.08849 -0.40200
Co	Co	0.94569 0.06633 0.55669 1.18200
O 	O 	0.95290 0.20288 0.58849 -0.40100
O 	O 	0.90207 0.93834 0.96212 -0.34100
O 	O 	0.90208 0.93835 0.46213 -0.34400
C 	C 	0.96705 0.95011 0.84985 0.05100
C 	C 	0.93378 0.92778 0.88289 0.04900
C 	C 	0.96705 0.95011 0.34986 0.05100
C 	C 	0.93379 0.92778 0.38290 0.04900
C 	C 	0.91338 0.90633 0.41296 -0.08500
N 	N 	0.74796 0.33228 0.03272 -0.12800
C 	C 	0.72135 0.39372 0.02971 0.11300
C 	C 	0.72137 0.39374 0.52971 0.11400
N 	N 	0.74798 0.33230 0.53272 -0.12800
Co	Co	0.98429 0.92385 0.13356 1.20500
C 	C 	0.96299 0.66945 0.06752 0.33100
Co	Co	0.90850 0.05844 0.13168 1.15600
O 	O 	0.94148 0.00680 0.10489 -0.77700
O 	O 	0.95756 0.93205 0.07052 -0.55400
C 	C 	0.80055 0.82313 0.16928 0.32000
C 	C 	0.90227 0.87593 0.95214 0.31300
O 	O 	0.86267 0.91688 0.17709 -0.37900
O 	O 	0.84149 0.80249 0.15619 -0.37100
O 	O 	0.93040 0.81122 0.97982 -0.37800
C 	C 	0.73743 0.02909 0.05625 0.26100
O 	O 	0.74845 0.98540 0.09483 -0.33300
O 	O 	0.78420 0.03200 0.03614 -0.37400
O 	O 	0.94678 0.70000 0.08677 -0.38000
Co	Co	0.98431 0.92387 0.63356 1.20500
C 	C 	0.96302 0.66946 0.56752 0.33200
Co	Co	0.90851 0.05845 0.63168 1.15600
O 	O 	0.94149 0.00681 0.60488 -0.77700
O 	O 	0.95757 0.93206 0.57052 -0.55400
C 	C 	0.80056 0.82314 0.66928 0.32000
C 	C 	0.90228 0.87593 0.45215 0.31300
O 	O 	0.86268 0.91690 0.67709 -0.37900
O 	O 	0.84151 0.80251 0.65619 -0.37000
O 	O 	0.93042 0.81123 0.47982 -0.38200
C 	C 	0.73744 0.02910 0.55625 0.26100
O 	O 	0.74846 0.98541 0.59482 -0.33300
O 	O 	0.78422 0.03202 0.53614 -0.37200
O 	O 	0.94680 0.70002 0.58677 -0.37900
C 	C 	0.93819 0.88582 0.80003 -0.03600
C 	C 	0.89830 0.87270 0.82780 -0.03400
C 	C 	0.91336 0.90633 0.91295 -0.08400
H 	H 	0.88317 0.82714 0.78233 0.06000
H 	H 	0.81451 0.80179 0.83245 0.05300
C 	C 	0.93819 0.88581 0.30003 -0.03500
C 	C 	0.89830 0.87270 0.32781 -0.03500
H 	H 	0.88317 0.82713 0.28234 0.06000
H 	H 	0.81452 0.80179 0.33246 0.05200
C 	C 	0.68817 0.16725 0.52760 0.02100
C 	C 	0.70736 0.10226 0.53919 -0.07900
C 	C 	0.80498 0.48656 0.54573 0.03800
C 	C 	0.87579 0.56790 0.55729 -0.08600
C 	C 	0.68816 0.16724 0.02760 0.02100
C 	C 	0.70735 0.10225 0.03919 -0.08100
C 	C 	0.80495 0.48654 0.04572 0.03700
C 	C 	0.87577 0.56789 0.05729 -0.08700
