data_crystal

_cell_length_a 48.81429
_cell_length_b 41.58783
_cell_length_c 30.77609
_cell_angle_alpha 89.95562
_cell_angle_beta  89.94890
_cell_angle_gamma 90.46536

_symmetry_space_group_name_	'P 1'
_symmetry_space_group_name_H-M	'P 1'

loop_
_symmetry_equiv_pos_as_xyz
  x,y,z

loop_
_atom_site_label
_atom_site_type_symbol
_atom_site_fract_x
_atom_site_fract_y
_atom_site_fract_z
_atom_site_charge
Zn	Zn	0.48505 0.47295 0.99612 1.22400
C 	C 	0.49694 0.54084 0.99079 0.32100
O 	O 	0.51027 0.45949 0.04217 -0.47500
O 	O 	0.47775 0.54370 0.02060 -0.45700
O 	O 	0.51569 0.50731 0.07639 -0.49800
C 	C 	0.43162 0.49034 0.02384 0.32400
O 	O 	0.44805 0.48914 0.99016 -0.45200
O 	O 	0.44191 0.49190 0.06320 -0.51000
C 	C 	0.52621 0.48062 0.06142 0.32000
O 	O 	0.46514 0.42123 0.99576 -0.32700
Zn	Zn	0.47643 0.51432 0.07469 1.16900
O 	O 	0.50445 0.51214 0.97745 -0.43700
C 	C 	0.47862 0.41705 0.95990 0.27900
O 	O 	0.49353 0.44124 0.94729 -0.38300
Zn	Zn	0.42147 0.04096 0.01931 1.22100
C 	C 	0.36833 0.01109 0.03134 0.32000
O 	O 	0.44242 0.03596 0.07343 -0.46400
O 	O 	0.37916 0.98342 0.02038 -0.45200
O 	O 	0.41745 0.99280 0.09610 -0.50100
C 	C 	0.43152 0.99288 0.95513 0.34300
O 	O 	0.41700 0.01847 0.96407 -0.46000
O 	O 	0.43772 0.97253 0.98613 -0.51100
C 	C 	0.43542 0.01564 0.10432 0.33200
O 	O 	0.45989 0.06710 0.98750 -0.32900
Zn	Zn	0.41784 0.97048 0.04079 1.17000
O 	O 	0.38421 0.03543 0.04226 -0.44200
C 	C 	0.44542 0.09300 0.99133 0.28400
O 	O 	0.42146 0.08913 0.00863 -0.39100
C 	C 	0.53102 0.96239 0.30235 0.13100
C 	C 	0.51042 0.97750 0.27820 -0.09300
H 	H 	0.49425 0.99029 0.29485 0.06600
C 	C 	0.51092 0.97633 0.23263 0.02700
C 	C 	0.53189 0.95962 0.21139 -0.07000
C 	C 	0.55271 0.94495 0.23539 0.02800
C 	C 	0.55227 0.94634 0.28089 -0.09400
H 	H 	0.56834 0.93501 0.29960 0.06500
N 	N 	0.53037 0.96334 0.34905 -0.18100
C 	C 	0.51941 0.93784 0.37160 0.19700
C 	C 	0.51958 0.93777 0.41738 -0.08200
C 	C 	0.53136 0.96389 0.43970 0.06100
C 	C 	0.54106 0.99060 0.41614 -0.08200
C 	C 	0.54078 0.98969 0.37038 0.19600
C 	C 	0.50729 0.91261 0.44095 0.00900
C 	C 	0.50763 0.91282 0.48628 -0.05900
C 	C 	0.52225 0.93696 0.50913 0.01500
C 	C 	0.53276 0.96367 0.48570 -0.02900
C 	C 	0.54356 0.99076 0.50794 0.01500
C 	C 	0.54989 0.01820 0.43846 0.01000
C 	C 	0.54999 0.01881 0.48379 -0.05800
C 	C 	0.52535 0.93580 0.55507 0.01500
C 	C 	0.53598 0.96294 0.57736 -0.02900
C 	C 	0.54638 0.98975 0.55398 0.01500
O 	O 	0.55083 0.01410 0.34794 -0.20400
O 	O 	0.50883 0.91320 0.35032 -0.20800
H 	H 	0.55575 0.03973 0.42080 0.04200
H 	H 	0.55363 0.04157 0.49971 0.04500
H 	H 	0.49663 0.89329 0.42428 0.04000
H 	H 	0.49530 0.89516 0.50327 0.04400
C 	C 	0.56056 0.01417 0.57703 -0.05800
C 	C 	0.56051 0.01450 0.62237 0.01000
C 	C 	0.54847 0.98911 0.64581 -0.08100
C 	C 	0.53731 0.96269 0.62337 0.06100
C 	C 	0.51938 0.90755 0.57904 -0.05900
C 	C 	0.51974 0.90793 0.62437 0.01000
C 	C 	0.52818 0.93565 0.64682 -0.08200
C 	C 	0.54830 0.98912 0.69159 0.19700
N 	N 	0.53807 0.96316 0.71402 -0.18100
C 	C 	0.52858 0.93639 0.69257 0.19700
C 	C 	0.53716 0.96404 0.76072 0.13200
C 	C 	0.56055 0.95636 0.78499 -0.09400
C 	C 	0.55961 0.95703 0.83053 0.03000
C 	C 	0.53521 0.96522 0.85171 -0.07000
C 	C 	0.51175 0.97255 0.82757 0.02900
C 	C 	0.51277 0.97214 0.78207 -0.09400
O 	O 	0.55771 0.01435 0.71297 -0.20400
O 	O 	0.51963 0.91135 0.71491 -0.20600
H 	H 	0.57932 0.94985 0.76845 0.06700
H 	H 	0.49465 0.97777 0.76329 0.06700
H 	H 	0.57288 0.03194 0.56026 0.04500
H 	H 	0.57078 0.03405 0.63917 0.04200
H 	H 	0.51587 0.88483 0.56291 0.04400
H 	H 	0.51426 0.88622 0.64191 0.04100
H 	H 	0.53437 0.96540 0.88694 0.05200
H 	H 	0.53222 0.95843 0.17618 0.04700
Zn	Zn	0.65226 0.89855 0.03310 1.22000
C 	C 	0.63478 0.89397 0.12279 0.33800
O 	O 	0.69083 0.91317 0.03361 -0.46500
O 	O 	0.64504 0.86487 0.12366 -0.45600
O 	O 	0.69826 0.89680 0.10306 -0.50100
C 	C 	0.64399 0.83045 0.03109 0.32800
O 	O 	0.63155 0.85827 0.03274 -0.45900
O 	O 	0.66887 0.82769 0.04668 -0.51400
C 	C 	0.70496 0.91500 0.06986 0.31500
O 	O 	0.65368 0.89417 0.95642 -0.33000
Zn	Zn	0.68187 0.85473 0.09403 1.16900
O 	O 	0.64087 0.91378 0.09081 -0.44300
C 	C 	0.63880 0.91992 0.95657 0.29800
O 	O 	0.63293 0.93108 0.99469 -0.38900
Zn	Zn	0.09942 0.59094 0.95929 1.22200
C 	C 	0.08473 0.59360 0.04977 0.30600
O 	O 	0.07809 0.63087 0.96203 -0.44900
O 	O 	0.09490 0.62292 0.05146 -0.45000
O 	O 	0.11578 0.66181 0.97524 -0.51200
C 	C 	0.15351 0.57555 0.98940 0.31900
O 	O 	0.13787 0.57823 0.95487 -0.46600
O 	O 	0.14819 0.59239 0.02435 -0.50000
C 	C 	0.09024 0.65915 0.96237 0.32500
O 	O 	0.09855 0.59407 0.88237 -0.32200
Zn	Zn	0.13101 0.63409 0.01991 1.16900
O 	O 	0.09159 0.57434 0.01780 -0.44000
C 	C 	0.08116 0.57034 0.88501 0.26800
O 	O 	0.07551 0.56061 0.92393 -0.38300
C 	C 	0.97710 0.52952 0.22855 0.14700
C 	C 	0.95393 0.52036 0.20450 -0.12000
H 	H 	0.93581 0.51145 0.22112 0.07400
C 	C 	0.95390 0.52379 0.15921 0.07500
C 	C 	0.97721 0.53586 0.13795 -0.10600
C 	C 	0.00035 0.54503 0.16190 0.07500
C 	C 	0.00039 0.54158 0.20718 -0.12100
H 	H 	0.01818 0.54893 0.22586 0.07200
N 	N 	0.97639 0.52837 0.27517 -0.18400
C 	C 	0.98402 0.50079 0.29623 0.19800
C 	C 	0.98431 0.49962 0.34196 -0.08200
C 	C 	0.97733 0.52720 0.36573 0.06200
C 	C 	0.96819 0.55467 0.34365 -0.08300
C 	C 	0.96810 0.55491 0.29792 0.19800
C 	C 	0.99044 0.47105 0.36405 0.01000
C 	C 	0.99063 0.47023 0.40937 -0.05900
C 	C 	0.98698 0.49875 0.43370 0.01500
C 	C 	0.97879 0.52702 0.41169 -0.03000
C 	C 	0.97090 0.55465 0.43534 0.01500
C 	C 	0.95838 0.58096 0.36741 0.01000
C 	C 	0.95867 0.58044 0.41271 -0.05900
C 	C 	0.98996 0.49922 0.47970 0.01600
C 	C 	0.98209 0.52689 0.50329 -0.03000
C 	C 	0.97410 0.55519 0.48124 0.01500
O 	O 	0.96022 0.58086 0.27684 -0.21100
O 	O 	0.99135 0.47538 0.27355 -0.20500
H 	H 	0.94965 0.60148 0.35090 0.04000
H 	H 	0.94808 0.59929 0.42985 0.04400
H 	H 	0.99415 0.44905 0.34622 0.04200
H 	H 	0.99213 0.44712 0.42515 0.04500
C 	C 	0.97078 0.58381 0.50545 -0.05900
C 	C 	0.97089 0.58307 0.55076 0.01000
C 	C 	0.97657 0.55439 0.57293 -0.08200
C 	C 	0.98332 0.52669 0.54926 0.06200
C 	C 	0.00185 0.47328 0.50251 -0.05900
C 	C 	0.00174 0.47268 0.54784 0.01000
C 	C 	0.99197 0.49906 0.57147 -0.08200
C 	C 	0.97650 0.55319 0.61864 0.19800
N 	N 	0.98338 0.52539 0.63981 -0.18400
C 	C 	0.99158 0.49873 0.61722 0.19800
C 	C 	0.98174 0.52411 0.68637 0.14700
C 	C 	0.00475 0.53191 0.71161 -0.12000
C 	C 	0.00286 0.53183 0.75707 0.07600
C 	C 	0.97781 0.52434 0.77717 -0.10600
C 	C 	0.95487 0.51626 0.75198 0.07500
C 	C 	0.95689 0.51596 0.70659 -0.12000
O 	O 	0.96950 0.57879 0.64119 -0.20800
O 	O 	0.99880 0.47257 0.63842 -0.20500
H 	H 	0.02396 0.53808 0.69589 0.07400
H 	H 	0.93915 0.50990 0.68700 0.07400
H 	H 	0.96954 0.60691 0.48955 0.04400
H 	H 	0.96742 0.60515 0.56852 0.04100
H 	H 	0.01249 0.45439 0.48557 0.04500
H 	H 	0.01017 0.45204 0.56448 0.04200
H 	H 	0.97622 0.52465 0.81232 0.06100
H 	H 	0.97712 0.53873 0.10292 0.06300
Zn	Zn	0.86376 0.45540 0.95785 1.22200
C 	C 	0.81043 0.48497 0.96124 0.32100
O 	O 	0.88045 0.46376 0.90067 -0.45300
O 	O 	0.82239 0.51241 0.97123 -0.45000
O 	O 	0.85341 0.50669 0.88746 -0.49000
C 	C 	0.87849 0.50115 0.02346 0.31200
O 	O 	0.86403 0.47506 0.01541 -0.45400
O 	O 	0.88280 0.52251 0.99272 -0.50300
C 	C 	0.87180 0.48616 0.87405 0.30300
O 	O 	0.90441 0.42904 0.97895 -0.32700
Zn	Zn	0.85862 0.52731 0.94319 1.17100
O 	O 	0.82477 0.46153 0.94405 -0.43700
C 	C 	0.89008 0.40277 0.97488 0.27900
O 	O 	0.86487 0.40661 0.96303 -0.38600
Zn	Zn	0.02290 0.03668 0.05151 1.22100
C 	C 	0.03079 0.96990 0.02927 0.32200
O 	O 	0.99362 0.03494 0.09540 -0.47200
O 	O 	0.04782 0.96902 0.06236 -0.45500
O 	O 	0.99978 0.98343 0.11721 -0.49800
C 	C 	0.07795 0.03308 0.08265 0.32700
O 	O 	0.06271 0.03532 0.04768 -0.45300
O 	O 	0.06669 0.02436 0.11961 -0.51100
C 	C 	0.98335 0.00732 0.10838 0.31900
O 	O 	0.02760 0.09245 0.06351 -0.32800
Zn	Zn	0.03905 0.99035 0.12118 1.16900
O 	O 	0.01544 0.99531 0.02255 -0.43800
C 	C 	0.01472 0.09565 0.02690 0.28000
O 	O 	0.00793 0.06900 0.00776 -0.38600
C 	C 	0.97776 0.24250 0.96620 -0.03700
C 	C 	0.96531 0.21758 0.99004 0.00200
C 	C 	0.94000 0.22278 0.01043 -0.03900
H 	H 	0.93031 0.20374 0.02909 0.04000
C 	C 	0.92743 0.25279 0.00753 -0.04200
C 	C 	0.94005 0.27785 0.98418 0.00500
C 	C 	0.96517 0.27251 0.96325 -0.03900
H 	H 	0.97497 0.29164 0.94488 0.04100
C 	C 	0.92715 0.30979 0.98214 0.02400
C 	C 	0.90130 0.31329 0.96290 -0.06200
C 	C 	0.88905 0.34354 0.96097 0.01200
C 	C 	0.90260 0.37064 0.97814 -0.07700
C 	C 	0.92840 0.36703 0.99769 0.01400
C 	C 	0.94060 0.33675 0.99967 -0.05900
C 	C 	0.97940 0.18659 0.99554 0.03100
C 	C 	0.96741 0.15812 0.97976 -0.06600
C 	C 	0.97955 0.12843 0.98836 0.01800
C 	C 	0.00373 0.12697 0.01303 -0.08200
C 	C 	0.01624 0.15560 0.02730 0.01500
C 	C 	0.00412 0.18524 0.01863 -0.06900
H 	H 	0.96971 0.10657 0.97699 0.04000
H 	H 	0.03510 0.15485 0.04580 0.03700
H 	H 	0.01359 0.20711 0.03075 0.04700
H 	H 	0.94844 0.15896 0.96156 0.04800
H 	H 	0.89077 0.29262 0.94923 0.04700
H 	H 	0.86918 0.34592 0.94570 0.04200
H 	H 	0.96045 0.33422 0.01494 0.04400
H 	H 	0.93898 0.38762 0.01145 0.03700
H 	H 	0.90807 0.25670 0.02386 0.04000
H 	H 	0.99726 0.23868 0.95025 0.04000
C 	C 	0.88745 0.49292 0.83396 -0.07400
C 	C 	0.90265 0.46839 0.81432 -0.00400
C 	C 	0.92319 0.47597 0.78432 -0.02900
C 	C 	0.92869 0.50812 0.77342 -0.04900
C 	C 	0.91127 0.53259 0.78908 0.08200
C 	C 	0.89076 0.52476 0.81945 -0.05300
H 	H 	0.93594 0.45700 0.77149 0.04200
H 	H 	0.87835 0.54368 0.83327 0.02500
H 	H 	0.89957 0.44358 0.82408 0.04400
N 	N 	0.91437 0.56356 0.77556 -0.19800
H 	H 	0.92848 0.56980 0.75139 0.09300
H 	H 	0.90201 0.58166 0.78831 0.07700
C 	C 	0.89208 0.50519 0.06571 -0.06700
C 	C 	0.90651 0.47958 0.08415 -0.00700
C 	C 	0.92490 0.48525 0.11811 -0.02700
C 	C 	0.92897 0.51654 0.13399 -0.04900
C 	C 	0.91207 0.54171 0.11896 0.08500
C 	C 	0.89389 0.53585 0.08447 -0.04600
H 	H 	0.93732 0.46569 0.13015 0.04100
H 	H 	0.88186 0.55538 0.07134 0.03800
H 	H 	0.90482 0.45568 0.07039 0.04400
N 	N 	0.91352 0.57151 0.13700 -0.19700
H 	H 	0.92573 0.57610 0.16418 0.09200
H 	H 	0.90168 0.59026 0.12472 0.08000
C 	C 	0.03156 0.83362 0.91482 -0.03800
C 	C 	0.02410 0.84488 0.95610 -0.00400
C 	C 	0.02026 0.82291 0.99024 -0.03600
H 	H 	0.01428 0.83134 0.02214 0.03200
C 	C 	0.02615 0.79041 0.98418 -0.03700
C 	C 	0.03577 0.77953 0.94381 -0.00300
C 	C 	0.03722 0.80102 0.90862 -0.03900
H 	H 	0.04406 0.79277 0.87707 0.03800
C 	C 	0.04818 0.74731 0.94036 0.02900
C 	C 	0.03345 0.71987 0.95372 -0.07100
C 	C 	0.04683 0.69044 0.95860 0.02100
C 	C 	0.07501 0.68822 0.94996 -0.10300
C 	C 	0.08919 0.71509 0.93347 0.02000
C 	C 	0.07589 0.74450 0.92889 -0.07100
C 	C 	0.02457 0.87965 0.96538 0.03200
C 	C 	0.00075 0.89503 0.97984 -0.07500
C 	C 	0.00240 0.92597 0.99755 0.02900
C 	C 	0.02791 0.94155 0.00127 -0.10800
C 	C 	0.05135 0.92709 0.98394 0.02700
C 	C 	0.04967 0.89633 0.96588 -0.07300
H 	H 	0.98415 0.93702 0.01067 0.02600
H 	H 	0.07108 0.93909 0.98622 0.02900
H 	H 	0.06813 0.88475 0.95449 0.04700
H 	H 	0.98123 0.88247 0.97921 0.04700
H 	H 	0.01193 0.72164 0.96196 0.04500
H 	H 	0.03555 0.66981 0.97088 0.03500
H 	H 	0.08744 0.76544 0.91829 0.04400
H 	H 	0.11078 0.71349 0.92562 0.02700
H 	H 	0.02475 0.77404 0.01151 0.03200
H 	H 	0.03420 0.85033 0.88809 0.03800
C 	C 	0.06505 0.55940 0.84738 -0.04300
C 	C 	0.05494 0.58176 0.81742 -0.01700
C 	C 	0.03593 0.57217 0.78599 -0.02200
C 	C 	0.02703 0.54003 0.78384 -0.05300
C 	C 	0.03911 0.51681 0.81140 0.09300
C 	C 	0.05762 0.52688 0.84367 -0.05600
H 	H 	0.02716 0.59000 0.76454 0.03900
H 	H 	0.06608 0.50943 0.86605 0.05600
H 	H 	0.06077 0.60689 0.81980 0.04500
N 	N 	0.03320 0.48498 0.80679 -0.19800
H 	H 	0.02132 0.47654 0.78094 0.09300
H 	H 	0.04141 0.46813 0.82825 0.08700
C 	C 	0.06528 0.58243 0.08319 -0.06400
C 	C 	0.06517 0.55014 0.09630 -0.00900
C 	C 	0.04487 0.53858 0.12432 -0.02700
C 	C 	0.02429 0.55908 0.13942 -0.05000
C 	C 	0.02516 0.59217 0.12834 0.08600
C 	C 	0.04571 0.60355 0.10010 -0.05000
H 	H 	0.04451 0.51333 0.13304 0.04000
H 	H 	0.04599 0.62863 0.09041 0.04900
H 	H 	0.08055 0.53381 0.08409 0.04300
N 	N 	0.00631 0.61297 0.14439 -0.19800
H 	H 	0.99146 0.60555 0.16677 0.09200
H 	H 	0.00673 0.63718 0.13522 0.08100
C 	C 	0.85345 0.96564 0.12877 -0.03900
C 	C 	0.86656 0.98746 0.10069 -0.00200
C 	C 	0.85141 0.00286 0.06810 -0.03700
H 	H 	0.86134 0.01977 0.04628 0.03900
C 	C 	0.82354 0.99574 0.06284 -0.03900
C 	C 	0.81066 0.97308 0.09001 -0.00200
C 	C 	0.82568 0.95838 0.12335 -0.03900
H 	H 	0.81596 0.94080 0.14444 0.03500
C 	C 	0.78194 0.96331 0.08210 0.02800
C 	C 	0.76258 0.96512 0.11575 -0.07200
C 	C 	0.73673 0.95092 0.11080 0.02100
C 	C 	0.72990 0.93503 0.07201 -0.10500
C 	C 	0.74854 0.93524 0.03725 0.01700
C 	C 	0.77451 0.94918 0.04235 -0.07100
C 	C 	0.89646 0.99255 0.10362 0.02800
C 	C 	0.90723 0.02323 0.11255 -0.06900
C 	C 	0.93560 0.02800 0.11489 0.01900
C 	C 	0.95343 0.00208 0.10842 -0.10200
C 	C 	0.94258 0.97136 0.09978 0.02000
C 	C 	0.91426 0.96665 0.09733 -0.07100
H 	H 	0.94368 0.05180 0.12170 0.03400
H 	H 	0.95608 0.95125 0.09406 0.02900
H 	H 	0.90614 0.94292 0.09012 0.04400
H 	H 	0.89363 0.04334 0.11768 0.04700
H 	H 	0.76792 0.97652 0.14627 0.04600
H 	H 	0.72229 0.95144 0.13755 0.02800
H 	H 	0.78923 0.94782 0.01606 0.04500
H 	H 	0.74344 0.92324 0.00706 0.02800
H 	H 	0.81210 0.00741 0.03723 0.03900
H 	H 	0.86494 0.95382 0.15422 0.03600
C 	C 	0.58385 0.94821 0.85628 0.04200
C 	C 	0.59077 0.91581 0.86132 -0.08000
C 	C 	0.61047 0.90683 0.89180 0.03800
C 	C 	0.62351 0.93019 0.91765 -0.12900
C 	C 	0.61857 0.96320 0.90953 0.14600
C 	C 	0.59822 0.97190 0.87953 -0.11600
H 	H 	0.61449 0.88154 0.89705 0.03200
H 	H 	0.59337 0.99705 0.87466 0.06400
H 	H 	0.57994 0.89743 0.84305 0.05400
N 	N 	0.63363 0.98647 0.92960 -0.20600
H 	H 	0.65078 0.98078 0.94824 0.10000
H 	H 	0.62909 0.01074 0.92486 0.08900
C 	C 	0.57547 0.92915 0.21258 0.04400
C 	C 	0.57080 0.90034 0.19012 -0.08600
C 	C 	0.59095 0.88796 0.16275 0.04500
C 	C 	0.61597 0.90431 0.15736 -0.14900
C 	C 	0.62158 0.93217 0.18246 0.15100
C 	C 	0.60101 0.94463 0.20948 -0.12100
H 	H 	0.58667 0.86633 0.14425 0.02200
H 	H 	0.60473 0.96664 0.22750 0.06500
H 	H 	0.55117 0.88814 0.19271 0.05000
N 	N 	0.64667 0.94663 0.18133 -0.20800
H 	H 	0.66307 0.93635 0.16471 0.09600
H 	H 	0.65031 0.96781 0.19875 0.08700
C 	C 	0.21355 0.04786 0.08876 -0.03800
C 	C 	0.19496 0.03319 0.06005 -0.00300
C 	C 	0.20480 0.01514 0.02490 -0.03700
H 	H 	0.19060 0.00361 0.00268 0.03700
C 	C 	0.23299 0.01158 0.01872 -0.04300
C 	C 	0.25157 0.02602 0.04764 0.00000
C 	C 	0.24174 0.04429 0.08258 -0.04000
H 	H 	0.25593 0.05550 0.10510 0.03900
C 	C 	0.28132 0.02193 0.04147 0.02800
C 	C 	0.29303 0.99133 0.04506 -0.07100
C 	C 	0.32137 0.98764 0.04091 0.01900
C 	C 	0.33827 0.01456 0.03318 -0.09700
C 	C 	0.32642 0.04508 0.02877 0.02100
C 	C 	0.29811 0.04873 0.03292 -0.06900
C 	C 	0.16521 0.03571 0.06769 0.03000
C 	C 	0.15345 0.02200 0.10501 -0.07300
C 	C 	0.12505 0.02229 0.11081 0.02000
C 	C 	0.10807 0.03623 0.07919 -0.10400
C 	C 	0.12000 0.05105 0.04263 0.02400
C 	C 	0.14842 0.05070 0.03688 -0.07100
H 	H 	0.11623 0.01084 0.13924 0.01600
H 	H 	0.10726 0.06241 0.01834 0.03700
H 	H 	0.15737 0.06172 0.00822 0.04800
H 	H 	0.16626 0.01047 0.12905 0.04300
H 	H 	0.28022 0.97050 0.05169 0.04300
H 	H 	0.33020 0.96398 0.04455 0.02200
H 	H 	0.28922 0.07239 0.02969 0.04800
H 	H 	0.33915 0.06599 0.02222 0.03600
H 	H 	0.24040 0.99756 0.99154 0.04100
H 	H 	0.20614 0.06188 0.11594 0.03800
C 	C 	0.48589 0.97938 0.85022 0.04300
C 	C 	0.48056 0.01056 0.86497 -0.08200
C 	C 	0.45984 0.01575 0.89548 0.04500
C 	C 	0.44471 0.98968 0.91222 -0.14900
C 	C 	0.44742 0.95904 0.89271 0.15000
C 	C 	0.46851 0.95395 0.86244 -0.12000
H 	H 	0.45698 0.03967 0.90848 0.03400
H 	H 	0.47192 0.93007 0.84952 0.06400
H 	H 	0.49347 0.03047 0.85470 0.05600
N 	N 	0.42979 0.93466 0.90272 -0.20800
H 	H 	0.41253 0.93864 0.92201 0.08300
H 	H 	0.43254 0.91175 0.88956 0.08100
C 	C 	0.48991 0.99311 0.20683 0.04200
C 	C 	0.49792 0.01535 0.17491 -0.08500
C 	C 	0.47913 0.02574 0.14390 0.04100
C 	C 	0.45196 0.01426 0.14470 -0.15400
C 	C 	0.44280 0.99643 0.18131 0.14500
C 	C 	0.46216 0.98460 0.21101 -0.12300
H 	H 	0.48617 0.04103 0.11760 0.03100
H 	H 	0.45565 0.96873 0.23708 0.06100
H 	H 	0.51911 0.02315 0.17265 0.05400
N 	N 	0.41563 0.99208 0.18915 -0.20800
H 	H 	0.40094 0.00504 0.17196 0.10000
H 	H 	0.40903 0.97746 0.21482 0.08200
C 	C 	0.50026 0.26858 0.95634 -0.03700
C 	C 	0.48821 0.28412 0.92073 0.00100
C 	C 	0.47484 0.26579 0.88875 -0.03800
H 	H 	0.46587 0.27747 0.86075 0.04000
C 	C 	0.47140 0.23263 0.89435 -0.03800
C 	C 	0.48131 0.21758 0.93197 0.00100
C 	C 	0.49681 0.23544 0.96195 -0.03700
H 	H 	0.50480 0.22400 0.99086 0.04100
C 	C 	0.47202 0.18478 0.94318 0.02600
C 	C 	0.44411 0.17871 0.95078 -0.06300
C 	C 	0.43542 0.14863 0.96579 0.01300
C 	C 	0.45455 0.12422 0.97341 -0.07900
C 	C 	0.48243 0.13002 0.96468 0.01200
C 	C 	0.49112 0.16021 0.94971 -0.06300
C 	C 	0.48553 0.31942 0.92095 0.02600
C 	C 	0.45958 0.33317 0.92614 -0.06300
C 	C 	0.45722 0.36585 0.93567 0.01300
C 	C 	0.48077 0.38512 0.93991 -0.07700
C 	C 	0.50660 0.37197 0.93127 0.01300
C 	C 	0.50899 0.33917 0.92197 -0.06400
H 	H 	0.43716 0.37588 0.94169 0.03600
H 	H 	0.52492 0.38670 0.93416 0.03700
H 	H 	0.52910 0.32886 0.91747 0.04700
H 	H 	0.44133 0.31819 0.92509 0.04700
H 	H 	0.42923 0.19757 0.94600 0.04700
H 	H 	0.41382 0.14440 0.97181 0.04100
H 	H 	0.51271 0.16466 0.94388 0.04700
H 	H 	0.49741 0.11139 0.97025 0.03900
H 	H 	0.45984 0.21892 0.87059 0.04000
H 	H 	0.51085 0.28245 0.98103 0.04100
C 	C 	0.27126 0.49616 0.96914 -0.04100
C 	C 	0.25956 0.51932 0.99646 0.00200
C 	C 	0.27578 0.53470 0.02795 -0.04400
H 	H 	0.26698 0.55279 0.04896 0.03500
C 	C 	0.30348 0.52715 0.03196 -0.03700
C 	C 	0.31525 0.50419 0.00447 -0.00600
C 	C 	0.29903 0.48862 0.97313 -0.03300
H 	H 	0.30794 0.47082 0.95180 0.03900
C 	C 	0.34476 0.49732 0.00763 0.02700
C 	C 	0.36239 0.50573 0.97338 -0.06800
C 	C 	0.39072 0.50265 0.97822 0.02400
C 	C 	0.40168 0.49116 0.01744 -0.10500
C 	C 	0.38392 0.48165 0.05111 0.02000
C 	C 	0.35560 0.48473 0.04620 -0.07200
C 	C 	0.23055 0.52821 0.99146 0.03000
C 	C 	0.22167 0.54335 0.95326 -0.07000
C 	C 	0.19559 0.55697 0.95141 0.01700
C 	C 	0.17832 0.55576 0.98789 -0.10100
C 	C 	0.18651 0.53869 0.02496 0.01800
C 	C 	0.21248 0.52489 0.02668 -0.07300
H 	H 	0.18939 0.56985 0.92248 0.03000
H 	H 	0.17311 0.53705 0.05297 0.03100
H 	H 	0.21897 0.51271 0.05601 0.04600
H 	H 	0.23539 0.54580 0.92575 0.04600
H 	H 	0.35420 0.51549 0.94349 0.04700
H 	H 	0.40414 0.51001 0.95193 0.03700
H 	H 	0.34210 0.47789 0.07266 0.04500
H 	H 	0.39204 0.47218 0.08121 0.02800
H 	H 	0.31589 0.53944 0.05604 0.03400
H 	H 	0.25888 0.48412 0.94480 0.04000
C 	C 	0.68961 0.47964 0.05080 -0.03700
C 	C 	0.69742 0.46808 0.00984 -0.00800
C 	C 	0.67761 0.45488 0.98195 -0.03400
H 	H 	0.68348 0.44583 0.95031 0.03900
C 	C 	0.65001 0.45446 0.99421 -0.03600
C 	C 	0.64206 0.46718 0.03450 -0.00400
C 	C 	0.66205 0.47915 0.06311 -0.03900
H 	H 	0.65614 0.48876 0.09442 0.03700
C 	C 	0.61275 0.47041 0.04513 0.02900
C 	C 	0.59594 0.44301 0.04875 -0.07000
C 	C 	0.56779 0.44626 0.05585 0.02000
C 	C 	0.55621 0.47697 0.05938 -0.10400
C 	C 	0.57323 0.50434 0.05697 0.02100
C 	C 	0.60132 0.50105 0.04983 -0.07200
C 	C 	0.72593 0.47207 0.99494 0.03400
C 	C 	0.73630 0.50288 0.98586 -0.07200
C 	C 	0.76366 0.50697 0.97361 0.02200
C 	C 	0.78099 0.48026 0.97048 -0.09700
C 	C 	0.77038 0.44929 0.97850 0.02300
C 	C 	0.74294 0.44524 0.99067 -0.07000
H 	H 	0.77143 0.53094 0.96687 0.02400
H 	H 	0.78350 0.42847 0.97631 0.03600
H 	H 	0.73504 0.42134 0.99746 0.05000
H 	H 	0.72319 0.52368 0.98862 0.04600
H 	H 	0.60463 0.41924 0.04548 0.04700
H 	H 	0.55495 0.42494 0.05795 0.03300
H 	H 	0.61413 0.52235 0.04690 0.04400
H 	H 	0.56458 0.52819 0.05914 0.02900
H 	H 	0.63474 0.44515 0.97190 0.04000
H 	H 	0.70483 0.48964 0.07267 0.03700
C 	C 	0.55594 0.68139 0.94051 -0.04000
C 	C 	0.56029 0.65568 0.96923 0.00200
C 	C 	0.57946 0.65900 0.00293 -0.04300
H 	H 	0.58282 0.63940 0.02546 0.03500
C 	C 	0.59371 0.68796 0.00845 -0.04100
C 	C 	0.58887 0.71392 0.98044 -0.00100
C 	C 	0.57015 0.71044 0.94617 -0.03800
H 	H 	0.56640 0.73031 0.92424 0.03900
C 	C 	0.60266 0.74506 0.98814 0.03300
C 	C 	0.58748 0.77160 0.00222 -0.07600
C 	C 	0.60089 0.79993 0.01485 0.02400
C 	C 	0.62963 0.80191 0.01357 -0.10900
C 	C 	0.64470 0.77579 0.99763 0.02500
C 	C 	0.63127 0.74750 0.98504 -0.07400
C 	C 	0.54337 0.62618 0.96616 0.02700
C 	C 	0.55593 0.59602 0.96284 -0.06900
C 	C 	0.54039 0.56787 0.96792 0.01900
C 	C 	0.51214 0.56964 0.97622 -0.09900
C 	C 	0.49931 0.59974 0.97627 0.01700
C 	C 	0.51486 0.62788 0.97141 -0.07000
H 	H 	0.55056 0.54481 0.96760 0.03600
H 	H 	0.47744 0.60141 0.98175 0.03000
H 	H 	0.50492 0.65102 0.97362 0.04400
H 	H 	0.57787 0.59444 0.95812 0.04600
H 	H 	0.56537 0.76994 0.00465 0.04500
H 	H 	0.58899 0.81991 0.02688 0.03300
H 	H 	0.64312 0.72723 0.97378 0.04600
H 	H 	0.66683 0.77721 0.99559 0.02600
H 	H 	0.60810 0.69047 0.03505 0.03500
H 	H 	0.54128 0.67902 0.91427 0.03800
