data_crystal

_cell_length_a 16.48563
_cell_length_b 16.45769
_cell_length_c 38.64468
_cell_angle_alpha 89.87834
_cell_angle_beta  89.88068
_cell_angle_gamma 119.40446

_symmetry_space_group_name_	'P 1'
_symmetry_space_group_name_H-M	'P 1'

loop_
_symmetry_equiv_pos_as_xyz
  x,y,z

loop_
_atom_site_label
_atom_site_type_symbol
_atom_site_fract_x
_atom_site_fract_y
_atom_site_fract_z
_atom_site_charge
O 	O 	0.02774 0.17489 0.20738 -0.34500
C 	C 	0.02021 0.41412 0.46283 -0.00900
C 	C 	0.03357 0.42730 0.42580 0.10600
N 	N 	0.04361 0.43760 0.39617 -0.09000
Br	Br	0.04772 0.34319 0.71487 -0.15500
Ni	Ni	0.05912 0.92098 0.75212 1.12300
Ni	Ni	0.07952 0.12733 0.75367 1.13100
C 	C 	0.05509 0.18935 0.12635 0.10000
C 	C 	0.01480 0.62661 0.07964 0.11700
Br	Br	0.12680 0.59922 0.19870 -0.11200
Br	Br	0.03131 0.37312 0.25958 -0.13000
N 	N 	0.02533 0.62738 0.10926 -0.08200
Br	Br	0.08417 0.80580 0.67452 -0.16500
C 	C 	0.06280 0.67398 0.98472 -0.00200
C 	C 	0.07879 0.39705 0.51787 -0.00400
C 	C 	0.18520 0.07469 0.80287 0.32300
C 	C 	0.18746 0.07396 0.70504 0.35400
O 	O 	0.17889 0.01302 0.77934 -0.33100
O 	O 	0.15120 0.13182 0.79678 -0.34500
O 	O 	0.11833 0.98843 0.70601 -0.35700
O 	O 	0.19054 0.13710 0.72664 -0.34600
C 	C 	0.17987 0.52657 0.47887 0.27900
O 	O 	0.17089 0.60171 0.48290 -0.34800
C 	C 	0.16894 0.43665 0.09084 0.34000
C 	C 	0.16425 0.66170 0.03012 0.30100
O 	O 	0.16254 0.58149 0.03414 -0.36000
C 	C 	0.07484 0.14971 0.18675 0.34300
C 	C 	0.07481 0.21446 0.28351 0.31500
C 	C 	0.07991 0.89976 0.21296 0.33400
C 	C 	0.06358 0.94439 0.30928 0.31000
Ni	Ni	0.11255 0.07093 0.24942 1.13300
O 	O 	0.13206 0.96347 0.23562 -0.35500
O 	O 	0.10638 0.09553 0.19831 -0.34300
O 	O 	0.11196 0.03253 0.29870 -0.33300
O 	O 	0.12998 0.19911 0.26257 -0.33800
C 	C 	0.15010 0.35449 0.11225 -0.10500
C 	C 	0.07558 0.26535 0.10409 0.10600
C 	C 	0.11368 0.20207 0.15472 -0.09200
C 	C 	0.15428 0.72395 0.18663 0.11200
C 	C 	0.10938 0.76577 0.20440 0.10900
C 	C 	0.12058 0.85222 0.19298 -0.09100
C 	C 	0.15538 0.45812 0.31781 0.10900
C 	C 	0.11773 0.29766 0.30567 -0.08600
C 	C 	0.10713 0.37604 0.29804 0.11100
Br	Br	0.12671 0.55782 0.31245 -0.12100
C 	C 	0.09435 0.91886 0.34127 -0.07800
C 	C 	0.02910 0.85987 0.36629 0.09900
C 	C 	0.05537 0.81248 0.39061 0.10700
C 	C 	0.14157 0.81468 0.38661 -0.09600
C 	C 	0.09658 0.43564 0.48436 -0.04000
C 	C 	0.15438 0.40103 0.53819 0.11800
Br	Br	0.13688 0.04247 0.62564 -0.13600
C 	C 	0.07741 0.66130 0.01976 -0.04600
C 	C 	0.13980 0.73972 0.96360 0.11500
N 	N 	0.20110 0.79300 0.94676 -0.09100
Br	Br	0.13571 0.13831 0.87560 -0.15400
C 	C 	0.19886 0.28369 0.15660 0.11300
Br	Br	0.04657 0.40175 0.88332 -0.14900
O 	O 	0.02174 0.13613 0.70907 -0.36200
C 	C 	0.16309 0.75134 0.40704 0.32500
O 	O 	0.18883 0.51270 0.10682 -0.35200
C 	C 	0.18569 0.93463 0.34304 0.10300
Br	Br	0.02708 0.65811 0.60881 -0.15100
C 	C 	0.18125 0.30471 0.33120 0.10400
O 	O 	0.00604 0.99628 0.76015 -0.73000
H 	H 	0.00500 0.99409 0.78561 0.16100
C 	C 	0.21626 0.77212 0.15919 -0.09800
O 	O 	0.18635 0.76949 0.44074 -0.33200
O 	O 	0.18843 0.70017 0.38938 -0.35100
H 	H 	0.23291 0.62649 0.42579 0.17100
C 	C 	0.24768 0.72260 0.13548 0.34600
O 	O 	0.24351 0.74105 0.03177 -0.36000
O 	O 	0.23494 0.72565 0.10245 -0.37000
O 	O 	0.20212 0.44338 0.05927 -0.35000
C 	C 	0.20771 0.36379 0.14110 0.10700
C 	C 	0.18018 0.89853 0.16497 0.10000
C 	C 	0.22280 0.46557 0.34200 -0.08600
Br	Br	0.17637 0.19452 0.35029 -0.14900
C 	C 	0.20164 0.86858 0.35908 0.11200
N 	N 	0.21490 0.40438 0.55440 -0.09100
C 	C 	0.00057 0.62513 0.04264 -0.00100
C 	C 	0.24201 0.39151 0.34539 0.11300
N 	N 	0.21067 0.97228 0.44884 -0.09100
C 	C 	0.25917 0.53989 0.36830 0.33100
Ni	Ni	0.27551 0.73276 0.46967 1.11900
O 	O 	0.26432 0.51549 0.40050 -0.36300
O 	O 	0.26348 0.53291 0.47473 -0.34900
Ni	Ni	0.27816 0.56945 0.03381 1.12600
C 	C 	0.23331 0.86229 0.15008 0.11400
Br	Br	0.18402 0.00793 0.14522 -0.13200
Br	Br	0.28701 0.03831 0.31952 -0.12900
C 	C 	0.26844 0.09628 0.68255 -0.10000
C 	C 	0.25680 0.08193 0.64643 0.11300
N 	N 	0.25081 0.35644 0.98918 -0.08500
C 	C 	0.25436 0.09945 0.83100 -0.09000
C 	C 	0.25253 0.15184 0.85958 0.10800
Br	Br	0.27624 0.82816 0.33337 -0.22300
O 	O 	0.29572 0.68387 0.14693 -0.31900
Br	Br	0.29624 0.29015 0.18584 -0.14300
Br	Br	0.26894 0.47695 0.16773 -0.24300
O 	O 	0.29646 0.67726 0.42999 -0.71300
O 	O 	0.30312 0.62911 0.35816 -0.33400
C 	C 	0.29106 0.00848 0.45011 0.12200
Ni	Ni	0.32458 0.74186 0.38732 1.13900
Br	Br	0.32236 0.09059 0.57584 -0.16300
Ni	Ni	0.32752 0.59840 0.11581 1.13600
Ni	Ni	0.34072 0.76678 0.06856 1.13100
O 	O 	0.34483 0.67271 0.99742 -0.35300
C 	C 	0.31951 0.37264 0.00285 0.11200
Br	Br	0.32429 0.97875 0.80568 -0.14500
O 	O 	0.33847 0.65119 0.07173 -0.71900
C 	C 	0.33466 0.10241 0.62535 0.10500
C 	C 	0.33496 0.20731 0.87830 0.11400
C 	C 	0.33402 0.09058 0.82561 0.12000
Br	Br	0.33146 0.27436 0.91846 -0.15300
O 	O 	0.34910 0.86995 0.40492 -0.34600
N 	N 	0.35004 0.68546 0.58999 -0.07900
O 	O 	0.00924 0.87602 0.28746 -0.34100
Ni	Ni	0.35498 0.60390 0.43465 1.13100
O 	O 	0.35246 0.70423 0.50747 -0.33300
Br	Br	0.35509 0.41062 0.36712 -0.13900
N 	N 	0.35635 0.22395 0.49500 -0.08200
C 	C 	0.35645 0.12418 0.69732 0.11100
Br	Br	0.03405 0.70554 0.24464 -0.14200
Br	Br	0.33062 0.93709 0.11749 -0.19400
N 	N 	0.30360 0.69607 0.91134 -0.08000
O 	O 	0.36608 0.50078 0.09552 -0.32400
C 	C 	0.36564 0.75467 0.92614 0.12100
Br	Br	0.99826 0.24897 0.06446 -0.13500
Br	Br	0.97121 0.73954 0.42719 -0.13500
C 	C 	0.98910 0.36268 0.53253 0.02900
C 	C 	0.97010 0.32437 0.56726 0.11500
N 	N 	0.95561 0.29376 0.59500 -0.08100
O 	O 	0.98330 0.17028 0.27914 -0.32300
O 	O 	0.98997 0.86978 0.21138 -0.34400
Br	Br	0.99150 0.67479 0.77533 -0.14500
Br	Br	0.90565 0.84411 0.36730 -0.13600
O 	O 	0.98123 0.01394 0.25441 -0.71200
H 	H 	0.97537 0.02225 0.27934 0.17500
C 	C 	0.84092 0.24636 0.91487 0.31800
C 	C 	0.57276 0.30938 0.00039 0.30500
C 	C 	0.60424 0.09046 0.94233 0.31800
C 	C 	0.81972 0.48268 0.98061 0.28300
C 	C 	0.49985 0.25053 0.89140 0.35100
C 	C 	0.73315 0.44978 0.86770 0.32700
Ni	Ni	0.72553 0.27490 0.97449 1.11900
Ni	Ni	0.64479 0.39536 0.93560 1.12900
Ni	Ni	0.67353 0.24985 0.89257 1.13200
O 	O 	0.81351 0.23212 0.94833 -0.32500
O 	O 	0.80767 0.28323 0.89234 -0.35500
O 	O 	0.54368 0.33989 0.89887 -0.34500
O 	O 	0.64877 0.30911 0.01062 -0.33600
O 	O 	0.55404 0.29716 0.96779 -0.37000
O 	O 	0.69464 0.35863 0.85994 -0.33400
O 	O 	0.60863 0.14560 0.96748 -0.35400
O 	O 	0.65026 0.12573 0.91332 -0.35500
O 	O 	0.73181 0.47886 0.89944 -0.36600
O 	O 	0.83136 0.40875 0.98388 -0.34300
O 	O 	0.73535 0.47340 0.97481 -0.34900
O 	O 	0.53760 0.19983 0.89911 -0.37300
O 	O 	0.70732 0.32475 0.93279 -0.71600
H 	H 	0.77111 0.37366 0.92695 0.18000
C 	C 	0.57705 0.48896 0.56578 0.28800
C 	C 	0.76109 0.29636 0.63714 0.34300
C 	C 	0.81186 0.57652 0.59112 0.33800
C 	C 	0.50529 0.20470 0.62194 0.32300
C 	C 	0.83497 0.35883 0.53082 0.31100
C 	C 	0.58343 0.23841 0.50457 0.29200
Ni	Ni	0.65896 0.40299 0.61871 1.12000
Ni	Ni	0.66508 0.24235 0.57190 1.13300
Ni	Ni	0.70584 0.43252 0.53616 1.12700
O 	O 	0.60742 0.49014 0.59820 -0.33400
O 	O 	0.58732 0.43883 0.54118 -0.36300
O 	O 	0.76152 0.27544 0.53422 -0.36200
O 	O 	0.70709 0.32811 0.64958 -0.32600
O 	O 	0.77389 0.29700 0.60407 -0.37000
O 	O 	0.64855 0.32784 0.49978 -0.35200
O 	O 	0.79439 0.50674 0.61159 -0.35600
O 	O 	0.77122 0.56078 0.56056 -0.34600
O 	O 	0.56790 0.19696 0.53515 -0.36200
O 	O 	0.52682 0.29270 0.62640 -0.35300
O 	O 	0.56875 0.18180 0.61145 -0.33300
O 	O 	0.82851 0.43425 0.53634 -0.36000
O 	O 	0.65529 0.35149 0.57492 -0.71800
H 	H 	0.58819 0.32215 0.57020 0.17300
C 	C 	0.91293 0.83618 0.69851 0.33300
C 	C 	0.89110 0.79425 0.79356 0.32700
C 	C 	0.93438 0.11711 0.70785 0.35600
C 	C 	0.93094 0.09347 0.80561 0.31100
Ni	Ni	0.87657 0.94679 0.75167 1.12700
O 	O 	0.87124 0.05493 0.72885 -0.35200
O 	O 	0.95284 0.81629 0.72373 -0.33600
O 	O 	0.88503 0.89840 0.70337 -0.33600
O 	O 	0.98979 0.15111 0.78193 -0.33700
O 	O 	0.86909 0.00518 0.79733 -0.32400
O 	O 	0.98310 0.84524 0.79493 -0.33700
O 	O 	0.84060 0.81859 0.77336 -0.33700
C 	C 	0.42520 0.69648 0.49797 0.30700
C 	C 	0.39541 0.91097 0.43313 0.29500
C 	C 	0.49817 0.73992 0.38644 0.34900
O 	O 	0.45453 0.65255 0.39703 -0.34500
O 	O 	0.44525 0.70577 0.46538 -0.36800
O 	O 	0.39027 0.86187 0.46053 -0.35300
O 	O 	0.46117 0.79303 0.39111 -0.37400
C 	C 	0.39643 0.49840 0.06343 0.28900
C 	C 	0.49790 0.78366 0.11475 0.31100
C 	C 	0.42210 0.75466 0.00235 0.28800
O 	O 	0.38708 0.54626 0.03753 -0.36200
O 	O 	0.43576 0.80334 0.03115 -0.36700
O 	O 	0.46240 0.69644 0.12527 -0.33400
O 	O 	0.44272 0.81922 0.10631 -0.33300
H 	H 	0.40435 0.67238 0.06657 0.17300
C 	C 	0.79046 0.92529 0.29066 0.32600
C 	C 	0.81391 0.91415 0.19533 0.35100
Ni	Ni	0.92168 0.07791 0.23854 1.13400
Ni	Ni	0.91995 0.88175 0.25194 1.13200
O 	O 	0.79889 0.98471 0.26546 -0.33400
O 	O 	0.83809 0.87982 0.29073 -0.35000
O 	O 	0.88140 0.99916 0.19455 -0.36000
O 	O 	0.81053 0.85609 0.21965 -0.33700
Br	Br	0.95135 0.06793 0.11706 -0.12200
C 	C 	0.69010 0.94008 0.16920 0.11100
C 	C 	0.73673 0.88713 0.17088 -0.09600
C 	C 	0.72386 0.82409 0.14414 0.11500
C 	C 	0.65663 0.80594 0.11854 0.10800
C 	C 	0.59766 0.84524 0.12136 -0.09000
C 	C 	0.62508 0.92270 0.14286 0.10400
Br	Br	0.58164 0.00994 0.13396 -0.11400
Br	Br	0.71400 0.03548 0.20289 -0.16600
Br	Br	0.63481 0.71604 0.08282 -0.17200
Br	Br	0.79985 0.76484 0.14203 -0.13600
C 	C 	0.66315 0.85163 0.37421 0.11600
C 	C 	0.57951 0.77383 0.36365 -0.10100
C 	C 	0.56558 0.75039 0.32835 0.10800
C 	C 	0.62683 0.81257 0.30353 0.10700
C 	C 	0.71050 0.89028 0.31398 -0.08800
C 	C 	0.72632 0.91240 0.34932 0.10100
Br	Br	0.83387 0.02701 0.36330 -0.13000
Br	Br	0.69071 0.87393 0.42283 -0.14500
Br	Br	0.59723 0.79051 0.25501 -0.13300
Br	Br	0.46661 0.63069 0.31415 -0.12700
C 	C 	0.53894 0.17888 0.47407 -0.04700
C 	C 	0.58705 0.14256 0.45469 0.01200
C 	C 	0.53673 0.06613 0.43272 0.01000
C 	C 	0.44005 0.01322 0.43621 -0.04000
C 	C 	0.39168 0.05435 0.45181 0.00700
C 	C 	0.44203 0.14004 0.46944 0.01400
C 	C 	0.68360 0.17163 0.46164 0.11400
C 	C 	0.39432 0.18660 0.48367 0.11500
C 	C 	0.58398 0.04264 0.40632 0.12400
N 	N 	0.62158 0.02432 0.38499 -0.07600
N 	N 	0.76034 0.19220 0.46688 -0.08600
C 	C 	0.91898 0.36828 0.51335 -0.05700
C 	C 	0.93417 0.39219 0.47791 0.03400
C 	C 	0.86577 0.40359 0.45807 0.10500
N 	N 	0.81137 0.41288 0.44222 -0.08500
C 	C 	0.45722 0.63971 0.51860 -0.06600
C 	C 	0.44717 0.62751 0.55518 0.02100
C 	C 	0.48916 0.58026 0.57257 0.00800
C 	C 	0.55276 0.56108 0.55418 -0.03500
C 	C 	0.57394 0.59276 0.51989 0.01100
C 	C 	0.50962 0.60552 0.50128 0.02500
C 	C 	0.39323 0.65976 0.57449 0.11800
C 	C 	0.65766 0.60486 0.50295 0.11500
C 	C 	0.47733 0.55646 0.46889 0.06000
C 	C 	0.46835 0.55382 0.60858 0.12200
N 	N 	0.45174 0.51568 0.44325 -0.11000
N 	N 	0.45173 0.53272 0.63739 -0.08200
N 	N 	0.72445 0.61464 0.48930 -0.09300
C 	C 	0.93014 0.26334 0.69317 0.12100
C 	C 	0.90652 0.17099 0.68484 -0.09800
C 	C 	0.83702 0.12253 0.66043 0.11100
C 	C 	0.77745 0.15638 0.65019 0.11000
C 	C 	0.79740 0.24774 0.65946 -0.08900
C 	C 	0.87354 0.30054 0.68156 0.10700
Br	Br	0.90231 0.42462 0.69491 -0.11900
Br	Br	0.66932 0.07710 0.62323 -0.18300
Br	Br	0.82862 0.01323 0.63897 -0.12100
C 	C 	0.42270 0.13477 0.64047 -0.08700
C 	C 	0.42872 0.13012 0.67648 0.10700
Br	Br	0.54057 0.14304 0.69719 -0.12400
Br	Br	0.38452 0.17373 0.74340 -0.13800
C 	C 	0.94342 0.70187 0.62352 0.11800
C 	C 	0.85929 0.67191 0.60586 -0.10000
C 	C 	0.80733 0.71667 0.61293 0.10600
C 	C 	0.81769 0.76081 0.64491 0.10800
C 	C 	0.89930 0.78776 0.66447 -0.08700
C 	C 	0.96524 0.76178 0.65229 0.11600
Br	Br	0.71213 0.76511 0.66421 -0.15400
Br	Br	0.74982 0.74611 0.57584 -0.15400
C 	C 	0.89576 0.57257 0.99323 -0.04800
C 	C 	0.97157 0.62660 0.97107 0.02000
C 	C 	0.90948 0.58538 0.02914 0.02300
C 	C 	0.95621 0.63009 0.93436 0.10800
C 	C 	0.83023 0.55615 0.05198 0.11600
N 	N 	0.76706 0.53338 0.07030 -0.08400
N 	N 	0.94417 0.63313 0.90501 -0.08100
C 	C 	0.48255 0.80464 0.97262 -0.04600
C 	C 	0.44345 0.82766 0.94457 0.00800
C 	C 	0.48447 0.92185 0.93350 0.01500
C 	C 	0.56680 0.99016 0.94978 -0.06200
C 	C 	0.61206 0.96140 0.97388 0.01000
C 	C 	0.57623 0.86588 0.97992 0.01100
C 	C 	0.68246 0.02834 0.99681 0.12400
C 	C 	0.63429 0.83100 0.99398 0.11800
C 	C 	0.43890 0.94909 0.90766 0.10900
N 	N 	0.68151 0.80337 0.00485 -0.07800
N 	N 	0.40229 0.97087 0.88709 -0.08100
N 	N 	0.73836 0.08169 0.01527 -0.09100
C 	C 	0.42294 0.42637 0.05398 -0.04100
C 	C 	0.40529 0.39295 0.02004 0.00800
C 	C 	0.47499 0.38684 0.00210 0.02200
C 	C 	0.53124 0.35883 0.02032 -0.06400
C 	C 	0.53588 0.36903 0.05698 0.01900
C 	C 	0.48872 0.41261 0.07332 0.00800
C 	C 	0.58432 0.33302 0.07763 0.12100
C 	C 	0.50781 0.44225 0.10899 0.12800
C 	C 	0.50816 0.43821 0.97000 0.07800
N 	N 	0.52313 0.46606 0.13753 -0.07000
N 	N 	0.53486 0.48032 0.94452 -0.10700
N 	N 	0.62301 0.30417 0.09419 -0.07500
C 	C 	0.87711 0.11941 0.90061 0.10800
C 	C 	0.90541 0.21528 0.90122 -0.08900
C 	C 	0.96721 0.27072 0.87545 0.12200
C 	C 	0.96029 0.23248 0.84253 0.10200
C 	C 	0.92253 0.13434 0.83933 -0.07800
C 	C 	0.88827 0.07877 0.86977 0.11200
Br	Br	0.87128 0.95421 0.87121 -0.15200
Br	Br	0.84693 0.05136 0.94326 -0.13900
Br	Br	0.97337 0.30917 0.80297 -0.10800
C 	C 	0.41903 0.21107 0.86807 -0.10000
C 	C 	0.41852 0.15650 0.83992 0.11500
Br	Br	0.53342 0.17375 0.82017 -0.17300
C 	C 	0.84764 0.55498 0.82363 0.10500
C 	C 	0.75991 0.51928 0.83955 -0.08700
C 	C 	0.70979 0.56752 0.83566 0.10600
C 	C 	0.75484 0.65997 0.82333 0.10700
C 	C 	0.84495 0.69828 0.80865 -0.08800
C 	C 	0.88727 0.64139 0.80608 0.11000
Br	Br	0.91528 0.48789 0.82720 -0.11900
Br	Br	0.69544 0.73505 0.82917 -0.14200
Br	Br	0.57922 0.50642 0.84702 -0.14100
