data_crystal

_cell_length_a 33.61822
_cell_length_b 33.94737
_cell_length_c 33.24249
_cell_angle_alpha 95.53186
_cell_angle_beta  95.53275
_cell_angle_gamma 125.44079

_symmetry_space_group_name_	'P 1'
_symmetry_space_group_name_H-M	'P 1'

loop_
_symmetry_equiv_pos_as_xyz
  x,y,z

loop_
_atom_site_label
_atom_site_type_symbol
_atom_site_fract_x
_atom_site_fract_y
_atom_site_fract_z
_atom_site_charge
C 	C 	0.96700 0.02423 0.98493 0.11500
N 	N 	0.94046 0.97440 0.97924 -0.13900
C 	C 	0.96288 0.95238 0.97161 0.11600
N 	N 	0.01186 0.98027 0.96940 -0.13800
C 	C 	0.03853 0.03001 0.97489 0.11800
N 	N 	0.01612 0.05200 0.98283 -0.13900
C 	C 	0.95544 0.99862 0.45692 0.11600
N 	N 	0.92982 0.95173 0.46397 -0.14100
C 	C 	0.95290 0.92975 0.46814 0.11500
N 	N 	0.00157 0.95472 0.46520 -0.13800
C 	C 	0.02738 0.00161 0.45844 0.11800
N 	N 	0.00420 0.02341 0.45418 -0.14000
Cu	Cu	0.64584 0.26771 0.00697 0.92700
Cu	Cu	0.67003 0.25173 0.91595 0.87000
Cu	Cu	0.67399 0.33976 0.94741 0.89700
Cu	Cu	0.65805 0.36686 0.03029 0.89300
C 	C 	0.67745 0.31851 0.09063 0.25200
O 	O 	0.57632 0.24601 0.01134 -0.36100
C 	C 	0.64882 0.29636 0.85833 0.25500
O 	O 	0.69024 0.34350 0.00506 -0.63900
O 	O 	0.63392 0.26730 0.94733 -0.64100
O 	O 	0.67035 0.22643 0.00467 -0.37200
O 	O 	0.72024 0.26638 0.95938 -0.44100
O 	O 	0.65556 0.33940 0.08122 -0.37600
O 	O 	0.71638 0.41055 0.95179 -0.38000
C 	C 	0.71737 0.44222 0.97918 0.28900
C 	C 	0.55844 0.26819 0.99593 0.28200
O 	O 	0.58890 0.31232 0.98769 -0.39100
O 	O 	0.68689 0.42745 0.00584 -0.39400
O 	O 	0.66821 0.28055 0.06525 -0.33700
C 	C 	0.70893 0.23905 0.98771 0.28800
O 	O 	0.66917 0.33603 0.88712 -0.36600
O 	O 	0.63675 0.25437 0.86775 -0.41200
H 	H 	0.72633 0.36271 0.01596 0.16300
H 	H 	0.59856 0.24920 0.93432 0.17200
Cu	Cu	0.72894 0.33485 0.44685 0.92800
Cu	Cu	0.72303 0.28807 0.52990 0.87100
Cu	Cu	0.64494 0.29817 0.49534 0.89700
Cu	Cu	0.63748 0.33474 0.41832 0.89400
C 	C 	0.70334 0.33583 0.36194 0.25800
O 	O 	0.75757 0.40724 0.45311 -0.36200
C 	C 	0.67382 0.30710 0.58477 0.25500
O 	O 	0.65136 0.29346 0.43876 -0.64100
O 	O 	0.71872 0.33446 0.50437 -0.64200
O 	O 	0.76544 0.30490 0.44775 -0.37300
O 	O 	0.71207 0.24578 0.48165 -0.44000
O 	O 	0.67746 0.35169 0.37327 -0.36500
O 	O 	0.57335 0.26014 0.48236 -0.38100
C 	C 	0.54776 0.26675 0.45463 0.28900
C 	C 	0.73445 0.42409 0.46864 0.28200
O 	O 	0.68733 0.39312 0.47073 -0.39300
O 	O 	0.57000 0.30217 0.43286 -0.39400
O 	O 	0.72541 0.32464 0.38864 -0.35500
C 	C 	0.74549 0.26155 0.45801 0.28800
O 	O 	0.63763 0.29042 0.55304 -0.36900
O 	O 	0.71570 0.31394 0.57978 -0.40900
H 	H 	0.63141 0.25941 0.42283 0.16500
H 	H 	0.73718 0.36738 0.52214 0.17200
C 	C 	0.68258 0.32139 0.76305 0.11400
C 	C 	0.70687 0.34892 0.73328 -0.09000
C 	C 	0.69006 0.32405 0.69224 0.00600
C 	C 	0.64666 0.27735 0.68037 0.11400
C 	C 	0.61960 0.25149 0.70984 -0.09000
C 	C 	0.64124 0.27334 0.75141 0.00400
O 	O 	0.68897 0.34246 0.80326 -0.19400
C 	C 	0.64787 0.30166 0.81498 0.03700
C 	C 	0.61778 0.26122 0.78336 -0.05900
O 	O 	0.62675 0.26472 0.63867 -0.19500
C 	C 	0.66345 0.30833 0.62653 0.04000
C 	C 	0.69980 0.34478 0.65887 -0.05900
H 	H 	0.73644 0.38804 0.74157 0.06300
H 	H 	0.58301 0.21673 0.70080 0.06200
H 	H 	0.58968 0.22394 0.78702 0.04900
H 	H 	0.73571 0.37700 0.65599 0.04800
C 	C 	0.72962 0.32383 0.19069 0.11200
C 	C 	0.72646 0.30158 0.22491 -0.08600
C 	C 	0.73715 0.32886 0.26409 0.00800
C 	C 	0.74224 0.37254 0.26868 0.11600
C 	C 	0.74155 0.39291 0.23416 -0.09100
C 	C 	0.73918 0.36966 0.19582 0.01100
O 	O 	0.70690 0.29663 0.15089 -0.18500
C 	C 	0.70307 0.33025 0.13313 0.04400
C 	C 	0.72209 0.37364 0.15948 -0.06600
O 	O 	0.73041 0.38349 0.30497 -0.19100
C 	C 	0.71748 0.34211 0.32144 0.04400
C 	C 	0.72143 0.30944 0.29759 -0.05600
H 	H 	0.71335 0.26357 0.22094 0.06500
H 	H 	0.73977 0.42390 0.23672 0.06400
H 	H 	0.71203 0.39827 0.15523 0.04900
H 	H 	0.70231 0.27096 0.29952 0.05000
C 	C 	0.92542 0.87896 0.47593 -0.02200
C 	C 	0.94983 0.86534 0.50118 -0.02000
C 	C 	0.92592 0.81612 0.50479 -0.04900
C 	C 	0.87723 0.78001 0.48341 0.01400
C 	C 	0.85197 0.79385 0.45961 -0.04900
C 	C 	0.87596 0.84312 0.45588 -0.02000
C 	C 	0.85413 0.72747 0.48363 0.00500
C 	C 	0.84100 0.69521 0.44679 -0.04000
C 	C 	0.82270 0.64636 0.44730 -0.03700
C 	C 	0.81759 0.62934 0.48466 -0.00100
C 	C 	0.82994 0.66135 0.52144 -0.03800
C 	C 	0.84806 0.71020 0.52092 -0.04100
C 	C 	0.79929 0.57800 0.48518 0.02600
C 	C 	0.82515 0.56064 0.47029 -0.06500
C 	C 	0.80524 0.51083 0.46674 0.01300
C 	C 	0.75913 0.47779 0.47802 -0.08800
C 	C 	0.73472 0.49587 0.49513 0.01000
C 	C 	0.75460 0.54565 0.49847 -0.06600
H 	H 	0.98769 0.89276 0.51741 0.03800
H 	H 	0.94568 0.80586 0.52334 0.04100
H 	H 	0.81418 0.76629 0.44331 0.04200
H 	H 	0.85663 0.85312 0.43640 0.03900
H 	H 	0.84578 0.70822 0.41788 0.04000
H 	H 	0.81276 0.62179 0.41870 0.04000
H 	H 	0.82599 0.64853 0.55043 0.03800
H 	H 	0.85792 0.73476 0.54950 0.03900
H 	H 	0.86015 0.58555 0.46063 0.04700
H 	H 	0.82503 0.49779 0.45416 0.03900
H 	H 	0.69976 0.47119 0.50490 0.03300
H 	H 	0.73461 0.55882 0.51040 0.04500
C 	C 	0.76365 0.23248 0.44620 -0.09600
C 	C 	0.81471 0.25583 0.44801 0.01400
C 	C 	0.83278 0.22781 0.44343 -0.06800
C 	C 	0.79989 0.17619 0.43662 0.02700
C 	C 	0.74859 0.15286 0.43243 -0.06900
C 	C 	0.73057 0.18086 0.43734 0.01500
C 	C 	0.81937 0.14679 0.43694 -0.00200
C 	C 	0.84951 0.15023 0.40895 -0.03700
C 	C 	0.86994 0.12427 0.41072 -0.04100
C 	C 	0.86020 0.09448 0.44035 0.00400
C 	C 	0.82928 0.09024 0.46776 -0.04100
C 	C 	0.80907 0.11638 0.46616 -0.03700
C 	C 	0.88449 0.06986 0.44412 0.01400
C 	C 	0.93565 0.09774 0.45948 -0.05000
C 	C 	0.95866 0.07449 0.46403 -0.01900
C 	C 	0.93072 0.02300 0.45301 -0.02400
C 	C 	0.87939 0.99511 0.43761 -0.01700
C 	C 	0.85640 0.01847 0.43329 -0.05200
H 	H 	0.84061 0.29564 0.45472 0.02900
H 	H 	0.87245 0.24621 0.44655 0.04500
H 	H 	0.72280 0.11305 0.42644 0.04500
H 	H 	0.69100 0.16242 0.43521 0.02800
H 	H 	0.85740 0.17331 0.38609 0.03900
H 	H 	0.89370 0.12765 0.38937 0.04000
H 	H 	0.82170 0.06744 0.49081 0.03900
H 	H 	0.78607 0.11365 0.48804 0.03600
H 	H 	0.95753 0.13742 0.46822 0.04200
H 	H 	0.99812 0.09649 0.47640 0.03900
H 	H 	0.85741 0.95546 0.42860 0.03900
H 	H 	0.81683 0.99667 0.42142 0.04300
C 	C 	0.08080 0.02917 0.45677 -0.02100
C 	C 	0.10267 0.06629 0.43309 -0.02000
C 	C 	0.15325 0.09240 0.43169 -0.04800
C 	C 	0.18242 0.08153 0.45376 0.01300
C 	C 	0.16061 0.04435 0.47725 -0.04800
C 	C 	0.11015 0.01841 0.47888 -0.02100
C 	C 	0.23588 0.10930 0.45255 0.00500
C 	C 	0.25151 0.10823 0.41505 -0.04100
C 	C 	0.30212 0.13352 0.41412 -0.03700
C 	C 	0.33744 0.15984 0.45068 -0.00100
C 	C 	0.32188 0.16116 0.48812 -0.03700
C 	C 	0.27132 0.13611 0.48905 -0.04100
C 	C 	0.39069 0.18592 0.44983 0.02700
C 	C 	0.41650 0.22973 0.43440 -0.06600
C 	C 	0.46757 0.25579 0.43540 0.01300
C 	C 	0.49333 0.23814 0.45179 -0.08600
C 	C 	0.46706 0.19359 0.46639 0.01400
C 	C 	0.41603 0.16775 0.46553 -0.06600
H 	H 	0.08047 0.07471 0.41558 0.04100
H 	H 	0.16981 0.12115 0.41356 0.04200
H 	H 	0.18281 0.03558 0.49427 0.04200
H 	H 	0.09398 0.99025 0.49758 0.04100
H 	H 	0.22443 0.08748 0.38674 0.04000
H 	H 	0.31388 0.13235 0.38508 0.03800
H 	H 	0.34897 0.18162 0.51645 0.04000
H 	H 	0.25965 0.13742 0.51811 0.04000
H 	H 	0.39712 0.24396 0.42219 0.04600
H 	H 	0.48718 0.29006 0.42407 0.03400
H 	H 	0.48614 0.17905 0.47850 0.03600
H 	H 	0.39624 0.13373 0.47725 0.04700
C 	C 	0.93454 0.89843 0.96679 -0.02200
C 	C 	0.94640 0.87315 0.94056 -0.02000
C 	C 	0.92252 0.82274 0.93857 -0.04900
C 	C 	0.88642 0.79706 0.96261 0.01400
C 	C 	0.87340 0.82188 0.98786 -0.05000
C 	C 	0.89734 0.87235 0.98996 -0.02000
C 	C 	0.86386 0.74473 0.96272 0.00500
C 	C 	0.81304 0.70878 0.94700 -0.04100
C 	C 	0.79139 0.65930 0.94826 -0.03700
C 	C 	0.82038 0.64546 0.96535 -0.00100
C 	C 	0.87131 0.68134 0.98060 -0.03700
C 	C 	0.89299 0.73079 0.97926 -0.04100
C 	C 	0.79696 0.59378 0.96895 0.02600
C 	C 	0.77739 0.55750 0.93352 -0.06600
C 	C 	0.75277 0.50808 0.93687 0.01500
C 	C 	0.74732 0.49454 0.97571 -0.08700
C 	C 	0.76804 0.53108 0.01118 0.01400
C 	C 	0.79276 0.58046 0.00780 -0.06600
H 	H 	0.97442 0.89263 0.92200 0.03800
H 	H 	0.93244 0.80373 0.91869 0.04200
H 	H 	0.84550 0.80227 0.00649 0.04300
H 	H 	0.88788 0.89135 0.01039 0.04000
H 	H 	0.79033 0.71922 0.93404 0.04000
H 	H 	0.75199 0.63183 0.93651 0.03900
H 	H 	0.89397 0.67095 0.99379 0.03800
H 	H 	0.93225 0.75833 0.99148 0.03900
H 	H 	0.78072 0.56753 0.90340 0.04800
H 	H 	0.73683 0.48025 0.90924 0.04100
H 	H 	0.76453 0.52116 0.04133 0.02500
H 	H 	0.80795 0.60828 0.03532 0.04600
C 	C 	0.73788 0.22023 0.99861 -0.09500
C 	C 	0.71592 0.17623 0.01394 0.01600
C 	C 	0.74145 0.15555 0.01967 -0.06800
C 	C 	0.78910 0.17863 0.01014 0.02800
C 	C 	0.81186 0.22362 0.99651 -0.06900
C 	C 	0.78650 0.24441 0.99093 0.01300
C 	C 	0.81379 0.15416 0.01170 -0.00100
C 	C 	0.86120 0.17834 0.03597 -0.03700
C 	C 	0.88659 0.15722 0.03433 -0.04100
C 	C 	0.86467 0.11166 0.00860 0.00600
C 	C 	0.81672 0.08683 0.98525 -0.04200
C 	C 	0.79142 0.10801 0.98673 -0.03800
C 	C 	0.89263 0.09087 0.00477 0.01400
C 	C 	0.87667 0.04715 0.01880 -0.04900
C 	C 	0.90146 0.02587 0.01301 -0.02000
C 	C 	0.94236 0.04803 0.99291 -0.02200
C 	C 	0.95880 0.09232 0.97953 -0.02000
C 	C 	0.93407 0.11363 0.98550 -0.05000
H 	H 	0.67859 0.15728 0.02024 0.03600
H 	H 	0.72378 0.12108 0.03067 0.04700
H 	H 	0.84871 0.24183 0.98923 0.04500
H 	H 	0.80431 0.27885 0.97989 0.02900
H 	H 	0.87866 0.21381 0.05556 0.03900
H 	H 	0.92348 0.17649 0.05267 0.03900
H 	H 	0.79951 0.05162 0.96532 0.03900
H 	H 	0.75495 0.08914 0.96774 0.03600
H 	H 	0.84487 0.02948 0.03392 0.04200
H 	H 	0.88881 0.99215 0.02408 0.04000
H 	H 	0.99009 0.10974 0.96381 0.03900
H 	H 	0.94656 0.14735 0.97448 0.04100
C 	C 	0.50447 0.24456 0.98969 -0.08900
C 	C 	0.48683 0.27307 0.98602 0.01300
C 	C 	0.43607 0.25129 0.98233 -0.06700
C 	C 	0.40238 0.20083 0.98222 0.02700
C 	C 	0.41972 0.17207 0.98510 -0.06700
C 	C 	0.47050 0.19378 0.98877 0.01400
C 	C 	0.34913 0.17836 0.98015 -0.00200
C 	C 	0.32629 0.15866 0.01340 -0.03600
C 	C 	0.27588 0.13759 0.01156 -0.04000
C 	C 	0.24789 0.13609 0.97647 0.00400
C 	C 	0.27082 0.15614 0.94335 -0.04100
C 	C 	0.32124 0.17720 0.94518 -0.03700
C 	C 	0.19414 0.11149 0.97369 0.01300
C 	C 	0.17704 0.12961 0.00156 -0.04800
C 	C 	0.12605 0.10398 0.00102 -0.01900
C 	C 	0.09178 0.05993 0.97267 -0.02300
C 	C 	0.10892 0.04280 0.94389 -0.01900
C 	C 	0.15984 0.06843 0.94444 -0.04900
H 	H 	0.51248 0.31226 0.98678 0.03000
H 	H 	0.42300 0.27377 0.98016 0.04600
H 	H 	0.39388 0.13297 0.98469 0.04600
H 	H 	0.48338 0.17116 0.99103 0.03300
H 	H 	0.34761 0.15970 0.04063 0.03900
H 	H 	0.25843 0.12196 0.03719 0.04000
H 	H 	0.24950 0.15516 0.91614 0.04000
H 	H 	0.33859 0.19238 0.91938 0.03800
H 	H 	0.20327 0.16305 0.02406 0.04200
H 	H 	0.11333 0.11760 0.02339 0.04000
H 	H 	0.08281 0.00924 0.92148 0.03900
H 	H 	0.17269 0.05427 0.92270 0.04200
