data_crystal

_cell_length_a 20.26345
_cell_length_b 20.57792
_cell_length_c 35.54754
_cell_angle_alpha 95.45588
_cell_angle_beta  95.45579
_cell_angle_gamma 126.11759

_symmetry_space_group_name_	'P 1'
_symmetry_space_group_name_H-M	'P 1'

loop_
_symmetry_equiv_pos_as_xyz
  x,y,z

loop_
_atom_site_label
_atom_site_type_symbol
_atom_site_fract_x
_atom_site_fract_y
_atom_site_fract_z
_atom_site_charge
C 	C 	0.04333 0.10219 0.99201 -0.07600
C 	C 	0.08119 0.06293 0.99043 0.04600
C 	C 	0.03336 0.97820 0.98855 -0.07800
H 	H 	0.08017 0.16783 0.99331 0.05500
H 	H 	0.06267 0.94792 0.98747 0.05700
C 	C 	0.00102 0.90674 0.47265 -0.07600
C 	C 	0.04684 0.99139 0.47577 0.04200
C 	C 	0.00614 0.02735 0.47288 -0.07400
H 	H 	0.03302 0.87920 0.47468 0.05500
H 	H 	0.04211 0.09322 0.47523 0.05500
Cu	Cu	0.62959 0.23853 0.00471 0.92800
Cu	Cu	0.65429 0.39983 0.03761 0.89600
C 	C 	0.67074 0.29759 0.08660 0.32900
O 	O 	0.51403 0.20224 0.01052 -0.36400
C 	C 	0.62830 0.31197 0.87129 0.32500
O 	O 	0.60941 0.24806 0.95077 -0.64200
O 	O 	0.64077 0.33875 0.08039 -0.39200
C 	C 	0.48667 0.24314 0.99964 0.30400
O 	O 	0.53945 0.31963 0.99593 -0.39600
O 	O 	0.66713 0.24886 0.05807 -0.37200
O 	O 	0.65771 0.37220 0.90089 -0.39100
H 	H 	0.55021 0.21729 0.93863 0.17400
Cu	Cu	0.62672 0.28103 0.51279 0.89800
Cu	Cu	0.57757 0.29231 0.43097 0.89700
C 	C 	0.67878 0.28565 0.37615 0.32800
C 	C 	0.70411 0.33191 0.59614 0.32400
O 	O 	0.61744 0.24563 0.45924 -0.63600
O 	O 	0.60804 0.27207 0.38160 -0.39400
O 	O 	0.50747 0.21526 0.50993 -0.38100
C 	C 	0.45556 0.21010 0.48219 0.31200
O 	O 	0.67271 0.41196 0.46579 -0.39200
O 	O 	0.48258 0.25949 0.45712 -0.39400
O 	O 	0.63685 0.30032 0.56959 -0.39000
H 	H 	0.58486 0.18552 0.45136 0.16700
C 	C 	0.62019 0.31008 0.68792 0.00600
C 	C 	0.58466 0.33926 0.70906 -0.04000
C 	C 	0.57443 0.32554 0.74667 -0.03800
C 	C 	0.61545 0.32428 0.83403 -0.17100
C 	C 	0.62857 0.32216 0.64777 0.01000
C 	C 	0.70236 0.34739 0.63506 -0.17000
H 	H 	0.56496 0.37244 0.69641 0.04000
H 	H 	0.54611 0.34749 0.76261 0.04000
H 	H 	0.63519 0.38457 0.82991 0.08500
H 	H 	0.57596 0.30864 0.62793 0.04200
C 	C 	0.69213 0.32221 0.19473 0.00600
C 	C 	0.66612 0.29298 0.26951 0.00700
C 	C 	0.61149 0.23099 0.23750 -0.03900
C 	C 	0.62466 0.24529 0.20029 -0.03700
C 	C 	0.64361 0.28270 0.30793 0.01000
C 	C 	0.69789 0.29153 0.33918 -0.16300
C 	C 	0.68908 0.29102 0.12436 -0.16800
H 	H 	0.55735 0.17258 0.24142 0.04100
H 	H 	0.58024 0.19793 0.17579 0.04500
H 	H 	0.58227 0.26416 0.31121 0.03800
H 	H 	0.69560 0.24357 0.12929 0.08800
C 	C 	0.13569 0.04074 0.48000 -0.01400
C 	C 	0.20982 0.08008 0.48264 -0.02800
C 	C 	0.29605 0.12488 0.48433 0.06200
C 	C 	0.36929 0.16326 0.48429 -0.11400
C 	C 	0.40012 0.20766 0.99652 -0.11400
C 	C 	0.32765 0.17838 0.99454 0.06000
C 	C 	0.24257 0.14266 0.99278 -0.02600
C 	C 	0.16936 0.10896 0.99160 -0.01600
C 	C 	0.95749 0.05604 0.99183 0.04200
C 	C 	0.94812 0.93255 0.98851 0.04300
C 	C 	0.91019 0.97134 0.99017 -0.08100
H 	H 	0.84395 0.93568 0.99008 0.05600
C 	C 	0.91910 0.97859 0.46699 0.03800
C 	C 	0.87257 0.89288 0.46374 -0.07700
C 	C 	0.91419 0.85712 0.46649 0.04000
H 	H 	0.80523 0.85475 0.45928 0.05400
Cu	Cu	0.67405 0.23546 0.91859 0.87100
Cu	Cu	0.67327 0.36911 0.95651 0.89800
O 	O 	0.70542 0.36611 0.00861 -0.64000
O 	O 	0.67340 0.17436 0.99606 -0.37300
O 	O 	0.75846 0.25652 0.95749 -0.44300
O 	O 	0.74154 0.48714 0.96518 -0.38600
C 	C 	0.73924 0.53435 0.99203 0.31800
O 	O 	0.71227 0.51069 0.02415 -0.39600
C 	C 	0.74032 0.20493 0.98082 0.31100
O 	O 	0.61586 0.24297 0.87605 -0.42900
H 	H 	0.76609 0.39716 0.01742 0.16800
Cu	Cu	0.74509 0.31554 0.45645 0.92500
Cu	Cu	0.76780 0.28073 0.54306 0.87100
O 	O 	0.78838 0.43149 0.44995 -0.36800
O 	O 	0.74795 0.34149 0.51191 -0.64100
O 	O 	0.80494 0.26496 0.46003 -0.37000
O 	O 	0.73332 0.19127 0.50425 -0.44200
C 	C 	0.74642 0.45992 0.45722 0.30400
O 	O 	0.72244 0.27664 0.40224 -0.37300
C 	C 	0.77741 0.20221 0.47754 0.30700
O 	O 	0.77155 0.34414 0.58693 -0.43100
H 	H 	0.78120 0.40070 0.52275 0.17500
C 	C 	0.59905 0.28187 0.76321 0.00500
C 	C 	0.63332 0.25172 0.74181 -0.04100
C 	C 	0.64393 0.26574 0.70442 -0.03900
C 	C 	0.58382 0.26216 0.80183 0.00900
H 	H 	0.65134 0.21694 0.75411 0.03400
H 	H 	0.66935 0.24100 0.68804 0.03600
H 	H 	0.55803 0.20019 0.80580 0.03400
H 	H 	0.75773 0.37168 0.65625 0.08000
C 	C 	0.74844 0.38323 0.22679 -0.03900
C 	C 	0.73584 0.36851 0.26404 -0.03900
C 	C 	0.69677 0.34297 0.15591 0.01300
H 	H 	0.80051 0.44289 0.22284 0.03800
H 	H 	0.77814 0.41702 0.28855 0.04200
H 	H 	0.75565 0.30236 0.33459 0.08700
H 	H 	0.70512 0.39897 0.15196 0.03100
C 	C 	0.86921 0.76966 0.46314 -0.01600
C 	C 	0.83932 0.69805 0.46101 -0.02700
C 	C 	0.80896 0.61546 0.45919 0.05700
C 	C 	0.78269 0.54501 0.45808 -0.11500
C 	C 	0.87887 0.01792 0.46570 -0.01500
C 	C 	0.85172 0.05691 0.46582 -0.02900
C 	C 	0.82472 0.10688 0.46760 0.05800
C 	C 	0.80333 0.15073 0.47090 -0.11900
C 	C 	0.78114 0.61863 0.98963 -0.11400
C 	C 	0.81745 0.69001 0.98841 0.06300
C 	C 	0.86131 0.77399 0.98781 -0.02700
C 	C 	0.90013 0.84613 0.98788 -0.01600
C 	C 	0.91671 0.09440 0.99194 -0.01600
C 	C 	0.87846 0.12228 0.99128 -0.03000
C 	C 	0.83071 0.15170 0.98932 0.06100
C 	C 	0.78910 0.17578 0.98632 -0.12300
