data_crystal

_cell_length_a 14.93253
_cell_length_b 16.19168
_cell_length_c 52.18895
_cell_angle_alpha 90.25058
_cell_angle_beta  90.25775
_cell_angle_gamma 119.37456

_symmetry_space_group_name_	'P 1'
_symmetry_space_group_name_H-M	'P 1'

loop_
_symmetry_equiv_pos_as_xyz
  x,y,z

loop_
_atom_site_label
_atom_site_type_symbol
_atom_site_fract_x
_atom_site_fract_y
_atom_site_fract_z
_atom_site_charge
C 	C 	0.29386 0.61552 0.07683 0.29200
C 	C 	0.23291 0.48997 0.16000 0.35100
C 	C 	0.31221 0.83952 0.10285 0.30500
Ni	Ni	0.23223 0.64492 0.12780 1.11700
O 	O 	0.22376 0.71582 0.15986 -0.34800
O 	O 	0.26037 0.57402 0.09891 -0.36800
O 	O 	0.37119 0.70373 0.07583 -0.36300
O 	O 	0.17747 0.52828 0.15273 -0.34500
O 	O 	0.32610 0.52549 0.15191 -0.37100
O 	O 	0.24239 0.74829 0.10193 -0.36700
O 	O 	0.37669 0.70952 0.13317 -0.71300
H 	H 	0.38703 0.76777 0.14171 0.16400
Br	Br	0.03553 0.29624 0.14644 -0.16000
C 	C 	0.06993 0.34487 0.02378 -0.05300
C 	C 	0.10927 0.43829 0.03251 0.02800
C 	C 	0.04309 0.47261 0.03899 -0.00200
S 	S 	0.10936 0.57168 0.05562 0.02800
C 	C 	0.22444 0.57736 0.05487 -0.06700
C 	C 	0.21149 0.49653 0.04146 -0.01700
H 	H 	0.12077 0.31927 0.01727 0.05900
H 	H 	0.26797 0.47295 0.04188 0.04500
S 	S 	0.36296 0.02636 0.09702 0.09300
C 	C 	0.28250 0.90958 0.09474 -0.07300
C 	C 	0.20954 0.98205 0.03559 -0.05000
C 	C 	0.23780 0.97962 0.06114 0.01800
C 	C 	0.31774 0.06134 0.07275 0.00400
C 	C 	0.21766 0.89435 0.07358 -0.01000
H 	H 	0.15542 0.91762 0.02566 0.05700
H 	H 	0.17117 0.82506 0.06489 0.05300
C 	C 	0.26021 0.06822 0.02253 0.00300
O 	O 	0.41129 0.86737 0.10530 -0.36000
H 	H 	0.45009 0.19897 0.06602 0.05700
C 	C 	0.52356 0.63010 0.11405 0.30400
C 	C 	0.60909 0.84405 0.15166 0.32500
Ni	Ni	0.46848 0.77719 0.10580 1.12500
Ni	Ni	0.42634 0.66189 0.15937 1.13400
O 	O 	0.54318 0.70533 0.10075 -0.37700
O 	O 	0.58623 0.86809 0.12916 -0.34400
O 	O 	0.52451 0.63352 0.13934 -0.34500
C 	C 	0.71081 0.90280 0.16286 -0.09500
C 	C 	0.37788 0.14303 0.05844 -0.04500
C 	C 	0.34711 0.14657 0.03322 0.02300
C 	C 	0.41495 0.20939 0.01453 -0.02000
H 	H 	0.49255 0.26443 0.01905 0.04300
C 	C 	0.66732 0.60271 0.02158 0.00100
C 	C 	0.57200 0.57137 0.03329 -0.04800
C 	C 	0.55442 0.52690 0.05724 0.02300
C 	C 	0.63339 0.51741 0.06908 -0.00700
C 	C 	0.72249 0.53582 0.05559 -0.04600
C 	C 	0.73323 0.57049 0.03049 0.02200
S 	S 	0.63079 0.53975 0.10020 0.08300
C 	C 	0.52495 0.55150 0.10031 -0.06300
C 	C 	0.48753 0.53426 0.07500 -0.01600
H 	H 	0.51458 0.58506 0.02457 0.05500
H 	H 	0.42925 0.55109 0.06877 0.04800
Br	Br	0.78890 0.78548 0.14201 -0.17400
C 	C 	0.78218 0.54764 0.01041 -0.02400
H 	H 	0.77976 0.52148 0.06405 0.05200
C 	C 	0.80134 0.27879 0.01690 -0.01600
H 	H 	0.74920 0.30727 0.01837 0.04000
H 	H 	0.81656 0.50309 0.01349 0.04400
C 	C 	0.89616 0.32043 0.03049 0.02300
H 	H 	0.88773 0.43851 0.04774 0.04800
C 	C 	0.93750 0.41212 0.04094 -0.04000
C 	C 	0.96266 0.28695 0.02218 0.00900
Br	Br	0.41660 0.94631 0.17001 -0.17300
O 	O 	0.53611 0.79211 0.16789 -0.36400
Br	Br	0.69592 0.07271 0.16807 -0.11700
C 	C 	0.76920 0.85826 0.16834 0.10700
C 	C 	0.11274 0.33032 0.17813 0.11500
C 	C 	0.28112 0.72808 0.18054 0.31500
O 	O 	0.32681 0.67560 0.18447 -0.32600
C 	C 	0.19849 0.42143 0.18137 -0.10700
C 	C 	0.71940 0.97284 0.17978 0.11300
Br	Br	0.99619 0.13082 0.19018 -0.17300
C 	C 	0.80739 0.86279 0.19354 0.10400
C 	C 	0.08655 0.26262 0.19769 0.10900
C 	C 	0.27782 0.78817 0.20132 -0.08900
C 	C 	0.31848 0.88592 0.19696 0.10800
Br	Br	0.88129 0.79645 0.20149 -0.15500
C 	C 	0.25438 0.44468 0.20479 0.12100
Br	Br	0.39542 0.54467 0.20678 -0.21000
Br	Br	0.33169 0.06967 0.20321 -0.13400
C 	C 	0.73573 0.96368 0.20567 0.10300
C 	C 	0.28343 0.93826 0.21126 0.10300
C 	C 	0.78848 0.91462 0.21275 -0.07700
C 	C 	0.13463 0.29064 0.22195 -0.08500
C 	C 	0.21146 0.74556 0.22202 0.11100
C 	C 	0.21346 0.38423 0.22579 0.10900
C 	C 	0.20808 0.89296 0.23018 -0.08100
Br	Br	0.16792 0.61537 0.23048 -0.11800
Br	Br	0.67110 0.00300 0.23115 -0.11500
C 	C 	0.19148 0.52120 0.45719 0.28000
C 	C 	0.33705 0.83542 0.38700 0.34600
C 	C 	0.20977 0.51441 0.38477 0.34700
C 	C 	0.32744 0.82632 0.46042 0.28300
Ni	Ni	0.22038 0.66881 0.41961 1.12000
Ni	Ni	0.37504 0.58136 0.42148 1.13200
O 	O 	0.15984 0.58107 0.45038 -0.36000
O 	O 	0.23898 0.49257 0.44050 -0.33300
O 	O 	0.27504 0.74421 0.38628 -0.35500
O 	O 	0.15413 0.54119 0.39829 -0.33800
O 	O 	0.30891 0.56108 0.38687 -0.36100
O 	O 	0.25572 0.79083 0.44193 -0.33600
O 	O 	0.34987 0.68319 0.42869 -0.71400
H 	H 	0.34530 0.67929 0.44749 0.15500
C 	C 	0.16239 0.94489 0.24321 0.31900
C 	C 	0.10616 0.20963 0.31427 0.34800
C 	C 	0.15503 0.95948 0.31191 0.33200
C 	C 	0.11460 0.21977 0.24191 0.32100
Ni	Ni	0.18238 0.11418 0.27687 1.12500
O 	O 	0.22350 0.02427 0.25643 -0.31700
O 	O 	0.06159 0.90855 0.24244 -0.34500
O 	O 	0.17991 0.22327 0.29819 -0.33100
O 	O 	0.17691 0.04808 0.31097 -0.33700
O 	O 	0.09609 0.89768 0.29425 -0.33500
O 	O 	0.18300 0.19060 0.24497 -0.33400
O 	O 	0.04911 0.20942 0.26054 -0.32900
O 	O 	0.04135 0.03609 0.27068 -0.71500
H 	H 	0.04219 0.03958 0.25186 0.17000
C 	C 	0.17321 0.79633 0.23582 0.11200
C 	C 	0.18073 0.28957 0.35579 0.11300
C 	C 	0.12348 0.28201 0.33369 -0.09500
C 	C 	0.07815 0.34019 0.33086 0.11800
C 	C 	0.09820 0.41175 0.34910 0.11200
C 	C 	0.16160 0.42368 0.37045 -0.10100
C 	C 	0.19777 0.35847 0.37444 0.11600
Br	Br	0.27265 0.36415 0.40518 -0.21600
Br	Br	0.23641 0.20522 0.36049 -0.13000
Br	Br	0.04404 0.49694 0.34398 -0.13200
C 	C 	0.29295 0.92168 0.32470 0.10700
C 	C 	0.20714 0.93181 0.33137 -0.09100
C 	C 	0.18149 0.93006 0.35733 0.10700
C 	C 	0.24238 0.92051 0.37638 0.10700
C 	C 	0.31669 0.89520 0.36955 -0.10400
C 	C 	0.34595 0.90103 0.34378 0.11100
Br	Br	0.45696 0.87804 0.33468 -0.13900
Br	Br	0.34020 0.93899 0.28987 -0.14700
Br	Br	0.22709 0.94588 0.41165 -0.16700
Br	Br	0.05807 0.93207 0.36667 -0.13500
S 	S 	0.31863 0.82279 0.51148 0.02000
C 	C 	0.31089 0.86819 0.48337 -0.04900
C 	C 	0.10878 0.57539 0.53934 -0.04100
C 	C 	0.10349 0.50791 0.52145 0.02200
S 	S 	0.02609 0.39948 0.48457 0.06500
C 	C 	0.15294 0.47196 0.48150 -0.05800
C 	C 	0.18522 0.52590 0.50440 -0.02200
H 	H 	0.18218 0.62972 0.54679 0.05000
H 	H 	0.25944 0.58949 0.50603 0.04100
Br	Br	0.26822 0.42871 0.25972 -0.11200
H 	H 	0.39609 0.54297 0.55524 0.05500
C 	C 	0.54275 0.72013 0.38793 0.34700
C 	C 	0.52029 0.69059 0.46203 0.28200
Ni	Ni	0.46766 0.80451 0.42503 1.12800
O 	O 	0.50441 0.77646 0.39079 -0.37000
O 	O 	0.40415 0.87395 0.40589 -0.35100
O 	O 	0.45350 0.60470 0.45385 -0.37100
O 	O 	0.55715 0.76549 0.44641 -0.34800
O 	O 	0.42257 0.84314 0.45664 -0.37200
O 	O 	0.51249 0.64493 0.40269 -0.34700
C 	C 	0.61071 0.71562 0.34487 0.11200
C 	C 	0.62998 0.74968 0.37031 -0.09900
C 	C 	0.72138 0.83408 0.37600 0.10800
Br	Br	0.49090 0.59566 0.33711 -0.13000
Br	Br	0.76336 0.86872 0.41111 -0.17800
C 	C 	0.60125 0.07823 0.52723 0.00600
C 	C 	0.52678 0.07733 0.51064 -0.04200
C 	C 	0.42965 0.99579 0.50936 0.02100
C 	C 	0.40536 0.92042 0.52618 0.01200
C 	C 	0.47961 0.92170 0.54294 -0.05700
C 	C 	0.57678 0.00320 0.54416 0.03300
S 	S 	0.68971 0.17585 0.54157 0.02700
C 	C 	0.69815 0.13095 0.56970 -0.05200
C 	C 	0.63585 0.03200 0.56716 -0.01100
C 	C 	0.37128 0.96718 0.48626 -0.02000
H 	H 	0.54521 0.13717 0.49831 0.05800
H 	H 	0.46123 0.86189 0.55528 0.05800
H 	H 	0.39229 0.01394 0.46990 0.07400
C 	C 	0.52183 0.60223 0.52829 0.00900
C 	C 	0.44926 0.53068 0.54397 -0.04900
C 	C 	0.44911 0.44392 0.54534 0.02500
C 	C 	0.51480 0.42734 0.52977 0.01000
C 	C 	0.58837 0.49920 0.51438 -0.04900
C 	C 	0.58794 0.58570 0.51277 0.02600
S 	S 	0.50001 0.68079 0.51331 0.02100
C 	C 	0.56948 0.69681 0.48680 -0.05100
C 	C 	0.61866 0.64211 0.49027 -0.01400
S 	S 	0.53319 0.34554 0.54405 0.02300
C 	C 	0.46131 0.32718 0.57023 -0.05200
C 	C 	0.41579 0.38528 0.56741 -0.01400
H 	H 	0.64150 0.48679 0.50313 0.05700
H 	H 	0.65537 0.62672 0.47451 0.06300
Br	Br	0.06953 0.73141 0.26141 -0.14900
C 	C 	0.67719 0.77069 0.32505 0.10800
Br	Br	0.65059 0.72433 0.29021 -0.13300
C 	C 	0.76156 0.86093 0.33065 -0.09200
C 	C 	0.78069 0.89392 0.35612 0.10600
C 	C 	0.83977 0.91240 0.31090 0.34500
O 	O 	0.83091 0.97325 0.29579 -0.35100
C 	C 	0.83964 0.48263 0.55483 -0.02500
H 	H 	0.76539 0.41923 0.55292 0.04100
C 	C 	0.87171 0.53411 0.57811 -0.06100
H 	H 	0.84308 0.37950 0.51243 0.05300
C 	C 	0.84986 0.94437 0.23674 0.31000
O 	O 	0.85503 0.88011 0.25196 -0.33200
Br	Br	0.87927 0.02437 0.36343 -0.13300
O 	O 	0.88065 0.03192 0.24476 -0.34500
O 	O 	0.91308 0.89136 0.30756 -0.36500
Br	Br	0.98993 0.32296 0.30189 -0.16200
C 	C 	0.91643 0.43383 0.51991 -0.04500
C 	C 	0.92155 0.50131 0.53779 0.03500
Ni	Ni	0.95065 0.08360 0.27801 1.13200
S 	S 	0.99867 0.60665 0.57527 0.08600
O 	O 	0.01586 0.13411 0.31243 -0.34800
C 	C 	0.01718 0.57315 0.54660 -0.02000
Ni	Ni	0.98104 0.90340 0.27380 1.12700
C 	C 	0.00788 0.43545 0.51290 -0.00400
H 	H 	0.61472 0.98587 0.58366 0.06300
H 	H 	0.37922 0.40010 0.58331 0.06000
C 	C 	0.68514 0.17489 0.59270 0.28500
C 	C 	0.50544 0.32522 0.59515 0.28200
O 	O 	0.59250 0.16459 0.59625 -0.37200
C 	C 	0.83276 0.48171 0.60197 0.28400
O 	O 	0.46405 0.24598 0.60913 -0.34700
O 	O 	0.57271 0.40779 0.60515 -0.37500
H 	H 	0.67472 0.32476 0.60896 0.15400
O 	O 	0.75540 0.20400 0.61152 -0.33700
O 	O 	0.86072 0.41789 0.60735 -0.35800
O 	O 	0.78617 0.50878 0.61942 -0.34000
Ni	Ni	0.54717 0.19604 0.62899 1.12900
O 	O 	0.66841 0.31581 0.62764 -0.71400
Ni	Ni	0.64842 0.41898 0.63738 1.12600
Ni	Ni	0.79426 0.32144 0.63614 1.12000
Br	Br	0.27121 0.10229 0.64190 -0.19200
Br	Br	0.78805 0.04771 0.64064 -0.16800
O 	O 	0.60366 0.11727 0.64630 -0.35000
Br	Br	0.94409 0.68429 0.65016 -0.15400
C 	C 	0.66832 0.14874 0.66585 0.34600
O 	O 	0.50929 0.35508 0.65558 -0.35100
O 	O 	0.51130 0.21818 0.66394 -0.36900
O 	O 	0.86517 0.44212 0.65995 -0.33800
C 	C 	0.47224 0.27332 0.66774 0.34800
O 	O 	0.71384 0.43089 0.67184 -0.36800
O 	O 	0.73407 0.23876 0.66810 -0.35500
C 	C 	0.81305 0.47036 0.67429 0.34500
C 	C 	0.76134 0.06213 0.67591 0.10500
C 	C 	0.29504 0.14587 0.67693 0.10900
C 	C 	0.37761 0.23637 0.68312 -0.10100
C 	C 	0.68274 0.08250 0.68213 -0.10300
C 	C 	0.88678 0.64103 0.68348 0.10200
Br	Br	0.13965 0.95447 0.68954 -0.14500
Br	Br	0.94973 0.05996 0.68760 -0.12700
Br	Br	0.85200 0.80113 0.68675 -0.13200
C 	C 	0.86578 0.55118 0.69193 -0.10200
C 	C 	0.23034 0.08724 0.69632 0.11400
C 	C 	0.38123 0.27515 0.70755 0.11200
C 	C 	0.64539 0.06775 0.70735 0.11100
C 	C 	0.87430 0.70231 0.70025 0.11100
C 	C 	0.81977 0.05182 0.69549 0.10600
C 	C 	0.23474 0.12482 0.72089 -0.09400
Br	Br	0.52797 0.08233 0.71536 -0.13500
Br	Br	0.49180 0.39968 0.71630 -0.13800
C 	C 	0.78713 0.04331 0.72106 -0.09500
C 	C 	0.86102 0.53393 0.71840 0.11200
C 	C 	0.15486 0.06804 0.73985 0.34800
O 	O 	0.07581 0.08132 0.74222 -0.37000
C 	C 	0.30640 0.22115 0.72597 0.11100
C 	C 	0.69609 0.04575 0.72676 0.10900
O 	O 	0.81729 0.93107 0.74376 -0.34800
C 	C 	0.84023 0.01952 0.74111 0.34600
C 	C 	0.86939 0.68630 0.72677 -0.09400
C 	C 	0.86731 0.60317 0.73593 0.10700
Br	Br	0.84228 0.41408 0.73045 -0.12100
O 	O 	0.97855 0.84184 0.74398 -0.34900
C 	C 	0.88912 0.76489 0.74447 0.34000
O 	O 	0.16615 0.00801 0.75490 -0.34300
Br	Br	0.29971 0.28045 0.75742 -0.15400
Br	Br	0.63975 0.01705 0.76078 -0.13500
O 	O 	0.81658 0.75877 0.75996 -0.32800
O 	O 	0.89828 0.08399 0.75825 -0.33600
Br	Br	0.87774 0.58540 0.77199 -0.12900
Ni	Ni	0.02086 0.08567 0.77656 1.12400
Ni	Ni	0.05271 0.90524 0.77663 1.12100
Ni	Ni	0.82188 0.87607 0.77908 1.12500
Br	Br	0.66657 0.60163 0.80268 -0.13700
O 	O 	0.96367 0.95489 0.78335 -0.71500
O 	O 	0.15526 0.11819 0.79519 -0.34500
Br	Br	0.39259 0.13211 0.79321 -0.11500
O 	O 	0.79270 0.97549 0.79862 -0.32800
Br	Br	0.84961 0.22823 0.79736 -0.11700
O 	O 	0.96013 0.78466 0.79761 -0.32800
H 	H 	0.96823 0.95777 0.80219 0.17400
C 	C 	0.16828 0.06335 0.81216 0.33000
O 	O 	0.13477 0.97227 0.80765 -0.36000
O 	O 	0.82946 0.81166 0.81241 -0.33700
C 	C 	0.85766 0.04523 0.81427 0.32900
C 	C 	0.88806 0.77180 0.81490 0.33000
O 	O 	0.95708 0.09611 0.80934 -0.34000
C 	C 	0.75476 0.61402 0.83135 0.11300
C 	C 	0.34703 0.13031 0.82787 0.11000
C 	C 	0.24491 0.10826 0.83250 -0.09100
Br	Br	0.58533 0.43265 0.84655 -0.13700
C 	C 	0.82603 0.17240 0.83096 0.11100
C 	C 	0.81623 0.08188 0.83409 -0.08400
C 	C 	0.85469 0.69322 0.83336 -0.08400
C 	C 	0.41497 0.14849 0.84848 0.11400
C 	C 	0.21201 0.10767 0.85773 0.10600
Br	Br	0.55185 0.16985 0.84228 -0.12900
Br	Br	0.84692 0.35102 0.84850 -0.12800
C 	C 	0.81840 0.22204 0.85225 0.11400
C 	C 	0.71811 0.54441 0.85051 0.11300
C 	C 	0.91734 0.70196 0.85462 0.11900
Br	Br	0.07265 0.07944 0.86396 -0.16700
C 	C 	0.77900 0.55529 0.87226 -0.09700
C 	C 	0.79075 0.03827 0.85824 0.10900
Br	Br	0.77096 0.91208 0.86228 -0.15000
Br	Br	0.05286 0.81076 0.85775 -0.17000
C 	C 	0.28020 0.12648 0.87836 0.11200
C 	C 	0.38260 0.14924 0.87370 -0.10300
C 	C 	0.79161 0.17808 0.87634 -0.09800
C 	C 	0.78034 0.08699 0.87944 0.11400
C 	C 	0.87947 0.63314 0.87409 0.11200
C 	C 	0.45987 0.19315 0.89404 0.34700
O 	O 	0.51710 0.28530 0.89436 -0.35100
C 	C 	0.73818 0.48447 0.89294 0.34800
O 	O 	0.77314 0.42509 0.89575 -0.35200
C 	C 	0.75322 0.21693 0.89636 0.34900
O 	O 	0.66720 0.48154 0.90831 -0.35000
O 	O 	0.65387 0.17492 0.90023 -0.36300
O 	O 	0.46070 0.14220 0.91356 -0.35000
Br	Br	0.23322 0.12064 0.91302 -0.16600
O 	O 	0.81866 0.28415 0.91200 -0.35400
Br	Br	0.75360 0.03037 0.91295 -0.16800
Br	Br	0.96427 0.64666 0.90353 -0.16800
Ni	Ni	0.56439 0.36019 0.92832 1.12000
Ni	Ni	0.79003 0.37942 0.93050 1.12800
Ni	Ni	0.59058 0.17343 0.93400 1.12800
O 	O 	0.64718 0.30685 0.93672 -0.71700
O 	O 	0.44069 0.25258 0.94836 -0.34400
H 	H 	0.64842 0.31165 0.95553 0.15100
O 	O 	0.79513 0.49512 0.94902 -0.34400
O 	O 	0.50635 0.16134 0.96553 -0.36600
O 	O 	0.62531 0.44213 0.96067 -0.36700
C 	C 	0.72528 0.49229 0.96556 0.28200
O 	O 	0.70659 0.17468 0.95528 -0.35300
O 	O 	0.82037 0.33419 0.96317 -0.37300
C 	C 	0.45054 0.20448 0.96773 0.29000
C 	C 	0.76822 0.24510 0.97104 0.28800
S 	S 	0.27106 0.07683 0.99086 0.07300
C 	C 	0.38030 0.18021 0.98935 -0.06600
S 	S 	0.68069 0.61269 0.99027 0.06000
C 	C 	0.75632 0.56482 0.98568 -0.05500
C 	C 	0.79813 0.22366 0.99570 -0.06600
S 	S 	0.90546 0.21572 0.99737 0.07200
