data_crystal

_cell_length_a 30.78125
_cell_length_b 31.02468
_cell_length_c 26.49440
_cell_angle_alpha 95.56037
_cell_angle_beta  95.55376
_cell_angle_gamma 125.56011

_symmetry_space_group_name_	'P 1'
_symmetry_space_group_name_H-M	'P 1'

loop_
_symmetry_equiv_pos_as_xyz
  x,y,z

loop_
_atom_site_label
_atom_site_type_symbol
_atom_site_fract_x
_atom_site_fract_y
_atom_site_fract_z
_atom_site_charge
C 	C 	0.97546 0.02491 0.98625 0.11100
C 	C 	0.05337 0.02745 0.98556 0.11900
N 	N 	0.02979 0.05327 0.98702 -0.13700
N 	N 	0.00768 0.03190 0.43650 -0.13600
Cu	Cu	0.64964 0.25441 0.99808 0.93000
Cu	Cu	0.69660 0.26231 0.89106 0.87200
O 	O 	0.57020 0.22168 0.99720 -0.35300
O 	O 	0.64198 0.25969 0.92455 -0.64100
O 	O 	0.68367 0.21622 0.99456 -0.36500
C 	C 	0.54791 0.24369 0.97828 0.28400
O 	O 	0.66854 0.26300 0.07120 -0.34100
C 	C 	0.73017 0.23802 0.97882 0.29400
O 	O 	0.66542 0.26665 0.82736 -0.40300
H 	H 	0.60465 0.23562 0.90379 0.18600
O 	O 	0.71057 0.24038 0.48048 -0.43300
O 	O 	0.57050 0.27433 0.48966 -0.36900
C 	C 	0.54003 0.27493 0.45136 0.29300
C 	C 	0.74712 0.25445 0.45120 0.29100
H 	H 	0.62296 0.25512 0.41165 0.17900
Br	Br	0.55213 0.21938 0.74642 -0.20700
Br	Br	0.56271 0.22397 0.62218 -0.22200
C 	C 	0.63751 0.25325 0.18347 0.10600
C 	C 	0.64426 0.25932 0.23759 0.09900
Br	Br	0.58968 0.20318 0.26935 -0.22500
Br	Br	0.57252 0.18958 0.14061 -0.19200
C 	C 	0.76606 0.22082 0.44033 -0.09000
C 	C 	0.73628 0.16789 0.45004 0.01700
C 	C 	0.75710 0.13818 0.44537 -0.06900
C 	C 	0.80758 0.16083 0.43065 0.04300
C 	C 	0.83632 0.21264 0.41875 -0.06800
C 	C 	0.81567 0.24255 0.42348 0.02000
C 	C 	0.83151 0.13238 0.43113 -0.02200
C 	C 	0.85150 0.10854 0.43155 -0.01300
C 	C 	0.87633 0.08098 0.43314 0.02600
C 	C 	0.84875 0.02842 0.40506 -0.04800
C 	C 	0.92569 0.02818 0.43558 -0.01800
C 	C 	0.95281 0.08058 0.46423 -0.01800
C 	C 	0.92822 0.10680 0.46294 -0.05000
H 	H 	0.69749 0.15007 0.46207 0.03600
H 	H 	0.73446 0.09796 0.45423 0.05200
H 	H 	0.87523 0.23026 0.40698 0.05400
H 	H 	0.80851 0.00813 0.38205 0.04700
H 	H 	0.99295 0.10099 0.48748 0.04200
H 	H 	0.94962 0.14730 0.48501 0.04600
C 	C 	0.48096 0.24401 0.44999 -0.07900
C 	C 	0.46005 0.23155 0.49562 0.01900
C 	C 	0.40414 0.20288 0.49419 -0.06300
C 	C 	0.36872 0.18644 0.44727 0.04300
C 	C 	0.38933 0.19860 0.40169 -0.06500
C 	C 	0.44522 0.22723 0.40298 0.01800
C 	C 	0.31115 0.15667 0.44585 -0.01900
C 	C 	0.26296 0.13174 0.44483 -0.01100
C 	C 	0.20541 0.10156 0.44374 0.02800
C 	C 	0.17529 0.11574 0.41698 -0.04900
C 	C 	0.11914 0.08560 0.41490 -0.01600
C 	C 	0.09273 0.04097 0.43958 -0.01900
C 	C 	0.12322 0.02724 0.46680 -0.02000
C 	C 	0.17932 0.05744 0.46881 -0.04800
H 	H 	0.48708 0.24454 0.53223 0.05800
H 	H 	0.38841 0.19354 0.52957 0.05900
H 	H 	0.36211 0.18581 0.36525 0.05400
H 	H 	0.46066 0.23606 0.36743 0.03700
H 	H 	0.19526 0.14984 0.39750 0.04800
H 	H 	0.09612 0.09646 0.39352 0.04400
H 	H 	0.20243 0.04639 0.48972 0.04900
C 	C 	0.94969 0.05279 0.98784 -0.02200
C 	C 	0.89648 0.02680 0.96066 -0.02300
C 	C 	0.87131 0.05240 0.96349 -0.04700
C 	C 	0.89904 0.10414 0.99337 0.01800
C 	C 	0.95227 0.13043 0.02021 -0.04100
C 	C 	0.97758 0.10489 0.01747 -0.01900
C 	C 	0.87280 0.13019 0.99626 -0.01300
C 	C 	0.84991 0.15111 0.99803 -0.02300
C 	C 	0.82167 0.17520 0.99900 0.03700
C 	C 	0.84712 0.22781 0.98991 -0.06900
C 	C 	0.81787 0.24920 0.98536 0.01900
C 	C 	0.76273 0.21791 0.98960 -0.09800
C 	C 	0.73801 0.16594 0.00083 0.02700
C 	C 	0.76740 0.14470 0.00540 -0.06200
H 	H 	0.83022 0.03198 0.94245 0.04400
H 	H 	0.97397 0.17050 0.04334 0.04700
H 	H 	0.01847 0.12526 0.03893 0.04900
H 	H 	0.88922 0.25175 0.98531 0.05100
H 	H 	0.69565 0.14138 0.00445 0.04300
H 	H 	0.74755 0.10405 0.01267 0.05500
C 	C 	0.48843 0.21474 0.97139 -0.08100
C 	C 	0.45729 0.17119 0.99647 0.01300
C 	C 	0.40244 0.14838 0.99561 -0.07000
C 	C 	0.37818 0.16870 0.96963 0.04400
C 	C 	0.40836 0.21050 0.94269 -0.06600
C 	C 	0.46325 0.23336 0.94337 0.01600
C 	C 	0.32307 0.14818 0.97266 -0.02200
C 	C 	0.27686 0.13008 0.97600 -0.01100
C 	C 	0.22169 0.10734 0.98109 0.02200
C 	C 	0.19223 0.12123 0.95256 -0.05000
C 	C 	0.13763 0.09669 0.95549 -0.01500
C 	C 	0.11221 0.05792 0.98684 -0.02700
C 	C 	0.14239 0.04539 0.01654 -0.00900
C 	C 	0.19689 0.07001 0.01363 -0.04400
H 	H 	0.47591 0.15611 0.01801 0.06000
H 	H 	0.37913 0.11569 0.01613 0.06200
H 	H 	0.38963 0.22597 0.92201 0.05400
H 	H 	0.48639 0.26617 0.92297 0.04100
H 	H 	0.21129 0.15034 0.92753 0.04800
H 	H 	0.11475 0.10664 0.93233 0.04200
H 	H 	0.12340 0.01604 0.04135 0.04400
H 	H 	0.21961 0.05946 0.03614 0.04900
C 	C 	0.03329 0.00811 0.43624 0.11800
O 	O 	0.74555 0.27482 0.94998 -0.43400
C 	C 	0.87330 0.00205 0.40626 -0.02200
C 	C 	0.95310 0.00184 0.43471 0.11200
C 	C 	0.61786 0.27803 0.72810 0.10500
H 	H 	0.83897 0.28305 0.41540 0.04500
Cu	Cu	0.72469 0.29005 0.53911 0.87200
H 	H 	0.10352 0.99333 0.48653 0.04900
O 	O 	0.72098 0.32201 0.60254 -0.40200
O 	O 	0.64767 0.29409 0.42696 -0.64000
H 	H 	0.83782 0.28970 0.97771 0.03500
O 	O 	0.76938 0.30026 0.43466 -0.36100
H 	H 	0.85202 0.96179 0.38373 0.04700
N 	N 	0.94482 0.97065 0.98374 -0.13800
C 	C 	0.96828 0.94476 0.98199 0.11800
N 	N 	0.02254 0.97326 0.98306 -0.13500
N 	N 	0.92411 0.94768 0.43274 -0.13600
C 	C 	0.94965 0.92375 0.43216 0.11700
N 	N 	0.00414 0.95403 0.43382 -0.13400
Cu	Cu	0.67476 0.33793 0.93130 0.89900
Cu	Cu	0.64811 0.35302 0.03324 0.90100
C 	C 	0.66534 0.29436 0.10557 0.33200
C 	C 	0.66534 0.30807 0.81996 0.32600
O 	O 	0.69199 0.33819 0.00282 -0.63700
O 	O 	0.63925 0.31463 0.09209 -0.37000
O 	O 	0.71229 0.41505 0.94045 -0.37000
C 	C 	0.71063 0.44527 0.97784 0.28900
O 	O 	0.57908 0.29417 0.97252 -0.39100
O 	O 	0.67886 0.42412 0.01214 -0.37900
O 	O 	0.65967 0.33524 0.85705 -0.36100
H 	H 	0.73125 0.36250 0.01823 0.18100
Cu	Cu	0.73199 0.33537 0.43127 0.93200
Cu	Cu	0.64826 0.31138 0.49856 0.90000
Cu	Cu	0.63291 0.33769 0.39641 0.90000
C 	C 	0.69108 0.31937 0.32378 0.33200
O 	O 	0.76575 0.41447 0.43166 -0.34900
C 	C 	0.67915 0.32191 0.61000 0.32600
O 	O 	0.72710 0.34373 0.50491 -0.64000
O 	O 	0.67105 0.34564 0.33728 -0.37200
C 	C 	0.74368 0.43701 0.44990 0.28400
O 	O 	0.69308 0.40641 0.45652 -0.38800
O 	O 	0.56173 0.30796 0.41835 -0.38400
O 	O 	0.72269 0.31609 0.35808 -0.34400
O 	O 	0.65144 0.32710 0.57284 -0.36100
H 	H 	0.75146 0.38093 0.52530 0.18600
C 	C 	0.62151 0.28107 0.67587 0.09700
C 	C 	0.66896 0.32508 0.66289 -0.11100
C 	C 	0.70956 0.36899 0.70190 0.10500
C 	C 	0.70654 0.36530 0.75413 0.09700
C 	C 	0.66217 0.31823 0.76709 -0.11100
Br	Br	0.76413 0.42358 0.80784 -0.22300
Br	Br	0.76867 0.43421 0.68361 -0.20700
C 	C 	0.72627 0.33949 0.19167 0.09900
C 	C 	0.67749 0.29457 0.16062 -0.10800
C 	C 	0.69048 0.30696 0.26869 -0.10900
C 	C 	0.73265 0.34596 0.24579 0.10700
Br	Br	0.79792 0.40935 0.28863 -0.19500
Br	Br	0.78358 0.39272 0.15987 -0.22400
C 	C 	0.77221 0.49576 0.45443 -0.08100
C 	C 	0.81146 0.52462 0.42409 0.01700
C 	C 	0.83287 0.57840 0.42286 -0.06300
C 	C 	0.81543 0.60385 0.45199 0.04200
C 	C 	0.77802 0.57598 0.48394 -0.06500
C 	C 	0.75657 0.52218 0.48530 0.01600
C 	C 	0.83445 0.65788 0.44755 -0.01900
C 	C 	0.85095 0.70312 0.44317 -0.01200
C 	C 	0.87164 0.75720 0.43710 0.02900
C 	C 	0.85912 0.78661 0.46775 -0.05000
C 	C 	0.88247 0.84046 0.46433 -0.01600
C 	C 	0.91872 0.86522 0.43042 -0.02100
C 	C 	0.92951 0.83497 0.39843 -0.01500
C 	C 	0.90606 0.78120 0.40180 -0.05000
H 	H 	0.82403 0.50493 0.40012 0.05600
H 	H 	0.86215 0.59989 0.39840 0.05700
H 	H 	0.76483 0.59563 0.50703 0.05400
H 	H 	0.72704 0.50077 0.50954 0.04100
H 	H 	0.83222 0.76817 0.49489 0.04800
H 	H 	0.87387 0.86338 0.48925 0.04300
H 	H 	0.95693 0.85345 0.37170 0.04300
H 	H 	0.91549 0.75854 0.37764 0.04900
C 	C 	0.93500 0.88585 0.97873 -0.02700
C 	C 	0.89207 0.86029 0.00600 -0.00900
C 	C 	0.86238 0.80479 0.00490 -0.04500
C 	C 	0.87531 0.77451 0.97650 0.02300
C 	C 	0.91745 0.79969 0.94856 -0.05000
C 	C 	0.94719 0.85512 0.94960 -0.01500
C 	C 	0.84629 0.71786 0.97701 -0.01300
C 	C 	0.82229 0.67038 0.97712 -0.01900
C 	C 	0.79407 0.61375 0.97724 0.03600
C 	C 	0.77756 0.57769 0.93103 -0.06200
C 	C 	0.75057 0.52270 0.93115 0.01900
C 	C 	0.73992 0.50339 0.97765 -0.08500
C 	C 	0.75679 0.53978 0.02394 0.02300
C 	C 	0.78372 0.59473 0.02367 -0.05900
H 	H 	0.88239 0.88353 0.02880 0.04400
H 	H 	0.82976 0.78550 0.02654 0.04900
H 	H 	0.92746 0.77641 0.92633 0.04900
H 	H 	0.97973 0.87419 0.92785 0.04300
H 	H 	0.78554 0.59221 0.89500 0.05800
H 	H 	0.73744 0.49512 0.89508 0.05800
H 	H 	0.74934 0.52557 0.06014 0.03700
H 	H 	0.79664 0.62249 0.05958 0.05300
H 	H 	0.87470 0.98688 0.93722 0.04600
