data_crystal

_cell_length_a 17.88750
_cell_length_b 19.65529
_cell_length_c 26.02938
_cell_angle_alpha 95.42469
_cell_angle_beta  95.42440
_cell_angle_gamma 126.41045

_symmetry_space_group_name_	'P 1'
_symmetry_space_group_name_H-M	'P 1'

loop_
_symmetry_equiv_pos_as_xyz
  x,y,z

loop_
_atom_site_label
_atom_site_type_symbol
_atom_site_fract_x
_atom_site_fract_y
_atom_site_fract_z
_atom_site_charge
C 	C 	0.01376 0.07571 0.97306 0.12300
N 	N 	0.10904 0.12258 0.97865 -0.13300
C 	C 	0.14987 0.08252 0.97602 0.12900
N 	N 	0.09532 0.99528 0.96964 -0.13100
C 	C 	0.99977 0.94803 0.96442 0.13200
N 	N 	0.95901 0.98844 0.96482 -0.12800
C 	C 	0.85624 0.95970 0.48703 0.13500
N 	N 	0.95028 0.00010 0.48960 -0.13200
C 	C 	0.98260 0.95310 0.48265 0.13600
N 	N 	0.92163 0.86615 0.47479 -0.13100
C 	C 	0.82818 0.82575 0.47333 0.13300
N 	N 	0.79521 0.87236 0.47893 -0.13100
Cu	Cu	0.73498 0.30328 0.01417 0.93300
Cu	Cu	0.84712 0.34613 0.91609 0.87500
Cu	Cu	0.75302 0.41843 0.93964 0.89100
Cu	Cu	0.74833 0.47164 0.05394 0.91300
C 	C 	0.73373 0.35444 0.12061 0.30000
O 	O 	0.59605 0.24779 0.00685 -0.35200
C 	C 	0.74121 0.35744 0.82941 0.30200
O 	O 	0.80458 0.43603 0.01341 -0.63200
O 	O 	0.72973 0.30664 0.93892 -0.64900
O 	O 	0.79219 0.24217 0.01584 -0.33500
O 	O 	0.91015 0.34069 0.97670 -0.41800
O 	O 	0.76994 0.43444 0.11777 -0.35700
O 	O 	0.76394 0.52408 0.93999 -0.35700
C 	C 	0.80833 0.59096 0.97895 0.27800
C 	C 	0.55866 0.28874 0.00485 0.29600
O 	O 	0.61117 0.37168 0.00281 -0.36200
O 	O 	0.81097 0.58152 0.02834 -0.36100
O 	O 	0.75285 0.31212 0.08926 -0.34800
C 	C 	0.86847 0.26989 0.99619 0.28900
O 	O 	0.72284 0.39861 0.86294 -0.35400
O 	O 	0.79398 0.33382 0.84491 -0.39200
H 	H 	0.87458 0.47403 0.02154 0.16400
H 	H 	0.67079 0.25764 0.91513 0.19700
Cu	Cu	0.57407 0.19134 0.50197 0.92900
Cu	Cu	0.60519 0.14237 0.38451 0.89200
Cu	Cu	0.60307 0.30615 0.42243 0.90800
Cu	Cu	0.52974 0.32447 0.52049 0.90400
C 	C 	0.60030 0.27586 0.60672 0.30100
O 	O 	0.43372 0.11485 0.50335 -0.34500
C 	C 	0.61542 0.25165 0.31603 0.29100
O 	O 	0.62036 0.31582 0.49679 -0.64100
O 	O 	0.54773 0.18223 0.42407 -0.63100
O 	O 	0.66922 0.16805 0.50814 -0.35100
O 	O 	0.60184 0.07241 0.43080 -0.40200
O 	O 	0.53994 0.29026 0.58900 -0.36800
O 	O 	0.65453 0.42567 0.42770 -0.36100
C 	C 	0.62745 0.46180 0.45823 0.29000
C 	C 	0.37881 0.13315 0.48313 0.28400
O 	O 	0.41612 0.20680 0.46768 -0.37300
O 	O 	0.55304 0.41495 0.48036 -0.37600
O 	O 	0.61000 0.22346 0.57741 -0.33100
C 	C 	0.66022 0.10683 0.47605 0.29100
O 	O 	0.61132 0.30542 0.34780 -0.36100
O 	O 	0.57232 0.17189 0.32275 -0.37800
H 	H 	0.68612 0.36285 0.51480 0.18000
H 	H 	0.47925 0.14445 0.40920 0.17900
C 	C 	0.76661 0.35795 0.73715 -0.02100
C 	C 	0.70551 0.34050 0.77267 -0.06800
C 	C 	0.60970 0.30245 0.75341 0.10300
C 	C 	0.57681 0.28365 0.69915 -0.02300
C 	C 	0.63748 0.29956 0.66368 -0.06600
C 	C 	0.73321 0.33788 0.68287 0.09900
N 	N 	0.79723 0.35819 0.64741 -0.02000
H 	H 	0.84041 0.38772 0.75172 0.06900
H 	H 	0.50321 0.25444 0.68457 0.07900
N 	N 	0.54477 0.28003 0.78860 -0.01900
O 	O 	0.81364 0.41266 0.61696 -0.10800
O 	O 	0.84412 0.32693 0.64824 -0.08700
O 	O 	0.49054 0.30365 0.78474 -0.08500
O 	O 	0.53088 0.22663 0.81939 -0.10300
C 	C 	0.61659 0.31933 0.23964 -0.02000
C 	C 	0.64027 0.27226 0.26414 -0.06800
C 	C 	0.69112 0.24858 0.24000 0.09700
C 	C 	0.71907 0.27355 0.19241 -0.01900
C 	C 	0.69778 0.32288 0.16872 -0.06600
C 	C 	0.64528 0.34510 0.19244 0.09900
N 	N 	0.62193 0.39483 0.16905 -0.02200
H 	H 	0.57588 0.33627 0.25733 0.08100
H 	H 	0.75969 0.25651 0.17472 0.08200
N 	N 	0.71887 0.20314 0.26499 -0.02800
O 	O 	0.56441 0.36270 0.12405 -0.11600
O 	O 	0.65133 0.46896 0.19496 -0.09200
O 	O 	0.65997 0.11975 0.25895 -0.10600
O 	O 	0.80687 0.24330 0.28658 -0.09900
C 	C 	0.76432 0.73204 0.47020 -0.00300
C 	C 	0.76044 0.69779 0.51591 -0.02000
C 	C 	0.71629 0.60928 0.51187 0.01600
C 	C 	0.67298 0.55436 0.46218 -0.07000
C 	C 	0.67137 0.58782 0.41676 0.02000
C 	C 	0.71749 0.67680 0.42080 -0.02100
C 	C 	0.80359 0.75416 0.56703 0.10700
C 	C 	0.62172 0.53070 0.36605 0.09800
C 	C 	0.71819 0.71187 0.37409 0.10600
C 	C 	0.71816 0.57506 0.55861 0.07600
N 	N 	0.71885 0.73996 0.33687 -0.09600
N 	N 	0.71963 0.54768 0.59583 -0.10900
N 	N 	0.58217 0.48513 0.32561 -0.09400
N 	N 	0.83810 0.79920 0.60777 -0.09400
C 	C 	0.81975 0.01044 0.49098 -0.00600
C 	C 	0.76207 0.99894 0.52805 -0.01600
C 	C 	0.71346 0.03499 0.52546 0.01800
C 	C 	0.72566 0.08534 0.48727 -0.07200
C 	C 	0.79356 0.10683 0.45551 0.01800
C 	C 	0.83762 0.06666 0.45563 -0.01900
C 	C 	0.75375 0.95101 0.56908 0.10700
C 	C 	0.81931 0.17158 0.42354 0.06400
C 	C 	0.89793 0.08031 0.41794 0.10700
C 	C 	0.65012 0.01941 0.56154 0.09700
N 	N 	0.94603 0.09126 0.38785 -0.09700
N 	N 	0.59958 0.00704 0.59032 -0.09400
N 	N 	0.83998 0.22347 0.39818 -0.11300
N 	N 	0.74712 0.91277 0.60180 -0.09600
C 	C 	0.27601 0.07466 0.48193 -0.07300
C 	C 	0.21249 0.04611 0.43427 0.01800
C 	C 	0.11649 0.00767 0.43463 -0.02700
C 	C 	0.08356 0.99614 0.48254 -0.00000
C 	C 	0.14561 0.01933 0.52975 -0.02400
C 	C 	0.24161 0.05769 0.52941 0.01500
C 	C 	0.24589 0.05537 0.38485 0.08400
C 	C 	0.11054 0.00377 0.57868 0.10000
C 	C 	0.30505 0.08022 0.57790 0.09300
C 	C 	0.05142 0.97974 0.38573 0.10700
N 	N 	0.35550 0.09793 0.61660 -0.09600
N 	N 	0.99942 0.95737 0.34675 -0.09300
N 	N 	0.08246 0.99131 0.61767 -0.09300
N 	N 	0.27257 0.06278 0.34544 -0.10500
C 	C 	0.84348 0.67700 0.96741 -0.06000
C 	C 	0.90652 0.71408 0.93204 0.01100
C 	C 	0.95202 0.80122 0.92815 -0.01700
C 	C 	0.94101 0.85341 0.96281 -0.00100
C 	C 	0.87597 0.81536 0.99717 -0.02700
C 	C 	0.82229 0.72617 0.99629 0.00900
C 	C 	0.92627 0.66347 0.90056 0.08700
C 	C 	0.86798 0.86836 0.03544 0.11900
C 	C 	0.74361 0.68457 0.02394 0.10600
C 	C 	0.00836 0.83654 0.88787 0.10200
N 	N 	0.68081 0.65137 0.04599 -0.10000
N 	N 	0.05332 0.86475 0.85574 -0.09800
N 	N 	0.86158 0.91059 0.06599 -0.09800
N 	N 	0.94201 0.62307 0.87543 -0.11400
C 	C 	0.90118 0.21639 0.99065 -0.08700
C 	C 	0.89011 0.17402 0.94036 0.02000
C 	C 	0.92612 0.12704 0.93464 -0.02300
C 	C 	0.97036 0.11990 0.97929 -0.00600
C 	C 	0.97679 0.15826 0.02983 -0.01000
C 	C 	0.94280 0.20700 0.03548 0.03000
C 	C 	0.83921 0.17661 0.89473 0.05200
C 	C 	0.01809 0.14724 0.07594 0.10400
C 	C 	0.95125 0.24799 0.08733 0.09700
C 	C 	0.91889 0.08706 0.88274 0.10600
N 	N 	0.95790 0.28067 0.12868 -0.09300
N 	N 	0.91319 0.05516 0.84136 -0.09700
N 	N 	0.05107 0.13838 0.11268 -0.09500
N 	N 	0.79848 0.17840 0.85826 -0.11800
C 	C 	0.45401 0.23794 0.99823 -0.07800
C 	C 	0.40270 0.24496 0.95705 0.02000
C 	C 	0.30289 0.19108 0.94832 -0.02000
C 	C 	0.25418 0.13426 0.98282 -0.00900
C 	C 	0.30542 0.12947 0.02505 -0.01300
C 	C 	0.40458 0.17849 0.03153 0.02800
C 	C 	0.45226 0.30729 0.92360 0.09500
C 	C 	0.25632 0.07574 0.06275 0.10700
C 	C 	0.45537 0.16677 0.07207 0.09900
C 	C 	0.25021 0.19267 0.90311 0.10800
N 	N 	0.49528 0.15673 0.10433 -0.09700
N 	N 	0.20812 0.19388 0.86707 -0.09800
N 	N 	0.21711 0.03289 0.09279 -0.09900
N 	N 	0.49192 0.35737 0.89712 -0.08900
