data_crystal

_cell_length_a 26.24626
_cell_length_b 26.20173
_cell_length_c 34.65107
_cell_angle_alpha 95.53642
_cell_angle_beta  95.53325
_cell_angle_gamma 125.82036

_symmetry_space_group_name_	'P 1'
_symmetry_space_group_name_H-M	'P 1'

loop_
_symmetry_equiv_pos_as_xyz
  x,y,z

loop_
_atom_site_label
_atom_site_type_symbol
_atom_site_fract_x
_atom_site_fract_y
_atom_site_fract_z
_atom_site_charge
C 	C 	0.99191 0.05637 0.99832 0.05400
C 	C 	0.95529 0.98933 0.99158 -0.09800
C 	C 	0.98547 0.95955 0.99011 0.05900
C 	C 	0.05225 0.99679 0.99543 -0.10800
C 	C 	0.08904 0.06381 0.00251 0.05700
C 	C 	0.05887 0.09364 0.00458 -0.09700
H 	H 	0.90352 0.96048 0.98706 0.05300
H 	H 	0.07556 0.97368 0.99402 0.05400
H 	H 	0.08726 0.14551 0.01021 0.05400
C 	C 	0.92344 0.98193 0.45550 0.03500
C 	C 	0.89338 0.92100 0.46535 -0.08200
C 	C 	0.92420 0.89172 0.46542 0.03600
C 	C 	0.98531 0.92371 0.45584 -0.06700
C 	C 	0.01630 0.98548 0.44741 0.02300
C 	C 	0.98435 0.01344 0.44568 -0.06700
H 	H 	0.84638 0.89663 0.47308 0.05000
H 	H 	0.00942 0.90138 0.45609 0.04300
H 	H 	0.00777 0.06059 0.43816 0.04300
Cu	Cu	0.66259 0.26656 0.00824 0.92900
Cu	Cu	0.66820 0.23795 0.91527 0.87000
Cu	Cu	0.67767 0.35241 0.94969 0.89800
Cu	Cu	0.69239 0.40157 0.03571 0.89400
C 	C 	0.70289 0.32438 0.08965 0.31000
O 	O 	0.57961 0.24093 0.02397 -0.36900
C 	C 	0.62726 0.29274 0.86556 0.30800
O 	O 	0.71835 0.36352 0.00193 -0.63700
O 	O 	0.63025 0.25965 0.95267 -0.64300
O 	O 	0.69005 0.21057 0.00016 -0.36500
O 	O 	0.73992 0.25650 0.95012 -0.43800
O 	O 	0.71639 0.38033 0.08492 -0.38100
O 	O 	0.73050 0.44300 0.94844 -0.37200
C 	C 	0.74290 0.48812 0.97695 0.29300
C 	C 	0.55721 0.27371 0.01854 0.29400
O 	O 	0.59270 0.32931 0.00767 -0.39200
O 	O 	0.71540 0.47394 0.00819 -0.39100
O 	O 	0.70486 0.28818 0.06155 -0.34900
C 	C 	0.73187 0.22270 0.97763 0.29400
O 	O 	0.64047 0.33815 0.89429 -0.36600
O 	O 	0.61674 0.23926 0.87299 -0.41600
H 	H 	0.76524 0.38666 0.00532 0.17000
H 	H 	0.58322 0.23504 0.94524 0.17400
Cu	Cu	0.71613 0.31472 0.45602 0.92900
Cu	Cu	0.68199 0.24122 0.53077 0.87400
Cu	Cu	0.60380 0.27765 0.49645 0.89600
Cu	Cu	0.60844 0.32547 0.42095 0.89600
C 	C 	0.69173 0.31456 0.37329 0.31100
O 	O 	0.75985 0.41027 0.46298 -0.35600
C 	C 	0.61911 0.27085 0.58108 0.30900
O 	O 	0.61669 0.26736 0.44338 -0.64100
O 	O 	0.69577 0.31315 0.50942 -0.64200
O 	O 	0.75605 0.26974 0.46054 -0.37700
O 	O 	0.67266 0.19019 0.48397 -0.43700
O 	O 	0.66582 0.34381 0.38202 -0.37100
O 	O 	0.51328 0.23697 0.48127 -0.38100
C 	C 	0.48566 0.24027 0.44864 0.29700
C 	C 	0.73199 0.43566 0.47533 0.29000
O 	O 	0.66965 0.39900 0.47307 -0.39500
O 	O 	0.51890 0.28610 0.42841 -0.39300
O 	O 	0.71961 0.30298 0.40120 -0.36400
C 	C 	0.72192 0.21064 0.46667 0.29800
O 	O 	0.59148 0.28043 0.55156 -0.37800
O 	O 	0.66934 0.27165 0.57842 -0.40500
H 	H 	0.58887 0.22264 0.42853 0.16200
H 	H 	0.72257 0.35458 0.52827 0.17500
C 	C 	0.61494 0.29789 0.82442 -0.10400
C 	C 	0.66581 0.34199 0.80675 0.14300
C 	C 	0.65569 0.33899 0.76597 -0.08500
C 	C 	0.59486 0.29286 0.74262 0.02200
C 	C 	0.54290 0.25227 0.76079 0.08000
C 	C 	0.55327 0.25445 0.80150 -0.01200
H 	H 	0.69568 0.37084 0.75219 0.08100
C 	C 	0.58827 0.28108 0.69926 0.02300
H 	H 	0.51365 0.22149 0.81517 0.05700
C 	C 	0.58304 0.22788 0.68056 -0.08600
C 	C 	0.58810 0.22161 0.64089 0.14700
C 	C 	0.60035 0.26986 0.61980 -0.10300
C 	C 	0.60115 0.32079 0.63766 -0.01100
C 	C 	0.59476 0.32637 0.67721 0.08000
H 	H 	0.57663 0.19215 0.69720 0.08000
H 	H 	0.60896 0.35724 0.62126 0.05800
Br	Br	0.45769 0.19345 0.73040 -0.23000
Br	Br	0.75034 0.40426 0.83748 -0.26700
Br	Br	0.57695 0.14620 0.61578 -0.28000
Br	Br	0.59526 0.39611 0.70067 -0.22800
C 	C 	0.70095 0.31019 0.12968 -0.09900
C 	C 	0.75128 0.31302 0.15113 0.14900
C 	C 	0.75158 0.30629 0.19074 -0.08800
C 	C 	0.70260 0.29769 0.20933 0.02200
C 	C 	0.65146 0.29308 0.18753 0.08400
C 	C 	0.65071 0.29896 0.14786 -0.01600
H 	H 	0.79106 0.30999 0.20746 0.07900
C 	C 	0.70903 0.30138 0.25245 0.02000
H 	H 	0.61181 0.29648 0.13139 0.05100
C 	C 	0.74495 0.36159 0.27741 -0.08900
C 	C 	0.74310 0.36635 0.31770 0.15100
C 	C 	0.70440 0.31040 0.33320 -0.10200
C 	C 	0.67274 0.25013 0.30889 -0.01700
C 	C 	0.67507 0.24539 0.26859 0.08500
H 	H 	0.77278 0.40477 0.26526 0.07800
H 	H 	0.64449 0.20696 0.32099 0.04900
Br	Br	0.58363 0.28159 0.21196 -0.23400
Br	Br	0.82196 0.32996 0.12774 -0.23800
Br	Br	0.79429 0.44963 0.35115 -0.24900
Br	Br	0.63023 0.16224 0.23585 -0.23000
C 	C 	0.77740 0.60068 0.51209 -0.09400
C 	C 	0.82100 0.63629 0.48796 0.00700
C 	C 	0.84368 0.60876 0.46495 0.03100
C 	C 	0.81619 0.54351 0.46250 -0.01800
C 	C 	0.76861 0.50626 0.48419 -0.10400
C 	C 	0.75281 0.53639 0.51153 0.09700
C 	C 	0.84061 0.70142 0.48557 -0.01200
C 	C 	0.89535 0.64809 0.44183 -0.17700
H 	H 	0.83042 0.52127 0.44275 0.06300
C 	C 	0.70974 0.50055 0.53989 -0.20300
H 	H 	0.76203 0.62276 0.53095 0.05300
C 	C 	0.81109 0.71151 0.45404 0.04700
C 	C 	0.83815 0.77423 0.44826 -0.06400
C 	C 	0.89194 0.82684 0.47482 -0.02600
C 	C 	0.91656 0.81677 0.50900 0.05200
C 	C 	0.89179 0.75397 0.51349 -0.07100
C 	C 	0.75219 0.65560 0.42578 -0.18400
H 	H 	0.81815 0.78210 0.42268 0.04500
C 	C 	0.97078 0.87254 0.53986 -0.17800
H 	H 	0.91322 0.74601 0.53827 0.04800
H 	H 	0.65892 0.47314 0.52516 0.07900
H 	H 	0.71861 0.53419 0.56636 0.07300
H 	H 	0.71865 0.46723 0.55042 0.07300
H 	H 	0.93606 0.69397 0.46098 0.06900
H 	H 	0.87590 0.65845 0.41641 0.07100
H 	H 	0.91433 0.62251 0.43030 0.07500
H 	H 	0.72932 0.67150 0.40685 0.06500
H 	H 	0.71626 0.62158 0.44237 0.06900
H 	H 	0.76517 0.63026 0.40638 0.07100
H 	H 	0.97211 0.85768 0.56868 0.06500
H 	H 	0.96511 0.91136 0.54470 0.06500
H 	H 	0.01701 0.89147 0.53032 0.05900
C 	C 	0.88696 0.09986 0.48220 -0.06900
C 	C 	0.83096 0.07336 0.45456 -0.01500
C 	C 	0.80476 0.01621 0.42743 0.04700
C 	C 	0.83605 0.98737 0.42781 -0.06500
C 	C 	0.89136 0.01319 0.45599 -0.02400
C 	C 	0.91583 0.06874 0.48429 0.05000
C 	C 	0.79819 0.10401 0.45570 0.01200
C 	C 	0.74379 0.98608 0.39800 -0.18400
H 	H 	0.81719 0.94456 0.40631 0.04500
C 	C 	0.97302 0.09552 0.51639 -0.17700
H 	H 	0.90693 0.14375 0.50293 0.04600
C 	C 	0.76302 0.09779 0.48560 0.02000
C 	C 	0.73869 0.13316 0.48882 -0.01200
C 	C 	0.74539 0.17148 0.46110 -0.12000
C 	C 	0.77516 0.17258 0.42886 0.10900
C 	C 	0.80397 0.14125 0.42753 -0.10000
C 	C 	0.75311 0.05518 0.51493 -0.17100
H 	H 	0.71509 0.13140 0.51322 0.02400
C 	C 	0.77595 0.20628 0.39572 -0.21200
H 	H 	0.83024 0.14516 0.40427 0.05500
H 	H 	0.97640 0.12851 0.54098 0.06200
H 	H 	0.01753 0.12261 0.50414 0.05800
H 	H 	0.96941 0.05644 0.52912 0.06400
H 	H 	0.75223 0.01749 0.37625 0.06900
H 	H 	0.70553 0.97907 0.41340 0.06800
H 	H 	0.72631 0.93844 0.38159 0.06400
H 	H 	0.71550 0.04654 0.53163 0.06200
H 	H 	0.79840 0.07811 0.53634 0.06300
H 	H 	0.73762 0.00776 0.49949 0.06400
H 	H 	0.78615 0.18938 0.36896 0.07700
H 	H 	0.81363 0.25871 0.40505 0.09500
H 	H 	0.72868 0.19646 0.38715 0.08900
C 	C 	0.19731 0.09490 0.47419 -0.07100
C 	C 	0.21368 0.09401 0.43694 -0.01300
C 	C 	0.16510 0.05773 0.40290 0.04500
C 	C 	0.10062 0.02228 0.40679 -0.06500
C 	C 	0.08432 0.02325 0.44406 -0.02400
C 	C 	0.13296 0.06016 0.47803 0.05100
C 	C 	0.28204 0.13049 0.43405 0.01000
C 	C 	0.18180 0.05601 0.36259 -0.18200
H 	H 	0.06308 0.99385 0.38082 0.04400
C 	C 	0.11637 0.06227 0.51837 -0.18400
H 	H 	0.23484 0.12281 0.50020 0.05000
C 	C 	0.31954 0.19716 0.43479 0.02300
C 	C 	0.38611 0.23231 0.43820 -0.01100
C 	C 	0.41529 0.20148 0.43991 -0.10600
C 	C 	0.37704 0.13402 0.43575 0.10000
C 	C 	0.31080 0.09924 0.43379 -0.09400
C 	C 	0.28924 0.23141 0.43394 -0.17100
H 	H 	0.41542 0.28396 0.44076 0.04100
C 	C 	0.40672 0.09914 0.43463 -0.20300
H 	H 	0.28167 0.04789 0.43268 0.05300
H 	H 	0.08690 0.07992 0.51890 0.06300
H 	H 	0.15985 0.09476 0.54173 0.06600
H 	H 	0.08920 0.01360 0.52569 0.06400
H 	H 	0.20540 0.03213 0.36078 0.06700
H 	H 	0.21466 0.10550 0.35705 0.06600
H 	H 	0.13861 0.02927 0.33879 0.06300
H 	H 	0.32299 0.28103 0.42879 0.06200
H 	H 	0.27437 0.23389 0.46258 0.06600
H 	H 	0.24670 0.20564 0.40975 0.06300
H 	H 	0.42959 0.10472 0.46496 0.07600
H 	H 	0.44317 0.11838 0.41545 0.06300
H 	H 	0.37021 0.04715 0.42250 0.06900
C 	C 	0.87528 0.65790 0.96866 -0.09400
C 	C 	0.84245 0.68505 0.96808 0.01100
C 	C 	0.77540 0.64552 0.96516 0.02300
C 	C 	0.74299 0.58032 0.96653 -0.01000
C 	C 	0.77645 0.55399 0.96982 -0.10400
C 	C 	0.84273 0.59246 0.96956 0.10100
C 	C 	0.87924 0.75551 0.97390 -0.01600
C 	C 	0.73873 0.67321 0.96223 -0.17100
H 	H 	0.69185 0.55027 0.96592 0.04000
C 	C 	0.87919 0.56449 0.97158 -0.20600
H 	H 	0.92658 0.68826 0.96992 0.05400
C 	C 	0.90225 0.79293 0.01229 0.04900
C 	C 	0.93594 0.85956 0.01702 -0.05400
C 	C 	0.94722 0.88917 0.98406 -0.04100
C 	C 	0.92427 0.85183 0.94566 0.05800
C 	C 	0.89064 0.78513 0.94090 -0.07300
C 	C 	0.89145 0.76204 0.04819 -0.18300
H 	H 	0.95396 0.88858 0.04642 0.04400
C 	C 	0.93585 0.88295 0.90985 -0.18800
H 	H 	0.87291 0.75615 0.91151 0.05000
H 	H 	0.87591 0.54560 0.99931 0.06500
H 	H 	0.93064 0.60089 0.97105 0.07100
H 	H 	0.85897 0.52501 0.94589 0.08600
H 	H 	0.74969 0.69975 0.93744 0.06700
H 	H 	0.75213 0.70640 0.99019 0.06100
H 	H 	0.68621 0.63517 0.95669 0.06300
H 	H 	0.91201 0.79787 0.07602 0.06400
H 	H 	0.91448 0.73753 0.04897 0.06900
H 	H 	0.83939 0.72649 0.04732 0.06800
H 	H 	0.91393 0.84705 0.88195 0.06600
H 	H 	0.98807 0.91702 0.91056 0.06800
H 	H 	0.91470 0.90930 0.90947 0.06500
C 	C 	0.90902 0.12643 0.96128 -0.07000
C 	C 	0.89074 0.13840 0.99570 -0.02000
C 	C 	0.90838 0.12624 0.03153 0.05200
C 	C 	0.94267 0.10057 0.03208 -0.05700
C 	C 	0.95986 0.08745 0.99750 -0.03700
C 	C 	0.94369 0.10119 0.96190 0.05300
C 	C 	0.85051 0.16088 0.99348 0.01300
C 	C 	0.88899 0.13864 0.06884 -0.18700
H 	H 	0.95524 0.08991 0.05932 0.04500
C 	C 	0.96230 0.08792 0.92446 -0.17700
H 	H 	0.89557 0.13613 0.93391 0.04500
C 	C 	0.87839 0.22668 0.99636 0.01600
C 	C 	0.83883 0.24618 0.99165 -0.00600
C 	C 	0.77202 0.20096 0.98437 -0.11100
C 	C 	0.74416 0.13511 0.98177 0.09900
C 	C 	0.78380 0.11575 0.98678 -0.09600
C 	C 	0.95011 0.27593 0.00339 -0.15900
H 	H 	0.86001 0.29661 0.99349 0.03900
C 	C 	0.67243 0.08536 0.97344 -0.20200
H 	H 	0.76272 0.06533 0.98486 0.05200
H 	H 	0.01506 0.11505 0.92884 0.05700
H 	H 	0.94719 0.10247 0.89935 0.06200
H 	H 	0.93928 0.03586 0.91631 0.06300
H 	H 	0.83622 0.10479 0.06587 0.07400
H 	H 	0.90422 0.18857 0.07448 0.07500
H 	H 	0.91137 0.13226 0.09497 0.06800
H 	H 	0.96445 0.32558 0.00821 0.06500
H 	H 	0.96868 0.26927 0.97740 0.06000
H 	H 	0.97280 0.27088 0.03001 0.06600
H 	H 	0.65048 0.09181 0.94714 0.05600
H 	H 	0.65260 0.08967 0.99940 0.08200
H 	H 	0.65856 0.03594 0.96731 0.06600
C 	C 	0.40686 0.25217 0.03832 -0.09500
C 	C 	0.35948 0.18990 0.01722 0.01500
C 	C 	0.37712 0.15386 0.99808 0.01800
C 	C 	0.44210 0.18189 0.99894 -0.01600
C 	C 	0.48955 0.24444 0.01974 -0.10600
C 	C 	0.47187 0.27892 0.04098 0.10100
C 	C 	0.29131 0.16268 0.01523 -0.00900
C 	C 	0.32686 0.08616 0.97603 -0.17000
H 	H 	0.45577 0.15527 0.98301 0.03400
C 	C 	0.52187 0.34412 0.06636 -0.20400
H 	H 	0.39305 0.27945 0.05320 0.05400
C 	C 	0.25972 0.13480 0.04629 0.04500
C 	C 	0.19406 0.10570 0.04251 -0.06100
C 	C 	0.15936 0.10260 0.00780 -0.03000
C 	C 	0.19120 0.13142 0.97698 0.05100
C 	C 	0.25733 0.16251 0.98137 -0.07700
C 	C 	0.29561 0.13509 0.08315 -0.18400
H 	H 	0.16943 0.08375 0.06613 0.04400
C 	C 	0.15490 0.12889 0.93941 -0.18400
H 	H 	0.28209 0.18492 0.95791 0.04800
H 	H 	0.55950 0.34422 0.08414 0.06700
H 	H 	0.50065 0.35792 0.08738 0.07100
H 	H 	0.54402 0.38069 0.04738 0.07100
H 	H 	0.30006 0.08656 0.94939 0.06400
H 	H 	0.29299 0.05717 0.99527 0.06200
H 	H 	0.34842 0.06226 0.96641 0.06000
H 	H 	0.26344 0.10891 0.10390 0.06600
H 	H 	0.33321 0.18518 0.09873 0.07100
H 	H 	0.31824 0.11156 0.07534 0.07100
H 	H 	0.13758 0.15804 0.94574 0.06200
H 	H 	0.11343 0.07860 0.92655 0.06300
H 	H 	0.18547 0.14803 0.91681 0.06300
