data_crystal

_cell_length_a 25.33750
_cell_length_b 22.28035
_cell_length_c 49.88708
_cell_angle_alpha 90.55625
_cell_angle_beta  91.19853
_cell_angle_gamma 110.84506

_symmetry_space_group_name_	'P 1'
_symmetry_space_group_name_H-M	'P 1'

loop_
_symmetry_equiv_pos_as_xyz
  x,y,z

loop_
_atom_site_label
_atom_site_type_symbol
_atom_site_fract_x
_atom_site_fract_y
_atom_site_fract_z
_atom_site_charge
Ni	Ni	0.70031 0.31165 0.88491 1.10700
O 	O 	0.63628 0.26195 0.85857 -0.70500
Ni	Ni	0.57016 0.27218 0.87605 1.10900
O 	O 	0.75769 0.29178 0.86150 -0.34300
O 	O 	0.70727 0.18371 0.86304 -0.35100
O 	O 	0.70640 0.38916 0.86178 -0.36100
Ni	Ni	0.62251 0.17097 0.85512 1.08300
O 	O 	0.70905 0.38397 0.94339 -0.37500
O 	O 	0.60897 0.15424 0.89497 -0.37700
O 	O 	0.51281 0.22979 0.84619 -0.35800
O 	O 	0.63213 0.30910 0.90501 -0.69800
O 	O 	0.76526 0.36838 0.90997 -0.34500
O 	O 	0.51381 0.30797 0.89287 -0.33300
O 	O 	0.58236 0.40711 0.89720 -0.38100
Ni	Ni	0.64691 0.39486 0.91997 1.09100
H 	H 	0.64115 0.28161 0.84064 0.18500
H 	H 	0.62708 0.27877 0.91993 0.18400
C 	C 	0.56138 0.15125 0.90580 0.33100
O 	O 	0.70756 0.45687 0.89673 -0.37400
C 	C 	0.75028 0.23231 0.85409 0.32400
C 	C 	0.50744 0.17238 0.83635 0.32400
C 	C 	0.71703 0.44734 0.87152 0.35900
C 	C 	0.52986 0.36874 0.90036 0.31800
C 	C 	0.75930 0.39078 0.93407 0.33500
O 	O 	0.53533 0.19027 0.89823 -0.34100
O 	O 	0.53678 0.13912 0.84716 -0.34600
Ni	Ni	0.63480 0.32464 0.57024 1.10500
O 	O 	0.70418 0.34280 0.54731 -0.70300
Ni	Ni	0.75727 0.31961 0.57170 1.10600
O 	O 	0.59519 0.36488 0.54331 -0.33700
O 	O 	0.67150 0.45740 0.54556 -0.37700
O 	O 	0.59644 0.23695 0.55045 -0.34200
Ni	Ni	0.73898 0.43083 0.53504 1.10000
O 	O 	0.56696 0.20241 0.59961 -0.36300
O 	O 	0.78246 0.47835 0.56875 -0.37500
O 	O 	0.82699 0.34513 0.54779 -0.32000
O 	O 	0.68778 0.30240 0.59558 -0.69000
O 	O 	0.56800 0.30444 0.59485 -0.36900
O 	O 	0.79620 0.27202 0.59527 -0.30400
O 	O 	0.72425 0.20052 0.61772 -0.36400
Ni	Ni	0.64994 0.21230 0.60506 1.09200
H 	H 	0.69536 0.31354 0.53149 0.18800
H 	H 	0.69614 0.33074 0.61173 0.18200
C 	C 	0.81564 0.45803 0.58375 0.34100
O 	O 	0.65563 0.18720 0.56627 -0.40300
C 	C 	0.62046 0.42467 0.53618 0.32700
C 	C 	0.84238 0.39679 0.53251 0.32000
C 	C 	0.61864 0.19157 0.54821 0.32400
C 	C 	0.76923 0.21297 0.60303 0.33000
C 	C 	0.54616 0.24736 0.60539 0.34700
O 	O 	0.79585 0.40101 0.59425 -0.34700
O 	O 	0.80432 0.41218 0.51857 -0.36100
Ni	Ni	0.00505 0.94083 0.73612 1.10900
O 	O 	0.03158 0.88185 0.71312 -0.71000
Ni	Ni	0.06608 0.93902 0.68266 1.10300
O 	O 	0.97179 0.86950 0.76345 -0.32800
O 	O 	0.91614 0.80212 0.73104 -0.36000
O 	O 	0.08035 0.97121 0.75838 -0.33100
Ni	Ni	0.96730 0.81008 0.69813 1.08200
O 	O 	0.06015 0.08216 0.75421 -0.37500
O 	O 	0.92647 0.86571 0.68139 -0.35100
O 	O 	0.09352 0.87479 0.66338 -0.33800
O 	O 	0.03191 0.99649 0.70361 -0.68800
O 	O 	0.97601 0.00005 0.75754 -0.32300
O 	O 	0.11449 0.00841 0.65753 -0.34200
O 	O 	0.12346 0.10195 0.67904 -0.33800
Ni	Ni	0.08740 0.07902 0.71625 1.08900
H 	H 	0.05933 0.86697 0.72255 0.16900
H 	H 	1.00000 0.00372 0.69424 0.19100
C 	C 	0.94822 0.90534 0.66190 0.34100
O 	O 	0.14018 0.03272 0.72704 -0.41900
C 	C 	0.93580 0.81259 0.75593 0.33000
C 	C 	0.05807 0.81508 0.66004 0.32600
C 	C 	0.13130 0.99574 0.74811 0.33100
C 	C 	0.14650 0.06579 0.66645 0.32900
C 	C 	0.00611 0.06141 0.75964 0.33600
O 	O 	0.00054 0.91711 0.65496 -0.35200
O 	O 	0.00325 0.80150 0.66278 -0.36800
Ni	Ni	0.26377 0.71230 0.40431 1.10800
O 	O 	0.31296 0.73829 0.37111 -0.70000
Ni	Ni	0.38077 0.71777 0.38360 1.10500
O 	O 	0.20587 0.75239 0.39247 -0.31500
O 	O 	0.26333 0.84178 0.37198 -0.38000
O 	O 	0.21064 0.62994 0.38466 -0.31800
Ni	Ni	0.34043 0.83138 0.36512 1.07900
O 	O 	0.22195 0.58124 0.43256 -0.35700
O 	O 	0.36219 0.85077 0.40470 -0.38800
O 	O 	0.42787 0.74938 0.35048 -0.33300
O 	O 	0.33025 0.68921 0.41603 -0.70300
O 	O 	0.21945 0.68243 0.43825 -0.34000
O 	O 	0.44001 0.68202 0.39818 -0.31300
O 	O 	0.37519 0.58405 0.40736 -0.37000
Ni	Ni	0.30193 0.59569 0.41992 1.08500
H 	H 	0.29513 0.71337 0.35469 0.17400
H 	H 	0.34787 0.71176 0.43295 0.18800
C 	C 	0.40693 0.84222 0.41523 0.32200
O 	O 	0.27520 0.58120 0.38104 -0.40300
C 	C 	0.21458 0.79390 0.37302 0.33200
C 	C 	0.44250 0.80964 0.34323 0.33500
C 	C 	0.22694 0.58558 0.37376 0.34200
C 	C 	0.42557 0.62787 0.41127 0.31900
C 	C 	0.20618 0.62281 0.44630 0.33500
O 	O 	0.42752 0.80148 0.40412 -0.33800
O 	O 	0.42307 0.84906 0.35623 -0.38700
Ni	Ni	0.34097 0.67832 0.06492 1.10500
O 	O 	0.26945 0.65817 0.04125 -0.70000
Ni	Ni	0.22245 0.69376 0.06415 1.10600
O 	O 	0.37672 0.63062 0.03989 -0.31800
O 	O 	0.29876 0.53959 0.03828 -0.37200
O 	O 	0.38497 0.75701 0.04221 -0.33100
Ni	Ni	0.22764 0.56533 0.03747 1.08800
O 	O 	0.41645 0.80649 0.09150 -0.37700
O 	O 	0.22508 0.55247 0.07783 -0.40900
O 	O 	0.15468 0.67135 0.03819 -0.33300
O 	O 	0.29329 0.71251 0.08831 -0.70000
O 	O 	0.40934 0.70126 0.09037 -0.34000
O 	O 	0.18622 0.74332 0.08806 -0.29800
O 	O 	0.26506 0.83258 0.09332 -0.37400
Ni	Ni	0.33518 0.80541 0.09226 1.08100
H 	H 	0.27670 0.67915 0.02361 0.19100
H 	H 	0.28571 0.69080 0.10579 0.17400
C 	C 	0.18677 0.56465 0.09172 0.33700
O 	O 	0.33180 0.81697 0.05210 -0.39300
C 	C 	0.34675 0.57569 0.02818 0.32600
C 	C 	0.13173 0.61301 0.02766 0.32900
C 	C 	0.36824 0.80521 0.03682 0.33300
C 	C 	0.21563 0.79568 0.10173 0.32700
C 	C 	0.43366 0.76028 0.09990 0.33500
O 	O 	0.17622 0.61749 0.08739 -0.32000
O 	O 	0.14701 0.56579 0.03658 -0.38100
Ni	Ni	0.94667 0.04420 0.26079 1.10700
O 	O 	0.94173 0.10937 0.23345 -0.70400
Ni	Ni	0.91335 0.05375 0.20079 1.10900
O 	O 	0.97659 0.11552 0.28972 -0.31800
O 	O 	0.05024 0.17054 0.26360 -0.38000
O 	O 	0.86549 0.02742 0.27411 -0.35200
Ni	Ni	0.01719 0.16957 0.22510 1.08200
O 	O 	0.87349 0.90320 0.27394 -0.39000
O 	O 	0.04928 0.09999 0.21555 -0.37100
O 	O 	0.90680 0.12526 0.17698 -0.30900
O 	O 	0.92768 0.98872 0.22686 -0.68700
O 	O 	0.95665 0.98016 0.28723 -0.33500
O 	O 	0.86532 0.98883 0.17209 -0.30700
O 	O 	0.84276 0.89351 0.19323 -0.38400
Ni	Ni	0.86276 0.91094 0.23366 1.08300
H 	H 	0.91586 0.13166 0.23867 0.19400
H 	H 	0.96005 0.97625 0.22207 0.19000
C 	C 	0.03269 0.06432 0.19373 0.33400
O 	O 	0.81647 0.96795 0.23766 -0.39000
C 	C 	0.01997 0.16782 0.28488 0.33200
C 	C 	0.95054 0.17993 0.17669 0.32900
C 	C 	0.81755 0.99960 0.26014 0.34400
C 	C 	0.82749 0.93315 0.17843 0.34600
C 	C 	0.92389 0.91967 0.28552 0.34800
O 	O 	0.98552 0.06005 0.18107 -0.35000
O 	O 	0.00052 0.18231 0.18587 -0.38100
C 	C 	0.98827 0.29236 0.12103 -0.11500
C 	C 	0.00992 0.34958 0.13635 0.00400
C 	C 	0.99196 0.35039 0.16279 0.30700
C 	C 	0.95919 0.29298 0.17466 -0.06600
C 	C 	0.94800 0.23419 0.16103 -0.11800
C 	C 	0.95736 0.23464 0.13337 0.38100
C 	C 	0.05660 0.40553 0.12605 0.02100
F 	F 	0.01049 0.40553 0.17774 -0.41400
H 	H 	0.94939 0.29340 0.19569 0.09400
F 	F 	0.94291 0.17844 0.11927 -0.39900
H 	H 	0.99898 0.29177 0.10014 0.14300
C 	C 	0.10681 0.39852 0.11765 0.29000
C 	C 	0.15072 0.45127 0.10789 -0.05700
C 	C 	0.14566 0.51209 0.10696 -0.13200
C 	C 	0.09744 0.52002 0.11776 0.37800
C 	C 	0.05234 0.46661 0.12611 -0.13000
F 	F 	0.11325 0.34068 0.11914 -0.40800
H 	H 	0.18834 0.44458 0.10071 0.10700
F 	F 	0.09461 0.57943 0.12062 -0.40300
H 	H 	0.01437 0.47292 0.13305 0.15100
C 	C 	0.59083 0.79877 0.10620 -0.12900
C 	C 	0.60314 0.82947 0.13147 0.02200
C 	C 	0.55895 0.83380 0.14703 0.29500
C 	C 	0.50319 0.80909 0.13704 -0.05300
C 	C 	0.49100 0.77888 0.11169 -0.13000
C 	C 	0.53502 0.77326 0.09639 0.38500
C 	C 	0.66231 0.85682 0.14164 0.02000
F 	F 	0.57007 0.86200 0.17178 -0.40600
H 	H 	0.46953 0.81400 0.14888 0.08800
F 	F 	0.52393 0.74520 0.07161 -0.40300
H 	H 	0.62462 0.79530 0.09405 0.14700
C 	C 	0.69318 0.81657 0.14655 0.29600
C 	C 	0.74842 0.84224 0.15704 -0.05100
C 	C 	0.77314 0.90825 0.16321 -0.13000
C 	C 	0.74276 0.94880 0.15758 0.39100
C 	C 	0.68775 0.92317 0.14668 -0.12500
F 	F 	0.66913 0.75233 0.14178 -0.40300
H 	H 	0.77158 0.81054 0.16093 0.11000
F 	F 	0.76558 0.01254 0.16367 -0.41100
H 	H 	0.66449 0.95469 0.14261 0.14700
C 	C 	0.10494 0.85126 0.13170 -0.12800
C 	C 	0.13817 0.89784 0.15022 0.01700
C 	C 	0.19435 0.90356 0.15554 0.29900
C 	C 	0.21822 0.86616 0.14103 -0.05400
C 	C 	0.18653 0.82359 0.12074 -0.12400
C 	C 	0.12894 0.81449 0.11684 0.38500
C 	C 	0.11583 0.94456 0.16192 0.01900
F 	F 	0.22657 0.94757 0.17384 -0.40500
H 	H 	0.26215 0.87228 0.14472 0.08700
F 	F 	0.09703 0.77265 0.09777 -0.39600
H 	H 	0.06113 0.84561 0.12796 0.13900
C 	C 	0.10324 0.98859 0.14539 0.30300
C 	C 	0.07833 0.02983 0.15612 -0.05400
C 	C 	0.06648 0.02809 0.18349 -0.14200
C 	C 	0.08169 0.98629 0.20030 0.37400
C 	C 	0.10592 0.94435 0.18947 -0.13300
F 	F 	0.11452 0.99075 0.11885 -0.39600
H 	H 	0.06731 0.06244 0.14309 0.12200
F 	F 	0.07085 0.98446 0.22687 -0.44600
H 	H 	0.11604 0.91091 0.20238 0.13900
C 	C 	0.58802 0.84470 0.31519 -0.12700
C 	C 	0.59867 0.90588 0.30459 0.02000
C 	C 	0.55560 0.93173 0.30395 0.29900
C 	C 	0.50305 0.89765 0.31473 -0.05200
C 	C 	0.49335 0.83809 0.32690 -0.12500
C 	C 	0.53591 0.81102 0.32646 0.38100
C 	C 	0.65501 0.94259 0.29411 0.02100
F 	F 	0.56513 0.99064 0.29355 -0.40000
H 	H 	0.47046 0.91860 0.31449 0.09800
F 	F 	0.52769 0.75334 0.33778 -0.40600
H 	H 	0.62061 0.82374 0.31516 0.14000
C 	C 	0.70332 0.95935 0.31103 0.29900
C 	C 	0.75718 0.98424 0.30021 -0.05100
C 	C 	0.76321 0.99284 0.27242 -0.12900
C 	C 	0.71479 0.98251 0.25599 0.37400
C 	C 	0.66099 0.95659 0.26674 -0.13000
F 	F 	0.69807 0.94924 0.33779 -0.39000
H 	H 	0.79406 0.99329 0.31323 0.12900
F 	F 	0.71986 0.99489 0.22938 -0.40900
H 	H 	0.62396 0.94529 0.25364 0.14800
C 	C 	0.10383 0.43163 0.36182 -0.14100
C 	C 	0.11887 0.41006 0.33770 0.02000
C 	C 	0.16485 0.45083 0.32355 0.30800
C 	C 	0.19797 0.51079 0.33449 -0.05000
C 	C 	0.18505 0.53073 0.35946 -0.12800
C 	C 	0.13677 0.49164 0.37272 0.38500
C 	C 	0.08928 0.34325 0.32836 0.01600
F 	F 	0.17857 0.43134 0.29967 -0.40000
H 	H 	0.23490 0.54071 0.32405 0.10100
F 	F 	0.12422 0.50968 0.39710 -0.41400
H 	H 	0.06803 0.40074 0.37269 0.13400
C 	C 	0.11730 0.29905 0.32884 0.31000
C 	C 	0.09189 0.23832 0.31684 -0.05000
C 	C 	0.03825 0.22116 0.30444 -0.13000
C 	C 	0.00822 0.26322 0.30611 0.36500
C 	C 	0.03382 0.32424 0.31793 -0.13700
F 	F 	0.16996 0.31585 0.34007 -0.39400
H 	H 	0.11507 0.20581 0.31595 0.11900
F 	F 	0.95584 0.24670 0.29460 -0.43200
H 	H 	0.01140 0.35756 0.31807 0.13000
C 	C 	0.06891 0.75327 0.34102 -0.12700
C 	C 	0.06690 0.81468 0.33713 0.01800
C 	C 	0.11424 0.86926 0.34406 0.29800
C 	C 	0.16271 0.86245 0.35531 -0.05400
C 	C 	0.16464 0.80101 0.35959 -0.12900
C 	C 	0.11765 0.74634 0.35206 0.37300
C 	C 	0.01590 0.82219 0.32515 0.01700
F 	F 	0.11326 0.92895 0.33980 -0.40100
H 	H 	0.19845 0.90498 0.36106 0.11300
F 	F 	0.11946 0.68663 0.35517 -0.41600
H 	H 	0.03281 0.71096 0.33542 0.14000
C 	C 	0.00411 0.81140 0.29752 0.29400
C 	C 	0.96638 0.83566 0.28479 -0.04500
C 	C 	0.94119 0.87183 0.29949 -0.14300
C 	C 	0.94737 0.87525 0.32756 0.39100
C 	C 	0.98454 0.85032 0.34035 -0.12500
F 	F 	0.03262 0.78213 0.28268 -0.40900
H 	H 	0.96083 0.83149 0.26317 0.08000
F 	F 	0.92121 0.90764 0.34218 -0.40400
H 	H 	0.99199 0.85694 0.36183 0.14300
C 	C 	0.44056 0.88744 0.43641 -0.10500
C 	C 	0.49897 0.92156 0.43323 0.12900
C 	C 	0.53015 0.96506 0.45335 0.07200
C 	C 	0.50203 0.98217 0.47447 0.02500
C 	C 	0.44355 0.94966 0.47727 0.06800
C 	C 	0.41375 0.89943 0.45928 0.12700
C 	C 	0.53362 0.03572 0.49314 0.01600
C 	C 	0.54959 0.02263 0.51897 0.06500
C 	C 	0.57463 0.07324 0.53751 0.13200
C 	C 	0.59245 0.13766 0.52888 -0.10900
C 	C 	0.58084 0.15040 0.50214 0.12900
C 	C 	0.54813 0.09981 0.48497 0.07000
Br	Br	0.40397 0.97556 0.50510 -0.10000
Br	Br	0.53521 0.91462 0.40027 -0.10400
Br	Br	0.57751 0.05398 0.57507 -0.16900
Br	Br	0.52180 0.11826 0.45055 -0.11700
Br	Br	0.33752 0.84464 0.46682 -0.16900
Br	Br	0.61146 0.00117 0.45211 -0.10600
Br	Br	0.53771 0.93535 0.52883 -0.09400
Br	Br	0.61207 0.23636 0.48856 -0.16300
C 	C 	0.90252 0.42770 0.52554 -0.08200
C 	C 	0.93351 0.39058 0.51582 0.13100
C 	C 	0.98964 0.42145 0.50772 0.08200
C 	C 	0.01513 0.48877 0.51005 0.00900
C 	C 	0.98647 0.52405 0.52277 0.08100
C 	C 	0.92857 0.49538 0.52716 0.11700
C 	C 	0.06475 0.52326 0.49385 0.02500
C 	C 	0.11988 0.53830 0.50465 0.07100
C 	C 	0.16670 0.57422 0.48961 0.12400
C 	C 	0.15828 0.59697 0.46422 -0.09700
C 	C 	0.10301 0.58583 0.45438 0.14000
C 	C 	0.05650 0.54628 0.46849 0.06500
Br	Br	0.02571 0.61326 0.53209 -0.14300
Br	Br	0.89738 0.29899 0.51028 -0.10800
Br	Br	0.24236 0.59307 0.50380 -0.16100
Br	Br	0.98130 0.52234 0.45287 -0.10600
Br	Br	0.88397 0.54953 0.52928 -0.17600
Br	Br	0.03074 0.37218 0.49223 -0.10700
Br	Br	0.13103 0.51015 0.54005 -0.10500
Br	Br	0.09090 0.62599 0.42188 -0.07400
C 	C 	0.59436 0.45297 0.51559 -0.11400
C 	C 	0.54110 0.45775 0.51971 0.13200
C 	C 	0.51815 0.48838 0.50064 0.06800
C 	C 	0.55041 0.51890 0.47867 0.02100
C 	C 	0.60424 0.51564 0.47502 0.06900
C 	C 	0.62438 0.47897 0.49239 0.13300
C 	C 	0.52690 0.55248 0.45893 0.01900
C 	C 	0.50227 0.52141 0.43461 0.06700
C 	C 	0.47676 0.55178 0.41674 0.12700
C 	C 	0.46971 0.60931 0.42455 -0.10200
C 	C 	0.49779 0.64262 0.44789 0.12100
C 	C 	0.52779 0.61489 0.46470 0.07000
Br	Br	0.65082 0.56261 0.44658 -0.10100
Br	Br	0.50078 0.42509 0.55197 -0.13000
Br	Br	0.45358 0.51635 0.38116 -0.11100
Br	Br	0.56933 0.66160 0.49580 -0.10600
Br	Br	0.69020 0.45957 0.48314 -0.23700
Br	Br	0.44236 0.48788 0.50434 -0.12300
Br	Br	0.50068 0.43591 0.42655 -0.10900
Br	Br	0.49272 0.72449 0.45751 -0.14700
C 	C 	0.87807 0.14049 0.62169 -0.13500
C 	C 	0.84745 0.07526 0.61633 0.02200
C 	C 	0.79438 0.05682 0.60327 0.30500
C 	C 	0.77061 0.10296 0.59714 -0.05600
C 	C 	0.79958 0.16778 0.60408 -0.12500
C 	C 	0.85430 0.18671 0.61562 0.38400
C 	C 	0.86819 0.02623 0.62704 0.02200
F 	F 	0.76483 0.99389 0.59760 -0.38500
H 	H 	0.72865 0.08803 0.58798 0.10600
F 	F 	0.88300 0.24922 0.62241 -0.39500
H 	H 	0.91933 0.15505 0.63155 0.13600
C 	C 	0.90041 0.00076 0.61115 0.30000
C 	C 	0.92393 0.95821 0.62218 -0.04200
C 	C 	0.91560 0.94103 0.64922 -0.13900
C 	C 	0.88132 0.96465 0.66479 0.38000
C 	C 	0.85776 0.00700 0.65368 -0.14300
F 	F 	0.91005 0.01842 0.58521 -0.38600
H 	H 	0.94976 0.93980 0.60991 0.12800
F 	F 	0.87333 0.94933 0.69104 -0.41900
H 	H 	0.83258 0.02627 0.66599 0.14000
C 	C 	0.28718 0.18934 0.64751 -0.12700
C 	C 	0.31730 0.14968 0.64064 0.01900
C 	C 	0.29063 0.08265 0.64125 0.30200
C 	C 	0.23467 0.05561 0.64923 -0.05400
C 	C 	0.20440 0.09515 0.65631 -0.12500
C 	C 	0.23087 0.16245 0.65501 0.37700
C 	C 	0.37661 0.17840 0.63253 0.02100
F 	F 	0.31895 0.04374 0.63405 -0.39700
H 	H 	0.21504 0.00384 0.65025 0.11100
F 	F 	0.20194 0.20176 0.66059 -0.41300
H 	H 	0.30741 0.24110 0.64693 0.14300
C 	C 	0.39012 0.21476 0.60914 0.29900
C 	C 	0.44604 0.23966 0.60095 -0.04500
C 	C 	0.48881 0.22769 0.61581 -0.13200
C 	C 	0.47549 0.19235 0.63945 0.37800
C 	C 	0.41966 0.16829 0.64789 -0.12900
F 	F 	0.34883 0.22442 0.59398 -0.39500
H 	H 	0.45588 0.26650 0.58257 0.12100
F 	F 	0.51658 0.18109 0.65416 -0.43700
H 	H 	0.40969 0.14104 0.66616 0.14200
C 	C 	0.96976 0.53920 0.60332 -0.11900
C 	C 	0.97193 0.60161 0.60943 0.02100
C 	C 	0.92183 0.61521 0.60912 0.29700
C 	C 	0.87041 0.56741 0.60194 -0.04800
C 	C 	0.86827 0.50538 0.59512 -0.12700
C 	C 	0.91801 0.49096 0.59650 0.37100
C 	C 	0.02550 0.65166 0.61840 0.01500
F 	F 	0.92300 0.67473 0.61614 -0.41100
H 	H 	0.83223 0.57878 0.60140 0.11300
F 	F 	0.91645 0.43080 0.59049 -0.41200
H 	H 	0.00805 0.52808 0.60390 0.14300
C 	C 	0.04420 0.65223 0.64513 0.29900
C 	C 	0.07052 0.71104 0.65863 -0.06200
C 	C 	0.07576 0.76831 0.64559 -0.12400
C 	C 	0.07226 0.76722 0.61746 0.38900
C 	C 	0.04649 0.70850 0.60379 -0.12400
F 	F 	0.02948 0.59679 0.65899 -0.40800
H 	H 	0.07817 0.71164 0.68010 0.08900
F 	F 	0.08407 0.82292 0.60399 -0.40100
H 	H 	0.03592 0.70816 0.58262 0.14600
C 	C 	0.07680 0.59571 0.01345 -0.09900
C 	C 	0.07336 0.58595 0.98547 0.12000
C 	C 	0.02044 0.55537 0.97256 0.06800
C 	C 	0.97119 0.53320 0.98779 0.02300
C 	C 	0.97442 0.54610 0.01559 0.07300
C 	C 	0.02703 0.57913 0.02824 0.11900
C 	C 	0.91604 0.49612 0.97464 0.02100
C 	C 	0.87891 0.52749 0.96690 0.06900
C 	C 	0.82507 0.49180 0.95605 0.12800
C 	C 	0.81029 0.42549 0.95054 -0.10700
C 	C 	0.84704 0.39387 0.95869 0.12800
C 	C 	0.89967 0.42908 0.97099 0.07000
Br	Br	0.90693 0.51647 0.03643 -0.11500
Br	Br	0.14128 0.61385 0.96498 -0.14900
Br	Br	0.77089 0.53325 0.95006 -0.16700
Br	Br	0.94942 0.38571 0.98288 -0.11400
Br	Br	0.03108 0.60173 0.06582 -0.07400
Br	Br	0.01529 0.54302 0.93415 -0.10200
Br	Br	0.90241 0.61965 0.97071 -0.09500
Br	Br	0.82420 0.30198 0.95398 -0.12100
C 	C 	0.53446 0.10025 0.92529 -0.10700
C 	C 	0.47628 0.06246 0.92255 0.13300
C 	C 	0.45087 0.01539 0.94154 0.05800
C 	C 	0.48443 0.99977 0.96111 0.03400
C 	C 	0.54303 0.03440 0.96276 0.06200
C 	C 	0.56717 0.08756 0.94625 0.12900
C 	C 	0.45758 0.94957 0.98096 0.01800
C 	C 	0.44711 0.96744 0.00687 0.07200
C 	C 	0.42260 0.92007 0.02583 0.13400
C 	C 	0.40037 0.85460 0.01776 -0.10600
C 	C 	0.40923 0.83673 0.99148 0.13000
C 	C 	0.44062 0.88400 0.97364 0.07100
Br	Br	0.59019 0.00848 0.98743 -0.10700
Br	Br	0.43210 0.07110 0.89183 -0.11900
Br	Br	0.42512 0.94470 0.06318 -0.17900
Br	Br	0.46091 0.85916 0.93935 -0.10200
Br	Br	0.64301 0.14628 0.95407 -0.14300
Br	Br	0.36979 0.97341 0.94122 -0.10700
Br	Br	0.46470 0.05689 0.01614 -0.11800
Br	Br	0.37577 0.74838 0.97937 -0.14600
C 	C 	0.49044 0.39287 0.91430 -0.11500
C 	C 	0.46303 0.36207 0.93746 0.12000
C 	C 	0.43286 0.39113 0.95304 0.06800
C 	C 	0.43537 0.45382 0.94735 0.01900
C 	C 	0.46118 0.48372 0.92385 0.06700
C 	C 	0.48571 0.45147 0.90656 0.12500
C 	C 	0.41464 0.48980 0.96706 0.02000
C 	C 	0.36092 0.49425 0.96337 0.07100
C 	C 	0.34087 0.52701 0.98252 0.12900
C 	C 	0.37160 0.54904 0.00678 -0.10600
C 	C 	0.42484 0.54312 0.01076 0.13100
C 	C 	0.44760 0.51692 0.99023 0.07000
Br	Br	0.46554 0.56999 0.91613 -0.10500
Br	Br	0.47113 0.28348 0.94937 -0.15700
Br	Br	0.27274 0.54448 0.97501 -0.20900
Br	Br	0.52397 0.51816 0.99371 -0.12600
Br	Br	0.51083 0.48610 0.87186 -0.12700
Br	Br	0.38889 0.34577 0.98253 -0.11600
Br	Br	0.31407 0.45339 0.93260 -0.10300
Br	Br	0.46437 0.56544 0.04502 -0.09600
C 	C 	0.85652 0.15518 0.83721 -0.13200
C 	C 	0.88240 0.19088 0.81499 0.02300
C 	C 	0.86719 0.24271 0.80670 0.29700
C 	C 	0.82469 0.25684 0.81983 -0.05500
C 	C 	0.79704 0.21931 0.84131 -0.13000
C 	C 	0.81420 0.16939 0.85040 0.37800
C 	C 	0.91995 0.16891 0.79858 0.01900
F 	F 	0.89267 0.27833 0.78552 -0.39900
H 	H 	0.81237 0.29606 0.81295 0.10900
F 	F 	0.79014 0.13492 0.87210 -0.40700
H 	H 	0.86823 0.11532 0.84380 0.14400
C 	C 	0.97177 0.16923 0.80934 0.30700
C 	C 	0.00219 0.13750 0.79568 -0.05800
C 	C 	0.98090 0.10522 0.77130 -0.12600
C 	C 	0.93110 0.10868 0.75974 0.37100
C 	C 	0.90082 0.14041 0.77333 -0.12800
F 	F 	0.99148 0.19815 0.83346 -0.39200
H 	H 	0.04091 0.13559 0.80460 0.12600
F 	F 	0.91103 0.07922 0.73574 -0.42500
H 	H 	0.86117 0.14049 0.76478 0.13500
C 	C 	0.38170 0.03659 0.80632 -0.13400
C 	C 	0.34798 0.07052 0.79714 0.02000
C 	C 	0.36972 0.13793 0.79760 0.29900
C 	C 	0.42354 0.17111 0.80867 -0.05600
C 	C 	0.45604 0.13733 0.81971 -0.12000
C 	C 	0.43576 0.06958 0.81725 0.37800
C 	C 	0.28970 0.03560 0.78719 0.01800
F 	F 	0.33833 0.17128 0.78764 -0.40500
H 	H 	0.43933 0.22314 0.80929 0.11500
F 	F 	0.46785 0.03562 0.82573 -0.41800
H 	H 	0.36576 0.98456 0.80530 0.14600
C 	C 	0.27994 0.00671 0.76156 0.29200
C 	C 	0.22560 0.98569 0.74991 -0.04900
C 	C 	0.18084 0.99427 0.76360 -0.13200
C 	C 	0.18957 0.01681 0.79035 0.37600
C 	C 	0.24389 0.03745 0.80206 -0.13000
F 	F 	0.32367 0.00280 0.74728 -0.40600
H 	H 	0.21907 0.96705 0.72947 0.09000
F 	F 	0.14651 0.02390 0.80418 -0.41100
H 	H 	0.25090 0.05814 0.82215 0.13900
C 	C 	0.77006 0.55678 0.81269 -0.14100
C 	C 	0.81279 0.60897 0.82513 0.01900
C 	C 	0.82353 0.60823 0.85281 0.31300
C 	C 	0.79230 0.55540 0.86785 -0.05000
C 	C 	0.74946 0.50308 0.85546 -0.13200
C 	C 	0.73840 0.50408 0.82776 0.37900
C 	C 	0.84579 0.66465 0.80916 0.02000
F 	F 	0.86415 0.65882 0.86515 -0.38300
H 	H 	0.80183 0.55481 0.88908 0.12300
F 	F 	0.69644 0.45459 0.81554 -0.43000
H 	H 	0.76136 0.55715 0.79134 0.12700
C 	C 	0.90333 0.67727 0.80473 0.31000
C 	C 	0.93369 0.72833 0.78854 -0.05700
C 	C 	0.90671 0.76657 0.77643 -0.12800
C 	C 	0.84964 0.75509 0.78149 0.38300
C 	C 	0.81939 0.70442 0.79783 -0.14100
F 	F 	0.92933 0.63899 0.81548 -0.38900
H 	H 	0.97765 0.73676 0.78466 0.10000
F 	F 	0.82325 0.79229 0.77012 -0.40600
H 	H 	0.77522 0.69546 0.80140 0.13400
