data_crystal

_cell_length_a 18.42643
_cell_length_b 16.16832
_cell_length_c 41.63309
_cell_angle_alpha 90.88271
_cell_angle_beta  91.28147
_cell_angle_gamma 111.13197

_symmetry_space_group_name_	'P 1'
_symmetry_space_group_name_H-M	'P 1'

loop_
_symmetry_equiv_pos_as_xyz
  x,y,z

loop_
_atom_site_label
_atom_site_type_symbol
_atom_site_fract_x
_atom_site_fract_y
_atom_site_fract_z
_atom_site_charge
Ni	Ni	0.72189 0.32937 0.88586 1.10400
O 	O 	0.62819 0.26430 0.85600 -0.70300
Ni	Ni	0.54181 0.27643 0.88119 1.10700
O 	O 	0.79616 0.30844 0.85371 -0.35000
O 	O 	0.72747 0.15842 0.85071 -0.39000
O 	O 	0.72382 0.43668 0.86033 -0.38800
Ni	Ni	0.60833 0.13958 0.84817 1.07200
O 	O 	0.74602 0.43077 0.95694 -0.38000
O 	O 	0.59911 0.10956 0.89589 -0.38800
O 	O 	0.45622 0.22195 0.84752 -0.35300
O 	O 	0.63367 0.32552 0.91337 -0.69700
O 	O 	0.81603 0.40488 0.91476 -0.35600
O 	O 	0.46928 0.32313 0.90636 -0.33900
O 	O 	0.56366 0.45937 0.90727 -0.40200
Ni	Ni	0.65788 0.44575 0.93122 1.08900
H 	H 	0.63108 0.29406 0.83521 0.16800
H 	H 	0.62978 0.28391 0.93100 0.19200
C 	C 	0.53843 0.10720 0.91248 0.32300
O 	O 	0.73662 0.53370 0.90224 -0.38200
C 	C 	0.78378 0.22987 0.84047 0.29400
C 	C 	0.44993 0.14845 0.83148 0.30200
C 	C 	0.74899 0.51755 0.87224 0.33300
C 	C 	0.49371 0.40742 0.91497 0.32400
C 	C 	0.81255 0.43530 0.94438 0.33000
O 	O 	0.49941 0.15917 0.90553 -0.34100
O 	O 	0.48904 0.09785 0.84127 -0.38800
Ni	Ni	0.58932 0.30286 0.56515 1.10500
O 	O 	0.67960 0.32434 0.53478 -0.69600
Ni	Ni	0.75203 0.28039 0.55964 1.10500
O 	O 	0.54551 0.38918 0.54334 -0.34700
O 	O 	0.66614 0.49438 0.54498 -0.39300
O 	O 	0.51819 0.20380 0.53418 -0.34600
Ni	Ni	0.73597 0.44299 0.51980 1.10500
O 	O 	0.48412 0.12226 0.59110 -0.38100
O 	O 	0.82923 0.50038 0.55161 -0.36600
O 	O 	0.85132 0.32514 0.53205 -0.34500
O 	O 	0.65520 0.24572 0.58773 -0.69600
O 	O 	0.50138 0.27014 0.59665 -0.37500
O 	O 	0.80075 0.21038 0.58851 -0.35400
O 	O 	0.69208 0.08523 0.58182 -0.38700
Ni	Ni	0.59432 0.11897 0.58720 1.07500
H 	H 	0.66108 0.28526 0.51565 0.19800
H 	H 	0.66800 0.26943 0.61005 0.16300
C 	C 	0.84631 0.46669 0.57813 0.31800
O 	O 	0.58350 0.10820 0.53855 -0.39200
C 	C 	0.59261 0.46904 0.53617 0.32700
C 	C 	0.85726 0.37400 0.50603 0.32200
C 	C 	0.53684 0.13820 0.52239 0.32900
C 	C 	0.75940 0.12831 0.59656 0.29300
C 	C 	0.46545 0.18669 0.60461 0.30100
O 	O 	0.79876 0.39072 0.58873 -0.39300
O 	O 	0.79578 0.38523 0.49348 -0.36300
Ni	Ni	0.98438 0.95165 0.75092 1.09200
O 	O 	0.99663 0.85339 0.72326 -0.72400
Ni	Ni	0.03975 0.91800 0.68361 1.10100
O 	O 	0.94113 0.86439 0.78712 -0.35700
O 	O 	0.84277 0.77679 0.75372 -0.41000
O 	O 	0.09500 0.98632 0.77244 -0.36500
Ni	Ni	0.89409 0.76656 0.71052 1.07000
O 	O 	0.06990 0.15797 0.76193 -0.38900
O 	O 	0.85105 0.85654 0.69099 -0.41100
O 	O 	0.05497 0.81244 0.66105 -0.35600
O 	O 	0.01263 0.01495 0.70855 -0.67200
O 	O 	0.96335 0.04469 0.77785 -0.37400
O 	O 	0.10907 0.99812 0.64975 -0.36300
O 	O 	0.13414 0.13768 0.66960 -0.39300
Ni	Ni	0.09601 0.13005 0.71634 1.07300
H 	H 	0.03144 0.82574 0.73312 0.17900
H 	H 	0.96700 0.02591 0.69958 0.14400
C 	C 	0.87837 0.89633 0.66416 0.31100
O 	O 	0.16269 0.06006 0.72950 -0.43400
C 	C 	0.88155 0.79046 0.78141 0.29900
C 	C 	0.99536 0.73567 0.66006 0.27400
C 	C 	0.16173 0.03028 0.75857 0.31800
C 	C 	0.15897 0.07802 0.65711 0.32100
C 	C 	0.99817 0.12876 0.77249 0.28400
O 	O 	0.94469 0.89627 0.65365 -0.37300
O 	O 	0.92480 0.73352 0.66677 -0.38600
Ni	Ni	0.24075 0.65667 0.39090 1.10600
O 	O 	0.33338 0.72035 0.36272 -0.70300
Ni	Ni	0.42242 0.72743 0.39184 1.10600
O 	O 	0.16435 0.66210 0.35508 -0.35100
O 	O 	0.22545 0.81259 0.35144 -0.39300
O 	O 	0.24597 0.54350 0.37013 -0.38900
Ni	Ni	0.34549 0.84043 0.35154 1.07100
O 	O 	0.22061 0.58295 0.46470 -0.37900
O 	O 	0.34866 0.88405 0.39808 -0.39000
O 	O 	0.50723 0.77849 0.35965 -0.36000
O 	O 	0.33069 0.68112 0.42197 -0.69800
O 	O 	0.14835 0.58274 0.41838 -0.35000
O 	O 	0.49993 0.70023 0.42213 -0.34100
O 	O 	0.41350 0.55961 0.42526 -0.40200
Ni	Ni	0.31615 0.57228 0.44502 1.09000
H 	H 	0.33368 0.68517 0.34308 0.16200
H 	H 	0.33055 0.72778 0.43757 0.18600
C 	C 	0.40910 0.89666 0.41738 0.32900
O 	O 	0.24406 0.46949 0.41672 -0.37400
C 	C 	0.17221 0.73709 0.34081 0.29200
C 	C 	0.51420 0.85172 0.34418 0.29600
C 	C 	0.23391 0.46968 0.38545 0.32700
C 	C 	0.48195 0.61943 0.43266 0.32100
C 	C 	0.15325 0.55951 0.44870 0.33300
O 	O 	0.45568 0.85231 0.41288 -0.35300
O 	O 	0.46545 0.89455 0.34913 -0.38500
Ni	Ni	0.38288 0.71082 0.05941 1.10100
O 	O 	0.27746 0.66814 0.03462 -0.69700
Ni	Ni	0.21650 0.72466 0.06147 1.10300
O 	O 	0.42845 0.63296 0.03334 -0.34000
O 	O 	0.32183 0.50719 0.03497 -0.38700
O 	O 	0.43526 0.80390 0.02517 -0.34300
Ni	Ni	0.22285 0.53878 0.03624 1.07800
O 	O 	0.48872 0.90070 0.08084 -0.39100
O 	O 	0.23301 0.54120 0.08495 -0.41500
O 	O 	0.11465 0.67714 0.03491 -0.34800
O 	O 	0.32231 0.76834 0.08572 -0.70000
O 	O 	0.48353 0.75834 0.08644 -0.35900
O 	O 	0.17263 0.80319 0.08820 -0.34700
O 	O 	0.27786 0.92895 0.08229 -0.39900
Ni	Ni	0.37710 0.89726 0.08245 1.07100
H 	H 	0.28144 0.68925 0.01232 0.19100
H 	H 	0.31876 0.74927 0.10830 0.16200
C 	C 	0.18265 0.56051 0.10219 0.31300
O 	O 	0.36732 0.89498 0.03382 -0.39800
C 	C 	0.38383 0.55675 0.02032 0.32500
C 	C 	0.08708 0.59373 0.02475 0.32400
C 	C 	0.41311 0.86900 0.01605 0.33300
C 	C 	0.21606 0.88378 0.09812 0.30300
C 	C 	0.51423 0.84316 0.09470 0.30100
O 	O 	0.16584 0.63137 0.09598 -0.34800
O 	O 	0.11174 0.53542 0.03834 -0.39400
Ni	Ni	0.96996 0.02579 0.26852 1.10000
O 	O 	0.99111 0.14068 0.24403 -0.71100
Ni	Ni	0.94146 0.09252 0.20143 1.10300
O 	O 	0.02564 0.09635 0.30899 -0.35300
O 	O 	0.13427 0.16346 0.28001 -0.39500
O 	O 	0.86520 0.03339 0.28171 -0.37000
Ni	Ni	0.10090 0.20417 0.23670 1.07000
O 	O 	0.90455 0.80742 0.24764 -0.39700
O 	O 	0.11923 0.09945 0.21467 -0.40600
O 	O 	0.95712 0.21201 0.18139 -0.36000
O 	O 	0.93800 0.97902 0.22369 -0.70400
O 	O 	0.94339 0.90688 0.29082 -0.37800
O 	O 	0.86330 0.02606 0.16524 -0.34700
O 	O 	0.78021 0.93985 0.20177 -0.41200
Ni	Ni	0.84358 0.87394 0.22492 1.07500
H 	H 	0.96656 0.17990 0.25383 0.16400
H 	H 	0.97885 0.95857 0.21565 0.14800
C 	C 	0.09142 0.07188 0.18555 0.30300
O 	O 	0.79833 0.88837 0.26796 -0.38600
C 	C 	0.09483 0.15888 0.30636 0.29200
C 	C 	0.02778 0.27486 0.18258 0.29700
C 	C 	0.79929 0.96459 0.27947 0.30800
C 	C 	0.79497 0.96683 0.17214 0.27900
C 	C 	0.94436 0.83541 0.27522 0.30500
O 	O 	0.03106 0.08764 0.17391 -0.35500
O 	O 	0.08900 0.25680 0.19316 -0.40100
C 	C 	0.13021 0.49132 0.12241 -0.09600
C 	C 	0.08626 0.40792 0.10866 -0.04300
C 	C 	0.04280 0.33841 0.12806 0.18000
C 	C 	0.04375 0.35161 0.16160 -0.08700
C 	C 	0.08171 0.43736 0.17489 -0.06000
C 	C 	0.12522 0.50705 0.15544 0.17300
H 	H 	0.08749 0.39616 0.08302 0.06900
O 	O 	0.00199 0.25657 0.11433 -0.25300
H 	H 	0.08187 0.44861 0.20063 0.05400
O 	O 	0.16369 0.58983 0.16890 -0.27500
H 	H 	0.21575 0.59020 0.17569 0.14200
H 	H 	0.03935 0.22519 0.11374 0.17300
C 	C 	0.58904 0.87720 0.11298 -0.09900
C 	C 	0.60673 0.95439 0.13223 -0.05300
C 	C 	0.67715 0.98808 0.14982 0.16500
C 	C 	0.73042 0.94423 0.14852 -0.09200
C 	C 	0.71464 0.86947 0.12823 -0.06400
C 	C 	0.64479 0.83653 0.11008 0.18000
H 	H 	0.56534 0.98776 0.13386 0.05100
O 	O 	0.69430 0.06459 0.16802 -0.26700
H 	H 	0.75581 0.83572 0.12703 0.05800
O 	O 	0.63104 0.76449 0.08978 -0.26800
H 	H 	0.65191 0.78950 0.06885 0.17500
H 	H 	0.67142 0.04530 0.18920 0.16200
C 	C 	0.18411 0.93159 0.12070 -0.11600
C 	C 	0.18310 0.01519 0.11280 -0.04000
C 	C 	0.15713 0.06375 0.13478 0.16800
C 	C 	0.13086 0.02833 0.16484 -0.09300
C 	C 	0.13346 0.94569 0.17311 -0.07400
C 	C 	0.15936 0.89685 0.15105 0.17300
H 	H 	0.20229 0.04248 0.08952 0.07900
O 	O 	0.15516 0.14474 0.12648 -0.27200
H 	H 	0.11337 0.91818 0.19626 0.05400
O 	O 	0.16320 0.81689 0.15963 -0.29300
H 	H 	0.11163 0.77201 0.15333 0.17200
H 	H 	0.20629 0.18865 0.13385 0.15200
C 	C 	0.58941 0.90009 0.32936 -0.08700
C 	C 	0.59111 0.92547 0.29727 -0.06000
C 	C 	0.66195 0.95676 0.28135 0.16900
C 	C 	0.73198 0.96496 0.29783 -0.09500
C 	C 	0.73093 0.94895 0.33086 -0.04900
C 	C 	0.66007 0.91612 0.34663 0.17900
H 	H 	0.53726 0.91654 0.28414 0.05100
O 	O 	0.66237 0.97704 0.24948 -0.29200
H 	H 	0.78455 0.95585 0.34384 0.07800
O 	O 	0.65975 0.89515 0.37845 -0.25900
H 	H 	0.66478 0.95034 0.39055 0.17900
H 	H 	0.65149 0.92006 0.23755 0.14700
C 	C 	0.19671 0.38480 0.36812 -0.10200
C 	C 	0.24164 0.33596 0.35813 -0.05400
C 	C 	0.20698 0.25657 0.34042 0.17100
C 	C 	0.12696 0.22658 0.33206 -0.10400
C 	C 	0.08111 0.27221 0.34416 -0.06200
C 	C 	0.11572 0.35103 0.36224 0.18000
H 	H 	0.30366 0.36019 0.36366 0.07200
O 	O 	0.25190 0.21023 0.33015 -0.27900
H 	H 	0.01933 0.24905 0.33820 0.07300
O 	O 	0.07081 0.39689 0.37298 -0.27300
H 	H 	0.05467 0.37413 0.39469 0.17600
H 	H 	0.24980 0.16791 0.34742 0.16400
C 	C 	0.10688 0.74131 0.32087 -0.09200
C 	C 	0.03460 0.72579 0.33474 -0.04500
C 	C 	0.97802 0.75037 0.31877 0.17200
C 	C 	0.99273 0.78815 0.28827 -0.11400
C 	C 	0.06183 0.79523 0.27308 -0.04500
C 	C 	0.11949 0.77350 0.28949 0.16200
H 	H 	0.02397 0.69948 0.35869 0.08600
O 	O 	0.90867 0.73805 0.33309 -0.26800
H 	H 	0.07296 0.82293 0.24935 0.05200
O 	O 	0.18825 0.78425 0.27491 -0.29300
H 	H 	0.22274 0.84624 0.28016 0.13100
H 	H 	0.91792 0.79266 0.34632 0.16800
C 	C 	0.54099 0.09403 0.46493 0.10600
C 	C 	0.49766 0.09060 0.49271 -0.10100
C 	C 	0.41947 0.03184 0.49331 0.11500
C 	C 	0.38806 0.97005 0.46776 0.09600
C 	C 	0.43302 0.97166 0.44070 -0.11400
C 	C 	0.50596 0.03979 0.43809 0.12000
Br	Br	0.55580 0.06208 0.39727 -0.17600
Br	Br	0.65024 0.16545 0.46456 -0.19100
Br	Br	0.28500 0.88155 0.47038 -0.19000
Br	Br	0.35660 0.03351 0.52956 -0.16000
C 	C 	0.98809 0.37920 0.48785 0.09200
C 	C 	0.93462 0.42243 0.49231 -0.09200
C 	C 	0.95441 0.51174 0.48247 0.10000
C 	C 	0.02886 0.55826 0.47100 0.12100
C 	C 	0.08094 0.51441 0.46586 -0.10800
C 	C 	0.06193 0.42596 0.47553 0.11400
Br	Br	0.13734 0.36912 0.47264 -0.19300
Br	Br	0.95724 0.25346 0.49478 -0.16500
Br	Br	0.06094 0.68384 0.46346 -0.16300
Br	Br	0.87886 0.56951 0.48191 -0.23600
C 	C 	0.58093 0.49180 0.47751 0.09500
C 	C 	0.57073 0.51452 0.50950 -0.12200
C 	C 	0.54463 0.58472 0.51584 0.10900
C 	C 	0.52299 0.62742 0.49016 0.09100
C 	C 	0.52930 0.60103 0.45823 -0.11200
C 	C 	0.56429 0.53870 0.45211 0.10800
Br	Br	0.58692 0.51583 0.40858 -0.17000
Br	Br	0.61164 0.39224 0.46825 -0.26600
Br	Br	0.48100 0.71877 0.49861 -0.22800
Br	Br	0.53658 0.62051 0.55961 -0.19000
C 	C 	0.79764 0.07601 0.61384 -0.09400
C 	C 	0.81356 0.00905 0.59701 -0.04600
C 	C 	0.83386 0.94558 0.61355 0.17300
C 	C 	0.83954 0.94920 0.64737 -0.11800
C 	C 	0.82261 0.01556 0.66430 -0.04800
C 	C 	0.80263 0.07949 0.64764 0.15500
H 	H 	0.80783 0.00457 0.57101 0.08500
O 	O 	0.84583 0.87827 0.59667 -0.26900
H 	H 	0.82725 0.01930 0.69032 0.04400
O 	O 	0.78484 0.14295 0.66447 -0.29900
H 	H 	0.83491 0.19354 0.66755 0.14700
H 	H 	0.90122 0.90250 0.59066 0.16900
C 	C 	0.23743 0.10678 0.64376 -0.10300
C 	C 	0.28856 0.06426 0.65301 -0.05200
C 	C 	0.36388 0.09159 0.64102 0.17000
C 	C 	0.38876 0.16238 0.61962 -0.08700
C 	C 	0.33759 0.20526 0.61053 -0.05200
C 	C 	0.26239 0.17805 0.62260 0.17900
H 	H 	0.27012 0.01032 0.66971 0.06100
O 	O 	0.41393 0.05111 0.65114 -0.29100
H 	H 	0.35544 0.25846 0.59352 0.08800
O 	O 	0.21223 0.21834 0.61245 -0.26000
H 	H 	0.22202 0.26972 0.62746 0.15400
H 	H 	0.40359 0.99931 0.63628 0.14700
C 	C 	0.91267 0.52318 0.59906 -0.09400
C 	C 	0.91450 0.50685 0.63205 -0.05300
C 	C 	0.96058 0.57432 0.65333 0.15300
C 	C 	0.00028 0.65974 0.64174 -0.07700
C 	C 	0.01342 0.66870 0.60877 -0.04800
C 	C 	0.96905 0.60086 0.58721 0.17000
H 	H 	0.87671 0.44446 0.64146 0.06800
O 	O 	0.95678 0.56080 0.68578 -0.31500
H 	H 	0.05048 0.73182 0.59961 0.08300
O 	O 	0.98119 0.61028 0.55488 -0.26600
H 	H 	0.95297 0.64895 0.54772 0.17800
H 	H 	0.00052 0.54094 0.69114 0.16000
C 	C 	0.88645 0.44692 0.99620 0.10200
C 	C 	0.88459 0.47379 0.96422 -0.10400
C 	C 	0.94833 0.54482 0.95280 0.09800
C 	C 	0.01504 0.58445 0.97267 0.10400
C 	C 	0.01464 0.56095 0.00509 -0.09900
C 	C 	0.94817 0.49562 0.01721 0.09700
Br	Br	0.93978 0.47657 0.06283 -0.17400
Br	Br	0.80804 0.33938 0.01047 -0.15700
Br	Br	0.10838 0.66635 0.95489 -0.17400
Br	Br	0.94281 0.59198 0.91092 -0.18700
C 	C 	0.52804 0.97210 0.98737 0.09700
C 	C 	0.44766 0.92050 0.98748 -0.09900
C 	C 	0.39905 0.92486 0.96153 0.10700
C 	C 	0.42997 0.98153 0.93593 0.09900
C 	C 	0.50866 0.03928 0.93730 -0.09100
C 	C 	0.55768 0.03433 0.96312 0.11200
Br	Br	0.66387 0.11677 0.96659 -0.18000
Br	Br	0.59797 0.95725 0.01999 -0.16900
Br	Br	0.36507 0.97712 0.89851 -0.17500
Br	Br	0.28979 0.85355 0.96116 -0.16900
C 	C 	0.42157 0.49927 0.93571 0.10700
C 	C 	0.45600 0.43589 0.94134 -0.11800
C 	C 	0.46616 0.41160 0.97305 0.09000
C 	C 	0.44477 0.45339 0.99907 0.10800
C 	C 	0.41215 0.51842 0.99342 -0.11200
C 	C 	0.40069 0.54151 0.96175 0.09500
Br	Br	0.35721 0.63183 0.95411 -0.20800
Br	Br	0.40294 0.52782 0.89223 -0.17600
Br	Br	0.46275 0.42405 0.04256 -0.17600
Br	Br	0.51176 0.32309 0.98087 -0.23600
C 	C 	0.84670 0.21863 0.82177 -0.09300
C 	C 	0.91628 0.22296 0.83741 -0.04800
C 	C 	0.97535 0.20907 0.81996 0.17000
C 	C 	0.96477 0.19024 0.78667 -0.10100
C 	C 	0.90030 0.19937 0.77060 -0.06100
C 	C 	0.84019 0.21074 0.78808 0.16700
H 	H 	0.92368 0.23440 0.86320 0.07600
O 	O 	0.04156 0.20914 0.83573 -0.25900
H 	H 	0.89279 0.18809 0.74479 0.04300
O 	O 	0.77539 0.21422 0.77218 -0.29300
H 	H 	0.73864 0.15185 0.77036 0.13600
H 	H 	0.02914 0.14755 0.84304 0.17400
C 	C 	0.23602 0.05782 0.77723 -0.08700
C 	C 	0.29147 0.14276 0.77267 -0.05500
C 	C 	0.36522 0.16855 0.78744 0.17400
C 	C 	0.38329 0.11138 0.80858 -0.10500
C 	C 	0.32959 0.02456 0.81193 -0.02100
C 	C 	0.25569 0.99790 0.79659 0.14900
H 	H 	0.27741 0.18894 0.75740 0.05600
O 	O 	0.41859 0.25172 0.78242 -0.28000
H 	H 	0.34429 0.97845 0.82691 0.07600
O 	O 	0.20428 0.91268 0.79963 -0.27800
H 	H 	0.17438 0.91435 0.81900 0.17500
H 	H 	0.44847 0.24454 0.76374 0.14200
C 	C 	0.79012 0.59167 0.85129 -0.09600
C 	C 	0.77762 0.67219 0.85398 -0.05100
C 	C 	0.80928 0.73884 0.83168 0.17800
C 	C 	0.85453 0.72550 0.80678 -0.10300
C 	C 	0.86979 0.64686 0.80491 -0.05800
C 	C 	0.83868 0.58046 0.82720 0.17900
H 	H 	0.74134 0.68204 0.87267 0.07700
O 	O 	0.79595 0.81684 0.83427 -0.27200
H 	H 	0.90519 0.63673 0.78589 0.04700
O 	O 	0.85401 0.50362 0.82488 -0.27600
H 	H 	0.90220 0.51485 0.83811 0.17400
H 	H 	0.74726 0.80669 0.82151 0.15200
