data_crystal

_cell_length_a 29.54917
_cell_length_b 28.02219
_cell_length_c 34.58430
_cell_angle_alpha 89.95239
_cell_angle_beta  89.94580
_cell_angle_gamma 90.87529

_symmetry_space_group_name_	'P 1'
_symmetry_space_group_name_H-M	'P 1'

loop_
_symmetry_equiv_pos_as_xyz
  x,y,z

loop_
_atom_site_label
_atom_site_type_symbol
_atom_site_fract_x
_atom_site_fract_y
_atom_site_fract_z
_atom_site_charge
Zn	Zn	0.51906 0.51801 0.97153 1.21800
C 	C 	0.58606 0.44528 0.97403 0.33000
O 	O 	0.55226 0.57113 0.94708 -0.47700
O 	O 	0.57162 0.43445 0.93898 -0.45500
O 	O 	0.59893 0.53024 0.90758 -0.50100
C 	C 	0.46503 0.45338 0.92722 0.31500
O 	O 	0.48237 0.46179 0.96131 -0.45600
O 	O 	0.48649 0.46780 0.89602 -0.49900
C 	C 	0.59212 0.56598 0.93115 0.33600
O 	O 	0.45230 0.56124 0.96475 -0.33400
Zn	Zn	0.55138 0.48309 0.89763 1.16800
O 	O 	0.57053 0.48303 0.99220 -0.44600
C 	C 	0.45616 0.56990 0.00142 0.26800
O 	O 	0.49105 0.55152 0.01828 -0.37400
Zn	Zn	0.30578 0.22736 0.97661 1.22000
C 	C 	0.32926 0.24678 0.05572 0.34300
O 	O 	0.25935 0.19105 0.00528 -0.44500
O 	O 	0.28874 0.26353 0.06223 -0.44900
O 	O 	0.21051 0.25310 0.00710 -0.50100
C 	C 	0.32100 0.32727 0.96289 0.33000
O 	O 	0.31101 0.28620 0.94658 -0.47200
O 	O 	0.30761 0.33578 0.99838 -0.49100
C 	C 	0.21846 0.20735 0.01107 0.31000
O 	O 	0.28319 0.18949 0.91832 -0.32500
Zn	Zn	0.25548 0.30214 0.02042 1.17100
O 	O 	0.34512 0.24491 0.02030 -0.44100
C 	C 	0.32027 0.16573 0.92213 0.30400
O 	O 	0.34439 0.17637 0.95212 -0.39100
C 	C 	0.53620 0.01921 0.68778 0.11500
C 	C 	0.57182 0.99820 0.70817 -0.06200
H 	H 	0.59852 0.98041 0.69254 0.06800
C 	C 	0.57288 0.00052 0.74867 0.02600
C 	C 	0.53827 0.02356 0.76870 -0.08200
C 	C 	0.50274 0.04453 0.74839 0.06300
C 	C 	0.50170 0.04238 0.70797 -0.10100
H 	H 	0.47439 0.05884 0.69214 0.06900
N 	N 	0.53526 0.01761 0.64624 -0.18500
C 	C 	0.50906 0.98362 0.62807 0.20600
C 	C 	0.50354 0.98478 0.58763 -0.06600
C 	C 	0.52697 0.01958 0.56586 0.04700
C 	C 	0.55362 0.05419 0.58495 -0.07800
C 	C 	0.55804 0.05209 0.62547 0.19400
C 	C 	0.47306 0.95348 0.56910 0.00900
C 	C 	0.46665 0.95607 0.52921 -0.05700
C 	C 	0.49376 0.98713 0.50630 0.02800
C 	C 	0.52249 0.02078 0.52505 -0.04000
C 	C 	0.54501 0.05707 0.50355 0.01600
C 	C 	0.57334 0.09179 0.56369 0.00900
C 	C 	0.56748 0.09438 0.52374 -0.05800
C 	C 	0.49104 0.98694 0.46519 0.02800
C 	C 	0.51364 0.02320 0.44371 -0.04000
C 	C 	0.54258 0.05662 0.46245 0.01600
O 	O 	0.58365 0.08385 0.64358 -0.20500
O 	O 	0.48855 0.95003 0.64861 -0.19800
H 	H 	0.59179 0.12024 0.57824 0.04300
H 	H 	0.57825 0.12668 0.50913 0.04500
H 	H 	0.45273 0.92835 0.58575 0.04600
H 	H 	0.43889 0.93586 0.51679 0.04700
C 	C 	0.57014 0.08725 0.43956 -0.05800
C 	C 	0.56390 0.08981 0.39964 0.00900
C 	C 	0.53293 0.05903 0.38114 -0.07800
C 	C 	0.50897 0.02464 0.40292 0.04700
C 	C 	0.46808 0.95000 0.44493 -0.05700
C 	C 	0.46169 0.95311 0.40505 0.00900
C 	C 	0.48157 0.99067 0.38387 -0.06700
C 	C 	0.52728 0.06039 0.34071 0.19400
N 	N 	0.49981 0.02743 0.32264 -0.18800
C 	C 	0.47650 0.99337 0.34344 0.20700
C 	C 	0.49780 0.02660 0.28110 0.13100
C 	C 	0.46816 0.05671 0.26133 -0.11500
C 	C 	0.46714 0.05662 0.22079 0.08000
C 	C 	0.49554 0.02622 0.20008 -0.12200
C 	C 	0.52512 0.99613 0.21981 0.09400
C 	C 	0.52621 0.99631 0.26027 -0.10200
O 	O 	0.54891 0.09311 0.32008 -0.20300
O 	O 	0.44952 0.96278 0.32545 -0.20200
H 	H 	0.44633 0.08025 0.27747 0.07300
H 	H 	0.54935 0.97337 0.27562 0.07500
H 	H 	0.59806 0.10717 0.45206 0.04500
H 	H 	0.58460 0.11460 0.38299 0.04300
H 	H 	0.45732 0.91758 0.45936 0.04700
H 	H 	0.44278 0.92501 0.39048 0.04400
H 	H 	0.49493 0.02631 0.16871 0.06300
H 	H 	0.53914 0.02544 0.80003 0.05200
Zn	Zn	0.73355 0.81532 0.99344 1.21900
C 	C 	0.68758 0.81073 0.06708 0.34700
O 	O 	0.79762 0.82959 0.00529 -0.45400
O 	O 	0.69914 0.76572 0.06957 -0.44700
O 	O 	0.79536 0.79968 0.06652 -0.48700
C 	C 	0.70775 0.71697 0.98546 0.30500
O 	O 	0.69275 0.76080 0.98561 -0.45200
O 	O 	0.74418 0.70662 0.00524 -0.49900
C 	C 	0.81299 0.82912 0.04095 0.30100
O 	O 	0.75011 0.81035 0.92658 -0.32500
Zn	Zn	0.76178 0.74282 0.05104 1.17100
O 	O 	0.70669 0.83903 0.04137 -0.44100
C 	C 	0.73011 0.85116 0.92409 0.30500
O 	O 	0.71560 0.86815 0.95649 -0.38700
Zn	Zn	0.22066 0.68883 0.03585 1.22200
C 	C 	0.19647 0.67579 0.11611 0.34500
O 	O 	0.20311 0.75330 0.02031 -0.45800
O 	O 	0.23435 0.69743 0.12623 -0.44900
O 	O 	0.20168 0.78206 0.08176 -0.48800
C 	C 	0.31206 0.68074 0.06070 0.34200
O 	O 	0.27365 0.65737 0.05629 -0.46200
O 	O 	0.31230 0.72552 0.07182 -0.50800
C 	C 	0.18823 0.78406 0.04567 0.30000
O 	O 	0.25100 0.67601 0.97319 -0.32900
Zn	Zn	0.25981 0.75499 0.09552 1.17100
O 	O 	0.18076 0.68007 0.08081 -0.44300
C 	C 	0.21568 0.64858 0.96846 0.30500
O 	O 	0.18822 0.64567 0.99747 -0.39200
C 	C 	0.97408 0.46553 0.31201 0.17200
C 	C 	0.94543 0.43460 0.29112 -0.12700
H 	H 	0.92451 0.40858 0.30633 0.08000
C 	C 	0.94399 0.43742 0.25066 0.09200
C 	C 	0.97110 0.47114 0.23118 -0.12000
C 	C 	0.99966 0.50200 0.25202 0.11900
C 	C 	0.00118 0.49918 0.29240 -0.15700
H 	H 	0.02330 0.52300 0.30862 0.08100
N 	N 	0.97575 0.46288 0.35347 -0.18100
C 	C 	0.00623 0.43333 0.37085 0.19100
C 	C 	0.01327 0.43564 0.41107 -0.09000
C 	C 	0.98897 0.46867 0.43310 0.06800
C 	C 	0.95507 0.49556 0.41533 -0.08000
C 	C 	0.94888 0.49217 0.37506 0.20000
C 	C 	0.04341 0.40486 0.42955 0.00900
C 	C 	0.05094 0.40850 0.46928 -0.05400
C 	C 	0.03122 0.44567 0.49092 -0.00200
C 	C 	0.99796 0.47412 0.47308 -0.01200
C 	C 	0.97240 0.50664 0.49517 0.00600
C 	C 	0.92733 0.52459 0.43803 0.01000
C 	C 	0.93475 0.52864 0.47774 -0.05200
C 	C 	0.04234 0.45347 0.53046 0.02700
C 	C 	0.01679 0.48603 0.55253 -0.05200
C 	C 	0.98365 0.51458 0.53465 0.03900
O 	O 	0.91797 0.51817 0.35788 -0.20100
O 	O 	0.02989 0.40358 0.34966 -0.20600
H 	H 	0.89913 0.54309 0.42520 0.04500
H 	H 	0.90983 0.54684 0.49493 0.04600
H 	H 	0.06012 0.37706 0.41343 0.04200
H 	H 	0.07015 0.38090 0.48322 0.04300
C 	C 	0.96415 0.55195 0.55620 -0.07000
C 	C 	0.97165 0.55564 0.59592 0.03100
C 	C 	0.00149 0.52460 0.61449 -0.09800
C 	C 	0.02562 0.49138 0.59254 0.07300
C 	C 	0.07978 0.43122 0.54802 -0.06500
C 	C 	0.08691 0.43502 0.58780 0.01500
C 	C 	0.05918 0.46413 0.61043 -0.08700
C 	C 	0.00831 0.52680 0.65474 0.19200
N 	N 	0.03822 0.49671 0.67224 -0.18400
C 	C 	0.06499 0.46722 0.65076 0.19900
C 	C 	0.03916 0.49360 0.71370 0.15000
C 	C 	0.06914 0.52257 0.73506 -0.11600
C 	C 	0.06937 0.51984 0.77555 0.07900
C 	C 	0.03972 0.48816 0.79459 -0.10100
C 	C 	0.00975 0.45935 0.77328 0.07000
C 	C 	0.00955 0.46198 0.73288 -0.12800
O 	O 	0.98496 0.55692 0.67583 -0.19000
O 	O 	0.09538 0.44069 0.66808 -0.20300
H 	H 	0.09185 0.54720 0.72021 0.07600
H 	H 	0.98631 0.43977 0.71630 0.08400
H 	H 	0.94509 0.57961 0.54217 0.05100
H 	H 	0.95509 0.58360 0.61198 0.04200
H 	H 	0.10478 0.41304 0.53091 0.04700
H 	H 	0.11492 0.41630 0.60072 0.04200
H 	H 	0.03977 0.48620 0.82593 0.05900
H 	H 	0.96999 0.47331 0.19986 0.06900
Zn	Zn	0.79986 0.25937 0.99300 1.22100
C 	C 	0.80889 0.30081 0.91699 0.34400
O 	O 	0.75484 0.30986 0.99500 -0.44700
O 	O 	0.76527 0.29388 0.91180 -0.45300
O 	O 	0.69890 0.26054 0.97284 -0.50400
C 	C 	0.80597 0.17156 0.95164 0.30300
O 	O 	0.80154 0.19036 0.98615 -0.46800
O 	O 	0.78385 0.18933 0.92229 -0.48700
C 	C 	0.71165 0.30066 0.98952 0.31000
O 	O 	0.78969 0.24555 0.06015 -0.32200
Zn	Zn	0.73357 0.23210 0.93079 1.17000
O 	O 	0.83019 0.27835 0.94472 -0.44400
C 	C 	0.82907 0.26624 0.06357 0.30300
O 	O 	0.84753 0.28077 0.03171 -0.38300
Zn	Zn	0.00613 0.01262 0.01870 1.21400
C 	C 	0.06738 0.93619 0.03591 0.33200
O 	O 	0.95459 0.99975 0.05300 -0.46600
O 	O 	0.08179 0.96331 0.06452 -0.45200
O 	O 	0.98980 0.95483 0.09777 -0.48600
C 	C 	0.07591 0.07327 0.04831 0.34200
O 	O 	0.06315 0.04759 0.01852 -0.46100
O 	O 	0.05743 0.06583 0.08240 -0.51500
C 	C 	0.95394 0.96355 0.07690 0.33200
O 	O 	0.97198 0.08474 0.00196 -0.32200
Zn	Zn	0.03921 0.00163 0.09937 1.16100
O 	O 	0.03171 0.94830 0.01546 -0.43800
C 	C 	0.95855 0.06281 0.97093 0.29100
O 	O 	0.97360 0.01986 0.96696 -0.38800
C 	C 	0.84062 0.13563 0.94507 -0.05200
C 	C 	0.88077 0.14835 0.92584 -0.02500
C 	C 	0.91875 0.11947 0.92895 0.01500
C 	C 	0.91690 0.07785 0.95150 -0.11000
C 	C 	0.87426 0.06100 0.96512 0.12500
C 	C 	0.83666 0.09094 0.96292 -0.06300
H 	H 	0.95077 0.13186 0.91705 0.03500
H 	H 	0.80485 0.08008 0.97617 0.04600
H 	H 	0.88361 0.18233 0.91098 0.04800
N 	N 	0.86947 0.01673 0.98084 -0.21000
H 	H 	0.89594 0.99255 0.98061 0.11700
H 	H 	0.83811 0.00508 0.99156 0.08500
C 	C 	0.97883 0.42748 0.79300 -0.03000
C 	C 	0.95313 0.40102 0.80996 0.01000
C 	C 	0.92279 0.36959 0.83082 -0.02400
C 	C 	0.88360 0.38574 0.84462 -0.07300
C 	C 	0.85610 0.35608 0.86961 0.07900
C 	C 	0.83400 0.33102 0.89100 -0.13100
H 	H 	0.87326 0.42207 0.83867 0.05400
H 	H 	0.93308 0.33324 0.83677 0.04300
C 	C 	0.84643 0.28122 0.10041 -0.10500
C 	C 	0.86215 0.29526 0.13055 0.06900
C 	C 	0.88233 0.31375 0.16551 -0.06300
C 	C 	0.86408 0.35107 0.18351 -0.03200
C 	C 	0.89131 0.38026 0.20903 0.01900
C 	C 	0.91489 0.40576 0.22886 -0.04900
H 	H 	0.83073 0.36331 0.17523 0.04500
H 	H 	0.91545 0.30116 0.17410 0.05200
C 	C 	0.15521 0.81969 0.03403 -0.04900
C 	C 	0.17000 0.86391 0.01963 -0.03000
C 	C 	0.13933 0.90089 0.01499 0.02200
C 	C 	0.09366 0.89413 0.02512 -0.12600
C 	C 	0.07771 0.84772 0.03481 0.12600
C 	C 	0.10896 0.81100 0.04017 -0.06500
H 	H 	0.15171 0.93596 0.00646 0.03700
H 	H 	0.09738 0.77604 0.04979 0.05400
H 	H 	0.20562 0.87039 0.01389 0.03400
N 	N 	0.03275 0.83840 0.03928 -0.20600
H 	H 	0.00864 0.86348 0.03156 0.09800
H 	H 	0.02139 0.80480 0.04859 0.08200
C 	C 	0.20517 0.62660 0.93205 -0.10900
C 	C 	0.19461 0.60742 0.90214 0.06800
C 	C 	0.17994 0.58353 0.86734 -0.06500
C 	C 	0.14975 0.60401 0.84404 -0.03100
C 	C 	0.12283 0.57512 0.81809 0.01500
C 	C 	0.09907 0.55030 0.79785 -0.04500
H 	H 	0.14109 0.64123 0.84809 0.04500
H 	H 	0.18900 0.54646 0.86300 0.05000
C 	C 	0.02754 0.53644 0.23186 -0.07200
C 	C 	0.05069 0.56498 0.21444 0.02300
C 	C 	0.07806 0.59864 0.19289 -0.03600
C 	C 	0.12315 0.59513 0.19255 -0.07000
C 	C 	0.14987 0.62412 0.16648 0.07600
C 	C 	0.17155 0.64796 0.14390 -0.13000
H 	H 	0.13975 0.56854 0.21025 0.05100
H 	H 	0.06152 0.62529 0.17519 0.04100
C 	C 	0.84807 0.86364 0.05295 -0.04600
C 	C 	0.88992 0.84761 0.06632 -0.03000
C 	C 	0.92326 0.88039 0.07808 0.01900
C 	C 	0.91512 0.92960 0.07654 -0.13100
C 	C 	0.87096 0.94540 0.06770 0.13000
C 	C 	0.83845 0.91242 0.05401 -0.06400
H 	H 	0.95602 0.86757 0.08699 0.03400
H 	H 	0.80518 0.92453 0.04562 0.05700
H 	H 	0.89696 0.80979 0.06687 0.03100
N 	N 	0.85904 0.99136 0.07428 -0.18400
H 	H 	0.88037 0.01478 0.08941 0.08300
H 	H 	0.82696 0.00322 0.06644 0.07600
C 	C 	0.60951 0.97963 0.76994 -0.00900
C 	C 	0.63916 0.96278 0.78937 0.00000
C 	C 	0.67325 0.94330 0.81440 -0.02000
C 	C 	0.67153 0.89713 0.82427 -0.06700
C 	C 	0.69447 0.88087 0.85852 0.07200
C 	C 	0.71181 0.86732 0.88803 -0.10600
H 	H 	0.64842 0.87277 0.80946 0.05600
H 	H 	0.69672 0.96757 0.82890 0.04300
C 	C 	0.65646 0.83024 0.09448 -0.12600
C 	C 	0.63094 0.84867 0.11699 0.08000
C 	C 	0.60114 0.87278 0.14330 -0.06900
C 	C 	0.61345 0.91509 0.15817 -0.02900
C 	C 	0.58182 0.94265 0.18029 0.01900
C 	C 	0.55580 0.96665 0.19844 -0.04500
H 	H 	0.64684 0.93017 0.15216 0.04700
H 	H 	0.56781 0.85755 0.14926 0.05300
C 	C 	0.18165 0.17431 0.02300 -0.05200
C 	C 	0.13667 0.18378 0.01305 -0.02600
C 	C 	0.10203 0.15166 0.02318 0.02000
C 	C 	0.11176 0.10975 0.04354 -0.13100
C 	C 	0.15694 0.10070 0.05486 0.12400
C 	C 	0.19156 0.13316 0.04437 -0.06500
H 	H 	0.06761 0.15876 0.01431 0.03300
H 	H 	0.22617 0.12636 0.05290 0.05900
H 	H 	0.12862 0.21550 0.99668 0.03900
N 	N 	0.16737 0.06089 0.07538 -0.20200
H 	H 	0.14242 0.03672 0.08461 0.06800
H 	H 	0.20093 0.05410 0.08286 0.07800
C 	C 	0.46811 0.06949 0.76914 -0.04100
C 	C 	0.43993 0.09053 0.78736 0.00900
C 	C 	0.40744 0.11598 0.81022 -0.03000
C 	C 	0.37986 0.09236 0.83452 -0.06600
C 	C 	0.35671 0.11771 0.86470 0.06800
C 	C 	0.33905 0.13936 0.89060 -0.10900
H 	H 	0.37836 0.05358 0.83428 0.05000
H 	H 	0.40873 0.15477 0.81036 0.04200
C 	C 	0.43745 0.08811 0.20026 -0.04700
C 	C 	0.41304 0.11392 0.18207 0.01200
C 	C 	0.38424 0.14396 0.15919 -0.02900
C 	C 	0.40142 0.18256 0.14130 -0.07100
C 	C 	0.37556 0.20657 0.11198 0.07800
C 	C 	0.35430 0.22561 0.08669 -0.12800
H 	H 	0.43626 0.19382 0.14645 0.05500
H 	H 	0.34936 0.13279 0.15413 0.03800
C 	C 	0.42380 0.42395 0.92424 -0.05100
C 	C 	0.42722 0.37514 0.91634 -0.02600
C 	C 	0.39168 0.34383 0.92592 0.02100
C 	C 	0.35219 0.36114 0.94327 -0.12700
C 	C 	0.34626 0.41108 0.94628 0.12800
C 	C 	0.38275 0.44208 0.93772 -0.06400
H 	H 	0.39607 0.30578 0.92225 0.03300
H 	H 	0.37965 0.48010 0.94272 0.05700
H 	H 	0.45869 0.36096 0.90547 0.03400
N 	N 	0.30558 0.42933 0.95647 -0.20100
H 	H 	0.27664 0.40761 0.95842 0.07000
H 	H 	0.30204 0.46607 0.96039 0.08500
C 	C 	0.42666 0.60414 0.02077 -0.02700
C 	C 	0.40651 0.59256 0.05627 -0.04000
C 	C 	0.37058 0.61950 0.07024 0.03000
C 	C 	0.35451 0.65833 0.04887 -0.13700
C 	C 	0.37670 0.67199 0.01411 0.13900
C 	C 	0.41319 0.64507 0.00078 -0.07000
H 	H 	0.35406 0.60907 0.09700 0.02800
H 	H 	0.42968 0.65468 0.97378 0.05800
H 	H 	0.41706 0.56125 0.07207 0.05100
N 	N 	0.36228 0.70968 0.99278 -0.20600
H 	H 	0.33426 0.72950 0.00094 0.09100
H 	H 	0.37899 0.71930 0.96722 0.09000
C 	C 	0.67777 0.33748 0.99824 -0.05500
C 	C 	0.63139 0.32618 0.99644 -0.03300
C 	C 	0.59966 0.36256 0.99501 0.02100
C 	C 	0.61397 0.41055 0.99484 -0.13100
C 	C 	0.65955 0.42172 0.00407 0.12900
C 	C 	0.69153 0.38508 0.00455 -0.06300
H 	H 	0.56431 0.35349 0.99029 0.03300
H 	H 	0.72703 0.39383 0.00883 0.06300
H 	H 	0.62002 0.28938 0.99399 0.04200
N 	N 	0.67261 0.46709 0.01290 -0.20700
H 	H 	0.64894 0.49397 0.01645 0.10400
H 	H 	0.70663 0.47535 0.01832 0.08400
C 	C 	0.68198 0.67863 0.96525 -0.04600
C 	C 	0.64110 0.68871 0.94654 -0.03000
C 	C 	0.61397 0.65170 0.93188 0.02400
C 	C 	0.62698 0.60395 0.93592 -0.13200
C 	C 	0.67041 0.59389 0.95132 0.12600
C 	C 	0.69737 0.63146 0.96604 -0.07000
H 	H 	0.58154 0.65999 0.91911 0.03200
H 	H 	0.72996 0.62369 0.97874 0.05200
H 	H 	0.62954 0.72511 0.94437 0.05500
N 	N 	0.68644 0.54864 0.95220 -0.20600
H 	H 	0.66790 0.51976 0.94137 0.09600
H 	H 	0.71851 0.54198 0.96353 0.08100
