data_crystal

_cell_length_a 19.90818
_cell_length_b 20.85367
_cell_length_c 44.68922
_cell_angle_alpha 60.58839
_cell_angle_beta  119.15514
_cell_angle_gamma 133.39127

_symmetry_space_group_name_	'P 1'
_symmetry_space_group_name_H-M	'P 1'

loop_
_symmetry_equiv_pos_as_xyz
  x,y,z

loop_
_atom_site_label
_atom_site_type_symbol
_atom_site_fract_x
_atom_site_fract_y
_atom_site_fract_z
_atom_site_charge
C 	C 	0.29811 0.70417 0.11354 0.11900
C 	C 	0.37937 0.75094 0.10180 -0.09100
C 	C 	0.39744 0.70213 0.09760 0.12600
C 	C 	0.32320 0.61387 0.09379 -0.10300
C 	C 	0.24133 0.56517 0.10476 0.12300
C 	C 	0.23139 0.60843 0.11710 -0.07700
H 	H 	0.33422 0.57895 0.08691 0.08900
H 	H 	0.17694 0.56733 0.13122 0.12300
C 	C 	0.28493 0.60813 0.66143 0.11900
C 	C 	0.37810 0.63218 0.67272 -0.10400
C 	C 	0.39224 0.57178 0.67558 0.11200
C 	C 	0.31441 0.48152 0.67531 -0.08500
C 	C 	0.22293 0.45981 0.65956 0.12700
C 	C 	0.20742 0.52297 0.65279 -0.08400
H 	H 	0.32608 0.43271 0.68069 0.09500
H 	H 	0.13713 0.50768 0.63970 0.12700
Co	Co	0.04691 0.04087 0.02556 1.17000
Co	Co	0.13856 0.95739 0.02627 1.18300
C 	C 	0.23562 0.15496 0.01267 0.34900
O 	O 	0.00523 0.11334 0.01919 -0.45000
C 	C 	0.02274 0.20753 0.09056 0.37500
C 	C 	0.23865 0.94406 0.10178 0.36000
O 	O 	0.04271 0.96522 0.17225 -0.28800
O 	O 	0.25313 0.99416 0.06984 -0.33200
O 	O 	0.18621 0.93943 0.11380 -0.35300
O 	O 	0.05293 0.18228 0.08067 -0.38400
O 	O 	0.06559 0.95946 0.04723 -0.72400
O 	O 	0.19609 0.09208 0.99774 -0.42600
O 	O 	0.18994 0.14278 0.03060 -0.38600
Co	Co	0.06740 0.00824 0.54022 1.16300
Co	Co	0.13014 0.89405 0.54598 1.18700
C 	C 	0.25535 0.09375 0.53434 0.36500
O 	O 	0.05386 0.10146 0.53535 -0.44000
C 	C 	0.00632 0.14790 0.60842 0.35100
C 	C 	0.21420 0.86915 0.62181 0.34000
O 	O 	0.23570 0.92462 0.59138 -0.34200
O 	O 	0.15747 0.86125 0.63312 -0.35800
O 	O 	0.04447 0.12999 0.59868 -0.38800
O 	O 	0.06419 0.91370 0.56230 -0.73100
O 	O 	0.20860 0.02891 0.51923 -0.43000
O 	O 	0.21374 0.09071 0.55104 -0.40000
C 	C 	0.05229 0.07108 0.90681 -0.02400
C 	C 	0.05648 0.07416 0.87551 -0.10100
C 	C 	0.00713 0.99167 0.77002 0.09600
C 	C 	0.00726 0.06080 0.76843 -0.09400
C 	C 	0.00316 0.06348 0.79834 -0.05200
H 	H 	0.10758 0.12953 0.91815 0.05300
H 	H 	0.11379 0.13556 0.86281 0.07000
H 	H 	0.00764 0.11094 0.74377 0.09300
H 	H 	0.00126 0.11610 0.79639 0.06400
C 	C 	0.11911 0.06395 0.23824 -0.07500
C 	C 	0.11600 0.05850 0.27025 -0.08000
C 	C 	0.01857 0.03132 0.35013 -0.08100
C 	C 	0.02646 0.03461 0.31964 -0.07600
H 	H 	0.17020 0.12884 0.22378 0.09000
H 	H 	0.16665 0.11847 0.28055 0.06000
H 	H 	0.01111 0.07928 0.34903 0.06500
H 	H 	0.02419 0.08464 0.29535 0.05700
C 	C 	0.05943 0.21724 0.65455 -0.06300
C 	C 	0.06785 0.22812 0.62264 -0.14500
C 	C 	0.11547 0.31596 0.60068 0.37700
C 	C 	0.15400 0.39160 0.61057 -0.11400
C 	C 	0.15064 0.38121 0.64347 -0.04200
C 	C 	0.10085 0.29323 0.66498 0.30400
F 	F 	0.09631 0.28163 0.69677 -0.43300
H 	H 	0.01924 0.14970 0.67098 0.07100
H 	H 	0.19179 0.45908 0.59362 0.14300
F 	F 	0.12297 0.32797 0.56944 -0.42700
C 	C 	0.33501 0.76917 0.64023 -0.12300
C 	C 	0.27040 0.67645 0.65483 -0.04800
C 	C 	0.19430 0.64996 0.66398 0.31800
C 	C 	0.17966 0.71450 0.65604 -0.05600
C 	C 	0.24338 0.80675 0.64058 -0.12800
C 	C 	0.32465 0.83403 0.63513 0.35800
F 	F 	0.39089 0.92346 0.62264 -0.41000
H 	H 	0.39285 0.79119 0.63233 0.11200
H 	H 	0.11709 0.69206 0.66076 0.11200
F 	F 	0.13486 0.56234 0.68056 -0.40600
C 	C 	0.05092 0.35671 0.07019 -0.04500
C 	C 	0.08191 0.30123 0.09339 -0.15400
C 	C 	0.15434 0.32679 0.12395 0.36500
C 	C 	0.19737 0.40839 0.13055 -0.13400
C 	C 	0.17114 0.46712 0.10603 -0.04900
C 	C 	0.09475 0.43885 0.07659 0.30100
F 	F 	0.06676 0.49357 0.05304 -0.40500
H 	H 	0.25587 0.42917 0.15349 0.11400
C 	C 	0.36535 0.84232 0.13005 -0.12600
C 	C 	0.28590 0.75585 0.12297 -0.04400
C 	C 	0.19494 0.72574 0.12076 0.31400
C 	C 	0.18575 0.78348 0.12353 -0.06500
C 	C 	0.26044 0.87655 0.11995 -0.13800
C 	C 	0.35212 0.90473 0.12563 0.37100
F 	F 	0.42793 0.99253 0.12617 -0.40900
H 	H 	0.43697 0.86241 0.13770 0.12300
H 	H 	0.11755 0.75809 0.12442 0.10700
F 	F 	0.11527 0.64516 0.11302 -0.42900
C 	C 	0.42590 0.16364 0.55530 -0.06800
C 	C 	0.35189 0.17071 0.53063 -0.14700
C 	C 	0.36459 0.22883 0.49683 0.36600
C 	C 	0.44204 0.26575 0.48587 -0.13100
C 	C 	0.51093 0.25011 0.50938 -0.06100
C 	C 	0.50439 0.20171 0.54461 0.30800
H 	H 	0.41817 0.12114 0.58185 0.10500
H 	H 	0.44919 0.30739 0.45919 0.11000
F 	F 	0.29596 0.24071 0.47329 -0.43800
C 	C 	0.36853 0.27569 0.98373 -0.05800
C 	C 	0.33621 0.22884 0.01480 -0.15900
C 	C 	0.40070 0.22872 0.04764 0.36400
C 	C 	0.48921 0.25735 0.04920 -0.12600
C 	C 	0.51504 0.29017 0.01791 -0.07600
C 	C 	0.45707 0.30447 0.98520 0.31600
F 	F 	0.48489 0.34287 0.95485 -0.42500
H 	H 	0.32069 0.28028 0.95824 0.09300
F 	F 	0.37314 0.19048 0.07803 -0.43800
C 	C 	0.70051 0.27479 0.02557 0.12100
C 	C 	0.78370 0.35332 0.03760 -0.08700
C 	C 	0.77744 0.41413 0.03953 0.12000
C 	C 	0.68917 0.39660 0.02986 -0.11100
C 	C 	0.60645 0.31691 0.01981 0.13200
C 	C 	0.61177 0.25732 0.01637 -0.10700
H 	H 	0.68464 0.44367 0.03156 0.09100
H 	H 	0.54703 0.19596 0.00790 0.08200
C 	C 	0.72321 0.30840 0.49648 0.11700
C 	C 	0.63029 0.25804 0.49976 -0.09800
C 	C 	0.59992 0.30231 0.49958 0.11800
C 	C 	0.66119 0.39599 0.49568 -0.10400
C 	C 	0.75700 0.44337 0.49818 0.12600
C 	C 	0.78608 0.40235 0.49491 -0.09900
H 	H 	0.58331 0.18469 0.50373 0.08700
H 	H 	0.63787 0.42914 0.49652 0.10100
H 	H 	0.43155 0.82386 0.09818 0.10800
H 	H 	0.43919 0.69920 0.67714 0.08500
C 	C 	0.77817 0.81887 0.14323 0.34900
C 	C 	0.71759 0.77200 0.62820 0.34800
O 	O 	0.78606 0.76953 0.63203 -0.35800
C 	C 	0.55186 0.63742 0.62782 -0.06400
C 	C 	0.64194 0.69531 0.64708 -0.13300
C 	C 	0.65035 0.69882 0.67948 0.35400
C 	C 	0.56870 0.65594 0.68956 -0.12400
C 	C 	0.47846 0.60778 0.66769 -0.05800
C 	C 	0.47039 0.59606 0.63732 0.30800
F 	F 	0.38382 0.54992 0.61571 -0.43300
H 	H 	0.54473 0.63243 0.60327 0.10800
H 	H 	0.57575 0.66274 0.71364 0.10800
F 	F 	0.73758 0.74972 0.69974 -0.43900
C 	C 	0.53728 0.74987 0.08545 -0.11000
C 	C 	0.49496 0.72963 0.10925 -0.04700
C 	C 	0.53916 0.72013 0.14548 0.30900
C 	C 	0.62769 0.73675 0.15741 -0.06400
C 	C 	0.67440 0.76567 0.13326 -0.14100
C 	C 	0.62625 0.76670 0.09744 0.37100
F 	F 	0.66881 0.79086 0.07387 -0.42900
H 	H 	0.50150 0.75303 0.05769 0.12300
H 	H 	0.66310 0.73324 0.18522 0.09700
F 	F 	0.49567 0.69410 0.16914 -0.43100
C 	C 	0.69589 0.19285 0.47921 -0.12200
C 	C 	0.75644 0.26103 0.49767 -0.06100
C 	C 	0.71711 0.13432 0.48634 0.34700
F 	F 	0.65319 0.06273 0.47129 -0.44100
H 	H 	0.62997 0.18207 0.46081 0.09900
F 	F 	0.57431 0.19204 0.56847 -0.42500
C 	C 	0.64864 0.11523 0.04375 -0.11100
C 	C 	0.70531 0.20666 0.02589 -0.06700
C 	C 	0.66152 0.05296 0.04811 0.28100
F 	F 	0.60605 0.96480 0.06542 -0.39600
H 	H 	0.59685 0.09310 0.05531 0.08400
H 	H 	0.53653 0.25144 0.07466 0.11100
O 	O 	0.70596 0.83368 0.60293 -0.36900
F 	F 	0.77667 0.61022 0.46524 -0.43100
C 	C 	0.73476 0.08258 0.03629 -0.10800
Co	Co	0.04551 0.89429 0.08790 1.19700
O 	O 	0.76475 0.97619 0.08427 -0.27700
O 	O 	0.08681 0.82393 0.05307 -0.40000
Co	Co	0.02999 0.84930 0.60105 1.19200
O 	O 	0.75315 0.99869 0.54902 -0.29300
C 	C 	0.76977 0.23338 0.01001 0.30300
O 	O 	0.01758 0.91790 0.98599 -0.37100
C 	C 	0.77234 0.02873 0.05207 0.26500
O 	O 	0.02147 0.99542 0.48791 -0.31000
O 	O 	0.06037 0.75917 0.57349 -0.38800
C 	C 	0.01446 0.93850 0.47849 0.30700
O 	O 	0.01851 0.87052 0.50211 -0.37100
C 	C 	0.01303 0.95638 0.44236 -0.03900
C 	C 	0.78489 0.17173 0.01542 -0.08600
C 	C 	0.05186 0.98795 0.22358 0.09100
C 	C 	0.04579 0.97681 0.28819 0.07100
C 	C 	0.00120 0.92907 0.83208 -0.00000
C 	C 	0.00494 0.92631 0.80210 -0.04300
C 	C 	0.03688 0.97318 0.32058 0.06100
C 	C 	0.80188 0.14698 0.51035 -0.11700
C 	C 	0.03096 0.00269 0.18484 0.15000
C 	C 	0.80906 0.07023 0.52797 0.28200
H 	H 	0.00395 0.87214 0.80368 0.07900
C 	C 	0.02060 0.96644 0.38179 0.07700
C 	C 	0.01531 0.96389 0.41396 0.05600
F 	F 	0.18185 0.27174 0.14761 -0.44500
C 	C 	0.03872 0.90829 0.35234 -0.02700
C 	C 	0.03052 0.90491 0.38269 -0.03100
H 	H 	0.04721 0.86086 0.35365 0.06400
H 	H 	0.03250 0.85470 0.40697 0.06900
Co	Co	0.80979 0.96896 0.60257 1.18800
O 	O 	0.00911 0.06007 0.16342 -0.34200
C 	C 	0.00108 0.76185 0.05883 0.36900
O 	O 	0.00081 0.84752 0.13116 -0.42200
F 	F 	0.81972 0.31968 0.99026 -0.40700
O 	O 	0.82170 0.81274 0.13123 -0.34800
C 	C 	0.99879 0.99690 0.83027 0.03600
H 	H 	0.99906 0.87789 0.85655 0.05500
C 	C 	0.99514 0.98040 0.73752 0.04700
H 	H 	0.99201 0.33558 0.04739 0.09200
C 	C 	0.99760 0.97613 0.96317 0.34300
O 	O 	0.82642 0.88634 0.15713 -0.38800
C 	C 	0.98943 0.99681 0.86167 0.08500
O 	O 	0.99089 0.02102 0.97390 -0.41700
O 	O 	0.98842 0.95046 0.66298 -0.36600
C 	C 	0.98169 0.99043 0.92489 -0.02700
C 	C 	0.82649 0.52038 0.51477 -0.05200
C 	C 	0.86250 0.49797 0.05065 -0.04200
F 	F 	0.90599 0.56685 0.99585 -0.39400
H 	H 	0.83995 0.44897 0.10246 0.11000
C 	C 	0.82098 0.59414 0.49977 0.30200
C 	C 	0.97750 0.96996 0.70937 -0.03800
C 	C 	0.87289 0.50846 0.08170 -0.12200
C 	C 	0.91002 0.57557 0.02496 0.31200
C 	C 	0.85533 0.64749 0.52085 -0.06900
H 	H 	0.84925 0.70324 0.50910 0.09800
Co	Co	0.95883 0.06564 0.06212 1.16300
Co	Co	0.96644 0.04431 0.56559 1.15900
O 	O 	0.91387 0.10739 0.59917 -0.43400
C 	C 	0.87496 0.50647 0.55024 -0.12700
H 	H 	0.87913 0.44944 0.56227 0.13200
C 	C 	0.95175 0.66124 0.02712 -0.05100
H 	H 	0.98396 0.72051 0.00617 0.08900
O 	O 	0.93713 0.15094 0.09599 -0.43000
C 	C 	0.90333 0.63330 0.55630 -0.14400
C 	C 	0.91182 0.56162 0.57102 0.36700
F 	F 	0.95960 0.54798 0.60515 -0.42500
C 	C 	0.91407 0.59403 0.08390 0.38700
F 	F 	0.91964 0.60271 0.11337 -0.43100
O 	O 	0.85515 0.93243 0.65729 -0.35700
C 	C 	0.94182 0.95529 0.67447 0.31200
C 	C 	0.95032 0.67045 0.05584 -0.14600
H 	H 	0.85229 0.36615 0.04588 0.11900
H 	H 	0.85845 0.44203 0.49320 0.11100
Co	Co	0.95868 0.91946 0.12495 1.18900
Co	Co	0.88320 0.01804 0.12560 1.13900
O 	O 	0.93404 0.99732 0.10189 -0.70300
O 	O 	0.97060 0.95788 0.06972 -0.54000
O 	O 	0.82714 0.04583 0.03649 -0.36800
O 	O 	0.97007 0.77453 0.07440 -0.36400
Co	Co	0.92104 0.88420 0.62318 1.18700
C 	C 	0.97061 0.70898 0.57302 0.35200
O 	O 	0.89225 0.95631 0.59235 -0.72800
O 	O 	0.97945 0.81781 0.64006 -0.43900
O 	O 	0.96486 0.92617 0.57461 -0.54600
O 	O 	0.87411 0.07543 0.52390 -0.36400
O 	O 	0.94136 0.72807 0.58641 -0.37400
C 	C 	0.91499 0.91833 0.87840 -0.05700
C 	C 	0.91125 0.91516 0.90977 0.02400
H 	H 	0.86141 0.85885 0.86768 0.07200
H 	H 	0.85646 0.85239 0.92333 0.05800
C 	C 	0.98289 0.89902 0.27490 -0.03700
C 	C 	0.98639 0.90447 0.24294 -0.03700
H 	H 	0.92907 0.83516 0.28858 0.05900
H 	H 	0.93380 0.84528 0.23206 0.06500
C 	C 	0.84436 0.27709 0.51992 0.31600
C 	C 	0.86885 0.22373 0.52426 -0.08700
H 	H 	0.93684 0.23734 0.54104 0.12000
F 	F 	0.90243 0.33897 0.53952 -0.43600
H 	H 	0.83957 0.19493 0.00517 0.09500
