data_crystal

_cell_length_a 18.23864
_cell_length_b 17.27449
_cell_length_c 46.63158
_cell_angle_alpha 90.69435
_cell_angle_beta  90.98219
_cell_angle_gamma 110.79128

_symmetry_space_group_name_	'P 1'
_symmetry_space_group_name_H-M	'P 1'

loop_
_symmetry_equiv_pos_as_xyz
  x,y,z

loop_
_atom_site_label
_atom_site_type_symbol
_atom_site_fract_x
_atom_site_fract_y
_atom_site_fract_z
_atom_site_charge
C 	C 	0.50581 0.27561 0.70300 0.29300
O 	O 	0.08773 0.87459 0.75295 -0.69500
Ni	Ni	0.08906 0.96444 0.78121 1.10100
O 	O 	0.16568 0.81021 0.70869 -0.39300
Ni	Ni	0.19689 0.89031 0.74440 1.07000
O 	O 	0.19808 0.99380 0.72371 -0.40800
O 	O 	0.16261 0.94513 0.81158 -0.38000
O 	O 	0.01799 0.98193 0.74978 -0.70200
O 	O 	0.06345 0.04661 0.80796 -0.36100
H 	H 	0.06002 0.81894 0.76058 0.15300
H 	H 	0.03590 0.03995 0.74331 0.15200
C 	C 	0.21008 0.06314 0.73845 0.26300
C 	C 	0.09908 0.79229 0.69418 0.29200
C 	C 	0.23458 0.95245 0.80509 0.28000
C 	C 	0.98973 0.03829 0.81192 0.26800
O 	O 	0.18066 0.06161 0.76445 -0.36600
O 	O 	0.25658 0.96273 0.77823 -0.40700
Ni	Ni	0.37098 0.75605 0.41306 1.09900
O 	O 	0.34600 0.67651 0.37803 -0.69800
Ni	Ni	0.23498 0.67036 0.36938 1.09700
O 	O 	0.46681 0.73161 0.42725 -0.36800
O 	O 	0.44607 0.60126 0.41092 -0.39900
O 	O 	0.44627 0.85156 0.39014 -0.36600
Ni	Ni	0.33971 0.56342 0.38806 1.06600
O 	O 	0.36573 0.93420 0.41783 -0.39400
O 	O 	0.28105 0.56781 0.42456 -0.41900
O 	O 	0.20866 0.58262 0.33739 -0.37800
O 	O 	0.26543 0.75662 0.40181 -0.71300
O 	O 	0.38721 0.83646 0.44649 -0.38100
O 	O 	0.13027 0.68705 0.36204 -0.35800
O 	O 	0.19097 0.82667 0.35716 -0.40700
Ni	Ni	0.27934 0.86794 0.38881 1.06500
H 	H 	0.38062 0.69813 0.36162 0.15700
H 	H 	0.22940 0.74176 0.41810 0.15500
C 	C 	0.21064 0.57265 0.42363 0.27000
O 	O 	0.35827 0.86984 0.35809 -0.41200
C 	C 	0.46177 0.65559 0.43223 0.28600
C 	C 	0.21468 0.51033 0.34200 0.28200
C 	C 	0.42973 0.87390 0.36476 0.29400
C 	C 	0.12639 0.76141 0.35991 0.26800
C 	C 	0.37837 0.90846 0.44354 0.27400
O 	O 	0.17826 0.58203 0.39896 -0.36000
O 	O 	0.23737 0.49407 0.36748 -0.40600
Ni	Ni	0.36320 0.66485 0.13097 1.09900
O 	O 	0.26687 0.63004 0.10342 -0.69600
Ni	Ni	0.19622 0.68001 0.12282 1.09900
O 	O 	0.41910 0.60301 0.10698 -0.36000
O 	O 	0.31166 0.48452 0.10442 -0.40300
O 	O 	0.40714 0.76143 0.10369 -0.38100
Ni	Ni	0.21053 0.51164 0.09796 1.07000
O 	O 	0.41118 0.77576 0.18997 -0.40000
O 	O 	0.18762 0.49497 0.14049 -0.40600
O 	O 	0.11261 0.65405 0.09117 -0.37400
O 	O 	0.28511 0.70055 0.15270 -0.69800
O 	O 	0.46317 0.71057 0.15714 -0.36300
O 	O 	0.14644 0.75590 0.14266 -0.36900
O 	O 	0.26433 0.86006 0.14349 -0.40800
Ni	Ni	0.33760 0.81493 0.16657 1.08500
H 	H 	0.28064 0.65538 0.08440 0.14900
H 	H 	0.26665 0.66390 0.16926 0.16200
C 	C 	0.13024 0.51302 0.15173 0.28800
O 	O 	0.42138 0.86313 0.13668 -0.38600
C 	C 	0.37887 0.53220 0.09401 0.27500
C 	C 	0.09308 0.58345 0.07668 0.27500
C 	C 	0.41221 0.83717 0.10995 0.28400
C 	C 	0.18953 0.83305 0.14900 0.28100
C 	C 	0.47234 0.76606 0.17816 0.28800
O 	O 	0.12058 0.58342 0.14593 -0.36200
O 	O 	0.10297 0.51839 0.08840 -0.40100
O 	O 	0.05234 0.19776 0.25137 -0.36900
O 	O 	0.11045 0.07154 0.24296 -0.40000
O 	O 	0.02644 0.07825 0.20685 -0.35800
Ni	Ni	0.04809 0.02831 0.27909 1.06300
O 	O 	0.06033 0.14269 0.29501 -0.41600
C 	C 	0.07265 0.20721 0.27869 0.29000
C 	C 	0.07975 0.04959 0.21678 0.26000
C 	C 	0.06865 0.44845 0.16722 -0.06200
C 	C 	0.05945 0.45877 0.19670 -0.00700
C 	C 	0.00513 0.39508 0.21211 0.00300
C 	C 	0.95757 0.32154 0.19769 -0.06100
C 	C 	0.96152 0.31531 0.16781 -0.00100
C 	C 	0.01908 0.37591 0.15275 0.00200
H 	H 	0.09638 0.51499 0.20781 0.04200
H 	H 	0.92391 0.25957 0.15658 0.04900
C 	C 	0.03019 0.36000 0.12297 0.07200
N 	N 	0.03857 0.34594 0.09917 -0.13200
N 	N 	0.46851 0.97683 0.18487 -0.13000
C 	C 	0.10720 0.99463 0.19862 -0.05900
C 	C 	0.17792 0.98426 0.20619 -0.00800
C 	C 	0.20085 0.92533 0.19195 0.00700
C 	C 	0.15834 0.88346 0.16737 -0.07700
C 	C 	0.08765 0.89316 0.15963 -0.00100
C 	C 	0.06009 0.94580 0.17574 -0.00900
H 	H 	0.21337 0.01934 0.22413 0.03400
H 	H 	0.05349 0.85886 0.14130 0.04800
C 	C 	0.98172 0.94482 0.16978 0.09400
C 	C 	0.26256 0.90179 0.20457 0.02800
N 	N 	0.91888 0.94377 0.16500 -0.11100
N 	N 	0.31161 0.88286 0.21496 -0.15600
H 	H 	0.47506 0.80789 0.31912 0.02500
C 	C 	0.10221 0.29074 0.29188 -0.07300
C 	C 	0.06615 0.30638 0.31647 -0.00800
C 	C 	0.09949 0.38098 0.33188 0.00600
C 	C 	0.17060 0.44023 0.32298 -0.06100
C 	C 	0.20348 0.42749 0.29721 -0.01800
C 	C 	0.16946 0.35314 0.28151 0.00700
H 	H 	0.01280 0.25972 0.32388 0.02900
H 	H 	0.25704 0.47410 0.28993 0.03400
C 	C 	0.20515 0.34051 0.25530 0.08100
C 	C 	0.06064 0.39622 0.35693 0.09000
N 	N 	0.23368 0.33041 0.23428 -0.10700
N 	N 	0.02956 0.40845 0.37699 -0.10600
C 	C 	0.05048 0.76905 0.35239 -0.05900
C 	C 	0.01814 0.81105 0.37137 -0.02800
C 	C 	0.96278 0.84410 0.36130 0.01400
C 	C 	0.94297 0.83867 0.33182 -0.06700
C 	C 	0.96251 0.78221 0.31450 -0.01400
C 	C 	0.01747 0.74835 0.32449 -0.00400
H 	H 	0.03967 0.82256 0.39342 0.02500
C 	C 	0.04286 0.69656 0.30552 0.08300
C 	C 	0.93222 0.89027 0.38074 0.08000
N 	N 	0.06320 0.65502 0.29034 -0.10900
N 	N 	0.90772 0.92730 0.39632 -0.10900
C 	C 	0.43422 0.15447 0.55712 -0.05300
C 	C 	0.44985 0.05957 0.51931 0.00100
C 	C 	0.37857 0.05153 0.50480 -0.04100
C 	C 	0.35847 0.00786 0.47866 -0.03200
C 	C 	0.40737 0.96950 0.46703 -0.04700
C 	C 	0.47883 0.97859 0.48082 -0.00700
H 	H 	0.42232 0.22836 0.59283 0.04100
H 	H 	0.39594 0.17440 0.54355 0.04100
H 	H 	0.33593 0.07322 0.51454 0.03800
H 	H 	0.30248 0.99971 0.46832 0.03400
H 	H 	0.51670 0.94891 0.47166 0.05300
C 	C 	0.04775 0.64726 0.49353 -0.02600
C 	C 	0.07973 0.58980 0.48330 -0.00100
C 	C 	0.07259 0.51845 0.49935 0.02000
C 	C 	0.11812 0.47043 0.49173 -0.05800
C 	C 	0.16213 0.48763 0.46680 0.01100
C 	C 	0.16280 0.55366 0.44947 -0.07200
C 	C 	0.12130 0.60438 0.45769 -0.01300
H 	H 	0.05531 0.70332 0.48183 0.03200
H 	H 	0.12337 0.42318 0.50573 0.04500
H 	H 	0.19637 0.44995 0.46111 0.03400
H 	H 	0.12285 0.65627 0.44456 0.02300
C 	C 	0.48860 0.48231 0.58712 -0.00300
C 	C 	0.47102 0.50049 0.55929 -0.05400
C 	C 	0.51154 0.57918 0.54789 0.00100
C 	C 	0.53422 0.67975 0.50941 0.00900
C 	C 	0.50444 0.59648 0.51841 0.00600
C 	C 	0.47308 0.53271 0.49750 -0.05400
C 	C 	0.46218 0.55206 0.46910 0.00500
C 	C 	0.48536 0.63492 0.46077 -0.07400
C 	C 	0.52366 0.69847 0.48080 -0.01600
H 	H 	0.46086 0.42006 0.59492 0.04000
H 	H 	0.42457 0.45422 0.54717 0.04200
H 	H 	0.45990 0.46850 0.50275 0.04000
H 	H 	0.43475 0.50240 0.45365 0.02800
H 	H 	0.54455 0.76253 0.47420 0.05300
C 	C 	0.27615 0.13751 0.73037 -0.05900
C 	C 	0.33525 0.17665 0.75098 -0.01500
C 	C 	0.40961 0.22793 0.74244 0.00500
C 	C 	0.42491 0.24093 0.71304 -0.06500
C 	C 	0.36308 0.21097 0.69281 -0.01100
C 	C 	0.28860 0.15959 0.70135 0.00100
H 	H 	0.32501 0.16264 0.77351 0.05700
H 	H 	0.37394 0.22424 0.67027 0.05100
C 	C 	0.22552 0.12920 0.68026 0.07600
C 	C 	0.47020 0.26600 0.76390 0.08300
N 	N 	0.17493 0.10481 0.66338 -0.11300
N 	N 	0.51880 0.29654 0.78107 -0.13300
C 	C 	0.09788 0.75500 0.63270 0.08800
N 	N 	0.13686 0.80296 0.61704 -0.10900
C 	C 	0.02362 0.61707 0.00301 -0.06100
C 	C 	0.06812 0.62892 0.02842 0.00500
C 	C 	0.04411 0.57193 0.05056 -0.08100
C 	C 	0.97298 0.50489 0.04785 -0.00600
H 	H 	0.04056 0.66503 0.98717 0.04600
H 	H 	0.12142 0.68273 0.03093 0.02500
H 	H 	0.95284 0.46282 0.06552 0.05000
C 	C 	0.42978 0.89789 0.08688 -0.07200
C 	C 	0.38178 0.88088 0.06212 0.00400
C 	C 	0.40217 0.93300 0.03863 -0.03900
C 	C 	0.47071 0.00477 0.03979 -0.00300
C 	C 	0.52068 0.02014 0.06451 -0.00200
C 	C 	0.49839 0.96831 0.08828 0.00300
C 	C 	0.49471 0.05742 0.01580 0.00700
C 	C 	0.44274 0.05527 0.99273 -0.05500
C 	C 	0.47131 0.09822 0.96768 0.00500
H 	H 	0.32959 0.82551 0.06073 0.01800
H 	H 	0.36729 0.91416 0.01909 0.04200
H 	H 	0.53644 0.98030 0.10722 0.05100
H 	H 	0.38022 0.02336 0.99442 0.04100
H 	H 	0.43158 0.09278 0.94959 0.03900
C 	C 	0.44305 0.46038 0.97949 0.00500
C 	C 	0.49596 0.52426 0.96330 0.00900
C 	C 	0.53000 0.60434 0.97516 -0.03900
C 	C 	0.51219 0.62174 0.00289 -0.04100
C 	C 	0.46377 0.55834 0.01989 0.01000
C 	C 	0.43186 0.47611 0.00882 0.00300
C 	C 	0.39357 0.41153 0.02769 -0.05300
C 	C 	0.37817 0.42983 0.05571 -0.00400
C 	C 	0.40339 0.51217 0.06576 -0.08200
C 	C 	0.44801 0.57604 0.04805 -0.02200
H 	H 	0.56948 0.65371 0.96268 0.04100
H 	H 	0.53749 0.68453 0.01141 0.04400
H 	H 	0.34704 0.37976 0.06970 0.03500
H 	H 	0.46930 0.63963 0.05600 0.05000
C 	C 	0.94474 0.03568 0.87187 0.06800
N 	N 	0.95375 0.98895 0.88786 -0.10000
C 	C 	0.44066 0.05962 0.85625 -0.08400
C 	C 	0.37301 0.07536 0.86370 -0.00100
C 	C 	0.30117 0.03333 0.84956 -0.01000
C 	C 	0.29656 0.97359 0.82788 -0.05000
C 	C 	0.36138 0.94900 0.82384 -0.02200
C 	C 	0.43381 0.99279 0.83739 0.02100
H 	H 	0.37733 0.12384 0.87938 0.04500
H 	H 	0.35711 0.90021 0.80831 0.03100
C 	C 	0.50142 0.97167 0.83051 0.07600
C 	C 	0.23351 0.05381 0.85691 0.09100
N 	N 	0.17945 0.07039 0.86289 -0.10600
Ni	Ni	0.58659 0.29206 0.88777 1.09800
O 	O 	0.62692 0.36143 0.85208 -0.69700
Ni	Ni	0.73082 0.34766 0.84822 1.10200
O 	O 	0.49281 0.32914 0.88902 -0.37700
O 	O 	0.53989 0.46583 0.87712 -0.39300
O 	O 	0.53198 0.19916 0.85904 -0.39700
Ni	Ni	0.64462 0.47981 0.85610 1.07000
O 	O 	0.65030 0.17343 0.92998 -0.41600
O 	O 	0.70546 0.48805 0.89391 -0.41200
O 	O 	0.76402 0.41365 0.81175 -0.37000
O 	O 	0.69296 0.28715 0.88550 -0.70900
O 	O 	0.54284 0.21352 0.92131 -0.38700
O 	O 	0.82162 0.30436 0.84505 -0.36400
O 	O 	0.73569 0.17154 0.84934 -0.41000
Ni	Ni	0.68446 0.17201 0.88881 1.07200
H 	H 	0.59356 0.33796 0.83488 0.17000
H 	H 	0.72468 0.31763 0.90218 0.15500
C 	C 	0.77361 0.47763 0.89493 0.27400
O 	O 	0.57345 0.09678 0.87521 -0.39400
C 	C 	0.50531 0.40698 0.89547 0.27800
C 	C 	0.76049 0.48832 0.81020 0.27600
C 	C 	0.51807 0.12130 0.86452 0.30700
C 	C 	0.80708 0.22403 0.84457 0.26600
C 	C 	0.58344 0.18057 0.93800 0.28500
O 	O 	0.79978 0.44931 0.87234 -0.36300
O 	O 	0.74574 0.52449 0.83343 -0.39900
Ni	Ni	0.60194 0.37686 0.65762 1.09900
O 	O 	0.67254 0.39229 0.62259 -0.69900
Ni	Ni	0.75132 0.34174 0.63520 1.09500
O 	O 	0.54187 0.44912 0.64223 -0.36300
O 	O 	0.65622 0.55128 0.63343 -0.40500
O 	O 	0.51982 0.28058 0.63603 -0.38200
Ni	Ni	0.72592 0.50485 0.60946 1.07200
O 	O 	0.55605 0.23945 0.71046 -0.40800
O 	O 	0.81443 0.55203 0.63948 -0.39300
O 	O 	0.82512 0.36815 0.60089 -0.38000
O 	O 	0.67969 0.32445 0.66994 -0.69800
O 	O 	0.53081 0.35048 0.69218 -0.37400
O 	O 	0.80880 0.26690 0.65071 -0.36200
O 	O 	0.69296 0.16088 0.65702 -0.41600
Ni	Ni	0.62634 0.20987 0.68213 1.06900
H 	H 	0.64189 0.35900 0.60611 0.14700
H 	H 	0.71014 0.35673 0.68663 0.16100
C 	C 	0.86098 0.51454 0.64904 0.28900
O 	O 	0.53854 0.16568 0.65199 -0.39200
C 	C 	0.58010 0.51886 0.62963 0.28100
C 	C 	0.84306 0.43716 0.58602 0.28100
C 	C 	0.52972 0.21051 0.63068 0.26900
C 	C 	0.77001 0.19036 0.65842 0.26500
O 	O 	0.83153 0.43788 0.65787 -0.37600
O 	O 	0.78931 0.46990 0.58007 -0.41800
Ni	Ni	0.03032 0.90677 0.71906 1.10200
O 	O 	0.07168 0.85054 0.68776 -0.36200
O 	O 	0.93500 0.79898 0.72374 -0.36300
O 	O 	0.86388 0.91404 0.71882 -0.39900
O 	O 	0.96758 0.94221 0.68867 -0.35500
O 	O 	0.93281 0.97052 0.80317 -0.39500
Ni	Ni	0.90734 0.94313 0.75983 1.07100
O 	O 	0.90068 0.82584 0.76861 -0.40800
C 	C 	0.90400 0.77313 0.74869 0.28800
C 	C 	0.90248 0.95289 0.69637 0.29600
Ni	Ni	0.95528 0.10288 0.23562 1.11000
O 	O 	0.88820 0.12256 0.26821 -0.69700
Ni	Ni	0.86103 0.01126 0.28666 1.09500
O 	O 	0.93340 0.17879 0.20619 -0.36800
O 	O 	0.85862 0.23901 0.22985 -0.39400
Ni	Ni	0.79303 0.13270 0.25216 1.06900
O 	O 	0.80087 0.04575 0.22367 -0.44200
O 	O 	0.77173 0.01566 0.31166 -0.38400
O 	O 	0.94679 0.00736 0.26021 -0.72000
O 	O 	0.86593 0.90879 0.30759 -0.35200
O 	O 	0.99595 0.98007 0.31740 -0.39900
H 	H 	0.91605 0.16879 0.28166 0.16300
H 	H 	0.93056 0.95538 0.24860 0.17800
C 	C 	0.76885 0.96662 0.22989 0.29400
C 	C 	0.91895 0.24499 0.21365 0.29800
C 	C 	0.70859 0.02398 0.30023 0.26300
C 	C 	0.93449 0.91103 0.31800 0.27000
O 	O 	0.78112 0.94014 0.25566 -0.35400
O 	O 	0.70651 0.04215 0.27288 -0.40800
C 	C 	0.00027 0.40473 0.24275 0.07500
N 	N 	0.99637 0.41256 0.26729 -0.10800
C 	C 	0.55205 0.81928 0.18825 -0.05600
C 	C 	0.60998 0.78446 0.19328 -0.00900
C 	C 	0.68298 0.83272 0.20579 0.01400
C 	C 	0.69821 0.91659 0.21314 -0.06600
C 	C 	0.64218 0.95214 0.20651 0.01900
C 	C 	0.56945 0.90450 0.19450 -0.00200
H 	H 	0.59760 0.71955 0.18819 0.05300
H 	H 	0.65415 0.01689 0.21184 0.01300
C 	C 	0.51297 0.94404 0.18904 0.07400
C 	C 	0.74184 0.79604 0.21073 0.08600
N 	N 	0.78907 0.76673 0.21470 -0.11300
C 	C 	0.49453 0.91660 0.34567 -0.08400
C 	C 	0.51316 0.87133 0.32368 0.00500
C 	C 	0.58279 0.90576 0.30863 -0.01100
C 	C 	0.63367 0.98756 0.31510 -0.01900
C 	C 	0.61356 0.03401 0.33637 -0.06400
C 	C 	0.54446 0.99894 0.35174 0.05200
H 	H 	0.65220 0.09704 0.34123 0.04500
C 	C 	0.52565 0.04748 0.37394 0.05300
C 	C 	0.60347 0.85504 0.28775 0.09700
N 	N 	0.51063 0.08639 0.39172 -0.10900
N 	N 	0.61954 0.81369 0.27116 -0.10600
H 	H 	0.94267 0.77280 0.29223 0.03500
C 	C 	0.50817 0.17154 0.60206 -0.07600
C 	C 	0.45175 0.18813 0.58488 0.00200
C 	C 	0.47074 0.10053 0.54654 0.00700
C 	C 	0.53226 0.08969 0.56307 0.00800
C 	C 	0.54878 0.12305 0.59101 -0.02600
C 	C 	0.57821 0.04800 0.55121 -0.03700
C 	C 	0.56318 0.01587 0.52332 -0.05300
C 	C 	0.49854 0.01965 0.50748 0.00600
H 	H 	0.59482 0.11332 0.60386 0.03700
H 	H 	0.62654 0.04141 0.56353 0.03700
H 	H 	0.60015 0.98485 0.51439 0.05200
C 	C 	0.91290 0.46112 0.56788 -0.06000
C 	C 	0.94210 0.40123 0.55766 -0.00500
C 	C 	0.99590 0.41967 0.53546 -0.02600
C 	C 	0.02252 0.49939 0.52339 -0.01900
C 	C 	0.99235 0.55936 0.53372 0.03800
C 	C 	0.94191 0.54141 0.55702 -0.03000
C 	C 	0.00742 0.63383 0.51917 -0.06500
H 	H 	0.91977 0.33881 0.56573 0.04800
H 	H 	0.01159 0.37001 0.52636 0.03500
H 	H 	0.92035 0.58817 0.56527 0.03900
H 	H 	0.98447 0.67983 0.52703 0.05200
C 	C 	0.54434 0.54309 0.60431 -0.08800
C 	C 	0.55885 0.64328 0.56662 0.00900
C 	C 	0.57550 0.62468 0.59466 -0.02800
C 	C 	0.58964 0.72494 0.55707 -0.04200
C 	C 	0.57553 0.74331 0.52895 -0.03700
H 	H 	0.61530 0.67278 0.60851 0.04800
H 	H 	0.62422 0.77453 0.57155 0.04500
H 	H 	0.59847 0.80709 0.52214 0.04200
C 	C 	0.81276 0.13343 0.66446 -0.05700
C 	C 	0.78253 0.05172 0.65351 -0.04100
C 	C 	0.81432 0.99287 0.66255 0.04100
C 	C 	0.87799 0.01599 0.68233 -0.10800
C 	C 	0.91167 0.09876 0.69176 -0.00500
C 	C 	0.87900 0.15737 0.68326 -0.01200
H 	H 	0.73290 0.03342 0.63853 0.04800
H 	H 	0.96107 0.11668 0.70685 0.01500
C 	C 	0.91130 0.24057 0.69514 0.07900
C 	C 	0.78049 0.90861 0.65173 0.07700
N 	N 	0.93721 0.30719 0.70467 -0.10500
N 	N 	0.75336 0.84111 0.64307 -0.10600
C 	C 	0.05977 0.70840 0.68212 -0.06500
C 	C 	0.01832 0.64514 0.70054 -0.01800
C 	C 	0.95720 0.57533 0.68975 0.01800
C 	C 	0.93932 0.56757 0.65996 -0.06300
C 	C 	0.98957 0.62433 0.64129 -0.00200
C 	C 	0.04921 0.69515 0.65223 0.00300
H 	H 	0.02948 0.65334 0.72350 0.03000
H 	H 	0.97850 0.61648 0.61832 0.03600
C 	C 	0.91069 0.51457 0.70950 0.09000
N 	N 	0.87344 0.46589 0.72532 -0.10900
C 	C 	0.82040 0.49627 0.92168 -0.07400
C 	C 	0.89894 0.54925 0.92160 0.00400
C 	C 	0.94449 0.56526 0.94686 -0.04200
C 	C 	0.91123 0.52922 0.97284 0.00100
C 	C 	0.83392 0.47008 0.97222 0.01100
C 	C 	0.78790 0.45682 0.94696 -0.02200
C 	C 	0.80489 0.42215 0.99639 -0.04300
C 	C 	0.85208 0.43166 0.02100 -0.03600
C 	C 	0.92691 0.49342 0.02263 0.00400
C 	C 	0.95508 0.54622 0.99912 0.01600
H 	H 	0.92510 0.57732 0.90183 0.04600
H 	H 	0.00631 0.60156 0.94572 0.03900
H 	H 	0.72777 0.41361 0.94670 0.02200
H 	H 	0.74636 0.37563 0.99583 0.03800
H 	H 	0.82967 0.39206 0.03911 0.04100
C 	C 	0.59462 0.08353 0.06447 -0.03600
C 	C 	0.62137 0.12854 0.03972 -0.04100
C 	C 	0.57264 0.11475 0.01517 0.00800
C 	C 	0.55108 0.14646 0.96573 -0.07300
C 	C 	0.60092 0.15755 0.98989 -0.01800
H 	H 	0.63291 0.09567 0.08333 0.04000
H 	H 	0.68015 0.17448 0.03968 0.04000
H 	H 	0.66171 0.19849 0.98888 0.03700
C 	C 	0.47694 0.42849 0.92279 -0.07700
C 	C 	0.41829 0.36799 0.93770 0.00400
C 	C 	0.40020 0.38415 0.96560 -0.05200
C 	C 	0.51367 0.50747 0.93528 -0.01900
H 	H 	0.38659 0.30823 0.92767 0.04400
H 	H 	0.35093 0.33878 0.97572 0.04300
H 	H 	0.55744 0.55517 0.92350 0.04000
H 	H 	0.37885 0.34735 0.02130 0.04300
C 	C 	0.96981 0.10562 0.82508 -0.06700
C 	C 	0.96556 0.16933 0.80752 -0.02400
C 	C 	0.91563 0.21226 0.81440 0.00500
C 	C 	0.87103 0.19246 0.83950 -0.07000
C 	C 	0.88365 0.13675 0.85887 -0.01500
C 	C 	0.93354 0.09401 0.85191 0.00700
H 	H 	0.99561 0.18032 0.78726 0.03100
H 	H 	0.85248 0.12454 0.87890 0.01400
C 	C 	0.90708 0.27276 0.79476 0.07900
N 	N 	0.90025 0.32121 0.77904 -0.10300
N 	N 	0.55556 0.95471 0.82498 -0.11600
C 	C 	0.79971 0.54140 0.78649 -0.05600
C 	C 	0.75492 0.56904 0.76720 -0.02100
C 	C 	0.79093 0.63976 0.75096 0.00900
C 	C 	0.87200 0.68409 0.75458 -0.06900
C 	C 	0.91791 0.64948 0.77067 -0.00800
C 	C 	0.88219 0.57814 0.78656 0.00700
H 	H 	0.69166 0.53854 0.76611 0.03000
H 	H 	0.98083 0.68130 0.77248 0.02100
C 	C 	0.93025 0.54560 0.80406 0.09300
C 	C 	0.74388 0.66870 0.73166 0.07700
N 	N 	0.96869 0.51948 0.81809 -0.10500
N 	N 	0.70625 0.69193 0.71618 -0.10600
