data_crystal

_cell_length_a 30.72956
_cell_length_b 30.95650
_cell_length_c 26.56700
_cell_angle_alpha 95.47857
_cell_angle_beta  95.47243
_cell_angle_gamma 125.57334

_symmetry_space_group_name_	'P 1'
_symmetry_space_group_name_H-M	'P 1'

loop_
_symmetry_equiv_pos_as_xyz
  x,y,z

loop_
_atom_site_label
_atom_site_type_symbol
_atom_site_fract_x
_atom_site_fract_y
_atom_site_fract_z
_atom_site_charge
C 	C 	0.98584 0.03267 0.99726 0.11700
C 	C 	0.06006 0.03311 0.98094 0.13000
N 	N 	0.03752 0.05961 0.98795 -0.13700
C 	C 	0.94632 0.00211 0.43571 0.10900
C 	C 	0.02689 0.00835 0.44660 0.11700
N 	N 	0.00150 0.03231 0.44253 -0.13800
Cu	Cu	0.65212 0.25754 0.00051 0.92600
Cu	Cu	0.70586 0.26151 0.89805 0.87100
O 	O 	0.57139 0.22395 0.99071 -0.36100
O 	O 	0.65309 0.26572 0.92746 -0.63900
O 	O 	0.68671 0.21938 0.00385 -0.37600
O 	O 	0.75160 0.27572 0.96009 -0.44400
C 	C 	0.55136 0.24662 0.96845 0.28100
O 	O 	0.66226 0.26430 0.07401 -0.35900
C 	C 	0.73399 0.23973 0.98998 0.31100
O 	O 	0.67751 0.26640 0.83356 -0.41900
H 	H 	0.61685 0.24425 0.90475 0.17200
Cu	Cu	0.73206 0.29535 0.53693 0.87100
Cu	Cu	0.64227 0.30317 0.50163 0.89800
O 	O 	0.63913 0.29071 0.42895 -0.64000
O 	O 	0.76228 0.30099 0.42618 -0.37500
O 	O 	0.71248 0.24326 0.47845 -0.44500
O 	O 	0.56400 0.26166 0.49485 -0.38200
C 	C 	0.53230 0.26562 0.46152 0.30800
O 	O 	0.55251 0.30305 0.43254 -0.39600
C 	C 	0.74389 0.25632 0.44405 0.30900
H 	H 	0.61532 0.25209 0.41223 0.16300
C 	C 	0.63470 0.27817 0.73402 -0.01100
C 	C 	0.63543 0.28095 0.68186 -0.01400
H 	H 	0.59975 0.24351 0.74522 0.03300
H 	H 	0.60112 0.24825 0.65320 0.03900
H 	H 	0.57200 0.25704 0.15894 0.04000
H 	H 	0.58038 0.26625 0.25316 0.02800
C 	C 	0.91904 0.02848 0.43140 -0.01800
C 	C 	0.87029 0.00372 0.39600 -0.02900
C 	C 	0.84598 0.03009 0.39028 -0.04500
C 	C 	0.87011 0.08134 0.42002 0.01000
C 	C 	0.91847 0.10579 0.45578 -0.04700
C 	C 	0.94285 0.07956 0.46140 -0.02300
C 	C 	0.84416 0.10896 0.41465 0.00800
C 	C 	0.87284 0.16030 0.40108 -0.04400
C 	C 	0.85073 0.18906 0.40163 -0.03100
C 	C 	0.79975 0.16658 0.41545 -0.01200
C 	C 	0.77008 0.11441 0.42690 -0.03100
C 	C 	0.79220 0.08569 0.42655 -0.04400
C 	C 	0.78035 0.19890 0.42307 0.04700
C 	C 	0.76390 0.22552 0.43144 -0.12200
H 	H 	0.80862 0.01086 0.36259 0.04000
H 	H 	0.93702 0.14502 0.47939 0.04000
H 	H 	0.98014 0.09886 0.48922 0.03900
H 	H 	0.91274 0.17839 0.39131 0.04000
H 	H 	0.87385 0.22931 0.39262 0.03800
H 	H 	0.73060 0.09674 0.43757 0.03600
H 	H 	0.76969 0.04608 0.43699 0.03900
C 	C 	0.08673 0.04103 0.45370 -0.01900
C 	C 	0.11557 0.08501 0.42845 -0.02100
C 	C 	0.17193 0.11384 0.43269 -0.04700
C 	C 	0.19996 0.09902 0.46226 0.01200
C 	C 	0.17139 0.05589 0.48843 -0.04600
C 	C 	0.11507 0.02703 0.48420 -0.02600
C 	C 	0.25889 0.12756 0.46453 0.00800
C 	C 	0.27852 0.09984 0.44409 -0.04300
C 	C 	0.33430 0.12720 0.44512 -0.03100
C 	C 	0.37075 0.18236 0.46657 -0.00900
C 	C 	0.35130 0.20999 0.48747 -0.03000
C 	C 	0.29553 0.18268 0.48648 -0.04300
C 	C 	0.42781 0.21111 0.46532 0.04600
C 	C 	0.47556 0.23566 0.46382 -0.10900
H 	H 	0.09420 0.09611 0.40464 0.04100
H 	H 	0.19368 0.14708 0.41232 0.04200
H 	H 	0.19281 0.04452 0.51174 0.04100
H 	H 	0.25051 0.05731 0.42696 0.04000
H 	H 	0.34907 0.10563 0.42882 0.03700
H 	H 	0.37930 0.25267 0.50409 0.04000
H 	H 	0.28077 0.20434 0.50258 0.04100
C 	C 	0.96053 0.06083 0.00343 -0.02700
C 	C 	0.96851 0.09770 0.97167 -0.01600
C 	C 	0.94080 0.12084 0.97453 -0.04600
C 	C 	0.90504 0.10750 0.00929 0.01000
C 	C 	0.89836 0.07204 0.04219 -0.04900
C 	C 	0.92593 0.04875 0.03927 -0.01900
C 	C 	0.87223 0.12814 0.00907 0.00400
C 	C 	0.88241 0.16618 0.05082 -0.04400
C 	C 	0.85233 0.18698 0.04968 -0.03000
C 	C 	0.81180 0.16965 0.00692 -0.01400
C 	C 	0.80090 0.13086 0.96570 -0.02900
C 	C 	0.83101 0.11019 0.96674 -0.04100
C 	C 	0.78403 0.19433 0.00350 0.04100
C 	C 	0.76097 0.21500 0.99859 -0.11800
H 	H 	0.99500 0.10731 0.94381 0.03900
H 	H 	0.94637 0.14840 0.94914 0.04100
H 	H 	0.87099 0.06169 0.06927 0.04200
H 	H 	0.91999 0.02094 0.06447 0.03900
H 	H 	0.91404 0.18013 0.08375 0.04000
H 	H 	0.86108 0.21705 0.08164 0.03800
H 	H 	0.76969 0.11734 0.93249 0.03200
H 	H 	0.82260 0.08054 0.93451 0.03900
C 	C 	0.49170 0.21811 0.95663 -0.08800
C 	C 	0.45652 0.17002 0.97472 0.01200
C 	C 	0.40117 0.14731 0.97003 -0.06600
C 	C 	0.38031 0.17220 0.94705 0.02600
C 	C 	0.41470 0.21860 0.92665 -0.06600
C 	C 	0.47006 0.24133 0.93116 0.01000
C 	C 	0.32326 0.15145 0.94712 -0.00000
C 	C 	0.31157 0.18230 0.97679 -0.03700
C 	C 	0.25771 0.16058 0.98088 -0.03600
C 	C 	0.21525 0.10800 0.95526 0.01200
C 	C 	0.22670 0.07780 0.92428 -0.04100
C 	C 	0.28053 0.09944 0.92021 -0.03600
C 	C 	0.16058 0.08337 0.96398 0.00500
C 	C 	0.11474 0.06135 0.97163 -0.03900
H 	H 	0.47225 0.15111 0.99382 0.03800
H 	H 	0.37479 0.11121 0.98556 0.04700
H 	H 	0.39875 0.23762 0.90814 0.04600
H 	H 	0.49628 0.27765 0.91589 0.03300
H 	H 	0.34429 0.22250 0.99771 0.04000
H 	H 	0.24917 0.18416 0.00488 0.03800
H 	H 	0.19405 0.03714 0.90429 0.04300
H 	H 	0.28912 0.07545 0.89697 0.03900
C 	C 	0.65362 0.29355 0.10508 0.28100
O 	O 	0.58440 0.29731 0.96342 -0.39100
O 	O 	0.64423 0.30264 0.57623 -0.38300
C 	C 	0.65643 0.29006 0.15993 -0.06300
C 	C 	0.61078 0.27288 0.18261 -0.01000
C 	C 	0.61552 0.27806 0.23600 -0.01300
C 	C 	0.66602 0.30071 0.26734 -0.06500
O 	O 	0.73185 0.32968 0.60026 -0.41900
C 	C 	0.68358 0.31065 0.82489 0.28200
O 	O 	0.63043 0.31528 0.08679 -0.38500
Cu	Cu	0.72299 0.33445 0.42811 0.92700
Cu	Cu	0.62011 0.33327 0.40313 0.89400
C 	C 	0.67315 0.31610 0.32337 0.28000
C 	C 	0.68714 0.32117 0.61218 0.28100
O 	O 	0.72219 0.34221 0.50290 -0.64000
O 	O 	0.65281 0.34128 0.34007 -0.38200
O 	O 	0.70929 0.31578 0.35439 -0.35800
C 	C 	0.67993 0.31881 0.77147 -0.07100
C 	C 	0.68181 0.32397 0.66667 -0.07000
C 	C 	0.70600 0.30902 0.19084 -0.01300
C 	C 	0.71086 0.31445 0.24444 -0.00900
H 	H 	0.74133 0.32182 0.17362 0.03600
Cu	Cu	0.69151 0.34564 0.93528 0.89800
Cu	Cu	0.64760 0.35552 0.02834 0.89200
O 	O 	0.69556 0.34161 0.00684 -0.64300
O 	O 	0.70113 0.35109 0.86304 -0.38700
C 	C 	0.72461 0.36387 0.75651 -0.01200
H 	H 	0.75000 0.33162 0.26814 0.04600
C 	C 	0.72572 0.36625 0.70428 -0.01300
H 	H 	0.73294 0.36493 0.02747 0.16300
H 	H 	0.74453 0.37992 0.52203 0.17300
H 	H 	0.75961 0.39568 0.78515 0.03600
H 	H 	0.76141 0.40005 0.69304 0.03500
O 	O 	0.68303 0.40273 0.46095 -0.39300
O 	O 	0.75412 0.41326 0.42947 -0.36300
N 	N 	0.95694 0.97921 0.99943 -0.13700
C 	C 	0.97954 0.95284 0.99233 0.13000
N 	N 	0.03103 0.97979 0.98310 -0.13500
N 	N 	0.91649 0.94770 0.43306 -0.13700
C 	C 	0.94186 0.92364 0.43696 0.11800
N 	N 	0.99697 0.95405 0.44367 -0.14100
O 	O 	0.73189 0.42345 0.94845 -0.38300
C 	C 	0.72289 0.45117 0.98121 0.29200
O 	O 	0.68154 0.42677 0.00592 -0.39800
C 	C 	0.73202 0.43443 0.45062 0.30200
C 	C 	0.90995 0.86474 0.43379 -0.02200
C 	C 	0.92395 0.83544 0.40518 -0.01900
C 	C 	0.89842 0.78090 0.40705 -0.04800
C 	C 	0.85858 0.75508 0.43752 0.01300
C 	C 	0.84328 0.78382 0.46490 -0.04800
C 	C 	0.86877 0.83845 0.46294 -0.02000
C 	C 	0.83405 0.69839 0.44172 0.00700
C 	C 	0.84426 0.68569 0.48869 -0.04300
C 	C 	0.82443 0.63247 0.49166 -0.03100
C 	C 	0.79432 0.59171 0.44775 -0.00900
C 	C 	0.78345 0.60420 0.40104 -0.03100
C 	C 	0.80322 0.65734 0.39801 -0.04300
C 	C 	0.77394 0.53689 0.45056 0.04500
C 	C 	0.75570 0.49045 0.45148 -0.11100
H 	H 	0.95530 0.85518 0.38215 0.04000
H 	H 	0.91029 0.75896 0.38559 0.04200
H 	H 	0.81222 0.76407 0.48819 0.04300
H 	H 	0.85769 0.86066 0.48526 0.04000
H 	H 	0.86825 0.71716 0.52259 0.04100
H 	H 	0.83274 0.62305 0.52797 0.03800
H 	H 	0.75989 0.57280 0.36701 0.03800
H 	H 	0.79505 0.66673 0.36163 0.04000
H 	H 	0.85172 0.96451 0.37234 0.04600
H 	H 	0.09343 0.99369 0.50449 0.04600
C 	C 	0.75435 0.51017 0.98430 -0.08500
C 	C 	0.76155 0.54315 0.02931 0.01000
C 	C 	0.78939 0.59873 0.03162 -0.07000
C 	C 	0.81039 0.62192 0.98903 0.03100
C 	C 	0.80389 0.58920 0.94429 -0.06700
C 	C 	0.77601 0.53359 0.94189 0.01500
C 	C 	0.83883 0.68039 0.99115 0.00100
C 	C 	0.81733 0.69883 0.95781 -0.03400
C 	C 	0.84476 0.75427 0.95927 -0.04300
C 	C 	0.89376 0.79157 0.99409 0.01800
C 	C 	0.91502 0.77326 0.02775 -0.04600
C 	C 	0.88765 0.71784 0.02631 -0.03800
C 	C 	0.92333 0.84850 0.99389 0.00300
C 	C 	0.94863 0.89616 0.99338 -0.03800
H 	H 	0.74557 0.52573 0.06248 0.02700
H 	H 	0.79430 0.62372 0.06635 0.04600
H 	H 	0.82025 0.60684 0.91132 0.04700
H 	H 	0.77055 0.50867 0.90683 0.03800
H 	H 	0.77949 0.67024 0.93075 0.04000
H 	H 	0.82813 0.76816 0.93311 0.04400
H 	H 	0.95295 0.80190 0.05470 0.04300
H 	H 	0.90459 0.70399 0.05216 0.03800
