data_crystal

_cell_length_a 18.52643
_cell_length_b 18.75978
_cell_length_c 35.33572
_cell_angle_alpha 95.43762
_cell_angle_beta  95.43703
_cell_angle_gamma 126.39504

_symmetry_space_group_name_	'P 1'
_symmetry_space_group_name_H-M	'P 1'

loop_
_symmetry_equiv_pos_as_xyz
  x,y,z

loop_
_atom_site_label
_atom_site_type_symbol
_atom_site_fract_x
_atom_site_fract_y
_atom_site_fract_z
_atom_site_charge
C 	C 	0.88694 0.99388 0.97755 0.21100
N 	N 	0.97845 0.04624 0.97908 -0.13800
C 	C 	0.02108 0.00802 0.97451 0.18500
N 	N 	0.97239 0.91712 0.96949 -0.12300
C 	C 	0.88159 0.86449 0.96991 0.18800
N 	N 	0.83831 0.90273 0.97350 -0.12200
C 	C 	0.96893 0.02996 0.49568 0.16600
N 	N 	0.06094 0.08393 0.49796 -0.11100
C 	C 	0.10570 0.04711 0.49735 0.17500
N 	N 	0.05858 0.95683 0.49381 -0.10700
C 	C 	0.96713 0.90313 0.49188 0.17900
N 	N 	0.92222 0.93962 0.49298 -0.11000
Cu	Cu	0.72994 0.33328 0.96034 0.93300
Cu	Cu	0.71361 0.27478 0.04508 0.89200
Cu	Cu	0.59316 0.31120 0.00853 0.90700
Cu	Cu	0.54988 0.30550 0.92341 0.91300
C 	C 	0.66401 0.28295 0.87793 0.33900
O 	O 	0.77084 0.45899 0.95329 -0.33200
C 	C 	0.65501 0.35509 0.09406 0.33200
O 	O 	0.58833 0.25808 0.95722 -0.63400
O 	O 	0.72273 0.35852 0.01444 -0.63900
O 	O 	0.79564 0.28006 0.97032 -0.33800
O 	O 	0.69281 0.18558 0.00544 -0.40400
O 	O 	0.62313 0.32051 0.88295 -0.36700
O 	O 	0.46867 0.27470 0.00091 -0.34100
C 	C 	0.40493 0.22488 0.96953 0.32600
C 	C 	0.72426 0.48932 0.96198 0.31300
O 	O 	0.63730 0.43255 0.96406 -0.37000
O 	O 	0.42550 0.22914 0.93471 -0.36000
O 	O 	0.71782 0.28836 0.90716 -0.34600
C 	C 	0.75623 0.20616 0.98511 0.32700
O 	O 	0.59900 0.34524 0.06405 -0.35400
O 	O 	0.71851 0.34480 0.08948 -0.39900
H 	H 	0.55133 0.19150 0.95243 0.18100
H 	H 	0.76653 0.42263 0.02730 0.20100
Cu	Cu	0.63928 0.20396 0.50553 0.93400
Cu	Cu	0.67871 0.18365 0.41828 0.89400
Cu	Cu	0.68724 0.33875 0.45160 0.90700
Cu	Cu	0.67202 0.38687 0.53362 0.91200
C 	C 	0.67376 0.27128 0.58700 0.33800
O 	O 	0.51242 0.16058 0.51209 -0.34600
C 	C 	0.62732 0.26057 0.36729 0.33100
O 	O 	0.72290 0.34316 0.50499 -0.63500
O 	O 	0.61299 0.20603 0.45021 -0.63800
O 	O 	0.68686 0.13270 0.50007 -0.34400
O 	O 	0.77425 0.21397 0.45770 -0.41300
O 	O 	0.68948 0.34855 0.58245 -0.36400
O 	O 	0.76691 0.46824 0.45684 -0.35500
C 	C 	0.77039 0.52327 0.48446 0.33600
C 	C 	0.48297 0.20718 0.50426 0.33000
O 	O 	0.53917 0.28840 0.49723 -0.36700
O 	O 	0.71282 0.49245 0.50866 -0.36100
O 	O 	0.68117 0.22366 0.55980 -0.34600
C 	C 	0.75665 0.16091 0.48274 0.33400
O 	O 	0.66871 0.33323 0.39487 -0.36600
O 	O 	0.61160 0.18554 0.37472 -0.39800
H 	H 	0.78943 0.37643 0.51352 0.19000
H 	H 	0.54760 0.17243 0.43896 0.20200
C 	C 	0.66759 0.28137 0.69428 0.02400
C 	C 	0.73732 0.33874 0.72654 -0.02800
C 	C 	0.72101 0.32380 0.76387 -0.02500
C 	C 	0.63432 0.25177 0.76927 0.02000
C 	C 	0.56576 0.19214 0.73690 -0.02600
C 	C 	0.58246 0.20656 0.69953 -0.02800
C 	C 	0.61082 0.24745 0.80821 0.02500
C 	C 	0.66882 0.25756 0.84033 -0.15200
C 	C 	0.67948 0.30750 0.65599 0.02300
C 	C 	0.66778 0.24916 0.62389 -0.14200
H 	H 	0.80318 0.39679 0.72277 0.06400
H 	H 	0.77425 0.37092 0.78860 0.06600
H 	H 	0.49856 0.13653 0.74073 0.06100
H 	H 	0.52794 0.16214 0.67481 0.07000
H 	H 	0.54891 0.23938 0.81196 0.04900
H 	H 	0.72008 0.24805 0.83592 0.11100
H 	H 	0.70156 0.37469 0.65343 0.06100
H 	H 	0.65448 0.18578 0.62773 0.10600
C 	C 	0.68969 0.38485 0.20200 0.01900
C 	C 	0.71435 0.33886 0.22178 -0.03000
C 	C 	0.69762 0.32583 0.25914 -0.03000
C 	C 	0.65568 0.35853 0.27720 0.02200
C 	C 	0.63209 0.40579 0.25769 -0.02800
C 	C 	0.64872 0.41866 0.22012 -0.02700
C 	C 	0.64129 0.34768 0.31737 0.01700
C 	C 	0.60777 0.26530 0.32885 -0.15000
C 	C 	0.71354 0.40292 0.16356 0.02000
C 	C 	0.64689 0.37745 0.13150 -0.14900
H 	H 	0.74725 0.31375 0.20827 0.05600
H 	H 	0.71872 0.29166 0.27431 0.05500
H 	H 	0.60115 0.43266 0.27160 0.06700
H 	H 	0.63142 0.45625 0.20548 0.06300
H 	H 	0.66116 0.40543 0.33831 0.07100
H 	H 	0.57541 0.20523 0.30672 0.09800
H 	H 	0.77987 0.42245 0.15909 0.05600
H 	H 	0.58593 0.37062 0.13589 0.10400
C 	C 	0.85916 0.74578 0.45482 0.07900
C 	C 	0.91740 0.80589 0.48951 -0.04100
C 	C 	0.93299 0.77331 0.52110 0.07300
C 	C 	0.89180 0.68108 0.51769 0.11800
C 	C 	0.82796 0.62016 0.48419 -0.11400
C 	C 	0.81125 0.65258 0.45273 0.12100
Br	Br	0.71872 0.56946 0.40787 -0.17000
Br	Br	0.84849 0.79134 0.40964 -0.12800
Br	Br	0.92401 0.63793 0.55852 -0.19600
Br	Br	0.00728 0.85453 0.56963 -0.11100
C 	C 	0.91343 0.11043 0.52593 0.07800
C 	C 	0.91877 0.06780 0.49248 -0.04100
C 	C 	0.86985 0.05474 0.45626 0.07900
C 	C 	0.80926 0.07655 0.45391 0.12000
C 	C 	0.80683 0.12302 0.48692 -0.11900
C 	C 	0.85949 0.14045 0.52299 0.11900
Br	Br	0.86049 0.20819 0.56793 -0.16700
Br	Br	0.97953 0.12709 0.57568 -0.14400
Br	Br	0.72514 0.03728 0.40615 -0.24200
Br	Br	0.89071 0.01286 0.40965 -0.14000
C 	C 	0.33120 0.14856 0.46693 0.11900
C 	C 	0.38639 0.16796 0.50253 -0.11700
C 	C 	0.35206 0.16004 0.53706 0.11700
C 	C 	0.26159 0.12921 0.53575 0.08000
C 	C 	0.20479 0.10413 0.49993 -0.04200
C 	C 	0.24065 0.11731 0.46574 0.07900
Br	Br	0.16440 0.09007 0.41714 -0.13600
Br	Br	0.37895 0.16286 0.41970 -0.19600
Br	Br	0.21465 0.12039 0.58294 -0.13300
Br	Br	0.42956 0.19291 0.58616 -0.19500
C 	C 	0.77669 0.62156 0.92992 0.11200
C 	C 	0.76594 0.58594 0.96416 -0.10200
C 	C 	0.78576 0.64013 0.99990 0.10500
C 	C 	0.81879 0.73039 0.00153 0.09500
C 	C 	0.83111 0.76638 0.96740 -0.05100
C 	C 	0.80815 0.71128 0.93153 0.08600
Br	Br	0.81945 0.75896 0.88458 -0.13500
Br	Br	0.74705 0.54705 0.88075 -0.17200
Br	Br	0.84926 0.80555 0.05061 -0.12900
Br	Br	0.76859 0.59100 0.04666 -0.18900
C 	C 	0.79774 0.04000 0.94615 0.07500
C 	C 	0.84113 0.03663 0.98018 -0.06400
C 	C 	0.85561 0.08820 0.01570 0.09000
C 	C 	0.83320 0.14807 0.01683 0.11900
C 	C 	0.78999 0.15177 0.98281 -0.11700
C 	C 	0.77086 0.09645 0.94757 0.11900
Br	Br	0.70610 0.09642 0.90149 -0.18000
Br	Br	0.77764 0.96929 0.89744 -0.11500
Br	Br	0.86580 0.22828 0.06458 -0.23300
Br	Br	0.90601 0.07632 0.06287 -0.14900
C 	C 	0.17907 0.06093 0.00024 0.08100
C 	C 	0.11973 0.06509 0.97411 -0.04900
C 	C 	0.15532 0.12524 0.94803 0.08400
C 	C 	0.25005 0.18490 0.94995 0.11600
C 	C 	0.30810 0.17399 0.97300 -0.10600
C 	C 	0.27206 0.11088 0.99789 0.11000
Br	Br	0.34829 0.08863 0.02690 -0.20300
Br	Br	0.13451 0.99173 0.04080 -0.11100
Br	Br	0.30056 0.28639 0.92395 -0.16200
Br	Br	0.07436 0.12091 0.90758 -0.13600
