data_crystal

_cell_length_a 18.58083
_cell_length_b 18.84874
_cell_length_c 44.36095
_cell_angle_alpha 95.43046
_cell_angle_beta  95.42894
_cell_angle_gamma 126.44596

_symmetry_space_group_name_	'P 1'
_symmetry_space_group_name_H-M	'P 1'

loop_
_symmetry_equiv_pos_as_xyz
  x,y,z

loop_
_atom_site_label
_atom_site_type_symbol
_atom_site_fract_x
_atom_site_fract_y
_atom_site_fract_z
_atom_site_charge
C 	C 	0.90809 0.99947 0.97780 0.02700
C 	C 	0.00233 0.05608 0.97894 -0.07400
C 	C 	0.04999 0.02031 0.97680 0.03500
C 	C 	0.00321 0.92736 0.97353 -0.07900
C 	C 	0.90929 0.87024 0.97325 0.03300
C 	C 	0.86134 0.90627 0.97515 -0.07900
H 	H 	0.03855 0.12801 0.98142 0.05000
H 	H 	0.03983 0.89950 0.97130 0.04800
H 	H 	0.78861 0.86236 0.97474 0.04800
C 	C 	0.93806 0.02543 0.50128 0.03700
C 	C 	0.88903 0.93478 0.50361 -0.08600
C 	C 	0.93235 0.89435 0.50415 0.03600
C 	C 	0.02551 0.94539 0.50375 -0.08400
C 	C 	0.07541 0.03658 0.50236 0.03900
C 	C 	0.03156 0.07660 0.50076 -0.08400
H 	H 	0.81668 0.89508 0.50387 0.05000
H 	H 	0.05906 0.91401 0.50428 0.05200
H 	H 	0.06970 0.14677 0.49894 0.05000
Cu	Cu	0.75620 0.33980 0.96850 0.92600
Cu	Cu	0.73168 0.27575 0.03521 0.86500
Cu	Cu	0.61747 0.32029 0.00489 0.89500
Cu	Cu	0.58177 0.31925 0.93744 0.89700
C 	C 	0.69505 0.29320 0.90287 0.31000
O 	O 	0.80120 0.46660 0.96347 -0.36000
C 	C 	0.65878 0.34368 0.07211 0.29700
O 	O 	0.61450 0.26761 0.96436 -0.63500
O 	O 	0.74542 0.36274 0.01132 -0.64500
O 	O 	0.81877 0.28439 0.97682 -0.37600
O 	O 	0.71206 0.18824 0.00327 -0.44300
O 	O 	0.65855 0.33474 0.90650 -0.39300
O 	O 	0.49529 0.28866 0.99787 -0.38300
C 	C 	0.43312 0.24262 0.97237 0.29800
C 	C 	0.75630 0.49851 0.97035 0.28000
O 	O 	0.66874 0.44320 0.97104 -0.40100
O 	O 	0.45598 0.24494 0.94505 -0.40200
O 	O 	0.74696 0.29680 0.92625 -0.37300
C 	C 	0.77603 0.20880 0.98741 0.29500
O 	O 	0.62415 0.35871 0.04836 -0.38200
O 	O 	0.72504 0.33687 0.07062 -0.42300
H 	H 	0.57565 0.20116 0.96020 0.15900
H 	H 	0.78979 0.42599 0.02214 0.16800
Cu	Cu	0.60371 0.18558 0.50247 0.92800
Cu	Cu	0.65561 0.19337 0.43355 0.87000
Cu	Cu	0.65976 0.33849 0.46799 0.89700
Cu	Cu	0.62932 0.35862 0.53223 0.89300
C 	C 	0.64870 0.24338 0.56827 0.30400
O 	O 	0.47672 0.14290 0.50703 -0.36400
C 	C 	0.61243 0.28805 0.39957 0.30600
O 	O 	0.68848 0.32653 0.50885 -0.64100
O 	O 	0.58540 0.20476 0.46022 -0.64200
O 	O 	0.64850 0.11410 0.49350 -0.37600
O 	O 	0.74460 0.20868 0.46408 -0.44300
O 	O 	0.61366 0.28653 0.56476 -0.39000
O 	O 	0.73909 0.46777 0.47801 -0.38800
C 	C 	0.74016 0.51678 0.50166 0.29900
C 	C 	0.44770 0.18901 0.49968 0.29100
O 	O 	0.50646 0.27337 0.49759 -0.39900
O 	O 	0.68691 0.48013 0.52205 -0.40000
O 	O 	0.64148 0.18963 0.54476 -0.36500
C 	C 	0.72129 0.14750 0.48107 0.29600
O 	O 	0.64951 0.35163 0.42443 -0.39000
O 	O 	0.59667 0.21052 0.40074 -0.42500
H 	H 	0.75434 0.35982 0.51685 0.16200
H 	H 	0.52129 0.17377 0.45028 0.17000
C 	C 	0.70791 0.22185 0.65629 -0.01000
C 	C 	0.65866 0.13749 0.66491 -0.03200
C 	C 	0.66506 0.13127 0.69609 -0.04500
C 	C 	0.72041 0.20954 0.71885 0.00700
C 	C 	0.77412 0.29362 0.71002 -0.04400
C 	C 	0.76795 0.29966 0.67884 -0.03300
C 	C 	0.71351 0.20452 0.75160 0.00800
C 	C 	0.62954 0.16828 0.76076 -0.04500
C 	C 	0.62540 0.17745 0.79205 -0.03200
C 	C 	0.70507 0.22309 0.81440 -0.01200
C 	C 	0.78807 0.25446 0.80541 -0.03200
C 	C 	0.79230 0.24500 0.77409 -0.04500
C 	C 	0.70339 0.24754 0.84593 0.04400
C 	C 	0.70013 0.26715 0.87217 -0.11400
C 	C 	0.68807 0.22922 0.62508 0.04200
C 	C 	0.67140 0.23531 0.59893 -0.10800
H 	H 	0.61268 0.07696 0.64758 0.03800
H 	H 	0.62431 0.06595 0.70261 0.03800
H 	H 	0.81736 0.35447 0.72736 0.03800
H 	H 	0.80681 0.36510 0.67233 0.03400
H 	H 	0.56823 0.13663 0.74363 0.03900
H 	H 	0.56087 0.15246 0.79884 0.03400
H 	H 	0.84986 0.28917 0.82259 0.03600
H 	H 	0.85725 0.27206 0.76729 0.03800
C 	C 	0.59765 0.36091 0.15711 -0.01100
C 	C 	0.64149 0.44368 0.17691 -0.03200
C 	C 	0.63279 0.44643 0.20791 -0.04500
C 	C 	0.58063 0.36629 0.21930 0.00700
C 	C 	0.53224 0.28351 0.19894 -0.04500
C 	C 	0.54065 0.28092 0.16796 -0.03300
C 	C 	0.58585 0.36881 0.25288 0.00700
C 	C 	0.50580 0.32214 0.26519 -0.04500
C 	C 	0.50979 0.31178 0.29599 -0.03200
C 	C 	0.59376 0.34844 0.31467 -0.01200
C 	C 	0.67413 0.39939 0.30292 -0.03200
C 	C 	0.67026 0.40944 0.27214 -0.04500
C 	C 	0.59694 0.32620 0.34470 0.04300
C 	C 	0.60253 0.30910 0.36994 -0.11600
C 	C 	0.61988 0.35776 0.12702 0.04100
C 	C 	0.63701 0.35269 0.10172 -0.11300
H 	H 	0.68505 0.50584 0.16862 0.03500
H 	H 	0.66936 0.51071 0.22332 0.03700
H 	H 	0.49153 0.22124 0.20742 0.03700
H 	H 	0.50596 0.21666 0.15271 0.03300
H 	H 	0.44038 0.29141 0.25064 0.03700
H 	H 	0.44740 0.27286 0.30500 0.03500
H 	H 	0.73934 0.42840 0.31729 0.03400
H 	H 	0.73247 0.44563 0.26292 0.03700
C 	C 	0.77989 0.64314 0.47580 -0.01700
C 	C 	0.79078 0.61359 0.50248 -0.10600
C 	C 	0.84814 0.67667 0.52985 0.09200
C 	C 	0.88994 0.76793 0.53041 -0.08500
C 	C 	0.87952 0.79742 0.50367 -0.01300
C 	C 	0.82513 0.73480 0.47601 0.03200
C 	C 	0.81459 0.76534 0.44677 -0.17500
H 	H 	0.73572 0.59455 0.45487 0.04300
H 	H 	0.93255 0.81650 0.55150 0.04700
C 	C 	0.86493 0.64727 0.55845 -0.19700
H 	H 	0.77745 0.70924 0.42656 0.06200
H 	H 	0.88250 0.81825 0.44183 0.06400
H 	H 	0.77576 0.79234 0.44925 0.06300
H 	H 	0.87815 0.59787 0.55255 0.06100
H 	H 	0.80475 0.61662 0.56981 0.06800
H 	H 	0.92533 0.70495 0.57523 0.06200
C 	C 	0.85085 0.05512 0.46622 -0.08300
C 	C 	0.88935 0.06396 0.49635 -0.01400
C 	C 	0.87298 0.10071 0.52158 0.03200
C 	C 	0.81616 0.12605 0.51624 -0.01700
C 	C 	0.77677 0.11623 0.48608 -0.10900
C 	C 	0.79309 0.07919 0.46085 0.08800
C 	C 	0.74912 0.06507 0.42822 -0.19300
H 	H 	0.86372 0.02682 0.44694 0.04700
H 	H 	0.80324 0.15422 0.53553 0.04200
C 	C 	0.91431 0.11116 0.55416 -0.17500
H 	H 	0.75473 0.02061 0.41200 0.06000
H 	H 	0.78307 0.13063 0.42061 0.05000
H 	H 	0.67546 0.03278 0.42672 0.04300
H 	H 	0.98916 0.14900 0.55653 0.06200
H 	H 	0.88409 0.04393 0.56002 0.06500
H 	H 	0.90197 0.14845 0.57109 0.06200
C 	C 	0.20308 0.09811 0.47397 -0.08400
C 	C 	0.17363 0.08943 0.50227 -0.01300
C 	C 	0.23577 0.11773 0.52986 0.03200
C 	C 	0.32439 0.14709 0.52848 -0.01900
C 	C 	0.35283 0.15247 0.50009 -0.10800
C 	C 	0.29250 0.12955 0.47264 0.09200
C 	C 	0.32231 0.13593 0.44190 -0.20000
H 	H 	0.15525 0.07692 0.45286 0.04800
H 	H 	0.37165 0.16657 0.54956 0.03800
C 	C 	0.20653 0.11258 0.56067 -0.17500
H 	H 	0.26647 0.11370 0.42258 0.06500
H 	H 	0.34388 0.09264 0.43783 0.06200
H 	H 	0.38016 0.20651 0.44158 0.06900
H 	H 	0.16381 0.04172 0.56390 0.06400
H 	H 	0.16683 0.13899 0.56196 0.06300
H 	H 	0.26619 0.15316 0.57994 0.06100
C 	C 	0.81724 0.62968 0.94451 -0.02200
C 	C 	0.79965 0.59487 0.97175 -0.10200
C 	C 	0.81310 0.64927 0.99920 0.08900
C 	C 	0.84394 0.73779 0.99892 -0.08300
C 	C 	0.86200 0.77274 0.97170 -0.01300
C 	C 	0.84614 0.71744 0.94407 0.03200
C 	C 	0.86212 0.75235 0.91428 -0.17600
H 	H 	0.80600 0.58754 0.92340 0.04000
H 	H 	0.85616 0.78029 0.02008 0.04500
C 	C 	0.79513 0.61348 0.02881 -0.20100
H 	H 	0.82904 0.69672 0.89405 0.06000
H 	H 	0.93636 0.79819 0.91433 0.06300
H 	H 	0.83317 0.78915 0.91138 0.06300
H 	H 	0.83269 0.58571 0.03360 0.06200
H 	H 	0.72106 0.55978 0.02691 0.07500
H 	H 	0.81776 0.66691 0.04880 0.06500
C 	C 	0.83337 0.05904 0.95308 -0.09200
C 	C 	0.85919 0.03897 0.97981 -0.00300
C 	C 	0.85351 0.07132 0.00883 0.02200
C 	C 	0.82788 0.12808 0.01089 -0.01600
C 	C 	0.80560 0.15122 0.98431 -0.11600
C 	C 	0.80546 0.11406 0.95504 0.10100
C 	C 	0.77736 0.13392 0.92594 -0.20700
H 	H 	0.83778 0.03414 0.93082 0.05000
H 	H 	0.82603 0.15499 0.03327 0.01500
C 	C 	0.87894 0.04901 0.03780 -0.16800
H 	H 	0.76852 0.08998 0.90507 0.06900
H 	H 	0.83038 0.20481 0.92418 0.09000
H 	H 	0.71131 0.12221 0.92599 0.07800
H 	H 	0.95360 0.08434 0.04273 0.06000
H 	H 	0.84282 0.97547 0.03498 0.05800
H 	H 	0.86000 0.06957 0.05802 0.05400
C 	C 	0.30491 0.14385 0.99869 -0.01300
C 	C 	0.33581 0.19144 0.97451 -0.11100
C 	C 	0.27313 0.18843 0.95250 0.09800
C 	C 	0.17972 0.12910 0.95285 -0.08900
C 	C 	0.14878 0.08038 0.97671 -0.00700
C 	C 	0.21236 0.09144 0.00070 0.02400
C 	C 	0.18207 0.04664 0.02820 -0.17000
H 	H 	0.35298 0.14757 0.01597 0.03100
H 	H 	0.13101 0.12224 0.93488 0.05000
C 	C 	0.30492 0.24896 0.92900 -0.20000
H 	H 	0.24020 0.07871 0.04779 0.05900
H 	H 	0.15250 0.97473 0.02190 0.05800
H 	H 	0.13065 0.05223 0.03638 0.06300
H 	H 	0.31856 0.22008 0.90941 0.07200
H 	H 	0.36738 0.31739 0.93954 0.07000
H 	H 	0.25239 0.25633 0.91979 0.06500
