data_crystal

_cell_length_a 27.30874
_cell_length_b 29.00736
_cell_length_c 40.97728
_cell_angle_alpha 60.83731
_cell_angle_beta  118.87641
_cell_angle_gamma 133.27103

_symmetry_space_group_name_	'P 1'
_symmetry_space_group_name_H-M	'P 1'

loop_
_symmetry_equiv_pos_as_xyz
  x,y,z

loop_
_atom_site_label
_atom_site_type_symbol
_atom_site_fract_x
_atom_site_fract_y
_atom_site_fract_z
_atom_site_charge
Co	Co	0.05600 0.00689 0.06767 1.16500
Co	Co	0.00018 0.05773 0.08951 1.19600
C 	C 	0.19302 0.04371 0.07398 0.30600
Co	Co	0.07932 0.90126 0.08154 1.18200
O 	O 	0.04722 0.07904 0.05299 -0.43700
C 	C 	0.06451 0.15708 0.13269 0.35300
C 	C 	0.10969 0.86324 0.16641 0.34000
O 	O 	0.02388 0.11043 0.15689 -0.38100
O 	O 	0.07022 0.14409 0.10812 -0.33900
O 	O 	0.13858 0.90486 0.13692 -0.33600
O 	O 	0.05848 0.85587 0.16988 -0.31400
O 	O 	0.04533 0.93568 0.09443 -0.73300
O 	O 	0.15674 0.99481 0.05882 -0.34000
O 	O 	0.16240 0.06130 0.07736 -0.37600
Co	Co	0.05661 0.01647 0.56569 1.17200
Co	Co	0.98564 0.04780 0.59029 1.17300
C 	C 	0.20566 0.07276 0.57776 0.34900
Co	Co	0.10636 0.93348 0.57690 1.18500
O 	O 	0.03348 0.07805 0.55130 -0.42800
C 	C 	0.03653 0.15570 0.61696 0.39100
C 	C 	0.13313 0.88277 0.66285 0.36200
O 	O 	0.10177 0.99144 0.52135 -0.37300
O 	O 	0.05730 0.13018 0.61203 -0.36400
O 	O 	0.11732 0.87316 0.63006 -0.39100
O 	O 	0.11027 0.90848 0.66557 -0.35200
O 	O 	0.05405 0.94877 0.59035 -0.73100
O 	O 	0.19748 0.01653 0.59418 -0.39500
O 	O 	0.16417 0.08055 0.57907 -0.37900
C 	C 	0.07476 0.02802 0.88170 -0.06100
C 	C 	0.07793 0.02829 0.84839 -0.07500
H 	H 	0.11957 0.06571 0.89690 0.06900
H 	H 	0.12456 0.06708 0.83770 0.07900
C 	C 	0.04567 0.02689 0.33513 -0.01500
C 	C 	0.04942 0.03260 0.36850 -0.09200
H 	H 	0.08160 0.06921 0.31723 0.06100
H 	H 	0.08933 0.07882 0.37654 0.08300
C 	C 	0.15047 0.39151 0.64163 0.00900
C 	C 	0.14166 0.38046 0.67649 0.30900
C 	C 	0.16572 0.43279 0.68769 -0.09000
C 	C 	0.13120 0.33760 0.63121 0.02200
F 	F 	0.11129 0.31941 0.69988 -0.41200
H 	H 	0.16287 0.42454 0.71571 0.10900
C 	C 	0.08198 0.31901 0.59715 0.29800
C 	C 	0.05895 0.26416 0.58938 -0.04400
C 	C 	0.08217 0.22542 0.61631 -0.13700
C 	C 	0.13595 0.24736 0.64859 0.37800
C 	C 	0.16062 0.30346 0.65590 -0.13000
H 	H 	0.01829 0.24835 0.56405 0.13300
F 	F 	0.16036 0.21151 0.67446 -0.42400
H 	H 	0.20056 0.31884 0.68151 0.13700
C 	C 	0.13089 0.73946 0.71980 -0.14000
C 	C 	0.19699 0.76627 0.71906 0.03100
C 	C 	0.24797 0.83395 0.71454 0.30300
C 	C 	0.22976 0.87486 0.70478 -0.05000
C 	C 	0.16010 0.84859 0.69745 -0.13000
C 	C 	0.11319 0.78067 0.71028 0.37700
H 	H 	0.26779 0.92734 0.69749 0.12200
F 	F 	0.04698 0.75426 0.70704 -0.41900
C 	C 	0.18683 0.71437 0.68003 -0.11300
F 	F 	0.18467 0.67382 0.64048 -0.39600
H 	H 	0.15855 0.73233 0.65534 0.13600
C 	C 	0.15619 0.37822 0.19031 -0.11100
C 	C 	0.16776 0.38990 0.15630 0.00300
C 	C 	0.18118 0.43030 0.20201 0.34200
C 	C 	0.15052 0.33643 0.14692 0.02700
F 	F 	0.17481 0.41912 0.23647 -0.41900
H 	H 	0.13034 0.32913 0.20840 0.12900
C 	C 	0.17944 0.30219 0.17292 0.28800
C 	C 	0.15602 0.24623 0.16634 -0.04700
C 	C 	0.10480 0.22495 0.13339 -0.14000
C 	C 	0.08135 0.26309 0.10552 0.38300
C 	C 	0.10304 0.31783 0.11262 -0.13200
F 	F 	0.22862 0.32201 0.20511 -0.40700
H 	H 	0.17521 0.21764 0.18773 0.09900
F 	F 	0.03401 0.24461 0.07270 -0.39500
C 	C 	0.17552 0.74223 0.22261 0.02800
C 	C 	0.22486 0.80945 0.22049 0.31100
C 	C 	0.20337 0.84900 0.20688 -0.05200
C 	C 	0.13256 0.82172 0.19499 -0.12000
C 	C 	0.08401 0.75342 0.20254 0.37600
C 	C 	0.10554 0.71384 0.21620 -0.13700
H 	H 	0.24146 0.90146 0.20255 0.14300
F 	F 	0.01544 0.72589 0.19286 -0.39300
H 	H 	0.06728 0.66170 0.21888 0.14300
H 	H 	0.21001 0.12433 0.50311 0.08800
H 	H 	0.27201 0.17066 0.03687 0.10300
H 	H 	0.17601 0.53840 0.19929 0.12100
H 	H 	0.16499 0.55071 0.68159 0.11800
F 	F 	0.05341 0.35167 0.57272 -0.39700
C 	C 	0.20878 0.72593 0.71579 0.00600
H 	H 	0.09183 0.68708 0.72493 0.14300
C 	C 	0.20331 0.68160 0.67569 0.35200
H 	H 	0.08131 0.34456 0.09205 0.15800
C 	C 	0.17946 0.69495 0.18788 -0.12100
C 	C 	0.19462 0.70547 0.22257 0.00700
H 	H 	0.15036 0.71036 0.16180 0.13200
C 	C 	0.26061 0.14460 0.52269 -0.05700
C 	C 	0.26657 0.12919 0.56201 -0.14800
C 	C 	0.26843 0.08683 0.07940 -0.13400
O 	O 	0.01919 0.98066 0.11734 -0.53000
O 	O 	0.00798 0.98303 0.01420 -0.33900
C 	C 	0.04613 0.98865 0.49967 0.31600
C 	C 	0.01148 0.00099 0.71972 0.20800
O 	O 	0.00356 0.04696 0.69458 -0.33600
C 	C 	0.02074 0.97910 0.82876 0.11500
C 	C 	0.01421 0.97881 0.89551 0.08900
C 	C 	0.02091 0.98379 0.79183 0.03300
C 	C 	0.01861 0.98978 0.75976 0.04300
C 	C 	0.01368 0.97406 0.93235 0.05900
C 	C 	0.02414 0.98572 0.46034 -0.04000
C 	C 	0.23269 0.68569 0.25619 0.32800
C 	C 	0.20408 0.66702 0.18636 0.35000
F 	F 	0.19182 0.66015 0.15216 -0.41000
C 	C 	0.01734 0.95276 0.00404 0.30100
O 	O 	0.01803 0.96893 0.70910 -0.28700
C 	C 	0.01428 0.96694 0.96426 -0.03900
C 	C 	0.17807 0.45420 0.61675 -0.11300
C 	C 	0.19807 0.49635 0.66405 -0.06900
C 	C 	0.19840 0.45320 0.13221 0.31400
C 	C 	0.21664 0.49429 0.17933 -0.07100
C 	C 	0.20031 0.50602 0.62752 0.34600
H 	H 	0.18407 0.46318 0.58953 0.14600
C 	C 	0.22140 0.50487 0.14337 -0.08900
F 	F 	0.20919 0.46520 0.09902 -0.40100
F 	F 	0.27698 0.00096 0.12797 -0.45200
F 	F 	0.31345 0.86055 0.71612 -0.38700
F 	F 	0.24723 0.69519 0.28998 -0.38800
C 	C 	0.30023 0.14946 0.05482 -0.05400
C 	C 	0.27450 0.62423 0.21743 0.13800
C 	C 	0.26091 0.55018 0.19627 0.14400
C 	C 	0.23175 0.56747 0.20442 -0.08800
C 	C 	0.26703 0.63254 0.70181 0.13800
C 	C 	0.22026 0.57592 0.68777 -0.09300
C 	C 	0.24546 0.55283 0.68117 0.13800
F 	F 	0.22925 0.56683 0.60374 -0.39600
C 	C 	0.24506 0.70212 0.74764 0.32600
C 	C 	0.26098 0.66872 0.74343 -0.08900
C 	C 	0.24136 0.65933 0.70730 -0.06800
F 	F 	0.26596 0.71231 0.78245 -0.39200
H 	H 	0.29001 0.65152 0.76804 0.11300
H 	H 	0.24748 0.55399 0.12533 0.12400
C 	C 	0.25695 0.65717 0.25477 -0.08800
C 	C 	0.24352 0.64852 0.21975 -0.06800
H 	H 	0.28713 0.64284 0.28069 0.11700
F 	F 	0.29310 0.83723 0.22821 -0.38200
C 	C 	0.31912 0.18067 0.50919 0.30000
C 	C 	0.33238 0.15727 0.58692 0.38500
F 	F 	0.31176 0.18932 0.47185 -0.39900
F 	F 	0.33896 0.14442 0.62483 -0.42400
C 	C 	0.30604 0.06039 0.10295 0.36600
O 	O 	0.01678 0.99742 0.51185 -0.33200
C 	C 	0.01195 0.98255 0.42854 0.05300
C 	C 	0.34669 0.66207 0.22368 -0.09800
C 	C 	0.37572 0.64517 0.21497 0.14000
C 	C 	0.33268 0.58850 0.20208 -0.11600
H 	H 	0.37978 0.70601 0.23356 0.11900
H 	H 	0.35488 0.57563 0.19500 0.10400
C 	C 	0.31675 0.58517 0.68944 -0.10400
C 	C 	0.36344 0.64169 0.70289 0.14100
C 	C 	0.33870 0.66524 0.70932 -0.09900
H 	H 	0.33602 0.56737 0.68422 0.10300
H 	H 	0.37495 0.70939 0.71945 0.11500
C 	C 	0.43820 0.67813 0.70775 -0.07300
H 	H 	0.44376 0.60019 0.75277 0.11000
F 	F 	0.44358 0.77008 0.65807 -0.39900
C 	C 	0.45007 0.68983 0.21526 -0.07300
C 	C 	0.47811 0.75332 0.19113 0.34600
H 	H 	0.46824 0.61621 0.25202 0.11400
F 	F 	0.44318 0.77988 0.17502 -0.40900
C 	C 	0.39119 0.19494 0.57326 -0.15200
C 	C 	0.38440 0.20362 0.53484 0.02500
C 	C 	0.44354 0.22855 0.52307 0.00100
H 	H 	0.44166 0.21414 0.59301 0.13000
C 	C 	0.47179 0.28693 0.49470 0.32500
C 	C 	0.47351 0.19498 0.54144 -0.12800
F 	F 	0.44327 0.31989 0.47665 -0.39300
H 	H 	0.45110 0.14916 0.56277 0.12000
C 	C 	0.37193 0.09326 0.09905 -0.13800
C 	C 	0.40128 0.15324 0.07204 0.02300
C 	C 	0.36649 0.18265 0.05111 0.29000
C 	C 	0.46564 0.18262 0.06367 0.00200
F 	F 	0.39575 0.24214 0.02611 -0.40500
H 	H 	0.39902 0.07087 0.11590 0.13500
C 	C 	0.46458 0.18780 0.02748 -0.11400
H 	H 	0.41632 0.16907 0.00591 0.12600
Co	Co	0.01898 0.89722 0.62893 1.20900
C 	C 	0.47015 0.64637 0.73249 -0.09100
C 	C 	0.47339 0.73842 0.68196 0.34900
F 	F 	0.52955 0.19923 0.12721 -0.41200
C 	C 	0.48808 0.66412 0.23229 -0.09200
C 	C 	0.53136 0.31286 0.48610 -0.09400
C 	C 	0.53421 0.22187 0.53375 0.33900
C 	C 	0.52798 0.20490 0.09187 0.31000
C 	C 	0.52606 0.21899 0.01863 0.34000
F 	F 	0.52498 0.22731 0.98275 -0.39900
C 	C 	0.53746 0.76413 0.67909 -0.11200
C 	C 	0.53339 0.67126 0.72898 0.31100
C 	C 	0.54695 0.69632 0.22037 0.31000
C 	C 	0.53947 0.78738 0.18109 -0.11100
C 	C 	0.56466 0.28205 0.50680 -0.07300
H 	H 	0.55398 0.35888 0.46494 0.11800
F 	F 	0.56583 0.19158 0.55424 -0.42600
F 	F 	0.56115 0.63752 0.75118 -0.40600
H 	H 	0.56371 0.81014 0.65867 0.14100
C 	C 	0.57148 0.75723 0.19350 0.00300
F 	F 	0.55697 0.79381 0.11274 -0.39700
H 	H 	0.56002 0.83578 0.16191 0.14200
C 	C 	0.58929 0.23531 0.08318 -0.09500
C 	C 	0.58908 0.24488 0.04606 -0.07300
O 	O 	0.01404 0.90016 0.02750 -0.36500
C 	C 	0.56643 0.72942 0.70148 0.00500
F 	F 	0.57735 0.66644 0.23296 -0.40900
C 	C 	0.99505 0.96708 0.32463 0.01500
O 	O 	0.97183 0.12159 0.61728 -0.41100
C 	C 	0.98539 0.96373 0.28751 0.07200
C 	C 	0.00242 0.97861 0.39164 0.11100
O 	O 	0.97426 0.94414 0.20405 -0.34300
C 	C 	0.95619 0.96566 0.21516 0.33500
C 	C 	0.74242 0.32061 0.01199 0.13700
C 	C 	0.77925 0.38711 0.00961 -0.11100
C 	C 	0.75310 0.40624 0.01905 0.14000
C 	C 	0.69133 0.35903 0.03135 -0.10600
C 	C 	0.65479 0.29316 0.03386 0.13700
C 	C 	0.68017 0.27383 0.02419 -0.09400
H 	H 	0.82747 0.42342 0.00045 0.09900
H 	H 	0.67150 0.37371 0.03891 0.10300
H 	H 	0.65193 0.22261 0.02639 0.11200
C 	C 	0.72591 0.31934 0.50484 0.14100
C 	C 	0.65569 0.28994 0.49897 -0.08800
C 	C 	0.63667 0.31838 0.50565 0.13500
C 	C 	0.68776 0.37805 0.51607 -0.11500
C 	C 	0.75768 0.40791 0.52156 0.14300
C 	C 	0.77685 0.37908 0.51551 -0.10900
H 	H 	0.61630 0.24329 0.49138 0.12600
H 	H 	0.67332 0.39960 0.52190 0.09500
H 	H 	0.83116 0.40156 0.52059 0.10600
Co	Co	0.93926 0.93438 0.14797 1.20200
Co	Co	0.99476 0.88399 0.12622 1.18200
Co	Co	0.92053 0.04104 0.13748 1.15600
C 	C 	0.93771 0.78353 0.09085 0.33800
O 	O 	0.92456 0.10667 0.08447 -0.38000
O 	O 	0.96069 0.01039 0.12642 -0.79800
C 	C 	0.89999 0.09018 0.05259 0.36300
O 	O 	0.93779 0.85776 0.15836 -0.42400
C 	C 	0.80142 0.90658 0.12984 0.35000
O 	O 	0.91670 0.05925 0.04969 -0.39300
O 	O 	0.82144 0.96737 0.11632 -0.36100
O 	O 	0.83355 0.88982 0.12712 -0.36100
O 	O 	0.91073 0.97790 0.19174 -0.35700
O 	O 	0.00227 0.80431 0.10162 -0.34900
O 	O 	0.92171 0.81464 0.09420 -0.37400
Co	Co	0.95948 0.93568 0.65807 1.18900
Co	Co	0.91861 0.02524 0.64865 1.15800
C 	C 	0.97327 0.80335 0.58862 0.31600
O 	O 	0.84021 0.00265 0.59965 -0.39800
O 	O 	0.95481 0.99914 0.63045 -0.72900
C 	C 	0.85440 0.03901 0.56550 0.33000
O 	O 	0.97600 0.87000 0.66981 -0.42700
C 	C 	0.82783 0.87875 0.67271 0.35800
O 	O 	0.98379 0.96166 0.60344 -0.56500
O 	O 	0.89817 0.04611 0.55444 -0.35100
O 	O 	0.86327 0.93246 0.68295 -0.36700
O 	O 	0.85567 0.87096 0.65873 -0.36600
O 	O 	0.00852 0.85207 0.56217 -0.34600
O 	O 	0.95859 0.81229 0.61085 -0.34000
C 	C 	0.96025 0.92987 0.84260 -0.05800
C 	C 	0.95706 0.92964 0.87587 -0.04100
H 	H 	0.91541 0.89218 0.82740 0.09400
H 	H 	0.91039 0.89085 0.88655 0.07900
C 	C 	0.95188 0.91871 0.38122 -0.07600
C 	C 	0.94803 0.91304 0.34777 0.00200
C 	C 	0.97458 0.96302 0.25528 -0.05900
H 	H 	0.91597 0.87641 0.39914 0.07800
H 	H 	0.90803 0.86687 0.33968 0.06700
C 	C 	0.63159 0.75443 0.69624 0.02800
C 	C 	0.63610 0.76501 0.66014 0.29100
C 	C 	0.70061 0.79960 0.65346 -0.04600
C 	C 	0.76076 0.82350 0.68277 -0.14000
C 	C 	0.75502 0.80609 0.71999 0.38200
C 	C 	0.69086 0.77260 0.72652 -0.13700
F 	F 	0.57846 0.74426 0.63115 -0.39700
H 	H 	0.70431 0.81164 0.62484 0.10800
F 	F 	0.81250 0.82595 0.74916 -0.43200
H 	H 	0.68772 0.76335 0.75469 0.14200
C 	C 	0.69105 0.79824 0.20071 -0.13500
C 	C 	0.62787 0.78774 0.17667 0.02600
C 	C 	0.61921 0.80779 0.13650 0.29000
C 	C 	0.67518 0.84325 0.12084 -0.04100
C 	C 	0.73911 0.85622 0.14501 -0.14400
C 	C 	0.74555 0.83023 0.18486 0.37700
H 	H 	0.66939 0.86214 0.08998 0.11200
F 	F 	0.80564 0.83838 0.20836 -0.43900
H 	H 	0.69832 0.78266 0.23166 0.14300
C 	C 	0.84508 0.18130 0.50692 -0.13400
C 	C 	0.78373 0.15687 0.51283 0.01100
C 	C 	0.73863 0.08981 0.52828 0.32000
C 	C 	0.75857 0.04905 0.54179 -0.11700
C 	C 	0.82379 0.07508 0.54009 -0.11800
C 	C 	0.86492 0.14052 0.52021 0.36300
C 	C 	0.77328 0.20248 0.50970 0.00800
F 	F 	0.67775 0.06513 0.53271 -0.41300
H 	H 	0.72520 0.99811 0.55574 0.15900
F 	F 	0.92655 0.16586 0.51641 -0.44300
H 	H 	0.87943 0.23276 0.49421 0.12700
C 	C 	0.79717 0.22369 0.54205 0.31800
C 	C 	0.78342 0.26345 0.54000 -0.08800
C 	C 	0.74618 0.28291 0.50555 -0.07000
C 	C 	0.72426 0.26348 0.47277 0.34400
C 	C 	0.73763 0.22319 0.47494 -0.11900
F 	F 	0.83257 0.20461 0.57568 -0.41300
H 	H 	0.80034 0.27800 0.56544 0.11100
F 	F 	0.68951 0.28312 0.43903 -0.41600
H 	H 	0.71962 0.20746 0.44978 0.12700
C 	C 	0.85170 0.64461 0.56087 -0.14500
C 	C 	0.89561 0.62600 0.57531 0.02400
C 	C 	0.96113 0.66048 0.59919 0.29200
C 	C 	0.98406 0.71556 0.60657 -0.08600
C 	C 	0.94211 0.73696 0.58979 -0.11800
C 	C 	0.87491 0.70002 0.56801 0.37500
C 	C 	0.87440 0.57308 0.56340 0.00200
F 	F 	0.00363 0.64231 0.61384 -0.37800
H 	H 	0.03580 0.74350 0.62376 0.12000
F 	F 	0.83355 0.71982 0.55205 -0.42200
H 	H 	0.80051 0.61741 0.54303 0.12800
C 	C 	0.85499 0.51208 0.58938 0.32000
C 	C 	0.82366 0.45893 0.57627 -0.09400
C 	C 	0.81044 0.46613 0.53708 -0.07900
C 	C 	0.83543 0.52836 0.51182 0.34400
C 	C 	0.86737 0.58169 0.52497 -0.12700
F 	F 	0.86283 0.50347 0.62680 -0.40100
H 	H 	0.80524 0.41113 0.59604 0.11100
F 	F 	0.82439 0.53622 0.47400 -0.41700
H 	H 	0.88376 0.62905 0.50495 0.12100
C 	C 	0.88091 0.22084 0.98823 -0.13100
C 	C 	0.81837 0.19297 0.99462 0.02600
C 	C 	0.77297 0.12467 0.00664 0.28200
C 	C 	0.79481 0.08612 0.01781 -0.05200
C 	C 	0.86308 0.11588 0.01892 -0.14800
C 	C 	0.90242 0.18195 0.99948 0.39700
C 	C 	0.80596 0.23510 0.99511 0.00900
F 	F 	0.71045 0.09627 0.01088 -0.41700
H 	H 	0.76214 0.03434 0.03061 0.08700
F 	F 	0.96596 0.21046 0.99665 -0.41100
H 	H 	0.91498 0.27311 0.97717 0.14000
C 	C 	0.84565 0.26788 0.02461 0.29900
C 	C 	0.82769 0.29986 0.02844 -0.09000
C 	C 	0.76984 0.29922 0.00303 -0.08000
C 	C 	0.73248 0.26956 0.97227 0.35000
C 	C 	0.75048 0.23762 0.96839 -0.11600
F 	F 	0.89964 0.26615 0.05061 -0.42000
H 	H 	0.85691 0.32264 0.05219 0.09800
F 	F 	0.67728 0.26971 0.94695 -0.40200
H 	H 	0.72003 0.21318 0.94532 0.13500
C 	C 	0.77463 0.55765 0.00131 -0.13300
C 	C 	0.82821 0.58144 0.03316 0.01200
C 	C 	0.86749 0.55647 0.05443 0.30000
C 	C 	0.84835 0.50348 0.04646 -0.08700
C 	C 	0.79032 0.47541 0.01703 -0.08400
C 	C 	0.75687 0.50595 0.99271 0.35700
C 	C 	0.84065 0.62978 0.04552 0.01600
F 	F 	0.92255 0.58192 0.08369 -0.41700
H 	H 	0.87559 0.48137 0.06487 0.10200
F 	F 	0.70281 0.48145 0.96290 -0.40600
H 	H 	0.74493 0.57739 0.98414 0.14900
C 	C 	0.85767 0.69104 0.02054 0.28800
C 	C 	0.87781 0.73914 0.03405 -0.06100
C 	C 	0.88489 0.72785 0.07302 -0.13000
C 	C 	0.86038 0.66443 0.09671 0.37800
C 	C 	0.83808 0.61553 0.08296 -0.12900
F 	F 	0.85871 0.70531 0.98392 -0.41300
H 	H 	0.89379 0.78709 0.01503 0.09600
F 	F 	0.86401 0.65177 0.13406 -0.40200
H 	H 	0.82189 0.56748 0.10195 0.13700
H 	H 	0.63764 0.25476 0.10460 0.10500
