data_crystal

_cell_length_a 30.99207
_cell_length_b 30.74668
_cell_length_c 16.71709
_cell_angle_alpha 88.23328
_cell_angle_beta  93.52204
_cell_angle_gamma 93.57665

_symmetry_space_group_name_	'P 1'
_symmetry_space_group_name_H-M	'P 1'

loop_
_symmetry_equiv_pos_as_xyz
  x,y,z

loop_
_atom_site_label
_atom_site_type_symbol
_atom_site_fract_x
_atom_site_fract_y
_atom_site_fract_z
_atom_site_charge
Zn	Zn	0.76217 0.96553 0.33606 1.21700
Zn	Zn	0.80827 0.90696 0.49074 1.19700
C 	C 	0.77178 0.84321 0.15475 0.33200
Zn	Zn	0.79899 0.87305 0.31846 1.22300
Zn	Zn	0.76622 0.93758 0.16430 1.19400
H 	H 	0.74246 0.88986 0.40489 0.17300
C 	C 	0.88144 0.86234 0.40162 0.29600
O 	O 	0.72639 0.98666 0.14852 -0.44900
O 	O 	0.74997 0.02295 0.26173 -0.39500
O 	O 	0.77039 0.90539 0.39309 -0.80900
O 	O 	0.83675 0.96688 0.48293 -0.45600
O 	O 	0.69945 0.94720 0.31739 -0.43200
O 	O 	0.78022 0.00492 0.42618 -0.43900
O 	O 	0.71326 0.90051 0.21919 -0.40800
O 	O 	0.80025 0.84511 0.52237 -0.45200
H 	H 	0.83111 0.95486 0.26458 0.17400
O 	O 	0.79101 0.81549 0.39556 -0.38100
O 	O 	0.80242 0.93889 0.26614 -0.77700
O 	O 	0.78448 0.88155 0.12443 -0.46000
O 	O 	0.86204 0.86569 0.32965 -0.43300
O 	O 	0.76825 0.83706 0.23271 -0.42200
O 	O 	0.87233 0.88895 0.45743 -0.39000
C 	C 	0.72529 0.02050 0.19457 0.29200
C 	C 	0.81785 0.00383 0.46840 0.28300
C 	C 	0.68648 0.91564 0.26804 0.29100
C 	C 	0.78752 0.81254 0.47456 0.29100
Zn	Zn	0.76280 0.54129 0.87227 1.22700
Zn	Zn	0.71615 0.60500 0.00086 1.19600
C 	C 	0.74958 0.65863 0.66135 0.33600
Zn	Zn	0.72917 0.63211 0.82445 1.22700
Zn	Zn	0.75695 0.56439 0.69041 1.20100
H 	H 	0.78599 0.61838 0.93437 0.18300
C 	C 	0.64330 0.61647 0.87276 0.30200
O 	O 	0.78922 0.51107 0.68873 -0.45000
O 	O 	0.77050 0.48382 0.81019 -0.40300
O 	O 	0.75808 0.60305 0.91743 -0.79200
O 	O 	0.71032 0.54437 0.04604 -0.45600
O 	O 	0.82492 0.55579 0.86132 -0.44000
O 	O 	0.74526 0.50282 0.96252 -0.42500
O 	O 	0.81456 0.59879 0.74727 -0.40100
O 	O 	0.69936 0.66601 0.99438 -0.45100
H 	H 	0.69460 0.55261 0.78190 0.19600
O 	O 	0.73463 0.69269 0.88494 -0.36900
O 	O 	0.72424 0.56641 0.78763 -0.79000
O 	O 	0.74131 0.61946 0.63280 -0.46100
O 	O 	0.66626 0.63505 0.81657 -0.42800
O 	O 	0.75955 0.66395 0.73813 -0.41900
O 	O 	0.66064 0.58677 0.92052 -0.41600
C 	C 	0.79668 0.48533 0.75126 0.32100
C 	C 	0.71162 0.50867 0.00484 0.31500
C 	C 	0.83924 0.58587 0.80990 0.31100
C 	C 	0.72232 0.69730 0.95816 0.29800
Zn	Zn	0.14248 0.74966 0.64009 1.22600
Zn	Zn	0.08662 0.70846 0.78804 1.19900
C 	C 	0.01320 0.73836 0.47440 0.31300
Zn	Zn	0.05770 0.69194 0.61167 1.21900
Zn	Zn	0.10717 0.75381 0.46358 1.20000
H 	H 	0.06066 0.76362 0.68086 0.18200
C 	C 	0.11849 0.63086 0.69185 0.30200
O 	O 	0.16448 0.78459 0.45815 -0.46300
O 	O 	0.19926 0.75884 0.57379 -0.38400
O 	O 	0.07949 0.73871 0.68262 -0.79200
O 	O 	0.13943 0.74125 0.83279 -0.46200
O 	O 	0.13710 0.81253 0.63641 -0.43600
O 	O 	0.18158 0.72956 0.72878 -0.42700
O 	O 	0.08752 0.80785 0.53122 -0.41800
O 	O 	0.04228 0.65998 0.79822 -0.45400
H 	H 	0.13257 0.68915 0.54460 0.17800
O 	O 	0.00371 0.67479 0.68105 -0.40200
O 	O 	0.11407 0.71300 0.55625 -0.79400
O 	O 	0.04491 0.74538 0.42582 -0.44100
O 	O 	0.08438 0.63397 0.63963 -0.41700
O 	O 	0.01204 0.70314 0.52254 -0.41100
O 	O 	0.12832 0.66105 0.74521 -0.40600
C 	C 	0.19965 0.77183 0.49786 0.31900
C 	C 	0.17776 0.73834 0.80456 0.31500
C 	C 	0.11597 0.83123 0.57597 0.30100
C 	C 	0.00605 0.65719 0.75352 0.31300
Zn	Zn	0.38547 0.77453 0.14233 1.22800
Zn	Zn	0.42802 0.75408 0.97329 1.20300
C 	C 	0.53057 0.80608 0.25017 0.31500
Zn	Zn	0.48003 0.74881 0.13591 1.22400
Zn	Zn	0.43882 0.79598 0.29529 1.19700
H 	H 	0.45148 0.81659 0.06516 0.19900
C 	C 	0.43241 0.66877 0.07890 0.30900
O 	O 	0.38005 0.80774 0.32466 -0.46200
O 	O 	0.34025 0.76520 0.23278 -0.38400
O 	O 	0.44062 0.78598 0.07329 -0.79300
O 	O 	0.36601 0.76585 0.95216 -0.45700
O 	O 	0.37525 0.83634 0.13911 -0.43800
O 	O 	0.34286 0.74060 0.07359 -0.42400
O 	O 	0.43695 0.85369 0.21530 -0.41100
O 	O 	0.47858 0.72256 0.94439 -0.45800
H 	H 	0.42077 0.72200 0.23739 0.18500
O 	O 	0.52464 0.75016 0.04428 -0.39700
O 	O 	0.43040 0.75062 0.21389 -0.79900
O 	O 	0.50291 0.80890 0.30645 -0.44800
O 	O 	0.46706 0.68442 0.12147 -0.42100
O 	O 	0.53002 0.77051 0.20742 -0.41700
O 	O 	0.40700 0.69502 0.03771 -0.40800
C 	C 	0.34458 0.78414 0.30282 0.29400
C 	C 	0.33505 0.74978 0.99686 0.34400
C 	C 	0.40122 0.86539 0.17602 0.32700
C 	C 	0.51705 0.72518 0.98223 0.32500
Zn	Zn	0.24884 0.03850 0.34047 1.22300
Zn	Zn	0.18938 0.08407 0.47461 1.20000
C 	C 	0.23948 0.17083 0.17249 0.31400
Zn	Zn	0.21360 0.13034 0.32075 1.22700
Zn	Zn	0.24063 0.07563 0.16605 1.19900
H 	H 	0.26414 0.10743 0.43105 0.18600
C 	C 	0.12435 0.12494 0.34655 0.30700
O 	O 	0.27622 0.02540 0.14995 -0.45500
O 	O 	0.25683 0.98705 0.26229 -0.40900
O 	O 	0.23786 0.09329 0.40397 -0.80700
O 	O 	0.17203 0.02171 0.45749 -0.45700
O 	O 	0.31124 0.05789 0.33268 -0.43300
O 	O 	0.23454 0.99290 0.42202 -0.43800
O 	O 	0.29773 0.10598 0.22754 -0.41000
O 	O 	0.18151 0.14431 0.50537 -0.45400
H 	H 	0.17981 0.05329 0.25837 0.18000
O 	O 	0.21563 0.18286 0.40364 -0.37800
O 	O 	0.20891 0.06844 0.26450 -0.78700
O 	O 	0.22508 0.13584 0.13304 -0.45800
O 	O 	0.15299 0.13862 0.29648 -0.44400
O 	O 	0.24827 0.16873 0.25053 -0.42800
O 	O 	0.13153 0.09105 0.39388 -0.39800
C 	C 	0.28200 0.99307 0.20209 0.30200
C 	C 	0.19813 0.98956 0.45955 0.31700
C 	C 	0.32447 0.08938 0.28269 0.29600
C 	C 	0.20362 0.17940 0.47868 0.30500
Zn	Zn	0.30828 0.46219 0.83379 1.21500
Zn	Zn	0.24123 0.41637 0.67642 1.19800
C 	C 	0.26558 0.33328 0.00160 0.32700
Zn	Zn	0.25205 0.37554 0.84625 1.22900
Zn	Zn	0.29953 0.42498 0.00533 1.19700
H 	H 	0.30813 0.39119 0.74942 0.17600
C 	C 	0.16668 0.39638 0.79194 0.30200
O 	O 	0.34795 0.46999 0.02256 -0.46300
O 	O 	0.33028 0.51354 0.91365 -0.40000
O 	O 	0.28459 0.40819 0.76710 -0.79800
O 	O 	0.24627 0.48026 0.65538 -0.44500
O 	O 	0.36742 0.43413 0.85071 -0.41800
O 	O 	0.28949 0.51096 0.75734 -0.41200
O 	O 	0.34408 0.38551 0.94909 -0.40100
O 	O 	0.21490 0.35820 0.65413 -0.46200
H 	H 	0.24071 0.45445 0.90899 0.17900
O 	O 	0.24012 0.32095 0.76746 -0.36900
O 	O 	0.26545 0.43600 0.90430 -0.79000
O 	O 	0.26893 0.36956 0.04210 -0.45800
O 	O 	0.19065 0.38069 0.85169 -0.44000
O 	O 	0.27503 0.33342 0.92597 -0.41400
O 	O 	0.18342 0.42601 0.74208 -0.40500
C 	C 	0.35119 0.50777 0.98372 0.31200
C 	C 	0.25217 0.50849 0.71304 0.27900
C 	C 	0.37280 0.39838 0.89726 0.29800
C 	C 	0.22620 0.32189 0.69097 0.29500
Zn	Zn	0.87285 0.26799 0.64629 1.22600
Zn	Zn	0.90759 0.26346 0.46376 1.20100
C 	C 	0.01784 0.27918 0.74156 0.31400
Zn	Zn	0.96318 0.23697 0.61437 1.22300
Zn	Zn	0.93079 0.26419 0.79936 1.19900
H 	H 	0.93968 0.31197 0.57522 0.19000
C 	C 	0.90629 0.16783 0.54180 0.30900
O 	O 	0.87579 0.27833 0.84344 -0.46100
O 	O 	0.82928 0.25393 0.73957 -0.39400
O 	O 	0.92604 0.28207 0.57262 -0.79400
O 	O 	0.84737 0.28240 0.45891 -0.46200
O 	O 	0.87137 0.32932 0.66944 -0.44200
O 	O 	0.82545 0.24578 0.57206 -0.43100
O 	O 	0.93504 0.32985 0.74543 -0.41600
O 	O 	0.95313 0.23432 0.41108 -0.44900
H 	H 	0.90355 0.20278 0.71091 0.17600
O 	O 	0.00344 0.24118 0.51582 -0.39100
O 	O 	0.91612 0.23262 0.69997 -0.79600
O 	O 	0.99505 0.26779 0.80365 -0.45800
O 	O 	0.94373 0.17689 0.58233 -0.42800
O 	O 	0.01745 0.25246 0.68095 -0.41000
O 	O 	0.88407 0.19923 0.50675 -0.41300
C 	C 	0.83648 0.26640 0.81435 0.32200
C 	C 	0.81654 0.26373 0.50096 0.31500
C 	C 	0.90101 0.34977 0.71591 0.30300
C 	C 	0.99127 0.22629 0.44472 0.31500
Zn	Zn	0.63235 0.26676 0.14149 1.22400
Zn	Zn	0.56900 0.21803 0.27277 1.20100
C 	C 	0.50826 0.27981 0.96206 0.29000
Zn	Zn	0.54312 0.21912 0.09219 1.21600
Zn	Zn	0.60308 0.28620 0.96549 1.19900
H 	H 	0.55088 0.28390 0.18229 0.18300
C 	C 	0.59766 0.14794 0.15606 0.29900
O 	O 	0.66249 0.31305 0.97426 -0.45300
O 	O 	0.69177 0.27447 0.08148 -0.38100
O 	O 	0.56738 0.25766 0.17725 -0.78800
O 	O 	0.62211 0.24237 0.33183 -0.46200
O 	O 	0.63280 0.33033 0.15119 -0.43500
O 	O 	0.66656 0.23782 0.22824 -0.43200
O 	O 	0.58370 0.33452 0.04602 -0.42900
O 	O 	0.52174 0.17222 0.26570 -0.45700
H 	H 	0.61994 0.21447 0.03075 0.16800
O 	O 	0.48576 0.19906 0.15362 -0.39600
O 	O 	0.60313 0.23869 0.04723 -0.79300
O 	O 	0.54242 0.28453 0.91894 -0.44700
O 	O 	0.56478 0.15750 0.10419 -0.41500
O 	O 	0.50090 0.24297 0.00463 -0.41200
O 	O 	0.60835 0.17267 0.21800 -0.40100
C 	C 	0.69500 0.29275 0.00935 0.27600
C 	C 	0.66105 0.24294 0.30474 0.33700
C 	C 	0.61248 0.35385 0.09605 0.30200
C 	C 	0.48578 0.17630 0.22162 0.32100
C 	C 	0.73413 0.28813 0.96529 -0.05200
C 	C 	0.74437 0.31801 0.90305 -0.02800
C 	C 	0.77668 0.30978 0.85191 0.01100
C 	C 	0.79975 0.27209 0.86325 -0.10200
C 	C 	0.79047 0.24261 0.92693 0.07700
C 	C 	0.75776 0.25074 0.97769 -0.04200
H 	H 	0.78412 0.33296 0.80382 0.03700
H 	H 	0.74979 0.22726 0.02501 0.05300
H 	H 	0.72679 0.34728 0.89345 0.05300
I 	I 	0.82420 0.18477 0.94596 -0.15600
C 	C 	0.77297 0.25811 0.46359 -0.06100
C 	C 	0.75210 0.29468 0.43294 -0.01800
C 	C 	0.71502 0.28944 0.38198 0.01000
C 	C 	0.69865 0.24762 0.36097 -0.10600
C 	C 	0.71841 0.21070 0.39446 0.07900
C 	C 	0.75537 0.21615 0.44617 -0.03600
H 	H 	0.69952 0.31794 0.35725 0.02800
H 	H 	0.77159 0.18784 0.46962 0.05800
H 	H 	0.76554 0.32720 0.44643 0.04000
I 	I 	0.69408 0.14652 0.36607 -0.10400
C 	C 	0.47294 0.31036 0.94462 -0.04600
C 	C 	0.48058 0.35491 0.96122 -0.02900
C 	C 	0.45009 0.38531 0.93556 0.00800
C 	C 	0.41134 0.37183 0.89277 -0.08900
C 	C 	0.40528 0.32750 0.87102 0.07800
C 	C 	0.43552 0.29706 0.89820 -0.03500
H 	H 	0.45552 0.41891 0.95321 0.03700
H 	H 	0.43033 0.26333 0.88120 0.06400
H 	H 	0.51001 0.36611 0.99451 0.04700
I 	I 	0.35162 0.30563 0.79527 -0.13900
C 	C 	0.12215 0.37737 0.77747 -0.05300
C 	C 	0.10043 0.35875 0.84245 -0.01300
C 	C 	0.06759 0.32614 0.83020 0.01200
C 	C 	0.05312 0.31418 0.75209 -0.09300
C 	C 	0.07039 0.33809 0.68615 0.08000
C 	C 	0.10607 0.36804 0.69926 -0.03700
H 	H 	0.05375 0.30979 0.88180 0.04400
H 	H 	0.12150 0.38362 0.64851 0.05600
H 	H 	0.11144 0.36699 0.90319 0.05000
I 	I 	0.03937 0.33703 0.56979 -0.16100
C 	C 	0.36846 0.10950 0.29226 -0.05200
C 	C 	0.40340 0.08593 0.27260 -0.01900
C 	C 	0.44184 0.10794 0.25028 0.01200
C 	C 	0.44559 0.15369 0.24716 -0.09900
C 	C 	0.41189 0.17730 0.27345 0.07900
C 	C 	0.37386 0.15504 0.29730 -0.03900
H 	H 	0.46820 0.08948 0.23300 0.04800
H 	H 	0.34719 0.17337 0.31404 0.06100
H 	H 	0.39972 0.05074 0.26907 0.04700
I 	I 	0.41707 0.24648 0.27644 -0.14800
C 	C 	0.08892 0.15256 0.36070 -0.05800
C 	C 	0.09834 0.19627 0.38013 -0.01700
C 	C 	0.06547 0.22190 0.40081 0.00800
C 	C 	0.02252 0.20462 0.39935 -0.09000
C 	C 	0.01228 0.16267 0.36837 0.08300
C 	C 	0.04578 0.13610 0.35280 -0.03500
H 	H 	0.07361 0.25466 0.42130 0.04400
H 	H 	0.03818 0.10317 0.33276 0.05700
H 	H 	0.13137 0.21003 0.38160 0.04900
I 	I 	0.94746 0.14065 0.33508 -0.11900
C 	C 	0.24604 0.21233 0.12885 -0.05900
C 	C 	0.28007 0.24208 0.15307 -0.01500
C 	C 	0.28627 0.28159 0.11114 0.01500
C 	C 	0.25852 0.29171 0.04467 -0.09900
C 	C 	0.22425 0.26180 0.02029 0.07500
C 	C 	0.21831 0.22226 0.06241 -0.03600
H 	H 	0.31289 0.30427 0.12986 0.03700
H 	H 	0.19167 0.19950 0.04420 0.05600
H 	H 	0.30198 0.23438 0.20385 0.05600
I 	I 	0.17948 0.27593 0.92316 -0.11100
C 	C 	0.22085 0.28151 0.64673 -0.04900
C 	C 	0.17919 0.26565 0.62061 -0.01600
C 	C 	0.17372 0.23367 0.56285 0.01000
C 	C 	0.20988 0.21719 0.53036 -0.09700
C 	C 	0.25187 0.23261 0.55747 0.07500
C 	C 	0.25711 0.26458 0.61567 -0.04300
H 	H 	0.14131 0.22139 0.54369 0.04300
H 	H 	0.28934 0.27751 0.63435 0.05500
H 	H 	0.15098 0.27903 0.64350 0.05400
I 	I 	0.30798 0.20779 0.51281 -0.13800
C 	C 	0.31937 0.96602 0.19709 -0.05500
C 	C 	0.33830 0.94670 0.26679 -0.02000
C 	C 	0.37181 0.91877 0.26139 0.01100
C 	C 	0.38565 0.90875 0.18616 -0.09900
C 	C 	0.37107 0.93291 0.11796 0.08200
C 	C 	0.33750 0.96092 0.12328 -0.03900
H 	H 	0.38405 0.90167 0.31488 0.03300
H 	H 	0.32481 0.97768 0.06979 0.05900
H 	H 	0.32638 0.95242 0.32489 0.04600
I 	I 	0.39768 0.92553 0.00554 -0.12600
C 	C 	0.37740 0.54446 0.02035 -0.07100
C 	C 	0.41645 0.55968 0.98825 0.00600
C 	C 	0.43876 0.59759 0.01729 -0.01100
C 	C 	0.42139 0.62153 0.07659 -0.08200
C 	C 	0.38420 0.60396 0.11370 0.07500
C 	C 	0.36247 0.56551 0.08553 -0.02800
H 	H 	0.46755 0.61040 0.98878 0.04800
H 	H 	0.33301 0.55309 0.11218 0.04200
H 	H 	0.42883 0.54298 0.93914 0.03800
I 	I 	0.35816 0.63673 0.20794 -0.14000
C 	C 	0.13279 0.87401 0.54625 -0.06000
C 	C 	0.13552 0.88197 0.46354 -0.01400
C 	C 	0.16056 0.91784 0.43551 0.01200
C 	C 	0.18193 0.94702 0.48958 -0.10100
C 	C 	0.17880 0.93950 0.57250 0.07600
C 	C 	0.15395 0.90337 0.60043 -0.03500
H 	H 	0.16214 0.92386 0.37150 0.03200
H 	H 	0.15208 0.89742 0.66439 0.05900
H 	H 	0.11936 0.85961 0.42097 0.03200
I 	I 	0.21174 0.98208 0.65681 -0.16500
C 	C 	0.21586 0.73815 0.86034 -0.05800
C 	C 	0.22261 0.77000 0.91866 -0.02100
C 	C 	0.26044 0.77154 0.96836 0.01900
C 	C 	0.29168 0.74123 0.96008 -0.10400
C 	C 	0.28329 0.70708 0.90599 0.08100
C 	C 	0.24559 0.70594 0.85577 -0.03600
H 	H 	0.26647 0.79756 0.01064 0.03100
H 	H 	0.23942 0.68008 0.81317 0.06600
H 	H 	0.19927 0.79444 0.92360 0.04300
I 	I 	0.32642 0.65636 0.90024 -0.10500
C 	C 	0.30867 0.78050 0.35574 -0.05500
C 	C 	0.29790 0.81687 0.39726 -0.02100
C 	C 	0.26358 0.81328 0.44771 0.01400
C 	C 	0.23996 0.77331 0.45732 -0.10400
C 	C 	0.25149 0.73650 0.41730 0.07700
C 	C 	0.28573 0.74028 0.36663 -0.04300
H 	H 	0.25447 0.84188 0.47745 0.04000
H 	H 	0.29452 0.71195 0.33569 0.06200
H 	H 	0.31551 0.84810 0.38908 0.04700
I 	I 	0.21663 0.67522 0.42979 -0.17500
C 	C 	0.22111 0.54337 0.71479 -0.05100
C 	C 	0.22034 0.57588 0.65378 -0.01300
C 	C 	0.18440 0.60156 0.64064 0.00400
C 	C 	0.14840 0.59508 0.68787 -0.08800
C 	C 	0.14881 0.56188 0.74818 0.07700
C 	C 	0.18523 0.53682 0.76216 -0.04200
H 	H 	0.18532 0.62767 0.59575 0.03100
H 	H 	0.18477 0.51102 0.80780 0.04400
H 	H 	0.24719 0.58069 0.61526 0.04900
I 	I 	0.09460 0.54857 0.81861 -0.11100
C 	C 	0.60646 0.63907 0.89913 -0.06300
C 	C 	0.58402 0.66665 0.84520 -0.01100
C 	C 	0.55655 0.69622 0.87333 0.00700
C 	C 	0.55111 0.69870 0.95578 -0.08900
C 	C 	0.57349 0.67059 0.01017 0.06700
C 	C 	0.59937 0.63981 0.98109 -0.01900
H 	H 	0.53929 0.71722 0.83091 0.03600
H 	H 	0.61640 0.61843 0.02314 0.03400
H 	H 	0.58876 0.66598 0.78158 0.04900
I 	I 	0.57228 0.67517 0.13667 -0.11900
C 	C 	0.96665 0.63891 0.78785 -0.06800
C 	C 	0.95904 0.59367 0.79592 -0.01000
C 	C 	0.91786 0.57612 0.81280 0.00900
C 	C 	0.88403 0.60375 0.81976 -0.09400
C 	C 	0.89328 0.64916 0.82188 0.07600
C 	C 	0.93439 0.66654 0.80451 -0.03300
H 	H 	0.91153 0.54105 0.81499 0.04500
H 	H 	0.94099 0.70158 0.80211 0.04200
H 	H 	0.98429 0.57214 0.78497 0.04900
I 	I 	0.84724 0.69190 0.85704 -0.13500
C 	C 	0.89207 0.39223 0.74475 -0.05900
C 	C 	0.86776 0.39375 0.81232 -0.02000
C 	C 	0.83835 0.42592 0.81704 0.00700
C 	C 	0.83473 0.45820 0.75600 -0.09700
C 	C 	0.86640 0.46194 0.69772 0.07700
C 	C 	0.89413 0.42818 0.69157 -0.03700
H 	H 	0.81674 0.42426 0.86571 0.04600
H 	H 	0.91544 0.42865 0.64247 0.05000
H 	H 	0.86794 0.36719 0.85642 0.04400
I 	I 	0.87831 0.51956 0.62614 -0.12200
C 	C 	0.63128 0.39756 0.07505 -0.06600
C 	C 	0.65679 0.42139 0.13271 -0.01600
C 	C 	0.68308 0.45752 0.10939 0.01100
C 	C 	0.68407 0.47035 0.02820 -0.10200
C 	C 	0.65685 0.44776 0.97067 0.08300
C 	C 	0.63014 0.41203 0.99453 -0.03000
H 	H 	0.70329 0.47511 0.15432 0.03600
H 	H 	0.61006 0.39423 0.94969 0.04100
H 	H 	0.65738 0.41104 0.19529 0.04300
I 	I 	0.65523 0.46629 0.84741 -0.17200
C 	C 	0.64317 0.89403 0.27201 -0.05100
C 	C 	0.63552 0.86161 0.33111 -0.01800
C 	C 	0.59925 0.83227 0.32274 0.01300
C 	C 	0.57029 0.83502 0.25504 -0.09200
C 	C 	0.57724 0.86850 0.19690 0.08100
C 	C 	0.61338 0.89796 0.20605 -0.03300
H 	H 	0.59385 0.80716 0.36855 0.03800
H 	H 	0.61941 0.92272 0.15983 0.06000
H 	H 	0.65866 0.85790 0.38177 0.02800
I 	I 	0.53441 0.87521 0.09407 -0.13900
C 	C 	0.91520 0.82986 0.41978 -0.04900
C 	C 	0.94218 0.83283 0.49061 -0.02300
C 	C 	0.97137 0.80062 0.51174 0.00600
C 	C 	0.97466 0.76506 0.46222 -0.10000
C 	C 	0.94683 0.76120 0.39217 0.08100
C 	C 	0.91729 0.79345 0.37136 -0.04500
H 	H 	0.99269 0.80431 0.56526 0.02100
H 	H 	0.89570 0.78975 0.31822 0.05800
H 	H 	0.94082 0.86025 0.52934 0.04700
I 	I 	0.94764 0.70646 0.31815 -0.12200
C 	C 	0.73711 0.73618 0.00227 -0.06800
C 	C 	0.77224 0.73434 0.05882 -0.01700
C 	C 	0.78360 0.76957 0.10801 0.00800
C 	C 	0.76006 0.80708 0.10084 -0.09900
C 	C 	0.72497 0.80925 0.04296 0.07400
C 	C 	0.71382 0.77375 0.99382 -0.01800
H 	H 	0.81059 0.76763 0.15211 0.03300
H 	H 	0.68635 0.77495 0.95058 0.06100
H 	H 	0.79028 0.70523 0.06563 0.01900
I 	I 	0.68651 0.86421 0.03129 -0.13500
C 	C 	0.77257 0.77102 0.51126 -0.05200
C 	C 	0.79461 0.73339 0.50084 -0.01900
C 	C 	0.78564 0.69595 0.54780 0.01500
C 	C 	0.75459 0.69594 0.60551 -0.10200
C 	C 	0.73056 0.73288 0.61248 0.08000
C 	C 	0.73974 0.77024 0.56543 -0.04000
H 	H 	0.80400 0.66751 0.54158 0.03700
H 	H 	0.72208 0.79910 0.57235 0.04400
H 	H 	0.82004 0.73378 0.45906 0.04900
I 	I 	0.67968 0.73294 0.69218 -0.12300
C 	C 	0.84098 0.04484 0.49499 -0.05500
C 	C 	0.81795 0.07968 0.51792 -0.02100
C 	C 	0.84011 0.11818 0.54373 0.00500
C 	C 	0.88561 0.12310 0.54378 -0.09500
C 	C 	0.90896 0.08653 0.52825 0.07900
C 	C 	0.88653 0.04804 0.50220 -0.04400
H 	H 	0.82180 0.14511 0.56001 0.04100
H 	H 	0.90460 0.02059 0.48761 0.06100
H 	H 	0.78287 0.07705 0.51570 0.04800
I 	I 	0.97739 0.08638 0.54945 -0.11200
C 	C 	0.69159 0.05253 0.17609 -0.04600
C 	C 	0.70322 0.09525 0.15028 -0.01700
C 	C 	0.67117 0.12500 0.13117 0.00800
C 	C 	0.62701 0.11296 0.14016 -0.08900
C 	C 	0.61522 0.06904 0.16031 0.07500
C 	C 	0.64743 0.03916 0.17828 -0.03600
H 	H 	0.68096 0.15845 0.11521 0.02900
H 	H 	0.63804 0.00574 0.19500 0.05900
H 	H 	0.73704 0.10570 0.14586 0.04300
I 	I 	0.54927 0.04694 0.16514 -0.10100
