data_crystal

_cell_length_a 38.95779
_cell_length_b 38.28587
_cell_length_c 23.07626
_cell_angle_alpha 89.95770
_cell_angle_beta  89.94366
_cell_angle_gamma 87.40337

_symmetry_space_group_name_	'P 1'
_symmetry_space_group_name_H-M	'P 1'

loop_
_symmetry_equiv_pos_as_xyz
  x,y,z

loop_
_atom_site_label
_atom_site_type_symbol
_atom_site_fract_x
_atom_site_fract_y
_atom_site_fract_z
_atom_site_charge
C 	C 	0.44713 0.55195 0.98568 -0.02800
C 	C 	0.47853 0.56793 0.98219 -0.02100
C 	C 	0.44592 0.51529 0.98999 0.02100
C 	C 	0.47696 0.49457 0.98934 0.00300
C 	C 	0.50886 0.51081 0.98600 0.00900
C 	C 	0.50966 0.54773 0.98223 0.01300
C 	C 	0.47616 0.45762 0.99168 0.01800
C 	C 	0.50729 0.43740 0.99050 -0.02600
C 	C 	0.53992 0.49014 0.98693 0.01400
C 	C 	0.54174 0.56369 0.97878 0.01300
C 	C 	0.57223 0.54298 0.97988 -0.03800
C 	C 	0.57168 0.50666 0.98569 0.01200
C 	C 	0.41418 0.49884 0.99462 0.00500
C 	C 	0.41366 0.46238 0.99753 -0.03500
C 	C 	0.44409 0.44163 0.99499 0.00800
C 	C 	0.54408 0.60212 0.97660 0.03200
C 	C 	0.54059 0.61984 0.92351 -0.01600
C 	C 	0.54858 0.65502 0.91949 0.00600
C 	C 	0.56112 0.67237 0.96809 0.03900
C 	C 	0.56285 0.65520 0.02180 0.00200
C 	C 	0.55438 0.62021 0.02602 -0.01700
C 	C 	0.60452 0.48678 0.99531 0.03200
C 	C 	0.61798 0.48376 0.05153 -0.02000
C 	C 	0.65216 0.47227 0.05983 0.00500
C 	C 	0.62463 0.47558 0.94782 -0.01700
C 	C 	0.65873 0.46373 0.95620 0.00900
C 	C 	0.67311 0.46395 0.01190 0.03100
C 	C 	0.38114 0.51930 0.99589 0.03200
C 	C 	0.36950 0.53495 0.04766 -0.02400
C 	C 	0.33655 0.55084 0.05069 0.00200
C 	C 	0.31494 0.55101 0.00207 0.03800
C 	C 	0.32672 0.53565 0.95017 0.00500
C 	C 	0.35982 0.52015 0.94693 -0.02000
C 	C 	0.44167 0.40321 0.99277 0.03000
C 	C 	0.43075 0.38730 0.94168 -0.02000
C 	C 	0.42414 0.35175 0.94128 -0.00000
C 	C 	0.42841 0.33178 0.99196 0.03900
C 	C 	0.44073 0.34732 0.04244 0.00200
C 	C 	0.44675 0.38307 0.04314 -0.02100
C 	C 	0.53871 0.45343 0.98859 -0.02400
H 	H 	0.53251 0.60612 0.88517 0.08100
H 	H 	0.54609 0.66845 0.87827 0.10300
H 	H 	0.57176 0.66866 0.05983 0.09500
H 	H 	0.55702 0.60677 0.06722 0.07900
H 	H 	0.30998 0.53510 0.91275 0.10100
H 	H 	0.36856 0.50789 0.90692 0.07900
H 	H 	0.32752 0.56237 0.09109 0.09500
H 	H 	0.38574 0.53418 0.08577 0.07700
H 	H 	0.42669 0.40268 0.90265 0.07500
H 	H 	0.41528 0.33979 0.90182 0.09200
H 	H 	0.45511 0.39517 0.08282 0.07700
H 	H 	0.44511 0.33184 0.08127 0.10100
H 	H 	0.60246 0.49198 0.08849 0.07500
H 	H 	0.66285 0.47159 0.10315 0.08900
H 	H 	0.61427 0.47741 0.90432 0.08300
H 	H 	0.67447 0.45613 0.91916 0.10300
H 	H 	0.42375 0.56832 0.98481 0.08000
H 	H 	0.47843 0.59616 0.97951 0.06900
H 	H 	0.59672 0.55538 0.97813 0.10400
H 	H 	0.56210 0.43707 0.98773 0.06500
H 	H 	0.50739 0.40914 0.99116 0.06400
H 	H 	0.38923 0.44998 0.00080 0.08200
Zn	Zn	0.37533 0.12306 0.97076 1.23600
C 	C 	0.31612 0.08184 0.98890 0.33100
O 	O 	0.37869 0.11221 0.05390 -0.36800
O 	O 	0.33701 0.05774 0.01194 -0.40000
O 	O 	0.41240 0.06365 0.03581 -0.42400
C 	C 	0.38518 0.08048 0.86807 0.31600
O 	O 	0.39604 0.10728 0.89721 -0.35900
O 	O 	0.37150 0.05474 0.89602 -0.44700
C 	C 	0.39938 0.08670 0.07257 0.33900
O 	O 	0.42174 0.16034 0.98074 -0.17800
Zn	Zn	0.38408 0.04463 0.97535 1.19400
O 	O 	0.32847 0.10739 0.95814 -0.36200
C 	C 	0.39877 0.18562 0.97388 0.28200
O 	O 	0.36745 0.17610 0.96812 -0.28400
C 	C 	0.51194 0.97551 0.51347 0.04600
C 	C 	0.48338 0.00004 0.51655 0.03800
C 	C 	0.51907 0.95749 0.46140 -0.04300
C 	C 	0.49681 0.96204 0.41375 0.03900
C 	C 	0.46253 0.00614 0.46768 -0.04500
C 	C 	0.46820 0.98634 0.41718 0.04000
H 	H 	0.44118 0.02524 0.46967 0.08700
H 	H 	0.54100 0.93913 0.45863 0.08700
C 	C 	0.44450 0.98829 0.37104 -0.01000
C 	C 	0.44925 0.96795 0.32092 0.03400
C 	C 	0.43177 0.98263 0.27174 -0.02000
C 	C 	0.41407 0.01451 0.28358 0.02300
S 	S 	0.42105 0.02412 0.35287 0.12600
H 	H 	0.43550 0.97301 0.22804 0.08300
C 	C 	0.50062 0.94079 0.36401 -0.01600
C 	C 	0.47743 0.94374 0.31756 0.03900
C 	C 	0.49155 0.93051 0.26459 -0.02700
C 	C 	0.52595 0.91854 0.26942 0.02800
S 	S 	0.53809 0.92500 0.33782 0.13600
H 	H 	0.47879 0.93342 0.22317 0.08700
C 	C 	0.52084 0.98214 0.61800 0.04100
C 	C 	0.53175 0.96894 0.56405 -0.02000
S 	S 	0.55664 0.93296 0.57654 0.12900
C 	C 	0.55416 0.93288 0.64885 0.02400
C 	C 	0.53372 0.96207 0.66564 -0.02500
C 	C 	0.47565 0.01664 0.57000 -0.01900
C 	C 	0.49257 0.00595 0.62105 0.03000
C 	C 	0.47265 0.01238 0.67192 -0.02300
C 	C 	0.43996 0.02724 0.66019 0.02000
S 	S 	0.43688 0.03337 0.58886 0.14100
H 	H 	0.48208 0.00760 0.71543 0.08200
H 	H 	0.53005 0.96967 0.71046 0.08800
Zn	Zn	0.62980 0.87555 0.96281 1.22900
C 	C 	0.68989 0.91676 0.97886 0.32700
O 	O 	0.59656 0.89181 0.02229 -0.38700
O 	O 	0.67453 0.94049 0.94561 -0.33800
O 	O 	0.62102 0.94361 0.03763 -0.34400
C 	C 	0.62215 0.91046 0.85418 0.33900
O 	O 	0.64028 0.88625 0.88236 -0.40000
O 	O 	0.60615 0.93606 0.88255 -0.41800
C 	C 	0.60177 0.91868 0.05584 0.32100
O 	O 	0.58801 0.83832 0.92643 -0.23400
Zn	Zn	0.62323 0.95398 0.95541 1.22000
O 	O 	0.67298 0.89017 0.99836 -0.37400
C 	C 	0.60640 0.81347 0.95117 0.28700
O 	O 	0.63391 0.82301 0.97700 -0.31500
Zn	Zn	0.10822 0.61551 0.02165 1.23500
C 	C 	0.06392 0.67716 0.03596 0.33500
O 	O 	0.09717 0.58106 0.08144 -0.38300
O 	O 	0.03922 0.66154 0.00901 -0.36200
O 	O 	0.04478 0.60662 0.10088 -0.39400
C 	C 	0.07125 0.60968 0.91509 0.32800
O 	O 	0.09519 0.62655 0.94178 -0.35100
O 	O 	0.04888 0.59247 0.94509 -0.43100
C 	C 	0.07084 0.58592 0.11644 0.32400
O 	O 	0.14946 0.57474 0.98278 -0.22300
Zn	Zn	0.03171 0.60912 0.01976 1.20700
O 	O 	0.08965 0.65858 0.05876 -0.35800
C 	C 	0.17177 0.59452 0.00628 0.28100
O 	O 	0.15924 0.62177 0.03330 -0.27800
C 	C 	0.00287 0.52670 0.56531 0.04800
C 	C 	0.97800 0.50094 0.57210 0.04900
C 	C 	0.02582 0.52469 0.51827 -0.03900
C 	C 	0.02411 0.49743 0.47774 0.03700
C 	C 	0.97666 0.47339 0.53207 -0.03800
C 	C 	0.99940 0.47159 0.48471 0.03800
H 	H 	0.95790 0.45360 0.53750 0.08300
H 	H 	0.04479 0.54430 0.51311 0.08700
C 	C 	0.99805 0.44443 0.44349 -0.00400
C 	C 	0.01955 0.44345 0.39447 0.03100
C 	C 	0.00504 0.42587 0.34639 -0.02400
C 	C 	0.97211 0.41419 0.35718 0.03800
S 	S 	0.96201 0.42535 0.42511 0.10100
H 	H 	0.01563 0.42640 0.30311 0.09700
C 	C 	0.04703 0.49480 0.43041 -0.01400
C 	C 	0.04488 0.46832 0.38873 0.04000
C 	C 	0.06020 0.47710 0.33481 -0.02900
C 	C 	0.07246 0.51094 0.33349 0.03300
S 	S 	0.06451 0.52878 0.39833 0.12900
H 	H 	0.05886 0.46118 0.29627 0.09300
C 	C 	0.98120 0.55604 0.65359 0.04800
C 	C 	0.00338 0.55453 0.60545 -0.01900
S 	S 	0.03855 0.57551 0.62328 0.15800
C 	C 	0.02661 0.58824 0.68969 -0.00700
C 	C 	0.99427 0.57538 0.70076 -0.00000
C 	C 	0.95427 0.50426 0.61825 -0.00900
C 	C 	0.95622 0.53097 0.65963 0.04100
C 	C 	0.94021 0.52283 0.71318 -0.00000
C 	C 	0.92693 0.48955 0.71372 -0.00000
S 	S 	0.93500 0.47095 0.64952 0.13400
H 	H 	0.94067 0.53920 0.75129 0.08800
H 	H 	0.98292 0.57602 0.74354 0.08900
Zn	Zn	0.88196 0.39840 0.03753 1.23400
C 	C 	0.81893 0.44044 0.04465 0.33300
O 	O 	0.90683 0.41568 0.96981 -0.41200
O 	O 	0.83621 0.46321 0.07408 -0.35600
O 	O 	0.87958 0.46939 0.96863 -0.41900
C 	C 	0.89844 0.42849 0.14604 0.33100
O 	O 	0.87849 0.40657 0.12055 -0.36600
O 	O 	0.91062 0.45448 0.11656 -0.40600
C 	C 	0.89563 0.44353 0.94119 0.33600
O 	O 	0.92926 0.35990 0.05918 -0.26400
Zn	Zn	0.88547 0.47543 0.05144 1.20100
O 	O 	0.83525 0.41490 0.01647 -0.32700
C 	C 	0.90975 0.33566 0.04087 0.28400
O 	O 	0.87974 0.34623 0.02221 -0.26000
C 	C 	0.93673 0.02391 0.03414 -0.02300
C 	C 	0.95295 0.05565 0.03413 -0.03200
C 	C 	0.95583 0.99218 0.02592 0.01100
C 	C 	0.99201 0.99260 0.01989 0.02600
C 	C 	0.00842 0.02485 0.01899 -0.01200
C 	C 	0.98874 0.05660 0.02558 0.03000
C 	C 	0.01180 0.96081 0.01496 0.00100
C 	C 	0.04748 0.96170 0.00554 -0.01500
C 	C 	0.04451 0.02527 0.01169 0.02500
C 	C 	0.00538 0.08874 0.02411 -0.00200
C 	C 	0.04108 0.08888 0.01754 -0.03200
C 	C 	0.06080 0.05763 0.01200 0.00300
C 	C 	0.93958 0.95981 0.02473 0.01700
C 	C 	0.95950 0.92854 0.02210 -0.04200
C 	C 	0.99533 0.92868 0.01860 0.02500
C 	C 	0.98589 0.12257 0.02943 0.03400
C 	C 	0.96858 0.13710 0.98121 -0.02000
C 	C 	0.95401 0.17110 0.98394 0.00500
C 	C 	0.95761 0.19112 0.03427 0.03500
C 	C 	0.97340 0.17598 0.08339 0.00200
C 	C 	0.98757 0.14185 0.08092 -0.01700
C 	C 	0.09857 0.05926 0.00798 0.03100
C 	C 	0.11912 0.05160 0.05666 -0.02300
C 	C 	0.15469 0.05465 0.05361 0.00400
C 	C 	0.11379 0.07052 0.95653 -0.01900
C 	C 	0.14933 0.07393 0.95368 0.00800
C 	C 	0.16996 0.06547 0.00191 0.03300
C 	C 	0.90172 0.95807 0.02440 0.02800
C 	C 	0.88488 0.94370 0.07200 -0.01700
C 	C 	0.85018 0.93620 0.06805 0.00300
C 	C 	0.83207 0.94301 0.01648 0.03500
C 	C 	0.84832 0.95932 0.97013 0.00400
C 	C 	0.88316 0.96636 0.97375 -0.01600
C 	C 	0.01519 0.89495 0.02153 0.02400
C 	C 	0.01380 0.87129 0.97532 -0.01200
C 	C 	0.02617 0.83675 0.98245 0.00800
C 	C 	0.03980 0.82564 0.03592 0.03100
C 	C 	0.04402 0.85003 0.08036 0.00700
C 	C 	0.03132 0.88451 0.07348 -0.01600
C 	C 	0.06358 0.99347 0.00364 -0.02900
H 	H 	0.96701 0.12230 0.94138 0.07700
H 	H 	0.94094 0.18228 0.94641 0.09700
H 	H 	0.97562 0.19105 0.12282 0.09600
H 	H 	0.00073 0.13072 0.11843 0.07500
H 	H 	0.83419 0.96571 0.93083 0.10000
H 	H 	0.89593 0.97750 0.93681 0.07800
H 	H 	0.83760 0.92434 0.10452 0.09200
H 	H 	0.89898 0.93731 0.11133 0.08100
H 	H 	0.00176 0.87927 0.93483 0.08300
H 	H 	0.02372 0.81824 0.94736 0.10000
H 	H 	0.03280 0.90273 0.10919 0.07600
H 	H 	0.05553 0.84184 0.12116 0.09500
H 	H 	0.10750 0.04335 0.09678 0.07500
H 	H 	0.17041 0.04855 0.09130 0.09300
H 	H 	0.09804 0.07694 0.91901 0.08200
H 	H 	0.16084 0.08301 0.91400 0.09900
H 	H 	0.90928 0.02415 0.04153 0.06200
H 	H 	0.93749 0.07946 0.04131 0.06500
H 	H 	0.05367 0.11359 0.01711 0.08300
H 	H 	0.09094 0.99316 0.99535 0.08700
H 	H 	0.06287 0.93781 0.99869 0.07100
H 	H 	0.94698 0.90379 0.02302 0.10000
C 	C 	0.91432 0.23737 0.06282 0.01600
C 	C 	0.94553 0.22820 0.03531 0.08800
C 	C 	0.96553 0.25454 0.01098 -0.11400
C 	C 	0.95262 0.28941 0.01166 0.07400
C 	C 	0.92160 0.29862 0.03968 0.02100
C 	C 	0.90290 0.27260 0.06782 -0.06100
C 	C 	0.87063 0.28215 0.10246 0.77700
H 	H 	0.89920 0.21695 0.08101 0.10500
H 	H 	0.96669 0.30957 0.99036 0.10700
C 	C 	0.00008 0.24542 0.98282 0.78700
F 	F 	0.86101 0.25458 0.13683 -0.39200
F 	F 	0.84391 0.29084 0.06499 -0.37300
F 	F 	0.87606 0.31019 0.13863 -0.39300
F 	F 	0.99514 0.22729 0.93195 -0.41900
F 	F 	0.02052 0.22504 0.01975 -0.42100
F 	F 	0.01765 0.27507 0.96976 -0.39800
C 	C 	0.88706 0.46163 0.78100 0.00400
C 	C 	0.92087 0.46963 0.76725 0.11100
C 	C 	0.94755 0.46229 0.80804 -0.13900
C 	C 	0.93879 0.45259 0.86471 0.08800
C 	C 	0.90455 0.44753 0.87972 -0.01800
C 	C 	0.87877 0.44950 0.83660 -0.05300
C 	C 	0.84212 0.44045 0.85050 0.77200
H 	H 	0.86696 0.46640 0.74913 0.11000
H 	H 	0.95848 0.45029 0.89784 0.08600
C 	C 	0.98506 0.46708 0.79320 0.80100
F 	F 	0.82331 0.43554 0.80052 -0.40200
F 	F 	0.82624 0.46728 0.88209 -0.41500
F 	F 	0.84192 0.40985 0.88242 -0.41100
F 	F 	0.99259 0.50170 0.80083 -0.42400
F 	F 	0.99233 0.45721 0.73674 -0.40800
F 	F 	0.00637 0.44673 0.82893 -0.39600
C 	C 	0.92630 0.44495 0.29957 0.01500
C 	C 	0.94602 0.41411 0.31090 0.09700
C 	C 	0.94438 0.38541 0.27263 -0.11700
C 	C 	0.92725 0.39002 0.21935 0.08700
C 	C 	0.90995 0.42193 0.20598 0.00700
C 	C 	0.90682 0.44846 0.24856 -0.05500
C 	C 	0.88433 0.48132 0.23865 0.77200
H 	H 	0.92737 0.46680 0.32927 0.09600
H 	H 	0.92866 0.36937 0.18720 0.10800
C 	C 	0.96292 0.35075 0.28654 0.79200
F 	F 	0.87540 0.49720 0.29075 -0.40400
F 	F 	0.85424 0.47350 0.21061 -0.41100
F 	F 	0.90196 0.50466 0.20544 -0.41400
F 	F 	0.95793 0.34205 0.34406 -0.40200
F 	F 	0.99770 0.35323 0.27626 -0.41100
F 	F 	0.95088 0.32404 0.25279 -0.39200
C 	C 	0.08035 0.77401 0.03039 0.00900
C 	C 	0.04790 0.78814 0.04620 0.09700
C 	C 	0.02244 0.76597 0.06672 -0.12800
C 	C 	0.02911 0.72961 0.06603 0.08900
C 	C 	0.06062 0.71522 0.04583 0.00000
C 	C 	0.08711 0.73759 0.02969 -0.04700
C 	C 	0.12276 0.72291 0.01351 0.77000
H 	H 	0.09997 0.79149 0.01699 0.11200
H 	H 	0.00941 0.71225 0.07958 0.09400
C 	C 	0.98783 0.78098 0.08770 0.79500
F 	F 	0.14366 0.74876 0.99399 -0.39000
F 	F 	0.12067 0.69842 0.96982 -0.39600
F 	F 	0.13818 0.70738 0.06157 -0.40400
F 	F 	0.97032 0.79715 0.04221 -0.41700
F 	F 	0.99254 0.80513 0.13116 -0.42300
F 	F 	0.96757 0.75531 0.10979 -0.40300
C 	C 	0.04981 0.62986 0.75919 0.00400
C 	C 	0.05091 0.59591 0.73645 0.11400
C 	C 	0.06799 0.56845 0.76788 -0.12400
C 	C 	0.07713 0.57418 0.82594 0.08800
C 	C 	0.07131 0.60713 0.85141 -0.00500
C 	C 	0.06014 0.63591 0.81661 -0.05800
C 	C 	0.05755 0.67265 0.84137 0.77200
H 	H 	0.03819 0.65104 0.73372 0.11100
H 	H 	0.08728 0.55267 0.85227 0.10400
C 	C 	0.07719 0.53353 0.73934 0.79500
F 	F 	0.04883 0.69731 0.79935 -0.40400
F 	F 	0.08884 0.68100 0.86450 -0.37700
F 	F 	0.03273 0.67467 0.88425 -0.42700
F 	F 	0.09666 0.53881 0.69025 -0.41300
F 	F 	0.04773 0.51694 0.72415 -0.39600
F 	F 	0.09625 0.51150 0.77587 -0.38700
C 	C 	0.10023 0.56656 0.20701 0.08600
C 	C 	0.07046 0.56746 0.17268 0.00400
C 	C 	0.04130 0.54957 0.19145 -0.06100
C 	C 	0.04155 0.53445 0.24692 0.01100
C 	C 	0.07184 0.53197 0.27981 0.09600
C 	C 	0.10173 0.54766 0.25937 -0.11300
C 	C 	0.13500 0.54472 0.29363 0.79300
H 	H 	0.12233 0.58040 0.19250 0.11900
H 	H 	0.01845 0.52339 0.26387 0.09300
C 	C 	0.00995 0.54639 0.15292 0.76700
F 	F 	0.16207 0.55829 0.26336 -0.38300
F 	F 	0.14356 0.51000 0.30561 -0.39600
F 	F 	0.13100 0.56291 0.34511 -0.41100
F 	F 	0.01970 0.53829 0.09665 -0.46600
F 	F 	0.99059 0.57756 0.15339 -0.42800
F 	F 	0.98942 0.52014 0.17217 -0.41500
C 	C 	0.75147 0.89877 0.96903 0.08500
C 	C 	0.72602 0.92041 0.99531 0.00600
C 	C 	0.73548 0.94708 0.03379 -0.06400
C 	C 	0.77035 0.95443 0.03931 0.01500
C 	C 	0.79582 0.93357 0.01145 0.08800
C 	C 	0.78649 0.90411 0.97880 -0.11800
C 	C 	0.81366 0.87926 0.95231 0.79100
H 	H 	0.74393 0.87822 0.94003 0.10200
H 	H 	0.77779 0.97652 0.06504 0.10300
C 	C 	0.70848 0.96776 0.06866 0.77700
F 	F 	0.79969 0.84850 0.93418 -0.39600
F 	F 	0.83899 0.87058 0.99246 -0.41300
F 	F 	0.82830 0.89495 0.90493 -0.41600
F 	F 	0.68675 0.94520 0.09559 -0.41100
F 	F 	0.68955 0.98996 0.03236 -0.41900
F 	F 	0.72320 0.98764 0.11128 -0.40000
C 	C 	0.60985 0.93624 0.69947 0.00900
C 	C 	0.58099 0.91702 0.68666 0.10500
C 	C 	0.57381 0.88770 0.72109 -0.12600
C 	C 	0.59056 0.88314 0.77470 0.08600
C 	C 	0.61547 0.90625 0.79200 -0.00900
C 	C 	0.62789 0.93037 0.75156 -0.05900
C 	C 	0.65815 0.95225 0.76617 0.77300
H 	H 	0.61632 0.95772 0.67146 0.10300
H 	H 	0.58224 0.86352 0.80488 0.09300
C 	C 	0.54561 0.86376 0.70412 0.79500
F 	F 	0.67323 0.96470 0.71636 -0.40100
F 	F 	0.68289 0.93247 0.79616 -0.40900
F 	F 	0.64706 0.98036 0.79997 -0.42600
F 	F 	0.54655 0.85746 0.64508 -0.40800
F 	F 	0.51403 0.87927 0.71864 -0.40800
F 	F 	0.54941 0.83188 0.73231 -0.39900
C 	C 	0.55235 0.95099 0.18913 0.01200
C 	C 	0.55004 0.91967 0.22015 0.10000
C 	C 	0.56757 0.88890 0.19999 -0.11300
C 	C 	0.58631 0.88999 0.14791 0.09000
C 	C 	0.58591 0.92050 0.11405 0.01500
C 	C 	0.56806 0.95132 0.13428 -0.05800
C 	C 	0.56540 0.98444 0.09778 0.77600
H 	H 	0.54023 0.97476 0.20658 0.10100
H 	H 	0.60051 0.86680 0.13263 0.11600
C 	C 	0.56596 0.85485 0.23352 0.79400
F 	F 	0.54111 0.00840 0.11987 -0.39500
F 	F 	0.55570 0.97682 0.04168 -0.44700
F 	F 	0.59679 0.99991 0.09705 -0.38800
F 	F 	0.53214 0.84579 0.23918 -0.39900
F 	F 	0.58002 0.85883 0.28797 -0.41000
F 	F 	0.58394 0.82759 0.20599 -0.39000
C 	C 	0.26475 0.04806 0.96947 0.08500
C 	C 	0.27875 0.07809 0.99271 -0.00800
C 	C 	0.25717 0.10348 0.02106 -0.05400
C 	C 	0.22147 0.09930 0.02189 0.00900
C 	C 	0.20751 0.06913 0.99902 0.09500
C 	C 	0.22938 0.04269 0.97402 -0.12500
C 	C 	0.21498 0.00923 0.95076 0.78700
H 	H 	0.28156 0.02887 0.94784 0.08500
H 	H 	0.20442 0.11940 0.04062 0.11000
C 	C 	0.27199 0.13522 0.04958 0.77300
F 	F 	0.24083 0.98488 0.93583 -0.40000
F 	F 	0.19543 0.01668 0.90195 -0.42100
F 	F 	0.19467 0.99420 0.99227 -0.42000
F 	F 	0.28314 0.15774 0.00739 -0.40600
F 	F 	0.29934 0.12505 0.08490 -0.41500
F 	F 	0.24781 0.15320 0.08358 -0.39400
C 	C 	0.37376 0.05146 0.77428 0.07800
C 	C 	0.39108 0.07722 0.80447 -0.00200
C 	C 	0.41842 0.09373 0.77624 -0.06500
C 	C 	0.43382 0.07747 0.72760 0.00800
C 	C 	0.41969 0.04796 0.70286 0.10200
C 	C 	0.38802 0.03634 0.72366 -0.12500
C 	C 	0.37048 0.00662 0.69388 0.78900
H 	H 	0.35058 0.04143 0.79269 0.10100
H 	H 	0.45724 0.08729 0.70962 0.10400
C 	C 	0.43018 0.12908 0.79544 0.78300
F 	F 	0.33903 0.00035 0.71889 -0.40000
F 	F 	0.39108 0.97631 0.69754 -0.40600
F 	F 	0.36486 0.01483 0.63621 -0.41000
F 	F 	0.45252 0.12480 0.84171 -0.38000
F 	F 	0.40224 0.15067 0.81104 -0.38700
F 	F 	0.44716 0.14554 0.75107 -0.38800
C 	C 	0.43733 0.05679 0.21404 0.00800
C 	C 	0.40867 0.04172 0.23899 0.09900
C 	C 	0.37554 0.04952 0.21618 -0.12200
C 	C 	0.37239 0.06793 0.16355 0.07900
C 	C 	0.40165 0.07925 0.13492 -0.00600
C 	C 	0.43390 0.07660 0.16295 -0.05700
C 	C 	0.46518 0.09247 0.13628 0.77500
H 	H 	0.46255 0.05157 0.23283 0.10000
H 	H 	0.34756 0.07117 0.14260 0.11100
C 	C 	0.34391 0.03583 0.24530 0.79000
F 	F 	0.48998 0.09789 0.17786 -0.39100
F 	F 	0.45631 0.12446 0.11113 -0.39600
F 	F 	0.47904 0.07015 0.09447 -0.38500
F 	F 	0.34428 0.04348 0.30386 -0.40600
F 	F 	0.34359 0.99999 0.23810 -0.41000
F 	F 	0.31395 0.05079 0.22212 -0.39700
C 	C 	0.44537 0.27085 0.96478 0.01700
C 	C 	0.42142 0.29414 0.99112 0.08700
C 	C 	0.38997 0.28187 0.01207 -0.11300
C 	C 	0.38381 0.24601 0.00785 0.07100
C 	C 	0.40710 0.22292 0.97908 0.03500
C 	C 	0.43764 0.23583 0.95497 -0.06400
C 	C 	0.46170 0.21286 0.91796 0.77800
H 	H 	0.46961 0.28046 0.94994 0.10400
H 	H 	0.36078 0.23596 0.02677 0.12300
C 	C 	0.36334 0.30675 0.04006 0.79000
F 	F 	0.48440 0.23254 0.88702 -0.39400
F 	F 	0.44316 0.19440 0.87829 -0.36300
F 	F 	0.48061 0.18984 0.95293 -0.37200
F 	F 	0.35556 0.33467 0.00355 -0.41800
F 	F 	0.37604 0.31911 0.09168 -0.41600
F 	F 	0.33307 0.29047 0.05175 -0.38900
C 	C 	0.25522 0.54275 0.03449 0.01800
C 	C 	0.27882 0.56397 0.00732 0.08700
C 	C 	0.26760 0.59671 0.98387 -0.11400
C 	C 	0.23223 0.60584 0.98291 0.07700
C 	C 	0.20854 0.58421 0.00891 0.02400
C 	C 	0.22029 0.55339 0.03809 -0.06400
C 	C 	0.19565 0.53135 0.07181 0.77800
H 	H 	0.26414 0.51782 0.05251 0.10800
H 	H 	0.22298 0.62966 0.96152 0.11700
C 	C 	0.29303 0.62129 0.95798 0.79000
F 	F 	0.21311 0.50762 0.10766 -0.39100
F 	F 	0.17595 0.51300 0.03359 -0.39600
F 	F 	0.17429 0.55238 0.10637 -0.40900
F 	F 	0.30474 0.60828 0.90535 -0.41800
F 	F 	0.32065 0.62465 0.99488 -0.41700
F 	F 	0.27810 0.65436 0.94897 -0.39000
C 	C 	0.76878 0.47849 0.01652 0.09400
C 	C 	0.78155 0.44613 0.03764 0.01100
C 	C 	0.75858 0.41973 0.05167 -0.05100
C 	C 	0.72334 0.42557 0.04003 0.01300
C 	C 	0.71053 0.45812 0.01972 0.09500
C 	C 	0.73330 0.48531 0.00944 -0.12100
C 	C 	0.72000 0.52118 0.98892 0.79500
H 	H 	0.78666 0.49830 0.00533 0.10200
H 	H 	0.70569 0.40493 0.04739 0.10700
C 	C 	0.77150 0.38510 0.07764 0.77400
F 	F 	0.74548 0.54524 0.99006 -0.39500
F 	F 	0.69354 0.53376 0.02427 -0.42100
F 	F 	0.70817 0.51890 0.93266 -0.41100
F 	F 	0.79478 0.39055 0.12163 -0.39200
F 	F 	0.78724 0.36466 0.03503 -0.37800
F 	F 	0.74486 0.36691 0.10102 -0.39100
C 	C 	0.61567 0.74982 0.93497 0.07700
C 	C 	0.59455 0.77755 0.95615 0.01800
C 	C 	0.56289 0.77062 0.98325 -0.06100
C 	C 	0.55163 0.73622 0.98344 0.01800
C 	C 	0.57289 0.70843 0.96280 0.08900
C 	C 	0.60579 0.71504 0.94004 -0.11600
C 	C 	0.62996 0.68526 0.91962 0.79000
H 	H 	0.63987 0.75543 0.91457 0.10500
H 	H 	0.52650 0.73085 0.00060 0.10600
C 	C 	0.54090 0.79971 0.01142 0.77600
F 	F 	0.66245 0.69664 0.90770 -0.39400
F 	F 	0.61713 0.67083 0.86966 -0.41500
F 	F 	0.63333 0.65970 0.96190 -0.41100
F 	F 	0.52492 0.82007 0.96897 -0.39700
F 	F 	0.56091 0.82042 0.04556 -0.41200
F 	F 	0.51579 0.78645 0.04664 -0.39600
