data_crystal

_cell_length_a 20.18525
_cell_length_b 17.15391
_cell_length_c 41.72984
_cell_angle_alpha 90.79394
_cell_angle_beta  91.39155
_cell_angle_gamma 111.07685

_symmetry_space_group_name_	'P 1'
_symmetry_space_group_name_H-M	'P 1'

loop_
_symmetry_equiv_pos_as_xyz
  x,y,z

loop_
_atom_site_label
_atom_site_type_symbol
_atom_site_fract_x
_atom_site_fract_y
_atom_site_fract_z
_atom_site_charge
Ni	Ni	0.02938 0.95451 0.74839 1.09300
O 	O 	0.02121 0.86917 0.71299 -0.72200
Ni	Ni	0.06465 0.94289 0.67695 1.09400
O 	O 	0.12928 0.95732 0.76196 -0.37700
O 	O 	0.10977 0.15812 0.76567 -0.40800
O 	O 	0.06159 0.84762 0.64616 -0.35800
O 	O 	0.05638 0.03027 0.71001 -0.68900
O 	O 	0.03522 0.03580 0.78461 -0.38000
O 	O 	0.13341 0.02528 0.64675 -0.35700
O 	O 	0.17501 0.14925 0.67420 -0.39300
Ni	Ni	0.13676 0.13425 0.72042 1.07100
H 	H 	0.04723 0.83165 0.71828 0.16200
H 	H 	0.01566 0.04730 0.70478 0.14000
O 	O 	0.19881 0.06882 0.73350 -0.41500
C 	C 	0.18836 0.02311 0.75919 0.31200
C 	C 	0.18729 0.09052 0.65764 0.29900
C 	C 	0.04905 0.11408 0.77852 0.30400
O 	O 	0.16121 0.67897 0.34963 -0.36600
O 	O 	0.21957 0.55618 0.36853 -0.39800
O 	O 	0.19790 0.59558 0.45948 -0.39300
O 	O 	0.13853 0.61477 0.41398 -0.37300
C 	C 	0.16996 0.75098 0.33638 0.28000
C 	C 	0.19461 0.48742 0.38464 0.32700
C 	C 	0.13854 0.57945 0.44212 0.29800
Ni	Ni	0.23080 0.69177 0.04666 1.10100
O 	O 	0.17033 0.48972 0.02920 -0.37700
O 	O 	0.12888 0.64407 0.02682 -0.35500
O 	O 	0.19513 0.74199 0.08452 -0.35700
C 	C 	0.17426 0.50900 0.05999 0.32500
C 	C 	0.11055 0.60353 0.99874 0.30300
C 	C 	0.22975 0.81977 0.09439 0.28500
O 	O 	0.21337 0.58379 0.07128 -0.39200
O 	O 	0.15857 0.59605 0.97919 -0.39900
O 	O 	0.07882 0.13881 0.27231 -0.41000
Ni	Ni	0.06464 0.15763 0.22385 1.06400
O 	O 	0.08884 0.05372 0.21324 -0.41200
C 	C 	0.07158 0.01532 0.18513 0.30600
C 	C 	0.03535 0.14782 0.29382 0.28000
O 	O 	0.06840 0.18896 0.17657 -0.39700
C 	C 	0.03703 0.26726 0.13700 -0.07600
C 	C 	0.06326 0.32437 0.11915 0.03700
C 	C 	0.10039 0.39082 0.09901 0.05200
C 	C 	0.13423 0.44598 0.08170 -0.07600
C 	C 	0.19951 0.85601 0.11844 -0.08800
C 	C 	0.17422 0.88992 0.13747 0.03300
C 	C 	0.14283 0.93262 0.15758 0.04100
C 	C 	0.11272 0.97047 0.17209 -0.10000
C 	C 	0.06082 0.21557 0.31664 -0.09400
C 	C 	0.08687 0.27565 0.33415 0.04000
C 	C 	0.12167 0.34833 0.35286 0.04800
C 	C 	0.15408 0.41162 0.36774 -0.08100
C 	C 	0.10915 0.76080 0.32118 -0.07100
C 	C 	0.05722 0.77049 0.30996 0.00200
C 	C 	0.01827 0.57200 0.45736 -0.04700
C 	C 	0.06950 0.53460 0.45678 -0.05900
C 	C 	0.05144 0.45117 0.46656 0.07300
H 	H 	0.03197 0.63625 0.45015 0.07200
N 	N 	0.10277 0.41151 0.46613 -0.01900
O 	O 	0.15406 0.43198 0.48771 -0.11600
O 	O 	0.09311 0.34797 0.44680 -0.09500
C 	C 	0.01787 0.59593 0.95756 -0.03700
C 	C 	0.03565 0.57282 0.98772 -0.09000
N 	N 	0.99989 0.48748 0.03594 -0.01700
H 	H 	0.05713 0.64466 0.94461 0.06800
O 	O 	0.50154 0.21530 0.85381 -0.37500
O 	O 	0.51350 0.31575 0.91119 -0.35300
C 	C 	0.49318 0.14117 0.84119 0.29400
O 	O 	0.53151 0.09728 0.85195 -0.39800
O 	O 	0.51362 0.13905 0.56951 -0.38100
O 	O 	0.52176 0.27625 0.56894 -0.36700
C 	C 	0.49524 0.20069 0.58092 0.28900
Ni	Ni	0.22631 0.66995 0.38649 1.10000
O 	O 	0.31150 0.71611 0.35770 -0.70600
Ni	Ni	0.39028 0.71427 0.38679 1.10400
O 	O 	0.22430 0.81909 0.34534 -0.39700
Ni	Ni	0.33140 0.83062 0.34526 1.07000
O 	O 	0.34095 0.87656 0.39137 -0.39600
O 	O 	0.46791 0.75078 0.35398 -0.36200
O 	O 	0.30713 0.68346 0.41743 -0.69900
O 	O 	0.45591 0.68132 0.41763 -0.36100
O 	O 	0.36952 0.55367 0.42342 -0.39000
Ni	Ni	0.28512 0.58034 0.44155 1.07900
H 	H 	0.30752 0.67987 0.33852 0.16300
H 	H 	0.31201 0.73024 0.43257 0.15700
C 	C 	0.39631 0.88368 0.40994 0.30300
O 	O 	0.21807 0.48290 0.41390 -0.36900
C 	C 	0.47613 0.81660 0.33610 0.28600
C 	C 	0.43531 0.60506 0.42847 0.28700
O 	O 	0.43208 0.83386 0.40593 -0.36100
O 	O 	0.44016 0.86664 0.34192 -0.38000
Ni	Ni	0.38317 0.69141 0.03517 1.10300
O 	O 	0.28773 0.66802 0.01175 -0.69800
O 	O 	0.41759 0.62250 0.00378 -0.35200
O 	O 	0.31491 0.50950 0.00753 -0.38600
O 	O 	0.43167 0.79259 0.00681 -0.34700
Ni	Ni	0.23653 0.55599 0.99421 1.08600
O 	O 	0.47942 0.85957 0.06657 -0.40100
O 	O 	0.33088 0.73189 0.06735 -0.70300
O 	O 	0.47633 0.72470 0.06075 -0.37100
O 	O 	0.28062 0.87000 0.07709 -0.40200
Ni	Ni	0.37649 0.85284 0.07087 1.06800
H 	H 	0.29249 0.70867 0.99456 0.17200
H 	H 	0.33213 0.70611 0.08834 0.15900
O 	O 	0.36753 0.87053 0.02312 -0.40900
C 	C 	0.37993 0.54362 0.99720 0.28400
C 	C 	0.41182 0.85716 0.00322 0.31000
C 	C 	0.50371 0.79990 0.07441 0.29400
C 	C 	0.51972 0.08970 0.44451 -0.02300
C 	C 	0.41154 0.94551 0.46470 -0.02600
C 	C 	0.42569 0.95591 0.43203 -0.07400
C 	C 	0.47864 0.02968 0.42180 0.10300
N 	N 	0.49227 0.04254 0.38841 -0.01900
H 	H 	0.56117 0.14574 0.43664 0.05500
H 	H 	0.37078 0.88900 0.47266 0.05000
O 	O 	0.44235 0.04523 0.36864 -0.11100
O 	O 	0.55571 0.05647 0.37809 -0.09300
C 	C 	0.52441 0.61477 0.47154 -0.03300
C 	C 	0.48705 0.57434 0.44364 -0.07400
C 	C 	0.49016 0.49691 0.43370 0.09900
C 	C 	0.52408 0.45675 0.45347 -0.02800
C 	C 	0.55691 0.49433 0.48257 -0.08600
C 	C 	0.55887 0.57484 0.49125 0.10100
N 	N 	0.59304 0.61463 0.52071 -0.02100
H 	H 	0.52295 0.67492 0.47899 0.06500
N 	N 	0.45882 0.45902 0.40349 -0.02000
O 	O 	0.57041 0.58047 0.54792 -0.09900
O 	O 	0.47470 0.50147 0.37737 -0.09900
O 	O 	0.41725 0.38084 0.40190 -0.09300
C 	C 	0.43026 0.17882 0.59816 -0.07200
C 	C 	0.37483 0.15853 0.61198 0.03900
C 	C 	0.30932 0.13385 0.62780 0.04400
C 	C 	0.25344 0.11325 0.64128 -0.08400
O 	O 	0.01031 0.53924 0.06025 -0.09800
C 	C 	0.52214 0.96753 0.93381 -0.02300
C 	C 	0.54532 0.05120 0.94454 -0.07100
C 	C 	0.52338 0.07097 0.97442 0.09900
C 	C 	0.47657 0.00765 0.99258 -0.02300
C 	C 	0.45199 0.92412 0.98153 -0.07700
C 	C 	0.47457 0.90419 0.95176 0.10100
N 	N 	0.44730 0.82018 0.93911 -0.01900
H 	H 	0.46117 0.02327 0.01581 0.06000
N 	N 	0.54875 0.15550 0.98643 -0.02200
O 	O 	0.37912 0.78133 0.93505 -0.11000
O 	O 	0.50391 0.18998 0.99501 -0.09000
C 	C 	0.42192 0.41766 0.93133 -0.01500
C 	C 	0.49019 0.42286 0.94134 -0.07700
C 	C 	0.51759 0.45741 0.97183 0.09800
C 	C 	0.47892 0.49247 0.99084 -0.02400
C 	C 	0.41272 0.49250 0.97992 -0.06700
C 	C 	0.38323 0.45297 0.95034 0.09300
N 	N 	0.31553 0.45192 0.93886 -0.02500
H 	H 	0.40008 0.38936 0.90818 0.06800
H 	H 	0.50098 0.52113 0.01392 0.07400
O 	O 	0.30769 0.52128 0.93098 -0.14200
O 	O 	0.26361 0.38102 0.93354 -0.10800
C 	C 	0.42773 0.09804 0.82389 -0.08300
C 	C 	0.37105 0.06866 0.80989 0.03900
C 	C 	0.30466 0.04307 0.79343 0.04400
C 	C 	0.24965 0.02930 0.77854 -0.08800
C 	C 	0.01646 0.20085 0.15965 0.27200
O 	O 	0.02159 0.02511 0.16694 -0.37200
C 	C 	0.50821 0.07682 0.47729 -0.07400
C 	C 	0.45271 0.00531 0.48737 0.10300
O 	O 	0.49075 0.78450 0.92976 -0.09100
O 	O 	0.38358 0.00261 0.53254 -0.09000
O 	O 	0.53673 0.20228 0.50948 -0.35900
C 	C 	0.53957 0.84863 0.31774 -0.07100
N 	N 	0.43896 0.99236 0.52068 -0.02200
O 	O 	0.99273 0.41019 0.04082 -0.08800
O 	O 	0.54175 0.16500 0.91285 -0.35300
O 	O 	0.64264 0.68834 0.52044 -0.09100
H 	H 	0.52536 0.39646 0.44609 0.05900
C 	C 	0.53362 0.39507 0.91955 0.29600
O 	O 	0.55369 0.37283 0.51125 -0.36300
C 	C 	0.55382 0.13809 0.50092 0.30400
H 	H 	0.53754 0.95217 0.91053 0.05900
O 	O 	0.47772 0.96253 0.53841 -0.12400
C 	C 	0.57255 0.82420 0.08956 -0.08500
Ni	Ni	0.58023 0.27180 0.88658 1.10500
C 	C 	0.57764 0.11793 0.92164 0.30500
Ni	Ni	0.60081 0.30429 0.53671 1.10100
O 	O 	0.60235 0.12000 0.51722 -0.39800
C 	C 	0.59015 0.44975 0.50328 0.29600
C 	C 	0.59358 0.87463 0.30284 0.03900
N 	N 	0.58458 0.45658 0.98360 -0.03800
O 	O 	0.59410 0.38597 0.98676 -0.14500
C 	C 	0.00511 0.15444 0.79265 -0.12800
O 	O 	0.61660 0.19610 0.99076 -0.11000
O 	O 	0.59728 0.44669 0.91261 -0.39400
Ni	Ni	0.61561 0.14132 0.56535 1.07300
Ni	Ni	0.64084 0.13929 0.85773 1.06700
O 	O 	0.63382 0.11923 0.90604 -0.40300
O 	O 	0.65822 0.48288 0.51046 -0.39000
C 	C 	0.63044 0.84539 0.10236 0.04100
O 	O 	0.63440 0.52593 0.99314 -0.12800
C 	C 	0.65727 0.90274 0.28554 0.04700
H 	H 	0.65870 0.28132 0.84015 0.16000
O 	O 	0.65787 0.25758 0.86170 -0.70700
O 	O 	0.66555 0.26141 0.56174 -0.70000
H 	H 	0.66815 0.28364 0.48774 0.15800
H 	H 	0.67662 0.28896 0.58323 0.15800
C 	C 	0.99717 0.78638 0.29851 0.07900
O 	O 	0.96923 0.09532 0.29412 -0.34700
C 	C 	0.00071 0.78302 0.64329 0.24900
C 	C 	0.98351 0.51118 0.00488 0.12600
Ni	Ni	0.74459 0.32523 0.88957 1.10200
O 	O 	0.80971 0.29970 0.85755 -0.35600
O 	O 	0.74976 0.15836 0.86103 -0.39600
O 	O 	0.74324 0.42263 0.86219 -0.39400
O 	O 	0.77239 0.42812 0.95844 -0.38700
O 	O 	0.66515 0.32234 0.91787 -0.69900
O 	O 	0.83271 0.40191 0.91558 -0.35600
Ni	Ni	0.68607 0.43557 0.93503 1.09500
H 	H 	0.66332 0.28446 0.93575 0.18400
O 	O 	0.75276 0.51529 0.90362 -0.37600
C 	C 	0.80053 0.22249 0.84859 0.28100
C 	C 	0.75827 0.49916 0.87316 0.32600
C 	C 	0.83215 0.43858 0.94375 0.30400
O 	O 	0.68325 0.32358 0.50620 -0.69800
Ni	Ni	0.75353 0.29359 0.53364 1.09900
Ni	Ni	0.72870 0.43596 0.48967 1.08200
O 	O 	0.80320 0.50359 0.52383 -0.36600
O 	O 	0.84417 0.33452 0.50648 -0.36700
O 	O 	0.80311 0.23935 0.56516 -0.35800
O 	O 	0.70848 0.11638 0.56205 -0.39700
C 	C 	0.82945 0.47408 0.54790 0.31700
C 	C 	0.85576 0.39241 0.48426 0.30000
C 	C 	0.76842 0.16441 0.57613 0.28900
O 	O 	0.79233 0.40221 0.56026 -0.39200
O 	O 	0.80223 0.40084 0.46788 -0.39100
O 	O 	0.98351 0.85937 0.77925 -0.34800
O 	O 	0.88475 0.80932 0.74619 -0.40800
Ni	Ni	0.92238 0.80716 0.70023 1.07000
O 	O 	0.89702 0.90973 0.68943 -0.40800
C 	C 	0.92288 0.95452 0.66426 0.30400
C 	C 	0.92066 0.80265 0.77211 0.29100
O 	O 	0.98016 0.95173 0.65103 -0.35400
O 	O 	0.94150 0.79004 0.65343 -0.38000
Ni	Ni	0.93326 0.00776 0.25767 1.09800
O 	O 	0.96197 0.10122 0.22539 -0.70900
Ni	Ni	0.93178 0.03732 0.18439 1.10000
O 	O 	0.83116 0.00807 0.25944 -0.37100
O 	O 	0.84251 0.80081 0.26169 -0.40800
O 	O 	0.95306 0.14008 0.15635 -0.34700
O 	O 	0.92089 0.94082 0.21600 -0.68500
O 	O 	0.90591 0.91748 0.29069 -0.37400
O 	O 	0.87288 0.96587 0.14653 -0.35100
O 	O 	0.82274 0.83654 0.16643 -0.39100
Ni	Ni	0.83656 0.83696 0.21565 1.07500
H 	H 	0.93735 0.14124 0.22841 0.16500
H 	H 	0.96198 0.92264 0.21501 0.14800
O 	O 	0.76988 0.89928 0.22496 -0.40600
C 	C 	0.77434 0.94100 0.25215 0.30500
C 	C 	0.81624 0.89986 0.15149 0.30400
C 	C 	0.89559 0.84106 0.28161 0.31700
C 	C 	0.69737 0.86889 0.11802 0.04600
C 	C 	0.75307 0.88576 0.13251 -0.08900
C 	C 	0.71124 0.92309 0.27058 -0.08200
C 	C 	0.94832 0.80657 0.29007 -0.13200
C 	C 	0.98183 0.40556 0.47580 0.00200
C 	C 	0.92973 0.44215 0.47527 -0.08300
C 	C 	0.94876 0.52665 0.46631 0.11900
N 	N 	0.89803 0.56717 0.46657 -0.02900
H 	H 	0.96818 0.34120 0.48282 0.07200
O 	O 	0.90529 0.62613 0.48780 -0.09200
O 	O 	0.85537 0.55862 0.44181 -0.11600
C 	C 	0.88633 0.00289 0.64952 -0.09300
C 	C 	0.85934 0.04417 0.63485 0.04200
C 	C 	0.82969 0.09080 0.61562 0.03800
C 	C 	0.80342 0.12722 0.59797 -0.08900
C 	C 	0.88546 0.53304 0.56711 -0.08000
C 	C 	0.92825 0.58794 0.58315 0.05600
C 	C 	0.96940 0.65672 0.60275 0.02900
C 	C 	0.99254 0.71645 0.62073 -0.05300
C 	C 	0.91608 0.46963 0.99070 -0.03700
C 	C 	0.90012 0.48892 0.95966 -0.06900
C 	C 	0.95047 0.55449 0.94350 0.11500
H 	H 	0.87683 0.42057 0.00353 0.07900
N 	N 	0.93280 0.58027 0.91308 -0.02300
O 	O 	0.91116 0.64299 0.91161 -0.08700
O 	O 	0.94673 0.54810 0.88686 -0.08500
C 	C 	0.96154 0.17742 0.80499 0.07100
C 	C 	0.90619 0.19568 0.81980 0.02500
C 	C 	0.85774 0.20789 0.83272 -0.07300
C 	C 	0.88622 0.74091 0.79508 -0.08600
C 	C 	0.85643 0.68745 0.81368 0.04400
C 	C 	0.82130 0.62321 0.83480 0.05200
C 	C 	0.79183 0.56714 0.85245 -0.07600
