data_crystal

_cell_length_a 18.56686
_cell_length_b 17.75178
_cell_length_c 48.38952
_cell_angle_alpha 89.61400
_cell_angle_beta  89.61661
_cell_angle_gamma 119.43425

_symmetry_space_group_name_	'P 1'
_symmetry_space_group_name_H-M	'P 1'

loop_
_symmetry_equiv_pos_as_xyz
  x,y,z

loop_
_atom_site_label
_atom_site_type_symbol
_atom_site_fract_x
_atom_site_fract_y
_atom_site_fract_z
_atom_site_charge
O 	O 	0.06001 0.18956 0.75211 -0.34200
O 	O 	0.03658 0.88957 0.73832 -0.30300
O 	O 	0.03841 0.20117 0.69528 -0.32800
H 	H 	0.06386 0.05871 0.74357 0.15900
O 	O 	0.07489 0.19043 0.17911 -0.35800
O 	O 	0.06008 0.95045 0.26082 -0.34400
O 	O 	0.02262 0.91141 0.20132 -0.36400
C 	C 	0.04648 0.18441 0.06751 0.02000
C 	C 	0.06068 0.16228 0.11725 -0.00000
S 	S 	0.07424 0.22011 0.29688 0.03500
C 	C 	0.04488 0.51450 0.44918 -0.00800
H 	H 	0.04852 0.39836 0.43877 0.04900
C 	C 	0.02736 0.64109 0.46000 0.16000
H 	H 	0.03545 0.89630 0.61987 0.05900
C 	C 	0.01478 0.51862 0.00943 0.08000
H 	H 	0.86487 0.05463 0.79825 0.03500
H 	H 	0.06151 0.21902 0.35746 0.05500
O 	O 	0.06781 0.06133 0.72327 -0.70700
C 	C 	0.12471 0.24667 0.34999 -0.05200
Ni	Ni	0.12796 0.00310 0.71817 1.10400
Ni	Ni	0.12054 0.18426 0.71847 1.12400
O 	O 	0.07784 0.95636 0.67987 -0.32600
C 	C 	0.13563 0.57010 0.44671 0.28700
C 	C 	0.11333 0.15746 0.16509 0.31000
C 	C 	0.12117 0.24609 0.24198 0.28300
C 	C 	0.10039 0.93026 0.20029 0.31600
C 	C 	0.11217 0.02254 0.27389 0.26500
Ni	Ni	0.15234 0.10842 0.21965 1.11500
O 	O 	0.15180 0.12217 0.17793 -0.38100
O 	O 	0.16579 0.09269 0.25997 -0.38100
O 	O 	0.17151 0.23086 0.22619 -0.36700
C 	C 	0.09218 0.21684 0.04292 -0.02400
C 	C 	0.08057 0.15933 0.08901 -0.00700
C 	C 	0.12290 0.17033 0.13504 -0.07500
S 	S 	0.09067 0.29562 0.02491 0.06400
C 	C 	0.05384 0.65486 0.15901 0.03200
C 	C 	0.12143 0.86950 0.18687 -0.09200
C 	C 	0.06152 0.78846 0.17730 0.06200
C 	C 	0.14158 0.24172 0.32207 0.00200
C 	C 	0.14183 0.27016 0.27102 -0.07400
H 	H 	0.12165 0.31069 0.40181 0.05100
S 	S 	0.20455 0.08693 0.32112 0.03200
C 	C 	0.11866 0.02153 0.30406 -0.09500
N 	N 	0.05428 0.71476 0.46276 -0.11100
C 	C 	0.01641 0.40395 0.97965 0.17600
N 	N 	0.05092 0.37502 0.96755 -0.12300
C 	C 	0.15701 0.16172 0.08519 0.01200
O 	O 	0.19166 0.05978 0.75405 -0.36800
O 	O 	0.18056 0.19156 0.68256 -0.37000
O 	O 	0.18395 0.55408 0.46268 -0.35400
O 	O 	0.16694 0.62906 0.42706 -0.37600
C 	C 	0.10747 0.57158 0.00964 0.26500
O 	O 	0.14322 0.65052 0.01977 -0.36200
O 	O 	0.15110 0.54556 0.99523 -0.36800
O 	O 	0.15829 0.99895 0.21289 -0.36100
C 	C 	0.20498 0.19929 0.06138 -0.06200
C 	C 	0.17300 0.22931 0.04047 0.03200
S 	S 	0.19788 0.16896 0.11629 0.02800
C 	C 	0.18887 0.34948 0.01398 -0.07000
C 	C 	0.10050 0.61535 0.15190 -0.02900
C 	C 	0.09038 0.72818 0.17570 -0.02900
S 	S 	0.08599 0.55937 0.12318 0.05900
C 	C 	0.19141 0.29511 0.36748 0.01900
C 	C 	0.22145 0.29207 0.31085 0.01800
C 	C 	0.22179 0.30596 0.28185 -0.01700
C 	C 	0.18184 0.32816 0.39306 -0.01700
C 	C 	0.10340 0.95725 0.34774 0.04300
C 	C 	0.18055 0.03255 0.35089 -0.01900
C 	C 	0.06852 0.95103 0.32126 0.01200
H 	H 	0.01548 0.89278 0.31393 0.05100
C 	C 	0.22574 0.30139 0.02335 -0.01900
C 	C 	0.21183 0.14002 0.76081 0.28600
C 	C 	0.21633 0.14520 0.67723 0.30400
O 	O 	0.21830 0.19738 0.74164 -0.36500
O 	O 	0.22793 0.10154 0.69703 -0.37300
C 	C 	0.25246 0.47075 0.41677 0.28200
O 	O 	0.20385 0.50023 0.40743 -0.37900
C 	C 	0.23426 0.44345 0.01673 0.30600
O 	O 	0.18151 0.59526 0.06915 -0.38500
H 	H 	0.26919 0.21482 0.06069 0.05100
H 	H 	0.29231 0.32828 0.02320 0.04700
C 	C 	0.17218 0.76151 0.18464 0.01700
C 	C 	0.18511 0.65417 0.15830 0.03200
C 	C 	0.18258 0.57798 0.11827 -0.08000
S 	S 	0.20707 0.86405 0.19361 0.04400
C 	C 	0.27249 0.34024 0.35668 0.00400
C 	C 	0.28774 0.34408 0.32809 -0.05400
C 	C 	0.25480 0.40021 0.40206 -0.06600
H 	H 	0.27762 0.34259 0.26960 0.04400
C 	C 	0.23956 0.03391 0.36898 -0.08500
H 	H 	0.30323 0.08555 0.36774 0.05100
H 	H 	0.18611 0.20684 0.62642 0.05700
Ni	Ni	0.24463 0.62709 0.39793 1.12100
O 	O 	0.29143 0.49724 0.44071 -0.36100
C 	C 	0.21711 0.58264 0.09056 0.31200
Ni	Ni	0.24469 0.69879 0.04385 1.12100
O 	O 	0.24935 0.47543 0.04166 -0.37500
O 	O 	0.26827 0.49392 0.99490 -0.36500
C 	C 	0.22218 0.72913 0.17444 -0.06300
C 	C 	0.23090 0.63224 0.13958 -0.01900
C 	C 	0.08082 0.88525 0.36499 -0.04700
H 	H 	0.02540 0.82442 0.36105 0.05800
C 	C 	0.27200 0.08776 0.60480 -0.00200
C 	C 	0.23479 0.17393 0.57487 -0.05000
C 	C 	0.23175 0.13644 0.60073 0.01900
S 	S 	0.28791 0.08567 0.63864 0.02300
C 	C 	0.24599 0.14542 0.64898 -0.07000
C 	C 	0.21593 0.16755 0.62564 -0.01600
H 	H 	0.21032 0.21779 0.57231 0.05400
C 	C 	0.21630 0.17583 0.84093 0.00400
C 	C 	0.26757 0.25677 0.82824 0.02000
S 	S 	0.18518 0.10083 0.81664 0.03200
C 	C 	0.23250 0.16636 0.78969 -0.07000
C 	C 	0.27471 0.25169 0.79908 -0.01700
H 	H 	0.31349 0.30679 0.78594 0.04900
C 	C 	0.99958 0.90026 0.67700 0.27100
Ni	Ni	0.31305 0.61291 0.45909 1.11300
O 	O 	0.26682 0.74486 0.38572 -0.38000
Ni	Ni	0.27421 0.61164 0.99051 1.12300
O 	O 	0.29945 0.80256 0.01861 -0.37200
S 	S 	0.32777 0.42064 0.37811 0.01700
H 	H 	0.34750 0.39036 0.31945 0.04800
C 	C 	0.13627 0.89059 0.38536 -0.00100
C 	C 	0.21679 0.96214 0.38640 0.05800
N 	N 	0.23763 0.87061 0.47110 -0.09400
C 	C 	0.32439 0.08507 0.58437 -0.05400
C 	C 	0.27988 0.16308 0.55346 -0.00100
C 	C 	0.22609 0.16047 0.86868 -0.05100
C 	C 	0.32528 0.32608 0.84400 -0.04900
H 	H 	0.19684 0.09509 0.87698 0.05100
H 	H 	0.37126 0.38556 0.83412 0.05300
H 	H 	0.03835 0.79469 0.57997 0.08000
C 	C 	0.01896 0.76468 0.62374 0.09100
C 	C 	0.01309 0.83780 0.63224 0.01200
C 	C 	0.32694 0.31338 0.87261 0.00200
O 	O 	0.31675 0.62647 0.36653 -0.37600
O 	O 	0.33290 0.66219 0.42329 -0.70900
O 	O 	0.29146 0.59189 0.08806 -0.37000
O 	O 	0.27715 0.72389 0.97823 -0.36100
O 	O 	0.30524 0.65105 0.02717 -0.72000
H 	H 	0.28860 0.76457 0.17715 0.05200
H 	H 	0.29789 0.66685 0.13873 0.05100
C 	C 	0.32812 0.12331 0.55847 0.01900
H 	H 	0.27768 0.92772 0.99169 0.05500
C 	C 	0.28096 0.23065 0.88469 0.02000
S 	S 	0.14093 0.80524 0.39713 0.05600
C 	C 	0.02479 0.74637 0.59597 -0.10000
C 	C 	0.00979 0.42498 0.44544 0.02600
H 	H 	0.36696 0.06178 0.58929 0.04700
C 	C 	0.27561 0.94140 0.39751 -0.02100
C 	C 	0.28878 0.80829 0.40334 0.30600
O 	O 	0.32828 0.72424 0.47913 -0.35700
H 	H 	0.35793 0.63024 0.41484 0.14100
C 	C 	0.31476 0.79857 0.99191 0.27600
Ni	Ni	0.34713 0.59607 0.05003 1.11600
O 	O 	0.33478 0.75839 0.07331 -0.36700
H 	H 	0.35667 0.70481 0.02267 0.15600
C 	C 	0.24129 0.85387 0.40478 -0.06400
C 	C 	0.30355 0.89599 0.47962 0.09100
S 	S 	0.32764 0.23682 0.52877 0.04200
S 	S 	0.40990 0.36867 0.89193 0.04500
C 	C 	0.31614 0.22019 0.90943 -0.01300
C 	C 	0.33622 0.94535 0.98153 0.01900
C 	C 	0.99035 0.69867 0.64385 -0.07300
O 	O 	0.35796 0.83725 0.41728 -0.37600
C 	C 	0.39898 0.15505 0.54094 -0.02300
C 	C 	0.35789 0.88131 0.97621 -0.04700
N 	N 	0.34342 0.14620 0.98280 -0.11400
C 	C 	0.39028 0.29424 0.91653 -0.07300
H 	H 	0.29670 0.15731 0.91876 0.04900
O 	O 	0.03610 0.06397 0.22517 -0.70200
C 	C 	0.39380 0.69036 0.36299 0.28800
H 	H 	0.34173 0.98427 0.39555 0.05800
C 	C 	0.39617 0.79963 0.47572 0.29800
O 	O 	0.41772 0.58716 0.01742 -0.36400
O 	O 	0.39565 0.66072 0.98165 -0.37200
C 	C 	0.40865 0.22219 0.52303 -0.07300
C 	C 	0.36479 0.09571 0.97934 0.08300
C 	C 	0.38561 0.92775 0.49037 0.03300
Ni	Ni	0.42458 0.77561 0.41742 1.12300
O 	O 	0.42053 0.76489 0.37582 -0.37700
O 	O 	0.43971 0.65607 0.46344 -0.35800
C 	C 	0.44401 0.63740 0.99491 0.28900
C 	C 	0.41363 0.77613 0.07164 0.28500
O 	O 	0.43412 0.71970 0.06149 -0.36700
S 	S 	0.44384 0.71963 0.30917 0.03500
C 	C 	0.44597 0.68507 0.34125 -0.07100
H 	H 	0.44947 0.14267 0.54524 0.04500
C 	C 	0.39117 0.03241 0.97506 -0.01500
H 	H 	0.46231 0.62207 0.93975 0.05500
C 	C 	0.00309 0.66135 0.58905 0.11800
C 	C 	0.41681 0.87095 0.49510 -0.05700
H 	H 	0.41365 0.06086 0.48966 0.05300
C 	C 	0.43142 0.90404 0.96126 -0.02500
O 	O 	0.04511 0.22255 0.23376 -0.34700
H 	H 	0.03740 0.08489 0.24400 0.15300
C 	C 	0.45759 0.28753 0.92983 0.30800
O 	O 	0.45200 0.80873 0.45738 -0.36900
S 	S 	0.46831 0.83774 0.12305 0.02800
C 	C 	0.47500 0.84579 0.08857 -0.06200
C 	C 	0.43572 0.01649 0.49519 -0.03600
H 	H 	0.48443 0.52874 0.41967 0.04100
C 	C 	0.44574 0.83857 0.94910 0.09800
C 	C 	0.49159 0.66988 0.44249 0.28100
C 	C 	0.47014 0.05654 0.96373 -0.10800
N 	N 	0.45785 0.78701 0.93891 -0.10900
C 	C 	0.51163 0.62409 0.95216 -0.00600
N 	N 	0.56314 0.57153 0.88797 -0.11200
O 	O 	0.49974 0.72288 0.42158 -0.37200
O 	O 	0.49094 0.33131 0.95249 -0.37100
C 	C 	0.49079 0.29677 0.51855 0.29600
C 	C 	0.48844 0.99152 0.95604 0.07400
C 	C 	0.51750 0.64588 0.98024 -0.05700
C 	C 	0.56391 0.58287 0.91150 0.08900
O 	O 	0.47682 0.23027 0.92090 -0.38400
C 	C 	0.52909 0.71151 0.34691 -0.02700
C 	C 	0.48865 0.89994 0.51094 -0.02500
C 	C 	0.53296 0.55892 0.43484 -0.01500
N 	N 	0.52550 0.35898 0.42740 -0.12500
O 	O 	0.52158 0.31931 0.49338 -0.37300
C 	C 	0.54425 0.76867 0.30179 -0.00300
C 	C 	0.56525 0.59790 0.94077 0.00400
C 	C 	0.54553 0.42758 0.43553 0.07600
C 	C 	0.53186 0.14888 0.95832 0.30000
O 	O 	0.52687 0.34864 0.53927 -0.36800
H 	H 	0.55210 0.84474 0.26551 0.04800
H 	H 	0.55009 0.71084 0.36771 0.04600
C 	C 	0.51595 0.04843 0.50577 -0.10300
H 	H 	0.50959 0.85484 0.51681 0.06200
C 	C 	0.55209 0.63979 0.44547 -0.06000
C 	C 	0.56800 0.88131 0.13018 -0.00000
C 	C 	0.55953 0.88543 0.08159 -0.01900
H 	H 	0.56268 0.83772 0.17247 0.04600
H 	H 	0.54672 0.00885 0.94575 0.00700
C 	C 	0.53814 0.98838 0.51660 0.08200
C 	C 	0.57042 0.51323 0.44562 0.00500
C 	C 	0.58709 0.65751 0.99514 0.00400
O 	O 	0.53919 0.20864 0.97652 -0.36700
O 	O 	0.55833 0.18993 0.48633 -0.38700
H 	H 	0.58087 0.88481 0.06072 0.05200
C 	C 	0.58365 0.83954 0.28356 -0.05200
C 	C 	0.58453 0.76170 0.32539 0.02100
C 	C 	0.59781 0.85746 0.15328 -0.05100
C 	C 	0.57727 0.14282 0.50256 0.30700
C 	C 	0.60417 0.69644 0.02214 0.07900
H 	H 	0.81323 0.07346 0.84861 0.04200
O 	O 	0.58228 0.16886 0.93670 -0.38500
Ni	Ni	0.59410 0.34083 0.97078 1.12100
C 	C 	0.61757 0.68048 0.46425 0.00500
N 	N 	0.61784 0.72767 0.04377 -0.11400
C 	C 	0.62162 0.58925 0.95794 -0.06300
Ni	Ni	0.59657 0.26511 0.90925 1.11200
C 	C 	0.61155 0.90333 0.10481 0.02300
C 	C 	0.60754 0.01540 0.53488 0.03500
C 	C 	0.62869 0.54961 0.46707 -0.06300
H 	H 	0.00578 0.16389 0.12411 0.05000
O 	O 	0.59433 0.35603 0.88269 -0.38300
Ni	Ni	0.62698 0.31901 0.48187 1.12000
C 	C 	0.64295 0.76683 0.47379 0.08800
H 	H 	0.60729 0.11295 0.59674 0.04700
C 	C 	0.63912 0.62909 0.98389 -0.00700
C 	C 	0.97689 0.82742 0.65854 -0.10400
C 	C 	0.98559 0.14290 0.67813 0.25500
S 	S 	0.95549 0.73003 0.67061 0.03700
C 	C 	0.96023 0.61238 0.63655 -0.00600
C 	C 	0.96799 0.59399 0.60888 -0.06900
C 	C 	0.99348 0.54910 0.45661 -0.10000
H 	H 	0.99379 0.63371 0.14993 -0.00700
H 	H 	0.99993 0.77386 0.17128 -0.00500
C 	C 	0.97256 0.43977 0.99447 -0.13900
H 	H 	0.99753 0.60483 0.03668 0.05600
H 	H 	0.99127 0.18935 0.07111 -0.00800
C 	C 	0.78151 0.32067 0.90651 0.28300
C 	C 	0.66233 0.41979 0.87230 0.31400
C 	C 	0.64093 0.51918 0.95322 0.29900
C 	C 	0.76988 0.42519 0.98617 0.29900
Ni	Ni	0.74194 0.45349 0.92759 1.12100
O 	O 	0.71048 0.28767 0.89282 -0.36900
O 	O 	0.80851 0.39227 0.92140 -0.37800
O 	O 	0.63395 0.46831 0.97422 -0.37700
O 	O 	0.78097 0.48344 0.96697 -0.38100
O 	O 	0.73217 0.45009 0.88569 -0.38200
O 	O 	0.69451 0.36175 0.99294 -0.37500
O 	O 	0.67754 0.51717 0.93001 -0.38000
O 	O 	0.65112 0.34284 0.93758 -0.71600
H 	H 	0.68119 0.31505 0.94543 0.15200
C 	C 	0.82674 0.45914 0.55559 0.28700
C 	C 	0.63060 0.27668 0.58190 0.30500
C 	C 	0.65085 0.49489 0.48429 0.29200
C 	C 	0.80017 0.34767 0.47725 0.27700
Ni	Ni	0.65401 0.42025 0.54197 1.11400
Ni	Ni	0.71880 0.28129 0.53151 1.12000
O 	O 	0.77997 0.49369 0.54890 -0.36800
O 	O 	0.79438 0.37405 0.55880 -0.37900
O 	O 	0.80853 0.32324 0.50248 -0.37600
O 	O 	0.64819 0.35789 0.57950 -0.36600
O 	O 	0.62654 0.23249 0.55986 -0.39600
O 	O 	0.72633 0.31443 0.46522 -0.36900
O 	O 	0.65672 0.50667 0.51148 -0.36300
O 	O 	0.67644 0.44575 0.47212 -0.38300
O 	O 	0.65462 0.17224 0.50969 -0.38300
O 	O 	0.67810 0.35306 0.51707 -0.71100
H 	H 	0.73074 0.40153 0.51032 0.14200
C 	C 	0.97021 0.87926 0.75263 0.24300
C 	C 	0.97827 0.14449 0.75479 0.23800
Ni	Ni	0.95372 0.00207 0.71519 1.09900
O 	O 	0.97245 0.06345 0.67898 -0.40500
O 	O 	0.94447 0.89727 0.69481 -0.36700
O 	O 	0.93089 0.08874 0.73561 -0.38500
O 	O 	0.94034 0.93317 0.74997 -0.36700
C 	C 	0.87196 0.01259 0.25776 0.22500
C 	C 	0.87517 0.94241 0.18481 0.34100
Ni	Ni	0.98262 0.11748 0.20784 1.08700
Ni	Ni	0.97485 0.94403 0.23317 1.10300
O 	O 	0.87727 0.05305 0.23380 -0.38000
O 	O 	0.91626 0.97385 0.26273 -0.36800
O 	O 	0.92945 0.02236 0.17830 -0.43100
O 	O 	0.87269 0.91189 0.20987 -0.39000
C 	C 	0.67398 0.85945 0.15083 0.01400
C 	C 	0.71715 0.88168 0.12561 0.00200
C 	C 	0.68942 0.90875 0.10287 -0.05200
S 	S 	0.81530 0.91201 0.13186 0.03200
C 	C 	0.80649 0.89347 0.16606 -0.08900
C 	C 	0.72392 0.86552 0.17369 -0.01300
H 	H 	0.72447 0.92761 0.08366 0.05300
H 	H 	0.70442 0.86428 0.19493 0.04300
C 	C 	0.66503 0.90309 0.28923 0.02000
C 	C 	0.70296 0.89865 0.31363 0.00500
C 	C 	0.66615 0.82539 0.33077 -0.05700
S 	S 	0.80400 0.96023 0.30934 0.01200
C 	C 	0.80485 0.99616 0.27718 -0.03300
C 	C 	0.72204 0.95803 0.26867 -0.03100
H 	H 	0.69803 0.82061 0.34880 0.04800
H 	H 	0.70502 0.95705 0.24724 0.05200
N 	N 	0.66305 0.03686 0.54956 -0.11400
C 	C 	0.87589 0.40327 0.46111 -0.06300
C 	C 	0.90915 0.49333 0.46226 0.00900
C 	C 	0.92561 0.36941 0.45117 -0.03700
H 	H 	0.87079 0.51973 0.46954 0.03100
C 	C 	0.89125 0.27738 0.44767 0.08200
N 	N 	0.86371 0.20363 0.44487 -0.12300
C 	C 	0.65581 0.63544 0.47485 -0.00900
H 	H 	0.70364 0.66548 0.49026 0.04900
N 	N 	0.66315 0.83596 0.48144 -0.10400
C 	C 	0.72283 0.23888 0.64873 -0.00400
C 	C 	0.79772 0.26344 0.66222 -0.05300
C 	C 	0.82507 0.20271 0.66419 0.01500
C 	C 	0.78068 0.12200 0.65160 0.00200
C 	C 	0.71259 0.10222 0.63496 -0.05900
C 	C 	0.68219 0.16056 0.63422 0.01900
S 	S 	0.69987 0.30826 0.63343 0.03200
C 	C 	0.63633 0.24313 0.60915 -0.07700
C 	C 	0.63268 0.16261 0.61234 -0.02400
S 	S 	0.84368 0.08157 0.64764 0.00400
C 	C 	0.92755 0.16086 0.66273 -0.06800
C 	C 	0.90734 0.22423 0.67088 -0.02500
H 	H 	0.83598 0.32919 0.66918 0.04400
H 	H 	0.68750 0.04635 0.62164 0.04800
H 	H 	0.94937 0.28231 0.68180 0.04100
S 	S 	0.96472 0.61854 0.55860 -0.03400
C 	C 	0.90615 0.51535 0.56857 -0.06800
C 	C 	0.91524 0.51197 0.59724 0.00500
H 	H 	0.92547 0.56065 0.65134 0.03300
H 	H 	0.87331 0.45653 0.60976 0.03900
C 	C 	0.96740 0.54862 0.02356 -0.11200
C 	C 	0.88160 0.50898 0.01967 0.04800
C 	C 	0.84213 0.43761 0.00197 -0.10400
C 	C 	0.88634 0.39826 0.99216 0.04400
H 	H 	0.85497 0.34067 0.97965 0.02000
C 	C 	0.83506 0.54473 0.03272 0.06400
N 	N 	0.79771 0.57336 0.04316 -0.11000
H 	H 	0.68826 0.63049 0.99628 0.05300
C 	C 	0.87348 0.20161 0.86639 -0.00000
C 	C 	0.85313 0.14208 0.84488 -0.05900
C 	C 	0.88370 0.17412 0.81835 0.01700
C 	C 	0.93142 0.26312 0.81352 0.00200
C 	C 	0.95638 0.32228 0.83502 -0.05800
C 	C 	0.92248 0.29142 0.86140 0.01300
S 	S 	0.80911 0.18864 0.89217 0.01100
C 	C 	0.84064 0.29260 0.89866 -0.06900
C 	C 	0.90537 0.34211 0.88004 -0.02000
S 	S 	0.98021 0.27892 0.78348 0.00200
C 	C 	0.93902 0.17482 0.77467 -0.05600
C 	C 	0.88792 0.12364 0.79649 -0.03200
H 	H 	0.99503 0.39092 0.83096 0.04200
H 	H 	0.92674 0.41016 0.87623 0.04200
C 	C 	0.84041 0.63805 0.77605 0.00200
C 	C 	0.82032 0.56008 0.78953 -0.05400
C 	C 	0.74453 0.51699 0.80395 0.01700
C 	C 	0.69236 0.55357 0.80541 -0.00100
C 	C 	0.71885 0.63745 0.79551 -0.05200
C 	C 	0.79337 0.67918 0.78052 0.02000
S 	S 	0.93623 0.71389 0.76759 0.01100
C 	C 	0.92181 0.79983 0.76905 -0.05500
C 	C 	0.83883 0.76983 0.77645 -0.02600
S 	S 	0.63112 0.51111 0.83291 0.04100
C 	C 	0.66441 0.44380 0.84323 -0.08100
C 	C 	0.72864 0.45518 0.82520 -0.01600
H 	H 	0.86438 0.53681 0.79040 0.04500
H 	H 	0.68600 0.67154 0.80112 0.05300
H 	H 	0.81208 0.81170 0.77867 0.05300
H 	H 	0.77082 0.43119 0.82989 0.04600
