data_crystal

_cell_length_a 16.22919
_cell_length_b 15.67982
_cell_length_c 36.84852
_cell_angle_alpha 89.87458
_cell_angle_beta  89.87764
_cell_angle_gamma 119.43706

_symmetry_space_group_name_	'P 1'
_symmetry_space_group_name_H-M	'P 1'

loop_
_symmetry_equiv_pos_as_xyz
  x,y,z

loop_
_atom_site_label
_atom_site_type_symbol
_atom_site_fract_x
_atom_site_fract_y
_atom_site_fract_z
_atom_site_charge
O 	O 	0.02504 0.02370 0.76205 -0.71700
H 	H 	0.02628 0.03875 0.78804 0.18600
O 	O 	0.02387 0.13392 0.19730 -0.31200
O 	O 	0.00794 0.16084 0.27160 -0.29900
O 	O 	0.01769 0.82664 0.22326 -0.31600
O 	O 	0.00693 0.99155 0.25510 -0.68500
H 	H 	0.01053 0.01360 0.28034 0.15600
C 	C 	0.03324 0.59973 0.51881 0.14400
Br	Br	0.08183 0.66813 0.56365 -0.04600
F 	F 	0.10121 0.29777 0.65548 -0.34900
F 	F 	0.01397 0.89124 0.87820 -0.33000
O 	O 	0.05797 0.87719 0.29933 -0.30700
Ni	Ni	0.06316 0.92849 0.76329 1.14800
Ni	Ni	0.11172 0.15251 0.74664 1.14000
C 	C 	0.05283 0.51637 0.46680 -0.04200
C 	C 	0.01458 0.62156 0.02145 0.11500
C 	C 	0.00428 0.60987 0.05915 -0.07200
C 	C 	0.22101 0.09139 0.80114 0.40300
C 	C 	0.20642 0.06624 0.70797 0.40500
O 	O 	0.14581 0.00565 0.80610 -0.32300
O 	O 	0.22052 0.16058 0.77944 -0.30800
O 	O 	0.18804 0.99513 0.73133 -0.27600
O 	O 	0.14807 0.09918 0.70430 -0.35800
C 	C 	0.30151 0.85441 0.40245 0.37800
C 	C 	0.13990 0.55527 0.44548 0.32300
C 	C 	0.23391 0.59497 0.32128 0.37300
Ni	Ni	0.27433 0.53838 0.38899 1.13000
O 	O 	0.33951 0.84150 0.43282 -0.30400
O 	O 	0.32247 0.83361 0.37012 -0.33600
O 	O 	0.19460 0.55380 0.35217 -0.35800
O 	O 	0.19713 0.64771 0.45119 -0.33200
O 	O 	0.16964 0.49685 0.42978 -0.31600
O 	O 	0.31524 0.67202 0.39915 -0.72400
H 	H 	0.25716 0.67479 0.39408 0.19400
C 	C 	0.21490 0.60118 0.17664 0.39400
C 	C 	0.16434 0.40117 0.08555 0.41700
C 	C 	0.08892 0.62662 0.07889 0.34600
Ni	Ni	0.27068 0.73229 0.11751 1.13200
Ni	Ni	0.23289 0.59698 0.04925 1.13000
O 	O 	0.15153 0.71366 0.09105 -0.33200
O 	O 	0.28676 0.58458 0.17305 -0.28500
O 	O 	0.18175 0.61853 0.14771 -0.37100
O 	O 	0.18957 0.45053 0.11532 -0.35200
O 	O 	0.18849 0.44867 0.05422 -0.33600
O 	O 	0.11403 0.56138 0.07504 -0.36700
C 	C 	0.07043 0.10639 0.17554 0.39600
C 	C 	0.09850 0.22369 0.26554 0.37200
C 	C 	0.10757 0.85363 0.22635 0.37900
C 	C 	0.11812 0.96218 0.31520 0.37500
Ni	Ni	0.13893 0.05660 0.24301 1.13300
O 	O 	0.16922 0.94594 0.23377 -0.29900
O 	O 	0.11474 0.06128 0.18869 -0.32200
O 	O 	0.16392 0.04528 0.29603 -0.32000
O 	O 	0.15539 0.19557 0.24943 -0.30000
C 	C 	0.01605 0.15233 0.11939 0.29900
C 	C 	0.08759 0.14347 0.13775 -0.17500
C 	C 	0.18047 0.19570 0.12445 0.28600
C 	C 	0.20451 0.27120 0.09915 0.28100
C 	C 	0.13601 0.29630 0.08785 -0.18500
C 	C 	0.04040 0.22885 0.09439 0.30900
F 	F 	0.24940 0.18096 0.13886 -0.35600
C 	C 	0.07128 0.67658 0.22485 0.30400
C 	C 	0.13864 0.77742 0.22606 -0.17700
C 	C 	0.23556 0.80434 0.22739 0.27700
C 	C 	0.26321 0.73297 0.22201 0.27400
C 	C 	0.19627 0.63829 0.21077 -0.17900
C 	C 	0.10071 0.60711 0.21862 0.28600
F 	F 	0.03453 0.51210 0.21316 -0.33100
F 	F 	0.30256 0.89852 0.23371 -0.34300
C 	C 	0.26301 0.49951 0.27400 0.28400
C 	C 	0.20180 0.52934 0.28922 -0.16700
C 	C 	0.10386 0.46529 0.28594 0.28400
C 	C 	0.06952 0.36622 0.27736 0.30700
C 	C 	0.13333 0.33126 0.27027 -0.17000
C 	C 	0.23034 0.40026 0.26651 0.28300
F 	F 	0.29322 0.37169 0.25592 -0.33900
F 	F 	0.04199 0.49563 0.29611 -0.32900
C 	C 	0.14897 0.85077 0.40061 0.28500
C 	C 	0.24778 0.90691 0.40341 -0.15600
C 	C 	0.29202 0.00254 0.38930 0.27800
C 	C 	0.24567 0.02778 0.36284 0.27100
C 	C 	0.15304 0.95854 0.35224 -0.14600
C 	C 	0.10155 0.87539 0.37439 0.28200
F 	F 	0.10184 0.76413 0.41860 -0.36800
F 	F 	0.29265 0.11633 0.34612 -0.34300
C 	C 	0.06814 0.54073 0.50401 0.09600
Br	Br	0.15349 0.51323 0.53115 -0.05600
Br	Br	0.28375 0.30406 0.45249 -0.09800
C 	C 	0.28425 0.10841 0.64826 0.28900
C 	C 	0.29344 0.11207 0.68619 -0.17300
F 	F 	0.20383 0.03786 0.63265 -0.34700
Br	Br	0.08979 0.74886 0.00062 -0.06100
Br	Br	0.00830 0.54297 0.94984 -0.07100
Br	Br	0.23586 0.95590 0.05203 -0.07500
C 	C 	0.31859 0.12922 0.85688 0.29100
C 	C 	0.30855 0.10934 0.81954 -0.16700
F 	F 	0.25159 0.13947 0.87539 -0.34600
O 	O 	0.05996 0.20575 0.78448 -0.31300
Ni	Ni	0.33794 0.70858 0.44744 1.14200
Ni	Ni	0.39806 0.76530 0.36448 1.14300
O 	O 	0.33350 0.58401 0.47162 -0.31400
O 	O 	0.31596 0.68136 0.32039 -0.27300
Ni	Ni	0.32647 0.56058 0.12028 1.13600
O 	O 	0.26657 0.73810 0.03252 -0.33000
O 	O 	0.30448 0.64786 0.09207 -0.71800
F 	F 	0.29650 0.32839 0.08969 -0.37600
F 	F 	0.35552 0.75784 0.22508 -0.32400
F 	F 	0.35447 0.56548 0.26753 -0.31700
F 	F 	0.38502 0.06406 0.39605 -0.35000
Br	Br	0.38750 0.79734 0.50709 -0.23600
C 	C 	0.37655 0.18727 0.70171 0.29200
C 	C 	0.35371 0.18201 0.62656 0.28900
F 	F 	0.34127 0.17950 0.59005 -0.35300
F 	F 	0.38273 0.20068 0.73809 -0.35800
Br	Br	0.26598 0.34006 0.91675 -0.04300
Br	Br	0.23803 0.32166 0.00717 -0.06400
C 	C 	0.36986 0.08144 0.80277 0.30100
C 	C 	0.39735 0.13660 0.87523 0.27700
F 	F 	0.40842 0.15910 0.91106 -0.38700
F 	F 	0.34767 0.03558 0.77020 -0.34900
O 	O 	0.34712 0.83629 0.08228 -0.34300
C 	C 	0.37143 0.53588 0.45580 0.34000
O 	O 	0.37062 0.55428 0.34852 -0.31800
O 	O 	0.36851 0.52663 0.42078 -0.34800
C 	C 	0.33198 0.82446 0.04703 0.32400
O 	O 	0.37431 0.51638 0.07286 -0.27800
O 	O 	0.38689 0.77447 0.15243 -0.29300
H 	H 	0.36734 0.69465 0.08220 0.19500
C 	C 	0.40732 0.40153 0.46879 0.11900
C 	C 	0.34923 0.98411 0.02565 0.13400
Br	Br	0.35739 0.16743 0.00575 -0.06300
C 	C 	0.34422 0.43321 0.98622 0.09600
C 	C 	0.36041 0.43458 0.94839 0.10700
O 	O 	0.35183 0.61003 0.02893 -0.35300
Br	Br	0.45737 0.24809 0.46059 -0.05100
O 	O 	0.47825 0.76287 0.43976 -0.35000
O 	O 	0.49458 0.87380 0.39891 -0.30200
C 	C 	0.37994 0.54753 0.03823 0.31800
C 	C 	0.42452 0.49718 0.47660 -0.07900
C 	C 	0.45050 0.25419 0.67965 0.29000
C 	C 	0.43961 0.25259 0.64180 -0.17700
C 	C 	0.38045 0.91393 0.02437 -0.08200
C 	C 	0.40783 0.08002 0.01220 0.10100
C 	C 	0.45209 0.09663 0.82072 0.29400
C 	C 	0.47251 0.13942 0.85521 -0.17400
C 	C 	0.51934 0.85272 0.43048 0.33800
C 	C 	0.45804 0.63053 0.34771 0.40300
O 	O 	0.47781 0.70371 0.36851 -0.38000
C 	C 	0.45742 0.75191 0.15059 0.39100
O 	O 	0.45293 0.68362 0.12883 -0.34000
F 	F 	0.47086 0.62096 0.20107 -0.33900
F 	F 	0.46325 0.74301 0.28310 -0.34000
C 	C 	0.51630 0.89411 0.49696 0.11100
C 	C 	0.47969 0.37682 0.47332 0.11500
C 	C 	0.41324 0.50844 0.00863 -0.06200
C 	C 	0.45174 0.49466 0.93507 -0.06400
Br	Br	0.54991 0.90051 0.57406 -0.03500
F 	F 	0.51750 0.08256 0.80275 -0.34600
C 	C 	0.47442 0.94519 0.01381 0.12900
C 	C 	0.55033 0.92494 0.46069 -0.07600
C 	C 	0.50143 0.44270 0.92283 0.32600
O 	O 	0.50934 0.38542 0.94685 -0.34800
C 	C 	0.52415 0.29317 0.61866 0.41100
O 	O 	0.54597 0.23142 0.60433 -0.36300
C 	C 	0.52148 0.65157 0.31618 -0.14700
C 	C 	0.56597 0.95422 0.52585 0.14300
C 	C 	0.51068 0.56327 0.49293 0.11500
F 	F 	0.53502 0.31583 0.69495 -0.34200
C 	C 	0.50292 0.11141 0.00338 -0.06400
F 	F 	0.03326 0.36554 0.60105 -0.33100
C 	C 	0.50036 0.57425 0.99233 0.08500
C 	C 	0.50539 0.58141 0.95443 0.11500
Br	Br	0.52085 0.70065 0.93389 -0.04600
C 	C 	0.56474 0.22632 0.86005 0.37200
C 	C 	0.54418 0.71346 0.19716 0.29700
C 	C 	0.53027 0.78497 0.17912 -0.14200
C 	C 	0.53681 0.73207 0.29411 0.28300
Br	Br	0.52431 0.67908 0.51589 -0.09800
O 	O 	0.57218 0.31105 0.85056 -0.33100
C 	C 	0.56704 0.44453 0.48867 -0.07700
C 	C 	0.53749 0.04522 0.00751 0.09600
Br	Br	0.51949 0.85239 0.01201 -0.10600
C 	C 	0.55687 0.19864 0.97999 0.33500
O 	O 	0.55618 0.47247 0.89284 -0.27800
C 	C 	0.60354 0.11907 0.54635 0.34600
O 	O 	0.60320 0.19443 0.53334 -0.34400
C 	C 	0.61651 0.05452 0.52005 -0.10600
H 	H 	0.57777 0.31202 0.91705 0.19700
O 	O 	0.58648 0.38825 0.61850 -0.30500
C 	C 	0.58448 0.54072 0.49537 0.10600
O 	O 	0.58708 0.18354 0.94876 -0.33400
O 	O 	0.59614 0.39528 0.54592 -0.35600
C 	C 	0.62332 0.02125 0.45513 0.10300
O 	O 	0.58880 0.28925 0.99346 -0.33200
F 	F 	0.58412 0.55096 0.33716 -0.33600
O 	O 	0.63100 0.12343 0.58045 -0.31300
F 	F 	0.59026 0.95340 0.16407 -0.33100
O 	O 	0.03170 0.17367 0.70956 -0.29500
C 	C 	0.61616 0.40623 0.51180 0.34100
C 	C 	0.59781 0.63427 0.32053 0.30100
F 	F 	0.00759 0.81536 0.36890 -0.33800
C 	C 	0.60394 0.88189 0.17878 0.30300
F 	F 	0.62589 0.50040 0.67759 -0.33900
C 	C 	0.02221 0.23408 0.63719 0.34300
Br	Br	0.60349 0.66799 0.02104 -0.10500
O 	O 	0.63791 0.22065 0.87451 -0.30400
C 	C 	0.62817 0.81036 0.28915 0.27200
C 	C 	0.65254 0.08832 0.48411 0.13200
F 	F 	0.62924 0.65366 0.88446 -0.37800
Ni	Ni	0.63738 0.41891 0.96445 1.13100
O 	O 	0.64416 0.36312 0.91955 -0.71900
C 	C 	0.63551 0.73369 0.20695 0.28600
F 	F 	0.63978 0.89537 0.27476 -0.35400
F 	F 	0.64915 0.66061 0.22005 -0.34700
Ni	Ni	0.66344 0.43760 0.87658 1.13100
Ni	Ni	0.70204 0.28399 0.92347 1.15000
O 	O 	0.68252 0.56139 0.94742 -0.34500
Ni	Ni	0.67211 0.24613 0.61306 1.13600
Ni	Ni	0.69859 0.45084 0.58289 1.13600
O 	O 	0.68196 0.38770 0.49910 -0.31400
C 	C 	0.69424 0.90426 0.19081 0.30200
C 	C 	0.69056 0.70951 0.31314 0.29100
Br	Br	0.68710 0.06033 0.40868 -0.07700
F 	F 	0.70026 0.68699 0.70238 -0.34200
Br	Br	0.67183 0.09255 0.00547 -0.08100
F 	F 	0.70498 0.78976 0.83159 -0.34600
O 	O 	0.70625 0.34419 0.65612 -0.30200
C 	C 	0.70657 0.80126 0.29956 -0.16500
F 	F 	0.97197 0.24554 0.08071 -0.36700
C 	C 	0.96711 0.53927 0.99911 0.06800
F 	F 	0.97466 0.30468 0.27640 -0.35800
F 	F 	0.92392 0.09392 0.12874 -0.35800
C 	C 	0.91837 0.53244 0.07218 0.09300
Br	Br	0.88809 0.52790 0.12288 -0.05700
F 	F 	0.97763 0.64577 0.22887 -0.36300
C 	C 	0.75136 0.60685 0.92340 0.41300
C 	C 	0.82232 0.39299 0.86441 0.40700
C 	C 	0.80458 0.41470 0.98624 0.33600
O 	O 	0.77176 0.47051 0.97538 -0.36900
O 	O 	0.77191 0.55526 0.90175 -0.35900
O 	O 	0.76450 0.41639 0.84795 -0.30900
O 	O 	0.81981 0.38779 0.89950 -0.34300
O 	O 	0.77432 0.32695 0.97173 -0.31600
C 	C 	0.86846 0.51612 0.52916 0.33300
C 	C 	0.83733 0.23893 0.58471 0.37900
C 	C 	0.76049 0.44281 0.65523 0.39600
Ni	Ni	0.73479 0.31045 0.53034 1.14000
O 	O 	0.86120 0.43053 0.53173 -0.36700
O 	O 	0.80623 0.53795 0.54533 -0.31700
O 	O 	0.78683 0.49174 0.62446 -0.36100
O 	O 	0.79936 0.23000 0.55164 -0.30800
O 	O 	0.79881 0.25391 0.61399 -0.34600
O 	O 	0.72597 0.34735 0.57757 -0.72200
H 	H 	0.79204 0.38054 0.58580 0.19400
C 	C 	0.89402 0.80039 0.72176 0.40200
C 	C 	0.90031 0.88029 0.81742 0.37900
C 	C 	0.97820 0.10591 0.68587 0.37300
C 	C 	0.96856 0.17887 0.78583 0.38000
Ni	Ni	0.89614 0.98179 0.75001 1.14000
O 	O 	0.92112 0.01558 0.69698 -0.32500
O 	O 	0.98554 0.85396 0.71858 -0.32800
O 	O 	0.84538 0.83656 0.73785 -0.30700
O 	O 	0.90681 0.11351 0.76278 -0.33800
O 	O 	0.94723 0.84512 0.79824 -0.32000
O 	O 	0.86737 0.93430 0.80187 -0.30300
C 	C 	0.80490 0.88415 0.29371 0.36300
C 	C 	0.81155 0.85020 0.20902 0.38300
Ni	Ni	0.93264 0.04336 0.23731 1.12800
Ni	Ni	0.95226 0.85401 0.26368 1.13500
O 	O 	0.81917 0.96251 0.27423 -0.28200
O 	O 	0.87656 0.87194 0.30287 -0.31800
O 	O 	0.87942 0.93489 0.19921 -0.32300
O 	O 	0.82986 0.79789 0.23258 -0.29900
C 	C 	0.71225 0.82860 0.20245 -0.17800
F 	F 	0.76416 0.99920 0.19092 -0.36300
F 	F 	0.76416 0.69372 0.31993 -0.34900
Br	Br	0.74691 0.22182 0.47420 -0.24800
C 	C 	0.93067 0.56567 0.46869 0.12900
C 	C 	0.94594 0.58426 0.50625 -0.10500
C 	C 	0.97606 0.52014 0.45023 0.08200
Br	Br	0.94418 0.47785 0.40080 -0.05700
Br	Br	0.83713 0.58592 0.44460 -0.05300
Br	Br	0.70783 0.64048 0.51046 -0.11100
C 	C 	0.89933 0.06822 0.62461 0.28700
C 	C 	0.96959 0.13533 0.64818 -0.19200
C 	C 	0.99026 0.26809 0.60824 0.24000
C 	C 	0.90494 0.20412 0.59096 -0.16000
C 	C 	0.86881 0.10297 0.59540 0.27700
F 	F 	0.79455 0.03892 0.57503 -0.36400
F 	F 	0.85819 0.97034 0.63075 -0.34000
C 	C 	0.86056 0.54623 0.70513 0.29000
C 	C 	0.77191 0.50114 0.68804 -0.15500
C 	C 	0.71451 0.54516 0.69142 0.28400
C 	C 	0.75324 0.64176 0.70361 0.29400
C 	C 	0.84815 0.69349 0.71450 -0.18100
C 	C 	0.89939 0.64273 0.71786 0.29500
F 	F 	0.98710 0.68715 0.73276 -0.36700
F 	F 	0.91384 0.50130 0.70535 -0.32700
C 	C 	0.86186 0.45249 0.04914 0.10700
C 	C 	0.88371 0.45762 0.01175 -0.07000
Br	Br	0.75165 0.33915 0.06803 -0.07700
C 	C 	0.86268 0.25824 0.86021 0.29200
C 	C 	0.86292 0.34045 0.84431 -0.19300
C 	C 	0.90218 0.37160 0.80952 0.30000
C 	C 	0.93990 0.32069 0.79079 0.28800
C 	C 	0.93904 0.23873 0.80681 -0.17400
C 	C 	0.90105 0.20840 0.84158 0.28400
F 	F 	0.89896 0.12860 0.85701 -0.36400
F 	F 	0.82261 0.22479 0.89331 -0.41400
F 	F 	0.97602 0.35005 0.75691 -0.33900
F 	F 	0.90427 0.45121 0.79395 -0.34300
C 	C 	0.87767 0.77508 0.91129 0.29900
C 	C 	0.78016 0.70713 0.91157 -0.19300
C 	C 	0.72206 0.71962 0.88621 0.28600
C 	C 	0.76217 0.78534 0.85752 0.28600
C 	C 	0.86030 0.83569 0.85278 -0.16400
C 	C 	0.91844 0.83588 0.88093 0.27000
F 	F 	0.93444 0.77041 0.93730 -0.36200
