data_crystal

_cell_length_a 30.62584
_cell_length_b 25.78270
_cell_length_c 30.37724
_cell_angle_alpha 89.93008
_cell_angle_beta  89.92349
_cell_angle_gamma 90.88583

_symmetry_space_group_name_	'P 1'
_symmetry_space_group_name_H-M	'P 1'

loop_
_symmetry_equiv_pos_as_xyz
  x,y,z

loop_
_atom_site_label
_atom_site_type_symbol
_atom_site_fract_x
_atom_site_fract_y
_atom_site_fract_z
_atom_site_charge
Zn	Zn	0.50386 0.48392 0.99706 1.22700
C 	C 	0.53116 0.58759 0.97212 0.29000
O 	O 	0.55850 0.45495 0.01956 -0.40100
O 	O 	0.52040 0.59969 0.01265 -0.38500
O 	O 	0.59249 0.53074 0.03703 -0.47500
C 	C 	0.44825 0.53705 0.05713 0.34400
O 	O 	0.45367 0.52246 0.01626 -0.41700
O 	O 	0.48111 0.53528 0.08475 -0.49200
C 	C 	0.59422 0.48344 0.02139 0.30100
O 	O 	0.46681 0.40926 0.02237 -0.29500
Zn	Zn	0.53958 0.55572 0.06538 1.17500
O 	O 	0.52878 0.53896 0.95894 -0.35000
C 	C 	0.46498 0.39582 0.98132 0.28100
O 	O 	0.48214 0.42864 0.95366 -0.30400
Zn	Zn	0.32314 0.12031 0.98544 1.22100
C 	C 	0.34408 0.11994 0.07760 0.35500
O 	O 	0.27318 0.08099 0.01045 -0.43300
O 	O 	0.30599 0.13992 0.08688 -0.43400
O 	O 	0.23390 0.15419 0.02064 -0.46300
C 	C 	0.34758 0.22842 0.98742 0.30600
O 	O 	0.33600 0.18949 0.96196 -0.42000
O 	O 	0.33435 0.23001 0.02847 -0.42700
C 	C 	0.23603 0.10347 0.01936 0.33700
O 	O 	0.30251 0.09721 0.91274 -0.29400
Zn	Zn	0.28015 0.19641 0.04666 1.19300
O 	O 	0.36028 0.12423 0.03775 -0.43000
C 	C 	0.33542 0.06608 0.91454 0.26400
O 	O 	0.35658 0.06645 0.95132 -0.37300
C 	C 	0.48851 0.98074 0.71455 0.14900
C 	C 	0.52751 0.96803 0.73588 -0.09800
H 	H 	0.55549 0.95619 0.71669 0.07800
C 	C 	0.53023 0.97045 0.78190 0.05100
C 	C 	0.49383 0.98558 0.80651 -0.09200
C 	C 	0.45446 0.99712 0.78536 0.10900
C 	C 	0.45200 0.99524 0.73931 -0.10100
H 	H 	0.42182 0.00472 0.72276 0.07500
N 	N 	0.48602 0.97899 0.66734 -0.17500
C 	C 	0.46675 0.93690 0.64723 0.20200
C 	C 	0.46494 0.93402 0.60098 -0.07700
C 	C 	0.48447 0.97367 0.57566 0.07500
C 	C 	0.50234 0.01755 0.59677 -0.08800
C 	C 	0.50295 0.01947 0.64308 0.19300
C 	C 	0.44250 0.89322 0.57990 0.01700
C 	C 	0.44083 0.89094 0.53404 -0.05300
C 	C 	0.46496 0.92693 0.50810 0.02200
C 	C 	0.48507 0.97011 0.52913 -0.01800
C 	C 	0.50411 0.01084 0.50396 0.01300
C 	C 	0.51786 0.05954 0.57147 0.01600
C 	C 	0.51720 0.05706 0.52561 -0.05600
C 	C 	0.46760 0.92217 0.46146 0.01500
C 	C 	0.48698 0.96280 0.43640 -0.00700
C 	C 	0.50754 0.00555 0.45753 0.00200
O 	O 	0.52004 0.06023 0.66324 -0.19500
O 	O 	0.45033 0.89873 0.67131 -0.18200
H 	H 	0.52926 0.09491 0.58720 0.05000
H 	H 	0.52469 0.09201 0.50728 0.05200
H 	H 	0.42486 0.86415 0.59894 0.05500
H 	H 	0.41887 0.86293 0.51914 0.05500
C 	C 	0.53289 0.04063 0.43192 -0.04500
C 	C 	0.53190 0.03821 0.38607 -0.00600
C 	C 	0.50841 0.99842 0.36475 -0.06000
C 	C 	0.48741 0.95960 0.38985 0.05500
C 	C 	0.45320 0.87668 0.43943 -0.04900
C 	C 	0.45155 0.87513 0.39354 0.01200
C 	C 	0.46784 0.91693 0.36850 -0.07000
C 	C 	0.50676 0.99579 0.31851 0.20700
N 	N 	0.48498 0.95560 0.29817 -0.17800
C 	C 	0.46633 0.91597 0.32217 0.19800
C 	C 	0.48155 0.95520 0.25100 0.13500
C 	C 	0.45052 0.98609 0.23008 -0.07500
C 	C 	0.44981 0.98972 0.18407 0.03800
C 	C 	0.47926 0.96095 0.15891 -0.06000
C 	C 	0.51028 0.92992 0.17971 0.03100
C 	C 	0.51132 0.92699 0.22579 -0.08600
O 	O 	0.52591 0.03235 0.29461 -0.20600
O 	O 	0.44641 0.87719 0.30179 -0.18500
H 	H 	0.42817 0.00873 0.24966 0.06400
H 	H 	0.53584 0.90395 0.24205 0.07300
H 	H 	0.55513 0.06808 0.44720 0.04900
H 	H 	0.55057 0.06656 0.36722 0.05300
H 	H 	0.44550 0.84152 0.45734 0.05300
H 	H 	0.43900 0.84045 0.37755 0.05400
H 	H 	0.47904 0.96414 0.12330 0.07000
H 	H 	0.49590 0.98748 0.84212 0.07000
Zn	Zn	0.67362 0.85503 0.97553 1.22200
C 	C 	0.63682 0.84355 0.06248 0.35800
O 	O 	0.73718 0.86649 0.98210 -0.45800
O 	O 	0.64621 0.79401 0.06066 -0.44300
O 	O 	0.73880 0.82925 0.04999 -0.48100
C 	C 	0.64466 0.75004 0.96309 0.33900
O 	O 	0.63182 0.79805 0.96756 -0.44600
O 	O 	0.68195 0.73611 0.98023 -0.50300
C 	C 	0.75709 0.85886 0.01985 0.34400
O 	O 	0.68054 0.85532 0.89806 -0.30800
Zn	Zn	0.70411 0.76902 0.03342 1.18000
O 	O 	0.65463 0.87646 0.03440 -0.41900
C 	C 	0.66059 0.89938 0.89981 0.31400
O 	O 	0.65266 0.91597 0.93919 -0.37900
Zn	Zn	0.21352 0.66758 0.01601 1.22600
C 	C 	0.18090 0.66807 0.10469 0.30200
O 	O 	0.16981 0.72227 0.01348 -0.43700
O 	O 	0.18835 0.71839 0.10596 -0.41300
O 	O 	0.21825 0.78698 0.02987 -0.46400
C 	C 	0.29807 0.66401 0.05614 0.31400
O 	O 	0.27694 0.66203 0.01854 -0.42000
O 	O 	0.28275 0.69125 0.08897 -0.42000
C 	C 	0.18137 0.77147 0.01182 0.34500
O 	O 	0.21869 0.67084 0.93818 -0.29300
Zn	Zn	0.24479 0.74970 0.07871 1.19400
O 	O 	0.19980 0.63967 0.07453 -0.42700
C 	C 	0.19686 0.62724 0.93930 0.26700
O 	O 	0.18731 0.61021 0.97826 -0.36900
C 	C 	0.01996 0.52399 0.27562 0.15000
C 	C 	0.98883 0.49754 0.24985 -0.11100
H 	H 	0.96331 0.47456 0.26560 0.08800
C 	C 	0.99055 0.50128 0.20380 0.11900
C 	C 	0.02356 0.53122 0.18365 -0.12800
C 	C 	0.05445 0.55794 0.20934 0.11100
C 	C 	0.05275 0.55413 0.25531 -0.12100
H 	H 	0.07672 0.57458 0.27528 0.08600
N 	N 	0.01807 0.52074 0.32283 -0.18400
C 	C 	0.03860 0.48094 0.34400 0.19600
C 	C 	0.04143 0.48045 0.39028 -0.07000
C 	C 	0.02359 0.52145 0.41442 0.04500
C 	C 	0.99982 0.55973 0.39241 -0.05700
C 	C 	0.99745 0.55878 0.34612 0.20300
C 	C 	0.06075 0.43904 0.41262 0.00900
C 	C 	0.06401 0.43956 0.45844 -0.05000
C 	C 	0.05131 0.48365 0.48275 0.01300
C 	C 	0.02867 0.52354 0.46074 -0.01400
C 	C 	0.00957 0.56437 0.48482 -0.00100
C 	C 	0.97793 0.59749 0.41687 0.00500
C 	C 	0.98133 0.59857 0.46266 -0.03200
C 	C 	0.05880 0.48757 0.52888 0.02300
C 	C 	0.03980 0.52853 0.55292 -0.03000
C 	C 	0.01734 0.56849 0.53085 0.02900
O 	O 	0.97606 0.59517 0.32502 -0.17900
O 	O 	0.05658 0.44363 0.32089 -0.19100
H 	H 	0.95715 0.62522 0.40062 0.05800
H 	H 	0.96025 0.62422 0.48068 0.05100
H 	H 	0.07206 0.40550 0.39471 0.05300
H 	H 	0.07424 0.40458 0.47479 0.05100
C 	C 	0.00511 0.61289 0.55499 -0.06600
C 	C 	0.00861 0.61370 0.60078 0.00700
C 	C 	0.02751 0.57210 0.62325 -0.07400
C 	C 	0.04482 0.53066 0.59924 0.06400
C 	C 	0.08660 0.45298 0.55122 -0.05500
C 	C 	0.08961 0.45389 0.59706 0.01500
C 	C 	0.06797 0.49196 0.62139 -0.07600
C 	C 	0.03041 0.57182 0.66952 0.19800
N 	N 	0.05006 0.53150 0.69085 -0.18100
C 	C 	0.07001 0.49282 0.66771 0.19900
C 	C 	0.04784 0.52843 0.73805 0.15200
C 	C 	0.08196 0.54885 0.76383 -0.11100
C 	C 	0.07953 0.54606 0.80990 0.09700
C 	C 	0.04260 0.52350 0.83007 -0.08400
C 	C 	0.00871 0.50263 0.80434 0.03500
C 	C 	0.01139 0.50509 0.75834 -0.10800
O 	O 	0.01340 0.60990 0.69248 -0.18800
O 	O 	0.09033 0.45569 0.68896 -0.18600
H 	H 	0.11024 0.56658 0.74806 0.08900
H 	H 	0.98522 0.48904 0.73833 0.08300
H 	H 	0.99503 0.64785 0.53849 0.06500
H 	H 	0.99769 0.64751 0.61857 0.06400
H 	H 	0.10766 0.42720 0.53336 0.05400
H 	H 	0.10998 0.42584 0.61343 0.05300
H 	H 	0.04047 0.52174 0.86569 0.06700
H 	H 	0.02501 0.53402 0.14804 0.07600
Zn	Zn	0.85422 0.38421 0.99305 1.22000
C 	C 	0.86932 0.40288 0.90062 0.35700
O 	O 	0.79190 0.39317 0.00701 -0.44200
O 	O 	0.85386 0.35667 0.89036 -0.44500
O 	O 	0.77077 0.38594 0.93561 -0.47500
C 	C 	0.87737 0.28067 0.96828 0.33900
O 	O 	0.89268 0.32760 0.97645 -0.44800
O 	O 	0.83583 0.27339 0.95922 -0.50300
C 	C 	0.76273 0.40073 0.97609 0.31500
O 	O 	0.86850 0.36222 0.06764 -0.29800
Zn	Zn	0.80295 0.32299 0.92504 1.17700
O 	O 	0.85832 0.42440 0.93812 -0.42800
C 	C 	0.88580 0.40848 0.06969 0.26200
O 	O 	0.88502 0.43510 0.03365 -0.36000
Zn	Zn	0.00277 0.00439 0.01564 1.22200
C 	C 	0.04665 0.91084 0.99121 0.29400
O 	O 	0.95140 0.95934 0.00829 -0.39200
O 	O 	0.01974 0.88941 0.01981 -0.33800
O 	O 	0.95389 0.93498 0.08020 -0.40300
C 	C 	0.07585 0.00232 0.07239 0.29800
O 	O 	0.03987 0.02717 0.06395 -0.42300
O 	O 	0.07326 0.95272 0.08151 -0.39300
C 	C 	0.93295 0.93686 0.04248 0.31200
O 	O 	0.95722 0.07347 0.03509 -0.25400
Zn	Zn	0.01612 0.91813 0.08283 1.20000
O 	O 	0.04566 0.96129 0.98453 -0.40300
C 	C 	0.96773 0.09258 0.99698 0.25500
O 	O 	0.99345 0.06470 0.97317 -0.34300
C 	C 	0.90648 0.23577 0.97037 -0.12700
C 	C 	0.89857 0.19268 0.94321 0.04600
C 	C 	0.92165 0.14704 0.94949 -0.05800
C 	C 	0.95303 0.14394 0.98283 0.04300
C 	C 	0.96497 0.18915 0.00678 -0.11400
C 	C 	0.94036 0.23442 0.00137 0.11500
H 	H 	0.91339 0.11308 0.93003 0.06200
H 	H 	0.94661 0.26784 0.02216 0.07000
H 	H 	0.87343 0.19396 0.91819 0.02400
C 	C 	0.00225 0.18855 0.03960 0.77400
F 	F 	0.01759 0.23831 0.04818 -0.44300
F 	F 	0.98791 0.16649 0.07863 -0.42500
F 	F 	0.03676 0.16028 0.02332 -0.44500
C 	C 	0.97084 0.47721 0.82563 0.07200
C 	C 	0.96793 0.42296 0.82760 -0.09300
C 	C 	0.93377 0.39872 0.85067 0.06800
C 	C 	0.90210 0.42855 0.87199 -0.16900
C 	C 	0.90391 0.48308 0.86824 0.23100
C 	C 	0.93853 0.50717 0.84552 -0.14700
H 	H 	0.93272 0.35680 0.85315 0.03500
H 	H 	0.94039 0.54913 0.84362 0.10100
H 	H 	0.99271 0.39960 0.81210 0.07400
O 	O 	0.87238 0.51285 0.88737 -0.27800
H 	H 	0.84954 0.51670 0.86453 0.16100
C 	C 	0.90596 0.42920 0.11003 -0.01400
C 	C 	0.93516 0.39903 0.13425 -0.02500
C 	C 	0.96080 0.42190 0.16727 0.00700
C 	C 	0.95724 0.47502 0.17642 -0.07900
C 	C 	0.92565 0.50436 0.15437 0.17400
C 	C 	0.90007 0.48136 0.12138 -0.08300
H 	H 	0.98483 0.39893 0.18430 0.05500
H 	H 	0.87669 0.50455 0.10361 0.08400
H 	H 	0.93963 0.35857 0.12603 0.07600
O 	O 	0.91998 0.55558 0.16484 -0.27200
H 	H 	0.93949 0.57531 0.14455 0.16500
C 	C 	0.15114 0.80997 0.99319 -0.11000
C 	C 	0.15926 0.86330 0.99901 0.03300
C 	C 	0.12646 0.89889 0.99033 -0.04100
C 	C 	0.08495 0.88139 0.97700 0.03900
C 	C 	0.07971 0.82950 0.96258 -0.12600
C 	C 	0.11235 0.79352 0.97244 0.10200
H 	H 	0.13193 0.93938 0.99831 0.07100
H 	H 	0.10699 0.75276 0.96519 0.06600
H 	H 	0.19000 0.87699 0.01264 0.06900
C 	C 	0.03826 0.81144 0.93979 0.79000
F 	F 	0.04705 0.77163 0.91071 -0.44400
F 	F 	0.00858 0.79360 0.97083 -0.41400
F 	F 	0.01992 0.85152 0.91614 -0.43300
C 	C 	0.17397 0.60689 0.90031 -0.01200
C 	C 	0.15081 0.64057 0.87285 -0.01800
C 	C 	0.12166 0.62056 0.84153 0.00500
C 	C 	0.11558 0.56675 0.83725 -0.06900
C 	C 	0.14098 0.53296 0.86270 0.17200
C 	C 	0.17007 0.55313 0.89407 -0.07700
H 	H 	0.10249 0.64687 0.82187 0.06000
H 	H 	0.18851 0.52691 0.91456 0.09500
H 	H 	0.15365 0.68217 0.87731 0.07300
O 	O 	0.13755 0.48030 0.85678 -0.26300
H 	H 	0.11532 0.46822 0.87840 0.15800
C 	C 	0.15114 0.64331 0.13674 -0.03300
C 	C 	0.16030 0.59374 0.15314 -0.01700
C 	C 	0.12942 0.56693 0.17868 -0.00200
C 	C 	0.08900 0.58925 0.18789 -0.07700
C 	C 	0.08034 0.63976 0.17297 0.16900
C 	C 	0.11162 0.66687 0.14785 -0.07400
H 	H 	0.13637 0.52814 0.19021 0.04700
H 	H 	0.10440 0.70528 0.13558 0.09000
H 	H 	0.19099 0.57553 0.14530 0.05900
O 	O 	0.04141 0.66264 0.18293 -0.26800
H 	H 	0.02150 0.65322 0.15837 0.16400
C 	C 	0.80182 0.87894 0.02666 -0.11800
C 	C 	0.81363 0.92886 0.01243 0.06500
C 	C 	0.85607 0.94782 0.01901 -0.04900
C 	C 	0.88767 0.91670 0.03904 0.04600
C 	C 	0.87621 0.86545 0.05262 -0.12200
C 	C 	0.83274 0.84786 0.04757 0.10600
H 	H 	0.86456 0.98677 0.00822 0.07400
H 	H 	0.82309 0.80959 0.05910 0.05100
H 	H 	0.78978 0.95327 0.99665 0.03100
C 	C 	0.90978 0.82959 0.07267 0.78500
F 	F 	0.92038 0.84640 0.11457 -0.46000
F 	F 	0.89401 0.77909 0.07574 -0.44000
F 	F 	0.94703 0.82883 0.04695 -0.43600
C 	C 	0.57019 0.95397 0.80465 0.05000
C 	C 	0.59386 0.98938 0.83065 -0.06500
C 	C 	0.62635 0.97188 0.85907 0.05000
C 	C 	0.63534 0.91874 0.86196 -0.14200
C 	C 	0.61407 0.88374 0.83302 0.21800
C 	C 	0.58155 0.90152 0.80464 -0.13300
H 	H 	0.64303 0.99930 0.88046 0.04000
H 	H 	0.56371 0.87408 0.78420 0.09500
H 	H 	0.58578 0.03014 0.83026 0.05000
O 	O 	0.62253 0.83168 0.83483 -0.27300
H 	H 	0.64591 0.82614 0.81278 0.16600
C 	C 	0.54413 0.90445 0.15334 0.06700
C 	C 	0.53366 0.86017 0.12851 -0.08800
C 	C 	0.56461 0.83904 0.10007 0.07100
C 	C 	0.60614 0.86235 0.09594 -0.16700
C 	C 	0.61720 0.90561 0.12213 0.22900
C 	C 	0.58614 0.92661 0.15058 -0.14600
H 	H 	0.55587 0.80556 0.08024 0.05100
H 	H 	0.59442 0.96072 0.16984 0.09300
H 	H 	0.50128 0.84278 0.13057 0.09200
O 	O 	0.65796 0.92821 0.11911 -0.28000
H 	H 	0.67592 0.91010 0.14132 0.15800
C 	C 	0.19705 0.07204 0.02989 -0.11500
C 	C 	0.15841 0.07998 0.00662 0.06600
C 	C 	0.11946 0.05671 0.02060 -0.04500
C 	C 	0.11817 0.02587 0.05880 0.04000
C 	C 	0.15733 0.01769 0.08284 -0.14000
C 	C 	0.19687 0.03947 0.06689 0.10100
H 	H 	0.09000 0.06281 0.00169 0.07900
H 	H 	0.22720 0.03281 0.08419 0.05800
H 	H 	0.15843 0.10492 0.97788 0.04400
C 	C 	0.15743 0.98557 0.12480 0.80000
F 	F 	0.19548 0.99367 0.14856 -0.44600
F 	F 	0.12283 0.99876 0.15168 -0.43800
F 	F 	0.15429 0.93349 0.11426 -0.45500
C 	C 	0.35557 0.04554 0.87451 -0.02600
C 	C 	0.37137 0.07990 0.84214 -0.02500
C 	C 	0.40163 0.06310 0.81094 0.00500
C 	C 	0.41601 0.01171 0.81164 -0.09600
C 	C 	0.39697 0.97604 0.84141 0.18400
C 	C 	0.36687 0.99310 0.87276 -0.06900
H 	H 	0.41558 0.09067 0.78772 0.04400
H 	H 	0.35398 0.96608 0.89704 0.08600
H 	H 	0.36248 0.12040 0.84298 0.06600
O 	O 	0.40781 0.92463 0.83993 -0.26500
H 	H 	0.43197 0.92081 0.86136 0.16700
C 	C 	0.42127 0.02735 0.16235 0.05900
C 	C 	0.37634 0.01707 0.15849 -0.10000
C 	C 	0.35022 0.04981 0.13332 0.07200
C 	C 	0.36894 0.09286 0.11169 -0.16700
C 	C 	0.41343 0.10513 0.11812 0.22900
C 	C 	0.43946 0.07222 0.14319 -0.14500
H 	H 	0.31592 0.04026 0.12885 0.04500
H 	H 	0.47401 0.08087 0.14683 0.08800
H 	H 	0.36196 0.98282 0.17370 0.08900
O 	O 	0.43190 0.14798 0.09827 -0.28400
H 	H 	0.42851 0.17656 0.11977 0.15800
C 	C 	0.43695 0.35260 0.96706 -0.06600
C 	C 	0.45221 0.30186 0.97052 0.02700
C 	C 	0.42268 0.26011 0.97240 -0.03600
C 	C 	0.37765 0.26881 0.97082 0.03000
C 	C 	0.36240 0.31903 0.96084 -0.12100
C 	C 	0.39237 0.36098 0.96012 0.08700
H 	H 	0.43466 0.22143 0.97847 0.06000
H 	H 	0.38077 0.40035 0.95712 0.07300
H 	H 	0.48674 0.29508 0.97512 0.06400
C 	C 	0.31409 0.32857 0.95454 0.78500
F 	F 	0.29358 0.32928 0.99511 -0.47500
F 	F 	0.30720 0.37549 0.93364 -0.43800
F 	F 	0.29546 0.28980 0.92894 -0.44900
C 	C 	0.40960 0.56715 0.06822 -0.10600
C 	C 	0.36806 0.54561 0.06076 0.04900
C 	C 	0.33173 0.57741 0.05833 -0.03800
C 	C 	0.33646 0.63133 0.06283 0.03800
C 	C 	0.37817 0.65341 0.07221 -0.11400
C 	C 	0.41428 0.62050 0.07618 0.11200
H 	H 	0.29989 0.56026 0.05168 0.06800
H 	H 	0.44651 0.63666 0.08261 0.06000
H 	H 	0.36422 0.50437 0.05475 0.05200
C 	C 	0.38432 0.71167 0.07749 0.79000
F 	F 	0.36405 0.72764 0.11572 -0.46300
F 	F 	0.42805 0.72584 0.07993 -0.43000
F 	F 	0.36647 0.73732 0.04192 -0.44100
C 	C 	0.71950 0.42160 0.98745 -0.12800
C 	C 	0.71438 0.45275 0.02481 0.05400
C 	C 	0.67340 0.47202 0.03571 -0.05900
C 	C 	0.63689 0.46122 0.00909 0.04300
C 	C 	0.64209 0.43075 0.97035 -0.14800
C 	C 	0.68323 0.40973 0.96100 0.10300
H 	H 	0.66999 0.49548 0.06506 0.05000
H 	H 	0.68704 0.38395 0.93317 0.05000
H 	H 	0.74219 0.46216 0.04546 0.03800
C 	C 	0.60422 0.41982 0.93925 0.79100
F 	F 	0.61844 0.39940 0.89969 -0.44800
F 	F 	0.57559 0.38435 0.95827 -0.45900
F 	F 	0.58259 0.46503 0.92966 -0.46600
C 	C 	0.61403 0.70998 0.94618 -0.11500
C 	C 	0.62883 0.65972 0.93753 0.04100
C 	C 	0.59919 0.61801 0.93677 -0.05800
C 	C 	0.55489 0.62637 0.94552 0.05500
C 	C 	0.53904 0.67752 0.94306 -0.13400
C 	C 	0.56896 0.71934 0.94522 0.10500
H 	H 	0.61139 0.57881 0.93519 0.09100
H 	H 	0.55715 0.75853 0.94884 0.07200
H 	H 	0.66348 0.65241 0.93490 0.04100
C 	C 	0.49051 0.68773 0.94330 0.79300
F 	F 	0.47630 0.69387 0.98618 -0.42500
F 	F 	0.48171 0.73240 0.91982 -0.43000
F 	F 	0.46755 0.64703 0.92407 -0.42600
