data_crystal

_cell_length_a 26.07745
_cell_length_b 26.44395
_cell_length_c 35.06241
_cell_angle_alpha 95.48873
_cell_angle_beta  95.48742
_cell_angle_gamma 125.78719

_symmetry_space_group_name_	'P 1'
_symmetry_space_group_name_H-M	'P 1'

loop_
_symmetry_equiv_pos_as_xyz
  x,y,z

loop_
_atom_site_label
_atom_site_type_symbol
_atom_site_fract_x
_atom_site_fract_y
_atom_site_fract_z
_atom_site_charge
C 	C 	0.97251 0.04191 0.99947 0.13400
N 	N 	0.03542 0.07239 0.99674 -0.15000
C 	C 	0.06138 0.04036 0.99648 0.13000
N 	N 	0.02407 0.97764 0.99799 -0.15200
C 	C 	0.96150 0.94736 0.00108 0.13200
N 	N 	0.93603 0.97971 0.00248 -0.14700
C 	C 	0.92899 0.98173 0.46109 0.11600
N 	N 	0.99432 0.01918 0.46802 -0.13300
C 	C 	0.02591 0.99308 0.47273 0.11100
N 	N 	0.99209 0.92936 0.47002 -0.13900
C 	C 	0.92680 0.89178 0.46322 0.12500
N 	N 	0.89516 0.91786 0.45822 -0.14200
Cu	Cu	0.64272 0.25286 0.99837 0.92800
Cu	Cu	0.71202 0.27434 0.92255 0.87400
Cu	Cu	0.68144 0.35886 0.95220 0.89800
Cu	Cu	0.63342 0.36340 0.02547 0.89800
C 	C 	0.64628 0.28890 0.07914 0.31000
O 	O 	0.54651 0.21036 0.99206 -0.35900
C 	C 	0.67303 0.32412 0.86758 0.30800
O 	O 	0.69133 0.35182 0.00603 -0.63600
O 	O 	0.64250 0.26647 0.94385 -0.64000
O 	O 	0.68898 0.21374 0.99746 -0.37200
O 	O 	0.76575 0.29179 0.96992 -0.43800
O 	O 	0.61584 0.31243 0.06757 -0.38100
O 	O 	0.72461 0.44949 0.96369 -0.37900
C 	C 	0.71716 0.47959 0.99236 0.30000
C 	C 	0.52205 0.23785 0.97785 0.29600
O 	O 	0.56086 0.29770 0.97498 -0.39700
O 	O 	0.67061 0.44866 0.01236 -0.39100
O 	O 	0.65613 0.25661 0.05366 -0.35200
C 	C 	0.74762 0.24648 0.99001 0.30400
O 	O 	0.68498 0.36729 0.89692 -0.37900
O 	O 	0.67711 0.27798 0.87350 -0.39800
H 	H 	0.73616 0.38018 0.02074 0.17500
H 	H 	0.60018 0.23918 0.92600 0.18400
Cu	Cu	0.72015 0.31483 0.44454 0.92800
Cu	Cu	0.74752 0.28965 0.53166 0.87300
Cu	Cu	0.63258 0.28505 0.50451 0.90100
Cu	Cu	0.59017 0.29893 0.42472 0.89700
C 	C 	0.66455 0.29510 0.36501 0.30900
O 	O 	0.75245 0.40410 0.43888 -0.36000
C 	C 	0.69731 0.32554 0.58771 0.30800
O 	O 	0.62255 0.26051 0.44957 -0.63800
O 	O 	0.72610 0.33431 0.50146 -0.64100
O 	O 	0.77069 0.28006 0.44456 -0.36800
O 	O 	0.72383 0.22263 0.49134 -0.43900
O 	O 	0.61180 0.28747 0.37268 -0.37000
O 	O 	0.54076 0.23234 0.50342 -0.37300
C 	C 	0.49889 0.23104 0.47818 0.30000
C 	C 	0.72204 0.42745 0.44906 0.30100
O 	O 	0.66658 0.39115 0.46003 -0.38400
O 	O 	0.51790 0.27091 0.45359 -0.38800
O 	O 	0.69789 0.28468 0.38945 -0.36100
C 	C 	0.75713 0.23417 0.46338 0.29900
O 	O 	0.64295 0.29564 0.56200 -0.36900
O 	O 	0.74977 0.33634 0.57753 -0.41200
H 	H 	0.59694 0.21408 0.44047 0.16600
H 	H 	0.75074 0.38005 0.51256 0.17800
C 	C 	0.62247 0.28460 0.75828 -0.07200
C 	C 	0.66993 0.34253 0.74840 0.02300
C 	C 	0.70994 0.39719 0.77781 0.05800
C 	C 	0.70650 0.39197 0.81706 -0.00600
C 	C 	0.66364 0.33255 0.82715 -0.08900
C 	C 	0.61865 0.27942 0.79748 0.11700
C 	C 	0.68219 0.34394 0.70808 0.02800
N 	N 	0.75531 0.45772 0.76802 -0.01600
H 	H 	0.73988 0.43343 0.83970 0.06100
N 	N 	0.56943 0.22005 0.80713 -0.02300
H 	H 	0.58979 0.24308 0.73555 0.07700
C 	C 	0.71590 0.32117 0.69511 0.05400
C 	C 	0.72274 0.31780 0.65604 -0.00400
C 	C 	0.69612 0.33677 0.62956 -0.09300
C 	C 	0.66438 0.36178 0.64286 0.12000
C 	C 	0.65721 0.36478 0.68200 -0.07400
N 	N 	0.74170 0.29970 0.72136 -0.01500
H 	H 	0.74739 0.29879 0.64606 0.04800
N 	N 	0.64020 0.38493 0.61687 -0.02200
H 	H 	0.63208 0.38318 0.69208 0.08000
O 	O 	0.55904 0.16779 0.79078 -0.10500
O 	O 	0.53294 0.21785 0.83079 -0.11400
O 	O 	0.75111 0.50389 0.77698 -0.10400
O 	O 	0.80383 0.46822 0.75317 -0.09400
O 	O 	0.58048 0.36419 0.61329 -0.10400
O 	O 	0.67883 0.42961 0.59868 -0.10800
O 	O 	0.72372 0.24183 0.71370 -0.11000
O 	O 	0.78604 0.33905 0.75161 -0.09800
C 	C 	0.67535 0.33846 0.26511 -0.07100
C 	C 	0.67373 0.28977 0.24380 0.02400
C 	C 	0.67715 0.24738 0.26337 0.05800
C 	C 	0.67792 0.25166 0.30364 -0.00300
C 	C 	0.67548 0.29803 0.32453 -0.08600
C 	C 	0.67694 0.34324 0.30538 0.11500
C 	C 	0.66503 0.28161 0.20081 0.02600
N 	N 	0.67917 0.19956 0.24241 -0.01600
H 	H 	0.67786 0.21737 0.31832 0.06400
N 	N 	0.68152 0.39491 0.32694 -0.02600
H 	H 	0.67486 0.37238 0.25031 0.07600
C 	C 	0.60448 0.25608 0.17827 0.05500
C 	C 	0.59867 0.25697 0.13828 -0.00300
C 	C 	0.65272 0.28330 0.12043 -0.09000
C 	C 	0.71301 0.30701 0.14270 0.11100
C 	C 	0.71863 0.30548 0.18273 -0.07200
N 	N 	0.54910 0.23088 0.19617 -0.01600
H 	H 	0.55207 0.23772 0.12113 0.06200
N 	N 	0.76908 0.33497 0.12522 -0.02400
H 	H 	0.76525 0.32525 0.20006 0.07900
O 	O 	0.63906 0.40462 0.31686 -0.11200
O 	O 	0.73148 0.43578 0.35411 -0.11100
O 	O 	0.72721 0.19757 0.25238 -0.10400
O 	O 	0.63075 0.15518 0.21545 -0.09100
O 	O 	0.78654 0.38234 0.10761 -0.12500
O 	O 	0.80674 0.31816 0.13096 -0.11000
O 	O 	0.51542 0.25241 0.19223 -0.10600
O 	O 	0.53025 0.18399 0.21450 -0.09200
C 	C 	0.75110 0.49502 0.44922 -0.10400
C 	C 	0.71519 0.51371 0.43108 0.13700
C 	C 	0.74250 0.57848 0.43491 -0.09700
C 	C 	0.80623 0.62484 0.45408 0.00700
C 	C 	0.84298 0.60630 0.47103 0.06100
C 	C 	0.81480 0.54144 0.46860 -0.01800
N 	N 	0.65570 0.47004 0.40876 -0.19800
H 	H 	0.71479 0.59293 0.42166 0.06200
C 	C 	0.83449 0.69267 0.45520 -0.00900
N 	N 	0.90515 0.65033 0.48957 -0.19100
H 	H 	0.84238 0.52711 0.48221 0.04300
C 	C 	0.83196 0.72655 0.48732 -0.08300
C 	C 	0.86046 0.79153 0.49016 0.10000
C 	C 	0.89060 0.82259 0.45968 -0.04800
C 	C 	0.89117 0.78814 0.42696 -0.05300
C 	C 	0.86377 0.72350 0.42446 0.07500
H 	H 	0.80888 0.70256 0.51058 0.05700
N 	N 	0.85965 0.82385 0.52244 -0.19900
H 	H 	0.91427 0.81209 0.40368 0.05100
N 	N 	0.86637 0.69161 0.39276 -0.19500
H 	H 	0.83705 0.80038 0.54467 0.08700
H 	H 	0.88173 0.87244 0.52604 0.08900
H 	H 	0.88809 0.71484 0.37025 0.08900
H 	H 	0.84717 0.64374 0.39011 0.09700
H 	H 	0.93181 0.63614 0.50199 0.08700
H 	H 	0.92772 0.69889 0.49178 0.09100
H 	H 	0.63747 0.42258 0.40083 0.08900
H 	H 	0.62847 0.48410 0.39708 0.09400
C 	C 	0.89504 0.01041 0.45599 -0.04200
C 	C 	0.86612 0.01824 0.48595 0.10300
C 	C 	0.83953 0.05115 0.48142 -0.08300
C 	C 	0.84232 0.07717 0.44798 -0.00900
C 	C 	0.86930 0.06754 0.41749 0.07500
C 	C 	0.89560 0.03435 0.42189 -0.05500
N 	N 	0.86492 0.99562 0.51939 -0.20400
H 	H 	0.81822 0.05810 0.50453 0.05500
C 	C 	0.82125 0.11842 0.44662 0.00500
N 	N 	0.86997 0.08980 0.38398 -0.19500
H 	H 	0.91732 0.02782 0.39888 0.05200
C 	C 	0.86641 0.18376 0.46092 -0.09700
C 	C 	0.84698 0.22327 0.46507 0.12400
C 	C 	0.78101 0.19674 0.45406 -0.11400
C 	C 	0.73638 0.13193 0.43792 -0.01800
C 	C 	0.75585 0.09242 0.43395 0.05800
H 	H 	0.91663 0.20362 0.47001 0.05900
N 	N 	0.89160 0.28609 0.48048 -0.20500
H 	H 	0.68604 0.11187 0.42913 0.04200
N 	N 	0.71164 0.02979 0.41800 -0.18800
H 	H 	0.94007 0.30504 0.48857 0.08500
H 	H 	0.87891 0.31673 0.48473 0.08000
H 	H 	0.66324 0.01076 0.40939 0.08700
H 	H 	0.72492 0.99968 0.41325 0.08600
H 	H 	0.89098 0.08339 0.36190 0.08900
H 	H 	0.84871 0.11255 0.37916 0.09500
H 	H 	0.88593 0.97269 0.52431 0.09000
H 	H 	0.84315 0.00140 0.54120 0.09000
C 	C 	0.09665 0.03328 0.47824 -0.04000
C 	C 	0.13424 0.03613 0.51152 0.09800
C 	C 	0.20052 0.06776 0.51318 -0.08300
C 	C 	0.23021 0.09887 0.48311 -0.00900
C 	C 	0.19307 0.09834 0.45060 0.07400
C 	C 	0.12656 0.06553 0.44856 -0.05700
N 	N 	0.10739 0.01015 0.54231 -0.19500
H 	H 	0.22932 0.06910 0.53828 0.05700
C 	C 	0.30026 0.13188 0.48601 0.00500
N 	N 	0.22079 0.12877 0.42121 -0.19500
H 	H 	0.09773 0.06380 0.42330 0.05100
C 	C 	0.32196 0.09802 0.47078 -0.09600
C 	C 	0.38739 0.12910 0.46939 0.12500
C 	C 	0.43166 0.19529 0.48357 -0.10500
C 	C 	0.41039 0.22851 0.50051 -0.01800
C 	C 	0.34506 0.19740 0.50208 0.06200
H 	H 	0.28760 0.04759 0.45916 0.05900
N 	N 	0.40713 0.09531 0.45402 -0.20300
H 	H 	0.44467 0.27903 0.51193 0.05200
N 	N 	0.32565 0.23075 0.51868 -0.19100
H 	H 	0.37389 0.04660 0.44318 0.08700
H 	H 	0.45548 0.11670 0.45302 0.08400
H 	H 	0.35897 0.27934 0.52987 0.09000
H 	H 	0.27771 0.20883 0.52115 0.09100
H 	H 	0.19292 0.12804 0.39735 0.08600
H 	H 	0.27003 0.15342 0.42165 0.09100
H 	H 	0.05981 0.99186 0.54371 0.08700
H 	H 	0.13502 0.01048 0.56613 0.08800
C 	C 	0.92038 0.87878 0.00022 -0.04800
C 	C 	0.89605 0.83511 0.96472 0.10000
C 	C 	0.86224 0.77021 0.96542 -0.08700
C 	C 	0.85092 0.74824 0.00071 -0.00500
C 	C 	0.87332 0.79174 0.03609 0.07200
C 	C 	0.90812 0.85678 0.03544 -0.05200
N 	N 	0.90446 0.85506 0.92993 -0.19900
H 	H 	0.84431 0.73659 0.93837 0.05900
C 	C 	0.81611 0.67963 0.00021 0.01000
N 	N 	0.86152 0.77142 0.07063 -0.19400
H 	H 	0.92641 0.89046 0.06252 0.04900
C 	C 	0.85148 0.65560 0.00550 -0.09900
C 	C 	0.82013 0.59051 0.00444 0.13400
C 	C 	0.75201 0.54858 0.99634 -0.11300
C 	C 	0.71668 0.57274 0.99137 -0.01600
C 	C 	0.74805 0.63801 0.99350 0.05400
H 	H 	0.90364 0.68782 0.01097 0.06200
N 	N 	0.85559 0.56894 0.01217 -0.20300
H 	H 	0.66450 0.54054 0.98547 0.04500
N 	N 	0.71264 0.66035 0.98919 -0.19100
H 	H 	0.90584 0.60003 0.01695 0.09000
H 	H 	0.83398 0.52187 0.01493 0.08800
H 	H 	0.66238 0.62909 0.98386 0.08500
H 	H 	0.73439 0.70876 0.99151 0.08900
H 	H 	0.87871 0.80400 0.09660 0.08600
H 	H 	0.83478 0.72331 0.07210 0.09100
H 	H 	0.92656 0.90258 0.92817 0.09100
H 	H 	0.88740 0.82253 0.90395 0.08900
C 	C 	0.94367 0.07605 0.99876 -0.05700
C 	C 	0.88609 0.05141 0.97243 0.10500
C 	C 	0.85516 0.08021 0.97623 -0.08800
C 	C 	0.88386 0.13661 0.00314 -0.00400
C 	C 	0.94296 0.16295 0.02835 0.07000
C 	C 	0.97179 0.13178 0.02625 -0.04100
N 	N 	0.86196 0.00214 0.94244 -0.19300
H 	H 	0.81035 0.06067 0.95664 0.05700
C 	C 	0.85447 0.17048 0.00205 0.01100
N 	N 	0.97243 0.21815 0.05436 -0.19100
H 	H 	0.01606 0.15078 0.04625 0.04600
C 	C 	0.81678 0.16497 0.02970 -0.10400
C 	C 	0.78622 0.19453 0.02845 0.14600
C 	C 	0.78767 0.22403 0.99642 -0.12500
C 	C 	0.82621 0.23018 0.96911 -0.01800
C 	C 	0.86115 0.20541 0.97232 0.05200
H 	H 	0.81301 0.13944 0.05300 0.06500
N 	N 	0.75885 0.19736 0.05891 -0.20500
H 	H 	0.82871 0.25396 0.94505 0.02700
N 	N 	0.90113 0.21549 0.94686 -0.19100
H 	H 	0.75433 0.17203 0.08110 0.10400
H 	H 	0.74678 0.22857 0.06255 0.12700
H 	H 	0.90422 0.23968 0.92426 0.08400
H 	H 	0.93101 0.20139 0.94993 0.09000
H 	H 	0.01596 0.23707 0.07287 0.08500
H 	H 	0.95287 0.24304 0.05639 0.09400
H 	H 	0.88855 0.98595 0.93514 0.08800
H 	H 	0.81769 0.98210 0.92445 0.08200
C 	C 	0.12946 0.07306 0.99353 -0.05400
C 	C 	0.17264 0.07502 0.02252 0.10600
C 	C 	0.23435 0.09778 0.01601 -0.08100
C 	C 	0.25501 0.12216 0.98231 -0.01100
C 	C 	0.21246 0.12183 0.95377 0.07200
C 	C 	0.14999 0.09720 0.95973 -0.05200
N 	N 	0.15590 0.05711 0.05707 -0.19900
H 	H 	0.26739 0.09893 0.03802 0.06000
C 	C 	0.32308 0.15323 0.97906 0.00700
N 	N 	0.23121 0.14499 0.92071 -0.19400
H 	H 	0.11680 0.09564 0.93759 0.04900
C 	C 	0.33995 0.11753 0.95961 -0.09900
C 	C 	0.40447 0.14512 0.95706 0.13300
C 	C 	0.45311 0.20851 0.97628 -0.11100
C 	C 	0.43597 0.24419 0.99543 -0.02000
C 	C 	0.37141 0.21751 0.99656 0.05700
H 	H 	0.30264 0.06849 0.94584 0.06100
N 	N 	0.41896 0.11133 0.93514 -0.20300
H 	H 	0.47320 0.29284 0.00996 0.03400
N 	N 	0.35619 0.25383 0.01451 -0.18900
H 	H 	0.38306 0.06383 0.92232 0.09200
H 	H 	0.46507 0.13252 0.92904 0.09500
H 	H 	0.39238 0.30100 0.02786 0.08600
H 	H 	0.30852 0.23619 0.01491 0.09100
H 	H 	0.19963 0.14505 0.90000 0.08600
H 	H 	0.27693 0.16276 0.91505 0.09200
H 	H 	0.11330 0.04659 0.06460 0.09500
H 	H 	0.18710 0.05637 0.07766 0.09100
