data_crystal

_cell_length_a 20.18616
_cell_length_b 21.29619
_cell_length_c 38.65913
_cell_angle_alpha 60.89358
_cell_angle_beta  118.87689
_cell_angle_gamma 133.21405

_symmetry_space_group_name_	'P 1'
_symmetry_space_group_name_H-M	'P 1'

loop_
_symmetry_equiv_pos_as_xyz
  x,y,z

loop_
_atom_site_label
_atom_site_type_symbol
_atom_site_fract_x
_atom_site_fract_y
_atom_site_fract_z
_atom_site_charge
N 	N 	0.25531 0.53097 0.18982 -0.12800
N 	N 	0.19706 0.60351 0.61804 -0.13400
Co	Co	0.13253 0.03716 0.06149 1.17500
Co	Co	0.14187 0.89831 0.05258 1.17900
C 	C 	0.30996 0.05249 0.08660 0.28200
O 	O 	0.13967 0.13803 0.06047 -0.46200
C 	C 	0.12282 0.20091 0.14265 0.32800
C 	C 	0.12475 0.77726 0.13518 0.32600
O 	O 	0.10471 0.78055 0.09708 -0.41100
O 	O 	0.10657 0.81486 0.14497 -0.38600
O 	O 	0.14464 0.16457 0.13428 -0.39300
O 	O 	0.08836 0.92967 0.07175 -0.74500
O 	O 	0.26872 0.96832 0.09102 -0.34600
O 	O 	0.26959 0.07721 0.09085 -0.38400
Co	Co	0.00780 0.02116 0.52185 1.16500
Co	Co	0.08151 0.92371 0.52351 1.17600
C 	C 	0.18482 0.11884 0.50180 0.33700
C 	C 	0.00940 0.21631 0.59066 0.31200
C 	C 	0.19056 0.91727 0.60714 0.31300
O 	O 	0.19863 0.96805 0.57019 -0.37400
O 	O 	0.14018 0.90611 0.62522 -0.37500
O 	O 	0.03575 0.18634 0.58036 -0.39400
O 	O 	0.02378 0.93973 0.54870 -0.74600
O 	O 	0.13694 0.05173 0.48636 -0.42900
O 	O 	0.14724 0.11746 0.52225 -0.41300
C 	C 	0.16372 0.10138 0.87986 -0.03800
C 	C 	0.17778 0.11431 0.91607 0.03000
C 	C 	0.26212 0.19428 0.92931 0.09000
C 	C 	0.09778 0.98919 0.81892 -0.01600
C 	C 	0.08355 0.98841 0.77932 0.05700
C 	C 	0.15273 0.96066 0.85382 0.10900
C 	C 	0.13265 0.96870 0.77331 0.09200
C 	C 	0.23592 0.16591 0.85715 0.09700
N 	N 	0.17197 0.95296 0.76858 -0.09300
N 	N 	0.19661 0.93792 0.88172 -0.09900
N 	N 	0.32945 0.25864 0.93951 -0.09700
N 	N 	0.29348 0.21734 0.83900 -0.10700
C 	C 	0.04270 0.93540 0.29210 0.00900
C 	C 	0.09314 0.96539 0.35826 0.10600
C 	C 	0.13901 0.98102 0.29325 0.13200
N 	N 	0.03652 0.16199 0.38909 -0.11800
N 	N 	0.02181 0.13013 0.28985 -0.11400
N 	N 	0.15082 0.99177 0.38655 -0.11000
N 	N 	0.21596 0.01752 0.29413 -0.13200
C 	C 	0.14833 0.46937 0.60750 -0.04200
C 	C 	0.07372 0.30691 0.59698 -0.11200
C 	C 	0.09602 0.31548 0.63567 -0.04500
C 	C 	0.12985 0.39476 0.64072 0.14300
H 	H 	0.08288 0.25894 0.66170 0.06500
O 	O 	0.15150 0.40123 0.67891 -0.26600
H 	H 	0.09392 0.38378 0.68150 0.15500
C 	C 	0.24650 0.74010 0.62726 -0.03700
C 	C 	0.31333 0.83276 0.61680 -0.09000
C 	C 	0.30185 0.89105 0.61635 0.18400
C 	C 	0.22010 0.85800 0.62397 -0.11500
C 	C 	0.15615 0.76534 0.63732 -0.03600
C 	C 	0.16805 0.70633 0.63822 0.13900
O 	O 	0.36801 0.98100 0.60569 -0.27900
H 	H 	0.09432 0.73874 0.64459 0.06000
O 	O 	0.10411 0.61644 0.65057 -0.26700
H 	H 	0.05500 0.59802 0.62551 0.15200
C 	C 	0.25028 0.42314 0.17925 -0.04000
C 	C 	0.24939 0.35042 0.20891 -0.08700
C 	C 	0.22106 0.28062 0.19728 0.18300
C 	C 	0.19499 0.28408 0.15570 -0.11700
C 	C 	0.20627 0.36144 0.12660 -0.03800
C 	C 	0.22744 0.42768 0.13784 0.13900
H 	H 	0.27169 0.34837 0.24095 0.07700
O 	O 	0.21682 0.20817 0.22656 -0.27900
H 	H 	0.18820 0.36565 0.09456 0.06100
H 	H 	0.15437 0.16795 0.23247 0.15300
C 	C 	0.16334 0.72725 0.16641 -0.11700
C 	C 	0.10896 0.63648 0.16847 -0.03900
C 	C 	0.15096 0.59866 0.17468 0.13900
C 	C 	0.24927 0.65006 0.18243 -0.03400
C 	C 	0.30376 0.73547 0.18819 -0.08500
C 	C 	0.26103 0.77379 0.18048 0.18500
H 	H 	0.03336 0.59819 0.16016 0.05700
H 	H 	0.37939 0.77402 0.19660 0.08300
O 	O 	0.31556 0.86045 0.18195 -0.27500
H 	H 	0.32361 0.85742 0.21001 0.16200
O 	O 	0.26602 0.20978 0.43386 -0.27800
H 	H 	0.24049 0.15353 0.42981 0.15500
C 	C 	0.29526 0.61946 0.18043 0.13900
C 	C 	0.30245 0.50522 0.19090 0.14500
C 	C 	0.26632 0.68053 0.63110 0.14400
C 	C 	0.22029 0.55863 0.61569 0.14500
C 	C 	0.12488 0.46077 0.56860 -0.08900
C 	C 	0.08787 0.38015 0.56326 0.18000
H 	H 	0.13935 0.51779 0.54274 0.07300
O 	O 	0.06191 0.37216 0.52485 -0.29000
H 	H 	0.11812 0.38983 0.52078 0.15900
H 	H 	0.37467 0.85998 0.60886 0.07800
O 	O 	0.23106 0.49974 0.10840 -0.27100
H 	H 	0.16736 0.48357 0.10066 0.15100
O 	O 	0.09564 0.51281 0.17187 -0.26900
H 	H 	0.08281 0.51731 0.14285 0.14200
C 	C 	0.32180 0.21269 0.47265 0.18900
C 	C 	0.28592 0.18142 0.50548 -0.12600
C 	C 	0.40175 0.11937 0.07657 -0.10900
O 	O 	0.35857 0.21879 0.02933 -0.28800
H 	H 	0.38634 0.26072 0.04487 0.16000
N 	N 	0.37660 0.68027 0.16778 -0.12900
N 	N 	0.39200 0.56735 0.18759 -0.13700
N 	N 	0.35681 0.70977 0.64258 -0.13800
C 	C 	0.37924 0.66625 0.63911 0.15200
N 	N 	0.31119 0.59160 0.62538 -0.13600
C 	C 	0.13472 0.04149 0.98282 0.32100
O 	O 	0.18687 0.01329 0.00629 -0.41700
O 	O 	0.10379 0.05735 0.99875 -0.38200
O 	O 	0.03181 0.79571 0.55905 -0.41700
Co	Co	0.00684 0.88098 0.59641 1.18100
C 	C 	0.10781 0.05155 0.93832 -0.11300
C 	C 	0.02078 0.93238 0.32285 -0.04900
C 	C 	0.07895 0.02611 0.86552 -0.00700
H 	H 	0.31938 0.17009 0.56950 0.06000
C 	C 	0.05904 0.01852 0.82438 0.00400
C 	C 	0.01874 0.02397 0.70259 0.27000
O 	O 	0.01923 0.97261 0.69234 -0.34800
C 	C 	0.02334 0.00914 0.74574 -0.12400
O 	O 	0.00342 0.08206 0.67436 -0.39600
C 	C 	0.34613 0.19299 0.54416 -0.03400
O 	O 	0.00802 0.83129 0.01818 -0.38700
C 	C 	0.01920 0.98367 0.92103 0.04500
C 	C 	0.00682 0.96666 0.88654 -0.01900
C 	C 	0.00144 0.04134 0.79084 -0.07000
Co	Co	0.04985 0.08758 0.09192 1.18100
Co	Co	0.01475 0.84879 0.10261 1.18600
O 	O 	0.03633 0.17364 0.13150 -0.42500
O 	O 	0.01109 0.96298 0.08808 -0.56500
O 	O 	0.00921 0.01870 0.20038 -0.43300
H 	H 	0.00874 0.29685 0.05452 0.05200
C 	C 	0.99532 0.09157 0.38560 0.12600
C 	C 	0.42396 0.65337 0.17040 0.14700
C 	C 	0.41791 0.19535 0.04457 0.18400
O 	O 	0.97535 0.10059 0.51281 -0.45800
H 	H 	0.97735 0.72812 0.49768 0.15000
C 	C 	0.98781 0.06917 0.31578 0.05000
C 	C 	0.94387 0.00343 0.38127 -0.08600
O 	O 	0.95670 0.87919 0.48137 -0.36600
C 	C 	0.94528 0.99275 0.34824 0.06200
C 	C 	0.93402 0.93332 0.45426 0.28000
O 	O 	0.93605 0.98543 0.46529 -0.33400
H 	H 	0.41251 0.99764 0.63173 0.16000
C 	C 	0.89641 0.92795 0.41121 -0.00500
C 	C 	0.90642 0.90731 0.34735 -0.01600
H 	H 	0.45386 0.04033 0.11774 0.06700
C 	C 	0.98994 0.93888 0.21849 0.34000
O 	O 	0.99300 0.89920 0.20166 -0.37200
Co	Co	0.93772 0.06632 0.56265 1.18300
C 	C 	0.46500 0.09810 0.09266 -0.04900
O 	O 	0.92646 0.16401 0.59766 -0.39800
C 	C 	0.97073 0.89649 0.25942 -0.07100
C 	C 	0.92793 0.89728 0.31879 0.04900
C 	C 	0.97668 0.02871 0.75281 0.05700
C 	C 	0.41477 0.24719 0.47951 -0.08900
H 	H 	0.44176 0.26990 0.45429 0.07700
C 	C 	0.76101 0.31137 0.01402 0.14000
N 	N 	0.80903 0.39988 0.00892 -0.13000
C 	C 	0.77184 0.42986 0.01267 0.14600
N 	N 	0.68606 0.37195 0.02035 -0.13800
C 	C 	0.63913 0.28372 0.02685 0.14400
N 	N 	0.67597 0.25322 0.02319 -0.13400
C 	C 	0.67614 0.26883 0.52954 0.14400
N 	N 	0.74809 0.34397 0.54364 -0.13400
C 	C 	0.72940 0.38886 0.54903 0.14400
N 	N 	0.63987 0.35834 0.54079 -0.13400
C 	C 	0.56879 0.28521 0.52607 0.14500
N 	N 	0.58678 0.24112 0.51993 -0.14200
Co	Co	0.94350 0.90138 0.13911 1.19700
C 	C 	0.93953 0.75951 0.03629 0.33100
Co	Co	0.92939 0.04095 0.14401 1.16800
O 	O 	0.97424 0.00646 0.12191 -0.77000
O 	O 	0.93792 0.80119 0.14018 -0.44700
C 	C 	0.76522 0.86080 0.13374 0.33000
O 	O 	0.81854 0.91102 0.15920 -0.40100
O 	O 	0.80103 0.84381 0.12140 -0.36600
C 	C 	0.90081 0.12385 0.05546 0.31800
O 	O 	0.85654 0.05833 0.08444 -0.40200
O 	O 	0.97144 0.13833 0.05015 -0.36600
O 	O 	0.92023 0.76132 0.06424 -0.36900
Co	Co	0.93726 0.92685 0.63791 1.19600
C 	C 	0.94839 0.73890 0.56639 0.33600
Co	Co	0.87455 0.03712 0.63486 1.16700
O 	O 	0.91609 0.00551 0.60925 -0.77100
O 	O 	0.97184 0.84879 0.64687 -0.44500
O 	O 	0.94410 0.95450 0.57496 -0.55600
C 	C 	0.76627 0.84025 0.66104 0.32800
O 	O 	0.81756 0.91117 0.67424 -0.37800
O 	O 	0.80295 0.82887 0.64619 -0.37300
C 	C 	0.75937 0.04134 0.55208 0.27200
O 	O 	0.75400 0.99295 0.58968 -0.34000
O 	O 	0.81122 0.05491 0.53378 -0.36300
O 	O 	0.92159 0.75884 0.58257 -0.37900
C 	C 	0.91995 0.88854 0.87251 0.12500
C 	C 	0.90260 0.03536 0.72119 0.04800
C 	C 	0.96847 0.07924 0.79533 0.11500
C 	C 	0.93998 0.93468 0.93741 0.11700
N 	N 	0.84362 0.04121 0.69624 -0.15100
N 	N 	0.94223 0.10943 0.79896 -0.11200
N 	N 	0.85062 0.82628 0.86121 -0.10200
N 	N 	0.87671 0.89587 0.95045 -0.09500
C 	C 	0.85585 0.85215 0.28776 -0.04300
C 	C 	0.87755 0.84235 0.26192 0.02200
C 	C 	0.80538 0.77341 0.23993 0.08800
C 	C 	0.85132 0.83202 0.37515 -0.00900
C 	C 	0.83785 0.84342 0.40364 -0.00400
C 	C 	0.81539 0.74417 0.37676 0.09800
C 	C 	0.76938 0.76747 0.42756 0.11100
C 	C 	0.76141 0.82157 0.28058 0.10400
N 	N 	0.71478 0.70680 0.44671 -0.10100
N 	N 	0.78676 0.67404 0.37809 -0.10300
N 	N 	0.74752 0.71773 0.22261 -0.11000
N 	N 	0.68597 0.79716 0.27478 -0.11100
C 	C 	0.66536 0.78000 0.65816 -0.11700
C 	C 	0.63299 0.75839 0.69003 -0.03800
C 	C 	0.53962 0.72191 0.68393 0.14500
C 	C 	0.47738 0.70477 0.64602 -0.04200
C 	C 	0.50840 0.72168 0.61491 -0.08600
C 	C 	0.60183 0.75879 0.62087 0.19000
H 	H 	0.68126 0.77345 0.71903 0.07400
O 	O 	0.50885 0.70104 0.71533 -0.26500
H 	H 	0.46038 0.70780 0.58573 0.07900
O 	O 	0.63240 0.78048 0.58919 -0.27600
H 	H 	0.62422 0.72697 0.59176 0.15800
H 	H 	0.51988 0.75577 0.71322 0.15900
C 	C 	0.49727 0.71117 0.14755 -0.03300
C 	C 	0.51762 0.67217 0.13689 -0.08500
C 	C 	0.60193 0.72335 0.12622 0.19500
C 	C 	0.66382 0.81483 0.12390 -0.11300
C 	C 	0.63254 0.85586 0.12498 -0.03500
C 	C 	0.55266 0.80440 0.13923 0.14400
H 	H 	0.47062 0.60138 0.13910 0.08500
O 	O 	0.62434 0.68352 0.11896 -0.27400
H 	H 	0.67654 0.92751 0.11977 0.06400
O 	O 	0.53046 0.84527 0.14582 -0.26300
H 	H 	0.56450 0.85179 0.17419 0.15700
H 	H 	0.65460 0.66164 0.14605 0.16300
C 	C 	0.72601 0.09716 0.53437 -0.09000
C 	C 	0.78840 0.18984 0.52098 -0.05100
C 	C 	0.77350 0.24676 0.51952 0.15200
C 	C 	0.69301 0.21077 0.52957 -0.04700
C 	C 	0.62584 0.11802 0.53852 -0.07400
C 	C 	0.64186 0.06155 0.54076 0.13800
H 	H 	0.85176 0.21808 0.51440 0.07900
O 	O 	0.83637 0.33700 0.50736 -0.26700
H 	H 	0.56211 0.08932 0.54495 0.06400
O 	O 	0.57521 0.97127 0.54946 -0.24400
H 	H 	0.58665 0.95163 0.57960 0.15800
H 	H 	0.88546 0.35546 0.53242 0.16000
C 	C 	0.80473 0.47670 0.55795 -0.03500
C 	C 	0.84191 0.55039 0.52584 -0.08900
C 	C 	0.88349 0.63524 0.52750 0.19000
C 	C 	0.89143 0.64785 0.56230 -0.11600
C 	C 	0.86021 0.57512 0.59567 -0.03800
C 	C 	0.81674 0.48976 0.59357 0.14300
H 	H 	0.83231 0.54100 0.49818 0.08200
O 	O 	0.91275 0.70531 0.49433 -0.28100
H 	H 	0.87040 0.58469 0.62339 0.06800
O 	O 	0.78509 0.41890 0.62620 -0.27100
H 	H 	0.72065 0.39734 0.62223 0.16200
C 	C 	0.47241 0.25134 0.51889 -0.04000
C 	C 	0.43866 0.22637 0.55111 0.14200
O 	O 	0.49585 0.23376 0.58950 -0.27500
H 	H 	0.48760 0.17622 0.60300 0.14900
C 	C 	0.87589 0.18638 0.03077 -0.11400
C 	C 	0.93616 0.27024 0.03881 -0.02900
C 	C 	0.90059 0.31459 0.03158 0.13900
C 	C 	0.80463 0.27737 0.01364 -0.04200
C 	C 	0.74794 0.20035 0.99988 -0.07600
C 	C 	0.78284 0.15417 0.00891 0.17600
O 	O 	0.95889 0.39226 0.04347 -0.26600
H 	H 	0.67531 0.17351 0.98420 0.07600
O 	O 	0.72505 0.07601 0.99752 -0.27300
H 	H 	0.69292 0.02910 0.01996 0.15000
H 	H 	0.95693 0.37396 0.07216 0.14600
C 	C 	0.83101 0.51922 0.01807 -0.04200
C 	C 	0.83108 0.58732 0.98441 -0.08300
C 	C 	0.86132 0.66426 0.99010 0.19500
C 	C 	0.89306 0.67386 0.02980 -0.12300
C 	C 	0.89498 0.60651 0.06339 -0.03600
C 	C 	0.86635 0.53050 0.05766 0.14300
H 	H 	0.80325 0.57872 0.95383 0.08000
O 	O 	0.86008 0.73006 0.95689 -0.27500
H 	H 	0.92056 0.61393 0.09403 0.06500
O 	O 	0.86656 0.46416 0.09086 -0.27300
H 	H 	0.92751 0.47651 0.09657 0.15100
H 	H 	0.79720 0.71483 0.95019 0.16500
C 	C 	0.54093 0.14931 0.07564 0.14400
C 	C 	0.55332 0.22186 0.04174 -0.04100
C 	C 	0.49160 0.24455 0.02657 -0.08600
O 	O 	0.60247 0.12799 0.09203 -0.27700
H 	H 	0.50204 0.30174 0.00123 0.08200
H 	H 	0.65139 0.16189 0.11320 0.15200
