data_crystal

_cell_length_a 38.75216
_cell_length_b 38.80643
_cell_length_c 30.75707
_cell_angle_alpha 89.94740
_cell_angle_beta  89.94336
_cell_angle_gamma 90.60233

_symmetry_space_group_name_	'P 1'
_symmetry_space_group_name_H-M	'P 1'

loop_
_symmetry_equiv_pos_as_xyz
  x,y,z

loop_
_atom_site_label
_atom_site_type_symbol
_atom_site_fract_x
_atom_site_fract_y
_atom_site_fract_z
_atom_site_charge
Zn	Zn	0.47104 0.49888 0.01443 1.22600
C 	C 	0.49152 0.56965 0.99925 0.33000
O 	O 	0.50067 0.48716 0.06365 -0.47300
O 	O 	0.46749 0.57644 0.02797 -0.44500
O 	O 	0.51543 0.54039 0.08674 -0.48400
C 	C 	0.40680 0.52573 0.04174 0.34000
O 	O 	0.42561 0.51879 0.00741 -0.44100
O 	O 	0.42139 0.52891 0.08011 -0.49900
C 	C 	0.52438 0.50901 0.07658 0.33600
O 	O 	0.44210 0.44595 0.02331 -0.31800
Zn	Zn	0.46638 0.55172 0.08717 1.17300
O 	O 	0.49858 0.53743 0.98953 -0.43000
C 	C 	0.45964 0.43556 0.99002 0.28800
O 	O 	0.47981 0.45865 0.97269 -0.37900
Zn	Zn	0.44504 0.09112 0.01015 1.22500
C 	C 	0.47033 0.07772 0.09771 0.33600
O 	O 	0.39607 0.07660 0.00746 -0.43900
O 	O 	0.45860 0.10776 0.10988 -0.44500
O 	O 	0.39139 0.07716 0.08088 -0.48300
C 	C 	0.45251 0.16276 0.03169 0.34100
O 	O 	0.46957 0.13482 0.02118 -0.44600
O 	O 	0.42283 0.16043 0.05203 -0.50900
C 	C 	0.37816 0.06994 0.04280 0.33300
O 	O 	0.44327 0.10763 0.93553 -0.31500
Zn	Zn	0.41030 0.12280 0.09030 1.17600
O 	O 	0.45991 0.06407 0.06091 -0.42200
C 	C 	0.46162 0.08020 0.92963 0.29500
O 	O 	0.46870 0.06273 0.96412 -0.37200
C 	C 	0.57244 0.96580 0.27437 0.15000
C 	C 	0.55218 0.98980 0.25217 -0.06900
H 	H 	0.53768 0.00871 0.27032 0.08000
C 	C 	0.54989 0.98870 0.20673 0.05800
C 	C 	0.56897 0.96443 0.18339 -0.05400
C 	C 	0.58898 0.94012 0.20549 0.07300
C 	C 	0.59078 0.94093 0.25103 -0.09600
H 	H 	0.60618 0.92222 0.26830 0.08400
N 	N 	0.57362 0.96615 0.32106 -0.17800
C 	C 	0.55013 0.94683 0.34421 0.20000
C 	C 	0.54939 0.94864 0.38992 -0.07300
C 	C 	0.57247 0.97090 0.41149 0.06500
C 	C 	0.59777 0.98880 0.38747 -0.07400
C 	C 	0.59780 0.98628 0.34179 0.20400
C 	C 	0.52675 0.92774 0.41424 0.01500
C 	C 	0.52605 0.93008 0.45950 -0.05400
C 	C 	0.54594 0.95551 0.48127 0.02300
C 	C 	0.57080 0.97461 0.45727 -0.02900
C 	C 	0.59492 0.99629 0.47881 0.03000
C 	C 	0.62325 0.00800 0.40936 0.01200
C 	C 	0.62269 0.01055 0.45461 -0.06100
C 	C 	0.54266 0.96110 0.52680 0.01600
C 	C 	0.56670 0.98289 0.54835 -0.01800
C 	C 	0.59167 0.00188 0.52436 0.00700
O 	O 	0.62084 0.00368 0.31881 -0.19600
O 	O 	0.52781 0.92690 0.32352 -0.16000
H 	H 	0.64424 0.02011 0.39153 0.05000
H 	H 	0.64479 0.02200 0.47061 0.05200
H 	H 	0.51041 0.90879 0.39830 0.05600
H 	H 	0.51144 0.91090 0.47736 0.05400
C 	C 	0.61157 0.02731 0.54612 -0.05100
C 	C 	0.61055 0.02997 0.59135 0.01100
C 	C 	0.58762 0.00937 0.61565 -0.07800
C 	C 	0.56476 0.98687 0.59408 0.06300
C 	C 	0.51485 0.94686 0.55091 -0.05000
C 	C 	0.51408 0.94963 0.59612 0.01300
C 	C 	0.53935 0.96907 0.61803 -0.06900
C 	C 	0.58628 0.01182 0.66132 0.19700
N 	N 	0.56250 0.99281 0.68440 -0.17600
C 	C 	0.53888 0.97204 0.66365 0.19800
C 	C 	0.56241 0.99449 0.73108 0.15300
C 	C 	0.58382 0.97270 0.75518 -0.09700
C 	C 	0.58195 0.97241 0.80070 0.07100
C 	C 	0.55878 0.99415 0.82207 -0.05200
C 	C 	0.53693 0.01555 0.79804 0.05100
C 	C 	0.53939 0.01633 0.75258 -0.07500
O 	O 	0.60811 0.03227 0.68200 -0.19900
O 	O 	0.51591 0.95448 0.68656 -0.14600
H 	H 	0.60127 0.95553 0.73847 0.08100
H 	H 	0.52261 0.03288 0.73389 0.08900
H 	H 	0.62645 0.04628 0.52825 0.04800
H 	H 	0.62684 0.04897 0.60726 0.04800
H 	H 	0.49285 0.93526 0.53485 0.05400
H 	H 	0.49303 0.93755 0.61388 0.06100
H 	H 	0.55712 0.99379 0.85727 0.08400
H 	H 	0.56784 0.96412 0.14815 0.08900
Zn	Zn	0.67931 0.86385 0.99225 1.22600
C 	C 	0.66218 0.85876 0.08372 0.32200
O 	O 	0.72922 0.87469 0.99000 -0.45500
O 	O 	0.67125 0.82624 0.08227 -0.40500
O 	O 	0.74048 0.85314 0.05731 -0.43400
C 	C 	0.66045 0.79229 0.98945 0.33800
O 	O 	0.64835 0.82365 0.99206 -0.40300
O 	O 	0.69246 0.78629 0.00030 -0.49600
C 	C 	0.74842 0.87390 0.02517 0.34000
O 	O 	0.67663 0.86263 0.91523 -0.27300
Zn	Zn	0.71434 0.81114 0.04778 1.18200
O 	O 	0.67006 0.87974 0.05160 -0.38500
C 	C 	0.66104 0.89192 0.91921 0.26900
O 	O 	0.65716 0.90278 0.95860 -0.33000
Zn	Zn	0.07369 0.62639 0.99519 1.22300
C 	C 	0.05915 0.60848 0.08489 0.33800
O 	O 	0.06225 0.67538 0.98581 -0.45500
O 	O 	0.08918 0.62134 0.09656 -0.44100
O 	O 	0.06283 0.68655 0.05809 -0.49100
C 	C 	0.14400 0.61563 0.02089 0.34100
O 	O 	0.11488 0.59998 0.01066 -0.43400
O 	O 	0.14407 0.64786 0.03353 -0.50600
C 	C 	0.05511 0.69591 0.01842 0.33500
O 	O 	0.09138 0.62189 0.92137 -0.31200
Zn	Zn	0.10744 0.66643 0.06912 1.17500
O 	O 	0.04561 0.61695 0.04730 -0.42900
C 	C 	0.06293 0.60433 0.91674 0.29600
O 	O 	0.04434 0.60063 0.95131 -0.37400
C 	C 	0.96427 0.52112 0.71289 0.15000
C 	C 	0.98868 0.54021 0.73666 -0.07400
H 	H 	0.00791 0.55565 0.71974 0.09200
C 	C 	0.98864 0.53875 0.78221 0.05700
C 	C 	0.96337 0.51914 0.80396 -0.05700
C 	C 	0.93877 0.50023 0.78026 0.07300
C 	C 	0.93932 0.50119 0.73471 -0.09900
H 	H 	0.92054 0.48640 0.71622 0.08300
N 	N 	0.96523 0.52133 0.66620 -0.17700
C 	C 	0.98586 0.49838 0.64478 0.19800
C 	C 	0.98470 0.49597 0.59913 -0.07100
C 	C 	0.96185 0.51692 0.57584 0.06300
C 	C 	0.94275 0.54195 0.59804 -0.07500
C 	C 	0.94467 0.54369 0.64371 0.20000
C 	C 	0.00668 0.47373 0.57652 0.01500
C 	C 	0.00487 0.47125 0.53133 -0.04900
C 	C 	0.97901 0.48887 0.50797 0.01700
C 	C 	0.95871 0.51339 0.53018 -0.02400
C 	C 	0.93637 0.53538 0.50690 0.01800
C 	C 	0.92285 0.56543 0.57437 0.01300
C 	C 	0.92079 0.56307 0.52917 -0.05400
C 	C 	0.97418 0.48380 0.46256 0.02100
C 	C 	0.95184 0.50579 0.43929 -0.02500
C 	C 	0.93149 0.53025 0.46151 0.01900
O 	O 	0.92622 0.56652 0.66500 -0.19700
O 	O 	0.00637 0.47805 0.66710 -0.14900
H 	H 	0.90976 0.58627 0.59074 0.04900
H 	H 	0.90863 0.58380 0.51169 0.05000
H 	H 	0.02601 0.45909 0.59373 0.06100
H 	H 	0.02475 0.45709 0.51468 0.05500
C 	C 	0.90555 0.54779 0.43817 -0.05400
C 	C 	0.90376 0.54534 0.39297 0.01300
C 	C 	0.92587 0.52323 0.37034 -0.07600
C 	C 	0.94878 0.50235 0.39360 0.06300
C 	C 	0.98985 0.45619 0.44022 -0.05400
C 	C 	0.98796 0.45399 0.39500 0.01400
C 	C 	0.96808 0.47750 0.37135 -0.07200
C 	C 	0.92481 0.52094 0.32467 0.20000
N 	N 	0.94575 0.49830 0.30321 -0.17800
C 	C 	0.96639 0.47599 0.32566 0.20100
C 	C 	0.94716 0.49895 0.25654 0.15000
C 	C 	0.92469 0.47804 0.23213 -0.09900
C 	C 	0.92614 0.47879 0.18659 0.07300
C 	C 	0.95048 0.49998 0.16557 -0.05900
C 	C 	0.97309 0.52070 0.18991 0.06000
C 	C 	0.97101 0.52060 0.23538 -0.07300
O 	O 	0.90412 0.54111 0.30238 -0.19300
O 	O 	0.98524 0.45352 0.30431 -0.16100
H 	H 	0.90606 0.46154 0.24853 0.08100
H 	H 	0.98791 0.53719 0.25432 0.09400
H 	H 	0.88564 0.56188 0.45486 0.05100
H 	H 	0.88437 0.55992 0.37577 0.05000
H 	H 	0.00196 0.43540 0.45765 0.05600
H 	H 	0.00115 0.43324 0.37858 0.05800
H 	H 	0.95162 0.50055 0.13034 0.08500
H 	H 	0.96312 0.51827 0.83921 0.08500
Zn	Zn	0.83917 0.39350 0.97327 1.22500
C 	C 	0.84872 0.41651 0.88484 0.31900
O 	O 	0.79960 0.42436 0.96724 -0.41000
O 	O 	0.81642 0.40785 0.87739 -0.40700
O 	O 	0.76346 0.38200 0.94300 -0.49800
C 	C 	0.85317 0.32639 0.93820 0.33900
O 	O 	0.84794 0.34407 0.97390 -0.46000
O 	O 	0.83821 0.33535 0.90178 -0.43300
C 	C 	0.76831 0.41193 0.96194 0.33800
O 	O 	0.82775 0.38878 0.04888 -0.27300
Zn	Zn	0.79630 0.36243 0.90204 1.18100
O 	O 	0.86440 0.40543 0.91990 -0.38900
C 	C 	0.85472 0.40860 0.05303 0.27300
O 	O 	0.86968 0.41787 0.01727 -0.33000
Zn	Zn	0.02996 0.04416 0.02365 1.22400
C 	C 	0.04712 0.97229 0.02255 0.33200
O 	O 	0.99447 0.04390 0.06930 -0.46900
O 	O 	0.06979 0.98093 0.05252 -0.44800
O 	O 	0.00920 0.99599 0.10656 -0.48700
C 	C 	0.09892 0.05419 0.05289 0.34500
O 	O 	0.07989 0.04817 0.01850 -0.44300
O 	O 	0.08546 0.05082 0.09178 -0.50700
C 	C 	0.98551 0.01508 0.08862 0.33600
O 	O 	0.02922 0.10465 0.02286 -0.31600
Zn	Zn	0.05713 0.01061 0.10580 1.17200
O 	O 	0.02607 0.99543 0.00643 -0.42700
C 	C 	0.01155 0.10162 0.98730 0.29000
O 	O 	0.00592 0.07022 0.97455 -0.37900
C 	C 	0.91226 0.17396 0.95343 -0.07800
C 	C 	0.95094 0.18428 0.95722 0.03200
C 	C 	0.93905 0.23654 0.90933 -0.08000
C 	C 	0.91258 0.23954 0.94703 0.03200
C 	C 	0.88970 0.20645 0.94745 -0.07800
H 	H 	0.90837 0.15631 0.92531 0.05000
H 	H 	0.90379 0.15979 0.98314 0.04900
C 	C 	0.97245 0.15367 0.96411 0.02400
H 	H 	0.95596 0.25990 0.90828 0.07100
H 	H 	0.92532 0.23501 0.87760 0.06500
C 	C 	0.89121 0.27049 0.94213 0.04000
H 	H 	0.87501 0.20433 0.91646 0.05100
H 	H 	0.87047 0.20777 0.97430 0.04700
C 	C 	0.93269 0.24144 0.99053 -0.08100
H 	H 	0.91437 0.24348 0.01830 0.05600
H 	H 	0.94949 0.26489 0.99115 0.06000
C 	C 	0.95519 0.20905 0.99651 -0.08600
H 	H 	0.98273 0.21705 0.00001 0.06100
H 	H 	0.94759 0.19566 0.02716 0.05700
C 	C 	0.96164 0.20400 0.91532 -0.07700
H 	H 	0.98932 0.21184 0.91715 0.05700
H 	H 	0.95868 0.18691 0.88649 0.05500
C 	C 	0.99025 0.12935 0.97289 -0.08100
C 	C 	0.87381 0.29597 0.93969 -0.07900
C 	C 	0.91313 0.47854 0.80320 -0.01600
C 	C 	0.88820 0.49377 0.82976 -0.01300
C 	C 	0.86582 0.47323 0.85449 -0.02100
C 	C 	0.86802 0.43722 0.85285 0.01700
C 	C 	0.89159 0.42156 0.82385 -0.10400
C 	C 	0.91460 0.44256 0.79990 0.05200
H 	H 	0.84751 0.48534 0.87615 0.05900
H 	H 	0.93410 0.43101 0.77943 0.08900
H 	H 	0.88671 0.52158 0.83204 0.04700
C 	C 	0.89314 0.38263 0.81976 0.78300
F 	F 	0.86030 0.36906 0.81411 -0.46700
F 	F 	0.91294 0.37277 0.78449 -0.44100
F 	F 	0.90746 0.36888 0.85702 -0.43900
C 	C 	0.90186 0.45794 0.16063 -0.02200
C 	C 	0.90943 0.42354 0.15128 -0.00600
C 	C 	0.89133 0.40609 0.11866 -0.02800
C 	C 	0.86542 0.42284 0.09519 0.03600
C 	C 	0.85479 0.45611 0.10813 -0.11200
C 	C 	0.87387 0.47382 0.14019 0.05100
H 	H 	0.89896 0.38027 0.10969 0.05800
H 	H 	0.86802 0.50037 0.14786 0.07100
H 	H 	0.93071 0.41099 0.16747 0.06200
C 	C 	0.82483 0.47362 0.08573 0.78300
F 	F 	0.81375 0.50196 0.10902 -0.45100
F 	F 	0.83494 0.48446 0.04477 -0.44500
F 	F 	0.79720 0.45095 0.08186 -0.45100
C 	C 	0.05143 0.85447 0.95917 -0.08000
C 	C 	0.04098 0.86800 0.00475 0.02600
C 	C 	0.00587 0.81272 0.01641 -0.07000
C 	C 	0.04257 0.80000 0.00469 0.02300
C 	C 	0.05237 0.81439 0.95914 -0.07800
H 	H 	0.03273 0.86347 0.93429 0.05000
H 	H 	0.07728 0.86492 0.94992 0.04900
C 	C 	0.04095 0.90592 0.00635 0.03300
H 	H 	0.99813 0.80288 0.04904 0.04500
H 	H 	0.98676 0.80252 0.99255 0.04300
C 	C 	0.04440 0.76212 0.00601 0.03600
H 	H 	0.03413 0.80422 0.93422 0.05000
H 	H 	0.07867 0.80575 0.94986 0.04700
C 	C 	0.06839 0.81495 0.03843 -0.07500
H 	H 	0.09506 0.80636 0.03081 0.04000
H 	H 	0.06197 0.80520 0.07157 0.04000
C 	C 	0.06746 0.85472 0.03846 -0.07700
H 	H 	0.06060 0.86393 0.07162 0.04200
H 	H 	0.09369 0.86511 0.03086 0.04600
C 	C 	0.00493 0.85277 0.01644 -0.07100
H 	H 	0.99672 0.86199 0.04908 0.04200
H 	H 	0.98536 0.86173 0.99260 0.04100
C 	C 	0.04285 0.93664 0.01161 -0.10600
C 	C 	0.04813 0.73151 0.01017 -0.12100
C 	C 	0.05113 0.59153 0.87444 -0.10300
C 	C 	0.02516 0.60910 0.85222 0.05100
C 	C 	0.00687 0.59278 0.81889 -0.09000
C 	C 	0.01433 0.55868 0.80748 0.10400
C 	C 	0.04337 0.54235 0.82606 -0.16200
C 	C 	0.06104 0.55874 0.86044 0.11000
H 	H 	0.98535 0.60582 0.80386 0.06300
H 	H 	0.08124 0.54534 0.87773 0.06500
H 	H 	0.01771 0.63464 0.86258 0.03300
C 	C 	0.05399 0.50665 0.81150 0.79700
F 	F 	0.08698 0.49899 0.82549 -0.43900
F 	F 	0.03131 0.48237 0.82842 -0.44000
F 	F 	0.05370 0.50453 0.76660 -0.44200
C 	C 	0.03888 0.58770 0.11576 -0.12600
C 	C 	0.00518 0.59735 0.12621 0.06300
C 	C 	0.98453 0.57607 0.15216 -0.09800
C 	C 	0.99708 0.54456 0.16748 0.10400
C 	C 	0.03157 0.53500 0.15823 -0.16500
C 	C 	0.05235 0.55708 0.13254 0.11500
H 	H 	0.95829 0.58358 0.15937 0.06900
H 	H 	0.07857 0.55003 0.12449 0.06200
H 	H 	0.99479 0.62119 0.11368 0.03200
C 	C 	0.04588 0.50121 0.17497 0.79800
F 	F 	0.07985 0.49665 0.16246 -0.44500
F 	F 	0.04458 0.50066 0.21990 -0.44900
F 	F 	0.02655 0.47393 0.15882 -0.44500
C 	C 	0.90124 0.93119 0.04459 -0.07500
C 	C 	0.89272 0.96760 0.06221 0.01800
C 	C 	0.83775 0.96651 0.01648 -0.07700
C 	C 	0.83552 0.93302 0.04400 0.03200
C 	C 	0.86766 0.91090 0.03389 -0.07500
H 	H 	0.91743 0.93337 0.01475 0.04900
H 	H 	0.91643 0.91662 0.06906 0.04600
C 	C 	0.92494 0.98637 0.07241 0.04600
H 	H 	0.81502 0.98299 0.02318 0.05800
H 	H 	0.83726 0.96009 0.98121 0.04800
C 	C 	0.80378 0.91322 0.03453 0.04200
H 	H 	0.86779 0.90341 0.99895 0.04300
H 	H 	0.86684 0.88666 0.05328 0.04800
C 	C 	0.83651 0.94309 0.09285 -0.08200
H 	H 	0.83502 0.91954 0.11351 0.06800
H 	H 	0.81377 0.95915 0.10108 0.07400
C 	C 	0.87011 0.96341 0.10354 -0.07200
H 	H 	0.86345 0.98918 0.11683 0.05300
H 	H 	0.88467 0.94953 0.12925 0.05100
C 	C 	0.87144 0.98688 0.02720 -0.06600
H 	H 	0.86480 0.01310 0.03900 0.04600
H 	H 	0.88703 0.99020 0.99703 0.04600
C 	C 	0.95213 0.00030 0.08035 -0.12100
C 	C 	0.77823 0.89584 0.02887 -0.07700
C 	C 	0.60304 0.94821 0.82604 -0.01600
C 	C 	0.63870 0.95360 0.82979 -0.01500
C 	C 	0.65804 0.93340 0.85818 -0.02900
C 	C 	0.64198 0.90743 0.88293 0.03400
C 	C 	0.60644 0.89992 0.87663 -0.10400
C 	C 	0.58706 0.92105 0.84875 0.04800
H 	H 	0.68531 0.93889 0.86233 0.05200
H 	H 	0.55949 0.91697 0.84543 0.10600
H 	H 	0.65122 0.97432 0.81194 0.04600
C 	C 	0.58891 0.87055 0.90104 0.78200
F 	F 	0.58618 0.87895 0.94458 -0.43800
F 	F 	0.55612 0.86382 0.88510 -0.42900
F 	F 	0.60792 0.84076 0.89689 -0.44300
C 	C 	0.60831 0.91411 0.18074 -0.01400
C 	C 	0.59062 0.89044 0.15430 -0.01300
C 	C 	0.60877 0.86977 0.12524 -0.01500
C 	C 	0.64480 0.87241 0.12243 0.01600
C 	C 	0.66309 0.89338 0.15250 -0.10600
C 	C 	0.64448 0.91496 0.18064 0.04600
H 	H 	0.59467 0.85313 0.10307 0.06800
H 	H 	0.65802 0.93322 0.20129 0.07400
H 	H 	0.56268 0.88918 0.15489 0.08400
C 	C 	0.70222 0.89431 0.15285 0.78300
F 	F 	0.71480 0.90883 0.19084 -0.45000
F 	F 	0.71504 0.86125 0.14988 -0.46600
F 	F 	0.71413 0.91362 0.11803 -0.44900
C 	C 	0.25975 0.07028 0.08611 -0.07600
C 	C 	0.27262 0.06092 0.03984 0.02300
C 	C 	0.21870 0.02357 0.03018 -0.07100
C 	C 	0.20456 0.05945 0.04310 0.02100
C 	C 	0.21980 0.06943 0.08802 -0.07600
H 	H 	0.27020 0.05182 0.11039 0.04800
H 	H 	0.26926 0.09644 0.09535 0.04000
C 	C 	0.31061 0.06220 0.03872 0.03900
H 	H 	0.20828 0.01575 0.99790 0.04800
H 	H 	0.21008 0.00375 0.05414 0.04500
C 	C 	0.16660 0.05853 0.04542 0.03800
H 	H 	0.21119 0.05056 0.11319 0.04400
H 	H 	0.21025 0.09518 0.09812 0.04600
C 	C 	0.21725 0.08625 0.00903 -0.07200
H 	H 	0.20763 0.11232 0.01754 0.05000
H 	H 	0.20677 0.07966 0.97636 0.04900
C 	C 	0.25729 0.08710 0.00711 -0.07300
H 	H 	0.26594 0.08094 0.97350 0.05000
H 	H 	0.26677 0.11361 0.01466 0.04500
C 	C 	0.25876 0.02444 0.02826 -0.07400
H 	H 	0.26747 0.01707 0.99507 0.05400
H 	H 	0.26924 0.00507 0.05134 0.05500
C 	C 	0.34161 0.06472 0.03957 -0.11600
C 	C 	0.13562 0.05713 0.04837 -0.11500
C 	C 	0.47309 0.06898 0.88652 -0.10500
C 	C 	0.50036 0.08643 0.86589 0.05000
C 	C 	0.51925 0.07009 0.83328 -0.09300
C 	C 	0.51077 0.03630 0.82073 0.10600
C 	C 	0.48006 0.02069 0.83675 -0.16700
C 	C 	0.46205 0.03684 0.87072 0.11300
H 	H 	0.54201 0.08272 0.82001 0.06300
H 	H 	0.44067 0.02361 0.88651 0.06600
H 	H 	0.50864 0.11156 0.87745 0.03100
C 	C 	0.46804 0.98576 0.82023 0.80100
F 	F 	0.48795 0.96021 0.83857 -0.43800
F 	F 	0.43382 0.97951 0.83087 -0.43700
F 	F 	0.47092 0.98423 0.77544 -0.44200
C 	C 	0.48880 0.05617 0.12911 -0.12600
C 	C 	0.51947 0.06808 0.14812 0.05600
C 	C 	0.53863 0.04633 0.17483 -0.09600
C 	C 	0.52698 0.01264 0.18348 0.10300
C 	C 	0.49454 0.00138 0.16722 -0.17100
C 	C 	0.47629 0.02300 0.13880 0.11700
H 	H 	0.56306 0.05533 0.18793 0.06500
H 	H 	0.45244 0.01405 0.12405 0.06600
H 	H 	0.52908 0.09380 0.14106 0.02900
C 	C 	0.48006 0.96596 0.17856 0.80100
F 	F 	0.48307 0.95982 0.22270 -0.44800
F 	F 	0.44544 0.96313 0.16790 -0.44300
F 	F 	0.49789 0.94104 0.15594 -0.45000
C 	C 	0.47708 0.27235 0.95093 -0.07300
C 	C 	0.47058 0.26326 0.99948 0.01200
C 	C 	0.49896 0.32043 0.02049 -0.07600
C 	C 	0.47015 0.33077 0.98807 0.02500
C 	C 	0.47682 0.31219 0.94420 -0.07900
H 	H 	0.50238 0.26197 0.94028 0.04700
H 	H 	0.45683 0.26017 0.93021 0.04900
C 	C 	0.46923 0.22576 0.00733 0.04300
H 	H 	0.49488 0.33330 0.05239 0.04900
H 	H 	0.52458 0.32920 0.00804 0.04800
C 	C 	0.46883 0.36857 0.98343 0.02300
H 	H 	0.50200 0.32084 0.93034 0.04800
H 	H 	0.45646 0.31899 0.92028 0.05000
C 	C 	0.43504 0.31789 0.00638 -0.07300
H 	H 	0.41380 0.32473 0.98368 0.04800
H 	H 	0.42948 0.33069 0.03800 0.05000
C 	C 	0.43529 0.27846 0.01307 -0.06600
H 	H 	0.42983 0.27252 0.04786 0.04400
H 	H 	0.41413 0.26649 0.99359 0.04400
C 	C 	0.49922 0.28075 0.02719 -0.07100
H 	H 	0.49522 0.27477 0.06226 0.04500
H 	H 	0.52492 0.27053 0.01791 0.04700
C 	C 	0.46396 0.19604 0.01698 -0.11200
C 	C 	0.46556 0.39944 0.98401 -0.08300
C 	C 	0.26540 0.60324 0.01931 -0.07400
C 	C 	0.24001 0.57219 0.02322 0.03000
C 	C 	0.28636 0.53405 0.99001 -0.07800
C 	C 	0.30460 0.55155 0.02929 0.02600
C 	C 	0.30324 0.59115 0.02287 -0.07300
H 	H 	0.26167 0.61659 0.98762 0.04800
H 	H 	0.26016 0.62238 0.04539 0.04700
C 	C 	0.20426 0.58469 0.02042 0.04000
H 	H 	0.28681 0.50552 0.99380 0.05400
H 	H 	0.30036 0.54043 0.95937 0.05400
C 	C 	0.34085 0.54070 0.03303 0.03700
H 	H 	0.31756 0.59872 0.99288 0.04800
H 	H 	0.31601 0.60450 0.05067 0.04600
C 	C 	0.28421 0.54214 0.07118 -0.07500
H 	H 	0.29659 0.55444 0.09999 0.04800
H 	H 	0.28461 0.51377 0.07655 0.05300
C 	C 	0.24627 0.55425 0.06761 -0.07900
H 	H 	0.22853 0.53168 0.07127 0.06000
H 	H 	0.24057 0.57232 0.09474 0.05100
C 	C 	0.24832 0.54620 0.98644 -0.08100
H 	H 	0.23061 0.52349 0.98855 0.06000
H 	H 	0.24419 0.55840 0.95412 0.05800
C 	C 	0.17601 0.59741 0.01969 -0.09900
C 	C 	0.37084 0.53324 0.03675 -0.10700
C 	C 	0.64897 0.47809 0.07924 -0.07000
C 	C 	0.62222 0.48060 0.04187 0.01800
C 	C 	0.67197 0.49083 0.98876 -0.09100
C 	C 	0.68137 0.45676 0.01221 0.04300
C 	C 	0.68380 0.46405 0.06177 -0.08600
H 	H 	0.65329 0.50393 0.09407 0.05300
H 	H 	0.63899 0.46074 0.10532 0.05000
C 	C 	0.58863 0.49312 0.05753 0.04000
H 	H 	0.66991 0.48642 0.95308 0.05300
H 	H 	0.69271 0.51047 0.99390 0.06200
C 	C 	0.71390 0.44271 0.99514 0.03900
H 	H 	0.70478 0.48318 0.06829 0.08300
H 	H 	0.69043 0.44002 0.07955 0.06900
C 	C 	0.65178 0.43024 0.00453 -0.07900
H 	H 	0.65771 0.40549 0.02115 0.05100
H 	H 	0.64925 0.42456 0.96918 0.04500
C 	C 	0.61715 0.44419 0.02190 -0.06900
H 	H 	0.59812 0.44513 0.99482 0.04600
H 	H 	0.60656 0.42609 0.04679 0.04700
C 	C 	0.63719 0.50484 0.00620 -0.06400
H 	H 	0.61857 0.50712 0.97882 0.04500
H 	H 	0.64130 0.53119 0.01965 0.04800
C 	C 	0.55986 0.50144 0.06782 -0.11300
C 	C 	0.73935 0.42951 0.98027 -0.07500
C 	C 	0.56824 0.71050 0.01459 -0.07800
C 	C 	0.59628 0.70777 0.97883 0.03100
C 	C 	0.59473 0.64238 0.98827 -0.07800
C 	C 	0.55662 0.65196 0.97948 0.02100
C 	C 	0.54501 0.67781 0.01498 -0.07000
H 	H 	0.58053 0.71376 0.04706 0.05300
H 	H 	0.55204 0.73359 0.00882 0.06700
C 	C 	0.61853 0.73883 0.97966 0.04100
H 	H 	0.60389 0.62400 0.96310 0.04900
H 	H 	0.59700 0.62926 0.02034 0.05000
C 	C 	0.53420 0.62105 0.98145 0.03300
H 	H 	0.54622 0.66552 0.04768 0.04400
H 	H 	0.51770 0.68531 0.00947 0.05200
C 	C 	0.55466 0.67023 0.93463 -0.07400
H 	H 	0.52754 0.67750 0.92746 0.05600
H 	H 	0.56306 0.65237 0.90846 0.05300
C 	C 	0.57803 0.70312 0.93424 -0.08100
H 	H 	0.59758 0.70098 0.90787 0.06200
H 	H 	0.56206 0.72608 0.92689 0.07300
C 	C 	0.61803 0.67515 0.98790 -0.08300
H 	H 	0.63836 0.67242 0.96256 0.05100
H 	H 	0.63140 0.67762 0.01979 0.05100
C 	C 	0.63726 0.76371 0.98292 -0.07900
C 	C 	0.51511 0.59674 0.98721 -0.10800
