data_crystal

_cell_length_a 32.32053
_cell_length_b 28.84369
_cell_length_c 19.48454
_cell_angle_alpha 92.67033
_cell_angle_beta  85.31964
_cell_angle_gamma 124.34019

_symmetry_space_group_name_	'P 1'
_symmetry_space_group_name_H-M	'P 1'

loop_
_symmetry_equiv_pos_as_xyz
  x,y,z

loop_
_atom_site_label
_atom_site_type_symbol
_atom_site_fract_x
_atom_site_fract_y
_atom_site_fract_z
_atom_site_charge
C 	C 	0.93013 0.85224 0.96581 0.01000
C 	C 	0.97125 0.87712 0.91690 -0.03200
C 	C 	0.00168 0.93544 0.90910 -0.05400
C 	C 	0.99187 0.96959 0.95065 0.07800
C 	C 	0.95120 0.94468 0.00072 -0.07300
C 	C 	0.92024 0.88633 0.00762 -0.03400
N 	N 	0.02367 0.02973 0.94117 -0.14000
C 	C 	0.94746 0.10985 0.92657 -0.00000
C 	C 	0.95922 0.10250 0.99130 -0.01400
C 	C 	0.98531 0.07745 0.99637 -0.05900
C 	C 	0.99799 0.05717 0.93693 0.07800
C 	C 	0.98651 0.06479 0.87241 -0.06500
C 	C 	0.96201 0.09166 0.86704 -0.02100
C 	C 	0.15754 0.11501 0.04775 -0.01300
C 	C 	0.15829 0.12870 0.97931 -0.00300
C 	C 	0.11392 0.10137 0.94532 -0.07200
C 	C 	0.06834 0.05987 0.97904 0.09700
C 	C 	0.06726 0.04731 0.04851 -0.08300
C 	C 	0.11175 0.07475 0.08255 -0.01300
C 	C 	0.86246 0.18150 0.91566 0.04800
C 	C 	0.84920 0.13277 0.87818 -0.04000
C 	C 	0.87685 0.10941 0.88171 -0.02800
C 	C 	0.91897 0.13546 0.92127 0.01500
C 	C 	0.93302 0.18513 0.95726 -0.02600
C 	C 	0.90426 0.20730 0.95568 -0.03000
C 	C 	0.83528 0.67319 0.98697 0.05200
C 	C 	0.84481 0.69800 0.92229 -0.04000
C 	C 	0.87545 0.75640 0.91545 -0.02600
C 	C 	0.89734 0.79048 0.97314 0.01700
C 	C 	0.88771 0.76557 0.03790 -0.03400
C 	C 	0.85630 0.70722 0.04490 -0.04000
C 	C 	0.30506 0.18765 0.11042 0.04000
C 	C 	0.27063 0.12915 0.11228 -0.03300
C 	C 	0.22088 0.10517 0.09723 -0.03100
C 	C 	0.20521 0.13960 0.08073 0.01900
C 	C 	0.23839 0.19816 0.08595 -0.03200
C 	C 	0.28820 0.22210 0.10066 -0.03400
H 	H 	0.97963 0.85127 0.88495 0.04800
H 	H 	0.03306 0.95424 0.87082 0.05500
H 	H 	0.94374 0.97029 0.03447 0.05000
H 	H 	0.88854 0.86759 0.04543 0.04200
H 	H 	0.94777 0.11576 0.03771 0.03600
H 	H 	0.99452 0.07255 0.04649 0.04300
H 	H 	0.99692 0.05015 0.82635 0.05300
H 	H 	0.95415 0.09814 0.81668 0.04200
H 	H 	0.19349 0.15953 0.95190 0.05300
H 	H 	0.11501 0.11154 0.89211 0.06200
H 	H 	0.03222 0.01667 0.07608 0.05400
H 	H 	0.11075 0.06426 0.13560 0.03600
H 	H 	0.81687 0.11241 0.84738 0.06000
H 	H 	0.86517 0.07069 0.85446 0.04600
H 	H 	0.96585 0.20615 0.98709 0.05200
H 	H 	0.91432 0.24441 0.98571 0.07000
H 	H 	0.82845 0.67203 0.87738 0.06800
H 	H 	0.88210 0.77516 0.86540 0.04800
H 	H 	0.90461 0.79140 0.08270 0.04600
H 	H 	0.84869 0.68840 0.09516 0.06400
H 	H 	0.28321 0.10226 0.12081 0.05900
H 	H 	0.19539 0.05990 0.09428 0.04800
H 	H 	0.22634 0.22510 0.07476 0.04900
H 	H 	0.31440 0.26736 0.10023 0.06000
C 	C 	0.90714 0.81347 0.50631 0.00000
C 	C 	0.94012 0.82809 0.44745 -0.02300
C 	C 	0.97179 0.88411 0.42664 -0.06500
C 	C 	0.97091 0.92614 0.46431 0.07700
C 	C 	0.93799 0.91158 0.52363 -0.06700
C 	C 	0.90622 0.85542 0.54440 -0.02300
N 	N 	0.00350 0.98356 0.44116 -0.13900
C 	C 	0.93170 0.06769 0.41787 0.00000
C 	C 	0.95611 0.07570 0.47797 -0.02300
C 	C 	0.97975 0.04821 0.48622 -0.06700
C 	C 	0.97938 0.01251 0.43401 0.07700
C 	C 	0.95492 0.00465 0.37403 -0.06500
C 	C 	0.93116 0.03205 0.36596 -0.02400
C 	C 	0.14963 0.07166 0.51574 0.00100
C 	C 	0.14323 0.06745 0.44471 -0.02200
C 	C 	0.09518 0.04031 0.42092 -0.06500
C 	C 	0.05282 0.01554 0.46742 0.08200
C 	C 	0.05905 0.01911 0.53862 -0.06800
C 	C 	0.10724 0.04810 0.56259 -0.02100
C 	C 	0.85614 0.14972 0.40438 0.04700
C 	C 	0.82848 0.09095 0.40805 -0.03500
C 	C 	0.85324 0.06406 0.41064 -0.03000
C 	C 	0.90582 0.09575 0.41000 0.01100
C 	C 	0.93353 0.15445 0.40473 -0.03000
C 	C 	0.90877 0.18133 0.40192 -0.04000
C 	C 	0.80914 0.63745 0.54691 0.04600
C 	C 	0.78919 0.66789 0.53171 -0.03900
C 	C 	0.82095 0.72600 0.52182 -0.03000
C 	C 	0.87288 0.75404 0.52695 0.01100
C 	C 	0.89246 0.72395 0.54546 -0.03000
C 	C 	0.86073 0.66586 0.55520 -0.03500
C 	C 	0.29888 0.14566 0.57865 0.04800
C 	C 	0.25843 0.09577 0.60949 -0.04100
C 	C 	0.20966 0.07210 0.58993 -0.02800
C 	C 	0.20058 0.09901 0.54082 0.01200
C 	C 	0.24077 0.15053 0.51278 -0.02800
C 	C 	0.28976 0.17301 0.53035 -0.03300
H 	H 	0.94089 0.79594 0.41751 0.04300
H 	H 	0.99697 0.89499 0.38096 0.05400
H 	H 	0.93691 0.94355 0.55333 0.05000
H 	H 	0.88091 0.84453 0.58997 0.04300
H 	H 	0.95627 0.10274 0.51861 0.04300
H 	H 	0.99736 0.05388 0.53350 0.05000
H 	H 	0.95436 0.97723 0.33367 0.05200
H 	H 	0.91237 0.02561 0.31938 0.04300
H 	H 	0.17544 0.08445 0.40790 0.04200
H 	H 	0.09067 0.03715 0.36607 0.05400
H 	H 	0.02679 0.00005 0.57528 0.05100
H 	H 	0.11159 0.05180 0.61752 0.04100
H 	H 	0.78782 0.06626 0.41033 0.06400
H 	H 	0.83155 0.01872 0.41466 0.04800
H 	H 	0.97416 0.17923 0.40380 0.04700
H 	H 	0.93039 0.22672 0.39921 0.05900
H 	H 	0.74938 0.64629 0.52534 0.06000
H 	H 	0.80545 0.74889 0.50776 0.04700
H 	H 	0.93245 0.74531 0.55013 0.04800
H 	H 	0.87644 0.64268 0.56700 0.06200
H 	H 	0.26502 0.07436 0.64690 0.06000
H 	H 	0.17918 0.03216 0.61163 0.04600
H 	H 	0.23421 0.17242 0.47605 0.04900
H 	H 	0.32072 0.21111 0.50548 0.06900
Co	Co	0.70679 0.32796 0.98965 1.18800
O 	O 	0.75885 0.32203 0.92560 -0.36900
Co	Co	0.60643 0.32954 0.03760 1.18800
O 	O 	0.63862 0.29646 0.95261 -0.44400
O 	O 	0.66749 0.40678 0.04869 -0.39900
O 	O 	0.70348 0.25155 0.98556 -0.31700
C 	C 	0.70885 0.43196 0.00684 0.36000
O 	O 	0.60157 0.33590 0.92956 -0.32200
C 	C 	0.51573 0.27649 0.09270 0.32000
C 	C 	0.67838 0.32767 0.12300 0.32500
O 	O 	0.55027 0.32912 0.09996 -0.34100
O 	O 	0.53268 0.25320 0.05241 -0.33700
O 	O 	0.72272 0.34409 0.09617 -0.36000
O 	O 	0.64461 0.30174 0.07858 -0.46000
O 	O 	0.72288 0.40361 0.96726 -0.52600
C 	C 	0.74074 0.27046 0.94009 0.31600
C 	C 	0.62913 0.31855 0.90535 0.28600
H 	H 	0.74785 0.42331 0.92639 0.18300
Co	Co	0.70560 0.29768 0.49878 1.19000
O 	O 	0.76405 0.30320 0.43629 -0.35500
Co	Co	0.60158 0.29283 0.54947 1.18900
O 	O 	0.64217 0.27856 0.45494 -0.44900
O 	O 	0.66153 0.36411 0.58000 -0.41800
O 	O 	0.70154 0.22303 0.46730 -0.32600
C 	C 	0.70193 0.39671 0.53884 0.36000
O 	O 	0.60687 0.32233 0.44789 -0.33500
C 	C 	0.50764 0.23150 0.59027 0.31200
C 	C 	0.66287 0.26711 0.62759 0.33300
O 	O 	0.54081 0.28065 0.61352 -0.35800
O 	O 	0.52766 0.21725 0.54124 -0.31400
O 	O 	0.70904 0.28700 0.60605 -0.33000
O 	O 	0.63526 0.25513 0.57649 -0.46000
O 	O 	0.72920 0.37854 0.50959 -0.51500
C 	C 	0.74430 0.24995 0.43227 0.31100
C 	C 	0.63700 0.31043 0.41709 0.29600
H 	H 	0.76426 0.40696 0.48882 0.19400
C 	C 	0.63365 0.30730 0.83212 -0.03500
C 	C 	0.67543 0.34764 0.79114 -0.03500
C 	C 	0.68383 0.33471 0.72383 0.04100
C 	C 	0.65024 0.28125 0.69629 -0.14500
C 	C 	0.60645 0.24099 0.73659 0.14300
C 	C 	0.59865 0.25461 0.80453 -0.06200
H 	H 	0.71696 0.36609 0.69322 0.04500
H 	H 	0.56605 0.22367 0.83640 0.07400
H 	H 	0.70221 0.38870 0.81206 0.05100
N 	N 	0.57256 0.18912 0.71125 -0.20700
H 	H 	0.57810 0.17661 0.66222 0.12000
H 	H 	0.54013 0.16024 0.74115 0.11400
C 	C 	0.64608 0.31258 0.34145 -0.02800
C 	C 	0.63111 0.33920 0.30141 -0.01100
C 	C 	0.64075 0.34258 0.23007 0.03300
C 	C 	0.66530 0.31927 0.19754 -0.12800
C 	C 	0.67832 0.28980 0.23717 0.15200
C 	C 	0.67018 0.28852 0.30922 -0.06800
H 	H 	0.62989 0.36431 0.20003 0.04000
H 	H 	0.68135 0.26741 0.33987 0.05700
H 	H 	0.61258 0.35803 0.32565 0.08200
N 	N 	0.69640 0.26075 0.20645 -0.20300
H 	H 	0.69543 0.25333 0.15348 0.12100
H 	H 	0.70862 0.24198 0.23620 0.10600
C 	C 	0.72470 0.45783 0.54107 -0.13300
C 	C 	0.73862 0.48885 0.47979 0.20100
C 	C 	0.76480 0.54737 0.48250 -0.09800
C 	C 	0.77726 0.57551 0.54588 -0.00700
C 	C 	0.76162 0.54446 0.60736 0.13500
C 	C 	0.73542 0.48585 0.60472 -0.01500
H 	H 	0.77628 0.57112 0.43513 0.08600
H 	H 	0.72445 0.46220 0.65209 0.07200
Cl	Cl	0.72337 0.45506 0.39924 -0.34200
Cl	Cl	0.77472 0.57846 0.68794 -0.31200
C 	C 	0.82991 0.17831 0.40971 -0.00900
C 	C 	0.80620 0.17999 0.35323 0.14100
C 	C 	0.77903 0.20452 0.36066 -0.02800
C 	C 	0.77557 0.22770 0.42394 -0.10100
C 	C 	0.80036 0.22726 0.47987 0.20100
C 	C 	0.82732 0.20260 0.47252 -0.09300
H 	H 	0.76030 0.20514 0.31737 0.06900
H 	H 	0.84577 0.20168 0.51596 0.08800
Cl	Cl	0.81058 0.15194 0.27285 -0.31600
Cl	Cl	0.79753 0.25698 0.55973 -0.30900
C 	C 	0.35111 0.16570 0.59098 -0.00700
C 	C 	0.38506 0.22041 0.61571 0.14300
C 	C 	0.43595 0.24115 0.61763 -0.02700
C 	C 	0.45311 0.20705 0.59730 -0.09700
C 	C 	0.41805 0.15041 0.57980 0.19900
C 	C 	0.36771 0.13059 0.57481 -0.09100
H 	H 	0.46216 0.28401 0.63406 0.08800
H 	H 	0.34146 0.08784 0.55797 0.08700
Cl	Cl	0.36410 0.26268 0.64662 -0.30000
Cl	Cl	0.43594 0.10293 0.56766 -0.29800
C 	C 	0.80281 0.61153 0.99411 0.00500
C 	C 	0.82312 0.58115 0.00885 0.12600
C 	C 	0.79183 0.52268 0.01477 -0.01500
C 	C 	0.74050 0.49387 0.00438 -0.14200
C 	C 	0.72031 0.52418 0.98859 0.22000
C 	C 	0.75139 0.58279 0.98437 -0.10100
H 	H 	0.80758 0.49949 0.02642 0.06500
H 	H 	0.73571 0.60599 0.97241 0.09300
Cl	Cl	0.88803 0.61558 0.01728 -0.31300
Cl	Cl	0.65686 0.48921 0.97013 -0.30900
C 	C 	0.77031 0.24567 0.92855 -0.09800
C 	C 	0.74954 0.18919 0.94601 0.19800
C 	C 	0.78013 0.16901 0.94227 -0.09000
C 	C 	0.83044 0.20315 0.91692 -0.00700
C 	C 	0.84991 0.25773 0.89355 0.14200
C 	C 	0.82019 0.27905 0.90058 -0.02700
H 	H 	0.76454 0.12637 0.95832 0.09000
H 	H 	0.83594 0.32162 0.88415 0.08700
Cl	Cl	0.68474 0.14183 0.96739 -0.29100
Cl	Cl	0.91073 0.29905 0.85279 -0.30400
C 	C 	0.35932 0.21190 0.10581 -0.00800
C 	C 	0.38435 0.21493 0.04184 0.13800
C 	C 	0.43547 0.23640 0.03810 -0.03400
C 	C 	0.46221 0.25530 0.09771 -0.09800
C 	C 	0.43745 0.25321 0.16160 0.19800
C 	C 	0.38608 0.23143 0.16541 -0.09200
H 	H 	0.45451 0.23860 0.98867 0.09100
H 	H 	0.36693 0.22930 0.21470 0.08500
Cl	Cl	0.35199 0.19205 0.96581 -0.29500
Cl	Cl	0.46995 0.27621 0.23746 -0.30800
