data_crystal

_cell_length_a 16.26343
_cell_length_b 17.77011
_cell_length_c 39.06254
_cell_angle_alpha 60.70273
_cell_angle_beta  119.03764
_cell_angle_gamma 133.27297

_symmetry_space_group_name_	'P 1'
_symmetry_space_group_name_H-M	'P 1'

loop_
_symmetry_equiv_pos_as_xyz
  x,y,z

loop_
_atom_site_label
_atom_site_type_symbol
_atom_site_fract_x
_atom_site_fract_y
_atom_site_fract_z
_atom_site_charge
C 	C 	0.57382 0.31621 0.50009 0.01900
H 	H 	0.61010 0.20070 0.52248 0.04700
H 	H 	0.56107 0.44772 0.47030 0.04900
C 	C 	0.21007 0.54463 0.17725 0.03500
C 	C 	0.14731 0.44021 0.17452 -0.07400
C 	C 	0.18183 0.41874 0.15551 0.03200
C 	C 	0.28216 0.50239 0.14029 -0.07200
C 	C 	0.35130 0.60471 0.14622 0.03000
C 	C 	0.31534 0.62546 0.16477 -0.07100
H 	H 	0.06732 0.37705 0.18476 0.05100
H 	H 	0.30288 0.48978 0.12195 0.05300
H 	H 	0.36724 0.70530 0.16806 0.05000
C 	C 	0.22569 0.63547 0.63173 0.03300
C 	C 	0.20124 0.53396 0.64512 -0.07400
C 	C 	0.27399 0.52094 0.64255 0.03400
C 	C 	0.37591 0.61058 0.62937 -0.07400
C 	C 	0.39929 0.71118 0.61480 0.03400
C 	C 	0.32547 0.72441 0.61643 -0.07500
H 	H 	0.12207 0.46446 0.65527 0.04700
H 	H 	0.43600 0.60192 0.62958 0.05500
H 	H 	0.34210 0.80215 0.60387 0.05400
Co	Co	0.11182 0.99664 0.04866 1.18700
Co	Co	0.14237 0.82258 0.05670 1.16900
C 	C 	0.34387 0.03629 0.07489 0.34300
O 	O 	0.11618 0.11985 0.04273 -0.46200
C 	C 	0.04861 0.18554 0.11669 0.33000
C 	C 	0.15125 0.72355 0.14488 0.32200
C 	C 	0.09865 0.96163 0.97703 0.32000
O 	O 	0.12628 0.70721 0.11083 -0.40700
O 	O 	0.12549 0.77885 0.14557 -0.39600
O 	O 	0.08356 0.14598 0.10988 -0.40700
O 	O 	0.16991 0.93480 0.00178 -0.41000
O 	O 	0.07658 0.00378 0.98862 -0.39000
O 	O 	0.06564 0.86817 0.06604 -0.75500
O 	O 	0.30689 0.93675 0.08414 -0.39800
O 	O 	0.28407 0.05661 0.07839 -0.41200
Co	Co	0.10772 0.08255 0.52340 1.18600
Co	Co	0.09184 0.89827 0.51492 1.17100
C 	C 	0.31579 0.08517 0.54326 0.35200
O 	O 	0.13700 0.21238 0.52456 -0.46200
C 	C 	0.19277 0.27273 0.63249 0.31800
C 	C 	0.08419 0.76685 0.59881 0.32400
C 	C 	0.08779 0.07311 0.44459 0.31600
O 	O 	0.04590 0.76101 0.56146 -0.41200
O 	O 	0.07230 0.82027 0.60829 -0.39600
O 	O 	0.11755 0.19817 0.65521 -0.39600
O 	O 	0.19801 0.24819 0.60692 -0.39600
O 	O 	0.14605 0.03189 0.46702 -0.41400
O 	O 	0.05912 0.09915 0.46134 -0.38700
O 	O 	0.04389 0.95110 0.53484 -0.75700
O 	O 	0.25660 0.98155 0.55029 -0.40700
O 	O 	0.27736 0.12665 0.54690 -0.40500
C 	C 	0.07196 0.94659 0.87719 0.04200
C 	C 	0.14617 0.01290 0.85088 -0.06700
C 	C 	0.10623 0.99358 0.81324 -0.00400
C 	C 	0.11831 0.96190 0.91833 -0.00700
C 	C 	0.06234 0.96494 0.93371 -0.12400
H 	H 	0.23445 0.08019 0.85940 0.04800
H 	H 	0.16265 0.04873 0.79246 0.03300
H 	H 	0.08110 0.93010 0.75039 0.07800
H 	H 	0.19959 0.97107 0.93620 0.04500
C 	C 	0.07227 0.09025 0.34037 0.04400
C 	C 	0.15175 0.14180 0.31783 -0.06300
C 	C 	0.11314 0.11943 0.28099 -0.00600
C 	C 	0.11677 0.09799 0.38275 -0.01100
C 	C 	0.06079 0.09622 0.40007 -0.12500
H 	H 	0.24382 0.19756 0.32930 0.04600
H 	H 	0.17523 0.16039 0.26379 0.03500
H 	H 	0.19508 0.10154 0.40058 0.04200
H 	H 	0.04746 0.97167 0.23974 0.09200
C 	C 	0.24030 0.41241 0.65245 0.00200
C 	C 	0.25434 0.38559 0.62971 -0.14900
H 	H 	0.19283 0.35121 0.67595 0.03300
H 	H 	0.30073 0.44621 0.60592 0.07900
C 	C 	0.59533 0.87465 0.61503 -0.14400
C 	C 	0.49724 0.80075 0.59541 0.00100
H 	H 	0.59510 0.88354 0.64061 0.07200
H 	H 	0.49710 0.79500 0.56891 0.04000
C 	C 	0.15602 0.72812 0.62787 -0.14600
C 	C 	0.13248 0.64290 0.62431 -0.00000
H 	H 	0.23832 0.77911 0.64653 0.08000
H 	H 	0.04438 0.58471 0.61028 0.04100
C 	C 	0.13488 0.27432 0.13713 -0.14500
C 	C 	0.09985 0.31386 0.14496 0.00200
H 	H 	0.22661 0.30974 0.14439 0.07700
H 	H 	0.00780 0.26992 0.14204 0.04200
C 	C 	0.52639 0.67942 0.12933 -0.14200
C 	C 	0.45494 0.69400 0.12900 0.00000
H 	H 	0.51034 0.60166 0.14331 0.07800
H 	H 	0.47579 0.77348 0.11766 0.03400
C 	C 	0.15530 0.57026 0.18764 0.00300
C 	C 	0.19946 0.67176 0.18248 -0.14300
H 	H 	0.06386 0.50984 0.18804 0.03800
H 	H 	0.28722 0.72261 0.19899 0.07500
C 	C 	0.42141 0.14805 0.53662 -0.20100
C 	C 	0.45625 0.24125 0.50829 0.02800
H 	H 	0.47012 0.11542 0.54958 0.09000
H 	H 	0.39889 0.26628 0.49199 0.02900
C 	C 	0.52252 0.10139 0.06920 0.02000
C 	C 	0.45180 0.11784 0.06861 -0.19200
H 	H 	0.49666 0.02070 0.07786 0.02700
H 	H 	0.47990 0.19897 0.06083 0.09000
Co	Co	0.05369 0.16487 0.56405 1.19200
H 	H 	0.59371 0.09455 0.02199 0.05100
C 	C 	0.00015 0.92250 0.73642 -0.12400
C 	C 	0.61739 0.42344 0.48196 -0.06700
Co	Co	0.98959 0.78593 0.10143 1.18100
Co	Co	0.98911 0.06318 0.06552 1.17700
C 	C 	0.99463 0.04498 0.26636 -0.03400
C 	C 	0.99211 0.90598 0.80187 -0.01500
C 	C 	0.98215 0.98494 0.21774 -0.16000
O 	O 	0.96441 0.92356 0.16931 -0.41200
O 	O 	0.97275 0.70744 0.03323 -0.40200
O 	O 	0.95477 0.91080 0.07084 -0.57800
C 	C 	0.64497 0.28421 0.51212 -0.06400
C 	C 	0.95896 0.85788 0.86626 -0.06700
C 	C 	0.74971 0.25416 0.01185 0.02500
C 	C 	0.82083 0.35643 0.01824 -0.06900
C 	C 	0.79521 0.37654 0.04120 0.02600
C 	C 	0.70262 0.29100 0.06048 -0.06700
C 	C 	0.62782 0.18984 0.05262 0.01600
C 	C 	0.65289 0.17162 0.02887 -0.07300
H 	H 	0.89244 0.42160 0.00355 0.04600
H 	H 	0.69012 0.30193 0.08206 0.04800
C 	C 	0.76321 0.36126 0.51160 0.01800
C 	C 	0.73584 0.50089 0.48276 0.02600
C 	C 	0.80794 0.46958 0.49634 -0.06700
H 	H 	0.90039 0.52960 0.49801 0.04500
Co	Co	0.87732 0.85941 0.11976 1.18200
C 	C 	0.89763 0.62977 0.05650 0.32400
Co	Co	0.79404 0.00556 0.09588 1.16200
O 	O 	0.82614 0.94210 0.15790 -0.41600
O 	O 	0.87673 0.96548 0.08692 -0.76200
C 	C 	0.92464 0.95316 0.17926 0.32000
O 	O 	0.90908 0.75050 0.13915 -0.47100
C 	C 	0.63153 0.76902 0.11343 0.31400
O 	O 	0.94195 0.15880 0.10036 -0.42800
O 	O 	0.64040 0.85699 0.08929 -0.38700
O 	O 	0.69947 0.74985 0.11553 -0.38800
C 	C 	0.83718 0.14443 0.01397 0.34800
O 	O 	0.75560 0.06956 0.03448 -0.39600
O 	O 	0.90641 0.12813 0.01460 -0.40000
O 	O 	0.87568 0.65106 0.07827 -0.39100
Co	Co	0.95901 0.86243 0.56765 1.18400
Co	Co	0.90438 0.94371 0.60835 1.18600
C 	C 	0.83864 0.74085 0.50362 0.33400
Co	Co	0.94352 0.12491 0.62808 1.16300
O 	O 	0.90219 0.98971 0.67544 -0.41400
O 	O 	0.96293 0.07412 0.59554 -0.76600
C 	C 	0.96315 0.95199 0.69190 0.30900
O 	O 	0.87179 0.81381 0.60584 -0.47000
O 	O 	0.97113 0.00848 0.55414 -0.59200
C 	C 	0.70619 0.93826 0.60481 0.31700
O 	O 	0.99188 0.94207 0.66880 -0.40500
O 	O 	0.77122 0.04270 0.59811 -0.40300
O 	O 	0.73573 0.88967 0.60064 -0.38400
C 	C 	0.94055 0.26618 0.54481 0.36200
O 	O 	0.98276 0.26526 0.58336 -0.42600
O 	O 	0.96663 0.23592 0.52896 -0.40500
O 	O 	0.92135 0.81977 0.48370 -0.40600
O 	O 	0.82667 0.75467 0.53112 -0.39100
C 	C 	0.91941 0.83772 0.82887 -0.02400
C 	C 	0.94018 0.89808 0.75926 -0.00400
H 	H 	0.83100 0.77050 0.82041 0.03600
H 	H 	0.90207 0.80399 0.88685 0.04800
H 	H 	0.85292 0.87803 0.74552 0.03900
H 	H 	0.98704 0.96565 0.91468 0.06600
C 	C 	0.91470 0.99564 0.28821 -0.00000
C 	C 	0.95323 0.01709 0.32522 -0.08800
C 	C 	0.95184 0.02753 0.22596 0.01600
H 	H 	0.82271 0.93957 0.27675 0.03200
H 	H 	0.89099 0.97427 0.34265 0.05700
H 	H 	0.99047 0.10474 0.38169 0.06400
H 	H 	0.88742 0.04180 0.20372 0.02600
C 	C 	0.87437 0.30215 0.52105 -0.20200
C 	C 	0.84420 0.33139 0.53662 0.02700
H 	H 	0.84133 0.30398 0.48907 0.09500
H 	H 	0.87725 0.33133 0.56842 0.02700
C 	C 	0.78780 0.61350 0.47606 0.00600
C 	C 	0.76170 0.64078 0.49580 -0.16900
H 	H 	0.85942 0.67492 0.46113 0.03000
H 	H 	0.68997 0.57857 0.51066 0.08700
C 	C 	0.75678 0.24259 0.97835 0.02900
C 	C 	0.82917 0.22219 0.98368 -0.19000
H 	H 	0.72860 0.28006 0.94795 0.02500
H 	H 	0.87306 0.26239 0.95983 0.09000
C 	C 	0.86841 0.48788 0.04518 0.00200
C 	C 	0.82720 0.52432 0.05366 -0.16000
H 	H 	0.95499 0.54369 0.03969 0.02800
H 	H 	0.74375 0.46857 0.06138 0.08200
