data_crystal

_cell_length_a 18.13494
_cell_length_b 17.09063
_cell_length_c 45.94757
_cell_angle_alpha 90.71654
_cell_angle_beta  91.00091
_cell_angle_gamma 110.87063

_symmetry_space_group_name_	'P 1'
_symmetry_space_group_name_H-M	'P 1'

loop_
_symmetry_equiv_pos_as_xyz
  x,y,z

loop_
_atom_site_label
_atom_site_type_symbol
_atom_site_fract_x
_atom_site_fract_y
_atom_site_fract_z
_atom_site_charge
O 	O 	0.11127 0.87286 0.75818 -0.70000
Ni	Ni	0.12187 0.96513 0.78745 1.10500
O 	O 	0.17103 0.80102 0.70958 -0.36800
Ni	Ni	0.21641 0.88572 0.74453 1.08400
O 	O 	0.21463 0.99104 0.72462 -0.40600
O 	O 	0.20286 0.94540 0.81491 -0.36800
O 	O 	0.03983 0.97995 0.75951 -0.71000
O 	O 	0.10443 0.04947 0.81646 -0.34400
H 	H 	0.08613 0.81720 0.76653 0.18500
H 	H 	0.05480 0.03814 0.75265 0.17400
C 	C 	0.23106 0.06186 0.73975 0.28500
C 	C 	0.10016 0.78429 0.69783 0.30400
C 	C 	0.27077 0.94585 0.80522 0.30400
C 	C 	0.03223 0.03735 0.82492 0.28500
O 	O 	0.20870 0.06178 0.76722 -0.34300
O 	O 	0.28606 0.95784 0.77736 -0.37700
Ni	Ni	0.34623 0.79243 0.40448 1.10000
O 	O 	0.32177 0.71769 0.36723 -0.69400
Ni	Ni	0.20811 0.70714 0.35985 1.10200
O 	O 	0.44450 0.76905 0.41844 -0.35500
O 	O 	0.43146 0.64727 0.39482 -0.38300
O 	O 	0.41863 0.89290 0.38185 -0.36200
Ni	Ni	0.32118 0.60413 0.37435 1.08000
O 	O 	0.33559 0.96819 0.41215 -0.39800
O 	O 	0.26474 0.60139 0.41258 -0.41500
O 	O 	0.18189 0.62267 0.32589 -0.36300
O 	O 	0.23827 0.79046 0.39409 -0.70800
O 	O 	0.36213 0.87018 0.43975 -0.37100
O 	O 	0.10035 0.72070 0.35461 -0.34900
O 	O 	0.15912 0.86233 0.35098 -0.39700
Ni	Ni	0.24899 0.90372 0.38250 1.06900
H 	H 	0.35527 0.74336 0.35063 0.18300
H 	H 	0.20225 0.77220 0.41064 0.15700
C 	C 	0.19247 0.60237 0.41299 0.27300
O 	O 	0.32727 0.91055 0.35047 -0.39300
C 	C 	0.44568 0.69279 0.41887 0.29000
C 	C 	0.19503 0.55226 0.32840 0.30400
C 	C 	0.39978 0.91529 0.35634 0.29800
C 	C 	0.09543 0.79570 0.35444 0.29700
C 	C 	0.34544 0.93905 0.43790 0.27900
O 	O 	0.15679 0.61249 0.38875 -0.36400
O 	O 	0.21864 0.53301 0.35364 -0.39100
Ni	Ni	0.35750 0.67428 0.12576 1.10300
O 	O 	0.25676 0.66487 0.10274 -0.70100
Ni	Ni	0.19832 0.70500 0.13236 1.10300
O 	O 	0.40003 0.63058 0.09048 -0.35400
O 	O 	0.28780 0.51410 0.08593 -0.39700
O 	O 	0.40172 0.79223 0.10899 -0.38300
Ni	Ni	0.19118 0.55201 0.09041 1.06800
O 	O 	0.42246 0.72733 0.19232 -0.38800
O 	O 	0.17828 0.50859 0.13185 -0.39800
O 	O 	0.10911 0.70656 0.10525 -0.36100
O 	O 	0.28977 0.69565 0.15692 -0.70000
O 	O 	0.46288 0.69372 0.14808 -0.35700
O 	O 	0.16417 0.77128 0.16348 -0.36300
O 	O 	0.28930 0.86676 0.16848 -0.39600
Ni	Ni	0.35359 0.79278 0.18061 1.07800
H 	H 	0.26810 0.70228 0.08581 0.15800
H 	H 	0.27116 0.64609 0.16947 0.17700
C 	C 	0.12793 0.52319 0.14927 0.30800
O 	O 	0.43976 0.85823 0.15296 -0.39000
C 	C 	0.35531 0.56380 0.07549 0.27400
C 	C 	0.07726 0.64341 0.08667 0.27500
C 	C 	0.42744 0.86133 0.12494 0.30000
C 	C 	0.21347 0.84366 0.17349 0.29200
C 	C 	0.47873 0.72268 0.17531 0.31100
O 	O 	0.12001 0.59686 0.14978 -0.36100
O 	O 	0.08536 0.57021 0.09102 -0.40600
O 	O 	0.02567 0.21258 0.24600 -0.37200
O 	O 	0.09589 0.09666 0.25407 -0.38200
O 	O 	0.01962 0.07070 0.21205 -0.35900
Ni	Ni	0.02165 0.06593 0.28864 1.08000
O 	O 	0.02183 0.18442 0.29445 -0.40500
C 	C 	0.03823 0.23839 0.27330 0.30500
C 	C 	0.07634 0.06007 0.22802 0.29500
C 	C 	0.98957 0.44029 0.16266 -0.01100
C 	C 	0.07047 0.45260 0.16453 -0.08700
C 	C 	0.09482 0.39198 0.17791 0.10800
C 	C 	0.03841 0.31706 0.18702 -0.03900
C 	C 	0.95730 0.30376 0.18494 -0.05500
H 	H 	0.97038 0.48648 0.15218 0.07500
H 	H 	0.05793 0.26893 0.19566 0.08200
N 	N 	0.17702 0.40677 0.18266 -0.02100
O 	O 	0.22130 0.47276 0.19740 -0.10000
O 	O 	0.20624 0.35123 0.17411 -0.09100
C 	C 	0.13466 0.87404 0.21247 -0.02100
C 	C 	0.18280 0.90159 0.18839 -0.07700
C 	C 	0.20056 0.98409 0.17861 0.10300
C 	C 	0.16896 0.03753 0.19284 -0.02100
C 	C 	0.11937 0.00912 0.21649 -0.07700
C 	C 	0.10325 0.92749 0.22664 0.09400
N 	N 	0.05181 0.89741 0.25051 -0.02800
H 	H 	0.12140 0.81086 0.22016 0.07000
H 	H 	0.18080 0.10017 0.18485 0.07500
N 	N 	0.24795 0.01263 0.15357 -0.02100
O 	O 	0.98403 0.83727 0.24630 -0.09800
O 	O 	0.07404 0.92785 0.27663 -0.16500
O 	O 	0.22409 0.97631 0.12831 -0.10300
O 	O 	0.31180 0.07891 0.15559 -0.09500
O 	O 	0.33687 0.85746 0.29039 -0.11100
O 	O 	0.41786 0.78394 0.29293 -0.11000
C 	C 	0.16336 0.35558 0.28472 -0.01700
C 	C 	0.08140 0.32740 0.28012 -0.07600
C 	C 	0.04039 0.38188 0.28580 0.09400
C 	C 	0.08010 0.46031 0.29903 -0.01800
C 	C 	0.16055 0.48484 0.30656 -0.06900
C 	C 	0.20337 0.43448 0.29766 0.09400
N 	N 	0.28719 0.46249 0.30243 -0.02600
H 	H 	0.19564 0.31512 0.27916 0.06800
H 	H 	0.04732 0.49999 0.30495 0.08100
N 	N 	0.95804 0.35700 0.27887 -0.02500
O 	O 	0.31925 0.41254 0.31377 -0.11100
O 	O 	0.33177 0.53666 0.29428 -0.10500
O 	O 	0.93458 0.35745 0.25200 -0.10400
C 	C 	0.99770 0.85065 0.37445 -0.00400
C 	C 	0.01786 0.80464 0.35253 -0.10700
C 	C 	0.97356 0.78659 0.32616 0.12800
C 	C 	0.92048 0.82761 0.32009 -0.04200
C 	C 	0.91315 0.88750 0.33990 -0.06900
C 	C 	0.94479 0.89170 0.36833 0.08700
N 	N 	0.92806 0.94289 0.39033 -0.01900
H 	H 	0.02758 0.85975 0.39555 0.02800
N 	N 	0.98384 0.72876 0.30522 -0.01700
O 	O 	0.85635 0.94133 0.39333 -0.08400
O 	O 	0.98427 0.99016 0.40764 -0.10400
O 	O 	0.92354 0.66399 0.29655 -0.07600
C 	C 	0.37500 0.02829 0.51697 0.00700
C 	C 	0.37378 0.01330 0.54684 -0.05200
S 	S 	0.30647 0.97270 0.49291 0.01800
C 	C 	0.36172 0.99552 0.46321 -0.06900
H 	H 	0.31843 0.98477 0.55780 0.06300
C 	C 	0.04266 0.49043 0.46668 0.01500
C 	C 	0.10534 0.50688 0.48713 0.00200
C 	C 	0.09204 0.50245 0.51711 -0.04300
S 	S 	0.18693 0.57037 0.47200 0.02300
C 	C 	0.14697 0.57849 0.43957 -0.07700
C 	C 	0.06643 0.52954 0.43968 -0.01600
H 	H 	0.14072 0.51837 0.53278 0.05300
H 	H 	0.02635 0.52377 0.42135 0.05500
C 	C 	0.46125 0.51632 0.50198 -0.05000
C 	C 	0.46954 0.58909 0.48658 0.02100
C 	C 	0.48142 0.66641 0.44394 -0.07100
C 	C 	0.44560 0.58883 0.45708 -0.02300
H 	H 	0.41870 0.45611 0.49504 0.05100
H 	H 	0.40314 0.53481 0.44597 0.04100
C 	C 	0.42221 0.24502 0.73353 -0.02400
C 	C 	0.42740 0.25042 0.70318 -0.06900
C 	C 	0.35950 0.20936 0.68568 0.10200
C 	C 	0.29158 0.15340 0.69834 -0.02800
C 	C 	0.29051 0.13889 0.72837 -0.06400
C 	C 	0.35447 0.18950 0.74626 0.10000
N 	N 	0.35263 0.18167 0.77721 -0.01800
H 	H 	0.47274 0.28015 0.74725 0.07500
H 	H 	0.24108 0.11829 0.68461 0.07700
N 	N 	0.36026 0.22163 0.65492 -0.02000
O 	O 	0.39813 0.14834 0.79027 -0.08900
O 	O 	0.31334 0.21737 0.79253 -0.08200
O 	O 	0.34648 0.15806 0.63710 -0.09400
O 	O 	0.36475 0.29395 0.64487 -0.07700
O 	O 	0.15905 0.77202 0.63648 -0.08800
C 	C 	0.97200 0.64362 0.01304 0.01100
S 	S 	0.04375 0.70324 0.03522 0.00800
C 	C 	0.01779 0.64768 0.06547 -0.07000
C 	C 	0.95019 0.57762 0.05854 -0.01000
H 	H 	0.01809 0.68974 0.97086 0.04800
H 	H 	0.92913 0.52392 0.07253 0.05400
C 	C 	0.49751 0.05788 0.01883 -0.00400
C 	C 	0.44446 0.03853 0.04167 -0.04700
C 	C 	0.47176 0.02288 0.06895 0.02100
C 	C 	0.55196 0.03455 0.07352 0.00000
S 	S 	0.48915 0.10738 0.98877 0.06300
S 	S 	0.55859 0.97817 0.10192 0.06500
C 	C 	0.46318 0.94116 0.11043 -0.07300
C 	C 	0.42178 0.97023 0.08972 -0.01000
H 	H 	0.38328 0.03173 0.03804 0.05400
H 	H 	0.35814 0.94383 0.08690 0.04500
C 	C 	0.42226 0.53040 0.99751 0.00300
C 	C 	0.38332 0.45176 0.00909 0.01700
S 	S 	0.42895 0.60320 0.02269 0.02500
C 	C 	0.38707 0.53781 0.04954 -0.06900
C 	C 	0.36232 0.45522 0.03849 -0.02300
H 	H 	0.32985 0.31847 1.00000 0.05300
H 	H 	0.32437 0.40147 0.05003 0.05100
H 	H 	0.03747 0.18118 0.79975 0.05900
C 	C 	0.33349 0.99253 0.85429 -0.02400
C 	C 	0.33749 0.96049 0.82629 -0.06100
C 	C 	0.40945 0.95415 0.81735 0.09700
C 	C 	0.47861 0.99320 0.83413 -0.01600
C 	C 	0.47576 0.03480 0.86032 -0.08000
C 	C 	0.40218 0.02882 0.87141 0.10600
N 	N 	0.39725 0.06060 0.89996 -0.02300
H 	H 	0.27765 0.99237 0.86236 0.08300
N 	N 	0.41229 0.90761 0.79152 -0.02100
O 	O 	0.36411 0.11603 0.90362 -0.08700
O 	O 	0.42026 0.02929 0.92250 -0.09600
O 	O 	0.46555 0.94083 0.77223 -0.09700
O 	O 	0.36440 0.83045 0.78803 -0.12000
O 	O 	0.03527 0.74061 0.81538 -0.12300
Ni	Ni	0.60845 0.26853 0.89874 1.10100
O 	O 	0.64929 0.34342 0.86407 -0.70600
Ni	Ni	0.75304 0.33027 0.85860 1.10500
O 	O 	0.50769 0.29671 0.89806 -0.35200
O 	O 	0.57882 0.43760 0.90253 -0.40000
O 	O 	0.56063 0.17705 0.86792 -0.38800
Ni	Ni	0.66806 0.46073 0.87198 1.07300
O 	O 	0.67554 0.14799 0.94153 -0.40500
O 	O 	0.74142 0.47130 0.90733 -0.40100
O 	O 	0.78139 0.39807 0.82183 -0.35500
O 	O 	0.71790 0.26831 0.89665 -0.70500
O 	O 	0.56613 0.18432 0.93139 -0.36700
O 	O 	0.84522 0.28873 0.85329 -0.35100
O 	O 	0.76369 0.15329 0.85963 -0.40400
Ni	Ni	0.71230 0.15237 0.89978 1.07500
H 	H 	0.61516 0.32371 0.84644 0.17600
H 	H 	0.74884 0.29998 0.91363 0.15700
C 	C 	0.80969 0.46164 0.90542 0.28800
O 	O 	0.60210 0.07449 0.88526 -0.38500
C 	C 	0.51030 0.37433 0.90181 0.27900
C 	C 	0.77521 0.47275 0.82069 0.29300
C 	C 	0.54816 0.09812 0.87246 0.32700
C 	C 	0.83422 0.20850 0.85442 0.28800
C 	C 	0.61154 0.16212 0.94997 0.29000
O 	O 	0.82913 0.43256 0.88134 -0.36200
O 	O 	0.76155 0.50934 0.84471 -0.38900
Ni	Ni	0.61059 0.36143 0.64024 1.10200
O 	O 	0.69654 0.37437 0.61018 -0.69800
Ni	Ni	0.76500 0.32036 0.63028 1.10000
O 	O 	0.55611 0.42383 0.61481 -0.34500
O 	O 	0.67043 0.53498 0.60905 -0.39800
O 	O 	0.54621 0.25605 0.61672 -0.36400
Ni	Ni	0.76114 0.48989 0.60191 1.06900
O 	O 	0.56417 0.26427 0.70249 -0.39300
O 	O 	0.79532 0.51546 0.64444 -0.40700
O 	O 	0.83918 0.32848 0.59678 -0.36600
O 	O 	0.68695 0.31967 0.66209 -0.69700
O 	O 	0.52034 0.33874 0.66940 -0.34500
O 	O 	0.81144 0.24245 0.65161 -0.36100
O 	O 	0.68870 0.14657 0.65741 -0.38900
Ni	Ni	0.62942 0.21137 0.67977 1.08700
H 	H 	0.67438 0.34359 0.59176 0.15500
H 	H 	0.71387 0.36088 0.67771 0.17700
C 	C 	0.85290 0.49477 0.65518 0.31600
O 	O 	0.53789 0.15964 0.65098 -0.37400
C 	C 	0.59711 0.49176 0.60091 0.27700
C 	C 	0.86238 0.39659 0.58102 0.27900
C 	C 	0.54360 0.18123 0.62373 0.28100
C 	C 	0.76541 0.16854 0.66036 0.28800
C 	C 	0.50611 0.28231 0.69010 0.30500
O 	O 	0.85407 0.41899 0.65063 -0.35300
O 	O 	0.86191 0.46840 0.59196 -0.40400
Ni	Ni	0.04177 0.90191 0.72726 1.10400
O 	O 	0.07332 0.84452 0.69315 -0.35500
O 	O 	0.94968 0.79237 0.73596 -0.36300
O 	O 	0.87575 0.90886 0.73574 -0.39500
O 	O 	0.96731 0.93279 0.70008 -0.33600
O 	O 	0.97454 0.96722 0.81793 -0.38500
Ni	Ni	0.93359 0.93969 0.77519 1.07500
O 	O 	0.93073 0.82188 0.78319 -0.39300
C 	C 	0.92851 0.76762 0.76253 0.30200
C 	C 	0.90652 0.94633 0.71140 0.28700
Ni	Ni	0.93667 0.10380 0.23241 1.11100
O 	O 	0.85788 0.13601 0.25725 -0.69900
Ni	Ni	0.83071 0.04047 0.28495 1.10300
O 	O 	0.91852 0.15694 0.19479 -0.35700
O 	O 	0.83120 0.22032 0.20596 -0.35500
Ni	Ni	0.76361 0.12865 0.23467 1.08200
O 	O 	0.77382 0.02521 0.21501 -0.39800
O 	O 	0.73681 0.05756 0.30398 -0.36400
O 	O 	0.92451 0.02610 0.26509 -0.70600
O 	O 	0.83199 0.95240 0.31487 -0.34700
O 	O 	0.95934 0.03217 0.32690 -0.38800
H 	H 	0.88043 0.19029 0.26779 0.19000
H 	H 	0.91280 0.96804 0.25782 0.18500
C 	C 	0.75065 0.95214 0.22827 0.28100
C 	C 	0.89968 0.22377 0.19546 0.31000
C 	C 	0.67472 0.05593 0.28844 0.30800
C 	C 	0.89917 0.96101 0.32843 0.29700
O 	O 	0.75608 0.94859 0.25719 -0.36200
O 	O 	0.67564 0.05224 0.25972 -0.40100
C 	C 	0.93285 0.36607 0.17257 0.09900
N 	N 	0.85083 0.35218 0.16825 -0.01900
O 	O 	0.82024 0.40166 0.18085 -0.08400
O 	O 	0.80874 0.29554 0.14949 -0.09200
C 	C 	0.65086 0.80671 0.22764 -0.03100
C 	C 	0.69888 0.87587 0.21200 -0.06200
C 	C 	0.68598 0.87713 0.18161 0.09300
C 	C 	0.61639 0.82028 0.16872 -0.02200
C 	C 	0.56162 0.76001 0.18567 -0.07600
C 	C 	0.58232 0.74878 0.21460 0.10400
N 	N 	0.53292 0.67970 0.23099 -0.02100
H 	H 	0.66447 0.80008 0.25032 0.08200
H 	H 	0.60329 0.82562 0.14588 0.07300
N 	N 	0.74413 0.93405 0.16373 -0.01700
O 	O 	0.50805 0.60434 0.21969 -0.07700
O 	O 	0.51555 0.69159 0.25764 -0.08100
O 	O 	0.81714 0.93826 0.16543 -0.08900
O 	O 	0.72338 0.97860 0.14473 -0.09800
C 	C 	0.53465 0.96143 0.29211 -0.01800
C 	C 	0.59796 0.03123 0.30285 -0.07700
C 	C 	0.59089 0.06929 0.32954 0.10200
C 	C 	0.52392 0.03282 0.34634 -0.02600
C 	C 	0.46306 0.95985 0.33647 -0.06900
C 	C 	0.46717 0.92584 0.30872 0.09100
N 	N 	0.40462 0.85279 0.29792 -0.02900
H 	H 	0.53923 0.93243 0.27143 0.06800
H 	H 	0.51971 0.06065 0.36729 0.07100
N 	N 	0.65184 0.14472 0.33972 -0.02100
O 	O 	0.67615 0.20949 0.32304 -0.09900
O 	O 	0.67991 0.15016 0.36622 -0.08900
O 	O 	0.90743 0.34310 0.29965 -0.10200
H 	H 	0.89187 0.81977 0.29879 0.07200
O 	O 	0.05154 0.74482 0.29288 -0.08100
C 	C 	0.44590 0.04092 0.56245 0.02300
C 	C 	0.51735 0.07463 0.54773 0.01200
C 	C 	0.51838 0.08912 0.51780 -0.05500
C 	C 	0.44618 0.06350 0.50235 0.02000
C 	C 	0.43878 0.04539 0.47204 -0.01600
S 	S 	0.58484 0.13381 0.57135 -0.00000
C 	C 	0.52916 0.11703 0.60088 -0.06100
C 	C 	0.45265 0.06437 0.59240 -0.01100
H 	H 	0.57363 0.11809 0.50683 0.05300
H 	H 	0.48922 0.05606 0.45827 0.05500
H 	H 	0.40183 0.05518 0.60581 0.06700
C 	C 	0.95151 0.45764 0.50572 0.02000
C 	C 	0.96427 0.46129 0.47579 -0.04900
C 	C 	0.01364 0.47477 0.52610 -0.00600
S 	S 	0.86870 0.40092 0.52160 0.00000
C 	C 	0.90714 0.39787 0.55485 -0.07100
C 	C 	0.98885 0.44234 0.55392 0.01200
H 	H 	0.91541 0.44658 0.46024 0.05700
H 	H 	0.02805 0.45407 0.57283 0.04500
C 	C 	0.51294 0.52322 0.52560 -0.00400
C 	C 	0.52246 0.66726 0.49657 -0.00300
C 	C 	0.57458 0.67398 0.52015 -0.04900
C 	C 	0.56728 0.60081 0.53522 0.01800
S 	S 	0.49674 0.45710 0.55293 0.03700
C 	C 	0.55899 0.52213 0.57746 -0.06900
C 	C 	0.59465 0.59998 0.56425 -0.02800
S 	S 	0.53967 0.73315 0.46904 0.05500
H 	H 	0.61744 0.73409 0.52702 0.05400
H 	H 	0.63827 0.65362 0.57512 0.05100
C 	C 	0.78981 0.98699 0.70126 -0.02600
C 	C 	0.86892 0.99848 0.69594 -0.07500
C 	C 	0.91347 0.06510 0.67822 0.09600
C 	C 	0.87811 0.11796 0.66587 -0.02400
C 	C 	0.80013 0.10882 0.67235 -0.07100
C 	C 	0.75629 0.04345 0.69067 0.09100
N 	N 	0.67972 0.03737 0.70011 -0.02200
H 	H 	0.75511 0.93624 0.71482 0.06900
H 	H 	0.91233 0.16774 0.65185 0.08000
N 	N 	0.99561 0.08206 0.67395 -0.01100
O 	O 	0.61820 0.97260 0.69243 -0.09700
O 	O 	0.67264 0.09200 0.71877 -0.15200
O 	O 	0.01989 0.06976 0.64843 -0.09300
O 	O 	0.04675 0.11766 0.69470 -0.12400
C 	C 	0.01408 0.63726 0.70534 -0.04200
C 	C 	0.05524 0.70002 0.68604 -0.06500
C 	C 	0.03656 0.68861 0.65603 0.09000
C 	C 	0.97123 0.61999 0.64614 -0.00800
C 	C 	0.92531 0.56158 0.66585 -0.08300
C 	C 	0.94852 0.56847 0.69549 0.11800
N 	N 	0.90455 0.50736 0.71581 -0.02400
H 	H 	0.02898 0.64522 0.72837 0.06900
H 	H 	0.95552 0.61277 0.62313 0.05500
N 	N 	0.08243 0.74821 0.63563 -0.01800
O 	O 	0.94120 0.47457 0.73374 -0.08000
O 	O 	0.82905 0.49016 0.71817 -0.10500
O 	O 	0.04748 0.77624 0.61551 -0.10000
C 	C 	0.98009 0.63712 0.98290 -0.04600
C 	C 	0.93811 0.56051 0.96886 0.01500
C 	C 	0.89232 0.49183 0.98488 0.01000
C 	C 	0.88115 0.49894 0.01462 -0.05700
C 	C 	0.92517 0.57441 0.02902 0.01800
S 	S 	0.82934 0.42322 0.96218 -0.00300
C 	C 	0.86062 0.47430 0.93131 -0.07300
C 	C 	0.92021 0.55113 0.93857 -0.01100
H 	H 	0.84381 0.44571 0.02656 0.05300
H 	H 	0.94088 0.60236 0.92355 0.05300
C 	C 	0.60495 0.05432 0.05056 -0.04900
C 	C 	0.57712 0.06847 0.02324 0.02200
C 	C 	0.58455 0.14157 0.97984 -0.07500
C 	C 	0.62624 0.11425 0.00100 -0.01700
H 	H 	0.66590 0.05991 0.05399 0.05700
H 	H 	0.68926 0.12768 0.00058 0.04700
C 	C 	0.42921 0.54234 0.96758 -0.05500
C 	C 	0.40599 0.47081 0.94928 0.02300
C 	C 	0.36779 0.39069 0.96093 -0.00500
C 	C 	0.35633 0.38027 0.99100 -0.05000
S 	S 	0.38796 0.32205 0.93968 0.06200
C 	C 	0.44225 0.38771 0.91496 -0.06600
C 	C 	0.44536 0.46847 0.92305 -0.02000
H 	H 	0.45846 0.60423 0.95899 0.05200
H 	H 	0.48682 0.52452 0.91372 0.04600
C 	C 	0.00553 0.16800 0.81991 -0.05000
C 	C 	0.01269 0.10576 0.83815 -0.07800
C 	C 	0.97436 0.09243 0.86504 0.10000
C 	C 	0.91746 0.12842 0.87060 -0.02800
C 	C 	0.90112 0.18030 0.85004 -0.08600
C 	C 	0.94846 0.20391 0.82531 0.10800
N 	N 	0.93522 0.25973 0.80464 -0.02200
H 	H 	0.88495 0.11477 0.89063 0.03400
N 	N 	0.98930 0.03767 0.88585 -0.01900
O 	O 	0.99137 0.33025 0.79929 -0.07800
O 	O 	0.86972 0.23679 0.78932 -0.09600
O 	O 	0.06125 0.04196 0.89140 -0.09300
O 	O 	0.93113 0.98443 0.89959 -0.10400
H 	H 	0.53482 0.99389 0.82624 0.06500
C 	C 	0.81391 0.63465 0.76319 -0.01300
C 	C 	0.89470 0.67785 0.76880 -0.07900
C 	C 	0.93744 0.64047 0.78625 0.10600
C 	C 	0.89823 0.56329 0.79889 -0.01600
C 	C 	0.81589 0.52772 0.79726 -0.05700
C 	C 	0.77380 0.56042 0.77785 0.09100
N 	N 	0.69022 0.51974 0.77359 -0.02500
H 	H 	0.78122 0.66164 0.74905 0.06800
H 	H 	0.93097 0.53649 0.81310 0.08400
N 	N 	0.01817 0.68526 0.79423 -0.03500
O 	O 	0.64446 0.56357 0.77351 -0.11000
O 	O 	0.66021 0.43933 0.76855 -0.10700
O 	O 	0.07269 0.65967 0.78441 -0.12000
