data_crystal

_cell_length_a 30.69160
_cell_length_b 31.22609
_cell_length_c 39.18007
_cell_angle_alpha 95.53491
_cell_angle_beta  95.53263
_cell_angle_gamma 125.53242

_symmetry_space_group_name_	'P 1'
_symmetry_space_group_name_H-M	'P 1'

loop_
_symmetry_equiv_pos_as_xyz
  x,y,z

loop_
_atom_site_label
_atom_site_type_symbol
_atom_site_fract_x
_atom_site_fract_y
_atom_site_fract_z
_atom_site_charge
C 	C 	0.01197 0.96902 0.98275 -0.07400
C 	C 	0.04551 0.02468 0.98481 0.03300
C 	C 	0.02358 0.05332 0.98837 -0.07500
H 	H 	0.89184 0.94963 0.98884 0.05000
H 	H 	0.02895 0.94687 0.98007 0.05000
H 	H 	0.04957 0.09644 0.99016 0.05000
C 	C 	0.00541 0.03137 0.46657 -0.07500
C 	C 	0.03241 0.00755 0.46932 0.03100
C 	C 	0.00301 0.95319 0.47146 -0.07500
C 	C 	0.91978 0.94651 0.46822 -0.07600
H 	H 	0.02816 0.07349 0.46505 0.05000
H 	H 	0.02382 0.93467 0.47340 0.05100
H 	H 	0.87637 0.92303 0.46813 0.05000
Cu	Cu	0.64705 0.25991 0.99919 0.92800
Cu	Cu	0.69096 0.26091 0.92595 0.86900
Cu	Cu	0.67400 0.34156 0.95223 0.89600
Cu	Cu	0.64196 0.35617 0.01978 0.89300
C 	C 	0.65970 0.30050 0.07138 0.28900
O 	O 	0.56689 0.22556 0.99795 -0.36600
C 	C 	0.65535 0.30112 0.87661 0.28900
O 	O 	0.68781 0.34245 0.00108 -0.64100
O 	O 	0.63943 0.26345 0.94905 -0.64200
O 	O 	0.68289 0.22347 0.99867 -0.37600
O 	O 	0.74242 0.27796 0.96578 -0.44300
O 	O 	0.63386 0.32057 0.06100 -0.38700
O 	O 	0.71195 0.41825 0.95859 -0.38500
C 	C 	0.70629 0.44714 0.98216 0.28900
C 	C 	0.54339 0.24555 0.98380 0.28300
O 	O 	0.57354 0.29531 0.97905 -0.39400
O 	O 	0.67033 0.42473 0.00291 -0.39400
O 	O 	0.66558 0.27062 0.04887 -0.36200
C 	C 	0.72887 0.24419 0.98727 0.29000
O 	O 	0.67274 0.34209 0.90180 -0.39100
O 	O 	0.65556 0.26050 0.88299 -0.42200
H 	H 	0.72672 0.36701 0.01248 0.16300
H 	H 	0.60167 0.24000 0.93554 0.17200
Cu	Cu	0.73116 0.33601 0.45471 0.92700
Cu	Cu	0.73381 0.29708 0.52926 0.86900
Cu	Cu	0.64796 0.30814 0.50205 0.89600
Cu	Cu	0.62924 0.33531 0.43341 0.89300
C 	C 	0.68458 0.31576 0.38257 0.28800
O 	O 	0.76309 0.41410 0.45454 -0.36400
C 	C 	0.69111 0.33079 0.57782 0.28800
O 	O 	0.64675 0.29340 0.45327 -0.64100
O 	O 	0.72794 0.34491 0.50487 -0.64200
O 	O 	0.76994 0.30224 0.45616 -0.37400
O 	O 	0.71615 0.24509 0.49031 -0.44300
O 	O 	0.66430 0.34164 0.39194 -0.38600
O 	O 	0.56952 0.26803 0.49606 -0.38400
C 	C 	0.53850 0.27112 0.47209 0.29000
C 	C 	0.74077 0.43574 0.46777 0.28300
O 	O 	0.69052 0.40476 0.47302 -0.39400
O 	O 	0.55973 0.30603 0.45093 -0.39700
O 	O 	0.72005 0.31635 0.40505 -0.36300
C 	C 	0.74965 0.25767 0.46831 0.28900
O 	O 	0.64850 0.31105 0.55269 -0.39000
O 	O 	0.73368 0.33279 0.57154 -0.42200
H 	H 	0.62288 0.25484 0.44256 0.16200
H 	H 	0.75072 0.38240 0.51773 0.17200
C 	C 	0.68790 0.34399 0.61444 -0.09200
C 	C 	0.73316 0.36612 0.64133 0.01600
C 	C 	0.72833 0.37254 0.67622 -0.07700
C 	C 	0.67837 0.35706 0.68472 0.04500
C 	C 	0.63422 0.33869 0.65790 -0.07500
C 	C 	0.63880 0.33179 0.62294 0.01600
C 	C 	0.67264 0.35948 0.72182 -0.05300
C 	C 	0.62923 0.31815 0.73219 -0.05300
C 	C 	0.63057 0.31296 0.76939 0.04500
C 	C 	0.65109 0.35730 0.79592 -0.07600
C 	C 	0.65743 0.35308 0.83100 0.01600
C 	C 	0.64243 0.30421 0.83991 -0.09300
C 	C 	0.61800 0.25895 0.81334 0.01700
C 	C 	0.61218 0.26339 0.77832 -0.07800
H 	H 	0.77182 0.37739 0.63528 0.02900
H 	H 	0.76309 0.38820 0.69670 0.04400
H 	H 	0.59620 0.32913 0.66411 0.04700
H 	H 	0.60391 0.31610 0.60259 0.03700
H 	H 	0.70756 0.39174 0.74124 0.04100
H 	H 	0.59579 0.28429 0.71280 0.04100
H 	H 	0.66288 0.39516 0.78938 0.04700
H 	H 	0.67507 0.38809 0.85112 0.03600
H 	H 	0.60449 0.22055 0.81975 0.02900
H 	H 	0.59480 0.22856 0.75807 0.04500
C 	C 	0.66974 0.30016 0.10884 -0.08900
C 	C 	0.71706 0.30671 0.12409 0.01800
C 	C 	0.72684 0.30709 0.15980 -0.07600
C 	C 	0.68890 0.29988 0.18037 0.04600
C 	C 	0.64155 0.29326 0.16509 -0.07600
C 	C 	0.63197 0.29328 0.12952 0.01900
C 	C 	0.70066 0.30321 0.21837 -0.05300
C 	C 	0.66363 0.26477 0.23414 -0.05300
C 	C 	0.66832 0.27405 0.27246 0.04700
C 	C 	0.62355 0.26377 0.28657 -0.07700
C 	C 	0.62843 0.27579 0.32263 0.01800
C 	C 	0.67803 0.29777 0.34501 -0.09000
C 	C 	0.72210 0.30552 0.33103 0.02100
C 	C 	0.71719 0.29350 0.29490 -0.07500
H 	H 	0.74656 0.31222 0.10840 0.03000
H 	H 	0.76384 0.31296 0.17146 0.04800
H 	H 	0.61252 0.28878 0.18088 0.04800
H 	H 	0.59509 0.28775 0.11802 0.03300
H 	H 	0.73877 0.33846 0.23372 0.04300
H 	H 	0.62608 0.22922 0.21845 0.04300
H 	H 	0.58535 0.24773 0.26951 0.04600
H 	H 	0.59386 0.26873 0.33315 0.01900
H 	H 	0.76050 0.32207 0.34801 0.03800
H 	H 	0.75146 0.29986 0.28435 0.04800
C 	C 	0.91653 0.86574 0.47397 -0.00600
C 	C 	0.88069 0.82552 0.44480 -0.03300
C 	C 	0.85795 0.77189 0.44605 -0.04700
C 	C 	0.87085 0.75818 0.47648 0.01900
C 	C 	0.90500 0.79807 0.50606 -0.04700
C 	C 	0.92777 0.85169 0.50484 -0.03400
C 	C 	0.85108 0.70361 0.47682 -0.01500
C 	C 	0.83446 0.65787 0.47700 -0.02700
C 	C 	0.81450 0.60315 0.47691 0.04000
C 	C 	0.83070 0.57914 0.45461 -0.07200
C 	C 	0.80852 0.52497 0.45274 0.01600
C 	C 	0.76972 0.49435 0.47311 -0.09200
C 	C 	0.75516 0.51915 0.49640 0.01400
C 	C 	0.77739 0.57329 0.49820 -0.07200
H 	H 	0.87178 0.83597 0.42086 0.03700
H 	H 	0.83128 0.74120 0.42314 0.04100
H 	H 	0.91483 0.78773 0.52976 0.04100
H 	H 	0.85969 0.60212 0.43824 0.04800
H 	H 	0.82021 0.50650 0.43467 0.03600
H 	H 	0.72596 0.49629 0.51267 0.02900
H 	H 	0.76508 0.59176 0.51575 0.04700
C 	C 	0.76843 0.22443 0.46006 -0.09900
C 	C 	0.73441 0.16934 0.46068 0.01600
C 	C 	0.75466 0.13921 0.45794 -0.07500
C 	C 	0.80897 0.16380 0.45447 0.04100
C 	C 	0.84225 0.21814 0.45211 -0.07400
C 	C 	0.82206 0.24837 0.45480 0.01600
C 	C 	0.83170 0.13443 0.45612 -0.02900
C 	C 	0.85078 0.10989 0.45749 -0.01600
C 	C 	0.87421 0.08124 0.46001 0.01800
C 	C 	0.91217 0.09483 0.48975 -0.04700
C 	C 	0.92143 0.02690 0.46467 -0.00500
C 	C 	0.88280 0.01278 0.43509 -0.03400
C 	C 	0.85929 0.03992 0.43277 -0.04600
H 	H 	0.69267 0.15013 0.46408 0.02700
H 	H 	0.72852 0.09708 0.45943 0.04700
H 	H 	0.88420 0.23735 0.44920 0.04700
H 	H 	0.84873 0.29074 0.45413 0.03000
H 	H 	0.92372 0.12656 0.51097 0.04000
H 	H 	0.82982 0.02907 0.40975 0.04100
C 	C 	0.09169 0.03967 0.47036 -0.00500
C 	C 	0.12663 0.04737 0.50010 -0.03300
C 	C 	0.18266 0.07645 0.50069 -0.04700
C 	C 	0.20407 0.09806 0.47160 0.01900
C 	C 	0.16932 0.09076 0.44198 -0.04700
C 	C 	0.11328 0.06165 0.44134 -0.03300
C 	C 	0.26170 0.12768 0.47211 -0.01500
C 	C 	0.30992 0.15251 0.47239 -0.02800
C 	C 	0.36748 0.18245 0.47256 0.04100
C 	C 	0.39525 0.23201 0.46181 -0.07300
C 	C 	0.45108 0.26107 0.46174 0.01700
C 	C 	0.47962 0.24068 0.47244 -0.09000
C 	C 	0.45162 0.19098 0.48329 0.01700
C 	C 	0.39574 0.16201 0.48333 -0.07300
H 	H 	0.20933 0.08207 0.52370 0.04100
H 	H 	0.18565 0.10744 0.41942 0.04100
H 	H 	0.08661 0.05577 0.41824 0.03700
H 	H 	0.37363 0.24808 0.45352 0.04800
H 	H 	0.47216 0.29956 0.45364 0.03200
H 	H 	0.47297 0.17457 0.49136 0.02900
H 	H 	0.37446 0.12364 0.49164 0.04700
C 	C 	0.73507 0.50480 0.98199 -0.09100
C 	C 	0.74784 0.54018 0.01274 0.01700
C 	C 	0.77370 0.59456 0.01240 -0.07100
C 	C 	0.78706 0.61402 0.98140 0.04000
C 	C 	0.77477 0.57899 0.95074 -0.07200
C 	C 	0.74888 0.52456 0.95098 0.01700
C 	C 	0.81367 0.67002 0.98114 -0.02800
C 	C 	0.83595 0.71694 0.98102 -0.01500
C 	C 	0.86305 0.77307 0.98100 0.01800
C 	C 	0.88351 0.79416 0.95158 -0.04600
C 	C 	0.90009 0.86211 0.01162 -0.03200
C 	C 	0.87085 0.80704 0.01088 -0.04500
H 	H 	0.73791 0.52560 0.03690 0.02500
H 	H 	0.78334 0.62152 0.03624 0.04700
H 	H 	0.78507 0.59385 0.92668 0.04700
H 	H 	0.73893 0.49773 0.92700 0.03500
H 	H 	0.87744 0.76807 0.92835 0.04000
H 	H 	0.90689 0.88827 0.03505 0.03600
H 	H 	0.85499 0.79094 0.03369 0.04100
C 	C 	0.76182 0.22462 0.99506 -0.10200
C 	C 	0.73808 0.17471 0.00531 0.01900
C 	C 	0.76719 0.15322 0.00845 -0.07500
C 	C 	0.82020 0.18143 0.00153 0.04200
C 	C 	0.84493 0.23227 0.99295 -0.07700
C 	C 	0.81598 0.25391 0.98982 0.01600
C 	C 	0.84763 0.15659 0.00069 -0.02700
C 	C 	0.87066 0.13585 0.99998 -0.01700
C 	C 	0.89764 0.11060 0.99837 0.01800
C 	C 	0.92130 0.11082 0.96947 -0.04700
C 	C 	0.92195 0.05688 0.02241 -0.03200
C 	C 	0.89832 0.08389 0.02494 -0.04600
H 	H 	0.69656 0.15178 0.00974 0.03400
H 	H 	0.74798 0.11404 0.01537 0.04800
H 	H 	0.88614 0.25452 0.98790 0.04600
H 	H 	0.83528 0.29293 0.98266 0.02600
H 	H 	0.92212 0.03613 0.04298 0.03600
H 	H 	0.88011 0.08359 0.04736 0.04100
C 	C 	0.48338 0.21473 0.97768 -0.09200
C 	C 	0.45204 0.16961 0.99312 0.01400
C 	C 	0.39635 0.14473 0.99123 -0.07300
C 	C 	0.37144 0.16451 0.97383 0.04100
C 	C 	0.40186 0.20779 0.95694 -0.07200
C 	C 	0.45759 0.23273 0.95872 0.01400
C 	C 	0.31560 0.14253 0.97523 -0.02800
C 	C 	0.26880 0.12352 0.97674 -0.01500
C 	C 	0.21310 0.10055 0.97933 0.01800
C 	C 	0.17902 0.10059 0.95284 -0.04700
C 	C 	0.12448 0.07688 0.95499 -0.03300
C 	C 	0.10379 0.05296 0.98365 -0.00700
C 	C 	0.13826 0.05380 0.01042 -0.03200
C 	C 	0.19273 0.07750 0.00824 -0.04500
H 	H 	0.47106 0.15480 0.00752 0.03800
H 	H 	0.37288 0.11092 0.00406 0.04900
H 	H 	0.38265 0.22287 0.94308 0.04700
H 	H 	0.48087 0.26668 0.94599 0.03100
H 	H 	0.19459 0.11854 0.93048 0.04000
H 	H 	0.09812 0.07635 0.93418 0.03600
H 	H 	0.21896 0.07756 0.02888 0.04100
C 	C 	0.96817 0.02636 0.98992 0.03100
C 	C 	0.93475 0.97062 0.98789 -0.07600
C 	C 	0.95663 0.94192 0.98430 0.03100
C 	C 	0.94914 0.00102 0.46616 0.03000
C 	C 	0.94680 0.92264 0.47107 0.03100
H 	H 	0.95525 0.88245 0.52754 0.03600
C 	C 	0.93568 0.06776 0.49210 -0.03400
H 	H 	0.96533 0.07884 0.51508 0.03600
C 	C 	0.91275 0.84920 0.95228 -0.03300
C 	C 	0.92175 0.88348 0.98247 -0.00700
H 	H 	0.92909 0.86533 0.92960 0.03700
C 	C 	0.94487 0.08378 0.96688 -0.03300
C 	C 	0.94496 0.05639 0.99323 -0.00700
H 	H 	0.92088 0.13138 0.94883 0.04000
H 	H 	0.96245 0.08356 0.94423 0.03600
H 	H 	0.87164 0.98140 0.41374 0.03700
H 	H 	0.11036 0.03071 0.52267 0.03600
H 	H 	0.12268 0.03560 0.03270 0.03700
