data_crystal

_cell_length_a 26.02174
_cell_length_b 26.70129
_cell_length_c 45.08069
_cell_angle_alpha 95.50948
_cell_angle_beta  95.50875
_cell_angle_gamma 125.79976

_symmetry_space_group_name_	'P 1'
_symmetry_space_group_name_H-M	'P 1'

loop_
_symmetry_equiv_pos_as_xyz
  x,y,z

loop_
_atom_site_label
_atom_site_type_symbol
_atom_site_fract_x
_atom_site_fract_y
_atom_site_fract_z
_atom_site_charge
C 	C 	0.96491 0.02482 0.00173 0.13500
C 	C 	0.03043 0.05974 0.99974 -0.11200
C 	C 	0.06045 0.03012 0.99803 0.14000
C 	C 	0.99291 0.03066 0.46777 -0.08700
C 	C 	0.02465 0.00272 0.46963 0.12500
H 	H 	0.02008 0.08033 0.46701 0.11400
C 	C 	0.86639 0.08432 0.43891 -0.11800
C 	C 	0.84588 0.09608 0.46459 0.00500
C 	C 	0.84738 0.07047 0.49019 0.31100
C 	C 	0.87093 0.03487 0.49036 -0.08900
C 	C 	0.89322 0.02463 0.46502 -0.07600
C 	C 	0.88987 0.04867 0.43907 0.34200
F 	F 	0.82734 0.08123 0.51511 -0.41500
H 	H 	0.87346 0.01666 0.51048 0.10800
F 	F 	0.91036 0.03832 0.41422 -0.41800
H 	H 	0.72264 0.05743 0.45824 0.13000
H 	H 	0.30152 0.06911 0.48102 0.12900
C 	C 	0.18400 0.06361 0.44612 0.31500
C 	C 	0.11764 0.02944 0.44534 -0.09600
C 	C 	0.09462 0.04046 0.47016 -0.06900
F 	F 	0.20574 0.05274 0.42194 -0.41000
C 	C 	0.85245 0.06538 0.97758 -0.11500
C 	C 	0.93229 0.05500 0.00184 -0.07300
C 	C 	0.88331 0.03673 0.97745 0.33900
H 	H 	0.81493 0.05126 0.95860 0.12500
F 	F 	0.89780 0.19731 0.96187 -0.41100
F 	F 	0.30115 0.05120 0.97225 -0.41200
C 	C 	0.12890 0.06627 0.99580 -0.08100
C 	C 	0.14688 0.07107 0.96723 0.34300
C 	C 	0.21126 0.09924 0.96505 -0.12000
F 	F 	0.10174 0.04731 0.94162 -0.41400
H 	H 	0.22483 0.10252 0.94294 0.12600
H 	H 	0.05766 0.10949 0.99918 0.10100
C 	C 	0.75755 0.10813 0.46206 -0.13800
F 	F 	0.67252 0.11823 0.46243 -0.43000
C 	C 	0.22786 0.10911 0.47178 0.00200
C 	C 	0.13851 0.08614 0.49578 0.33700
C 	C 	0.87070 0.11299 0.00187 0.00200
C 	C 	0.94998 0.10203 0.02636 -0.09400
C 	C 	0.17579 0.09079 0.02212 -0.09200
H 	H 	0.16210 0.08691 0.04422 0.10400
H 	H 	0.86473 0.10333 0.41897 0.12700
C 	C 	0.32885 0.11733 0.47763 -0.13800
C 	C 	0.34517 0.11460 0.98024 0.29200
C 	C 	0.25794 0.12265 0.99136 0.00400
H 	H 	0.42516 0.11320 0.97374 0.09800
C 	C 	0.82352 0.13583 0.46481 0.02100
C 	C 	0.73653 0.14579 0.46494 0.37400
F 	F 	0.11680 0.09675 0.52006 -0.42500
C 	C 	0.85385 0.18521 0.97960 0.28800
C 	C 	0.84102 0.14593 0.00076 0.02300
H 	H 	0.82994 0.24013 0.95927 0.09000
C 	C 	0.86828 0.20158 0.46912 0.29200
C 	C 	0.78154 0.21173 0.47075 -0.14200
C 	C 	0.29782 0.14536 0.47265 0.02200
C 	C 	0.33348 0.20776 0.46819 0.29400
C 	C 	0.39510 0.15130 0.47804 0.37500
F 	F 	0.42421 0.12308 0.48217 -0.42800
C 	C 	0.20488 0.12034 0.49655 -0.11600
H 	H 	0.23849 0.15540 0.51642 0.12400
C 	C 	0.91937 0.13104 0.02637 0.31200
H 	H 	0.98756 0.11620 0.04531 0.10500
C 	C 	0.82061 0.21115 0.97625 -0.05800
C 	C 	0.77433 0.19846 0.99415 -0.14500
C 	C 	0.76395 0.16161 0.01650 0.37500
C 	C 	0.79687 0.13512 0.01955 -0.14000
H 	H 	0.78742 0.10548 0.03623 0.13200
C 	C 	0.32561 0.15201 0.98904 0.02100
C 	C 	0.41041 0.14247 0.98033 -0.05400
C 	C 	0.24011 0.11886 0.01995 0.31000
F 	F 	0.28500 0.14156 0.04556 -0.41400
F 	F 	0.72241 0.15173 0.03531 -0.42300
O 	O 	0.68064 0.19622 0.99801 -0.32900
H 	H 	0.52956 0.27097 0.69856 0.05700
H 	H 	0.54322 0.27276 0.64512 0.05900
F 	F 	0.93764 0.17730 0.04992 -0.41300
O 	O 	0.54862 0.20710 0.00137 -0.34700
O 	O 	0.71945 0.23473 0.49736 -0.39300
H 	H 	0.65447 0.18387 0.25090 0.06000
H 	H 	0.65396 0.19552 0.30590 0.05900
F 	F 	0.93222 0.22892 0.47149 -0.40800
C 	C 	0.43088 0.21379 0.47350 -0.13800
C 	C 	0.45655 0.20785 0.98926 -0.14100
C 	C 	0.73572 0.22206 0.98861 0.33500
H 	H 	0.58915 0.22639 0.94702 0.18500
C 	C 	0.84730 0.23934 0.47199 -0.05500
C 	C 	0.37133 0.21737 0.99717 -0.13900
H 	H 	0.61006 0.23934 0.45177 0.19500
C 	C 	0.76074 0.25136 0.47898 0.33800
F 	F 	0.30385 0.23525 0.46328 -0.40600
C 	C 	0.52573 0.23657 0.99162 0.32900
O 	O 	0.53698 0.24706 0.49501 -0.34200
C 	C 	0.67715 0.23012 0.26429 -0.03300
C 	C 	0.39968 0.24178 0.46861 -0.05300
Cu	Cu	0.64211 0.24211 0.00149 0.93400
Cu	Cu	0.69276 0.24775 0.93736 0.88300
C 	C 	0.67694 0.23673 0.29545 -0.02100
C 	C 	0.50062 0.24982 0.47365 0.34400
O 	O 	0.65252 0.25245 0.90124 -0.40000
C 	C 	0.43651 0.24530 0.99747 0.37300
O 	O 	0.63381 0.25140 0.95869 -0.63800
H 	H 	0.59444 0.21428 0.20838 0.05900
H 	H 	0.58354 0.21202 0.15320 0.06400
H 	H 	0.35644 0.24643 0.00395 0.13000
O 	O 	0.66377 0.24914 0.04429 -0.32600
H 	H 	0.58975 0.22483 0.79263 0.05500
C 	C 	0.63734 0.23956 0.19847 -0.03200
C 	C 	0.63117 0.23841 0.16722 -0.02000
H 	H 	0.58715 0.23613 0.73896 0.05500
O 	O 	0.75285 0.26415 0.97129 -0.42600
C 	C 	0.60481 0.26944 0.78681 -0.02200
C 	C 	0.68627 0.27308 0.15430 0.00900
C 	C 	0.60319 0.27579 0.75639 -0.03500
C 	C 	0.69877 0.27533 0.21702 0.01800
C 	C 	0.02507 0.96572 0.99829 -0.11200
C 	C 	0.95972 0.93076 0.00025 0.14300
C 	C 	0.92982 0.96043 0.00232 -0.09000
H 	H 	0.04821 0.94273 0.99666 0.10100
H 	H 	0.87922 0.93336 0.00393 0.11300
C 	C 	0.92611 0.99455 0.46682 0.14100
C 	C 	0.98961 0.93857 0.47062 -0.09300
C 	C 	0.92290 0.90214 0.46968 0.13400
C 	C 	0.89108 0.93019 0.46793 -0.10700
H 	H 	0.01420 0.91698 0.47206 0.09200
H 	H 	0.83947 0.90210 0.46720 0.10000
Cu	Cu	0.67990 0.34419 0.96396 0.90500
Cu	Cu	0.64770 0.36006 0.02431 0.91400
C 	C 	0.66171 0.28566 0.06529 0.30600
C 	C 	0.65588 0.30248 0.89736 0.31100
O 	O 	0.69695 0.34043 0.00569 -0.63800
O 	O 	0.63461 0.31315 0.05827 -0.35400
O 	O 	0.72983 0.43477 0.97168 -0.34400
C 	C 	0.72499 0.46893 0.99284 0.34500
O 	O 	0.56580 0.29500 0.98825 -0.35700
O 	O 	0.68639 0.44363 0.01260 -0.36600
O 	O 	0.67636 0.34857 0.92034 -0.36300
H 	H 	0.74326 0.36644 0.01510 0.18900
Cu	Cu	0.73629 0.34047 0.46557 0.93400
Cu	Cu	0.73518 0.29432 0.53053 0.88800
Cu	Cu	0.63031 0.29915 0.50294 0.90600
Cu	Cu	0.61180 0.32983 0.44249 0.90400
C 	C 	0.69040 0.31942 0.40164 0.31100
O 	O 	0.76934 0.43119 0.46543 -0.32000
C 	C 	0.67392 0.32497 0.56958 0.31100
O 	O 	0.63519 0.28430 0.46124 -0.63800
O 	O 	0.72616 0.34790 0.50829 -0.63600
O 	O 	0.78544 0.30447 0.46911 -0.35400
O 	O 	0.65990 0.34358 0.40840 -0.36600
C 	C 	0.73711 0.45177 0.47456 0.33100
O 	O 	0.67747 0.41123 0.47809 -0.38800
O 	O 	0.52580 0.28949 0.45465 -0.37700
O 	O 	0.72949 0.31973 0.42278 -0.34000
O 	O 	0.62546 0.30044 0.54649 -0.36200
O 	O 	0.72769 0.33280 0.56603 -0.39300
H 	H 	0.74988 0.39150 0.51957 0.19400
C 	C 	0.64626 0.34510 0.65621 0.00300
C 	C 	0.69956 0.38669 0.67963 -0.02200
C 	C 	0.69198 0.38546 0.70991 -0.03400
C 	C 	0.63094 0.34267 0.71695 0.01700
C 	C 	0.57702 0.30364 0.69340 -0.03400
C 	C 	0.58472 0.30477 0.66313 -0.02200
C 	C 	0.62480 0.33395 0.74861 0.01700
C 	C 	0.64558 0.38498 0.77148 -0.03500
C 	C 	0.64738 0.37858 0.80195 -0.02100
C 	C 	0.62821 0.32113 0.80969 0.00200
C 	C 	0.63805 0.31660 0.84102 0.06000
C 	C 	0.64558 0.31092 0.86696 -0.08700
C 	C 	0.65578 0.33865 0.62552 0.06100
C 	C 	0.66371 0.33322 0.59983 -0.08400
H 	H 	0.74723 0.41827 0.67445 0.05700
H 	H 	0.73392 0.41591 0.72788 0.05700
H 	H 	0.66180 0.42992 0.76572 0.05900
H 	H 	0.66527 0.41869 0.81952 0.05900
C 	C 	0.70483 0.29618 0.31283 0.00500
C 	C 	0.73476 0.34924 0.29915 -0.02000
C 	C 	0.73486 0.34271 0.26803 -0.03300
C 	C 	0.70512 0.28298 0.25035 0.01800
C 	C 	0.74769 0.30687 0.17258 -0.02000
C 	C 	0.75396 0.30792 0.20385 -0.03200
C 	C 	0.67962 0.27812 0.12285 0.06400
C 	C 	0.67240 0.28140 0.09647 -0.06600
C 	C 	0.69913 0.30239 0.34420 0.06200
C 	C 	0.69520 0.30927 0.37051 -0.07800
H 	H 	0.75658 0.39536 0.31248 0.06100
H 	H 	0.75642 0.38378 0.25750 0.05900
H 	H 	0.79052 0.33356 0.16272 0.06200
H 	H 	0.80160 0.33524 0.21793 0.06000
C 	C 	0.84858 0.73027 0.44565 -0.12100
C 	C 	0.83672 0.70941 0.47331 0.00400
C 	C 	0.84810 0.75072 0.49922 0.31400
C 	C 	0.87290 0.81297 0.49760 -0.09300
C 	C 	0.88655 0.83436 0.47012 -0.07500
C 	C 	0.87339 0.79247 0.44403 0.34000
C 	C 	0.81127 0.64393 0.47494 0.02100
F 	F 	0.83585 0.73076 0.52601 -0.41000
H 	H 	0.88320 0.84503 0.51787 0.10900
F 	F 	0.88626 0.81254 0.41730 -0.41900
H 	H 	0.83920 0.69845 0.42549 0.12300
C 	C 	0.74470 0.59589 0.46726 0.29500
C 	C 	0.72076 0.53350 0.46750 -0.05600
C 	C 	0.76309 0.51833 0.47542 -0.13900
C 	C 	0.82982 0.56669 0.48356 0.37300
C 	C 	0.85370 0.62921 0.48324 -0.14000
F 	F 	0.70323 0.60963 0.45926 -0.40800
H 	H 	0.66929 0.49676 0.46105 0.09200
F 	F 	0.87138 0.55335 0.49212 -0.43100
H 	H 	0.90517 0.66616 0.48933 0.12700
H 	H 	0.88241 0.29005 0.47635 0.10100
H 	H 	0.42684 0.29005 0.46530 0.10300
H 	H 	0.08406 0.99429 0.42549 0.12200
C 	C 	0.84425 0.75570 0.97158 -0.11800
C 	C 	0.85677 0.73313 0.99595 0.00400
C 	C 	0.90167 0.77548 0.02213 0.31300
C 	C 	0.93427 0.84005 0.02375 -0.09200
C 	C 	0.92222 0.86269 0.99926 -0.07700
C 	C 	0.87685 0.82027 0.97319 0.34500
C 	C 	0.82244 0.66517 0.99415 0.02100
F 	F 	0.91359 0.75398 0.04597 -0.41100
H 	H 	0.96927 0.87256 0.04392 0.10700
F 	F 	0.86531 0.84177 0.94924 -0.40400
H 	H 	0.80954 0.72318 0.95134 0.12800
C 	C 	0.75804 0.62734 0.99796 0.29400
C 	C 	0.72608 0.56309 0.99710 -0.05300
C 	C 	0.75820 0.53610 0.99245 -0.13700
C 	C 	0.82251 0.57392 0.98828 0.37500
C 	C 	0.85441 0.63823 0.98911 -0.13800
F 	F 	0.72671 0.65304 0.00281 -0.40700
H 	H 	0.67631 0.53422 0.00007 0.10800
F 	F 	0.85456 0.54872 0.98425 -0.43100
H 	H 	0.90416 0.66728 0.98613 0.13100
F 	F 	0.86637 0.99187 0.95342 -0.40200
F 	F 	0.48044 0.30842 0.00692 -0.44100
