data_crystal

_cell_length_a 16.72353
_cell_length_b 16.27665
_cell_length_c 34.98104
_cell_angle_alpha 89.87880
_cell_angle_beta  89.88086
_cell_angle_gamma 119.41260

_symmetry_space_group_name_	'P 1'
_symmetry_space_group_name_H-M	'P 1'

loop_
_symmetry_equiv_pos_as_xyz
  x,y,z

loop_
_atom_site_label
_atom_site_type_symbol
_atom_site_fract_x
_atom_site_fract_y
_atom_site_fract_z
_atom_site_charge
Ni	Ni	0.07225 0.91903 0.76174 1.11800
Ni	Ni	0.09843 0.13140 0.75732 1.12900
O 	O 	0.03152 0.21020 0.24241 -0.33700
C 	C 	0.07119 0.31664 0.17069 0.12700
H 	H 	0.05176 0.39217 0.12454 0.08900
C 	C 	0.09566 0.65095 0.48266 -0.08000
C 	C 	0.06438 0.67924 0.51474 0.13500
Br	Br	0.06059 0.16491 0.62963 -0.18400
C 	C 	0.07722 0.63877 0.02538 -0.06200
C 	C 	0.07640 0.61742 0.98618 0.12000
Br	Br	0.12141 0.34579 0.84403 -0.17700
C 	C 	0.23766 0.08062 0.79466 0.31100
C 	C 	0.19452 0.07464 0.70472 0.32600
O 	O 	0.17557 0.99161 0.80019 -0.36800
O 	O 	0.21324 0.14615 0.78634 -0.33700
O 	O 	0.17574 0.99226 0.71965 -0.34000
O 	O 	0.13473 0.10249 0.70719 -0.37200
C 	C 	0.11954 0.40528 0.42971 0.31400
C 	C 	0.18347 0.65094 0.48400 0.32000
O 	O 	0.18313 0.57228 0.49290 -0.36900
C 	C 	0.16231 0.66887 0.04639 0.32300
O 	O 	0.21479 0.75713 0.05723 -0.34300
O 	O 	0.18357 0.60506 0.05552 -0.38700
C 	C 	0.10007 0.22025 0.22118 0.31100
C 	C 	0.11403 0.94005 0.21326 0.29600
C 	C 	0.03426 0.87242 0.29337 0.29700
Ni	Ni	0.09425 0.06747 0.26956 1.12600
O 	O 	0.15549 0.01364 0.23592 -0.35000
O 	O 	0.14348 0.17436 0.23045 -0.35400
O 	O 	0.06108 0.95919 0.30589 -0.37200
O 	O 	0.07137 0.14800 0.30896 -0.35200
C 	C 	0.12052 0.27147 0.18367 -0.06600
C 	C 	0.08931 0.35741 0.13413 -0.02200
C 	C 	0.17047 0.37659 0.11509 -0.07700
C 	C 	0.11423 0.78733 0.21181 -0.03800
C 	C 	0.16040 0.88475 0.20453 -0.07500
C 	C 	0.25545 0.93067 0.19629 0.11800
H 	H 	0.04293 0.75209 0.22070 0.07200
C 	C 	0.04532 0.31043 0.41930 -0.07500
C 	C 	0.05933 0.23231 0.42288 0.13400
C 	C 	0.03653 0.16923 0.39229 -0.02700
H 	H 	0.05372 0.11317 0.39344 0.08700
Br	Br	0.09593 0.20361 0.47074 -0.15900
C 	C 	0.07608 0.81912 0.31013 -0.07200
C 	C 	0.02313 0.73592 0.33142 0.13100
C 	C 	0.06392 0.68468 0.34566 -0.02400
H 	H 	0.02392 0.62303 0.36336 0.08100
C 	C 	0.03237 0.59596 0.45472 -0.02600
Br	Br	0.14942 0.76754 0.55060 -0.18200
H 	H 	0.05615 0.57702 0.42917 0.07400
H 	H 	0.19989 0.02282 0.63231 0.09600
Br	Br	0.17116 0.70251 0.95230 -0.18700
H 	H 	0.04348 0.01476 0.80008 0.17100
O 	O 	0.03598 0.91964 0.19643 -0.36700
O 	O 	0.14179 0.47340 0.40501 -0.37700
O 	O 	0.17717 0.41517 0.45724 -0.34300
C 	C 	0.16092 0.73578 0.20905 0.12900
Br	Br	0.09817 0.60435 0.22159 -0.17200
C 	C 	0.16884 0.84883 0.30280 -0.03900
C 	C 	0.15731 0.71563 0.33899 -0.07700
H 	H 	0.04423 0.84420 0.89005 0.08100
O 	O 	0.05124 0.17013 0.80213 -0.35400
C 	C 	0.00732 0.53118 0.97187 -0.02500
Br	Br	0.01839 0.79095 0.97349 -0.17000
H 	H 	0.00676 0.51523 0.94178 0.08500
O 	O 	0.02914 0.00389 0.77260 -0.71200
C 	C 	0.18717 0.27036 0.15917 -0.03300
O 	O 	0.24339 0.72377 0.13238 -0.37400
C 	C 	0.30131 0.87817 0.19400 -0.03600
C 	C 	0.25157 0.77934 0.19520 -0.07500
C 	C 	0.20463 0.67896 0.36333 0.32500
Ni	Ni	0.28067 0.54275 0.47551 1.12700
O 	O 	0.21546 0.70058 0.39953 -0.38400
O 	O 	0.26043 0.72735 0.47497 -0.37200
C 	C 	0.27471 0.72855 0.16654 0.32300
C 	C 	0.22919 0.47448 0.10239 0.32200
O 	O 	0.25473 0.54025 0.12798 -0.36100
O 	O 	0.26441 0.49502 0.06751 -0.35400
C 	C 	0.21223 0.32282 0.12507 0.13000
H 	H 	0.22178 0.23146 0.16714 0.09500
C 	C 	0.20858 0.79578 0.31589 0.13000
H 	H 	0.20991 0.91254 0.28639 0.07100
C 	C 	0.25603 0.09232 0.63901 -0.01600
C 	C 	0.27031 0.12423 0.67695 -0.06400
Br	Br	0.28135 0.11063 0.55731 -0.15000
Br	Br	0.26244 0.94167 0.01313 -0.17700
H 	H 	0.28928 0.15220 0.86402 0.09000
Br	Br	0.32157 0.06259 0.18355 -0.17700
C 	C 	0.32867 0.11240 0.81187 -0.05900
O 	O 	0.23607 0.62597 0.34874 -0.34800
Ni	Ni	0.32953 0.80006 0.09034 1.12600
Ni	Ni	0.30514 0.62392 0.04161 1.12800
O 	O 	0.34390 0.71262 0.17163 -0.33600
H 	H 	0.34752 0.78212 0.55354 0.09100
C 	C 	0.30910 0.15264 0.60924 0.13800
C 	C 	0.34316 0.14648 0.84902 -0.02200
Ni	Ni	0.27181 0.54099 0.38174 1.11700
H 	H 	0.37322 0.91339 0.18604 0.07800
Ni	Ni	0.33244 0.73349 0.42775 1.12500
O 	O 	0.38008 0.65002 0.50717 -0.35200
O 	O 	0.31429 0.60925 0.42743 -0.71600
O 	O 	0.33413 0.73198 0.00338 -0.34700
Br	Br	0.37518 0.95400 0.59482 -0.17200
C 	C 	0.33910 0.21868 0.68430 0.12700
Br	Br	0.37386 0.03417 0.74569 -0.17700
Br	Br	0.37622 0.40873 0.93325 -0.16800
O 	O 	0.30222 0.43749 0.40241 -0.34400
O 	O 	0.36158 0.70410 0.08403 -0.71200
Br	Br	0.30947 0.32734 0.09449 -0.18500
Br	Br	0.33299 0.83403 0.30184 -0.20100
Br	Br	0.36619 0.26900 0.73484 -0.20300
H 	H 	0.36248 0.43755 0.01582 0.08600
C 	C 	0.39616 0.09686 0.79397 0.13100
Ni	Ni	0.38553 0.65190 0.12799 1.12300
C 	C 	0.38332 0.24259 0.61750 -0.07400
Br	Br	0.28177 0.22965 0.40802 -0.18800
O 	O 	0.36583 0.49136 0.46238 -0.35200
H 	H 	0.03160 0.46070 0.83564 0.08600
H 	H 	0.37885 0.62381 0.42680 0.16300
C 	C 	0.41887 0.83435 0.54907 -0.03400
C 	C 	0.39143 0.27779 0.65439 -0.02900
C 	C 	0.36530 0.45277 0.42881 0.30200
C 	C 	0.37745 0.82502 0.01032 0.31500
C 	C 	0.37335 0.96579 0.98774 0.11600
C 	C 	0.42567 0.17189 0.86747 0.12700
O 	O 	0.40621 0.76591 0.37743 -0.34300
O 	O 	0.40588 0.85980 0.04459 -0.37400
O 	O 	0.40272 0.62585 0.36049 -0.36200
H 	H 	0.42414 0.74260 0.07404 0.18000
C 	C 	0.39193 0.89211 0.97965 -0.05600
C 	C 	0.40285 0.32137 0.42352 0.13400
C 	C 	0.01040 0.32432 0.81907 0.12800
O 	O 	0.00514 0.14617 0.72582 -0.36800
O 	O 	0.42934 0.63923 0.03407 -0.37200
C 	C 	0.43194 0.74020 0.49671 0.31000
C 	C 	0.43138 0.41851 0.42258 -0.07200
H 	H 	0.43378 0.11593 0.99301 0.09500
C 	C 	0.43536 0.47620 0.00956 -0.03100
Br	Br	0.43745 0.21438 0.91865 -0.20400
O 	O 	0.43823 0.58071 0.09348 -0.32900
C 	C 	0.44088 0.05869 0.98085 -0.01100
H 	H 	0.44035 0.21667 0.43953 0.08500
O 	O 	0.44182 0.76737 0.46057 -0.36200
O 	O 	0.44410 0.86990 0.12519 -0.35600
H 	H 	0.44626 0.34820 0.66083 0.09400
H 	H 	0.44976 0.69206 0.28618 0.08400
C 	C 	0.45231 0.92600 0.56307 0.13700
C 	C 	0.44534 0.71939 0.36173 0.30700
C 	C 	0.99300 0.18006 0.35991 -0.07200
C 	C 	0.46489 0.47719 0.97209 0.13400
C 	C 	0.45834 0.90804 0.95194 -0.04100
C 	C 	0.99145 0.13193 0.32407 0.30400
C 	C 	0.99696 0.58535 0.04636 -0.03000
H 	H 	0.99318 0.60550 0.07555 0.08500
C 	C 	0.98101 0.30521 0.39244 -0.03600
C 	C 	0.95950 0.24480 0.36120 0.12900
H 	H 	0.96098 0.35916 0.39208 0.09000
Br	Br	0.89638 0.26222 0.31871 -0.17500
Br	Br	0.97023 0.65270 0.73451 -0.21500
O 	O 	0.91499 0.09378 0.30394 -0.34600
C 	C 	0.96974 0.63803 0.52185 -0.03900
H 	H 	0.94596 0.65402 0.54817 0.07900
O 	O 	0.96371 0.82807 0.26930 -0.35600
O 	O 	0.96902 0.00560 0.25292 -0.69900
C 	C 	0.59383 0.24969 0.85561 0.28200
C 	C 	0.82375 0.58008 0.93930 0.29600
C 	C 	0.84908 0.39902 0.84361 0.33000
C 	C 	0.59002 0.46775 0.94058 0.32700
C 	C 	0.85760 0.38369 0.98030 0.32300
C 	C 	0.60017 0.17315 0.95945 0.30300
Ni	Ni	0.71544 0.44989 0.87915 1.11900
Ni	Ni	0.68816 0.38184 0.97122 1.12700
Ni	Ni	0.75788 0.28616 0.90955 1.12500
O 	O 	0.60718 0.33719 0.85311 -0.33100
O 	O 	0.66360 0.23156 0.86365 -0.33200
O 	O 	0.77894 0.35655 0.99621 -0.37200
O 	O 	0.83149 0.53825 0.90893 -0.36500
O 	O 	0.77335 0.52910 0.96935 -0.35400
O 	O 	0.67848 0.18391 0.94645 -0.35600
O 	O 	0.78941 0.42604 0.83571 -0.34000
O 	O 	0.86092 0.38411 0.87857 -0.38400
O 	O 	0.59784 0.24193 0.97932 -0.33800
O 	O 	0.63674 0.50164 0.90824 -0.35100
O 	O 	0.57974 0.39066 0.95521 -0.37200
O 	O 	0.86248 0.34336 0.94832 -0.34600
O 	O 	0.70488 0.36346 0.91878 -0.70800
H 	H 	0.64016 0.31701 0.91650 0.16000
C 	C 	0.82530 0.48727 0.51586 0.30000
C 	C 	0.57196 0.09612 0.56008 0.33800
C 	C 	0.59146 0.33565 0.48093 0.31600
C 	C 	0.78820 0.24114 0.60371 0.30400
C 	C 	0.46764 0.27706 0.59484 0.32800
C 	C 	0.69870 0.46615 0.63511 0.30200
Ni	Ni	0.71114 0.27809 0.52716 1.11800
Ni	Ni	0.62691 0.26156 0.61173 1.13300
Ni	Ni	0.63766 0.41972 0.55581 1.12700
O 	O 	0.82692 0.40737 0.52078 -0.35400
O 	O 	0.74746 0.49222 0.51855 -0.34000
O 	O 	0.50212 0.22148 0.59212 -0.36900
O 	O 	0.58945 0.15166 0.53051 -0.36100
O 	O 	0.60323 0.13196 0.59388 -0.34600
O 	O 	0.70856 0.49981 0.59989 -0.36600
O 	O 	0.66036 0.31778 0.47899 -0.32900
O 	O 	0.55674 0.33752 0.51391 -0.37000
O 	O 	0.64144 0.37508 0.64305 -0.35400
O 	O 	0.77733 0.22799 0.56563 -0.34700
O 	O 	0.75485 0.28782 0.62249 -0.36000
O 	O 	0.52036 0.36819 0.58795 -0.35400
O 	O 	0.68146 0.33492 0.56739 -0.71800
H 	H 	0.74273 0.38067 0.57699 0.17000
C 	C 	0.89182 0.79633 0.72634 0.32200
C 	C 	0.93734 0.84769 0.83205 0.29200
C 	C 	0.94000 0.07852 0.70537 0.33100
C 	C 	0.96618 0.15497 0.80180 0.30700
Ni	Ni	0.89893 0.95437 0.77269 1.12300
O 	O 	0.89670 0.99067 0.71789 -0.38700
O 	O 	0.97937 0.84659 0.71866 -0.35200
O 	O 	0.85658 0.81924 0.75520 -0.35800
O 	O 	0.89587 0.06920 0.79504 -0.36000
O 	O 	0.98210 0.82694 0.80496 -0.33300
O 	O 	0.90339 0.90510 0.82517 -0.34700
C 	C 	0.45990 0.59569 0.05610 0.31600
C 	C 	0.51722 0.85644 0.12427 0.29400
O 	O 	0.50900 0.77326 0.13214 -0.33700
C 	C 	0.76138 0.88520 0.26404 0.30500
C 	C 	0.86341 0.99101 0.17119 0.31000
Ni	Ni	0.91363 0.08063 0.24524 1.13200
Ni	Ni	0.92271 0.88704 0.22724 1.12100
O 	O 	0.78235 0.96352 0.24539 -0.35000
O 	O 	0.80044 0.83405 0.25510 -0.34400
O 	O 	0.92346 0.06840 0.18740 -0.35200
O 	O 	0.85914 0.90981 0.18058 -0.34100
H 	H 	0.94081 0.97777 0.27777 0.14000
Br	Br	0.99663 0.34459 0.20429 -0.15400
C 	C 	0.75927 0.94514 0.11462 -0.01400
C 	C 	0.78646 0.99096 0.14993 -0.08800
C 	C 	0.73312 0.02816 0.16638 0.16100
C 	C 	0.64412 0.99792 0.15287 -0.05300
C 	C 	0.61075 0.93639 0.12184 -0.05600
C 	C 	0.67439 0.92522 0.09910 0.12400
Br	Br	0.64065 0.87073 0.04919 -0.19500
H 	H 	0.80274 0.92360 0.09967 0.08300
H 	H 	0.59880 0.01594 0.16843 0.10000
Br	Br	0.78246 0.12740 0.20347 -0.23500
C 	C 	0.68738 0.87532 0.32642 -0.02800
C 	C 	0.67992 0.84418 0.28860 -0.07100
C 	C 	0.59343 0.77981 0.27379 0.13600
C 	C 	0.51606 0.74319 0.29748 -0.02800
C 	C 	0.52404 0.77088 0.33591 -0.06300
C 	C 	0.60975 0.83972 0.35002 0.12700
Br	Br	0.62231 0.88662 0.40112 -0.19100
H 	H 	0.75355 0.92751 0.33747 0.07500
Br	Br	0.57945 0.74234 0.22112 -0.20100
Br	Br	0.89741 0.69543 0.34420 -0.17100
C 	C 	0.60195 0.97069 0.53608 -0.03500
C 	C 	0.54192 0.99621 0.55362 -0.08600
C 	C 	0.47506 0.81287 0.52612 -0.07100
C 	C 	0.56923 0.87825 0.52343 0.13200
Br	Br	0.65346 0.84169 0.50290 -0.17800
H 	H 	0.67330 0.02300 0.53153 0.07900
C 	C 	0.90710 0.56553 0.49816 -0.05600
C 	C 	0.93852 0.55021 0.46274 0.12800
Br	Br	0.85776 0.45057 0.42923 -0.18800
C 	C 	0.46480 0.29121 0.43516 -0.02900
C 	C 	0.55427 0.35758 0.44638 -0.06600
C 	C 	0.58689 0.45305 0.43627 0.12300
C 	C 	0.52502 0.48315 0.42527 -0.02900
H 	H 	0.54905 0.55780 0.42141 0.07700
Br	Br	0.71411 0.54429 0.43829 -0.16800
C 	C 	0.80839 0.09258 0.68258 -0.02700
C 	C 	0.89586 0.10542 0.67548 -0.08000
C 	C 	0.94373 0.15340 0.64216 0.13000
C 	C 	0.90517 0.19238 0.61740 -0.03100
C 	C 	0.82052 0.18630 0.62629 -0.07100
C 	C 	0.77146 0.13467 0.65921 0.13100
Br	Br	0.65603 0.12357 0.67455 -0.21600
H 	H 	0.77100 0.05436 0.70791 0.07300
H 	H 	0.94270 0.23049 0.59210 0.08000
C 	C 	0.81420 0.55246 0.68544 -0.03400
C 	C 	0.73351 0.53509 0.66655 -0.06500
C 	C 	0.69959 0.59846 0.67135 0.12900
C 	C 	0.75135 0.68299 0.69124 -0.02600
C 	C 	0.83606 0.70428 0.70730 -0.07500
C 	C 	0.86503 0.63604 0.70620 0.13500
H 	H 	0.83938 0.50276 0.68283 0.08000
H 	H 	0.72633 0.73288 0.69360 0.07700
Br	Br	0.58342 0.57148 0.65019 -0.19500
C 	C 	0.93850 0.46661 0.99635 -0.08600
C 	C 	0.93584 0.49364 0.03463 0.13000
Br	Br	0.86317 0.40215 0.07300 -0.18000
C 	C 	0.51878 0.07711 0.95935 -0.07000
C 	C 	0.52048 0.00054 0.94060 0.14500
H 	H 	0.46672 0.84996 0.94166 0.08900
Br	Br	0.59618 0.01875 0.89651 -0.20400
C 	C 	0.49537 0.54207 0.03611 -0.06600
C 	C 	0.58967 0.58766 0.02817 0.13000
C 	C 	0.62065 0.58278 0.99142 -0.04000
C 	C 	0.55911 0.52141 0.96381 -0.08300
H 	H 	0.69342 0.61950 0.98578 0.07700
Br	Br	0.67666 0.66220 0.06656 -0.18300
C 	C 	0.98599 0.39526 0.82126 -0.03200
C 	C 	0.89530 0.37372 0.81373 -0.08100
C 	C 	0.84209 0.29581 0.79032 0.12500
C 	C 	0.86803 0.22667 0.78501 -0.03200
C 	C 	0.94867 0.23660 0.80214 -0.07700
H 	H 	0.82450 0.16449 0.76838 0.07700
Br	Br	0.73346 0.28192 0.76617 -0.18700
C 	C 	0.48187 0.12813 0.81174 -0.02500
C 	C 	0.49980 0.17254 0.84751 -0.05800
H 	H 	0.53611 0.12368 0.79655 0.09500
C 	C 	0.78658 0.69754 0.91362 -0.04700
C 	C 	0.84828 0.68030 0.93448 -0.07200
C 	C 	0.94157 0.74636 0.92963 0.12600
C 	C 	0.97176 0.79636 0.89475 -0.03400
C 	C 	0.90687 0.79026 0.86760 -0.06500
C 	C 	0.81294 0.74228 0.87794 0.12500
Br	Br	0.71923 0.72909 0.84278 -0.20500
H 	H 	0.71635 0.66818 0.92283 0.08200
