data_crystal

_cell_length_a 26.21347
_cell_length_b 26.37144
_cell_length_c 39.68136
_cell_angle_alpha 95.49896
_cell_angle_beta  95.49706
_cell_angle_gamma 125.72976

_symmetry_space_group_name_	'P 1'
_symmetry_space_group_name_H-M	'P 1'

loop_
_symmetry_equiv_pos_as_xyz
  x,y,z

loop_
_atom_site_label
_atom_site_type_symbol
_atom_site_fract_x
_atom_site_fract_y
_atom_site_fract_z
_atom_site_charge
C 	C 	0.95973 0.02391 0.99234 0.02100
C 	C 	0.02486 0.05933 0.99022 -0.06900
C 	C 	0.05562 0.03008 0.98995 0.02200
H 	H 	0.05129 0.10921 0.98854 0.04700
C 	C 	0.95167 0.01250 0.47738 0.02100
C 	C 	0.04410 0.01335 0.47307 0.02300
C 	C 	0.01569 0.04475 0.47345 -0.06800
H 	H 	0.04364 0.09451 0.47129 0.04800
Cu	Cu	0.63178 0.23386 0.00097 0.92700
Cu	Cu	0.66184 0.23102 0.92262 0.87000
Cu	Cu	0.66438 0.33695 0.95879 0.89700
Cu	Cu	0.64619 0.35695 0.03113 0.89400
C 	C 	0.66675 0.28142 0.07408 0.30500
O 	O 	0.54214 0.20213 0.00683 -0.36100
C 	C 	0.62617 0.29311 0.88268 0.28800
O 	O 	0.68787 0.33322 0.00521 -0.64100
O 	O 	0.61476 0.24246 0.95298 -0.64100
O 	O 	0.66539 0.18370 0.99226 -0.37200
O 	O 	0.72772 0.24598 0.95629 -0.44000
O 	O 	0.64006 0.31050 0.06929 -0.38800
O 	O 	0.71741 0.42886 0.96746 -0.38300
C 	C 	0.71934 0.46522 0.99372 0.28800
C 	C 	0.51889 0.23275 0.99810 0.28100
O 	O 	0.55767 0.29208 0.99436 -0.39200
O 	O 	0.68321 0.44097 0.01723 -0.39500
O 	O 	0.66178 0.24174 0.04861 -0.36300
C 	C 	0.71460 0.20529 0.97677 0.28500
O 	O 	0.65484 0.34110 0.90922 -0.38700
O 	O 	0.61603 0.23876 0.88580 -0.42100
H 	H 	0.73454 0.35797 0.01357 0.16300
H 	H 	0.56901 0.21927 0.94273 0.17200
Cu	Cu	0.74777 0.34752 0.46136 0.92700
Cu	Cu	0.73779 0.29616 0.53400 0.86700
Cu	Cu	0.63792 0.30356 0.50014 0.89600
Cu	Cu	0.62073 0.32696 0.42922 0.89300
C 	C 	0.70667 0.32164 0.38807 0.28800
O 	O 	0.77382 0.43671 0.46023 -0.35900
C 	C 	0.66739 0.31809 0.57588 0.30300
O 	O 	0.64701 0.28586 0.45390 -0.63900
O 	O 	0.73293 0.35322 0.50895 -0.64300
O 	O 	0.80226 0.31812 0.46877 -0.37200
O 	O 	0.73251 0.24154 0.49671 -0.44100
O 	O 	0.67494 0.34526 0.39351 -0.38600
O 	O 	0.54551 0.24977 0.48964 -0.38600
C 	C 	0.51009 0.25376 0.46560 0.28800
C 	C 	0.73802 0.45385 0.46921 0.27800
O 	O 	0.67743 0.41031 0.46996 -0.39600
O 	O 	0.53104 0.27649 0.43760 -0.39400
O 	O 	0.74708 0.32724 0.41347 -0.36200
C 	C 	0.77883 0.26386 0.47907 0.28600
O 	O 	0.63053 0.31401 0.54886 -0.38400
O 	O 	0.72266 0.32887 0.57372 -0.42300
H 	H 	0.62460 0.24020 0.44448 0.16400
H 	H 	0.75553 0.39679 0.52231 0.17400
C 	C 	0.61424 0.30370 0.84795 -0.09100
C 	C 	0.66193 0.35894 0.83701 0.01200
C 	C 	0.65733 0.36275 0.80206 -0.06700
C 	C 	0.60462 0.31166 0.77783 0.02500
C 	C 	0.55427 0.25892 0.78923 -0.06800
C 	C 	0.55925 0.25478 0.82410 0.01400
C 	C 	0.60621 0.30959 0.74059 0.00100
C 	C 	0.60316 0.26010 0.72126 -0.04100
C 	C 	0.61085 0.26105 0.68693 -0.03400
C 	C 	0.62203 0.31156 0.67164 -0.00900
C 	C 	0.62338 0.36021 0.69052 -0.03300
C 	C 	0.61529 0.35916 0.72489 -0.04100
C 	C 	0.63675 0.31558 0.63750 0.04300
C 	C 	0.65016 0.31750 0.60918 -0.11200
H 	H 	0.70431 0.39732 0.85523 0.03100
H 	H 	0.69623 0.40397 0.79363 0.04400
H 	H 	0.51266 0.21987 0.77085 0.04400
H 	H 	0.52152 0.21248 0.83237 0.02800
H 	H 	0.59657 0.22182 0.73314 0.03700
H 	H 	0.60972 0.22328 0.67248 0.03400
H 	H 	0.63187 0.39937 0.67884 0.03800
H 	H 	0.61728 0.39736 0.73947 0.03800
C 	C 	0.70908 0.30380 0.35219 -0.08600
C 	C 	0.65403 0.27304 0.32653 0.01300
C 	C 	0.65757 0.26305 0.29189 -0.06600
C 	C 	0.71617 0.28352 0.28251 0.02600
C 	C 	0.77067 0.31162 0.30823 -0.06600
C 	C 	0.76716 0.32168 0.34296 0.01700
C 	C 	0.72149 0.28084 0.24575 0.00200
C 	C 	0.68238 0.22250 0.22253 -0.04000
C 	C 	0.67816 0.22122 0.18701 -0.03200
C 	C 	0.71326 0.27816 0.17449 -0.00700
C 	C 	0.75563 0.33603 0.19767 -0.03300
C 	C 	0.75975 0.33742 0.23319 -0.04000
C 	C 	0.69888 0.27820 0.13853 0.04400
C 	C 	0.68515 0.27915 0.10883 -0.10500
H 	H 	0.60877 0.25818 0.33337 0.02100
H 	H 	0.61520 0.24123 0.27225 0.04500
H 	H 	0.81603 0.32715 0.30128 0.04700
H 	H 	0.80999 0.34527 0.36249 0.04000
H 	H 	0.65331 0.17846 0.23197 0.03900
H 	H 	0.64561 0.17623 0.16925 0.04000
H 	H 	0.78321 0.38023 0.18820 0.03700
H 	H 	0.79035 0.38269 0.25086 0.04000
C 	C 	0.85027 0.80252 0.45726 -0.04800
C 	C 	0.81964 0.73752 0.45620 -0.02800
C 	C 	0.84388 0.71661 0.48011 -0.01500
C 	C 	0.90170 0.76257 0.50374 0.03200
C 	C 	0.93223 0.74328 0.52389 -0.05400
C 	C 	0.90755 0.67928 0.51984 -0.03400
C 	C 	0.84938 0.63284 0.49745 0.00100
C 	C 	0.81482 0.65078 0.47919 0.01500
C 	C 	0.75143 0.60277 0.46182 -0.05800
C 	C 	0.72659 0.53872 0.45884 0.00700
C 	C 	0.76349 0.52133 0.47401 -0.07600
C 	C 	0.82442 0.56833 0.49378 -0.01400
H 	H 	0.78008 0.70419 0.43529 0.03400
H 	H 	0.97664 0.77830 0.54184 0.04000
H 	H 	0.93333 0.66568 0.53458 0.03400
H 	H 	0.72020 0.61439 0.45212 0.04200
H 	H 	0.67846 0.50249 0.44466 0.02600
H 	H 	0.85189 0.55470 0.50670 0.03400
C 	C 	0.80799 0.23087 0.47367 -0.08300
C 	C 	0.87194 0.26065 0.48866 0.00400
C 	C 	0.89677 0.22597 0.48897 -0.06000
C 	C 	0.85707 0.16022 0.47488 0.01400
C 	C 	0.79506 0.13239 0.45612 -0.00100
C 	C 	0.77012 0.16727 0.45659 -0.01100
C 	C 	0.75913 0.07050 0.43671 -0.03400
C 	C 	0.78410 0.03602 0.43581 -0.05300
C 	C 	0.84340 0.06099 0.45626 0.03100
C 	C 	0.87876 0.12202 0.47753 -0.01600
C 	C 	0.93199 0.14130 0.50244 -0.02900
C 	C 	0.95409 0.10428 0.50309 -0.04900
C 	C 	0.92311 0.04710 0.47939 0.01300
C 	C 	0.86696 0.02485 0.45648 -0.06800
H 	H 	0.90213 0.31045 0.50076 0.02400
H 	H 	0.94716 0.25092 0.49892 0.04100
H 	H 	0.72127 0.14491 0.44396 0.03400
H 	H 	0.71218 0.04944 0.42173 0.03500
H 	H 	0.95452 0.18306 0.52232 0.03300
H 	H 	0.99558 0.12017 0.52203 0.04000
C 	C 	0.11281 0.04891 0.47228 0.01300
C 	C 	0.15535 0.06044 0.50140 -0.04800
C 	C 	0.22058 0.09404 0.50094 -0.02900
C 	C 	0.24470 0.11896 0.47152 -0.01500
C 	C 	0.20089 0.10308 0.44129 0.03200
C 	C 	0.13545 0.06971 0.44218 -0.06900
C 	C 	0.22256 0.11854 0.41024 -0.05300
C 	C 	0.28691 0.14858 0.40871 -0.03500
C 	C 	0.33151 0.16746 0.43865 0.00100
C 	C 	0.31129 0.15607 0.47073 0.01300
C 	C 	0.35808 0.18467 0.50119 -0.05700
C 	C 	0.42263 0.21638 0.49935 0.00400
C 	C 	0.44201 0.22244 0.46731 -0.07400
C 	C 	0.39647 0.19906 0.43703 -0.01600
H 	H 	0.13763 0.04240 0.52431 0.04000
H 	H 	0.25122 0.09740 0.52269 0.03400
H 	H 	0.30235 0.15826 0.38422 0.03500
H 	H 	0.34538 0.18549 0.52625 0.04300
H 	H 	0.45781 0.23738 0.52297 0.04000
H 	H 	0.41144 0.20526 0.41226 0.04000
C 	C 	0.75594 0.53399 0.99430 -0.07500
C 	C 	0.78418 0.57663 0.02589 0.00400
C 	C 	0.81561 0.64158 0.02685 -0.05900
C 	C 	0.82182 0.66542 0.99590 0.01500
C 	C 	0.78964 0.62178 0.96413 0.00100
C 	C 	0.75863 0.55662 0.96346 -0.01400
C 	C 	0.78642 0.64332 0.93360 -0.03400
C 	C 	0.81415 0.70747 0.93427 -0.05400
C 	C 	0.84925 0.75191 0.96508 0.03200
C 	C 	0.85621 0.73166 0.99590 -0.01500
C 	C 	0.90007 0.77805 0.02520 -0.02900
H 	H 	0.78055 0.55924 0.04986 0.02800
H 	H 	0.83152 0.67224 0.05159 0.04200
H 	H 	0.73471 0.52335 0.93908 0.04400
H 	H 	0.76102 0.60997 0.90933 0.03600
H 	H 	0.80956 0.72289 0.91054 0.04000
H 	H 	0.91370 0.76501 0.04746 0.03400
C 	C 	0.92680 0.05407 0.99174 0.01400
C 	C 	0.89451 0.05213 0.01834 -0.04900
C 	C 	0.85920 0.07628 0.01669 -0.02900
C 	C 	0.85837 0.10601 0.98902 -0.01500
C 	C 	0.88882 0.10533 0.96145 0.03200
C 	C 	0.92392 0.08067 0.96338 -0.07000
C 	C 	0.88161 0.12669 0.93161 -0.05500
C 	C 	0.84348 0.14738 0.92841 -0.03400
C 	C 	0.81478 0.15064 0.95575 -0.00200
C 	C 	0.82454 0.13301 0.98701 0.01600
C 	C 	0.80272 0.14535 0.01573 -0.06000
C 	C 	0.76557 0.16736 0.01206 0.00800
C 	C 	0.75246 0.18068 0.98040 -0.08300
C 	C 	0.77769 0.17295 0.95244 -0.01400
H 	H 	0.89519 0.03008 0.03989 0.04100
H 	H 	0.82985 0.06826 0.03582 0.03500
H 	H 	0.94739 0.08041 0.94234 0.04600
H 	H 	0.90439 0.12575 0.91040 0.03900
H 	H 	0.83703 0.16192 0.90469 0.03100
H 	H 	0.81723 0.14164 0.04122 0.04400
H 	H 	0.74874 0.17605 0.03422 0.04000
H 	H 	0.76861 0.18449 0.92812 0.02100
C 	C 	0.45056 0.20309 0.99618 -0.07700
C 	C 	0.40448 0.14261 0.97610 0.00700
C 	C 	0.33940 0.11508 0.97349 -0.05900
C 	C 	0.31961 0.14866 0.99054 0.01600
C 	C 	0.36624 0.20733 0.01315 -0.00100
C 	C 	0.43144 0.23518 0.01485 -0.01200
C 	C 	0.34719 0.23614 0.03484 -0.03300
C 	C 	0.28245 0.20657 0.03498 -0.05400
C 	C 	0.23559 0.15002 0.01170 0.03200
C 	C 	0.25392 0.12298 0.98765 -0.01500
C 	C 	0.20665 0.07311 0.96054 -0.02800
C 	C 	0.14202 0.04470 0.96056 -0.04900
C 	C 	0.12365 0.06653 0.98698 0.01400
C 	C 	0.17047 0.12050 0.01185 -0.07000
H 	H 	0.41906 0.11673 0.96257 0.02600
H 	H 	0.30492 0.06667 0.95976 0.04200
H 	H 	0.46727 0.28106 0.03135 0.03100
H 	H 	0.38271 0.28068 0.05244 0.03500
H 	H 	0.26869 0.22828 0.05289 0.04100
H 	H 	0.21958 0.05800 0.93876 0.03400
H 	H 	0.15625 0.13873 0.03160 0.04700
C 	C 	0.02135 0.96567 0.99228 -0.06900
C 	C 	0.95632 0.93011 0.99401 0.02100
C 	C 	0.92547 0.95911 0.99395 -0.07000
H 	H 	0.04515 0.94311 0.99245 0.04900
H 	H 	0.87488 0.93128 0.99489 0.04800
C 	C 	0.91574 0.94800 0.48030 -0.07000
C 	C 	0.94376 0.91595 0.47903 0.02100
C 	C 	0.00784 0.94880 0.47517 -0.06900
H 	H 	0.86660 0.92314 0.48388 0.04700
H 	H 	0.02959 0.92425 0.47402 0.04900
C 	C 	0.90614 0.84780 0.48152 0.01300
C 	C 	0.93061 0.82763 0.50538 -0.06900
H 	H 	0.83214 0.81768 0.43811 0.04000
H 	H 	0.97404 0.86269 0.52406 0.04500
H 	H 	0.75640 0.98900 0.41987 0.03900
H 	H 	0.84192 0.97977 0.43879 0.04500
H 	H 	0.10204 0.05892 0.41933 0.04700
H 	H 	0.18913 0.10578 0.38697 0.04100
C 	C 	0.93061 0.84250 0.02482 -0.04900
C 	C 	0.92021 0.86198 0.99498 0.01400
C 	C 	0.87980 0.81681 0.96513 -0.06900
H 	H 	0.96396 0.87756 0.04749 0.04000
H 	H 	0.87370 0.83235 0.94172 0.04600
H 	H 	0.10604 0.00520 0.94017 0.04000
