data_crystal

_cell_length_a 15.22717
_cell_length_b 16.19831
_cell_length_c 43.00879
_cell_angle_alpha 90.52772
_cell_angle_beta  90.55891
_cell_angle_gamma 119.43474

_symmetry_space_group_name_	'P 1'
_symmetry_space_group_name_H-M	'P 1'

loop_
_symmetry_equiv_pos_as_xyz
  x,y,z

loop_
_atom_site_label
_atom_site_type_symbol
_atom_site_fract_x
_atom_site_fract_y
_atom_site_fract_z
_atom_site_charge
C 	C 	0.12594 0.11979 0.75184 0.30200
C 	C 	0.14747 0.09796 0.82487 0.28000
Ni	Ni	0.99142 0.13981 0.79377 1.12100
Ni	Ni	0.99262 0.94240 0.78601 1.11600
O 	O 	0.05729 0.14521 0.75354 -0.38200
O 	O 	0.08925 0.00470 0.82180 -0.37400
O 	O 	0.11443 0.15959 0.81930 -0.36600
O 	O 	0.10294 0.03172 0.75713 -0.36900
C 	C 	0.27820 0.42040 0.37694 0.29500
C 	C 	0.30941 0.57334 0.47853 0.29900
C 	C 	0.28577 0.66308 0.34960 0.28900
Ni	Ni	0.25033 0.56835 0.41102 1.11000
O 	O 	0.26806 0.69783 0.42640 -0.37100
O 	O 	0.23246 0.43503 0.40032 -0.35900
O 	O 	0.32157 0.48537 0.35590 -0.37000
O 	O 	0.23740 0.53081 0.45757 -0.37600
O 	O 	0.22122 0.58855 0.36513 -0.36300
C 	C 	0.26652 0.64893 0.24935 0.27200
C 	C 	0.34754 0.59417 0.12274 0.31700
C 	C 	0.28834 0.42331 0.22106 0.30900
Ni	Ni	0.26377 0.56956 0.18488 1.10800
O 	O 	0.21095 0.58114 0.22867 -0.35500
O 	O 	0.31994 0.53861 0.14618 -0.39800
O 	O 	0.24564 0.43647 0.19661 -0.36500
O 	O 	0.32623 0.48907 0.24226 -0.38400
O 	O 	0.25053 0.68094 0.16342 -0.37300
C 	C 	0.17546 0.84418 0.26838 0.27200
C 	C 	0.21341 0.15564 0.34919 0.29900
C 	C 	0.20124 0.86205 0.33511 0.28900
C 	C 	0.20816 0.17482 0.26342 0.28700
Ni	Ni	0.24702 0.03673 0.29989 1.11000
O 	O 	0.24222 0.93621 0.26767 -0.35600
O 	O 	0.07732 0.81402 0.27062 -0.37100
O 	O 	0.28048 0.14752 0.33198 -0.35400
O 	O 	0.11811 0.09038 0.34782 -0.38000
O 	O 	0.26145 0.95427 0.33434 -0.35800
O 	O 	0.10378 0.82691 0.33704 -0.36700
O 	O 	0.25978 0.12857 0.26384 -0.35900
O 	O 	0.15650 0.17371 0.28784 -0.37900
O 	O 	0.10459 0.98103 0.29840 -0.70700
H 	H 	0.09918 0.97704 0.27550 0.14900
C 	C 	0.23865 0.25421 0.24299 -0.02800
C 	C 	0.26087 0.32826 0.23031 -0.04200
C 	C 	0.23625 0.71841 0.25709 -0.03200
C 	C 	0.20879 0.77597 0.26214 -0.03500
C 	C 	0.25656 0.32565 0.36960 -0.03000
C 	C 	0.23834 0.24740 0.36139 -0.04000
C 	C 	0.24146 0.79954 0.34037 -0.03400
C 	C 	0.26481 0.73916 0.34429 -0.03400
H 	H 	0.13428 0.65313 0.46968 0.02900
C 	C 	0.08523 0.54483 0.64949 0.04700
C 	C 	0.13557 0.53671 0.62112 -0.05000
C 	C 	0.18616 0.61049 0.60216 -0.05300
C 	C 	0.22021 0.59677 0.57122 0.04700
C 	C 	0.15364 0.52285 0.55117 -0.07500
C 	C 	0.18452 0.51226 0.52158 0.02200
C 	C 	0.28193 0.57635 0.51137 -0.08900
C 	C 	0.34861 0.65014 0.53146 0.02100
C 	C 	0.31745 0.66089 0.56109 -0.07400
H 	H 	0.12910 0.46842 0.61532 0.04600
H 	H 	0.20375 0.68130 0.60963 0.04200
H 	H 	0.07731 0.47462 0.55828 0.05100
H 	H 	0.13194 0.45526 0.50637 0.03800
H 	H 	0.36864 0.71951 0.57603 0.04900
C 	C 	0.22765 0.18881 0.74378 -0.04200
C 	C 	0.98674 0.52082 0.08203 -0.04900
C 	C 	0.08556 0.52605 0.07734 0.04400
C 	C 	0.10199 0.45188 0.08668 -0.07700
C 	C 	0.20004 0.47088 0.09360 0.01900
C 	C 	0.27849 0.56560 0.09553 -0.10400
C 	C 	0.26592 0.63418 0.07952 0.02500
C 	C 	0.16901 0.61326 0.06974 -0.07700
H 	H 	0.03918 0.38217 0.09106 0.04800
H 	H 	0.21172 0.41465 0.10255 0.03200
H 	H 	0.15768 0.66744 0.05898 0.04600
C 	C 	0.23509 0.80561 0.11753 0.01700
H 	H 	0.17019 0.73523 0.11608 0.03400
C 	C 	0.24219 0.13308 0.84069 -0.02300
Ni	Ni	0.01671 0.85115 0.30664 1.11800
C 	C 	0.14533 0.73152 0.51141 -0.07400
C 	C 	0.18314 0.71400 0.48419 0.02100
H 	H 	0.06755 0.68492 0.51753 0.04800
H 	H 	0.15626 0.77654 0.57915 0.04100
C 	C 	0.08276 0.49364 0.67592 -0.07100
H 	H 	0.13354 0.46497 0.67799 0.05500
H 	H 	0.23661 0.82952 0.06826 0.04500
C 	C 	0.32316 0.17071 0.85357 -0.03900
C 	C 	0.20817 0.80833 0.53080 0.04800
H 	H 	0.00128 0.42409 0.71692 0.04100
H 	H 	0.98604 0.58435 0.09001 0.04300
C 	C 	0.28517 0.77179 0.47662 -0.08600
C 	C 	0.00806 0.47101 0.69817 0.02700
C 	C 	0.17004 0.82481 0.56014 -0.05400
H 	H 	0.42307 0.70138 0.52370 0.02700
H 	H 	0.32822 0.70574 0.07760 0.03300
H 	H 	0.13606 0.03555 0.59439 0.05300
H 	H 	0.56154 0.40824 0.40872 0.04200
C 	C 	0.51475 0.46487 0.91493 0.29600
C 	C 	0.41983 0.22881 0.86766 0.30500
Ni	Ni	0.51777 0.29312 0.92932 1.12100
O 	O 	0.56941 0.20444 0.94156 -0.37900
O 	O 	0.58127 0.49864 0.89212 -0.36900
O 	O 	0.44192 0.20189 0.89407 -0.37600
O 	O 	0.46866 0.31771 0.85900 -0.38100
O 	O 	0.45682 0.37314 0.91750 -0.38500
C 	C 	0.43486 0.19256 0.65049 0.31200
C 	C 	0.41679 0.31612 0.73135 0.29300
Ni	Ni	0.51611 0.39536 0.67129 1.11200
O 	O 	0.41317 0.25273 0.66431 -0.37600
O 	O 	0.52805 0.21869 0.64255 -0.38300
O 	O 	0.43638 0.38404 0.71150 -0.36000
O 	O 	0.49044 0.30733 0.74427 -0.36100
C 	C 	0.32779 0.74471 0.45042 0.28100
C 	C 	0.57934 0.58341 0.40795 0.28900
C 	C 	0.62944 0.77937 0.38757 0.28100
Ni	Ni	0.44182 0.61341 0.36594 1.12000
Ni	Ni	0.48622 0.68694 0.43879 1.11500
O 	O 	0.42631 0.77220 0.45055 -0.37300
O 	O 	0.51786 0.55112 0.38344 -0.38400
O 	O 	0.60017 0.79290 0.41512 -0.37500
O 	O 	0.40176 0.59384 0.47200 -0.37800
O 	O 	0.56430 0.74149 0.36453 -0.37600
O 	O 	0.37254 0.67151 0.34105 -0.35200
O 	O 	0.54984 0.60413 0.43427 -0.37800
O 	O 	0.39241 0.63506 0.40451 -0.70200
H 	H 	0.40033 0.69675 0.39831 0.14300
C 	C 	0.31873 0.77359 0.16154 0.29200
C 	C 	0.53363 0.58403 0.17762 0.28900
C 	C 	0.62663 0.79982 0.22274 0.30300
Ni	Ni	0.49221 0.73903 0.16848 1.12100
Ni	Ni	0.44279 0.61886 0.23499 1.11800
O 	O 	0.35588 0.66146 0.25965 -0.33900
O 	O 	0.57157 0.67163 0.16813 -0.39000
O 	O 	0.42008 0.68197 0.12654 -0.38700
O 	O 	0.56579 0.74414 0.24383 -0.37900
O 	O 	0.59120 0.82981 0.20021 -0.37500
O 	O 	0.41418 0.80915 0.17056 -0.38000
O 	O 	0.51183 0.56301 0.20763 -0.37100
O 	O 	0.39628 0.65497 0.19855 -0.70800
H 	H 	0.38733 0.70507 0.20825 0.15700
C 	C 	0.34776 0.84919 0.49600 0.02000
C 	C 	0.30955 0.86718 0.52301 -0.07400
C 	C 	0.17748 0.90942 0.56583 -0.05200
C 	C 	0.22024 0.96040 0.59564 0.04800
C 	C 	0.19902 0.03188 0.60488 -0.07300
C 	C 	0.26469 0.10413 0.62526 0.02700
C 	C 	0.35219 0.10527 0.63654 -0.09000
C 	C 	0.36607 0.02727 0.63062 0.02900
C 	C 	0.30035 0.95493 0.61032 -0.07700
H 	H 	0.42637 0.89442 0.49046 0.03900
H 	H 	0.35908 0.92593 0.53818 0.05100
H 	H 	0.17265 0.94962 0.54641 0.04800
H 	H 	0.25118 0.16244 0.63050 0.03700
H 	H 	0.43107 0.02541 0.64026 0.03300
H 	H 	0.31660 0.89892 0.60412 0.04900
C 	C 	0.66053 0.55987 0.41031 -0.08200
C 	C 	0.63549 0.46546 0.41547 0.02600
C 	C 	0.69964 0.44582 0.43356 -0.07100
C 	C 	0.78870 0.52067 0.44634 0.04800
C 	C 	0.82791 0.50635 0.47623 -0.05100
C 	C 	0.69968 0.44231 0.53350 -0.07300
C 	C 	0.65561 0.41154 0.56246 0.02300
H 	H 	0.67461 0.37361 0.44054 0.05200
H 	H 	0.82165 0.43744 0.48018 0.04500
H 	H 	0.65655 0.40754 0.51257 0.05400
H 	H 	0.58039 0.35103 0.56373 0.03800
C 	C 	0.31353 0.24751 0.73794 -0.02900
C 	C 	0.29199 0.83784 0.14516 -0.08100
C 	C 	0.35964 0.93559 0.14805 0.02000
C 	C 	0.40229 0.98708 0.12117 -0.06800
C 	C 	0.36619 0.94285 0.09190 0.04500
C 	C 	0.27292 0.85866 0.09052 -0.07300
C 	C 	0.43659 0.96376 0.06578 -0.05200
C 	C 	0.51066 0.05229 0.06005 -0.04900
C 	C 	0.57817 0.07276 0.03310 0.04200
C 	C 	0.53968 0.02572 0.00438 -0.06700
H 	H 	0.39363 0.96609 0.17050 0.04400
H 	H 	0.46907 0.05607 0.12320 0.04900
H 	H 	0.42916 0.90472 0.05161 0.04300
H 	H 	0.51940 0.11127 0.07451 0.04100
H 	H 	0.46962 0.95924 0.00302 0.04700
H 	H 	0.55145 0.03695 0.95481 0.04400
C 	C 	0.53821 0.51547 0.15574 -0.07900
C 	C 	0.44752 0.44541 0.14210 0.01500
C 	C 	0.44027 0.43131 0.10966 -0.06500
C 	C 	0.52570 0.48258 0.09128 0.04500
C 	C 	0.62053 0.53424 0.10603 -0.06900
C 	C 	0.62691 0.54715 0.13846 0.02000
C 	C 	0.51499 0.48178 0.05677 -0.04800
C 	C 	0.55598 0.56318 0.04051 -0.04800
C 	C 	0.54105 0.56204 0.00614 0.04700
C 	C 	0.52011 0.52559 0.94170 -0.08400
C 	C 	0.43411 0.49416 0.96030 0.01900
C 	C 	0.44472 0.50887 0.99257 -0.06700
H 	H 	0.37995 0.41130 0.15583 0.04600
H 	H 	0.36758 0.38509 0.09879 0.05000
H 	H 	0.46794 0.41447 0.04481 0.04800
H 	H 	0.60413 0.63045 0.05234 0.04500
H 	H 	0.35984 0.44852 0.95028 0.03800
H 	H 	0.37862 0.47622 0.00702 0.05000
O 	O 	0.57469 0.40149 0.62668 -0.36900
Ni	Ni	0.04244 0.05653 0.30683 1.11800
C 	C 	0.75878 0.63241 0.41745 0.01800
C 	C 	0.83775 0.56182 0.50098 -0.05200
C 	C 	0.79793 0.51973 0.53150 0.04900
C 	C 	0.58557 0.07061 0.97693 0.01900
C 	C 	0.65812 0.23049 0.95492 0.28400
C 	C 	0.66073 0.41191 0.98084 0.29800
C 	C 	0.75232 0.32932 0.85729 0.26800
Ni	Ni	0.61543 0.41122 0.86657 1.12000
O 	O 	0.75647 0.51646 0.86033 -0.38800
O 	O 	0.73046 0.46653 0.96152 -0.38200
O 	O 	0.56588 0.36204 0.97139 -0.38300
O 	O 	0.66999 0.33047 0.84617 -0.35200
O 	O 	0.63486 0.36109 0.90476 -0.71000
H 	H 	0.63110 0.30189 0.89750 0.15300
C 	C 	0.64961 0.56732 0.71005 0.28100
C 	C 	0.66745 0.41821 0.62010 0.29000
C 	C 	0.62767 0.20283 0.73141 0.30800
Ni	Ni	0.65005 0.28846 0.67139 1.12200
Ni	Ni	0.63862 0.39149 0.73403 1.12300
O 	O 	0.60669 0.53998 0.68208 -0.36300
O 	O 	0.61983 0.50694 0.73313 -0.37000
O 	O 	0.58451 0.18995 0.70387 -0.38800
O 	O 	0.71418 0.38211 0.63671 -0.38100
O 	O 	0.65859 0.28286 0.74699 -0.37000
O 	O 	0.61487 0.37415 0.69001 -0.71100
H 	H 	0.67315 0.43339 0.68324 0.14300
C 	C 	0.73119 0.85230 0.23123 -0.04000
C 	C 	0.73363 0.83102 0.37946 -0.03500
C 	C 	0.82360 0.61255 0.43507 -0.06800
C 	C 	0.70906 0.45765 0.58972 -0.08500
C 	C 	0.80690 0.53508 0.58781 0.02100
C 	C 	0.85101 0.56630 0.55880 -0.07500
H 	H 	0.89640 0.67002 0.44261 0.05500
H 	H 	0.78102 0.70525 0.41226 0.03400
H 	H 	0.85813 0.63546 0.49761 0.04600
H 	H 	0.84825 0.57164 0.60874 0.02700
H 	H 	0.92577 0.62745 0.55755 0.04800
C 	C 	0.67313 0.14741 0.73976 -0.04100
C 	C 	0.70861 0.66599 0.71801 -0.03400
C 	C 	0.68329 0.43368 0.01422 -0.09000
C 	C 	0.65312 0.35963 0.03538 0.01400
H 	H 	0.58748 0.29135 0.03040 0.03000
C 	C 	0.66183 0.16600 0.97803 -0.07900
C 	C 	0.71413 0.20330 0.00622 0.01100
C 	C 	0.67322 0.15492 0.03383 -0.07200
H 	H 	0.71069 0.18539 0.05584 0.04600
C 	C 	0.62391 0.61232 0.98670 -0.06400
C 	C 	0.61431 0.59188 0.95458 0.02100
H 	H 	0.68845 0.56772 0.09241 0.05200
H 	H 	0.69944 0.59411 0.14931 0.03800
H 	H 	0.69643 0.66346 0.99656 0.05000
H 	H 	0.68098 0.62172 0.94038 0.04800
O 	O 	0.74382 0.29540 0.94231 -0.37100
C 	C 	0.80017 0.58346 0.88084 0.31400
Ni	Ni	0.76690 0.42126 0.92128 1.11000
O 	O 	0.81556 0.56263 0.90887 -0.36500
O 	O 	0.81410 0.39347 0.87833 -0.34900
C 	C 	0.83178 0.43475 0.70514 0.28800
O 	O 	0.78887 0.46677 0.72528 -0.37100
O 	O 	0.78376 0.34572 0.69483 -0.38000
C 	C 	0.79108 0.08590 0.76176 0.30100
C 	C 	0.80217 0.82364 0.75106 0.30000
C 	C 	0.83092 0.12884 0.83312 0.28700
Ni	Ni	0.78114 0.93691 0.80354 1.11000
O 	O 	0.80284 0.86696 0.84104 -0.35700
O 	O 	0.76270 0.99572 0.76342 -0.37900
O 	O 	0.75609 0.81922 0.77713 -0.36200
O 	O 	0.76502 0.03686 0.83124 -0.36000
C 	C 	0.90387 0.90792 0.34891 0.31300
C 	C 	0.90251 0.91288 0.26164 0.28400
C 	C 	0.81379 0.88569 0.24305 -0.02300
C 	C 	0.81518 0.86811 0.36753 -0.04000
H 	H 	0.89215 0.58587 0.66724 0.03000
C 	C 	0.72317 0.11381 0.74895 -0.03500
C 	C 	0.75527 0.74270 0.73052 -0.03700
C 	C 	0.76105 0.52423 0.02319 0.02100
C 	C 	0.71640 0.37026 0.06081 -0.07500
H 	H 	0.78227 0.58377 0.00806 0.03600
H 	H 	0.69731 0.31133 0.07608 0.04700
H 	H 	0.77916 0.27382 0.00722 0.03100
C 	C 	0.79681 0.19561 0.84083 -0.03700
C 	C 	0.77354 0.25522 0.84749 -0.02600
C 	C 	0.84308 0.75087 0.85944 -0.02200
C 	C 	0.82684 0.67865 0.87226 -0.05100
C 	C 	0.81055 0.45291 0.06383 0.04500
C 	C 	0.85992 0.82618 0.83853 0.27900
O 	O 	0.90199 0.82641 0.81167 -0.36600
O 	O 	0.88489 0.15234 0.76810 -0.36600
O 	O 	0.89895 0.88448 0.74832 -0.36800
O 	O 	0.91323 0.96953 0.32807 -0.38000
O 	O 	0.90284 0.84557 0.27954 -0.36600
O 	O 	0.96531 0.00508 0.26660 -0.37200
O 	O 	0.95537 0.86316 0.34662 -0.37100
C 	C 	0.93401 0.49772 0.69382 -0.08400
C 	C 	0.94677 0.56195 0.67026 0.01700
H 	H 	0.02440 0.62698 0.62818 0.04700
C 	C 	0.82455 0.53399 0.04809 -0.07600
H 	H 	0.89151 0.60180 0.05223 0.04800
H 	H 	0.89876 0.37799 0.06769 0.04300
C 	C 	0.89987 0.44425 0.07294 -0.05100
O 	O 	0.92845 0.15938 0.83213 -0.37300
O 	O 	0.92285 0.00714 0.80008 -0.70500
H 	H 	0.93799 0.01134 0.82257 0.15200
C 	C 	0.02150 0.58474 0.64792 -0.06700
