data_crystal

_cell_length_a 18.65837
_cell_length_b 15.82455
_cell_length_c 46.11433
_cell_angle_alpha 90.76862
_cell_angle_beta  91.10450
_cell_angle_gamma 110.93390

_symmetry_space_group_name_	'P 1'
_symmetry_space_group_name_H-M	'P 1'

loop_
_symmetry_equiv_pos_as_xyz
  x,y,z

loop_
_atom_site_label
_atom_site_type_symbol
_atom_site_fract_x
_atom_site_fract_y
_atom_site_fract_z
_atom_site_charge
Ni	Ni	0.13538 0.05055 0.75386 1.09900
O 	O 	0.05108 0.04193 0.72417 -0.71300
O 	O 	0.21236 0.15444 0.73172 -0.34500
O 	O 	0.18894 0.06545 0.69044 -0.36600
O 	O 	0.09581 0.13850 0.77545 -0.37100
Ni	Ni	0.06951 0.00948 0.68508 1.09700
O 	O 	0.16072 0.93278 0.81056 -0.38800
O 	O 	0.07431 0.88688 0.69615 -0.36100
O 	O 	0.05309 0.93294 0.76470 -0.69100
O 	O 	0.21635 0.06655 0.78621 -0.34400
Ni	Ni	0.05042 0.92893 0.80714 1.08200
H 	H 	0.03941 0.09825 0.72390 0.18100
H 	H 	0.06801 0.88259 0.75747 0.16500
C 	C 	0.01155 0.81798 0.70114 0.33200
O 	O 	0.07960 0.06285 0.81771 -0.37700
C 	C 	0.22579 0.14336 0.70417 0.32400
C 	C 	0.06201 0.11787 0.80039 0.33500
C 	C 	0.22224 0.00068 0.80228 0.32200
Ni	Ni	0.37843 0.81899 0.40059 1.09900
O 	O 	0.33335 0.69007 0.38386 -0.70400
Ni	Ni	0.23663 0.69123 0.36472 1.10500
O 	O 	0.38997 0.67465 0.44273 -0.40200
Ni	Ni	0.30556 0.59785 0.41318 1.07000
O 	O 	0.23614 0.65246 0.43363 -0.41000
O 	O 	0.20420 0.56503 0.34648 -0.35700
O 	O 	0.27554 0.81490 0.38599 -0.69800
O 	O 	0.15302 0.71587 0.34046 -0.35200
O 	O 	0.23507 0.85442 0.32734 -0.36000
Ni	Ni	0.29097 0.92597 0.36428 1.08400
H 	H 	0.36694 0.67738 0.36940 0.17100
H 	H 	0.24352 0.81453 0.40288 0.15600
C 	C 	0.16721 0.63989 0.42348 0.29400
C 	C 	0.20834 0.49726 0.36202 0.31700
C 	C 	0.16477 0.79505 0.32896 0.32600
O 	O 	0.15358 0.63866 0.39535 -0.35300
O 	O 	0.21502 0.50497 0.39073 -0.37700
Ni	Ni	0.34319 0.60948 0.10229 1.10700
O 	O 	0.25216 0.58453 0.07377 -0.70100
Ni	Ni	0.18612 0.63740 0.09578 1.10300
O 	O 	0.26111 0.40780 0.08464 -0.40000
O 	O 	0.41357 0.70169 0.07432 -0.36600
Ni	Ni	0.18968 0.46071 0.06246 1.07400
O 	O 	0.10483 0.42290 0.09267 -0.39800
O 	O 	0.08422 0.58549 0.07207 -0.35400
O 	O 	0.28497 0.67919 0.12074 -0.70100
O 	O 	0.14305 0.71824 0.11962 -0.32100
O 	O 	0.25005 0.84386 0.11283 -0.39200
Ni	Ni	0.34615 0.80727 0.11810 1.08400
H 	H 	0.26790 0.61896 0.05580 0.15600
H 	H 	0.27547 0.66235 0.14129 0.19800
C 	C 	0.11351 0.45253 0.11975 0.34300
O 	O 	0.35271 0.80380 0.07411 -0.40000
C 	C 	0.33357 0.43249 0.07749 0.28000
C 	C 	0.07652 0.54577 0.04605 0.28600
C 	C 	0.39376 0.76333 0.06100 0.28400
C 	C 	0.18546 0.80309 0.12630 0.32000
O 	O 	0.14679 0.53914 0.12600 -0.35100
O 	O 	0.12609 0.51000 0.03650 -0.41300
Ni	Ni	0.00780 0.07030 0.24796 1.10100
O 	O 	0.08610 0.05187 0.22080 -0.31500
O 	O 	0.09552 0.15163 0.27486 -0.31600
O 	O 	0.03503 0.08348 0.31502 -0.41000
C 	C 	0.06414 0.02788 0.19348 0.29800
C 	C 	0.08857 0.15128 0.30317 0.32300
O 	O 	0.01243 0.05535 0.18059 -0.37900
C 	C 	0.05797 0.34862 0.19326 -0.07800
C 	C 	0.99544 0.26963 0.18578 -0.12100
C 	C 	0.96777 0.25510 0.15679 0.33100
C 	C 	0.00549 0.31578 0.13544 -0.07100
C 	C 	0.07132 0.39133 0.14266 -0.12600
C 	C 	0.09652 0.40835 0.17184 0.34900
F 	F 	0.16015 0.48078 0.17932 -0.43000
H 	H 	0.07897 0.36162 0.21556 0.11600
H 	H 	0.98398 0.30332 0.11320 0.09200
C 	C 	0.20194 0.92358 0.16387 -0.08800
C 	C 	0.15355 0.85775 0.14444 -0.11600
C 	C 	0.07557 0.84675 0.14180 0.34800
C 	C 	0.04666 0.90154 0.15824 -0.08600
C 	C 	0.09519 0.96824 0.17735 -0.10800
C 	C 	0.17296 0.97859 0.18030 0.37000
F 	F 	0.22088 0.04340 0.19843 -0.42000
H 	H 	0.26213 0.93240 0.16612 0.09700
H 	H 	0.98641 0.89248 0.15601 0.07700
F 	F 	0.02828 0.78495 0.12267 -0.42400
C 	C 	0.21769 0.39049 0.32353 -0.09400
C 	C 	0.18239 0.40637 0.34852 -0.12300
C 	C 	0.12091 0.33577 0.36007 0.33700
C 	C 	0.09325 0.25102 0.34612 -0.09800
C 	C 	0.12621 0.23591 0.32030 -0.13900
C 	C 	0.19044 0.30542 0.30962 0.34700
F 	F 	0.22631 0.29072 0.28578 -0.41500
H 	H 	0.26612 0.44418 0.31482 0.09800
H 	H 	0.04427 0.19810 0.35481 0.06200
F 	F 	0.08583 0.35036 0.38416 -0.43700
C 	C 	0.04013 0.80556 0.34301 -0.09100
C 	C 	0.09847 0.82223 0.32268 -0.13000
C 	C 	0.09094 0.86013 0.29597 0.33900
C 	C 	0.02510 0.88002 0.28956 -0.06700
C 	C 	0.96667 0.86311 0.30989 -0.14500
C 	C 	0.97472 0.82628 0.33673 0.34900
H 	H 	0.04556 0.77657 0.36373 0.09000
H 	H 	0.02019 0.91026 0.26903 0.05300
F 	F 	0.14664 0.87623 0.27605 -0.41000
H 	H 	0.32398 0.13333 0.50120 0.05200
H 	H 	0.28801 0.04412 0.45547 0.03400
C 	C 	0.03234 0.44933 0.50315 -0.04500
C 	C 	0.03852 0.51820 0.48341 0.02300
C 	C 	0.05043 0.65635 0.44409 0.01800
C 	C 	0.10274 0.61112 0.44332 -0.06300
C 	C 	0.09574 0.54087 0.46259 -0.00400
H 	H 	0.07043 0.41136 0.50196 0.05700
H 	H 	0.05515 0.71005 0.42907 0.04100
H 	H 	0.13542 0.50484 0.46158 0.04700
H 	H 	0.49176 0.57510 0.44581 0.02800
C 	C 	0.36072 0.27682 0.64785 -0.07500
C 	C 	0.36746 0.22506 0.70535 -0.08700
C 	C 	0.29586 0.20645 0.69128 -0.10600
C 	C 	0.29288 0.23596 0.66284 0.33600
F 	F 	0.22413 0.22109 0.64925 -0.44000
H 	H 	0.35767 0.29519 0.62543 0.10300
H 	H 	0.37049 0.20365 0.72741 0.13400
F 	F 	0.06037 0.80710 0.64308 -0.43800
C 	C 	0.93581 0.50039 0.03741 0.00700
C 	C 	0.01065 0.53964 0.02722 -0.05800
C 	C 	0.02206 0.55706 0.99763 -0.01300
H 	H 	0.92652 0.48764 0.06031 0.05600
H 	H 	0.07988 0.58943 0.98989 0.04500
C 	C 	0.39617 0.82988 0.98286 -0.05700
C 	C 	0.36953 0.79254 0.00962 0.01300
C 	C 	0.42158 0.79117 0.03180 -0.07200
H 	H 	0.35530 0.83191 0.96610 0.06500
H 	H 	0.30838 0.76621 0.01332 0.02900
F 	F 	0.06110 0.20450 0.85477 -0.43800
C 	C 	0.37597 0.00738 0.85760 0.28500
C 	C 	0.30415 0.98355 0.84357 -0.02100
C 	C 	0.29822 0.01110 0.81510 -0.15700
C 	C 	0.36555 0.05727 0.80007 0.35900
F 	F 	0.36133 0.07904 0.77187 -0.44100
H 	H 	0.25296 0.94632 0.85521 0.08800
F 	F 	0.38061 0.97970 0.88509 -0.41300
Ni	Ni	0.60785 0.21324 0.90902 1.10000
O 	O 	0.61371 0.30615 0.87728 -0.69700
Ni	Ni	0.71386 0.31332 0.85954 1.10100
O 	O 	0.52843 0.23840 0.93446 -0.35500
O 	O 	0.53631 0.37840 0.92062 -0.39200
O 	O 	0.51798 0.11602 0.88726 -0.34400
Ni	Ni	0.62976 0.42683 0.89380 1.07200
O 	O 	0.60258 0.01555 0.90113 -0.38800
O 	O 	0.70371 0.40800 0.92396 -0.42300
O 	O 	0.72672 0.41920 0.83254 -0.36000
O 	O 	0.69970 0.21175 0.88819 -0.70900
O 	O 	0.60894 0.11803 0.93786 -0.37300
O 	O 	0.80665 0.29223 0.84174 -0.34200
O 	O 	0.73928 0.14138 0.83376 -0.37300
Ni	Ni	0.67172 0.09200 0.86964 1.07000
H 	H 	0.57058 0.28623 0.86290 0.16900
H 	H 	0.74422 0.22384 0.90173 0.15700
C 	C 	0.77298 0.41243 0.91678 0.27100
O 	O 	0.58035 0.10084 0.84661 -0.40000
C 	C 	0.53241 0.32064 0.94123 0.28500
C 	C 	0.73037 0.49833 0.84314 0.33200
C 	C 	0.51701 0.09681 0.85941 0.31700
C 	C 	0.80520 0.20995 0.83563 0.31500
C 	C 	0.60674 0.03737 0.92920 0.25400
O 	O 	0.78871 0.40141 0.88940 -0.34800
O 	O 	0.72024 0.50799 0.87099 -0.39300
Ni	Ni	0.62116 0.41729 0.60536 1.10200
O 	O 	0.70611 0.43591 0.57561 -0.69800
Ni	Ni	0.76347 0.36086 0.59278 1.09900
O 	O 	0.57914 0.50739 0.58636 -0.34800
O 	O 	0.69512 0.61771 0.58111 -0.39100
O 	O 	0.54529 0.32184 0.57781 -0.36800
Ni	Ni	0.77818 0.56159 0.57452 1.07000
O 	O 	0.50626 0.23880 0.62762 -0.38900
O 	O 	0.79513 0.56484 0.61826 -0.40900
O 	O 	0.84330 0.38356 0.56134 -0.37100
O 	O 	0.67942 0.34331 0.62267 -0.69800
O 	O 	0.53821 0.39044 0.63577 -0.35800
O 	O 	0.80451 0.26886 0.61115 -0.35900
O 	O 	0.68825 0.15745 0.61639 -0.37000
Ni	Ni	0.60676 0.21678 0.62236 1.08900
H 	H 	0.68606 0.41395 0.55582 0.15000
H 	H 	0.69992 0.36536 0.64242 0.19700
C 	C 	0.84240 0.52992 0.62984 0.34900
O 	O 	0.59332 0.20835 0.57849 -0.40100
C 	C 	0.62450 0.57549 0.57177 0.28700
C 	C 	0.87655 0.46572 0.55141 0.27900
C 	C 	0.56365 0.25935 0.56417 0.27900
C 	C 	0.76071 0.19587 0.62428 0.33300
C 	C 	0.49977 0.30643 0.64301 0.34200
O 	O 	0.84590 0.45373 0.61939 -0.35200
O 	O 	0.87590 0.53641 0.56671 -0.40100
Ni	Ni	0.96273 0.94162 0.74020 1.10800
O 	O 	0.88204 0.95707 0.71283 -0.34500
O 	O 	0.87686 0.85263 0.76392 -0.32400
O 	O 	0.93444 0.90856 0.80757 -0.39800
C 	C 	0.90213 0.97980 0.68586 0.33100
C 	C 	0.88509 0.84267 0.79187 0.32700
O 	O 	0.95548 0.82980 0.71538 -0.36000
O 	O 	0.95519 0.95445 0.67352 -0.33800
O 	O 	0.47077 0.79478 0.41855 -0.35900
O 	O 	0.43308 0.85044 0.36232 -0.38600
O 	O 	0.33116 0.00856 0.39984 -0.40400
O 	O 	0.42481 0.95207 0.41376 -0.36600
O 	O 	0.39777 0.96562 0.34591 -0.34500
C 	C 	0.45991 0.72490 0.43541 0.27400
C 	C 	0.45100 0.93066 0.35123 0.33800
C 	C 	0.38315 0.00263 0.41898 0.25600
O 	O 	0.38150 0.51370 0.08502 -0.36100
O 	O 	0.45155 0.79631 0.12470 -0.38300
O 	O 	0.43191 0.64623 0.13145 -0.36400
C 	C 	0.46375 0.73178 0.13987 0.33600
Ni	Ni	0.83344 0.96926 0.25822 1.10600
O 	O 	0.91636 0.97375 0.22960 -0.69000
O 	O 	0.75304 0.87008 0.23388 -0.35400
O 	O 	0.77971 0.96100 0.19442 -0.36900
O 	O 	0.86658 0.87397 0.27821 -0.36700
Ni	Ni	0.89850 0.00597 0.19042 1.08100
O 	O 	0.81601 0.08631 0.31747 -0.37100
O 	O 	0.90240 0.13122 0.20290 -0.38000
O 	O 	0.91988 0.08210 0.27213 -0.70700
O 	O 	0.75350 0.95735 0.28940 -0.34900
Ni	Ni	0.92333 0.08062 0.31471 1.07700
H 	H 	0.92542 0.91582 0.22893 0.17400
H 	H 	0.90766 0.13517 0.26594 0.16300
C 	C 	0.96893 0.19610 0.20695 0.32800
O 	O 	0.88456 0.94535 0.32190 -0.34900
C 	C 	0.73953 0.88410 0.20660 0.32700
C 	C 	0.90028 0.89037 0.30385 0.34500
C 	C 	0.75198 0.02391 0.30676 0.31600
O 	O 	0.01859 0.18722 0.22618 -0.35100
F 	F 	0.90642 0.18037 0.14902 -0.46000
C 	C 	0.59738 0.74339 0.15072 -0.07700
C 	C 	0.53077 0.75717 0.15945 -0.12300
C 	C 	0.53081 0.80196 0.18589 0.34300
C 	C 	0.59830 0.83696 0.20273 -0.07800
C 	C 	0.66630 0.82881 0.19296 -0.11800
C 	C 	0.66515 0.77963 0.16733 0.34000
F 	F 	0.73051 0.77036 0.15792 -0.44700
H 	H 	0.59741 0.70797 0.13045 0.10300
H 	H 	0.59879 0.87455 0.22260 0.10700
F 	F 	0.46610 0.81401 0.19477 -0.43800
C 	C 	0.59239 0.00035 0.35871 -0.15200
C 	C 	0.52831 0.97391 0.33963 -0.07600
C 	C 	0.53920 0.97624 0.30957 0.32800
C 	C 	0.61330 0.99901 0.29878 -0.04600
C 	C 	0.67713 0.01988 0.31792 -0.15100
C 	C 	0.66652 0.02347 0.34796 0.36800
F 	F 	0.72737 0.04364 0.36682 -0.44600
H 	H 	0.58451 0.99922 0.38194 0.12600
H 	H 	0.62083 0.99685 0.27557 0.09300
F 	F 	0.47783 0.95150 0.29085 -0.40800
F 	F 	0.91889 0.80979 0.35661 -0.43100
C 	C 	0.54388 0.23982 0.53329 -0.07600
C 	C 	0.60106 0.23915 0.51407 0.00700
C 	C 	0.58114 0.20059 0.48631 -0.05800
C 	C 	0.50366 0.16125 0.47761 0.02000
C 	C 	0.44610 0.16740 0.49613 0.01300
C 	C 	0.46673 0.20806 0.52382 -0.01300
C 	C 	0.36856 0.12773 0.48743 -0.05200
C 	C 	0.34814 0.07743 0.46143 0.00000
C 	C 	0.40500 0.06651 0.44388 -0.06100
C 	C 	0.48277 0.11135 0.45145 -0.02200
H 	H 	0.66087 0.26515 0.52112 0.01800
H 	H 	0.62582 0.19808 0.47202 0.05300
H 	H 	0.42266 0.20975 0.53859 0.05400
H 	H 	0.52677 0.10489 0.43749 0.05300
C 	C 	0.92925 0.48020 0.52711 -0.06800
C 	C 	0.97790 0.43034 0.52485 0.01200
C 	C 	0.98787 0.56642 0.48495 0.01900
C 	C 	0.93353 0.54728 0.50687 -0.01700
C 	C 	0.99337 0.63440 0.46489 -0.05300
H 	H 	0.97487 0.37841 0.54035 0.05500
H 	H 	0.89524 0.58501 0.50842 0.02500
H 	H 	0.95422 0.67106 0.46565 0.05500
C 	C 	0.60203 0.59093 0.54222 -0.08600
C 	C 	0.56576 0.51696 0.52333 0.00300
C 	C 	0.54413 0.53095 0.49520 -0.05500
C 	C 	0.55690 0.61903 0.48588 0.01800
C 	C 	0.59626 0.69394 0.50437 0.01800
C 	C 	0.61979 0.67947 0.53237 -0.01700
C 	C 	0.60650 0.78179 0.49531 -0.05000
C 	C 	0.57005 0.79418 0.46977 0.01500
C 	C 	0.52413 0.71889 0.45300 -0.06200
C 	C 	0.52454 0.63278 0.45953 -0.01600
H 	H 	0.55446 0.44853 0.53046 0.03500
H 	H 	0.51511 0.47313 0.48101 0.04700
H 	H 	0.64925 0.73663 0.54679 0.05300
H 	H 	0.63862 0.84001 0.50887 0.05900
H 	H 	0.57223 0.86148 0.46438 0.05300
C 	C 	0.79087 0.02858 0.67635 -0.10600
C 	C 	0.86478 0.03235 0.66928 -0.13300
C 	C 	0.90506 0.09160 0.64773 0.33600
C 	C 	0.87131 0.14541 0.63328 -0.08100
C 	C 	0.79741 0.14163 0.64035 -0.12400
C 	C 	0.75752 0.08334 0.66214 0.35200
F 	F 	0.68692 0.08076 0.66985 -0.44700
H 	H 	0.75941 0.98366 0.69301 0.14300
H 	H 	0.90256 0.18978 0.61646 0.10800
F 	F 	0.97780 0.09904 0.64137 -0.46500
C 	C 	0.43198 0.28793 0.66105 -0.12200
C 	C 	0.43533 0.26512 0.69023 0.34700
F 	F 	0.50401 0.27698 0.70343 -0.43300
C 	C 	0.96359 0.66100 0.63711 -0.08400
C 	C 	0.90503 0.58772 0.64888 -0.12400
C 	C 	0.89955 0.58029 0.67906 0.34900
C 	C 	0.94554 0.65162 0.69711 -0.08100
C 	C 	0.99507 0.73186 0.68499 -0.12000
C 	C 	0.00886 0.73284 0.65510 0.34600
H 	H 	0.97021 0.66540 0.61382 0.09400
H 	H 	0.93710 0.64824 0.72032 0.10300
F 	F 	0.84570 0.50739 0.69080 -0.43100
C 	C 	0.83708 0.45099 0.93793 -0.05900
C 	C 	0.91150 0.49771 0.92817 0.00600
C 	C 	0.97239 0.53539 0.94797 -0.04900
C 	C 	0.96000 0.52628 0.97781 0.01400
C 	C 	0.88509 0.48141 0.98789 0.01900
C 	C 	0.82381 0.44403 0.96786 -0.02500
C 	C 	0.87315 0.47166 0.01782 -0.05100
H 	H 	0.92215 0.50532 0.90517 0.08100
H 	H 	0.02953 0.57048 0.94007 0.05900
H 	H 	0.76644 0.40830 0.97550 0.04200
H 	H 	0.81581 0.43894 0.02586 0.05200
C 	C 	0.58139 0.96431 0.95012 -0.02600
C 	C 	0.63363 0.95564 0.97109 -0.00700
C 	C 	0.60712 0.90462 0.99582 -0.04100
C 	C 	0.52795 0.86367 0.00011 0.01100
C 	C 	0.47531 0.86815 0.97824 0.03400
C 	C 	0.50255 0.91656 0.95299 -0.02800
C 	C 	0.50064 0.82359 0.02666 -0.00900
H 	H 	0.69463 0.99187 0.96890 0.04000
H 	H 	0.64806 0.90046 0.01222 0.05400
H 	H 	0.46227 0.92297 0.93664 0.08900
H 	H 	0.54080 0.82189 0.04377 0.05500
C 	C 	0.35678 0.38032 0.05513 -0.07700
C 	C 	0.30223 0.32479 0.03493 0.00100
C 	C 	0.32600 0.29615 0.00922 -0.05700
C 	C 	0.40447 0.32355 0.00331 0.01700
C 	C 	0.45950 0.37391 0.02448 0.01600
C 	C 	0.43525 0.39926 0.05069 -0.01200
C 	C 	0.53794 0.40295 0.01842 -0.05100
C 	C 	0.56146 0.38540 0.99115 0.00200
C 	C 	0.50702 0.33745 0.96985 -0.06600
C 	C 	0.42865 0.30477 0.97611 -0.01200
H 	H 	0.24147 0.30771 0.03840 0.00900
H 	H 	0.28332 0.25578 0.99342 0.05000
H 	H 	0.47746 0.43899 0.06679 0.05900
H 	H 	0.58063 0.44098 0.03458 0.05400
H 	H 	0.62210 0.40952 0.98651 0.03000
H 	H 	0.38673 0.26673 0.95967 0.05500
C 	C 	0.93935 0.14041 0.78872 -0.08200
C 	C 	0.00116 0.15252 0.80820 -0.13700
C 	C 	0.00105 0.19067 0.83590 0.35000
C 	C 	0.93851 0.21384 0.84427 -0.10100
C 	C 	0.87511 0.19763 0.82526 -0.11700
C 	C 	0.87636 0.16227 0.79724 0.33800
F 	F 	0.81612 0.14792 0.77842 -0.42200
H 	H 	0.93886 0.11102 0.76732 0.05900
H 	H 	0.93826 0.24165 0.86585 0.08600
C 	C 	0.43733 0.08223 0.81424 -0.10700
C 	C 	0.44272 0.06016 0.84336 -0.10200
H 	H 	0.48849 0.12099 0.80283 0.10900
C 	C 	0.88511 0.71686 0.82376 -0.08600
C 	C 	0.84494 0.75397 0.80487 -0.13700
C 	C 	0.76837 0.70293 0.79669 0.35100
C 	C 	0.73217 0.61647 0.80785 -0.09200
C 	C 	0.77208 0.58022 0.82710 -0.11700
C 	C 	0.84907 0.63034 0.83471 0.34000
F 	F 	0.88837 0.59593 0.85331 -0.43800
H 	H 	0.94458 0.75468 0.82973 0.04900
H 	H 	0.67248 0.57883 0.80218 0.09700
F 	F 	0.72850 0.73791 0.77854 -0.41900
