data_crystal

_cell_length_a 39.45370
_cell_length_b 36.86592
_cell_length_c 21.89485
_cell_angle_alpha 89.96286
_cell_angle_beta  89.94493
_cell_angle_gamma 87.38551

_symmetry_space_group_name_	'P 1'
_symmetry_space_group_name_H-M	'P 1'

loop_
_symmetry_equiv_pos_as_xyz
  x,y,z

loop_
_atom_site_label
_atom_site_type_symbol
_atom_site_fract_x
_atom_site_fract_y
_atom_site_fract_z
_atom_site_charge
C 	C 	0.45171 0.54897 0.99386 -0.04200
C 	C 	0.48211 0.56675 0.99723 -0.04300
C 	C 	0.45165 0.51161 0.98008 0.00600
C 	C 	0.48286 0.49205 0.97001 -0.00600
C 	C 	0.51376 0.50995 0.97465 -0.00700
C 	C 	0.51339 0.54758 0.98802 0.00800
C 	C 	0.48324 0.45456 0.95553 0.00700
C 	C 	0.51442 0.43590 0.94298 -0.04000
C 	C 	0.54499 0.49021 0.96574 0.00700
C 	C 	0.54448 0.56522 0.99228 -0.01000
C 	C 	0.57520 0.54507 0.98652 -0.04600
C 	C 	0.57581 0.50784 0.97386 -0.00800
C 	C 	0.42092 0.49333 0.97632 -0.00700
C 	C 	0.42157 0.45625 0.96262 -0.04700
C 	C 	0.45227 0.43660 0.95304 -0.00800
C 	C 	0.54545 0.60501 0.00027 0.01500
C 	C 	0.55106 0.62718 0.94952 -0.04400
C 	C 	0.55754 0.66382 0.95764 -0.04100
C 	C 	0.55792 0.67875 0.01654 0.01800
C 	C 	0.55132 0.65686 0.06723 -0.04100
C 	C 	0.54526 0.62006 0.05916 -0.04300
C 	C 	0.60898 0.48757 0.97171 0.01200
C 	C 	0.61883 0.46431 0.01992 -0.04200
C 	C 	0.65219 0.45004 0.02337 -0.03600
C 	C 	0.63232 0.49504 0.92553 -0.04300
C 	C 	0.66585 0.48140 0.92970 -0.04000
C 	C 	0.67618 0.45990 0.97978 0.01300
C 	C 	0.38782 0.51228 0.98820 0.01000
C 	C 	0.37140 0.50742 0.04425 -0.04000
C 	C 	0.33801 0.52075 0.05251 -0.03900
C 	C 	0.32090 0.53934 0.00494 0.01800
C 	C 	0.33785 0.54557 0.94980 -0.04500
C 	C 	0.37112 0.53186 0.94131 -0.04100
C 	C 	0.45149 0.39685 0.94407 0.01200
C 	C 	0.43798 0.38301 0.89004 -0.04200
C 	C 	0.43064 0.34631 0.88615 -0.04200
C 	C 	0.43688 0.32318 0.93618 0.01600
C 	C 	0.45239 0.33652 0.98873 -0.03900
C 	C 	0.45942 0.37327 0.99285 -0.04300
C 	C 	0.54486 0.45347 0.94798 -0.04000
H 	H 	0.55155 0.61572 0.90396 0.04100
H 	H 	0.56306 0.68041 0.91832 0.04000
H 	H 	0.55159 0.66817 0.11288 0.04200
H 	H 	0.54119 0.60307 0.09864 0.04100
H 	H 	0.32491 0.56016 0.91301 0.04100
H 	H 	0.38365 0.53572 0.89790 0.04000
H 	H 	0.32512 0.51580 0.09522 0.04400
H 	H 	0.38415 0.49229 0.08065 0.04200
H 	H 	0.43183 0.40099 0.85210 0.04000
H 	H 	0.41887 0.33621 0.84524 0.04000
H 	H 	0.46987 0.38369 0.03472 0.04300
H 	H 	0.45767 0.31874 0.02732 0.04400
H 	H 	0.60090 0.45819 0.05558 0.04100
H 	H 	0.65972 0.43252 0.06117 0.04000
H 	H 	0.62484 0.51272 0.88787 0.04000
H 	H 	0.68413 0.48876 0.89541 0.03900
H 	H 	0.42821 0.56450 0.00208 0.04300
H 	H 	0.48113 0.59547 0.00764 0.04300
H 	H 	0.59891 0.55854 0.99177 0.04400
H 	H 	0.56829 0.43845 0.93710 0.04100
H 	H 	0.51525 0.40779 0.92861 0.04100
H 	H 	0.39792 0.44237 0.96060 0.04400
Zn	Zn	0.36748 0.11642 0.98335 1.22100
C 	C 	0.30826 0.07358 0.99961 0.32800
O 	O 	0.39052 0.11789 0.06309 -0.44500
O 	O 	0.32819 0.04452 0.99078 -0.44900
O 	O 	0.36561 0.06840 0.10095 -0.47500
C 	C 	0.39030 0.05801 0.90529 0.29700
O 	O 	0.36958 0.08683 0.90921 -0.43200
O 	O 	0.40281 0.04276 0.95502 -0.49300
C 	C 	0.38167 0.09824 0.10999 0.28800
O 	O 	0.41188 0.14959 0.94163 -0.31900
Zn	Zn	0.37586 0.03947 0.02886 1.17300
O 	O 	0.32147 0.10507 0.01054 -0.43200
C 	C 	0.39009 0.17707 0.94203 0.29100
O 	O 	0.36017 0.17000 0.96200 -0.38700
C 	C 	0.50255 0.97287 0.51940 0.01300
C 	C 	0.47324 0.99597 0.52926 0.01400
C 	C 	0.52562 0.98102 0.47294 -0.05400
C 	C 	0.51970 0.01187 0.43606 0.01300
C 	C 	0.46739 0.02688 0.49252 -0.05500
C 	C 	0.49036 0.03494 0.44587 0.01300
H 	H 	0.44507 0.04452 0.50010 0.05200
H 	H 	0.54797 0.96342 0.46546 0.05200
C 	C 	0.48502 0.06595 0.40863 -0.01600
C 	C 	0.50685 0.07313 0.35981 0.00700
C 	C 	0.49087 0.09488 0.31319 -0.03800
C 	C 	0.45654 0.10365 0.32483 -0.01900
S 	S 	0.44691 0.08453 0.39132 0.01500
H 	H 	0.50236 0.09972 0.26926 0.04800
C 	C 	0.54270 0.02080 0.38958 -0.01700
C 	C 	0.53596 0.05035 0.35026 0.00700
C 	C 	0.55324 0.04674 0.29320 -0.03900
C 	C 	0.57274 0.01413 0.28778 -0.02000
S 	S 	0.56784 0.99068 0.35214 0.01600
H 	H 	0.54922 0.06534 0.25545 0.04800
C 	C 	0.48559 0.93416 0.60445 0.00700
C 	C 	0.50765 0.94160 0.55612 -0.01600
S 	S 	0.54559 0.92261 0.57343 0.01500
C 	C 	0.53557 0.90291 0.63926 -0.01900
C 	C 	0.50125 0.91186 0.65069 -0.03800
C 	C 	0.45008 0.98689 0.57538 -0.01700
C 	C 	0.45657 0.95704 0.61419 0.00800
C 	C 	0.43915 0.96039 0.67114 -0.03900
C 	C 	0.41979 0.99306 0.67698 -0.01800
S 	S 	0.42499 0.01690 0.61313 0.01600
H 	H 	0.44300 0.94154 0.70859 0.04800
H 	H 	0.48955 0.90668 0.69431 0.04800
Zn	Zn	0.62139 0.88729 0.98225 1.22000
C 	C 	0.68148 0.92889 0.97286 0.32700
O 	O 	0.61877 0.91640 0.05761 -0.43000
O 	O 	0.66218 0.95874 0.97806 -0.44500
O 	O 	0.58834 0.96226 0.01051 -0.49000
C 	C 	0.60952 0.90600 0.85518 0.29000
O 	O 	0.59973 0.88666 0.90179 -0.45100
O 	O 	0.62591 0.93554 0.86475 -0.47700
C 	C 	0.60004 0.94672 0.06065 0.29700
O 	O 	0.57522 0.85414 0.01672 -0.32300
Zn	Zn	0.61560 0.96447 0.93663 1.17300
O 	O 	0.66802 0.89810 0.95781 -0.44100
C 	C 	0.59740 0.82738 0.02423 0.28900
O 	O 	0.62835 0.83487 0.01107 -0.38100
Zn	Zn	0.11588 0.60076 0.02625 1.22100
C 	C 	0.07008 0.65920 0.98607 0.33100
O 	O 	0.10230 0.59119 0.11151 -0.44300
O 	O 	0.05027 0.63355 0.96815 -0.44400
O 	O 	0.04872 0.61548 0.09980 -0.47500
C 	C 	0.08600 0.55734 0.93510 0.29800
O 	O 	0.10592 0.58435 0.94373 -0.43500
O 	O 	0.06225 0.55093 0.97507 -0.49300
C 	C 	0.07445 0.60617 0.13516 0.28900
O 	O 	0.15569 0.55115 0.03130 -0.32100
Zn	Zn	0.04135 0.58996 0.02394 1.17200
O 	O 	0.09747 0.65089 0.01825 -0.43400
C 	C 	0.17825 0.57566 0.03309 0.29200
O 	O 	0.16644 0.60897 0.03207 -0.38400
C 	C 	0.98177 0.49841 0.48120 0.01300
C 	C 	0.01037 0.52006 0.48822 0.01400
C 	C 	0.97913 0.46674 0.51623 -0.05500
C 	C 	0.00370 0.45752 0.56074 0.01400
C 	C 	0.03573 0.50998 0.53081 -0.05400
C 	C 	0.03214 0.47937 0.56829 0.01300
H 	H 	0.05768 0.52636 0.53582 0.05300
H 	H 	0.95762 0.44987 0.50998 0.05200
C 	C 	0.05610 0.47016 0.61429 -0.01600
C 	C 	0.05132 0.44123 0.65479 0.00800
C 	C 	0.06863 0.44518 0.71144 -0.03900
C 	C 	0.08553 0.47769 0.71618 -0.01900
S 	S 	0.07916 0.50021 0.65077 0.01600
H 	H 	0.06615 0.42693 0.74968 0.04800
C 	C 	0.00019 0.42725 0.59940 -0.01500
C 	C 	0.02299 0.41973 0.64752 0.00700
C 	C 	0.00833 0.39994 0.69624 -0.03800
C 	C 	0.97399 0.39337 0.68728 -0.02000
S 	S 	0.96293 0.41142 0.61995 0.01400
H 	H 	0.02070 0.39511 0.73970 0.04800
C 	C 	0.95732 0.54248 0.40745 0.00700
C 	C 	0.95543 0.51030 0.44139 -0.01700
S 	S 	0.93103 0.48262 0.40253 0.01800
C 	C 	0.92045 0.51019 0.34448 -0.02000
C 	C 	0.93705 0.54258 0.35351 -0.03800
C 	C 	0.01155 0.55285 0.45517 -0.01600
C 	C 	0.98543 0.56421 0.41504 0.00700
C 	C 	0.99614 0.58937 0.37035 -0.03800
C 	C 	0.03072 0.59607 0.37368 -0.01800
S 	S 	0.04712 0.57116 0.43115 0.01700
H 	H 	0.98049 0.59872 0.33247 0.04700
H 	H 	0.93734 0.56367 0.31922 0.04700
Zn	Zn	0.88263 0.39666 0.02838 1.22100
C 	C 	0.82090 0.43887 0.00131 0.33400
O 	O 	0.90960 0.39457 0.95256 -0.45200
O 	O 	0.83775 0.46822 0.01129 -0.45500
O 	O 	0.88293 0.44383 0.90902 -0.48000
C 	C 	0.89606 0.45513 0.10911 0.29800
O 	O 	0.87797 0.42646 0.10168 -0.43600
O 	O 	0.90947 0.47085 0.06162 -0.49700
C 	C 	0.90065 0.41310 0.90355 0.28900
O 	O 	0.92754 0.36435 0.07866 -0.31600
Zn	Zn	0.88698 0.47267 0.98253 1.17000
O 	O 	0.83721 0.40723 0.99427 -0.43600
C 	C 	0.90848 0.33666 0.07457 0.29000
O 	O 	0.87915 0.34330 0.04956 -0.38500
C 	C 	0.93221 0.01602 0.03537 -0.04200
C 	C 	0.94905 0.04787 0.04586 -0.03900
C 	C 	0.95040 0.98382 0.01839 0.00900
C 	C 	0.98629 0.98352 0.01524 -0.00900
C 	C 	0.00339 0.01590 0.02564 -0.00300
C 	C 	0.98460 0.04845 0.03977 0.00500
C 	C 	0.00511 0.95082 0.00225 0.01300
C 	C 	0.04079 0.95096 0.99928 -0.04500
C 	C 	0.03927 0.01565 0.02219 0.00500
C 	C 	0.00182 0.08094 0.04829 -0.00600
C 	C 	0.03722 0.08049 0.04442 -0.04800
C 	C 	0.05609 0.04839 0.03136 -0.00700
C 	C 	0.93346 0.95159 0.00546 -0.00800
C 	C 	0.95233 0.91946 0.99252 -0.04600
C 	C 	0.98781 0.91852 0.99240 -0.01200
C 	C 	0.98314 0.11608 0.05796 0.01000
C 	C 	0.96891 0.13503 0.00797 -0.04000
C 	C 	0.95527 0.17037 0.01549 -0.04200
C 	C 	0.95598 0.18709 0.07297 0.01600
C 	C 	0.96913 0.16770 0.12341 -0.03900
C 	C 	0.98266 0.13228 0.11594 -0.04200
C 	C 	0.09344 0.04973 0.02684 0.01300
C 	C 	0.11276 0.05499 0.07958 -0.04300
C 	C 	0.14766 0.05942 0.07498 -0.03800
C 	C 	0.10931 0.04887 0.96942 -0.04300
C 	C 	0.14435 0.05254 0.96495 -0.04100
C 	C 	0.16365 0.05783 0.01773 0.01600
C 	C 	0.89598 0.95091 0.00504 0.01500
C 	C 	0.87918 0.93154 0.05026 -0.04400
C 	C 	0.84422 0.92734 0.04623 -0.03800
C 	C 	0.82574 0.94269 0.99721 0.01300
C 	C 	0.84233 0.96307 0.95308 -0.03700
C 	C 	0.87740 0.96668 0.95644 -0.04600
C 	C 	0.00637 0.88306 0.98578 0.01200
C 	C 	0.00821 0.86589 0.92865 -0.04300
C 	C 	0.02157 0.83024 0.92385 -0.04200
C 	C 	0.03353 0.81169 0.97605 0.00900
C 	C 	0.03264 0.82929 0.03285 -0.04100
C 	C 	0.01913 0.86484 0.03769 -0.04200
C 	C 	0.05763 0.98276 0.01005 -0.03600
H 	H 	0.96920 0.12269 0.96306 0.04000
H 	H 	0.94491 0.18510 0.97640 0.03900
H 	H 	0.96965 0.18040 0.16799 0.04300
H 	H 	0.99360 0.11778 0.15477 0.04100
H 	H 	0.82809 0.97592 0.91608 0.03800
H 	H 	0.89017 0.98156 0.92120 0.04100
H 	H 	0.83154 0.91190 0.08086 0.04000
H 	H 	0.89334 0.91917 0.08782 0.04100
H 	H 	0.99832 0.87978 0.88837 0.04000
H 	H 	0.02180 0.81670 0.87994 0.04000
H 	H 	0.01769 0.87789 0.08200 0.04200
H 	H 	0.04152 0.81502 0.07348 0.04100
H 	H 	0.10062 0.05627 0.12398 0.04100
H 	H 	0.16222 0.06440 0.11578 0.04000
H 	H 	0.09450 0.04539 0.92838 0.04100
H 	H 	0.15648 0.05147 0.92053 0.04200
H 	H 	0.90496 0.01650 0.04132 0.04200
H 	H 	0.93428 0.07200 0.05939 0.04100
H 	H 	0.05021 0.10554 0.05069 0.04500
H 	H 	0.08508 0.98156 0.00899 0.04200
H 	H 	0.05571 0.92645 0.98837 0.04200
H 	H 	0.93926 0.89474 0.98365 0.04400
C 	C 	0.92265 0.29918 0.08064 -0.09100
C 	C 	0.95421 0.28887 0.05398 0.10100
C 	C 	0.96555 0.25223 0.05434 -0.08800
C 	C 	0.94527 0.22571 0.07920 0.00100
C 	C 	0.91404 0.23598 0.10666 0.04100
C 	C 	0.90299 0.27275 0.10763 -0.02000
H 	H 	0.98969 0.24429 0.03348 0.05300
H 	H 	0.87872 0.28059 0.12812 0.04600
N 	N 	0.97414 0.31550 0.02429 -0.13500
N 	N 	0.89325 0.20884 0.13266 -0.13600
C 	C 	0.96894 0.31488 0.95814 -0.09500
H 	H 	0.97821 0.28844 0.93848 0.05000
H 	H 	0.98329 0.33678 0.93676 0.06400
H 	H 	0.94163 0.31988 0.94695 0.07000
C 	C 	0.86651 0.19941 0.09003 -0.09200
H 	H 	0.84891 0.22325 0.08106 0.05000
H 	H 	0.85172 0.17745 0.11015 0.04900
H 	H 	0.87768 0.18924 0.04628 0.05300
H 	H 	0.99989 0.31101 0.03459 0.08100
H 	H 	0.88265 0.21794 0.17406 0.07700
C 	C 	0.95019 0.39238 0.73884 0.11300
N 	N 	0.92297 0.41628 0.74113 -0.08700
N 	N 	0.90580 0.42143 0.79308 -0.06600
C 	C 	0.91521 0.40266 0.84412 0.02400
N 	N 	0.94115 0.37725 0.84089 -0.06600
N 	N 	0.95847 0.37228 0.78907 -0.08800
C 	C 	0.90127 0.46983 0.17042 0.02900
N 	N 	0.89279 0.45068 0.22076 -0.05800
N 	N 	0.89837 0.46381 0.27643 -0.08300
C 	C 	0.91237 0.49656 0.28323 0.11400
N 	N 	0.92025 0.51593 0.23281 -0.09000
N 	N 	0.91490 0.50270 0.17726 -0.07100
C 	C 	0.05950 0.69758 0.97662 -0.10900
C 	C 	0.02668 0.71055 0.99360 0.10600
C 	C 	0.01834 0.74792 0.99159 -0.09000
C 	C 	0.04238 0.77246 0.97294 0.00000
C 	C 	0.07504 0.75936 0.95418 0.03800
C 	C 	0.08324 0.72199 0.95595 -0.00800
H 	H 	0.99333 0.75793 0.00600 0.05400
H 	H 	0.10841 0.71202 0.94244 0.04800
N 	N 	0.00241 0.68582 0.01630 -0.15000
N 	N 	0.10022 0.78375 0.93373 -0.13600
C 	C 	0.97648 0.67943 0.97030 -0.09400
H 	H 	0.96086 0.70470 0.96098 0.04400
H 	H 	0.95949 0.65849 0.98747 0.02700
H 	H 	0.98835 0.66920 0.92718 0.05000
C 	C 	0.11990 0.79698 0.98505 -0.09500
H 	H 	0.10358 0.81360 0.01666 0.05100
H 	H 	0.14008 0.81421 0.96737 0.04900
H 	H 	0.13235 0.77388 0.01040 0.05700
H 	H 	0.99115 0.69588 0.05655 0.07700
H 	H 	0.08972 0.80525 0.90776 0.07800
C 	C 	0.08955 0.49642 0.77498 0.11300
N 	N 	0.07573 0.48290 0.82657 -0.08800
N 	N 	0.07556 0.50192 0.87825 -0.06600
C 	C 	0.08958 0.53482 0.88012 0.02900
N 	N 	0.10454 0.54779 0.82919 -0.05900
N 	N 	0.10441 0.52891 0.77724 -0.08400
C 	C 	0.07070 0.60945 0.20150 0.03000
N 	N 	0.04868 0.63509 0.22507 -0.06300
N 	N 	0.03867 0.63306 0.28302 -0.08600
C 	C 	0.05010 0.60511 0.31895 0.11400
N 	N 	0.07405 0.58096 0.29666 -0.08300
N 	N 	0.08427 0.58316 0.23874 -0.06200
C 	C 	0.78891 0.93780 0.99254 0.00200
C 	C 	0.77611 0.91346 0.94968 0.03600
C 	C 	0.74090 0.90959 0.94524 -0.01500
C 	C 	0.71844 0.93024 0.98253 -0.11100
C 	C 	0.73144 0.95330 0.02742 0.10600
C 	C 	0.76661 0.95712 0.03180 -0.09100
H 	H 	0.73108 0.89097 0.91206 0.04600
H 	H 	0.77655 0.97513 0.06585 0.05200
N 	N 	0.79907 0.89151 0.91247 -0.13500
N 	N 	0.70883 0.97234 0.06935 -0.13700
C 	C 	0.79805 0.90354 0.84875 -0.09200
H 	H 	0.77323 0.89797 0.82752 0.04800
H 	H 	0.81835 0.88850 0.82276 0.04900
H 	H 	0.80260 0.93300 0.84528 0.05000
C 	C 	0.70567 0.95175 0.12604 -0.09300
H 	H 	0.69580 0.92454 0.11654 0.06400
H 	H 	0.68735 0.96645 0.15677 0.06100
H 	H 	0.73054 0.94865 0.14982 0.04800
H 	H 	0.79320 0.86416 0.91549 0.07600
H 	H 	0.71718 0.99832 0.07858 0.07700
C 	C 	0.59583 0.89905 0.79426 0.02400
N 	N 	0.60404 0.92042 0.74645 -0.06600
N 	N 	0.58648 0.91948 0.69455 -0.08600
C 	C 	0.56010 0.89731 0.68912 0.11300
N 	N 	0.55319 0.87445 0.73567 -0.08600
N 	N 	0.57089 0.87521 0.78741 -0.06100
C 	C 	0.58041 0.99668 0.22858 0.11400
N 	N 	0.59758 0.96391 0.22615 -0.08500
N 	N 	0.60374 0.94777 0.17252 -0.06000
C 	C 	0.59272 0.96387 0.11991 0.02800
N 	N 	0.57577 0.99669 0.12237 -0.06700
N 	N 	0.56976 0.01289 0.17587 -0.08900
C 	C 	0.27111 0.06992 0.00388 -0.10600
C 	C 	0.24823 0.09854 0.98593 0.10500
C 	C 	0.21308 0.09419 0.99046 -0.09200
C 	C 	0.20061 0.06180 0.01304 0.00500
C 	C 	0.22335 0.03315 0.03038 0.03600
C 	C 	0.25845 0.03726 0.02535 -0.01300
H 	H 	0.19552 0.11598 0.97601 0.05300
H 	H 	0.27585 0.01498 0.03831 0.03400
N 	N 	0.26070 0.13129 0.96009 -0.13800
N 	N 	0.21063 0.99909 0.05019 -0.13500
C 	C 	0.25704 0.16144 0.00340 -0.08800
H 	H 	0.22982 0.16908 0.01150 0.04700
H 	H 	0.26949 0.18536 0.98429 0.05500
H 	H 	0.26957 0.15424 0.04753 0.06500
C 	C 	0.21618 0.99350 0.11568 -0.09100
H 	H 	0.24368 0.98924 0.12584 0.04400
H 	H 	0.20307 0.96899 0.13049 0.04800
H 	H 	0.20558 0.01701 0.14238 0.05000
H 	H 	0.24792 0.13782 0.91939 0.07900
H 	H 	0.22214 0.97766 0.02528 0.07500
C 	C 	0.39843 0.04171 0.84567 0.02900
N 	N 	0.41654 0.00958 0.84262 -0.06800
N 	N 	0.42313 0.99397 0.78884 -0.08800
C 	C 	0.41197 0.01013 0.73641 0.11400
N 	N 	0.39383 0.04231 0.73938 -0.08300
N 	N 	0.38706 0.05784 0.79331 -0.05800
C 	C 	0.43183 0.10848 0.27509 0.11300
N 	N 	0.40578 0.08581 0.27038 -0.08600
N 	N 	0.38805 0.08428 0.21875 -0.06600
C 	C 	0.39573 0.10554 0.17049 0.02500
N 	N 	0.42037 0.12981 0.17656 -0.06100
N 	N 	0.43826 0.13115 0.22803 -0.08600
C 	C 	0.42411 0.28611 0.93591 0.00000
C 	C 	0.39645 0.27759 0.97308 0.04100
C 	C 	0.38513 0.24203 0.97381 -0.02300
C 	C 	0.40109 0.21486 0.93754 -0.09000
C 	C 	0.42817 0.22370 0.89888 0.09800
C 	C 	0.43934 0.25942 0.89800 -0.08700
H 	H 	0.36419 0.23552 0.00334 0.05100
H 	H 	0.45995 0.26629 0.86797 0.05200
N 	N 	0.37976 0.30529 0.01010 -0.13500
N 	N 	0.44339 0.19673 0.85862 -0.13600
C 	C 	0.34925 0.32025 0.97959 -0.09400
H 	H 	0.35578 0.33195 0.93449 0.05300
H 	H 	0.33753 0.34239 0.00800 0.05000
H 	H 	0.33039 0.29902 0.97342 0.04900
C 	C 	0.47735 0.18500 0.87969 -0.08900
H 	H 	0.49516 0.20741 0.87558 0.04500
H 	H 	0.48709 0.16197 0.85106 0.05400
H 	H 	0.47661 0.17553 0.92789 0.06500
H 	H 	0.37363 0.29495 0.05306 0.07800
H 	H 	0.44452 0.20692 0.81407 0.07900
C 	C 	0.21468 0.56635 0.02547 -0.09100
C 	C 	0.22599 0.54061 0.98148 0.10000
C 	C 	0.26087 0.53240 0.97457 -0.08900
C 	C 	0.28449 0.54961 0.01103 0.00100
C 	C 	0.27327 0.57598 0.05387 0.04100
C 	C 	0.23837 0.58416 0.06097 -0.02100
H 	H 	0.26957 0.51261 0.94076 0.05300
H 	H 	0.22974 0.60434 0.09418 0.04700
N 	N 	0.20206 0.52434 0.94145 -0.13500
N 	N 	0.29749 0.59473 0.08977 -0.13600
C 	C 	0.19745 0.48643 0.95816 -0.09200
H 	H 	0.22108 0.46956 0.94975 0.04700
H 	H 	0.17686 0.47565 0.92988 0.06000
H 	H 	0.18996 0.48422 0.00695 0.06700
C 	C 	0.30413 0.62990 0.06236 -0.09200
H 	H 	0.31405 0.62627 0.01510 0.05400
H 	H 	0.32367 0.64330 0.08971 0.04900
H 	H 	0.28071 0.64789 0.06175 0.05100
H 	H 	0.21005 0.52612 0.89599 0.08300
H 	H 	0.28886 0.59817 0.13471 0.07700
C 	C 	0.71257 0.45131 0.99006 0.00300
C 	C 	0.73037 0.47039 0.03452 0.03700
C 	C 	0.76576 0.46540 0.03869 -0.01300
C 	C 	0.78354 0.44148 0.99904 -0.11400
C 	C 	0.76562 0.42186 0.95523 0.10700
C 	C 	0.73015 0.42666 0.95144 -0.09300
H 	H 	0.77946 0.48066 0.07219 0.04300
H 	H 	0.71644 0.41207 0.91709 0.05300
N 	N 	0.71258 0.49660 0.07295 -0.13500
N 	N 	0.78366 0.39808 0.91299 -0.13600
C 	C 	0.71062 0.48345 0.13588 -0.09200
H 	H 	0.69949 0.45630 0.13750 0.05200
H 	H 	0.69397 0.50256 0.16278 0.04900
H 	H 	0.73615 0.48192 0.15743 0.04900
C 	C 	0.78929 0.41664 0.85503 -0.09000
H 	H 	0.76475 0.42428 0.83242 0.04500
H 	H 	0.80427 0.39818 0.82415 0.05700
H 	H 	0.80398 0.44129 0.86242 0.05600
H 	H 	0.72446 0.52141 0.07159 0.07500
H 	H 	0.77041 0.37449 0.90571 0.08000
C 	C 	0.58682 0.78930 0.02945 -0.08900
C 	C 	0.61074 0.76046 0.04170 0.09900
C 	C 	0.60057 0.72439 0.03989 -0.08700
C 	C 	0.56709 0.71678 0.02521 -0.00000
C 	C 	0.54286 0.74542 0.01609 0.04200
C 	C 	0.55271 0.78153 0.01914 -0.02400
H 	H 	0.61892 0.70229 0.04909 0.05200
H 	H 	0.53388 0.80345 0.01214 0.05200
N 	N 	0.64501 0.76790 0.05839 -0.13400
N 	N 	0.50791 0.73774 0.00544 -0.13500
C 	C 	0.66866 0.75819 0.00883 -0.08600
H 	H 	0.67057 0.72828 0.00199 0.04400
H 	H 	0.69421 0.76742 0.02074 0.05300
H 	H 	0.66059 0.77176 0.96551 0.06100
C 	C 	0.49857 0.74433 0.94158 -0.09300
H 	H 	0.49918 0.77371 0.93032 0.05100
H 	H 	0.47241 0.73545 0.93386 0.04900
H 	H 	0.51587 0.72850 0.91042 0.05300
H 	H 	0.65198 0.75380 0.09830 0.07800
H 	H 	0.49206 0.75347 0.03438 0.07700
