data_crystal

_cell_length_a 26.08240
_cell_length_b 26.59865
_cell_length_c 34.84163
_cell_angle_alpha 95.47492
_cell_angle_beta  95.47144
_cell_angle_gamma 125.75416

_symmetry_space_group_name_	'P 1'
_symmetry_space_group_name_H-M	'P 1'

loop_
_symmetry_equiv_pos_as_xyz
  x,y,z

loop_
_atom_site_label
_atom_site_type_symbol
_atom_site_fract_x
_atom_site_fract_y
_atom_site_fract_z
_atom_site_charge
C 	C 	0.95661 0.03597 0.99132 0.25200
C 	C 	0.92113 0.97438 0.99879 -0.14800
C 	C 	0.94913 0.94289 0.00115 0.26700
C 	C 	0.01355 0.97384 0.99756 -0.14200
C 	C 	0.04943 0.03550 0.99011 0.24900
C 	C 	0.02090 0.06665 0.98701 -0.13500
H 	H 	0.87120 0.95033 0.00158 0.16500
H 	H 	0.03524 0.94943 0.99951 0.15900
H 	H 	0.04818 0.11399 0.98070 0.16100
C 	C 	0.93620 0.98585 0.45838 0.25500
C 	C 	0.00304 0.02404 0.46045 -0.14300
C 	C 	0.03677 0.99821 0.46411 0.25800
C 	C 	0.00361 0.93399 0.46521 -0.13800
C 	C 	0.93697 0.89568 0.46382 0.24800
C 	C 	0.90319 0.92168 0.46036 -0.13300
H 	H 	0.02875 0.07378 0.45954 0.16000
H 	H 	0.02973 0.91395 0.46756 0.15800
H 	H 	0.85168 0.89228 0.45935 0.16300
Cu	Cu	0.64018 0.26147 0.99926 0.93400
Cu	Cu	0.67860 0.25682 0.91280 0.91200
Cu	Cu	0.66081 0.36173 0.95284 0.92600
Cu	Cu	0.62181 0.36464 0.03045 0.91800
C 	C 	0.65148 0.29848 0.08212 0.31300
O 	O 	0.54386 0.21222 0.99792 -0.31300
C 	C 	0.68601 0.35210 0.87696 0.31600
O 	O 	0.67968 0.35778 0.00652 -0.63200
O 	O 	0.62852 0.27146 0.94393 -0.62300
O 	O 	0.69676 0.23321 0.99708 -0.33100
O 	O 	0.65977 0.18572 0.93276 -0.36900
O 	O 	0.61555 0.31716 0.07298 -0.34100
O 	O 	0.69806 0.45028 0.96322 -0.32600
C 	C 	0.69480 0.47934 0.99475 0.38600
C 	C 	0.51242 0.23433 0.98584 0.38200
O 	O 	0.54431 0.29404 0.98307 -0.35200
O 	O 	0.65126 0.44767 0.01662 -0.32200
O 	O 	0.66148 0.26861 0.05485 -0.30400
C 	C 	0.69005 0.19371 0.96760 0.40700
O 	O 	0.65315 0.36370 0.89734 -0.33100
O 	O 	0.71982 0.33549 0.89387 -0.38100
H 	H 	0.72549 0.38888 0.01915 0.20100
H 	H 	0.58291 0.24335 0.93060 0.19300
Cu	Cu	0.73570 0.32339 0.44929 0.93800
Cu	Cu	0.74395 0.28165 0.53371 0.90000
Cu	Cu	0.64287 0.29485 0.50575 0.91300
Cu	Cu	0.61134 0.31560 0.42580 0.92000
C 	C 	0.68987 0.31265 0.36854 0.32300
O 	O 	0.77321 0.41462 0.44710 -0.31800
C 	C 	0.69421 0.31823 0.59049 0.31400
O 	O 	0.63680 0.27181 0.45076 -0.63600
O 	O 	0.73641 0.33753 0.50617 -0.63200
O 	O 	0.78182 0.28428 0.44988 -0.31700
O 	O 	0.72156 0.21925 0.49034 -0.38700
O 	O 	0.63824 0.30839 0.37486 -0.33400
O 	O 	0.55074 0.24709 0.50220 -0.33300
C 	C 	0.51211 0.24808 0.47540 0.40400
C 	C 	0.74480 0.43955 0.45852 0.38000
O 	O 	0.68624 0.40318 0.46549 -0.34100
O 	O 	0.53481 0.28741 0.45048 -0.32700
O 	O 	0.71879 0.29836 0.39357 -0.33200
C 	C 	0.75970 0.23316 0.46480 0.39600
O 	O 	0.65022 0.31103 0.56320 -0.33800
O 	O 	0.74508 0.32367 0.58165 -0.36500
H 	H 	0.60949 0.22577 0.44074 0.21000
H 	H 	0.76413 0.38217 0.51975 0.21100
C 	C 	0.74408 0.39145 0.78134 -0.10100
C 	C 	0.68556 0.35562 0.75460 0.01600
C 	C 	0.62729 0.32473 0.76856 0.14000
C 	C 	0.62786 0.32667 0.80894 -0.02500
C 	C 	0.68632 0.35899 0.83553 -0.10300
C 	C 	0.74470 0.39284 0.82167 0.20900
C 	C 	0.68540 0.34477 0.71224 0.01800
O 	O 	0.56972 0.28960 0.74269 -0.24100
H 	H 	0.58274 0.30086 0.81941 0.09100
O 	O 	0.80232 0.42825 0.84751 -0.24400
H 	H 	0.78912 0.41646 0.77076 0.10600
C 	C 	0.67586 0.37821 0.68718 0.13800
C 	C 	0.67724 0.36832 0.64715 -0.01700
C 	C 	0.68936 0.32607 0.63211 -0.09600
C 	C 	0.69803 0.29208 0.65717 0.20700
C 	C 	0.69637 0.30180 0.69706 -0.09700
O 	O 	0.66437 0.41987 0.70163 -0.23900
H 	H 	0.67015 0.39439 0.62801 0.10200
O 	O 	0.70889 0.24988 0.64279 -0.26700
H 	H 	0.70366 0.27590 0.71626 0.10300
H 	H 	0.81558 0.40026 0.84940 0.18700
H 	H 	0.70739 0.46109 0.70977 0.18600
H 	H 	0.66565 0.20889 0.63463 0.18000
H 	H 	0.55882 0.31904 0.73894 0.19400
C 	C 	0.74130 0.33015 0.18374 -0.09300
C 	C 	0.69046 0.30040 0.20441 0.01600
C 	C 	0.62662 0.26542 0.18411 0.14500
C 	C 	0.61412 0.26317 0.14380 -0.02000
C 	C 	0.66498 0.29510 0.12336 -0.08500
C 	C 	0.72877 0.32771 0.14329 0.20200
C 	C 	0.70402 0.31024 0.24763 0.02000
O 	O 	0.57652 0.23601 0.20402 -0.23700
H 	H 	0.56486 0.23749 0.12853 0.11400
O 	O 	0.77885 0.35755 0.12341 -0.24800
H 	H 	0.79054 0.35652 0.19918 0.10800
C 	C 	0.70131 0.26437 0.26636 0.13600
C 	C 	0.70116 0.26759 0.30673 -0.01600
C 	C 	0.70387 0.31655 0.32855 -0.09200
C 	C 	0.71174 0.36502 0.31031 0.21300
C 	C 	0.71162 0.36163 0.26997 -0.09400
O 	O 	0.69474 0.21432 0.24486 -0.23900
H 	H 	0.69579 0.23041 0.32064 0.10000
O 	O 	0.71617 0.41405 0.33149 -0.25800
H 	H 	0.71469 0.39758 0.25575 0.11100
H 	H 	0.79157 0.40100 0.12513 0.17300
H 	H 	0.73929 0.22826 0.24492 0.18900
H 	H 	0.76286 0.44722 0.34105 0.21400
H 	H 	0.56461 0.19298 0.20324 0.19300
C 	C 	0.84732 0.60756 0.44120 0.23400
C 	C 	0.82892 0.63593 0.46684 0.00500
C 	C 	0.78740 0.60121 0.49211 0.23700
C 	C 	0.76329 0.53825 0.49118 0.31500
C 	C 	0.77875 0.50859 0.46398 -0.20200
C 	C 	0.82208 0.54411 0.43956 0.31500
C 	C 	0.85303 0.70202 0.46714 -0.00600
F 	F 	0.76979 0.62833 0.51728 -0.32000
F 	F 	0.83839 0.51678 0.41350 -0.37400
C 	C 	0.83336 0.71812 0.43454 0.25100
C 	C 	0.85867 0.78115 0.43405 0.29500
C 	C 	0.90300 0.82845 0.46647 -0.15700
C 	C 	0.92020 0.81184 0.49982 0.29500
C 	C 	0.89601 0.74907 0.49995 0.25200
F 	F 	0.79039 0.67276 0.40312 -0.32600
F 	F 	0.96164 0.85689 0.53174 -0.33700
F 	F 	0.84174 0.79654 0.40162 -0.34400
F 	F 	0.91525 0.73407 0.53166 -0.32100
F 	F 	0.88912 0.64135 0.41754 -0.32700
F 	F 	0.72476 0.50597 0.51669 -0.36500
C 	C 	0.86620 0.06461 0.41766 0.25200
C 	C 	0.84877 0.08050 0.45106 -0.00400
C 	C 	0.85584 0.06121 0.48608 0.24800
C 	C 	0.88193 0.02789 0.48802 0.29700
C 	C 	0.90119 0.01365 0.45495 -0.16300
C 	C 	0.89230 0.03129 0.41958 0.29900
C 	C 	0.82529 0.11928 0.44985 0.00700
F 	F 	0.83873 0.07601 0.51846 -0.33000
F 	F 	0.91011 0.01715 0.38733 -0.33600
C 	C 	0.75923 0.09073 0.44579 0.23600
C 	C 	0.73743 0.12792 0.44854 0.31800
C 	C 	0.78161 0.19407 0.45547 -0.20900
C 	C 	0.84752 0.22247 0.45768 0.31600
C 	C 	0.86923 0.18519 0.45493 0.23400
F 	F 	0.71626 0.02697 0.43999 -0.32300
F 	F 	0.89081 0.28626 0.46437 -0.36200
F 	F 	0.67345 0.09975 0.44500 -0.36100
F 	F 	0.93318 0.21318 0.45844 -0.32500
F 	F 	0.85872 0.08229 0.38352 -0.32100
F 	F 	0.89033 0.01111 0.52234 -0.34500
C 	C 	0.33972 0.11396 0.47619 0.23600
C 	C 	0.31104 0.14512 0.47648 0.00700
C 	C 	0.34911 0.21064 0.47861 0.23700
C 	C 	0.41519 0.24463 0.47941 0.32300
C 	C 	0.44372 0.21326 0.47798 -0.20200
C 	C 	0.40588 0.14793 0.47703 0.31900
C 	C 	0.24090 0.10892 0.47351 -0.00400
F 	F 	0.32187 0.24125 0.47960 -0.32000
F 	F 	0.43290 0.11713 0.47570 -0.36500
C 	C 	0.21348 0.09199 0.50711 0.25100
C 	C 	0.14683 0.05696 0.50418 0.29900
C 	C 	0.10717 0.03866 0.46760 -0.16500
C 	C 	0.13469 0.05634 0.43409 0.29900
C 	C 	0.20134 0.09133 0.43702 0.25000
F 	F 	0.25147 0.10934 0.54256 -0.32400
F 	F 	0.09668 0.03869 0.39860 -0.33800
F 	F 	0.12062 0.04036 0.53678 -0.33700
F 	F 	0.22754 0.10768 0.40439 -0.32300
F 	F 	0.30325 0.05061 0.47439 -0.32500
F 	F 	0.45163 0.30809 0.48172 -0.34800
C 	C 	0.83295 0.65092 0.00388 0.23600
C 	C 	0.80191 0.67942 0.00790 0.00600
C 	C 	0.73627 0.64249 0.00981 0.24000
C 	C 	0.70134 0.57714 0.00638 0.32200
C 	C 	0.73202 0.54834 0.00120 -0.19600
C 	C 	0.79818 0.58566 0.00058 0.32100
C 	C 	0.83690 0.74697 0.00692 0.00200
F 	F 	0.70606 0.66985 0.01399 -0.31800
F 	F 	0.82864 0.55851 0.99658 -0.37500
C 	C 	0.83051 0.76616 0.97176 0.24400
C 	C 	0.86656 0.83023 0.97007 0.29700
C 	C 	0.90930 0.87562 0.00353 -0.16100
C 	C 	0.91504 0.85651 0.03888 0.30000
C 	C 	0.87887 0.79233 0.04058 0.25000
F 	F 	0.79015 0.72253 0.93906 -0.32400
F 	F 	0.95590 0.90016 0.07144 -0.34100
F 	F 	0.86090 0.84837 0.93574 -0.33400
F 	F 	0.88500 0.77411 0.07476 -0.32100
F 	F 	0.89654 0.68642 0.00226 -0.32400
F 	F 	0.63729 0.54160 0.00664 -0.34600
C 	C 	0.76514 0.11636 0.00226 0.24900
C 	C 	0.81169 0.13512 0.97844 -0.00100
C 	C 	0.81836 0.17342 0.95131 0.23700
C 	C 	0.77816 0.19200 0.94754 0.31600
C 	C 	0.73118 0.17281 0.97109 -0.21000
C 	C 	0.72529 0.13551 0.99877 0.31400
C 	C 	0.85162 0.11253 0.98070 -0.01000
F 	F 	0.86385 0.19256 0.92859 -0.32800
F 	F 	0.68040 0.11713 0.02187 -0.35000
C 	C 	0.83960 0.06597 0.95055 0.25000
C 	C 	0.87643 0.04348 0.95301 0.29300
C 	C 	0.92503 0.06675 0.98589 -0.16700
C 	C 	0.93828 0.11459 0.01552 0.30200
C 	C 	0.90180 0.13755 0.01288 0.25500
F 	F 	0.79148 0.04181 0.91920 -0.32400
F 	F 	0.98525 0.13750 0.04738 -0.33800
F 	F 	0.86392 0.99789 0.92392 -0.33500
F 	F 	0.91468 0.18357 0.04176 -0.32200
F 	F 	0.75808 0.07900 0.02842 -0.32300
F 	F 	0.78558 0.22966 0.92151 -0.40300
C 	C 	0.23102 0.14236 0.00987 0.25500
C 	C 	0.24377 0.11510 0.97927 -0.01000
C 	C 	0.19271 0.06492 0.95054 0.25200
C 	C 	0.12930 0.04110 0.95294 0.29300
C 	C 	0.11635 0.06655 0.98449 -0.16400
C 	C 	0.16754 0.11794 0.01260 0.30200
C 	C 	0.31055 0.13859 0.97769 0.00100
F 	F 	0.20456 0.03857 0.92069 -0.32200
F 	F 	0.15563 0.14297 0.04317 -0.33800
C 	C 	0.34392 0.12783 0.00566 0.24000
C 	C 	0.40927 0.15585 0.00686 0.32300
C 	C 	0.44161 0.19439 0.97977 -0.21000
C 	C 	0.40692 0.20141 0.95009 0.31700
C 	C 	0.34186 0.17416 0.94931 0.23600
F 	F 	0.31343 0.09172 0.03242 -0.32400
F 	F 	0.43677 0.23601 0.92259 -0.37000
F 	F 	0.44188 0.14828 0.03561 -0.36100
F 	F 	0.30967 0.18382 0.92166 -0.32200
F 	F 	0.28018 0.19195 0.03723 -0.32500
F 	F 	0.08024 0.99242 0.92507 -0.34100
