data_crystal

_cell_length_a 26.01164
_cell_length_b 26.52548
_cell_length_c 26.45615
_cell_angle_alpha 95.50019
_cell_angle_beta  95.49915
_cell_angle_gamma 125.83215

_symmetry_space_group_name_	'P 1'
_symmetry_space_group_name_H-M	'P 1'

loop_
_symmetry_equiv_pos_as_xyz
  x,y,z

loop_
_atom_site_label
_atom_site_type_symbol
_atom_site_fract_x
_atom_site_fract_y
_atom_site_fract_z
_atom_site_charge
C 	C 	0.95849 0.02531 0.99399 0.06000
C 	C 	0.91920 0.95901 0.98500 -0.07800
C 	C 	0.94703 0.92711 0.98363 0.03800
C 	C 	0.01425 0.96144 0.99180 -0.05600
C 	C 	0.05387 0.02779 0.00211 0.03200
C 	C 	0.02592 0.05980 0.00297 -0.09900
H 	H 	0.86709 0.93233 0.97838 0.05800
H 	H 	0.03571 0.93661 0.99030 0.05900
H 	H 	0.05640 0.11112 0.01009 0.05400
C 	C 	0.94763 0.00778 0.45176 0.04300
C 	C 	0.01361 0.04496 0.44972 -0.07800
C 	C 	0.04775 0.01944 0.45438 0.04500
C 	C 	0.01593 0.95662 0.46097 -0.07900
C 	C 	0.95071 0.92011 0.46557 0.04300
C 	C 	0.91640 0.94564 0.46054 -0.08200
H 	H 	0.03821 0.09351 0.44432 0.05800
H 	H 	0.04217 0.93657 0.46354 0.05800
H 	H 	0.86570 0.91725 0.46315 0.05400
Cu	Cu	0.64656 0.25886 0.00449 0.92000
Cu	Cu	0.63948 0.20343 0.88481 0.87800
Cu	Cu	0.64931 0.33117 0.92074 0.90800
Cu	Cu	0.64108 0.37456 0.02883 0.88900
C 	C 	0.67534 0.32088 0.10974 0.33200
O 	O 	0.55704 0.21571 0.02134 -0.34800
C 	C 	0.63053 0.27694 0.81507 0.31800
O 	O 	0.68426 0.35031 0.99260 -0.61700
O 	O 	0.61096 0.24179 0.92945 -0.62800
O 	O 	0.70487 0.23318 0.00215 -0.38600
O 	O 	0.64371 0.15513 0.93118 -0.42000
O 	O 	0.66920 0.36490 0.09812 -0.37300
O 	O 	0.69088 0.41897 0.91680 -0.35800
C 	C 	0.69172 0.45834 0.95195 0.29300
C 	C 	0.52254 0.23576 0.00925 0.27100
O 	O 	0.54821 0.28816 0.99091 -0.36400
O 	O 	0.65256 0.43704 0.98557 -0.37900
O 	O 	0.68751 0.29094 0.07582 -0.34800
C 	C 	0.68970 0.18227 0.97210 0.31700
O 	O 	0.62148 0.31148 0.84647 -0.35700
O 	O 	0.61089 0.22040 0.82288 -0.39200
H 	H 	0.73191 0.38132 0.00098 0.15400
H 	H 	0.56325 0.21549 0.92196 0.17500
Cu	Cu	0.75038 0.34838 0.43442 0.93100
Cu	Cu	0.73386 0.28116 0.53536 0.87200
Cu	Cu	0.65023 0.31692 0.50160 0.90000
Cu	Cu	0.63560 0.35624 0.40274 0.90000
C 	C 	0.70540 0.34013 0.32843 0.33200
O 	O 	0.79222 0.44244 0.44216 -0.35000
C 	C 	0.68034 0.31401 0.61033 0.32400
O 	O 	0.65031 0.30124 0.42913 -0.63800
O 	O 	0.74249 0.35060 0.50792 -0.64000
O 	O 	0.79258 0.30538 0.43305 -0.36000
O 	O 	0.71837 0.22905 0.47276 -0.43400
O 	O 	0.68398 0.37187 0.34499 -0.37400
O 	O 	0.55875 0.27770 0.49327 -0.36200
C 	C 	0.52308 0.27635 0.45330 0.29500
C 	C 	0.76659 0.46758 0.46386 0.28500
O 	O 	0.70524 0.43117 0.46721 -0.38700
O 	O 	0.54923 0.31722 0.42185 -0.38400
O 	O 	0.74171 0.33297 0.36067 -0.34300
C 	C 	0.76345 0.24880 0.44475 0.29700
O 	O 	0.65370 0.32954 0.57625 -0.35900
O 	O 	0.72815 0.31174 0.60166 -0.40100
H 	H 	0.62018 0.25619 0.41189 0.17700
H 	H 	0.77274 0.39239 0.53113 0.18400
C 	C 	0.60269 0.26060 0.66953 0.09700
C 	C 	0.66452 0.31048 0.66246 -0.11100
C 	C 	0.71249 0.35400 0.70569 0.10500
C 	C 	0.70122 0.34324 0.75588 0.09700
C 	C 	0.64059 0.29118 0.76288 -0.11200
C 	C 	0.59019 0.25215 0.71980 0.10600
Br	Br	0.50358 0.18933 0.72974 -0.19700
Br	Br	0.53591 0.20237 0.61037 -0.21700
Br	Br	0.76940 0.39850 0.81494 -0.24200
Br	Br	0.79226 0.42972 0.69612 -0.20900
C 	C 	0.74726 0.36850 0.19648 0.10400
C 	C 	0.68770 0.31909 0.16476 -0.10700
C 	C 	0.63820 0.27097 0.18668 0.09800
C 	C 	0.64648 0.27506 0.24064 0.10000
C 	C 	0.70341 0.32797 0.27266 -0.11000
C 	C 	0.75477 0.37356 0.25053 0.10500
Br	Br	0.83413 0.44448 0.29441 -0.19400
Br	Br	0.81829 0.42917 0.16577 -0.20700
Br	Br	0.57945 0.20894 0.27103 -0.23300
Br	Br	0.55836 0.20075 0.14303 -0.20600
C 	C 	0.81315 0.62973 0.51572 -0.07200
C 	C 	0.85134 0.66459 0.48070 0.01700
C 	C 	0.87067 0.63748 0.44618 -0.00300
C 	C 	0.84537 0.57371 0.44276 -0.00500
C 	C 	0.80299 0.53722 0.47510 -0.08600
C 	C 	0.79057 0.56688 0.51419 0.05300
C 	C 	0.87033 0.72916 0.48006 0.00000
S 	S 	0.92696 0.68302 0.40752 -0.02200
H 	H 	0.85722 0.55206 0.41393 0.06100
S 	S 	0.75140 0.52770 0.56362 -0.03100
H 	H 	0.80111 0.65156 0.54421 0.05500
C 	C 	0.84287 0.74139 0.43890 0.01100
C 	C 	0.86778 0.80390 0.43543 -0.04700
C 	C 	0.91792 0.85429 0.47395 -0.01600
C 	C 	0.94021 0.84131 0.51801 0.01800
C 	C 	0.91742 0.77907 0.52024 -0.05500
S 	S 	0.77680 0.67888 0.39204 -0.04100
H 	H 	0.84903 0.81344 0.40230 0.04600
S 	S 	0.99453 0.90209 0.57133 -0.04500
H 	H 	0.93662 0.76950 0.55306 0.05100
H 	H 	0.79606 0.53687 0.60289 0.05000
H 	H 	0.72057 0.65902 0.40871 0.03800
H 	H 	0.96059 0.90940 0.60397 0.03800
H 	H 	0.89497 0.67868 0.36112 0.04200
C 	C 	0.87120 0.07882 0.39226 -0.05400
C 	C 	0.85757 0.09986 0.43603 -0.00100
C 	C 	0.86763 0.08496 0.48402 0.01200
C 	C 	0.89502 0.05283 0.48837 -0.04800
C 	C 	0.91145 0.03436 0.44507 -0.01600
C 	C 	0.89759 0.04577 0.39642 0.01800
C 	C 	0.83471 0.13916 0.43167 0.01900
S 	S 	0.84627 0.10638 0.53883 -0.04600
H 	H 	0.90468 0.04325 0.52564 0.04700
S 	S 	0.91212 0.01805 0.34044 -0.04600
H 	H 	0.86202 0.08889 0.35509 0.05200
C 	C 	0.87818 0.20571 0.44533 -0.00800
C 	C 	0.85469 0.24161 0.44666 -0.00300
C 	C 	0.78815 0.21181 0.43375 -0.09600
C 	C 	0.74534 0.14570 0.41569 0.05800
C 	C 	0.76874 0.10971 0.41543 -0.07400
S 	S 	0.96195 0.24449 0.46131 -0.03100
H 	H 	0.88799 0.29253 0.45943 0.04100
S 	S 	0.66307 0.10789 0.39121 -0.02900
H 	H 	0.73554 0.05872 0.40314 0.05500
H 	H 	0.85905 0.95755 0.31950 0.03700
H 	H 	0.97921 0.25022 0.51328 0.03400
H 	H 	0.62891 0.08814 0.43044 0.03900
H 	H 	0.89739 0.16568 0.56448 0.03500
C 	C 	0.22929 0.12583 0.49780 -0.05300
C 	C 	0.24967 0.13059 0.45018 0.00100
C 	C 	0.20358 0.09966 0.40383 0.01100
C 	C 	0.13772 0.06412 0.40564 -0.04600
C 	C 	0.11735 0.05895 0.45330 -0.01500
C 	C 	0.16348 0.09041 0.49961 0.01900
C 	C 	0.31941 0.16791 0.44929 0.02100
S 	S 	0.22777 0.10536 0.34343 -0.03700
H 	H 	0.10228 0.04015 0.37000 0.04700
S 	S 	0.13942 0.08593 0.56002 -0.03700
H 	H 	0.26473 0.14982 0.53344 0.05700
C 	C 	0.35626 0.23337 0.44926 -0.00600
C 	C 	0.42261 0.26816 0.44988 0.00300
C 	C 	0.45278 0.23833 0.45065 -0.08400
C 	C 	0.41560 0.17255 0.44973 0.06200
C 	C 	0.34930 0.13788 0.44941 -0.06900
S 	S 	0.31984 0.27218 0.44832 -0.03000
H 	H 	0.45097 0.31866 0.45043 0.04500
S 	S 	0.45089 0.13267 0.44686 -0.03500
H 	H 	0.32083 0.08740 0.44898 0.06000
H 	H 	0.13236 0.03580 0.57788 0.04200
H 	H 	0.29768 0.26889 0.39810 0.03500
H 	H 	0.44950 0.11435 0.39622 0.04000
H 	H 	0.23778 0.15761 0.32749 0.03600
C 	C 	0.82790 0.62931 0.95292 -0.06800
C 	C 	0.79431 0.65553 0.94950 0.01700
C 	C 	0.72640 0.61584 0.94220 -0.00300
C 	C 	0.69308 0.55090 0.94101 0.00200
C 	C 	0.72690 0.52509 0.94707 -0.08400
C 	C 	0.79471 0.56449 0.95225 0.06000
C 	C 	0.83094 0.72497 0.95822 0.01800
S 	S 	0.68281 0.64722 0.93605 -0.02700
H 	H 	0.64089 0.52059 0.93636 0.04800
S 	S 	0.83889 0.53397 0.96086 -0.03900
H 	H 	0.88014 0.65983 0.95815 0.05900
C 	C 	0.85199 0.76045 0.00875 -0.00400
C 	C 	0.88937 0.82646 0.01650 -0.06800
C 	C 	0.90573 0.85752 0.97432 0.00600
C 	C 	0.88366 0.82203 0.92372 0.01500
C 	C 	0.84657 0.75597 0.91595 -0.05500
S 	S 	0.83191 0.72270 0.06250 -0.04900
H 	H 	0.90610 0.85378 0.05541 0.04800
S 	S 	0.90215 0.85981 0.86992 -0.03800
H 	H 	0.83008 0.72866 0.87707 0.05400
H 	H 	0.84737 0.51668 0.91372 0.06100
H 	H 	0.87716 0.71383 0.07903 0.03800
H 	H 	0.85690 0.86920 0.85495 0.03900
H 	H 	0.67797 0.66624 0.98423 0.04200
C 	C 	0.74699 0.08073 0.98448 -0.07200
C 	C 	0.81361 0.12560 0.98751 0.01800
C 	C 	0.83963 0.18942 0.98738 -0.00800
C 	C 	0.79876 0.20750 0.98337 0.00400
C 	C 	0.73189 0.16246 0.97930 -0.10000
C 	C 	0.70606 0.09884 0.98081 0.06000
C 	C 	0.85559 0.10506 0.98991 0.01800
S 	S 	0.92328 0.24709 0.99243 -0.01300
H 	H 	0.81886 0.25652 0.98259 0.04000
S 	S 	0.62325 0.04206 0.98033 -0.02400
H 	H 	0.72706 0.03175 0.98523 0.05700
C 	C 	0.88150 0.10168 0.03767 -0.00600
C 	C 	0.91788 0.07841 0.03877 -0.06400
C 	C 	0.92863 0.05837 0.99263 -0.00100
C 	C 	0.90482 0.06406 0.94505 0.01800
C 	C 	0.86835 0.08721 0.94394 -0.05800
S 	S 	0.86809 0.12576 0.09616 -0.03900
H 	H 	0.93645 0.07436 0.07541 0.04700
S 	S 	0.92001 0.04192 0.88666 -0.04400
H 	H 	0.84926 0.09069 0.90725 0.05000
H 	H 	0.59103 0.01398 0.93029 0.04100
H 	H 	0.81138 0.07578 0.10691 0.03700
H 	H 	0.97759 0.09242 0.87759 0.03900
H 	H 	0.95191 0.27045 0.04361 0.02900
C 	C 	0.34260 0.11039 0.99416 -0.05300
C 	C 	0.32539 0.14470 0.02161 0.00300
C 	C 	0.37393 0.20615 0.04978 -0.00400
C 	C 	0.43873 0.23375 0.04815 0.00300
C 	C 	0.45578 0.20110 0.01800 -0.09800
C 	C 	0.40744 0.13843 0.99177 0.07400
C 	C 	0.25644 0.11767 0.01766 -0.01400
S 	S 	0.35398 0.25000 0.08542 -0.03500
H 	H 	0.47590 0.28161 0.06896 0.03300
S 	S 	0.42692 0.09579 0.95370 -0.02900
H 	H 	0.30530 0.06277 0.97302 0.05600
C 	C 	0.22297 0.12120 0.97462 0.02300
C 	C 	0.15727 0.09379 0.97089 -0.02800
C 	C 	0.12469 0.06358 0.01004 -0.03300
C 	C 	0.15897 0.06281 0.05428 0.01900
C 	C 	0.22432 0.08896 0.05747 -0.05400
S 	S 	0.26283 0.15987 0.92530 -0.03100
H 	H 	0.13116 0.09491 0.93705 0.04600
S 	S 	0.12104 0.03075 0.10640 -0.04700
H 	H 	0.25036 0.08744 0.09109 0.05300
H 	H 	0.42743 0.10846 0.90467 0.03600
H 	H 	0.26103 0.11784 0.88934 0.04100
H 	H 	0.12618 0.07689 0.13984 0.03800
H 	H 	0.34270 0.28169 0.05363 0.03400
