data_crystal

_cell_length_a 26.15494
_cell_length_b 26.44752
_cell_length_c 36.72021
_cell_angle_alpha 95.54257
_cell_angle_beta  95.53761
_cell_angle_gamma 125.58333

_symmetry_space_group_name_	'P 1'
_symmetry_space_group_name_H-M	'P 1'

loop_
_symmetry_equiv_pos_as_xyz
  x,y,z

loop_
_atom_site_label
_atom_site_type_symbol
_atom_site_fract_x
_atom_site_fract_y
_atom_site_fract_z
_atom_site_charge
C 	C 	0.96621 0.02389 0.99978 0.02300
C 	C 	0.03167 0.05544 0.99920 -0.06700
C 	C 	0.05765 0.02159 0.99804 0.02300
C 	C 	0.01822 0.95634 0.99773 -0.06900
C 	C 	0.95312 0.92487 0.99857 0.02100
C 	C 	0.92703 0.95849 0.99941 -0.07000
H 	H 	0.06214 0.10597 0.99958 0.04800
H 	H 	0.03811 0.93002 0.99662 0.04900
H 	H 	0.87635 0.93380 0.99944 0.04900
C 	C 	0.94737 0.01182 0.46988 0.02200
C 	C 	0.01277 0.04728 0.46833 -0.06900
C 	C 	0.04326 0.01795 0.46684 0.02300
C 	C 	0.00813 0.95275 0.46604 -0.06900
C 	C 	0.94252 0.91669 0.46692 0.02200
C 	C 	0.91220 0.94635 0.46915 -0.07000
H 	H 	0.03995 0.09767 0.46851 0.04900
H 	H 	0.03188 0.93015 0.46501 0.04900
H 	H 	0.86169 0.91874 0.47039 0.04700
Cu	Cu	0.63976 0.23566 0.00090 0.92700
Cu	Cu	0.68887 0.24356 0.92137 0.87000
Cu	Cu	0.66923 0.33645 0.95437 0.89700
Cu	Cu	0.63411 0.34818 0.02837 0.89400
C 	C 	0.65823 0.27970 0.07921 0.30400
O 	O 	0.54557 0.19381 0.00111 -0.36300
C 	C 	0.64988 0.29708 0.87248 0.30600
O 	O 	0.68715 0.33379 0.00569 -0.64100
O 	O 	0.62900 0.24384 0.94815 -0.64000
O 	O 	0.68371 0.19448 0.99693 -0.37100
O 	O 	0.75100 0.26327 0.96255 -0.44100
O 	O 	0.62676 0.30314 0.07052 -0.38800
O 	O 	0.71360 0.42712 0.96386 -0.38200
C 	C 	0.70723 0.45925 0.99059 0.28700
C 	C 	0.51775 0.21907 0.98908 0.28000
O 	O 	0.55305 0.27825 0.98480 -0.39200
O 	O 	0.66587 0.43062 0.01289 -0.39500
O 	O 	0.66276 0.24451 0.05358 -0.36300
C 	C 	0.73730 0.22172 0.98401 0.28400
O 	O 	0.66565 0.34152 0.90086 -0.38800
O 	O 	0.64631 0.24657 0.87746 -0.42300
H 	H 	0.73309 0.36245 0.01740 0.16400
H 	H 	0.58436 0.21667 0.93414 0.17300
Cu	Cu	0.74352 0.34605 0.45524 0.92800
Cu	Cu	0.74184 0.30110 0.53532 0.86700
Cu	Cu	0.64312 0.31382 0.50322 0.89600
Cu	Cu	0.61977 0.33533 0.42724 0.89300
C 	C 	0.69435 0.31926 0.37685 0.30500
O 	O 	0.77557 0.43607 0.45244 -0.36100
C 	C 	0.68206 0.33236 0.58447 0.30200
O 	O 	0.64373 0.29111 0.45214 -0.64200
O 	O 	0.73728 0.35819 0.50816 -0.64100
O 	O 	0.79421 0.31213 0.46049 -0.37000
O 	O 	0.72825 0.24188 0.49470 -0.44100
O 	O 	0.66551 0.34542 0.38480 -0.38800
O 	O 	0.55095 0.26431 0.49641 -0.38600
C 	C 	0.51252 0.26078 0.46842 0.28800
C 	C 	0.74579 0.45911 0.46431 0.27800
O 	O 	0.68643 0.42037 0.46897 -0.39300
O 	O 	0.53478 0.29558 0.44239 -0.39300
O 	O 	0.73365 0.32029 0.40286 -0.36300
C 	C 	0.77110 0.25966 0.47340 0.28800
O 	O 	0.64435 0.33062 0.55682 -0.38200
O 	O 	0.73485 0.33918 0.57962 -0.42200
H 	H 	0.61765 0.24500 0.44242 0.16300
H 	H 	0.76340 0.40258 0.52169 0.17500
C 	C 	0.64022 0.32592 0.76566 -0.00700
C 	C 	0.69157 0.38172 0.75662 -0.03500
C 	C 	0.69623 0.38653 0.71929 -0.03500
C 	C 	0.64955 0.33558 0.69085 -0.00600
C 	C 	0.59643 0.28112 0.69985 -0.03600
C 	C 	0.59179 0.27629 0.73718 -0.03500
C 	C 	0.64161 0.31645 0.80363 0.04300
C 	C 	0.64440 0.30789 0.83521 -0.11300
C 	C 	0.66007 0.33599 0.65304 0.04200
C 	C 	0.66973 0.33510 0.62160 -0.11100
H 	H 	0.72910 0.42039 0.77847 0.03800
H 	H 	0.73731 0.42890 0.71257 0.03900
H 	H 	0.56000 0.24161 0.67802 0.03800
H 	H 	0.55184 0.23307 0.74392 0.03800
C 	C 	0.69131 0.27657 0.18954 -0.00500
C 	C 	0.64273 0.22678 0.20430 -0.03400
C 	C 	0.64684 0.23154 0.24290 -0.03500
C 	C 	0.69956 0.28609 0.26691 -0.00400
C 	C 	0.74976 0.33436 0.25218 -0.03400
C 	C 	0.74563 0.32962 0.21358 -0.03500
C 	C 	0.68159 0.27690 0.15029 0.04300
C 	C 	0.67189 0.27788 0.11767 -0.10400
C 	C 	0.69845 0.29601 0.30602 0.04300
C 	C 	0.69685 0.30575 0.33852 -0.10400
H 	H 	0.60068 0.18550 0.18590 0.04000
H 	H 	0.60794 0.19390 0.25406 0.03800
H 	H 	0.79081 0.37658 0.27056 0.04100
H 	H 	0.78350 0.36823 0.20240 0.03800
C 	C 	0.77478 0.52682 0.46610 -0.07500
C 	C 	0.76168 0.55813 0.49224 0.00200
C 	C 	0.78476 0.62090 0.49212 -0.05700
C 	C 	0.82359 0.65428 0.46646 0.01300
C 	C 	0.83308 0.62109 0.43855 0.00300
C 	C 	0.81056 0.55844 0.43935 -0.01700
C 	C 	0.86247 0.64981 0.40924 -0.03500
C 	C 	0.88243 0.71092 0.40719 -0.05300
C 	C 	0.87750 0.74622 0.43575 0.03200
C 	C 	0.85045 0.71920 0.46655 -0.01500
C 	C 	0.85500 0.75871 0.49757 -0.02900
C 	C 	0.88150 0.82210 0.49661 -0.04800
C 	C 	0.90585 0.84782 0.46548 0.01300
C 	C 	0.90266 0.80951 0.43484 -0.06900
H 	H 	0.73222 0.53333 0.51219 0.03300
H 	H 	0.76900 0.64165 0.51039 0.04200
H 	H 	0.81864 0.53347 0.41823 0.04600
H 	H 	0.86868 0.62414 0.38747 0.03700
H 	H 	0.90366 0.73166 0.38380 0.04000
H 	H 	0.84235 0.74217 0.52332 0.03400
H 	H 	0.88579 0.85206 0.52086 0.04000
H 	H 	0.92251 0.82986 0.41102 0.04600
C 	C 	0.91637 0.04385 0.47302 0.01300
C 	C 	0.94260 0.09640 0.50151 -0.04900
C 	C 	0.91941 0.13245 0.50176 -0.02900
C 	C 	0.87013 0.11703 0.47289 -0.01600
C 	C 	0.83863 0.05969 0.44684 0.03200
C 	C 	0.86323 0.02451 0.44628 -0.06800
C 	C 	0.78222 0.03750 0.42226 -0.05300
C 	C 	0.75663 0.07140 0.42349 -0.03400
C 	C 	0.78947 0.13031 0.44741 -0.00100
C 	C 	0.84869 0.15542 0.47064 0.01500
C 	C 	0.88651 0.21921 0.48923 -0.06000
C 	C 	0.86190 0.25401 0.48875 0.00500
C 	C 	0.80023 0.22648 0.46909 -0.08500
C 	C 	0.76456 0.16520 0.44779 -0.01000
H 	H 	0.98141 0.10959 0.52339 0.03900
H 	H 	0.93793 0.17033 0.52524 0.03200
H 	H 	0.84161 0.98269 0.42492 0.04600
H 	H 	0.75726 0.99309 0.40271 0.04000
H 	H 	0.71186 0.05246 0.40516 0.03600
H 	H 	0.93562 0.24282 0.50272 0.04100
H 	H 	0.89054 0.30222 0.50415 0.01900
H 	H 	0.71761 0.14475 0.43163 0.03400
C 	C 	0.11248 0.05587 0.46711 0.01300
C 	C 	0.15608 0.09828 0.49943 -0.04800
C 	C 	0.22185 0.13328 0.50022 -0.02800
C 	C 	0.24501 0.12433 0.46886 -0.01500
C 	C 	0.20082 0.08548 0.43528 0.03200
C 	C 	0.13479 0.05013 0.43492 -0.06900
C 	C 	0.22306 0.08394 0.40224 -0.05400
C 	C 	0.28856 0.12087 0.40208 -0.03400
C 	C 	0.33307 0.15674 0.43539 0.00100
C 	C 	0.31157 0.15601 0.46945 0.01400
C 	C 	0.35654 0.18365 0.50320 -0.05700
C 	C 	0.42189 0.21791 0.50272 0.00600
C 	C 	0.44342 0.22313 0.46879 -0.07500
C 	C 	0.39892 0.19178 0.43520 -0.01500
H 	H 	0.13892 0.10467 0.52390 0.04000
H 	H 	0.25415 0.16936 0.52443 0.03500
H 	H 	0.10081 0.01882 0.40957 0.04700
H 	H 	0.18944 0.05510 0.37638 0.04000
H 	H 	0.30477 0.12047 0.37604 0.03500
H 	H 	0.34123 0.17619 0.52971 0.04300
H 	H 	0.45584 0.24021 0.52885 0.04000
H 	H 	0.41546 0.19369 0.40903 0.03400
C 	C 	0.91225 0.85647 0.99830 0.01400
C 	C 	0.91116 0.83430 0.03152 -0.05000
C 	C 	0.87739 0.76949 0.03113 -0.02900
C 	C 	0.84183 0.72543 0.99733 -0.01400
C 	C 	0.84599 0.74837 0.96356 0.03200
C 	C 	0.87960 0.81361 0.96441 -0.06900
C 	C 	0.81933 0.70627 0.92929 -0.05300
C 	C 	0.79002 0.64197 0.92808 -0.03400
C 	C 	0.78313 0.61791 0.96110 0.00200
C 	C 	0.80568 0.65894 0.99600 0.01400
C 	C 	0.78898 0.63232 0.02830 -0.05900
C 	C 	0.75801 0.56752 0.02646 0.00300
C 	C 	0.74038 0.52769 0.99228 -0.07400
C 	C 	0.75216 0.55284 0.95956 -0.01500
H 	H 	0.93843 0.86755 0.05759 0.04000
H 	H 	0.88249 0.75439 0.05667 0.03400
H 	H 	0.88223 0.83121 0.93863 0.04700
H 	H 	0.82295 0.72369 0.90341 0.04000
H 	H 	0.77164 0.61055 0.90129 0.03700
H 	H 	0.79667 0.66065 0.05438 0.04200
H 	H 	0.74697 0.54811 0.05166 0.02900
H 	H 	0.73601 0.52166 0.93288 0.04600
C 	C 	0.93812 0.05884 0.99943 0.01400
C 	C 	0.94116 0.08958 0.96981 -0.04900
C 	C 	0.91109 0.11915 0.96789 -0.02900
C 	C 	0.87899 0.12020 0.99648 -0.01500
C 	C 	0.87287 0.08595 0.02523 0.03100
C 	C 	0.90432 0.05741 0.02723 -0.07000
C 	C 	0.83292 0.07793 0.05055 -0.05300
C 	C 	0.79744 0.10173 0.04694 -0.03400
C 	C 	0.80447 0.13759 0.01950 0.00000
C 	C 	0.84856 0.15064 0.99563 0.01400
C 	C 	0.86304 0.19559 0.97277 -0.06000
C 	C 	0.82738 0.21926 0.96950 0.00100
C 	C 	0.77857 0.20078 0.99013 -0.08100
C 	C 	0.76869 0.16157 0.01604 -0.01600
H 	H 	0.96507 0.08872 0.94751 0.03900
H 	H 	0.90959 0.13748 0.94308 0.03300
H 	H 	0.90101 0.03256 0.04978 0.04600
H 	H 	0.82772 0.05138 0.07241 0.04100
H 	H 	0.76495 0.09291 0.06589 0.03800
H 	H 	0.90348 0.21457 0.95885 0.04000
H 	H 	0.83794 0.25221 0.95091 0.02400
H 	H 	0.73344 0.14983 0.03349 0.04800
C 	C 	0.44830 0.18526 0.98696 -0.07600
C 	C 	0.41452 0.19820 0.96245 0.00200
C 	C 	0.35092 0.17341 0.96385 -0.05700
C 	C 	0.31895 0.13273 0.98895 0.01400
C 	C 	0.35408 0.12186 0.01469 0.00200
C 	C 	0.41765 0.14630 0.01263 -0.01800
C 	C 	0.32659 0.08971 0.04347 -0.03500
C 	C 	0.26529 0.06938 0.04753 -0.05300
C 	C 	0.22854 0.07694 0.02145 0.03100
C 	C 	0.25380 0.10583 0.99077 -0.01400
C 	C 	0.21248 0.10391 0.96186 -0.02900
C 	C 	0.14965 0.07944 0.96531 -0.04800
C 	C 	0.12604 0.05410 0.99668 0.01400
C 	C 	0.16565 0.05332 0.02480 -0.07000
H 	H 	0.43829 0.22946 0.94312 0.03200
H 	H 	0.32855 0.18941 0.94715 0.04200
H 	H 	0.44427 0.13771 0.03231 0.04600
H 	H 	0.35356 0.08195 0.06344 0.03700
H 	H 	0.24572 0.04633 0.07065 0.04000
H 	H 	0.22706 0.11723 0.93578 0.03400
H 	H 	0.11840 0.07776 0.94279 0.04000
H 	H 	0.14675 0.03232 0.04865 0.04700
