data_crystal

_cell_length_a 19.36761
_cell_length_b 18.30012
_cell_length_c 26.70362
_cell_angle_alpha 95.44599
_cell_angle_beta  95.44678
_cell_angle_gamma 126.48001

_symmetry_space_group_name_	'P 1'
_symmetry_space_group_name_H-M	'P 1'

loop_
_symmetry_equiv_pos_as_xyz
  x,y,z

loop_
_atom_site_label
_atom_site_type_symbol
_atom_site_fract_x
_atom_site_fract_y
_atom_site_fract_z
_atom_site_charge
C 	C 	0.93427 0.02540 0.96457 0.23300
C 	C 	0.07158 0.04657 0.97509 0.23500
C 	C 	0.02547 0.08288 0.96850 -0.12600
H 	H 	0.06041 0.15564 0.96701 0.14300
C 	C 	0.91823 0.00226 0.46396 0.23200
C 	C 	0.05576 0.02398 0.47345 0.23500
C 	C 	0.00927 0.05992 0.46721 -0.12800
H 	H 	0.04382 0.13252 0.46544 0.14400
Cu	Cu	0.73427 0.33059 0.94852 0.94000
Cu	Cu	0.72159 0.23506 0.04860 0.91600
Cu	Cu	0.60791 0.28700 0.02267 0.90800
Cu	Cu	0.58733 0.35586 0.92910 0.92100
C 	C 	0.66348 0.32234 0.84620 0.33900
C 	C 	0.66866 0.29040 0.13037 0.33400
O 	O 	0.60162 0.26911 0.94983 -0.63300
O 	O 	0.73212 0.33613 0.02306 -0.63300
O 	O 	0.78550 0.26251 0.94069 -0.30900
O 	O 	0.69144 0.15844 0.98546 -0.38500
O 	O 	0.63928 0.37083 0.86633 -0.33600
O 	O 	0.48460 0.23130 0.01703 -0.32600
C 	C 	0.44093 0.24662 0.98423 0.39700
O 	O 	0.48167 0.31469 0.95853 -0.33400
O 	O 	0.71236 0.30790 0.87497 -0.29100
C 	C 	0.75192 0.18501 0.95780 0.40000
O 	O 	0.61198 0.28873 0.09720 -0.30700
O 	O 	0.73036 0.28795 0.11570 -0.36700
H 	H 	0.55697 0.20448 0.93147 0.20300
Cu	Cu	0.71976 0.30849 0.44820 0.94000
Cu	Cu	0.70168 0.20948 0.54730 0.91500
Cu	Cu	0.59134 0.26425 0.52061 0.91000
Cu	Cu	0.57284 0.33292 0.42671 0.91900
C 	C 	0.65622 0.30628 0.34519 0.34300
C 	C 	0.64932 0.26724 0.62869 0.33800
O 	O 	0.58671 0.24627 0.44794 -0.63700
O 	O 	0.71543 0.31262 0.52238 -0.63100
O 	O 	0.77134 0.24082 0.44113 -0.31100
O 	O 	0.67439 0.13468 0.48396 -0.39200
O 	O 	0.62726 0.35033 0.36467 -0.33000
O 	O 	0.46806 0.20870 0.51409 -0.33100
C 	C 	0.42458 0.22368 0.48090 0.39500
O 	O 	0.46530 0.29044 0.45433 -0.33400
O 	O 	0.70014 0.28701 0.37477 -0.29900
C 	C 	0.73637 0.16235 0.45734 0.39500
O 	O 	0.59449 0.26750 0.59507 -0.31200
O 	O 	0.70895 0.26042 0.61469 -0.36300
H 	H 	0.54247 0.18163 0.42947 0.19600
C 	C 	0.65523 0.30525 0.78998 -0.09300
C 	C 	0.64893 0.22975 0.76506 0.35700
C 	C 	0.64449 0.21612 0.71209 -0.07000
C 	C 	0.64520 0.27689 0.68338 -0.10200
C 	C 	0.64879 0.35066 0.70793 0.36600
H 	H 	0.64094 0.15851 0.69333 0.12500
F 	F 	0.64637 0.16918 0.79204 -0.38900
C 	C 	0.74280 0.34623 0.22201 -0.07400
C 	C 	0.66520 0.29890 0.18545 -0.09600
C 	C 	0.58442 0.25334 0.20177 0.35700
C 	C 	0.58166 0.25465 0.25401 -0.07300
C 	C 	0.65915 0.30027 0.29029 -0.09800
C 	C 	0.73983 0.34665 0.27410 0.37100
H 	H 	0.80551 0.38253 0.21001 0.13500
H 	H 	0.51922 0.21967 0.26629 0.12300
F 	F 	0.50855 0.20569 0.16705 -0.38400
C 	C 	0.87034 0.04173 0.46172 -0.14200
C 	C 	0.84392 0.05820 0.50577 0.25600
C 	C 	0.80056 0.09778 0.50436 0.29400
C 	C 	0.78244 0.12072 0.45860 -0.20800
C 	C 	0.80920 0.10453 0.41449 0.30400
F 	F 	0.77820 0.11615 0.54785 -0.42000
F 	F 	0.86161 0.03715 0.55027 -0.34700
C 	C 	0.29757 0.16574 0.52496 0.29800
C 	C 	0.33043 0.17506 0.47932 -0.19500
C 	C 	0.27325 0.14015 0.43192 0.29400
C 	C 	0.18390 0.09466 0.43013 0.26100
C 	C 	0.15085 0.08334 0.47564 -0.14500
C 	C 	0.20806 0.11988 0.52307 0.25800
F 	F 	0.17658 0.10960 0.56729 -0.34900
F 	F 	0.35245 0.20211 0.57108 -0.35500
F 	F 	0.30408 0.14837 0.38755 -0.37400
C 	C 	0.82015 0.12490 0.00545 0.28900
C 	C 	0.79887 0.14434 0.95919 -0.20200
C 	C 	0.82274 0.12493 0.91461 0.30400
C 	C 	0.86659 0.08555 0.91622 0.25800
C 	C 	0.88680 0.06535 0.96238 -0.13700
C 	C 	0.86346 0.08526 0.00690 0.25200
F 	F 	0.80070 0.14651 0.04932 -0.42200
F 	F 	0.88911 0.06669 0.87295 -0.34300
F 	F 	0.80244 0.14297 0.86968 -0.34500
C 	C 	0.31277 0.18519 0.02771 0.29500
C 	C 	0.34654 0.19697 0.98230 -0.18800
C 	C 	0.29015 0.16439 0.93480 0.29300
C 	C 	0.20078 0.11919 0.93266 0.26100
C 	C 	0.16683 0.10569 0.97790 -0.14000
C 	C 	0.22320 0.13956 0.02546 0.25500
F 	F 	0.36683 0.21905 0.07397 -0.34400
F 	F 	0.14660 0.08601 0.88650 -0.34400
F 	F 	0.32180 0.17477 0.89063 -0.37300
H 	H 	0.75869 0.37363 0.54516 0.21700
C 	C 	0.65409 0.36496 0.76097 -0.07200
F 	F 	0.19085 0.12703 0.06943 -0.34800
F 	F 	0.88392 0.06730 0.05183 -0.34800
C 	C 	0.85299 0.06513 0.41606 0.25700
F 	F 	0.79185 0.12586 0.37002 -0.35600
F 	F 	0.12891 0.05909 0.38411 -0.34400
F 	F 	0.81554 0.39405 0.30894 -0.37800
F 	F 	0.87830 0.04941 0.37322 -0.34500
H 	H 	0.77557 0.39766 0.04531 0.21000
C 	C 	0.88934 0.93122 0.96669 -0.12300
C 	C 	0.93563 0.89501 0.97308 0.23600
C 	C 	0.02661 0.95290 0.97754 -0.13000
H 	H 	0.81892 0.88661 0.96370 0.14300
H 	H 	0.06232 0.92482 0.98232 0.14000
C 	C 	0.87381 0.90828 0.46641 -0.12400
C 	C 	0.92047 0.87244 0.47250 0.23600
C 	C 	0.01134 0.93053 0.47631 -0.13100
H 	H 	0.80347 0.86348 0.46379 0.14300
H 	H 	0.04737 0.90277 0.48089 0.13900
O 	O 	0.80094 0.46974 0.95627 -0.31400
C 	C 	0.77264 0.51215 0.97833 0.38800
O 	O 	0.69419 0.46299 0.98930 -0.35400
O 	O 	0.78637 0.44761 0.45658 -0.30500
C 	C 	0.75703 0.48946 0.47788 0.38700
O 	O 	0.67787 0.43977 0.48783 -0.35100
F 	F 	0.65049 0.41056 0.68072 -0.38500
H 	H 	0.65916 0.42359 0.77964 0.14600
C 	C 	0.86470 0.71489 0.43041 0.25900
C 	C 	0.87416 0.77327 0.47308 -0.14600
C 	C 	0.84693 0.73880 0.51784 0.26200
C 	C 	0.81085 0.64663 0.51998 0.29500
C 	C 	0.80211 0.58840 0.47742 -0.19600
C 	C 	0.82895 0.62297 0.43253 0.29200
F 	F 	0.81796 0.56664 0.39045 -0.35700
F 	F 	0.89052 0.74755 0.38690 -0.34900
F 	F 	0.78497 0.61405 0.56349 -0.35500
F 	F 	0.85676 0.79508 0.55950 -0.34200
C 	C 	0.87739 0.73690 0.93041 0.25700
C 	C 	0.88892 0.79577 0.97358 -0.14000
C 	C 	0.86418 0.76189 0.01881 0.25600
C 	C 	0.82856 0.66982 0.02091 0.29100
C 	C 	0.81776 0.61109 0.97783 -0.19600
C 	C 	0.84203 0.64504 0.93246 0.29200
F 	F 	0.82889 0.58818 0.88991 -0.36900
F 	F 	0.90100 0.76907 0.88648 -0.34900
F 	F 	0.80507 0.63781 0.06488 -0.36500
F 	F 	0.87606 0.81866 0.06096 -0.34400
