data_crystal

_cell_length_a 26.22640
_cell_length_b 27.46513
_cell_length_c 43.62679
_cell_angle_alpha 60.73939
_cell_angle_beta  118.96566
_cell_angle_gamma 133.28519

_symmetry_space_group_name_	'P 1'
_symmetry_space_group_name_H-M	'P 1'

loop_
_symmetry_equiv_pos_as_xyz
  x,y,z

loop_
_atom_site_label
_atom_site_type_symbol
_atom_site_fract_x
_atom_site_fract_y
_atom_site_fract_z
_atom_site_charge
C 	C 	0.23561 0.62478 0.18056 -0.00600
C 	C 	0.30501 0.66437 0.17515 -0.04400
C 	C 	0.27163 0.56819 0.16205 -0.04200
C 	C 	0.20254 0.52878 0.16676 -0.00900
C 	C 	0.18472 0.55633 0.17660 -0.04100
H 	H 	0.28518 0.54640 0.15469 0.04600
H 	H 	0.13190 0.52428 0.18149 0.04100
C 	C 	0.28917 0.64396 0.68799 -0.00700
C 	C 	0.23584 0.57934 0.67926 -0.04300
C 	C 	0.25327 0.55343 0.66790 -0.00800
C 	C 	0.32338 0.59231 0.66453 -0.04200
C 	C 	0.35971 0.68220 0.68481 -0.04000
H 	H 	0.18104 0.54958 0.68090 0.04000
H 	H 	0.33649 0.57255 0.65532 0.04300
Co	Co	0.05646 0.01946 0.06684 1.17100
Co	Co	0.98142 0.05344 0.08763 1.17100
C 	C 	0.20904 0.05742 0.09573 0.22300
Co	Co	0.09619 0.92398 0.07502 1.17600
O 	O 	0.04401 0.09154 0.05620 -0.47600
C 	C 	0.04480 0.15250 0.12712 0.27900
C 	C 	0.08829 0.84445 0.15163 0.27800
O 	O 	0.11927 0.00418 0.02858 -0.43100
O 	O 	0.97793 0.12773 0.12196 -0.40600
O 	O 	0.05868 0.12063 0.12096 -0.40200
O 	O 	0.08049 0.84219 0.12026 -0.40100
O 	O 	0.06388 0.87165 0.15346 -0.38500
O 	O 	0.03801 0.94085 0.08365 -0.74800
O 	O 	0.18816 0.99370 0.10472 -0.34500
O 	O 	0.16583 0.07013 0.09255 -0.38600
Co	Co	0.08704 0.01411 0.57259 1.16400
Co	Co	0.03118 0.06893 0.59264 1.18100
C 	C 	0.23131 0.04152 0.58773 0.22200
Co	Co	0.10228 0.90198 0.57903 1.16800
O 	O 	0.08564 0.09414 0.56069 -0.48300
C 	C 	0.09818 0.16726 0.63809 0.26700
C 	C 	0.10589 0.83189 0.65770 0.27500
O 	O 	0.11391 0.97437 0.52944 -0.39400
O 	O 	0.04760 0.11798 0.65657 -0.39400
O 	O 	0.10300 0.15681 0.61299 -0.37600
O 	O 	0.09013 0.82415 0.62619 -0.40000
O 	O 	0.07437 0.84864 0.66278 -0.37400
O 	O 	0.06871 0.93572 0.59457 -0.75000
O 	O 	0.20359 0.97548 0.60261 -0.34900
O 	O 	0.19752 0.06739 0.58072 -0.37900
C 	C 	0.10769 0.05320 0.91892 -0.03600
C 	C 	0.11733 0.06001 0.95144 0.00600
C 	C 	0.05589 0.05364 0.83787 -0.10600
C 	C 	0.04878 0.04419 0.80689 -0.06000
H 	H 	0.15424 0.08214 0.90865 0.03100
H 	H 	0.17130 0.09377 0.96606 0.03100
H 	H 	0.06863 0.08822 0.78428 0.03500
C 	C 	0.04139 0.98117 0.26624 0.06400
C 	C 	0.04566 0.98037 0.29976 -0.01900
H 	H 	0.08950 0.01745 0.25595 -0.00400
H 	H 	0.09734 0.01467 0.31544 0.01000
C 	C 	0.16328 0.41105 0.63566 0.06900
C 	C 	0.17504 0.39278 0.61599 -0.08200
C 	C 	0.18764 0.34217 0.63418 0.00900
C 	C 	0.18596 0.30909 0.67038 0.07700
C 	C 	0.17420 0.32734 0.69004 -0.09200
C 	C 	0.16179 0.37809 0.67189 0.02400
N 	N 	0.18483 0.47546 0.62867 -0.16900
C 	C 	0.19850 0.48470 0.66027 0.07500
C 	C 	0.18424 0.42494 0.68769 -0.09000
N 	N 	0.16442 0.24470 0.67732 -0.15200
C 	C 	0.15133 0.23576 0.64574 -0.00000
C 	C 	0.16573 0.29560 0.61836 -0.04300
H 	H 	0.17575 0.41806 0.58769 0.05300
H 	H 	0.17347 0.30203 0.71834 0.05100
H 	H 	0.21024 0.42446 0.71604 0.05300
H 	H 	0.14008 0.29626 0.58997 0.04900
H 	H 	0.20864 0.51574 0.60725 0.08400
H 	H 	0.14074 0.20439 0.69877 0.08500
C 	C 	0.17278 0.73418 0.71886 0.07900
C 	C 	0.16145 0.67343 0.72307 -0.08800
C 	C 	0.21972 0.67879 0.72446 0.02600
C 	C 	0.28267 0.74300 0.71589 0.07400
C 	C 	0.29079 0.80389 0.70767 -0.08100
C 	C 	0.23734 0.79822 0.71227 0.01500
N 	N 	0.11894 0.74100 0.70471 -0.15000
C 	C 	0.14826 0.80886 0.68897 0.00500
C 	C 	0.22174 0.84588 0.69318 -0.04500
N 	N 	0.31448 0.73825 0.70181 -0.16900
C 	C 	0.27211 0.67139 0.70114 0.07600
C 	C 	0.21294 0.63261 0.71528 -0.08800
H 	H 	0.10819 0.62490 0.72271 0.05400
H 	H 	0.33435 0.85325 0.69580 0.05800
H 	H 	0.25250 0.89414 0.67473 0.05400
H 	H 	0.16287 0.58375 0.71004 0.05100
H 	H 	0.06468 0.70142 0.69689 0.08600
H 	H 	0.34956 0.77959 0.68478 0.08500
C 	C 	0.12347 0.35948 0.17033 0.06800
C 	C 	0.14313 0.31454 0.18529 -0.08100
C 	C 	0.14737 0.29695 0.16172 0.00800
C 	C 	0.13174 0.32253 0.12454 0.08000
C 	C 	0.11205 0.36745 0.10964 -0.09200
C 	C 	0.10646 0.38397 0.13314 0.02500
N 	N 	0.14872 0.40456 0.18727 -0.16900
C 	C 	0.14878 0.45838 0.16121 0.07400
C 	C 	0.12226 0.44693 0.12719 -0.09000
N 	N 	0.10590 0.27744 0.10745 -0.15100
C 	C 	0.10265 0.22198 0.13325 -0.00200
C 	C 	0.12892 0.23285 0.16739 -0.04300
H 	H 	0.15538 0.29454 0.21427 0.04900
H 	H 	0.09959 0.38733 0.08065 0.05400
H 	H 	0.13646 0.48787 0.10280 0.05500
H 	H 	0.11279 0.19155 0.19146 0.04300
H 	H 	0.18313 0.40844 0.21307 0.08300
H 	H 	0.07315 0.27529 0.08124 0.08400
C 	C 	0.15767 0.65841 0.21037 0.06900
C 	C 	0.09966 0.65699 0.20553 -0.07900
C 	C 	0.11537 0.71450 0.20917 0.00900
C 	C 	0.18486 0.77525 0.21134 0.08300
C 	C 	0.24162 0.77913 0.21180 -0.09000
C 	C 	0.22771 0.71804 0.21440 0.02800
N 	N 	0.15134 0.61932 0.19672 -0.16800
C 	C 	0.21705 0.65392 0.19170 0.07500
C 	C 	0.26611 0.71541 0.20262 -0.08800
N 	N 	0.18260 0.83000 0.19660 -0.15100
C 	C 	0.11220 0.80525 0.18453 0.00300
C 	C 	0.06899 0.73341 0.19231 -0.04100
H 	H 	0.04456 0.61488 0.19692 0.05200
H 	H 	0.29304 0.82842 0.20789 0.05900
H 	H 	0.31467 0.76016 0.19315 0.05400
H 	H 	0.01461 0.70289 0.17678 0.04700
H 	H 	0.10276 0.58353 0.18241 0.08100
H 	H 	0.22379 0.87968 0.18578 0.09100
C 	C 	0.41554 0.21377 0.51820 -0.08200
C 	C 	0.36438 0.15115 0.53718 0.00900
C 	C 	0.37837 0.10320 0.56235 0.07000
N 	N 	0.34044 0.06538 0.58754 -0.15500
C 	C 	0.30098 0.08754 0.57848 0.00500
C 	C 	0.31653 0.14252 0.54791 -0.04800
H 	H 	0.40477 0.25128 0.49877 0.05200
H 	H 	0.28382 0.16140 0.53078 0.04900
H 	H 	0.33228 0.01934 0.60597 0.07100
C 	C 	0.37050 0.18748 0.06808 0.07800
C 	C 	0.42102 0.25295 0.05027 -0.09200
C 	C 	0.39132 0.14831 0.09812 0.00300
N 	N 	0.30707 0.16774 0.06769 -0.15500
C 	C 	0.28561 0.11401 0.09688 0.01000
C 	C 	0.33879 0.10283 0.11732 -0.05100
H 	H 	0.40453 0.28330 0.02647 0.05500
H 	H 	0.33118 0.05644 0.13783 0.03900
H 	H 	0.27280 0.17796 0.04463 0.08400
C 	C 	0.32313 0.63558 0.16646 -0.00600
H 	H 	0.34512 0.71673 0.17819 0.04100
C 	C 	0.37643 0.65681 0.67267 -0.00900
H 	H 	0.40176 0.73122 0.69212 0.04500
C 	C 	0.07048 0.01400 0.00433 0.30700
O 	O 	0.03558 0.02118 0.01378 -0.40200
O 	O 	0.97020 0.01706 0.18697 -0.43700
O 	O 	0.04301 0.98220 0.61779 -0.55700
C 	C 	0.06270 0.98264 0.50872 0.31800
O 	O 	0.03480 0.99136 0.52226 -0.37900
C 	C 	0.05805 0.02063 0.96607 -0.12400
C 	C 	0.03853 0.00738 0.90039 -0.08300
C 	C 	0.02910 0.99693 0.86714 0.11300
C 	C 	0.01440 0.97797 0.80468 0.03100
C 	C 	0.98805 0.92125 0.83395 -0.02300
C 	C 	0.99563 0.93069 0.86514 -0.07100
C 	C 	0.99861 0.96764 0.77075 0.04500
C 	C 	0.03425 0.97679 0.47198 -0.09000
H 	H 	0.08174 0.10494 0.83902 0.05200
C 	C 	0.01292 0.00914 0.34642 -0.08200
C 	C 	0.01872 0.01649 0.37782 -0.07100
H 	H 	0.03054 0.05355 0.32368 0.04100
H 	H 	0.04209 0.06676 0.37928 0.03900
H 	H 	0.97553 0.88661 0.88768 0.05500
C 	C 	0.96707 0.89492 0.40541 -0.03500
C 	C 	0.96156 0.88756 0.37411 -0.04700
H 	H 	0.95038 0.85076 0.42836 0.04200
H 	H 	0.94007 0.83769 0.37307 0.04400
C 	C 	0.44380 0.11541 0.56904 -0.09000
H 	H 	0.96083 0.86981 0.83240 0.04200
C 	C 	0.46376 0.17303 0.11265 -0.08100
C 	C 	0.96551 0.95976 0.20537 0.34300
H 	H 	0.45493 0.07819 0.58861 0.04500
H 	H 	0.47962 0.14201 0.13627 0.04500
C 	C 	0.71726 0.30547 0.03925 -0.01100
C 	C 	0.75780 0.37493 0.02054 -0.04100
C 	C 	0.74544 0.42018 0.01643 -0.00900
C 	C 	0.68953 0.39509 0.02918 -0.04300
C 	C 	0.64686 0.32533 0.04662 -0.01000
C 	C 	0.66029 0.28028 0.05131 -0.04200
H 	H 	0.80060 0.39439 0.01030 0.04100
H 	H 	0.68164 0.43053 0.02725 0.04200
H 	H 	0.62765 0.22629 0.06489 0.03600
C 	C 	0.74451 0.31216 0.51059 -0.00900
C 	C 	0.66914 0.27365 0.50307 -0.04500
C 	C 	0.63804 0.29645 0.50608 -0.00900
C 	C 	0.68136 0.36255 0.51119 -0.04200
C 	C 	0.75608 0.40387 0.51592 -0.00900
C 	C 	0.78803 0.37832 0.51627 -0.04200
H 	H 	0.63489 0.22386 0.49729 0.03700
H 	H 	0.65763 0.38027 0.51380 0.04300
H 	H 	0.84621 0.40845 0.52227 0.04300
Co	Co	0.91774 0.91612 0.13810 1.18700
Co	Co	0.98277 0.87796 0.11193 1.18700
Co	Co	0.89921 0.02271 0.13811 1.15200
C 	C 	0.94528 0.79945 0.06383 0.26300
O 	O 	0.83456 0.02728 0.08670 -0.40500
O 	O 	0.93112 0.99316 0.11843 -0.73200
C 	C 	0.86305 0.07446 0.05867 0.26700
O 	O 	0.91983 0.83976 0.14341 -0.46300
C 	C 	0.77836 0.87446 0.13894 0.27800
O 	O 	0.96146 0.95739 0.09053 -0.56500
O 	O 	0.91180 0.08177 0.05111 -0.38200
O 	O 	0.81889 0.92113 0.15719 -0.38900
O 	O 	0.80743 0.86093 0.12939 -0.37600
O 	O 	0.97038 0.93043 0.19096 -0.39000
O 	O 	0.99645 0.85647 0.04699 -0.37600
O 	O 	0.92406 0.80002 0.08595 -0.37000
Co	Co	0.95317 0.93401 0.64151 1.19600
Co	Co	0.00988 0.87894 0.62145 1.18500
Co	Co	0.94143 0.05200 0.63217 1.15200
C 	C 	0.94603 0.78874 0.57371 0.26600
O 	O 	0.95776 0.12789 0.58403 -0.40500
O 	O 	0.98334 0.01702 0.62429 -0.79300
C 	C 	0.93596 0.11306 0.55373 0.27600
O 	O 	0.94767 0.85114 0.65003 -0.46300
C 	C 	0.81187 0.91603 0.61615 0.26700
O 	O 	0.94954 0.07593 0.55268 -0.40300
O 	O 	0.84021 0.98228 0.60607 -0.36600
O 	O 	0.84511 0.89465 0.61691 -0.37800
C 	C 	0.96247 0.96103 0.70403 0.31900
O 	O 	0.91870 0.97805 0.68064 -0.39300
O 	O 	0.98066 0.93634 0.69476 -0.37500
O 	O 	0.99651 0.83417 0.55549 -0.38500
O 	O 	0.93190 0.80903 0.58886 -0.38300
C 	C 	0.98843 0.97741 0.94665 0.04300
C 	C 	0.97869 0.97077 0.91395 0.00100
C 	C 	0.98364 0.96234 0.74107 -0.09200
H 	H 	0.94226 0.94647 0.95769 0.03800
H 	H 	0.92488 0.93617 0.89960 0.03700
C 	C 	0.97432 0.93968 0.24470 -0.10400
C 	C 	0.98285 0.93798 0.31208 0.00700
C 	C 	0.91673 0.89207 0.29202 -0.05500
C 	C 	0.91263 0.89263 0.25860 0.01800
C 	C 	0.98562 0.94490 0.34467 0.05300
C 	C 	0.99682 0.95965 0.40763 0.03600
C 	C 	0.01522 0.96972 0.44215 0.04500
H 	H 	0.86802 0.85826 0.30147 0.04700
H 	H 	0.86057 0.86013 0.24233 0.03000
C 	C 	0.65664 0.79641 0.64972 0.08100
C 	C 	0.60386 0.73174 0.66693 -0.08700
C 	C 	0.53506 0.71574 0.65667 0.02700
C 	C 	0.51994 0.76261 0.63054 0.07200
C 	C 	0.57249 0.82646 0.61279 -0.07800
C 	C 	0.64137 0.84270 0.62370 0.01200
N 	N 	0.71299 0.80964 0.64553 -0.15300
C 	C 	0.73554 0.86592 0.61744 0.00800
C 	C 	0.68979 0.88576 0.60228 -0.04200
N 	N 	0.46786 0.75310 0.63675 -0.16900
C 	C 	0.44836 0.69990 0.66621 0.07800
C 	C 	0.49022 0.67646 0.67979 -0.08900
H 	H 	0.61590 0.69567 0.68756 0.05700
H 	H 	0.56096 0.86299 0.59238 0.05800
H 	H 	0.70145 0.93505 0.58407 0.05700
H 	H 	0.47934 0.62839 0.69942 0.05500
H 	H 	0.74448 0.79278 0.66569 0.08700
H 	H 	0.43823 0.77285 0.61820 0.08700
C 	C 	0.60902 0.81280 0.13791 0.08500
C 	C 	0.54605 0.80929 0.12363 -0.09000
C 	C 	0.48230 0.74541 0.13270 0.03000
C 	C 	0.48203 0.68807 0.15588 0.07000
C 	C 	0.54521 0.69186 0.16999 -0.07800
C 	C 	0.60873 0.75579 0.16094 0.00700
N 	N 	0.66360 0.85699 0.12139 -0.15200
C 	C 	0.70011 0.82976 0.13448 0.00400
C 	C 	0.66545 0.76523 0.15816 -0.04000
N 	N 	0.42918 0.64534 0.17349 -0.16900
C 	C 	0.39652 0.67539 0.16252 0.07600
C 	C 	0.42716 0.73705 0.13660 -0.08800
H 	H 	0.54648 0.85412 0.10588 0.06100
H 	H 	0.54514 0.64727 0.18788 0.05300
H 	H 	0.68979 0.73873 0.17802 0.04700
H 	H 	0.42198 0.77771 0.12880 0.05600
H 	H 	0.68430 0.90893 0.10873 0.09400
H 	H 	0.42565 0.60620 0.19698 0.08400
C 	C 	0.84552 0.26351 0.51548 0.07000
C 	C 	0.88442 0.27018 0.49853 -0.08200
C 	C 	0.86668 0.20939 0.49763 0.00900
C 	C 	0.80804 0.14463 0.51043 0.07300
C 	C 	0.76607 0.13916 0.52482 -0.09100
C 	C 	0.78941 0.19913 0.52956 0.02100
N 	N 	0.83839 0.31251 0.50832 -0.16900
C 	C 	0.77760 0.27907 0.51806 0.07400
C 	C 	0.74577 0.20852 0.53144 -0.09100
N 	N 	0.82129 0.09753 0.52407 -0.15200
C 	C 	0.88943 0.13143 0.52277 -0.00700
C 	C 	0.91802 0.20066 0.50510 -0.04300
H 	H 	0.92943 0.32047 0.48827 0.05200
H 	H 	0.72072 0.08913 0.53500 0.04300
H 	H 	0.69002 0.16854 0.53310 0.04600
H 	H 	0.97535 0.24171 0.50935 0.04400
H 	H 	0.86082 0.36007 0.48948 0.08300
H 	H 	0.79539 0.05116 0.54299 0.07700
C 	C 	0.82100 0.52512 0.55621 0.06900
C 	C 	0.86235 0.56202 0.58286 -0.07900
C 	C 	0.88345 0.62980 0.57147 0.00900
C 	C 	0.86223 0.65824 0.53602 0.08100
C 	C 	0.82046 0.62156 0.50939 -0.09000
C 	C 	0.80013 0.55414 0.52046 0.02600
N 	N 	0.82272 0.47585 0.55812 -0.16800
C 	C 	0.80068 0.47124 0.52377 0.07400
C 	C 	0.78978 0.52195 0.49960 -0.08900
N 	N 	0.86535 0.71075 0.53370 -0.15100
C 	C 	0.89281 0.71907 0.56774 0.00500
C 	C 	0.90043 0.66623 0.59226 -0.04900
H 	H 	0.87910 0.53981 0.61080 0.05100
H 	H 	0.80490 0.64449 0.48139 0.05600
H 	H 	0.75875 0.52161 0.47186 0.05300
H 	H 	0.93486 0.66815 0.61930 0.04500
H 	H 	0.82095 0.43678 0.58129 0.08300
H 	H 	0.86733 0.74920 0.51006 0.09300
C 	C 	0.48120 0.22611 0.52535 0.07100
C 	C 	0.49533 0.17859 0.55060 0.02300
N 	N 	0.52190 0.26631 0.50124 -0.17000
C 	C 	0.56429 0.24655 0.51158 0.07300
C 	C 	0.54649 0.18976 0.54134 -0.09100
H 	H 	0.58023 0.17227 0.55952 0.04900
H 	H 	0.53007 0.31256 0.48315 0.08200
C 	C 	0.80625 0.23622 0.05548 0.06900
C 	C 	0.86076 0.25089 0.04640 -0.08300
C 	C 	0.84208 0.20591 0.03000 0.01000
C 	C 	0.77144 0.14786 0.02331 0.07400
C 	C 	0.71623 0.13565 0.03046 -0.09200
C 	C 	0.73541 0.17976 0.04757 0.02100
N 	N 	0.80821 0.28523 0.05698 -0.16900
C 	C 	0.73888 0.26095 0.04944 0.07400
C 	C 	0.69185 0.19552 0.04325 -0.09300
N 	N 	0.77101 0.09631 0.02647 -0.15200
C 	C 	0.84067 0.12036 0.03545 -0.00300
C 	C 	0.88614 0.18871 0.03718 -0.04700
H 	H 	0.91602 0.29509 0.05244 0.05200
H 	H 	0.66096 0.09139 0.02458 0.04600
H 	H 	0.63716 0.17381 0.02689 0.04900
H 	H 	0.94075 0.21269 0.05367 0.04700
H 	H 	0.85235 0.33714 0.05472 0.08200
H 	H 	0.72869 0.04403 0.03286 0.07900
C 	C 	0.88695 0.59272 0.01992 0.07000
C 	C 	0.93163 0.63018 0.04650 -0.08100
C 	C 	0.92814 0.68199 0.04189 0.01100
C 	C 	0.87662 0.69078 0.01475 0.08000
C 	C 	0.82608 0.64798 0.99069 -0.08900
C 	C 	0.83541 0.60215 0.99214 0.02700
N 	N 	0.86494 0.52810 0.02716 -0.16800
C 	C 	0.79905 0.49513 0.00516 0.07500
C 	C 	0.77940 0.53991 0.98266 -0.08800
N 	N 	0.86385 0.72113 0.02395 -0.15200
C 	C 	0.90924 0.73446 0.05648 0.00600
C 	C 	0.94680 0.70671 0.06926 -0.05000
H 	H 	0.96337 0.61575 0.07112 0.05200
H 	H 	0.77869 0.64676 0.97343 0.05700
H 	H 	0.72416 0.52332 0.97056 0.05300
H 	H 	0.99601 0.72121 0.09035 0.04600
H 	H 	0.88268 0.50286 0.05208 0.08300
H 	H 	0.84074 0.74730 0.00539 0.08900
C 	C 	0.49368 0.27758 0.06406 0.02900
C 	C 	0.51477 0.23794 0.09448 0.06700
N 	N 	0.57435 0.25302 0.09279 -0.16900
C 	C 	0.59062 0.30094 0.06138 0.07600
C 	C 	0.54229 0.31792 0.04290 -0.09200
H 	H 	0.53111 0.33905 0.01398 0.05300
H 	H 	0.59149 0.22114 0.10719 0.07900
