data_crystal

_cell_length_a 20.17597
_cell_length_b 21.56460
_cell_length_c 28.24170
_cell_angle_alpha 60.72865
_cell_angle_beta  118.95503
_cell_angle_gamma 133.15305

_symmetry_space_group_name_	'P 1'
_symmetry_space_group_name_H-M	'P 1'

loop_
_symmetry_equiv_pos_as_xyz
  x,y,z

loop_
_atom_site_label
_atom_site_type_symbol
_atom_site_fract_x
_atom_site_fract_y
_atom_site_fract_z
_atom_site_charge
C 	C 	0.30247 0.64071 0.24655 0.09300
C 	C 	0.23992 0.55792 0.23446 -0.02200
C 	C 	0.27223 0.52907 0.22099 0.07800
C 	C 	0.36711 0.57901 0.22428 -0.02900
C 	C 	0.43005 0.65746 0.24041 0.07300
C 	C 	0.39877 0.68491 0.25575 -0.02500
H 	H 	0.16586 0.52037 0.23065 0.15100
H 	H 	0.39178 0.55794 0.21258 0.11200
H 	H 	0.44787 0.74691 0.26726 0.14400
C 	C 	0.24889 0.61818 0.73567 0.08300
C 	C 	0.34423 0.68183 0.73535 -0.03800
C 	C 	0.39746 0.65812 0.74049 0.08300
C 	C 	0.35630 0.57081 0.74686 -0.03300
C 	C 	0.25944 0.50977 0.73775 0.09000
C 	C 	0.20560 0.53141 0.73586 -0.02000
H 	H 	0.37660 0.74992 0.73029 0.11500
H 	H 	0.39809 0.55335 0.75040 0.13000
H 	H 	0.13199 0.48214 0.73442 0.16400
Co	Co	0.05877 0.02776 0.04533 1.16300
C 	C 	0.22533 0.08721 0.02098 0.28000
Co	Co	0.08311 0.89379 0.04416 1.20300
O 	O 	0.05039 0.12204 0.03639 -0.41200
C 	C 	0.08552 0.22686 0.15443 0.26800
C 	C 	0.16978 0.85201 0.15998 0.29800
O 	O 	0.10608 0.20460 0.12991 -0.31200
O 	O 	0.19120 0.91138 0.11341 -0.30600
O 	O 	0.12025 0.84350 0.18416 -0.31100
O 	O 	0.05325 0.93513 0.07999 -0.74600
C 	C 	0.02948 0.00437 0.29990 0.20900
O 	O 	0.16651 0.01983 0.99902 -0.31000
O 	O 	0.19716 0.10325 0.04443 -0.33900
Co	Co	0.06595 0.01520 0.56082 1.17200
Co	Co	0.01138 0.09680 0.60003 1.17500
C 	C 	0.24496 0.05432 0.57364 0.27400
Co	Co	0.08331 0.86852 0.57325 1.18500
O 	O 	0.07853 0.12355 0.54962 -0.40100
C 	C 	0.10207 0.23175 0.65774 0.32400
C 	C 	0.12063 0.80548 0.69492 0.30700
O 	O 	0.01703 0.20886 0.64295 -0.37300
O 	O 	0.11832 0.18966 0.64762 -0.31800
O 	O 	0.16255 0.86298 0.65377 -0.30300
O 	O 	0.06967 0.81267 0.70643 -0.31000
O 	O 	0.03392 0.91141 0.59263 -0.73200
O 	O 	0.19341 0.99398 0.54652 -0.31900
O 	O 	0.20557 0.06521 0.59214 -0.33600
C 	C 	0.23600 0.45242 0.66905 0.04200
C 	C 	0.21590 0.43375 0.71774 0.08700
C 	C 	0.18161 0.34853 0.75420 -0.10200
C 	C 	0.16777 0.28482 0.74049 0.07300
C 	C 	0.17685 0.30149 0.68847 0.01200
C 	C 	0.22639 0.38938 0.65795 -0.04000
C 	C 	0.27601 0.41863 0.61690 0.78200
H 	H 	0.26765 0.51870 0.64265 0.12100
H 	H 	0.14269 0.22007 0.76821 0.10200
C 	C 	0.15606 0.32420 0.80616 0.79100
F 	F 	0.36885 0.48745 0.63030 -0.38700
F 	F 	0.23557 0.44715 0.56346 -0.34100
F 	F 	0.27308 0.35196 0.61801 -0.39100
F 	F 	0.08758 0.33463 0.79134 -0.41100
F 	F 	0.23400 0.37721 0.84151 -0.36900
F 	F 	0.12146 0.23768 0.83505 -0.39200
H 	H 	0.43345 0.76518 0.64080 0.11900
C 	C 	0.23758 0.69219 0.77524 0.02400
C 	C 	0.19639 0.64365 0.73690 0.09300
C 	C 	0.11408 0.63241 0.69565 -0.11700
C 	C 	0.07216 0.66213 0.69839 0.07500
C 	C 	0.12562 0.72874 0.72547 0.00500
C 	C 	0.20463 0.73736 0.76866 -0.04400
C 	C 	0.25673 0.79765 0.80577 0.77600
H 	H 	0.29901 0.69967 0.80774 0.13200
H 	H 	0.00055 0.63779 0.67648 0.07600
C 	C 	0.07489 0.59663 0.64631 0.78500
F 	F 	0.30597 0.77295 0.85634 -0.35900
F 	F 	0.19479 0.79490 0.81671 -0.37400
F 	F 	0.31883 0.88262 0.77944 -0.34200
F 	F 	0.01967 0.50614 0.66183 -0.40600
F 	F 	0.14566 0.62704 0.62654 -0.42500
F 	F 	0.02023 0.62298 0.60252 -0.44400
C 	C 	0.14266 0.37971 0.12923 0.06900
C 	C 	0.15337 0.31285 0.16737 0.02000
C 	C 	0.20063 0.31785 0.22347 -0.08300
C 	C 	0.21794 0.37776 0.24260 0.02900
C 	C 	0.20856 0.44544 0.20477 0.08500
C 	C 	0.16592 0.44394 0.14764 -0.10900
C 	C 	0.14941 0.51306 0.10576 0.79100
H 	H 	0.10915 0.37740 0.08580 0.09500
H 	H 	0.25076 0.37893 0.28628 0.11400
C 	C 	0.23862 0.26418 0.26288 0.78500
F 	F 	0.08847 0.48874 0.05616 -0.40900
F 	F 	0.23329 0.59137 0.09432 -0.37500
F 	F 	0.11081 0.52535 0.12673 -0.39900
F 	F 	0.33363 0.32007 0.28371 -0.36700
F 	F 	0.22551 0.21479 0.23723 -0.42100
F 	F 	0.19543 0.20884 0.30697 -0.40500
C 	C 	0.48993 0.80958 0.14195 0.78600
F 	F 	0.48341 0.84553 0.16739 -0.41100
F 	F 	0.40156 0.74090 0.12261 -0.38900
C 	C 	0.26414 0.74190 0.17148 0.03500
C 	C 	0.26830 0.69389 0.22696 0.09900
C 	C 	0.23747 0.69534 0.26178 -0.10300
C 	C 	0.20275 0.74576 0.23910 0.09900
C 	C 	0.19010 0.78643 0.18148 0.02300
C 	C 	0.20913 0.77239 0.14627 -0.05600
C 	C 	0.14721 0.75870 0.08815 0.78900
H 	H 	0.29196 0.74369 0.14593 0.16500
H 	H 	0.18678 0.75424 0.26608 0.12200
C 	C 	0.24434 0.64615 0.32281 0.79500
F 	F 	0.17666 0.74190 0.06334 -0.36900
F 	F 	0.14830 0.83116 0.05243 -0.52000
F 	F 	0.05694 0.68634 0.09251 -0.42400
F 	F 	0.33650 0.67653 0.34938 -0.38500
F 	F 	0.19112 0.55751 0.32714 -0.38800
F 	F 	0.21246 0.65695 0.35001 -0.36700
F 	F 	0.04873 0.31093 0.53298 -0.40900
F 	F 	0.02932 0.41792 0.47910 -0.36300
C 	C 	0.49211 0.15440 0.59139 0.02100
C 	C 	0.50084 0.20292 0.53637 0.09200
C 	C 	0.42615 0.20677 0.49617 -0.12300
C 	C 	0.35288 0.17701 0.51390 0.07800
C 	C 	0.34081 0.12403 0.56776 0.00700
C 	C 	0.41389 0.11711 0.60806 -0.06200
C 	C 	0.40526 0.06344 0.66751 0.75100
H 	H 	0.29843 0.18527 0.48378 0.09100
C 	C 	0.42673 0.24689 0.43474 0.79100
F 	F 	0.49260 0.09449 0.70397 -0.36900
F 	F 	0.36100 0.97714 0.67069 -0.37100
F 	F 	0.35470 0.06746 0.68451 -0.39500
F 	F 	0.47286 0.23373 0.42102 -0.36500
F 	F 	0.33631 0.20872 0.40216 -0.37800
C 	C 	0.44136 0.22689 0.96972 0.06500
C 	C 	0.50402 0.21737 0.01930 0.04000
C 	C 	0.47394 0.16405 0.06982 -0.11200
C 	C 	0.38487 0.12924 0.07054 0.07900
C 	C 	0.32407 0.14249 0.02139 -0.03300
C 	C 	0.35367 0.19470 0.97086 -0.02800
C 	C 	0.29230 0.21707 0.91847 0.77500
H 	H 	0.46420 0.26568 0.93098 0.12000
H 	H 	0.36139 0.08945 0.10906 0.08800
C 	C 	0.53825 0.14741 0.12337 0.79100
F 	F 	0.34259 0.28735 0.87882 -0.39100
F 	F 	0.25430 0.23952 0.93152 -0.36600
F 	F 	0.22099 0.14536 0.89561 -0.42000
F 	F 	0.57582 0.12072 0.11406 -0.39900
F 	F 	0.49102 0.08231 0.16529 -0.40100
C 	C 	0.02921 0.98550 0.35769 0.12800
F 	F 	0.06821 0.39270 0.57245 -0.41600
Co	Co	0.01986 0.87162 0.14188 1.18500
O 	O 	0.04464 0.99734 0.13112 -0.53500
O 	O 	0.02831 0.07127 0.26354 -0.31700
O 	O 	0.02456 0.95143 0.28378 -0.25000
C 	C 	0.02164 0.95504 0.46074 0.36100
O 	O 	0.03331 0.01245 0.47647 -0.36500
C 	C 	0.02644 0.97418 0.40410 0.00800
H 	H 	0.54879 0.14991 0.62191 0.12300
F 	F 	0.47059 0.33592 0.42246 -0.39000
C 	C 	0.49013 0.72601 0.72775 0.08300
F 	F 	0.53210 0.60637 0.84417 -0.37900
F 	F 	0.51958 0.70349 0.84281 -0.39600
C 	C 	0.49472 0.76955 0.67168 0.02100
Co	Co	0.00686 0.09056 0.10185 1.16800
C 	C 	0.52636 0.71477 0.23477 0.08800
F 	F 	0.52748 0.87357 0.09628 -0.38300
F 	F 	0.49091 0.83100 0.55943 -0.37600
C 	C 	0.54966 0.77692 0.18352 -0.11300
F 	F 	0.56585 0.14843 0.43995 -0.39300
H 	H 	0.56773 0.64244 0.31292 0.13700
F 	F 	0.60971 0.22349 0.14175 -0.38300
C 	C 	0.60424 0.28197 0.02074 0.08700
C 	C 	0.59496 0.27084 0.52643 0.08000
C 	C 	0.57024 0.73309 0.76865 -0.11200
C 	C 	0.57056 0.69439 0.83032 0.79100
C 	C 	0.58652 0.69080 0.27414 0.02300
C 	C 	0.57584 0.81452 0.65495 -0.05600
C 	C 	0.01642 0.35340 0.52859 0.76100
H 	H 	0.61683 0.19683 0.01194 0.11400
H 	H 	0.61185 0.37951 0.03059 0.11400
H 	H 	0.59976 0.37182 0.52877 0.11700
H 	H 	0.61355 0.18155 0.52966 0.11800
C 	C 	0.57962 0.86181 0.59412 0.77600
C 	C 	0.65064 0.36403 0.02765 -0.03100
C 	C 	0.65349 0.26092 0.01724 -0.04000
C 	C 	0.63760 0.35656 0.52444 -0.01100
C 	C 	0.64441 0.24953 0.52342 -0.01000
F 	F 	0.62850 0.95052 0.58722 -0.40700
C 	C 	0.63066 0.81041 0.17211 0.07800
C 	C 	0.64696 0.22228 0.42234 0.79300
F 	F 	0.64842 0.21184 0.37831 -0.36600
F 	F 	0.64652 0.29473 0.40273 -0.36800
F 	F 	0.62357 0.84935 0.57779 -0.39000
C 	C 	0.64956 0.77433 0.75160 0.08400
C 	C 	0.65501 0.81943 0.69579 0.00200
C 	C 	0.66709 0.72445 0.26210 -0.05000
H 	H 	0.64974 0.85827 0.13330 0.10700
F 	F 	0.66073 0.73651 0.86291 -0.39000
F 	F 	0.65444 0.51762 0.93052 -0.38800
F 	F 	0.67946 0.61326 0.33949 -0.38100
F 	F 	0.68380 0.65127 0.43307 -0.38600
C 	C 	0.69328 0.79082 0.21304 -0.00100
O 	O 	0.00011 0.87805 0.49434 -0.32800
O 	O 	0.99558 0.07571 0.74888 -0.32200
O 	O 	0.99875 0.18349 0.15506 -0.32700
F 	F 	0.89314 0.21830 0.95727 -0.37600
O 	O 	0.98513 0.00295 0.96303 -0.29000
O 	O 	0.96945 0.87836 0.97961 -0.30500
C 	C 	0.97946 0.00050 0.78283 0.21900
C 	C 	0.75119 0.31927 0.02571 0.09200
C 	C 	0.73397 0.31641 0.51245 0.07700
C 	C 	0.73123 0.23366 0.46992 -0.11300
H 	H 	0.71879 0.12887 0.46477 0.11600
C 	C 	0.79428 0.41491 0.64478 0.79500
F 	F 	0.70311 0.34629 0.64946 -0.41000
F 	F 	0.84788 0.43751 0.69544 -0.37500
C 	C 	0.85670 0.27740 0.14160 0.78000
F 	F 	0.77738 0.25434 0.14711 -0.37500
F 	F 	0.92195 0.36737 0.13234 -0.38800
F 	F 	0.89482 0.23999 0.19155 -0.40400
H 	H 	0.83291 0.45512 0.13524 0.15200
F 	F 	0.83874 0.48177 0.21371 -0.36000
C 	C 	0.79802 0.40316 0.03188 -0.02300
C 	C 	0.74698 0.42486 0.03335 0.08400
H 	H 	0.87313 0.44975 0.03705 0.16100
C 	C 	0.77918 0.40257 0.51442 -0.00400
C 	C 	0.73167 0.42009 0.52436 0.07200
H 	H 	0.85035 0.45423 0.50969 0.12600
Co	Co	0.97311 0.93651 0.19986 1.21900
Co	Co	0.91933 0.05139 0.19443 1.18200
C 	C 	0.91581 0.72926 0.08833 0.28700
O 	O 	0.81556 0.02671 0.12246 -0.37400
O 	O 	0.97652 0.02788 0.16507 -0.73000
C 	C 	0.83746 0.08635 0.07607 0.30200
O 	O 	0.98376 0.84341 0.20968 -0.34900
C 	C 	0.79185 0.85777 0.21320 0.32400
C 	C 	0.97382 0.94829 0.94480 0.34700
O 	O 	0.89070 0.09627 0.05438 -0.29300
O 	O 	0.83932 0.92156 0.23645 -0.32600
O 	O 	0.83024 0.85880 0.18604 -0.33500
O 	O 	0.99935 0.76511 0.08655 -0.28000
O 	O 	0.90377 0.76532 0.10749 -0.30800
Co	Co	0.92477 0.93070 0.68558 1.20600
Co	Co	0.97753 0.84733 0.64590 1.20900
Co	Co	0.90872 0.08112 0.67070 1.18400
C 	C 	0.89080 0.71237 0.58827 0.31300
O 	O 	0.82877 0.08459 0.59031 -0.32600
O 	O 	0.94785 0.03072 0.64940 -0.74400
C 	C 	0.87046 0.14281 0.54886 0.29800
O 	O 	0.91916 0.82454 0.70029 -0.37900
C 	C 	0.74791 0.88865 0.68431 0.32300
O 	O 	0.97064 0.96324 0.61195 -0.50200
O 	O 	0.92836 0.14177 0.53932 -0.26200
O 	O 	0.80053 0.95829 0.70324 -0.33900
O 	O 	0.78350 0.87136 0.66760 -0.31300
O 	O 	0.97883 0.94930 0.76812 -0.26800
O 	O 	0.97660 0.73981 0.59866 -0.33900
O 	O 	0.87233 0.74295 0.60779 -0.30500
C 	C 	0.97512 0.96909 0.88693 0.04300
C 	C 	0.97733 0.98124 0.84018 0.10800
H 	H 	0.71005 0.77691 0.78241 0.10400
C 	C 	0.72763 0.69268 0.30273 0.77600
F 	F 	0.80542 0.75404 0.33295 -0.38400
F 	F 	0.75649 0.68132 0.27384 -0.39100
C 	C 	0.76407 0.18635 0.48080 0.09300
C 	C 	0.85420 0.21180 0.51389 0.02000
C 	C 	0.91440 0.29217 0.52898 -0.04300
C 	C 	0.87489 0.32548 0.53012 0.02100
C 	C 	0.78169 0.29471 0.50198 0.09900
H 	H 	0.91800 0.37782 0.55059 0.13200
C 	C 	0.78033 0.57060 0.50062 0.03200
C 	C 	0.78112 0.49960 0.54187 0.10400
C 	C 	0.79683 0.49235 0.59866 -0.10300
C 	C 	0.80622 0.55355 0.61179 0.08200
C 	C 	0.81628 0.62924 0.57136 0.01800
C 	C 	0.78976 0.63097 0.51466 -0.06200
C 	C 	0.76969 0.69558 0.46866 0.78100
H 	H 	0.76364 0.57424 0.45701 0.14500
H 	H 	0.81723 0.54780 0.65491 0.10300
F 	F 	0.83776 0.75542 0.43861 -0.38500
F 	F 	0.76727 0.74018 0.48946 -0.40500
F 	F 	0.82921 0.38711 0.63403 -0.39100
C 	C 	0.79984 0.26869 0.99379 0.14200
C 	C 	0.80385 0.28585 0.03765 0.02900
C 	C 	0.83237 0.24735 0.09325 -0.08500
C 	C 	0.83469 0.17810 0.10391 0.06600
C 	C 	0.83040 0.15937 0.06074 0.02300
C 	C 	0.81274 0.20545 0.00463 -0.15100
C 	C 	0.80565 0.18681 0.95640 0.82600
H 	H 	0.78117 0.30076 0.95115 0.11000
H 	H 	0.84043 0.13866 0.14624 0.05400
F 	F 	0.77231 0.22690 0.90532 -0.37600
F 	F 	0.74509 0.09753 0.96047 -0.38200
C 	C 	0.82605 0.50684 0.10377 0.04300
C 	C 	0.79432 0.50692 0.04720 0.10200
C 	C 	0.78296 0.57333 0.00621 -0.12700
C 	C 	0.79900 0.63496 0.02325 0.03200
C 	C 	0.84113 0.64074 0.07893 0.03900
C 	C 	0.84384 0.57003 0.12013 -0.05300
C 	C 	0.87616 0.56725 0.18152 0.78300
H 	H 	0.78966 0.68539 0.99216 0.14900
C 	C 	0.75055 0.57686 0.94452 0.81900
F 	F 	0.84791 0.60190 0.19166 -0.38900
F 	F 	0.97257 0.61534 0.19753 -0.38600
F 	F 	0.79146 0.55650 0.93226 -0.39100
F 	F 	0.77476 0.65983 0.91187 -0.38900
