data_crystal

_cell_length_a 26.43407
_cell_length_b 26.15261
_cell_length_c 20.79132
_cell_angle_alpha 89.96408
_cell_angle_beta  89.96294
_cell_angle_gamma 90.53531

_symmetry_space_group_name_	'P 1'
_symmetry_space_group_name_H-M	'P 1'

loop_
_symmetry_equiv_pos_as_xyz
  x,y,z

loop_
_atom_site_label
_atom_site_type_symbol
_atom_site_fract_x
_atom_site_fract_y
_atom_site_fract_z
_atom_site_charge
C 	C 	0.71096 0.95899 0.30182 0.28500
C 	C 	0.71164 0.79801 0.50756 0.32200
C 	C 	0.77478 0.96068 0.46132 0.32400
C 	C 	0.64130 0.80909 0.34685 0.28000
C 	C 	0.85599 0.82064 0.41079 0.31200
C 	C 	0.79313 0.81141 0.24868 0.28400
Ni	Ni	0.69266 0.89094 0.42309 1.13800
Ni	Ni	0.75114 0.78862 0.37585 1.14500
Ni	Ni	0.79847 0.89820 0.34504 1.14900
O 	O 	0.69425 0.95638 0.36272 -0.25300
O 	O 	0.75243 0.93453 0.28338 -0.32300
O 	O 	0.82775 0.78532 0.38235 -0.28700
O 	O 	0.67917 0.83408 0.49273 -0.26700
O 	O 	0.75195 0.79137 0.47230 -0.35300
O 	O 	0.82157 0.84709 0.27715 -0.27500
O 	O 	0.74742 0.92224 0.48185 -0.33700
O 	O 	0.79080 0.96134 0.40158 -0.26600
O 	O 	0.75813 0.78505 0.28039 -0.30900
O 	O 	0.63542 0.85489 0.37272 -0.27800
O 	O 	0.67422 0.77590 0.37136 -0.25800
O 	O 	0.84092 0.86803 0.41411 -0.31200
O 	O 	0.73989 0.85977 0.36851 -0.72200
H 	H 	0.72132 0.85994 0.32750 0.16200
C 	C 	0.78499 0.53977 0.81423 0.30100
C 	C 	0.79460 0.70499 0.01452 0.30800
C 	C 	0.71652 0.54841 0.96762 0.34700
C 	C 	0.86482 0.68942 0.86070 0.28700
C 	C 	0.64698 0.68987 0.91751 0.30200
C 	C 	0.71984 0.69840 0.75348 0.30400
Ni	Ni	0.80500 0.61044 0.93231 1.13400
Ni	Ni	0.75400 0.71615 0.88627 1.15500
Ni	Ni	0.70206 0.61055 0.84719 1.13900
O 	O 	0.80099 0.54416 0.87503 -0.33000
O 	O 	0.74841 0.56901 0.79080 -0.29000
O 	O 	0.67781 0.72397 0.89120 -0.26800
O 	O 	0.82380 0.66634 0.00038 -0.31000
O 	O 	0.75293 0.71184 0.98269 -0.29800
O 	O 	0.68725 0.66347 0.77668 -0.29800
O 	O 	0.74586 0.58516 0.98855 -0.30500
O 	O 	0.70222 0.54807 0.90672 -0.33600
O 	O 	0.74882 0.72660 0.79176 -0.28200
O 	O 	0.86463 0.64179 0.88239 -0.30400
O 	O 	0.83204 0.72422 0.88273 -0.23100
O 	O 	0.65452 0.64074 0.91072 -0.32500
O 	O 	0.76155 0.64491 0.87558 -0.72900
H 	H 	0.78121 0.64449 0.83530 0.19500
C 	C 	0.19319 0.64843 0.65248 0.28100
C 	C 	0.03864 0.78268 0.55134 0.30800
C 	C 	0.19218 0.71323 0.48984 0.31200
C 	C 	0.04535 0.72444 0.71214 0.31700
C 	C 	0.18009 0.86474 0.58223 0.32100
C 	C 	0.20192 0.80166 0.74557 0.29700
Ni	Ni	0.10684 0.69953 0.58711 1.14800
Ni	Ni	0.10823 0.80830 0.66108 1.14200
Ni	Ni	0.21234 0.75930 0.61539 1.15000
O 	O 	0.14439 0.64480 0.63897 -0.26800
O 	O 	0.22350 0.68144 0.62144 -0.26400
O 	O 	0.13264 0.85113 0.58824 -0.33000
O 	O 	0.07376 0.75314 0.52839 -0.31000
O 	O 	0.04160 0.79983 0.61091 -0.30900
O 	O 	0.22636 0.76846 0.70908 -0.27000
O 	O 	0.15785 0.68135 0.51303 -0.29100
O 	O 	0.20235 0.75617 0.51933 -0.33000
O 	O 	0.16511 0.83108 0.72213 -0.27600
O 	O 	0.04620 0.70297 0.65362 -0.23400
O 	O 	0.07628 0.76262 0.72772 -0.32500
O 	O 	0.21675 0.83638 0.60581 -0.28700
O 	O 	0.14294 0.74890 0.63402 -0.73100
H 	H 	0.14629 0.73140 0.67570 0.19500
C 	C 	0.31770 0.87275 0.13751 0.26700
C 	C 	0.45726 0.71745 0.04710 0.32100
C 	C 	0.30507 0.79680 0.98647 0.36000
C 	C 	0.46554 0.78987 0.19394 0.30400
C 	C 	0.31782 0.65095 0.08867 0.30400
C 	C 	0.29653 0.71942 0.24852 0.30200
Ni	Ni	0.39722 0.80908 0.07308 1.13200
Ni	Ni	0.39221 0.70840 0.16513 1.14200
Ni	Ni	0.29005 0.75930 0.11691 1.15600
O 	O 	0.36574 0.87101 0.11900 -0.28700
O 	O 	0.28317 0.83848 0.11654 -0.23300
O 	O 	0.36557 0.65584 0.10439 -0.30200
O 	O 	0.42292 0.74696 0.02171 -0.34800
O 	O 	0.45614 0.70816 0.10941 -0.30000
O 	O 	0.28058 0.75753 0.21228 -0.29400
O 	O 	0.34428 0.82590 0.00090 -0.32500
O 	O 	0.29543 0.75600 0.02036 -0.33500
O 	O 	0.33845 0.69314 0.23444 -0.29600
O 	O 	0.46175 0.80744 0.13355 -0.28200
O 	O 	0.43031 0.75958 0.21943 -0.33300
O 	O 	0.28306 0.68155 0.11324 -0.25800
O 	O 	0.36015 0.76673 0.12949 -0.72800
H 	H 	0.35938 0.78839 0.16817 0.17300
C 	C 	0.21083 0.04287 0.42803 0.26800
C 	C 	0.20441 0.22189 0.24236 0.32800
C 	C 	0.27775 0.05882 0.27776 0.35000
C 	C 	0.13098 0.19862 0.39535 0.29200
C 	C 	0.34546 0.19798 0.33148 0.30900
C 	C 	0.28314 0.20066 0.50321 0.30100
Ni	Ni	0.18976 0.12183 0.31751 1.13300
Ni	Ni	0.24275 0.22466 0.37453 1.14500
Ni	Ni	0.29327 0.11642 0.40180 1.14300
O 	O 	0.18886 0.05302 0.37137 -0.27800
O 	O 	0.24504 0.07377 0.45468 -0.31900
O 	O 	0.31903 0.22971 0.36741 -0.30100
O 	O 	0.17538 0.18112 0.25110 -0.26700
O 	O 	0.24404 0.22924 0.27854 -0.32900
O 	O 	0.31190 0.16464 0.47633 -0.29500
O 	O 	0.24556 0.09320 0.25753 -0.29900
O 	O 	0.28955 0.05623 0.33920 -0.28100
O 	O 	0.24868 0.22618 0.47032 -0.27100
O 	O 	0.13067 0.15190 0.37041 -0.30600
O 	O 	0.16509 0.23392 0.37683 -0.27200
O 	O 	0.34284 0.14854 0.34142 -0.28500
O 	O 	0.23482 0.15292 0.37566 -0.72200
H 	H 	0.21485 0.15022 0.41558 0.17800
C 	C 	0.29018 0.47059 0.93756 0.29500
C 	C 	0.28069 0.30089 0.74862 0.30200
C 	C 	0.22934 0.46236 0.77919 0.32500
C 	C 	0.34781 0.30729 0.91677 0.30400
C 	C 	0.14021 0.32851 0.83084 0.31500
C 	C 	0.19925 0.33396 0.00524 0.25300
Ni	Ni	0.30778 0.39172 0.83193 1.13500
Ni	Ni	0.23957 0.29517 0.88066 1.14600
Ni	Ni	0.19738 0.40883 0.89834 1.14000
O 	O 	0.32430 0.43978 0.91043 -0.27300
O 	O 	0.24211 0.47071 0.91893 -0.31700
O 	O 	0.17997 0.29962 0.82064 -0.28600
O 	O 	0.28667 0.35110 0.74892 -0.28100
O 	O 	0.28225 0.27558 0.80311 -0.27600
O 	O 	0.19521 0.38346 0.99054 -0.27700
O 	O 	0.27710 0.45724 0.79368 -0.27400
O 	O 	0.19448 0.43282 0.80549 -0.28100
O 	O 	0.19524 0.29811 0.96028 -0.30100
O 	O 	0.35345 0.33140 0.86126 -0.31100
O 	O 	0.30389 0.28545 0.93312 -0.25900
O 	O 	0.13961 0.36056 0.87932 -0.31000
O 	O 	0.25401 0.36663 0.88218 -0.72400
H 	H 	0.26979 0.36900 0.92489 0.18700
C 	C 	0.79437 0.13492 0.61478 0.28700
C 	C 	0.95676 0.27169 0.69718 0.31600
C 	C 	0.80932 0.20281 0.77149 0.32500
C 	C 	0.94689 0.21327 0.53995 0.29800
C 	C 	0.81774 0.35093 0.68023 0.32400
C 	C 	0.78588 0.28591 0.51479 0.29800
Ni	Ni	0.88710 0.18645 0.66684 1.14700
Ni	Ni	0.88341 0.29517 0.59145 1.13700
Ni	Ni	0.78175 0.24710 0.64799 1.13500
O 	O 	0.84424 0.13202 0.61992 -0.28800
O 	O 	0.76763 0.16952 0.64717 -0.30600
O 	O 	0.86459 0.34258 0.66282 -0.32200
O 	O 	0.92353 0.24055 0.72264 -0.25800
O 	O 	0.95149 0.28766 0.63743 -0.33300
O 	O 	0.76176 0.25523 0.55584 -0.33200
O 	O 	0.83947 0.16920 0.74492 -0.24600
O 	O 	0.79974 0.24558 0.74192 -0.30200
O 	O 	0.82453 0.31599 0.53304 -0.28300
O 	O 	0.94507 0.18784 0.59603 -0.27000
O 	O 	0.91326 0.24854 0.52476 -0.30400
O 	O 	0.78027 0.32400 0.65553 -0.31300
O 	O 	0.84944 0.23572 0.62225 -0.72200
H 	H 	0.84338 0.21781 0.58123 0.17400
C 	C 	0.69244 0.36303 0.10778 0.27800
C 	C 	0.53222 0.22837 0.19915 0.31300
C 	C 	0.68839 0.28588 0.26745 0.31200
C 	C 	0.53720 0.29170 0.05028 0.29400
C 	C 	0.67070 0.14375 0.16269 0.33200
C 	C 	0.69539 0.21107 0.00272 0.29900
Ni	Ni	0.60504 0.31020 0.17203 1.15100
Ni	Ni	0.60113 0.20567 0.08782 1.14100
Ni	Ni	0.70743 0.24983 0.13491 1.13900
O 	O 	0.64426 0.36722 0.12430 -0.27500
O 	O 	0.72213 0.32770 0.13468 -0.30600
O 	O 	0.62360 0.15767 0.15597 -0.33600
O 	O 	0.56999 0.25329 0.22488 -0.26900
O 	O 	0.53559 0.21218 0.13930 -0.34100
O 	O 	0.71884 0.24478 0.04011 -0.29300
O 	O 	0.65819 0.32168 0.24568 -0.29300
O 	O 	0.70054 0.24698 0.23131 -0.30700
O 	O 	0.65565 0.18366 0.02343 -0.26900
O 	O 	0.54271 0.31367 0.10816 -0.25100
O 	O 	0.56935 0.25708 0.02848 -0.28600
O 	O 	0.70826 0.17210 0.13946 -0.28800
O 	O 	0.63824 0.26265 0.11983 -0.73100
H 	H 	0.64168 0.28247 0.07988 0.20900
C 	C 	0.72678 0.19191 0.82627 0.09100
C 	C 	0.77977 0.18946 0.82958 0.04300
C 	C 	0.80355 0.18374 0.89004 -0.04200
C 	C 	0.77393 0.18552 0.94634 0.07500
C 	C 	0.72174 0.19504 0.94321 0.08100
C 	C 	0.69735 0.19595 0.88256 -0.06300
C 	C 	0.64035 0.20176 0.87755 0.78600
H 	H 	0.70886 0.19379 0.77948 0.10900
H 	H 	0.79178 0.18221 0.99304 0.14600
C 	C 	0.86051 0.17763 0.89479 0.78300
F 	F 	0.62432 0.20349 0.81421 -0.37900
F 	F 	0.62557 0.24655 0.90709 -0.37600
F 	F 	0.61651 0.16065 0.90691 -0.38000
F 	F 	0.88456 0.22052 0.86997 -0.35700
F 	F 	0.87521 0.13499 0.86047 -0.34800
F 	F 	0.87626 0.17146 0.95779 -0.35400
C 	C 	0.75355 0.24317 0.41784 0.07400
C 	C 	0.76584 0.28917 0.44843 0.03100
C 	C 	0.74884 0.33594 0.42121 -0.06600
C 	C 	0.72232 0.33465 0.36197 0.06600
C 	C 	0.70721 0.28768 0.33473 0.03500
C 	C 	0.71810 0.24190 0.36808 -0.06900
C 	C 	0.69194 0.19170 0.35187 0.78500
H 	H 	0.76796 0.20778 0.43694 0.11200
H 	H 	0.71418 0.36987 0.33674 0.12300
C 	C 	0.75997 0.38687 0.45353 0.78400
F 	F 	0.72102 0.16517 0.30813 -0.39900
F 	F 	0.64420 0.19969 0.32668 -0.40900
F 	F 	0.68619 0.16201 0.40658 -0.39500
F 	F 	0.81142 0.39682 0.45168 -0.38500
F 	F 	0.74377 0.38581 0.51681 -0.39900
F 	F 	0.73548 0.42667 0.42302 -0.37100
C 	C 	0.46091 0.25147 0.00253 0.04100
C 	C 	0.48813 0.29632 0.01733 0.05000
C 	C 	0.46716 0.34460 0.00312 -0.08600
C 	C 	0.41811 0.34677 0.97737 0.10300
C 	C 	0.39237 0.30205 0.95852 0.03800
C 	C 	0.41385 0.25370 0.97120 -0.02700
C 	C 	0.38639 0.20455 0.95266 0.77900
H 	H 	0.47660 0.21477 0.01562 0.10900
H 	H 	0.40050 0.38349 0.96947 0.11000
C 	C 	0.49629 0.39386 0.01636 0.76200
F 	F 	0.41574 0.16189 0.96390 -0.36700
F 	F 	0.37438 0.20520 0.88790 -0.38500
F 	F 	0.34250 0.19964 0.98843 -0.35400
F 	F 	0.54625 0.38943 0.99735 -0.36900
F 	F 	0.49445 0.40474 0.08138 -0.36800
F 	F 	0.47586 0.43463 0.98308 -0.36400
C 	C 	0.07519 0.26422 0.80051 0.08200
C 	C 	0.09209 0.31511 0.79836 0.04700
C 	C 	0.06392 0.35186 0.76338 -0.06800
C 	C 	0.01807 0.33696 0.73449 0.07400
C 	C 	0.00282 0.28562 0.73347 0.02900
C 	C 	0.03278 0.24823 0.76486 -0.05500
C 	C 	0.01986 0.19154 0.76112 0.77900
H 	H 	0.09612 0.23672 0.82873 0.13100
H 	H 	0.99470 0.36515 0.71090 0.11800
C 	C 	0.08485 0.40511 0.75102 0.78200
F 	F 	0.05984 0.16182 0.78159 -0.35300
F 	F 	0.00914 0.17753 0.69852 -0.42300
F 	F 	0.97861 0.18079 0.79991 -0.36200
F 	F 	0.13019 0.40130 0.71840 -0.37900
F 	F 	0.09181 0.43070 0.80850 -0.42000
F 	F 	0.05258 0.43403 0.71357 -0.37800
C 	C 	0.42028 0.25356 0.31193 0.06600
C 	C 	0.38524 0.21774 0.28815 0.03600
C 	C 	0.39633 0.19151 0.23037 -0.07300
C 	C 	0.44603 0.19139 0.20777 0.08000
C 	C 	0.48203 0.22623 0.23165 0.02300
C 	C 	0.46724 0.26126 0.28094 -0.05800
C 	C 	0.49957 0.30734 0.29945 0.78100
H 	H 	0.41168 0.27425 0.35569 0.14700
H 	H 	0.45568 0.16662 0.16788 0.11400
C 	C 	0.35518 0.17037 0.18684 0.79000
F 	F 	0.47273 0.34116 0.33735 -0.36100
F 	F 	0.51496 0.33383 0.24513 -0.43100
F 	F 	0.54125 0.29164 0.33418 -0.38300
F 	F 	0.30813 0.16997 0.21514 -0.44400
F 	F 	0.36665 0.12089 0.16901 -0.37900
F 	F 	0.35288 0.20014 0.13195 -0.38900
C 	C 	0.04004 0.22154 0.53179 0.06700
C 	C 	0.99384 0.21083 0.50139 0.03100
C 	C 	0.99258 0.20311 0.43395 -0.06700
C 	C 	0.03778 0.20796 0.39830 0.06000
C 	C 	0.08453 0.21498 0.42938 0.04700
C 	C 	0.08531 0.22501 0.49630 -0.08400
C 	C 	0.13444 0.23710 0.53055 0.78600
H 	H 	0.04052 0.22787 0.58329 0.12500
H 	H 	0.03716 0.20291 0.34657 0.14200
C 	C 	0.94340 0.18989 0.39969 0.78300
F 	F 	0.12615 0.25442 0.59249 -0.37500
F 	F 	0.16058 0.27506 0.49787 -0.40400
F 	F 	0.16323 0.19335 0.53374 -0.43700
F 	F 	0.91496 0.23360 0.39233 -0.39300
F 	F 	0.91585 0.15410 0.43453 -0.38700
F 	F 	0.95233 0.16940 0.33940 -0.36800
C 	C 	0.24528 0.27430 0.15709 0.08700
C 	C 	0.20047 0.25298 0.18241 0.02700
C 	C 	0.15331 0.26768 0.15561 -0.06800
C 	C 	0.15312 0.29761 0.09885 0.06000
C 	C 	0.19841 0.31783 0.07334 0.04300
C 	C 	0.24417 0.30998 0.10698 -0.08900
C 	C 	0.29215 0.34019 0.09269 0.78900
H 	H 	0.28131 0.26532 0.17901 0.13100
H 	H 	0.11799 0.30376 0.07327 0.11400
C 	C 	0.10347 0.25128 0.18596 0.78200
F 	F 	0.30800 0.36460 0.14824 -0.38500
F 	F 	0.28647 0.37692 0.04571 -0.47000
F 	F 	0.32942 0.30675 0.07376 -0.41400
F 	F 	0.10432 0.25994 0.25160 -0.41300
F 	F 	0.09487 0.19989 0.17431 -0.38700
F 	F 	0.06337 0.27847 0.16078 -0.38400
C 	C 	0.31901 0.28856 0.63957 0.07400
C 	C 	0.28404 0.27216 0.68646 0.04700
C 	C 	0.25429 0.22733 0.67459 -0.06100
C 	C 	0.26420 0.19793 0.61931 0.07500
C 	C 	0.29410 0.21765 0.56961 0.04300
C 	C 	0.32424 0.26179 0.58098 -0.06600
C 	C 	0.35989 0.28201 0.52949 0.78400
H 	H 	0.34162 0.32260 0.64836 0.12900
H 	H 	0.24386 0.16232 0.61146 0.12900
C 	C 	0.20624 0.21652 0.71243 0.78800
F 	F 	0.39485 0.31624 0.55474 -0.37000
F 	F 	0.33234 0.30666 0.48244 -0.39000
F 	F 	0.38632 0.24223 0.50187 -0.39800
F 	F 	0.17540 0.25871 0.70899 -0.38800
F 	F 	0.21726 0.20528 0.77576 -0.41300
F 	F 	0.17933 0.17536 0.68758 -0.35900
C 	C 	0.33615 0.93519 0.22367 0.04800
C 	C 	0.30218 0.91785 0.17630 0.06900
C 	C 	0.26145 0.94995 0.15785 -0.08500
C 	C 	0.25456 0.99694 0.19042 0.14400
C 	C 	0.29051 0.01487 0.23525 -0.00800
C 	C 	0.33453 0.98570 0.24620 0.01000
C 	C 	0.38031 0.00787 0.28089 0.73600
H 	H 	0.36694 0.91071 0.23848 0.12900
H 	H 	0.22073 0.01898 0.18197 0.09700
C 	C 	0.22433 0.93386 0.10575 0.79500
F 	F 	0.42433 0.98672 0.25705 -0.33700
F 	F 	0.37717 0.99704 0.34583 -0.35200
F 	F 	0.38396 0.06020 0.27255 -0.38400
F 	F 	0.19639 0.89210 0.12669 -0.34600
F 	F 	0.24992 0.92148 0.04989 -0.38300
F 	F 	0.19100 0.97267 0.09095 -0.36500
C 	C 	0.29621 0.51254 0.04393 0.02800
C 	C 	0.30747 0.51395 0.97797 0.07600
C 	C 	0.32019 0.56142 0.94906 -0.08900
C 	C 	0.31349 0.60699 0.98403 0.10700
C 	C 	0.30297 0.60578 0.05011 0.01500
C 	C 	0.29379 0.55800 0.08048 -0.04400
C 	C 	0.28223 0.55537 0.15194 0.77500
H 	H 	0.28700 0.47617 0.06610 0.14500
H 	H 	0.32019 0.64360 0.96088 0.11000
C 	C 	0.33961 0.56392 0.88049 0.79600
F 	F 	0.26823 0.50651 0.17100 -0.37100
F 	F 	0.24284 0.58778 0.16643 -0.36300
F 	F 	0.32455 0.56994 0.18670 -0.38400
F 	F 	0.29954 0.55919 0.83837 -0.41500
F 	F 	0.37371 0.52515 0.86922 -0.39100
F 	F 	0.36420 0.60992 0.86842 -0.38400
C 	C 	0.21387 0.90626 0.48544 0.08400
C 	C 	0.19231 0.91131 0.54634 0.01100
C 	C 	0.17391 0.95934 0.56673 -0.03400
C 	C 	0.17478 0.00066 0.52361 0.00700
C 	C 	0.19671 0.99577 0.46263 0.08100
C 	C 	0.21359 0.94705 0.44165 -0.09300
C 	C 	0.23461 0.93881 0.37461 0.78800
H 	H 	0.22887 0.86953 0.47113 0.10400
H 	H 	0.16024 0.03746 0.53836 0.12700
C 	C 	0.15174 0.96630 0.63354 0.78100
F 	F 	0.23540 0.88735 0.35893 -0.40700
F 	F 	0.28355 0.95728 0.37248 -0.40500
F 	F 	0.20550 0.96285 0.32874 -0.41400
F 	F 	0.18018 0.94063 0.67883 -0.37000
F 	F 	0.10266 0.94757 0.63466 -0.40300
F 	F 	0.15108 0.01739 0.65093 -0.37600
C 	C 	0.19783 0.79618 0.86410 0.07500
C 	C 	0.22334 0.81363 0.80927 0.05500
C 	C 	0.27300 0.83396 0.81517 -0.06400
C 	C 	0.29903 0.82840 0.87369 0.08500
C 	C 	0.27466 0.80769 0.92790 0.02500
C 	C 	0.22203 0.79554 0.92436 -0.05100
C 	C 	0.19166 0.78040 0.98352 0.79300
H 	H 	0.15965 0.78112 0.85937 0.12500
H 	H 	0.33876 0.83878 0.87652 0.12200
C 	C 	0.29969 0.85852 0.75820 0.78300
F 	F 	0.14048 0.78812 0.97370 -0.35500
F 	F 	0.20582 0.80946 0.03604 -0.40100
F 	F 	0.19886 0.72917 0.99682 -0.38400
F 	F 	0.26631 0.88734 0.72246 -0.36700
F 	F 	0.32008 0.82093 0.71959 -0.38200
F 	F 	0.33836 0.89075 0.77841 -0.36400
C 	C 	0.29505 0.69746 0.36515 0.07000
C 	C 	0.26805 0.70691 0.30836 0.04000
C 	C 	0.21419 0.70822 0.31058 -0.06400
C 	C 	0.18969 0.70873 0.37073 0.07200
C 	C 	0.21711 0.70240 0.42768 0.02600
C 	C 	0.26973 0.69284 0.42456 -0.07300
C 	C 	0.29886 0.67781 0.48433 0.78600
H 	H 	0.33594 0.69523 0.36332 0.11900
H 	H 	0.14933 0.71549 0.37333 0.11500
C 	C 	0.18252 0.71091 0.24979 0.78100
F 	F 	0.34685 0.66065 0.46939 -0.37000
F 	F 	0.27352 0.63869 0.51585 -0.40500
F 	F 	0.30357 0.71944 0.52490 -0.42100
F 	F 	0.20340 0.68185 0.20129 -0.37600
F 	F 	0.17901 0.76118 0.22976 -0.37400
F 	F 	0.13410 0.69218 0.26078 -0.36500
C 	C 	0.19615 0.54942 0.77783 0.09900
C 	C 	0.21450 0.50772 0.74305 0.04400
C 	C 	0.23211 0.51500 0.67932 -0.04900
C 	C 	0.23409 0.56468 0.65357 0.06500
C 	C 	0.21523 0.60614 0.68845 0.06100
C 	C 	0.20126 0.59916 0.75339 -0.07000
C 	C 	0.19148 0.64482 0.79636 0.78700
H 	H 	0.18238 0.54351 0.82643 0.11400
H 	H 	0.24677 0.57059 0.60456 0.15400
C 	C 	0.25122 0.47032 0.63985 0.77900
F 	F 	0.19272 0.63142 0.86078 -0.38800
F 	F 	0.14456 0.66501 0.78265 -0.41700
F 	F 	0.22833 0.68180 0.78623 -0.41700
F 	F 	0.22184 0.42709 0.65063 -0.36700
F 	F 	0.30073 0.46020 0.65663 -0.38500
F 	F 	0.24948 0.48106 0.57468 -0.36400
C 	C 	0.59198 0.67989 0.01211 0.02700
C 	C 	0.60229 0.70607 0.95462 0.06500
C 	C 	0.56379 0.73594 0.92609 -0.08400
C 	C 	0.51587 0.73811 0.95595 0.09900
C 	C 	0.50480 0.70807 0.01063 -0.00800
C 	C 	0.54219 0.67453 0.03441 -0.05400
C 	C 	0.52920 0.63102 0.08015 0.77800
H 	H 	0.62191 0.65851 0.03509 0.13700
H 	H 	0.48734 0.76345 0.93705 0.10900
C 	C 	0.57378 0.76618 0.86485 0.78900
F 	F 	0.56185 0.59052 0.07128 -0.36000
F 	F 	0.48058 0.61276 0.06953 -0.39200
F 	F 	0.53364 0.64772 0.14300 -0.38800
F 	F 	0.58817 0.73359 0.81588 -0.40000
F 	F 	0.61181 0.80182 0.87564 -0.36700
F 	F 	0.53125 0.79209 0.84448 -0.37300
C 	C 	0.92354 0.66721 0.77358 0.07600
C 	C 	0.90677 0.70442 0.81725 0.06400
C 	C 	0.93752 0.74838 0.82854 -0.06600
C 	C 	0.98312 0.75412 0.79389 0.08200
C 	C 	0.00119 0.71444 0.75446 0.04100
C 	C 	0.97318 0.66834 0.75030 -0.04100
C 	C 	0.99633 0.61952 0.72446 0.78400
H 	H 	0.89984 0.63408 0.76401 0.15300
H 	H 	0.00433 0.78965 0.79700 0.11700
C 	C 	0.92169 0.78968 0.87565 0.78900
F 	F 	0.97477 0.57715 0.75406 -0.37400
F 	F 	0.04785 0.61823 0.73614 -0.38700
F 	F 	0.98770 0.61592 0.65907 -0.34400
F 	F 	0.91374 0.76877 0.93601 -0.37000
F 	F 	0.87785 0.81251 0.85415 -0.34600
F 	F 	0.95842 0.82746 0.88180 -0.36000
C 	C 	0.79975 0.44314 0.68019 0.06900
C 	C 	0.80680 0.39808 0.71538 0.02500
C 	C 	0.81144 0.40030 0.78317 -0.07300
C 	C 	0.80366 0.44703 0.81453 0.07100
C 	C 	0.79767 0.49237 0.77925 0.02500
C 	C 	0.80014 0.49083 0.71118 -0.07000
C 	C 	0.80733 0.53918 0.67182 0.79000
H 	H 	0.79721 0.44123 0.62819 0.13600
H 	H 	0.80162 0.44815 0.86654 0.10300
C 	C 	0.82147 0.35252 0.82255 0.78700
F 	F 	0.82717 0.52847 0.61170 -0.35900
F 	F 	0.84082 0.57187 0.70247 -0.38000
F 	F 	0.76140 0.56316 0.66352 -0.38200
F 	F 	0.86269 0.32660 0.79840 -0.40500
F 	F 	0.77922 0.32113 0.82086 -0.38900
F 	F 	0.83184 0.36418 0.88617 -0.37700
C 	C 	0.71322 0.45359 0.97142 0.14000
C 	C 	0.71327 0.50010 0.00502 -0.04200
C 	C 	0.71526 0.49954 0.07337 -0.04400
C 	C 	0.72147 0.45254 0.10537 0.04300
C 	C 	0.71523 0.40621 0.07233 0.06100
C 	C 	0.71363 0.40666 0.00427 -0.13700
C 	C 	0.71231 0.35714 0.96658 0.81400
H 	H 	0.71296 0.45405 0.91935 0.08500
H 	H 	0.72532 0.45184 0.15728 0.12300
C 	C 	0.70933 0.54810 0.11269 0.77700
F 	F 	0.71292 0.36564 0.90092 -0.38600
F 	F 	0.66864 0.33004 0.98081 -0.40900
F 	F 	0.75419 0.32849 0.98224 -0.39300
F 	F 	0.67406 0.58009 0.08506 -0.39100
F 	F 	0.75542 0.57331 0.11696 -0.40600
F 	F 	0.69278 0.53705 0.17440 -0.36400
C 	C 	0.59608 0.83453 0.24868 0.06600
C 	C 	0.60885 0.79520 0.29149 0.02600
C 	C 	0.57983 0.74956 0.29106 -0.06400
C 	C 	0.53251 0.74924 0.26004 0.07000
C 	C 	0.51548 0.79255 0.22631 0.02700
C 	C 	0.54766 0.83612 0.22087 -0.07000
C 	C 	0.53079 0.88445 0.18656 0.78400
H 	H 	0.62177 0.86679 0.24311 0.09800
H 	H 	0.50896 0.71513 0.26162 0.12100
C 	C 	0.59984 0.70077 0.32071 0.78300
F 	F 	0.56060 0.92608 0.20351 -0.37000
F 	F 	0.48137 0.89604 0.20252 -0.38800
F 	F 	0.53468 0.87775 0.12079 -0.40100
F 	F 	0.59674 0.70367 0.38693 -0.35100
F 	F 	0.64964 0.69359 0.30258 -0.38300
F 	F 	0.57237 0.65834 0.30069 -0.35500
C 	C 	0.90884 0.76322 0.47628 0.07300
C 	C 	0.90552 0.80698 0.43800 0.03500
C 	C 	0.94813 0.84012 0.43204 -0.06800
C 	C 	0.98941 0.83366 0.47367 0.07200
C 	C 	0.99225 0.79058 0.51341 0.02400
C 	C 	0.95292 0.75312 0.51157 -0.07200
C 	C 	0.95593 0.70435 0.55067 0.79900
H 	H 	0.87629 0.73789 0.48028 0.12500
H 	H 	0.02016 0.86140 0.47376 0.10700
C 	C 	0.95006 0.88223 0.38177 0.78100
F 	F 	0.91763 0.67019 0.53467 -0.34700
F 	F 	0.95126 0.71630 0.61504 -0.39100
F 	F 	0.00128 0.68001 0.53959 -0.42500
F 	F 	0.92735 0.92566 0.40573 -0.39400
F 	F 	0.92574 0.86712 0.32593 -0.38700
F 	F 	0.99963 0.89426 0.36581 -0.37400
C 	C 	0.78957 0.81567 0.13066 0.06300
C 	C 	0.80877 0.79233 0.18579 0.03900
C 	C 	0.83495 0.74562 0.18051 -0.06700
C 	C 	0.83165 0.71788 0.12293 0.07900
C 	C 	0.80731 0.73876 0.06921 0.02900
C 	C 	0.79145 0.79059 0.07113 -0.06300
C 	C 	0.77572 0.81918 0.01094 0.75400
H 	H 	0.77130 0.85251 0.13460 0.10500
H 	H 	0.84594 0.67920 0.12079 0.12600
C 	C 	0.86365 0.72379 0.23723 0.78400
F 	F 	0.78269 0.87135 0.01880 -0.35700
F 	F 	0.72509 0.80986 0.99847 -0.38900
F 	F 	0.80438 0.80451 0.95869 -0.38100
F 	F 	0.82997 0.70148 0.27997 -0.39600
F 	F 	0.89065 0.76205 0.26822 -0.37700
F 	F 	0.89776 0.68713 0.21749 -0.37100
C 	C 	0.75731 0.76505 0.60209 0.08100
C 	C 	0.71066 0.77389 0.57224 0.01800
C 	C 	0.66594 0.75205 0.59931 -0.05400
C 	C 	0.66949 0.72402 0.65745 0.06400
C 	C 	0.71690 0.71397 0.68520 0.05200
C 	C 	0.76126 0.73052 0.65301 -0.07700
C 	C 	0.81339 0.71445 0.67499 0.78600
H 	H 	0.79137 0.78283 0.58291 0.09800
H 	H 	0.63544 0.71188 0.68240 0.14500
C 	C 	0.61449 0.76089 0.56914 0.78100
F 	F 	0.84488 0.70886 0.62241 -0.37300
F 	F 	0.81178 0.66824 0.70714 -0.40900
F 	F 	0.83359 0.75158 0.71498 -0.40500
F 	F 	0.61552 0.74850 0.50456 -0.36800
F 	F 	0.60145 0.81167 0.57611 -0.37100
F 	F 	0.57729 0.73108 0.59793 -0.35900
C 	C 	0.76326 0.09815 0.51502 0.06900
C 	C 	0.76824 0.09340 0.58139 0.02900
C 	C 	0.76800 0.04414 0.60887 -0.06600
C 	C 	0.77499 0.00148 0.56894 0.04900
C 	C 	0.77866 0.00727 0.50176 0.01700
C 	C 	0.77652 0.05736 0.47483 -0.06600
C 	C 	0.79479 0.06884 0.40690 0.79100
H 	H 	0.75741 0.13567 0.49487 0.10500
H 	H 	0.77741 0.96365 0.59002 0.12700
C 	C 	0.76537 0.03727 0.68114 0.77100
F 	F 	0.80233 0.12073 0.39737 -0.37900
F 	F 	0.75924 0.05225 0.36283 -0.40400
F 	F 	0.84066 0.04541 0.39556 -0.37500
F 	F 	0.73522 0.07436 0.70857 -0.38800
F 	F 	0.81352 0.04097 0.70676 -0.38000
F 	F 	0.74494 0.98994 0.69677 -0.36000
C 	C 	0.71832 0.01037 0.20099 0.01800
C 	C 	0.69182 0.99997 0.25850 0.10300
C 	C 	0.65313 0.03376 0.27782 -0.08800
C 	C 	0.65166 0.08274 0.25046 0.10800
C 	C 	0.68082 0.09492 0.19587 0.03000
C 	C 	0.71180 0.05688 0.16803 -0.04000
C 	C 	0.73856 0.06564 0.10411 0.77400
H 	H 	0.74506 0.98277 0.18286 0.14400
H 	H 	0.62559 0.11070 0.26947 0.13600
C 	C 	0.61146 0.01741 0.32393 0.78500
F 	F 	0.75843 0.02073 0.08005 -0.37400
F 	F 	0.77787 0.10027 0.11228 -0.38200
F 	F 	0.70509 0.08416 0.05878 -0.40400
F 	F 	0.62559 0.02909 0.38628 -0.38500
F 	F 	0.60131 0.96555 0.31896 -0.38700
F 	F 	0.56705 0.04289 0.31019 -0.36800
