data_crystal

_cell_length_a 18.54407
_cell_length_b 18.95520
_cell_length_c 26.30661
_cell_angle_alpha 95.42759
_cell_angle_beta  95.42834
_cell_angle_gamma 126.41887

_symmetry_space_group_name_	'P 1'
_symmetry_space_group_name_H-M	'P 1'

loop_
_symmetry_equiv_pos_as_xyz
  x,y,z

loop_
_atom_site_label
_atom_site_type_symbol
_atom_site_fract_x
_atom_site_fract_y
_atom_site_fract_z
_atom_site_charge
C 	C 	0.93426 0.02621 0.00110 0.21300
C 	C 	0.87735 0.93428 0.00092 -0.11600
C 	C 	0.91327 0.88696 0.00012 0.20900
C 	C 	0.00596 0.93128 0.99959 -0.10700
C 	C 	0.06332 0.02317 0.00032 0.22000
C 	C 	0.02753 0.07085 0.00100 -0.11600
H 	H 	0.80517 0.89956 0.00071 0.13600
H 	H 	0.03350 0.89430 0.99868 0.13400
H 	H 	0.07174 0.14197 0.00109 0.13900
C 	C 	0.91648 0.00633 0.44828 0.22700
C 	C 	0.00996 0.06050 0.44707 -0.12700
C 	C 	0.05763 0.02464 0.44788 0.23600
C 	C 	0.01188 0.93403 0.44903 -0.13100
C 	C 	0.91823 0.87860 0.44955 0.22700
C 	C 	0.87018 0.91484 0.44955 -0.12000
H 	H 	0.04602 0.13105 0.44674 0.14000
H 	H 	0.04930 0.90668 0.44986 0.13700
H 	H 	0.79798 0.87261 0.45077 0.14300
Cu	Cu	0.60731 0.19621 0.00929 0.93600
Cu	Cu	0.66941 0.20517 0.89609 0.90500
Cu	Cu	0.64362 0.33520 0.94365 0.91400
Cu	Cu	0.60899 0.35843 0.04998 0.91700
C 	C 	0.64800 0.26499 0.11840 0.30100
O 	O 	0.47567 0.14167 0.01386 -0.32700
C 	C 	0.62039 0.28584 0.83010 0.30200
O 	O 	0.67850 0.33499 0.01463 -0.63900
O 	O 	0.58648 0.20517 0.93569 -0.63000
O 	O 	0.66469 0.13545 0.00079 -0.33400
O 	O 	0.75931 0.23189 0.95185 -0.39000
O 	O 	0.60139 0.29568 0.10826 -0.33000
O 	O 	0.70815 0.46273 0.95480 -0.33600
C 	C 	0.70773 0.51099 0.99427 0.40800
C 	C 	0.43813 0.17846 0.99757 0.39700
O 	O 	0.49006 0.26135 0.99097 -0.36100
O 	O 	0.65515 0.47416 0.02885 -0.34600
O 	O 	0.64640 0.21051 0.08226 -0.30200
C 	C 	0.73958 0.17309 0.98142 0.40000
O 	O 	0.62101 0.33597 0.86901 -0.31500
O 	O 	0.60944 0.21205 0.83605 -0.37100
H 	H 	0.74504 0.37540 0.02831 0.19400
H 	H 	0.52209 0.16574 0.91735 0.21100
Cu	Cu	0.77328 0.35543 0.44663 0.93600
Cu	Cu	0.76021 0.29054 0.55891 0.90400
Cu	Cu	0.62644 0.31231 0.50993 0.91200
Cu	Cu	0.60325 0.34673 0.40376 0.91800
C 	C 	0.71079 0.32303 0.33673 0.30200
O 	O 	0.82455 0.48518 0.44365 -0.31700
C 	C 	0.67477 0.33611 0.62390 0.30200
O 	O 	0.63069 0.28134 0.43922 -0.63600
O 	O 	0.76016 0.37193 0.51966 -0.63400
O 	O 	0.83428 0.29669 0.45496 -0.32200
O 	O 	0.73332 0.20327 0.50282 -0.39100
O 	O 	0.67389 0.36326 0.34729 -0.32700
O 	O 	0.49545 0.24525 0.49759 -0.33600
C 	C 	0.44463 0.24099 0.45684 0.39900
C 	C 	0.78179 0.51761 0.45843 0.38600
O 	O 	0.69683 0.46273 0.46419 -0.36300
O 	O 	0.48074 0.29206 0.42184 -0.33800
O 	O 	0.76242 0.32079 0.37368 -0.30500
C 	C 	0.79408 0.22239 0.47376 0.38700
O 	O 	0.62291 0.33321 0.58424 -0.31700
O 	O 	0.75083 0.34756 0.61873 -0.37100
H 	H 	0.59170 0.21642 0.42518 0.19700
H 	H 	0.79834 0.43451 0.53858 0.21000
C 	C 	0.71500 0.40068 0.71792 -0.01300
C 	C 	0.65057 0.33283 0.67575 -0.05400
C 	C 	0.56851 0.25621 0.68470 0.11600
C 	C 	0.55572 0.24451 0.73576 -0.01300
C 	C 	0.62411 0.30860 0.77799 -0.05300
C 	C 	0.70216 0.38901 0.76898 0.11500
N 	N 	0.77073 0.45711 0.81159 -0.02200
H 	H 	0.77715 0.46078 0.71119 0.09500
H 	H 	0.49447 0.18356 0.74251 0.09600
N 	N 	0.50001 0.18803 0.64210 -0.02200
O 	O 	0.82149 0.44406 0.84022 -0.08000
O 	O 	0.78768 0.53483 0.81891 -0.01600
O 	O 	0.51496 0.13882 0.61448 -0.07900
O 	O 	0.41995 0.17003 0.63384 -0.01500
C 	C 	0.64925 0.21616 0.25362 -0.01800
C 	C 	0.71485 0.30283 0.28224 -0.04500
C 	C 	0.77170 0.37278 0.25615 0.12600
C 	C 	0.75433 0.35752 0.20166 -0.01900
C 	C 	0.68166 0.27309 0.17310 -0.04900
C 	C 	0.63216 0.20094 0.19912 0.13200
N 	N 	0.56181 0.11294 0.17047 -0.02500
H 	H 	0.60728 0.16161 0.27359 0.09200
H 	H 	0.79496 0.41234 0.18159 0.08500
N 	N 	0.84510 0.46009 0.28489 -0.01900
O 	O 	0.57123 0.05027 0.17108 -0.02100
O 	O 	0.48518 0.09357 0.14768 -0.01100
O 	O 	0.90248 0.46959 0.32271 -0.02500
O 	O 	0.85921 0.53040 0.27034 -0.00700
C 	C 	0.85304 0.75106 0.49700 0.25500
C 	C 	0.87142 0.78259 0.45005 -0.14000
C 	C 	0.86212 0.72718 0.40627 0.25400
C 	C 	0.83756 0.64242 0.40980 0.29300
C 	C 	0.82089 0.61154 0.45697 -0.19900
C 	C 	0.82753 0.66581 0.50038 0.29400
F 	F 	0.80961 0.63606 0.54591 -0.37500
F 	F 	0.86272 0.80410 0.53978 -0.35000
F 	F 	0.82734 0.58924 0.36695 -0.37200
F 	F 	0.87921 0.75653 0.36058 -0.34900
C 	C 	0.83320 0.12806 0.50822 0.29300
C 	C 	0.82253 0.16425 0.46636 -0.20000
C 	C 	0.83295 0.13976 0.41704 0.29700
C 	C 	0.85624 0.08170 0.41004 0.25300
C 	C 	0.86960 0.04779 0.45230 -0.13800
C 	C 	0.85596 0.06979 0.50108 0.25600
F 	F 	0.86944 0.03831 0.54232 -0.34800
F 	F 	0.82421 0.15153 0.55625 -0.39400
F 	F 	0.86865 0.06057 0.36255 -0.35100
F 	F 	0.81981 0.17148 0.37583 -0.36800
C 	C 	0.19139 0.07912 0.40516 0.26000
C 	C 	0.15655 0.08281 0.44957 -0.14700
C 	C 	0.21642 0.13966 0.49616 0.25700
C 	C 	0.31063 0.19191 0.49851 0.29800
C 	C 	0.34566 0.18734 0.45426 -0.19800
C 	C 	0.28562 0.13117 0.40747 0.29500
F 	F 	0.31870 0.12571 0.36459 -0.37200
F 	F 	0.13379 0.02446 0.35990 -0.34400
F 	F 	0.36795 0.24794 0.54354 -0.36100
F 	F 	0.18310 0.14351 0.53928 -0.35500
C 	C 	0.85784 0.75874 0.04490 0.24800
C 	C 	0.85396 0.79073 0.99959 -0.12500
C 	C 	0.80002 0.73057 0.95272 0.25100
C 	C 	0.75185 0.63897 0.95089 0.30100
C 	C 	0.75765 0.60701 0.99599 -0.19600
C 	C 	0.81006 0.66725 0.04312 0.29200
F 	F 	0.81640 0.63711 0.08689 -0.37400
F 	F 	0.90969 0.81669 0.09042 -0.34200
F 	F 	0.69875 0.58116 0.90551 -0.36100
F 	F 	0.79584 0.76119 0.90875 -0.35200
C 	C 	0.82822 0.12714 0.94495 0.29600
C 	C 	0.79547 0.14183 0.98767 -0.20100
C 	C 	0.81511 0.12507 0.03597 0.29500
C 	C 	0.86453 0.09129 0.04106 0.24500
C 	C 	0.89473 0.07415 0.99795 -0.12400
C 	C 	0.87786 0.09376 0.95019 0.25300
F 	F 	0.90653 0.07704 0.90827 -0.34600
F 	F 	0.80878 0.14186 0.89784 -0.39500
F 	F 	0.88164 0.07356 0.08760 -0.35000
F 	F 	0.78648 0.14168 0.07795 -0.36600
C 	C 	0.30642 0.11038 0.04302 0.28500
C 	C 	0.34108 0.13424 0.99726 -0.19600
C 	C 	0.28554 0.12613 0.95335 0.29100
C 	C 	0.19568 0.09339 0.95501 0.26600
C 	C 	0.16093 0.06901 0.00068 -0.15100
C 	C 	0.21686 0.07824 0.04477 0.25800
F 	F 	0.18392 0.05524 0.08919 -0.34900
F 	F 	0.36059 0.12117 0.08630 -0.36800
F 	F 	0.14168 0.08353 0.91195 -0.34900
F 	F 	0.31871 0.14977 0.90905 -0.37500
