data_crystal

_cell_length_a 17.78982
_cell_length_b 18.40159
_cell_length_c 31.43909
_cell_angle_alpha 60.65419
_cell_angle_beta  119.07883
_cell_angle_gamma 133.12637

_symmetry_space_group_name_	'P 1'
_symmetry_space_group_name_H-M	'P 1'

loop_
_symmetry_equiv_pos_as_xyz
  x,y,z

loop_
_atom_site_label
_atom_site_type_symbol
_atom_site_fract_x
_atom_site_fract_y
_atom_site_fract_z
_atom_site_charge
C 	C 	0.70550 0.25210 0.03821 0.10700
N 	N 	0.77829 0.34147 0.05354 -0.12800
C 	C 	0.74466 0.38239 0.06040 0.11000
N 	N 	0.64017 0.33439 0.05233 -0.13100
C 	C 	0.56806 0.24674 0.03696 0.11100
N 	N 	0.60021 0.20514 0.02987 -0.13500
C 	C 	0.70420 0.29984 0.50719 0.11100
N 	N 	0.59849 0.24019 0.50472 -0.13100
C 	C 	0.55705 0.28037 0.50546 0.11100
N 	N 	0.61971 0.37835 0.50787 -0.12900
C 	C 	0.72517 0.43362 0.51610 0.11400
N 	N 	0.76827 0.39542 0.51513 -0.12600
C 	C 	0.30311 0.66394 0.16812 0.11300
N 	N 	0.40901 0.71047 0.17870 -0.12500
C 	C 	0.44378 0.66853 0.17398 0.11700
N 	N 	0.37364 0.58081 0.15875 -0.12900
C 	C 	0.26852 0.53336 0.14809 0.11400
N 	N 	0.23213 0.57477 0.15249 -0.12800
C 	C 	0.27739 0.66403 0.67424 0.11500
N 	N 	0.38381 0.72318 0.67963 -0.12500
C 	C 	0.42771 0.68881 0.67632 0.12100
N 	N 	0.36653 0.59461 0.66929 -0.12900
C 	C 	0.26066 0.53619 0.66164 0.11600
N 	N 	0.21430 0.57015 0.66402 -0.12800
Co	Co	0.05381 0.01027 0.03331 1.15100
Co	Co	0.95472 0.90576 0.17158 1.19300
Co	Co	0.98038 0.07918 0.08001 1.17800
Co	Co	0.02865 0.83733 0.12478 1.17600
C 	C 	0.25401 0.09846 0.01614 0.28800
Co	Co	0.11406 0.87324 0.03910 1.16900
Co	Co	0.89791 0.04719 0.16520 1.16500
C 	C 	0.94616 0.66572 0.08765 0.32500
O 	O 	0.77057 0.00604 0.10497 -0.40500
O 	O 	0.94741 0.00716 0.13682 -0.76700
C 	C 	0.78599 0.07102 0.06116 0.29900
O 	O 	0.03152 0.11468 0.02193 -0.48500
O 	O 	0.98366 0.80544 0.18430 -0.44700
C 	C 	0.75884 0.82107 0.19360 0.31800
O 	O 	0.97783 0.94210 0.09650 -0.55300
C 	C 	0.06854 0.25151 0.11797 0.29600
C 	C 	0.97419 0.91224 0.94776 0.26700
C 	C 	0.22514 0.84963 0.14310 0.30300
O 	O 	0.84998 0.09051 0.04020 -0.37300
O 	O 	0.97922 0.83711 0.98274 -0.35900
O 	O 	0.98577 0.98102 0.95987 -0.31200
O 	O 	0.82104 0.90169 0.21115 -0.38600
O 	O 	0.79619 0.80516 0.17405 -0.37500
O 	O 	0.97218 0.19720 0.12215 -0.38700
O 	O 	0.09606 0.21385 0.10574 -0.39100
O 	O 	0.24124 0.91385 0.09934 -0.37800
O 	O 	0.16560 0.83607 0.16438 -0.36600
O 	O 	0.05604 0.90588 0.06674 -0.74200
C 	C 	0.04077 0.01004 0.25536 0.18700
O 	O 	0.03394 0.08466 0.22111 -0.38300
O 	O 	0.03741 0.94771 0.24243 -0.32600
O 	O 	0.19235 0.02169 0.99570 -0.40300
O 	O 	0.21571 0.10614 0.03948 -0.40600
O 	O 	0.04157 0.72235 0.08147 -0.41100
O 	O 	0.91976 0.69819 0.10415 -0.37800
Co	Co	0.05778 0.03537 0.52821 1.16300
Co	Co	0.92007 0.91736 0.65547 1.19400
Co	Co	0.00175 0.11677 0.57792 1.16700
Co	Co	0.99769 0.84681 0.61313 1.18800
C 	C 	0.25480 0.10525 0.51534 0.32500
Co	Co	0.10004 0.88271 0.53572 1.18000
Co	Co	0.90962 0.08311 0.65922 1.16300
C 	C 	0.91613 0.68209 0.57220 0.33700
O 	O 	0.92465 0.20370 0.59791 -0.40500
O 	O 	0.94587 0.03492 0.62835 -0.77500
C 	C 	0.87231 0.18891 0.55328 0.31100
O 	O 	0.05627 0.15177 0.52098 -0.46900
O 	O 	0.92833 0.80437 0.66523 -0.45000
C 	C 	0.71465 0.88101 0.64577 0.30500
O 	O 	0.96982 0.96829 0.58593 -0.55100
C 	C 	0.12475 0.25472 0.65117 0.30100
C 	C 	0.98010 0.94263 0.44062 0.30800
C 	C 	0.19007 0.84392 0.64251 0.30200
O 	O 	0.88477 0.14599 0.53568 -0.37600
O 	O 	0.97480 0.86114 0.47438 -0.37700
O 	O 	0.99394 0.01187 0.45374 -0.38500
O 	O 	0.75579 0.97981 0.62884 -0.36400
O 	O 	0.75882 0.84223 0.64783 -0.36600
O 	O 	0.06972 0.17771 0.68469 -0.40700
O 	O 	0.12836 0.23875 0.61483 -0.37700
O 	O 	0.21689 0.91140 0.60045 -0.37300
O 	O 	0.12457 0.83130 0.65936 -0.36700
O 	O 	0.04441 0.92302 0.55985 -0.73800
C 	C 	0.96201 0.95306 0.75172 0.28700
O 	O 	0.89025 0.96988 0.72501 -0.38300
O 	O 	0.99848 0.93968 0.72974 -0.35700
O 	O 	0.19029 0.02884 0.49481 -0.43900
O 	O 	0.22043 0.11754 0.53867 -0.40300
O 	O 	0.01520 0.73193 0.57483 -0.41800
O 	O 	0.88581 0.71758 0.58380 -0.37800
C 	C 	0.04634 0.01942 0.86976 -0.06400
C 	C 	0.96879 0.92600 0.89525 0.00600
C 	C 	0.90556 0.83790 0.87745 -0.01800
C 	C 	0.91847 0.84318 0.83494 -0.00900
C 	C 	0.99046 0.93766 0.80720 -0.00400
C 	C 	0.05740 0.02508 0.82632 -0.06100
H 	H 	0.09932 0.08738 0.88382 0.05500
H 	H 	0.84765 0.76429 0.89729 0.05800
H 	H 	0.86576 0.77490 0.82114 0.04900
H 	H 	0.11328 0.09905 0.80568 0.04800
C 	C 	0.95207 0.89282 0.32781 -0.01700
C 	C 	0.03686 0.98778 0.30743 0.02200
C 	C 	0.09822 0.07048 0.32920 -0.06300
C 	C 	0.07390 0.05895 0.36972 -0.05600
C 	C 	0.98796 0.96439 0.38954 -0.00700
C 	C 	0.92703 0.88158 0.36793 -0.01100
H 	H 	0.90271 0.82850 0.31146 0.05700
H 	H 	0.16300 0.14487 0.31374 0.05600
H 	H 	0.12401 0.12287 0.38649 0.05300
H 	H 	0.86176 0.80735 0.38314 0.05200
C 	C 	0.16531 0.35583 0.64925 -0.08000
C 	C 	0.20049 0.43718 0.65299 0.02700
C 	C 	0.61553 0.81337 0.65844 -0.07000
C 	C 	0.53124 0.75856 0.66807 0.03300
C 	C 	0.23187 0.71121 0.66908 0.03000
C 	C 	0.20745 0.76550 0.66102 -0.07100
C 	C 	0.14210 0.35369 0.12579 -0.07700
C 	C 	0.19695 0.43626 0.13488 0.02500
C 	C 	0.55457 0.72035 0.18146 0.03600
C 	C 	0.64716 0.76308 0.18687 -0.07900
C 	C 	0.26776 0.71897 0.16529 0.02900
C 	C 	0.24553 0.77387 0.15931 -0.07300
C 	C 	0.80159 0.22045 0.52527 -0.08100
C 	C 	0.75229 0.25419 0.51326 0.02700
C 	C 	0.78991 0.52070 0.53596 0.03800
C 	C 	0.84184 0.59290 0.55303 -0.08600
C 	C 	0.45183 0.21691 0.51121 0.03200
C 	C 	0.36370 0.16907 0.51512 -0.09700
C 	C 	0.73915 0.19711 0.03989 0.02300
C 	C 	0.76232 0.14358 0.04545 -0.08500
C 	C 	0.87425 0.56340 0.08085 -0.08100
C 	C 	0.81807 0.48019 0.07254 0.03200
C 	C 	0.36573 0.15519 0.02418 -0.09100
C 	C 	0.45803 0.19670 0.02989 0.02200
