data_crystal

_cell_length_a 24.30987
_cell_length_b 27.68830
_cell_length_c 27.85791
_cell_angle_alpha 88.28295
_cell_angle_beta  77.89365
_cell_angle_gamma 79.31851

_symmetry_space_group_name_	'P 1'
_symmetry_space_group_name_H-M	'P 1'

loop_
_symmetry_equiv_pos_as_xyz
  x,y,z

loop_
_atom_site_label
_atom_site_type_symbol
_atom_site_fract_x
_atom_site_fract_y
_atom_site_fract_z
_atom_site_charge
Ni	Ni	0.98503 0.98251 0.03724 1.09500
O 	O 	0.00392 0.99201 0.96281 -0.69800
Ni	Ni	0.97426 0.06514 0.95821 1.09600
O 	O 	0.00842 0.90724 0.03357 -0.35700
O 	O 	0.95776 0.89682 0.97585 -0.41300
O 	O 	0.06915 0.97878 0.04297 -0.38100
Ni	Ni	0.95660 0.95810 0.93090 1.05900
O 	O 	0.01448 0.03852 0.12024 -0.41100
O 	O 	0.88372 0.98738 0.97932 -0.43500
O 	O 	0.99195 0.06924 0.88329 -0.38900
O 	O 	0.95746 0.05555 0.03253 -0.70200
O 	O 	0.96340 0.97885 0.11152 -0.39500
O 	O 	0.95186 0.14081 0.96393 -0.37400
O 	O 	0.01048 0.14681 0.01680 -0.40500
Ni	Ni	0.00515 0.08821 0.06504 1.06500
H 	H 	0.04519 0.98289 0.94796 0.15000
H 	H 	0.91639 0.06507 0.04793 0.15300
C 	C 	0.85917 0.03343 0.97732 0.31300
O 	O 	0.07983 0.05671 0.02068 -0.42300
C 	C 	0.99851 0.88002 0.99966 0.26900
C 	C 	0.97779 0.03630 0.85730 0.30400
C 	C 	0.10177 0.01022 0.02375 0.32300
C 	C 	0.96977 0.16718 0.99418 0.28500
C 	C 	0.97656 0.01075 0.13926 0.30600
O 	O 	0.88909 0.06653 0.95680 -0.37700
O 	O 	0.94070 0.00908 0.87880 -0.41400
Ni	Ni	0.00423 0.93879 0.53944 1.09900
O 	O 	0.02581 0.94413 0.46464 -0.70200
Ni	Ni	0.00045 0.01684 0.45566 1.10100
O 	O 	0.02537 0.86308 0.53869 -0.37200
O 	O 	0.97510 0.85241 0.48048 -0.42300
O 	O 	0.08822 0.93685 0.54420 -0.37400
Ni	Ni	0.98013 0.91018 0.43119 1.06000
O 	O 	0.03570 0.99863 0.61780 -0.40800
O 	O 	0.90385 0.94273 0.47343 -0.41800
O 	O 	0.02520 0.01675 0.38132 -0.38300
O 	O 	0.97789 0.01162 0.53030 -0.70600
O 	O 	0.98263 0.93938 0.61431 -0.39000
O 	O 	0.97818 0.09213 0.45532 -0.37500
O 	O 	0.02710 0.10532 0.51361 -0.41000
Ni	Ni	0.02495 0.04634 0.56171 1.06600
H 	H 	0.06723 0.93359 0.45110 0.15000
H 	H 	0.93647 0.02234 0.54375 0.15200
C 	C 	0.88388 0.98983 0.47109 0.28700
O 	O 	0.09922 0.01367 0.51733 -0.42000
C 	C 	0.01449 0.83509 0.50565 0.30500
C 	C 	0.01119 0.98461 0.35447 0.29900
C 	C 	0.12041 0.96683 0.52055 0.29800
C 	C 	0.98799 0.12121 0.48774 0.29500
C 	C 	0.99688 0.97298 0.63949 0.29000
O 	O 	0.91711 0.01949 0.44857 -0.36900
O 	O 	0.97239 0.95799 0.37430 -0.42000
Ni	Ni	0.03135 0.48006 0.03526 1.10200
O 	O 	0.03079 0.48304 0.96198 -0.70200
Ni	Ni	0.99426 0.55309 0.95587 1.09700
O 	O 	0.03632 0.40494 0.03951 -0.37500
O 	O 	0.96157 0.40876 0.00058 -0.41900
O 	O 	0.11970 0.46962 0.01910 -0.37300
Ni	Ni	0.98773 0.44242 0.93409 1.06500
O 	O 	0.09275 0.54210 0.08972 -0.41400
O 	O 	0.90811 0.48522 0.93755 -0.40500
O 	O 	0.97628 0.55156 0.88698 -0.38200
O 	O 	0.00668 0.55217 0.02618 -0.69400
O 	O 	0.03468 0.48428 0.10740 -0.38000
O 	O 	0.97015 0.62809 0.95853 -0.38800
O 	O 	0.05335 0.63755 0.98023 -0.42200
Ni	Ni	0.06744 0.58566 0.03442 1.06600
H 	H 	0.07024 0.47805 0.94209 0.15600
H 	H 	0.97103 0.56483 0.05022 0.15100
C 	C 	0.88309 0.51855 0.97163 0.32900
O 	O 	0.12549 0.54366 0.98196 -0.42800
C 	C 	0.99942 0.38322 0.02365 0.28600
C 	C 	0.99969 0.51628 0.85384 0.28900
C 	C 	0.14972 0.49917 0.99167 0.31000
C 	C 	0.00198 0.65651 0.97240 0.31700
C 	C 	0.05873 0.51888 0.12216 0.29500
O 	O 	0.91261 0.54662 0.98855 -0.40700
O 	O 	0.01491 0.46983 0.86659 -0.41100
Ni	Ni	0.00080 0.44399 0.53580 1.09900
O 	O 	0.02709 0.44077 0.46109 -0.70200
Ni	Ni	0.00943 0.51165 0.44194 1.09700
O 	O 	0.00987 0.36914 0.54321 -0.37600
O 	O 	0.95369 0.36446 0.48814 -0.42400
O 	O 	0.08509 0.43604 0.54022 -0.38300
Ni	Ni	0.99169 0.39901 0.42584 1.06500
O 	O 	0.98440 0.53141 0.62155 -0.42600
O 	O 	0.91405 0.44229 0.42385 -0.40300
O 	O 	0.03039 0.50424 0.36678 -0.38200
O 	O 	0.98370 0.51496 0.51708 -0.70700
O 	O 	0.97795 0.45099 0.61035 -0.39500
O 	O 	0.00116 0.58684 0.43477 -0.37600
O 	O 	0.05482 0.59163 0.49201 -0.42100
Ni	Ni	0.01863 0.55580 0.55398 1.07000
H 	H 	0.06907 0.42968 0.45213 0.14700
H 	H 	0.94172 0.52601 0.52612 0.14400
C 	C 	0.89502 0.48464 0.44709 0.29300
O 	O 	0.09671 0.51353 0.55374 -0.40000
C 	C 	0.98360 0.34319 0.51981 0.28900
C 	C 	0.01750 0.46781 0.34397 0.31200
C 	C 	0.11513 0.47121 0.53048 0.29200
C 	C 	0.02378 0.61326 0.46131 0.29300
C 	C 	0.99269 0.48473 0.63505 0.32200
O 	O 	0.92508 0.51984 0.43837 -0.39000
O 	O 	0.02881 0.42208 0.35909 -0.42000
Ni	Ni	0.49055 0.97151 0.05340 1.09800
O 	O 	0.50507 0.98800 0.98037 -0.70900
Ni	Ni	0.47304 0.06083 0.98297 1.09800
O 	O 	0.51751 0.89745 0.04173 -0.37600
O 	O 	0.46122 0.89261 0.98691 -0.42300
O 	O 	0.57524 0.97037 0.05580 -0.38400
Ni	Ni	0.45789 0.95667 0.94604 1.06200
O 	O 	0.52314 0.02035 0.13865 -0.40900
O 	O 	0.38355 0.98141 0.99514 -0.42700
O 	O 	0.48963 0.07244 0.90918 -0.38600
O 	O 	0.45835 0.04414 0.05587 -0.70300
O 	O 	0.47381 0.96052 0.12700 -0.39000
O 	O 	0.44528 0.13461 0.99636 -0.38300
O 	O 	0.50615 0.13836 0.04780 -0.42000
Ni	Ni	0.50599 0.07521 0.08996 1.06400
H 	H 	0.54601 0.98084 0.96396 0.14900
H 	H 	0.41744 0.05135 0.07233 0.15400
C 	C 	0.35914 0.02780 0.99798 0.31000
O 	O 	0.57955 0.05082 0.04071 -0.42700
C 	C 	0.50443 0.87344 0.00712 0.30500
C 	C 	0.47811 0.04107 0.87984 0.30300
C 	C 	0.60429 0.00462 0.03753 0.32800
C 	C 	0.46509 0.15970 0.02601 0.30900
C 	C 	0.48864 0.98946 0.15669 0.30000
O 	O 	0.38863 0.06184 0.97999 -0.37500
O 	O 	0.44183 0.01164 0.89757 -0.41100
Ni	Ni	0.50799 0.95200 0.56173 1.10000
O 	O 	0.51936 0.96154 0.48772 -0.71100
Ni	Ni	0.47691 0.03020 0.48490 1.10000
O 	O 	0.52456 0.87661 0.55729 -0.38400
O 	O 	0.45925 0.87633 0.50896 -0.42100
O 	O 	0.59369 0.95002 0.55923 -0.37800
Ni	Ni	0.48756 0.91982 0.44975 1.06800
O 	O 	0.54546 0.01384 0.63638 -0.40300
O 	O 	0.40585 0.95594 0.44768 -0.40400
O 	O 	0.47074 0.03435 0.41225 -0.38700
O 	O 	0.47734 0.02364 0.55783 -0.70400
O 	O 	0.49731 0.94961 0.63565 -0.38800
O 	O 	0.44454 0.10398 0.49402 -0.37900
O 	O 	0.51859 0.11669 0.52867 -0.41400
Ni	Ni	0.52816 0.06032 0.58001 1.06500
H 	H 	0.56013 0.96045 0.47236 0.15400
H 	H 	0.43841 0.03186 0.57858 0.15700
C 	C 	0.37359 0.98836 0.48018 0.31500
O 	O 	0.59981 0.02785 0.53177 -0.41500
C 	C 	0.49486 0.85252 0.53525 0.29000
C 	C 	0.49778 0.00136 0.37764 0.31500
C 	C 	0.62348 0.98159 0.53539 0.30000
C 	C 	0.47058 0.13389 0.51340 0.29100
C 	C 	0.51135 0.98424 0.65982 0.29100
O 	O 	0.39615 0.01533 0.50577 -0.40000
O 	O 	0.51842 0.95527 0.38798 -0.42700
Ni	Ni	0.51601 0.46790 0.03252 1.09900
O 	O 	0.54602 0.47749 0.95944 -0.70800
Ni	Ni	0.51868 0.55021 0.95294 1.09700
O 	O 	0.54314 0.39340 0.02763 -0.37400
O 	O 	0.49553 0.38489 0.96691 -0.41900
O 	O 	0.59571 0.46798 0.04677 -0.37600
Ni	Ni	0.50638 0.44383 0.92003 1.06300
O 	O 	0.53225 0.52282 0.12224 -0.41100
O 	O 	0.42745 0.47426 0.95876 -0.42600
O 	O 	0.55006 0.55419 0.87937 -0.38700
O 	O 	0.48816 0.54058 0.02628 -0.70300
O 	O 	0.48465 0.46330 0.10584 -0.39100
O 	O 	0.49465 0.62517 0.95660 -0.37400
O 	O 	0.53272 0.63484 0.02300 -0.41200
Ni	Ni	0.52642 0.57385 0.06770 1.06400
H 	H 	0.58809 0.46810 0.94892 0.15100
H 	H 	0.44599 0.54938 0.03630 0.15100
C 	C 	0.40540 0.52057 0.95468 0.31000
O 	O 	0.60659 0.54674 0.02964 -0.41700
C 	C 	0.53002 0.36578 0.99588 0.29500
C 	C 	0.54087 0.52214 0.84935 0.30100
C 	C 	0.62782 0.49962 0.02740 0.30300
C 	C 	0.49741 0.65169 0.99399 0.29500
C 	C 	0.49545 0.49298 0.13731 0.30200
O 	O 	0.43848 0.55248 0.93822 -0.37700
O 	O 	0.50220 0.49424 0.86514 -0.41400
Ni	Ni	0.51750 0.45060 0.54062 1.10100
O 	O 	0.51800 0.46122 0.46799 -0.70900
Ni	Ni	0.47963 0.53146 0.46855 1.09900
O 	O 	0.52706 0.37576 0.53561 -0.38700
O 	O 	0.45073 0.38067 0.49840 -0.42000
O 	O 	0.60546 0.44255 0.52730 -0.37800
Ni	Ni	0.47561 0.42274 0.43663 1.06800
O 	O 	0.57444 0.50619 0.60659 -0.41100
O 	O 	0.39478 0.46445 0.44288 -0.40400
O 	O 	0.46290 0.53660 0.39883 -0.38400
O 	O 	0.49095 0.52314 0.53915 -0.70500
O 	O 	0.51839 0.44663 0.61310 -0.39000
O 	O 	0.45433 0.60615 0.47857 -0.37600
O 	O 	0.53542 0.61301 0.50574 -0.41400
Ni	Ni	0.54981 0.55514 0.55437 1.06400
H 	H 	0.55749 0.45796 0.44840 0.15600
H 	H 	0.45475 0.53287 0.56352 0.15600
C 	C 	0.36913 0.49595 0.47858 0.32700
O 	O 	0.61189 0.52017 0.49943 -0.42400
C 	C 	0.48830 0.35500 0.52194 0.29000
C 	C 	0.48562 0.50372 0.36301 0.30700
C 	C 	0.63508 0.47375 0.50248 0.31100
C 	C 	0.48437 0.63290 0.49751 0.29100
C 	C 	0.54175 0.47766 0.63390 0.29800
O 	O 	0.39813 0.52218 0.49859 -0.40500
O 	O 	0.50095 0.45612 0.37184 -0.41900
C 	C 	0.55888 0.52859 0.79603 -0.15200
C 	C 	0.56025 0.49210 0.76498 0.00700
C 	C 	0.56113 0.50154 0.71231 0.00400
C 	C 	0.54656 0.46851 0.68531 -0.14600
H 	H 	0.57074 0.53612 0.69632 0.02300
H 	H 	0.56722 0.56415 0.78198 0.07600
H 	H 	0.53515 0.43486 0.70230 0.07400
H 	H 	0.55537 0.45581 0.77941 0.01600
C 	C 	0.49180 0.52050 0.31173 -0.14600
C 	C 	0.48610 0.49135 0.27609 0.00800
C 	C 	0.49416 0.50780 0.22439 0.00600
C 	C 	0.48093 0.48145 0.19008 -0.14800
H 	H 	0.51215 0.54072 0.21417 0.02800
H 	H 	0.49895 0.55771 0.30331 0.07000
H 	H 	0.46073 0.44980 0.20096 0.07600
H 	H 	0.47565 0.45516 0.28508 0.03300
C 	C 	0.46847 0.68704 0.49584 -0.14800
C 	C 	0.49068 0.71619 0.52138 0.00400
C 	C 	0.47893 0.77042 0.51586 0.00100
C 	C 	0.49792 0.79928 0.54430 -0.14900
H 	H 	0.45686 0.78652 0.48741 0.02600
H 	H 	0.43830 0.70327 0.47344 0.07500
H 	H 	0.51978 0.78277 0.57270 0.07300
H 	H 	0.51858 0.69993 0.54571 0.02000
C 	C 	0.45584 0.18714 0.50421 -0.14600
C 	C 	0.47327 0.22030 0.52896 0.00400
C 	C 	0.46620 0.27275 0.51434 0.00300
C 	C 	0.48087 0.30588 0.54117 -0.14600
H 	H 	0.45273 0.28364 0.48012 0.02300
H 	H 	0.43140 0.19930 0.47615 0.07400
H 	H 	0.49450 0.29458 0.57521 0.07300
H 	H 	0.49481 0.20841 0.55896 0.02300
C 	C 	0.52612 0.82038 0.00251 -0.15000
C 	C 	0.49251 0.78939 0.99479 0.00400
C 	C 	0.51207 0.73598 0.99711 0.00200
C 	C 	0.47738 0.70484 0.99252 -0.14800
H 	H 	0.55511 0.72185 0.00270 0.04100
H 	H 	0.56830 0.80605 0.00983 0.07400
H 	H 	0.43544 0.71861 0.98447 0.06800
H 	H 	0.44964 0.80354 0.98886 0.03500
C 	C 	0.53734 0.31292 0.00461 -0.14400
C 	C 	0.49279 0.28985 0.00872 0.00600
C 	C 	0.49905 0.23735 0.02053 0.00900
C 	C 	0.45588 0.21326 0.02122 -0.15300
H 	H 	0.54006 0.21764 0.02664 0.03700
H 	H 	0.57789 0.29342 0.01176 0.07000
H 	H 	0.41556 0.23257 0.01342 0.07600
H 	H 	0.45150 0.31005 0.00376 0.03900
C 	C 	0.50445 0.97900 0.71332 -0.15300
C 	C 	0.50739 0.01592 0.74220 0.00700
C 	C 	0.49598 0.00978 0.79606 0.01300
C 	C 	0.49425 0.04702 0.82633 -0.15700
H 	H 	0.48753 0.97458 0.81131 0.00900
H 	H 	0.49384 0.94490 0.72980 0.07400
H 	H 	0.50530 0.08159 0.81161 0.07600
H 	H 	0.51646 0.05068 0.72631 0.02100
C 	C 	0.48184 0.97626 0.20895 -0.16300
C 	C 	0.49888 0.00261 0.24087 0.02600
C 	C 	0.49598 0.98639 0.29217 -0.01100
C 	C 	0.50375 0.01633 0.32609 -0.13700
H 	H 	0.48635 0.95019 0.30258 0.03400
H 	H 	0.46351 0.94397 0.22142 0.07800
H 	H 	0.51025 0.05348 0.31637 0.06800
H 	H 	0.51525 0.03599 0.22907 0.02200
C 	C 	0.69642 0.45716 0.48194 -0.15200
C 	C 	0.73379 0.48739 0.48122 0.01100
C 	C 	0.79592 0.46976 0.46392 0.00400
C 	C 	0.83314 0.49914 0.46741 -0.14700
H 	H 	0.81114 0.43316 0.44787 0.03800
H 	H 	0.71174 0.41893 0.47073 0.07300
H 	H 	0.81739 0.53542 0.48411 0.06700
H 	H 	0.71851 0.52506 0.49449 0.02900
C 	C 	0.17692 0.45711 0.50949 -0.14800
C 	C 	0.21014 0.49129 0.49887 0.00200
C 	C 	0.27312 0.47698 0.48482 0.01300
C 	C 	0.30630 0.50943 0.48973 -0.15300
H 	H 	0.29236 0.43963 0.47232 0.03100
H 	H 	0.19574 0.41838 0.50384 0.07300
H 	H 	0.28669 0.54590 0.50463 0.08000
H 	H 	0.19100 0.53010 0.50306 0.03800
C 	C 	0.82047 0.53241 0.98276 -0.15600
C 	C 	0.78707 0.49914 0.98193 0.01400
C 	C 	0.72432 0.51464 0.99280 -0.00500
C 	C 	0.69001 0.48280 0.01109 -0.14500
H 	H 	0.70615 0.55303 0.98816 0.03900
H 	H 	0.80116 0.57022 0.99345 0.07900
H 	H 	0.70816 0.44435 0.01531 0.07500
H 	H 	0.80595 0.46063 0.97437 0.02900
C 	C 	0.34289 0.53581 0.96191 -0.15300
C 	C 	0.30901 0.50242 0.96283 0.00600
C 	C 	0.24630 0.51785 0.97113 0.00900
C 	C 	0.21218 0.48419 0.97709 -0.15200
H 	H 	0.22775 0.55681 0.97447 0.02800
H 	H 	0.32438 0.57474 0.96545 0.07100
H 	H 	0.23073 0.44525 0.97525 0.07500
H 	H 	0.32761 0.46356 0.95794 0.03600
C 	C 	0.00376 0.52855 0.80145 -0.12300
C 	C 	0.01027 0.49346 0.76746 -0.00500
C 	C 	0.00667 0.50660 0.71621 0.02500
C 	C 	0.99967 0.47274 0.68564 -0.16100
H 	H 	0.00815 0.54408 0.70393 0.03100
H 	H 	0.99759 0.56701 0.79097 0.06400
H 	H 	0.99849 0.43534 0.69835 0.07900
H 	H 	0.01535 0.45499 0.77798 0.03900
C 	C 	0.06245 0.52111 0.17420 -0.15000
C 	C 	0.02575 0.50292 0.20978 0.01600
C 	C 	0.03297 0.50250 0.26130 0.00500
C 	C 	0.00395 0.47586 0.29497 -0.13300
H 	H 	0.06443 0.52158 0.27107 0.04000
H 	H 	0.09564 0.53822 0.18361 0.07200
H 	H 	0.97414 0.45536 0.28456 0.06400
H 	H 	0.99149 0.48697 0.20072 0.03000
C 	C 	0.01983 0.66653 0.45195 -0.15100
C 	C 	0.03339 0.69657 0.48300 0.00200
C 	C 	0.02253 0.75060 0.47600 0.00500
C 	C 	0.03224 0.78115 0.50874 -0.15100
H 	H 	0.00469 0.76558 0.44483 0.02400
H 	H 	0.00238 0.68189 0.42074 0.07500
H 	H 	0.05214 0.76617 0.53880 0.07600
H 	H 	0.05030 0.68151 0.51458 0.02300
C 	C 	0.97001 0.17469 0.48252 -0.14900
C 	C 	0.97812 0.20676 0.51442 0.00400
C 	C 	0.96900 0.26011 0.50414 0.00200
C 	C 	0.98251 0.29151 0.53365 -0.15000
H 	H 	0.95442 0.27337 0.47096 0.02300
H 	H 	0.95163 0.18815 0.45119 0.07500
H 	H 	0.99753 0.27794 0.56654 0.07400
H 	H 	0.99411 0.19344 0.54697 0.02300
C 	C 	0.68499 0.96497 0.51513 -0.15000
C 	C 	0.72195 0.99633 0.50853 0.00200
C 	C 	0.78415 0.97766 0.49271 -0.00700
C 	C 	0.82180 0.00843 0.48657 -0.13000
H 	H 	0.79931 0.93845 0.48608 0.03900
H 	H 	0.70092 0.92587 0.50854 0.07100
H 	H 	0.80658 0.04777 0.49166 0.06700
H 	H 	0.70649 0.03535 0.51611 0.03800
C 	C 	0.31183 0.00109 0.48176 -0.13800
C 	C 	0.28041 0.96630 0.48061 0.00200
C 	C 	0.21776 0.98037 0.48576 -0.00200
C 	C 	0.18286 0.94955 0.50599 -0.14800
H 	H 	0.19985 0.01755 0.47637 0.04200
H 	H 	0.29093 0.03937 0.48731 0.07600
H 	H 	0.20081 0.91215 0.51462 0.07500
H 	H 	0.30047 0.92766 0.47822 0.03300
C 	C 	0.01979 0.82651 0.00015 -0.10900
C 	C 	0.99714 0.79489 0.97795 -0.03800
C 	C 	0.01474 0.74125 0.98298 0.03800
C 	C 	0.98602 0.71010 0.96707 -0.18300
H 	H 	0.05041 0.72723 0.00052 0.01800
H 	H 	0.05255 0.81260 0.02088 0.06400
H 	H 	0.94940 0.72444 0.95081 0.08300
H 	H 	0.96424 0.80858 0.95727 0.04000
C 	C 	0.95727 0.22152 0.99067 -0.15100
C 	C 	0.97695 0.25012 0.01908 0.00500
C 	C 	0.97217 0.30382 0.01050 0.00900
C 	C 	0.99815 0.33085 0.03511 -0.15700
H 	H 	0.94948 0.32084 0.98279 0.01600
H 	H 	0.93376 0.23820 0.96338 0.07300
H 	H 	0.02173 0.31336 0.06205 0.08000
H 	H 	0.99870 0.23357 0.04755 0.02500
C 	C 	0.79622 0.04706 0.99185 -0.15100
C 	C 	0.76310 0.01242 0.99931 0.00400
C 	C 	0.69999 0.02630 0.01307 0.02400
C 	C 	0.66707 0.99152 0.02091 -0.17300
H 	H 	0.68040 0.06497 0.01756 0.03400
H 	H 	0.77659 0.08575 0.99509 0.07200
H 	H 	0.68690 0.95290 0.01668 0.07900
H 	H 	0.78262 0.97372 0.99504 0.03200
C 	C 	0.16455 0.99437 0.01325 -0.16400
C 	C 	0.19910 0.02587 0.01806 0.01600
C 	C 	0.26206 0.00967 0.00821 0.01500
C 	C 	0.29631 0.04142 0.01310 -0.14800
H 	H 	0.28055 0.97227 0.99545 0.02800
H 	H 	0.18257 0.95606 0.00388 0.07500
H 	H 	0.27764 0.07907 0.02480 0.07300
H 	H 	0.18083 0.06370 0.02947 0.03300
C 	C 	0.98142 0.97234 0.69370 -0.15500
C 	C 	0.99408 0.00638 0.72110 -0.00100
C 	C 	0.97953 0.00447 0.77542 0.01600
C 	C 	0.99200 0.03839 0.80310 -0.16500
H 	H 	0.95887 0.97496 0.79293 0.01400
H 	H 	0.95904 0.94394 0.71148 0.07200
H 	H 	0.01368 0.06731 0.78561 0.08100
H 	H 	0.01522 0.03557 0.70344 0.02900
C 	C 	0.02661 0.98854 0.30075 -0.13200
C 	C 	0.98674 0.99210 0.27342 -0.02200
C 	C 	0.00129 0.00184 0.22018 0.03300
C 	C 	0.96143 0.00540 0.19283 -0.15600
H 	H 	0.04495 0.00519 0.20303 0.03500
H 	H 	0.06978 0.99336 0.28387 0.06300
H 	H 	0.91845 0.99997 0.20956 0.06500
H 	H 	0.94297 0.98918 0.29064 0.04300
