data_crystal

_cell_length_a 23.28484
_cell_length_b 23.52093
_cell_length_c 34.97417
_cell_angle_alpha 95.48824
_cell_angle_beta  95.48691
_cell_angle_gamma 125.93587

_symmetry_space_group_name_	'P 1'
_symmetry_space_group_name_H-M	'P 1'

loop_
_symmetry_equiv_pos_as_xyz
  x,y,z

loop_
_atom_site_label
_atom_site_type_symbol
_atom_site_fract_x
_atom_site_fract_y
_atom_site_fract_z
_atom_site_charge
C 	C 	0.01831 0.96828 0.99060 -0.08000
C 	C 	0.04325 0.00691 0.45989 0.04900
H 	H 	0.03726 0.91287 0.46421 0.05800
H 	H 	0.03303 0.09159 0.45570 0.05600
C 	C 	0.00720 0.93467 0.46171 -0.08100
C 	C 	0.03284 0.07975 0.99440 -0.08100
H 	H 	0.04103 0.93917 0.98836 0.05800
C 	C 	0.00477 0.03531 0.45668 -0.07600
C 	C 	0.95970 0.04341 0.99685 0.05000
C 	C 	0.06207 0.04197 0.99131 0.05100
C 	C 	0.94539 0.93201 0.99305 0.03800
C 	C 	0.91617 0.96965 0.99629 -0.08000
H 	H 	0.06666 0.13687 0.99486 0.06000
H 	H 	0.85958 0.94150 0.99802 0.05800
C 	C 	0.92980 0.99129 0.45530 0.03400
C 	C 	0.89364 0.91852 0.45721 -0.07700
C 	C 	0.93263 0.89039 0.46044 0.04800
H 	H 	0.83581 0.88429 0.45626 0.05700
Cu	Cu	0.63062 0.24009 0.00322 0.92900
Cu	Cu	0.68366 0.24517 0.91923 0.87700
Cu	Cu	0.66983 0.35547 0.95482 0.90000
Cu	Cu	0.63295 0.37180 0.03310 0.90300
C 	C 	0.65551 0.29122 0.08553 0.31000
O 	O 	0.52564 0.19769 0.00394 -0.35900
C 	C 	0.64435 0.30976 0.86874 0.31100
O 	O 	0.68907 0.35148 0.00859 -0.63900
O 	O 	0.61948 0.25010 0.94803 -0.64000
O 	O 	0.67506 0.18935 0.99825 -0.36700
O 	O 	0.75329 0.26453 0.96185 -0.43300
O 	O 	0.62166 0.31920 0.07687 -0.36600
O 	O 	0.72419 0.45823 0.96502 -0.37700
C 	C 	0.71908 0.49614 0.99295 0.31400
C 	C 	0.49737 0.22885 0.99145 0.28700
O 	O 	0.53999 0.29584 0.98744 -0.38800
O 	O 	0.67383 0.46614 0.01733 -0.38300
O 	O 	0.65671 0.24901 0.05833 -0.35700
C 	C 	0.73574 0.21827 0.98507 0.29100
O 	O 	0.66761 0.36168 0.89875 -0.37800
O 	O 	0.63715 0.25114 0.87358 -0.39600
H 	H 	0.74096 0.38189 0.02070 0.17600
H 	H 	0.56906 0.22132 0.93358 0.18400
Cu	Cu	0.74424 0.33065 0.45294 0.92900
Cu	Cu	0.74339 0.27722 0.53641 0.87500
Cu	Cu	0.63110 0.29232 0.50410 0.90100
Cu	Cu	0.61170 0.33173 0.42727 0.90300
C 	C 	0.68831 0.30852 0.37157 0.30900
O 	O 	0.78852 0.43563 0.45342 -0.35600
C 	C 	0.68189 0.31601 0.58952 0.31100
O 	O 	0.63217 0.27448 0.44965 -0.63700
O 	O 	0.73725 0.34122 0.50880 -0.63900
O 	O 	0.79316 0.28349 0.45514 -0.36600
O 	O 	0.71932 0.20778 0.49288 -0.43700
O 	O 	0.66182 0.34301 0.38210 -0.36700
O 	O 	0.52733 0.23966 0.49564 -0.37200
C 	C 	0.48830 0.24555 0.46857 0.29500
C 	C 	0.75816 0.46413 0.46708 0.28400
O 	O 	0.69157 0.42231 0.47281 -0.38500
O 	O 	0.51851 0.29273 0.44533 -0.38100
O 	O 	0.73173 0.30582 0.39733 -0.35600
C 	C 	0.76429 0.22389 0.46879 0.31000
O 	O 	0.62774 0.29262 0.56051 -0.36800
O 	O 	0.74081 0.32403 0.58298 -0.41000
H 	H 	0.60033 0.22329 0.43711 0.17500
H 	H 	0.76724 0.39111 0.52339 0.18100
C 	C 	0.63886 0.32305 0.82874 -0.09900
C 	C 	0.57712 0.27220 0.79996 0.14900
C 	C 	0.57929 0.27697 0.76045 -0.08300
C 	C 	0.64277 0.33192 0.74939 0.02100
C 	C 	0.70196 0.38649 0.77839 0.08500
C 	C 	0.69962 0.38200 0.81789 -0.01300
H 	H 	0.53280 0.23606 0.73825 0.08200
C 	C 	0.65063 0.32627 0.70808 0.02300
H 	H 	0.74665 0.42228 0.83999 0.06100
C 	C 	0.63764 0.36294 0.68356 -0.08300
C 	C 	0.64827 0.36065 0.64482 0.14900
C 	C 	0.67075 0.32008 0.63019 -0.10000
C 	C 	0.68293 0.28290 0.65470 -0.01200
C 	C 	0.67324 0.28598 0.69345 0.08300
H 	H 	0.62074 0.39442 0.69483 0.08400
H 	H 	0.69990 0.25138 0.64358 0.05100
Br	Br	0.78804 0.46519 0.76446 -0.21900
Br	Br	0.48941 0.19626 0.81408 -0.23900
Br	Br	0.63617 0.41671 0.61330 -0.23700
Br	Br	0.69227 0.23563 0.72622 -0.22700
C 	C 	0.67386 0.29074 0.12701 -0.09600
C 	C 	0.71038 0.35382 0.15542 0.14600
C 	C 	0.71618 0.35033 0.19518 -0.08200
C 	C 	0.68832 0.28480 0.20700 0.02400
C 	C 	0.65697 0.22271 0.17863 0.08200
C 	C 	0.64936 0.22578 0.13884 -0.01100
H 	H 	0.74183 0.39854 0.21694 0.08500
C 	C 	0.68685 0.28075 0.24886 0.02400
H 	H 	0.62255 0.17726 0.11717 0.06900
C 	C 	0.62184 0.25219 0.26231 -0.08200
C 	C 	0.62088 0.25595 0.30238 0.14600
C 	C 	0.68597 0.29102 0.32954 -0.09600
C 	C 	0.75033 0.31593 0.31597 -0.01100
C 	C 	0.75090 0.31043 0.27581 0.08300
H 	H 	0.57210 0.22775 0.24160 0.08500
H 	H 	0.80039 0.34162 0.33663 0.07000
Br	Br	0.62444 0.13339 0.19370 -0.21200
Br	Br	0.75547 0.44558 0.14056 -0.25900
Br	Br	0.52985 0.21052 0.31935 -0.25900
Br	Br	0.83953 0.34369 0.25829 -0.21200
C 	C 	0.84414 0.68203 0.46557 0.04000
C 	C 	0.86529 0.64852 0.44178 -0.06500
C 	C 	0.84020 0.57849 0.44364 0.01700
C 	C 	0.89679 0.81606 0.46236 -0.02000
C 	C 	0.77411 0.57584 0.49395 0.01600
C 	C 	0.79931 0.64591 0.49203 -0.06400
C 	C 	0.87118 0.75463 0.46394 -0.01400
C 	C 	0.79345 0.54125 0.46929 -0.08400
H 	H 	0.90077 0.67652 0.42162 0.05500
H 	H 	0.85538 0.55256 0.42431 0.04400
H 	H 	0.73872 0.54809 0.51418 0.04300
H 	H 	0.78369 0.67189 0.51098 0.05500
C 	C 	0.83367 0.10020 0.45551 -0.00500
C 	C 	0.86325 0.09538 0.42340 -0.02900
C 	C 	0.89118 0.05644 0.42228 -0.03600
C 	C 	0.78959 0.18148 0.46207 -0.11000
C 	C 	0.85797 0.02513 0.48484 -0.03600
C 	C 	0.82989 0.06389 0.48586 -0.03100
C 	C 	0.80985 0.14468 0.45826 0.05100
C 	C 	0.89004 0.02237 0.45341 0.00300
H 	H 	0.86587 0.12282 0.39968 0.04900
H 	H 	0.91544 0.05434 0.39776 0.04600
H 	H 	0.85693 0.99924 0.50905 0.04300
H 	H 	0.80664 0.06697 0.51066 0.04100
C 	C 	0.26112 0.12822 0.46563 0.04300
C 	C 	0.29967 0.19509 0.45445 -0.06500
C 	C 	0.37394 0.23368 0.45557 0.02200
C 	C 	0.12007 0.05188 0.46177 -0.01900
C 	C 	0.37126 0.13853 0.47925 0.02100
C 	C 	0.29705 0.10013 0.47813 -0.06500
C 	C 	0.18441 0.08756 0.46349 -0.01300
C 	C 	0.41014 0.20546 0.46786 -0.08100
H 	H 	0.27216 0.21713 0.44481 0.05500
H 	H 	0.40331 0.28558 0.44710 0.04200
H 	H 	0.39833 0.11590 0.48853 0.03900
H 	H 	0.26742 0.04832 0.48674 0.05500
C 	C 	0.82290 0.70803 0.99236 -0.00100
C 	C 	0.83603 0.75466 0.02588 -0.03100
C 	C 	0.87432 0.82775 0.02579 -0.03600
C 	C 	0.75572 0.57076 0.99313 -0.09700
C 	C 	0.88511 0.80748 0.95834 -0.03500
C 	C 	0.84683 0.73445 0.95847 -0.03000
C 	C 	0.78628 0.63338 0.99294 0.05300
C 	C 	0.89971 0.85450 0.99214 0.00100
H 	H 	0.81737 0.73446 0.05213 0.04700
H 	H 	0.88546 0.86373 0.05203 0.04500
H 	H 	0.90430 0.82769 0.93219 0.04600
H 	H 	0.83651 0.69857 0.93240 0.04900
C 	C 	0.86171 0.14111 0.00097 0.04000
C 	C 	0.89211 0.20763 0.99006 -0.06500
C 	C 	0.85214 0.23435 0.98649 0.01700
C 	C 	0.92838 0.08099 0.99886 -0.01700
C 	C 	0.75197 0.12903 0.00611 0.01800
C 	C 	0.79217 0.10258 0.00975 -0.06500
C 	C 	0.89926 0.10966 0.00013 -0.01700
C 	C 	0.78105 0.19431 0.99352 -0.08800
H 	H 	0.94608 0.23796 0.98352 0.05300
H 	H 	0.87597 0.28548 0.97757 0.03600
H 	H 	0.69754 0.09773 0.01196 0.04300
H 	H 	0.76849 0.05124 0.01841 0.05500
C 	C 	0.27390 0.13477 0.98794 0.04300
C 	C 	0.30595 0.10898 0.00864 -0.06700
C 	C 	0.37812 0.13755 0.00850 0.01800
C 	C 	0.13727 0.07848 0.98969 -0.01900
C 	C 	0.38595 0.21669 0.96594 0.01800
C 	C 	0.31370 0.18800 0.96618 -0.06500
C 	C 	0.19977 0.10555 0.98862 -0.01300
C 	C 	0.41898 0.19247 0.98766 -0.08400
H 	H 	0.27516 0.06723 0.02519 0.05500
H 	H 	0.40269 0.11830 0.02542 0.04500
H 	H 	0.41643 0.25828 0.94927 0.04000
H 	H 	0.28892 0.20750 0.94966 0.05500
