data_crystal

_cell_length_a 14.76587
_cell_length_b 18.76190
_cell_length_c 45.82110
_cell_angle_alpha 90.42309
_cell_angle_beta  90.42681
_cell_angle_gamma 119.44574

_symmetry_space_group_name_	'P 1'
_symmetry_space_group_name_H-M	'P 1'

loop_
_symmetry_equiv_pos_as_xyz
  x,y,z

loop_
_atom_site_label
_atom_site_type_symbol
_atom_site_fract_x
_atom_site_fract_y
_atom_site_fract_z
_atom_site_charge
C 	C 	0.39583 0.19212 0.94873 0.29600
C 	C 	0.37262 0.99429 0.93398 0.27800
Ni	Ni	0.50708 0.12003 0.97757 1.12100
O 	O 	0.61108 0.08875 0.99253 -0.38400
O 	O 	0.40045 0.16849 0.92184 -0.37500
O 	O 	0.41434 0.00672 0.96057 -0.36800
O 	O 	0.43108 0.03038 0.91105 -0.37800
C 	C 	0.52764 0.05222 0.64201 0.31100
C 	C 	0.51960 0.14516 0.72483 0.29900
Ni	Ni	0.53774 0.20659 0.66442 1.11200
O 	O 	0.48030 0.08053 0.65885 -0.36900
O 	O 	0.60565 0.10236 0.62599 -0.38200
O 	O 	0.49261 0.18707 0.70759 -0.37200
O 	O 	0.61782 0.16312 0.72716 -0.37400
O 	O 	0.56241 0.22333 0.61955 -0.36700
C 	C 	0.14088 0.89820 0.77412 0.31000
C 	C 	0.09245 0.83393 0.85197 0.28400
Ni	Ni	0.99796 0.90968 0.81336 1.11900
Ni	Ni	0.98388 0.73798 0.79926 1.11800
O 	O 	0.06825 0.91841 0.77556 -0.39100
O 	O 	0.05298 0.76102 0.83886 -0.37700
O 	O 	0.10857 0.90037 0.83736 -0.37700
O 	O 	0.12237 0.82571 0.78312 -0.37700
C 	C 	0.46539 0.73405 0.46473 0.28300
C 	C 	0.53131 0.85355 0.34688 0.29300
C 	C 	0.63809 0.92937 0.43831 0.30600
C 	C 	0.38093 0.62342 0.37331 0.29500
C 	C 	0.31489 0.90628 0.39203 0.31300
C 	C 	0.20242 0.69853 0.42934 0.28300
Ni	Ni	0.54345 0.77763 0.40283 1.11200
Ni	Ni	0.32490 0.75711 0.37530 1.11900
Ni	Ni	0.40686 0.85034 0.43686 1.12000
O 	O 	0.54376 0.75215 0.44692 -0.37900
O 	O 	0.42923 0.78568 0.46907 -0.37900
O 	O 	0.26334 0.83060 0.38210 -0.38500
O 	O 	0.55547 0.80102 0.35842 -0.37200
O 	O 	0.43743 0.84520 0.35006 -0.36700
O 	O 	0.25012 0.77661 0.43775 -0.38100
O 	O 	0.65001 0.89730 0.41409 -0.38100
O 	O 	0.55752 0.94044 0.44139 -0.37600
O 	O 	0.21297 0.67658 0.40230 -0.37800
O 	O 	0.45669 0.65336 0.39301 -0.37800
O 	O 	0.35872 0.67256 0.35814 -0.38200
O 	O 	0.39324 0.92924 0.41036 -0.38700
O 	O 	0.42219 0.78558 0.40708 -0.70400
H 	H 	0.38530 0.73259 0.41677 0.12800
C 	C 	0.34849 0.82184 0.22008 0.27800
C 	C 	0.17418 0.73369 0.10522 0.31400
C 	C 	0.28862 0.62166 0.18607 0.30700
C 	C 	0.26201 0.91561 0.14619 0.28700
C 	C 	0.46890 0.73806 0.11099 0.30300
C 	C 	0.60252 0.94526 0.15308 0.29300
Ni	Ni	0.21925 0.74312 0.16713 1.11100
Ni	Ni	0.39668 0.85681 0.11908 1.12100
Ni	Ni	0.45954 0.78117 0.17284 1.12000
O 	O 	0.25323 0.78866 0.20924 -0.37200
O 	O 	0.40966 0.78934 0.21429 -0.37200
O 	O 	0.41814 0.77158 0.09894 -0.38100
O 	O 	0.18230 0.69061 0.12623 -0.38500
O 	O 	0.25398 0.80528 0.09905 -0.37800
O 	O 	0.56132 0.89893 0.17584 -0.40400
O 	O 	0.21047 0.63688 0.18555 -0.36300
O 	O 	0.36625 0.66080 0.16884 -0.40300
O 	O 	0.55294 0.93060 0.12743 -0.38200
O 	O 	0.19187 0.83832 0.15277 -0.36700
O 	O 	0.35672 0.93667 0.13639 -0.38300
O 	O 	0.52392 0.76904 0.13535 -0.38500
O 	O 	0.36048 0.80567 0.15656 -0.71000
H 	H 	0.37973 0.85518 0.16826 0.14900
C 	C 	0.28472 0.07282 0.24360 0.28000
C 	C 	0.23702 0.32392 0.30866 0.29400
C 	C 	0.21723 0.07873 0.31571 0.29700
C 	C 	0.27280 0.34988 0.24230 0.28900
Ni	Ni	0.30024 0.21910 0.27443 1.10900
O 	O 	0.33688 0.15407 0.24404 -0.36400
O 	O 	0.18312 0.03307 0.23806 -0.37100
O 	O 	0.28175 0.27860 0.31012 -0.38000
O 	O 	0.14074 0.29260 0.29874 -0.38300
O 	O 	0.30074 0.13548 0.30321 -0.37700
O 	O 	0.14159 0.02258 0.29933 -0.38000
O 	O 	0.33725 0.32117 0.24804 -0.37100
O 	O 	0.17461 0.29964 0.23654 -0.38300
O 	O 	0.15699 0.16095 0.26352 -0.71000
H 	H 	0.16967 0.16537 0.24228 0.13900
C 	C 	0.31412 0.43278 0.23088 -0.07100
C 	C 	0.29223 0.48713 0.24653 -0.02900
C 	C 	0.27247 0.54363 0.23184 0.03800
C 	C 	0.28035 0.54937 0.20117 -0.08000
C 	C 	0.30976 0.49882 0.18588 -0.01900
C 	C 	0.33199 0.44425 0.20073 0.04000
S 	S 	0.23529 0.60489 0.25209 -0.03500
S 	S 	0.37476 0.38578 0.18093 -0.03300
H 	H 	0.29052 0.31361 0.17195 0.04500
H 	H 	0.32247 0.67366 0.26183 0.04700
H 	H 	0.28032 0.47995 0.26987 0.04300
H 	H 	0.31942 0.50439 0.16244 0.04800
C 	C 	0.70952 0.01114 0.15633 -0.05800
C 	C 	0.72601 0.07157 0.17698 -0.02600
H 	H 	0.67166 0.09466 0.17798 0.04500
C 	C 	0.38585 0.89708 0.23816 -0.07100
C 	C 	0.44625 0.97285 0.22457 -0.03900
C 	C 	0.42377 0.03703 0.22884 0.04000
C 	C 	0.34046 0.02484 0.24707 -0.06200
C 	C 	0.29842 0.95677 0.26553 -0.03300
C 	C 	0.32498 0.89492 0.26200 0.04600
S 	S 	0.50450 0.13259 0.21302 -0.03300
S 	S 	0.27185 0.81049 0.28540 -0.04100
H 	H 	0.17796 0.75152 0.27431 0.04100
H 	H 	0.49977 0.12428 0.18326 0.03800
H 	H 	0.50318 0.97933 0.20859 0.04700
H 	H 	0.24137 0.94976 0.28159 0.05400
C 	C 	0.62717 0.90188 0.30009 0.03900
C 	C 	0.60865 0.91932 0.32871 -0.06700
C 	C 	0.68170 0.99235 0.34247 -0.04200
S 	S 	0.53351 0.81411 0.28124 -0.02900
H 	H 	0.54642 0.74866 0.28808 0.04200
H 	H 	0.66687 0.00672 0.36427 0.06100
C 	C 	0.34862 0.54190 0.36095 -0.07400
C 	C 	0.41748 0.53129 0.34292 -0.01900
C 	C 	0.38279 0.45976 0.32615 0.03400
C 	C 	0.27796 0.39726 0.32770 -0.07600
C 	C 	0.21080 0.40607 0.34709 -0.01900
C 	C 	0.24544 0.47803 0.36358 0.03300
S 	S 	0.47020 0.45119 0.30236 -0.05100
S 	S 	0.15904 0.48711 0.38755 -0.04500
H 	H 	0.10609 0.51896 0.37289 0.04300
H 	H 	0.51628 0.41278 0.31639 0.03700
H 	H 	0.49709 0.58037 0.34096 0.04600
H 	H 	0.13115 0.35714 0.34913 0.05100
C 	C 	0.22871 0.05572 0.34587 -0.06600
C 	C 	0.14950 0.98241 0.35727 -0.03200
C 	C 	0.17479 0.93709 0.37648 0.04500
C 	C 	0.28019 0.96471 0.38358 -0.08700
C 	C 	0.35429 0.04593 0.37763 -0.01300
C 	C 	0.32711 0.09321 0.36000 0.03800
S 	S 	0.07452 0.84885 0.39257 -0.03300
S 	S 	0.41011 0.19988 0.35884 -0.03000
H 	H 	0.48222 0.21814 0.33740 0.04000
H 	H 	0.06983 0.95811 0.34974 0.05100
H 	H 	0.43337 0.07128 0.38582 0.05200
C 	C 	0.71222 0.95052 0.46288 -0.10100
C 	C 	0.72926 0.01663 0.48103 0.02900
C 	C 	0.72338 0.00657 0.51129 -0.06300
C 	C 	0.70353 0.93145 0.52300 0.03300
C 	C 	0.71658 0.87601 0.50526 -0.06600
C 	C 	0.72678 0.88836 0.47506 0.02300
C 	C 	0.64190 0.90323 0.54894 -0.01900
C 	C 	0.58980 0.88670 0.57059 -0.02200
C 	C 	0.52615 0.87616 0.59561 0.03900
C 	C 	0.57097 0.88828 0.62353 -0.06700
C 	C 	0.54656 0.93003 0.64475 0.01600
C 	C 	0.48395 0.96419 0.63692 -0.09300
C 	C 	0.41607 0.92924 0.61297 0.02300
C 	C 	0.43816 0.88562 0.59191 -0.06800
H 	H 	0.73000 0.06990 0.47180 0.03500
H 	H 	0.72107 0.05271 0.52514 0.05200
H 	H 	0.70913 0.82022 0.51431 0.05100
H 	H 	0.73207 0.84383 0.46108 0.03200
H 	H 	0.59045 0.94818 0.66505 0.03600
H 	H 	0.35886 0.94783 0.60809 0.03100
H 	H 	0.39682 0.87018 0.57115 0.05100
C 	C 	0.07671 0.56331 0.50571 0.04200
C 	C 	0.17164 0.58181 0.46075 0.01700
C 	C 	0.13884 0.63608 0.45075 -0.08600
C 	C 	0.06559 0.64634 0.46698 0.02100
C 	C 	0.03502 0.61037 0.49441 -0.07300
H 	H 	0.03824 0.68702 0.45930 0.03300
C 	C 	0.44084 0.66908 0.48573 -0.08600
C 	C 	0.41793 0.59149 0.47525 0.01300
C 	C 	0.43654 0.53967 0.49284 -0.06700
C 	C 	0.47883 0.56546 0.52087 0.03900
C 	C 	0.48848 0.63801 0.53272 -0.07000
C 	C 	0.46788 0.68927 0.51524 0.01900
C 	C 	0.52703 0.52489 0.53528 -0.02000
C 	C 	0.56688 0.48983 0.54692 -0.02000
C 	C 	0.61343 0.44730 0.56083 0.04000
C 	C 	0.64610 0.33271 0.56095 0.02200
C 	C 	0.62023 0.38478 0.54580 -0.06900
H 	H 	0.39497 0.57459 0.45262 0.03200
H 	H 	0.42578 0.48235 0.48388 0.05100
H 	H 	0.51823 0.65720 0.55475 0.04900
H 	H 	0.48190 0.74775 0.52385 0.03700
H 	H 	0.64490 0.28135 0.54962 0.03400
H 	H 	0.60048 0.37397 0.52277 0.05100
C 	C 	0.24801 0.96073 0.76580 -0.08700
C 	C 	0.30750 0.93795 0.74829 -0.01300
C 	C 	0.40405 0.99762 0.73760 0.02700
C 	C 	0.43962 0.08133 0.74333 -0.06400
C 	C 	0.38458 0.10342 0.76278 -0.02800
C 	C 	0.29065 0.04378 0.77462 0.05400
S 	S 	0.47997 0.96665 0.71752 -0.03100
S 	S 	0.23124 0.07358 0.80168 -0.07000
H 	H 	0.16271 0.09349 0.78879 0.03800
H 	H 	0.54187 0.95233 0.73624 0.04000
H 	H 	0.27804 0.87408 0.74255 0.04700
H 	H 	0.41365 0.16746 0.76819 0.05000
S 	S 	0.49375 0.43418 0.70355 -0.03500
H 	H 	0.45236 0.38593 0.72750 0.04300
H 	H 	0.00176 0.69895 0.68696 0.04500
C 	C 	0.95659 0.73110 0.06089 -0.07100
C 	C 	0.05623 0.74910 0.06988 0.02500
C 	C 	0.07000 0.71752 0.09616 -0.10400
C 	C 	0.98533 0.67710 0.11498 0.03400
C 	C 	0.88597 0.65915 0.10578 -0.07400
H 	H 	0.12185 0.78476 0.05591 0.03400
H 	H 	0.99596 0.65794 0.13637 0.01500
C 	C 	0.61227 0.10803 0.07804 -0.06700
C 	C 	0.61044 0.18132 0.08260 0.04100
C 	C 	0.68006 0.25119 0.06736 -0.06600
C 	C 	0.51981 0.17731 0.09571 -0.02200
C 	C 	0.43862 0.16235 0.10676 -0.01500
C 	C 	0.33695 0.12864 0.11928 0.03400
C 	C 	0.33089 0.12289 0.14974 -0.06200
C 	C 	0.27511 0.04506 0.16207 0.02000
C 	C 	0.22776 0.97644 0.14344 -0.08100
C 	C 	0.19911 0.98842 0.11539 0.00900
C 	C 	0.25442 0.06639 0.10313 -0.05700
H 	H 	0.56377 0.05483 0.09101 0.05200
H 	H 	0.68425 0.30955 0.07179 0.05300
H 	H 	0.38279 0.17479 0.16332 0.05300
H 	H 	0.28489 0.03727 0.18494 0.04200
H 	H 	0.15051 0.93616 0.10149 0.03600
H 	H 	0.24750 0.07345 0.07991 0.04700
C 	C 	0.36103 0.25279 0.95404 -0.07900
C 	C 	0.42263 0.33371 0.94464 0.01000
C 	C 	0.42267 0.39857 0.96023 -0.06300
C 	C 	0.36244 0.38252 0.98543 0.04000
C 	C 	0.28892 0.30155 0.99177 -0.06500
C 	C 	0.28666 0.23690 0.97572 0.01900
C 	C 	0.38985 0.44584 0.00754 -0.01800
C 	C 	0.41035 0.49687 0.02660 -0.01900
C 	C 	0.43522 0.55548 0.05033 0.04000
C 	C 	0.37291 0.53346 0.07520 -0.06600
C 	C 	0.39241 0.59149 0.09731 0.01800
C 	C 	0.47437 0.67218 0.09475 -0.08300
C 	C 	0.54178 0.69220 0.07093 0.02000
C 	C 	0.52203 0.63411 0.04874 -0.06700
H 	H 	0.47790 0.34710 0.92727 0.04100
H 	H 	0.47638 0.46113 0.95427 0.05000
H 	H 	0.23876 0.28836 0.01044 0.05000
H 	H 	0.23448 0.17451 0.98219 0.03900
H 	H 	0.30723 0.47223 0.07701 0.05100
H 	H 	0.33903 0.57535 0.11531 0.04000
H 	H 	0.60550 0.75411 0.06866 0.03200
H 	H 	0.57259 0.65104 0.03002 0.05000
H 	H 	0.46863 0.90921 0.88662 0.04400
C 	C 	0.27063 0.92231 0.92842 -0.06900
C 	C 	0.26795 0.85411 0.91493 -0.02300
C 	C 	0.20272 0.81747 0.89064 0.03800
C 	C 	0.13198 0.84418 0.88221 -0.07100
C 	C 	0.11556 0.89548 0.90129 -0.02400
C 	C 	0.18419 0.93379 0.92476 0.03200
S 	S 	0.21525 0.74288 0.87030 -0.03100
S 	S 	0.16529 0.99974 0.94817 -0.03100
H 	H 	0.10679 0.95651 0.97142 0.03600
H 	H 	0.28787 0.78053 0.84905 0.04000
H 	H 	0.32514 0.83640 0.92092 0.04700
H 	H 	0.05479 0.91041 0.89657 0.05100
Ni	Ni	0.51933 0.15240 0.90776 1.11700
O 	O 	0.39470 0.14763 0.97070 -0.39500
C 	C 	0.65428 0.27430 0.60846 0.28700
O 	O 	0.58531 0.32998 0.67348 -0.36800
O 	O 	0.73633 0.26394 0.61271 -0.37200
H 	H 	0.63378 0.87530 0.62759 0.04700
C 	C 	0.66436 0.34276 0.59115 -0.08800
C 	C 	0.66305 0.09952 0.05377 0.01900
C 	C 	0.64143 0.46211 0.59036 -0.06800
H 	H 	0.59600 0.11046 0.94105 0.14800
H 	H 	0.65252 0.03974 0.04806 0.03600
C 	C 	0.73455 0.24320 0.04379 0.02600
O 	O 	0.59049 0.16035 0.94348 -0.70900
O 	O 	0.67729 0.23217 0.67013 -0.70600
S 	S 	0.75744 0.13606 0.76657 -0.04000
S 	S 	0.55023 0.93493 0.90596 -0.03600
C 	C 	0.71182 0.16454 0.03429 -0.09300
C 	C 	0.72255 0.95305 0.28683 -0.03400
C 	C 	0.70138 0.14602 0.00272 0.30200
Ni	Ni	0.73978 0.18903 0.64416 1.12100
H 	H 	0.63822 0.51134 0.60197 0.05000
S 	S 	0.77917 0.13203 0.23257 -0.04300
C 	C 	0.66642 0.40985 0.60551 0.01200
O 	O 	0.58647 0.22842 0.99907 -0.38900
O 	O 	0.63368 0.14194 0.88514 -0.36100
C 	C 	0.79248 0.08472 0.20076 0.04600
C 	C 	0.78884 0.99107 0.15260 0.01500
S 	S 	0.60773 0.46613 0.81170 -0.03200
C 	C 	0.65101 0.37049 0.69537 0.28200
H 	H 	0.70946 0.28773 0.66226 0.13900
C 	C 	0.77861 0.04205 0.32979 0.05000
H 	H 	0.73766 0.93805 0.26515 0.04000
O 	O 	0.67083 0.33087 0.71598 -0.37600
H 	H 	0.85331 0.19996 0.77406 0.03700
S 	S 	0.78896 0.93524 0.12164 -0.03300
C 	C 	0.62977 0.49173 0.70783 0.03600
H 	H 	0.14879 0.46081 0.59310 0.05100
H 	H 	0.73772 0.85331 0.12762 0.04400
O 	O 	0.58440 0.27429 0.90096 -0.39100
O 	O 	0.73624 0.10433 0.67178 -0.38800
H 	H 	0.65582 0.46013 0.78707 0.04900
H 	H 	0.22660 0.57219 0.44822 0.02800
Ni	Ni	0.73978 0.26192 0.70801 1.11900
H 	H 	0.62411 0.59115 0.72993 0.04600
C 	C 	0.66470 0.97640 0.88567 0.01800
H 	H 	0.59634 0.34128 0.84924 0.04600
C 	C 	0.77365 0.12301 0.69870 0.30500
C 	C 	0.80043 0.02118 0.30197 -0.06700
C 	C 	0.77293 0.06092 0.74756 0.03800
H 	H 	0.52136 0.29473 0.03547 0.03600
H 	H 	0.69963 0.07487 0.24892 0.04400
C 	C 	0.14197 0.54647 0.48835 -0.06700
H 	H 	0.55230 0.41755 0.06340 0.05000
H 	H 	0.65273 0.85843 0.87846 0.04600
H 	H 	0.17320 0.50894 0.49667 0.05200
H 	H 	0.78110 0.29590 0.03041 0.04000
C 	C 	0.62655 0.29935 0.98580 0.29100
C 	C 	0.69958 0.11944 0.89674 0.27200
O 	O 	0.81723 0.19905 0.70810 -0.38500
C 	C 	0.86192 0.05297 0.19997 -0.07800
C 	C 	0.86328 0.00988 0.17488 0.00400
H 	H 	0.68055 0.41832 0.62878 0.03100
C 	C 	0.78139 0.06097 0.71671 -0.07800
C 	C 	0.78099 0.00191 0.76378 -0.01400
H 	H 	0.77160 0.00078 0.78727 0.04900
C 	C 	0.69379 0.45962 0.69898 -0.07300
C 	C 	0.67420 0.56859 0.72177 -0.02200
C 	C 	0.57653 0.42346 0.04087 -0.06700
C 	C 	0.56086 0.35406 0.02522 0.01700
C 	C 	0.72237 0.06133 0.88050 -0.04900
C 	C 	0.69871 0.92366 0.87472 -0.01200
O 	O 	0.77075 0.19964 0.98482 -0.36600
S 	S 	0.87457 0.12540 0.35018 -0.01800
C 	C 	0.65982 0.39910 0.85715 -0.01900
C 	C 	0.68394 0.32426 0.89837 0.30800
Ni	Ni	0.73572 0.23923 0.94559 1.11100
O 	O 	0.70658 0.32188 0.96831 -0.37600
O 	O 	0.88584 0.27219 0.65677 -0.38100
C 	C 	0.60601 0.36308 0.99763 -0.08600
C 	C 	0.68199 0.47138 0.84278 0.03700
O 	O 	0.76096 0.15998 0.91935 -0.35700
H 	H 	0.92216 0.99172 0.17256 0.04200
H 	H 	0.93237 0.09999 0.36601 0.04600
C 	C 	0.79983 0.00188 0.70310 -0.01500
C 	C 	0.63870 0.50118 0.02909 0.03900
O 	O 	0.86704 0.35702 0.68984 -0.38100
O 	O 	0.74826 0.82790 0.83299 -0.36900
C 	C 	0.90686 0.06376 0.29014 0.29100
C 	C 	0.80922 0.94855 0.75052 -0.08700
H 	H 	0.80541 0.00067 0.67954 0.04600
C 	C 	0.81484 0.09218 0.86469 -0.03200
C 	C 	0.71851 0.40074 0.88169 -0.07900
C 	C 	0.90926 0.34647 0.66569 0.28900
O 	O 	0.75083 0.65780 0.77440 -0.37000
C 	C 	0.80223 0.50989 0.70057 -0.03400
C 	C 	0.79201 0.95438 0.85937 -0.08500
O 	O 	0.75104 0.30194 0.90682 -0.37400
C 	C 	0.94698 0.08098 0.22180 0.28900
C 	C 	0.78170 0.61222 0.72806 -0.07700
Ni	Ni	0.76965 0.74867 0.80413 1.11300
C 	C 	0.81609 0.94691 0.71990 0.03100
C 	C 	0.71242 0.56423 0.04791 -0.01800
O 	O 	0.78833 0.82226 0.76850 -0.37900
H 	H 	0.86095 0.15753 0.86121 0.05200
O 	O 	0.74793 0.66157 0.83554 -0.36300
C 	C 	0.64621 0.43865 0.98361 0.01800
C 	C 	0.66001 0.50743 0.99921 -0.06800
O 	O 	0.95972 0.02413 0.29036 -0.38000
H 	H 	0.84771 0.45040 0.64419 0.02400
H 	H 	0.85227 0.48724 0.69274 0.04900
C 	C 	0.85124 0.03994 0.85462 0.05400
C 	C 	0.76422 0.54696 0.85282 -0.06700
C 	C 	0.82157 0.89578 0.84630 0.29500
O 	O 	0.95546 0.14423 0.28956 -0.38000
O 	O 	0.98891 0.03373 0.22747 -0.37600
C 	C 	0.84259 0.90253 0.76924 0.31300
C 	C 	0.81832 0.66816 0.75401 0.30100
O 	O 	0.99861 0.16021 0.22712 -0.37600
C 	C 	0.84662 0.58689 0.71424 0.04000
H 	H 	0.75881 0.80570 0.69693 0.04000
C 	C 	0.77917 0.61952 0.06191 -0.02100
C 	C 	0.80044 0.62067 0.83486 0.28400
C 	C 	0.96623 0.41501 0.64559 -0.09200
C 	C 	0.91573 0.45520 0.63375 0.02000
H 	H 	0.67077 0.44472 0.96113 0.03300
C 	C 	0.80168 0.47656 0.89164 0.04000
S 	S 	0.84788 0.87833 0.70241 -0.03300
H 	H 	0.70024 0.56705 0.98917 0.04800
C 	C 	0.82379 0.54898 0.87714 -0.02900
H 	H 	0.90116 0.51916 0.59676 0.05200
C 	C 	0.94500 0.49293 0.60653 -0.06800
H 	H 	0.96106 0.09969 0.80872 0.04400
O 	O 	0.86300 0.62947 0.81285 -0.37300
H 	H 	0.84971 0.50628 0.94624 0.04000
O 	O 	0.90322 0.94159 0.79170 -0.39400
C 	C 	0.05500 0.42244 0.63169 0.02300
O 	O 	0.91855 0.91036 0.84893 -0.38600
H 	H 	0.09615 0.39315 0.64083 0.03400
O 	O 	0.91836 0.71830 0.75866 -0.37600
C 	C 	0.05866 0.53755 0.53579 -0.02000
O 	O 	0.91287 0.79499 0.81184 -0.71500
C 	C 	0.87023 0.67799 0.07735 0.04400
H 	H 	0.90809 0.78455 0.83295 0.15200
S 	S 	0.88009 0.48205 0.92169 -0.04500
Ni	Ni	0.07665 0.04346 0.26341 1.11200
C 	C 	0.02607 0.49182 0.59119 0.04300
S 	S 	0.97246 0.08345 0.83720 -0.05700
H 	H 	0.88900 0.60674 0.88441 0.04500
H 	H 	0.98264 0.62219 0.50739 0.05300
H 	H 	0.81987 0.62202 0.11940 0.05300
H 	H 	0.94547 0.74990 0.03947 0.05000
Ni	Ni	0.07573 0.21507 0.26390 1.11700
C 	C 	0.04379 0.51673 0.56102 -0.01900
C 	C 	0.08419 0.46003 0.60446 -0.07000
H 	H 	0.04734 0.86998 0.41842 0.03500
S 	S 	0.98168 0.65267 0.71154 -0.04100
