data_crystal

_cell_length_a 26.27763
_cell_length_b 26.48747
_cell_length_c 34.68829
_cell_angle_alpha 95.53224
_cell_angle_beta  95.53392
_cell_angle_gamma 125.70012

_symmetry_space_group_name_	'P 1'
_symmetry_space_group_name_H-M	'P 1'

loop_
_symmetry_equiv_pos_as_xyz
  x,y,z

loop_
_atom_site_label
_atom_site_type_symbol
_atom_site_fract_x
_atom_site_fract_y
_atom_site_fract_z
_atom_site_charge
C 	C 	0.00204 0.05246 0.99910 0.08100
C 	C 	0.06804 0.08681 0.00041 -0.08800
C 	C 	0.09737 0.05656 0.00335 0.07600
C 	C 	0.06049 0.99166 0.00397 -0.07300
C 	C 	0.99445 0.95694 0.00184 0.07100
C 	C 	0.96562 0.98776 0.00076 -0.07900
H 	H 	0.09638 0.13676 0.99904 0.08200
H 	H 	0.08296 0.96799 0.00540 0.08100
H 	H 	0.91473 0.96112 0.00004 0.08100
C 	C 	0.91205 0.98463 0.46190 0.08300
C 	C 	0.97695 0.01991 0.45954 -0.08200
C 	C 	0.00694 0.99031 0.45705 0.08500
C 	C 	0.97176 0.92510 0.45638 -0.08500
C 	C 	0.90692 0.88950 0.45864 0.07900
C 	C 	0.87697 0.91925 0.46134 -0.08100
H 	H 	0.00414 0.07036 0.45997 0.08700
H 	H 	0.99491 0.90214 0.45435 0.08100
H 	H 	0.82686 0.89182 0.46326 0.08100
Cu	Cu	0.67445 0.26304 0.00146 0.93100
Cu	Cu	0.71320 0.26622 0.91452 0.87500
Cu	Cu	0.69992 0.36148 0.95133 0.90100
Cu	Cu	0.68851 0.38667 0.03586 0.90200
C 	C 	0.68788 0.29865 0.08412 0.29800
O 	O 	0.58363 0.22695 0.00694 -0.35000
C 	C 	0.67372 0.32218 0.86495 0.29700
O 	O 	0.72805 0.36202 0.00469 -0.63700
O 	O 	0.65744 0.26886 0.94599 -0.63900
O 	O 	0.71263 0.21707 0.99404 -0.34500
O 	O 	0.77736 0.28344 0.95570 -0.42700
O 	O 	0.70020 0.35457 0.08325 -0.36900
O 	O 	0.74814 0.45245 0.95818 -0.37100
C 	C 	0.75404 0.48950 0.98934 0.31900
C 	C 	0.55999 0.25832 0.00129 0.29800
O 	O 	0.59725 0.31729 0.99670 -0.38000
O 	O 	0.71795 0.46617 0.01615 -0.37200
O 	O 	0.70108 0.27226 0.05654 -0.34400
C 	C 	0.76412 0.24202 0.97844 0.30700
O 	O 	0.67590 0.35834 0.89521 -0.36900
O 	O 	0.66982 0.27113 0.86919 -0.40300
H 	H 	0.77497 0.38745 0.01284 0.18600
H 	H 	0.61197 0.24240 0.93300 0.19700
Cu	Cu	0.70957 0.31922 0.44981 0.93100
Cu	Cu	0.69589 0.27399 0.53481 0.87400
Cu	Cu	0.60281 0.28720 0.49423 0.90000
Cu	Cu	0.58637 0.30316 0.41146 0.90800
C 	C 	0.67106 0.29252 0.36560 0.29800
O 	O 	0.73973 0.40854 0.44525 -0.34800
C 	C 	0.63393 0.31000 0.58131 0.29600
O 	O 	0.60931 0.26213 0.44204 -0.63900
O 	O 	0.69672 0.33151 0.50400 -0.64100
O 	O 	0.75856 0.28450 0.46043 -0.34800
O 	O 	0.68517 0.21446 0.49349 -0.43100
O 	O 	0.64012 0.31708 0.37089 -0.36400
O 	O 	0.51077 0.23796 0.48338 -0.36900
C 	C 	0.47539 0.23700 0.45311 0.31800
C 	C 	0.70608 0.42891 0.45400 0.29700
O 	O 	0.64584 0.38810 0.45640 -0.37200
O 	O 	0.49711 0.25654 0.42066 -0.37200
O 	O 	0.70673 0.29354 0.39561 -0.34200
C 	C 	0.73135 0.23133 0.47389 0.30500
O 	O 	0.59875 0.30650 0.54963 -0.36300
O 	O 	0.68578 0.31362 0.57927 -0.41000
H 	H 	0.58466 0.21586 0.43296 0.17400
H 	H 	0.72180 0.37590 0.51818 0.18300
C 	C 	0.66571 0.33354 0.82483 -0.10000
C 	C 	0.70929 0.34357 0.79999 0.12800
C 	C 	0.69559 0.34516 0.76023 -0.09100
C 	C 	0.64061 0.33943 0.74525 0.00300
C 	C 	0.59931 0.33388 0.77074 0.07000
C 	C 	0.61198 0.33032 0.81031 -0.01800
N 	N 	0.76473 0.35271 0.81425 -0.20100
H 	H 	0.72775 0.35062 0.74077 0.06400
C 	C 	0.62494 0.33516 0.70231 0.00400
N 	N 	0.54790 0.33240 0.75757 -0.19200
H 	H 	0.57935 0.32396 0.82962 0.05800
C 	C 	0.58078 0.27531 0.67829 -0.09200
C 	C 	0.57761 0.26718 0.63730 0.13200
C 	C 	0.62059 0.31964 0.62045 -0.09900
C 	C 	0.65954 0.38044 0.64388 -0.01600
C 	C 	0.66136 0.38882 0.68472 0.06800
H 	H 	0.55092 0.23455 0.69169 0.06700
N 	N 	0.53415 0.20885 0.61444 -0.20400
H 	H 	0.69057 0.42100 0.63061 0.05200
N 	N 	0.69848 0.44821 0.70690 -0.19200
H 	H 	0.50403 0.16987 0.62725 0.10200
H 	H 	0.52836 0.20205 0.58373 0.09900
H 	H 	0.72703 0.48753 0.69396 0.10100
H 	H 	0.69758 0.45602 0.73684 0.10200
H 	H 	0.51687 0.32686 0.77636 0.10400
H 	H 	0.53913 0.33836 0.72898 0.10400
H 	H 	0.77897 0.35714 0.84429 0.07800
H 	H 	0.79557 0.35795 0.79539 0.09500
C 	C 	0.68152 0.28231 0.32561 -0.09100
C 	C 	0.64353 0.22130 0.30156 0.13400
C 	C 	0.64510 0.21505 0.26108 -0.09100
C 	C 	0.68442 0.26856 0.24453 0.00500
C 	C 	0.72588 0.32909 0.26924 0.07300
C 	C 	0.72420 0.33518 0.30963 -0.01500
N 	N 	0.60525 0.16875 0.31702 -0.20200
H 	H 	0.61447 0.16861 0.24223 0.06900
C 	C 	0.67688 0.26162 0.20105 0.00300
N 	N 	0.76642 0.38156 0.25428 -0.19100
H 	H 	0.75437 0.38170 0.32842 0.06300
C 	C 	0.62970 0.26336 0.18017 -0.08900
C 	C 	0.62855 0.26887 0.14032 0.13200
C 	C 	0.67707 0.27528 0.12162 -0.09200
C 	C 	0.72060 0.26759 0.14145 -0.02100
C 	C 	0.72031 0.25977 0.18094 0.07400
H 	H 	0.59477 0.26204 0.19525 0.06800
N 	N 	0.58059 0.26746 0.12011 -0.20200
H 	H 	0.75650 0.27043 0.12676 0.07700
N 	N 	0.76253 0.25187 0.19955 -0.19200
H 	H 	0.54628 0.26512 0.13447 0.10300
H 	H 	0.57532 0.26590 0.08971 0.09500
H 	H 	0.79569 0.25243 0.18483 0.10900
H 	H 	0.76174 0.24342 0.22835 0.10600
H 	H 	0.79624 0.42606 0.27272 0.10600
H 	H 	0.76928 0.37885 0.22445 0.10400
H 	H 	0.60514 0.17160 0.34724 0.10000
H 	H 	0.57618 0.12397 0.29887 0.10300
C 	C 	0.82517 0.73220 0.49263 -0.05200
C 	C 	0.81518 0.69243 0.45835 0.01500
C 	C 	0.83153 0.71670 0.42347 0.07700
C 	C 	0.85834 0.78047 0.42340 -0.04300
C 	C 	0.87058 0.82083 0.45804 -0.01800
C 	C 	0.85350 0.79642 0.49281 0.08800
C 	C 	0.78661 0.62507 0.45886 0.03200
N 	N 	0.82194 0.67692 0.38823 -0.01900
H 	H 	0.87160 0.79915 0.39667 0.07700
N 	N 	0.86591 0.83692 0.52851 -0.02100
H 	H 	0.81214 0.71354 0.51939 0.08300
C 	C 	0.82239 0.60769 0.47824 0.05800
C 	C 	0.79538 0.54346 0.47687 -0.00200
C 	C 	0.73336 0.49633 0.45578 -0.08700
C 	C 	0.69787 0.51391 0.43612 0.12400
C 	C 	0.72418 0.57803 0.43853 -0.07100
N 	N 	0.88636 0.65508 0.49899 -0.01600
H 	H 	0.82291 0.53029 0.49194 0.06100
N 	N 	0.63637 0.46688 0.41213 -0.02500
H 	H 	0.69675 0.59127 0.42340 0.08800
O 	O 	0.81910 0.82465 0.54580 -0.08100
O 	O 	0.92436 0.88318 0.54527 -0.07800
O 	O 	0.78738 0.67032 0.35592 -0.08400
O 	O 	0.85140 0.65099 0.38772 -0.07900
O 	O 	0.58650 0.46172 0.42049 -0.08900
O 	O 	0.63112 0.43318 0.38001 -0.11000
O 	O 	0.90175 0.65715 0.53619 -0.09000
O 	O 	0.93020 0.69315 0.48007 -0.07900
C 	C 	0.88031 0.10229 0.49643 -0.05200
C 	C 	0.83052 0.08550 0.46632 0.01500
C 	C 	0.80513 0.03316 0.43575 0.07500
C 	C 	0.83129 0.99973 0.43494 -0.03700
C 	C 	0.88101 0.01648 0.46511 -0.02000
C 	C 	0.90422 0.06688 0.49669 0.08900
C 	C 	0.80386 0.12177 0.46769 0.03400
N 	N 	0.75237 0.01344 0.40574 -0.02000
H 	H 	0.81295 0.96075 0.41078 0.07400
N 	N 	0.95137 0.08154 0.52936 -0.02200
H 	H 	0.89935 0.14192 0.52025 0.08300
C 	C 	0.77321 0.12218 0.49876 0.05300
C 	C 	0.75165 0.15960 0.50100 -0.00200
C 	C 	0.75724 0.19438 0.47143 -0.09800
C 	C 	0.78568 0.19194 0.43944 0.12700
C 	C 	0.81048 0.15721 0.43839 -0.07500
N 	N 	0.76305 0.08385 0.52782 -0.01600
H 	H 	0.72957 0.16080 0.52556 0.04700
N 	N 	0.78621 0.22148 0.40693 -0.02100
H 	H 	0.83352 0.15659 0.41425 0.08800
O 	O 	0.00297 0.13923 0.54076 -0.08700
O 	O 	0.94095 0.03808 0.54915 -0.07500
O 	O 	0.75715 0.00909 0.36879 -0.08700
O 	O 	0.69820 0.99560 0.41519 -0.07900
O 	O 	0.84012 0.26891 0.39997 -0.08400
O 	O 	0.73362 0.19686 0.38201 -0.08900
O 	O 	0.78366 0.10966 0.56505 -0.09500
O 	O 	0.72954 0.02269 0.51724 -0.08000
C 	C 	0.16617 0.09613 0.42537 -0.05100
C 	C 	0.20727 0.09852 0.45573 0.01400
C 	C 	0.18255 0.06583 0.48676 0.07800
C 	C 	0.11728 0.03174 0.48728 -0.04100
C 	C 	0.07589 0.02796 0.45639 -0.01900
C 	C 	0.10047 0.05985 0.42502 0.08800
C 	C 	0.27603 0.13455 0.45457 0.03400
N 	N 	0.22349 0.06636 0.51746 -0.01900
H 	H 	0.09853 0.00724 0.51140 0.07900
N 	N 	0.05868 0.05427 0.39235 -0.02200
H 	H 	0.18505 0.12112 0.40144 0.08500
C 	C 	0.29712 0.11446 0.42504 0.05600
C 	C 	0.36231 0.14972 0.42400 0.00200
C 	C 	0.40695 0.20373 0.45289 -0.09000
C 	C 	0.38596 0.22378 0.48250 0.12600
C 	C 	0.32060 0.18937 0.48299 -0.07200
N 	N 	0.25254 0.05753 0.39655 -0.01700
H 	H 	0.37841 0.13388 0.40142 0.06100
N 	N 	0.43086 0.27933 0.51192 -0.02500
H 	H 	0.30446 0.20527 0.50549 0.08900
O 	O 	0.06823 0.10486 0.38238 -0.08600
O 	O 	0.01403 0.99899 0.37085 -0.08300
O 	O 	0.22666 0.08584 0.55410 -0.08500
O 	O 	0.25405 0.04320 0.50901 -0.08100
O 	O 	0.46854 0.33381 0.50157 -0.08700
O 	O 	0.43139 0.27609 0.54912 -0.08400
O 	O 	0.25027 0.05904 0.35909 -0.08600
O 	O 	0.21746 0.00357 0.40799 -0.08000
C 	C 	0.91636 0.78375 0.96402 -0.05200
C 	C 	0.88561 0.75640 0.99498 0.01600
C 	C 	0.88862 0.79479 0.02763 0.07700
C 	C 	0.92397 0.86027 0.02949 -0.04700
C 	C 	0.95497 0.88762 0.99860 -0.00900
C 	C 	0.94984 0.84886 0.96525 0.08700
C 	C 	0.85155 0.68776 0.99344 0.03600
N 	N 	0.85562 0.76735 0.05886 -0.01900
H 	H 	0.92723 0.88988 0.05494 0.07700
N 	N 	0.97813 0.87548 0.93244 -0.02200
H 	H 	0.91362 0.75424 0.93873 0.08300
C 	C 	0.79588 0.64341 0.96494 0.05700
C 	C 	0.76598 0.57859 0.96271 0.00300
C 	C 	0.79001 0.55748 0.98935 -0.08700
C 	C 	0.84560 0.60172 0.01785 0.12000
C 	C 	0.87625 0.66662 0.01961 -0.07300
N 	N 	0.76901 0.66407 0.93868 -0.01600
H 	H 	0.72283 0.54455 0.94104 0.06700
N 	N 	0.87122 0.58088 0.04493 -0.02700
H 	H 	0.91953 0.70064 0.04119 0.08800
O 	O 	0.01768 0.86643 0.91972 -0.08600
O 	O 	0.96123 0.90526 0.91374 -0.07200
O 	O 	0.88654 0.78815 0.09511 -0.08200
O 	O 	0.79405 0.72449 0.05137 -0.07700
O 	O 	0.88650 0.54463 0.03177 -0.10700
O 	O 	0.88342 0.60174 0.08264 -0.08700
O 	O 	0.75838 0.64573 0.90077 -0.08800
O 	O 	0.75117 0.69761 0.95272 -0.07500
C 	C 	0.84272 0.17047 0.01950 -0.07700
C 	C 	0.87376 0.16983 0.98893 0.03700
C 	C 	0.87112 0.19560 0.95573 0.05400
C 	C 	0.83467 0.21836 0.95246 -0.00100
C 	C 	0.80357 0.21907 0.98303 -0.09400
C 	C 	0.81004 0.19741 0.01749 0.12600
C 	C 	0.90771 0.14074 0.99135 0.01600
N 	N 	0.90612 0.19948 0.92551 -0.01600
H 	H 	0.83103 0.23602 0.92621 0.04900
N 	N 	0.78855 0.20777 0.05163 -0.02100
H 	H 	0.84568 0.15186 0.04544 0.08900
C 	C 	0.96087 0.16597 0.02160 0.07500
C 	C 	0.99102 0.13653 0.02404 -0.04700
C 	C 	0.97082 0.08407 0.99541 -0.01500
C 	C 	0.91974 0.06092 0.96400 0.08700
C 	C 	0.88702 0.08780 0.96303 -0.05200
N 	N 	0.98500 0.22209 0.04947 -0.02000
H 	H 	0.03065 0.15492 0.04799 0.07700
N 	N 	0.90223 0.01140 0.93246 -0.02200
H 	H 	0.84656 0.06863 0.93953 0.08400
O 	O 	0.81544 0.26520 0.07000 -0.09100
O 	O 	0.74686 0.15997 0.06662 -0.08900
O 	O 	0.87689 0.17514 0.88893 -0.09400
O 	O 	0.96778 0.23090 0.93421 -0.07900
O 	O 	0.94399 0.01885 0.91164 -0.07500
O 	O 	0.84348 0.96075 0.92283 -0.08100
O 	O 	0.99127 0.22173 0.08708 -0.08600
O 	O 	0.00490 0.27463 0.03737 -0.07700
C 	C 	0.37971 0.14081 0.98292 -0.07200
C 	C 	0.36381 0.17610 0.00404 0.03100
C 	C 	0.41251 0.23773 0.02501 0.05600
C 	C 	0.47643 0.26350 0.02445 -0.00200
C 	C 	0.49240 0.22888 0.00258 -0.09700
C 	C 	0.44365 0.16711 0.98167 0.12700
C 	C 	0.29606 0.14821 0.00424 0.01100
N 	N 	0.39716 0.27443 0.04673 -0.01600
H 	H 	0.51375 0.31080 0.04083 0.05200
N 	N 	0.45867 0.13188 0.95799 -0.02300
H 	H 	0.34230 0.09335 0.96681 0.08700
C 	C 	0.25597 0.13987 0.97023 0.08100
C 	C 	0.19142 0.11161 0.97062 -0.04000
C 	C 	0.16667 0.09247 0.00481 -0.01800
C 	C 	0.20728 0.10283 0.03923 0.08600
C 	C 	0.27150 0.12982 0.03858 -0.05100
N 	N 	0.28063 0.15979 0.93522 -0.01900
H 	H 	0.16034 0.10393 0.94418 0.08000
N 	N 	0.18336 0.08590 0.07486 -0.02100
H 	H 	0.30246 0.13698 0.06491 0.08100
O 	O 	0.48104 0.14996 0.92618 -0.10400
O 	O 	0.44425 0.07856 0.96615 -0.08800
O 	O 	0.42057 0.29650 0.08423 -0.09300
O 	O 	0.36357 0.28953 0.02850 -0.07800
O 	O 	0.15641 0.10931 0.09023 -0.08600
O 	O 	0.19191 0.05006 0.09316 -0.08900
O 	O 	0.25453 0.11949 0.90203 -0.08300
O 	O 	0.32633 0.21903 0.93595 -0.07700
