data_crystal

_cell_length_a 20.44198
_cell_length_b 27.08894
_cell_length_c 38.72251
_cell_angle_alpha 89.99987
_cell_angle_beta  76.95452
_cell_angle_gamma 90.00025

_symmetry_space_group_name_	'P 1'
_symmetry_space_group_name_H-M	'P 1'

loop_
_symmetry_equiv_pos_as_xyz
  x,y,z

loop_
_atom_site_label
_atom_site_type_symbol
_atom_site_fract_x
_atom_site_fract_y
_atom_site_fract_z
_atom_site_charge
Cu	Cu	0.55930 0.47798 0.15831 0.93100
Cu	Cu	0.67494 0.53744 0.18700 0.88000
Cu	Cu	0.54138 0.58192 0.18945 0.89900
Cu	Cu	0.41570 0.52726 0.18179 0.90600
C 	C 	0.43897 0.41987 0.17486 0.29400
O 	O 	0.53228 0.49490 0.11240 -0.34600
C 	C 	0.66187 0.64240 0.18425 0.28800
O 	O 	0.49502 0.51902 0.19863 -0.63300
O 	O 	0.60951 0.54011 0.15750 -0.64000
O 	O 	0.63260 0.43265 0.16449 -0.35500
O 	O 	0.65023 0.47683 0.21119 -0.41800
O 	O 	0.40589 0.45818 0.16670 -0.36800
O 	O 	0.47252 0.62275 0.21929 -0.36200
C 	C 	0.40799 0.62087 0.21934 0.29400
C 	C 	0.50226 0.53665 0.10781 0.28700
O 	O 	0.47451 0.56382 0.13532 -0.38100
O 	O 	0.37823 0.57840 0.21689 -0.37300
O 	O 	0.50508 0.41989 0.16819 -0.34600
C 	C 	0.65659 0.43551 0.19311 0.29400
O 	O 	0.59787 0.64101 0.18290 -0.36200
O 	O 	0.70159 0.60408 0.17476 -0.39400
H 	H 	0.48830 0.50721 0.22339 0.17600
H 	H 	0.62661 0.55474 0.13374 0.18800
Cu	Cu	0.43212 0.40674 0.80648 0.93200
Cu	Cu	0.32280 0.46176 0.76915 0.87800
Cu	Cu	0.45005 0.51052 0.77538 0.90100
Cu	Cu	0.56920 0.46460 0.79719 0.90100
C 	C 	0.55753 0.35549 0.80035 0.29300
O 	O 	0.43827 0.42436 0.85645 -0.34700
C 	C 	0.32753 0.56701 0.77299 0.29000
O 	O 	0.50255 0.45087 0.77158 -0.63600
O 	O 	0.37896 0.46667 0.80321 -0.63900
O 	O 	0.37006 0.35787 0.79258 -0.35200
O 	O 	0.35838 0.40334 0.74509 -0.42200
O 	O 	0.58260 0.39547 0.81193 -0.37000
O 	O 	0.52132 0.54953 0.74675 -0.36600
C 	C 	0.57992 0.55711 0.75472 0.29400
C 	C 	0.45855 0.46807 0.86465 0.28400
O 	O 	0.49360 0.49656 0.83972 -0.38200
O 	O 	0.61163 0.52111 0.76728 -0.37300
O 	O 	0.49268 0.35176 0.80153 -0.34500
C 	C 	0.35221 0.36121 0.76215 0.29600
O 	O 	0.39129 0.56783 0.77502 -0.35900
O 	O 	0.29028 0.52712 0.78102 -0.39900
H 	H 	0.51964 0.43896 0.74702 0.17900
H 	H 	0.35580 0.48117 0.82620 0.18600
Cu	Cu	0.98872 0.97465 0.29336 0.93000
Cu	Cu	0.88738 0.03821 0.25578 0.87700
Cu	Cu	0.01690 0.07907 0.26492 0.90500
Cu	Cu	0.12938 0.02645 0.28718 0.90300
C 	C 	0.10965 0.91875 0.28651 0.29100
O 	O 	0.99570 0.98776 0.34397 -0.35100
C 	C 	0.90232 0.14260 0.26135 0.28900
O 	O 	0.06382 0.01726 0.26019 -0.63600
O 	O 	0.94117 0.03765 0.29126 -0.64500
O 	O 	0.92362 0.93061 0.27740 -0.35700
O 	O 	0.91987 0.97986 0.23046 -0.41900
O 	O 	0.13512 0.95603 0.30094 -0.35700
O 	O 	0.09140 0.11533 0.23679 -0.36500
C 	C 	0.15090 0.11919 0.24440 0.29500
C 	C 	0.01852 0.02983 0.35356 0.29300
O 	O 	0.05417 0.05913 0.32948 -0.38100
O 	O 	0.17772 0.08214 0.25869 -0.36900
O 	O 	0.04500 0.91725 0.28680 -0.33600
C 	C 	0.90957 0.93684 0.24627 0.29700
O 	O 	0.96407 0.13965 0.26632 -0.36700
O 	O 	0.86067 0.10486 0.26803 -0.39600
H 	H 	0.08130 0.00630 0.23543 0.17900
H 	H 	0.91827 0.05185 0.31439 0.18800
Cu	Cu	0.98665 0.90768 0.67105 0.92700
Cu	Cu	0.10534 0.95758 0.70443 0.89000
Cu	Cu	0.97670 0.01030 0.70530 0.89400
Cu	Cu	0.85687 0.97382 0.67937 0.90300
C 	C 	0.85537 0.86427 0.68090 0.28900
O 	O 	0.98297 0.92348 0.62055 -0.35200
C 	C 	0.10625 0.06213 0.70238 0.29300
O 	O 	0.91976 0.95454 0.70566 -0.64000
O 	O 	0.04363 0.96623 0.67383 -0.62900
O 	O 	0.04484 0.85560 0.68508 -0.34700
O 	O 	0.06467 0.90196 0.73036 -0.41200
O 	O 	0.83238 0.90494 0.66887 -0.36500
O 	O 	0.90767 0.04739 0.73721 -0.37100
C 	C 	0.84845 0.05837 0.73093 0.29400
C 	C 	0.96638 0.96748 0.61121 0.28600
O 	O 	0.93606 0.99881 0.63544 -0.37400
O 	O 	0.82603 0.03694 0.70508 -0.37700
O 	O 	0.92064 0.85625 0.67622 -0.34300
C 	C 	0.06698 0.85922 0.71428 0.29300
O 	O 	0.04004 0.06192 0.71345 -0.36200
O 	O 	0.13964 0.02169 0.69067 -0.39500
H 	H 	0.89970 0.94177 0.72968 0.17700
H 	H 	0.06441 0.98156 0.65076 0.18900
C 	C 	0.01927 0.04342 0.52727 -0.01500
C 	C 	0.99604 0.01377 0.50259 -0.01500
C 	C 	0.96650 0.96750 0.51308 -0.01900
C 	C 	0.95857 0.95149 0.54841 0.01600
C 	C 	0.98098 0.98154 0.57326 -0.07600
C 	C 	0.01511 0.02602 0.56200 0.02100
C 	C 	0.00679 0.02961 0.46483 0.05400
C 	C 	0.94467 0.93626 0.48739 0.10000
C 	C 	0.05121 0.05127 0.58496 0.08500
C 	C 	0.06883 0.02024 0.44114 -0.04200
C 	C 	0.07469 0.02536 0.40438 0.02800
C 	C 	0.01787 0.03804 0.39128 -0.06600
C 	C 	0.95801 0.05242 0.41503 0.01800
C 	C 	0.95280 0.04887 0.45189 -0.05300
C 	C 	0.12586 0.00375 0.45459 0.10200
C 	C 	0.90182 0.07043 0.40152 0.07900
C 	C 	0.13876 0.01669 0.38001 0.07900
C 	C 	0.89157 0.06385 0.47651 0.10800
C 	C 	0.04754 0.09171 0.51688 0.10100
C 	C 	0.92906 0.90357 0.55888 0.09700
N 	N 	0.18997 0.00982 0.36061 -0.11200
N 	N 	0.17131 0.99059 0.46536 -0.09500
N 	N 	0.85697 0.08481 0.39073 -0.10400
N 	N 	0.84272 0.07579 0.49619 -0.10500
N 	N 	0.92729 0.91141 0.46685 -0.09900
N 	N 	0.90587 0.86520 0.56712 -0.09200
N 	N 	0.08044 0.07120 0.60320 -0.10600
N 	N 	0.07010 0.13024 0.50855 -0.09800
C 	C 	0.72897 0.76120 0.68067 -0.03500
C 	C 	0.73055 0.73698 0.71271 0.02300
C 	C 	0.76898 0.75673 0.73543 -0.03400
C 	C 	0.80615 0.80043 0.72599 0.02400
C 	C 	0.80854 0.82269 0.69277 -0.06900
C 	C 	0.76808 0.80390 0.67058 0.02500
C 	C 	0.69102 0.69075 0.72272 0.02300
C 	C 	0.77062 0.73182 0.76837 0.10600
C 	C 	0.76574 0.82878 0.63772 0.10000
C 	C 	0.71804 0.64481 0.70945 -0.03600
C 	C 	0.68026 0.60125 0.71843 0.02500
C 	C 	0.61693 0.60321 0.74240 -0.07100
C 	C 	0.58971 0.64931 0.75542 0.02300
C 	C 	0.62631 0.69305 0.74513 -0.03500
C 	C 	0.78484 0.64243 0.68666 0.10600
C 	C 	0.52462 0.65168 0.77992 0.08700
C 	C 	0.70547 0.55476 0.70209 0.09300
C 	C 	0.59752 0.74049 0.75765 0.10600
C 	C 	0.68712 0.74203 0.65808 0.10600
C 	C 	0.84026 0.82340 0.75088 0.08300
N 	N 	0.72559 0.51768 0.68904 -0.10100
N 	N 	0.83815 0.64062 0.66848 -0.10100
N 	N 	0.47272 0.65374 0.79946 -0.09300
N 	N 	0.57463 0.77837 0.76760 -0.10000
N 	N 	0.77190 0.71189 0.79465 -0.10300
N 	N 	0.86752 0.84172 0.77071 -0.11000
N 	N 	0.76336 0.84860 0.61157 -0.09300
N 	N 	0.65372 0.72669 0.64009 -0.10000
C 	C 	0.65261 0.24491 0.75386 -0.03500
C 	C 	0.67705 0.22326 0.78160 0.02300
C 	C 	0.66174 0.24470 0.81566 -0.03600
C 	C 	0.62398 0.28868 0.82170 0.02500
C 	C 	0.59928 0.31031 0.79394 -0.07100
C 	C 	0.61427 0.28861 0.75994 0.02200
C 	C 	0.72256 0.17955 0.77433 0.02300
C 	C 	0.68522 0.22156 0.84441 0.10500
C 	C 	0.59295 0.31257 0.73084 0.08100
C 	C 	0.79266 0.18640 0.76428 -0.03600
C 	C 	0.83530 0.14560 0.75375 0.02200
C 	C 	0.80751 0.09817 0.75170 -0.07200
C 	C 	0.73815 0.09069 0.76552 0.02300
C 	C 	0.69558 0.13145 0.77647 -0.03500
C 	C 	0.82072 0.23559 0.76423 0.10300
C 	C 	0.71096 0.04102 0.76908 0.08300
C 	C 	0.90745 0.15236 0.74601 0.09300
C 	C 	0.62398 0.12407 0.78945 0.10500
C 	C 	0.66745 0.22235 0.71899 0.10400
C 	C 	0.61228 0.31234 0.85614 0.09800
N 	N 	0.96498 0.15809 0.74010 -0.09900
N 	N 	0.84302 0.27486 0.76421 -0.10600
N 	N 	0.68929 0.00138 0.77191 -0.10700
N 	N 	0.56683 0.11824 0.79981 -0.10000
N 	N 	0.70400 0.20306 0.86731 -0.10200
N 	N 	0.60343 0.33120 0.88361 -0.09500
N 	N 	0.57611 0.33181 0.70762 -0.10300
N 	N 	0.67935 0.20429 0.69119 -0.10300
C 	C 	0.16677 0.19521 0.69938 -0.03400
C 	C 	0.21384 0.19252 0.72091 0.02300
C 	C 	0.22729 0.14686 0.73532 -0.03500
C 	C 	0.19136 0.10436 0.72971 0.02500
C 	C 	0.14420 0.10688 0.70808 -0.07000
C 	C 	0.13229 0.15240 0.69274 0.02700
C 	C 	0.24681 0.23834 0.73003 0.02400
C 	C 	0.27778 0.14380 0.75622 0.10600
C 	C 	0.08395 0.15542 0.67057 0.09800
C 	C 	0.21866 0.26409 0.76153 -0.03700
C 	C 	0.25254 0.30498 0.77171 0.02500
C 	C 	0.31466 0.32027 0.75033 -0.08300
C 	C 	0.34066 0.29640 0.71771 0.02700
C 	C 	0.30726 0.25498 0.70783 -0.03700
C 	C 	0.15490 0.24831 0.78348 0.10600
C 	C 	0.40122 0.31477 0.69415 0.08900
C 	C 	0.22270 0.33212 0.80369 0.07400
C 	C 	0.33525 0.22920 0.67500 0.10600
C 	C 	0.15350 0.24216 0.68431 0.10700
C 	C 	0.20068 0.05860 0.74748 0.08000
N 	N 	0.19891 0.35378 0.82920 -0.10600
N 	N 	0.10402 0.23565 0.80096 -0.09900
N 	N 	0.44939 0.32945 0.67523 -0.09600
N 	N 	0.35752 0.20859 0.64881 -0.10200
N 	N 	0.31808 0.14143 0.77289 -0.10000
N 	N 	0.20811 0.02214 0.76170 -0.10900
N 	N 	0.04515 0.15817 0.65303 -0.09500
N 	N 	0.14296 0.27966 0.67231 -0.10200
C 	C 	0.11609 0.72991 0.73784 -0.03400
C 	C 	0.17967 0.73873 0.74504 0.02300
C 	C 	0.20563 0.78708 0.74303 -0.03600
C 	C 	0.17002 0.82618 0.73176 0.02600
C 	C 	0.10547 0.81774 0.72523 -0.07700
C 	C 	0.07876 0.76933 0.72818 0.02200
C 	C 	0.22110 0.69654 0.75284 0.02300
C 	C 	0.26948 0.79645 0.75222 0.10700
C 	C 	0.01355 0.75981 0.72066 0.11300
C 	C 	0.26946 0.67477 0.72523 -0.03500
C 	C 	0.30698 0.63387 0.73231 0.02100
C 	C 	0.29477 0.61372 0.76676 -0.07100
C 	C 	0.24821 0.63659 0.79465 0.02700
C 	C 	0.21167 0.67818 0.78772 -0.03500
C 	C 	0.27997 0.69419 0.68949 0.10400
C 	C 	0.23818 0.61748 0.83045 0.09700
C 	C 	0.35758 0.61206 0.70406 0.07900
C 	C 	0.16416 0.70198 0.81636 0.10700
C 	C 	0.08934 0.68012 0.74010 0.10600
C 	C 	0.20166 0.87420 0.72470 0.05900
N 	N 	0.39799 0.59466 0.68154 -0.10400
N 	N 	0.28830 0.70974 0.66100 -0.10200
N 	N 	0.23013 0.60221 0.85902 -0.09600
N 	N 	0.12623 0.72102 0.83919 -0.09900
N 	N 	0.32043 0.80385 0.75956 -0.09900
N 	N 	0.22713 0.91242 0.71906 -0.12700
N 	N 	0.96172 0.75187 0.71453 -0.10600
N 	N 	0.06808 0.64037 0.74192 -0.10200
C 	C 	0.32160 0.73091 0.27143 -0.03600
C 	C 	0.27981 0.74694 0.24919 0.02400
C 	C 	0.28102 0.72210 0.21707 -0.03500
C 	C 	0.32577 0.68256 0.20650 0.02300
C 	C 	0.36589 0.66532 0.22926 -0.07200
C 	C 	0.36331 0.68932 0.26194 0.02700
C 	C 	0.23587 0.79108 0.25906 0.02400
C 	C 	0.23599 0.73724 0.19495 0.10700
C 	C 	0.40203 0.67048 0.28619 0.09700
C 	C 	0.25658 0.83735 0.24376 -0.03400
C 	C 	0.21351 0.87843 0.25135 0.02400
C 	C 	0.15146 0.87421 0.27615 -0.06800
C 	C 	0.13137 0.82807 0.29214 0.02900
C 	C 	0.17277 0.78630 0.28281 -0.03400
C 	C 	0.32237 0.84262 0.22027 0.10700
C 	C 	0.06925 0.82385 0.31888 0.10500
C 	C 	0.23231 0.92482 0.23307 0.07500
C 	C 	0.15052 0.73835 0.29757 0.10800
C 	C 	0.32164 0.75729 0.30401 0.10700
C 	C 	0.33210 0.66055 0.17175 0.08000
N 	N 	0.24726 0.96184 0.21851 -0.10500
N 	N 	0.37486 0.84676 0.20153 -0.10000
N 	N 	0.01968 0.82046 0.34020 -0.08800
N 	N 	0.13283 0.70007 0.30934 -0.09900
N 	N 	0.20003 0.74937 0.17735 -0.09800
N 	N 	0.33719 0.64308 0.14399 -0.10200
N 	N 	0.43288 0.65545 0.30556 -0.09600
N 	N 	0.32161 0.77837 0.33001 -0.10000
C 	C 	0.72101 0.75055 0.23101 -0.03500
C 	C 	0.76323 0.77519 0.20234 0.02200
C 	C 	0.76731 0.75873 0.16735 -0.03600
C 	C 	0.73192 0.71615 0.16119 0.02600
C 	C 	0.69214 0.69024 0.19003 -0.07200
C 	C 	0.68486 0.70846 0.22480 0.02100
C 	C 	0.80410 0.81821 0.20916 0.02500
C 	C 	0.80822 0.78549 0.13779 0.10500
C 	C 	0.64076 0.68347 0.25422 0.07700
C 	C 	0.87030 0.81093 0.21319 -0.04000
C 	C 	0.90631 0.85057 0.22352 0.03300
C 	C 	0.87534 0.89714 0.23092 -0.08300
C 	C 	0.81009 0.90490 0.22538 0.02700
C 	C 	0.77515 0.86566 0.21380 -0.03800
C 	C 	0.90094 0.76248 0.20713 0.10500
C 	C 	0.77801 0.95270 0.23282 0.06400
C 	C 	0.97554 0.84368 0.22591 0.07600
C 	C 	0.70897 0.87383 0.20713 0.10600
C 	C 	0.71549 0.76825 0.26691 0.10400
C 	C 	0.73599 0.69916 0.12525 0.09400
N 	N 	0.03078 0.83810 0.22774 -0.08500
N 	N 	0.92531 0.72380 0.20228 -0.10500
N 	N 	0.75237 0.99083 0.23875 -0.12200
N 	N 	0.65616 0.88029 0.20181 -0.10000
N 	N 	0.84089 0.80688 0.11423 -0.10300
N 	N 	0.73921 0.68559 0.09657 -0.09700
N 	N 	0.60556 0.66352 0.27767 -0.10300
N 	N 	0.71116 0.78242 0.29553 -0.10200
C 	C 	0.86393 0.25396 0.21031 -0.03500
C 	C 	0.81207 0.27649 0.23567 0.02300
C 	C 	0.79582 0.25853 0.27077 -0.03600
C 	C 	0.82766 0.21575 0.27976 0.02600
C 	C 	0.87616 0.19124 0.25370 -0.07200
C 	C 	0.89663 0.21179 0.21949 0.02000
C 	C 	0.77198 0.31740 0.22485 0.02400
C 	C 	0.74588 0.28380 0.29746 0.10500
C 	C 	0.95073 0.18908 0.19362 0.07700
C 	C 	0.71143 0.30679 0.21474 -0.03700
C 	C 	0.67406 0.34514 0.20378 0.02600
C 	C 	0.69755 0.39441 0.20265 -0.07900
C 	C 	0.76004 0.40450 0.21117 0.02500
C 	C 	0.79579 0.36634 0.22350 -0.03700
C 	C 	0.68771 0.25622 0.21552 0.10400
C 	C 	0.78929 0.45345 0.20544 0.06400
C 	C 	0.61222 0.33355 0.19313 0.09700
C 	C 	0.85727 0.37736 0.23473 0.10500
C 	C 	0.88267 0.27371 0.17462 0.10300
C 	C 	0.81110 0.19725 0.31583 0.09400
N 	N 	0.56316 0.32373 0.18452 -0.09200
N 	N 	0.66887 0.21587 0.21617 -0.10400
N 	N 	0.81271 0.49247 0.20085 -0.12600
N 	N 	0.90633 0.38609 0.24369 -0.10300
N 	N 	0.70600 0.30402 0.31872 -0.10200
N 	N 	0.79792 0.18247 0.34462 -0.09600
N 	N 	0.99394 0.17096 0.17301 -0.10700
N 	N 	0.89756 0.28952 0.14616 -0.10400
C 	C 	0.21410 0.25097 0.23027 -0.03500
C 	C 	0.27911 0.24346 0.20908 0.02400
C 	C 	0.30045 0.19549 0.19764 -0.03500
C 	C 	0.25677 0.15510 0.20733 0.02600
C 	C 	0.19350 0.16213 0.23064 -0.07000
C 	C 	0.17186 0.21029 0.24169 0.02400
C 	C 	0.32525 0.28625 0.19891 0.02400
C 	C 	0.36752 0.18776 0.17608 0.10700
C 	C 	0.10683 0.21785 0.26551 0.09000
C 	C 	0.36152 0.30489 0.22302 -0.03400
C 	C 	0.39919 0.34862 0.21508 0.02300
C 	C 	0.40333 0.37236 0.18223 -0.06900
C 	C 	0.37098 0.35164 0.15705 0.02700
C 	C 	0.33061 0.30933 0.16574 -0.03500
C 	C 	0.35958 0.27919 0.25609 0.10500
C 	C 	0.37991 0.37358 0.12209 0.10100
C 	C 	0.43245 0.36984 0.24097 0.08400
C 	C 	0.29386 0.28982 0.14079 0.10700
C 	C 	0.19090 0.30063 0.24040 0.10600
C 	C 	0.27578 0.10676 0.19225 0.09400
N 	N 	0.45905 0.38679 0.26158 -0.10600
N 	N 	0.35798 0.25864 0.28247 -0.10200
N 	N 	0.38704 0.39114 0.09424 -0.09300
N 	N 	0.26452 0.27421 0.12092 -0.09900
N 	N 	0.42104 0.18165 0.15888 -0.10000
N 	N 	0.29101 0.06824 0.18016 -0.09600
N 	N 	0.05501 0.22399 0.28451 -0.09200
N 	N 	0.17249 0.34028 0.24846 -0.10100
C 	C 	0.46206 0.46884 0.96208 -0.03500
C 	C 	0.45399 0.51966 0.96971 0.02200
C 	C 	0.43656 0.55201 0.94471 -0.03500
C 	C 	0.43115 0.53399 0.91129 0.02300
C 	C 	0.44592 0.48399 0.90234 -0.07400
C 	C 	0.45590 0.45072 0.92887 0.02100
C 	C 	0.46220 0.53867 0.00461 0.02500
C 	C 	0.42474 0.60382 0.95330 0.10700
C 	C 	0.45659 0.39790 0.92276 0.10100
C 	C 	0.52636 0.55244 0.00899 -0.03500
C 	C 	0.53826 0.55663 0.04335 0.02500
C 	C 	0.48617 0.54652 0.07317 -0.07200
C 	C 	0.42018 0.53875 0.06876 0.02800
C 	C 	0.40812 0.53573 0.03442 -0.03500
C 	C 	0.58039 0.56075 0.97815 0.10400
C 	C 	0.36548 0.53118 0.09944 0.08600
C 	C 	0.60413 0.57069 0.04807 0.08300
C 	C 	0.34058 0.52770 0.02967 0.10900
C 	C 	0.47734 0.43526 0.98838 0.10500
C 	C 	0.40742 0.56617 0.88678 0.08600
N 	N 	0.65668 0.58192 0.05187 -0.10400
N 	N 	0.62346 0.56737 0.95350 -0.10400
N 	N 	0.32175 0.52509 0.12387 -0.11200
N 	N 	0.28670 0.52128 0.02583 -0.09900
N 	N 	0.41532 0.64516 0.96020 -0.09900
N 	N 	0.38845 0.59181 0.86722 -0.09800
N 	N 	0.45670 0.35570 0.91807 -0.09000
N 	N 	0.48954 0.40855 0.00939 -0.09700
