data_crystal

_cell_length_a 18.57056
_cell_length_b 18.93083
_cell_length_c 34.59667
_cell_angle_alpha 95.44532
_cell_angle_beta  95.44601
_cell_angle_gamma 126.41531

_symmetry_space_group_name_	'P 1'
_symmetry_space_group_name_H-M	'P 1'

loop_
_symmetry_equiv_pos_as_xyz
  x,y,z

loop_
_atom_site_label
_atom_site_type_symbol
_atom_site_fract_x
_atom_site_fract_y
_atom_site_fract_z
_atom_site_charge
C 	C 	0.90591 0.99825 0.96260 0.02200
C 	C 	0.99835 0.04967 0.96006 -0.05600
C 	C 	0.04373 0.01143 0.96058 0.02500
C 	C 	0.99588 0.92055 0.96160 -0.06300
C 	C 	0.90272 0.86749 0.96263 0.03200
C 	C 	0.85758 0.90657 0.96374 -0.06800
H 	H 	0.03581 0.12029 0.95937 0.04700
H 	H 	0.03124 0.89109 0.96177 0.04800
H 	H 	0.78603 0.86635 0.96566 0.05100
C 	C 	0.94105 0.03384 0.49559 0.04600
C 	C 	0.03477 0.08440 0.49550 -0.08400
C 	C 	0.07705 0.04286 0.49549 0.04400
C 	C 	0.02568 0.95119 0.49563 -0.08800
C 	C 	0.93285 0.90146 0.49700 0.04500
C 	C 	0.89053 0.94270 0.49686 -0.08600
H 	H 	0.07421 0.15522 0.49495 0.05500
H 	H 	0.05831 0.91901 0.49552 0.05500
H 	H 	0.81823 0.90377 0.49726 0.05400
Cu	Cu	0.76131 0.34625 0.96044 0.92700
Cu	Cu	0.75635 0.29098 0.04795 0.87300
Cu	Cu	0.61179 0.29583 0.00810 0.89500
Cu	Cu	0.58733 0.33010 0.92678 0.89500
C 	C 	0.69466 0.30443 0.87663 0.27800
O 	O 	0.80937 0.47437 0.95673 -0.35700
C 	C 	0.66996 0.33878 0.09562 0.27800
O 	O 	0.61860 0.26828 0.95445 -0.63700
O 	O 	0.74689 0.36387 0.01570 -0.64300
O 	O 	0.82645 0.29202 0.96817 -0.36800
O 	O 	0.73107 0.20115 0.00699 -0.44000
O 	O 	0.65480 0.34235 0.88312 -0.38200
O 	O 	0.48038 0.22221 0.99743 -0.38100
C 	C 	0.43004 0.21987 0.96691 0.29700
C 	C 	0.76497 0.50526 0.96719 0.28400
O 	O 	0.68022 0.44937 0.97144 -0.39000
O 	O 	0.46686 0.27665 0.94248 -0.39100
O 	O 	0.75197 0.31089 0.90521 -0.35900
C 	C 	0.79040 0.22011 0.98414 0.29700
O 	O 	0.60353 0.30497 0.06472 -0.38500
O 	O 	0.74675 0.35177 0.09186 -0.41600
H 	H 	0.58219 0.20355 0.94358 0.16400
H 	H 	0.78121 0.42695 0.02900 0.17400
Cu	Cu	0.61123 0.20087 0.50604 0.92800
Cu	Cu	0.66545 0.20788 0.41825 0.87100
Cu	Cu	0.66927 0.35290 0.46154 0.89800
Cu	Cu	0.63784 0.37408 0.54392 0.89600
C 	C 	0.65103 0.25589 0.59055 0.27900
O 	O 	0.48397 0.15917 0.51081 -0.36300
C 	C 	0.62603 0.30298 0.37367 0.27900
O 	O 	0.69647 0.34096 0.51426 -0.64000
O 	O 	0.59470 0.21994 0.45173 -0.64200
O 	O 	0.65784 0.13102 0.49526 -0.37300
O 	O 	0.75494 0.22605 0.45816 -0.44100
O 	O 	0.61847 0.30092 0.58539 -0.38100
O 	O 	0.74721 0.48127 0.47471 -0.38600
C 	C 	0.73766 0.52834 0.50141 0.29800
C 	C 	0.45572 0.20595 0.50163 0.28800
O 	O 	0.51500 0.29018 0.49919 -0.39400
O 	O 	0.70251 0.49770 0.53290 -0.39300
O 	O 	0.64678 0.20427 0.56046 -0.35800
C 	C 	0.73262 0.16655 0.48062 0.29400
O 	O 	0.66204 0.36635 0.40552 -0.38500
O 	O 	0.60694 0.22464 0.37595 -0.41800
H 	H 	0.76216 0.37349 0.52473 0.16600
H 	H 	0.53076 0.18935 0.43873 0.17200
C 	C 	0.84356 0.36967 0.72202 -0.04300
C 	C 	0.84963 0.37662 0.76306 -0.04200
C 	C 	0.77193 0.31902 0.77904 0.01600
C 	C 	0.68853 0.25110 0.75356 -0.00800
C 	C 	0.68261 0.24360 0.71226 -0.00800
C 	C 	0.75981 0.30478 0.69647 0.01700
C 	C 	0.59826 0.17820 0.68681 0.01600
C 	C 	0.52138 0.11841 0.70276 -0.04100
C 	C 	0.52709 0.12632 0.74378 -0.04300
C 	C 	0.60985 0.19384 0.76934 0.01700
C 	C 	0.61387 0.20776 0.81031 -0.02900
C 	C 	0.69570 0.27823 0.83550 -0.05600
C 	C 	0.77537 0.33151 0.82004 -0.02300
C 	C 	0.75097 0.30348 0.65558 -0.02900
C 	C 	0.66569 0.24201 0.63061 -0.05500
C 	C 	0.59065 0.17685 0.64597 -0.02200
H 	H 	0.90359 0.41608 0.71018 0.03800
H 	H 	0.91431 0.42824 0.78238 0.04000
H 	H 	0.45655 0.06721 0.68344 0.03900
H 	H 	0.46660 0.08111 0.75562 0.03800
H 	H 	0.55271 0.16630 0.82246 0.03100
H 	H 	0.83859 0.38560 0.83967 0.04700
H 	H 	0.80904 0.35296 0.64346 0.03200
H 	H 	0.52528 0.12856 0.62641 0.04300
C 	C 	0.47794 0.21017 0.19518 -0.04400
C 	C 	0.47152 0.20486 0.23494 -0.04300
C 	C 	0.54541 0.27088 0.26501 0.01400
C 	C 	0.62458 0.34515 0.25506 -0.00900
C 	C 	0.63143 0.35001 0.21503 -0.01000
C 	C 	0.55852 0.28129 0.18500 0.01500
C 	C 	0.71302 0.42106 0.20507 0.01500
C 	C 	0.78512 0.48947 0.23515 -0.04400
C 	C 	0.77799 0.48510 0.27493 -0.04400
C 	C 	0.69891 0.41196 0.28511 0.01400
C 	C 	0.69531 0.40206 0.32475 -0.02900
C 	C 	0.61946 0.32453 0.33435 -0.06300
C 	C 	0.54313 0.26106 0.30469 -0.02600
C 	C 	0.56893 0.28200 0.14534 -0.02900
C 	C 	0.65251 0.34924 0.13564 -0.06200
C 	C 	0.72314 0.42043 0.16535 -0.02700
H 	H 	0.42104 0.15772 0.17232 0.03800
H 	H 	0.40980 0.14831 0.24229 0.03700
H 	H 	0.84751 0.54513 0.22780 0.03700
H 	H 	0.83495 0.53744 0.29779 0.03700
H 	H 	0.75374 0.45154 0.34778 0.03900
H 	H 	0.48387 0.20219 0.31232 0.03900
H 	H 	0.51407 0.22765 0.12231 0.04400
H 	H 	0.78688 0.47334 0.15768 0.04000
C 	C 	0.87999 0.80604 0.49882 -0.00300
C 	C 	0.81944 0.74209 0.46502 -0.06800
C 	C 	0.77057 0.65096 0.46572 0.05400
C 	C 	0.78382 0.62338 0.50046 -0.09200
C 	C 	0.84289 0.68751 0.53452 -0.00500
C 	C 	0.89038 0.77847 0.53397 -0.00200
S 	S 	0.69025 0.57235 0.42358 -0.05200
S 	S 	0.96132 0.85717 0.57765 -0.04600
H 	H 	0.91240 0.87557 0.59771 0.03500
H 	H 	0.73227 0.55257 0.39913 0.04700
H 	H 	0.81030 0.76339 0.43817 0.04900
H 	H 	0.85252 0.66655 0.56138 0.03800
C 	C 	0.78525 0.13192 0.48504 -0.09900
C 	C 	0.80056 0.09991 0.45100 -0.00500
C 	C 	0.85499 0.07165 0.45414 -0.00300
C 	C 	0.89422 0.07459 0.49173 -0.00200
C 	C 	0.88012 0.10773 0.52581 -0.06800
C 	C 	0.82615 0.13671 0.52271 0.05400
S 	S 	0.87302 0.03201 0.41081 -0.04500
S 	S 	0.81253 0.18097 0.56607 -0.03400
H 	H 	0.87789 0.27186 0.57479 0.03200
H 	H 	0.80927 0.94098 0.40093 0.03100
H 	H 	0.77011 0.09716 0.42201 0.01700
H 	H 	0.91023 0.10988 0.55475 0.05100
C 	C 	0.17605 0.09576 0.49743 -0.00200
C 	C 	0.23243 0.11938 0.53375 -0.06900
C 	C 	0.32391 0.15534 0.53547 0.05400
C 	C 	0.35994 0.16859 0.50047 -0.09400
C 	C 	0.30464 0.14863 0.46436 -0.00700
C 	C 	0.21282 0.11201 0.46262 -0.00200
S 	S 	0.39253 0.18349 0.58160 -0.05200
S 	S 	0.14418 0.08517 0.41670 -0.04400
H 	H 	0.10200 0.99775 0.40013 0.03100
H 	H 	0.38791 0.11103 0.58868 0.04300
H 	H 	0.20424 0.10715 0.56054 0.05000
H 	H 	0.33274 0.16049 0.43754 0.03100
C 	C 	0.85338 0.77091 0.96265 -0.00300
C 	C 	0.84334 0.74146 0.99888 -0.05300
C 	C 	0.81868 0.65624 0.00106 0.03900
C 	C 	0.80335 0.59926 0.96662 -0.08200
C 	C 	0.81118 0.62787 0.93026 -0.01200
C 	C 	0.83475 0.71257 0.92802 0.00100
S 	S 	0.81048 0.62297 0.04729 -0.06500
S 	S 	0.84077 0.74500 0.88167 -0.04300
H 	H 	0.92824 0.78942 0.87523 0.03500
H 	H 	0.72242 0.57805 0.05297 0.03800
H 	H 	0.85844 0.78626 0.02566 0.04300
H 	H 	0.79671 0.58330 0.90351 0.04100
C 	C 	0.82059 0.16353 0.97859 -0.09500
C 	C 	0.80726 0.11999 0.94046 -0.00100
C 	C 	0.82814 0.05995 0.93499 -0.00700
C 	C 	0.86301 0.04318 0.96795 0.01500
C 	C 	0.87425 0.08514 0.00607 -0.08100
C 	C 	0.85491 0.14618 0.01155 0.06000
S 	S 	0.81100 0.00672 0.88678 -0.03800
S 	S 	0.87987 0.20485 0.05960 -0.11000
H 	H 	0.96735 0.28233 0.06683 0.03300
H 	H 	0.88984 0.05649 0.87222 0.03700
H 	H 	0.77974 0.13203 0.91507 0.04100
H 	H 	0.90271 0.07384 0.03142 0.05300
C 	C 	0.14268 0.06753 0.96198 0.00500
C 	C 	0.17588 0.06048 0.92826 -0.07300
C 	C 	0.26963 0.10871 0.92964 0.05700
C 	C 	0.33116 0.16609 0.96500 -0.09500
C 	C 	0.29782 0.17320 0.99870 0.00400
C 	C 	0.20410 0.12384 0.99747 -0.00200
S 	S 	0.30874 0.09305 0.88761 -0.07000
S 	S 	0.16439 0.13158 0.04076 -0.05000
H 	H 	0.15160 0.19588 0.04134 0.03300
H 	H 	0.31591 0.02541 0.88943 0.03300
H 	H 	0.12856 0.01610 0.90113 0.05000
H 	H 	0.34496 0.21734 0.02590 0.03800
