data_crystal

_cell_length_a 28.59736
_cell_length_b 28.74077
_cell_length_c 17.36221
_cell_angle_alpha 89.99989
_cell_angle_beta  89.99942
_cell_angle_gamma 119.99938

_symmetry_space_group_name_	'P 1'
_symmetry_space_group_name_H-M	'P 1'

loop_
_symmetry_equiv_pos_as_xyz
  x,y,z

loop_
_atom_site_label
_atom_site_type_symbol
_atom_site_fract_x
_atom_site_fract_y
_atom_site_fract_z
_atom_site_charge
Ni	Ni	0.61274 0.50666 0.68422 1.11200
O 	O 	0.68885 0.52701 0.72107 -0.69500
Ni	Ni	0.72055 0.51179 0.62897 1.10200
O 	O 	0.58639 0.50682 0.79450 -0.26400
O 	O 	0.61717 0.45166 0.83714 -0.35700
O 	O 	0.64189 0.58751 0.67593 -0.30500
Ni	Ni	0.69913 0.49282 0.81149 1.10700
O 	O 	0.55722 0.49432 0.51241 -0.35800
O 	O 	0.69558 0.42588 0.76410 -0.37000
O 	O 	0.79065 0.52176 0.67573 -0.36300
O 	O 	0.64617 0.49590 0.58929 -0.69500
O 	O 	0.53912 0.49212 0.64161 -0.26100
O 	O 	0.75196 0.51185 0.52311 -0.34900
O 	O 	0.71659 0.55806 0.46569 -0.38300
Ni	Ni	0.63828 0.53268 0.50011 1.08500
H 	H 	0.70998 0.56627 0.72990 0.18900
H 	H 	0.62480 0.45731 0.57661 0.18000
C 	C 	0.66860 0.40458 0.70062 0.30700
O 	O 	0.65384 0.60497 0.54724 -0.37400
C 	C 	0.59129 0.47805 0.84975 0.27600
C 	C 	0.81148 0.54698 0.74138 0.29000
C 	C 	0.63605 0.61102 0.61499 0.26200
C 	C 	0.73274 0.52251 0.46139 0.30500
C 	C 	0.53202 0.50257 0.56946 0.26800
O 	O 	0.68616 0.43002 0.63522 -0.34800
O 	O 	0.78138 0.53690 0.80456 -0.36000
Ni	Ni	0.39102 0.51268 0.17939 1.13500
O 	O 	0.32445 0.51434 0.22025 -0.67900
Ni	Ni	0.30383 0.54354 0.13069 1.12900
O 	O 	0.41106 0.49874 0.28758 -0.34100
O 	O 	0.40691 0.57049 0.33605 -0.37000
O 	O 	0.33919 0.43283 0.16327 -0.35000
Ni	Ni	0.32909 0.55458 0.31350 1.08400
O 	O 	0.43956 0.51833 0.00488 -0.32900
O 	O 	0.35755 0.63045 0.27044 -0.36400
O 	O 	0.24412 0.55206 0.18177 -0.30700
O 	O 	0.36764 0.53841 0.08771 -0.67800
O 	O 	0.45369 0.50555 0.13186 -0.32200
O 	O 	0.28160 0.55895 0.02679 -0.28000
O 	O 	0.28778 0.49166 0.96556 -0.34000
Ni	Ni	0.36116 0.49778 0.99435 1.08400
H 	H 	0.29464 0.47711 0.22841 0.19600
H 	H 	0.39643 0.57511 0.07562 0.23900
C 	C 	0.38340 0.64611 0.20463 0.27800
O 	O 	0.33132 0.42004 0.03351 -0.28600
C 	C 	0.41660 0.53072 0.34575 0.29800
C 	C 	0.22117 0.52642 0.24619 0.27300
C 	C 	0.34233 0.40804 0.10222 0.28400
C 	C 	0.28383 0.53554 0.96316 0.26800
C 	C 	0.45746 0.49781 0.05705 0.29000
O 	O 	0.35764 0.62419 0.14058 -0.32100
O 	O 	0.25013 0.53612 0.31018 -0.37400
Ni	Ni	0.48751 0.13531 0.02647 1.14000
O 	O 	0.47271 0.19244 0.07323 -0.67100
Ni	Ni	0.49199 0.24457 0.98660 1.09800
O 	O 	0.48919 0.10340 0.13249 -0.26500
O 	O 	0.54705 0.18652 0.18178 -0.32100
O 	O 	0.40575 0.08527 0.02362 -0.26900
Ni	Ni	0.50952 0.23172 0.16675 1.11700
O 	O 	0.48254 0.09226 0.84604 -0.36800
O 	O 	0.57899 0.29471 0.12275 -0.35100
O 	O 	0.48891 0.30494 0.04375 -0.34600
O 	O 	0.49919 0.18382 0.93643 -0.70400
O 	O 	0.49666 0.07658 0.97210 -0.32900
O 	O 	0.49677 0.28352 0.88591 -0.33700
O 	O 	0.43850 0.20612 0.82563 -0.33900
Ni	Ni	0.45499 0.14512 0.84794 1.09100
H 	H 	0.43343 0.17634 0.08215 0.19800
H 	H 	0.53653 0.19836 0.91863 0.23100
C 	C 	0.60073 0.29109 0.05805 0.30900
O 	O 	0.38316 0.09729 0.90269 -0.35400
C 	C 	0.51821 0.13412 0.19037 0.27900
C 	C 	0.46014 0.29540 0.10698 0.28800
C 	C 	0.37811 0.06517 0.96014 0.23200
C 	C 	0.47879 0.25592 0.82216 0.29300
C 	C 	0.47841 0.05879 0.90139 0.28900
O 	O 	0.57481 0.28451 0.99303 -0.34600
O 	O 	0.47054 0.27507 0.16905 -0.33600
Ni	Ni	0.52719 0.92213 0.53041 1.10700
O 	O 	0.54882 0.86992 0.57800 -0.69700
Ni	Ni	0.53472 0.81859 0.49206 1.10300
O 	O 	0.52321 0.95255 0.63625 -0.32300
O 	O 	0.47060 0.86799 0.68573 -0.32400
O 	O 	0.60769 0.97703 0.52428 -0.38400
Ni	Ni	0.51453 0.82888 0.67106 1.09200
O 	O 	0.51878 0.95458 0.34957 -0.38500
O 	O 	0.44831 0.76197 0.62740 -0.32900
O 	O 	0.54322 0.76075 0.54779 -0.36700
O 	O 	0.51954 0.87423 0.44157 -0.69200
O 	O 	0.51148 0.97678 0.47490 -0.32400
O 	O 	0.53571 0.78241 0.39148 -0.35900
O 	O 	0.58972 0.86269 0.33436 -0.39500
Ni	Ni	0.55987 0.91415 0.35086 1.08200
H 	H 	0.58827 0.88935 0.58714 0.16000
H 	H 	0.48103 0.85605 0.42643 0.16800
C 	C 	0.42593 0.76299 0.56195 0.29600
O 	O 	0.62991 0.97379 0.39917 -0.39600
C 	C 	0.49493 0.92059 0.69364 0.26000
C 	C 	0.56903 0.76828 0.61352 0.29300
C 	C 	0.63083 0.00163 0.46001 0.31600
C 	C 	0.55545 0.81092 0.32877 0.30700
C 	C 	0.52442 0.99055 0.40129 0.27800
O 	O 	0.45257 0.77148 0.49737 -0.37100
O 	O 	0.56031 0.79222 0.67307 -0.36800
Ni	Ni	0.12590 0.63903 0.86729 1.10600
O 	O 	0.17218 0.71888 0.89580 -0.69800
Ni	Ni	0.21911 0.74942 0.80256 1.10800
O 	O 	0.08743 0.62233 0.97280 -0.30700
O 	O 	0.16632 0.66247 0.04091 -0.36900
O 	O 	0.07179 0.65907 0.82397 -0.31800
Ni	Ni	0.21726 0.73587 0.98888 1.07600
O 	O 	0.11398 0.56751 0.71527 -0.40800
O 	O 	0.26340 0.70322 0.95707 -0.35000
O 	O 	0.25927 0.82773 0.83553 -0.31500
O 	O 	0.17692 0.66916 0.77719 -0.70000
O 	O 	0.07526 0.55999 0.83372 -0.32300
O 	O 	0.25437 0.77533 0.69682 -0.27500
O 	O 	0.17910 0.71864 0.62999 -0.35400
Ni	Ni	0.13957 0.64305 0.67912 1.08100
H 	H 	0.14923 0.73551 0.90076 0.18000
H 	H 	0.20233 0.65573 0.77624 0.16100
C 	C 	0.27558 0.70068 0.88513 0.27100
O 	O 	0.06676 0.64058 0.69538 -0.37100
C 	C 	0.11352 0.64016 0.03860 0.31200
C 	C 	0.26869 0.84168 0.90843 0.29900
C 	C 	0.04264 0.63669 0.76229 0.27100
C 	C 	0.23207 0.74727 0.63466 0.29400
C 	C 	0.07298 0.54256 0.76232 0.29800
O 	O 	0.28234 0.73865 0.83600 -0.29500
O 	O 	0.27636 0.81105 0.95775 -0.37700
Ni	Ni	0.91029 0.43059 0.36969 1.10200
O 	O 	0.86216 0.35153 0.40136 -0.69800
Ni	Ni	0.81487 0.32007 0.30934 1.10400
O 	O 	0.94968 0.44705 0.47413 -0.31300
O 	O 	0.87025 0.41197 0.54070 -0.37200
O 	O 	0.96222 0.40849 0.32478 -0.35600
Ni	Ni	0.81457 0.34023 0.48870 1.09300
O 	O 	0.92195 0.50200 0.21750 -0.35100
O 	O 	0.78012 0.38146 0.44218 -0.35600
O 	O 	0.77510 0.24264 0.34597 -0.34200
O 	O 	0.85669 0.40048 0.28250 -0.69600
O 	O 	0.96286 0.50882 0.33404 -0.34700
O 	O 	0.78043 0.29178 0.20383 -0.34100
O 	O 	0.85254 0.35036 0.13308 -0.37400
Ni	Ni	0.89258 0.42550 0.18286 1.08900
H 	H 	0.88344 0.33347 0.41042 0.20300
H 	H 	0.83317 0.41607 0.28797 0.15800
C 	C 	0.75113 0.36632 0.37889 0.27800
O 	O 	0.96371 0.42443 0.19537 -0.36800
C 	C 	0.92253 0.42984 0.53943 0.27500
C 	C 	0.75430 0.23020 0.41572 0.26700
C 	C 	0.98934 0.42953 0.26098 0.29700
C 	C 	0.80012 0.32069 0.14168 0.30200
C 	C 	0.96401 0.52646 0.26298 0.28200
O 	O 	0.74819 0.32693 0.33668 -0.31300
O 	O 	0.75084 0.26649 0.45890 -0.30200
C 	C 	0.02460 0.49430 0.73432 -0.08200
C 	C 	0.97557 0.49407 0.73234 0.02700
C 	C 	0.94040 0.47046 0.67030 -0.04300
C 	C 	0.95224 0.44331 0.61310 0.03700
C 	C 	0.99450 0.43203 0.62588 -0.12900
C 	C 	0.03134 0.45887 0.68600 0.09400
H 	H 	0.90578 0.47601 0.66434 0.07100
H 	H 	0.06777 0.45626 0.69059 0.07700
H 	H 	0.96732 0.51678 0.77424 0.07100
C 	C 	0.00199 0.39368 0.57429 0.79200
F 	F 	0.03047 0.37324 0.61207 -0.42500
F 	F 	0.95256 0.35073 0.55281 -0.46400
F 	F 	0.03039 0.42057 0.50913 -0.45000
C 	C 	0.08274 0.62462 0.11126 -0.07300
C 	C 	0.09631 0.60039 0.17074 0.03300
C 	C 	0.06161 0.57772 0.23376 -0.04100
C 	C 	0.01173 0.57590 0.23483 0.04100
C 	C 	0.00437 0.61067 0.18486 -0.10900
C 	C 	0.03843 0.63241 0.12056 0.10100
H 	H 	0.07132 0.55763 0.27807 0.06200
H 	H 	0.03025 0.65488 0.07785 0.12000
H 	H 	0.13218 0.59680 0.16645 0.06400
C 	C 	0.95851 0.62190 0.19667 0.79400
F 	F 	0.97524 0.67480 0.17823 -0.40400
F 	F 	0.91570 0.58866 0.14954 -0.40500
F 	F 	0.94139 0.61350 0.27258 -0.43100
C 	C 	0.36862 0.74800 0.55969 -0.07900
C 	C 	0.32991 0.70326 0.60069 0.05200
C 	C 	0.27810 0.69576 0.61138 -0.03400
C 	C 	0.26580 0.73463 0.58501 0.02000
C 	C 	0.30102 0.77359 0.53164 -0.10200
C 	C 	0.35325 0.78126 0.52144 0.10000
H 	H 	0.24999 0.66362 0.64855 0.01800
H 	H 	0.38274 0.81485 0.48755 0.05200
H 	H 	0.34068 0.67590 0.62761 0.07000
C 	C 	0.28581 0.81152 0.49359 0.78600
F 	F 	0.31319 0.83065 0.42467 -0.42100
F 	F 	0.23100 0.78540 0.47811 -0.41800
F 	F 	0.29882 0.85452 0.54200 -0.37900
C 	C 	0.66569 0.06050 0.46043 -0.10400
C 	C 	0.71716 0.08470 0.42748 0.04300
C 	C 	0.74703 0.14046 0.41888 -0.04900
C 	C 	0.72438 0.17261 0.43794 0.04700
C 	C 	0.67147 0.14787 0.47026 -0.12700
C 	C 	0.64520 0.09264 0.48785 0.08800
H 	H 	0.78719 0.15864 0.39428 0.07500
H 	H 	0.60673 0.07387 0.51755 0.07500
H 	H 	0.73404 0.06034 0.40814 0.05600
C 	C 	0.64147 0.17861 0.48130 0.79100
F 	F 	0.64518 0.20739 0.41550 -0.39500
F 	F 	0.58711 0.14430 0.49564 -0.41800
F 	F 	0.66293 0.21318 0.54327 -0.41200
C 	C 	0.53125 0.04163 0.37215 -0.05500
C 	C 	0.57559 0.07289 0.32407 0.04100
C 	C 	0.57257 0.10609 0.26808 -0.01800
C 	C 	0.52554 0.10918 0.26014 0.06600
C 	C 	0.48442 0.08517 0.31665 -0.09600
C 	C 	0.48689 0.04996 0.37117 0.11700
H 	H 	0.60553 0.12676 0.22765 0.08900
H 	H 	0.45287 0.02637 0.40884 0.11400
H 	H 	0.61020 0.06709 0.32458 0.04000
C 	C 	0.43755 0.09575 0.31762 0.79200
F 	F 	0.40216 0.06750 0.25870 -0.37700
F 	F 	0.40983 0.08008 0.38681 -0.38200
F 	F 	0.45615 0.15003 0.30791 -0.44200
C 	C 	0.47399 0.00799 0.87588 -0.07100
C 	C 	0.52084 0.00404 0.87225 0.04900
C 	C 	0.52617 0.97255 0.81533 -0.05100
C 	C 	0.48423 0.94376 0.76260 0.05100
C 	C 	0.43403 0.94161 0.77278 -0.11500
C 	C 	0.42912 0.97304 0.83112 0.08100
H 	H 	0.56408 0.97293 0.80951 0.06200
H 	H 	0.39243 0.97488 0.83612 0.05700
H 	H 	0.55523 0.02961 0.90819 0.06600
C 	C 	0.38635 0.90696 0.72072 0.79100
F 	F 	0.34240 0.91324 0.73641 -0.42900
F 	F 	0.40045 0.92072 0.64443 -0.41500
F 	F 	0.37085 0.85346 0.73123 -0.41500
C 	C 	0.76346 0.32855 0.09194 -0.11000
C 	C 	0.74732 0.36517 0.11468 0.04300
C 	C 	0.69543 0.35534 0.09726 -0.03300
C 	C 	0.65929 0.30892 0.05635 0.04100
C 	C 	0.67863 0.27621 0.02358 -0.10400
C 	C 	0.73159 0.28788 0.04004 0.10500
H 	H 	0.68212 0.38191 0.11994 0.08600
H 	H 	0.74605 0.26185 0.01895 0.08500
H 	H 	0.77295 0.39832 0.15227 0.01200
C 	C 	0.64331 0.22908 0.97212 0.75700
F 	F 	0.66873 0.20095 0.94998 -0.44900
F 	F 	0.59666 0.19373 0.01095 -0.51000
F 	F 	0.63131 0.24791 0.90614 -0.47700
C 	C 	0.28579 0.89787 0.92935 -0.11600
C 	C 	0.28074 0.93178 0.87577 0.06300
C 	C 	0.30502 0.98683 0.89008 -0.07000
C 	C 	0.33311 0.00834 0.95924 0.05900
C 	C 	0.32618 0.97225 0.02011 -0.12400
C 	C 	0.30717 0.91797 0.00247 0.13000
H 	H 	0.30517 0.01308 0.84520 0.10600
H 	H 	0.30777 0.89135 0.04617 0.07100
H 	H 	0.26047 0.91603 0.82130 0.08500
C 	C 	0.33446 0.98969 0.10370 0.78900
F 	F 	0.30007 0.94741 0.15082 -0.40200
F 	F 	0.38701 0.00606 0.12495 -0.40300
F 	F 	0.32356 0.03098 0.11548 -0.38400
C 	C 	0.04784 0.44800 0.25940 -0.07900
C 	C 	0.07982 0.47306 0.32431 0.03100
C 	C 	0.13604 0.49803 0.31973 -0.03300
C 	C 	0.16119 0.49574 0.25140 0.03900
C 	C 	0.12849 0.46423 0.18873 -0.12200
C 	C 	0.07227 0.44367 0.19177 0.09300
H 	H 	0.16013 0.52041 0.36888 0.07500
H 	H 	0.04756 0.42386 0.14180 0.08600
H 	H 	0.06138 0.47667 0.37676 0.08300
C 	C 	0.15269 0.45297 0.11820 0.78900
F 	F 	0.11461 0.40679 0.08109 -0.41400
F 	F 	0.17035 0.49546 0.06733 -0.44800
F 	F 	0.19528 0.44539 0.13812 -0.48100
C 	C 	0.28102 0.55912 0.89008 -0.07000
C 	C 	0.23156 0.55509 0.87259 0.02800
C 	C 	0.22898 0.60202 0.86518 -0.03000
C 	C 	0.27681 0.65219 0.85890 0.01100
C 	C 	0.32645 0.65300 0.84986 -0.11000
C 	C 	0.32810 0.60555 0.86560 0.07300
H 	H 	0.19055 0.60008 0.87393 0.00200
H 	H 	0.36668 0.60724 0.87103 0.06500
H 	H 	0.19458 0.51747 0.88270 0.08200
C 	C 	0.37805 0.70491 0.83256 0.78000
F 	F 	0.39617 0.73562 0.89877 -0.43300
F 	F 	0.41793 0.69497 0.80619 -0.44700
F 	F 	0.36906 0.73358 0.77626 -0.43800
C 	C 	0.52490 0.78928 0.25800 -0.12900
C 	C 	0.47675 0.79041 0.24928 0.04900
C 	C 	0.43051 0.74485 0.22235 -0.04300
C 	C 	0.43310 0.69914 0.20098 0.05900
C 	C 	0.48458 0.70351 0.19202 -0.14100
C 	C 	0.53055 0.74979 0.21952 0.12200
H 	H 	0.39189 0.74328 0.22494 0.08300
H 	H 	0.56949 0.75198 0.21977 0.07300
H 	H 	0.47314 0.82311 0.27397 -0.00100
C 	C 	0.49099 0.66112 0.14952 0.80300
F 	F 	0.47540 0.65953 0.07379 -0.44500
F 	F 	0.54402 0.67222 0.14958 -0.42600
F 	F 	0.45997 0.61167 0.18407 -0.54600
C 	C 	0.42301 0.31672 0.11295 -0.07700
C 	C 	0.42961 0.35269 0.17170 0.04600
C 	C 	0.39985 0.37904 0.17095 -0.03800
C 	C 	0.36300 0.36997 0.11104 0.04200
C 	C 	0.35036 0.32765 0.05802 -0.12100
C 	C 	0.38305 0.30370 0.05663 0.09700
H 	H 	0.40753 0.40873 0.21494 0.08000
H 	H 	0.37756 0.27516 0.01176 0.07700
H 	H 	0.45966 0.36218 0.21616 0.07300
C 	C 	0.30281 0.30774 0.00335 0.82800
F 	F 	0.28466 0.25498 0.98216 -0.42700
F 	F 	0.26012 0.30956 0.03786 -0.39700
F 	F 	0.31833 0.33910 0.93762 -0.43800
C 	C 	0.71185 0.48179 0.40041 -0.12400
C 	C 	0.74624 0.48751 0.33933 0.05200
C 	C 	0.75040 0.44319 0.31568 -0.05200
C 	C 	0.72181 0.39428 0.35567 0.04500
C 	C 	0.67583 0.38513 0.39796 -0.12500
C 	C 	0.67094 0.42967 0.42008 0.10000
H 	H 	0.77966 0.44854 0.27228 0.05100
H 	H 	0.64003 0.42448 0.46076 0.03400
H 	H 	0.77465 0.52711 0.31758 0.07100
C 	C 	0.63598 0.32957 0.42698 0.79300
F 	F 	0.65535 0.31931 0.49404 -0.40600
F 	F 	0.58635 0.32513 0.44193 -0.41200
F 	F 	0.62855 0.29154 0.37214 -0.39700
C 	C 	0.87098 0.57683 0.74953 -0.08400
C 	C 	0.90409 0.59879 0.68478 0.03200
C 	C 	0.96003 0.62157 0.69100 -0.04600
C 	C 	0.98412 0.62168 0.76187 0.04300
C 	C 	0.95056 0.60245 0.82924 -0.12900
C 	C 	0.89443 0.58086 0.82164 0.09100
H 	H 	0.98460 0.63783 0.63984 0.08200
H 	H 	0.86859 0.56518 0.87169 0.08800
H 	H 	0.88645 0.59762 0.62908 0.05400
C 	C 	0.97305 0.60175 0.90806 0.79000
F 	F 	0.01023 0.65342 0.93062 -0.45000
F 	F 	0.93325 0.58078 0.96409 -0.43200
F 	F 	0.99607 0.56959 0.90550 -0.46800
C 	C 	0.49378 0.47883 0.03059 -0.05400
C 	C 	0.47336 0.43547 0.97902 0.00300
C 	C 	0.50742 0.43086 0.92597 -0.02900
C 	C 	0.56198 0.47026 0.92256 0.06100
C 	C 	0.58458 0.50870 0.98249 -0.14100
C 	C 	0.54979 0.51317 0.03584 0.12900
H 	H 	0.49028 0.39974 0.88241 0.11300
H 	H 	0.56571 0.54620 0.07650 0.09600
H 	H 	0.43025 0.40951 0.97319 0.06700
C 	C 	0.64480 0.54770 0.98569 0.77600
F 	F 	0.66026 0.57145 0.05756 -0.40200
F 	F 	0.67301 0.52113 0.97103 -0.48700
F 	F 	0.65846 0.58748 0.93110 -0.41000
C 	C 	0.43416 0.52227 0.42163 -0.10200
C 	C 	0.46902 0.56629 0.46759 0.04000
C 	C 	0.49301 0.55835 0.53270 -0.05400
C 	C 	0.48443 0.50692 0.54947 0.07500
C 	C 	0.43966 0.46221 0.51505 -0.12800
C 	C 	0.41699 0.47008 0.44794 0.10100
H 	H 	0.52359 0.59287 0.56355 0.07500
H 	H 	0.38721 0.43580 0.41541 0.07300
H 	H 	0.48016 0.60677 0.45037 0.05400
C 	C 	0.42114 0.40587 0.54263 0.79900
F 	F 	0.36631 0.37317 0.53004 -0.40000
F 	F 	0.44864 0.38542 0.50258 -0.39000
F 	F 	0.43061 0.40561 0.62073 -0.37400
C 	C 	0.61583 0.35503 0.70412 -0.09400
C 	C 	0.61131 0.30829 0.73643 0.06900
C 	C 	0.56076 0.26666 0.75986 -0.02700
C 	C 	0.51544 0.27339 0.75585 0.02600
C 	C 	0.51801 0.31409 0.70791 -0.11400
C 	C 	0.56881 0.35659 0.68594 0.11800
H 	H 	0.55809 0.23239 0.78975 0.05500
H 	H 	0.57180 0.39220 0.66011 0.01600
H 	H 	0.64714 0.30559 0.74771 0.08400
C 	C 	0.46765 0.31578 0.68726 0.79400
F 	F 	0.46108 0.34916 0.73797 -0.41300
F 	F 	0.47225 0.33523 0.61324 -0.37000
F 	F 	0.42244 0.26501 0.69006 -0.39100
C 	C 	0.59703 0.73764 0.62641 -0.08600
C 	C 	0.63229 0.73808 0.57012 0.03400
C 	C 	0.64782 0.69909 0.57027 -0.04700
C 	C 	0.62793 0.65833 0.62648 0.04300
C 	C 	0.59651 0.66123 0.68890 -0.12500
C 	C 	0.58095 0.70075 0.68695 0.09200
H 	H 	0.67396 0.69954 0.52480 0.07900
H 	H 	0.55413 0.70122 0.73060 0.09300
H 	H 	0.64575 0.76728 0.52387 0.04200
C 	C 	0.57971 0.62334 0.75750 0.78800
F 	F 	0.55051 0.63424 0.81095 -0.41800
F 	F 	0.54723 0.57106 0.73326 -0.44600
F 	F 	0.62487 0.62876 0.79486 -0.40500
