data_crystal

_cell_length_a 26.11309
_cell_length_b 26.44322
_cell_length_c 26.64852
_cell_angle_alpha 95.48385
_cell_angle_beta  95.48516
_cell_angle_gamma 125.83216

_symmetry_space_group_name_	'P 1'
_symmetry_space_group_name_H-M	'P 1'

loop_
_symmetry_equiv_pos_as_xyz
  x,y,z

loop_
_atom_site_label
_atom_site_type_symbol
_atom_site_fract_x
_atom_site_fract_y
_atom_site_fract_z
_atom_site_charge
C 	C 	0.97503 0.02932 0.99660 0.08400
C 	C 	0.04185 0.06601 0.99980 -0.09400
C 	C 	0.07102 0.03621 0.99057 0.08700
C 	C 	0.03309 0.97013 0.97544 -0.09400
C 	C 	0.96668 0.93314 0.97418 0.08900
C 	C 	0.93784 0.96287 0.98563 -0.08200
H 	H 	0.07096 0.11736 0.00983 0.08600
H 	H 	0.05567 0.94733 0.96705 0.07800
H 	H 	0.88664 0.93447 0.98564 0.09000
C 	C 	0.93225 0.00433 0.44712 0.07800
C 	C 	0.99963 0.04197 0.45568 -0.07000
C 	C 	0.03131 0.01447 0.46411 0.07000
C 	C 	0.99569 0.94948 0.46515 -0.06800
C 	C 	0.92832 0.91143 0.45617 0.07700
C 	C 	0.89653 0.93882 0.44696 -0.07400
H 	H 	0.02728 0.09238 0.45520 0.07300
H 	H 	0.02028 0.92829 0.47187 0.07700
H 	H 	0.84442 0.90945 0.43979 0.08600
Cu	Cu	0.66264 0.26411 0.01160 0.93300
Cu	Cu	0.67087 0.21074 0.89601 0.88900
Cu	Cu	0.68860 0.34185 0.92757 0.90800
Cu	Cu	0.64705 0.37503 0.02244 0.90500
C 	C 	0.66821 0.32193 0.11081 0.28100
O 	O 	0.56857 0.21503 0.01653 -0.34100
C 	C 	0.66443 0.27922 0.82139 0.28500
O 	O 	0.70036 0.35582 0.00016 -0.63900
O 	O 	0.64169 0.25061 0.93542 -0.63600
O 	O 	0.72351 0.24152 0.02063 -0.33900
O 	O 	0.67566 0.16734 0.94674 -0.40100
O 	O 	0.66548 0.36663 0.09485 -0.36400
O 	O 	0.73127 0.43075 0.92684 -0.35000
C 	C 	0.71220 0.46206 0.94955 0.30300
C 	C 	0.53474 0.23398 0.99962 0.29700
O 	O 	0.56192 0.28537 0.97972 -0.37100
O 	O 	0.66205 0.43280 0.97264 -0.37800
O 	O 	0.68916 0.29476 0.08410 -0.34500
C 	C 	0.71970 0.19780 0.98870 0.29600
O 	O 	0.69874 0.33230 0.85591 -0.36700
O 	O 	0.63758 0.22352 0.83499 -0.39300
H 	H 	0.74612 0.38792 0.01655 0.18000
H 	H 	0.59507 0.22732 0.92285 0.18600
Cu	Cu	0.72687 0.33993 0.42918 0.93200
Cu	Cu	0.73702 0.28464 0.53154 0.88100
Cu	Cu	0.63583 0.30254 0.50554 0.90100
Cu	Cu	0.60175 0.33223 0.40877 0.90200
C 	C 	0.66817 0.32486 0.32653 0.28600
O 	O 	0.75833 0.43168 0.43445 -0.33500
C 	C 	0.68387 0.30626 0.61145 0.28000
O 	O 	0.62818 0.28459 0.43244 -0.63800
O 	O 	0.72899 0.34552 0.50399 -0.63500
O 	O 	0.77661 0.30477 0.42229 -0.33900
O 	O 	0.71713 0.23032 0.46957 -0.43000
O 	O 	0.64249 0.35074 0.34671 -0.37100
O 	O 	0.54412 0.25489 0.50359 -0.37400
C 	C 	0.50432 0.26080 0.47496 0.31800
C 	C 	0.73100 0.45295 0.45892 0.30300
O 	O 	0.67335 0.41234 0.46880 -0.38200
O 	O 	0.51837 0.28634 0.43332 -0.36900
O 	O 	0.70865 0.32027 0.35566 -0.35000
C 	C 	0.75703 0.25127 0.43742 0.31000
O 	O 	0.64553 0.31236 0.58084 -0.36000
O 	O 	0.73614 0.31670 0.59827 -0.39600
H 	H 	0.60034 0.23887 0.41678 0.17500
H 	H 	0.75771 0.38897 0.52482 0.19600
C 	C 	0.66940 0.24229 0.73371 -0.00500
C 	C 	0.66371 0.28284 0.76653 -0.05600
C 	C 	0.66078 0.32893 0.74731 -0.00100
C 	C 	0.66513 0.33534 0.69601 0.00300
C 	C 	0.67303 0.29610 0.66381 -0.05800
C 	C 	0.67437 0.24913 0.68273 -0.00600
H 	H 	0.67183 0.20662 0.74806 0.04200
H 	H 	0.65560 0.36000 0.77211 0.06600
H 	H 	0.66397 0.37174 0.68174 0.06200
H 	H 	0.68010 0.21840 0.65805 0.03500
C 	C 	0.71298 0.31914 0.24890 -0.00200
C 	C 	0.66416 0.31596 0.27026 -0.05500
C 	C 	0.61377 0.30898 0.23795 -0.00400
C 	C 	0.61423 0.30909 0.18557 -0.00500
C 	C 	0.66453 0.31527 0.16476 -0.05100
C 	C 	0.71308 0.31873 0.19638 -0.00200
H 	H 	0.75190 0.32394 0.27311 0.06500
H 	H 	0.57489 0.30478 0.25358 0.04800
H 	H 	0.57589 0.30519 0.16127 0.04700
H 	H 	0.75203 0.32322 0.18065 0.06300
C 	C 	0.89127 0.84267 0.45596 -0.01900
C 	C 	0.88309 0.80119 0.41325 0.11000
C 	C 	0.85567 0.73778 0.41615 -0.06000
C 	C 	0.83561 0.71502 0.46120 0.01100
C 	C 	0.84202 0.75598 0.50339 0.10400
C 	C 	0.86975 0.81951 0.50057 -0.05100
H 	H 	0.85004 0.70618 0.38338 0.08600
C 	C 	0.80778 0.64816 0.46377 0.03100
H 	H 	0.87583 0.85124 0.53348 0.08300
C 	C 	0.84767 0.63273 0.48380 -0.08100
C 	C 	0.82269 0.56926 0.48419 0.15000
C 	C 	0.75731 0.52046 0.46351 -0.09300
C 	C 	0.71718 0.53620 0.44467 -0.00600
C 	C 	0.74205 0.59961 0.44475 0.08400
H 	H 	0.89812 0.67009 0.49915 0.09200
H 	H 	0.66680 0.49898 0.42895 0.06200
Br	Br	0.81346 0.72606 0.56516 -0.18300
Br	Br	0.90910 0.83038 0.35067 -0.18000
Br	Br	0.87779 0.55065 0.51552 -0.21100
Br	Br	0.68558 0.61903 0.41849 -0.18300
C 	C 	0.78420 0.21770 0.42253 -0.10200
C 	C 	0.84999 0.24616 0.43912 0.14400
C 	C 	0.87200 0.20891 0.43625 -0.08400
C 	C 	0.82893 0.14330 0.41750 0.03000
C 	C 	0.76406 0.11559 0.39806 0.08200
C 	C 	0.74215 0.15291 0.40028 -0.00800
H 	H 	0.92218 0.23057 0.45056 0.08900
C 	C 	0.85072 0.10325 0.42320 0.01000
H 	H 	0.69167 0.13086 0.38697 0.06500
C 	C 	0.85024 0.08205 0.46956 -0.06200
C 	C 	0.87471 0.04775 0.47713 0.11000
C 	C 	0.89932 0.03371 0.43776 -0.02000
C 	C 	0.89812 0.05340 0.39084 -0.05100
C 	C 	0.87438 0.08841 0.38353 0.10500
H 	H 	0.83195 0.09330 0.50013 0.08000
H 	H 	0.91713 0.04284 0.36049 0.08800
Br	Br	0.70414 0.02636 0.37029 -0.18500
Br	Br	0.90972 0.33470 0.46941 -0.22200
Br	Br	0.87668 0.02293 0.54228 -0.20600
Br	Br	0.87578 0.11657 0.31956 -0.17900
C 	C 	0.10177 0.05320 0.46959 -0.02000
C 	C 	0.13048 0.06146 0.42601 0.11000
C 	C 	0.19735 0.09694 0.43188 -0.06100
C 	C 	0.23600 0.12392 0.48099 0.01000
C 	C 	0.20735 0.11603 0.52460 0.10400
C 	C 	0.14043 0.08074 0.51871 -0.05300
H 	H 	0.21931 0.10310 0.39826 0.08600
C 	C 	0.30636 0.16018 0.48630 0.03200
H 	H 	0.11843 0.07438 0.55232 0.07900
C 	C 	0.34434 0.22594 0.48812 -0.08300
C 	C 	0.41010 0.26004 0.48749 0.15000
C 	C 	0.43816 0.22801 0.48420 -0.09500
C 	C 	0.40078 0.16278 0.48506 -0.00700
C 	C 	0.33510 0.12879 0.48602 0.08300
H 	H 	0.32256 0.25043 0.48937 0.09100
H 	H 	0.42228 0.13805 0.48323 0.06600
Br	Br	0.25879 0.15237 0.59239 -0.18900
Br	Br	0.07900 0.02393 0.35820 -0.18400
Br	Br	0.46116 0.35053 0.49271 -0.20600
Br	Br	0.28513 0.03931 0.48600 -0.19100
C 	C 	0.92878 0.86331 0.96615 -0.02100
C 	C 	0.87626 0.82415 0.92496 0.11200
C 	C 	0.83940 0.75808 0.91976 -0.06300
C 	C 	0.85637 0.73066 0.95374 0.01100
C 	C 	0.91195 0.76981 0.99218 0.10500
C 	C 	0.94649 0.83568 0.99932 -0.05400
H 	H 	0.79775 0.72802 0.88915 0.08500
C 	C 	0.81467 0.66117 0.94994 0.03000
H 	H 	0.98769 0.86556 0.03034 0.09100
C 	C 	0.81276 0.62242 0.90888 -0.08500
C 	C 	0.77601 0.55664 0.90616 0.15100
C 	C 	0.74461 0.52984 0.94713 -0.09100
C 	C 	0.74460 0.56866 0.98701 -0.01500
C 	C 	0.77753 0.63351 0.98758 0.08500
H 	H 	0.83892 0.64331 0.87854 0.08900
H 	H 	0.71901 0.54841 0.01776 0.06800
Br	Br	0.94241 0.73418 0.03433 -0.18100
Br	Br	0.85672 0.85969 0.87360 -0.20200
Br	Br	0.76272 0.50463 0.84343 -0.20700
Br	Br	0.77014 0.68337 0.03952 -0.17600
C 	C 	0.76059 0.17814 0.00270 -0.09200
C 	C 	0.82806 0.22147 0.00911 0.14500
C 	C 	0.86558 0.19977 0.01463 -0.08000
C 	C 	0.83636 0.13503 0.01299 0.02900
C 	C 	0.76936 0.09241 0.00966 0.08600
C 	C 	0.73183 0.11409 0.00449 -0.00700
H 	H 	0.91725 0.23279 0.01781 0.09000
C 	C 	0.87500 0.11129 0.00899 0.01500
H 	H 	0.68006 0.08078 0.00043 0.07500
C 	C 	0.90253 0.10503 0.05354 -0.06000
C 	C 	0.93648 0.07943 0.05002 0.11200
C 	C 	0.94340 0.06033 0.00155 -0.01500
C 	C 	0.91723 0.06806 0.95715 -0.05500
C 	C 	0.88315 0.09341 0.96063 0.10100
H 	H 	0.89666 0.11912 0.09082 0.09000
H 	H 	0.92262 0.05349 0.91983 0.08400
Br	Br	0.72810 0.00397 0.01002 -0.17900
Br	Br	0.86955 0.30953 0.00663 -0.23300
Br	Br	0.97207 0.06984 0.11161 -0.17700
Br	Br	0.84698 0.10220 0.89886 -0.20200
C 	C 	0.14149 0.07350 0.99943 -0.03300
C 	C 	0.17467 0.07065 0.04264 0.11800
C 	C 	0.23956 0.09639 0.04595 -0.06500
C 	C 	0.27221 0.12649 0.00712 0.01700
C 	C 	0.23998 0.13249 0.96534 0.09600
C 	C 	0.17476 0.10578 0.96159 -0.04700
H 	H 	0.26463 0.09287 0.07866 0.08700
C 	C 	0.33985 0.15102 0.01015 0.03200
H 	H 	0.14950 0.10861 0.92857 0.07600
C 	C 	0.35470 0.11517 0.98180 -0.08600
C 	C 	0.41877 0.14053 0.98010 0.14800
C 	C 	0.46850 0.20187 0.00769 -0.09200
C 	C 	0.45367 0.23600 0.03848 -0.01000
C 	C 	0.38969 0.21110 0.03956 0.08300
H 	H 	0.31635 0.06845 0.95975 0.09000
H 	H 	0.49195 0.28294 0.06026 0.05000
Br	Br	0.28425 0.17677 0.91302 -0.19200
Br	Br	0.13197 0.03178 0.09744 -0.19100
Br	Br	0.43715 0.09217 0.93774 -0.22000
Br	Br	0.37121 0.26099 0.07962 -0.19500
