data_crystal

_cell_length_a 19.52768
_cell_length_b 18.15816
_cell_length_c 26.57643
_cell_angle_alpha 95.43740
_cell_angle_beta  95.43958
_cell_angle_gamma 126.43147

_symmetry_space_group_name_	'P 1'
_symmetry_space_group_name_H-M	'P 1'

loop_
_symmetry_equiv_pos_as_xyz
  x,y,z

loop_
_atom_site_label
_atom_site_type_symbol
_atom_site_fract_x
_atom_site_fract_y
_atom_site_fract_z
_atom_site_charge
C 	C 	0.96087 0.05721 0.97093 0.01400
C 	C 	0.09209 0.06893 0.98322 0.02000
C 	C 	0.05062 0.10930 0.97337 -0.04400
H 	H 	0.08800 0.18096 0.96785 0.06100
C 	C 	0.00421 0.04713 0.49204 -0.07800
C 	C 	0.04554 0.00497 0.49084 0.03800
H 	H 	0.04196 0.12205 0.49530 0.06600
Cu	Cu	0.74669 0.34984 0.94327 0.93200
Cu	Cu	0.74005 0.24948 0.04123 0.87800
Cu	Cu	0.62272 0.29845 0.01932 0.89500
Cu	Cu	0.59667 0.36966 0.92746 0.90000
C 	C 	0.66814 0.33675 0.84183 0.28400
C 	C 	0.67803 0.28775 0.12442 0.27800
O 	O 	0.61492 0.28389 0.94614 -0.63700
O 	O 	0.74646 0.35150 0.01834 -0.63700
O 	O 	0.80247 0.28779 0.93232 -0.35100
O 	O 	0.71388 0.17783 0.97647 -0.43300
O 	O 	0.50030 0.23872 0.01506 -0.38300
C 	C 	0.45576 0.25608 0.98479 0.30300
O 	O 	0.49450 0.32651 0.96017 -0.38200
O 	O 	0.72345 0.32970 0.86946 -0.34700
C 	C 	0.77434 0.21024 0.94872 0.30500
O 	O 	0.62928 0.30021 0.09399 -0.36800
O 	O 	0.74356 0.29410 0.10973 -0.40300
H 	H 	0.57164 0.21899 0.92719 0.16900
Cu	Cu	0.69720 0.28026 0.44042 0.93100
Cu	Cu	0.66218 0.17528 0.53788 0.87300
Cu	Cu	0.58095 0.25892 0.51479 0.89200
Cu	Cu	0.53637 0.28018 0.40898 0.90400
C 	C 	0.63306 0.26291 0.33436 0.29100
C 	C 	0.63372 0.25881 0.62235 0.28000
O 	O 	0.56550 0.21296 0.44191 -0.63900
O 	O 	0.69647 0.28897 0.51464 -0.64200
O 	O 	0.76036 0.22530 0.43949 -0.35100
O 	O 	0.66073 0.10977 0.47751 -0.42900
O 	O 	0.59962 0.30367 0.35089 -0.37400
O 	O 	0.47103 0.24079 0.51450 -0.36600
C 	C 	0.40646 0.20106 0.47481 0.28900
O 	O 	0.42074 0.20460 0.42736 -0.38300
O 	O 	0.67721 0.24804 0.36687 -0.35600
C 	C 	0.73033 0.14823 0.45707 0.30100
O 	O 	0.59823 0.28419 0.59028 -0.36500
O 	O 	0.67795 0.23031 0.60686 -0.39800
H 	H 	0.52440 0.14427 0.43137 0.16200
C 	C 	0.64412 0.36671 0.75434 -0.00400
C 	C 	0.65278 0.31294 0.78527 -0.05500
C 	C 	0.64842 0.23731 0.76201 -0.00800
C 	C 	0.63849 0.21745 0.70862 -0.00500
C 	C 	0.63355 0.27350 0.67783 -0.05500
C 	C 	0.63477 0.34719 0.70087 -0.00400
H 	H 	0.65319 0.19416 0.78533 0.05200
H 	H 	0.63586 0.15919 0.69120 0.04400
C 	C 	0.72075 0.28827 0.26644 -0.00100
C 	C 	0.64116 0.25772 0.27986 -0.05900
C 	C 	0.57299 0.23458 0.24181 -0.00400
C 	C 	0.58508 0.24474 0.19122 -0.01000
C 	C 	0.66558 0.27822 0.17808 -0.05700
C 	C 	0.73305 0.29880 0.21590 -0.00900
H 	H 	0.77415 0.30718 0.29550 0.05500
H 	H 	0.51109 0.21042 0.25168 0.04000
H 	H 	0.53180 0.22645 0.16228 0.05400
H 	H 	0.79547 0.32437 0.20641 0.05300
C 	C 	0.86928 0.03506 0.47807 -0.00000
C 	C 	0.83069 0.02676 0.42801 -0.04700
C 	C 	0.78723 0.06631 0.42081 0.02700
C 	C 	0.78385 0.11577 0.46347 -0.09100
C 	C 	0.82748 0.12936 0.51298 0.02100
C 	C 	0.86779 0.08662 0.52050 -0.03600
C 	C 	0.83338 0.18984 0.55581 0.04200
C 	C 	0.90691 0.09479 0.57195 0.09300
C 	C 	0.74575 0.05589 0.36960 0.08100
N 	N 	0.93814 0.10125 0.61298 -0.10600
N 	N 	0.71267 0.04764 0.32876 -0.10500
N 	N 	0.83842 0.23826 0.59004 -0.12200
C 	C 	0.13996 0.06180 0.48972 0.00800
C 	C 	0.19699 0.06386 0.52787 -0.03200
C 	C 	0.28401 0.10774 0.52286 0.01500
C 	C 	0.31733 0.16105 0.48379 -0.07400
C 	C 	0.26266 0.16999 0.45056 0.01900
C 	C 	0.17297 0.11293 0.45000 -0.03600
C 	C 	0.16664 0.02244 0.57260 0.08300
C 	C 	0.29912 0.24145 0.41924 0.08600
C 	C 	0.11452 0.10345 0.40729 0.09600
C 	C 	0.33776 0.09520 0.55666 0.08100
N 	N 	0.06788 0.09587 0.37322 -0.10500
N 	N 	0.38056 0.08512 0.58366 -0.11800
N 	N 	0.32814 0.29849 0.39425 -0.10900
C 	C 	0.91775 0.10160 0.96360 0.03000
C 	C 	0.86380 0.07849 0.91618 -0.04400
C 	C 	0.81858 0.11642 0.91055 0.03100
C 	C 	0.82953 0.17965 0.95170 -0.10200
C 	C 	0.88931 0.20888 0.99738 0.04400
C 	C 	0.93071 0.16723 0.00411 -0.06400
C 	C 	0.90957 0.28324 0.03698 0.01700
C 	C 	0.98509 0.19025 0.05311 0.09500
C 	C 	0.76093 0.09052 0.86250 0.08000
N 	N 	0.02846 0.20856 0.09218 -0.10400
N 	N 	0.71495 0.06993 0.82417 -0.10700
N 	N 	0.92595 0.34268 0.06858 -0.12700
C 	C 	0.36260 0.20592 0.98506 -0.07400
C 	C 	0.33464 0.21519 0.03072 0.01800
C 	C 	0.24616 0.17276 0.02979 -0.04800
C 	C 	0.18577 0.12172 0.98323 0.02500
C 	C 	0.21400 0.11416 0.93746 -0.04100
C 	C 	0.30201 0.15470 0.93855 0.02000
C 	C 	0.39703 0.26964 0.07838 0.08700
C 	C 	0.15226 0.06465 0.88924 0.09800
C 	C 	0.33022 0.14253 0.89198 0.07000
C 	C 	0.21706 0.18133 0.07671 0.09800
N 	N 	0.35279 0.13288 0.85486 -0.11500
N 	N 	0.19376 0.18809 0.11411 -0.10500
N 	N 	0.44680 0.31305 0.11639 -0.10300
C 	C 	0.85555 0.01656 0.87319 0.08700
O 	O 	0.64283 0.38396 0.86249 -0.37400
H 	H 	0.74485 0.34842 0.53743 0.19100
H 	H 	0.63097 0.39097 0.67762 0.05900
N 	N 	0.10299 0.02521 0.85080 -0.10300
H 	H 	0.78883 0.41293 0.04131 0.18700
H 	H 	0.64674 0.42495 0.77173 0.05700
O 	O 	0.63161 0.40078 0.46859 -0.38600
O 	O 	0.74833 0.41661 0.44389 -0.35100
C 	C 	0.91371 0.99213 0.48579 0.06200
N 	N 	0.14235 0.98935 0.60827 -0.09300
C 	C 	0.83629 0.97811 0.38400 0.11400
C 	C 	0.91249 0.96385 0.97698 -0.04000
C 	C 	0.95389 0.92292 0.98541 0.02500
C 	C 	0.04385 0.97632 0.98993 -0.04000
H 	H 	0.84284 0.92273 0.97395 0.05800
H 	H 	0.07578 0.94452 0.99628 0.06000
C 	C 	0.99627 0.90800 0.48709 -0.06200
C 	C 	0.90642 0.85368 0.48475 0.04400
C 	C 	0.86510 0.89572 0.48363 -0.07200
H 	H 	0.02748 0.87475 0.48515 0.06500
H 	H 	0.79519 0.85325 0.47959 0.06500
O 	O 	0.81055 0.48932 0.95301 -0.34800
C 	C 	0.78117 0.52990 0.97583 0.28800
O 	O 	0.70363 0.47885 0.98706 -0.37800
C 	C 	0.71325 0.45412 0.46306 0.28100
C 	C 	0.85442 0.75100 0.47915 0.00900
C 	C 	0.83240 0.70883 0.52287 -0.03400
C 	C 	0.78509 0.61129 0.51757 0.01700
C 	C 	0.76033 0.55600 0.46860 -0.07300
C 	C 	0.78166 0.59834 0.42481 0.01800
C 	C 	0.82837 0.69559 0.43013 -0.03500
C 	C 	0.85923 0.76595 0.57327 0.10000
C 	C 	0.75535 0.54193 0.37420 0.08600
C 	C 	0.85007 0.73889 0.38514 0.09800
C 	C 	0.76336 0.56805 0.56256 0.07900
N 	N 	0.86747 0.77349 0.34929 -0.10100
N 	N 	0.74597 0.53345 0.59842 -0.10800
N 	N 	0.73478 0.49753 0.33369 -0.09900
N 	N 	0.88072 0.81166 0.61347 -0.10000
N 	N 	0.84078 0.93930 0.34889 -0.10100
C 	C 	0.90223 0.82110 0.98245 0.02300
C 	C 	0.87992 0.76312 0.93506 -0.03900
C 	C 	0.84412 0.66882 0.93321 0.01800
C 	C 	0.82684 0.63099 0.97861 -0.07200
C 	C 	0.84723 0.68862 0.02591 0.01300
C 	C 	0.88458 0.78356 0.02775 -0.04500
C 	C 	0.89487 0.80106 0.88815 0.10000
C 	C 	0.83201 0.65081 0.07283 0.08200
C 	C 	0.90542 0.84286 0.07625 0.09900
C 	C 	0.82614 0.61121 0.88465 0.08800
N 	N 	0.92210 0.89028 0.11492 -0.10300
N 	N 	0.81240 0.56591 0.84580 -0.09900
N 	N 	0.81984 0.62058 0.11024 -0.10500
N 	N 	0.90679 0.83127 0.85074 -0.09700
N 	N 	0.84899 0.96717 0.83886 -0.09200
