data_crystal

_cell_length_a 22.38165
_cell_length_b 23.46354
_cell_length_c 39.52410
_cell_angle_alpha 60.75257
_cell_angle_beta  118.98660
_cell_angle_gamma 133.34080

_symmetry_space_group_name_	'P 1'
_symmetry_space_group_name_H-M	'P 1'

loop_
_symmetry_equiv_pos_as_xyz
  x,y,z

loop_
_atom_site_label
_atom_site_type_symbol
_atom_site_fract_x
_atom_site_fract_y
_atom_site_fract_z
_atom_site_charge
C 	C 	0.26715 0.63191 0.17217 0.13300
N 	N 	0.22091 0.55456 0.16935 -0.13000
C 	C 	0.25835 0.53199 0.16462 0.13600
N 	N 	0.34006 0.58593 0.16254 -0.13600
C 	C 	0.25785 0.65058 0.65713 0.13300
N 	N 	0.32606 0.59397 0.65284 -0.13600
C 	C 	0.24204 0.54681 0.64919 0.13600
N 	N 	0.20689 0.57462 0.65136 -0.13000
Co	Co	0.07226 0.01974 0.05623 1.16800
Co	Co	0.02133 0.07965 0.09388 1.19000
C 	C 	0.22943 0.03115 0.07287 0.25700
Co	Co	0.06777 0.88396 0.04873 1.18000
O 	O 	0.08443 0.11522 0.05551 -0.45700
C 	C 	0.11207 0.17408 0.15705 0.31200
C 	C 	0.07364 0.78646 0.13130 0.32000
O 	O 	0.10139 0.98230 0.00030 -0.35300
O 	O 	0.06082 0.11218 0.18063 -0.39000
O 	O 	0.12116 0.16290 0.13016 -0.37300
O 	O 	0.03995 0.78151 0.09453 -0.39400
O 	O 	0.06730 0.82541 0.14352 -0.36400
O 	O 	0.03366 0.92150 0.07045 -0.72100
O 	O 	0.18919 0.95282 0.08014 -0.34600
O 	O 	0.19921 0.06066 0.07650 -0.38600
Co	Co	0.04330 0.02328 0.54557 1.17700
Co	Co	0.99802 0.08094 0.58662 1.16500
C 	C 	0.20541 0.08563 0.53905 0.33600
Co	Co	0.08108 0.91131 0.54739 1.18800
O 	O 	0.04045 0.11214 0.54051 -0.45000
C 	C 	0.09919 0.19085 0.64366 0.31100
C 	C 	0.15106 0.87609 0.63269 0.30900
O 	O 	0.98274 0.89672 0.49813 -0.40200
O 	O 	0.05779 0.13131 0.67145 -0.39000
O 	O 	0.10159 0.17598 0.61577 -0.37000
O 	O 	0.17308 0.92985 0.59952 -0.37200
O 	O 	0.10125 0.86756 0.64688 -0.35600
O 	O 	0.03155 0.93483 0.56829 -0.71400
O 	O 	0.15588 0.03098 0.51901 -0.43300
O 	O 	0.17329 0.08845 0.55813 -0.40800
C 	C 	0.11037 0.07380 0.88455 -0.02300
C 	C 	0.11014 0.08334 0.91703 -0.00900
H 	H 	0.16843 0.13005 0.93194 0.04200
H 	H 	0.16847 0.11397 0.87490 0.03500
C 	C 	0.08404 0.06138 0.80387 -0.11200
C 	C 	0.08104 0.04783 0.77186 -0.04900
H 	H 	0.11856 0.12284 0.80479 0.06100
H 	H 	0.11347 0.09920 0.74893 0.05300
C 	C 	0.06103 0.01996 0.30985 -0.10700
C 	C 	0.06119 0.00932 0.27773 -0.04800
H 	H 	0.10201 0.08021 0.31415 0.05800
H 	H 	0.10236 0.06163 0.25804 0.05400
C 	C 	0.06558 0.02773 0.42191 -0.01600
C 	C 	0.07163 0.01955 0.39084 -0.04500
H 	H 	0.12283 0.06749 0.44056 0.04700
H 	H 	0.13341 0.05305 0.38631 0.03900
C 	C 	0.19232 0.46711 0.64372 -0.01700
C 	C 	0.16501 0.40380 0.64025 0.00200
C 	C 	0.14276 0.33213 0.63816 0.06400
C 	C 	0.12527 0.26993 0.63883 -0.09700
C 	C 	0.22225 0.68426 0.65728 -0.01300
C 	C 	0.19925 0.71938 0.65653 0.00600
C 	C 	0.17789 0.76746 0.65338 0.06500
C 	C 	0.16357 0.81389 0.64707 -0.08800
C 	C 	0.14320 0.25373 0.15496 -0.09800
C 	C 	0.16337 0.31621 0.15573 0.06300
C 	C 	0.18671 0.38803 0.15842 0.00100
C 	C 	0.21280 0.45139 0.16133 -0.01700
C 	C 	0.12281 0.75427 0.15597 -0.08600
C 	C 	0.15858 0.72366 0.16719 0.06400
C 	C 	0.19599 0.68781 0.17275 0.00500
C 	C 	0.22704 0.65986 0.17368 -0.01400
C 	C 	0.29401 0.12488 0.54843 -0.12300
C 	C 	0.36566 0.15153 0.55329 0.06700
C 	C 	0.38093 0.12328 0.06000 0.04400
C 	C 	0.31283 0.08397 0.06644 -0.09300
C 	C 	0.72796 0.29753 0.02828 0.12500
N 	N 	0.77261 0.37588 0.02886 -0.13700
C 	C 	0.73459 0.39890 0.03258 0.13000
N 	N 	0.65371 0.34432 0.03597 -0.13800
C 	C 	0.61019 0.26650 0.03671 0.13200
N 	N 	0.64700 0.24265 0.03287 -0.13900
C 	C 	0.70907 0.28591 0.53840 0.12600
N 	N 	0.62909 0.23391 0.54385 -0.13900
C 	C 	0.60482 0.25437 0.55914 0.13100
N 	N 	0.65988 0.32573 0.56893 -0.13900
C 	C 	0.73626 0.38061 0.56031 0.13200
N 	N 	0.76203 0.36086 0.54537 -0.13700
C 	C 	0.38544 0.66240 0.16457 0.13800
N 	N 	0.34932 0.68581 0.16936 -0.13200
N 	N 	0.34243 0.69770 0.66004 -0.13200
C 	C 	0.37622 0.66888 0.65804 0.13800
Co	Co	0.93426 0.91443 0.14663 1.19200
Co	Co	0.97951 0.85374 0.10680 1.16900
Co	Co	0.93377 0.04426 0.15523 1.15000
C 	C 	0.88830 0.75576 0.04454 0.30700
O 	O 	0.95630 0.14634 0.10965 -0.42400
O 	O 	0.96220 0.00937 0.12863 -0.79600
C 	C 	0.92486 0.14443 0.07232 0.31900
O 	O 	0.92580 0.82027 0.14884 -0.46600
C 	C 	0.77168 0.89251 0.13569 0.31100
O 	O 	0.98040 0.96115 0.09225 -0.57200
C 	C 	0.05429 0.00756 0.97782 0.24700
O 	O 	0.94219 0.11817 0.05756 -0.39700
O 	O 	0.03151 0.02644 0.99410 -0.36800
O 	O 	0.81180 0.97138 0.12592 -0.36800
O 	O 	0.80620 0.85898 0.14033 -0.36700
C 	C 	0.96605 0.93222 0.22526 0.24500
O 	O 	0.91030 0.94745 0.20469 -0.38200
O 	O 	0.99590 0.92533 0.20647 -0.37000
O 	O 	0.94125 0.81952 0.02181 -0.40100
O 	O 	0.88295 0.76261 0.07466 -0.37400
Co	Co	0.93799 0.92573 0.64834 1.18800
Co	Co	0.99696 0.87374 0.61126 1.16800
Co	Co	0.92900 0.05194 0.65403 1.15000
C 	C 	0.93395 0.74682 0.57660 0.28700
O 	O 	0.93439 0.14462 0.60520 -0.42500
O 	O 	0.95373 0.01550 0.62655 -0.79700
C 	C 	0.89393 0.13403 0.56930 0.32300
O 	O 	0.94522 0.83869 0.65466 -0.46700
C 	C 	0.77127 0.89005 0.64372 0.31000
O 	O 	0.96772 0.96364 0.59024 -0.57000
C 	C 	0.98529 0.96062 0.47277 0.32100
O 	O 	0.90636 0.10398 0.55441 -0.39400
O 	O 	0.99757 0.01305 0.48520 -0.41600
O 	O 	0.80514 0.96798 0.63188 -0.36800
O 	O 	0.81156 0.86098 0.64969 -0.36800
C 	C 	0.98384 0.95780 0.72530 0.21000
O 	O 	0.92204 0.96469 0.70676 -0.37500
O 	O 	0.01231 0.95248 0.70501 -0.31800
O 	O 	0.01245 0.78992 0.57546 -0.37000
O 	O 	0.91056 0.77073 0.58919 -0.37900
C 	C 	0.03737 0.01010 0.86624 -0.06700
C 	C 	0.96282 0.95940 0.87960 -0.01200
C 	C 	0.96391 0.96720 0.91320 -0.00300
C 	C 	0.03915 0.02618 0.93376 -0.06300
C 	C 	0.03932 0.99587 0.83332 0.15300
H 	H 	0.90465 0.91245 0.86484 0.03800
H 	H 	0.90801 0.92315 0.92507 0.04600
C 	C 	0.02790 0.96905 0.76677 0.04600
C 	C 	0.99046 0.90361 0.79826 -0.03200
C 	C 	0.99622 0.91682 0.83131 -0.10400
H 	H 	0.95081 0.84229 0.79560 0.04400
H 	H 	0.96509 0.86541 0.85463 0.05900
C 	C 	0.95419 0.87602 0.32883 -0.09800
C 	C 	0.00519 0.95373 0.33490 0.13400
C 	C 	0.00149 0.93366 0.26823 0.03900
C 	C 	0.95239 0.86617 0.29576 -0.03100
C 	C 	0.99860 0.96595 0.36695 -0.02400
H 	H 	0.90730 0.80691 0.28972 0.04400
H 	H 	0.91386 0.82347 0.34886 0.05800
C 	C 	0.91922 0.92357 0.37369 -0.03500
C 	C 	0.91368 0.92969 0.40573 0.00400
C 	C 	0.98709 0.97964 0.43106 -0.06000
H 	H 	0.86183 0.88443 0.35479 0.04400
H 	H 	0.85257 0.89215 0.41209 0.04300
C 	C 	0.68698 0.83545 0.64915 -0.09200
C 	C 	0.61683 0.79701 0.65290 0.06300
C 	C 	0.53486 0.75602 0.65611 0.00300
C 	C 	0.46354 0.71936 0.65771 -0.01900
C 	C 	0.68827 0.84171 0.14171 -0.09300
C 	C 	0.61961 0.80353 0.14723 0.06300
C 	C 	0.53954 0.75979 0.15379 0.00300
C 	C 	0.47006 0.71901 0.15910 -0.01900
C 	C 	0.84380 0.16465 0.54576 -0.11400
C 	C 	0.80730 0.19385 0.53523 0.05600
C 	C 	0.77049 0.22845 0.53123 -0.01100
C 	C 	0.74208 0.25626 0.53266 -0.02500
C 	C 	0.78359 0.46178 0.56240 -0.02700
C 	C 	0.81413 0.52639 0.56540 -0.00300
C 	C 	0.84687 0.60035 0.56964 0.05200
C 	C 	0.88028 0.66546 0.57321 -0.09500
C 	C 	0.44728 0.18061 0.55631 -0.01200
C 	C 	0.51795 0.20957 0.55772 -0.02500
C 	C 	0.76926 0.27016 0.02757 -0.02500
C 	C 	0.80243 0.24368 0.02930 -0.01100
C 	C 	0.84218 0.20958 0.03583 0.05300
C 	C 	0.87845 0.17930 0.04766 -0.11100
C 	C 	0.77995 0.47961 0.03528 -0.02500
C 	C 	0.80719 0.54330 0.03816 -0.00600
C 	C 	0.83261 0.61528 0.04151 0.05600
C 	C 	0.85481 0.67747 0.04363 -0.10500
C 	C 	0.52764 0.20914 0.04471 -0.03000
C 	C 	0.45969 0.16783 0.05180 -0.00300
