data_crystal

_cell_length_a 26.09572
_cell_length_b 26.36717
_cell_length_c 34.91922
_cell_angle_alpha 95.49502
_cell_angle_beta  95.49258
_cell_angle_gamma 125.82830

_symmetry_space_group_name_	'P 1'
_symmetry_space_group_name_H-M	'P 1'

loop_
_symmetry_equiv_pos_as_xyz
  x,y,z

loop_
_atom_site_label
_atom_site_type_symbol
_atom_site_fract_x
_atom_site_fract_y
_atom_site_fract_z
_atom_site_charge
C 	C 	0.95081 0.01095 0.98903 0.11400
N 	N 	0.01100 0.04067 0.98088 -0.13000
C 	C 	0.03578 0.00785 0.97554 0.11900
N 	N 	0.00021 0.94538 0.97830 -0.12600
C 	C 	0.94012 0.91556 0.98634 0.12100
N 	N 	0.91546 0.94838 0.99172 -0.13100
C 	C 	0.95400 0.01748 0.46459 0.11300
N 	N 	0.01873 0.05456 0.46658 -0.13100
C 	C 	0.05192 0.03043 0.47325 0.12100
N 	N 	0.02013 0.96900 0.47791 -0.12700
C 	C 	0.95547 0.93168 0.47598 0.11900
N 	N 	0.92231 0.95591 0.46929 -0.13000
Cu	Cu	0.61931 0.22124 0.99977 0.93200
Cu	Cu	0.68430 0.23752 0.92206 0.87900
Cu	Cu	0.65255 0.32165 0.94993 0.90000
Cu	Cu	0.61612 0.33645 0.02587 0.90600
C 	C 	0.63091 0.26459 0.08095 0.39800
O 	O 	0.52448 0.18240 0.99578 -0.34500
C 	C 	0.64665 0.28809 0.86557 0.38400
O 	O 	0.66991 0.32041 0.00441 -0.63700
O 	O 	0.61522 0.22976 0.94423 -0.64100
O 	O 	0.66047 0.17719 0.99863 -0.35100
O 	O 	0.73791 0.25038 0.96844 -0.42500
O 	O 	0.60050 0.28821 0.06951 -0.35500
O 	O 	0.69550 0.41255 0.95742 -0.35700
C 	C 	0.69272 0.44753 0.98574 0.29200
C 	C 	0.50001 0.20919 0.98018 0.28600
O 	O 	0.53827 0.26947 0.97737 -0.38600
O 	O 	0.65586 0.42211 0.01209 -0.37300
O 	O 	0.63717 0.22908 0.05547 -0.33600
C 	C 	0.71727 0.20484 0.98885 0.30000
O 	O 	0.63961 0.32031 0.89338 -0.34900
O 	O 	0.65066 0.24196 0.87234 -0.38100
H 	H 	0.71594 0.34917 0.01703 0.18600
H 	H 	0.57230 0.20094 0.92702 0.19100
Cu	Cu	0.75163 0.35456 0.45283 0.93300
Cu	Cu	0.74283 0.29776 0.53317 0.87900
Cu	Cu	0.65479 0.32599 0.50558 0.90100
Cu	Cu	0.63276 0.35463 0.42816 0.90500
C 	C 	0.70231 0.33715 0.37169 0.39900
O 	O 	0.78932 0.44771 0.45402 -0.34200
C 	C 	0.69414 0.33761 0.58989 0.38200
O 	O 	0.65194 0.30430 0.45088 -0.63900
O 	O 	0.74743 0.36323 0.50900 -0.64000
O 	O 	0.79651 0.31407 0.45415 -0.34900
O 	O 	0.72619 0.24101 0.48768 -0.42300
O 	O 	0.67812 0.36698 0.38304 -0.35700
O 	O 	0.56310 0.28313 0.50063 -0.35500
C 	C 	0.52502 0.28131 0.47176 0.29300
C 	C 	0.76279 0.47262 0.46948 0.28600
O 	O 	0.70287 0.43516 0.47431 -0.38400
O 	O 	0.54780 0.31593 0.44424 -0.37400
O 	O 	0.73947 0.33236 0.39709 -0.33900
C 	C 	0.76976 0.25911 0.46557 0.29700
O 	O 	0.66086 0.34413 0.56234 -0.34900
O 	O 	0.74104 0.33440 0.58266 -0.37900
H 	H 	0.62276 0.25815 0.43970 0.18500
H 	H 	0.77718 0.40674 0.52492 0.19000
C 	C 	0.67571 0.37217 0.77928 0.22700
C 	C 	0.65059 0.32152 0.74786 -0.00800
C 	C 	0.61815 0.25909 0.75490 0.22200
C 	C 	0.61318 0.24768 0.79315 0.30400
C 	C 	0.64240 0.29886 0.82495 -0.21200
C 	C 	0.67224 0.36105 0.81770 0.30200
C 	C 	0.66291 0.33426 0.70813 -0.00800
F 	F 	0.59312 0.20965 0.72474 -0.35800
F 	F 	0.70025 0.41102 0.84795 -0.39200
C 	C 	0.72565 0.36582 0.70058 0.22200
C 	C 	0.73646 0.37075 0.66220 0.30400
C 	C 	0.68429 0.34233 0.63075 -0.21200
C 	C 	0.62185 0.31357 0.63855 0.30200
C 	C 	0.61139 0.31018 0.67712 0.22700
F 	F 	0.77596 0.38997 0.73037 -0.35800
F 	F 	0.57095 0.28648 0.60867 -0.39600
F 	F 	0.79759 0.40267 0.65553 -0.39000
F 	F 	0.55085 0.28163 0.68425 -0.35600
F 	F 	0.70522 0.43244 0.77266 -0.35500
F 	F 	0.58042 0.18690 0.79934 -0.39100
C 	C 	0.60752 0.25154 0.18545 0.22200
C 	C 	0.67033 0.27900 0.20474 -0.00500
C 	C 	0.71878 0.29606 0.18280 0.22600
C 	C 	0.70517 0.28859 0.14200 0.30600
C 	C 	0.64313 0.26431 0.12294 -0.21500
C 	C 	0.59391 0.24409 0.14472 0.31000
C 	C 	0.68654 0.29565 0.24791 -0.00500
F 	F 	0.77942 0.32163 0.20114 -0.35600
F 	F 	0.53308 0.21796 0.12644 -0.38700
C 	C 	0.66944 0.24822 0.27027 0.22600
C 	C 	0.67711 0.26241 0.31104 0.30600
C 	C 	0.70160 0.32404 0.32964 -0.21600
C 	C 	0.72162 0.37216 0.30742 0.31000
C 	C 	0.71399 0.35797 0.26674 0.22200
F 	F 	0.64381 0.18804 0.25238 -0.35600
F 	F 	0.74787 0.43255 0.32527 -0.39000
F 	F 	0.65855 0.21578 0.33230 -0.39700
F 	F 	0.73146 0.40434 0.24541 -0.36000
F 	F 	0.56014 0.23401 0.20636 -0.36000
F 	F 	0.75285 0.30729 0.12117 -0.39600
C 	C 	0.85963 0.64138 0.45163 -0.05300
C 	C 	0.84548 0.67032 0.48018 0.02800
C 	C 	0.80850 0.63562 0.50721 -0.05500
C 	C 	0.78394 0.57171 0.50487 0.01600
C 	C 	0.79631 0.54201 0.47551 -0.07400
C 	C 	0.83535 0.57756 0.44936 0.01900
C 	C 	0.86918 0.73687 0.48160 0.01300
H 	H 	0.79796 0.65785 0.52962 0.05900
H 	H 	0.75440 0.54499 0.52545 0.04700
H 	H 	0.84507 0.55523 0.42647 0.06700
H 	H 	0.88875 0.66809 0.43090 0.06400
C 	C 	0.92145 0.78543 0.51053 -0.04000
C 	C 	0.94761 0.84910 0.50988 -0.01500
C 	C 	0.92155 0.86475 0.48032 -0.01400
C 	C 	0.86737 0.81594 0.45242 -0.01500
C 	C 	0.84143 0.75222 0.45297 -0.04000
H 	H 	0.94280 0.77393 0.53294 0.05400
H 	H 	0.98906 0.88636 0.53178 0.04900
H 	H 	0.84688 0.82741 0.42945 0.05200
H 	H 	0.80066 0.71491 0.43071 0.05600
C 	C 	0.77225 0.11725 0.44727 -0.05700
C 	C 	0.83854 0.14709 0.45128 0.03100
C 	C 	0.88161 0.21376 0.45644 -0.05700
C 	C 	0.85879 0.25032 0.45899 0.02000
C 	C 	0.79277 0.22060 0.45687 -0.07900
C 	C 	0.74950 0.15383 0.45022 0.02400
C 	C 	0.86317 0.10887 0.45214 0.01200
H 	H 	0.93288 0.23733 0.45955 0.05600
H 	H 	0.89267 0.30179 0.46415 0.04500
H 	H 	0.69836 0.13032 0.44801 0.04900
H 	H 	0.73849 0.06581 0.44262 0.05900
C 	C 	0.84874 0.06936 0.47995 -0.04000
C 	C 	0.87611 0.03710 0.48284 -0.01700
C 	C 	0.91870 0.04459 0.45824 -0.01300
C 	C 	0.93154 0.08250 0.42964 -0.01700
C 	C 	0.90367 0.11424 0.42648 -0.04000
H 	H 	0.81762 0.06491 0.49995 0.05000
H 	H 	0.86596 0.00809 0.50507 0.04800
H 	H 	0.96381 0.08808 0.41022 0.04700
H 	H 	0.91440 0.14382 0.40454 0.05500
C 	C 	0.34484 0.18062 0.43885 -0.05400
C 	C 	0.32443 0.17918 0.47475 0.02800
C 	C 	0.37010 0.21124 0.50972 -0.05000
C 	C 	0.43558 0.24415 0.50881 0.01900
C 	C 	0.45602 0.24576 0.47288 -0.06900
C 	C 	0.41034 0.21396 0.43791 0.01700
C 	C 	0.25518 0.14300 0.47576 0.01500
H 	H 	0.35485 0.21072 0.53756 0.06800
H 	H 	0.47042 0.26901 0.53597 0.07900
H 	H 	0.42552 0.21454 0.41004 0.04600
H 	H 	0.30993 0.15552 0.41173 0.05800
C 	C 	0.21770 0.15703 0.45474 -0.04000
C 	C 	0.15156 0.12088 0.45427 -0.01400
C 	C 	0.12228 0.07059 0.47510 -0.01400
C 	C 	0.16021 0.05761 0.49686 -0.01400
C 	C 	0.22620 0.09341 0.49700 -0.04000
H 	H 	0.23975 0.19557 0.43850 0.05300
H 	H 	0.12300 0.13136 0.43723 0.05100
H 	H 	0.13857 0.01966 0.51356 0.05100
H 	H 	0.25471 0.08219 0.51330 0.05800
C 	C 	0.74103 0.61509 0.00544 -0.05200
C 	C 	0.79478 0.64751 0.98736 0.02800
C 	C 	0.81447 0.61408 0.96828 -0.05200
C 	C 	0.78112 0.54887 0.96764 0.02500
C 	C 	0.72745 0.51630 0.98593 -0.07300
C 	C 	0.70742 0.54981 0.00468 0.02300
C 	C 	0.83105 0.71662 0.98888 0.01100
H 	H 	0.85577 0.63872 0.95407 0.06400
H 	H 	0.79739 0.52384 0.95325 0.06000
H 	H 	0.66574 0.52532 0.01855 0.04900
H 	H 	0.72553 0.64055 0.02027 0.05800
C 	C 	0.80098 0.74108 0.97166 -0.03900
C 	C 	0.83614 0.80636 0.97176 -0.01400
C 	C 	0.90174 0.84765 0.98893 -0.01800
C 	C 	0.93137 0.82326 0.00689 -0.01100
C 	C 	0.89615 0.75808 0.00692 -0.03600
H 	H 	0.75070 0.70940 0.95768 0.05500
H 	H 	0.81281 0.82459 0.95768 0.05100
H 	H 	0.98176 0.85478 0.02066 0.05100
H 	H 	0.91954 0.73970 0.02072 0.05400
C 	C 	0.75793 0.09005 0.99733 -0.06400
C 	C 	0.82524 0.13093 0.00165 0.03500
C 	C 	0.85723 0.19677 0.00512 -0.06000
C 	C 	0.82207 0.22124 0.00260 0.03000
C 	C 	0.75456 0.18012 0.99676 -0.08700
C 	C 	0.72278 0.11456 0.99508 0.02400
C 	C 	0.86180 0.10441 0.00045 0.01600
H 	H 	0.90923 0.22883 0.00908 0.06000
H 	H 	0.84722 0.27203 0.00453 0.04800
H 	H 	0.67074 0.08229 0.99058 0.04500
H 	H 	0.73276 0.03915 0.99466 0.05700
C 	C 	0.85718 0.06601 0.02716 -0.04200
C 	C 	0.88766 0.03682 0.02406 -0.01100
C 	C 	0.92342 0.04609 0.99436 -0.02000
C 	C 	0.92982 0.08620 0.96846 -0.01500
C 	C 	0.89893 0.11503 0.97138 -0.04600
H 	H 	0.82929 0.05813 0.04999 0.05700
H 	H 	0.88308 0.00662 0.04454 0.04900
H 	H 	0.95714 0.09360 0.94537 0.04700
H 	H 	0.90268 0.14445 0.95055 0.05000
C 	C 	0.21530 0.12937 0.98504 -0.04100
C 	C 	0.23021 0.09437 0.96238 0.01200
C 	C 	0.18056 0.03345 0.94103 -0.03600
C 	C 	0.11662 0.00652 0.94367 -0.02600
C 	C 	0.10179 0.04014 0.96796 -0.00900
C 	C 	0.15133 0.10239 0.98783 -0.02000
C 	C 	0.29784 0.11958 0.96331 0.02900
H 	H 	0.19163 0.00643 0.92308 0.05300
H 	H 	0.07874 0.95895 0.92757 0.06100
H 	H 	0.14060 0.12892 0.00660 0.05600
H 	H 	0.25340 0.17664 0.00146 0.05800
C 	C 	0.33769 0.17190 0.94578 -0.05500
C 	C 	0.40313 0.19906 0.94945 0.01600
C 	C 	0.42949 0.17457 0.97116 -0.07200
C 	C 	0.38878 0.12030 0.98719 0.01600
C 	C 	0.32329 0.09302 0.98328 -0.05200
H 	H 	0.31818 0.19213 0.92984 0.05800
H 	H 	0.43355 0.23998 0.93616 0.04800
H 	H 	0.40811 0.10047 0.00373 0.06500
H 	H 	0.29265 0.05226 0.99665 0.06100
