data_crystal

_cell_length_a 20.14629
_cell_length_b 21.67210
_cell_length_c 28.17344
_cell_angle_alpha 60.92629
_cell_angle_beta  118.75459
_cell_angle_gamma 133.25978

_symmetry_space_group_name_	'P 1'
_symmetry_space_group_name_H-M	'P 1'

loop_
_symmetry_equiv_pos_as_xyz
  x,y,z

loop_
_atom_site_label
_atom_site_type_symbol
_atom_site_fract_x
_atom_site_fract_y
_atom_site_fract_z
_atom_site_charge
C 	C 	0.26707 0.64752 0.21140 0.11000
C 	C 	0.21664 0.55809 0.21543 -0.08000
C 	C 	0.24371 0.53339 0.19399 0.11700
C 	C 	0.32671 0.59497 0.17608 -0.09200
C 	C 	0.38426 0.68012 0.18074 0.11700
C 	C 	0.35061 0.70877 0.19267 -0.08800
H 	H 	0.15670 0.50881 0.23412 0.11200
H 	H 	0.35028 0.57476 0.16267 0.09500
C 	C 	0.26707 0.64751 0.71141 0.11000
C 	C 	0.35061 0.70876 0.69268 -0.08800
C 	C 	0.38427 0.68011 0.68077 0.11700
C 	C 	0.32672 0.59496 0.67611 -0.09300
C 	C 	0.24371 0.53338 0.69400 0.11600
C 	C 	0.21663 0.55808 0.71543 -0.08000
H 	H 	0.35029 0.57475 0.66270 0.09600
H 	H 	0.15669 0.50880 0.73412 0.11200
Co	Co	0.07110 0.02027 0.05955 1.17200
C 	C 	0.25251 0.08020 0.05181 0.35300
Co	Co	0.10756 0.88544 0.07259 1.17600
O 	O 	0.05438 0.11219 0.04395 -0.43200
C 	C 	0.07132 0.21688 0.15404 0.35800
C 	C 	0.16840 0.83991 0.19502 0.33500
O 	O 	0.09641 0.19197 0.13488 -0.35400
O 	O 	0.20023 0.89514 0.14961 -0.36100
O 	O 	0.10983 0.83535 0.20808 -0.33700
O 	O 	0.06383 0.92765 0.09754 -0.74100
O 	O 	0.20192 0.01117 0.03300 -0.41700
O 	O 	0.21376 0.09681 0.06650 -0.37300
Co	Co	0.07110 0.02027 0.55955 1.17700
C 	C 	0.25251 0.08019 0.55181 0.34600
Co	Co	0.10755 0.88544 0.57259 1.18100
O 	O 	0.05438 0.11220 0.54395 -0.42300
C 	C 	0.07133 0.21689 0.65404 0.35800
C 	C 	0.16839 0.83990 0.69503 0.33500
O 	O 	0.09642 0.19197 0.63487 -0.35200
O 	O 	0.20022 0.89513 0.64962 -0.36100
O 	O 	0.10982 0.83534 0.70809 -0.33600
O 	O 	0.06383 0.92764 0.59754 -0.73700
O 	O 	0.20191 0.01116 0.53300 -0.40300
O 	O 	0.21376 0.09680 0.56651 -0.36500
C 	C 	0.20588 0.38568 0.72910 0.07400
C 	C 	0.18471 0.44439 0.68765 -0.03400
C 	C 	0.13479 0.43078 0.63350 0.07700
C 	C 	0.11750 0.36659 0.61917 0.12100
C 	C 	0.13476 0.30570 0.66090 -0.11300
C 	C 	0.18454 0.31881 0.71506 0.11900
Br	Br	0.22305 0.24471 0.76976 -0.14100
Br	Br	0.26773 0.39965 0.80444 -0.11800
Br	Br	0.06672 0.35934 0.54257 -0.14100
Br	Br	0.09625 0.50470 0.57805 -0.13900
C 	C 	0.27776 0.79717 0.75148 0.12300
C 	C 	0.18581 0.77276 0.72639 -0.11000
C 	C 	0.11599 0.68975 0.71605 0.12400
C 	C 	0.14007 0.65065 0.70619 0.07200
C 	C 	0.23390 0.67766 0.72715 -0.03200
C 	C 	0.29924 0.74395 0.75686 0.07100
Br	Br	0.40987 0.75352 0.80983 -0.11500
Br	Br	0.37154 0.89954 0.78050 -0.09800
Br	Br	0.05125 0.57903 0.65336 -0.15400
C 	C 	0.20589 0.38569 0.22909 0.07400
C 	C 	0.18471 0.44439 0.18764 -0.03500
C 	C 	0.13478 0.43078 0.13350 0.07600
C 	C 	0.11748 0.36658 0.11916 0.12200
C 	C 	0.13474 0.30569 0.16090 -0.11400
C 	C 	0.18454 0.31881 0.21506 0.11800
Br	Br	0.22304 0.24471 0.26976 -0.14300
Br	Br	0.26774 0.39967 0.30443 -0.12300
Br	Br	0.06670 0.35932 0.04257 -0.15500
Br	Br	0.09624 0.50470 0.07804 -0.14700
C 	C 	0.27777 0.79718 0.25147 0.12200
C 	C 	0.18582 0.77277 0.22639 -0.11100
C 	C 	0.11600 0.68975 0.21605 0.12400
C 	C 	0.14008 0.65065 0.20619 0.07100
C 	C 	0.23391 0.67766 0.22714 -0.03300
C 	C 	0.29925 0.74396 0.25685 0.07000
Br	Br	0.40988 0.75354 0.30981 -0.12200
Br	Br	0.37155 0.89955 0.28049 -0.10400
Br	Br	0.05125 0.57902 0.15336 -0.15600
C 	C 	0.36049 0.19481 0.48855 0.12100
C 	C 	0.34787 0.14868 0.54342 -0.11600
C 	C 	0.42207 0.14897 0.58686 0.11500
C 	C 	0.44440 0.23487 0.47659 0.07100
Br	Br	0.46007 0.29419 0.40099 -0.13000
Br	Br	0.26167 0.20156 0.42982 -0.14800
Br	Br	0.41144 0.10088 0.66309 -0.15100
C 	C 	0.44440 0.23488 0.97659 0.09700
C 	C 	0.36049 0.19481 0.98854 0.14700
C 	C 	0.34787 0.14869 0.04342 -0.14600
C 	C 	0.42208 0.14897 0.08685 0.11800
Br	Br	0.41144 0.10088 0.16309 -0.15400
Br	Br	0.26167 0.20157 0.92982 -0.13800
Br	Br	0.46008 0.29420 0.90099 -0.12100
H 	H 	0.39162 0.77750 0.19023 0.10200
H 	H 	0.39161 0.77749 0.69025 0.10200
O 	O 	0.03626 0.98691 0.13853 -0.54200
C 	C 	0.01331 0.94719 0.96362 0.29700
O 	O 	0.00667 0.99204 0.97925 -0.30700
Co	Co	0.01059 0.86059 0.65190 1.19700
O 	O 	0.03626 0.98691 0.63853 -0.54100
O 	O 	0.00667 0.99203 0.47925 -0.32200
C 	C 	0.00424 0.97396 0.85725 0.02500
C 	C 	0.00757 0.96411 0.90493 0.01400
C 	C 	0.50402 0.18503 0.07468 0.07500
Co	Co	0.01060 0.86060 0.15191 1.19700
C 	C 	0.00424 0.97395 0.35725 0.02400
C 	C 	0.01331 0.94718 0.46362 0.29800
C 	C 	0.00757 0.96410 0.40493 0.00900
Br	Br	0.44451 0.80359 0.56687 -0.13300
Br	Br	0.44451 0.80359 0.06685 -0.14400
C 	C 	0.50402 0.18503 0.57468 0.07100
C 	C 	0.51741 0.23201 0.51991 -0.04000
C 	C 	0.51741 0.23202 0.01991 -0.07000
O 	O 	0.00962 0.75539 0.60606 -0.37100
C 	C 	0.48444 0.73076 0.68604 -0.03800
Br	Br	0.49245 0.64696 0.80456 -0.11700
C 	C 	0.48443 0.73076 0.18603 -0.03800
Br	Br	0.49244 0.64696 0.30454 -0.12200
C 	C 	0.53924 0.71235 0.73773 0.07400
C 	C 	0.51809 0.77635 0.63734 0.07400
C 	C 	0.51808 0.77634 0.13733 0.07400
C 	C 	0.53923 0.71235 0.23772 0.07500
Br	Br	0.59732 0.16886 0.63270 -0.13200
Br	Br	0.59732 0.16885 0.13270 -0.13400
O 	O 	0.00963 0.75540 0.10606 -0.37300
O 	O 	0.00917 0.87754 0.49842 -0.35100
C 	C 	0.61359 0.29735 0.01168 0.12000
H 	H 	0.62149 0.20681 0.00617 0.09200
C 	C 	0.61358 0.29735 0.51168 0.11500
H 	H 	0.62149 0.20681 0.50617 0.09500
O 	O 	0.00917 0.87755 0.99842 -0.33400
H 	H 	0.62568 0.40114 0.01566 0.09300
C 	C 	0.60470 0.80103 0.64016 0.12600
C 	C 	0.60470 0.80102 0.14015 0.12600
H 	H 	0.62567 0.40114 0.51566 0.09800
C 	C 	0.66047 0.27215 0.01000 -0.09700
C 	C 	0.66047 0.27215 0.51000 -0.08400
C 	C 	0.62638 0.73880 0.74023 0.12400
C 	C 	0.62638 0.73880 0.24022 0.12400
Br	Br	0.64067 0.84297 0.57267 -0.13800
Br	Br	0.64067 0.84296 0.07266 -0.14900
C 	C 	0.66298 0.38136 0.01603 -0.09700
C 	C 	0.66298 0.38136 0.51603 -0.08800
C 	C 	0.66262 0.79002 0.69246 -0.11700
C 	C 	0.66261 0.79002 0.19245 -0.11800
Br	Br	0.99903 0.62010 0.73437 -0.15200
Br	Br	0.99904 0.62011 0.23436 -0.15500
C 	C 	0.99893 0.98964 0.29890 0.29800
O 	O 	0.99937 0.05707 0.26266 -0.37500
C 	C 	0.99893 0.98964 0.79890 0.30000
O 	O 	0.99504 0.93714 0.78328 -0.33200
O 	O 	0.99504 0.93714 0.28329 -0.33300
O 	O 	0.99938 0.05708 0.76265 -0.37500
O 	O 	0.98296 0.17370 0.15210 -0.39000
O 	O 	0.98298 0.17371 0.65209 -0.39000
Co	Co	0.99932 0.08147 0.60388 1.17900
Co	Co	0.99931 0.08146 0.10388 1.17800
C 	C 	0.75887 0.32737 0.01973 0.12100
C 	C 	0.75887 0.32737 0.51973 0.11100
C 	C 	0.76057 0.43513 0.52920 0.11300
C 	C 	0.83108 0.24919 0.58653 0.07900
Br	Br	0.77300 0.08255 0.66351 -0.25600
Br	Br	0.87240 0.29382 0.64739 -0.14100
Br	Br	0.78363 0.33578 0.91206 -0.11700
Br	Br	0.78289 0.39548 0.15838 -0.11400
C 	C 	0.76058 0.43513 0.02921 0.11200
C 	C 	0.80943 0.40958 0.02968 -0.08700
H 	H 	0.88534 0.45094 0.04015 0.10800
C 	C 	0.80943 0.40959 0.52968 -0.07800
H 	H 	0.88534 0.45095 0.54014 0.10900
Co	Co	0.95104 0.92479 0.19982 1.19500
Co	Co	0.89847 0.04185 0.18924 1.18400
C 	C 	0.92240 0.72457 0.09680 0.31500
O 	O 	0.80368 0.02065 0.11409 -0.36800
O 	O 	0.96103 0.01837 0.16484 -0.76400
C 	C 	0.83092 0.08406 0.07039 0.32400
O 	O 	0.95576 0.82794 0.21172 -0.43300
C 	C 	0.76380 0.85222 0.19974 0.35500
O 	O 	0.89168 0.09952 0.05161 -0.35100
O 	O 	0.81007 0.91181 0.22622 -0.37100
O 	O 	0.80763 0.85189 0.17756 -0.37700
O 	O 	0.90331 0.75977 0.11132 -0.36900
Co	Co	0.95104 0.92479 0.69981 1.19600
Co	Co	0.89848 0.04187 0.68924 1.18400
C 	C 	0.92239 0.72456 0.59680 0.32100
O 	O 	0.80369 0.02067 0.61409 -0.36900
O 	O 	0.96104 0.01838 0.66483 -0.76400
C 	C 	0.83092 0.08407 0.57038 0.33300
O 	O 	0.95575 0.82794 0.71172 -0.43100
C 	C 	0.76380 0.85223 0.69974 0.35500
O 	O 	0.89169 0.09953 0.55161 -0.34700
O 	O 	0.81008 0.91183 0.72622 -0.37000
O 	O 	0.80762 0.85189 0.67756 -0.37500
O 	O 	0.90330 0.75977 0.61132 -0.36500
Br	Br	0.69732 0.70552 0.80910 -0.12600
Br	Br	0.69730 0.70551 0.30909 -0.12900
C 	C 	0.80781 0.29044 0.53142 -0.03200
C 	C 	0.80300 0.27154 0.48784 0.07600
C 	C 	0.81235 0.20548 0.50001 0.12200
C 	C 	0.81988 0.15435 0.55548 -0.10500
C 	C 	0.81816 0.17172 0.59760 0.11100
Br	Br	0.80391 0.17940 0.44014 -0.13000
Br	Br	0.78362 0.33578 0.41206 -0.12300
C 	C 	0.82796 0.59159 0.50779 0.07500
C 	C 	0.80959 0.51309 0.54827 -0.03400
C 	C 	0.80510 0.50036 0.60126 0.07500
C 	C 	0.81520 0.56386 0.61197 0.12200
C 	C 	0.84692 0.64594 0.57447 -0.10000
C 	C 	0.83645 0.65331 0.51943 0.10800
Br	Br	0.80479 0.72944 0.45965 -0.14400
Br	Br	0.83716 0.61268 0.43578 -0.14100
Br	Br	0.76341 0.53194 0.66898 -0.12100
Br	Br	0.78290 0.39549 0.65839 -0.11200
C 	C 	0.81234 0.20547 0.00001 0.06100
C 	C 	0.81987 0.15433 0.05549 -0.08600
C 	C 	0.81813 0.17170 0.09759 0.09700
C 	C 	0.83106 0.24918 0.08653 0.09600
C 	C 	0.80781 0.29043 0.03142 -0.07900
C 	C 	0.80300 0.27153 0.98784 0.14500
Br	Br	0.80391 0.17939 0.94014 -0.09300
Br	Br	0.87239 0.29380 0.14739 -0.14400
Br	Br	0.77303 0.08254 0.16353 -0.25600
C 	C 	0.83648 0.65332 0.01944 0.08900
C 	C 	0.84693 0.64594 0.07448 -0.09900
C 	C 	0.81520 0.56385 0.11198 0.12100
C 	C 	0.80510 0.50035 0.10126 0.07500
C 	C 	0.80960 0.51309 0.04827 -0.03200
C 	C 	0.82799 0.59161 0.00779 0.05700
Br	Br	0.83718 0.61271 0.93578 -0.11200
Br	Br	0.80478 0.72943 0.95967 -0.11700
Br	Br	0.76340 0.53193 0.16898 -0.12500
