data_crystal

_cell_length_a 19.81786
_cell_length_b 20.77759
_cell_length_c 41.23359
_cell_angle_alpha 60.67294
_cell_angle_beta  119.04921
_cell_angle_gamma 133.33228

_symmetry_space_group_name_	'P 1'
_symmetry_space_group_name_H-M	'P 1'

loop_
_symmetry_equiv_pos_as_xyz
  x,y,z

loop_
_atom_site_label
_atom_site_type_symbol
_atom_site_fract_x
_atom_site_fract_y
_atom_site_fract_z
_atom_site_charge
C 	C 	0.72410 0.29967 0.00153 0.24300
N 	N 	0.75580 0.38593 0.99643 -0.09200
C 	C 	0.70267 0.39835 0.00148 0.26900
N 	N 	0.61747 0.32542 0.01013 -0.12500
C 	C 	0.59015 0.24001 0.01873 0.26700
N 	N 	0.64273 0.22678 0.01406 -0.10300
C 	C 	0.71946 0.30600 0.49907 0.25400
N 	N 	0.63029 0.23348 0.50521 -0.10200
C 	C 	0.57811 0.24590 0.51087 0.27100
N 	N 	0.61515 0.32969 0.51101 -0.12100
C 	C 	0.70419 0.40123 0.50621 0.27800
N 	N 	0.75647 0.38992 0.49999 -0.10300
C 	C 	0.29062 0.61364 0.18126 0.27800
N 	N 	0.38650 0.67810 0.18553 -0.11100
C 	C 	0.44132 0.66143 0.18507 0.27500
N 	N 	0.40238 0.57641 0.18547 -0.11800
C 	C 	0.30720 0.51169 0.18085 0.27800
N 	N 	0.25089 0.53026 0.17858 -0.11600
C 	C 	0.26725 0.65385 0.64866 0.25200
N 	N 	0.23453 0.56890 0.65087 -0.10000
C 	C 	0.27573 0.56041 0.63601 0.26700
N 	N 	0.34963 0.63575 0.61983 -0.11800
C 	C 	0.38214 0.71982 0.61736 0.26300
N 	N 	0.34088 0.72907 0.63160 -0.09800
Co	Co	0.96368 0.82658 0.09097 1.20200
Co	Co	0.03925 0.09246 0.07976 1.19400
Co	Co	0.92397 0.90748 0.12689 1.20400
Co	Co	0.08229 0.01135 0.04485 1.18200
C 	C 	0.84427 0.71894 0.02824 0.39400
Co	Co	0.05002 0.84315 0.03641 1.20500
Co	Co	0.92751 0.06402 0.12904 1.17300
C 	C 	0.24219 0.99774 0.06357 0.44800
O 	O 	0.89465 0.95630 0.17695 -0.36000
O 	O 	0.96172 0.01741 0.10831 -0.76100
C 	C 	0.95469 0.93570 0.19905 0.34100
O 	O 	0.90848 0.79615 0.13119 -0.39200
O 	O 	0.11496 0.12667 0.04683 -0.41000
C 	C 	0.13600 0.19802 0.13926 0.39900
O 	O 	0.97816 0.95493 0.07661 -0.53900
C 	C 	0.74652 0.89192 0.11281 0.39700
C 	C 	0.05308 0.73568 0.11505 0.41300
C 	C 	0.05739 0.99433 0.96988 0.38500
O 	O 	0.98700 0.92005 0.18403 -0.32700
O 	O 	0.00621 0.72615 0.08039 -0.34700
O 	O 	0.05618 0.78731 0.12636 -0.33600
O 	O 	0.06762 0.13520 0.15774 -0.38000
O 	O 	0.14904 0.17739 0.11774 -0.34200
O 	O 	0.79034 0.98102 0.09998 -0.32100
O 	O 	0.77975 0.85281 0.11374 -0.31800
O 	O 	0.10110 0.95597 0.99184 -0.34500
O 	O 	0.04051 0.02459 0.98500 -0.36600
O 	O 	0.02422 0.89730 0.05653 -0.74500
C 	C 	0.93663 0.17786 0.04841 0.41600
O 	O 	0.96054 0.17945 0.08382 -0.37100
O 	O 	0.96206 0.14542 0.03932 -0.33900
O 	O 	0.90986 0.78638 0.00835 -0.35300
O 	O 	0.84644 0.72726 0.05918 -0.31500
O 	O 	0.18776 0.90874 0.06877 -0.32300
O 	O 	0.21722 0.03799 0.06795 -0.38000
Co	Co	0.96258 0.84334 0.58985 1.20100
Co	Co	0.04718 0.11557 0.57335 1.19600
Co	Co	0.91744 0.93331 0.61766 1.20200
Co	Co	0.09050 0.02491 0.54488 1.19000
C 	C 	0.86063 0.72833 0.53251 0.39900
Co	Co	0.06942 0.85286 0.54646 1.18300
Co	Co	0.94082 0.10089 0.61990 1.18500
C 	C 	0.25499 0.01299 0.57191 0.37000
O 	O 	0.89084 0.98916 0.66527 -0.33500
O 	O 	0.96726 0.04573 0.60048 -0.76400
C 	C 	0.94186 0.95865 0.68903 0.31500
O 	O 	0.89237 0.81607 0.62303 -0.40500
O 	O 	0.12148 0.14347 0.54181 -0.39300
C 	C 	0.14840 0.21983 0.63424 0.39500
O 	O 	0.97878 0.97479 0.57081 -0.53500
C 	C 	0.74915 0.94388 0.59402 0.44500
C 	C 	0.05557 0.75012 0.62638 0.41400
C 	C 	0.07680 0.99669 0.47538 0.39300
O 	O 	0.97390 0.94011 0.67539 -0.34100
O 	O 	0.02355 0.73962 0.59201 -0.37400
O 	O 	0.05120 0.80429 0.63210 -0.34600
O 	O 	0.07839 0.15768 0.65181 -0.37400
O 	O 	0.15925 0.19960 0.61169 -0.33800
O 	O 	0.80657 0.03373 0.58586 -0.36200
O 	O 	0.77719 0.89324 0.60227 -0.33800
O 	O 	0.12171 0.96034 0.50043 -0.36800
O 	O 	0.05722 0.03156 0.48653 -0.34700
O 	O 	0.03319 0.91071 0.55914 -0.74000
C 	C 	0.95976 0.21477 0.54078 0.42400
O 	O 	0.98770 0.21878 0.57610 -0.36900
O 	O 	0.97659 0.17460 0.53192 -0.32700
O 	O 	0.93130 0.79281 0.51509 -0.35900
O 	O 	0.85386 0.74066 0.55954 -0.31900
O 	O 	0.20488 0.92359 0.57987 -0.31500
O 	O 	0.22489 0.05159 0.57380 -0.34100
C 	C 	0.01653 0.00019 0.86175 -0.03800
C 	C 	0.05898 0.96471 0.86369 0.05300
C 	C 	0.04997 0.95339 0.83047 -0.03800
C 	C 	0.99842 0.97739 0.79495 0.08300
C 	C 	0.95654 0.01353 0.79294 -0.06200
C 	C 	0.96550 0.02480 0.82619 0.03200
C 	C 	0.98713 0.96469 0.76021 0.07500
C 	C 	0.97165 0.95813 0.72910 -0.02400
C 	C 	0.02264 0.00704 0.89695 0.11500
C 	C 	0.03431 0.00724 0.92882 -0.09700
H 	H 	0.09838 0.94519 0.89097 0.09000
H 	H 	0.08270 0.92562 0.83251 0.10400
H 	H 	0.91661 0.03247 0.76569 0.10000
H 	H 	0.93215 0.05190 0.82420 0.07800
C 	C 	0.02573 0.96844 0.30374 0.04900
C 	C 	0.99529 0.01642 0.30037 -0.01200
C 	C 	0.00344 0.02857 0.33317 -0.06100
C 	C 	0.04211 0.99290 0.36968 0.09800
C 	C 	0.07364 0.94588 0.37303 -0.02300
C 	C 	0.06541 0.93365 0.34022 0.00400
C 	C 	0.04838 0.00253 0.40416 0.05300
C 	C 	0.05790 0.00506 0.43516 -0.06200
C 	C 	0.00996 0.95042 0.26959 0.09100
C 	C 	0.99111 0.94061 0.23871 -0.02700
H 	H 	0.96424 0.04341 0.27241 0.07500
H 	H 	0.97897 0.06500 0.33008 0.10200
H 	H 	0.10377 0.91807 0.40103 0.09700
H 	H 	0.08881 0.89626 0.34334 0.09500
C 	C 	0.20560 0.38061 0.60125 0.30000
C 	C 	0.20569 0.31509 0.63554 -0.19800
C 	C 	0.23226 0.33266 0.67035 0.29500
C 	C 	0.24725 0.40907 0.67040 0.26200
C 	C 	0.23890 0.47038 0.63577 -0.12500
C 	C 	0.21851 0.45589 0.60117 0.26800
F 	F 	0.21335 0.51621 0.56747 -0.31500
F 	F 	0.18710 0.36846 0.56762 -0.35600
F 	F 	0.27230 0.42470 0.70420 -0.35000
F 	F 	0.23804 0.27258 0.70403 -0.36700
C 	C 	0.48137 0.80010 0.57223 0.26500
C 	C 	0.46845 0.79958 0.60308 -0.11500
C 	C 	0.54746 0.86020 0.62624 0.27200
C 	C 	0.63931 0.90966 0.62239 0.31200
C 	C 	0.65256 0.89861 0.59543 -0.20500
C 	C 	0.57337 0.84746 0.56909 0.32300
F 	F 	0.58551 0.84248 0.54090 -0.33900
F 	F 	0.40471 0.74845 0.54728 -0.32400
F 	F 	0.71573 0.96533 0.64595 -0.37200
F 	F 	0.53591 0.86531 0.65458 -0.31600
C 	C 	0.12097 0.59803 0.66222 0.26400
C 	C 	0.21841 0.66526 0.66182 -0.11600
C 	C 	0.26446 0.75026 0.66758 0.26600
C 	C 	0.21011 0.77413 0.66473 0.30000
C 	C 	0.11010 0.71356 0.65592 -0.19000
C 	C 	0.06808 0.62164 0.66098 0.29800
F 	F 	0.97273 0.55836 0.65836 -0.32600
F 	F 	0.07624 0.51181 0.66152 -0.34100
F 	F 	0.25383 0.85982 0.66573 -0.34500
F 	F 	0.36096 0.81106 0.67410 -0.30900
C 	C 	0.21012 0.36300 0.12033 0.29500
C 	C 	0.20759 0.28758 0.14835 -0.19200
C 	C 	0.24600 0.29038 0.18705 0.29600
C 	C 	0.27287 0.36082 0.19784 0.26400
C 	C 	0.26458 0.43078 0.16997 -0.13400
C 	C 	0.23595 0.43312 0.13104 0.27000
F 	F 	0.23471 0.50411 0.10362 -0.32300
F 	F 	0.18176 0.36551 0.08271 -0.34300
F 	F 	0.30689 0.36104 0.23542 -0.35000
F 	F 	0.24984 0.22070 0.21446 -0.36700
C 	C 	0.60659 0.72901 0.18929 0.26300
C 	C 	0.53172 0.73771 0.17317 -0.12800
C 	C 	0.53337 0.80445 0.13891 0.27000
C 	C 	0.60288 0.85413 0.11896 0.30100
C 	C 	0.67171 0.83807 0.13320 -0.19600
C 	C 	0.67426 0.77641 0.16889 0.29500
F 	F 	0.74182 0.76172 0.18367 -0.37900
F 	F 	0.60916 0.66880 0.22346 -0.34500
F 	F 	0.60096 0.91520 0.08503 -0.33200
F 	F 	0.46350 0.81634 0.12351 -0.32700
C 	C 	0.21302 0.68365 0.12628 0.27900
C 	C 	0.23003 0.64455 0.16547 -0.12600
C 	C 	0.19751 0.64400 0.18940 0.27200
C 	C 	0.14478 0.67964 0.17357 0.30700
C 	C 	0.12618 0.71744 0.13389 -0.18600
C 	C 	0.16286 0.72058 0.11059 0.30400
F 	F 	0.14483 0.75473 0.07211 -0.38600
F 	F 	0.24515 0.68549 0.10306 -0.31200
F 	F 	0.10937 0.67448 0.19653 -0.34700
F 	F 	0.21581 0.60819 0.22770 -0.34200
C 	C 	0.74159 0.20578 0.49352 0.26300
C 	C 	0.78005 0.29167 0.49568 -0.11600
C 	C 	0.87907 0.36053 0.49872 0.26300
C 	C 	0.93932 0.33859 0.50668 0.30700
C 	C 	0.90186 0.24808 0.51221 -0.19400
C 	C 	0.80260 0.18454 0.50153 0.29600
F 	F 	0.76512 0.09954 0.50220 -0.36200
F 	F 	0.64568 0.14259 0.48433 -0.34500
F 	F 	0.03517 0.40343 0.51283 -0.32400
F 	F 	0.91745 0.44782 0.49511 -0.34000
C 	C 	0.79602 0.56503 0.55690 0.29500
C 	C 	0.79758 0.63708 0.52603 -0.19100
C 	C 	0.76470 0.62905 0.48844 0.29700
C 	C 	0.74116 0.55504 0.48191 0.27000
C 	C 	0.74736 0.48691 0.51286 -0.13100
C 	C 	0.77329 0.49144 0.55039 0.27000
F 	F 	0.77485 0.42347 0.58056 -0.33700
F 	F 	0.82227 0.56909 0.59337 -0.34500
F 	F 	0.71081 0.54871 0.44547 -0.34200
F 	F 	0.76119 0.69603 0.45823 -0.35500
C 	C 	0.40398 0.05053 0.57131 0.26800
C 	C 	0.33694 0.06979 0.55526 -0.18800
C 	C 	0.34078 0.13452 0.52016 0.28500
C 	C 	0.41071 0.17946 0.50146 0.26300
C 	C 	0.48452 0.16867 0.51970 -0.13100
C 	C 	0.47788 0.10021 0.55369 0.27600
F 	F 	0.54676 0.08644 0.57106 -0.35000
F 	F 	0.39938 0.98593 0.60463 -0.30500
F 	F 	0.41284 0.24117 0.46729 -0.35000
F 	F 	0.27727 0.15466 0.50433 -0.39400
C 	C 	0.79421 0.17089 0.00191 0.29100
C 	C 	0.89230 0.22410 0.01841 -0.19300
C 	C 	0.93772 0.31494 0.01670 0.30600
C 	C 	0.88334 0.34440 0.00751 0.25300
C 	C 	0.78298 0.28436 0.99786 -0.10300
C 	C 	0.73964 0.20128 0.99126 0.26900
F 	F 	0.64406 0.14768 0.97672 -0.32700
F 	F 	0.75013 0.08570 0.00015 -0.36100
F 	F 	0.92803 0.42869 0.01048 -0.33400
F 	F 	0.03413 0.37131 0.02810 -0.32600
C 	C 	0.77744 0.49086 0.04544 0.27400
C 	C 	0.74614 0.48468 0.00768 -0.13300
C 	C 	0.73055 0.54811 0.97734 0.27300
C 	C 	0.74881 0.61853 0.98461 0.30200
C 	C 	0.78531 0.62766 0.02228 -0.19600
C 	C 	0.79270 0.55940 0.05274 0.29800
F 	F 	0.81993 0.56238 0.08949 -0.35700
F 	F 	0.78880 0.42752 0.07520 -0.33400
F 	F 	0.73628 0.68118 0.95488 -0.35500
F 	F 	0.69543 0.54016 0.94086 -0.34900
C 	C 	0.50505 0.17339 0.06726 0.25800
C 	C 	0.51064 0.16391 0.03727 -0.12600
C 	C 	0.43136 0.09115 0.02020 0.26400
C 	C 	0.34435 0.03469 0.02991 0.28600
C 	C 	0.33598 0.05138 0.05655 -0.23100
C 	C 	0.41757 0.11832 0.07640 0.31200
F 	F 	0.41208 0.13010 0.10443 -0.36300
F 	F 	0.58366 0.23928 0.08611 -0.33500
F 	F 	0.26713 0.96596 0.01235 -0.34600
F 	F 	0.43696 0.07906 0.99230 -0.33000
