data_crystal

_cell_length_a 31.56563
_cell_length_b 28.79741
_cell_length_c 20.80973
_cell_angle_alpha 89.99966
_cell_angle_beta  90.00057
_cell_angle_gamma 90.00186

_symmetry_space_group_name_	'P 1'
_symmetry_space_group_name_H-M	'P 1'

loop_
_symmetry_equiv_pos_as_xyz
  x,y,z

loop_
_atom_site_label
_atom_site_type_symbol
_atom_site_fract_x
_atom_site_fract_y
_atom_site_fract_z
_atom_site_charge
Cu	Cu	0.12627 0.81512 0.32418 0.94400
Cu	Cu	0.17019 0.72645 0.25043 0.89900
Cu	Cu	0.15247 0.81638 0.18402 0.92400
Cu	Cu	0.13150 0.90828 0.24410 0.94200
C 	C 	0.13706 0.90357 0.38646 0.28800
O 	O 	0.06512 0.83441 0.31104 -0.28200
C 	C 	0.15888 0.73048 0.11254 0.28900
O 	O 	0.16337 0.85360 0.25890 -0.63300
O 	O 	0.12588 0.77408 0.24822 -0.63000
O 	O 	0.14582 0.76822 0.38747 -0.29600
O 	O 	0.20121 0.74475 0.32551 -0.35800
O 	O 	0.12038 0.92390 0.33568 -0.26200
O 	O 	0.18165 0.85704 0.12509 -0.27100
C 	C 	0.17118 0.90076 0.11597 0.30300
C 	C 	0.05105 0.85144 0.25643 0.28400
O 	O 	0.07788 0.86661 0.21297 -0.28900
O 	O 	0.16200 0.92804 0.16493 -0.29900
O 	O 	0.13714 0.85796 0.39240 -0.25700
C 	C 	0.18285 0.74805 0.38202 0.30400
O 	O 	0.14494 0.77364 0.11253 -0.27100
O 	O 	0.15607 0.70461 0.16488 -0.34700
H 	H 	0.19376 0.85841 0.26864 0.21600
H 	H 	0.09765 0.76259 0.23490 0.20700
Cu	Cu	0.28993 0.59210 0.83133 0.94300
Cu	Cu	0.21685 0.65312 0.75502 0.90100
Cu	Cu	0.27119 0.58393 0.68878 0.92300
Cu	Cu	0.32693 0.51112 0.74629 0.92800
C 	C 	0.31882 0.50678 0.88768 0.31200
O 	O 	0.35237 0.60572 0.82134 -0.32600
C 	C 	0.23622 0.66198 0.61854 0.30000
O 	O 	0.27498 0.54231 0.76098 -0.62900
O 	O 	0.27554 0.63209 0.75726 -0.63100
O 	O 	0.25353 0.62259 0.89669 -0.30200
O 	O 	0.19564 0.62484 0.83152 -0.33200
O 	O 	0.34357 0.50169 0.83727 -0.32800
O 	O 	0.26444 0.53604 0.62408 -0.25500
C 	C 	0.29053 0.50070 0.61637 0.29800
C 	C 	0.37204 0.60341 0.76565 0.28500
O 	O 	0.35708 0.57619 0.72018 -0.31200
O 	O 	0.30837 0.47998 0.66600 -0.29100
O 	O 	0.29683 0.54527 0.89610 -0.28400
C 	C 	0.21345 0.63268 0.88756 0.31300
O 	O 	0.26552 0.62931 0.62023 -0.27600
O 	O 	0.22361 0.68292 0.67190 -0.34400
H 	H 	0.24995 0.52210 0.76733 0.24900
H 	H 	0.29637 0.65673 0.74712 0.22100
Cu	Cu	0.36074 0.30763 0.17897 0.94500
Cu	Cu	0.32365 0.21730 0.25625 0.92600
Cu	Cu	0.33300 0.31360 0.31924 0.92400
Cu	Cu	0.35419 0.40396 0.24963 0.93400
C 	C 	0.35011 0.39226 0.10820 0.29500
O 	O 	0.42098 0.32928 0.19057 -0.29800
C 	C 	0.32819 0.22629 0.39134 0.29300
O 	O 	0.32306 0.34809 0.24083 -0.62800
O 	O 	0.36216 0.27032 0.25811 -0.62800
O 	O 	0.34316 0.25739 0.12035 -0.31600
O 	O 	0.28930 0.23188 0.18335 -0.31800
O 	O 	0.36692 0.41453 0.15726 -0.29500
O 	O 	0.30689 0.35854 0.37702 -0.31800
C 	C 	0.31564 0.40340 0.37772 0.30700
C 	C 	0.43518 0.34667 0.24490 0.28600
O 	O 	0.40856 0.36565 0.28593 -0.27900
O 	O 	0.32057 0.42646 0.32359 -0.29000
O 	O 	0.34858 0.34655 0.10691 -0.29000
C 	C 	0.30613 0.23746 0.12620 0.29700
O 	O 	0.33494 0.27159 0.39352 -0.30400
O 	O 	0.34098 0.20181 0.34163 -0.29400
H 	H 	0.29280 0.35204 0.22956 0.22000
H 	H 	0.39107 0.26178 0.27219 0.23500
Cu	Cu	0.18344 0.10118 0.67702 0.94100
Cu	Cu	0.25040 0.16781 0.75349 0.93700
Cu	Cu	0.20787 0.08711 0.81722 0.92000
Cu	Cu	0.16365 0.00816 0.75074 0.94200
C 	C 	0.16622 0.01665 0.60915 0.30800
O 	O 	0.12010 0.10158 0.69336 -0.31200
C 	C 	0.23801 0.16608 0.88999 0.30200
O 	O 	0.20879 0.05032 0.73908 -0.62700
O 	O 	0.19488 0.13784 0.75497 -0.62500
O 	O 	0.21386 0.14215 0.61578 -0.30800
O 	O 	0.27348 0.14227 0.67659 -0.31000
O 	O 	0.14494 0.00301 0.66009 -0.29300
O 	O 	0.21795 0.03734 0.87946 -0.26600
C 	C 	0.20103 0.99545 0.87701 0.29700
C 	C 	0.10362 0.08980 0.74917 0.28600
O 	O 	0.12556 0.06428 0.78964 -0.31800
O 	O 	0.19206 0.97567 0.82176 -0.30200
O 	O 	0.18169 0.05908 0.60572 -0.29300
C 	C 	0.25462 0.14988 0.62145 0.30300
O 	O 	0.21267 0.12969 0.88937 -0.30700
O 	O 	0.24254 0.19241 0.83863 -0.30900
H 	H 	0.23659 0.03630 0.72858 0.24000
H 	H 	0.17148 0.15838 0.76901 0.20800
Cu	Cu	0.69564 0.38276 0.33842 0.94500
Cu	Cu	0.75912 0.31912 0.24991 0.90200
Cu	Cu	0.71416 0.40150 0.19754 0.92400
Cu	Cu	0.66815 0.47610 0.27314 0.92400
C 	C 	0.67554 0.46272 0.41509 0.30100
O 	O 	0.63205 0.37955 0.33007 -0.29500
C 	C 	0.73815 0.32395 0.11469 0.29900
O 	O 	0.71580 0.43620 0.27720 -0.63000
O 	O 	0.70387 0.34868 0.25733 -0.63200
O 	O 	0.72997 0.34159 0.39369 -0.30500
O 	O 	0.78634 0.34171 0.32570 -0.34300
O 	O 	0.65348 0.47884 0.36614 -0.30600
O 	O 	0.72243 0.45420 0.14054 -0.25900
C 	C 	0.70002 0.49281 0.14315 0.29900
C 	C 	0.61232 0.38992 0.27626 0.28700
O 	O 	0.62932 0.41993 0.23614 -0.30400
O 	O 	0.68959 0.51162 0.19862 -0.30500
O 	O 	0.69617 0.42300 0.41158 -0.28300
C 	C 	0.77021 0.33373 0.38282 0.30500
O 	O 	0.71539 0.36220 0.12108 -0.27000
O 	O 	0.74622 0.29693 0.16459 -0.34300
H 	H 	0.74319 0.45156 0.28641 0.22700
H 	H 	0.68002 0.32851 0.24410 0.22800
Cu	Cu	0.84932 0.16859 0.83181 0.94700
Cu	Cu	0.80368 0.25096 0.74771 0.90400
Cu	Cu	0.82673 0.15964 0.69075 0.92000
Cu	Cu	0.84915 0.07241 0.75933 0.92100
C 	C 	0.84393 0.08248 0.90108 0.30100
O 	O 	0.91119 0.15138 0.82160 -0.27400
C 	C 	0.82143 0.24218 0.61156 0.29800
O 	O 	0.81482 0.12573 0.76851 -0.63300
O 	O 	0.84981 0.20595 0.75264 -0.63200
O 	O 	0.82693 0.21745 0.88993 -0.29900
O 	O 	0.77218 0.23558 0.82328 -0.34100
O 	O 	0.86210 0.06206 0.85157 -0.29900
O 	O 	0.80092 0.11529 0.63229 -0.25700
C 	C 	0.80975 0.07052 0.63062 0.29500
C 	C 	0.92646 0.13401 0.76791 0.30100
O 	O 	0.90059 0.11579 0.72532 -0.34900
O 	O 	0.81884 0.04724 0.68341 -0.30600
O 	O 	0.83892 0.12798 0.90297 -0.28500
C 	C 	0.78983 0.23677 0.88044 0.30200
O 	O 	0.83654 0.19962 0.61690 -0.28400
O 	O 	0.81989 0.27008 0.66202 -0.34200
H 	H 	0.78439 0.11992 0.77677 0.23300
H 	H 	0.87778 0.21851 0.73995 0.24500
Cu	Cu	0.78816 0.88043 0.17883 0.94600
Cu	Cu	0.71822 0.81594 0.25678 0.89700
Cu	Cu	0.76521 0.89129 0.31973 0.91400
Cu	Cu	0.82130 0.96496 0.26160 0.93500
C 	C 	0.81465 0.96577 0.12011 0.30700
O 	O 	0.85114 0.86933 0.19043 -0.29500
C 	C 	0.74077 0.81088 0.39327 0.29200
O 	O 	0.77059 0.93166 0.24627 -0.62700
O 	O 	0.77490 0.84205 0.25441 -0.63700
O 	O 	0.75114 0.84766 0.11590 -0.28900
O 	O 	0.69401 0.84581 0.18317 -0.35900
O 	O 	0.83880 0.97276 0.17075 -0.32300
O 	O 	0.75921 0.93956 0.38449 -0.32800
C 	C 	0.78584 0.97456 0.39079 0.30900
C 	C 	0.87033 0.87605 0.24579 0.29700
O 	O 	0.85163 0.90087 0.29052 -0.30400
O 	O 	0.80039 0.99655 0.33991 -0.29100
O 	O 	0.79435 0.92607 0.11229 -0.26800
C 	C 	0.71042 0.84095 0.12542 0.30500
O 	O 	0.76629 0.84699 0.38912 -0.30000
O 	O 	0.72738 0.78853 0.34138 -0.31400
H 	H 	0.74529 0.95091 0.23720 0.23200
H 	H 	0.79719 0.81967 0.26710 0.25700
Cu	Cu	0.63067 0.66584 0.68810 0.94500
Cu	Cu	0.67026 0.75921 0.75950 0.92900
Cu	Cu	0.65901 0.66723 0.82838 0.92700
Cu	Cu	0.62363 0.57598 0.77500 0.93000
C 	C 	0.63796 0.57426 0.63485 0.29900
O 	O 	0.56799 0.65373 0.69562 -0.31400
C 	C 	0.65545 0.75777 0.89487 0.30300
O 	O 	0.66158 0.62517 0.75759 -0.63300
O 	O 	0.63061 0.70809 0.76332 -0.62500
O 	O 	0.65571 0.70874 0.62378 -0.28800
O 	O 	0.70586 0.73715 0.69200 -0.34500
O 	O 	0.61557 0.55810 0.68352 -0.32900
O 	O 	0.68452 0.62374 0.88707 -0.30500
C 	C 	0.66688 0.58382 0.90275 0.31200
C 	C 	0.54959 0.64201 0.74987 0.28400
O 	O 	0.57230 0.62409 0.79681 -0.27700
O 	O 	0.64950 0.55665 0.85874 -0.28900
O 	O 	0.63977 0.61937 0.62336 -0.28700
C 	C 	0.69096 0.73180 0.63353 0.31000
O 	O 	0.67032 0.71491 0.89403 -0.29900
O 	O 	0.64864 0.78044 0.84072 -0.32600
H 	H 	0.69078 0.61510 0.74728 0.23200
H 	H 	0.60201 0.71797 0.77722 0.24200
C 	C 	0.66564 0.78112 0.07261 0.06700
C 	C 	0.68346 0.82570 0.07129 0.01500
C 	C 	0.68054 0.85244 0.01444 -0.07900
C 	C 	0.66912 0.83048 0.95660 0.06600
C 	C 	0.65584 0.78390 0.95648 0.03200
C 	C 	0.64915 0.76112 0.01616 -0.08500
C 	C 	0.62552 0.71537 0.02024 0.78400
H 	H 	0.66584 0.76140 0.11700 0.08200
H 	H 	0.67222 0.84904 0.91155 0.10900
C 	C 	0.69039 0.90386 0.01485 0.78300
F 	F 	0.60495 0.71155 0.07876 -0.38500
F 	F 	0.65390 0.67902 0.01462 -0.41000
F 	F 	0.59522 0.71199 0.97238 -0.36800
F 	F 	0.73363 0.91034 0.00959 -0.40400
F 	F 	0.67602 0.92390 0.07121 -0.38000
F 	F 	0.67069 0.92621 0.96408 -0.37800
C 	C 	0.70465 0.81688 0.49814 0.06300
C 	C 	0.73149 0.79176 0.45733 0.01800
C 	C 	0.75103 0.75051 0.47964 -0.06500
C 	C 	0.73955 0.73275 0.54026 0.06000
C 	C 	0.71064 0.75653 0.57940 0.02400
C 	C 	0.69509 0.80041 0.56001 -0.08400
C 	C 	0.66672 0.82867 0.60409 0.78000
H 	H 	0.69089 0.84913 0.48123 0.09200
H 	H 	0.75201 0.69968 0.55626 0.13800
C 	C 	0.78265 0.72444 0.43811 0.78000
F 	F 	0.66121 0.87351 0.58158 -0.39100
F 	F 	0.68452 0.83147 0.66470 -0.45500
F 	F 	0.62740 0.80771 0.60851 -0.42300
F 	F 	0.81313 0.75458 0.41484 -0.37200
F 	F 	0.76175 0.70399 0.38705 -0.39400
F 	F 	0.80321 0.68997 0.47247 -0.37100
C 	C 	0.75634 0.01235 0.48831 0.07700
C 	C 	0.79174 0.99582 0.45457 0.01400
C 	C 	0.83278 0.00114 0.48103 -0.06600
C 	C 	0.83789 0.02745 0.53735 0.06300
C 	C 	0.80264 0.04446 0.57074 0.04000
C 	C 	0.76125 0.03498 0.54785 -0.06600
C 	C 	0.72244 0.04970 0.58586 0.78300
H 	H 	0.72505 0.00795 0.46777 0.11300
H 	H 	0.86939 0.03461 0.55560 0.10500
C 	C 	0.87125 0.97970 0.44866 0.77200
F 	F 	0.68584 0.02976 0.56170 -0.37800
F 	F 	0.71813 0.09740 0.58307 -0.36200
F 	F 	0.72634 0.03613 0.64937 -0.39400
F 	F 	0.88160 0.00508 0.39449 -0.40900
F 	F 	0.86285 0.93427 0.43115 -0.41500
F 	F 	0.90599 0.97922 0.48929 -0.38000
C 	C 	0.79869 0.05691 0.99154 0.06300
C 	C 	0.83814 0.05568 0.96064 0.02700
C 	C 	0.87069 0.02663 0.98496 -0.06800
C 	C 	0.86068 0.99414 0.03280 0.06000
C 	C 	0.82137 0.99558 0.06395 0.02700
C 	C 	0.79092 0.02910 0.04577 -0.06600
C 	C 	0.75180 0.03739 0.08659 0.78000
H 	H 	0.77395 0.07904 0.97273 0.14200
H 	H 	0.88411 0.96881 0.04775 0.11200
C 	C 	0.91595 0.02984 0.96037 0.78300
F 	F 	0.72628 0.07196 0.06130 -0.36900
F 	F 	0.76390 0.05063 0.14781 -0.42400
F 	F 	0.72820 0.99714 0.09050 -0.37800
F 	F 	0.92686 0.07539 0.94701 -0.40400
F 	F 	0.92016 0.00335 0.90533 -0.39400
F 	F 	0.94426 0.01344 0.00585 -0.37800
C 	C 	0.71713 0.55907 0.98789 0.07500
C 	C 	0.67515 0.56443 0.96700 0.03900
C 	C 	0.64137 0.55028 0.00718 -0.07300
C 	C 	0.65042 0.52554 0.06363 0.06700
C 	C 	0.69233 0.51926 0.08391 0.03400
C 	C 	0.72600 0.53881 0.04793 -0.06700
C 	C 	0.77123 0.53779 0.07283 0.78200
H 	H 	0.74283 0.57045 0.95714 0.11400
H 	H 	0.62484 0.51107 0.09206 0.11900
C 	C 	0.59575 0.56125 0.98988 0.79200
F 	F 	0.79682 0.56844 0.03935 -0.38500
F 	F 	0.78770 0.49361 0.06603 -0.35900
F 	F 	0.77240 0.55037 0.13699 -0.39300
F 	F 	0.58252 0.53238 0.94073 -0.39300
F 	F 	0.59231 0.60698 0.97036 -0.36100
F 	F 	0.56897 0.55509 0.04189 -0.37000
C 	C 	0.61908 0.51111 0.55927 0.06500
C 	C 	0.64978 0.54181 0.58312 0.01800
C 	C 	0.69155 0.54048 0.55818 -0.07900
C 	C 	0.70007 0.51269 0.50411 0.06300
C 	C 	0.66869 0.48375 0.47845 0.02600
C 	C 	0.62889 0.48020 0.50931 -0.07800
C 	C 	0.59608 0.44509 0.48712 0.78200
H 	H 	0.58735 0.51178 0.57919 0.10900
H 	H 	0.73068 0.51461 0.48065 0.11800
C 	C 	0.72668 0.56942 0.58779 0.78400
F 	F 	0.56540 0.43800 0.53365 -0.38600
F 	F 	0.61502 0.40271 0.47466 -0.41000
F 	F 	0.57652 0.46103 0.43192 -0.40700
F 	F 	0.72656 0.56456 0.65392 -0.44000
F 	F 	0.72079 0.61559 0.57213 -0.42700
F 	F 	0.76615 0.55578 0.56573 -0.38200
C 	C 	0.78446 0.30723 0.94797 0.07200
C 	C 	0.76952 0.26270 0.93315 0.01000
C 	C 	0.73939 0.24114 0.97363 -0.06600
C 	C 	0.72862 0.26238 0.03236 0.05600
C 	C 	0.74590 0.30555 0.04944 0.03200
C 	C 	0.77278 0.32921 0.00576 -0.09200
C 	C 	0.78766 0.37841 0.01941 0.78600
H 	H 	0.80623 0.32411 0.91518 0.09100
H 	H 	0.70732 0.24508 0.06543 0.11900
C 	C 	0.71939 0.19525 0.95474 0.78400
F 	F 	0.81677 0.39359 0.97429 -0.38400
F 	F 	0.80677 0.38073 0.07917 -0.41600
F 	F 	0.75326 0.40810 0.01796 -0.39500
F 	F 	0.75017 0.16120 0.95274 -0.42300
F 	F 	0.70091 0.19921 0.89473 -0.39400
F 	F 	0.68838 0.18156 0.99783 -0.37400
C 	C 	0.78437 0.26036 0.43928 0.06600
C 	C 	0.79453 0.30720 0.43053 0.00800
C 	C 	0.82010 0.33017 0.47628 -0.07100
C 	C 	0.83046 0.30729 0.53399 0.06000
C 	C 	0.81537 0.26224 0.54655 0.02700
C 	C 	0.79190 0.23835 0.49846 -0.08500
C 	C 	0.77415 0.19001 0.51015 0.78500
H 	H 	0.76722 0.24231 0.40171 0.08500
H 	H 	0.84904 0.32505 0.57023 0.11600
C 	C 	0.83386 0.38006 0.46563 0.78000
F 	F 	0.74518 0.17745 0.46329 -0.39700
F 	F 	0.75342 0.18829 0.56866 -0.41200
F 	F 	0.80680 0.15803 0.50930 -0.41500
F 	F 	0.79942 0.40924 0.47324 -0.40800
F 	F 	0.84995 0.38527 0.40421 -0.39400
F 	F 	0.86507 0.39325 0.50866 -0.38400
C 	C 	0.04557 0.14733 0.75489 0.06300
C 	C 	0.05888 0.10116 0.76261 0.01800
C 	C 	0.02835 0.06572 0.77325 -0.06900
C 	C 	0.98515 0.07760 0.77502 0.06700
C 	C 	0.97193 0.12333 0.76413 0.02200
C 	C 	0.00221 0.15868 0.75371 -0.07200
C 	C 	0.98834 0.20833 0.74093 0.77600
H 	H 	0.06916 0.17418 0.74771 0.09700
H 	H 	0.96154 0.05126 0.78509 0.11300
C 	C 	0.04158 0.01551 0.78380 0.78400
F 	F 	0.02219 0.23659 0.72480 -0.39200
F 	F 	0.96928 0.22636 0.79531 -0.41100
F 	F 	0.95976 0.20929 0.69054 -0.42700
F 	F 	0.06392 0.01182 0.84075 -0.40700
F 	F 	0.06660 0.00044 0.73341 -0.43900
F 	F 	0.00694 0.98612 0.78753 -0.37900
C 	C 	0.50605 0.36380 0.19897 0.06300
C 	C 	0.48135 0.35300 0.25315 0.03200
C 	C 	0.50129 0.34786 0.31371 -0.07100
C 	C 	0.54361 0.36211 0.32061 0.06600
C 	C 	0.56829 0.37334 0.26644 0.02800
C 	C 	0.55009 0.36949 0.20432 -0.07700
C 	C 	0.57697 0.37046 0.14376 0.78500
H 	H 	0.49100 0.36708 0.15236 0.14100
H 	H 	0.55744 0.36427 0.36819 0.14200
C 	C 	0.47812 0.32719 0.37092 0.78300
F 	F 	0.55629 0.34864 0.09343 -0.38100
F 	F 	0.61495 0.34745 0.15321 -0.44200
F 	F 	0.58482 0.41597 0.12617 -0.40700
F 	F 	0.45255 0.29063 0.35206 -0.43700
F 	F 	0.45363 0.36094 0.39992 -0.37100
F 	F 	0.50649 0.31019 0.41592 -0.38000
C 	C 	0.26960 0.14492 0.50493 0.06800
C 	C 	0.27919 0.16501 0.56456 0.02800
C 	C 	0.30795 0.20291 0.56746 -0.07500
C 	C 	0.32700 0.21876 0.51033 0.06500
C 	C 	0.31371 0.20204 0.45024 0.02800
C 	C 	0.28372 0.16528 0.44739 -0.07800
C 	C 	0.26644 0.14768 0.38361 0.78000
H 	H 	0.24912 0.11474 0.50337 0.12900
H 	H 	0.35117 0.24544 0.51230 0.12400
C 	C 	0.31845 0.22662 0.63080 0.78000
F 	F 	0.23151 0.11928 0.39237 -0.39500
F 	F 	0.29730 0.12225 0.35222 -0.41400
F 	F 	0.25380 0.18442 0.34527 -0.45300
F 	F 	0.34223 0.19703 0.66871 -0.39600
F 	F 	0.28167 0.23872 0.66287 -0.44600
F 	F 	0.34161 0.26691 0.62146 -0.38800
C 	C 	0.31048 0.18553 0.03203 0.05800
C 	C 	0.28627 0.21622 0.06931 0.02200
C 	C 	0.24566 0.23033 0.04772 -0.08100
C 	C 	0.22966 0.21185 0.98995 0.07500
C 	C 	0.25464 0.18259 0.95176 0.02100
C 	C 	0.29553 0.16942 0.97253 -0.06500
C 	C 	0.32444 0.14126 0.92900 0.77800
H 	H 	0.34170 0.17552 0.04867 0.10900
H 	H 	0.19806 0.22087 0.97390 0.11200
C 	C 	0.21942 0.26491 0.08593 0.78400
F 	F 	0.36165 0.12875 0.95967 -0.37400
F 	F 	0.33468 0.16732 0.87538 -0.40500
F 	F 	0.30430 0.10101 0.90953 -0.39700
F 	F 	0.24308 0.30424 0.09908 -0.42800
F 	F 	0.20658 0.24479 0.14302 -0.39400
F 	F 	0.18362 0.27874 0.05257 -0.38600
C 	C 	0.47927 0.63395 0.69673 0.06200
C 	C 	0.50262 0.64178 0.75331 0.02300
C 	C 	0.48063 0.64818 0.81202 -0.08000
C 	C 	0.43761 0.63583 0.81534 0.06300
C 	C 	0.41489 0.62442 0.75930 0.01800
C 	C 	0.43496 0.62963 0.69880 -0.08300
C 	C 	0.40980 0.63232 0.63674 0.78500
H 	H 	0.49556 0.63135 0.65101 0.10800
H 	H 	0.42201 0.63453 0.86169 0.11100
C 	C 	0.50236 0.66759 0.87122 0.78700
F 	F 	0.43141 0.65823 0.59126 -0.39100
F 	F 	0.37098 0.65350 0.64666 -0.42900
F 	F 	0.40364 0.58812 0.61251 -0.41400
F 	F 	0.53235 0.70056 0.85476 -0.40700
F 	F 	0.52153 0.63183 0.90450 -0.35800
F 	F 	0.47327 0.68882 0.91143 -0.37800
C 	C 	0.27215 0.42087 0.47436 0.07000
C 	C 	0.30855 0.42993 0.43761 0.02300
C 	C 	0.33789 0.46415 0.45846 -0.06500
C 	C 	0.32932 0.48935 0.51481 0.06200
C 	C 	0.29404 0.47885 0.55278 0.04600
C 	C 	0.26459 0.44496 0.53211 -0.06700
C 	C 	0.22503 0.43478 0.57124 0.78200
H 	H 	0.24971 0.39509 0.45767 0.11300
H 	H 	0.35074 0.51658 0.53021 0.12800
C 	C 	0.37755 0.47518 0.41988 0.77700
F 	F 	0.19987 0.40132 0.54250 -0.38500
F 	F 	0.20121 0.47483 0.57755 -0.36900
F 	F 	0.23632 0.41891 0.63160 -0.38900
F 	F 	0.36673 0.50125 0.36656 -0.40500
F 	F 	0.39742 0.43483 0.40029 -0.40100
F 	F 	0.40647 0.50028 0.45590 -0.37500
C 	C 	0.36741 0.47338 0.96834 0.07500
C 	C 	0.32629 0.47646 0.94330 0.01300
C 	C 	0.29368 0.44807 0.96852 -0.06500
C 	C 	0.30225 0.42017 0.02248 0.04700
C 	C 	0.34328 0.41775 0.04800 0.02900
C 	C 	0.37685 0.44191 0.01770 -0.08300
C 	C 	0.42258 0.43514 0.03858 0.78100
H 	H 	0.39223 0.49512 0.94850 0.10800
H 	H 	0.27694 0.40084 0.04536 0.12100
C 	C 	0.24979 0.44800 0.93869 0.77600
F 	F 	0.45039 0.44883 0.99072 -0.37700
F 	F 	0.43063 0.38889 0.05184 -0.40600
F 	F 	0.43053 0.46145 0.09283 -0.39700
F 	F 	0.25265 0.44033 0.87319 -0.41100
F 	F 	0.23057 0.49039 0.94944 -0.37600
F 	F 	0.22436 0.41357 0.96456 -0.37300
C 	C 	0.97836 0.81912 0.25489 0.06300
C 	C 	0.00501 0.85778 0.24736 0.03800
C 	C 	0.98706 0.90272 0.24005 -0.06800
C 	C 	0.94279 0.90760 0.24012 0.07300
C 	C 	0.91637 0.86917 0.24929 0.02700
C 	C 	0.93405 0.82447 0.25731 -0.06800
C 	C 	0.90574 0.78259 0.26828 0.77900
H 	H 	0.99235 0.78498 0.26020 0.10000
H 	H 	0.92859 0.94139 0.23225 0.09900
C 	C 	0.01471 0.94522 0.22927 0.78400
F 	F 	0.92894 0.74309 0.28238 -0.38300
F 	F 	0.88208 0.77409 0.21360 -0.40800
F 	F 	0.87867 0.79102 0.31925 -0.38500
F 	F 	0.03351 0.94246 0.16950 -0.38000
F 	F 	0.04566 0.94801 0.27593 -0.40900
F 	F 	0.99144 0.98594 0.23176 -0.38000
C 	C 	0.21992 0.94040 0.04053 0.06400
C 	C 	0.17970 0.92193 0.05307 0.04200
C 	C 	0.14767 0.92428 0.00574 -0.07000
C 	C 	0.15549 0.94882 0.94866 0.06800
C 	C 	0.19536 0.96842 0.93659 0.02600
C 	C 	0.22883 0.96165 0.98115 -0.06300
C 	C 	0.27349 0.97840 0.96719 0.78500
H 	H 	0.24427 0.93822 0.07714 0.11400
H 	H 	0.13035 0.95345 0.91377 0.12000
C 	C 	0.10454 0.90250 0.01734 0.77600
F 	F 	0.30280 0.95543 0.00516 -0.38200
F 	F 	0.27614 0.02537 0.98010 -0.37500
F 	F 	0.28430 0.97037 0.90371 -0.38200
F 	F 	0.08436 0.92580 0.06660 -0.38200
F 	F 	0.10913 0.85630 0.03408 -0.40300
F 	F 	0.07908 0.90457 0.96323 -0.36900
C 	C 	0.18579 0.93858 0.46584 0.06900
C 	C 	0.14418 0.93171 0.44426 0.04300
C 	C 	0.10996 0.95307 0.47691 -0.07000
C 	C 	0.11864 0.98455 0.52656 0.06800
C 	C 	0.16002 0.99057 0.54932 0.02300
C 	C 	0.19408 0.96719 0.51922 -0.06900
C 	C 	0.23908 0.97274 0.54392 0.78200
H 	H 	0.21162 0.92166 0.44079 0.12600
H 	H 	0.09295 0.00346 0.54918 0.12000
C 	C 	0.06427 0.94420 0.45735 0.78300
F 	F 	0.26752 0.94569 0.50977 -0.37400
F 	F 	0.24110 0.95958 0.60779 -0.41300
F 	F 	0.25142 0.01864 0.53838 -0.41200
F 	F 	0.05779 0.89781 0.44309 -0.38900
F 	F 	0.05458 0.97089 0.40418 -0.36400
F 	F 	0.03659 0.95587 0.50638 -0.37600
C 	C 	0.20072 0.67778 0.44486 0.06700
C 	C 	0.20246 0.72618 0.43886 0.01200
C 	C 	0.21881 0.75331 0.49000 -0.07000
C 	C 	0.22927 0.73155 0.54845 0.06300
C 	C 	0.22540 0.68327 0.55577 0.02900
C 	C 	0.21049 0.65595 0.50358 -0.08300
C 	C 	0.20622 0.60351 0.50927 0.78500
H 	H 	0.19008 0.65726 0.40430 0.08500
H 	H 	0.24020 0.75226 0.58866 0.11200
C 	C 	0.22210 0.80578 0.48466 0.77700
F 	F 	0.18158 0.58543 0.46023 -0.39600
F 	F 	0.18718 0.59142 0.56678 -0.41500
F 	F 	0.24593 0.58344 0.50574 -0.40800
F 	F 	0.18316 0.82525 0.49849 -0.41600
F 	F 	0.23460 0.81907 0.42363 -0.42600
F 	F 	0.25161 0.82317 0.52761 -0.38600
C 	C 	0.14987 0.66554 0.03449 0.04800
C 	C 	0.16916 0.70803 0.05030 0.03300
C 	C 	0.19893 0.72810 0.00722 -0.09200
C 	C 	0.20764 0.70562 0.94877 0.07400
C 	C 	0.19151 0.66133 0.93598 -0.00200
C 	C 	0.16063 0.64197 0.97733 -0.05900
C 	C 	0.13987 0.59588 0.96133 0.77900
H 	H 	0.12685 0.65067 0.06717 0.11400
H 	H 	0.22929 0.72130 0.91464 0.08100
C 	C 	0.22057 0.77403 0.02198 0.78100
F 	F 	0.10729 0.58539 0.00344 -0.38600
F 	F 	0.16965 0.56080 0.96462 -0.36800
F 	F 	0.12313 0.59743 0.89995 -0.38600
F 	F 	0.23370 0.77579 0.08537 -0.44400
F 	F 	0.19268 0.80995 0.00980 -0.40400
F 	F 	0.25612 0.78042 0.98401 -0.39800
