data_crystal

_cell_length_a 12.15669
_cell_length_b 12.45405
_cell_length_c 56.96855
_cell_angle_alpha 90.21974
_cell_angle_beta  90.22139
_cell_angle_gamma 119.42655

_symmetry_space_group_name_	'P 1'
_symmetry_space_group_name_H-M	'P 1'

loop_
_symmetry_equiv_pos_as_xyz
  x,y,z

loop_
_atom_site_label
_atom_site_type_symbol
_atom_site_fract_x
_atom_site_fract_y
_atom_site_fract_z
_atom_site_charge
C 	C 	0.13798 0.66849 0.09303 0.28300
C 	C 	0.12296 0.67180 0.16185 0.28800
Ni	Ni	0.18268 0.52106 0.12785 1.12200
O 	O 	0.14427 0.56777 0.09667 -0.37500
O 	O 	0.07750 0.58073 0.14594 -0.37600
O 	O 	0.16986 0.75313 0.10956 -0.36800
C 	C 	0.99626 0.79262 0.24872 0.30500
C 	C 	0.22288 0.21085 0.31626 0.31000
C 	C 	0.01221 0.81047 0.31772 0.29200
C 	C 	0.22461 0.20893 0.24906 0.28600
Ni	Ni	0.16747 0.00272 0.28260 1.10400
O 	O 	0.09191 0.83370 0.26411 -0.36200
O 	O 	0.27362 0.16782 0.30120 -0.37100
O 	O 	0.10423 0.18149 0.31449 -0.39400
O 	O 	0.11665 0.91471 0.31469 -0.36100
O 	O 	0.92832 0.76222 0.30072 -0.36500
O 	O 	0.23715 0.11040 0.25293 -0.37900
O 	O 	0.17945 0.25363 0.26553 -0.37400
O 	O 	0.01602 0.00587 0.27764 -0.73100
H 	H 	0.01400 0.00599 0.26035 0.14400
C 	C 	0.27777 0.27894 0.22714 -0.07200
C 	C 	0.26507 0.21364 0.20621 -0.02700
C 	C 	0.29325 0.27434 0.18462 0.04000
C 	C 	0.33788 0.40915 0.22654 0.03900
S 	S 	0.26799 0.18871 0.15855 -0.04500
S 	S 	0.39094 0.49828 0.25235 -0.03100
H 	H 	0.30215 0.52889 0.25932 0.03700
H 	H 	0.22594 0.11442 0.20659 0.04100
C 	C 	0.00627 0.74149 0.22599 -0.08800
C 	C 	0.97853 0.78491 0.20539 -0.01200
C 	C 	0.99511 0.74437 0.18348 0.04400
C 	C 	0.04508 0.66376 0.18204 -0.07500
C 	C 	0.05482 0.60670 0.20249 -0.02900
C 	C 	0.03703 0.64604 0.22454 0.04400
S 	S 	0.95812 0.79898 0.15785 -0.01800
H 	H 	0.06295 0.90374 0.15050 0.04400
H 	H 	0.94701 0.85254 0.20642 0.05000
C 	C 	0.08487 0.65473 0.03399 0.11700
C 	C 	0.13507 0.63001 0.01389 -0.07700
O 	O 	0.16254 0.73195 0.05169 -0.17700
C 	C 	0.08319 0.67954 0.07094 0.04000
H 	H 	0.90077 0.51593 0.07663 0.05300
O 	O 	0.21496 0.44885 0.15701 -0.38000
S 	S 	0.05372 0.57539 0.24994 -0.04000
H 	H 	0.08756 0.54001 0.20140 0.04400
H 	H 	0.44218 0.56545 0.30615 0.04000
C 	C 	0.06685 0.51365 0.00316 0.00600
H 	H 	0.17564 0.64136 0.25798 0.04100
H 	H 	0.95534 0.48408 0.30792 0.04700
C 	C 	0.53557 0.86766 0.16455 0.27400
C 	C 	0.33980 0.48215 0.09288 0.27700
C 	C 	0.53760 0.87461 0.09571 0.27100
C 	C 	0.32630 0.45922 0.16224 0.28600
Ni	Ni	0.49088 0.67095 0.12937 1.11500
Ni	Ni	0.32967 0.81587 0.12900 1.12200
O 	O 	0.55485 0.77391 0.15992 -0.36500
O 	O 	0.49433 0.91493 0.14795 -0.36300
O 	O 	0.44433 0.58539 0.09694 -0.35900
O 	O 	0.25526 0.42927 0.10951 -0.36400
O 	O 	0.22350 0.78053 0.15766 -0.38500
O 	O 	0.59055 0.83835 0.11170 -0.35000
O 	O 	0.42178 0.85397 0.09815 -0.36300
O 	O 	0.41989 0.50107 0.14674 -0.36400
O 	O 	0.33664 0.66867 0.13372 -0.71600
H 	H 	0.33399 0.66707 0.15099 0.14700
C 	C 	0.33705 0.40200 0.18390 -0.07200
C 	C 	0.36503 0.46941 0.20490 -0.02600
H 	H 	0.37560 0.18489 0.15301 0.03600
H 	H 	0.40414 0.56861 0.20438 0.04400
S 	S 	0.36709 0.80975 0.20863 -0.04300
H 	H 	0.31350 0.88405 0.20990 0.05000
S 	S 	0.06384 0.59141 0.31316 -0.04500
C 	C 	0.48972 0.05713 0.01150 0.08700
C 	C 	0.56006 0.10811 0.03212 -0.06300
C 	C 	0.58277 0.92630 0.03660 0.16000
C 	C 	0.51387 0.87630 0.01579 -0.09900
O 	O 	0.58395 0.85160 0.05452 -0.19000
C 	C 	0.60306 0.92897 0.07378 0.07200
C 	C 	0.55091 0.44134 0.03051 -0.08000
C 	C 	0.43416 0.40392 0.04139 0.01200
C 	C 	0.35406 0.44527 0.03366 0.12200
C 	C 	0.38417 0.51878 0.01355 -0.08300
O 	O 	0.27799 0.45120 0.05115 -0.18300
C 	C 	0.32635 0.41890 0.07052 0.04400
C 	C 	0.41524 0.38493 0.06456 -0.05300
H 	H 	0.48631 0.38898 0.07667 0.05200
H 	H 	0.61512 0.41166 0.03713 0.06400
H 	H 	0.60586 0.10374 0.07911 0.05000
C 	C 	0.59455 0.93988 0.18590 -0.02800
C 	C 	0.53213 0.90107 0.20757 0.01500
C 	C 	0.60851 0.04173 0.04410 -0.01800
C 	C 	0.62317 0.04440 0.06751 -0.07300
H 	H 	0.57828 0.19749 0.03841 0.05900
C 	C 	0.58150 0.51606 0.01057 0.12400
S 	S 	0.31965 0.49096 0.31290 -0.05300
C 	C 	0.72470 0.02180 0.18573 -0.06300
C 	C 	0.60192 0.93193 0.22851 0.02000
H 	H 	0.77268 0.05435 0.16910 0.05400
H 	H 	0.55333 0.89932 0.24507 0.04400
H 	H 	0.58007 0.94926 0.32230 0.04400
C 	C 	0.79569 0.04920 0.20648 0.05200
C 	C 	0.73428 0.00053 0.22809 -0.10400
C 	C 	0.80703 0.01540 0.24996 0.26500
O 	O 	0.75893 0.92656 0.26608 -0.35600
C 	C 	0.82418 0.00960 0.31952 0.28400
O 	O 	0.85489 0.09374 0.30312 -0.38000
S 	S 	0.96122 0.13491 0.20468 -0.04100
O 	O 	0.87273 0.34692 0.99340 -0.19000
H 	H 	0.80478 0.38680 0.03694 0.06600
O 	O 	0.90496 0.12529 0.25499 -0.37500
O 	O 	0.82958 0.90872 0.31541 -0.36900
Ni	Ni	0.86016 0.86056 0.28356 1.12700
O 	O 	0.88748 0.78769 0.25395 -0.37200
C 	C 	0.94829 0.42879 0.01074 0.13200
C 	C 	0.89651 0.45447 0.03048 -0.08300
C 	C 	0.29643 0.28729 0.33622 -0.08000
C 	C 	0.30724 0.22865 0.35641 -0.02100
C 	C 	0.32120 0.28345 0.37859 0.03600
C 	C 	0.32940 0.40016 0.38043 -0.07700
C 	C 	0.33328 0.46404 0.36004 -0.02100
C 	C 	0.31816 0.40899 0.33804 0.04000
H 	H 	0.29324 0.13585 0.35509 0.04200
H 	H 	0.34567 0.55612 0.36136 0.04700
C 	C 	0.04327 0.65420 0.33938 0.03200
C 	C 	0.99916 0.73956 0.33901 -0.06200
C 	C 	0.00764 0.74928 0.38168 0.02500
H 	H 	0.84389 0.69851 0.41415 0.03600
C 	C 	0.07036 0.67904 0.38172 -0.07000
S 	S 	0.38632 0.83726 0.35618 -0.01300
H 	H 	0.34510 0.72923 0.34398 0.03300
H 	H 	0.44824 0.23596 0.40877 0.03800
C 	C 	0.07688 0.62296 0.36071 -0.02500
H 	H 	0.11623 0.56145 0.36075 0.05000
C 	C 	0.55157 0.91079 0.35926 0.03200
C 	C 	0.61052 0.91672 0.38117 -0.07200
C 	C 	0.62557 0.96106 0.33926 0.00800
C 	C 	0.74284 0.98411 0.38281 0.00900
C 	C 	0.75694 0.01386 0.34054 -0.09300
C 	C 	0.81581 0.03481 0.36271 0.00700
S 	S 	0.98022 0.12803 0.36561 -0.01500
H 	H 	0.92870 0.83659 0.36006 0.05200
C 	C 	0.34383 0.46121 0.40323 0.30600
S 	S 	0.96167 0.79026 0.40801 0.00400
O 	O 	0.14841 0.56998 0.40508 -0.38300
C 	C 	0.13452 0.66737 0.40297 0.30000
C 	C 	0.53583 0.85398 0.40235 0.30300
O 	O 	0.43124 0.85726 0.40647 -0.38100
O 	O 	0.43907 0.57288 0.40619 -0.38900
S 	S 	0.32556 0.20412 0.40378 -0.03600
H 	H 	0.78913 0.99703 0.39971 0.05500
O 	O 	0.25227 0.41222 0.41870 -0.36700
O 	O 	0.58755 0.81871 0.41890 -0.37700
O 	O 	0.17645 0.75348 0.41945 -0.36600
Ni	Ni	0.18404 0.51355 0.43683 1.11300
Ni	Ni	0.34281 0.81410 0.43743 1.12300
Ni	Ni	0.49129 0.66122 0.43742 1.12100
O 	O 	0.33627 0.65993 0.44211 -0.71800
O 	O 	0.08519 0.58543 0.45553 -0.35400
O 	O 	0.42550 0.49861 0.45558 -0.35700
O 	O 	0.50607 0.90796 0.45653 -0.35400
H 	H 	0.33638 0.65990 0.45938 0.14400
C 	C 	0.33446 0.45887 0.47166 0.25100
O 	O 	0.22062 0.44174 0.46652 -0.35600
O 	O 	0.26140 0.28466 0.49876 -0.18800
C 	C 	0.34911 0.40701 0.49363 0.05300
C 	C 	0.13810 0.67538 0.47150 0.25300
C 	C 	0.54668 0.85606 0.47229 0.25200
O 	O 	0.56319 0.76151 0.46668 -0.36400
O 	O 	0.23801 0.78315 0.46654 -0.35600
O 	O 	0.03784 0.75638 0.49815 -0.18400
C 	C 	0.07180 0.66655 0.49333 0.05000
C 	C 	0.60094 0.91965 0.49450 0.05700
O 	O 	0.72595 0.95282 0.49984 -0.17800
C 	C 	0.39109 0.48192 0.51331 -0.06200
H 	H 	0.43132 0.58133 0.51271 0.05400
C 	C 	0.10294 0.62373 0.51319 -0.05900
C 	C 	0.52479 0.88949 0.51404 -0.05800
H 	H 	0.87565 0.89760 0.52602 0.07400
C 	C 	0.24247 0.29644 0.52241 0.10900
H 	H 	0.16205 0.58086 0.51291 0.05200
C 	C 	0.06631 0.77437 0.52192 0.12100
H 	H 	0.09946 0.96141 0.52328 0.08100
H 	H 	0.42286 0.83159 0.51336 0.05500
C 	C 	0.71468 0.92634 0.52363 0.11800
H 	H 	0.05477 0.13817 0.52407 0.05900
C 	C 	0.32195 0.41277 0.53141 0.02200
C 	C 	0.10136 0.69317 0.53121 0.01200
C 	C 	0.10960 0.89060 0.53238 -0.10300
C 	C 	0.59618 0.89198 0.53240 0.02300
C 	C 	0.12445 0.22161 0.53281 -0.08400
C 	C 	0.79101 0.88541 0.53456 -0.08300
C 	C 	0.18164 0.91847 0.55304 0.05300
H 	H 	0.27751 0.11746 0.55246 0.06300
C 	C 	0.74627 0.81364 0.55486 0.01400
H 	H 	0.85533 0.71922 0.55436 0.06000
H 	H 	0.88938 0.15535 0.55225 0.05100
C 	C 	0.28401 0.46061 0.55013 -0.09300
H 	H 	0.33703 0.55714 0.55468 0.07200
C 	C 	0.22395 0.84129 0.56136 0.10400
C 	C 	0.18472 0.72699 0.55046 -0.08200
C 	C 	0.26665 0.03298 0.55991 -0.09000
H 	H 	0.22609 0.67105 0.55551 0.07000
H 	H 	0.44953 0.77192 0.55628 0.07300
C 	C 	0.54754 0.81122 0.55149 -0.08900
C 	C 	0.62465 0.77205 0.56258 0.11900
C 	C 	0.77885 0.72967 0.56159 -0.05300
C 	C 	0.97448 0.23173 0.55952 -0.04800
C 	C 	0.09304 0.26523 0.55301 -0.00100
C 	C 	0.35892 0.02255 0.57205 0.02800
C 	C 	0.16808 0.38444 0.56090 0.12100
C 	C 	0.67556 0.63873 0.57295 0.04800
C 	C 	0.44952 0.12142 0.58740 0.27600
O 	O 	0.33645 0.90172 0.57409 -0.17100
O 	O 	0.56737 0.14493 0.58828 -0.37000
O 	O 	0.58522 0.43411 0.58835 -0.35600
O 	O 	0.57413 0.66122 0.57473 -0.19200
C 	C 	0.68328 0.54555 0.58746 0.27300
C 	C 	0.87831 0.32109 0.58617 0.27500
O 	O 	0.85963 0.41617 0.58844 -0.36800
C 	C 	0.98061 0.33194 0.57105 0.04700
O 	O 	0.10244 0.43254 0.57296 -0.19600
O 	O 	0.40825 0.17648 0.60177 -0.36200
O 	O 	0.82274 0.22512 0.60020 -0.37300
O 	O 	0.77516 0.58228 0.60307 -0.36100
Ni	Ni	0.52276 0.34040 0.61982 1.11500
Ni	Ni	0.66427 0.17642 0.61893 1.12000
O 	O 	0.66963 0.32925 0.62452 -0.71600
Ni	Ni	0.82955 0.47112 0.61978 1.12200
C 	C 	0.46053 0.13376 0.65382 0.29600
O 	O 	0.45139 0.23424 0.64986 -0.37100
O 	O 	0.49831 0.08451 0.63709 -0.37900
H 	H 	0.21664 0.95715 0.65594 0.04700
O 	O 	0.60264 0.50793 0.63823 -0.36100
H 	H 	0.67094 0.32817 0.64178 0.14800
C 	C 	0.69234 0.54064 0.65442 0.28400
O 	O 	0.76959 0.20313 0.64803 -0.38300
O 	O 	0.80033 0.54185 0.64985 -0.37400
O 	O 	0.92480 0.39904 0.63711 -0.37300
S 	S 	0.71768 0.79875 0.65078 -0.01000
H 	H 	0.94389 0.08240 0.64110 0.03600
H 	H 	0.84141 0.85075 0.64408 0.04600
C 	C 	0.39467 0.05806 0.67425 -0.11300
C 	C 	0.26430 0.97716 0.67283 0.03000
C 	C 	0.87415 0.30893 0.65277 0.28500
C 	C 	0.69700 0.71600 0.67691 0.03800
S 	S 	0.02972 0.83131 0.69112 -0.01500
C 	C 	0.19392 0.92909 0.69330 0.01800
C 	C 	0.68099 0.59594 0.67641 -0.06900
C 	C 	0.95049 0.31426 0.67323 -0.06300
C 	C 	0.70536 0.77363 0.69852 -0.01500
C 	C 	0.01681 0.24808 0.67333 0.03300
H 	H 	0.72773 0.86935 0.69894 0.05600
C 	C 	0.18436 0.96977 0.73580 0.33000
O 	O 	0.18042 0.07171 0.73940 -0.41400
O 	O 	0.14406 0.88301 0.75185 -0.38100
O 	O 	0.10224 0.23488 0.75374 -0.37500
H 	H 	0.10013 0.16502 0.69492 0.04700
C 	C 	0.25429 0.96345 0.71540 -0.03900
C 	C 	0.38658 0.02834 0.71647 -0.06300
C 	C 	0.45702 0.07796 0.69606 0.05400
S 	S 	0.62204 0.16960 0.69823 -0.05700
H 	H 	0.67690 0.09671 0.69607 0.04500
H 	H 	0.43397 0.05059 0.73340 0.04700
H 	H 	0.64070 0.43579 0.69695 0.04300
S 	S 	0.64558 0.50575 0.74509 -0.04400
H 	H 	0.75897 0.51955 0.75267 0.03000
H 	H 	0.89790 0.42791 0.69369 0.04500
C 	C 	0.65956 0.53039 0.69736 -0.02500
C 	C 	0.66827 0.58841 0.71890 0.04000
S 	S 	0.96105 0.40900 0.74147 -0.04200
C 	C 	0.94280 0.37116 0.69394 -0.03000
O 	O 	0.73599 0.84050 0.75393 -0.35700
C 	C 	0.98224 0.34571 0.71533 0.04700
C 	C 	0.70326 0.71429 0.71953 -0.07600
C 	C 	0.78051 0.79013 0.73918 0.31000
O 	O 	0.91068 0.08794 0.73980 -0.38600
C 	C 	0.03108 0.26382 0.71587 -0.08300
C 	C 	0.01611 0.19134 0.73701 0.30700
O 	O 	0.89791 0.81536 0.74051 -0.38700
C 	C 	0.05759 0.22385 0.69466 -0.01800
C 	C 	0.20082 0.96012 0.80416 0.30200
Ni	Ni	0.15835 0.12699 0.77118 1.11600
O 	O 	0.09352 0.85687 0.79974 -0.38400
O 	O 	0.25163 0.05112 0.78842 -0.40100
O 	O 	0.13812 0.20617 0.80066 -0.37600
C 	C 	0.41025 0.01342 0.82141 -0.06700
S 	S 	0.65290 0.10768 0.83722 -0.04700
H 	H 	0.45129 0.03752 0.80405 0.05400
H 	H 	0.70475 0.23262 0.83564 0.04400
S 	S 	0.47667 0.35374 0.83617 -0.03000
H 	H 	0.54931 0.29822 0.83751 0.04300
H 	H 	0.06707 0.51959 0.74607 0.04100
H 	H 	0.77368 0.45491 0.83438 0.04000
C 	C 	0.62878 0.59094 0.82199 -0.02500
H 	H 	0.61702 0.55210 0.80449 0.05200
C 	C 	0.78037 0.79688 0.80590 0.28000
Ni	Ni	0.85308 0.00441 0.77209 1.10000
O 	O 	0.77800 0.90069 0.80198 -0.35600
O 	O 	0.94013 0.17567 0.78978 -0.36800
O 	O 	0.82000 0.74690 0.78941 -0.37300
C 	C 	0.03480 0.21339 0.80532 0.27800
H 	H 	0.96920 0.39154 0.80463 0.05000
C 	C 	0.27934 0.96176 0.82421 -0.02900
C 	C 	0.48890 0.03969 0.84108 0.05800
C 	C 	0.57130 0.51299 0.84104 0.04000
C 	C 	0.70462 0.71843 0.82559 -0.06100
S 	S 	0.90143 0.52370 0.83740 -0.02500
C 	C 	0.96479 0.42518 0.84162 0.03500
C 	C 	0.03825 0.29142 0.82524 -0.07100
C 	C 	0.99095 0.37305 0.82212 -0.01700
C 	C 	0.43681 0.01773 0.86374 -0.12200
C 	C 	0.22629 0.91934 0.84663 0.01700
C 	C 	0.59373 0.56201 0.86395 -0.07800
C 	C 	0.70675 0.76868 0.84808 0.03000
S 	S 	0.06183 0.84145 0.85086 -0.02600
C 	C 	0.30579 0.94501 0.86615 0.02900
C 	C 	0.98310 0.39312 0.86437 -0.07000
C 	C 	0.07905 0.27903 0.84787 0.03500
H 	H 	0.01476 0.91496 0.84336 0.03600
C 	C 	0.50607 0.10576 0.88260 0.31900
S 	S 	0.15896 0.19519 0.85242 -0.03900
O 	O 	0.48997 0.20141 0.88492 -0.38700
C 	C 	0.60830 0.49184 0.88308 0.30800
O 	O 	0.71552 0.49204 0.88517 -0.38800
C 	C 	0.64773 0.68955 0.86694 -0.01600
S 	S 	0.78749 0.92871 0.85336 -0.01000
C 	C 	0.89431 0.37971 0.88293 0.30800
C 	C 	0.05378 0.33286 0.86722 -0.02500
H 	H 	0.26525 0.92103 0.88355 0.04000
O 	O 	0.51802 0.43527 0.89850 -0.36700
O 	O 	0.79399 0.27169 0.88569 -0.39500
H 	H 	0.87888 0.95592 0.87003 0.03400
H 	H 	0.09488 0.10235 0.86809 0.02000
O 	O 	0.56241 0.07714 0.89923 -0.38200
H 	H 	0.65746 0.72764 0.88447 0.04600
O 	O 	0.92365 0.46938 0.89823 -0.37600
H 	H 	0.07627 0.31561 0.88476 0.04200
O 	O 	0.43899 0.11684 0.93572 -0.36200
Ni	Ni	0.49616 0.28150 0.91701 1.11300
O 	O 	0.66613 0.32595 0.92256 -0.71500
Ni	Ni	0.71787 0.20662 0.91702 1.12000
Ni	Ni	0.79323 0.49129 0.91648 1.12200
H 	H 	0.22737 0.69695 0.00754 0.06700
H 	H 	0.13294 0.56251 0.96792 0.05800
C 	C 	0.51117 0.10201 0.95161 0.26300
C 	C 	0.46379 0.94176 0.00406 0.04300
O 	O 	0.48407 0.13025 0.99372 -0.17800
C 	C 	0.45924 0.05056 0.97459 0.02200
C 	C 	0.44372 0.93674 0.98080 -0.03600
H 	H 	0.49524 0.78688 0.00950 0.07300
H 	H 	0.45908 0.87707 0.96894 0.05800
C 	C 	0.50126 0.55698 0.00282 0.01200
H 	H 	0.32090 0.54976 0.00707 0.06600
O 	O 	0.50612 0.38245 0.94654 -0.35500
C 	C 	0.52212 0.57877 0.97976 -0.05500
H 	H 	0.45178 0.57495 0.96749 0.05700
C 	C 	0.60632 0.49077 0.95113 0.25700
O 	O 	0.62464 0.11881 0.94625 -0.36700
O 	O 	0.66002 0.51332 0.99324 -0.18600
C 	C 	0.61345 0.54799 0.97392 0.05100
H 	H 	0.66759 0.32723 0.93984 0.16200
O 	O 	0.68954 0.55446 0.93446 -0.36000
O 	O 	0.88207 0.30766 0.93553 -0.36700
O 	O 	0.88489 0.48999 0.94557 -0.36300
C 	C 	0.89977 0.39468 0.95122 0.25700
C 	C 	0.95360 0.39579 0.97422 0.05500
C 	C 	0.07127 0.49242 0.98017 -0.06000
C 	C 	0.96565 0.57009 0.04152 0.02000
H 	H 	0.00066 0.25794 0.20747 0.04300
Ni	Ni	0.01304 0.15450 0.28361 1.11600
C 	C 	0.97261 0.77908 0.36026 -0.01400
S 	S 	0.04678 0.19302 0.64697 -0.03300
O 	O 	0.99760 0.98933 0.77747 -0.69700
Ni	Ni	0.98762 0.83512 0.77127 1.12300
H 	H 	0.00008 0.98968 0.79478 0.15500
C 	C 	0.96340 0.58762 0.06473 -0.04600
H 	H 	0.03714 0.05687 0.36430 0.03100
H 	H 	0.00284 0.71082 0.69034 0.04200
