data_crystal

_cell_length_a 26.07152
_cell_length_b 26.42401
_cell_length_c 44.74649
_cell_angle_alpha 95.52539
_cell_angle_beta  95.52398
_cell_angle_gamma 125.79064

_symmetry_space_group_name_	'P 1'
_symmetry_space_group_name_H-M	'P 1'

loop_
_symmetry_equiv_pos_as_xyz
  x,y,z

loop_
_atom_site_label
_atom_site_type_symbol
_atom_site_fract_x
_atom_site_fract_y
_atom_site_fract_z
_atom_site_charge
C 	C 	0.94319 0.01034 0.99765 0.01600
C 	C 	0.00925 0.04201 0.99808 -0.06300
C 	C 	0.03473 0.00767 0.99670 0.01500
H 	H 	0.04063 0.09307 0.99950 0.04600
C 	C 	0.01955 0.05212 0.46574 -0.06400
H 	H 	0.04528 0.10268 0.46636 0.04700
Cu	Cu	0.61765 0.22108 0.99959 0.92700
Cu	Cu	0.66039 0.22841 0.93276 0.86700
Cu	Cu	0.64166 0.32048 0.96175 0.89600
Cu	Cu	0.61908 0.33686 0.02465 0.89400
C 	C 	0.64471 0.26636 0.06428 0.30600
O 	O 	0.52517 0.18255 0.00302 -0.36000
C 	C 	0.62213 0.28586 0.89478 0.30200
O 	O 	0.66758 0.31976 0.00315 -0.64100
O 	O 	0.60178 0.22788 0.95656 -0.64100
O 	O 	0.65708 0.17617 0.99370 -0.37300
O 	O 	0.72390 0.24450 0.96495 -0.44000
O 	O 	0.61419 0.29144 0.05878 -0.38800
O 	O 	0.68709 0.41142 0.96848 -0.38500
C 	C 	0.68658 0.44617 0.99161 0.28300
C 	C 	0.49750 0.20847 0.99393 0.27400
O 	O 	0.53315 0.26796 0.99058 -0.39200
O 	O 	0.65217 0.42053 0.01294 -0.39100
O 	O 	0.64643 0.23076 0.04219 -0.36400
C 	C 	0.70959 0.20197 0.98208 0.28300
O 	O 	0.62195 0.32036 0.91818 -0.38200
O 	O 	0.61778 0.23440 0.89762 -0.42200
H 	H 	0.71465 0.34818 0.01091 0.16400
H 	H 	0.55622 0.20011 0.94592 0.17500
Cu	Cu	0.75800 0.35306 0.46752 0.92700
Cu	Cu	0.75559 0.31376 0.53506 0.87000
Cu	Cu	0.65456 0.32187 0.50521 0.89700
Cu	Cu	0.63834 0.34897 0.44295 0.89300
C 	C 	0.71150 0.32703 0.40282 0.30500
O 	O 	0.79580 0.44464 0.46468 -0.36000
C 	C 	0.69705 0.35118 0.57265 0.30700
O 	O 	0.65775 0.30173 0.46355 -0.64100
O 	O 	0.74971 0.36703 0.51052 -0.64100
O 	O 	0.80379 0.31377 0.47291 -0.37000
O 	O 	0.73729 0.24973 0.50314 -0.43900
O 	O 	0.68437 0.35542 0.40856 -0.38700
O 	O 	0.56181 0.27268 0.49735 -0.38200
C 	C 	0.52690 0.27546 0.47503 0.28100
C 	C 	0.76772 0.47037 0.47331 0.27300
O 	O 	0.70778 0.43378 0.47710 -0.39000
O 	O 	0.55379 0.31467 0.45568 -0.39200
O 	O 	0.74900 0.32661 0.42473 -0.36400
C 	C 	0.77885 0.26274 0.48522 0.27900
O 	O 	0.64969 0.32787 0.54908 -0.39000
O 	O 	0.75019 0.35767 0.56953 -0.42300
H 	H 	0.63047 0.25567 0.45490 0.16400
H 	H 	0.77522 0.41205 0.52083 0.17300
C 	C 	0.66562 0.37010 0.65921 -0.01100
C 	C 	0.60311 0.34321 0.66440 -0.03100
C 	C 	0.59089 0.33963 0.69418 -0.04400
C 	C 	0.64116 0.36277 0.71894 0.00800
C 	C 	0.70428 0.39271 0.71380 -0.04400
C 	C 	0.71642 0.39639 0.68404 -0.03200
C 	C 	0.62693 0.34986 0.74963 0.00800
C 	C 	0.58745 0.28691 0.75420 -0.04400
C 	C 	0.58141 0.27433 0.78380 -0.03200
C 	C 	0.61484 0.32450 0.80903 -0.01000
C 	C 	0.65168 0.38744 0.80447 -0.03200
C 	C 	0.65766 0.40013 0.77485 -0.04400
C 	C 	0.61696 0.31140 0.83945 0.04400
C 	C 	0.61841 0.29989 0.86481 -0.11200
C 	C 	0.67635 0.36411 0.62852 0.04500
C 	C 	0.68587 0.35933 0.60291 -0.11400
H 	H 	0.56364 0.32314 0.64532 0.03800
H 	H 	0.54212 0.31709 0.69792 0.04000
H 	H 	0.74347 0.41086 0.73274 0.03900
H 	H 	0.76493 0.41754 0.68021 0.03600
H 	H 	0.56344 0.24775 0.73491 0.03900
H 	H 	0.55259 0.22555 0.78716 0.03700
H 	H 	0.67736 0.42650 0.82387 0.03700
H 	H 	0.68769 0.44889 0.77155 0.03900
C 	C 	0.72169 0.29237 0.31361 -0.00800
C 	C 	0.68943 0.23057 0.29703 -0.03200
C 	C 	0.68643 0.22053 0.26543 -0.04400
C 	C 	0.71543 0.27230 0.25023 0.00800
C 	C 	0.75025 0.33430 0.26715 -0.04300
C 	C 	0.75342 0.34425 0.29872 -0.03100
C 	C 	0.70375 0.26143 0.21648 0.00800
C 	C 	0.75580 0.29057 0.20102 -0.04400
C 	C 	0.74494 0.28803 0.16949 -0.03200
C 	C 	0.68203 0.25613 0.15323 -0.00800
C 	C 	0.62989 0.22441 0.16836 -0.03100
C 	C 	0.64065 0.22709 0.19986 -0.04300
C 	C 	0.67115 0.26049 0.12173 0.04400
C 	C 	0.66012 0.26310 0.09535 -0.10500
C 	C 	0.71740 0.30235 0.34520 0.04400
C 	C 	0.71484 0.31260 0.37165 -0.10500
H 	H 	0.66515 0.19024 0.30843 0.03700
H 	H 	0.66000 0.17251 0.25264 0.04000
H 	H 	0.77281 0.37460 0.25568 0.04000
H 	H 	0.77875 0.39218 0.31144 0.03900
H 	H 	0.80466 0.31666 0.21357 0.04000
H 	H 	0.78548 0.31232 0.15790 0.03700
H 	H 	0.58110 0.19936 0.15589 0.03900
H 	H 	0.60013 0.20446 0.21153 0.04000
C 	C 	0.83272 0.56655 0.45016 -0.02500
C 	C 	0.79923 0.53838 0.47354 -0.06300
C 	C 	0.79081 0.57356 0.49543 -0.02600
H 	H 	0.83871 0.53917 0.43314 0.04700
H 	H 	0.76517 0.55181 0.51352 0.03900
C 	C 	0.87583 0.18231 0.42571 -0.03500
C 	C 	0.84895 0.18356 0.45127 0.00800
C 	C 	0.84404 0.14704 0.47340 0.00200
C 	C 	0.86687 0.11023 0.47001 -0.03000
C 	C 	0.89470 0.11003 0.44453 0.04000
C 	C 	0.86302 0.07465 0.49244 0.04000
C 	C 	0.83532 0.07518 0.51777 -0.05600
C 	C 	0.81254 0.11159 0.52109 -0.03600
C 	C 	0.81715 0.14798 0.49912 0.00600
C 	C 	0.79579 0.18573 0.50277 -0.02500
C 	C 	0.80104 0.22267 0.48091 -0.07000
C 	C 	0.82737 0.22124 0.45510 -0.02200
C 	C 	0.91793 0.04165 0.46480 0.02700
C 	C 	0.88840 0.04033 0.48967 -0.07800
H 	H 	0.87955 0.20992 0.40850 0.03800
H 	H 	0.83187 0.04779 0.53505 0.04000
H 	H 	0.79166 0.11178 0.54087 0.03200
H 	H 	0.77586 0.18703 0.52277 0.02700
H 	H 	0.83080 0.24911 0.43805 0.04900
C 	C 	0.33937 0.16984 0.52631 -0.03600
C 	C 	0.27302 0.13552 0.52526 -0.05500
C 	C 	0.23150 0.11924 0.49771 0.04000
C 	C 	0.25697 0.13803 0.47105 -0.02900
C 	C 	0.32375 0.17237 0.47209 0.00100
C 	C 	0.36506 0.18821 0.49980 0.00900
C 	C 	0.34912 0.19050 0.44536 0.00800
C 	C 	0.30762 0.17460 0.41785 -0.03600
C 	C 	0.24129 0.14058 0.41683 -0.05500
C 	C 	0.21558 0.12193 0.44330 0.04000
C 	C 	0.14898 0.08667 0.44228 -0.07800
C 	C 	0.12358 0.06706 0.46868 0.02700
C 	C 	0.16482 0.08379 0.49639 -0.07800
C 	C 	0.43147 0.22204 0.50068 -0.02400
C 	C 	0.45693 0.23991 0.47403 -0.06100
C 	C 	0.41558 0.22404 0.44642 -0.02500
H 	H 	0.37075 0.18190 0.54773 0.03700
H 	H 	0.25394 0.12145 0.54588 0.04100
H 	H 	0.32667 0.18844 0.39720 0.03500
H 	H 	0.14485 0.06856 0.51672 0.04900
H 	H 	0.46334 0.23484 0.52207 0.04900
H 	H 	0.43506 0.23732 0.42580 0.03800
C 	C 	0.74208 0.55681 0.01985 -0.02300
C 	C 	0.71993 0.51457 0.99195 -0.06400
C 	C 	0.72948 0.53763 0.96441 -0.02300
H 	H 	0.73510 0.53909 0.04111 0.03800
H 	H 	0.71169 0.50497 0.94284 0.04800
C 	C 	0.85621 0.16145 0.94425 -0.03600
C 	C 	0.88931 0.13481 0.94650 -0.05700
C 	C 	0.88776 0.10539 0.97127 0.04100
C 	C 	0.85360 0.10374 0.99424 -0.03100
C 	C 	0.82015 0.13042 0.99193 0.00200
C 	C 	0.82108 0.15894 0.96672 0.00500
C 	C 	0.78483 0.12756 0.01455 0.00900
C 	C 	0.78423 0.09912 0.03961 -0.03500
C 	C 	0.81754 0.07266 0.04192 -0.05500
C 	C 	0.85182 0.07427 0.01919 0.04200
C 	C 	0.88323 0.04568 0.02077 -0.07700
C 	C 	0.91570 0.04575 0.99745 0.02600
C 	C 	0.91874 0.07642 0.97301 -0.07800
C 	C 	0.78596 0.18353 0.96398 -0.02400
C 	C 	0.74954 0.17951 0.98613 -0.07300
C 	C 	0.74978 0.15228 0.01159 -0.01900
H 	H 	0.85749 0.18357 0.92487 0.03200
H 	H 	0.91572 0.13664 0.92883 0.04000
H 	H 	0.75756 0.09701 0.05720 0.03800
H 	H 	0.94389 0.07636 0.95506 0.04800
H 	H 	0.78575 0.20447 0.94431 0.02600
H 	H 	0.72252 0.15008 0.02893 0.04900
C 	C 	0.22652 0.13623 0.95029 -0.05500
C 	C 	0.29097 0.16269 0.94931 -0.03600
C 	C 	0.32717 0.15509 0.97123 0.00900
C 	C 	0.29828 0.12050 0.99426 -0.00000
C 	C 	0.23366 0.09447 0.99544 -0.03000
C 	C 	0.19754 0.10209 0.97328 0.04000
C 	C 	0.20510 0.06068 0.01875 0.04100
C 	C 	0.24120 0.05285 0.04058 -0.05500
C 	C 	0.30525 0.07832 0.03928 -0.03600
C 	C 	0.33414 0.11226 0.01623 0.01100
C 	C 	0.39870 0.13894 0.01519 -0.02300
C 	C 	0.42803 0.17475 0.99274 -0.06500
C 	C 	0.39207 0.18227 0.97063 -0.02500
C 	C 	0.13277 0.07493 0.97422 -0.07800
C 	C 	0.10413 0.04067 0.99723 0.02500
C 	C 	0.14066 0.03455 0.01973 -0.07600
H 	H 	0.19919 0.14236 0.93317 0.04100
H 	H 	0.31270 0.18912 0.93151 0.03700
H 	H 	0.21963 0.02687 0.05854 0.04100
H 	H 	0.33244 0.07182 0.05628 0.03800
H 	H 	0.42669 0.13358 0.03237 0.04700
H 	H 	0.41477 0.20963 0.95321 0.04000
H 	H 	0.10435 0.07939 0.95683 0.04800
H 	H 	0.11851 0.00858 0.03763 0.04900
C 	C 	0.05341 0.02612 0.46697 0.01500
H 	H 	0.88154 0.02244 0.03976 0.04900
C 	C 	0.89854 0.14577 0.42235 -0.05500
H 	H 	0.81616 0.05043 0.06126 0.04200
H 	H 	0.78160 0.65103 0.53391 0.03600
C 	C 	0.81473 0.63640 0.49372 0.00900
C 	C 	0.85604 0.62900 0.44800 0.01000
H 	H 	0.75452 0.59392 0.91561 0.03700
H 	H 	0.89461 0.63002 0.40716 0.03800
C 	C 	0.76150 0.60269 0.96469 0.00900
C 	C 	0.91975 0.07536 0.44193 -0.07800
C 	C 	0.88751 0.65657 0.42405 -0.03600
C 	C 	0.80626 0.67178 0.51543 -0.03600
C 	C 	0.84690 0.66400 0.46978 0.00100
C 	C 	0.77391 0.62191 0.02035 0.00900
C 	C 	0.77175 0.62607 0.93727 -0.03600
H 	H 	0.20992 0.12853 0.39541 0.04100
C 	C 	0.78389 0.64498 0.99272 0.00100
H 	H 	0.78871 0.64705 0.06952 0.03500
H 	H 	0.11681 0.07354 0.42094 0.04900
C 	C 	0.79635 0.66435 0.04818 -0.03600
H 	H 	0.91960 0.14573 0.40263 0.04200
C 	C 	0.90984 0.71853 0.42173 -0.05500
C 	C 	0.86978 0.72656 0.46756 -0.02900
C 	C 	0.82968 0.73421 0.51344 -0.05500
C 	C 	0.80471 0.69116 0.93771 -0.05500
H 	H 	0.93407 0.73911 0.40312 0.04100
H 	H 	0.94213 0.07585 0.42262 0.04900
H 	H 	0.81262 0.70851 0.91639 0.04100
C 	C 	0.81687 0.71045 0.99316 -0.03100
C 	C 	0.90135 0.75387 0.44344 0.04000
H 	H 	0.82305 0.76095 0.53048 0.04100
C 	C 	0.86160 0.76198 0.48962 0.04000
C 	C 	0.82908 0.72941 0.04861 -0.05600
C 	C 	0.82774 0.73366 0.96556 0.04100
C 	C 	0.83987 0.75285 0.02123 0.04200
H 	H 	0.84640 0.76158 0.07028 0.04100
H 	H 	0.88709 0.01431 0.50728 0.04800
C 	C 	0.95267 0.01317 0.46431 0.01400
C 	C 	0.99403 0.94170 0.99499 -0.06200
C 	C 	0.92837 0.91021 0.99508 0.01500
C 	C 	0.90290 0.94441 0.99630 -0.06300
H 	H 	0.01348 0.91495 0.99371 0.04700
H 	H 	0.85183 0.91977 0.99592 0.04700
C 	C 	0.91962 0.94773 0.46379 -0.06300
C 	C 	0.95358 0.92159 0.46496 0.01500
C 	C 	0.02052 0.96109 0.46677 -0.06300
H 	H 	0.86789 0.91741 0.46247 0.04600
H 	H 	0.04698 0.94122 0.46801 0.04800
C 	C 	0.88655 0.82509 0.48790 -0.07700
C 	C 	0.91935 0.85282 0.46428 0.02700
C 	C 	0.92522 0.81660 0.44168 -0.07800
H 	H 	0.88212 0.85315 0.50533 0.04800
H 	H 	0.94999 0.83794 0.42330 0.04900
C 	C 	0.86250 0.79915 0.96624 -0.07800
C 	C 	0.88649 0.84138 0.99422 0.02600
C 	C 	0.87441 0.81822 0.02160 -0.07700
H 	H 	0.87199 0.81745 0.94516 0.04900
H 	H 	0.89311 0.85120 0.04315 0.04900
