data_crystal

_cell_length_a 24.11437
_cell_length_b 21.77195
_cell_length_c 44.68497
_cell_angle_alpha 90.64280
_cell_angle_beta  90.72414
_cell_angle_gamma 112.96276

_symmetry_space_group_name_	'P 1'
_symmetry_space_group_name_H-M	'P 1'

loop_
_symmetry_equiv_pos_as_xyz
  x,y,z

loop_
_atom_site_label
_atom_site_type_symbol
_atom_site_fract_x
_atom_site_fract_y
_atom_site_fract_z
_atom_site_charge
Ni	Ni	0.72566 0.34955 0.89892 1.09900
O 	O 	0.64394 0.31362 0.87740 -0.70800
Ni	Ni	0.59375 0.33541 0.90745 1.10200
O 	O 	0.76303 0.31952 0.86375 -0.37400
O 	O 	0.69511 0.21141 0.86770 -0.40200
O 	O 	0.73906 0.43748 0.87808 -0.38600
Ni	Ni	0.61096 0.21784 0.87135 1.06900
O 	O 	0.77518 0.41331 0.96603 -0.41500
O 	O 	0.61558 0.19856 0.91576 -0.41300
O 	O 	0.51759 0.30581 0.88185 -0.38000
O 	O 	0.67226 0.35769 0.93112 -0.70500
O 	O 	0.80847 0.39288 0.91994 -0.37900
O 	O 	0.55897 0.38346 0.93706 -0.37300
O 	O 	0.64564 0.47707 0.93585 -0.41200
Ni	Ni	0.71208 0.44518 0.95015 1.07200
H 	H 	0.64427 0.33655 0.85835 0.16800
H 	H 	0.66799 0.32329 0.94620 0.15800
C 	C 	0.57592 0.20287 0.93454 0.28700
O 	O 	0.77319 0.50315 0.92008 -0.40200
C 	C 	0.74315 0.25629 0.85525 0.30200
C 	C 	0.49646 0.24600 0.86882 0.30500
C 	C 	0.76810 0.49626 0.89078 0.32700
C 	C 	0.58989 0.44636 0.94485 0.26800
C 	C 	0.81684 0.40552 0.94912 0.28800
O 	O 	0.55372 0.24896 0.93137 -0.37100
O 	O 	0.52137 0.20237 0.87456 -0.40800
Ni	Ni	0.59171 0.32722 0.62246 1.10200
O 	O 	0.66193 0.34970 0.59355 -0.70100
Ni	Ni	0.72589 0.34291 0.62063 1.10200
O 	O 	0.54627 0.37222 0.59763 -0.37200
O 	O 	0.63213 0.46573 0.59528 -0.41900
O 	O 	0.54573 0.23920 0.59914 -0.37200
Ni	Ni	0.69413 0.43614 0.57443 1.07100
O 	O 	0.53096 0.19445 0.65601 -0.39300
O 	O 	0.76298 0.49438 0.60262 -0.40300
O 	O 	0.80199 0.38559 0.59495 -0.36700
O 	O 	0.65196 0.30742 0.64712 -0.70400
O 	O 	0.52474 0.29735 0.65280 -0.38300
O 	O 	0.77380 0.31294 0.65118 -0.36700
O 	O 	0.70480 0.20449 0.64869 -0.40600
Ni	Ni	0.62111 0.21174 0.65267 1.07000
H 	H 	0.65287 0.31500 0.57767 0.15600
H 	H 	0.65864 0.33117 0.66670 0.16400
C 	C 	0.76287 0.48918 0.63184 0.32000
O 	O 	0.61229 0.19019 0.60812 -0.41300
C 	C 	0.57453 0.43399 0.58881 0.27200
C 	C 	0.80251 0.40646 0.56703 0.29000
C 	C 	0.56979 0.19658 0.59151 0.28600
C 	C 	0.75785 0.24940 0.65756 0.30000
C 	C 	0.50764 0.23774 0.66498 0.30200
O 	O 	0.74586 0.43042 0.64427 -0.38100
O 	O 	0.75309 0.40563 0.55354 -0.41700
C 	C 	0.03693 0.97753 0.73258 -0.05000
H 	H 	0.04333 0.97478 0.70808 0.05700
C 	C 	0.02208 0.98398 0.79154 -0.05400
H 	H 	0.01647 0.98749 0.81604 0.05600
C 	C 	0.00165 0.01948 0.74198 0.01700
C 	C 	0.00211 0.90995 0.74732 0.01000
C 	C 	0.09565 0.00817 0.75128 0.02100
C 	C 	0.99429 0.02325 0.77221 0.02600
C 	C 	0.99512 0.91325 0.77771 0.01900
C 	C 	0.08769 0.01009 0.78158 0.02700
Ni	Ni	0.24662 0.71942 0.39910 1.10200
O 	O 	0.31830 0.74913 0.37091 -0.70500
Ni	Ni	0.38056 0.73474 0.39615 1.10200
O 	O 	0.19536 0.74118 0.36732 -0.36300
O 	O 	0.26452 0.84887 0.36411 -0.41100
O 	O 	0.22482 0.62713 0.37953 -0.38300
Ni	Ni	0.34894 0.84297 0.36128 1.06600
O 	O 	0.22543 0.66918 0.46822 -0.41700
O 	O 	0.36036 0.87357 0.40506 -0.41300
O 	O 	0.44513 0.75823 0.36458 -0.38300
O 	O 	0.31289 0.71799 0.42607 -0.70100
O 	O 	0.17295 0.68229 0.42670 -0.36700
O 	O 	0.42758 0.69391 0.42239 -0.37300
O 	O 	0.34193 0.60092 0.42731 -0.41800
Ni	Ni	0.28321 0.63533 0.44832 1.07100
H 	H 	0.31005 0.72130 0.35241 0.16500
H 	H 	0.32311 0.75546 0.44065 0.15600
C 	C 	0.40430 0.87081 0.42179 0.28600
O 	O 	0.21163 0.57131 0.42361 -0.40600
C 	C 	0.21239 0.80126 0.35596 0.29900
C 	C 	0.46357 0.81668 0.35124 0.30500
C 	C 	0.20620 0.57110 0.39435 0.32700
C 	C 	0.40029 0.63243 0.43178 0.26900
C 	C 	0.17447 0.66426 0.45497 0.28900
O 	O 	0.42786 0.82679 0.41598 -0.37400
O 	O 	0.43928 0.86066 0.35782 -0.40500
Ni	Ni	0.38153 0.74579 0.13042 1.09800
O 	O 	0.31125 0.69393 0.10189 -0.70200
Ni	Ni	0.24531 0.71886 0.11858 1.09900
O 	O 	0.43853 0.70629 0.11189 -0.36100
O 	O 	0.37035 0.60001 0.11569 -0.40600
O 	O 	0.41778 0.81988 0.09920 -0.36800
Ni	Ni	0.28536 0.59690 0.10551 1.06700
O 	O 	0.43264 0.89432 0.14835 -0.41600
O 	O 	0.27287 0.59986 0.15036 -0.42000
O 	O 	0.18083 0.66637 0.08776 -0.37300
O 	O 	0.31481 0.76884 0.14798 -0.70100
O 	O 	0.44727 0.79992 0.16018 -0.37500
O 	O 	0.18786 0.76039 0.13461 -0.36500
O 	O 	0.25634 0.86767 0.13795 -0.40900
Ni	Ni	0.34128 0.86613 0.14427 1.06600
H 	H 	0.31943 0.70775 0.08083 0.15300
H 	H 	0.30648 0.75411 0.16892 0.16000
C 	C 	0.22314 0.60236 0.16033 0.32000
O 	O 	0.34360 0.85995 0.09902 -0.42100
C 	C 	0.41820 0.64345 0.10328 0.28400
C 	C 	0.17405 0.60546 0.07957 0.27800
C 	C 	0.38828 0.85178 0.08568 0.28200
C 	C 	0.20564 0.82088 0.14633 0.31000
C 	C 	0.46041 0.86397 0.16446 0.30900
O 	O 	0.20287 0.64574 0.14945 -0.36500
O 	O 	0.19595 0.57080 0.09661 -0.40100
C 	C 	0.94190 0.10075 0.23044 -0.04500
H 	H 	0.94102 0.11098 0.20617 0.05200
C 	C 	0.94320 0.07658 0.28898 -0.04900
H 	H 	0.94360 0.06657 0.31331 0.06100
C 	C 	0.97115 0.05178 0.23888 0.02800
C 	C 	0.97565 0.16233 0.25047 0.01800
C 	C 	0.87979 0.07016 0.24481 0.01400
C 	C 	0.97280 0.04044 0.26901 0.02300
C 	C 	0.97588 0.14999 0.28050 0.01800
C 	C 	0.88028 0.05710 0.27468 0.01500
C 	C 	0.09090 0.44467 0.17903 -0.11600
C 	C 	0.11138 0.42585 0.20554 0.01100
C 	C 	0.16620 0.46927 0.21896 0.11200
C 	C 	0.20218 0.52793 0.20447 -0.03000
C 	C 	0.18211 0.54581 0.17761 -0.12800
C 	C 	0.12475 0.50548 0.16578 0.19500
C 	C 	0.07695 0.35909 0.21823 -0.01400
O 	O 	0.18531 0.45371 0.24579 -0.27700
H 	H 	0.24570 0.55930 0.21407 0.05400
O 	O 	0.10291 0.52386 0.14043 -0.28600
H 	H 	0.04894 0.41175 0.16847 0.08300
C 	C 	0.01494 0.33839 0.22394 0.13400
C 	C 	0.98140 0.27257 0.23233 -0.08600
C 	C 	0.01016 0.22886 0.23787 -0.02500
C 	C 	0.07252 0.25033 0.23350 0.14400
C 	C 	0.10518 0.31430 0.22269 -0.08700
O 	O 	0.98701 0.38222 0.22110 -0.28000
H 	H 	0.93339 0.25637 0.23574 0.06600
O 	O 	0.10151 0.20863 0.23943 -0.26100
H 	H 	0.15255 0.32916 0.21791 0.07700
H 	H 	0.07945 0.54952 0.14765 0.16200
H 	H 	0.99099 0.40383 0.24111 0.14600
H 	H 	0.11709 0.21975 0.26027 0.13900
H 	H 	0.16809 0.47372 0.26130 0.14700
C 	C 	0.59930 0.91609 0.21427 -0.11600
C 	C 	0.63855 0.97155 0.19896 0.00500
C 	C 	0.61725 0.99581 0.17424 0.11700
C 	C 	0.55788 0.96239 0.16397 -0.03400
C 	C 	0.51922 0.90484 0.17837 -0.12400
C 	C 	0.53956 0.88315 0.20429 0.19200
C 	C 	0.70264 0.00182 0.20780 -0.00500
O 	O 	0.65538 0.05000 0.15910 -0.27000
H 	H 	0.54268 0.97967 0.14405 0.06100
O 	O 	0.50174 0.82851 0.21928 -0.28800
H 	H 	0.61545 0.89774 0.23355 0.07000
C 	C 	0.72481 0.06022 0.22564 0.14000
C 	C 	0.78542 0.08734 0.23468 -0.08600
C 	C 	0.82323 0.05425 0.22750 -0.02100
C 	C 	0.80186 0.99789 0.20833 0.14000
C 	C 	0.74161 0.97172 0.19865 -0.09500
O 	O 	0.68716 0.09040 0.23452 -0.28200
H 	H 	0.80201 0.13147 0.24904 0.07400
O 	O 	0.83848 0.96537 0.20095 -0.28700
H 	H 	0.72480 0.92708 0.18462 0.07200
H 	H 	0.48230 0.84652 0.23454 0.14800
H 	H 	0.67061 0.06967 0.25383 0.14600
H 	H 	0.85834 0.98630 0.18225 0.14500
H 	H 	0.65109 0.08918 0.16870 0.15300
C 	C 	0.13202 0.90834 0.19539 -0.11500
C 	C 	0.08075 0.90070 0.17809 0.01700
C 	C 	0.06772 0.86157 0.15168 0.11500
C 	C 	0.10712 0.83234 0.14220 -0.02700
C 	C 	0.15972 0.84212 0.15892 -0.12100
C 	C 	0.17162 0.87951 0.18584 0.19100
C 	C 	0.04252 0.93638 0.18707 -0.01800
O 	O 	0.01834 0.85482 0.13428 -0.27500
H 	H 	0.09793 0.80417 0.12129 0.06300
O 	O 	0.22150 0.88716 0.20304 -0.31200
H 	H 	0.14192 0.93802 0.21590 0.07400
C 	C 	0.99056 0.90401 0.20388 0.14800
C 	C 	0.96182 0.94139 0.21761 -0.09200
C 	C 	0.98661 0.01134 0.21597 -0.00600
C 	C 	0.03364 0.04242 0.19603 0.14300
C 	C 	0.06192 0.00497 0.18192 -0.07700
O 	O 	0.97070 0.83684 0.20885 -0.27500
H 	H 	0.92328 0.91661 0.23157 0.07600
O 	O 	0.05528 0.11006 0.19223 -0.26000
H 	H 	0.10080 0.02980 0.16818 0.07000
H 	H 	0.25351 0.92917 0.19630 0.13200
H 	H 	0.94026 0.81535 0.19280 0.14700
H 	H 	0.03232 0.11654 0.17483 0.14200
H 	H 	0.98567 0.81349 0.14114 0.14700
C 	C 	0.59582 0.91661 0.30324 -0.11900
C 	C 	0.64313 0.90653 0.31808 0.01100
C 	C 	0.63052 0.86218 0.34208 0.12100
C 	C 	0.57125 0.83029 0.35184 -0.03300
C 	C 	0.52399 0.84218 0.33776 -0.11600
C 	C 	0.53642 0.88479 0.31300 0.19100
C 	C 	0.70608 0.94372 0.30892 -0.02100
O 	O 	0.67644 0.85242 0.35698 -0.27300
H 	H 	0.56240 0.79818 0.37107 0.06700
O 	O 	0.49052 0.89420 0.29793 -0.31200
H 	H 	0.60519 0.95002 0.28446 0.06600
C 	C 	0.73570 0.91233 0.29131 0.14500
C 	C 	0.79529 0.94796 0.28279 -0.09300
C 	C 	0.82468 0.01589 0.29042 -0.01800
C 	C 	0.79584 0.04667 0.30887 0.13900
C 	C 	0.73663 0.01064 0.31795 -0.08200
O 	O 	0.70644 0.84693 0.28235 -0.28100
H 	H 	0.81749 0.92385 0.26877 0.07300
O 	O 	0.82393 0.11309 0.31637 -0.28400
H 	H 	0.71416 0.03500 0.33165 0.06800
H 	H 	0.48849 0.93500 0.30705 0.14100
H 	H 	0.68697 0.84844 0.26284 0.14900
H 	H 	0.84662 0.11452 0.33521 0.15100
H 	H 	0.68010 0.81352 0.34678 0.15800
C 	C 	0.14763 0.43048 0.33693 -0.12200
C 	C 	0.09576 0.38675 0.35095 0.01100
C 	C 	0.07920 0.40456 0.37873 0.11900
C 	C 	0.11507 0.46528 0.39258 -0.03000
C 	C 	0.16763 0.50869 0.37886 -0.12600
C 	C 	0.18384 0.49109 0.35086 0.19600
C 	C 	0.05947 0.32192 0.33665 -0.01200
O 	O 	0.02909 0.36165 0.39284 -0.27400
H 	H 	0.10198 0.47867 0.41402 0.06000
O 	O 	0.23490 0.53301 0.33710 -0.29300
H 	H 	0.16028 0.41705 0.31540 0.07400
C 	C 	0.00651 0.31328 0.32045 0.13900
C 	C 	0.97523 0.25334 0.30487 -0.08500
C 	C 	0.99917 0.20411 0.30337 -0.02200
C 	C 	0.04918 0.21046 0.32155 0.14000
C 	C 	0.07918 0.26937 0.33815 -0.08900
O 	O 	0.98550 0.36343 0.31971 -0.27800
H 	H 	0.93402 0.24648 0.29271 0.07100
O 	O 	0.06815 0.15890 0.32352 -0.28100
H 	H 	0.11868 0.27488 0.35154 0.06800
H 	H 	0.26749 0.51943 0.34426 0.14500
H 	H 	0.00461 0.39038 0.30210 0.14300
H 	H 	0.10228 0.17025 0.30965 0.13900
H 	H 	0.99572 0.37440 0.38616 0.15700
C 	C 	0.09079 0.97034 0.28630 -0.09500
C 	C 	0.05765 0.91459 0.30322 -0.01100
C 	C 	0.99662 0.90015 0.30894 0.14500
C 	C 	0.96970 0.94249 0.29841 -0.08400
C 	C 	0.00304 0.99869 0.28173 -0.02700
C 	C 	0.06414 0.01293 0.27595 0.15300
C 	C 	0.08872 0.87580 0.31751 0.01500
O 	O 	0.96369 0.84565 0.32545 -0.27700
H 	H 	0.92261 0.93099 0.30276 0.06700
O 	O 	0.09723 0.06708 0.25930 -0.27200
H 	H 	0.13780 0.98164 0.28182 0.06200
C 	C 	0.11095 0.83651 0.30001 0.11200
C 	C 	0.14915 0.80917 0.31305 -0.03400
C 	C 	0.16575 0.82146 0.34338 -0.12200
C 	C 	0.14095 0.85771 0.36118 0.19800
C 	C 	0.10233 0.88436 0.34824 -0.11600
O 	O 	0.09503 0.82441 0.27028 -0.26400
H 	H 	0.16725 0.78020 0.29938 0.04800
O 	O 	0.15417 0.86673 0.39128 -0.28900
H 	H 	0.08474 0.91386 0.36190 0.08200
H 	H 	0.12006 0.10250 0.27405 0.14700
H 	H 	0.12743 0.85961 0.25944 0.14700
H 	H 	0.18972 0.90955 0.39318 0.15000
H 	H 	0.94575 0.80862 0.31064 0.15700
C 	C 	0.54763 0.15387 0.56461 -0.07500
C 	C 	0.58519 0.12777 0.55022 0.00100
C 	C 	0.56299 0.08154 0.52674 -0.05000
C 	C 	0.50328 0.06334 0.51598 0.00100
C 	C 	0.46473 0.08796 0.53124 0.01300
C 	C 	0.48761 0.13443 0.55489 -0.01900
C 	C 	0.40317 0.06337 0.52374 -0.04600
C 	C 	0.37910 0.01340 0.50190 -0.02700
C 	C 	0.41670 0.98996 0.48587 -0.00400
C 	C 	0.47968 0.01748 0.49160 0.01300
C 	C 	0.51747 0.00049 0.47215 -0.05100
C 	C 	0.49257 0.95084 0.45019 0.00300
C 	C 	0.43002 0.92029 0.44601 -0.07800
C 	C 	0.39221 0.94050 0.46357 -0.01500
H 	H 	0.63138 0.14171 0.55789 0.03700
H 	H 	0.59125 0.05726 0.51839 0.04400
H 	H 	0.45807 0.15327 0.56651 0.05200
H 	H 	0.37348 0.08170 0.53549 0.04500
H 	H 	0.33106 0.99349 0.49713 0.03500
H 	H 	0.56569 0.02799 0.47267 0.04500
H 	H 	0.52212 0.93796 0.43560 0.04300
H 	H 	0.34383 0.91807 0.45972 0.03700
C 	C 	0.86017 0.43596 0.55145 -0.06900
C 	C 	0.86290 0.42276 0.52085 0.00500
C 	C 	0.91437 0.45897 0.50471 -0.05100
C 	C 	0.96297 0.51157 0.51877 0.00700
C 	C 	0.96249 0.52014 0.55025 0.01100
C 	C 	0.91074 0.48294 0.56632 -0.01500
C 	C 	0.01374 0.56531 0.56536 -0.04000
C 	C 	0.06545 0.60202 0.54962 -0.03900
C 	C 	0.06580 0.59705 0.51831 0.01000
C 	C 	0.01349 0.55418 0.50244 0.00600
C 	C 	0.01196 0.55757 0.47088 -0.05100
C 	C 	0.06395 0.59548 0.45547 0.00600
C 	C 	0.11749 0.63296 0.47120 -0.06800
C 	C 	0.11770 0.63533 0.50261 -0.01900
H 	H 	0.82498 0.38437 0.50950 0.03600
H 	H 	0.91700 0.44407 0.48181 0.04600
H 	H 	0.90915 0.49203 0.59016 0.05000
H 	H 	0.01388 0.57129 0.58948 0.04300
H 	H 	0.10510 0.63540 0.56181 0.04000
H 	H 	0.97042 0.53334 0.45824 0.04700
H 	H 	0.06274 0.59489 0.43123 0.04800
H 	H 	0.15833 0.66647 0.51482 0.04200
C 	C 	0.54635 0.46120 0.56600 -0.08400
C 	C 	0.51209 0.41988 0.54260 -0.00100
C 	C 	0.49212 0.44681 0.51860 -0.05400
C 	C 	0.50282 0.51544 0.51858 0.00500
C 	C 	0.54003 0.55759 0.54151 0.00600
C 	C 	0.56032 0.52998 0.56540 -0.02100
C 	C 	0.55848 0.62697 0.53975 -0.04100
C 	C 	0.54021 0.65505 0.51564 -0.04200
C 	C 	0.50022 0.61423 0.49373 0.00800
C 	C 	0.47946 0.54379 0.49552 0.00400
C 	C 	0.43320 0.50376 0.47556 -0.05300
C 	C 	0.41153 0.53303 0.45314 -0.00200
C 	C 	0.43251 0.60260 0.45122 -0.07900
C 	C 	0.47794 0.64306 0.47105 -0.02300
H 	H 	0.50372 0.36723 0.54214 0.03300
H 	H 	0.47218 0.41499 0.49937 0.04200
H 	H 	0.58822 0.56217 0.58313 0.04100
H 	H 	0.58793 0.65942 0.55692 0.03900
H 	H 	0.55588 0.70888 0.51445 0.04000
H 	H 	0.41089 0.45059 0.47847 0.04200
H 	H 	0.37594 0.50143 0.43813 0.03600
H 	H 	0.49349 0.69692 0.46993 0.04400
C 	C 	0.85874 0.15449 0.65246 -0.11900
C 	C 	0.88175 0.16187 0.68178 0.01300
C 	C 	0.87029 0.20532 0.70204 0.12000
C 	C 	0.83205 0.23697 0.69353 -0.03500
C 	C 	0.80545 0.22560 0.66485 -0.11900
C 	C 	0.82062 0.18607 0.64393 0.19700
C 	C 	0.91165 0.11847 0.69222 -0.01600
O 	O 	0.89673 0.21715 0.73003 -0.27500
H 	H 	0.82165 0.26859 0.70951 0.05300
O 	O 	0.79867 0.17890 0.61505 -0.29300
H 	H 	0.86865 0.12230 0.63659 0.07300
C 	C 	0.87788 0.05721 0.70554 0.13700
C 	C 	0.90741 0.02028 0.71883 -0.08200
C 	C 	0.97052 0.04550 0.71987 -0.02500
C 	C 	0.00350 0.10169 0.70299 0.14000
C 	C 	0.97416 0.13905 0.68981 -0.08700
O 	O 	0.81641 0.03544 0.70709 -0.28100
H 	H 	0.88147 0.97415 0.72992 0.06200
O 	O 	0.06454 0.12161 0.70034 -0.29100
H 	H 	0.00007 0.18465 0.67834 0.06900
H 	H 	0.76143 0.13763 0.61482 0.15300
H 	H 	0.80056 0.00795 0.68868 0.14500
H 	H 	0.07000 0.09771 0.68231 0.14900
H 	H 	0.86902 0.18158 0.74269 0.15000
C 	C 	0.24481 0.14607 0.73156 -0.09400
C 	C 	0.27243 0.11018 0.71570 -0.01300
C 	C 	0.24070 0.04145 0.71003 0.14300
C 	C 	0.18225 0.00890 0.72086 -0.08900
C 	C 	0.15491 0.04460 0.73714 -0.02100
C 	C 	0.18564 0.11417 0.74138 0.14800
C 	C 	0.33328 0.14555 0.70356 0.01000
O 	O 	0.26723 0.00572 0.69453 -0.27900
H 	H 	0.15882 0.95564 0.71722 0.07100
O 	O 	0.15867 0.15066 0.75593 -0.28100
H 	H 	0.26879 0.19913 0.73572 0.06500
C 	C 	0.34111 0.18499 0.67799 0.11400
C 	C 	0.39865 0.21740 0.66625 -0.03100
C 	C 	0.44887 0.21100 0.67990 -0.11700
C 	C 	0.44129 0.17325 0.70605 0.19000
C 	C 	0.38358 0.14057 0.71774 -0.11000
O 	O 	0.29221 0.18957 0.66369 -0.27400
H 	H 	0.40392 0.24582 0.64596 0.06500
O 	O 	0.48992 0.16691 0.71980 -0.30700
H 	H 	0.37794 0.11116 0.73773 0.07500
H 	H 	0.14516 0.17320 0.74000 0.16400
H 	H 	0.28796 0.22921 0.67282 0.14500
H 	H 	0.50509 0.20414 0.73470 0.14200
H 	H 	0.25646 0.00814 0.67321 0.15400
C 	C 	0.85566 0.60937 0.69291 -0.11700
C 	C 	0.85652 0.67000 0.68223 0.01300
C 	C 	0.82432 0.67075 0.65589 0.11400
C 	C 	0.79185 0.61109 0.64032 -0.03200
C 	C 	0.79224 0.55037 0.65042 -0.12500
C 	C 	0.82462 0.54979 0.67693 0.19500
C 	C 	0.89338 0.73294 0.69796 -0.01300
O 	O 	0.82721 0.73013 0.64445 -0.27500
H 	H 	0.76719 0.61222 0.62002 0.05300
O 	O 	0.82654 0.49140 0.68708 -0.28300
H 	H 	0.88037 0.60864 0.71325 0.07500
C 	C 	0.86609 0.76561 0.71632 0.14100
C 	C 	0.90159 0.82495 0.73135 -0.08800
C 	C 	0.96458 0.85072 0.72911 -0.02400
C 	C 	0.99181 0.81825 0.71062 0.14300
C 	C 	0.95614 0.75987 0.69492 -0.09000
O 	O 	0.80514 0.73786 0.72078 -0.28000
H 	H 	0.88030 0.85012 0.74535 0.06900
O 	O 	0.05320 0.84361 0.70778 -0.28700
H 	H 	0.97732 0.73504 0.68066 0.06900
H 	H 	0.86228 0.48804 0.67762 0.15500
H 	H 	0.78759 0.75929 0.70606 0.14400
H 	H 	0.06820 0.82269 0.72386 0.14600
H 	H 	0.79134 0.73632 0.65218 0.14100
C 	C 	0.87635 0.41979 0.96234 -0.07300
C 	C 	0.92719 0.46950 0.95021 0.00700
C 	C 	0.98150 0.49433 0.96640 -0.05100
C 	C 	0.98455 0.47118 0.99549 0.00800
C 	C 	0.93622 0.41377 0.00534 0.00900
C 	C 	0.88175 0.38935 0.98902 -0.01600
C 	C 	0.94250 0.38256 0.03165 -0.03900
C 	C 	0.99490 0.41010 0.04916 -0.03800
C 	C 	0.03986 0.47176 0.04178 0.01100
C 	C 	0.03433 0.50392 0.01516 0.00400
C 	C 	0.07462 0.57048 0.01060 -0.05000
C 	C 	0.12102 0.60267 0.03129 0.00100
C 	C 	0.12758 0.56980 0.05699 -0.07000
C 	C 	0.08790 0.50383 0.06181 -0.01800
H 	H 	0.92406 0.49053 0.92870 0.04200
H 	H 	0.02105 0.52989 0.95598 0.04400
H 	H 	0.84309 0.34835 0.99753 0.03800
H 	H 	0.90660 0.33700 0.03865 0.04200
H 	H 	0.99919 0.38514 0.06939 0.04400
H 	H 	0.06808 0.59893 0.99222 0.04400
H 	H 	0.15124 0.65388 0.02762 0.03200
H 	H 	0.09267 0.47861 0.08188 0.05800
C 	C 	0.54880 0.14935 0.95617 -0.07400
C 	C 	0.58546 0.12798 0.97424 0.00500
C 	C 	0.55979 0.07617 0.99437 -0.05400
C 	C 	0.49643 0.04246 0.99562 0.01400
C 	C 	0.45962 0.06648 0.97832 0.00600
C 	C 	0.48602 0.11893 0.95839 -0.01300
C 	C 	0.39698 0.03939 0.98177 -0.03100
C 	C 	0.37051 0.99043 0.00289 -0.04700
C 	C 	0.40578 0.96514 0.01993 0.01500
C 	C 	0.46858 0.98800 0.01519 -0.00200
C 	C 	0.50132 0.95468 0.02944 -0.04700
C 	C 	0.47438 0.90785 0.05152 0.00100
C 	C 	0.41374 0.89108 0.05871 -0.07000
C 	C 	0.37888 0.91719 0.04175 -0.02400
H 	H 	0.63405 0.15267 0.97324 0.03100
H 	H 	0.58925 0.06512 0.00985 0.04600
H 	H 	0.45771 0.13603 0.94458 0.05000
H 	H 	0.36875 0.05767 0.96858 0.04500
H 	H 	0.32224 0.97188 0.00594 0.04400
H 	H 	0.54650 0.96267 0.02280 0.04300
H 	H 	0.50101 0.88528 0.06328 0.04800
H 	H 	0.33115 0.90139 0.04602 0.04400
C 	C 	0.44403 0.62308 0.07724 -0.08800
C 	C 	0.40583 0.58496 0.05414 0.01000
C 	C 	0.42893 0.56082 0.03036 -0.05900
C 	C 	0.49052 0.57132 0.03024 0.01000
C 	C 	0.52993 0.61554 0.05193 0.00500
C 	C 	0.50628 0.64036 0.07560 -0.00700
C 	C 	0.59236 0.63500 0.04954 -0.03700
C 	C 	0.61603 0.61015 0.02623 -0.04100
C 	C 	0.57764 0.56228 0.00594 0.00900
C 	C 	0.51433 0.54053 0.00841 0.00400
C 	C 	0.47668 0.48559 0.99062 -0.05100
C 	C 	0.50136 0.45710 0.96913 0.00500
C 	C 	0.56393 0.48057 0.96581 -0.07500
C 	C 	0.60194 0.53350 0.98411 -0.02200
H 	H 	0.35811 0.57479 0.05439 -0.01400
H 	H 	0.39940 0.53697 0.01158 0.04200
H 	H 	0.53608 0.67205 0.09291 0.04600
H 	H 	0.62277 0.67005 0.06563 0.04200
H 	H 	0.66447 0.62668 0.02450 0.03800
H 	H 	0.42888 0.46215 0.99446 0.04300
H 	H 	0.47168 0.41543 0.95555 0.04500
H 	H 	0.65042 0.55058 0.98218 0.02200
C 	C 	0.95317 0.16628 0.79770 -0.08500
C 	C 	0.89276 0.13230 0.80552 -0.01300
C 	C 	0.86619 0.06225 0.80300 0.14400
C 	C 	0.89959 0.02707 0.79211 -0.08100
C 	C 	0.96052 0.06074 0.78533 -0.02200
C 	C 	0.98721 0.13075 0.78792 0.14800
C 	C 	0.85764 0.17005 0.81677 0.01300
O 	O 	0.80707 0.02827 0.81036 -0.27700
H 	H 	0.87730 0.97409 0.78753 0.07700
O 	O 	0.04658 0.16449 0.78104 -0.27900
H 	H 	0.97368 0.22027 0.79912 0.07100
C 	C 	0.87448 0.20690 0.84383 0.11300
C 	C 	0.83846 0.23830 0.85542 -0.02800
C 	C 	0.78523 0.23267 0.84040 -0.12100
C 	C 	0.76936 0.19773 0.81290 0.19300
C 	C 	0.80554 0.16663 0.80116 -0.11300
O 	O 	0.92389 0.20859 0.85994 -0.27100
H 	H 	0.85066 0.26481 0.87674 0.05800
O 	O 	0.71729 0.19171 0.79807 -0.30800
H 	H 	0.79215 0.13820 0.78037 0.08000
H 	H 	0.04628 0.17732 0.75984 0.15700
H 	H 	0.95748 0.24986 0.85373 0.14700
H 	H 	0.72916 0.23024 0.78446 0.14300
H 	H 	0.80801 0.01790 0.83187 0.15400
C 	C 	0.35907 0.17288 0.81860 -0.11800
C 	C 	0.31359 0.14888 0.83986 0.01000
C 	C 	0.32799 0.16186 0.87048 0.12100
C 	C 	0.38782 0.19703 0.87968 -0.03000
C 	C 	0.43359 0.21900 0.85851 -0.11800
C 	C 	0.41911 0.20714 0.82785 0.18800
C 	C 	0.25140 0.10828 0.83003 -0.01200
O 	O 	0.28415 0.13705 0.89150 -0.27200
H 	H 	0.39897 0.20522 0.90336 0.06100
O 	O 	0.46342 0.22955 0.80693 -0.30300
H 	H 	0.34799 0.16370 0.79493 0.07200
C 	C 	0.20754 0.13593 0.82961 0.14900
C 	C 	0.15041 0.09925 0.81723 -0.08000
C 	C 	0.13851 0.03744 0.80319 -0.01700
C 	C 	0.18005 0.00705 0.80630 0.14900
C 	C 	0.23654 0.04270 0.81960 -0.08900
O 	O 	0.22084 0.19919 0.84073 -0.28100
H 	H 	0.11715 0.12122 0.81634 0.08800
O 	O 	0.16488 0.94210 0.79707 -0.28300
H 	H 	0.26933 0.02011 0.82107 0.07000
H 	H 	0.47648 0.19215 0.80351 0.13600
H 	H 	0.23656 0.22905 0.82352 0.15400
H 	H 	0.18113 0.94456 0.77666 0.14800
H 	H 	0.26966 0.17316 0.89542 0.15800
C 	C 	0.81586 0.62404 0.82924 -0.11900
C 	C 	0.87371 0.66610 0.83946 0.01200
C 	C 	0.89801 0.65011 0.86557 0.11900
C 	C 	0.86377 0.59371 0.88180 -0.03000
C 	C 	0.80505 0.55276 0.87220 -0.12400
C 	C 	0.78132 0.56778 0.84560 0.19600
C 	C 	0.90636 0.72997 0.82440 -0.01000
O 	O 	0.95409 0.69136 0.87607 -0.27300
H 	H 	0.88270 0.58214 0.90205 0.06000
O 	O 	0.72434 0.52796 0.83568 -0.28900
H 	H 	0.79704 0.63594 0.80903 0.07900
C 	C 	0.95578 0.73801 0.80617 0.14200
C 	C 	0.98743 0.79957 0.79282 -0.08100
C 	C 	0.96818 0.85242 0.79625 -0.02400
C 	C 	0.92000 0.84484 0.81541 0.14600
C 	C 	0.88893 0.78358 0.82902 -0.08900
O 	O 	0.97357 0.68605 0.80160 -0.28100
H 	H 	0.02580 0.80557 0.77905 0.06700
O 	O 	0.90191 0.89638 0.82014 -0.29000
H 	H 	0.85134 0.77788 0.84334 0.07000
H 	H 	0.69742 0.54716 0.84500 0.14700
H 	H 	0.95079 0.66202 0.78351 0.14800
H 	H 	0.92249 0.91855 0.83901 0.14800
H 	H 	0.98230 0.67356 0.86707 0.15700
