data_crystal

_cell_length_a 39.09077
_cell_length_b 38.96054
_cell_length_c 20.21221
_cell_angle_alpha 91.24292
_cell_angle_beta  90.79155
_cell_angle_gamma 90.04220

_symmetry_space_group_name_	'P 1'
_symmetry_space_group_name_H-M	'P 1'

loop_
_symmetry_equiv_pos_as_xyz
  x,y,z

loop_
_atom_site_label
_atom_site_type_symbol
_atom_site_fract_x
_atom_site_fract_y
_atom_site_fract_z
_atom_site_charge
Cd	Cd	0.97643 0.84771 0.24635 1.23700
Cd	Cd	0.96322 0.89923 0.39092 1.16400
O 	O 	0.95337 0.78912 0.24951 -0.32700
O 	O 	0.97855 0.80813 0.16127 -0.35600
C 	C 	0.96459 0.78227 0.19064 0.28000
O 	O 	0.99216 0.90109 0.21517 -0.39000
O 	O 	0.00242 0.91953 0.32167 -0.45300
C 	C 	0.99658 0.92642 0.25919 0.24800
C 	C 	0.91140 0.87735 0.26968 0.29500
O 	O 	0.99160 0.84771 0.37380 -0.45700
O 	O 	0.91332 0.86644 0.20819 -0.30800
O 	O 	0.93653 0.86883 0.30787 -0.55000
C 	C 	0.02351 0.84372 0.35797 0.29300
O 	O 	0.02917 0.83832 0.29516 -0.38100
Cd	Cd	0.94685 0.86553 0.94886 1.23700
Cd	Cd	0.95453 0.91667 0.80615 1.16600
O 	O 	0.97544 0.80977 0.93922 -0.32600
O 	O 	0.94969 0.82569 0.03063 -0.34900
C 	C 	0.96623 0.80177 0.99820 0.26700
O 	O 	0.92733 0.91799 0.98314 -0.39600
O 	O 	0.91430 0.93386 0.87763 -0.45500
C 	C 	0.92043 0.94222 0.93994 0.24300
C 	C 	0.00902 0.90005 0.92479 0.29500
O 	O 	0.93085 0.86302 0.82185 -0.45800
O 	O 	0.00860 0.88970 0.98587 -0.31400
O 	O 	0.98409 0.88950 0.88725 -0.55000
C 	C 	0.89951 0.85644 0.83820 0.29500
O 	O 	0.89471 0.85118 0.90092 -0.38100
C 	C 	0.96334 0.66309 0.94638 0.11800
N 	N 	0.95487 0.63242 0.97249 -0.14700
C 	C 	0.95508 0.60351 0.93365 0.12700
N 	N 	0.96405 0.60527 0.86923 -0.14400
C 	C 	0.97230 0.63585 0.84298 0.12500
N 	N 	0.97145 0.66484 0.88137 -0.14300
C 	C 	0.98747 0.64832 0.24267 0.11800
N 	N 	0.98252 0.61542 0.22087 -0.14500
C 	C 	0.98421 0.58935 0.26444 0.12500
N 	N 	0.98987 0.59631 0.32976 -0.14400
C 	C 	0.99519 0.62909 0.35149 0.12600
N 	N 	0.99397 0.65504 0.30786 -0.14200
Cd	Cd	0.80066 0.96859 0.69707 1.23700
Cd	Cd	0.82971 0.95838 0.86294 1.16500
O 	O 	0.74014 0.95514 0.67621 -0.32800
O 	O 	0.77089 0.98076 0.60243 -0.35900
C 	C 	0.74054 0.97094 0.62046 0.27500
O 	O 	0.85477 0.99060 0.69852 -0.40000
O 	O 	0.87170 0.95873 0.78721 -0.44000
C 	C 	0.87779 0.98309 0.74488 0.24500
C 	C 	0.78437 0.01942 0.79493 0.29800
O 	O 	0.80443 0.92116 0.78575 -0.45700
O 	O 	0.77872 0.03061 0.73545 -0.31900
O 	O 	0.79253 0.98736 0.79780 -0.55300
C 	C 	0.82124 0.90200 0.74417 0.29200
O 	O 	0.82243 0.91339 0.68384 -0.36800
Cd	Cd	0.86005 0.02105 0.41644 1.23500
Cd	Cd	0.91071 0.01215 0.27150 1.16700
O 	O 	0.80011 0.03228 0.38939 -0.33200
O 	O 	0.81639 0.02289 0.49195 -0.36600
C 	C 	0.79147 0.02974 0.45061 0.28100
O 	O 	0.91269 0.00405 0.45483 -0.40000
O 	O 	0.94006 0.02534 0.36490 -0.43500
C 	C 	0.94070 0.00711 0.41877 0.24500
C 	C 	0.85836 0.95817 0.34195 0.29700
O 	O 	0.87641 0.05591 0.31260 -0.45300
O 	O 	0.84425 0.95473 0.39957 -0.32500
O 	O 	0.86662 0.98925 0.32764 -0.55200
C 	C 	0.88664 0.08070 0.35225 0.29500
O 	O 	0.87918 0.07715 0.41443 -0.36900
C 	C 	0.62239 0.03260 0.68614 0.11900
N 	N 	0.63124 0.03827 0.75075 -0.14400
C 	C 	0.60675 0.04366 0.79676 0.12700
N 	N 	0.57331 0.04350 0.77792 -0.14500
C 	C 	0.56431 0.03829 0.71335 0.12500
N 	N 	0.58883 0.03199 0.66766 -0.14600
C 	C 	0.65372 0.02863 0.39441 0.11700
N 	N 	0.62287 0.03125 0.42426 -0.14400
C 	C 	0.59357 0.02984 0.38716 0.12300
N 	N 	0.59540 0.02793 0.32003 -0.14500
C 	C 	0.62623 0.02631 0.29007 0.12500
N 	N 	0.65534 0.02641 0.32738 -0.14300
Cd	Cd	0.03145 0.10439 0.20564 1.23600
Cd	Cd	0.02452 0.07204 0.36821 1.16700
O 	O 	0.05911 0.16070 0.20295 -0.32400
O 	O 	0.03820 0.13625 0.11323 -0.37200
C 	C 	0.04800 0.16480 0.14298 0.27800
O 	O 	0.01634 0.04834 0.18824 -0.40900
O 	O 	0.99273 0.04470 0.29064 -0.45100
C 	C 	0.00530 0.02962 0.23765 0.24200
C 	C 	0.08997 0.07811 0.27055 0.29800
O 	O 	0.00188 0.12015 0.31895 -0.45700
O 	O 	0.09594 0.08096 0.20733 -0.31200
O 	O 	0.06153 0.09096 0.29093 -0.55100
C 	C 	0.97314 0.12219 0.28592 0.30100
O 	O 	0.97564 0.12012 0.22188 -0.38200
Cd	Cd	0.87901 0.11998 0.99061 1.23600
Cd	Cd	0.88789 0.08293 0.82932 1.16800
O 	O 	0.84844 0.17473 0.99101 -0.33100
O 	O 	0.86992 0.15421 0.08205 -0.36500
C 	C 	0.85801 0.18106 0.05164 0.28300
O 	O 	0.89685 0.06528 0.00999 -0.39400
O 	O 	0.92096 0.05980 0.90797 -0.45600
C 	C 	0.90900 0.04567 0.96130 0.23600
C 	C 	0.82197 0.08875 0.92644 0.29800
O 	O 	0.90756 0.13391 0.87673 -0.45500
O 	O 	0.81574 0.09317 0.98951 -0.31400
O 	O 	0.84985 0.10225 0.90582 -0.55200
C 	C 	0.93616 0.13881 0.90930 0.29800
O 	O 	0.93399 0.13832 0.97347 -0.38100
C 	C 	0.90892 0.29745 0.95080 0.12100
N 	N 	0.91334 0.28758 0.88640 -0.14300
C 	C 	0.92404 0.31078 0.84171 0.12300
N 	N 	0.92909 0.34401 0.86112 -0.14400
C 	C 	0.92481 0.35386 0.92535 0.12500
N 	N 	0.91453 0.33059 0.97002 -0.14700
C 	C 	0.98804 0.27804 0.25049 0.11700
N 	N 	0.98130 0.26918 0.31392 -0.14300
C 	C 	0.97108 0.29356 0.35872 0.12500
N 	N 	0.96898 0.32682 0.34061 -0.14300
C 	C 	0.97770 0.33598 0.27870 0.12600
N 	N 	0.98671 0.31153 0.23338 -0.14300
Cd	Cd	0.05321 0.04185 0.77534 1.23500
Cd	Cd	0.00409 0.03447 0.92199 1.16700
O 	O 	0.11296 0.05597 0.80026 -0.33100
O 	O 	0.09639 0.04257 0.69870 -0.36800
C 	C 	0.12148 0.05113 0.73916 0.28000
O 	O 	0.00106 0.02157 0.73867 -0.40200
O 	O 	0.97331 0.04363 0.82925 -0.43900
C 	C 	0.97321 0.02400 0.77559 0.25000
C 	C 	0.05798 0.98108 0.85053 0.30100
O 	O 	0.03639 0.07846 0.87941 -0.45300
O 	O 	0.07142 0.97666 0.79228 -0.32700
O 	O 	0.04866 0.01215 0.86476 -0.55500
C 	C 	0.02473 0.10188 0.84026 0.29200
O 	O 	0.03187 0.09731 0.77777 -0.36900
Cd	Cd	0.11549 0.96426 0.50102 1.23700
Cd	Cd	0.08814 0.94827 0.33471 1.16600
O 	O 	0.17647 0.95478 0.52375 -0.32800
O 	O 	0.14387 0.98088 0.59592 -0.36300
C 	C 	0.17483 0.97234 0.57882 0.27600
O 	O 	0.06036 0.98309 0.49815 -0.40300
O 	O 	0.04574 0.94804 0.40956 -0.43600
C 	C 	0.03801 0.97297 0.45167 0.25000
C 	C 	0.12970 0.01346 0.40291 0.29900
O 	O 	0.11474 0.91441 0.41299 -0.45600
O 	O 	0.13434 0.02641 0.46236 -0.31900
O 	O 	0.12326 0.98093 0.40020 -0.55200
C 	C 	0.09856 0.89548 0.45442 0.29100
O 	O 	0.09650 0.90829 0.51459 -0.36700
C 	C 	0.25912 0.04766 0.79790 0.11500
N 	N 	0.25812 0.04669 0.86508 -0.14400
C 	C 	0.28759 0.04834 0.90140 0.13000
N 	N 	0.31812 0.04845 0.87026 -0.14700
C 	C 	0.31930 0.04841 0.80308 0.12400
N 	N 	0.28971 0.04922 0.76699 -0.14400
C 	C 	0.29050 0.03621 0.50832 0.11700
N 	N 	0.32398 0.03454 0.52714 -0.14500
C 	C 	0.34890 0.03840 0.48171 0.12600
N 	N 	0.34034 0.04254 0.41708 -0.14400
C 	C 	0.30702 0.04344 0.39772 0.12500
N 	N 	0.28209 0.04117 0.44362 -0.14300
C 	C 	0.28668 0.04825 0.97471 -0.07500
C 	C 	0.26617 0.07179 0.01117 0.12000
C 	C 	0.26537 0.06993 0.08056 -0.09700
C 	C 	0.28742 0.04777 0.11447 0.00100
C 	C 	0.30879 0.02505 0.07818 0.06000
C 	C 	0.30746 0.02490 0.00868 -0.02900
N 	N 	0.24871 0.09726 0.98049 -0.20900
H 	H 	0.24906 0.08729 0.10847 0.05700
C 	C 	0.28890 0.04951 0.18803 -0.00900
N 	N 	0.33090 0.00366 0.10959 -0.19300
H 	H 	0.32316 0.00691 0.98089 0.03600
C 	C 	0.27238 0.02403 0.22381 -0.08400
C 	C 	0.27815 0.02117 0.29232 0.09600
C 	C 	0.29812 0.04649 0.32663 -0.04900
C 	C 	0.31237 0.07353 0.29140 -0.05500
C 	C 	0.30872 0.07486 0.22224 0.07100
H 	H 	0.25689 0.00492 0.19755 0.05000
N 	N 	0.26584 0.99333 0.32388 -0.19800
H 	H 	0.32739 0.09302 0.31767 0.04800
N 	N 	0.32478 0.10014 0.18907 -0.19400
H 	H 	0.24960 0.97593 0.29892 0.08000
H 	H 	0.27382 0.98743 0.37175 0.09400
H 	H 	0.33926 0.11875 0.21484 0.08200
H 	H 	0.32334 0.10151 0.13761 0.08800
H 	H 	0.34620 0.98669 0.08233 0.08400
H 	H 	0.33364 0.00401 0.16102 0.08700
H 	H 	0.25328 0.10325 0.93133 0.09100
H 	H 	0.23204 0.11308 0.00724 0.09000
C 	C 	0.20280 0.02893 0.57813 -0.02900
C 	C 	0.20394 0.99456 0.59741 -0.08600
C 	C 	0.23606 0.97954 0.61059 0.08500
C 	C 	0.26573 0.99515 0.58694 -0.06200
C 	C 	0.26358 0.02677 0.55518 -0.03100
C 	C 	0.23270 0.04549 0.55813 0.05500
C 	C 	0.23091 0.08203 0.53550 -0.18300
H 	H 	0.17829 0.04162 0.57244 0.05500
H 	H 	0.28977 0.98134 0.58805 0.04800
C 	C 	0.23844 0.94499 0.64213 -0.19700
H 	H 	0.21005 0.09617 0.56105 0.06400
H 	H 	0.22584 0.08234 0.48135 0.07600
H 	H 	0.25523 0.09580 0.54709 0.06700
H 	H 	0.23712 0.92444 0.60326 0.07400
H 	H 	0.21725 0.94144 0.67738 0.06800
H 	H 	0.26292 0.94261 0.67026 0.06500
C 	C 	0.20782 0.01440 0.76325 -0.07200
C 	C 	0.22715 0.04448 0.75888 -0.02400
C 	C 	0.21304 0.07310 0.72667 0.04800
C 	C 	0.17813 0.07291 0.70881 -0.02700
C 	C 	0.15745 0.04465 0.72314 -0.09000
C 	C 	0.17311 0.01409 0.74486 0.09900
C 	C 	0.15205 0.98256 0.75742 -0.20400
H 	H 	0.21921 0.99182 0.78497 0.05000
H 	H 	0.16647 0.09585 0.68911 0.03500
C 	C 	0.23449 0.10445 0.71468 -0.18100
H 	H 	0.16764 0.95895 0.75062 0.07100
H 	H 	0.12995 0.98057 0.72257 0.09700
H 	H 	0.14259 0.98365 0.80896 0.08400
H 	H 	0.25784 0.09706 0.68718 0.07200
H 	H 	0.24199 0.11689 0.76267 0.06700
H 	H 	0.22037 0.12354 0.68475 0.06000
C 	C 	0.92846 0.30054 0.77123 -0.04900
C 	C 	0.95230 0.27489 0.75180 0.09600
C 	C 	0.95705 0.26756 0.68403 -0.08700
C 	C 	0.94129 0.28771 0.63563 -0.00700
C 	C 	0.91731 0.31317 0.65497 0.07000
C 	C 	0.91060 0.31871 0.72252 -0.05400
N 	N 	0.97190 0.25852 0.79742 -0.19900
H 	H 	0.97508 0.24782 0.66905 0.05100
C 	C 	0.95247 0.28416 0.56564 -0.00700
N 	N 	0.90106 0.33271 0.60923 -0.19400
H 	H 	0.89215 0.33809 0.73731 0.04900
C 	C 	0.93196 0.26561 0.51984 -0.08700
C 	C 	0.93856 0.26659 0.45155 0.09700
C 	C 	0.96731 0.28510 0.42928 -0.05000
C 	C 	0.98966 0.30068 0.47584 -0.05100
C 	C 	0.98217 0.30115 0.54364 0.07000
H 	H 	0.90975 0.25188 0.53699 0.05100
N 	N 	0.91678 0.25048 0.40790 -0.20000
H 	H 	0.01203 0.31424 0.45883 0.04400
N 	N 	0.00312 0.31861 0.58695 -0.19600
H 	H 	0.89564 0.23698 0.42486 0.08200
H 	H 	0.92046 0.25123 0.35695 0.08900
H 	H 	0.02491 0.33109 0.57012 0.08000
H 	H 	0.99804 0.32016 0.63746 0.08800
H 	H 	0.88350 0.35147 0.62407 0.08200
H 	H 	0.90566 0.32964 0.55872 0.08800
H 	H 	0.97319 0.26701 0.84666 0.08700
H 	H 	0.98789 0.23830 0.78292 0.08300
C 	C 	0.96773 0.13008 0.87928 -0.08900
C 	C 	0.99427 0.11933 0.85848 -0.07500
C 	C 	0.90868 0.21820 0.05518 -0.03700
C 	C 	0.87336 0.21497 0.06559 -0.09300
C 	C 	0.85266 0.24437 0.05889 0.08500
C 	C 	0.86504 0.27244 0.02372 -0.05300
C 	C 	0.89859 0.27212 0.99996 -0.04700
C 	C 	0.92142 0.24631 0.02071 0.06600
C 	C 	0.95839 0.24676 0.00051 -0.18100
H 	H 	0.92530 0.19654 0.06458 0.04600
H 	H 	0.84809 0.29353 0.01192 0.04800
C 	C 	0.81596 0.24391 0.08032 -0.19900
H 	H 	0.97423 0.23000 0.03221 0.07400
H 	H 	0.96910 0.27313 0.00516 0.07300
H 	H 	0.96043 0.23730 0.94855 0.06800
H 	H 	0.81290 0.22739 0.12397 0.07300
H 	H 	0.79946 0.23391 0.03909 0.07900
H 	H 	0.80736 0.27020 0.09450 0.06800
C 	C 	0.10778 0.05422 0.31042 -0.11000
C 	C 	0.11928 0.03497 0.35039 -0.12800
C 	C 	0.03187 0.25547 0.17244 -0.07100
C 	C 	0.99974 0.25180 0.20182 -0.02600
C 	C 	0.97953 0.22265 0.18537 0.05200
C 	C 	0.99368 0.19599 0.14654 -0.03300
C 	C 	0.02862 0.19647 0.13117 -0.09700
C 	C 	0.04606 0.22813 0.13545 0.09000
C 	C 	0.08164 0.23135 0.10882 -0.20200
H 	H 	0.04658 0.27877 0.18125 0.05200
H 	H 	0.97891 0.17287 0.13645 0.04600
C 	C 	0.94418 0.21858 0.21312 -0.18600
H 	H 	0.08665 0.25810 0.09363 0.06900
H 	H 	0.08495 0.21423 0.06469 0.07500
H 	H 	0.10061 0.22428 0.14756 0.07800
H 	H 	0.92909 0.24245 0.20655 0.07200
H 	H 	0.94613 0.21271 0.26652 0.07600
H 	H 	0.92999 0.19719 0.18802 0.07500
C 	C 	0.55973 0.03349 0.41880 -0.05000
C 	C 	0.55126 0.01559 0.47691 0.09800
C 	C 	0.51851 0.01972 0.50383 -0.08500
C 	C 	0.49267 0.03655 0.46832 -0.00600
C 	C 	0.50100 0.05433 0.41030 0.07000
C 	C 	0.53482 0.05392 0.38810 -0.05500
N 	N 	0.57327 0.99268 0.50418 -0.19700
H 	H 	0.51216 0.00676 0.54900 0.05600
C 	C 	0.45661 0.03294 0.48896 -0.00500
N 	N 	0.47663 0.07123 0.37496 -0.19500
H 	H 	0.54143 0.06843 0.34491 0.05000
C 	C 	0.44032 0.06106 0.51944 -0.08600
C 	C 	0.40462 0.06144 0.52633 0.09800
C 	C 	0.38502 0.03363 0.50048 -0.05300
C 	C 	0.40163 0.00379 0.47824 -0.05600
C 	C 	0.43727 0.00329 0.47097 0.06800
H 	H 	0.45517 0.08360 0.53368 0.05100
N 	N 	0.38935 0.08862 0.55711 -0.19900
H 	H 	0.38653 0.98184 0.46139 0.04700
N 	N 	0.45249 0.97490 0.44425 -0.19300
H 	H 	0.40394 0.10943 0.57487 0.08100
H 	H 	0.36312 0.08870 0.56621 0.09200
H 	H 	0.43788 0.95332 0.43073 0.08100
H 	H 	0.47879 0.97384 0.43651 0.08700
H 	H 	0.48323 0.08466 0.33278 0.08200
H 	H 	0.45089 0.07071 0.38788 0.08900
H 	H 	0.59375 0.98254 0.47764 0.09100
H 	H 	0.56795 0.98204 0.54995 0.08600
C 	C 	0.35284 0.05001 0.77015 -0.05200
C 	C 	0.36123 0.02774 0.71615 0.09900
C 	C 	0.39429 0.02895 0.68989 -0.08600
C 	C 	0.42031 0.04763 0.72284 -0.00600
C 	C 	0.41192 0.07018 0.77609 0.06900
C 	C 	0.37791 0.07229 0.79691 -0.05400
N 	N 	0.33875 0.00364 0.69248 -0.20000
H 	H 	0.40069 0.01242 0.64801 0.05600
C 	C 	0.45646 0.04067 0.70588 -0.00500
N 	N 	0.43641 0.08919 0.80846 -0.19400
H 	H 	0.37130 0.09010 0.83671 0.04700
C 	C 	0.47479 0.06530 0.67121 -0.08600
C 	C 	0.51042 0.06262 0.66488 0.09700
C 	C 	0.52789 0.03516 0.69499 -0.05300
C 	C 	0.50908 0.00829 0.72166 -0.05600
C 	C 	0.47358 0.01114 0.72930 0.06800
H 	H 	0.46161 0.08772 0.65289 0.05000
N 	N 	0.52767 0.08661 0.63057 -0.20000
H 	H 	0.52249 0.98645 0.74194 0.04700
N 	N 	0.45644 0.98625 0.76159 -0.19300
H 	H 	0.51463 0.10722 0.60964 0.08100
H 	H 	0.55384 0.08430 0.62204 0.09100
H 	H 	0.46935 0.96450 0.77810 0.08100
H 	H 	0.43043 0.98835 0.77166 0.08700
H 	H 	0.42978 0.10605 0.84712 0.08000
H 	H 	0.46223 0.08707 0.79674 0.08700
H 	H 	0.31710 0.99688 0.71880 0.09200
H 	H 	0.34449 0.98905 0.65007 0.08600
C 	C 	0.61615 0.04505 0.86795 -0.05700
C 	C 	0.60135 0.06962 0.91159 0.10700
C 	C 	0.60499 0.06571 0.98027 -0.11100
C 	C 	0.62541 0.03942 0.00591 0.01700
C 	C 	0.64286 0.01682 0.96216 0.05200
C 	C 	0.63756 0.01949 0.89357 -0.04700
N 	N 	0.58470 0.09754 0.88796 -0.20100
H 	H 	0.59243 0.08357 0.01387 0.06400
C 	C 	0.62737 0.03509 0.07866 -0.01300
N 	N 	0.66475 0.99265 0.98556 -0.19500
H 	H 	0.64956 0.00114 0.86014 0.04700
C 	C 	0.60781 0.00928 0.10732 -0.08400
C 	C 	0.60905 0.00433 0.17596 0.09600
C 	C 	0.62819 0.02739 0.21712 -0.04900
C 	C 	0.64805 0.05298 0.18836 -0.05500
C 	C 	0.64833 0.05668 0.11937 0.07200
H 	H 	0.59229 0.99238 0.07588 0.05500
N 	N 	0.59294 0.97676 0.20158 -0.19800
H 	H 	0.66310 0.07031 0.21980 0.04900
N 	N 	0.66891 0.08077 0.09267 -0.19500
H 	H 	0.57753 0.96087 0.17136 0.08300
H 	H 	0.59710 0.96968 0.25055 0.09000
H 	H 	0.68378 0.09702 0.12322 0.08500
H 	H 	0.67100 0.08313 0.04154 0.09000
H 	H 	0.67688 0.97556 0.95296 0.07600
H 	H 	0.67070 0.99116 0.03592 0.08800
H 	H 	0.58556 0.10367 0.83798 0.08900
H 	H 	0.57239 0.11463 0.92032 0.08100
C 	C 	0.91618 0.09958 0.33503 -0.07500
C 	C 	0.94214 0.11178 0.31534 -0.08900
C 	C 	0.97375 0.99512 0.44254 -0.11300
C 	C 	0.00301 0.98556 0.45193 -0.12400
C 	C 	0.73589 0.05519 0.47892 -0.02600
C 	C 	0.75537 0.02549 0.46732 -0.08900
C 	C 	0.73851 0.99452 0.44909 0.10000
C 	C 	0.70358 0.99510 0.43232 -0.06800
C 	C 	0.68533 0.02601 0.43429 -0.02700
C 	C 	0.70082 0.05568 0.46257 0.05000
C 	C 	0.68072 0.08843 0.47118 -0.18200
H 	H 	0.74856 0.07867 0.49549 0.03600
H 	H 	0.69120 0.97194 0.41320 0.04800
C 	C 	0.75853 0.96186 0.43840 -0.20500
H 	H 	0.69538 0.10810 0.50035 0.06100
H 	H 	0.65670 0.08331 0.49796 0.07200
H 	H 	0.67439 0.09908 0.42199 0.07000
H 	H 	0.77958 0.95983 0.47553 0.09200
H 	H 	0.76951 0.96147 0.38803 0.08400
H 	H 	0.74190 0.93895 0.44316 0.06900
C 	C 	0.91198 0.99791 0.74420 -0.12100
C 	C 	0.94068 0.00950 0.75299 -0.12600
C 	C 	0.80493 0.06333 0.88676 -0.11200
C 	C 	0.79404 0.04272 0.84698 -0.12800
C 	C 	0.70969 0.02593 0.61665 -0.02900
C 	C 	0.71008 0.99064 0.60129 -0.08500
C 	C 	0.67866 0.97341 0.59025 0.08600
C 	C 	0.64817 0.98923 0.61054 -0.06200
C 	C 	0.64892 0.02249 0.63847 -0.03200
C 	C 	0.67899 0.04225 0.63366 0.05400
C 	C 	0.67919 0.07984 0.65264 -0.18300
H 	H 	0.73362 0.03991 0.62145 0.05300
H 	H 	0.62463 0.97451 0.61052 0.04800
C 	C 	0.67787 0.93682 0.56482 -0.19700
H 	H 	0.69986 0.09351 0.62669 0.06300
H 	H 	0.68352 0.08299 0.70683 0.07400
H 	H 	0.65452 0.09202 0.63868 0.06600
H 	H 	0.67914 0.91914 0.60712 0.07500
H 	H 	0.69972 0.93151 0.53165 0.06800
H 	H 	0.65395 0.93170 0.53595 0.06500
C 	C 	0.97843 0.55365 0.24181 -0.04900
C 	C 	0.00498 0.53443 0.21187 0.09600
C 	C 	0.00262 0.49848 0.20853 -0.08900
C 	C 	0.97443 0.48148 0.23480 -0.00300
C 	C 	0.94679 0.50086 0.26059 0.06900
C 	C 	0.94880 0.53685 0.26226 -0.05300
N 	N 	0.03302 0.55022 0.18743 -0.20100
H 	H 	0.02340 0.48359 0.18748 0.05100
C 	C 	0.97630 0.44380 0.24287 -0.00900
N 	N 	0.91877 0.48516 0.28536 -0.19400
H 	H 	0.92813 0.55175 0.28371 0.04600
C 	C 	0.99773 0.43084 0.29256 -0.08000
C 	C 	0.00073 0.39537 0.30133 0.09400
C 	C 	0.98009 0.37258 0.26257 -0.04700
C 	C 	0.95956 0.38537 0.21136 -0.05600
C 	C 	0.95766 0.42083 0.20064 0.07100
H 	H 	0.01265 0.44844 0.32367 0.05100
N 	N 	0.02419 0.38332 0.34545 -0.19800
H 	H 	0.94434 0.36778 0.18079 0.05000
N 	N 	0.93724 0.43262 0.15112 -0.19600
H 	H 	0.03809 0.40033 0.37619 0.08100
H 	H 	0.03022 0.35725 0.34712 0.08900
H 	H 	0.92269 0.41547 0.12194 0.08800
H 	H 	0.93543 0.45874 0.14131 0.08900
H 	H 	0.89858 0.49974 0.30436 0.08200
H 	H 	0.91666 0.45848 0.28620 0.08800
H 	H 	0.03510 0.57691 0.18706 0.08900
H 	H 	0.05288 0.53573 0.16690 0.07900
C 	C 	0.94397 0.57052 0.95994 -0.06000
C 	C 	0.91469 0.55379 0.93302 0.10000
C 	C 	0.91104 0.51824 0.93982 -0.08500
C 	C 	0.93527 0.49950 0.97594 -0.01600
C 	C 	0.96235 0.51705 0.00959 0.07600
C 	C 	0.96643 0.55251 0.00115 -0.04500
N 	N 	0.89021 0.57172 0.90007 -0.20000
H 	H 	0.88978 0.50498 0.91550 0.05200
C 	C 	0.93440 0.46141 0.97129 -0.00200
N 	N 	0.98499 0.49990 0.04835 -0.19400
H 	H 	0.98820 0.56571 0.02381 0.04800
C 	C 	0.96083 0.44404 0.93829 -0.08900
C 	C 	0.95965 0.40829 0.92867 0.10000
C 	C 	0.92980 0.39012 0.94592 -0.05300
C 	C 	0.90351 0.40737 0.97948 -0.05300
C 	C 	0.90603 0.44268 0.99427 0.05800
H 	H 	0.98269 0.45834 0.92116 0.05400
N 	N 	0.98759 0.39149 0.90507 -0.19800
H 	H 	0.88102 0.39329 0.99421 0.04400
N 	N 	0.88166 0.45821 0.03183 -0.19100
H 	H 	0.00880 0.40525 0.88915 0.08000
H 	H 	0.98944 0.36478 0.90628 0.08900
H 	H 	0.86016 0.44450 0.04647 0.08100
H 	H 	0.88468 0.48337 0.04981 0.08600
H 	H 	0.00684 0.51228 0.06729 0.08300
H 	H 	0.98082 0.47443 0.06106 0.08900
H 	H 	0.89108 0.59848 0.89827 0.08800
H 	H 	0.86927 0.55904 0.87801 0.08100
C 	C 	0.97852 0.63794 0.77135 -0.04800
C 	C 	0.00892 0.65260 0.74692 0.09700
C 	C 	0.01315 0.65501 0.67826 -0.08900
C 	C 	0.98874 0.64106 0.63384 -0.00500
C 	C 	0.95910 0.62499 0.65832 0.07000
C 	C 	0.95390 0.62443 0.72681 -0.05400
N 	N 	0.03460 0.66317 0.78874 -0.19900
H 	H 	0.03602 0.66690 0.65932 0.05200
C 	C 	0.99490 0.64267 0.56180 -0.00500
N 	N 	0.93578 0.60976 0.61651 -0.19400
H 	H 	0.93077 0.61298 0.74561 0.04800
C 	C 	0.01778 0.61934 0.53265 -0.08800
C 	C 	0.02090 0.61708 0.46359 0.09800
C 	C 	0.99895 0.63681 0.42311 -0.04900
C 	C 	0.97794 0.66192 0.45236 -0.05500
C 	C 	0.97632 0.66559 0.52151 0.06900
H 	H 	0.03308 0.60281 0.56378 0.05300
N 	N 	0.04562 0.59684 0.43661 -0.19900
H 	H 	0.96206 0.67796 0.42134 0.05100
N 	N 	0.95664 0.69080 0.54883 -0.19400
H 	H 	0.06056 0.58105 0.46655 0.08200
H 	H 	0.05162 0.59813 0.38655 0.09000
H 	H 	0.94212 0.70688 0.51873 0.08100
H 	H 	0.95637 0.69538 0.59991 0.08700
H 	H 	0.91361 0.59870 0.63506 0.08200
H 	H 	0.93973 0.60791 0.56560 0.08800
H 	H 	0.03427 0.65785 0.83910 0.08700
H 	H 	0.05621 0.67536 0.77038 0.08100
C 	C 	0.91574 0.97780 0.96102 -0.12000
C 	C 	0.91215 0.00871 0.96746 -0.13000
C 	C 	0.87197 0.86868 0.79840 -0.09200
C 	C 	0.84871 0.88204 0.76956 -0.08300
C 	C 	0.02886 0.92870 0.90589 -0.11400
C 	C 	0.04320 0.95286 0.88325 -0.13000
C 	C 	0.93231 0.71247 0.99562 -0.07400
C 	C 	0.96310 0.69459 0.98767 -0.03600
C 	C 	0.99416 0.71081 0.00586 0.06000
C 	C 	0.99473 0.74645 0.01712 -0.02500
C 	C 	0.96426 0.76544 0.01589 -0.07600
C 	C 	0.93264 0.74781 0.01121 0.09200
C 	C 	0.89932 0.76683 0.01871 -0.19300
H 	H 	0.90822 0.69945 0.98547 0.04600
H 	H 	0.01904 0.75970 0.02254 0.04200
C 	C 	0.02706 0.69077 0.00805 -0.17600
H 	H 	0.87743 0.74885 0.02292 0.06800
H 	H 	0.89471 0.78312 0.97508 0.07000
H 	H 	0.90010 0.78318 0.06440 0.08300
H 	H 	0.03743 0.68796 0.95737 0.06100
H 	H 	0.02268 0.66492 0.02850 0.07000
H 	H 	0.04641 0.70400 0.04035 0.06200
C 	C 	0.00324 0.99248 0.23194 -0.12300
C 	C 	0.00047 0.96166 0.23855 -0.11700
C 	C 	0.87465 0.92966 0.31026 -0.12700
C 	C 	0.89017 0.90555 0.28824 -0.11300
C 	C 	0.07213 0.87364 0.42864 -0.08200
C 	C 	0.04979 0.85844 0.39913 -0.09100
C 	C 	0.94598 0.72288 0.16486 -0.02500
C 	C 	0.97288 0.74657 0.17185 -0.08800
C 	C 	0.00678 0.73430 0.17910 0.08800
C 	C 	0.01224 0.69940 0.19152 -0.07100
C 	C 	0.98441 0.67702 0.19680 -0.02700
C 	C 	0.95182 0.68782 0.17490 0.05200
C 	C 	0.92272 0.66263 0.16731 -0.18300
H 	H 	0.92014 0.73200 0.15615 0.04000
H 	H 	0.03778 0.69043 0.20367 0.04700
C 	C 	0.03677 0.75866 0.18055 -0.20300
H 	H 	0.90087 0.67384 0.13948 0.06600
H 	H 	0.91374 0.65514 0.21684 0.07100
H 	H 	0.93120 0.63941 0.13925 0.07800
H 	H 	0.03712 0.77374 0.22778 0.07700
H 	H 	0.03517 0.77637 0.13837 0.08000
H 	H 	0.06140 0.74462 0.17638 0.06700
