data_crystal

_cell_length_a 18.33688
_cell_length_b 18.84519
_cell_length_c 38.64569
_cell_angle_alpha 95.43897
_cell_angle_beta  95.43929
_cell_angle_gamma 126.43771

_symmetry_space_group_name_	'P 1'
_symmetry_space_group_name_H-M	'P 1'

loop_
_symmetry_equiv_pos_as_xyz
  x,y,z

loop_
_atom_site_label
_atom_site_type_symbol
_atom_site_fract_x
_atom_site_fract_y
_atom_site_fract_z
_atom_site_charge
C 	C 	0.93273 0.00965 0.97039 0.23400
N 	N 	0.02447 0.06414 0.97000 -0.10700
C 	C 	0.07235 0.03045 0.96959 0.24200
N 	N 	0.02839 0.94184 0.96940 -0.09000
C 	C 	0.93678 0.88662 0.96990 0.25800
N 	N 	0.88855 0.92054 0.97061 -0.09400
C 	C 	0.90773 0.01021 0.49716 0.24500
N 	N 	0.99960 0.05964 0.49683 -0.11500
C 	C 	0.04224 0.02044 0.49840 0.25300
N 	N 	0.99292 0.93214 0.50019 -0.10300
C 	C 	0.90081 0.88219 0.49942 0.26800
N 	N 	0.85837 0.92141 0.49809 -0.09900
Cu	Cu	0.78902 0.35885 0.96753 0.93400
Cu	Cu	0.75161 0.28089 0.04124 0.89700
Cu	Cu	0.64339 0.33264 0.00754 0.91500
Cu	Cu	0.61800 0.34618 0.93108 0.91800
C 	C 	0.74168 0.33137 0.89182 0.29600
O 	O 	0.83830 0.48879 0.96502 -0.31900
C 	C 	0.67731 0.34700 0.08475 0.29200
O 	O 	0.64532 0.28750 0.96040 -0.63500
O 	O 	0.77258 0.37441 0.01645 -0.63500
O 	O 	0.84897 0.29930 0.97579 -0.32400
O 	O 	0.73489 0.19843 0.00302 -0.38400
O 	O 	0.70211 0.37023 0.89707 -0.34500
O 	O 	0.52038 0.30141 0.99791 -0.34100
C 	C 	0.46098 0.25698 0.96773 0.39000
C 	C 	0.79167 0.51991 0.97239 0.37400
O 	O 	0.70288 0.46362 0.97263 -0.36600
O 	O 	0.48804 0.27286 0.93711 -0.34000
O 	O 	0.78391 0.32264 0.91867 -0.31700
C 	C 	0.80301 0.22151 0.98640 0.37500
O 	O 	0.64381 0.36365 0.05749 -0.32900
O 	O 	0.74238 0.33699 0.08287 -0.37900
H 	H 	0.60536 0.22117 0.95378 0.18600
H 	H 	0.81666 0.43621 0.03041 0.20500
Cu	Cu	0.57727 0.17683 0.50474 0.93900
Cu	Cu	0.61918 0.17994 0.42432 0.89700
Cu	Cu	0.61685 0.32140 0.46316 0.90900
Cu	Cu	0.62066 0.35857 0.54032 0.92000
C 	C 	0.63990 0.24149 0.57973 0.29200
O 	O 	0.45505 0.14501 0.51441 -0.33100
C 	C 	0.57066 0.27158 0.38522 0.29200
O 	O 	0.66550 0.31706 0.50880 -0.63500
O 	O 	0.54862 0.18908 0.45624 -0.63800
O 	O 	0.61675 0.10118 0.49236 -0.33000
O 	O 	0.71163 0.19498 0.45795 -0.39300
O 	O 	0.60515 0.28546 0.57696 -0.34600
O 	O 	0.69114 0.45086 0.47045 -0.34200
C 	C 	0.70455 0.50536 0.49875 0.39500
C 	C 	0.42782 0.19345 0.50641 0.38800
O 	O 	0.48874 0.27834 0.50448 -0.36200
O 	O 	0.69439 0.48185 0.53013 -0.34000
O 	O 	0.62595 0.18463 0.55237 -0.31400
C 	C 	0.68951 0.13414 0.47748 0.38700
O 	O 	0.57833 0.32175 0.41389 -0.34300
O 	O 	0.55691 0.19495 0.38672 -0.38100
H 	H 	0.73310 0.34930 0.51363 0.19400
H 	H 	0.48218 0.15426 0.44604 0.21900
C 	C 	0.67301 0.23858 0.61543 -0.05600
C 	C 	0.64198 0.15608 0.62496 0.04100
C 	C 	0.65950 0.15171 0.66046 -0.05400
C 	C 	0.70917 0.22981 0.68663 0.06400
C 	C 	0.74424 0.31295 0.67674 -0.05600
C 	C 	0.72672 0.31726 0.64134 0.03100
C 	C 	0.71206 0.22248 0.72447 -0.03800
C 	C 	0.78883 0.28302 0.74882 -0.03800
C 	C 	0.78324 0.29645 0.78647 0.06300
C 	C 	0.81196 0.38053 0.80344 -0.05300
C 	C 	0.79996 0.39232 0.83811 0.03200
C 	C 	0.76052 0.32046 0.85636 -0.05400
C 	C 	0.73592 0.23744 0.84005 0.03300
C 	C 	0.74688 0.22529 0.80512 -0.05300
H 	H 	0.60069 0.09484 0.60520 0.08100
H 	H 	0.63189 0.08722 0.66775 0.08100
H 	H 	0.78132 0.37364 0.69667 0.07200
H 	H 	0.75183 0.38140 0.63423 0.05200
H 	H 	0.64884 0.17100 0.73279 0.06500
H 	H 	0.85289 0.33215 0.74036 0.07000
H 	H 	0.84125 0.43611 0.78941 0.07900
H 	H 	0.82061 0.45711 0.85070 0.08800
H 	H 	0.70645 0.18188 0.85409 0.06900
H 	H 	0.72621 0.16055 0.79247 0.08000
C 	C 	0.56622 0.29624 0.35026 -0.06500
C 	C 	0.60888 0.38640 0.34773 0.02900
C 	C 	0.61940 0.41229 0.31468 -0.05600
C 	C 	0.58729 0.34849 0.28381 0.06100
C 	C 	0.54046 0.25756 0.28621 -0.06100
C 	C 	0.52895 0.23154 0.31915 0.02800
C 	C 	0.61535 0.37911 0.25020 -0.04000
C 	C 	0.56012 0.32934 0.21866 -0.04000
C 	C 	0.59623 0.34733 0.18524 0.06100
C 	C 	0.68340 0.36897 0.18342 -0.05900
C 	C 	0.71177 0.37350 0.15088 0.02900
C 	C 	0.65263 0.35442 0.11957 -0.06000
C 	C 	0.56660 0.33527 0.12149 0.03100
C 	C 	0.53856 0.33159 0.15415 -0.05400
H 	H 	0.63753 0.43709 0.37141 0.07500
H 	H 	0.65558 0.48254 0.31321 0.08300
H 	H 	0.51670 0.20758 0.26278 0.06900
H 	H 	0.49408 0.16144 0.32054 0.05900
H 	H 	0.68326 0.44184 0.25125 0.06700
H 	H 	0.48815 0.27339 0.21748 0.06500
H 	H 	0.72784 0.37908 0.20701 0.07000
H 	H 	0.77886 0.38964 0.14995 0.06100
H 	H 	0.52010 0.32021 0.09760 0.07900
H 	H 	0.47098 0.31421 0.15516 0.08100
C 	C 	0.81630 0.64316 0.47534 0.29300
C 	C 	0.74994 0.60032 0.49690 -0.19800
C 	C 	0.73003 0.64975 0.51791 0.29400
C 	C 	0.77871 0.74171 0.51854 0.26300
C 	C 	0.84630 0.78473 0.49755 -0.13100
C 	C 	0.86317 0.73451 0.47531 0.26000
F 	F 	0.92504 0.77438 0.45358 -0.34100
F 	F 	0.83731 0.59687 0.45517 -0.37700
F 	F 	0.76181 0.78948 0.54019 -0.34300
F 	F 	0.66356 0.60858 0.53779 -0.36600
C 	C 	0.84473 0.07013 0.46063 0.25700
C 	C 	0.86010 0.05046 0.49339 -0.12900
C 	C 	0.82024 0.05919 0.52114 0.26000
C 	C 	0.76447 0.08653 0.51606 0.29400
C 	C 	0.74716 0.10416 0.48295 -0.20400
C 	C 	0.78793 0.09609 0.45529 0.29000
F 	F 	0.77033 0.11095 0.42293 -0.39800
F 	F 	0.88209 0.06069 0.43352 -0.36600
F 	F 	0.72842 0.09710 0.54343 -0.38000
F 	F 	0.83510 0.04053 0.55298 -0.35500
C 	C 	0.20635 0.15246 0.52116 0.25600
C 	C 	0.14085 0.07218 0.49685 -0.12000
C 	C 	0.17060 0.03590 0.47380 0.23400
C 	C 	0.26457 0.07625 0.47662 0.30100
C 	C 	0.32971 0.15421 0.50197 -0.20900
C 	C 	0.30050 0.19350 0.52363 0.29900
F 	F 	0.36320 0.26945 0.54804 -0.37700
F 	F 	0.17861 0.18834 0.54352 -0.35300
F 	F 	0.29239 0.03950 0.45477 -0.39800
F 	F 	0.10814 0.96072 0.44901 -0.31200
C 	C 	0.82188 0.66309 0.99926 0.28700
C 	C 	0.83353 0.61559 0.97287 -0.19400
C 	C 	0.87242 0.65522 0.94414 0.29100
C 	C 	0.90004 0.74150 0.94195 0.26000
C 	C 	0.89012 0.78977 0.96866 -0.12300
C 	C 	0.85018 0.74979 0.99719 0.25900
F 	F 	0.84150 0.79598 0.02348 -0.33700
F 	F 	0.78353 0.62535 0.02701 -0.37300
F 	F 	0.93737 0.77874 0.91397 -0.35700
F 	F 	0.88078 0.60900 0.91772 -0.38100
C 	C 	0.88190 0.09319 0.94447 0.25700
C 	C 	0.88256 0.04843 0.97152 -0.13100
C 	C 	0.85253 0.05708 0.00263 0.26100
C 	C 	0.82694 0.11367 0.00751 0.29400
C 	C 	0.82992 0.16146 0.98104 -0.20600
C 	C 	0.85564 0.14932 0.94918 0.29300
F 	F 	0.85481 0.19145 0.92269 -0.37800
F 	F 	0.90937 0.08430 0.91400 -0.35300
F 	F 	0.80263 0.12470 0.03854 -0.40000
F 	F 	0.85310 0.01459 0.02902 -0.35700
C 	C 	0.32692 0.14134 0.99258 0.28500
C 	C 	0.36166 0.20017 0.96845 -0.20100
C 	C 	0.30113 0.20447 0.94519 0.29700
C 	C 	0.20663 0.14919 0.94563 0.25900
C 	C 	0.17192 0.08997 0.96960 -0.12700
C 	C 	0.23262 0.08684 0.99327 0.25100
F 	F 	0.20021 0.03157 0.01719 -0.36300
F 	F 	0.38454 0.13612 0.01503 -0.39500
F 	F 	0.14852 0.15211 0.92236 -0.34400
F 	F 	0.33408 0.26322 0.92257 -0.36700
