data_crystal

_cell_length_a 24.82822
_cell_length_b 22.25912
_cell_length_c 31.58068
_cell_angle_alpha 103.99811
_cell_angle_beta  115.91038
_cell_angle_gamma 111.59888

_symmetry_space_group_name_	'P 1'
_symmetry_space_group_name_H-M	'P 1'

loop_
_symmetry_equiv_pos_as_xyz
  x,y,z

loop_
_atom_site_label
_atom_site_type_symbol
_atom_site_fract_x
_atom_site_fract_y
_atom_site_fract_z
_atom_site_charge
C 	C 	0.75916 0.52622 0.95584 -0.00900
C 	C 	0.77856 0.53965 0.00762 -0.02000
C 	C 	0.76063 0.48103 0.01862 -0.07100
C 	C 	0.72339 0.40867 0.97807 0.08400
C 	C 	0.69906 0.39488 0.92514 -0.07200
C 	C 	0.71724 0.45358 0.91425 -0.01800
N 	N 	0.71794 0.35097 0.99238 -0.14500
C 	C 	0.53447 0.23695 0.98842 -0.00800
C 	C 	0.52750 0.25323 0.94678 -0.01700
C 	C 	0.58708 0.28900 0.94690 -0.07100
C 	C 	0.65458 0.30949 0.98915 0.08600
C 	C 	0.66073 0.29051 0.02950 -0.07100
C 	C 	0.60102 0.25436 0.02916 -0.02000
C 	C 	0.79367 0.22793 0.94045 -0.01400
C 	C 	0.72062 0.20078 0.90948 -0.01300
C 	C 	0.69518 0.24097 0.92607 -0.07400
C 	C 	0.74289 0.30898 0.97387 0.08900
C 	C 	0.81602 0.33715 0.00350 -0.07800
C 	C 	0.84135 0.29694 0.98698 -0.00700
H 	H 	0.81038 0.59571 0.03984 0.05200
H 	H 	0.77870 0.49200 0.05927 0.05700
H 	H 	0.66846 0.33912 0.89303 0.05400
H 	H 	0.70130 0.44279 0.87398 0.04000
H 	H 	0.47618 0.23962 0.91497 0.05000
H 	H 	0.58067 0.30052 0.91428 0.05600
H 	H 	0.71224 0.30514 0.06172 0.05700
H 	H 	0.60674 0.24134 0.06119 0.04100
H 	H 	0.68344 0.14777 0.87331 0.04300
H 	H 	0.63876 0.21954 0.90181 0.05700
H 	H 	0.85310 0.38986 0.03990 0.05900
H 	H 	0.89781 0.31818 0.01136 0.03800
C 	C 	0.67856 0.48522 0.42391 -0.01300
C 	C 	0.69634 0.49227 0.47428 -0.01700
C 	C 	0.67476 0.42959 0.48054 -0.06900
C 	C 	0.63562 0.35951 0.43666 0.08400
C 	C 	0.61313 0.35224 0.38528 -0.07200
C 	C 	0.63471 0.41497 0.37906 -0.01600
N 	N 	0.62679 0.29739 0.44596 -0.14400
C 	C 	0.44073 0.18030 0.43822 -0.00100
C 	C 	0.43616 0.20372 0.40000 -0.02000
C 	C 	0.49637 0.23987 0.40087 -0.06200
C 	C 	0.56215 0.25385 0.44063 0.08100
C 	C 	0.56554 0.22706 0.47697 -0.06500
C 	C 	0.50516 0.19030 0.47573 -0.02000
C 	C 	0.70201 0.17765 0.38968 -0.01800
C 	C 	0.62932 0.15196 0.35831 -0.01300
C 	C 	0.60415 0.19154 0.37608 -0.07300
C 	C 	0.65171 0.25715 0.42559 0.08600
C 	C 	0.72460 0.28426 0.45549 -0.07100
C 	C 	0.74970 0.24486 0.43770 -0.01200
H 	H 	0.72949 0.54642 0.50900 0.04500
H 	H 	0.69151 0.43556 0.52004 0.05700
H 	H 	0.58137 0.29830 0.35075 0.05400
H 	H 	0.62000 0.40910 0.33987 0.03700
H 	H 	0.38641 0.19560 0.37052 0.08000
H 	H 	0.49183 0.25710 0.37095 0.06000
H 	H 	0.61561 0.23643 0.50707 0.05800
H 	H 	0.50890 0.17136 0.50485 0.04400
H 	H 	0.59215 0.10041 0.32096 0.04300
H 	H 	0.54800 0.17125 0.35161 0.05900
H 	H 	0.76160 0.33528 0.49318 0.05800
H 	H 	0.80588 0.26502 0.46234 0.04100
C 	C 	0.37618 0.57235 0.00925 -0.02000
C 	C 	0.40597 0.63096 0.05848 -0.01900
C 	C 	0.44355 0.70384 0.06941 -0.07300
C 	C 	0.45150 0.71906 0.03123 0.07800
C 	C 	0.42232 0.66027 0.98201 -0.07000
C 	C 	0.38477 0.58732 0.97113 -0.01500
N 	N 	0.48737 0.79475 0.04234 -0.14200
C 	C 	0.64570 0.85704 0.01210 0.00400
C 	C 	0.57840 0.84273 0.97541 -0.02800
C 	C 	0.52576 0.82130 0.98458 -0.06500
C 	C 	0.54035 0.81525 0.03127 0.07100
C 	C 	0.60764 0.82961 0.06781 -0.05700
C 	C 	0.65991 0.85005 0.05822 -0.03000
C 	C 	0.35289 0.87800 0.00472 -0.02300
C 	C 	0.42064 0.91974 0.05378 -0.02100
C 	C 	0.46522 0.89277 0.06527 -0.07500
C 	C 	0.44254 0.82386 0.02798 0.07600
C 	C 	0.37495 0.78261 0.97835 -0.07300
C 	C 	0.33041 0.80948 0.96700 -0.01700
H 	H 	0.39952 0.62001 0.08812 0.03100
H 	H 	0.46580 0.74866 0.10732 0.04700
H 	H 	0.42772 0.67105 0.95201 0.05100
H 	H 	0.36230 0.54249 0.93311 0.03900
H 	H 	0.56677 0.84787 0.93965 0.03200
H 	H 	0.47369 0.80856 0.95515 0.04600
H 	H 	0.61929 0.82475 0.10365 0.05100
H 	H 	0.71126 0.85997 0.08645 0.09200
H 	H 	0.43875 0.97299 0.08297 0.02600
H 	H 	0.51709 0.92495 0.10349 0.04500
H 	H 	0.35731 0.73045 0.94838 0.04800
H 	H 	0.27835 0.77701 0.92888 0.03200
C 	C 	0.29135 0.52355 0.46778 -0.01300
C 	C 	0.32151 0.58025 0.51804 -0.02000
C 	C 	0.35882 0.65398 0.53060 -0.07100
C 	C 	0.36616 0.67197 0.49307 0.08100
C 	C 	0.33630 0.61509 0.44269 -0.07200
C 	C 	0.29900 0.54126 0.43017 -0.02000
N 	N 	0.40256 0.74854 0.50624 -0.14300
C 	C 	0.56056 0.81573 0.47608 -0.01100
C 	C 	0.49269 0.80022 0.43941 -0.02300
C 	C 	0.44024 0.77748 0.44868 -0.07300
C 	C 	0.45548 0.77089 0.49527 0.07900
C 	C 	0.52335 0.78651 0.53180 -0.06700
C 	C 	0.57556 0.80863 0.52225 -0.02100
C 	C 	0.27031 0.83450 0.47474 -0.01700
C 	C 	0.33766 0.87387 0.52386 -0.02100
C 	C 	0.38156 0.84612 0.53336 -0.07300
C 	C 	0.35848 0.77867 0.49404 0.08000
C 	C 	0.29119 0.73973 0.44443 -0.07500
C 	C 	0.24746 0.76755 0.43499 -0.02000
H 	H 	0.31572 0.56715 0.54728 0.03400
H 	H 	0.38154 0.69732 0.56937 0.05000
H 	H 	0.34118 0.62800 0.41315 0.04900
H 	H 	0.27615 0.49791 0.39133 0.03900
H 	H 	0.48049 0.80542 0.40360 0.03000
H 	H 	0.38777 0.76399 0.41936 0.04700
H 	H 	0.53551 0.78137 0.56760 0.05500
H 	H 	0.62751 0.81976 0.55056 0.05600
H 	H 	0.35596 0.92586 0.55465 0.03100
H 	H 	0.43318 0.87646 0.57159 0.04800
H 	H 	0.27318 0.68867 0.41305 0.04700
H 	H 	0.19570 0.73700 0.39680 0.03200
Zn	Zn	0.20559 0.17668 0.01966 1.18800
Zn	Zn	0.08997 0.11970 0.90211 1.19700
O 	O 	0.08072 0.00228 0.81552 -0.43200
O 	O 	0.05338 0.09003 0.82387 -0.39700
O 	O 	0.08904 0.91106 0.88825 -0.49500
C 	C 	0.28560 0.14584 0.98665 0.31100
O 	O 	0.02406 0.01751 0.88131 -0.89000
C 	C 	0.21561 0.27946 0.97464 0.31900
O 	O 	0.28862 0.17615 0.02948 -0.45800
O 	O 	0.22462 0.10873 0.93899 -0.33900
O 	O 	0.10972 0.12865 0.97421 -0.78500
O 	O 	0.14560 0.00735 0.97014 -0.40500
O 	O 	0.16334 0.22298 0.92567 -0.44400
O 	O 	0.23189 0.27187 0.01795 -0.46300
Zn	Zn	0.89633 0.89218 0.90195 1.17700
Zn	Zn	0.02265 0.93190 0.00113 1.17400
Zn	Zn	0.04956 0.02640 0.95056 1.21700
C 	C 	0.89611 0.78107 0.93954 0.32300
C 	C 	0.85907 0.93675 0.97017 0.29800
O 	O 	0.95482 0.04975 0.93220 -0.42800
Zn	Zn	0.02720 0.06635 0.04139 1.19900
O 	O 	0.96568 0.82575 0.97619 -0.43800
O 	O 	0.86132 0.79455 0.90141 -0.45500
O 	O 	0.83926 0.91660 0.92055 -0.48400
O 	O 	0.92386 0.95710 0.00759 -0.47400
C 	C 	0.05920 0.00858 0.11403 0.44400
O 	O 	0.98836 0.92436 0.92685 -0.78900
C 	C 	0.94900 0.09430 0.96360 0.32400
O 	O 	0.05300 0.95512 0.07869 -0.46900
O 	O 	0.06744 0.06852 0.11037 -0.45000
O 	O 	0.98110 0.11231 0.01452 -0.46700
O 	O 	0.07448 0.03472 0.01948 -0.89000
Zn	Zn	0.04851 0.95630 0.85288 1.18100
C 	C 	0.05686 0.03946 0.79536 0.32000
C 	C 	0.14117 0.95089 0.93960 0.26400
H 	H 	0.12629 0.06112 0.04753 0.17800
H 	H 	0.97335 0.00003 0.85647 0.23000
Zn	Zn	0.12332 0.13140 0.48061 1.19300
Zn	Zn	0.00977 0.07001 0.36318 1.19500
O 	O 	0.01276 0.94706 0.28910 -0.48800
O 	O 	0.98360 0.03311 0.28706 -0.35000
O 	O 	0.00414 0.86117 0.36250 -0.50800
C 	C 	0.19749 0.09395 0.44417 0.31000
O 	O 	0.94400 0.96944 0.34518 -0.87000
C 	C 	0.13398 0.23039 0.43287 0.31800
O 	O 	0.20417 0.12757 0.48818 -0.44400
O 	O 	0.13458 0.05544 0.39789 -0.34300
O 	O 	0.02744 0.08511 0.43572 -0.77900
O 	O 	0.06404 0.96579 0.44025 -0.47800
O 	O 	0.08230 0.17242 0.38448 -0.44600
O 	O 	0.15053 0.22513 0.47701 -0.45700
Zn	Zn	0.81501 0.85110 0.36999 1.17400
Zn	Zn	0.94131 0.90010 0.47225 1.18600
Zn	Zn	0.96734 0.98464 0.41539 1.20900
C 	C 	0.81756 0.74675 0.41401 0.32400
C 	C 	0.77519 0.89782 0.43567 0.31600
O 	O 	0.87106 0.00685 0.39102 -0.43200
Zn	Zn	0.94066 0.03083 0.50311 1.21200
O 	O 	0.88577 0.79593 0.45331 -0.44700
O 	O 	0.78296 0.75609 0.37306 -0.46100
O 	O 	0.75613 0.87516 0.38612 -0.49200
O 	O 	0.84082 0.92224 0.47457 -0.48500
C 	C 	0.99152 0.99335 0.58754 0.25700
O 	O 	0.90729 0.88438 0.39598 -0.79500
C 	C 	0.86042 0.04956 0.41916 0.33300
O 	O 	0.97796 0.93357 0.55198 -0.38400
O 	O 	0.98443 0.04391 0.57555 -0.36400
O 	O 	0.89030 0.07011 0.47033 -0.47200
O 	O 	0.99119 0.00002 0.48517 -0.83400
Zn	Zn	0.96825 0.90408 0.32179 1.20500
C 	C 	0.99918 0.98795 0.26758 0.35800
C 	C 	0.05801 0.90560 0.41310 0.31700
H 	H 	0.04291 0.02835 0.51406 0.16400
H 	H 	0.89337 0.95125 0.31924 0.15800
C 	C 	0.09518 0.05977 0.73704 0.06100
C 	C 	0.03950 0.02846 0.74217 -0.00700
C 	C 	0.96808 0.98196 0.69595 -0.10300
C 	C 	0.95380 0.96890 0.64524 0.02100
C 	C 	0.00940 0.00077 0.64016 0.03800
C 	C 	0.08095 0.04531 0.68616 -0.11200
C 	C 	0.14184 0.07890 0.68112 0.78300
H 	H 	0.14962 0.09507 0.77279 0.07200
H 	H 	0.89926 0.93508 0.60960 0.07400
C 	C 	0.90722 0.94679 0.70079 0.74200
F 	F 	0.20755 0.11207 0.72917 -0.45400
F 	F 	0.14011 0.13161 0.66567 -0.47300
F 	F 	0.13536 0.02472 0.64301 -0.45900
F 	F 	0.90572 0.00120 0.73168 -0.42600
F 	F 	0.91673 0.90380 0.72493 -0.50900
F 	F 	0.84171 0.90227 0.65117 -0.46500
C 	C 	0.97581 0.95048 0.13533 0.10500
C 	C 	0.04631 0.99631 0.15324 -0.15500
C 	C 	0.10183 0.03745 0.20884 -0.03900
C 	C 	0.08465 0.03672 0.24572 0.09900
C 	C 	0.01386 0.99252 0.22782 -0.11600
C 	C 	0.95882 0.94808 0.17217 -0.07600
C 	C 	0.88194 0.89959 0.15217 0.76800
H 	H 	0.93391 0.91877 0.09257 0.05300
H 	H 	0.12636 0.07013 0.28852 0.05900
C 	C 	0.17898 0.08398 0.22894 0.76300
F 	F 	0.83624 0.85962 0.09664 -0.47300
F 	F 	0.86029 0.94307 0.16963 -0.48600
F 	F 	0.87618 0.85018 0.17192 -0.48600
F 	F 	0.19111 0.14677 0.22383 -0.45900
F 	F 	0.19372 0.04448 0.19941 -0.45000
F 	F 	0.22555 0.10502 0.28237 -0.46600
C 	C 	0.17896 0.39875 0.41350 -0.06900
C 	C 	0.25228 0.44571 0.45485 0.03600
C 	C 	0.28738 0.41964 0.48613 -0.06800
C 	C 	0.24906 0.34841 0.47768 0.02500
C 	C 	0.17522 0.30237 0.43776 -0.09400
C 	C 	0.14060 0.32724 0.40488 0.02400
H 	H 	0.15140 0.41826 0.38902 0.04700
H 	H 	0.34411 0.45509 0.51764 0.05100
H 	H 	0.27661 0.32929 0.50260 0.03300
H 	H 	0.08371 0.29214 0.37381 0.02900
C 	C 	0.65292 0.81136 0.40770 0.02500
C 	C 	0.71972 0.87788 0.44541 -0.10300
C 	C 	0.73408 0.92409 0.49319 0.02800
C 	C 	0.68201 0.90417 0.50303 -0.06700
C 	C 	0.61531 0.83751 0.46538 0.03700
C 	C 	0.60111 0.79120 0.41772 -0.07200
H 	H 	0.64157 0.77460 0.37108 0.02600
H 	H 	0.78542 0.97550 0.52259 0.02500
H 	H 	0.69347 0.94049 0.53986 0.05700
H 	H 	0.55019 0.73927 0.38867 0.04700
C 	C 	0.19298 0.86602 0.49260 -0.07500
C 	C 	0.22378 0.86348 0.46452 0.03400
C 	C 	0.20523 0.88261 0.42342 -0.07700
C 	C 	0.15317 0.89963 0.40827 0.02400
C 	C 	0.11970 0.89845 0.43445 -0.11600
C 	C 	0.14122 0.88374 0.47770 0.02500
H 	H 	0.20737 0.85189 0.52469 0.04900
H 	H 	0.22954 0.88202 0.40211 0.04400
H 	H 	0.13735 0.91170 0.37518 0.01400
H 	H 	0.11606 0.88328 0.49841 0.01600
C 	C 	0.36981 0.47025 0.03085 -0.07400
C 	C 	0.33605 0.49535 0.99775 0.04200
C 	C 	0.26321 0.44804 0.95530 -0.07100
C 	C 	0.22410 0.37688 0.94690 0.02400
C 	C 	0.25745 0.35258 0.98107 -0.09300
C 	C 	0.33074 0.39929 0.02260 0.02100
H 	H 	0.42616 0.50600 0.06332 0.04800
H 	H 	0.23663 0.46689 0.92952 0.05000
H 	H 	0.16765 0.34138 0.91468 0.03300
H 	H 	0.35740 0.38072 0.04860 0.03000
C 	C 	0.76846 0.94281 0.03975 -0.01600
C 	C 	0.70066 0.87758 0.00150 0.02500
C 	C 	0.68522 0.83196 0.95300 -0.04800
C 	C 	0.73657 0.85176 0.94251 0.01100
C 	C 	0.80428 0.91703 0.98065 -0.06700
C 	C 	0.82017 0.96216 0.02951 -0.04500
H 	H 	0.78106 0.97845 0.07734 0.05500
H 	H 	0.63353 0.78099 0.92354 0.04600
H 	H 	0.72407 0.81572 0.90510 0.03300
H 	H 	0.87240 0.01234 0.05942 0.09500
C 	C 	0.22800 0.93519 0.00732 0.01000
C 	C 	0.20163 0.94146 0.96033 -0.09800
C 	C 	0.23009 0.93378 0.93100 0.01500
C 	C 	0.28217 0.91681 0.94713 -0.07700
C 	C 	0.30562 0.90625 0.99232 0.03700
C 	C 	0.27958 0.91722 0.02313 -0.07700
H 	H 	0.20682 0.94163 0.03050 0.01000
H 	H 	0.21087 0.93965 0.89512 0.01700
H 	H 	0.30291 0.90990 0.92367 0.04300
H 	H 	0.29768 0.90969 0.05831 0.04500
C 	C 	0.70274 0.06395 0.37968 -0.09700
C 	C 	0.72667 0.12964 0.37690 0.05500
C 	C 	0.78483 0.15666 0.37374 -0.08100
C 	C 	0.82476 0.12441 0.38125 0.04300
C 	C 	0.80638 0.06493 0.39162 -0.12700
C 	C 	0.74261 0.03181 0.38716 0.10300
H 	H 	0.65684 0.04149 0.38080 0.07000
H 	H 	0.80244 0.20608 0.36987 0.05700
H 	H 	0.87306 0.14930 0.38332 0.02100
H 	H 	0.72700 0.98475 0.39382 -0.02100
C 	C 	0.67456 0.57973 0.39589 -0.07000
C 	C 	0.71319 0.55062 0.41956 0.03800
C 	C 	0.78536 0.58434 0.43955 -0.06900
C 	C 	0.81910 0.64749 0.43669 0.02800
C 	C 	0.78091 0.67754 0.41382 -0.09500
C 	C 	0.70830 0.64306 0.39307 0.02500
H 	H 	0.61873 0.55384 0.38030 0.05100
H 	H 	0.81532 0.56169 0.45748 0.05500
H 	H 	0.87493 0.67313 0.45234 0.04100
H 	H 	0.67844 0.66617 0.37581 0.03000
C 	C 	0.31337 0.09003 0.39776 -0.05100
C 	C 	0.38027 0.15183 0.44215 0.04000
C 	C 	0.38829 0.18963 0.48918 -0.06400
C 	C 	0.32928 0.16809 0.49097 0.02400
C 	C 	0.26138 0.10890 0.44547 -0.08200
C 	C 	0.25416 0.06863 0.39936 0.03300
H 	H 	0.30691 0.05979 0.36156 0.08400
H 	H 	0.43985 0.23724 0.52377 0.05200
H 	H 	0.33598 0.19923 0.52703 0.04100
H 	H 	0.20240 0.02209 0.36422 0.05900
C 	C 	0.79614 0.11548 0.93287 -0.06500
C 	C 	0.81905 0.18020 0.92880 0.04200
C 	C 	0.87553 0.20581 0.92366 -0.06700
C 	C 	0.91415 0.17220 0.92926 0.03000
C 	C 	0.89632 0.11289 0.93985 -0.09600
C 	C 	0.83474 0.08205 0.93849 0.03100
H 	H 	0.75177 0.09440 0.93585 0.05900
H 	H 	0.89247 0.25467 0.91906 0.05600
H 	H 	0.96090 0.19553 0.92922 0.02700
H 	H 	0.81979 0.03545 0.94570 0.04700
C 	C 	0.75866 0.62711 0.93527 -0.06400
C 	C 	0.79089 0.58770 0.94707 0.03900
C 	C 	0.85559 0.60931 0.95316 -0.06700
C 	C 	0.88898 0.67128 0.94903 0.03000
C 	C 	0.85771 0.71188 0.93849 -0.09300
C 	C 	0.79184 0.68892 0.93079 0.03000
H 	H 	0.70866 0.61066 0.93052 0.05800
H 	H 	0.88059 0.57885 0.96210 0.05600
H 	H 	0.93952 0.68821 0.95461 0.04000
H 	H 	0.76750 0.72022 0.92298 0.03600
C 	C 	0.41691 0.22791 0.03493 0.02000
C 	C 	0.35176 0.16297 0.99122 -0.08400
C 	C 	0.34906 0.11834 0.94940 0.02700
C 	C 	0.40981 0.14067 0.94979 -0.06300
C 	C 	0.47366 0.20785 0.99186 0.04000
C 	C 	0.47746 0.25032 0.03513 -0.06900
H 	H 	0.41996 0.26270 0.06763 0.03500
H 	H 	0.29946 0.06754 0.91585 0.04900
H 	H 	0.40673 0.10692 0.91663 0.06300
H 	H 	0.52667 0.30211 0.06793 0.05000
