data_crystal

_cell_length_a 17.10848
_cell_length_b 16.28968
_cell_length_c 38.89297
_cell_angle_alpha 90.86314
_cell_angle_beta  90.97303
_cell_angle_gamma 113.46329

_symmetry_space_group_name_	'P 1'
_symmetry_space_group_name_H-M	'P 1'

loop_
_symmetry_equiv_pos_as_xyz
  x,y,z

loop_
_atom_site_label
_atom_site_type_symbol
_atom_site_fract_x
_atom_site_fract_y
_atom_site_fract_z
_atom_site_charge
Ni	Ni	0.79103 0.39850 0.89202 1.09900
O 	O 	0.68576 0.28610 0.87752 -0.69800
Ni	Ni	0.59595 0.29499 0.90806 1.09700
O 	O 	0.87671 0.35599 0.86899 -0.36900
O 	O 	0.81904 0.22444 0.89663 -0.41500
O 	O 	0.78421 0.45860 0.84630 -0.37500
Ni	Ni	0.69120 0.16813 0.88217 1.07000
O 	O 	0.81328 0.60429 0.91416 -0.40600
O 	O 	0.66377 0.13198 0.93232 -0.38800
O 	O 	0.50065 0.17504 0.89503 -0.38700
O 	O 	0.69906 0.41134 0.92079 -0.69500
O 	O 	0.88790 0.51516 0.90758 -0.37200
O 	O 	0.51209 0.32926 0.93591 -0.36800
O 	O 	0.55459 0.46314 0.90961 -0.41000
Ni	Ni	0.68666 0.52435 0.91148 1.06900
H 	H 	0.66937 0.29180 0.85342 0.14900
H 	H 	0.71470 0.41095 0.94539 0.14900
C 	C 	0.60988 0.15282 0.95022 0.29500
O 	O 	0.69034 0.52066 0.85930 -0.40500
C 	C 	0.87513 0.27638 0.87551 0.30200
C 	C 	0.50630 0.12677 0.86849 0.30300
C 	C 	0.75980 0.52533 0.84419 0.31500
C 	C 	0.51331 0.41013 0.93429 0.27800
C 	C 	0.87097 0.57566 0.92531 0.27700
O 	O 	0.61688 0.23603 0.95140 -0.38400
O 	O 	0.56755 0.09648 0.86688 -0.41000
Ni	Ni	0.67743 0.25260 0.60994 1.09700
O 	O 	0.73520 0.38682 0.62103 -0.70200
Ni	Ni	0.68775 0.43865 0.58291 1.09700
O 	O 	0.74699 0.21917 0.64661 -0.36800
O 	O 	0.87264 0.31489 0.62564 -0.41600
O 	O 	0.58871 0.22823 0.64878 -0.36500
Ni	Ni	0.86019 0.43441 0.61693 1.06500
O 	O 	0.49050 0.12935 0.58614 -0.41100
O 	O 	0.86005 0.40303 0.56614 -0.41100
O 	O 	0.74693 0.56924 0.59859 -0.38000
O 	O 	0.63173 0.30454 0.57079 -0.69800
O 	O 	0.61905 0.12179 0.59534 -0.37300
O 	O 	0.61878 0.47478 0.54681 -0.36700
O 	O 	0.48989 0.37292 0.56316 -0.40500
Ni	Ni	0.50625 0.25579 0.57320 1.06600
H 	H 	0.71913 0.40202 0.64385 0.15400
H 	H 	0.65002 0.29032 0.54826 0.15400
C 	C 	0.84554 0.45282 0.54301 0.29000
O 	O 	0.50789 0.29270 0.62312 -0.42000
C 	C 	0.83028 0.25910 0.64915 0.30300
C 	C 	0.82269 0.59630 0.61360 0.31200
C 	C 	0.51858 0.24335 0.64720 0.31800
C 	C 	0.53596 0.43322 0.54163 0.27500
C 	C 	0.54619 0.09534 0.57822 0.28400
O 	O 	0.77335 0.46417 0.54291 -0.36500
O 	O 	0.87650 0.56098 0.60467 -0.41900
C 	C 	0.07571 0.00750 0.71838 -0.04100
H 	H 	0.07707 0.01637 0.69006 0.04700
C 	C 	0.07180 0.98486 0.78617 -0.04000
H 	H 	0.07071 0.97587 0.81448 0.04800
C 	C 	0.05004 0.07321 0.73909 0.00100
C 	C 	0.01259 0.91579 0.73029 0.00000
C 	C 	0.16130 0.01814 0.73497 0.00200
C 	C 	0.04891 0.06232 0.77394 -0.00000
C 	C 	0.01045 0.90373 0.76502 0.00200
C 	C 	0.15851 0.00478 0.76964 -0.00000
Ni	Ni	0.26225 0.64934 0.41000 1.09800
O 	O 	0.35725 0.76410 0.42961 -0.69700
Ni	Ni	0.33807 0.85771 0.40162 1.10100
O 	O 	0.29987 0.56951 0.44087 -0.36900
O 	O 	0.43396 0.63462 0.42010 -0.40800
O 	O 	0.18533 0.66164 0.44828 -0.39100
Ni	Ni	0.47321 0.77272 0.42332 1.06800
O 	O 	0.11438 0.60675 0.34620 -0.41200
O 	O 	0.46488 0.77177 0.37102 -0.41600
O 	O 	0.42596 0.96637 0.42631 -0.37200
O 	O 	0.25570 0.74139 0.37813 -0.70300
O 	O 	0.16196 0.54064 0.38961 -0.38400
O 	O 	0.28477 0.93740 0.37924 -0.37300
O 	O 	0.15681 0.84159 0.39744 -0.42600
Ni	Ni	0.13524 0.72058 0.37323 1.07400
H 	H 	0.34832 0.77308 0.45423 0.15400
H 	H 	0.27751 0.73298 0.35551 0.16000
C 	C 	0.47321 0.84434 0.35485 0.31500
O 	O 	0.07040 0.64539 0.41350 -0.39000
C 	C 	0.38091 0.58237 0.44230 0.27500
C 	C 	0.49100 0.95686 0.44157 0.28000
C 	C 	0.10273 0.63907 0.44377 0.29800
C 	C 	0.20234 0.91473 0.38139 0.30600
C 	C 	0.13047 0.53921 0.35815 0.31400
O 	O 	0.42169 0.88491 0.36106 -0.36600
O 	O 	0.52835 0.90946 0.42629 -0.40700
Ni	Ni	0.37533 0.71510 0.07946 1.10100
O 	O 	0.25770 0.65626 0.05606 -0.70500
Ni	Ni	0.18493 0.67660 0.09211 1.09800
O 	O 	0.43057 0.64667 0.05091 -0.37000
O 	O 	0.32133 0.51350 0.06127 -0.41300
O 	O 	0.41612 0.81275 0.04253 -0.36500
Ni	Ni	0.21152 0.52770 0.04483 1.07200
O 	O 	0.46542 0.91198 0.10754 -0.41200
O 	O 	0.14177 0.46413 0.08642 -0.39100
O 	O 	0.06919 0.59491 0.07118 -0.37600
O 	O 	0.30407 0.75198 0.11154 -0.70400
O 	O 	0.48750 0.78208 0.10474 -0.37900
O 	O 	0.12913 0.72896 0.12781 -0.36800
O 	O 	0.21252 0.87093 0.11175 -0.41300
Ni	Ni	0.33748 0.88091 0.10900 1.06700
H 	H 	0.25460 0.68942 0.03532 0.15400
H 	H 	0.31184 0.73543 0.13535 0.15600
C 	C 	0.15377 0.49393 0.11847 0.32200
O 	O 	0.32943 0.88380 0.05688 -0.41200
C 	C 	0.39402 0.55927 0.04643 0.26900
C 	C 	0.06189 0.57507 0.03795 0.28100
C 	C 	0.38973 0.87777 0.03795 0.28800
C 	C 	0.15751 0.81629 0.13291 0.29400
C 	C 	0.50139 0.85976 0.11978 0.30700
O 	O 	0.18386 0.58021 0.12601 -0.39300
O 	O 	0.10365 0.53051 0.02380 -0.40100
C 	C 	0.92265 0.06712 0.21281 -0.04000
H 	H 	0.92481 0.06289 0.18429 0.04800
C 	C 	0.91625 0.07630 0.28116 -0.04000
H 	H 	0.91358 0.08042 0.30967 0.04700
C 	C 	0.96919 0.01820 0.23239 0.00000
C 	C 	0.96195 0.16218 0.22842 0.00200
C 	C 	0.83299 0.02808 0.22766 -0.00100
C 	C 	0.96617 0.02295 0.26749 -0.00200
C 	C 	0.95842 0.16661 0.26346 -0.00100
C 	C 	0.82930 0.03264 0.26262 0.00100
C 	C 	0.11808 0.43021 0.14536 -0.10500
C 	C 	0.08512 0.37288 0.16626 0.06700
C 	C 	0.04391 0.30219 0.18920 -0.03100
C 	C 	0.00731 0.23971 0.20761 0.00800
C 	C 	0.57074 0.89673 0.14354 -0.12700
C 	C 	0.62927 0.92702 0.16362 0.07600
C 	C 	0.69834 0.96182 0.18669 -0.04200
C 	C 	0.75882 0.99173 0.20584 0.01400
C 	C 	0.11552 0.85225 0.15675 -0.11500
C 	C 	0.08208 0.88621 0.17610 0.06400
C 	C 	0.04380 0.92958 0.19755 -0.03700
C 	C 	0.01066 0.96895 0.21443 0.00900
C 	C 	0.54557 0.88568 0.33300 -0.11100
C 	C 	0.60863 0.91985 0.31592 0.06500
C 	C 	0.68448 0.95945 0.29687 -0.03400
C 	C 	0.74997 0.99283 0.28116 0.00700
C 	C 	0.09960 0.45786 0.33868 -0.11900
C 	C 	0.07096 0.39097 0.32126 0.07700
C 	C 	0.03447 0.31392 0.30051 -0.03900
C 	C 	0.00085 0.24757 0.28310 0.01400
C 	C 	0.16001 0.94653 0.35620 -0.14200
C 	C 	0.12012 0.96713 0.33476 0.06800
C 	C 	0.06939 0.98672 0.31008 -0.04400
C 	C 	0.02341 0.00242 0.28991 0.00900
C 	C 	0.60366 0.05507 0.52536 -0.01800
C 	C 	0.53390 0.04209 0.54641 -0.08800
C 	C 	0.45115 0.98955 0.53420 -0.01600
C 	C 	0.43751 0.95809 0.50022 -0.01500
C 	C 	0.50663 0.97832 0.47828 -0.09600
C 	C 	0.58994 0.02325 0.49134 -0.01200
H 	H 	0.66807 0.09439 0.53469 0.03100
H 	H 	0.39710 0.97674 0.55057 0.03700
H 	H 	0.37301 0.92039 0.49061 0.01600
H 	H 	0.64375 0.03722 0.47474 0.03600
C 	C 	0.90675 0.57119 0.49860 -0.01000
C 	C 	0.91292 0.50146 0.51787 -0.06200
C 	C 	0.98597 0.48226 0.51468 -0.01600
C 	C 	0.05072 0.53085 0.49205 -0.00700
C 	C 	0.04331 0.59911 0.47229 -0.06300
C 	C 	0.97136 0.61954 0.47608 -0.00900
H 	H 	0.85208 0.58834 0.50108 0.05100
H 	H 	0.99245 0.42933 0.52941 0.04300
H 	H 	0.10513 0.51339 0.48914 0.04600
H 	H 	0.96465 0.67195 0.46106 0.04000
C 	C 	0.49082 0.60043 0.48749 -0.00500
C 	C 	0.41441 0.54570 0.47046 -0.08000
C 	C 	0.37537 0.45466 0.47819 -0.00300
C 	C 	0.41448 0.41794 0.50178 -0.01700
C 	C 	0.49274 0.47224 0.51785 -0.06200
C 	C 	0.52979 0.56401 0.51101 -0.01500
H 	H 	0.52075 0.67114 0.48207 -0.00300
H 	H 	0.31633 0.41185 0.46518 0.04200
H 	H 	0.38495 0.34712 0.50699 0.02600
H 	H 	0.58896 0.60716 0.52385 0.04900
C 	C 	0.87543 0.22222 0.67105 -0.11600
C 	C 	0.91516 0.19102 0.68841 0.06900
C 	C 	0.96266 0.15317 0.70741 -0.03800
C 	C 	0.00305 0.11855 0.72249 0.01000
C 	C 	0.24156 0.06496 0.71752 0.00600
C 	C 	0.30777 0.10504 0.70290 -0.03200
C 	C 	0.38429 0.15302 0.68507 0.06500
C 	C 	0.44737 0.19424 0.66876 -0.11000
C 	C 	0.84994 0.66862 0.63801 -0.13600
C 	C 	0.87935 0.72686 0.65951 0.07400
C 	C 	0.92049 0.79256 0.68487 -0.04300
C 	C 	0.96046 0.84818 0.70609 0.01100
C 	C 	0.87550 0.57538 0.98853 -0.01500
C 	C 	0.91601 0.61031 0.95780 -0.08300
C 	C 	0.00428 0.65898 0.95806 0.00100
C 	C 	0.05285 0.65927 0.98719 -0.01300
C 	C 	0.01314 0.60917 0.01568 -0.07600
C 	C 	0.92423 0.57408 0.01748 -0.00700
H 	H 	0.80673 0.54101 0.98889 0.00800
H 	H 	0.03580 0.68940 0.93477 0.04100
H 	H 	0.12179 0.69047 0.98633 0.02400
H 	H 	0.89297 0.53834 0.03998 0.04200
C 	C 	0.51679 0.99280 0.96124 -0.00700
C 	C 	0.54680 0.08350 0.97157 -0.06100
C 	C 	0.51691 0.10686 0.00211 -0.00800
C 	C 	0.46101 0.03979 0.02285 -0.00600
C 	C 	0.43442 0.94883 0.01321 -0.06400
C 	C 	0.46131 0.92608 0.98194 -0.00600
H 	H 	0.53714 0.97379 0.93728 0.04100
H 	H 	0.53849 0.17641 0.01028 0.04700
H 	H 	0.44117 0.05845 0.04699 0.03000
H 	H 	0.44078 0.85644 0.97400 0.03900
C 	C 	0.53670 0.52823 0.97914 -0.00500
C 	C 	0.48303 0.44673 0.96346 -0.08500
C 	C 	0.40268 0.39793 0.97707 -0.00200
C 	C 	0.37475 0.43237 0.00529 -0.02400
C 	C 	0.42750 0.51560 0.02034 -0.07000
C 	C 	0.50957 0.56199 0.00762 -0.01700
H 	H 	0.59989 0.56506 0.96945 -0.01200
H 	H 	0.36138 0.33407 0.96549 0.04000
H 	H 	0.31150 0.39542 0.01483 0.02300
H 	H 	0.55182 0.62516 0.01940 0.04900
C 	C 	0.01725 0.11180 0.79709 0.01000
C 	C 	0.98943 0.15356 0.81548 -0.04100
C 	C 	0.95410 0.20109 0.83640 0.06600
C 	C 	0.92048 0.23837 0.85416 -0.13000
C 	C 	0.43411 0.08891 0.84592 -0.12200
C 	C 	0.37146 0.06275 0.82774 0.07300
C 	C 	0.29730 0.03838 0.80731 -0.03800
C 	C 	0.23383 0.02163 0.79017 0.01200
C 	C 	0.95436 0.82091 0.78094 0.00500
C 	C 	0.90815 0.75231 0.79444 -0.03200
C 	C 	0.85468 0.67216 0.81081 0.06400
C 	C 	0.81039 0.60462 0.82544 -0.10800
