data_crystal

_cell_length_a 18.63559
_cell_length_b 18.90939
_cell_length_c 31.69950
_cell_angle_alpha 95.42239
_cell_angle_beta  95.42313
_cell_angle_gamma 126.40156

_symmetry_space_group_name_	'P 1'
_symmetry_space_group_name_H-M	'P 1'

loop_
_symmetry_equiv_pos_as_xyz
  x,y,z

loop_
_atom_site_label
_atom_site_type_symbol
_atom_site_fract_x
_atom_site_fract_y
_atom_site_fract_z
_atom_site_charge
C 	C 	0.90557 0.99344 0.95573 0.05600
C 	C 	0.99923 0.04822 0.95621 -0.06500
C 	C 	0.04661 0.01220 0.95740 0.06400
C 	C 	0.00059 0.92106 0.95752 -0.09200
C 	C 	0.90690 0.86515 0.95655 0.07000
C 	C 	0.85908 0.90145 0.95604 -0.08900
H 	H 	0.03548 0.11919 0.95659 0.06500
H 	H 	0.03784 0.89367 0.95870 0.06300
H 	H 	0.78682 0.85882 0.95604 0.05900
C 	C 	0.95593 0.04854 0.50667 0.07500
C 	C 	0.04886 0.09370 0.50649 -0.09000
C 	C 	0.08486 0.04617 0.50560 0.07200
C 	C 	0.02816 0.95407 0.50507 -0.10200
C 	C 	0.93581 0.90917 0.50535 0.07600
C 	C 	0.89970 0.95630 0.50633 -0.10200
H 	H 	0.09250 0.16496 0.50652 0.07300
H 	H 	0.05576 0.91718 0.50400 0.06100
H 	H 	0.82776 0.92106 0.50595 0.05900
Cu	Cu	0.75526 0.33816 0.95410 0.92600
Cu	Cu	0.74655 0.27313 0.04711 0.87300
Cu	Cu	0.61353 0.29733 0.00969 0.89700
Cu	Cu	0.58665 0.33288 0.92182 0.89800
C 	C 	0.68576 0.30290 0.86340 0.28800
O 	O 	0.80832 0.46866 0.95188 -0.35900
C 	C 	0.66966 0.32408 0.10428 0.30200
O 	O 	0.61395 0.26617 0.95019 -0.63600
O 	O 	0.74610 0.35556 0.01547 -0.64200
O 	O 	0.81503 0.27795 0.95910 -0.36700
O 	O 	0.71687 0.18557 0.99989 -0.42300
O 	O 	0.65086 0.34473 0.87294 -0.38100
O 	O 	0.48324 0.23202 0.00105 -0.38800
C 	C 	0.43237 0.22738 0.96723 0.31500
C 	C 	0.76786 0.50280 0.96504 0.30200
O 	O 	0.68417 0.44930 0.97113 -0.38400
O 	O 	0.46827 0.28258 0.93983 -0.38000
O 	O 	0.74085 0.30328 0.89309 -0.35900
C 	C 	0.77651 0.20431 0.97533 0.30200
O 	O 	0.61324 0.31638 0.07211 -0.37500
O 	O 	0.74277 0.33208 0.09801 -0.41700
H 	H 	0.57408 0.20111 0.93844 0.16600
H 	H 	0.78538 0.41834 0.03115 0.17700
Cu	Cu	0.62476 0.21541 0.51028 0.92800
Cu	Cu	0.68979 0.22149 0.41719 0.87100
Cu	Cu	0.66780 0.35538 0.45481 0.89800
Cu	Cu	0.62341 0.37681 0.54145 0.90000
C 	C 	0.65138 0.27783 0.60109 0.30400
O 	O 	0.49217 0.15867 0.51159 -0.36000
C 	C 	0.63491 0.29495 0.35995 0.28700
O 	O 	0.69519 0.35394 0.51455 -0.63800
O 	O 	0.60794 0.22453 0.44892 -0.64000
O 	O 	0.68496 0.15675 0.50560 -0.37100
O 	O 	0.77931 0.25169 0.46441 -0.44000
O 	O 	0.61100 0.31399 0.59078 -0.37200
O 	O 	0.73289 0.48352 0.46457 -0.38400
C 	C 	0.72933 0.53063 0.49672 0.31100
C 	C 	0.45519 0.19591 0.49805 0.30700
O 	O 	0.50729 0.27835 0.49173 -0.39300
O 	O 	0.66988 0.49179 0.52236 -0.38100
O 	O 	0.65917 0.23001 0.57135 -0.35400
C 	C 	0.76027 0.19464 0.49008 0.31400
O 	O 	0.66057 0.35967 0.39241 -0.38200
O 	O 	0.62784 0.22345 0.36654 -0.41800
H 	H 	0.76068 0.39404 0.52748 0.16800
H 	H 	0.54422 0.18622 0.43329 0.17400
C 	C 	0.67614 0.25966 0.72812 0.01800
C 	C 	0.59583 0.21138 0.74463 -0.05500
C 	C 	0.59928 0.22060 0.78921 0.01100
C 	C 	0.66432 0.27036 0.64539 -0.08800
C 	C 	0.76379 0.32107 0.80111 0.01700
C 	C 	0.76025 0.31239 0.75643 -0.05500
C 	C 	0.67153 0.26494 0.68296 0.04000
C 	C 	0.68315 0.27770 0.81764 -0.08000
H 	H 	0.53055 0.16996 0.72297 0.05200
H 	H 	0.53666 0.18630 0.80164 0.02600
H 	H 	0.82898 0.36519 0.82275 0.04100
H 	H 	0.82270 0.34959 0.74394 0.05200
C 	C 	0.62569 0.32282 0.22801 0.01300
C 	C 	0.56063 0.24050 0.23918 -0.05700
C 	C 	0.55934 0.23265 0.28259 0.01100
C 	C 	0.65263 0.32682 0.14745 -0.10200
C 	C 	0.68391 0.39107 0.30395 0.01000
C 	C 	0.68535 0.39870 0.26048 -0.05600
C 	C 	0.63963 0.32638 0.18404 0.03800
C 	C 	0.62326 0.30719 0.31519 -0.08400
H 	H 	0.51363 0.18170 0.21427 0.04600
H 	H 	0.51096 0.16793 0.29082 0.03200
H 	H 	0.73310 0.44933 0.32876 0.03800
H 	H 	0.73544 0.46277 0.25212 0.04800
C 	C 	0.87664 0.81215 0.50346 -0.03600
C 	C 	0.87338 0.77823 0.54124 -0.10200
C 	C 	0.82622 0.68629 0.53917 0.18400
C 	C 	0.78066 0.62744 0.49907 -0.12000
C 	C 	0.78283 0.66142 0.46134 -0.03900
C 	C 	0.83018 0.75342 0.46347 0.12900
H 	H 	0.90932 0.82344 0.57210 0.06800
O 	O 	0.82467 0.65400 0.57634 -0.29400
H 	H 	0.74735 0.61645 0.43040 0.06200
O 	O 	0.83406 0.78622 0.42625 -0.28000
H 	H 	0.78171 0.78794 0.42231 0.14200
H 	H 	0.87811 0.65397 0.57983 0.14100
C 	C 	0.91585 0.09613 0.50408 -0.03100
C 	C 	0.88297 0.11009 0.53947 -0.10400
C 	C 	0.83253 0.14280 0.53533 0.19000
C 	C 	0.81552 0.16268 0.49558 -0.13000
C 	C 	0.85135 0.15168 0.46069 -0.03900
C 	C 	0.90060 0.11787 0.46471 0.12500
H 	H 	0.89490 0.09379 0.56995 0.07000
O 	O 	0.80291 0.15833 0.57053 -0.28500
H 	H 	0.83910 0.16726 0.43004 0.03700
O 	O 	0.93352 0.10576 0.43004 -0.27400
H 	H 	0.88470 0.04390 0.41439 0.14400
H 	H 	0.74316 0.10077 0.57038 0.15800
C 	C 	0.18179 0.09205 0.50476 -0.03200
C 	C 	0.23809 0.09947 0.54038 -0.10400
C 	C 	0.32619 0.12932 0.53770 0.18500
C 	C 	0.35930 0.15367 0.49933 -0.12400
C 	C 	0.30365 0.14803 0.46399 -0.04000
C 	C 	0.21484 0.11643 0.46642 0.12800
H 	H 	0.21282 0.08040 0.56993 0.06800
O 	O 	0.38136 0.13895 0.57329 -0.28700
H 	H 	0.32929 0.16823 0.43463 0.05300
O 	O 	0.16067 0.11005 0.43142 -0.27500
H 	H 	0.12875 0.04892 0.41450 0.14700
H 	H 	0.37002 0.08033 0.57136 0.15500
C 	C 	0.86002 0.76880 0.95670 -0.03500
C 	C 	0.83505 0.73592 0.99483 -0.09600
C 	C 	0.80942 0.65072 0.99857 0.18500
C 	C 	0.80798 0.59723 0.96384 -0.11900
C 	C 	0.83175 0.62965 0.92551 -0.04300
C 	C 	0.85636 0.71436 0.92161 0.12900
H 	H 	0.83841 0.77755 0.02212 0.06200
O 	O 	0.78464 0.61938 0.03598 -0.29300
H 	H 	0.82885 0.58823 0.89828 0.06100
O 	O 	0.88020 0.74530 0.88403 -0.27900
H 	H 	0.82308 0.72664 0.86607 0.14600
H 	H 	0.84155 0.63852 0.05438 0.14200
C 	C 	0.85839 0.03456 0.95840 -0.02800
C 	C 	0.84009 0.05252 0.99824 -0.08800
C 	C 	0.81573 0.10958 0.00424 0.17000
C 	C 	0.80640 0.14721 0.96966 -0.11400
C 	C 	0.82195 0.12699 0.92936 -0.04100
C 	C 	0.84736 0.07056 0.92357 0.12700
H 	H 	0.84913 0.02574 0.02527 0.06300
O 	O 	0.80220 0.12938 0.04410 -0.30700
H 	H 	0.81407 0.15465 0.90246 0.06400
O 	O 	0.86507 0.05372 0.88438 -0.27200
H 	H 	0.80645 0.99874 0.86815 0.14200
H 	H 	0.86249 0.18330 0.05956 0.12900
C 	C 	0.33366 0.17198 0.96473 -0.11200
C 	C 	0.29815 0.17153 0.00190 -0.05300
C 	C 	0.20427 0.12053 0.99953 0.14000
C 	C 	0.14528 0.07039 0.95969 -0.03300
C 	C 	0.18063 0.07105 0.92253 -0.09900
C 	C 	0.27441 0.12098 0.92494 0.18300
H 	H 	0.34334 0.21122 0.03257 0.06700
O 	O 	0.17026 0.12091 0.03603 -0.28600
H 	H 	0.13525 0.03178 0.89185 0.07300
O 	O 	0.30815 0.12036 0.88837 -0.29300
H 	H 	0.31192 0.07007 0.88721 0.14100
H 	H 	0.16123 0.07087 0.04880 0.14400
