data_crystal

_cell_length_a 29.38808
_cell_length_b 30.73306
_cell_length_c 39.32266
_cell_angle_alpha 60.90990
_cell_angle_beta  118.77677
_cell_angle_gamma 133.26704

_symmetry_space_group_name_	'P 1'
_symmetry_space_group_name_H-M	'P 1'

loop_
_symmetry_equiv_pos_as_xyz
  x,y,z

loop_
_atom_site_label
_atom_site_type_symbol
_atom_site_fract_x
_atom_site_fract_y
_atom_site_fract_z
_atom_site_charge
C 	C 	0.70412 0.31217 0.02141 0.13000
N 	N 	0.74564 0.37217 0.02332 -0.13900
C 	C 	0.72456 0.39784 0.02627 0.13400
N 	N 	0.66277 0.36375 0.02743 -0.14100
C 	C 	0.62234 0.30343 0.02775 0.13400
N 	N 	0.64280 0.27728 0.02471 -0.14000
C 	C 	0.72432 0.30787 0.52128 0.13100
N 	N 	0.66119 0.26932 0.52196 -0.14100
C 	C 	0.63479 0.28999 0.52472 0.13400
N 	N 	0.67134 0.34875 0.52687 -0.14100
C 	C 	0.73470 0.38655 0.52793 0.13400
N 	N 	0.76160 0.36625 0.52521 -0.14000
C 	C 	0.24898 0.64383 0.20655 0.13300
N 	N 	0.31194 0.68444 0.20503 -0.13800
C 	C 	0.33824 0.66820 0.19730 0.13600
N 	N 	0.30191 0.61196 0.19096 -0.14000
C 	C 	0.23945 0.57123 0.19255 0.13500
N 	N 	0.21257 0.58687 0.20045 -0.13800
C 	C 	0.29002 0.62934 0.74193 0.13200
N 	N 	0.35322 0.66745 0.74139 -0.13800
C 	C 	0.37929 0.64615 0.73898 0.13600
N 	N 	0.34256 0.58723 0.73719 -0.14000
C 	C 	0.27914 0.54978 0.73579 0.13400
N 	N 	0.25229 0.57065 0.73808 -0.13700
Co	Co	0.03698 0.01319 0.07842 1.17900
Co	Co	0.94152 0.94013 0.17239 1.19200
Co	Co	0.99526 0.05845 0.11171 1.17700
Co	Co	0.99388 0.89960 0.14383 1.18000
C 	C 	0.16673 0.06360 0.08037 0.33000
Co	Co	0.07483 0.92877 0.09086 1.17400
Co	Co	0.93727 0.04112 0.17403 1.16000
C 	C 	0.95656 0.80474 0.11287 0.31100
O 	O 	0.94281 0.11065 0.12302 -0.41700
O 	O 	0.95708 0.00988 0.14980 -0.78200
C 	C 	0.91562 0.10142 0.08711 0.32300
O 	O 	0.03124 0.08081 0.06806 -0.46200
O 	O 	0.94456 0.87117 0.18159 -0.46300
C 	C 	0.81639 0.91731 0.16473 0.31000
O 	O 	0.97003 0.96771 0.11693 -0.57300
C 	C 	0.07072 0.14309 0.16725 0.31400
C 	C 	0.00660 0.96507 0.01030 0.29500
C 	C 	0.11485 0.90485 0.17814 0.31600
O 	O 	0.92786 0.07732 0.07551 -0.39300
O 	O 	0.00686 0.91786 0.03727 -0.38100
O 	O 	0.00892 0.00306 0.02002 -0.38400
O 	O 	0.84294 0.97697 0.15140 -0.38000
O 	O 	0.84490 0.89348 0.17022 -0.37400
O 	O 	0.03517 0.10024 0.19358 -0.39600
O 	O 	0.07405 0.12861 0.14197 -0.38500
O 	O 	0.13719 0.94314 0.14587 -0.38500
O 	O 	0.07421 0.90269 0.18615 -0.37900
O 	O 	0.02816 0.94642 0.10380 -0.74500
C 	C 	0.97473 0.96701 0.24807 0.29000
O 	O 	0.93041 0.97629 0.22834 -0.39500
O 	O 	0.99522 0.95955 0.22912 -0.38100
O 	O 	0.13580 0.01974 0.06335 -0.42600
O 	O 	0.13617 0.06463 0.09545 -0.40800
O 	O 	0.01837 0.83586 0.11797 -0.39900
O 	O 	0.93402 0.82158 0.12242 -0.38600
Co	Co	0.06105 0.00548 0.58867 1.17400
Co	Co	0.96562 0.93541 0.68122 1.18800
Co	Co	0.01274 0.05088 0.61733 1.18700
Co	Co	0.00386 0.88576 0.64759 1.19100
C 	C 	0.18670 0.02694 0.60407 0.28500
Co	Co	0.07026 0.90443 0.59084 1.17300
Co	Co	0.94426 0.03153 0.67321 1.16100
C 	C 	0.93521 0.79916 0.59381 0.31100
O 	O 	0.88010 0.02213 0.61836 -0.40200
O 	O 	0.97389 0.00225 0.65510 -0.77600
C 	C 	0.90077 0.06127 0.58541 0.31300
O 	O 	0.06200 0.07664 0.58055 -0.46800
O 	O 	0.96856 0.86591 0.69084 -0.46500
C 	C 	0.84343 0.89592 0.68730 0.32800
O 	O 	0.99283 0.96167 0.62561 -0.57800
C 	C 	0.06763 0.14749 0.65343 0.32300
C 	C 	0.04229 0.98336 0.51395 0.28300
C 	C 	0.08867 0.84778 0.67778 0.32300
O 	O 	0.94562 0.07013 0.57668 -0.38500
O 	O 	0.08335 0.97012 0.53669 -0.39200
O 	O 	0.02402 0.99849 0.52888 -0.36100
O 	O 	0.88056 0.94332 0.70242 -0.40600
O 	O 	0.86770 0.88375 0.67523 -0.38600
O 	O 	0.00723 0.12306 0.64699 -0.40500
O 	O 	0.08341 0.12094 0.64748 -0.39500
O 	O 	0.06221 0.83598 0.64280 -0.40600
O 	O 	0.07896 0.87788 0.68543 -0.38700
O 	O 	0.03962 0.93310 0.60859 -0.75000
C 	C 	0.01260 0.98955 0.75033 0.29500
O 	O 	0.01411 0.03841 0.72555 -0.40100
O 	O 	0.01387 0.95648 0.73818 -0.36800
O 	O 	0.16315 0.96821 0.61579 -0.37100
O 	O 	0.15959 0.04598 0.60683 -0.39400
O 	O 	0.97325 0.84516 0.56905 -0.39900
O 	O 	0.93414 0.80771 0.62369 -0.37900
C 	C 	0.91274 0.87318 0.86449 -0.04000
C 	C 	0.90779 0.87306 0.89834 -0.04000
C 	C 	0.95554 0.92418 0.91535 0.01100
C 	C 	0.00864 0.97572 0.89817 0.01700
C 	C 	0.01398 0.97557 0.86422 0.01800
C 	C 	0.96561 0.92431 0.84717 0.01200
C 	C 	0.06715 0.02706 0.84710 0.00000
C 	C 	0.11493 0.07814 0.86414 -0.04100
C 	C 	0.10974 0.07824 0.89779 -0.04200
C 	C 	0.05673 0.02722 0.91501 0.00200
C 	C 	0.05227 0.02636 0.94961 -0.05300
C 	C 	0.00078 0.97386 0.96797 -0.01900
C 	C 	0.95165 0.92354 0.95005 -0.03900
C 	C 	0.96942 0.92574 0.81207 -0.04100
C 	C 	0.02069 0.97847 0.79356 -0.02000
C 	C 	0.07076 0.02793 0.81222 -0.04900
H 	H 	0.87522 0.83352 0.85169 0.04200
H 	H 	0.86679 0.83311 0.91131 0.04200
H 	H 	0.15601 0.11804 0.85122 0.04000
H 	H 	0.14711 0.11802 0.91047 0.04100
H 	H 	0.09056 0.06491 0.96347 0.05000
H 	H 	0.91206 0.88289 0.96415 0.04900
H 	H 	0.93056 0.88770 0.79779 0.04700
H 	H 	0.11040 0.06861 0.79816 0.04900
C 	C 	0.10517 0.08451 0.38654 -0.04300
C 	C 	0.10244 0.07905 0.35202 -0.03700
C 	C 	0.05497 0.02284 0.34059 -0.00700
C 	C 	0.01026 0.97169 0.36428 0.02500
C 	C 	0.01251 0.97742 0.39886 0.01300
C 	C 	0.06035 0.03389 0.41013 0.00400
C 	C 	0.96736 0.92643 0.42231 0.01600
C 	C 	0.92018 0.87010 0.41104 -0.04400
C 	C 	0.91787 0.86448 0.37677 -0.03500
C 	C 	0.96256 0.91516 0.35311 0.00200
C 	C 	0.95806 0.91074 0.31734 -0.02000
C 	C 	0.99906 0.96308 0.29172 -0.04600
C 	C 	0.04980 0.01805 0.30471 -0.03600
C 	C 	0.06445 0.03844 0.44575 -0.05200
C 	C 	0.02175 0.98661 0.47055 -0.01500
C 	C 	0.97150 0.93156 0.45766 -0.04600
H 	H 	0.14229 0.12814 0.39490 0.04100
H 	H 	0.13709 0.11874 0.33408 0.04000
H 	H 	0.88538 0.83047 0.42889 0.04300
H 	H 	0.88094 0.82078 0.36850 0.04100
H 	H 	0.91916 0.86818 0.30769 0.04200
H 	H 	0.08176 0.05846 0.28529 0.04700
H 	H 	0.10343 0.08085 0.45555 0.04600
H 	H 	0.93866 0.89144 0.47666 0.05000
C 	C 	0.17294 0.30397 0.68743 -0.00800
C 	C 	0.17574 0.35503 0.65769 -0.02700
C 	C 	0.18661 0.39995 0.66764 -0.04200
C 	C 	0.19505 0.39440 0.70746 0.01800
C 	C 	0.19366 0.34408 0.73738 -0.04300
C 	C 	0.18250 0.29897 0.72739 -0.02700
C 	C 	0.14553 0.25080 0.67590 0.05100
C 	C 	0.11520 0.20437 0.66571 -0.10800
C 	C 	0.21641 0.44555 0.71835 0.00600
C 	C 	0.24033 0.49138 0.72679 -0.03500
H 	H 	0.16743 0.35894 0.62665 0.04300
H 	H 	0.18916 0.43940 0.64442 0.04800
H 	H 	0.20171 0.34010 0.76839 0.04500
H 	H 	0.17940 0.25925 0.75056 0.04000
C 	C 	0.55469 0.74568 0.71930 0.01800
C 	C 	0.56493 0.77970 0.68057 -0.04100
C 	C 	0.61880 0.80112 0.67146 -0.02600
C 	C 	0.66265 0.78851 0.70101 -0.00900
C 	C 	0.65187 0.75375 0.73957 -0.02600
C 	C 	0.59811 0.73245 0.74869 -0.04200
C 	C 	0.49488 0.71614 0.72709 0.00800
C 	C 	0.44305 0.68716 0.73308 -0.03600
C 	C 	0.72416 0.82108 0.69417 0.05500
C 	C 	0.77771 0.85249 0.68995 -0.10900
H 	H 	0.53089 0.78905 0.65744 0.04900
H 	H 	0.62724 0.82875 0.64173 0.04500
H 	H 	0.68601 0.74456 0.76276 0.04100
H 	H 	0.58986 0.70510 0.77849 0.04600
C 	C 	0.17748 0.76395 0.74488 -0.00600
C 	C 	0.13704 0.69963 0.75052 -0.02700
C 	C 	0.15957 0.66949 0.75351 -0.04200
C 	C 	0.22290 0.70334 0.75133 0.01900
C 	C 	0.26477 0.76680 0.74894 -0.04100
C 	C 	0.24217 0.79696 0.74580 -0.02700
C 	C 	0.14911 0.79663 0.72748 0.05300
C 	C 	0.12295 0.82210 0.70808 -0.10100
C 	C 	0.24376 0.67415 0.74853 0.00600
C 	C 	0.26315 0.65202 0.74561 -0.03200
H 	H 	0.08701 0.67351 0.74995 0.04400
H 	H 	0.12705 0.62031 0.75596 0.04800
H 	H 	0.31410 0.79327 0.74786 0.04900
H 	H 	0.27397 0.84655 0.74154 0.04600
C 	C 	0.16181 0.40734 0.17955 0.01800
C 	C 	0.18669 0.37507 0.21055 -0.04200
C 	C 	0.17708 0.32774 0.20461 -0.02700
C 	C 	0.14209 0.31192 0.16770 -0.00800
C 	C 	0.11707 0.34411 0.13663 -0.02700
C 	C 	0.12721 0.39193 0.14247 -0.04200
C 	C 	0.18127 0.46247 0.18375 0.00700
C 	C 	0.20361 0.51082 0.18777 -0.03500
C 	C 	0.12212 0.25597 0.16440 0.05200
C 	C 	0.10166 0.20614 0.16412 -0.10800
H 	H 	0.21448 0.38738 0.23907 0.04600
H 	H 	0.19565 0.30245 0.22902 0.04100
H 	H 	0.08894 0.33148 0.10822 0.04400
H 	H 	0.10881 0.41736 0.11807 0.04800
C 	C 	0.52204 0.77287 0.18906 0.01800
C 	C 	0.56747 0.76625 0.22230 -0.04100
C 	C 	0.62505 0.78892 0.21733 -0.02700
C 	C 	0.63731 0.81804 0.17907 -0.00600
C 	C 	0.59209 0.82504 0.14590 -0.02600
C 	C 	0.53466 0.80256 0.15089 -0.04100
C 	C 	0.45878 0.74062 0.19309 0.00800
C 	C 	0.40437 0.71005 0.19556 -0.03600
C 	C 	0.69949 0.84799 0.17449 0.05000
C 	C 	0.75244 0.87692 0.17020 -0.09900
H 	H 	0.55771 0.74259 0.25185 0.04700
H 	H 	0.66025 0.78426 0.24322 0.04200
H 	H 	0.60169 0.84843 0.11632 0.04500
H 	H 	0.49943 0.80713 0.12496 0.04900
C 	C 	0.17570 0.70472 0.22384 0.01900
C 	C 	0.11431 0.69047 0.20262 -0.04200
C 	C 	0.09624 0.72310 0.20169 -0.02700
C 	C 	0.13962 0.77043 0.22179 -0.00700
C 	C 	0.19917 0.78145 0.24541 -0.02600
C 	C 	0.21717 0.74872 0.24642 -0.04100
C 	C 	0.19915 0.68026 0.21842 0.00700
C 	C 	0.22064 0.66219 0.21323 -0.03300
C 	C 	0.12923 0.81568 0.21095 0.05600
C 	C 	0.12186 0.85550 0.19839 -0.10800
H 	H 	0.08167 0.65616 0.18537 0.04800
H 	H 	0.05004 0.71407 0.18341 0.04600
H 	H 	0.23300 0.81776 0.26114 0.04500
H 	H 	0.26448 0.75964 0.26324 0.04900
C 	C 	0.79898 0.23783 0.51674 0.01700
C 	C 	0.75638 0.18141 0.50625 -0.04400
C 	C 	0.77897 0.14966 0.51229 -0.02900
C 	C 	0.84426 0.17417 0.52886 -0.01000
C 	C 	0.88749 0.23264 0.53667 -0.02900
C 	C 	0.86488 0.26433 0.53070 -0.04400
C 	C 	0.77424 0.26474 0.51750 0.00400
C 	C 	0.75233 0.28549 0.51896 -0.03700
C 	C 	0.86441 0.13488 0.54521 0.04800
C 	C 	0.88107 0.10137 0.56174 -0.11200
H 	H 	0.70542 0.16086 0.49506 0.04400
H 	H 	0.74520 0.10461 0.50605 0.03800
H 	H 	0.93807 0.25206 0.54938 0.04000
H 	H 	0.89824 0.30820 0.53853 0.04500
C 	C 	0.85101 0.63614 0.57633 -0.00800
C 	C 	0.81980 0.62962 0.53693 -0.02800
C 	C 	0.80635 0.58418 0.52603 -0.04300
C 	C 	0.82365 0.54466 0.55448 0.01700
C 	C 	0.85463 0.55093 0.59397 -0.04300
C 	C 	0.86849 0.59672 0.60483 -0.02800
C 	C 	0.87530 0.68985 0.58535 0.04900
C 	C 	0.89967 0.73798 0.59069 -0.10700
C 	C 	0.79943 0.49143 0.54490 0.00600
C 	C 	0.77364 0.44478 0.53685 -0.03800
H 	H 	0.80716 0.66060 0.51453 0.04100
H 	H 	0.78137 0.57897 0.49561 0.04600
H 	H 	0.86712 0.51985 0.61636 0.04500
H 	H 	0.89370 0.60215 0.63519 0.04100
C 	C 	0.35699 0.13646 0.57451 -0.00700
C 	C 	0.36008 0.16481 0.53423 -0.02900
C 	C 	0.41287 0.18879 0.52249 -0.04300
C 	C 	0.46268 0.18430 0.55095 0.01600
C 	C 	0.45959 0.15600 0.59122 -0.04300
C 	C 	0.40693 0.13220 0.60297 -0.03000
C 	C 	0.29842 0.10300 0.58548 0.04300
C 	C 	0.24807 0.07094 0.59437 -0.10300
C 	C 	0.52112 0.21703 0.54010 0.00500
C 	C 	0.57201 0.24793 0.53222 -0.03900
H 	H 	0.32115 0.16739 0.51193 0.04000
H 	H 	0.41542 0.21153 0.49139 0.04500
H 	H 	0.49842 0.15326 0.61352 0.04400
H 	H 	0.40442 0.10948 0.63407 0.03900
C 	C 	0.76581 0.23321 0.01246 0.01700
C 	C 	0.82756 0.26930 0.00673 -0.04400
C 	C 	0.85318 0.24103 0.01142 -0.02800
C 	C 	0.81737 0.17652 0.02214 -0.01100
C 	C 	0.75368 0.14067 0.02458 -0.02900
C 	C 	0.72804 0.16892 0.01988 -0.04500
C 	C 	0.74384 0.26156 0.01480 0.00300
C 	C 	0.72576 0.28488 0.01758 -0.03700
C 	C 	0.85029 0.14824 0.04022 0.04900
C 	C 	0.87937 0.12574 0.05918 -0.11300
H 	H 	0.85679 0.31907 0.00042 0.04500
H 	H 	0.90232 0.26924 0.00926 0.03900
H 	H 	0.72544 0.09082 0.03266 0.03700
H 	H 	0.67990 0.14067 0.02378 0.04300
C 	C 	0.86094 0.64963 0.08012 -0.00900
C 	C 	0.83263 0.64787 0.03976 -0.02800
C 	C 	0.81632 0.60262 0.02689 -0.04300
C 	C 	0.82831 0.55889 0.05429 0.01700
C 	C 	0.85746 0.56123 0.09454 -0.04300
C 	C 	0.87369 0.60641 0.10741 -0.02800
C 	C 	0.88729 0.70181 0.09205 0.04900
C 	C 	0.91492 0.74763 0.10188 -0.10800
C 	C 	0.79887 0.50494 0.04305 0.00600
C 	C 	0.76871 0.45728 0.03462 -0.03800
H 	H 	0.82398 0.68198 0.01827 0.04000
H 	H 	0.79291 0.60063 0.99583 0.04500
H 	H 	0.86606 0.52710 0.11605 0.04500
H 	H 	0.89702 0.60835 0.13848 0.03900
C 	C 	0.45692 0.21791 0.05494 0.01700
C 	C 	0.42176 0.24232 0.03006 -0.04400
C 	C 	0.37018 0.22247 0.04089 -0.02600
C 	C 	0.35306 0.17771 0.07651 -0.01100
C 	C 	0.39045 0.15577 0.10241 -0.02700
C 	C 	0.44220 0.17577 0.09162 -0.04400
C 	C 	0.51270 0.24185 0.04496 0.00500
C 	C 	0.56142 0.26652 0.03670 -0.03900
C 	C 	0.28949 0.14323 0.08097 0.05500
C 	C 	0.23402 0.10971 0.08226 -0.11700
H 	H 	0.43410 0.27637 0.00219 0.04600
H 	H 	0.34151 0.23958 0.02060 0.04100
H 	H 	0.37750 0.12098 0.12997 0.03900
H 	H 	0.47039 0.15808 0.11161 0.04400
