data_crystal

_cell_length_a 26.98295
_cell_length_b 24.94959
_cell_length_c 45.60288
_cell_angle_alpha 90.51763
_cell_angle_beta  90.61657
_cell_angle_gamma 113.24687

_symmetry_space_group_name_	'P 1'
_symmetry_space_group_name_H-M	'P 1'

loop_
_symmetry_equiv_pos_as_xyz
  x,y,z

loop_
_atom_site_label
_atom_site_type_symbol
_atom_site_fract_x
_atom_site_fract_y
_atom_site_fract_z
_atom_site_charge
Ni	Ni	0.72594 0.34649 0.90983 1.09800
O 	O 	0.65343 0.30392 0.88874 -0.70400
Ni	Ni	0.60420 0.32451 0.91466 1.10000
O 	O 	0.76436 0.31594 0.87938 -0.37300
O 	O 	0.70723 0.22190 0.88841 -0.41300
O 	O 	0.73312 0.41501 0.88316 -0.39500
Ni	Ni	0.62922 0.21972 0.88787 1.06400
O 	O 	0.76469 0.42218 0.97088 -0.42000
O 	O 	0.63193 0.21467 0.93236 -0.41700
O 	O 	0.53707 0.28764 0.88904 -0.38000
O 	O 	0.67429 0.35584 0.93866 -0.70400
O 	O 	0.79919 0.39493 0.92972 -0.37700
O 	O 	0.56736 0.36774 0.93887 -0.37600
O 	O 	0.63990 0.45396 0.93393 -0.41900
Ni	Ni	0.70295 0.43683 0.95218 1.06800
H 	H 	0.65291 0.31872 0.86871 0.15400
H 	H 	0.67194 0.33049 0.95560 0.15800
C 	C 	0.59227 0.21601 0.94812 0.28200
O 	O 	0.75486 0.48303 0.92032 -0.40200
C 	C 	0.74734 0.25957 0.87354 0.27500
C 	C 	0.52444 0.23474 0.87786 0.27700
C 	C 	0.75004 0.46966 0.89220 0.30300
C 	C 	0.58992 0.42484 0.94229 0.26200
C 	C 	0.80604 0.42208 0.95557 0.28700
O 	O 	0.57147 0.25470 0.94267 -0.36900
O 	O 	0.54785 0.20060 0.88809 -0.41300
Ni	Ni	0.60355 0.33009 0.57040 1.10000
O 	O 	0.67320 0.36210 0.54690 -0.70100
Ni	Ni	0.72661 0.35634 0.57637 1.10000
O 	O 	0.56409 0.37022 0.54572 -0.37400
O 	O 	0.63638 0.45723 0.55015 -0.41800
O 	O 	0.57236 0.25910 0.54214 -0.37100
Ni	Ni	0.70006 0.44159 0.53248 1.06800
O 	O 	0.55125 0.20624 0.59621 -0.41200
O 	O 	0.75018 0.48885 0.56581 -0.40200
O 	O 	0.79925 0.40578 0.55710 -0.37300
O 	O 	0.65489 0.31290 0.59680 -0.70300
O 	O 	0.53700 0.29153 0.59539 -0.38000
O 	O 	0.76698 0.32931 0.60744 -0.37400
O 	O 	0.71236 0.23379 0.59801 -0.41200
Ni	Ni	0.63337 0.22905 0.59751 1.06400
H 	H 	0.67109 0.33563 0.53021 0.15600
H 	H 	0.65441 0.32835 0.61682 0.15300
C 	C 	0.74020 0.47683 0.59356 0.30000
O 	O 	0.63551 0.22310 0.55326 -0.42100
C 	C 	0.58654 0.42679 0.54115 0.26400
C 	C 	0.80527 0.43017 0.53083 0.28300
C 	C 	0.59437 0.22128 0.53729 0.28500
C 	C 	0.75241 0.27341 0.61304 0.27400
C 	C 	0.52533 0.23851 0.60581 0.27400
O 	O 	0.73233 0.42480 0.60328 -0.39300
O 	O 	0.76338 0.42890 0.51496 -0.41900
C 	C 	0.03037 0.98001 0.71074 -0.04200
H 	H 	0.02953 0.98342 0.68646 0.04100
C 	C 	0.03235 0.97153 0.76901 -0.04100
H 	H 	0.03329 0.96819 0.79329 0.04000
C 	C 	0.01079 0.02115 0.72759 -0.00200
C 	C 	0.99550 0.91960 0.72277 -0.00800
C 	C 	0.08654 0.99384 0.72425 -0.00800
C 	C 	0.01180 0.01685 0.75747 -0.00500
C 	C 	0.99672 0.91513 0.75272 -0.00700
C 	C 	0.08728 0.98856 0.75419 -0.01100
Ni	Ni	0.25077 0.71358 0.40352 1.10000
O 	O 	0.32038 0.74571 0.38006 -0.70400
Ni	Ni	0.37105 0.72712 0.40631 1.09900
O 	O 	0.21119 0.74069 0.37202 -0.37400
O 	O 	0.27359 0.83452 0.37658 -0.41300
O 	O 	0.23492 0.63823 0.37978 -0.39200
Ni	Ni	0.34895 0.82952 0.37524 1.06300
O 	O 	0.21596 0.65258 0.46773 -0.41900
O 	O 	0.35260 0.84491 0.41929 -0.41800
O 	O 	0.43477 0.75364 0.37865 -0.38100
O 	O 	0.30483 0.70669 0.43226 -0.70100
O 	O 	0.17927 0.67505 0.42578 -0.37400
O 	O 	0.40800 0.68637 0.43233 -0.37600
O 	O 	0.33122 0.60317 0.43266 -0.41800
Ni	Ni	0.27400 0.63016 0.45025 1.06800
H 	H 	0.31670 0.72575 0.36080 0.15300
H 	H 	0.31144 0.73667 0.44784 0.15500
C 	C 	0.39241 0.84322 0.43528 0.28600
O 	O 	0.21801 0.58063 0.42001 -0.40400
C 	C 	0.22922 0.79589 0.36426 0.27400
C 	C 	0.44847 0.80418 0.36514 0.27500
C 	C 	0.22386 0.58702 0.39161 0.30000
C 	C 	0.38282 0.63105 0.43917 0.26200
C 	C 	0.17373 0.65117 0.45215 0.28500
O 	O 	0.41123 0.80273 0.43043 -0.37200
O 	O 	0.42919 0.84299 0.37409 -0.40900
Ni	Ni	0.37082 0.72465 0.07429 1.10100
O 	O 	0.30808 0.71270 0.04607 -0.70500
Ni	Ni	0.25140 0.71194 0.07416 1.10000
O 	O 	0.41016 0.69076 0.04605 -0.37700
O 	O 	0.33342 0.60867 0.03941 -0.41800
O 	O 	0.41371 0.80681 0.05773 -0.37000
Ni	Ni	0.27915 0.64118 0.02250 1.06800
O 	O 	0.42464 0.82858 0.11723 -0.40900
O 	O 	0.21723 0.58235 0.04625 -0.40200
O 	O 	0.18317 0.68206 0.04776 -0.37800
O 	O 	0.31757 0.73583 0.10107 -0.70600
O 	O 	0.43027 0.74157 0.10482 -0.38300
O 	O 	0.20850 0.72864 0.10715 -0.37500
O 	O 	0.26982 0.82327 0.11224 -0.41200
Ni	Ni	0.34500 0.81703 0.11339 1.06400
H 	H 	0.31647 0.74649 0.03300 0.15700
H 	H 	0.31155 0.71028 0.11830 0.15600
C 	C 	0.21340 0.58186 0.07498 0.30700
O 	O 	0.35441 0.84664 0.07161 -0.41900
C 	C 	0.38575 0.63689 0.03603 0.26000
C 	C 	0.18100 0.66555 0.01984 0.28900
C 	C 	0.39518 0.84831 0.05575 0.28200
C 	C 	0.22333 0.78107 0.11906 0.27600
C 	C 	0.44213 0.78674 0.12295 0.27700
O 	O 	0.23362 0.63035 0.09060 -0.39700
O 	O 	0.22482 0.67011 0.00553 -0.42100
C 	C 	0.93737 0.07661 0.20583 -0.03900
H 	H 	0.93491 0.07080 0.18159 0.04100
C 	C 	0.94287 0.09011 0.26411 -0.03900
H 	H 	0.94526 0.09584 0.28836 0.04100
C 	C 	0.96727 0.04439 0.22201 -0.00700
C 	C 	0.96591 0.13992 0.21687 -0.00700
C 	C 	0.88266 0.05515 0.22112 -0.00700
C 	C 	0.96991 0.05112 0.25183 -0.00700
C 	C 	0.96930 0.14679 0.24684 -0.00800
C 	C 	0.88536 0.06248 0.25109 -0.00700
C 	C 	0.99367 0.18865 0.19660 0.01000
C 	C 	0.98426 0.24010 0.19817 -0.03700
C 	C 	0.01572 0.28880 0.18196 -0.04700
C 	C 	0.05586 0.28592 0.16337 0.02400
C 	C 	0.06350 0.23364 0.16084 -0.04900
C 	C 	0.03210 0.18504 0.17708 -0.03900
C 	C 	0.09321 0.33878 0.14853 -0.04400
C 	C 	0.07463 0.37317 0.13336 -0.05800
C 	C 	0.11204 0.42527 0.11800 0.04900
C 	C 	0.10036 0.43570 0.08909 -0.07800
C 	C 	0.13401 0.48618 0.07484 0.02400
C 	C 	0.17945 0.52715 0.08950 -0.09400
C 	C 	0.19108 0.51677 0.11848 0.02200
C 	C 	0.15745 0.46623 0.13270 -0.07800
H 	H 	0.95381 0.24296 0.21266 0.03900
H 	H 	0.00984 0.32911 0.18444 0.04100
H 	H 	0.09419 0.23086 0.14651 0.03900
H 	H 	0.03854 0.14507 0.17497 0.03800
H 	H 	0.13608 0.34787 0.14869 0.03900
H 	H 	0.03141 0.36105 0.13087 0.04400
H 	H 	0.06510 0.40478 0.07769 0.04900
H 	H 	0.12410 0.49398 0.05262 0.03400
H 	H 	0.22597 0.54797 0.13004 0.02600
H 	H 	0.16622 0.45936 0.15526 0.04700
C 	C 	0.83341 0.01509 0.20587 0.01600
C 	C 	0.81340 0.95503 0.21130 -0.04200
C 	C 	0.76359 0.91803 0.19944 -0.04500
C 	C 	0.73410 0.94071 0.18156 0.01900
C 	C 	0.75567 0.00014 0.17474 -0.04300
C 	C 	0.80513 0.03729 0.18698 -0.04300
C 	C 	0.68091 0.90237 0.16968 -0.04300
C 	C 	0.64015 0.87391 0.18769 -0.05900
C 	C 	0.58533 0.84233 0.17568 0.04800
C 	C 	0.54436 0.86119 0.18274 -0.07900
C 	C 	0.49591 0.84027 0.16666 0.01700
C 	C 	0.48811 0.80006 0.14352 -0.09200
C 	C 	0.52716 0.77696 0.13850 0.02000
C 	C 	0.57553 0.79801 0.15455 -0.07800
H 	H 	0.83574 0.93742 0.22537 0.03900
H 	H 	0.74776 0.87190 0.20425 0.03900
H 	H 	0.73352 0.01773 0.16053 0.03900
H 	H 	0.82082 0.08350 0.18236 0.03900
H 	H 	0.67357 0.90144 0.14615 0.04100
H 	H 	0.64630 0.87868 0.21133 0.04200
H 	H 	0.55114 0.89433 0.19960 0.04300
H 	H 	0.46532 0.85688 0.17147 0.01100
H 	H 	0.52121 0.74478 0.12125 0.03800
H 	H 	0.60644 0.78193 0.14959 0.04800
C 	C 	0.99623 0.01381 0.20639 0.01600
C 	C 	0.97112 0.95339 0.20165 -0.04400
C 	C 	0.00158 0.92186 0.19324 -0.04300
C 	C 	0.05712 0.95109 0.18800 0.01800
C 	C 	0.08168 0.01186 0.19182 -0.04200
C 	C 	0.05151 0.04296 0.20122 -0.04100
C 	C 	0.09097 0.91836 0.18085 -0.04200
C 	C 	0.07227 0.87011 0.16366 -0.05900
C 	C 	0.10859 0.84251 0.15327 0.04800
C 	C 	0.10297 0.82066 0.12445 -0.07800
C 	C 	0.13921 0.79819 0.11367 0.02300
C 	C 	0.18148 0.79749 0.13161 -0.08900
C 	C 	0.18574 0.81672 0.16085 0.01600
C 	C 	0.14877 0.83807 0.17186 -0.07700
H 	H 	0.92866 0.93041 0.20625 0.03800
H 	H 	0.98242 0.87473 0.19185 0.03800
H 	H 	0.12455 0.03478 0.18833 0.03700
H 	H 	0.07168 0.08920 0.20606 0.03700
H 	H 	0.13320 0.93695 0.18765 0.03600
H 	H 	0.03154 0.85455 0.15457 0.04200
H 	H 	0.07137 0.82250 0.11015 0.04700
H 	H 	0.13544 0.78296 0.09110 0.02900
H 	H 	0.21781 0.81549 0.17497 0.01100
H 	H 	0.15166 0.85157 0.19467 0.04500
C 	C 	0.83754 0.03484 0.26991 0.01600
C 	C 	0.83613 0.99205 0.29004 -0.04600
C 	C 	0.78854 0.96030 0.30487 -0.04500
C 	C 	0.74184 0.97069 0.29951 0.01800
C 	C 	0.74388 0.01524 0.28033 -0.04200
C 	C 	0.79166 0.04751 0.26581 -0.04000
C 	C 	0.69162 0.93681 0.31521 -0.04400
C 	C 	0.64499 0.90822 0.30042 -0.05900
C 	C 	0.59372 0.87829 0.31609 0.04700
C 	C 	0.54772 0.88768 0.30761 -0.07900
C 	C 	0.49957 0.86135 0.32286 0.01500
C 	C 	0.49669 0.82469 0.34654 -0.09000
C 	C 	0.54200 0.81294 0.35412 0.02000
C 	C 	0.59025 0.83944 0.33889 -0.07700
H 	H 	0.87143 0.98239 0.29368 0.03800
H 	H 	0.78771 0.92692 0.32012 0.03700
H 	H 	0.70851 0.02486 0.27670 0.03900
H 	H 	0.79262 0.08128 0.25078 0.04000
H 	H 	0.69309 0.93425 0.33896 0.03900
H 	H 	0.64383 0.91085 0.27665 0.04100
H 	H 	0.54958 0.91644 0.28962 0.04200
H 	H 	0.46476 0.87028 0.31661 0.00700
H 	H 	0.54036 0.78466 0.37230 0.03600
H 	H 	0.62494 0.83014 0.34495 0.04700
C 	C 	0.00683 0.20084 0.26140 0.01200
C 	C 	0.06261 0.22026 0.25710 -0.03700
C 	C 	0.09774 0.27325 0.26947 -0.04900
C 	C 	0.07755 0.30626 0.28696 0.02400
C 	C 	0.02181 0.28631 0.29166 -0.04700
C 	C 	0.98664 0.23362 0.27902 -0.04100
C 	C 	0.11471 0.36222 0.29991 -0.04500
C 	C 	0.11587 0.37177 0.32895 -0.05900
C 	C 	0.15068 0.42868 0.34203 0.04900
C 	C 	0.14813 0.48035 0.33157 -0.07800
C 	C 	0.17482 0.53303 0.34678 0.02200
C 	C 	0.20392 0.53441 0.37271 -0.09500
C 	C 	0.20873 0.48329 0.38223 0.02100
C 	C 	0.18185 0.43062 0.36709 -0.07900
H 	H 	0.07855 0.19474 0.24378 0.03800
H 	H 	0.14065 0.28842 0.26566 0.03900
H 	H 	0.00578 0.31188 0.30487 0.04000
H 	H 	0.94365 0.21876 0.28251 0.03800
H 	H 	0.14241 0.39507 0.28578 0.03900
H 	H 	0.09173 0.33683 0.34329 0.04400
H 	H 	0.12372 0.47926 0.31238 0.04800
H 	H 	0.17080 0.57213 0.33914 0.03400
H 	H 	0.23190 0.48403 0.40190 0.02700
H 	H 	0.18422 0.39102 0.37524 0.04800
C 	C 	0.99791 0.02389 0.27069 0.01500
C 	C 	0.97357 0.96381 0.27595 -0.04400
C 	C 	0.00469 0.93403 0.28587 -0.04300
C 	C 	0.06028 0.96434 0.29101 0.01900
C 	C 	0.08383 0.02500 0.28757 -0.04200
C 	C 	0.05259 0.05477 0.27779 -0.04000
C 	C 	0.09493 0.93224 0.29690 -0.04300
C 	C 	0.08493 0.89517 0.31940 -0.05800
C 	C 	0.12237 0.86700 0.32712 0.04700
C 	C 	0.17848 0.89901 0.32695 -0.07800
C 	C 	0.21336 0.87391 0.33696 0.01600
C 	C 	0.19269 0.81742 0.34850 -0.09100
C 	C 	0.13665 0.78471 0.34783 0.01800
C 	C 	0.10172 0.80950 0.33725 -0.07700
H 	H 	0.93144 0.93952 0.27026 0.03700
H 	H 	0.98614 0.88710 0.28821 0.03800
H 	H 	0.12667 0.04880 0.29157 0.03800
H 	H 	0.07168 0.10117 0.27382 0.03900
H 	H 	0.13039 0.94121 0.28358 0.03700
H 	H 	0.04862 0.88518 0.33216 0.04300
H 	H 	0.19507 0.94400 0.32002 0.04400
H 	H 	0.25648 0.89929 0.33681 0.01500
H 	H 	0.11997 0.74092 0.35643 0.03800
H 	H 	0.05855 0.78444 0.33754 0.04700
C 	C 	0.39478 0.00576 0.49734 -0.03100
C 	C 	0.42300 0.06143 0.50945 -0.04900
C 	C 	0.47947 0.08787 0.50779 0.01900
C 	C 	0.50783 0.05793 0.49405 -0.01500
C 	C 	0.47945 0.00182 0.48196 0.00200
C 	C 	0.42268 0.97586 0.48340 0.00100
C 	C 	0.50774 0.97206 0.46799 0.00800
C 	C 	0.56427 0.99825 0.46661 -0.04400
C 	C 	0.59251 0.05391 0.47878 -0.04200
C 	C 	0.56458 0.08406 0.49248 0.01600
C 	C 	0.59272 0.13949 0.50511 -0.03000
C 	C 	0.56461 0.16866 0.51951 -0.06300
C 	C 	0.50796 0.14329 0.52024 -0.02800
C 	C 	0.39443 0.92122 0.47006 -0.02300
C 	C 	0.42235 0.89292 0.45481 -0.06800
C 	C 	0.47904 0.91741 0.45469 -0.02300
H 	H 	0.35118 0.98609 0.49863 0.03200
H 	H 	0.40089 0.08397 0.52012 0.04100
H 	H 	0.58637 0.97569 0.45596 0.03900
H 	H 	0.63612 0.07355 0.47752 0.03800
H 	H 	0.63643 0.15933 0.50440 0.04100
H 	H 	0.48630 0.16560 0.53160 0.05400
H 	H 	0.35069 0.90171 0.47052 0.03700
H 	H 	0.50056 0.89540 0.44297 0.05000
C 	C 	0.97900 0.53572 0.43627 -0.04300
C 	C 	0.92768 0.50325 0.44723 -0.04300
C 	C 	0.91973 0.49729 0.47762 0.01500
C 	C 	0.96378 0.52410 0.49713 -0.00900
C 	C 	0.01548 0.55685 0.48608 -0.00900
C 	C 	0.02307 0.56264 0.45554 0.01600
C 	C 	0.05957 0.58363 0.50558 0.01500
C 	C 	0.05161 0.57764 0.53597 -0.04400
C 	C 	0.00025 0.54522 0.54694 -0.04200
C 	C 	0.95615 0.51834 0.52767 0.01500
C 	C 	0.90444 0.48631 0.53857 -0.02700
C 	C 	0.86026 0.46014 0.51918 -0.05800
C 	C 	0.86820 0.46526 0.48872 -0.03000
C 	C 	0.07469 0.59477 0.44462 -0.02600
C 	C 	0.11891 0.62104 0.46397 -0.05900
C 	C 	0.11111 0.61573 0.49444 -0.03000
H 	H 	0.98443 0.53986 0.41276 0.03900
H 	H 	0.89412 0.48283 0.43206 0.03600
H 	H 	0.08518 0.59803 0.55115 0.03600
H 	H 	0.99482 0.54108 0.57045 0.03800
H 	H 	0.89835 0.48279 0.56207 0.05100
H 	H 	0.83433 0.44458 0.47374 0.04000
H 	H 	0.08071 0.59828 0.42112 0.05100
H 	H 	0.14504 0.63634 0.50940 0.04000
C 	C 	0.55471 0.61516 0.46500 -0.04400
C 	C 	0.58321 0.58674 0.47948 -0.04300
C 	C 	0.55552 0.53571 0.49526 0.01200
C 	C 	0.49873 0.51292 0.49635 -0.00900
C 	C 	0.47003 0.54158 0.48178 -0.01000
C 	C 	0.49816 0.59296 0.46610 0.01500
C 	C 	0.41327 0.51900 0.48302 0.01400
C 	C 	0.38556 0.46779 0.49867 -0.04400
C 	C 	0.41406 0.43927 0.51310 -0.04300
C 	C 	0.47063 0.46160 0.51209 0.01400
C 	C 	0.49945 0.43339 0.52670 -0.02600
C 	C 	0.55611 0.45622 0.52574 -0.06500
C 	C 	0.58394 0.50728 0.50994 -0.03000
C 	C 	0.46945 0.62166 0.45186 -0.02800
C 	C 	0.41285 0.59960 0.45330 -0.06300
C 	C 	0.38491 0.54809 0.46878 -0.03200
H 	H 	0.57670 0.65455 0.45298 0.03800
H 	H 	0.62685 0.60453 0.47847 0.03300
H 	H 	0.34193 0.45006 0.49972 0.03500
H 	H 	0.39208 0.39986 0.52511 0.03900
H 	H 	0.47797 0.39420 0.53901 0.04900
H 	H 	0.62761 0.52454 0.50892 0.01900
H 	H 	0.49105 0.66099 0.43968 0.04900
H 	H 	0.34129 0.53117 0.47006 0.02600
C 	C 	0.78910 0.25435 0.63023 -0.09100
C 	C 	0.77003 0.19749 0.64124 0.01600
C 	C 	0.80587 0.17599 0.65368 -0.07700
C 	C 	0.86112 0.21176 0.65619 0.04700
C 	C 	0.87993 0.26933 0.64624 -0.07700
C 	C 	0.84413 0.29067 0.63342 0.01900
C 	C 	0.90012 0.18738 0.66635 -0.05700
C 	C 	0.88899 0.15079 0.68907 -0.04600
C 	C 	0.92249 0.11767 0.69540 0.02600
C 	C 	0.97713 0.14681 0.70331 -0.05000
C 	C 	0.00730 0.11494 0.71182 -0.03400
C 	C 	0.98289 0.05385 0.71272 0.00800
C 	C 	0.92903 0.02475 0.70352 -0.03200
C 	C 	0.89876 0.05655 0.69523 -0.05100
H 	H 	0.72762 0.16927 0.63932 0.01300
H 	H 	0.79092 0.13094 0.66048 0.04500
H 	H 	0.92248 0.29719 0.64791 0.04700
H 	H 	0.85951 0.33471 0.62513 0.03800
H 	H 	0.93784 0.19857 0.65477 0.04300
H 	H 	0.85218 0.14102 0.70132 0.03800
H 	H 	0.99574 0.19405 0.70368 0.04000
H 	H 	0.04889 0.13773 0.71895 0.03600
H 	H 	0.90989 0.97763 0.70420 0.03500
H 	H 	0.85662 0.03373 0.68912 0.03900
C 	C 	0.47306 0.20855 0.62050 -0.08800
C 	C 	0.44434 0.14807 0.61655 0.01400
C 	C 	0.39612 0.11910 0.63128 -0.07700
C 	C 	0.37538 0.15017 0.64972 0.04500
C 	C 	0.40348 0.21077 0.65341 -0.07600
C 	C 	0.45209 0.23986 0.63882 0.01300
C 	C 	0.32647 0.11814 0.66682 -0.05800
C 	C 	0.28308 0.13182 0.66515 -0.04500
C 	C 	0.23242 0.09617 0.68011 0.02500
C 	C 	0.20643 0.12353 0.69751 -0.04900
C 	C 	0.15835 0.09022 0.71151 -0.03600
C 	C 	0.13572 0.02927 0.70810 0.01200
C 	C 	0.16064 0.00199 0.68995 -0.03500
C 	C 	0.20881 0.03524 0.67598 -0.04900
H 	H 	0.45935 0.12341 0.60207 0.03200
H 	H 	0.37485 0.07236 0.62837 0.04500
H 	H 	0.38826 0.23509 0.66798 0.04600
H 	H 	0.47382 0.28642 0.64216 0.02800
H 	H 	0.32436 0.08002 0.67898 0.04200
H 	H 	0.28531 0.17035 0.65335 0.04000
H 	H 	0.22376 0.17051 0.70044 0.03900
H 	H 	0.13904 0.11166 0.72530 0.03800
H 	H 	0.14308 0.95502 0.68695 0.03300
H 	H 	0.22761 0.01376 0.66188 0.04000
C 	C 	0.95779 0.87307 0.70362 0.01000
C 	C 	0.90187 0.85388 0.70733 -0.03700
C 	C 	0.86652 0.80707 0.69053 -0.04900
C 	C 	0.88686 0.77951 0.66972 0.02400
C 	C 	0.94255 0.80078 0.66498 -0.04900
C 	C 	0.97791 0.84730 0.68195 -0.04000
C 	C 	0.85019 0.72830 0.65287 -0.04500
C 	C 	0.81567 0.68119 0.66664 -0.05800
C 	C 	0.78799 0.62574 0.65042 0.04900
C 	C 	0.79431 0.57537 0.65969 -0.07900
C 	C 	0.77613 0.52533 0.64182 0.02200
C 	C 	0.75105 0.52525 0.61466 -0.09600
C 	C 	0.74072 0.57409 0.60661 0.02100
C 	C 	0.75897 0.62408 0.62446 -0.07800
H 	H 	0.88595 0.87452 0.72358 0.03700
H 	H 	0.82345 0.79199 0.69378 0.03900
H 	H 	0.95849 0.78038 0.64861 0.03900
H 	H 	0.02099 0.86254 0.67866 0.03700
H 	H 	0.85589 0.72633 0.62938 0.04000
H 	H 	0.81305 0.68155 0.69041 0.04300
H 	H 	0.81563 0.57590 0.68003 0.04700
H 	H 	0.78366 0.48763 0.64852 0.03400
H 	H 	0.71991 0.57388 0.58612 0.02600
H 	H 	0.75218 0.66216 0.61765 0.04800
C 	C 	0.98995 0.63388 0.01267 -0.04300
C 	C 	0.93666 0.59724 0.00553 -0.04200
C 	C 	0.92541 0.54488 0.98989 0.01400
C 	C 	0.96809 0.52950 0.98112 -0.00800
C 	C 	0.02171 0.56649 0.98819 -0.00700
C 	C 	0.03263 0.61859 0.00428 0.01500
C 	C 	0.06436 0.55080 0.97972 0.01200
C 	C 	0.05315 0.49871 0.96385 -0.04100
C 	C 	0.99985 0.46202 0.95674 -0.04400
C 	C 	0.95712 0.47702 0.96539 0.01600
C 	C 	0.90365 0.44051 0.95825 -0.02400
C 	C 	0.86117 0.45637 0.96642 -0.06200
C 	C 	0.87212 0.50812 0.98260 -0.02300
C 	C 	0.08585 0.65366 0.01262 -0.02200
C 	C 	0.12803 0.63658 0.00545 -0.06400
C 	C 	0.11744 0.58629 0.98814 -0.02200
H 	H 	0.99796 0.67391 0.02495 0.03800
H 	H 	0.90414 0.60954 0.01224 0.03500
H 	H 	0.08567 0.48634 0.95720 0.03500
H 	H 	0.99183 0.42189 0.94455 0.03800
H 	H 	0.89508 0.40024 0.94602 0.04500
H 	H 	0.83933 0.52056 0.98871 0.03200
H 	H 	0.09431 0.69305 0.02560 0.04300
H 	H 	0.15010 0.57321 0.98261 0.03000
C 	C 	0.59338 0.05421 0.00890 -0.05100
C 	C 	0.56552 0.00055 0.02232 -0.02900
C 	C 	0.50888 0.97676 0.02304 -0.00000
C 	C 	0.48006 0.00728 0.01025 0.00600
C 	C 	0.50812 0.06135 0.99676 -0.01800
C 	C 	0.56496 0.08473 0.99597 0.02100
C 	C 	0.47928 0.09162 0.98376 0.02100
C 	C 	0.42265 0.06793 0.98457 -0.05100
C 	C 	0.39481 0.01440 0.99809 -0.03000
C 	C 	0.42321 0.98381 0.01095 -0.00100
C 	C 	0.39549 0.93039 0.02479 -0.02300
C 	C 	0.42413 0.90041 0.03807 -0.06800
C 	C 	0.48076 0.92325 0.03677 -0.02000
C 	C 	0.59264 0.13763 0.98165 -0.03300
C 	C 	0.56390 0.16684 0.96772 -0.06000
C 	C 	0.50731 0.14441 0.96944 -0.03000
H 	H 	0.63706 0.07183 0.00844 0.04000
H 	H 	0.58806 0.97755 0.03215 0.03300
H 	H 	0.40010 0.09082 0.97463 0.04100
H 	H 	0.35112 0.99677 0.99853 0.03200
H 	H 	0.35178 0.91249 0.02558 0.03700
H 	H 	0.50289 0.90035 0.04718 0.04800
H 	H 	0.63632 0.15526 0.98063 0.04200
H 	H 	0.48505 0.16671 0.95859 0.05200
C 	C 	0.41063 0.45472 0.01580 -0.04400
C 	C 	0.43859 0.42485 0.00214 -0.04400
C 	C 	0.48462 0.45533 0.98563 0.01600
C 	C 	0.50276 0.51634 0.98288 -0.01100
C 	C 	0.47468 0.54645 0.99669 -0.01100
C 	C 	0.42835 0.51546 0.01312 0.01500
C 	C 	0.49278 0.60748 0.99395 0.01500
C 	C 	0.53888 0.63797 0.97748 -0.04500
C 	C 	0.56675 0.60804 0.96373 -0.04500
C 	C 	0.54893 0.54725 0.96633 0.01500
C 	C 	0.57682 0.51706 0.95266 -0.03400
C 	C 	0.55911 0.45623 0.95558 -0.06300
C 	C 	0.51285 0.42555 0.97198 -0.03100
C 	C 	0.40009 0.54549 0.02649 -0.03200
C 	C 	0.41761 0.60620 0.02348 -0.06100
C 	C 	0.46426 0.63716 0.00746 -0.03200
H 	H 	0.37512 0.43054 0.02840 0.03700
H 	H 	0.42437 0.37797 0.00441 0.03900
H 	H 	0.55313 0.68485 0.97524 0.03700
H 	H 	0.60221 0.63221 0.95108 0.03600
H 	H 	0.61219 0.54077 0.93981 0.04100
H 	H 	0.49928 0.37874 0.97444 0.04900
H 	H 	0.36448 0.52172 0.03915 0.04400
H 	H 	0.47763 0.68397 0.00506 0.04400
C 	C 	0.78171 0.23751 0.85673 -0.09300
C 	C 	0.75756 0.18687 0.83936 0.01800
C 	C 	0.78816 0.15671 0.82936 -0.08000
C 	C 	0.84335 0.17741 0.83616 0.04800
C 	C 	0.86842 0.23031 0.85173 -0.07800
C 	C 	0.83770 0.26038 0.86192 0.02100
C 	C 	0.87312 0.14039 0.82976 -0.05900
C 	C 	0.91587 0.15895 0.81207 -0.04500
C 	C 	0.94078 0.11890 0.80201 0.02600
C 	C 	0.99704 0.13922 0.80007 -0.05100
C 	C 	0.02070 0.10382 0.78760 -0.03600
C 	C 	0.98828 0.04790 0.77688 0.00700
C 	C 	0.93215 0.02671 0.77979 -0.03200
C 	C 	0.90840 0.06225 0.79189 -0.05000
H 	H 	0.71453 0.16931 0.83485 0.00600
H 	H 	0.76862 0.11623 0.81708 0.04400
H 	H 	0.91113 0.24674 0.85703 0.04800
H 	H 	0.85689 0.29953 0.87523 0.03400
H 	H 	0.85725 0.09585 0.83762 0.04300
H 	H 	0.93261 0.20399 0.80490 0.04000
H 	H 	0.02236 0.18301 0.80748 0.03900
H 	H 	0.06394 0.12117 0.78467 0.03500
H 	H 	0.90674 0.98425 0.77080 0.03300
H 	H 	0.86484 0.04667 0.79228 0.03900
C 	C 	0.13801 0.00697 0.77148 0.02200
C 	C 	0.17528 0.98191 0.76578 -0.04900
C 	C 	0.22569 0.00373 0.77988 -0.03600
C 	C 	0.23895 0.05032 0.79998 0.01900
C 	C 	0.20023 0.07275 0.80709 -0.04400
C 	C 	0.15017 0.05146 0.79271 -0.04400
C 	C 	0.29295 0.07449 0.81403 -0.04200
C 	C 	0.32047 0.13243 0.81701 -0.05900
C 	C 	0.37366 0.15688 0.83200 0.04800
C 	C 	0.38274 0.13221 0.85805 -0.07800
C 	C 	0.43249 0.15698 0.87265 0.02100
C 	C 	0.47316 0.20740 0.86178 -0.09300
C 	C 	0.46382 0.23280 0.83615 0.01600
C 	C 	0.41427 0.20757 0.82128 -0.07800
H 	H 	0.16559 0.94639 0.74999 0.04100
H 	H 	0.25476 0.98512 0.77482 0.03300
H 	H 	0.20908 0.10689 0.82361 0.03900
H 	H 	0.12118 0.07012 0.79775 0.03900
H 	H 	0.31144 0.04480 0.82069 0.03800
H 	H 	0.30449 0.16215 0.80738 0.04300
H 	H 	0.35097 0.09456 0.86727 0.04800
H 	H 	0.43900 0.13780 0.89280 0.03200
H 	H 	0.49493 0.27203 0.82776 0.01900
H 	H 	0.40736 0.22748 0.80149 0.04500
C 	C 	0.96330 0.86137 0.76855 0.01000
C 	C 	0.92611 0.86320 0.78938 -0.04000
C 	C 	0.89197 0.81199 0.80289 -0.04900
C 	C 	0.89518 0.75852 0.79606 0.02300
C 	C 	0.93293 0.75675 0.77544 -0.04800
C 	C 	0.96744 0.80811 0.76214 -0.03700
C 	C 	0.85643 0.70414 0.80924 -0.04500
C 	C 	0.87290 0.66404 0.82041 -0.05800
C 	C 	0.83510 0.61250 0.83607 0.04800
C 	C 	0.83542 0.55725 0.83043 -0.07700
C 	C 	0.80506 0.50961 0.84764 0.02100
C 	C 	0.77458 0.51695 0.87096 -0.09200
C 	C 	0.77279 0.57181 0.87595 0.02000
C 	C 	0.80310 0.61939 0.85874 -0.07700
H 	H 	0.92306 0.90409 0.79480 0.03600
H 	H 	0.86285 0.81386 0.81861 0.03700
H 	H 	0.93495 0.71561 0.76935 0.03900
H 	H 	0.99657 0.80632 0.74641 0.03900
H 	H 	0.81471 0.69884 0.81166 0.03800
H 	H 	0.91448 0.66894 0.81787 0.04300
H 	H 	0.86013 0.55147 0.81311 0.04700
H 	H 	0.80704 0.46765 0.84359 0.03600
H 	H 	0.74916 0.57800 0.89373 0.02600
H 	H 	0.80315 0.66196 0.86368 0.04700
