data_crystal

_cell_length_a 16.45762
_cell_length_b 17.55676
_cell_length_c 38.84913
_cell_angle_alpha 60.68907
_cell_angle_beta  119.03090
_cell_angle_gamma 133.23898

_symmetry_space_group_name_	'P 1'
_symmetry_space_group_name_H-M	'P 1'

loop_
_symmetry_equiv_pos_as_xyz
  x,y,z

loop_
_atom_site_label
_atom_site_type_symbol
_atom_site_fract_x
_atom_site_fract_y
_atom_site_fract_z
_atom_site_charge
N 	N 	0.63910 0.23084 0.00213 -0.13300
C 	C 	0.60293 0.26528 0.01245 0.12800
N 	N 	0.68027 0.35910 0.02447 -0.13000
N 	N 	0.56691 0.25156 0.50604 -0.13200
C 	C 	0.55235 0.31692 0.50774 0.12600
C 	C 	0.25949 0.59892 0.16890 0.13200
N 	N 	0.18875 0.50257 0.15952 -0.13700
C 	C 	0.23208 0.46623 0.15429 0.13000
N 	N 	0.34710 0.52620 0.15891 -0.13300
C 	C 	0.41831 0.62193 0.16892 0.13300
N 	N 	0.37453 0.65713 0.17449 -0.13600
C 	C 	0.28627 0.69256 0.63000 0.12900
N 	N 	0.39874 0.73574 0.64831 -0.13100
C 	C 	0.44335 0.68484 0.65640 0.13500
N 	N 	0.37322 0.58624 0.64865 -0.13200
C 	C 	0.25894 0.53953 0.63276 0.13000
N 	N 	0.21590 0.59294 0.62341 -0.13800
Co	Co	0.10068 0.01557 0.04061 1.17800
Co	Co	0.15501 0.86194 0.04736 1.17200
C 	C 	0.32730 0.10203 0.03815 0.35200
O 	O 	0.08742 0.13175 0.03095 -0.46700
C 	C 	0.09313 0.23974 0.10907 0.29400
C 	C 	0.70207 0.79042 0.14237 0.33700
C 	C 	0.23847 0.82060 0.13653 0.31200
O 	O 	0.27347 0.87826 0.10262 -0.38400
O 	O 	0.17891 0.83146 0.14518 -0.38800
O 	O 	0.12340 0.19678 0.10209 -0.40000
O 	O 	0.08102 0.89586 0.06412 -0.76100
O 	O 	0.26886 0.02384 0.02068 -0.42000
O 	O 	0.27702 0.10010 0.05691 -0.41300
Co	Co	0.04605 0.05013 0.51251 1.17700
Co	Co	0.09380 0.89564 0.51573 1.17000
C 	C 	0.24254 0.13425 0.48818 0.36700
O 	O 	0.02933 0.13215 0.66584 -0.38400
C 	C 	0.04189 0.05564 0.69096 0.35100
O 	O 	0.03833 0.16835 0.50467 -0.47100
C 	C 	0.09753 0.30537 0.58837 0.29500
C 	C 	0.24588 0.90895 0.59773 0.31600
O 	O 	0.06108 0.01217 0.67846 -0.40300
O 	O 	0.24734 0.94790 0.55909 -0.38100
O 	O 	0.20393 0.92721 0.61217 -0.38600
O 	O 	0.11920 0.26373 0.57619 -0.40100
O 	O 	0.04582 0.94041 0.53969 -0.76300
O 	O 	0.17021 0.04611 0.47534 -0.42300
O 	O 	0.21544 0.14532 0.51146 -0.41500
C 	C 	0.12245 0.05843 0.87164 0.27700
C 	C 	0.11554 0.05094 0.90787 -0.06500
F 	F 	0.21030 0.15072 0.85416 -0.41400
H 	H 	0.18334 0.11695 0.92262 0.09200
C 	C 	0.11094 0.98221 0.80597 0.29700
C 	C 	0.10863 0.99844 0.76637 -0.01600
C 	C 	0.03112 0.01744 0.73297 -0.18800
F 	F 	0.18750 0.96598 0.83804 -0.40900
H 	H 	0.16955 0.00007 0.76166 0.07700
F 	F 	0.14771 0.05597 0.33056 -0.42100
H 	H 	0.16781 0.06246 0.26604 0.08900
F 	F 	0.01356 0.11359 0.31592 -0.42900
C 	C 	0.18052 0.42989 0.62684 -0.01700
C 	C 	0.19188 0.40658 0.60188 -0.11500
H 	H 	0.10401 0.37152 0.63872 0.05700
H 	H 	0.26921 0.46345 0.59059 0.08300
C 	C 	0.56810 0.74618 0.66490 -0.01700
C 	C 	0.61498 0.76774 0.63836 -0.10900
H 	H 	0.62177 0.78927 0.68867 0.08000
H 	H 	0.56169 0.72285 0.61518 0.08400
C 	C 	0.24966 0.76377 0.60688 -0.01100
C 	C 	0.27511 0.83174 0.62329 -0.13100
H 	H 	0.20672 0.76510 0.57501 0.04300
H 	H 	0.31313 0.82733 0.65558 0.09400
C 	C 	0.15321 0.36173 0.14366 -0.01600
C 	C 	0.18104 0.33732 0.12495 -0.11900
H 	H 	0.06731 0.30652 0.14872 0.04800
H 	H 	0.26752 0.38988 0.12082 0.08700
C 	C 	0.58287 0.70088 0.14622 -0.10800
C 	C 	0.54224 0.69010 0.17232 -0.01100
H 	H 	0.52651 0.64658 0.12631 0.08600
H 	H 	0.59991 0.74267 0.19296 0.08400
C 	C 	0.20966 0.64828 0.16541 -0.01900
C 	C 	0.27614 0.75180 0.16647 -0.12400
H 	H 	0.11726 0.60670 0.15422 0.05100
H 	H 	0.36680 0.79090 0.18137 0.09300
H 	H 	0.63393 0.11469 0.54925 0.04900
C 	C 	0.43598 0.28006 0.50192 0.01800
C 	C 	0.34621 0.20724 0.47992 -0.18400
H 	H 	0.42283 0.30257 0.51936 0.05500
H 	H 	0.36205 0.19555 0.45934 0.11400
C 	C 	0.47875 0.20392 0.00746 -0.00400
C 	C 	0.43644 0.18624 0.03504 -0.17200
H 	H 	0.42072 0.15986 0.98384 0.07100
H 	H 	0.49078 0.24007 0.05502 0.10100
Co	Co	0.03720 0.88528 0.58840 1.18400
O 	O 	0.02406 0.74289 0.55452 -0.43400
H 	H 	0.64447 0.08081 0.01203 0.09900
C 	C 	0.03829 0.97114 0.85333 0.02000
C 	C 	0.03515 0.98438 0.81221 -0.02100
O 	O 	0.00663 0.86073 0.63862 -0.46500
C 	C 	0.08320 0.99919 0.27220 -0.07600
C 	C 	0.06029 0.99233 0.30438 0.29200
C 	C 	0.73485 0.12937 0.01287 -0.17000
N 	N 	0.64475 0.40803 0.52057 -0.12700
O 	O 	0.04720 0.00480 0.98063 -0.38500
O 	O 	0.04883 0.69773 0.07252 -0.43200
C 	C 	0.67296 0.27628 0.51728 0.12500
C 	C 	0.68265 0.18966 0.52813 0.00400
C 	C 	0.03485 0.93664 0.96897 0.36700
C 	C 	0.02474 0.95622 0.92614 -0.16200
O 	O 	0.02984 0.85039 0.99479 -0.37600
Co	Co	0.02867 0.81702 0.10599 1.17800
O 	O 	0.01942 0.92474 0.19064 -0.37800
Co	Co	0.00068 0.07955 0.06990 1.17100
C 	C 	0.00010 0.96700 0.20381 0.30400
O 	O 	0.99095 0.25922 0.58698 -0.37500
H 	H 	0.99301 0.09799 0.38236 0.10900
Co	Co	0.98577 0.13156 0.55171 1.19200
O 	O 	0.75436 0.77850 0.13034 -0.37300
C 	C 	0.75234 0.28700 0.00513 0.12700
O 	O 	0.96745 0.98162 0.56372 -0.55400
O 	O 	0.75579 0.01126 0.07093 -0.40900
O 	O 	0.75831 0.87515 0.15557 -0.36900
H 	H 	0.76914 0.50301 0.06097 0.10200
Co	Co	0.96013 0.95460 0.62559 1.20300
O 	O 	0.94819 0.00502 0.45657 -0.37700
O 	O 	0.94052 0.05336 0.59541 -0.75700
C 	C 	0.94969 0.02141 0.37706 -0.08400
H 	H 	0.93578 0.57080 0.54183 0.06400
O 	O 	0.93677 0.85093 0.47636 -0.35500
C 	C 	0.95338 0.01618 0.73979 0.36100
C 	C 	0.96054 0.01994 0.34374 0.30800
F 	F 	0.76060 0.73141 0.42015 -0.43600
C 	C 	0.73689 0.85455 0.63863 0.31000
C 	C 	0.75178 0.43494 0.53099 0.13300
H 	H 	0.76088 0.53906 0.56806 0.10300
H 	H 	0.81100 0.74797 0.36169 0.11500
O 	O 	0.99400 0.04856 0.18018 -0.37600
C 	C 	0.99492 0.92955 0.24629 -0.08900
C 	C 	0.79373 0.41742 0.02634 0.13100
O 	O 	0.98372 0.19606 0.10145 -0.38200
C 	C 	0.86181 0.84355 0.28575 -0.15000
C 	C 	0.94693 0.92006 0.30921 0.03200
C 	C 	0.88813 0.84440 0.25626 0.35400
F 	F 	0.80727 0.76634 0.23555 -0.44700
C 	C 	0.85547 0.55186 0.05733 -0.14900
N 	N 	0.82900 0.38124 0.01647 -0.13100
N 	N 	0.76592 0.36939 0.52908 -0.13100
Co	Co	0.92922 0.88042 0.13519 1.19800
C 	C 	0.94065 0.64726 0.07058 0.37300
Co	Co	0.87088 0.03359 0.12649 1.16600
O 	O 	0.93111 0.99096 0.10745 -0.73600
O 	O 	0.95600 0.77164 0.14823 -0.43500
O 	O 	0.97569 0.92848 0.07823 -0.55100
C 	C 	0.78925 0.08290 0.03742 0.34600
O 	O 	0.88266 0.11771 0.03005 -0.37100
O 	O 	0.91344 0.67694 0.08628 -0.38200
C 	C 	0.92822 0.68838 0.56455 0.37600
Co	Co	0.88929 0.09903 0.61755 1.18200
C 	C 	0.92205 0.92460 0.44775 0.35800
O 	O 	0.78986 0.94018 0.65079 -0.33800
O 	O 	0.79450 0.83793 0.63218 -0.37300
C 	C 	0.78313 0.13570 0.53109 0.35200
O 	O 	0.75899 0.06657 0.56600 -0.40600
O 	O 	0.85318 0.15169 0.51654 -0.37800
O 	O 	0.91722 0.72887 0.58170 -0.38200
C 	C 	0.94598 0.87772 0.87103 -0.13400
C 	C 	0.93852 0.87059 0.90697 0.40000
F 	F 	0.84907 0.77910 0.92386 -0.43100
H 	H 	0.87893 0.81118 0.85654 0.12200
C 	C 	0.95532 0.99916 0.77906 -0.07400
F 	F 	0.87989 0.03738 0.70809 -0.47100
H 	H 	0.89626 0.00021 0.78368 0.09000
C 	C 	0.91777 0.92172 0.33963 0.02100
H 	H 	0.77493 0.78463 0.28984 0.11100
C 	C 	0.89057 0.92445 0.40509 -0.11900
C 	C 	0.82912 0.82615 0.39607 0.36300
C 	C 	0.84781 0.82461 0.36504 -0.15000
C 	C 	0.75106 0.20213 0.51323 -0.17700
H 	H 	0.78672 0.27068 0.48811 0.10800
C 	C 	0.85226 0.53449 0.54455 0.00300
C 	C 	0.84085 0.58278 0.56042 -0.15100
C 	C 	0.79432 0.23756 0.00279 0.00600
H 	H 	0.88369 0.28813 0.00181 0.06300
C 	C 	0.87937 0.52089 0.03823 0.00500
H 	H 	0.96471 0.57205 0.03326 0.06500
