data_crystal

_cell_length_a 33.54537
_cell_length_b 34.24414
_cell_length_c 44.87259
_cell_angle_alpha 95.53715
_cell_angle_beta  95.53917
_cell_angle_gamma 125.44991

_symmetry_space_group_name_	'P 1'
_symmetry_space_group_name_H-M	'P 1'

loop_
_symmetry_equiv_pos_as_xyz
  x,y,z

loop_
_atom_site_label
_atom_site_type_symbol
_atom_site_fract_x
_atom_site_fract_y
_atom_site_fract_z
_atom_site_charge
C 	C 	0.96532 0.01346 0.99691 0.03000
C 	C 	0.01453 0.03822 0.99209 -0.07700
C 	C 	0.03577 0.01324 0.98855 0.03100
H 	H 	0.03614 0.07673 0.99103 0.04900
C 	C 	0.00652 0.03537 0.46128 -0.07600
C 	C 	0.03042 0.01288 0.46384 0.03100
H 	H 	0.02773 0.07352 0.45932 0.05000
C 	C 	0.71385 0.23428 0.98267 0.28900
O 	O 	0.72644 0.26994 0.49658 -0.44100
C 	C 	0.93105 0.03345 0.46046 -0.00400
C 	C 	0.89652 0.02171 0.43450 -0.03600
C 	C 	0.87631 0.04764 0.43240 -0.04300
C 	C 	0.89047 0.08546 0.45628 0.00700
C 	C 	0.92429 0.09654 0.48248 -0.04300
C 	C 	0.94452 0.07069 0.48454 -0.03600
C 	C 	0.86978 0.11338 0.45400 0.00600
C 	C 	0.90167 0.16402 0.45527 -0.04300
C 	C 	0.88282 0.19129 0.45634 -0.03700
C 	C 	0.83191 0.16814 0.45608 -0.00300
C 	C 	0.79968 0.11722 0.45343 -0.03700
C 	C 	0.81854 0.08997 0.45244 -0.04300
C 	C 	0.81324 0.19752 0.46162 0.02700
C 	C 	0.81495 0.22619 0.44070 -0.06800
C 	C 	0.79759 0.25434 0.44625 0.01600
C 	C 	0.77844 0.25404 0.47281 -0.09600
C 	C 	0.77713 0.22553 0.49378 0.01300
C 	C 	0.79443 0.19749 0.48820 -0.07000
H 	H 	0.85012 0.03872 0.41213 0.03900
H 	H 	0.93500 0.12527 0.50118 0.03800
H 	H 	0.97102 0.07988 0.50471 0.03700
H 	H 	0.94121 0.18236 0.45613 0.03800
H 	H 	0.90799 0.23055 0.45831 0.03700
H 	H 	0.76025 0.09896 0.45298 0.03700
H 	H 	0.79358 0.05088 0.45132 0.03800
H 	H 	0.82946 0.22648 0.42011 0.04700
H 	H 	0.79856 0.27588 0.42978 0.03900
H 	H 	0.79348 0.17590 0.50465 0.04300
C 	C 	0.08441 0.04116 0.46442 -0.00400
C 	C 	0.10359 0.05782 0.43824 -0.03600
C 	C 	0.15466 0.08338 0.43855 -0.04300
C 	C 	0.18690 0.09253 0.46506 0.00700
C 	C 	0.16775 0.07621 0.49130 -0.04300
C 	C 	0.11670 0.05060 0.49098 -0.03600
C 	C 	0.24063 0.11889 0.46530 0.00700
C 	C 	0.25767 0.09761 0.44730 -0.04200
C 	C 	0.30871 0.12223 0.44796 -0.03700
C 	C 	0.34309 0.16837 0.46658 -0.00200
C 	C 	0.32600 0.18973 0.48447 -0.03700
C 	C 	0.27498 0.16505 0.48386 -0.04200
C 	C 	0.39694 0.19447 0.46720 0.02600
C 	C 	0.41628 0.20811 0.44061 -0.06700
C 	C 	0.46752 0.23435 0.44142 0.01300
C 	C 	0.50000 0.24744 0.46889 -0.08700
C 	C 	0.48045 0.23302 0.49539 0.01400
C 	C 	0.42917 0.20663 0.49452 -0.06700
H 	H 	0.07889 0.05062 0.41763 0.03700
H 	H 	0.16917 0.09602 0.41822 0.03900
H 	H 	0.19238 0.08308 0.51186 0.03900
H 	H 	0.10220 0.03796 0.51131 0.03700
H 	H 	0.23140 0.06189 0.43299 0.03900
H 	H 	0.32156 0.10539 0.43414 0.03700
H 	H 	0.35224 0.22547 0.49876 0.03800
H 	H 	0.26212 0.18180 0.49776 0.03900
H 	H 	0.39166 0.19881 0.41940 0.04500
H 	H 	0.48197 0.24465 0.42072 0.02700
H 	H 	0.41451 0.19596 0.51511 0.04500
C 	C 	0.94251 0.03942 0.99977 -0.00500
C 	C 	0.93827 0.06109 0.97584 -0.03600
C 	C 	0.91571 0.08476 0.97824 -0.04400
C 	C 	0.89697 0.08678 0.00452 0.00800
C 	C 	0.90136 0.06534 0.02851 -0.04300
C 	C 	0.92417 0.04186 0.02619 -0.03600
C 	C 	0.87183 0.11043 0.00656 0.00600
C 	C 	0.89933 0.16120 0.00917 -0.04300
C 	C 	0.87493 0.18320 0.00828 -0.03700
C 	C 	0.82279 0.15454 0.00460 -0.00200
C 	C 	0.79546 0.10392 0.00304 -0.03700
C 	C 	0.81991 0.08197 0.00407 -0.04200
C 	C 	0.79662 0.17691 0.99990 0.02600
C 	C 	0.80143 0.19986 0.97483 -0.07000
C 	C 	0.77505 0.21922 0.96951 0.01300
C 	C 	0.74335 0.21568 0.98915 -0.09700
C 	C 	0.73903 0.19325 0.01449 0.01700
C 	C 	0.76558 0.17397 0.01984 -0.06800
H 	H 	0.95205 0.05918 0.95529 0.03600
H 	H 	0.91230 0.10110 0.95957 0.03800
H 	H 	0.88706 0.06682 0.04890 0.03900
H 	H 	0.93947 0.18347 0.01133 0.03800
H 	H 	0.89639 0.22235 0.00979 0.03700
H 	H 	0.75521 0.08147 0.00017 0.03700
H 	H 	0.79842 0.04274 0.00212 0.03900
H 	H 	0.82506 0.20203 0.95921 0.04300
H 	H 	0.71518 0.19076 0.03003 0.03900
H 	H 	0.76186 0.15657 0.03936 0.04600
C 	C 	0.08756 0.03923 0.98370 -0.00500
C 	C 	0.12702 0.07695 0.00651 -0.03600
C 	C 	0.17628 0.09867 0.00309 -0.04300
C 	C 	0.18649 0.08273 0.97687 0.00700
C 	C 	0.14704 0.04595 0.95367 -0.04300
C 	C 	0.09777 0.02435 0.95705 -0.03600
C 	C 	0.23837 0.10313 0.97429 0.00700
C 	C 	0.26747 0.09760 0.99557 -0.04300
C 	C 	0.31709 0.11819 0.99374 -0.03700
C 	C 	0.33803 0.14430 0.97054 -0.00200
C 	C 	0.30864 0.14896 0.94886 -0.03700
C 	C 	0.25901 0.12850 0.95076 -0.04200
C 	C 	0.39146 0.16927 0.97011 0.02700
C 	C 	0.41084 0.14239 0.96774 -0.06700
C 	C 	0.46224 0.16649 0.97067 0.01400
C 	C 	0.49474 0.21775 0.97604 -0.09000
H 	H 	0.20652 0.12737 0.02099 0.03900
H 	H 	0.15455 0.03349 0.93332 0.03900
H 	H 	0.25171 0.07768 0.01364 0.03900
H 	H 	0.33953 0.11457 0.01065 0.03900
H 	H 	0.32442 0.16892 0.93080 0.03700
H 	H 	0.23679 0.13284 0.93418 0.03800
H 	H 	0.38617 0.10290 0.96421 0.04500
H 	H 	0.47679 0.14535 0.96923 0.03200
O 	O 	0.67107 0.21470 0.99179 -0.37500
H 	H 	0.11951 0.08870 0.02715 0.03700
H 	H 	0.92751 0.02549 0.04486 0.03700
O 	O 	0.56777 0.22141 0.99302 -0.36300
C 	C 	0.42367 0.22032 0.97417 -0.06700
H 	H 	0.63965 0.27026 0.44940 0.16400
H 	H 	0.50498 0.24293 0.51677 0.03800
H 	H 	0.60346 0.24176 0.94013 0.17200
H 	H 	0.76303 0.22535 0.51453 0.01600
H 	H 	0.65213 0.20991 0.24748 0.04000
H 	H 	0.65709 0.22363 0.30322 0.03700
H 	H 	0.76874 0.31509 0.20921 0.04000
Cu	Cu	0.64078 0.25029 0.99503 0.92800
Cu	Cu	0.68379 0.25797 0.93148 0.87000
O 	O 	0.63746 0.26046 0.95247 -0.64200
C 	C 	0.54923 0.24347 0.98264 0.28300
O 	O 	0.65502 0.26488 0.89543 -0.42200
O 	O 	0.58283 0.27677 0.49222 -0.38300
C 	C 	0.55437 0.27746 0.47006 0.29000
C 	C 	0.75904 0.28277 0.47861 0.28800
H 	H 	0.59889 0.25174 0.78647 0.03600
H 	H 	0.60089 0.26529 0.73346 0.03900
H 	H 	0.57377 0.31018 0.69562 0.03900
H 	H 	0.58625 0.31271 0.64228 0.03800
C 	C 	0.73146 0.29778 0.19661 -0.04400
C 	C 	0.72393 0.29564 0.16510 -0.03200
C 	C 	0.67769 0.25461 0.29203 -0.03200
C 	C 	0.67480 0.24684 0.26046 -0.04400
H 	H 	0.75545 0.31141 0.15357 0.03700
H 	H 	0.77855 0.23614 0.94978 0.01600
C 	C 	0.47500 0.24446 0.97704 0.01300
H 	H 	0.40904 0.24138 0.97598 0.04500
Cu	Cu	0.73737 0.31659 0.52914 0.87000
O 	O 	0.72849 0.26783 0.96577 -0.44100
O 	O 	0.65438 0.25311 0.03798 -0.36300
O 	O 	0.65872 0.30531 0.45850 -0.64100
C 	C 	0.61763 0.28854 0.78209 -0.03200
C 	C 	0.61865 0.29621 0.75205 -0.04400
C 	C 	0.61121 0.33000 0.69088 -0.04400
C 	C 	0.61829 0.33154 0.66068 -0.03100
O 	O 	0.77624 0.32256 0.46723 -0.37400
Cu	Cu	0.65488 0.31794 0.50021 0.89700
O 	O 	0.57361 0.30878 0.45126 -0.39500
C 	C 	0.69111 0.27892 0.21193 0.00800
C 	C 	0.69976 0.28676 0.24557 0.00800
C 	C 	0.70568 0.30227 0.30889 -0.00800
C 	C 	0.67604 0.27450 0.14873 -0.00800
C 	C 	0.66897 0.27714 0.11701 0.04400
O 	O 	0.57930 0.28990 0.98116 -0.39400
C 	C 	0.70333 0.31047 0.34056 0.04400
C 	C 	0.66193 0.27883 0.09046 -0.10500
H 	H 	0.49950 0.28397 0.98101 0.02800
C 	C 	0.65238 0.28130 0.05909 0.30500
C 	C 	0.65864 0.30473 0.89269 0.30700
C 	C 	0.68838 0.34003 0.56732 0.30700
O 	O 	0.65099 0.32010 0.54397 -0.38900
O 	O 	0.73062 0.34716 0.56408 -0.42300
C 	C 	0.70203 0.31843 0.36708 -0.10500
O 	O 	0.73132 0.33128 0.41983 -0.36400
C 	C 	0.67984 0.34618 0.59757 -0.11300
C 	C 	0.67329 0.35019 0.62330 0.04500
C 	C 	0.65242 0.31383 0.86265 -0.11200
C 	C 	0.69999 0.32925 0.39835 0.30500
C 	C 	0.64294 0.25614 0.19527 -0.04300
C 	C 	0.66645 0.35552 0.65424 -0.01100
C 	C 	0.64821 0.32090 0.83711 0.04500
C 	C 	0.63546 0.25391 0.16379 -0.03100
C 	C 	0.64265 0.32838 0.80639 -0.01000
H 	H 	0.61155 0.24154 0.20686 0.04000
C 	C 	0.64464 0.34385 0.74611 0.00800
C 	C 	0.65232 0.35229 0.71482 0.00800
O 	O 	0.63011 0.30167 0.05208 -0.38700
Cu	Cu	0.73671 0.34899 0.46268 0.92700
H 	H 	0.59831 0.23735 0.15125 0.03900
Cu	Cu	0.63987 0.33975 0.43876 0.89300
O 	O 	0.72905 0.35648 0.50560 -0.64100
O 	O 	0.67663 0.34871 0.40449 -0.38700
C 	C 	0.70766 0.38012 0.67819 -0.03200
C 	C 	0.72951 0.33441 0.26272 -0.04300
C 	C 	0.70066 0.37848 0.70837 -0.04400
C 	C 	0.73248 0.34209 0.29426 -0.03100
Cu	Cu	0.67276 0.33271 0.95955 0.89700
O 	O 	0.68168 0.32671 0.00116 -0.64100
O 	O 	0.67553 0.33982 0.91648 -0.38900
H 	H 	0.74503 0.39896 0.67339 0.03600
H 	H 	0.73266 0.39590 0.72665 0.03900
Cu	Cu	0.64084 0.33963 0.01871 0.89300
H 	H 	0.71685 0.34680 0.01184 0.16400
C 	C 	0.66652 0.37582 0.80051 -0.03100
H 	H 	0.74687 0.39057 0.51640 0.17200
C 	C 	0.66744 0.38356 0.77045 -0.04400
H 	H 	0.74893 0.36548 0.25147 0.04000
H 	H 	0.75436 0.37904 0.30718 0.04000
O 	O 	0.69041 0.40431 0.47371 -0.39400
O 	O 	0.76134 0.41871 0.46127 -0.36200
H 	H 	0.68568 0.40679 0.81919 0.03800
O 	O 	0.71056 0.40296 0.96933 -0.38300
O 	O 	0.67053 0.40541 0.00794 -0.39600
H 	H 	0.68714 0.42044 0.76611 0.03900
C 	C 	0.73679 0.43525 0.47055 0.28200
C 	C 	0.70359 0.42748 0.99012 0.29100
C 	C 	0.95541 0.00889 0.46172 0.03000
H 	H 	0.06753 0.99547 0.93922 0.03700
H 	H 	0.88600 0.99309 0.41577 0.03700
C 	C 	0.00783 0.96350 0.98999 -0.07600
C 	C 	0.95878 0.93866 0.99499 0.03100
C 	C 	0.93754 0.96367 0.99840 -0.07700
H 	H 	0.02425 0.94417 0.98727 0.05000
H 	H 	0.89949 0.94443 0.00207 0.05000
C 	C 	0.00307 0.96369 0.46656 -0.07600
C 	C 	0.95198 0.93699 0.46703 0.03100
C 	C 	0.92807 0.95957 0.46444 -0.07600
H 	H 	0.02153 0.94622 0.46837 0.05000
H 	H 	0.88865 0.93913 0.46503 0.04900
C 	C 	0.92383 0.88553 0.47064 -0.00400
C 	C 	0.93711 0.87353 0.49701 -0.03600
C 	C 	0.91527 0.82472 0.49879 -0.04300
C 	C 	0.87976 0.78744 0.47430 0.00700
C 	C 	0.86498 0.79933 0.44844 -0.04300
C 	C 	0.88698 0.84820 0.44661 -0.03600
C 	C 	0.85977 0.73621 0.47516 0.00600
C 	C 	0.86756 0.71023 0.45332 -0.04200
C 	C 	0.84917 0.66192 0.45431 -0.03700
C 	C 	0.82302 0.63920 0.47724 -0.00200
C 	C 	0.81564 0.66533 0.49926 -0.03700
C 	C 	0.83384 0.71358 0.49819 -0.04200
C 	C 	0.80134 0.58739 0.47732 0.02600
C 	C 	0.83215 0.57210 0.47978 -0.06700
C 	C 	0.81128 0.52260 0.47824 0.01400
C 	C 	0.75934 0.48792 0.47424 -0.08900
C 	C 	0.72871 0.50354 0.47249 0.01200
C 	C 	0.74961 0.55294 0.47396 -0.06700
H 	H 	0.96530 0.90210 0.51576 0.03600
H 	H 	0.92681 0.81593 0.51889 0.03800
H 	H 	0.83716 0.77078 0.42955 0.03900
H 	H 	0.87643 0.85708 0.42619 0.03700
H 	H 	0.88792 0.72750 0.43562 0.03900
H 	H 	0.85481 0.64199 0.43710 0.03800
H 	H 	0.79559 0.64816 0.51708 0.03700
H 	H 	0.82767 0.73332 0.51517 0.03800
H 	H 	0.87220 0.59850 0.48266 0.04500
H 	H 	0.83545 0.51126 0.48003 0.03200
H 	H 	0.68861 0.47731 0.46933 0.02900
H 	H 	0.72550 0.56436 0.47195 0.04500
C 	C 	0.72947 0.48019 0.99130 -0.08800
C 	C 	0.70491 0.50139 0.99713 0.01500
C 	C 	0.72929 0.55131 0.99801 -0.06800
C 	C 	0.77854 0.58060 0.99326 0.02700
C 	C 	0.80320 0.55950 0.98754 -0.06800
C 	C 	0.77872 0.50949 0.98646 0.01500
C 	C 	0.80418 0.63330 0.99413 -0.00300
C 	C 	0.82205 0.65355 0.96848 -0.03700
C 	C 	0.84596 0.70338 0.96922 -0.04200
C 	C 	0.85188 0.73334 0.99554 0.00600
C 	C 	0.83384 0.71305 0.02114 -0.04200
C 	C 	0.81025 0.66328 0.02048 -0.03700
C 	C 	0.87774 0.78608 0.99644 0.00700
C 	C 	0.85973 0.80231 0.97512 -0.04300
C 	C 	0.88562 0.85220 0.97503 -0.03600
C 	C 	0.92957 0.88628 0.99640 -0.00500
C 	C 	0.94688 0.87010 0.01820 -0.03600
C 	C 	0.92120 0.82021 0.01815 -0.04300
H 	H 	0.66675 0.47911 0.00059 0.03200
H 	H 	0.70981 0.56719 0.00220 0.04600
H 	H 	0.84134 0.58187 0.98403 0.04500
H 	H 	0.79818 0.49362 0.98216 0.02900
H 	H 	0.81729 0.63066 0.94798 0.03800
H 	H 	0.86004 0.71876 0.94941 0.03800
H 	H 	0.83811 0.73585 0.04153 0.03800
H 	H 	0.79673 0.64802 0.04043 0.03700
H 	H 	0.82597 0.77626 0.95844 0.03900
H 	H 	0.87200 0.86434 0.95809 0.03700
H 	H 	0.98059 0.89616 0.03491 0.03700
H 	H 	0.93541 0.80805 0.03469 0.03800
