data_crystal

_cell_length_a 25.79658
_cell_length_b 22.38064
_cell_length_c 49.15761
_cell_angle_alpha 88.71365
_cell_angle_beta  88.83484
_cell_angle_gamma 107.11854

_symmetry_space_group_name_	'P 1'
_symmetry_space_group_name_H-M	'P 1'

loop_
_symmetry_equiv_pos_as_xyz
  x,y,z

loop_
_atom_site_label
_atom_site_type_symbol
_atom_site_fract_x
_atom_site_fract_y
_atom_site_fract_z
_atom_site_charge
Zn	Zn	0.61239 0.29854 0.90007 1.22100
Zn	Zn	0.68144 0.40506 0.94143 1.19500
C 	C 	0.77927 0.24125 0.87728 0.31200
Zn	Zn	0.73934 0.33870 0.90289 1.22200
Zn	Zn	0.66124 0.21076 0.87070 1.19300
H 	H 	0.67706 0.28921 0.94290 0.18200
C 	C 	0.72574 0.45702 0.88339 0.32100
O 	O 	0.58351 0.17712 0.86142 -0.46500
O 	O 	0.55817 0.26606 0.86769 -0.39500
O 	O 	0.67651 0.32036 0.92838 -0.78900
O 	O 	0.60313 0.40045 0.94516 -0.46800
O 	O 	0.57302 0.22246 0.92145 -0.44100
O 	O 	0.57993 0.36790 0.90207 -0.43600
O 	O 	0.63953 0.17705 0.91271 -0.41900
O 	O 	0.75869 0.45507 0.94480 -0.46300
H 	H 	0.67540 0.32560 0.85960 0.17200
O 	O 	0.79583 0.37761 0.93374 -0.40400
O 	O 	0.67511 0.30108 0.87665 -0.79600
O 	O 	0.73236 0.19727 0.87869 -0.45400
O 	O 	0.75806 0.42113 0.88378 -0.44200
O 	O 	0.78916 0.28849 0.89393 -0.42300
O 	O 	0.68392 0.44650 0.90055 -0.41500
C 	C 	0.55050 0.21110 0.85668 0.32200
C 	C 	0.56932 0.39182 0.92496 0.35000
C 	C 	0.59336 0.17573 0.92484 0.33400
C 	C 	0.79970 0.43154 0.94488 0.33100
Zn	Zn	0.64916 0.37905 0.51729 1.22100
Zn	Zn	0.55631 0.28596 0.47946 1.19600
C 	C 	0.67724 0.19151 0.56381 0.31500
Zn	Zn	0.60454 0.23310 0.52716 1.22300
Zn	Zn	0.71428 0.32916 0.55736 1.19400
H 	H 	0.65336 0.28350 0.48390 0.18100
C 	C 	0.50211 0.25973 0.53746 0.32300
O 	O 	0.75225 0.42007 0.55682 -0.46700
O 	O 	0.68180 0.45577 0.54349 -0.39500
O 	O 	0.62645 0.29308 0.49637 -0.79100
O 	O 	0.56729 0.37458 0.46778 -0.47400
O 	O 	0.71897 0.40517 0.49651 -0.43600
O 	O 	0.59442 0.42255 0.50793 -0.43200
O 	O 	0.74559 0.32601 0.51600 -0.41900
O 	O 	0.50989 0.19770 0.48156 -0.46500
H 	H 	0.61540 0.32654 0.56248 0.17200
O 	O 	0.57164 0.15630 0.50121 -0.40200
O 	O 	0.63799 0.31740 0.54754 -0.79200
O 	O 	0.71885 0.24243 0.56229 -0.45500
O 	O 	0.53171 0.22245 0.54323 -0.44300
O 	O 	0.64351 0.17757 0.54356 -0.42600
O 	O 	0.51633 0.30152 0.51724 -0.41800
C 	C 	0.72894 0.46495 0.55518 0.32300
C 	C 	0.56926 0.41968 0.48469 0.35200
C 	C 	0.75428 0.37347 0.49850 0.32700
C 	C 	0.52788 0.14972 0.48695 0.32900
Zn	Zn	0.97400 0.92377 0.70884 1.22400
Zn	Zn	0.06376 0.90795 0.75296 1.19600
C 	C 	0.12886 0.07371 0.65620 0.32500
Zn	Zn	0.09073 0.01723 0.71157 1.22100
Zn	Zn	0.00881 0.00819 0.65851 1.19200
H 	H 	0.07312 0.90242 0.70088 0.18300
C 	C 	0.04289 0.03666 0.76350 0.30700
O 	O 	0.92994 0.97227 0.65278 -0.46100
O 	O 	0.89920 0.93814 0.69648 -0.38600
O 	O 	0.05674 0.92573 0.71367 -0.78300
O 	O 	0.99419 0.84059 0.76070 -0.46700
O 	O 	0.96093 0.85473 0.68366 -0.44200
O 	O 	0.93793 0.89503 0.74466 -0.43000
O 	O 	0.01641 0.91514 0.65095 -0.40600
O 	O 	0.13288 0.96385 0.76668 -0.46200
H 	H 	0.99577 0.03981 0.70656 0.16800
O 	O 	0.16664 0.01130 0.72583 -0.41900
O 	O 	0.01306 0.01004 0.69848 -0.80300
O 	O 	0.08652 0.03505 0.64491 -0.46100
O 	O 	0.07993 0.06200 0.74445 -0.43800
O 	O 	0.13439 0.07496 0.68282 -0.44000
O 	O 	0.02369 0.97553 0.76680 -0.40300
C 	C 	0.89133 0.95907 0.67199 0.31800
C 	C 	0.94549 0.84757 0.75869 0.34100
C 	C 	0.97938 0.86311 0.65853 0.32700
C 	C 	0.17387 0.99698 0.75121 0.35000
Zn	Zn	0.29092 0.68663 0.39617 1.22200
Zn	Zn	0.20626 0.58068 0.43649 1.19500
C 	C 	0.13709 0.75732 0.36303 0.31400
Zn	Zn	0.16443 0.65590 0.39413 1.22200
Zn	Zn	0.25585 0.77941 0.36143 1.19400
H 	H 	0.21779 0.69829 0.43564 0.18300
C 	C 	0.17517 0.53584 0.37776 0.31900
O 	O 	0.33597 0.80921 0.35634 -0.46400
O 	O 	0.35424 0.71682 0.36581 -0.39600
O 	O 	0.22019 0.66763 0.42184 -0.79000
O 	O 	0.28132 0.57722 0.44424 -0.46400
O 	O 	0.32667 0.76154 0.41678 -0.44000
O 	O 	0.31855 0.61435 0.40229 -0.43700
O 	O 	0.26487 0.81006 0.40340 -0.41700
O 	O 	0.12675 0.53770 0.43749 -0.46100
H 	H 	0.23817 0.66368 0.35365 0.17300
O 	O 	0.09974 0.62156 0.42350 -0.40000
O 	O 	0.23564 0.68856 0.36975 -0.79600
O 	O 	0.18535 0.79874 0.36335 -0.45200
O 	O 	0.14480 0.57391 0.37670 -0.44000
O 	O 	0.12223 0.71256 0.38203 -0.42300
O 	O 	0.21178 0.54124 0.39661 -0.41400
C 	C 	0.36755 0.77277 0.35392 0.32300
C 	C 	0.32222 0.58985 0.42647 0.34600
C 	C 	0.30667 0.80892 0.41801 0.33100
C 	C 	0.08962 0.56713 0.43635 0.32800
Zn	Zn	0.22265 0.70379 0.01934 1.22300
Zn	Zn	0.32709 0.76682 0.05892 1.19800
C 	C 	0.34281 0.60040 0.96923 0.33900
Zn	Zn	0.34053 0.69421 0.00974 1.22300
Zn	Zn	0.23398 0.62307 0.97181 1.19700
H 	H 	0.28411 0.65194 0.05155 0.18200
C 	C 	0.37142 0.82902 0.00269 0.31800
O 	O 	0.15522 0.61198 0.97279 -0.46700
O 	O 	0.15674 0.70333 0.99321 -0.39700
O 	O 	0.29006 0.69045 0.04010 -0.79500
O 	O 	0.26330 0.79085 0.07174 -0.47800
O 	O 	0.17732 0.62256 0.03465 -0.43600
O 	O 	0.21190 0.78248 0.03368 -0.42900
O 	O 	0.22247 0.56703 0.00976 -0.41200
O 	O 	0.40640 0.78169 0.05705 -0.46600
H 	H 	0.27779 0.73950 0.97629 0.17600
O 	O 	0.40566 0.69185 0.03584 -0.39900
O 	O 	0.27214 0.70259 0.98872 -0.79200
O 	O 	0.29361 0.58833 0.95963 -0.45700
O 	O 	0.38369 0.77797 0.99600 -0.43900
O 	O 	0.35257 0.61889 0.99428 -0.43900
O 	O 	0.33559 0.82740 0.02247 -0.42100
C 	C 	0.13111 0.65390 0.97951 0.33400
C 	C 	0.23159 0.81156 0.05601 0.35000
C 	C 	0.18563 0.56908 0.02850 0.31900
C 	C 	0.42971 0.73862 0.05126 0.32600
Zn	Zn	0.94477 0.11413 0.19564 1.22200
Zn	Zn	0.85952 0.10867 0.24705 1.19500
C 	C 	0.79394 0.96154 0.14806 0.32800
Zn	Zn	0.83165 0.01234 0.20245 1.22000
Zn	Zn	0.90704 0.04440 0.14406 1.19300
H 	H 	0.84208 0.12848 0.19695 0.18300
C 	C 	0.88730 0.98180 0.24940 0.33200
O 	O 	0.98240 0.09385 0.13448 -0.47100
O 	O 	0.01947 0.11006 0.17673 -0.38500
O 	O 	0.86187 0.10339 0.20686 -0.78800
O 	O 	0.92733 0.17786 0.25269 -0.46800
O 	O 	0.94935 0.18896 0.17297 -0.43900
O 	O 	0.98542 0.13526 0.22964 -0.43100
O 	O 	0.88762 0.13282 0.14418 -0.41800
O 	O 	0.79452 0.04468 0.26311 -0.46400
H 	H 	0.92851 0.99968 0.18883 0.18100
O 	O 	0.75705 0.00850 0.22281 -0.41000
O 	O 	0.90827 0.02945 0.18381 -0.80700
O 	O 	0.82898 0.00922 0.13526 -0.46800
O 	O 	0.84921 0.95974 0.23171 -0.43700
O 	O 	0.78479 0.96193 0.17456 -0.42800
O 	O 	0.90533 0.04212 0.25373 -0.42500
C 	C 	0.02332 0.09831 0.15065 0.32200
C 	C 	0.97674 0.17552 0.24703 0.33600
C 	C 	0.92410 0.18520 0.15003 0.32900
C 	C 	0.75261 0.01383 0.24919 0.31800
C 	C 	0.00359 0.31471 0.09228 0.01000
C 	C 	0.05152 0.30680 0.08108 -0.03900
C 	C 	0.08834 0.35602 0.06640 -0.02800
C 	C 	0.07730 0.41328 0.06277 -0.01100
C 	C 	0.02822 0.42022 0.07287 -0.02200
C 	C 	0.99149 0.37109 0.08764 -0.05100
C 	C 	0.97132 0.26882 0.11165 0.04200
C 	C 	0.94743 0.23058 0.12873 -0.11000
C 	C 	0.11752 0.46617 0.05023 0.05100
C 	C 	0.14987 0.51210 0.04015 -0.10900
H 	H 	0.06119 0.26335 0.08460 0.04600
H 	H 	0.12600 0.35014 0.05849 0.04000
H 	H 	0.01921 0.46423 0.06995 0.04000
H 	H 	0.95460 0.37764 0.09624 0.04200
C 	C 	0.67855 0.84011 0.10433 -0.00800
C 	C 	0.63926 0.79121 0.11803 -0.03300
C 	C 	0.59198 0.75921 0.10489 -0.03400
C 	C 	0.58375 0.77613 0.07805 -0.00700
C 	C 	0.62520 0.82126 0.06365 -0.03300
C 	C 	0.67247 0.85330 0.07679 -0.03300
C 	C 	0.72062 0.88203 0.11942 0.05100
C 	C 	0.75462 0.91808 0.13234 -0.11700
C 	C 	0.52978 0.75789 0.06764 0.05100
C 	C 	0.48413 0.74663 0.05969 -0.11300
H 	H 	0.64400 0.78016 0.13923 0.04100
H 	H 	0.56036 0.72400 0.11612 0.03800
H 	H 	0.61940 0.83428 0.04282 0.04300
H 	H 	0.70301 0.89050 0.06595 0.04100
C 	C 	0.18429 0.95334 0.08836 -0.02000
C 	C 	0.18865 0.95851 0.11664 -0.01500
C 	C 	0.16702 0.00025 0.13026 -0.05400
C 	C 	0.14094 0.03696 0.11566 0.00200
C 	C 	0.14070 0.03549 0.08713 -0.05400
C 	C 	0.16207 0.99347 0.07351 -0.01400
C 	C 	0.19935 0.90414 0.07503 0.06100
C 	C 	0.21287 0.86194 0.06531 -0.12200
C 	C 	0.10413 0.06369 0.12971 0.04300
C 	C 	0.06939 0.08198 0.14029 -0.12200
H 	H 	0.20676 0.92838 0.12820 0.03500
H 	H 	0.16769 0.00132 0.15229 0.04100
H 	H 	0.12093 0.06406 0.07565 0.04300
H 	H 	0.15944 0.99052 0.05158 0.03900
C 	C 	0.61246 0.91541 0.28918 -0.00300
C 	C 	0.60642 0.92033 0.31736 -0.03400
C 	C 	0.55786 0.88728 0.33086 -0.03200
C 	C 	0.51518 0.84913 0.31622 -0.00700
C 	C 	0.52161 0.84333 0.28812 -0.03300
C 	C 	0.57017 0.87638 0.27463 -0.03500
C 	C 	0.66185 0.95072 0.27517 0.04700
C 	C 	0.70323 0.97996 0.26335 -0.10000
C 	C 	0.46348 0.82009 0.32961 0.05000
C 	C 	0.41985 0.79738 0.34076 -0.11200
H 	H 	0.63906 0.95018 0.32876 0.04200
H 	H 	0.55311 0.89213 0.35258 0.04300
H 	H 	0.48872 0.81407 0.27666 0.03800
H 	H 	0.57468 0.87212 0.25285 0.04300
C 	C 	0.14342 0.39345 0.32437 -0.00600
C 	C 	0.12519 0.33135 0.33425 -0.03300
C 	C 	0.10068 0.28336 0.31675 -0.03300
C 	C 	0.09417 0.29729 0.28931 -0.00600
C 	C 	0.11638 0.35868 0.27901 -0.03400
C 	C 	0.14090 0.40668 0.29650 -0.03400
C 	C 	0.15699 0.44381 0.34318 0.04800
C 	C 	0.16628 0.48590 0.35897 -0.10900
C 	C 	0.05598 0.25227 0.27347 0.05100
C 	C 	0.02129 0.21615 0.26092 -0.10800
H 	H 	0.12750 0.32062 0.35572 0.04200
H 	H 	0.08398 0.23597 0.32487 0.04100
H 	H 	0.11189 0.36984 0.25778 0.04100
H 	H 	0.15541 0.45449 0.28864 0.03800
C 	C 	0.95878 0.86847 0.29071 -0.00600
C 	C 	0.95358 0.86360 0.31918 -0.03100
C 	C 	0.98569 0.83471 0.33405 -0.03800
C 	C 	0.02310 0.81055 0.32050 -0.00100
C 	C 	0.02653 0.81291 0.29198 -0.02900
C 	C 	0.99445 0.84184 0.27712 -0.03900
C 	C 	0.93207 0.90646 0.27577 0.05100
C 	C 	0.91096 0.93994 0.26353 -0.11200
C 	C 	0.06185 0.78962 0.33581 0.04800
C 	C 	0.09552 0.77390 0.34840 -0.11100
H 	H 	0.92600 0.88394 0.32984 0.04300
H 	H 	0.98271 0.83292 0.35609 0.04500
H 	H 	0.05526 0.79419 0.28135 0.03600
H 	H 	0.99860 0.84528 0.25511 0.03800
C 	C 	0.49821 0.08901 0.47789 -0.11900
C 	C 	0.47276 0.03859 0.46987 0.05500
C 	C 	0.44219 0.97893 0.45974 -0.04100
C 	C 	0.38794 0.96291 0.45941 -0.06200
C 	C 	0.35798 0.90786 0.44554 0.07400
C 	C 	0.33383 0.86238 0.43333 -0.12300
H 	H 	0.36628 0.99311 0.46821 0.05400
H 	H 	0.46380 0.94867 0.45096 0.04900
C 	C 	0.80564 0.39574 0.48415 -0.12200
C 	C 	0.84942 0.41613 0.47280 0.06900
C 	C 	0.90229 0.44210 0.45993 -0.05800
C 	C 	0.93988 0.48771 0.47185 -0.05200
C 	C 	0.99256 0.51497 0.45897 0.05900
C 	C 	0.03682 0.53852 0.44853 -0.11300
H 	H 	0.93088 0.50503 0.49133 0.04700
H 	H 	0.91111 0.42465 0.44046 0.04900
C 	C 	0.36787 0.56766 0.43201 -0.12500
C 	C 	0.40569 0.54810 0.43673 0.07400
C 	C 	0.45001 0.52307 0.44226 -0.05600
C 	C 	0.47270 0.52942 0.46669 -0.05800
C 	C 	0.50892 0.49368 0.47387 0.07500
C 	C 	0.53757 0.46137 0.47926 -0.12800
H 	H 	0.46073 0.55750 0.48199 0.05000
H 	H 	0.46217 0.49506 0.42700 0.04900
C 	C 	0.69627 0.05673 0.61633 -0.00100
C 	C 	0.70847 0.07294 0.64334 -0.03700
C 	C 	0.73638 0.04012 0.65895 -0.04400
C 	C 	0.75225 0.99115 0.64756 -0.00200
C 	C 	0.73346 0.96972 0.62194 -0.01800
C 	C 	0.70569 0.00264 0.60628 -0.05900
C 	C 	0.68593 0.10205 0.59764 0.04200
C 	C 	0.68051 0.14195 0.58205 -0.11400
C 	C 	0.79818 0.97537 0.65826 0.04800
C 	C 	0.83944 0.96592 0.66555 -0.11100
H 	H 	0.70016 0.11385 0.65151 0.03300
H 	H 	0.74964 0.05616 0.67900 0.03600
H 	H 	0.74444 0.93095 0.61319 0.03900
H 	H 	0.69526 0.98887 0.58563 0.05600
C 	C 	0.35633 0.22190 0.57826 -0.00600
C 	C 	0.35411 0.23347 0.60610 -0.03400
C 	C 	0.30598 0.20762 0.62134 -0.03400
C 	C 	0.25987 0.17006 0.60881 -0.00800
C 	C 	0.26138 0.16081 0.58074 -0.03400
C 	C 	0.30950 0.18669 0.56549 -0.03400
C 	C 	0.40788 0.23880 0.56370 0.04900
C 	C 	0.45103 0.25016 0.55165 -0.11000
C 	C 	0.21272 0.13680 0.62512 0.04900
C 	C 	0.17399 0.10822 0.63909 -0.11700
H 	H 	0.39011 0.26063 0.61612 0.03900
H 	H 	0.30506 0.21524 0.64302 0.04100
H 	H 	0.22583 0.13207 0.57087 0.03900
H 	H 	0.31086 0.17754 0.54397 0.04100
C 	C 	0.82309 0.63405 0.57995 -0.00600
C 	C 	0.87930 0.64316 0.57917 -0.03400
C 	C 	0.91401 0.69400 0.59214 -0.03400
C 	C 	0.89271 0.73611 0.60584 -0.00600
C 	C 	0.83680 0.72878 0.60543 -0.03300
C 	C 	0.80206 0.67778 0.59257 -0.03400
C 	C 	0.78699 0.57642 0.57059 0.04800
C 	C 	0.75881 0.52649 0.56330 -0.11000
C 	C 	0.92675 0.78199 0.62305 0.05100
C 	C 	0.95275 0.81951 0.63858 -0.11200
H 	H 	0.89591 0.60967 0.56937 0.04000
H 	H 	0.95715 0.69936 0.59230 0.03900
H 	H 	0.82002 0.76126 0.61592 0.04400
H 	H 	0.75872 0.67122 0.59321 0.04200
C 	C 	0.07366 0.63904 0.97598 -0.12200
C 	C 	0.02547 0.62003 0.97254 0.07800
C 	C 	0.96855 0.59152 0.96792 -0.06300
C 	C 	0.94569 0.53089 0.97456 -0.05400
C 	C 	0.89358 0.49707 0.96425 0.06800
C 	C 	0.85057 0.46734 0.95549 -0.12200
H 	H 	0.96828 0.50516 0.98597 0.04900
H 	H 	0.94614 0.61761 0.95661 0.05000
C 	C 	0.39955 0.88759 0.98923 -0.11000
C 	C 	0.42422 0.93644 0.97795 0.05600
C 	C 	0.45430 0.99447 0.96431 -0.01900
C 	C 	0.50698 0.02037 0.96915 -0.09300
C 	C 	0.53807 0.07575 0.95398 0.08100
C 	C 	0.56376 0.12164 0.94095 -0.13100
H 	H 	0.52718 0.99889 0.98398 0.06400
H 	H 	0.43410 0.01596 0.94948 0.03500
C 	C 	0.38071 0.57461 0.95578 -0.12600
C 	C 	0.41303 0.55253 0.94516 0.07300
C 	C 	0.45231 0.52570 0.93344 -0.05600
C 	C 	0.44224 0.46359 0.93331 -0.05700
C 	C 	0.48612 0.43696 0.92927 0.07600
C 	C 	0.52370 0.41574 0.92683 -0.12700
H 	H 	0.40219 0.43298 0.93916 0.05100
H 	H 	0.49228 0.55628 0.92744 0.05000
C 	C 	0.90307 0.19526 0.83873 -0.00800
C 	C 	0.92873 0.15591 0.85185 -0.03200
C 	C 	0.96283 0.12951 0.83697 -0.03600
C 	C 	0.97138 0.14235 0.80892 -0.00200
C 	C 	0.94792 0.18421 0.79609 -0.03700
C 	C 	0.91385 0.21063 0.81097 -0.03500
C 	C 	0.86096 0.21355 0.85285 0.04600
C 	C 	0.82436 0.22712 0.86427 -0.11700
C 	C 	0.99862 0.10706 0.79286 0.03500
C 	C 	0.01976 0.07583 0.77941 -0.09900
H 	H 	0.92075 0.14396 0.87332 0.04100
H 	H 	0.98097 0.09736 0.84706 0.04100
H 	H 	0.95448 0.19454 0.77443 0.03500
H 	H 	0.89430 0.24119 0.80070 0.03400
C 	C 	0.41408 0.13344 0.81408 -0.00900
C 	C 	0.38396 0.17047 0.80297 -0.03300
C 	C 	0.33635 0.14255 0.78922 -0.03400
C 	C 	0.31867 0.07749 0.78651 -0.00500
C 	C 	0.34913 0.04054 0.79735 -0.04700
C 	C 	0.39674 0.06846 0.81109 -0.03000
C 	C 	0.46221 0.16188 0.82897 0.04900
C 	C 	0.50250 0.18492 0.84156 -0.11200
C 	C 	0.26813 0.04847 0.77365 0.05400
C 	C 	0.22537 0.02458 0.76320 -0.12700
H 	H 	0.39716 0.22073 0.80517 0.04200
H 	H 	0.31297 0.17140 0.78092 0.04300
H 	H 	0.33569 0.99022 0.79536 0.04800
H 	H 	0.41987 0.03955 0.81959 0.03600
C 	C 	0.82499 0.71591 0.80018 -0.00700
C 	C 	0.81555 0.72292 0.82794 -0.03200
C 	C 	0.78772 0.67097 0.84429 -0.03300
C 	C 	0.76919 0.61180 0.83293 -0.00600
C 	C 	0.77512 0.60567 0.80482 -0.03400
C 	C 	0.80291 0.65764 0.78847 -0.03300
C 	C 	0.86492 0.76462 0.78506 0.05400
C 	C 	0.90055 0.80367 0.77280 -0.11500
C 	C 	0.75146 0.55679 0.85048 0.04900
C 	C 	0.73868 0.51098 0.86537 -0.10900
H 	H 	0.83219 0.76787 0.83713 0.04200
H 	H 	0.78288 0.67620 0.86597 0.04200
H 	H 	0.76049 0.56018 0.79584 0.03800
H 	H 	0.80972 0.65187 0.76699 0.04000
