data_crystal

_cell_length_a 39.13624
_cell_length_b 39.07302
_cell_length_c 22.45930
_cell_angle_alpha 89.96195
_cell_angle_beta  89.93610
_cell_angle_gamma 87.40033

_symmetry_space_group_name_	'P 1'
_symmetry_space_group_name_H-M	'P 1'

loop_
_symmetry_equiv_pos_as_xyz
  x,y,z

loop_
_atom_site_label
_atom_site_type_symbol
_atom_site_fract_x
_atom_site_fract_y
_atom_site_fract_z
_atom_site_charge
C 	C 	0.44875 0.55164 0.96570 -0.03500
C 	C 	0.47980 0.56760 0.96993 -0.03300
C 	C 	0.44768 0.51565 0.96770 0.01200
C 	C 	0.47863 0.49558 0.97125 -0.00300
C 	C 	0.51018 0.51178 0.97584 -0.00100
C 	C 	0.51078 0.54804 0.97518 0.01100
C 	C 	0.47805 0.45932 0.97089 0.01200
C 	C 	0.50907 0.43974 0.97537 -0.03400
C 	C 	0.54104 0.49172 0.98148 0.01200
C 	C 	0.54248 0.56399 0.98008 -0.00100
C 	C 	0.57274 0.54392 0.98652 -0.04100
C 	C 	0.57234 0.50815 0.98798 -0.00300
C 	C 	0.41616 0.49928 0.96592 -0.00300
C 	C 	0.41586 0.46352 0.96363 -0.04200
C 	C 	0.44630 0.44339 0.96644 -0.00200
C 	C 	0.54455 0.60172 0.97936 0.02200
C 	C 	0.54498 0.61935 0.92491 -0.02800
C 	C 	0.55223 0.65408 0.92353 -0.03200
C 	C 	0.55974 0.67125 0.97648 0.05600
C 	C 	0.55810 0.65394 0.03108 -0.04400
C 	C 	0.55049 0.61933 0.03252 -0.03400
C 	C 	0.60490 0.48842 0.99792 0.02900
C 	C 	0.61320 0.47608 0.05503 -0.04300
C 	C 	0.64606 0.46224 0.06678 -0.02100
C 	C 	0.62924 0.48559 0.95213 -0.03600
C 	C 	0.66218 0.47210 0.96403 -0.02100
C 	C 	0.67097 0.46125 0.02177 0.03000
C 	C 	0.38321 0.51902 0.97109 0.02300
C 	C 	0.37253 0.53215 0.02652 -0.03700
C 	C 	0.33992 0.54775 0.03292 -0.04300
C 	C 	0.31763 0.55004 0.98408 0.05300
C 	C 	0.32855 0.53754 0.92836 -0.03100
C 	C 	0.36129 0.52218 0.92185 -0.03000
C 	C 	0.44421 0.40566 0.96720 0.02200
C 	C 	0.44942 0.38677 0.91457 -0.02900
C 	C 	0.44269 0.35190 0.91320 -0.03200
C 	C 	0.42999 0.33587 0.96409 0.05500
C 	C 	0.42581 0.35452 0.01716 -0.04500
C 	C 	0.43297 0.38924 0.01874 -0.03500
C 	C 	0.54011 0.45570 0.98026 -0.03400
H 	H 	0.54049 0.60594 0.88364 0.05500
H 	H 	0.55297 0.66738 0.88124 0.07000
H 	H 	0.56353 0.66709 0.07222 0.06400
H 	H 	0.55026 0.60591 0.07473 0.05400
H 	H 	0.31143 0.53910 0.89049 0.07000
H 	H 	0.36934 0.51204 0.87893 0.05600
H 	H 	0.33165 0.55733 0.07609 0.06300
H 	H 	0.38929 0.52969 0.06480 0.05100
H 	H 	0.45802 0.39925 0.87453 0.05400
H 	H 	0.44649 0.33757 0.87226 0.06800
H 	H 	0.42883 0.40364 0.05952 0.05200
H 	H 	0.41635 0.34228 0.05682 0.06300
H 	H 	0.59451 0.47812 0.09061 0.05500
H 	H 	0.65255 0.45350 0.11132 0.06500
H 	H 	0.62297 0.49497 0.90789 0.05700
H 	H 	0.68119 0.47109 0.92889 0.06100
H 	H 	0.42554 0.56748 0.96041 0.05800
H 	H 	0.47955 0.59531 0.96916 0.05300
H 	H 	0.59688 0.55629 0.99100 0.06600
H 	H 	0.56345 0.43981 0.98279 0.05200
H 	H 	0.50935 0.41203 0.97523 0.05100
H 	H 	0.39160 0.45118 0.96147 0.06000
Zn	Zn	0.36325 0.13784 0.99494 1.22600
C 	C 	0.30230 0.09854 0.99905 0.35200
O 	O 	0.38573 0.13394 0.07344 -0.44400
O 	O 	0.32156 0.07075 0.98855 -0.39800
O 	O 	0.36022 0.08524 0.09945 -0.46100
C 	C 	0.38510 0.08750 0.90835 0.36100
O 	O 	0.36507 0.11486 0.91753 -0.42800
O 	O 	0.39695 0.06930 0.95347 -0.48000
C 	C 	0.37751 0.11181 0.11452 0.34100
O 	O 	0.40946 0.16966 0.96108 -0.28700
Zn	Zn	0.36968 0.06269 0.02436 1.18200
O 	O 	0.31618 0.12683 0.01693 -0.42500
C 	C 	0.38846 0.19615 0.96666 0.30500
O 	O 	0.35787 0.18964 0.98404 -0.35800
C 	C 	0.49235 0.96866 0.53133 0.01900
C 	C 	0.47153 0.99909 0.53998 0.02400
C 	C 	0.50877 0.96265 0.47638 -0.05000
C 	C 	0.50592 0.98736 0.43099 0.02200
C 	C 	0.46863 0.02379 0.49445 -0.05000
C 	C 	0.48609 0.01836 0.44036 0.01900
H 	H 	0.45309 0.04711 0.50119 0.06400
H 	H 	0.52285 0.93856 0.46853 0.06300
C 	C 	0.48590 0.04392 0.39559 -0.00900
C 	C 	0.50285 0.03838 0.34109 0.01800
C 	C 	0.49003 0.06006 0.29470 -0.04400
C 	C 	0.46309 0.08242 0.31317 0.03400
S 	S 	0.45483 0.07397 0.38470 0.02800
H 	H 	0.49608 0.05564 0.24818 0.06300
C 	C 	0.52093 0.98165 0.37450 -0.01700
C 	C 	0.52034 0.00702 0.33087 0.01900
C 	C 	0.54472 0.00077 0.28500 -0.05200
C 	C 	0.56464 0.97039 0.29356 0.03600
S 	S 	0.55154 0.95232 0.35686 0.03800
H 	H 	0.54691 0.01695 0.24615 0.06400
C 	C 	0.47944 0.95046 0.63330 0.01800
C 	C 	0.49506 0.94430 0.57784 -0.01100
S 	S 	0.52881 0.91741 0.58913 0.03200
C 	C 	0.52361 0.91075 0.66199 0.03600
C 	C 	0.49528 0.93123 0.68044 -0.04600
C 	C 	0.45376 0.00359 0.59442 -0.01900
C 	C 	0.45918 0.98060 0.64187 0.02200
C 	C 	0.45180 0.99550 0.69847 -0.05500
C 	C 	0.44161 0.03023 0.69497 0.03100
S 	S 	0.44066 0.04141 0.62323 0.05200
H 	H 	0.45236 0.98128 0.73983 0.06200
H 	H 	0.48958 0.93578 0.72698 0.06500
Zn	Zn	0.62894 0.87041 0.97277 1.22600
C 	C 	0.69072 0.90821 0.96134 0.34900
O 	O 	0.60617 0.88792 0.04587 -0.42300
O 	O 	0.67195 0.93129 0.93205 -0.41900
O 	O 	0.63216 0.93877 0.04454 -0.48400
C 	C 	0.60781 0.90321 0.86413 0.35900
O 	O 	0.62858 0.87946 0.88718 -0.42900
O 	O 	0.59678 0.92932 0.89656 -0.47500
C 	C 	0.61488 0.91596 0.07311 0.34200
O 	O 	0.58172 0.83613 0.95516 -0.28000
Zn	Zn	0.62386 0.94713 0.96080 1.18600
O 	O 	0.67615 0.88319 0.98968 -0.40300
C 	C 	0.60178 0.81089 0.97324 0.30600
O 	O 	0.63256 0.81877 0.98715 -0.35200
Zn	Zn	0.11617 0.62275 0.03229 1.22700
C 	C 	0.07441 0.68500 0.04372 0.34900
O 	O 	0.10666 0.59320 0.10079 -0.42900
O 	O 	0.04847 0.66886 0.02202 -0.44000
O 	O 	0.05619 0.62054 0.12411 -0.48000
C 	C 	0.07461 0.61249 0.93014 0.35500
O 	O 	0.09979 0.62992 0.95110 -0.41400
O 	O 	0.05349 0.59791 0.96671 -0.49100
C 	C 	0.08295 0.60141 0.14022 0.34500
O 	O 	0.15267 0.57824 0.99419 -0.25700
Zn	Zn	0.04023 0.61866 0.04250 1.17600
O 	O 	0.10137 0.66771 0.06471 -0.40700
C 	C 	0.17722 0.59732 0.01065 0.30400
O 	O 	0.16788 0.62625 0.03493 -0.34200
C 	C 	0.02538 0.49640 0.58877 0.02200
C 	C 	0.00112 0.47022 0.58942 0.02200
C 	C 	0.04532 0.50140 0.53782 -0.04900
C 	C 	0.04124 0.48086 0.48723 0.02400
C 	C 	0.99729 0.44946 0.53906 -0.04900
C 	C 	0.01710 0.45469 0.48784 0.02100
H 	H 	0.98009 0.42852 0.54054 0.06300
H 	H 	0.06489 0.52014 0.53837 0.06200
C 	C 	0.01487 0.43319 0.43763 -0.01000
C 	C 	0.03402 0.43871 0.38589 0.02200
C 	C 	0.01928 0.42475 0.33382 -0.04000
C 	C 	0.98880 0.40854 0.34526 0.03500
S 	S 	0.98001 0.41292 0.41773 0.03100
H 	H 	0.02819 0.42959 0.28914 0.07000
C 	C 	0.06206 0.48450 0.43648 -0.01200
C 	C 	0.05795 0.46445 0.38541 0.02300
C 	C 	0.07041 0.47995 0.33269 -0.03900
C 	C 	0.08328 0.51231 0.34275 0.02400
S 	S 	0.07865 0.52109 0.41502 0.04000
H 	H 	0.06620 0.47021 0.28837 0.06500
C 	C 	0.00901 0.51196 0.69080 0.01900
C 	C 	0.03021 0.51539 0.64141 -0.01300
S 	S 	0.04785 0.55338 0.64628 0.02900
C 	C 	0.02991 0.56624 0.71086 0.03500
C 	C 	0.00874 0.54040 0.72994 -0.04500
C 	C 	0.98295 0.46448 0.64275 -0.01300
C 	C 	0.98521 0.48646 0.69142 0.01900
C 	C 	0.95711 0.48534 0.73108 -0.04600
C 	C 	0.93271 0.46231 0.71321 0.03500
S 	S 	0.94638 0.44437 0.64908 0.03300
H 	H 	0.95607 0.49833 0.77364 0.06400
H 	H 	0.99630 0.54075 0.77302 0.06400
Zn	Zn	0.86971 0.37950 0.03686 1.22600
C 	C 	0.81439 0.42917 0.05089 0.34700
O 	O 	0.86478 0.39809 0.95583 -0.41500
O 	O 	0.83416 0.45242 0.02903 -0.43600
O 	O 	0.90325 0.43911 0.97096 -0.48700
C 	C 	0.89809 0.40695 0.14512 0.34900
O 	O 	0.89984 0.38210 0.10577 -0.45200
O 	O 	0.88411 0.43688 0.13039 -0.46200
C 	C 	0.88613 0.41996 0.93469 0.35700
O 	O 	0.90984 0.33773 0.00118 -0.28800
Zn	Zn	0.88559 0.45295 0.04880 1.17600
O 	O 	0.82783 0.40018 0.07178 -0.40400
C 	C 	0.88547 0.31661 0.00740 0.29100
O 	O 	0.85659 0.32995 0.02632 -0.32100
C 	C 	0.93192 0.01191 0.00493 -0.04200
C 	C 	0.94468 0.04463 0.00698 -0.03900
C 	C 	0.95401 0.98301 0.99510 0.02200
C 	C 	0.98963 0.98729 0.98974 -0.00400
C 	C 	0.00248 0.02056 0.99042 -0.00100
C 	C 	0.97977 0.04947 0.99761 0.01800
C 	C 	0.01239 0.95833 0.98395 0.01400
C 	C 	0.04739 0.96306 0.97381 -0.03500
C 	C 	0.03805 0.02485 0.98388 0.01200
C 	C 	0.99271 0.08272 0.99620 -0.00300
C 	C 	0.02802 0.08667 0.99236 -0.03900
C 	C 	0.05084 0.05819 0.98717 -0.00100
C 	C 	0.94131 0.94969 0.99191 -0.00500
C 	C 	0.96416 0.92116 0.98932 -0.03800
C 	C 	0.99953 0.92512 0.98720 -0.00500
C 	C 	0.96964 0.11374 0.99715 0.02500
C 	C 	0.94851 0.12172 0.94812 -0.02900
C 	C 	0.92896 0.15254 0.94686 -0.02900
C 	C 	0.93166 0.17629 0.99328 0.05300
C 	C 	0.95212 0.16791 0.04292 -0.04300
C 	C 	0.97082 0.13666 0.04503 -0.03500
C 	C 	0.08807 0.06381 0.98648 0.02300
C 	C 	0.10885 0.05223 0.03398 -0.03700
C 	C 	0.14352 0.05948 0.03510 -0.03700
C 	C 	0.10210 0.08343 0.94095 -0.03000
C 	C 	0.13643 0.09176 0.94323 -0.03700
C 	C 	0.15731 0.07990 0.99038 0.05200
C 	C 	0.90420 0.94427 0.98926 0.02500
C 	C 	0.88711 0.93212 0.03943 -0.03600
C 	C 	0.85240 0.92529 0.03602 -0.03800
C 	C 	0.83455 0.93059 0.98243 0.05300
C 	C 	0.85164 0.94268 0.93224 -0.03400
C 	C 	0.88636 0.94946 0.93562 -0.03100
C 	C 	0.02263 0.89439 0.99335 0.03000
C 	C 	0.02371 0.86941 0.94851 -0.03800
C 	C 	0.03899 0.83705 0.95960 -0.02100
C 	C 	0.05339 0.82953 0.01552 0.02800
C 	C 	0.05513 0.85549 0.05836 -0.02100
C 	C 	0.03950 0.88775 0.04753 -0.04300
C 	C 	0.05999 0.99589 0.97310 -0.03400
H 	H 	0.94750 0.10419 0.91089 0.05600
H 	H 	0.91269 0.15852 0.90893 0.07100
H 	H 	0.95410 0.18597 0.07921 0.06500
H 	H 	0.98696 0.13063 0.08313 0.05500
H 	H 	0.83800 0.94693 0.89075 0.06400
H 	H 	0.89944 0.95861 0.89658 0.05400
H 	H 	0.83934 0.91604 0.07500 0.06600
H 	H 	0.90076 0.92785 0.08090 0.05600
H 	H 	0.01115 0.87450 0.90626 0.05500
H 	H 	0.03803 0.81727 0.92593 0.05900
H 	H 	0.03908 0.90703 0.08220 0.05500
H 	H 	0.06676 0.85004 0.10129 0.06300
H 	H 	0.09818 0.03748 0.06978 0.05300
H 	H 	0.15959 0.04949 0.07093 0.06900
H 	H 	0.08623 0.09268 0.90431 0.05500
H 	H 	0.14685 0.10734 0.90829 0.06400
H 	H 	0.90485 0.00913 0.01232 0.05800
H 	H 	0.92715 0.06611 0.01673 0.05200
H 	H 	0.03782 0.11220 0.99324 0.06100
H 	H 	0.08679 0.99866 0.96321 0.05100
H 	H 	0.06489 0.94137 0.96516 0.05100
H 	H 	0.95436 0.89562 0.98967 0.06000
C 	C 	0.89120 0.27959 0.99646 -0.06100
C 	C 	0.87831 0.25502 0.03578 0.18600
C 	C 	0.88958 0.22064 0.03090 -0.09100
C 	C 	0.91456 0.21062 0.98881 -0.00400
C 	C 	0.92610 0.23479 0.94772 0.15000
C 	C 	0.91378 0.26886 0.95089 -0.03600
H 	H 	0.88029 0.20199 0.06205 0.09100
H 	H 	0.92322 0.28743 0.91976 0.10700
Cl	Cl	0.85008 0.26702 0.09411 -0.27700
Cl	Cl	0.95796 0.22340 0.89489 -0.29300
C 	C 	0.91228 0.44427 0.75723 0.00600
C 	C 	0.88422 0.46167 0.78469 0.13600
C 	C 	0.87347 0.45154 0.84120 -0.01800
C 	C 	0.89029 0.42385 0.87017 -0.11400
C 	C 	0.91517 0.40368 0.83932 0.20700
C 	C 	0.92594 0.41383 0.78282 -0.09700
H 	H 	0.85338 0.46641 0.86396 0.07300
H 	H 	0.94688 0.39966 0.76111 0.09300
Cl	Cl	0.86407 0.49780 0.75062 -0.29000
Cl	Cl	0.93463 0.36692 0.87247 -0.30300
C 	C 	0.96264 0.40370 0.29914 0.00500
C 	C 	0.96978 0.38161 0.25083 0.13600
C 	C 	0.94777 0.38174 0.20187 -0.02300
C 	C 	0.91802 0.40327 0.20097 -0.11500
C 	C 	0.90910 0.42278 0.25206 0.20400
C 	C 	0.93182 0.42357 0.30014 -0.09500
H 	H 	0.95435 0.36575 0.16378 0.08500
H 	H 	0.92570 0.44004 0.33782 0.09500
Cl	Cl	0.00637 0.35361 0.25101 -0.29500
Cl	Cl	0.86880 0.44451 0.25826 -0.29500
C 	C 	0.06201 0.79367 0.03183 0.00100
C 	C 	0.03898 0.77494 0.06571 0.13600
C 	C 	0.04461 0.73962 0.07278 -0.01800
C 	C 	0.07276 0.72258 0.04560 -0.11100
C 	C 	0.09672 0.74152 0.01415 0.20300
C 	C 	0.09132 0.77698 0.00772 -0.10500
H 	H 	0.02631 0.72517 0.09753 0.07100
H 	H 	0.10920 0.79135 0.98190 0.09800
Cl	Cl	0.00181 0.79508 0.09648 -0.31000
Cl	Cl	0.13236 0.72091 0.97923 -0.29200
C 	C 	0.04717 0.58795 0.75388 0.00500
C 	C 	0.02801 0.61349 0.78498 0.13500
C 	C 	0.03895 0.62419 0.84095 -0.01900
C 	C 	0.06924 0.60995 0.86565 -0.11300
C 	C 	0.09087 0.58836 0.83064 0.20700
C 	C 	0.07978 0.57746 0.77486 -0.09700
H 	H 	0.02288 0.64201 0.86671 0.06700
H 	H 	0.09531 0.55868 0.75017 0.09200
Cl	Cl	0.98890 0.63031 0.75626 -0.29500
Cl	Cl	0.13087 0.57295 0.85764 -0.29400
C 	C 	0.08281 0.58345 0.19814 -0.11600
C 	C 	0.11370 0.57410 0.22762 0.21100
C 	C 	0.11344 0.55167 0.27624 -0.09700
C 	C 	0.08258 0.53923 0.29689 0.00700
C 	C 	0.05145 0.55118 0.27111 0.13200
C 	C 	0.05172 0.57291 0.22167 -0.02200
H 	H 	0.13732 0.54357 0.29747 0.09600
H 	H 	0.02777 0.58074 0.20045 0.05900
Cl	Cl	0.15264 0.59145 0.20603 -0.28400
Cl	Cl	0.01190 0.53922 0.30036 -0.31700
C 	C 	0.79771 0.92441 0.97928 -0.00600
C 	C 	0.77327 0.95034 0.99512 0.14400
C 	C 	0.73840 0.94458 0.98987 -0.01100
C 	C 	0.72754 0.91305 0.96884 -0.10900
C 	C 	0.75200 0.88697 0.95343 0.20700
C 	C 	0.78693 0.89274 0.95886 -0.09200
H 	H 	0.71969 0.96467 0.00204 0.06200
H 	H 	0.80571 0.87275 0.94647 0.09300
Cl	Cl	0.78604 0.99035 0.02098 -0.31000
Cl	Cl	0.73934 0.84754 0.92479 -0.29100
C 	C 	0.55242 0.90252 0.70234 0.00500
C 	C 	0.55096 0.87457 0.74169 0.13900
C 	C 	0.57202 0.87292 0.79207 -0.01600
C 	C 	0.59436 0.89916 0.80366 -0.11200
C 	C 	0.59863 0.92487 0.76072 0.20800
C 	C 	0.57770 0.92645 0.71026 -0.09700
H 	H 	0.56940 0.85244 0.82411 0.08500
H 	H 	0.57957 0.94757 0.67927 0.09300
Cl	Cl	0.52145 0.84253 0.73016 -0.28700
Cl	Cl	0.62932 0.95596 0.77075 -0.31800
C 	C 	0.60284 0.92333 0.13419 -0.11400
C 	C 	0.56784 0.92198 0.14896 0.19900
C 	C 	0.55599 0.93503 0.20356 -0.09700
C 	C 	0.57852 0.95012 0.24320 0.00200
C 	C 	0.61368 0.94951 0.23020 0.13800
C 	C 	0.62571 0.93604 0.17597 -0.02000
H 	H 	0.52893 0.93504 0.21387 0.08800
H 	H 	0.65272 0.93658 0.16540 0.08100
Cl	Cl	0.53805 0.90648 0.09792 -0.30600
Cl	Cl	0.64277 0.96672 0.28056 -0.29000
C 	C 	0.26482 0.09740 0.99348 -0.09700
C 	C 	0.25003 0.08188 0.94369 0.20100
C 	C 	0.21505 0.07599 0.94343 -0.09200
C 	C 	0.19412 0.08720 0.99094 0.00000
C 	C 	0.20841 0.10541 0.03836 0.13600
C 	C 	0.24372 0.10986 0.03993 -0.02800
H 	H 	0.20406 0.06295 0.90593 0.09000
H 	H 	0.25478 0.12265 0.07762 0.09100
Cl	Cl	0.27446 0.07197 0.87959 -0.27500
Cl	Cl	0.18229 0.12392 0.09478 -0.29600
C 	C 	0.39388 0.07670 0.84744 -0.11200
C 	C 	0.38216 0.04577 0.82479 0.21000
C 	C 	0.39566 0.03236 0.77164 -0.09800
C 	C 	0.42200 0.04871 0.74206 0.00700
C 	C 	0.43229 0.08069 0.76284 0.13800
C 	C 	0.41782 0.09474 0.81496 -0.01500
H 	H 	0.38685 0.00829 0.75487 0.09300
H 	H 	0.42664 0.11876 0.83194 0.08000
Cl	Cl	0.35185 0.02261 0.86416 -0.30700
Cl	Cl	0.46492 0.10229 0.72652 -0.29300
C 	C 	0.39479 0.11228 0.17323 -0.11300
C 	C 	0.38260 0.09337 0.22184 0.20000
C 	C 	0.40436 0.08523 0.26978 -0.09700
C 	C 	0.43754 0.09746 0.27128 0.00100
C 	C 	0.44760 0.12059 0.22725 0.13800
C 	C 	0.42639 0.12774 0.17834 -0.02800
H 	H 	0.39577 0.06863 0.30488 0.08900
H 	H 	0.43526 0.14402 0.14299 0.09700
Cl	Cl	0.33973 0.08152 0.22511 -0.30100
Cl	Cl	0.48719 0.14014 0.23211 -0.28800
C 	C 	0.42037 0.29974 0.96163 -0.01200
C 	C 	0.39062 0.29054 0.93137 0.14700
C 	C 	0.38085 0.25650 0.93232 -0.02900
C 	C 	0.40019 0.23149 0.96400 -0.08700
C 	C 	0.42970 0.24083 0.99509 0.20000
C 	C 	0.43987 0.27470 0.99293 -0.07900
H 	H 	0.35796 0.24959 0.90893 0.08700
H 	H 	0.46249 0.28177 0.01698 0.08300
Cl	Cl	0.36459 0.32163 0.89404 -0.29800
Cl	Cl	0.45270 0.21113 0.04064 -0.29800
C 	C 	0.28198 0.56287 0.99245 0.00200
C 	C 	0.27084 0.59529 0.97073 0.14300
C 	C 	0.23660 0.60652 0.97752 -0.01500
C 	C 	0.21334 0.58569 0.00604 -0.08800
C 	C 	0.22477 0.55375 0.02955 0.20400
C 	C 	0.25889 0.54239 0.02216 -0.09800
H 	H 	0.22801 0.63132 0.96012 0.09400
H 	H 	0.26753 0.51764 0.03974 0.09100
Cl	Cl	0.29962 0.62227 0.93572 -0.29100
Cl	Cl	0.19711 0.52850 0.07102 -0.28000
C 	C 	0.70680 0.45125 0.03589 0.00200
C 	C 	0.72775 0.47424 0.06530 0.13700
C 	C 	0.76264 0.46601 0.07243 -0.01700
C 	C 	0.77705 0.43520 0.04973 -0.10700
C 	C 	0.75594 0.41185 0.02140 0.20300
C 	C 	0.72091 0.41986 0.01518 -0.10300
H 	H 	0.77875 0.48400 0.09435 0.07600
H 	H 	0.70486 0.40217 0.99240 0.09900
Cl	Cl	0.71093 0.51416 0.09093 -0.30000
Cl	Cl	0.77331 0.37362 0.98976 -0.28600
C 	C 	0.59086 0.77521 0.97456 -0.08300
C 	C 	0.55829 0.76735 0.99644 0.19800
C 	C 	0.54814 0.73345 0.99568 -0.07700
C 	C 	0.57042 0.70704 0.97466 -0.01200
C 	C 	0.60325 0.71474 0.95424 0.14800
C 	C 	0.61321 0.74870 0.95392 -0.02900
H 	H 	0.52308 0.72754 0.01240 0.08300
H 	H 	0.63836 0.75449 0.93750 0.09400
Cl	Cl	0.53081 0.79924 0.02856 -0.28000
Cl	Cl	0.63254 0.68196 0.93050 -0.29100
