data_crystal

_cell_length_a 14.43765
_cell_length_b 12.51046
_cell_length_c 43.01429
_cell_angle_alpha 91.00413
_cell_angle_beta  91.57740
_cell_angle_gamma 111.54392

_symmetry_space_group_name_	'P 1'
_symmetry_space_group_name_H-M	'P 1'

loop_
_symmetry_equiv_pos_as_xyz
  x,y,z

loop_
_atom_site_label
_atom_site_type_symbol
_atom_site_fract_x
_atom_site_fract_y
_atom_site_fract_z
_atom_site_charge
Ni	Ni	0.83200 0.35674 0.91489 1.10700
O 	O 	0.71572 0.29357 0.88319 -0.70700
Ni	Ni	0.60879 0.32307 0.90638 1.10500
O 	O 	0.92899 0.31663 0.88755 -0.31200
O 	O 	0.82204 0.13351 0.87590 -0.34900
O 	O 	0.87382 0.51087 0.89237 -0.32700
Ni	Ni	0.67569 0.12884 0.87469 1.10100
O 	O 	0.92058 0.59532 0.94857 -0.32800
O 	O 	0.65583 0.09147 0.92059 -0.35000
O 	O 	0.50209 0.26297 0.87182 -0.33100
O 	O 	0.72293 0.37557 0.93966 -0.69600
O 	O 	0.94167 0.42334 0.94812 -0.32100
O 	O 	0.51564 0.38837 0.92844 -0.30400
O 	O 	0.62381 0.52508 0.96134 -0.33200
Ni	Ni	0.76750 0.54133 0.95018 1.09200
H 	H 	0.72608 0.33393 0.86335 0.22100
H 	H 	0.70961 0.32779 0.95833 0.18800
C 	C 	0.57466 0.09095 0.93397 0.21100
O 	O 	0.75193 0.57796 0.90458 -0.36800
C 	C 	0.89852 0.22598 0.86870 0.39500
C 	C 	0.48879 0.16465 0.85726 0.39900
C 	C 	0.80861 0.55677 0.88368 0.35200
C 	C 	0.54608 0.49131 0.94178 0.22400
C 	C 	0.97421 0.53278 0.95605 0.24600
O 	O 	0.53941 0.17275 0.92913 -0.31100
O 	O 	0.52676 0.09239 0.86896 -0.36800
Ni	Ni	0.53069 0.23392 0.47796 1.10400
O 	O 	0.66646 0.27319 0.45758 -0.69100
Ni	Ni	0.74487 0.23138 0.49220 1.10400
O 	O 	0.47531 0.31514 0.44601 -0.31600
O 	O 	0.60872 0.46883 0.43203 -0.31100
O 	O 	0.46087 0.08710 0.45013 -0.32400
Ni	Ni	0.73149 0.44114 0.45244 1.09100
O 	O 	0.39602 0.01625 0.51195 -0.37100
O 	O 	0.69525 0.47079 0.49649 -0.39700
O 	O 	0.88337 0.29040 0.47270 -0.30200
O 	O 	0.60658 0.18407 0.51088 -0.69300
O 	O 	0.40243 0.19636 0.50145 -0.34500
O 	O 	0.79692 0.15690 0.52800 -0.31100
O 	O 	0.66668 0.98667 0.52144 -0.35700
Ni	Ni	0.53744 0.01824 0.51623 1.11400
H 	H 	0.66281 0.22843 0.43807 0.18900
H 	H 	0.60873 0.22627 0.53074 0.21100
C 	C 	0.74662 0.45623 0.52077 0.39200
O 	O 	0.54419 0.98059 0.47081 -0.35900
C 	C 	0.51716 0.42550 0.44192 0.21900
C 	C 	0.92089 0.39771 0.46345 0.22800
C 	C 	0.48019 0.99199 0.45060 0.23800
C 	C 	0.74074 0.05602 0.53861 0.38300
C 	C 	0.37504 0.10719 0.51947 0.39900
O 	O 	0.78993 0.37971 0.51975 -0.34700
O 	O 	0.87250 0.46680 0.46869 -0.31500
Ni	Ni	0.03898 0.91633 0.73904 1.10900
O 	O 	0.01137 0.81005 0.70101 -0.70400
Ni	Ni	0.05685 0.92266 0.66716 1.11100
O 	O 	0.96372 0.78603 0.76709 -0.32200
O 	O 	0.82094 0.73608 0.73633 -0.34500
O 	O 	0.16619 0.88548 0.74902 -0.32700
Ni	Ni	0.87252 0.70412 0.69315 1.10600
O 	O 	0.19789 0.18644 0.75658 -0.33900
O 	O 	0.80112 0.78963 0.66582 -0.31200
O 	O 	0.01828 0.80741 0.62960 -0.30900
O 	O 	0.08289 0.03058 0.70499 -0.69400
O 	O 	0.07729 0.02732 0.77584 -0.34600
O 	O 	0.12095 0.05942 0.63953 -0.30700
O 	O 	0.27068 0.13390 0.66652 -0.32400
Ni	Ni	0.21850 0.14359 0.71123 1.10500
H 	H 	0.05497 0.76475 0.70195 0.19200
H 	H 	0.03780 0.07406 0.70455 0.19300
C 	C 	0.85031 0.88321 0.65063 0.39500
O 	O 	0.27624 0.02313 0.72181 -0.33900
C 	C 	0.86738 0.73061 0.76301 0.38000
C 	C 	0.94019 0.70886 0.62916 0.38700
C 	C 	0.25347 0.96819 0.74754 0.38100
C 	C 	0.21750 0.11452 0.64005 0.37300
C 	C 	0.11441 0.13862 0.77201 0.37100
O 	O 	0.93126 0.95774 0.66293 -0.36200
O 	O 	0.91717 0.64642 0.65425 -0.35000
Ni	Ni	0.16128 0.62217 0.41554 1.10700
O 	O 	0.26565 0.67552 0.38199 -0.69900
Ni	Ni	0.38159 0.65279 0.40337 1.10400
O 	O 	0.05524 0.65618 0.38977 -0.32600
O 	O 	0.16008 0.83447 0.37695 -0.35200
O 	O 	0.11174 0.46170 0.39416 -0.34000
Ni	Ni	0.30339 0.83679 0.37152 1.11200
O 	O 	0.08142 0.38800 0.45025 -0.32500
O 	O 	0.33932 0.89006 0.41671 -0.34700
O 	O 	0.47483 0.70050 0.36662 -0.33000
O 	O 	0.27948 0.61080 0.43849 -0.69100
O 	O 	0.06211 0.56142 0.44960 -0.32500
O 	O 	0.48062 0.58739 0.42370 -0.29500
O 	O 	0.38438 0.47490 0.46076 -0.33500
Ni	Ni	0.23611 0.44850 0.45076 1.09000
H 	H 	0.24716 0.62824 0.36258 0.22100
H 	H 	0.30001 0.66497 0.45668 0.18400
C 	C 	0.42366 0.89420 0.42984 0.21000
O 	O 	0.23722 0.39782 0.40548 -0.37100
C 	C 	0.08118 0.74114 0.37054 0.41100
C 	C 	0.48070 0.79155 0.35039 0.39300
C 	C 	0.17388 0.41331 0.38509 0.35400
C 	C 	0.45210 0.49205 0.43965 0.22100
C 	C 	0.02764 0.45177 0.45595 0.22600
O 	O 	0.45931 0.81232 0.42443 -0.31000
O 	O 	0.44888 0.86969 0.36203 -0.36200
Ni	Ni	0.47594 0.75630 0.97569 1.10700
O 	O 	0.32993 0.70373 0.96209 -0.70300
Ni	Ni	0.26690 0.74218 0.99927 1.10600
O 	O 	0.50699 0.65954 0.94198 -0.32300
O 	O 	0.38942 0.49447 0.95830 -0.33400
O 	O 	0.51443 0.88977 0.94511 -0.31400
Ni	Ni	0.26404 0.53963 0.95186 1.09300
O 	O 	0.61977 0.98979 0.00964 -0.35900
O 	O 	0.19712 0.45528 0.99132 -0.34200
O 	O 	0.11690 0.66081 0.98652 -0.31400
O 	O 	0.41658 0.81061 0.01174 -0.68100
O 	O 	0.62012 0.81812 0.99121 -0.35200
O 	O 	0.22973 0.81551 0.03792 -0.30800
O 	O 	0.34303 0.99288 0.02757 -0.34100
Ni	Ni	0.47758 0.97773 0.01776 1.11700
H 	H 	0.32150 0.74918 0.94436 0.19500
H 	H 	0.42979 0.77463 0.03082 0.21200
C 	C 	0.20719 0.50016 0.01982 0.39300
O 	O 	0.45633 0.00692 0.97268 -0.35800
C 	C 	0.47441 0.54794 0.94458 0.21200
C 	C 	0.08184 0.59041 0.96173 0.21400
C 	C 	0.51642 0.99316 0.95219 0.23600
C 	C 	0.28141 0.92314 0.04676 0.37400
C 	C 	0.64779 0.90111 0.01256 0.40300
O 	O 	0.26528 0.60739 0.02571 -0.34900
O 	O 	0.14141 0.57475 0.94080 -0.33500
Ni	Ni	0.93512 0.01591 0.23447 1.11200
O 	O 	0.95766 0.12049 0.19723 -0.69400
Ni	Ni	0.93568 0.00772 0.16186 1.10400
O 	O 	0.99809 0.14988 0.26539 -0.31800
O 	O 	0.14127 0.21486 0.23811 -0.35500
O 	O 	0.79710 0.02297 0.24098 -0.34200
Ni	Ni	0.08932 0.24205 0.19421 1.10100
O 	O 	0.80265 0.73194 0.24516 -0.34800
O 	O 	0.18164 0.17519 0.17117 -0.32200
O 	O 	0.97822 0.11623 0.12429 -0.32200
O 	O 	0.90625 0.90320 0.19904 -0.68700
O 	O 	0.90470 0.90216 0.26916 -0.31500
O 	O 	0.88213 0.86507 0.13354 -0.33100
O 	O 	0.72960 0.78866 0.15535 -0.33100
Ni	Ni	0.77809 0.77542 0.20084 1.09900
H 	H 	0.90566 0.15446 0.19591 0.19200
H 	H 	0.95714 0.86774 0.20073 0.20100
C 	C 	0.15166 0.07392 0.15665 0.38300
O 	O 	0.69120 0.86033 0.21645 -0.32700
C 	C 	0.09219 0.21642 0.26349 0.37600
C 	C 	0.03419 0.22824 0.12680 0.36400
C 	C 	0.71729 0.92828 0.24131 0.39700
C 	C 	0.78537 0.81080 0.13056 0.37600
C 	C 	0.88065 0.79108 0.26364 0.36900
O 	O 	0.07050 0.99198 0.16455 -0.35600
O 	O 	0.04205 0.28689 0.15331 -0.34900
C 	C 	0.16899 0.38989 0.10215 0.30000
C 	C 	0.08003 0.29277 0.09867 -0.16200
C 	C 	0.03423 0.26116 0.06879 0.27200
C 	C 	0.07633 0.32713 0.04291 0.28800
C 	C 	0.16590 0.42388 0.04652 -0.17400
C 	C 	0.21296 0.45253 0.07628 0.30000
F 	F 	0.30218 0.54082 0.08020 -0.34700
F 	F 	0.21485 0.42185 0.13065 -0.35000
F 	F 	0.02832 0.29896 0.01463 -0.37800
F 	F 	0.94720 0.16961 0.06489 -0.36300
C 	C 	0.66481 0.86362 0.09850 0.27500
C 	C 	0.73777 0.81411 0.10043 -0.18100
C 	C 	0.77957 0.79164 0.07319 0.27700
C 	C 	0.75354 0.82509 0.04455 0.30100
C 	C 	0.68375 0.87891 0.04285 -0.22000
C 	C 	0.63860 0.89662 0.06993 0.29100
F 	F 	0.56824 0.94470 0.06850 -0.45500
F 	F 	0.62332 0.88565 0.12462 -0.35900
F 	F 	0.79679 0.80632 0.01843 -0.38200
F 	F 	0.84825 0.74114 0.07470 -0.36500
C 	C 	0.23686 0.89435 0.10264 0.28100
C 	C 	0.26447 0.96785 0.07735 -0.16500
C 	C 	0.27846 0.08481 0.08174 0.26600
C 	C 	0.25738 0.12475 0.11028 0.28500
C 	C 	0.21525 0.04723 0.13379 -0.19200
C 	C 	0.21287 0.93403 0.13076 0.30600
F 	F 	0.18368 0.86127 0.15472 -0.35000
F 	F 	0.23316 0.78451 0.10000 -0.34400
F 	F 	0.27643 0.23832 0.11486 -0.36200
F 	F 	0.30964 0.15901 0.05817 -0.37300
C 	C 	0.64273 0.89642 0.32586 0.29700
C 	C 	0.54318 0.81999 0.32284 -0.17900
C 	C 	0.49931 0.78427 0.29307 0.28400
C 	C 	0.55432 0.82418 0.26647 0.28900
C 	C 	0.65494 0.89931 0.26934 -0.17900
C 	C 	0.69829 0.93635 0.29933 0.30200
F 	F 	0.79417 0.01067 0.30285 -0.37800
F 	F 	0.68537 0.93337 0.35454 -0.35800
F 	F 	0.50912 0.79154 0.23792 -0.34600
F 	F 	0.40229 0.71299 0.28985 -0.36600
C 	C 	0.20705 0.28982 0.34336 0.28100
C 	C 	0.17090 0.37603 0.35204 -0.19300
C 	C 	0.12738 0.42360 0.32898 0.27500
C 	C 	0.11756 0.38312 0.29824 0.29000
C 	C 	0.14297 0.28870 0.29045 -0.18400
C 	C 	0.19253 0.24598 0.31266 0.28600
F 	F 	0.21968 0.15606 0.30508 -0.37400
F 	F 	0.25064 0.24366 0.36493 -0.37800
F 	F 	0.07314 0.42781 0.27652 -0.37400
F 	F 	0.08927 0.50442 0.33664 -0.39200
C 	C 	0.01574 0.73828 0.28542 0.26200
C 	C 	0.91627 0.72963 0.28646 -0.15800
C 	C 	0.86625 0.70131 0.31444 0.28100
C 	C 	0.91994 0.70315 0.34206 0.32200
C 	C 	0.02322 0.73057 0.34156 -0.21400
C 	C 	0.06987 0.74146 0.31300 0.31900
F 	F 	0.16808 0.75770 0.31209 -0.39900
F 	F 	0.06285 0.75725 0.25801 -0.36700
F 	F 	0.87286 0.68514 0.36947 -0.37400
F 	F 	0.76826 0.68603 0.31537 -0.36200
C 	C 	0.69517 0.95953 0.58928 0.28500
C 	C 	0.76848 0.01363 0.56766 -0.19500
C 	C 	0.86322 0.00986 0.57149 0.29100
C 	C 	0.88616 0.95543 0.59680 0.28700
C 	C 	0.81530 0.90668 0.61968 -0.18900
C 	C 	0.71881 0.90701 0.61532 0.29400
F 	F 	0.64920 0.86091 0.63682 -0.34600
F 	F 	0.60132 0.95827 0.58508 -0.37600
F 	F 	0.97867 0.95360 0.59958 -0.36000
F 	F 	0.93299 0.05625 0.55001 -0.33900
C 	C 	0.38707 0.09435 0.57704 0.29300
C 	C 	0.33910 0.11773 0.55064 -0.21000
C 	C 	0.25945 0.15521 0.55426 0.30500
C 	C 	0.22459 0.16313 0.58394 0.28800
C 	C 	0.26850 0.13245 0.61023 -0.16700
C 	C 	0.35178 0.10107 0.60666 0.28200
F 	F 	0.39582 0.07209 0.63173 -0.34800
F 	F 	0.46839 0.06572 0.57398 -0.41500
F 	F 	0.14666 0.19810 0.58712 -0.34500
F 	F 	0.21427 0.18126 0.52898 -0.37100
C 	C 	0.78188 0.59043 0.60026 0.27900
C 	C 	0.88317 0.66263 0.59966 -0.18500
C 	C 	0.92959 0.68655 0.57094 0.30400
C 	C 	0.87820 0.63034 0.54372 0.28300
C 	C 	0.78171 0.54668 0.54513 -0.19200
C 	C 	0.73184 0.53191 0.57312 0.28300
F 	F 	0.63699 0.45493 0.57447 -0.38300
F 	F 	0.73285 0.57443 0.62729 -0.38100
F 	F 	0.92513 0.65013 0.51630 -0.37000
F 	F 	0.02598 0.75917 0.56955 -0.35900
C 	C 	0.06088 0.22995 0.84900 0.27200
C 	C 	0.96189 0.22026 0.84293 -0.16300
C 	C 	0.92745 0.21841 0.81204 0.29100
C 	C 	0.98862 0.21656 0.78748 0.29600
C 	C 	0.08211 0.20895 0.79358 -0.19600
C 	C 	0.12114 0.22550 0.82436 0.29500
F 	F 	0.21349 0.22440 0.83061 -0.37100
F 	F 	0.09734 0.23899 0.87877 -0.37600
F 	F 	0.95229 0.20806 0.75771 -0.38100
F 	F 	0.83408 0.21631 0.80580 -0.36900
C 	C 	0.38680 0.13145 0.77600 0.28000
C 	C 	0.31076 0.02112 0.77643 -0.18400
C 	C 	0.28670 0.96540 0.80490 0.28100
C 	C 	0.33884 0.01822 0.83222 0.30500
C 	C 	0.41685 0.12561 0.83130 -0.19100
C 	C 	0.43755 0.18387 0.80343 0.29700
F 	F 	0.51216 0.28860 0.80257 -0.37500
F 	F 	0.41225 0.18753 0.74895 -0.38900
F 	F 	0.31631 0.96310 0.85952 -0.36900
F 	F 	0.21493 0.85882 0.80599 -0.36100
C 	C 	0.76866 0.67620 0.84238 0.28300
C 	C 	0.80173 0.58704 0.85047 -0.18300
C 	C 	0.83227 0.52929 0.82672 0.27800
C 	C 	0.83200 0.56214 0.79583 0.29100
C 	C 	0.81291 0.66107 0.78858 -0.17600
C 	C 	0.77477 0.71330 0.81156 0.28700
F 	F 	0.75243 0.80679 0.80470 -0.37000
F 	F 	0.73696 0.73199 0.86457 -0.37400
F 	F 	0.86389 0.50709 0.77348 -0.36500
F 	F 	0.86866 0.44657 0.83376 -0.38300
