data_crystal

_cell_length_a 24.37042
_cell_length_b 25.52790
_cell_length_c 39.24428
_cell_angle_alpha 60.83174
_cell_angle_beta  118.88323
_cell_angle_gamma 133.25160

_symmetry_space_group_name_	'P 1'
_symmetry_space_group_name_H-M	'P 1'

loop_
_symmetry_equiv_pos_as_xyz
  x,y,z

loop_
_atom_site_label
_atom_site_type_symbol
_atom_site_fract_x
_atom_site_fract_y
_atom_site_fract_z
_atom_site_charge
C 	C 	0.73564 0.30833 0.02351 0.11600
N 	N 	0.66237 0.25566 0.02955 -0.13700
C 	C 	0.62698 0.27474 0.03458 0.11800
N 	N 	0.66516 0.34589 0.03410 -0.13600
C 	C 	0.73797 0.39834 0.02837 0.12000
N 	N 	0.77311 0.37987 0.02271 -0.13600
C 	C 	0.72860 0.30857 0.52443 0.11600
N 	N 	0.77704 0.38000 0.52740 -0.13500
C 	C 	0.75325 0.40519 0.53704 0.12000
N 	N 	0.68183 0.35896 0.54404 -0.13800
C 	C 	0.63347 0.28782 0.54149 0.11900
N 	N 	0.65674 0.26242 0.53162 -0.13800
C 	C 	0.27221 0.63733 0.19201 0.11800
N 	N 	0.34770 0.68692 0.18931 -0.13500
C 	C 	0.37971 0.66721 0.18179 0.12100
N 	N 	0.33652 0.59840 0.17696 -0.13700
C 	C 	0.26169 0.54866 0.17942 0.12100
N 	N 	0.22920 0.56787 0.18703 -0.13600
C 	C 	0.25712 0.62575 0.69545 0.11600
N 	N 	0.21218 0.55316 0.69469 -0.13600
C 	C 	0.24400 0.52585 0.69396 0.11900
N 	N 	0.32048 0.57055 0.69495 -0.13600
C 	C 	0.36429 0.64343 0.69319 0.12000
N 	N 	0.33275 0.67101 0.69372 -0.13500
Co	Co	0.06845 0.01591 0.06366 1.17400
Co	Co	0.94602 0.93134 0.15301 1.19600
Co	Co	0.00875 0.07217 0.09045 1.18200
C 	C 	0.22320 0.04229 0.08378 0.24900
Co	Co	0.08410 0.89467 0.07002 1.18000
Co	Co	0.92062 0.04810 0.14383 1.16200
C 	C 	0.91964 0.76803 0.07118 0.28700
O 	O 	0.84832 0.04078 0.08741 -0.40500
O 	O 	0.95836 0.01293 0.12700 -0.77700
C 	C 	0.87608 0.08944 0.05539 0.29200
O 	O 	0.06903 0.10203 0.05437 -0.45900
O 	O 	0.95207 0.84845 0.16462 -0.45400
C 	C 	0.79470 0.88638 0.15252 0.31000
C 	C 	0.07479 0.18535 0.12930 0.30200
C 	C 	0.10215 0.82659 0.15693 0.29800
O 	O 	0.93303 0.10181 0.04843 -0.37300
O 	O 	0.10470 0.97576 0.01639 -0.38100
O 	O 	0.83761 0.94165 0.16891 -0.37600
O 	O 	0.82705 0.87017 0.14395 -0.37500
O 	O 	0.00204 0.15857 0.12089 -0.40600
O 	O 	0.09331 0.15380 0.12243 -0.38900
O 	O 	0.07156 0.81178 0.12215 -0.40100
O 	O 	0.09061 0.86470 0.16298 -0.37900
O 	O 	0.04409 0.92952 0.08515 -0.74700
O 	O 	0.99783 0.05002 0.19913 -0.41400
O 	O 	0.19485 0.97136 0.09617 -0.35300
O 	O 	0.18780 0.06512 0.08401 -0.38600
O 	O 	0.96740 0.82274 0.04704 -0.36200
O 	O 	0.91683 0.77983 0.09987 -0.37100
Co	Co	0.06764 0.02406 0.56552 1.17600
Co	Co	0.92591 0.92278 0.64892 1.18500
Co	Co	0.99183 0.06499 0.59142 1.16700
C 	C 	0.22290 0.08032 0.56860 0.30900
Co	Co	0.10642 0.92069 0.57255 1.18100
Co	Co	0.86229 0.01582 0.62695 1.15200
C 	C 	0.96128 0.77130 0.59346 0.30200
O 	O 	0.83249 0.05585 0.56652 -0.39800
O 	O 	0.92109 0.99425 0.61670 -0.73300
C 	C 	0.88599 0.11466 0.54715 0.29600
O 	O 	0.06777 0.10665 0.56131 -0.46400
O 	O 	0.95853 0.85577 0.66782 -0.45200
C 	C 	0.75685 0.85283 0.64117 0.29600
C 	C 	0.03229 0.15194 0.64170 0.29800
C 	C 	0.15319 0.88195 0.66016 0.28600
O 	O 	0.93691 0.11361 0.54410 -0.38100
O 	O 	0.02561 0.91430 0.51893 -0.37300
O 	O 	0.76726 0.91447 0.61585 -0.37200
O 	O 	0.80877 0.84036 0.65244 -0.36500
O 	O 	0.95815 0.12376 0.63241 -0.41100
O 	O 	0.05594 0.12502 0.63440 -0.39800
O 	O 	0.18101 0.92988 0.62821 -0.37800
O 	O 	0.10592 0.88001 0.66961 -0.36500
O 	O 	0.05267 0.94149 0.58793 -0.74100
O 	O 	0.88252 0.97012 0.68878 -0.37700
O 	O 	0.18379 0.03131 0.54836 -0.41300
O 	O 	0.18664 0.08004 0.58501 -0.40200
O 	O 	0.03541 0.80824 0.59722 -0.40100
O 	O 	0.93711 0.79075 0.60604 -0.38100
C 	C 	0.92355 0.93672 0.81099 0.06500
C 	C 	0.91314 0.92336 0.77674 0.12000
C 	C 	0.04289 0.03511 0.76990 0.08700
C 	C 	0.05565 0.04527 0.80620 0.04200
Br	Br	0.82368 0.83063 0.76264 -0.20000
Br	Br	0.15518 0.12587 0.82788 -0.17800
Br	Br	0.83892 0.87322 0.83655 -0.16200
Br	Br	0.12624 0.09964 0.74340 -0.20900
C 	C 	0.07088 0.00605 0.29328 0.09900
C 	C 	0.07446 0.00602 0.33051 0.03800
C 	C 	0.93651 0.95026 0.30929 0.06300
C 	C 	0.93101 0.93486 0.27748 0.11700
C 	C 	0.96696 0.91425 0.40330 0.06200
C 	C 	0.95798 0.91442 0.43606 0.11800
C 	C 	0.05491 0.04814 0.42385 0.09100
C 	C 	0.04971 0.04920 0.38590 0.04100
Br	Br	0.84769 0.93115 0.31269 -0.15700
Br	Br	0.16444 0.05399 0.27957 -0.20100
Br	Br	0.87333 0.82631 0.46094 -0.18700
Br	Br	0.09342 0.14187 0.34622 -0.17800
Br	Br	0.83487 0.85193 0.25676 -0.19200
Br	Br	0.16878 0.03471 0.37202 -0.18100
Br	Br	0.92575 0.82190 0.39693 -0.15900
Br	Br	0.12827 0.13902 0.44110 -0.19200
C 	C 	0.19469 0.45065 0.68747 -0.00300
C 	C 	0.13220 0.39063 0.70584 -0.02400
C 	C 	0.09160 0.31843 0.70327 -0.03300
C 	C 	0.11304 0.30546 0.68225 0.00800
C 	C 	0.17556 0.36549 0.66363 0.03500
C 	C 	0.21547 0.43782 0.66589 -0.05000
C 	C 	0.19711 0.35259 0.64268 -0.05900
C 	C 	0.15441 0.28109 0.63852 0.01400
C 	C 	0.08978 0.22158 0.65530 -0.06300
C 	C 	0.07130 0.23349 0.67864 -0.00300
H 	H 	0.11606 0.39950 0.72283 0.05300
H 	H 	0.04370 0.27267 0.71773 0.05600
H 	H 	0.26298 0.48401 0.65115 0.05500
H 	H 	0.24577 0.39821 0.62875 0.05300
H 	H 	0.16930 0.27280 0.62052 0.04000
H 	H 	0.02237 0.18737 0.69239 0.05000
C 	C 	0.68039 0.79339 0.65178 -0.06200
C 	C 	0.67182 0.73749 0.68757 0.01700
C 	C 	0.60829 0.69698 0.70367 -0.05100
C 	C 	0.55374 0.71318 0.68441 0.03500
C 	C 	0.56080 0.76717 0.64767 0.00900
C 	C 	0.62072 0.80294 0.63030 -0.01400
C 	C 	0.50948 0.78678 0.62937 -0.03600
C 	C 	0.44990 0.75140 0.64677 -0.02300
C 	C 	0.43907 0.69419 0.68195 -0.00300
C 	C 	0.49220 0.67611 0.70128 -0.04600
H 	H 	0.71549 0.72720 0.70369 0.05800
H 	H 	0.60295 0.65483 0.73164 0.06100
H 	H 	0.62421 0.84255 0.60134 0.05600
H 	H 	0.51552 0.82931 0.60152 0.05000
H 	H 	0.40933 0.76557 0.63158 0.05000
H 	H 	0.48428 0.63214 0.72860 0.05900
C 	C 	0.22279 0.65683 0.69585 -0.00100
C 	C 	0.14195 0.62008 0.68428 -0.02700
C 	C 	0.11021 0.65190 0.68174 -0.03800
C 	C 	0.15876 0.72186 0.68973 0.00600
C 	C 	0.23955 0.75768 0.70307 0.03400
C 	C 	0.27131 0.72488 0.70640 -0.05100
C 	C 	0.28796 0.82720 0.71149 -0.05800
C 	C 	0.25727 0.86400 0.70305 0.01400
C 	C 	0.17782 0.83202 0.68606 -0.06400
C 	C 	0.12791 0.75834 0.68247 -0.01700
H 	H 	0.10355 0.56744 0.67656 0.04700
H 	H 	0.04789 0.62254 0.67289 0.04300
H 	H 	0.33348 0.75283 0.71645 0.05900
H 	H 	0.34989 0.85437 0.72288 0.05800
H 	H 	0.29629 0.91996 0.70677 0.04900
H 	H 	0.06606 0.73167 0.67129 0.04700
C 	C 	0.21643 0.47428 0.17342 -0.00400
C 	C 	0.16745 0.41048 0.19878 -0.02400
C 	C 	0.13720 0.34009 0.19859 -0.03500
C 	C 	0.15554 0.33273 0.17297 0.00600
C 	C 	0.20372 0.39647 0.14699 0.03400
C 	C 	0.23287 0.46679 0.14684 -0.05000
C 	C 	0.22153 0.38899 0.12117 -0.06100
C 	C 	0.18693 0.31837 0.11903 0.01500
C 	C 	0.13455 0.25467 0.14274 -0.07200
C 	C 	0.12353 0.26222 0.17175 -0.00700
H 	H 	0.15496 0.41547 0.21963 0.05100
H 	H 	0.09990 0.29139 0.21854 0.05300
H 	H 	0.26992 0.51586 0.12682 0.05500
H 	H 	0.25987 0.43771 0.10170 0.05300
H 	H 	0.19656 0.31333 0.09688 0.04000
H 	H 	0.08451 0.21297 0.19084 0.04700
C 	C 	0.71189 0.83341 0.15239 -0.06600
C 	C 	0.67930 0.75775 0.17023 0.02400
C 	C 	0.60908 0.71090 0.18130 -0.05600
C 	C 	0.57052 0.73922 0.17439 0.04000
C 	C 	0.60072 0.81428 0.15435 0.00900
C 	C 	0.67059 0.86071 0.14277 -0.00300
C 	C 	0.56155 0.84233 0.14699 -0.03200
C 	C 	0.49162 0.79551 0.15846 -0.02200
C 	C 	0.46057 0.72039 0.17771 -0.00100
C 	C 	0.50195 0.69331 0.18702 -0.04700
H 	H 	0.71056 0.73614 0.17768 0.04800
H 	H 	0.58562 0.65299 0.19607 0.05800
H 	H 	0.69515 0.91898 0.12834 0.04800
H 	H 	0.58456 0.90004 0.13186 0.05100
H 	H 	0.46030 0.81702 0.15104 0.05100
H 	H 	0.47911 0.63574 0.20277 0.05900
C 	C 	0.15247 0.80347 0.18755 -0.06900
C 	C 	0.23259 0.85476 0.18990 0.01200
C 	C 	0.27524 0.83154 0.19558 -0.05800
C 	C 	0.23829 0.75645 0.19991 0.03500
C 	C 	0.16091 0.70352 0.20380 0.00500
C 	C 	0.11966 0.72725 0.19975 -0.00800
C 	C 	0.12354 0.62849 0.20802 -0.03500
C 	C 	0.16068 0.60674 0.20553 -0.02600
C 	C 	0.23609 0.65968 0.19897 -0.00000
C 	C 	0.27588 0.73441 0.19770 -0.05000
H 	H 	0.25977 0.91355 0.18247 0.05000
H 	H 	0.33559 0.87252 0.19417 0.05700
H 	H 	0.05874 0.68702 0.20020 0.04300
H 	H 	0.06467 0.58716 0.21189 0.04600
H 	H 	0.13010 0.54877 0.20804 0.05000
H 	H 	0.33459 0.77560 0.19357 0.05800
C 	C 	0.88516 0.18025 0.52674 -0.07700
C 	C 	0.94427 0.24365 0.54207 0.00700
C 	C 	0.92803 0.28790 0.54068 -0.06100
C 	C 	0.85278 0.26965 0.52329 0.03200
C 	C 	0.79645 0.21225 0.50292 0.00100
C 	C 	0.81423 0.16986 0.50333 -0.00800
C 	C 	0.72106 0.19339 0.48574 -0.03700
C 	C 	0.69995 0.22705 0.49142 -0.02800
C 	C 	0.75415 0.28064 0.51399 -0.00300
C 	C 	0.83154 0.30413 0.52851 -0.05200
H 	H 	0.00039 0.25418 0.55875 0.03800
H 	H 	0.97266 0.33350 0.55518 0.05000
H 	H 	0.76962 0.12296 0.48975 0.04300
H 	H 	0.67789 0.15061 0.46925 0.04300
H 	H 	0.64091 0.21034 0.47893 0.04900
H 	H 	0.87395 0.34625 0.54545 0.05300
C 	C 	0.80643 0.48028 0.54336 -0.00200
C 	C 	0.88320 0.50773 0.56529 -0.02400
C 	C 	0.92749 0.56860 0.58097 -0.03500
C 	C 	0.89546 0.60277 0.57478 0.00400
C 	C 	0.81980 0.57804 0.55094 0.03900
C 	C 	0.77618 0.51784 0.53460 -0.04700
C 	C 	0.78822 0.61291 0.54449 -0.05600
C 	C 	0.83242 0.67316 0.56086 0.02200
C 	C 	0.90826 0.69874 0.58394 -0.07200
C 	C 	0.93849 0.66172 0.59183 -0.00800
H 	H 	0.90722 0.47951 0.57203 0.04600
H 	H 	0.98609 0.58810 0.59871 0.04200
H 	H 	0.71743 0.49777 0.51681 0.05700
H 	H 	0.73000 0.59413 0.52635 0.06000
H 	H 	0.80879 0.70164 0.55427 0.05100
H 	H 	0.99702 0.68130 0.60964 0.04200
C 	C 	0.55667 0.23834 0.55041 -0.00300
C 	C 	0.52348 0.16271 0.56910 -0.02800
C 	C 	0.45524 0.11798 0.58173 -0.03500
C 	C 	0.41924 0.14832 0.57563 -0.00100
C 	C 	0.45250 0.22433 0.55705 0.03900
C 	C 	0.52054 0.26879 0.54417 -0.05000
C 	C 	0.41590 0.25437 0.55057 -0.06200
C 	C 	0.34351 0.20795 0.55931 0.02200
C 	C 	0.30746 0.13141 0.57481 -0.08000
C 	C 	0.34817 0.10281 0.58576 -0.00500
H 	H 	0.55134 0.13887 0.57465 0.04400
H 	H 	0.43018 0.05967 0.59605 0.03600
H 	H 	0.54554 0.32702 0.52938 0.05700
H 	H 	0.44188 0.31303 0.53719 0.05600
H 	H 	0.31307 0.23070 0.55133 0.04300
H 	H 	0.32116 0.04385 0.59883 0.03000
C 	C 	0.77706 0.28680 0.02150 -0.00400
C 	C 	0.85820 0.32727 0.03515 -0.02700
C 	C 	0.89691 0.30302 0.03725 -0.03800
C 	C 	0.85505 0.23744 0.02626 0.00300
C 	C 	0.77408 0.19859 0.01048 0.03100
C 	C 	0.73547 0.22388 0.00776 -0.05300
C 	C 	0.73222 0.13232 0.00015 -0.06500
C 	C 	0.76890 0.10075 0.00960 0.01200
C 	C 	0.84781 0.13545 0.02908 -0.07500
C 	C 	0.89196 0.20686 0.03399 -0.01600
H 	H 	0.89115 0.37630 0.04537 0.04900
H 	H 	0.95918 0.33378 0.04890 0.04500
H 	H 	0.67318 0.19358 0.99613 0.05300
H 	H 	0.67049 0.10307 0.98691 0.04700
H 	H 	0.73462 0.04641 0.00475 0.03200
H 	H 	0.95350 0.23493 0.04782 0.04700
C 	C 	0.78023 0.47348 0.03137 -0.00600
C 	C 	0.80201 0.53338 0.99763 -0.02000
C 	C 	0.82762 0.60192 0.99766 -0.03700
C 	C 	0.83259 0.61137 0.03168 0.01400
C 	C 	0.81342 0.55196 0.06622 0.02900
C 	C 	0.78732 0.48326 0.06589 -0.04800
C 	C 	0.82045 0.56204 0.10060 -0.05800
C 	C 	0.84980 0.63162 0.10132 0.00800
C 	C 	0.87122 0.69157 0.06743 -0.06100
C 	C 	0.85822 0.67991 0.03193 -0.01600
H 	H 	0.79625 0.52603 0.97084 0.05200
H 	H 	0.84316 0.64747 0.97116 0.06400
H 	H 	0.77062 0.43687 0.09200 0.05100
H 	H 	0.80516 0.51658 0.12714 0.04900
H 	H 	0.85893 0.63960 0.12879 0.04300
H 	H 	0.87062 0.72487 0.00504 0.07100
C 	C 	0.54904 0.21819 0.04279 -0.00500
C 	C 	0.52908 0.14858 0.06909 -0.02800
C 	C 	0.46231 0.10110 0.08357 -0.03900
C 	C 	0.41498 0.12290 0.07202 0.00300
C 	C 	0.43344 0.19177 0.04459 0.03300
C 	C 	0.49943 0.23833 0.02946 -0.05000
C 	C 	0.38640 0.21379 0.03315 -0.05800
C 	C 	0.32027 0.16689 0.04801 0.00800
C 	C 	0.30035 0.09742 0.07452 -0.06200
C 	C 	0.34920 0.07653 0.08734 -0.01900
H 	H 	0.56684 0.13246 0.07958 0.04200
H 	H 	0.44823 0.04800 0.10431 0.03500
H 	H 	0.51387 0.29145 0.00850 0.05700
H 	H 	0.40048 0.26684 0.01235 0.05500
H 	H 	0.28301 0.18348 0.03775 0.04400
H 	H 	0.33501 0.02358 0.10844 0.03600
Co	Co	0.99983 0.87362 0.12357 1.18700
O 	O 	0.98372 0.96405 0.09890 -0.55900
C 	C 	0.05374 0.98902 0.99136 0.36300
O 	O 	0.02588 0.00427 0.00438 -0.39200
C 	C 	0.99432 0.98984 0.22286 0.35700
O 	O 	0.00108 0.95454 0.21036 -0.35400
Co	Co	0.01176 0.88448 0.62810 1.18500
O 	O 	0.97439 0.96108 0.59775 -0.55600
C 	C 	0.02726 0.97289 0.49325 0.35500
O 	O 	0.03593 0.01987 0.50529 -0.38100
C 	C 	0.94721 0.97622 0.71114 0.32600
O 	O 	0.98172 0.96784 0.69824 -0.36400
C 	C 	0.02840 0.98616 0.94838 -0.08400
C 	C 	0.01859 0.03978 0.91565 0.09300
C 	C 	0.00635 0.04229 0.87573 0.04200
C 	C 	0.01280 0.99756 0.86869 0.05000
C 	C 	0.02812 0.94845 0.90136 0.06300
C 	C 	0.02835 0.93757 0.94017 0.12600
C 	C 	0.99570 0.99610 0.82679 0.04100
C 	C 	0.97023 0.97554 0.75420 -0.07900
Br	Br	0.04895 0.89556 0.89287 -0.15200
Br	Br	0.02709 0.11291 0.92491 -0.19300
Br	Br	0.02539 0.85379 0.98127 -0.23800
Br	Br	0.98081 0.10674 0.83090 -0.19100
C 	C 	0.99849 0.97110 0.26613 -0.08800
C 	C 	0.00757 0.98179 0.33767 0.04900
C 	C 	0.00981 0.98189 0.37668 0.04700
C 	C 	0.00878 0.97989 0.44948 -0.07800
