data_crystal

_cell_length_a 25.83083
_cell_length_b 26.21259
_cell_length_c 17.67223
_cell_angle_alpha 95.40509
_cell_angle_beta  95.40265
_cell_angle_gamma 125.81949

_symmetry_space_group_name_	'P 1'
_symmetry_space_group_name_H-M	'P 1'

loop_
_symmetry_equiv_pos_as_xyz
  x,y,z

loop_
_atom_site_label
_atom_site_type_symbol
_atom_site_fract_x
_atom_site_fract_y
_atom_site_fract_z
_atom_site_charge
C 	C 	0.05495 0.02156 0.97765 0.11600
N 	N 	0.03600 0.05936 0.99483 -0.12100
N 	N 	0.00030 0.03528 0.41253 -0.13500
C 	C 	0.03500 0.01325 0.43221 0.11600
C 	C 	0.51777 0.28004 0.47046 0.28900
C 	C 	0.21109 0.15559 0.49497 -0.04400
C 	C 	0.24234 0.13202 0.46223 0.00500
C 	C 	0.20514 0.06999 0.41796 -0.04300
C 	C 	0.13741 0.03162 0.40721 -0.02500
C 	C 	0.10614 0.05507 0.44008 -0.01800
C 	C 	0.14324 0.11737 0.48361 -0.02200
C 	C 	0.31387 0.17303 0.47182 0.02500
H 	H 	0.22873 0.05167 0.39150 0.03900
H 	H 	0.10920 0.98373 0.37313 0.04400
H 	H 	0.11961 0.13575 0.50976 0.04200
H 	H 	0.23936 0.20339 0.52933 0.04200
C 	C 	0.34676 0.23167 0.44615 -0.06600
C 	C 	0.41371 0.26787 0.44867 0.01400
C 	C 	0.44851 0.24545 0.47616 -0.08700
C 	C 	0.41588 0.18780 0.50442 0.01300
C 	C 	0.34892 0.15189 0.50250 -0.06600
H 	H 	0.32021 0.24852 0.42261 0.04600
H 	H 	0.43832 0.31285 0.42812 0.03300
H 	H 	0.44199 0.16995 0.52599 0.02900
H 	H 	0.32406 0.10703 0.52339 0.04500
C 	C 	0.36067 0.13113 0.02494 -0.08700
C 	C 	0.32192 0.12943 0.96201 0.04600
C 	C 	0.34835 0.15284 0.89659 -0.06900
C 	C 	0.41351 0.17942 0.89513 0.01300
C 	C 	0.45264 0.18235 0.95882 -0.07600
C 	C 	0.42549 0.15696 0.02312 -0.00300
C 	C 	0.25326 0.10171 0.96411 0.00100
H 	H 	0.31857 0.15078 0.84716 0.04800
H 	H 	0.43384 0.19867 0.84509 0.03200
H 	H 	0.45528 0.15953 0.07299 0.03600
H 	H 	0.34078 0.11321 0.07573 0.04500
C 	C 	0.21133 0.03944 0.97853 -0.03700
C 	C 	0.14735 0.01407 0.98457 -0.02600
C 	C 	0.12383 0.05018 0.97459 -0.01300
C 	C 	0.16572 0.11248 0.95947 -0.02300
C 	C 	0.23024 0.13822 0.95463 -0.03900
H 	H 	0.22851 0.01078 0.98560 0.04300
H 	H 	0.11608 0.96630 0.99721 0.05000
H 	H 	0.14834 0.14079 0.95095 0.04500
H 	H 	0.26238 0.18657 0.94397 0.04200
N 	N 	0.01091 0.95700 0.96699 -0.12800
C 	C 	0.52333 0.21956 0.96281 0.30200
N 	N 	0.00390 0.95223 0.44400 -0.13100
O 	O 	0.54184 0.32223 0.42398 -0.39600
O 	O 	0.55607 0.20452 0.00414 -0.38000
O 	O 	0.55464 0.27560 0.94203 -0.39500
O 	O 	0.55581 0.27540 0.52024 -0.38300
O 	O 	0.61665 0.32701 0.13004 -0.36100
H 	H 	0.61467 0.21451 0.87300 0.17800
Cu	Cu	0.62042 0.35383 0.37789 0.89400
H 	H 	0.59691 0.24738 0.37662 0.16100
Cu	Cu	0.65458 0.25778 0.02004 0.92200
Cu	Cu	0.62506 0.35859 0.03005 0.88600
C 	C 	0.65524 0.31605 0.16679 0.19600
O 	O 	0.65410 0.25222 0.90771 -0.63500
O 	O 	0.65034 0.43269 0.97976 -0.38700
Cu	Cu	0.64431 0.30633 0.51435 0.89000
O 	O 	0.63168 0.29207 0.40274 -0.63900
O 	O 	0.65602 0.36669 0.28020 -0.35800
O 	O 	0.65965 0.31336 0.62766 -0.34200
H 	H 	0.64359 0.52480 0.95500 0.03700
Cu	Cu	0.67338 0.33596 0.89322 0.89400
O 	O 	0.66906 0.28022 0.13037 -0.32500
O 	O 	0.66480 0.31871 0.77985 -0.34100
C 	C 	0.67033 0.33126 0.24397 0.19500
H 	H 	0.66705 0.09740 0.33654 0.02800
C 	C 	0.68825 0.29255 0.74200 0.19200
O 	O 	0.69036 0.35159 0.00488 -0.65000
C 	C 	0.69170 0.45713 0.93169 0.29200
C 	C 	0.68832 0.29253 0.66633 0.19300
O 	O 	0.69022 0.20421 0.42422 -0.44300
C 	C 	0.69186 0.55288 0.94115 0.01400
O 	O 	0.70132 0.42389 0.46918 -0.39900
O 	O 	0.70552 0.22449 0.04356 -0.36500
O 	O 	0.69961 0.42108 0.88407 -0.38100
O 	O 	0.70606 0.26084 0.77559 -0.39100
O 	O 	0.70907 0.32063 0.28107 -0.32400
H 	H 	0.70228 0.64087 0.96164 0.04800
Cu	Cu	0.71066 0.24979 0.52540 0.86200
H 	H 	0.71120 0.03561 0.32951 0.04400
H 	H 	0.71237 0.12821 0.03208 0.02900
O 	O 	0.72241 0.27708 0.63353 -0.39300
C 	C 	0.71916 0.12251 0.34538 0.01400
C 	C 	0.72193 0.52391 0.92265 -0.08500
Cu	Cu	0.72899 0.33280 0.39158 0.92600
C 	C 	0.72488 0.61860 0.94430 -0.06200
H 	H 	0.96626 0.85725 0.05564 0.03500
C 	C 	0.97329 0.03236 0.00196 0.07700
C 	C 	0.93447 0.99627 0.40439 0.10900
Cu	Cu	0.73672 0.27590 0.88363 0.86400
O 	O 	0.78472 0.29637 0.98384 -0.42200
C 	C 	0.76370 0.25228 0.02679 0.27500
H 	H 	0.73545 0.38783 0.02955 0.15600
O 	O 	0.77875 0.42987 0.41063 -0.36300
O 	O 	0.73182 0.33067 0.50325 -0.64200
O 	O 	0.76522 0.28455 0.36880 -0.36700
C 	C 	0.75928 0.45840 0.45138 0.28300
C 	C 	0.73542 0.22591 0.38186 0.29400
H 	H 	0.76838 0.36965 0.53957 0.17600
C 	C 	0.80983 0.62448 0.52112 -0.06500
C 	C 	0.83943 0.65538 0.46081 0.02300
C 	C 	0.84961 0.62372 0.40235 -0.06600
C 	C 	0.82759 0.56061 0.40219 0.01000
C 	C 	0.79488 0.52842 0.46039 -0.09000
C 	C 	0.78783 0.56140 0.52106 0.01000
C 	C 	0.85964 0.72082 0.45872 0.00500
H 	H 	0.87357 0.64763 0.35633 0.04300
H 	H 	0.83350 0.53593 0.35507 0.03400
H 	H 	0.76347 0.53747 0.56685 0.03300
H 	H 	0.80259 0.64883 0.56712 0.04600
C 	C 	0.83207 0.73256 0.39676 -0.04500
C 	C 	0.85477 0.79526 0.39186 -0.02400
C 	C 	0.90537 0.84669 0.44871 -0.01800
C 	C 	0.93063 0.83450 0.51256 -0.02400
C 	C 	0.90794 0.77191 0.51746 -0.04500
H 	H 	0.79404 0.69329 0.35168 0.03800
H 	H 	0.83488 0.80403 0.34234 0.03800
H 	H 	0.96926 0.87377 0.55719 0.03900
H 	H 	0.92908 0.76331 0.56589 0.04000
C 	C 	0.88477 0.09166 0.31903 -0.04600
C 	C 	0.83815 0.08231 0.36272 0.00300
C 	C 	0.81959 0.04046 0.41579 -0.04500
C 	C 	0.84885 0.00992 0.42680 -0.02700
C 	C 	0.89731 0.02127 0.38531 -0.02000
C 	C 	0.91416 0.06128 0.33021 -0.02500
C 	C 	0.81164 0.11921 0.35640 0.02400
H 	H 	0.78383 0.03300 0.45005 0.03600
H 	H 	0.95082 0.06972 0.29700 0.03700
H 	H 	0.89926 0.12355 0.27767 0.03900
C 	C 	0.85376 0.18644 0.37004 -0.06800
C 	C 	0.82871 0.22151 0.37294 0.01300
C 	C 	0.76131 0.18972 0.36314 -0.09800
C 	C 	0.74419 0.08744 0.34173 -0.06900
H 	H 	0.90589 0.21154 0.38108 0.04400
H 	H 	0.86181 0.27332 0.38650 0.02800
C 	C 	0.80699 0.75708 0.90226 -0.04700
C 	C 	0.82668 0.72629 0.94382 0.02500
C 	C 	0.88346 0.76279 0.00037 -0.06500
C 	C 	0.92166 0.82950 0.01310 -0.04200
C 	C 	0.90332 0.86043 0.96970 0.00100
C 	C 	0.84514 0.82401 0.91534 -0.02500
C 	C 	0.78801 0.65591 0.92848 0.02000
H 	H 	0.89836 0.73941 0.03381 0.03700
H 	H 	0.83063 0.84747 0.88146 0.04200
H 	H 	0.76287 0.72926 0.85897 0.04300
C 	C 	0.78357 0.56066 0.90228 0.01200
C 	C 	0.81641 0.62636 0.90507 -0.06200
H 	H 	0.80710 0.53888 0.88723 0.02900
H 	H 	0.86481 0.65469 0.89158 0.04600
C 	C 	0.90040 0.23672 0.05514 -0.07300
C 	C 	0.86565 0.17010 0.04806 0.02700
C 	C 	0.79783 0.13150 0.04178 -0.07100
C 	C 	0.76487 0.15886 0.03938 0.01100
C 	C 	0.79924 0.22506 0.04211 -0.09700
C 	C 	0.86733 0.26403 0.05178 0.01000
C 	C 	0.89962 0.14029 0.04234 -0.01800
H 	H 	0.77044 0.08007 0.03632 0.04300
H 	H 	0.89453 0.31527 0.05520 0.02400
H 	H 	0.95285 0.26715 0.06159 0.03900
C 	C 	0.93827 0.15233 0.98573 -0.02500
C 	C 	0.96481 0.11910 0.97486 -0.01200
C 	C 	0.95235 0.07300 0.01981 -0.03000
C 	C 	0.91569 0.06258 0.07822 -0.02700
C 	C 	0.88965 0.09622 0.08962 -0.04100
H 	H 	0.94612 0.18600 0.94865 0.03600
H 	H 	0.99312 0.12758 0.92970 0.03600
H 	H 	0.90653 0.02773 0.11400 0.03800
H 	H 	0.86035 0.08683 0.13381 0.03800
N 	N 	0.92975 0.96762 0.99223 -0.12200
C 	C 	0.94866 0.92998 0.97486 0.10600
C 	C 	0.93826 0.91298 0.43612 0.10600
N 	N 	0.90338 0.93493 0.41614 -0.13900
H 	H 	0.83548 0.97928 0.46955 0.04200
