data_crystal

_cell_length_a 18.44990
_cell_length_b 18.83058
_cell_length_c 26.76500
_cell_angle_alpha 95.41897
_cell_angle_beta  95.41856
_cell_angle_gamma 126.40679

_symmetry_space_group_name_	'P 1'
_symmetry_space_group_name_H-M	'P 1'

loop_
_symmetry_equiv_pos_as_xyz
  x,y,z

loop_
_atom_site_label
_atom_site_type_symbol
_atom_site_fract_x
_atom_site_fract_y
_atom_site_fract_z
_atom_site_charge
C 	C 	0.95275 0.04478 0.99481 0.12200
N 	N 	0.04278 0.09954 0.99094 -0.12800
C 	C 	0.08738 0.06387 0.98201 0.13100
N 	N 	0.04179 0.97402 0.97607 -0.12900
C 	C 	0.95272 0.91973 0.98052 0.12600
N 	N 	0.90846 0.95507 0.99062 -0.13000
C 	C 	0.88528 0.97040 0.46230 0.12900
N 	N 	0.84034 0.88026 0.44800 -0.13000
C 	C 	0.88926 0.84735 0.44720 0.12900
N 	N 	0.98220 0.90499 0.45746 -0.13700
C 	C 	0.02663 0.99407 0.47412 0.14100
N 	N 	0.97748 0.02575 0.47841 -0.13600
Cu	Cu	0.63372 0.23605 0.01779 0.93100
Cu	Cu	0.70808 0.21869 0.91426 0.88000
Cu	Cu	0.68638 0.35861 0.93883 0.90000
Cu	Cu	0.63973 0.40625 0.03428 0.90100
C 	C 	0.65627 0.32115 0.12008 0.30700
O 	O 	0.50023 0.18489 0.01407 -0.34900
C 	C 	0.66525 0.27982 0.83196 0.30800
O 	O 	0.71040 0.37224 0.01189 -0.63900
O 	O 	0.62134 0.22900 0.94246 -0.63400
O 	O 	0.68996 0.17309 0.02558 -0.34800
O 	O 	0.79046 0.25673 0.97578 -0.43300
O 	O 	0.62376 0.36073 0.09979 -0.37800
O 	O 	0.75760 0.48630 0.94042 -0.37200
C 	C 	0.75460 0.54143 0.97284 0.29600
C 	C 	0.46672 0.22117 0.99129 0.28800
O 	O 	0.52244 0.29917 0.97820 -0.38200
O 	O 	0.68936 0.51113 0.00010 -0.38100
O 	O 	0.66433 0.26597 0.09111 -0.34000
C 	C 	0.76540 0.20196 0.00815 0.29800
O 	O 	0.67539 0.34479 0.86374 -0.36800
O 	O 	0.65372 0.21035 0.84792 -0.40300
H 	H 	0.77615 0.41269 0.02804 0.17500
H 	H 	0.55808 0.18887 0.92235 0.19000
Cu	Cu	0.71780 0.30581 0.43107 0.92400
Cu	Cu	0.79134 0.30046 0.54988 0.88700
Cu	Cu	0.60537 0.27849 0.51537 0.90500
Cu	Cu	0.53687 0.29389 0.41059 0.90500
C 	C 	0.62946 0.28221 0.33018 0.30200
O 	O 	0.77412 0.43566 0.42407 -0.35000
C 	C 	0.69351 0.31289 0.62138 0.30300
O 	O 	0.58189 0.23969 0.44311 -0.63700
O 	O 	0.73668 0.34050 0.50671 -0.63200
O 	O 	0.75856 0.22715 0.42399 -0.34500
O 	O 	0.85037 0.28205 0.50228 -0.40400
O 	O 	0.55142 0.25945 0.34213 -0.36100
O 	O 	0.47654 0.21196 0.51854 -0.36300
C 	C 	0.41706 0.21206 0.48702 0.29000
C 	C 	0.73429 0.47296 0.43561 0.27700
O 	O 	0.65539 0.42596 0.45092 -0.37200
O 	O 	0.44438 0.26662 0.45377 -0.37700
O 	O 	0.68004 0.26680 0.35812 -0.35200
C 	C 	0.80253 0.21851 0.46166 0.28100
O 	O 	0.62668 0.30273 0.59039 -0.36400
O 	O 	0.77429 0.35078 0.60872 -0.39700
H 	H 	0.54163 0.17345 0.43272 0.17000
H 	H 	0.77153 0.40621 0.51724 0.17600
C 	C 	0.68511 0.30348 0.67518 -0.09800
C 	C 	0.62983 0.31952 0.69868 -0.05400
C 	C 	0.62193 0.31086 0.74973 0.17700
C 	C 	0.67003 0.28656 0.77779 -0.10100
C 	C 	0.72353 0.26865 0.75400 -0.05500
C 	C 	0.73123 0.27692 0.70303 0.16900
H 	H 	0.59303 0.33882 0.67747 0.08000
O 	O 	0.56310 0.32095 0.77107 -0.27300
H 	H 	0.75977 0.24875 0.77518 0.05700
O 	O 	0.78036 0.25491 0.67982 -0.29400
H 	H 	0.84454 0.31066 0.68745 0.14900
H 	H 	0.59964 0.38605 0.78507 0.16900
C 	C 	0.64602 0.30069 0.27828 -0.09200
C 	C 	0.68899 0.27192 0.25160 -0.05100
C 	C 	0.69806 0.28323 0.20090 0.17200
C 	C 	0.66158 0.32149 0.17596 -0.08900
C 	C 	0.62472 0.35594 0.20411 -0.05400
C 	C 	0.61658 0.34548 0.25471 0.17500
H 	H 	0.71418 0.23953 0.26977 0.08400
O 	O 	0.74184 0.25631 0.17589 -0.26200
H 	H 	0.59963 0.38866 0.18631 0.07600
O 	O 	0.57655 0.37619 0.28051 -0.28200
H 	H 	0.62738 0.43915 0.29695 0.15000
H 	H 	0.80730 0.30959 0.18302 0.16000
C 	C 	0.84260 0.74946 0.44277 -0.00300
C 	C 	0.81969 0.71031 0.48671 -0.02100
C 	C 	0.79322 0.62268 0.48590 0.01600
C 	C 	0.78526 0.57189 0.44039 -0.06900
C 	C 	0.81276 0.61268 0.39726 0.01000
C 	C 	0.83859 0.70021 0.39794 -0.02300
C 	C 	0.82570 0.76120 0.53325 0.10500
C 	C 	0.81809 0.56632 0.35305 0.08200
C 	C 	0.86105 0.73965 0.35250 0.09800
C 	C 	0.77757 0.58600 0.53244 0.08400
N 	N 	0.87900 0.77120 0.31626 -0.10300
N 	N 	0.76509 0.55672 0.56955 -0.11000
N 	N 	0.82283 0.52963 0.31780 -0.10900
N 	N 	0.83061 0.80187 0.57038 -0.09900
C 	C 	0.83685 0.01036 0.45408 -0.00100
C 	C 	0.84875 0.05445 0.41230 -0.02200
C 	C 	0.83591 0.12155 0.41392 0.02100
C 	C 	0.80557 0.14069 0.45610 -0.07600
C 	C 	0.78122 0.08727 0.49430 0.01500
C 	C 	0.79775 0.02282 0.49350 -0.02300
C 	C 	0.87671 0.03240 0.36829 0.10500
C 	C 	0.73843 0.09800 0.53406 0.04600
C 	C 	0.77636 0.97073 0.53378 0.10200
C 	C 	0.85727 0.17290 0.37325 0.09900
N 	N 	0.75926 0.92914 0.56594 -0.09900
N 	N 	0.87430 0.21386 0.34077 -0.09800
N 	N 	0.70426 0.10653 0.56578 -0.13200
N 	N 	0.89908 0.01474 0.33322 -0.10100
C 	C 	0.32138 0.16397 0.49580 -0.06700
C 	C 	0.27479 0.20114 0.48693 0.01600
C 	C 	0.17846 0.14498 0.47644 -0.02100
C 	C 	0.12884 0.05668 0.48698 -0.00500
C 	C 	0.17798 0.02698 0.50766 -0.02000
C 	C 	0.27264 0.07669 0.50746 0.01300
C 	C 	0.32570 0.29748 0.49132 0.09600
C 	C 	0.13257 0.94848 0.53153 0.10600
C 	C 	0.31844 0.03673 0.51748 0.09100
C 	C 	0.13152 0.17631 0.45184 0.10700
N 	N 	0.35484 0.00468 0.52548 -0.10700
N 	N 	0.09445 0.20170 0.43222 -0.10200
N 	N 	0.09631 0.88584 0.55057 -0.10200
N 	N 	0.36627 0.37435 0.49485 -0.10000
C 	C 	0.81544 0.63828 0.97251 -0.07300
C 	C 	0.80926 0.67079 0.92814 0.01800
C 	C 	0.85624 0.76361 0.93054 -0.02300
C 	C 	0.90605 0.82331 0.97764 -0.00300
C 	C 	0.91539 0.79132 0.02142 -0.02100
C 	C 	0.87194 0.69908 0.01852 0.01400
C 	C 	0.75265 0.60873 0.88046 0.09500
C 	C 	0.96921 0.85339 0.06951 0.09300
C 	C 	0.88537 0.66643 0.06279 0.07300
C 	C 	0.85482 0.79794 0.88445 0.10300
N 	N 	0.89601 0.64031 0.09807 -0.11400
N 	N 	0.85387 0.82530 0.84765 -0.09900
N 	N 	0.01212 0.90289 0.10787 -0.09200
N 	N 	0.70753 0.55938 0.84236 -0.10500
C 	C 	0.90136 0.08168 0.00042 -0.00000
C 	C 	0.82237 0.04787 0.96391 -0.02500
C 	C 	0.77097 0.07982 0.97038 0.01700
C 	C 	0.80272 0.15132 0.01059 -0.08500
C 	C 	0.88002 0.18363 0.04786 0.02400
C 	C 	0.92852 0.14779 0.04328 -0.03300
C 	C 	0.79631 0.98321 0.91851 0.10000
C 	C 	0.91036 0.25456 0.09048 0.08700
C 	C 	0.00544 0.17814 0.08288 0.11500
C 	C 	0.68611 0.04037 0.93500 0.04600
N 	N 	0.06680 0.20255 0.11455 -0.10000
N 	N 	0.61843 0.00894 0.90680 -0.12100
N 	N 	0.93466 0.31124 0.12447 -0.10400
N 	N 	0.77536 0.93167 0.88226 -0.10100
C 	C 	0.36945 0.18322 0.98915 -0.07200
C 	C 	0.31519 0.16782 0.94251 0.01600
C 	C 	0.22480 0.13898 0.94123 -0.02300
C 	C 	0.18746 0.12247 0.98607 -0.00300
C 	C 	0.24335 0.14327 0.03310 -0.02300
C 	C 	0.33350 0.17171 0.03461 0.01400
C 	C 	0.35134 0.17873 0.89562 0.08500
C 	C 	0.20658 0.13178 0.07979 0.10500
C 	C 	0.38847 0.18758 0.08283 0.09100
C 	C 	0.16929 0.12425 0.89355 0.10300
N 	N 	0.43165 0.19969 0.12144 -0.09700
N 	N 	0.12491 0.11244 0.85552 -0.10000
N 	N 	0.17736 0.12252 0.11707 -0.09500
N 	N 	0.38025 0.18747 0.85826 -0.10000
