data_crystal

_cell_length_a 22.88658
_cell_length_b 20.60021
_cell_length_c 21.58991
_cell_angle_alpha 90.03175
_cell_angle_beta  89.14688
_cell_angle_gamma 90.51991

_symmetry_space_group_name_	'P 1'
_symmetry_space_group_name_H-M	'P 1'

loop_
_symmetry_equiv_pos_as_xyz
  x,y,z

loop_
_atom_site_label
_atom_site_type_symbol
_atom_site_fract_x
_atom_site_fract_y
_atom_site_fract_z
_atom_site_charge
C 	C 	0.10296 0.02909 0.13217 0.27200
C 	C 	0.94934 0.14898 0.94550 0.28600
C 	C 	0.99332 0.97201 0.02320 0.41400
C 	C 	0.05392 0.24733 0.03264 0.34800
C 	C 	0.08971 0.02159 0.86340 0.25000
C 	C 	0.20359 0.11378 0.94623 0.29500
Ni	Ni	0.01438 0.11147 0.05887 1.11300
Ni	Ni	0.07906 0.14880 0.92811 1.11800
Ni	Ni	0.11246 0.01695 0.99624 1.09800
O 	O 	0.05640 0.06740 0.13350 -0.34300
O 	O 	0.14053 0.02909 0.08441 -0.35800
O 	O 	0.10199 0.08388 0.86227 -0.36500
O 	O 	0.95988 0.16465 0.00291 -0.33800
O 	O 	0.99272 0.13466 0.90686 -0.33700
O 	O 	0.18704 0.05184 0.95478 -0.38600
O 	O 	0.96757 0.02750 0.03531 -0.36900
O 	O 	0.04805 0.96426 0.03725 -0.37400
O 	O 	0.16544 0.16195 0.93999 -0.35500
O 	O 	0.05320 0.20097 0.07516 -0.36500
O 	O 	0.05972 0.23433 0.97225 -0.37900
O 	O 	0.07669 0.99184 0.91541 -0.34100
O 	O 	0.07685 0.09918 0.00273 -0.71600
H 	H 	0.10816 0.12140 0.02569 0.17500
C 	C 	0.22667 0.78580 0.53683 0.30300
C 	C 	0.03310 0.95638 0.47836 0.32900
C 	C 	0.12046 0.88040 0.63606 0.32300
C 	C 	0.13131 0.88358 0.35800 0.30900
C 	C 	0.96742 0.77463 0.53802 0.34200
C 	C 	0.06004 0.67608 0.46667 0.31100
Ni	Ni	0.15053 0.89739 0.50030 1.12200
Ni	Ni	0.04182 0.81928 0.43617 1.12300
Ni	Ni	0.09640 0.76486 0.56180 1.12300
O 	O 	0.22263 0.83696 0.49962 -0.33800
O 	O 	0.18460 0.77122 0.57808 -0.36000
O 	O 	0.97957 0.82332 0.50131 -0.36800
O 	O 	0.08015 0.95935 0.51241 -0.34400
O 	O 	0.03146 0.91749 0.42985 -0.37300
O 	O 	0.10439 0.69115 0.50240 -0.37400
O 	O 	0.16130 0.89916 0.59636 -0.33900
O 	O 	0.07979 0.83947 0.61907 -0.37600
O 	O 	0.03804 0.71960 0.42740 -0.34400
O 	O 	0.15500 0.91744 0.40419 -0.33300
O 	O 	0.10285 0.82827 0.36805 -0.36000
O 	O 	0.00906 0.74432 0.56791 -0.38800
O 	O 	0.10487 0.82092 0.49198 -0.71600
H 	H 	0.13233 0.79500 0.46681 0.17100
C 	C 	0.88012 0.73774 0.95298 0.29600
C 	C 	0.82236 0.55358 0.14805 0.31900
C 	C 	0.97067 0.65027 0.05141 0.34200
C 	C 	0.71217 0.63372 0.03499 0.29900
C 	C 	0.90896 0.46220 0.01149 0.34000
C 	C 	0.81961 0.51527 0.87824 0.30400
Ni	Ni	0.83975 0.66599 0.06353 1.12300
Ni	Ni	0.79399 0.52381 0.01822 1.13500
Ni	Ni	0.90428 0.59003 0.95010 1.12200
O 	O 	0.83395 0.72736 0.98888 -0.37000
O 	O 	0.91124 0.68827 0.92941 -0.33700
O 	O 	0.86062 0.46849 0.04410 -0.35900
O 	O 	0.85570 0.60408 0.13655 -0.34900
O 	O 	0.77987 0.53845 0.11030 -0.36000
O 	O 	0.85017 0.57028 0.88014 -0.35300
O 	O 	0.92869 0.69159 0.06399 -0.34500
O 	O 	0.95952 0.59660 0.02142 -0.37200
O 	O 	0.79353 0.48967 0.92873 -0.35500
O 	O 	0.74898 0.65688 0.07690 -0.34800
O 	O 	0.72142 0.57732 0.00643 -0.33600
O 	O 	0.91596 0.49331 0.95857 -0.38100
O 	O 	0.83799 0.60095 0.00208 -0.69600
H 	H 	0.81202 0.62049 0.97138 0.15400
C 	C 	0.81217 0.37883 0.64465 0.31000
C 	C 	0.97577 0.28813 0.45359 0.33700
C 	C 	0.90330 0.46442 0.52665 0.31300
C 	C 	0.88914 0.18178 0.51242 0.29100
C 	C 	0.82249 0.40779 0.37425 0.31500
C 	C 	0.71624 0.29046 0.45973 0.29700
Ni	Ni	0.90336 0.32386 0.56080 1.12300
Ni	Ni	0.84627 0.28084 0.42822 1.12700
Ni	Ni	0.78945 0.39811 0.50579 1.12900
O 	O 	0.84298 0.32613 0.63307 -0.35700
O 	O 	0.78309 0.40934 0.60040 -0.34100
O 	O 	0.85973 0.35968 0.37503 -0.37000
O 	O 	0.96438 0.33549 0.49123 -0.36900
O 	O 	0.93451 0.26341 0.41864 -0.35400
O 	O 	0.72224 0.33526 0.50373 -0.35700
O 	O 	0.91098 0.42374 0.57268 -0.35200
O 	O 	0.85249 0.46775 0.49932 -0.36100
O 	O 	0.75753 0.28065 0.41630 -0.34100
O 	O 	0.90861 0.22090 0.55746 -0.33300
O 	O 	0.84421 0.19812 0.47806 -0.35500
O 	O 	0.77887 0.40890 0.41418 -0.35700
O 	O 	0.84086 0.32520 0.50631 -0.71700
H 	H 	0.81539 0.29440 0.52929 0.16200
C 	C 	0.60605 0.02262 0.13804 0.23800
C 	C 	0.44825 0.12910 0.95196 0.32600
C 	C 	0.52422 0.94823 0.00640 0.35800
C 	C 	0.52305 0.23234 0.05673 0.30300
C 	C 	0.60272 0.05728 0.86821 0.34200
C 	C 	0.70695 0.14213 0.96951 0.28200
Ni	Ni	0.51178 0.08104 0.06204 1.11800
Ni	Ni	0.57583 0.16467 0.95185 1.12200
Ni	Ni	0.63131 0.03052 0.99733 1.10100
O 	O 	0.56827 0.07079 0.13529 -0.34000
O 	O 	0.63073 0.99666 0.08727 -0.30300
O 	O 	0.56909 0.10765 0.87719 -0.36700
O 	O 	0.45832 0.07812 0.98594 -0.39800
O 	O 	0.48706 0.17650 0.94730 -0.37600
O 	O 	0.69555 0.09558 0.01062 -0.34500
O 	O 	0.51191 0.97990 0.05768 -0.33700
O 	O 	0.56930 0.96532 0.97169 -0.37000
O 	O 	0.66465 0.17589 0.94229 -0.33700
O 	O 	0.49476 0.18027 0.07981 -0.34800
O 	O 	0.57178 0.22636 0.02382 -0.33900
O 	O 	0.64516 0.04454 0.90627 -0.39800
O 	O 	0.57842 0.09875 0.01385 -0.71200
H 	H 	0.60146 0.12213 0.04509 0.17100
C 	C 	0.56297 0.68812 0.48723 0.29700
C 	C 	0.60960 0.90997 0.64402 0.31100
C 	C 	0.46726 0.77940 0.55099 0.31900
C 	C 	0.72643 0.81162 0.55584 0.29700
C 	C 	0.52857 0.96674 0.48888 0.36100
C 	C 	0.62967 0.89401 0.37306 0.31100
Ni	Ni	0.59625 0.78283 0.58227 1.12400
Ni	Ni	0.64533 0.91310 0.51209 1.12800
Ni	Ni	0.54179 0.82992 0.45087 1.12300
O 	O 	0.60618 0.70427 0.52410 -0.34800
O 	O 	0.54238 0.72986 0.44549 -0.36200
O 	O 	0.57661 0.97280 0.52123 -0.36300
O 	O 	0.57314 0.86188 0.63550 -0.33400
O 	O 	0.65356 0.91932 0.60542 -0.34800
O 	O 	0.60233 0.83825 0.38350 -0.37200
O 	O 	0.50805 0.75421 0.58542 -0.33700
O 	O 	0.47850 0.83003 0.51653 -0.37300
O 	O 	0.65418 0.92804 0.41862 -0.34400
O 	O 	0.68601 0.79670 0.59868 -0.33200
O 	O 	0.71888 0.85943 0.51529 -0.34600
O 	O 	0.52629 0.92575 0.44211 -0.38500
O 	O 	0.60285 0.83250 0.50893 -0.71500
H 	H 	0.63148 0.80656 0.48526 0.16600
C 	C 	0.47123 0.64622 0.02532 0.32700
C 	C 	0.29019 0.52403 0.87396 0.32200
C 	C 	0.38266 0.72820 0.93741 0.31500
C 	C 	0.37788 0.44800 0.99989 0.25700
C 	C 	0.21065 0.65052 0.03240 0.34100
C 	C 	0.31119 0.56805 0.14192 0.29900
Ni	Ni	0.39204 0.58044 0.93615 1.11100
Ni	Ni	0.27606 0.53433 0.01294 1.14300
Ni	Ni	0.33969 0.66916 0.05098 1.13200
O 	O 	0.46002 0.59087 0.99695 -0.39000
O 	O 	0.42936 0.68221 0.05187 -0.34500
O 	O 	0.22444 0.60746 0.99027 -0.38200
O 	O 	0.32197 0.57681 0.87720 -0.36200
O 	O 	0.26991 0.49648 0.92508 -0.34300
O 	O 	0.34194 0.62199 0.13241 -0.34600
O 	O 	0.40785 0.67776 0.91075 -0.35800
O 	O 	0.33545 0.71935 0.97135 -0.36800
O 	O 	0.26723 0.55238 0.10529 -0.35000
O 	O 	0.39009 0.47858 0.94673 -0.35800
O 	O 	0.32839 0.45878 0.03055 -0.31600
O 	O 	0.25191 0.68098 0.06366 -0.35500
O 	O 	0.34415 0.58849 0.00698 -0.69700
H 	H 	0.36867 0.56597 0.03698 0.16500
C 	C 	0.30485 0.39048 0.63940 0.30400
C 	C 	0.47500 0.29607 0.45556 0.31300
C 	C 	0.40366 0.47511 0.52418 0.31000
C 	C 	0.38634 0.19366 0.51163 0.28800
C 	C 	0.31928 0.41591 0.36567 0.32500
C 	C 	0.21656 0.30181 0.45545 0.29600
Ni	Ni	0.39941 0.33515 0.55971 1.12500
Ni	Ni	0.34626 0.29219 0.42475 1.12800
Ni	Ni	0.28937 0.41128 0.49911 1.12700
O 	O 	0.33559 0.33760 0.62870 -0.34800
O 	O 	0.28384 0.42618 0.59343 -0.35800
O 	O 	0.35832 0.36967 0.36927 -0.36200
O 	O 	0.46428 0.34362 0.49349 -0.35700
O 	O 	0.43481 0.27601 0.41663 -0.34800
O 	O 	0.22160 0.34865 0.49787 -0.36300
O 	O 	0.40709 0.43501 0.57129 -0.35300
O 	O 	0.35583 0.47712 0.49098 -0.35200
O 	O 	0.25788 0.29149 0.41227 -0.34300
O 	O 	0.40326 0.23246 0.55787 -0.33600
O 	O 	0.34293 0.20975 0.47511 -0.35700
O 	O 	0.27728 0.41963 0.40735 -0.35700
O 	O 	0.33971 0.33760 0.50186 -0.71400
H 	H 	0.31324 0.30727 0.52404 0.15700
C 	C 	0.24529 0.43988 0.72494 -0.02500
C 	C 	0.29919 0.41534 0.70378 -0.06300
C 	C 	0.34915 0.42368 0.74069 0.10100
C 	C 	0.34547 0.45942 0.79585 -0.01800
C 	C 	0.29213 0.48561 0.81604 -0.07200
C 	C 	0.24146 0.47478 0.78095 0.11000
N 	N 	0.18636 0.50039 0.80103 -0.02200
H 	H 	0.20667 0.43361 0.69703 0.07600
H 	H 	0.38444 0.46708 0.82288 0.06000
N 	N 	0.40417 0.39745 0.72157 -0.02500
O 	O 	0.18076 0.56245 0.81031 -0.07600
O 	O 	0.14062 0.46257 0.80458 -0.07200
O 	O 	0.44656 0.43630 0.70465 -0.08900
O 	O 	0.41456 0.33616 0.73013 -0.08500
C 	C 	0.26687 0.53243 0.24150 -0.01600
C 	C 	0.31562 0.53480 0.20172 -0.05600
C 	C 	0.36676 0.50150 0.21755 0.10900
C 	C 	0.36590 0.45952 0.26856 -0.01000
C 	C 	0.31737 0.45743 0.30928 -0.05800
C 	C 	0.26815 0.49645 0.29633 0.11600
N 	N 	0.22052 0.50178 0.33956 -0.01800
H 	H 	0.22817 0.55992 0.23057 0.08900
H 	H 	0.40393 0.43031 0.27762 0.09200
N 	N 	0.42063 0.51341 0.18473 -0.01900
O 	O 	0.22388 0.54284 0.38519 -0.07500
O 	O 	0.17096 0.47324 0.32803 -0.06500
O 	O 	0.42509 0.50011 0.12604 -0.09400
O 	O 	0.46685 0.53118 0.21494 -0.06400
C 	C 	0.50463 0.59713 0.44456 -0.02500
C 	C 	0.53368 0.62426 0.49500 -0.06700
C 	C 	0.52553 0.59617 0.55445 0.10500
C 	C 	0.48261 0.54800 0.56365 -0.02200
C 	C 	0.45046 0.52424 0.51355 -0.06700
C 	C 	0.46382 0.54702 0.45330 0.10800
N 	N 	0.43771 0.51784 0.40061 -0.02100
H 	H 	0.51295 0.61580 0.39828 0.08500
H 	H 	0.47466 0.52888 0.60978 0.08900
N 	N 	0.56230 0.61415 0.60478 -0.02600
O 	O 	0.40622 0.55305 0.36420 -0.08300
O 	O 	0.45462 0.46067 0.38267 -0.08300
O 	O 	0.53923 0.63755 0.65538 -0.08400
O 	O 	0.61690 0.59709 0.60397 -0.07500
C 	C 	0.46514 0.04976 0.44112 -0.00500
C 	C 	0.48373 0.01771 0.49445 -0.11900
C 	C 	0.46248 0.03779 0.55312 0.11800
C 	C 	0.42757 0.09335 0.55798 -0.02900
C 	C 	0.41285 0.12853 0.50490 -0.05600
C 	C 	0.42901 0.10413 0.44581 0.08800
N 	N 	0.40868 0.13400 0.39044 -0.02300
H 	H 	0.47963 0.03323 0.39579 0.06400
H 	H 	0.41268 0.10968 0.60322 0.08700
N 	N 	0.47501 0.00111 0.60763 -0.04400
O 	O 	0.44635 0.15677 0.35010 -0.09200
O 	O 	0.35438 0.12646 0.37478 -0.09400
O 	O 	0.49133 0.03089 0.65770 -0.08500
O 	O 	0.46255 0.93941 0.60971 -0.04300
C 	C 	0.47633 0.79123 0.93011 -0.02100
C 	C 	0.41600 0.79051 0.94279 -0.07200
C 	C 	0.39047 0.84557 0.97117 0.10700
C 	C 	0.42639 0.89558 0.99405 -0.03400
C 	C 	0.48745 0.89223 0.98755 -0.08100
C 	C 	0.51254 0.83869 0.95647 0.10700
N 	N 	0.57461 0.82990 0.95549 -0.03300
H 	H 	0.49569 0.75275 0.90292 0.07800
H 	H 	0.40660 0.93808 0.01491 0.10100
N 	N 	0.32829 0.85285 0.97327 -0.03000
O 	O 	0.60316 0.82938 0.00715 -0.07000
O 	O 	0.60153 0.81577 0.90382 -0.07600
O 	O 	0.30209 0.86833 0.02500 -0.07400
O 	O 	0.29844 0.84869 0.92258 -0.07000
C 	C 	0.43710 0.30038 0.08415 -0.02400
C 	C 	0.49297 0.29592 0.05712 -0.05900
C 	C 	0.51431 0.34809 0.02037 0.09900
C 	C 	0.47588 0.39614 0.00071 0.00200
C 	C 	0.41762 0.39645 0.02196 -0.03900
C 	C 	0.39945 0.35032 0.06748 0.10300
N 	N 	0.34408 0.35529 0.09871 -0.01800
H 	H 	0.42186 0.26363 0.11662 0.08100
H 	H 	0.49209 0.43469 0.97074 0.05600
N 	N 	0.57541 0.35465 0.00630 -0.00700
O 	O 	0.29657 0.33948 0.06996 -0.05100
O 	O 	0.34217 0.36436 0.15829 -0.08200
O 	O 	0.59311 0.36226 0.94920 -0.10300
O 	O 	0.61293 0.35787 0.05090 -0.06200
C 	C 	0.58157 0.95708 0.81064 0.05300
C 	C 	0.59976 0.02202 0.80996 -0.13400
C 	C 	0.61977 0.05082 0.75440 0.14700
C 	C 	0.62224 0.01384 0.70019 -0.08100
C 	C 	0.60609 0.94799 0.70131 0.00100
C 	C 	0.58626 0.91931 0.75728 0.08700
N 	N 	0.57402 0.85113 0.76086 -0.01500
H 	H 	0.56566 0.93520 0.85330 0.07400
H 	H 	0.63697 0.03626 0.65723 0.08500
N 	N 	0.63850 0.11732 0.75311 -0.02800
O 	O 	0.61616 0.80966 0.75402 -0.07400
O 	O 	0.52196 0.83083 0.77680 -0.06300
O 	O 	0.68380 0.13566 0.78457 -0.07700
O 	O 	0.61345 0.15820 0.71632 -0.06800
C 	C 	0.66767 0.98653 0.22556 0.00900
C 	C 	0.61274 0.98894 0.19766 -0.02700
C 	C 	0.56446 0.95733 0.22604 0.10000
C 	C 	0.57123 0.92475 0.28216 -0.01400
C 	C 	0.62565 0.92351 0.31104 -0.06700
C 	C 	0.67447 0.95388 0.28215 0.10600
N 	N 	0.73114 0.95023 0.30912 -0.00300
H 	H 	0.70516 0.00962 0.20325 0.05200
H 	H 	0.53360 0.90153 0.30410 0.06800
N 	N 	0.50855 0.95719 0.19738 -0.00300
O 	O 	0.75390 0.89399 0.32079 -0.07000
O 	O 	0.76176 0.00290 0.31763 -0.09800
O 	O 	0.48866 0.90412 0.17237 -0.06800
O 	O 	0.47422 0.00667 0.20452 -0.12600
C 	C 	0.56662 0.27609 0.39520 -0.01700
C 	C 	0.53499 0.27068 0.45115 -0.07000
C 	C 	0.56423 0.25100 0.50516 0.10200
C 	C 	0.62499 0.24467 0.50397 -0.02300
C 	C 	0.65739 0.26235 0.45109 -0.06100
C 	C 	0.62785 0.27111 0.39473 0.10500
N 	N 	0.65960 0.27416 0.33718 -0.01900
H 	H 	0.54414 0.28716 0.35270 0.08400
H 	H 	0.64741 0.23331 0.54647 0.07900
N 	N 	0.53294 0.24110 0.56221 -0.02300
O 	O 	0.69096 0.22505 0.31929 -0.07400
O 	O 	0.65129 0.32215 0.29929 -0.06800
O 	O 	0.53013 0.18318 0.58601 -0.08300
O 	O 	0.51951 0.29086 0.59651 -0.10800
C 	C 	0.06718 0.27395 0.39211 -0.01300
C 	C 	0.03629 0.26511 0.44805 -0.09700
C 	C 	0.06724 0.24861 0.50191 0.10300
C 	C 	0.12824 0.25056 0.50112 -0.02700
C 	C 	0.15876 0.27105 0.44801 -0.06200
C 	C 	0.12851 0.27647 0.39166 0.10100
N 	N 	0.15971 0.28494 0.33428 -0.01800
H 	H 	0.04373 0.28296 0.34975 0.07200
H 	H 	0.15162 0.24220 0.54367 0.07200
N 	N 	0.03693 0.23423 0.55864 -0.02400
O 	O 	0.19257 0.23856 0.31302 -0.07600
O 	O 	0.14923 0.33496 0.29959 -0.06900
O 	O 	0.03663 0.17509 0.57961 -0.09700
O 	O 	0.02158 0.28144 0.59528 -0.13800
C 	C 	0.62175 0.67646 0.08436 -0.02500
C 	C 	0.65416 0.66281 0.03024 -0.03900
C 	C 	0.62628 0.66368 0.97269 0.09000
C 	C 	0.56534 0.66450 0.97086 -0.03600
C 	C 	0.53214 0.66911 0.02583 -0.05400
C 	C 	0.56070 0.68077 0.08216 0.11300
N 	N 	0.52792 0.69461 0.13745 -0.02200
H 	H 	0.64343 0.67977 0.12855 0.08200
H 	H 	0.54370 0.65700 0.92711 0.06800
N 	N 	0.65978 0.66030 0.91612 -0.01900
O 	O 	0.53265 0.65735 0.18568 -0.07000
O 	O 	0.49891 0.74845 0.14195 -0.06700
O 	O 	0.64450 0.62014 0.87260 -0.08000
O 	O 	0.70479 0.69845 0.90756 -0.07800
C 	C 	0.06008 0.60161 0.09137 -0.01200
C 	C 	0.02906 0.65820 0.07866 -0.08400
C 	C 	0.06073 0.71673 0.07094 0.10900
C 	C 	0.12085 0.71404 0.05597 -0.01400
C 	C 	0.14949 0.65408 0.05462 -0.07300
C 	C 	0.11929 0.59786 0.07568 0.10600
N 	N 	0.14756 0.53636 0.07824 -0.02800
H 	H 	0.03651 0.55763 0.10425 0.08300
H 	H 	0.14519 0.75826 0.04598 0.08200
N 	N 	0.03469 0.77760 0.08741 -0.02900
O 	O 	0.15191 0.50697 0.13127 -0.07700
O 	O 	0.15667 0.50397 0.02736 -0.10700
O 	O 	0.99313 0.77927 0.12913 -0.05300
O 	O 	0.05952 0.83160 0.06965 -0.08700
C 	C 	0.76336 0.46461 0.79221 -0.01900
C 	C 	0.81744 0.47873 0.81919 -0.05700
C 	C 	0.86920 0.45519 0.79115 0.10800
C 	C 	0.86648 0.41930 0.73606 -0.01600
C 	C 	0.81271 0.40713 0.70775 -0.06300
C 	C 	0.76064 0.42891 0.73670 0.11100
N 	N 	0.70495 0.41379 0.71064 -0.02100
H 	H 	0.72334 0.48111 0.81435 0.08500
H 	H 	0.90661 0.40279 0.71414 0.07800
N 	N 	0.92461 0.46667 0.81900 -0.02200
O 	O 	0.69052 0.35373 0.69944 -0.06800
O 	O 	0.66719 0.45960 0.70196 -0.06800
O 	O 	0.95194 0.41893 0.84483 -0.07600
O 	O 	0.95125 0.52211 0.81082 -0.07900
C 	C 	0.87638 0.46343 0.28804 -0.01900
C 	C 	0.82399 0.45404 0.32171 -0.06600
C 	C 	0.77267 0.48535 0.30183 0.11100
C 	C 	0.77266 0.51712 0.24468 -0.01700
C 	C 	0.82420 0.52300 0.20938 -0.06800
C 	C 	0.87702 0.49910 0.23286 0.11600
N 	N 	0.93138 0.51120 0.20106 -0.02200
H 	H 	0.91672 0.44303 0.30471 0.08200
H 	H 	0.73271 0.53890 0.22851 0.08100
N 	N 	0.72190 0.48870 0.34108 -0.01800
O 	O 	0.95428 0.56919 0.20158 -0.06300
O 	O 	0.96229 0.46273 0.18087 -0.07600
O 	O 	0.72158 0.52769 0.38850 -0.08200
O 	O 	0.67355 0.46069 0.32420 -0.06700
C 	C 	0.96053 0.52896 0.44892 -0.02400
C 	C 	0.94872 0.51355 0.51134 -0.06600
C 	C 	0.97856 0.54715 0.55832 0.12400
C 	C 	0.01893 0.59606 0.54248 -0.03500
C 	C 	0.02681 0.61551 0.48043 -0.08800
C 	C 	0.99914 0.57996 0.43322 0.14600
N 	N 	0.01008 0.59528 0.36943 -0.03900
H 	H 	0.93896 0.50203 0.41253 0.07500
H 	H 	0.04179 0.62140 0.57898 0.06300
N 	N 	0.96557 0.53447 0.62224 -0.01400
O 	O 	0.06304 0.59332 0.34681 -0.06600
O 	O 	0.96671 0.60769 0.33318 -0.05200
O 	O 	0.00589 0.51203 0.65802 -0.09400
O 	O 	0.91511 0.55062 0.64580 -0.07300
C 	C 	0.93519 0.08196 0.55467 -0.01300
C 	C 	0.91637 0.11704 0.50316 -0.06000
C 	C 	0.92896 0.09300 0.44287 0.09900
C 	C 	0.96525 0.03884 0.43523 -0.01700
C 	C 	0.98764 0.00681 0.48689 -0.08200
C 	C 	0.97028 0.02691 0.54692 0.08700
N 	N 	0.98811 0.99150 0.60017 0.02100
H 	H 	0.92355 0.09810 0.60100 0.08400
H 	H 	0.97684 0.02259 0.38892 0.07400
N 	N 	0.90477 0.12285 0.38933 -0.02500
O 	O 	0.01677 0.02090 0.64370 -0.12400
O 	O 	0.97095 0.93166 0.60785 -0.07300
O 	O 	0.93954 0.14667 0.34672 -0.08500
O 	O 	0.84966 0.11447 0.37749 -0.08600
C 	C 	0.88136 0.78808 0.60735 -0.01100
C 	C 	0.90574 0.76101 0.55332 -0.07500
C 	C 	0.86827 0.73746 0.50687 0.10700
C 	C 	0.80819 0.74870 0.51135 -0.02200
C 	C 	0.78507 0.78402 0.56111 -0.06000
C 	C 	0.82127 0.80084 0.61104 0.11000
N 	N 	0.79793 0.83437 0.66377 -0.02000
H 	H 	0.90968 0.80478 0.64401 0.08600
H 	H 	0.78006 0.73362 0.47391 0.07600
N 	N 	0.89139 0.70557 0.45321 -0.02300
O 	O 	0.79774 0.80672 0.71790 -0.06000
O 	O 	0.78212 0.89461 0.65878 -0.05900
O 	O 	0.87622 0.64575 0.44221 -0.08100
O 	O 	0.91603 0.73984 0.40935 -0.09300
C 	C 	0.31168 0.76516 0.60377 -0.02700
C 	C 	0.28510 0.75840 0.54592 -0.05900
C 	C 	0.31896 0.73832 0.49448 0.10200
C 	C 	0.37993 0.73551 0.49929 -0.02100
C 	C 	0.40712 0.75407 0.55444 -0.07700
C 	C 	0.37272 0.76385 0.60818 0.11700
N 	N 	0.39961 0.77680 0.66636 -0.02300
H 	H 	0.28534 0.77584 0.64452 0.09000
H 	H 	0.40636 0.72364 0.45882 0.06400
N 	N 	0.29176 0.72329 0.43674 -0.02100
O 	O 	0.38928 0.83101 0.69527 -0.05300
O 	O 	0.43075 0.73239 0.69265 -0.06300
O 	O 	0.31416 0.74528 0.38505 -0.07400
O 	O 	0.24556 0.68606 0.43567 -0.07600
C 	C 	0.87146 0.85523 0.97795 -0.07000
C 	C 	0.90389 0.80512 0.94981 -0.03400
C 	C 	0.96316 0.81692 0.93455 0.08400
C 	C 	0.99128 0.87228 0.95771 0.04400
C 	C 	0.96074 0.91707 0.99499 -0.13200
C 	C 	0.89987 0.90906 0.00387 0.18700
N 	N 	0.86728 0.95299 0.04206 -0.02700
H 	H 	0.82476 0.84927 0.98530 0.08800
H 	H 	0.03734 0.87966 0.94765 0.05100
N 	N 	0.99439 0.77429 0.89382 -0.00700
O 	O 	0.82383 0.98458 0.01887 -0.06400
O 	O 	0.87524 0.95385 0.10157 -0.05200
O 	O 	0.97641 0.76507 0.83759 -0.06500
O 	O 	0.04335 0.74895 0.91121 -0.10700
C 	C 	0.00994 0.41745 0.00678 -0.02400
C 	C 	0.95244 0.41325 0.03026 -0.04500
C 	C 	0.93718 0.36179 0.07130 0.09900
C 	C 	0.97754 0.31301 0.08293 0.01600
C 	C 	0.03043 0.31111 0.04967 -0.10400
C 	C 	0.04914 0.36663 0.01658 0.14100
N 	N 	0.10710 0.37012 0.99064 -0.04300
H 	H 	0.02385 0.45939 0.97989 0.06500
H 	H 	0.96440 0.27209 0.11164 0.06700
N 	N 	0.87957 0.35604 0.09736 -0.01700
O 	O 	0.11557 0.39124 0.93442 -0.07100
O 	O 	0.15153 0.35312 0.02364 -0.03900
O 	O 	0.83708 0.33512 0.06322 -0.06800
O 	O 	0.87170 0.36115 0.15693 -0.07700
C 	C 	0.79613 0.09533 0.92206 -0.02100
C 	C 	0.76740 0.14961 0.94608 -0.06100
C 	C 	0.79737 0.20958 0.94887 0.10500
C 	C 	0.85801 0.21170 0.93719 -0.02600
C 	C 	0.88867 0.15432 0.92350 -0.05800
C 	C 	0.85629 0.09764 0.90940 0.09900
N 	N 	0.88382 0.04275 0.88137 -0.01600
H 	H 	0.77201 0.05049 0.91479 0.06700
H 	H 	0.88197 0.25665 0.94449 0.07600
N 	N 	0.76674 0.26825 0.96314 -0.03000
O 	O 	0.92958 0.01767 0.90643 -0.09600
O 	O 	0.85787 0.01192 0.83675 -0.07900
O 	O 	0.73500 0.27233 0.01348 -0.04500
O 	O 	0.77388 0.31907 0.92799 -0.08000
C 	C 	0.29957 0.08163 0.90034 -0.03000
C 	C 	0.26617 0.12731 0.93327 -0.06700
C 	C 	0.29377 0.18336 0.95688 0.09600
C 	C 	0.35489 0.18891 0.95441 -0.02200
C 	C 	0.38863 0.13844 0.92941 -0.08000
C 	C 	0.36064 0.08738 0.89761 0.10300
N 	N 	0.39441 0.03959 0.86497 -0.04100
H 	H 	0.27823 0.04084 0.87805 0.06900
H 	H 	0.37614 0.22986 0.97652 0.06400
N 	N 	0.26008 0.23394 0.98457 -0.03000
O 	O 	0.38051 0.97837 0.86941 -0.04800
O 	O 	0.43791 0.05748 0.82923 -0.08100
O 	O 	0.23407 0.22455 0.03785 -0.05500
O 	O 	0.25273 0.28811 0.95489 -0.07000
C 	C 	0.06108 0.91088 0.72836 -0.01000
C 	C 	0.11556 0.91121 0.69774 -0.06500
C 	C 	0.16329 0.94390 0.72501 0.10200
C 	C 	0.15444 0.97951 0.77966 0.01900
C 	C 	0.09852 0.98326 0.80685 -0.03500
C 	C 	0.05137 0.95051 0.77966 0.09500
N 	N 	0.99286 0.96625 0.79690 0.00700
H 	H 	0.02453 0.88448 0.70893 0.08600
H 	H 	0.19112 0.00394 0.80110 0.03700
N 	N 	0.22107 0.93799 0.69966 -0.01600
O 	O 	0.97268 0.02303 0.78260 -0.07600
O 	O 	0.95683 0.92023 0.81397 -0.05300
O 	O 	0.24975 0.98954 0.68156 -0.06200
O 	O 	0.24725 0.88228 0.70101 -0.07400
C 	C 	0.16816 0.97949 0.21152 0.01500
C 	C 	0.11232 0.98562 0.18598 -0.03900
C 	C 	0.06408 0.95424 0.21523 0.10600
C 	C 	0.07194 0.91806 0.26908 -0.02000
C 	C 	0.12689 0.91429 0.29630 -0.06100
C 	C 	0.17570 0.94421 0.26679 0.10100
N 	N 	0.23288 0.93829 0.29213 -0.01900
H 	H 	0.20549 0.00301 0.18934 0.04800
H 	H 	0.03435 0.89513 0.29141 0.06800
N 	N 	0.00653 0.96053 0.19134 -0.01900
O 	O 	0.25416 0.88115 0.30310 -0.06700
O 	O 	0.26516 0.98978 0.30039 -0.05800
O 	O 	0.98513 0.91471 0.15685 -0.04500
O 	O 	0.97212 0.00504 0.21353 -0.09100
