data_crystal

_cell_length_a 31.53772
_cell_length_b 24.48022
_cell_length_c 44.85939
_cell_angle_alpha 89.96953
_cell_angle_beta  89.77009
_cell_angle_gamma 90.70247

_symmetry_space_group_name_	'P 1'
_symmetry_space_group_name_H-M	'P 1'

loop_
_symmetry_equiv_pos_as_xyz
  x,y,z

loop_
_atom_site_label
_atom_site_type_symbol
_atom_site_fract_x
_atom_site_fract_y
_atom_site_fract_z
_atom_site_charge
Zn	Zn	0.49479 0.48284 0.97417 1.22200
C 	C 	0.54177 0.38981 0.99397 0.30600
O 	O 	0.53140 0.50746 0.94133 -0.47300
O 	O 	0.51704 0.36283 0.97548 -0.45200
O 	O 	0.56344 0.42805 0.93019 -0.49200
C 	C 	0.42742 0.40847 0.95983 0.31700
O 	O 	0.44745 0.43326 0.98159 -0.45100
O 	O 	0.44691 0.39979 0.93434 -0.50300
C 	C 	0.56589 0.48083 0.93475 0.30900
O 	O 	0.44482 0.54724 0.95893 -0.33100
Zn	Zn	0.50858 0.38967 0.93239 1.16600
O 	O 	0.53728 0.44287 0.99725 -0.43500
C 	C 	0.45707 0.57518 0.98192 0.27000
O 	O 	0.48594 0.55282 0.99820 -0.38300
Zn	Zn	0.25953 0.19681 0.01082 1.22000
C 	C 	0.25176 0.17723 0.94740 0.31700
O 	O 	0.27126 0.27550 0.01298 -0.47300
O 	O 	0.21145 0.18936 0.95079 -0.45200
O 	O 	0.24195 0.29906 0.96896 -0.49000
C 	C 	0.17335 0.16100 0.01559 0.31700
O 	O 	0.21237 0.14545 0.01086 -0.45900
O 	O 	0.16195 0.21075 0.00851 -0.50300
C 	C 	0.27223 0.30503 0.98863 0.30800
O 	O 	0.25645 0.19296 0.06335 -0.33300
Zn	Zn	0.19229 0.25301 0.97762 1.16700
O 	O 	0.27839 0.18394 0.96970 -0.44500
C 	C 	0.29333 0.17025 0.06134 0.28000
O 	O 	0.30790 0.16416 0.03452 -0.39300
C 	C 	0.52667 0.05367 0.64698 0.14000
C 	C 	0.56179 0.04057 0.66453 -0.10600
H 	H 	0.59005 0.02451 0.65407 0.07000
C 	C 	0.55984 0.04628 0.69558 0.05200
C 	C 	0.52299 0.06638 0.70899 -0.08700
C 	C 	0.48776 0.07954 0.69155 0.05200
C 	C 	0.48967 0.07337 0.66048 -0.10500
H 	H 	0.46231 0.08266 0.64693 0.07200
N 	N 	0.52783 0.04365 0.61543 -0.18000
C 	C 	0.51131 0.99564 0.60450 0.19500
C 	C 	0.51776 0.98121 0.57445 -0.08400
C 	C 	0.53982 0.01745 0.55547 0.06300
C 	C 	0.55650 0.06648 0.56705 -0.08100
C 	C 	0.54895 0.07977 0.59713 0.19800
C 	C 	0.50478 0.92987 0.56371 0.01000
C 	C 	0.51284 0.91515 0.53422 -0.05700
C 	C 	0.53076 0.95337 0.51397 0.01100
C 	C 	0.54656 0.00371 0.52514 -0.02400
C 	C 	0.57084 0.03917 0.50663 0.01300
C 	C 	0.58261 0.09973 0.54908 0.01000
C 	C 	0.59140 0.08490 0.51971 -0.05600
C 	C 	0.53508 0.94125 0.48310 0.01900
C 	C 	0.55938 0.97662 0.46457 -0.03600
C 	C 	0.57567 0.02672 0.47580 0.02300
O 	O 	0.56290 0.12674 0.60790 -0.20300
O 	O 	0.49013 0.96227 0.62238 -0.20600
H 	H 	0.59782 0.13591 0.55821 0.04300
H 	H 	0.61596 0.10731 0.50795 0.04600
H 	H 	0.48993 0.90024 0.57850 0.04200
H 	H 	0.50730 0.87315 0.52782 0.04500
C 	C 	0.59443 0.06444 0.45563 -0.06200
C 	C 	0.60253 0.04952 0.42618 0.01700
C 	C 	0.58842 0.99880 0.41528 -0.08600
C 	C 	0.56558 0.96315 0.43413 0.06500
C 	C 	0.51375 0.89614 0.47001 -0.06000
C 	C 	0.52143 0.88198 0.44039 0.01200
C 	C 	0.54754 0.91506 0.42233 -0.08300
C 	C 	0.59428 0.98467 0.38514 0.19600
N 	N 	0.57546 0.93841 0.37381 -0.18200
C 	C 	0.55368 0.90270 0.39197 0.19800
C 	C 	0.57454 0.93045 0.34209 0.14000
C 	C 	0.54415 0.95733 0.32492 -0.10900
C 	C 	0.54361 0.95078 0.29393 0.05600
C 	C 	0.57302 0.91658 0.28014 -0.09000
C 	C 	0.60334 0.88940 0.29719 0.05400
C 	C 	0.60425 0.89650 0.32821 -0.10600
O 	O 	0.61710 0.01673 0.36753 -0.20000
O 	O 	0.53747 0.85729 0.38076 -0.20400
H 	H 	0.52140 0.98375 0.33568 0.06900
H 	H 	0.62785 0.87592 0.34148 0.07200
H 	H 	0.60059 0.10630 0.46200 0.04700
H 	H 	0.61804 0.07874 0.41149 0.04200
H 	H 	0.48942 0.87374 0.48203 0.04600
H 	H 	0.50547 0.84639 0.43121 0.04300
H 	H 	0.57252 0.91138 0.25612 0.05500
H 	H 	0.52106 0.06963 0.73307 0.05300
Zn	Zn	0.76609 0.68816 0.96914 1.22000
C 	C 	0.75677 0.67132 0.03280 0.31900
O 	O 	0.82742 0.68498 0.96275 -0.47400
O 	O 	0.75687 0.61864 0.02696 -0.45000
O 	O 	0.84387 0.63750 0.00420 -0.48800
C 	C 	0.71938 0.58811 0.96316 0.31500
O 	O 	0.71677 0.64013 0.96968 -0.45500
O 	O 	0.75558 0.56269 0.96611 -0.49900
C 	C 	0.85250 0.67718 0.98546 0.30700
O 	O 	0.75638 0.69521 0.91716 -0.33000
Zn	Zn	0.79766 0.58571 0.99593 1.16900
O 	O 	0.76586 0.70712 0.01172 -0.44200
C 	C 	0.74879 0.74628 0.92249 0.28000
O 	O 	0.75068 0.76081 0.95021 -0.38900
Zn	Zn	0.27287 0.77068 0.00209 1.22200
C 	C 	0.27076 0.83050 0.05751 0.32100
O 	O 	0.26188 0.82420 0.97094 -0.47800
O 	O 	0.30974 0.84727 0.05158 -0.44900
O 	O 	0.27570 0.90052 0.99696 -0.48200
C 	C 	0.35944 0.75666 0.01223 0.31500
O 	O 	0.32176 0.74432 0.02261 -0.46200
O 	O 	0.36655 0.80531 0.00062 -0.49900
C 	C 	0.25048 0.87290 0.97920 0.30800
O 	O 	0.28671 0.70516 0.96508 -0.33200
Zn	Zn	0.32973 0.86829 0.00905 1.16800
O 	O 	0.24749 0.80744 0.03660 -0.44700
C 	C 	0.24946 0.68532 0.97152 0.28000
O 	O 	0.22998 0.70994 0.99308 -0.39300
C 	C 	0.01314 0.66085 0.35686 0.14100
C 	C 	0.98537 0.62886 0.33961 -0.10700
H 	H 	0.96336 0.60081 0.35045 0.07000
C 	C 	0.98685 0.63206 0.30843 0.05200
C 	C 	0.01553 0.66815 0.29454 -0.08700
C 	C 	0.04311 0.70060 0.31165 0.05300
C 	C 	0.04199 0.69679 0.34287 -0.10500
H 	H 	0.06367 0.72112 0.35622 0.07100
N 	N 	0.01320 0.65499 0.38877 -0.18100
C 	C 	0.03165 0.61008 0.40132 0.19800
C 	C 	0.02816 0.60052 0.43219 -0.08100
C 	C 	0.00799 0.63917 0.45033 0.06200
C 	C 	0.98942 0.68512 0.43715 -0.08100
C 	C 	0.99274 0.69268 0.40608 0.19700
C 	C 	0.04241 0.55162 0.44477 0.01000
C 	C 	0.03739 0.54168 0.47520 -0.05800
C 	C 	0.02170 0.58275 0.49436 0.01500
C 	C 	0.00511 0.63090 0.48157 -0.02700
C 	C 	0.98381 0.66952 0.49954 0.01400
C 	C 	0.96598 0.72121 0.45486 0.01000
C 	C 	0.96178 0.71236 0.48546 -0.05700
C 	C 	0.02015 0.57548 0.52585 0.01700
C 	C 	0.99882 0.61415 0.54377 -0.03000
C 	C 	0.98297 0.66270 0.53105 0.01700
O 	O 	0.97559 0.73577 0.39351 -0.20400
O 	O 	0.05248 0.57549 0.38434 -0.20500
H 	H 	0.94959 0.75518 0.44482 0.04300
H 	H 	0.93954 0.73707 0.49768 0.04600
H 	H 	0.05570 0.52000 0.43080 0.04300
H 	H 	0.04351 0.50102 0.48330 0.04600
C 	C 	0.96849 0.70442 0.55024 -0.05800
C 	C 	0.96349 0.69468 0.58071 0.01000
C 	C 	0.97596 0.64479 0.59315 -0.08100
C 	C 	0.99497 0.60532 0.57490 0.06100
C 	C 	0.04103 0.53174 0.54001 -0.05800
C 	C 	0.03489 0.52163 0.57034 0.01100
C 	C 	0.01126 0.55778 0.58786 -0.08000
C 	C 	0.97144 0.63461 0.62393 0.19700
N 	N 	0.98583 0.58681 0.63601 -0.18200
C 	C 	0.00531 0.54844 0.61858 0.19800
C 	C 	0.98164 0.57751 0.66756 0.13800
C 	C 	0.01711 0.58350 0.68616 -0.10500
C 	C 	0.01343 0.57251 0.71672 0.05400
C 	C 	0.97417 0.55674 0.72878 -0.09000
C 	C 	0.93864 0.55102 0.71038 0.05400
C 	C 	0.94236 0.56120 0.67972 -0.10600
O 	O 	0.95348 0.67127 0.64124 -0.20500
O 	O 	0.01834 0.50248 0.63062 -0.20400
H 	H 	0.04743 0.59596 0.67676 0.07100
H 	H 	0.91505 0.55622 0.66534 0.07100
H 	H 	0.96323 0.74528 0.54207 0.04600
H 	H 	0.95116 0.72684 0.59475 0.04300
H 	H 	0.06383 0.50728 0.52818 0.04600
H 	H 	0.05012 0.48676 0.58039 0.04300
H 	H 	0.97131 0.54855 0.75248 0.05500
H 	H 	0.01723 0.66985 0.27040 0.05400
Zn	Zn	0.78629 0.28706 0.01798 1.22200
C 	C 	0.76795 0.31650 0.95710 0.31700
O 	O 	0.73019 0.31975 0.02187 -0.44900
O 	O 	0.73263 0.28761 0.95933 -0.45400
O 	O 	0.69863 0.23727 0.01569 -0.51100
C 	C 	0.81578 0.18606 0.99211 0.31000
O 	O 	0.81242 0.21503 0.01663 -0.46800
O 	O 	0.78719 0.19015 0.97116 -0.49500
C 	C 	0.69566 0.28958 0.02122 0.32100
O 	O 	0.79020 0.28068 0.07042 -0.32700
Zn	Zn	0.73024 0.21311 0.98088 1.17000
O 	O 	0.79836 0.31047 0.97685 -0.44600
C 	C 	0.81654 0.32169 0.06843 0.27900
O 	O 	0.82396 0.33935 0.04165 -0.39600
Zn	Zn	0.99859 0.95667 0.00474 1.22000
C 	C 	0.07499 0.90163 0.98924 0.30300
O 	O 	0.97431 0.88467 0.99521 -0.44300
O 	O 	0.05777 0.86283 0.00566 -0.45000
O 	O 	0.97966 0.85411 0.04297 -0.50000
C 	C 	0.05798 0.99353 0.04760 0.30800
O 	O 	0.01841 0.99709 0.03938 -0.47700
O 	O 	0.07325 0.94538 0.05392 -0.48900
C 	C 	0.96272 0.85041 0.01631 0.31500
O 	O 	0.93048 0.98446 0.01828 -0.33400
Zn	Zn	0.03838 0.87934 0.04862 1.16800
O 	O 	0.05437 0.94746 0.98513 -0.43200
C 	C 	0.93154 0.01407 0.99435 0.27200
O 	O 	0.96606 0.01063 0.97864 -0.38400
C 	C 	0.84843 0.09480 0.96759 -0.00900
H 	H 	0.82652 0.08995 0.94843 0.02800
C 	C 	0.85365 0.05327 0.99332 -0.02100
H 	H 	0.83654 0.01352 0.99530 0.03400
C 	C 	0.89736 0.10165 0.96538 -0.01600
H 	H 	0.91623 0.10180 0.94443 0.03800
C 	C 	0.90204 0.06074 0.99112 -0.05400
C 	C 	0.84732 0.14124 0.99068 -0.08000
C 	C 	0.89569 0.14889 0.98844 -0.00500
H 	H 	0.91270 0.18872 0.98651 0.03000
C 	C 	0.90085 0.10728 0.01413 -0.01300
H 	H 	0.92272 0.11211 0.03331 0.03900
C 	C 	0.85221 0.10016 0.01631 -0.00600
H 	H 	0.83346 0.09976 0.03732 0.03200
C 	C 	0.78834 0.44347 0.79690 -0.04300
C 	C 	0.81737 0.48736 0.79543 0.00700
C 	C 	0.83093 0.51266 0.82190 -0.04300
H 	H 	0.85312 0.54677 0.82107 0.03900
C 	C 	0.81816 0.49168 0.84952 -0.03500
C 	C 	0.79199 0.44502 0.85096 -0.00400
C 	C 	0.77583 0.42224 0.82457 -0.03600
H 	H 	0.75518 0.38657 0.82546 0.03500
C 	C 	0.78603 0.41612 0.87956 0.02800
C 	C 	0.74527 0.40865 0.89161 -0.07100
C 	C 	0.73946 0.37764 0.91754 0.01700
C 	C 	0.77440 0.35344 0.93148 -0.10200
C 	C 	0.81531 0.36248 0.91991 0.01600
C 	C 	0.82107 0.39359 0.89406 -0.07200
C 	C 	0.83839 0.50143 0.76688 0.00800
C 	C 	0.84099 0.55613 0.75752 -0.04300
C 	C 	0.87081 0.57190 0.73591 -0.03200
C 	C 	0.89798 0.53304 0.72345 -0.00900
C 	C 	0.89153 0.47754 0.73000 -0.03200
C 	C 	0.86199 0.46177 0.75175 -0.04300
H 	H 	0.87500 0.61479 0.73055 0.04100
H 	H 	0.91185 0.44711 0.72006 0.04000
H 	H 	0.85971 0.41925 0.75835 0.04000
H 	H 	0.82199 0.58690 0.76840 0.04100
H 	H 	0.71809 0.42618 0.88065 0.04300
H 	H 	0.70781 0.37199 0.92662 0.02700
H 	H 	0.85268 0.39911 0.88490 0.04400
H 	H 	0.84253 0.34414 0.93042 0.03200
H 	H 	0.83020 0.51013 0.86979 0.03500
H 	H 	0.77708 0.42422 0.77663 0.03900
C 	C 	0.92135 0.44250 0.17724 -0.03700
C 	C 	0.87773 0.43463 0.17267 -0.00200
C 	C 	0.84861 0.45553 0.19335 -0.03700
H 	H 	0.81486 0.44965 0.18999 0.03900
C 	C 	0.86301 0.48479 0.21816 -0.04200
C 	C 	0.90664 0.49335 0.22248 0.00700
C 	C 	0.93575 0.47177 0.20202 -0.04200
H 	H 	0.96948 0.47840 0.20509 0.03900
C 	C 	0.92184 0.52716 0.24754 0.00900
C 	C 	0.91200 0.58286 0.24873 -0.04400
C 	C 	0.93120 0.61666 0.26998 -0.03300
C 	C 	0.96050 0.59505 0.29014 -0.00900
C 	C 	0.96846 0.53877 0.29006 -0.03200
C 	C 	0.94918 0.50494 0.26884 -0.04300
C 	C 	0.86254 0.40539 0.14598 0.02600
C 	C 	0.87023 0.42721 0.11752 -0.06700
C 	C 	0.85568 0.39967 0.09218 0.01000
C 	C 	0.83317 0.35002 0.09509 -0.08100
C 	C 	0.82586 0.32802 0.12364 0.01100
C 	C 	0.84044 0.35563 0.14893 -0.06500
H 	H 	0.86161 0.41718 0.07036 0.02900
H 	H 	0.80885 0.28960 0.12626 0.04000
H 	H 	0.83463 0.33831 0.17083 0.04700
H 	H 	0.88725 0.46568 0.11504 0.04100
H 	H 	0.89071 0.60032 0.23250 0.03900
H 	H 	0.92460 0.65999 0.27004 0.03800
H 	H 	0.95654 0.46184 0.26834 0.04200
H 	H 	0.99090 0.52167 0.30561 0.04300
H 	H 	0.84031 0.50121 0.23387 0.04000
H 	H 	0.94406 0.42625 0.16148 0.03700
C 	C 	0.17300 0.84560 0.99464 -0.01500
H 	H 	0.18051 0.80622 0.00550 0.03100
C 	C 	0.14260 0.85060 0.96799 -0.00800
H 	H 	0.12564 0.81602 0.95708 0.03400
C 	C 	0.15184 0.89446 0.01002 -0.01200
H 	H 	0.14284 0.89579 0.03394 0.01900
C 	C 	0.12154 0.89941 0.98337 -0.07500
C 	C 	0.20423 0.88538 0.97921 -0.07600
C 	C 	0.18327 0.93430 0.99450 -0.00700
H 	H 	0.20082 0.96830 0.00544 0.03600
C 	C 	0.15237 0.93947 0.96775 -0.01000
H 	H 	0.14322 0.97783 0.95641 0.03500
C 	C 	0.17427 0.89029 0.95236 -0.01100
H 	H 	0.18399 0.88844 0.92857 0.03300
C 	C 	0.16799 0.61420 0.81523 -0.04200
C 	C 	0.13003 0.58404 0.81299 0.00700
C 	C 	0.11267 0.55888 0.83847 -0.04300
H 	H 	0.08336 0.53550 0.83696 0.03700
C 	C 	0.13227 0.56549 0.86615 -0.03800
C 	C 	0.16936 0.59737 0.86858 -0.00200
C 	C 	0.18757 0.62086 0.84291 -0.03600
H 	H 	0.21619 0.64559 0.84457 0.03900
C 	C 	0.18708 0.61013 0.89817 0.02500
C 	C 	0.22895 0.59610 0.90492 -0.06600
C 	C 	0.24835 0.61684 0.93057 0.01200
C 	C 	0.22608 0.65202 0.94958 -0.08200
C 	C 	0.18304 0.66210 0.94414 0.01200
C 	C 	0.16368 0.64139 0.91848 -0.06600
C 	C 	0.10674 0.58227 0.78457 0.00900
C 	C 	0.09787 0.53197 0.77083 -0.04400
C 	C 	0.06992 0.52932 0.74676 -0.03100
C 	C 	0.05061 0.57693 0.73629 -0.01000
C 	C 	0.06186 0.62766 0.74862 -0.03200
C 	C 	0.08979 0.63035 0.77270 -0.04300
H 	H 	0.06160 0.48998 0.73723 0.04100
H 	H 	0.04722 0.66465 0.74059 0.04100
H 	H 	0.09674 0.66945 0.78300 0.04100
H 	H 	0.11133 0.49473 0.77953 0.03900
H 	H 	0.24699 0.57100 0.88969 0.04500
H 	H 	0.28130 0.60774 0.93489 0.03400
H 	H 	0.13115 0.65189 0.91364 0.04500
H 	H 	0.16529 0.68867 0.95878 0.03500
H 	H 	0.11811 0.54697 0.88580 0.03400
H 	H 	0.18176 0.63349 0.79566 0.04000
C 	C 	0.19862 0.76385 0.18601 -0.03700
C 	C 	0.20247 0.81788 0.17590 -0.00400
C 	C 	0.18644 0.86060 0.19328 -0.03800
H 	H 	0.18952 0.90250 0.18570 0.03600
C 	C 	0.16547 0.84915 0.22017 -0.04300
C 	C 	0.15999 0.79480 0.22967 0.00700
C 	C 	0.17735 0.75231 0.21269 -0.04300
H 	H 	0.17311 0.71021 0.21966 0.03900
C 	C 	0.13247 0.78181 0.25555 0.00800
C 	C 	0.08996 0.79819 0.25564 -0.04300
C 	C 	0.06132 0.77569 0.27622 -0.03300
C 	C 	0.07477 0.73599 0.29658 -0.00800
C 	C 	0.11802 0.72358 0.29836 -0.03200
C 	C 	0.14682 0.74665 0.27802 -0.04200
C 	C 	0.22073 0.82913 0.14623 0.02800
C 	C 	0.19390 0.83892 0.12199 -0.07100
C 	C 	0.21046 0.84132 0.09306 0.01800
C 	C 	0.25405 0.83416 0.08815 -0.09900
C 	C 	0.28114 0.82704 0.11259 0.01900
C 	C 	0.26450 0.82434 0.14150 -0.07000
H 	H 	0.18933 0.84774 0.07444 0.02400
H 	H 	0.31485 0.82164 0.10912 0.03200
H 	H 	0.28545 0.81694 0.16012 0.04700
H 	H 	0.16006 0.84289 0.12548 0.03500
H 	H 	0.07859 0.82587 0.23869 0.03700
H 	H 	0.02813 0.78641 0.27509 0.03800
H 	H 	0.17980 0.73487 0.27868 0.04100
H 	H 	0.12888 0.69361 0.31429 0.04200
H 	H 	0.15256 0.88231 0.23321 0.03900
H 	H 	0.21099 0.73066 0.17273 0.03800
C 	C 	0.90434 0.77293 0.03090 -0.00900
H 	H 	0.90115 0.78177 0.05508 0.03100
C 	C 	0.91872 0.71794 0.01726 -0.01300
H 	H 	0.92715 0.68082 0.03005 0.02900
C 	C 	0.86811 0.77599 0.00778 -0.01400
H 	H 	0.83473 0.78682 0.01274 0.03700
C 	C 	0.88286 0.72165 0.99423 -0.07300
C 	C 	0.93372 0.80359 0.00896 -0.07400
C 	C 	0.89781 0.80717 0.98596 -0.00500
H 	H 	0.88927 0.84425 0.97316 0.03900
C 	C 	0.91223 0.75237 0.97233 -0.00900
H 	H 	0.91533 0.74357 0.94814 0.03600
C 	C 	0.94852 0.74929 0.99542 -0.01400
H 	H 	0.98193 0.73871 0.99040 0.02900
C 	C 	0.65316 0.96106 0.81133 -0.04400
C 	C 	0.67154 0.95888 0.78282 0.00800
C 	C 	0.70844 0.92850 0.77826 -0.04300
H 	H 	0.72309 0.92702 0.75639 0.04000
C 	C 	0.72544 0.89811 0.80163 -0.03700
C 	C 	0.70559 0.89780 0.82970 -0.00200
C 	C 	0.67010 0.93061 0.83466 -0.03800
H 	H 	0.65465 0.93080 0.85628 0.03400
C 	C 	0.71927 0.85923 0.85288 0.02500
C 	C 	0.71651 0.80279 0.84771 -0.06400
C 	C 	0.72641 0.76598 0.87035 0.01100
C 	C 	0.73909 0.78524 0.89846 -0.08000
C 	C 	0.74242 0.84178 0.90350 0.01100
C 	C 	0.73258 0.87859 0.88079 -0.06500
C 	C 	0.64934 0.98293 0.75723 0.00200
C 	C 	0.64168 0.03925 0.75640 -0.03800
C 	C 	0.61440 0.06066 0.73499 -0.03600
C 	C 	0.59449 0.02584 0.71434 -0.00300
C 	C 	0.60424 0.97008 0.71405 -0.03800
C 	C 	0.63158 0.94873 0.73539 -0.03900
H 	H 	0.60749 0.10390 0.73514 0.03800
H 	H 	0.58914 0.94289 0.69815 0.04300
H 	H 	0.63744 0.90521 0.73579 0.04000
H 	H 	0.65565 0.06607 0.77297 0.03600
H 	H 	0.70592 0.78748 0.82630 0.04600
H 	H 	0.72362 0.72252 0.86615 0.03800
H 	H 	0.73493 0.92211 0.88495 0.04100
H 	H 	0.75263 0.85723 0.92497 0.03700
H 	H 	0.75320 0.87345 0.79770 0.03900
H 	H 	0.62471 0.98449 0.81507 0.03500
C 	C 	0.70813 0.80034 0.15512 -0.03600
C 	C 	0.72364 0.74719 0.15192 -0.00300
C 	C 	0.72790 0.71379 0.17717 -0.03600
H 	H 	0.74019 0.67285 0.17497 0.03700
C 	C 	0.71561 0.73291 0.20526 -0.04200
C 	C 	0.69911 0.78562 0.20830 0.00700
C 	C 	0.69598 0.81947 0.18316 -0.04200
H 	H 	0.68298 0.86007 0.18524 0.03900
C 	C 	0.68154 0.80373 0.23712 0.00900
C 	C 	0.69690 0.85191 0.25042 -0.04300
C 	C 	0.67343 0.87724 0.27291 -0.03200
C 	C 	0.63451 0.85456 0.28219 -0.00900
C 	C 	0.62168 0.80330 0.27127 -0.03100
C 	C 	0.64506 0.77800 0.24876 -0.04300
C 	C 	0.73377 0.72589 0.12198 0.02900
C 	C 	0.76415 0.75268 0.10409 -0.07100
C 	C 	0.77150 0.73502 0.07493 0.02000
C 	C 	0.74869 0.69020 0.06342 -0.09900
C 	C 	0.71884 0.66281 0.08149 0.01900
C 	C 	0.71132 0.68068 0.11061 -0.07000
H 	H 	0.79518 0.75585 0.06139 0.03100
H 	H 	0.70106 0.62817 0.07285 0.03200
H 	H 	0.68759 0.65997 0.12417 0.04700
H 	H 	0.78183 0.78739 0.11273 0.04500
H 	H 	0.72558 0.87145 0.24207 0.04000
H 	H 	0.68393 0.91644 0.28154 0.04100
H 	H 	0.63330 0.74031 0.23900 0.04100
H 	H 	0.59197 0.78506 0.27865 0.04100
H 	H 	0.71823 0.70651 0.22454 0.04000
H 	H 	0.70462 0.82637 0.13577 0.03700
C 	C 	0.13653 0.03595 0.04150 -0.00200
H 	H 	0.15470 0.99978 0.04874 0.03300
C 	C 	0.13894 0.09286 0.05647 -0.01200
H 	H 	0.15939 0.10401 0.07567 0.03600
C 	C 	0.13877 0.06323 0.01044 -0.00800
H 	H 	0.15926 0.05103 0.99150 0.03800
C 	C 	0.14092 0.11960 0.02543 -0.07400
C 	C 	0.08791 0.03993 0.04072 -0.07400
C 	C 	0.08995 0.06692 0.00970 -0.01400
H 	H 	0.06969 0.05629 0.99033 0.03400
C 	C 	0.09233 0.12387 0.02463 -0.00900
H 	H 	0.07432 0.16033 0.01760 0.03000
C 	C 	0.08981 0.09636 0.05581 -0.01100
H 	H 	0.06943 0.10961 0.07464 0.03200
C 	C 	0.30906 0.16413 0.80761 -0.03700
C 	C 	0.31470 0.12527 0.83022 -0.00400
C 	C 	0.33916 0.07891 0.82460 -0.03700
H 	H 	0.34337 0.04846 0.84184 0.03600
C 	C 	0.35968 0.07289 0.79717 -0.04300
C 	C 	0.35585 0.11315 0.77506 0.00700
C 	C 	0.32954 0.15808 0.78011 -0.04300
H 	H 	0.32607 0.18914 0.76311 0.03900
C 	C 	0.38315 0.11133 0.74827 0.00800
C 	C 	0.41440 0.15186 0.74380 -0.04300
C 	C 	0.44661 0.14398 0.72281 -0.03300
C 	C 	0.44795 0.09541 0.70627 -0.00800
C 	C 	0.41446 0.05738 0.70868 -0.03200
C 	C 	0.38213 0.06531 0.72961 -0.04200
C 	C 	0.29846 0.13565 0.86052 0.02800
C 	C 	0.32687 0.14616 0.88384 -0.07200
C 	C 	0.31168 0.15812 0.91236 0.01700
C 	C 	0.26779 0.15988 0.91788 -0.09800
C 	C 	0.23937 0.14800 0.89459 0.01700
C 	C 	0.25468 0.13614 0.86604 -0.07100
H 	H 	0.33408 0.16694 0.93001 0.03100
H 	H 	0.20546 0.14846 0.89850 0.03000
H 	H 	0.23253 0.12764 0.84818 0.04600
H 	H 	0.36075 0.14582 0.87976 0.04100
H 	H 	0.41519 0.18789 0.75781 0.03700
H 	H 	0.47201 0.17397 0.72079 0.03700
H 	H 	0.35762 0.03433 0.73244 0.04200
H 	H 	0.41492 0.02005 0.69572 0.04400
H 	H 	0.37991 0.03805 0.79351 0.03900
H 	H 	0.29002 0.19993 0.81170 0.03600
C 	C 	0.39532 0.12405 0.18633 -0.03800
C 	C 	0.38056 0.08815 0.16421 -0.00000
C 	C 	0.38835 0.03204 0.16666 -0.04000
H 	H 	0.37675 0.00399 0.14980 0.03800
C 	C 	0.41183 0.01217 0.19057 -0.03600
C 	C 	0.42766 0.04825 0.21226 0.00300
C 	C 	0.41878 0.10417 0.21028 -0.03900
H 	H 	0.43071 0.13228 0.22700 0.04000
C 	C 	0.45610 0.02807 0.23566 0.01600
C 	C 	0.49869 0.04528 0.23617 -0.04800
C 	C 	0.52693 0.02163 0.25614 -0.02400
C 	C 	0.51283 0.98055 0.27573 -0.01600
C 	C 	0.46989 0.96491 0.27610 -0.02800
C 	C 	0.44161 0.98859 0.25612 -0.05000
C 	C 	0.35836 0.10951 0.13795 0.02500
C 	C 	0.37695 0.10557 0.10959 -0.06600
C 	C 	0.35588 0.12560 0.08461 0.01000
C 	C 	0.31592 0.14975 0.08775 -0.08100
C 	C 	0.29746 0.15388 0.11624 0.01100
C 	C 	0.31861 0.13385 0.14119 -0.06500
H 	H 	0.37063 0.12229 0.06285 0.03400
H 	H 	0.26669 0.17240 0.11906 0.03900
H 	H 	0.30402 0.13699 0.16302 0.04700
H 	H 	0.40778 0.08708 0.10694 0.04200
H 	H 	0.51015 0.07579 0.22049 0.04200
H 	H 	0.56000 0.03415 0.25586 0.03900
H 	H 	0.40869 0.97538 0.25604 0.04200
H 	H 	0.45873 0.93334 0.29125 0.04000
H 	H 	0.41859 0.96895 0.19189 0.03500
H 	H 	0.38932 0.16742 0.18466 0.04000
C 	C 	0.38068 0.33070 0.98565 -0.00900
H 	H 	0.40724 0.30818 0.99594 0.03300
C 	C 	0.34865 0.30653 0.96303 -0.01500
H 	H 	0.34822 0.26374 0.95485 0.03400
C 	C 	0.34404 0.35815 0.00280 -0.00800
H 	H 	0.33984 0.35807 0.02739 0.03900
C 	C 	0.31241 0.33428 0.98013 -0.07300
C 	C 	0.38531 0.38195 0.96600 -0.07500
C 	C 	0.34905 0.40976 0.98308 -0.01000
H 	H 	0.34955 0.45257 0.99126 0.03600
C 	C 	0.31688 0.38554 0.96045 -0.01200
H 	H 	0.29026 0.40799 0.95019 0.03100
C 	C 	0.35375 0.35815 0.94325 -0.00900
H 	H 	0.35805 0.35823 0.91868 0.03000
C 	C 	0.38561 0.62721 0.98998 -0.01200
H 	H 	0.36428 0.59312 0.98306 0.04100
C 	C 	0.38907 0.68343 0.97452 -0.00600
H 	H 	0.37072 0.69644 0.95474 0.04100
C 	C 	0.38516 0.65514 0.02082 -0.00600
H 	H 	0.36318 0.64468 0.03942 0.03900
C 	C 	0.38874 0.71109 0.00526 -0.07800
C 	C 	0.43424 0.62514 0.99140 -0.05500
C 	C 	0.43415 0.65263 0.02220 -0.01700
H 	H 	0.45289 0.63940 0.04176 0.04100
C 	C 	0.43740 0.70941 0.00678 -0.00700
H 	H 	0.45842 0.74377 0.01371 0.02800
C 	C 	0.43800 0.68099 0.97584 -0.01700
H 	H 	0.46002 0.69110 0.95722 0.03400
C 	C 	0.62716 0.30368 0.98894 -0.00900
H 	H 	0.63497 0.27334 0.97142 0.00000
C 	C 	0.62162 0.36543 0.98372 -0.02300
H 	H 	0.62495 0.38576 0.96174 0.03600
C 	C 	0.58709 0.30223 0.00890 -0.01800
H 	H 	0.56127 0.27107 0.00778 0.02900
C 	C 	0.58191 0.36390 0.00371 -0.07200
C 	C 	0.65420 0.31666 0.01652 -0.08500
C 	C 	0.61465 0.31488 0.03666 -0.00700
H 	H 	0.61225 0.29374 0.05851 0.03100
C 	C 	0.60877 0.37707 0.03137 -0.01200
H 	H 	0.60081 0.40766 0.04871 0.03800
C 	C 	0.64899 0.37830 0.01138 0.00000
H 	H 	0.67476 0.40951 0.01255 0.03400
C 	C 	0.65137 0.49353 0.92695 -0.01000
H 	H 	0.65677 0.46142 0.90996 0.02800
C 	C 	0.67150 0.49566 0.95846 -0.01000
H 	H 	0.69440 0.46572 0.96733 0.03100
C 	C 	0.66074 0.55554 0.92295 -0.01200
H 	H 	0.67475 0.57493 0.90276 0.03500
C 	C 	0.68016 0.55717 0.95436 -0.07300
C 	C 	0.60806 0.50729 0.94077 -0.07600
C 	C 	0.61688 0.56878 0.93665 -0.00800
H 	H 	0.59417 0.59884 0.92765 0.03800
C 	C 	0.63675 0.57069 0.96807 -0.00600
H 	H 	0.63077 0.60256 0.98514 0.04100
C 	C 	0.62765 0.50901 0.97213 -0.01700
H 	H 	0.61408 0.49020 0.99259 0.04100
