data_crystal

_cell_length_a 12.93597
_cell_length_b 16.24478
_cell_length_c 40.26403
_cell_angle_alpha 90.43741
_cell_angle_beta  90.43381
_cell_angle_gamma 119.34000

_symmetry_space_group_name_	'P 1'
_symmetry_space_group_name_H-M	'P 1'

loop_
_symmetry_equiv_pos_as_xyz
  x,y,z

loop_
_atom_site_label
_atom_site_type_symbol
_atom_site_fract_x
_atom_site_fract_y
_atom_site_fract_z
_atom_site_charge
C 	C 	0.17645 0.03581 0.74187 0.31300
C 	C 	0.16755 0.03514 0.83037 0.29200
Ni	Ni	0.99390 0.04021 0.78457 1.11000
Ni	Ni	0.04101 0.86602 0.78245 1.13700
O 	O 	0.15232 0.08314 0.76399 -0.37100
O 	O 	0.16827 0.96413 0.81347 -0.36200
O 	O 	0.07934 0.05475 0.82790 -0.35700
O 	O 	0.12087 0.94254 0.74168 -0.37000
C 	C 	0.34257 0.64310 0.51051 0.33000
C 	C 	0.30576 0.47837 0.39971 0.28800
C 	C 	0.23241 0.80426 0.39589 0.30900
C 	C 	0.04927 0.55212 0.43373 0.37500
Ni	Ni	0.25053 0.63284 0.38790 1.12300
Ni	Ni	0.26264 0.72712 0.45851 1.12100
O 	O 	0.24918 0.64315 0.49688 -0.38600
O 	O 	0.17789 0.71660 0.38550 -0.37700
O 	O 	0.40507 0.73987 0.37018 -0.36700
O 	O 	0.08995 0.64032 0.44498 -0.37900
O 	O 	0.09423 0.53438 0.40664 -0.38300
O 	O 	0.36726 0.50764 0.42792 -0.36100
O 	O 	0.30817 0.53980 0.37819 -0.37000
O 	O 	0.28306 0.82652 0.42542 -0.38300
O 	O 	0.31406 0.65643 0.43229 -0.71000
H 	H 	0.26249 0.59397 0.44179 0.14500
C 	C 	0.13529 0.70236 0.22657 0.28100
C 	C 	0.26697 0.61701 0.09997 0.34200
C 	C 	0.21677 0.50329 0.20640 0.30100
C 	C 	0.15925 0.79238 0.13199 0.30300
Ni	Ni	0.13796 0.61428 0.16179 1.11500
Ni	Ni	0.39131 0.79671 0.13853 1.12200
Ni	Ni	0.36680 0.71216 0.21222 1.12000
O 	O 	0.06792 0.65561 0.20072 -0.35100
O 	O 	0.21587 0.68078 0.23797 -0.36200
O 	O 	0.50392 0.74523 0.13753 -0.39900
O 	O 	0.19937 0.56243 0.12383 -0.37500
O 	O 	0.30136 0.70777 0.10020 -0.38700
O 	O 	0.12616 0.50994 0.19437 -0.35400
O 	O 	0.32492 0.57505 0.20578 -0.38100
O 	O 	0.11050 0.69954 0.12821 -0.36000
O 	O 	0.27674 0.84774 0.13242 -0.37000
O 	O 	0.52891 0.74555 0.19444 -0.39500
O 	O 	0.29128 0.71539 0.17229 -0.71000
H 	H 	0.26784 0.76125 0.17979 0.14200
C 	C 	0.12743 0.94712 0.24665 0.27700
C 	C 	0.18961 0.23183 0.34999 0.29600
C 	C 	0.15761 0.96518 0.33520 0.29800
C 	C 	0.15504 0.26856 0.25873 0.28100
Ni	Ni	0.21562 0.12912 0.29019 1.11300
O 	O 	0.22002 0.02938 0.25634 -0.34400
O 	O 	0.25491 0.23898 0.32405 -0.35400
O 	O 	0.07615 0.16925 0.34992 -0.35000
O 	O 	0.22871 0.05552 0.33050 -0.35700
O 	O 	0.07946 0.91305 0.31232 -0.36100
O 	O 	0.21519 0.22214 0.25435 -0.35400
C 	C 	0.17912 0.34755 0.23766 -0.02100
C 	C 	0.19624 0.41722 0.22246 -0.03700
C 	C 	0.14298 0.86572 0.24056 -0.02300
C 	C 	0.14414 0.79243 0.23532 -0.04000
C 	C 	0.26679 0.38452 0.38751 -0.03100
C 	C 	0.23172 0.31129 0.37231 -0.03200
C 	C 	0.21428 0.87119 0.37760 -0.03600
C 	C 	0.19102 0.91824 0.35936 -0.02400
H 	H 	0.58411 0.94420 0.57949 0.04300
H 	H 	0.66496 0.97103 0.52284 0.04300
C 	C 	0.95385 0.48076 0.51375 0.04200
C 	C 	0.98898 0.41254 0.51942 -0.10400
C 	C 	0.03795 0.40932 0.55019 0.03800
C 	C 	0.91506 0.49319 0.48026 0.01200
C 	C 	0.96344 0.47678 0.45167 -0.21800
H 	H 	0.97974 0.36285 0.50001 0.04700
H 	H 	0.06738 0.35810 0.55407 0.03400
H 	H 	0.87449 0.53785 0.47814 0.02900
H 	H 	0.94511 0.40551 0.44578 0.08500
C 	C 	0.43762 0.63506 0.56276 0.01100
C 	C 	0.35549 0.65156 0.54519 -0.16100
H 	H 	0.29041 0.44911 0.54929 0.04700
H 	H 	0.46447 0.66472 0.58763 0.03000
C 	C 	0.28210 0.08814 0.72290 -0.03400
C 	C 	0.37301 0.14383 0.70973 -0.02800
C 	C 	0.17612 0.46267 0.02506 0.01000
C 	C 	0.17360 0.44630 0.95559 0.02800
C 	C 	0.13776 0.50622 0.97073 -0.03300
C 	C 	0.13837 0.51388 0.00526 -0.02800
C 	C 	0.19882 0.48506 0.06079 0.01600
C 	C 	0.28134 0.57700 0.07087 -0.16500
H 	H 	0.11395 0.54965 0.95574 0.05700
H 	H 	0.11529 0.56327 0.01663 0.05200
H 	H 	0.27941 0.46604 0.91046 0.03800
H 	H 	0.14248 0.43327 0.07878 0.04700
H 	H 	0.34394 0.62387 0.05271 0.08600
C 	C 	0.28868 0.96714 0.04449 -0.04100
C 	C 	0.19890 0.92754 0.06792 -0.03300
C 	C 	0.21314 0.97176 0.09901 0.02200
C 	C 	0.12292 0.92569 0.12484 -0.00400
C 	C 	0.08533 0.83240 0.13420 -0.09800
H 	H 	0.27812 0.93119 0.02089 0.04700
H 	H 	0.11921 0.86155 0.06219 0.05400
H 	H 	0.07333 0.95973 0.13318 0.04600
H 	H 	0.99642 0.79029 0.14375 0.03700
H 	H 	0.61197 0.52795 0.14363 0.04500
C 	C 	0.27557 0.10243 0.84654 -0.02200
C 	C 	0.37005 0.15875 0.85846 -0.03500
O 	O 	0.96635 0.77676 0.82109 -0.37700
O 	O 	0.92329 0.02082 0.73820 -0.38200
O 	O 	0.94046 0.75067 0.75267 -0.37800
O 	O 	0.93013 0.90858 0.78967 -0.72900
H 	H 	0.92590 0.90426 0.81406 0.15300
Ni	Ni	0.45327 0.65061 0.44194 1.11300
O 	O 	0.41411 0.62291 0.49263 -0.37100
C 	C 	0.38276 0.47081 0.54512 -0.03100
H 	H 	0.30601 0.67855 0.55882 0.08200
C 	C 	0.20623 0.39924 0.01009 -0.03500
C 	C 	0.19255 0.45012 0.91931 0.00400
C 	C 	0.39194 0.05292 0.05154 0.01200
C 	C 	0.31592 0.05756 0.10604 -0.03000
H 	H 	0.32738 0.09219 0.12996 0.04900
H 	H 	0.36151 0.08068 0.98705 0.09200
C 	C 	0.54335 0.96489 0.56006 -0.03600
O 	O 	0.42513 0.82122 0.47698 -0.39200
H 	H 	0.36191 0.89719 0.61222 0.03200
H 	H 	0.62851 0.41306 0.10718 0.03900
H 	H 	0.65792 0.66630 0.17950 0.08400
C 	C 	0.77433 0.41111 0.99227 0.32700
C 	C 	0.48427 0.22523 0.87176 0.30500
C 	C 	0.54017 0.17214 0.97220 0.35100
Ni	Ni	0.59640 0.34224 0.93238 1.11300
Ni	Ni	0.74640 0.31766 0.87295 1.12400
Ni	Ni	0.78897 0.27148 0.94681 1.11900
O 	O 	0.66494 0.38447 0.98083 -0.38200
O 	O 	0.79631 0.21952 0.87323 -0.38900
O 	O 	0.49682 0.29880 0.88869 -0.36400
O 	O 	0.57598 0.21330 0.86594 -0.37100
O 	O 	0.50612 0.20238 0.94660 -0.39000
O 	O 	0.65367 0.20836 0.97972 -0.39200
O 	O 	0.67976 0.47715 0.91174 -0.36400
O 	O 	0.70096 0.41742 0.86176 -0.36900
O 	O 	0.72401 0.14599 0.92224 -0.37800
O 	O 	0.72716 0.33116 0.91896 -0.71800
C 	C 	0.70450 0.49224 0.68075 0.28300
C 	C 	0.46780 0.13486 0.61144 0.33900
C 	C 	0.48043 0.21723 0.69574 0.28700
C 	C 	0.66064 0.34777 0.56584 0.33100
Ni	Ni	0.54895 0.33231 0.63454 1.11300
Ni	Ni	0.72854 0.24742 0.61442 1.11800
O 	O 	0.64203 0.47154 0.65271 -0.36200
O 	O 	0.69350 0.42452 0.70053 -0.37200
O 	O 	0.69834 0.13827 0.64413 -0.38600
O 	O 	0.43227 0.19556 0.61883 -0.38200
O 	O 	0.56539 0.16219 0.59439 -0.39100
O 	O 	0.47861 0.28909 0.68146 -0.35700
O 	O 	0.58221 0.22094 0.70290 -0.36800
O 	O 	0.59466 0.37126 0.58482 -0.37100
O 	O 	0.75043 0.34056 0.57854 -0.39900
O 	O 	0.68287 0.31749 0.64294 -0.71100
H 	H 	0.73987 0.38111 0.63522 0.14300
C 	C 	0.50940 0.74768 0.37715 0.28700
C 	C 	0.52238 0.85027 0.45958 0.34200
O 	O 	0.51717 0.68196 0.39397 -0.36300
O 	O 	0.56328 0.79239 0.45315 -0.38800
C 	C 	0.54957 0.72627 0.16397 0.34100
C 	C 	0.51047 0.91116 0.20058 0.29700
O 	O 	0.42136 0.84963 0.21803 -0.38500
O 	O 	0.50417 0.91025 0.16758 -0.37500
C 	C 	0.71213 0.98836 0.23379 -0.03800
C 	C 	0.62385 0.95915 0.21684 -0.04700
C 	C 	0.61607 0.82784 0.36589 -0.03500
C 	C 	0.70907 0.89258 0.35693 -0.05200
C 	C 	0.44675 0.97823 0.56715 0.01200
C 	C 	0.58932 0.98043 0.52805 -0.03900
C 	C 	0.53646 0.00660 0.50266 0.02300
C 	C 	0.44004 0.02013 0.50977 -0.04100
C 	C 	0.39430 0.00487 0.54181 -0.02300
C 	C 	0.58002 0.01734 0.46836 0.02300
C 	C 	0.59325 0.94614 0.45237 -0.17500
C 	C 	0.40270 0.96697 0.60139 0.01600
C 	C 	0.39228 0.03902 0.61772 -0.16200
H 	H 	0.39921 0.04076 0.49035 0.05000
H 	H 	0.31889 0.01455 0.54705 0.05000
H 	H 	0.61736 0.08635 0.45704 0.02700
H 	H 	0.65888 0.96601 0.43298 0.08700
H 	H 	0.32584 0.01981 0.63684 0.09400
C 	C 	0.53333 0.43241 0.52784 0.02200
C 	C 	0.62142 0.52604 0.53434 -0.03300
C 	C 	0.59020 0.59163 0.54645 -0.03800
C 	C 	0.47068 0.56465 0.55133 0.02100
C 	C 	0.41394 0.40527 0.53301 -0.03600
C 	C 	0.56558 0.36315 0.51468 0.01300
C 	C 	0.64667 0.34326 0.53117 -0.16200
H 	H 	0.71378 0.54787 0.52999 0.04000
H 	H 	0.65860 0.66378 0.55139 0.04100
H 	H 	0.34546 0.33325 0.52790 0.04900
H 	H 	0.53779 0.33629 0.48954 0.03200
H 	H 	0.69307 0.31523 0.51662 0.08000
C 	C 	0.40555 0.09763 0.08248 -0.03800
C 	C 	0.48460 0.09754 0.02631 0.01600
C 	C 	0.45451 0.11073 0.99404 -0.17200
H 	H 	0.48492 0.16391 0.08811 0.04000
H 	H 	0.57709 0.13046 0.03415 0.03800
C 	C 	0.75180 0.51803 0.07375 0.00300
C 	C 	0.68286 0.48785 0.10249 -0.04200
C 	C 	0.67370 0.55329 0.12327 -0.03700
C 	C 	0.73500 0.64995 0.11569 0.00300
C 	C 	0.81710 0.68083 0.08974 -0.04100
C 	C 	0.82525 0.61524 0.06876 -0.03800
C 	C 	0.69411 0.71456 0.12882 0.01500
C 	C 	0.63590 0.69931 0.15934 -0.16700
C 	C 	0.72334 0.45016 0.04585 0.01000
C 	C 	0.80906 0.45804 0.02299 -0.16600
H 	H 	0.86772 0.75538 0.08421 0.03100
H 	H 	0.69995 0.77031 0.11282 0.03500
H 	H 	0.63195 0.39421 0.04256 0.03900
H 	H 	0.90245 0.49697 0.02980 0.07100
O 	O 	0.10010 0.26234 0.28705 -0.35100
C 	C 	0.05014 0.47278 0.57569 -0.01400
C 	C 	0.20592 0.39164 0.97543 -0.04000
C 	C 	0.11160 0.45360 0.89677 -0.10900
H 	H 	0.14500 0.49207 0.87384 0.08500
H 	H 	0.23508 0.35917 0.02520 0.04400
H 	H 	0.23400 0.34536 0.96399 0.04500
O 	O 	0.01836 0.93297 0.24858 -0.35900
O 	O 	0.84684 0.38694 0.97704 -0.39800
Ni	Ni	0.74100 0.32733 0.68747 1.12200
H 	H 	0.88140 0.64000 0.04718 0.03600
H 	H 	0.78925 0.39726 0.92258 0.15400
O 	O 	0.04849 0.07273 0.28977 -0.69000
O 	O 	0.84679 0.03239 0.80559 -0.37100
C 	C 	0.72392 0.49021 0.88131 0.28200
H 	H 	0.03761 0.07918 0.26587 0.16600
C 	C 	0.74234 0.14198 0.89027 0.30800
C 	C 	0.98898 0.40089 0.90114 0.28000
O 	O 	0.94636 0.32812 0.92213 -0.38100
O 	O 	0.91921 0.41205 0.87921 -0.38700
C 	C 	0.74220 0.15203 0.67441 0.31000
C 	C 	0.95214 0.40855 0.64456 0.28000
O 	O 	0.90279 0.42312 0.67140 -0.38500
O 	O 	0.90255 0.32474 0.62871 -0.38000
O 	O 	0.80349 0.23727 0.68648 -0.39400
C 	C 	0.84982 0.72293 0.82490 0.28100
C 	C 	0.80910 0.98480 0.73281 0.29600
C 	C 	0.86134 0.74338 0.73030 0.30100
C 	C 	0.78352 0.97128 0.82872 0.27300
Ni	Ni	0.76880 0.82944 0.77887 1.11400
O 	O 	0.77356 0.71556 0.80125 -0.36200
O 	O 	0.73275 0.92376 0.75350 -0.36100
O 	O 	0.80853 0.79399 0.73307 -0.37400
O 	O 	0.72872 0.87931 0.82218 -0.35900
C 	C 	0.82229 0.96455 0.34553 0.30400
C 	C 	0.80798 0.01229 0.25674 0.28400
Ni	Ni	0.97505 0.14006 0.30815 1.09800
Ni	Ni	0.95417 0.94066 0.29310 1.09900
O 	O 	0.83225 0.04306 0.33351 -0.38100
O 	O 	0.80927 0.94137 0.27302 -0.38600
O 	O 	0.86918 0.10137 0.26755 -0.39100
O 	O 	0.90365 0.94157 0.33958 -0.41000
C 	C 	0.00969 0.53764 0.57058 0.04000
C 	C 	0.96140 0.54133 0.53984 -0.10200
C 	C 	0.11774 0.47898 0.60626 0.01700
C 	C 	0.06947 0.47447 0.63765 -0.11500
H 	H 	0.01903 0.58718 0.59010 0.03700
H 	H 	0.93361 0.59354 0.53596 0.04600
H 	H 	0.21286 0.50737 0.60440 0.03000
H 	H 	0.12612 0.52105 0.65737 0.08400
C 	C 	0.77051 0.02958 0.70930 -0.03200
C 	C 	0.74993 0.07865 0.69140 -0.04500
C 	C 	0.80756 0.66080 0.70921 -0.04500
C 	C 	0.75999 0.58656 0.69418 -0.03500
C 	C 	0.74928 0.00751 0.85657 -0.02500
C 	C 	0.73680 0.05934 0.87564 -0.04400
C 	C 	0.77089 0.58060 0.86612 -0.03800
C 	C 	0.80907 0.64943 0.84895 -0.03500
