data_crystal

_cell_length_a 25.96853
_cell_length_b 26.56770
_cell_length_c 34.64765
_cell_angle_alpha 95.50260
_cell_angle_beta  95.50011
_cell_angle_gamma 125.85064

_symmetry_space_group_name_	'P 1'
_symmetry_space_group_name_H-M	'P 1'

loop_
_symmetry_equiv_pos_as_xyz
  x,y,z

loop_
_atom_site_label
_atom_site_type_symbol
_atom_site_fract_x
_atom_site_fract_y
_atom_site_fract_z
_atom_site_charge
C 	C 	0.94132 0.01254 0.98806 0.11800
N 	N 	0.90672 0.95288 0.99554 -0.13000
C 	C 	0.93426 0.92276 0.99863 0.12500
N 	N 	0.99691 0.95273 0.99503 -0.13300
C 	C 	0.03199 0.01259 0.98790 0.12600
N 	N 	0.00397 0.04238 0.98405 -0.13000
C 	C 	0.95621 0.00971 0.45846 0.12000
N 	N 	0.02151 0.04587 0.46192 -0.12800
C 	C 	0.05239 0.01871 0.46320 0.12500
N 	N 	0.01799 0.95551 0.46191 -0.12900
C 	C 	0.95289 0.91937 0.45926 0.12600
N 	N 	0.92184 0.94642 0.45731 -0.12600
Cu	Cu	0.62743 0.24235 0.99966 0.92500
Cu	Cu	0.66554 0.24068 0.91227 0.88600
Cu	Cu	0.64605 0.34353 0.95453 0.91400
Cu	Cu	0.60663 0.34343 0.03292 0.90600
C 	C 	0.64304 0.28097 0.08313 0.31000
O 	O 	0.53052 0.19142 0.99864 -0.35500
C 	C 	0.67205 0.33729 0.87805 0.30900
O 	O 	0.66546 0.33861 0.00813 -0.63400
O 	O 	0.61488 0.25350 0.94441 -0.62900
O 	O 	0.68568 0.21598 0.99628 -0.36100
O 	O 	0.64818 0.16923 0.93138 -0.41000
O 	O 	0.60375 0.29636 0.07512 -0.36300
O 	O 	0.68233 0.43191 0.96611 -0.35900
C 	C 	0.67764 0.45956 0.99790 0.28200
C 	C 	0.49796 0.21258 0.98659 0.28400
O 	O 	0.52885 0.27274 0.98501 -0.38400
O 	O 	0.63414 0.42643 0.01971 -0.36500
O 	O 	0.64938 0.24823 0.05536 -0.34900
C 	C 	0.67892 0.17694 0.96626 0.29300
O 	O 	0.63824 0.34705 0.89899 -0.36200
O 	O 	0.70623 0.32027 0.89417 -0.40100
H 	H 	0.71148 0.37021 0.02088 0.17800
H 	H 	0.56897 0.22500 0.93104 0.16600
Cu	Cu	0.76151 0.35354 0.45505 0.93000
Cu	Cu	0.76909 0.31369 0.54093 0.88200
Cu	Cu	0.66528 0.32358 0.50975 0.90100
Cu	Cu	0.63413 0.34038 0.42916 0.90400
C 	C 	0.70372 0.32171 0.37318 0.31200
O 	O 	0.79174 0.44283 0.45148 -0.34700
C 	C 	0.71058 0.34353 0.59494 0.30800
O 	O 	0.66128 0.29819 0.45502 -0.63700
O 	O 	0.75997 0.36777 0.51186 -0.63700
O 	O 	0.81336 0.32034 0.45850 -0.35400
O 	O 	0.75248 0.25294 0.49811 -0.42300
O 	O 	0.67710 0.34970 0.38282 -0.36400
O 	O 	0.57236 0.27452 0.50573 -0.36900
C 	C 	0.53100 0.26623 0.47574 0.29600
C 	C 	0.76196 0.46515 0.46541 0.28500
O 	O 	0.70330 0.42593 0.47228 -0.38900
O 	O 	0.55035 0.30025 0.44765 -0.37400
O 	O 	0.74703 0.32561 0.39929 -0.35200
C 	C 	0.79283 0.26949 0.47355 0.29100
O 	O 	0.67198 0.34343 0.56702 -0.36700
O 	O 	0.76438 0.35274 0.58833 -0.39300
H 	H 	0.63467 0.25192 0.44554 0.18000
H 	H 	0.78709 0.41258 0.52538 0.18400
C 	C 	0.67481 0.34891 0.83735 -0.10300
C 	C 	0.73466 0.39054 0.82586 0.15000
C 	C 	0.73713 0.39310 0.78587 -0.08400
C 	C 	0.68027 0.35521 0.75721 0.02500
C 	C 	0.62008 0.31694 0.76896 0.08300
C 	C 	0.61760 0.31407 0.80893 -0.01400
H 	H 	0.78342 0.42368 0.77699 0.08700
C 	C 	0.68475 0.35086 0.71502 0.02400
H 	H 	0.57132 0.28301 0.81773 0.06100
C 	C 	0.68672 0.30292 0.69644 -0.08200
C 	C 	0.69356 0.29931 0.65695 0.14700
C 	C 	0.69937 0.34455 0.63575 -0.09600
C 	C 	0.69615 0.39185 0.65410 -0.00700
C 	C 	0.68897 0.39524 0.69362 0.08500
H 	H 	0.68287 0.26837 0.71274 0.08300
H 	H 	0.70017 0.42652 0.63785 0.06800
Br	Br	0.54095 0.26737 0.73074 -0.20000
Br	Br	0.81315 0.44582 0.86437 -0.21400
Br	Br	0.69242 0.23079 0.63204 -0.25800
Br	Br	0.68491 0.46060 0.71786 -0.19600
C 	C 	0.69891 0.30206 0.33092 -0.09300
C 	C 	0.63835 0.26469 0.30518 0.14700
C 	C 	0.63535 0.25754 0.26432 -0.08000
C 	C 	0.69221 0.28565 0.24875 0.02500
C 	C 	0.75233 0.31815 0.27445 0.08400
C 	C 	0.75550 0.32656 0.31536 -0.00800
H 	H 	0.58882 0.23111 0.24462 0.08900
C 	C 	0.68883 0.28654 0.20602 0.02500
H 	H 	0.80218 0.35409 0.33498 0.07500
C 	C 	0.70615 0.34183 0.19272 -0.08000
C 	C 	0.69551 0.34153 0.15234 0.14800
C 	C 	0.66532 0.28492 0.12483 -0.09400
C 	C 	0.65123 0.23048 0.13799 -0.00700
C 	C 	0.66324 0.23120 0.17839 0.08300
H 	H 	0.72713 0.38489 0.21386 0.08900
H 	H 	0.62919 0.18708 0.11694 0.07300
Br	Br	0.83054 0.35168 0.25420 -0.19500
Br	Br	0.55923 0.22168 0.32528 -0.24200
Br	Br	0.72445 0.41936 0.13525 -0.25000
Br	Br	0.64444 0.15627 0.19531 -0.19700
C 	C 	0.89274 0.75077 0.42919 -0.02200
C 	C 	0.86343 0.72406 0.46113 0.01200
C 	C 	0.85906 0.76038 0.49089 -0.04000
C 	C 	0.88527 0.82358 0.48961 -0.00200
C 	C 	0.91627 0.85086 0.45820 -0.01400
C 	C 	0.91889 0.81387 0.42788 -0.01700
C 	C 	0.83658 0.65774 0.46343 0.02900
C 	C 	0.87641 0.64446 0.48244 -0.05800
C 	C 	0.85260 0.58179 0.48358 0.03000
C 	C 	0.78826 0.53173 0.46535 -0.07800
C 	C 	0.74831 0.54526 0.44679 0.01700
C 	C 	0.77206 0.60782 0.44578 -0.04000
C 	C 	0.89389 0.56945 0.50441 0.07800
C 	C 	0.73011 0.62045 0.42626 0.09900
C 	C 	0.89662 0.71383 0.39781 0.09500
C 	C 	0.88176 0.86056 0.52117 0.09200
N 	N 	0.92696 0.55956 0.52110 -0.10700
N 	N 	0.69656 0.63062 0.41063 -0.10500
N 	N 	0.87896 0.89021 0.54643 -0.10300
N 	N 	0.89968 0.68419 0.37270 -0.10200
H 	H 	0.94254 0.83470 0.40365 0.05600
H 	H 	0.83576 0.73957 0.51521 0.05700
H 	H 	0.92598 0.68294 0.49621 0.06100
H 	H 	0.69884 0.50691 0.43272 0.03600
C 	C 	0.78793 0.12561 0.44678 -0.03900
C 	C 	0.85420 0.15210 0.45485 0.02900
C 	C 	0.90051 0.21794 0.46495 -0.05800
C 	C 	0.88122 0.25733 0.46917 0.02800
C 	C 	0.81472 0.23060 0.46293 -0.08100
C 	C 	0.76856 0.16491 0.45083 0.01700
C 	C 	0.87547 0.11109 0.45516 0.01200
C 	C 	0.88903 0.09294 0.42052 -0.04000
C 	C 	0.91239 0.05691 0.42077 -0.00200
C 	C 	0.92295 0.03932 0.45613 -0.01200
C 	C 	0.90714 0.05548 0.49040 -0.01900
C 	C 	0.88352 0.09127 0.49012 -0.02200
C 	C 	0.92475 0.03760 0.38458 0.09400
C 	C 	0.86827 0.10804 0.52589 0.09200
C 	C 	0.73949 0.05805 0.43515 0.10000
C 	C 	0.92990 0.32475 0.48153 0.07700
N 	N 	0.93457 0.02204 0.35556 -0.10000
N 	N 	0.85603 0.12151 0.55453 -0.10700
N 	N 	0.96892 0.37876 0.49145 -0.10300
N 	N 	0.70072 0.00391 0.42584 -0.10500
H 	H 	0.71746 0.14428 0.44554 0.04600
H 	H 	0.95155 0.23837 0.47067 0.06000
H 	H 	0.88179 0.10725 0.39346 0.05900
H 	H 	0.91471 0.04148 0.51753 0.05500
C 	C 	0.22571 0.08406 0.50061 -0.02200
C 	C 	0.25832 0.12634 0.47500 0.01300
C 	C 	0.22349 0.13473 0.44627 -0.04100
C 	C 	0.15632 0.10050 0.44234 -0.00100
C 	C 	0.12352 0.05801 0.46794 -0.01400
C 	C 	0.15872 0.05060 0.49717 -0.01800
C 	C 	0.32871 0.16039 0.47705 0.02900
C 	C 	0.35057 0.13808 0.44964 -0.05700
C 	C 	0.41684 0.17131 0.44972 0.03000
C 	C 	0.46187 0.22730 0.47767 -0.07600
C 	C 	0.44013 0.24860 0.50584 0.01900
C 	C 	0.37381 0.21580 0.50547 -0.03800
C 	C 	0.43830 0.14750 0.42118 0.07500
C 	C 	0.35236 0.23979 0.53388 0.10300
C 	C 	0.26057 0.07426 0.53018 0.09500
C 	C 	0.12129 0.10751 0.41103 0.09300
N 	N 	0.45551 0.12843 0.39833 -0.09700
N 	N 	0.33512 0.25895 0.55664 -0.10300
N 	N 	0.09335 0.11324 0.38593 -0.09900
N 	N 	0.28855 0.06645 0.55386 -0.10200
H 	H 	0.13376 0.01824 0.51701 0.05400
H 	H 	0.24865 0.16719 0.42652 0.05700
H 	H 	0.31588 0.09515 0.42800 0.06100
H 	H 	0.47481 0.29166 0.52739 0.05000
C 	C 	0.81540 0.63325 0.01897 -0.03500
C 	C 	0.78302 0.65956 0.00933 0.03200
C 	C 	0.71536 0.62042 0.99901 -0.05900
C 	C 	0.67998 0.55497 0.99651 0.02600
C 	C 	0.71266 0.52838 0.00455 -0.06200
C 	C 	0.78009 0.56784 0.01641 0.01400
C 	C 	0.81987 0.72705 0.00654 0.01700
C 	C 	0.83959 0.74549 0.97097 -0.04300
C 	C 	0.87658 0.80934 0.96799 -0.00400
C 	C 	0.89423 0.85542 0.00096 -0.00600
C 	C 	0.87347 0.83693 0.03632 -0.01800
C 	C 	0.83648 0.77298 0.03931 -0.02100
C 	C 	0.89557 0.82720 0.93085 0.09500
C 	C 	0.81620 0.75486 0.07613 0.09700
C 	C 	0.88493 0.67305 0.03097 0.10300
C 	C 	0.61046 0.51527 0.98440 0.08800
N 	N 	0.91082 0.84158 0.90113 -0.10100
N 	N 	0.79993 0.74029 0.10562 -0.10100
N 	N 	0.55477 0.48348 0.97470 -0.10000
N 	N 	0.94063 0.70499 0.04059 -0.10200
H 	H 	0.80514 0.54743 0.02301 0.04500
H 	H 	0.69046 0.64080 0.99191 0.06200
H 	H 	0.82638 0.71003 0.94570 0.06000
H 	H 	0.88662 0.87238 0.06157 0.05700
C 	C 	0.89344 0.12050 0.00761 -0.01600
C 	C 	0.83789 0.09134 0.97797 0.00500
C 	C 	0.82009 0.03988 0.94960 -0.03700
C 	C 	0.85572 0.01580 0.95138 -0.01100
C 	C 	0.90962 0.04315 0.98206 -0.01400
C 	C 	0.92909 0.09634 0.00945 -0.01700
C 	C 	0.79815 0.11458 0.97620 0.03200
C 	C 	0.81073 0.15907 0.95252 -0.06200
C 	C 	0.77223 0.17993 0.94915 0.03300
C 	C 	0.71992 0.15552 0.96940 -0.08500
C 	C 	0.70796 0.11176 0.99360 0.01700
C 	C 	0.74663 0.09099 0.99700 -0.04500
C 	C 	0.78771 0.22754 0.92566 0.04900
C 	C 	0.73318 0.04549 0.02183 0.10700
C 	C 	0.91357 0.17458 0.03653 0.09500
C 	C 	0.83706 0.96336 0.92144 0.10100
N 	N 	0.80016 0.26568 0.90685 -0.12100
N 	N 	0.72246 0.00904 0.04171 -0.10500
N 	N 	0.82216 0.92134 0.89749 -0.10200
N 	N 	0.92963 0.21791 0.05969 -0.10000
H 	H 	0.97085 0.11776 0.03285 0.05700
H 	H 	0.77815 0.01831 0.92632 0.05300
H 	H 	0.85061 0.17748 0.93673 0.06100
H 	H 	0.66834 0.09361 0.00958 0.04900
C 	C 	0.32858 0.10662 0.00597 -0.03600
C 	C 	0.29435 0.11400 0.97576 0.02300
C 	C 	0.32526 0.14569 0.94582 -0.05800
C 	C 	0.39090 0.17323 0.94706 0.02900
C 	C 	0.42662 0.17067 0.97919 -0.08500
C 	C 	0.39449 0.13499 0.00754 0.01700
C 	C 	0.22674 0.09063 0.97605 0.01000
C 	C 	0.21467 0.12528 0.00168 -0.03600
C 	C 	0.15107 0.10163 0.00472 0.00100
C 	C 	0.09875 0.04299 0.98142 -0.01600
C 	C 	0.11093 0.00988 0.95445 -0.02300
C 	C 	0.17451 0.03315 0.95183 -0.02700
C 	C 	0.14008 0.13668 0.03282 0.09300
C 	C 	0.18578 0.99704 0.92490 0.10300
C 	C 	0.29661 0.07073 0.03572 0.09900
C 	C 	0.42107 0.20323 0.91500 0.07400
N 	N 	0.13125 0.16474 0.05533 -0.10200
N 	N 	0.19487 0.96815 0.90333 -0.10300
N 	N 	0.44528 0.22726 0.88934 -0.10700
N 	N 	0.27093 0.04197 0.05954 -0.10400
H 	H 	0.42143 0.13172 0.03183 0.05000
H 	H 	0.29837 0.14953 0.92183 0.06100
H 	H 	0.25491 0.16991 0.01997 0.05600
H 	H 	0.07079 0.96513 0.93619 0.06400
