data_crystal

_cell_length_a 27.70020
_cell_length_b 29.10865
_cell_length_c 39.33482
_cell_angle_alpha 60.70861
_cell_angle_beta  118.99036
_cell_angle_gamma 133.23381

_symmetry_space_group_name_	'P 1'
_symmetry_space_group_name_H-M	'P 1'

loop_
_symmetry_equiv_pos_as_xyz
  x,y,z

loop_
_atom_site_label
_atom_site_type_symbol
_atom_site_fract_x
_atom_site_fract_y
_atom_site_fract_z
_atom_site_charge
C 	C 	0.71803 0.30907 0.01431 0.03000
C 	C 	0.76849 0.37175 0.02222 -0.07300
C 	C 	0.74906 0.40269 0.02595 0.03200
C 	C 	0.68161 0.36876 0.02628 -0.07600
C 	C 	0.63233 0.30644 0.01995 0.03200
C 	C 	0.64907 0.27969 0.00987 -0.07500
H 	H 	0.82190 0.39559 0.02615 0.04700
H 	H 	0.66775 0.39055 0.03237 0.05300
H 	H 	0.60875 0.23487 0.00019 0.04800
C 	C 	0.72359 0.30189 0.53584 0.03000
C 	C 	0.65928 0.26648 0.54261 -0.07600
C 	C 	0.64247 0.29786 0.54811 0.03200
C 	C 	0.68864 0.36476 0.54523 -0.07500
C 	C 	0.75408 0.39935 0.54112 0.03100
C 	C 	0.77130 0.36836 0.53561 -0.07500
H 	H 	0.62352 0.21458 0.54482 0.04900
H 	H 	0.67544 0.38897 0.54933 0.05300
H 	H 	0.82202 0.39528 0.53225 0.04900
C 	C 	0.27528 0.63183 0.21920 0.03400
C 	C 	0.23401 0.57407 0.20713 -0.07500
C 	C 	0.26366 0.55668 0.19962 0.03400
C 	C 	0.33447 0.59554 0.20562 -0.07500
C 	C 	0.37581 0.65334 0.21722 0.03400
C 	C 	0.34631 0.67144 0.22418 -0.07500
H 	H 	0.17914 0.54373 0.20273 0.05400
H 	H 	0.35724 0.58199 0.19975 0.05400
H 	H 	0.37818 0.71700 0.23227 0.05400
C 	C 	0.26055 0.64217 0.69965 0.03300
C 	C 	0.21433 0.57943 0.69269 -0.07400
C 	C 	0.23780 0.55394 0.68705 0.03300
C 	C 	0.30715 0.59007 0.68971 -0.07500
C 	C 	0.35202 0.65431 0.69295 0.03400
C 	C 	0.32921 0.67998 0.69888 -0.07400
H 	H 	0.16071 0.55125 0.69116 0.05400
H 	H 	0.32529 0.56983 0.68607 0.05400
H 	H 	0.36413 0.72958 0.70184 0.05500
Co	Co	0.04493 0.00064 0.07233 1.17300
Co	Co	0.94859 0.93515 0.16457 1.19400
Co	Co	0.99939 0.05433 0.10022 1.16900
Co	Co	0.99752 0.88295 0.13816 1.17400
C 	C 	0.17929 0.04421 0.07197 0.26900
Co	Co	0.07473 0.90040 0.08693 1.17100
Co	Co	0.93882 0.04531 0.15767 1.15000
C 	C 	0.94127 0.77905 0.10485 0.27500
O 	O 	0.93650 0.10823 0.10162 -0.42200
O 	O 	0.96999 0.01100 0.14224 -0.79500
C 	C 	0.90344 0.08735 0.06908 0.30200
O 	O 	0.03295 0.07028 0.05704 -0.45700
O 	O 	0.94535 0.85811 0.17394 -0.46500
C 	C 	0.81738 0.91059 0.15352 0.29500
O 	O 	0.01937 0.97868 0.12757 -0.54400
C 	C 	0.07771 0.15868 0.14541 0.29500
C 	C 	0.00082 0.94113 0.00725 0.35200
C 	C 	0.11658 0.87092 0.17523 0.29600
O 	O 	0.91315 0.05240 0.06456 -0.41000
O 	O 	0.00381 0.89196 0.03258 -0.39000
O 	O 	0.99091 0.97004 0.01855 -0.38400
O 	O 	0.83835 0.97159 0.13983 -0.37000
O 	O 	0.84462 0.89204 0.14776 -0.38400
O 	O 	0.04253 0.11384 0.17322 -0.38400
O 	O 	0.07285 0.14374 0.11617 -0.36800
O 	O 	0.14007 0.91168 0.14267 -0.38600
O 	O 	0.06664 0.86113 0.18149 -0.36300
O 	O 	0.04109 0.93305 0.10174 -0.73800
C 	C 	0.97938 0.97092 0.23713 0.28500
O 	O 	0.93525 0.98470 0.21513 -0.38200
O 	O 	0.99211 0.94779 0.22309 -0.36100
O 	O 	0.14390 0.99337 0.05839 -0.35800
O 	O 	0.14856 0.05992 0.07669 -0.38200
O 	O 	0.00565 0.80376 0.11281 -0.38400
O 	O 	0.92440 0.80919 0.10830 -0.39500
Co	Co	0.05598 0.01678 0.57469 1.17600
Co	Co	0.95110 0.92923 0.66841 1.18300
Co	Co	0.98205 0.04469 0.59942 1.16200
Co	Co	0.02343 0.90016 0.64281 1.19500
C 	C 	0.20130 0.08733 0.58138 0.30600
Co	Co	0.12038 0.94561 0.59147 1.18500
Co	Co	0.91210 0.01902 0.65927 1.15300
C 	C 	0.00226 0.80674 0.61504 0.36600
O 	O 	0.83785 0.00072 0.60689 -0.41500
O 	O 	0.94924 0.99440 0.64046 -0.73500
C 	C 	0.85400 0.03970 0.57218 0.28500
O 	O 	0.02924 0.07558 0.55854 -0.46000
O 	O 	0.97009 0.86561 0.68133 -0.46700
C 	C 	0.81724 0.87455 0.67613 0.30700
O 	O 	0.98108 0.95912 0.61271 -0.57800
C 	C 	0.03215 0.14979 0.62977 0.33300
C 	C 	0.04376 0.97469 0.50976 0.34900
C 	C 	0.16027 0.92030 0.67880 0.29600
O 	O 	0.89912 0.04912 0.56099 -0.39200
O 	O 	0.04928 0.92824 0.53777 -0.37300
O 	O 	0.03350 0.00716 0.51748 -0.40000
O 	O 	0.85288 0.92405 0.69109 -0.39400
O 	O 	0.84725 0.86549 0.66477 -0.38400
O 	O 	0.96804 0.11646 0.62926 -0.43300
O 	O 	0.05244 0.12460 0.62412 -0.39700
O 	O 	0.18397 0.96290 0.64672 -0.37900
O 	O 	0.11241 0.91226 0.68590 -0.37200
O 	O 	0.05886 0.95243 0.60254 -0.73700
C 	C 	0.99663 0.98820 0.73494 0.33300
O 	O 	0.99309 0.03647 0.70863 -0.43800
O 	O 	0.00126 0.95439 0.72429 -0.34200
O 	O 	0.17780 0.04416 0.56459 -0.40200
O 	O 	0.15999 0.08215 0.59276 -0.40800
O 	O 	0.06860 0.84676 0.61886 -0.41200
O 	O 	0.97148 0.81864 0.62357 -0.42000
C 	C 	0.98895 0.95072 0.96388 -0.10600
C 	C 	0.03640 0.00982 0.94171 0.13700
C 	C 	0.03660 0.01254 0.90503 -0.10600
C 	C 	0.99041 0.95651 0.89036 0.04200
C 	C 	0.94205 0.89790 0.91207 0.07800
C 	C 	0.93989 0.89601 0.94767 -0.00500
H 	H 	0.07307 0.05813 0.88814 0.07800
C 	C 	0.98998 0.96054 0.85090 -0.00300
H 	H 	0.90203 0.85088 0.96379 0.05700
C 	C 	0.03969 0.96210 0.84785 -0.05800
C 	C 	0.04044 0.96716 0.81054 0.16500
C 	C 	0.98996 0.96908 0.77600 -0.12200
C 	C 	0.93901 0.96508 0.77967 -0.00700
C 	C 	0.93987 0.96263 0.81640 0.09100
H 	H 	0.07841 0.96046 0.87428 0.08200
H 	H 	0.90072 0.96767 0.75332 0.05400
Br	Br	0.88055 0.81907 0.89466 -0.22900
Br	Br	0.10263 0.08681 0.96146 -0.25800
Br	Br	0.11257 0.97457 0.80733 -0.21000
Br	Br	0.87417 0.96579 0.81826 -0.21200
C 	C 	0.04298 0.98641 0.46815 -0.08200
C 	C 	0.09264 0.99184 0.46133 0.17900
C 	C 	0.08416 0.98903 0.42410 -0.08600
C 	C 	0.02769 0.98269 0.39276 0.04200
C 	C 	0.97956 0.98031 0.39869 0.06900
C 	C 	0.98730 0.98202 0.43631 -0.02600
H 	H 	0.12192 0.99207 0.41952 0.09700
C 	C 	0.01979 0.97903 0.35366 0.07200
H 	H 	0.94889 0.97786 0.44103 0.06800
C 	C 	0.97704 0.91822 0.34510 -0.10300
C 	C 	0.96957 0.91397 0.30852 0.11700
C 	C 	0.00530 0.97095 0.28006 -0.01100
C 	C 	0.05194 0.03114 0.29008 -0.06700
C 	C 	0.05860 0.03557 0.32630 0.05800
H 	H 	0.94882 0.87427 0.36658 0.08100
H 	H 	0.07965 0.07524 0.26846 0.06700
Br	Br	0.90301 0.97448 0.35598 -0.21800
Br	Br	0.17334 0.00424 0.50207 -0.32100
Br	Br	0.90829 0.83017 0.29730 -0.24400
Br	Br	0.11829 0.11973 0.33682 -0.23800
C 	C 	0.15223 0.29588 0.67106 -0.06500
C 	C 	0.12476 0.33118 0.64405 0.03100
C 	C 	0.07809 0.31333 0.60804 -0.06600
C 	C 	0.05609 0.25874 0.60033 0.02600
C 	C 	0.07736 0.21910 0.62939 -0.09500
C 	C 	0.12822 0.23979 0.66385 0.02200
C 	C 	0.14395 0.38617 0.65369 0.00200
H 	H 	0.05675 0.34014 0.58672 0.05100
H 	H 	0.01782 0.24401 0.57325 0.03500
H 	H 	0.14574 0.21013 0.68636 0.03500
H 	H 	0.19041 0.31056 0.69819 0.05000
C 	C 	0.14530 0.37975 0.69196 -0.03600
C 	C 	0.16868 0.43333 0.70185 -0.03500
C 	C 	0.18979 0.49342 0.67341 -0.00100
C 	C 	0.18161 0.49771 0.63405 -0.03500
C 	C 	0.16060 0.44508 0.62450 -0.03700
H 	H 	0.13000 0.33389 0.71434 0.04400
H 	H 	0.17416 0.42913 0.73224 0.04300
H 	H 	0.19724 0.54370 0.61174 0.04200
H 	H 	0.15952 0.45088 0.59482 0.04200
C 	C 	0.48923 0.72749 0.64671 -0.03700
C 	C 	0.54714 0.74913 0.67841 0.00400
C 	C 	0.54206 0.74735 0.71301 -0.03600
C 	C 	0.47882 0.72034 0.71681 -0.03300
C 	C 	0.42051 0.69618 0.68576 -0.00100
C 	C 	0.42670 0.70256 0.65003 -0.03400
C 	C 	0.61306 0.77382 0.67528 0.02900
H 	H 	0.58677 0.76576 0.73719 0.04900
H 	H 	0.47476 0.71607 0.74441 0.04400
H 	H 	0.38211 0.68482 0.62565 0.04200
H 	H 	0.49230 0.72863 0.61986 0.04200
C 	C 	0.65208 0.75228 0.70708 -0.06200
C 	C 	0.71728 0.78056 0.70565 0.02100
C 	C 	0.74338 0.82955 0.67212 -0.08600
C 	C 	0.70166 0.84621 0.63878 0.01500
C 	C 	0.63750 0.81966 0.64064 -0.06100
H 	H 	0.63282 0.71516 0.73338 0.05200
H 	H 	0.74887 0.76694 0.73147 0.03700
H 	H 	0.72071 0.88291 0.61237 0.04500
H 	H 	0.60780 0.83634 0.61570 0.05100
C 	C 	0.17482 0.71596 0.67946 -0.03600
C 	C 	0.20699 0.73862 0.71404 0.00300
C 	C 	0.25220 0.72439 0.74532 -0.03600
C 	C 	0.26701 0.68997 0.74146 -0.03500
C 	C 	0.23692 0.66957 0.70621 0.00000
C 	C 	0.18961 0.68151 0.67560 -0.03500
C 	C 	0.19908 0.78319 0.71551 0.02800
H 	H 	0.27725 0.74147 0.77215 0.04500
H 	H 	0.30330 0.68075 0.76540 0.04300
H 	H 	0.16620 0.66628 0.64822 0.04300
H 	H 	0.14049 0.72722 0.65493 0.04200
C 	C 	0.25357 0.84930 0.71281 -0.06200
C 	C 	0.24292 0.89384 0.70638 0.01800
C 	C 	0.17738 0.87296 0.70188 -0.08400
C 	C 	0.12495 0.80579 0.70951 0.02100
C 	C 	0.13557 0.76112 0.71587 -0.06100
H 	H 	0.30330 0.86672 0.71356 0.05400
H 	H 	0.28445 0.94526 0.70180 0.04300
H 	H 	0.07448 0.78859 0.70711 0.03800
H 	H 	0.09354 0.70993 0.71900 0.05200
C 	C 	0.11569 0.32054 0.11917 -0.06300
C 	C 	0.15981 0.33943 0.15524 0.02800
C 	C 	0.18756 0.30526 0.18436 -0.06300
C 	C 	0.16623 0.24909 0.17915 0.01900
C 	C 	0.11770 0.22710 0.14458 -0.08500
C 	C 	0.09545 0.26504 0.11367 0.01600
C 	C 	0.17481 0.39318 0.16325 0.00300
H 	H 	0.22360 0.32078 0.21170 0.05200
H 	H 	0.18436 0.22055 0.20301 0.03600
H 	H 	0.05835 0.24875 0.08670 0.04300
H 	H 	0.09484 0.34717 0.09616 0.05100
C 	C 	0.20176 0.45485 0.13642 -0.03700
C 	C 	0.22390 0.50751 0.14645 -0.03500
C 	C 	0.22094 0.49933 0.18383 -0.00200
C 	C 	0.18892 0.43675 0.20918 -0.03400
C 	C 	0.16558 0.38376 0.19884 -0.03700
H 	H 	0.20812 0.46253 0.10858 0.04200
H 	H 	0.24755 0.55554 0.12636 0.04200
H 	H 	0.18557 0.42975 0.23786 0.04400
H 	H 	0.14270 0.33589 0.21916 0.04800
C 	C 	0.53665 0.78966 0.18091 -0.03600
C 	C 	0.57452 0.76395 0.20280 0.00500
C 	C 	0.55209 0.70805 0.23447 -0.03700
C 	C 	0.48986 0.67546 0.24223 -0.03400
C 	C 	0.44893 0.69778 0.21786 -0.00100
C 	C 	0.47402 0.75661 0.18836 -0.03400
C 	C 	0.63591 0.79393 0.19142 0.02800
H 	H 	0.58155 0.68846 0.25204 0.04500
H 	H 	0.47139 0.63060 0.26550 0.04200
H 	H 	0.44318 0.77465 0.16964 0.04300
H 	H 	0.55459 0.83394 0.15719 0.04600
C 	C 	0.63200 0.80217 0.15208 -0.06200
C 	C 	0.69128 0.83617 0.14027 0.02200
C 	C 	0.75466 0.86147 0.16781 -0.08100
C 	C 	0.75797 0.84967 0.20772 0.01500
C 	C 	0.69890 0.81626 0.21946 -0.05700
H 	H 	0.58334 0.78381 0.13041 0.05100
H 	H 	0.68828 0.84522 0.10935 0.03900
H 	H 	0.80679 0.86928 0.22913 0.05200
H 	H 	0.70242 0.80966 0.24998 0.05700
C 	C 	0.24246 0.69936 0.26041 -0.03700
C 	C 	0.19639 0.71038 0.22731 0.00300
C 	C 	0.17195 0.69046 0.19289 -0.03700
C 	C 	0.19574 0.66253 0.19083 -0.03500
C 	C 	0.24384 0.65373 0.22332 -0.00100
C 	C 	0.26583 0.67080 0.25851 -0.03500
C 	C 	0.17947 0.74905 0.22678 0.02800
H 	H 	0.13648 0.69892 0.16715 0.04400
H 	H 	0.17855 0.64976 0.16349 0.04200
H 	H 	0.30231 0.66350 0.28396 0.04200
H 	H 	0.26141 0.71434 0.28717 0.04400
C 	C 	0.11157 0.72142 0.22263 -0.06200
C 	C 	0.09201 0.76148 0.21074 0.01800
C 	C 	0.14005 0.82942 0.20233 -0.08300
C 	C 	0.20923 0.85624 0.21126 0.01700
C 	C 	0.22887 0.81618 0.22341 -0.06200
H 	H 	0.07326 0.66943 0.22606 0.05200
H 	H 	0.03859 0.74003 0.20466 0.04300
H 	H 	0.24708 0.90853 0.20586 0.04200
H 	H 	0.28170 0.83786 0.22740 0.05200
C 	C 	0.74082 0.08982 0.53700 -0.04500
C 	C 	0.78787 0.15772 0.52676 0.01400
C 	C 	0.85089 0.18497 0.52227 -0.06000
C 	C 	0.86928 0.14484 0.53191 0.00400
C 	C 	0.82553 0.07744 0.54709 -0.07300
C 	C 	0.75946 0.04982 0.54695 -0.04600
C 	C 	0.77516 0.19967 0.52649 0.00300
H 	H 	0.88701 0.23731 0.51340 0.04000
H 	H 	0.91958 0.16664 0.53060 0.02900
H 	H 	0.72434 0.99765 0.55741 0.07600
H 	H 	0.69144 0.06816 0.53970 0.03300
C 	C 	0.71925 0.20052 0.49898 -0.04200
C 	C 	0.70313 0.23484 0.50154 -0.03700
C 	C 	0.74261 0.26838 0.53176 -0.00300
C 	C 	0.79926 0.26849 0.55877 -0.03800
C 	C 	0.81556 0.23450 0.55607 -0.04200
H 	H 	0.68776 0.17384 0.47602 0.03700
H 	H 	0.65963 0.23485 0.48033 0.03800
H 	H 	0.82990 0.29391 0.58232 0.03500
H 	H 	0.85853 0.23379 0.57763 0.03600
C 	C 	0.87510 0.52289 0.60124 -0.03200
C 	C 	0.87225 0.57507 0.57314 -0.01800
C 	C 	0.84058 0.57319 0.53267 -0.03000
C 	C 	0.80785 0.51770 0.52101 -0.04100
C 	C 	0.80693 0.46389 0.54966 -0.00000
C 	C 	0.84354 0.46809 0.58940 -0.04200
C 	C 	0.90369 0.63207 0.58606 0.06900
H 	H 	0.83995 0.61403 0.51046 0.04000
H 	H 	0.77996 0.51507 0.49020 0.04300
H 	H 	0.84324 0.42684 0.61172 0.03700
H 	H 	0.90005 0.52403 0.63248 0.03200
C 	C 	0.86601 0.65464 0.57654 -0.09800
C 	C 	0.89688 0.70985 0.58792 0.05900
C 	C 	0.96531 0.74236 0.60925 -0.17300
C 	C 	0.00157 0.71763 0.62035 0.11600
C 	C 	0.97133 0.66352 0.60839 -0.15800
H 	H 	0.81325 0.62992 0.55997 0.05700
H 	H 	0.86828 0.72836 0.57909 0.02500
H 	H 	0.05420 0.74196 0.63697 0.01300
H 	H 	0.00091 0.64662 0.61595 0.08500
C 	C 	0.38273 0.15472 0.61874 -0.06400
C 	C 	0.40473 0.20012 0.58340 0.02900
C 	C 	0.36545 0.22237 0.55327 -0.06300
C 	C 	0.30033 0.19224 0.55582 0.02300
C 	C 	0.27424 0.13968 0.58836 -0.08900
C 	C 	0.31823 0.12581 0.62154 0.01400
C 	C 	0.46451 0.21886 0.57619 0.00200
H 	H 	0.38345 0.25991 0.52674 0.05100
H 	H 	0.26767 0.20514 0.53062 0.03600
H 	H 	0.29970 0.08740 0.64771 0.03100
H 	H 	0.41353 0.13869 0.64287 0.04300
C 	C 	0.52705 0.24242 0.60461 -0.04000
C 	C 	0.58396 0.26205 0.59712 -0.03700
C 	C 	0.57949 0.26032 0.56057 -0.00300
C 	C 	0.51618 0.23341 0.53313 -0.03500
C 	C 	0.45877 0.21230 0.54102 -0.03900
H 	H 	0.53197 0.24696 0.63206 0.03800
H 	H 	0.63253 0.28205 0.61873 0.03800
H 	H 	0.51204 0.23139 0.50499 0.04000
H 	H 	0.41016 0.19205 0.51948 0.04800
C 	C 	0.83679 0.18407 0.99747 -0.06000
C 	C 	0.79003 0.15915 0.01778 0.02000
C 	C 	0.76647 0.09771 0.04536 -0.06400
C 	C 	0.79325 0.06509 0.05456 0.00800
C 	C 	0.85007 0.09679 0.04090 -0.09200
C 	C 	0.86778 0.15368 0.00966 0.00800
C 	C 	0.76922 0.19879 0.01248 0.00100
H 	H 	0.73071 0.07688 0.06160 0.03800
H 	H 	0.77597 0.01896 0.07674 0.02700
H 	H 	0.90948 0.17737 0.99726 0.02800
H 	H 	0.85114 0.22803 0.97348 0.04200
C 	C 	0.81439 0.26740 0.00414 -0.04100
C 	C 	0.79658 0.30349 0.00276 -0.04000
C 	C 	0.73690 0.27149 0.01395 -0.00100
C 	C 	0.69364 0.20285 0.02396 -0.03800
C 	C 	0.70658 0.16764 0.01954 -0.04000
H 	H 	0.86345 0.29292 0.99915 0.03700
H 	H 	0.82933 0.35599 0.99311 0.03800
H 	H 	0.64994 0.17644 0.03533 0.03500
H 	H 	0.66848 0.11572 0.02284 0.03400
C 	C 	0.80144 0.56588 0.01005 -0.04300
C 	C 	0.83885 0.57558 0.04894 0.00500
C 	C 	0.86290 0.53734 0.07614 -0.04100
C 	C 	0.84174 0.48462 0.06642 -0.03600
C 	C 	0.79806 0.47087 0.02908 -0.00700
C 	C 	0.78423 0.51585 0.99971 -0.02800
C 	C 	0.85096 0.62424 0.06152 0.02400
H 	H 	0.89560 0.54672 0.10533 0.03500
H 	H 	0.85481 0.45161 0.08903 0.03500
H 	H 	0.75249 0.50702 0.97027 0.04200
H 	H 	0.78260 0.59474 0.98847 0.04800
C 	C 	0.86517 0.68425 0.03464 -0.06100
C 	C 	0.88084 0.73125 0.04736 0.01000
C 	C 	0.88961 0.72190 0.08789 -0.08000
C 	C 	0.86917 0.66002 0.11382 0.01100
C 	C 	0.84883 0.61100 0.10054 -0.06300
H 	H 	0.86680 0.69567 0.00440 0.05400
H 	H 	0.89277 0.77746 0.02656 0.04100
H 	H 	0.87389 0.65135 0.14502 0.02800
H 	H 	0.83383 0.56369 0.12101 0.04400
C 	C 	0.34271 0.19089 0.04090 -0.06100
C 	C 	0.38122 0.16612 0.05978 0.02500
C 	C 	0.35704 0.10551 0.08770 -0.06400
C 	C 	0.29307 0.06818 0.09477 0.00600
C 	C 	0.25229 0.09065 0.07361 -0.07700
C 	C 	0.27838 0.15322 0.04783 0.01700
C 	C 	0.44550 0.20227 0.04931 0.00200
H 	H 	0.38676 0.08631 0.10280 0.04000
H 	H 	0.27355 0.02015 0.11506 0.01900
H 	H 	0.24737 0.17115 0.03150 0.04900
H 	H 	0.36172 0.23835 0.01999 0.05100
C 	C 	0.44610 0.21786 0.00953 -0.04000
C 	C 	0.50671 0.24978 0.00001 -0.03800
C 	C 	0.56684 0.26579 0.03023 -0.00300
C 	C 	0.56578 0.24878 0.07008 -0.03700
C 	C 	0.50561 0.21780 0.07951 -0.04000
H 	H 	0.39964 0.20509 0.98610 0.04400
H 	H 	0.50718 0.26297 0.96914 0.04100
H 	H 	0.61210 0.26099 0.09359 0.03700
H 	H 	0.50563 0.20582 0.11029 0.03800
