data_crystal

_cell_length_a 27.68820
_cell_length_b 28.06941
_cell_length_c 36.82078
_cell_angle_alpha 95.55652
_cell_angle_beta  95.55869
_cell_angle_gamma 125.51194

_symmetry_space_group_name_	'P 1'
_symmetry_space_group_name_H-M	'P 1'

loop_
_symmetry_equiv_pos_as_xyz
  x,y,z

loop_
_atom_site_label
_atom_site_type_symbol
_atom_site_fract_x
_atom_site_fract_y
_atom_site_fract_z
_atom_site_charge
C 	C 	0.96993 0.02596 0.99752 0.13500
C 	C 	0.05274 0.02570 0.98860 0.13200
N 	N 	0.02823 0.05557 0.99293 -0.13900
C 	C 	0.93817 0.99856 0.45604 0.13900
C 	C 	0.02868 0.00786 0.46090 0.13200
N 	N 	0.99879 0.03247 0.45750 -0.14300
Cu	Cu	0.64070 0.24512 0.00137 0.92700
Cu	Cu	0.69262 0.24997 0.92432 0.87200
Cu	Cu	0.67790 0.34176 0.95482 0.89900
Cu	Cu	0.64023 0.35494 0.02656 0.89500
C 	C 	0.65420 0.28699 0.07877 0.30500
O 	O 	0.55204 0.20983 0.99864 -0.35900
C 	C 	0.66226 0.30331 0.87378 0.30700
O 	O 	0.68971 0.33807 0.00631 -0.64200
O 	O 	0.63599 0.25385 0.94872 -0.64000
O 	O 	0.67847 0.20250 0.99965 -0.37000
O 	O 	0.74743 0.26537 0.96690 -0.44000
O 	O 	0.62732 0.31133 0.06869 -0.38500
O 	O 	0.72299 0.42759 0.96432 -0.38100
C 	C 	0.71672 0.45905 0.98989 0.31300
C 	C 	0.52935 0.23579 0.98479 0.30200
O 	O 	0.56541 0.29171 0.98146 -0.39200
O 	O 	0.67589 0.43365 0.01123 -0.39700
O 	O 	0.65782 0.25219 0.05416 -0.36000
C 	C 	0.73034 0.22620 0.98868 0.30800
O 	O 	0.68001 0.34682 0.90172 -0.38400
O 	O 	0.65708 0.25498 0.87923 -0.42000
H 	H 	0.73249 0.36338 0.01916 0.16500
H 	H 	0.59466 0.22989 0.93365 0.17400
Cu	Cu	0.73119 0.33725 0.45413 0.92800
Cu	Cu	0.73171 0.29244 0.53316 0.87200
Cu	Cu	0.63617 0.30370 0.50273 0.89800
Cu	Cu	0.61821 0.33553 0.42956 0.89500
C 	C 	0.68467 0.31874 0.37663 0.30500
O 	O 	0.76625 0.42423 0.45452 -0.36000
C 	C 	0.67924 0.32404 0.58384 0.30700
O 	O 	0.63729 0.28889 0.45100 -0.64000
O 	O 	0.72523 0.34562 0.50720 -0.64100
O 	O 	0.77438 0.29985 0.45628 -0.37200
O 	O 	0.71348 0.23530 0.49170 -0.44200
O 	O 	0.65968 0.34510 0.38635 -0.38400
O 	O 	0.54908 0.25848 0.49480 -0.38000
C 	C 	0.51566 0.26158 0.46841 0.30800
C 	C 	0.74006 0.44728 0.46759 0.30100
O 	O 	0.68423 0.41210 0.47261 -0.39200
O 	O 	0.53998 0.30161 0.44681 -0.39300
O 	O 	0.72115 0.31679 0.40133 -0.35900
C 	C 	0.75118 0.24988 0.46872 0.30900
O 	O 	0.63397 0.30512 0.55637 -0.38400
O 	O 	0.72855 0.33036 0.57770 -0.42000
H 	H 	0.61155 0.24619 0.43917 0.16500
H 	H 	0.74968 0.38712 0.52117 0.17500
C 	C 	0.65623 0.33377 0.69142 -0.00500
C 	C 	0.70237 0.38196 0.71895 -0.03400
C 	C 	0.69999 0.37905 0.75652 -0.03400
C 	C 	0.65145 0.32794 0.76669 -0.00500
C 	C 	0.60343 0.28147 0.73916 -0.03400
C 	C 	0.60581 0.28439 0.70160 -0.03400
C 	C 	0.65479 0.31975 0.80464 0.04500
C 	C 	0.65748 0.31279 0.83639 -0.10800
C 	C 	0.66440 0.33140 0.65340 0.04500
C 	C 	0.67077 0.32894 0.62150 -0.10900
H 	H 	0.74129 0.42052 0.71131 0.04100
H 	H 	0.73708 0.41539 0.77764 0.04100
H 	H 	0.56552 0.24200 0.74679 0.04000
H 	H 	0.56972 0.24714 0.68049 0.04100
C 	C 	0.68573 0.28924 0.26608 -0.00300
C 	C 	0.73607 0.33115 0.25169 -0.03300
C 	C 	0.73243 0.32744 0.21322 -0.03400
C 	C 	0.67846 0.28179 0.18903 -0.00300
C 	C 	0.62933 0.23795 0.20340 -0.03300
C 	C 	0.63297 0.24167 0.24184 -0.03400
C 	C 	0.67106 0.28384 0.15007 0.04500
C 	C 	0.66418 0.28497 0.11740 -0.10100
C 	C 	0.68567 0.29905 0.30521 0.04500
C 	C 	0.68556 0.30722 0.33795 -0.10000
H 	H 	0.77717 0.36786 0.27024 0.04400
H 	H 	0.77075 0.36128 0.20233 0.04100
H 	H 	0.58758 0.20229 0.18487 0.04300
H 	H 	0.59398 0.20889 0.25275 0.04000
C 	C 	0.81246 0.62208 0.46773 -0.00800
C 	C 	0.81242 0.65719 0.49752 -0.02900
C 	C 	0.83333 0.64563 0.43609 -0.02800
C 	C 	0.78856 0.56103 0.46884 0.04700
C 	C 	0.76740 0.50943 0.46885 -0.10800
H 	H 	0.79595 0.63915 0.52197 0.04000
H 	H 	0.83312 0.61863 0.41286 0.04200
C 	C 	0.80982 0.14713 0.45078 -0.01100
C 	C 	0.86258 0.16774 0.43663 -0.02800
C 	C 	0.88558 0.13460 0.43552 -0.04300
C 	C 	0.85597 0.08075 0.44861 0.01600
C 	C 	0.80231 0.05934 0.46181 -0.04400
C 	C 	0.77927 0.09244 0.46287 -0.02900
C 	C 	0.78957 0.18406 0.45561 0.04800
C 	C 	0.77237 0.21456 0.46083 -0.11800
C 	C 	0.88291 0.04970 0.45083 0.00600
C 	C 	0.90704 0.02527 0.45307 -0.04200
H 	H 	0.88645 0.20994 0.42722 0.04100
H 	H 	0.92706 0.15141 0.42522 0.04500
H 	H 	0.77912 0.01774 0.47194 0.04400
H 	H 	0.73844 0.07620 0.47384 0.03700
C 	C 	0.33466 0.16888 0.46610 -0.00800
C 	C 	0.31225 0.16016 0.49926 -0.02800
C 	C 	0.25018 0.12901 0.49829 -0.04300
C 	C 	0.21033 0.10651 0.46415 0.01700
C 	C 	0.23278 0.11548 0.43101 -0.04300
C 	C 	0.29484 0.14663 0.43198 -0.02900
C 	C 	0.39853 0.20114 0.46709 0.04800
C 	C 	0.45202 0.22846 0.46778 -0.10600
C 	C 	0.14629 0.07254 0.46305 0.00500
C 	C 	0.09261 0.04345 0.46208 -0.03800
H 	H 	0.34281 0.17739 0.52575 0.04200
H 	H 	0.23311 0.12211 0.52402 0.04500
H 	H 	0.20220 0.09809 0.40451 0.04500
H 	H 	0.31189 0.15335 0.40624 0.03900
C 	C 	0.80407 0.63658 0.99127 -0.00500
C 	C 	0.81321 0.65814 0.95793 -0.02800
C 	C 	0.77381 0.57401 0.99080 0.04900
C 	C 	0.74809 0.52155 0.99038 -0.10600
H 	H 	0.79766 0.62789 0.93172 0.04200
H 	H 	0.81698 0.65955 0.05091 0.03900
C 	C 	0.82813 0.16133 0.00521 -0.01200
C 	C 	0.80426 0.10789 0.01820 -0.02900
C 	C 	0.83537 0.08257 0.01876 -0.04300
C 	C 	0.89042 0.11058 0.00628 0.01200
C 	C 	0.91509 0.16486 0.99427 -0.04000
C 	C 	0.88402 0.19019 0.99375 -0.02700
C 	C 	0.79321 0.18407 0.00081 0.04200
C 	C 	0.76422 0.20318 0.99598 -0.11200
C 	C 	0.91964 0.08180 0.00366 0.00600
C 	C 	0.94320 0.05687 0.00103 -0.04300
H 	H 	0.76109 0.08532 0.02712 0.04100
H 	H 	0.81608 0.04065 0.02816 0.04400
H 	H 	0.95768 0.18682 0.98465 0.04400
H 	H 	0.90276 0.23153 0.98367 0.03800
C 	C 	0.22765 0.10734 0.97658 0.01700
C 	C 	0.27087 0.16933 0.98584 -0.04300
C 	C 	0.33158 0.19486 0.98494 -0.02800
C 	C 	0.34930 0.15848 0.97481 -0.00900
C 	C 	0.30586 0.09661 0.96467 -0.02800
C 	C 	0.24515 0.07109 0.96553 -0.04300
C 	C 	0.16610 0.08055 0.98054 0.00500
C 	C 	0.11443 0.05661 0.98415 -0.03700
C 	C 	0.41241 0.18434 0.97720 0.04800
C 	C 	0.46559 0.20701 0.98010 -0.10900
H 	H 	0.25767 0.19763 0.99437 0.04600
H 	H 	0.36494 0.24276 0.99279 0.04000
H 	H 	0.31921 0.06821 0.95679 0.04000
H 	H 	0.21194 0.02311 0.95828 0.04500
N 	N 	0.93627 0.96662 0.99770 -0.13800
C 	C 	0.96089 0.93692 0.99338 0.13400
N 	N 	0.01904 0.96646 0.98883 -0.13800
N 	N 	0.90738 0.93986 0.45797 -0.14000
C 	C 	0.93750 0.91533 0.46139 0.13400
N 	N 	0.99805 0.94939 0.46283 -0.13900
C 	C 	0.83370 0.71582 0.49578 -0.04300
C 	C 	0.85488 0.73944 0.46419 0.01700
C 	C 	0.85450 0.70415 0.43433 -0.04300
C 	C 	0.88127 0.80115 0.46348 0.00500
C 	C 	0.90545 0.85311 0.46260 -0.03700
H 	H 	0.83421 0.74293 0.51908 0.04500
H 	H 	0.87117 0.72221 0.40992 0.04600
C 	C 	0.84276 0.71898 0.95839 -0.04300
C 	C 	0.86325 0.75846 0.99218 0.02100
C 	C 	0.85367 0.73682 0.02550 -0.04600
C 	C 	0.82410 0.67598 0.02504 -0.03100
C 	C 	0.89657 0.82142 0.99282 0.00500
C 	C 	0.92536 0.87416 0.99318 -0.03600
H 	H 	0.85017 0.73544 0.93254 0.04600
H 	H 	0.86952 0.76713 0.05173 0.04500
