data_crystal

_cell_length_a 24.08417
_cell_length_b 24.15931
_cell_length_c 59.06256
_cell_angle_alpha 89.74414
_cell_angle_beta  89.75414
_cell_angle_gamma 119.48373

_symmetry_space_group_name_	'P 1'
_symmetry_space_group_name_H-M	'P 1'

loop_
_symmetry_equiv_pos_as_xyz
  x,y,z

loop_
_atom_site_label
_atom_site_type_symbol
_atom_site_fract_x
_atom_site_fract_y
_atom_site_fract_z
_atom_site_charge
C 	C 	0.10931 0.02799 0.76408 0.29300
C 	C 	0.09859 0.03961 0.70339 0.32400
Ni	Ni	0.00261 0.93207 0.73212 1.10600
Ni	Ni	0.03765 0.07918 0.73938 1.11500
O 	O 	0.08790 0.97704 0.75073 -0.37400
O 	O 	0.07944 0.06165 0.76600 -0.39000
O 	O 	0.04986 0.98158 0.70293 -0.38500
O 	O 	0.10788 0.07668 0.72084 -0.38600
C 	C 	0.23057 0.66676 0.39712 0.28900
O 	O 	0.23698 0.61475 0.39802 -0.37400
O 	O 	0.23464 0.58622 0.44690 -0.37600
C 	C 	0.21780 0.65330 0.01082 0.31200
C 	C 	0.04733 0.10356 0.19716 0.30900
C 	C 	0.10011 0.15085 0.25888 0.30500
C 	C 	0.99619 0.91013 0.21103 0.34500
C 	C 	0.03065 0.93500 0.27267 0.29300
Ni	Ni	0.06884 0.03211 0.23400 1.11800
O 	O 	0.03235 0.97174 0.20804 -0.40800
O 	O 	0.08929 0.10365 0.21134 -0.37500
O 	O 	0.06937 0.96461 0.25504 -0.37800
O 	O 	0.05795 0.15559 0.24574 -0.37500
O 	O 	0.11168 0.10247 0.25716 -0.37700
C 	C 	0.14340 0.41506 0.06749 0.01800
C 	C 	0.12108 0.35882 0.08005 -0.06400
C 	C 	0.15710 0.32758 0.08110 0.02800
C 	C 	0.14250 0.27845 0.09870 0.00300
C 	C 	0.18704 0.28928 0.11579 -0.03800
C 	C 	0.16954 0.24884 0.13467 -0.03100
C 	C 	0.10747 0.19735 0.13662 -0.00400
C 	C 	0.06396 0.18439 0.11901 -0.03200
C 	C 	0.08146 0.22468 0.10007 -0.03900
C 	C 	0.08647 0.16237 0.15766 0.04600
C 	C 	0.06879 0.13473 0.17557 -0.09900
H 	H 	0.11718 0.44083 0.06793 0.04000
H 	H 	0.07788 0.34175 0.09008 0.04900
H 	H 	0.20353 0.25898 0.14815 0.04400
H 	H 	0.01598 0.14441 0.12034 0.04100
H 	H 	0.04692 0.21544 0.08687 0.04200
C 	C 	0.00347 0.86634 0.19551 -0.13000
C 	C 	0.02560 0.88579 0.17326 0.03600
C 	C 	0.04186 0.84866 0.15966 -0.07800
C 	C 	0.03573 0.79150 0.16809 0.03800
C 	C 	0.01000 0.77012 0.18981 -0.09500
C 	C 	0.99395 0.80734 0.20347 0.06400
C 	C 	0.06191 0.75744 0.15508 0.00500
C 	C 	0.11306 0.75174 0.16376 -0.04000
C 	C 	0.14348 0.72704 0.15031 -0.02800
C 	C 	0.12305 0.70793 0.12811 -0.01000
C 	C 	0.07017 0.71089 0.11975 -0.02300
C 	C 	0.03958 0.73545 0.13321 -0.05600
H 	H 	0.03186 0.93049 0.16672 0.03400
H 	H 	0.06128 0.86537 0.14285 0.05300
H 	H 	0.00432 0.72565 0.19636 0.05300
H 	H 	0.97648 0.79142 0.22053 0.03300
H 	H 	0.13065 0.76851 0.18063 0.04200
H 	H 	0.18426 0.72478 0.15690 0.04100
H 	H 	0.05398 0.69599 0.10262 0.04200
H 	H 	0.99973 0.73905 0.12643 0.06000
C 	C 	0.30056 0.58034 0.33970 0.01800
C 	C 	0.28247 0.53047 0.32436 -0.06600
C 	C 	0.31451 0.49516 0.32405 0.02800
C 	C 	0.28609 0.43347 0.31238 0.00300
C 	C 	0.27863 0.43063 0.28881 -0.03900
C 	C 	0.24641 0.37170 0.27807 -0.03100
C 	C 	0.22140 0.31531 0.29085 -0.00400
C 	C 	0.23071 0.31806 0.31429 -0.03200
C 	C 	0.26297 0.37692 0.32504 -0.03800
C 	C 	0.18038 0.25534 0.28026 0.04600
C 	C 	0.14449 0.20646 0.27091 -0.09700
H 	H 	0.27297 0.60460 0.34084 0.03500
H 	H 	0.24124 0.51684 0.31374 0.04800
H 	H 	0.23936 0.36990 0.25992 0.04300
H 	H 	0.21142 0.27469 0.32428 0.04200
H 	H 	0.26846 0.37862 0.34326 0.04300
C 	C 	0.17382 0.66251 0.38631 -0.07800
C 	C 	0.14652 0.69722 0.39545 0.01400
C 	C 	0.11492 0.71930 0.38138 -0.06100
C 	C 	0.10954 0.70587 0.35816 0.02800
C 	C 	0.09482 0.74430 0.34231 -0.00100
C 	C 	0.14146 0.78556 0.32681 -0.03500
C 	C 	0.12993 0.82616 0.31313 -0.03600
C 	C 	0.07184 0.82600 0.31487 0.00400
C 	C 	0.02494 0.78449 0.33018 -0.05300
C 	C 	0.03639 0.74378 0.34388 -0.03100
C 	C 	0.05927 0.86654 0.30029 0.03700
C 	C 	0.04747 0.89908 0.28785 -0.09400
H 	H 	0.15507 0.71221 0.41294 0.04000
H 	H 	0.09897 0.75071 0.38820 0.05000
H 	H 	0.16623 0.85782 0.30123 0.04400
H 	H 	0.00016 0.71231 0.35582 0.03700
C 	C 	0.09731 0.56210 0.50970 0.02500
C 	C 	0.11899 0.61544 0.49544 -0.06000
C 	C 	0.17579 0.63712 0.48305 0.02400
C 	C 	0.21100 0.60485 0.48478 -0.07500
C 	C 	0.19341 0.55655 0.50108 0.01400
C 	C 	0.13693 0.53534 0.51368 -0.04200
C 	C 	0.19704 0.69172 0.46826 0.06800
C 	C 	0.11851 0.48430 0.52993 0.09000
N 	N 	0.21414 0.73553 0.45644 -0.11400
N 	N 	0.10367 0.44337 0.54294 -0.11900
H 	H 	0.04390 0.59334 0.54416 0.05200
H 	H 	0.08986 0.63779 0.49304 0.05200
H 	H 	0.22161 0.53304 0.50300 0.04400
C 	C 	0.19582 0.07366 0.67530 0.05000
C 	C 	0.15023 0.05714 0.68763 -0.10800
H 	H 	0.20660 0.10101 0.63074 0.04100
C 	C 	0.04352 0.60311 0.97653 -0.00100
C 	C 	0.08318 0.58014 0.96857 -0.05100
C 	C 	0.14182 0.59853 0.97888 0.02700
C 	C 	0.16143 0.64098 0.99734 -0.07500
C 	C 	0.12451 0.66873 0.00378 0.00900
C 	C 	0.06575 0.65011 0.99342 -0.02700
C 	C 	0.18177 0.57412 0.97027 0.07900
H 	H 	0.06685 0.54542 0.95508 0.04900
H 	H 	0.14029 0.70283 0.01747 0.04400
C 	C 	0.17223 0.05206 0.77477 -0.08300
C 	C 	0.18772 0.08999 0.79420 0.01400
C 	C 	0.24950 0.11810 0.80291 -0.06500
C 	C 	0.21887 0.04133 0.76450 0.01600
H 	H 	0.15213 0.09814 0.80244 0.03500
H 	H 	0.20787 0.01270 0.74938 0.03800
C 	C 	0.56474 0.19258 0.94981 0.28700
C 	C 	0.59564 0.35289 0.97405 0.31000
C 	C 	0.75772 0.28561 0.91724 0.30600
C 	C 	0.63277 0.43547 0.90541 0.31000
C 	C 	0.58700 0.27779 0.88033 0.31200
Ni	Ni	0.68790 0.31364 0.95554 1.11400
Ni	Ni	0.70819 0.37218 0.90474 1.12300
Ni	Ni	0.56977 0.30738 0.92715 1.12200
O 	O 	0.62516 0.21673 0.95589 -0.36300
O 	O 	0.53766 0.22915 0.94817 -0.36600
O 	O 	0.68744 0.44093 0.91141 -0.38700
O 	O 	0.55373 0.25488 0.89933 -0.38600
O 	O 	0.62339 0.31873 0.97813 -0.36500
O 	O 	0.58887 0.36755 0.95329 -0.38100
O 	O 	0.64165 0.33319 0.87960 -0.37900
O 	O 	0.76081 0.30533 0.93853 -0.36400
O 	O 	0.73866 0.30868 0.90035 -0.37200
O 	O 	0.58010 0.37984 0.90670 -0.38000
O 	O 	0.65274 0.31657 0.92753 -0.71700
H 	H 	0.64365 0.27539 0.92115 0.16300
C 	C 	0.74377 0.27243 0.55080 0.29000
C 	C 	0.66481 0.41987 0.48965 0.31000
C 	C 	0.57812 0.24680 0.50238 0.28900
C 	C 	0.67844 0.47241 0.55994 0.31100
C 	C 	0.57575 0.29413 0.57622 0.28800
Ni	Ni	0.71653 0.34035 0.51078 1.11300
Ni	Ni	0.60254 0.35917 0.53206 1.12300
Ni	Ni	0.71547 0.37434 0.56377 1.12200
O 	O 	0.76077 0.29900 0.53015 -0.36600
O 	O 	0.71534 0.29096 0.56592 -0.38100
O 	O 	0.62060 0.42595 0.55571 -0.38300
O 	O 	0.68381 0.37833 0.48546 -0.36300
O 	O 	0.65533 0.43109 0.51049 -0.38700
O 	O 	0.63316 0.34059 0.58243 -0.37800
O 	O 	0.55299 0.29297 0.55567 -0.37600
O 	O 	0.63663 0.25439 0.50330 -0.37100
O 	O 	0.56726 0.29522 0.50592 -0.36800
O 	O 	0.72694 0.46192 0.56038 -0.38400
O 	O 	0.67070 0.34212 0.53624 -0.71700
H 	H 	0.64619 0.29641 0.53992 0.16100
C 	C 	0.49997 0.77683 0.42139 0.32600
C 	C 	0.35407 0.62885 0.37592 0.31300
C 	C 	0.37996 0.81750 0.44632 0.29500
C 	C 	0.39804 0.58813 0.44120 0.30900
C 	C 	0.25711 0.61253 0.46691 0.28800
Ni	Ni	0.37270 0.74247 0.40291 1.11400
Ni	Ni	0.39272 0.70298 0.45365 1.12400
Ni	Ni	0.29188 0.59670 0.42045 1.12100
O 	O 	0.27981 0.72464 0.40003 -0.37200
O 	O 	0.43130 0.64733 0.44787 -0.37900
O 	O 	0.46208 0.75062 0.40420 -0.37400
O 	O 	0.47646 0.77674 0.44157 -0.36900
O 	O 	0.35140 0.68187 0.37514 -0.37200
O 	O 	0.35132 0.60154 0.39535 -0.38900
O 	O 	0.31827 0.63540 0.47223 -0.37100
O 	O 	0.40048 0.81974 0.42511 -0.36400
O 	O 	0.36625 0.76872 0.46006 -0.37300
O 	O 	0.33548 0.56041 0.43973 -0.38300
O 	O 	0.34241 0.68424 0.42704 -0.71800
H 	H 	0.30859 0.69214 0.43284 0.15900
C 	C 	0.40986 0.59186 0.04240 0.28900
C 	C 	0.23364 0.67096 0.08522 0.32900
C 	C 	0.23572 0.50876 0.04977 0.30900
C 	C 	0.41486 0.76407 0.08053 0.28800
C 	C 	0.38998 0.75935 0.00385 0.29300
Ni	Ni	0.32605 0.62501 0.07383 1.11400
Ni	Ni	0.31327 0.73233 0.04521 1.12200
Ni	Ni	0.31648 0.61882 0.01903 1.12300
O 	O 	0.37469 0.57890 0.06131 -0.37100
O 	O 	0.39939 0.61860 0.02432 -0.37100
O 	O 	0.25759 0.71154 0.01748 -0.38400
O 	O 	0.27822 0.66046 0.09335 -0.37400
O 	O 	0.23233 0.68233 0.06362 -0.38600
O 	O 	0.35839 0.69766 0.99808 -0.36600
O 	O 	0.23889 0.54972 0.06478 -0.37900
O 	O 	0.27437 0.52827 0.03208 -0.37300
O 	O 	0.38857 0.77884 0.02468 -0.38600
O 	O 	0.40783 0.70648 0.08357 -0.36900
O 	O 	0.36642 0.77187 0.07376 -0.37200
O 	O 	0.22839 0.60622 0.01552 -0.38300
O 	O 	0.33459 0.66647 0.04608 -0.71900
H 	H 	0.38141 0.69135 0.04472 0.16400
C 	C 	0.20215 0.44083 0.05601 -0.08800
C 	C 	0.21223 0.34955 0.06760 -0.06500
C 	C 	0.23459 0.40590 0.05505 0.01700
H 	H 	0.23961 0.32496 0.06784 0.05200
H 	H 	0.27944 0.42465 0.04592 0.04000
H 	H 	0.23427 0.33058 0.11494 0.04300
C 	C 	0.47063 0.81790 0.09054 -0.07900
C 	C 	0.46485 0.84091 0.11167 0.01800
C 	C 	0.51887 0.87560 0.12497 -0.06200
C 	C 	0.57897 0.88786 0.11710 0.02800
C 	C 	0.58549 0.87163 0.09484 -0.06100
C 	C 	0.53141 0.83639 0.08166 0.01600
C 	C 	0.63175 0.90658 0.13320 0.00500
C 	C 	0.65534 0.86489 0.13776 -0.03800
C 	C 	0.70139 0.87967 0.15441 -0.02900
C 	C 	0.72408 0.93604 0.16669 -0.00600
C 	C 	0.70149 0.97835 0.16194 -0.02900
C 	C 	0.65541 0.96368 0.14522 -0.03900
H 	H 	0.41810 0.82768 0.11852 0.03900
H 	H 	0.51342 0.88900 0.14197 0.04900
H 	H 	0.63196 0.88249 0.08836 0.05200
H 	H 	0.53639 0.81984 0.06515 0.03500
H 	H 	0.63696 0.82042 0.12872 0.04600
H 	H 	0.71909 0.02220 0.17132 0.04400
H 	H 	0.63753 0.99617 0.14182 0.04400
C 	C 	0.16056 0.69226 0.11316 0.05400
C 	C 	0.19330 0.68132 0.10051 -0.10800
C 	C 	0.78617 0.99092 0.32878 -0.06200
C 	C 	0.77915 0.94866 0.36795 0.00500
C 	C 	0.76099 0.88592 0.37434 -0.03700
C 	C 	0.71383 0.85482 0.39089 -0.02900
C 	C 	0.68412 0.88597 0.40101 -0.00300
C 	C 	0.70741 0.95077 0.39652 -0.03000
C 	C 	0.75492 0.98212 0.38006 -0.03700
C 	C 	0.62145 0.84866 0.41079 0.05500
C 	C 	0.56686 0.81627 0.41693 -0.09500
H 	H 	0.74066 0.98891 0.33139 0.05100
H 	H 	0.78019 0.85990 0.36541 0.04400
H 	H 	0.69686 0.80499 0.39453 0.04700
H 	H 	0.68553 0.97561 0.40454 0.04700
H 	H 	0.76993 0.03115 0.37574 0.04500
C 	C 	0.35018 0.59454 0.35499 -0.09000
C 	C 	0.36873 0.51431 0.33747 -0.06500
C 	C 	0.38645 0.56374 0.35289 0.02000
H 	H 	0.39482 0.48842 0.33691 0.05100
H 	H 	0.42566 0.57513 0.36427 0.04200
H 	H 	0.29665 0.47398 0.27888 0.04200
C 	C 	0.12822 0.66315 0.34979 -0.06400
C 	C 	0.15983 0.64108 0.36390 0.01500
H 	H 	0.12221 0.65059 0.33203 0.04700
H 	H 	0.17874 0.61243 0.35681 0.03500
H 	H 	0.18701 0.78690 0.32564 0.04200
C 	C 	0.37529 0.97057 0.45172 -0.03700
C 	C 	0.41492 0.99811 0.47058 0.02100
C 	C 	0.43440 0.96201 0.48347 -0.05800
C 	C 	0.42179 0.90205 0.47615 0.02700
C 	C 	0.38621 0.87623 0.45619 -0.07200
C 	C 	0.36113 0.90976 0.44460 0.01100
C 	C 	0.44671 0.06744 0.47429 0.02100
C 	C 	0.42713 0.09105 0.49248 -0.05800
C 	C 	0.46763 0.15219 0.50081 0.02100
C 	C 	0.52869 0.18959 0.49101 -0.07200
C 	C 	0.54526 0.16818 0.47143 0.01500
C 	C 	0.50429 0.10785 0.46287 -0.03900
C 	C 	0.44659 0.17540 0.51961 0.07100
C 	C 	0.52333 0.08619 0.44307 0.09500
C 	C 	0.35077 0.00525 0.43918 0.09000
C 	C 	0.44954 0.86960 0.48828 0.07900
N 	N 	0.42932 0.19377 0.53463 -0.10900
N 	N 	0.53852 0.06877 0.42723 -0.11400
N 	N 	0.47183 0.84371 0.49800 -0.11400
N 	N 	0.33116 0.03309 0.42913 -0.11500
H 	H 	0.33228 0.88933 0.42965 0.04100
H 	H 	0.46381 0.98282 0.49828 0.05400
H 	H 	0.38189 0.06063 0.50087 0.05200
H 	H 	0.59149 0.19740 0.46349 0.04900
C 	C 	0.45646 0.47536 0.45749 -0.04100
C 	C 	0.51273 0.49941 0.44429 0.02200
C 	C 	0.52383 0.54374 0.42706 -0.05900
C 	C 	0.48374 0.57005 0.42472 0.02800
C 	C 	0.43034 0.55000 0.43924 -0.08100
C 	C 	0.41517 0.50024 0.45470 0.01300
C 	C 	0.56427 0.48566 0.45060 0.02100
C 	C 	0.55869 0.42671 0.44520 -0.05800
C 	C 	0.59954 0.40776 0.45512 0.02500
C 	C 	0.64521 0.44753 0.47107 -0.08400
C 	C 	0.65731 0.51030 0.47340 0.01300
C 	C 	0.61628 0.52916 0.46367 -0.04100
C 	C 	0.59476 0.34812 0.44861 0.08500
C 	C 	0.62572 0.59191 0.46823 0.09100
C 	C 	0.44236 0.42735 0.47465 0.09000
C 	C 	0.49948 0.61967 0.40809 0.07600
N 	N 	0.59092 0.30039 0.44321 -0.10900
N 	N 	0.63322 0.64215 0.47187 -0.11300
N 	N 	0.51258 0.65950 0.39474 -0.10500
N 	N 	0.43115 0.38889 0.48839 -0.11700
H 	H 	0.37348 0.48377 0.46556 0.04400
H 	H 	0.56607 0.56082 0.41644 0.05300
H 	H 	0.52108 0.39469 0.43399 0.05400
H 	H 	0.69491 0.54248 0.48458 0.04300
C 	C 	0.72988 0.17574 0.57054 0.01600
H 	H 	0.67858 0.15407 0.56894 0.03300
H 	H 	0.72365 0.10860 0.59584 0.05000
C 	C 	0.53048 0.25325 0.59381 -0.07800
C 	C 	0.48674 0.18956 0.58893 0.01700
C 	C 	0.43413 0.15459 0.60314 -0.06100
C 	C 	0.42508 0.18285 0.62246 0.02700
C 	C 	0.47122 0.24501 0.62823 -0.06300
C 	C 	0.52378 0.28005 0.61398 0.01500
C 	C 	0.36502 0.14952 0.63556 0.00400
C 	C 	0.36593 0.13362 0.65838 -0.04000
C 	C 	0.30965 0.10653 0.67125 -0.03000
C 	C 	0.25215 0.09522 0.66140 -0.00800
C 	C 	0.25084 0.10955 0.63846 -0.03000
C 	C 	0.30707 0.13654 0.62556 -0.04000
H 	H 	0.49213 0.16798 0.57363 0.03800
H 	H 	0.39936 0.10625 0.59876 0.05000
H 	H 	0.46496 0.26704 0.64324 0.04900
H 	H 	0.55730 0.32908 0.61799 0.03900
H 	H 	0.41033 0.14315 0.66622 0.04200
H 	H 	0.31101 0.09556 0.68898 0.04000
H 	H 	0.30590 0.14871 0.60796 0.04500
C 	C 	0.68742 0.53334 0.56818 -0.08600
C 	C 	0.65582 0.53506 0.58793 0.02000
C 	C 	0.67717 0.59222 0.59953 -0.06400
C 	C 	0.72987 0.64811 0.59129 0.03000
C 	C 	0.73581 0.59021 0.55877 0.02300
H 	H 	0.61778 0.49145 0.59517 0.03700
H 	H 	0.65554 0.59221 0.61565 0.04900
H 	H 	0.68172 0.71553 0.61231 0.04300
N 	N 	0.21375 0.55459 0.96336 -0.11600
C 	C 	0.50343 0.91824 0.97959 -0.03800
C 	C 	0.46232 0.92747 0.96507 0.02100
C 	C 	0.40405 0.87520 0.95888 -0.05700
C 	C 	0.38327 0.81560 0.96909 0.02300
C 	C 	0.42064 0.80851 0.98603 -0.07300
C 	C 	0.48265 0.85866 0.98980 0.01100
C 	C 	0.47699 0.99252 0.95827 0.02100
C 	C 	0.51519 0.02129 0.93913 -0.05600
C 	C 	0.53888 0.08619 0.93474 0.02400
C 	C 	0.52449 0.12287 0.94971 -0.07300
C 	C 	0.48116 0.09265 0.96755 0.01200
C 	C 	0.45757 0.02776 0.97198 -0.03900
C 	C 	0.57949 0.11534 0.91521 0.07000
C 	C 	0.41548 0.99822 0.99113 0.09200
C 	C 	0.56577 0.97038 0.98491 0.09200
C 	C 	0.32290 0.76267 0.96251 0.08300
N 	N 	0.61204 0.13875 0.89958 -0.11200
N 	N 	0.38176 0.97449 0.00646 -0.11600
N 	N 	0.27451 0.72048 0.95705 -0.10900
N 	N 	0.61571 0.01221 0.98917 -0.11300
H 	H 	0.51273 0.85277 0.00209 0.04300
H 	H 	0.37365 0.88156 0.94687 0.05300
H 	H 	0.52852 0.99377 0.92816 0.05300
H 	H 	0.46894 0.12044 0.97883 0.04800
C 	C 	0.59468 0.46089 0.01921 -0.04100
C 	C 	0.53039 0.44655 0.01833 0.02300
C 	C 	0.48606 0.39284 0.00643 -0.05800
C 	C 	0.50613 0.35654 0.99404 0.02900
C 	C 	0.57150 0.37516 0.99283 -0.08200
C 	C 	0.61497 0.42526 0.00637 0.01600
C 	C 	0.50985 0.49020 0.02815 0.02100
C 	C 	0.53027 0.54984 0.01796 -0.05600
C 	C 	0.50221 0.58663 0.02405 0.02300
C 	C 	0.45082 0.56216 0.03969 -0.07400
C 	C 	0.43439 0.50502 0.05126 0.00800
C 	C 	0.46409 0.46945 0.04574 -0.04100
C 	C 	0.52795 0.65010 0.01481 0.08100
C 	C 	0.44673 0.41124 0.05800 0.08700
C 	C 	0.64012 0.51239 0.03299 0.09300
C 	C 	0.45957 0.30105 0.98210 0.06800
N 	N 	0.54859 0.70096 0.00742 -0.10800
N 	N 	0.43281 0.36459 0.06781 -0.11600
N 	N 	0.42230 0.25658 0.97254 -0.11300
N 	N 	0.67650 0.55368 0.04404 -0.11300
H 	H 	0.66509 0.43870 0.00594 0.04200
H 	H 	0.43623 0.38050 0.00627 0.05500
H 	H 	0.56705 0.56696 0.00495 0.05600
H 	H 	0.39682 0.48699 0.06398 0.04200
H 	H 	0.75010 0.10147 0.88762 0.04700
C 	C 	0.29631 0.10848 0.79230 0.02700
C 	C 	0.28056 0.06938 0.77326 -0.06500
C 	C 	0.36169 0.13926 0.80124 0.00300
C 	C 	0.38473 0.10259 0.81185 -0.03800
C 	C 	0.44207 0.13235 0.82376 -0.03100
C 	C 	0.47647 0.19884 0.82522 -0.00400
C 	C 	0.45641 0.23544 0.81286 -0.03100
C 	C 	0.39908 0.20575 0.80095 -0.03900
C 	C 	0.52140 0.22795 0.84325 0.04800
C 	C 	0.55442 0.25145 0.85956 -0.09600
H 	H 	0.26110 0.14759 0.81783 0.04800
H 	H 	0.31635 0.06149 0.76504 0.04800
H 	H 	0.35672 0.05116 0.81182 0.04200
H 	H 	0.45752 0.10366 0.83310 0.04400
H 	H 	0.48302 0.28688 0.81370 0.04100
H 	H 	0.38232 0.23444 0.79237 0.04200
C 	C 	0.63336 0.48758 0.89231 -0.08700
C 	C 	0.61505 0.47794 0.86949 0.01700
C 	C 	0.63746 0.52979 0.85456 -0.06400
H 	H 	0.58811 0.43010 0.86294 0.03900
H 	H 	0.62711 0.52153 0.83667 0.04900
H 	H 	0.63233 0.64042 0.83048 0.04200
O 	O 	0.00765 0.10061 0.71057 -0.40300
H 	H 	0.71881 0.84687 0.15797 0.04500
C 	C 	0.02940 0.52819 0.51700 0.00500
C 	C 	0.75656 0.64753 0.57017 -0.06300
C 	C 	0.73053 0.73039 0.61693 -0.03900
H 	H 	0.75961 0.58947 0.54325 0.04100
H 	H 	0.73281 0.79368 0.64289 0.04200
C 	C 	0.67759 0.59164 0.86243 0.02800
C 	C 	0.68919 0.60170 0.88573 -0.06300
C 	C 	0.66722 0.54984 0.90060 0.02100
C 	C 	0.68386 0.66234 0.83029 -0.03900
H 	H 	0.68056 0.55791 0.91828 0.04100
H 	H 	0.69504 0.72232 0.80159 0.04300
H 	H 	0.79607 0.69075 0.56333 0.05300
H 	H 	0.97968 0.78375 0.33148 0.05700
C 	C 	0.81467 0.97513 0.34652 0.02800
O 	O 	0.97745 0.99102 0.74048 -0.71100
H 	H 	0.97611 0.98449 0.75698 0.15400
O 	O 	0.98969 0.08798 0.20416 -0.36200
O 	O 	0.96026 0.88721 0.22932 -0.39000
C 	C 	0.75540 0.15018 0.58589 -0.06200
H 	H 	0.79765 0.19781 0.63334 0.04400
O 	O 	0.97178 0.92622 0.27409 -0.37700
C 	C 	0.79080 0.44304 0.94362 0.31300
O 	O 	0.74224 0.41152 0.95725 -0.37800
O 	O 	0.78966 0.42207 0.92303 -0.37100
C 	C 	0.83012 0.44100 0.53351 0.30900
O 	O 	0.79115 0.43074 0.51671 -0.37600
O 	O 	0.80798 0.41116 0.55296 -0.37200
C 	C 	0.89706 0.89360 0.69842 0.32800
C 	C 	0.88931 0.86404 0.76337 0.30100
C 	C 	0.94756 0.08390 0.70714 0.34400
C 	C 	0.93852 0.06107 0.77413 0.28700
Ni	Ni	0.89122 0.97074 0.73624 1.12200
O 	O 	0.90420 0.05298 0.72281 -0.38900
O 	O 	0.92429 0.87242 0.71255 -0.36900
O 	O 	0.88708 0.94054 0.70397 -0.38400
O 	O 	0.98313 0.10160 0.75979 -0.37000
O 	O 	0.89124 0.00563 0.76711 -0.37900
O 	O 	0.94831 0.87546 0.75921 -0.36100
O 	O 	0.85848 0.88054 0.74858 -0.37300
C 	C 	0.89631 0.01156 0.28023 0.28600
C 	C 	0.85401 0.97348 0.21652 0.32700
Ni	Ni	0.96611 0.08190 0.23828 1.11700
Ni	Ni	0.92483 0.93390 0.24738 1.12200
O 	O 	0.93171 0.06930 0.27137 -0.36200
O 	O 	0.87179 0.96019 0.26721 -0.37100
O 	O 	0.87140 0.02290 0.22958 -0.37400
O 	O 	0.87888 0.93615 0.21893 -0.38200
O 	O 	0.98974 0.02024 0.24483 -0.70300
H 	H 	0.00110 0.02973 0.26089 0.14100
C 	C 	0.76976 0.94983 0.18439 0.05400
C 	C 	0.80805 0.96064 0.19914 -0.10300
C 	C 	0.87179 0.00548 0.30338 -0.07700
C 	C 	0.81468 0.00606 0.30731 0.01900
C 	C 	0.87355 0.97772 0.34283 -0.06000
C 	C 	0.90186 0.99259 0.32129 0.01300
H 	H 	0.79122 0.01607 0.29356 0.03800
H 	H 	0.89626 0.96617 0.35642 0.05100
H 	H 	0.94613 0.99222 0.31838 0.03700
C 	C 	0.98414 0.47467 0.50498 -0.00800
C 	C 	0.00921 0.55202 0.53497 -0.07200
C 	C 	0.94422 0.52351 0.54078 0.04100
C 	C 	0.89901 0.47047 0.52854 -0.08300
C 	C 	0.91953 0.44590 0.51093 0.00800
C 	C 	0.00354 0.44980 0.48620 0.06800
C 	C 	0.92417 0.55027 0.55875 0.07400
N 	N 	0.90806 0.57169 0.57314 -0.10800
N 	N 	0.01915 0.42994 0.47116 -0.11200
H 	H 	0.88492 0.40461 0.50169 0.03400
C 	C 	0.77008 0.23270 0.55901 -0.07900
C 	C 	0.82132 0.18141 0.58980 0.02800
C 	C 	0.86205 0.23384 0.57624 -0.06100
C 	C 	0.83648 0.25919 0.56076 0.01700
C 	C 	0.84612 0.16612 0.61030 0.00500
C 	C 	0.88733 0.14077 0.60850 -0.03800
C 	C 	0.91038 0.12620 0.62807 -0.02800
C 	C 	0.89255 0.13718 0.64951 -0.00600
C 	C 	0.85202 0.16318 0.65129 -0.02900
C 	C 	0.82893 0.17766 0.63179 -0.03800
C 	C 	0.91358 0.11937 0.66970 0.05700
C 	C 	0.92983 0.10380 0.68677 -0.10400
H 	H 	0.91316 0.25752 0.57877 0.05500
H 	H 	0.86809 0.30262 0.55166 0.04400
H 	H 	0.90109 0.13196 0.59199 0.04600
H 	H 	0.94164 0.10601 0.62655 0.04700
H 	H 	0.83803 0.17178 0.66780 0.04400
C 	C 	0.76365 0.70318 0.60638 0.00500
C 	C 	0.82725 0.72369 0.61230 -0.03800
C 	C 	0.85620 0.76826 0.62944 -0.02800
C 	C 	0.82182 0.79247 0.64088 -0.00600
C 	C 	0.75950 0.77473 0.63422 -0.02900
C 	C 	0.84801 0.82982 0.66089 0.05400
C 	C 	0.87033 0.85960 0.67792 -0.10300
H 	H 	0.85328 0.70300 0.60430 0.04800
H 	H 	0.90453 0.78209 0.63443 0.04600
C 	C 	0.93029 0.51877 0.98330 -0.04800
C 	C 	0.97560 0.56973 0.96999 0.04600
C 	C 	0.95763 0.58354 0.94907 -0.06600
C 	C 	0.89593 0.54465 0.94077 0.03400
C 	C 	0.85222 0.49063 0.95334 -0.08600
C 	C 	0.86906 0.47962 0.97494 0.02100
C 	C 	0.02753 0.67780 0.00071 0.06900
C 	C 	0.94711 0.50499 0.00525 0.10100
C 	C 	0.87735 0.56147 0.91974 0.07600
N 	N 	0.99686 0.69994 0.00654 -0.09800
N 	N 	0.86240 0.57494 0.90291 -0.11200
N 	N 	0.96066 0.49402 0.02282 -0.11100
H 	H 	0.83521 0.43896 0.98489 0.03400
H 	H 	0.99208 0.62367 0.93906 0.06100
C 	C 	0.93355 0.08330 0.79684 -0.07800
C 	C 	0.94575 0.14586 0.79993 0.01700
C 	C 	0.93394 0.16466 0.82093 -0.06200
C 	C 	0.91031 0.12123 0.83911 0.02800
C 	C 	0.90124 0.05965 0.83632 -0.06200
C 	C 	0.91253 0.04069 0.81526 0.01700
C 	C 	0.88873 0.13816 0.86013 0.00500
C 	C 	0.93010 0.19385 0.87180 -0.03700
C 	C 	0.90602 0.21767 0.88841 -0.03000
C 	C 	0.84059 0.18580 0.89353 -0.00100
C 	C 	0.80061 0.12681 0.88358 -0.03000
C 	C 	0.82447 0.10316 0.86687 -0.03600
C 	C 	0.81268 0.21978 0.90428 0.05000
C 	C 	0.78810 0.24932 0.91140 -0.08900
H 	H 	0.96206 0.17923 0.78587 0.04200
H 	H 	0.94093 0.21226 0.82285 0.05100
H 	H 	0.88379 0.02599 0.85030 0.05100
H 	H 	0.90392 0.99256 0.81316 0.03500
H 	H 	0.98014 0.22041 0.86716 0.04500
H 	H 	0.93748 0.26293 0.89622 0.04700
H 	H 	0.79222 0.05964 0.85822 0.04400
C 	C 	0.71490 0.64377 0.84616 0.00400
C 	C 	0.78176 0.67270 0.84574 -0.03800
C 	C 	0.81715 0.71910 0.82943 -0.03000
C 	C 	0.78608 0.73686 0.81338 -0.00300
C 	C 	0.71939 0.70876 0.81394 -0.03100
C 	C 	0.82251 0.78224 0.79585 0.04600
C 	C 	0.85319 0.81981 0.78110 -0.09400
H 	H 	0.71858 0.64941 0.89209 0.05300
H 	H 	0.80619 0.65838 0.85779 0.04800
H 	H 	0.86866 0.74059 0.82910 0.04600
