data_crystal

_cell_length_a 26.14236
_cell_length_b 26.37465
_cell_length_c 34.94046
_cell_angle_alpha 95.49247
_cell_angle_beta  95.49110
_cell_angle_gamma 125.82217

_symmetry_space_group_name_	'P 1'
_symmetry_space_group_name_H-M	'P 1'

loop_
_symmetry_equiv_pos_as_xyz
  x,y,z

loop_
_atom_site_label
_atom_site_type_symbol
_atom_site_fract_x
_atom_site_fract_y
_atom_site_fract_z
_atom_site_charge
C 	C 	0.96952 0.03439 0.99486 0.18600
N 	N 	0.93609 0.97027 0.99087 -0.09400
C 	C 	0.96750 0.94364 0.99104 0.20300
N 	N 	0.03236 0.98121 0.99478 -0.11400
C 	C 	0.06590 0.04521 0.99840 0.18500
N 	N 	0.03449 0.07188 0.99850 -0.13000
C 	C 	0.92474 0.98747 0.45697 0.22300
N 	N 	0.98891 0.02157 0.45770 -0.13900
C 	C 	0.01907 0.99418 0.46291 0.23100
N 	N 	0.98517 0.93278 0.46785 -0.12700
C 	C 	0.92107 0.89848 0.46724 0.20500
N 	N 	0.89077 0.92583 0.46181 -0.12500
Cu	Cu	0.64023 0.24729 0.00392 0.93600
Cu	Cu	0.67284 0.23471 0.91651 0.88600
Cu	Cu	0.67946 0.34639 0.95163 0.90500
Cu	Cu	0.65887 0.37482 0.03151 0.90400
C 	C 	0.67450 0.30228 0.08578 0.28300
O 	O 	0.55084 0.21980 0.00833 -0.32000
C 	C 	0.64464 0.29666 0.86582 0.28400
O 	O 	0.69980 0.34615 0.00569 -0.63900
O 	O 	0.62621 0.25197 0.94807 -0.63600
O 	O 	0.67103 0.19388 0.99857 -0.32600
O 	O 	0.73672 0.25035 0.95704 -0.42900
O 	O 	0.64963 0.33231 0.07741 -0.36500
O 	O 	0.73564 0.43821 0.95879 -0.34700
C 	C 	0.73724 0.47763 0.98614 0.34300
C 	C 	0.52968 0.25085 0.99548 0.33100
O 	O 	0.57060 0.30881 0.98929 -0.38200
O 	O 	0.69984 0.45710 0.01259 -0.37300
O 	O 	0.66774 0.25871 0.05905 -0.33700
C 	C 	0.72128 0.21229 0.98242 0.33600
O 	O 	0.67326 0.34644 0.89474 -0.35100
O 	O 	0.63066 0.24171 0.87199 -0.39400
H 	H 	0.74626 0.37002 0.01611 0.17800
H 	H 	0.58079 0.22965 0.93558 0.19800
Cu	Cu	0.72610 0.32899 0.45152 0.93500
Cu	Cu	0.72408 0.27701 0.53349 0.88600
Cu	Cu	0.61938 0.28245 0.49896 0.90400
Cu	Cu	0.60222 0.31814 0.42264 0.90700
C 	C 	0.68617 0.31820 0.36970 0.28700
O 	O 	0.75693 0.42047 0.45390 -0.31700
C 	C 	0.66014 0.30229 0.58478 0.28600
O 	O 	0.62562 0.27091 0.44505 -0.63900
O 	O 	0.71484 0.33252 0.50656 -0.63700
O 	O 	0.77652 0.29423 0.45471 -0.35400
O 	O 	0.71042 0.21997 0.48928 -0.40000
O 	O 	0.65397 0.33990 0.38006 -0.36300
O 	O 	0.52670 0.23012 0.48794 -0.37200
C 	C 	0.49125 0.23813 0.46343 0.34300
C 	C 	0.72488 0.43994 0.46793 0.32400
O 	O 	0.66470 0.39768 0.47083 -0.38300
O 	O 	0.51371 0.27047 0.43484 -0.34400
O 	O 	0.72050 0.31155 0.39614 -0.33900
C 	C 	0.75253 0.23955 0.46609 0.34100
O 	O 	0.61264 0.27891 0.55471 -0.36400
O 	O 	0.71472 0.31262 0.58002 -0.39400
H 	H 	0.60114 0.22592 0.43181 0.18800
H 	H 	0.73792 0.37592 0.52215 0.19200
C 	C 	0.63714 0.30546 0.82521 -0.05300
C 	C 	0.58132 0.25827 0.79804 0.01000
C 	C 	0.57793 0.26168 0.75828 -0.04000
C 	C 	0.63243 0.31032 0.74483 0.01200
C 	C 	0.68590 0.36152 0.77281 0.02400
C 	C 	0.68804 0.35858 0.81281 -0.01200
C 	C 	0.73706 0.41455 0.76055 -0.03000
C 	C 	0.73752 0.41596 0.72082 -0.02900
C 	C 	0.68835 0.36315 0.69254 0.02000
C 	C 	0.63527 0.30936 0.70417 0.01400
C 	C 	0.58964 0.25441 0.67534 -0.04000
C 	C 	0.59553 0.25422 0.63601 0.01200
C 	C 	0.64823 0.30722 0.62479 -0.05800
C 	C 	0.69376 0.36200 0.65288 -0.01100
H 	H 	0.54034 0.21897 0.80774 0.05500
H 	H 	0.53235 0.22822 0.73866 0.06000
H 	H 	0.73035 0.39629 0.83405 0.06800
H 	H 	0.77699 0.45474 0.78192 0.06600
H 	H 	0.77768 0.45740 0.71200 0.06200
H 	H 	0.55207 0.21049 0.68325 0.05800
H 	H 	0.56087 0.21128 0.61449 0.05400
H 	H 	0.73475 0.40286 0.64411 0.05700
C 	C 	0.69442 0.30531 0.12727 -0.05200
C 	C 	0.73699 0.36467 0.15221 0.01000
C 	C 	0.74614 0.36877 0.19274 -0.03900
C 	C 	0.70965 0.31339 0.20894 0.01400
C 	C 	0.67356 0.25322 0.18374 0.02300
C 	C 	0.66536 0.24947 0.14293 -0.00900
C 	C 	0.64531 0.19761 0.19953 -0.02900
C 	C 	0.64998 0.20096 0.23996 -0.02900
C 	C 	0.67942 0.25952 0.26514 0.02300
C 	C 	0.70825 0.31635 0.24972 0.01400
C 	C 	0.72913 0.37318 0.27453 -0.03900
C 	C 	0.72463 0.37395 0.31403 0.01400
C 	C 	0.69778 0.31817 0.32939 -0.05100
C 	C 	0.67646 0.26134 0.30520 -0.01400
H 	H 	0.76247 0.40782 0.14016 0.04300
H 	H 	0.78296 0.41450 0.21112 0.06100
H 	H 	0.63435 0.20339 0.12354 0.07000
H 	H 	0.61951 0.15157 0.18043 0.06500
H 	H 	0.62815 0.15746 0.25161 0.06200
H 	H 	0.74487 0.41572 0.26305 0.06100
H 	H 	0.74016 0.41776 0.33251 0.06000
H 	H 	0.65469 0.21798 0.31706 0.05700
C 	C 	0.80934 0.71907 0.44374 -0.11700
C 	C 	0.82855 0.70401 0.47702 0.01000
C 	C 	0.87429 0.75300 0.50845 0.30800
C 	C 	0.90244 0.81655 0.50587 -0.07700
C 	C 	0.88468 0.83170 0.47210 -0.07500
C 	C 	0.83704 0.78262 0.44134 0.35700
C 	C 	0.80287 0.63724 0.47812 0.02000
F 	F 	0.89204 0.73904 0.54125 -0.40800
H 	H 	0.93894 0.85413 0.52981 0.11300
F 	F 	0.81959 0.79662 0.40845 -0.40500
H 	H 	0.77402 0.68159 0.41938 0.13400
C 	C 	0.73708 0.59111 0.47709 0.29300
C 	C 	0.71217 0.52718 0.47511 -0.05900
C 	C 	0.75276 0.50855 0.47432 -0.13500
C 	C 	0.81926 0.55542 0.47731 0.37100
C 	C 	0.84391 0.61924 0.47876 -0.13400
F 	F 	0.69717 0.60817 0.47759 -0.40500
H 	H 	0.66104 0.49196 0.47335 0.10500
F 	F 	0.86003 0.53932 0.47895 -0.42500
H 	H 	0.89487 0.65468 0.48000 0.13800
C 	C 	0.75432 0.09873 0.43968 -0.13700
C 	C 	0.82037 0.12773 0.44820 0.02000
C 	C 	0.86431 0.19442 0.45818 0.29000
C 	C 	0.84207 0.23144 0.46144 -0.05400
C 	C 	0.77586 0.20213 0.45517 -0.14600
C 	C 	0.73208 0.13567 0.44321 0.37500
C 	C 	0.84323 0.08810 0.44877 0.00600
F 	F 	0.92839 0.22313 0.46619 -0.40900
H 	H 	0.87623 0.28264 0.47054 0.09900
F 	F 	0.66795 0.10683 0.43573 -0.43400
H 	H 	0.72018 0.04743 0.43123 0.13300
C 	C 	0.83129 0.05121 0.47791 0.31000
C 	C 	0.85569 0.01616 0.47954 -0.09200
C 	C 	0.89268 0.01809 0.45232 -0.08500
C 	C 	0.90304 0.05355 0.42249 0.35700
C 	C 	0.87832 0.08830 0.42074 -0.11800
F 	F 	0.79747 0.05068 0.50524 -0.41700
H 	H 	0.84752 0.98908 0.50267 0.12500
F 	F 	0.93718 0.05442 0.39528 -0.41000
H 	H 	0.88701 0.11593 0.39787 0.13300
C 	C 	0.17791 0.04231 0.43906 -0.11700
C 	C 	0.22104 0.10045 0.46523 0.00900
C 	C 	0.19755 0.12397 0.49029 0.30600
C 	C 	0.13145 0.08950 0.48915 -0.07200
C 	C 	0.08839 0.03100 0.46331 -0.09000
C 	C 	0.11187 0.00755 0.43819 0.35000
C 	C 	0.29070 0.13674 0.46614 0.02200
F 	F 	0.23883 0.17984 0.51602 -0.40800
H 	H 	0.11372 0.10781 0.50871 0.11200
F 	F 	0.07064 0.95160 0.41253 -0.39700
H 	H 	0.19562 0.02416 0.41937 0.13100
C 	C 	0.32322 0.11182 0.47824 0.29000
C 	C 	0.38871 0.14517 0.47759 -0.05300
C 	C 	0.42250 0.20399 0.46513 -0.13700
C 	C 	0.39011 0.22956 0.45388 0.37600
C 	C 	0.32444 0.19576 0.45411 -0.13400
F 	F 	0.29129 0.05525 0.49057 -0.41100
H 	H 	0.41301 0.12491 0.48635 0.10200
F 	F 	0.42241 0.28752 0.44331 -0.42300
H 	H 	0.29971 0.21540 0.44489 0.14000
C 	C 	0.84947 0.77428 0.00495 -0.11300
C 	C 	0.86952 0.74333 0.98337 0.00500
C 	C 	0.91959 0.77761 0.96277 0.31100
C 	C 	0.95021 0.84264 0.96440 -0.07700
C 	C 	0.93147 0.87414 0.98690 -0.07000
C 	C 	0.88049 0.83946 0.00696 0.35900
C 	C 	0.83925 0.67550 0.98336 0.02200
F 	F 	0.93938 0.74813 0.94181 -0.41000
H 	H 	0.98898 0.86874 0.94850 0.11700
F 	F 	0.86254 0.86929 0.02949 -0.40500
H 	H 	0.81057 0.74797 0.02073 0.13400
C 	C 	0.84709 0.65582 0.01797 0.29300
C 	C 	0.81519 0.59111 0.01846 -0.04800
C 	C 	0.77578 0.54562 0.98434 -0.14400
C 	C 	0.76955 0.56544 0.94938 0.37900
C 	C 	0.80103 0.63017 0.94899 -0.13700
F 	F 	0.88521 0.69941 0.05117 -0.40400
H 	H 	0.82056 0.57623 0.04547 0.09300
F 	F 	0.73106 0.52188 0.91622 -0.42900
H 	H 	0.79487 0.64505 0.92216 0.13600
C 	C 	0.76664 0.10400 0.00323 -0.14700
C 	C 	0.83168 0.14202 0.00013 0.02900
C 	C 	0.86157 0.20497 0.99482 0.29500
C 	C 	0.82608 0.22888 0.99122 -0.05700
C 	C 	0.76016 0.18989 0.99231 -0.14500
C 	C 	0.73086 0.12764 0.99924 0.36900
C 	C 	0.86684 0.11420 0.99911 -0.00400
F 	F 	0.92444 0.24221 0.99170 -0.39900
H 	H 	0.84944 0.27725 0.98655 0.09800
F 	F 	0.66719 0.08907 0.00025 -0.42400
H 	H 	0.74336 0.05549 0.00758 0.12900
C 	C 	0.91859 0.13581 0.02925 0.32900
C 	C 	0.95298 0.11061 0.02738 -0.08200
C 	C 	0.93542 0.06310 0.99571 -0.06700
C 	C 	0.88357 0.04142 0.96564 0.33900
C 	C 	0.84958 0.06699 0.96733 -0.12200
F 	F 	0.93520 0.18085 0.06040 -0.39700
H 	H 	0.99259 0.12723 0.05085 0.12200
F 	F 	0.86670 0.99617 0.93454 -0.40400
H 	H 	0.81004 0.05045 0.94383 0.11700
C 	C 	0.34903 0.13330 0.98089 -0.14700
C 	C 	0.33271 0.17311 0.99417 0.02000
C 	C 	0.38080 0.23881 0.00604 0.30400
C 	C 	0.44490 0.26429 0.00540 -0.05100
C 	C 	0.46158 0.22428 0.99314 -0.14300
C 	C 	0.41317 0.15869 0.98032 0.37500
C 	C 	0.26577 0.14543 0.99750 0.00300
F 	F 	0.36557 0.27771 0.01910 -0.39700
H 	H 	0.48183 0.31491 0.01541 0.09600
F 	F 	0.42821 0.11968 0.96713 -0.43400
H 	H 	0.31201 0.08258 0.97137 0.12600
C 	C 	0.22806 0.15328 0.97101 0.32200
C 	C 	0.16334 0.12339 0.97280 -0.08900
C 	C 	0.13579 0.08505 0.00078 -0.06800
C 	C 	0.17425 0.07934 0.02823 0.34800
C 	C 	0.23895 0.10943 0.02655 -0.12400
F 	F 	0.25366 0.18833 0.94289 -0.40100
H 	H 	0.13402 0.12805 0.95151 0.11800
F 	F 	0.14860 0.04380 0.05614 -0.41300
H 	H 	0.26806 0.10398 0.04744 0.12300
