data_crystal

_cell_length_a 26.14375
_cell_length_b 26.54303
_cell_length_c 35.04702
_cell_angle_alpha 95.49542
_cell_angle_beta  95.49307
_cell_angle_gamma 125.84476

_symmetry_space_group_name_	'P 1'
_symmetry_space_group_name_H-M	'P 1'

loop_
_symmetry_equiv_pos_as_xyz
  x,y,z

loop_
_atom_site_label
_atom_site_type_symbol
_atom_site_fract_x
_atom_site_fract_y
_atom_site_fract_z
_atom_site_charge
C 	C 	0.97660 0.01890 0.98487 0.04100
C 	C 	0.03916 0.05657 0.97706 -0.06900
C 	C 	0.07404 0.03198 0.97441 0.04000
C 	C 	0.04532 0.96894 0.97790 -0.06800
C 	C 	0.98255 0.93090 0.98502 0.04300
C 	C 	0.94915 0.95668 0.98994 -0.06700
H 	H 	0.06065 0.10478 0.97327 0.06500
H 	H 	0.07193 0.94963 0.97524 0.06300
H 	H 	0.90122 0.92785 0.99656 0.06300
C 	C 	0.91923 0.00632 0.46371 0.03700
C 	C 	0.98632 0.04327 0.46829 -0.06500
C 	C 	0.01774 0.01527 0.47261 0.03400
C 	C 	0.98202 0.95015 0.47223 -0.06100
C 	C 	0.91480 0.91272 0.46695 0.04000
C 	C 	0.88339 0.94091 0.46289 -0.06500
H 	H 	0.01399 0.09369 0.46861 0.06100
H 	H 	0.00637 0.92849 0.47553 0.06400
H 	H 	0.83146 0.91217 0.45906 0.06200
Cu	Cu	0.65829 0.24419 0.00530 0.93100
Cu	Cu	0.66995 0.20677 0.91346 0.88900
Cu	Cu	0.71117 0.34293 0.95310 0.90900
Cu	Cu	0.67173 0.37036 0.02856 0.90800
C 	C 	0.66736 0.29088 0.08600 0.32900
O 	O 	0.56519 0.20735 0.00433 -0.34800
C 	C 	0.68364 0.29816 0.86899 0.33700
O 	O 	0.71486 0.34161 0.00737 -0.64300
O 	O 	0.64855 0.24894 0.94885 -0.63400
O 	O 	0.70456 0.20511 0.00750 -0.34400
O 	O 	0.66072 0.14915 0.94513 -0.40300
O 	O 	0.67943 0.34509 0.07950 -0.35400
O 	O 	0.76910 0.43404 0.96205 -0.36000
C 	C 	0.76010 0.46907 0.98555 0.28700
C 	C 	0.54253 0.23874 0.99588 0.28900
O 	O 	0.58156 0.29655 0.98939 -0.36600
O 	O 	0.70659 0.44260 0.99980 -0.36900
O 	O 	0.67606 0.25655 0.06124 -0.33500
C 	C 	0.70128 0.16845 0.97778 0.28800
O 	O 	0.72539 0.34281 0.89915 -0.37300
O 	O 	0.65002 0.23791 0.87155 -0.38800
H 	H 	0.75946 0.36435 0.02167 0.17700
H 	H 	0.60496 0.23529 0.93819 0.17700
Cu	Cu	0.71896 0.34432 0.45260 0.93200
Cu	Cu	0.72694 0.30409 0.53702 0.88000
Cu	Cu	0.62327 0.31211 0.50646 0.90200
Cu	Cu	0.58921 0.32467 0.42625 0.90600
C 	C 	0.66489 0.31496 0.37109 0.33700
O 	O 	0.74538 0.43243 0.44895 -0.34000
C 	C 	0.67004 0.33558 0.59091 0.33000
O 	O 	0.61965 0.28592 0.45252 -0.63800
O 	O 	0.71729 0.35808 0.50858 -0.63900
O 	O 	0.77210 0.31302 0.45640 -0.35400
O 	O 	0.71118 0.24369 0.49457 -0.42100
O 	O 	0.63299 0.33718 0.38054 -0.35900
O 	O 	0.53105 0.26164 0.50265 -0.36300
C 	C 	0.49072 0.26188 0.47702 0.29600
C 	C 	0.71337 0.45249 0.46192 0.28600
O 	O 	0.65520 0.41164 0.46855 -0.38100
O 	O 	0.50414 0.27814 0.44277 -0.36800
O 	O 	0.70549 0.31670 0.39769 -0.34200
C 	C 	0.75078 0.26085 0.46993 0.29300
O 	O 	0.63018 0.33289 0.56298 -0.35400
O 	O 	0.72263 0.34305 0.58410 -0.39200
H 	H 	0.59488 0.23964 0.44374 0.18600
H 	H 	0.74345 0.40283 0.52204 0.18800
C 	C 	0.66066 0.33975 0.63151 -0.11700
C 	C 	0.70483 0.39625 0.65881 0.12800
C 	C 	0.70606 0.39582 0.69900 0.06600
C 	C 	0.66256 0.33901 0.71176 0.01800
C 	C 	0.61357 0.28450 0.68433 0.06600
C 	C 	0.61258 0.28492 0.64416 0.12100
C 	C 	0.67277 0.33456 0.75327 0.01800
C 	C 	0.71230 0.31724 0.76600 0.06500
C 	C 	0.71790 0.30780 0.80452 0.12800
C 	C 	0.68346 0.31496 0.83023 -0.12100
C 	C 	0.64628 0.33509 0.81811 0.12600
C 	C 	0.64097 0.34497 0.77961 0.06700
Br	Br	0.54972 0.20865 0.70194 -0.15400
Br	Br	0.76311 0.47403 0.64100 -0.17700
Br	Br	0.77300 0.28531 0.82225 -0.20700
Br	Br	0.58950 0.37178 0.76268 -0.14500
Br	Br	0.54705 0.20972 0.60645 -0.19900
Br	Br	0.76881 0.47215 0.73665 -0.14600
Br	Br	0.75779 0.30536 0.73033 -0.16100
Br	Br	0.60199 0.34812 0.85414 -0.20100
C 	C 	0.66124 0.27809 0.12603 -0.10900
C 	C 	0.71039 0.28157 0.14986 0.12700
C 	C 	0.70854 0.27810 0.18958 0.06700
C 	C 	0.65948 0.27420 0.20596 0.01800
C 	C 	0.60863 0.26716 0.18181 0.06800
C 	C 	0.60955 0.26925 0.14191 0.12400
C 	C 	0.66520 0.28477 0.24895 0.01800
C 	C 	0.63560 0.23294 0.26835 0.06800
C 	C 	0.63723 0.24297 0.30878 0.12200
C 	C 	0.66872 0.30479 0.32978 -0.11400
C 	C 	0.70139 0.35683 0.31078 0.12800
C 	C 	0.69897 0.34680 0.27032 0.06500
Br	Br	0.53881 0.25676 0.20381 -0.15200
Br	Br	0.78304 0.29654 0.12912 -0.16700
Br	Br	0.59561 0.17214 0.33537 -0.18700
Br	Br	0.74089 0.41788 0.24390 -0.15100
Br	Br	0.54130 0.26257 0.10928 -0.19400
Br	Br	0.77425 0.28066 0.22201 -0.14500
Br	Br	0.59228 0.14835 0.23938 -0.14400
Br	Br	0.75049 0.44193 0.34042 -0.16900
C 	C 	0.82830 0.63119 0.48583 -0.03600
C 	C 	0.79167 0.64783 0.46667 0.03200
C 	C 	0.72910 0.60022 0.44634 -0.05500
C 	C 	0.70296 0.53631 0.44456 0.03400
C 	C 	0.73936 0.51954 0.46405 -0.07100
C 	C 	0.80191 0.56725 0.48453 0.01900
C 	C 	0.81965 0.71505 0.46604 0.00900
C 	C 	0.84390 0.74045 0.43323 -0.03500
C 	C 	0.87239 0.80431 0.43247 -0.01400
C 	C 	0.87738 0.84360 0.46504 0.00200
C 	C 	0.85113 0.81769 0.49732 -0.03200
C 	C 	0.82210 0.75362 0.49793 -0.01600
C 	C 	0.89637 0.82922 0.39816 0.09000
C 	C 	0.79537 0.72792 0.53145 0.09500
C 	C 	0.89316 0.67945 0.50657 0.10400
C 	C 	0.63995 0.48837 0.42125 0.08200
N 	N 	0.91562 0.84923 0.37070 -0.10300
N 	N 	0.77397 0.70728 0.55830 -0.09800
N 	N 	0.58950 0.44998 0.40257 -0.10700
N 	N 	0.94512 0.71816 0.52317 -0.10200
H 	H 	0.83011 0.55456 0.49935 0.04600
H 	H 	0.70117 0.61301 0.43130 0.06400
H 	H 	0.84099 0.71053 0.40842 0.06000
H 	H 	0.85447 0.84771 0.52227 0.05800
C 	C 	0.86193 0.21487 0.46401 -0.03900
C 	C 	0.81756 0.14840 0.45352 0.03100
C 	C 	0.75179 0.12003 0.44347 -0.05700
C 	C 	0.72966 0.15701 0.44590 0.03300
C 	C 	0.77367 0.22309 0.45915 -0.07800
C 	C 	0.83978 0.25185 0.46668 0.01400
C 	C 	0.83930 0.10795 0.45520 0.00700
C 	C 	0.84791 0.09146 0.49083 -0.03500
C 	C 	0.87173 0.05617 0.49362 -0.01500
C 	C 	0.88672 0.03666 0.46037 0.00200
C 	C 	0.87619 0.05146 0.42445 -0.03300
C 	C 	0.85267 0.08704 0.42171 -0.01600
C 	C 	0.88194 0.04128 0.53086 0.09000
C 	C 	0.84344 0.10284 0.38463 0.09400
C 	C 	0.93012 0.24532 0.47267 0.10000
C 	C 	0.66186 0.12695 0.43431 0.09000
N 	N 	0.89016 0.02933 0.56068 -0.10200
N 	N 	0.83604 0.11553 0.35494 -0.09600
N 	N 	0.60755 0.10288 0.42502 -0.09500
N 	N 	0.98475 0.26966 0.47960 -0.10500
H 	H 	0.87382 0.30276 0.47616 0.04400
H 	H 	0.71778 0.06905 0.43437 0.06300
H 	H 	0.83707 0.10705 0.51652 0.05400
H 	H 	0.88768 0.03644 0.39885 0.05500
C 	C 	0.32499 0.13742 0.49498 -0.03700
C 	C 	0.29269 0.16367 0.48552 0.03100
C 	C 	0.32708 0.22478 0.47701 -0.05600
C 	C 	0.39265 0.25865 0.47595 0.03000
C 	C 	0.42422 0.23091 0.48319 -0.07000
C 	C 	0.39050 0.17113 0.49380 0.01900
C 	C 	0.22212 0.12592 0.48200 0.00800
C 	C 	0.19616 0.12969 0.51441 -0.03500
C 	C 	0.12945 0.09380 0.51171 -0.01400
C 	C 	0.08819 0.05387 0.47614 0.00300
C 	C 	0.11420 0.05027 0.44373 -0.03400
C 	C 	0.18084 0.08608 0.44644 -0.01600
C 	C 	0.10367 0.09770 0.54559 0.09100
C 	C 	0.20659 0.08163 0.41268 0.09300
C 	C 	0.29091 0.07541 0.50517 0.10500
C 	C 	0.42740 0.32215 0.46804 0.08400
N 	N 	0.08294 0.10079 0.57271 -0.10000
N 	N 	0.22728 0.07809 0.38565 -0.10100
N 	N 	0.45525 0.37302 0.46170 -0.09800
N 	N 	0.26355 0.02572 0.51332 -0.10200
H 	H 	0.41480 0.15003 0.49995 0.05600
H 	H 	0.30246 0.24546 0.47051 0.06200
H 	H 	0.22793 0.16031 0.54177 0.05900
H 	H 	0.08246 0.01954 0.41638 0.05500
C 	C 	0.95525 0.78529 0.01527 -0.01900
C 	C 	0.89866 0.73638 0.98883 0.01100
C 	C 	0.86878 0.75150 0.96178 -0.03400
C 	C 	0.89590 0.81470 0.95999 -0.01200
C 	C 	0.95170 0.86369 0.98705 0.00100
C 	C 	0.98057 0.84848 0.01481 -0.03100
C 	C 	0.86957 0.66903 0.98964 0.03100
C 	C 	0.84262 0.64346 0.02179 -0.05600
C 	C 	0.81123 0.57908 0.02208 0.02900
C 	C 	0.80254 0.53861 0.98865 -0.07100
C 	C 	0.83177 0.56473 0.95711 0.01600
C 	C 	0.86614 0.62977 0.95777 -0.03700
C 	C 	0.79061 0.55555 0.05734 0.07600
C 	C 	0.89807 0.65594 0.92577 0.10400
C 	C 	0.98851 0.77108 0.04224 0.09300
C 	C 	0.86760 0.82888 0.92942 0.09100
N 	N 	0.77415 0.53675 0.08559 -0.10400
N 	N 	0.92366 0.67695 0.90014 -0.09800
N 	N 	0.84496 0.84027 0.90495 -0.10200
N 	N 	0.01513 0.75966 0.06384 -0.10200
H 	H 	0.02362 0.88602 0.03551 0.05200
H 	H 	0.82507 0.71389 0.94157 0.06000
H 	H 	0.84644 0.67388 0.04670 0.06300
H 	H 	0.82678 0.53430 0.93175 0.06200
C 	C 	0.84457 0.03508 0.95630 -0.01200
C 	C 	0.86182 0.08584 0.98528 0.00700
C 	C 	0.91650 0.11420 0.01444 -0.03500
C 	C 	0.95439 0.09278 0.01470 -0.01400
C 	C 	0.93800 0.04301 0.98511 0.00400
C 	C 	0.88308 0.01449 0.95609 -0.03900
C 	C 	0.82342 0.11031 0.98490 0.03300
C 	C 	0.77982 0.09293 0.01038 -0.06000
C 	C 	0.74012 0.11231 0.00874 0.03700
C 	C 	0.74370 0.14906 0.98109 -0.08400
C 	C 	0.78809 0.16731 0.95611 0.01500
C 	C 	0.82846 0.14884 0.95819 -0.04000
C 	C 	0.69496 0.09314 0.03491 0.09300
C 	C 	0.87500 0.16961 0.93286 0.10000
C 	C 	0.78718 0.00366 0.92681 0.08900
C 	C 	0.00919 0.12122 0.04579 0.08600
N 	N 	0.65880 0.07782 0.05588 -0.08700
N 	N 	0.91228 0.18620 0.91258 -0.10300
N 	N 	0.05312 0.14398 0.07068 -0.10400
N 	N 	0.74120 0.97854 0.90321 -0.09700
H 	H 	0.87015 0.97592 0.93350 0.06300
H 	H 	0.92948 0.15293 0.03690 0.05800
H 	H 	0.77624 0.06362 0.03110 0.06400
H 	H 	0.79140 0.19622 0.93516 0.01900
C 	C 	0.38312 0.20368 0.95573 -0.03500
C 	C 	0.34128 0.15573 0.97552 0.02800
C 	C 	0.36419 0.13084 0.99931 -0.05000
C 	C 	0.42916 0.15548 0.00517 0.02800
C 	C 	0.47205 0.20563 0.98660 -0.06900
C 	C 	0.44787 0.22780 0.96096 0.01100
C 	C 	0.27359 0.13229 0.97241 0.01100
C 	C 	0.22825 0.08860 0.93931 -0.03600
C 	C 	0.16280 0.05969 0.93806 -0.01300
C 	C 	0.14225 0.07326 0.97069 0.00100
C 	C 	0.18802 0.12058 0.00249 -0.03300
C 	C 	0.25355 0.15031 0.00344 -0.01800
C 	C 	0.11692 0.01574 0.90339 0.08600
C 	C 	0.29991 0.19850 0.03662 0.09600
C 	C 	0.36026 0.22934 0.93061 0.10200
C 	C 	0.45109 0.12933 0.03053 0.10200
N 	N 	0.08011 0.98050 0.87564 -0.09600
N 	N 	0.33711 0.23710 0.06318 -0.09500
N 	N 	0.46847 0.10821 0.05084 -0.08700
N 	N 	0.34190 0.24986 0.91050 -0.10000
H 	H 	0.47980 0.26474 0.94560 0.05500
H 	H 	0.33153 0.09301 0.01393 0.06200
H 	H 	0.24385 0.07616 0.91490 0.05800
H 	H 	0.17241 0.13222 0.02722 0.05600
