data_crystal

_cell_length_a 20.43130
_cell_length_b 20.59276
_cell_length_c 47.98728
_cell_angle_alpha 89.94443
_cell_angle_beta  89.95413
_cell_angle_gamma 119.94858

_symmetry_space_group_name_	'P 1'
_symmetry_space_group_name_H-M	'P 1'

loop_
_symmetry_equiv_pos_as_xyz
  x,y,z

loop_
_atom_site_label
_atom_site_type_symbol
_atom_site_fract_x
_atom_site_fract_y
_atom_site_fract_z
_atom_site_charge
C 	C 	0.68157 0.47203 0.96187 0.30100
C 	C 	0.50776 0.15848 0.92729 0.32700
C 	C 	0.70948 0.31437 0.98063 0.32700
C 	C 	0.46933 0.29446 0.90322 0.29200
C 	C 	0.73740 0.27055 0.89122 0.33100
C 	C 	0.72280 0.44520 0.87316 0.30100
Ni	Ni	0.57287 0.30785 0.95343 1.12300
Ni	Ni	0.60321 0.28571 0.88831 1.12000
Ni	Ni	0.74220 0.38973 0.92731 1.13100
O 	O 	0.60899 0.41978 0.96096 -0.34600
O 	O 	0.73606 0.45499 0.95847 -0.34400
O 	O 	0.66378 0.23451 0.89286 -0.38500
O 	O 	0.55139 0.19981 0.94748 -0.35700
O 	O 	0.51310 0.18708 0.90224 -0.37700
O 	O 	0.75518 0.46440 0.89804 -0.37000
O 	O 	0.64904 0.32008 0.98491 -0.34600
O 	O 	0.73013 0.31103 0.95517 -0.35800
O 	O 	0.68327 0.37350 0.86503 -0.37300
O 	O 	0.47580 0.28815 0.93068 -0.34000
O 	O 	0.52874 0.32261 0.88646 -0.38100
O 	O 	0.77709 0.34117 0.89874 -0.36500
O 	O 	0.63592 0.34178 0.92185 -0.71500
H 	H 	0.63059 0.38522 0.91666 0.16400
C 	C 	0.69312 0.28687 0.64353 0.30400
C 	C 	0.74010 0.55410 0.58761 0.33100
C 	C 	0.56367 0.36781 0.63891 0.32700
C 	C 	0.86796 0.48124 0.58516 0.31000
C 	C 	0.56203 0.35004 0.54585 0.32200
C 	C 	0.66345 0.24795 0.55146 0.31500
Ni	Ni	0.72972 0.43962 0.62525 1.11400
Ni	Ni	0.72023 0.41704 0.55797 1.12600
Ni	Ni	0.59639 0.28869 0.59648 1.12800
O 	O 	0.74521 0.35877 0.64478 -0.36500
O 	O 	0.62298 0.26512 0.63513 -0.36500
O 	O 	0.62210 0.41318 0.55207 -0.37700
O 	O 	0.69552 0.50657 0.60593 -0.37500
O 	O 	0.76497 0.52959 0.56705 -0.34700
O 	O 	0.64416 0.23659 0.57796 -0.37300
O 	O 	0.63153 0.39717 0.64990 -0.36000
O 	O 	0.55454 0.35060 0.61259 -0.37700
O 	O 	0.68717 0.31479 0.53905 -0.35400
O 	O 	0.84122 0.49924 0.60780 -0.35200
O 	O 	0.82276 0.43206 0.56657 -0.37300
O 	O 	0.54653 0.28845 0.55955 -0.35000
O 	O 	0.69452 0.37489 0.59436 -0.71100
H 	H 	0.72715 0.35249 0.59574 0.17000
C 	C 	0.89509 0.07055 0.71737 0.29900
C 	C 	0.92293 0.84147 0.78119 0.30600
C 	C 	0.90067 0.05124 0.79149 0.30800
C 	C 	0.94218 0.87579 0.70249 0.29600
C 	C 	0.11782 0.06576 0.79401 0.32700
C 	C 	0.14827 0.10763 0.71684 0.29100
Ni	Ni	0.88336 0.93788 0.74770 1.11300
Ni	Ni	0.05205 0.95918 0.74768 1.11800
Ni	Ni	0.03124 0.10198 0.75431 1.11700
O 	O 	0.87294 0.99831 0.71524 -0.38000
O 	O 	0.94953 0.11625 0.73493 -0.37300
O 	O 	0.08577 0.99441 0.78712 -0.38300
O 	O 	0.89481 0.88618 0.78285 -0.37600
O 	O 	0.97683 0.85529 0.76305 -0.36800
O 	O 	0.09783 0.12994 0.72042 -0.38300
O 	O 	0.85471 0.00205 0.77321 -0.37300
O 	O 	0.97326 0.07501 0.79063 -0.38200
O 	O 	0.14487 0.05004 0.73108 -0.37300
O 	O 	0.88837 0.85900 0.72143 -0.36900
O 	O 	0.01501 0.91132 0.70961 -0.38000
O 	O 	0.12082 0.11523 0.77611 -0.39300
O 	O 	0.98760 0.00079 0.74339 -0.71400
H 	H 	0.99084 0.00844 0.72306 0.16400
C 	C 	0.23454 0.60217 0.43849 0.30800
C 	C 	0.41511 0.62871 0.33679 0.31100
C 	C 	0.28822 0.46816 0.40671 0.32700
C 	C 	0.35045 0.75773 0.36407 0.29100
C 	C 	0.52285 0.62758 0.41366 0.33500
C 	C 	0.48399 0.78200 0.44140 0.30900
Ni	Ni	0.29366 0.59765 0.37893 1.11400
Ni	Ni	0.47042 0.72078 0.38535 1.12300
Ni	Ni	0.38392 0.61282 0.43617 1.12900
O 	O 	0.21938 0.56693 0.41378 -0.35900
O 	O 	0.30154 0.62958 0.45064 -0.35900
O 	O 	0.54256 0.69612 0.40562 -0.37200
O 	O 	0.34633 0.61800 0.33937 -0.36100
O 	O 	0.45432 0.63863 0.35910 -0.37800
O 	O 	0.46765 0.71433 0.45108 -0.36300
O 	O 	0.30821 0.50625 0.38359 -0.37100
O 	O 	0.29994 0.50346 0.43065 -0.35400
O 	O 	0.49267 0.79761 0.41440 -0.36600
O 	O 	0.29017 0.69387 0.37139 -0.36700
O 	O 	0.41786 0.76263 0.35967 -0.36500
O 	O 	0.45326 0.58030 0.42073 -0.37400
O 	O 	0.37577 0.65712 0.40255 -0.71700
H 	H 	0.36288 0.69419 0.40973 0.17600
C 	C 	0.28409 0.78864 0.13454 0.30600
C 	C 	0.26608 0.49819 0.12655 0.33100
C 	C 	0.43565 0.73037 0.15102 0.30800
C 	C 	0.12582 0.54585 0.10475 0.31500
C 	C 	0.43521 0.66598 0.06684 0.32900
C 	C 	0.30497 0.73060 0.04362 0.32000
Ni	Ni	0.26858 0.63687 0.14143 1.11500
Ni	Ni	0.27267 0.59051 0.07705 1.12500
Ni	Ni	0.38421 0.75814 0.09686 1.12600
O 	O 	0.24007 0.72001 0.14433 -0.35900
O 	O 	0.35452 0.81134 0.12625 -0.36500
O 	O 	0.37704 0.60446 0.07649 -0.38200
O 	O 	0.30704 0.56168 0.13928 -0.38200
O 	O 	0.23976 0.49761 0.10152 -0.36900
O 	O 	0.32600 0.77279 0.06637 -0.37500
O 	O 	0.36904 0.71246 0.16125 -0.36900
O 	O 	0.44822 0.73892 0.12412 -0.36600
O 	O 	0.29252 0.66030 0.04366 -0.36200
O 	O 	0.15918 0.55291 0.12942 -0.36300
O 	O 	0.16446 0.56682 0.08093 -0.36100
O 	O 	0.43476 0.72966 0.06690 -0.37000
O 	O 	0.29503 0.66579 0.10429 -0.72000
H 	H 	0.25677 0.67972 0.09951 0.17100
C 	C 	0.09710 0.98519 0.21766 0.28800
C 	C 	0.04180 0.09479 0.32257 0.29000
C 	C 	0.10506 0.92902 0.29178 0.32700
C 	C 	0.05444 0.16536 0.24607 0.28600
C 	C 	0.83811 0.87947 0.29370 0.31100
C 	C 	0.84321 0.90970 0.23300 0.29700
Ni	Ni	0.10618 0.06631 0.27106 1.11300
Ni	Ni	0.93174 0.03282 0.27446 1.12200
Ni	Ni	0.96815 0.89885 0.25955 1.12300
O 	O 	0.12352 0.05242 0.22932 -0.37200
O 	O 	0.05412 0.92171 0.23187 -0.36700
O 	O 	0.87042 0.94990 0.30148 -0.38100
O 	O 	0.07949 0.06314 0.31289 -0.37200
O 	O 	0.99316 0.10238 0.30654 -0.35900
O 	O 	0.89655 0.89152 0.22901 -0.37600
O 	O 	0.14230 0.98983 0.27705 -0.37900
O 	O 	0.03074 0.89079 0.29127 -0.37000
O 	O 	0.85926 0.97643 0.24287 -0.37300
O 	O 	0.09935 0.16255 0.26500 -0.37700
O 	O 	0.98037 0.12343 0.24865 -0.36000
O 	O 	0.87932 0.84965 0.28617 -0.36900
O 	O 	0.00278 0.00305 0.26337 -0.71500
H 	H 	0.00158 0.01458 0.24351 0.14800
C 	C 	0.15563 0.31725 0.17771 0.01500
C 	C 	0.19347 0.28401 0.19024 -0.04900
C 	C 	0.15974 0.23342 0.21219 0.01400
C 	C 	0.22839 0.43160 0.14321 -0.10100
C 	C 	0.04846 0.24666 0.20849 0.00700
C 	C 	0.08251 0.29753 0.18653 -0.04600
C 	C 	0.19522 0.37823 0.15840 0.05300
C 	C 	0.08761 0.21554 0.22182 -0.07500
H 	H 	0.24992 0.29890 0.18351 0.05500
H 	H 	0.19010 0.20885 0.22195 0.03500
H 	H 	0.99268 0.23309 0.21556 0.05600
H 	H 	0.05292 0.32314 0.17693 0.05600
C 	C 	0.63293 0.79070 0.19911 0.02000
C 	C 	0.61873 0.74733 0.17506 -0.04800
C 	C 	0.55115 0.72237 0.16050 0.02200
C 	C 	0.77035 0.86421 0.22057 -0.08500
C 	C 	0.50942 0.78003 0.19498 0.01600
C 	C 	0.57694 0.80450 0.20966 -0.05100
C 	C 	0.70783 0.82913 0.21079 0.04500
C 	C 	0.49761 0.74149 0.16970 -0.07600
H 	H 	0.66125 0.73551 0.16699 0.06200
H 	H 	0.54174 0.69081 0.14142 0.05700
H 	H 	0.46822 0.79435 0.20252 0.04400
H 	H 	0.58706 0.83700 0.22854 0.05200
C 	C 	0.20675 0.92928 0.15595 0.02200
C 	C 	0.12833 0.89915 0.15435 -0.04800
C 	C 	0.09210 0.92420 0.17251 0.01500
C 	C 	0.26224 0.84355 0.14015 -0.07700
C 	C 	0.21356 0.01757 0.19081 0.01300
C 	C 	0.24968 0.99196 0.17281 -0.04800
C 	C 	0.23906 0.88511 0.14643 0.05000
C 	C 	0.13429 0.97987 0.19222 -0.06900
H 	H 	0.09480 0.85195 0.14078 0.06600
H 	H 	0.03096 0.89628 0.17277 0.04300
H 	H 	0.24698 0.06214 0.20539 0.04200
H 	H 	0.31055 0.01691 0.17369 0.05600
C 	C 	0.60713 0.74556 0.29305 0.01500
C 	C 	0.57554 0.66752 0.29426 -0.04800
C 	C 	0.49957 0.62209 0.30192 0.01900
C 	C 	0.75667 0.83342 0.29407 -0.09500
C 	C 	0.48346 0.73019 0.30270 0.00600
C 	C 	0.55949 0.77619 0.29511 -0.05500
C 	C 	0.68854 0.79394 0.29350 0.04600
C 	C 	0.45710 0.65526 0.31041 -0.08300
H 	H 	0.61080 0.64256 0.29123 0.06100
H 	H 	0.47782 0.56284 0.30553 0.05100
H 	H 	0.44860 0.75520 0.30630 0.04200
H 	H 	0.58212 0.83594 0.29256 0.05000
C 	C 	0.14060 0.25023 0.38925 0.01800
C 	C 	0.07073 0.23547 0.37843 -0.04400
C 	C 	0.03395 0.17930 0.35841 0.00400
C 	C 	0.23637 0.38903 0.40496 -0.08700
C 	C 	0.13098 0.14501 0.36308 0.01100
C 	C 	0.16781 0.20152 0.38296 -0.04600
C 	C 	0.19229 0.32434 0.39954 0.05300
C 	C 	0.06690 0.13737 0.34912 -0.06700
H 	H 	0.04800 0.27146 0.38378 0.05600
H 	H 	0.98235 0.17155 0.34902 0.05700
H 	H 	0.15505 0.11048 0.35732 0.04700
H 	H 	0.22069 0.21107 0.39180 0.05900
C 	C 	0.24285 0.86530 0.32957 0.01600
C 	C 	0.24657 0.86119 0.35855 -0.04400
C 	C 	0.29351 0.83766 0.37059 0.01600
C 	C 	0.14717 0.90039 0.30608 -0.09400
C 	C 	0.33955 0.83015 0.32488 0.01300
C 	C 	0.29216 0.85340 0.31279 -0.04900
C 	C 	0.18917 0.88268 0.31703 0.05000
C 	C 	0.33634 0.81681 0.35370 -0.06200
H 	H 	0.21053 0.87279 0.37173 0.06100
H 	H 	0.28957 0.82694 0.39279 0.06600
H 	H 	0.37318 0.81575 0.31156 0.03900
H 	H 	0.29180 0.85937 0.29036 0.05300
C 	C 	0.51127 0.84605 0.46076 -0.08600
C 	C 	0.50252 0.90796 0.45374 0.15300
C 	C 	0.54487 0.97613 0.46739 -0.08400
C 	C 	0.59125 0.98249 0.48981 0.02700
C 	C 	0.59812 0.92025 0.49776 0.08600
C 	C 	0.55882 0.85258 0.48304 -0.01100
H 	H 	0.53797 0.02333 0.46169 0.09300
C 	C 	0.61698 0.04758 0.50840 0.02900
H 	H 	0.56693 0.80598 0.48846 0.07700
C 	C 	0.56540 0.04698 0.52766 -0.08300
C 	C 	0.57644 0.11350 0.53936 0.15600
C 	C 	0.64463 0.18130 0.53443 -0.08100
C 	C 	0.69828 0.18163 0.51607 -0.00800
C 	C 	0.68416 0.11526 0.50269 0.08800
H 	H 	0.51305 0.99531 0.53165 0.08900
H 	H 	0.75101 0.23306 0.51234 0.07800
Br	Br	0.66143 0.92699 0.52842 -0.19600
Br	Br	0.43089 0.90025 0.42625 -0.21600
Br	Br	0.49385 0.11135 0.55944 -0.23000
Br	Br	0.75686 0.11791 0.47671 -0.18600
C 	C 	0.17234 0.59690 0.45577 -0.09100
C 	C 	0.18690 0.65663 0.47375 0.14700
C 	C 	0.14773 0.64262 0.49891 -0.08400
C 	C 	0.08723 0.57093 0.50488 0.02300
C 	C 	0.06354 0.51430 0.48440 0.08300
C 	C 	0.10785 0.52666 0.46042 -0.00900
H 	H 	0.16361 0.68785 0.51368 0.08400
C 	C 	0.04445 0.55849 0.53128 0.03100
H 	H 	0.09378 0.48094 0.44608 0.07000
C 	C 	0.01365 0.60412 0.53751 -0.10300
C 	C 	0.97135 0.59183 0.56177 0.16300
C 	C 	0.94839 0.52623 0.57747 -0.09900
C 	C 	0.98908 0.48825 0.57402 0.00500
C 	C 	0.03816 0.50501 0.55116 0.07500
H 	H 	0.02397 0.65021 0.52383 0.08600
H 	H 	0.97726 0.44127 0.58743 0.06500
Br	Br	0.96933 0.42206 0.48791 -0.18500
Br	Br	0.26149 0.75759 0.46445 -0.21200
Br	Br	0.95074 0.66744 0.57409 -0.22400
Br	Br	0.09773 0.45693 0.54816 -0.19700
C 	C 	0.52282 0.34631 0.51975 -0.09000
C 	C 	0.54902 0.33033 0.49502 0.14200
C 	C 	0.56734 0.37861 0.47214 -0.08400
C 	C 	0.54884 0.43556 0.47259 0.02100
C 	C 	0.50149 0.43558 0.49405 0.09400
C 	C 	0.48900 0.39099 0.51776 -0.00900
H 	H 	0.59579 0.37193 0.45424 0.08100
C 	C 	0.58077 0.49588 0.45136 0.02300
H 	H 	0.46080 0.39774 0.53572 0.07300
C 	C 	0.55866 0.47893 0.42343 -0.08300
C 	C 	0.56265 0.53512 0.40586 0.15300
C 	C 	0.57924 0.60440 0.41746 -0.09700
C 	C 	0.62156 0.62657 0.44213 -0.00900
C 	C 	0.62200 0.57183 0.45942 0.08900
H 	H 	0.53309 0.42167 0.41607 0.08200
H 	H 	0.64372 0.68317 0.44982 0.07300
Br	Br	0.45250 0.49424 0.49107 -0.21700
Br	Br	0.55280 0.23998 0.49134 -0.20400
Br	Br	0.52692 0.51103 0.36829 -0.22100
Br	Br	0.67445 0.60050 0.49436 -0.19700
C 	C 	0.75964 0.15190 0.68044 0.02100
C 	C 	0.77844 0.16429 0.70874 -0.05400
C 	C 	0.82266 0.13762 0.72076 0.01700
C 	C 	0.70965 0.23362 0.65606 -0.08500
C 	C 	0.82571 0.08171 0.67663 0.01800
C 	C 	0.78212 0.10929 0.66452 -0.05200
C 	C 	0.72972 0.19378 0.66692 0.04700
C 	C 	0.84780 0.09754 0.70461 -0.07800
H 	H 	0.76127 0.19716 0.72118 0.05400
H 	H 	0.83789 0.14860 0.74257 0.03900
H 	H 	0.84382 0.04976 0.66411 0.04400
H 	H 	0.76801 0.09967 0.64258 0.06200
C 	C 	0.36566 0.25117 0.68115 0.01700
C 	C 	0.32576 0.28239 0.69371 -0.05100
C 	C 	0.25261 0.23566 0.70400 0.01500
C 	C 	0.49801 0.33367 0.65651 -0.09700
C 	C 	0.25828 0.12657 0.68829 0.01500
C 	C 	0.33137 0.17325 0.67821 -0.05000
C 	C 	0.43880 0.29869 0.66877 0.05000
C 	C 	0.21884 0.15731 0.70166 -0.07200
H 	H 	0.35132 0.34265 0.69561 0.05400
H 	H 	0.22325 0.26026 0.71449 0.04000
H 	H 	0.23285 0.06637 0.68620 0.04200
H 	H 	0.36126 0.14877 0.66800 0.05500
C 	C 	0.86183 0.75436 0.62627 0.03000
C 	C 	0.82473 0.78950 0.63805 -0.05500
C 	C 	0.85355 0.83323 0.66208 0.01900
C 	C 	0.78426 0.63047 0.59673 -0.07900
C 	C 	0.96079 0.81317 0.66111 0.03500
C 	C 	0.93177 0.76927 0.63716 -0.05900
C 	C 	0.82012 0.68964 0.60866 0.05900
C 	C 	0.91994 0.84234 0.67445 -0.08200
H 	H 	0.77104 0.77900 0.62970 0.06100
H 	H 	0.82268 0.85748 0.67169 0.03700
H 	H 	0.01272 0.82073 0.67013 0.03400
H 	H 	0.96093 0.74235 0.62836 0.07600
C 	C 	0.76200 0.32845 0.00407 -0.08900
C 	C 	0.84099 0.37691 0.00103 0.15900
C 	C 	0.88742 0.39868 0.02451 -0.07900
C 	C 	0.85643 0.37689 0.05121 0.02900
C 	C 	0.77842 0.32784 0.05437 0.09300
C 	C 	0.73194 0.30231 0.03080 -0.00100
H 	H 	0.94770 0.43605 0.02211 0.09400
C 	C 	0.90594 0.41045 0.07559 0.02900
H 	H 	0.67176 0.26490 0.03338 0.07700
C 	C 	0.92944 0.48521 0.08241 -0.08500
C 	C 	0.99881 0.52939 0.09569 0.16200
C 	C 	0.04371 0.49793 0.10293 -0.10100
C 	C 	0.01335 0.42020 0.10084 -0.01800
C 	C 	0.94512 0.37643 0.08681 0.09000
H 	H 	0.89756 0.51085 0.07494 0.09900
H 	H 	0.04633 0.39506 0.10761 0.06700
Br	Br	0.73392 0.29756 0.09070 -0.18900
Br	Br	0.88698 0.42036 0.96575 -0.24700
Br	Br	0.03465 0.63403 0.10152 -0.22100
Br	Br	0.91059 0.27225 0.08050 -0.19000
C 	C 	0.31725 0.76879 0.01671 -0.09000
C 	C 	0.25781 0.77097 0.00283 0.14500
C 	C 	0.27370 0.82035 0.98040 -0.08200
C 	C 	0.34883 0.86917 0.97228 0.02500
C 	C 	0.40759 0.86268 0.98498 0.08900
C 	C 	0.39119 0.81149 0.00664 -0.01200
H 	H 	0.22816 0.82432 0.97050 0.08400
C 	C 	0.36667 0.93673 0.95581 0.02400
H 	H 	0.43685 0.80846 0.01691 0.07500
C 	C 	0.36309 0.99562 0.96890 -0.08700
C 	C 	0.40234 0.06795 0.95785 0.15200
C 	C 	0.44669 0.08193 0.93363 -0.10400
C 	C 	0.44088 0.02117 0.91836 -0.00400
C 	C 	0.39982 0.94826 0.92918 0.08600
H 	H 	0.33379 0.98610 0.98863 0.08600
H 	H 	0.47164 0.03094 0.89896 0.06700
Br	Br	0.51154 0.92902 0.97525 -0.18500
Br	Br	0.15524 0.70970 0.01505 -0.20400
Br	Br	0.39567 0.14699 0.97647 -0.25100
Br	Br	0.39253 0.86583 0.90808 -0.19900
C 	C 	0.70069 0.54350 0.97502 -0.08100
C 	C 	0.71070 0.55103 0.00411 0.15000
C 	C 	0.68814 0.59525 0.01874 -0.08000
C 	C 	0.65670 0.63235 0.00436 0.02100
C 	C 	0.66403 0.63879 0.97518 0.09300
C 	C 	0.68527 0.59349 0.96051 -0.01200
H 	H 	0.68792 0.59462 0.04133 0.08400
C 	C 	0.59995 0.64477 0.01861 0.02800
H 	H 	0.68237 0.59168 0.93795 0.06500
C 	C 	0.62337 0.70505 0.03708 -0.08400
C 	C 	0.57029 0.71233 0.05326 0.15100
C 	C 	0.49263 0.65987 0.05034 -0.09900
C 	C 	0.46940 0.60045 0.03148 -0.00500
C 	C 	0.52245 0.59177 0.01609 0.08400
H 	H 	0.68302 0.74494 0.03952 0.08800
H 	H 	0.40984 0.56019 0.02904 0.06400
Br	Br	0.63630 0.70194 0.95506 -0.19400
Br	Br	0.74718 0.49518 0.02440 -0.20300
Br	Br	0.60559 0.79056 0.08066 -0.22100
Br	Br	0.48808 0.50465 0.99290 -0.19800
C 	C 	0.82337 0.16447 0.84539 0.02000
C 	C 	0.78097 0.12603 0.82195 -0.05300
C 	C 	0.80483 0.08698 0.80487 0.01700
C 	C 	0.77316 0.23650 0.87629 -0.08700
C 	C 	0.91334 0.12369 0.83491 0.01800
C 	C 	0.88921 0.16271 0.85201 -0.05000
C 	C 	0.79830 0.20480 0.86270 0.05400
C 	C 	0.87169 0.08629 0.81103 -0.08300
H 	H 	0.72972 0.12683 0.81684 0.05400
H 	H 	0.77220 0.05871 0.78652 0.04200
H 	H 	0.96457 0.12298 0.84013 0.04900
H 	H 	0.92185 0.19176 0.87027 0.06200
C 	C 	0.26773 0.17056 0.85655 0.01500
C 	C 	0.31460 0.24738 0.85140 -0.04900
C 	C 	0.37742 0.29003 0.86829 0.01300
C 	C 	0.16627 0.09315 0.81790 -0.09600
C 	C 	0.34305 0.18068 0.89706 0.01500
C 	C 	0.28071 0.13777 0.87989 -0.04700
C 	C 	0.21087 0.12506 0.83641 0.04900
C 	C 	0.39359 0.25628 0.89060 -0.06800
H 	H 	0.30419 0.27339 0.83360 0.05300
H 	H 	0.41544 0.34842 0.86326 0.04500
H 	H 	0.35461 0.15399 0.91428 0.05800
H 	H 	0.24426 0.07864 0.88422 0.05800
C 	C 	0.80375 0.62672 0.82168 0.02100
C 	C 	0.85363 0.63798 0.79972 -0.05300
C 	C 	0.89353 0.70824 0.78677 0.01700
C 	C 	0.74644 0.50381 0.85271 -0.08100
C 	C 	0.83377 0.75634 0.81780 0.01500
C 	C 	0.79371 0.68599 0.83056 -0.05200
C 	C 	0.77098 0.55804 0.83764 0.04300
C 	C 	0.88403 0.76808 0.79579 -0.07800
H 	H 	0.86247 0.59274 0.79295 0.05600
H 	H 	0.93140 0.71589 0.76968 0.04700
H 	H 	0.82596 0.80175 0.82514 0.04900
H 	H 	0.75610 0.67808 0.84780 0.05900
