data_crystal

_cell_length_a 26.68554
_cell_length_b 27.62331
_cell_length_c 21.98742
_cell_angle_alpha 61.37162
_cell_angle_beta  118.27109
_cell_angle_gamma 133.15010

_symmetry_space_group_name_	'P 1'
_symmetry_space_group_name_H-M	'P 1'

loop_
_symmetry_equiv_pos_as_xyz
  x,y,z

loop_
_atom_site_label
_atom_site_type_symbol
_atom_site_fract_x
_atom_site_fract_y
_atom_site_fract_z
_atom_site_charge
Co	Co	0.09098 0.97498 0.21965 1.17200
Co	Co	0.05157 0.03126 0.28185 1.18800
C 	C 	0.08595 0.85127 0.25717 0.26700
Co	Co	0.06031 0.90996 0.10227 1.16500
O 	O 	0.05453 0.12682 0.32836 -0.39200
C 	C 	0.10918 0.16348 0.30156 0.27300
O 	O 	0.01776 0.97112 0.37764 -0.37600
O 	O 	0.04156 0.95167 0.14146 -0.76700
O 	O 	0.04734 0.83521 0.19566 -0.39100
O 	O 	0.06702 0.98395 0.00892 -0.35900
Co	Co	0.08472 0.97922 0.72020 1.17500
Co	Co	0.03313 0.03472 0.76673 1.19100
C 	C 	0.09549 0.86086 0.77941 0.26600
Co	Co	0.06239 0.90349 0.62173 1.16600
C 	C 	0.05375 0.16817 0.74029 0.25500
O 	O 	0.08337 0.13803 0.75650 -0.36700
O 	O 	0.01315 0.98324 0.86769 -0.40300
O 	O 	0.03420 0.94320 0.65033 -0.77000
O 	O 	0.05697 0.83807 0.72132 -0.38900
O 	O 	0.08887 0.89763 0.79382 -0.39200
O 	O 	0.06017 0.96991 0.52332 -0.37000
H 	H 	0.07564 0.64666 0.85959 0.05300
H 	H 	0.04432 0.72733 0.83688 0.08700
C 	C 	0.01340 0.98757 0.97009 0.16400
O 	O 	0.02198 0.00971 0.17820 -0.56700
O 	O 	0.00131 0.99710 0.67427 -0.60100
C 	C 	0.00267 0.00525 0.89926 0.26500
O 	O 	0.08082 0.88404 0.27993 -0.39200
H 	H 	0.02057 0.26294 0.67049 0.04600
H 	H 	0.03534 0.71623 0.30679 0.08600
H 	H 	0.06441 0.38126 0.68482 0.05100
N 	N 	0.09011 0.75239 0.31835 -0.15000
H 	H 	0.07893 0.63513 0.35467 0.05500
N 	N 	0.09872 0.76238 0.85380 -0.15000
O 	O 	0.12123 0.13421 0.28238 -0.37700
O 	O 	0.11946 0.01228 0.29962 -0.45100
O 	O 	0.11296 0.03088 0.78570 -0.45000
C 	C 	0.07522 0.28262 0.69639 -0.04800
C 	C 	0.09970 0.24242 0.73463 0.00900
C 	C 	0.10480 0.37601 0.72651 -0.08100
C 	C 	0.12647 0.69553 0.85374 -0.08700
C 	C 	0.12386 0.82057 0.30583 -0.00200
C 	C 	0.12972 0.68427 0.34969 -0.08800
H 	H 	0.14040 0.28016 0.19085 0.04800
C 	C 	0.13241 0.83091 0.83561 0.00000
C 	C 	0.13616 0.74543 0.32053 0.07800
H 	H 	0.14288 0.60248 0.85757 0.05500
C 	C 	0.14604 0.75207 0.86747 0.07600
C 	C 	0.12261 0.33951 0.72415 0.01000
C 	C 	0.14127 0.40605 0.78406 0.07300
H 	H 	0.13593 0.49030 0.73270 0.08800
H 	H 	0.16463 0.22121 0.40920 0.09400
H 	H 	0.14714 0.59531 0.34888 0.05700
N 	N 	0.15388 0.46408 0.77885 -0.16300
C 	C 	0.16338 0.23551 0.30479 0.00400
O 	O 	0.16808 0.97209 0.14470 -0.42700
O 	O 	0.16889 0.97345 0.66078 -0.42900
N 	N 	0.15944 0.27245 0.78432 -0.15300
C 	C 	0.16943 0.41322 0.25812 0.07300
C 	C 	0.00082 0.96277 0.48232 0.21000
C 	C 	0.17099 0.28824 0.24391 -0.04500
O 	O 	0.98458 0.13644 0.71867 -0.37900
O 	O 	0.98596 0.04815 0.86170 -0.36100
C 	C 	0.73020 0.30864 0.06944 0.09700
N 	N 	0.66638 0.26240 0.08697 -0.13100
C 	C 	0.64767 0.27941 0.11726 0.09900
N 	N 	0.69354 0.34180 0.13149 -0.13100
C 	C 	0.75494 0.38952 0.10995 0.09800
N 	N 	0.77333 0.37304 0.07871 -0.13100
C 	C 	0.73494 0.28631 0.60252 0.09800
N 	N 	0.67302 0.24234 0.62296 -0.13100
C 	C 	0.65732 0.26246 0.65260 0.10000
N 	N 	0.70444 0.32630 0.66335 -0.13100
C 	C 	0.76503 0.37163 0.64034 0.09800
N 	N 	0.78042 0.35169 0.60970 -0.13000
C 	C 	0.27831 0.65463 0.32672 0.09600
N 	N 	0.23188 0.58925 0.31931 -0.13200
C 	C 	0.24903 0.56600 0.29551 0.09800
N 	N 	0.31286 0.60779 0.27989 -0.13100
C 	C 	0.36047 0.67224 0.28954 0.09800
N 	N 	0.34323 0.69571 0.31306 -0.13200
C 	C 	0.27392 0.66197 0.82769 0.09700
N 	N 	0.23217 0.59435 0.82951 -0.13100
C 	C 	0.25758 0.56814 0.82333 0.09600
N 	N 	0.32401 0.60993 0.81344 -0.13100
C 	C 	0.36547 0.67741 0.81115 0.09600
N 	N 	0.34068 0.70310 0.81909 -0.13200
Co	Co	0.92504 0.99811 0.16470 1.16600
Co	Co	0.96558 0.94386 0.10254 1.17900
Co	Co	0.95170 0.06445 0.27464 1.17500
O 	O 	0.98087 0.03319 0.23487 -0.73700
O 	O 	0.89148 0.95230 0.09065 -0.48400
C 	C 	0.92413 0.12212 0.11988 0.26600
C 	C 	0.98935 0.97947 0.40459 0.20700
C 	C 	0.20047 0.03441 0.14742 0.30800
C 	C 	0.90616 0.80933 0.09187 0.27700
O 	O 	0.18486 0.04503 0.18649 -0.37600
O 	O 	0.96781 0.13835 0.18069 -0.38500
O 	O 	0.90898 0.07415 0.09966 -0.35700
O 	O 	0.93788 0.98572 0.36446 -0.37600
O 	O 	0.95467 0.84600 0.05647 -0.40000
O 	O 	0.90537 0.83817 0.12448 -0.39600
C 	C 	0.81455 0.93725 0.23297 0.23500
O 	O 	0.84538 0.00135 0.22770 -0.36200
O 	O 	0.84341 0.92167 0.21743 -0.39000
O 	O 	0.98102 0.99009 0.99870 -0.35200
Co	Co	0.89544 0.96365 0.66965 1.17100
Co	Co	0.95214 0.92124 0.61396 1.18600
Co	Co	0.91203 0.03650 0.76535 1.17500
O 	O 	0.95085 0.01331 0.72780 -0.74100
O 	O 	0.86787 0.91422 0.60289 -0.47700
C 	C 	0.84447 0.04936 0.61070 0.27500
C 	C 	0.19797 0.03723 0.65457 0.30900
C 	C 	0.91174 0.78991 0.62045 0.28000
O 	O 	0.17289 0.05207 0.67697 -0.37500
O 	O 	0.83278 0.02591 0.67382 -0.39000
O 	O 	0.86701 0.02766 0.59508 -0.36600
O 	O 	0.95896 0.82843 0.58291 -0.39800
O 	O 	0.90768 0.81783 0.65078 -0.39300
C 	C 	0.80109 0.88616 0.77250 0.26300
O 	O 	0.84497 0.93312 0.80945 -0.39700
O 	O 	0.82410 0.88167 0.73473 -0.39200
O 	O 	0.95637 0.95193 0.50787 -0.35600
C 	C 	0.17344 0.33148 0.77822 0.08000
C 	C 	0.21063 0.36236 0.83532 -0.08700
C 	C 	0.19281 0.39892 0.83752 0.02300
C 	C 	0.21357 0.49446 0.82835 0.05700
C 	C 	0.23968 0.45570 0.86552 -0.07400
H 	H 	0.25092 0.35701 0.87710 0.05800
H 	H 	0.29464 0.47639 0.89114 0.05700
H 	H 	0.17642 0.24577 0.83101 0.09300
C 	C 	0.64699 0.77789 0.83672 0.07700
C 	C 	0.61371 0.78281 0.86526 -0.08900
C 	C 	0.55131 0.77673 0.82336 0.02000
C 	C 	0.51988 0.76061 0.75803 0.07200
C 	C 	0.55179 0.75371 0.73009 -0.08300
C 	C 	0.61624 0.76319 0.77041 0.01100
N 	N 	0.71759 0.81535 0.84967 -0.15200
C 	C 	0.73279 0.82629 0.79171 0.00400
C 	C 	0.67104 0.79435 0.74141 -0.04600
N 	N 	0.44970 0.72744 0.74314 -0.16400
C 	C 	0.43648 0.72310 0.79849 0.05600
C 	C 	0.49809 0.75260 0.84972 -0.07500
H 	H 	0.63742 0.79424 0.91678 0.05400
H 	H 	0.52786 0.74226 0.67856 0.05300
H 	H 	0.66794 0.81117 0.68476 0.04400
H 	H 	0.50025 0.73861 0.90568 0.05300
H 	H 	0.75265 0.84678 0.88544 0.09000
H 	H 	0.41261 0.69446 0.70893 0.08900
C 	C 	0.23714 0.76828 0.81895 0.07200
C 	C 	0.25895 0.82351 0.83693 -0.08400
C 	C 	0.21177 0.81462 0.86037 0.01100
C 	C 	0.17195 0.70599 0.82631 0.02000
N 	N 	0.28197 0.75975 0.82105 -0.16300
C 	C 	0.24592 0.69181 0.83097 0.05500
C 	C 	0.17692 0.65650 0.83383 -0.07200
C 	C 	0.20331 0.86473 0.84103 -0.05200
H 	H 	0.30973 0.87233 0.83064 0.04900
H 	H 	0.23603 0.91633 0.81077 0.04200
H 	H 	0.33694 0.79466 0.83225 0.08700
C 	C 	0.20091 0.31920 0.33920 0.08000
C 	C 	0.19237 0.34449 0.37317 -0.08700
C 	C 	0.17451 0.39025 0.33097 0.02200
C 	C 	0.17881 0.38872 0.22412 -0.08200
C 	C 	0.19497 0.34157 0.26606 0.01100
N 	N 	0.18263 0.25527 0.36248 -0.15100
N 	N 	0.18564 0.47636 0.23475 -0.16300
C 	C 	0.20112 0.49414 0.29226 0.05600
C 	C 	0.19477 0.44174 0.35311 -0.07200
H 	H 	0.19723 0.32737 0.43017 0.05700
H 	H 	0.17390 0.40590 0.16711 0.05300
H 	H 	0.22376 0.44966 0.40640 0.05600
H 	H 	0.20466 0.51152 0.18878 0.08800
C 	C 	0.54526 0.76794 0.31210 0.07300
C 	C 	0.61423 0.82747 0.32321 -0.08100
C 	C 	0.65699 0.85522 0.27920 0.00800
C 	C 	0.63307 0.82465 0.22732 0.07500
C 	C 	0.56432 0.76493 0.21626 -0.08700
C 	C 	0.52131 0.73666 0.26048 0.02200
N 	N 	0.49062 0.75333 0.32409 -0.16300
C 	C 	0.43206 0.71454 0.27920 0.05400
C 	C 	0.44891 0.70198 0.23991 -0.07100
N 	N 	0.68780 0.84113 0.21335 -0.15300
C 	C 	0.74707 0.88354 0.25505 0.00900
C 	C 	0.72932 0.89115 0.29862 -0.04700
H 	H 	0.63336 0.85170 0.36367 0.05100
H 	H 	0.54532 0.74103 0.17554 0.05500
H 	H 	0.41570 0.68492 0.19106 0.05300
H 	H 	0.76504 0.93056 0.32771 0.04000
H 	H 	0.49463 0.78036 0.34892 0.08600
H 	H 	0.68587 0.83711 0.16727 0.08400
C 	C 	0.19141 0.68906 0.37035 0.02200
C 	C 	0.25637 0.75251 0.36146 0.07000
C 	C 	0.26221 0.81358 0.33410 -0.08100
C 	C 	0.20010 0.80777 0.31278 0.00800
C 	C 	0.19434 0.85615 0.30629 -0.05000
N 	N 	0.29768 0.74632 0.35134 -0.16300
C 	C 	0.25972 0.67957 0.35352 0.05600
C 	C 	0.19337 0.64245 0.36502 -0.07300
H 	H 	0.31227 0.86303 0.32684 0.04800
H 	H 	0.22874 0.91024 0.28300 0.04200
H 	H 	0.33910 0.78647 0.32532 0.08600
C 	C 	0.81053 0.23400 0.57635 0.07300
C 	C 	0.86216 0.24225 0.56207 -0.08100
C 	C 	0.84043 0.19217 0.53455 0.01300
C 	C 	0.76933 0.13714 0.52047 0.08200
C 	C 	0.71762 0.13295 0.52948 -0.08700
C 	C 	0.74041 0.18079 0.56039 0.02500
N 	N 	0.81730 0.28512 0.58110 -0.16300
C 	C 	0.75088 0.26358 0.56992 0.05700
C 	C 	0.70168 0.19984 0.55356 -0.07200
N 	N 	0.76365 0.08098 0.53306 -0.15100
C 	C 	0.82983 0.09848 0.55658 0.00600
C 	C 	0.87871 0.16760 0.55612 -0.04800
H 	H 	0.91737 0.28395 0.57494 0.05400
H 	H 	0.66233 0.09095 0.51790 0.06100
H 	H 	0.64630 0.16532 0.55424 0.06000
H 	H 	0.93157 0.18979 0.58941 0.05300
H 	H 	0.86303 0.32344 0.60727 0.09000
H 	H 	0.71922 0.03110 0.54601 0.09500
C 	C 	0.87389 0.63246 0.66319 0.07900
C 	C 	0.86913 0.57272 0.70647 -0.08600
C 	C 	0.82586 0.51754 0.67526 0.02200
C 	C 	0.79068 0.52250 0.60426 0.07600
C 	C 	0.79452 0.58184 0.56167 -0.08000
C 	C 	0.83796 0.63679 0.59288 0.01200
N 	N 	0.89006 0.67886 0.68771 -0.15200
C 	C 	0.86748 0.71567 0.63182 -0.00100
C 	C 	0.83051 0.68728 0.57318 -0.04200
N 	N 	0.77929 0.47966 0.57852 -0.16300
C 	C 	0.80383 0.44430 0.63343 0.05700
C 	C 	0.83645 0.46936 0.69366 -0.07200
H 	H 	0.89783 0.56942 0.76157 0.05600
H 	H 	0.76671 0.58571 0.50628 0.05600
H 	H 	0.81980 0.71354 0.51856 0.05100
H 	H 	0.84710 0.44229 0.74777 0.05500
H 	H 	0.93008 0.69635 0.73233 0.09000
H 	H 	0.74150 0.46319 0.53254 0.09000
C 	C 	0.37936 0.13311 0.68154 0.08300
C 	C 	0.45046 0.18325 0.70608 -0.08500
C 	C 	0.49876 0.21016 0.66933 0.02400
C 	C 	0.47688 0.18736 0.61109 0.07600
C 	C 	0.40543 0.13873 0.58556 -0.07800
C 	C 	0.35777 0.11111 0.62326 0.01400
N 	N 	0.32548 0.12160 0.69092 -0.14900
C 	C 	0.26842 0.08993 0.64006 -0.00500
C 	C 	0.28791 0.08591 0.59488 -0.03600
N 	N 	0.52895 0.19307 0.60594 -0.16300
C 	C 	0.58489 0.22096 0.65912 0.05900
C 	C 	0.56717 0.23039 0.70078 -0.07200
H 	H 	0.46754 0.20019 0.75204 0.05800
H 	H 	0.38812 0.12113 0.54003 0.05900
H 	H 	0.25193 0.05208 0.55916 0.05300
H 	H 	0.60385 0.26131 0.73941 0.05800
H 	H 	0.32339 0.11891 0.73882 0.09100
H 	H 	0.53102 0.19165 0.56056 0.09100
C 	C 	0.75618 0.22284 0.02022 0.07500
C 	C 	0.74896 0.16168 0.04232 -0.07900
C 	C 	0.81077 0.16627 0.06758 0.01200
C 	C 	0.87619 0.22812 0.06777 0.07900
C 	C 	0.88409 0.28963 0.04296 -0.08600
C 	C 	0.82265 0.28590 0.01910 0.02200
N 	N 	0.71266 0.22619 0.03026 -0.16300
C 	C 	0.75060 0.29052 0.03607 0.05700
C 	C 	0.81906 0.32908 0.02930 -0.07300
N 	N 	0.92353 0.22257 0.07064 -0.15200
C 	C 	0.88889 0.15576 0.07532 0.00600
C 	C 	0.81718 0.11996 0.06965 -0.04500
H 	H 	0.69771 0.11260 0.04322 0.06000
H 	H 	0.93584 0.33823 0.04389 0.05600
H 	H 	0.86422 0.37278 0.05191 0.05800
H 	H 	0.78070 0.06498 0.08693 0.05900
H 	H 	0.66843 0.18375 0.05165 0.09300
H 	H 	0.97814 0.25716 0.08678 0.09000
C 	C 	0.77878 0.54009 0.07376 0.07600
C 	C 	0.78603 0.60111 0.03111 -0.08300
C 	C 	0.82791 0.65463 0.06397 0.01300
C 	C 	0.85887 0.64756 0.13551 0.07900
C 	C 	0.85026 0.58613 0.17899 -0.08600
C 	C 	0.80882 0.53223 0.14630 0.02100
N 	N 	0.77027 0.49833 0.04903 -0.16300
C 	C 	0.79191 0.46129 0.10555 0.05600
C 	C 	0.81916 0.48347 0.16643 -0.07200
N 	N 	0.87542 0.69480 0.15896 -0.15200
C 	C 	0.85840 0.73505 0.10110 -0.00100
C 	C 	0.82412 0.70803 0.04183 -0.04600
H 	H 	0.76254 0.60741 0.97456 0.05800
H 	H 	0.87535 0.58081 0.23517 0.05600
H 	H 	0.82650 0.45473 0.22061 0.05500
H 	H 	0.81818 0.73620 0.98696 0.05400
H 	H 	0.73607 0.48405 0.00113 0.08900
H 	H 	0.91275 0.70992 0.20563 0.09200
C 	C 	0.34383 0.14328 0.06384 0.08200
C 	C 	0.39064 0.14569 0.04754 -0.08500
C 	C 	0.46288 0.19669 0.06681 0.02100
C 	C 	0.48777 0.23447 0.11145 0.07600
C 	C 	0.44158 0.22635 0.13513 -0.08000
C 	C 	0.36927 0.18461 0.10536 0.01000
N 	N 	0.27812 0.08671 0.07011 -0.14800
C 	C 	0.26148 0.09177 0.11509 -0.00500
C 	C 	0.31661 0.15155 0.13831 -0.03700
N 	N 	0.55415 0.25628 0.14728 -0.16300
C 	C 	0.57422 0.23620 0.12305 0.05700
C 	C 	0.51698 0.19569 0.07534 -0.07000
H 	H 	0.37183 0.10735 0.02457 0.06000
H 	H 	0.46072 0.24832 0.17773 0.05600
H 	H 	0.32548 0.15831 0.18799 0.05300
H 	H 	0.52056 0.18421 0.03747 0.05800
H 	H 	0.25481 0.04078 0.06055 0.09600
H 	H 	0.58814 0.29436 0.17522 0.09200
