data_crystal

_cell_length_a 20.29299
_cell_length_b 21.56303
_cell_length_c 44.72978
_cell_angle_alpha 60.64981
_cell_angle_beta  119.12416
_cell_angle_gamma 133.33730

_symmetry_space_group_name_	'P 1'
_symmetry_space_group_name_H-M	'P 1'

loop_
_symmetry_equiv_pos_as_xyz
  x,y,z

loop_
_atom_site_label
_atom_site_type_symbol
_atom_site_fract_x
_atom_site_fract_y
_atom_site_fract_z
_atom_site_charge
C 	C 	0.27105 0.61801 0.15413 0.03800
C 	C 	0.36852 0.66173 0.16417 -0.08400
C 	C 	0.34939 0.55079 0.15320 -0.08300
C 	C 	0.25298 0.50579 0.14290 0.04300
C 	C 	0.21300 0.54092 0.14191 -0.08600
H 	H 	0.38022 0.52627 0.15219 0.05700
H 	H 	0.13865 0.50949 0.13160 0.04900
C 	C 	0.28876 0.65401 0.64431 0.04000
C 	C 	0.38428 0.68975 0.65609 -0.08600
C 	C 	0.35286 0.57335 0.64373 -0.08500
C 	C 	0.25743 0.53404 0.63336 0.04200
C 	C 	0.22437 0.57398 0.63371 -0.08600
H 	H 	0.37841 0.54460 0.64214 0.05700
H 	H 	0.15050 0.54513 0.62471 0.04700
Co	Co	0.00385 0.07871 0.06323 1.17300
Co	Co	0.06939 0.01077 0.03752 1.17600
Co	Co	0.07255 0.86211 0.03678 1.16600
C 	C 	0.24743 0.03315 0.05277 0.29200
O 	O 	0.07826 0.11554 0.03231 -0.48000
C 	C 	0.08171 0.21435 0.09615 0.29100
C 	C 	0.09587 0.77481 0.11318 0.31300
O 	O 	0.05760 0.76073 0.08181 -0.42000
O 	O 	0.08725 0.82150 0.12022 -0.40500
O 	O 	0.10472 0.17598 0.09132 -0.40300
O 	O 	0.03189 0.90490 0.05337 -0.76700
O 	O 	0.20941 0.94898 0.05975 -0.38700
O 	O 	0.20913 0.05876 0.05684 -0.40500
Co	Co	0.07218 0.04494 0.52999 1.17600
Co	Co	0.11614 0.92527 0.52971 1.17000
C 	C 	0.26645 0.10354 0.54094 0.30700
O 	O 	0.02267 0.06849 0.66080 -0.40600
C 	C 	0.02578 0.00142 0.68215 0.28200
O 	O 	0.05439 0.13338 0.52349 -0.48100
C 	C 	0.07028 0.22587 0.59338 0.29300
C 	C 	0.14624 0.83586 0.60576 0.31300
O 	O 	0.02553 0.95492 0.67023 -0.38100
O 	O 	0.11500 0.82700 0.57390 -0.42000
O 	O 	0.12535 0.87131 0.61371 -0.40100
O 	O 	0.09479 0.19383 0.58519 -0.40300
O 	O 	0.05758 0.94760 0.54773 -0.76100
O 	O 	0.24451 0.02366 0.55168 -0.40300
O 	O 	0.21720 0.11879 0.54420 -0.40300
C 	C 	0.01800 0.96179 0.78044 -0.02200
C 	C 	0.09752 0.99319 0.80816 -0.02500
C 	C 	0.09375 0.99929 0.83718 -0.02900
C 	C 	0.02503 0.96815 0.74783 0.03600
C 	C 	0.02772 0.97858 0.71896 -0.09400
H 	H 	0.16269 0.01437 0.80702 0.02900
H 	H 	0.15557 0.02324 0.85840 0.02800
C 	C 	0.07948 0.03286 0.26643 -0.10500
C 	C 	0.08189 0.02994 0.23623 0.02400
C 	C 	0.02070 0.06263 0.30822 -0.05200
C 	C 	0.01885 0.07100 0.33708 -0.07600
H 	H 	0.14180 0.08290 0.28041 0.05000
H 	H 	0.14510 0.07970 0.22668 0.02300
H 	H 	0.04604 0.11935 0.28630 0.03400
H 	H 	0.04481 0.13450 0.33739 0.04500
C 	C 	0.19090 0.37755 0.64770 -0.09000
C 	C 	0.19382 0.45086 0.62216 -0.02000
C 	C 	0.16572 0.45310 0.58591 0.06400
C 	C 	0.13828 0.38358 0.57631 -0.02500
C 	C 	0.13849 0.31200 0.60214 -0.11000
C 	C 	0.17360 0.31387 0.63795 0.12000
N 	N 	0.19205 0.25533 0.66302 -0.20300
H 	H 	0.21371 0.37593 0.67545 0.05100
H 	H 	0.11107 0.38261 0.54870 0.03600
N 	N 	0.16461 0.52137 0.56023 -0.19400
H 	H 	0.21300 0.25323 0.68976 0.08600
H 	H 	0.19120 0.21521 0.65594 0.10000
H 	H 	0.18027 0.57176 0.56632 0.08200
H 	H 	0.14582 0.52356 0.53362 0.07800
C 	C 	0.18779 0.66703 0.65488 -0.08800
C 	C 	0.25839 0.70599 0.63937 -0.01900
C 	C 	0.30701 0.79738 0.62259 0.06500
C 	C 	0.28819 0.84745 0.62410 -0.02700
C 	C 	0.20484 0.80536 0.63188 -0.11100
C 	C 	0.16069 0.71633 0.65124 0.11900
N 	N 	0.09072 0.67734 0.66545 -0.20600
H 	H 	0.15346 0.59862 0.66945 0.04800
H 	H 	0.32718 0.91755 0.61200 0.04400
N 	N 	0.36473 0.83527 0.60236 -0.19400
H 	H 	0.05577 0.61080 0.67873 0.07800
H 	H 	0.36405 0.79713 0.59411 0.08300
H 	H 	0.40497 0.90339 0.59211 0.08000
C 	C 	0.15458 0.28006 0.14526 -0.03500
C 	C 	0.15210 0.29201 0.11101 -0.10700
C 	C 	0.18449 0.37616 0.08772 0.12000
C 	C 	0.19977 0.44074 0.09613 -0.08900
C 	C 	0.19661 0.42712 0.12969 -0.02200
C 	C 	0.17137 0.34479 0.15416 0.06600
N 	N 	0.16345 0.32762 0.18629 -0.19400
H 	H 	0.13469 0.21703 0.16402 0.04500
H 	H 	0.22281 0.50480 0.07776 0.05100
N 	N 	0.20196 0.39559 0.05743 -0.20500
H 	H 	0.14791 0.26793 0.20477 0.07900
H 	H 	0.16938 0.37199 0.19272 0.08100
H 	H 	0.19554 0.35002 0.05162 0.09000
H 	H 	0.22434 0.45740 0.03978 0.08100
H 	H 	0.37533 0.72484 0.09666 0.08600
C 	C 	0.10867 0.65236 0.15433 -0.02200
C 	C 	0.15401 0.74331 0.13896 -0.11800
C 	C 	0.24610 0.79414 0.13636 0.12700
C 	C 	0.28044 0.75262 0.13897 -0.09300
C 	C 	0.23232 0.66058 0.15168 -0.01500
C 	C 	0.14966 0.61129 0.16259 0.05900
N 	N 	0.11199 0.52681 0.18219 -0.19400
H 	H 	0.03971 0.61281 0.15838 0.03100
H 	H 	0.34463 0.79216 0.13112 0.05200
N 	N 	0.30086 0.88295 0.13043 -0.20300
H 	H 	0.04800 0.48935 0.18807 0.07400
H 	H 	0.14901 0.49995 0.19403 0.08100
H 	H 	0.36778 0.92117 0.12692 0.09000
H 	H 	0.27906 0.91407 0.13119 0.10200
C 	C 	0.43636 0.26131 0.48458 -0.09100
C 	C 	0.51433 0.22577 0.54556 0.06400
C 	C 	0.43618 0.18580 0.55639 -0.02100
C 	C 	0.35588 0.17743 0.53152 -0.11500
C 	C 	0.35843 0.22136 0.49565 0.12400
N 	N 	0.28625 0.22518 0.47181 -0.20100
H 	H 	0.43802 0.29372 0.45697 0.05300
H 	H 	0.43496 0.15447 0.58408 0.04200
H 	H 	0.28631 0.25368 0.44501 0.08600
H 	H 	0.23161 0.20354 0.47984 0.08900
C 	C 	0.41361 0.10313 0.08297 -0.02300
C 	C 	0.34526 0.09621 0.05131 -0.11000
C 	C 	0.36885 0.13317 0.01888 0.11700
C 	C 	0.45755 0.16782 0.01883 -0.09100
H 	H 	0.39564 0.07607 0.10782 0.03700
H 	H 	0.47571 0.19597 0.99390 0.05300
N 	N 	0.30752 0.13808 0.98776 -0.20200
H 	H 	0.24696 0.12513 0.98707 0.08900
H 	H 	0.32295 0.16054 0.96378 0.08300
C 	C 	0.59910 0.31631 0.49755 0.04400
H 	H 	0.57010 0.21173 0.48695 0.05100
C 	C 	0.40644 0.63382 0.15890 0.04300
H 	H 	0.41475 0.72171 0.17282 0.05200
C 	C 	0.41625 0.65391 0.65245 0.04300
H 	H 	0.43431 0.75050 0.66454 0.05500
C 	C 	0.52578 0.75066 0.61433 -0.09100
C 	C 	0.51166 0.70946 0.64861 -0.01800
H 	H 	0.47010 0.75122 0.59213 0.05100
H 	H 	0.56008 0.81187 0.55318 0.08300
C 	C 	0.49808 0.69758 0.15035 -0.01700
C 	C 	0.50564 0.74684 0.11499 0.06600
N 	N 	0.43559 0.75343 0.09034 -0.19400
H 	H 	0.44140 0.78858 0.06427 0.08200
C 	C 	0.51356 0.26248 0.50910 -0.01800
N 	N 	0.58936 0.22783 0.57017 -0.19400
H 	H 	0.58946 0.20167 0.59699 0.08100
C 	C 	0.52604 0.17450 0.05044 -0.01900
C 	C 	0.50337 0.14001 0.08293 0.06200
N 	N 	0.56695 0.14080 0.11409 -0.19400
H 	H 	0.55046 0.11711 0.13798 0.08000
C 	C 	0.03963 0.98206 0.97046 0.31000
O 	O 	0.09573 0.95886 0.99024 -0.41400
C 	C 	0.05422 0.02407 0.46370 0.30500
O 	O 	0.12455 0.01997 0.48296 -0.42000
O 	O 	0.01675 0.03262 0.47754 -0.39200
C 	C 	0.07398 0.06187 0.88024 -0.07700
C 	C 	0.07637 0.06603 0.91125 0.00900
H 	H 	0.12616 0.11930 0.86541 0.04400
H 	H 	0.13250 0.12555 0.92056 0.02500
C 	C 	0.01904 0.01825 0.42732 -0.09300
N 	N 	0.57095 0.66641 0.71103 -0.19300
H 	H 	0.51135 0.64184 0.71660 0.08500
H 	H 	0.07186 0.71348 0.66396 0.08800
H 	H 	0.56367 0.65054 0.20140 0.05300
H 	H 	0.03282 0.36256 0.02094 0.07300
O 	O 	0.01844 0.00766 0.98399 -0.39900
C 	C 	0.58249 0.70530 0.67746 0.06500
H 	H 	0.58229 0.99470 0.54998 0.08700
H 	H 	0.57046 0.10997 0.96267 0.08000
C 	C 	0.01202 0.99117 0.93188 -0.09600
C 	C 	0.01056 0.97505 0.83862 -0.01700
C 	C 	0.57098 0.69109 0.17480 -0.09100
C 	C 	0.00677 0.98282 0.86930 0.02400
H 	H 	0.64756 0.25398 0.56311 0.08700
H 	H 	0.62128 0.14616 0.03844 0.05300
N 	N 	0.61521 0.81432 0.57447 -0.20500
C 	C 	0.62391 0.27596 0.49267 -0.08600
C 	C 	0.60787 0.78482 0.60819 0.12800
C 	C 	0.58621 0.78887 0.10517 -0.02300
H 	H 	0.59393 0.82976 0.07862 0.04200
H 	H 	0.60007 0.20554 0.96702 0.08400
C 	C 	0.00110 0.96740 0.21688 -0.11700
N 	N 	0.61847 0.16498 0.97319 -0.19400
H 	H 	0.00586 0.27152 0.01390 0.07900
C 	C 	0.62370 0.23580 0.04829 0.04400
H 	H 	0.63204 0.16216 0.11497 0.08400
H 	H 	0.64514 0.43555 0.50244 0.05800
H 	H 	0.62299 0.66216 0.73213 0.08400
N 	N 	0.63758 0.01736 0.54198 -0.21100
H 	H 	0.63943 0.14302 0.53921 0.04900
C 	C 	0.65770 0.21439 0.03694 -0.08800
H 	H 	0.64967 0.33766 0.05970 0.05800
C 	C 	0.66573 0.40232 0.50093 -0.08500
C 	C 	0.64960 0.73027 0.16437 0.12900
H 	H 	0.63605 0.97162 0.53873 0.10300
Co	Co	0.00878 0.87299 0.58222 1.17600
C 	C 	0.67502 0.32181 0.04995 -0.08500
C 	C 	0.66653 0.74339 0.67137 -0.01900
H 	H 	0.67388 0.83656 0.56907 0.10000
C 	C 	0.65980 0.78424 0.12991 -0.11600
C 	C 	0.00049 0.01034 0.39849 -0.00600
O 	O 	0.99811 0.94052 0.16860 -0.38400
O 	O 	0.99705 0.05639 0.15745 -0.39800
C 	C 	0.99317 0.98566 0.17903 0.31500
C 	C 	0.99611 0.97332 0.27774 0.06000
O 	O 	0.99418 0.18131 0.08900 -0.39500
Co	Co	0.99316 0.08873 0.56121 1.19000
O 	O 	0.98374 0.18135 0.59369 -0.39400
C 	C 	0.91966 0.90421 0.22966 0.04000
H 	H 	0.85640 0.85674 0.21482 0.02500
C 	C 	0.93969 0.91483 0.91908 0.02700
C 	C 	0.93760 0.91029 0.88826 -0.05300
H 	H 	0.88945 0.85645 0.93455 0.03100
H 	H 	0.88448 0.84917 0.88004 0.04500
C 	C 	0.99099 0.98156 0.30793 0.01200
C 	C 	0.73518 0.28137 0.02173 0.04300
C 	C 	0.75362 0.38901 0.03599 0.04400
C 	C 	0.78242 0.36964 0.02076 -0.08700
H 	H 	0.84055 0.42247 0.00827 0.05300
C 	C 	0.71862 0.31122 0.50110 0.04000
C 	C 	0.76000 0.44192 0.50691 0.04500
C 	C 	0.78745 0.39488 0.50881 -0.08800
H 	H 	0.86074 0.42219 0.51661 0.05600
Co	Co	0.98100 0.83828 0.08759 1.19300
Co	Co	0.93111 0.91255 0.11821 1.18400
C 	C 	0.87732 0.71606 0.03917 0.30000
Co	Co	0.89981 0.05094 0.11022 1.16800
O 	O 	0.94351 0.00876 0.09485 -0.75500
O 	O 	0.93310 0.81189 0.12621 -0.46400
O 	O 	0.97012 0.94969 0.06937 -0.57000
C 	C 	0.75297 0.85471 0.12334 0.32000
O 	O 	0.80349 0.92463 0.13481 -0.41000
O 	O 	0.78927 0.84126 0.11143 -0.39500
C 	C 	0.84680 0.10190 0.03258 0.30200
O 	O 	0.81137 0.04398 0.06046 -0.39400
O 	O 	0.90870 0.10856 0.02569 -0.37400
O 	O 	0.93163 0.78193 0.01713 -0.38800
O 	O 	0.87545 0.72916 0.06507 -0.37500
Co	Co	0.95162 0.92730 0.61940 1.18600
C 	C 	0.92990 0.76005 0.53393 0.29800
Co	Co	0.90938 0.04974 0.61924 1.17100
O 	O 	0.95144 0.01796 0.59769 -0.75600
O 	O 	0.95968 0.83418 0.62305 -0.45800
O 	O 	0.97905 0.97007 0.56682 -0.57300
C 	C 	0.77750 0.85447 0.63334 0.32000
O 	O 	0.83078 0.92091 0.64733 -0.40500
O 	O 	0.81178 0.84407 0.61903 -0.39300
C 	C 	0.82262 0.08453 0.54354 0.29900
O 	O 	0.80351 0.02854 0.57418 -0.39900
O 	O 	0.88178 0.10031 0.53092 -0.37800
O 	O 	0.98024 0.83041 0.51131 -0.38200
O 	O 	0.91542 0.76658 0.55825 -0.37400
C 	C 	0.93076 0.94256 0.81102 -0.02400
C 	C 	0.93446 0.93577 0.78222 -0.01800
H 	H 	0.86623 0.92383 0.81155 0.03800
H 	H 	0.87286 0.91243 0.76085 0.03900
C 	C 	0.91694 0.90734 0.25972 -0.08000
C 	C 	0.98630 0.99831 0.36582 0.05900
C 	C 	0.95413 0.91678 0.36509 -0.05200
C 	C 	0.95662 0.90845 0.33641 -0.03000
H 	H 	0.85221 0.86055 0.26810 0.05000
H 	H 	0.92989 0.86037 0.38723 0.04700
H 	H 	0.93356 0.84559 0.33673 0.03800
C 	C 	0.68143 0.78700 0.63714 -0.11700
H 	H 	0.72277 0.74409 0.69357 0.04500
N 	N 	0.71451 0.71489 0.18732 -0.20500
H 	H 	0.70823 0.67707 0.21314 0.08500
H 	H 	0.77029 0.73828 0.17943 0.09100
C 	C 	0.69226 0.16532 0.52851 -0.09300
C 	C 	0.74332 0.25264 0.50884 -0.01700
C 	C 	0.81232 0.28030 0.49513 0.06600
C 	C 	0.83603 0.22339 0.50525 -0.02300
C 	C 	0.78337 0.13586 0.52458 -0.11100
C 	C 	0.70414 0.10496 0.53231 0.12300
H 	H 	0.89523 0.24736 0.49804 0.04900
N 	N 	0.85294 0.35888 0.47140 -0.19400
H 	H 	0.82633 0.39556 0.45890 0.08600
H 	H 	0.90772 0.38094 0.46326 0.08500
C 	C 	0.84055 0.66455 0.49399 -0.02800
C 	C 	0.88067 0.67317 0.52888 -0.10200
C 	C 	0.89751 0.61070 0.55595 0.12300
C 	C 	0.87124 0.54047 0.54737 -0.08600
C 	C 	0.82850 0.53135 0.51257 -0.02000
C 	C 	0.82321 0.59947 0.48541 0.06900
N 	N 	0.79732 0.60021 0.45098 -0.19400
H 	H 	0.82971 0.71312 0.47302 0.05000
H 	H 	0.87757 0.48924 0.56828 0.05400
N 	N 	0.93796 0.61706 0.59004 -0.20100
H 	H 	0.78958 0.64863 0.43081 0.08300
H 	H 	0.78820 0.55461 0.44402 0.08600
H 	H 	0.95178 0.66357 0.59808 0.10100
H 	H 	0.95367 0.57300 0.60931 0.09000
C 	C 	0.73266 0.13751 0.99647 -0.02300
C 	C 	0.82604 0.16740 0.01153 -0.11200
C 	C 	0.89316 0.25383 0.01632 0.12600
C 	C 	0.86419 0.29537 0.01782 -0.08800
C 	C 	0.76882 0.25808 0.00839 -0.02000
C 	C 	0.70494 0.18617 0.99252 0.06600
H 	H 	0.68115 0.07486 0.98942 0.04000
H 	H 	0.91551 0.35481 0.02722 0.05600
N 	N 	0.98413 0.29813 0.01804 -0.17900
C 	C 	0.86043 0.57606 0.06947 -0.02500
C 	C 	0.83292 0.62616 0.03926 -0.10900
C 	C 	0.78551 0.60084 0.00701 0.12300
C 	C 	0.77267 0.52998 0.00505 -0.09100
C 	C 	0.80067 0.48028 0.03524 -0.01900
C 	C 	0.84944 0.50655 0.06729 0.06900
N 	N 	0.88599 0.46527 0.09598 -0.19300
H 	H 	0.89657 0.59512 0.09424 0.05200
H 	H 	0.73433 0.50929 0.98057 0.05500
N 	N 	0.75027 0.64303 0.97813 -0.20200
H 	H 	0.91960 0.48305 0.11993 0.08800
H 	H 	0.88458 0.41765 0.09436 0.08800
H 	H 	0.75063 0.68999 0.97973 0.09700
H 	H 	0.71862 0.62654 0.95399 0.08400
