data_crystal

_cell_length_a 20.56568
_cell_length_b 24.18615
_cell_length_c 34.94813
_cell_angle_alpha 89.99730
_cell_angle_beta  89.99732
_cell_angle_gamma 120.39839

_symmetry_space_group_name_	'P 1'
_symmetry_space_group_name_H-M	'P 1'

loop_
_symmetry_equiv_pos_as_xyz
  x,y,z

loop_
_atom_site_label
_atom_site_type_symbol
_atom_site_fract_x
_atom_site_fract_y
_atom_site_fract_z
_atom_site_charge
C 	C 	0.79335 0.50966 0.79742 0.29000
C 	C 	0.77043 0.31403 0.68676 0.31300
C 	C 	0.78058 0.49791 0.69033 0.31300
C 	C 	0.80764 0.31751 0.79230 0.29400
C 	C 	0.56364 0.31255 0.69992 0.31000
C 	C 	0.58556 0.31895 0.80952 0.29200
Ni	Ni	0.82131 0.42331 0.74185 1.11200
Ni	Ni	0.66342 0.28929 0.74974 1.12200
Ni	Ni	0.66286 0.42063 0.74891 1.12100
O 	O 	0.83878 0.50639 0.77116 -0.37200
O 	O 	0.71861 0.47596 0.79426 -0.37700
O 	O 	0.56636 0.27619 0.72709 -0.38100
O 	O 	0.82482 0.35180 0.71025 -0.37800
O 	O 	0.69969 0.29327 0.69542 -0.38600
O 	O 	0.57838 0.35567 0.78325 -0.37800
O 	O 	0.79951 0.45399 0.69089 -0.38500
O 	O 	0.73560 0.49857 0.71688 -0.37600
O 	O 	0.61728 0.28419 0.80119 -0.38000
O 	O 	0.83933 0.38065 0.78902 -0.37600
O 	O 	0.74856 0.27711 0.77099 -0.37500
O 	O 	0.61031 0.37487 0.70050 -0.38900
O 	O 	0.72017 0.37970 0.75608 -0.72000
H 	H 	0.72612 0.38240 0.78411 0.16000
C 	C 	0.18075 0.47992 0.28958 0.29500
C 	C 	0.26183 0.70725 0.19136 0.31200
C 	C 	0.22820 0.51440 0.18943 0.31500
C 	C 	0.19054 0.68558 0.29363 0.29400
C 	C 	0.44954 0.68686 0.21912 0.31400
C 	C 	0.39578 0.66402 0.32550 0.29100
Ni	Ni	0.18372 0.58772 0.23869 1.11400
Ni	Ni	0.34301 0.71149 0.26210 1.12000
Ni	Ni	0.32946 0.57461 0.25748 1.12200
O 	O 	0.14632 0.49617 0.26306 -0.36600
O 	O 	0.25432 0.51448 0.29620 -0.38100
O 	O 	0.44271 0.72083 0.24654 -0.38800
O 	O 	0.19956 0.66934 0.21016 -0.37200
O 	O 	0.32739 0.72149 0.20579 -0.38700
O 	O 	0.40502 0.62840 0.29920 -0.37700
O 	O 	0.21877 0.56368 0.18943 -0.38200
O 	O 	0.26477 0.50615 0.21775 -0.37600
O 	O 	0.36971 0.70267 0.31620 -0.38300
O 	O 	0.15523 0.62350 0.28553 -0.37500
O 	O 	0.25701 0.72715 0.27790 -0.37300
O 	O 	0.39877 0.62613 0.21477 -0.38600
O 	O 	0.27811 0.62117 0.26145 -0.72100
H 	H 	0.26289 0.61377 0.28856 0.16300
C 	C 	0.21442 0.13212 0.99918 0.28100
C 	C 	0.92478 0.94025 0.07455 0.31000
C 	C 	0.13942 0.96092 0.02383 0.32300
C 	C 	0.00077 0.11534 0.05153 0.29200
C 	C 	0.94368 0.89747 0.95499 0.30600
C 	C 	0.99893 0.07281 0.92835 0.29500
Ni	Ni	0.08335 0.04281 0.05348 1.12000
Ni	Ni	0.93725 0.99903 0.99954 1.10600
Ni	Ni	0.08872 0.01697 0.96280 1.12500
O 	O 	0.19400 0.10100 0.03256 -0.35400
O 	O 	0.17275 0.10892 0.96778 -0.38100
O 	O 	0.91129 0.93248 0.95798 -0.39100
O 	O 	0.98679 0.99069 0.08687 -0.38500
O 	O 	0.91305 0.92865 0.03787 -0.38900
O 	O 	0.03253 0.03851 0.92250 -0.37200
O 	O 	0.08823 0.96046 0.04607 -0.38800
O 	O 	0.15869 0.99440 0.99189 -0.39900
O 	O 	0.95519 0.06302 0.95855 -0.37900
O 	O 	0.06466 0.11827 0.06158 -0.36800
O 	O 	0.93988 0.05984 0.04169 -0.36100
O 	O 	0.01624 0.92269 0.96079 -0.39500
O 	O 	0.04278 0.03493 0.00437 -0.69500
H 	H 	0.05957 0.08005 0.99859 0.14600
C 	C 	0.76566 0.86496 0.51165 0.29600
C 	C 	0.06920 0.07814 0.56090 0.30800
C 	C 	0.85033 0.04593 0.51653 0.33400
C 	C 	0.99541 0.90090 0.55748 0.28200
C 	C 	0.02019 0.08116 0.43859 0.31700
C 	C 	0.96705 0.90581 0.43114 0.29300
Ni	Ni	0.90829 0.96926 0.55451 1.10700
Ni	Ni	0.04154 0.99855 0.49365 1.11500
Ni	Ni	0.88139 0.96759 0.46299 1.11700
O 	O 	0.79341 0.90451 0.54173 -0.37000
O 	O 	0.80159 0.87826 0.47835 -0.38200
O 	O 	0.05652 0.05032 0.44543 -0.37600
O 	O 	0.01302 0.03139 0.57984 -0.35400
O 	O 	0.06698 0.07833 0.52358 -0.38700
O 	O 	0.92882 0.93576 0.42361 -0.38600
O 	O 	0.89709 0.04784 0.54260 -0.37600
O 	O 	0.81948 0.99824 0.49201 -0.40200
O 	O 	0.01443 0.92248 0.46043 -0.38800
O 	O 	0.93263 0.89884 0.56885 -0.37200
O 	O 	0.05178 0.95333 0.54129 -0.37500
O 	O 	0.95238 0.06000 0.45209 -0.38900
O 	O 	0.93752 0.96278 0.50438 -0.72500
H 	H 	0.92100 0.91684 0.50331 0.16200
C 	C 	0.05973 0.28667 0.05719 -0.07100
C 	C 	0.05063 0.29017 0.09671 0.01300
C 	C 	0.00165 0.23372 0.11705 -0.00000
C 	C 	0.97037 0.17434 0.09864 -0.00200
C 	C 	0.99248 0.17040 0.06131 -0.08600
C 	C 	0.03120 0.22690 0.03945 0.06300
C 	C 	0.09831 0.35139 0.11711 0.01700
S 	S 	0.98391 0.23616 0.16612 -0.04000
H 	H 	0.93585 0.13095 0.11474 0.04600
S 	S 	0.04953 0.22332 0.99068 -0.05600
H 	H 	0.09356 0.33021 0.04090 0.05500
C 	C 	0.17552 0.37409 0.12371 -0.00900
C 	C 	0.21832 0.42974 0.14540 0.00400
C 	C 	0.18411 0.46114 0.16246 -0.09800
C 	C 	0.10616 0.43738 0.15636 0.06700
C 	C 	0.06519 0.38490 0.13216 -0.07800
S 	S 	0.21839 0.33172 0.10652 -0.02900
H 	H 	0.27768 0.44721 0.15024 0.04200
S 	S 	0.05681 0.46678 0.18255 -0.08400
H 	H 	0.00590 0.36749 0.12707 0.05700
H 	H 	0.11441 0.22096 0.98695 0.03500
H 	H 	0.24439 0.35173 0.07010 0.03800
H 	H 	0.03483 0.49896 0.15852 0.04000
H 	H 	0.03741 0.23168 0.18703 0.03900
C 	C 	0.77437 0.87905 0.15124 -0.06800
C 	C 	0.73606 0.81321 0.14352 0.01000
C 	C 	0.76597 0.78846 0.11676 -0.00500
C 	C 	0.83098 0.83031 0.09616 -0.00400
C 	C 	0.86671 0.89682 0.10204 -0.09100
C 	C 	0.83961 0.92093 0.13096 0.03700
C 	C 	0.66192 0.77156 0.16155 0.01500
S 	S 	0.72272 0.70534 0.10893 -0.03300
H 	H 	0.85262 0.81128 0.07477 0.04700
S 	S 	0.88514 0.00329 0.14151 -0.01000
H 	H 	0.75221 0.89791 0.17246 0.04700
C 	C 	0.65677 0.75570 0.20065 -0.00800
C 	C 	0.58682 0.72727 0.21909 -0.00000
C 	C 	0.52151 0.71318 0.19867 -0.09400
C 	C 	0.52595 0.72543 0.15906 0.05600
C 	C 	0.59611 0.75479 0.14075 -0.07200
S 	S 	0.73750 0.77114 0.22674 -0.03900
H 	H 	0.58319 0.71642 0.24940 0.04100
S 	S 	0.44460 0.70640 0.13236 -0.03000
H 	H 	0.59990 0.76652 0.11059 0.05500
H 	H 	0.93919 0.01773 0.16884 0.04200
H 	H 	0.77082 0.83185 0.24161 0.03400
H 	H 	0.43601 0.75891 0.13083 0.04100
H 	H 	0.75106 0.67980 0.13439 0.03800
C 	C 	0.24053 0.91389 0.09429 -0.07300
C 	C 	0.23887 0.86234 0.07509 0.01600
C 	C 	0.21780 0.85155 0.03617 -0.01400
C 	C 	0.19098 0.88800 0.01824 0.01300
C 	C 	0.18615 0.93565 0.03872 -0.10400
C 	C 	0.21632 0.95158 0.07603 0.05100
C 	C 	0.25087 0.81613 0.09726 0.01400
S 	S 	0.22543 0.79323 0.00965 -0.02600
H 	H 	0.17083 0.87738 0.98898 0.02600
S 	S 	0.22487 0.01900 0.10004 -0.04000
H 	H 	0.25878 0.92355 0.12388 0.05100
C 	C 	0.31973 0.83641 0.11623 -0.00800
C 	C 	0.32307 0.80010 0.14648 -0.00300
C 	C 	0.25942 0.74111 0.15641 -0.09300
C 	C 	0.19398 0.71646 0.13336 0.06300
C 	C 	0.18910 0.75517 0.10508 -0.07300
S 	S 	0.40211 0.90703 0.10219 -0.04300
H 	H 	0.37487 0.81831 0.16267 0.04000
S 	S 	0.12127 0.63595 0.13686 -0.05000
H 	H 	0.13675 0.73827 0.08954 0.05700
H 	H 	0.16067 0.00136 0.12073 0.03200
H 	H 	0.40829 0.95791 0.12254 0.03300
H 	H 	0.13867 0.59855 0.11462 0.04300
H 	H 	0.29622 0.82024 0.99416 0.02700
C 	C 	0.11829 0.30818 0.31018 -0.07000
C 	C 	0.09991 0.30422 0.34902 0.01300
C 	C 	0.09703 0.35538 0.36671 -0.00500
C 	C 	0.11776 0.41154 0.34598 -0.00300
C 	C 	0.13891 0.41628 0.30742 -0.08500
C 	C 	0.13495 0.36273 0.28906 0.05500
C 	C 	0.08199 0.24556 0.37053 0.01500
S 	S 	0.06690 0.34942 0.41447 -0.03600
H 	H 	0.11981 0.45226 0.36018 0.03900
S 	S 	0.14918 0.36281 0.23953 -0.03100
H 	H 	0.11859 0.26824 0.29625 0.05500
C 	C 	0.01614 0.18695 0.36232 -0.00600
C 	C 	0.00230 0.13129 0.38133 0.00500
C 	C 	0.05002 0.13403 0.41089 -0.09500
C 	C 	0.11690 0.19235 0.41855 0.06000
C 	C 	0.13326 0.24746 0.39778 -0.07300
S 	S 	0.94807 0.18344 0.33024 -0.03700
H 	H 	0.95114 0.08639 0.37514 0.03800
S 	S 	0.17880 0.19773 0.45508 -0.04600
H 	H 	0.18493 0.29219 0.40345 0.05600
H 	H 	0.08300 0.34619 0.22116 0.04400
H 	H 	0.89948 0.19652 0.34962 0.03800
H 	H 	0.15688 0.21148 0.48909 0.04400
H 	H 	0.98989 0.32042 0.41535 0.03600
C 	C 	0.60055 0.71210 0.48241 -0.07100
C 	C 	0.55691 0.73716 0.46817 0.01300
C 	C 	0.56851 0.79572 0.48296 -0.00400
C 	C 	0.63234 0.83396 0.50534 -0.00400
C 	C 	0.68567 0.81508 0.51165 -0.08800
C 	C 	0.66531 0.75113 0.50407 0.05500
C 	C 	0.51577 0.71206 0.43163 0.01300
S 	S 	0.50798 0.82441 0.47048 -0.04300
H 	H 	0.64520 0.88167 0.51361 0.04100
S 	S 	0.72375 0.72150 0.51880 -0.04900
H 	H 	0.58877 0.66507 0.47331 0.05300
C 	C 	0.55505 0.72996 0.39649 -0.00600
C 	C 	0.51512 0.71092 0.36203 -0.00300
C 	C 	0.43617 0.67570 0.36203 -0.08500
C 	C 	0.39679 0.65633 0.39704 0.05300
C 	C 	0.43682 0.67404 0.43167 -0.07100
S 	S 	0.65407 0.77849 0.39527 -0.03700
H 	H 	0.54546 0.72557 0.33510 0.04300
S 	S 	0.29766 0.60994 0.39785 -0.04700
H 	H 	0.40652 0.65979 0.45860 0.05300
H 	H 	0.70280 0.69542 0.55464 0.03800
H 	H 	0.68574 0.74056 0.39773 0.04000
H 	H 	0.26833 0.64972 0.39694 0.04100
H 	H 	0.53154 0.85720 0.43659 0.03600
C 	C 	0.04421 0.73409 0.31036 -0.06600
C 	C 	0.06724 0.76493 0.34583 0.01000
C 	C 	0.12918 0.76744 0.36490 -0.00400
C 	C 	0.16867 0.74080 0.34775 -0.00600
C 	C 	0.14668 0.71123 0.31183 -0.08400
C 	C 	0.08392 0.70790 0.29305 0.05600
C 	C 	0.02990 0.79869 0.36143 0.02000
S 	S 	0.15827 0.80449 0.40998 -0.03800
H 	H 	0.21667 0.74330 0.36228 0.03700
S 	S 	0.05654 0.67377 0.24713 -0.03700
H 	H 	0.99669 0.73221 0.29567 0.05000
C 	C 	0.05844 0.86412 0.35345 -0.00900
C 	C 	0.02995 0.89774 0.37311 0.00300
C 	C 	0.97381 0.86684 0.40098 -0.09300
C 	C 	0.93919 0.79996 0.40547 0.05600
C 	C 	0.96790 0.76623 0.38602 -0.07700
S 	S 	0.13207 0.90505 0.32027 -0.03900
H 	H 	0.05525 0.94895 0.36875 0.04000
S 	S 	0.85953 0.75810 0.43502 -0.04900
H 	H 	0.94351 0.71523 0.39085 0.05400
H 	H 	0.00672 0.60932 0.25048 0.03500
H 	H 	0.19987 0.92792 0.33853 0.03300
H 	H 	0.88148 0.75383 0.47134 0.04000
H 	H 	0.20805 0.86863 0.40504 0.03400
C 	C 	0.90617 0.12065 0.85417 -0.07800
C 	C 	0.95075 0.18754 0.85681 0.01500
C 	C 	0.02064 0.21519 0.87594 -0.00300
C 	C 	0.04198 0.17574 0.89492 -0.00200
C 	C 	0.99279 0.10923 0.89630 -0.09100
C 	C 	0.92707 0.08142 0.87363 0.07700
C 	C 	0.92173 0.22791 0.84127 0.01300
S 	S 	0.08073 0.29891 0.87725 -0.03700
H 	H 	0.09449 0.19712 0.91076 0.03600
S 	S 	0.86901 0.99755 0.87073 -0.06700
H 	H 	0.85395 0.09920 0.83807 0.05900
C 	C 	0.93305 0.24686 0.80258 -0.00500
C 	C 	0.89830 0.27901 0.78740 -0.00300
C 	C 	0.85187 0.29226 0.81038 -0.08600
C 	C 	0.84276 0.27552 0.84941 0.05400
C 	C 	0.87771 0.24344 0.86468 -0.07000
S 	S 	0.98935 0.22949 0.77269 -0.04200
H 	H 	0.90573 0.29224 0.75739 0.04200
S 	S 	0.78698 0.29359 0.87925 -0.05000
H 	H 	0.86945 0.22940 0.89455 0.05500
H 	H 	0.89353 0.97477 0.84157 0.03800
H 	H 	0.94551 0.17033 0.75644 0.03800
H 	H 	0.71327 0.24522 0.87710 0.04200
H 	H 	0.12720 0.31793 0.84594 0.03700
C 	C 	0.80493 0.60502 0.88468 -0.07300
C 	C 	0.85525 0.66749 0.87219 0.01300
C 	C 	0.89692 0.67677 0.83824 -0.00300
C 	C 	0.88043 0.62410 0.81483 -0.00500
C 	C 	0.82579 0.56182 0.82610 -0.08600
C 	C 	0.79251 0.55231 0.86264 0.05700
C 	C 	0.86686 0.72256 0.89604 0.01200
S 	S 	0.97124 0.75335 0.82545 -0.04300
H 	H 	0.90840 0.63184 0.78741 0.04400
S 	S 	0.73840 0.47484 0.88187 -0.04700
H 	H 	0.77606 0.59742 0.91182 0.05200
C 	C 	0.84400 0.76553 0.88321 -0.00500
C 	C 	0.86299 0.82079 0.90459 -0.00500
C 	C 	0.90119 0.83180 0.93956 -0.09100
C 	C 	0.91291 0.78360 0.95495 0.04900
C 	C 	0.89839 0.73058 0.93262 -0.07100
S 	S 	0.79006 0.74985 0.84125 -0.04200
H 	H 	0.85088 0.85635 0.89326 0.04300
S 	S 	0.94443 0.78872 0.00238 -0.02800
H 	H 	0.91173 0.69559 0.94366 0.04900
H 	H 	0.78461 0.45822 0.90054 0.03700
H 	H 	0.71509 0.71307 0.85014 0.03700
H 	H 	0.02142 0.81779 0.00275 0.05000
H 	H 	0.94475 0.78260 0.80168 0.03700
C 	C 	0.42580 0.27026 0.87963 -0.07200
C 	C 	0.46451 0.28487 0.91464 0.01400
C 	C 	0.54326 0.31088 0.91483 -0.00500
C 	C 	0.58152 0.31870 0.88034 -0.00500
C 	C 	0.54310 0.30567 0.84539 -0.08500
C 	C 	0.46448 0.28044 0.84510 0.05600
C 	C 	0.42044 0.26286 0.95049 0.01200
S 	S 	0.59471 0.33562 0.95786 -0.04100
H 	H 	0.64126 0.33512 0.88067 0.03900
S 	S 	0.41294 0.25657 0.80200 -0.03100
H 	H 	0.36498 0.24868 0.87939 0.05400
C 	C 	0.37006 0.28400 0.96020 -0.00400
C 	C 	0.30563 0.24419 0.98179 -0.00800
C 	C 	0.29255 0.18438 0.99443 -0.08100
C 	C 	0.35106 0.17027 0.99159 0.04300
C 	C 	0.41436 0.20919 0.96922 -0.06600
S 	S 	0.38524 0.35843 0.94388 -0.04200
H 	H 	0.26294 0.25732 0.98603 0.03400
S 	S 	0.34347 0.10184 0.01364 -0.00400
H 	H 	0.45537 0.19460 0.96364 0.05300
H 	H 	0.40952 0.30724 0.78677 0.04000
H 	H 	0.35067 0.35044 0.90914 0.03500
H 	H 	0.31548 0.05227 0.98795 0.04200
H 	H 	0.61672 0.39850 0.96465 0.03700
C 	C 	0.85911 0.20050 0.53538 -0.07400
C 	C 	0.79559 0.17809 0.55895 0.01500
C 	C 	0.73887 0.11296 0.55726 -0.00600
C 	C 	0.75230 0.06944 0.53741 0.00400
C 	C 	0.82217 0.09060 0.51971 -0.09800
C 	C 	0.87259 0.15696 0.51565 0.06100
C 	C 	0.79686 0.21886 0.59069 0.01400
S 	S 	0.65361 0.08481 0.58233 -0.03200
H 	H 	0.71148 0.01857 0.53887 0.04500
S 	S 	0.95456 0.18573 0.48760 -0.03800
H 	H 	0.90091 0.25118 0.53487 0.05300
C 	C 	0.82829 0.21784 0.62639 -0.00800
C 	C 	0.82373 0.25271 0.65712 -0.00100
C 	C 	0.78787 0.28848 0.65269 -0.09600
C 	C 	0.76104 0.29300 0.61634 0.05800
C 	C 	0.76507 0.25770 0.58562 -0.07400
S 	S 	0.87194 0.17190 0.63315 -0.03600
H 	H 	0.84543 0.24997 0.68490 0.04100
S 	S 	0.72564 0.34492 0.60861 -0.03400
H 	H 	0.74286 0.25996 0.55790 0.05400
H 	H 	0.01128 0.18763 0.50919 0.04900
H 	H 	0.94623 0.20741 0.62271 0.03500
H 	H 	0.65006 0.31393 0.61656 0.04500
H 	H 	0.66262 0.07040 0.61916 0.03900
C 	C 	0.99299 0.78590 0.62750 -0.07600
C 	C 	0.95852 0.73044 0.60484 0.01100
C 	C 	0.96026 0.73630 0.56468 -0.00200
C 	C 	0.98685 0.79668 0.54807 -0.01500
C 	C 	0.00901 0.85054 0.57130 -0.07800
C 	C 	0.01936 0.84606 0.61075 0.05900
C 	C 	0.91269 0.66735 0.62345 0.01700
S 	S 	0.92724 0.66839 0.53512 -0.04000
H 	H 	0.98389 0.80083 0.51733 0.03800
S 	S 	0.06008 0.91507 0.63973 -0.04100
H 	H 	0.99545 0.78189 0.65830 0.05100
C 	C 	0.94733 0.63814 0.64294 -0.01200
C 	C 	0.90350 0.58280 0.66457 0.00400
C 	C 	0.82481 0.55517 0.66633 -0.09700
C 	C 	0.78972 0.58256 0.64521 0.06100
C 	C 	0.83388 0.63891 0.62432 -0.07400
S 	S 	0.04546 0.67007 0.64018 -0.03600
H 	H 	0.93070 0.56149 0.68039 0.02800
S 	S 	0.69078 0.54542 0.64321 -0.04500
H 	H 	0.80704 0.66092 0.60889 0.05500
H 	H 	0.13672 0.94110 0.64052 0.03600
H 	H 	0.08015 0.71459 0.66860 0.03400
H 	H 	0.66407 0.50147 0.61408 0.04100
H 	H 	0.98534 0.65779 0.52735 0.03700
C 	C 	0.21614 0.17144 0.63769 -0.07200
C 	C 	0.28306 0.19300 0.61681 0.01400
C 	C 	0.27940 0.18107 0.57723 -0.00600
C 	C 	0.20948 0.14395 0.55949 -0.00300
C 	C 	0.14211 0.12078 0.58039 -0.09200
C 	C 	0.14580 0.13748 0.61948 0.05900
C 	C 	0.35668 0.22527 0.63691 0.01500
S 	S 	0.36202 0.21354 0.54935 -0.03700
H 	H 	0.20757 0.13255 0.52937 0.03500
S 	S 	0.06430 0.12181 0.64496 -0.03500
H 	H 	0.21887 0.18206 0.66799 0.05400
C 	C 	0.38935 0.28939 0.64927 -0.00700
C 	C 	0.45904 0.31878 0.66817 -0.00100
C 	C 	0.49753 0.28529 0.67414 -0.09300
C 	C 	0.46713 0.22267 0.65927 0.06000
C 	C 	0.39596 0.19239 0.64200 -0.07200
S 	S 	0.34405 0.33355 0.64095 -0.04000
H 	H 	0.48237 0.36714 0.67906 0.03800
S 	S 	0.51925 0.18307 0.66010 -0.04400
H 	H 	0.37190 0.14368 0.63156 0.05700
H 	H 	0.05153 0.17172 0.63996 0.03600
H 	H 	0.29608 0.32406 0.67069 0.03400
H 	H 	0.55970 0.19532 0.62689 0.04000
H 	H 	0.37998 0.27338 0.53697 0.03800
