data_crystal

_cell_length_a 26.11815
_cell_length_b 26.29378
_cell_length_c 34.77367
_cell_angle_alpha 95.50008
_cell_angle_beta  95.49882
_cell_angle_gamma 125.84082

_symmetry_space_group_name_	'P 1'
_symmetry_space_group_name_H-M	'P 1'

loop_
_symmetry_equiv_pos_as_xyz
  x,y,z

loop_
_atom_site_label
_atom_site_type_symbol
_atom_site_fract_x
_atom_site_fract_y
_atom_site_fract_z
_atom_site_charge
C 	C 	0.95935 0.02584 0.00461 0.11500
N 	N 	0.92870 0.96843 0.01612 -0.12200
C 	C 	0.94961 0.93213 0.01029 0.12500
N 	N 	0.00488 0.95623 0.99618 -0.11900
C 	C 	0.03825 0.01566 0.98725 0.12600
N 	N 	0.01399 0.04933 0.99001 -0.12300
C 	C 	0.95594 0.01170 0.46302 0.11700
N 	N 	0.02104 0.04725 0.46923 -0.12100
C 	C 	0.05041 0.01914 0.47516 0.13000
N 	N 	0.01468 0.95550 0.47491 -0.11700
C 	C 	0.94957 0.91980 0.46854 0.12700
N 	N 	0.92015 0.94790 0.46252 -0.12200
Cu	Cu	0.62051 0.22862 0.99137 0.93100
Cu	Cu	0.69193 0.25788 0.91554 0.87900
Cu	Cu	0.65865 0.33824 0.94808 0.89900
Cu	Cu	0.60658 0.33643 0.02160 0.90000
C 	C 	0.62628 0.26349 0.07360 0.29000
O 	O 	0.52415 0.18133 0.98449 -0.34800
C 	C 	0.65998 0.31662 0.86318 0.29000
O 	O 	0.66595 0.32753 0.00140 -0.64000
O 	O 	0.62051 0.24554 0.93706 -0.63900
O 	O 	0.66754 0.19033 0.98916 -0.35700
O 	O 	0.74445 0.27116 0.96275 -0.42400
O 	O 	0.59368 0.28572 0.06380 -0.36900
O 	O 	0.70204 0.42893 0.96221 -0.36900
C 	C 	0.69039 0.45634 0.99028 0.29100
C 	C 	0.49619 0.20712 0.97294 0.28500
O 	O 	0.53131 0.26832 0.97171 -0.37600
O 	O 	0.64094 0.42216 0.00797 -0.37200
O 	O 	0.63311 0.22962 0.04680 -0.34300
C 	C 	0.72553 0.22312 0.98083 0.29300
O 	O 	0.65583 0.34886 0.89282 -0.36400
O 	O 	0.65971 0.26713 0.86724 -0.40200
H 	H 	0.71035 0.35604 0.01683 0.17300
H 	H 	0.57854 0.21884 0.91870 0.18700
Cu	Cu	0.74800 0.34552 0.44515 0.93200
Cu	Cu	0.77302 0.31718 0.53238 0.88000
Cu	Cu	0.65483 0.30554 0.50229 0.90200
Cu	Cu	0.61499 0.32130 0.42298 0.90500
C 	C 	0.68483 0.30877 0.36470 0.29000
O 	O 	0.76978 0.43240 0.44103 -0.34700
C 	C 	0.71452 0.34534 0.58696 0.29200
O 	O 	0.64953 0.28387 0.44713 -0.63800
O 	O 	0.74913 0.36029 0.50207 -0.63900
O 	O 	0.80545 0.31897 0.44742 -0.35800
O 	O 	0.75624 0.25384 0.49104 -0.42400
O 	O 	0.65554 0.33360 0.37547 -0.36400
O 	O 	0.56282 0.24937 0.49871 -0.36700
C 	C 	0.52100 0.25196 0.47618 0.29600
C 	C 	0.73882 0.45179 0.45694 0.28500
O 	O 	0.68181 0.40982 0.46492 -0.37800
O 	O 	0.53239 0.27396 0.44290 -0.36800
O 	O 	0.73131 0.31637 0.38962 -0.35100
C 	C 	0.79092 0.26983 0.46337 0.29200
O 	O 	0.66127 0.31244 0.55986 -0.37300
O 	O 	0.76909 0.35936 0.57855 -0.40300
H 	H 	0.62625 0.23766 0.43709 0.18100
H 	H 	0.77116 0.40541 0.51445 0.18400
C 	C 	0.61940 0.29426 0.75332 -0.03600
C 	C 	0.67269 0.35262 0.74628 0.02400
C 	C 	0.71546 0.40276 0.77805 -0.05300
C 	C 	0.70921 0.39305 0.81678 0.02700
C 	C 	0.65914 0.33267 0.82379 -0.07300
C 	C 	0.61290 0.28460 0.79199 0.01600
C 	C 	0.68943 0.35802 0.70663 0.02500
C 	C 	0.66217 0.37551 0.67920 -0.05500
C 	C 	0.67234 0.37446 0.64034 0.03100
C 	C 	0.70987 0.35520 0.62869 -0.07700
C 	C 	0.73968 0.34085 0.65677 0.01400
C 	C 	0.72959 0.34205 0.69553 -0.03900
C 	C 	0.64523 0.39439 0.61290 0.08300
C 	C 	0.75935 0.32529 0.72358 0.09500
C 	C 	0.57264 0.24320 0.72098 0.09900
C 	C 	0.75638 0.44410 0.84903 0.08300
N 	N 	0.62348 0.41032 0.59091 -0.10000
N 	N 	0.78314 0.31186 0.74607 -0.10900
N 	N 	0.79420 0.48500 0.87486 -0.10200
N 	N 	0.53521 0.20233 0.69503 -0.10400
H 	H 	0.57330 0.23875 0.79734 0.04800
H 	H 	0.75567 0.44818 0.77262 0.06100
H 	H 	0.63221 0.38891 0.68795 0.06300
H 	H 	0.76904 0.32663 0.64811 0.03900
C 	C 	0.68643 0.32569 0.18268 -0.03400
C 	C 	0.66435 0.26920 0.19723 0.02500
C 	C 	0.63301 0.21115 0.17083 -0.05400
C 	C 	0.62128 0.20849 0.13023 0.03300
C 	C 	0.64311 0.26509 0.11568 -0.07000
C 	C 	0.67660 0.32344 0.14210 0.01100
C 	C 	0.66844 0.26946 0.24010 0.02500
C 	C 	0.61289 0.24486 0.25623 -0.05400
C 	C 	0.61702 0.25301 0.29707 0.02800
C 	C 	0.67773 0.28808 0.32221 -0.07100
C 	C 	0.73261 0.30818 0.30603 0.01600
C 	C 	0.72806 0.29821 0.26514 -0.03500
C 	C 	0.55871 0.22417 0.31295 0.07400
C 	C 	0.78483 0.31837 0.24909 0.10200
C 	C 	0.71731 0.38581 0.20927 0.10100
C 	C 	0.58430 0.14721 0.10401 0.10100
N 	N 	0.51202 0.20107 0.32567 -0.10800
N 	N 	0.83030 0.33452 0.23620 -0.10300
N 	N 	0.55472 0.09809 0.08304 -0.09300
N 	N 	0.74205 0.43393 0.23059 -0.10200
H 	H 	0.69343 0.36694 0.13103 0.04000
H 	H 	0.61584 0.16768 0.18201 0.06200
H 	H 	0.56660 0.22055 0.23694 0.06200
H 	H 	0.77914 0.33338 0.32518 0.05700
C 	C 	0.87971 0.74642 0.43394 -0.02300
C 	C 	0.84790 0.71856 0.46483 0.01400
C 	C 	0.84538 0.75589 0.49545 -0.02300
C 	C 	0.87742 0.82172 0.49623 -0.00300
C 	C 	0.91087 0.84996 0.46593 -0.01200
C 	C 	0.91037 0.81187 0.43421 -0.00300
C 	C 	0.81783 0.64991 0.46539 0.02700
C 	C 	0.81017 0.72653 0.52624 0.10200
C 	C 	0.94105 0.84004 0.40172 0.10200
C 	C 	0.85315 0.63260 0.48579 -0.03700
C 	C 	0.82632 0.56760 0.48423 0.02400
C 	C 	0.76472 0.51979 0.46142 -0.07400
C 	C 	0.72895 0.53723 0.44155 0.02600
C 	C 	0.75505 0.60220 0.44423 -0.03700
C 	C 	0.91731 0.68178 0.50812 0.10500
C 	C 	0.66634 0.48845 0.41722 0.08400
C 	C 	0.86175 0.54992 0.50643 0.08100
C 	C 	0.71760 0.62012 0.42492 0.10800
C 	C 	0.88129 0.70774 0.40211 0.10200
C 	C 	0.87721 0.86067 0.52862 0.10300
N 	N 	0.89009 0.53590 0.52416 -0.11200
N 	N 	0.96849 0.72108 0.52592 -0.10300
N 	N 	0.61641 0.44953 0.39781 -0.11000
N 	N 	0.68779 0.63450 0.40953 -0.10000
N 	N 	0.78207 0.70304 0.55078 -0.10000
N 	N 	0.87704 0.89171 0.55448 -0.09200
N 	N 	0.96556 0.86260 0.37584 -0.09400
N 	N 	0.88249 0.67681 0.37673 -0.09900
C 	C 	0.78912 0.12717 0.43228 -0.03800
C 	C 	0.85496 0.15469 0.44306 0.02400
C 	C 	0.90060 0.22167 0.45316 -0.03300
C 	C 	0.87990 0.26049 0.45719 0.02000
C 	C 	0.81354 0.23224 0.45030 -0.08000
C 	C 	0.76853 0.16614 0.43531 0.02500
C 	C 	0.87571 0.11306 0.44731 0.01400
C 	C 	0.96870 0.25035 0.46029 0.09000
C 	C 	0.70120 0.13846 0.42292 0.08500
C 	C 	0.89025 0.09062 0.41478 -0.02300
C 	C 	0.91375 0.05468 0.41955 -0.00500
C 	C 	0.92426 0.04258 0.45705 -0.01200
C 	C 	0.90783 0.06331 0.48930 -0.00500
C 	C 	0.88281 0.09783 0.48432 -0.02400
C 	C 	0.88158 0.10509 0.37655 0.10100
C 	C 	0.91805 0.05030 0.52778 0.09800
C 	C 	0.92692 0.02991 0.38591 0.09900
C 	C 	0.86486 0.11827 0.51731 0.09800
C 	C 	0.74262 0.05870 0.41897 0.10400
C 	C 	0.92668 0.32910 0.46973 0.08100
N 	N 	0.93736 0.01007 0.35908 -0.09700
N 	N 	0.87464 0.11667 0.34607 -0.10100
N 	N 	0.92629 0.04001 0.55848 -0.09800
N 	N 	0.85052 0.13463 0.54358 -0.10900
N 	N 	0.02303 0.27314 0.46597 -0.08800
N 	N 	0.96401 0.38385 0.47975 -0.10300
N 	N 	0.64750 0.11644 0.41303 -0.10600
N 	N 	0.70556 0.00405 0.40836 -0.10300
C 	C 	0.36797 0.22500 0.49682 -0.03500
C 	C 	0.32548 0.15772 0.49028 0.02500
C 	C 	0.34918 0.12186 0.48410 -0.03300
C 	C 	0.41410 0.15288 0.48095 0.02400
C 	C 	0.45568 0.22000 0.48489 -0.07000
C 	C 	0.43317 0.25616 0.49438 0.02400
C 	C 	0.25496 0.12443 0.48674 0.01500
C 	C 	0.30638 0.05296 0.48031 0.09500
C 	C 	0.47715 0.32539 0.50155 0.08800
C 	C 	0.21647 0.10657 0.44949 -0.02300
C 	C 	0.14939 0.07225 0.44572 -0.00200
C 	C 	0.12083 0.05691 0.47932 -0.01300
C 	C 	0.15947 0.07617 0.51672 -0.00300
C 	C 	0.22649 0.10959 0.52040 -0.02300
C 	C 	0.24604 0.12334 0.41506 0.10300
C 	C 	0.13019 0.06173 0.55136 0.10200
C 	C 	0.10952 0.05151 0.40719 0.10300
C 	C 	0.26621 0.12847 0.55872 0.10300
C 	C 	0.34425 0.26197 0.50541 0.10700
C 	C 	0.43760 0.11568 0.47239 0.09200
N 	N 	0.07771 0.03493 0.37645 -0.09000
N 	N 	0.26973 0.13676 0.38762 -0.09900
N 	N 	0.10675 0.05017 0.57897 -0.09400
N 	N 	0.29797 0.14358 0.58927 -0.10000
N 	N 	0.27215 0.99799 0.47728 -0.08900
N 	N 	0.45635 0.08600 0.46556 -0.10200
N 	N 	0.51227 0.38061 0.50725 -0.09600
N 	N 	0.32524 0.29140 0.51226 -0.09900
C 	C 	0.80753 0.75954 0.00987 -0.02200
C 	C 	0.84004 0.73269 0.01742 0.01200
C 	C 	0.90756 0.77287 0.02897 -0.01800
C 	C 	0.94237 0.83947 0.03171 -0.01900
C 	C 	0.91089 0.86516 0.01770 -0.00700
C 	C 	0.84258 0.82491 0.00794 -0.00400
C 	C 	0.80325 0.66169 0.01068 0.03000
C 	C 	0.94128 0.74563 0.03730 0.09800
C 	C 	0.80813 0.84992 0.99545 0.10400
C 	C 	0.77879 0.62617 0.97194 -0.04100
C 	C 	0.73715 0.55895 0.96537 0.02700
C 	C 	0.72690 0.52685 0.99742 -0.07500
C 	C 	0.75385 0.56255 0.03625 0.02500
C 	C 	0.78946 0.62966 0.04285 -0.03800
C 	C 	0.79651 0.65893 0.93887 0.10600
C 	C 	0.74649 0.53047 0.06927 0.07900
C 	C 	0.70203 0.52304 0.92599 0.09800
C 	C 	0.81137 0.66572 0.08265 0.10600
C 	C 	0.73782 0.71950 0.00344 0.10500
C 	C 	0.00960 0.88161 0.05062 0.12300
N 	N 	0.67395 0.49442 0.89458 -0.09500
N 	N 	0.81070 0.68515 0.91252 -0.10200
N 	N 	0.74064 0.50488 0.09561 -0.11200
N 	N 	0.82889 0.69455 0.11439 -0.10100
N 	N 	0.96813 0.72382 0.04395 -0.10200
N 	N 	0.06325 0.91523 0.06570 -0.09500
N 	N 	0.78011 0.86938 0.98558 -0.09700
N 	N 	0.68222 0.68750 0.99830 -0.10100
C 	C 	0.83966 0.18066 0.96483 -0.04000
C 	C 	0.83525 0.14973 0.99667 0.02600
C 	C 	0.79862 0.14714 0.02479 -0.03800
C 	C 	0.76861 0.17737 0.02168 0.02900
C 	C 	0.76606 0.20084 0.98717 -0.08400
C 	C 	0.80090 0.20110 0.95822 0.02500
C 	C 	0.86663 0.11717 0.99941 0.01000
C 	C 	0.79088 0.11250 0.05646 0.10700
C 	C 	0.79381 0.21833 0.92072 0.06200
C 	C 	0.92145 0.14297 0.02865 -0.02100
C 	C 	0.94945 0.11081 0.03181 -0.00300
C 	C 	0.92830 0.05797 0.00262 -0.00700
C 	C 	0.87640 0.03494 0.97180 -0.01800
C 	C 	0.84271 0.06149 0.97191 -0.01800
C 	C 	0.94948 0.20289 0.05501 0.10100
C 	C 	0.85935 0.98569 0.93924 0.11800
C 	C 	0.99748 0.13000 0.06601 0.08800
C 	C 	0.78320 0.03133 0.94407 0.09800
C 	C 	0.88376 0.19099 0.93876 0.10400
C 	C 	0.74428 0.18795 0.05489 0.09500
N 	N 	0.03557 0.14523 0.09346 -0.08100
N 	N 	0.97179 0.25072 0.07603 -0.10200
N 	N 	0.84584 0.94646 0.91325 -0.09900
N 	N 	0.73572 0.00732 0.92186 -0.10400
N 	N 	0.78476 0.08485 0.08173 -0.10200
N 	N 	0.72517 0.19650 0.08154 -0.09600
N 	N 	0.78822 0.23199 0.89076 -0.12900
N 	N 	0.91895 0.19918 0.91797 -0.10500
C 	C 	0.21777 0.13017 0.98742 -0.02500
C 	C 	0.22615 0.09176 0.96181 0.01600
C 	C 	0.17193 0.03204 0.94059 -0.03100
C 	C 	0.10975 0.00949 0.94659 -0.01200
C 	C 	0.10212 0.04452 0.97591 -0.00900
C 	C 	0.15644 0.10561 0.99591 -0.00500
C 	C 	0.29240 0.11137 0.96066 0.02400
C 	C 	0.18025 0.99340 0.91316 0.11600
C 	C 	0.14997 0.14195 0.02650 0.10600
C 	C 	0.32499 0.10402 0.99172 -0.03900
C 	C 	0.39179 0.13564 0.99606 0.02000
C 	C 	0.42509 0.16950 0.96701 -0.07500
C 	C 	0.39074 0.17054 0.93350 0.02200
C 	C 	0.32491 0.14332 0.93097 -0.03700
C 	C 	0.28988 0.06509 0.01978 0.10600
C 	C 	0.42286 0.19873 0.90146 0.08500
C 	C 	0.42668 0.13662 0.03155 0.09500
C 	C 	0.29093 0.14912 0.89828 0.10400
C 	C 	0.27273 0.19455 0.00576 0.10400
C 	C 	0.05370 0.95108 0.92212 0.11500
N 	N 	0.45438 0.13738 0.05992 -0.09600
N 	N 	0.26176 0.03403 0.04214 -0.10100
N 	N 	0.44854 0.22123 0.87591 -0.10500
N 	N 	0.26374 0.15371 0.87220 -0.10100
N 	N 	0.18696 0.96262 0.89126 -0.09900
N 	N 	0.00896 0.90446 0.90261 -0.09400
N 	N 	0.14523 0.17127 0.05094 -0.09400
N 	N 	0.31664 0.24588 0.02037 -0.10300
