data_crystal

_cell_length_a 23.39537
_cell_length_b 22.47951
_cell_length_c 33.28741
_cell_angle_alpha 95.48914
_cell_angle_beta  95.48817
_cell_angle_gamma 125.80580

_symmetry_space_group_name_	'P 1'
_symmetry_space_group_name_H-M	'P 1'

loop_
_symmetry_equiv_pos_as_xyz
  x,y,z

loop_
_atom_site_label
_atom_site_type_symbol
_atom_site_fract_x
_atom_site_fract_y
_atom_site_fract_z
_atom_site_charge
C 	C 	0.00169 0.94447 0.92459 -0.00200
C 	C 	0.95514 0.96453 0.92125 -0.04900
H 	H 	0.96074 0.00097 0.90029 0.06900
C 	C 	0.13938 0.16715 0.51608 0.00100
H 	H 	0.09625 0.22507 0.49782 0.05200
H 	H 	0.16801 0.09353 0.52733 0.05600
N 	N 	0.24149 0.30210 0.53213 -0.16700
C 	C 	0.20398 0.23469 0.54351 0.08800
H 	H 	0.23680 0.18312 0.58360 0.07100
H 	H 	0.23023 0.31109 0.50312 0.09500
C 	C 	0.05637 0.97041 0.89817 0.07600
C 	C 	0.24609 0.23310 0.57530 -0.08200
H 	H 	0.06446 0.88046 0.89386 0.10100
C 	C 	0.30749 0.34323 0.55563 0.08200
C 	C 	0.31238 0.30221 0.58277 0.04400
N 	N 	0.08063 0.93124 0.88574 -0.16400
C 	C 	0.10392 0.04467 0.89450 -0.07100
H 	H 	0.10910 0.09067 0.91282 0.06900
C 	C 	0.36851 0.39937 0.54189 -0.07200
C 	C 	0.37746 0.31306 0.59494 -0.08300
H 	H 	0.36333 0.42378 0.51654 0.06700
H 	H 	0.37866 0.27250 0.60938 0.08900
C 	C 	0.14375 0.97974 0.87447 0.07700
C 	C 	0.15950 0.05042 0.87906 0.04600
H 	H 	0.18827 0.91872 0.88113 0.07500
C 	C 	0.12940 0.09857 0.51070 -0.03900
C 	C 	0.43499 0.41625 0.55812 0.01900
C 	C 	0.43939 0.37270 0.58349 0.10700
C 	C 	0.19913 0.97178 0.87788 -0.08600
C 	C 	0.26969 0.03599 0.88121 0.04100
C 	C 	0.23076 0.11504 0.88789 -0.08000
H 	H 	0.24339 0.16924 0.89859 0.07500
C 	C 	0.28554 0.10672 0.88646 0.09300
C 	C 	0.49042 0.44234 0.53655 -0.04000
H 	H 	0.48994 0.45824 0.50686 0.06300
N 	N 	0.49521 0.37161 0.57832 -0.14800
H 	H 	0.49864 0.32893 0.58450 0.12800
C 	C 	0.32969 0.04457 0.90072 -0.04500
H 	H 	0.32850 0.00101 0.91302 0.07800
C 	C 	0.52606 0.41333 0.54958 0.02500
N 	N 	0.35280 0.15790 0.90767 -0.14900
H 	H 	0.37065 0.20918 0.92480 0.11000
F 	F 	0.33505 0.06707 0.13053 -0.42200
C 	C 	0.37974 0.12047 0.91652 0.02700
C 	C 	0.56969 0.40353 0.52468 0.26300
O 	O 	0.56202 0.40581 0.48502 -0.36100
F 	F 	0.37659 0.05598 0.07473 -0.42700
C 	C 	0.44167 0.15178 0.94962 0.25600
O 	O 	0.60478 0.37938 0.54054 -0.35000
F 	F 	0.58413 0.30626 0.72926 -0.40800
F 	F 	0.60137 0.39235 0.69275 -0.43500
F 	F 	0.58935 0.11679 0.73164 -0.42600
F 	F 	0.59728 0.19779 0.69403 -0.40700
C 	C 	0.38811 0.10637 0.10782 0.77800
F 	F 	0.38205 0.15860 0.09358 -0.42000
O 	O 	0.44770 0.10707 0.96945 -0.32200
O 	O 	0.49245 0.22436 0.95811 -0.36100
C 	C 	0.63586 0.37303 0.71839 0.78900
H 	H 	0.42876 0.15911 0.19044 0.11000
F 	F 	0.51455 0.19469 0.38075 -0.45700
F 	F 	0.47689 0.09752 0.33181 -0.42200
H 	H 	0.65724 0.38288 0.63904 0.08300
C 	C 	0.46194 0.14566 0.13396 -0.06400
H 	H 	0.59889 0.29691 0.46216 0.21500
C 	C 	0.63561 0.18770 0.72318 0.78900
C 	C 	0.47214 0.16639 0.17668 0.03700
H 	H 	0.54163 0.13954 0.91584 0.18900
Cu	Cu	0.62637 0.41543 0.44651 0.90700
O 	O 	0.64199 0.34948 0.46623 -0.63500
C 	C 	0.68713 0.36544 0.69781 -0.10800
C 	C 	0.69354 0.37616 0.65708 0.08000
H 	H 	0.61353 0.16964 0.80179 0.08400
F 	F 	0.67350 0.42810 0.75330 -0.43100
C 	C 	0.53436 0.17053 0.34885 0.77700
H 	H 	0.51076 0.12961 0.26568 0.11400
Cu	Cu	0.68786 0.39506 0.52250 0.91700
C 	C 	0.66826 0.24785 0.76151 -0.10800
C 	C 	0.65314 0.22759 0.79992 0.07700
C 	C 	0.53611 0.18865 0.27505 0.03600
C 	C 	0.55480 0.22033 0.31700 -0.06700
Cu	Cu	0.55413 0.27976 0.02007 0.91000
O 	O 	0.50123 0.20647 0.05612 -0.30900
C 	C 	0.52176 0.16466 0.11601 0.00300
F 	F 	0.52124 0.32208 0.20065 -0.43200
O 	O 	0.73300 0.42256 0.57918 -0.35700
F 	F 	0.68955 0.19122 0.70696 -0.42800
C 	C 	0.52100 0.16830 0.07203 0.29700
O 	O 	0.57876 0.16344 0.94116 -0.64000
O 	O 	0.63026 0.39150 0.38791 -0.35700
C 	C 	0.53921 0.19990 0.20155 0.09100
C 	C 	0.55221 0.23326 0.24508 0.09300
Cu	Cu	0.54518 0.13471 0.99311 0.93300
C 	C 	0.59506 0.29884 0.32883 -0.00100
C 	C 	0.67090 0.25768 0.87576 0.30400
O 	O 	0.62742 0.38754 0.01883 -0.34600
O 	O 	0.52865 0.12394 0.04821 -0.31800
O 	O 	0.64950 0.28879 0.89966 -0.31400
C 	C 	0.63167 0.33648 0.37174 0.31000
C 	C 	0.74453 0.37825 0.59473 0.30900
O 	O 	0.73722 0.32390 0.56999 -0.34600
C 	C 	0.72981 0.34876 0.71934 0.09200
C 	C 	0.74525 0.37602 0.63895 -0.00200
C 	C 	0.71652 0.32441 0.75942 0.09300
C 	C 	0.68885 0.28163 0.83617 -0.00100
C 	C 	0.58192 0.30962 0.25682 -0.10900
F 	F 	0.59204 0.17162 0.36427 -0.42200
H 	H 	0.70188 0.53527 0.04984 0.11600
Cu	Cu	0.63240 0.27341 0.95532 0.90400
O 	O 	0.66439 0.19725 0.88275 -0.38400
O 	O 	0.73470 0.50850 0.47621 -0.37700
C 	C 	0.60566 0.34234 0.29879 0.08000
C 	C 	0.58791 0.35593 0.22479 0.78900
O 	O 	0.61430 0.25201 0.00936 -0.63600
O 	O 	0.57713 0.07064 0.99988 -0.33600
C 	C 	0.58610 0.18969 0.14124 0.07500
C 	C 	0.68818 0.41510 0.00548 0.26000
O 	O 	0.67957 0.32829 0.38844 -0.29800
C 	C 	0.74248 0.35737 0.83430 -0.06800
C 	C 	0.75379 0.37822 0.79567 0.03400
F 	F 	0.74513 0.43501 0.88916 -0.42900
C 	C 	0.59455 0.20489 0.18425 -0.10700
H 	H 	0.63449 0.40205 0.30814 0.08600
F 	F 	0.61281 0.42714 0.24271 -0.43000
C 	C 	0.09019 0.17314 0.49289 -0.03300
Cu	Cu	0.66351 0.16932 0.93558 0.88100
O 	O 	0.69017 0.38077 0.97181 -0.32000
H 	H 	0.65803 0.27529 0.03049 0.18100
Cu	Cu	0.73247 0.37167 0.44354 0.93200
O 	O 	0.77113 0.40608 0.50316 -0.62700
C 	C 	0.78480 0.35392 0.70235 0.03600
C 	C 	0.79494 0.37054 0.66283 -0.06800
H 	H 	0.79147 0.43650 0.79365 0.11200
F 	F 	0.63479 0.36237 0.20006 -0.41500
N 	N 	0.74924 0.54131 0.04759 -0.15000
H 	H 	0.78376 0.68023 0.06677 0.07500
Cu	Cu	0.79155 0.34184 0.52592 0.91300
C 	C 	0.64558 0.10035 0.00328 0.26400
H 	H 	0.63058 0.20066 0.12726 0.07600
H 	H 	0.02137 0.92410 0.41589 0.09600
C 	C 	0.78629 0.41645 0.87314 0.77600
C 	C 	0.75218 0.49041 0.02481 0.03500
H 	H 	0.87591 0.64745 0.52576 0.09900
O 	O 	0.68815 0.16259 0.98996 -0.41500
O 	O 	0.74829 0.29357 0.43396 -0.31600
C 	C 	0.78824 0.52948 0.45688 0.25600
F 	F 	0.64517 0.18172 0.24036 -0.42600
C 	C 	0.81413 0.60748 0.05162 0.09600
H 	H 	0.81461 0.45859 0.51008 0.17900
H 	H 	0.81870 0.34342 0.71966 0.11100
C 	C 	0.66256 0.22719 0.21146 0.78900
H 	H 	0.75455 0.15709 0.43241 0.11900
C 	C 	0.82420 0.67595 0.05683 -0.07900
C 	C 	0.67225 0.05830 0.01531 0.03000
H 	H 	0.78310 0.15504 0.04016 0.07200
F 	F 	0.83314 0.31406 0.62054 -0.44400
H 	H 	0.79185 0.06956 0.41915 0.08100
C 	C 	0.74418 0.09480 0.03213 -0.04600
O 	O 	0.79000 0.47914 0.43444 -0.33700
F 	F 	0.84705 0.48062 0.86518 -0.43300
F 	F 	0.80864 0.39051 0.90217 -0.46100
N 	N 	0.86943 0.65801 0.49639 -0.15200
C 	C 	0.83954 0.17854 0.40286 0.10600
C 	C 	0.85721 0.37974 0.64598 0.77400
F 	F 	0.70146 0.30062 0.23140 -0.40900
C 	C 	0.83760 0.11666 0.40952 -0.08300
N 	N 	0.79575 0.19242 0.41714 -0.14700
N 	N 	0.64433 0.98991 0.99374 -0.15500
C 	C 	0.80959 0.30583 0.44748 0.25500
F 	F 	0.70578 0.22020 0.18894 -0.42900
C 	C 	0.81910 0.52362 0.01407 -0.04300
H 	H 	0.84898 0.80593 0.03617 0.06600
H 	H 	0.59963 0.96097 0.96987 0.09300
F 	F 	0.88747 0.43731 0.62406 -0.46600
C 	C 	0.84647 0.60917 0.46097 0.01500
C 	C 	0.89897 0.12037 0.40645 0.04300
C 	C 	0.85875 0.59848 0.03133 0.03500
C 	C 	0.76113 0.04778 0.01877 0.04600
O 	O 	0.84270 0.33899 0.48566 -0.36900
H 	H 	0.96120 0.79618 0.54656 0.07100
C 	C 	0.90362 0.24504 0.39938 0.02600
C 	C 	0.83164 0.26721 0.42313 0.04000
C 	C 	0.88470 0.73672 0.04502 0.03800
C 	C 	0.69819 0.98345 0.99515 0.06600
H 	H 	0.82912 0.50177 0.98741 0.10500
C 	C 	0.90231 0.72611 0.48658 0.08800
C 	C 	0.89915 0.30210 0.41302 -0.03700
C 	C 	0.88836 0.79588 0.03294 -0.08000
H 	H 	0.88369 0.03897 0.44395 0.07300
C 	C 	0.96313 0.18700 0.40320 0.08500
C 	C 	0.91690 0.08013 0.42592 -0.08600
H 	H 	0.87718 0.12451 0.02709 0.07600
N 	N 	0.03378 0.91517 0.44466 -0.16500
H 	H 	0.94482 0.35914 0.42591 0.06800
F 	F 	0.91055 0.39654 0.67740 -0.42500
C 	C 	0.96756 0.25198 0.40269 -0.06800
C 	C 	0.82837 0.07385 0.00921 -0.09000
C 	C 	0.95806 0.79197 0.51362 -0.08100
C 	C 	0.86233 0.64599 0.42783 -0.04100
C 	C 	0.07024 0.03648 0.48291 0.01100
C 	C 	0.91227 0.65613 0.01400 -0.07100
C 	C 	0.92688 0.72653 0.02287 0.09400
C 	C 	0.70122 0.94083 0.96282 -0.07500
C 	C 	0.89838 0.72074 0.44438 0.02000
H 	H 	0.01909 0.30627 0.40723 0.06700
H 	H 	0.65266 0.88999 0.94490 0.06700
H 	H 	0.97797 0.99644 0.43658 0.04400
H 	H 	0.84991 0.86772 0.98864 0.04900
H 	H 	0.86296 0.62401 0.39761 0.07300
N 	N 	0.01909 0.18850 0.41913 -0.17000
C 	C 	0.99140 0.12386 0.43303 0.09600
C 	C 	0.93253 0.81886 0.00372 0.09600
C 	C 	0.83049 0.03446 0.97487 0.10000
H 	H 	0.03589 0.94507 0.54255 0.06300
H 	H 	0.93764 0.64522 0.99186 0.08800
C 	C 	0.76814 0.96926 0.95226 0.01000
N 	N 	0.95581 0.77656 0.99790 -0.16800
H 	H 	0.93521 0.06548 0.99268 0.10400
C 	C 	0.05689 0.96326 0.48051 0.07300
C 	C 	0.89289 0.88943 0.97141 -0.03800
C 	C 	0.00967 0.85222 0.49677 0.03200
N 	N 	0.88730 0.03468 0.97112 -0.16400
C 	C 	0.94020 0.86992 0.97560 -0.00000
H 	H 	0.07159 0.23705 0.42892 0.09600
C 	C 	0.95010 0.78053 0.42738 -0.07200
C 	C 	0.02302 0.04393 0.45864 -0.02700
H 	H 	0.75194 0.86634 0.92598 0.06700
C 	C 	0.78727 0.92671 0.93437 -0.07200
C 	C 	0.04294 0.92626 0.51351 -0.08000
C 	C 	0.03441 0.11301 0.46261 -0.00800
C 	C 	0.86143 0.96951 0.94641 0.07100
H 	H 	0.97172 0.76806 0.97096 0.10700
H 	H 	0.94671 0.77614 0.39442 0.07300
C 	C 	0.00482 0.84738 0.45436 0.08000
C 	C 	0.90202 0.93862 0.94532 0.00600
H 	H 	0.03645 0.89065 0.95868 0.05200
C 	C 	0.99629 0.90020 0.95321 -0.02500
