data_crystal

_cell_length_a 20.54977
_cell_length_b 21.53515
_cell_length_c 31.51132
_cell_angle_alpha 60.91147
_cell_angle_beta  118.81750
_cell_angle_gamma 133.26343

_symmetry_space_group_name_	'P 1'
_symmetry_space_group_name_H-M	'P 1'

loop_
_symmetry_equiv_pos_as_xyz
  x,y,z

loop_
_atom_site_label
_atom_site_type_symbol
_atom_site_fract_x
_atom_site_fract_y
_atom_site_fract_z
_atom_site_charge
C 	C 	0.03147 0.97821 0.82614 -0.00400
C 	C 	0.02187 0.99355 0.77186 0.28900
O 	O 	0.01684 0.00722 0.97859 -0.35800
Co	Co	0.03801 0.87009 0.64045 1.20200
O 	O 	0.01078 0.00020 0.47652 -0.35900
O 	O 	0.01607 0.05802 0.73972 -0.38800
O 	O 	0.03054 0.95061 0.75742 -0.34100
C 	C 	0.00735 0.96174 0.41151 0.03400
O 	O 	0.00727 0.75601 0.09667 -0.37000
C 	C 	0.01892 0.92573 0.35300 0.06500
C 	C 	0.00466 0.94444 0.46385 0.27100
O 	O 	0.05332 0.77653 0.59659 -0.36100
O 	O 	0.03608 0.14156 0.19440 -0.35900
H 	H 	0.03191 0.89008 0.34680 0.03800
Co	Co	0.05807 0.02013 0.05284 1.18200
O 	O 	0.05713 0.12095 0.04255 -0.44600
O 	O 	0.04101 0.92202 0.08438 -0.72700
O 	O 	0.04752 0.10915 0.54160 -0.44600
C 	C 	0.03340 0.92308 0.40242 -0.04000
O 	O 	0.00595 0.87870 0.49817 -0.37400
H 	H 	0.03712 0.42915 0.06045 0.07800
Co	Co	0.06239 0.01879 0.55078 1.18400
C 	C 	0.07142 0.21269 0.64269 0.36100
O 	O 	0.06329 0.92969 0.58304 -0.73500
C 	C 	0.07267 0.04666 0.88731 -0.02000
H 	H 	0.02521 0.66499 0.18133 0.05700
H 	H 	0.06521 0.48245 0.10220 0.07300
C 	C 	0.05070 0.58712 0.14986 -0.11500
C 	C 	0.01065 0.95107 0.96625 0.28000
H 	H 	0.02072 0.51886 0.17343 0.06300
C 	C 	0.00747 0.96468 0.91348 0.00300
O 	O 	0.00180 0.87960 0.99926 -0.36900
H 	H 	0.07544 0.32999 0.08981 0.05400
H 	H 	0.08114 0.59910 0.12331 0.05800
C 	C 	0.08767 0.05188 0.84593 -0.03200
C 	C 	0.08049 0.88585 0.44293 0.08300
H 	H 	0.99390 0.59409 0.12675 0.02300
Co	Co	0.99081 0.85611 0.13415 1.15800
O 	O 	0.98874 0.95067 0.24160 -0.40000
Co	Co	0.99791 0.08922 0.09360 1.15700
Co	Co	0.99764 0.07340 0.59829 1.15800
C 	C 	0.98736 0.97351 0.31196 -0.12400
O 	O 	0.98572 0.16768 0.64331 -0.46400
H 	H 	0.09889 0.20736 0.75474 0.08600
Co	Co	0.09711 0.88757 0.06630 1.17100
C 	C 	0.09245 0.20539 0.16451 0.29600
C 	C 	0.15188 0.84334 0.17570 0.29600
O 	O 	0.10326 0.18889 0.13325 -0.37000
O 	O 	0.18537 0.89844 0.13587 -0.39700
O 	O 	0.09748 0.84418 0.18665 -0.36900
C 	C 	0.94913 0.95820 0.26038 0.29900
O 	O 	0.19118 0.01578 0.03392 -0.42100
O 	O 	0.19964 0.08744 0.07299 -0.40500
Co	Co	0.11930 0.90668 0.55644 1.17700
C 	C 	0.21194 0.88772 0.66146 0.30000
O 	O 	0.09567 0.18353 0.62831 -0.39300
O 	O 	0.22652 0.94034 0.61748 -0.39900
O 	O 	0.15962 0.87728 0.68126 -0.37500
O 	O 	0.19128 0.03588 0.51633 -0.42000
O 	O 	0.20293 0.10069 0.56129 -0.40900
H 	H 	0.14045 0.11457 0.82764 0.04000
C 	C 	0.11917 0.12675 0.89975 0.08500
N 	N 	0.15581 0.19123 0.90925 -0.12200
C 	C 	0.13469 0.30371 0.64824 -0.12300
C 	C 	0.15741 0.31688 0.69460 0.10800
C 	C 	0.17086 0.38911 0.69602 -0.08800
H 	H 	0.18431 0.39642 0.73169 0.05400
C 	C 	0.16412 0.25262 0.74270 -0.21400
H 	H 	0.17854 0.21484 0.73867 0.08400
H 	H 	0.22119 0.28785 0.77230 0.07100
C 	C 	0.18820 0.74231 0.70417 -0.01500
C 	C 	0.24747 0.83392 0.68595 -0.10700
H 	H 	0.12694 0.71429 0.71340 0.05100
H 	H 	0.39711 0.99711 0.62738 0.08400
H 	H 	0.09603 0.55000 0.71009 0.07600
H 	H 	0.12227 0.58182 0.76254 0.07400
C 	C 	0.11460 0.34789 0.12535 -0.01900
C 	C 	0.14246 0.29648 0.16563 -0.09900
C 	C 	0.19417 0.32069 0.21178 0.10200
C 	C 	0.22827 0.26893 0.25541 -0.20500
H 	H 	0.17339 0.21136 0.27590 0.09300
C 	C 	0.09659 0.69132 0.19077 -0.01200
C 	C 	0.16480 0.77214 0.20383 -0.10700
C 	C 	0.12108 0.65175 0.18239 0.02200
H 	H 	0.27874 0.13540 0.44008 0.08000
C 	C 	0.70793 0.29949 0.01052 0.01800
C 	C 	0.61214 0.25660 0.99905 -0.05900
C 	C 	0.57891 0.28931 0.00623 0.02400
C 	C 	0.63963 0.37186 0.01590 -0.07800
C 	C 	0.73392 0.41342 0.02961 0.02900
C 	C 	0.76864 0.37571 0.02900 -0.07700
H 	H 	0.56378 0.19645 0.98661 0.04600
H 	H 	0.61325 0.39932 0.01847 0.04900
H 	H 	0.84124 0.40413 0.04356 0.03500
C 	C 	0.73130 0.27215 0.55288 0.03000
C 	C 	0.64556 0.21951 0.56418 -0.08100
C 	C 	0.61644 0.25845 0.56864 0.03300
C 	C 	0.67711 0.34667 0.56927 -0.08200
C 	C 	0.76348 0.39893 0.56035 0.03400
C 	C 	0.78755 0.36389 0.54756 -0.08100
H 	H 	0.60056 0.14917 0.56803 0.04400
H 	H 	0.65587 0.37563 0.57517 0.05100
H 	H 	0.84930 0.40720 0.53414 0.04300
C 	C 	0.24778 0.64930 0.18800 0.03300
C 	C 	0.32914 0.71248 0.17055 -0.08100
C 	C 	0.36615 0.68570 0.16140 0.03800
C 	C 	0.31617 0.59792 0.16262 -0.08300
C 	C 	0.23406 0.53455 0.17811 0.03800
C 	C 	0.20255 0.55903 0.19411 -0.08100
H 	H 	0.36555 0.78178 0.16620 0.04900
H 	H 	0.34315 0.57818 0.15324 0.05300
H 	H 	0.14415 0.50884 0.21103 0.05400
C 	C 	0.29714 0.66531 0.68917 0.03500
C 	C 	0.38925 0.69524 0.70342 -0.08000
C 	C 	0.41282 0.65825 0.69223 0.03700
C 	C 	0.34456 0.58456 0.67283 -0.08200
C 	C 	0.25236 0.54842 0.66259 0.03600
C 	C 	0.22789 0.59080 0.66846 -0.07900
H 	H 	0.44305 0.75102 0.72011 0.04800
H 	H 	0.36330 0.55378 0.66651 0.05200
H 	H 	0.15693 0.56765 0.65593 0.05500
Co	Co	0.92188 0.92155 0.17012 1.18600
C 	C 	0.23963 0.07984 0.05503 0.30900
Co	Co	0.89865 0.05820 0.16482 1.15900
C 	C 	0.92043 0.71835 0.08992 0.25100
O 	O 	0.91411 0.16111 0.10266 -0.43100
O 	O 	0.93855 0.01840 0.13909 -0.79100
C 	C 	0.88132 0.15151 0.05747 0.30400
O 	O 	0.92831 0.82318 0.18350 -0.48400
C 	C 	0.73204 0.88272 0.14700 0.29700
O 	O 	0.96614 0.96022 0.10222 -0.59800
O 	O 	0.90189 0.11730 0.04479 -0.40900
O 	O 	0.76858 0.96762 0.13197 -0.39000
O 	O 	0.78138 0.85184 0.16429 -0.38000
O 	O 	0.88051 0.96229 0.23108 -0.40000
O 	O 	0.89536 0.74644 0.10432 -0.39600
Co	Co	0.96541 0.92000 0.68598 1.17700
C 	C 	0.24039 0.09991 0.53767 0.31700
Co	Co	0.90805 0.03567 0.67812 1.15200
C 	C 	0.96879 0.72825 0.60039 0.25300
O 	O 	0.80779 0.01578 0.61251 -0.41400
O 	O 	0.95826 0.00581 0.65173 -0.78000
C 	C 	0.83094 0.07165 0.56998 0.30200
O 	O 	0.99487 0.83822 0.69904 -0.48900
C 	C 	0.78441 0.84043 0.69823 0.32000
O 	O 	0.99028 0.95549 0.61178 -0.60500
O 	O 	0.88603 0.08050 0.55348 -0.40300
O 	O 	0.83005 0.90664 0.71697 -0.41500
O 	O 	0.82716 0.82928 0.68510 -0.39700
O 	O 	0.94602 0.75199 0.61972 -0.40000
C 	C 	0.95407 0.88994 0.89505 -0.06600
C 	C 	0.96650 0.89615 0.85229 -0.04200
H 	H 	0.90435 0.82620 0.91481 0.04300
C 	C 	0.91456 0.81721 0.83685 0.06900
N 	N 	0.87324 0.75386 0.82461 -0.12700
C 	C 	0.98107 0.01375 0.37053 -0.12200
C 	C 	0.97516 0.02321 0.32137 0.02000
H 	H 	0.96554 0.04745 0.37659 0.05000
C 	C 	0.95889 0.08584 0.28110 0.03100
N 	N 	0.94580 0.13614 0.24903 -0.14900
N 	N 	0.11831 0.85605 0.47533 -0.14100
C 	C 	0.14198 0.37161 0.60504 -0.00500
C 	C 	0.18377 0.45922 0.65386 -0.00600
C 	C 	0.16364 0.44809 0.60728 0.03300
C 	C 	0.17025 0.51959 0.56041 -0.17800
H 	H 	0.12483 0.36256 0.56918 0.04100
H 	H 	0.12676 0.49245 0.52682 0.07300
H 	H 	0.24273 0.56954 0.55701 0.06700
H 	H 	0.14610 0.55181 0.56134 0.07300
C 	C 	0.53471 0.73595 0.65054 -0.09000
C 	C 	0.50898 0.70231 0.69500 -0.00900
C 	C 	0.57036 0.69766 0.74142 0.02900
C 	C 	0.65966 0.73495 0.74237 -0.01100
C 	C 	0.68675 0.77317 0.69771 -0.11700
C 	C 	0.62100 0.76569 0.65190 0.10400
C 	C 	0.64344 0.79195 0.60423 -0.21300
H 	H 	0.48601 0.73588 0.61495 0.05100
H 	H 	0.70965 0.73874 0.77774 0.04300
C 	C 	0.54200 0.65543 0.78984 -0.17500
H 	H 	0.58004 0.76437 0.57441 0.06900
H 	H 	0.68032 0.76655 0.61045 0.08000
H 	H 	0.68674 0.86450 0.59076 0.08500
H 	H 	0.47576 0.58895 0.78912 0.06500
H 	H 	0.53453 0.69690 0.79572 0.06400
H 	H 	0.59375 0.64756 0.82227 0.06200
C 	C 	0.33724 0.81330 0.67179 -0.08800
C 	C 	0.27733 0.72148 0.68844 -0.00900
C 	C 	0.20663 0.68634 0.70898 0.03900
C 	C 	0.32906 0.86882 0.67664 0.09900
C 	C 	0.40472 0.96603 0.66807 -0.20500
H 	H 	0.39251 0.84189 0.65663 0.05100
C 	C 	0.15268 0.59139 0.73689 -0.18300
H 	H 	0.47292 0.97807 0.68384 0.07000
H 	H 	0.40327 0.99745 0.68668 0.08200
H 	H 	0.19751 0.56896 0.76001 0.07100
C 	C 	0.21077 0.39132 0.21788 -0.08100
C 	C 	0.18269 0.44256 0.17760 -0.01100
C 	C 	0.12981 0.41753 0.13176 0.04300
C 	C 	0.09343 0.46777 0.08876 -0.18200
H 	H 	0.25123 0.41021 0.25314 0.05200
H 	H 	0.14964 0.53038 0.07057 0.06900
H 	H 	0.24852 0.24575 0.24249 0.07800
H 	H 	0.28965 0.31004 0.28166 0.06800
C 	C 	0.62136 0.80086 0.19692 -0.02100
C 	C 	0.63696 0.82139 0.15171 -0.10400
C 	C 	0.56369 0.80178 0.10884 0.09300
C 	C 	0.47754 0.76749 0.11116 -0.08600
C 	C 	0.46173 0.74669 0.15646 -0.01200
C 	C 	0.53464 0.76432 0.19963 0.03300
C 	C 	0.51982 0.74295 0.24886 -0.17600
H 	H 	0.67806 0.81675 0.22965 0.04300
H 	H 	0.42073 0.75087 0.07851 0.05000
C 	C 	0.57299 0.80622 0.06258 -0.20200
H 	H 	0.58363 0.76034 0.27902 0.06200
H 	H 	0.46633 0.67145 0.26051 0.06600
H 	H 	0.49794 0.78060 0.24523 0.06300
H 	H 	0.54729 0.74021 0.06404 0.07000
H 	H 	0.64494 0.85387 0.05860 0.07100
H 	H 	0.53172 0.82653 0.02862 0.06700
C 	C 	0.25404 0.79371 0.22813 0.09900
C 	C 	0.27694 0.74490 0.22835 -0.08800
C 	C 	0.21329 0.67870 0.20170 -0.00600
H 	H 	0.34604 0.76251 0.24623 0.04800
C 	C 	0.32628 0.87098 0.25144 -0.20600
H 	H 	0.29461 0.88500 0.26264 0.08000
H 	H 	0.36788 0.92987 0.22443 0.07400
H 	H 	0.37251 0.85730 0.28549 0.07000
C 	C 	0.69453 0.15837 0.52399 -0.09400
C 	C 	0.76086 0.23068 0.54619 -0.01000
C 	C 	0.85318 0.25818 0.56454 0.02200
C 	C 	0.87677 0.21985 0.55454 -0.01600
C 	C 	0.80901 0.13591 0.54553 -0.12200
C 	C 	0.71688 0.10726 0.52674 0.10100
C 	C 	0.64199 0.02083 0.51214 -0.22900
H 	H 	0.62496 0.13952 0.50673 0.04700
H 	H 	0.94826 0.24988 0.56011 0.03000
C 	C 	0.92212 0.31567 0.60116 -0.17100
H 	H 	0.58107 0.01954 0.48554 0.06600
H 	H 	0.62068 0.96646 0.54598 0.09100
H 	H 	0.66657 0.00980 0.49364 0.07100
H 	H 	0.88822 0.30618 0.62466 0.05500
H 	H 	0.96294 0.38575 0.58104 0.04800
H 	H 	0.97041 0.29812 0.62743 0.05600
C 	C 	0.92185 0.57688 0.62832 -0.02200
C 	C 	0.90557 0.63932 0.59277 -0.09900
C 	C 	0.84835 0.62446 0.54501 0.08700
C 	C 	0.81634 0.55243 0.53206 -0.08700
C 	C 	0.82974 0.48835 0.56801 -0.01300
C 	C 	0.88383 0.50119 0.61651 0.02400
C 	C 	0.90341 0.43560 0.65537 -0.16900
H 	H 	0.96731 0.58904 0.66464 0.02400
H 	H 	0.77365 0.54200 0.49507 0.04800
C 	C 	0.82143 0.68512 0.50725 -0.20300
H 	H 	0.93178 0.44642 0.69326 0.04400
H 	H 	0.95405 0.44220 0.64623 0.04500
H 	H 	0.83976 0.36725 0.65717 0.05800
H 	H 	0.86120 0.72735 0.47810 0.07200
H 	H 	0.83270 0.72701 0.52449 0.07500
H 	H 	0.74714 0.64596 0.48892 0.06700
C 	C 	0.46332 0.21279 0.51355 -0.09200
C 	C 	0.51858 0.21312 0.56218 -0.00900
C 	C 	0.48569 0.18926 0.60184 0.02200
C 	C 	0.39656 0.16246 0.59228 -0.01000
C 	C 	0.34006 0.15843 0.54386 -0.12100
C 	C 	0.37666 0.19092 0.50372 0.10300
C 	C 	0.32170 0.19827 0.45045 -0.20600
H 	H 	0.49007 0.23435 0.48289 0.05000
H 	H 	0.36919 0.13953 0.62299 0.03800
C 	C 	0.54609 0.19431 0.65402 -0.17100
H 	H 	0.36788 0.25176 0.42439 0.06800
H 	H 	0.27667 0.21399 0.44552 0.08000
H 	H 	0.59936 0.26408 0.65608 0.06100
H 	H 	0.58009 0.16365 0.66437 0.05500
H 	H 	0.50582 0.15926 0.68203 0.05500
C 	C 	0.69599 0.16701 0.02328 -0.09200
C 	C 	0.74339 0.25901 0.00812 -0.01800
C 	C 	0.82398 0.31091 0.99092 0.04400
C 	C 	0.86611 0.27264 0.00055 -0.04200
C 	C 	0.82289 0.18171 0.02115 -0.11400
C 	C 	0.73121 0.12865 0.02441 0.10100
C 	C 	0.67038 0.03151 0.02900 -0.24600
H 	H 	0.63204 0.12505 0.03436 0.04400
H 	H 	0.93439 0.31429 0.99453 0.03200
C 	C 	0.86328 0.40476 0.96082 -0.17900
H 	H 	0.60929 0.01450 0.99707 0.07800
H 	H 	0.64652 0.99496 0.06411 0.10000
H 	H 	0.70622 0.01023 0.02855 0.08100
H 	H 	0.91736 0.45027 0.98583 0.05000
H 	H 	0.80911 0.41579 0.93942 0.06500
H 	H 	0.89481 0.42096 0.93324 0.05500
C 	C 	0.79246 0.48478 0.09424 -0.08700
C 	C 	0.79449 0.49371 0.04754 -0.01700
C 	C 	0.82703 0.57623 0.01274 0.02400
C 	C 	0.85114 0.64641 0.02383 -0.04200
C 	C 	0.85240 0.63843 0.07111 -0.09600
C 	C 	0.81586 0.55501 0.10500 0.08300
C 	C 	0.80326 0.54077 0.15305 -0.19800
H 	H 	0.76585 0.42106 0.12072 0.04400
H 	H 	0.87610 0.70962 0.99700 0.04200
C 	C 	0.83136 0.58844 0.96258 -0.16900
H 	H 	0.75165 0.47010 0.16796 0.06200
H 	H 	0.77813 0.57729 0.14683 0.07700
H 	H 	0.86929 0.56324 0.18149 0.05800
H 	H 	0.76092 0.55621 0.93834 0.06600
H 	H 	0.86319 0.55912 0.96717 0.05800
H 	H 	0.87344 0.65919 0.94353 0.06000
C 	C 	0.35119 0.21430 0.00572 -0.04400
C 	C 	0.33526 0.14995 0.05086 -0.10100
C 	C 	0.40232 0.13416 0.08184 0.08700
C 	C 	0.47525 0.17106 0.06353 -0.08000
C 	C 	0.48717 0.23015 0.01646 -0.02500
C 	C 	0.42278 0.24989 0.98664 0.05900
C 	C 	0.43181 0.31102 0.93523 -0.18700
H 	H 	0.30328 0.23118 0.98346 0.05800
H 	H 	0.52588 0.15763 0.08716 0.04500
C 	C 	0.39337 0.07331 0.13320 -0.20200
H 	H 	0.36438 0.29835 0.91150 0.07000
H 	H 	0.45687 0.30141 0.91616 0.06800
H 	H 	0.48070 0.38026 0.93816 0.06800
H 	H 	0.36050 0.00673 0.13135 0.06800
H 	H 	0.35201 0.06950 0.14872 0.07600
H 	H 	0.46220 0.09724 0.15931 0.06100
