data_crystal

_cell_length_a 26.51997
_cell_length_b 25.47979
_cell_length_c 26.27644
_cell_angle_alpha 95.47979
_cell_angle_beta  95.47854
_cell_angle_gamma 125.87965

_symmetry_space_group_name_	'P 1'
_symmetry_space_group_name_H-M	'P 1'

loop_
_symmetry_equiv_pos_as_xyz
  x,y,z

loop_
_atom_site_label
_atom_site_type_symbol
_atom_site_fract_x
_atom_site_fract_y
_atom_site_fract_z
_atom_site_charge
N 	N 	0.03274 0.97496 0.97542 -0.01200
C 	C 	0.06832 0.03880 0.96912 0.14700
N 	N 	0.04660 0.07518 0.97740 -0.05900
C 	C 	0.03366 0.02048 0.43758 0.19200
F 	F 	0.03166 0.78651 0.46476 -0.31100
C 	C 	0.13369 0.10086 0.50029 0.06200
C 	C 	0.10284 0.06959 0.44863 0.06700
C 	C 	0.13861 0.08233 0.40872 -0.06600
H 	H 	0.10564 0.09302 0.53010 0.14800
C 	C 	0.10632 0.05390 0.35195 0.74600
F 	F 	0.05872 0.06097 0.34106 -0.36600
F 	F 	0.08054 0.98771 0.34151 -0.30800
F 	F 	0.14875 0.08575 0.31912 -0.36600
F 	F 	0.03607 0.10141 0.09827 -0.35900
C 	C 	0.13238 0.06997 0.95710 0.09300
C 	C 	0.14288 0.03995 0.91539 -0.13200
H 	H 	0.17608 0.15234 0.02053 0.12200
C 	C 	0.08854 0.98443 0.87347 0.83900
F 	F 	0.10971 0.98113 0.82795 -0.33800
F 	F 	0.04283 0.99411 0.86199 -0.33100
F 	F 	0.06178 0.92511 0.89020 -0.34000
C 	C 	0.18431 0.12803 0.98994 0.06900
F 	F 	0.19010 0.15812 0.60267 -0.35700
C 	C 	0.20477 0.11962 0.42229 0.05200
C 	C 	0.20007 0.13992 0.51379 -0.07200
C 	C 	0.20487 0.06112 0.91373 0.07700
N 	N 	0.00750 0.95547 0.42508 -0.03200
H 	H 	0.21299 0.03428 0.88536 0.11500
H 	H 	0.23259 0.12650 0.39245 0.12600
C 	C 	0.23543 0.14661 0.47448 0.08700
C 	C 	0.23303 0.17585 0.56959 0.78600
C 	C 	0.24662 0.15342 0.98445 -0.05500
F 	F 	0.24144 0.05163 0.51617 -0.37600
F 	F 	0.24989 0.00266 0.98148 -0.39000
C 	C 	0.25645 0.11589 0.94933 0.07800
F 	F 	0.25731 0.04137 0.43421 -0.40200
F 	F 	0.26761 0.24310 0.57167 -0.37700
F 	F 	0.28208 0.25272 0.04195 -0.37000
F 	F 	0.27339 0.16131 0.58782 -0.36900
F 	F 	0.28024 0.08138 0.05023 -0.38400
C 	C 	0.28692 0.07080 0.48552 0.79000
C 	C 	0.30216 0.22056 0.01535 0.76000
C 	C 	0.30146 0.05751 0.01556 0.76700
C 	C 	0.30457 0.18113 0.48739 0.10600
C 	C 	0.32034 0.13261 0.95026 0.10600
F 	F 	0.32096 0.04800 0.50147 -0.39000
H 	H 	0.32554 0.27670 0.48875 0.14400
C 	C 	0.32991 0.14532 0.49021 -0.10400
F 	F 	0.33257 0.03765 0.04342 -0.40000
H 	H 	0.33721 0.18501 0.88675 0.13600
F 	F 	0.33858 0.21359 0.05118 -0.38400
F 	F 	0.33933 0.25980 0.98207 -0.37900
C 	C 	0.34444 0.11016 0.98539 -0.09000
C 	C 	0.34532 0.24980 0.49173 0.03400
F 	F 	0.00092 0.09992 0.54900 -0.35300
C 	C 	0.35700 0.17058 0.91526 0.03800
C 	C 	0.98931 0.04756 0.99156 0.12800
N 	N 	0.95317 0.98322 0.99624 -0.02000
C 	C 	0.97461 0.94678 0.98783 0.16400
C 	C 	0.93336 0.99350 0.44309 0.28500
N 	N 	0.99647 0.03942 0.44609 -0.15100
C 	C 	0.94431 0.90919 0.42183 0.17300
N 	N 	0.90742 0.92834 0.43191 -0.07600
Cu	Cu	0.63383 0.22822 0.00335 0.93400
Cu	Cu	0.70300 0.24762 0.90238 0.90800
Cu	Cu	0.68018 0.34302 0.94575 0.92600
Cu	Cu	0.62584 0.34365 0.04130 0.91800
C 	C 	0.63241 0.26108 0.11069 0.29700
O 	O 	0.53960 0.18542 0.99155 -0.31400
C 	C 	0.67755 0.31221 0.83335 0.30000
O 	O 	0.68300 0.33098 0.01669 -0.64200
O 	O 	0.63833 0.24615 0.93185 -0.62700
O 	O 	0.67663 0.18491 0.00277 -0.34800
O 	O 	0.75520 0.26176 0.96470 -0.34500
O 	O 	0.60446 0.28754 0.09548 -0.34200
O 	O 	0.72450 0.43732 0.96425 -0.27700
C 	C 	0.71741 0.46731 0.00367 0.29000
C 	C 	0.51650 0.21460 0.97213 0.29700
O 	O 	0.55440 0.27827 0.97259 -0.30500
O 	O 	0.66768 0.43451 0.02647 -0.31900
O 	O 	0.64230 0.22796 0.07655 -0.32400
C 	C 	0.73453 0.21620 0.99348 0.35000
O 	O 	0.69360 0.35723 0.87416 -0.32700
O 	O 	0.67202 0.25827 0.83874 -0.36500
H 	H 	0.72612 0.35837 0.03825 0.23500
H 	H 	0.59700 0.22030 0.90770 0.22500
Cu	Cu	0.69177 0.30061 0.43192 0.93800
Cu	Cu	0.74405 0.30710 0.55164 0.89600
Cu	Cu	0.62625 0.31493 0.51554 0.92400
Cu	Cu	0.57885 0.31044 0.40419 0.92200
C 	C 	0.62760 0.26485 0.32616 0.31200
O 	O 	0.73756 0.39032 0.41076 -0.28000
C 	C 	0.67548 0.32626 0.61877 0.29100
O 	O 	0.60182 0.26881 0.44550 -0.63700
O 	O 	0.71215 0.34204 0.50610 -0.62300
O 	O 	0.71755 0.24130 0.43783 -0.32000
O 	O 	0.79633 0.30576 0.50840 -0.35000
O 	O 	0.58395 0.27228 0.33651 -0.33800
O 	O 	0.54121 0.28167 0.52283 -0.32000
C 	C 	0.50058 0.27765 0.48649 0.29900
C 	C 	0.71966 0.42823 0.41982 0.29300
O 	O 	0.66744 0.40558 0.43795 -0.33800
O 	O 	0.51909 0.30803 0.44662 -0.30200
O 	O 	0.65706 0.25350 0.36167 -0.32000
C 	C 	0.77031 0.25935 0.46691 0.31800
O 	O 	0.65279 0.34934 0.58940 -0.32600
O 	O 	0.68356 0.28364 0.59715 -0.39100
H 	H 	0.56917 0.22057 0.44119 0.19100
H 	H 	0.74296 0.39067 0.51181 0.19000
C 	C 	0.62128 0.30657 0.69426 -0.02500
C 	C 	0.67795 0.33584 0.67523 -0.06200
C 	C 	0.73585 0.36728 0.71022 0.10500
C 	C 	0.73538 0.36262 0.76295 -0.01900
C 	C 	0.67810 0.32841 0.78118 -0.06900
C 	C 	0.62101 0.30319 0.74727 0.12600
C 	C 	0.55939 0.26947 0.76680 -0.24000
H 	H 	0.57703 0.28383 0.66744 0.09400
H 	H 	0.77936 0.38332 0.78943 0.08400
C 	C 	0.79782 0.40275 0.69107 -0.21400
H 	H 	0.52133 0.26236 0.73810 0.16100
H 	H 	0.56525 0.29978 0.80339 0.16700
H 	H 	0.54417 0.22043 0.77421 0.15600
H 	H 	0.79957 0.43409 0.66359 0.10800
H 	H 	0.80301 0.36623 0.67103 0.08900
H 	H 	0.83875 0.43548 0.72373 0.13000
C 	C 	0.57835 0.20479 0.18088 -0.01800
C 	C 	0.63480 0.25157 0.16484 -0.06900
C 	C 	0.69141 0.29422 0.20195 0.14000
C 	C 	0.68933 0.29387 0.25512 -0.02000
C 	C 	0.63144 0.25235 0.27131 -0.04800
C 	C 	0.57654 0.20378 0.23396 0.11700
C 	C 	0.51557 0.15225 0.25029 -0.22200
H 	H 	0.53533 0.17061 0.15210 0.08800
H 	H 	0.73221 0.32808 0.28394 0.13600
C 	C 	0.75319 0.34283 0.18527 -0.24600
H 	H 	0.48476 0.10793 0.21891 0.13600
H 	H 	0.48951 0.17272 0.25901 0.13400
H 	H 	0.52512 0.13584 0.28522 0.12700
H 	H 	0.75210 0.38166 0.17058 0.15300
H 	H 	0.76094 0.31717 0.15400 0.16500
H 	H 	0.79407 0.36697 0.21805 0.17900
C 	C 	0.82827 0.72277 0.38279 0.06100
C 	C 	0.86229 0.70407 0.40907 0.08600
C 	C 	0.92694 0.75225 0.43159 -0.06400
C 	C 	0.95261 0.81925 0.43633 0.06000
C 	C 	0.91734 0.83838 0.41274 0.08600
C 	C 	0.85685 0.78952 0.38127 -0.06700
C 	C 	0.82932 0.63406 0.41361 0.10700
C 	C 	0.96877 0.73233 0.44924 0.75400
H 	H 	0.99973 0.85661 0.45879 0.12900
C 	C 	0.82257 0.80759 0.34603 0.78500
H 	H 	0.77943 0.68527 0.36372 0.13100
C 	C 	0.80171 0.61065 0.45751 -0.09700
C 	C 	0.77256 0.54432 0.46097 0.08400
C 	C 	0.76328 0.49943 0.41882 0.00800
C 	C 	0.78799 0.52230 0.37358 -0.05100
C 	C 	0.82295 0.59009 0.37247 0.03500
C 	C 	0.79858 0.65471 0.49837 0.79100
H 	H 	0.75404 0.52650 0.49552 0.09700
C 	C 	0.77727 0.47492 0.32660 0.77300
H 	H 	0.84430 0.60876 0.33911 0.14100
F 	F 	0.78977 0.82255 0.37429 -0.36300
F 	F 	0.77970 0.75556 0.30548 -0.35700
F 	F 	0.86484 0.86101 0.32432 -0.36600
F 	F 	0.96518 0.69079 0.40868 -0.38500
F 	F 	0.94919 0.70001 0.49066 -0.36800
F 	F 	0.79790 0.50563 0.28446 -0.40300
F 	F 	0.71337 0.42366 0.31145 -0.44900
F 	F 	0.81028 0.45003 0.33906 -0.40600
F 	F 	0.76908 0.62238 0.53765 -0.37600
F 	F 	0.76460 0.67437 0.47534 -0.38200
F 	F 	0.85885 0.70994 0.52094 -0.36700
C 	C 	0.85521 0.18521 0.43557 0.03300
C 	C 	0.81947 0.12628 0.45465 0.10000
C 	C 	0.76735 0.11107 0.47782 -0.09500
C 	C 	0.75321 0.15635 0.48240 0.07800
C 	C 	0.78814 0.21452 0.46240 -0.00600
C 	C 	0.83903 0.22891 0.43802 -0.04900
C 	C 	0.83971 0.08299 0.45315 0.08200
C 	C 	0.72961 0.04915 0.50106 0.74900
H 	H 	0.71511 0.14669 0.50189 0.07500
C 	C 	0.87650 0.29117 0.41534 0.77600
H 	H 	0.89580 0.19693 0.41905 0.13300
C 	C 	0.82581 0.04010 0.40660 -0.05900
C 	C 	0.85378 0.00724 0.40499 0.00600
C 	C 	0.89285 0.01456 0.44927 0.01600
C 	C 	0.90025 0.05095 0.49718 -0.05200
C 	C 	0.87657 0.08786 0.49793 0.04300
C 	C 	0.78629 0.03401 0.35735 0.73900
H 	H 	0.84799 0.97875 0.36857 0.19800
C 	C 	0.93664 0.05388 0.54694 0.70400
H 	H 	0.88758 0.12130 0.53318 0.12800
F 	F 	0.83601 0.29285 0.37939 -0.39800
F 	F 	0.92176 0.29449 0.39045 -0.37800
F 	F 	0.90692 0.34586 0.45477 -0.39400
F 	F 	0.76484 0.05739 0.54752 -0.39500
F 	F 	0.71471 0.99480 0.46743 -0.30600
F 	F 	0.67324 0.03611 0.51079 -0.39200
F 	F 	0.92333 0.99294 0.54901 -0.33100
F 	F 	0.92034 0.07170 0.59032 -0.36600
F 	F 	0.76584 0.97915 0.32101 -0.30700
F 	F 	0.82234 0.08948 0.33563 -0.39100
F 	F 	0.73312 0.02771 0.36808 -0.37800
C 	C 	0.39528 0.17873 0.49253 0.07900
C 	C 	0.43546 0.24695 0.49450 0.00200
C 	C 	0.41113 0.28362 0.49862 -0.04800
H 	H 	0.41463 0.15127 0.49023 0.08600
C 	C 	0.45460 0.35843 0.50801 0.77800
F 	F 	0.50979 0.38343 0.54258 -0.39000
F 	F 	0.42561 0.38395 0.52904 -0.35700
F 	F 	0.46953 0.37929 0.46137 -0.38600
C 	C 	0.85675 0.76052 0.96168 0.08700
C 	C 	0.86490 0.74675 0.01091 0.06100
C 	C 	0.90915 0.79908 0.05294 -0.05300
C 	C 	0.94597 0.86413 0.04393 0.03100
C 	C 	0.93641 0.87788 0.99508 0.11700
C 	C 	0.89029 0.82592 0.95377 -0.08200
C 	C 	0.82829 0.67698 0.01737 0.10900
C 	C 	0.92000 0.78564 0.10652 0.78100
H 	H 	0.98214 0.90437 0.07498 0.14800
C 	C 	0.87662 0.84021 0.90147 0.79100
H 	H 	0.82379 0.71999 0.92966 0.12800
C 	C 	0.76273 0.63971 0.01886 -0.09600
C 	C 	0.72724 0.57099 0.01480 0.08100
C 	C 	0.75694 0.54006 0.01391 0.01500
C 	C 	0.82375 0.57882 0.01956 -0.05600
C 	C 	0.85803 0.64613 0.01737 0.03400
C 	C 	0.72934 0.67189 0.02043 0.77900
H 	H 	0.67614 0.54120 0.01072 0.11400
C 	C 	0.85860 0.54862 0.02623 0.76800
H 	H 	0.90789 0.67461 0.01525 0.13500
F 	F 	0.82877 0.78315 0.86683 -0.35700
F 	F 	0.93050 0.87132 0.87979 -0.35600
F 	F 	0.85799 0.88062 0.90803 -0.35000
F 	F 	0.95478 0.76124 0.10580 -0.38200
F 	F 	0.86296 0.74036 0.12104 -0.35800
F 	F 	0.95298 0.84256 0.14407 -0.34800
F 	F 	0.92159 0.59635 0.04905 -0.36700
F 	F 	0.85596 0.51903 0.97811 -0.39300
F 	F 	0.83198 0.50215 0.05794 -0.41600
F 	F 	0.67216 0.63247 0.03686 -0.36200
F 	F 	0.71758 0.68176 0.97120 -0.36300
F 	F 	0.76590 0.73182 0.05456 -0.35200
C 	C 	0.87795 0.22111 0.03339 0.02000
C 	C 	0.85276 0.15517 0.01545 0.12100
C 	C 	0.78627 0.10694 0.00105 -0.14400
C 	C 	0.74731 0.12753 0.99656 0.14000
C 	C 	0.77342 0.19452 0.00966 -0.05200
C 	C 	0.83835 0.24087 0.03279 -0.03600
C 	C 	0.89648 0.13733 0.01113 0.06500
C 	C 	0.75697 0.03389 0.99088 0.78500
H 	H 	0.69708 0.09193 0.98092 0.08400
C 	C 	0.86631 0.31184 0.05488 0.77400
H 	H 	0.92866 0.25730 0.04658 0.13400
C 	C 	0.91814 0.13607 0.96410 -0.06300
C 	C 	0.95088 0.10857 0.95891 0.07400
C 	C 	0.96578 0.08690 0.00085 0.04900
C 	C 	0.95277 0.09796 0.05015 -0.07400
C 	C 	0.91605 0.12087 0.05428 0.05900
C 	C 	0.90719 0.16475 0.91995 0.78300
H 	H 	0.96316 0.10211 0.92185 0.12200
C 	C 	0.97534 0.08266 0.09785 0.75100
H 	H 	0.90126 0.12440 0.09072 0.13000
F 	F 	0.88271 0.34794 0.01540 -0.39100
F 	F 	0.92003 0.34003 0.09245 -0.38300
F 	F 	0.82338 0.31542 0.07797 -0.43300
F 	F 	0.77582 0.01802 0.03397 -0.40300
F 	F 	0.77611 0.01876 0.94834 -0.37200
F 	F 	0.69142 0.99501 0.98097 -0.32100
F 	F 	0.97657 0.11624 0.14319 -0.37600
F 	F 	0.93480 0.01576 0.09772 -0.38900
F 	F 	0.93524 0.16229 0.87888 -0.38100
F 	F 	0.93290 0.23006 0.93765 -0.39700
F 	F 	0.84301 0.12989 0.90139 -0.38400
C 	C 	0.40881 0.13631 0.99130 0.10200
C 	C 	0.44705 0.17853 0.95888 0.00400
C 	C 	0.41908 0.19028 0.91713 -0.05400
H 	H 	0.42971 0.12539 0.02201 0.08200
C 	C 	0.45470 0.22341 0.87460 0.77500
F 	F 	0.49225 0.29113 0.89037 -0.41300
F 	F 	0.41306 0.20615 0.82915 -0.40000
F 	F 	0.49227 0.20430 0.86342 -0.46500
