data_crystal

_cell_length_a 16.61741
_cell_length_b 19.15911
_cell_length_c 47.82290
_cell_angle_alpha 90.54641
_cell_angle_beta  90.54607
_cell_angle_gamma 119.38770

_symmetry_space_group_name_	'P 1'
_symmetry_space_group_name_H-M	'P 1'

loop_
_symmetry_equiv_pos_as_xyz
  x,y,z

loop_
_atom_site_label
_atom_site_type_symbol
_atom_site_fract_x
_atom_site_fract_y
_atom_site_fract_z
_atom_site_charge
C 	C 	0.59036 0.18234 0.92971 0.28300
C 	C 	0.73569 0.49171 0.87599 0.30800
C 	C 	0.66499 0.39775 0.95845 0.30600
C 	C 	0.66793 0.27736 0.84635 0.29000
C 	C 	0.48197 0.41788 0.90638 0.31000
C 	C 	0.37898 0.20336 0.87577 0.29800
Ni	Ni	0.70945 0.34509 0.90518 1.11100
Ni	Ni	0.55732 0.35343 0.86390 1.12000
Ni	Ni	0.49767 0.28268 0.92558 1.11900
O 	O 	0.66646 0.22629 0.91521 -0.37200
O 	O 	0.54883 0.21611 0.94346 -0.37600
O 	O 	0.53744 0.43624 0.88490 -0.38800
O 	O 	0.75272 0.46674 0.89968 -0.38400
O 	O 	0.68822 0.43896 0.85651 -0.38600
O 	O 	0.40534 0.19166 0.90094 -0.39100
O 	O 	0.70445 0.35934 0.94780 -0.38100
O 	O 	0.57916 0.37736 0.95162 -0.38300
O 	O 	0.42046 0.27422 0.86352 -0.38300
O 	O 	0.73340 0.33045 0.86327 -0.37000
O 	O 	0.59035 0.28008 0.84126 -0.36900
O 	O 	0.43385 0.34331 0.91393 -0.39600
O 	O 	0.58477 0.31182 0.89644 -0.71200
H 	H 	0.56494 0.25742 0.88925 0.14800
C 	C 	0.53094 0.16122 0.75681 0.28400
C 	C 	0.65320 0.35298 0.65584 0.29500
C 	C 	0.60036 0.39350 0.75470 0.31400
C 	C 	0.61824 0.18428 0.66609 0.28300
C 	C 	0.41625 0.34275 0.69076 0.30500
C 	C 	0.29229 0.11293 0.69924 0.30600
Ni	Ni	0.64002 0.29207 0.71516 1.11000
Ni	Ni	0.46368 0.22455 0.67026 1.11900
Ni	Ni	0.43470 0.24751 0.73581 1.11700
O 	O 	0.60925 0.22929 0.75292 -0.36400
O 	O 	0.44932 0.15905 0.75507 -0.37300
O 	O 	0.38617 0.27709 0.67557 -0.39500
O 	O 	0.69367 0.36441 0.68056 -0.37900
O 	O 	0.56398 0.32771 0.65362 -0.39000
O 	O 	0.31086 0.17082 0.71783 -0.38600
O 	O 	0.65544 0.39539 0.73501 -0.37700
O 	O 	0.53404 0.32451 0.76293 -0.39100
O 	O 	0.35324 0.11904 0.68034 -0.38800
O 	O 	0.64905 0.20362 0.69223 -0.38300
O 	O 	0.53201 0.16479 0.65892 -0.38300
O 	O 	0.43452 0.34272 0.71770 -0.38400
O 	O 	0.51240 0.24218 0.70721 -0.71100
H 	H 	0.49792 0.18610 0.70878 0.14400
C 	C 	0.95718 0.93460 0.74240 0.29600
C 	C 	0.04486 0.02573 0.81454 0.29100
Ni	Ni	0.88426 0.01220 0.77961 1.11000
O 	O 	0.00997 0.94909 0.82007 -0.36700
O 	O 	0.01774 0.05023 0.79217 -0.38000
O 	O 	0.97650 0.90258 0.76388 -0.39100
C 	C 	0.43556 0.81822 0.45093 0.28700
C 	C 	0.34888 0.51935 0.39360 0.30300
C 	C 	0.37887 0.60891 0.47856 0.30700
C 	C 	0.39570 0.73318 0.36649 0.28600
C 	C 	0.59300 0.61478 0.43240 0.30800
C 	C 	0.68488 0.82850 0.40857 0.29600
Ni	Ni	0.34249 0.65625 0.42259 1.11100
Ni	Ni	0.51862 0.67224 0.38736 1.11800
Ni	Ni	0.54800 0.73513 0.45140 1.12000
O 	O 	0.36648 0.77068 0.43371 -0.36600
O 	O 	0.47825 0.78951 0.46679 -0.37600
O 	O 	0.54991 0.59627 0.40793 -0.39000
O 	O 	0.31885 0.53921 0.41605 -0.38100
O 	O 	0.39812 0.57468 0.37556 -0.38000
O 	O 	0.63911 0.83274 0.43066 -0.39400
O 	O 	0.33402 0.63899 0.46528 -0.37800
O 	O 	0.46728 0.63549 0.47409 -0.38500
O 	O 	0.65038 0.76528 0.39099 -0.38000
O 	O 	0.32897 0.67320 0.38013 -0.36900
O 	O 	0.47670 0.73596 0.36277 -0.37300
O 	O 	0.62865 0.68779 0.44243 -0.39900
O 	O 	0.47148 0.70197 0.41883 -0.71200
H 	H 	0.48658 0.75554 0.41239 0.14500
C 	C 	0.39507 0.74919 0.24933 0.27900
C 	C 	0.38211 0.65082 0.13278 0.29400
C 	C 	0.36400 0.53571 0.22754 0.31000
C 	C 	0.38371 0.79874 0.15757 0.28400
C 	C 	0.59329 0.64787 0.17913 0.29900
C 	C 	0.67424 0.86007 0.21341 0.30600
Ni	Ni	0.33943 0.65648 0.19426 1.10900
Ni	Ni	0.54556 0.77062 0.16661 1.12000
Ni	Ni	0.52651 0.69665 0.22852 1.11800
O 	O 	0.33034 0.68321 0.23648 -0.36600
O 	O 	0.48173 0.76180 0.25175 -0.37000
O 	O 	0.62794 0.72275 0.17172 -0.38700
O 	O 	0.32543 0.61463 0.15341 -0.38000
O 	O 	0.47235 0.68573 0.13672 -0.38800
O 	O 	0.65442 0.78948 0.22319 -0.38800
O 	O 	0.32575 0.54551 0.20493 -0.37500
O 	O 	0.41629 0.59765 0.24353 -0.38500
O 	O 	0.63515 0.86653 0.19002 -0.38300
O 	O 	0.33323 0.75522 0.17867 -0.38200
O 	O 	0.47494 0.82960 0.15755 -0.38200
O 	O 	0.55609 0.62516 0.20409 -0.38400
O 	O 	0.46859 0.71872 0.19741 -0.71100
H 	H 	0.47229 0.76908 0.20387 0.14400
C 	C 	0.27912 0.97953 0.27680 0.28700
C 	C 	0.28205 0.22027 0.35658 0.32200
C 	C 	0.27320 0.95928 0.33814 0.29900
C 	C 	0.25862 0.23476 0.28165 0.29200
Ni	Ni	0.31366 0.12006 0.31374 1.10700
O 	O 	0.32343 0.05920 0.27855 -0.37700
O 	O 	0.18787 0.93718 0.27982 -0.37900
O 	O 	0.32103 0.17580 0.35242 -0.37900
O 	O 	0.22446 0.22042 0.33805 -0.40100
O 	O 	0.33496 0.03585 0.33574 -0.37700
O 	O 	0.18595 0.93825 0.34119 -0.38700
O 	O 	0.32581 0.22065 0.29133 -0.36400
O 	O 	0.16958 0.18212 0.28424 -0.38300
O 	O 	0.18429 0.06592 0.30870 -0.71500
H 	H 	0.18216 0.06888 0.28814 0.15200
C 	C 	0.25809 0.42408 0.25758 -0.03800
C 	C 	0.33038 0.45406 0.23853 -0.09400
C 	C 	0.37800 0.41098 0.23324 0.10900
C 	C 	0.35574 0.34132 0.24831 -0.04700
C 	C 	0.28476 0.31212 0.26786 -0.08300
C 	C 	0.23659 0.35522 0.27304 0.10700
N 	N 	0.17313 0.33336 0.29362 -0.19700
H 	H 	0.22180 0.45713 0.26164 0.05000
H 	H 	0.39203 0.30837 0.24410 0.05100
N 	N 	0.44296 0.43464 0.21318 -0.20300
H 	H 	0.13325 0.36155 0.29572 0.08600
H 	H 	0.16777 0.29339 0.30900 0.09000
H 	H 	0.45108 0.47816 0.19900 0.10300
H 	H 	0.48173 0.40563 0.21046 0.08800
C 	C 	0.84373 0.93990 0.21322 -0.03600
C 	C 	0.75985 0.92909 0.22379 -0.09500
C 	C 	0.75991 0.96257 0.25014 0.10500
C 	C 	0.83702 0.98865 0.26805 -0.03900
C 	C 	0.91589 0.98583 0.25920 -0.08800
C 	C 	0.92253 0.96876 0.23072 0.09900
N 	N 	0.00412 0.98183 0.21995 -0.19000
H 	H 	0.84558 0.91940 0.19214 0.04700
H 	H 	0.83398 0.00779 0.28924 0.04800
N 	N 	0.68427 0.96594 0.25885 -0.20000
H 	H 	0.00725 0.96524 0.19928 0.09000
H 	H 	0.06590 0.01291 0.23138 0.09300
H 	H 	0.62733 0.94904 0.24549 0.09600
H 	H 	0.68302 0.98805 0.27881 0.08500
C 	C 	0.40012 0.93806 0.28005 -0.04700
C 	C 	0.32696 0.93778 0.26489 -0.09000
C 	C 	0.28557 0.88245 0.24252 0.11400
C 	C 	0.30531 0.81959 0.23900 -0.04900
C 	C 	0.37400 0.81572 0.25533 -0.08800
C 	C 	0.42163 0.87560 0.27636 0.10600
N 	N 	0.48227 0.87055 0.29436 -0.19900
H 	H 	0.43463 0.98244 0.29655 0.04700
H 	H 	0.26668 0.77342 0.22344 0.05200
N 	N 	0.22725 0.88979 0.22417 -0.19800
H 	H 	0.52420 0.91888 0.30761 0.08700
H 	H 	0.48138 0.81640 0.29753 0.10800
H 	H 	0.21845 0.94016 0.22464 0.10100
H 	H 	0.19389 0.84703 0.20824 0.09100
C 	C 	0.89683 0.00016 0.37946 -0.04600
C 	C 	0.95621 0.96766 0.38049 -0.10400
C 	C 	0.93521 0.90231 0.39808 0.11400
C 	C 	0.84866 0.86309 0.41086 -0.04500
C 	C 	0.78326 0.88805 0.40606 -0.09000
C 	C 	0.81038 0.96098 0.39228 0.10800
N 	N 	0.75340 0.99289 0.39094 -0.20000
H 	H 	0.91525 0.05302 0.36715 0.03700
H 	H 	0.82962 0.80951 0.42282 0.05200
N 	N 	0.99731 0.87663 0.40255 -0.20800
H 	H 	0.77170 0.04467 0.37951 0.07600
H 	H 	0.69275 0.96879 0.40232 0.08900
H 	H 	0.06414 0.90785 0.39473 0.10800
H 	H 	0.98018 0.82651 0.41481 0.08600
C 	C 	0.41203 0.43146 0.37759 -0.04200
C 	C 	0.34028 0.43818 0.39056 -0.09100
C 	C 	0.26176 0.36747 0.39982 0.10600
C 	C 	0.25690 0.29260 0.39526 -0.04200
C 	C 	0.32019 0.28605 0.37764 -0.09900
C 	C 	0.40390 0.35606 0.37207 0.11300
N 	N 	0.47551 0.35137 0.36052 -0.20000
H 	H 	0.47335 0.48483 0.37102 0.05000
H 	H 	0.19548 0.23846 0.40140 0.04700
N 	N 	0.18792 0.36984 0.41078 -0.19900
H 	H 	0.53529 0.40329 0.35476 0.08500
H 	H 	0.47464 0.29669 0.35869 0.09200
H 	H 	0.17638 0.41781 0.40714 0.09500
H 	H 	0.13558 0.31935 0.42036 0.08400
C 	C 	0.29588 0.76913 0.33817 -0.04100
C 	C 	0.37697 0.79491 0.35417 -0.09000
C 	C 	0.42730 0.87630 0.36307 0.10300
C 	C 	0.38917 0.92690 0.35901 -0.04400
C 	C 	0.30556 0.90030 0.34413 -0.09000
C 	C 	0.25966 0.82058 0.33279 0.10400
N 	N 	0.18239 0.79320 0.31636 -0.19500
H 	H 	0.25892 0.70764 0.33051 0.05400
H 	H 	0.42609 0.98800 0.36702 0.05400
N 	N 	0.51366 0.90741 0.37435 -0.20200
H 	H 	0.15285 0.73611 0.30712 0.08700
H 	H 	0.14971 0.82664 0.31282 0.07500
H 	H 	0.54480 0.87244 0.37766 0.09200
H 	H 	0.55233 0.96867 0.37902 0.08100
C 	C 	0.66922 0.16110 0.64682 -0.08700
C 	C 	0.74991 0.22088 0.63468 0.00900
C 	C 	0.77234 0.20936 0.60753 -0.06600
C 	C 	0.71406 0.13810 0.59286 0.02500
C 	C 	0.64727 0.07261 0.60758 -0.06600
C 	C 	0.62442 0.08423 0.63456 0.01600
C 	C 	0.70248 0.13990 0.56246 -0.00100
C 	C 	0.64474 0.16817 0.55193 -0.03800
C 	C 	0.60505 0.14468 0.52525 -0.04100
C 	C 	0.62160 0.09172 0.50915 0.00100
C 	C 	0.68902 0.07245 0.51819 -0.03900
C 	C 	0.72912 0.09632 0.54484 -0.03900
C 	C 	0.55488 0.04230 0.48707 0.02200
C 	C 	0.58718 0.03390 0.46101 -0.07000
C 	C 	0.53754 0.96275 0.44559 0.01800
C 	C 	0.45561 0.90043 0.45614 -0.08400
C 	C 	0.41410 0.91626 0.47887 0.01800
C 	C 	0.46393 0.98719 0.49446 -0.05700
H 	H 	0.78896 0.27905 0.64485 0.02800
H 	H 	0.82890 0.25841 0.59698 0.04600
H 	H 	0.60535 0.01562 0.59691 0.04600
H 	H 	0.56528 0.03604 0.64457 0.03100
H 	H 	0.62325 0.20144 0.56544 0.03700
H 	H 	0.55500 0.16164 0.51817 0.03800
H 	H 	0.70407 0.03303 0.50562 0.03800
H 	H 	0.77486 0.07537 0.55261 0.03600
H 	H 	0.65551 0.07798 0.45437 0.04400
H 	H 	0.56918 0.95174 0.42778 0.02400
H 	H 	0.34858 0.86977 0.48650 0.03500
H 	H 	0.43614 0.99487 0.51393 0.04800
C 	C 	0.71235 0.39254 0.63180 -0.09100
C 	C 	0.69469 0.35163 0.60603 0.01200
C 	C 	0.76605 0.37370 0.58683 -0.07200
C 	C 	0.86889 0.48373 0.61742 -0.07200
C 	C 	0.79722 0.46294 0.63624 0.01700
C 	C 	0.94853 0.46253 0.55044 -0.04600
C 	C 	0.02780 0.47304 0.53684 -0.02600
C 	C 	0.09505 0.46285 0.55144 0.00300
C 	C 	0.08092 0.43958 0.57947 -0.04900
C 	C 	0.18379 0.48428 0.53812 0.02700
C 	C 	0.18527 0.44307 0.51389 -0.06500
C 	C 	0.26065 0.47844 0.49602 0.01300
C 	C 	0.33340 0.55590 0.50196 -0.09100
C 	C 	0.33879 0.59033 0.52842 0.01900
C 	C 	0.26384 0.55479 0.54644 -0.06600
H 	H 	0.62837 0.29896 0.60187 0.02400
H 	H 	0.80991 0.49798 0.65533 0.03500
H 	H 	0.03828 0.49131 0.51521 0.04000
H 	H 	0.13221 0.43132 0.59087 0.04200
H 	H 	0.12521 0.38687 0.50781 0.04700
H 	H 	0.25755 0.44971 0.47610 0.03000
H 	H 	0.39633 0.64889 0.53371 0.02900
H 	H 	0.26488 0.58562 0.56566 0.04800
C 	C 	0.58482 0.55150 0.45122 -0.09400
C 	C 	0.49658 0.49397 0.45994 0.02100
C 	C 	0.48389 0.46764 0.48760 -0.06100
C 	C 	0.56002 0.49615 0.50607 0.02800
C 	C 	0.64941 0.53976 0.49550 -0.06700
C 	C 	0.66178 0.56628 0.46791 0.01900
C 	C 	0.54598 0.49554 0.53650 0.00100
C 	C 	0.55980 0.44322 0.55360 -0.03800
C 	C 	0.54738 0.44375 0.58249 -0.03900
C 	C 	0.52162 0.49699 0.59452 0.00300
C 	C 	0.50938 0.55025 0.57742 -0.03900
C 	C 	0.52231 0.54999 0.54857 -0.03700
C 	C 	0.49804 0.49068 0.62443 0.02700
C 	C 	0.40516 0.45638 0.63210 -0.06500
C 	C 	0.37801 0.42137 0.65834 0.01900
C 	C 	0.44320 0.41810 0.67637 -0.09000
C 	C 	0.53736 0.46890 0.67134 0.02000
C 	C 	0.56500 0.50312 0.64496 -0.05800
H 	H 	0.43670 0.47842 0.44671 0.03900
H 	H 	0.41457 0.43089 0.49525 0.05000
H 	H 	0.70897 0.55915 0.50928 0.04600
H 	H 	0.73084 0.60683 0.46078 0.02800
H 	H 	0.57935 0.40177 0.54452 0.03800
H 	H 	0.55528 0.40138 0.59544 0.04600
H 	H 	0.48903 0.59123 0.58644 0.03900
H 	H 	0.51455 0.59238 0.53559 0.04500
H 	H 	0.35313 0.44994 0.61688 0.04600
H 	H 	0.30508 0.38694 0.66288 0.02900
H 	H 	0.58888 0.47171 0.68606 0.04200
H 	H 	0.63751 0.53280 0.63972 0.05100
C 	C 	0.56961 0.99745 0.78586 -0.03600
C 	C 	0.61291 0.98479 0.76276 -0.09100
C 	C 	0.55858 0.05792 0.73395 -0.05000
C 	C 	0.53437 0.08529 0.75804 -0.09000
C 	C 	0.53146 0.04880 0.78381 0.10100
N 	N 	0.49018 0.06083 0.80629 -0.19900
H 	H 	0.57004 0.97113 0.80577 0.04600
H 	H 	0.54506 0.07415 0.71358 0.05300
H 	H 	0.48324 0.02999 0.82481 0.08400
H 	H 	0.46296 0.09959 0.80535 0.09900
C 	C 	0.03971 0.02840 0.70382 -0.04300
C 	C 	0.01920 0.95793 0.71798 -0.07200
C 	C 	0.07764 0.92429 0.71410 0.10600
C 	C 	0.16739 0.97269 0.70408 -0.03200
C 	C 	0.19486 0.05074 0.69544 -0.10400
C 	C 	0.12673 0.07395 0.69171 0.11400
N 	N 	0.14583 0.14114 0.67744 -0.20000
H 	H 	0.99116 0.05080 0.70394 0.03700
H 	H 	0.21709 0.95154 0.70472 0.04900
N 	N 	0.04796 0.84627 0.72001 -0.18900
H 	H 	0.09713 0.16053 0.67594 0.08900
H 	H 	0.20743 0.17231 0.66658 0.10100
H 	H 	0.97894 0.80760 0.72484 0.08900
H 	H 	0.09258 0.82260 0.71833 0.08900
C 	C 	0.74614 0.59599 0.78907 0.10300
C 	C 	0.71439 0.51623 0.78045 -0.03500
C 	C 	0.62349 0.46808 0.77066 -0.10000
C 	C 	0.56094 0.49840 0.77184 0.10600
N 	N 	0.46873 0.44938 0.76784 -0.19700
H 	H 	0.76105 0.49183 0.78113 0.04800
N 	N 	0.83134 0.63829 0.80120 -0.19700
H 	H 	0.42443 0.47336 0.76596 0.08800
H 	H 	0.43918 0.38742 0.76933 0.08500
H 	H 	0.87547 0.61397 0.80224 0.08400
C 	C 	0.71546 0.45931 0.97988 -0.09300
C 	C 	0.78343 0.53521 0.97125 0.01200
C 	C 	0.80179 0.47788 0.02304 -0.06800
C 	C 	0.72087 0.43488 0.00705 0.01900
C 	C 	0.03701 0.56845 0.00663 -0.02200
C 	C 	0.13733 0.59689 0.04724 -0.00300
C 	C 	0.07327 0.60581 0.06367 -0.02400
C 	C 	0.21876 0.59933 0.06065 0.02800
C 	C 	0.30266 0.67154 0.06200 -0.06900
C 	C 	0.36541 0.68576 0.08400 0.01100
C 	C 	0.34457 0.62698 0.10417 -0.09000
C 	C 	0.27058 0.54936 0.09909 0.01700
C 	C 	0.20702 0.53584 0.07757 -0.06800
H 	H 	0.77823 0.55642 0.95077 0.03300
H 	H 	0.80908 0.45414 0.04279 0.04500
H 	H 	0.66694 0.37788 0.01446 0.02700
H 	H 	0.02235 0.55193 0.98468 0.03900
H 	H 	0.16932 0.57361 0.00571 0.04000
H 	H 	0.08645 0.61914 0.08585 0.03600
H 	H 	0.31501 0.71902 0.04769 0.04800
H 	H 	0.42505 0.74462 0.08688 0.02500
H 	H 	0.25728 0.50168 0.11349 0.03500
H 	H 	0.14459 0.47828 0.07571 0.04900
C 	C 	0.34344 0.83267 0.13822 -0.08300
C 	C 	0.39349 0.91470 0.13230 0.01300
C 	C 	0.38760 0.94099 0.10562 -0.05600
C 	C 	0.33048 0.88540 0.08516 0.02200
C 	C 	0.26467 0.80830 0.09335 -0.06300
C 	C 	0.27180 0.78139 0.11989 0.00800
C 	C 	0.35921 0.89889 0.05584 0.00300
C 	C 	0.42966 0.88397 0.04696 -0.04000
C 	C 	0.46251 0.90185 0.01979 -0.03700
C 	C 	0.43017 0.94037 0.00182 -0.00000
C 	C 	0.35745 0.95310 0.01043 -0.03500
C 	C 	0.32166 0.93175 0.03729 -0.03900
C 	C 	0.48289 0.98019 0.97660 0.03300
C 	C 	0.57821 0.03401 0.97902 -0.07400
C 	C 	0.62134 0.09388 0.95927 0.01800
C 	C 	0.56857 0.10185 0.93782 -0.08500
C 	C 	0.47925 0.03844 0.93220 -0.00100
C 	C 	0.43611 0.97757 0.95167 -0.05500
H 	H 	0.44468 0.95620 0.14715 0.03900
H 	H 	0.43501 0.00224 0.09996 0.04000
H 	H 	0.21521 0.76670 0.07821 0.04800
H 	H 	0.22901 0.71870 0.12482 0.02900
H 	H 	0.46073 0.86060 0.06141 0.03800
H 	H 	0.51720 0.89029 0.01327 0.03800
H 	H 	0.33193 0.98310 0.99684 0.04100
H 	H 	0.26733 0.94356 0.04400 0.04100
H 	H 	0.61661 0.03449 0.99752 0.04500
H 	H 	0.69230 0.14025 0.96285 0.03100
H 	H 	0.43953 0.04155 0.91463 0.02900
H 	H 	0.36405 0.93310 0.94866 0.04600
C 	C 	0.49080 0.48087 0.92610 -0.09100
C 	C 	0.57889 0.53747 0.93626 0.02100
C 	C 	0.58994 0.56613 0.96387 -0.06200
C 	C 	0.51280 0.53934 0.98110 0.02800
C 	C 	0.42406 0.49571 0.96917 -0.06600
C 	C 	0.41311 0.46773 0.94151 0.01800
C 	C 	0.52494 0.54108 0.01173 0.00200
C 	C 	0.54481 0.48531 0.02439 -0.03800
C 	C 	0.55481 0.48540 0.05346 -0.03800
C 	C 	0.54290 0.54006 0.07015 0.00100
C 	C 	0.52167 0.59514 0.05753 -0.03800
C 	C 	0.51270 0.59561 0.02841 -0.03800
C 	C 	0.55406 0.54086 0.10081 0.02700
C 	C 	0.64274 0.57730 0.11301 -0.06600
C 	C 	0.65502 0.59967 0.14135 0.01800
C 	C 	0.57902 0.58801 0.15733 -0.09300
C 	C 	0.48954 0.53970 0.14617 0.01600
C 	C 	0.47716 0.51671 0.11792 -0.05800
H 	H 	0.63941 0.55146 0.92415 0.03900
H 	H 	0.65875 0.60354 0.97251 0.04900
H 	H 	0.36375 0.47759 0.98197 0.04700
H 	H 	0.34432 0.42782 0.93328 0.03100
H 	H 	0.55085 0.44105 0.01171 0.04700
H 	H 	0.57097 0.44259 0.06300 0.03800
H 	H 	0.51276 0.63783 0.07028 0.04600
H 	H 	0.49607 0.63813 0.01886 0.03900
H 	H 	0.70255 0.59358 0.10015 0.04500
H 	H 	0.72439 0.63417 0.14998 0.02900
H 	H 	0.42997 0.52946 0.15820 0.03800
H 	H 	0.40811 0.48590 0.10887 0.04900
C 	C 	0.77162 0.16654 0.80989 -0.04700
C 	C 	0.74977 0.10447 0.82888 -0.09100
C 	C 	0.69226 0.09597 0.85176 0.10700
C 	C 	0.64984 0.14360 0.85328 -0.04800
C 	C 	0.67769 0.20965 0.83587 -0.09200
C 	C 	0.73757 0.22025 0.81351 0.11400
N 	N 	0.76261 0.28177 0.79551 -0.19800
H 	H 	0.60158 0.13394 0.86984 0.04500
N 	N 	0.68340 0.04704 0.87331 -0.19900
H 	H 	0.73480 0.32014 0.79685 0.10400
H 	H 	0.72979 0.02564 0.87614 0.09800
H 	H 	0.63540 0.03628 0.88898 0.08800
C 	C 	0.28798 0.10414 0.83947 -0.04500
C 	C 	0.28892 0.14401 0.86423 -0.09300
C 	C 	0.20894 0.14776 0.87180 0.11400
C 	C 	0.13278 0.11752 0.85329 -0.04700
C 	C 	0.13351 0.08049 0.82800 -0.08700
C 	C 	0.21334 0.07651 0.82053 0.11000
N 	N 	0.21882 0.04677 0.79510 -0.20200
H 	H 	0.34902 0.10095 0.83378 0.04300
H 	H 	0.07079 0.11889 0.85932 0.05000
N 	N 	0.20509 0.18060 0.89675 -0.19900
H 	H 	0.27668 0.04147 0.79004 0.09100
H 	H 	0.16761 0.03177 0.77973 0.10600
H 	H 	0.25755 0.19802 0.91182 0.09600
H 	H 	0.14744 0.18629 0.90172 0.08800
C 	C 	0.67278 0.57773 0.85927 -0.03500
C 	C 	0.74172 0.57126 0.87451 -0.10000
C 	C 	0.66937 0.64880 0.85985 0.10700
N 	N 	0.59331 0.65023 0.84997 -0.19800
H 	H 	0.62189 0.52752 0.84687 0.04400
H 	H 	0.53712 0.59827 0.84169 0.08900
H 	H 	0.58750 0.70192 0.85185 0.08700
C 	C 	0.78263 0.78746 0.84980 0.30600
C 	C 	0.68244 0.95858 0.76754 0.31000
C 	C 	0.72420 0.71820 0.78881 0.29700
C 	C 	0.77584 0.04253 0.82223 0.27800
Ni	Ni	0.70830 0.86231 0.81079 1.11000
O 	O 	0.74164 0.83119 0.84867 -0.38400
O 	O 	0.86146 0.80887 0.83710 -0.39000
O 	O 	0.65554 0.88489 0.77490 -0.38100
O 	O 	0.76926 0.00691 0.76103 -0.38800
O 	O 	0.66785 0.74518 0.79642 -0.37200
O 	O 	0.80414 0.76689 0.77782 -0.38700
O 	O 	0.71830 0.96664 0.82906 -0.36700
O 	O 	0.86015 0.06562 0.81285 -0.38900
O 	O 	0.83401 0.91672 0.80112 -0.70900
H 	H 	0.85760 0.94169 0.81970 0.14500
C 	C 	0.02790 0.99140 0.35922 0.32500
C 	C 	0.98825 0.99792 0.28010 0.29300
Ni	Ni	0.12035 0.12129 0.31987 1.12100
Ni	Ni	0.11104 0.95224 0.31023 1.11800
O 	O 	0.01619 0.93918 0.33909 -0.37800
C 	C 	0.85533 0.43551 0.59368 0.03200
C 	C 	0.00148 0.42872 0.59302 -0.00200
H 	H 	0.75382 0.33893 0.56773 0.04600
H 	H 	0.99137 0.41113 0.61473 0.02000
C 	C 	0.60107 0.01015 0.73613 0.10400
N 	N 	0.62861 0.98778 0.71265 -0.19100
H 	H 	0.65330 0.94712 0.71346 0.10400
H 	H 	0.62274 0.00908 0.69313 0.08600
C 	C 	0.59459 0.58012 0.77806 -0.04500
C 	C 	0.68758 0.63011 0.78582 -0.08900
H 	H 	0.54802 0.60453 0.77697 0.05500
H 	H 	0.85201 0.69273 0.81144 0.08000
C 	C 	0.86452 0.57837 0.98718 -0.06800
C 	C 	0.87690 0.54622 0.01203 0.02800
C 	C 	0.97093 0.57378 0.02334 -0.01200
C 	C 	0.99078 0.59491 0.05173 -0.05200
H 	H 	0.92049 0.63316 0.97907 0.04200
H 	H 	0.94076 0.59986 0.06475 0.03800
H 	H 	0.81393 0.17235 0.79199 0.04600
H 	H 	0.80836 0.29034 0.77936 0.08100
C 	C 	0.81241 0.64022 0.88846 0.10600
C 	C 	0.81197 0.71335 0.88642 -0.04000
C 	C 	0.74799 0.71932 0.86855 -0.10200
H 	H 	0.86934 0.76756 0.89520 0.04800
N 	N 	0.88468 0.63871 0.90145 -0.20000
H 	H 	0.89886 0.59206 0.89792 0.09200
H 	H 	0.93649 0.53422 0.62219 0.04500
H 	H 	0.93210 0.68788 0.91350 0.08000
Ni	Ni	0.90371 0.86171 0.79924 1.11800
O 	O 	0.02342 0.94893 0.27986 -0.37000
O 	O 	0.99769 0.04202 0.30251 -0.40500
H 	H 	0.89802 0.47214 0.53917 0.03800
C 	C 	0.93589 0.44180 0.57872 -0.02100
O 	O 	0.89685 0.96000 0.74451 -0.38400
O 	O 	0.08876 0.06777 0.35697 -0.39900
C 	C 	0.12001 0.58016 0.01856 -0.04000
