data_crystal

_cell_length_a 19.50230
_cell_length_b 21.51302
_cell_length_c 31.14979
_cell_angle_alpha 60.82486
_cell_angle_beta  118.86362
_cell_angle_gamma 133.28436

_symmetry_space_group_name_	'P 1'
_symmetry_space_group_name_H-M	'P 1'

loop_
_symmetry_equiv_pos_as_xyz
  x,y,z

loop_
_atom_site_label
_atom_site_type_symbol
_atom_site_fract_x
_atom_site_fract_y
_atom_site_fract_z
_atom_site_charge
O 	O 	0.00438 0.06473 0.53692 -0.40200
C 	C 	0.00642 0.87427 0.41334 0.11800
C 	C 	0.00015 0.88367 0.36375 -0.01600
O 	O 	0.00772 0.06186 0.15359 -0.72400
O 	O 	0.02262 0.01915 0.98018 -0.33900
Co	Co	0.00963 0.83561 0.64782 1.19100
O 	O 	0.01234 0.95405 0.62817 -0.57400
Co	Co	0.02710 0.11995 0.09453 1.19200
C 	C 	0.01934 0.17849 0.63143 0.34800
O 	O 	0.01982 0.75947 0.47342 -0.07000
Co	Co	0.01790 0.89462 0.11919 1.18400
O 	O 	0.02677 0.73492 0.61260 -0.38100
C 	C 	0.03125 0.98930 0.91581 -0.13200
Br	Br	0.01816 0.52733 0.16574 -0.11100
Co	Co	0.03182 0.97831 0.55377 1.17900
O 	O 	0.04862 0.13796 0.03038 -0.41900
O 	O 	0.04555 0.89692 0.59235 -0.75000
H 	H 	0.03431 0.86514 0.35821 0.09000
O 	O 	0.03992 0.04985 0.25714 -0.31200
O 	O 	0.04246 0.85571 0.03366 -0.37500
C 	C 	0.05026 0.94495 0.86505 0.09700
O 	O 	0.05068 0.15694 0.61510 -0.33900
N 	N 	0.06109 0.84363 0.45481 -0.02900
O 	O 	0.05643 0.02005 0.12036 -0.53200
Br	Br	0.05170 0.35239 0.54274 -0.12300
Co	Co	0.09042 0.06306 0.04657 1.19800
Co	Co	0.17162 0.96244 0.06136 1.16800
C 	C 	0.15627 0.26990 0.14616 0.33100
C 	C 	0.14036 0.83102 0.16407 0.32500
O 	O 	0.15939 0.04069 0.98896 -0.37300
O 	O 	0.13172 0.21239 0.18860 -0.34800
O 	O 	0.14006 0.24556 0.10851 -0.34100
O 	O 	0.19595 0.88455 0.13160 -0.35900
O 	O 	0.10621 0.85694 0.17427 -0.35900
O 	O 	0.09710 0.97789 0.08179 -0.77500
C 	C 	0.98664 0.96485 0.27256 0.26300
Co	Co	0.95852 0.03837 0.59429 1.19400
Co	Co	0.09848 0.86327 0.56900 1.18300
C 	C 	0.19231 0.84642 0.67530 0.32600
O 	O 	0.97791 0.82719 0.51065 -0.35900
O 	O 	0.92745 0.12876 0.63115 -0.39100
O 	O 	0.20922 0.90108 0.63113 -0.36800
O 	O 	0.12914 0.82926 0.69280 -0.33600
C 	C 	0.98195 0.97205 0.76973 0.27400
N 	N 	0.09849 0.92028 0.86113 -0.01800
O 	O 	0.97803 0.11976 0.87464 -0.04900
O 	O 	0.17551 0.98019 0.84299 -0.06400
O 	O 	0.15471 0.89873 0.46802 -0.09200
C 	C 	0.08501 0.26151 0.64706 -0.10400
C 	C 	0.12466 0.25828 0.69880 0.11300
C 	C 	0.13291 0.30926 0.71919 0.08400
Br	Br	0.15510 0.28387 0.79117 -0.11300
Br	Br	0.18503 0.19851 0.73919 -0.13200
C 	C 	0.22349 0.78731 0.69754 -0.09900
C 	C 	0.17481 0.70307 0.73077 0.11600
Br	Br	0.12514 0.68526 0.77936 -0.11200
Br	Br	0.12318 0.52557 0.78396 -0.09600
C 	C 	0.16374 0.46422 0.11411 0.08500
C 	C 	0.20303 0.36248 0.14146 -0.10200
C 	C 	0.15686 0.40265 0.10411 0.11200
Br	Br	0.09278 0.38019 0.03794 -0.14100
Br	Br	0.08754 0.50793 0.06696 -0.11800
C 	C 	0.07809 0.67542 0.18935 0.11200
C 	C 	0.14666 0.75792 0.20064 -0.09900
Br	Br	0.94340 0.61726 0.18060 -0.15600
Br	Br	0.10842 0.74994 0.06220 -0.18700
C 	C 	0.75522 0.36273 0.99141 0.20700
N 	N 	0.65891 0.32269 0.97038 -0.11900
C 	C 	0.61412 0.35146 0.96929 0.18500
N 	N 	0.66881 0.43305 0.97602 -0.12000
C 	C 	0.76491 0.47390 0.99769 0.20000
N 	N 	0.80803 0.43789 0.00596 -0.12600
C 	C 	0.73385 0.28445 0.53054 0.18400
N 	N 	0.79722 0.36297 0.54403 -0.11100
C 	C 	0.76253 0.40462 0.53919 0.18600
N 	N 	0.66674 0.36776 0.52139 -0.12300
C 	C 	0.60374 0.28624 0.51370 0.19200
N 	N 	0.63734 0.24671 0.51562 -0.11900
C 	C 	0.25802 0.65985 0.18930 0.18300
N 	N 	0.34493 0.73227 0.17749 -0.11900
C 	C 	0.38941 0.72693 0.15806 0.18800
N 	N 	0.34452 0.65098 0.14761 -0.12600
C 	C 	0.26039 0.57768 0.16108 0.18800
N 	N 	0.21780 0.58135 0.18306 -0.11200
C 	C 	0.24698 0.59193 0.71375 0.18500
N 	N 	0.34144 0.62313 0.72798 -0.12100
C 	C 	0.36594 0.57629 0.72962 0.19300
N 	N 	0.29606 0.49389 0.72306 -0.12200
C 	C 	0.20200 0.46335 0.70606 0.18700
N 	N 	0.17654 0.51248 0.70114 -0.11000
Co	Co	0.95274 0.95283 0.16759 1.17400
C 	C 	0.30312 0.14982 0.05803 0.33000
Co	Co	0.98924 0.10895 0.18912 1.18400
C 	C 	0.97227 0.79061 0.05751 0.31100
O 	O 	0.95225 0.18331 0.12307 -0.38800
C 	C 	0.89351 0.15577 0.08182 0.33400
O 	O 	0.92597 0.84852 0.15892 -0.43200
C 	C 	0.78707 0.94549 0.15603 0.33600
C 	C 	0.07403 0.02215 0.96176 0.35900
O 	O 	0.90123 0.11377 0.06612 -0.35400
O 	O 	0.84530 0.99624 0.18846 -0.37100
O 	O 	0.82105 0.93262 0.13562 -0.39100
O 	O 	0.96613 0.91630 0.24738 -0.33600
O 	O 	0.28880 0.07396 0.08624 -0.34100
O 	O 	0.23698 0.16223 0.04520 -0.34200
O 	O 	0.93470 0.80742 0.07329 -0.35900
Co	Co	0.93439 0.89342 0.68814 1.19000
C 	C 	0.21724 0.05971 0.53451 0.38700
Co	Co	0.85636 0.99789 0.67214 1.16800
C 	C 	0.93566 0.68898 0.61199 0.33000
O 	O 	0.75102 0.96034 0.60842 -0.39000
O 	O 	0.92651 0.97834 0.65132 -0.75900
C 	C 	0.77064 0.01844 0.56570 0.36200
O 	O 	0.96046 0.80640 0.70455 -0.42500
C 	C 	0.74166 0.80218 0.70004 0.35400
C 	C 	0.96812 0.88791 0.47472 0.30600
O 	O 	0.83283 0.03452 0.54818 -0.34300
O 	O 	0.95910 0.93543 0.48525 -0.35900
O 	O 	0.78205 0.87007 0.71534 -0.38800
O 	O 	0.78701 0.80477 0.67818 -0.37900
O 	O 	0.97124 0.03217 0.73330 -0.34100
O 	O 	0.98671 0.92067 0.75993 -0.32600
O 	O 	0.17079 0.98734 0.52196 -0.40500
O 	O 	0.17498 0.06988 0.55059 -0.35400
O 	O 	0.90700 0.72057 0.62203 -0.36000
C 	C 	0.94061 0.98594 0.82802 -0.06600
C 	C 	0.98750 0.96243 0.82228 -0.03400
C 	C 	0.06903 0.95540 0.91174 0.01000
C 	C 	0.96487 0.00269 0.87366 0.18000
N 	N 	0.92494 0.03685 0.87598 -0.01900
H 	H 	0.88953 0.99671 0.79591 0.07500
H 	H 	0.11743 0.94155 0.94428 0.06400
O 	O 	0.83318 0.98724 0.87440 -0.07700
O 	O 	0.07017 0.83910 0.87949 -0.04500
C 	C 	0.91887 0.93722 0.37975 -0.01000
C 	C 	0.96508 0.90107 0.42173 -0.06200
C 	C 	0.95969 0.92515 0.32188 -0.04300
C 	C 	0.91717 0.95076 0.33023 0.09900
N 	N 	0.87531 0.99360 0.28866 -0.03100
H 	H 	0.88561 0.95669 0.38522 0.08500
O 	O 	0.78167 0.95095 0.27521 -0.05800
O 	O 	0.93004 0.07873 0.27185 -0.09800
C 	C 	0.07803 0.33171 0.61447 0.11700
C 	C 	0.13160 0.38269 0.68729 -0.03400
C 	C 	0.09796 0.39050 0.63455 0.08700
Br	Br	0.07953 0.48132 0.58996 -0.11400
C 	C 	0.56670 0.69503 0.66873 0.12300
C 	C 	0.64730 0.72209 0.70975 -0.11600
C 	C 	0.63334 0.68750 0.75885 0.12100
C 	C 	0.54118 0.64109 0.76551 0.08500
C 	C 	0.46181 0.62220 0.72353 -0.04300
C 	C 	0.47372 0.64493 0.67554 0.08600
Br	Br	0.36324 0.61045 0.61873 -0.11900
Br	Br	0.58442 0.73190 0.60246 -0.14400
Br	Br	0.52443 0.60758 0.83137 -0.11900
Br	Br	0.74149 0.70615 0.81651 -0.15200
C 	C 	0.17720 0.63610 0.73412 0.08600
C 	C 	0.22431 0.65230 0.70289 -0.03700
C 	C 	0.27284 0.73671 0.67081 0.08000
C 	C 	0.28516 0.80590 0.67497 0.10400
Br	Br	0.39391 0.92544 0.65563 -0.14300
Br	Br	0.31995 0.75713 0.62007 -0.12800
C 	C 	0.22509 0.49279 0.15907 -0.04100
C 	C 	0.27516 0.45583 0.19496 0.08300
C 	C 	0.27094 0.39723 0.18388 0.11600
Br	Br	0.35697 0.36305 0.22705 -0.11300
Br	Br	0.34599 0.48271 0.26014 -0.11300
C 	C 	0.65130 0.82226 0.19861 0.12300
C 	C 	0.68285 0.88441 0.15421 -0.10500
C 	C 	0.61666 0.89582 0.11074 0.11900
C 	C 	0.52262 0.85288 0.11381 0.08700
C 	C 	0.49309 0.79436 0.15937 -0.04200
C 	C 	0.55993 0.78352 0.20253 0.08600
Br	Br	0.52573 0.71431 0.26692 -0.10900
Br	Br	0.72742 0.78101 0.25097 -0.15300
Br	Br	0.43401 0.87390 0.05586 -0.13500
Br	Br	0.65088 0.96173 0.04631 -0.16100
C 	C 	0.26739 0.72962 0.23868 0.08400
C 	C 	0.20953 0.66716 0.21001 -0.03300
C 	C 	0.11002 0.63236 0.19032 0.08800
C 	C 	0.23735 0.77793 0.23227 0.12300
Br	Br	0.32300 0.87641 0.26191 -0.13200
Br	Br	0.38303 0.74470 0.28801 -0.11300
C 	C 	0.73348 0.15323 0.58267 0.07700
C 	C 	0.76510 0.22964 0.54319 -0.03400
C 	C 	0.79361 0.23507 0.50667 0.08600
C 	C 	0.79122 0.16447 0.51082 0.12100
C 	C 	0.75183 0.08540 0.54916 -0.10700
C 	C 	0.70927 0.07749 0.57924 0.11800
Br	Br	0.60187 0.96395 0.60571 -0.17300
Br	Br	0.71635 0.15005 0.63967 -0.11800
Br	Br	0.82358 0.17073 0.45867 -0.11900
Br	Br	0.82983 0.33599 0.44968 -0.10900
C 	C 	0.85886 0.47777 0.61049 0.08600
C 	C 	0.82504 0.48479 0.55780 -0.03700
C 	C 	0.81624 0.55434 0.52572 0.08400
C 	C 	0.82393 0.60496 0.54628 0.11400
C 	C 	0.86647 0.60405 0.59770 -0.10000
C 	C 	0.87522 0.53490 0.63035 0.11300
Br	Br	0.90219 0.51489 0.70203 -0.12400
Br	Br	0.88380 0.39115 0.65537 -0.11700
Br	Br	0.76170 0.66309 0.50643 -0.14600
Br	Br	0.78673 0.57588 0.45345 -0.12100
C 	C 	0.33305 0.16446 0.47922 0.13000
C 	C 	0.31525 0.13219 0.52709 -0.12000
C 	C 	0.39301 0.15751 0.56945 0.12700
C 	C 	0.48758 0.20710 0.56514 0.08600
C 	C 	0.50462 0.23300 0.51806 -0.04000
C 	C 	0.42780 0.21398 0.47482 0.08500
Br	Br	0.45272 0.25630 0.40973 -0.10800
Br	Br	0.22738 0.14128 0.41983 -0.12700
Br	Br	0.59378 0.23851 0.62400 -0.10800
Br	Br	0.36940 0.12089 0.63404 -0.12200
C 	C 	0.78940 0.18608 0.07815 0.11100
C 	C 	0.82674 0.18197 0.05125 -0.08100
C 	C 	0.83164 0.23360 0.00095 0.10000
C 	C 	0.81300 0.29692 0.98154 0.11700
C 	C 	0.79300 0.31037 0.01304 -0.06200
C 	C 	0.78841 0.25839 0.06276 0.09800
Br	Br	0.78736 0.28966 0.11085 -0.11600
Br	Br	0.74767 0.09686 0.13848 -0.13200
Br	Br	0.81942 0.36773 0.91313 -0.10600
Br	Br	0.85909 0.21527 0.95817 -0.09900
C 	C 	0.77424 0.55348 0.04138 0.09200
C 	C 	0.81915 0.55010 0.01855 -0.04700
C 	C 	0.91620 0.61988 0.01609 0.08500
C 	C 	0.96925 0.68567 0.04089 0.11100
C 	C 	0.92013 0.70028 0.05272 -0.09500
C 	C 	0.82016 0.63275 0.05229 0.11900
Br	Br	0.74481 0.64541 0.06652 -0.13400
Br	Br	0.65984 0.44742 0.06567 -0.12900
Br	Br	0.97287 0.63362 0.97291 -0.10600
C 	C 	0.38256 0.26705 0.98479 0.12800
C 	C 	0.38912 0.21711 0.03594 -0.10900
C 	C 	0.46609 0.20961 0.05945 0.11900
C 	C 	0.51374 0.22548 0.02973 0.07200
C 	C 	0.51948 0.28571 0.98251 -0.02700
C 	C 	0.44983 0.30298 0.95865 0.08500
Br	Br	0.44357 0.37115 0.88965 -0.11100
Br	Br	0.28825 0.29215 0.95149 -0.11900
Br	Br	0.54022 0.14467 0.04566 -0.12500
Br	Br	0.50668 0.17840 0.13192 -0.10100
