data_crystal

_cell_length_a 22.58483
_cell_length_b 20.60423
_cell_length_c 33.16411
_cell_angle_alpha 89.99209
_cell_angle_beta  89.99535
_cell_angle_gamma 100.92911

_symmetry_space_group_name_	'P 1'
_symmetry_space_group_name_H-M	'P 1'

loop_
_symmetry_equiv_pos_as_xyz
  x,y,z

loop_
_atom_site_label
_atom_site_type_symbol
_atom_site_fract_x
_atom_site_fract_y
_atom_site_fract_z
_atom_site_charge
Ni	Ni	0.33487 0.65501 0.80088 1.09900
O 	O 	0.30934 0.72317 0.76311 -0.70300
Ni	Ni	0.29079 0.66952 0.71258 1.09700
O 	O 	0.37684 0.72345 0.84171 -0.37700
O 	O 	0.43317 0.78266 0.79233 -0.41500
O 	O 	0.25787 0.64966 0.83523 -0.37200
Ni	Ni	0.36943 0.80290 0.75119 1.06700
O 	O 	0.26081 0.51740 0.82455 -0.40900
O 	O 	0.42296 0.78102 0.70453 -0.39800
O 	O 	0.28058 0.74081 0.67083 -0.38400
O 	O 	0.30668 0.59964 0.75262 -0.70300
O 	O 	0.35496 0.58058 0.83514 -0.37700
O 	O 	0.26453 0.59789 0.66985 -0.37400
O 	O 	0.19186 0.54111 0.71148 -0.41200
Ni	Ni	0.23420 0.53688 0.76722 1.06400
H 	H 	0.27196 0.73643 0.77285 0.15300
H 	H 	0.33844 0.57602 0.74324 0.15600
C 	C 	0.41382 0.72643 0.68292 0.30600
O 	O 	0.19023 0.60869 0.78628 -0.42100
C 	C 	0.42003 0.77242 0.83076 0.27400
C 	C 	0.30408 0.80455 0.67451 0.29300
C 	C 	0.20232 0.63775 0.82124 0.29200
C 	C 	0.22040 0.54713 0.67648 0.27400
C 	C 	0.31785 0.52272 0.83617 0.27800
O 	O 	0.37820 0.67293 0.69594 -0.40400
O 	O 	0.31331 0.83247 0.71041 -0.42300
Ni	Ni	0.69015 0.33705 0.29874 1.10000
O 	O 	0.71748 0.26679 0.26352 -0.70100
Ni	Ni	0.74152 0.31823 0.21270 1.09800
O 	O 	0.64509 0.27079 0.33970 -0.37700
O 	O 	0.59141 0.20998 0.28987 -0.41300
O 	O 	0.76490 0.34315 0.33545 -0.37200
Ni	Ni	0.65717 0.18724 0.25122 1.06700
O 	O 	0.76392 0.47437 0.32263 -0.40900
O 	O 	0.60663 0.20943 0.20308 -0.39800
O 	O 	0.75539 0.24448 0.17380 -0.38400
O 	O 	0.72211 0.39002 0.25021 -0.70300
O 	O 	0.66833 0.41329 0.33056 -0.38000
O 	O 	0.77187 0.38718 0.16912 -0.37500
O 	O 	0.83963 0.44789 0.21228 -0.41300
Ni	Ni	0.79353 0.45326 0.26640 1.06400
H 	H 	0.75355 0.25312 0.27517 0.15300
H 	H 	0.69122 0.41314 0.23890 0.15700
C 	C 	0.62222 0.25982 0.17845 0.30300
O 	O 	0.83577 0.38166 0.28794 -0.42200
C 	C 	0.60214 0.22182 0.32842 0.27500
C 	C 	0.72788 0.18189 0.17697 0.29200
C 	C 	0.82127 0.35366 0.32295 0.29100
C 	C 	0.81322 0.44012 0.17662 0.27600
C 	C 	0.70645 0.47036 0.33281 0.27900
O 	O 	0.65646 0.31440 0.19111 -0.40100
O 	O 	0.71466 0.15445 0.21269 -0.42200
C 	C 	0.15226 0.64517 0.84850 -0.09300
C 	C 	0.16337 0.68690 0.88230 0.02000
C 	C 	0.12062 0.68236 0.91319 -0.07400
C 	C 	0.06635 0.63659 0.91037 0.04600
C 	C 	0.05280 0.59946 0.87506 -0.07500
C 	C 	0.09548 0.60379 0.84415 0.01900
C 	C 	0.02906 0.62071 0.94556 -0.03400
C 	C 	0.99750 0.60697 0.97481 0.00100
C 	C 	0.93260 0.57013 0.03906 -0.03000
C 	C 	0.89896 0.54619 0.07467 0.04300
C 	C 	0.92712 0.55361 0.11246 -0.07200
C 	C 	0.89818 0.52137 0.14619 0.01300
C 	C 	0.84078 0.48102 0.14230 -0.09000
C 	C 	0.81128 0.47689 0.10477 0.01600
C 	C 	0.84045 0.50909 0.07108 -0.07200
H 	H 	0.20615 0.72067 0.88549 0.03200
H 	H 	0.13096 0.71214 0.94012 0.05000
H 	H 	0.01047 0.56473 0.87240 0.04800
H 	H 	0.08560 0.57229 0.81792 0.02600
H 	H 	0.97223 0.58262 0.11549 0.04800
H 	H 	0.92122 0.52618 0.17498 0.02900
H 	H 	0.76638 0.44753 0.10145 0.03500
H 	H 	0.81820 0.50360 0.04200 0.04900
C 	C 	0.86956 0.34598 0.35176 -0.09000
C 	C 	0.85500 0.31168 0.38819 0.01800
C 	C 	0.89767 0.31646 0.41914 -0.07100
C 	C 	0.95533 0.35482 0.41380 0.04300
C 	C 	0.97166 0.38423 0.37633 -0.07000
C 	C 	0.92907 0.37972 0.34535 0.01500
C 	C 	0.99460 0.37111 0.44802 -0.02700
C 	C 	0.06473 0.40308 0.51054 -0.00100
C 	C 	0.09578 0.42082 0.53955 -0.03200
C 	C 	0.13189 0.44440 0.57424 0.04400
C 	C 	0.10931 0.42876 0.61309 -0.07300
C 	C 	0.13969 0.45982 0.64669 0.01300
C 	C 	0.19276 0.50744 0.64163 -0.08800
C 	C 	0.21717 0.51985 0.60272 0.01600
C 	C 	0.18664 0.48868 0.56921 -0.07200
H 	H 	0.80999 0.28352 0.39316 0.03600
H 	H 	0.88505 0.29260 0.44782 0.05000
H 	H 	0.94162 0.40508 0.31713 0.03000
H 	H 	0.06727 0.39403 0.61722 0.04700
H 	H 	0.12106 0.44811 0.67648 0.02500
H 	H 	0.25889 0.55491 0.59826 0.03900
H 	H 	0.20468 0.50050 0.53925 0.05000
C 	C 	0.56184 0.18465 0.35902 -0.09100
C 	C 	0.55391 0.21362 0.39653 0.01900
C 	C 	0.51925 0.17677 0.42656 -0.07200
C 	C 	0.49223 0.11081 0.41937 0.04500
C 	C 	0.49860 0.08231 0.38165 -0.07400
C 	C 	0.53321 0.11906 0.35153 0.01500
C 	C 	0.46101 0.07125 0.45144 -0.03200
C 	C 	0.43488 0.03810 0.47827 -0.00200
C 	C 	0.40554 0.99902 0.51000 -0.00200
C 	C 	0.38166 0.96544 0.53740 -0.03200
C 	C 	0.35463 0.92504 0.57045 0.04400
C 	C 	0.34341 0.95449 0.60703 -0.07400
C 	C 	0.32384 0.91517 0.64062 0.01700
C 	C 	0.31553 0.84591 0.63786 -0.09200
C 	C 	0.32417 0.81660 0.60055 0.01700
C 	C 	0.34390 0.85607 0.56709 -0.07300
H 	H 	0.57491 0.26446 0.40255 0.04000
H 	H 	0.51424 0.19922 0.45560 0.05000
H 	H 	0.47773 0.03133 0.37588 0.04700
H 	H 	0.53894 0.09604 0.32279 0.01500
H 	H 	0.35123 0.00785 0.60975 0.04800
H 	H 	0.31639 0.93859 0.66892 0.02800
H 	H 	0.31825 0.76336 0.59791 0.03800
H 	H 	0.35250 0.83297 0.53888 0.05000
C 	C 	0.45713 0.81220 0.86195 -0.09100
C 	C 	0.51633 0.84470 0.85330 0.01300
C 	C 	0.55128 0.88175 0.88320 -0.07200
C 	C 	0.52735 0.88660 0.92183 0.04300
C 	C 	0.46839 0.85444 0.93048 -0.07200
C 	C 	0.43338 0.81747 0.90072 0.01500
C 	C 	0.56288 0.92514 0.95261 -0.03100
C 	C 	0.59121 0.95691 0.97914 -0.00200
C 	C 	0.62262 0.99403 0.01091 -0.00200
C 	C 	0.64796 0.02582 0.03853 -0.03100
C 	C 	0.67644 0.06407 0.07201 0.04500
C 	C 	0.69364 0.13279 0.06851 -0.07200
C 	C 	0.71399 0.17101 0.10235 0.01900
C 	C 	0.71661 0.14079 0.14018 -0.09100
C 	C 	0.70206 0.07148 0.14312 0.01700
C 	C 	0.68199 0.03337 0.10915 -0.07300
H 	H 	0.53544 0.84085 0.82364 0.03300
H 	H 	0.59687 0.90656 0.87630 0.04800
H 	H 	0.44955 0.85822 0.96026 0.04900
H 	H 	0.38765 0.79331 0.90775 0.03600
H 	H 	0.68964 0.15684 0.03984 0.05000
H 	H 	0.72563 0.22424 0.09941 0.03600
H 	H 	0.70492 0.04721 0.17183 0.02800
H 	H 	0.66919 0.98016 0.11199 0.04800
C 	C 	0.58881 0.26158 0.14046 -0.09200
C 	C 	0.52740 0.23240 0.13793 0.02100
C 	C 	0.49429 0.24148 0.10339 -0.07300
C 	C 	0.52243 0.27929 0.07117 0.04500
C 	C 	0.58434 0.30533 0.07281 -0.07200
C 	C 	0.61737 0.29673 0.10734 0.01800
C 	C 	0.48704 0.29720 0.03835 -0.03100
C 	C 	0.45926 0.31353 0.01031 -0.00200
C 	C 	0.42868 0.33607 0.97762 -0.00200
C 	C 	0.40435 0.35818 0.94986 -0.03100
C 	C 	0.37761 0.38800 0.91698 0.04400
C 	C 	0.31923 0.40120 0.92083 -0.07300
C 	C 	0.29778 0.44188 0.89275 0.01900
C 	C 	0.33490 0.46993 0.86084 -0.09200
C 	C 	0.39183 0.45326 0.85570 0.01600
C 	C 	0.41303 0.41231 0.88362 -0.07200
H 	H 	0.50483 0.20488 0.16319 0.03400
H 	H 	0.44646 0.22090 0.10224 0.05000
H 	H 	0.60649 0.33414 0.04785 0.04900
H 	H 	0.66488 0.31875 0.10873 0.03300
H 	H 	0.29145 0.38232 0.94646 0.05000
H 	H 	0.25364 0.45420 0.89695 0.03500
H 	H 	0.42053 0.47399 0.83089 0.02100
H 	H 	0.45806 0.40192 0.88029 0.04800
C 	C 	0.45527 0.72049 0.64948 -0.09300
C 	C 	0.46857 0.77089 0.62050 0.02000
C 	C 	0.50200 0.76158 0.58613 -0.07400
C 	C 	0.52306 0.70233 0.58094 0.04700
C 	C 	0.51231 0.65344 0.61079 -0.07500
C 	C 	0.47851 0.66236 0.64487 0.02400
C 	C 	0.55177 0.68926 0.54387 -0.03200
C 	C 	0.57597 0.67517 0.51358 -0.00100
C 	C 	0.60298 0.65457 0.47869 -0.00200
C 	C 	0.62484 0.63366 0.44943 -0.03100
C 	C 	0.64940 0.60485 0.41523 0.04400
C 	C 	0.70917 0.59522 0.41617 -0.07300
C 	C 	0.72932 0.55454 0.38753 0.01800
C 	C 	0.68958 0.52296 0.35788 -0.09100
C 	C 	0.63104 0.53639 0.35538 0.01600
C 	C 	0.61107 0.57723 0.38395 -0.07200
H 	H 	0.45166 0.81636 0.62403 0.03100
H 	H 	0.51037 0.79975 0.56323 0.05000
H 	H 	0.52892 0.60777 0.60712 0.05000
H 	H 	0.46963 0.62368 0.66743 0.02900
H 	H 	0.73919 0.61672 0.44015 0.05000
H 	H 	0.77475 0.54497 0.38966 0.03500
H 	H 	0.60032 0.51324 0.33221 0.02400
H 	H 	0.56493 0.58489 0.38284 0.04900
H 	H 	0.01652 0.41309 0.37177 0.04700
C 	C 	0.02742 0.38471 0.47669 -0.00500
C 	C 	0.96188 0.58822 0.00936 -0.00300
