data_crystal

_cell_length_a 30.79247
_cell_length_b 31.00689
_cell_length_c 35.04116
_cell_angle_alpha 95.53204
_cell_angle_beta  95.53102
_cell_angle_gamma 125.55615

_symmetry_space_group_name_	'P 1'
_symmetry_space_group_name_H-M	'P 1'

loop_
_symmetry_equiv_pos_as_xyz
  x,y,z

loop_
_atom_site_label
_atom_site_type_symbol
_atom_site_fract_x
_atom_site_fract_y
_atom_site_fract_z
_atom_site_charge
C 	C 	0.00453 0.99315 0.45029 0.11400
H 	H 	0.03196 0.13281 0.97362 0.03800
H 	H 	0.02829 0.91262 0.04177 0.03700
C 	C 	0.00461 0.04584 0.00589 0.11400
N 	N 	0.05925 0.07513 0.00784 -0.14000
C 	C 	0.08376 0.05019 0.00772 0.11900
N 	N 	0.05355 0.99598 0.00557 -0.14300
C 	C 	0.99904 0.96656 0.00362 0.12200
N 	N 	0.97457 0.99151 0.00372 -0.14000
C 	C 	0.92424 0.98719 0.44358 0.11600
N 	N 	0.97909 0.01694 0.44683 -0.13800
N 	N 	0.97497 0.93943 0.45034 -0.13900
C 	C 	0.92018 0.90945 0.44716 0.11800
N 	N 	0.89479 0.93339 0.44393 -0.14000
Cu	Cu	0.67604 0.27334 0.00033 0.92700
Cu	Cu	0.71198 0.27062 0.91578 0.86900
Cu	Cu	0.70092 0.35516 0.94747 0.89700
Cu	Cu	0.68334 0.37770 0.02851 0.89600
C 	C 	0.68351 0.30690 0.08092 0.29600
O 	O 	0.59772 0.24133 0.00317 -0.37300
C 	C 	0.68337 0.31805 0.86268 0.29100
O 	O 	0.72057 0.35714 0.00158 -0.63900
O 	O 	0.66409 0.27607 0.94442 -0.64100
O 	O 	0.70852 0.23357 0.99731 -0.37400
O 	O 	0.76513 0.28595 0.95819 -0.44300
O 	O 	0.69173 0.35318 0.07760 -0.38200
O 	O 	0.74209 0.43284 0.95337 -0.38200
C 	C 	0.74201 0.46376 0.98196 0.31000
C 	C 	0.57650 0.26643 0.99484 0.30700
O 	O 	0.60733 0.31602 0.98891 -0.39200
O 	O 	0.70696 0.44294 0.00568 -0.39400
O 	O 	0.69678 0.28412 0.05551 -0.36400
C 	C 	0.75228 0.25219 0.98224 0.31100
O 	O 	0.68643 0.35189 0.89089 -0.37900
O 	O 	0.67692 0.27370 0.86930 -0.41500
H 	H 	0.76025 0.37947 0.01146 0.16600
H 	H 	0.62561 0.25341 0.93095 0.17500
Cu	Cu	0.70477 0.32310 0.44294 0.92800
Cu	Cu	0.70543 0.28195 0.52555 0.87100
Cu	Cu	0.61809 0.28973 0.49316 0.89700
Cu	Cu	0.60109 0.31747 0.41630 0.89500
C 	C 	0.66464 0.30723 0.36134 0.29300
O 	O 	0.73372 0.40117 0.44339 -0.36200
C 	C 	0.65633 0.30870 0.57849 0.29300
O 	O 	0.62004 0.27667 0.43901 -0.64100
O 	O 	0.69849 0.32963 0.49845 -0.64200
O 	O 	0.74642 0.29229 0.44565 -0.37200
O 	O 	0.69206 0.23177 0.48196 -0.44200
O 	O 	0.63995 0.32883 0.37146 -0.38500
O 	O 	0.53957 0.24678 0.48446 -0.38200
C 	C 	0.50875 0.24935 0.45724 0.30900
C 	C 	0.70873 0.42042 0.45708 0.30100
O 	O 	0.65844 0.38713 0.46191 -0.39400
O 	O 	0.52960 0.28409 0.43332 -0.39500
O 	O 	0.69679 0.30508 0.38766 -0.35800
C 	C 	0.72689 0.24696 0.45834 0.30900
O 	O 	0.61582 0.29164 0.54943 -0.38100
O 	O 	0.70099 0.31480 0.57235 -0.41900
H 	H 	0.59792 0.23806 0.42659 0.16500
H 	H 	0.71961 0.36703 0.51332 0.17400
C 	C 	0.61576 0.27695 0.67584 -0.07300
C 	C 	0.65366 0.32753 0.70004 0.01200
C 	C 	0.68638 0.37326 0.68325 -0.00600
C 	C 	0.68423 0.36721 0.64285 -0.00300
C 	C 	0.64933 0.31593 0.61895 -0.09300
C 	C 	0.61340 0.27087 0.63544 0.05500
C 	C 	0.66415 0.33076 0.74265 0.01400
S 	S 	0.73059 0.43807 0.71258 -0.04100
H 	H 	0.71105 0.40212 0.63015 0.03500
S 	S 	0.56740 0.20620 0.60613 -0.05100
H 	H 	0.58979 0.24188 0.68866 0.05100
C 	C 	0.62956 0.33069 0.76627 -0.00800
C 	C 	0.63713 0.32816 0.80585 0.00100
C 	C 	0.67906 0.32586 0.82210 -0.09400
C 	C 	0.71518 0.32854 0.79883 0.06000
C 	C 	0.70727 0.33055 0.75927 -0.07500
S 	S 	0.57679 0.33375 0.74665 -0.03800
H 	H 	0.60975 0.32688 0.82379 0.04000
S 	S 	0.77134 0.33099 0.81914 -0.08700
H 	H 	0.73440 0.33143 0.74125 0.05300
H 	H 	0.59226 0.18136 0.60285 0.02600
H 	H 	0.53108 0.28248 0.73174 0.03500
H 	H 	0.81488 0.38368 0.83305 0.03600
H 	H 	0.70312 0.45999 0.71718 0.03700
C 	C 	0.65032 0.24338 0.25880 -0.07200
C 	C 	0.67227 0.28797 0.24016 0.01300
C 	C 	0.69390 0.33923 0.26187 -0.00500
C 	C 	0.69220 0.34514 0.30163 -0.00200
C 	C 	0.66908 0.30040 0.32013 -0.08800
C 	C 	0.64877 0.24936 0.29870 0.05300
C 	C 	0.67003 0.28035 0.19754 0.01300
S 	S 	0.72301 0.39626 0.23952 -0.03700
H 	H 	0.70851 0.38457 0.31818 0.04400
S 	S 	0.61998 0.19247 0.32117 -0.05200
H 	H 	0.63388 0.20398 0.24216 0.05200
C 	C 	0.71489 0.28967 0.18226 -0.00600
C 	C 	0.71718 0.29428 0.14302 -0.00100
C 	C 	0.67516 0.28993 0.11894 -0.08800
C 	C 	0.62823 0.27592 0.13342 0.05600
C 	C 	0.62580 0.27090 0.17254 -0.07200
S 	S 	0.76919 0.29758 0.21230 -0.03700
H 	H 	0.75279 0.30382 0.13173 0.04400
S 	S 	0.57264 0.26530 0.10296 -0.06000
H 	H 	0.59060 0.26224 0.18403 0.05200
H 	H 	0.56566 0.16862 0.31910 0.02900
H 	H 	0.75842 0.24802 0.21220 0.03700
H 	H 	0.53830 0.21243 0.08429 0.04300
H 	H 	0.77683 0.41868 0.24036 0.03800
C 	C 	0.88846 0.85086 0.44605 -0.02200
C 	C 	0.90091 0.82042 0.42401 -0.01900
C 	C 	0.87492 0.76604 0.42592 -0.04800
C 	C 	0.83620 0.74148 0.44988 0.01300
C 	C 	0.82271 0.77146 0.47124 -0.04900
C 	C 	0.84862 0.82593 0.46923 -0.01900
C 	C 	0.81058 0.68466 0.45303 0.00700
C 	C 	0.82236 0.67183 0.48805 -0.04300
C 	C 	0.80195 0.61844 0.48995 -0.03100
C 	C 	0.76964 0.57763 0.45688 -0.00900
C 	C 	0.75699 0.59023 0.42213 -0.03100
C 	C 	0.77737 0.64354 0.42020 -0.04300
C 	C 	0.74955 0.52278 0.45838 0.04500
C 	C 	0.73171 0.47636 0.45849 -0.11000
H 	H 	0.93122 0.83909 0.40574 0.04000
H 	H 	0.88543 0.74316 0.40922 0.04300
H 	H 	0.79258 0.75271 0.48962 0.04200
H 	H 	0.83877 0.84904 0.48645 0.03900
H 	H 	0.84813 0.70333 0.51352 0.04100
H 	H 	0.81167 0.60895 0.51697 0.03800
H 	H 	0.73177 0.55883 0.39652 0.03900
H 	H 	0.76797 0.65303 0.39306 0.04100
C 	C 	0.89683 0.01324 0.43923 -0.02000
C 	C 	0.85406 0.99951 0.45895 -0.02100
C 	C 	0.83117 0.02741 0.45731 -0.04700
C 	C 	0.85069 0.06912 0.43583 0.01200
C 	C 	0.89226 0.08170 0.41514 -0.04800
C 	C 	0.91525 0.05397 0.41685 -0.02000
C 	C 	0.82947 0.10134 0.43651 0.00800
C 	C 	0.86432 0.15692 0.45198 -0.04300
C 	C 	0.84398 0.18718 0.45376 -0.03100
C 	C 	0.78869 0.16214 0.44015 -0.01100
C 	C 	0.75395 0.10682 0.42413 -0.03000
C 	C 	0.77426 0.07650 0.42227 -0.04400
C 	C 	0.76694 0.19237 0.44522 0.04700
C 	C 	0.74875 0.21752 0.45053 -0.11800
H 	H 	0.83953 0.96826 0.47636 0.04000
H 	H 	0.79911 0.01740 0.47340 0.04100
H 	H 	0.90719 0.11342 0.39812 0.04300
H 	H 	0.94766 0.06441 0.40102 0.04000
H 	H 	0.90697 0.17647 0.46311 0.04100
H 	H 	0.87104 0.22987 0.46632 0.03700
H 	H 	0.71112 0.08716 0.41363 0.03800
H 	H 	0.74709 0.03372 0.41003 0.04100
C 	C 	0.06402 0.02534 0.45345 -0.02100
C 	C 	0.09094 0.06741 0.43247 -0.02000
C 	C 	0.14691 0.09606 0.43399 -0.04900
C 	C 	0.17648 0.08297 0.45651 0.01300
C 	C 	0.14982 0.04159 0.47799 -0.04900
C 	C 	0.09388 0.01292 0.47649 -0.02000
C 	C 	0.23515 0.11193 0.45706 0.00700
C 	C 	0.25490 0.08403 0.44232 -0.04300
C 	C 	0.31054 0.11149 0.44283 -0.03100
C 	C 	0.34673 0.16695 0.45804 -0.00800
C 	C 	0.32712 0.19486 0.47285 -0.03000
C 	C 	0.27150 0.16745 0.47237 -0.04300
C 	C 	0.40388 0.19543 0.45788 0.04600
C 	C 	0.45175 0.21972 0.45765 -0.10700
H 	H 	0.06838 0.07722 0.41441 0.03900
H 	H 	0.16718 0.12792 0.41726 0.04200
H 	H 	0.17242 0.03156 0.49574 0.04200
H 	H 	0.07377 0.98106 0.49323 0.04000
H 	H 	0.22713 0.04120 0.43033 0.04000
H 	H 	0.32543 0.08969 0.43127 0.03800
H 	H 	0.35490 0.23776 0.48464 0.04000
H 	H 	0.25666 0.18928 0.48396 0.04100
C 	C 	0.96678 0.90782 0.00188 -0.02600
C 	C 	0.91507 0.87300 0.97794 -0.01700
C 	C 	0.88597 0.81709 0.97463 -0.05000
C 	C 	0.90827 0.79560 0.99529 0.01500
C 	C 	0.95959 0.83037 0.01956 -0.05200
C 	C 	0.98868 0.88618 0.02290 -0.01300
C 	C 	0.87784 0.73674 0.99175 0.00700
C 	C 	0.86103 0.71284 0.02451 -0.04300
C 	C 	0.83440 0.65739 0.02168 -0.03200
C 	C 	0.82434 0.62544 0.98609 -0.00800
C 	C 	0.84069 0.64910 0.95322 -0.03100
C 	C 	0.86741 0.70465 0.95603 -0.04200
C 	C 	0.79619 0.56824 0.98326 0.04700
C 	C 	0.77194 0.52043 0.98200 -0.10800
H 	H 	0.89785 0.88916 0.96140 0.04000
H 	H 	0.84620 0.79050 0.95598 0.04300
H 	H 	0.97704 0.81410 0.03568 0.04300
H 	H 	0.86880 0.73729 0.05218 0.04100
H 	H 	0.82159 0.63926 0.04714 0.03800
H 	H 	0.83283 0.62457 0.92557 0.04100
H 	H 	0.88046 0.72280 0.93061 0.04100
C 	C 	0.97791 0.07288 0.00603 -0.02000
C 	C 	0.93247 0.05348 0.02391 -0.02000
C 	C 	0.90598 0.07784 0.02282 -0.04800
C 	C 	0.92467 0.12187 0.00392 0.01300
C 	C 	0.97061 0.14191 0.98664 -0.04900
C 	C 	0.99711 0.11754 0.98766 -0.01600
C 	C 	0.89487 0.14559 0.00085 0.00700
C 	C 	0.86983 0.14284 0.96412 -0.04300
C 	C 	0.84095 0.16464 0.96119 -0.03100
C 	C 	0.83684 0.18927 0.99492 -0.01100
C 	C 	0.86183 0.19213 0.03165 -0.03000
C 	C 	0.89078 0.17034 0.03463 -0.04300
C 	C 	0.80715 0.21178 0.99168 0.04800
C 	C 	0.78214 0.23037 0.98798 -0.12100
H 	H 	0.91765 0.01952 0.03862 0.04100
H 	H 	0.87053 0.06210 0.03623 0.04300
H 	H 	0.98544 0.17602 0.97210 0.04300
H 	H 	0.87251 0.12356 0.93791 0.04000
H 	H 	0.82172 0.16230 0.93270 0.03400
H 	H 	0.85887 0.21119 0.05784 0.04000
H 	H 	0.91006 0.17275 0.06311 0.04100
C 	C 	0.14293 0.08165 0.00991 -0.02300
C 	C 	0.17258 0.06800 0.03168 -0.01900
C 	C 	0.22750 0.09371 0.03049 -0.04900
C 	C 	0.25341 0.13347 0.00765 0.01300
C 	C 	0.22433 0.14844 0.98687 -0.04900
C 	C 	0.16930 0.12268 0.98803 -0.01800
C 	C 	0.31043 0.15805 0.00452 0.00600
C 	C 	0.32348 0.15005 0.96848 -0.04200
C 	C 	0.37714 0.17076 0.96597 -0.03100
C 	C 	0.41798 0.19946 0.99946 -0.00900
C 	C 	0.40510 0.20778 0.03540 -0.03200
C 	C 	0.35151 0.18721 0.03794 -0.04300
C 	C 	0.47337 0.22163 0.99685 0.04700
C 	C 	0.52019 0.24129 0.99542 -0.11500
H 	H 	0.15286 0.03691 0.04909 0.03900
H 	H 	0.24969 0.08205 0.04675 0.04200
H 	H 	0.24416 0.17946 0.96942 0.04200
H 	H 	0.14686 0.13355 0.97108 0.03900
H 	H 	0.29198 0.12728 0.94257 0.04100
H 	H 	0.38689 0.16440 0.93805 0.03800
H 	H 	0.43657 0.23016 0.06137 0.03800
H 	H 	0.34184 0.19364 0.06587 0.04000
