data_crystal

_cell_length_a 20.71405
_cell_length_b 21.34238
_cell_length_c 40.71125
_cell_angle_alpha 60.66070
_cell_angle_beta  119.09421
_cell_angle_gamma 133.33147

_symmetry_space_group_name_	'P 1'
_symmetry_space_group_name_H-M	'P 1'

loop_
_symmetry_equiv_pos_as_xyz
  x,y,z

loop_
_atom_site_label
_atom_site_type_symbol
_atom_site_fract_x
_atom_site_fract_y
_atom_site_fract_z
_atom_site_charge
C 	C 	0.71426 0.29255 0.01865 0.08200
C 	C 	0.74440 0.37960 0.01240 -0.02400
C 	C 	0.68961 0.39201 0.01587 0.08200
C 	C 	0.59949 0.32088 0.01774 -0.03700
C 	C 	0.56927 0.23441 0.02500 0.08800
C 	C 	0.62598 0.21983 0.02508 -0.03400
H 	H 	0.80939 0.43664 0.00503 0.12600
H 	H 	0.55387 0.33223 0.01573 0.12100
H 	H 	0.60171 0.15270 0.02997 0.12300
C 	C 	0.74733 0.28365 0.53391 0.07100
C 	C 	0.78835 0.37419 0.52697 -0.01800
C 	C 	0.75650 0.39846 0.53882 0.07100
C 	C 	0.67468 0.33463 0.55042 -0.02300
C 	C 	0.62959 0.24500 0.55495 0.08300
C 	C 	0.66812 0.21890 0.54851 -0.03300
H 	H 	0.84436 0.42495 0.51270 0.12500
H 	H 	0.64477 0.35521 0.55499 0.11700
H 	H 	0.63452 0.14889 0.55322 0.10300
C 	C 	0.25290 0.64572 0.14531 0.08100
C 	C 	0.33589 0.71729 0.13350 -0.02300
C 	C 	0.38245 0.70099 0.12623 0.08700
C 	C 	0.34153 0.61528 0.12600 -0.02600
C 	C 	0.25636 0.54454 0.13448 0.07800
C 	C 	0.21471 0.55825 0.14679 -0.03400
H 	H 	0.36436 0.78486 0.13022 0.15400
H 	H 	0.37836 0.60295 0.12089 0.12300
H 	H 	0.15403 0.50150 0.15773 0.10700
C 	C 	0.30912 0.65570 0.66445 0.08500
C 	C 	0.25210 0.57703 0.65186 -0.00700
C 	C 	0.29092 0.54159 0.65277 0.08200
C 	C 	0.38556 0.58901 0.66211 -0.01700
C 	C 	0.44167 0.67360 0.66777 0.06700
C 	C 	0.40491 0.70279 0.67322 -0.01800
H 	H 	0.17939 0.54545 0.64051 0.15300
H 	H 	0.41529 0.56397 0.66082 0.10600
H 	H 	0.45020 0.76475 0.68163 0.11100
Co	Co	0.95954 0.84452 0.08773 1.21100
Co	Co	0.01450 0.09580 0.07538 1.17600
Co	Co	0.91776 0.91623 0.12654 1.20600
Co	Co	0.05661 0.02346 0.03667 1.18500
C 	C 	0.84893 0.72976 0.02881 0.31000
Co	Co	0.04561 0.86846 0.03048 1.18000
Co	Co	0.92656 0.06452 0.13540 1.18300
C 	C 	0.22211 0.03489 0.04948 0.26500
O 	O 	0.90192 0.95972 0.18377 -0.33700
O 	O 	0.95038 0.02177 0.10856 -0.75200
C 	C 	0.95960 0.93941 0.20313 0.33900
O 	O 	0.90520 0.81059 0.12902 -0.38300
O 	O 	0.07651 0.13156 0.03662 -0.40400
C 	C 	0.12126 0.20100 0.13639 0.30500
O 	O 	0.96087 0.96300 0.07249 -0.51800
C 	C 	0.74641 0.89726 0.11716 0.30000
C 	C 	0.06404 0.77252 0.11293 0.30400
C 	C 	0.02323 0.99934 0.96056 0.40500
O 	O 	0.98787 0.92911 0.18421 -0.32400
O 	O 	0.02448 0.76154 0.07780 -0.36100
O 	O 	0.05627 0.81652 0.12341 -0.34600
O 	O 	0.06446 0.13785 0.15933 -0.34700
O 	O 	0.12717 0.18156 0.11181 -0.34900
O 	O 	0.79204 0.98458 0.10801 -0.31500
O 	O 	0.78101 0.85889 0.12061 -0.28300
O 	O 	0.07455 0.97153 0.98154 -0.35000
O 	O 	0.00741 0.02764 0.97670 -0.35000
O 	O 	0.01320 0.91444 0.05134 -0.75400
C 	C 	0.91738 0.17488 0.05408 0.30000
O 	O 	0.95070 0.17609 0.09060 -0.36600
O 	O 	0.93509 0.14463 0.04014 -0.28600
O 	O 	0.90778 0.79475 0.00669 -0.30300
O 	O 	0.85066 0.74215 0.05862 -0.31100
O 	O 	0.18018 0.94877 0.05760 -0.33200
O 	O 	0.19205 0.06581 0.05579 -0.32400
Co	Co	0.01158 0.85868 0.60001 1.18600
Co	Co	0.02680 0.09776 0.57031 1.18200
Co	Co	0.96394 0.93432 0.63378 1.21000
Co	Co	0.08435 0.02639 0.54008 1.18400
C 	C 	0.89907 0.72930 0.54837 0.31300
Co	Co	0.08850 0.87632 0.54072 1.18500
Co	Co	0.93612 0.07581 0.62507 1.18700
C 	C 	0.26013 0.05488 0.55150 0.28700
O 	O 	0.03568 0.08570 0.67544 -0.36900
O 	O 	0.97415 0.03035 0.60731 -0.74800
C 	C 	0.03111 0.01421 0.69967 0.24800
O 	O 	0.96921 0.83432 0.64352 -0.38100
O 	O 	0.09103 0.13170 0.53324 -0.40400
C 	C 	0.11157 0.23941 0.60487 0.31600
O 	O 	0.99524 0.96748 0.57876 -0.51900
C 	C 	0.79319 0.87824 0.64253 0.31700
C 	C 	0.12872 0.80107 0.62545 0.30400
C 	C 	0.04426 0.98841 0.46677 0.36800
O 	O 	0.03401 0.96660 0.68856 -0.31000
O 	O 	0.08379 0.78019 0.59210 -0.38300
O 	O 	0.11939 0.84672 0.63383 -0.32400
O 	O 	0.02660 0.20616 0.59922 -0.37400
O 	O 	0.13065 0.19833 0.59920 -0.34100
O 	O 	0.84577 0.94999 0.65479 -0.33200
O 	O 	0.82572 0.86103 0.62953 -0.31400
O 	O 	0.10152 0.96770 0.48771 -0.32900
O 	O 	0.02273 0.01198 0.48251 -0.36500
O 	O 	0.05427 0.92209 0.56038 -0.74700
C 	C 	0.87000 0.11601 0.54009 0.31300
O 	O 	0.84218 0.05993 0.57230 -0.34600
O 	O 	0.93268 0.12815 0.53131 -0.29700
O 	O 	0.94950 0.79278 0.52289 -0.31300
O 	O 	0.90528 0.74541 0.57808 -0.31800
O 	O 	0.22445 0.96958 0.56115 -0.28100
O 	O 	0.22323 0.08198 0.55573 -0.33800
C 	C 	0.00566 0.99885 0.86206 0.01900
C 	C 	0.08404 0.02584 0.85611 -0.02800
C 	C 	0.08331 0.02934 0.82046 -0.00200
C 	C 	0.00406 0.00565 0.79016 0.01300
C 	C 	0.92626 0.98025 0.79586 0.05400
C 	C 	0.92694 0.97653 0.83154 0.02100
C 	C 	0.00795 0.02671 0.74994 -0.03800
C 	C 	0.03218 0.99270 0.74090 -0.00300
C 	C 	0.99856 0.96924 0.90263 0.15500
C 	C 	0.99922 0.01474 0.91746 -0.14800
H 	H 	0.14481 0.04150 0.87955 0.10500
H 	H 	0.14487 0.05194 0.81629 0.08800
H 	H 	0.86527 0.96398 0.77251 0.10300
H 	H 	0.86522 0.95340 0.83579 0.10800
H 	H 	0.98544 0.06727 0.72682 0.11900
H 	H 	0.04900 0.94727 0.76323 0.11200
H 	H 	0.00377 0.91467 0.92210 0.05700
H 	H 	0.99041 0.06717 0.89841 0.15800
C 	C 	0.02716 0.98868 0.36793 0.07100
C 	C 	0.08226 0.04625 0.34097 -0.02100
C 	C 	0.05975 0.01926 0.30930 -0.09300
C 	C 	0.98179 0.93401 0.30405 0.13100
C 	C 	0.92718 0.87617 0.33121 -0.03700
C 	C 	0.94967 0.90315 0.36287 0.01700
C 	C 	0.94325 0.91322 0.26570 -0.00800
C 	C 	0.99421 0.93187 0.24591 -0.03500
C 	C 	0.06419 0.01039 0.40587 -0.03900
C 	C 	0.01217 0.99427 0.42417 -0.08000
H 	H 	0.14365 0.11155 0.34493 0.10700
H 	H 	0.10172 0.06559 0.28842 0.12600
H 	H 	0.86588 0.81080 0.32731 0.11000
H 	H 	0.90804 0.85660 0.38392 0.10700
H 	H 	0.87156 0.88617 0.25230 0.12300
H 	H 	0.06330 0.95054 0.26001 0.10100
H 	H 	0.13552 0.03716 0.41990 0.13400
H 	H 	0.94376 0.97691 0.40899 0.14900
C 	C 	0.22940 0.47006 0.60196 0.03500
C 	C 	0.23442 0.46005 0.63975 0.10600
C 	C 	0.21372 0.37869 0.66763 -0.11100
C 	C 	0.19480 0.31199 0.65775 0.07800
C 	C 	0.18380 0.32015 0.61939 0.00800
C 	C 	0.21246 0.40373 0.59273 -0.05800
C 	C 	0.22305 0.42197 0.55409 0.77800
H 	H 	0.24602 0.53254 0.58067 0.13900
H 	H 	0.18066 0.25032 0.67913 0.08500
C 	C 	0.21582 0.36449 0.70839 0.79000
F 	F 	0.28920 0.51128 0.54138 -0.38200
F 	F 	0.14119 0.39828 0.52682 -0.41800
F 	F 	0.24937 0.37424 0.55728 -0.40900
F 	F 	0.17113 0.39286 0.70701 -0.37000
F 	F 	0.30543 0.41207 0.72894 -0.40500
F 	F 	0.17301 0.27562 0.72803 -0.42400
C 	C 	0.63009 0.81534 0.61703 0.07200
C 	C 	0.69966 0.81187 0.64793 0.00600
C 	C 	0.68447 0.76436 0.68578 -0.06600
C 	C 	0.60395 0.73034 0.69259 0.02000
C 	C 	0.53495 0.73538 0.66181 0.08200
C 	C 	0.54920 0.78090 0.62369 -0.11400
C 	C 	0.47765 0.79170 0.59003 0.78900
H 	H 	0.64177 0.85029 0.58805 0.12000
H 	H 	0.59291 0.69606 0.72169 0.11800
C 	C 	0.75643 0.75474 0.71949 0.77800
F 	F 	0.51010 0.84942 0.55678 -0.37300
F 	F 	0.45264 0.82568 0.59930 -0.42700
F 	F 	0.40146 0.71030 0.58192 -0.41900
F 	F 	0.82034 0.83008 0.73356 -0.43000
F 	F 	0.79977 0.74325 0.70791 -0.41500
F 	F 	0.71768 0.68175 0.74922 -0.39700
C 	C 	0.31093 0.78752 0.64608 0.02800
C 	C 	0.27025 0.69630 0.66311 0.08600
C 	C 	0.19677 0.64706 0.68032 -0.10200
C 	C 	0.15352 0.68528 0.67180 0.08000
C 	C 	0.19180 0.77549 0.65233 0.01300
C 	C 	0.27925 0.82850 0.64585 -0.07800
C 	C 	0.34509 0.92608 0.64479 0.78700
H 	H 	0.37061 0.82786 0.63500 0.12600
H 	H 	0.08838 0.64399 0.67882 0.10800
C 	C 	0.16599 0.55660 0.70852 0.79000
F 	F 	0.41387 0.93899 0.67840 -0.36800
F 	F 	0.30386 0.95939 0.64205 -0.42200
F 	F 	0.38341 0.97223 0.61347 -0.41700
F 	F 	0.23845 0.55047 0.72999 -0.38200
F 	F 	0.09975 0.49088 0.68846 -0.36100
F 	F 	0.12919 0.54196 0.73436 -0.37800
C 	C 	0.16859 0.35526 0.10043 0.07000
C 	C 	0.17316 0.29501 0.13603 -0.00200
C 	C 	0.20884 0.31929 0.17096 -0.06500
C 	C 	0.22295 0.39500 0.16962 0.02000
C 	C 	0.21574 0.45419 0.13413 0.08900
C 	C 	0.18861 0.43446 0.09895 -0.11900
C 	C 	0.18415 0.49900 0.05992 0.78500
H 	H 	0.14500 0.33830 0.07378 0.07800
H 	H 	0.24493 0.41076 0.19640 0.10900
C 	C 	0.23072 0.26431 0.20987 0.77800
F 	F 	0.13523 0.45902 0.02951 -0.42100
F 	F 	0.27130 0.56970 0.05445 -0.39400
F 	F 	0.14211 0.53046 0.05828 -0.40000
F 	F 	0.25646 0.22343 0.20613 -0.41100
F 	F 	0.15483 0.20036 0.22540 -0.44600
F 	F 	0.30216 0.31758 0.23541 -0.40000
C 	C 	0.59223 0.86433 0.08706 0.07000
C 	C 	0.64984 0.84180 0.11806 0.02600
C 	C 	0.62042 0.77998 0.15259 -0.07900
C 	C 	0.54237 0.75477 0.15768 0.02900
C 	C 	0.48005 0.76880 0.12573 0.08800
C 	C 	0.50650 0.82706 0.09027 -0.09500
C 	C 	0.44307 0.84846 0.05583 0.78600
H 	H 	0.61474 0.91141 0.06060 0.13900
H 	H 	0.52335 0.71345 0.18524 0.11800
C 	C 	0.66569 0.73379 0.18193 0.78300
F 	F 	0.48452 0.91295 0.02528 -0.38500
F 	F 	0.41757 0.87974 0.06658 -0.40200
F 	F 	0.36585 0.77274 0.04293 -0.38100
F 	F 	0.75218 0.79348 0.20046 -0.44100
F 	F 	0.67120 0.69837 0.16341 -0.40500
F 	F 	0.61677 0.66482 0.20983 -0.40300
C 	C 	0.10602 0.60946 0.14245 0.03800
C 	C 	0.20200 0.66265 0.15310 0.08300
C 	C 	0.24775 0.73792 0.16644 -0.11400
C 	C 	0.20057 0.77316 0.15651 0.07500
C 	C 	0.10552 0.72426 0.14131 0.01500
C 	C 	0.05808 0.63551 0.14113 -0.09600
C 	C 	0.95543 0.57282 0.13312 0.81500
H 	H 	0.06821 0.54988 0.13353 0.11500
H 	H 	0.23799 0.83844 0.16022 0.09900
C 	C 	0.33940 0.77257 0.19550 0.78400
F 	F 	0.92845 0.48807 0.15583 -0.35300
F 	F 	0.92140 0.57134 0.09455 -0.41400
F 	F 	0.91990 0.59844 0.14126 -0.40300
F 	F 	0.40644 0.85401 0.17760 -0.38200
F 	F 	0.36263 0.71438 0.21185 -0.41200
F 	F 	0.33606 0.78377 0.22525 -0.38000
C 	C 	0.72679 0.19126 0.50397 0.02000
C 	C 	0.78578 0.25594 0.52544 0.08000
C 	C 	0.87932 0.28860 0.54047 -0.12200
C 	C 	0.91071 0.26110 0.53030 0.07000
C 	C 	0.84877 0.18116 0.51923 0.01100
C 	C 	0.75731 0.15192 0.50148 -0.06200
C 	C 	0.69050 0.07407 0.48316 0.75900
H 	H 	0.65617 0.16817 0.49117 0.10400
H 	H 	0.98305 0.29326 0.53704 0.13200
C 	C 	0.94310 0.34382 0.57029 0.80900
F 	F 	0.62110 0.07963 0.45430 -0.38800
F 	F 	0.65279 0.99581 0.51119 -0.36500
F 	F 	0.73425 0.07274 0.46669 -0.39300
F 	F 	0.89725 0.31752 0.59541 -0.38100
F 	F 	0.98228 0.43272 0.55171 -0.39700
F 	F 	0.01271 0.33375 0.59270 -0.45200
C 	C 	0.87166 0.58411 0.57980 0.07700
C 	C 	0.84724 0.63755 0.54766 -0.00100
C 	C 	0.79556 0.61262 0.51203 -0.06500
C 	C 	0.78285 0.54349 0.50759 0.01400
C 	C 	0.80793 0.49027 0.53962 0.08800
C 	C 	0.85700 0.51343 0.57571 -0.11300
C 	C 	0.89931 0.46689 0.60890 0.79500
H 	H 	0.90966 0.60286 0.60718 0.09600
H 	H 	0.74623 0.52602 0.47991 0.10500
C 	C 	0.75652 0.66140 0.47820 0.77800
F 	F 	0.94560 0.49998 0.64134 -0.38300
F 	F 	0.96093 0.47970 0.59730 -0.36800
F 	F 	0.83270 0.37684 0.61958 -0.35800
F 	F 	0.81902 0.73106 0.45556 -0.42300
F 	F 	0.73635 0.69422 0.49110 -0.39800
F 	F 	0.67656 0.60475 0.45550 -0.39800
C 	C 	0.46634 0.15497 0.52439 0.03600
C 	C 	0.53404 0.18244 0.55776 0.08000
C 	C 	0.51087 0.17245 0.58835 -0.09700
C 	C 	0.42376 0.14722 0.58242 0.09000
C 	C 	0.35593 0.11864 0.54915 0.03000
C 	C 	0.37999 0.13076 0.51839 -0.07900
C 	C 	0.31322 0.11561 0.47949 0.77600
H 	H 	0.48371 0.16036 0.50149 0.09900
H 	H 	0.40614 0.14166 0.60527 0.11500
C 	C 	0.57875 0.18937 0.62712 0.79300
F 	F 	0.35878 0.16680 0.45010 -0.41600
F 	F 	0.25793 0.13896 0.47115 -0.44600
F 	F 	0.26045 0.02709 0.48015 -0.45200
F 	F 	0.62987 0.27758 0.62651 -0.39600
F 	F 	0.63671 0.16927 0.63524 -0.37700
F 	F 	0.53382 0.13707 0.65677 -0.36900
C 	C 	0.74019 0.21676 0.99948 0.04100
C 	C 	0.77551 0.27664 0.01963 0.07100
C 	C 	0.86714 0.31628 0.04211 -0.10600
C 	C 	0.92245 0.30437 0.03895 0.08100
C 	C 	0.88210 0.22925 0.02798 0.02600
C 	C 	0.79199 0.19031 0.00455 -0.08600
C 	C 	0.75039 0.11963 0.98595 0.79300
H 	H 	0.67142 0.18814 0.98132 0.10500
H 	H 	0.99402 0.34008 0.05342 0.12200
C 	C 	0.90290 0.35992 0.07325 0.78400
F 	F 	0.67095 0.10395 0.95786 -0.39500
F 	F 	0.73007 0.04111 0.01393 -0.43900
F 	F 	0.81145 0.14663 0.96844 -0.39400
F 	F 	0.83456 0.31954 0.09016 -0.37200
F 	F 	0.93962 0.44921 0.05745 -0.39300
F 	F 	0.97094 0.35269 0.10265 -0.41100
C 	C 	0.75465 0.56548 0.05318 0.08600
C 	C 	0.78272 0.63957 0.02167 0.01700
C 	C 	0.76458 0.62730 0.98613 -0.06500
C 	C 	0.74422 0.54951 0.98610 0.03600
C 	C 	0.72699 0.47843 0.01919 0.08300
C 	C 	0.73019 0.48559 0.05308 -0.08400
C 	C 	0.70866 0.40910 0.08929 0.79300
H 	H 	0.75874 0.57213 0.07897 0.12600
H 	H 	0.73699 0.54243 0.95965 0.10600
C 	C 	0.76264 0.69427 0.94800 0.78000
F 	F 	0.74224 0.43797 0.12165 -0.35200
F 	F 	0.74789 0.36973 0.09665 -0.33700
F 	F 	0.61521 0.34658 0.08458 -0.40500
F 	F 	0.84587 0.75078 0.93857 -0.42800
F 	F 	0.74436 0.74351 0.95004 -0.40100
F 	F 	0.69505 0.65112 0.91867 -0.39600
C 	C 	0.38270 0.08726 0.07533 0.06800
C 	C 	0.31527 0.09465 0.04406 0.02300
C 	C 	0.33034 0.13719 0.00617 -0.10300
C 	C 	0.40401 0.15709 0.99987 0.04500
C 	C 	0.47634 0.16037 0.03104 0.06800
C 	C 	0.46258 0.11805 0.06910 -0.09200
C 	C 	0.53196 0.10418 0.10278 0.78500
H 	H 	0.37070 0.05377 0.10425 0.10100
H 	H 	0.41269 0.18499 0.97054 0.09600
C 	C 	0.27306 0.16729 0.97257 0.79000
F 	F 	0.50108 0.05203 0.13655 -0.38000
F 	F 	0.61257 0.18516 0.10951 -0.35500
F 	F 	0.54897 0.06211 0.09422 -0.40400
F 	F 	0.21968 0.16585 0.98435 -0.44500
F 	F 	0.21795 0.11357 0.94712 -0.45000
F 	F 	0.32991 0.25378 0.95301 -0.40500
