data_crystal

_cell_length_a 15.78863
_cell_length_b 17.50853
_cell_length_c 25.09621
_cell_angle_alpha 89.99365
_cell_angle_beta  89.99266
_cell_angle_gamma 120.27043

_symmetry_space_group_name_	'P 1'
_symmetry_space_group_name_H-M	'P 1'

loop_
_symmetry_equiv_pos_as_xyz
  x,y,z

loop_
_atom_site_label
_atom_site_type_symbol
_atom_site_fract_x
_atom_site_fract_y
_atom_site_fract_z
_atom_site_charge
C 	C 	0.03407 0.14786 0.07585 0.35500
O 	O 	0.05255 0.02765 0.00106 -0.63200
O 	O 	0.01670 0.07364 0.61203 -0.27500
C 	C 	0.01311 0.24325 0.13984 0.28200
F 	F 	0.06092 0.82921 0.66490 -0.34600
O 	O 	0.08805 0.90017 0.04696 -0.36300
F 	F 	0.03507 0.32596 0.21913 -0.34800
H 	H 	0.08203 0.09186 0.99607 0.14700
F 	F 	0.06884 0.28032 0.91190 -0.33400
Ni	Ni	0.10645 0.02129 0.06676 1.16200
Ni	Ni	0.09813 0.99884 0.93847 1.09600
Ni	Ni	0.06731 0.00783 0.49950 1.16900
O 	O 	0.02785 0.89831 0.45749 -0.37000
O 	O 	0.04887 0.93826 0.56924 -0.35100
C 	C 	0.07024 0.31800 0.17142 0.31300
C 	C 	0.04834 0.23450 0.09030 -0.13600
F 	F 	0.08933 0.71435 0.00648 -0.31800
C 	C 	0.05002 0.71330 0.37290 0.28000
C 	C 	0.00127 0.82484 0.37401 -0.19000
F 	F 	0.04736 0.64196 0.39598 -0.33000
C 	C 	0.15004 0.89707 0.01435 0.45200
O 	O 	0.10620 0.13362 0.08841 -0.29600
C 	C 	0.10341 0.12288 0.59014 0.41000
C 	C 	0.07330 0.13397 0.41915 0.39700
O 	O 	0.11315 0.12211 0.53871 -0.32300
C 	C 	0.13054 0.30897 0.06837 0.28900
C 	C 	0.16421 0.76777 0.03947 0.29800
F 	F 	0.13943 0.64171 0.08900 -0.34100
C 	C 	0.05626 0.86240 0.32750 0.29700
F 	F 	0.06164 0.93592 0.30606 -0.35400
O 	O 	0.17954 0.94909 0.97210 -0.37700
O 	O 	0.10842 0.08205 0.43210 -0.29900
F 	F 	0.16067 0.30483 0.01833 -0.31100
C 	C 	0.11463 0.75743 0.33047 -0.16900
F 	F 	0.12750 0.04871 0.68616 -0.31700
F 	F 	0.13112 0.28824 0.48114 -0.31800
C 	C 	0.11255 0.82876 0.30566 0.28700
O 	O 	0.13115 0.46905 0.28617 -0.29200
C 	C 	0.18838 0.73080 0.08223 0.30000
C 	C 	0.16308 0.38461 0.15348 -0.16100
C 	C 	0.20887 0.86012 0.03479 -0.16200
C 	C 	0.14231 0.29381 0.42741 0.29600
C 	C 	0.13800 0.22306 0.39884 -0.16200
F 	F 	0.14633 0.43173 0.42838 -0.31900
O 	O 	0.21698 0.11864 0.94821 -0.32000
C 	C 	0.19036 0.38187 0.10067 0.31000
C 	C 	0.14763 0.36600 0.40033 0.30900
Ni	Ni	0.17464 0.58827 0.24439 1.13500
O 	O 	0.15699 0.64551 0.31224 -0.31400
O 	O 	0.18956 0.69415 0.19709 -0.30300
O 	O 	0.19026 0.52605 0.17927 -0.32000
C 	C 	0.15865 0.23334 0.34414 0.29500
C 	C 	0.15766 0.37201 0.34465 -0.17500
F 	F 	0.16583 0.86614 0.26087 -0.35400
C 	C 	0.19258 0.16831 0.62345 -0.17400
O 	O 	0.02985 0.04404 0.88756 -0.29100
F 	F 	0.16126 0.16804 0.31632 -0.31600
C 	C 	0.18437 0.72949 0.31226 0.40000
C 	C 	0.16787 0.30707 0.31707 0.30200
C 	C 	0.20481 0.12441 0.66711 0.29200
C 	C 	0.18923 0.45773 0.31898 0.41900
F 	F 	0.19129 0.31729 0.26464 -0.35600
C 	C 	0.00540 0.23689 0.87148 0.25500
C 	C 	0.21764 0.46699 0.18432 0.40300
C 	C 	0.99174 0.74558 0.39356 0.31600
O 	O 	0.97919 0.10176 0.41294 -0.30600
C 	C 	0.98338 0.88079 0.41071 0.42000
F 	F 	0.96520 0.30385 0.49253 -0.31300
O 	O 	0.93615 0.92166 0.39322 -0.33100
C 	C 	0.79968 0.54158 0.80879 0.39400
C 	C 	0.75389 0.28581 0.63914 0.39900
C 	C 	0.77095 0.53492 0.67268 0.42700
C 	C 	0.83276 0.27019 0.78103 0.37700
C 	C 	0.47974 0.26364 0.69058 0.40000
C 	C 	0.55533 0.26374 0.83492 0.37700
Ni	Ni	0.83456 0.42378 0.72615 1.13600
Ni	Ni	0.63421 0.23297 0.73674 1.14200
Ni	Ni	0.62517 0.40879 0.75370 1.13900
O 	O 	0.86365 0.53172 0.77811 -0.27900
O 	O 	0.70856 0.47762 0.81533 -0.33000
O 	O 	0.49783 0.20928 0.71816 -0.30700
O 	O 	0.83123 0.33432 0.66947 -0.30900
O 	O 	0.66524 0.25466 0.65825 -0.31800
O 	O 	0.53087 0.31216 0.80444 -0.32200
O 	O 	0.79483 0.47528 0.66413 -0.33700
O 	O 	0.70513 0.52261 0.70934 -0.31400
O 	O 	0.59223 0.21718 0.81339 -0.30500
O 	O 	0.87338 0.35762 0.78084 -0.30100
O 	O 	0.75445 0.21898 0.75092 -0.30500
O 	O 	0.54420 0.34844 0.68949 -0.32700
O 	O 	0.70596 0.35701 0.75061 -0.72300
H 	H 	0.72206 0.35688 0.78851 0.17900
C 	C 	0.27063 0.75118 0.17051 0.38400
C 	C 	0.43092 0.70054 0.36396 0.39000
C 	C 	0.53506 0.73862 0.21906 0.39500
Ni	Ni	0.37341 0.58195 0.27028 1.14200
Ni	Ni	0.37964 0.76715 0.26991 1.13800
O 	O 	0.35815 0.79188 0.19410 -0.29800
O 	O 	0.46055 0.66193 0.32933 -0.31800
O 	O 	0.27649 0.52247 0.32895 -0.35000
O 	O 	0.51539 0.78547 0.25352 -0.33900
O 	O 	0.26528 0.78664 0.28741 -0.31600
O 	O 	0.48330 0.65083 0.21853 -0.31800
O 	O 	0.29251 0.47968 0.21621 -0.29500
O 	O 	0.38543 0.74154 0.34721 -0.32800
O 	O 	0.31190 0.64581 0.24893 -0.72300
H 	H 	0.33014 0.65081 0.21103 0.18000
C 	C 	0.27936 0.13495 0.98763 0.36000
C 	C 	0.89414 0.90320 0.09930 0.41900
C 	C 	0.90136 0.84986 0.92695 0.41500
C 	C 	0.99292 0.09609 0.90022 0.40100
Ni	Ni	0.91822 0.99330 0.99894 1.08900
O 	O 	0.25067 0.09236 0.03447 -0.22600
O 	O 	0.86524 0.90178 0.93863 -0.35100
O 	O 	0.98277 0.95884 0.11681 -0.33300
O 	O 	0.87857 0.89042 0.04838 -0.33200
O 	O 	0.94816 0.08844 0.94613 -0.31300
O 	O 	0.94514 0.08137 0.06124 -0.22000
O 	O 	0.99183 0.87386 0.93776 -0.37700
C 	C 	0.70883 0.85804 0.50285 0.38800
C 	C 	0.84705 0.11288 0.49849 0.39600
C 	C 	0.96159 0.87575 0.58784 0.40100
Ni	Ni	0.88761 0.99898 0.56758 1.10700
Ni	Ni	0.87807 0.98289 0.43779 1.11200
O 	O 	0.74081 0.92109 0.54034 -0.32500
O 	O 	0.76032 0.86775 0.45909 -0.34500
O 	O 	0.90485 0.11442 0.53609 -0.30800
O 	O 	0.80585 0.04514 0.46533 -0.27500
O 	O 	0.89238 0.89388 0.60074 -0.33100
O 	O 	0.93467 0.97710 0.50354 -0.76200
H 	H 	0.90435 0.91245 0.50513 0.19500
F 	F 	0.92887 0.17523 0.15988 -0.30200
F 	F 	0.27443 0.44998 0.08051 -0.32500
C 	C 	0.64727 0.84971 0.15307 0.28600
C 	C 	0.62928 0.78361 0.19036 -0.17200
C 	C 	0.70299 0.76321 0.20164 0.29100
C 	C 	0.79277 0.80669 0.17435 0.30400
C 	C 	0.80907 0.87021 0.13536 -0.18600
C 	C 	0.73635 0.89244 0.12549 0.29600
F 	F 	0.75094 0.95364 0.08790 -0.38500
F 	F 	0.57732 0.87103 0.14256 -0.35000
F 	F 	0.86248 0.78497 0.18454 -0.34000
F 	F 	0.68778 0.70165 0.23913 -0.34400
C 	C 	0.29023 0.91408 0.06723 0.23700
C 	C 	0.26024 0.78620 0.11907 -0.17000
C 	C 	0.31644 0.87718 0.10859 0.31400
F 	F 	0.39018 0.93149 0.14195 -0.34500
F 	F 	0.33348 0.00314 0.06457 -0.27200
C 	C 	0.46889 0.78144 0.45148 0.28900
C 	C 	0.46664 0.71370 0.41987 -0.16800
C 	C 	0.51396 0.66936 0.43919 0.29900
C 	C 	0.58069 0.70615 0.48139 0.29300
C 	C 	0.60456 0.78977 0.50115 -0.16500
C 	C 	0.53611 0.81733 0.49352 0.28600
F 	F 	0.54249 0.88558 0.52227 -0.33900
F 	F 	0.40947 0.81455 0.44032 -0.34900
F 	F 	0.63357 0.66837 0.49668 -0.30500
F 	F 	0.49909 0.59374 0.41567 -0.33600
F 	F 	0.93312 0.70478 0.43616 -0.32500
C 	C 	0.95724 0.27597 0.84641 0.30900
C 	C 	0.88852 0.23074 0.80562 -0.16600
C 	C 	0.87422 0.14829 0.78809 0.29800
C 	C 	0.92003 0.10814 0.81474 0.28700
C 	C 	0.98149 0.15010 0.85861 -0.14000
F 	F 	0.97436 0.35610 0.86352 -0.33900
F 	F 	0.89948 0.02593 0.80005 -0.29900
F 	F 	0.81582 0.10674 0.74556 -0.34300
C 	C 	0.82769 0.69469 0.81376 0.29300
C 	C 	0.83128 0.62424 0.83867 -0.16000
C 	C 	0.83280 0.62156 0.89458 0.29600
C 	C 	0.83353 0.68912 0.92486 0.29800
C 	C 	0.84238 0.76467 0.89982 -0.18100
C 	C 	0.83324 0.76439 0.84418 0.28800
F 	F 	0.83682 0.83473 0.81921 -0.34700
F 	F 	0.81379 0.69354 0.76044 -0.36000
F 	F 	0.83686 0.68594 0.97884 -0.34500
F 	F 	0.82984 0.55153 0.91968 -0.33100
C 	C 	0.42371 0.13044 0.95459 0.29100
C 	C 	0.38359 0.18105 0.97366 -0.14800
C 	C 	0.42876 0.27065 0.95936 0.28600
C 	C 	0.49607 0.30266 0.91724 0.29700
C 	C 	0.51978 0.24526 0.89051 -0.16800
C 	C 	0.49287 0.16313 0.91373 0.29800
F 	F 	0.52625 0.11126 0.89347 -0.33200
F 	F 	0.38359 0.04450 0.96874 -0.31900
F 	F 	0.53348 0.38738 0.90044 -0.35300
F 	F 	0.39758 0.32313 0.98121 -0.33400
C 	C 	0.69032 0.17803 0.56286 0.29900
C 	C 	0.76611 0.25693 0.58554 -0.17000
C 	C 	0.85616 0.30298 0.55849 0.30100
C 	C 	0.87576 0.26215 0.51611 0.29400
C 	C 	0.80864 0.17332 0.50380 -0.16200
C 	C 	0.71145 0.13812 0.52062 0.29400
F 	F 	0.64015 0.05989 0.50079 -0.29800
F 	F 	0.59818 0.13786 0.58333 -0.33200
F 	F 	0.92534 0.38545 0.57419 -0.33600
C 	C 	0.85758 0.71690 0.57070 0.30100
C 	C 	0.94064 0.78530 0.59607 -0.18000
C 	C 	0.97685 0.76583 0.64186 0.30900
C 	C 	0.92195 0.68341 0.66657 0.30500
C 	C 	0.82875 0.62136 0.64661 -0.17400
C 	C 	0.79944 0.63647 0.59695 0.30700
F 	F 	0.71462 0.57355 0.57428 -0.31500
F 	F 	0.82738 0.73227 0.52336 -0.34000
F 	F 	0.95881 0.66433 0.71003 -0.36100
C 	C 	0.27325 0.24755 0.60508 0.29100
C 	C 	0.36675 0.27774 0.62630 0.29100
C 	C 	0.38023 0.23147 0.66819 -0.17000
C 	C 	0.29784 0.15625 0.68975 0.29500
F 	F 	0.30763 0.11409 0.73266 -0.33700
F 	F 	0.44470 0.35056 0.60498 -0.32700
F 	F 	0.26169 0.29334 0.56484 -0.31900
