data_crystal

_cell_length_a 25.69125
_cell_length_b 26.96914
_cell_length_c 45.05878
_cell_angle_alpha 95.50133
_cell_angle_beta  95.50082
_cell_angle_gamma 125.84943

_symmetry_space_group_name_	'P 1'
_symmetry_space_group_name_H-M	'P 1'

loop_
_symmetry_equiv_pos_as_xyz
  x,y,z

loop_
_atom_site_label
_atom_site_type_symbol
_atom_site_fract_x
_atom_site_fract_y
_atom_site_fract_z
_atom_site_charge
C 	C 	0.94375 0.01872 0.99852 0.03200
C 	C 	0.03973 0.02050 0.00164 0.04200
C 	C 	0.00500 0.02749 0.46189 -0.07000
C 	C 	0.90114 0.05033 0.49101 -0.01500
C 	C 	0.90614 0.02363 0.46394 -0.00600
C 	C 	0.88772 0.03316 0.43595 -0.03500
C 	C 	0.92000 0.04142 0.52011 0.08400
H 	H 	0.89161 0.01278 0.41511 0.04600
C 	C 	0.11046 0.04066 0.46605 0.00300
C 	C 	0.13381 0.01949 0.44524 -0.04100
C 	C 	0.20108 0.05281 0.44582 -0.01800
C 	C 	0.22403 0.02764 0.42566 0.08200
C 	C 	0.85244 0.07976 0.96958 -0.03800
C 	C 	0.88826 0.05587 0.96996 -0.01800
C 	C 	0.91384 0.05145 0.99786 -0.00100
H 	H 	0.83212 0.08254 0.94811 0.04800
C 	C 	0.14770 0.05661 0.03114 -0.01600
C 	C 	0.29045 0.04586 0.97793 0.08900
C 	C 	0.11755 0.03107 0.05660 0.08200
C 	C 	0.01183 0.05227 0.00239 -0.06900
H 	H 	0.02993 0.07417 0.45708 0.06100
C 	C 	0.86693 0.07095 0.43483 -0.02100
C 	C 	0.87958 0.08746 0.48986 -0.03800
H 	H 	0.87640 0.10844 0.51072 0.04800
H 	H 	0.74199 0.06663 0.44739 0.05500
C 	C 	0.70216 0.01744 0.99589 0.08900
C 	C 	0.21400 0.08341 0.03245 -0.03800
C 	C 	0.11119 0.05529 0.00518 -0.00300
H 	H 	0.24197 0.08397 0.05229 0.05100
C 	C 	0.86380 0.09911 0.46197 0.00600
N 	N 	0.63608 0.10748 0.44149 -0.11400
C 	C 	0.24568 0.10951 0.46657 0.00500
C 	C 	0.15526 0.09674 0.48724 -0.01700
C 	C 	0.84193 0.09941 0.99680 0.00500
H 	H 	0.04284 0.10271 0.00571 0.05800
N 	N 	0.30846 0.09424 0.53811 -0.11300
C 	C 	0.77856 0.11660 0.45442 -0.06100
C 	C 	0.13330 0.11725 0.51048 0.08700
C 	C 	0.14218 0.08308 0.98137 -0.03400
C 	C 	0.85047 0.08186 0.40584 0.08400
C 	C 	0.33663 0.10900 0.99453 -0.04100
C 	C 	0.69084 0.12887 0.44834 0.07300
C 	C 	0.90516 0.07300 0.02513 -0.03700
H 	H 	0.41991 0.11818 0.98119 0.03400
C 	C 	0.22220 0.13175 0.48667 -0.03500
C 	C 	0.33054 0.11984 0.51843 0.09200
C 	C 	0.73437 0.08233 0.99449 -0.04300
C 	C 	0.24457 0.10981 0.00832 0.00600
H 	H 	0.11419 0.08233 0.96148 0.05200
C 	C 	0.84486 0.14167 0.46151 0.02600
C 	C 	0.31732 0.14516 0.46803 0.02800
C 	C 	0.80249 0.12293 0.99576 0.02800
N 	N 	0.11565 0.13362 0.52909 -0.10600
H 	H 	0.64487 0.07359 0.99048 0.03800
C 	C 	0.20868 0.11061 0.98287 -0.01900
C 	C 	0.75920 0.15559 0.45688 0.02700
N 	N 	0.83728 0.09063 0.38261 -0.11100
C 	C 	0.40343 0.14064 0.99435 0.01400
C 	C 	0.35806 0.15178 0.49386 -0.04200
H 	H 	0.31350 0.16756 0.42356 0.05700
C 	C 	0.86936 0.09696 0.02475 -0.01900
C 	C 	0.69734 0.10490 0.99166 0.01500
N 	N 	0.09335 0.01059 0.07697 -0.11100
H 	H 	0.92503 0.06976 0.04660 0.04900
C 	C 	0.31505 0.13933 0.01054 0.02800
C 	C 	0.34488 0.17328 0.44361 -0.05900
C 	C 	0.83293 0.18578 0.99459 -0.06300
H 	H 	0.25638 0.17542 0.50257 0.05200
O 	O 	0.64673 0.16906 0.95987 -0.42000
C 	C 	0.72769 0.16767 0.99015 -0.09000
C 	C 	0.23983 0.13960 0.95824 0.08700
C 	C 	0.68756 0.18977 0.98564 0.29300
C 	C 	0.42589 0.18885 0.49565 0.01100
H 	H 	0.88531 0.21688 0.99547 0.05500
N 	N 	0.26484 0.16283 0.93853 -0.11000
C 	C 	0.89249 0.20687 0.46954 -0.04200
C 	C 	0.41235 0.20722 0.44456 0.02500
H 	H 	0.45698 0.19552 0.51607 0.04900
C 	C 	0.79600 0.20833 0.99158 0.02800
C 	C 	0.86025 0.11822 0.05307 0.08500
C 	C 	0.80649 0.22040 0.46727 -0.08500
C 	C 	0.45382 0.21742 0.47128 -0.07700
C 	C 	0.43778 0.22802 0.41746 0.07200
C 	C 	0.89812 0.03541 0.94164 0.08200
C 	C 	0.44882 0.20211 0.01014 -0.08300
N 	N 	0.93515 0.03426 0.54340 -0.10800
N 	N 	0.85291 0.13526 0.07575 -0.11100
C 	C 	0.36080 0.19931 0.02782 -0.06200
N 	N 	0.90604 0.01898 0.91898 -0.10900
O 	O 	0.55395 0.22145 0.01502 -0.35700
Cu	Cu	0.65273 0.22636 0.93678 0.87800
N 	N 	0.24245 0.00750 0.40951 -0.11100
H 	H 	0.56490 0.22274 0.95686 0.16200
C 	C 	0.03937 0.00243 0.46632 0.03400
H 	H 	0.61338 0.22233 0.79586 0.03900
H 	H 	0.34426 0.22195 0.04077 0.05700
H 	H 	0.61750 0.23149 0.74201 0.04400
C 	C 	0.42752 0.23067 0.02790 0.03100
C 	C 	0.96127 0.23402 0.47523 0.08600
H 	H 	0.71909 0.23863 0.20587 0.04700
O 	O 	0.74527 0.24251 0.49577 -0.43200
O 	O 	0.70352 0.23940 0.00410 -0.36600
H 	H 	0.70677 0.24245 0.15126 0.04700
N 	N 	0.25341 0.99527 0.96464 -0.10900
H 	H 	0.54652 0.25166 0.69769 0.04600
H 	H 	0.56255 0.25548 0.64455 0.04500
N 	N 	0.67642 0.96546 0.99702 -0.11000
H 	H 	0.63402 0.24218 0.29903 0.04500
H 	H 	0.63926 0.24335 0.24466 0.04600
C 	C 	0.93932 0.99355 0.46500 0.04200
C 	C 	0.99944 0.95531 0.99680 -0.07800
C 	C 	0.93159 0.92195 0.99333 0.04300
C 	C 	0.90378 0.95362 0.99432 -0.06800
H 	H 	0.02089 0.93063 0.99584 0.06700
H 	H 	0.85113 0.92767 0.99148 0.06000
C 	C 	0.00653 0.94140 0.47164 -0.06100
C 	C 	0.94027 0.90635 0.47397 0.03500
C 	C 	0.90667 0.93264 0.47076 -0.07100
H 	H 	0.03266 0.92142 0.47430 0.05800
H 	H 	0.85581 0.90620 0.47306 0.05900
Cu	Cu	0.64603 0.26649 0.00634 0.92600
Cu	Cu	0.64237 0.33928 0.95969 0.91300
Cu	Cu	0.63219 0.37378 0.02271 0.90100
C 	C 	0.68074 0.32877 0.06874 0.31000
C 	C 	0.64167 0.30085 0.89941 0.30700
O 	O 	0.68119 0.35716 0.00139 -0.64100
O 	O 	0.61306 0.25313 0.96243 -0.63100
O 	O 	0.64643 0.34951 0.06160 -0.37400
O 	O 	0.67721 0.42429 0.95802 -0.37200
C 	C 	0.67946 0.46247 0.97966 0.29200
C 	C 	0.51700 0.23805 0.00585 0.28700
O 	O 	0.54292 0.29064 0.99608 -0.38600
O 	O 	0.64690 0.44214 0.00206 -0.37900
O 	O 	0.68742 0.29535 0.04826 -0.35800
O 	O 	0.61501 0.31931 0.91617 -0.37500
O 	O 	0.68153 0.29040 0.91242 -0.42500
H 	H 	0.72906 0.39004 0.00621 0.16800
Cu	Cu	0.76475 0.35193 0.46719 0.92900
Cu	Cu	0.76253 0.29949 0.53036 0.87400
Cu	Cu	0.65560 0.30458 0.50398 0.89900
Cu	Cu	0.63993 0.34574 0.44604 0.89800
C 	C 	0.71915 0.33815 0.40363 0.30700
O 	O 	0.80203 0.44331 0.47025 -0.35200
C 	C 	0.69769 0.32361 0.57015 0.30800
O 	O 	0.66249 0.29761 0.46218 -0.64000
O 	O 	0.75299 0.35427 0.50993 -0.64000
O 	O 	0.81231 0.31378 0.46832 -0.36500
O 	O 	0.68760 0.36092 0.41140 -0.37500
O 	O 	0.56118 0.25196 0.49496 -0.37600
C 	C 	0.52618 0.25790 0.47417 0.28800
C 	C 	0.76945 0.46420 0.47867 0.28300
O 	O 	0.70884 0.42471 0.48218 -0.38400
O 	O 	0.55444 0.30616 0.46024 -0.38000
O 	O 	0.75882 0.33700 0.42409 -0.35400
C 	C 	0.78644 0.25992 0.47701 0.28800
O 	O 	0.64858 0.29791 0.54693 -0.38500
O 	O 	0.75333 0.33388 0.56664 -0.41500
H 	H 	0.63713 0.25413 0.45105 0.17100
H 	H 	0.77602 0.39657 0.52213 0.17600
C 	C 	0.66453 0.33465 0.65641 -0.00700
C 	C 	0.60293 0.28973 0.66281 -0.02800
C 	C 	0.59389 0.28746 0.69290 -0.04100
C 	C 	0.64652 0.33008 0.71678 0.01100
C 	C 	0.70743 0.37671 0.71025 -0.04100
C 	C 	0.71636 0.37897 0.68015 -0.02800
C 	C 	0.63937 0.32282 0.74849 0.01100
C 	C 	0.62539 0.26887 0.75808 -0.04200
C 	C 	0.62321 0.26375 0.78858 -0.02800
C 	C 	0.63506 0.31249 0.80970 -0.00800
C 	C 	0.64767 0.36587 0.80009 -0.02700
C 	C 	0.64979 0.37104 0.76956 -0.04100
C 	C 	0.63719 0.30885 0.84142 0.05100
C 	C 	0.63884 0.30524 0.86790 -0.11000
C 	C 	0.67616 0.33142 0.62591 0.05000
C 	C 	0.68578 0.32863 0.60035 -0.10600
H 	H 	0.74833 0.40991 0.72852 0.04500
H 	H 	0.76407 0.41397 0.67536 0.04200
H 	H 	0.65670 0.40367 0.81631 0.04600
H 	H 	0.66032 0.41274 0.76236 0.04600
C 	C 	0.72805 0.33346 0.15852 -0.00300
C 	C 	0.72003 0.28167 0.16791 -0.02700
C 	C 	0.72683 0.27943 0.19882 -0.04000
C 	C 	0.74162 0.32899 0.22052 0.01200
C 	C 	0.75228 0.38189 0.21111 -0.04000
C 	C 	0.74554 0.38409 0.18021 -0.02800
C 	C 	0.74086 0.32355 0.25278 0.01200
C 	C 	0.68267 0.27744 0.26162 -0.04000
C 	C 	0.67968 0.27682 0.29241 -0.02800
C 	C 	0.73475 0.32228 0.31455 -0.00200
C 	C 	0.79366 0.36675 0.30578 -0.02700
C 	C 	0.79676 0.36739 0.27499 -0.04000
C 	C 	0.72909 0.32702 0.34600 0.05100
C 	C 	0.72462 0.33120 0.37237 -0.09100
C 	C 	0.71224 0.33213 0.12679 0.05100
C 	C 	0.69903 0.33114 0.10023 -0.09400
H 	H 	0.76376 0.42042 0.22768 0.04600
H 	H 	0.75197 0.42435 0.17312 0.04500
H 	H 	0.83652 0.40190 0.32279 0.04800
H 	H 	0.84207 0.40283 0.26840 0.04600
C 	C 	0.83118 0.73024 0.45812 -0.02000
C 	C 	0.85782 0.71802 0.48274 0.00600
C 	C 	0.90531 0.76728 0.50639 -0.03700
C 	C 	0.92820 0.82854 0.50508 -0.01600
C 	C 	0.90590 0.84140 0.47913 -0.00000
C 	C 	0.85590 0.79181 0.45627 -0.03600
C 	C 	0.83869 0.65421 0.48313 0.02600
C 	C 	0.85658 0.62804 0.46178 -0.05900
C 	C 	0.83543 0.56653 0.46030 0.02400
C 	C 	0.79861 0.53141 0.48156 -0.08100
C 	C 	0.78335 0.55879 0.50380 0.00900
C 	C 	0.80215 0.61938 0.50437 -0.04200
C 	C 	0.84851 0.53892 0.43585 0.08200
C 	C 	0.78207 0.64472 0.52625 0.09100
C 	C 	0.77857 0.67990 0.43471 0.08400
C 	C 	0.97418 0.87792 0.53051 0.08100
N 	N 	0.85897 0.51685 0.41623 -0.10400
N 	N 	0.76600 0.66505 0.54378 -0.11300
N 	N 	0.01103 0.91752 0.55086 -0.10200
N 	N 	0.73642 0.63953 0.41595 -0.11200
H 	H 	0.83757 0.80130 0.43660 0.04700
H 	H 	0.92482 0.75793 0.52569 0.05100
H 	H 	0.88522 0.65498 0.44562 0.05500
H 	H 	0.75525 0.53225 0.52019 0.03900
C 	C 	0.87309 0.24585 0.47239 0.00800
N 	N 	0.01636 0.25571 0.47979 -0.10900
H 	H 	0.90969 0.29572 0.47980 0.03700
N 	N 	0.45804 0.24460 0.39572 -0.11600
H 	H 	0.09959 0.97639 0.42898 0.05200
C 	C 	0.81179 0.62841 0.97490 -0.04300
C 	C 	0.77877 0.65541 0.97715 0.02800
C 	C 	0.71156 0.61774 0.97728 -0.06200
C 	C 	0.67772 0.55391 0.97681 0.03000
C 	C 	0.71169 0.52757 0.97651 -0.08100
C 	C 	0.77808 0.56467 0.97457 0.01200
C 	C 	0.81508 0.72356 0.98152 0.00600
C 	C 	0.82168 0.75171 0.95616 -0.03800
C 	C 	0.85887 0.81657 0.95978 -0.01600
C 	C 	0.88965 0.85363 0.98908 -0.00200
C 	C 	0.88194 0.82538 0.01446 -0.03400
C 	C 	0.84476 0.76059 0.01086 -0.01900
C 	C 	0.86588 0.84485 0.93334 0.08400
C 	C 	0.83772 0.73235 0.03731 0.08600
C 	C 	0.88056 0.66613 0.97356 0.09200
C 	C 	0.60801 0.51558 0.97594 0.08000
N 	N 	0.87153 0.86757 0.91219 -0.10700
N 	N 	0.83206 0.70967 0.05847 -0.11200
N 	N 	0.55218 0.48489 0.97524 -0.10500
N 	N 	0.93565 0.69640 0.97250 -0.11400
H 	H 	0.80390 0.54417 0.97367 0.03500
H 	H 	0.68593 0.63842 0.97833 0.05700
H 	H 	0.79855 0.72311 0.93362 0.05100
H 	H 	0.90543 0.85399 0.03700 0.05100
C 	C 	0.82817 0.27260 0.98875 0.06200
N 	N 	0.85394 0.32407 0.98647 -0.11800
C 	C 	0.47393 0.29193 0.04649 0.06500
N 	N 	0.51107 0.34098 0.06138 -0.11900
