data_crystal

_cell_length_a 24.74745
_cell_length_b 24.86928
_cell_length_c 34.80087
_cell_angle_alpha 95.50588
_cell_angle_beta  95.50832
_cell_angle_gamma 125.82018

_symmetry_space_group_name_	'P 1'
_symmetry_space_group_name_H-M	'P 1'

loop_
_symmetry_equiv_pos_as_xyz
  x,y,z

loop_
_atom_site_label
_atom_site_type_symbol
_atom_site_fract_x
_atom_site_fract_y
_atom_site_fract_z
_atom_site_charge
C 	C 	0.02132 0.06161 0.99649 -0.03600
C 	C 	0.05915 0.03638 0.00168 -0.01100
C 	C 	0.02549 0.96723 0.00130 -0.02900
H 	H 	0.04716 0.11515 0.99727 0.05000
H 	H 	0.05450 0.94763 0.00540 0.06000
C 	C 	0.05461 0.01845 0.45890 -0.01000
C 	C 	0.02287 0.04995 0.46059 -0.02800
H 	H 	0.04173 0.92463 0.45670 0.03900
H 	H 	0.05241 0.10389 0.46134 0.06200
O 	O 	0.15687 0.10706 0.43499 -0.21500
C 	C 	0.12788 0.05926 0.45940 0.12000
C 	C 	0.17256 0.07356 0.49272 -0.10400
H 	H 	0.15824 0.05144 0.51870 0.06200
O 	O 	0.17107 0.06665 0.03303 -0.21600
C 	C 	0.13410 0.08257 0.01046 0.12400
H 	H 	0.14995 0.13618 0.96152 0.06300
C 	C 	0.17147 0.13096 0.98826 -0.10700
C 	C 	0.01680 0.94876 0.45760 -0.04100
C 	C 	0.23021 0.13401 0.49241 0.02400
C 	C 	0.22116 0.15270 0.45788 0.11400
H 	H 	0.27097 0.20958 0.41319 0.06600
C 	C 	0.23428 0.14744 0.99581 0.02500
C 	C 	0.23311 0.10803 0.02154 0.11400
C 	C 	0.27734 0.20043 0.44251 -0.08700
C 	C 	0.29484 0.15851 0.51197 -0.09400
H 	H 	0.30105 0.13516 0.53500 0.06800
C 	C 	0.28041 0.17207 0.96990 -0.09600
C 	C 	0.27965 0.09299 0.02300 -0.08300
H 	H 	0.28108 0.20308 0.94984 0.06800
H 	H 	0.27895 0.06187 0.04298 0.06600
C 	C 	0.35128 0.21060 0.49859 0.11700
C 	C 	0.34213 0.23262 0.46525 0.00800
C 	C 	0.32745 0.15759 0.97184 0.11900
C 	C 	0.32415 0.11572 0.99627 0.00300
C 	C 	0.39945 0.26098 0.45078 -0.05900
C 	C 	0.38506 0.12808 0.00227 -0.05200
H 	H 	0.40315 0.26665 0.42045 0.05500
O 	O 	0.39024 0.19898 0.96089 -0.19200
O 	O 	0.41480 0.22475 0.50756 -0.18800
H 	H 	0.40534 0.11882 0.02767 0.05700
C 	C 	0.42394 0.17744 0.98109 0.03800
C 	C 	0.95015 0.01784 0.99139 -0.00600
C 	C 	0.95469 0.92354 0.99662 -0.01200
C 	C 	0.91704 0.94862 0.99120 -0.04000
H 	H 	0.86211 0.91419 0.98634 0.04200
C 	C 	0.95375 0.01264 0.46230 -0.00800
C 	C 	0.91572 0.94262 0.46103 -0.03500
C 	C 	0.94673 0.91025 0.45744 -0.01000
H 	H 	0.86233 0.91345 0.46263 0.05100
Cu	Cu	0.62506 0.22932 0.99800 0.92700
Cu	Cu	0.67804 0.24191 0.91415 0.86700
Cu	Cu	0.65808 0.33951 0.95103 0.89500
Cu	Cu	0.62490 0.35188 0.03066 0.89400
C 	C 	0.65102 0.27650 0.08100 0.29600
O 	O 	0.52663 0.18820 0.99976 -0.35300
C 	C 	0.64385 0.30761 0.86523 0.29400
O 	O 	0.67819 0.33448 0.00458 -0.64000
O 	O 	0.61387 0.24043 0.94288 -0.64100
O 	O 	0.66558 0.18017 0.99140 -0.34900
O 	O 	0.74059 0.25414 0.95669 -0.43300
O 	O 	0.61721 0.30145 0.07374 -0.38100
O 	O 	0.70761 0.43662 0.96165 -0.37200
C 	C 	0.71047 0.47133 0.99402 0.25000
C 	C 	0.49812 0.21608 0.98754 0.25000
O 	O 	0.53602 0.28024 0.98505 -0.36600
O 	O 	0.66404 0.44211 0.01621 -0.36500
O 	O 	0.65054 0.23627 0.05302 -0.35900
C 	C 	0.72156 0.20634 0.97725 0.25800
O 	O 	0.64160 0.34274 0.89525 -0.37900
O 	O 	0.63797 0.25208 0.86837 -0.41900
H 	H 	0.72716 0.36363 0.01632 0.16200
H 	H 	0.56669 0.21227 0.92794 0.17800
Cu	Cu	0.74505 0.34203 0.45059 0.92900
Cu	Cu	0.73897 0.29093 0.53426 0.86700
Cu	Cu	0.64014 0.31258 0.50101 0.89700
Cu	Cu	0.61581 0.33368 0.41989 0.89400
C 	C 	0.69206 0.31137 0.36808 0.29900
O 	O 	0.78110 0.43843 0.44754 -0.34000
C 	C 	0.67634 0.32516 0.58584 0.29500
O 	O 	0.63931 0.28595 0.44712 -0.63900
O 	O 	0.73885 0.35506 0.50639 -0.64100
O 	O 	0.79667 0.30435 0.45637 -0.36200
O 	O 	0.72386 0.22818 0.49091 -0.42200
O 	O 	0.66531 0.34311 0.37596 -0.38100
O 	O 	0.54335 0.26519 0.49388 -0.36400
C 	C 	0.50805 0.27515 0.46876 0.26000
C 	C 	0.75049 0.46417 0.45946 0.25000
O 	O 	0.68723 0.42383 0.46419 -0.38800
O 	O 	0.52448 0.29009 0.43421 -0.38400
O 	O 	0.73460 0.31385 0.39550 -0.36000
C 	C 	0.76969 0.24713 0.46876 0.26000
O 	O 	0.64261 0.33203 0.55738 -0.37800
O 	O 	0.73156 0.33063 0.58139 -0.41700
H 	H 	0.61049 0.23654 0.43745 0.16800
H 	H 	0.76851 0.40230 0.52094 0.17600
C 	C 	0.64082 0.32395 0.82597 -0.10800
C 	C 	0.70067 0.37408 0.81348 0.12100
C 	C 	0.69871 0.37835 0.77350 -0.09500
C 	C 	0.63787 0.33450 0.74616 0.00000
C 	C 	0.57679 0.28948 0.75940 0.05900
C 	C 	0.57904 0.28382 0.79918 -0.02000
N 	N 	0.76022 0.41740 0.83952 -0.20400
H 	H 	0.74511 0.41424 0.76342 0.05600
C 	C 	0.64047 0.32908 0.70373 0.00100
N 	N 	0.51610 0.25161 0.73409 -0.19200
H 	H 	0.53286 0.24695 0.80911 0.04300
C 	C 	0.63854 0.27551 0.68475 -0.09400
C 	C 	0.64618 0.27126 0.64541 0.12100
C 	C 	0.65919 0.32343 0.62530 -0.10700
C 	C 	0.65895 0.37592 0.64385 -0.02000
C 	C 	0.64881 0.37882 0.68282 0.06000
H 	H 	0.63094 0.23687 0.70067 0.05600
N 	N 	0.63962 0.21643 0.62693 -0.20100
H 	H 	0.66755 0.41510 0.62812 0.04600
N 	N 	0.64663 0.42896 0.69979 -0.19200
H 	H 	0.63246 0.17940 0.64242 0.08100
H 	H 	0.63871 0.20851 0.59679 0.06500
H 	H 	0.65436 0.46633 0.68443 0.08500
H 	H 	0.63553 0.43045 0.72790 0.09000
H 	H 	0.47144 0.21682 0.74379 0.08500
H 	H 	0.51235 0.25801 0.70498 0.09000
H 	H 	0.76283 0.41738 0.86963 0.07800
H 	H 	0.80454 0.45305 0.82984 0.08300
C 	C 	0.67311 0.27832 0.12234 -0.10400
C 	C 	0.70991 0.33920 0.15033 0.12200
C 	C 	0.71651 0.33694 0.19053 -0.09400
C 	C 	0.69094 0.27564 0.20307 0.00100
C 	C 	0.66110 0.21601 0.17495 0.06100
C 	C 	0.65126 0.21765 0.13478 -0.02100
N 	N 	0.74010 0.39988 0.13880 -0.20200
H 	H 	0.74134 0.38297 0.21214 0.05900
C 	C 	0.69010 0.27356 0.24542 0.00100
N 	N 	0.64211 0.15731 0.18630 -0.19200
H 	H 	0.62496 0.17129 0.11327 0.05400
C 	C 	0.62878 0.24637 0.25869 -0.09400
C 	C 	0.62760 0.25214 0.29905 0.12300
C 	C 	0.68946 0.28971 0.32651 -0.10400
C 	C 	0.75020 0.31298 0.31330 -0.02000
C 	C 	0.75087 0.30401 0.27293 0.06200
H 	H 	0.58192 0.22102 0.23752 0.05900
N 	N 	0.56705 0.22046 0.31125 -0.20200
H 	H 	0.79737 0.33982 0.33438 0.05400
N 	N 	0.80973 0.32446 0.26081 -0.19200
H 	H 	0.52178 0.19530 0.29084 0.08500
H 	H 	0.56405 0.21749 0.34078 0.07400
H 	H 	0.85484 0.34889 0.28126 0.08800
H 	H 	0.81086 0.31422 0.23121 0.09000
H 	H 	0.61812 0.11300 0.16542 0.08800
H 	H 	0.65304 0.15557 0.21568 0.09000
H 	H 	0.74254 0.40388 0.10932 0.07300
H 	H 	0.76466 0.44433 0.15963 0.08500
C 	C 	0.81638 0.61898 0.43008 0.11800
C 	C 	0.86274 0.67784 0.41634 -0.09600
C 	C 	0.86113 0.73310 0.42508 0.02700
C 	C 	0.82367 0.73418 0.45171 0.11100
C 	C 	0.78145 0.67691 0.46806 -0.08600
C 	C 	0.77484 0.61812 0.45405 0.00600
O 	O 	0.82331 0.56764 0.43151 -0.18800
C 	C 	0.78124 0.53535 0.45841 0.04000
C 	C 	0.75461 0.56695 0.47318 -0.06000
O 	O 	0.84866 0.79881 0.47001 -0.21700
C 	C 	0.90544 0.83602 0.45243 0.12100
C 	C 	0.91286 0.79738 0.42551 -0.10600
H 	H 	0.90075 0.68156 0.40120 0.06900
H 	H 	0.75795 0.67931 0.49222 0.06500
H 	H 	0.71368 0.54585 0.48958 0.05200
H 	H 	0.95881 0.81418 0.41447 0.06100
C 	C 	0.91690 0.12992 0.46858 0.11500
C 	C 	0.92422 0.18829 0.48420 -0.08600
C 	C 	0.86563 0.18515 0.48204 0.00500
C 	C 	0.80271 0.12767 0.46392 0.11700
C 	C 	0.79555 0.06934 0.44791 -0.09300
C 	C 	0.85449 0.07292 0.44955 0.02300
O 	O 	0.96341 0.11810 0.48091 -0.21600
C 	C 	0.92286 0.04819 0.46742 0.12000
C 	C 	0.85714 0.02066 0.44981 -0.09800
O 	O 	0.75600 0.13956 0.45176 -0.19200
C 	C 	0.79799 0.20997 0.46313 0.03500
C 	C 	0.86364 0.23738 0.48018 -0.05900
H 	H 	0.97348 0.23394 0.49825 0.06500
H 	H 	0.74636 0.02372 0.43375 0.06800
H 	H 	0.82129 0.97106 0.43155 0.05700
H 	H 	0.90088 0.28829 0.49663 0.04300
C 	C 	0.44207 0.25598 0.47608 0.04200
C 	C 	0.81368 0.64785 0.02896 0.11400
C 	C 	0.82315 0.70891 0.04041 -0.09200
C 	C 	0.87610 0.76655 0.02841 0.02200
C 	C 	0.91173 0.76242 0.00167 0.11800
C 	C 	0.89794 0.70012 0.98736 -0.09400
C 	C 	0.85223 0.64458 0.00397 0.01500
O 	O 	0.75324 0.58562 0.02947 -0.19100
C 	C 	0.75851 0.54531 0.00160 0.04900
C 	C 	0.81720 0.57974 0.98645 -0.07000
O 	O 	0.94210 0.81581 0.98150 -0.21700
C 	C 	0.92018 0.85168 0.99828 0.12000
C 	C 	0.87916 0.82146 0.02527 -0.10200
H 	H 	0.78793 0.71041 0.05584 0.06800
H 	H 	0.91923 0.69442 0.96289 0.06600
H 	H 	0.82454 0.56173 0.95928 0.05500
H 	H 	0.86522 0.84489 0.04584 0.06000
C 	C 	0.86898 0.08899 0.95844 0.11100
C 	C 	0.86676 0.14133 0.94882 -0.08500
C 	C 	0.81081 0.13952 0.95581 0.00100
C 	C 	0.76540 0.09510 0.97704 0.11800
C 	C 	0.77181 0.04727 0.99030 -0.09800
C 	C 	0.82076 0.04177 0.97748 0.02600
O 	O 	0.92784 0.09309 0.96179 -0.21500
C 	C 	0.91030 0.04417 0.98502 0.11900
C 	C 	0.84695 0.01394 0.99474 -0.10200
O 	O 	0.72929 0.11497 0.99351 -0.18800
C 	C 	0.75747 0.17575 0.97989 0.03200
C 	C 	0.80819 0.19198 0.95886 -0.05800
H 	H 	0.90827 0.18312 0.93810 0.06300
H 	H 	0.74156 0.01727 0.01074 0.07100
H 	H 	0.82986 0.98681 0.01875 0.05800
H 	H 	0.82947 0.23042 0.94084 0.04300
