data_crystal

_cell_length_a 23.28350
_cell_length_b 23.51118
_cell_length_c 35.06578
_cell_angle_alpha 95.48410
_cell_angle_beta  95.48314
_cell_angle_gamma 125.93055

_symmetry_space_group_name_	'P 1'
_symmetry_space_group_name_H-M	'P 1'

loop_
_symmetry_equiv_pos_as_xyz
  x,y,z

loop_
_atom_site_label
_atom_site_type_symbol
_atom_site_fract_x
_atom_site_fract_y
_atom_site_fract_z
_atom_site_charge
C 	C 	0.02562 0.98083 0.46510 0.03000
H 	H 	0.01939 0.06842 0.46256 0.04800
H 	H 	0.01532 0.88383 0.46637 0.04900
C 	C 	0.03409 0.98933 0.98870 -0.09100
C 	C 	0.04047 0.09664 0.99270 -0.08800
H 	H 	0.05988 0.96325 0.98604 0.05300
C 	C 	0.96762 0.05670 0.99632 0.05300
C 	C 	0.92829 0.98325 0.99619 -0.09100
C 	C 	0.96153 0.94965 0.99236 0.05300
C 	C 	0.07377 0.06285 0.98882 0.04100
H 	H 	0.87191 0.95232 0.99889 0.05500
H 	H 	0.07098 0.15350 0.99275 0.05300
C 	C 	0.91353 0.96791 0.45602 0.03500
C 	C 	0.98911 0.01122 0.46131 -0.06600
C 	C 	0.98681 0.90720 0.46349 -0.07200
C 	C 	0.91140 0.86349 0.45817 0.04000
C 	C 	0.87441 0.89374 0.45445 -0.07800
H 	H 	0.81597 0.86005 0.45050 0.05100
Cu	Cu	0.63696 0.25326 0.00382 0.92700
Cu	Cu	0.69152 0.25658 0.92064 0.86900
Cu	Cu	0.68275 0.37034 0.95588 0.89700
Cu	Cu	0.64632 0.38903 0.03348 0.89400
C 	C 	0.65868 0.30223 0.08603 0.29800
O 	O 	0.53292 0.21553 0.00373 -0.36700
C 	C 	0.65613 0.32383 0.87004 0.29700
O 	O 	0.70009 0.36507 0.00949 -0.64200
O 	O 	0.62843 0.26438 0.94882 -0.64100
O 	O 	0.67814 0.19926 0.99925 -0.37300
O 	O 	0.75897 0.27371 0.96367 -0.44300
O 	O 	0.63005 0.33503 0.07705 -0.38800
O 	O 	0.74082 0.47347 0.96631 -0.38600
C 	C 	0.73535 0.51290 0.99304 0.29500
C 	C 	0.50825 0.24943 0.99074 0.30300
O 	O 	0.55354 0.31633 0.98727 -0.39700
O 	O 	0.69234 0.48484 0.01867 -0.39800
O 	O 	0.66073 0.26073 0.05886 -0.36400
C 	C 	0.73918 0.22686 0.98666 0.28800
O 	O 	0.68170 0.37658 0.89994 -0.38900
O 	O 	0.64757 0.26449 0.87478 -0.42300
H 	H 	0.75173 0.39363 0.02179 0.16200
H 	H 	0.57845 0.23729 0.93403 0.17100
Cu	Cu	0.72119 0.30233 0.44932 0.92500
Cu	Cu	0.73668 0.26246 0.53507 0.87000
Cu	Cu	0.61578 0.26710 0.50525 0.89600
Cu	Cu	0.58020 0.29140 0.42539 0.89400
C 	C 	0.66950 0.28987 0.36928 0.29800
O 	O 	0.76304 0.40568 0.44638 -0.37100
C 	C 	0.68028 0.30571 0.58943 0.29600
O 	O 	0.60996 0.24333 0.45053 -0.63800
O 	O 	0.72152 0.31936 0.50572 -0.64200
O 	O 	0.77204 0.25696 0.45046 -0.37200
O 	O 	0.70834 0.18802 0.49346 -0.44200
O 	O 	0.60896 0.28014 0.37475 -0.38800
O 	O 	0.51206 0.21110 0.50069 -0.38200
C 	C 	0.46968 0.21554 0.47533 0.29000
C 	C 	0.72964 0.43290 0.45628 0.28200
O 	O 	0.66474 0.39142 0.46414 -0.39500
O 	O 	0.49620 0.26135 0.45124 -0.39700
O 	O 	0.70245 0.27395 0.39393 -0.36800
C 	C 	0.74819 0.20056 0.46676 0.28600
O 	O 	0.62122 0.27408 0.56242 -0.38900
O 	O 	0.73853 0.31403 0.58113 -0.42200
H 	H 	0.58007 0.19126 0.44026 0.16500
H 	H 	0.75058 0.37041 0.51824 0.17100
C 	C 	0.67618 0.31860 0.63084 -0.11300
C 	C 	0.64860 0.35567 0.64361 0.12600
C 	C 	0.63900 0.36031 0.68248 -0.09900
C 	C 	0.66049 0.33252 0.70922 0.00100
C 	C 	0.69024 0.29752 0.69674 0.05600
C 	C 	0.69749 0.29073 0.65764 -0.02300
N 	N 	0.63392 0.38913 0.61929 -0.20200
H 	H 	0.61683 0.38762 0.69224 0.05500
C 	C 	0.65243 0.34101 0.75037 -0.00000
N 	N 	0.71155 0.27000 0.72204 -0.19200
H 	H 	0.71875 0.26252 0.64788 0.03100
C 	C 	0.58940 0.28626 0.76182 -0.09800
C 	C 	0.58656 0.28391 0.80153 0.12500
C 	C 	0.64860 0.33628 0.83002 -0.11300
C 	C 	0.70842 0.39534 0.81867 -0.02500
C 	C 	0.71085 0.39840 0.77899 0.05700
H 	H 	0.54348 0.24397 0.73980 0.05500
N 	N 	0.52417 0.23189 0.81211 -0.20300
H 	H 	0.75485 0.43708 0.84063 0.04100
N 	N 	0.76988 0.45559 0.76859 -0.19200
H 	H 	0.47939 0.19176 0.79093 0.08100
H 	H 	0.51852 0.23260 0.84131 0.08600
H 	H 	0.81373 0.49669 0.78989 0.08000
H 	H 	0.77210 0.46077 0.73943 0.08600
H 	H 	0.73358 0.24442 0.71251 0.07600
H 	H 	0.70651 0.27349 0.75126 0.08400
H 	H 	0.64862 0.39428 0.59191 0.08500
H 	H 	0.61077 0.41374 0.62847 0.08300
C 	C 	0.66849 0.29508 0.12696 -0.10600
C 	C 	0.73824 0.33130 0.14987 0.12100
C 	C 	0.74538 0.32972 0.18995 -0.09600
C 	C 	0.68424 0.29224 0.20729 -0.00000
C 	C 	0.61441 0.25352 0.18398 0.06000
C 	C 	0.60736 0.25541 0.14401 -0.02100
N 	N 	0.79841 0.36823 0.13379 -0.20400
H 	H 	0.79872 0.35866 0.20782 0.05500
C 	C 	0.69402 0.29816 0.25025 0.00000
N 	N 	0.55407 0.21500 0.19979 -0.19200
H 	H 	0.55399 0.22685 0.12621 0.04600
C 	C 	0.69986 0.35411 0.27322 -0.09600
C 	C 	0.69787 0.35546 0.31317 0.12200
C 	C 	0.68798 0.29866 0.33010 -0.10600
C 	C 	0.68778 0.24568 0.30779 -0.02300
C 	C 	0.69132 0.24518 0.26798 0.05900
H 	H 	0.70432 0.39589 0.25978 0.05500
N 	N 	0.70617 0.41160 0.33514 -0.20400
H 	H 	0.68218 0.20323 0.32104 0.04800
N 	N 	0.69090 0.19323 0.24689 -0.19200
H 	H 	0.71154 0.45237 0.32222 0.08200
H 	H 	0.70989 0.41665 0.36533 0.08500
H 	H 	0.68707 0.15330 0.25999 0.08300
H 	H 	0.69592 0.19277 0.21762 0.08800
H 	H 	0.50283 0.18723 0.18239 0.08300
H 	H 	0.55717 0.21159 0.22928 0.08800
H 	H 	0.79503 0.36966 0.10404 0.08200
H 	H 	0.84969 0.39552 0.15106 0.08200
C 	C 	0.81610 0.65153 0.45630 0.03800
C 	C 	0.83716 0.61837 0.43213 -0.07100
C 	C 	0.81173 0.54796 0.43337 0.01300
C 	C 	0.87284 0.78775 0.45693 -0.02300
C 	C 	0.74513 0.54416 0.48352 0.01500
C 	C 	0.77067 0.61450 0.48225 -0.07200
C 	C 	0.84533 0.72526 0.45641 -0.02300
C 	C 	0.76471 0.51006 0.45870 -0.09500
H 	H 	0.87316 0.64706 0.41238 0.04700
H 	H 	0.82722 0.52245 0.41401 0.03100
H 	H 	0.70956 0.51592 0.50353 0.02800
H 	H 	0.75517 0.64018 0.50151 0.04600
C 	C 	0.81979 0.07024 0.44992 0.03800
C 	C 	0.86164 0.14013 0.44250 -0.07100
C 	C 	0.83671 0.18170 0.44596 0.01400
C 	C 	0.87682 0.00038 0.45310 -0.01900
C 	C 	0.72647 0.08240 0.46259 0.01300
C 	C 	0.75155 0.04102 0.45916 -0.07000
C 	C 	0.84953 0.03094 0.45126 -0.02400
C 	C 	0.76976 0.15369 0.45705 -0.09600
H 	H 	0.91435 0.16301 0.43514 0.04700
H 	H 	0.87063 0.23640 0.44145 0.03200
H 	H 	0.67413 0.05957 0.47044 0.02800
H 	H 	0.71862 0.98688 0.46464 0.04300
C 	C 	0.24485 0.10166 0.47776 0.04100
C 	C 	0.27940 0.07041 0.48620 -0.07200
C 	C 	0.35345 0.10841 0.48662 0.01700
C 	C 	0.10303 0.02491 0.47005 -0.01800
C 	C 	0.35882 0.20978 0.47124 0.01800
C 	C 	0.28488 0.17173 0.47086 -0.07300
C 	C 	0.16775 0.06037 0.47386 -0.02600
C 	C 	0.39327 0.17783 0.47843 -0.09100
H 	H 	0.24870 0.01623 0.49167 0.04700
H 	H 	0.37937 0.08321 0.49226 0.02900
H 	H 	0.38917 0.26381 0.46559 0.03100
H 	H 	0.25853 0.19633 0.46456 0.04700
C 	C 	0.84958 0.73617 0.99208 0.04000
C 	C 	0.78367 0.69842 0.00500 -0.07300
C 	C 	0.74629 0.62550 0.00531 0.01600
C 	C 	0.92130 0.87435 0.99226 -0.02800
C 	C 	0.84082 0.62787 0.97967 0.01800
C 	C 	0.87806 0.70081 0.97939 -0.07100
C 	C 	0.88834 0.81132 0.99216 -0.02000
C 	C 	0.77472 0.58980 0.99269 -0.08900
H 	H 	0.76135 0.72552 0.01479 0.04700
H 	H 	0.69501 0.59669 0.01504 0.03100
H 	H 	0.86364 0.60117 0.97013 0.03000
H 	H 	0.92915 0.72984 0.96943 0.04700
C 	C 	0.86256 0.14721 0.00228 0.03500
C 	C 	0.89680 0.21853 0.99843 -0.07000
C 	C 	0.85720 0.24567 0.99530 0.01400
C 	C 	0.93241 0.09041 0.99906 -0.02500
C 	C 	0.74941 0.13094 0.00151 0.01300
C 	C 	0.78918 0.10393 0.00465 -0.07100
C 	C 	0.90122 0.11694 0.00089 -0.02300
C 	C 	0.78281 0.20145 0.99577 -0.09400
H 	H 	0.95368 0.25249 0.99694 0.04600
H 	H 	0.88399 0.30058 0.99166 0.02800
H 	H 	0.69220 0.09627 0.00210 0.03200
H 	H 	0.76247 0.04881 0.00788 0.04700
C 	C 	0.29641 0.16623 0.98528 -0.00600
C 	C 	0.24370 0.11897 0.95229 -0.03500
C 	C 	0.17103 0.08826 0.95257 -0.03900
C 	C 	0.43309 0.21830 0.98767 -0.11300
C 	C 	0.20390 0.15405 0.01836 -0.04000
C 	C 	0.27655 0.18480 0.01801 -0.03600
C 	C 	0.37057 0.19404 0.98611 0.04400
C 	C 	0.15068 0.10445 0.98595 -0.00300
H 	H 	0.25878 0.10493 0.92674 0.03700
H 	H 	0.13034 0.05026 0.92734 0.03800
H 	H 	0.18874 0.16683 0.04427 0.03800
H 	H 	0.31716 0.22185 0.04350 0.03700
