data_crystal

_cell_length_a 21.38344
_cell_length_b 21.33216
_cell_length_c 48.92384
_cell_angle_alpha 89.91377
_cell_angle_beta  89.91229
_cell_angle_gamma 119.81229

_symmetry_space_group_name_	'P 1'
_symmetry_space_group_name_H-M	'P 1'

loop_
_symmetry_equiv_pos_as_xyz
  x,y,z

loop_
_atom_site_label
_atom_site_type_symbol
_atom_site_fract_x
_atom_site_fract_y
_atom_site_fract_z
_atom_site_charge
C 	C 	0.83910 0.38111 0.93049 0.28100
C 	C 	0.60006 0.31674 0.85163 0.27600
C 	C 	0.76888 0.49519 0.89929 0.28100
C 	C 	0.65833 0.18879 0.88036 0.25400
C 	C 	0.56426 0.36915 0.93748 0.30100
C 	C 	0.61037 0.22842 0.96182 0.27800
Ni	Ni	0.73867 0.35034 0.88001 1.11200
Ni	Ni	0.57764 0.25656 0.90648 1.11900
Ni	Ni	0.70372 0.38074 0.94152 1.11900
O 	O 	0.83392 0.39192 0.90380 -0.36700
O 	O 	0.78347 0.35819 0.94730 -0.38800
O 	O 	0.53245 0.29999 0.93123 -0.37800
O 	O 	0.66111 0.31641 0.84893 -0.35900
O 	O 	0.57632 0.31943 0.87597 -0.38000
O 	O 	0.63577 0.29845 0.96696 -0.38300
O 	O 	0.74383 0.44965 0.87891 -0.36900
O 	O 	0.77906 0.47438 0.92337 -0.37800
O 	O 	0.57669 0.19842 0.93866 -0.38200
O 	O 	0.72313 0.24673 0.87753 -0.36400
O 	O 	0.59869 0.19417 0.88000 -0.36700
O 	O 	0.63226 0.41109 0.93196 -0.39600
O 	O 	0.67886 0.31805 0.91120 -0.71300
H 	H 	0.69170 0.28290 0.91846 0.15700
C 	C 	0.55169 0.40812 0.57560 0.28500
C 	C 	0.75052 0.36591 0.65009 0.28000
C 	C 	0.74194 0.53034 0.59593 0.28100
C 	C 	0.55924 0.23380 0.63428 0.25700
C 	C 	0.81018 0.39082 0.56162 0.30400
C 	C 	0.61726 0.24251 0.54683 0.27800
Ni	Ni	0.63870 0.39380 0.62403 1.11300
Ni	Ni	0.69463 0.28880 0.59906 1.12000
Ni	Ni	0.68063 0.40092 0.56015 1.12000
O 	O 	0.57682 0.42766 0.60104 -0.36600
O 	O 	0.57737 0.37768 0.55884 -0.38600
O 	O 	0.77369 0.32335 0.57020 -0.38100
O 	O 	0.69218 0.37017 0.65467 -0.36300
O 	O 	0.76858 0.36049 0.62506 -0.38000
O 	O 	0.65928 0.31054 0.53827 -0.38100
O 	O 	0.73225 0.49113 0.61778 -0.36900
O 	O 	0.70408 0.50093 0.57371 -0.37500
O 	O 	0.62651 0.22062 0.57115 -0.38300
O 	O 	0.55296 0.29263 0.63287 -0.36500
O 	O 	0.62267 0.23676 0.63057 -0.36800
O 	O 	0.78479 0.43440 0.56535 -0.39500
O 	O 	0.65382 0.34931 0.59356 -0.71500
H 	H 	0.60390 0.31228 0.58933 0.16100
C 	C 	0.94063 0.12208 0.73748 0.24800
C 	C 	0.94568 0.87022 0.78388 0.26400
C 	C 	0.92946 0.05621 0.80269 0.28300
C 	C 	0.94277 0.90966 0.70407 0.25700
C 	C 	0.14921 0.06557 0.79193 0.27900
C 	C 	0.15598 0.10984 0.71958 0.26600
Ni	Ni	0.90655 0.96662 0.75402 1.10800
Ni	Ni	0.06026 0.97115 0.74628 1.12200
Ni	Ni	0.05900 0.11390 0.76519 1.12200
O 	O 	0.89094 0.05405 0.74370 -0.36700
O 	O 	0.01062 0.14408 0.73677 -0.36300
O 	O 	0.14824 0.03045 0.76965 -0.38000
O 	O 	0.90085 0.87040 0.76566 -0.36800
O 	O 	0.01541 0.90650 0.77937 -0.35800
O 	O 	0.14826 0.14402 0.74118 -0.37300
O 	O 	0.91460 0.99193 0.79496 -0.38000
O 	O 	0.98455 0.11391 0.79189 -0.37800
O 	O 	0.11422 0.03929 0.71567 -0.38000
O 	O 	0.89890 0.93137 0.71394 -0.36500
O 	O 	0.98408 0.89643 0.72067 -0.37500
O 	O 	0.09980 0.08400 0.79614 -0.37600
O 	O 	0.00665 0.02056 0.74949 -0.70900
H 	H 	0.00751 0.03463 0.73025 0.16100
C 	C 	0.42142 0.77421 0.35235 0.26100
C 	C 	0.23152 0.49597 0.40539 0.28000
C 	C 	0.23684 0.63560 0.33639 0.28000
C 	C 	0.41225 0.62463 0.43014 0.28700
C 	C 	0.15483 0.64376 0.41912 0.30300
C 	C 	0.34313 0.79921 0.43580 0.27800
Ni	Ni	0.34202 0.62234 0.37384 1.11300
Ni	Ni	0.28269 0.63765 0.43278 1.12000
Ni	Ni	0.27990 0.73253 0.38298 1.12000
O 	O 	0.42881 0.72119 0.36319 -0.36800
O 	O 	0.35862 0.77397 0.35296 -0.36800
O 	O 	0.18084 0.60040 0.42164 -0.39300
O 	O 	0.24785 0.52613 0.38118 -0.36800
O 	O 	0.26245 0.53414 0.42740 -0.37500
O 	O 	0.34047 0.81144 0.40930 -0.38000
O 	O 	0.29637 0.63197 0.33733 -0.36300
O 	O 	0.21264 0.65067 0.35850 -0.37900
O 	O 	0.29864 0.73485 0.44705 -0.38100
O 	O 	0.39839 0.60006 0.40442 -0.36700
O 	O 	0.38473 0.66269 0.44067 -0.38600
O 	O 	0.19387 0.70767 0.40766 -0.37700
O 	O 	0.31874 0.67650 0.39774 -0.71600
H 	H 	0.36722 0.71565 0.40261 0.16400
C 	C 	0.34480 0.76669 0.14144 0.25600
C 	C 	0.25776 0.47878 0.10073 0.28000
C 	C 	0.39811 0.63120 0.16558 0.27800
C 	C 	0.19705 0.60205 0.07434 0.28400
C 	C 	0.47668 0.62573 0.08126 0.30200
C 	C 	0.43675 0.77596 0.06242 0.28100
Ni	Ni	0.27270 0.60838 0.12990 1.11300
Ni	Ni	0.33971 0.61551 0.06967 1.12000
Ni	Ni	0.44314 0.71889 0.11627 1.12000
O 	O 	0.28122 0.70682 0.13960 -0.36000
O 	O 	0.40548 0.76401 0.14444 -0.36900
O 	O 	0.40747 0.58140 0.08051 -0.39500
O 	O 	0.27014 0.51069 0.12457 -0.36700
O 	O 	0.25912 0.51346 0.07834 -0.37600
O 	O 	0.45656 0.79276 0.08825 -0.38300
O 	O 	0.33384 0.62530 0.16548 -0.35600
O 	O 	0.43374 0.64228 0.14274 -0.38100
O 	O 	0.41692 0.71038 0.05254 -0.38300
O 	O 	0.19006 0.58062 0.10050 -0.36300
O 	O 	0.26075 0.63846 0.06234 -0.38600
O 	O 	0.50221 0.69082 0.09172 -0.37900
O 	O 	0.34658 0.65903 0.10397 -0.71200
H 	H 	0.33522 0.69658 0.09842 0.15700
C 	C 	0.09002 0.93900 0.21332 0.26300
C 	C 	0.05471 0.11589 0.29648 0.28400
C 	C 	0.08226 0.90987 0.27647 0.27900
C 	C 	0.05902 0.13620 0.21593 0.28400
C 	C 	0.85793 0.91280 0.28839 0.27300
C 	C 	0.83550 0.90344 0.22444 0.26400
Ni	Ni	0.10212 0.05036 0.25293 1.10800
Ni	Ni	0.94364 0.03874 0.25384 1.11000
Ni	Ni	0.95409 0.89225 0.24857 1.10900
O 	O 	0.11259 0.00870 0.21620 -0.37400
O 	O 	0.02259 0.88787 0.21964 -0.36000
O 	O 	0.90230 0.98286 0.28836 -0.39400
O 	O 	0.09055 0.08176 0.29195 -0.36400
O 	O 	0.01673 0.12268 0.27681 -0.36600
O 	O 	0.88285 0.88196 0.21979 -0.38500
O 	O 	0.12909 0.97724 0.27042 -0.36900
O 	O 	0.01438 0.88995 0.27975 -0.37100
O 	O 	0.85651 0.97167 0.23073 -0.37900
O 	O 	0.10500 0.14100 0.23503 -0.36600
O 	O 	0.98901 0.10500 0.22120 -0.38600
O 	O 	0.87600 0.86777 0.27703 -0.37700
O 	O 	0.00134 0.99490 0.24626 -0.69700
H 	H 	0.00031 0.99761 0.22615 0.15800
C 	C 	0.15643 0.21015 0.15387 0.08200
C 	C 	0.22015 0.26246 0.14125 -0.08400
C 	C 	0.21432 0.29960 0.11859 0.01500
C 	C 	0.14811 0.29214 0.11115 0.07600
C 	C 	0.08519 0.24518 0.12570 -0.07500
C 	C 	0.08979 0.20071 0.14580 0.00300
N 	N 	0.15373 0.19049 0.18019 -0.15000
C 	C 	0.08668 0.17041 0.18919 -0.00700
C 	C 	0.04481 0.17448 0.16839 -0.01300
N 	N 	0.15788 0.35361 0.09949 -0.15000
C 	C 	0.22955 0.40071 0.09970 0.00300
C 	C 	0.26628 0.36894 0.11135 -0.04300
H 	H 	0.27224 0.27782 0.15010 0.05400
H 	H 	0.03605 0.24740 0.12296 0.05500
H 	H 	0.99650 0.17805 0.17145 0.03300
H 	H 	0.31807 0.39896 0.12139 0.05200
H 	H 	0.19858 0.20641 0.19279 0.08800
H 	H 	0.11866 0.36927 0.09918 0.08500
C 	C 	0.51811 0.71770 0.21954 0.07500
C 	C 	0.57190 0.78831 0.22627 -0.08400
C 	C 	0.64209 0.80085 0.23038 0.00900
C 	C 	0.66056 0.74888 0.22385 0.07100
C 	C 	0.60880 0.68159 0.21345 -0.08300
C 	C 	0.53637 0.66497 0.21359 0.01000
N 	N 	0.45725 0.70348 0.20632 -0.15100
C 	C 	0.43683 0.64285 0.19150 0.00100
C 	C 	0.48473 0.61734 0.19564 -0.04400
N 	N 	0.73134 0.78052 0.21781 -0.15300
C 	C 	0.75822 0.85266 0.21989 0.00100
C 	C 	0.70424 0.86717 0.22798 -0.04600
H 	H 	0.56030 0.83230 0.22676 0.05400
H 	H 	0.62464 0.64549 0.20417 0.05200
H 	H 	0.49431 0.58512 0.18090 0.05000
H 	H 	0.70673 0.91900 0.22639 0.05000
H 	H 	0.44374 0.74292 0.20126 0.09200
H 	H 	0.75625 0.75590 0.20749 0.08600
C 	C 	0.24612 0.94439 0.18793 0.07700
C 	C 	0.30672 0.93562 0.19017 -0.08100
C 	C 	0.33032 0.91585 0.16662 0.01200
C 	C 	0.28952 0.89643 0.14275 0.07800
C 	C 	0.22398 0.89689 0.14175 -0.08100
C 	C 	0.20577 0.92559 0.16413 0.01300
N 	N 	0.20479 0.93941 0.20945 -0.15300
C 	C 	0.13802 0.91810 0.19969 0.00900
C 	C 	0.13620 0.90685 0.17164 -0.04200
N 	N 	0.30056 0.84892 0.12851 -0.15300
C 	C 	0.34667 0.83622 0.14321 0.00600
C 	C 	0.36659 0.87715 0.16701 -0.04300
H 	H 	0.33083 0.93822 0.20991 0.05300
H 	H 	0.18622 0.87070 0.12520 0.05600
H 	H 	0.09530 0.90390 0.15782 0.05300
H 	H 	0.38332 0.86184 0.18556 0.04900
H 	H 	0.22522 0.96781 0.22766 0.08500
H 	H 	0.26406 0.81268 0.11429 0.08800
C 	C 	0.67615 0.82706 0.30993 0.07800
C 	C 	0.60706 0.79886 0.29873 -0.08400
C 	C 	0.56533 0.83024 0.30626 0.01300
C 	C 	0.59122 0.88656 0.32508 0.07600
C 	C 	0.66250 0.91832 0.33459 -0.08300
C 	C 	0.70358 0.88639 0.32716 0.01100
N 	N 	0.73016 0.82423 0.29696 -0.15200
C 	C 	0.79199 0.88274 0.30506 0.00100
C 	C 	0.77763 0.92304 0.32384 -0.04400
N 	N 	0.53679 0.88081 0.34079 -0.15300
C 	C 	0.47621 0.82100 0.33248 0.00800
C 	C 	0.49185 0.79012 0.31037 -0.04600
H 	H 	0.58532 0.75211 0.28548 0.05600
H 	H 	0.68374 0.96379 0.34848 0.05200
H 	H 	0.81201 0.98046 0.32725 0.04900
H 	H 	0.45991 0.73345 0.30503 0.05000
H 	H 	0.72430 0.79645 0.27872 0.09000
H 	H 	0.54398 0.90159 0.36061 0.08400
C 	C 	0.10711 0.31952 0.38707 0.07800
C 	C 	0.06142 0.28756 0.36452 -0.07500
C 	C 	0.08273 0.25490 0.34463 0.00400
C 	C 	0.14272 0.24727 0.34820 0.08200
C 	C 	0.18559 0.27403 0.37162 -0.08400
C 	C 	0.16765 0.31175 0.39078 0.01400
N 	N 	0.11919 0.38283 0.39760 -0.15000
C 	C 	0.18743 0.41713 0.40727 0.00400
C 	C 	0.21849 0.37371 0.40389 -0.04400
N 	N 	0.13639 0.19110 0.33351 -0.15000
C 	C 	0.07165 0.16178 0.32088 -0.00300
C 	C 	0.03715 0.20076 0.32709 -0.01400
H 	H 	0.01403 0.29283 0.36163 0.05600
H 	H 	0.23288 0.26848 0.37432 0.05400
H 	H 	0.27608 0.39483 0.40207 0.04300
H 	H 	0.98018 0.18161 0.32449 0.02700
H 	H 	0.09223 0.40980 0.39109 0.09300
H 	H 	0.16646 0.16521 0.33647 0.09200
C 	C 	0.20414 0.71498 0.27966 0.07700
C 	C 	0.22224 0.78540 0.27172 -0.08200
C 	C 	0.16613 0.80053 0.26786 0.01200
C 	C 	0.09559 0.75050 0.27493 0.07900
C 	C 	0.07878 0.68308 0.28588 -0.08300
C 	C 	0.13323 0.66447 0.28640 0.01400
N 	N 	0.25004 0.70088 0.29358 -0.15100
C 	C 	0.20962 0.64324 0.30982 0.00100
C 	C 	0.13672 0.61878 0.30566 -0.04300
N 	N 	0.05912 0.78474 0.28155 -0.15200
C 	C 	0.10618 0.85633 0.27958 -0.00200
C 	C 	0.17302 0.86818 0.27079 -0.04100
H 	H 	0.27804 0.82807 0.27076 0.05400
H 	H 	0.02712 0.64892 0.29560 0.05700
H 	H 	0.09529 0.58959 0.32088 0.05300
H 	H 	0.22345 0.91807 0.27354 0.04700
H 	H 	0.30337 0.73983 0.29789 0.09300
H 	H 	0.01068 0.76186 0.29250 0.09200
C 	C 	0.35835 0.95044 0.51446 -0.03800
C 	C 	0.39446 0.01598 0.52862 -0.04500
C 	C 	0.46294 0.07024 0.51995 0.01900
C 	C 	0.49493 0.05893 0.49666 -0.01100
C 	C 	0.45876 0.99280 0.48248 -0.00500
C 	C 	0.39024 0.93830 0.49145 0.01600
C 	C 	0.49117 0.98115 0.45940 0.02000
C 	C 	0.55937 0.03568 0.45059 -0.04500
C 	C 	0.59543 0.10123 0.46473 -0.04100
C 	C 	0.56382 0.11310 0.48789 0.01700
C 	C 	0.60140 0.17722 0.50302 -0.02600
C 	C 	0.57117 0.18677 0.52708 -0.05400
C 	C 	0.50097 0.13447 0.53490 -0.02700
C 	C 	0.35400 0.87285 0.47702 -0.02500
C 	C 	0.38554 0.86192 0.45360 -0.05300
C 	C 	0.45460 0.91559 0.44518 -0.02700
H 	H 	0.30564 0.90910 0.52146 0.04000
H 	H 	0.36936 0.02424 0.54647 0.04100
H 	H 	0.58459 0.02732 0.43280 0.03900
H 	H 	0.64822 0.14250 0.45778 0.03800
H 	H 	0.65558 0.21765 0.49701 0.04400
H 	H 	0.47758 0.14229 0.55339 0.04100
H 	H 	0.30049 0.83164 0.48339 0.04600
H 	H 	0.47896 0.90685 0.42717 0.04400
C 	C 	0.07596 0.63751 0.51067 -0.05700
C 	C 	0.03617 0.59176 0.53226 -0.01100
C 	C 	0.97756 0.52272 0.52692 -0.01200
C 	C 	0.95888 0.49951 0.49969 0.00600
C 	C 	0.99881 0.54559 0.47797 -0.02900
C 	C 	0.05812 0.61449 0.48348 0.04100
C 	C 	0.98118 0.52182 0.45074 0.00400
C 	C 	0.92196 0.45316 0.44538 -0.04100
C 	C 	0.88145 0.40781 0.46697 -0.04100
C 	C 	0.89962 0.43058 0.49418 0.00900
C 	C 	0.85683 0.38713 0.51588 -0.02200
C 	C 	0.87092 0.41368 0.54276 -0.07100
C 	C 	0.93481 0.47837 0.54839 -0.01100
C 	C 	0.10224 0.65687 0.46187 -0.03200
C 	C 	0.09124 0.62796 0.43539 -0.06300
C 	C 	0.02637 0.56459 0.42942 -0.00400
H 	H 	0.12141 0.69035 0.51514 0.04500
H 	H 	0.05068 0.61026 0.55313 0.03800
H 	H 	0.90784 0.43444 0.42452 0.03500
H 	H 	0.83581 0.35510 0.46250 0.03700
H 	H 	0.80842 0.33622 0.51162 0.04400
H 	H 	0.94677 0.49773 0.56928 0.03700
H 	H 	0.15057 0.70778 0.46620 0.04800
H 	H 	0.01606 0.54411 0.40866 0.04200
C 	C 	0.39072 0.38012 0.50224 -0.04100
C 	C 	0.38186 0.41122 0.47842 -0.04100
C 	C 	0.41934 0.48661 0.47504 0.01700
C 	C 	0.46510 0.53109 0.49597 -0.00800
C 	C 	0.47411 0.49978 0.51991 -0.00800
C 	C 	0.43773 0.42399 0.52285 0.01800
C 	C 	0.52203 0.54409 0.54039 0.01700
C 	C 	0.55796 0.61957 0.53736 -0.04100
C 	C 	0.54796 0.65077 0.51377 -0.04200
C 	C 	0.50206 0.60686 0.49290 0.01700
C 	C 	0.49095 0.63779 0.46939 -0.02600
C 	C 	0.44251 0.59360 0.44917 -0.05700
C 	C 	0.40972 0.51812 0.45143 -0.02400
C 	C 	0.45327 0.39302 0.54526 -0.02500
C 	C 	0.50862 0.43696 0.56343 -0.05700
C 	C 	0.53760 0.51222 0.56253 -0.02500
H 	H 	0.36217 0.32182 0.50440 0.04200
H 	H 	0.34588 0.37663 0.46259 0.04100
H 	H 	0.59459 0.65411 0.55304 0.04000
H 	H 	0.57623 0.70908 0.51168 0.04100
H 	H 	0.51675 0.69610 0.46748 0.04500
H 	H 	0.37260 0.48410 0.43574 0.04800
H 	H 	0.42852 0.33471 0.54678 0.04400
H 	H 	0.57830 0.54609 0.57727 0.04700
C 	C 	0.84637 0.21901 0.72679 0.07200
C 	C 	0.78316 0.21426 0.71614 -0.08000
C 	C 	0.79037 0.25977 0.69429 0.00800
C 	C 	0.85706 0.30975 0.68410 0.07900
C 	C 	0.92055 0.31662 0.69514 -0.08900
C 	C 	0.91404 0.27061 0.71686 0.02200
N 	N 	0.84893 0.16139 0.73665 -0.15300
C 	C 	0.91737 0.17560 0.73294 0.01500
C 	C 	0.95956 0.24278 0.72086 -0.07100
N 	N 	0.85329 0.36363 0.67142 -0.15200
C 	C 	0.78341 0.34722 0.67262 -0.00200
C 	C 	0.74341 0.28432 0.68796 -0.04300
H 	H 	0.73056 0.17486 0.72389 0.05300
H 	H 	0.97285 0.35570 0.68704 0.05300
H 	H 	0.00796 0.25793 0.70905 0.06900
H 	H 	0.68528 0.25071 0.68747 0.05300
H 	H 	0.80427 0.10949 0.73833 0.08800
H 	H 	0.89135 0.39916 0.65736 0.08900
C 	C 	0.29670 0.14916 0.67311 0.08000
C 	C 	0.31869 0.11689 0.65324 -0.08400
C 	C 	0.38407 0.11749 0.65724 0.01500
C 	C 	0.42349 0.14499 0.68125 0.07700
C 	C 	0.39793 0.17225 0.70195 -0.08200
C 	C 	0.33687 0.17833 0.69656 0.01300
N 	N 	0.22735 0.13014 0.67751 -0.15300
C 	C 	0.22300 0.14750 0.70378 0.00800
C 	C 	0.29021 0.17754 0.71627 -0.04500
N 	N 	0.49436 0.17482 0.67587 -0.15100
C 	C 	0.50166 0.17142 0.64853 0.00900
C 	C 	0.43390 0.13326 0.63655 -0.04800
H 	H 	0.28776 0.09500 0.63471 0.05500
H 	H 	0.42800 0.19336 0.72071 0.05500
H 	H 	0.29797 0.17501 0.73806 0.05400
H 	H 	0.42356 0.14010 0.61536 0.04500
H 	H 	0.18403 0.09026 0.66645 0.09300
H 	H 	0.53435 0.21454 0.68820 0.08900
C 	C 	0.86300 0.69550 0.62371 0.08300
C 	C 	0.92937 0.75095 0.63298 -0.09000
C 	C 	0.93248 0.81526 0.64172 0.02100
C 	C 	0.87148 0.82349 0.64060 0.07200
C 	C 	0.80616 0.76822 0.62979 -0.07900
C 	C 	0.80351 0.70367 0.62242 0.00800
N 	N 	0.85392 0.63948 0.60842 -0.15200
C 	C 	0.78605 0.60902 0.59813 -0.00000
C 	C 	0.75460 0.65073 0.60532 -0.04200
N 	N 	0.87349 0.86679 0.66100 -0.15200
C 	C 	0.93423 0.88545 0.67540 0.01200
C 	C 	0.97245 0.85494 0.66392 -0.06900
H 	H 	0.97576 0.74345 0.63452 0.05300
H 	H 	0.75845 0.77365 0.62905 0.05200
H 	H 	0.69724 0.63161 0.60541 0.04400
H 	H 	0.00941 0.84362 0.67514 0.06700
H 	H 	0.88315 0.61257 0.61096 0.09000
H 	H 	0.82779 0.86594 0.66909 0.09200
C 	C 	0.01196 0.38703 0.02851 -0.02000
C 	C 	0.97170 0.35533 0.00489 -0.06100
C 	C 	0.96774 0.39867 0.98407 0.00900
C 	C 	0.00609 0.47450 0.98671 0.00000
C 	C 	0.04634 0.50640 0.01053 -0.00500
C 	C 	0.04911 0.46249 0.03154 0.01200
C 	C 	0.08401 0.58220 0.01330 0.01600
C 	C 	0.08093 0.62557 0.99229 -0.03700
C 	C 	0.04019 0.59381 0.96876 -0.04600
C 	C 	0.00194 0.51829 0.96596 0.03500
C 	C 	0.95551 0.48586 0.94370 -0.04600
C 	C 	0.91050 0.41049 0.94294 -0.05200
C 	C 	0.92182 0.36708 0.96164 -0.02800
C 	C 	0.09135 0.49469 0.05480 -0.02100
C 	C 	0.13327 0.57028 0.05663 -0.05700
C 	C 	0.12653 0.61376 0.03655 -0.02400
H 	H 	0.01426 0.35284 0.04443 0.03900
H 	H 	0.94265 0.29700 0.00301 0.04100
H 	H 	0.11003 0.68390 0.99415 0.04200
H 	H 	0.03757 0.62797 0.95291 0.04700
H 	H 	0.94841 0.51932 0.92870 0.04800
H 	H 	0.88886 0.30873 0.96041 0.04000
H 	H 	0.09614 0.46115 0.07041 0.04800
H 	H 	0.15821 0.67214 0.03818 0.04400
C 	C 	0.60549 0.95462 0.99762 -0.03700
C 	C 	0.63836 0.02499 0.98708 -0.04600
C 	C 	0.60995 0.07036 0.99299 0.02100
C 	C 	0.54888 0.04530 0.01003 -0.01300
C 	C 	0.51550 0.97435 0.02047 -0.00200
C 	C 	0.54391 0.92882 0.01424 0.01400
C 	C 	0.45387 0.94899 0.03722 0.01500
C 	C 	0.42602 0.99470 0.04341 -0.03600
C 	C 	0.45876 0.06497 0.03280 -0.04600
C 	C 	0.51970 0.09038 0.01585 0.02000
C 	C 	0.54894 0.15835 0.00318 -0.02500
C 	C 	0.60483 0.17993 0.98399 -0.05500
C 	C 	0.63886 0.13858 0.98064 -0.02800
C 	C 	0.51192 0.85905 0.02553 -0.02200
C 	C 	0.45317 0.83542 0.04351 -0.05600
C 	C 	0.42241 0.87921 0.04835 -0.02400
H 	H 	0.62795 0.92023 0.99282 0.03900
H 	H 	0.68531 0.04379 0.97401 0.04000
H 	H 	0.37899 0.97585 0.05644 0.04100
H 	H 	0.43611 0.09925 0.03749 0.04100
H 	H 	0.52382 0.19125 0.00620 0.04300
H 	H 	0.68324 0.15635 0.96627 0.03800
H 	H 	0.53553 0.82505 0.02182 0.04400
H 	H 	0.37682 0.86058 0.06218 0.04100
C 	C 	0.55073 0.62046 0.98933 -0.04200
C 	C 	0.54616 0.57555 0.96766 -0.04100
C 	C 	0.53499 0.50590 0.97286 0.01600
C 	C 	0.52857 0.48132 0.00003 -0.00800
C 	C 	0.53375 0.52672 0.02184 -0.00800
C 	C 	0.54375 0.59611 0.01646 0.01600
C 	C 	0.52622 0.50176 0.04900 0.01600
C 	C 	0.51597 0.43246 0.05422 -0.04100
C 	C 	0.51161 0.38761 0.03256 -0.04200
C 	C 	0.51770 0.41160 0.00541 0.01600
C 	C 	0.51682 0.36827 0.98365 -0.02600
C 	C 	0.53028 0.39559 0.95682 -0.06500
C 	C 	0.53392 0.46202 0.95132 -0.02200
C 	C 	0.54093 0.63784 0.03810 -0.02700
C 	C 	0.52276 0.60832 0.06454 -0.06500
C 	C 	0.52339 0.54411 0.07038 -0.02200
H 	H 	0.55856 0.67373 0.98497 0.04000
H 	H 	0.55156 0.59510 0.94685 0.04100
H 	H 	0.51029 0.41283 0.07504 0.04000
H 	H 	0.50369 0.33431 0.03693 0.04000
H 	H 	0.51258 0.31631 0.98783 0.04800
H 	H 	0.54267 0.48231 0.93050 0.04400
H 	H 	0.54364 0.68907 0.03383 0.04600
H 	H 	0.51261 0.52295 0.09108 0.04200
C 	C 	0.79621 0.03558 0.85022 0.07700
C 	C 	0.77415 0.05336 0.87462 -0.08200
C 	C 	0.70906 0.05473 0.87453 0.01300
C 	C 	0.67279 0.04865 0.85018 0.07700
C 	C 	0.69945 0.03852 0.82531 -0.08300
C 	C 	0.75874 0.02741 0.82610 0.01300
N 	N 	0.86559 0.05616 0.84464 -0.15100
C 	C 	0.87359 0.06375 0.81723 0.00000
C 	C 	0.80794 0.04503 0.80510 -0.05100
N 	N 	0.63756 0.08616 0.85182 -0.15100
C 	C 	0.65213 0.11782 0.87668 0.00900
C 	C 	0.69550 0.09843 0.89148 -0.04800
H 	H 	0.80906 0.07115 0.89234 0.05300
H 	H 	0.67870 0.04522 0.80599 0.05300
H 	H 	0.80102 0.05839 0.78440 0.04800
H 	H 	0.73146 0.13111 0.90768 0.04500
H 	H 	0.90789 0.07863 0.85870 0.08500
H 	H 	0.62402 0.10663 0.83478 0.08900
C 	C 	0.45266 0.21133 0.80992 0.07400
C 	C 	0.39510 0.13979 0.81057 -0.08400
C 	C 	0.32686 0.12786 0.81828 0.01100
C 	C 	0.31493 0.18501 0.82330 0.07800
C 	C 	0.37143 0.25663 0.82126 -0.08400
C 	C 	0.44057 0.26883 0.81461 0.01200
N 	N 	0.51970 0.22895 0.81788 -0.15200
C 	C 	0.55024 0.29639 0.82844 0.00000
C 	C 	0.50301 0.32330 0.82610 -0.04500
N 	N 	0.24574 0.16537 0.81817 -0.15000
C 	C 	0.21332 0.09598 0.80955 0.00300
C 	C 	0.26232 0.07088 0.80933 -0.04300
H 	H 	0.40399 0.09490 0.80655 0.05400
H 	H 	0.36222 0.30135 0.82519 0.05500
H 	H 	0.50425 0.36452 0.83940 0.05200
H 	H 	0.25800 0.02797 0.79624 0.05200
H 	H 	0.53445 0.19081 0.82361 0.09100
H 	H 	0.22825 0.20175 0.81302 0.08500
C 	C 	0.80194 0.64725 0.86284 0.08200
C 	C 	0.78584 0.69543 0.84947 -0.08500
C 	C 	0.84377 0.76324 0.84211 0.01500
C 	C 	0.91485 0.78202 0.84839 0.07700
C 	C 	0.92965 0.73389 0.86293 -0.08300
C 	C 	0.87162 0.66549 0.86896 0.00900
N 	N 	0.75526 0.59180 0.87840 -0.15100
C 	C 	0.79508 0.57167 0.89380 -0.00000
C 	C 	0.86847 0.61954 0.88946 -0.04300
N 	N 	0.96015 0.82790 0.82941 -0.15800
C 	C 	0.91885 0.83773 0.81095 0.00800
C 	C 	0.84647 0.79887 0.81811 -0.04500
H 	H 	0.73088 0.68014 0.84423 0.05500
H 	H 	0.98444 0.74772 0.86777 0.05100
H 	H 	0.91136 0.60812 0.89405 0.04300
H 	H 	0.80233 0.78085 0.80376 0.05000
H 	H 	0.70083 0.55841 0.87364 0.09300
H 	H 	0.01122 0.83497 0.82518 0.10500
