data_crystal

_cell_length_a 31.74214
_cell_length_b 28.90585
_cell_length_c 18.40253
_cell_angle_alpha 92.67227
_cell_angle_beta  85.31758
_cell_angle_gamma 124.33979

_symmetry_space_group_name_	'P 1'
_symmetry_space_group_name_H-M	'P 1'

loop_
_symmetry_equiv_pos_as_xyz
  x,y,z

loop_
_atom_site_label
_atom_site_type_symbol
_atom_site_fract_x
_atom_site_fract_y
_atom_site_fract_z
_atom_site_charge
C 	C 	0.88872 0.79820 0.02525 -0.01600
C 	C 	0.87828 0.82787 0.07779 -0.02500
C 	C 	0.13411 0.05662 0.03250 -0.01600
C 	C 	0.11423 0.04834 0.96416 -0.01900
C 	C 	0.06160 0.02140 0.95916 -0.06600
C 	C 	0.02848 0.00241 0.02272 0.06800
C 	C 	0.04853 0.01030 0.09073 -0.06900
C 	C 	0.10109 0.03739 0.09567 -0.02500
C 	C 	0.84945 0.12998 0.83764 0.00600
C 	C 	0.82008 0.07329 0.85745 -0.04100
C 	C 	0.84414 0.04641 0.86974 -0.04500
C 	C 	0.89763 0.07608 0.86192 0.01300
C 	C 	0.90209 0.15718 0.81999 -0.04200
C 	C 	0.80839 0.61948 0.03452 0.00400
C 	C 	0.78113 0.64447 0.04066 -0.04400
C 	C 	0.80724 0.70274 0.03744 -0.04700
C 	C 	0.86097 0.73657 0.03045 0.01000
C 	C 	0.88819 0.71146 0.02801 -0.04600
C 	C 	0.86199 0.65316 0.02959 -0.04300
C 	C 	0.29476 0.13834 0.04856 0.00700
C 	C 	0.26393 0.08094 0.03255 -0.04400
C 	C 	0.21155 0.05443 0.02622 -0.04600
C 	C 	0.18940 0.08479 0.03792 0.01000
C 	C 	0.21980 0.14162 0.05718 -0.04500
C 	C 	0.27228 0.16820 0.06316 -0.04500
H 	H 	0.89741 0.90879 0.11498 0.04700
H 	H 	0.84969 0.80581 0.12224 0.03100
H 	H 	0.91212 0.99584 0.81169 0.03100
H 	H 	0.13952 0.06281 0.91506 0.03200
H 	H 	0.04661 0.01498 0.90617 0.04500
H 	H 	0.02326 0.99575 0.13981 0.04600
H 	H 	0.11619 0.04342 0.14858 0.03300
H 	H 	0.77906 0.05120 0.86801 0.03800
H 	H 	0.82158 0.00387 0.89032 0.04000
H 	H 	0.73976 0.61875 0.04716 0.03400
H 	H 	0.78578 0.72157 0.03980 0.03500
H 	H 	0.88329 0.63413 0.02615 0.03500
H 	H 	0.28069 0.05706 0.02418 0.03500
H 	H 	0.18814 0.01029 0.01261 0.03600
H 	H 	0.20279 0.16512 0.06739 0.03700
H 	H 	0.29562 0.21219 0.07756 0.03600
C 	C 	0.91306 0.86121 0.52114 -0.00600
C 	C 	0.91924 0.92182 0.62175 -0.06900
C 	C 	0.89375 0.86909 0.58856 -0.02600
C 	C 	0.14849 0.09888 0.63341 -0.00700
C 	C 	0.13086 0.11356 0.57728 -0.02600
C 	C 	0.07862 0.08965 0.57411 -0.07200
C 	C 	0.04332 0.05049 0.62731 0.07500
C 	C 	0.06133 0.03729 0.68468 -0.06900
C 	C 	0.11368 0.06127 0.68765 -0.02600
C 	C 	0.88247 0.21531 0.48773 0.00500
C 	C 	0.85318 0.17267 0.53967 -0.04100
C 	C 	0.87217 0.14350 0.56532 -0.04400
C 	C 	0.92061 0.15686 0.53924 0.01000
C 	C 	0.83120 0.69280 0.44165 0.00300
C 	C 	0.80645 0.72048 0.45334 -0.04100
C 	C 	0.83388 0.77666 0.47482 -0.04400
C 	C 	0.88611 0.80533 0.48629 0.01000
C 	C 	0.91156 0.77879 0.46976 -0.04400
C 	C 	0.88424 0.72287 0.44710 -0.04100
C 	C 	0.30876 0.17061 0.61403 0.00500
C 	C 	0.27464 0.11695 0.58606 -0.04300
C 	C 	0.22196 0.09233 0.59519 -0.04500
C 	C 	0.20310 0.12095 0.63318 0.00900
C 	C 	0.23713 0.17322 0.66475 -0.04400
C 	C 	0.28982 0.19785 0.65557 -0.04200
H 	H 	0.01946 0.99324 0.49513 0.04300
H 	H 	0.90375 0.92767 0.67331 0.04800
H 	H 	0.85906 0.83432 0.61528 0.03400
H 	H 	0.15759 0.14267 0.53525 0.03200
H 	H 	0.06557 0.10004 0.52908 0.04600
H 	H 	0.03457 0.00768 0.72622 0.04700
H 	H 	0.12710 0.05004 0.73149 0.03300
H 	H 	0.81540 0.16149 0.55907 0.03600
H 	H 	0.84887 0.10980 0.60422 0.03900
H 	H 	0.76544 0.69755 0.45005 0.03600
H 	H 	0.81409 0.79715 0.48572 0.03800
H 	H 	0.90370 0.70186 0.43823 0.03600
H 	H 	0.28898 0.09509 0.55543 0.03600
H 	H 	0.19588 0.05178 0.57103 0.03700
H 	H 	0.22283 0.19541 0.69459 0.03800
H 	H 	0.31597 0.23886 0.67858 0.03800
Co	Co	0.70803 0.28409 0.95508 1.18500
O 	O 	0.76784 0.29371 0.88536 -0.38000
Co	Co	0.60553 0.28412 0.01896 1.18300
O 	O 	0.64868 0.28077 0.91238 -0.44900
O 	O 	0.66735 0.34623 0.06381 -0.41700
O 	O 	0.70006 0.21308 0.89874 -0.34800
C 	C 	0.71050 0.38042 0.02496 0.32400
O 	O 	0.61879 0.33143 0.92345 -0.35500
C 	C 	0.50838 0.22666 0.05230 0.28300
C 	C 	0.65778 0.23677 0.08372 0.28500
O 	O 	0.54300 0.26979 0.08702 -0.36600
O 	O 	0.52891 0.21646 0.99599 -0.34500
O 	O 	0.70405 0.25328 0.06097 -0.35100
O 	O 	0.63309 0.23626 0.03076 -0.45300
O 	O 	0.73764 0.36250 0.99143 -0.51300
C 	C 	0.74557 0.24170 0.86716 0.29400
C 	C 	0.64894 0.32136 0.88516 0.26600
H 	H 	0.77496 0.39092 0.97593 0.16600
Co	Co	0.72704 0.35729 0.45007 1.18200
O 	O 	0.78557 0.35526 0.39198 -0.38800
Co	Co	0.61593 0.34387 0.49039 1.18200
O 	O 	0.65484 0.30908 0.41614 -0.45000
O 	O 	0.66819 0.42624 0.47838 -0.41600
O 	O 	0.73522 0.29008 0.46685 -0.35600
C 	C 	0.71620 0.45128 0.45074 0.33000
O 	O 	0.60465 0.32756 0.37579 -0.34800
C 	C 	0.52685 0.28726 0.55888 0.29200
C 	C 	0.69915 0.37022 0.58747 0.27000
O 	O 	0.55599 0.34094 0.55178 -0.37400
O 	O 	0.54760 0.26437 0.52429 -0.34900
O 	O 	0.74473 0.38945 0.55831 -0.36600
O 	O 	0.66494 0.33519 0.54410 -0.45000
O 	O 	0.73164 0.42317 0.41120 -0.53400
C 	C 	0.77385 0.30904 0.42015 0.29900
C 	C 	0.63818 0.31583 0.35881 0.27500
H 	H 	0.75570 0.44133 0.36642 0.16300
C 	C 	0.66417 0.33740 0.80886 0.02100
N 	N 	0.70013 0.33176 0.77332 -0.07900
N 	N 	0.71260 0.34420 0.70279 -0.06800
C 	C 	0.68894 0.36192 0.66578 0.02400
N 	N 	0.65323 0.36798 0.70139 -0.07900
N 	N 	0.64154 0.35667 0.77234 -0.06800
C 	C 	0.64653 0.24743 0.15884 0.01700
N 	N 	0.67840 0.25684 0.21089 -0.06300
N 	N 	0.67472 0.27735 0.27555 -0.07600
C 	C 	0.63972 0.29003 0.28948 0.02500
N 	N 	0.60664 0.27886 0.23845 -0.06300
N 	N 	0.60962 0.25719 0.17428 -0.08400
C 	C 	0.80062 0.63101 0.44184 0.00900
C 	C 	0.79180 0.59965 0.37668 -0.00000
C 	C 	0.76405 0.54091 0.38062 -0.00300
C 	C 	0.74843 0.51348 0.44845 -0.12400
C 	C 	0.75939 0.54549 0.51347 0.08300
C 	C 	0.78309 0.60348 0.50912 -0.08800
H 	H 	0.75449 0.51660 0.33073 0.02400
H 	H 	0.79094 0.62790 0.55888 0.05000
C 	C 	0.81225 0.62794 0.30258 -0.09300
C 	C 	0.75304 0.52033 0.58722 -0.12700
C 	C 	0.76992 0.62008 0.25762 -0.02500
H 	H 	0.73929 0.57481 0.25218 0.03100
H 	H 	0.78673 0.63668 0.20189 0.03000
C 	C 	0.80288 0.52734 0.60452 -0.01000
H 	H 	0.83590 0.57138 0.59459 0.02600
H 	H 	0.80931 0.49989 0.56805 0.03100
H 	H 	0.84289 0.67325 0.30641 0.04900
H 	H 	0.72083 0.47569 0.59054 0.06200
C 	C 	0.74651 0.65093 0.29016 -0.15500
C 	C 	0.80164 0.51313 0.68385 -0.16600
H 	H 	0.77670 0.69612 0.29720 0.05900
H 	H 	0.71889 0.64700 0.25282 0.05500
H 	H 	0.72569 0.63239 0.34354 0.06200
H 	H 	0.83055 0.60901 0.27164 0.04100
H 	H 	0.79922 0.54319 0.72066 0.05700
H 	H 	0.83720 0.51611 0.69330 0.05700
H 	H 	0.76846 0.47005 0.69720 0.07300
H 	H 	0.74320 0.54209 0.62965 0.05500
C 	C 	0.86177 0.24489 0.45907 0.00400
C 	C 	0.82621 0.22065 0.40435 0.00600
C 	C 	0.80093 0.24552 0.38751 -0.01000
C 	C 	0.81089 0.29414 0.42356 -0.10600
C 	C 	0.85016 0.32133 0.47295 0.07300
C 	C 	0.87490 0.29604 0.49060 -0.08600
H 	H 	0.77175 0.22554 0.34836 0.03700
H 	H 	0.90318 0.31526 0.53106 0.04900
C 	C 	0.81497 0.16854 0.36287 -0.09600
C 	C 	0.86467 0.37600 0.50981 -0.12200
C 	C 	0.83828 0.18185 0.28389 -0.02300
H 	H 	0.82585 0.20499 0.25571 0.03100
H 	H 	0.82377 0.14173 0.25415 0.02500
C 	C 	0.83727 0.36563 0.58596 -0.01600
H 	H 	0.84622 0.34160 0.61952 0.02900
H 	H 	0.79527 0.34073 0.58150 0.04500
H 	H 	0.82779 0.14544 0.38998 0.05000
H 	H 	0.85650 0.40065 0.47631 0.05800
C 	C 	0.89665 0.21573 0.27936 -0.15600
C 	C 	0.85379 0.42058 0.62503 -0.16000
H 	H 	0.91122 0.22173 0.22126 0.05300
H 	H 	0.91274 0.25764 0.30466 0.06100
H 	H 	0.90982 0.19320 0.30716 0.05800
H 	H 	0.77281 0.13883 0.36143 0.04600
H 	H 	0.89506 0.44452 0.63505 0.05600
H 	H 	0.83143 0.41157 0.67828 0.06800
H 	H 	0.84689 0.44652 0.59188 0.06400
H 	H 	0.90673 0.40245 0.51502 0.05100
C 	C 	0.36430 0.19924 0.59745 0.00500
C 	C 	0.39019 0.23844 0.53963 0.00600
C 	C 	0.44360 0.26783 0.52922 -0.00700
C 	C 	0.47115 0.25706 0.57319 -0.10200
C 	C 	0.44520 0.21702 0.62979 0.07500
C 	C 	0.39192 0.18857 0.64145 -0.08400
H 	H 	0.46371 0.29863 0.48595 0.03600
H 	H 	0.37189 0.15834 0.68534 0.04700
C 	C 	0.36153 0.24902 0.48778 -0.09600
C 	C 	0.47420 0.20683 0.68109 -0.12700
C 	C 	0.36343 0.22785 0.41016 -0.02200
H 	H 	0.40371 0.24757 0.38860 0.02800
H 	H 	0.34546 0.24085 0.37405 0.02600
C 	C 	0.49731 0.25258 0.73984 -0.00900
H 	H 	0.46735 0.25729 0.76700 0.02800
H 	H 	0.52771 0.29339 0.71442 0.04100
H 	H 	0.32107 0.23071 0.50684 0.05000
H 	H 	0.50487 0.20505 0.65031 0.06900
C 	C 	0.33512 0.16416 0.40619 -0.15700
C 	C 	0.52054 0.23866 0.79746 -0.17000
H 	H 	0.29452 0.14372 0.42654 0.05800
H 	H 	0.33627 0.15132 0.34863 0.05300
H 	H 	0.35357 0.14970 0.43876 0.06100
H 	H 	0.37975 0.29497 0.48507 0.04600
H 	H 	0.49112 0.19813 0.82433 0.06900
H 	H 	0.53584 0.27195 0.83971 0.08100
H 	H 	0.55224 0.23622 0.77223 0.08000
H 	H 	0.44796 0.16522 0.70773 0.05400
C 	C 	0.78089 0.55793 0.03209 -0.00100
C 	C 	0.76441 0.52803 0.96568 0.00900
C 	C 	0.74056 0.46981 0.96534 0.00100
C 	C 	0.73351 0.44118 0.02931 -0.13400
C 	C 	0.75168 0.47129 0.09512 0.08700
C 	C 	0.77432 0.52934 0.09599 -0.08900
H 	H 	0.72889 0.44687 0.91444 0.03000
H 	H 	0.78902 0.55276 0.14589 0.04700
C 	C 	0.77531 0.55786 0.89365 -0.09600
C 	C 	0.75297 0.44360 0.16219 -0.13200
C 	C 	0.72627 0.54114 0.85834 -0.02300
H 	H 	0.70120 0.49500 0.85076 0.03700
H 	H 	0.73706 0.56041 0.80327 0.02600
C 	C 	0.79955 0.43991 0.15604 -0.00800
H 	H 	0.83496 0.48183 0.14278 0.02400
H 	H 	0.79529 0.41052 0.11159 0.03300
H 	H 	0.80029 0.60417 0.89807 0.05200
H 	H 	0.71729 0.40125 0.17088 0.07900
C 	C 	0.69630 0.56085 0.90248 -0.15600
C 	C 	0.80562 0.41938 0.22684 -0.16600
H 	H 	0.72041 0.60711 0.90893 0.06000
H 	H 	0.66227 0.54916 0.87342 0.05900
H 	H 	0.68297 0.54066 0.95701 0.06500
H 	H 	0.79695 0.54619 0.85568 0.04300
H 	H 	0.81582 0.45122 0.27040 0.05400
H 	H 	0.83678 0.41258 0.21840 0.06500
H 	H 	0.76972 0.37922 0.24433 0.07300
H 	H 	0.75488 0.46827 0.21158 0.05200
C 	C 	0.82609 0.16213 0.84299 0.00600
C 	C 	0.83280 0.19717 0.90384 0.00600
C 	C 	0.80859 0.22555 0.90778 -0.00500
C 	C 	0.77526 0.21684 0.85517 -0.10100
C 	C 	0.76806 0.18143 0.79491 0.07500
C 	C 	0.79462 0.15549 0.78856 -0.08300
H 	H 	0.81422 0.25298 0.95370 0.03700
H 	H 	0.79024 0.12943 0.74151 0.04900
C 	C 	0.86489 0.20425 0.96593 -0.09000
C 	C 	0.73470 0.17351 0.73474 -0.12600
C 	C 	0.83215 0.17577 0.03664 -0.02700
H 	H 	0.80653 0.19000 0.05140 0.03300
H 	H 	0.85801 0.18863 0.08166 0.02400
C 	C 	0.76571 0.21870 0.67594 -0.01000
H 	H 	0.80055 0.22009 0.65671 0.02800
H 	H 	0.77788 0.26033 0.69926 0.03400
H 	H 	0.88999 0.18935 0.95252 0.05000
H 	H 	0.70137 0.17417 0.75662 0.06700
C 	C 	0.80020 0.11192 0.03134 -0.16500
C 	C 	0.73436 0.20716 0.61062 -0.17000
H 	H 	0.82520 0.09688 0.01687 0.05900
H 	H 	0.77945 0.09370 0.08487 0.05700
H 	H 	0.77160 0.09723 0.98995 0.07100
H 	H 	0.89131 0.24981 0.97701 0.04500
H 	H 	0.72102 0.16536 0.58686 0.06500
H 	H 	0.75844 0.23917 0.56803 0.07700
H 	H 	0.70086 0.20895 0.62721 0.07600
H 	H 	0.71856 0.13140 0.70974 0.05400
C 	C 	0.35046 0.16676 0.05187 -0.00400
C 	C 	0.38486 0.19745 0.99163 0.01400
C 	C 	0.43685 0.21867 0.99425 -0.00300
C 	C 	0.45497 0.20973 0.05545 -0.10500
C 	C 	0.42104 0.18132 0.11689 0.07100
C 	C 	0.36910 0.16054 0.11463 -0.08100
H 	H 	0.46328 0.24203 0.94820 0.03500
H 	H 	0.34288 0.13851 0.16146 0.04600
C 	C 	0.36733 0.20988 0.92515 -0.09800
C 	C 	0.43972 0.17378 0.18582 -0.11900
C 	C 	0.36738 0.17674 0.85740 -0.02100
H 	H 	0.40455 0.18129 0.84858 0.02900
H 	H 	0.36261 0.19461 0.80902 0.02700
C 	C 	0.45586 0.22306 0.23840 -0.01300
H 	H 	0.42341 0.22744 0.25111 0.02700
H 	H 	0.48830 0.26258 0.21260 0.04900
H 	H 	0.32928 0.20306 0.93487 0.05300
H 	H 	0.47197 0.16911 0.17313 0.06300
C 	C 	0.32442 0.11457 0.86220 -0.15800
C 	C 	0.47219 0.21453 0.30966 -0.16500
H 	H 	0.28680 0.10872 0.87386 0.06300
H 	H 	0.32369 0.09402 0.80937 0.05600
H 	H 	0.33106 0.09417 0.90525 0.06400
H 	H 	0.39422 0.25527 0.91248 0.04700
H 	H 	0.43941 0.17722 0.33901 0.06100
H 	H 	0.48561 0.25185 0.34516 0.07000
H 	H 	0.50390 0.20879 0.29878 0.08000
H 	H 	0.40855 0.13421 0.21332 0.05000
C 	C 	0.93176 0.23035 0.46417 -0.04200
C 	C 	0.90538 0.88620 0.07384 -0.07100
H 	H 	0.92473 0.20026 0.80145 0.03800
H 	H 	0.94074 0.09337 0.45062 0.03200
C 	C 	0.92538 0.01096 0.86565 -0.01600
C 	C 	0.92631 0.13063 0.83343 -0.04700
C 	C 	0.93846 0.12237 0.56026 -0.00700
C 	C 	0.94704 0.09170 0.50715 -0.02500
C 	C 	0.92643 0.82753 0.96854 -0.01700
C 	C 	0.92346 0.05487 0.89728 -0.01600
H 	H 	0.92962 0.73712 0.02439 0.03600
C 	C 	0.95066 0.20102 0.48947 -0.04400
H 	H 	0.95510 0.26423 0.42554 0.03500
H 	H 	0.94083 0.14408 0.67439 0.03600
H 	H 	0.93441 0.80508 0.92714 0.03300
H 	H 	0.94529 0.95236 0.87899 0.05000
C 	C 	0.94686 0.12003 0.63323 -0.02500
H 	H 	0.95197 0.80065 0.47769 0.03800
C 	C 	0.94351 0.98571 0.90434 -0.08200
C 	C 	0.94377 0.91562 0.01829 0.07200
C 	C 	0.94157 0.07481 0.96654 -0.00800
H 	H 	0.94026 0.10878 0.99127 0.03000
C 	C 	0.95870 0.90628 0.48805 -0.02700
C 	C 	0.95436 0.88597 0.96565 -0.06600
C 	C 	0.95932 0.00399 0.97552 0.09900
C 	C 	0.95939 0.04950 0.00535 -0.09500
C 	C 	0.96345 0.08695 0.65306 -0.06900
C 	C 	0.96397 0.05900 0.52665 -0.07200
C 	C 	0.96441 0.96712 0.58837 0.07700
H 	H 	0.96755 0.15343 0.82551 0.03900
H 	H 	0.97186 0.03713 0.48453 0.04800
H 	H 	0.97214 0.06432 0.05955 0.05300
H 	H 	0.98429 0.90815 0.92289 0.04600
N 	N 	0.97432 0.97601 0.01925 -0.14700
C 	C 	0.98460 0.95881 0.52172 -0.06800
N 	N 	0.98883 0.02185 0.62204 -0.14100
C 	C 	0.97208 0.05616 0.60012 0.07900
H 	H 	0.97395 0.90069 0.43607 0.03300
H 	H 	0.96966 0.08518 0.70957 0.05100
H 	H 	0.98835 0.21209 0.46974 0.03700
