data_crystal

_cell_length_a 25.64388
_cell_length_b 26.13635
_cell_length_c 45.14796
_cell_angle_alpha 95.51674
_cell_angle_beta  95.51475
_cell_angle_gamma 125.74633

_symmetry_space_group_name_	'P 1'
_symmetry_space_group_name_H-M	'P 1'

loop_
_symmetry_equiv_pos_as_xyz
  x,y,z

loop_
_atom_site_label
_atom_site_type_symbol
_atom_site_fract_x
_atom_site_fract_y
_atom_site_fract_z
_atom_site_charge
C 	C 	0.96561 0.03174 0.98798 0.04400
C 	C 	0.03314 0.06536 0.98919 -0.08100
C 	C 	0.06102 0.03242 0.98862 0.04200
H 	H 	0.06383 0.11695 0.99055 0.05500
C 	C 	0.99259 0.03455 0.46567 -0.06600
H 	H 	0.01865 0.08546 0.46589 0.04900
Cu	Cu	0.64296 0.24655 0.00423 0.92900
Cu	Cu	0.68870 0.25113 0.93851 0.87100
Cu	Cu	0.67965 0.35157 0.96755 0.89700
Cu	Cu	0.64946 0.36693 0.02886 0.89400
C 	C 	0.66605 0.29027 0.06835 0.30600
O 	O 	0.54904 0.21127 0.00548 -0.36000
C 	C 	0.65388 0.31162 0.90065 0.30800
O 	O 	0.69809 0.34672 0.00889 -0.64100
O 	O 	0.63211 0.25661 0.96166 -0.64100
O 	O 	0.68051 0.19844 0.99933 -0.36900
O 	O 	0.75097 0.26575 0.97103 -0.44100
O 	O 	0.63813 0.31840 0.06230 -0.38600
O 	O 	0.73123 0.44400 0.97585 -0.38300
C 	C 	0.73000 0.47907 0.99851 0.29100
C 	C 	0.52452 0.24029 0.99582 0.28300
O 	O 	0.56358 0.30106 0.99383 -0.39000
O 	O 	0.68908 0.45277 0.01750 -0.39200
O 	O 	0.66706 0.25317 0.04675 -0.36000
C 	C 	0.73397 0.22240 0.98804 0.28900
O 	O 	0.67535 0.35777 0.92419 -0.38700
O 	O 	0.64677 0.25842 0.90375 -0.42200
H 	H 	0.74524 0.37289 0.01788 0.16500
H 	H 	0.58635 0.23178 0.95069 0.17400
Cu	Cu	0.72763 0.33156 0.46598 0.92700
Cu	Cu	0.72384 0.28453 0.53117 0.87100
Cu	Cu	0.62600 0.30320 0.50524 0.89700
Cu	Cu	0.61173 0.33861 0.44516 0.89400
C 	C 	0.68058 0.31402 0.40254 0.30600
O 	O 	0.77169 0.42617 0.46570 -0.35800
C 	C 	0.67079 0.32507 0.57153 0.30700
O 	O 	0.62683 0.28533 0.46319 -0.64100
O 	O 	0.72146 0.34315 0.50916 -0.64100
O 	O 	0.76903 0.28624 0.46829 -0.36900
O 	O 	0.70103 0.22057 0.49792 -0.43700
O 	O 	0.65633 0.34519 0.41017 -0.38600
O 	O 	0.53232 0.25929 0.49857 -0.37900
C 	C 	0.49822 0.26336 0.47629 0.28600
C 	C 	0.74715 0.45516 0.47602 0.28100
O 	O 	0.68617 0.42092 0.47989 -0.39000
O 	O 	0.52723 0.30640 0.45877 -0.39000
O 	O 	0.71610 0.30790 0.42302 -0.36200
C 	C 	0.74147 0.23301 0.47924 0.28400
O 	O 	0.62267 0.30568 0.54889 -0.38800
O 	O 	0.72265 0.32857 0.56699 -0.42100
H 	H 	0.59666 0.23926 0.45370 0.16400
H 	H 	0.74998 0.38817 0.52024 0.17300
C 	C 	0.63663 0.34247 0.81455 -0.01000
C 	C 	0.57708 0.30037 0.79414 -0.03100
C 	C 	0.57421 0.30302 0.76328 -0.04400
C 	C 	0.63106 0.34761 0.75263 0.00900
C 	C 	0.68978 0.39222 0.77337 -0.04400
C 	C 	0.69250 0.38968 0.80424 -0.03100
C 	C 	0.63094 0.34280 0.71975 0.00900
C 	C 	0.61537 0.28638 0.70252 -0.04400
C 	C 	0.62114 0.28363 0.67205 -0.03100
C 	C 	0.64266 0.33723 0.65857 -0.01000
C 	C 	0.65668 0.39312 0.67547 -0.03000
C 	C 	0.65076 0.39591 0.70599 -0.04400
C 	C 	0.65321 0.33557 0.62783 0.04600
C 	C 	0.66132 0.33194 0.60206 -0.11200
C 	C 	0.64224 0.33211 0.84509 0.04600
C 	C 	0.64689 0.32340 0.87066 -0.11200
H 	H 	0.53358 0.26405 0.80198 0.03800
H 	H 	0.52842 0.26893 0.74752 0.04000
H 	H 	0.73389 0.42702 0.76543 0.04000
H 	H 	0.73864 0.42270 0.81992 0.03800
H 	H 	0.60037 0.24524 0.71293 0.04000
H 	H 	0.61008 0.24022 0.65909 0.03600
H 	H 	0.67312 0.43468 0.66516 0.03800
H 	H 	0.66258 0.43958 0.71904 0.04000
C 	C 	0.69860 0.27963 0.15702 -0.00700
C 	C 	0.74642 0.33588 0.17798 -0.03100
C 	C 	0.74902 0.33587 0.20905 -0.04300
C 	C 	0.70375 0.27954 0.21934 0.00900
C 	C 	0.65866 0.22229 0.19835 -0.04300
C 	C 	0.65608 0.22237 0.16726 -0.03000
C 	C 	0.69823 0.28239 0.25155 0.00900
C 	C 	0.67529 0.31537 0.26401 -0.04300
C 	C 	0.67061 0.31891 0.29460 -0.03100
C 	C 	0.68880 0.28954 0.31298 -0.00700
C 	C 	0.71108 0.25592 0.30055 -0.03100
C 	C 	0.71569 0.25224 0.26986 -0.04300
C 	C 	0.68660 0.29599 0.34479 0.04500
C 	C 	0.68383 0.30293 0.37125 -0.10200
C 	C 	0.68756 0.28268 0.12556 0.04600
C 	C 	0.67870 0.28570 0.09927 -0.10300
H 	H 	0.77977 0.38023 0.17023 0.03800
H 	H 	0.78446 0.38016 0.22510 0.04100
H 	H 	0.62379 0.17847 0.20609 0.04200
H 	H 	0.61926 0.17856 0.15119 0.04200
H 	H 	0.66122 0.33834 0.24998 0.04100
H 	H 	0.65328 0.34490 0.30405 0.03900
H 	H 	0.72526 0.23311 0.31464 0.04100
H 	H 	0.73324 0.22649 0.26041 0.04200
C 	C 	0.79175 0.61855 0.47772 0.01500
C 	C 	0.83874 0.62930 0.46048 -0.00100
S 	S 	0.84333 0.56835 0.45940 0.02500
C 	C 	0.78536 0.52540 0.47967 -0.07700
C 	C 	0.76064 0.55947 0.48811 -0.02400
H 	H 	0.72195 0.54241 0.50111 0.04100
C 	C 	0.85767 0.09395 0.44401 0.00400
C 	C 	0.86538 0.15197 0.44601 -0.05700
C 	C 	0.82631 0.15957 0.46283 0.01300
C 	C 	0.78503 0.11243 0.47900 0.00200
C 	C 	0.77742 0.05457 0.47709 -0.06200
C 	C 	0.81627 0.04678 0.46022 0.02600
S 	S 	0.91398 0.08409 0.43676 -0.01500
C 	C 	0.88610 0.01847 0.45208 -0.00100
C 	C 	0.83221 0.00412 0.46483 -0.06000
S 	S 	0.72914 0.12252 0.48653 0.00400
C 	C 	0.75551 0.18702 0.47058 -0.07600
C 	C 	0.81071 0.20266 0.45861 -0.02300
H 	H 	0.89882 0.18880 0.43412 0.04700
H 	H 	0.74411 0.01787 0.48907 0.04600
H 	H 	0.83778 0.24260 0.44703 0.04700
C 	C 	0.21011 0.07391 0.48306 0.00200
C 	C 	0.27502 0.10306 0.49666 -0.05700
C 	C 	0.32386 0.13865 0.47983 0.01400
C 	C 	0.30773 0.14770 0.45113 0.00200
C 	C 	0.24424 0.12704 0.43985 -0.06100
C 	C 	0.19486 0.08799 0.45578 0.02600
S 	S 	0.14859 0.04881 0.50147 -0.01400
C 	C 	0.09991 0.05264 0.47562 -0.00300
C 	C 	0.13254 0.07528 0.45136 -0.06200
S 	S 	0.37557 0.21050 0.44284 0.01100
C 	C 	0.42717 0.22724 0.47434 -0.07100
C 	C 	0.39138 0.18266 0.49269 -0.02300
H 	H 	0.28732 0.10070 0.51988 0.04600
H 	H 	0.23427 0.14322 0.42035 0.04600
H 	H 	0.11147 0.08064 0.43101 0.04600
H 	H 	0.41271 0.18284 0.51463 0.04700
S 	S 	0.76114 0.59701 0.02337 0.01700
C 	C 	0.76891 0.54870 0.00021 -0.07700
C 	C 	0.79710 0.57942 0.97637 -0.01900
H 	H 	0.80810 0.55893 0.95823 0.04600
C 	C 	0.87052 0.09956 0.96456 0.00200
C 	C 	0.85845 0.14261 0.95658 -0.05800
C 	C 	0.81144 0.14380 0.96941 0.01300
C 	C 	0.78013 0.10494 0.99060 -0.00200
C 	C 	0.80040 0.07023 0.00220 -0.06000
C 	C 	0.84504 0.06660 0.98830 0.02600
S 	S 	0.93786 0.10584 0.96115 -0.01200
C 	C 	0.93669 0.06657 0.98857 -0.00600
C 	C 	0.88182 0.04746 0.00164 -0.06000
S 	S 	0.74755 0.13426 0.00935 0.02800
C 	C 	0.77027 0.19535 0.99129 -0.08300
C 	C 	0.80541 0.19427 0.96957 -0.02700
H 	H 	0.88695 0.17625 0.94226 0.04400
H 	H 	0.78478 0.04975 0.02219 0.04700
H 	H 	0.82503 0.22791 0.95423 0.03100
C 	C 	0.24980 0.12917 0.01587 0.00300
C 	C 	0.31601 0.18170 0.02299 -0.05600
C 	C 	0.36102 0.17374 0.01251 0.01500
C 	C 	0.33942 0.11547 0.99459 0.00500
C 	C 	0.27284 0.06740 0.98334 -0.06100
C 	C 	0.22789 0.07429 0.99474 0.02600
S 	S 	0.18821 0.13432 0.01593 -0.01300
C 	C 	0.13222 0.06808 0.99009 -0.00600
C 	C 	0.16167 0.03961 0.98040 -0.05800
S 	S 	0.39925 0.12917 0.97703 0.01400
C 	C 	0.45401 0.20761 0.99139 -0.07600
C 	C 	0.42569 0.22544 0.01095 -0.01900
H 	H 	0.33149 0.22797 0.03465 0.04600
H 	H 	0.25674 0.02807 0.96521 0.04600
H 	H 	0.45127 0.27331 0.02415 0.03400
C 	C 	0.02795 0.01009 0.47161 0.03000
H 	H 	0.86877 0.02052 0.01986 0.04500
C 	C 	0.81167 0.64107 0.97912 0.01500
H 	H 	0.75298 0.66119 0.50218 0.04600
C 	C 	0.79283 0.65720 0.00449 0.00200
C 	C 	0.79009 0.66919 0.48948 -0.05800
C 	C 	0.88821 0.69090 0.45624 -0.06000
H 	H 	0.87027 0.67673 0.94425 0.04600
H 	H 	0.92509 0.69877 0.44341 0.04700
C 	C 	0.85675 0.68877 0.96433 -0.05700
C 	C 	0.82231 0.72118 0.01733 -0.06100
C 	C 	0.83971 0.73098 0.48531 0.00300
H 	H 	0.80883 0.73325 0.03741 0.04600
C 	C 	0.88634 0.74147 0.46778 0.02600
C 	C 	0.88620 0.75269 0.97718 0.00300
C 	C 	0.92376 0.99336 0.45954 0.02900
C 	C 	0.02088 0.96560 0.98692 -0.08300
C 	C 	0.95311 0.93166 0.98448 0.04300
C 	C 	0.92560 0.96470 0.98519 -0.08300
H 	H 	0.04231 0.94016 0.98798 0.05400
H 	H 	0.87308 0.93820 0.98316 0.05300
C 	C 	0.89059 0.92748 0.45965 -0.07200
C 	C 	0.92583 0.90281 0.46567 0.03300
C 	C 	0.99452 0.94439 0.47184 -0.06900
H 	H 	0.83757 0.89529 0.45435 0.05100
H 	H 	0.02192 0.92555 0.47642 0.04900
S 	S 	0.83430 0.79150 0.48587 -0.01500
C 	C 	0.89065 0.83312 0.46470 -0.00300
C 	C 	0.91582 0.79941 0.45652 -0.06100
H 	H 	0.95237 0.81505 0.44234 0.04600
H 	H 	0.81132 0.97044 0.48010 0.04400
C 	C 	0.86753 0.76889 0.00257 0.02600
S 	S 	0.91817 0.81293 0.95839 -0.01300
C 	C 	0.91093 0.86159 0.98163 -0.00700
C 	C 	0.88261 0.83078 0.00543 -0.06000
H 	H 	0.87321 0.85204 0.02397 0.04500
H 	H 	0.13705 0.99693 0.96300 0.04300
