data_crystal

_cell_length_a 17.17912
_cell_length_b 14.03870
_cell_length_c 40.16429
_cell_angle_alpha 90.94069
_cell_angle_beta  91.37570
_cell_angle_gamma 111.21426

_symmetry_space_group_name_	'P 1'
_symmetry_space_group_name_H-M	'P 1'

loop_
_symmetry_equiv_pos_as_xyz
  x,y,z

loop_
_atom_site_label
_atom_site_type_symbol
_atom_site_fract_x
_atom_site_fract_y
_atom_site_fract_z
_atom_site_charge
Ni	Ni	0.73509 0.32728 0.91131 1.09600
O 	O 	0.64377 0.29508 0.87423 -0.70300
Ni	Ni	0.54662 0.29667 0.90134 1.09600
O 	O 	0.82040 0.29440 0.88301 -0.37200
O 	O 	0.73507 0.16412 0.84981 -0.40300
O 	O 	0.79105 0.47442 0.89517 -0.37900
Ni	Ni	0.61236 0.15594 0.85492 1.06300
O 	O 	0.79753 0.51571 0.95974 -0.41100
O 	O 	0.60659 0.09371 0.90101 -0.41500
O 	O 	0.45875 0.25931 0.86361 -0.38600
O 	O 	0.63944 0.33470 0.93734 -0.70900
O 	O 	0.81900 0.36511 0.95029 -0.39100
O 	O 	0.46328 0.31955 0.93341 -0.36900
O 	O 	0.55120 0.48184 0.94686 -0.41200
Ni	Ni	0.67093 0.47819 0.95201 1.06100
H 	H 	0.65653 0.34677 0.85669 0.15000
H 	H 	0.62683 0.28785 0.95629 0.15200
C 	C 	0.54667 0.09024 0.92129 0.27300
O 	O 	0.68564 0.53154 0.90494 -0.42500
C 	C 	0.80054 0.24950 0.85346 0.28200
C 	C 	0.44698 0.17897 0.84407 0.28400
C 	C 	0.75049 0.53506 0.88797 0.29400
C 	C 	0.48212 0.40359 0.95179 0.27700
C 	C 	0.83609 0.45183 0.96728 0.28300
O 	O 	0.50091 0.14673 0.91607 -0.36700
O 	O 	0.48519 0.11495 0.85107 -0.41100
Ni	Ni	0.59969 0.26229 0.52548 1.09900
O 	O 	0.70016 0.28219 0.49557 -0.69700
Ni	Ni	0.76465 0.21633 0.52422 1.09500
O 	O 	0.55629 0.36473 0.50375 -0.37500
O 	O 	0.67069 0.47101 0.47825 -0.41200
O 	O 	0.52076 0.15457 0.49238 -0.37400
Ni	Ni	0.76965 0.42732 0.49281 1.06500
O 	O 	0.47150 0.05990 0.55042 -0.41600
O 	O 	0.75612 0.44261 0.54255 -0.43900
O 	O 	0.87200 0.25701 0.49737 -0.39300
O 	O 	0.65795 0.18460 0.55050 -0.70500
O 	O 	0.50340 0.23247 0.55702 -0.38600
O 	O 	0.80424 0.12264 0.55400 -0.36700
O 	O 	0.68165 0.98823 0.54502 -0.41200
Ni	Ni	0.58375 0.04058 0.54749 1.06400
H 	H 	0.68501 0.24858 0.47327 0.15400
H 	H 	0.66935 0.20934 0.57399 0.15000
C 	C 	0.80353 0.41600 0.56388 0.28600
O 	O 	0.57916 0.03326 0.49688 -0.41500
C 	C 	0.60349 0.45706 0.49553 0.29300
C 	C 	0.91125 0.35371 0.49017 0.29700
C 	C 	0.53884 0.07921 0.47929 0.29100
C 	C 	0.75114 0.03250 0.56256 0.27300
C 	C 	0.46119 0.13832 0.56588 0.28400
O 	O 	0.82440 0.33538 0.55785 -0.37200
O 	O 	0.88515 0.42373 0.50242 -0.42500
Ni	Ni	0.96837 0.97639 0.74038 1.09000
O 	O 	0.99863 0.85684 0.72415 -0.71900
Ni	Ni	0.04404 0.90353 0.67923 1.09900
O 	O 	0.91323 0.90308 0.78241 -0.37900
O 	O 	0.82786 0.77279 0.74974 -0.42000
O 	O 	0.07999 0.03630 0.76823 -0.36600
Ni	Ni	0.90460 0.72562 0.72010 1.07300
O 	O 	0.06856 0.20838 0.74550 -0.40100
O 	O 	0.83908 0.74563 0.67844 -0.39900
O 	O 	0.06461 0.77522 0.66329 -0.38500
O 	O 	0.01006 0.02358 0.69491 -0.67100
O 	O 	0.93584 0.09614 0.75300 -0.39900
O 	O 	0.11060 0.98030 0.64022 -0.37900
O 	O 	0.15340 0.14900 0.65542 -0.39900
Ni	Ni	0.10034 0.15697 0.70120 1.06700
H 	H 	0.04336 0.84921 0.73860 0.16400
H 	H 	0.96453 0.03040 0.68078 0.13500
C 	C 	0.86634 0.82470 0.65894 0.28000
O 	O 	0.16808 0.08513 0.72467 -0.43600
C 	C 	0.85495 0.81184 0.77949 0.28700
C 	C 	0.00646 0.68438 0.66823 0.32100
C 	C 	0.15559 0.06080 0.75599 0.28700
C 	C 	0.17075 0.07012 0.64432 0.29100
C 	C 	0.99125 0.18898 0.75532 0.27300
O 	O 	0.94205 0.85370 0.64832 -0.38900
O 	O 	0.97956 0.66097 0.69840 -0.43300
Ni	Ni	0.22281 0.63387 0.40001 1.09600
O 	O 	0.32131 0.67288 0.36896 -0.71000
Ni	Ni	0.41585 0.69378 0.40137 1.09800
O 	O 	0.14003 0.62155 0.36084 -0.37100
O 	O 	0.21549 0.78052 0.34290 -0.40900
O 	O 	0.20144 0.48069 0.39193 -0.37800
Ni	Ni	0.34200 0.80528 0.34847 1.06300
O 	O 	0.17127 0.47514 0.45589 -0.41100
O 	O 	0.34563 0.88302 0.39258 -0.41400
O 	O 	0.50557 0.72436 0.36665 -0.38500
O 	O 	0.31883 0.66751 0.43362 -0.69700
O 	O 	0.12821 0.59620 0.43271 -0.39300
O 	O 	0.50210 0.68517 0.43594 -0.37400
O 	O 	0.42334 0.58916 0.47658 -0.40600
Ni	Ni	0.29875 0.54524 0.46050 1.06500
H 	H 	0.31696 0.61874 0.35211 0.15000
H 	H 	0.32304 0.72752 0.44783 0.15200
C 	C 	0.40783 0.89999 0.41427 0.28600
O 	O 	0.31498 0.46733 0.41989 -0.42800
C 	C 	0.15892 0.68879 0.33704 0.28500
C 	C 	0.51471 0.79719 0.34499 0.28100
C 	C 	0.25758 0.43717 0.39575 0.28100
C 	C 	0.48586 0.60885 0.45619 0.29100
C 	C 	0.11873 0.52419 0.45446 0.27700
O 	O 	0.45724 0.84767 0.41228 -0.37200
O 	O 	0.46986 0.85645 0.34713 -0.40700
Ni	Ni	0.37496 0.73546 0.02996 1.09600
O 	O 	0.26128 0.69398 0.00490 -0.70000
Ni	Ni	0.20470 0.77102 0.03217 1.09600
O 	O 	0.41461 0.63510 0.00435 -0.37300
O 	O 	0.29326 0.49738 0.00351 -0.40800
O 	O 	0.43387 0.83798 0.99363 -0.37500
Ni	Ni	0.19428 0.54774 0.00921 1.06500
O 	O 	0.50122 0.94998 0.04944 -0.41900
O 	O 	0.21542 0.55553 0.05957 -0.42200
O 	O 	0.09331 0.72118 0.00598 -0.38700
O 	O 	0.31894 0.81378 0.05670 -0.70100
O 	O 	0.48447 0.78314 0.05713 -0.39000
O 	O 	0.16649 0.87028 0.05965 -0.36200
O 	O 	0.28573 0.00737 0.05385 -0.40300
Ni	Ni	0.38595 0.95976 0.05171 1.06200
H 	H 	0.26571 0.71458 0.98136 0.15000
H 	H 	0.31512 0.79435 0.08035 0.14700
C 	C 	0.17481 0.59549 0.07925 0.28600
O 	O 	0.36768 0.95049 0.00154 -0.42400
C 	C 	0.36296 0.55173 0.98938 0.28000
C 	C 	0.05262 0.62268 0.00043 0.30300
C 	C 	0.40876 0.91014 0.98249 0.29400
C 	C 	0.22032 0.95821 0.07106 0.26200
C 	C 	0.52150 0.88054 0.06530 0.28800
O 	O 	0.14948 0.66805 0.06862 -0.37400
O 	O 	0.07877 0.55544 0.01489 -0.41200
Ni	Ni	0.99395 0.01224 0.25512 1.08800
O 	O 	0.00239 0.15554 0.24206 -0.67900
Ni	Ni	0.94841 0.12852 0.19673 1.09200
O 	O 	0.05936 0.06540 0.29908 -0.37000
O 	O 	0.16481 0.17478 0.26958 -0.42200
O 	O 	0.88219 0.99951 0.27548 -0.39700
Ni	Ni	0.11273 0.26227 0.24194 1.06800
O 	O 	0.93258 0.78085 0.21701 -0.41500
O 	O 	0.16318 0.22613 0.19976 -0.40500
O 	O 	0.95463 0.27338 0.18701 -0.40400
O 	O 	0.95591 0.98970 0.20746 -0.71400
O 	O 	0.97459 0.86553 0.26804 -0.38200
O 	O 	0.86751 0.07030 0.15663 -0.38400
O 	O 	0.78317 0.93941 0.18758 -0.42200
Ni	Ni	0.86010 0.86228 0.20315 1.06800
H 	H 	0.96721 0.17950 0.25667 0.13300
H 	H 	0.00131 0.98010 0.19482 0.15300
C 	C 	0.12037 0.16053 0.17625 0.28600
O 	O 	0.81281 0.84472 0.24977 -0.40300
C 	C 	0.13441 0.13684 0.29832 0.27400
C 	C 	0.02741 0.35042 0.19145 0.31500
C 	C 	0.81276 0.92072 0.26915 0.30100
C 	C 	0.79719 0.99183 0.15996 0.27100
C 	C 	0.97224 0.79236 0.24652 0.26400
O 	O 	0.04679 0.15834 0.16630 -0.37900
O 	O 	0.06941 0.36560 0.22044 -0.41600
C 	C 	0.05071 0.50332 0.11232 -0.05200
C 	C 	0.13791 0.54084 0.10945 -0.08200
C 	C 	0.18865 0.52406 0.13506 0.06000
C 	C 	0.15120 0.46295 0.16182 -0.03000
C 	C 	0.06373 0.42087 0.16397 -0.10500
C 	C 	0.01322 0.44638 0.13996 0.10500
C 	C 	0.92020 0.41523 0.14374 -0.21600
H 	H 	0.01189 0.51823 0.09293 0.05800
H 	H 	0.19027 0.44599 0.18064 0.02900
C 	C 	0.28263 0.56885 0.13361 -0.18300
H 	H 	0.89435 0.46181 0.12799 0.06100
H 	H 	0.90562 0.42703 0.16992 0.07600
H 	H 	0.88845 0.33373 0.13596 0.08200
H 	H 	0.30377 0.65106 0.12752 0.04900
H 	H 	0.30398 0.52704 0.11435 0.06400
H 	H 	0.31292 0.56330 0.15788 0.05300
C 	C 	0.73541 0.92607 0.10408 -0.05000
C 	C 	0.72948 0.97154 0.13477 -0.09100
C 	C 	0.65716 0.99285 0.14171 0.06800
C 	C 	0.58957 0.96215 0.11865 -0.04100
C 	C 	0.59426 0.91336 0.08847 -0.10500
C 	C 	0.66863 0.89797 0.08059 0.08300
C 	C 	0.67657 0.85013 0.04755 -0.19800
H 	H 	0.79158 0.91116 0.09870 0.03100
H 	H 	0.53285 0.97543 0.12431 0.01100
C 	C 	0.65079 0.04556 0.17401 -0.18700
H 	H 	0.74228 0.85834 0.04318 0.06100
H 	H 	0.65589 0.88771 0.02681 0.08000
H 	H 	0.63771 0.76739 0.04703 0.07600
H 	H 	0.70880 0.11288 0.17937 0.06300
H 	H 	0.64066 0.99132 0.19469 0.06600
H 	H 	0.59795 0.07344 0.17298 0.05400
C 	C 	0.20734 0.11384 0.09597 -0.05600
C 	C 	0.19899 0.01136 0.09922 -0.07000
C 	C 	0.17972 0.96470 0.13045 0.04000
C 	C 	0.16268 0.01924 0.15713 -0.02100
C 	C 	0.16555 0.11938 0.15309 -0.10600
C 	C 	0.19346 0.16916 0.12301 0.09200
C 	C 	0.20436 0.27980 0.11911 -0.20200
H 	H 	0.22470 0.15058 0.07231 0.05200
H 	H 	0.14345 0.98212 0.18061 0.01000
C 	C 	0.17527 0.85643 0.13529 -0.17900
H 	H 	0.24144 0.31265 0.09701 0.06800
H 	H 	0.23825 0.32554 0.14132 0.07600
H 	H 	0.14228 0.28685 0.11609 0.08900
H 	H 	0.23239 0.84656 0.12609 0.04600
H 	H 	0.11948 0.80220 0.12161 0.08100
H 	H 	0.17048 0.83647 0.16201 0.05700
C 	C 	0.66276 0.89141 0.27398 -0.03600
C 	C 	0.73984 0.90527 0.28984 -0.09900
C 	C 	0.74317 0.88588 0.32418 0.08300
C 	C 	0.66892 0.85071 0.34185 -0.04300
C 	C 	0.59146 0.83299 0.32563 -0.08100
C 	C 	0.58828 0.85350 0.29139 0.06000
C 	C 	0.50587 0.83477 0.27324 -0.18000
H 	H 	0.66045 0.90610 0.24762 0.03300
H 	H 	0.67139 0.83707 0.36828 0.05300
C 	C 	0.82541 0.90161 0.34202 -0.19800
H 	H 	0.51280 0.83764 0.24580 0.05300
H 	H 	0.48080 0.89411 0.28092 0.04800
H 	H 	0.46010 0.75801 0.27888 0.04000
H 	H 	0.86607 0.98366 0.34192 0.07900
H 	H 	0.85736 0.85532 0.32960 0.08100
H 	H 	0.81674 0.87823 0.36838 0.06600
C 	C 	0.29338 0.33029 0.35375 -0.04400
C 	C 	0.24118 0.33795 0.37903 -0.09500
C 	C 	0.16497 0.25620 0.38360 0.08400
C 	C 	0.13337 0.18090 0.35839 -0.04700
C 	C 	0.17935 0.18422 0.32976 -0.09300
C 	C 	0.26426 0.25020 0.32989 0.06500
C 	C 	0.32355 0.23624 0.30491 -0.18600
H 	H 	0.35487 0.38884 0.35171 0.02900
H 	H 	0.07088 0.12435 0.36004 0.05400
C 	C 	0.11434 0.25320 0.41393 -0.19800
H 	H 	0.38764 0.25931 0.31617 0.06000
H 	H 	0.32549 0.28436 0.28306 0.05800
H 	H 	0.30437 0.15489 0.29658 0.07100
H 	H 	0.07655 0.30193 0.41022 0.08800
H 	H 	0.15590 0.28058 0.43643 0.07800
H 	H 	0.07142 0.17398 0.41854 0.07100
C 	C 	0.08637 0.72646 0.25123 -0.05600
C 	C 	0.00367 0.71398 0.25802 -0.04600
C 	C 	0.96588 0.65491 0.28540 0.02600
C 	C 	0.01668 0.63713 0.31060 0.01700
C 	C 	0.10344 0.67098 0.30708 -0.10700
C 	C 	0.13681 0.70426 0.27565 0.07800
C 	C 	0.22706 0.72326 0.26889 -0.18500
H 	H 	0.11404 0.76418 0.22874 0.03700
H 	H 	0.98954 0.60417 0.33376 0.02400
C 	C 	0.87349 0.62436 0.29025 -0.17000
H 	H 	0.23564 0.71412 0.24184 0.05500
H 	H 	0.24849 0.66789 0.28214 0.03000
H 	H 	0.26655 0.80219 0.27721 0.03200
H 	H 	0.83888 0.61002 0.26584 0.06400
H 	H 	0.86108 0.68618 0.30412 0.07100
H 	H 	0.84943 0.55299 0.30454 0.05500
C 	C 	0.51053 0.04227 0.44518 -0.09300
C 	C 	0.42975 0.98670 0.43825 -0.09000
H 	H 	0.55738 0.03927 0.42789 0.06700
H 	H 	0.38166 0.99435 0.45400 0.05800
C 	C 	0.99540 0.38681 0.47576 -0.14400
C 	C 	0.04112 0.48749 0.47320 -0.06600
H 	H 	0.01880 0.32964 0.46635 0.08800
H 	H 	0.01678 0.54418 0.48228 0.05600
C 	C 	0.56237 0.53174 0.49245 -0.09100
C 	C 	0.55078 0.56545 0.46238 -0.09000
H 	H 	0.52902 0.54504 0.51361 0.06300
H 	H 	0.58637 0.55536 0.44148 0.06600
C 	C 	0.77011 0.87497 0.58154 -0.04600
C 	C 	0.77382 0.97455 0.58898 -0.08800
C 	C 	0.78440 0.01015 0.62255 0.05700
C 	C 	0.79895 0.94894 0.64756 -0.04300
C 	C 	0.80628 0.85513 0.63928 -0.09700
C 	C 	0.78269 0.81350 0.60674 0.08500
C 	C 	0.77843 0.70697 0.59814 -0.19900
H 	H 	0.75708 0.84510 0.55611 0.04700
H 	H 	0.81164 0.97822 0.67306 0.01400
C 	C 	0.78129 0.11332 0.63176 -0.18400
H 	H 	0.73852 0.67577 0.57541 0.06700
H 	H 	0.75089 0.65501 0.61878 0.07900
H 	H 	0.84221 0.70805 0.59363 0.08400
H 	H 	0.72127 0.11810 0.62268 0.03900
H 	H 	0.83396 0.17461 0.62050 0.07000
H 	H 	0.78613 0.12729 0.65918 0.05200
C 	C 	0.39634 0.14225 0.62006 -0.03900
C 	C 	0.38657 0.11986 0.58573 -0.09700
C 	C 	0.30595 0.08477 0.57038 0.08200
C 	C 	0.23602 0.06946 0.58991 -0.04000
C 	C 	0.24562 0.09076 0.62434 -0.08600
C 	C 	0.32638 0.12778 0.63958 0.06300
C 	C 	0.33809 0.14910 0.67668 -0.18800
H 	H 	0.45848 0.17050 0.63162 0.02500
H 	H 	0.17393 0.04115 0.57830 0.05300
C 	C 	0.29409 0.06276 0.53331 -0.19300
H 	H 	0.40514 0.17788 0.68468 0.05700
H 	H 	0.30586 0.07780 0.69017 0.06500
H 	H 	0.31212 0.20795 0.68396 0.06000
H 	H 	0.30946 0.99449 0.52691 0.07200
H 	H 	0.33507 0.12927 0.51953 0.08600
H 	H 	0.22863 0.04752 0.52470 0.06700
C 	C 	0.93394 0.55591 0.58264 -0.04400
C 	C 	0.85229 0.49099 0.58940 -0.08700
C 	C 	0.82078 0.49219 0.62124 0.05900
C 	C 	0.87158 0.55742 0.64621 -0.02300
C 	C 	0.95424 0.62190 0.63995 -0.11800
C 	C 	0.98608 0.62004 0.60783 0.07400
C 	C 	0.07505 0.68419 0.60021 -0.18400
H 	H 	0.95766 0.55451 0.55794 0.04300
H 	H 	0.84683 0.55742 0.67076 0.01500
C 	C 	0.73332 0.42250 0.62893 -0.18300
H 	H 	0.09289 0.66233 0.57563 0.06200
H 	H 	0.11893 0.67351 0.61925 0.07500
H 	H 	0.08240 0.76602 0.59949 0.08500
H 	H 	0.72888 0.34162 0.62744 0.05100
H 	H 	0.68770 0.43360 0.61079 0.05700
H 	H 	0.71556 0.43817 0.65428 0.05500
C 	C 	0.91465 0.49059 0.98733 -0.09000
C 	C 	0.96758 0.58818 0.98512 -0.11500
H 	H 	0.93335 0.43631 0.00128 0.05900
H 	H 	0.94891 0.64228 0.97104 0.07300
C 	C 	0.43793 0.95755 0.95051 -0.10800
C 	C 	0.51975 0.00893 0.94601 -0.07000
H 	H 	0.39199 0.96731 0.93317 0.07100
H 	H 	0.56639 0.99666 0.96236 0.05300
C 	C 	0.41562 0.42177 0.97005 -0.08500
C 	C 	0.39603 0.50382 0.96344 -0.09600
H 	H 	0.38950 0.37523 0.99129 0.05900
H 	H 	0.42016 0.54736 0.94139 0.06400
C 	C 	0.94393 0.26657 0.83717 -0.03300
C 	C 	0.86614 0.27226 0.82845 -0.08400
C 	C 	0.84969 0.29220 0.79515 0.06200
C 	C 	0.90518 0.28864 0.77040 -0.03800
C 	C 	0.97376 0.26054 0.77844 -0.09100
C 	C 	0.99939 0.26414 0.81228 0.06400
C 	C 	0.08044 0.25175 0.82187 -0.17900
H 	H 	0.95926 0.25808 0.86303 0.04600
H 	H 	0.88881 0.29400 0.74443 0.02800
C 	C 	0.76975 0.30721 0.78528 -0.18100
H 	H 	0.10172 0.28254 0.84751 0.06900
H 	H 	0.13030 0.29421 0.80476 0.08000
H 	H 	0.07199 0.16951 0.82085 0.09200
H 	H 	0.75076 0.34982 0.80501 0.03900
H 	H 	0.71920 0.23162 0.78076 0.04000
H 	H 	0.77753 0.35189 0.76220 0.05200
C 	C 	0.29445 0.18362 0.77518 -0.03300
C 	C 	0.22923 0.08939 0.77907 -0.09600
C 	C 	0.23719 0.02211 0.80361 0.08400
C 	C 	0.30956 0.05176 0.82441 -0.04100
C 	C 	0.37467 0.14605 0.82037 -0.08700
C 	C 	0.36801 0.21110 0.79493 0.06200
C 	C 	0.43857 0.31067 0.78905 -0.18400
H 	H 	0.28818 0.23541 0.75646 0.03000
H 	H 	0.31482 0.00194 0.84399 0.05200
C 	C 	0.16925 0.91915 0.80776 -0.20400
H 	H 	0.43069 0.34219 0.76454 0.05500
H 	H 	0.49928 0.29925 0.78913 0.04500
H 	H 	0.44047 0.36767 0.80885 0.06800
H 	H 	0.15361 0.87637 0.78353 0.05700
H 	H 	0.11262 0.92925 0.81741 0.08200
H 	H 	0.18897 0.87185 0.82558 0.06500
C 	C 	0.81867 0.58348 0.83396 -0.03500
C 	C 	0.78084 0.60994 0.86132 -0.09900
C 	C 	0.77612 0.70877 0.86347 0.07800
C 	C 	0.80021 0.77383 0.83632 -0.04000
C 	C 	0.83488 0.74514 0.80844 -0.09400
C 	C 	0.84876 0.65172 0.80818 0.05800
C 	C 	0.89532 0.62397 0.78056 -0.17500
H 	H 	0.82618 0.51011 0.83303 0.03900
H 	H 	0.79225 0.84703 0.83697 0.04500
C 	C 	0.74763 0.74645 0.89460 -0.19200
H 	H 	0.91885 0.56329 0.78822 0.05800
H 	H 	0.95051 0.69120 0.77396 0.00300
H 	H 	0.85290 0.59485 0.75840 -0.00400
H 	H 	0.77717 0.72737 0.91716 0.06700
H 	H 	0.67858 0.71168 0.89579 0.07500
H 	H 	0.76559 0.83088 0.89493 0.06600
