data_crystal

_cell_length_a 18.25606
_cell_length_b 17.50427
_cell_length_c 55.74580
_cell_angle_alpha 89.57577
_cell_angle_beta  89.57690
_cell_angle_gamma 119.45275

_symmetry_space_group_name_	'P 1'
_symmetry_space_group_name_H-M	'P 1'

loop_
_symmetry_equiv_pos_as_xyz
  x,y,z

loop_
_atom_site_label
_atom_site_type_symbol
_atom_site_fract_x
_atom_site_fract_y
_atom_site_fract_z
_atom_site_charge
C 	C 	0.86872 0.40604 0.89011 0.30800
C 	C 	0.52592 0.31150 0.89159 0.31400
C 	C 	0.76808 0.44810 0.85611 0.31800
C 	C 	0.57721 0.17117 0.92879 0.29600
C 	C 	0.64394 0.53463 0.92502 0.31100
C 	C 	0.78787 0.46423 0.95831 0.28800
Ni	Ni	0.67821 0.29260 0.88901 1.11200
Ni	Ni	0.61741 0.35898 0.93807 1.12000
Ni	Ni	0.77543 0.49918 0.90679 1.12000
O 	O 	0.80391 0.32523 0.89173 -0.36800
O 	O 	0.87179 0.47176 0.90284 -0.37800
O 	O 	0.63595 0.48092 0.94254 -0.38100
O 	O 	0.55245 0.25598 0.88674 -0.37600
O 	O 	0.52474 0.33607 0.91395 -0.36400
O 	O 	0.79872 0.52469 0.94210 -0.36900
O 	O 	0.70871 0.36584 0.85723 -0.37900
O 	O 	0.76613 0.50464 0.87080 -0.38000
O 	O 	0.71268 0.39285 0.96184 -0.35800
O 	O 	0.64402 0.19572 0.91500 -0.36500
O 	O 	0.57248 0.22744 0.94353 -0.36500
O 	O 	0.69375 0.54548 0.90671 -0.37200
O 	O 	0.69720 0.37758 0.91251 -0.70600
H 	H 	0.73370 0.36277 0.92207 0.14700
C 	C 	0.69864 0.37406 0.56937 0.30700
C 	C 	0.39447 0.14930 0.51703 0.32600
C 	C 	0.54307 0.15073 0.58305 0.33800
C 	C 	0.55399 0.37419 0.49954 0.29100
C 	C 	0.55728 0.05030 0.51432 0.29700
C 	C 	0.75491 0.28931 0.49816 0.28000
Ni	Ni	0.52730 0.27261 0.54768 1.11500
Ni	Ni	0.56546 0.21235 0.49616 1.12400
Ni	Ni	0.66193 0.20528 0.54320 1.12200
O 	O 	0.63599 0.38046 0.55939 -0.36600
O 	O 	0.70180 0.29926 0.56944 -0.37300
O 	O 	0.51989 0.08319 0.50122 -0.37300
O 	O 	0.43053 0.15337 0.53730 -0.37800
O 	O 	0.44180 0.18391 0.49772 -0.36300
O 	O 	0.76050 0.28138 0.52175 -0.37200
O 	O 	0.52907 0.21689 0.58078 -0.37100
O 	O 	0.56419 0.12192 0.56422 -0.39000
O 	O 	0.68402 0.23714 0.48641 -0.36100
O 	O 	0.50620 0.33930 0.51919 -0.36300
O 	O 	0.59344 0.33681 0.48897 -0.36800
O 	O 	0.63389 0.10146 0.52220 -0.37600
O 	O 	0.59945 0.25156 0.52823 -0.71700
H 	H 	0.64484 0.31184 0.52485 0.16400
C 	C 	0.31669 0.25684 0.71550 0.30600
C 	C 	0.16804 0.17605 0.65780 0.32200
Ni	Ni	0.20146 0.07927 0.69677 1.11100
Ni	Ni	0.14563 0.22850 0.70663 1.12300
O 	O 	0.31161 0.18032 0.71092 -0.36300
O 	O 	0.27295 0.28352 0.70244 -0.36900
O 	O 	0.09706 0.98760 0.67856 -0.37500
O 	O 	0.15805 0.25925 0.74142 -0.38200
O 	O 	0.22641 0.16242 0.66724 -0.36700
O 	O 	0.12574 0.20324 0.67105 -0.37500
O 	O 	0.18990 0.98495 0.72274 -0.36000
O 	O 	0.13894 0.11891 0.71464 -0.71500
H 	H 	0.17435 0.13725 0.72897 0.15000
C 	C 	0.16446 0.40250 0.42029 0.30500
C 	C 	0.36942 0.71552 0.48098 0.29900
C 	C 	0.08070 0.52301 0.45547 0.32200
C 	C 	0.42205 0.57130 0.45741 0.29200
C 	C 	0.26732 0.76743 0.41255 0.33100
C 	C 	0.34903 0.64713 0.37949 0.31400
Ni	Ni	0.24458 0.53293 0.46217 1.11700
Ni	Ni	0.38001 0.70012 0.42979 1.12400
Ni	Ni	0.19224 0.58168 0.41128 1.12400
O 	O 	0.16146 0.41639 0.44380 -0.35200
O 	O 	0.17433 0.46191 0.40378 -0.37400
O 	O 	0.34489 0.78035 0.41284 -0.37200
O 	O 	0.32344 0.63117 0.48655 -0.35000
O 	O 	0.35943 0.74492 0.46053 -0.37800
O 	O 	0.27216 0.63707 0.38243 -0.37900
O 	O 	0.14913 0.56195 0.46814 -0.36500
O 	O 	0.08590 0.51589 0.43214 -0.36500
O 	O 	0.40018 0.66288 0.39775 -0.38000
O 	O 	0.34282 0.50860 0.45777 -0.37200
O 	O 	0.44796 0.64966 0.44677 -0.36100
O 	O 	0.20652 0.69599 0.42214 -0.38500
O 	O 	0.27797 0.59174 0.43246 -0.71500
H 	H 	0.29746 0.55533 0.42420 0.16400
C 	C 	0.45379 0.64621 0.97364 0.29000
C 	C 	0.29631 0.70174 0.05993 0.31000
C 	C 	0.23954 0.49524 0.01181 0.31900
C 	C 	0.44514 0.84619 0.03674 0.30000
C 	C 	0.12823 0.63079 0.98581 0.29000
C 	C 	0.35070 0.81680 0.96128 0.27800
Ni	Ni	0.39177 0.66072 0.02275 1.11400
Ni	Ni	0.28038 0.76126 0.01115 1.12000
Ni	Ni	0.28235 0.62767 0.97272 1.12200
O 	O 	0.47613 0.67171 0.99588 -0.35200
O 	O 	0.37366 0.59370 0.96882 -0.36600
O 	O 	0.15804 0.67306 0.00586 -0.36300
O 	O 	0.32598 0.64883 0.05467 -0.37600
O 	O 	0.24744 0.71262 0.04493 -0.37200
O 	O 	0.34721 0.74236 0.95405 -0.36100
O 	O 	0.32066 0.52943 0.01459 -0.36900
O 	O 	0.21025 0.51685 0.99289 -0.36100
O 	O 	0.29701 0.81634 0.97775 -0.36300
O 	O 	0.47183 0.79183 0.03015 -0.36300
O 	O 	0.39303 0.85992 0.02316 -0.37200
O 	O 	0.17960 0.64053 0.96808 -0.37000
O 	O 	0.33076 0.69308 0.00153 -0.70400
H 	H 	0.38250 0.74133 0.99448 0.14300
C 	C 	0.09285 0.25793 0.19137 0.32400
C 	C 	0.04799 0.20748 0.26193 0.32900
C 	C 	0.11840 0.01805 0.18816 0.31000
C 	C 	0.07437 0.98573 0.25446 0.31300
Ni	Ni	0.12245 0.14379 0.22490 1.12300
O 	O 	0.16160 0.07331 0.20524 -0.37500
O 	O 	0.03945 0.25483 0.20768 -0.36300
O 	O 	0.13568 0.21674 0.19494 -0.37300
O 	O 	0.03566 0.93820 0.23524 -0.36900
O 	O 	0.12086 0.07244 0.25327 -0.38500
O 	O 	0.11227 0.23145 0.24679 -0.37200
O 	O 	0.03848 0.99260 0.18509 -0.37200
C 	C 	0.11312 0.39404 0.07462 0.00100
C 	C 	0.12945 0.45507 0.09285 -0.02900
C 	C 	0.11752 0.42808 0.11694 -0.02900
C 	C 	0.08847 0.33980 0.12289 -0.00100
C 	C 	0.06588 0.27775 0.10465 -0.02900
C 	C 	0.07829 0.30483 0.08056 -0.02900
C 	C 	0.14882 0.42492 0.05104 0.06200
C 	C 	0.18580 0.45440 0.03228 -0.10100
C 	C 	0.08988 0.31418 0.14746 0.05600
C 	C 	0.09166 0.29044 0.16772 -0.09600
H 	H 	0.15599 0.52414 0.08844 0.05500
H 	H 	0.04221 0.20914 0.10911 0.05200
H 	H 	0.06514 0.25711 0.06662 0.05100
C 	C 	0.57451 0.97152 0.09539 0.00600
C 	C 	0.54884 0.91976 0.11640 -0.03600
C 	C 	0.60796 0.92951 0.13364 -0.02900
C 	C 	0.69285 0.99163 0.13006 -0.00300
C 	C 	0.71724 0.04903 0.11025 -0.03300
C 	C 	0.65805 0.03931 0.09302 -0.03900
C 	C 	0.52452 0.93834 0.07424 0.04800
C 	C 	0.48577 0.90167 0.05664 -0.09300
C 	C 	0.75508 0.99609 0.14655 0.06100
C 	C 	0.80813 0.00295 0.16047 -0.11800
H 	H 	0.48450 0.86710 0.11843 0.04400
H 	H 	0.58823 0.88648 0.14926 0.04500
H 	H 	0.78248 0.09901 0.10774 0.04200
H 	H 	0.67848 0.08021 0.07697 0.04800
C 	C 	0.22257 0.88891 0.15344 -0.00200
C 	C 	0.29831 0.93545 0.14054 -0.02200
C 	C 	0.32696 0.89061 0.12595 -0.03500
C 	C 	0.27982 0.79897 0.12410 -0.00300
C 	C 	0.20793 0.75205 0.13864 -0.03000
C 	C 	0.17917 0.79694 0.15321 -0.03000
C 	C 	0.18634 0.93546 0.16547 0.05100
C 	C 	0.15546 0.97384 0.17555 -0.08800
C 	C 	0.29129 0.75768 0.10324 0.04800
C 	C 	0.29652 0.72813 0.08424 -0.10300
H 	H 	0.33305 0.00650 0.14095 0.04000
H 	H 	0.38233 0.92764 0.11473 0.04500
H 	H 	0.17118 0.68125 0.13744 0.04500
H 	H 	0.12133 0.76034 0.16350 0.04800
C 	C 	0.60519 0.81241 0.28212 -0.00200
C 	C 	0.58787 0.73018 0.29114 -0.03100
C 	C 	0.52234 0.68557 0.30778 -0.03100
C 	C 	0.47395 0.72308 0.31550 -0.00000
C 	C 	0.48765 0.80246 0.30520 -0.03200
C 	C 	0.55328 0.84715 0.28859 -0.03200
C 	C 	0.67993 0.86396 0.26783 0.04800
C 	C 	0.74320 0.90652 0.25609 -0.09800
C 	C 	0.42345 0.69032 0.33701 0.05000
C 	C 	0.38619 0.66747 0.35594 -0.09200
H 	H 	0.62710 0.70236 0.28598 0.04500
H 	H 	0.51205 0.62412 0.31559 0.04800
H 	H 	0.45035 0.83180 0.31100 0.04500
H 	H 	0.56562 0.91019 0.28145 0.04500
C 	C 	0.09538 0.18636 0.38171 -0.00200
C 	C 	0.01344 0.14797 0.37271 -0.01600
C 	C 	0.00049 0.13519 0.34800 -0.01100
C 	C 	0.06904 0.15724 0.33252 -0.01100
C 	C 	0.14715 0.17771 0.34218 -0.02900
C 	C 	0.15975 0.19033 0.36691 -0.03200
C 	C 	0.11813 0.25147 0.40001 0.05600
C 	C 	0.13872 0.31606 0.41183 -0.08600
C 	C 	0.06312 0.17468 0.30747 0.06300
C 	C 	0.05730 0.19068 0.28669 -0.10900
H 	H 	0.96188 0.13946 0.38426 0.03300
H 	H 	0.19969 0.19065 0.33044 0.04500
H 	H 	0.22245 0.21482 0.37394 0.04800
C 	C 	0.19402 0.85725 0.35552 -0.00300
C 	C 	0.19816 0.82134 0.33350 -0.03000
C 	C 	0.16309 0.83647 0.31308 -0.03100
C 	C 	0.12386 0.88780 0.31453 0.00100
C 	C 	0.11924 0.92339 0.33659 -0.03000
C 	C 	0.15400 0.90786 0.35708 -0.02800
C 	C 	0.22330 0.83440 0.37678 0.05900
C 	C 	0.24552 0.80849 0.39378 -0.10500
C 	C 	0.10001 0.91477 0.29294 0.05200
C 	C 	0.08488 0.94292 0.27502 -0.09200
H 	H 	0.22815 0.78125 0.33224 0.04700
H 	H 	0.16792 0.80975 0.29604 0.04700
H 	H 	0.09016 0.96437 0.33777 0.05000
H 	H 	0.14967 0.93498 0.37410 0.05100
C 	C 	0.42593 0.77989 0.49881 -0.05700
C 	C 	0.51366 0.82849 0.49391 0.00200
C 	C 	0.56100 0.91565 0.50180 0.00100
C 	C 	0.52138 0.95378 0.51489 -0.05200
C 	C 	0.43901 0.89956 0.52398 0.00300
C 	C 	0.39137 0.81213 0.51602 0.00800
C 	C 	0.55586 0.78971 0.48093 0.08100
C 	C 	0.40298 0.93411 0.54109 0.10000
C 	C 	0.30569 0.75712 0.52451 0.10000
C 	C 	0.64947 0.96735 0.49535 0.10600
N 	N 	0.23725 0.71314 0.53128 -0.10100
N 	N 	0.72001 0.00852 0.49019 -0.10700
N 	N 	0.37398 0.96141 0.55478 -0.09700
N 	N 	0.59239 0.76127 0.47076 -0.10200
C 	C 	0.99826 0.46703 0.46773 -0.07900
C 	C 	0.98708 0.39650 0.48276 -0.00700
C 	C 	0.05947 0.39158 0.49135 0.09900
N 	N 	0.11708 0.38753 0.49829 -0.13100
N 	N 	0.71652 0.41682 0.45189 -0.10200
C 	C 	0.54838 0.44545 0.48664 -0.05700
C 	C 	0.52950 0.43876 0.46185 0.00600
C 	C 	0.50656 0.49724 0.45128 0.00400
C 	C 	0.48516 0.54852 0.46600 -0.05500
C 	C 	0.50566 0.55616 0.49063 0.00400
C 	C 	0.54691 0.51273 0.49989 0.00400
C 	C 	0.52416 0.36658 0.44793 0.10000
C 	C 	0.47410 0.59722 0.50705 0.08900
C 	C 	0.58523 0.53512 0.52334 0.08800
C 	C 	0.49850 0.49967 0.42547 0.09400
N 	N 	0.61584 0.55301 0.54204 -0.10600
N 	N 	0.49200 0.50167 0.40487 -0.10700
N 	N 	0.44909 0.62904 0.52058 -0.10400
N 	N 	0.51961 0.30891 0.43677 -0.11100
C 	C 	0.68879 0.03314 0.66615 -0.04000
C 	C 	0.62839 0.03318 0.65090 -0.03900
C 	C 	0.62629 0.11107 0.64664 -0.00300
C 	C 	0.58875 0.12037 0.62508 0.05600
C 	C 	0.56400 0.13187 0.60619 -0.11000
H 	H 	0.69371 0.97419 0.66812 0.05400
H 	H 	0.58760 0.97450 0.64103 0.05500
C 	C 	0.17911 0.13482 0.53838 0.00500
C 	C 	0.18923 0.21515 0.54647 -0.03100
C 	C 	0.16836 0.22241 0.57026 -0.02700
C 	C 	0.13303 0.14818 0.58537 -0.00200
C 	C 	0.10503 0.06519 0.57541 -0.02300
C 	C 	0.12625 0.05847 0.55162 -0.04000
C 	C 	0.24771 0.13645 0.52511 0.05400
C 	C 	0.31246 0.14061 0.51844 -0.10100
C 	C 	0.14307 0.15873 0.61100 0.05400
C 	C 	0.15423 0.16712 0.63236 -0.09600
H 	H 	0.22469 0.27413 0.53568 0.05100
H 	H 	0.18653 0.28658 0.57744 0.04900
H 	H 	0.07379 0.00672 0.58662 0.04700
H 	H 	0.11252 0.99494 0.54488 0.06300
H 	H 	0.71961 0.52180 0.64017 0.04700
C 	C 	0.99986 0.49552 0.97031 -0.04600
C 	C 	0.03481 0.57659 0.98259 -0.00300
C 	C 	0.01327 0.68864 0.00399 0.13300
C 	C 	0.05373 0.46380 0.96060 0.12400
N 	N 	0.78914 0.59500 0.01019 -0.10200
N 	N 	0.09609 0.43801 0.95264 -0.11600
N 	N 	0.03984 0.75585 0.01329 -0.11000
C 	C 	0.52160 0.07585 0.93382 -0.05300
C 	C 	0.43527 0.03469 0.92801 -0.01200
C 	C 	0.38051 0.94689 0.93530 0.01700
C 	C 	0.41082 0.90132 0.94937 -0.06000
C 	C 	0.49753 0.94140 0.95445 0.01300
C 	C 	0.55297 0.02781 0.94633 -0.00600
C 	C 	0.40219 0.08280 0.91497 0.09200
C 	C 	0.52923 0.89600 0.96920 0.08300
C 	C 	0.64190 0.06823 0.95164 0.10100
C 	C 	0.29287 0.90353 0.92838 0.09800
N 	N 	0.71277 0.10016 0.95593 -0.10000
N 	N 	0.22294 0.86890 0.92286 -0.09800
N 	N 	0.55544 0.86073 0.98104 -0.10000
N 	N 	0.37485 0.12042 0.90459 -0.10300
C 	C 	0.51955 0.65409 0.95586 -0.05300
C 	C 	0.49630 0.62195 0.93230 0.00400
C 	C 	0.54522 0.59322 0.91949 0.00400
C 	C 	0.61870 0.60129 0.92979 -0.06500
C 	C 	0.65342 0.65672 0.94953 0.00900
C 	C 	0.60346 0.68207 0.96304 0.00300
C 	C 	0.42692 0.62486 0.92070 0.09000
C 	C 	0.73997 0.68645 0.95602 0.09700
C 	C 	0.63988 0.74004 0.98322 0.10700
C 	C 	0.52198 0.55886 0.89554 0.09400
N 	N 	0.66944 0.78621 0.99933 -0.09900
N 	N 	0.50352 0.53201 0.87633 -0.10800
N 	N 	0.80917 0.71039 0.96113 -0.10200
N 	N 	0.37155 0.62721 0.91142 -0.11100
C 	C 	0.41876 0.35400 0.83318 0.00400
C 	C 	0.33801 0.29018 0.82628 -0.03100
C 	C 	0.31591 0.28110 0.80207 -0.02800
C 	C 	0.37393 0.33677 0.78469 -0.00300
C 	C 	0.45164 0.40587 0.79185 -0.02900
C 	C 	0.47389 0.41468 0.81607 -0.03000
C 	C 	0.45177 0.34339 0.85559 0.05900
C 	C 	0.48318 0.33097 0.87309 -0.08900
C 	C 	0.35810 0.31530 0.75965 0.05600
C 	C 	0.34181 0.29196 0.73912 -0.10900
H 	H 	0.29458 0.24355 0.83938 0.05000
H 	H 	0.25572 0.22742 0.79671 0.04700
H 	H 	0.49650 0.44992 0.77857 0.04600
H 	H 	0.53618 0.46487 0.82125 0.05300
C 	C 	0.93084 0.57076 0.80059 -0.02900
C 	C 	0.90365 0.58451 0.77834 -0.01600
C 	C 	0.86963 0.51811 0.81874 0.05700
C 	C 	0.82083 0.48132 0.83509 -0.11000
H 	H 	0.93415 0.67037 0.74761 0.05000
H 	H 	0.83911 0.54290 0.77293 0.04000
O 	O 	0.02435 0.19963 0.70984 -0.37300
H 	H 	0.02164 0.74103 0.62847 0.06200
H 	H 	0.08936 0.22476 0.84567 0.04800
N 	N 	0.94791 0.60858 0.43532 -0.10900
C 	C 	0.81863 0.95546 0.24205 0.31300
H 	H 	0.93878 0.11523 0.34080 0.02800
C 	C 	0.93883 0.54908 0.44678 0.08500
C 	C 	0.95750 0.65695 0.76402 -0.05800
H 	H 	0.09951 0.51084 0.83310 0.04300
H 	H 	0.04462 0.28800 0.87825 0.05400
H 	H 	0.13414 0.47633 0.13093 0.04500
C 	C 	0.77346 0.41343 0.45963 0.09000
H 	H 	0.14571 0.44850 0.80070 0.04800
O 	O 	0.00215 0.07658 0.22388 -0.68700
O 	O 	0.97168 0.18256 0.25376 -0.38900
C 	C 	0.78574 0.56911 0.63771 -0.03000
C 	C 	0.82487 0.63903 0.65355 -0.03300
C 	C 	0.74976 0.44026 0.58606 -0.09000
H 	H 	0.78885 0.64538 0.66817 0.04500
C 	C 	0.97978 0.60443 0.99232 -0.04800
C 	C 	0.12546 0.41419 0.81780 -0.03300
C 	C 	0.09984 0.44984 0.83623 -0.02400
C 	C 	0.94501 0.41552 0.88004 -0.12000
C 	C 	0.01502 0.62421 0.80714 -0.00500
H 	H 	0.03698 0.61348 0.82417 0.04100
C 	C 	0.02983 0.92446 0.68906 0.34500
C 	C 	0.14402 0.96250 0.74298 0.32200
C 	C 	0.96015 0.12417 0.70357 0.31600
C 	C 	0.10698 0.20615 0.75848 0.30600
Ni	Ni	0.03757 0.03774 0.73021 1.12100
O 	O 	0.96001 0.05001 0.70725 -0.39800
O 	O 	0.01433 0.92714 0.71206 -0.37700
O 	O 	0.03989 0.12906 0.75340 -0.37400
O 	O 	0.11060 0.00922 0.75127 -0.39400
C 	C 	0.87242 0.01825 0.17742 0.32700
Ni	Ni	0.94041 0.13511 0.21907 1.10600
Ni	Ni	0.95874 0.96016 0.21305 1.11200
O 	O 	0.82665 0.02287 0.22883 -0.37800
O 	O 	0.86882 0.92121 0.23902 -0.38400
O 	O 	0.92336 0.09897 0.18356 -0.39400
O 	O 	0.86778 0.95204 0.19010 -0.37400
H 	H 	0.98944 0.06220 0.24102 0.12700
C 	C 	0.83505 0.34118 0.48430 -0.05200
C 	C 	0.84588 0.41045 0.46884 -0.00500
C 	C 	0.92751 0.47451 0.46115 0.01000
C 	C 	0.90538 0.33128 0.48981 0.00500
C 	C 	0.89336 0.25244 0.50206 0.09300
N 	N 	0.88383 0.18959 0.51184 -0.10700
C 	C 	0.74699 0.11093 0.67722 -0.00000
C 	C 	0.67813 0.18601 0.65990 -0.03100
C 	C 	0.73872 0.18608 0.67508 -0.03300
C 	C 	0.82198 0.11730 0.68729 0.04900
C 	C 	0.88536 0.12161 0.69495 -0.10200
H 	H 	0.67600 0.24618 0.65701 0.04600
H 	H 	0.78246 0.24603 0.68398 0.04500
C 	C 	0.83129 0.56182 0.61835 -0.00300
C 	C 	0.90968 0.70171 0.65009 -0.00100
C 	C 	0.95591 0.69283 0.63118 -0.04900
C 	C 	0.91674 0.62305 0.61532 -0.02500
C 	C 	0.78861 0.49562 0.60065 0.05100
C 	C 	0.94812 0.77808 0.66490 0.05600
C 	C 	0.98325 0.84395 0.67649 -0.12100
H 	H 	0.95233 0.61772 0.60041 0.04400
C 	C 	0.85991 0.48089 0.97360 -0.07300
C 	C 	0.91210 0.44669 0.96661 0.02100
C 	C 	0.89205 0.55313 0.98902 0.02600
C 	C 	0.87596 0.36297 0.95463 0.07900
C 	C 	0.83487 0.57648 0.00078 0.08900
N 	N 	0.84725 0.29615 0.94505 -0.09700
C 	C 	0.11644 0.33032 0.82062 0.00200
C 	C 	0.06484 0.40145 0.85741 -0.01000
C 	C 	0.06894 0.32448 0.86158 -0.02300
C 	C 	0.09378 0.28833 0.84308 -0.03300
C 	C 	0.11390 0.28166 0.79970 0.04800
C 	C 	0.11011 0.24408 0.78136 -0.09400
C 	C 	0.00331 0.41377 0.87039 0.08100
C 	C 	0.06867 0.69705 0.79291 -0.04600
C 	C 	0.03859 0.71615 0.77195 0.02400
C 	C 	0.08288 0.80312 0.76149 0.04700
C 	C 	0.11453 0.87628 0.75301 -0.09200
H 	H 	0.13167 0.74162 0.79901 0.05200
