data_crystal

_cell_length_a 14.94500
_cell_length_b 15.54903
_cell_length_c 34.98508
_cell_angle_alpha 95.41212
_cell_angle_beta  95.41314
_cell_angle_gamma 126.70785

_symmetry_space_group_name_	'P 1'
_symmetry_space_group_name_H-M	'P 1'

loop_
_symmetry_equiv_pos_as_xyz
  x,y,z

loop_
_atom_site_label
_atom_site_type_symbol
_atom_site_fract_x
_atom_site_fract_y
_atom_site_fract_z
_atom_site_charge
C 	C 	0.01773 0.90867 0.99773 -0.05700
C 	C 	0.07577 0.01952 0.99646 0.03000
C 	C 	0.01489 0.06117 0.99130 -0.07300
H 	H 	0.06563 0.87857 0.00436 0.03900
H 	H 	0.06048 0.14822 0.99293 0.04800
C 	C 	0.03112 0.09698 0.47743 -0.06400
C 	C 	0.08603 0.04864 0.47823 0.01800
C 	C 	0.02100 0.93458 0.47364 -0.06100
H 	H 	0.08055 0.18469 0.47967 0.04200
H 	H 	0.06167 0.89581 0.47182 0.04300
C 	C 	0.20116 0.09231 0.00176 -0.02100
H 	H 	0.20459 0.15805 0.95144 0.06900
C 	C 	0.21093 0.11777 0.48079 -0.00200
C 	C 	0.25384 0.15466 0.97534 -0.13400
H 	H 	0.24951 0.08696 0.02533 0.04200
C 	C 	0.89544 0.99096 0.98578 0.02400
C 	C 	0.83753 0.87873 0.98527 -0.07000
C 	C 	0.89827 0.83686 0.99056 0.01600
H 	H 	0.74553 0.82435 0.98116 0.04400
C 	C 	0.91241 0.03214 0.47340 0.01300
C 	C 	0.90312 0.87015 0.47098 0.01700
C 	C 	0.84861 0.91862 0.47003 -0.06300
H 	H 	0.75663 0.86784 0.46564 0.04900
Cu	Cu	0.77046 0.33444 0.95664 0.92700
Cu	Cu	0.77350 0.25148 0.03956 0.86700
Cu	Cu	0.59970 0.28051 0.01038 0.89300
Cu	Cu	0.56954 0.34644 0.93490 0.89300
C 	C 	0.68106 0.30816 0.87607 0.29400
O 	O 	0.84756 0.49586 0.95772 -0.36900
C 	C 	0.68439 0.31246 0.09491 0.29600
O 	O 	0.59634 0.25449 0.95547 -0.63900
O 	O 	0.76513 0.35067 0.01305 -0.64500
O 	O 	0.84560 0.26204 0.95627 -0.37700
O 	O 	0.73568 0.14718 0.99556 -0.44300
O 	O 	0.64146 0.36054 0.88816 -0.39000
O 	O 	0.43716 0.20517 0.00362 -0.39500
C 	C 	0.37749 0.21688 0.97719 0.30900
C 	C 	0.80745 0.54457 0.97262 0.30200
O 	O 	0.70323 0.48552 0.97931 -0.39500
O 	O 	0.42720 0.29201 0.95521 -0.40200
O 	O 	0.74477 0.29715 0.90079 -0.36600
C 	C 	0.80681 0.17421 0.97145 0.30500
O 	O 	0.59822 0.27867 0.06682 -0.39400
O 	O 	0.77446 0.32269 0.08709 -0.42700
H 	H 	0.54268 0.17663 0.94255 0.15900
H 	H 	0.81554 0.42695 0.02765 0.16700
Cu	Cu	0.62561 0.22290 0.51009 0.92200
Cu	Cu	0.67513 0.19554 0.42306 0.87100
Cu	Cu	0.63612 0.37095 0.45660 0.90900
Cu	Cu	0.60451 0.40926 0.53884 0.89400
C 	C 	0.63900 0.28532 0.59118 0.29900
O 	O 	0.45928 0.13620 0.51484 -0.37900
C 	C 	0.65205 0.32889 0.37873 0.29700
O 	O 	0.69210 0.38687 0.51046 -0.63900
O 	O 	0.58660 0.21896 0.45390 -0.63700
O 	O 	0.72722 0.17856 0.50826 -0.38300
O 	O 	0.65485 0.08132 0.44584 -0.43300
O 	O 	0.63577 0.36757 0.58787 -0.39100
O 	O 	0.69634 0.52131 0.45990 -0.38600
C 	C 	0.70135 0.58156 0.49051 0.30800
C 	C 	0.39995 0.17086 0.50555 0.29900
O 	O 	0.45146 0.27116 0.49975 -0.40300
O 	O 	0.63617 0.53628 0.51652 -0.40200
O 	O 	0.67661 0.25315 0.56520 -0.37100
C 	C 	0.70941 0.10234 0.48124 0.30800
O 	O 	0.59975 0.35177 0.40060 -0.38500
O 	O 	0.72373 0.31425 0.39515 -0.43800
H 	H 	0.77537 0.44316 0.51873 0.15800
H 	H 	0.50432 0.16390 0.44316 0.15800
C 	C 	0.62669 0.17091 0.77196 -0.09200
C 	C 	0.66626 0.25864 0.75241 0.00200
C 	C 	0.71698 0.36391 0.77387 0.02500
C 	C 	0.72531 0.37931 0.81455 -0.01500
C 	C 	0.68221 0.29101 0.83402 -0.10500
C 	C 	0.63384 0.18611 0.81271 0.09300
C 	C 	0.64823 0.23875 0.70919 0.00300
C 	C 	0.75869 0.45915 0.75335 -0.17200
H 	H 	0.76348 0.45990 0.83107 0.04100
C 	C 	0.58861 0.09025 0.83312 -0.20200
H 	H 	0.58863 0.09046 0.75536 0.04900
C 	C 	0.73547 0.25795 0.68971 0.02300
C 	C 	0.72906 0.26755 0.65021 -0.01500
C 	C 	0.63438 0.25336 0.62972 -0.10600
C 	C 	0.54035 0.21893 0.64786 0.09500
C 	C 	0.54893 0.21394 0.68776 -0.09300
C 	C 	0.83838 0.27485 0.71148 -0.17200
H 	H 	0.79971 0.29045 0.63591 0.04200
C 	C 	0.43278 0.19195 0.62531 -0.20300
H 	H 	0.48035 0.19542 0.70254 0.05000
H 	H 	0.65944 0.10355 0.85333 0.07900
H 	H 	0.54690 0.01271 0.81200 0.06400
H 	H 	0.52461 0.08041 0.84995 0.06200
H 	H 	0.68624 0.44390 0.73345 0.06400
H 	H 	0.82263 0.47072 0.73613 0.06300
H 	H 	0.79941 0.53656 0.77440 0.05900
H 	H 	0.88873 0.27046 0.69107 0.05900
H 	H 	0.81196 0.21050 0.72922 0.06300
H 	H 	0.89374 0.35619 0.73106 0.06100
H 	H 	0.36013 0.14300 0.64044 0.06600
H 	H 	0.40983 0.14300 0.59584 0.07300
H 	H 	0.44487 0.26852 0.62225 0.06800
C 	C 	0.64201 0.39856 0.19249 -0.09500
C 	C 	0.65340 0.33508 0.21535 0.00400
C 	C 	0.67055 0.26124 0.19822 0.01900
C 	C 	0.67932 0.25433 0.15869 -0.01300
C 	C 	0.67078 0.31963 0.13598 -0.11400
C 	C 	0.65208 0.39255 0.15295 0.09800
C 	C 	0.65027 0.34818 0.25755 0.00200
C 	C 	0.68000 0.19010 0.22206 -0.16800
H 	H 	0.69286 0.19794 0.14549 0.02200
C 	C 	0.64297 0.46393 0.12918 -0.20300
H 	H 	0.62752 0.45418 0.20570 0.05000
C 	C 	0.75162 0.42248 0.28536 0.02100
C 	C 	0.75014 0.41765 0.32517 -0.01300
C 	C 	0.64851 0.34150 0.33754 -0.11500
C 	C 	0.54564 0.27276 0.30994 0.09100
C 	C 	0.54735 0.27748 0.27010 -0.09300
C 	C 	0.86222 0.50334 0.27257 -0.17000
H 	H 	0.82855 0.47178 0.34651 0.03400
C 	C 	0.43474 0.19216 0.32265 -0.19900
H 	H 	0.46934 0.22248 0.24865 0.04800
H 	H 	0.64254 0.52554 0.14785 0.06300
H 	H 	0.56290 0.41275 0.10712 0.07500
H 	H 	0.71648 0.50882 0.11412 0.06500
H 	H 	0.60116 0.13734 0.23389 0.05800
H 	H 	0.75371 0.24180 0.24667 0.05700
H 	H 	0.69227 0.13607 0.20427 0.05200
H 	H 	0.93092 0.56307 0.29788 0.05600
H 	H 	0.85183 0.55009 0.25294 0.06100
H 	H 	0.88927 0.45951 0.25680 0.05800
H 	H 	0.36322 0.14066 0.29729 0.06100
H 	H 	0.41421 0.23656 0.34198 0.07500
H 	H 	0.44092 0.13695 0.33863 0.05100
C 	C 	0.83668 0.75115 0.46788 0.00100
C 	C 	0.76140 0.69876 0.49127 -0.14900
H 	H 	0.85598 0.70762 0.44855 0.03600
H 	H 	0.74778 0.74400 0.51237 0.07300
C 	C 	0.77118 0.05760 0.48833 -0.15300
C 	C 	0.85442 0.08220 0.46871 0.00400
H 	H 	0.75122 0.00713 0.51043 0.07300
H 	H 	0.88077 0.14063 0.44926 0.01200
C 	C 	0.27507 0.09612 0.50068 -0.15200
H 	H 	0.25154 0.19050 0.46780 0.03400
H 	H 	0.23561 0.02481 0.51440 0.07000
C 	C 	0.87310 0.66398 0.97553 -0.15200
C 	C 	0.83586 0.71811 0.99046 0.00700
H 	H 	0.95056 0.70733 0.96360 0.07500
H 	H 	0.75591 0.67379 0.00090 0.02500
C 	C 	0.83140 0.03614 0.98572 -0.00100
C 	C 	0.85687 0.11644 0.96601 -0.15800
H 	H 	0.76297 0.00342 0.00219 0.01900
H 	H 	0.91967 0.14371 0.94731 0.07400
