data_crystal

_cell_length_a 17.84044
_cell_length_b 16.48743
_cell_length_c 24.58966
_cell_angle_alpha 89.99792
_cell_angle_beta  89.99945
_cell_angle_gamma 100.71246

_symmetry_space_group_name_	'P 1'
_symmetry_space_group_name_H-M	'P 1'

loop_
_symmetry_equiv_pos_as_xyz
  x,y,z

loop_
_atom_site_label
_atom_site_type_symbol
_atom_site_fract_x
_atom_site_fract_y
_atom_site_fract_z
_atom_site_charge
Ni	Ni	0.34912 0.66393 0.81446 1.09900
O 	O 	0.31275 0.74898 0.76566 -0.70500
Ni	Ni	0.28604 0.68267 0.69769 1.09800
O 	O 	0.40988 0.74969 0.86594 -0.37900
O 	O 	0.47417 0.82043 0.79511 -0.41500
O 	O 	0.25690 0.66018 0.86584 -0.37100
Ni	Ni	0.38597 0.84878 0.74738 1.06700
O 	O 	0.25770 0.49197 0.84898 -0.40900
O 	O 	0.44058 0.82244 0.67741 -0.40000
O 	O 	0.27179 0.77222 0.64188 -0.37900
O 	O 	0.30756 0.59465 0.75086 -0.70300
O 	O 	0.37767 0.57083 0.85902 -0.37800
O 	O 	0.24638 0.59317 0.64128 -0.37100
O 	O 	0.15808 0.52616 0.70136 -0.41200
Ni	Ni	0.21714 0.51776 0.77385 1.06400
H 	H 	0.26594 0.76477 0.78051 0.15600
H 	H 	0.34627 0.56405 0.73680 0.15500
C 	C 	0.44556 0.74863 0.65922 0.30100
O 	O 	0.16610 0.60877 0.80350 -0.42100
C 	C 	0.46557 0.80700 0.84779 0.26700
C 	C 	0.29273 0.85296 0.64951 0.29100
C 	C 	0.18471 0.64161 0.85121 0.28700
C 	C 	0.19026 0.53130 0.65276 0.26700
C 	C 	0.33115 0.49845 0.86122 0.27100
O 	O 	0.39534 0.68279 0.67230 -0.39900
O 	O 	0.30627 0.88408 0.69885 -0.42200
Ni	Ni	0.67425 0.34477 0.31811 1.10000
O 	O 	0.70321 0.25660 0.26810 -0.70000
Ni	Ni	0.73428 0.32267 0.20051 1.09800
O 	O 	0.61371 0.26219 0.37182 -0.37700
O 	O 	0.54225 0.19412 0.30322 -0.41200
O 	O 	0.76882 0.34330 0.36653 -0.37100
Ni	Ni	0.62295 0.16159 0.25044 1.06700
O 	O 	0.77512 0.51162 0.35238 -0.40800
O 	O 	0.56138 0.19373 0.18526 -0.39600
O 	O 	0.74544 0.23106 0.14533 -0.38300
O 	O 	0.71557 0.41224 0.25352 -0.70200
O 	O 	0.65242 0.44031 0.36358 -0.38000
O 	O 	0.77413 0.41042 0.14315 -0.37500
O 	O 	0.86488 0.47797 0.20128 -0.41100
Ni	Ni	0.80874 0.48621 0.27511 1.06400
H 	H 	0.74807 0.23627 0.28260 0.15400
H 	H 	0.67769 0.44410 0.23969 0.15700
C 	C 	0.58161 0.25994 0.15500 0.30000
O 	O 	0.85679 0.39121 0.30160 -0.42300
C 	C 	0.55635 0.20544 0.35548 0.26900
C 	C 	0.71183 0.15250 0.15026 0.28500
C 	C 	0.84021 0.35910 0.34974 0.28800
C 	C 	0.83096 0.47203 0.15329 0.27000
C 	C 	0.70351 0.50905 0.36823 0.27300
O 	O 	0.62655 0.32502 0.17442 -0.40200
O 	O 	0.69499 0.11905 0.19864 -0.42200
C 	C 	0.12436 0.64331 0.89244 -0.07400
C 	C 	0.14419 0.67191 0.94522 0.00200
C 	C 	0.09119 0.65669 0.98752 -0.05200
C 	C 	0.01580 0.61490 0.97738 -0.00100
C 	C 	0.99516 0.58866 0.92357 0.01200
C 	C 	0.04858 0.60609 0.88125 -0.02500
C 	C 	0.92356 0.53942 0.91333 -0.04400
C 	C 	0.87514 0.50960 0.95622 -0.04200
C 	C 	0.89538 0.53259 0.00985 0.00900
C 	C 	0.96265 0.59099 0.02040 0.00800
C 	C 	0.97496 0.62331 0.07352 -0.05200
C 	C 	0.92989 0.58670 0.11662 -0.00000
C 	C 	0.86983 0.52008 0.10708 -0.07200
C 	C 	0.84980 0.49674 0.05327 -0.01900
H 	H 	0.20202 0.70236 0.95422 0.04200
H 	H 	0.11084 0.67255 0.02835 0.04200
H 	H 	0.03233 0.58579 0.84025 0.03900
H 	H 	0.90702 0.52056 0.87215 0.03600
H 	H 	0.82202 0.46772 0.94773 0.03600
H 	H 	0.01671 0.67846 0.08137 0.03800
H 	H 	0.94187 0.61011 0.15748 0.02300
H 	H 	0.80032 0.44914 0.04524 0.04700
C 	C 	0.90241 0.35804 0.38951 -0.07500
C 	C 	0.97580 0.40300 0.37897 0.00200
C 	C 	0.02970 0.41949 0.42059 -0.05500
C 	C 	0.01208 0.38848 0.47362 0.00300
C 	C 	0.93884 0.34012 0.48360 0.01000
C 	C 	0.88583 0.32256 0.44100 -0.01800
C 	C 	0.91698 0.31569 0.53681 -0.04300
C 	C 	0.96369 0.34497 0.58069 -0.03900
C 	C 	0.03507 0.39528 0.57193 0.00500
C 	C 	0.06257 0.41152 0.51828 0.00500
C 	C 	0.13926 0.45091 0.51090 -0.05300
C 	C 	0.18197 0.48744 0.55510 0.00000
C 	C 	0.15033 0.48158 0.60757 -0.07200
C 	C 	0.07877 0.43097 0.61625 -0.02200
H 	H 	0.98986 0.42967 0.33916 0.03100
H 	H 	0.08261 0.46106 0.41202 0.04000
H 	H 	0.82995 0.28561 0.44890 0.04500
H 	H 	0.86171 0.27737 0.54447 0.03800
H 	H 	0.94384 0.32933 0.62170 0.03400
H 	H 	0.16710 0.45040 0.47192 0.04100
H 	H 	0.23971 0.52029 0.54847 0.04100
H 	H 	0.05611 0.42133 0.65715 0.03500
C 	C 	0.50461 0.15825 0.39595 -0.07500
C 	C 	0.49635 0.19193 0.44750 0.00300
C 	C 	0.45294 0.14500 0.48767 -0.05300
C 	C 	0.41467 0.06372 0.47634 0.00500
C 	C 	0.42508 0.02899 0.42471 0.00400
C 	C 	0.46788 0.07731 0.38441 -0.02100
C 	C 	0.39669 0.94507 0.41497 -0.04000
C 	C 	0.36178 0.89426 0.45658 -0.04400
C 	C 	0.35034 0.92737 0.50774 0.00900
C 	C 	0.37171 0.01335 0.51686 0.00300
C 	C 	0.34892 0.04656 0.56580 -0.05600
C 	C 	0.31875 0.99412 0.60828 0.00300
C 	C 	0.30743 0.90813 0.60168 -0.07400
C 	C 	0.31878 0.87522 0.55028 -0.01800
H 	H 	0.52519 0.25410 0.45699 0.04200
H 	H 	0.45330 0.17051 0.52814 0.04000
H 	H 	0.47551 0.05062 0.34492 0.02200
H 	H 	0.40444 0.91834 0.37556 0.03200
H 	H 	0.34366 0.82878 0.44900 0.03700
H 	H 	0.35165 0.11221 0.57052 0.03900
H 	H 	0.30480 0.02047 0.64648 0.02700
H 	H 	0.30649 0.80893 0.54407 0.04800
C 	C 	0.69811 0.09988 0.10110 -0.07200
C 	C 	0.69180 0.13596 0.05006 0.00100
C 	C 	0.66219 0.08755 0.00564 -0.04900
C 	C 	0.64259 0.00067 0.01063 0.00300
C 	C 	0.65154 0.96409 0.06193 0.01000
C 	C 	0.68124 0.01365 0.10621 -0.02300
C 	C 	0.62593 0.87917 0.06953 -0.04300
C 	C 	0.58652 0.83114 0.02836 -0.04000
C 	C 	0.57550 0.86612 0.97774 0.00700
C 	C 	0.60821 0.94965 0.96704 0.00400
C 	C 	0.60592 0.97947 0.91324 -0.05200
C 	C 	0.56096 0.93205 0.87389 -0.00400
C 	C 	0.52120 0.85268 0.88661 -0.07300
C 	C 	0.53155 0.81853 0.93772 -0.01800
H 	H 	0.70644 0.20225 0.04527 0.03800
H 	H 	0.65043 0.11861 0.96886 0.03700
H 	H 	0.68782 0.98526 0.14529 0.03800
H 	H 	0.63368 0.85086 0.10842 0.03400
H 	H 	0.56400 0.76645 0.03600 0.03800
H 	H 	0.64105 0.03711 0.90094 0.03700
H 	H 	0.55671 0.95740 0.83361 0.02100
H 	H 	0.50449 0.75541 0.94662 0.04800
C 	C 	0.54095 0.26806 0.10398 -0.07600
C 	C 	0.58227 0.30286 0.05864 0.00300
C 	C 	0.54470 0.32407 0.01258 -0.05100
C 	C 	0.46419 0.31144 0.01123 0.00600
C 	C 	0.42242 0.27805 0.05777 0.00600
C 	C 	0.46101 0.25306 0.10283 -0.01400
C 	C 	0.34367 0.27726 0.06079 -0.04100
C 	C 	0.30743 0.31576 0.02061 -0.04000
C 	C 	0.34819 0.35041 0.97489 0.00500
C 	C 	0.42477 0.34110 0.96744 0.00300
C 	C 	0.46033 0.36379 0.91704 -0.05300
C 	C 	0.42694 0.41091 0.88029 -0.00100
C 	C 	0.35603 0.43182 0.89192 -0.07600
C 	C 	0.31443 0.39698 0.93736 -0.01700
H 	H 	0.64399 0.31773 0.06021 0.03500
H 	H 	0.57868 0.35632 0.98014 0.03900
H 	H 	0.42914 0.22774 0.13847 0.04100
H 	H 	0.31130 0.25093 0.09592 0.03800
H 	H 	0.24776 0.31942 0.02538 0.03800
H 	H 	0.51247 0.34367 0.90562 0.03700
H 	H 	0.45707 0.43299 0.84334 0.02200
H 	H 	0.25791 0.40986 0.94504 0.04300
C 	C 	0.68797 0.57043 0.40771 -0.07100
C 	C 	0.63433 0.61968 0.39528 -0.00300
C 	C 	0.60466 0.66334 0.43621 -0.05200
C 	C 	0.62884 0.65855 0.49074 0.00300
C 	C 	0.68339 0.60855 0.50300 0.00900
C 	C 	0.71513 0.56819 0.46099 -0.01500
C 	C 	0.70009 0.59299 0.55736 -0.04100
C 	C 	0.65847 0.61991 0.59948 -0.04000
C 	C 	0.60341 0.66807 0.58819 0.00600
C 	C 	0.59337 0.69419 0.53426 0.00700
C 	C 	0.54799 0.75465 0.52544 -0.05400
C 	C 	0.50290 0.77644 0.56753 0.00700
C 	C 	0.50440 0.74041 0.61904 -0.07700
C 	C 	0.55719 0.68942 0.63003 -0.01400
H 	H 	0.61245 0.62069 0.35422 0.01900
H 	H 	0.55890 0.69516 0.42582 0.03800
H 	H 	0.75623 0.52928 0.47049 0.04600
H 	H 	0.74248 0.55581 0.56690 0.03900
H 	H 	0.66878 0.60281 0.64100 0.03600
H 	H 	0.54939 0.78690 0.48707 0.04000
H 	H 	0.46557 0.81994 0.55975 0.03500
H 	H 	0.56081 0.66473 0.67066 0.03200
