data_crystal

_cell_length_a 18.62601
_cell_length_b 18.91721
_cell_length_c 36.66487
_cell_angle_alpha 95.42361
_cell_angle_beta  95.42392
_cell_angle_gamma 126.41916

_symmetry_space_group_name_	'P 1'
_symmetry_space_group_name_H-M	'P 1'

loop_
_symmetry_equiv_pos_as_xyz
  x,y,z

loop_
_atom_site_label
_atom_site_type_symbol
_atom_site_fract_x
_atom_site_fract_y
_atom_site_fract_z
_atom_site_charge
C 	C 	0.90671 0.99546 0.96431 0.06100
C 	C 	0.99957 0.04716 0.96311 -0.05200
C 	C 	0.04464 0.00875 0.96422 0.04900
C 	C 	0.99658 0.91781 0.96528 -0.05500
C 	C 	0.90359 0.86500 0.96602 0.05900
C 	C 	0.85820 0.90376 0.96553 -0.06400
H 	H 	0.03740 0.11801 0.96274 0.07200
H 	H 	0.03186 0.88838 0.96617 0.06700
H 	H 	0.78658 0.86356 0.96684 0.07300
C 	C 	0.94922 0.03864 0.49626 0.07200
C 	C 	0.04222 0.08385 0.49627 -0.07700
C 	C 	0.07796 0.03607 0.49507 0.07000
C 	C 	0.02061 0.94356 0.49367 -0.08000
C 	C 	0.92848 0.89908 0.49451 0.07200
C 	C 	0.89265 0.94632 0.49543 -0.07500
H 	H 	0.08628 0.15542 0.49712 0.07800
H 	H 	0.04812 0.90659 0.49282 0.07400
H 	H 	0.82089 0.91142 0.49561 0.07700
Cu	Cu	0.75719 0.34067 0.96257 0.92900
Cu	Cu	0.75548 0.28336 0.04459 0.89000
Cu	Cu	0.61235 0.29246 0.00980 0.90100
Cu	Cu	0.58495 0.32847 0.93358 0.90700
C 	C 	0.68939 0.30357 0.88361 0.30900
O 	O 	0.80768 0.46985 0.95977 -0.33900
C 	C 	0.67504 0.33386 0.09204 0.30700
O 	O 	0.61568 0.26493 0.95856 -0.63900
O 	O 	0.74655 0.35851 0.01538 -0.63600
O 	O 	0.82069 0.28454 0.96801 -0.35200
O 	O 	0.72722 0.19369 0.00508 -0.41300
O 	O 	0.64869 0.33999 0.89101 -0.35300
O 	O 	0.48141 0.22064 0.00110 -0.37000
C 	C 	0.43075 0.21860 0.97261 0.30700
C 	C 	0.76504 0.50228 0.97004 0.29700
O 	O 	0.68135 0.44779 0.97523 -0.38100
O 	O 	0.46713 0.27737 0.95029 -0.36500
O 	O 	0.74388 0.30497 0.91006 -0.34900
C 	C 	0.78509 0.21232 0.98289 0.30300
O 	O 	0.60771 0.30192 0.06368 -0.37400
O 	O 	0.74971 0.34416 0.08733 -0.39800
H 	H 	0.57820 0.20015 0.94811 0.17800
H 	H 	0.78221 0.42164 0.02815 0.18200
Cu	Cu	0.62048 0.20654 0.50817 0.93100
Cu	Cu	0.68558 0.22039 0.42743 0.89000
Cu	Cu	0.66484 0.35114 0.46331 0.90100
Cu	Cu	0.62901 0.37198 0.53957 0.90300
C 	C 	0.65291 0.26549 0.58732 0.30900
O 	O 	0.48968 0.15530 0.51058 -0.33900
C 	C 	0.63579 0.30227 0.38090 0.30500
O 	O 	0.69592 0.34607 0.51387 -0.63900
O 	O 	0.60304 0.21995 0.45582 -0.63700
O 	O 	0.67648 0.14440 0.50137 -0.35500
O 	O 	0.77280 0.24373 0.46753 -0.41700
O 	O 	0.61344 0.30322 0.58016 -0.36200
O 	O 	0.73323 0.47914 0.47339 -0.36600
C 	C 	0.72265 0.52535 0.49860 0.31300
C 	C 	0.45563 0.19604 0.50002 0.29800
O 	O 	0.51021 0.27998 0.49649 -0.38400
O 	O 	0.68376 0.49272 0.52735 -0.38000
O 	O 	0.65594 0.21619 0.56042 -0.34900
C 	C 	0.75119 0.18220 0.48752 0.30800
O 	O 	0.64791 0.35785 0.40998 -0.35700
O 	O 	0.62688 0.22907 0.38464 -0.39800
H 	H 	0.76193 0.38419 0.52404 0.17500
H 	H 	0.53937 0.18304 0.44229 0.18400
C 	C 	0.69299 0.24941 0.69665 0.00600
C 	C 	0.62058 0.17965 0.71059 -0.02500
C 	C 	0.62438 0.18441 0.74913 -0.02600
C 	C 	0.70064 0.25890 0.77389 0.00700
C 	C 	0.77516 0.32616 0.75996 -0.02500
C 	C 	0.77134 0.32143 0.72142 -0.02600
C 	C 	0.68166 0.25333 0.65762 0.05700
C 	C 	0.66996 0.25810 0.62528 -0.08100
C 	C 	0.69766 0.27196 0.81296 0.05700
C 	C 	0.69427 0.28505 0.84539 -0.07700
H 	H 	0.55986 0.12360 0.69164 0.05900
H 	H 	0.56663 0.13194 0.75966 0.05500
H 	H 	0.83453 0.38380 0.77891 0.05800
H 	H 	0.82773 0.37551 0.71090 0.05300
C 	C 	0.63809 0.35683 0.19928 0.00300
C 	C 	0.55725 0.28767 0.20921 -0.02700
C 	C 	0.55160 0.28364 0.24685 -0.02700
C 	C 	0.62675 0.34876 0.27472 0.00500
C 	C 	0.70567 0.42082 0.26481 -0.02700
C 	C 	0.71134 0.42483 0.22718 -0.02700
C 	C 	0.65004 0.35147 0.16109 0.05500
C 	C 	0.66099 0.34474 0.12938 -0.09200
C 	C 	0.62771 0.33473 0.31269 0.05600
C 	C 	0.63028 0.32099 0.34409 -0.08400
H 	H 	0.50014 0.23505 0.18783 0.05400
H 	H 	0.49021 0.22788 0.25425 0.05400
H 	H 	0.76396 0.47165 0.28618 0.05500
H 	H 	0.77394 0.47877 0.21976 0.05300
C 	C 	0.82112 0.74046 0.46262 -0.06800
C 	C 	0.87023 0.80342 0.49585 -0.00400
C 	C 	0.86437 0.77478 0.53022 0.06400
C 	C 	0.81278 0.68345 0.53097 -0.00700
C 	C 	0.76665 0.62018 0.49761 -0.08800
C 	C 	0.76813 0.64890 0.46333 0.11700
N 	N 	0.71405 0.58531 0.42938 -0.02100
H 	H 	0.82363 0.76264 0.43625 0.07700
H 	H 	0.81095 0.66186 0.55744 0.06400
N 	N 	0.91087 0.83845 0.56445 -0.01800
O 	O 	0.62642 0.52802 0.42626 -0.09200
O 	O 	0.75164 0.58862 0.40079 -0.09200
O 	O 	0.86475 0.84302 0.58780 -0.08200
O 	O 	0.99885 0.88711 0.57352 -0.09200
C 	C 	0.83897 0.14477 0.52478 -0.00500
C 	C 	0.80353 0.14708 0.48981 -0.09100
C 	C 	0.82238 0.12009 0.45718 0.11200
C 	C 	0.87644 0.09143 0.45992 -0.06500
C 	C 	0.90937 0.08633 0.49474 -0.00300
C 	C 	0.89165 0.11439 0.52738 0.06400
N 	N 	0.92717 0.11219 0.56322 -0.01900
H 	H 	0.82574 0.16662 0.54995 0.06600
H 	H 	0.88908 0.06883 0.43474 0.08000
N 	N 	0.78332 0.11789 0.42113 -0.03000
O 	O 	0.99063 0.18655 0.58601 -0.08900
O 	O 	0.89133 0.03624 0.57416 -0.08200
O 	O 	0.83552 0.16190 0.39792 -0.11000
O 	O 	0.69552 0.06597 0.41037 -0.14200
C 	C 	0.30752 0.15002 0.46677 -0.00800
C 	C 	0.35854 0.15314 0.49846 -0.09100
C 	C 	0.31852 0.12269 0.52980 0.11700
C 	C 	0.22784 0.08806 0.52892 -0.06900
C 	C 	0.17610 0.08290 0.49695 -0.00100
C 	C 	0.21625 0.11423 0.46570 0.06000
N 	N 	0.16433 0.10890 0.43271 -0.01800
H 	H 	0.33844 0.17455 0.44279 0.05900
H 	H 	0.19718 0.06409 0.55302 0.08300
N 	N 	0.37072 0.12958 0.56303 -0.02400
O 	O 	0.19024 0.18123 0.42021 -0.09500
O 	O 	0.09520 0.03131 0.41366 -0.09900
O 	O 	0.41343 0.20058 0.58901 -0.09400
O 	O 	0.36925 0.06192 0.56865 -0.08500
C 	C 	0.81877 0.70694 0.93443 -0.06800
C 	C 	0.85482 0.76925 0.96778 0.00100
C 	C 	0.86262 0.74369 0.00200 0.06300
C 	C 	0.83700 0.65735 0.00234 -0.00600
C 	C 	0.80395 0.59622 0.96887 -0.08900
C 	C 	0.79457 0.62123 0.93475 0.11400
N 	N 	0.76090 0.55987 0.90029 -0.02700
H 	H 	0.81376 0.72652 0.90802 0.07800
H 	H 	0.84179 0.63758 0.02873 0.05600
N 	N 	0.89872 0.80604 0.03641 -0.01700
O 	O 	0.68492 0.53191 0.87958 -0.10000
O 	O 	0.81015 0.53847 0.88804 -0.08400
O 	O 	0.86171 0.84419 0.04535 -0.09000
O 	O 	0.96593 0.82151 0.05959 -0.08600
C 	C 	0.81004 0.11824 0.94207 -0.00500
C 	C 	0.81711 0.15733 0.97803 -0.09000
C 	C 	0.84682 0.13692 0.00940 0.11500
C 	C 	0.86826 0.07743 0.00445 -0.06400
C 	C 	0.86363 0.04026 0.96856 0.00100
C 	C 	0.83334 0.06005 0.93719 0.06100
N 	N 	0.82577 0.02092 0.90034 -0.01800
H 	H 	0.78587 0.13240 0.91785 0.06600
H 	H 	0.89312 0.06376 0.02864 0.08600
N 	N 	0.85866 0.17915 0.04633 -0.02800
O 	O 	0.74612 0.96255 0.87935 -0.09200
O 	O 	0.89852 0.04890 0.88673 -0.09300
O 	O 	0.81911 0.13074 0.07114 -0.10700
O 	O 	0.91457 0.26586 0.05597 -0.13400
C 	C 	0.17861 0.07306 0.93364 -0.06900
C 	C 	0.14347 0.06491 0.96643 0.00200
C 	C 	0.20245 0.10485 0.00134 0.06200
C 	C 	0.29611 0.15336 0.00312 -0.00400
C 	C 	0.33164 0.16219 0.97031 -0.08800
C 	C 	0.27218 0.12021 0.93537 0.11500
N 	N 	0.30629 0.12261 0.90173 -0.02400
H 	H 	0.13295 0.04057 0.90681 0.07900
H 	H 	0.34135 0.18550 0.03005 0.07000
N 	N 	0.16720 0.09500 0.03508 -0.01700
O 	O 	0.35106 0.09057 0.89757 -0.11400
O 	O 	0.28647 0.15032 0.87416 -0.09400
O 	O 	0.17931 0.05445 0.05881 -0.08700
O 	O 	0.12813 0.13147 0.04316 -0.09200
