data_crystal

_cell_length_a 15.62923
_cell_length_b 15.98633
_cell_length_c 26.72365
_cell_angle_alpha 95.40871
_cell_angle_beta  95.40917
_cell_angle_gamma 126.69613

_symmetry_space_group_name_	'P 1'
_symmetry_space_group_name_H-M	'P 1'

loop_
_symmetry_equiv_pos_as_xyz
  x,y,z

loop_
_atom_site_label
_atom_site_type_symbol
_atom_site_fract_x
_atom_site_fract_y
_atom_site_fract_z
_atom_site_charge
C 	C 	0.06226 0.11084 0.49896 -0.06000
H 	H 	0.07206 0.90248 0.49106 0.04700
H 	H 	0.11415 0.19597 0.50050 0.04600
C 	C 	0.05081 0.01142 0.96303 -0.00400
H 	H 	0.04241 0.87287 0.96633 0.04300
H 	H 	0.03680 0.13647 0.95853 0.04500
C 	C 	0.03846 0.94541 0.49332 -0.05800
C 	C 	0.10595 0.05502 0.49610 0.01100
O 	O 	0.44432 0.25281 0.00281 -0.39600
C 	C 	0.37215 0.20349 0.95987 0.32700
O 	O 	0.39868 0.23309 0.91602 -0.39500
O 	O 	0.46543 0.14415 0.51525 -0.36100
C 	C 	0.42597 0.19195 0.49813 0.29800
O 	O 	0.49224 0.28994 0.49158 -0.40200
S 	S 	0.42869 0.12357 0.14597 -0.05700
H 	H 	0.44438 0.04912 0.13351 0.02100
H 	H 	0.47131 0.15996 0.25553 0.04100
C 	C 	0.21994 0.10863 0.49666 0.03600
C 	C 	0.31384 0.14620 0.49715 -0.10600
C 	C 	0.26006 0.13582 0.96261 -0.11400
C 	C 	0.16486 0.07891 0.96344 0.05300
H 	H 	0.40107 0.09053 0.64277 0.04200
S 	S 	0.47684 0.07428 0.65422 -0.03400
C 	C 	0.99358 0.05263 0.95932 -0.04200
C 	C 	0.99684 0.90396 0.96392 -0.04100
H 	H 	0.53718 0.16848 0.92854 0.16100
C 	C 	0.88139 0.98720 0.95708 0.00700
C 	C 	0.82529 0.87725 0.95787 -0.05100
C 	C 	0.88446 0.83580 0.96098 0.00900
H 	H 	0.73823 0.82550 0.95622 0.04700
C 	C 	0.95044 0.05498 0.49952 0.01100
C 	C 	0.88429 0.94512 0.49739 -0.05500
C 	C 	0.92839 0.89080 0.49405 0.01200
H 	H 	0.79829 0.90181 0.49783 0.05000
Cu	Cu	0.75261 0.33032 0.94473 0.92500
Cu	Cu	0.72388 0.23211 0.05024 0.86300
Cu	Cu	0.58983 0.29262 0.01127 0.89200
Cu	Cu	0.54736 0.31855 0.90260 0.90200
C 	C 	0.68032 0.30176 0.83653 0.28900
O 	O 	0.80934 0.48731 0.94594 -0.34800
C 	C 	0.64912 0.30687 0.12245 0.28000
O 	O 	0.58445 0.24658 0.93990 -0.62700
O 	O 	0.74208 0.34372 0.01760 -0.65100
O 	O 	0.81526 0.24930 0.94860 -0.35900
O 	O 	0.68690 0.13278 0.99136 -0.43300
O 	O 	0.63780 0.34929 0.84912 -0.38300
C 	C 	0.75409 0.52204 0.95978 0.28600
O 	O 	0.65206 0.45377 0.96364 -0.39100
O 	O 	0.73851 0.29345 0.87182 -0.35900
C 	C 	0.76000 0.15603 0.96329 0.29700
O 	O 	0.59522 0.31839 0.08592 -0.37200
O 	O 	0.72665 0.30016 0.11376 -0.42000
H 	H 	0.79518 0.41632 0.03819 0.17000
Cu	Cu	0.62362 0.20375 0.51379 0.92500
Cu	Cu	0.70840 0.21568 0.40499 0.86800
Cu	Cu	0.66534 0.36212 0.44552 0.89800
Cu	Cu	0.63139 0.40061 0.55101 0.89800
C 	C 	0.65854 0.28065 0.62156 0.28800
C 	C 	0.63897 0.29580 0.33395 0.28300
O 	O 	0.71065 0.36814 0.51656 -0.63700
O 	O 	0.60296 0.21002 0.44053 -0.64100
O 	O 	0.69685 0.13515 0.50896 -0.36900
O 	O 	0.81323 0.25162 0.46226 -0.44100
O 	O 	0.61094 0.32340 0.60886 -0.38300
O 	O 	0.73577 0.51238 0.45283 -0.38600
C 	C 	0.74849 0.57571 0.49324 0.31600
O 	O 	0.69572 0.53960 0.53113 -0.39600
O 	O 	0.66674 0.22305 0.58648 -0.35800
C 	C 	0.78907 0.18285 0.49210 0.30500
O 	O 	0.63600 0.35508 0.37089 -0.37200
O 	O 	0.63714 0.21498 0.34261 -0.41800
H 	H 	0.79023 0.41585 0.52909 0.16500
H 	H 	0.52714 0.16032 0.42142 0.17400
C 	C 	0.68809 0.28509 0.78239 -0.07200
C 	C 	0.59900 0.19391 0.74863 -0.02600
C 	C 	0.59233 0.18777 0.69552 0.04000
C 	C 	0.67581 0.27367 0.67579 -0.07100
C 	C 	0.76873 0.36121 0.70953 -0.02600
C 	C 	0.77530 0.36744 0.76264 0.04000
S 	S 	0.89111 0.48057 0.80395 -0.03200
H 	H 	0.96556 0.46290 0.81606 0.04100
H 	H 	0.53241 0.12979 0.76363 0.03500
H 	H 	0.83386 0.42670 0.69452 0.03600
C 	C 	0.62969 0.31140 0.28064 -0.07700
C 	C 	0.54000 0.22839 0.24367 -0.02200
C 	C 	0.54096 0.23073 0.19136 0.03100
C 	C 	0.63299 0.31645 0.17566 -0.07400
C 	C 	0.71848 0.40357 0.21266 -0.02400
C 	C 	0.71722 0.40164 0.26497 0.03400
S 	S 	0.82813 0.51035 0.31033 -0.06400
H 	H 	0.80726 0.58028 0.32440 0.04700
H 	H 	0.78838 0.47078 0.20077 0.04100
C 	C 	0.86167 0.77917 0.49285 0.04300
C 	C 	0.80901 0.68585 0.49252 -0.10900
C 	C 	0.90087 0.10768 0.49905 0.03800
C 	C 	0.85152 0.14384 0.49707 -0.11300
C 	C 	0.83203 0.72351 0.96055 0.03500
C 	C 	0.79759 0.63205 0.96032 -0.09300
C 	C 	0.82739 0.03662 0.95676 0.03700
C 	C 	0.79488 0.08953 0.95824 -0.10600
