data_crystal

_cell_length_a 32.62221
_cell_length_b 33.23508
_cell_length_c 17.46814
_cell_angle_alpha 95.53288
_cell_angle_beta  95.50497
_cell_angle_gamma 125.44717

_symmetry_space_group_name_	'P 1'
_symmetry_space_group_name_H-M	'P 1'

loop_
_symmetry_equiv_pos_as_xyz
  x,y,z

loop_
_atom_site_label
_atom_site_type_symbol
_atom_site_fract_x
_atom_site_fract_y
_atom_site_fract_z
_atom_site_charge
N 	N 	0.01811 0.04140 0.81027 -0.13500
C 	C 	0.03590 0.01457 0.78863 0.12200
C 	C 	0.95678 0.00707 0.57402 0.11300
N 	N 	0.00808 0.03813 0.57587 -0.13800
C 	C 	0.03673 0.02083 0.58501 0.11900
Cu	Cu	0.66558 0.27592 0.00785 0.90700
Cu	Cu	0.73517 0.29135 0.87730 0.86600
Cu	Cu	0.69094 0.34200 0.88588 0.89100
Cu	Cu	0.65723 0.36631 0.02375 0.86900
C 	C 	0.66610 0.32084 0.15656 0.19400
O 	O 	0.58933 0.24409 0.98319 -0.34400
C 	C 	0.69377 0.30008 0.73184 0.19500
O 	O 	0.70320 0.35220 0.99897 -0.58700
O 	O 	0.66957 0.27388 0.89642 -0.63700
O 	O 	0.69958 0.24312 0.03082 -0.36700
O 	O 	0.76712 0.30128 0.98063 -0.39800
O 	O 	0.64069 0.33491 0.11893 -0.37100
O 	O 	0.71729 0.41045 0.87753 -0.38400
C 	C 	0.70713 0.43879 0.91672 0.29200
C 	C 	0.57105 0.26097 0.93561 0.27800
O 	O 	0.60062 0.30789 0.92587 -0.39300
O 	O 	0.69316 0.43114 0.98563 -0.37800
O 	O 	0.67380 0.29008 0.11905 -0.33500
C 	C 	0.74636 0.26377 0.01846 0.25000
O 	O 	0.68402 0.32864 0.77198 -0.34700
O 	O 	0.71300 0.27947 0.76711 -0.38700
H 	H 	0.73948 0.37739 0.02478 0.12200
H 	H 	0.63891 0.24611 0.85818 0.17800
Cu	Cu	0.71562 0.32406 0.38304 0.92800
Cu	Cu	0.68386 0.24661 0.50321 0.85900
Cu	Cu	0.65034 0.30688 0.50468 0.88900
Cu	Cu	0.62848 0.34074 0.36361 0.89600
C 	C 	0.67563 0.33010 0.23471 0.19500
O 	O 	0.75259 0.39985 0.41363 -0.36300
C 	C 	0.68394 0.29167 0.65385 0.19300
O 	O 	0.63875 0.29326 0.39044 -0.63700
O 	O 	0.71444 0.31575 0.49242 -0.64800
O 	O 	0.74482 0.28662 0.35872 -0.36100
O 	O 	0.67912 0.21960 0.39944 -0.44200
O 	O 	0.66429 0.35761 0.27265 -0.36100
O 	O 	0.59014 0.30400 0.51943 -0.38100
C 	C 	0.55224 0.29148 0.46384 0.28800
C 	C 	0.73565 0.41940 0.45887 0.27500
O 	O 	0.68699 0.39255 0.46480 -0.40100
O 	O 	0.56055 0.30372 0.39443 -0.39800
O 	O 	0.70436 0.31952 0.27204 -0.32700
C 	C 	0.72057 0.23989 0.36897 0.29600
O 	O 	0.66337 0.31095 0.61758 -0.34700
O 	O 	0.69538 0.26436 0.61473 -0.38900
H 	H 	0.61150 0.25771 0.36598 0.15300
H 	H 	0.74479 0.34248 0.53217 0.17800
C 	C 	0.76916 0.47354 0.49330 -0.08600
C 	C 	0.75894 0.49130 0.55975 0.00900
C 	C 	0.78235 0.54269 0.58210 -0.06500
C 	C 	0.81669 0.57687 0.53891 0.02400
C 	C 	0.83005 0.55962 0.47640 -0.06700
C 	C 	0.80640 0.50818 0.45366 0.00900
C 	C 	0.83503 0.62976 0.55451 -0.00200
C 	C 	0.82188 0.64907 0.49692 -0.03900
C 	C 	0.83999 0.69937 0.51074 -0.04300
C 	C 	0.87124 0.73089 0.58255 0.00400
C 	C 	0.88379 0.71131 0.64063 -0.04100
C 	C 	0.86546 0.66089 0.62684 -0.03800
H 	H 	0.73126 0.46509 0.59211 0.03500
H 	H 	0.77219 0.55569 0.63094 0.04400
H 	H 	0.85731 0.58588 0.44363 0.04200
H 	H 	0.81516 0.49515 0.40290 0.03300
H 	H 	0.79792 0.62515 0.44121 0.03400
H 	H 	0.83059 0.71412 0.46507 0.03500
H 	H 	0.90783 0.73517 0.69625 0.04000
H 	H 	0.87529 0.64615 0.67204 0.03800
C 	C 	0.74566 0.21468 0.36414 -0.10200
C 	C 	0.79816 0.24164 0.39476 0.01200
C 	C 	0.81943 0.21602 0.40870 -0.07000
C 	C 	0.78850 0.16324 0.39140 0.02600
C 	C 	0.73700 0.13655 0.35514 -0.07200
C 	C 	0.71567 0.16214 0.34165 0.01400
C 	C 	0.80886 0.13593 0.41717 -0.00400
C 	C 	0.85206 0.14394 0.39132 -0.03900
C 	C 	0.87305 0.12034 0.41944 -0.04300
C 	C 	0.85091 0.08839 0.47336 0.00300
C 	C 	0.80718 0.07959 0.49807 -0.04300
C 	C 	0.78630 0.10335 0.47028 -0.03900
C 	C 	0.87471 0.06571 0.50608 0.01400
C 	C 	0.92016 0.09538 0.56201 -0.05200
C 	C 	0.94542 0.07527 0.58776 -0.01900
C 	C 	0.92554 0.02527 0.55759 -0.02500
C 	C 	0.87863 0.99485 0.50454 -0.01600
C 	C 	0.85336 0.01505 0.47883 -0.05600
H 	H 	0.82183 0.28220 0.41200 0.02700
H 	H 	0.85937 0.23705 0.43598 0.04300
H 	H 	0.71307 0.09589 0.33993 0.04100
H 	H 	0.67531 0.14097 0.31677 0.02500
H 	H 	0.86959 0.16874 0.35003 0.03500
H 	H 	0.90675 0.12720 0.39986 0.03600
H 	H 	0.78987 0.05501 0.53972 0.03700
H 	H 	0.75313 0.09711 0.49097 0.03300
H 	H 	0.93649 0.13434 0.58421 0.04100
H 	H 	0.81799 0.99173 0.43617 0.04100
C 	C 	0.09210 0.05378 0.58247 -0.02100
C 	C 	0.11829 0.03270 0.56889 -0.02200
C 	C 	0.16991 0.06339 0.56322 -0.04900
C 	C 	0.19609 0.11550 0.57094 0.01300
C 	C 	0.17068 0.13695 0.58711 -0.04900
C 	C 	0.11891 0.10628 0.59284 -0.02000
C 	C 	0.24888 0.14692 0.55643 0.00400
C 	C 	0.28947 0.18344 0.61715 -0.04100
C 	C 	0.33999 0.20999 0.60493 -0.03700
C 	C 	0.35011 0.20081 0.53146 -0.00300
C 	C 	0.30938 0.16527 0.47026 -0.03800
C 	C 	0.25902 0.13850 0.48266 -0.04300
C 	C 	0.40329 0.22742 0.51887 0.02600
C 	C 	0.43635 0.21923 0.55928 -0.06900
C 	C 	0.48510 0.24047 0.54176 0.01300
C 	C 	0.50121 0.27006 0.48350 -0.09100
C 	C 	0.46845 0.27914 0.44433 0.01400
C 	C 	0.41978 0.25797 0.46206 -0.06900
H 	H 	0.09853 0.99244 0.56162 0.04000
H 	H 	0.18941 0.04659 0.55148 0.03800
H 	H 	0.19078 0.17724 0.59388 0.04100
H 	H 	0.09979 0.12336 0.60551 0.04000
H 	H 	0.28196 0.19048 0.67413 0.04200
H 	H 	0.37121 0.23740 0.65254 0.03800
H 	H 	0.31684 0.15790 0.41341 0.03300
H 	H 	0.22787 0.11068 0.43526 0.03600
H 	H 	0.42382 0.19544 0.60291 0.04300
H 	H 	0.50995 0.23317 0.57247 0.02700
H 	H 	0.48065 0.30260 0.40027 0.02700
H 	H 	0.39459 0.26474 0.43091 0.04200
C 	C 	0.72220 0.48607 0.89125 -0.08300
C 	C 	0.75628 0.50598 0.83858 0.01500
C 	C 	0.77313 0.55232 0.81873 -0.06600
C 	C 	0.75601 0.57916 0.85092 0.02700
C 	C 	0.72035 0.55841 0.90079 -0.06500
C 	C 	0.70341 0.51205 0.92075 0.01500
C 	C 	0.77950 0.63105 0.83918 -0.00100
C 	C 	0.81169 0.67131 0.90210 -0.03600
C 	C 	0.83770 0.72074 0.88998 -0.04000
C 	C 	0.79781 0.69015 0.75248 -0.04100
C 	C 	0.77220 0.64060 0.76442 -0.03700
H 	H 	0.77079 0.48627 0.81461 0.03700
H 	H 	0.80084 0.56817 0.78041 0.04500
H 	H 	0.70663 0.57875 0.92543 0.04900
H 	H 	0.67617 0.49666 0.95981 0.03500
H 	H 	0.81746 0.66427 0.96001 0.04300
H 	H 	0.86323 0.75158 0.93869 0.04400
H 	H 	0.74730 0.60972 0.71552 0.03800
C 	C 	0.77065 0.23824 0.03020 -0.09300
C 	C 	0.82431 0.26646 0.04470 -0.00100
C 	C 	0.84780 0.24255 0.03473 -0.05600
C 	C 	0.81785 0.19020 0.01077 -0.02200
C 	C 	0.76440 0.16158 0.00326 -0.10600
C 	C 	0.74087 0.18549 0.01313 0.01500
C 	C 	0.84187 0.16611 0.98537 0.08500
C 	C 	0.82989 0.14295 0.90685 -0.05900
C 	C 	0.85389 0.12166 0.88186 -0.03800
C 	C 	0.89021 0.12344 0.93509 0.04100
C 	C 	0.90246 0.14688 0.01354 -0.07400
C 	C 	0.87837 0.16812 0.03858 -0.09400
C 	C 	0.91323 0.09833 0.90966 0.00600
C 	C 	0.94294 0.11399 0.85088 -0.04300
C 	C 	0.95183 0.04651 0.85504 -0.01700
C 	C 	0.92294 0.03154 0.91487 -0.02300
C 	C 	0.90374 0.05730 0.94196 -0.04000
H 	H 	0.84776 0.30712 0.05969 0.02300
H 	H 	0.88915 0.26492 0.04196 0.03000
H 	H 	0.74100 0.12101 0.98641 0.08000
H 	H 	0.69945 0.16317 0.00285 0.01700
H 	H 	0.80217 0.14169 0.86515 0.04600
H 	H 	0.84393 0.10337 0.82134 0.03900
H 	H 	0.93044 0.14843 0.05508 0.03300
H 	H 	0.88804 0.18610 0.09922 0.04600
H 	H 	0.98462 0.10022 0.77778 0.03800
H 	H 	0.88082 0.04490 0.98726 0.04800
C 	C 	0.51601 0.22927 0.90049 -0.08400
C 	C 	0.47979 0.19280 0.93922 0.01300
C 	C 	0.42751 0.16866 0.91296 -0.06400
C 	C 	0.41093 0.18067 0.84773 0.02500
C 	C 	0.44682 0.21483 0.80621 -0.06500
C 	C 	0.49913 0.23893 0.83229 0.00900
C 	C 	0.35666 0.16071 0.82712 -0.00100
C 	C 	0.32626 0.12672 0.75679 -0.03700
C 	C 	0.27388 0.10497 0.74031 -0.04000
C 	C 	0.25165 0.11759 0.79361 0.00500
C 	C 	0.28256 0.15294 0.86267 -0.04000
C 	C 	0.33479 0.17442 0.87926 -0.03600
C 	C 	0.19552 0.09088 0.78050 0.01500
C 	C 	0.16274 0.03828 0.77037 -0.04700
C 	C 	0.11047 0.01331 0.76984 -0.02000
C 	C 	0.09031 0.04074 0.78050 -0.01700
C 	C 	0.12277 0.09326 0.78615 -0.01800
C 	C 	0.17503 0.11811 0.78577 -0.04600
H 	H 	0.49215 0.18462 0.99145 0.04300
H 	H 	0.39996 0.14177 0.94473 0.05000
H 	H 	0.43433 0.22396 0.75532 0.04400
H 	H 	0.52659 0.26611 0.80075 0.03400
H 	H 	0.34299 0.11646 0.71567 0.03700
H 	H 	0.25052 0.07795 0.68667 0.03900
H 	H 	0.26584 0.16272 0.90450 0.04300
H 	H 	0.35812 0.20108 0.93329 0.04300
H 	H 	0.17801 0.01682 0.76542 0.04100
H 	H 	0.10772 0.11491 0.79121 0.04300
H 	H 	0.19976 0.15862 0.79109 0.04200
N 	N 	0.00463 0.96366 0.78020 -0.13600
N 	N 	0.93846 0.96648 0.81466 -0.13800
N 	N 	0.01390 0.97234 0.59270 -0.13700
C 	C 	0.96272 0.94096 0.59119 0.11400
N 	N 	0.93410 0.95844 0.58189 -0.13900
C 	C 	0.89384 0.78513 0.59453 0.01200
C 	C 	0.86268 0.80087 0.57852 -0.04700
C 	C 	0.88481 0.85177 0.57914 -0.02400
C 	C 	0.93838 0.88760 0.59730 -0.01600
C 	C 	0.96915 0.87196 0.61826 -0.02900
C 	C 	0.94706 0.82110 0.61604 -0.04500
H 	H 	0.82141 0.77357 0.56408 0.03800
H 	H 	0.86033 0.86309 0.56456 0.03900
H 	H 	0.97148 0.80953 0.62930 0.03800
H 	H 	0.86280 0.95622 0.48084 0.03500
C 	C 	0.83176 0.73038 0.81482 0.00500
C 	C 	0.86331 0.78239 0.80089 0.01400
C 	C 	0.91689 0.81057 0.81670 -0.04900
C 	C 	0.94713 0.86149 0.81220 -0.01800
C 	C 	0.92409 0.88483 0.79170 -0.01900
C 	C 	0.87042 0.85607 0.77268 -0.01800
C 	C 	0.84018 0.80504 0.77719 -0.04800
H 	H 	0.79232 0.69725 0.69450 0.04100
H 	H 	0.93508 0.79319 0.83401 0.04100
H 	H 	0.85214 0.87326 0.75472 0.04100
H 	H 	0.79882 0.78342 0.76395 0.04200
H 	H 	0.91518 0.99979 0.94015 0.04700
H 	H 	0.08595 0.97274 0.76302 0.04300
C 	C 	0.96944 0.01738 0.82365 0.11400
H 	H 	0.98122 0.09897 0.62943 0.03600
C 	C 	0.96230 0.08826 0.82381 -0.02200
H 	H 	0.95061 0.14575 0.82573 0.04100
C 	C 	0.95602 0.93954 0.79337 0.11800
H 	H 	0.01033 0.89914 0.63532 0.04700
H 	H 	0.98845 0.88301 0.82632 0.03900
