data_crystal

_cell_length_a 25.44738
_cell_length_b 25.02135
_cell_length_c 23.70458
_cell_angle_alpha 89.91400
_cell_angle_beta  89.90487
_cell_angle_gamma 89.90487

_symmetry_space_group_name_	'P 1'
_symmetry_space_group_name_H-M	'P 1'

loop_
_symmetry_equiv_pos_as_xyz
  x,y,z

loop_
_atom_site_label
_atom_site_type_symbol
_atom_site_fract_x
_atom_site_fract_y
_atom_site_fract_z
_atom_site_charge
Co	Co	0.94106 0.01847 0.44264 1.19000
Co	Co	0.05888 0.99294 0.57388 1.18300
Co	Co	0.97074 0.06566 0.56620 1.18300
Co	Co	0.02882 0.94418 0.45074 1.19000
C 	C 	0.93665 0.05100 0.31726 0.26900
Co	Co	0.95163 0.93421 0.33979 1.15800
Co	Co	0.03890 0.07216 0.68040 1.17200
C 	C 	0.97613 0.84290 0.41647 0.27300
O 	O 	0.96114 0.09622 0.68922 -0.40200
O 	O 	0.02579 0.04520 0.59801 -0.76100
C 	C 	0.92302 0.06251 0.67818 0.27700
O 	O 	0.91871 0.07129 0.50228 -0.47400
O 	O 	0.07965 0.93791 0.51587 -0.47100
C 	C 	0.03622 0.95200 0.69202 0.26700
O 	O 	0.01384 0.02157 0.49718 -0.56400
C 	C 	0.02709 0.16767 0.60238 0.28100
C 	C 	0.85239 0.95073 0.40600 0.27700
C 	C 	0.06932 0.93625 0.33152 0.27300
O 	O 	0.92272 0.03725 0.62957 -0.39500
O 	O 	0.87334 0.95455 0.35540 -0.40200
O 	O 	0.87884 0.96623 0.45061 -0.40400
O 	O 	0.01870 0.99776 0.71262 -0.38500
O 	O 	0.03364 0.94190 0.63724 -0.39300
O 	O 	0.05749 0.14406 0.64061 -0.37900
O 	O 	0.98239 0.14571 0.58527 -0.39200
O 	O 	0.02701 0.90860 0.31897 -0.39100
O 	O 	0.08175 0.94612 0.38450 -0.38200
O 	O 	0.97941 0.97208 0.41344 -0.78100
C 	C 	0.14851 0.04497 0.63720 0.27600
O 	O 	0.11713 0.04699 0.68136 -0.39300
O 	O 	0.13190 0.02706 0.58806 -0.37500
O 	O 	0.96358 0.00799 0.30256 -0.38600
O 	O 	0.93196 0.06589 0.37091 -0.37600
O 	O 	0.94019 0.86259 0.38244 -0.38900
O 	O 	0.99287 0.87089 0.45984 -0.40300
Co	Co	0.96748 0.41629 0.00856 1.18600
Co	Co	0.05739 0.55698 0.96234 1.18300
Co	Co	0.97919 0.53790 0.05045 1.17700
Co	Co	0.04614 0.43469 0.92212 1.18700
C 	C 	0.88179 0.37112 0.93699 0.27500
Co	Co	0.98536 0.32124 0.91567 1.15600
Co	Co	0.01539 0.66162 0.03010 1.17300
C 	C 	0.10201 0.32956 0.93931 0.26600
O 	O 	0.98947 0.65210 0.11278 -0.42100
O 	O 	0.02132 0.57860 0.01676 -0.75300
C 	C 	0.00379 0.61296 0.14657 0.29100
O 	O 	0.94569 0.46717 0.07003 -0.47300
O 	O 	0.08767 0.50220 0.90899 -0.47100
C 	C 	0.12962 0.64148 0.01404 0.27900
O 	O 	0.03061 0.47978 0.00291 -0.56800
C 	C 	0.90279 0.62604 0.02302 0.26600
C 	C 	0.96655 0.29981 0.04154 0.28100
C 	C 	0.00453 0.39420 0.81628 0.26900
O 	O 	0.00146 0.56266 0.13017 -0.37600
O 	O 	0.95293 0.28818 0.98926 -0.40600
O 	O 	0.98192 0.34828 0.05582 -0.39300
O 	O 	0.09380 0.65524 0.05179 -0.38300
O 	O 	0.12617 0.59607 0.98535 -0.38500
O 	O 	0.93694 0.66205 0.00546 -0.38700
O 	O 	0.91317 0.57466 0.01791 -0.39400
O 	O 	0.01365 0.34618 0.83708 -0.38000
O 	O 	0.00150 0.43530 0.85034 -0.38800
O 	O 	0.00385 0.39449 0.95505 -0.76800
C 	C 	0.01769 0.65425 0.90435 0.30100
O 	O 	0.03784 0.67960 0.94765 -0.40700
O 	O 	0.01548 0.60173 0.90409 -0.39500
O 	O 	0.91106 0.34995 0.89695 -0.39000
O 	O 	0.89770 0.41401 0.96422 -0.39900
O 	O 	0.06064 0.29737 0.93921 -0.37200
O 	O 	0.10178 0.37525 0.91101 -0.38100
Co	Co	0.56723 0.04131 0.08416 1.18700
Co	Co	0.47203 0.96298 0.95811 1.17700
Co	Co	0.44369 0.02699 0.05295 1.19000
Co	Co	0.59583 0.97840 0.99077 1.17500
C 	C 	0.63224 0.00095 0.18095 0.28100
Co	Co	0.69095 0.01555 0.07174 1.16900
Co	Co	0.34648 0.98353 0.98051 1.15400
C 	C 	0.67910 0.05137 0.94999 0.27300
O 	O 	0.33245 0.05952 0.01350 -0.38200
O 	O 	0.42646 0.98288 0.00397 -0.77400
C 	C 	0.36560 0.09911 0.00512 0.27300
O 	O 	0.49427 0.06751 0.10234 -0.46900
O 	O 	0.54631 0.95144 0.93055 -0.48000
C 	C 	0.40244 0.01495 0.87225 0.26300
O 	O 	0.51814 0.97964 0.03798 -0.57900
C 	C 	0.35236 0.96592 0.10720 0.25100
C 	C 	0.64498 0.12648 0.05645 0.27200
C 	C 	0.67966 0.90098 0.03187 0.27500
O 	O 	0.41629 0.08987 0.00588 -0.39200
O 	O 	0.67904 0.09745 0.08519 -0.39100
O 	O 	0.59774 0.10811 0.04486 -0.39200
O 	O 	0.35819 0.01705 0.90126 -0.37700
O 	O 	0.44821 0.01753 0.89808 -0.38900
O 	O 	0.33315 0.94850 0.05870 -0.37700
O 	O 	0.38419 0.00790 0.10978 -0.36900
O 	O 	0.70667 0.93459 0.06349 -0.38200
O 	O 	0.65182 0.91815 0.98840 -0.39600
O 	O 	0.61103 0.00116 0.05462 -0.77200
C 	C 	0.39176 0.87526 0.95838 0.27200
O 	O 	0.35359 0.90818 0.94454 -0.39500
O 	O 	0.44097 0.88721 0.94649 -0.38700
O 	O 	0.67901 0.00131 0.15699 -0.37500
O 	O 	0.59603 0.03560 0.16533 -0.38100
O 	O 	0.70991 0.02700 0.98667 -0.39400
O 	O 	0.62796 0.04322 0.95035 -0.39700
C 	C 	0.75216 0.78475 0.05855 0.06000
C 	C 	0.77093 0.74213 0.09107 -0.07100
C 	C 	0.78574 0.69514 0.06283 0.00000
C 	C 	0.78148 0.69107 0.00425 0.11300
C 	C 	0.76043 0.73338 0.97236 -0.13000
C 	C 	0.74763 0.78060 0.00072 0.05900
N 	N 	0.71980 0.82282 0.07831 -0.15100
C 	C 	0.69549 0.84452 0.03288 0.02000
C 	C 	0.71033 0.81736 0.98399 -0.08500
N 	N 	0.81917 0.65852 0.98404 -0.16600
C 	C 	0.84779 0.64213 0.02883 0.01400
C 	C 	0.82814 0.66390 0.07843 -0.04800
H 	H 	0.77487 0.74567 0.13641 0.04900
H 	H 	0.75678 0.73046 0.92695 0.06500
H 	H 	0.70588 0.83227 0.94135 0.06100
H 	H 	0.85162 0.67084 0.11583 0.04200
H 	H 	0.72280 0.84059 0.11806 0.08600
H 	H 	0.83377 0.66040 0.94281 0.09000
C 	C 	0.79144 0.28949 0.00928 0.09700
C 	C 	0.75859 0.27684 0.05475 -0.09400
C 	C 	0.71028 0.25244 0.04296 0.03300
C 	C 	0.69567 0.24032 0.98783 0.06100
C 	C 	0.72909 0.25267 0.94235 -0.07100
C 	C 	0.77769 0.27629 0.95444 -0.01000
N 	N 	0.82444 0.33134 0.00940 -0.14700
C 	C 	0.83328 0.34436 0.95484 -0.01600
C 	C 	0.80375 0.31176 0.91952 -0.03200
N 	N 	0.66330 0.19784 0.98756 -0.15500
C 	C 	0.65805 0.18186 0.04178 0.01400
C 	C 	0.68663 0.21494 0.07743 -0.05300
H 	H 	0.76992 0.28610 0.09766 0.05900
H 	H 	0.71824 0.24284 0.89944 0.05300
H 	H 	0.80917 0.30716 0.87447 0.04500
H 	H 	0.70187 0.20272 0.11813 0.05500
H 	H 	0.84793 0.34264 0.04348 0.08200
H 	H 	0.65763 0.17295 0.95275 0.09000
C 	C 	0.32479 0.76714 0.01781 0.10000
C 	C 	0.27864 0.76010 0.04968 -0.09600
C 	C 	0.23469 0.73839 0.02269 0.03400
C 	C 	0.23769 0.72018 0.96749 0.05600
C 	C 	0.28415 0.72521 0.93619 -0.06900
C 	C 	0.32753 0.74944 0.96213 -0.01200
N 	N 	0.35650 0.80953 0.02493 -0.15000
C 	C 	0.37844 0.82034 0.97420 -0.01500
C 	C 	0.36177 0.78339 0.93433 -0.02900
N 	N 	0.20245 0.68106 0.95896 -0.15500
C 	C 	0.17764 0.67345 0.00871 0.01400
C 	C 	0.19569 0.70908 0.04915 -0.05500
H 	H 	0.27629 0.77377 0.09296 0.05600
H 	H 	0.28625 0.71157 0.89290 0.05100
H 	H 	0.35993 0.79161 0.88946 0.04500
H 	H 	0.19165 0.70382 0.09431 0.05200
H 	H 	0.35133 0.83804 0.05667 0.08700
H 	H 	0.20360 0.65345 0.92592 0.08900
C 	C 	0.28500 0.21159 0.02564 0.08400
C 	C 	0.23242 0.22277 0.03934 -0.06400
C 	C 	0.20025 0.24402 0.99714 -0.01600
C 	C 	0.22011 0.25698 0.94446 0.08400
C 	C 	0.27276 0.24702 0.93076 -0.08600
C 	C 	0.30495 0.22411 0.97238 0.00800
N 	N 	0.31090 0.16950 0.04733 -0.15300
C 	C 	0.34661 0.15424 0.00828 0.01400
C 	C 	0.34425 0.18733 0.96122 -0.05300
N 	N 	0.19156 0.29639 0.92102 -0.15000
C 	C 	0.15251 0.30782 0.95788 -0.01400
C 	C 	0.15770 0.27704 0.00643 -0.01300
H 	H 	0.21674 0.21324 0.08066 0.05400
H 	H 	0.28811 0.25651 0.88929 0.05500
H 	H 	0.35571 0.17504 0.91912 0.04800
H 	H 	0.12748 0.27062 0.03795 0.04700
H 	H 	0.29531 0.14396 0.07806 0.09400
H 	H 	0.19153 0.30606 0.87811 0.08900
C 	C 	0.84594 0.05903 0.80270 0.07600
C 	C 	0.82957 0.09199 0.84714 -0.08300
C 	C 	0.77553 0.10038 0.85478 0.01100
C 	C 	0.73899 0.07618 0.81935 0.07800
C 	C 	0.75570 0.04629 0.77237 -0.08200
C 	C 	0.80972 0.03702 0.76579 0.01300
N 	N 	0.89273 0.06452 0.77713 -0.15100
C 	C 	0.88657 0.04715 0.72356 -0.00200
C 	C 	0.83525 0.02997 0.71461 -0.04000
N 	N 	0.69501 0.06423 0.84846 -0.15000
C 	C 	0.70322 0.07990 0.90235 -0.00200
C 	C 	0.75232 0.10367 0.90732 -0.04500
H 	H 	0.85793 0.10977 0.87548 0.04800
H 	H 	0.72750 0.02856 0.74383 0.05700
H 	H 	0.81585 0.02993 0.67396 0.05200
H 	H 	0.77421 0.10578 0.94646 0.04500
H 	H 	0.92175 0.09141 0.79000 0.08000
H 	H 	0.66919 0.03359 0.83715 0.09100
C 	C 	0.27255 0.01823 0.69124 0.11300
C 	C 	0.31851 0.98909 0.70124 -0.13800
C 	C 	0.35928 0.01488 0.73069 0.07200
C 	C 	0.35450 0.06850 0.74691 0.05700
C 	C 	0.30917 0.09805 0.73266 -0.06500
C 	C 	0.26783 0.07053 0.70724 -0.00600
N 	N 	0.23560 0.00536 0.65328 -0.14700
C 	C 	0.20525 0.04965 0.64670 0.00100
C 	C 	0.22616 0.09203 0.67791 -0.03600
N 	N 	0.38033 0.07658 0.79565 -0.14900
C 	C 	0.40002 0.02881 0.81221 0.03300
C 	C 	0.38869 0.98994 0.77214 -0.10100
H 	H 	0.32140 0.94730 0.68978 0.06600
H 	H 	0.30473 0.13933 0.74553 0.05000
H 	H 	0.20472 0.12751 0.69051 0.04300
H 	H 	0.38568 0.94771 0.78189 0.05500
H 	H 	0.22334 0.96631 0.64495 0.07700
H 	H 	0.37125 0.10752 0.82369 0.08900
C 	C 	0.18214 0.97398 0.25287 0.08800
C 	C 	0.23459 0.99022 0.25782 -0.10800
C 	C 	0.27347 0.95903 0.23162 0.02800
C 	C 	0.26041 0.91248 0.20260 0.06900
C 	C 	0.20800 0.89497 0.20033 -0.07800
C 	C 	0.16909 0.92782 0.22375 0.00500
N 	N 	0.14509 0.98540 0.29155 -0.16000
C 	C 	0.10835 0.94667 0.28724 0.00100
C 	C 	0.12196 0.90989 0.24578 -0.04100
N 	N 	0.29422 0.90466 0.15971 -0.15300
C 	C 	0.32799 0.94641 0.15975 0.01000
C 	C 	0.31678 0.98047 0.20456 -0.06800
H 	H 	0.24472 0.02650 0.28016 0.07000
H 	H 	0.19768 0.85865 0.17817 0.05100
H 	H 	0.10927 0.86857 0.24538 0.04800
H 	H 	0.32627 0.02269 0.20483 0.06800
H 	H 	0.15149 0.00838 0.32770 0.10300
H 	H 	0.28546 0.88183 0.12403 0.08800
C 	C 	0.72519 0.90802 0.37255 0.07300
C 	C 	0.69863 0.89002 0.32436 -0.08000
C 	C 	0.65752 0.92136 0.30292 0.01100
C 	C 	0.64680 0.97171 0.32512 0.07400
C 	C 	0.67582 0.99126 0.37099 -0.09900
C 	C 	0.71306 0.95742 0.39625 0.02300
N 	N 	0.77583 0.89566 0.38251 -0.15100
C 	C 	0.79668 0.93691 0.41153 0.00500
C 	C 	0.75867 0.97573 0.42137 -0.06200
N 	N 	0.62776 0.00407 0.28451 -0.13800
C 	C 	0.62698 0.97529 0.23633 -0.01800
C 	C 	0.64484 0.92365 0.24626 -0.04200
H 	H 	0.71305 0.85575 0.30105 0.05100
H 	H 	0.67325 0.03299 0.38288 0.06700
H 	H 	0.76752 0.01769 0.42753 0.05900
H 	H 	0.66276 0.89857 0.21429 0.04200
H 	H 	0.79793 0.86960 0.35740 0.08400
H 	H 	0.63051 0.04576 0.28560 0.09300
C 	C 	0.05515 0.37680 0.68068 0.05200
C 	C 	0.08739 0.33831 0.65493 -0.06000
C 	C 	0.06536 0.30481 0.61400 -0.01100
C 	C 	0.01199 0.30747 0.60124 0.13400
C 	C 	0.97928 0.34434 0.62887 -0.15700
C 	C 	0.00191 0.37989 0.66746 0.08800
N 	N 	0.06287 0.39247 0.73428 -0.15100
C 	C 	0.01517 0.40368 0.75641 0.03600
C 	C 	0.97645 0.39709 0.71585 -0.11000
N 	N 	0.99453 0.25898 0.58559 -0.17600
C 	C 	0.03546 0.22477 0.59016 0.01400
C 	C 	0.08037 0.25203 0.60684 -0.03900
H 	H 	0.12642 0.33040 0.67118 0.05000
H 	H 	0.93694 0.34106 0.62558 0.07000
H 	H 	0.93589 0.38766 0.72571 0.06000
H 	H 	0.11309 0.23359 0.62873 0.05000
H 	H 	0.09524 0.38073 0.75851 0.09000
H 	H 	0.95516 0.24729 0.58842 0.09400
C 	C 	0.01773 0.73828 0.78587 0.09900
C 	C 	0.05439 0.76811 0.75447 -0.08600
C 	C 	0.05408 0.82383 0.76059 0.01300
C 	C 	0.01701 0.84929 0.79413 0.09000
C 	C 	0.97847 0.81986 0.82283 -0.09600
C 	C 	0.97942 0.76390 0.81809 -0.00800
N 	N 	0.02933 0.69026 0.80854 -0.14100
C 	C 	0.99930 0.68501 0.85540 -0.03500
C 	C 	0.96737 0.72976 0.86210 -0.03000
N 	N 	0.00959 0.89985 0.77636 -0.14400
C 	C 	0.04141 0.90660 0.73118 0.00400
C 	C 	0.06945 0.86008 0.71960 -0.04800
H 	H 	0.08363 0.74844 0.72849 0.05700
H 	H 	0.94932 0.83972 0.84878 0.05100
H 	H 	0.95211 0.74305 0.90245 0.03600
H 	H 	0.08497 0.84939 0.67855 0.05100
H 	H 	0.06536 0.67080 0.80289 0.08700
H 	H 	0.97553 0.92219 0.78389 0.07900
C 	C 	0.97634 0.71062 0.36995 0.05000
C 	C 	0.94881 0.68142 0.32878 -0.06800
C 	C 	0.97478 0.67051 0.27816 -0.01600
C 	C 	0.02653 0.68362 0.26996 0.10700
C 	C 	0.05585 0.70860 0.31218 -0.09800
C 	C 	0.02959 0.72276 0.36235 0.03800
N 	N 	0.95296 0.74893 0.40093 -0.14400
C 	C 	0.98993 0.78614 0.41231 -0.01900
C 	C 	0.03816 0.77052 0.39010 -0.03400
N 	N 	0.04718 0.65489 0.22755 -0.15700
C 	C 	0.00758 0.62436 0.20697 0.01600
C 	C 	0.96236 0.63134 0.23972 -0.05200
H 	H 	0.90769 0.67160 0.33434 0.04900
H 	H 	0.09659 0.71929 0.30528 0.05900
H 	H 	0.06889 0.79844 0.37845 0.04500
H 	H 	0.92278 0.62195 0.22626 0.04500
H 	H 	0.91266 0.75715 0.39946 0.08900
H 	H 	0.08084 0.66575 0.20495 0.08600
C 	C 	0.91740 0.18997 0.11917 0.07600
C 	C 	0.91503 0.13560 0.13351 -0.08400
C 	C 	0.90125 0.12251 0.18921 0.01100
C 	C 	0.89835 0.16174 0.23084 0.07600
C 	C 	0.90798 0.21561 0.21753 -0.08200
C 	C 	0.91322 0.22918 0.16035 0.00900
N 	N 	0.94454 0.20865 0.07462 -0.15100
C 	C 	0.95704 0.25999 0.08624 -0.00500
C 	C 	0.93964 0.27352 0.14010 -0.04400
N 	N 	0.90875 0.14034 0.28182 -0.15100
C 	C 	0.91874 0.08798 0.27284 0.00300
C 	C 	0.91460 0.07523 0.21601 -0.04700
H 	H 	0.92659 0.10501 0.10365 0.05100
H 	H 	0.91425 0.24498 0.25037 0.05300
H 	H 	0.93572 0.31371 0.15649 0.04800
H 	H 	0.93377 0.04156 0.19592 0.04600
H 	H 	0.94665 0.19043 0.03503 0.08600
H 	H 	0.92199 0.16194 0.31672 0.09000
