data_crystal

_cell_length_a 35.12860
_cell_length_b 35.73605
_cell_length_c 26.54993
_cell_angle_alpha 95.60531
_cell_angle_beta  95.60718
_cell_angle_gamma 125.33552

_symmetry_space_group_name_	'P 1'
_symmetry_space_group_name_H-M	'P 1'

loop_
_symmetry_equiv_pos_as_xyz
  x,y,z

loop_
_atom_site_label
_atom_site_type_symbol
_atom_site_fract_x
_atom_site_fract_y
_atom_site_fract_z
_atom_site_charge
C 	C 	0.98139 0.02547 0.98997 0.12600
N 	N 	0.02721 0.04878 0.98352 -0.14000
C 	C 	0.04664 0.02548 0.97703 0.13100
C 	C 	0.02123 0.00066 0.43079 0.13200
N 	N 	0.99885 0.02123 0.42621 -0.14100
Cu	Cu	0.65694 0.26992 0.99828 0.92400
Cu	Cu	0.69870 0.26961 0.89285 0.87200
Cu	Cu	0.68640 0.34290 0.92955 0.89500
Cu	Cu	0.65343 0.35535 0.02594 0.89800
C 	C 	0.66751 0.30770 0.10352 0.30000
O 	O 	0.58685 0.24105 0.99266 -0.36500
C 	C 	0.67560 0.30924 0.81873 0.30500
O 	O 	0.69396 0.34232 0.00173 -0.63400
O 	O 	0.65390 0.27416 0.92433 -0.64200
O 	O 	0.68705 0.23679 0.00033 -0.35600
O 	O 	0.74131 0.28344 0.95349 -0.44300
O 	O 	0.64455 0.32451 0.08698 -0.38300
O 	O 	0.72093 0.41008 0.94011 -0.38100
C 	C 	0.56796 0.25945 0.97044 0.30300
O 	O 	0.59525 0.30285 0.96407 -0.39600
O 	O 	0.66966 0.27823 0.07197 -0.34300
C 	C 	0.72756 0.25379 0.98500 0.30500
O 	O 	0.69077 0.34486 0.85609 -0.38900
O 	O 	0.67107 0.27155 0.82860 -0.40800
H 	H 	0.72733 0.36300 0.02052 0.16700
H 	H 	0.62150 0.25479 0.90306 0.17600
Cu	Cu	0.72495 0.33643 0.42820 0.92900
Cu	Cu	0.72518 0.29503 0.53338 0.87300
Cu	Cu	0.64894 0.30424 0.49502 0.89800
Cu	Cu	0.63631 0.33680 0.39883 0.89500
C 	C 	0.68962 0.32895 0.32247 0.30500
O 	O 	0.75258 0.40514 0.43455 -0.35600
C 	C 	0.68227 0.31519 0.60618 0.30500
O 	O 	0.65099 0.29801 0.42308 -0.64100
O 	O 	0.71928 0.33826 0.50173 -0.64000
O 	O 	0.75974 0.30774 0.42664 -0.36900
O 	O 	0.71210 0.25365 0.47278 -0.44100
O 	O 	0.66994 0.34887 0.33920 -0.38500
O 	O 	0.58034 0.26833 0.48307 -0.38100
C 	C 	0.55458 0.27359 0.44896 0.30700
C 	C 	0.73200 0.42222 0.45550 0.30100
O 	O 	0.68793 0.39385 0.46165 -0.39200
O 	O 	0.57433 0.30782 0.42259 -0.39400
O 	O 	0.71772 0.32489 0.35461 -0.35400
C 	C 	0.74249 0.26770 0.44151 0.30900
O 	O 	0.64606 0.29908 0.56823 -0.38800
O 	O 	0.72148 0.32110 0.59720 -0.40800
H 	H 	0.63096 0.26536 0.40388 0.16400
H 	H 	0.73790 0.36995 0.52324 0.17600
C 	C 	0.67203 0.31512 0.76474 -0.10800
C 	C 	0.70974 0.35515 0.75011 -0.06100
C 	C 	0.71156 0.35690 0.69787 0.16600
C 	C 	0.67550 0.31835 0.65987 -0.10800
C 	C 	0.63571 0.28014 0.67445 -0.06100
C 	C 	0.63383 0.27844 0.72669 0.16600
H 	H 	0.73884 0.38399 0.77919 0.06200
O 	O 	0.74972 0.39536 0.68411 -0.28800
H 	H 	0.60730 0.25071 0.64537 0.06200
O 	O 	0.59571 0.23994 0.74044 -0.28800
H 	H 	0.57269 0.24726 0.74375 0.14400
C 	C 	0.67998 0.31255 0.15945 -0.10000
C 	C 	0.70949 0.35731 0.19032 -0.06200
C 	C 	0.71480 0.36286 0.24403 0.17200
C 	C 	0.69091 0.32338 0.26730 -0.10100
C 	C 	0.66397 0.27854 0.23670 -0.06100
C 	C 	0.65798 0.27295 0.18285 0.17100
H 	H 	0.72711 0.38791 0.17258 0.05100
O 	O 	0.74362 0.40690 0.27377 -0.28000
H 	H 	0.64597 0.24801 0.25450 0.05500
O 	O 	0.62990 0.22886 0.15322 -0.27400
H 	H 	0.59736 0.22058 0.14708 0.15000
H 	H 	0.72295 0.41721 0.27679 0.15100
C 	C 	0.79893 0.19644 0.41502 -0.01000
C 	C 	0.84578 0.21653 0.43880 -0.03000
C 	C 	0.86347 0.19011 0.43673 -0.04400
C 	C 	0.83437 0.14336 0.41087 0.01100
C 	C 	0.78804 0.12381 0.38545 -0.04400
C 	C 	0.77037 0.15029 0.38756 -0.02900
C 	C 	0.85163 0.11431 0.41262 0.00500
C 	C 	0.86229 0.10474 0.45987 -0.03800
C 	C 	0.88035 0.07873 0.46192 -0.04000
C 	C 	0.88785 0.06206 0.41679 0.01300
C 	C 	0.87638 0.07079 0.36940 -0.03900
C 	C 	0.85828 0.09682 0.36729 -0.03800
C 	C 	0.90982 0.03833 0.41962 0.00700
C 	C 	0.92824 0.01852 0.42240 -0.04100
C 	C 	0.77879 0.22154 0.42324 0.04800
C 	C 	0.76236 0.24291 0.43041 -0.11800
H 	H 	0.86810 0.25220 0.46002 0.03700
H 	H 	0.89945 0.20566 0.45603 0.04200
H 	H 	0.76537 0.08782 0.36521 0.04300
H 	H 	0.73412 0.13453 0.36904 0.04000
H 	H 	0.85691 0.11776 0.49501 0.03900
H 	H 	0.88909 0.07208 0.49868 0.04300
H 	H 	0.88210 0.05803 0.33434 0.04400
H 	H 	0.85007 0.10393 0.33062 0.04200
C 	C 	0.16371 0.07405 0.43353 0.01300
C 	C 	0.18584 0.05222 0.44194 -0.03900
C 	C 	0.23473 0.07682 0.44369 -0.03700
C 	C 	0.26180 0.12344 0.43700 0.00600
C 	C 	0.23953 0.14518 0.42833 -0.03700
C 	C 	0.19062 0.12054 0.42663 -0.03900
C 	C 	0.31347 0.14958 0.43950 0.01100
C 	C 	0.33100 0.13500 0.40316 -0.04400
C 	C 	0.38000 0.15976 0.40561 -0.03000
C 	C 	0.41175 0.19922 0.44435 -0.00800
C 	C 	0.39434 0.21376 0.48078 -0.02900
C 	C 	0.34535 0.18902 0.47839 -0.04400
C 	C 	0.46216 0.22532 0.44610 0.04700
C 	C 	0.50436 0.24714 0.44752 -0.10600
C 	C 	0.11346 0.04879 0.43237 0.00600
C 	C 	0.07135 0.02713 0.43152 -0.03800
H 	H 	0.16523 0.01628 0.44731 0.04400
H 	H 	0.25161 0.05979 0.45055 0.04100
H 	H 	0.26009 0.18110 0.42290 0.04100
H 	H 	0.17372 0.13760 0.42004 0.04400
H 	H 	0.30668 0.10467 0.37293 0.04300
H 	H 	0.39324 0.14839 0.37728 0.03900
H 	H 	0.41871 0.24426 0.51082 0.04100
H 	H 	0.33216 0.20039 0.50678 0.04200
C 	C 	0.91987 0.09313 0.00183 0.04200
C 	C 	0.90517 0.09816 0.04763 -0.04800
C 	C 	0.88148 0.11882 0.05070 -0.03300
C 	C 	0.87232 0.13448 0.00791 0.01000
C 	C 	0.88793 0.13028 0.96245 -0.04200
C 	C 	0.91165 0.10968 0.95944 -0.05700
C 	C 	0.84482 0.15361 0.00989 0.02200
C 	C 	0.86514 0.19779 0.03969 -0.04600
C 	C 	0.84053 0.21761 0.03796 -0.02600
C 	C 	0.79549 0.19332 0.00652 -0.00700
C 	C 	0.77455 0.14858 0.97806 -0.03600
C 	C 	0.79913 0.12878 0.97971 -0.05600
C 	C 	0.77227 0.21555 0.00033 0.06700
C 	C 	0.75198 0.23327 0.99435 -0.13600
C 	C 	0.94175 0.06942 0.99771 -0.01500
C 	C 	0.96007 0.04955 0.99432 -0.03100
H 	H 	0.91147 0.08548 0.08056 0.04800
H 	H 	0.86958 0.12195 0.08596 0.04100
H 	H 	0.88120 0.14249 0.92932 0.03900
H 	H 	0.92305 0.10604 0.92397 0.04600
H 	H 	0.90036 0.21716 0.06321 0.04500
H 	H 	0.85690 0.25219 0.06015 0.04100
H 	H 	0.73969 0.12956 0.95379 0.03500
H 	H 	0.78305 0.09453 0.95683 0.04200
C 	C 	0.18295 0.09028 0.95497 0.01300
C 	C 	0.19450 0.06324 0.92865 -0.04000
C 	C 	0.24161 0.08311 0.92413 -0.03800
C 	C 	0.27748 0.13018 0.94597 0.00500
C 	C 	0.26565 0.15756 0.97109 -0.03800
C 	C 	0.21850 0.13763 0.97557 -0.04000
C 	C 	0.32765 0.15001 0.94528 0.01000
C 	C 	0.34916 0.13260 0.97153 -0.04400
C 	C 	0.39743 0.15313 0.97349 -0.03000
C 	C 	0.42452 0.19120 0.94927 -0.01000
C 	C 	0.40287 0.20792 0.92193 -0.03000
C 	C 	0.35455 0.18739 0.91992 -0.04400
C 	C 	0.47511 0.21525 0.95584 0.04600
C 	C 	0.51743 0.23508 0.96165 -0.11200
C 	C 	0.13514 0.06873 0.96324 0.00500
C 	C 	0.09481 0.04971 0.96956 -0.04000
H 	H 	0.16714 0.02663 0.91248 0.04300
H 	H 	0.25035 0.06178 0.90441 0.04000
H 	H 	0.29311 0.19393 0.98810 0.03900
H 	H 	0.20979 0.15876 0.99586 0.04200
H 	H 	0.32869 0.10377 0.99124 0.04100
H 	H 	0.41397 0.14007 0.99473 0.03900
H 	H 	0.42361 0.23733 0.90308 0.03800
H 	H 	0.33817 0.20085 0.89925 0.04100
O 	O 	0.68012 0.41510 0.00035 -0.38300
H 	H 	0.74044 0.41652 0.68011 0.14400
C 	C 	0.71430 0.43495 0.97323 0.29600
C 	C 	0.75371 0.47132 0.46108 -0.10700
C 	C 	0.73877 0.48376 0.97272 -0.10500
C 	C 	0.77078 0.51220 0.46408 0.04700
C 	C 	0.75859 0.52474 0.97255 0.04400
H 	H 	0.72789 0.55260 0.48621 0.03900
C 	C 	0.95153 0.99626 0.42615 0.13700
N 	N 	0.02030 0.97897 0.97690 -0.14000
C 	C 	0.97456 0.95567 0.98328 0.13400
N 	N 	0.95504 0.97888 0.98977 -0.13900
N 	N 	0.92658 0.95066 0.43083 -0.14000
C 	C 	0.94908 0.93014 0.43542 0.13400
N 	N 	0.99634 0.95517 0.43539 -0.13900
C 	C 	0.79069 0.56095 0.46781 -0.00800
C 	C 	0.76310 0.57650 0.47796 -0.03000
C 	C 	0.78035 0.62267 0.47604 -0.04400
C 	C 	0.82531 0.65354 0.46388 0.01100
C 	C 	0.85346 0.63828 0.45525 -0.04300
C 	C 	0.83617 0.59212 0.45719 -0.02900
C 	C 	0.84214 0.70120 0.45813 0.00600
C 	C 	0.85183 0.73377 0.50095 -0.03800
C 	C 	0.87021 0.77966 0.49594 -0.03900
C 	C 	0.87894 0.79322 0.44811 0.01300
C 	C 	0.86799 0.76038 0.40501 -0.03900
C 	C 	0.84964 0.71452 0.40997 -0.03700
C 	C 	0.90297 0.84160 0.44417 0.00600
C 	C 	0.92307 0.88195 0.44022 -0.03800
H 	H 	0.75841 0.63414 0.48290 0.04200
H 	H 	0.88840 0.66198 0.44630 0.04300
H 	H 	0.85774 0.58037 0.44938 0.04200
H 	H 	0.84597 0.72377 0.53824 0.04100
H 	H 	0.87862 0.80487 0.52944 0.04400
H 	H 	0.87462 0.77059 0.36791 0.04400
H 	H 	0.84182 0.68951 0.37658 0.04200
C 	C 	0.89724 0.81504 0.97693 0.00200
C 	C 	0.89768 0.78752 0.93594 -0.03800
C 	C 	0.87406 0.73967 0.93444 -0.03600
C 	C 	0.84987 0.71906 0.97399 -0.00500
C 	C 	0.84885 0.74655 0.01462 -0.02700
C 	C 	0.87249 0.79442 0.01606 -0.02900
C 	C 	0.82631 0.66892 0.97330 0.01300
C 	C 	0.85332 0.65153 0.97702 -0.04600
C 	C 	0.83097 0.60398 0.97649 -0.03000
C 	C 	0.78156 0.57356 0.97227 -0.00900
C 	C 	0.75452 0.59083 0.96842 -0.03000
C 	C 	0.77681 0.63836 0.96893 -0.04600
C 	C 	0.92394 0.86472 0.97992 0.00800
C 	C 	0.94655 0.90625 0.98167 -0.04200
H 	H 	0.91672 0.80326 0.90553 0.04300
H 	H 	0.87477 0.71867 0.90275 0.04000
H 	H 	0.83026 0.73093 0.04533 0.04200
H 	H 	0.87203 0.81551 0.04787 0.04500
H 	H 	0.89157 0.67489 0.98056 0.04100
H 	H 	0.85208 0.59085 0.97954 0.03800
H 	H 	0.71629 0.56747 0.96514 0.03900
H 	H 	0.75566 0.65143 0.96583 0.04100
