data_crystal

_cell_length_a 16.15995
_cell_length_b 16.99980
_cell_length_c 46.18213
_cell_angle_alpha 90.21926
_cell_angle_beta  90.21928
_cell_angle_gamma 119.33572

_symmetry_space_group_name_	'P 1'
_symmetry_space_group_name_H-M	'P 1'

loop_
_symmetry_equiv_pos_as_xyz
  x,y,z

loop_
_atom_site_label
_atom_site_type_symbol
_atom_site_fract_x
_atom_site_fract_y
_atom_site_fract_z
_atom_site_charge
C 	C 	0.14133 0.03215 0.72804 0.31100
Ni	Ni	0.04943 0.08876 0.76904 1.11900
Ni	Ni	0.03601 0.89672 0.77439 1.12200
O 	O 	0.07619 0.05520 0.73048 -0.37600
O 	O 	0.12606 0.96175 0.80656 -0.36200
O 	O 	0.17362 0.10566 0.78794 -0.36100
O 	O 	0.14301 0.97294 0.74615 -0.33800
O 	O 	0.14930 0.54111 0.40728 -0.35600
C 	C 	0.09696 0.93093 0.24035 0.30800
C 	C 	0.09893 0.18417 0.33255 0.32300
C 	C 	0.09489 0.91760 0.31912 0.33500
C 	C 	0.12125 0.21820 0.25306 0.29900
Ni	Ni	0.14536 0.08220 0.28738 1.11600
O 	O 	0.15983 0.98901 0.25974 -0.34600
O 	O 	0.00540 0.90533 0.24164 -0.35200
O 	O 	0.16565 0.18841 0.31529 -0.35700
O 	O 	0.01300 0.11741 0.32968 -0.36600
O 	O 	0.11493 0.00079 0.32289 -0.38000
O 	O 	0.03682 0.87020 0.29787 -0.35000
O 	O 	0.16767 0.17222 0.25483 -0.35100
O 	O 	0.05693 0.20965 0.27308 -0.36200
O 	O 	0.01612 0.03030 0.27784 -0.72100
H 	H 	0.01854 0.04083 0.25681 0.18200
C 	C 	0.17539 0.38032 0.24392 -0.02800
C 	C 	0.16160 0.29722 0.23362 -0.06300
H 	H 	0.13945 0.38322 0.26327 0.07700
O 	O 	0.18563 0.55573 0.25053 -0.06200
C 	C 	0.12534 0.87770 0.22153 -0.06300
C 	C 	0.07815 0.84244 0.19488 0.10500
C 	C 	0.09017 0.77662 0.18016 -0.02300
C 	C 	0.15940 0.75528 0.18929 -0.06500
H 	H 	0.05583 0.75230 0.15929 0.07200
C 	C 	0.14088 0.34514 0.33122 -0.02800
C 	C 	0.11243 0.26665 0.34741 -0.07900
C 	C 	0.08080 0.26323 0.37612 0.09900
C 	C 	0.08540 0.34075 0.38875 -0.02800
C 	C 	0.12351 0.42179 0.37324 -0.07900
H 	H 	0.06957 0.34054 0.41156 0.06800
N 	N 	0.04818 0.18283 0.39292 -0.01800
O 	O 	0.10053 0.14452 0.39548 -0.08200
C 	C 	0.15763 0.88762 0.33308 -0.08400
C 	C 	0.15823 0.80865 0.32389 0.11100
N 	N 	0.07725 0.73761 0.30951 -0.01600
O 	O 	0.08751 0.70492 0.28515 -0.07500
C 	C 	0.10431 0.57423 0.55787 -0.07800
C 	C 	0.10817 0.51298 0.53811 0.01900
C 	C 	0.03138 0.45954 0.52038 0.08400
N 	N 	0.06175 0.44323 0.49507 -0.15000
C 	C 	0.15808 0.48929 0.49568 0.01700
C 	C 	0.18881 0.53024 0.52281 -0.04500
H 	H 	0.16497 0.61672 0.57144 0.06400
H 	H 	0.02193 0.42714 0.47589 0.09900
C 	C 	0.02086 0.55464 0.03988 0.01900
C 	C 	0.09875 0.57747 0.02240 0.08500
C 	C 	0.10272 0.51224 0.00463 -0.08000
N 	N 	0.17693 0.64599 0.03443 -0.14900
C 	C 	0.15126 0.66467 0.06034 0.00700
C 	C 	0.05346 0.61147 0.06369 -0.03900
H 	H 	0.16365 0.52996 0.99097 0.06300
H 	H 	0.01913 0.59368 0.08463 0.05300
C 	C 	0.02556 0.42392 0.00456 0.02200
O 	O 	0.16941 0.66160 0.15101 -0.36600
O 	O 	0.00823 0.12444 0.80542 -0.37900
O 	O 	0.09765 0.14758 0.19050 -0.07100
O 	O 	0.07054 0.96369 0.17280 -0.06200
O 	O 	0.07767 0.95590 0.66796 -0.06300
C 	C 	0.18595 0.84783 0.23255 -0.01600
N 	N 	0.02618 0.88014 0.18123 -0.01700
C 	C 	0.18387 0.05006 0.80654 0.29000
H 	H 	0.23278 0.73327 0.32548 0.09900
O 	O 	0.20226 0.61197 0.46391 -0.36600
N 	N 	0.25623 0.54503 0.24211 -0.02100
C 	C 	0.52390 0.15664 0.96046 0.25700
C 	C 	0.50855 0.17444 0.87831 0.32000
C 	C 	0.65916 0.46253 0.96397 0.25600
Ni	Ni	0.54918 0.31537 0.92144 1.11700
Ni	Ni	0.67380 0.21436 0.91660 1.12400
O 	O 	0.48102 0.18909 0.94309 -0.33300
O 	O 	0.60462 0.15989 0.95325 -0.37100
O 	O 	0.59167 0.43970 0.90082 -0.35500
O 	O 	0.53191 0.25875 0.88101 -0.36400
O 	O 	0.54515 0.13891 0.89605 -0.35800
O 	O 	0.57849 0.38731 0.95929 -0.36500
O 	O 	0.66609 0.31889 0.92696 -0.71400
H 	H 	0.66951 0.31746 0.94824 0.16200
C 	C 	0.65674 0.13765 0.66488 0.32500
C 	C 	0.47123 0.25379 0.66230 0.32400
C 	C 	0.54610 0.33983 0.58478 0.26300
Ni	Ni	0.64959 0.40716 0.63926 1.12200
Ni	Ni	0.56890 0.20246 0.62084 1.12200
O 	O 	0.64087 0.19901 0.58639 -0.38000
O 	O 	0.50986 0.33559 0.65100 -0.35600
O 	O 	0.50258 0.25830 0.59713 -0.36600
O 	O 	0.60950 0.11762 0.64019 -0.36600
O 	O 	0.60839 0.41206 0.59917 -0.37800
O 	O 	0.51043 0.20359 0.65842 -0.37600
O 	O 	0.67871 0.31644 0.62756 -0.71000
C 	C 	0.20932 0.53960 0.46992 0.25600
C 	C 	0.32354 0.79740 0.37619 0.32000
C 	C 	0.18426 0.50601 0.38886 0.32300
C 	C 	0.37730 0.84334 0.45779 0.26000
C 	C 	0.49217 0.66498 0.37591 0.32800
C 	C 	0.52310 0.68066 0.45713 0.25800
Ni	Ni	0.23479 0.67199 0.42418 1.11600
Ni	Ni	0.46156 0.77827 0.41421 1.12400
Ni	Ni	0.35492 0.56589 0.42264 1.12200
O 	O 	0.23834 0.50043 0.44999 -0.35600
O 	O 	0.45492 0.71691 0.37712 -0.38100
O 	O 	0.26400 0.71394 0.38206 -0.36500
O 	O 	0.40064 0.84181 0.39218 -0.34600
O 	O 	0.44571 0.60079 0.45525 -0.37900
O 	O 	0.27540 0.53983 0.38688 -0.37300
O 	O 	0.54976 0.74133 0.43566 -0.36100
O 	O 	0.29716 0.80452 0.44196 -0.34100
O 	O 	0.45608 0.84580 0.44880 -0.36400
O 	O 	0.46819 0.60157 0.39562 -0.36600
O 	O 	0.35228 0.67564 0.42883 -0.71200
H 	H 	0.36291 0.68435 0.44990 0.16400
C 	C 	0.52274 0.85482 0.17132 0.30800
C 	C 	0.34689 0.52654 0.10207 0.28000
C 	C 	0.51910 0.80555 0.09174 0.27800
C 	C 	0.31321 0.53351 0.18351 0.31000
C 	C 	0.21259 0.68027 0.08544 0.28500
C 	C 	0.21223 0.73819 0.16670 0.30300
Ni	Ni	0.46375 0.67873 0.14215 1.11800
Ni	Ni	0.23528 0.59205 0.13593 1.12300
Ni	Ni	0.36723 0.80140 0.12522 1.12400
O 	O 	0.51012 0.77259 0.17508 -0.35800
O 	O 	0.49451 0.87763 0.14697 -0.36500
O 	O 	0.22437 0.61384 0.09426 -0.38900
O 	O 	0.42821 0.59961 0.10572 -0.36800
O 	O 	0.27782 0.50327 0.12108 -0.36300
O 	O 	0.29216 0.80858 0.15806 -0.36600
O 	O 	0.55372 0.78513 0.11461 -0.34800
O 	O 	0.42962 0.78178 0.09077 -0.38200
O 	O 	0.39603 0.56405 0.16955 -0.35200
O 	O 	0.25031 0.55832 0.17633 -0.36700
O 	O 	0.24891 0.75665 0.10010 -0.36700
O 	O 	0.35605 0.69390 0.14135 -0.72000
H 	H 	0.35224 0.70552 0.16201 0.17900
C 	C 	0.20592 0.29444 0.20753 0.10000
C 	C 	0.26811 0.37488 0.19343 -0.02400
C 	C 	0.28220 0.45801 0.20390 -0.07100
C 	C 	0.23846 0.46062 0.23002 0.10800
H 	H 	0.29920 0.37185 0.17298 0.07100
N 	N 	0.18526 0.20972 0.19481 -0.02100
O 	O 	0.34294 0.60770 0.24743 -0.05500
O 	O 	0.25400 0.19651 0.18613 -0.08900
C 	C 	0.59674 0.92579 0.18907 -0.06600
C 	C 	0.58463 0.92070 0.21926 0.10300
N 	N 	0.49744 0.90747 0.23165 -0.02000
O 	O 	0.47127 0.87082 0.25704 -0.07000
O 	O 	0.44816 0.93875 0.21859 -0.08300
C 	C 	0.20184 0.78533 0.21700 0.10800
N 	N 	0.25949 0.75136 0.22973 -0.01500
H 	H 	0.21945 0.87171 0.25354 0.08300
O 	O 	0.26304 0.74549 0.25774 -0.05800
O 	O 	0.31592 0.73564 0.21376 -0.08000
C 	C 	0.66688 0.74174 0.37575 -0.03100
C 	C 	0.58165 0.69928 0.35990 -0.08100
C 	C 	0.58222 0.72409 0.33076 0.10500
H 	H 	0.66896 0.72022 0.39768 0.07200
N 	N 	0.49981 0.67447 0.31287 -0.02200
O 	O 	0.46669 0.71693 0.29748 -0.06300
O 	O 	0.45730 0.58675 0.31220 -0.07500
C 	C 	0.13919 0.41987 0.34338 0.10700
N 	N 	0.16612 0.49874 0.32625 -0.02400
H 	H 	0.16388 0.34802 0.30913 0.07400
O 	O 	0.24392 0.53290 0.31126 -0.06200
O 	O 	0.11557 0.53921 0.32690 -0.07500
C 	C 	0.23200 0.79345 0.33296 -0.02700
C 	C 	0.29258 0.84448 0.35584 -0.06600
C 	C 	0.29387 0.92447 0.36454 0.09600
C 	C 	0.22626 0.94522 0.35339 -0.00800
H 	H 	0.22714 0.00634 0.36063 0.06600
N 	N 	0.36178 0.98349 0.38542 -0.01200
O 	O 	0.45150 0.02689 0.37898 -0.10000
O 	O 	0.33328 0.99935 0.40996 -0.08700
C 	C 	0.50167 0.01933 0.50385 0.06000
C 	C 	0.59755 0.08685 0.50351 -0.07200
C 	C 	0.66052 0.08320 0.52389 0.01900
C 	C 	0.62853 0.01387 0.54400 0.07200
C 	C 	0.53404 0.94298 0.54290 -0.07000
C 	C 	0.47066 0.94883 0.52329 0.03500
N 	N 	0.44822 0.99194 0.47961 -0.13400
C 	C 	0.38735 0.90231 0.48220 0.02500
C 	C 	0.39644 0.87475 0.50990 -0.05000
N 	N 	0.67461 0.04572 0.56939 -0.14900
H 	H 	0.62218 0.14157 0.48812 0.06000
H 	H 	0.50944 0.88745 0.55798 0.06200
H 	H 	0.37770 0.80578 0.51502 0.04800
H 	H 	0.47204 0.02371 0.45961 0.10100
H 	H 	0.64652 0.01452 0.58920 0.09800
C 	C 	0.01876 0.57664 0.56052 0.08500
H 	H 	0.25731 0.58971 0.52648 0.04800
H 	H 	0.02957 0.60720 0.60513 0.10500
C 	C 	0.54841 0.44598 0.52139 0.08400
C 	C 	0.61908 0.51235 0.50399 -0.07900
C 	C 	0.62788 0.59892 0.50345 0.02000
C 	C 	0.57216 0.62022 0.52120 0.08500
C 	C 	0.50433 0.55416 0.53949 -0.07700
C 	C 	0.48921 0.46560 0.53773 0.01900
N 	N 	0.55755 0.37890 0.53372 -0.15200
C 	C 	0.50627 0.35631 0.55847 0.01500
C 	C 	0.45959 0.40669 0.56080 -0.03900
N 	N 	0.55499 0.68134 0.50805 -0.15000
C 	C 	0.58857 0.69164 0.48071 0.01700
C 	C 	0.64109 0.64685 0.47808 -0.03800
H 	H 	0.66416 0.49653 0.49071 0.06100
H 	H 	0.46010 0.56995 0.55320 0.06100
H 	H 	0.43730 0.42142 0.58128 0.06200
H 	H 	0.65439 0.62463 0.45743 0.06000
H 	H 	0.61668 0.37016 0.53068 0.08600
H 	H 	0.49770 0.69082 0.51360 0.08700
N 	N 	0.56864 0.02418 0.71555 -0.02800
O 	O 	0.49460 0.98396 0.69869 -0.06400
C 	C 	0.28843 0.17838 0.72037 -0.02000
C 	C 	0.22565 0.09021 0.71060 -0.06100
C 	C 	0.23329 0.06553 0.68204 0.09700
C 	C 	0.30719 0.12658 0.66436 -0.01400
C 	C 	0.37572 0.21145 0.67515 -0.07500
C 	C 	0.36259 0.23935 0.70265 0.11400
N 	N 	0.42407 0.32964 0.71262 -0.02300
H 	H 	0.27850 0.20028 0.74150 0.07100
H 	H 	0.31507 0.10564 0.64282 0.05600
N 	N 	0.16663 0.97826 0.67092 -0.01700
O 	O 	0.43301 0.39775 0.69750 -0.08100
O 	O 	0.46607 0.34371 0.73769 -0.06500
O 	O 	0.19616 0.92407 0.66159 -0.08200
H 	H 	0.24571 0.65827 0.03000 0.09200
C 	C 	0.46554 0.97954 0.00593 0.10500
C 	C 	0.49680 0.91554 0.00656 -0.08400
C 	C 	0.56226 0.92325 0.02806 0.01900
C 	C 	0.59236 0.99037 0.04909 0.09200
C 	C 	0.56397 0.05644 0.04783 -0.09100
C 	C 	0.49910 0.04899 0.02617 0.00600
N 	N 	0.44463 0.00660 0.98094 -0.16200
C 	C 	0.47113 0.09519 0.98398 0.02600
C 	C 	0.50134 0.12231 0.01245 -0.04500
N 	N 	0.60650 0.95948 0.07444 -0.15200
C 	C 	0.58102 0.87141 0.07043 0.00800
C 	C 	0.55952 0.84915 0.04123 -0.03800
H 	H 	0.47144 0.86168 0.99061 0.06500
H 	H 	0.58940 0.11039 0.06374 0.05900
H 	H 	0.55008 0.19165 0.01860 0.04700
H 	H 	0.51417 0.78057 0.03362 0.05300
H 	H 	0.44244 0.97656 0.96093 0.11800
H 	H 	0.60296 0.98630 0.09453 0.09500
C 	C 	0.55958 0.54580 0.01188 0.08400
C 	C 	0.46757 0.53474 0.01388 -0.07900
C 	C 	0.40626 0.47721 0.03528 0.01700
C 	C 	0.43649 0.43404 0.05458 0.08400
C 	C 	0.52803 0.44410 0.05228 -0.08000
C 	C 	0.58956 0.50225 0.03106 0.01900
N 	N 	0.60444 0.55826 0.98637 -0.15000
C 	C 	0.65937 0.51850 0.98823 0.01800
C 	C 	0.65473 0.48670 0.01635 -0.04600
N 	N 	0.39364 0.42423 0.08034 -0.14900
C 	C 	0.34031 0.46564 0.07855 0.01100
C 	C 	0.34260 0.49454 0.05015 -0.04000
H 	H 	0.44418 0.56925 0.99907 0.05900
H 	H 	0.55149 0.40962 0.06708 0.05900
H 	H 	0.32923 0.54925 0.04453 0.05400
H 	H 	0.57670 0.56632 0.96679 0.09900
H 	H 	0.42242 0.41700 0.09983 0.09500
C 	C 	0.43530 0.12315 0.83029 -0.01800
C 	C 	0.42525 0.11685 0.86044 -0.07500
C 	C 	0.33432 0.08431 0.87242 0.09700
C 	C 	0.25833 0.07265 0.85478 -0.02600
C 	C 	0.26963 0.08467 0.82475 -0.06500
C 	C 	0.35803 0.10641 0.81237 0.10500
N 	N 	0.36887 0.10821 0.78164 -0.02300
H 	H 	0.50454 0.14575 0.82078 0.08000
H 	H 	0.18902 0.04967 0.86429 0.07100
N 	N 	0.31929 0.06440 0.90265 -0.02100
O 	O 	0.43106 0.18222 0.76927 -0.06800
O 	O 	0.33140 0.03280 0.76710 -0.07900
O 	O 	0.27526 0.09648 0.91808 -0.10100
O 	O 	0.34215 0.00790 0.91416 -0.09100
O 	O 	0.54875 0.42161 0.82570 -0.07700
C 	C 	0.66224 0.47334 0.88228 0.32400
H 	H 	0.66831 0.43189 0.02161 0.04700
C 	C 	0.66030 0.80226 0.31997 -0.02800
C 	C 	0.72929 0.15956 0.53788 -0.04100
C 	C 	0.71939 0.19348 0.58846 0.26100
C 	C 	0.68924 0.96769 0.17819 -0.02800
H 	H 	0.70068 0.97984 0.15514 0.07400
C 	C 	0.72984 0.13624 0.56676 0.01500
O 	O 	0.72218 0.44333 0.88184 -0.37600
O 	O 	0.72676 0.49818 0.94359 -0.35600
O 	O 	0.72798 0.26143 0.87795 -0.38500
O 	O 	0.68052 0.39370 0.68031 -0.37200
O 	O 	0.70204 0.22106 0.67342 -0.36000
H 	H 	0.69991 0.33613 0.60765 0.16200
C 	C 	0.65846 0.92803 0.23715 -0.01800
H 	H 	0.64822 0.91946 0.26033 0.07100
H 	H 	0.65938 0.82193 0.29774 0.07100
H 	H 	0.74742 0.22727 0.53122 0.04900
C 	C 	0.68807 0.07688 0.67683 -0.07900
C 	C 	0.66058 0.04469 0.70512 0.11000
H 	H 	0.78949 0.09977 0.64315 0.06800
O 	O 	0.55871 0.04477 0.74199 -0.07000
O 	O 	0.65964 0.68493 0.68741 -0.08500
O 	O 	0.96803 0.23676 0.91628 -0.09900
C 	C 	0.68629 0.55597 0.86612 -0.07900
C 	C 	0.69438 0.55438 0.83576 0.10700
N 	N 	0.63824 0.47236 0.81977 -0.02200
C 	C 	0.77137 0.08223 0.66563 -0.03100
H 	H 	0.72674 0.64114 0.90414 0.06800
O 	O 	0.67605 0.44942 0.79886 -0.07300
O 	O 	0.77394 0.21907 0.61249 -0.35100
C 	C 	0.74548 0.81983 0.36505 0.10200
H 	H 	0.72801 0.56417 0.66991 0.03300
C 	C 	0.73417 0.63894 0.88087 -0.02700
C 	C 	0.74746 0.95227 0.22530 -0.07600
C 	C 	0.76488 0.97973 0.19609 0.11200
C 	C 	0.74122 0.85219 0.33723 -0.07700
Ni	Ni	0.77842 0.42900 0.91887 1.12300
O 	O 	0.80247 0.26301 0.93751 -0.35200
C 	C 	0.76818 0.43733 0.68862 0.33100
Ni	Ni	0.78622 0.31668 0.64404 1.11700
C 	C 	0.72499 0.03622 0.72354 -0.01800
N 	N 	0.75016 0.71759 0.69189 -0.02400
C 	C 	0.76131 0.63194 0.82129 -0.02700
O 	O 	0.78829 0.50197 0.62843 -0.34900
H 	H 	0.70355 0.01045 0.74525 0.07100
C 	C 	0.76884 0.58335 0.68986 -0.00800
N 	N 	0.97512 0.29431 0.89662 -0.01900
C 	C 	0.81722 0.32096 0.87560 0.32000
H 	H 	0.80035 0.32811 0.01392 0.08500
O 	O 	0.81095 0.82972 0.89876 -0.09000
H 	H 	0.76822 0.62996 0.79801 0.07600
H 	H 	0.79342 0.44244 0.55501 0.04400
C 	C 	0.83737 0.07694 0.68419 0.10300
H 	H 	0.02685 0.39456 0.95889 0.07600
C 	C 	0.80089 0.71688 0.86641 0.09700
C 	C 	0.78458 0.66194 0.70428 0.10600
O 	O 	0.92622 0.04254 0.65085 -0.08100
C 	C 	0.83614 0.32884 0.95754 0.26200
N 	N 	0.82916 0.86669 0.38263 -0.02200
O 	O 	0.83851 0.40682 0.95307 -0.37300
C 	C 	0.81588 0.05808 0.71372 -0.06300
C 	C 	0.80214 0.52754 0.70154 -0.08300
O 	O 	0.80971 0.79824 0.68290 -0.06500
C 	C 	0.81695 0.71262 0.83657 -0.06600
O 	O 	0.81048 0.78638 0.76240 -0.35600
C 	C 	0.82669 0.97139 0.24492 0.32300
O 	O 	0.82773 0.90265 0.25893 -0.36900
C 	C 	0.93018 0.26292 0.86898 0.09600
O 	O 	0.85617 0.39021 0.89371 -0.35400
C 	C 	0.84552 0.48537 0.61144 0.25400
O 	O 	0.82874 0.41702 0.67650 -0.33800
C 	C 	0.82915 0.92103 0.32341 0.32400
N 	N 	0.85441 0.79934 0.88233 -0.02100
O 	O 	0.83122 0.99058 0.30994 -0.36300
N 	N 	0.85881 0.01944 0.18457 -0.03300
O 	O 	0.86990 0.42427 0.61841 -0.35500
O 	O 	0.85034 0.85719 0.81901 -0.35700
O 	O 	0.84582 0.02925 0.79796 -0.35400
C 	C 	0.87605 0.29894 0.85666 -0.07200
O 	O 	0.86491 0.95261 0.38773 -0.06800
O 	O 	0.86649 0.82247 0.39485 -0.08600
Ni	Ni	0.84550 0.91320 0.78005 1.11900
C 	C 	0.86119 0.50271 0.55876 -0.04700
N 	N 	0.92567 0.09008 0.67291 -0.02100
C 	C 	0.83384 0.68567 0.73078 -0.07500
N 	N 	0.86797 0.33822 0.00888 -0.15200
O 	O 	0.84841 0.95402 0.73813 -0.34700
C 	C 	0.89234 0.32591 0.98192 0.02100
O 	O 	0.89176 0.09267 0.16928 -0.09100
H 	H 	0.81160 0.31142 0.81729 0.08500
C 	C 	0.85176 0.55139 0.72810 0.11500
C 	C 	0.84907 0.28049 0.82747 -0.02100
O 	O 	0.73429 0.15120 0.77828 -0.08100
C 	C 	0.87763 0.79558 0.82025 0.30400
C 	C 	0.86462 0.77490 0.74357 0.32400
O 	O 	0.88049 0.05628 0.25306 -0.38700
H 	H 	0.88573 0.44781 0.05498 0.05700
C 	C 	0.87675 0.03797 0.73239 0.31300
C 	C 	0.89234 0.54134 0.58618 0.02100
C 	C 	0.93987 0.19565 0.85409 -0.02400
O 	O 	0.90873 0.97897 0.18759 -0.06200
H 	H 	0.88568 0.42030 0.50906 0.05700
C 	C 	0.86736 0.63032 0.74259 -0.02500
O 	O 	0.89607 0.90118 0.31900 -0.37300
O 	O 	0.85495 0.46003 0.76613 -0.07600
C 	C 	0.90064 0.16779 0.82627 -0.07200
C 	C 	0.85895 0.21381 0.81243 0.10600
H 	H 	0.97908 0.16608 0.86400 0.07200
N 	N 	0.88481 0.49500 0.74072 -0.02300
N 	N 	0.82517 0.19236 0.78331 -0.02200
C 	C 	0.91879 0.10254 0.81011 0.30800
O 	O 	0.93866 0.82768 0.17315 -0.08900
H 	H 	0.90718 0.64949 0.76276 0.06400
C 	C 	0.94741 0.40101 0.02216 0.08200
C 	C 	0.94598 0.46551 0.04101 -0.08200
O 	O 	0.94673 0.84062 0.88199 -0.08700
Ni	Ni	0.94200 0.90275 0.27912 1.12500
C 	C 	0.94163 0.52286 0.54284 0.01900
O 	O 	0.94223 0.79553 0.80187 -0.35700
O 	O 	0.94413 0.10232 0.74831 -0.34400
C 	C 	0.94627 0.46286 0.52265 -0.08200
Ni	Ni	0.95013 0.09048 0.29054 1.11800
O 	O 	0.95201 0.83801 0.73990 -0.36300
O 	O 	0.97035 0.15271 0.40776 -0.09300
O 	O 	0.95122 0.48556 0.72808 -0.07400
O 	O 	0.03085 0.38017 0.90105 -0.09400
O 	O 	0.88382 0.23048 0.76207 -0.07500
C 	C 	0.99083 0.37334 0.97948 -0.03800
O 	O 	0.97823 0.96859 0.78226 -0.71300
N 	N 	0.98849 0.59057 0.58620 -0.14800
O 	O 	0.00548 0.15353 0.68346 -0.08800
O 	O 	0.99551 0.69860 0.32245 -0.08900
H 	H 	0.98931 0.97847 0.80330 0.17900
