data_crystal

_cell_length_a 25.29878
_cell_length_b 25.30010
_cell_length_c 14.71873
_cell_angle_alpha 90.00343
_cell_angle_beta  89.99826
_cell_angle_gamma 89.99292

_symmetry_space_group_name_	'P 1'
_symmetry_space_group_name_H-M	'P 1'

loop_
_symmetry_equiv_pos_as_xyz
  x,y,z

loop_
_atom_site_label
_atom_site_type_symbol
_atom_site_fract_x
_atom_site_fract_y
_atom_site_fract_z
_atom_site_charge
Ni	Ni	0.58829 0.05323 0.60058 1.08600
O 	O 	0.60999 0.11558 0.68193 -0.70100
Ni	Ni	0.54230 0.12943 0.74684 1.09400
O 	O 	0.65210 0.06064 0.51473 -0.35500
O 	O 	0.63215 0.14736 0.50048 -0.39300
O 	O 	0.62959 0.99871 0.67763 -0.31400
Ni	Ni	0.63059 0.18366 0.62679 1.06300
O 	O 	0.50450 0.95601 0.63374 -0.36300
O 	O 	0.56236 0.22961 0.60587 -0.36200
O 	O 	0.56412 0.19753 0.81067 -0.34700
O 	O 	0.52210 0.06489 0.67481 -0.71000
O 	O 	0.56094 0.99112 0.52909 -0.32800
O 	O 	0.47443 0.12521 0.81880 -0.36800
O 	O 	0.48619 0.04153 0.87301 -0.43100
Ni	Ni	0.49735 0.00431 0.74555 1.03400
H 	H 	0.63699 0.10424 0.72654 0.14400
H 	H 	0.49322 0.07395 0.63228 0.15400
C 	C 	0.51278 0.21550 0.62286 0.22500
O 	O 	0.57027 0.98531 0.79077 -0.41200
C 	C 	0.66590 0.10822 0.48812 0.18900
C 	C 	0.61471 0.20841 0.82159 0.18200
C 	C 	0.60548 0.96670 0.73469 0.20400
C 	C 	0.47214 0.09154 0.88557 0.21000
C 	C 	0.51333 0.97516 0.55093 0.15000
O 	O 	0.50183 0.16753 0.64701 -0.37300
O 	O 	0.64547 0.21675 0.75038 -0.38300
Ni	Ni	0.44009 0.84166 0.30189 1.09900
O 	O 	0.46034 0.90613 0.37413 -0.69400
Ni	Ni	0.39414 0.91780 0.44820 1.10200
O 	O 	0.50806 0.84581 0.23034 -0.35100
O 	O 	0.49647 0.92957 0.17652 -0.36300
O 	O 	0.48056 0.80350 0.40169 -0.36900
Ni	Ni	0.48541 0.96673 0.30408 1.07400
O 	O 	0.33712 0.75411 0.29902 -0.37500
O 	O 	0.41228 0.98587 0.25826 -0.35600
O 	O 	0.42133 0.97980 0.52033 -0.35900
O 	O 	0.37239 0.85544 0.36696 -0.69900
O 	O 	0.41841 0.77342 0.23855 -0.34100
O 	O 	0.33024 0.91036 0.53387 -0.33200
O 	O 	0.35030 0.82368 0.54878 -0.39100
Ni	Ni	0.35213 0.78726 0.42258 1.06500
H 	H 	0.48913 0.89698 0.41681 0.16400
H 	H 	0.34529 0.86668 0.32244 0.16500
C 	C 	0.37695 0.00438 0.31418 0.10000
O 	O 	0.42008 0.74159 0.44377 -0.36200
C 	C 	0.51053 0.87958 0.16378 0.20200
C 	C 	0.46892 0.99586 0.49858 0.22700
C 	C 	0.46960 0.75555 0.42594 0.22600
C 	C 	0.31650 0.86281 0.56081 0.18800
C 	C 	0.36784 0.76238 0.22774 0.19900
O 	O 	0.35283 0.97230 0.37109 -0.27900
O 	O 	0.47778 0.01501 0.41577 -0.43600
Ni	Ni	0.67346 0.83261 0.85059 1.10000
O 	O 	0.61109 0.85430 0.93192 -0.71000
Ni	Ni	0.59726 0.78661 0.99682 1.05900
O 	O 	0.66605 0.89641 0.76475 -0.33800
O 	O 	0.57932 0.87648 0.75047 -0.39200
O 	O 	0.72796 0.87392 0.92767 -0.34300
Ni	Ni	0.54301 0.87490 0.87676 1.04700
O 	O 	0.77070 0.74881 0.88374 -0.40400
O 	O 	0.49708 0.80667 0.85580 -0.37800
O 	O 	0.52915 0.80843 0.06065 -0.30100
O 	O 	0.66181 0.76642 0.92479 -0.71800
O 	O 	0.73559 0.80527 0.77912 -0.36100
O 	O 	0.60150 0.71875 0.06877 -0.30800
O 	O 	0.68517 0.73051 0.12299 -0.34900
Ni	Ni	0.72240 0.74167 0.99554 1.01900
H 	H 	0.62241 0.88130 0.97654 0.13400
H 	H 	0.65276 0.73754 0.88226 0.15800
C 	C 	0.51118 0.75710 0.87284 0.21600
O 	O 	0.74139 0.81459 0.04078 -0.33100
C 	C 	0.61846 0.91022 0.73813 0.19100
C 	C 	0.51825 0.85902 0.07156 0.19400
C 	C 	0.75998 0.84981 0.98471 0.15000
C 	C 	0.63516 0.71646 0.13555 0.18900
C 	C 	0.75155 0.75766 0.80093 0.16700
O 	O 	0.55916 0.74614 0.89698 -0.39200
O 	O 	0.50990 0.88977 0.00036 -0.31400
Ni	Ni	0.88504 0.68444 0.55191 1.09700
O 	O 	0.82055 0.70469 0.62415 -0.69700
Ni	Ni	0.80889 0.63849 0.69819 1.09900
O 	O 	0.88087 0.75241 0.48037 -0.35700
O 	O 	0.79711 0.74082 0.42654 -0.37900
O 	O 	0.92319 0.72491 0.65172 -0.36900
Ni	Ni	0.75995 0.72976 0.55409 1.06000
O 	O 	0.97262 0.58148 0.54904 -0.38400
O 	O 	0.74081 0.65664 0.50825 -0.42400
O 	O 	0.74688 0.66567 0.77030 -0.36900
O 	O 	0.87127 0.61675 0.61697 -0.69900
O 	O 	0.95329 0.66276 0.48858 -0.34800
O 	O 	0.81634 0.57460 0.78386 -0.34700
O 	O 	0.90302 0.59463 0.79879 -0.40600
Ni	Ni	0.93945 0.59648 0.67260 1.06100
H 	H 	0.82970 0.73347 0.66683 0.15900
H 	H 	0.86004 0.58965 0.57244 0.15800
C 	C 	0.72232 0.62130 0.56416 0.20900
O 	O 	0.98511 0.66443 0.69383 -0.37300
C 	C 	0.84710 0.75488 0.41380 0.19200
C 	C 	0.73082 0.71326 0.74858 0.16200
C 	C 	0.97115 0.71394 0.67597 0.19500
C 	C 	0.86388 0.56085 0.81079 0.17700
C 	C 	0.96433 0.61220 0.47776 0.19000
O 	O 	0.75442 0.59718 0.62106 -0.34100
O 	O 	0.71167 0.72213 0.66578 -0.37900
Ni	Ni	0.04227 0.12937 0.80188 1.10000
O 	O 	0.02201 0.06491 0.87412 -0.69200
Ni	Ni	0.08821 0.05324 0.94819 1.05000
O 	O 	0.97430 0.12522 0.73033 -0.37000
O 	O 	0.98589 0.04146 0.67651 -0.41100
O 	O 	0.00180 0.16754 0.90168 -0.38000
Ni	Ni	0.99694 0.00430 0.80407 1.02100
O 	O 	0.14524 0.21693 0.79901 -0.39000
O 	O 	0.07007 0.98515 0.75825 -0.39500
O 	O 	0.06102 0.99124 0.02030 -0.20000
O 	O 	0.10996 0.11560 0.86695 -0.71800
O 	O 	0.06395 0.19762 0.73854 -0.34000
O 	O 	0.15211 0.06069 0.03386 -0.31300
O 	O 	0.13207 0.14737 0.04876 -0.34700
Ni	Ni	0.13023 0.18378 0.92257 1.03900
H 	H 	0.99323 0.07406 0.91680 0.11600
H 	H 	0.13706 0.10435 0.82243 0.14500
C 	C 	0.10541 0.96665 0.81417 0.20400
O 	O 	0.06228 0.22946 0.94378 -0.39000
C 	C 	0.97183 0.09145 0.66377 0.18800
C 	C 	0.01343 0.97520 0.99857 -0.03900
C 	C 	0.01276 0.21549 0.92593 0.23700
C 	C 	0.16585 0.10823 0.06079 0.18800
C 	C 	0.11452 0.20865 0.72773 0.19200
O 	O 	0.12953 0.99875 0.87107 -0.34000
O 	O 	0.00458 0.95604 0.91577 -0.33900
Ni	Ni	0.89407 0.91778 0.10059 1.10600
O 	O 	0.87238 0.85543 0.18193 -0.69600
Ni	Ni	0.94007 0.84160 0.24685 1.09400
O 	O 	0.83027 0.91037 0.01475 -0.22200
O 	O 	0.85021 0.82365 0.00049 -0.28200
O 	O 	0.85276 0.97230 0.17766 -0.27400
Ni	Ni	0.85178 0.78735 0.12679 1.06900
O 	O 	0.97786 0.01502 0.13377 -0.45300
O 	O 	0.92002 0.74141 0.10585 -0.34500
O 	O 	0.91825 0.77350 0.31068 -0.34900
O 	O 	0.96026 0.90614 0.17481 -0.69600
O 	O 	0.92141 0.97990 0.02911 -0.35400
O 	O 	0.00794 0.84582 0.31880 -0.34400
O 	O 	0.99617 0.92950 0.37302 -0.39200
Ni	Ni	0.98501 0.96671 0.24557 1.07200
H 	H 	0.84538 0.86677 0.22656 0.16300
H 	H 	0.98915 0.89708 0.13228 0.17300
C 	C 	0.96959 0.75551 0.12286 0.21100
O 	O 	0.91209 0.98571 0.29079 -0.36600
C 	C 	0.81646 0.86279 0.98814 0.00900
C 	C 	0.86766 0.76262 0.32159 0.19200
C 	C 	0.87687 0.00432 0.23471 0.10200
C 	C 	0.01023 0.87949 0.38558 0.21600
C 	C 	0.96902 0.99587 0.05095 0.34100
O 	O 	0.98054 0.80349 0.14701 -0.36400
O 	O 	0.83690 0.75426 0.25039 -0.37200
Ni	Ni	0.09732 0.78659 0.55191 1.09900
O 	O 	0.16180 0.76634 0.62415 -0.69700
Ni	Ni	0.17345 0.83253 0.69821 1.10000
O 	O 	0.10149 0.71862 0.48036 -0.35100
O 	O 	0.18525 0.73022 0.42654 -0.37900
O 	O 	0.05915 0.74612 0.65170 -0.37900
Ni	Ni	0.22241 0.74127 0.55409 1.06000
O 	O 	0.00974 0.88956 0.54904 -0.36100
O 	O 	0.24156 0.81439 0.50828 -0.42200
O 	O 	0.23546 0.80535 0.77032 -0.36600
O 	O 	0.11108 0.85428 0.61698 -0.69800
O 	O 	0.02907 0.80827 0.48857 -0.33700
O 	O 	0.16600 0.89643 0.78389 -0.34200
O 	O 	0.07933 0.87640 0.79879 -0.39800
Ni	Ni	0.04290 0.87456 0.67260 1.07000
H 	H 	0.15264 0.73756 0.66682 0.16000
H 	H 	0.12232 0.88138 0.57245 0.16400
C 	C 	0.26005 0.84973 0.56420 0.21000
O 	O 	0.99723 0.80661 0.69382 -0.39900
C 	C 	0.13526 0.71614 0.41380 0.19300
C 	C 	0.25150 0.75775 0.74860 0.16200
C 	C 	0.01120 0.75709 0.67595 0.26500
C 	C 	0.11846 0.91019 0.81080 0.18200
C 	C 	0.01803 0.85884 0.47776 0.18900
O 	O 	0.22793 0.87385 0.62109 -0.33500
O 	O 	0.27067 0.74889 0.66580 -0.37900
Ni	Ni	0.30890 0.63841 0.85059 1.10000
O 	O 	0.37126 0.61673 0.93192 -0.71000
Ni	Ni	0.38509 0.68441 0.99683 1.05900
O 	O 	0.31631 0.57462 0.76474 -0.34100
O 	O 	0.40303 0.59453 0.75047 -0.39300
O 	O 	0.25440 0.59710 0.92766 -0.34700
Ni	Ni	0.43935 0.59612 0.87677 1.04400
O 	O 	0.21165 0.72220 0.88377 -0.40200
O 	O 	0.48527 0.66435 0.85581 -0.38100
O 	O 	0.45320 0.66259 0.06065 -0.30200
O 	O 	0.32054 0.70460 0.92481 -0.71800
O 	O 	0.24677 0.66575 0.77913 -0.36200
O 	O 	0.38085 0.75228 0.06878 -0.30700
O 	O 	0.29718 0.74050 0.12301 -0.34800
Ni	Ni	0.25995 0.72934 0.99557 1.02000
H 	H 	0.35993 0.58972 0.97654 0.13000
H 	H 	0.32959 0.73349 0.88228 0.15900
C 	C 	0.47117 0.71392 0.87283 0.21600
O 	O 	0.24096 0.65643 0.04078 -0.33100
C 	C 	0.36389 0.56080 0.73813 0.18700
C 	C 	0.46409 0.61201 0.07156 0.19300
C 	C 	0.22237 0.62121 0.98471 0.14900
C 	C 	0.34718 0.75458 0.13556 0.19000
C 	C 	0.23079 0.71335 0.80096 0.16700
O 	O 	0.42319 0.72488 0.89699 -0.39100
O 	O 	0.47245 0.58125 0.00036 -0.32100
Ni	Ni	0.17347 0.33261 0.35060 1.10300
O 	O 	0.11110 0.35429 0.43192 -0.69800
Ni	Ni	0.09727 0.28661 0.49682 1.09800
O 	O 	0.16606 0.39641 0.26476 -0.32900
O 	O 	0.07934 0.37648 0.25047 -0.37800
O 	O 	0.22797 0.37392 0.42768 -0.33600
Ni	Ni	0.04302 0.37490 0.37677 1.07000
O 	O 	0.27071 0.24881 0.38374 -0.37900
O 	O 	0.99709 0.30667 0.35580 -0.38500
O 	O 	0.02916 0.30843 0.56065 -0.33800
O 	O 	0.16183 0.26642 0.42480 -0.69700
O 	O 	0.23561 0.30528 0.27913 -0.35000
O 	O 	0.10151 0.21874 0.56877 -0.35300
O 	O 	0.18518 0.23052 0.62299 -0.38700
Ni	Ni	0.22241 0.24167 0.49555 1.05800
H 	H 	0.12243 0.38130 0.47655 0.15700
H 	H 	0.15278 0.23754 0.38227 0.16400
C 	C 	0.01120 0.25709 0.37283 0.27000
O 	O 	0.24140 0.31459 0.54078 -0.42900
C 	C 	0.11848 0.41022 0.23813 0.19400
C 	C 	0.01826 0.35902 0.57156 0.18700
C 	C 	0.26000 0.34981 0.48471 0.20900
C 	C 	0.13518 0.21645 0.63555 0.18800
C 	C 	0.25156 0.25767 0.30094 0.16700
O 	O 	0.05917 0.24614 0.39698 -0.37400
O 	O 	0.00991 0.38977 0.50036 -0.36800
Ni	Ni	0.38504 0.18444 0.05191 1.13200
O 	O 	0.32056 0.20469 0.12414 -0.68400
Ni	Ni	0.30890 0.13850 0.19819 1.10100
O 	O 	0.38088 0.25242 0.98036 -0.40500
O 	O 	0.29712 0.24081 0.92653 -0.42900
O 	O 	0.42320 0.22491 0.15171 -0.35100
Ni	Ni	0.25995 0.22977 0.05408 1.08400
O 	O 	0.47263 0.08148 0.04903 -0.29800
O 	O 	0.24080 0.15665 0.00825 -0.38900
O 	O 	0.24688 0.16568 0.27030 -0.36000
O 	O 	0.37128 0.11675 0.11696 -0.69300
O 	O 	0.45330 0.16277 0.98858 -0.36800
O 	O 	0.31635 0.07460 0.28385 -0.35100
O 	O 	0.40302 0.09464 0.29878 -0.40300
Ni	Ni	0.43946 0.09648 0.17260 1.06300
H 	H 	0.32971 0.23347 0.16682 0.16700
H 	H 	0.36005 0.08965 0.07243 0.17000
C 	C 	0.22232 0.12130 0.06417 0.21200
O 	O 	0.48512 0.16443 0.19382 -0.35500
C 	C 	0.34711 0.25488 0.91380 0.19400
C 	C 	0.23084 0.21327 0.24858 0.16400
C 	C 	0.47116 0.21395 0.17596 0.23400
C 	C 	0.36389 0.06085 0.31079 0.21400
C 	C 	0.46434 0.11220 0.97776 0.08100
O 	O 	0.25443 0.09718 0.12105 -0.33600
O 	O 	0.21168 0.22215 0.16578 -0.36700
Ni	Ni	0.54226 0.62938 0.30188 1.09900
O 	O 	0.52201 0.56491 0.37412 -0.69700
Ni	Ni	0.58821 0.55325 0.44818 1.10100
O 	O 	0.47429 0.62523 0.23034 -0.35200
O 	O 	0.48588 0.54146 0.17652 -0.37200
O 	O 	0.50179 0.66755 0.40169 -0.36900
Ni	Ni	0.49694 0.50431 0.30407 1.06200
O 	O 	0.64523 0.71694 0.29901 -0.37500
O 	O 	0.57007 0.48516 0.25824 -0.41900
O 	O 	0.56103 0.49125 0.52029 -0.36000
O 	O 	0.60996 0.61561 0.36695 -0.69800
O 	O 	0.56394 0.69763 0.23855 -0.34200
O 	O 	0.65211 0.56070 0.53385 -0.33900
O 	O 	0.63206 0.64737 0.54876 -0.39200
Ni	Ni	0.63022 0.68379 0.42257 1.06500
H 	H 	0.49323 0.57407 0.41680 0.16300
H 	H 	0.63706 0.60437 0.32242 0.16200
C 	C 	0.60541 0.46667 0.31416 0.21000
O 	O 	0.56227 0.72946 0.44378 -0.36200
C 	C 	0.47182 0.59145 0.16378 0.20100
C 	C 	0.51344 0.47520 0.49857 0.16400
C 	C 	0.51275 0.71550 0.42593 0.22600
C 	C 	0.66585 0.60824 0.56078 0.18600
C 	C 	0.61451 0.70866 0.22773 0.19800
O 	O 	0.62953 0.49876 0.37106 -0.33600
O 	O 	0.50458 0.45604 0.41576 -0.37700
Ni	Ni	0.39408 0.41778 0.60060 1.10200
O 	O 	0.37239 0.35543 0.68193 -0.69900
Ni	Ni	0.44008 0.34159 0.74684 1.09600
O 	O 	0.33028 0.41037 0.51475 -0.33600
O 	O 	0.35022 0.32365 0.50048 -0.39100
O 	O 	0.35277 0.47230 0.67767 -0.34100
Ni	Ni	0.35179 0.28735 0.62679 1.06300
O 	O 	0.47787 0.51502 0.63377 -0.38100
O 	O 	0.42003 0.24141 0.60585 -0.36400
O 	O 	0.41826 0.27350 0.81067 -0.34700
O 	O 	0.46027 0.40614 0.67481 -0.69800
O 	O 	0.42142 0.47990 0.52912 -0.35700
O 	O 	0.50795 0.34582 0.81880 -0.36500
O 	O 	0.49617 0.42950 0.87302 -0.41400
Ni	Ni	0.48502 0.46671 0.74557 1.05600
H 	H 	0.34539 0.36677 0.72655 0.15200
H 	H 	0.48916 0.39708 0.63228 0.16200
C 	C 	0.46960 0.25552 0.62285 0.22500
O 	O 	0.41210 0.48572 0.79078 -0.43900
C 	C 	0.31648 0.36279 0.48813 0.19000
C 	C 	0.36767 0.26261 0.82158 0.18300
C 	C 	0.37689 0.50432 0.73470 0.20800
C 	C 	0.51023 0.37949 0.88558 0.21100
C 	C 	0.46903 0.49588 0.55095 0.16500
O 	O 	0.48055 0.30349 0.64700 -0.37100
O 	O 	0.33691 0.25426 0.75038 -0.38400
Ni	Ni	0.80891 0.13842 0.35057 1.10200
O 	O 	0.87127 0.11673 0.43190 -0.69900
Ni	Ni	0.88511 0.18441 0.49682 1.09600
O 	O 	0.81632 0.07462 0.26472 -0.34600
O 	O 	0.90305 0.09453 0.25046 -0.39700
O 	O 	0.75440 0.09711 0.42764 -0.34300
Ni	Ni	0.93936 0.09611 0.37676 1.05900
O 	O 	0.71167 0.22222 0.38374 -0.37900
O 	O 	0.98529 0.16434 0.35581 -0.36000
O 	O 	0.95321 0.16259 0.56064 -0.34900
O 	O 	0.82055 0.20461 0.42480 -0.69700
O 	O 	0.74679 0.16577 0.27910 -0.35400
O 	O 	0.88087 0.25228 0.56877 -0.35700
O 	O 	0.79719 0.24051 0.62300 -0.38600
Ni	Ni	0.75997 0.22935 0.49555 1.05900
H 	H 	0.85994 0.08973 0.47652 0.15000
H 	H 	0.82961 0.23349 0.38227 0.16400
C 	C 	0.97118 0.21392 0.37283 0.20200
O 	O 	0.74096 0.15644 0.54076 -0.43200
C 	C 	0.86390 0.06080 0.23812 0.21800
C 	C 	0.96410 0.11200 0.57155 0.18700
C 	C 	0.72237 0.12122 0.48468 0.20600
C 	C 	0.84720 0.25457 0.63556 0.18800
C 	C 	0.73082 0.21338 0.30093 0.16600
O 	O 	0.92321 0.22488 0.39698 -0.36400
O 	O 	0.97246 0.08124 0.50035 -0.39300
Ni	Ni	0.59732 0.28659 0.05191 1.13200
O 	O 	0.66180 0.26634 0.12415 -0.68400
Ni	Ni	0.67346 0.33254 0.19820 1.10100
O 	O 	0.60150 0.21862 0.98036 -0.40600
O 	O 	0.68526 0.23022 0.92653 -0.43000
O 	O 	0.55916 0.24612 0.15170 -0.35200
Ni	Ni	0.72242 0.24128 0.05408 1.08300
O 	O 	0.50974 0.38956 0.04904 -0.28600
O 	O 	0.74155 0.31440 0.00826 -0.38800
O 	O 	0.73547 0.30536 0.27031 -0.35800
O 	O 	0.61109 0.35429 0.11697 -0.69200
O 	O 	0.52907 0.30827 0.98858 -0.36700
O 	O 	0.66601 0.39644 0.28388 -0.33500
O 	O 	0.57933 0.37641 0.29878 -0.39000
Ni	Ni	0.54290 0.37456 0.17260 1.06800
H 	H 	0.65266 0.23756 0.16682 0.16600
H 	H 	0.62232 0.38138 0.07245 0.17700
C 	C 	0.76004 0.34975 0.06417 0.21500
O 	O 	0.49724 0.30661 0.19383 -0.35200
C 	C 	0.63527 0.21614 0.91380 0.19300
C 	C 	0.75153 0.25778 0.24858 0.16400
C 	C 	0.51120 0.25710 0.17595 0.23400
C 	C 	0.61846 0.41020 0.31079 0.18900
C 	C 	0.51803 0.35884 0.97776 0.08200
O 	O 	0.72794 0.37386 0.12109 -0.32900
O 	O 	0.77069 0.24891 0.16578 -0.36900
Ni	Ni	0.08829 0.55323 0.10059 1.10700
O 	O 	0.10998 0.61558 0.18193 -0.69600
Ni	Ni	0.04229 0.62943 0.24685 1.10200
O 	O 	0.15209 0.56064 0.01475 -0.22500
O 	O 	0.13214 0.64735 0.00049 -0.27900
O 	O 	0.12959 0.49872 0.17766 -0.32900
Ni	Ni	0.13058 0.68366 0.12679 1.07000
O 	O 	0.00449 0.45601 0.13375 -0.38900
O 	O 	0.06235 0.72960 0.10587 -0.34500
O 	O 	0.06411 0.69753 0.31068 -0.33800
O 	O 	0.02210 0.56488 0.17482 -0.67500
O 	O 	0.06094 0.49111 0.02911 -0.35600
O 	O 	0.97442 0.62521 0.31880 -0.36200
O 	O 	0.98620 0.54153 0.37301 -0.38900
Ni	Ni	0.99734 0.50431 0.24556 1.05300
H 	H 	0.13698 0.60425 0.22655 0.16100
H 	H 	0.99321 0.57394 0.13229 0.15800
C 	C 	0.01277 0.71550 0.12286 0.25100
O 	O 	0.07026 0.48529 0.29077 -0.42000
C 	C 	0.16589 0.60822 0.98813 0.00700
C 	C 	0.11470 0.70841 0.32159 0.19200
C 	C 	0.10547 0.46669 0.23469 0.20900
C 	C 	0.97212 0.59154 0.38558 0.19100
C 	C 	0.01333 0.47515 0.05094 0.32200
O 	O 	0.00182 0.66753 0.14701 -0.35600
O 	O 	0.14546 0.71676 0.25038 -0.37000
Ni	Ni	0.94010 0.34166 0.80189 1.09400
O 	O 	0.96035 0.40613 0.87413 -0.70300
Ni	Ni	0.89415 0.41780 0.94819 1.06400
O 	O 	0.00808 0.34581 0.73034 -0.35100
O 	O 	0.99648 0.42957 0.67652 -0.40500
O 	O 	0.98057 0.30349 0.90169 -0.38700
Ni	Ni	0.98542 0.46673 0.80408 1.05000
O 	O 	0.83713 0.25410 0.79901 -0.39300
O 	O 	0.91230 0.48589 0.75826 -0.42900
O 	O 	0.92134 0.47980 0.02031 -0.22700
O 	O 	0.87240 0.35543 0.86695 -0.71500
O 	O 	0.91842 0.27341 0.73855 -0.35000
O 	O 	0.83025 0.41035 0.03386 -0.29700
O 	O 	0.85030 0.32369 0.04876 -0.34800
Ni	Ni	0.85214 0.28726 0.92258 1.03800
H 	H 	0.98913 0.39698 0.91681 0.13600
H 	H 	0.84530 0.36667 0.82243 0.15200
C 	C 	0.87696 0.50439 0.81419 0.20800
O 	O 	0.92009 0.24158 0.94378 -0.39100
C 	C 	0.01054 0.37958 0.66378 0.21300
C 	C 	0.96893 0.49585 0.99858 -0.06700
C 	C 	0.96961 0.25554 0.92593 0.19800
C 	C 	0.81650 0.36281 0.06079 0.18700
C 	C 	0.86785 0.26238 0.72774 0.19300
O 	O 	0.85284 0.47229 0.87107 -0.36800
O 	O 	0.97779 0.51500 0.91577 -0.36400
