data_crystal

_cell_length_a 18.70599
_cell_length_b 18.91177
_cell_length_c 28.67000
_cell_angle_alpha 95.41819
_cell_angle_beta  95.41959
_cell_angle_gamma 126.43611

_symmetry_space_group_name_	'P 1'
_symmetry_space_group_name_H-M	'P 1'

loop_
_symmetry_equiv_pos_as_xyz
  x,y,z

loop_
_atom_site_label
_atom_site_type_symbol
_atom_site_fract_x
_atom_site_fract_y
_atom_site_fract_z
_atom_site_charge
C 	C 	0.91930 0.00522 0.96267 0.03400
C 	C 	0.86932 0.91254 0.96214 -0.07900
C 	C 	0.91456 0.87415 0.96692 0.03400
C 	C 	0.00875 0.92806 0.97178 -0.07300
C 	C 	0.05823 0.01973 0.97206 0.03500
C 	C 	0.01386 0.05847 0.96805 -0.07700
H 	H 	0.79629 0.87092 0.95807 0.05100
H 	H 	0.04351 0.89839 0.97481 0.05600
H 	H 	0.05271 0.12979 0.96867 0.05500
C 	C 	0.94038 0.03470 0.49649 0.03200
C 	C 	0.03188 0.08412 0.49231 -0.07900
C 	C 	0.07184 0.04084 0.48725 0.03400
C 	C 	0.01992 0.94841 0.48527 -0.07400
C 	C 	0.92944 0.89960 0.49030 0.03500
C 	C 	0.88981 0.94269 0.49611 -0.07800
H 	H 	0.07156 0.15552 0.49306 0.05200
H 	H 	0.05064 0.91490 0.48115 0.05500
H 	H 	0.81927 0.90443 0.49944 0.05400
Cu	Cu	0.75375 0.33966 0.94423 0.92400
Cu	Cu	0.80297 0.31383 0.05638 0.87600
Cu	Cu	0.61995 0.27944 0.01283 0.89800
Cu	Cu	0.58271 0.33685 0.92276 0.89600
C 	C 	0.67020 0.31220 0.84630 0.29800
O 	O 	0.81056 0.47198 0.94532 -0.36000
C 	C 	0.69035 0.31605 0.11567 0.30100
O 	O 	0.61582 0.26874 0.94550 -0.64200
O 	O 	0.75424 0.35550 0.01432 -0.63800
O 	O 	0.80061 0.26714 0.93809 -0.35700
O 	O 	0.87002 0.30263 0.01526 -0.41900
O 	O 	0.62903 0.34505 0.86182 -0.39000
O 	O 	0.48991 0.20701 0.00535 -0.38300
C 	C 	0.44000 0.21857 0.97626 0.29700
C 	C 	0.77128 0.50658 0.96079 0.28800
O 	O 	0.69211 0.45493 0.97301 -0.38600
O 	O 	0.47754 0.28959 0.95583 -0.39400
O 	O 	0.72838 0.31048 0.87547 -0.36000
C 	C 	0.82945 0.24666 0.97433 0.28400
O 	O 	0.62119 0.26350 0.07994 -0.39400
O 	O 	0.77381 0.35689 0.10886 -0.41800
H 	H 	0.57699 0.20575 0.92844 0.15700
H 	H 	0.78191 0.41834 0.02808 0.16600
Cu	Cu	0.61254 0.20959 0.51200 0.92600
Cu	Cu	0.68144 0.20453 0.41135 0.87200
Cu	Cu	0.66048 0.34226 0.44443 0.89600
Cu	Cu	0.61567 0.37641 0.53771 0.89500
C 	C 	0.64080 0.28561 0.61074 0.30000
O 	O 	0.48023 0.15523 0.51124 -0.36600
C 	C 	0.63914 0.27677 0.34161 0.30000
O 	O 	0.68570 0.34731 0.51168 -0.64000
O 	O 	0.59799 0.21155 0.44250 -0.63800
O 	O 	0.66990 0.14776 0.51266 -0.36900
O 	O 	0.76611 0.23675 0.46622 -0.44300
O 	O 	0.60440 0.32386 0.59628 -0.39300
O 	O 	0.72889 0.47041 0.45115 -0.38700
C 	C 	0.72314 0.52095 0.48318 0.30300
C 	C 	0.44525 0.19289 0.49428 0.29500
O 	O 	0.49835 0.27329 0.48469 -0.39600
O 	O 	0.66194 0.48611 0.51070 -0.39900
O 	O 	0.64476 0.23116 0.58048 -0.36100
C 	C 	0.74358 0.17969 0.49489 0.30300
O 	O 	0.65133 0.33887 0.37455 -0.38300
O 	O 	0.62551 0.20413 0.35237 -0.42200
H 	H 	0.75080 0.38720 0.52631 0.16400
H 	H 	0.53498 0.17285 0.42450 0.17400
C 	C 	0.66901 0.29960 0.79587 -0.09300
C 	C 	0.66647 0.29215 0.75333 0.03000
C 	C 	0.66107 0.28675 0.70339 0.03100
C 	C 	0.65371 0.28480 0.66090 -0.09500
C 	C 	0.67409 0.31223 0.16376 -0.10400
C 	C 	0.66246 0.30721 0.20441 0.02900
C 	C 	0.65134 0.29912 0.25224 0.02900
C 	C 	0.64426 0.29016 0.29310 -0.10200
C 	C 	0.83973 0.67644 0.52504 -0.02400
C 	C 	0.77709 0.61725 0.48367 -0.11300
C 	C 	0.76256 0.65095 0.44476 0.13000
C 	C 	0.81375 0.74372 0.44758 -0.09200
C 	C 	0.87582 0.80281 0.48915 -0.01400
C 	C 	0.88805 0.76901 0.52861 0.06300
N 	N 	0.94479 0.82484 0.57017 -0.19300
H 	H 	0.84954 0.65018 0.55500 0.03100
H 	H 	0.80442 0.77008 0.41755 0.05300
N 	N 	0.69835 0.59494 0.40524 -0.20400
H 	H 	0.95489 0.79925 0.59869 0.08000
H 	H 	0.97751 0.89362 0.57512 0.08500
H 	H 	0.65416 0.52586 0.40333 0.09900
H 	H 	0.69009 0.62071 0.37627 0.08500
C 	C 	0.83571 0.05759 0.45479 -0.08900
C 	C 	0.89455 0.07682 0.49644 -0.01700
C 	C 	0.89925 0.12546 0.53894 0.06300
C 	C 	0.84570 0.15500 0.53848 -0.02200
C 	C 	0.78663 0.13519 0.49678 -0.11400
C 	C 	0.77885 0.08284 0.45510 0.11300
N 	N 	0.71509 0.05438 0.41579 -0.20300
H 	H 	0.83093 0.01882 0.42258 0.04900
H 	H 	0.85134 0.19491 0.57043 0.04200
N 	N 	0.95476 0.14402 0.58011 -0.19300
H 	H 	0.71261 0.01946 0.38438 0.07200
H 	H 	0.66446 0.06216 0.41682 0.03600
H 	H 	0.99575 0.12355 0.58169 0.08300
H 	H 	0.95746 0.17966 0.61128 0.08200
C 	C 	0.22775 0.12588 0.53242 -0.09100
C 	C 	0.16981 0.09271 0.48817 -0.01600
C 	C 	0.20293 0.09316 0.44574 0.06400
C 	C 	0.29213 0.12200 0.44858 -0.02500
C 	C 	0.34890 0.15134 0.49295 -0.11200
C 	C 	0.31631 0.15315 0.53542 0.12300
N 	N 	0.36908 0.17991 0.57908 -0.20700
H 	H 	0.20209 0.12552 0.56485 0.05200
H 	H 	0.31792 0.12304 0.41611 0.03600
N 	N 	0.14975 0.06678 0.40227 -0.19300
H 	H 	0.34565 0.18455 0.61005 0.08500
H 	H 	0.43198 0.19287 0.58295 0.10300
H 	H 	0.08524 0.05043 0.39902 0.08500
H 	H 	0.17375 0.06489 0.37106 0.08100
C 	C 	0.83573 0.72048 0.92151 -0.09000
C 	C 	0.86391 0.77683 0.96564 -0.01400
C 	C 	0.86266 0.74415 0.00824 0.06200
C 	C 	0.83836 0.65761 0.00587 -0.02800
C 	C 	0.81292 0.60215 0.96176 -0.10700
C 	C 	0.81152 0.63393 0.91903 0.12000
N 	N 	0.78762 0.58223 0.87560 -0.20600
H 	H 	0.83707 0.74569 0.88890 0.05200
H 	H 	0.83692 0.63248 0.03852 0.03700
N 	N 	0.88419 0.79531 0.05146 -0.19300
H 	H 	0.78419 0.60526 0.84436 0.08500
H 	H 	0.77462 0.52004 0.87228 0.10200
H 	H 	0.89679 0.85739 0.05427 0.08300
H 	H 	0.88586 0.77198 0.08287 0.08000
C 	C 	0.86463 0.15752 0.92596 -0.02800
C 	C 	0.83353 0.17041 0.96619 -0.10300
C 	C 	0.81233 0.11395 0.00017 0.10100
C 	C 	0.83545 0.05535 0.99697 -0.07900
C 	C 	0.87347 0.04774 0.95873 -0.02100
C 	C 	0.88201 0.09450 0.92119 0.06700
N 	N 	0.90665 0.07905 0.88060 -0.19400
H 	H 	0.87696 0.19760 0.89872 0.05100
H 	H 	0.82566 0.01713 0.02489 0.04500
N 	N 	0.76784 0.11396 0.03504 -0.19800
H 	H 	0.91638 0.11619 0.85382 0.08300
H 	H 	0.91259 0.02758 0.87442 0.08400
H 	H 	0.73893 0.14714 0.03454 0.02600
H 	H 	0.75676 0.07578 0.06145 0.07100
C 	C 	0.31020 0.15657 0.01795 -0.02600
C 	C 	0.34198 0.16308 0.97497 -0.10500
C 	C 	0.28016 0.12279 0.93100 0.11800
C 	C 	0.18824 0.08083 0.93088 -0.08800
C 	C 	0.15645 0.07426 0.97379 -0.01400
C 	C 	0.21784 0.11257 0.01783 0.06400
N 	N 	0.18875 0.10802 0.05999 -0.19300
H 	H 	0.35775 0.18766 0.05158 0.04800
H 	H 	0.14066 0.05025 0.89726 0.05200
N 	N 	0.30813 0.12164 0.88899 -0.20200
H 	H 	0.23450 0.13557 0.09233 0.08300
H 	H 	0.12096 0.07824 0.06119 0.08500
H 	H 	0.37400 0.14375 0.88807 0.07000
H 	H 	0.26259 0.09466 0.85661 0.08000
