data_crystal

_cell_length_a 26.03568
_cell_length_b 26.35907
_cell_length_c 26.50738
_cell_angle_alpha 95.49153
_cell_angle_beta  95.48944
_cell_angle_gamma 125.81742

_symmetry_space_group_name_	'P 1'
_symmetry_space_group_name_H-M	'P 1'

loop_
_symmetry_equiv_pos_as_xyz
  x,y,z

loop_
_atom_site_label
_atom_site_type_symbol
_atom_site_fract_x
_atom_site_fract_y
_atom_site_fract_z
_atom_site_charge
N 	N 	0.03479 0.06581 0.97364 -0.14800
C 	C 	0.06184 0.03518 0.96671 0.11900
N 	N 	0.03151 0.97517 0.97623 -0.14800
C 	C 	0.02368 0.00268 0.45647 0.11400
H 	H 	0.03130 0.90015 0.54288 0.06700
C 	C 	0.09279 0.04246 0.45464 -0.04600
H 	H 	0.07597 0.02425 0.37154 0.04000
H 	H 	0.08472 0.08111 0.55318 0.06800
H 	H 	0.09767 0.02162 0.56078 0.06600
C 	C 	0.04352 0.90382 0.05063 -0.19400
H 	H 	0.07510 0.91617 0.02154 0.07000
H 	H 	0.05610 0.88261 0.07905 0.06300
H 	H 	0.05340 0.94784 0.07216 0.07100
H 	H 	0.00021 0.11384 0.90174 0.06700
C 	C 	0.08831 0.97664 0.88135 -0.18700
H 	H 	0.07373 0.93625 0.90135 0.07000
H 	H 	0.10494 0.97009 0.84590 0.06300
H 	H 	0.04577 0.97576 0.86893 0.06900
C 	C 	0.97696 0.03601 0.98901 0.12300
C 	C 	0.97474 0.94596 0.99323 0.12900
N 	N 	0.94742 0.97645 0.99944 -0.14400
C 	C 	0.92601 0.98993 0.45225 0.12300
N 	N 	0.98952 0.02607 0.44928 -0.14400
N 	N 	0.99431 0.94301 0.46642 -0.14100
C 	C 	0.93127 0.90731 0.47091 0.12100
N 	N 	0.89702 0.93076 0.46360 -0.14400
Cu	Cu	0.64524 0.25011 0.00309 0.92800
Cu	Cu	0.70109 0.25028 0.89651 0.87200
Cu	Cu	0.68915 0.35203 0.93639 0.89800
Cu	Cu	0.64266 0.36693 0.03261 0.89200
C 	C 	0.65701 0.29797 0.10913 0.30200
O 	O 	0.55061 0.21134 0.99711 -0.35400
C 	C 	0.67072 0.30723 0.82507 0.30400
O 	O 	0.69705 0.34888 0.00830 -0.64300
O 	O 	0.64216 0.25778 0.92933 -0.64000
O 	O 	0.68433 0.20390 0.00465 -0.37300
O 	O 	0.75775 0.26632 0.95660 -0.44300
O 	O 	0.62843 0.32317 0.09302 -0.38000
O 	O 	0.73900 0.44383 0.94888 -0.38200
C 	C 	0.73216 0.47708 0.98448 0.29600
C 	C 	0.52575 0.23680 0.97492 0.29000
O 	O 	0.56349 0.29675 0.97014 -0.39100
O 	O 	0.68139 0.44891 0.00715 -0.40000
O 	O 	0.66117 0.25965 0.07672 -0.34900
C 	C 	0.73774 0.22468 0.98725 0.29900
O 	O 	0.69601 0.35626 0.86318 -0.38900
O 	O 	0.66495 0.25563 0.83295 -0.40600
H 	H 	0.74201 0.37622 0.02771 0.16100
H 	H 	0.59835 0.23274 0.90803 0.17600
Cu	Cu	0.72584 0.33018 0.43370 0.92900
Cu	Cu	0.71949 0.27118 0.53842 0.87100
Cu	Cu	0.62348 0.29231 0.50043 0.89600
Cu	Cu	0.61016 0.33626 0.40277 0.89400
C 	C 	0.67984 0.32018 0.32755 0.30200
O 	O 	0.76720 0.42452 0.44005 -0.35300
C 	C 	0.66813 0.30769 0.61175 0.30400
O 	O 	0.62586 0.28138 0.42832 -0.64000
O 	O 	0.71781 0.33355 0.50713 -0.64200
O 	O 	0.76900 0.28776 0.43296 -0.36900
O 	O 	0.70019 0.21421 0.47772 -0.44600
O 	O 	0.65628 0.35033 0.34361 -0.37900
O 	O 	0.53097 0.24759 0.48900 -0.38300
C 	C 	0.49732 0.25319 0.45238 0.29600
C 	C 	0.74169 0.44983 0.46167 0.28900
O 	O 	0.68078 0.41314 0.46597 -0.39500
O 	O 	0.52578 0.29914 0.42528 -0.39700
O 	O 	0.71677 0.31404 0.36013 -0.35000
C 	C 	0.74195 0.23209 0.44682 0.29600
O 	O 	0.61963 0.28812 0.57411 -0.38700
O 	O 	0.71758 0.30860 0.60275 -0.40600
H 	H 	0.59699 0.23659 0.40974 0.15900
H 	H 	0.74536 0.37670 0.52884 0.17800
C 	C 	0.71309 0.36855 0.75488 -0.04100
C 	C 	0.66204 0.31556 0.77154 -0.09100
C 	C 	0.60683 0.26669 0.73518 0.12300
C 	C 	0.60672 0.26717 0.68241 -0.04100
C 	C 	0.66106 0.31655 0.66564 -0.09000
C 	C 	0.71258 0.36942 0.70213 0.12300
Br	Br	0.78231 0.44330 0.68060 -0.27100
H 	H 	0.75456 0.40770 0.78278 0.06300
H 	H 	0.56568 0.22759 0.65447 0.06200
Br	Br	0.53099 0.19946 0.75688 -0.27300
C 	C 	0.72309 0.35254 0.19682 -0.04300
C 	C 	0.66788 0.29842 0.16456 -0.08500
C 	C 	0.62000 0.24837 0.18629 0.12700
C 	C 	0.62647 0.25416 0.23997 -0.04400
C 	C 	0.68003 0.30975 0.27224 -0.08500
C 	C 	0.72933 0.35851 0.25050 0.12700
Br	Br	0.80402 0.43490 0.29352 -0.24800
H 	H 	0.76018 0.39101 0.18022 0.05000
H 	H 	0.58857 0.21643 0.25659 0.04900
Br	Br	0.54375 0.17335 0.14334 -0.25000
C 	C 	0.79369 0.61374 0.51941 -0.09400
C 	C 	0.82867 0.64901 0.48316 0.00500
C 	C 	0.84390 0.62137 0.44480 0.02900
C 	C 	0.81691 0.55643 0.43924 -0.02000
C 	C 	0.77828 0.51987 0.47349 -0.10500
C 	C 	0.77064 0.55001 0.51615 0.09900
C 	C 	0.84901 0.71485 0.48547 -0.00700
C 	C 	0.88768 0.66051 0.40909 -0.17600
H 	H 	0.82456 0.53397 0.40744 0.05900
C 	C 	0.73780 0.51471 0.55802 -0.20500
H 	H 	0.78432 0.63588 0.55011 0.05300
C 	C 	0.81431 0.72798 0.45197 0.03900
C 	C 	0.84076 0.79146 0.44865 -0.04900
C 	C 	0.89918 0.84177 0.48071 -0.04500
C 	C 	0.92891 0.82833 0.51924 0.06700
C 	C 	0.90488 0.76493 0.51997 -0.07900
C 	C 	0.75014 0.67461 0.41879 -0.17900
H 	H 	0.81672 0.80163 0.42023 0.04500
C 	C 	0.98675 0.88105 0.55894 -0.18500
H 	H 	0.93010 0.75459 0.54701 0.05000
H 	H 	0.68474 0.48684 0.54612 0.07800
H 	H 	0.75332 0.54835 0.59468 0.07700
H 	H 	0.75029 0.48219 0.56607 0.08200
H 	H 	0.93231 0.70557 0.43161 0.06900
H 	H 	0.86259 0.67183 0.38145 0.06600
H 	H 	0.90237 0.63466 0.38669 0.07000
H 	H 	0.72439 0.69260 0.40171 0.06200
H 	H 	0.71871 0.63951 0.44224 0.06600
H 	H 	0.75742 0.65026 0.38691 0.06400
H 	H 	0.99082 0.86325 0.59433 0.06400
H 	H 	0.98274 0.92002 0.57073 0.06800
C 	C 	0.74666 0.09202 0.41495 -0.09700
C 	C 	0.81236 0.12116 0.43162 0.00700
C 	C 	0.85615 0.18812 0.44643 0.02200
C 	C 	0.83269 0.22442 0.44848 -0.01600
C 	C 	0.76638 0.19481 0.43510 -0.11600
C 	C 	0.72342 0.12853 0.41556 0.10000
C 	C 	0.83469 0.08103 0.43531 -0.00700
C 	C 	0.92752 0.22073 0.46172 -0.17200
H 	H 	0.86578 0.27547 0.46236 0.03400
C 	C 	0.65266 0.09621 0.39675 -0.20300
H 	H 	0.71342 0.04075 0.40240 0.05100
C 	C 	0.83787 0.05955 0.48155 0.03700
C 	C 	0.86563 0.02741 0.48584 -0.04700
C 	C 	0.88913 0.01559 0.44438 -0.04900
C 	C 	0.88124 0.03263 0.39682 0.06900
C 	C 	0.85495 0.06616 0.39295 -0.08000
C 	C 	0.81338 0.07236 0.52673 -0.17600
H 	H 	0.87061 0.01317 0.52195 0.04200
C 	C 	0.90252 0.01698 0.35065 -0.19300
H 	H 	0.85134 0.08173 0.35724 0.04800
H 	H 	0.62788 0.08804 0.43020 0.07000
H 	H 	0.62956 0.04950 0.37110 0.06700
H 	H 	0.64576 0.12587 0.37419 0.07400
H 	H 	0.94495 0.20694 0.43044 0.06600
H 	H 	0.93724 0.20682 0.49760 0.06100
H 	H 	0.95563 0.27342 0.46881 0.06100
H 	H 	0.81568 0.04912 0.55880 0.05900
H 	H 	0.76230 0.05351 0.51462 0.06200
H 	H 	0.84298 0.12441 0.54161 0.05900
H 	H 	0.88048 0.02043 0.31437 0.06400
H 	H 	0.88762 0.96753 0.34655 0.07200
H 	H 	0.95578 0.05078 0.35520 0.07200
C 	C 	0.20514 0.10769 0.49774 -0.07800
C 	C 	0.22452 0.11276 0.44979 -0.00800
C 	C 	0.17781 0.08331 0.40383 0.03700
C 	C 	0.11212 0.04797 0.40667 -0.04900
C 	C 	0.13960 0.07382 0.50055 0.06600
C 	C 	0.29401 0.14888 0.44810 0.00700
C 	C 	0.19774 0.08849 0.35187 -0.17800
C 	C 	0.11988 0.07014 0.55254 -0.18900
H 	H 	0.24121 0.13049 0.53288 0.04900
C 	C 	0.33346 0.21582 0.45313 0.02200
C 	C 	0.39987 0.24921 0.45429 -0.01300
C 	C 	0.42709 0.21657 0.44946 -0.10700
C 	C 	0.38708 0.14931 0.44225 0.09600
C 	C 	0.32102 0.11614 0.44282 -0.09300
C 	C 	0.30522 0.25186 0.45856 -0.17100
H 	H 	0.43060 0.30077 0.45959 0.03800
C 	C 	0.41455 0.11278 0.43462 -0.20000
H 	H 	0.29045 0.06472 0.43890 0.05100
H 	H 	0.16190 0.10486 0.58392 0.06300
H 	H 	0.21998 0.06354 0.34631 0.06400
H 	H 	0.23308 0.13931 0.34929 0.06300
H 	H 	0.15592 0.06681 0.31986 0.05900
H 	H 	0.34112 0.30305 0.45727 0.05900
H 	H 	0.28863 0.24852 0.49599 0.06400
H 	H 	0.26376 0.23171 0.42659 0.06200
H 	H 	0.44216 0.11812 0.47190 0.07300
H 	H 	0.44679 0.13056 0.40590 0.06100
H 	H 	0.37586 0.06120 0.42003 0.06400
C 	C 	0.94141 0.79230 0.02277 -0.07900
C 	C 	0.87526 0.74895 0.00258 -0.01500
C 	C 	0.84018 0.77144 0.98563 0.04200
C 	C 	0.87331 0.83615 0.98311 -0.04500
C 	C 	0.94022 0.87935 0.00099 -0.05500
C 	C 	0.97372 0.85776 0.02426 0.07100
C 	C 	0.84324 0.67993 0.99857 0.01400
C 	C 	0.76775 0.72659 0.96957 -0.18100
H 	H 	0.84713 0.85273 0.96658 0.04400
H 	H 	0.96774 0.77504 0.03744 0.04800
C 	C 	0.83112 0.64172 0.95132 0.02400
C 	C 	0.79436 0.57542 0.94717 -0.01600
C 	C 	0.77381 0.54732 0.99056 -0.10400
C 	C 	0.79263 0.58668 0.03923 0.09200
C 	C 	0.82485 0.65238 0.04232 -0.09800
C 	C 	0.85688 0.67135 0.90525 -0.17200
H 	H 	0.78141 0.54563 0.91008 0.04800
C 	C 	0.77868 0.55924 0.08787 -0.19800
H 	H 	0.83600 0.68222 0.07891 0.05200
H 	H 	0.74598 0.69694 0.99920 0.06800
H 	H 	0.75408 0.69505 0.93213 0.06500
H 	H 	0.74691 0.75294 0.96517 0.06300
H 	H 	0.85111 0.63633 0.87384 0.06600
H 	H 	0.90914 0.71124 0.91642 0.06700
H 	H 	0.83074 0.68963 0.88985 0.06400
H 	H 	0.81068 0.59670 0.12264 0.06600
H 	H 	0.78714 0.52254 0.08777 0.05900
H 	H 	0.72792 0.53784 0.09124 0.06700
C 	C 	0.90097 0.11838 0.95763 -0.07300
C 	C 	0.88258 0.12457 0.00445 -0.01300
C 	C 	0.89646 0.10296 0.04666 0.04100
C 	C 	0.92841 0.07508 0.04120 -0.05400
C 	C 	0.94600 0.06798 0.99409 -0.04100
C 	C 	0.93129 0.08894 0.95164 0.06300
C 	C 	0.84522 0.15024 0.00778 0.00300
C 	C 	0.87554 0.10772 0.09694 -0.18000
H 	H 	0.93919 0.05841 0.07352 0.04400
C 	C 	0.94741 0.07983 0.89992 -0.18300
H 	H 	0.89029 0.13525 0.92541 0.04400
C 	C 	0.87672 0.21652 0.01949 0.02400
C 	C 	0.84030 0.23994 0.01519 -0.01800
C 	C 	0.77308 0.19813 0.99914 -0.11100
C 	C 	0.74139 0.13152 0.98923 0.09300
C 	C 	0.77784 0.10825 0.99452 -0.09000
C 	C 	0.94925 0.26250 0.03381 -0.17600
H 	H 	0.86448 0.29091 0.02294 0.03600
C 	C 	0.66917 0.08515 0.97179 -0.19600
H 	H 	0.75393 0.05733 0.98642 0.05000
H 	H 	0.92280 0.08831 0.86900 0.06100
H 	H 	0.93157 0.03032 0.88875 0.06900
H 	H 	0.82207 0.07624 0.09116 0.06600
H 	H 	0.89394 0.15757 0.11122 0.06600
H 	H 	0.89421 0.09314 0.12730 0.06200
H 	H 	0.96589 0.31184 0.04785 0.06100
H 	H 	0.97071 0.26257 0.99956 0.06600
H 	H 	0.96737 0.24855 0.06511 0.06400
H 	H 	0.65342 0.09756 0.93771 0.05600
H 	H 	0.64487 0.08604 0.00370 0.08200
H 	H 	0.65312 0.03557 0.96040 0.06400
C 	C 	0.20577 0.06580 0.91430 -0.07900
C 	C 	0.25554 0.12464 0.94537 -0.00800
C 	C 	0.24050 0.15938 0.97611 0.04200
C 	C 	0.17626 0.13056 0.98114 -0.04700
C 	C 	0.12675 0.06909 0.95357 -0.04800
C 	C 	0.14115 0.03862 0.91687 0.06400
C 	C 	0.32290 0.14660 0.94941 0.00600
C 	C 	0.29302 0.22572 0.00561 -0.18600
H 	H 	0.16508 0.15502 0.00792 0.04100
H 	H 	0.21740 0.04036 0.88917 0.04800
C 	C 	0.35164 0.13525 0.99031 0.03000
C 	C 	0.41789 0.16405 0.99752 -0.01500
C 	C 	0.45501 0.20111 0.96285 -0.10800
C 	C 	0.42445 0.20607 0.91847 0.09900
C 	C 	0.35896 0.18051 0.91308 -0.09500
C 	C 	0.31228 0.09409 0.02721 -0.17700
H 	H 	0.44090 0.15883 0.03083 0.05400
C 	C 	0.46114 0.23870 0.87707 -0.20600
H 	H 	0.33616 0.18739 0.88080 0.05200
H 	H 	0.32694 0.25471 0.98035 0.06900
H 	H 	0.31998 0.22347 0.03928 0.06400
H 	H 	0.27288 0.25048 0.01984 0.06100
H 	H 	0.33964 0.08292 0.05248 0.06800
H 	H 	0.26793 0.04816 0.00551 0.06500
H 	H 	0.29858 0.11903 0.05212 0.06400
H 	H 	0.42786 0.22318 0.83988 0.07800
H 	H 	0.49464 0.22680 0.87006 0.08200
H 	H 	0.48887 0.29107 0.88886 0.08000
