data_crystal

_cell_length_a 17.33744
_cell_length_b 17.01684
_cell_length_c 41.91788
_cell_angle_alpha 89.57256
_cell_angle_beta  82.44476
_cell_angle_gamma 106.35229

_symmetry_space_group_name_	'P 1'
_symmetry_space_group_name_H-M	'P 1'

loop_
_symmetry_equiv_pos_as_xyz
  x,y,z

loop_
_atom_site_label
_atom_site_type_symbol
_atom_site_fract_x
_atom_site_fract_y
_atom_site_fract_z
_atom_site_charge
Zn	Zn	0.56479 0.20926 0.92082 1.21700
P 	P 	0.58716 0.36605 0.95390 0.29900
C 	C 	0.41576 0.14074 0.89483 0.33800
C 	C 	0.62516 0.12323 0.96970 0.28100
O 	O 	0.61544 0.30559 0.97555 -0.44100
O 	O 	0.55840 0.32229 0.92203 -0.41400
O 	O 	0.65630 0.20112 0.89047 -0.41300
O 	O 	0.47629 0.12461 0.90679 -0.41700
O 	O 	0.40633 0.21465 0.89660 -0.24600
O 	O 	0.56472 0.15136 0.96333 -0.42200
O 	O 	0.69921 0.17302 0.96699 -0.42500
Zn	Zn	0.53121 0.13237 0.56631 1.21900
P 	P 	0.57259 0.27032 0.51847 0.32200
C 	C 	0.37752 0.10431 0.60215 0.32500
C 	C 	0.61140 0.02859 0.52519 0.31500
O 	O 	0.65466 0.26033 0.49992 -0.44200
O 	O 	0.59073 0.32266 0.54954 -0.41600
O 	O 	0.58457 0.21510 0.59387 -0.42700
O 	O 	0.50996 0.18167 0.52773 -0.40000
O 	O 	0.42563 0.06661 0.58604 -0.41100
O 	O 	0.40003 0.18485 0.60216 -0.23600
O 	O 	0.58096 0.04008 0.55483 -0.42600
O 	O 	0.65946 0.09063 0.50685 -0.43200
Zn	Zn	0.00922 0.96987 0.77548 1.20700
P 	P 	0.05809 0.03950 0.70925 0.31900
O 	O 	0.03746 0.94490 0.70115 -0.45000
O 	O 	0.08055 0.05412 0.74498 -0.40100
O 	O 	0.19320 0.01558 0.78178 -0.23200
C 	C 	0.14691 0.00444 0.80982 0.32300
O 	O 	0.06871 0.96791 0.81165 -0.44100
Zn	Zn	0.45910 0.53336 0.35249 1.20200
Zn	Zn	0.30003 0.47053 0.39778 1.21800
Zn	Zn	0.51251 0.65973 0.40268 1.22100
P 	P 	0.45993 0.48268 0.41777 0.30100
P 	P 	0.36294 0.64146 0.37465 0.31700
C 	C 	0.55781 0.72975 0.45998 0.30200
C 	C 	0.61065 0.65407 0.33942 0.35100
C 	C 	0.33566 0.39948 0.33459 0.36300
O 	O 	0.45937 0.44665 0.38315 -0.43700
O 	O 	0.43019 0.63472 0.34634 -0.43900
O 	O 	0.37608 0.50258 0.42890 -0.42500
O 	O 	0.39742 0.64769 0.40823 -0.42700
O 	O 	0.53636 0.56190 0.41657 -0.40500
O 	O 	0.28611 0.56338 0.37467 -0.40500
O 	O 	0.57060 0.74277 0.42855 -0.41000
O 	O 	0.19400 0.54022 0.44033 -0.22300
O 	O 	0.52188 0.65544 0.47253 -0.22000
O 	O 	0.57669 0.69990 0.35881 -0.43700
O 	O 	0.31491 0.38434 0.36613 -0.43900
O 	O 	0.57576 0.57481 0.33879 -0.44600
O 	O 	0.39129 0.46735 0.32332 -0.44900
C 	C 	0.15417 0.46434 0.43544 0.29900
O 	O 	0.19072 0.41893 0.41748 -0.41000
Zn	Zn	0.34127 0.54867 0.11990 1.20400
Zn	Zn	0.21501 0.55514 0.07346 1.22300
Zn	Zn	0.46027 0.69032 0.07340 1.22000
P 	P 	0.30249 0.70092 0.10353 0.31600
P 	P 	0.37271 0.52684 0.05134 0.32300
C 	C 	0.56153 0.79416 0.02266 0.29900
C 	C 	0.50323 0.62590 0.13282 0.35700
C 	C 	0.17863 0.44431 0.13038 0.35700
O 	O 	0.28159 0.62897 0.13034 -0.43900
O 	O 	0.40245 0.51071 0.08427 -0.44200
O 	O 	0.27808 0.66790 0.06972 -0.42200
O 	O 	0.39804 0.62328 0.04273 -0.39700
O 	O 	0.39687 0.74856 0.10040 -0.40200
O 	O 	0.27690 0.48566 0.05379 -0.40700
O 	O 	0.55080 0.77958 0.05397 -0.40400
O 	O 	0.18599 0.62458 0.01274 -0.21200
O 	O 	0.54030 0.73307 0.00369 -0.21400
O 	O 	0.51994 0.63582 0.10101 -0.43800
O 	O 	0.16350 0.50894 0.11797 -0.44700
O 	O 	0.42834 0.58954 0.14656 -0.44200
O 	O 	0.25424 0.44522 0.13238 -0.43800
C 	C 	0.12178 0.56487 0.02445 0.30200
O 	O 	0.11913 0.52904 0.05258 -0.41500
Zn	Zn	0.06133 0.04152 0.23387 1.20300
Zn	Zn	0.05606 0.89957 0.28116 1.21400
P 	P 	0.12993 0.90899 0.21368 0.30200
C 	C 	0.03648 0.08722 0.17185 0.36500
C 	C 	0.12532 0.07648 0.29258 0.36900
O 	O 	0.13717 0.00124 0.20432 -0.42000
O 	O 	0.04297 0.84979 0.20829 -0.43800
O 	O 	0.14896 0.90348 0.24986 -0.41600
O 	O 	0.19586 0.92251 0.31835 -0.25500
O 	O 	0.03664 0.01212 0.16373 -0.43700
O 	O 	0.06919 0.00763 0.30295 -0.43300
O 	O 	0.02546 0.10427 0.20246 -0.44900
O 	O 	0.13789 0.10013 0.26186 -0.44500
C 	C 	0.14000 0.85383 0.32835 0.31400
O 	O 	0.07004 0.83569 0.31724 -0.42200
C 	C 	0.06118 0.14820 0.14918 -0.18700
C 	C 	0.06385 0.23344 0.15702 0.02100
C 	C 	0.12593 0.29636 0.14371 0.01500
C 	C 	0.11665 0.38015 0.14242 -0.18300
H 	H 	0.17984 0.28450 0.13073 0.04900
H 	H 	0.08043 0.13515 0.12454 0.10200
H 	H 	0.05572 0.38728 0.14615 0.09600
H 	H 	0.01218 0.24510 0.17182 0.04500
C 	C 	0.56338 0.64463 0.15114 -0.18000
H 	H 	0.54896 0.62830 0.17682 0.09900
C 	C 	0.20907 0.87972 0.18903 -0.08600
C 	C 	0.19794 0.84791 0.16032 -0.00100
C 	C 	0.25897 0.81179 0.14311 -0.00000
C 	C 	0.24377 0.76902 0.11686 -0.07900
H 	H 	0.31377 0.81403 0.15353 0.05300
H 	H 	0.26611 0.88607 0.19828 0.07400
H 	H 	0.18940 0.76657 0.10617 0.06400
H 	H 	0.14185 0.84386 0.15061 0.03300
C 	C 	0.30625 0.34277 0.31394 -0.18100
C 	C 	0.24719 0.26279 0.32498 0.01900
C 	C 	0.22237 0.20629 0.30355 0.02100
C 	C 	0.16205 0.12663 0.31399 -0.17800
H 	H 	0.24655 0.21924 0.27816 0.05200
H 	H 	0.32668 0.35571 0.28827 0.10000
H 	H 	0.14711 0.10861 0.33952 0.10500
H 	H 	0.22328 0.25016 0.35040 0.05100
C 	C 	0.15886 0.79251 0.34873 -0.14400
C 	C 	0.23495 0.80121 0.35477 0.03000
C 	C 	0.25702 0.73112 0.36814 -0.01300
C 	C 	0.33517 0.73298 0.36683 -0.07300
H 	H 	0.20946 0.67565 0.37688 0.07400
H 	H 	0.11148 0.73613 0.35648 0.09600
H 	H 	0.38286 0.78904 0.35904 0.06400
H 	H 	0.28231 0.85795 0.34748 0.04500
C 	C 	0.59934 0.94532 0.51389 -0.06100
C 	C 	0.66484 0.92333 0.49689 -0.01300
C 	C 	0.65129 0.85083 0.48043 0.01300
C 	C 	0.57224 0.79950 0.48087 -0.09600
C 	C 	0.50668 0.81936 0.49931 0.13300
C 	C 	0.52079 0.89172 0.51606 -0.04900
H 	H 	0.70204 0.83566 0.46656 0.04400
H 	H 	0.47007 0.90841 0.52925 0.06700
Br	Br	0.39690 0.75240 0.49965 -0.21000
C 	C 	0.05806 0.36165 0.47449 -0.01000
C 	C 	0.07230 0.42841 0.45261 -0.08300
C 	C 	0.00945 0.46400 0.44911 0.11600
H 	H 	0.10629 0.33447 0.47754 0.05000
Br	Br	0.02515 0.55247 0.41796 -0.23000
C 	C 	0.47568 0.40984 0.44558 0.00700
C 	C 	0.52670 0.36178 0.43507 -0.03300
C 	C 	0.55344 0.31780 0.45731 0.00800
C 	C 	0.52982 0.32149 0.49046 -0.05700
C 	C 	0.47315 0.36465 0.50105 0.13000
C 	C 	0.44776 0.41006 0.47854 -0.06900
H 	H 	0.59379 0.28182 0.44872 0.05800
H 	H 	0.40731 0.44628 0.48676 0.09200
H 	H 	0.54825 0.36089 0.40966 0.06600
Br	Br	0.42547 0.35853 0.54536 -0.19700
C 	C 	0.30783 0.06083 0.61949 -0.13800
C 	C 	0.25468 0.10199 0.63922 0.01500
C 	C 	0.19168 0.05720 0.66226 0.00900
C 	C 	0.14339 0.09678 0.68146 -0.08300
H 	H 	0.18038 0.99128 0.66527 0.04800
H 	H 	0.29108 0.99423 0.61979 0.08200
H 	H 	0.15681 0.16312 0.67959 0.07500
H 	H 	0.26524 0.16786 0.63598 0.05800
C 	C 	0.05250 0.53891 0.00641 -0.10800
C 	C 	0.06253 0.51226 0.97472 0.11400
Br	Br	0.16731 0.51099 0.95349 -0.19300
C 	C 	0.60834 0.03898 0.98373 -0.00700
C 	C 	0.67263 0.00490 0.98604 -0.01100
C 	C 	0.65709 0.92522 0.99907 0.00300
C 	C 	0.57731 0.87851 0.00980 -0.10000
C 	C 	0.51257 0.91216 0.00751 0.15000
C 	C 	0.52826 0.99211 0.99455 -0.10500
H 	H 	0.70714 0.89963 0.00062 0.04200
H 	H 	0.47817 0.01760 0.99296 0.10600
Br	Br	0.40228 0.84962 0.02174 -0.22600
C 	C 	0.50480 0.39334 0.97725 0.00700
C 	C 	0.47806 0.36105 0.00888 -0.03700
C 	C 	0.43617 0.40086 0.03083 0.01000
C 	C 	0.41891 0.47250 0.02126 -0.05400
C 	C 	0.43582 0.49858 0.98835 0.13000
C 	C 	0.48021 0.45971 0.96664 -0.06200
H 	H 	0.41849 0.37678 0.05552 0.05300
H 	H 	0.49773 0.48278 0.94180 0.08900
H 	H 	0.49328 0.30744 0.01700 0.06600
Br	Br	0.39371 0.58128 0.97185 -0.16500
C 	C 	0.36584 0.08214 0.87992 -0.16800
C 	C 	0.29214 0.09403 0.86881 0.02200
C 	C 	0.25836 0.04823 0.84385 0.01000
C 	C 	0.17956 0.04408 0.83824 -0.13300
H 	H 	0.29306 0.01416 0.82914 0.05400
H 	H 	0.37885 0.02366 0.87644 0.10400
H 	H 	0.14090 0.06914 0.85530 0.08200
H 	H 	0.26171 0.13517 0.88131 0.05000
Zn	Zn	0.71621 0.28821 0.95519 1.20700
Zn	Zn	0.74107 0.44515 0.91191 1.22000
P 	P 	0.72821 0.28484 0.88529 0.31400
O 	O 	0.78196 0.29240 0.91351 -0.44000
O 	O 	0.69545 0.36300 0.88281 -0.43000
O 	O 	0.65798 0.45060 0.94645 -0.41300
O 	O 	0.68143 0.53487 0.86374 -0.24300
Zn	Zn	0.70017 0.19496 0.52591 1.20700
Zn	Zn	0.70593 0.36514 0.55250 1.21800
P 	P 	0.67698 0.21771 0.59460 0.31300
O 	O 	0.70343 0.15842 0.56927 -0.44200
O 	O 	0.73624 0.30887 0.58747 -0.40000
O 	O 	0.86591 0.47421 0.56837 -0.23800
C 	C 	0.70637 0.70901 0.15712 0.01000
C 	C 	0.64770 0.69289 0.13798 0.01800
H 	H 	0.66102 0.71851 0.11336 0.04600
H 	H 	0.69270 0.68217 0.18156 0.05200
C 	C 	0.67693 0.69052 0.31632 -0.17400
C 	C 	0.70827 0.77572 0.31189 0.03600
H 	H 	0.70247 0.65143 0.30032 0.10000
H 	H 	0.68537 0.81614 0.32811 0.04400
H 	H 	0.72598 0.96383 0.49555 0.04600
C 	C 	0.68849 0.18026 0.63336 -0.07600
C 	C 	0.68130 0.10044 0.63837 -0.02000
C 	C 	0.72258 0.07337 0.66310 0.04200
H 	H 	0.71599 0.09525 0.68732 0.04400
H 	H 	0.71162 0.22396 0.65102 0.07400
H 	H 	0.65652 0.05695 0.62087 0.05700
H 	H 	0.73464 0.03984 0.97751 0.06100
C 	C 	0.79125 0.27843 0.84857 -0.07700
H 	H 	0.78029 0.30328 0.82620 0.06900
O 	O 	0.06929 0.84221 0.64895 -0.25000
C 	C 	0.78830 0.76631 0.14600 -0.16500
H 	H 	0.00214 0.45860 0.93507 0.05800
H 	H 	0.72881 0.63084 0.81358 0.05000
H 	H 	0.77719 0.70944 0.76231 0.07500
C 	C 	0.77740 0.02795 0.65413 -0.17600
H 	H 	0.78931 0.01448 0.62895 0.10600
C 	C 	0.75027 0.58163 0.87132 0.30600
C 	C 	0.81264 0.51605 0.56879 0.31100
C 	C 	0.83320 0.60225 0.57797 -0.12900
H 	H 	0.78861 0.63586 0.57710 0.08700
C 	C 	0.84486 0.42926 0.96086 0.29600
O 	O 	0.84248 0.43968 0.92978 -0.42200
O 	O 	0.79044 0.36873 0.97783 -0.42900
O 	O 	0.78472 0.55596 0.89374 -0.41200
C 	C 	0.83797 0.32886 0.50753 0.30400
O 	O 	0.78471 0.37164 0.51157 -0.42200
O 	O 	0.81491 0.24992 0.51507 -0.43100
O 	O 	0.73973 0.48048 0.56166 -0.40900
Zn	Zn	0.88813 0.02211 0.73503 1.21000
P 	P 	0.87310 0.85012 0.75026 0.31500
C 	C 	0.82389 0.00747 0.67587 0.37000
O 	O 	0.83782 0.92261 0.76250 -0.43600
O 	O 	0.85609 0.83305 0.71397 -0.41800
O 	O 	0.80467 0.01365 0.70704 -0.44100
C 	C 	0.84212 0.79319 0.16671 0.33300
O 	O 	0.89063 0.92599 0.22156 -0.40700
O 	O 	0.91063 0.85057 0.15726 -0.41700
O 	O 	0.82508 0.76553 0.19694 -0.25400
H 	H 	0.80331 0.79000 0.12111 0.09400
C 	C 	0.77353 0.81069 0.28512 -0.01700
C 	C 	0.81920 0.88854 0.28470 -0.07900
H 	H 	0.78869 0.77055 0.26676 0.06500
H 	H 	0.80483 0.92966 0.30274 0.06700
C 	C 	0.90677 0.63983 0.58923 0.01500
H 	H 	0.87598 0.75149 0.60116 0.05300
H 	H 	0.84683 0.49867 0.01853 0.05400
C 	C 	0.84341 0.22920 0.84817 -0.01600
C 	C 	0.87528 0.20257 0.81933 0.03900
H 	H 	0.86648 0.22667 0.79640 0.04700
H 	H 	0.85331 0.20487 0.87086 0.06200
C 	C 	0.81683 0.75888 0.77383 -0.08100
C 	C 	0.82211 0.75180 0.80523 -0.00800
C 	C 	0.77485 0.67608 0.82427 0.02200
C 	C 	0.79104 0.66089 0.85375 -0.13500
O 	O 	0.89313 0.99257 0.66463 -0.45600
H 	H 	0.83872 0.70500 0.86403 0.08800
H 	H 	0.88489 0.45954 0.46461 0.08000
H 	H 	0.05021 0.73394 0.60736 0.07300
C 	C 	0.92159 0.71870 0.60098 0.00300
H 	H 	0.86206 0.80125 0.81668 0.04000
C 	C 	0.91565 0.08584 0.79562 0.36700
O 	O 	0.89889 0.10540 0.76742 -0.43700
P 	P 	0.91165 0.92124 0.25734 0.30300
C 	C 	0.91939 0.36593 0.48967 -0.04700
C 	C 	0.91649 0.47441 0.97503 -0.04700
C 	C 	0.90693 0.50308 0.00613 -0.02100
C 	C 	0.91257 0.13457 0.82031 -0.18700
C 	C 	0.00254 0.81468 0.63589 0.28100
O 	O 	0.92457 0.01268 0.80092 -0.43700
Zn	Zn	0.93720 0.90645 0.68318 1.22100
O 	O 	0.93945 0.84149 0.64537 -0.40000
C 	C 	0.93340 0.43285 0.46773 -0.02600
H 	H 	0.92882 0.11768 0.84306 0.10300
H 	H 	0.95193 0.60677 0.58970 0.05800
O 	O 	0.95962 0.85543 0.26162 -0.43900
O 	O 	0.96285 0.00948 0.26542 -0.40700
O 	O 	0.96725 0.86860 0.75420 -0.42500
H 	H 	0.96628 0.55612 0.04595 0.04300
Zn	Zn	0.97479 0.90691 0.18974 1.21900
H 	H 	0.97250 0.27980 0.51015 0.05800
C 	C 	0.97457 0.53536 0.02170 0.03600
C 	C 	0.98232 0.33094 0.49308 0.01100
O 	O 	0.98493 0.07542 0.70490 -0.42100
C 	C 	0.99453 0.48115 0.95906 -0.01100
C 	C 	0.99798 0.75670 0.61418 -0.11000
