data_crystal

_cell_length_a 30.75104
_cell_length_b 31.02007
_cell_length_c 34.98947
_cell_angle_alpha 95.53199
_cell_angle_beta  95.53001
_cell_angle_gamma 125.53516

_symmetry_space_group_name_	'P 1'
_symmetry_space_group_name_H-M	'P 1'

loop_
_symmetry_equiv_pos_as_xyz
  x,y,z

loop_
_atom_site_label
_atom_site_type_symbol
_atom_site_fract_x
_atom_site_fract_y
_atom_site_fract_z
_atom_site_charge
H 	H 	0.01056 0.90297 0.03873 0.03900
C 	C 	0.02278 0.00448 0.44841 0.11700
H 	H 	0.02099 0.13282 0.03752 0.04000
N 	N 	0.02857 0.98200 0.99984 -0.14200
N 	N 	0.03249 0.05986 0.99896 -0.14200
C 	C 	0.97887 0.03118 0.00126 0.12000
C 	C 	0.05739 0.03526 0.99833 0.11800
C 	C 	0.97505 0.95320 0.00203 0.12200
N 	N 	0.95027 0.97785 0.00276 -0.14000
C 	C 	0.94318 0.99923 0.44745 0.13300
N 	N 	0.99746 0.02863 0.44778 -0.14100
N 	N 	0.99361 0.95087 0.44868 -0.14000
C 	C 	0.93934 0.92131 0.44836 0.11900
N 	N 	0.91409 0.94558 0.44784 -0.14100
Cu	Cu	0.64768 0.25700 0.99826 0.92700
Cu	Cu	0.69255 0.25950 0.91623 0.87100
Cu	Cu	0.68459 0.34617 0.95034 0.89700
Cu	Cu	0.64910 0.35721 0.02548 0.89500
C 	C 	0.65741 0.29232 0.07992 0.28200
O 	O 	0.56807 0.22613 0.99535 -0.36500
C 	C 	0.66853 0.31171 0.86495 0.28300
O 	O 	0.69315 0.34121 0.00433 -0.63900
O 	O 	0.64416 0.26608 0.94308 -0.64100
O 	O 	0.68026 0.21703 0.99594 -0.37400
O 	O 	0.74207 0.27229 0.96046 -0.44300
O 	O 	0.63533 0.31641 0.06932 -0.38200
O 	O 	0.72692 0.42403 0.96143 -0.38200
C 	C 	0.72141 0.45227 0.98864 0.30500
C 	C 	0.54845 0.25050 0.98114 0.30100
O 	O 	0.58170 0.30110 0.97778 -0.39400
O 	O 	0.68272 0.42887 0.00962 -0.39200
O 	O 	0.66256 0.26258 0.05376 -0.35700
C 	C 	0.72638 0.23713 0.98368 0.30700
O 	O 	0.68942 0.35199 0.89486 -0.38500
O 	O 	0.66101 0.26633 0.86967 -0.41700
H 	H 	0.73140 0.36324 0.01834 0.16400
H 	H 	0.60694 0.24581 0.92750 0.17200
Cu	Cu	0.72426 0.33550 0.44775 0.92700
Cu	Cu	0.72715 0.29648 0.53142 0.87000
Cu	Cu	0.63785 0.30232 0.49879 0.89700
Cu	Cu	0.62122 0.33206 0.42211 0.89400
C 	C 	0.68026 0.31623 0.36633 0.28100
O 	O 	0.75477 0.41387 0.44810 -0.36300
C 	C 	0.67686 0.32146 0.58413 0.28300
O 	O 	0.63952 0.29049 0.44438 -0.64000
O 	O 	0.71849 0.34256 0.50358 -0.64000
O 	O 	0.76480 0.30342 0.45009 -0.37400
O 	O 	0.71161 0.24487 0.48804 -0.44200
O 	O 	0.65795 0.34039 0.37638 -0.38200
O 	O 	0.55923 0.25986 0.49003 -0.38200
C 	C 	0.52916 0.26331 0.46271 0.30700
C 	C 	0.73059 0.43407 0.46178 0.30200
O 	O 	0.68047 0.40167 0.46723 -0.39300
O 	O 	0.55116 0.30086 0.44099 -0.39500
O 	O 	0.71549 0.31731 0.39211 -0.35900
C 	C 	0.74528 0.25851 0.46348 0.28800
O 	O 	0.63532 0.30118 0.55503 -0.38400
O 	O 	0.72267 0.33011 0.57789 -0.41900
H 	H 	0.61699 0.25201 0.43160 0.16200
H 	H 	0.73943 0.38010 0.51811 0.17200
C 	C 	0.66273 0.32108 0.82499 -0.07500
C 	C 	0.61429 0.28372 0.79809 0.00400
C 	C 	0.61129 0.28781 0.75862 -0.05400
C 	C 	0.65829 0.32729 0.74506 0.00500
C 	C 	0.70526 0.36833 0.77294 0.00700
C 	C 	0.70726 0.36478 0.81273 -0.01800
C 	C 	0.74994 0.41196 0.76078 -0.04200
C 	C 	0.74979 0.41402 0.72115 -0.04100
C 	C 	0.70608 0.37125 0.69281 0.00700
C 	C 	0.65988 0.32702 0.70439 0.00400
C 	C 	0.61893 0.28198 0.67537 -0.05300
C 	C 	0.62289 0.28219 0.63593 0.00200
C 	C 	0.66863 0.32581 0.62469 -0.07500
C 	C 	0.70957 0.37069 0.65302 -0.01800
H 	H 	0.57879 0.25151 0.80779 0.02900
H 	H 	0.57210 0.26184 0.73936 0.04100
H 	H 	0.74416 0.39474 0.83385 0.03900
H 	H 	0.78520 0.44433 0.78212 0.03800
H 	H 	0.78483 0.44812 0.71240 0.03700
H 	H 	0.58591 0.24540 0.68308 0.04000
H 	H 	0.59167 0.24688 0.61424 0.03400
H 	H 	0.74512 0.40431 0.64426 0.03700
C 	C 	0.66167 0.28607 0.12086 -0.06700
C 	C 	0.71270 0.31543 0.14539 0.00100
C 	C 	0.71678 0.31591 0.18563 -0.05100
C 	C 	0.66931 0.28522 0.20182 0.00500
C 	C 	0.61771 0.25616 0.17676 0.00900
C 	C 	0.61437 0.25561 0.13641 -0.01500
C 	C 	0.57010 0.23087 0.19253 -0.04100
C 	C 	0.57306 0.23682 0.23286 -0.04100
C 	C 	0.62350 0.26543 0.25821 0.00800
C 	C 	0.67174 0.28652 0.24290 0.00600
C 	C 	0.72065 0.30747 0.26893 -0.05200
C 	C 	0.72303 0.31535 0.30936 0.00600
C 	C 	0.67634 0.30028 0.32436 -0.06900
C 	C 	0.62629 0.27338 0.29880 -0.01900
H 	H 	0.74934 0.33997 0.13355 0.02700
H 	H 	0.75653 0.34286 0.20406 0.04200
H 	H 	0.57489 0.23340 0.11730 0.04400
H 	H 	0.53064 0.20831 0.17344 0.03900
H 	H 	0.53590 0.21907 0.24447 0.03700
H 	H 	0.75608 0.31559 0.25827 0.04300
H 	H 	0.76141 0.33388 0.32898 0.04200
H 	H 	0.58971 0.25949 0.31051 0.03000
C 	C 	0.90800 0.86293 0.44775 -0.02200
C 	C 	0.87114 0.83894 0.47319 -0.01900
C 	C 	0.84598 0.78475 0.47558 -0.04800
C 	C 	0.85728 0.75412 0.45240 0.01300
C 	C 	0.89292 0.77770 0.42621 -0.04800
C 	C 	0.91814 0.83180 0.42389 -0.01900
C 	C 	0.83265 0.69766 0.45595 0.00700
C 	C 	0.79694 0.65582 0.42398 -0.04300
C 	C 	0.77700 0.60274 0.42620 -0.03000
C 	C 	0.79259 0.59110 0.46037 -0.00900
C 	C 	0.82755 0.63267 0.49260 -0.03100
C 	C 	0.84754 0.68584 0.49041 -0.04300
C 	C 	0.77241 0.53639 0.46226 0.04600
C 	C 	0.75425 0.49001 0.46272 -0.11100
H 	H 	0.86311 0.86259 0.49183 0.04000
H 	H 	0.81820 0.76674 0.49569 0.04200
H 	H 	0.90170 0.75430 0.40809 0.04300
H 	H 	0.94614 0.84976 0.40391 0.03900
H 	H 	0.78515 0.66454 0.39729 0.04100
H 	H 	0.74971 0.57074 0.40126 0.03900
H 	H 	0.83955 0.62391 0.51918 0.03800
H 	H 	0.87527 0.71790 0.51520 0.04100
C 	C 	0.76389 0.22523 0.45320 -0.09600
C 	C 	0.81762 0.24966 0.44775 0.01400
C 	C 	0.83742 0.21902 0.44345 -0.06800
C 	C 	0.80358 0.16368 0.44436 0.02700
C 	C 	0.74917 0.13880 0.44789 -0.06900
C 	C 	0.72941 0.16939 0.45229 0.01400
C 	C 	0.82598 0.13254 0.44411 -0.00300
C 	C 	0.82717 0.10959 0.47653 -0.03500
C 	C 	0.84918 0.08083 0.47664 -0.04300
C 	C 	0.87019 0.07485 0.44441 0.01300
C 	C 	0.86873 0.09741 0.41190 -0.04200
C 	C 	0.84668 0.12616 0.41172 -0.03500
C 	C 	0.89506 0.04729 0.44532 0.00400
C 	C 	0.91655 0.02487 0.44626 -0.04200
H 	H 	0.84464 0.29265 0.44828 0.03100
H 	H 	0.87944 0.23856 0.44056 0.04600
H 	H 	0.72251 0.09595 0.44803 0.04500
H 	H 	0.68760 0.14987 0.45576 0.02800
H 	H 	0.81150 0.11446 0.50174 0.03600
H 	H 	0.85030 0.06363 0.50192 0.04100
H 	H 	0.88498 0.09300 0.38689 0.04300
H 	H 	0.84576 0.14352 0.38651 0.03900
C 	C 	0.08164 0.03615 0.44846 -0.02100
C 	C 	0.11741 0.08900 0.47006 -0.02000
C 	C 	0.17350 0.11785 0.47171 -0.04800
C 	C 	0.19428 0.09416 0.45176 0.01300
C 	C 	0.15855 0.04168 0.42974 -0.04800
C 	C 	0.10251 0.01283 0.42804 -0.02100
C 	C 	0.25345 0.12408 0.45412 0.00700
C 	C 	0.27587 0.13719 0.42025 -0.04300
C 	C 	0.33179 0.16432 0.42230 -0.03100
C 	C 	0.36565 0.17853 0.45819 -0.00900
C 	C 	0.34340 0.16559 0.49207 -0.03100
C 	C 	0.28745 0.13840 0.49006 -0.04300
C 	C 	0.42339 0.20768 0.46037 0.04600
C 	C 	0.47172 0.23266 0.46172 -0.10800
H 	H 	0.10189 0.10736 0.48611 0.04100
H 	H 	0.20081 0.15848 0.48862 0.04200
H 	H 	0.17424 0.02311 0.41419 0.04100
H 	H 	0.07533 0.97232 0.41093 0.04000
H 	H 	0.24996 0.12639 0.39239 0.04000
H 	H 	0.34879 0.17442 0.39602 0.03700
H 	H 	0.36940 0.17660 0.51994 0.04000
H 	H 	0.27047 0.12819 0.51633 0.04100
C 	C 	0.94391 0.89519 0.00313 -0.02200
C 	C 	0.88975 0.85902 0.98314 -0.02000
C 	C 	0.86146 0.80364 0.98218 -0.05300
C 	C 	0.88701 0.78395 0.00120 0.02000
C 	C 	0.94072 0.82011 0.02180 -0.05100
C 	C 	0.96903 0.87545 0.02281 -0.01600
C 	C 	0.85799 0.72543 0.99887 0.00100
C 	C 	0.84691 0.70335 0.03293 -0.03900
C 	C 	0.82034 0.64800 0.03079 -0.03000
C 	C 	0.80471 0.61442 0.99463 -0.01000
C 	C 	0.81573 0.63637 0.96058 -0.03200
C 	C 	0.84232 0.69173 0.96268 -0.04100
C 	C 	0.77606 0.55725 0.99233 0.04500
C 	C 	0.75152 0.50933 0.99055 -0.10800
H 	H 	0.86995 0.87366 0.96772 0.03900
H 	H 	0.81986 0.77600 0.96639 0.04300
H 	H 	0.96072 0.80526 0.03665 0.04300
H 	H 	0.85879 0.72904 0.06098 0.04000
H 	H 	0.81176 0.63123 0.05720 0.03800
H 	H 	0.80363 0.61060 0.93252 0.04000
H 	H 	0.85099 0.70846 0.93627 0.04000
C 	C 	0.95162 0.05768 0.00189 -0.02000
C 	C 	0.97928 0.11076 0.02236 -0.01800
C 	C 	0.95278 0.13517 0.02387 -0.04900
C 	C 	0.89849 0.10683 0.00483 0.01500
C 	C 	0.87095 0.05393 0.98421 -0.05000
C 	C 	0.89733 0.02946 0.98278 -0.02300
C 	C 	0.87082 0.13293 0.00566 0.00800
C 	C 	0.82311 0.11023 0.02125 -0.04200
C 	C 	0.79476 0.13275 0.01943 -0.03200
C 	C 	0.81403 0.17819 0.00219 -0.00600
C 	C 	0.86241 0.20174 0.98755 -0.03500
C 	C 	0.89070 0.17920 0.98924 -0.04500
C 	C 	0.78248 0.19861 0.99714 0.04200
C 	C 	0.75651 0.21598 0.99173 -0.11900
H 	H 	0.97436 0.17600 0.03992 0.04300
H 	H 	0.82923 0.03193 0.96908 0.04100
H 	H 	0.87568 0.98870 0.96658 0.04000
H 	H 	0.80764 0.07476 0.03426 0.04100
H 	H 	0.75743 0.11437 0.03086 0.04100
H 	H 	0.87754 0.23688 0.97417 0.03600
H 	H 	0.92742 0.19699 0.97708 0.03900
C 	C 	0.11550 0.06605 0.99601 -0.02500
C 	C 	0.13682 0.10178 0.96972 -0.02000
C 	C 	0.19046 0.12632 0.96447 -0.04900
C 	C 	0.22318 0.11544 0.98557 0.01100
C 	C 	0.20243 0.08116 0.01276 -0.04700
C 	C 	0.14888 0.05657 0.01795 -0.01700
C 	C 	0.27894 0.13934 0.97891 0.00800
C 	C 	0.29313 0.10585 0.96515 -0.04400
C 	C 	0.34718 0.12806 0.96252 -0.03100
C 	C 	0.38729 0.18384 0.97348 -0.01000
C 	C 	0.37288 0.21752 0.98594 -0.03100
C 	C 	0.31887 0.19536 0.98865 -0.04400
C 	C 	0.44371 0.20615 0.97481 0.04500
C 	C 	0.49132 0.22570 0.97703 -0.11200
H 	H 	0.11145 0.10933 0.95256 0.03900
H 	H 	0.20624 0.15299 0.94356 0.04200
H 	H 	0.22767 0.07320 0.02962 0.04200
H 	H 	0.13312 0.02964 0.03870 0.03800
H 	H 	0.26250 0.06258 0.95724 0.04000
H 	H 	0.35800 0.10180 0.95276 0.03800
H 	H 	0.40369 0.26072 0.99439 0.03700
H 	H 	0.30833 0.22155 0.99926 0.04000
