data_crystal

_cell_length_a 26.08890
_cell_length_b 26.49820
_cell_length_c 36.76294
_cell_angle_alpha 95.52747
_cell_angle_beta  95.52583
_cell_angle_gamma 125.83371

_symmetry_space_group_name_	'P 1'
_symmetry_space_group_name_H-M	'P 1'

loop_
_symmetry_equiv_pos_as_xyz
  x,y,z

loop_
_atom_site_label
_atom_site_type_symbol
_atom_site_fract_x
_atom_site_fract_y
_atom_site_fract_z
_atom_site_charge
C 	C 	0.99309 0.05635 0.98930 0.12600
C 	C 	0.08277 0.05902 0.98054 0.12600
N 	N 	0.05510 0.08905 0.98438 -0.14400
C 	C 	0.90331 0.96338 0.46566 0.12500
N 	N 	0.96813 0.00207 0.46797 -0.14500
C 	C 	0.00159 0.97767 0.46883 0.12500
C 	C 	0.90529 0.87551 0.46409 0.12400
Cu	Cu	0.67126 0.27761 0.01123 0.92800
Cu	Cu	0.72066 0.27897 0.93198 0.87000
Cu	Cu	0.70514 0.37657 0.96256 0.89500
Cu	Cu	0.66858 0.39265 0.03554 0.89400
C 	C 	0.68778 0.32408 0.08879 0.30500
O 	O 	0.57717 0.23868 0.01021 -0.36600
C 	C 	0.68221 0.33113 0.88145 0.30600
O 	O 	0.72115 0.37565 0.01442 -0.64100
O 	O 	0.66229 0.28360 0.95799 -0.64200
O 	O 	0.71119 0.23246 0.00955 -0.37100
O 	O 	0.78056 0.29573 0.97362 -0.44500
O 	O 	0.65835 0.34896 0.07870 -0.38700
O 	O 	0.75159 0.46763 0.97055 -0.38200
C 	C 	0.74797 0.50170 0.99745 0.29800
C 	C 	0.55050 0.26297 0.99500 0.29100
O 	O 	0.58654 0.32287 0.99190 -0.39300
O 	O 	0.70417 0.47482 0.01871 -0.39700
O 	O 	0.69292 0.28831 0.06413 -0.36200
C 	C 	0.76310 0.25392 0.99526 0.30100
O 	O 	0.70398 0.37906 0.90891 -0.38900
O 	O 	0.67928 0.28128 0.88719 -0.42300
H 	H 	0.76719 0.40384 0.02649 0.16000
H 	H 	0.61755 0.25680 0.94379 0.16800
Cu	Cu	0.70383 0.30203 0.45485 0.92600
Cu	Cu	0.71776 0.27147 0.53793 0.87000
Cu	Cu	0.60708 0.26939 0.50629 0.89700
Cu	Cu	0.57306 0.28214 0.42739 0.89400
C 	C 	0.65780 0.28397 0.37732 0.30200
O 	O 	0.73759 0.39168 0.45013 -0.37200
C 	C 	0.66272 0.30842 0.58716 0.30500
O 	O 	0.60407 0.24585 0.45481 -0.63800
O 	O 	0.70188 0.31871 0.50801 -0.64300
O 	O 	0.75405 0.26746 0.45910 -0.37600
O 	O 	0.69762 0.20537 0.49981 -0.44300
O 	O 	0.60068 0.26922 0.38069 -0.38900
O 	O 	0.51435 0.21612 0.50118 -0.38300
C 	C 	0.47496 0.21491 0.47508 0.30000
C 	C 	0.70338 0.41269 0.45455 0.29400
O 	O 	0.64531 0.37500 0.46165 -0.39400
O 	O 	0.49695 0.25399 0.45125 -0.39700
O 	O 	0.69007 0.27495 0.40238 -0.36600
C 	C 	0.73352 0.21756 0.47444 0.29900
O 	O 	0.61084 0.27973 0.56072 -0.38800
O 	O 	0.71571 0.31673 0.58065 -0.42200
H 	H 	0.58012 0.19962 0.44635 0.16100
H 	H 	0.72592 0.36411 0.51917 0.17200
C 	C 	0.65665 0.34624 0.77291 -0.00700
C 	C 	0.70852 0.39526 0.75931 -0.03600
C 	C 	0.70617 0.39228 0.72093 -0.03600
C 	C 	0.65194 0.34029 0.69598 -0.00700
C 	C 	0.59852 0.29328 0.70958 -0.03600
C 	C 	0.60087 0.29625 0.74797 -0.03600
C 	C 	0.66425 0.34252 0.81168 0.04300
C 	C 	0.67178 0.33806 0.84378 -0.11200
C 	C 	0.65463 0.33072 0.65717 0.04300
C 	C 	0.65783 0.32132 0.62499 -0.11200
H 	H 	0.75171 0.43423 0.77841 0.03800
H 	H 	0.74756 0.42899 0.71065 0.03700
H 	H 	0.55627 0.25309 0.69049 0.03900
H 	H 	0.56044 0.25831 0.75825 0.03700
C 	C 	0.70940 0.31485 0.19879 -0.00500
C 	C 	0.68175 0.25588 0.20940 -0.03400
C 	C 	0.67764 0.25064 0.24669 -0.03400
C 	C 	0.70116 0.30434 0.27352 -0.00500
C 	C 	0.73150 0.36378 0.26319 -0.03500
C 	C 	0.73561 0.36902 0.22590 -0.03600
C 	C 	0.70418 0.31851 0.15991 0.04300
C 	C 	0.69781 0.32124 0.12739 -0.10400
C 	C 	0.68794 0.29739 0.31060 0.04300
C 	C 	0.67510 0.29134 0.34128 -0.10400
H 	H 	0.66152 0.21380 0.18862 0.04200
H 	H 	0.65430 0.20455 0.25447 0.04100
H 	H 	0.74998 0.40555 0.28379 0.03700
H 	H 	0.75720 0.41480 0.21795 0.03700
C 	C 	0.87230 0.80734 0.46396 -0.05000
C 	C 	0.81916 0.76000 0.43568 0.09800
C 	C 	0.79003 0.69581 0.43655 -0.08500
C 	C 	0.81626 0.67824 0.46307 -0.01000
C 	C 	0.87114 0.72563 0.49031 0.07000
C 	C 	0.89712 0.78954 0.49124 -0.05500
N 	N 	0.79767 0.77568 0.40685 -0.19900
H 	H 	0.74832 0.65939 0.41555 0.05200
C 	C 	0.78697 0.61009 0.46120 0.00400
N 	N 	0.89945 0.71024 0.51534 -0.19400
H 	H 	0.93802 0.82579 0.51273 0.04700
C 	C 	0.79667 0.57886 0.43282 -0.10000
C 	C 	0.76754 0.51376 0.42912 0.12500
C 	C 	0.73311 0.48073 0.45653 -0.11600
C 	C 	0.72438 0.51234 0.48531 -0.02400
C 	C 	0.74899 0.57610 0.48715 0.05500
H 	H 	0.82499 0.60482 0.41266 0.05600
N 	N 	0.77020 0.48289 0.39841 -0.20400
H 	H 	0.69737 0.48692 0.50602 0.03900
N 	N 	0.73572 0.60418 0.51370 -0.19200
H 	H 	0.79886 0.50831 0.37956 0.08400
H 	H 	0.74066 0.43351 0.39150 0.09200
H 	H 	0.70898 0.57912 0.53328 0.08000
H 	H 	0.75027 0.65038 0.51465 0.08700
H 	H 	0.93904 0.74550 0.53585 0.08100
H 	H 	0.88364 0.66361 0.51423 0.08700
H 	H 	0.82352 0.82210 0.40223 0.09000
H 	H 	0.75640 0.74045 0.38729 0.08200
C 	C 	0.75434 0.17757 0.46513 -0.11800
C 	C 	0.70890 0.11098 0.45390 0.12800
C 	C 	0.73024 0.07306 0.45262 -0.10200
C 	C 	0.79610 0.10065 0.46095 0.00400
C 	C 	0.84180 0.16754 0.46921 0.05500
C 	C 	0.82034 0.20535 0.47137 -0.02400
N 	N 	0.64509 0.08341 0.44349 -0.20400
H 	H 	0.69547 0.02190 0.44521 0.05600
C 	C 	0.81654 0.05898 0.46187 -0.01000
N 	N 	0.90612 0.19567 0.47540 -0.19200
H 	H 	0.85512 0.25648 0.47914 0.03500
C 	C 	0.82518 0.03631 0.42874 -0.08500
C 	C 	0.84991 0.00137 0.42905 0.09800
C 	C 	0.86696 0.98972 0.46328 -0.05100
C 	C 	0.85522 0.00955 0.49610 -0.05300
C 	C 	0.82974 0.04382 0.49576 0.07000
H 	H 	0.81360 0.04676 0.40272 0.05300
N 	N 	0.85707 0.97916 0.39647 -0.19900
N 	N 	0.81860 0.06237 0.52799 -0.19400
H 	H 	0.84578 0.98926 0.37144 0.08200
H 	H 	0.87233 0.95046 0.39549 0.08800
H 	H 	0.82962 0.05197 0.55296 0.08000
H 	H 	0.79799 0.08629 0.52855 0.08300
H 	H 	0.93943 0.24503 0.48213 0.08000
H 	H 	0.92376 0.16912 0.47307 0.08700
H 	H 	0.62847 0.11058 0.44048 0.08700
H 	H 	0.61159 0.03408 0.43662 0.08100
C 	C 	0.07213 0.01983 0.47340 -0.05000
C 	C 	0.11153 0.02611 0.50550 0.09900
C 	C 	0.17774 0.05856 0.50646 -0.08500
C 	C 	0.20547 0.08669 0.47660 -0.00900
C 	C 	0.16654 0.08297 0.44522 0.07000
C 	C 	0.10011 0.04960 0.44402 -0.05400
N 	N 	0.08633 0.00216 0.53566 -0.19900
H 	H 	0.20794 0.06248 0.53069 0.05300
C 	C 	0.27527 0.11951 0.47844 0.00400
N 	N 	0.19246 0.11089 0.41614 -0.19400
C 	C 	0.29660 0.08450 0.46554 -0.09800
C 	C 	0.36216 0.11445 0.46527 0.12200
C 	C 	0.40695 0.18070 0.47817 -0.11100
C 	C 	0.38584 0.21535 0.49213 -0.01900
C 	C 	0.32037 0.18539 0.49255 0.05600
H 	H 	0.26192 0.03388 0.45523 0.05600
N 	N 	0.38157 0.07950 0.45228 -0.20400
H 	H 	0.42045 0.26602 0.50231 0.04100
N 	N 	0.30114 0.22014 0.50624 -0.19200
H 	H 	0.34800 0.03069 0.44251 0.08100
H 	H 	0.42998 0.10013 0.45195 0.07900
H 	H 	0.33480 0.26887 0.51625 0.08100
H 	H 	0.25294 0.19931 0.50734 0.08700
H 	H 	0.24164 0.13610 0.41609 0.08700
H 	H 	0.03850 0.98260 0.53714 0.08900
H 	H 	0.11536 0.00511 0.55872 0.08200
C 	C 	0.95017 0.89631 0.98930 -0.05100
C 	C 	0.93037 0.85063 0.95713 0.09800
C 	C 	0.89890 0.78690 0.96017 -0.08500
C 	C 	0.88507 0.76785 0.99439 -0.00900
C 	C 	0.90409 0.81341 0.02647 0.07000
C 	C 	0.93635 0.87728 0.02352 -0.05300
N 	N 	0.94015 0.86734 0.92320 -0.19900
H 	H 	0.88392 0.75176 0.93566 0.05300
C 	C 	0.84941 0.69980 0.99605 0.00400
N 	N 	0.89157 0.79621 0.06008 -0.19400
H 	H 	0.95142 0.91243 0.04805 0.04700
C 	C 	0.88398 0.67535 0.00269 -0.09800
C 	C 	0.85189 0.61107 0.00455 0.12400
C 	C 	0.78374 0.57024 0.99841 -0.11100
C 	C 	0.74921 0.59482 0.99201 -0.02100
C 	C 	0.78134 0.65928 0.99075 0.05600
H 	H 	0.93614 0.70670 0.00697 0.05600
N 	N 	0.88675 0.58931 0.01310 -0.20300
H 	H 	0.69703 0.56347 0.98747 0.04200
N 	N 	0.74662 0.68185 0.98440 -0.19200
H 	H 	0.93695 0.61945 0.01659 0.08000
H 	H 	0.86479 0.54310 0.01755 0.07900
H 	H 	0.69639 0.65150 0.98053 0.08100
H 	H 	0.76888 0.72950 0.98329 0.08700
H 	H 	0.90553 0.83018 0.08353 0.08100
H 	H 	0.86818 0.74925 0.06337 0.08600
H 	H 	0.95878 0.91325 0.91939 0.08700
H 	H 	0.92708 0.83360 0.89983 0.08200
C 	C 	0.96282 0.08867 0.99323 -0.05100
C 	C 	0.95399 0.11559 0.96402 0.09800
C 	C 	0.92623 0.14721 0.96925 -0.08500
C 	C 	0.90399 0.14935 0.00217 -0.01000
C 	C 	0.91239 0.12210 0.03128 0.07000
C 	C 	0.94204 0.09224 0.02654 -0.05400
N 	N 	0.96976 0.10928 0.93051 -0.19900
H 	H 	0.91950 0.16801 0.94700 0.05000
C 	C 	0.86705 0.17533 0.00439 0.00400
N 	N 	0.89245 0.12469 0.06382 -0.19500
H 	H 	0.94897 0.07167 0.04887 0.04700
C 	C 	0.80108 0.13567 0.98921 -0.10000
C 	C 	0.76611 0.16034 0.98564 0.12200
C 	C 	0.79720 0.22546 0.99970 -0.12100
C 	C 	0.86264 0.26460 0.01628 -0.01900
C 	C 	0.89809 0.24027 0.01862 0.05300
H 	H 	0.77752 0.08589 0.97850 0.05500
N 	N 	0.70372 0.12191 0.96740 -0.20300
H 	H 	0.88627 0.31438 0.02704 0.03700
N 	N 	0.96167 0.27938 0.03456 -0.19200
H 	H 	0.68069 0.07351 0.95844 0.08000
H 	H 	0.67834 0.13981 0.96042 0.07100
H 	H 	0.98434 0.32743 0.04458 0.08000
H 	H 	0.98902 0.26251 0.03763 0.08600
H 	H 	0.89828 0.10386 0.08500 0.08200
H 	H 	0.87172 0.14791 0.06863 0.08900
H 	H 	0.98397 0.08045 0.92421 0.08900
H 	H 	0.96520 0.13129 0.90965 0.08100
C 	C 	0.47966 0.22534 0.98592 -0.11400
C 	C 	0.44864 0.23099 0.95450 0.12400
C 	C 	0.38356 0.20628 0.95143 -0.10000
C 	C 	0.34789 0.17168 0.97748 0.00300
C 	C 	0.37703 0.15954 0.00635 0.05800
C 	C 	0.44309 0.18781 0.01082 -0.02500
N 	N 	0.48017 0.25760 0.92658 -0.20200
H 	H 	0.36041 0.21329 0.92845 0.05500
C 	C 	0.28047 0.14949 0.97469 -0.01000
N 	N 	0.34200 0.12100 0.02983 -0.19200
H 	H 	0.46635 0.18171 0.03423 0.04800
C 	C 	0.23234 0.09665 0.94754 -0.08500
C 	C 	0.16723 0.07015 0.94670 0.09900
C 	C 	0.15002 0.09438 0.97514 -0.05100
C 	C 	0.19828 0.14976 0.00074 -0.05500
C 	C 	0.26355 0.17851 0.00024 0.07100
H 	H 	0.24559 0.07608 0.92705 0.05200
H 	H 	0.18506 0.16965 0.02171 0.04900
N 	N 	0.30958 0.23354 0.02437 -0.19400
H 	H 	0.29668 0.25346 0.04397 0.08200
H 	H 	0.35832 0.25816 0.02314 0.08700
H 	H 	0.36439 0.11403 0.05181 0.08300
H 	H 	0.29210 0.09597 0.02583 0.08800
H 	H 	0.52493 0.26753 0.92522 0.08100
H 	H 	0.45806 0.26469 0.90451 0.08200
N 	N 	0.95930 0.99397 0.99123 -0.14500
C 	C 	0.98712 0.96409 0.98780 0.12600
N 	N 	0.04905 0.99680 0.98289 -0.14400
N 	N 	0.97003 0.91438 0.46628 -0.14500
N 	N 	0.87204 0.90027 0.46463 -0.14500
H 	H 	0.86742 0.99965 0.52218 0.04500
H 	H 	0.06984 0.04532 0.41968 0.04700
H 	H 	0.16326 0.10770 0.39309 0.08200
N 	N 	0.12178 0.02295 0.91804 -0.19800
H 	H 	0.13443 0.00308 0.89823 0.08200
H 	H 	0.07442 0.00825 0.91389 0.08700
