data_crystal

_cell_length_a 25.38190
_cell_length_b 25.91127
_cell_length_c 22.44920
_cell_angle_alpha 61.34840
_cell_angle_beta  118.24614
_cell_angle_gamma 133.13417

_symmetry_space_group_name_	'P 1'
_symmetry_space_group_name_H-M	'P 1'

loop_
_symmetry_equiv_pos_as_xyz
  x,y,z

loop_
_atom_site_label
_atom_site_type_symbol
_atom_site_fract_x
_atom_site_fract_y
_atom_site_fract_z
_atom_site_charge
C 	C 	0.72129 0.29335 0.05057 0.11400
N 	N 	0.65180 0.25041 0.06097 -0.14000
C 	C 	0.63045 0.27799 0.07595 0.11800
N 	N 	0.67781 0.34838 0.07947 -0.13900
C 	C 	0.74656 0.39173 0.06852 0.11900
N 	N 	0.76885 0.36432 0.05448 -0.13900
C 	C 	0.73547 0.29993 0.59597 0.12900
N 	N 	0.77063 0.36946 0.59690 -0.13900
C 	C 	0.73779 0.38387 0.61421 0.13100
N 	N 	0.67082 0.32939 0.63036 -0.14000
C 	C 	0.63490 0.26097 0.62747 0.13300
N 	N 	0.66701 0.24600 0.61017 -0.14000
C 	C 	0.27960 0.67517 0.29555 0.13000
N 	N 	0.22986 0.60512 0.28857 -0.13600
C 	C 	0.25176 0.57561 0.27732 0.13400
N 	N 	0.32236 0.61572 0.27290 -0.13900
C 	C 	0.37203 0.68489 0.28005 0.13400
N 	N 	0.35098 0.71503 0.29151 -0.13600
C 	C 	0.27177 0.65661 0.79335 0.13000
N 	N 	0.34163 0.70773 0.78179 -0.13600
C 	C 	0.37467 0.68760 0.77349 0.13400
N 	N 	0.33834 0.61718 0.77667 -0.13900
C 	C 	0.26929 0.56601 0.78834 0.13400
N 	N 	0.23544 0.58537 0.79674 -0.13600
Co	Co	0.10368 0.00067 0.19756 1.17000
Co	Co	0.88864 0.95453 0.16035 1.18500
Co	Co	0.03374 0.03631 0.25442 1.17700
Co	Co	0.96026 0.92174 0.10184 1.17100
C 	C 	0.16088 0.91450 0.25179 0.30200
Co	Co	0.09739 0.93445 0.10051 1.17500
Co	Co	0.89875 0.02175 0.26040 1.16400
C 	C 	0.98625 0.94456 0.96773 0.18800
O 	O 	0.96396 0.12894 0.20935 -0.40400
O 	O 	0.94411 0.00450 0.22049 -0.77600
C 	C 	0.03711 0.16842 0.22823 0.30400
O 	O 	0.12519 0.04675 0.26607 -0.47600
O 	O 	0.86639 0.90473 0.09500 -0.46600
C 	C 	0.82029 0.03051 0.11284 0.30600
O 	O 	0.00287 0.99869 0.16215 -0.55200
C 	C 	0.00644 0.00667 0.38831 0.16800
C 	C 	0.21220 0.08867 0.10224 0.31000
C 	C 	0.95629 0.79128 0.12986 0.28000
O 	O 	0.07468 0.14448 0.23872 -0.37800
O 	O 	0.15980 0.04525 0.05970 -0.40200
O 	O 	0.19737 0.08708 0.15312 -0.37900
O 	O 	0.80953 0.99826 0.17580 -0.39900
O 	O 	0.85311 0.02061 0.09226 -0.39200
O 	O 	0.98244 0.04673 0.34995 -0.37600
O 	O 	0.02070 0.98508 0.35808 -0.32100
O 	O 	0.02855 0.82632 0.14684 -0.37500
O 	O 	0.92586 0.81355 0.13718 -0.39100
O 	O 	0.05150 0.95874 0.13147 -0.73600
C 	C 	0.79172 0.86532 0.26642 0.29200
O 	O 	0.84131 0.91184 0.30629 -0.38700
O 	O 	0.81107 0.86299 0.22225 -0.38300
O 	O 	0.17914 0.94977 0.19161 -0.39700
O 	O 	0.12015 0.92059 0.26514 -0.38400
O 	O 	0.01921 0.91245 0.00689 -0.33800
O 	O 	0.96266 0.95882 0.99611 -0.35300
Co	Co	0.08054 0.95585 0.71290 1.19100
Co	Co	0.91789 0.99797 0.65636 1.19000
Co	Co	0.04281 0.01698 0.77816 1.17400
Co	Co	0.95651 0.93835 0.59135 1.17600
C 	C 	0.05979 0.81572 0.74280 0.30100
Co	Co	0.04628 0.88957 0.59412 1.17400
Co	Co	0.94431 0.05882 0.77351 1.16300
C 	C 	0.01420 0.98387 0.46518 0.27000
O 	O 	0.05028 0.11401 0.83381 -0.40200
O 	O 	0.97225 0.02486 0.73149 -0.77100
C 	C 	0.10835 0.15450 0.80849 0.30600
O 	O 	0.11029 0.99217 0.79430 -0.44700
O 	O 	0.88487 0.95679 0.57774 -0.46600
C 	C 	0.93014 0.13534 0.62518 0.29200
O 	O 	0.01522 0.00093 0.67325 -0.59200
C 	C 	0.97201 0.95868 0.89755 0.17600
C 	C 	0.20025 0.00734 0.65586 0.27200
C 	C 	0.88379 0.79455 0.57327 0.30700
O 	O 	0.11995 0.12556 0.78512 -0.38800
O 	O 	0.15718 0.94127 0.64685 -0.38100
O 	O 	0.18104 0.02532 0.68439 -0.39400
O 	O 	0.97328 0.14471 0.68741 -0.40400
O 	O 	0.91186 0.08689 0.59918 -0.38600
O 	O 	0.92131 0.97050 0.85829 -0.34600
O 	O 	0.00025 0.94887 0.86947 -0.31800
O 	O 	0.93649 0.83290 0.54106 -0.41800
O 	O 	0.88443 0.82560 0.60628 -0.40600
O 	O 	0.03114 0.93724 0.63335 -0.74000
C 	C 	0.79635 0.93582 0.71458 0.31800
O 	O 	0.83427 0.00264 0.71884 -0.42000
O 	O 	0.82543 0.91779 0.69928 -0.39900
O 	O 	0.01864 0.80430 0.68083 -0.39000
O 	O 	0.06399 0.85525 0.76879 -0.38300
O 	O 	0.06702 0.97548 0.50697 -0.36100
O 	O 	0.97709 0.98628 0.49009 -0.37300
C 	C 	0.19316 0.36438 0.79789 0.03600
C 	C 	0.20879 0.32204 0.86169 -0.06500
C 	C 	0.19180 0.25711 0.86415 0.02000
C 	C 	0.23364 0.49146 0.79278 -0.03000
C 	C 	0.14945 0.27967 0.73848 0.01800
C 	C 	0.16614 0.34452 0.73600 -0.06400
C 	C 	0.21230 0.43222 0.79532 0.00000
C 	C 	0.15766 0.23324 0.80297 -0.09000
H 	H 	0.23269 0.33855 0.90955 0.05300
H 	H 	0.19964 0.22245 0.91424 0.03600
H 	H 	0.12452 0.26274 0.69068 0.03800
H 	H 	0.15672 0.37845 0.68611 0.05300
C 	C 	0.58125 0.81541 0.74139 0.03900
C 	C 	0.62776 0.79422 0.78909 -0.06600
C 	C 	0.69577 0.82880 0.77675 0.02300
C 	C 	0.44844 0.73986 0.76208 -0.03000
C 	C 	0.66949 0.90357 0.66744 0.02600
C 	C 	0.60150 0.86896 0.67977 -0.06600
C 	C 	0.50954 0.77686 0.75251 0.00100
C 	C 	0.71787 0.88504 0.71679 -0.09400
H 	H 	0.61158 0.75146 0.83603 0.05400
H 	H 	0.73282 0.81440 0.81545 0.03400
H 	H 	0.68605 0.94706 0.62100 0.03300
H 	H 	0.56500 0.88428 0.64172 0.05500
C 	C 	0.17083 0.72372 0.80643 0.04300
C 	C 	0.09403 0.67794 0.80020 -0.07800
C 	C 	0.05795 0.70605 0.78978 0.05400
C 	C 	0.23549 0.67854 0.79958 -0.02600
C 	C 	0.17601 0.82431 0.79816 0.02300
C 	C 	0.21212 0.79622 0.80837 -0.06700
C 	C 	0.20604 0.69856 0.80360 -0.00200
C 	C 	0.09821 0.78057 0.78431 -0.09900
H 	H 	0.06169 0.62150 0.79999 0.06100
H 	H 	0.99801 0.67126 0.78022 0.00800
H 	H 	0.20804 0.88163 0.79498 0.03700
H 	H 	0.27169 0.83182 0.81445 0.05700
C 	C 	0.13250 0.37126 0.25617 0.03600
C 	C 	0.15827 0.32924 0.30539 -0.06400
C 	C 	0.13129 0.26547 0.29378 0.01800
C 	C 	0.20141 0.50164 0.27087 -0.03000
C 	C 	0.05395 0.28638 0.18282 0.02000
C 	C 	0.08090 0.35004 0.19451 -0.06400
C 	C 	0.16701 0.44125 0.26448 0.00100
C 	C 	0.07807 0.24305 0.23293 -0.08500
H 	H 	0.19945 0.34610 0.35251 0.05300
H 	H 	0.14974 0.23221 0.33322 0.03700
H 	H 	0.01317 0.26989 0.13546 0.03900
H 	H 	0.06199 0.38303 0.15539 0.05400
C 	C 	0.57834 0.77539 0.27253 0.03600
C 	C 	0.62744 0.76745 0.33435 -0.06500
C 	C 	0.69430 0.78891 0.33204 0.01800
C 	C 	0.44731 0.72449 0.27764 -0.03000
C 	C 	0.66142 0.82230 0.20575 0.02000
C 	C 	0.59444 0.80082 0.20814 -0.06300
C 	C 	0.50799 0.75029 0.27513 0.00100
C 	C 	0.71314 0.81930 0.26780 -0.08800
H 	H 	0.61433 0.74552 0.38430 0.05300
H 	H 	0.73341 0.78586 0.38032 0.03500
H 	H 	0.67502 0.84549 0.15581 0.03700
H 	H 	0.55567 0.80490 0.15998 0.05600
C 	C 	0.21698 0.77416 0.31856 0.03500
C 	C 	0.14202 0.74467 0.30381 -0.06000
C 	C 	0.12235 0.78738 0.29551 0.01500
C 	C 	0.25621 0.70805 0.30501 -0.02800
C 	C 	0.25203 0.88638 0.32308 0.01900
C 	C 	0.27180 0.84360 0.33210 -0.06200
C 	C 	0.23768 0.73708 0.31198 0.00100
C 	C 	0.17739 0.86090 0.29847 -0.08300
H 	H 	0.09898 0.69016 0.29543 0.05600
H 	H 	0.06435 0.76540 0.28031 0.04800
H 	H 	0.29523 0.94217 0.32792 0.03800
H 	H 	0.32988 0.86621 0.34563 0.05500
C 	C 	0.83216 0.23879 0.56674 0.02900
C 	C 	0.90927 0.28047 0.57817 -0.05900
C 	C 	0.94182 0.24937 0.58739 -0.00600
C 	C 	0.77170 0.28235 0.58317 -0.03500
C 	C 	0.82001 0.13711 0.56694 0.01200
C 	C 	0.78745 0.16825 0.55774 -0.06400
C 	C 	0.79984 0.26395 0.57437 -0.00300
C 	C 	0.89748 0.17587 0.58645 -0.08400
H 	H 	0.94429 0.33552 0.58385 0.04500
H 	H 	0.00170 0.28051 0.60094 0.04800
H 	H 	0.78503 0.08081 0.56487 0.03100
H 	H 	0.72766 0.13600 0.54760 0.04700
C 	C 	0.80218 0.58269 0.59740 0.03500
C 	C 	0.78147 0.62027 0.53256 -0.06800
C 	C 	0.79715 0.68570 0.52632 0.02100
C 	C 	0.76880 0.45734 0.60798 -0.03400
C 	C 	0.84754 0.67260 0.65081 0.02000
C 	C 	0.83223 0.60723 0.65706 -0.06700
C 	C 	0.78676 0.51569 0.60338 -0.00400
C 	C 	0.83534 0.71498 0.58461 -0.09500
H 	H 	0.75506 0.59991 0.48663 0.05200
H 	H 	0.78575 0.71694 0.47513 0.03100
H 	H 	0.87465 0.69325 0.69666 0.03400
H 	H 	0.84535 0.57674 0.70795 0.04900
C 	C 	0.42175 0.12465 0.64527 0.03300
C 	C 	0.36301 0.09826 0.58849 -0.06500
C 	C 	0.29089 0.06368 0.59036 0.01300
C 	C 	0.55976 0.20729 0.63462 -0.03600
C 	C 	0.33604 0.08263 0.70558 0.01500
C 	C 	0.40824 0.11726 0.70362 -0.06600
C 	C 	0.49666 0.16746 0.63996 -0.00200
C 	C 	0.27695 0.05515 0.64914 -0.08300
H 	H 	0.37325 0.10504 0.54265 0.05000
H 	H 	0.24558 0.04233 0.54663 0.02700
H 	H 	0.32582 0.07534 0.75169 0.03100
H 	H 	0.45366 0.13870 0.74726 0.04900
C 	C 	0.78666 0.18607 0.03400 -0.00200
C 	C 	0.83972 0.24645 0.06364 -0.03900
C 	C 	0.81955 0.28414 0.06580 -0.02500
C 	C 	0.81085 0.08805 0.07379 -0.10800
C 	C 	0.69436 0.20488 0.00380 -0.02100
C 	C 	0.71465 0.16723 0.00181 -0.03500
C 	C 	0.80072 0.13416 0.05150 0.04300
C 	C 	0.74595 0.26180 0.03821 -0.01700
H 	H 	0.89550 0.26160 0.08867 0.03800
H 	H 	0.86029 0.32831 0.09188 0.04100
H 	H 	0.63791 0.18820 0.98055 0.03900
H 	H 	0.67321 0.12094 0.97852 0.03900
C 	C 	0.85072 0.59530 0.09744 0.00200
C 	C 	0.80865 0.58067 0.03151 -0.03700
C 	C 	0.78177 0.51739 0.01908 -0.01800
C 	C 	0.91124 0.71976 0.11923 -0.09800
C 	C 	0.84259 0.48521 0.13717 -0.02200
C 	C 	0.86949 0.54854 0.14959 -0.04000
C 	C 	0.88104 0.66204 0.10947 0.03800
C 	C 	0.79630 0.46792 0.07266 -0.01900
H 	H 	0.79584 0.61770 0.99017 0.04200
H 	H 	0.74601 0.50465 0.96908 0.03900
H 	H 	0.85408 0.44746 0.17903 0.03900
H 	H 	0.90405 0.56064 0.20004 0.04100
C 	C 	0.41912 0.17971 0.09657 -0.00200
C 	C 	0.48061 0.20295 0.15246 -0.03800
C 	C 	0.54883 0.22905 0.14830 -0.02100
C 	C 	0.28770 0.12639 0.10262 -0.11000
C 	C 	0.49345 0.20534 0.03370 -0.02000
C 	C 	0.42520 0.17926 0.03789 -0.03700
C 	C 	0.34863 0.15254 0.10071 0.04600
C 	C 	0.55611 0.23238 0.08802 -0.01900
H 	H 	0.47593 0.20183 0.19867 0.04400
H 	H 	0.59680 0.24953 0.19071 0.04100
H 	H 	0.49838 0.20780 0.98687 0.03800
H 	H 	0.37739 0.15979 0.99509 0.04000
