data_crystal

_cell_length_a 26.25786
_cell_length_b 26.42433
_cell_length_c 30.82937
_cell_angle_alpha 95.43668
_cell_angle_beta  95.43611
_cell_angle_gamma 125.95096

_symmetry_space_group_name_	'P 1'
_symmetry_space_group_name_H-M	'P 1'

loop_
_symmetry_equiv_pos_as_xyz
  x,y,z

loop_
_atom_site_label
_atom_site_type_symbol
_atom_site_fract_x
_atom_site_fract_y
_atom_site_fract_z
_atom_site_charge
C 	C 	0.99327 0.03579 0.99515 0.05800
C 	C 	0.05952 0.06924 0.99764 -0.09600
C 	C 	0.08661 0.03655 0.99808 0.06400
C 	C 	0.04687 0.97018 0.99399 -0.10400
C 	C 	0.98042 0.93644 0.98891 0.06000
C 	C 	0.95363 0.96924 0.98980 -0.09900
H 	H 	0.09000 0.12053 0.00045 0.05200
H 	H 	0.06755 0.94472 0.99399 0.05800
H 	H 	0.90225 0.94319 0.98678 0.05600
C 	C 	0.90627 0.98792 0.44821 0.04300
C 	C 	0.97330 0.02838 0.45494 -0.08300
C 	C 	0.00757 0.00320 0.45771 0.04200
C 	C 	0.97493 0.93753 0.45432 -0.08500
C 	C 	0.90789 0.89671 0.44744 0.04600
C 	C 	0.87341 0.92190 0.44416 -0.09100
H 	H 	0.99871 0.07934 0.45797 0.05300
H 	H 	0.00159 0.91813 0.45659 0.04900
H 	H 	0.82154 0.89046 0.43879 0.05200
Cu	Cu	0.67064 0.25548 0.01281 0.92500
Cu	Cu	0.69890 0.22823 0.91561 0.86900
Cu	Cu	0.69685 0.33766 0.94197 0.89600
Cu	Cu	0.68912 0.38605 0.03351 0.89200
C 	C 	0.69191 0.31494 0.10197 0.27800
O 	O 	0.58038 0.22245 0.01867 -0.37500
C 	C 	0.65669 0.26944 0.84837 0.28100
O 	O 	0.72481 0.35129 0.00441 -0.64100
O 	O 	0.65024 0.24652 0.94791 -0.64100
O 	O 	0.70699 0.20725 0.01424 -0.38400
O 	O 	0.76701 0.25536 0.96242 -0.44600
O 	O 	0.70751 0.36982 0.09279 -0.38900
O 	O 	0.74819 0.42764 0.94035 -0.38700
C 	C 	0.74844 0.46996 0.96702 0.30100
C 	C 	0.55809 0.25469 0.01088 0.29000
O 	O 	0.59393 0.30890 0.99737 -0.39000
O 	O 	0.71246 0.45358 0.99777 -0.39700
O 	O 	0.70053 0.27906 0.07569 -0.36300
C 	C 	0.75607 0.22406 0.99517 0.31100
O 	O 	0.68112 0.32310 0.87635 -0.38700
O 	O 	0.65045 0.22056 0.86201 -0.42200
H 	H 	0.77185 0.37636 0.01341 0.16100
H 	H 	0.60396 0.22015 0.93513 0.17300
Cu	Cu	0.68833 0.31309 0.43911 0.92300
Cu	Cu	0.72826 0.29857 0.53879 0.87100
Cu	Cu	0.61199 0.30913 0.50941 0.90800
Cu	Cu	0.56988 0.31890 0.41704 0.89300
C 	C 	0.63515 0.30103 0.35069 0.28400
O 	O 	0.73450 0.40479 0.43065 -0.37000
C 	C 	0.65311 0.30700 0.59619 0.28400
O 	O 	0.59380 0.27514 0.44751 -0.63600
O 	O 	0.70092 0.33974 0.50409 -0.63300
O 	O 	0.71627 0.25655 0.43648 -0.37100
O 	O 	0.78518 0.30484 0.50292 -0.43200
O 	O 	0.58317 0.29481 0.35810 -0.38600
O 	O 	0.52417 0.27224 0.51347 -0.38200
C 	C 	0.48343 0.26891 0.48261 0.29800
C 	C 	0.71034 0.43583 0.43822 0.29300
O 	O 	0.65639 0.40857 0.45297 -0.39500
O 	O 	0.50338 0.30449 0.45181 -0.39800
O 	O 	0.66090 0.28169 0.37659 -0.36100
C 	C 	0.76225 0.26498 0.46520 0.29900
O 	O 	0.63363 0.33379 0.57321 -0.38100
O 	O 	0.66331 0.26878 0.57542 -0.43400
H 	H 	0.56216 0.22822 0.44018 0.15800
H 	H 	0.73148 0.38654 0.51346 0.15700
C 	C 	0.65241 0.31050 0.64399 -0.08300
C 	C 	0.68614 0.36988 0.67225 0.00400
C 	C 	0.69057 0.37373 0.71819 -0.06200
C 	C 	0.66077 0.31808 0.73627 0.01400
C 	C 	0.62424 0.25807 0.70775 0.00800
C 	C 	0.62047 0.25459 0.66171 -0.01700
C 	C 	0.59334 0.20242 0.72571 -0.05900
C 	C 	0.60115 0.20622 0.77165 0.00000
C 	C 	0.64049 0.26577 0.80029 -0.07500
C 	C 	0.66864 0.32169 0.78246 -0.02500
H 	H 	0.71039 0.41317 0.65871 0.02500
H 	H 	0.71799 0.41999 0.73969 0.04100
H 	H 	0.59344 0.20864 0.63977 0.03700
H 	H 	0.56410 0.15613 0.70412 0.03800
H 	H 	0.57764 0.16277 0.78497 0.03200
H 	H 	0.69836 0.36780 0.80434 0.04600
C 	C 	0.68130 0.30234 0.14723 -0.07000
C 	C 	0.64640 0.23962 0.15493 0.00000
C 	C 	0.63177 0.22686 0.19687 -0.05600
C 	C 	0.65164 0.27665 0.23159 0.01200
C 	C 	0.68762 0.33995 0.22424 0.01300
C 	C 	0.70270 0.35253 0.18222 -0.02300
C 	C 	0.70717 0.38975 0.25883 -0.05700
C 	C 	0.69033 0.37678 0.30019 0.00100
C 	C 	0.65411 0.31405 0.30753 -0.07000
C 	C 	0.63527 0.26401 0.27341 -0.01500
H 	H 	0.62927 0.20052 0.12815 0.03700
H 	H 	0.60425 0.17816 0.20214 0.04200
H 	H 	0.73048 0.40115 0.17669 0.04200
H 	H 	0.73500 0.43849 0.25361 0.04000
H 	H 	0.70555 0.41558 0.32662 0.03000
H 	H 	0.60735 0.21551 0.27922 0.04200
C 	C 	0.74408 0.50174 0.43073 -0.11500
C 	C 	0.71109 0.51976 0.40555 0.12100
C 	C 	0.73923 0.58451 0.40730 -0.10000
C 	C 	0.80144 0.63135 0.43101 0.00500
C 	C 	0.83687 0.61317 0.45263 0.05400
C 	C 	0.80738 0.54837 0.45283 -0.02200
N 	N 	0.65316 0.47519 0.37894 -0.20300
H 	H 	0.71289 0.59852 0.38974 0.05400
C 	C 	0.82779 0.69923 0.43456 -0.01400
N 	N 	0.89900 0.65745 0.47305 -0.19200
H 	H 	0.83323 0.53441 0.47114 0.03600
C 	C 	0.82819 0.73125 0.47372 -0.08000
C 	C 	0.85192 0.79530 0.47817 0.08400
C 	C 	0.87400 0.82726 0.44213 -0.03600
C 	C 	0.87112 0.79440 0.40235 -0.06800
C 	C 	0.84965 0.73111 0.39849 0.07300
H 	H 	0.81063 0.70641 0.50105 0.05000
N 	N 	0.85393 0.82584 0.51715 -0.19800
H 	H 	0.88822 0.81907 0.37488 0.04500
N 	N 	0.85153 0.70183 0.36057 -0.19600
H 	H 	0.83781 0.80187 0.54357 0.07900
H 	H 	0.87130 0.87341 0.52170 0.08400
H 	H 	0.86654 0.72535 0.33382 0.07900
H 	H 	0.83971 0.65627 0.35757 0.08500
H 	H 	0.92425 0.64373 0.48987 0.07800
H 	H 	0.92338 0.70553 0.47141 0.08500
H 	H 	0.63415 0.42714 0.37311 0.06400
H 	H 	0.62796 0.48879 0.36188 0.07800
C 	C 	0.87090 0.01537 0.44719 -0.03300
C 	C 	0.85340 0.02836 0.40722 0.08400
C 	C 	0.83282 0.06691 0.40877 -0.08000
C 	C 	0.82979 0.09279 0.44943 -0.01400
C 	C 	0.84390 0.07690 0.48916 0.07400
C 	C 	0.86367 0.03771 0.48749 -0.06900
N 	N 	0.85661 0.00435 0.36740 -0.19600
H 	H 	0.82039 0.07786 0.37832 0.05100
C 	C 	0.81240 0.13700 0.45006 0.00500
N 	N 	0.83967 0.09991 0.52897 -0.19500
H 	H 	0.87631 0.02692 0.51796 0.04600
C 	C 	0.74846 0.11279 0.44972 -0.10000
C 	C 	0.73132 0.15387 0.45608 0.12000
C 	C 	0.77843 0.22024 0.45911 -0.11900
C 	C 	0.84201 0.24425 0.45779 -0.02100
C 	C 	0.85969 0.20334 0.45365 0.05400
H 	H 	0.71245 0.06197 0.44692 0.05400
N 	N 	0.67046 0.12965 0.46117 -0.20200
H 	H 	0.87800 0.29502 0.46036 0.03800
N 	N 	0.92201 0.22805 0.45341 -0.19100
H 	H 	0.63544 0.08046 0.45671 0.07800
H 	H 	0.65810 0.15905 0.47203 0.06400
H 	H 	0.95658 0.27709 0.45637 0.08000
H 	H 	0.93680 0.19908 0.45014 0.08600
H 	H 	0.85041 0.08804 0.55808 0.07800
H 	H 	0.82578 0.12969 0.53156 0.08300
H 	H 	0.86921 0.97350 0.36493 0.08200
H 	H 	0.84506 0.01542 0.33815 0.08100
C 	C 	0.41590 0.23319 0.48715 -0.11500
C 	C 	0.38636 0.26367 0.49190 0.13000
C 	C 	0.31971 0.22660 0.48876 -0.10300
C 	C 	0.28288 0.16020 0.48352 0.00600
C 	C 	0.31312 0.13013 0.48212 0.05400
C 	C 	0.37946 0.16706 0.48374 -0.02300
N 	N 	0.42177 0.32823 0.50083 -0.20400
H 	H 	0.29649 0.24952 0.49086 0.05500
C 	C 	0.21246 0.12251 0.47754 -0.01500
N 	N 	0.27881 0.06601 0.47906 -0.19100
H 	H 	0.40256 0.14405 0.48126 0.03200
C 	C 	0.17652 0.10002 0.43443 -0.08000
C 	C 	0.10943 0.06154 0.42718 0.08300
C 	C 	0.07795 0.04572 0.46396 -0.03500
C 	C 	0.11392 0.06941 0.50711 -0.07000
C 	C 	0.18103 0.10774 0.51436 0.07400
H 	H 	0.20091 0.11189 0.40638 0.04900
N 	N 	0.07562 0.03982 0.38496 -0.19800
H 	H 	0.08953 0.05743 0.53516 0.04500
N 	N 	0.21487 0.12965 0.55657 -0.19600
H 	H 	0.09939 0.05159 0.35806 0.07900
H 	H 	0.02568 0.01135 0.37832 0.08300
H 	H 	0.19115 0.11819 0.58349 0.07900
H 	H 	0.26482 0.15828 0.56318 0.08700
H 	H 	0.30149 0.04420 0.47739 0.07800
H 	H 	0.22969 0.03730 0.47897 0.08500
H 	H 	0.47170 0.35701 0.50856 0.09500
H 	H 	0.39932 0.35028 0.50240 0.08200
C 	C 	0.78040 0.53436 0.95723 -0.11500
C 	C 	0.74478 0.55704 0.94536 0.13000
C 	C 	0.77679 0.62247 0.94705 -0.10200
C 	C 	0.84373 0.66489 0.95809 0.00500
C 	C 	0.87964 0.64129 0.96542 0.05500
C 	C 	0.84744 0.57608 0.96526 -0.02300
N 	N 	0.68013 0.51620 0.93172 -0.20400
H 	H 	0.74954 0.64049 0.94002 0.05600
C 	C 	0.87529 0.73405 0.96517 -0.00900
N 	N 	0.94477 0.68090 0.97280 -0.19200
H 	H 	0.87465 0.55817 0.97296 0.03400
C 	C 	0.89056 0.76709 0.00839 -0.08600
C 	C 	0.92225 0.83305 0.01671 0.08100
C 	C 	0.93882 0.86635 0.98097 -0.03500
C 	C 	0.92121 0.83292 0.93754 -0.06700
C 	C 	0.88996 0.76702 0.92923 0.07200
H 	H 	0.87826 0.74140 0.03570 0.05000
N 	N 	0.93671 0.86405 0.05899 -0.19800
H 	H 	0.93369 0.85863 0.91024 0.04500
N 	N 	0.87521 0.73601 0.88692 -0.19500
H 	H 	0.92521 0.83917 0.08524 0.07900
H 	H 	0.95851 0.91275 0.06619 0.08200
H 	H 	0.88617 0.76083 0.86063 0.07900
H 	H 	0.85316 0.68727 0.87963 0.08500
H 	H 	0.97088 0.66329 0.97925 0.07900
H 	H 	0.97007 0.72906 0.97111 0.08600
H 	H 	0.65577 0.46697 0.92603 0.09100
H 	H 	0.65388 0.53351 0.92469 0.08200
C 	C 	0.96544 0.07055 0.99941 -0.03100
C 	C 	0.95917 0.09099 0.04141 0.07700
C 	C 	0.92723 0.11876 0.04382 -0.07600
C 	C 	0.90139 0.12617 0.00518 -0.02300
C 	C 	0.90977 0.10791 0.96332 0.08200
C 	C 	0.94160 0.08004 0.96090 -0.07100
N 	N 	0.98329 0.08379 0.07941 -0.19500
H 	H 	0.92148 0.13364 0.07584 0.04900
C 	C 	0.86388 0.15122 0.00889 0.00900
N 	N 	0.88720 0.11673 0.92543 -0.19600
H 	H 	0.94706 0.06486 0.92886 0.04700
C 	C 	0.89591 0.21718 0.01576 -0.10600
C 	C 	0.86144 0.24240 0.01539 0.13000
C 	C 	0.79367 0.20061 0.00637 -0.12800
C 	C 	0.76183 0.13488 0.00258 -0.02700
C 	C 	0.79631 0.10967 0.00392 0.04800
H 	H 	0.94779 0.24894 0.02105 0.05500
N 	N 	0.89354 0.30655 0.02464 -0.20500
H 	H 	0.70992 0.10302 0.99682 0.03800
N 	N 	0.76429 0.04568 0.99988 -0.18600
H 	H 	0.94353 0.33715 0.02958 0.07900
H 	H 	0.86948 0.32654 0.02900 0.08600
H 	H 	0.71433 0.01533 0.99537 0.07900
H 	H 	0.78849 0.02549 0.00188 0.08100
H 	H 	0.89285 0.10226 0.89466 0.07800
H 	H 	0.86461 0.13861 0.92606 0.08300
H 	H 	0.00800 0.06408 0.07893 0.07800
H 	H 	0.97787 0.09850 0.11019 0.08000
C 	C 	0.48989 0.22586 0.01109 -0.12200
C 	C 	0.45811 0.18976 0.04353 0.12600
C 	C 	0.39178 0.15737 0.03949 -0.10200
C 	C 	0.35830 0.16687 0.00721 -0.00000
C 	C 	0.39156 0.20874 0.97792 0.05800
C 	C 	0.45629 0.23535 0.97877 -0.02000
N 	N 	0.49135 0.18919 0.07987 -0.20300
H 	H 	0.36661 0.12677 0.06273 0.05400
C 	C 	0.28848 0.13286 0.00461 -0.01800
N 	N 	0.36189 0.22390 0.94925 -0.19200
H 	H 	0.48079 0.26426 0.95457 0.04000
C 	C 	0.26682 0.14931 0.03922 -0.08200
C 	C 	0.20104 0.11687 0.03863 0.08700
C 	C 	0.15641 0.07123 0.00067 -0.05000
C 	C 	0.17829 0.05602 0.96555 -0.06000
C 	C 	0.24359 0.08400 0.96816 0.07700
H 	H 	0.30125 0.18610 0.06740 0.04900
N 	N 	0.18116 0.12814 0.07506 -0.19900
H 	H 	0.14406 0.02059 0.93673 0.04300
N 	N 	0.26269 0.06317 0.93600 -0.19600
H 	H 	0.21450 0.16393 0.10202 0.07900
H 	H 	0.13309 0.09957 0.07807 0.08100
H 	H 	0.22945 0.02876 0.90843 0.07900
H 	H 	0.30999 0.07891 0.93881 0.08700
H 	H 	0.38619 0.25293 0.92664 0.07900
H 	H 	0.31551 0.20923 0.95024 0.08600
H 	H 	0.54096 0.22267 0.08885 0.09100
H 	H 	0.46712 0.15873 0.10179 0.08300
