data_crystal

_cell_length_a 27.50794
_cell_length_b 29.05214
_cell_length_c 30.86184
_cell_angle_alpha 61.11284
_cell_angle_beta  118.56922
_cell_angle_gamma 133.18987

_symmetry_space_group_name_	'P 1'
_symmetry_space_group_name_H-M	'P 1'

loop_
_symmetry_equiv_pos_as_xyz
  x,y,z

loop_
_atom_site_label
_atom_site_type_symbol
_atom_site_fract_x
_atom_site_fract_y
_atom_site_fract_z
_atom_site_charge
C 	C 	0.72324 0.31612 0.01022 0.14700
N 	N 	0.65973 0.27430 0.01958 -0.14000
C 	C 	0.63317 0.29721 0.02394 0.15300
N 	N 	0.66854 0.36201 0.01622 -0.14200
C 	C 	0.73404 0.40326 0.01161 0.15000
N 	N 	0.76171 0.38040 0.00842 -0.13100
C 	C 	0.74626 0.33191 0.53614 0.14700
N 	N 	0.67672 0.29566 0.52542 -0.13500
C 	C 	0.64640 0.31318 0.53208 0.15300
N 	N 	0.68551 0.36657 0.54966 -0.12800
C 	C 	0.75470 0.40170 0.56216 0.14900
N 	N 	0.78546 0.38463 0.55527 -0.14300
C 	C 	0.27366 0.63111 0.26966 0.14500
N 	N 	0.22982 0.57269 0.25739 -0.13100
C 	C 	0.25502 0.54824 0.25317 0.15300
N 	N 	0.32350 0.58191 0.26134 -0.13400
C 	C 	0.36731 0.64050 0.27254 0.15000
N 	N 	0.34245 0.66528 0.27669 -0.14300
C 	C 	0.28233 0.64460 0.78198 0.14600
N 	N 	0.23970 0.58475 0.77236 -0.13000
C 	C 	0.26644 0.55995 0.77082 0.14800
N 	N 	0.33524 0.59400 0.78055 -0.14300
C 	C 	0.37709 0.65593 0.78475 0.15000
N 	N 	0.35082 0.68085 0.78658 -0.14200
Co	Co	0.08852 0.96997 0.17319 1.18700
Co	Co	0.90404 0.96254 0.12116 1.18600
Co	Co	0.02464 0.00807 0.20712 1.18500
Co	Co	0.97213 0.93060 0.08453 1.18300
C 	C 	0.09907 0.85873 0.20870 0.31500
Co	Co	0.08866 0.91994 0.09829 1.17600
Co	Co	0.90405 0.01524 0.19360 1.17000
O 	O 	0.99808 0.08441 0.23032 -0.41000
O 	O 	0.94918 0.99692 0.17091 -0.75800
C 	C 	0.05271 0.12598 0.21166 0.33200
O 	O 	0.10320 0.00394 0.22554 -0.45900
O 	O 	0.88828 0.92521 0.07052 -0.45900
C 	C 	0.87894 0.06687 0.08172 0.32100
C 	C 	0.21417 0.03626 0.14028 0.33400
C 	C 	0.94163 0.81337 0.07894 0.32300
O 	O 	0.07656 0.10545 0.20236 -0.38600
O 	O 	0.18718 0.97832 0.13883 -0.40800
O 	O 	0.18211 0.04522 0.15290 -0.38400
O 	O 	0.91524 0.08333 0.12538 -0.38300
O 	O 	0.87463 0.02495 0.07058 -0.37400
O 	O 	0.90018 0.94648 0.26143 -0.39200
O 	O 	0.99486 0.95271 0.27721 -0.38000
O 	O 	0.92585 0.83150 0.09928 -0.39200
O 	O 	0.04978 0.94686 0.11834 -0.75800
C 	C 	0.78770 0.88752 0.16669 0.32500
O 	O 	0.80616 0.94547 0.15975 -0.39900
O 	O 	0.82515 0.88149 0.15765 -0.39200
O 	O 	0.07011 0.84659 0.16370 -0.38800
O 	O 	0.08775 0.88827 0.22091 -0.38400
O 	O 	0.09910 0.99445 0.03410 -0.36700
Co	Co	0.09282 0.98890 0.66088 1.18500
Co	Co	0.91212 0.98030 0.62608 1.18500
Co	Co	0.04716 0.04258 0.69732 1.18600
Co	Co	0.96130 0.93488 0.58486 1.18300
C 	C 	0.10307 0.87602 0.70490 0.31600
Co	Co	0.06428 0.91051 0.59266 1.17000
Co	Co	0.93588 0.05110 0.69752 1.17500
O 	O 	0.00590 0.14414 0.66303 -0.38300
O 	O 	0.96808 0.02474 0.66998 -0.76100
C 	C 	0.07237 0.17205 0.67956 0.31100
O 	O 	0.12348 0.03873 0.70829 -0.45600
O 	O 	0.88274 0.93372 0.57673 -0.46300
C 	C 	0.86775 0.06551 0.58759 0.33100
C 	C 	0.19587 0.03936 0.60930 0.32800
C 	C 	0.91713 0.80556 0.59336 0.33200
O 	O 	0.09933 0.14227 0.68944 -0.36300
O 	O 	0.16845 0.97796 0.61755 -0.41000
O 	O 	0.17654 0.05614 0.62759 -0.38500
O 	O 	0.85786 0.04191 0.63320 -0.40400
O 	O 	0.89047 0.04691 0.57491 -0.38400
O 	O 	0.02944 0.99475 0.77089 -0.38300
O 	O 	0.96238 0.83913 0.56679 -0.41200
O 	O 	0.91446 0.83549 0.61253 -0.39900
O 	O 	0.04020 0.95204 0.61200 -0.75500
C 	C 	0.82197 0.91327 0.69864 0.31700
O 	O 	0.87049 0.95363 0.72843 -0.38200
O 	O 	0.83717 0.90471 0.66929 -0.38900
O 	O 	0.06219 0.85117 0.66502 -0.38300
O 	O 	0.09826 0.91226 0.71489 -0.38100
O 	O 	0.06188 0.97305 0.52212 -0.37700
O 	O 	0.96194 0.95835 0.50834 -0.37300
C 	C 	0.98116 0.94579 0.92113 -0.02800
C 	C 	0.97876 0.94774 0.87358 0.03200
C 	C 	0.09234 0.04997 0.87524 -0.01900
C 	C 	0.09436 0.04890 0.92217 0.03100
S 	S 	0.90731 0.88215 0.84534 -0.01400
S 	S 	0.16544 0.11573 0.94931 -0.01100
H 	H 	0.15338 0.16106 0.93190 0.04300
H 	H 	0.91931 0.83731 0.86047 0.04500
H 	H 	0.93910 0.90401 0.93956 0.05300
H 	H 	0.13502 0.09104 0.85731 0.04700
H 	H 	0.14332 0.11244 0.44008 0.05700
H 	H 	0.81904 0.79441 0.35788 0.04800
C 	C 	0.21208 0.46585 0.68711 -0.09600
C 	C 	0.17886 0.40224 0.71758 -0.00500
C 	C 	0.16236 0.38961 0.76072 0.13000
C 	C 	0.18528 0.44140 0.77572 -0.06400
C 	C 	0.22265 0.50551 0.74703 -0.05500
C 	C 	0.23229 0.51700 0.70095 0.16700
C 	C 	0.16157 0.34903 0.70426 0.00600
O 	O 	0.12615 0.32714 0.78925 -0.28000
H 	H 	0.17685 0.43196 0.81091 0.06700
O 	O 	0.26327 0.57875 0.67008 -0.27200
H 	H 	0.22376 0.47596 0.65329 0.08300
C 	C 	0.12025 0.33523 0.65632 0.11800
C 	C 	0.10124 0.28279 0.64521 -0.03500
C 	C 	0.11765 0.24001 0.68305 -0.11300
C 	C 	0.16313 0.25650 0.72960 0.19000
C 	C 	0.18605 0.31167 0.73961 -0.10800
O 	O 	0.09723 0.37211 0.62066 -0.27200
H 	H 	0.06840 0.27193 0.60857 0.07600
O 	O 	0.18308 0.21749 0.76609 -0.28400
H 	H 	0.22051 0.32373 0.77570 0.08200
H 	H 	0.31259 0.59740 0.68002 0.16000
H 	H 	0.05321 0.35089 0.62737 0.14400
H 	H 	0.14934 0.18628 0.78768 0.15200
H 	H 	0.07729 0.31024 0.77404 0.14800
C 	C 	0.50709 0.76275 0.70689 -0.10200
C 	C 	0.56056 0.75825 0.74239 -0.00700
C 	C 	0.55602 0.72496 0.79341 0.13800
C 	C 	0.49775 0.69570 0.80827 -0.06500
C 	C 	0.44406 0.69980 0.77258 -0.06200
C 	C 	0.44961 0.73469 0.72194 0.16400
C 	C 	0.62535 0.79730 0.72777 0.01400
O 	O 	0.60943 0.72296 0.82909 -0.27400
H 	H 	0.49353 0.66840 0.84723 0.06500
O 	O 	0.39686 0.73796 0.68642 -0.27900
H 	H 	0.51071 0.78911 0.66770 0.07200
C 	C 	0.64577 0.76752 0.72236 0.11600
C 	C 	0.70870 0.80585 0.70977 -0.02700
C 	C 	0.75045 0.87381 0.70146 -0.12600
C 	C 	0.72735 0.90332 0.70378 0.20000
C 	C 	0.66598 0.86504 0.71787 -0.11900
O 	O 	0.60555 0.70112 0.73093 -0.27400
H 	H 	0.72586 0.78260 0.70812 0.06100
O 	O 	0.76639 0.96970 0.69445 -0.30800
H 	H 	0.64988 0.88818 0.72117 0.07800
H 	H 	0.40719 0.77777 0.68699 0.15300
H 	H 	0.57461 0.69160 0.69739 0.14800
H 	H 	0.74649 0.98406 0.65862 0.15700
H 	H 	0.59918 0.68249 0.83002 0.15700
C 	C 	0.17933 0.70642 0.74414 -0.09900
C 	C 	0.21391 0.74075 0.78120 -0.00700
C 	C 	0.26714 0.73881 0.82085 0.13900
C 	C 	0.28665 0.70418 0.82244 -0.06500
C 	C 	0.25422 0.67227 0.78405 -0.05600
C 	C 	0.19973 0.67294 0.74503 0.16400
C 	C 	0.19876 0.78386 0.77529 0.01100
O 	O 	0.29999 0.77048 0.85820 -0.27300
H 	H 	0.32816 0.70345 0.85289 0.06900
O 	O 	0.16713 0.64190 0.70729 -0.27400
H 	H 	0.13818 0.70765 0.71353 0.07200
C 	C 	0.23319 0.84855 0.74633 0.11800
C 	C 	0.20835 0.88447 0.73086 -0.03900
C 	C 	0.14737 0.85515 0.74200 -0.11800
C 	C 	0.11933 0.79429 0.77727 0.20200
C 	C 	0.14452 0.75838 0.79333 -0.11200
O 	O 	0.28992 0.87615 0.73192 -0.27400
H 	H 	0.23285 0.93293 0.70615 0.06000
O 	O 	0.06783 0.77011 0.79630 -0.28500
H 	H 	0.12004 0.70984 0.81797 0.08200
H 	H 	0.19299 0.67494 0.68022 0.15600
H 	H 	0.27208 0.86649 0.69861 0.14600
H 	H 	0.02485 0.73947 0.77574 0.16600
H 	H 	0.33924 0.81472 0.84583 0.15700
C 	C 	0.13871 0.37040 0.25670 -0.09200
C 	C 	0.15718 0.37266 0.22002 -0.00500
C 	C 	0.19691 0.43295 0.18800 0.13800
C 	C 	0.22063 0.49034 0.19454 -0.06100
C 	C 	0.20880 0.48872 0.23493 -0.05400
C 	C 	0.16488 0.42824 0.26454 0.16600
C 	C 	0.13660 0.31215 0.21615 0.01300
O 	O 	0.21377 0.43602 0.15094 -0.27500
H 	H 	0.25284 0.53670 0.17063 0.07100
O 	O 	0.15157 0.42560 0.30352 -0.27800
H 	H 	0.10606 0.32399 0.28030 0.07000
C 	C 	0.15991 0.27584 0.25725 0.11200
C 	C 	0.13799 0.21749 0.25369 -0.02500
C 	C 	0.09326 0.19518 0.20926 -0.12900
C 	C 	0.07490 0.23434 0.16679 0.19600
C 	C 	0.09493 0.29156 0.17077 -0.11300
O 	O 	0.20499 0.29786 0.30047 -0.26600
H 	H 	0.15307 0.18800 0.28639 0.05400
H 	H 	0.07762 0.31967 0.13867 0.09000
H 	H 	0.10957 0.42394 0.28821 0.15600
H 	H 	0.17610 0.27631 0.32403 0.14700
H 	H 	0.25753 0.44068 0.16755 0.15600
C 	C 	0.53160 0.67764 0.28278 -0.09500
C 	C 	0.55910 0.73762 0.24698 -0.00500
C 	C 	0.53120 0.77191 0.22854 0.12900
C 	C 	0.47159 0.74274 0.24152 -0.06300
C 	C 	0.44039 0.67998 0.27366 -0.06000
C 	C 	0.47367 0.64971 0.29726 0.16600
C 	C 	0.61539 0.76333 0.22742 0.01000
O 	O 	0.56012 0.83248 0.19590 -0.27500
H 	H 	0.44742 0.76724 0.22411 0.06900
O 	O 	0.44671 0.59053 0.33178 -0.27400
H 	H 	0.55396 0.65178 0.29834 0.08400
C 	C 	0.67979 0.78010 0.26021 0.11600
C 	C 	0.73469 0.81122 0.24024 -0.03400
C 	C 	0.72724 0.83010 0.18748 -0.12300
C 	C 	0.66153 0.80805 0.15523 0.20100
C 	C 	0.60563 0.77385 0.17537 -0.10900
O 	O 	0.68962 0.76768 0.31151 -0.27700
H 	H 	0.78461 0.82590 0.26543 0.06100
O 	O 	0.65229 0.82173 0.10383 -0.28700
H 	H 	0.55543 0.75836 0.15017 0.08600
H 	H 	0.46873 0.60088 0.36538 0.15400
H 	H 	0.70454 0.80720 0.31675 0.14500
H 	H 	0.65744 0.86330 0.08948 0.16300
H 	H 	0.59443 0.86347 0.21807 0.14700
C 	C 	0.11419 0.72221 0.27929 -0.11800
C 	C 	0.18158 0.75512 0.27767 0.00900
C 	C 	0.22618 0.82347 0.26858 0.12300
C 	C 	0.20081 0.85838 0.25501 -0.03700
C 	C 	0.13065 0.82571 0.24844 -0.11800
C 	C 	0.08867 0.75730 0.26484 0.19500
C 	C 	0.20181 0.71918 0.27747 -0.00500
O 	O 	0.29283 0.85650 0.26829 -0.27100
H 	H 	0.23416 0.91110 0.24411 0.05700
O 	O 	0.02161 0.72454 0.26396 -0.28100
H 	H 	0.08029 0.66949 0.28850 0.07600
C 	C 	0.24952 0.70976 0.31893 0.13600
C 	C 	0.27231 0.68037 0.31638 -0.06300
C 	C 	0.24660 0.65885 0.27307 -0.05600
C 	C 	0.19756 0.66686 0.23214 0.16500
C 	C 	0.17516 0.69658 0.23460 -0.09700
O 	O 	0.27527 0.73068 0.36139 -0.27600
H 	H 	0.30996 0.67433 0.34808 0.06900
O 	O 	0.17174 0.64604 0.18958 -0.27800
H 	H 	0.13807 0.70330 0.20267 0.07200
H 	H 	0.99498 0.71450 0.23009 0.15000
H 	H 	0.24366 0.69327 0.38415 0.15100
H 	H 	0.20284 0.68374 0.16654 0.15400
H 	H 	0.31944 0.86242 0.30330 0.16100
C 	C 	0.89006 0.22256 0.52638 -0.11600
C 	C 	0.82535 0.20107 0.52433 0.01200
C 	C 	0.77057 0.13454 0.52867 0.11800
C 	C 	0.78254 0.08953 0.54056 -0.02700
C 	C 	0.84939 0.11016 0.55015 -0.12800
C 	C 	0.90175 0.17726 0.53818 0.19600
C 	C 	0.81711 0.24626 0.52465 -0.00800
O 	O 	0.70591 0.11315 0.52335 -0.26900
H 	H 	0.74113 0.03796 0.54751 0.05500
O 	O 	0.96603 0.19848 0.54276 -0.29200
H 	H 	0.93207 0.27395 0.52143 0.07500
C 	C 	0.83906 0.26190 0.57030 0.13000
C 	C 	0.81991 0.29438 0.57291 -0.06400
C 	C 	0.77865 0.31120 0.53026 -0.05800
C 	C 	0.76089 0.29969 0.48367 0.16500
C 	C 	0.77995 0.26714 0.48108 -0.09300
O 	O 	0.87497 0.24137 0.61333 -0.27900
H 	H 	0.83422 0.30344 0.60881 0.06600
O 	O 	0.72220 0.31751 0.44122 -0.27600
H 	H 	0.76361 0.25598 0.44567 0.07900
H 	H 	0.92392 0.27753 0.61303 0.14200
H 	H 	0.75580 0.36239 0.42418 0.15100
H 	H 	0.70324 0.10338 0.55802 0.15100
C 	C 	0.88009 0.64282 0.64883 -0.11700
C 	C 	0.83972 0.61836 0.60520 0.01400
C 	C 	0.80782 0.64673 0.56378 0.11400
C 	C 	0.82472 0.70471 0.56332 -0.02600
C 	C 	0.87310 0.73430 0.60405 -0.13100
C 	C 	0.89483 0.69953 0.64886 0.19800
C 	C 	0.83152 0.56370 0.60269 -0.00300
O 	O 	0.75926 0.61726 0.52437 -0.26500
H 	H 	0.80465 0.72940 0.52955 0.05300
H 	H 	0.90165 0.61909 0.68210 0.07600
C 	C 	0.86047 0.57342 0.56909 0.13400
C 	C 	0.84191 0.51959 0.56018 -0.06200
C 	C 	0.79535 0.45628 0.58516 -0.05800
C 	C 	0.77514 0.44756 0.62433 0.16800
C 	C 	0.79186 0.50103 0.63209 -0.09500
O 	O 	0.90794 0.63525 0.54597 -0.27700
H 	H 	0.86030 0.52701 0.53159 0.06700
O 	O 	0.73431 0.38616 0.65219 -0.27600
H 	H 	0.77197 0.49347 0.65972 0.07600
H 	H 	0.90331 0.70507 0.71093 0.15200
H 	H 	0.88182 0.64571 0.51187 0.14500
H 	H 	0.76650 0.37802 0.68199 0.15100
H 	H 	0.78398 0.63930 0.49764 0.14400
C 	C 	0.31648 0.12410 0.52790 -0.11400
C 	C 	0.37851 0.16722 0.55630 0.01300
C 	C 	0.37899 0.17451 0.59843 0.11500
C 	C 	0.31779 0.13615 0.61333 -0.02600
C 	C 	0.25632 0.08943 0.58706 -0.12600
C 	C 	0.25566 0.08465 0.54339 0.19600
C 	C 	0.44327 0.20081 0.54426 -0.00400
O 	O 	0.43917 0.21897 0.62508 -0.26500
H 	H 	0.31878 0.14052 0.64673 0.06200
O 	O 	0.19557 0.04135 0.51586 -0.29200
H 	H 	0.31576 0.11933 0.49483 0.07900
C 	C 	0.47831 0.17236 0.56796 0.13300
C 	C 	0.54223 0.20663 0.55909 -0.06100
C 	C 	0.57211 0.26981 0.52750 -0.05600
C 	C 	0.53425 0.29575 0.50044 0.16800
C 	C 	0.47033 0.26148 0.50928 -0.09300
O 	O 	0.45022 0.11120 0.59989 -0.27500
H 	H 	0.57049 0.18580 0.57936 0.06900
O 	O 	0.56159 0.35636 0.46769 -0.27400
H 	H 	0.44256 0.28274 0.48984 0.08000
H 	H 	0.19358 0.00151 0.52952 0.14500
H 	H 	0.46741 0.11806 0.63426 0.14800
H 	H 	0.54648 0.34865 0.43408 0.15400
H 	H 	0.45819 0.19486 0.65236 0.14700
C 	C 	0.75985 0.11242 0.02467 -0.11000
C 	C 	0.80645 0.18039 0.01038 0.00600
C 	C 	0.87089 0.20776 0.00619 0.12800
C 	C 	0.89122 0.16786 0.02223 -0.02900
C 	C 	0.84788 0.10078 0.04300 -0.11800
C 	C 	0.78002 0.07256 0.04011 0.18900
C 	C 	0.79099 0.22258 0.00618 0.00600
O 	O 	0.91584 0.27386 0.98983 -0.27600
H 	H 	0.94287 0.18987 0.02266 0.06400
O 	O 	0.73572 0.00666 0.05776 -0.29100
H 	H 	0.70938 0.09069 0.02667 0.07400
C 	C 	0.73751 0.22492 0.96715 0.12400
C 	C 	0.71827 0.25899 0.96700 -0.06900
C 	C 	0.75184 0.29071 0.00571 -0.05000
C 	C 	0.80703 0.29047 0.04363 0.16600
C 	C 	0.82657 0.25674 0.04362 -0.09500
O 	O 	0.70478 0.19491 0.92870 -0.27400
H 	H 	0.67607 0.25938 0.93744 0.06600
O 	O 	0.84141 0.32244 0.08108 -0.27700
H 	H 	0.86808 0.25553 0.07363 0.08000
H 	H 	0.71152 0.98849 0.02770 0.15500
H 	H 	0.66448 0.15086 0.93993 0.14600
H 	H 	0.81682 0.28991 0.10890 0.15500
H 	H 	0.90609 0.28239 0.95243 0.15200
C 	C 	0.91754 0.66789 0.08311 -0.11700
C 	C 	0.84705 0.62834 0.06352 0.01300
C 	C 	0.80555 0.64384 0.05836 0.11900
C 	C 	0.83603 0.70174 0.06913 -0.03000
C 	C 	0.90759 0.74383 0.08536 -0.12200
C 	C 	0.94767 0.72422 0.09523 0.19600
C 	C 	0.81738 0.57020 0.04939 0.00400
O 	O 	0.73555 0.60201 0.04414 -0.27000
H 	H 	0.80437 0.71535 0.06231 0.06200
H 	H 	0.94949 0.65533 0.08842 0.07800
C 	C 	0.79761 0.57060 0.99789 0.12600
C 	C 	0.77773 0.51868 0.98507 -0.07100
C 	C 	0.77832 0.46665 0.02328 -0.05100
C 	C 	0.80373 0.46925 0.07450 0.16400
C 	C 	0.82103 0.51965 0.08743 -0.10000
O 	O 	0.80045 0.62282 0.96015 -0.27600
H 	H 	0.75899 0.51753 0.94545 0.06500
O 	O 	0.80687 0.41985 0.11226 -0.27700
H 	H 	0.83868 0.52015 0.12712 0.07400
H 	H 	0.02579 0.74199 0.14962 0.15500
H 	H 	0.75338 0.61054 0.94916 0.14500
H 	H 	0.85317 0.43330 0.11752 0.15900
H 	H 	0.72354 0.61845 0.00685 0.14900
C 	C 	0.36229 0.17789 0.08045 -0.11300
C 	C 	0.40626 0.15885 0.10698 0.01000
C 	C 	0.39338 0.10861 0.15175 0.11900
C 	C 	0.33428 0.07478 0.16744 -0.02500
C 	C 	0.28579 0.08811 0.13714 -0.12900
C 	C 	0.30205 0.14262 0.09543 0.19800
C 	C 	0.46448 0.19016 0.08712 -0.00200
O 	O 	0.43762 0.09147 0.17947 -0.26900
H 	H 	0.32312 0.03425 0.20075 0.05900
O 	O 	0.25638 0.15793 0.06667 -0.28900
H 	H 	0.37340 0.21829 0.04706 0.07500
C 	C 	0.45316 0.18222 0.04082 0.12600
C 	C 	0.50901 0.21352 0.02186 -0.05100
C 	C 	0.57601 0.25274 0.04881 -0.06300
C 	C 	0.58715 0.25748 0.09648 0.17000
C 	C 	0.53152 0.22674 0.11518 -0.09700
O 	O 	0.38773 0.14270 0.01477 -0.26400
H 	H 	0.50014 0.20911 0.98542 0.05700
O 	O 	0.65258 0.29206 0.12488 -0.27300
H 	H 	0.54052 0.23187 0.15134 0.08200
H 	H 	0.26928 0.18914 0.08196 0.15600
H 	H 	0.37383 0.17186 0.99022 0.14100
H 	H 	0.66523 0.33617 0.11634 0.16200
H 	H 	0.42089 0.05758 0.16510 0.15600
C 	C 	0.04419 0.98872 0.99914 0.27100
O 	O 	0.00835 0.98886 0.13635 -0.57800
C 	C 	0.00370 0.96408 0.49216 0.29500
O 	O 	0.01261 0.00678 0.62983 -0.57800
C 	C 	0.02125 0.01796 0.79289 0.29800
C 	C 	0.03833 0.99651 0.94555 -0.05900
C 	C 	0.03354 0.00143 0.84929 -0.06800
O 	O 	0.93551 0.72395 0.69121 -0.29300
O 	O 	0.01733 0.76291 0.11289 -0.30200
C 	C 	0.95689 0.95292 0.29224 0.28800
H 	H 	0.96623 0.20364 0.50864 0.15500
C 	C 	0.94237 0.90181 0.42711 -0.02600
C 	C 	0.93706 0.89742 0.38127 0.03800
S 	S 	0.88693 0.82013 0.37062 -0.03000
H 	H 	0.91448 0.85768 0.45456 0.04800
H 	H 	0.04808 0.05890 0.33091 0.04900
S 	S 	0.07853 0.09637 0.41599 -0.03100
O 	O 	0.00981 0.06214 0.76542 -0.40000
C 	C 	0.01891 0.01486 0.35776 -0.02500
C 	C 	0.02444 0.01924 0.40365 0.04600
O 	O 	0.03407 0.21486 0.12221 -0.28500
H 	H 	0.06618 0.23411 0.10225 0.15500
C 	C 	0.98604 0.96242 0.43883 -0.07500
O 	O 	0.99381 0.85735 0.05770 -0.39700
O 	O 	0.99277 0.97313 0.01131 -0.36100
C 	C 	0.97450 0.95437 0.34570 -0.07300
