data_crystal

_cell_length_a 30.73266
_cell_length_b 31.02123
_cell_length_c 30.88748
_cell_angle_alpha 95.54797
_cell_angle_beta  95.52274
_cell_angle_gamma 125.53525

_symmetry_space_group_name_	'P 1'
_symmetry_space_group_name_H-M	'P 1'

loop_
_symmetry_equiv_pos_as_xyz
  x,y,z

loop_
_atom_site_label
_atom_site_type_symbol
_atom_site_fract_x
_atom_site_fract_y
_atom_site_fract_z
_atom_site_charge
N 	N 	0.03057 0.97789 0.99086 -0.14300
C 	C 	0.06072 0.03152 0.99028 0.11900
N 	N 	0.03739 0.05760 0.99290 -0.14300
C 	C 	0.01634 0.99911 0.44205 0.11600
C 	C 	0.07564 0.03036 0.44415 -0.02200
C 	C 	0.10200 0.07172 0.41962 -0.01900
C 	C 	0.10598 0.01826 0.47012 -0.01900
H 	H 	0.07906 0.08121 0.39919 0.04000
H 	H 	0.08630 0.98691 0.48961 0.04000
C 	C 	0.11868 0.06121 0.98733 -0.02500
C 	C 	0.15112 0.04984 0.01101 -0.01500
C 	C 	0.14093 0.09846 0.95882 -0.01900
H 	H 	0.13462 0.02169 0.03352 0.04100
H 	H 	0.11625 0.10741 0.94024 0.04000
C 	C 	0.15797 0.10029 0.42076 -0.04900
C 	C 	0.18808 0.08782 0.44645 0.01300
C 	C 	0.16190 0.04686 0.47124 -0.04900
H 	H 	0.17785 0.13179 0.40143 0.04300
H 	H 	0.18493 0.03727 0.49144 0.04200
C 	C 	0.20480 0.07444 0.00546 -0.04400
C 	C 	0.19470 0.12301 0.95320 -0.04800
N 	N 	0.99147 0.02354 0.43859 -0.14100
N 	N 	0.98650 0.94583 0.44380 -0.14100
C 	C 	0.98412 0.03002 0.99629 0.13300
N 	N 	0.95413 0.97640 0.99682 -0.14200
C 	C 	0.97739 0.95038 0.99407 0.13200
C 	C 	0.93693 0.99491 0.43715 0.11700
C 	C 	0.93205 0.91699 0.44251 0.11800
N 	N 	0.90726 0.94160 0.43939 -0.14000
Cu	Cu	0.65299 0.25537 0.99986 0.92600
Cu	Cu	0.70183 0.26136 0.90875 0.87000
Cu	Cu	0.69141 0.34614 0.94715 0.89600
Cu	Cu	0.65372 0.35527 0.03125 0.89500
C 	C 	0.66390 0.29161 0.09219 0.28100
O 	O 	0.57317 0.22430 0.99509 -0.36500
C 	C 	0.68061 0.31522 0.85043 0.28300
O 	O 	0.69859 0.33989 0.00797 -0.63800
O 	O 	0.65143 0.26605 0.93771 -0.64100
O 	O 	0.68572 0.21560 0.99744 -0.37600
O 	O 	0.74968 0.27307 0.95975 -0.44300
O 	O 	0.63993 0.31395 0.08034 -0.38100
O 	O 	0.73348 0.42385 0.96091 -0.38400
C 	C 	0.72463 0.45143 0.98937 0.28800
C 	C 	0.55400 0.24902 0.97893 0.30200
O 	O 	0.58752 0.29995 0.97613 -0.39600
O 	O 	0.68764 0.42768 0.01468 -0.39200
O 	O 	0.66586 0.25918 0.06268 -0.35700
C 	C 	0.73293 0.23679 0.98513 0.29000
O 	O 	0.69778 0.35391 0.88480 -0.38600
O 	O 	0.67222 0.26944 0.85565 -0.41900
H 	H 	0.73663 0.36186 0.02434 0.16400
H 	H 	0.61464 0.24581 0.91922 0.17200
Cu	Cu	0.72087 0.33559 0.44273 0.92800
Cu	Cu	0.71831 0.28671 0.53308 0.87100
Cu	Cu	0.63025 0.29450 0.49687 0.89700
Cu	Cu	0.61858 0.33294 0.41408 0.89500
C 	C 	0.68748 0.33241 0.35121 0.28400
O 	O 	0.75110 0.41460 0.44868 -0.36300
C 	C 	0.66358 0.30456 0.59311 0.28300
O 	O 	0.63580 0.28899 0.43564 -0.64100
O 	O 	0.71128 0.33597 0.50525 -0.64000
O 	O 	0.76217 0.30413 0.44297 -0.37300
O 	O 	0.70622 0.24035 0.48126 -0.44400
O 	O 	0.66026 0.35059 0.36446 -0.38300
O 	O 	0.55160 0.25126 0.48403 -0.38300
C 	C 	0.52272 0.25793 0.45474 0.30800
C 	C 	0.72530 0.43255 0.46498 0.30100
O 	O 	0.67465 0.39814 0.46928 -0.39400
O 	O 	0.54592 0.29737 0.43198 -0.39500
O 	O 	0.71545 0.32380 0.37971 -0.35900
C 	C 	0.74255 0.25786 0.45566 0.30800
O 	O 	0.62372 0.28693 0.55929 -0.38400
O 	O 	0.71029 0.31471 0.58693 -0.41900
H 	H 	0.61411 0.25158 0.41872 0.16500
H 	H 	0.73116 0.37222 0.52399 0.17300
C 	C 	0.65254 0.30435 0.63845 -0.07500
C 	C 	0.60489 0.25911 0.64792 0.00300
C 	C 	0.59872 0.25406 0.69182 -0.05800
C 	C 	0.64003 0.29441 0.72673 0.01200
C 	C 	0.68638 0.34170 0.71732 0.01200
C 	C 	0.69244 0.34641 0.67315 -0.02000
C 	C 	0.72713 0.38256 0.75224 -0.05900
C 	C 	0.72350 0.37519 0.79605 0.00400
C 	C 	0.67930 0.32678 0.80540 -0.07500
C 	C 	0.63678 0.28712 0.77080 -0.02000
H 	H 	0.57368 0.22671 0.62131 0.03500
H 	H 	0.56251 0.21810 0.69864 0.04100
H 	H 	0.72883 0.38180 0.66581 0.03800
H 	H 	0.76235 0.41944 0.74546 0.04100
H 	H 	0.75624 0.40620 0.82260 0.03300
H 	H 	0.60215 0.25011 0.77808 0.03800
C 	C 	0.69809 0.33534 0.30585 -0.06700
C 	C 	0.72255 0.38459 0.29119 0.00700
C 	C 	0.72546 0.38659 0.24653 -0.05700
C 	C 	0.70345 0.33919 0.21590 0.01400
C 	C 	0.68119 0.28986 0.23077 0.01500
C 	C 	0.67907 0.28828 0.27593 -0.02100
C 	C 	0.65902 0.24244 0.19997 -0.05700
C 	C 	0.65619 0.24347 0.15461 0.00800
C 	C 	0.67566 0.29193 0.13963 -0.06900
C 	C 	0.70100 0.34000 0.17042 -0.02100
H 	H 	0.73807 0.42119 0.31432 0.03700
H 	H 	0.74343 0.42476 0.23558 0.04200
H 	H 	0.66061 0.25030 0.28738 0.03700
H 	H 	0.64254 0.20452 0.21100 0.04400
H 	H 	0.63691 0.20622 0.13107 0.04200
H 	H 	0.71685 0.37758 0.15886 0.03000
C 	C 	0.90003 0.85896 0.44358 -0.02200
C 	C 	0.90893 0.82611 0.41747 -0.01900
C 	C 	0.88307 0.77236 0.42174 -0.04900
C 	C 	0.84815 0.75092 0.45222 0.01300
C 	C 	0.83818 0.78329 0.47765 -0.04900
C 	C 	0.86388 0.83710 0.47322 -0.02000
C 	C 	0.82273 0.69481 0.45783 0.00700
C 	C 	0.84046 0.68419 0.49624 -0.04300
C 	C 	0.82042 0.63120 0.49954 -0.03100
C 	C 	0.78251 0.58860 0.46453 -0.00900
C 	C 	0.76377 0.59903 0.42666 -0.03100
C 	C 	0.78380 0.65194 0.42331 -0.04300
C 	C 	0.76380 0.53428 0.46673 0.04500
C 	C 	0.74704 0.48820 0.46694 -0.11100
H 	H 	0.93642 0.84243 0.39426 0.04000
H 	H 	0.89078 0.74757 0.40183 0.04300
H 	H 	0.81099 0.76695 0.50107 0.04200
H 	H 	0.85683 0.86212 0.49364 0.03800
H 	H 	0.87060 0.71706 0.52303 0.04100
H 	H 	0.83494 0.62342 0.52899 0.03800
H 	H 	0.73425 0.56625 0.39957 0.03800
H 	H 	0.76982 0.65973 0.39358 0.04100
C 	C 	0.91023 0.02178 0.43329 -0.02100
C 	C 	0.92708 0.06102 0.40656 -0.01900
C 	C 	0.90522 0.08991 0.40580 -0.04800
C 	C 	0.86639 0.07993 0.43178 0.01300
C 	C 	0.84830 0.03963 0.45748 -0.04900
C 	C 	0.87003 0.01059 0.45817 -0.02000
C 	C 	0.84698 0.11370 0.43401 0.00800
C 	C 	0.86093 0.14911 0.47346 -0.04400
C 	C 	0.84222 0.18081 0.47581 -0.03100
C 	C 	0.80943 0.17736 0.43878 -0.01200
C 	C 	0.79602 0.14254 0.39913 -0.03000
C 	C 	0.81484 0.11086 0.39670 -0.04400
C 	C 	0.78643 0.20663 0.44260 0.04700
C 	C 	0.76675 0.23053 0.44749 -0.12100
H 	H 	0.95752 0.06954 0.38675 0.04000
H 	H 	0.91929 0.12080 0.38575 0.04300
H 	H 	0.81809 0.03145 0.47746 0.04100
H 	H 	0.85669 0.98048 0.47894 0.03900
H 	H 	0.88609 0.15191 0.50232 0.04000
H 	H 	0.85263 0.20752 0.50661 0.03300
H 	H 	0.77050 0.13948 0.37040 0.03900
H 	H 	0.80402 0.08378 0.36604 0.04100
C 	C 	0.24699 0.11759 0.44735 0.00700
C 	C 	0.26776 0.09038 0.43133 -0.04300
C 	C 	0.32374 0.11846 0.43286 -0.03100
C 	C 	0.35925 0.17385 0.45037 -0.00800
C 	C 	0.33858 0.20112 0.46626 -0.03100
C 	C 	0.28263 0.17310 0.46478 -0.04300
C 	C 	0.41686 0.20283 0.45185 0.04600
C 	C 	0.46517 0.22761 0.45314 -0.10800
H 	H 	0.24054 0.04756 0.41769 0.04100
H 	H 	0.33945 0.09716 0.42043 0.03800
H 	H 	0.36583 0.24397 0.47982 0.04000
H 	H 	0.26700 0.19440 0.47738 0.04100
C 	C 	0.75327 0.50964 0.99011 -0.09200
C 	C 	0.72825 0.53433 0.00101 0.01800
C 	C 	0.75537 0.58946 0.00180 -0.06300
C 	C 	0.80770 0.62047 0.99169 0.02400
C 	C 	0.83274 0.59593 0.98072 -0.06700
C 	C 	0.80567 0.54076 0.97992 0.01500
C 	C 	0.83635 0.67867 0.99282 -0.00500
C 	C 	0.88444 0.71629 0.02381 -0.03200
C 	C 	0.91166 0.77150 0.02483 -0.03700
C 	C 	0.89096 0.78942 0.99494 0.00900
C 	C 	0.84275 0.75195 0.96416 -0.04100
C 	C 	0.81548 0.69671 0.96310 -0.03500
C 	C 	0.92037 0.84616 0.99472 0.00500
C 	C 	0.94585 0.89373 0.99447 -0.04200
H 	H 	0.68765 0.51076 0.00851 0.03300
H 	H 	0.73578 0.60812 0.01038 0.04700
H 	H 	0.87314 0.61959 0.97279 0.04500
H 	H 	0.82560 0.52234 0.97174 0.03100
H 	H 	0.90067 0.70274 0.04705 0.03800
H 	H 	0.94898 0.80029 0.04866 0.04200
H 	H 	0.82662 0.76555 0.94088 0.04200
H 	H 	0.77840 0.66794 0.93905 0.03800
C 	C 	0.76505 0.21674 0.99659 -0.10300
C 	C 	0.82191 0.25084 0.00047 0.02500
C 	C 	0.85180 0.23017 0.00519 -0.07200
C 	C 	0.82516 0.17522 0.00606 0.02700
C 	C 	0.76869 0.14163 0.00433 -0.06400
C 	C 	0.73876 0.16232 0.99973 0.01100
C 	C 	0.85576 0.15217 0.00564 0.00200
C 	C 	0.85877 0.12771 0.04059 -0.03600
C 	C 	0.88650 0.10453 0.03943 -0.04100
C 	C 	0.91138 0.10571 0.00338 0.01500
C 	C 	0.90888 0.13058 0.96868 -0.04500
C 	C 	0.88115 0.15371 0.96977 -0.04000
C 	C 	0.93778 0.07971 0.00119 0.01200
C 	C 	0.95933 0.05740 0.99904 -0.04800
H 	H 	0.84283 0.29313 0.99893 0.02200
H 	H 	0.89550 0.25659 0.00719 0.04700
H 	H 	0.74779 0.09918 0.00518 0.04600
H 	H 	0.69495 0.13559 0.99693 0.03100
H 	H 	0.83949 0.12649 0.06849 0.04000
H 	H 	0.88826 0.08533 0.06636 0.04300
H 	H 	0.92794 0.13155 0.94068 0.04100
H 	H 	0.87886 0.17230 0.94254 0.03600
C 	C 	0.22662 0.11060 0.97614 0.00900
C 	C 	0.28291 0.13544 0.96960 0.00800
C 	C 	0.32263 0.19133 0.98259 -0.04400
C 	C 	0.37709 0.21415 0.98075 -0.03000
C 	C 	0.39217 0.18127 0.96593 -0.01000
C 	C 	0.35231 0.12570 0.95148 -0.03000
C 	C 	0.29780 0.10283 0.95320 -0.04400
C 	C 	0.44888 0.20396 0.96891 0.04600
C 	C 	0.49669 0.22385 0.97272 -0.11300
H 	H 	0.22941 0.06525 0.02381 0.04300
H 	H 	0.21129 0.15107 0.93063 0.04200
H 	H 	0.31155 0.21684 0.99524 0.04000
H 	H 	0.40772 0.25718 0.99188 0.03700
H 	H 	0.36365 0.10006 0.93985 0.03800
H 	H 	0.26733 0.05969 0.94272 0.04000
