data_crystal

_cell_length_a 30.17875
_cell_length_b 30.38245
_cell_length_c 36.70800
_cell_angle_alpha 95.52325
_cell_angle_beta  95.52655
_cell_angle_gamma 125.60415

_symmetry_space_group_name_	'P 1'
_symmetry_space_group_name_H-M	'P 1'

loop_
_symmetry_equiv_pos_as_xyz
  x,y,z

loop_
_atom_site_label
_atom_site_type_symbol
_atom_site_fract_x
_atom_site_fract_y
_atom_site_fract_z
_atom_site_charge
C 	C 	0.97069 0.02475 0.98823 0.10900
N 	N 	0.93921 0.96951 0.98729 -0.13900
C 	C 	0.96279 0.94271 0.98677 0.11600
N 	N 	0.01801 0.97127 0.98698 -0.13700
C 	C 	0.04964 0.02635 0.98733 0.11700
N 	N 	0.02589 0.05304 0.98810 -0.13800
C 	C 	0.94571 0.00111 0.45124 0.11100
N 	N 	0.00140 0.03329 0.45247 -0.13800
C 	C 	0.02985 0.01151 0.45564 0.11700
N 	N 	0.00239 0.95734 0.45748 -0.13700
C 	C 	0.94681 0.92503 0.45668 0.11500
N 	N 	0.91855 0.94706 0.45357 -0.13900
Cu	Cu	0.64105 0.24944 0.00045 0.92600
Cu	Cu	0.68555 0.25028 0.92220 0.87000
Cu	Cu	0.67849 0.33943 0.95391 0.89800
Cu	Cu	0.64661 0.35436 0.02656 0.89300
C 	C 	0.65740 0.28992 0.07829 0.30400
O 	O 	0.56073 0.22005 0.99862 -0.36100
C 	C 	0.66021 0.30239 0.87252 0.30700
O 	O 	0.68918 0.33558 0.00544 -0.64300
O 	O 	0.63649 0.25764 0.94771 -0.64100
O 	O 	0.67229 0.20700 0.99788 -0.37200
O 	O 	0.73599 0.26286 0.96424 -0.44100
O 	O 	0.63427 0.31409 0.06890 -0.38700
O 	O 	0.72330 0.41907 0.96348 -0.38200
C 	C 	0.72052 0.44975 0.98991 0.29400
C 	C 	0.54146 0.24555 0.98498 0.28400
O 	O 	0.57608 0.29737 0.98195 -0.39100
O 	O 	0.68230 0.42748 0.01104 -0.39900
O 	O 	0.65735 0.25559 0.05327 -0.36300
C 	C 	0.71957 0.22714 0.98662 0.28800
O 	O 	0.68042 0.34370 0.90065 -0.38800
O 	O 	0.65352 0.25664 0.87749 -0.42200
H 	H 	0.72853 0.35758 0.01800 0.16200
H 	H 	0.59841 0.23692 0.93304 0.17200
Cu	Cu	0.73301 0.34185 0.45531 0.92800
Cu	Cu	0.73107 0.29766 0.53368 0.87000
Cu	Cu	0.64159 0.30447 0.50126 0.89700
Cu	Cu	0.62731 0.33596 0.42837 0.89300
C 	C 	0.69299 0.32550 0.37729 0.30400
O 	O 	0.76253 0.42165 0.45692 -0.36200
C 	C 	0.67761 0.32203 0.58285 0.30700
O 	O 	0.64617 0.29385 0.44987 -0.64100
O 	O 	0.72404 0.34641 0.50794 -0.64100
O 	O 	0.77614 0.31113 0.45835 -0.37400
O 	O 	0.71930 0.24799 0.49177 -0.44200
O 	O 	0.66847 0.34838 0.38638 -0.38700
O 	O 	0.56133 0.25971 0.49123 -0.38200
C 	C 	0.53069 0.26213 0.46436 0.29000
C 	C 	0.73644 0.44069 0.46994 0.28400
O 	O 	0.68429 0.40614 0.47297 -0.39200
O 	O 	0.55341 0.30038 0.44347 -0.39600
O 	O 	0.72737 0.32563 0.40255 -0.36200
C 	C 	0.75635 0.26461 0.47021 0.28900
O 	O 	0.63655 0.30271 0.55448 -0.38800
O 	O 	0.72400 0.32928 0.57811 -0.42200
H 	H 	0.62418 0.25476 0.43735 0.16300
H 	H 	0.74470 0.38424 0.52257 0.17200
C 	C 	0.64844 0.32518 0.76531 -0.00600
C 	C 	0.69303 0.37257 0.75519 -0.03500
C 	C 	0.69542 0.37539 0.71754 -0.03500
C 	C 	0.65322 0.33083 0.68987 -0.00600
C 	C 	0.60708 0.28480 0.70000 -0.03500
C 	C 	0.60470 0.28197 0.73764 -0.03500
C 	C 	0.65112 0.31791 0.80346 0.04400
C 	C 	0.65458 0.31114 0.83515 -0.11100
C 	C 	0.66081 0.32913 0.65175 0.04400
C 	C 	0.66805 0.32656 0.62011 -0.11100
H 	H 	0.72689 0.40626 0.77642 0.03900
H 	H 	0.73112 0.41122 0.70995 0.03900
H 	H 	0.57416 0.25028 0.67877 0.03900
H 	H 	0.56995 0.24530 0.74524 0.03800
C 	C 	0.69446 0.29792 0.26660 -0.00500
C 	C 	0.73742 0.33989 0.25148 -0.03400
C 	C 	0.73295 0.33559 0.21281 -0.03500
C 	C 	0.68552 0.28929 0.18911 -0.00500
C 	C 	0.64380 0.24613 0.20423 -0.03400
C 	C 	0.64825 0.25044 0.24290 -0.03500
C 	C 	0.69476 0.30639 0.30594 0.04300
C 	C 	0.69430 0.31452 0.33866 -0.10400
C 	C 	0.67682 0.28884 0.14976 0.04300
C 	C 	0.66853 0.28906 0.11700 -0.10400
H 	H 	0.77335 0.37667 0.26962 0.04100
H 	H 	0.76547 0.36906 0.20133 0.03800
H 	H 	0.60708 0.21011 0.18609 0.04100
H 	H 	0.61494 0.21774 0.25438 0.03800
C 	C 	0.91726 0.86606 0.45914 -0.02400
C 	C 	0.94703 0.84690 0.47292 -0.01600
C 	C 	0.91963 0.79091 0.47364 -0.05800
C 	C 	0.86188 0.75350 0.46151 0.03300
C 	C 	0.83206 0.77256 0.44802 -0.05800
C 	C 	0.85948 0.82848 0.44687 -0.01600
C 	C 	0.83295 0.69362 0.45975 -0.04700
C 	C 	0.84389 0.67414 0.48795 -0.05600
C 	C 	0.81606 0.61441 0.48522 0.04800
C 	C 	0.75793 0.57704 0.47705 -0.07700
C 	C 	0.73191 0.52043 0.47304 0.01900
C 	C 	0.76375 0.50058 0.47732 -0.09300
C 	C 	0.82184 0.53816 0.48688 0.02000
C 	C 	0.84782 0.59484 0.49103 -0.07700
H 	H 	0.99147 0.87524 0.48279 0.03800
H 	H 	0.94348 0.77652 0.48294 0.04300
H 	H 	0.78763 0.74394 0.43811 0.04300
H 	H 	0.83589 0.84232 0.43587 0.04000
H 	H 	0.80103 0.66501 0.43558 0.04200
H 	H 	0.87539 0.70244 0.51235 0.04300
H 	H 	0.73295 0.59184 0.47350 0.04800
H 	H 	0.68706 0.49200 0.46582 0.02600
H 	H 	0.84688 0.52351 0.49087 0.02900
H 	H 	0.89267 0.62346 0.49803 0.04700
C 	C 	0.77907 0.23345 0.46202 -0.09900
C 	C 	0.81923 0.25106 0.43927 0.01900
C 	C 	0.84347 0.22384 0.43385 -0.07800
C 	C 	0.82738 0.17835 0.45066 0.04700
C 	C 	0.78674 0.16024 0.47297 -0.07800
C 	C 	0.76240 0.18727 0.47835 0.01500
C 	C 	0.85693 0.15315 0.44767 -0.05600
C 	C 	0.82902 0.09807 0.44072 -0.04700
C 	C 	0.85871 0.07291 0.44282 0.03100
C 	C 	0.84164 0.03052 0.46313 -0.05700
C 	C 	0.86972 0.00679 0.46568 -0.02100
C 	C 	0.91491 0.02491 0.44760 -0.02300
C 	C 	0.93108 0.06639 0.42644 -0.01700
C 	C 	0.90292 0.09004 0.42387 -0.05700
H 	H 	0.83227 0.28623 0.42618 0.03800
H 	H 	0.87510 0.23842 0.41683 0.04800
H 	H 	0.77498 0.12608 0.48692 0.04500
H 	H 	0.73145 0.17296 0.49589 0.02200
H 	H 	0.90194 0.17994 0.45137 0.04200
H 	H 	0.78396 0.07138 0.43655 0.04000
H 	H 	0.85682 0.97490 0.48212 0.04200
H 	H 	0.96516 0.08002 0.41175 0.03700
H 	H 	0.91527 0.12143 0.40705 0.04300
C 	C 	0.09053 0.04671 0.45761 -0.02500
C 	C 	0.11560 0.09121 0.43867 -0.01400
C 	C 	0.17299 0.12408 0.44024 -0.05900
C 	C 	0.20576 0.11242 0.46034 0.03400
C 	C 	0.18092 0.06856 0.47981 -0.05800
C 	C 	0.12360 0.03576 0.47834 -0.01500
C 	C 	0.26645 0.14791 0.46231 -0.04800
C 	C 	0.29321 0.12591 0.45490 -0.05500
C 	C 	0.35407 0.16124 0.45740 0.04700
C 	C 	0.38578 0.14698 0.47559 -0.07700
C 	C 	0.44327 0.17966 0.47773 0.01900
C 	C 	0.46969 0.22695 0.46150 -0.09000
C 	C 	0.43762 0.24048 0.44254 0.01800
C 	C 	0.38013 0.20758 0.44026 -0.07600
H 	H 	0.09064 0.10004 0.42245 0.03900
H 	H 	0.19191 0.15828 0.42554 0.04300
H 	H 	0.20607 0.06022 0.49635 0.04400
H 	H 	0.10502 0.00222 0.49364 0.03800
H 	H 	0.28909 0.19240 0.46851 0.04200
H 	H 	0.27047 0.08138 0.44878 0.04300
H 	H 	0.36591 0.11070 0.48828 0.04700
H 	H 	0.46717 0.16804 0.49186 0.03200
H 	H 	0.45715 0.27654 0.42965 0.03200
H 	H 	0.35583 0.21791 0.42497 0.04700
C 	C 	0.75520 0.51011 0.99200 -0.08700
C 	C 	0.80415 0.53662 0.97726 0.01900
C 	C 	0.83613 0.59346 0.97831 -0.07600
C 	C 	0.81945 0.62436 0.99390 0.05000
C 	C 	0.77151 0.59828 0.00970 -0.08000
C 	C 	0.73933 0.54144 0.00850 0.01500
C 	C 	0.85366 0.68444 0.99490 -0.05000
C 	C 	0.83035 0.70888 0.98437 -0.05000
C 	C 	0.86466 0.76884 0.98511 0.03900
C 	C 	0.85010 0.80061 0.00256 -0.06400
C 	C 	0.88202 0.85733 0.00310 -0.01800
C 	C 	0.92850 0.88269 0.98574 -0.02200
C 	C 	0.94234 0.85056 0.96758 -0.01500
C 	C 	0.91047 0.79391 0.96716 -0.05900
H 	H 	0.81754 0.51328 0.96508 0.03200
H 	H 	0.87366 0.61341 0.96673 0.04700
H 	H 	0.75927 0.62205 0.02300 0.04700
H 	H 	0.70192 0.52179 0.02019 0.03200
H 	H 	0.89853 0.70844 0.00257 0.03800
H 	H 	0.78550 0.68495 0.97660 0.04400
H 	H 	0.81439 0.78147 0.01606 0.04300
H 	H 	0.87095 0.88158 0.01733 0.03800
H 	H 	0.97744 0.86935 0.95349 0.03700
H 	H 	0.92109 0.76944 0.95263 0.04400
C 	C 	0.75268 0.20729 0.99723 -0.09200
C 	C 	0.72779 0.15654 0.00914 0.01200
C 	C 	0.75776 0.13529 0.01553 -0.07500
C 	C 	0.81257 0.16423 0.00973 0.04200
C 	C 	0.83838 0.21618 0.99968 -0.07200
C 	C 	0.80860 0.23758 0.99342 0.01300
C 	C 	0.84258 0.13969 0.01383 -0.06100
C 	C 	0.86555 0.13378 0.98591 -0.04200
C 	C 	0.89414 0.10758 0.98904 0.03200
C 	C 	0.94391 0.13019 0.97584 -0.05500
C 	C 	0.96924 0.10362 0.97595 -0.02500
C 	C 	0.94488 0.05387 0.98918 -0.01600
C 	C 	0.89512 0.03140 0.00261 -0.02700
C 	C 	0.86959 0.05775 0.00214 -0.05800
H 	H 	0.68489 0.13288 0.01255 0.03500
H 	H 	0.73786 0.09564 0.02398 0.04600
H 	H 	0.88131 0.23969 0.99633 0.04600
H 	H 	0.82884 0.27741 0.98521 0.02800
H 	H 	0.84337 0.12377 0.03897 0.04300
H 	H 	0.86491 0.15013 0.96094 0.03800
H 	H 	0.96276 0.16817 0.96518 0.04000
H 	H 	0.00728 0.12127 0.96517 0.04500
H 	H 	0.87597 0.99333 0.01317 0.04200
H 	H 	0.83024 0.03890 0.01131 0.04100
C 	C 	0.10959 0.05696 0.98659 -0.02300
C 	C 	0.14615 0.11430 0.99938 -0.01300
C 	C 	0.20292 0.14284 0.99949 -0.05300
C 	C 	0.22384 0.11456 0.98675 0.02900
C 	C 	0.18746 0.05721 0.97424 -0.05400
C 	C 	0.13064 0.02870 0.97371 -0.02000
C 	C 	0.28443 0.14467 0.98953 -0.04000
C 	C 	0.30565 0.13526 0.96182 -0.05900
C 	C 	0.36605 0.16387 0.96568 0.05000
C 	C 	0.38683 0.13322 0.96054 -0.07800
C 	C 	0.44412 0.15990 0.96603 0.02100
C 	C 	0.48110 0.21759 0.97626 -0.09300
C 	C 	0.46010 0.24836 0.97983 0.02000
C 	C 	0.40287 0.22164 0.97449 -0.07700
H 	H 	0.13081 0.13670 0.00975 0.03600
H 	H 	0.23074 0.18695 0.00973 0.03900
H 	H 	0.20327 0.03455 0.96554 0.04200
H 	H 	0.10309 0.98460 0.96351 0.04300
H 	H 	0.31212 0.17611 0.01408 0.03700
H 	H 	0.27824 0.10426 0.93704 0.04400
H 	H 	0.35865 0.08867 0.95307 0.04800
H 	H 	0.45972 0.13572 0.96254 0.02900
H 	H 	0.48809 0.29289 0.98754 0.02700
H 	H 	0.38715 0.24576 0.97754 0.04900
H 	H 	0.80710 0.01649 0.47741 0.04100
