data_crystal

_cell_length_a 16.20117
_cell_length_b 17.09660
_cell_length_c 25.50796
_cell_angle_alpha 89.99324
_cell_angle_beta  89.99231
_cell_angle_gamma 120.28042

_symmetry_space_group_name_	'P 1'
_symmetry_space_group_name_H-M	'P 1'

loop_
_symmetry_equiv_pos_as_xyz
  x,y,z

loop_
_atom_site_label
_atom_site_type_symbol
_atom_site_fract_x
_atom_site_fract_y
_atom_site_fract_z
_atom_site_charge
Ni	Ni	0.18807 0.60218 0.24301 1.11200
O 	O 	0.19732 0.70302 0.19183 -0.36400
O 	O 	0.14894 0.48613 0.28936 -0.37200
O 	O 	0.18080 0.67200 0.30736 -0.37600
O 	O 	0.19833 0.52910 0.18202 -0.38500
C 	C 	0.12916 0.87283 0.00615 0.28300
C 	C 	0.03577 0.13376 0.08912 0.29800
Ni	Ni	0.10078 0.00273 0.06500 1.09400
Ni	Ni	0.07927 0.98621 0.93899 1.15200
O 	O 	0.23796 0.06999 0.02897 -0.40000
O 	O 	0.20034 0.10551 0.94752 -0.39600
O 	O 	0.07280 0.87716 0.04071 -0.35800
O 	O 	0.15617 0.92789 0.96542 -0.33300
O 	O 	0.10989 0.12116 0.08836 -0.38900
O 	O 	0.04462 0.01631 0.00385 -0.75400
H 	H 	0.07612 0.08262 0.00046 0.17100
C 	C 	0.10873 0.12326 0.59164 0.30300
C 	C 	0.09623 0.14650 0.41876 0.30500
C 	C 	0.00144 0.90040 0.40587 0.29400
Ni	Ni	0.07508 0.01154 0.49995 1.09400
O 	O 	0.12917 0.09408 0.43563 -0.40100
O 	O 	0.02333 0.07103 0.61160 -0.37600
O 	O 	0.12044 0.12624 0.54116 -0.39600
O 	O 	0.03209 0.90362 0.45416 -0.37500
O 	O 	0.04770 0.93236 0.56665 -0.33500
O 	O 	0.01187 0.13043 0.43220 -0.39800
C 	C 	0.12375 0.37336 0.11607 -0.01400
C 	C 	0.17130 0.38104 0.16367 -0.06400
C 	C 	0.15165 0.30239 0.19081 -0.01600
C 	C 	0.08334 0.21767 0.17161 -0.00700
C 	C 	0.04693 0.20964 0.12068 -0.07500
C 	C 	0.06156 0.28791 0.09479 -0.01000
H 	H 	0.13658 0.43354 0.09501 0.04200
H 	H 	0.19003 0.30668 0.22637 0.04000
H 	H 	0.06967 0.15742 0.19292 0.02700
H 	H 	0.03212 0.28298 0.05598 0.03400
C 	C 	0.17231 0.71313 0.07983 -0.00900
C 	C 	0.14021 0.74186 0.03703 -0.01000
C 	C 	0.18729 0.83398 0.02332 -0.05900
H 	H 	0.13064 0.64369 0.09325 0.03800
H 	H 	0.07255 0.69491 0.01883 0.04000
C 	C 	0.11707 0.31058 0.32130 -0.01100
C 	C 	0.10630 0.22787 0.33780 -0.01000
C 	C 	0.15196 0.22335 0.38366 -0.07900
H 	H 	0.07310 0.31156 0.28964 0.04100
H 	H 	0.05241 0.16590 0.31930 0.02200
C 	C 	0.14412 0.79081 0.32281 -0.06100
C 	C 	0.06249 0.73346 0.35257 -0.01400
C 	C 	0.00569 0.76605 0.37357 0.00300
C 	C 	0.03067 0.85677 0.36611 -0.06200
C 	C 	0.10649 0.91135 0.33220 -0.00600
H 	H 	0.04454 0.66453 0.36089 0.04800
H 	H 	0.12610 0.98126 0.32565 0.05700
H 	H 	0.02666 0.26920 0.91380 0.05300
H 	H 	0.01435 0.82086 0.67269 0.05800
C 	C 	0.19403 0.16333 0.62543 -0.07700
H 	H 	0.14898 0.04170 0.67093 0.03300
C 	C 	0.20770 0.10846 0.66119 -0.01200
C 	C 	0.18488 0.39142 0.34533 -0.07100
C 	C 	0.16351 0.87896 0.31102 -0.00700
C 	C 	0.22693 0.47011 0.18916 0.28600
C 	C 	0.26332 0.11887 0.98458 0.30100
C 	C 	0.25380 0.77595 0.10768 -0.06000
C 	C 	0.27732 0.89241 0.04536 -0.01600
C 	C 	0.27200 0.75438 0.16093 0.27800
C 	C 	0.20728 0.48022 0.32311 0.30100
C 	C 	0.20812 0.75807 0.30336 0.29700
C 	C 	0.31046 0.86355 0.08742 -0.00500
H 	H 	0.31454 0.96342 0.03561 0.06000
C 	C 	0.24079 0.38783 0.38660 -0.01500
C 	C 	0.22480 0.30420 0.40534 -0.00500
H 	H 	0.26246 0.30229 0.43997 0.03700
H 	H 	0.22412 0.92335 0.28671 0.05300
C 	C 	0.27108 0.24946 0.61308 -0.00700
H 	H 	0.26137 0.29258 0.58565 0.04300
H 	H 	0.37726 0.04863 0.96552 0.02800
O 	O 	0.29271 0.54896 0.32950 -0.39600
O 	O 	0.28288 0.81181 0.27424 -0.36800
O 	O 	0.29692 0.48466 0.22309 -0.37700
O 	O 	0.32216 0.66124 0.24356 -0.71600
H 	H 	0.29494 0.44964 0.40508 0.04200
C 	C 	0.29881 0.13691 0.68162 -0.01400
H 	H 	0.30842 0.09306 0.70847 0.03900
C 	C 	0.36404 0.16788 0.96912 -0.07300
O 	O 	0.36028 0.80174 0.18040 -0.37000
H 	H 	0.33602 0.66008 0.20609 0.16200
H 	H 	0.37572 0.91191 0.10715 0.05100
H 	H 	0.37613 0.29951 0.96666 0.04000
C 	C 	0.36217 0.27784 0.63320 -0.01400
C 	C 	0.40524 0.11719 0.95199 -0.01000
C 	C 	0.37724 0.22096 0.66670 -0.06900
O 	O 	0.01293 0.03952 0.89431 -0.38600
C 	C 	0.40351 0.25763 0.95177 -0.00500
Ni	Ni	0.38229 0.59839 0.26836 1.12000
Ni	Ni	0.39214 0.78888 0.25562 1.12200
H 	H 	0.42131 0.34330 0.62181 0.04600
O 	O 	0.41181 0.78111 0.33287 -0.37900
C 	C 	0.45167 0.73613 0.35142 0.30400
O 	O 	0.95974 0.94763 0.39092 -0.36000
H 	H 	0.94661 0.72279 0.39915 0.03000
C 	C 	0.77358 0.53170 0.81284 0.28800
C 	C 	0.74821 0.27764 0.64705 0.29900
C 	C 	0.75715 0.52712 0.67511 0.30300
C 	C 	0.80806 0.25830 0.79103 0.28200
C 	C 	0.47410 0.25113 0.68785 0.29900
C 	C 	0.53177 0.24826 0.83156 0.27900
Ni	Ni	0.81534 0.41508 0.73332 1.11200
Ni	Ni	0.61992 0.21847 0.73904 1.11800
Ni	Ni	0.60937 0.39883 0.75257 1.12100
O 	O 	0.83742 0.52589 0.78178 -0.36900
O 	O 	0.68368 0.46671 0.81576 -0.39000
O 	O 	0.48930 0.19396 0.71514 -0.38400
O 	O 	0.81822 0.32349 0.68055 -0.37200
O 	O 	0.65878 0.23779 0.66261 -0.38300
O 	O 	0.51163 0.29861 0.79988 -0.37600
O 	O 	0.78158 0.46622 0.66929 -0.38700
O 	O 	0.69329 0.51653 0.71087 -0.37600
O 	O 	0.56916 0.20020 0.81267 -0.38500
O 	O 	0.84682 0.34781 0.79070 -0.37400
O 	O 	0.73573 0.20534 0.75906 -0.37800
O 	O 	0.53860 0.33756 0.68716 -0.39000
O 	O 	0.68772 0.34550 0.75322 -0.71500
H 	H 	0.69891 0.34431 0.79106 0.15900
C 	C 	0.54036 0.74650 0.20989 0.28400
O 	O 	0.47552 0.69036 0.31939 -0.38700
O 	O 	0.52271 0.80459 0.23597 -0.37100
O 	O 	0.48124 0.65752 0.21211 -0.38700
C 	C 	0.89660 0.88415 0.10106 0.30300
C 	C 	0.88233 0.84293 0.93097 0.30800
C 	C 	0.97948 0.09326 0.91041 0.26900
Ni	Ni	0.91561 0.98725 0.00745 1.14200
O 	O 	0.85457 0.90004 0.94608 -0.35500
O 	O 	0.98404 0.94098 0.11697 -0.34600
O 	O 	0.87720 0.87635 0.05124 -0.38400
O 	O 	0.94920 0.09056 0.95895 -0.40300
O 	O 	0.94825 0.06960 0.07319 -0.41700
O 	O 	0.96948 0.86093 0.93863 -0.38200
C 	C 	0.72600 0.87829 0.49413 0.27900
C 	C 	0.86960 0.13257 0.50252 0.30500
C 	C 	0.96023 0.86952 0.58328 0.26500
Ni	Ni	0.89957 0.00498 0.56509 1.08200
Ni	Ni	0.90179 0.00606 0.43808 1.08800
O 	O 	0.75797 0.93511 0.53515 -0.33300
O 	O 	0.78131 0.88873 0.45323 -0.36200
O 	O 	0.92465 0.12870 0.53841 -0.38900
O 	O 	0.83163 0.06872 0.46658 -0.40300
O 	O 	0.89354 0.89019 0.59385 -0.34600
O 	O 	0.94613 0.98366 0.50207 -0.66800
H 	H 	0.91303 0.91708 0.50107 0.15800
C 	C 	0.65390 0.72258 0.15471 -0.01500
C 	C 	0.63616 0.78053 0.18575 -0.05600
C 	C 	0.71111 0.86950 0.19523 -0.01000
C 	C 	0.80086 0.90105 0.17187 -0.00600
C 	C 	0.81653 0.84435 0.13859 -0.07000
C 	C 	0.74360 0.75409 0.13176 -0.00700
H 	H 	0.59766 0.65358 0.14738 0.04500
H 	H 	0.69976 0.91466 0.22000 0.05300
H 	H 	0.85640 0.97100 0.17737 0.05800
H 	H 	0.75480 0.70963 0.10622 0.03800
C 	C 	0.50496 0.83094 0.43267 -0.00200
C 	C 	0.48798 0.75240 0.40582 -0.06500
C 	C 	0.52153 0.69817 0.42770 -0.00200
C 	C 	0.58806 0.73219 0.46858 -0.01300
C 	C 	0.62286 0.82115 0.48619 -0.05200
C 	C 	0.57066 0.86386 0.47399 -0.01000
H 	H 	0.47378 0.87030 0.41894 0.05300
H 	H 	0.50259 0.63347 0.41025 0.03700
H 	H 	0.62245 0.69494 0.48101 0.03800
H 	H 	0.59061 0.92890 0.49110 0.05900
C 	C 	0.92937 0.26902 0.85639 -0.00800
C 	C 	0.86068 0.21904 0.81784 -0.06300
C 	C 	0.84422 0.13250 0.80405 -0.01300
C 	C 	0.89189 0.09479 0.83051 -0.01700
C 	C 	0.95603 0.14270 0.87124 -0.05800
C 	C 	0.97717 0.23136 0.88254 -0.02700
H 	H 	0.94409 0.33615 0.86713 0.04300
H 	H 	0.79353 0.09374 0.77350 0.03500
H 	H 	0.87462 0.02627 0.82141 0.02800
C 	C 	0.78954 0.60645 0.89804 -0.00600
C 	C 	0.80172 0.61394 0.84346 -0.06400
C 	C 	0.81188 0.69130 0.81821 -0.00900
C 	C 	0.81899 0.76359 0.84767 -0.00700
C 	C 	0.81827 0.76002 0.90263 -0.06400
C 	C 	0.79378 0.67766 0.92713 -0.00500
H 	H 	0.77495 0.54467 0.91783 0.04100
H 	H 	0.81132 0.69440 0.77588 0.04400
H 	H 	0.83395 0.82552 0.82793 0.04900
H 	H 	0.78919 0.67260 0.96951 0.04600
C 	C 	0.46908 0.14785 0.90996 -0.01600
C 	C 	0.49267 0.22983 0.88526 -0.06000
C 	C 	0.46671 0.28824 0.90927 -0.01200
H 	H 	0.49309 0.10412 0.89382 0.03900
H 	H 	0.49003 0.35465 0.89288 0.04400
C 	C 	0.86237 0.31244 0.57299 -0.00900
C 	C 	0.77001 0.25997 0.59371 -0.06600
C 	C 	0.70224 0.18327 0.56586 -0.01600
C 	C 	0.73193 0.14998 0.52436 -0.01100
C 	C 	0.82946 0.19098 0.51247 -0.08000
C 	C 	0.89123 0.27885 0.53125 -0.00500
H 	H 	0.91354 0.37569 0.59141 0.04100
H 	H 	0.62860 0.14553 0.57885 0.03700
H 	H 	0.68151 0.08605 0.50651 0.02400
H 	H 	0.96538 0.31501 0.51897 0.04100
C 	C 	0.80650 0.62453 0.59584 0.00000
C 	C 	0.81636 0.61545 0.64971 -0.07500
C 	C 	0.89617 0.68402 0.67614 -0.00400
C 	C 	0.95797 0.76557 0.65063 -0.02000
C 	C 	0.94022 0.77921 0.59858 -0.04900
C 	C 	0.86991 0.70518 0.57008 -0.01900
H 	H 	0.74942 0.56948 0.57399 0.03700
H 	H 	0.91081 0.67401 0.71620 0.03800
H 	H 	0.85763 0.71358 0.52923 0.03700
