data_crystal

_cell_length_a 20.53611
_cell_length_b 21.43314
_cell_length_c 22.69640
_cell_angle_alpha 61.09856
_cell_angle_beta  118.57117
_cell_angle_gamma 133.16448

_symmetry_space_group_name_	'P 1'
_symmetry_space_group_name_H-M	'P 1'

loop_
_symmetry_equiv_pos_as_xyz
  x,y,z

loop_
_atom_site_label
_atom_site_type_symbol
_atom_site_fract_x
_atom_site_fract_y
_atom_site_fract_z
_atom_site_charge
Co	Co	0.05810 0.04755 0.22942 1.18500
O 	O 	0.05134 0.99860 0.33506 -0.28400
O 	O 	0.03149 0.90713 0.97303 -0.28000
Co	Co	0.03568 0.03208 0.73443 1.19000
O 	O 	0.00882 0.96039 0.83460 -0.29000
O 	O 	0.05781 0.94542 0.60518 -0.73400
C 	C 	0.02101 0.01648 0.36151 0.21300
C 	C 	0.03371 0.99458 0.43813 0.27500
O 	O 	0.00183 0.99494 0.63936 -0.54200
O 	O 	0.05268 0.80241 0.11045 -0.35700
O 	O 	0.07682 0.94994 0.10690 -0.74700
O 	O 	0.11121 0.00566 0.47957 -0.31500
F 	F 	0.07441 0.66976 0.82293 -0.32000
F 	F 	0.11159 0.73358 0.28407 -0.33500
C 	C 	0.06063 0.20655 0.20159 0.38900
O 	O 	0.10268 0.18002 0.19943 -0.33700
Co	Co	0.11658 0.98110 0.67934 1.20200
Co	Co	0.10790 0.91245 0.57103 1.19000
C 	C 	0.04795 0.19285 0.72011 0.39100
O 	O 	0.09194 0.16274 0.72709 -0.32300
O 	O 	0.09002 0.81584 0.66151 -0.36200
F 	F 	0.06407 0.34079 0.61235 -0.33100
C 	C 	0.00229 0.95608 0.93733 0.24600
F 	F 	0.09121 0.35985 0.09323 -0.33500
Co	Co	0.13315 0.93361 0.06321 1.17300
Co	Co	0.14541 0.00715 0.16912 1.19200
C 	C 	0.13965 0.83594 0.72143 0.40400
O 	O 	0.13473 0.88010 0.74337 -0.32200
C 	C 	0.09793 0.34735 0.67874 0.29600
C 	C 	0.10084 0.27907 0.73333 -0.18500
C 	C 	0.11683 0.36394 0.15927 0.29500
C 	C 	0.11461 0.29371 0.21474 -0.18500
O 	O 	0.00516 0.95788 0.16569 -0.54100
F 	F 	0.13837 0.23212 0.33699 -0.36200
H 	H 	0.15043 0.56055 0.23631 0.16200
H 	H 	0.13832 0.53763 0.76341 0.16400
O 	O 	0.17272 0.06450 0.23659 -0.40200
O 	O 	0.14333 0.03326 0.75033 -0.40100
C 	C 	0.13309 0.28559 0.80177 0.29600
F 	F 	0.13255 0.21854 0.85524 -0.35300
C 	C 	0.15099 0.71219 0.80268 0.31300
F 	F 	0.14253 0.58038 0.85283 -0.32400
C 	C 	0.14544 0.43868 0.17170 0.25700
F 	F 	0.15229 0.50786 0.11772 -0.34900
F 	F 	0.14004 0.61321 0.30943 -0.33400
C 	C 	0.12950 0.42234 0.69240 0.26000
F 	F 	0.13032 0.48952 0.63893 -0.34400
C 	C 	0.16434 0.37164 0.29472 0.26000
C 	C 	0.13937 0.29865 0.28258 0.28700
C 	C 	0.16378 0.36019 0.81541 0.26600
O 	O 	0.18902 0.92518 0.23340 -0.31600
O 	O 	0.20308 0.06725 0.02098 -0.38800
C 	C 	0.18225 0.66482 0.81406 0.26500
C 	C 	0.19503 0.80150 0.76626 -0.17800
C 	C 	0.18841 0.76211 0.27288 0.30100
C 	C 	0.20046 0.69987 0.28226 0.26300
C 	C 	0.16663 0.43108 0.76069 -0.13600
F 	F 	0.19756 0.36672 0.88182 -0.33200
C 	C 	0.17356 0.44487 0.23983 -0.13300
F 	F 	0.18896 0.37522 0.36080 -0.34500
C 	C 	0.22718 0.91422 0.20929 0.40700
C 	C 	0.22118 0.58323 0.25401 -0.11500
C 	C 	0.21024 0.56666 0.77405 -0.11800
C 	C 	0.99250 0.98452 0.86759 0.21700
O 	O 	0.97070 0.16230 0.18277 -0.35300
O 	O 	0.95800 0.14994 0.69779 -0.34600
O 	O 	0.96695 0.03639 0.83229 -0.30400
O 	O 	0.24196 0.95845 0.14743 -0.36400
O 	O 	0.24051 0.00026 0.61825 -0.35800
C 	C 	0.25457 0.85325 0.25002 -0.18100
C 	C 	0.72794 0.29266 0.02471 0.23200
C 	C 	0.63628 0.26323 0.00781 -0.21800
C 	C 	0.61640 0.30364 0.02355 0.27600
C 	C 	0.68672 0.38461 0.04044 -0.15900
C 	C 	0.77796 0.42203 0.04864 0.22800
C 	C 	0.79980 0.37396 0.04504 -0.13300
H 	H 	0.58045 0.20679 0.98552 0.23600
H 	H 	0.67053 0.41812 0.04873 0.13600
H 	H 	0.87070 0.39816 0.05959 0.16000
C 	C 	0.71031 0.29234 0.52673 0.21800
C 	C 	0.77918 0.37449 0.54587 -0.11300
C 	C 	0.75285 0.42073 0.54642 0.22700
C 	C 	0.66020 0.38231 0.53334 -0.13700
C 	C 	0.59360 0.29891 0.52086 0.23700
C 	C 	0.61782 0.26116 0.50684 -0.12400
H 	H 	0.85093 0.40080 0.56143 0.16700
H 	H 	0.64018 0.41488 0.53819 0.14000
H 	H 	0.56415 0.20176 0.48797 0.15600
C 	C 	0.29226 0.66439 0.27456 0.21500
C 	C 	0.38353 0.69172 0.29630 -0.12300
C 	C 	0.40516 0.65009 0.28442 0.23600
C 	C 	0.33588 0.56818 0.26911 -0.13400
C 	C 	0.24399 0.53337 0.25469 0.22500
H 	H 	0.43851 0.75032 0.31611 0.15600
H 	H 	0.35342 0.53359 0.26410 0.13600
C 	C 	0.27898 0.65191 0.78712 0.22300
C 	C 	0.37182 0.68972 0.79672 -0.12000
C 	C 	0.39420 0.64723 0.78659 0.23900
C 	C 	0.32714 0.56115 0.77921 -0.13400
C 	C 	0.23548 0.52041 0.77286 0.23400
H 	H 	0.42606 0.75304 0.80969 0.16800
H 	H 	0.34558 0.52737 0.77414 0.14500
Co	Co	0.88150 0.95742 0.13045 1.19300
Co	Co	0.96688 0.91371 0.07263 1.17900
Co	Co	0.88829 0.03164 0.23025 1.18500
O 	O 	0.94587 0.00572 0.19746 -0.74100
O 	O 	0.85450 0.90263 0.06139 -0.42300
C 	C 	0.80556 0.05619 0.08268 0.40300
C 	C 	0.26403 0.12192 0.06177 0.41600
C 	C 	0.96232 0.75539 0.09117 0.38200
O 	O 	0.24063 0.12075 0.10828 -0.34400
O 	O 	0.78448 0.00905 0.14251 -0.36500
O 	O 	0.85597 0.05271 0.06537 -0.34500
O 	O 	0.98692 0.06095 0.32121 -0.30000
O 	O 	0.91594 0.78296 0.08440 -0.33700
C 	C 	0.75270 0.84255 0.23219 0.40300
O 	O 	0.81591 0.89812 0.27241 -0.35100
O 	O 	0.76833 0.85056 0.17697 -0.32200
O 	O 	0.98540 0.97996 0.97016 -0.28100
Co	Co	0.86255 0.95374 0.62862 1.19700
Co	Co	0.95165 0.92023 0.56395 1.19200
Co	Co	0.87088 0.01793 0.73894 1.18600
O 	O 	0.92815 0.00233 0.69593 -0.74100
O 	O 	0.83920 0.90880 0.55369 -0.39800
C 	C 	0.78636 0.05042 0.59163 0.40500
C 	C 	0.27043 0.07870 0.61437 0.41900
C 	C 	0.91362 0.76365 0.55148 0.40600
O 	O 	0.23295 0.08793 0.64038 -0.33900
O 	O 	0.76702 0.00151 0.65179 -0.36200
O 	O 	0.82776 0.04296 0.56781 -0.32000
O 	O 	0.98083 0.82445 0.52029 -0.37400
O 	O 	0.89225 0.78613 0.58127 -0.33700
C 	C 	0.73528 0.83244 0.73102 0.40300
O 	O 	0.79534 0.88337 0.77480 -0.35200
O 	O 	0.75952 0.83799 0.68240 -0.32900
O 	O 	0.97506 0.98186 0.46172 -0.31000
C 	C 	0.54713 0.67898 0.82218 0.26300
C 	C 	0.48350 0.69644 0.77271 -0.14200
C 	C 	0.49583 0.74420 0.70493 0.26900
C 	C 	0.57285 0.77699 0.68764 0.29800
C 	C 	0.64046 0.76611 0.73868 -0.19000
C 	C 	0.62438 0.71234 0.80491 0.30100
F 	F 	0.68716 0.69763 0.85395 -0.33300
F 	F 	0.53344 0.62879 0.88682 -0.33900
F 	F 	0.58496 0.82466 0.62236 -0.34700
F 	F 	0.43204 0.75721 0.65551 -0.33100
C 	C 	0.25382 0.70485 0.78475 -0.12200
C 	C 	0.30130 0.79598 0.75261 0.25900
C 	C 	0.27739 0.84478 0.75024 0.29400
F 	F 	0.32868 0.93338 0.72449 -0.34200
F 	F 	0.36593 0.83605 0.71930 -0.34600
C 	C 	0.50659 0.74229 0.20342 0.26800
C 	C 	0.49520 0.70015 0.27163 -0.14500
C 	C 	0.56437 0.69399 0.32505 0.25900
C 	C 	0.64601 0.73286 0.31090 0.29500
C 	C 	0.65917 0.77842 0.24306 -0.19200
C 	C 	0.58746 0.77983 0.18904 0.29600
F 	F 	0.59835 0.82228 0.12309 -0.35000
F 	F 	0.43863 0.74614 0.15099 -0.34000
F 	F 	0.71411 0.72983 0.36354 -0.34800
F 	F 	0.55249 0.65035 0.39071 -0.35800
C 	C 	0.33521 0.88044 0.24223 0.29700
C 	C 	0.27505 0.72809 0.26341 -0.12500
C 	C 	0.33979 0.81949 0.24003 0.24900
F 	F 	0.40490 0.84933 0.21216 -0.35000
F 	F 	0.40337 0.96785 0.22565 -0.33000
C 	C 	0.66853 0.13943 0.56202 0.25100
C 	C 	0.73121 0.23125 0.53827 -0.12200
C 	C 	0.80715 0.26208 0.51941 0.26500
C 	C 	0.82232 0.20192 0.52914 0.30200
C 	C 	0.75736 0.11023 0.55148 -0.17900
C 	C 	0.67537 0.08061 0.55895 0.29500
F 	F 	0.60800 0.99275 0.57444 -0.32600
F 	F 	0.60331 0.10716 0.59111 -0.34600
F 	F 	0.90049 0.23294 0.51825 -0.33100
F 	F 	0.86571 0.34912 0.49176 -0.33300
C 	C 	0.84839 0.65579 0.49051 0.29900
C 	C 	0.86274 0.67110 0.55095 -0.18400
C 	C 	0.85799 0.60708 0.61363 0.29600
C 	C 	0.83680 0.52838 0.61516 0.25800
C 	C 	0.81960 0.51257 0.55390 -0.13100
C 	C 	0.83298 0.58010 0.49315 0.25800
F 	F 	0.82051 0.56788 0.43419 -0.34500
F 	F 	0.85665 0.71811 0.42987 -0.34700
F 	F 	0.82665 0.46486 0.67516 -0.33300
F 	F 	0.87669 0.62203 0.67338 -0.34300
C 	C 	0.35670 0.19756 0.52435 0.29300
C 	C 	0.35732 0.15400 0.59463 -0.19400
C 	C 	0.43760 0.16274 0.64052 0.31400
C 	C 	0.51205 0.20431 0.61531 0.27100
C 	C 	0.50922 0.24264 0.54430 -0.14200
C 	C 	0.43237 0.24147 0.49918 0.26300
F 	F 	0.43100 0.28263 0.43106 -0.35900
F 	F 	0.28056 0.19268 0.47984 -0.35600
F 	F 	0.58798 0.20879 0.65994 -0.33000
F 	F 	0.44056 0.12470 0.70914 -0.32800
C 	C 	0.69082 0.08450 0.04080 0.29700
C 	C 	0.77663 0.11595 0.03922 -0.19300
C 	C 	0.84273 0.20808 0.02141 0.31000
C 	C 	0.82555 0.26632 0.01261 0.20600
C 	C 	0.74616 0.23258 0.02868 -0.12100
C 	C 	0.68080 0.14000 0.04579 0.24200
F 	F 	0.61193 0.10325 0.07301 -0.35900
F 	F 	0.62251 0.99658 0.05094 -0.33700
F 	F 	0.88469 0.35412 0.98740 -0.27200
F 	F 	0.92370 0.24130 0.01374 -0.35000
C 	C 	0.91377 0.60030 0.13739 0.29300
C 	C 	0.91190 0.66777 0.08060 -0.17800
C 	C 	0.88310 0.65912 0.01334 0.24600
C 	C 	0.85453 0.58331 0.00300 0.21800
C 	C 	0.84887 0.51255 0.05959 -0.12900
C 	C 	0.88307 0.52350 0.12695 0.25800
F 	F 	0.88025 0.45696 0.18239 -0.34200
F 	F 	0.94502 0.60895 0.20280 -0.32700
F 	F 	0.82424 0.57514 0.93754 -0.29200
F 	F 	0.88391 0.72477 0.95781 -0.31700
C 	C 	0.37782 0.23278 0.98876 0.35500
C 	C 	0.35960 0.18502 0.05512 -0.25800
C 	C 	0.42744 0.17874 0.11103 0.30300
C 	C 	0.50866 0.21223 0.09971 0.28100
C 	C 	0.52465 0.25575 0.03276 -0.22200
C 	C 	0.45976 0.26755 0.97761 0.32300
F 	F 	0.47639 0.31324 0.91330 -0.34700
F 	F 	0.31424 0.24222 0.93454 -0.33700
F 	F 	0.57260 0.20342 0.15398 -0.33800
F 	F 	0.41237 0.13562 0.17583 -0.35800
